
#######################################################################
#
#                 Cambridge Crystallographic Data Centre
#                                CCDC 
#
#######################################################################
#
# If this CIF has been generated from an entry in the Cambridge 
# Structural Database, then it will include bibliographic, chemical, 
# crystal, experimental, refinement or atomic coordinate data resulting 
# from the CCDC's data processing and validation procedures.
#
#######################################################################

data_CIHQOB
_symmetry_cell_setting           triclinic
_symmetry_space_group_name_H-M   'P -1'
_symmetry_Int_Tables_number      2
_space_group_name_Hall           '-P 1'
loop_
_symmetry_equiv_pos_site_id
_symmetry_equiv_pos_as_xyz
1 x,y,z
2 -x,-y,-z
_cell_length_a                   6.7621(4)
_cell_length_b                   8.0573(4)
_cell_length_c                   13.2355(7)
_cell_angle_alpha                72.8670(10)
_cell_angle_beta                 89.4680(10)
_cell_angle_gamma                74.8760(10)
_cell_volume                     663.469
loop_
_atom_site_label
_atom_site_type_symbol
_atom_site_fract_x
_atom_site_fract_y
_atom_site_fract_z
Co1 Co 0.27310(4) -0.04828(4) 0.27376(2)
Co2 Co 0.0000 0.0000 0.5000
Co3 Co 0.5000 0.0000 0.5000
S1 S 0.15232(8) 0.31613(7) 0.33463(4)
O1 O 0.1816(2) 0.2231(2) 0.25210(12)
O2 O -0.0104(2) 0.2611(2) 0.40247(12)
O3 O 0.3465(2) 0.2651(2) 0.40205(13)
O4 O 0.0899(2) 0.5110(2) 0.28494(13)
O5 O 0.2814(2) -0.09041(19) 0.44151(11)
O6 O 0.3712(3) -0.3170(2) 0.30317(14)
N1 N 0.3288(3) 0.0413(2) 0.62661(14)
N2 N 0.1341(3) 0.0482(2) 0.62554(14)
N3 N 0.0635(3) 0.0537(2) 0.71982(14)
N4 N 0.3957(3) 0.0415(2) 0.72128(14)
N5 N 0.2554(3) -0.0095(3) 1.10792(14)
C1 C 0.2284(3) 0.0492(3) 0.77690(16)
C2 C 0.2343(3) 0.0342(3) 0.89142(16)
C3 C 0.1315(3) 0.1741(3) 0.92988(17)
C4 C 0.3479(3) -0.1273(3) 0.96248(17)
C5 C 0.3539(3) -0.1442(3) 1.06965(17)
C6 C 0.1469(3) 0.1460(3) 1.03839(17)
H1 H 0.423(4) -0.252(4) 1.120(2)
H2 H 0.424(5) -0.227(4) 0.938(2)
H3 H 0.063(4) 0.282(4) 0.889(2)
H4 H 0.077(5) 0.238(4) 1.066(2)
H5 H 0.291(7) -0.373(5) 0.299(3)
H6 H 0.462(7) -0.365(6) 0.352(4)
Co1A Co -0.27310(4) 0.04828(4) 0.72624(2)
S1A S -0.15232(8) -0.31613(7) 0.66537(4)
O1A O -0.1816(2) -0.2231(2) 0.74790(12)
O2A O 0.0104(2) -0.2611(2) 0.59753(12)
O3A O -0.3465(2) -0.2651(2) 0.59795(13)
O4A O -0.0899(2) -0.5110(2) 0.71506(13)
O5A O -0.2814(2) 0.09041(19) 0.55849(11)
O6A O -0.3712(3) 0.3170(2) 0.69683(14)
N1A N -0.3288(3) -0.0413(2) 0.37339(14)
N2A N -0.1341(3) -0.0482(2) 0.37446(14)
N3A N -0.0635(3) -0.0537(2) 0.28018(14)
N4A N -0.3957(3) -0.0415(2) 0.27872(14)
N5A N -0.2554(3) 0.0095(3) -0.10792(14)
C1A C -0.2284(3) -0.0492(3) 0.22310(16)
C2A C -0.2343(3) -0.0342(3) 0.10858(16)
C3A C -0.1315(3) -0.1741(3) 0.07012(17)
C4A C -0.3479(3) 0.1273(3) 0.03752(17)
C5A C -0.3539(3) 0.1442(3) -0.06965(17)
C6A C -0.1469(3) -0.1460(3) -0.03839(17)
H1A H -0.423(4) 0.252(4) -0.120(2)
H2A H -0.424(5) 0.227(4) 0.062(2)
H3A H -0.063(4) -0.282(4) 0.111(2)
H4A H -0.077(5) -0.238(4) -0.066(2)
H5A H -0.291(7) 0.373(5) 0.701(3)
H6A H -0.462(7) 0.365(6) 0.648(4)
Co1_2 Co -0.72690(4) -0.04828(4) 0.27376(2)
Co1_3 Co 0.27310(4) -0.04828(4) 1.27376(2)
Co1A_2 Co -0.27310(4) 0.04828(4) -0.27376(2)
Co1A_3 Co 0.72690(4) 0.04828(4) 0.72624(2)
Co3_2 Co -0.5000 0.0000 0.5000
O3A_2 O 0.6535(2) -0.2651(2) 0.59795(13)
O5A_2 O 0.7186(2) 0.09041(19) 0.55849(11)
N1A_2 N 0.6712(3) -0.0413(2) 0.37339(14)
N4_2 N -0.6043(3) 0.0415(2) 0.72128(14)
N4A_2 N 0.6043(3) -0.0415(2) 0.27872(14)
N5_2 N 0.2554(3) -0.0095(3) 0.10792(14)
N5A_2 N -0.2554(3) 0.0095(3) 0.89208(14)
O7 O 0.6859(3) 0.5219(4) 0.44743(19)
O8 O 0.3577(6) 0.6193(6) 0.7980(4)
loop_
_geom_bond_atom_site_label_1
_geom_bond_atom_site_label_2
_geom_bond_site_symmetry_1
_geom_bond_site_symmetry_2
Co1 O1 1_555 1_555
Co2 O2 1_555 1_555
Co3 O3 1_555 1_555
S1 O1 1_555 1_555
O2 S1 1_555 1_555
O3 S1 1_555 1_555
O4 S1 1_555 1_555
O5 Co1 1_555 1_555
O6 Co1 1_555 1_555
N1 Co3 1_555 1_555
N2 Co2 1_555 1_555
N3 N2 1_555 1_555
N4 N1 1_555 1_555
N5 C5 1_555 1_555
C1 N3 1_555 1_555
C2 C1 1_555 1_555
C3 C2 1_555 1_555
C4 C2 1_555 1_555
C5 C4 1_555 1_555
C6 N5 1_555 1_555
H1 C5 1_555 1_555
H2 C4 1_555 1_555
H3 C3 1_555 1_555
H4 C6 1_555 1_555
H5 O6 1_555 1_555
H6 O6 1_555 1_555
Co1A N3 1_555 1_555
S1A O1A 1_555 1_555
O1A Co1A 1_555 1_555
O2A Co2 1_555 1_555
O3A S1A 1_555 1_555
O4A S1A 1_555 1_555
O5A Co2 1_555 1_555
O6A Co1A 1_555 1_555
N1A N2A 1_555 1_555
N2A Co2 1_555 1_555
N3A Co1 1_555 1_555
N4A N1A 1_555 1_555
N5A C5A 1_555 1_555
C1A N3A 1_555 1_555
C2A C1A 1_555 1_555
C3A C2A 1_555 1_555
C4A C2A 1_555 1_555
C5A C4A 1_555 1_555
C6A N5A 1_555 1_555
H1A C5A 1_555 1_555
H2A C4A 1_555 1_555
H3A C3A 1_555 1_555
H4A C6A 1_555 1_555
H5A O6A 1_555 1_555
H6A O6A 1_555 1_555
Co1_2 N4A 1_555 1_555
Co1_3 N5 1_555 1_555
Co1A_2 N5A 1_555 1_555
Co1A_3 N4 1_555 1_555
Co3_2 O3A 1_555 1_555
O3A_2 Co3 1_555 1_555
O5A_2 Co3 1_555 1_555
N1A_2 Co3 1_555 1_555
N4_2 Co1A 1_555 1_555
N4A_2 Co1 1_555 1_555
N5_2 Co1 1_555 1_555
N5A_2 Co1A 1_555 1_555
Co2 O5 1_555 1_555
Co3 O5 1_555 1_555
N1 N2 1_555 1_555
N4 C1 1_555 1_555
C3 C6 1_555 1_555
Co1A O5A 1_555 1_555
S1A O2A 1_555 1_555
O5A Co3_2 1_555 1_555
N1A Co3_2 1_555 1_555
N2A N3A 1_555 1_555
N4A C1A 1_555 1_555
C3A C6A 1_555 1_555
Co1A_3 O5A_2 1_555 1_555
N1A_2 N4A_2 1_555 1_555

#END
