
#######################################################################
#
#                 Cambridge Crystallographic Data Centre
#                                CCDC 
#
#######################################################################
#
# If this CIF has been generated from an entry in the Cambridge 
# Structural Database, then it will include bibliographic, chemical, 
# crystal, experimental, refinement or atomic coordinate data resulting 
# from the CCDC's data processing and validation procedures.
#
#######################################################################

data_CIHQAM
_symmetry_cell_setting           monoclinic
_symmetry_space_group_name_H-M   'P 21/n'
_symmetry_Int_Tables_number      14
_space_group_name_Hall           '-P 2yn'
loop_
_symmetry_equiv_pos_site_id
_symmetry_equiv_pos_as_xyz
1 x,y,z
2 1/2-x,1/2+y,1/2-z
3 -x,-y,-z
4 1/2+x,1/2-y,1/2+z
_cell_length_a                   9.0951(11)
_cell_length_b                   17.6726(15)
_cell_length_c                   12.3674(14)
_cell_angle_alpha                90
_cell_angle_beta                 109.155(10)
_cell_angle_gamma                90
_cell_volume                     1877.8
loop_
_atom_site_label
_atom_site_type_symbol
_atom_site_fract_x
_atom_site_fract_y
_atom_site_fract_z
Fe1 Fe -0.90478(5) 0.21818(2) -0.12941(4)
Cl1 Cl -0.91543(16) 0.14281(6) 0.01259(10)
Cl2 Cl -1.07842(10) 0.18880(6) -0.30217(8)
O1 O -0.8961(2) 0.32848(11) -0.08863(17)
N1 N -1.1955(3) 0.27038(14) 0.3345(2)
N2 N -1.1171(3) 0.37109(13) 0.05212(19)
N3 N -1.1461(3) 0.47731(15) -0.1972(2)
N4 N -1.0352(3) 0.42498(14) -0.2029(2)
C1 C -1.0813(4) 0.2279(2) 0.4036(3)
H1 H -1.0947 0.2072 0.4689
C2 C -0.9456(4) 0.2137(2) 0.3823(3)
H2 H -0.8689 0.1838 0.4322
C3 C -0.9235(4) 0.2442(2) 0.2863(3)
H3 H -0.8324 0.2345 0.2700
C4 C -1.0380(3) 0.28923(16) 0.2146(2)
C5 C -1.1730(3) 0.30026(17) 0.2417(2)
H4 H -1.2516 0.3299 0.1931
C6 C -1.0197(3) 0.32311(17) 0.1113(2)
H5 H -0.9354 0.3092 0.0889
C7 C -1.1011(3) 0.40129(16) -0.0478(2)
C8 C -1.0012(3) 0.37848(16) -0.1092(2)
C9 C -1.1898(4) 0.46064(17) -0.1068(3)
C10 C -1.3182(4) 0.5011(2) -0.0813(3)
H6 H -1.3586 0.5401 -0.1373
H7 H -1.2791 0.5235 -0.0066
H8 H -1.3996 0.4660 -0.0837
C11 C -1.2281(5) 0.5224(2) -0.2975(3)
H9 H -1.3004 0.5555 -0.2793
H10 H -1.2836 0.4894 -0.3591
H11 H -1.1545 0.5519 -0.3201
C12 C -0.9382(4) 0.43572(17) -0.2727(2)
C13 C -0.9376(6) 0.3816(2) -0.3512(3)
H12 H -1.0050 0.3404 -0.3642
C14 C -0.8336(7) 0.3895(3) -0.4112(4)
H13 H -0.8282 0.3522 -0.4627
C15 C -0.7394(5) 0.4512(2) -0.3956(3)
H14 H -0.6721 0.4564 -0.4379
C16 C -0.7434(5) 0.5051(2) -0.3186(3)
H15 H -0.6794 0.5473 -0.3086
C17 C -0.8421(4) 0.4973(2) -0.2552(3)
H16 H -0.8433 0.5336 -0.2010
Fe1C Fe -1.40478(5) 0.28182(2) 0.37059(4)
N1C N -0.6955(3) 0.22962(14) -0.1655(2)
loop_
_geom_bond_atom_site_label_1
_geom_bond_atom_site_label_2
_geom_bond_site_symmetry_1
_geom_bond_site_symmetry_2
Fe1 Cl1 1_555 1_555
Cl2 Fe1 1_555 1_555
O1 Fe1 1_555 1_555
N1 C1 1_555 1_555
N2 C6 1_555 1_555
N3 N4 1_555 1_555
N4 C8 1_555 1_555
C1 H1 1_555 1_555
C2 C1 1_555 1_555
H2 C2 1_555 1_555
C3 C2 1_555 1_555
H3 C3 1_555 1_555
C4 C3 1_555 1_555
C5 N1 1_555 1_555
H4 C5 1_555 1_555
C6 C4 1_555 1_555
H5 C6 1_555 1_555
C7 N2 1_555 1_555
C8 O1 1_555 1_555
C9 N3 1_555 1_555
C10 C9 1_555 1_555
H6 C10 1_555 1_555
H7 C10 1_555 1_555
H8 C10 1_555 1_555
C11 N3 1_555 1_555
H9 C11 1_555 1_555
H10 C11 1_555 1_555
H11 C11 1_555 1_555
C12 N4 1_555 1_555
C13 C12 1_555 1_555
H12 C13 1_555 1_555
C14 C13 1_555 1_555
H13 C14 1_555 1_555
C15 C14 1_555 1_555
H14 C15 1_555 1_555
C16 C15 1_555 1_555
H15 C16 1_555 1_555
C17 C12 1_555 1_555
H16 C17 1_555 1_555
Fe1C N1 1_555 1_555
N1C Fe1 1_555 1_555
C4 C5 1_555 1_555
C7 C8 1_555 1_555
C7 C9 1_555 1_555
C16 C17 1_555 1_555

#END
