
#######################################################################
#
#                 Cambridge Crystallographic Data Centre
#                                CCDC 
#
#######################################################################
#
# If this CIF has been generated from an entry in the Cambridge 
# Structural Database, then it will include bibliographic, chemical, 
# crystal, experimental, refinement or atomic coordinate data resulting 
# from the CCDC's data processing and validation procedures.
#
#######################################################################

data_CIHRAN
_symmetry_cell_setting           monoclinic
_symmetry_space_group_name_H-M   'P 21/n'
_symmetry_Int_Tables_number      14
_space_group_name_Hall           '-P 2yn'
loop_
_symmetry_equiv_pos_site_id
_symmetry_equiv_pos_as_xyz
1 x,y,z
2 1/2-x,1/2+y,1/2-z
3 -x,-y,-z
4 1/2+x,1/2-y,1/2+z
_cell_length_a                   11.3871(7)
_cell_length_b                   8.0571(4)
_cell_length_c                   14.2736(8)
_cell_angle_alpha                90
_cell_angle_beta                 94.709(1)
_cell_angle_gamma                90
_cell_volume                     1305.14
loop_
_atom_site_label
_atom_site_type_symbol
_atom_site_fract_x
_atom_site_fract_y
_atom_site_fract_z
Cu1 Cu 0.79962(5) 0.08070(7) 0.85041(4)
N1 N 0.7922(4) -0.3155(5) 0.3380(3)
N2 N 0.9126(3) 0.2502(5) 0.4042(3)
N3 N 0.8865(3) -0.1176(4) 0.9074(2)
O1 O 0.8345(3) 0.0325(4) 0.71905(19)
O2 O 0.7324(3) -0.1993(4) 0.6987(2)
O3 O 0.7337(3) -0.3441(4) 0.52673(19)
O4 O 0.7146(3) -0.4174(5) 0.3446(2)
O5 O 0.8603(3) -0.3185(5) 0.2747(2)
O6 O 0.9185(4) 0.2677(4) 0.3200(2)
O7 O 0.9413(4) 0.3596(4) 0.4608(3)
C1 C 0.8106(3) -0.0724(6) 0.5656(3)
C2 C 0.7791(4) -0.2071(5) 0.5031(3)
C3 C 0.8081(4) -0.1821(5) 0.4084(3)
C4 C 0.8525(4) -0.0363(5) 0.3755(3)
H1 H 0.8690 -0.0252 0.3131
C5 C 0.8716(4) 0.0929(6) 0.4385(3)
C6 C 0.8541(3) 0.0733(6) 0.5327(3)
H2 H 0.8720 0.1603 0.5743
C7 C 0.7906(4) -0.0816(6) 0.6678(3)
C8 C 0.9437(4) -0.2242(6) 0.8561(3)
H3 H 0.9528 -0.1965 0.7939
C9 C 0.9900(4) -0.3721(6) 0.8891(3)
H4 H 1.0290 -0.4413 0.8497
C10 C 0.9784(3) -0.4179(6) 0.9812(3)
C11 C 0.9235(4) -0.3043(6) 1.0364(3)
H5 H 0.9169 -0.3261 1.0997
C12 C 0.8790(4) -0.1600(6) 0.9972(3)
H6 H 0.8413 -0.0870 1.0354
O8 O 0.6205(3) -0.0355(5) 0.8352(2)
H7 H 0.6018 -0.0643 0.8871
H8 H 0.5798 -0.1085 0.7926
Cu1B Cu 1.20038(5) -1.08070(7) 1.14959(4)
Cu1A Cu 0.70038(5) -0.41930(7) 0.64959(4)
Cu1A_2 Cu 0.70038(5) 0.58070(7) 0.64959(4)
N1A N 0.7078(4) 0.1845(5) 1.1620(3)
N2A N 0.5874(3) 0.7502(5) 1.0958(3)
N3B N 1.1135(3) -0.8824(4) 1.0926(2)
O1A O 0.6655(3) 0.5325(4) 0.78095(19)
O1B O 1.1655(3) -1.0325(4) 1.28095(19)
O2A O 0.7676(3) 0.3007(4) 0.8013(2)
O2C O 1.2324(3) -1.3007(4) 1.1987(2)
O3A O 0.7663(3) 0.1559(4) 0.97327(19)
O3C O 1.2337(3) -1.1559(4) 1.02673(19)
O4A O 0.7854(3) 0.0826(5) 1.1554(2)
O5A O 0.6397(3) 0.1815(5) 1.2253(2)
O6A O 0.5815(4) 0.7677(4) 1.1800(2)
O7A O 0.5587(4) 0.8596(4) 1.0392(3)
C1A C 0.6894(3) 0.4276(6) 0.9344(3)
C2A C 0.7209(4) 0.2929(5) 0.9969(3)
C3A C 0.6919(4) 0.3179(5) 1.0916(3)
C4A C 0.6475(4) 0.4637(5) 1.1245(3)
H1A H 0.6310 0.4748 1.1869
C5A C 0.6284(4) 0.5929(6) 1.0615(3)
C6A C 0.6459(3) 0.5733(6) 0.9673(3)
H2A H 0.6280 0.6603 0.9257
C7A C 0.7094(4) 0.4184(6) 0.8322(3)
C8B C 1.0563(4) -0.7758(6) 1.1439(3)
H3B H 1.0472 -0.8035 1.2061
C9B C 1.0100(4) -0.6279(6) 1.1109(3)
H4B H 0.9710 -0.5587 1.1503
C10B C 1.0216(3) -0.5821(6) 1.0188(3)
C11B C 1.0765(4) -0.6957(6) 0.9636(3)
H5B H 1.0831 -0.6739 0.9003
C12B C 1.1210(4) -0.8400(6) 1.0028(3)
H6B H 1.1587 -0.9130 0.9646
O8B O 1.3795(3) -0.9645(5) 1.1648(2)
H7B H 1.3982 -0.9357 1.1129
H8B H 1.4202 -0.8915 1.2074
loop_
_geom_bond_atom_site_label_1
_geom_bond_atom_site_label_2
_geom_bond_site_symmetry_1
_geom_bond_site_symmetry_2
Cu1 N3 1_555 1_555
N1 O4 1_555 1_555
N2 O6 1_555 1_555
N3 C8 1_555 1_555
O1 Cu1 1_555 1_555
O2 C7 1_555 1_555
O3 C2 1_555 1_555
O5 N1 1_555 1_555
O7 N2 1_555 1_555
C1 C2 1_555 1_555
C2 C3 1_555 1_555
C3 N1 1_555 1_555
C4 C3 1_555 1_555
H1 C4 1_555 1_555
C5 N2 1_555 1_555
C6 C1 1_555 1_555
H2 C6 1_555 1_555
C7 O1 1_555 1_555
C8 H3 1_555 1_555
C9 C8 1_555 1_555
H4 C9 1_555 1_555
C10 C9 1_555 1_555
C11 C10 1_555 1_555
H5 C11 1_555 1_555
C12 N3 1_555 1_555
H6 C12 1_555 1_555
O8 Cu1 1_555 1_555
H7 O8 1_555 1_555
H8 O8 1_555 1_555
Cu1B N3B 1_555 1_555
Cu1A O2 1_555 1_555
Cu1A_2 O1A 1_555 1_555
N1A O4A 1_555 1_555
N2A O6A 1_555 1_555
N3B C8B 1_555 1_555
O1A C7A 1_555 1_555
O1B Cu1B 1_555 1_555
O2A Cu1 1_555 1_555
O2C Cu1B 1_555 1_555
O3A Cu1 1_555 1_555
O3C Cu1B 1_555 1_555
O5A N1A 1_555 1_555
O7A N2A 1_555 1_555
C1A C2A 1_555 1_555
C2A O3A 1_555 1_555
C3A N1A 1_555 1_555
C4A C3A 1_555 1_555
H1A C4A 1_555 1_555
C5A N2A 1_555 1_555
C6A C1A 1_555 1_555
H2A C6A 1_555 1_555
C7A O2A 1_555 1_555
C8B H3B 1_555 1_555
C9B C8B 1_555 1_555
H4B C9B 1_555 1_555
C10B C10 1_555 1_555
C11B C10B 1_555 1_555
H5B C11B 1_555 1_555
C12B N3B 1_555 1_555
H6B C12B 1_555 1_555
O8B Cu1B 1_555 1_555
H7B O8B 1_555 1_555
H8B O8B 1_555 1_555
O3 Cu1A 1_555 1_555
C1 C7 1_555 1_555
C4 C5 1_555 1_555
C5 C6 1_555 1_555
C11 C12 1_555 1_555
C1A C7A 1_555 1_555
C2A C3A 1_555 1_555
C4A C5A 1_555 1_555
C5A C6A 1_555 1_555
C9B C10B 1_555 1_555
C11B C12B 1_555 1_555

#END
