
#######################################################################
#
#                 Cambridge Crystallographic Data Centre
#                                CCDC 
#
#######################################################################
#
# If this CIF has been generated from an entry in the Cambridge 
# Structural Database, then it will include bibliographic, chemical, 
# crystal, experimental, refinement or atomic coordinate data resulting 
# from the CCDC's data processing and validation procedures.
#
#######################################################################

data_CIHSUI
_symmetry_cell_setting           triclinic
_symmetry_space_group_name_H-M   'P -1'
_symmetry_Int_Tables_number      2
_space_group_name_Hall           '-P 1'
loop_
_symmetry_equiv_pos_site_id
_symmetry_equiv_pos_as_xyz
1 x,y,z
2 -x,-y,-z
_cell_length_a                   10.8702(6)
_cell_length_b                   12.4829(5)
_cell_length_c                   14.1536(5)
_cell_angle_alpha                67.912(4)
_cell_angle_beta                 86.830(3)
_cell_angle_gamma                63.429(5)
_cell_volume                     1576.78
loop_
_atom_site_label
_atom_site_type_symbol
_atom_site_fract_x
_atom_site_fract_y
_atom_site_fract_z
Eu1 Eu -0.000810(17) 0.524503(16) 0.741416(13)
O1 O 0.1651(3) 0.2982(3) 0.8087(2)
O2 O -0.1212(3) 0.3944(3) 0.7918(2)
O3 O -0.0194(3) 0.6967(3) 0.7911(2)
O4 O 0.2157(3) 0.5388(3) 0.7271(2)
O5 O -0.0113(3) 0.6948(3) 0.5808(2)
O6 O -0.2325(3) 0.7056(3) 0.6929(2)
C1 C 0.1614(4) 0.1919(4) 0.8442(3)
C2 C 0.0454(5) 0.1709(4) 0.8596(4)
C3 C -0.0877(4) 0.2757(4) 0.8330(3)
C4 C -0.2101(5) 0.2452(5) 0.8537(4)
C5 C 0.3046(6) 0.0731(5) 0.8757(6)
C6 C 0.0550(4) 0.7478(4) 0.7938(3)
C7 C 0.1862(5) 0.7189(5) 0.7630(4)
C8 C 0.2522(4) 0.6190(4) 0.7285(3)
C9 C 0.3899(5) 0.6056(6) 0.6869(5)
C10 C -0.0133(6) 0.8570(5) 0.8341(4)
C11 C -0.0923(5) 0.8113(4) 0.5340(3)
C12 C -0.2206(5) 0.8844(4) 0.5588(4)
C13 C -0.2780(5) 0.8241(4) 0.6383(4)
C14 C -0.4176(6) 0.9087(5) 0.6642(5)
C15 C -0.0432(7) 0.8790(5) 0.4360(4)
C16 C -0.2756(4) 0.5864(4) 0.8998(3)
C17 C -0.3525(4) 0.6321(5) 0.9696(3)
C18 C -0.2801(4) 0.6219(4) 1.0520(3)
C19 C -0.0770(3) 0.5288(3) 0.9933(3)
C20 C 0.2798(4) 0.3819(4) 0.6081(3)
C21 C 0.3524(4) 0.3701(4) 0.5260(3)
C22 C 0.2756(4) 0.4146(4) 0.4331(3)
C23 C 0.0766(3) 0.4722(3) 0.5058(3)
N1 N -0.1372(3) 0.5377(3) 0.9090(2)
N2 N -0.1413(3) 0.5665(3) 1.0668(2)
N3 N 0.1412(3) 0.4358(3) 0.5980(2)
N4 N 0.1369(3) 0.4623(3) 0.4222(2)
F1 F -0.1738(4) 0.1200(3) 0.9086(3)
F2 F -0.2813(4) 0.2779(4) 0.7655(3)
F3 F -0.2958(4) 0.3120(4) 0.9039(4)
F4 F 0.3953(6) 0.0908(4) 0.8261(6)
F5 F 0.3534(6) 0.0480(7) 0.9715(6)
F6 F 0.3053(5) -0.0358(3) 0.8897(5)
F7 F 0.4503(4) 0.5098(5) 0.6578(5)
F8 F 0.4799(4) 0.5921(6) 0.7533(4)
F9 F 0.3733(5) 0.7107(5) 0.6071(4)
F10 F 0.0756(5) 0.8928(5) 0.8549(5)
F11 F -0.0648(6) 0.8198(4) 0.9177(3)
F12 F -0.1126(5) 0.9604(4) 0.7677(4)
F13 F 0.0785(7) 0.8677(7) 0.4566(4)
F14 F -0.0252(8) 0.8233(6) 0.3731(3)
F15 F -0.1220(7) 1.0010(5) 0.3900(5)
F16 F -0.3993(5) 0.8998(5) 0.7599(4)
F17 F -0.5097(4) 0.8710(4) 0.6604(5)
F18 F -0.4733(4) 1.0337(3) 0.6032(4)
H1 H -0.319(5) 0.653(4) 1.100(4)
H2 H 0.318(5) 0.413(5) 0.371(4)
H3 H 0.326(5) 0.349(5) 0.673(4)
H4 H -0.446(5) 0.664(5) 0.963(4)
H5 H -0.322(6) 0.590(5) 0.842(4)
H6 H 0.055(5) 0.090(5) 0.889(4)
H7 H 0.227(6) 0.773(6) 0.761(5)
H8 H 0.454(5) 0.335(5) 0.533(4)
H9 H -0.270(7) 0.979(7) 0.516(5)
Eu1A Eu 0.000810(17) 0.475497(16) 1.258584(13)
Eu1A_2 Eu 0.000810(17) 0.475497(16) 0.258584(13)
O1A O -0.1651(3) 0.7018(3) 1.1913(2)
O2A O 0.1212(3) 0.6056(3) 1.2082(2)
O3A O 0.0194(3) 0.3033(3) 1.2089(2)
O4A O -0.2157(3) 0.4612(3) 1.2729(2)
O5A O 0.0113(3) 0.3052(3) 1.4192(2)
O6A O 0.2325(3) 0.2944(3) 1.3071(2)
C1A C -0.1614(4) 0.8081(4) 1.1558(3)
C2A C -0.0454(5) 0.8291(4) 1.1404(4)
C3A C 0.0877(4) 0.7243(4) 1.1670(3)
C4A C 0.2101(5) 0.7548(5) 1.1463(4)
C5A C -0.3046(6) 0.9269(5) 1.1243(6)
C6A C -0.0550(4) 0.2522(4) 1.2062(3)
C7A C -0.1862(5) 0.2811(5) 1.2370(4)
C8A C -0.2522(4) 0.3810(4) 1.2715(3)
C9A C -0.3899(5) 0.3944(6) 1.3131(5)
C10A C 0.0133(6) 0.1430(5) 1.1659(4)
C11A C 0.0923(5) 0.1887(4) 1.4660(3)
C12A C 0.2206(5) 0.1156(4) 1.4412(4)
C13A C 0.2780(5) 0.1759(4) 1.3617(4)
C14A C 0.4176(6) 0.0913(5) 1.3358(5)
C15A C 0.0432(7) 0.1210(5) 1.5640(4)
C16A C 0.2756(4) 0.4136(4) 1.1002(3)
C17A C 0.3525(4) 0.3679(5) 1.0304(3)
C18A C 0.2801(4) 0.3781(4) 0.9480(3)
C19A C 0.0770(3) 0.4712(3) 1.0067(3)
C20A C -0.2798(4) 0.6181(4) 0.3919(3)
C21A C -0.3524(4) 0.6299(4) 0.4740(3)
C22A C -0.2756(4) 0.5854(4) 0.5669(3)
C23A C -0.0766(3) 0.5278(3) 0.4942(3)
N1A N 0.1372(3) 0.4623(3) 1.0910(2)
N2A N 0.1413(3) 0.4335(3) 0.9332(2)
N3A N -0.1412(3) 0.5642(3) 0.4020(2)
N3A_2 N -0.1412(3) 0.5642(3) 1.4020(2)
N4A N -0.1369(3) 0.5377(3) 0.5778(2)
N4_2 N 0.1369(3) 0.4623(3) 1.4222(2)
F1A F 0.1738(4) 0.8800(3) 1.0914(3)
F2A F 0.2813(4) 0.7221(4) 1.2345(3)
F3A F 0.2958(4) 0.6880(4) 1.0961(4)
F4A F -0.3953(6) 0.9092(4) 1.1739(6)
F5A F -0.3534(6) 0.9520(7) 1.0285(6)
F6A F -0.3053(5) 1.0358(3) 1.1103(5)
F7A F -0.4503(4) 0.4902(5) 1.3422(5)
F8A F -0.4799(4) 0.4079(6) 1.2467(4)
F9A F -0.3733(5) 0.2893(5) 1.3929(4)
F10A F -0.0756(5) 0.1072(5) 1.1451(5)
F11A F 0.0648(6) 0.1802(4) 1.0823(3)
F12A F 0.1126(5) 0.0396(4) 1.2323(4)
F13A F -0.0785(7) 0.1323(7) 1.5434(4)
F14A F 0.0252(8) 0.1767(6) 1.6269(3)
F15A F 0.1220(7) -0.0010(5) 1.6100(5)
F16A F 0.3993(5) 0.1002(5) 1.2401(4)
F17A F 0.5097(4) 0.1290(4) 1.3396(5)
F18A F 0.4733(4) -0.0337(3) 1.3968(4)
H1A H 0.319(5) 0.347(4) 0.900(4)
H2A H -0.318(5) 0.587(5) 0.629(4)
H3A H -0.326(5) 0.651(5) 0.327(4)
H4A H 0.446(5) 0.336(5) 1.037(4)
H5A H 0.322(6) 0.410(5) 1.158(4)
H6A H -0.055(5) 0.910(5) 1.111(4)
H7A H -0.227(6) 0.227(6) 1.239(5)
H8A H -0.454(5) 0.665(5) 0.467(4)
H9A H 0.270(7) 0.021(7) 1.484(5)
loop_
_geom_bond_atom_site_label_1
_geom_bond_atom_site_label_2
_geom_bond_site_symmetry_1
_geom_bond_site_symmetry_2
Eu1 O1 1_555 1_555
O1 C1 1_555 1_555
O2 Eu1 1_555 1_555
O3 Eu1 1_555 1_555
O4 Eu1 1_555 1_555
O5 Eu1 1_555 1_555
O6 Eu1 1_555 1_555
C1 C2 1_555 1_555
C2 C3 1_555 1_555
C3 O2 1_555 1_555
C4 C3 1_555 1_555
C5 C1 1_555 1_555
C6 O3 1_555 1_555
C7 C6 1_555 1_555
C8 O4 1_555 1_555
C9 C8 1_555 1_555
C10 C6 1_555 1_555
C11 O5 1_555 1_555
C12 C11 1_555 1_555
C13 O6 1_555 1_555
C14 C13 1_555 1_555
C15 C11 1_555 1_555
C16 C17 1_555 1_555
C17 C18 1_555 1_555
C18 N2 1_555 1_555
C19 N1 1_555 1_555
C20 C21 1_555 1_555
C21 C22 1_555 1_555
C22 N4 1_555 1_555
C23 N3 1_555 1_555
N1 Eu1 1_555 1_555
N2 C19 1_555 1_555
N3 Eu1 1_555 1_555
N4 C23 1_555 1_555
F1 C4 1_555 1_555
F2 C4 1_555 1_555
F3 C4 1_555 1_555
F4 C5 1_555 1_555
F5 C5 1_555 1_555
F6 C5 1_555 1_555
F7 C9 1_555 1_555
F8 C9 1_555 1_555
F9 C9 1_555 1_555
F10 C10 1_555 1_555
F11 C10 1_555 1_555
F12 C10 1_555 1_555
F13 C15 1_555 1_555
F14 C15 1_555 1_555
F15 C15 1_555 1_555
F16 C14 1_555 1_555
F17 C14 1_555 1_555
F18 C14 1_555 1_555
H1 C18 1_555 1_555
H2 C22 1_555 1_555
H3 C20 1_555 1_555
H4 C17 1_555 1_555
H5 C16 1_555 1_555
H6 C2 1_555 1_555
H7 C7 1_555 1_555
H8 C21 1_555 1_555
H9 C12 1_555 1_555
Eu1A N2 1_555 1_555
Eu1A_2 N4 1_555 1_555
O1A Eu1A 1_555 1_555
O2A Eu1A 1_555 1_555
O3A Eu1A 1_555 1_555
O4A Eu1A 1_555 1_555
O5A Eu1A 1_555 1_555
O6A Eu1A 1_555 1_555
C1A O1A 1_555 1_555
C2A C1A 1_555 1_555
C3A O2A 1_555 1_555
C4A C3A 1_555 1_555
C5A C1A 1_555 1_555
C6A O3A 1_555 1_555
C7A C6A 1_555 1_555
C8A O4A 1_555 1_555
C9A C8A 1_555 1_555
C10A C6A 1_555 1_555
C11A O5A 1_555 1_555
C12A C11A 1_555 1_555
C13A O6A 1_555 1_555
C14A C13A 1_555 1_555
C15A C11A 1_555 1_555
C16A C17A 1_555 1_555
C17A C18A 1_555 1_555
C18A N2A 1_555 1_555
C19A C19 1_555 1_555
C20A C21A 1_555 1_555
C21A C22A 1_555 1_555
C22A N4A 1_555 1_555
C23A C23 1_555 1_555
N1A Eu1A 1_555 1_555
N2A Eu1 1_555 1_555
N3A Eu1A_2 1_555 1_555
N3A_2 Eu1A 1_555 1_555
N4A Eu1 1_555 1_555
N4_2 Eu1A 1_555 1_555
F1A C4A 1_555 1_555
F2A C4A 1_555 1_555
F3A C4A 1_555 1_555
F4A C5A 1_555 1_555
F5A C5A 1_555 1_555
F6A C5A 1_555 1_555
F7A C9A 1_555 1_555
F8A C9A 1_555 1_555
F9A C9A 1_555 1_555
F10A C10A 1_555 1_555
F11A C10A 1_555 1_555
F12A C10A 1_555 1_555
F13A C15A 1_555 1_555
F14A C15A 1_555 1_555
F15A C15A 1_555 1_555
F16A C14A 1_555 1_555
F17A C14A 1_555 1_555
F18A C14A 1_555 1_555
H1A C18A 1_555 1_555
H2A C22A 1_555 1_555
H3A C20A 1_555 1_555
H4A C17A 1_555 1_555
H5A C16A 1_555 1_555
H6A C2A 1_555 1_555
H7A C7A 1_555 1_555
H8A C21A 1_555 1_555
H9A C12A 1_555 1_555
C7 C8 1_555 1_555
C12 C13 1_555 1_555
C16 N1 1_555 1_555
C20 N3 1_555 1_555
C2A C3A 1_555 1_555
C7A C8A 1_555 1_555
C12A C13A 1_555 1_555
C16A N1A 1_555 1_555
C19A N1A 1_555 1_555
C19A N2A 1_555 1_555
C20A N3A 1_555 1_555
C23A N3A 1_555 1_555
C23A N4A 1_555 1_555

#END
