
#######################################################################
#
#                 Cambridge Crystallographic Data Centre
#                                CCDC 
#
#######################################################################
#
# If this CIF has been generated from an entry in the Cambridge 
# Structural Database, then it will include bibliographic, chemical, 
# crystal, experimental, refinement or atomic coordinate data resulting 
# from the CCDC's data processing and validation procedures.
#
#######################################################################

data_CIHSAO
_symmetry_cell_setting           monoclinic
_symmetry_space_group_name_H-M   'P 21/n'
_symmetry_Int_Tables_number      14
_space_group_name_Hall           '-P 2yn'
loop_
_symmetry_equiv_pos_site_id
_symmetry_equiv_pos_as_xyz
1 x,y,z
2 1/2-x,1/2+y,1/2-z
3 -x,-y,-z
4 1/2+x,1/2-y,1/2+z
_cell_length_a                   9.216(2)
_cell_length_b                   16.671(3)
_cell_length_c                   11.155(3)
_cell_angle_alpha                90
_cell_angle_beta                 102.049(3)
_cell_angle_gamma                90
_cell_volume                     1676.1
loop_
_atom_site_label
_atom_site_type_symbol
_atom_site_fract_x
_atom_site_fract_y
_atom_site_fract_z
Cd1 Cd 0.85581(2) 1.033487(12) 0.776414(16)
N1 N 0.6212(3) 0.88729(15) 0.4673(2)
N2 N 0.7072(3) 0.95324(14) 0.6378(2)
N3 N 0.6254(3) 0.71730(16) 0.0030(2)
N4 N 0.6495(3) 0.64095(15) -0.1523(2)
O1 O 1.0446(2) 0.94130(13) 0.84390(17)
O2 O 1.0885(3) 0.99743(16) 0.6779(2)
O3 O 1.2584(2) 1.01547(14) 1.06111(19)
O4 O 1.3047(3) 0.88871(16) 1.1081(2)
O5 O 1.0242(2) 1.10870(13) 0.93329(17)
H1 H 0.9827 1.1109 0.9945
H2 H 1.0984 1.0783 0.9584
C1 C 0.6091(4) 0.8594(2) 0.3401(3)
H3 H 0.6420 0.9015 0.2920
H4 H 0.5063 0.8474 0.3041
C2 C 0.7022(5) 0.7855(3) 0.3370(3)
H5 H 0.6537 0.7402 0.3668
H6 H 0.7975 0.7931 0.3923
C3 C 0.7284(4) 0.7655(3) 0.2083(3)
H7 H 0.7700 0.8120 0.1756
H8 H 0.8000 0.7222 0.2147
C4 C 0.5909(4) 0.7416(2) 0.1230(3)
H9 H 0.5215 0.7861 0.1107
H10 H 0.5452 0.6971 0.1573
C5 C 0.7136(4) 0.9440(2) 0.5220(3)
H11 H 0.7756 0.9737 0.4828
C6 C 0.6056(4) 0.8985(2) 0.6575(3)
H12 H 0.5769 0.8904 0.7317
C7 C 0.5529(4) 0.8577(2) 0.5538(3)
H13 H 0.4827 0.8168 0.5435
C8 C 0.6110(4) 0.64345(19) -0.0449(3)
H14 H 0.5779 0.5993 -0.0071
C9 C 0.6922(4) 0.71690(19) -0.1736(3)
H15 H 0.7250 0.7336 -0.2430
C10 C 0.6793(4) 0.7644(2) -0.0777(3)
H16 H 0.7027 0.8187 -0.0687
C11 C 1.1305(3) 0.96034(17) 0.7749(2)
C12 C 1.2906(3) 0.93991(19) 0.8127(3)
H17 H 1.3417 0.9296 0.7508
C13 C 1.3661(3) 0.93522(19) 0.9265(3)
H18 H 1.4666 0.9233 0.9378
C14 C 1.3047(3) 0.9474(2) 1.0396(3)
Cd1A Cd 0.64419(2) 0.533487(12) -0.276414(16)
Cd1B Cd 1.14419(2) 0.966513(12) 1.223586(16)
N4A N 0.8505(3) 1.14095(15) 0.6523(2)
O3B O 0.7416(2) 0.98453(14) 0.93889(19)
O4B O 0.6953(3) 1.11129(16) 0.8919(2)
loop_
_geom_bond_atom_site_label_1
_geom_bond_atom_site_label_2
_geom_bond_site_symmetry_1
_geom_bond_site_symmetry_2
Cd1 N2 1_555 1_555
N1 C1 1_555 1_555
N2 C5 1_555 1_555
N3 C4 1_555 1_555
N4 C8 1_555 1_555
O1 Cd1 1_555 1_555
O2 Cd1 1_555 1_555
O3 C14 1_555 1_555
O4 C14 1_555 1_555
O5 Cd1 1_555 1_555
H1 O5 1_555 1_555
H2 O5 1_555 1_555
C1 H3 1_555 1_555
H4 C1 1_555 1_555
C2 C1 1_555 1_555
H5 C2 1_555 1_555
H6 C2 1_555 1_555
C3 C2 1_555 1_555
H7 C3 1_555 1_555
H8 C3 1_555 1_555
C4 C3 1_555 1_555
H9 C4 1_555 1_555
H10 C4 1_555 1_555
C5 N1 1_555 1_555
H11 C5 1_555 1_555
C6 N2 1_555 1_555
H12 C6 1_555 1_555
C7 N1 1_555 1_555
H13 C7 1_555 1_555
C8 N3 1_555 1_555
H14 C8 1_555 1_555
C9 N4 1_555 1_555
H15 C9 1_555 1_555
C10 N3 1_555 1_555
H16 C10 1_555 1_555
C11 O1 1_555 1_555
C12 C11 1_555 1_555
H17 C12 1_555 1_555
C13 C12 1_555 1_555
H18 C13 1_555 1_555
C14 C13 1_555 1_555
Cd1A N4 1_555 1_555
Cd1B O3 1_555 1_555
N4A Cd1 1_555 1_555
O3B Cd1 1_555 1_555
O4B Cd1 1_555 1_555
O2 C11 1_555 1_555
O4 Cd1B 1_555 1_555
C6 C7 1_555 1_555
C9 C10 1_555 1_555

#END
