
#######################################################################
#
#                 Cambridge Crystallographic Data Centre
#                                CCDC 
#
#######################################################################
#
# If this CIF has been generated from an entry in the Cambridge 
# Structural Database, then it will include bibliographic, chemical, 
# crystal, experimental, refinement or atomic coordinate data resulting 
# from the CCDC's data processing and validation procedures.
#
#######################################################################

data_CIHWOG
_symmetry_cell_setting           monoclinic
_symmetry_space_group_name_H-M   'P 21/a'
_symmetry_Int_Tables_number      14
_space_group_name_Hall           '-P 2yab'
loop_
_symmetry_equiv_pos_site_id
_symmetry_equiv_pos_as_xyz
1 x,y,z
2 1/2-x,1/2+y,-z
3 -x,-y,-z
4 1/2+x,1/2-y,z
_cell_length_a                   11.938(5)
_cell_length_b                   12.140(5)
_cell_length_c                   14.522(5)
_cell_angle_alpha                90
_cell_angle_beta                 112.103(5)
_cell_angle_gamma                90
_cell_volume                     1949.96
loop_
_atom_site_label
_atom_site_type_symbol
_atom_site_fract_x
_atom_site_fract_y
_atom_site_fract_z
Sn1 Sn -0.138020(16) 0.053260(15) -0.013860(14)
S1 S -0.23850(6) -0.19436(6) 0.09243(5)
O1 O -0.26788(17) -0.09253(17) 0.03546(14)
O2 O -0.34612(16) -0.26470(16) 0.07050(15)
O3 O -0.13846(16) -0.25387(17) 0.08226(15)
O4 O -0.02266(18) -0.08496(19) 0.03058(16)
C1 C -0.1949(2) -0.1585(2) 0.2199(2)
C2 C -0.2723(3) -0.0959(3) 0.2517(2)
C3 C -0.3937(3) -0.0535(3) 0.1825(3)
H1 H -0.4334 -0.0167 0.2203
H2 H -0.4425 -0.1141 0.1469
H3 H -0.3823 -0.0027 0.1361
C4 C -0.2312(3) -0.0733(3) 0.3526(2)
H4 H -0.2796 -0.0314 0.3766
C5 C -0.1214(3) -0.1107(3) 0.4188(3)
H5 H -0.0974 -0.0932 0.4859
C6 C -0.0466(3) -0.1736(3) 0.3870(2)
C7 C 0.0714(3) -0.2195(3) 0.4603(3)
H6 H 0.1147 -0.1623 0.5054
H7 H 0.1195 -0.2463 0.4249
H8 H 0.0548 -0.2787 0.4970
C8 C -0.0840(3) -0.1964(3) 0.2863(2)
H9 H -0.0344 -0.2375 0.2629
C9 C -0.2643(2) 0.0021(3) -0.1530(2)
H10 H -0.2680 -0.0778 -0.1532
H11 H -0.3434 0.0292 -0.1595
C10 C -0.2400(3) 0.0387(3) -0.2441(2)
H12 H -0.1649 0.0062 -0.2420
H13 H -0.2310 0.1181 -0.2429
C11 C -0.3422(3) 0.0047(3) -0.3401(2)
H14 H -0.3514 -0.0747 -0.3409
H15 H -0.4172 0.0373 -0.3420
C12 C -0.3196(4) 0.0399(3) -0.4315(3)
H16 H -0.3117 0.1186 -0.4316
H17 H -0.3862 0.0172 -0.4900
H18 H -0.2465 0.0063 -0.4308
C13 C -0.1226(3) 0.1139(3) 0.1274(2)
H19 H -0.1964 0.1529 0.1201
H20 H -0.1156 0.0518 0.1712
C14 C -0.0162(3) 0.1903(3) 0.1761(2)
H21 H -0.0325 0.2609 0.1423
H22 H 0.0553 0.1594 0.1694
C15 C 0.0080(3) 0.2075(3) 0.2856(2)
H23 H -0.0605 0.2453 0.2915
H24 H 0.0150 0.1362 0.3173
C16 C 0.1210(4) 0.2730(4) 0.3395(3)
H25 H 0.1899 0.2342 0.3370
H26 H 0.1301 0.2829 0.4075
H27 H 0.1151 0.3437 0.3083
H28 H -0.037(3) -0.141(3) 0.043(3)
Sn1A Sn -0.361980(16) -0.446740(15) 0.013860(14)
Sn1B Sn 0.138020(16) -0.053260(15) 0.013860(14)
O2A O -0.15388(16) 0.23530(16) -0.07050(15)
O4B O 0.02266(18) 0.08496(19) -0.03058(16)
H28B H 0.037(3) 0.141(3) -0.043(3)
loop_
_geom_bond_atom_site_label_1
_geom_bond_atom_site_label_2
_geom_bond_site_symmetry_1
_geom_bond_site_symmetry_2
Sn1 O1 1_555 1_555
S1 O1 1_555 1_555
O2 S1 1_555 1_555
O3 S1 1_555 1_555
O4 Sn1 1_555 1_555
C1 S1 1_555 1_555
C2 C1 1_555 1_555
C3 C2 1_555 1_555
H1 C3 1_555 1_555
H2 C3 1_555 1_555
H3 C3 1_555 1_555
C4 C2 1_555 1_555
H4 C4 1_555 1_555
C5 C4 1_555 1_555
H5 C5 1_555 1_555
C6 C5 1_555 1_555
C7 C6 1_555 1_555
H6 C7 1_555 1_555
H7 C7 1_555 1_555
H8 C7 1_555 1_555
C8 C1 1_555 1_555
H9 C8 1_555 1_555
C9 Sn1 1_555 1_555
H10 C9 1_555 1_555
H11 C9 1_555 1_555
C10 C9 1_555 1_555
H12 C10 1_555 1_555
H13 C10 1_555 1_555
C11 C10 1_555 1_555
H14 C11 1_555 1_555
H15 C11 1_555 1_555
C12 C11 1_555 1_555
H16 C12 1_555 1_555
H17 C12 1_555 1_555
H18 C12 1_555 1_555
C13 Sn1 1_555 1_555
H19 C13 1_555 1_555
H20 C13 1_555 1_555
C14 C13 1_555 1_555
H21 C14 1_555 1_555
H22 C14 1_555 1_555
C15 C14 1_555 1_555
H23 C15 1_555 1_555
H24 C15 1_555 1_555
C16 C15 1_555 1_555
H25 C16 1_555 1_555
H26 C16 1_555 1_555
H27 C16 1_555 1_555
H28 O4 1_555 1_555
Sn1A O2 1_555 1_555
Sn1B O4 1_555 1_555
O2A Sn1 1_555 1_555
O4B Sn1 1_555 1_555
H28B O4B 1_555 1_555
C6 C8 1_555 1_555
Sn1B O4B 1_555 1_555

#END
