
#######################################################################
#
#                 Cambridge Crystallographic Data Centre
#                                CCDC 
#
#######################################################################
#
# If this CIF has been generated from an entry in the Cambridge 
# Structural Database, then it will include bibliographic, chemical, 
# crystal, experimental, refinement or atomic coordinate data resulting 
# from the CCDC's data processing and validation procedures.
#
#######################################################################

data_CIHYOJ
_symmetry_cell_setting           triclinic
_symmetry_space_group_name_H-M   'P -1'
_symmetry_Int_Tables_number      2
_space_group_name_Hall           '-P 1'
loop_
_symmetry_equiv_pos_site_id
_symmetry_equiv_pos_as_xyz
1 x,y,z
2 -x,-y,-z
_cell_length_a                   8.6420(8)
_cell_length_b                   8.7278(8)
_cell_length_c                   11.8581(11)
_cell_angle_alpha                77.726(2)
_cell_angle_beta                 75.551(2)
_cell_angle_gamma                87.789(2)
_cell_volume                     846.219
loop_
_atom_site_label
_atom_site_type_symbol
_atom_site_fract_x
_atom_site_fract_y
_atom_site_fract_z
Cd1 Cd -0.03335(2) 0.73070(2) 1.313536(19)
Cd2 Cd 0.5000 0.5000 1.0000
S1 S -0.05820(11) 0.68220(15) 1.10022(9)
C1 C 0.1326(4) 0.6570(4) 1.0444(3)
N1 N 0.2655(3) 0.6387(3) 1.0037(2)
S2 S -0.00583(11) 0.80166(11) 1.52693(8)
C2 C 0.0724(4) 0.6323(4) 1.5674(3)
N2 N 0.1333(4) 0.5146(4) 1.5968(3)
S3 S 0.52219(11) 0.54083(12) 1.21938(9)
C3 C 0.3457(4) 0.6164(4) 1.2557(3)
N3 N 0.2237(3) 0.6750(4) 1.2801(2)
N4 N -0.2679(3) 0.8677(3) 1.3367(2)
N5 N 0.0163(3) 1.0167(3) 1.2145(2)
N6 N 0.1599(3) 1.0975(3) 1.1578(2)
N7 N 0.4062(3) 1.1357(3) 1.0502(3)
N8 N 0.3478(3) 1.2736(3) 1.0859(2)
C4 C -0.4077(4) 0.7983(4) 1.3934(3)
H1 H -0.4097 0.6923 1.4290
C5 C -0.5512(4) 0.8772(5) 1.4018(3)
H2 H -0.6473 0.8250 1.4421
C6 C -0.5489(4) 1.0322(5) 1.3502(3)
H3 H -0.6436 1.0874 1.3541
C7 C -0.4032(4) 1.1067(4) 1.2915(3)
H4 H -0.3988 1.2127 1.2558
C8 C -0.2655(3) 1.0215(3) 1.2867(3)
C9 C -0.1105(4) 1.0972(4) 1.2255(3)
H5 H -0.1046 1.2046 1.1944
C10 C 0.2903(4) 1.0331(4) 1.0954(3)
H6 H 0.2958 0.9296 1.0862
C11 C 0.2027(4) 1.2481(3) 1.1482(3)
H7 H 0.1370 1.3222 1.1816
Cd1A Cd 0.03335(2) 0.26930(2) 1.686464(19)
S1A S 0.05820(11) 0.31780(15) 1.89978(9)
C1A C -0.1326(4) 0.3430(4) 1.9556(3)
N1A N -0.2655(3) 0.3613(3) 1.9963(2)
S2A S 0.00583(11) 0.19834(11) 1.47307(8)
C2A C -0.0724(4) 0.3677(4) 1.4326(3)
N2A N -0.1333(4) 0.4854(4) 1.4032(3)
S3A S -0.52219(11) 0.45917(12) 1.78062(9)
C3A C -0.3457(4) 0.3836(4) 1.7443(3)
N3A N -0.2237(3) 0.3250(4) 1.7199(2)
N4A N 0.2679(3) 0.1323(3) 1.6633(2)
N5A N -0.0163(3) -0.0167(3) 1.7855(2)
N6A N -0.1599(3) -0.0975(3) 1.8422(2)
N7A N -0.4062(3) -0.1357(3) 1.9498(3)
N8A N -0.3478(3) -0.2736(3) 1.9141(2)
C4A C 0.4077(4) 0.2017(4) 1.6066(3)
H1A H 0.4097 0.3077 1.5710
C5A C 0.5512(4) 0.1228(5) 1.5982(3)
H2A H 0.6473 0.1750 1.5579
C6A C 0.5489(4) -0.0322(5) 1.6498(3)
H3A H 0.6436 -0.0874 1.6459
C7A C 0.4032(4) -0.1067(4) 1.7085(3)
H4A H 0.3988 -0.2127 1.7442
C8A C 0.2655(3) -0.0215(3) 1.7133(3)
C9A C 0.1105(4) -0.0972(4) 1.7745(3)
H5A H 0.1046 -0.2046 1.8056
C10A C -0.2903(4) -0.0331(4) 1.9046(3)
H6A H -0.2958 0.0704 1.9138
C11A C -0.2027(4) -0.2481(3) 1.8518(3)
H7A H -0.1370 -0.3222 1.8184
Cd2_2 Cd -0.5000 -0.5000 2.0000
Cd2_3 Cd -0.5000 0.5000 2.0000
Cd2_4 Cd 0.5000 1.5000 1.0000
N1A_2 N 0.7345(3) 0.3613(3) 0.9963(2)
S3A_2 S 0.47781(11) 0.45917(12) 0.78062(9)
N8_2 N 0.3478(3) 0.2736(3) 1.0859(2)
N8A_2 N 0.6522(3) 0.7264(3) 0.9141(2)
loop_
_geom_bond_atom_site_label_1
_geom_bond_atom_site_label_2
_geom_bond_site_symmetry_1
_geom_bond_site_symmetry_2
Cd1 S1 1_555 1_555
Cd2 N1 1_555 1_555
S1 C1 1_555 1_555
C1 N1 1_555 1_555
S2 Cd1 1_555 1_555
C2 S2 1_555 1_555
N2 C2 1_555 1_555
S3 Cd2 1_555 1_555
C3 S3 1_555 1_555
N3 Cd1 1_555 1_555
N4 Cd1 1_555 1_555
N5 Cd1 1_555 1_555
N6 N5 1_555 1_555
N7 N8 1_555 1_555
N8 C11 1_555 1_555
C4 N4 1_555 1_555
H1 C4 1_555 1_555
C5 C4 1_555 1_555
H2 C5 1_555 1_555
C6 C5 1_555 1_555
H3 C6 1_555 1_555
C7 C6 1_555 1_555
H4 C7 1_555 1_555
C8 N4 1_555 1_555
C9 N5 1_555 1_555
H5 C9 1_555 1_555
C10 N6 1_555 1_555
H6 C10 1_555 1_555
C11 N6 1_555 1_555
H7 C11 1_555 1_555
Cd1A N2 1_555 1_555
S1A Cd1A 1_555 1_555
C1A S1A 1_555 1_555
N1A C1A 1_555 1_555
S2A Cd1A 1_555 1_555
C2A S2A 1_555 1_555
N2A Cd1 1_555 1_555
S3A C3A 1_555 1_555
C3A N3A 1_555 1_555
N3A Cd1A 1_555 1_555
N4A Cd1A 1_555 1_555
N5A Cd1A 1_555 1_555
N6A N5A 1_555 1_555
N7A N8A 1_555 1_555
N8A C11A 1_555 1_555
C4A N4A 1_555 1_555
H1A C4A 1_555 1_555
C5A C4A 1_555 1_555
H2A C5A 1_555 1_555
C6A C5A 1_555 1_555
H3A C6A 1_555 1_555
C7A C6A 1_555 1_555
H4A C7A 1_555 1_555
C8A N4A 1_555 1_555
C9A N5A 1_555 1_555
H5A C9A 1_555 1_555
C10A N6A 1_555 1_555
H6A C10A 1_555 1_555
C11A N6A 1_555 1_555
H7A C11A 1_555 1_555
Cd2_2 N8A 1_555 1_555
Cd2_3 N1A 1_555 1_555
Cd2_4 N8 1_555 1_555
N1A_2 Cd2 1_555 1_555
S3A_2 Cd2 1_555 1_555
N8_2 Cd2 1_555 1_555
N8A_2 Cd2 1_555 1_555
C3 N3 1_555 1_555
N7 C10 1_555 1_555
C7 C8 1_555 1_555
C8 C9 1_555 1_555
C2A N2A 1_555 1_555
S3A Cd2_3 1_555 1_555
N7A C10A 1_555 1_555
C7A C8A 1_555 1_555
C8A C9A 1_555 1_555

#END
