
#######################################################################
#
#                 Cambridge Crystallographic Data Centre
#                                CCDC 
#
#######################################################################
#
# If this CIF has been generated from an entry in the Cambridge 
# Structural Database, then it will include bibliographic, chemical, 
# crystal, experimental, refinement or atomic coordinate data resulting 
# from the CCDC's data processing and validation procedures.
#
#######################################################################

data_CIHYID
_symmetry_cell_setting           monoclinic
_symmetry_space_group_name_H-M   'P 21/n'
_symmetry_Int_Tables_number      14
_space_group_name_Hall           '-P 2yn'
loop_
_symmetry_equiv_pos_site_id
_symmetry_equiv_pos_as_xyz
1 x,y,z
2 1/2-x,1/2+y,1/2-z
3 -x,-y,-z
4 1/2+x,1/2-y,1/2+z
_cell_length_a                   9.531(3)
_cell_length_b                   15.096(5)
_cell_length_c                   9.679(3)
_cell_angle_alpha                90
_cell_angle_beta                 107.684(6)
_cell_angle_gamma                90
_cell_volume                     1326.81
loop_
_atom_site_label
_atom_site_type_symbol
_atom_site_fract_x
_atom_site_fract_y
_atom_site_fract_z
I1 I 0.83803(8) 0.03783(5) 0.30363(7)
Cd1 Cd 0.94815(8) 0.10956(5) 0.60086(8)
I2 I 1.13380(9) 0.23901(5) 0.54821(9)
N1 N 1.0720(9) 0.1941(6) 0.9824(9)
N2 N 0.7889(9) 0.0222(6) 0.6923(9)
N3 N 1.2519(9) 0.2895(6) 1.0662(9)
N4 N 0.9829(9) 0.1358(5) 0.8832(8)
N5 N 1.1737(10) 0.2816(6) 1.1676(10)
C1 C 0.8837(11) 0.0973(7) 0.9206(11)
H1 H 0.8744 0.1094 1.0116
C2 C 0.7820(10) 0.0343(7) 0.8266(12)
C3 C 1.1900(11) 0.2364(7) 0.9596(11)
H2 H 1.2216 0.2281 0.8786
C4 C 0.6822(12) -0.0115(8) 0.8802(12)
H3 H 0.6770 0.0001 0.9729
C5 C 0.5992(13) -0.0864(8) 0.6568(13)
H4 H 0.5371 -0.1270 0.5957
C6 C 1.0685(13) 0.2257(8) 1.1145(13)
H5 H 0.9993 0.2090 1.1597
C7 C 0.7002(12) -0.0378(8) 0.6090(12)
H6 H 0.7057 -0.0478 0.5160
C8 C 0.5926(12) -0.0735(8) 0.7947(14)
H7 H 0.5280 -0.1064 0.8295
I1B I 1.16197(8) -0.03783(5) 0.69637(7)
Cd1B Cd 1.05185(8) -0.10956(5) 0.39914(8)
Cd1C Cd 1.44815(8) 0.39044(5) 1.10086(8)
N3C N 0.7519(9) 0.2105(6) 0.5662(9)
loop_
_geom_bond_atom_site_label_1
_geom_bond_atom_site_label_2
_geom_bond_site_symmetry_1
_geom_bond_site_symmetry_2
I1 Cd1 1_555 1_555
Cd1 I2 1_555 1_555
N1 N4 1_555 1_555
N2 Cd1 1_555 1_555
N3 N5 1_555 1_555
N4 Cd1 1_555 1_555
N5 C6 1_555 1_555
C1 N4 1_555 1_555
H1 C1 1_555 1_555
C2 N2 1_555 1_555
C3 N1 1_555 1_555
H2 C3 1_555 1_555
C4 C2 1_555 1_555
H3 C4 1_555 1_555
C5 H4 1_555 1_555
C6 N1 1_555 1_555
H5 C6 1_555 1_555
C7 N2 1_555 1_555
H6 C7 1_555 1_555
C8 C4 1_555 1_555
H7 C8 1_555 1_555
I1B Cd1 1_555 1_555
Cd1B I1 1_555 1_555
Cd1C N3 1_555 1_555
N3C Cd1 1_555 1_555
N3 C3 1_555 1_555
C1 C2 1_555 1_555
C5 C7 1_555 1_555
C5 C8 1_555 1_555
I1B Cd1B 1_555 1_555

#END
