
#######################################################################
#
#                 Cambridge Crystallographic Data Centre
#                                CCDC 
#
#######################################################################
#
# If this CIF has been generated from an entry in the Cambridge 
# Structural Database, then it will include bibliographic, chemical, 
# crystal, experimental, refinement or atomic coordinate data resulting 
# from the CCDC's data processing and validation procedures.
#
#######################################################################

data_CIJBEC
_symmetry_cell_setting           orthorhombic
_symmetry_space_group_name_H-M   'P c a 21'
_symmetry_Int_Tables_number      29
_space_group_name_Hall           'P 2c -2ac'
loop_
_symmetry_equiv_pos_site_id
_symmetry_equiv_pos_as_xyz
1 x,y,z
2 1/2-x,y,1/2+z
3 1/2+x,-y,z
4 -x,-y,1/2+z
_cell_length_a                   9.597(5)
_cell_length_b                   6.369(6)
_cell_length_c                   13.643(4)
_cell_angle_alpha                90
_cell_angle_beta                 90
_cell_angle_gamma                90
_cell_volume                     833.905
loop_
_atom_site_label
_atom_site_type_symbol
_atom_site_fract_x
_atom_site_fract_y
_atom_site_fract_z
Ag1 Ag -0.16030 0.54370 -0.23510
Cl1 Cl -0.25940 0.42540 -0.49000
S1 S 0.07650 0.35390 -0.23450
C1 C 0.06980 0.18590 -0.34240
C2 C -0.08020 0.05030 -0.31800
O1 O -0.05840 -0.09600 -0.23210
C3 C -0.05490 0.00970 -0.14280
C4 C 0.05550 0.15780 -0.14200
O2 O -0.15770 0.55800 -0.41630
O3 O -0.34500 0.31170 -0.42780
O4 O -0.16750 0.28540 -0.54520
O5 O -0.32580 0.54960 -0.53990
S1B S -0.42350 0.64610 -0.23450
O5A O -0.17420 0.54960 -0.03990
Ag1B Ag 0.33970 0.45630 -0.23510
O1_2 O -0.05840 0.90400 -0.23210
Ag1A Ag -0.33970 0.54370 -0.73510
Ag1_2 Ag -0.16030 -0.45630 -0.23510
loop_
_geom_bond_atom_site_label_1
_geom_bond_atom_site_label_2
_geom_bond_site_symmetry_1
_geom_bond_site_symmetry_2
Ag1 S1 1_555 1_555
Cl1 O2 1_555 1_555
S1 C1 1_555 1_555
C1 C2 1_555 1_555
C2 O1 1_555 1_555
O1 C3 1_555 1_555
C3 C4 1_555 1_555
C4 S1 1_555 1_555
O2 Ag1 1_555 1_555
O3 Cl1 1_555 1_555
O4 Cl1 1_555 1_555
O5 Cl1 1_555 1_555
S1B Ag1 1_555 1_555
O5A Ag1 1_555 1_555
Ag1B S1 1_555 1_555
O1_2 Ag1 1_555 1_555
Ag1A O5 1_555 1_555
Ag1_2 O1 1_555 1_555

#END
