
#######################################################################
#
#                 Cambridge Crystallographic Data Centre
#                                CCDC 
#
#######################################################################
#
# If this CIF has been generated from an entry in the Cambridge 
# Structural Database, then it will include bibliographic, chemical, 
# crystal, experimental, refinement or atomic coordinate data resulting 
# from the CCDC's data processing and validation procedures.
#
#######################################################################

data_CIJGIN03
_symmetry_cell_setting           orthorhombic
_symmetry_space_group_name_H-M   'P b c n'
_symmetry_Int_Tables_number      60
_space_group_name_Hall           '-P 2n 2ab'
loop_
_symmetry_equiv_pos_site_id
_symmetry_equiv_pos_as_xyz
1 x,y,z
2 1/2-x,1/2-y,1/2+z
3 1/2+x,1/2-y,-z
4 -x,y,1/2-z
5 -x,-y,-z
6 1/2+x,1/2+y,1/2-z
7 1/2-x,1/2+y,z
8 x,-y,1/2+z
_cell_length_a                   19.367(4)
_cell_length_b                   10.197(2)
_cell_length_c                   16.228(3)
_cell_angle_alpha                90
_cell_angle_beta                 90
_cell_angle_gamma                90
_cell_volume                     3204.79
loop_
_atom_site_label
_atom_site_type_symbol
_atom_site_fract_x
_atom_site_fract_y
_atom_site_fract_z
Fe1 Fe 0.0000 0.5000 0.0000
N1 N 0.14808(11) 0.5224(2) 0.18662(12)
N2 N 0.12447(11) 0.6428(2) 0.30861(13)
N3 N 0.10152(11) 0.5711(2) 0.13395(13)
N4 N 0.10858(11) 0.5585(2) 0.36838(13)
N5 N 0.08165(11) 0.4726(2) 0.08794(13)
N6 N 0.05642(11) 0.6107(2) 0.40891(12)
C1 C 0.17745(13) 0.6093(3) 0.24840(16)
H1 H 0.1948 0.6892 0.2220
H2 H 0.2162 0.5658 0.2760
C2 C 0.11562(15) 0.3628(3) 0.11175(18)
H3 H 0.1107 0.2791 0.0881
C3 C 0.04023(15) 0.7277(3) 0.37410(16)
H4 H 0.0051 0.7847 0.3917
C4 C 0.15788(15) 0.3938(3) 0.17530(18)
H5 H 0.1874 0.3377 0.2048
C5 C 0.08334(15) 0.7486(3) 0.30962(17)
H6 H 0.0842 0.8210 0.2737
N7 N -0.04309(11) 0.3174(2) 0.04527(13)
C6 C -0.05965(15) 0.2252(3) 0.07761(17)
C7 C -0.08042(19) 0.1044(3) 0.1195(2)
H7 H -0.0977 0.0422 0.0793
H8 H -0.1164 0.1240 0.1592
H9 H -0.0409 0.0670 0.1477
N1C N -0.14808(11) 0.5224(2) 0.31338(12)
N2C N -0.12447(11) 0.6428(2) 0.19139(13)
N3C N -0.10152(11) 0.5711(2) 0.36605(13)
N4C N -0.10858(11) 0.5585(2) 0.13162(13)
N5C N -0.08165(11) 0.4726(2) 0.41206(13)
N6C N -0.05642(11) 0.6107(2) 0.09109(12)
C1C C -0.17745(13) 0.6093(3) 0.25160(16)
H1C H -0.1948 0.6892 0.2780
H2C H -0.2162 0.5658 0.2240
C2C C -0.11562(15) 0.3628(3) 0.38825(18)
H3C H -0.1107 0.2791 0.4119
C3C C -0.04023(15) 0.7277(3) 0.12590(16)
H4C H -0.0051 0.7847 0.1083
C4C C -0.15788(15) 0.3938(3) 0.32470(18)
H5C H -0.1874 0.3377 0.2952
C5C C -0.08334(15) 0.7486(3) 0.19038(17)
H6C H -0.0842 0.8210 0.2263
N7D N 0.04309(11) 0.6826(2) -0.04527(13)
C6D C 0.05965(15) 0.7748(3) -0.07761(17)
C7D C 0.08042(19) 0.8956(3) -0.1195(2)
H7D H 0.0977 0.9578 -0.0793
H8D H 0.1164 0.8760 -0.1592
H9D H 0.0409 0.9330 -0.1477
Fe1C Fe 0.0000 0.5000 0.5000
N5D N -0.08165(11) 0.5274(2) -0.08794(13)
N6G N 0.05642(11) 0.3893(2) -0.09109(12)
N8 N 0.2398(6) 0.2983(13) 0.3500(8)
C8 C 0.2372(11) 0.3153(16) 0.4195(13)
C9 C 0.2262(5) 0.3685(14) 0.5004(6)
H10 H 0.2354 0.3015 0.5414
H11 H 0.1787 0.3977 0.5054
H12 H 0.2570 0.4422 0.5091
B1 B 0.3655(2) 0.5021(4) 0.6365(2)
F1 F 0.42522(11) 0.5138(2) 0.68159(15)
F2 F 0.32330(11) 0.4122(2) 0.67204(13)
F3 F 0.38205(14) 0.4592(2) 0.55932(12)
F4 F 0.33329(14) 0.6201(2) 0.63635(17)
N9? N 0.2587(8) 0.3542(16) 0.3499(11)
C10? C 0.2430(16) 0.351(2) 0.411(2)
C11? C 0.2291(8) 0.297(2) 0.5019(10)
H13? H 0.2303 0.3697 0.5406
H14? H 0.2644 0.2338 0.5164
H15? H 0.1841 0.2556 0.5039
loop_
_geom_bond_atom_site_label_1
_geom_bond_atom_site_label_2
_geom_bond_site_symmetry_1
_geom_bond_site_symmetry_2
Fe1 N5 1_555 1_555
N1 N3 1_555 1_555
N2 N4 1_555 1_555
N3 N5 1_555 1_555
N4 N6 1_555 1_555
N5 C2 1_555 1_555
N6 C3 1_555 1_555
C1 N1 1_555 1_555
H1 C1 1_555 1_555
H2 C1 1_555 1_555
C2 H3 1_555 1_555
C3 H4 1_555 1_555
C4 N1 1_555 1_555
H5 C4 1_555 1_555
C5 N2 1_555 1_555
H6 C5 1_555 1_555
N7 Fe1 1_555 1_555
C6 N7 1_555 1_555
C7 C6 1_555 1_555
H7 C7 1_555 1_555
H8 C7 1_555 1_555
H9 C7 1_555 1_555
N8 C8 1_555 1_555
C8 C9 1_555 1_555
C9 H10 1_555 1_555
H11 C9 1_555 1_555
H12 C9 1_555 1_555
B1 F1 1_555 1_555
F2 B1 1_555 1_555
F3 B1 1_555 1_555
F4 B1 1_555 1_555
N1C N3C 1_555 1_555
N2C N4C 1_555 1_555
N3C N5C 1_555 1_555
N4C N6C 1_555 1_555
N5C C2C 1_555 1_555
N6C Fe1 1_555 1_555
C1C N1C 1_555 1_555
H1C C1C 1_555 1_555
H2C C1C 1_555 1_555
C2C H3C 1_555 1_555
C3C N6C 1_555 1_555
H4C C3C 1_555 1_555
C4C N1C 1_555 1_555
H5C C4C 1_555 1_555
C5C N2C 1_555 1_555
H6C C5C 1_555 1_555
N7D Fe1 1_555 1_555
C6D N7D 1_555 1_555
C7D C6D 1_555 1_555
H7D C7D 1_555 1_555
H8D C7D 1_555 1_555
H9D C7D 1_555 1_555
Fe1C N6 1_555 1_555
N5D Fe1 1_555 1_555
N6G Fe1 1_555 1_555
N2 C1 1_555 1_555
C2 C4 1_555 1_555
C3 C5 1_555 1_555
N2C C1C 1_555 1_555
N5C Fe1C 1_555 1_555
C2C C4C 1_555 1_555
C3C C5C 1_555 1_555

#END
