
#######################################################################
#
#                 Cambridge Crystallographic Data Centre
#                                CCDC 
#
#######################################################################
#
# If this CIF has been generated from an entry in the Cambridge 
# Structural Database, then it will include bibliographic, chemical, 
# crystal, experimental, refinement or atomic coordinate data resulting 
# from the CCDC's data processing and validation procedures.
#
#######################################################################

data_CIJGIN
_symmetry_cell_setting           orthorhombic
_symmetry_space_group_name_H-M   'P b c n'
_symmetry_Int_Tables_number      60
_space_group_name_Hall           '-P 2n 2ab'
loop_
_symmetry_equiv_pos_site_id
_symmetry_equiv_pos_as_xyz
1 x,y,z
2 1/2-x,1/2-y,1/2+z
3 1/2+x,1/2-y,-z
4 -x,y,1/2-z
5 -x,-y,-z
6 1/2+x,1/2+y,1/2-z
7 1/2-x,1/2+y,z
8 x,-y,1/2+z
_cell_length_a                   19.327(4)
_cell_length_b                   10.027(2)
_cell_length_c                   15.619(3)
_cell_angle_alpha                90
_cell_angle_beta                 90
_cell_angle_gamma                90
_cell_volume                     3026.83
loop_
_atom_site_label
_atom_site_type_symbol
_atom_site_fract_x
_atom_site_fract_y
_atom_site_fract_z
Fe1 Fe 0.0000 0.5000 0.0000
N1 N 0.14627(17) 0.5296(3) 0.1827(2)
N2 N 0.12261(18) 0.6463(3) 0.3119(2)
N3 N 0.09693(18) 0.5787(4) 0.1317(2)
N4 N 0.10475(18) 0.5550(4) 0.3706(2)
N5 N 0.07713(17) 0.4796(3) 0.0819(2)
N6 N 0.05159(17) 0.6050(3) 0.4127(2)
C1 C 0.1755(2) 0.6153(4) 0.2487(3)
H1 H 0.2149 0.5697 0.2767
H2 H 0.1929 0.6988 0.2225
C2 C 0.1142(2) 0.3680(5) 0.1017(3)
H3 H 0.1101 0.2832 0.0750
C3 C 0.0360(2) 0.7288(4) 0.3805(3)
H4 H 0.0002 0.7859 0.4002
C4 C 0.1583(2) 0.3999(4) 0.1669(3)
H5 H 0.1904 0.3430 0.1949
C5 C 0.0811(2) 0.7560(4) 0.3151(3)
H6 H 0.0830 0.8334 0.2801
N7 N -0.03873(17) 0.3364(3) 0.0463(2)
C6 C -0.0579(2) 0.2420(4) 0.0795(3)
C7 C -0.0824(3) 0.1223(5) 0.1222(3)
H7 H -0.1002 0.0594 0.0794
H8 H -0.1195 0.1457 0.1622
H9 H -0.0442 0.0809 0.1537
N1C N -0.14627(17) 0.5296(3) 0.3173(2)
N2C N -0.12261(18) 0.6463(3) 0.1881(2)
N3C N -0.09693(18) 0.5787(4) 0.3683(2)
N4C N -0.10475(18) 0.5550(4) 0.1294(2)
N5C N -0.07713(17) 0.4796(3) 0.4181(2)
N6C N -0.05159(17) 0.6050(3) 0.0873(2)
C1C C -0.1755(2) 0.6153(4) 0.2513(3)
H1C H -0.2149 0.5697 0.2233
H2C H -0.1929 0.6988 0.2775
C2C C -0.1142(2) 0.3680(5) 0.3983(3)
H3C H -0.1101 0.2832 0.4250
C3C C -0.0360(2) 0.7288(4) 0.1195(3)
H4C H -0.0002 0.7859 0.0998
C4C C -0.1583(2) 0.3999(4) 0.3331(3)
H5C H -0.1904 0.3430 0.3051
C5C C -0.0811(2) 0.7560(4) 0.1849(3)
H6C H -0.0830 0.8334 0.2199
N7D N 0.03873(17) 0.6636(3) -0.0463(2)
C6D C 0.0579(2) 0.7580(4) -0.0795(3)
C7D C 0.0824(3) 0.8777(5) -0.1222(3)
H7D H 0.1002 0.9406 -0.0794
H8D H 0.1195 0.8543 -0.1622
H9D H 0.0442 0.9191 -0.1537
Fe1C Fe 0.0000 0.5000 0.5000
N5D N -0.07713(17) 0.5204(3) -0.0819(2)
N6G N 0.05159(17) 0.3950(3) -0.0873(2)
N8 N 0.2497(9) 0.3315(17) 0.3427(11)
C8 C 0.2382(11) 0.334(2) 0.4150(19)
C9 C 0.2259(6) 0.3620(17) 0.5031(9)
H10 H 0.2376 0.2835 0.5376
H11 H 0.1770 0.3844 0.5114
H12 H 0.2547 0.4375 0.5210
B1 B 0.3669(3) 0.4944(6) 0.6337(3)
F1 F 0.42847(14) 0.5096(3) 0.68035(18)
F2 F 0.32410(15) 0.4038(3) 0.67576(18)
F3 F 0.38244(17) 0.4496(3) 0.55239(18)
F4 F 0.33390(17) 0.6171(3) 0.6298(2)
N9? N 0.2628(12) 0.375(2) 0.3465(18)
C10? C 0.2497(18) 0.358(3) 0.413(3)
C11? C 0.2266(12) 0.305(3) 0.5000(16)
H13? H 0.2274 0.3780 0.5419
H14? H 0.2581 0.2343 0.5186
H15? H 0.1795 0.2696 0.4955
loop_
_geom_bond_atom_site_label_1
_geom_bond_atom_site_label_2
_geom_bond_site_symmetry_1
_geom_bond_site_symmetry_2
Fe1 N5 1_555 1_555
N1 N3 1_555 1_555
N2 N4 1_555 1_555
N3 N5 1_555 1_555
N4 N6 1_555 1_555
N5 C2 1_555 1_555
N6 C3 1_555 1_555
C1 N1 1_555 1_555
H1 C1 1_555 1_555
H2 C1 1_555 1_555
C2 H3 1_555 1_555
C3 H4 1_555 1_555
C4 N1 1_555 1_555
H5 C4 1_555 1_555
C5 N2 1_555 1_555
H6 C5 1_555 1_555
N7 Fe1 1_555 1_555
C6 N7 1_555 1_555
C7 C6 1_555 1_555
H7 C7 1_555 1_555
H8 C7 1_555 1_555
H9 C7 1_555 1_555
N8 C8 1_555 1_555
C8 C9 1_555 1_555
C9 H10 1_555 1_555
H11 C9 1_555 1_555
H12 C9 1_555 1_555
B1 F1 1_555 1_555
F2 B1 1_555 1_555
F3 B1 1_555 1_555
F4 B1 1_555 1_555
N1C N3C 1_555 1_555
N2C N4C 1_555 1_555
N3C N5C 1_555 1_555
N4C N6C 1_555 1_555
N5C C2C 1_555 1_555
N6C Fe1 1_555 1_555
C1C N1C 1_555 1_555
H1C C1C 1_555 1_555
H2C C1C 1_555 1_555
C2C H3C 1_555 1_555
C3C N6C 1_555 1_555
H4C C3C 1_555 1_555
C4C N1C 1_555 1_555
H5C C4C 1_555 1_555
C5C N2C 1_555 1_555
H6C C5C 1_555 1_555
N7D Fe1 1_555 1_555
C6D N7D 1_555 1_555
C7D C6D 1_555 1_555
H7D C7D 1_555 1_555
H8D C7D 1_555 1_555
H9D C7D 1_555 1_555
Fe1C N6 1_555 1_555
N5D Fe1 1_555 1_555
N6G Fe1 1_555 1_555
N2 C1 1_555 1_555
C2 C4 1_555 1_555
C3 C5 1_555 1_555
N2C C1C 1_555 1_555
N5C Fe1C 1_555 1_555
C2C C4C 1_555 1_555
C3C C5C 1_555 1_555

#END
