
#######################################################################
#
#                 Cambridge Crystallographic Data Centre
#                                CCDC 
#
#######################################################################
#
# If this CIF has been generated from an entry in the Cambridge 
# Structural Database, then it will include bibliographic, chemical, 
# crystal, experimental, refinement or atomic coordinate data resulting 
# from the CCDC's data processing and validation procedures.
#
#######################################################################

data_CIJGIN01
_symmetry_cell_setting           orthorhombic
_symmetry_space_group_name_H-M   'P b c n'
_symmetry_Int_Tables_number      60
_space_group_name_Hall           '-P 2n 2ab'
loop_
_symmetry_equiv_pos_site_id
_symmetry_equiv_pos_as_xyz
1 x,y,z
2 1/2-x,1/2-y,1/2+z
3 1/2+x,1/2-y,-z
4 -x,y,1/2-z
5 -x,-y,-z
6 1/2+x,1/2+y,1/2-z
7 1/2-x,1/2+y,z
8 x,-y,1/2+z
_cell_length_a                   19.360(4)
_cell_length_b                   10.100(2)
_cell_length_c                   15.764(3)
_cell_angle_alpha                90
_cell_angle_beta                 90
_cell_angle_gamma                90
_cell_volume                     3082.43
loop_
_atom_site_label
_atom_site_type_symbol
_atom_site_fract_x
_atom_site_fract_y
_atom_site_fract_z
Fe1 Fe 0.0000 0.5000 0.0000
N1 N 0.14636(15) 0.5264(3) 0.18377(19)
N2 N 0.12290(15) 0.6441(3) 0.3110(2)
N3 N 0.09764(16) 0.5756(3) 0.1321(2)
N4 N 0.10517(16) 0.5557(3) 0.3704(2)
N5 N 0.07778(15) 0.4776(3) 0.0831(2)
N6 N 0.05260(15) 0.6050(3) 0.4118(2)
C1 C 0.17540(18) 0.6125(3) 0.2483(3)
H1 H 0.1926 0.6951 0.2218
H2 H 0.2149 0.5679 0.2762
C2 C 0.1137(2) 0.3668(4) 0.1041(3)
H3 H 0.1091 0.2823 0.0781
C3 C 0.0370(2) 0.7274(3) 0.3785(3)
H4 H 0.0013 0.7848 0.3974
C4 C 0.1576(2) 0.3980(4) 0.1691(3)
H5 H 0.1890 0.3410 0.1975
C5 C 0.0817(2) 0.7521(4) 0.3136(3)
H6 H 0.0835 0.8280 0.2781
N7 N -0.03944(16) 0.3327(3) 0.0458(2)
C6 C -0.0579(2) 0.2387(4) 0.0783(3)
C7 C -0.0813(3) 0.1185(4) 0.1197(3)
H7 H -0.0988 0.0564 0.0771
H8 H -0.1182 0.1400 0.1600
H9 H -0.0426 0.0778 0.1502
N1C N -0.14636(15) 0.5264(3) 0.31623(19)
N2C N -0.12290(15) 0.6441(3) 0.1890(2)
N3C N -0.09764(16) 0.5756(3) 0.3679(2)
N4C N -0.10517(16) 0.5557(3) 0.1296(2)
N5C N -0.07778(15) 0.4776(3) 0.4169(2)
N6C N -0.05260(15) 0.6050(3) 0.0882(2)
C1C C -0.17540(18) 0.6125(3) 0.2517(3)
H1C H -0.1926 0.6951 0.2782
H2C H -0.2149 0.5679 0.2238
C2C C -0.1137(2) 0.3668(4) 0.3959(3)
H3C H -0.1091 0.2823 0.4219
C3C C -0.0370(2) 0.7274(3) 0.1215(3)
H4C H -0.0013 0.7848 0.1026
C4C C -0.1576(2) 0.3980(4) 0.3309(3)
H5C H -0.1890 0.3410 0.3025
C5C C -0.0817(2) 0.7521(4) 0.1864(3)
H6C H -0.0835 0.8280 0.2219
N7D N 0.03944(16) 0.6673(3) -0.0458(2)
C6D C 0.0579(2) 0.7613(4) -0.0783(3)
C7D C 0.0813(3) 0.8815(4) -0.1197(3)
H7D H 0.0988 0.9436 -0.0771
H8D H 0.1182 0.8600 -0.1600
H9D H 0.0426 0.9222 -0.1502
Fe1C Fe 0.0000 0.5000 0.5000
N5D N -0.07778(15) 0.5224(3) -0.0831(2)
N6G N 0.05260(15) 0.3950(3) -0.0882(2)
N8 N 0.2452(7) 0.3191(15) 0.3447(9)
C8 C 0.2382(10) 0.3276(17) 0.4152(15)
C9 C 0.2265(6) 0.3614(15) 0.5012(7)
H10 H 0.2376 0.2853 0.5374
H11 H 0.1779 0.3857 0.5090
H12 H 0.2560 0.4364 0.5168
B1 B 0.3670(3) 0.4975(5) 0.6346(3)
F1 F 0.42700(14) 0.5112(3) 0.68095(19)
F2 F 0.32405(14) 0.4072(2) 0.67393(17)
F3 F 0.38306(17) 0.4521(3) 0.55499(17)
F4 F 0.33456(17) 0.6179(2) 0.6318(2)
N9? N 0.2631(11) 0.369(2) 0.3498(17)
C10? C 0.2490(19) 0.359(3) 0.416(3)
C11? C 0.2260(11) 0.294(3) 0.5005(14)
H13? H 0.2255 0.3604 0.5456
H14? H 0.2584 0.2228 0.5155
H15? H 0.1796 0.2566 0.4937
loop_
_geom_bond_atom_site_label_1
_geom_bond_atom_site_label_2
_geom_bond_site_symmetry_1
_geom_bond_site_symmetry_2
Fe1 N5 1_555 1_555
N1 N3 1_555 1_555
N2 N4 1_555 1_555
N3 N5 1_555 1_555
N4 N6 1_555 1_555
N5 C2 1_555 1_555
N6 C3 1_555 1_555
C1 N1 1_555 1_555
H1 C1 1_555 1_555
H2 C1 1_555 1_555
C2 H3 1_555 1_555
C3 H4 1_555 1_555
C4 N1 1_555 1_555
H5 C4 1_555 1_555
C5 N2 1_555 1_555
H6 C5 1_555 1_555
N7 Fe1 1_555 1_555
C6 N7 1_555 1_555
C7 C6 1_555 1_555
H7 C7 1_555 1_555
H8 C7 1_555 1_555
H9 C7 1_555 1_555
N8 C8 1_555 1_555
C8 C9 1_555 1_555
C9 H10 1_555 1_555
H11 C9 1_555 1_555
H12 C9 1_555 1_555
B1 F1 1_555 1_555
F2 B1 1_555 1_555
F3 B1 1_555 1_555
F4 B1 1_555 1_555
N1C N3C 1_555 1_555
N2C N4C 1_555 1_555
N3C N5C 1_555 1_555
N4C N6C 1_555 1_555
N5C C2C 1_555 1_555
N6C Fe1 1_555 1_555
C1C N1C 1_555 1_555
H1C C1C 1_555 1_555
H2C C1C 1_555 1_555
C2C H3C 1_555 1_555
C3C N6C 1_555 1_555
H4C C3C 1_555 1_555
C4C N1C 1_555 1_555
H5C C4C 1_555 1_555
C5C N2C 1_555 1_555
H6C C5C 1_555 1_555
N7D Fe1 1_555 1_555
C6D N7D 1_555 1_555
C7D C6D 1_555 1_555
H7D C7D 1_555 1_555
H8D C7D 1_555 1_555
H9D C7D 1_555 1_555
Fe1C N6 1_555 1_555
N5D Fe1 1_555 1_555
N6G Fe1 1_555 1_555
N2 C1 1_555 1_555
C2 C4 1_555 1_555
C3 C5 1_555 1_555
N2C C1C 1_555 1_555
N5C Fe1C 1_555 1_555
C2C C4C 1_555 1_555
C3C C5C 1_555 1_555

#END
