
#######################################################################
#
#                 Cambridge Crystallographic Data Centre
#                                CCDC 
#
#######################################################################
#
# If this CIF has been generated from an entry in the Cambridge 
# Structural Database, then it will include bibliographic, chemical, 
# crystal, experimental, refinement or atomic coordinate data resulting 
# from the CCDC's data processing and validation procedures.
#
#######################################################################

data_CIJGIN04
_symmetry_cell_setting           orthorhombic
_symmetry_space_group_name_H-M   'P b c n'
_symmetry_Int_Tables_number      60
_space_group_name_Hall           '-P 2n 2ab'
loop_
_symmetry_equiv_pos_site_id
_symmetry_equiv_pos_as_xyz
1 x,y,z
2 1/2-x,1/2-y,1/2+z
3 1/2+x,1/2-y,-z
4 -x,y,1/2-z
5 -x,-y,-z
6 1/2+x,1/2+y,1/2-z
7 1/2-x,1/2+y,z
8 x,-y,1/2+z
_cell_length_a                   19.475(4)
_cell_length_b                   10.303(2)
_cell_length_c                   16.300(3)
_cell_angle_alpha                90
_cell_angle_beta                 90
_cell_angle_gamma                90
_cell_volume                     3270.61
loop_
_atom_site_label
_atom_site_type_symbol
_atom_site_fract_x
_atom_site_fract_y
_atom_site_fract_z
Fe1 Fe 0.0000 0.5000 0.0000
N1 N 0.14756(14) 0.5223(3) 0.18695(16)
N2 N 0.12405(14) 0.6423(3) 0.30811(16)
N3 N 0.10189(14) 0.5706(3) 0.13364(17)
N4 N 0.10818(15) 0.5579(3) 0.36730(17)
N5 N 0.08214(14) 0.4733(3) 0.08832(17)
N6 N 0.05659(14) 0.6094(3) 0.40785(16)
C1 C 0.17652(17) 0.6089(4) 0.2483(2)
H1 H 0.1935 0.6870 0.2220
H2 H 0.2147 0.5667 0.2756
C2 C 0.1145(2) 0.3648(4) 0.1126(2)
H3 H 0.1091 0.2827 0.0897
C3 C 0.0408(2) 0.7261(3) 0.3738(2)
H4 H 0.0063 0.7821 0.3914
C4 C 0.1564(2) 0.3954(4) 0.1766(2)
H5 H 0.1848 0.3401 0.2064
C5 C 0.0839(2) 0.7470(4) 0.3098(2)
H6 H 0.0851 0.8184 0.2749
N7 N -0.04288(16) 0.3172(3) 0.04524(17)
C6 C -0.0581(2) 0.2252(4) 0.0764(2)
C7 C -0.0776(3) 0.1032(5) 0.1168(3)
H7 H -0.0945 0.0432 0.0765
H8 H -0.1129 0.1200 0.1565
H9 H -0.0382 0.0667 0.1437
N1C N -0.14756(14) 0.5223(3) 0.31305(16)
N2C N -0.12405(14) 0.6423(3) 0.19189(16)
N3C N -0.10189(14) 0.5706(3) 0.36636(17)
N4C N -0.10818(15) 0.5579(3) 0.13270(17)
N5C N -0.08214(14) 0.4733(3) 0.41168(17)
N6C N -0.05659(14) 0.6094(3) 0.09215(16)
C1C C -0.17652(17) 0.6089(4) 0.2517(2)
H1C H -0.1935 0.6870 0.2780
H2C H -0.2147 0.5667 0.2244
C2C C -0.1145(2) 0.3648(4) 0.3874(2)
H3C H -0.1091 0.2827 0.4103
C3C C -0.0408(2) 0.7261(3) 0.1262(2)
H4C H -0.0063 0.7821 0.1086
C4C C -0.1564(2) 0.3954(4) 0.3234(2)
H5C H -0.1848 0.3401 0.2936
C5C C -0.0839(2) 0.7470(4) 0.1902(2)
H6C H -0.0851 0.8184 0.2251
N7D N 0.04288(16) 0.6828(3) -0.04524(17)
C6D C 0.0581(2) 0.7748(4) -0.0764(2)
C7D C 0.0776(3) 0.8968(5) -0.1168(3)
H7D H 0.0945 0.9568 -0.0765
H8D H 0.1129 0.8800 -0.1565
H9D H 0.0382 0.9333 -0.1437
Fe1C Fe 0.0000 0.5000 0.5000
N5D N -0.08214(14) 0.5267(3) -0.08832(17)
N6G N 0.05659(14) 0.3906(3) -0.09215(16)
N8 N 0.2347(7) 0.2832(15) 0.3531(10)
C8 C 0.2339(10) 0.3029(17) 0.4194(14)
C9 C 0.2273(8) 0.3731(18) 0.4977(8)
H10 H 0.2353 0.3143 0.5424
H11 H 0.1819 0.4087 0.5022
H12 H 0.2604 0.4421 0.4997
B1 B 0.3658(2) 0.5026(4) 0.6376(2)
F1 F 0.42344(19) 0.5150(4) 0.6835(3)
F2 F 0.32358(18) 0.4126(3) 0.6702(2)
F3 F 0.3850(2) 0.4591(4) 0.56272(19)
F4 F 0.3333(2) 0.6181(4) 0.6376(3)
N9? N 0.2565(8) 0.3493(17) 0.3500(11)
C10? C 0.2449(12) 0.349(2) 0.4140(18)
C11? C 0.2296(9) 0.294(2) 0.5023(10)
H13? H 0.2305 0.3637 0.5414
H14? H 0.2638 0.2309 0.5165
H15? H 0.1851 0.2541 0.5027
F5? F 0.3392(13) 0.449(3) 0.5692(10)
F6? F 0.4051(12) 0.6059(17) 0.6171(16)
F7? F 0.3144(10) 0.543(3) 0.6872(14)
F8? F 0.4046(12) 0.414(2) 0.6775(15)
loop_
_geom_bond_atom_site_label_1
_geom_bond_atom_site_label_2
_geom_bond_site_symmetry_1
_geom_bond_site_symmetry_2
Fe1 N5 1_555 1_555
N1 N3 1_555 1_555
N2 N4 1_555 1_555
N3 N5 1_555 1_555
N4 N6 1_555 1_555
N5 C2 1_555 1_555
N6 C3 1_555 1_555
C1 N1 1_555 1_555
H1 C1 1_555 1_555
H2 C1 1_555 1_555
C2 H3 1_555 1_555
C3 H4 1_555 1_555
C4 N1 1_555 1_555
H5 C4 1_555 1_555
C5 N2 1_555 1_555
H6 C5 1_555 1_555
N7 Fe1 1_555 1_555
C6 N7 1_555 1_555
C7 C6 1_555 1_555
H7 C7 1_555 1_555
H8 C7 1_555 1_555
H9 C7 1_555 1_555
N8 C8 1_555 1_555
C8 C9 1_555 1_555
C9 H10 1_555 1_555
H11 C9 1_555 1_555
H12 C9 1_555 1_555
B1 F1 1_555 1_555
F2 B1 1_555 1_555
F3 B1 1_555 1_555
F4 B1 1_555 1_555
N1C N3C 1_555 1_555
N2C N4C 1_555 1_555
N3C N5C 1_555 1_555
N4C N6C 1_555 1_555
N5C C2C 1_555 1_555
N6C Fe1 1_555 1_555
C1C N1C 1_555 1_555
H1C C1C 1_555 1_555
H2C C1C 1_555 1_555
C2C H3C 1_555 1_555
C3C N6C 1_555 1_555
H4C C3C 1_555 1_555
C4C N1C 1_555 1_555
H5C C4C 1_555 1_555
C5C N2C 1_555 1_555
H6C C5C 1_555 1_555
N7D Fe1 1_555 1_555
C6D N7D 1_555 1_555
C7D C6D 1_555 1_555
H7D C7D 1_555 1_555
H8D C7D 1_555 1_555
H9D C7D 1_555 1_555
Fe1C N6 1_555 1_555
N5D Fe1 1_555 1_555
N6G Fe1 1_555 1_555
N2 C1 1_555 1_555
C2 C4 1_555 1_555
C3 C5 1_555 1_555
N2C C1C 1_555 1_555
N5C Fe1C 1_555 1_555
C2C C4C 1_555 1_555
C3C C5C 1_555 1_555

#END
