
#######################################################################
#
#                 Cambridge Crystallographic Data Centre
#                                CCDC 
#
#######################################################################
#
# If this CIF has been generated from an entry in the Cambridge 
# Structural Database, then it will include bibliographic, chemical, 
# crystal, experimental, refinement or atomic coordinate data resulting 
# from the CCDC's data processing and validation procedures.
#
#######################################################################

data_CIJHIO
_symmetry_cell_setting           orthorhombic
_symmetry_space_group_name_H-M   'P b c n'
_symmetry_Int_Tables_number      60
_space_group_name_Hall           '-P 2n 2ab'
loop_
_symmetry_equiv_pos_site_id
_symmetry_equiv_pos_as_xyz
1 x,y,z
2 1/2-x,1/2-y,1/2+z
3 1/2+x,1/2-y,-z
4 -x,y,1/2-z
5 -x,-y,-z
6 1/2+x,1/2+y,1/2-z
7 1/2-x,1/2+y,z
8 x,-y,1/2+z
_cell_length_a                   19.356(4)
_cell_length_b                   10.231(2)
_cell_length_c                   15.548(3)
_cell_angle_alpha                90
_cell_angle_beta                 90
_cell_angle_gamma                90
_cell_volume                     3078.99
loop_
_atom_site_label
_atom_site_type_symbol
_atom_site_fract_x
_atom_site_fract_y
_atom_site_fract_z
Fe1 Fe 0.0000 0.5000 0.0000
N1 N 0.14653(12) 0.5359(2) 0.18231(14)
N2 N 0.12246(11) 0.6486(2) 0.31283(14)
N3 N 0.09662(12) 0.5823(2) 0.13135(14)
N4 N 0.10479(12) 0.5563(2) 0.37031(14)
N5 N 0.07738(12) 0.4845(2) 0.08150(14)
N6 N 0.05182(12) 0.6051(2) 0.41367(14)
C1 C 0.17486(14) 0.6203(3) 0.24873(17)
H1 H 0.2140 0.5778 0.2759
H2 H 0.1909 0.7013 0.2231
C2 C 0.11579(15) 0.3757(3) 0.10138(18)
H3 H 0.1124 0.2943 0.0750
C3 C 0.03654(15) 0.7275(3) 0.38306(18)
H4 H 0.0019 0.7823 0.4033
C4 C 0.15975(16) 0.4079(3) 0.16644(18)
H5 H 0.1917 0.3542 0.1938
C5 C 0.08088(15) 0.7540(3) 0.31813(18)
H6 H 0.0824 0.8290 0.2844
N7 N -0.03778(12) 0.3404(2) 0.04840(14)
C6 C -0.05790(15) 0.2485(3) 0.08115(18)
C7 C -0.08381(18) 0.1312(3) 0.1235(2)
H7 H -0.1009 0.0712 0.0811
H8 H -0.1205 0.1544 0.1622
H9 H -0.0471 0.0906 0.1553
N1C N -0.14653(12) 0.5359(2) 0.31769(14)
N2C N -0.12246(11) 0.6486(2) 0.18717(14)
N3C N -0.09662(12) 0.5823(2) 0.36865(14)
N4C N -0.10479(12) 0.5563(2) 0.12969(14)
N5C N -0.07738(12) 0.4845(2) 0.41850(14)
N6C N -0.05182(12) 0.6051(2) 0.08633(14)
C1C C -0.17486(14) 0.6203(3) 0.25127(17)
H1C H -0.2140 0.5778 0.2241
H2C H -0.1909 0.7013 0.2769
C2C C -0.11579(15) 0.3757(3) 0.39862(18)
H3C H -0.1124 0.2943 0.4250
C3C C -0.03654(15) 0.7275(3) 0.11694(18)
H4C H -0.0019 0.7823 0.0967
C4C C -0.15975(16) 0.4079(3) 0.33356(18)
H5C H -0.1917 0.3542 0.3062
C5C C -0.08088(15) 0.7540(3) 0.18187(18)
H6C H -0.0824 0.8290 0.2156
N7D N 0.03778(12) 0.6596(2) -0.04840(14)
C6D C 0.05790(15) 0.7515(3) -0.08115(18)
C7D C 0.08381(18) 0.8688(3) -0.1235(2)
H7D H 0.1009 0.9288 -0.0811
H8D H 0.1205 0.8456 -0.1622
H9D H 0.0471 0.9094 -0.1553
Fe1C Fe 0.0000 0.5000 0.5000
N5D N -0.07738(12) 0.5155(2) -0.08150(14)
N6G N 0.05182(12) 0.3949(2) -0.08633(14)
Cl1 Cl 0.12948(4) 0.00882(6) 0.13063(4)
O1 O 0.06828(12) -0.0113(2) 0.18149(15)
O2 O 0.17457(11) 0.09846(19) 0.17434(13)
O3 O 0.11043(13) 0.0633(2) 0.04825(13)
O4 O 0.16463(14) -0.1134(2) 0.11831(16)
N9 N 0.2646(9) 0.3719(17) 0.3397(8)
C10 C 0.2490(14) 0.364(2) 0.4080(9)
C11 C 0.2294(10) 0.332(2) 0.4972(10)
H13 H 0.2657 0.3575 0.5355
H14 H 0.2219 0.2391 0.5021
H15 H 0.1877 0.3773 0.5119
N8? N 0.2492(11) 0.339(2) 0.3403(11)
C8? C 0.2390(16) 0.342(3) 0.4103(11)
C9? C 0.2231(9) 0.3682(17) 0.5014(9)
H10? H 0.2653 0.3793 0.5329
H11? H 0.1977 0.2958 0.5249
H12? H 0.1958 0.4463 0.5058
loop_
_geom_bond_atom_site_label_1
_geom_bond_atom_site_label_2
_geom_bond_site_symmetry_1
_geom_bond_site_symmetry_2
Fe1 N5 1_555 1_555
N1 N3 1_555 1_555
N2 N4 1_555 1_555
N3 N5 1_555 1_555
N4 N6 1_555 1_555
N5 C2 1_555 1_555
N6 C3 1_555 1_555
C1 N1 1_555 1_555
H1 C1 1_555 1_555
H2 C1 1_555 1_555
C2 H3 1_555 1_555
C3 H4 1_555 1_555
C4 N1 1_555 1_555
H5 C4 1_555 1_555
C5 N2 1_555 1_555
H6 C5 1_555 1_555
N7 Fe1 1_555 1_555
C6 N7 1_555 1_555
C7 C6 1_555 1_555
H7 C7 1_555 1_555
H8 C7 1_555 1_555
H9 C7 1_555 1_555
Cl1 O1 1_555 1_555
O2 Cl1 1_555 1_555
O3 Cl1 1_555 1_555
O4 Cl1 1_555 1_555
N9 C10 1_555 1_555
C10 C11 1_555 1_555
C11 H13 1_555 1_555
H14 C11 1_555 1_555
H15 C11 1_555 1_555
N1C N3C 1_555 1_555
N2C N4C 1_555 1_555
N3C N5C 1_555 1_555
N4C N6C 1_555 1_555
N5C C2C 1_555 1_555
N6C Fe1 1_555 1_555
C1C N1C 1_555 1_555
H1C C1C 1_555 1_555
H2C C1C 1_555 1_555
C2C H3C 1_555 1_555
C3C N6C 1_555 1_555
H4C C3C 1_555 1_555
C4C N1C 1_555 1_555
H5C C4C 1_555 1_555
C5C N2C 1_555 1_555
H6C C5C 1_555 1_555
N7D Fe1 1_555 1_555
C6D N7D 1_555 1_555
C7D C6D 1_555 1_555
H7D C7D 1_555 1_555
H8D C7D 1_555 1_555
H9D C7D 1_555 1_555
Fe1C N6 1_555 1_555
N5D Fe1 1_555 1_555
N6G Fe1 1_555 1_555
N2 C1 1_555 1_555
C2 C4 1_555 1_555
C3 C5 1_555 1_555
N2C C1C 1_555 1_555
N5C Fe1C 1_555 1_555
C2C C4C 1_555 1_555
C3C C5C 1_555 1_555

#END
