
#######################################################################
#
#                 Cambridge Crystallographic Data Centre
#                                CCDC 
#
#######################################################################
#
# If this CIF has been generated from an entry in the Cambridge 
# Structural Database, then it will include bibliographic, chemical, 
# crystal, experimental, refinement or atomic coordinate data resulting 
# from the CCDC's data processing and validation procedures.
#
#######################################################################

data_CIJHIO02
_symmetry_cell_setting           orthorhombic
_symmetry_space_group_name_H-M   'P b c n'
_symmetry_Int_Tables_number      60
_space_group_name_Hall           '-P 2n 2ab'
loop_
_symmetry_equiv_pos_site_id
_symmetry_equiv_pos_as_xyz
1 x,y,z
2 1/2-x,1/2-y,1/2+z
3 1/2+x,1/2-y,-z
4 -x,y,1/2-z
5 -x,-y,-z
6 1/2+x,1/2+y,1/2-z
7 1/2-x,1/2+y,z
8 x,-y,1/2+z
_cell_length_a                   19.538(4)
_cell_length_b                   10.394(2)
_cell_length_c                   16.243(3)
_cell_angle_alpha                90
_cell_angle_beta                 90
_cell_angle_gamma                90
_cell_volume                     3298.6
loop_
_atom_site_label
_atom_site_type_symbol
_atom_site_fract_x
_atom_site_fract_y
_atom_site_fract_z
Fe1 Fe 0.0000 0.5000 0.0000
N1 N 0.14792(15) 0.5295(3) 0.18636(18)
N2 N 0.12393(15) 0.6460(3) 0.30923(17)
N3 N 0.10120(16) 0.5750(3) 0.13401(18)
N4 N 0.10796(16) 0.5613(3) 0.36790(17)
N5 N 0.08197(15) 0.4784(3) 0.08806(18)
N6 N 0.05677(15) 0.6109(3) 0.40960(17)
C1 C 0.17593(18) 0.6143(4) 0.2490(2)
H1 H 0.2142 0.5725 0.2760
H2 H 0.1927 0.6925 0.2233
C2 C 0.1166(2) 0.3714(4) 0.1114(2)
H3 H 0.1124 0.2902 0.0879
C3 C 0.0406(2) 0.7280(4) 0.3767(2)
H4 H 0.0066 0.7834 0.3953
C4 C 0.1584(2) 0.4036(4) 0.1748(3)
H5 H 0.1878 0.3500 0.2039
C5 C 0.0832(2) 0.7488(4) 0.3118(2)
H6 H 0.0837 0.8195 0.2767
N7 N -0.04181(16) 0.3199(3) 0.04766(18)
C6 C -0.0591(2) 0.2289(4) 0.0793(3)
C7 C -0.0810(3) 0.1112(4) 0.1198(3)
H7 H -0.0977 0.0516 0.0793
H8 H -0.1167 0.1305 0.1584
H9 H -0.0428 0.0737 0.1483
N1C N -0.14792(15) 0.5295(3) 0.31364(18)
N2C N -0.12393(15) 0.6460(3) 0.19077(17)
N3C N -0.10120(16) 0.5750(3) 0.36599(18)
N4C N -0.10796(16) 0.5613(3) 0.13210(17)
N5C N -0.08197(15) 0.4784(3) 0.41194(18)
N6C N -0.05677(15) 0.6109(3) 0.09040(17)
C1C C -0.17593(18) 0.6143(4) 0.2510(2)
H1C H -0.2142 0.5725 0.2240
H2C H -0.1927 0.6925 0.2767
C2C C -0.1166(2) 0.3714(4) 0.3886(2)
H3C H -0.1124 0.2902 0.4121
C3C C -0.0406(2) 0.7280(4) 0.1233(2)
H4C H -0.0066 0.7834 0.1047
C4C C -0.1584(2) 0.4036(4) 0.3252(3)
H5C H -0.1878 0.3500 0.2961
C5C C -0.0832(2) 0.7488(4) 0.1882(2)
H6C H -0.0837 0.8195 0.2233
N7D N 0.04181(16) 0.6801(3) -0.04766(18)
C6D C 0.0591(2) 0.7711(4) -0.0793(3)
C7D C 0.0810(3) 0.8888(4) -0.1198(3)
H7D H 0.0977 0.9484 -0.0793
H8D H 0.1167 0.8695 -0.1584
H9D H 0.0428 0.9263 -0.1483
Fe1C Fe 0.0000 0.5000 0.5000
N5D N -0.08197(15) 0.5216(3) -0.08806(18)
N6G N 0.05677(15) 0.3891(3) -0.09040(17)
Cl1 Cl 0.13220(6) 0.00184(10) 0.13398(7)
O1 O 0.07204(19) -0.0126(4) 0.1830(3)
O2 O 0.17613(18) 0.0910(3) 0.1719(2)
O3 O 0.1128(2) 0.0528(4) 0.0564(2)
O4 O 0.1650(3) -0.1166(3) 0.1278(3)
N8 N 0.2386(7) 0.3009(15) 0.3464(7)
C8 C 0.2365(13) 0.3161(19) 0.4128(7)
C9 C 0.2237(7) 0.3723(17) 0.4984(7)
H10 H 0.2666 0.3821 0.5267
H11 H 0.1946 0.3153 0.5291
H12 H 0.2020 0.4547 0.4933
N9? N 0.2607(7) 0.3621(17) 0.3493(8)
C10? C 0.2455(15) 0.355(2) 0.4137(9)
C11? C 0.2326(9) 0.296(2) 0.4986(9)
H13? H 0.2682 0.3221 0.5358
H14? H 0.2324 0.2036 0.4943
H15? H 0.1891 0.3246 0.5191
loop_
_geom_bond_atom_site_label_1
_geom_bond_atom_site_label_2
_geom_bond_site_symmetry_1
_geom_bond_site_symmetry_2
Fe1 N5 1_555 1_555
N1 N3 1_555 1_555
N2 N4 1_555 1_555
N3 N5 1_555 1_555
N4 N6 1_555 1_555
N5 C2 1_555 1_555
N6 C3 1_555 1_555
C1 N1 1_555 1_555
H1 C1 1_555 1_555
H2 C1 1_555 1_555
C2 H3 1_555 1_555
C3 H4 1_555 1_555
C4 N1 1_555 1_555
H5 C4 1_555 1_555
C5 N2 1_555 1_555
H6 C5 1_555 1_555
N7 Fe1 1_555 1_555
C6 N7 1_555 1_555
C7 C6 1_555 1_555
H7 C7 1_555 1_555
H8 C7 1_555 1_555
H9 C7 1_555 1_555
Cl1 O1 1_555 1_555
O2 Cl1 1_555 1_555
O3 Cl1 1_555 1_555
O4 Cl1 1_555 1_555
N8 C8 1_555 1_555
C8 C9 1_555 1_555
C9 H10 1_555 1_555
H11 C9 1_555 1_555
H12 C9 1_555 1_555
N1C N3C 1_555 1_555
N2C N4C 1_555 1_555
N3C N5C 1_555 1_555
N4C N6C 1_555 1_555
N5C C2C 1_555 1_555
N6C Fe1 1_555 1_555
C1C N1C 1_555 1_555
H1C C1C 1_555 1_555
H2C C1C 1_555 1_555
C2C H3C 1_555 1_555
C3C N6C 1_555 1_555
H4C C3C 1_555 1_555
C4C N1C 1_555 1_555
H5C C4C 1_555 1_555
C5C N2C 1_555 1_555
H6C C5C 1_555 1_555
N7D Fe1 1_555 1_555
C6D N7D 1_555 1_555
C7D C6D 1_555 1_555
H7D C7D 1_555 1_555
H8D C7D 1_555 1_555
H9D C7D 1_555 1_555
Fe1C N6 1_555 1_555
N5D Fe1 1_555 1_555
N6G Fe1 1_555 1_555
N2 C1 1_555 1_555
C2 C4 1_555 1_555
C3 C5 1_555 1_555
N2C C1C 1_555 1_555
N5C Fe1C 1_555 1_555
C2C C4C 1_555 1_555
C3C C5C 1_555 1_555

#END
