
#######################################################################
#
#                 Cambridge Crystallographic Data Centre
#                                CCDC 
#
#######################################################################
#
# If this CIF has been generated from an entry in the Cambridge 
# Structural Database, then it will include bibliographic, chemical, 
# crystal, experimental, refinement or atomic coordinate data resulting 
# from the CCDC's data processing and validation procedures.
#
#######################################################################

data_CIJNEP
_symmetry_cell_setting           monoclinic
_symmetry_space_group_name_H-M   'P 21'
_symmetry_Int_Tables_number      4
_space_group_name_Hall           'P 2yb'
loop_
_symmetry_equiv_pos_site_id
_symmetry_equiv_pos_as_xyz
1 x,y,z
2 -x,1/2+y,-z
_cell_length_a                   9.5592(12)
_cell_length_b                   8.9376(11)
_cell_length_c                   12.7650(15)
_cell_angle_alpha                90
_cell_angle_beta                 103.7850(10)
_cell_angle_gamma                90
_cell_volume                     1059.18
loop_
_atom_site_label
_atom_site_type_symbol
_atom_site_fract_x
_atom_site_fract_y
_atom_site_fract_z
Cd1 Cd 0.649150(14) -0.26083(3) -0.215910(10)
O1 O 0.51028(19) -0.0334(2) -0.24587(14)
O2 O 0.3892(2) -0.21377(19) -0.18809(15)
O3 O -0.0658(2) -0.3291(3) -0.2059(2)
O4 O -0.1923(2) -0.1480(3) -0.29988(17)
O5 O -0.0720(3) -0.3353(3) -0.4892(2)
N1 N 0.0213(2) -0.1151(2) -0.41875(17)
H1 H 0.0388 -0.0231 -0.4309
N2 N 0.5192(3) -0.3318(3) -0.38722(18)
N3 N 0.4734(3) -0.4339(3) -0.5474(2)
H2 H 0.4871 -0.4690 -0.6069
N4 N 0.6506(3) -0.5081(3) -0.1682(2)
N5 N 0.6287(3) -0.7525(4) -0.1685(2)
H3 H 0.6051 -0.8418 -0.1909
N6 N 0.7373(3) -0.1710(3) -0.04134(19)
N7 N 0.8654(3) -0.0359(3) 0.0916(2)
H4 H 0.9380 0.0091 0.1320
C1 C 0.3953(2) -0.0859(3) -0.22452(18)
C2 C 0.2666(3) 0.0185(3) -0.2467(2)
H5 H 0.2499 0.0526 -0.3208
H6 H 0.2910 0.1055 -0.2006
C3 C 0.1264(3) -0.0470(3) -0.2297(2)
H7 H 0.0578 0.0341 -0.2342
H8 H 0.1450 -0.0865 -0.1569
C4 C 0.0547(2) -0.1708(3) -0.30748(19)
H9 H 0.1217 -0.2551 -0.3017
C5 C -0.0793(3) -0.2225(3) -0.2703(2)
C6 C -0.0362(4) -0.2054(4) -0.5021(3)
C7 C -0.0582(5) -0.1400(4) -0.6134(3)
H10 H -0.0265 -0.2103 -0.6597
H11 H -0.0036 -0.0492 -0.6100
H12 H -0.1585 -0.1186 -0.6416
C8 C 0.3754(4) -0.3648(5) -0.4204(3)
H13 H 0.3075 -0.3467 -0.3804
C9 C 0.3466(4) -0.4274(5) -0.5192(3)
H14 H 0.2575 -0.4596 -0.5596
C10 C 0.5743(3) -0.3762(4) -0.4668(2)
H15 H 0.6713 -0.3685 -0.4670
C11 C 0.5930(4) -0.6248(4) -0.2242(3)
H16 H 0.5348 -0.6200 -0.2937
C12 C 0.7092(5) -0.7129(4) -0.0703(4)
H17 H 0.7474 -0.7765 -0.0130
C13 C 0.7228(4) -0.5627(4) -0.0721(3)
H18 H 0.7746 -0.5052 -0.0152
C14 C 0.6517(3) -0.1209(4) 0.0238(2)
H19 H 0.5539 -0.1413 0.0129
C15 C 0.7287(4) -0.0384(4) 0.1054(2)
H20 H 0.6953 0.0076 0.1602
C16 C 0.8659(3) -0.1168(4) 0.0029(2)
H21 H 0.9471 -0.1325 -0.0239
Cd1_2 Cd -0.350850(14) -0.26083(3) -0.215910(10)
O3_2 O 0.9342(2) -0.3291(3) -0.2059(2)
O4_2 O 0.8077(2) -0.1480(3) -0.29988(17)
loop_
_geom_bond_atom_site_label_1
_geom_bond_atom_site_label_2
_geom_bond_site_symmetry_1
_geom_bond_site_symmetry_2
Cd1 O1 1_555 1_555
O1 C1 1_555 1_555
O2 Cd1 1_555 1_555
O3 C5 1_555 1_555
O4 C5 1_555 1_555
O5 C6 1_555 1_555
N1 H1 1_555 1_555
N2 Cd1 1_555 1_555
N3 H2 1_555 1_555
N4 Cd1 1_555 1_555
N5 H3 1_555 1_555
N6 Cd1 1_555 1_555
N7 H4 1_555 1_555
C1 O2 1_555 1_555
C2 C1 1_555 1_555
H5 C2 1_555 1_555
H6 C2 1_555 1_555
C3 C2 1_555 1_555
H7 C3 1_555 1_555
H8 C3 1_555 1_555
C4 N1 1_555 1_555
H9 C4 1_555 1_555
C5 C4 1_555 1_555
C6 N1 1_555 1_555
C7 C6 1_555 1_555
H10 C7 1_555 1_555
H11 C7 1_555 1_555
H12 C7 1_555 1_555
C8 N2 1_555 1_555
H13 C8 1_555 1_555
C9 N3 1_555 1_555
H14 C9 1_555 1_555
C10 N2 1_555 1_555
H15 C10 1_555 1_555
C11 N4 1_555 1_555
H16 C11 1_555 1_555
C12 N5 1_555 1_555
H17 C12 1_555 1_555
C13 N4 1_555 1_555
H18 C13 1_555 1_555
C14 N6 1_555 1_555
H19 C14 1_555 1_555
C15 N7 1_555 1_555
H20 C15 1_555 1_555
C16 N6 1_555 1_555
H21 C16 1_555 1_555
Cd1_2 O3 1_555 1_555
O3_2 Cd1 1_555 1_555
O4_2 Cd1 1_555 1_555
O4 Cd1_2 1_555 1_555
N3 C10 1_555 1_555
N5 C11 1_555 1_555
N7 C16 1_555 1_555
C3 C4 1_555 1_555
C8 C9 1_555 1_555
C12 C13 1_555 1_555
C14 C15 1_555 1_555

#END
