
#######################################################################
#
#                 Cambridge Crystallographic Data Centre
#                                CCDC 
#
#######################################################################
#
# If this CIF has been generated from an entry in the Cambridge 
# Structural Database, then it will include bibliographic, chemical, 
# crystal, experimental, refinement or atomic coordinate data resulting 
# from the CCDC's data processing and validation procedures.
#
#######################################################################

data_CIJPIW
_symmetry_cell_setting           monoclinic
_symmetry_space_group_name_H-M   'P 21/n'
_symmetry_Int_Tables_number      14
_space_group_name_Hall           '-P 2yn'
loop_
_symmetry_equiv_pos_site_id
_symmetry_equiv_pos_as_xyz
1 x,y,z
2 1/2-x,1/2+y,1/2-z
3 -x,-y,-z
4 1/2+x,1/2-y,1/2+z
_cell_length_a                   12.4406(7)
_cell_length_b                   11.0013(6)
_cell_length_c                   23.5199(12)
_cell_angle_alpha                90
_cell_angle_beta                 91.2600(10)
_cell_angle_gamma                90
_cell_volume                     3218.22
loop_
_atom_site_label
_atom_site_type_symbol
_atom_site_fract_x
_atom_site_fract_y
_atom_site_fract_z
Co1 Co 0.66482(3) 0.20337(3) 0.272557(15)
C1 C 0.5090(2) 0.1589(3) 0.36826(11)
C2 C 0.4192(2) 0.2071(2) 0.40348(11)
C3 C 0.3949(2) 0.1501(2) 0.45348(11)
H1 H 0.4335 0.0787 0.4639
C4 C 0.3155(2) 0.1930(2) 0.48984(11)
C5 C 0.2933(2) 0.1370(3) 0.54261(12)
H2 H 0.3330 0.0671 0.5540
C6 C 0.2160(3) 0.1815(3) 0.57738(12)
H3 H 0.2019 0.1424 0.6125
C7 C 0.1573(3) 0.2860(3) 0.56080(12)
H4 H 0.1039 0.3174 0.5851
C8 C 0.1763(2) 0.3425(3) 0.51032(11)
H5 H 0.1353 0.4122 0.4999
C9 C 0.2561(2) 0.2993(2) 0.47322(11)
C10 C 0.2798(2) 0.3583(2) 0.42133(11)
C11 C 0.3601(2) 0.3132(2) 0.38704(11)
C12 C 0.22076(19) 0.4705(2) 0.40409(10)
C13 C 0.2497(2) 0.5850(2) 0.42824(11)
C14 C 0.3358(2) 0.5971(3) 0.46820(12)
H6 H 0.3769 0.5276 0.4788
C15 C 0.3605(3) 0.7071(3) 0.49171(14)
H7 H 0.4182 0.7131 0.5187
C16 C 0.3020(3) 0.8118(3) 0.47653(15)
H8 H 0.3202 0.8879 0.4932
C17 C 0.2192(3) 0.8039(3) 0.43781(14)
H9 H 0.1803 0.8752 0.4275
C18 C 0.1902(2) 0.6908(2) 0.41253(12)
C19 C 0.1047(2) 0.6798(2) 0.37308(11)
H10 H 0.0649 0.7503 0.3625
C20 C 0.0767(2) 0.5703(2) 0.34932(11)
C21 C -0.0146(2) 0.5626(3) 0.30660(11)
C22 C 0.1363(2) 0.4639(2) 0.36541(11)
C23 C 0.8327(2) 0.1925(3) 0.36331(13)
H11 H 0.8410 0.1129 0.3484
C24 C 0.8911(3) 0.3468(3) 0.42963(14)
H12 H 0.8432 0.3970 0.4058
H13 H 0.9631 0.3831 0.4311
H14 H 0.8631 0.3421 0.4682
C25 C 0.9764(3) 0.1433(4) 0.43042(18)
H15 H 0.9699 0.0635 0.4122
H16 H 0.9643 0.1352 0.4713
H17 H 1.0486 0.1759 0.4245
C26 C 0.8180(2) 0.1245(3) 0.18574(12)
H18 H 0.7655 0.0628 0.1798
C27 C 0.9815(3) 0.2212(4) 0.15523(18)
H19 H 0.9724 0.2674 0.1904
H20 H 0.9745 0.2761 0.1225
H21 H 1.0528 0.1834 0.1556
C28 C 0.9061(3) 0.0429(4) 0.10444(15)
H22 H 0.8500 -0.0189 0.1082
H23 H 0.9768 0.0036 0.1053
H24 H 0.8957 0.0863 0.0683
N1 N 0.8972(2) 0.2253(2) 0.40566(11)
N2 N 0.9001(2) 0.1281(3) 0.15097(11)
O1 O 0.52941(14) 0.21879(17) 0.32270(8)
O2 O 0.55873(17) 0.06718(19) 0.38448(9)
O3 O 0.38144(15) 0.37358(18) 0.33842(8)
H25 H 0.4338 0.3408 0.3225
O4 O 0.10939(15) 0.35387(17) 0.34299(8)
H26 H 0.0590 0.3626 0.3190
O5 O -0.03267(16) 0.46102(18) 0.28299(9)
O6 O -0.06748(16) 0.65764(18) 0.29675(8)
O7 O 0.76256(16) 0.2574(2) 0.34168(8)
O8 O 0.80520(17) 0.19589(19) 0.22519(9)
O9 O 0.67947(14) 0.01286(17) 0.29676(8)
H27 H 0.6490 0.0056 0.3286
H28 H 0.6321 -0.0043 0.2708
O10 O 0.64608(16) 0.38301(17) 0.24657(9)
H29 H 0.5915 0.3915 0.2246
H30 H 0.6988 0.4224 0.2340
Co1A Co -0.16482(3) 0.70337(3) 0.227443(15)
O6A O 0.56748(16) 0.15764(18) 0.20325(8)
C29 C 0.9212(4) 0.9620(5) 0.7090(3)
H31 H 0.9642 0.8981 0.7245
C30 C 0.7688(4) 0.8466(5) 0.7413(3)
H32 H 0.8198 0.7789 0.7404
H33 H 0.7026 0.8240 0.7205
H34 H 0.7520 0.8657 0.7808
C31 C 0.7458(6) 1.0456(8) 0.7041(3)
H35 H 0.7856 1.1223 0.7029
H36 H 0.6928 1.0493 0.7344
H37 H 0.7087 1.0321 0.6675
N3 N 0.8158(3) 0.9520(4) 0.71485(14)
O11 O 0.9676(2) 1.0426(3) 0.68645(16)
loop_
_geom_bond_atom_site_label_1
_geom_bond_atom_site_label_2
_geom_bond_site_symmetry_1
_geom_bond_site_symmetry_2
Co1 O1 1_555 1_555
C1 C2 1_555 1_555
C2 C3 1_555 1_555
C3 H1 1_555 1_555
C4 C3 1_555 1_555
C5 C4 1_555 1_555
H2 C5 1_555 1_555
C6 C5 1_555 1_555
H3 C6 1_555 1_555
C7 C6 1_555 1_555
H4 C7 1_555 1_555
C8 C7 1_555 1_555
H5 C8 1_555 1_555
C9 C4 1_555 1_555
C10 C9 1_555 1_555
C11 C2 1_555 1_555
C12 C10 1_555 1_555
C13 C12 1_555 1_555
C14 C13 1_555 1_555
H6 C14 1_555 1_555
C15 C14 1_555 1_555
H7 C15 1_555 1_555
C16 C15 1_555 1_555
H8 C16 1_555 1_555
C17 C16 1_555 1_555
H9 C17 1_555 1_555
C18 C13 1_555 1_555
C19 C18 1_555 1_555
H10 C19 1_555 1_555
C20 C19 1_555 1_555
C21 C20 1_555 1_555
C22 C12 1_555 1_555
C23 H11 1_555 1_555
C24 H12 1_555 1_555
H13 C24 1_555 1_555
H14 C24 1_555 1_555
C25 H15 1_555 1_555
H16 C25 1_555 1_555
H17 C25 1_555 1_555
C26 H18 1_555 1_555
C27 H19 1_555 1_555
H20 C27 1_555 1_555
H21 C27 1_555 1_555
C28 H22 1_555 1_555
H23 C28 1_555 1_555
H24 C28 1_555 1_555
N1 C23 1_555 1_555
N2 C26 1_555 1_555
O1 C1 1_555 1_555
O2 C1 1_555 1_555
O3 C11 1_555 1_555
H25 O3 1_555 1_555
O4 C22 1_555 1_555
H26 O4 1_555 1_555
O5 C21 1_555 1_555
O6 C21 1_555 1_555
O7 Co1 1_555 1_555
O8 Co1 1_555 1_555
O9 Co1 1_555 1_555
H27 O9 1_555 1_555
H28 O9 1_555 1_555
O10 Co1 1_555 1_555
H29 O10 1_555 1_555
H30 O10 1_555 1_555
C29 H31 1_555 1_555
C30 H32 1_555 1_555
H33 C30 1_555 1_555
H34 C30 1_555 1_555
C31 H35 1_555 1_555
H36 C31 1_555 1_555
H37 C31 1_555 1_555
N3 C29 1_555 1_555
O11 C29 1_555 1_555
Co1A O6 1_555 1_555
O6A Co1 1_555 1_555
C8 C9 1_555 1_555
C10 C11 1_555 1_555
C17 C18 1_555 1_555
C20 C22 1_555 1_555
C23 O7 1_555 1_555
C24 N1 1_555 1_555
C25 N1 1_555 1_555
C26 O8 1_555 1_555
C27 N2 1_555 1_555
C28 N2 1_555 1_555
C30 N3 1_555 1_555
C31 N3 1_555 1_555

#END
