
#######################################################################
#
#                 Cambridge Crystallographic Data Centre
#                                CCDC 
#
#######################################################################
#
# If this CIF has been generated from an entry in the Cambridge 
# Structural Database, then it will include bibliographic, chemical, 
# crystal, experimental, refinement or atomic coordinate data resulting 
# from the CCDC's data processing and validation procedures.
#
#######################################################################

data_CIJPAO
_symmetry_cell_setting           monoclinic
_symmetry_space_group_name_H-M   'P 21/n'
_symmetry_Int_Tables_number      14
_space_group_name_Hall           '-P 2yn'
loop_
_symmetry_equiv_pos_site_id
_symmetry_equiv_pos_as_xyz
1 x,y,z
2 1/2-x,1/2+y,1/2-z
3 -x,-y,-z
4 1/2+x,1/2-y,1/2+z
_cell_length_a                   12.4098(6)
_cell_length_b                   10.8922(6)
_cell_length_c                   23.5728(12)
_cell_angle_alpha                90
_cell_angle_beta                 90.8240(10)
_cell_angle_gamma                90
_cell_volume                     3186.01
loop_
_atom_site_label
_atom_site_type_symbol
_atom_site_fract_x
_atom_site_fract_y
_atom_site_fract_z
Ni1 Ni 0.66600(2) 0.20161(3) 0.272346(12)
C1 C 0.51202(18) 0.1590(2) 0.36748(10)
C2 C 0.42101(18) 0.2083(2) 0.40254(10)
C3 C 0.39716(18) 0.1512(2) 0.45272(9)
H1 H 0.4368 0.0801 0.4634
C4 C 0.31627(19) 0.1941(2) 0.48893(10)
C5 C 0.2947(2) 0.1385(3) 0.54184(11)
H2 H 0.3353 0.0687 0.5535
C6 C 0.2163(2) 0.1835(3) 0.57650(11)
H3 H 0.2024 0.1448 0.6118
C7 C 0.1565(2) 0.2872(3) 0.55959(11)
H4 H 0.1023 0.3185 0.5837
C8 C 0.1753(2) 0.3437(2) 0.50862(10)
H5 H 0.1335 0.4131 0.4979
C9 C 0.25591(18) 0.3004(2) 0.47176(10)
C10 C 0.27953(17) 0.3594(2) 0.41983(10)
C11 C 0.36064(18) 0.3140(2) 0.38554(9)
C12 C 0.21963(17) 0.4724(2) 0.40257(9)
C13 C 0.24739(18) 0.5880(2) 0.42674(9)
C14 C 0.33376(19) 0.6011(3) 0.46658(10)
H6 H 0.3758 0.5314 0.4768
C15 C 0.3570(2) 0.7124(3) 0.49033(12)
H7 H 0.4146 0.7190 0.5172
C16 C 0.2969(3) 0.8172(3) 0.47554(13)
H8 H 0.3141 0.8941 0.4924
C17 C 0.2140(2) 0.8091(3) 0.43705(12)
H9 H 0.1740 0.8806 0.4272
C18 C 0.1868(2) 0.6943(2) 0.41143(10)
C19 C 0.10174(19) 0.6828(2) 0.37191(10)
H10 H 0.0618 0.7537 0.3613
C20 C 0.07475(17) 0.5715(2) 0.34822(9)
C21 C -0.01572(18) 0.5638(2) 0.30549(10)
C22 C 0.13521(17) 0.4652(2) 0.36402(9)
C23 C 0.8319(2) 0.1916(3) 0.36107(11)
H11 H 0.8408 0.1119 0.3455
C24 C 0.8898(2) 0.3461(3) 0.42810(12)
H12 H 0.8413 0.3971 0.4049
H13 H 0.9617 0.3834 0.4293
H14 H 0.8619 0.3401 0.4667
C25 C 0.9769(3) 0.1410(3) 0.42708(15)
H15 H 0.9722 0.0617 0.4075
H16 H 0.9638 0.1291 0.4676
H17 H 1.0489 0.1759 0.4221
C26 C 0.8156(2) 0.1221(3) 0.18551(10)
H18 H 0.7639 0.0584 0.1810
C27 C 0.9763(2) 0.2243(3) 0.15184(15)
H19 H 0.9662 0.2733 0.1862
H20 H 0.9677 0.2769 0.1184
H21 H 1.0488 0.1885 0.1524
C28 C 0.9033(3) 0.0379(3) 0.10409(13)
H22 H 0.8489 -0.0262 0.1093
H23 H 0.9752 0.0007 0.1044
H24 H 0.8905 0.0792 0.0677
N1 N 0.89659(17) 0.2242(2) 0.40347(9)
N2 N 0.89639(17) 0.1262(2) 0.14961(9)
O1 O 0.53123(13) 0.21842(15) 0.32141(7)
O2 O 0.56251(14) 0.06785(17) 0.38418(7)
O3 O 0.38169(13) 0.37452(16) 0.33683(7)
H25 H 0.4350 0.3422 0.3211
O4 O 0.10920(13) 0.35360(15) 0.34193(7)
H26 H 0.0595 0.3618 0.3177
O5 O -0.03243(14) 0.46112(17) 0.28143(8)
O6 O -0.07008(13) 0.65891(16) 0.29628(7)
O7 O 0.76054(13) 0.25744(18) 0.34033(7)
O8 O 0.80319(14) 0.19669(17) 0.22479(7)
O9 O 0.68115(12) 0.01496(15) 0.29557(7)
H27 H 0.6507 0.0077 0.3274
H28 H 0.6337 -0.0022 0.2697
O10 O 0.64652(13) 0.38102(15) 0.24912(7)
H29 H 0.5919 0.3895 0.2271
H30 H 0.6993 0.4204 0.2366
Ni1A Ni -0.16600(2) 0.70161(3) 0.227654(12)
O6A O 0.57008(13) 0.15891(16) 0.20372(7)
C29 C 0.9229(3) 0.9595(4) 0.71472(17)
H31 H 0.9693 0.9016 0.7328
C30 C 0.7775(3) 0.8321(4) 0.74784(18)
H32 H 0.8352 0.7716 0.7533
H33 H 0.7188 0.7955 0.7253
H34 H 0.7501 0.8574 0.7848
C31 C 0.7446(4) 1.0224(5) 0.6990(3)
H35 H 0.7764 1.1048 0.6997
H36 H 0.6814 1.0206 0.7235
H37 H 0.7227 1.0016 0.6601
N3 N 0.8194(2) 0.9385(3) 0.71834(11)
O11 O 0.96620(19) 1.0446(2) 0.69089(12)
loop_
_geom_bond_atom_site_label_1
_geom_bond_atom_site_label_2
_geom_bond_site_symmetry_1
_geom_bond_site_symmetry_2
Ni1 O1 1_555 1_555
C1 C2 1_555 1_555
C2 C3 1_555 1_555
C3 H1 1_555 1_555
C4 C3 1_555 1_555
C5 C4 1_555 1_555
H2 C5 1_555 1_555
C6 C5 1_555 1_555
H3 C6 1_555 1_555
C7 C6 1_555 1_555
H4 C7 1_555 1_555
C8 C7 1_555 1_555
H5 C8 1_555 1_555
C9 C4 1_555 1_555
C10 C9 1_555 1_555
C11 C2 1_555 1_555
C12 C10 1_555 1_555
C13 C12 1_555 1_555
C14 C13 1_555 1_555
H6 C14 1_555 1_555
C15 C14 1_555 1_555
H7 C15 1_555 1_555
C16 C15 1_555 1_555
H8 C16 1_555 1_555
C17 C16 1_555 1_555
H9 C17 1_555 1_555
C18 C13 1_555 1_555
C19 C18 1_555 1_555
H10 C19 1_555 1_555
C20 C19 1_555 1_555
C21 C20 1_555 1_555
C22 C12 1_555 1_555
C23 H11 1_555 1_555
C24 H12 1_555 1_555
H13 C24 1_555 1_555
H14 C24 1_555 1_555
C25 H15 1_555 1_555
H16 C25 1_555 1_555
H17 C25 1_555 1_555
C26 H18 1_555 1_555
C27 H19 1_555 1_555
H20 C27 1_555 1_555
H21 C27 1_555 1_555
C28 H22 1_555 1_555
H23 C28 1_555 1_555
H24 C28 1_555 1_555
N1 C23 1_555 1_555
N2 C26 1_555 1_555
O1 C1 1_555 1_555
O2 C1 1_555 1_555
O3 C11 1_555 1_555
H25 O3 1_555 1_555
O4 C22 1_555 1_555
H26 O4 1_555 1_555
O5 C21 1_555 1_555
O6 C21 1_555 1_555
O7 Ni1 1_555 1_555
O8 Ni1 1_555 1_555
O9 Ni1 1_555 1_555
H27 O9 1_555 1_555
H28 O9 1_555 1_555
O10 Ni1 1_555 1_555
H29 O10 1_555 1_555
H30 O10 1_555 1_555
C29 H31 1_555 1_555
C30 H32 1_555 1_555
H33 C30 1_555 1_555
H34 C30 1_555 1_555
C31 H35 1_555 1_555
H36 C31 1_555 1_555
H37 C31 1_555 1_555
N3 C29 1_555 1_555
O11 C29 1_555 1_555
Ni1A O6 1_555 1_555
O6A Ni1 1_555 1_555
C8 C9 1_555 1_555
C10 C11 1_555 1_555
C17 C18 1_555 1_555
C20 C22 1_555 1_555
C23 O7 1_555 1_555
C24 N1 1_555 1_555
C25 N1 1_555 1_555
C26 O8 1_555 1_555
C27 N2 1_555 1_555
C28 N2 1_555 1_555
C30 N3 1_555 1_555
C31 N3 1_555 1_555

#END
