
#######################################################################
#
#                 Cambridge Crystallographic Data Centre
#                                CCDC 
#
#######################################################################
#
# If this CIF has been generated from an entry in the Cambridge 
# Structural Database, then it will include bibliographic, chemical, 
# crystal, experimental, refinement or atomic coordinate data resulting 
# from the CCDC's data processing and validation procedures.
#
#######################################################################

data_CIJRAQ
_symmetry_cell_setting           monoclinic
_symmetry_space_group_name_H-M   'P 21/c'
_symmetry_Int_Tables_number      14
_space_group_name_Hall           '-P 2ybc'
loop_
_symmetry_equiv_pos_site_id
_symmetry_equiv_pos_as_xyz
1 x,y,z
2 -x,1/2+y,1/2-z
3 -x,-y,-z
4 x,1/2-y,1/2+z
_cell_length_a                   9.319(3)
_cell_length_b                   17.591(6)
_cell_length_c                   13.564(5)
_cell_angle_alpha                90
_cell_angle_beta                 101.695(5)
_cell_angle_gamma                90
_cell_volume                     2177.39
loop_
_atom_site_label
_atom_site_type_symbol
_atom_site_fract_x
_atom_site_fract_y
_atom_site_fract_z
Zn1 Zn 0.17154(4) 0.23084(2) 0.14989(3)
S1 S 0.56799(11) -0.04050(5) -0.30315(6)
S2 S 0.47538(9) 0.03377(5) -0.22056(6)
N1 N 0.3905(3) 0.21913(13) 0.16436(18)
O1 O 0.1045(2) 0.17246(13) 0.02275(15)
N2 N 0.7204(3) -0.00261(16) -0.0855(2)
N3 N 0.7018(3) -0.02368(14) -0.44990(18)
O2 O -0.0963(3) 0.22931(13) 0.03394(18)
N4 N 0.5594(3) 0.09352(14) -0.04550(18)
N5 N -0.0304(3) 0.18737(15) -0.0141(2)
N6 N 0.1171(3) 0.19251(16) 0.3336(2)
O3 O 0.0637(2) 0.17695(14) 0.24095(16)
C1 C 0.6446(3) 0.10237(17) 0.0458(2)
C2 C 0.6329(4) 0.23841(19) 0.2593(3)
H1 H 0.6951 0.2620 0.3128
C3 C 0.6045(3) 0.04220(18) -0.1045(2)
N7 N 0.6371(3) 0.09328(17) -0.3796(2)
C4 C 0.7627(3) 0.01460(18) -0.5169(2)
C5 C 0.4460(3) 0.17392(17) 0.1019(2)
H2 H 0.3819 0.1530 0.0471
O4 O 0.0505(3) 0.17132(14) 0.39745(17)
C6 C 0.6443(3) 0.01817(19) -0.3862(2)
C7 C 0.8278(3) -0.03177(17) -0.5875(2)
O5 O -0.0883(3) 0.15824(15) -0.09450(17)
C8 C 0.5936(3) 0.15670(17) 0.1145(2)
O6 O 0.2317(3) 0.22919(16) 0.3531(2)
C9 C 0.6886(3) 0.18990(19) 0.1961(2)
H3 H 0.7885 0.1795 0.2078
C10 C 0.7632(4) 0.09385(19) -0.5169(3)
H4 H 0.8059 0.1212 -0.5621
C11 C 0.7709(3) 0.05924(19) 0.0743(2)
H5 H 0.8318 0.0654 0.1372
C12 C 0.6985(4) 0.1297(2) -0.4478(3)
H6 H 0.6969 0.1826 -0.4480
C13 C 0.4850(4) 0.25123(18) 0.2420(3)
H7 H 0.4480 0.2833 0.2854
C14 C 0.8025(4) 0.0073(2) 0.0066(3)
H8 H 0.8857 -0.0227 0.0257
C15 C 0.8008(3) -0.10926(18) -0.5943(2)
H9 H 0.7389 -0.1301 -0.5556
C16 C 0.9169(4) -0.0014(2) -0.6489(2)
H10 H 0.9372 0.0504 -0.6472
C17 C 0.9749(4) -0.0487(2) -0.7123(2)
H11 H 1.0336 -0.0292 -0.7541
C18 C 0.9444(3) -0.12515(19) -0.7125(2)
H12 H 0.9840 -0.1570 -0.7548
N8 N 0.8595(3) -0.15554(14) -0.65380(17)
Zn1A Zn 0.82846(4) -0.26916(2) -0.64989(3)
N8A N 0.1405(3) 0.34446(14) 0.15380(17)
loop_
_geom_bond_atom_site_label_1
_geom_bond_atom_site_label_2
_geom_bond_site_symmetry_1
_geom_bond_site_symmetry_2
Zn1 N1 1_555 1_555
S1 S2 1_555 1_555
S2 C3 1_555 1_555
N1 C5 1_555 1_555
O1 Zn1 1_555 1_555
N2 C3 1_555 1_555
N3 C4 1_555 1_555
O2 N5 1_555 1_555
N4 C1 1_555 1_555
N5 O1 1_555 1_555
N6 O3 1_555 1_555
O3 Zn1 1_555 1_555
C1 C8 1_555 1_555
C2 H1 1_555 1_555
C3 N4 1_555 1_555
N7 C6 1_555 1_555
C4 C7 1_555 1_555
C5 H2 1_555 1_555
O4 N6 1_555 1_555
C6 S1 1_555 1_555
C7 C15 1_555 1_555
O5 N5 1_555 1_555
C8 C5 1_555 1_555
O6 N6 1_555 1_555
C9 C2 1_555 1_555
H3 C9 1_555 1_555
C10 C4 1_555 1_555
H4 C10 1_555 1_555
C11 C1 1_555 1_555
H5 C11 1_555 1_555
C12 N7 1_555 1_555
H6 C12 1_555 1_555
C13 N1 1_555 1_555
H7 C13 1_555 1_555
C14 N2 1_555 1_555
H8 C14 1_555 1_555
C15 H9 1_555 1_555
C16 C7 1_555 1_555
H10 C16 1_555 1_555
C17 C16 1_555 1_555
H11 C17 1_555 1_555
C18 C17 1_555 1_555
H12 C18 1_555 1_555
N8 C15 1_555 1_555
Zn1A N8 1_555 1_555
N8A Zn1 1_555 1_555
N3 C6 1_555 1_555
C2 C13 1_555 1_555
C8 C9 1_555 1_555
C10 C12 1_555 1_555
C11 C14 1_555 1_555
C18 N8 1_555 1_555

#END
