
#######################################################################
#
#                 Cambridge Crystallographic Data Centre
#                                CCDC 
#
#######################################################################
#
# If this CIF has been generated from an entry in the Cambridge 
# Structural Database, then it will include bibliographic, chemical, 
# crystal, experimental, refinement or atomic coordinate data resulting 
# from the CCDC's data processing and validation procedures.
#
#######################################################################

data_CIJSOF
_symmetry_cell_setting           monoclinic
_symmetry_space_group_name_H-M   'P 21/c'
_symmetry_Int_Tables_number      14
_space_group_name_Hall           '-P 2ybc'
loop_
_symmetry_equiv_pos_site_id
_symmetry_equiv_pos_as_xyz
1 x,y,z
2 -x,1/2+y,1/2-z
3 -x,-y,-z
4 x,1/2-y,1/2+z
_cell_length_a                   11.104(2)
_cell_length_b                   9.780(2)
_cell_length_c                   18.453(4)
_cell_angle_alpha                90
_cell_angle_beta                 97.12(3)
_cell_angle_gamma                90
_cell_volume                     1988.49
loop_
_atom_site_label
_atom_site_type_symbol
_atom_site_fract_x
_atom_site_fract_y
_atom_site_fract_z
Cu1 Cu 0.51691(6) 0.86698(6) 0.00089(4)
N1 N 0.5189(4) 0.6403(4) 0.0021(2)
C1 C 0.4243(5) 0.5835(5) 0.0280(3)
H1 H 0.3692 0.6400 0.0476
C2 C 0.5958(4) 0.5557(5) -0.0270(3)
C3 C 0.7051(7) 0.6169(6) -0.0549(5)
H2 H 0.6815 0.6572 -0.1020
H3 H 0.7643 0.5467 -0.0591
H4 H 0.7393 0.6859 -0.0215
O1 O 0.4712(4) 0.8775(4) 0.0998(2)
O2 O 0.4441(4) 1.1031(4) 0.0977(2)
C4 C 0.4432(5) 0.9894(6) 0.1287(3)
C5 C 0.4035(5) 0.9821(6) 0.2019(4)
C6 C 0.3830(7) 0.8563(7) 0.2325(4)
H5 H 0.3963 0.7758 0.2079
C7 C 0.3424(8) 0.8523(10) 0.3002(5)
H6 H 0.3286 0.7685 0.3216
C8 C 0.3221(8) 0.9733(10) 0.3369(5)
H7 H 0.2920 0.9708 0.3817
C9 C 0.3466(8) 1.0944(9) 0.3062(4)
H8 H 0.3373 1.1750 0.3317
C10 C 0.3842(6) 1.1007(7) 0.2397(4)
H9 H 0.3972 1.1853 0.2190
O3 O 0.6857(3) 0.9087(4) 0.0387(2)
O4 O 0.6569(3) 1.1348(4) 0.0358(2)
C11 C 0.7227(5) 1.0294(5) 0.0479(3)
C12 C 0.8552(5) 1.0527(6) 0.0718(3)
C13 C 0.9337(6) 0.9428(8) 0.0850(5)
H10 H 0.9047 0.8537 0.0798
C14 C 1.0549(6) 0.9672(9) 0.1059(5)
H11 H 1.1083 0.8941 0.1146
C15 C 1.0975(7) 1.0982(10) 0.1139(5)
H12 H 1.1785 1.1136 0.1315
C16 C 1.0245(7) 1.2029(9) 0.0969(5)
H13 H 1.0564 1.2909 0.0977
C17 C 0.9007(6) 1.1834(7) 0.0776(4)
H14 H 0.8491 1.2581 0.0688
N1B N 0.4811(4) 0.3597(4) -0.0021(2)
C1B C 0.5757(5) 0.4165(5) -0.0280(3)
H1B H 0.6308 0.3600 -0.0476
C2B C 0.4042(4) 0.4443(5) 0.0270(3)
C3B C 0.2949(7) 0.3831(6) 0.0549(5)
H2B H 0.3185 0.3428 0.1020
H3B H 0.2357 0.4533 0.0591
H4B H 0.2607 0.3141 0.0215
Cu1B Cu 0.48309(6) 0.13302(6) -0.00089(4)
O1B O 0.5288(4) 0.1225(4) -0.0998(2)
O2B O 0.5559(4) -0.1031(4) -0.0977(2)
C4B C 0.5568(5) 0.0106(6) -0.1287(3)
C5B C 0.5965(5) 0.0179(6) -0.2019(4)
C6B C 0.6170(7) 0.1437(7) -0.2325(4)
H5B H 0.6037 0.2242 -0.2079
C7B C 0.6576(8) 0.1477(10) -0.3002(5)
H6B H 0.6714 0.2315 -0.3216
C8B C 0.6779(8) 0.0267(10) -0.3369(5)
H7B H 0.7080 0.0292 -0.3817
C9B C 0.6534(8) -0.0944(9) -0.3062(4)
H8B H 0.6627 -0.1750 -0.3317
C10B C 0.6158(6) -0.1007(7) -0.2397(4)
H9B H 0.6028 -0.1853 -0.2190
O3B O 0.3143(3) 0.0913(4) -0.0387(2)
O4B O 0.3431(3) -0.1348(4) -0.0358(2)
C11B C 0.2773(5) -0.0294(5) -0.0479(3)
C12B C 0.1448(5) -0.0527(6) -0.0718(3)
C13B C 0.0663(6) 0.0572(8) -0.0850(5)
H10B H 0.0953 0.1463 -0.0798
C14B C -0.0549(6) 0.0328(9) -0.1059(5)
H11B H -0.1083 0.1059 -0.1146
C15B C -0.0975(7) -0.0982(10) -0.1139(5)
H12B H -0.1785 -0.1136 -0.1315
C16B C -0.0245(7) -0.2029(9) -0.0969(5)
H13B H -0.0564 -0.2909 -0.0977
C17B C 0.0993(6) -0.1834(7) -0.0776(4)
H14B H 0.1509 -0.2581 -0.0688
Cu1_2 Cu 0.51691(6) -0.13302(6) 0.00089(4)
Cu1B_2 Cu 0.48309(6) 1.13302(6) -0.00089(4)
O2_2 O 0.4441(4) 0.1031(4) 0.0977(2)
O2B_2 O 0.5559(4) 0.8969(4) -0.0977(2)
O4_2 O 0.6569(3) 0.1348(4) 0.0358(2)
O4B_2 O 0.3431(3) 0.8652(4) -0.0358(2)
O5 O 0.2320(8) 0.4748(8) 0.2451(4)
O6 O 0.0308(7) 0.5889(6) 0.1418(5)
loop_
_geom_bond_atom_site_label_1
_geom_bond_atom_site_label_2
_geom_bond_site_symmetry_1
_geom_bond_site_symmetry_2
Cu1 N1 1_555 1_555
N1 C1 1_555 1_555
C1 H1 1_555 1_555
C2 N1 1_555 1_555
C3 C2 1_555 1_555
H2 C3 1_555 1_555
H3 C3 1_555 1_555
H4 C3 1_555 1_555
O1 Cu1 1_555 1_555
O2 C4 1_555 1_555
C4 O1 1_555 1_555
C5 C4 1_555 1_555
C6 C5 1_555 1_555
H5 C6 1_555 1_555
C7 C6 1_555 1_555
H6 C7 1_555 1_555
C8 C7 1_555 1_555
H7 C8 1_555 1_555
C9 C8 1_555 1_555
H8 C9 1_555 1_555
C10 C5 1_555 1_555
H9 C10 1_555 1_555
O3 Cu1 1_555 1_555
O4 C11 1_555 1_555
C11 O3 1_555 1_555
C12 C11 1_555 1_555
C13 C12 1_555 1_555
H10 C13 1_555 1_555
C14 C13 1_555 1_555
H11 C14 1_555 1_555
C15 C14 1_555 1_555
H12 C15 1_555 1_555
C16 C15 1_555 1_555
H13 C16 1_555 1_555
C17 C12 1_555 1_555
H14 C17 1_555 1_555
N1B C1B 1_555 1_555
C1B C2 1_555 1_555
H1B C1B 1_555 1_555
C2B C1 1_555 1_555
C3B C2B 1_555 1_555
H2B C3B 1_555 1_555
H3B C3B 1_555 1_555
H4B C3B 1_555 1_555
Cu1B N1B 1_555 1_555
O1B Cu1B 1_555 1_555
O2B C4B 1_555 1_555
C4B O1B 1_555 1_555
C5B C4B 1_555 1_555
C6B C5B 1_555 1_555
H5B C6B 1_555 1_555
C7B C6B 1_555 1_555
H6B C7B 1_555 1_555
C8B C7B 1_555 1_555
H7B C8B 1_555 1_555
C9B C8B 1_555 1_555
H8B C9B 1_555 1_555
C10B C5B 1_555 1_555
H9B C10B 1_555 1_555
O3B Cu1B 1_555 1_555
O4B C11B 1_555 1_555
C11B O3B 1_555 1_555
C12B C11B 1_555 1_555
C13B C12B 1_555 1_555
H10B C13B 1_555 1_555
C14B C13B 1_555 1_555
H11B C14B 1_555 1_555
C15B C14B 1_555 1_555
H12B C15B 1_555 1_555
C16B C15B 1_555 1_555
H13B C16B 1_555 1_555
C17B C12B 1_555 1_555
H14B C17B 1_555 1_555
Cu1_2 Cu1B 1_555 1_555
Cu1B_2 Cu1 1_555 1_555
O2_2 Cu1B 1_555 1_555
O2B_2 Cu1 1_555 1_555
O4_2 Cu1B 1_555 1_555
O4B_2 Cu1 1_555 1_555
O2 Cu1B_2 1_555 1_555
C9 C10 1_555 1_555
O4 Cu1B_2 1_555 1_555
C16 C17 1_555 1_555
N1B C2B 1_555 1_555
O2B Cu1_2 1_555 1_555
C9B C10B 1_555 1_555
O4B Cu1_2 1_555 1_555
C16B C17B 1_555 1_555

#END
