
#######################################################################
#
#                 Cambridge Crystallographic Data Centre
#                                CCDC 
#
#######################################################################
#
# If this CIF has been generated from an entry in the Cambridge 
# Structural Database, then it will include bibliographic, chemical, 
# crystal, experimental, refinement or atomic coordinate data resulting 
# from the CCDC's data processing and validation procedures.
#
#######################################################################

data_CIJVAU
_symmetry_cell_setting           triclinic
_symmetry_space_group_name_H-M   'P -1'
_symmetry_Int_Tables_number      2
_space_group_name_Hall           '-P 1'
loop_
_symmetry_equiv_pos_site_id
_symmetry_equiv_pos_as_xyz
1 x,y,z
2 -x,-y,-z
_cell_length_a                   9.4417(9)
_cell_length_b                   13.7988(14)
_cell_length_c                   14.4417(13)
_cell_angle_alpha                65.081(4)
_cell_angle_beta                 72.799(5)
_cell_angle_gamma                79.911(5)
_cell_volume                     1627.26
loop_
_atom_site_label
_atom_site_type_symbol
_atom_site_fract_x
_atom_site_fract_y
_atom_site_fract_z
Mn1 Mn 0.5000 0.0000 0.5000
Mn2 Mn 1.0000 0.0000 0.5000
Cl1 Cl 0.73967(6) -0.08086(5) 0.56834(5)
N1 N 0.45032(19) -0.15360(14) 0.54199(14)
N2 N 0.7094(3) -0.29404(19) 0.5121(2)
N3 N 0.9747(2) 0.08159(15) 0.35069(14)
N4 N 1.2471(3) 0.0988(2) 0.18801(18)
O1 O 0.40510(17) -0.00810(12) 0.63570(11)
O2 O 0.3752(2) 0.02444(16) 0.80611(13)
O3 O 0.92091(18) 0.11877(12) 0.53213(12)
O4 O 0.8961(2) 0.25533(14) 0.61802(15)
C1 C 0.3787(2) -0.19640(19) 0.73163(18)
C2 C 0.3836(2) -0.09299(19) 0.72512(17)
C3 C 0.3604(3) -0.0777(2) 0.81997(19)
C4 C 0.3282(3) -0.1635(3) 0.9156(2)
H1 H 0.3126 -0.1533 0.9776
C5 C 0.3187(3) -0.2642(3) 0.9206(2)
H2 H 0.2943 -0.3207 0.9859
C6 C 0.3447(3) -0.2818(2) 0.8307(2)
H3 H 0.3400 -0.3504 0.8349
C7 C 0.4039(2) -0.21804(19) 0.63866(19)
H4 H 0.3846 -0.2864 0.6496
C8 C 0.4714(3) -0.1986(2) 0.46246(19)
H5 H 0.4405 -0.1449 0.4013
H6 H 0.4095 -0.2589 0.4913
C9 C 0.6348(3) -0.2358(2) 0.4286(2)
H7 H 0.6392 -0.2808 0.3911
H8 H 0.6896 -0.1732 0.3793
C10 C 0.6563(3) -0.3861(2) 0.5978(2)
C11 C 0.5657(4) -0.4526(2) 0.5939(2)
H9 H 0.5400 -0.4372 0.5315
C12 C 0.5136(4) -0.5420(3) 0.6827(3)
H10 H 0.4527 -0.5862 0.6796
C13 C 0.5506(5) -0.5659(3) 0.7748(3)
H11 H 0.5140 -0.6254 0.8346
C14 C 0.6423(5) -0.5011(3) 0.7782(3)
H12 H 0.6693 -0.5179 0.8404
C15 C 0.6942(4) -0.4127(3) 0.6916(3)
H13 H 0.7559 -0.3696 0.6955
C16 C 0.3941(4) 0.0416(3) 0.8926(2)
H14 H 0.4695 -0.0092 0.9230
H15 H 0.3017 0.0320 0.9468
C17 C 0.4403(5) 0.1530(3) 0.8517(3)
H16 H 0.5318 0.1616 0.7981
H17 H 0.4542 0.1666 0.9083
H18 H 0.3647 0.2026 0.8222
C18 C 0.9316(3) 0.25703(18) 0.36101(19)
C19 C 0.9198(2) 0.22141(17) 0.46840(19)
C20 C 0.9010(3) 0.2978(2) 0.5136(2)
C21 C 0.8901(3) 0.4054(2) 0.4507(3)
H19 H 0.8767 0.4557 0.4801
C22 C 0.8986(4) 0.4395(2) 0.3442(3)
H20 H 0.8897 0.5123 0.3033
C23 C 0.9198(3) 0.3678(2) 0.2993(2)
H21 H 0.9266 0.3916 0.2276
C24 C 0.9503(2) 0.1843(2) 0.31052(19)
H22 H 0.9442 0.2145 0.2407
C25 C 0.9923(3) 0.0263(2) 0.27977(19)
H23 H 0.9398 0.0684 0.2256
H24 H 0.9485 -0.0425 0.3196
C26 C 1.1561(3) 0.0095(2) 0.2279(2)
H25 H 1.1990 -0.0507 0.2790
H26 H 1.1611 -0.0104 0.1700
C27 C 1.2185(3) 0.1984(3) 0.1132(2)
C28 C 1.1315(4) 0.2136(3) 0.0462(2)
H27 H 1.0892 0.1558 0.0494
C29 C 1.1073(5) 0.3172(4) -0.0273(3)
H28 H 1.0471 0.3283 -0.0719
C30 C 1.1709(6) 0.4011(4) -0.0336(4)
H29 H 1.1545 0.4693 -0.0827
C31 C 1.2582(5) 0.3864(3) 0.0310(4)
H30 H 1.3020 0.4444 0.0258
C32 C 1.2822(4) 0.2872(3) 0.1036(3)
H31 H 1.3422 0.2783 0.1477
C33 C 0.9170(4) 0.3254(3) 0.6621(3)
H32 H 0.8354 0.3792 0.6599
H33 H 1.0088 0.3612 0.6227
C34 C 0.9228(6) 0.2582(3) 0.7730(3)
H34 H 0.8337 0.2201 0.8100
H35 H 0.9312 0.3031 0.8067
H36 H 1.0073 0.2080 0.7738
H37 H 1.283(3) 0.105(2) 0.2356(18)
H38 H 0.751(3) -0.2506(19) 0.527(2)
Cl1A Cl 0.26033(6) 0.08086(5) 0.43166(5)
N1A N 0.54968(19) 0.15360(14) 0.45801(14)
N2A N 0.2906(3) 0.29404(19) 0.4879(2)
O1A O 0.59490(17) 0.00810(12) 0.36430(11)
O2A O 0.6248(2) -0.02444(16) 0.19389(13)
C1A C 0.6213(2) 0.19640(19) 0.26837(18)
C2A C 0.6164(2) 0.09299(19) 0.27488(17)
C3A C 0.6396(3) 0.0777(2) 0.18003(19)
C4A C 0.6718(3) 0.1635(3) 0.0844(2)
H1A H 0.6874 0.1533 0.0224
C5A C 0.6813(3) 0.2642(3) 0.0794(2)
H2A H 0.7057 0.3207 0.0141
C6A C 0.6553(3) 0.2818(2) 0.1693(2)
H3A H 0.6600 0.3504 0.1651
C7A C 0.5961(2) 0.21804(19) 0.36134(19)
H4A H 0.6154 0.2864 0.3504
C8A C 0.5286(3) 0.1986(2) 0.53754(19)
H5A H 0.5595 0.1449 0.5987
H6A H 0.5905 0.2589 0.5087
C9A C 0.3652(3) 0.2358(2) 0.5714(2)
H7A H 0.3608 0.2808 0.6089
H8A H 0.3104 0.1732 0.6207
C10A C 0.3437(3) 0.3861(2) 0.4022(2)
C11A C 0.4343(4) 0.4526(2) 0.4061(2)
H9A H 0.4600 0.4372 0.4685
C12A C 0.4864(4) 0.5420(3) 0.3173(3)
H10A H 0.5473 0.5862 0.3204
C13A C 0.4494(5) 0.5659(3) 0.2252(3)
H11A H 0.4860 0.6254 0.1654
C14A C 0.3577(5) 0.5011(3) 0.2218(3)
H12A H 0.3307 0.5179 0.1596
C15A C 0.3058(4) 0.4127(3) 0.3084(3)
H13A H 0.2441 0.3696 0.3045
C16A C 0.6059(4) -0.0416(3) 0.1074(2)
H14A H 0.5305 0.0092 0.0770
H15A H 0.6983 -0.0320 0.0532
C17A C 0.5597(5) -0.1530(3) 0.1483(3)
H16A H 0.4682 -0.1616 0.2019
H17A H 0.5458 -0.1666 0.0917
H18A H 0.6353 -0.2026 0.1778
H38A H 0.249(3) 0.2506(19) 0.473(2)
N3A N 1.0253(2) -0.08159(15) 0.64931(14)
N4A N 0.7529(3) -0.0988(2) 0.81199(18)
O3A O 1.07909(18) -0.11877(12) 0.46787(12)
O4A O 1.1039(2) -0.25533(14) 0.38198(15)
C18A C 1.0684(3) -0.25703(18) 0.63899(19)
C19A C 1.0802(2) -0.22141(17) 0.53160(19)
C20A C 1.0990(3) -0.2978(2) 0.4864(2)
C21A C 1.1099(3) -0.4054(2) 0.5493(3)
H19A H 1.1233 -0.4557 0.5199
C22A C 1.1014(4) -0.4395(2) 0.6558(3)
H20A H 1.1103 -0.5123 0.6967
C23A C 1.0802(3) -0.3678(2) 0.7007(2)
H21A H 1.0734 -0.3916 0.7724
C24A C 1.0497(2) -0.1843(2) 0.68948(19)
H22A H 1.0558 -0.2145 0.7593
C25A C 1.0077(3) -0.0263(2) 0.72023(19)
H23A H 1.0602 -0.0684 0.7744
H24A H 1.0515 0.0425 0.6804
C26A C 0.8439(3) -0.0095(2) 0.7721(2)
H25A H 0.8010 0.0507 0.7210
H26A H 0.8389 0.0104 0.8300
C27A C 0.7815(3) -0.1984(3) 0.8868(2)
C28A C 0.8685(4) -0.2136(3) 0.9538(2)
H27A H 0.9108 -0.1558 0.9506
C29A C 0.8927(5) -0.3172(4) 1.0273(3)
H28A H 0.9529 -0.3283 1.0719
C30A C 0.8291(6) -0.4011(4) 1.0336(4)
H29A H 0.8455 -0.4693 1.0827
C31A C 0.7418(5) -0.3864(3) 0.9690(4)
H30A H 0.6980 -0.4444 0.9742
C32A C 0.7178(4) -0.2872(3) 0.8964(3)
H31A H 0.6578 -0.2783 0.8523
C33A C 1.0830(4) -0.3254(3) 0.3379(3)
H32A H 1.1646 -0.3792 0.3401
H33A H 0.9912 -0.3612 0.3773
C34A C 1.0772(6) -0.2582(3) 0.2270(3)
H34A H 1.1663 -0.2201 0.1900
H35A H 1.0688 -0.3031 0.1933
H36A H 0.9927 -0.2080 0.2262
H37A H 0.717(3) -0.105(2) 0.7644(18)
Mn2_2 Mn 0.0000 0.0000 0.5000
Cl1A_2 Cl 1.26033(6) 0.08086(5) 0.43166(5)
loop_
_geom_bond_atom_site_label_1
_geom_bond_atom_site_label_2
_geom_bond_site_symmetry_1
_geom_bond_site_symmetry_2
Mn1 Cl1 1_555 1_555
Mn2 Cl1 1_555 1_555
N1 Mn1 1_555 1_555
N2 C9 1_555 1_555
N3 Mn2 1_555 1_555
N4 C26 1_555 1_555
O1 Mn1 1_555 1_555
O2 C3 1_555 1_555
O3 Mn2 1_555 1_555
O4 C20 1_555 1_555
C1 C2 1_555 1_555
C2 O1 1_555 1_555
C3 C2 1_555 1_555
C4 C3 1_555 1_555
H1 C4 1_555 1_555
C5 C4 1_555 1_555
H2 C5 1_555 1_555
C6 C1 1_555 1_555
H3 C6 1_555 1_555
C7 N1 1_555 1_555
H4 C7 1_555 1_555
C8 N1 1_555 1_555
H5 C8 1_555 1_555
H6 C8 1_555 1_555
C9 C8 1_555 1_555
H7 C9 1_555 1_555
H8 C9 1_555 1_555
C10 N2 1_555 1_555
C11 C10 1_555 1_555
H9 C11 1_555 1_555
C12 C11 1_555 1_555
H10 C12 1_555 1_555
C13 C12 1_555 1_555
H11 C13 1_555 1_555
C14 C13 1_555 1_555
H12 C14 1_555 1_555
C15 C10 1_555 1_555
H13 C15 1_555 1_555
C16 O2 1_555 1_555
H14 C16 1_555 1_555
H15 C16 1_555 1_555
C17 C16 1_555 1_555
H16 C17 1_555 1_555
H17 C17 1_555 1_555
H18 C17 1_555 1_555
C18 C19 1_555 1_555
C19 O3 1_555 1_555
C20 C19 1_555 1_555
C21 C20 1_555 1_555
H19 C21 1_555 1_555
C22 C21 1_555 1_555
H20 C22 1_555 1_555
C23 C18 1_555 1_555
H21 C23 1_555 1_555
C24 N3 1_555 1_555
H22 C24 1_555 1_555
C25 N3 1_555 1_555
H23 C25 1_555 1_555
H24 C25 1_555 1_555
C26 C25 1_555 1_555
H25 C26 1_555 1_555
H26 C26 1_555 1_555
C27 N4 1_555 1_555
C28 C27 1_555 1_555
H27 C28 1_555 1_555
C29 C28 1_555 1_555
H28 C29 1_555 1_555
C30 C29 1_555 1_555
H29 C30 1_555 1_555
C31 C30 1_555 1_555
H30 C31 1_555 1_555
C32 C27 1_555 1_555
H31 C32 1_555 1_555
C33 O4 1_555 1_555
H32 C33 1_555 1_555
H33 C33 1_555 1_555
C34 C33 1_555 1_555
H34 C34 1_555 1_555
H35 C34 1_555 1_555
H36 C34 1_555 1_555
H37 N4 1_555 1_555
H38 N2 1_555 1_555
Cl1A Mn1 1_555 1_555
N1A Mn1 1_555 1_555
N2A C9A 1_555 1_555
O1A Mn1 1_555 1_555
O2A C3A 1_555 1_555
C1A C2A 1_555 1_555
C2A O1A 1_555 1_555
C3A C2A 1_555 1_555
C4A C3A 1_555 1_555
H1A C4A 1_555 1_555
C5A C4A 1_555 1_555
H2A C5A 1_555 1_555
C6A C1A 1_555 1_555
H3A C6A 1_555 1_555
C7A N1A 1_555 1_555
H4A C7A 1_555 1_555
C8A N1A 1_555 1_555
H5A C8A 1_555 1_555
H6A C8A 1_555 1_555
C9A C8A 1_555 1_555
H7A C9A 1_555 1_555
H8A C9A 1_555 1_555
C10A N2A 1_555 1_555
C11A C10A 1_555 1_555
H9A C11A 1_555 1_555
C12A C11A 1_555 1_555
H10A C12A 1_555 1_555
C13A C12A 1_555 1_555
H11A C13A 1_555 1_555
C14A C13A 1_555 1_555
H12A C14A 1_555 1_555
C15A C10A 1_555 1_555
H13A C15A 1_555 1_555
C16A O2A 1_555 1_555
H14A C16A 1_555 1_555
H15A C16A 1_555 1_555
C17A C16A 1_555 1_555
H16A C17A 1_555 1_555
H17A C17A 1_555 1_555
H18A C17A 1_555 1_555
H38A N2A 1_555 1_555
N3A Mn2 1_555 1_555
N4A C26A 1_555 1_555
O3A Mn2 1_555 1_555
O4A C20A 1_555 1_555
C18A C19A 1_555 1_555
C19A O3A 1_555 1_555
C20A C19A 1_555 1_555
C21A C20A 1_555 1_555
H19A C21A 1_555 1_555
C22A C21A 1_555 1_555
H20A C22A 1_555 1_555
C23A C18A 1_555 1_555
H21A C23A 1_555 1_555
C24A N3A 1_555 1_555
H22A C24A 1_555 1_555
C25A N3A 1_555 1_555
H23A C25A 1_555 1_555
H24A C25A 1_555 1_555
C26A C25A 1_555 1_555
H25A C26A 1_555 1_555
H26A C26A 1_555 1_555
C27A N4A 1_555 1_555
C28A C27A 1_555 1_555
H27A C28A 1_555 1_555
C29A C28A 1_555 1_555
H28A C29A 1_555 1_555
C30A C29A 1_555 1_555
H29A C30A 1_555 1_555
C31A C30A 1_555 1_555
H30A C31A 1_555 1_555
C32A C27A 1_555 1_555
H31A C32A 1_555 1_555
C33A O4A 1_555 1_555
H32A C33A 1_555 1_555
H33A C33A 1_555 1_555
C34A C33A 1_555 1_555
H34A C34A 1_555 1_555
H35A C34A 1_555 1_555
H36A C34A 1_555 1_555
H37A N4A 1_555 1_555
Mn2_2 Cl1A 1_555 1_555
Cl1A_2 Mn2 1_555 1_555
C1 C7 1_555 1_555
C5 C6 1_555 1_555
C14 C15 1_555 1_555
C18 C24 1_555 1_555
C22 C23 1_555 1_555
C31 C32 1_555 1_555
C1A C7A 1_555 1_555
C5A C6A 1_555 1_555
C14A C15A 1_555 1_555
C18A C24A 1_555 1_555
C22A C23A 1_555 1_555
C31A C32A 1_555 1_555

#END
