
#######################################################################
#
#                 Cambridge Crystallographic Data Centre
#                                CCDC 
#
#######################################################################
#
# If this CIF has been generated from an entry in the Cambridge 
# Structural Database, then it will include bibliographic, chemical, 
# crystal, experimental, refinement or atomic coordinate data resulting 
# from the CCDC's data processing and validation procedures.
#
#######################################################################

data_CIJVOH
_symmetry_cell_setting           orthorhombic
_symmetry_space_group_name_H-M   'P 21 21 21'
_symmetry_Int_Tables_number      19
_space_group_name_Hall           'P 2ac 2ab'
loop_
_symmetry_equiv_pos_site_id
_symmetry_equiv_pos_as_xyz
1 x,y,z
2 1/2-x,-y,1/2+z
3 -x,1/2+y,1/2-z
4 1/2+x,1/2-y,-z
_cell_length_a                   8.365(2)
_cell_length_b                   9.795(3)
_cell_length_c                   20.946(5)
_cell_angle_alpha                90
_cell_angle_beta                 90
_cell_angle_gamma                90
_cell_volume                     1716.21
loop_
_atom_site_label
_atom_site_type_symbol
_atom_site_fract_x
_atom_site_fract_y
_atom_site_fract_z
Cd1 Cd 0.49232(3) 0.39662(2) 0.283235(11)
Cd2 Cd 0.69169(3) 0.34058(3) 0.021338(12)
S1 S 0.12883(12) 0.23991(9) 0.29275(4)
O1 O 0.2295(3) 0.3585(3) 0.31206(11)
O2 O 0.1799(3) 0.1176(2) 0.32822(11)
O3 O 0.1502(3) 0.2173(3) 0.22337(12)
O4 O -0.0395(3) 0.2702(3) 0.30747(12)
O5 O 0.5064(4) 0.5054(2) 0.38162(11)
H1 H 0.4647 0.5831 0.3849
H2 H 0.5986 0.5081 0.3974
O6 O 0.6850(3) 0.4693(2) -0.07107(11)
H3 H 0.6681 0.5335 -0.0453
H4 H 0.6010 0.4237 -0.0765
O7 O 0.7323(3) 0.3889(3) 0.23077(11)
H5 H 0.7568 0.4621 0.2123
H6 H 0.8108 0.3580 0.2511
O8 O 0.8869(3) 0.4853(3) 0.05544(12)
H7 H 0.8653 0.5282 0.0891
H8 H 0.9807 0.4550 0.0574
O9 O 0.6872(4) 0.2306(2) 0.11741(11)
H9 H 0.7656 0.1854 0.1308
H10 H 0.6613 0.2886 0.1451
O13 O 0.4186(3) 0.3024(2) 0.01646(12)
O14 O 0.1721(3) 0.3564(3) 0.04455(12)
O15 O 0.5477(3) 0.5176(3) 0.07391(11)
H17 H 0.5752 0.5999 0.0759
O16 O 0.3843(3) 0.3733(2) 0.17781(11)
H18 H 0.3057 0.3219 0.1844
O17 O 0.4003(3) 0.7333(3) 0.15598(12)
O18 O 0.4551(3) 0.6092(3) 0.24208(11)
C1 C 0.3216(5) 0.3797(4) 0.04449(15)
C2 C 0.3786(4) 0.5076(4) 0.07983(16)
H19 H 0.3279 0.5900 0.0603
C3 C 0.3303(4) 0.4985(3) 0.15081(16)
H20 H 0.2112 0.5025 0.1540
C4 C 0.4011(4) 0.6210(3) 0.18596(17)
Cd1B Cd 0.50768(3) 0.89662(2) 0.216765(11)
Cd2C Cd 0.19169(3) 0.15942(3) -0.021338(12)
O13C O 0.9186(3) 0.1976(2) -0.01646(12)
O14C O 0.6721(3) 0.1436(3) -0.04455(12)
O17B O 0.5997(3) 0.2333(3) 0.34402(12)
O10 O 0.3350(4) 0.2881(3) 0.45161(12)
H11 H 0.3783 0.2787 0.4875
H12 H 0.3867 0.3448 0.4297
O11 O -0.0164(4) 0.3001(2) 0.43988(12)
H13 H 0.0757 0.2711 0.4484
H14 H -0.0472 0.2702 0.4044
O12 O -0.0594(3) 0.0894(3) 0.15001(11)
H15 H -0.0058 0.1329 0.1771
H16 H -0.0908 0.0152 0.1657
loop_
_geom_bond_atom_site_label_1
_geom_bond_atom_site_label_2
_geom_bond_site_symmetry_1
_geom_bond_site_symmetry_2
Cd1 O1 1_555 1_555
Cd2 O6 1_555 1_555
S1 O1 1_555 1_555
O2 S1 1_555 1_555
O3 S1 1_555 1_555
O4 S1 1_555 1_555
O5 Cd1 1_555 1_555
H1 O5 1_555 1_555
H2 O5 1_555 1_555
O6 H3 1_555 1_555
H4 O6 1_555 1_555
O7 Cd1 1_555 1_555
H5 O7 1_555 1_555
H6 O7 1_555 1_555
O8 Cd2 1_555 1_555
H7 O8 1_555 1_555
H8 O8 1_555 1_555
O9 Cd2 1_555 1_555
H9 O9 1_555 1_555
H10 O9 1_555 1_555
O10 H11 1_555 1_555
H12 O10 1_555 1_555
O11 H13 1_555 1_555
H14 O11 1_555 1_555
O12 H15 1_555 1_555
H16 O12 1_555 1_555
O13 Cd2 1_555 1_555
O14 C1 1_555 1_555
O15 Cd2 1_555 1_555
H17 O15 1_555 1_555
O16 Cd1 1_555 1_555
H18 O16 1_555 1_555
O17 C4 1_555 1_555
O18 Cd1 1_555 1_555
C1 O13 1_555 1_555
C2 O15 1_555 1_555
H19 C2 1_555 1_555
C3 O16 1_555 1_555
H20 C3 1_555 1_555
C4 O18 1_555 1_555
Cd1B O17 1_555 1_555
Cd2C O13 1_555 1_555
O13C Cd2 1_555 1_555
O14C Cd2 1_555 1_555
O17B Cd1 1_555 1_555
O14 Cd2C 1_555 1_555
C1 C2 1_555 1_555
C2 C3 1_555 1_555
C3 C4 1_555 1_555

#END
