
#######################################################################
#
#                 Cambridge Crystallographic Data Centre
#                                CCDC 
#
#######################################################################
#
# If this CIF has been generated from an entry in the Cambridge 
# Structural Database, then it will include bibliographic, chemical, 
# crystal, experimental, refinement or atomic coordinate data resulting 
# from the CCDC's data processing and validation procedures.
#
#######################################################################

data_CIJWEY
_symmetry_cell_setting           monoclinic
_symmetry_space_group_name_H-M   'P 21/c'
_symmetry_Int_Tables_number      14
_space_group_name_Hall           '-P 2ybc'
loop_
_symmetry_equiv_pos_site_id
_symmetry_equiv_pos_as_xyz
1 x,y,z
2 -x,1/2+y,1/2-z
3 -x,-y,-z
4 x,1/2-y,1/2+z
_cell_length_a                   7.8862(12)
_cell_length_b                   20.501(5)
_cell_length_c                   7.7119(13)
_cell_angle_alpha                90
_cell_angle_beta                 102.633(16)
_cell_angle_gamma                90
_cell_volume                     1216.64
loop_
_atom_site_label
_atom_site_type_symbol
_atom_site_fract_x
_atom_site_fract_y
_atom_site_fract_z
Zn1 Zn 0.22101(4) 0.467979(15) 0.28529(4)
O1 O 0.0652(3) 0.39115(10) 0.2286(3)
O2 O -0.1723(3) 0.40738(11) 0.3381(4)
O3 O -0.0487(3) 0.05413(10) 0.2672(3)
O4 O -0.3295(3) 0.07002(9) 0.1823(3)
O5 O 0.2112(3) 0.32597(11) 0.5516(3)
O6 O 0.3313(4) 0.24550(15) 0.4486(5)
O7 O 0.2489(3) 0.47581(10) 0.0228(3)
H1 H 0.1476 0.4708 -0.0428
H2 H 0.3275 0.4513 -0.0016
O8 O 0.2161(3) 0.47102(9) 0.5550(3)
H3 H 0.2056 0.5100 0.5900
H4 H 0.1522 0.4428 0.5903
O9 O 0.4523(3) 0.41850(11) 0.3481(3)
H5 H 0.5102 0.4196 0.4553
H6 H 0.5115 0.4139 0.2692
N1 N 0.2041(4) 0.27768(13) 0.4582(4)
C1 C -0.0659(4) 0.37277(13) 0.2858(4)
C2 C -0.0942(4) 0.29950(13) 0.2839(4)
C3 C 0.0347(4) 0.25498(13) 0.3568(4)
C4 C 0.0096(4) 0.18809(13) 0.3430(4)
H7 H 0.0987 0.1597 0.3932
C5 C -0.1496(4) 0.16416(13) 0.2534(4)
C6 C -0.2820(4) 0.20755(13) 0.1810(4)
H8 H -0.3897 0.1917 0.1220
C7 C -0.2542(4) 0.27463(14) 0.1966(4)
H9 H -0.3437 0.3031 0.1480
C8 C -0.1777(4) 0.09209(13) 0.2331(4)
Zn1A Zn -0.22101(4) -0.032021(15) 0.21471(4)
O3A O 0.0487(3) 0.55413(10) 0.2328(3)
O4A O 0.3295(3) 0.57002(9) 0.3177(3)
O10 O 0.4654(9) 0.1118(4) 0.4247(10)
H10 H 0.5747 0.1067 0.4381
H11 H 0.4192 0.1426 0.3569
O11? O 0.520(3) 0.0882(11) 0.484(2)
H12? H 0.4983 0.0969 0.3728
H13? H 0.6271 0.0841 0.5343
loop_
_geom_bond_atom_site_label_1
_geom_bond_atom_site_label_2
_geom_bond_site_symmetry_1
_geom_bond_site_symmetry_2
Zn1 O1 1_555 1_555
O1 C1 1_555 1_555
O2 C1 1_555 1_555
O3 C8 1_555 1_555
O4 C8 1_555 1_555
O5 N1 1_555 1_555
O6 N1 1_555 1_555
O7 Zn1 1_555 1_555
H1 O7 1_555 1_555
H2 O7 1_555 1_555
O8 Zn1 1_555 1_555
H3 O8 1_555 1_555
H4 O8 1_555 1_555
O9 Zn1 1_555 1_555
H5 O9 1_555 1_555
H6 O9 1_555 1_555
N1 C3 1_555 1_555
C1 C2 1_555 1_555
C2 C3 1_555 1_555
C3 C4 1_555 1_555
C4 H7 1_555 1_555
C5 C4 1_555 1_555
C6 C5 1_555 1_555
H8 C6 1_555 1_555
C7 C2 1_555 1_555
H9 C7 1_555 1_555
C8 C5 1_555 1_555
O10 H10 1_555 1_555
H11 O10 1_555 1_555
Zn1A O3 1_555 1_555
O3A Zn1 1_555 1_555
O4A Zn1 1_555 1_555
O4 Zn1A 1_555 1_555
C6 C7 1_555 1_555

#END
