
#######################################################################
#
#                 Cambridge Crystallographic Data Centre
#                                CCDC 
#
#######################################################################
#
# If this CIF has been generated from an entry in the Cambridge 
# Structural Database, then it will include bibliographic, chemical, 
# crystal, experimental, refinement or atomic coordinate data resulting 
# from the CCDC's data processing and validation procedures.
#
#######################################################################

data_CIJWID
_symmetry_cell_setting           orthorhombic
_symmetry_space_group_name_H-M   'P 21 21 21'
_symmetry_Int_Tables_number      19
_space_group_name_Hall           'P 2ac 2ab'
loop_
_symmetry_equiv_pos_site_id
_symmetry_equiv_pos_as_xyz
1 x,y,z
2 1/2-x,-y,1/2+z
3 1/2+x,1/2-y,-z
4 -x,1/2+y,1/2-z
_cell_length_a                   7.859(5)
_cell_length_b                   12.947(5)
_cell_length_c                   13.145(5)
_cell_angle_alpha                90
_cell_angle_beta                 90
_cell_angle_gamma                90
_cell_volume                     1337.51
loop_
_atom_site_label
_atom_site_type_symbol
_atom_site_fract_x
_atom_site_fract_y
_atom_site_fract_z
Zn1 Zn 0.97121(4) 0.08207(3) 0.21324(2)
O1 O 0.6870(3) 0.03066(17) 0.68187(15)
O2 O 0.5071(3) 0.06184(18) 0.55693(14)
N1 N 1.2053(3) 0.0331(2) 0.24837(18)
O3 O 0.8589(3) 0.16227(19) 0.31948(15)
O4 O 0.9158(3) 0.06467(17) 0.45469(18)
N2 N 1.4736(4) -0.0050(2) 0.22706(19)
H1 H 1.5668 -0.0232 0.1979
N3 N 1.0004(3) 0.1976(2) 0.11343(16)
C1 C 0.7421(4) 0.2139(2) 0.4756(2)
H2 H 0.6285 0.2177 0.4470
H3 H 0.7926 0.2820 0.4703
N4 N 1.0385(4) 0.3556(2) 0.0586(2)
H4 H 1.0426 0.4220 0.0577
C2 C 0.6326(3) 0.0859(3) 0.6064(2)
C3 C 0.7282(4) 0.1852(2) 0.5877(2)
H5 H 0.8419 0.1787 0.6157
H6 H 0.6713 0.2408 0.6236
C4 C 0.8457(4) 0.1397(3) 0.4134(2)
C5 C 1.4544(5) 0.0212(3) 0.3259(2)
H7 H 1.5392 0.0230 0.3753
C6 C 1.3210(4) 0.0025(3) 0.1829(2)
H8 H 1.2995 -0.0120 0.1148
C7 C 1.2901(4) 0.0440(2) 0.3390(2)
H9 H 1.2408 0.0642 0.4001
C8 C 0.9933(5) 0.2968(3) 0.1367(2)
H10 H 0.9607 0.3222 0.1999
C9 C 1.0770(6) 0.2912(3) -0.0195(3)
H11 H 1.1118 0.3107 -0.0843
C10 C 1.0558(5) 0.1955(3) 0.0136(2)
H12 H 1.0752 0.1360 -0.0244
Zn1A Zn 0.52879(4) -0.08207(3) 0.71324(2)
O1A O 0.8130(3) -0.03066(17) 0.18187(15)
loop_
_geom_bond_atom_site_label_1
_geom_bond_atom_site_label_2
_geom_bond_site_symmetry_1
_geom_bond_site_symmetry_2
Zn1 N1 1_555 1_555
O1 C2 1_555 1_555
O2 C2 1_555 1_555
N1 C6 1_555 1_555
O3 Zn1 1_555 1_555
O4 C4 1_555 1_555
N2 H1 1_555 1_555
N3 Zn1 1_555 1_555
C1 H2 1_555 1_555
H3 C1 1_555 1_555
N4 H4 1_555 1_555
C2 C3 1_555 1_555
C3 C1 1_555 1_555
H5 C3 1_555 1_555
H6 C3 1_555 1_555
C4 O3 1_555 1_555
C5 N2 1_555 1_555
H7 C5 1_555 1_555
C6 N2 1_555 1_555
H8 C6 1_555 1_555
C7 N1 1_555 1_555
H9 C7 1_555 1_555
C8 N3 1_555 1_555
H10 C8 1_555 1_555
C9 N4 1_555 1_555
H11 C9 1_555 1_555
C10 N3 1_555 1_555
H12 C10 1_555 1_555
Zn1A O1 1_555 1_555
O1A Zn1 1_555 1_555
C1 C4 1_555 1_555
N4 C8 1_555 1_555
C5 C7 1_555 1_555
C9 C10 1_555 1_555

#END
