
#######################################################################
#
#                 Cambridge Crystallographic Data Centre
#                                CCDC 
#
#######################################################################
#
# If this CIF has been generated from an entry in the Cambridge 
# Structural Database, then it will include bibliographic, chemical, 
# crystal, experimental, refinement or atomic coordinate data resulting 
# from the CCDC's data processing and validation procedures.
#
#######################################################################

data_CIJXAW
_symmetry_cell_setting           triclinic
_symmetry_space_group_name_H-M   'P -1'
_symmetry_Int_Tables_number      2
_space_group_name_Hall           '-P 1'
loop_
_symmetry_equiv_pos_site_id
_symmetry_equiv_pos_as_xyz
1 x,y,z
2 -x,-y,-z
_cell_length_a                   9.4294(18)
_cell_length_b                   9.5625(18)
_cell_length_c                   11.708(2)
_cell_angle_alpha                96.747(3)
_cell_angle_beta                 96.540(3)
_cell_angle_gamma                118.420(2)
_cell_volume                     904.439
loop_
_atom_site_label
_atom_site_type_symbol
_atom_site_fract_x
_atom_site_fract_y
_atom_site_fract_z
Cd1 Cd 1.0000 1.0000 0.5000
Br1 Br 1.06536(4) 1.32460(4) -0.10270(3)
Br2 Br 1.20330(4) 1.35324(4) 0.17803(3)
C1 C 1.0836(3) 1.1489(3) 0.0751(2)
C2 C 0.6312(4) 0.1944(4) -0.1018(3)
H1 H 0.7088 0.1667 -0.0734
C3 C 0.5873(4) 0.2538(4) 0.1054(3)
H2 H 0.4850 0.1798 0.1268
H3 H 0.6181 0.3625 0.1438
O1 O 1.2500(3) 1.0554(3) 0.28631(17)
C4 C 1.0547(3) 1.0109(3) 0.1191(2)
C5 C 0.7614(5) 0.6040(4) 0.4528(3)
H4 H 0.6918 0.6317 0.4874
O2 O 0.7305(3) 0.9467(3) 0.48204(18)
H5 H 0.6660 0.8662 0.4225
H6 H 0.6913 0.9189 0.5459
O3 O 0.9976(3) 1.0045(3) 0.30743(15)
C6 C 1.1082(4) 1.0246(3) 0.2505(2)
C7 C 1.0283(3) 1.1373(3) -0.0426(2)
N1 N 0.9148(3) 0.7224(3) 0.4552(2)
C8 C 0.7007(5) 0.4440(4) 0.4023(4)
H7 H 0.5928 0.3673 0.4029
C9 C 0.5554(4) 0.2438(4) -0.0248(3)
C10 C 0.8001(5) 0.3974(4) 0.3507(3)
C11 C 0.5920(4) 0.1861(4) -0.2202(3)
H8 H 0.6464 0.1536 -0.2691
C12 C 0.7399(5) 0.2290(4) 0.2867(3)
H9 H 0.6355 0.1566 0.3063
H10 H 0.8175 0.1944 0.3124
C13 C 0.9594(4) 0.5189(4) 0.3565(3)
H11 H 1.0327 0.4938 0.3251
C14 C 1.0108(4) 0.6757(4) 0.4078(3)
H12 H 1.1189 0.7540 0.4095
N2 N 0.4830(4) 0.2209(4) -0.2692(2)
C15 C 0.4438(4) 0.2839(4) -0.0759(3)
H13 H 0.3910 0.3214 -0.0289
C16 C 0.7180(4) 0.2159(4) 0.1537(3)
H14 H 0.8216 0.2904 0.1343
H15 H 0.6883 0.1069 0.1168
C17 C 0.4099(4) 0.2693(5) -0.1950(3)
H16 H 0.3315 0.2945 -0.2261
Br1A Br 0.93464(4) 0.67540(4) 0.10270(3)
Br2A Br 0.79670(4) 0.64676(4) -0.17803(3)
C1A C 0.9164(3) 0.8511(3) -0.0751(2)
O1A O 0.7500(3) 0.9446(3) -0.28631(17)
C4A C 0.9453(3) 0.9891(3) -0.1191(2)
O3A O 1.0024(3) 0.9955(3) -0.30743(15)
C6A C 0.8918(4) 0.9754(3) -0.2505(2)
C7A C 0.9717(3) 0.8627(3) 0.0426(2)
C2A C 1.3688(4) 1.8056(4) 1.1018(3)
H1A H 1.2912 1.8333 1.0734
C3A C 1.4127(4) 1.7462(4) 0.8946(3)
H2A H 1.5150 1.8202 0.8732
H3A H 1.3819 1.6375 0.8562
C5A C 1.2386(5) 1.3960(4) 0.5472(3)
H4A H 1.3082 1.3683 0.5126
N1A N 1.0852(3) 1.2776(3) 0.5448(2)
C8A C 1.2993(5) 1.5560(4) 0.5977(4)
H7A H 1.4072 1.6327 0.5971
C9A C 1.4446(4) 1.7562(4) 1.0248(3)
C10A C 1.1999(5) 1.6026(4) 0.6493(3)
C11A C 1.4080(4) 1.8139(4) 1.2202(3)
H8A H 1.3536 1.8464 1.2691
C12A C 1.2601(5) 1.7710(4) 0.7133(3)
H9A H 1.3645 1.8434 0.6937
H10A H 1.1825 1.8056 0.6876
C13A C 1.0406(4) 1.4811(4) 0.6435(3)
H11A H 0.9673 1.5062 0.6749
C14A C 0.9892(4) 1.3243(4) 0.5922(3)
H12A H 0.8811 1.2460 0.5905
N2A N 1.5170(4) 1.7791(4) 1.2692(2)
C15A C 1.5562(4) 1.7161(4) 1.0759(3)
H13A H 1.6090 1.6786 1.0289
C16A C 1.2820(4) 1.7841(4) 0.8463(3)
H14A H 1.1784 1.7096 0.8657
H15A H 1.3117 1.8931 0.8832
C17A C 1.5901(4) 1.7307(5) 1.1950(3)
H16A H 1.6685 1.7055 1.2261
O2A O 1.2695(3) 1.0533(3) 0.51796(18)
H5A H 1.3340 1.1338 0.5775
H6A H 1.3087 1.0811 0.4541
Cd1_2 Cd 1.0000 1.0000 -0.5000
O3A_2 O 1.0024(3) 0.9955(3) 0.69257(15)
loop_
_geom_bond_atom_site_label_1
_geom_bond_atom_site_label_2
_geom_bond_site_symmetry_1
_geom_bond_site_symmetry_2
Cd1 O2 1_555 1_555
Br1 C7 1_555 1_555
Br2 C1 1_555 1_555
C1 C4 1_555 1_555
C2 H1 1_555 1_555
C3 H2 1_555 1_555
H3 C3 1_555 1_555
O1 C6 1_555 1_555
C4 C6 1_555 1_555
C5 H4 1_555 1_555
O2 H5 1_555 1_555
H6 O2 1_555 1_555
O3 Cd1 1_555 1_555
C6 O3 1_555 1_555
C7 C1 1_555 1_555
N1 Cd1 1_555 1_555
C8 C5 1_555 1_555
H7 C8 1_555 1_555
C9 C2 1_555 1_555
C10 C8 1_555 1_555
C11 C2 1_555 1_555
H8 C11 1_555 1_555
C12 C10 1_555 1_555
H9 C12 1_555 1_555
H10 C12 1_555 1_555
C13 C10 1_555 1_555
H11 C13 1_555 1_555
C14 N1 1_555 1_555
H12 C14 1_555 1_555
N2 C11 1_555 1_555
C15 C9 1_555 1_555
H13 C15 1_555 1_555
C16 C3 1_555 1_555
H14 C16 1_555 1_555
H15 C16 1_555 1_555
C17 N2 1_555 1_555
H16 C17 1_555 1_555
Br1A C7A 1_555 1_555
Br2A C1A 1_555 1_555
C1A C4A 1_555 1_555
O1A C6A 1_555 1_555
C4A C7 1_555 1_555
O3A C6A 1_555 1_555
C6A C4A 1_555 1_555
C7A C4 1_555 1_555
C2A H1A 1_555 1_555
C3A H2A 1_555 1_555
H3A C3A 1_555 1_555
C5A H4A 1_555 1_555
N1A Cd1 1_555 1_555
C8A C5A 1_555 1_555
H7A C8A 1_555 1_555
C9A C2A 1_555 1_555
C10A C8A 1_555 1_555
C11A C2A 1_555 1_555
H8A C11A 1_555 1_555
C12A C10A 1_555 1_555
H9A C12A 1_555 1_555
H10A C12A 1_555 1_555
C13A C10A 1_555 1_555
H11A C13A 1_555 1_555
C14A N1A 1_555 1_555
H12A C14A 1_555 1_555
N2A C11A 1_555 1_555
C15A C9A 1_555 1_555
H13A C15A 1_555 1_555
C16A C3A 1_555 1_555
H14A C16A 1_555 1_555
H15A C16A 1_555 1_555
C17A N2A 1_555 1_555
H16A C17A 1_555 1_555
O2A Cd1 1_555 1_555
H5A O2A 1_555 1_555
H6A O2A 1_555 1_555
Cd1_2 O3A 1_555 1_555
O3A_2 Cd1 1_555 1_555
C3 C9 1_555 1_555
C5 N1 1_555 1_555
C12 C16 1_555 1_555
C13 C14 1_555 1_555
C15 C17 1_555 1_555
C1A C7A 1_555 1_555
C3A C9A 1_555 1_555
C5A N1A 1_555 1_555
C12A C16A 1_555 1_555
C13A C14A 1_555 1_555
C15A C17A 1_555 1_555

#END
