
#######################################################################
#
#                 Cambridge Crystallographic Data Centre
#                                CCDC 
#
#######################################################################
#
# If this CIF has been generated from an entry in the Cambridge 
# Structural Database, then it will include bibliographic, chemical, 
# crystal, experimental, refinement or atomic coordinate data resulting 
# from the CCDC's data processing and validation procedures.
#
#######################################################################

data_CIJYOL
_symmetry_cell_setting           orthorhombic
_symmetry_space_group_name_H-M   'P 21 21 21'
_symmetry_Int_Tables_number      19
_space_group_name_Hall           'P 2ac 2ab'
loop_
_symmetry_equiv_pos_site_id
_symmetry_equiv_pos_as_xyz
1 x,y,z
2 1/2-x,-y,1/2+z
3 -x,1/2+y,1/2-z
4 1/2+x,1/2-y,-z
_cell_length_a                   8.2019(4)
_cell_length_b                   12.8079(7)
_cell_length_c                   21.4699(11)
_cell_angle_alpha                90
_cell_angle_beta                 90
_cell_angle_gamma                90
_cell_volume                     2255.39
loop_
_atom_site_label
_atom_site_type_symbol
_atom_site_fract_x
_atom_site_fract_y
_atom_site_fract_z
Cd1 Cd -0.43036(4) -0.22452(2) -0.232271(14)
I1 I -0.34199(4) -0.06650(2) -0.153739(15)
I2 I -0.70717(4) -0.20315(3) -0.30654(2)
C1 C -0.8472(6) -0.9338(4) -0.3792(2)
H1 H -0.7948 -0.9871 -0.3577
C2 C -0.9357(10) -0.8585(6) -0.4714(3)
H2 H -0.9413 -0.8606 -0.5146
C3 C -1.0037(8) -0.7788(4) -0.4434(2)
H3 H -1.0590 -0.7274 -0.4655
C4 C -0.9897(7) -0.7752(4) -0.3820(3)
H4 H -1.0342 -0.7178 -0.3616
C5 C -0.9140(5) -0.8502(3) -0.3459(2)
C6 C -0.9138(6) -0.8431(4) -0.2770(2)
H5 H -0.9900 -0.8940 -0.2605
H6 H -0.9520 -0.7744 -0.2649
C7 C -0.7553(5) -0.8759(3) -0.17903(18)
H7 H -0.6425 -0.8851 -0.1650
C8 C -0.8511(7) -0.9717(3) -0.1585(2)
H8 H -0.9634 -0.9657 -0.1723
H9 H -0.8046 -1.0338 -0.1774
C9 C -0.8459(9) -0.9815(4) -0.0884(2)
H10 H -0.9079 -1.0423 -0.0756
H11 H -0.7340 -0.9912 -0.0750
C10 C -0.9154(9) -0.8856(4) -0.0577(2)
H12 H -0.9096 -0.8932 -0.0128
H13 H -1.0291 -0.8781 -0.0693
C11 C -0.8217(7) -0.7890(3) -0.0775(2)
H14 H -0.7105 -0.7938 -0.0624
H15 H -0.8714 -0.7278 -0.0589
C12 C -0.8202(5) -0.7768(3) -0.14887(18)
H16 H -0.9331 -0.7673 -0.1627
C13 C -0.8177(5) -0.5849(3) -0.1654(2)
H17 H -0.9113 -0.5952 -0.1384
H18 H -0.8581 -0.5667 -0.2064
C14 C -0.7182(5) -0.4959(3) -0.1407(2)
C15 C -0.6905(7) -0.4847(3) -0.0777(2)
H19 H -0.7336 -0.5327 -0.0497
C16 C -0.5986(8) -0.4019(4) -0.0565(2)
H20 H -0.5807 -0.3923 -0.0141
C17 C -0.5344(6) -0.3342(4) -0.0991(2)
H21 H -0.4714 -0.2789 -0.0846
C18 C -0.6474(5) -0.4235(3) -0.1798(2)
H22 H -0.6634 -0.4311 -0.2225
N1 N -0.5569(4) -0.3429(3) -0.16021(17)
N2 N -0.7250(4) -0.6843(2) -0.16961(17)
H23 H -0.645(6) -0.675(4) -0.147(2)
N3 N -0.7514(4) -0.8613(3) -0.24850(16)
H24 H -0.716(5) -0.913(4) -0.2619(19)
N4 N -0.8571(8) -0.9390(5) -0.4421(2)
Cd1B Cd -0.56964(4) -0.72452(2) -0.267729(14)
N2B N -0.2750(4) -0.1843(2) -0.33039(17)
N3B N -0.2486(4) -0.3613(3) -0.25150(16)
loop_
_geom_bond_atom_site_label_1
_geom_bond_atom_site_label_2
_geom_bond_site_symmetry_1
_geom_bond_site_symmetry_2
Cd1 I1 1_555 1_555
I2 Cd1 1_555 1_555
C1 H1 1_555 1_555
C2 H2 1_555 1_555
C3 C2 1_555 1_555
H3 C3 1_555 1_555
C4 C3 1_555 1_555
H4 C4 1_555 1_555
C5 C1 1_555 1_555
C6 C5 1_555 1_555
H5 C6 1_555 1_555
H6 C6 1_555 1_555
C7 H7 1_555 1_555
C8 C7 1_555 1_555
H8 C8 1_555 1_555
H9 C8 1_555 1_555
C9 C8 1_555 1_555
H10 C9 1_555 1_555
H11 C9 1_555 1_555
C10 C9 1_555 1_555
H12 C10 1_555 1_555
H13 C10 1_555 1_555
C11 C10 1_555 1_555
H14 C11 1_555 1_555
H15 C11 1_555 1_555
C12 C7 1_555 1_555
H16 C12 1_555 1_555
C13 H17 1_555 1_555
H18 C13 1_555 1_555
C14 C13 1_555 1_555
C15 C14 1_555 1_555
H19 C15 1_555 1_555
C16 C15 1_555 1_555
H20 C16 1_555 1_555
C17 C16 1_555 1_555
H21 C17 1_555 1_555
C18 C14 1_555 1_555
H22 C18 1_555 1_555
N1 Cd1 1_555 1_555
N2 C12 1_555 1_555
H23 N2 1_555 1_555
N3 C6 1_555 1_555
H24 N3 1_555 1_555
N4 C1 1_555 1_555
Cd1B N2 1_555 1_555
N2B Cd1 1_555 1_555
N3B Cd1 1_555 1_555
C2 N4 1_555 1_555
C4 C5 1_555 1_555
C7 N3 1_555 1_555
C11 C12 1_555 1_555
C13 N2 1_555 1_555
C17 N1 1_555 1_555
C18 N1 1_555 1_555
N3 Cd1B 1_555 1_555

#END
