
#######################################################################
#
#                 Cambridge Crystallographic Data Centre
#                                CCDC 
#
#######################################################################
#
# If this CIF has been generated from an entry in the Cambridge 
# Structural Database, then it will include bibliographic, chemical, 
# crystal, experimental, refinement or atomic coordinate data resulting 
# from the CCDC's data processing and validation procedures.
#
#######################################################################

data_CIKBUV
_symmetry_cell_setting           monoclinic
_symmetry_space_group_name_H-M   'P 21/c'
_symmetry_Int_Tables_number      14
_space_group_name_Hall           '-P 2ybc'
loop_
_symmetry_equiv_pos_site_id
_symmetry_equiv_pos_as_xyz
1 x,y,z
2 -x,1/2+y,1/2-z
3 -x,-y,-z
4 x,1/2-y,1/2+z
_cell_length_a                   8.6606(11)
_cell_length_b                   19.381(2)
_cell_length_c                   16.032(2)
_cell_angle_alpha                90
_cell_angle_beta                 96.955(2)
_cell_angle_gamma                90
_cell_volume                     2671.19
loop_
_atom_site_label
_atom_site_type_symbol
_atom_site_fract_x
_atom_site_fract_y
_atom_site_fract_z
Cu1 Cu -0.08030(6) 0.19572(3) -0.26778(4)
O1 O -0.1595(4) 0.28667(15) -0.2524(2)
O2 O -0.3159(4) 0.15093(18) -0.2271(2)
H1 H -0.3037 0.1082 -0.2396
H2 H -0.3562 0.1707 -0.2522
N1 N 0.0196(5) 0.1955(2) -0.1450(3)
C1 C -0.0903(5) 0.3437(2) -0.2654(3)
O3 O 0.0424(4) 0.34821(16) -0.2852(2)
N2 N 0.2653(6) 0.3066(3) 0.0020(3)
H3 H 0.3202 0.2983 0.0492
C2 C -0.1865(5) 0.4066(2) -0.2552(3)
O4 O 0.0088(4) 0.60193(16) -0.2240(2)
N3 N -0.1645(5) 0.1967(2) -0.3946(2)
C3 C -0.1185(5) 0.4712(2) -0.2438(3)
H4 H -0.0115 0.4759 -0.2430
O5 O -0.2162(4) 0.64958(18) -0.2084(3)
N4 N -0.3820(5) 0.3140(2) -0.5478(3)
H5 H -0.3727 0.3230 -0.5995
C4 C -0.2094(5) 0.5289(2) -0.2334(3)
O6 O -0.6664(4) 0.38923(17) -0.2671(3)
C5 C -0.1379(6) 0.5995(2) -0.2214(3)
O7 O -0.6986(4) 0.50277(19) -0.2621(3)
C6 C -0.3697(5) 0.5219(2) -0.2381(3)
H6 H -0.4305 0.5607 -0.2323
C7 C -0.4409(5) 0.4581(2) -0.2513(3)
O8 O 0.1874(8) 0.3893(3) -0.0895(4)
C8 C -0.6137(5) 0.4532(3) -0.2602(3)
O9 O -0.4936(5) 0.3503(2) -0.4364(3)
C9 C -0.3476(5) 0.4002(2) -0.2588(3)
H7 H -0.3934 0.3569 -0.2663
C10 C 0.1099(6) 0.2482(3) -0.1140(3)
H8 H 0.1319 0.2835 -0.1501
C11 C 0.1707(6) 0.2518(3) -0.0311(3)
C12 C 0.2822(10) 0.3682(4) -0.0283(4)
C13 C 0.3920(10) 0.4160(4) 0.0225(4)
H9 H 0.4234 0.4096 0.0795
H10 H 0.3507 0.4367 0.0584
C14 C 0.4471(9) 0.4752(3) -0.0267(4)
H11 H 0.3574 0.5004 -0.0531
H12 H 0.5026 0.4571 -0.0710
C15 C 0.1368(7) 0.1988(3) 0.0235(4)
H13 H 0.1741 0.2004 0.0804
C16 C 0.0473(7) 0.1445(3) -0.0092(4)
H14 H 0.0248 0.1082 0.0253
C17 C -0.0089(6) 0.1442(3) -0.0927(3)
H15 H -0.0690 0.1070 -0.1141
C18 C -0.2458(6) 0.2506(3) -0.4289(3)
H16 H -0.2658 0.2871 -0.3942
C19 C -0.3014(6) 0.2548(3) -0.5131(3)
C20 C -0.4703(7) 0.3573(3) -0.5095(4)
C21 C -0.5449(8) 0.4151(3) -0.5638(4)
H17 H -0.6439 0.3990 -0.5918
H18 H -0.4790 0.4258 -0.6069
C22 C -0.5720(7) 0.4812(3) -0.5155(4)
H19 H -0.6390 0.5115 -0.5519
H20 H -0.6263 0.4694 -0.4679
C23 C -0.2701(7) 0.2012(3) -0.5646(3)
H21 H -0.3045 0.2023 -0.6219
C24 C -0.1869(8) 0.1463(3) -0.5296(4)
H22 H -0.1644 0.1094 -0.5632
C25 C -0.1363(7) 0.1450(3) -0.4452(3)
H23 H -0.0807 0.1070 -0.4226
N1B N 0.9804(5) 0.8045(2) 0.1450(3)
N2B N 0.7347(6) 0.6934(3) -0.0020(3)
H3B H 0.6798 0.7017 -0.0492
O8B O 0.8126(8) 0.6107(3) 0.0895(4)
C10B C 0.8901(6) 0.7518(3) 0.1140(3)
H8B H 0.8681 0.7165 0.1501
C11B C 0.8293(6) 0.7482(3) 0.0311(3)
C12B C 0.7178(10) 0.6318(4) 0.0283(4)
C13B C 0.6080(10) 0.5840(4) -0.0225(4)
H9B H 0.5766 0.5904 -0.0795
H10B H 0.6493 0.5633 -0.0584
C14B C 0.5529(9) 0.5248(3) 0.0267(4)
H11B H 0.6426 0.4996 0.0531
H12B H 0.4974 0.5429 0.0710
C15B C 0.8632(7) 0.8012(3) -0.0235(4)
H13B H 0.8259 0.7996 -0.0804
C16B C 0.9527(7) 0.8555(3) 0.0092(4)
H14B H 0.9752 0.8918 -0.0253
C17B C 1.0089(6) 0.8558(3) 0.0927(3)
H15B H 1.0690 0.8930 0.1141
N3B N -0.8355(5) 0.8033(2) -0.6054(2)
N4B N -0.6180(5) 0.6860(2) -0.4522(3)
H5B H -0.6273 0.6770 -0.4005
O9B O -0.5064(5) 0.6497(2) -0.5636(3)
C18B C -0.7542(6) 0.7494(3) -0.5711(3)
H16B H -0.7342 0.7129 -0.6058
C19B C -0.6986(6) 0.7452(3) -0.4869(3)
C20B C -0.5297(7) 0.6427(3) -0.4905(4)
C21B C -0.4551(8) 0.5849(3) -0.4362(4)
H17B H -0.3561 0.6010 -0.4082
H18B H -0.5210 0.5742 -0.3931
C22B C -0.4280(7) 0.5188(3) -0.4845(4)
H19B H -0.3610 0.4885 -0.4481
H20B H -0.3737 0.5306 -0.5321
C23B C -0.7299(7) 0.7988(3) -0.4354(3)
H21B H -0.6955 0.7977 -0.3781
C24B C -0.8131(8) 0.8537(3) -0.4704(4)
H22B H -0.8356 0.8906 -0.4368
C25B C -0.8637(7) 0.8550(3) -0.5548(3)
H23B H -0.9193 0.8930 -0.5774
Cu1B Cu -0.91970(6) 0.80428(3) -0.73222(4)
O1B O -0.8405(4) 0.71333(15) -0.7476(2)
O2B O -0.6841(4) 0.84907(18) -0.7729(2)
H1B H -0.6963 0.8918 -0.7604
H2B H -0.6438 0.8293 -0.7478
C1B C -0.9097(5) 0.6563(2) -0.7346(3)
O3B O -1.0424(4) 0.65179(16) -0.7148(2)
C2B C -0.8135(5) 0.5934(2) -0.7448(3)
O4B O -1.0088(4) 0.39807(16) -0.7760(2)
C3B C -0.8815(5) 0.5288(2) -0.7562(3)
H4B H -0.9885 0.5241 -0.7570
O5B O -0.7838(4) 0.35042(18) -0.7916(3)
C4B C -0.7906(5) 0.4711(2) -0.7666(3)
O6B O -0.3336(4) 0.61077(17) -0.7329(3)
C5B C -0.8621(6) 0.4005(2) -0.7786(3)
O7B O -0.3014(4) 0.49723(19) -0.7379(3)
C6B C -0.6303(5) 0.4781(2) -0.7619(3)
H6B H -0.5695 0.4393 -0.7677
C7B C -0.5591(5) 0.5419(2) -0.7487(3)
C8B C -0.3863(5) 0.5468(3) -0.7398(3)
C9B C -0.6524(5) 0.5998(2) -0.7412(3)
H7B H -0.6066 0.6431 -0.7337
Cu1A Cu 0.08030(6) 0.69572(3) -0.23222(4)
Cu1B_2 Cu 1.08030(6) 0.80428(3) 0.26778(4)
Cu1C Cu -1.08030(6) 0.30428(3) -0.76778(4)
N1B_2 N -1.0196(5) 0.8045(2) -0.8550(3)
O4A O -0.0088(4) 0.10193(16) -0.2760(2)
O4C O -0.9912(4) 0.89807(16) -0.7240(2)
O5A O 0.2162(4) 0.14958(18) -0.2916(3)
O5C O -1.2162(4) 0.85042(18) -0.7084(3)
O10 O -0.5452(6) 0.2286(3) -0.3265(4)
H24 H -0.6363 0.2076 -0.2881
H25 H -0.6249 0.1878 -0.2980
loop_
_geom_bond_atom_site_label_1
_geom_bond_atom_site_label_2
_geom_bond_site_symmetry_1
_geom_bond_site_symmetry_2
Cu1 O1 1_555 1_555
O1 C1 1_555 1_555
O2 Cu1 1_555 1_555
H1 O2 1_555 1_555
H2 O2 1_555 1_555
N1 Cu1 1_555 1_555
C1 O3 1_555 1_555
N2 H3 1_555 1_555
C2 C1 1_555 1_555
O4 C5 1_555 1_555
N3 Cu1 1_555 1_555
C3 C2 1_555 1_555
H4 C3 1_555 1_555
O5 C5 1_555 1_555
N4 H5 1_555 1_555
C4 C3 1_555 1_555
O6 C8 1_555 1_555
C5 C4 1_555 1_555
O7 C8 1_555 1_555
C6 C4 1_555 1_555
H6 C6 1_555 1_555
C7 C6 1_555 1_555
O8 C12 1_555 1_555
C8 C7 1_555 1_555
O9 C20 1_555 1_555
C9 C2 1_555 1_555
H7 C9 1_555 1_555
C10 N1 1_555 1_555
H8 C10 1_555 1_555
C11 N2 1_555 1_555
C12 N2 1_555 1_555
C13 C12 1_555 1_555
H9 C13 1_555 1_555
H10 C13 1_555 1_555
C14 C13 1_555 1_555
H11 C14 1_555 1_555
H12 C14 1_555 1_555
C15 C11 1_555 1_555
H13 C15 1_555 1_555
C16 C15 1_555 1_555
H14 C16 1_555 1_555
C17 N1 1_555 1_555
H15 C17 1_555 1_555
C18 N3 1_555 1_555
H16 C18 1_555 1_555
C19 N4 1_555 1_555
C20 N4 1_555 1_555
C21 C20 1_555 1_555
H17 C21 1_555 1_555
H18 C21 1_555 1_555
C22 C21 1_555 1_555
H19 C22 1_555 1_555
H20 C22 1_555 1_555
C23 C19 1_555 1_555
H21 C23 1_555 1_555
C24 C23 1_555 1_555
H22 C24 1_555 1_555
C25 N3 1_555 1_555
H23 C25 1_555 1_555
O10 H24 1_555 1_555
H25 O10 1_555 1_555
N1B C10B 1_555 1_555
N2B H3B 1_555 1_555
O8B C12B 1_555 1_555
C10B H8B 1_555 1_555
C11B N2B 1_555 1_555
C12B N2B 1_555 1_555
C13B C12B 1_555 1_555
H9B C13B 1_555 1_555
H10B C13B 1_555 1_555
C14B C14 1_555 1_555
H11B C14B 1_555 1_555
H12B C14B 1_555 1_555
C15B C11B 1_555 1_555
H13B C15B 1_555 1_555
C16B C15B 1_555 1_555
H14B C16B 1_555 1_555
C17B N1B 1_555 1_555
H15B C17B 1_555 1_555
N3B C18B 1_555 1_555
N4B H5B 1_555 1_555
O9B C20B 1_555 1_555
C18B H16B 1_555 1_555
C19B N4B 1_555 1_555
C20B N4B 1_555 1_555
C21B C20B 1_555 1_555
H17B C21B 1_555 1_555
H18B C21B 1_555 1_555
C22B C22 1_555 1_555
H19B C22B 1_555 1_555
H20B C22B 1_555 1_555
C23B C19B 1_555 1_555
H21B C23B 1_555 1_555
C24B C23B 1_555 1_555
H22B C24B 1_555 1_555
C25B N3B 1_555 1_555
H23B C25B 1_555 1_555
Cu1B N3B 1_555 1_555
O1B Cu1B 1_555 1_555
O2B Cu1B 1_555 1_555
H1B O2B 1_555 1_555
H2B O2B 1_555 1_555
C1B O1B 1_555 1_555
O3B C1B 1_555 1_555
C2B C1B 1_555 1_555
O4B C5B 1_555 1_555
C3B C2B 1_555 1_555
H4B C3B 1_555 1_555
O5B C5B 1_555 1_555
C4B C3B 1_555 1_555
O6B C8B 1_555 1_555
C5B C4B 1_555 1_555
O7B C8B 1_555 1_555
C6B C4B 1_555 1_555
H6B C6B 1_555 1_555
C7B C6B 1_555 1_555
C8B C7B 1_555 1_555
C9B C2B 1_555 1_555
H7B C9B 1_555 1_555
Cu1A O4 1_555 1_555
Cu1B_2 N1B 1_555 1_555
Cu1C O4B 1_555 1_555
N1B_2 Cu1B 1_555 1_555
O4A Cu1 1_555 1_555
O4C Cu1B 1_555 1_555
O5A Cu1 1_555 1_555
O5C Cu1B 1_555 1_555
O5 Cu1A 1_555 1_555
C7 C9 1_555 1_555
C10 C11 1_555 1_555
C16 C17 1_555 1_555
C18 C19 1_555 1_555
C24 C25 1_555 1_555
C10B C11B 1_555 1_555
C13B C14B 1_555 1_555
C16B C17B 1_555 1_555
C18B C19B 1_555 1_555
C21B C22B 1_555 1_555
C24B C25B 1_555 1_555
O5B Cu1C 1_555 1_555
C7B C9B 1_555 1_555

#END
