
#######################################################################
#
#                 Cambridge Crystallographic Data Centre
#                                CCDC 
#
#######################################################################
#
# If this CIF has been generated from an entry in the Cambridge 
# Structural Database, then it will include bibliographic, chemical, 
# crystal, experimental, refinement or atomic coordinate data resulting 
# from the CCDC's data processing and validation procedures.
#
#######################################################################

data_CIKCAC
_symmetry_cell_setting           orthorhombic
_symmetry_space_group_name_H-M   'P 21 21 21'
_symmetry_Int_Tables_number      19
_space_group_name_Hall           'P 2ac 2ab'
loop_
_symmetry_equiv_pos_site_id
_symmetry_equiv_pos_as_xyz
1 x,y,z
2 1/2-x,-y,1/2+z
3 1/2+x,1/2-y,-z
4 -x,1/2+y,1/2-z
_cell_length_a                   7.1939(6)
_cell_length_b                   13.5590(12)
_cell_length_c                   20.6036(18)
_cell_angle_alpha                90
_cell_angle_beta                 90
_cell_angle_gamma                90
_cell_volume                     2009.72
loop_
_atom_site_label
_atom_site_type_symbol
_atom_site_fract_x
_atom_site_fract_y
_atom_site_fract_z
Cu1 Cu 0.27292(4) -0.044877(18) -0.739106(11)
O1 O 0.3099(2) -0.10879(11) -0.82218(6)
O2 O 0.1915(2) 0.03319(12) -0.85610(7)
O3 O 0.2786(2) -0.02954(11) -1.16200(6)
O4 O 0.1618(3) 0.08857(12) -1.09829(8)
O5 O 0.2392(4) -0.38882(11) -0.96569(7)
H1 H 0.2189 -0.4436 -0.9713
O6 O 0.2596(4) -0.37550(12) -1.07310(7)
O7 O -0.0706(3) -0.16327(14) -0.42129(8)
O8 O -0.1587(3) -0.07534(12) -0.55020(8)
N1 N 0.0294(3) -0.12621(14) -0.72898(8)
N2 N -0.0277(3) -0.02616(14) -0.24630(8)
N3 N -0.3406(3) -0.11920(14) -0.37360(8)
H2 H -0.4566 -0.1076 -0.3787
N4 N -0.2561(3) -0.21888(12) -0.59405(7)
H3 H -0.3389 -0.2666 -0.5883
C1 C -0.0855(4) -0.14378(18) -0.77886(10)
H4 H -0.0482 -0.1248 -0.8202
C2 C -0.2559(4) -0.18854(16) -0.77178(10)
H5 H -0.3306 -0.2005 -0.8078
C3 C -0.3143(4) -0.21547(17) -0.71025(11)
H6 H -0.4287 -0.2460 -0.7041
C4 C -0.1991(3) -0.19610(15) -0.65826(9)
C5 C -0.0277(3) -0.15348(17) -0.66953(10)
H7 H 0.0516 -0.1432 -0.6345
C6 C -0.2462(4) -0.15218(15) -0.54508(9)
C7 C -0.3474(4) -0.17928(19) -0.48391(10)
H8 H -0.3710 -0.2497 -0.4837
H9 H -0.4665 -0.1458 -0.4831
C8 C -0.2387(4) -0.15204(15) -0.42388(9)
C9 C -0.2692(4) -0.09669(14) -0.31124(9)
C10 C -0.3730(3) -0.11661(17) -0.25658(11)
H10 H -0.4886 -0.1469 -0.2599
C11 C -0.3014(4) -0.09045(19) -0.19663(11)
H11 H -0.3690 -0.1025 -0.1590
C12 C -0.1298(4) -0.0467(2) -0.19330(10)
H12 H -0.0821 -0.0305 -0.1527
C13 C -0.0990(3) -0.05072(18) -0.30436(10)
H13 H -0.0309 -0.0361 -0.3415
C14 C 0.2274(4) 0.00597(16) -1.10688(9)
C15 C 0.2468(3) -0.06456(14) -1.05035(9)
C16 C 0.2452(4) -0.02792(14) -0.98738(8)
H14 H 0.2374 0.0397 -0.9805
C17 C 0.2552(4) -0.09109(15) -0.93490(8)
C18 C 0.2509(3) -0.05152(16) -0.86700(8)
C19 C 0.2630(4) -0.19246(14) -0.94506(9)
H15 H 0.2697 -0.2353 -0.9099
C20 C 0.2607(4) -0.22969(14) -1.00809(9)
C21 C 0.2548(5) -0.33840(15) -1.02038(9)
C22 C 0.2557(4) -0.16547(15) -1.06037(9)
H16 H 0.2583 -0.1903 -1.1024
Cu1A Cu 0.22708(4) 0.044877(18) -1.239106(11)
Cu1A_2 Cu 0.22708(4) 0.044877(18) -0.239106(11)
O3A O 0.2214(2) 0.02954(11) -0.66200(6)
N2A N 0.5277(3) 0.02616(14) -0.74630(8)
loop_
_geom_bond_atom_site_label_1
_geom_bond_atom_site_label_2
_geom_bond_site_symmetry_1
_geom_bond_site_symmetry_2
Cu1 O1 1_555 1_555
O1 C18 1_555 1_555
O2 Cu1 1_555 1_555
O3 C14 1_555 1_555
O4 C14 1_555 1_555
O5 H1 1_555 1_555
O6 C21 1_555 1_555
O7 C8 1_555 1_555
O8 C6 1_555 1_555
N1 Cu1 1_555 1_555
N2 C12 1_555 1_555
N3 H2 1_555 1_555
N4 H3 1_555 1_555
C1 N1 1_555 1_555
H4 C1 1_555 1_555
C2 C1 1_555 1_555
H5 C2 1_555 1_555
C3 C2 1_555 1_555
H6 C3 1_555 1_555
C4 N4 1_555 1_555
C5 N1 1_555 1_555
H7 C5 1_555 1_555
C6 N4 1_555 1_555
C7 C6 1_555 1_555
H8 C7 1_555 1_555
H9 C7 1_555 1_555
C8 N3 1_555 1_555
C9 N3 1_555 1_555
C10 C9 1_555 1_555
H10 C10 1_555 1_555
C11 C10 1_555 1_555
H11 C11 1_555 1_555
C12 C11 1_555 1_555
H12 C12 1_555 1_555
C13 N2 1_555 1_555
H13 C13 1_555 1_555
C14 C15 1_555 1_555
C15 C16 1_555 1_555
C16 H14 1_555 1_555
C17 C16 1_555 1_555
C18 O2 1_555 1_555
C19 C17 1_555 1_555
H15 C19 1_555 1_555
C20 C19 1_555 1_555
C21 O5 1_555 1_555
C22 C15 1_555 1_555
H16 C22 1_555 1_555
Cu1A O3 1_555 1_555
Cu1A_2 N2 1_555 1_555
O3A Cu1 1_555 1_555
N2A Cu1 1_555 1_555
C3 C4 1_555 1_555
C4 C5 1_555 1_555
C7 C8 1_555 1_555
C9 C13 1_555 1_555
C17 C18 1_555 1_555
C20 C21 1_555 1_555
C20 C22 1_555 1_555

#END
