
#######################################################################
#
#                 Cambridge Crystallographic Data Centre
#                                CCDC 
#
#######################################################################
#
# If this CIF has been generated from an entry in the Cambridge 
# Structural Database, then it will include bibliographic, chemical, 
# crystal, experimental, refinement or atomic coordinate data resulting 
# from the CCDC's data processing and validation procedures.
#
#######################################################################

data_CIKFUZ
_symmetry_cell_setting           triclinic
_symmetry_space_group_name_H-M   'P -1'
_symmetry_Int_Tables_number      2
_space_group_name_Hall           '-P 1'
loop_
_symmetry_equiv_pos_site_id
_symmetry_equiv_pos_as_xyz
1 x,y,z
2 -x,-y,-z
_cell_length_a                   5.6641(11)
_cell_length_b                   9.3790(19)
_cell_length_c                   18.359(4)
_cell_angle_alpha                104.23(3)
_cell_angle_beta                 92.26(3)
_cell_angle_gamma                97.44(3)
_cell_volume                     934.832
loop_
_atom_site_label
_atom_site_type_symbol
_atom_site_fract_x
_atom_site_fract_y
_atom_site_fract_z
C1 C 0.2693(6) 1.0974(4) 0.25351(17)
C2 C 0.4318(6) 1.0856(4) 0.3099(2)
H1 H 0.5892 1.1305 0.3121
C3 C 0.3641(7) 1.0085(5) 0.3627(2)
H2 H 0.4744 1.0031 0.4005
C4 C 0.1321(6) 0.9396(4) 0.35903(18)
C5 C -0.0324(6) 0.9461(4) 0.30174(19)
H3 H -0.1877 0.8971 0.2983
C6 C 0.0371(6) 1.0263(4) 0.24981(19)
H4 H -0.0734 1.0323 0.2122
C7 C 0.3499(6) 1.1919(3) 0.20085(16)
H5 H 0.5008 1.2516 0.2224
H6 H 0.2350 1.2599 0.2002
C8 C 0.0623(7) 0.8591(4) 0.4173(2)
C9 C 0.1861(6) 0.5764(3) 0.25817(16)
C10 C 0.3718(6) 0.5825(4) 0.31119(19)
H7 H 0.5200 0.6361 0.3086
C11 C 0.3379(7) 0.5091(4) 0.36816(19)
H8 H 0.4639 0.5125 0.4029
C12 C 0.1181(6) 0.4314(4) 0.37305(18)
C13 C -0.0690(6) 0.4265(4) 0.32046(19)
H9 H -0.2181 0.3748 0.3238
C14 C -0.0346(6) 0.4979(4) 0.26330(19)
H10 H -0.1603 0.4932 0.2282
C15 C 0.2178(6) 0.6536(3) 0.19541(16)
H11 H 0.3553 0.7305 0.2096
H12 H 0.0789 0.7021 0.1906
C16 C 0.0747(7) 0.3510(4) 0.43266(19)
Gd1 Gd 0.11990(2) 0.805753(13) 0.001030(7)
O1 O 0.4514(4) 0.9436(2) 0.09523(12)
O2 O 0.1468(4) 1.0747(2) 0.05744(12)
O3 O 0.5779(4) 1.2049(3) 0.07913(12)
O4 O 0.2218(6) 0.8618(4) 0.46772(18)
H13 H 0.1643 0.8201 0.4986
O5 O -0.1488(6) 0.7944(4) 0.41419(17)
O6 O 0.2475(4) 0.6255(2) 0.04801(12)
O7 O 0.5244(4) 0.5022(2) 0.11399(13)
H14 H 0.5259 0.4122 0.1027
O8 O 0.0886(4) 0.3918(2) 0.08793(12)
O9 O 0.2451(6) 0.3519(4) 0.47961(17)
H15 H 0.1926 0.3198 0.5144
O10 O -0.1327(6) 0.2853(4) 0.43347(19)
O11 O -0.2004(4) 0.7726(3) 0.07892(14)
H16 H -0.2709 0.6888 0.0819
H17 H -0.3133 0.8250 0.0836
P1 P 0.38839(12) 1.09963(8) 0.10447(4)
P2 P 0.25769(13) 0.53502(8) 0.10512(4)
Gd1A Gd -0.11990(2) 0.194247(13) -0.001030(7)
Gd1A_2 Gd -0.11990(2) 1.194247(13) -0.001030(7)
Gd1A_3 Gd 0.88010(2) 1.194247(13) -0.001030(7)
O2A O -0.1468(4) 0.9253(2) -0.05744(12)
O3A O 0.4221(4) 0.7951(3) -0.07913(12)
O8A O -0.0886(4) 0.6082(2) -0.08793(12)
loop_
_geom_bond_atom_site_label_1
_geom_bond_atom_site_label_2
_geom_bond_site_symmetry_1
_geom_bond_site_symmetry_2
C1 C2 1_555 1_555
C2 H1 1_555 1_555
C3 C2 1_555 1_555
H2 C3 1_555 1_555
C4 C3 1_555 1_555
C5 C4 1_555 1_555
H3 C5 1_555 1_555
C6 C1 1_555 1_555
H4 C6 1_555 1_555
C7 C1 1_555 1_555
H5 C7 1_555 1_555
H6 C7 1_555 1_555
C8 C4 1_555 1_555
C9 C10 1_555 1_555
C10 H7 1_555 1_555
C11 C10 1_555 1_555
H8 C11 1_555 1_555
C12 C11 1_555 1_555
C13 C12 1_555 1_555
H9 C13 1_555 1_555
C14 C9 1_555 1_555
H10 C14 1_555 1_555
C15 C9 1_555 1_555
H11 C15 1_555 1_555
H12 C15 1_555 1_555
C16 C12 1_555 1_555
Gd1 O1 1_555 1_555
O1 P1 1_555 1_555
O2 Gd1 1_555 1_555
O3 P1 1_555 1_555
O4 C8 1_555 1_555
H13 O4 1_555 1_555
O5 C8 1_555 1_555
O6 Gd1 1_555 1_555
O7 H14 1_555 1_555
O8 P2 1_555 1_555
O9 C16 1_555 1_555
H15 O9 1_555 1_555
O10 C16 1_555 1_555
O11 Gd1 1_555 1_555
H16 O11 1_555 1_555
H17 O11 1_555 1_555
P1 C7 1_555 1_555
P2 C15 1_555 1_555
Gd1A O8 1_555 1_555
Gd1A_2 O2 1_555 1_555
Gd1A_3 O3 1_555 1_555
O2A Gd1 1_555 1_555
O3A Gd1 1_555 1_555
O8A Gd1 1_555 1_555
C5 C6 1_555 1_555
C13 C14 1_555 1_555
O2 P1 1_555 1_555
O6 P2 1_555 1_555
O7 P2 1_555 1_555
Gd1A_2 O2A 1_555 1_555

#END
