
#######################################################################
#
#                 Cambridge Crystallographic Data Centre
#                                CCDC 
#
#######################################################################
#
# If this CIF has been generated from an entry in the Cambridge 
# Structural Database, then it will include bibliographic, chemical, 
# crystal, experimental, refinement or atomic coordinate data resulting 
# from the CCDC's data processing and validation procedures.
#
#######################################################################

data_CIKGIO
_symmetry_cell_setting           triclinic
_symmetry_space_group_name_H-M   'P -1'
_symmetry_Int_Tables_number      2
_space_group_name_Hall           '-P 1'
loop_
_symmetry_equiv_pos_site_id
_symmetry_equiv_pos_as_xyz
1 x,y,z
2 -x,-y,-z
_cell_length_a                   5.7280(11)
_cell_length_b                   9.5108(19)
_cell_length_c                   18.379(4)
_cell_angle_alpha                104.68(3)
_cell_angle_beta                 92.60(3)
_cell_angle_gamma                97.38(3)
_cell_volume                     957.367
loop_
_atom_site_label
_atom_site_type_symbol
_atom_site_fract_x
_atom_site_fract_y
_atom_site_fract_z
C1 C 0.2691(4) 1.0983(3) 0.25551(13)
C2 C 0.4298(5) 1.0861(3) 0.31207(15)
H1 H 0.5854 1.1309 0.3151
C3 C 0.3620(5) 1.0083(3) 0.36406(16)
H2 H 0.4717 1.0019 0.4015
C4 C 0.1322(5) 0.9406(3) 0.36027(14)
C5 C -0.0303(5) 0.9496(3) 0.30334(14)
H3 H -0.1850 0.9030 0.2999
C6 C 0.0389(5) 1.0283(3) 0.25160(14)
H4 H -0.0705 1.0340 0.2139
C7 C 0.3494(5) 1.1929(3) 0.20398(13)
H5 H 0.4994 1.2510 0.2261
H6 H 0.2367 1.2609 0.2042
C8 C 0.0618(5) 0.8611(3) 0.41797(14)
C9 C 0.1834(4) 0.5773(3) 0.26143(12)
C10 C 0.3686(5) 0.5823(3) 0.31458(14)
H7 H 0.5157 0.6346 0.3123
C11 C 0.3344(5) 0.5095(3) 0.37103(15)
H8 H 0.4589 0.5133 0.4061
C12 C 0.1166(5) 0.4318(3) 0.37519(13)
C13 C -0.0694(5) 0.4278(3) 0.32258(15)
H9 H -0.2170 0.3767 0.3254
C14 C -0.0354(5) 0.4993(3) 0.26635(14)
H10 H -0.1603 0.4952 0.2314
C15 C 0.2149(5) 0.6545(3) 0.19941(13)
H11 H 0.3494 0.7316 0.2147
H12 H 0.0764 0.7010 0.1940
C16 C 0.0737(5) 0.3507(3) 0.43408(14)
Nd1 Nd 0.124627(19) 0.804643(12) 0.000552(6)
O1 O 0.4600(3) 0.95198(17) 0.09534(9)
O2 O 0.1435(3) 1.07578(17) 0.06060(9)
O3 O 0.5661(3) 1.21128(18) 0.08107(9)
O4 O 0.2202(4) 0.8625(3) 0.46859(13)
H13 H 0.1659 0.8147 0.4969
O5 O -0.1472(4) 0.7965(3) 0.41403(12)
O6 O 0.2549(3) 0.62810(18) 0.05207(9)
O7 O 0.5212(3) 0.50303(19) 0.11793(10)
H14 H 0.5205 0.4138 0.1068
O8 O 0.0891(3) 0.39681(17) 0.08957(9)
O9 O 0.2421(4) 0.3497(3) 0.48059(13)
H15 H 0.1936 0.3051 0.5109
O10 O -0.1315(4) 0.2865(3) 0.43456(13)
O11 O -0.2036(3) 0.7733(2) 0.08108(10)
H16 H -0.2741 0.6894 0.0841
H17 H -0.3165 0.8256 0.0858
P1 P 0.38579(9) 1.10390(6) 0.10648(3)
P2 P 0.25945(10) 0.53742(6) 0.10847(3)
Nd1A Nd -0.124627(19) 0.195357(12) -0.000552(6)
Nd1A_2 Nd -0.124627(19) 1.195357(12) -0.000552(6)
Nd1A_3 Nd 0.875373(19) 1.195357(12) -0.000552(6)
O2A O -0.1435(3) 0.92422(17) -0.06060(9)
O3A O 0.4339(3) 0.78872(18) -0.08107(9)
O8A O -0.0891(3) 0.60319(17) -0.08957(9)
loop_
_geom_bond_atom_site_label_1
_geom_bond_atom_site_label_2
_geom_bond_site_symmetry_1
_geom_bond_site_symmetry_2
C1 C2 1_555 1_555
C2 H1 1_555 1_555
C3 C2 1_555 1_555
H2 C3 1_555 1_555
C4 C3 1_555 1_555
C5 C4 1_555 1_555
H3 C5 1_555 1_555
C6 C1 1_555 1_555
H4 C6 1_555 1_555
C7 C1 1_555 1_555
H5 C7 1_555 1_555
H6 C7 1_555 1_555
C8 C4 1_555 1_555
C9 C10 1_555 1_555
C10 H7 1_555 1_555
C11 C10 1_555 1_555
H8 C11 1_555 1_555
C12 C11 1_555 1_555
C13 C12 1_555 1_555
H9 C13 1_555 1_555
C14 C9 1_555 1_555
H10 C14 1_555 1_555
C15 C9 1_555 1_555
H11 C15 1_555 1_555
H12 C15 1_555 1_555
C16 C12 1_555 1_555
Nd1 O1 1_555 1_555
O1 P1 1_555 1_555
O2 Nd1 1_555 1_555
O3 P1 1_555 1_555
O4 C8 1_555 1_555
H13 O4 1_555 1_555
O5 C8 1_555 1_555
O6 Nd1 1_555 1_555
O7 H14 1_555 1_555
O8 P2 1_555 1_555
O9 C16 1_555 1_555
H15 O9 1_555 1_555
O10 C16 1_555 1_555
O11 Nd1 1_555 1_555
H16 O11 1_555 1_555
H17 O11 1_555 1_555
P1 C7 1_555 1_555
P2 C15 1_555 1_555
Nd1A O8 1_555 1_555
Nd1A_2 O2 1_555 1_555
Nd1A_3 O3 1_555 1_555
O2A Nd1 1_555 1_555
O3A Nd1 1_555 1_555
O8A Nd1 1_555 1_555
C5 C6 1_555 1_555
C13 C14 1_555 1_555
O2 P1 1_555 1_555
O6 P2 1_555 1_555
O7 P2 1_555 1_555
Nd1A_2 O2A 1_555 1_555

#END
