
#######################################################################
#
#                 Cambridge Crystallographic Data Centre
#                                CCDC 
#
#######################################################################
#
# If this CIF has been generated from an entry in the Cambridge 
# Structural Database, then it will include bibliographic, chemical, 
# crystal, experimental, refinement or atomic coordinate data resulting 
# from the CCDC's data processing and validation procedures.
#
#######################################################################

data_CIKGUZ
_symmetry_cell_setting           orthorhombic
_symmetry_space_group_name_H-M   'P b c a'
_symmetry_Int_Tables_number      61
_space_group_name_Hall           '-P 2ac 2ab'
loop_
_symmetry_equiv_pos_site_id
_symmetry_equiv_pos_as_xyz
1 x,y,z
2 1/2-x,-y,1/2+z
3 1/2+x,1/2-y,-z
4 -x,1/2+y,1/2-z
5 -x,-y,-z
6 1/2+x,y,1/2-z
7 1/2-x,1/2+y,z
8 x,1/2-y,1/2+z
_cell_length_a                   20.568(4)
_cell_length_b                   14.568(3)
_cell_length_c                   22.929(5)
_cell_angle_alpha                90
_cell_angle_beta                 90
_cell_angle_gamma                90
_cell_volume                     6870.32
loop_
_atom_site_label
_atom_site_type_symbol
_atom_site_fract_x
_atom_site_fract_y
_atom_site_fract_z
Co1 Co 0.894693(13) 0.01963(2) 0.639897(12)
Si1 Si 1.0000 0.0000 0.5000
C1 C 0.8280(11) 0.0537(10) 0.7608(10)
S1 S 0.8100(2) 0.0760(4) 0.82880(14)
F1 F 0.96138(8) 0.00770(10) 0.56518(6)
F2 F 1.07185(7) 0.00320(13) 0.53345(7)
F3 F 1.00069(8) 0.11466(9) 0.49361(7)
N1 N 0.96655(10) 0.11211(13) 0.67280(9)
N2 N 1.02825(11) 0.0819(2) 0.68120(13)
H1 H 1.04585(11) 0.0342(2) 0.66188(13)
N3 N 1.05020(10) 0.40237(13) 0.83098(8)
N4 N 1.04106(10) 0.33390(13) 0.87102(9)
H2 H 1.04326(10) 0.34220(13) 0.90987(9)
N5 N 0.85119(9) 0.12528(12) 0.58917(8)
N6 N 0.88946(9) 0.18457(13) 0.55928(9)
H3 H 0.93121(9) 0.17334(13) 0.54994(9)
N7 N 0.66855(9) 0.42505(12) 0.59731(8)
N8 N 0.67255(9) 0.42631(13) 0.53820(8)
H4 H 0.64841(9) 0.46305(13) 0.51525(8)
N9 N 0.84081(10) 0.03459(14) 0.71401(8)
C3 C 1.06016(14) 0.1313(2) 0.7216(2)
C4 C 1.01835(12) 0.1984(2) 0.74029(11)
C5 C 0.96035(12) 0.1844(2) 0.70870(11)
C6 C 0.90057(14) 0.2407(2) 0.7115(2)
H5 H 0.86730(14) 0.2150(2) 0.6871(2)
H6 H 0.91080(14) 0.3021(2) 0.6994(2)
H7 H 0.88627(14) 0.2434(2) 0.7513(2)
C7 C 1.1287(2) 0.1096(4) 0.7393(3)
H8 H 1.1367(2) 0.0447(4) 0.7384(3)
H9 H 1.1355(2) 0.1343(4) 0.7776(3)
H10 H 1.1573(2) 0.1419(4) 0.7133(3)
C8 C 1.04267(12) 0.3617(2) 0.77909(10)
C9 C 1.02969(12) 0.2674(2) 0.78618(11)
C10 C 1.02842(13) 0.2529(2) 0.84553(11)
C11 C 1.0143(2) 0.1686(2) 0.8799(2)
H11 H 1.0426(2) 0.1197(2) 0.8678(2)
H12 H 0.9697(2) 0.1513(2) 0.8741(2)
H13 H 1.0204(2) 0.1813(2) 0.9206(2)
C12 C 1.0469(2) 0.4136(2) 0.72347(12)
H14 H 1.0365(2) 0.4770(2) 0.73010(12)
H15 H 1.0172(2) 0.3878(2) 0.69560(12)
H16 H 1.0901(2) 0.4084(2) 0.70794(12)
C13 C 0.85788(11) 0.26219(15) 0.54516(11)
C14 C 0.79542(11) 0.25409(15) 0.56712(9)
C15 C 0.79339(11) 0.16679(14) 0.59369(9)
C16 C 0.73706(11) 0.1211(2) 0.62257(12)
H17 H 0.69737(11) 0.1507(2) 0.61107(12)
H18 H 0.74194(11) 0.1247(2) 0.66415(12)
H19 H 0.73571(11) 0.0575(2) 0.61173(12)
C17 C 0.88987(15) 0.3375(2) 0.5119(2)
H20 H 0.93632(15) 0.3332(2) 0.5150(2)
H21 H 0.87469(15) 0.3952(2) 0.5268(2)
H22 H 0.87652(15) 0.3334(2) 0.4718(2)
C18 C 0.71202(11) 0.36267(15) 0.61460(9)
C19 C 0.74381(11) 0.32372(14) 0.56598(9)
C20 C 0.71688(11) 0.3666(2) 0.51786(10)
C21 C 0.72930(15) 0.3567(2) 0.45416(11)
H23 H 0.69107(15) 0.3726(2) 0.43236(11)
H24 H 0.74184(15) 0.2946(2) 0.44582(11)
H25 H 0.76471(15) 0.3961(2) 0.44336(11)
C22 C 0.72347(14) 0.3424(2) 0.67763(10)
H26 H 0.75688(14) 0.2968(2) 0.68168(10)
H27 H 0.68386(14) 0.3208(2) 0.69504(10)
H28 H 0.73614(14) 0.3978(2) 0.69729(10)
Co1D Co 1.105307(13) -0.01963(2) 0.360103(12)
Co1C Co 1.105307(13) 0.51963(2) 0.860103(12)
Co1F Co 0.605307(13) 0.51963(2) 0.639897(12)
Co1C_2 Co 1.105307(13) -0.48037(2) 0.860103(12)
Co1F_2 Co 0.605307(13) -0.48037(2) 0.639897(12)
C1D C 1.1720(11) -0.0537(10) 0.2392(10)
S1D S 1.1900(2) -0.0760(4) 0.17120(14)
F1D F 1.03862(8) -0.00770(10) 0.43482(6)
F2D F 0.92815(7) -0.00320(13) 0.46655(7)
F3D F 0.99931(8) -0.11466(9) 0.50639(7)
N1C N 1.03345(10) -0.38789(13) 0.82720(9)
N1D N 1.03345(10) -0.11211(13) 0.32720(9)
N2C N 0.97175(11) -0.4181(2) 0.81880(13)
H1C H 0.95415(11) -0.4658(2) 0.83812(13)
N3C N 0.94980(10) -0.09763(13) 0.66902(8)
N3G N 1.05020(10) 0.09763(13) 0.33098(8)
N4C N 0.95894(10) -0.16610(13) 0.62898(9)
H2C H 0.95674(10) -0.15780(13) 0.59013(9)
N5F N 0.64881(9) -0.37472(12) 0.58917(8)
N5D N 1.14881(9) -0.12528(12) 0.41083(8)
N6F N 0.61054(9) -0.31543(13) 0.55928(9)
H3F H 0.56879(9) -0.32666(13) 0.54994(9)
N7F N 0.83145(9) -0.07495(12) 0.59731(8)
N7B N 1.16855(9) 0.07495(12) 0.40269(8)
N8F N 0.82745(9) -0.07369(13) 0.53820(8)
H4F H 0.85159(9) -0.03695(13) 0.51525(8)
N9D N 1.15919(10) -0.03459(14) 0.28599(8)
C3C C 0.93984(14) -0.3687(2) 0.7784(2)
C4C C 0.98165(12) -0.3016(2) 0.75971(11)
C5C C 1.03965(12) -0.3156(2) 0.79130(11)
C6C C 1.09943(14) -0.2593(2) 0.7885(2)
H5C H 1.13270(14) -0.2850(2) 0.8129(2)
H6C H 1.08920(14) -0.1979(2) 0.8006(2)
H7C H 1.11373(14) -0.2566(2) 0.7487(2)
C7C C 0.8713(2) -0.3904(4) 0.7607(3)
H8C H 0.8633(2) -0.4553(4) 0.7616(3)
H9C H 0.8645(2) -0.3657(4) 0.7224(3)
H10C H 0.8427(2) -0.3581(4) 0.7867(3)
C8C C 0.95733(12) -0.1383(2) 0.72091(10)
C9C C 0.97031(12) -0.2326(2) 0.71382(11)
C10C C 0.97158(13) -0.2471(2) 0.65447(11)
C11C C 0.9857(2) -0.3314(2) 0.6201(2)
H11C H 0.9574(2) -0.3803(2) 0.6322(2)
H12C H 1.0303(2) -0.3487(2) 0.6259(2)
H13C H 0.9796(2) -0.3187(2) 0.5794(2)
C12C C 0.9531(2) -0.0864(2) 0.77653(12)
H14C H 0.9635(2) -0.0230(2) 0.76990(12)
H15C H 0.9828(2) -0.1122(2) 0.80440(12)
H16C H 0.9099(2) -0.0916(2) 0.79206(12)
C13F C 0.64212(11) -0.23781(15) 0.54516(11)
C14F C 0.70458(11) -0.24591(15) 0.56712(9)
C15F C 0.70661(11) -0.33321(14) 0.59369(9)
C16F C 0.76294(11) -0.3789(2) 0.62257(12)
H17F H 0.80263(11) -0.3493(2) 0.61107(12)
H18F H 0.75806(11) -0.3753(2) 0.66415(12)
H19F H 0.76429(11) -0.4425(2) 0.61173(12)
C17F C 0.61013(15) -0.1625(2) 0.5119(2)
H20F H 0.56368(15) -0.1668(2) 0.5150(2)
H21F H 0.62531(15) -0.1048(2) 0.5268(2)
H22F H 0.62348(15) -0.1666(2) 0.4718(2)
C18F C 0.78798(11) -0.13733(15) 0.61460(9)
C19F C 0.75619(11) -0.17628(14) 0.56598(9)
C20F C 0.78312(11) -0.1334(2) 0.51786(10)
C21F C 0.77070(15) -0.1433(2) 0.45416(11)
H23F H 0.80893(15) -0.1274(2) 0.43236(11)
H24F H 0.75816(15) -0.2054(2) 0.44582(11)
H25F H 0.73529(15) -0.1039(2) 0.44336(11)
C22F C 0.77653(14) -0.1576(2) 0.67763(10)
H26F H 0.74312(14) -0.2032(2) 0.68168(10)
H27F H 0.81614(14) -0.1792(2) 0.69504(10)
H28F H 0.76386(14) -0.1022(2) 0.69729(10)
C24 C 1.1086(2) 0.3802(2) 0.5702(2)
Cl4 Cl 1.1761(2) 0.39242(15) 0.52102(12)
Cl5 Cl 1.0739(3) 0.2729(3) 0.5885(2)
Cl6 Cl 1.0471(3) 0.4616(4) 0.5664(3)
O1 O 0.8964(3) 0.4324(5) 0.8645(2)
C25 C 0.8500(7) 0.3610(10) 0.8676(7)
S2? S 0.7929(5) 0.0318(12) 0.8279(2)
C2? C 0.8205(11) 0.0307(12) 0.7619(11)
C23? C 0.7984(3) 0.3936(5) 0.8623(3)
Cl1? Cl 0.78822(12) 0.3925(2) 0.93774(9)
Cl2? Cl 0.88043(14) 0.3848(3) 0.84417(15)
Cl3? Cl 0.7519(2) 0.3075(2) 0.83001(10)
Cl7? Cl 1.1348(2) 0.3657(5) 0.49729(15)
Cl8? Cl 1.0753(3) 0.2705(3) 0.5655(4)
Cl9? Cl 1.0492(3) 0.4621(5) 0.5541(5)
loop_
_geom_bond_atom_site_label_1
_geom_bond_atom_site_label_2
_geom_bond_site_symmetry_1
_geom_bond_site_symmetry_2
Co1 F1 1_555 1_555
Si1 F1 1_555 1_555
C1 S1 1_555 1_555
F2 Si1 1_555 1_555
F3 Si1 1_555 1_555
N1 Co1 1_555 1_555
N2 N1 1_555 1_555
H1 N2 1_555 1_555
N3 N4 1_555 1_555
N4 H2 1_555 1_555
N5 Co1 1_555 1_555
N6 N5 1_555 1_555
H3 N6 1_555 1_555
N7 N8 1_555 1_555
N8 H4 1_555 1_555
N9 Co1 1_555 1_555
C3 N2 1_555 1_555
C4 C3 1_555 1_555
C5 N1 1_555 1_555
C6 C5 1_555 1_555
H5 C6 1_555 1_555
H6 C6 1_555 1_555
H7 C6 1_555 1_555
C7 C3 1_555 1_555
H8 C7 1_555 1_555
H9 C7 1_555 1_555
H10 C7 1_555 1_555
C8 N3 1_555 1_555
C9 C4 1_555 1_555
C10 N4 1_555 1_555
C11 C10 1_555 1_555
H11 C11 1_555 1_555
H12 C11 1_555 1_555
H13 C11 1_555 1_555
C12 C8 1_555 1_555
H14 C12 1_555 1_555
H15 C12 1_555 1_555
H16 C12 1_555 1_555
C13 N6 1_555 1_555
C14 C13 1_555 1_555
C15 N5 1_555 1_555
C16 C15 1_555 1_555
H17 C16 1_555 1_555
H18 C16 1_555 1_555
H19 C16 1_555 1_555
C17 C13 1_555 1_555
H20 C17 1_555 1_555
H21 C17 1_555 1_555
H22 C17 1_555 1_555
C18 N7 1_555 1_555
C19 C14 1_555 1_555
C20 N8 1_555 1_555
C21 C20 1_555 1_555
H23 C21 1_555 1_555
H24 C21 1_555 1_555
H25 C21 1_555 1_555
C22 C18 1_555 1_555
H26 C22 1_555 1_555
H27 C22 1_555 1_555
H28 C22 1_555 1_555
C24 Cl4 1_555 1_555
Cl5 C24 1_555 1_555
Cl6 C24 1_555 1_555
O1 C25 1_555 1_555
Co1D F1D 1_555 1_555
Co1C N3 1_555 1_555
Co1F N7 1_555 1_555
Co1C_2 N1C 1_555 1_555
Co1F_2 N5F 1_555 1_555
C1D S1D 1_555 1_555
F1D Si1 1_555 1_555
F2D Si1 1_555 1_555
F3D Si1 1_555 1_555
N1C N2C 1_555 1_555
N1D Co1D 1_555 1_555
N2C H1C 1_555 1_555
N3C Co1 1_555 1_555
N3G Co1D 1_555 1_555
N4C N3C 1_555 1_555
H2C N4C 1_555 1_555
N5F N6F 1_555 1_555
N5D Co1D 1_555 1_555
N6F H3F 1_555 1_555
N7F Co1 1_555 1_555
N7B Co1D 1_555 1_555
N8F N7F 1_555 1_555
H4F N8F 1_555 1_555
N9D Co1D 1_555 1_555
C3C N2C 1_555 1_555
C4C C3C 1_555 1_555
C5C N1C 1_555 1_555
C6C C5C 1_555 1_555
H5C C6C 1_555 1_555
H6C C6C 1_555 1_555
H7C C6C 1_555 1_555
C7C C3C 1_555 1_555
H8C C7C 1_555 1_555
H9C C7C 1_555 1_555
H10C C7C 1_555 1_555
C8C N3C 1_555 1_555
C9C C4C 1_555 1_555
C10C N4C 1_555 1_555
C11C C10C 1_555 1_555
H11C C11C 1_555 1_555
H12C C11C 1_555 1_555
H13C C11C 1_555 1_555
C12C C8C 1_555 1_555
H14C C12C 1_555 1_555
H15C C12C 1_555 1_555
H16C C12C 1_555 1_555
C13F N6F 1_555 1_555
C14F C13F 1_555 1_555
C15F N5F 1_555 1_555
C16F C15F 1_555 1_555
H17F C16F 1_555 1_555
H18F C16F 1_555 1_555
H19F C16F 1_555 1_555
C17F C13F 1_555 1_555
H20F C17F 1_555 1_555
H21F C17F 1_555 1_555
H22F C17F 1_555 1_555
C18F N7F 1_555 1_555
C19F C14F 1_555 1_555
C20F N8F 1_555 1_555
C21F C20F 1_555 1_555
H23F C21F 1_555 1_555
H24F C21F 1_555 1_555
H25F C21F 1_555 1_555
C22F C18F 1_555 1_555
H26F C22F 1_555 1_555
H27F C22F 1_555 1_555
H28F C22F 1_555 1_555
C1 N9 1_555 1_555
C4 C5 1_555 1_555
C8 C9 1_555 1_555
C9 C10 1_555 1_555
C14 C15 1_555 1_555
C18 C19 1_555 1_555
C19 C20 1_555 1_555
C1D N9D 1_555 1_555
C4C C5C 1_555 1_555
C8C C9C 1_555 1_555
C9C C10C 1_555 1_555
C14F C15F 1_555 1_555
C18F C19F 1_555 1_555
C19F C20F 1_555 1_555

#END
