
#######################################################################
#
#                 Cambridge Crystallographic Data Centre
#                                CCDC 
#
#######################################################################
#
# If this CIF has been generated from an entry in the Cambridge 
# Structural Database, then it will include bibliographic, chemical, 
# crystal, experimental, refinement or atomic coordinate data resulting 
# from the CCDC's data processing and validation procedures.
#
#######################################################################

data_CIKGOU
_symmetry_cell_setting           triclinic
_symmetry_space_group_name_H-M   'P -1'
_symmetry_Int_Tables_number      2
_space_group_name_Hall           '-P 1'
loop_
_symmetry_equiv_pos_site_id
_symmetry_equiv_pos_as_xyz
1 x,y,z
2 -x,-y,-z
_cell_length_a                   5.7330(11)
_cell_length_b                   9.5336(19)
_cell_length_c                   18.320(4)
_cell_angle_alpha                104.92(3)
_cell_angle_beta                 92.48(3)
_cell_angle_gamma                97.31(3)
_cell_volume                     956.654
loop_
_atom_site_label
_atom_site_type_symbol
_atom_site_fract_x
_atom_site_fract_y
_atom_site_fract_z
C1 C 0.2691(4) 1.0987(2) 0.25620(11)
C2 C 0.4295(4) 1.0860(3) 0.31256(14)
H1 H 0.5849 1.1305 0.3155
C3 C 0.3619(5) 1.0084(3) 0.36445(14)
H2 H 0.4716 1.0014 0.4018
C4 C 0.1318(4) 0.9413(2) 0.36073(12)
C5 C -0.0302(4) 0.9502(3) 0.30356(13)
H3 H -0.1845 0.9033 0.2999
C6 C 0.0390(4) 1.0289(3) 0.25206(13)
H4 H -0.0701 1.0350 0.2143
C7 C 0.3495(4) 1.1927(2) 0.20481(11)
H5 H 0.4996 1.2501 0.2270
H6 H 0.2376 1.2612 0.2055
C8 C 0.0620(5) 0.8612(3) 0.41802(13)
C9 C 0.1825(4) 0.5771(2) 0.26214(11)
C10 C 0.3673(4) 0.5819(3) 0.31525(13)
H7 H 0.5141 0.6342 0.3130
C11 C 0.3339(4) 0.5090(3) 0.37170(13)
H8 H 0.4582 0.5126 0.4068
C12 C 0.1165(4) 0.4315(2) 0.37559(12)
C13 C -0.0694(4) 0.4281(3) 0.32311(14)
H9 H -0.2170 0.3774 0.3260
C14 C -0.0355(4) 0.4996(3) 0.26697(13)
H10 H -0.1602 0.4958 0.2320
C15 C 0.2139(4) 0.6545(2) 0.20032(12)
H11 H 0.3478 0.7317 0.2159
H12 H 0.0752 0.7007 0.1950
C16 C 0.0735(5) 0.3509(3) 0.43438(13)
Pr1 Pr 0.125793(17) 0.804372(10) 0.000399(5)
O1 O 0.4617(3) 0.95482(16) 0.09539(9)
O2 O 0.1423(2) 1.07649(15) 0.06163(8)
O3 O 0.5625(3) 1.21381(16) 0.08168(9)
O4 O 0.2201(4) 0.8624(3) 0.46855(12)
H13 H 0.1619 0.8236 0.4999
O5 O -0.1470(4) 0.7973(2) 0.41423(12)
O6 O 0.2572(3) 0.62947(16) 0.05316(9)
O7 O 0.5207(3) 0.50333(17) 0.11894(10)
H14 H 0.5192 0.4143 0.1089
O8 O 0.0889(3) 0.39861(16) 0.08982(8)
O9 O 0.2420(4) 0.3495(3) 0.48079(12)
H15 H 0.1926 0.3079 0.5122
O10 O -0.1315(4) 0.2866(3) 0.43471(13)
O11 O -0.2047(3) 0.77399(18) 0.08157(10)
H16 H -0.2753 0.6901 0.0845
H17 H -0.3177 0.8264 0.0863
P1 P 0.38506(8) 1.10549(5) 0.10704(3)
P2 P 0.25976(9) 0.53836(5) 0.10935(3)
Pr1A Pr -0.125793(17) 0.195628(10) -0.000399(5)
Pr1A_2 Pr -0.125793(17) 1.195628(10) -0.000399(5)
Pr1A_3 Pr 0.874207(17) 1.195628(10) -0.000399(5)
O2A O -0.1423(2) 0.92351(15) -0.06163(8)
O3A O 0.4375(3) 0.78619(16) -0.08168(9)
O8A O -0.0889(3) 0.60139(16) -0.08982(8)
loop_
_geom_bond_atom_site_label_1
_geom_bond_atom_site_label_2
_geom_bond_site_symmetry_1
_geom_bond_site_symmetry_2
C1 C2 1_555 1_555
C2 H1 1_555 1_555
C3 C2 1_555 1_555
H2 C3 1_555 1_555
C4 C3 1_555 1_555
C5 C4 1_555 1_555
H3 C5 1_555 1_555
C6 C1 1_555 1_555
H4 C6 1_555 1_555
C7 C1 1_555 1_555
H5 C7 1_555 1_555
H6 C7 1_555 1_555
C8 C4 1_555 1_555
C9 C10 1_555 1_555
C10 H7 1_555 1_555
C11 C10 1_555 1_555
H8 C11 1_555 1_555
C12 C11 1_555 1_555
C13 C12 1_555 1_555
H9 C13 1_555 1_555
C14 C9 1_555 1_555
H10 C14 1_555 1_555
C15 C9 1_555 1_555
H11 C15 1_555 1_555
H12 C15 1_555 1_555
C16 C12 1_555 1_555
Pr1 O1 1_555 1_555
O1 P1 1_555 1_555
O2 Pr1 1_555 1_555
O3 P1 1_555 1_555
O4 C8 1_555 1_555
H13 O4 1_555 1_555
O5 C8 1_555 1_555
O6 Pr1 1_555 1_555
O7 H14 1_555 1_555
O8 P2 1_555 1_555
O9 C16 1_555 1_555
H15 O9 1_555 1_555
O10 C16 1_555 1_555
O11 Pr1 1_555 1_555
H16 O11 1_555 1_555
H17 O11 1_555 1_555
P1 C7 1_555 1_555
P2 C15 1_555 1_555
Pr1A O8 1_555 1_555
Pr1A_2 O2 1_555 1_555
Pr1A_3 O3 1_555 1_555
O2A Pr1 1_555 1_555
O3A Pr1 1_555 1_555
O8A Pr1 1_555 1_555
C5 C6 1_555 1_555
C13 C14 1_555 1_555
O2 P1 1_555 1_555
O6 P2 1_555 1_555
O7 P2 1_555 1_555
Pr1A_2 O2A 1_555 1_555

#END
