
#######################################################################
#
#                 Cambridge Crystallographic Data Centre
#                                CCDC 
#
#######################################################################
#
# If this CIF has been generated from an entry in the Cambridge 
# Structural Database, then it will include bibliographic, chemical, 
# crystal, experimental, refinement or atomic coordinate data resulting 
# from the CCDC's data processing and validation procedures.
#
#######################################################################

data_CIKGAG
_symmetry_cell_setting           triclinic
_symmetry_space_group_name_H-M   'P -1'
_symmetry_Int_Tables_number      2
_space_group_name_Hall           '-P 1'
loop_
_symmetry_equiv_pos_site_id
_symmetry_equiv_pos_as_xyz
1 x,y,z
2 -x,-y,-z
_cell_length_a                   5.6768(11)
_cell_length_b                   9.3899(19)
_cell_length_c                   18.342(4)
_cell_angle_alpha                104.31(3)
_cell_angle_beta                 92.64(3)
_cell_angle_gamma                97.22(3)
_cell_volume                     936.835
loop_
_atom_site_label
_atom_site_type_symbol
_atom_site_fract_x
_atom_site_fract_y
_atom_site_fract_z
C1 C 0.2697(5) 1.0972(3) 0.25342(14)
C2 C 0.4308(5) 1.0857(3) 0.31038(17)
H1 H 0.5874 1.1313 0.3133
C3 C 0.3637(6) 1.0081(3) 0.36272(18)
H2 H 0.4748 1.0018 0.4003
C4 C 0.1322(5) 0.9398(3) 0.35944(15)
C5 C -0.0311(5) 0.9478(3) 0.30185(16)
H3 H -0.1865 0.8998 0.2982
C6 C 0.0377(5) 1.0270(3) 0.25003(16)
H4 H -0.0733 1.0332 0.2124
C7 C 0.3494(5) 1.1913(3) 0.20140(14)
H5 H 0.4999 1.2507 0.2233
H6 H 0.2347 1.2594 0.2008
C8 C 0.0617(6) 0.8599(3) 0.41731(16)
C9 C 0.1848(5) 0.5765(3) 0.25878(14)
C10 C 0.3708(5) 0.5821(3) 0.31212(16)
H7 H 0.5188 0.6350 0.3096
C11 C 0.3372(5) 0.5096(3) 0.36898(16)
H8 H 0.4629 0.5135 0.4041
C12 C 0.1175(5) 0.4315(3) 0.37368(15)
C13 C -0.0680(5) 0.4273(3) 0.32095(17)
H9 H -0.2168 0.3758 0.3239
C14 C -0.0341(5) 0.4984(3) 0.26425(16)
H10 H -0.1602 0.4940 0.2292
C15 C 0.2162(5) 0.6535(3) 0.19621(15)
H11 H 0.3526 0.7307 0.2109
H12 H 0.0770 0.7015 0.1909
C16 C 0.0750(6) 0.3515(3) 0.43315(16)
Eu1 Eu 0.12069(2) 0.805466(12) 0.000985(6)
O1 O 0.4523(3) 0.94509(18) 0.09509(10)
O2 O 0.1463(3) 1.07478(18) 0.05782(10)
O3 O 0.5748(3) 1.20532(19) 0.07942(10)
O4 O 0.2223(5) 0.8612(3) 0.46782(15)
H13 H 0.1671 0.8148 0.4971
O5 O -0.1480(4) 0.7954(3) 0.41418(14)
O6 O 0.2487(3) 0.62541(19) 0.04888(10)
O7 O 0.5236(3) 0.5023(2) 0.11475(11)
H14 H 0.5241 0.4123 0.1056
O8 O 0.0891(3) 0.39309(18) 0.08834(10)
O9 O 0.2445(5) 0.3504(3) 0.47968(15)
H15 H 0.1978 0.3004 0.5084
O10 O -0.1317(5) 0.2865(3) 0.43410(15)
O11 O -0.2013(3) 0.7724(2) 0.07939(12)
H16 H -0.2718 0.6886 0.0824
H17 H -0.3142 0.8248 0.0841
P1 P 0.38777(11) 1.10041(6) 0.10483(3)
P2 P 0.25836(11) 0.53548(6) 0.10583(3)
Eu1A Eu -0.12069(2) 0.194534(12) -0.000985(6)
Eu1A_2 Eu -0.12069(2) 1.194534(12) -0.000985(6)
Eu1A_3 Eu 0.87931(2) 1.194534(12) -0.000985(6)
O2A O -0.1463(3) 0.92522(18) -0.05782(10)
O3A O 0.4252(3) 0.79468(19) -0.07942(10)
O8A O -0.0891(3) 0.60691(18) -0.08834(10)
loop_
_geom_bond_atom_site_label_1
_geom_bond_atom_site_label_2
_geom_bond_site_symmetry_1
_geom_bond_site_symmetry_2
C1 C2 1_555 1_555
C2 H1 1_555 1_555
C3 C2 1_555 1_555
H2 C3 1_555 1_555
C4 C3 1_555 1_555
C5 C4 1_555 1_555
H3 C5 1_555 1_555
C6 C1 1_555 1_555
H4 C6 1_555 1_555
C7 C1 1_555 1_555
H5 C7 1_555 1_555
H6 C7 1_555 1_555
C8 C4 1_555 1_555
C9 C10 1_555 1_555
C10 H7 1_555 1_555
C11 C10 1_555 1_555
H8 C11 1_555 1_555
C12 C11 1_555 1_555
C13 C12 1_555 1_555
H9 C13 1_555 1_555
C14 C9 1_555 1_555
H10 C14 1_555 1_555
C15 C9 1_555 1_555
H11 C15 1_555 1_555
H12 C15 1_555 1_555
C16 C12 1_555 1_555
Eu1 O1 1_555 1_555
O1 P1 1_555 1_555
O2 Eu1 1_555 1_555
O3 P1 1_555 1_555
O4 C8 1_555 1_555
H13 O4 1_555 1_555
O5 C8 1_555 1_555
O6 Eu1 1_555 1_555
O7 H14 1_555 1_555
O8 P2 1_555 1_555
O9 C16 1_555 1_555
H15 O9 1_555 1_555
O10 C16 1_555 1_555
O11 Eu1 1_555 1_555
H16 O11 1_555 1_555
H17 O11 1_555 1_555
P1 C7 1_555 1_555
P2 C15 1_555 1_555
Eu1A O8 1_555 1_555
Eu1A_2 O2 1_555 1_555
Eu1A_3 O3 1_555 1_555
O2A Eu1 1_555 1_555
O3A Eu1 1_555 1_555
O8A Eu1 1_555 1_555
C5 C6 1_555 1_555
C13 C14 1_555 1_555
O2 P1 1_555 1_555
O6 P2 1_555 1_555
O7 P2 1_555 1_555
Eu1A_2 O2A 1_555 1_555

#END
