
#######################################################################
#
#                 Cambridge Crystallographic Data Centre
#                                CCDC 
#
#######################################################################
#
# If this CIF has been generated from an entry in the Cambridge 
# Structural Database, then it will include bibliographic, chemical, 
# crystal, experimental, refinement or atomic coordinate data resulting 
# from the CCDC's data processing and validation procedures.
#
#######################################################################

data_CIKGEJ
_symmetry_cell_setting           triclinic
_symmetry_space_group_name_H-M   'P -1'
_symmetry_Int_Tables_number      2
_space_group_name_Hall           '-P 1'
loop_
_symmetry_equiv_pos_site_id
_symmetry_equiv_pos_as_xyz
1 x,y,z
2 -x,-y,-z
_cell_length_a                   9.073(2)
_cell_length_b                   10.074(2)
_cell_length_c                   10.391(2)
_cell_angle_alpha                61.18(3)
_cell_angle_beta                 72.11(3)
_cell_angle_gamma                68.62(3)
_cell_volume                     764.726
loop_
_atom_site_label
_atom_site_type_symbol
_atom_site_fract_x
_atom_site_fract_y
_atom_site_fract_z
Ag1 Ag 0.04254(8) 0.23872(5) 0.48934(5)
N1 N 0.0087(6) 0.4816(5) 0.3443(5)
N2 N 0.0335(7) 0.0089(5) 0.6509(5)
C1 C -0.0304(7) 0.7983(5) 0.1454(5)
C2 C 0.1197(7) 0.6986(6) 0.1771(6)
C3 C 0.1339(8) 0.5429(6) 0.2759(6)
C4 C -0.1597(8) 0.7333(6) 0.2184(6)
C5 C -0.1357(8) 0.5757(6) 0.3165(7)
C6 C -0.1021(8) -0.0339(7) 0.7148(6)
C7 C 0.1694(9) -0.1026(7) 0.6909(7)
C8 C 0.035(1) -0.2990(6) 0.8571(6)
C9 C -0.1055(9) -0.1860(8) 0.8186(7)
C10 C 0.174(1) -0.2535(7) 0.7915(7)
C11 C -0.0567(7) 0.9621(6) 0.0396(6)
C12 C 0.058(1) -0.4632(8) 0.9666(8)
H1 H 0.213 0.738 0.130
H2 H 0.239 0.475 0.296
H3 H -0.266 0.798 0.201
H4 H -0.226 0.532 0.366
H5 H -0.201 0.044 0.688
H6 H 0.268 -0.073 0.645
H7 H -0.206 -0.214 0.864
H8 H 0.275 -0.328 0.816
H9 H -0.171 1.031 0.026
H10 H 0.154 -0.522 0.986
Ag1A Ag -0.04254(8) 1.76128(5) -0.48934(5)
Ag1A_2 Ag -0.04254(8) -1.23872(5) 1.51066(5)
N1A N -0.0087(6) 1.5184(5) -0.3443(5)
N2A N -0.0335(7) -1.0089(5) 1.3491(5)
N2A_2 N -0.0335(7) 1.9911(5) -0.6509(5)
C1A C 0.0304(7) 1.2017(5) -0.1454(5)
C2A C -0.1197(7) 1.3014(6) -0.1771(6)
C3A C -0.1339(8) 1.4571(6) -0.2759(6)
C4A C 0.1597(8) 1.2667(6) -0.2184(6)
C5A C 0.1357(8) 1.4243(6) -0.3165(7)
C6A C 0.1021(8) -0.9661(7) 1.2852(6)
C7A C -0.1694(9) -0.8974(7) 1.3091(7)
C8A C -0.035(1) -0.7010(6) 1.1429(6)
C9A C 0.1055(9) -0.8140(8) 1.1814(7)
C10A C -0.174(1) -0.7465(7) 1.2085(7)
C11A C 0.0567(7) 1.0379(6) -0.0396(6)
C12A C -0.058(1) -0.5368(8) 1.0334(8)
H1A H -0.213 1.262 -0.130
H2A H -0.239 1.525 -0.296
H3A H 0.266 1.202 -0.201
H4A H 0.226 1.468 -0.366
H5A H 0.201 -1.044 1.312
H6A H -0.268 -0.927 1.355
H7A H 0.206 -0.786 1.136
H8A H -0.275 -0.672 1.184
H9A H 0.171 0.969 -0.026
H10A H -0.154 -0.478 1.014
N3 N 0.5256(8) 0.2839(7) 0.5371(7)
O1 O 0.4770(6) 0.3998(5) 0.4096(5)
O2 O 0.5230(6) 0.1506(5) 0.5616(5)
O3 O 0.5643(6) 0.3183(5) 0.6206(5)
O4 O 0.3675(6) 0.1693(5) 0.3612(5)
H11 H 0.418 0.162 0.430
H12 H 0.398 0.082 0.364
O5 O 0.5465(7) 0.1406(7) -0.0720(6)
H13 H 0.538 0.179 -0.171
H14 H 0.460 0.200 -0.002
O6 O 0.4565(7) 0.3584(7) 0.0516(6)
H15 H 0.543 0.300 0.051
H16 H 0.414 0.321 0.163
loop_
_geom_bond_atom_site_label_1
_geom_bond_atom_site_label_2
_geom_bond_site_symmetry_1
_geom_bond_site_symmetry_2
Ag1 N1 1_555 1_555
N1 C3 1_555 1_555
N2 Ag1 1_555 1_555
N3 O1 1_555 1_555
O2 N3 1_555 1_555
O3 N3 1_555 1_555
O4 H11 1_555 1_555
O5 H13 1_555 1_555
O6 H15 1_555 1_555
C1 C2 1_555 1_555
C2 C3 1_555 1_555
C3 H2 1_555 1_555
C4 C1 1_555 1_555
C5 N1 1_555 1_555
C6 N2 1_555 1_555
C7 N2 1_555 1_555
C8 C9 1_555 1_555
C9 C6 1_555 1_555
C10 C7 1_555 1_555
C11 C1 1_555 1_555
C12 C8 1_555 1_555
H1 C2 1_555 1_555
H3 C4 1_555 1_555
H4 C5 1_555 1_555
H5 C6 1_555 1_555
H6 C7 1_555 1_555
H7 C9 1_555 1_555
H8 C10 1_555 1_555
H9 C11 1_555 1_555
H10 C12 1_555 1_555
H12 O4 1_555 1_555
H14 O5 1_555 1_555
H16 O6 1_555 1_555
Ag1A N1A 1_555 1_555
Ag1A_2 N2A 1_555 1_555
N1A C3A 1_555 1_555
N2A C6A 1_555 1_555
N2A_2 Ag1A 1_555 1_555
C1A C2A 1_555 1_555
C2A C3A 1_555 1_555
C3A H2A 1_555 1_555
C4A C1A 1_555 1_555
C5A N1A 1_555 1_555
C6A C9A 1_555 1_555
C7A N2A 1_555 1_555
C8A C9A 1_555 1_555
C9A H7A 1_555 1_555
C10A C7A 1_555 1_555
C11A C11 1_555 1_555
C12A C12 1_555 1_555
H1A C2A 1_555 1_555
H3A C4A 1_555 1_555
H4A C5A 1_555 1_555
H5A C6A 1_555 1_555
H6A C7A 1_555 1_555
H8A C10A 1_555 1_555
H9A C11A 1_555 1_555
H10A C12A 1_555 1_555
C4 C5 1_555 1_555
C8 C10 1_555 1_555
C1A C11A 1_555 1_555
C4A C5A 1_555 1_555
C8A C10A 1_555 1_555
C8A C12A 1_555 1_555

#END
