
#######################################################################
#
#                 Cambridge Crystallographic Data Centre
#                                CCDC 
#
#######################################################################
#
# If this CIF has been generated from an entry in the Cambridge 
# Structural Database, then it will include bibliographic, chemical, 
# crystal, experimental, refinement or atomic coordinate data resulting 
# from the CCDC's data processing and validation procedures.
#
#######################################################################

data_CIKHAG
_symmetry_cell_setting           orthorhombic
_symmetry_space_group_name_H-M   'P 21 21 21'
_symmetry_Int_Tables_number      19
_space_group_name_Hall           'P 2ac 2ab'
loop_
_symmetry_equiv_pos_site_id
_symmetry_equiv_pos_as_xyz
1 x,y,z
2 1/2-x,-y,1/2+z
3 -x,1/2+y,1/2-z
4 1/2+x,1/2-y,-z
_cell_length_a                   13.721(2)
_cell_length_b                   21.539(3)
_cell_length_c                   22.417(3)
_cell_angle_alpha                90
_cell_angle_beta                 90
_cell_angle_gamma                90
_cell_volume                     6625.04
loop_
_atom_site_label
_atom_site_type_symbol
_atom_site_fract_x
_atom_site_fract_y
_atom_site_fract_z
Co1 Co 0.21795(4) 0.84413(2) 0.12977(2)
Co2 Co 0.28614(4) 0.65041(2) 0.36902(2)
Se1 Se 0.20881(2) 0.73019(2) 0.237212(14)
S1 S 0.1815(2) 0.95215(11) -0.05584(7)
S2 S 0.3930(2) 0.54383(11) 0.54549(8)
O1 O 0.2449(2) 0.79730(12) 0.21097(11)
O2 O 0.2702(2) 0.71968(12) 0.29987(10)
O3 O 0.2341(2) 0.67551(13) 0.18999(12)
O4 O 0.0925(2) 0.7331(2) 0.25216(13)
N1 N 0.3424(2) 0.7948(2) 0.09468(14)
N2 N 0.4211(2) 0.7894(2) 0.13041(15)
H1 H 0.4189(2) 0.7934(2) 0.17035(15)
N3 N 0.6540(2) 0.78239(15) -0.07961(14)
H2 H 0.7018(2) 0.80050(15) -0.10094(14)
N4 N 0.6166(2) 0.7251(2) -0.09192(14)
N5 N 0.0978(2) 0.8889(2) 0.17378(15)
N6 N 0.0267(2) 0.8543(2) 0.1998(2)
H3 H 0.0319(2) 0.8133(2) 0.2066(2)
N7 N -0.1948(2) 1.07446(14) 0.23234(13)
H4 H -0.2303(2) 1.09760(14) 0.25775(13)
N8 N -0.1889(2) 1.08580(15) 0.17293(13)
N9 N 0.3825(2) 0.7225(2) 0.40635(13)
N10 N 0.3403(2) 0.7791(2) 0.41718(14)
H5 H 0.2888(2) 0.7939(2) 0.39678(14)
N11 N 0.5792(2) 0.7991(2) 0.62297(14)
H6 H 0.5799(2) 0.8024(2) 0.66299(14)
N12 N 0.6593(2) 0.80718(15) 0.58793(13)
N13 N 0.5960(2) 1.10861(15) 0.18166(14)
N14 N 0.5212(2) 1.1448(2) 0.20033(15)
H7 H 0.5260(2) 1.1861(2) 0.20564(15)
N15 N 0.2985(2) 0.92288(15) 0.22997(13)
H8 H 0.2600(2) 0.89944(15) 0.25342(13)
N16 N 0.3148(2) 0.91056(15) 0.17134(14)
N17 N 0.2019(3) 0.8970(2) 0.05501(14)
N18 N 0.3180(2) 0.5948(2) 0.44126(15)
C1 C 0.5028(3) 0.7777(2) 0.1000(2)
C2 C 0.4781(3) 0.7762(2) 0.0401(2)
C3 C 0.3762(3) 0.7867(2) 0.0397(2)
C4 C 0.3117(3) 0.7878(2) -0.0142(2)
H9 H 0.2456(3) 0.7802(2) -0.0023(2)
H10 H 0.3309(3) 0.7567(2) -0.0425(2)
H11 H 0.3154(3) 0.8278(2) -0.0329(2)
C5 C 0.5993(3) 0.7676(3) 0.1303(2)
H12 H 0.5916(3) 0.7713(3) 0.1727(2)
H13 H 0.6228(3) 0.7268(3) 0.1207(2)
H14 H 0.6452(3) 0.7981(3) 0.1165(2)
C6 C 0.5479(3) 0.7164(2) -0.0498(2)
C7 C 0.5428(3) 0.7675(2) -0.0114(2)
C8 C 0.6120(3) 0.8086(2) -0.0322(2)
C9 C 0.6414(5) 0.8722(3) -0.0104(3)
H15 H 0.7042(5) 0.8700(3) 0.0084(3)
H16 H 0.5939(5) 0.8875(3) 0.0174(3)
H17 H 0.6435(5) 0.9002(3) -0.0436(3)
C10 C 0.4853(3) 0.6594(2) -0.0478(2)
H18 H 0.4334(3) 0.6627(2) -0.0192(2)
H19 H 0.5284(3) 0.6254(2) -0.0392(2)
H20 H 0.4617(3) 0.6528(2) -0.0876(2)
C11 C -0.0533(3) 0.8880(2) 0.2124(2)
C12 C -0.0343(3) 0.9481(2) 0.1941(2)
C13 C 0.0610(3) 0.9464(2) 0.1713(2)
C14 C 0.1192(3) 0.9991(2) 0.1472(2)
H21 H 0.1001(3) 1.0364(2) 0.1676(2)
H22 H 0.1076(3) 1.0038(2) 0.1052(2)
H23 H 0.1876(3) 0.9921(2) 0.1532(2)
C15 C -0.1411(4) 0.8595(2) 0.2422(3)
H24 H -0.1983(4) 0.8825(2) 0.2312(3)
H25 H -0.1330(4) 0.8598(2) 0.2848(3)
H26 H -0.1471(4) 0.8171(2) 0.2297(3)
C16 C -0.1302(3) 1.0408(2) 0.1515(2)
C17 C -0.0987(3) 1.0016(2) 0.1984(2)
C18 C -0.1426(3) 1.0259(2) 0.2490(2)
C19 C -0.1344(4) 1.0069(3) 0.3138(2)
H27 H -0.0757(4) 0.9831(3) 0.3181(2)
H28 H -0.1878(4) 0.9810(3) 0.3261(2)
H29 H -0.1297(4) 1.0421(3) 0.3398(2)
C20 C -0.1065(3) 1.0362(2) 0.0865(2)
H30 H -0.0509(3) 1.0099(2) 0.0805(2)
H31 H -0.0942(3) 1.0769(2) 0.0709(2)
H32 H -0.1623(3) 1.0196(2) 0.0662(2)
C21 C 0.4581(3) 0.7195(2) 0.4445(2)
C22 C 0.4615(3) 0.7737(2) 0.4802(2)
C23 C 0.3851(3) 0.8098(2) 0.4608(2)
C24 C 0.3527(4) 0.8721(2) 0.4815(3)
H33 H 0.2829(4) 0.8752(2) 0.4821(3)
H34 H 0.3815(4) 0.9026(2) 0.4558(3)
H35 H 0.3803(4) 0.8782(2) 0.5204(3)
C25 C 0.5269(3) 0.6668(2) 0.4461(2)
H36 H 0.5897(3) 0.6809(2) 0.4331(2)
H37 H 0.5053(3) 0.6341(2) 0.4203(2)
H38 H 0.5325(3) 0.6507(2) 0.4859(2)
C26 C 0.4982(3) 0.7856(2) 0.5905(2)
C27 C 0.5266(3) 0.7859(2) 0.5319(2)
C28 C 0.6271(3) 0.7996(2) 0.5317(2)
C29 C 0.6939(3) 0.8049(3) 0.4789(2)
H39 H 0.7605(3) 0.7993(3) 0.4909(2)
H40 H 0.6858(3) 0.8450(3) 0.4609(2)
H41 H 0.6764(3) 0.7740(3) 0.4500(2)
C30 C 0.4045(3) 0.7736(3) 0.6195(2)
H42 H 0.3883(3) 0.7309(3) 0.6122(2)
H43 H 0.3536(3) 0.7992(3) 0.6034(2)
H44 H 0.4081(3) 0.7801(3) 0.6618(2)
C31 C 0.4394(3) 1.1120(2) 0.2104(2)
C32 C 0.4622(3) 1.0502(2) 0.1977(2)
C33 C 0.5610(3) 1.0509(2) 0.1802(2)
C34 C 0.6223(3) 0.9956(2) 0.1658(2)
H45 H 0.6516(3) 1.0004(2) 0.1271(2)
H46 H 0.5817(3) 0.9594(2) 0.1671(2)
H47 H 0.6712(3) 0.9910(2) 0.1961(2)
C35 C 0.3467(4) 1.1416(3) 0.2286(3)
H48 H 0.3556(4) 1.1594(3) 0.2676(3)
H49 H 0.2948(4) 1.1118(3) 0.2307(3)
H50 H 0.3286(4) 1.1742(3) 0.2016(3)
C36 C 0.3451(3) 0.9741(2) 0.2488(2)
C37 C 0.3967(3) 0.9964(2) 0.1997(2)
C38 C 0.3759(3) 0.9548(2) 0.1530(2)
C39 C 0.4112(4) 0.9582(3) 0.0896(2)
H51 H 0.4017(4) 0.9191(3) 0.0699(2)
H52 H 0.4788(4) 0.9697(3) 0.0897(2)
H53 H 0.3761(4) 0.9908(3) 0.0698(2)
C40 C 0.3366(5) 0.9961(3) 0.3113(2)
H54 H 0.3211(5) 0.9620(3) 0.3372(2)
H55 H 0.2855(5) 1.0264(3) 0.3143(2)
H56 H 0.3977(5) 1.0142(3) 0.3227(2)
C41 C 0.1943(4) 0.9201(2) 0.0096(2)
C42 C 0.3483(3) 0.5734(2) 0.4839(2)
Co1C Co 0.71795(4) 0.65587(2) -0.12977(2)
Co2B Co -0.28614(4) 1.15041(2) 0.13098(2)
Co2C Co 0.78614(4) 0.84959(2) 0.63098(2)
Co2B_2 Co 0.71386(4) 1.15041(2) 0.13098(2)
N4C N 0.1166(2) 0.7749(2) 0.09192(14)
N8B N 0.1889(2) 0.58580(15) 0.32707(13)
N12C N 0.1593(2) 0.69282(15) 0.41207(13)
N13B N 0.4040(2) 0.60861(15) 0.31834(14)
C43 C -0.0515(5) 0.6487(3) 0.1782(3)
H57 H 0.0130(5) 0.6658(3) 0.1795(3)
Cl1 Cl -0.1319(2) 0.70941(11) 0.17276(10)
Cl2 Cl -0.0582(2) 0.59976(12) 0.11729(12)
Cl3 Cl -0.0695(2) 0.60781(14) 0.24446(11)
O5 O 0.4525(2) 0.77564(15) 0.26762(14)
H58 H 0.3845(2) 0.76137(15) 0.27229(14)
C44 C 0.4970(5) 0.8250(3) 0.2972(4)
H59 H 0.4512(5) 0.8564(3) 0.3089(4)
H60 H 0.5457(5) 0.8403(3) 0.2702(4)
H61 H 0.5315(5) 0.8075(3) 0.3304(4)
C45 C 0.4322(14) 0.5304(8) 0.1086(7)
Cl4 Cl 0.4156(7) 0.4685(4) 0.1619(3)
Cl5 Cl 0.4104(6) 0.5987(4) 0.1470(3)
Cl6 Cl 0.3438(4) 0.5271(4) 0.0561(2)
O6 O 0.1916(4) 0.8601(3) 0.3533(4)
H62 H 0.2064(4) 0.8634(3) 0.3900(4)
C47 C 0.1048(7) 0.8686(7) 0.3472(5)
H63 H 0.0856(7) 0.9094(7) 0.3347(5)
H64 H 0.0798(7) 0.8602(7) 0.3864(5)
H65 H 0.0788(7) 0.8380(7) 0.3205(5)
O7 O 0.1411(7) 0.9483(5) 0.4553(6)
C46? C 0.3709(22) 0.5069(11) 0.1079(8)
Cl7? Cl 0.4453(8) 0.4610(6) 0.0672(4)
Cl8? Cl 0.3896(9) 0.4940(8) 0.1825(4)
Cl9? Cl 0.3781(11) 0.5874(7) 0.1020(6)
loop_
_geom_bond_atom_site_label_1
_geom_bond_atom_site_label_2
_geom_bond_site_symmetry_1
_geom_bond_site_symmetry_2
Co1 O1 1_555 1_555
Co2 O2 1_555 1_555
Se1 O1 1_555 1_555
S1 C41 1_555 1_555
S2 C42 1_555 1_555
O2 Se1 1_555 1_555
O3 Se1 1_555 1_555
O4 Se1 1_555 1_555
N1 Co1 1_555 1_555
N2 N1 1_555 1_555
H1 N2 1_555 1_555
N3 H2 1_555 1_555
N4 N3 1_555 1_555
N5 Co1 1_555 1_555
N6 N5 1_555 1_555
H3 N6 1_555 1_555
N7 H4 1_555 1_555
N8 N7 1_555 1_555
N9 Co2 1_555 1_555
N10 N9 1_555 1_555
H5 N10 1_555 1_555
N11 H6 1_555 1_555
N12 N11 1_555 1_555
N13 N14 1_555 1_555
N14 H7 1_555 1_555
N15 H8 1_555 1_555
N16 Co1 1_555 1_555
N17 Co1 1_555 1_555
N18 Co2 1_555 1_555
C1 N2 1_555 1_555
C2 C1 1_555 1_555
C3 N1 1_555 1_555
C4 C3 1_555 1_555
H9 C4 1_555 1_555
H10 C4 1_555 1_555
H11 C4 1_555 1_555
C5 C1 1_555 1_555
H12 C5 1_555 1_555
H13 C5 1_555 1_555
H14 C5 1_555 1_555
C6 N4 1_555 1_555
C7 C2 1_555 1_555
C8 N3 1_555 1_555
C9 C8 1_555 1_555
H15 C9 1_555 1_555
H16 C9 1_555 1_555
H17 C9 1_555 1_555
C10 C6 1_555 1_555
H18 C10 1_555 1_555
H19 C10 1_555 1_555
H20 C10 1_555 1_555
C11 N6 1_555 1_555
C12 C11 1_555 1_555
C13 N5 1_555 1_555
C14 C13 1_555 1_555
H21 C14 1_555 1_555
H22 C14 1_555 1_555
H23 C14 1_555 1_555
C15 C11 1_555 1_555
H24 C15 1_555 1_555
H25 C15 1_555 1_555
H26 C15 1_555 1_555
C16 N8 1_555 1_555
C17 C12 1_555 1_555
C18 N7 1_555 1_555
C19 C18 1_555 1_555
H27 C19 1_555 1_555
H28 C19 1_555 1_555
H29 C19 1_555 1_555
C20 C16 1_555 1_555
H30 C20 1_555 1_555
H31 C20 1_555 1_555
H32 C20 1_555 1_555
C21 N9 1_555 1_555
C22 C21 1_555 1_555
C23 N10 1_555 1_555
C24 C23 1_555 1_555
H33 C24 1_555 1_555
H34 C24 1_555 1_555
H35 C24 1_555 1_555
C25 C21 1_555 1_555
H36 C25 1_555 1_555
H37 C25 1_555 1_555
H38 C25 1_555 1_555
C26 N11 1_555 1_555
C27 C22 1_555 1_555
C28 N12 1_555 1_555
C29 C28 1_555 1_555
H39 C29 1_555 1_555
H40 C29 1_555 1_555
H41 C29 1_555 1_555
C30 C26 1_555 1_555
H42 C30 1_555 1_555
H43 C30 1_555 1_555
H44 C30 1_555 1_555
C31 N14 1_555 1_555
C32 C31 1_555 1_555
C33 N13 1_555 1_555
C34 C33 1_555 1_555
H45 C34 1_555 1_555
H46 C34 1_555 1_555
H47 C34 1_555 1_555
C35 C31 1_555 1_555
H48 C35 1_555 1_555
H49 C35 1_555 1_555
H50 C35 1_555 1_555
C36 N15 1_555 1_555
C37 C32 1_555 1_555
C38 N16 1_555 1_555
C39 C38 1_555 1_555
H51 C39 1_555 1_555
H52 C39 1_555 1_555
H53 C39 1_555 1_555
C40 C36 1_555 1_555
H54 C40 1_555 1_555
H55 C40 1_555 1_555
H56 C40 1_555 1_555
C41 N17 1_555 1_555
C42 N18 1_555 1_555
C43 H57 1_555 1_555
Cl1 C43 1_555 1_555
Cl2 C43 1_555 1_555
Cl3 C43 1_555 1_555
O5 H58 1_555 1_555
C44 O5 1_555 1_555
H59 C44 1_555 1_555
H60 C44 1_555 1_555
H61 C44 1_555 1_555
C45 Cl4 1_555 1_555
Cl5 C45 1_555 1_555
Cl6 C45 1_555 1_555
O6 H62 1_555 1_555
C47 O6 1_555 1_555
H63 C47 1_555 1_555
H64 C47 1_555 1_555
H65 C47 1_555 1_555
Co1C N4 1_555 1_555
Co2B N8 1_555 1_555
Co2C N12 1_555 1_555
Co2B_2 N13 1_555 1_555
N4C Co1 1_555 1_555
N8B Co2 1_555 1_555
N12C Co2 1_555 1_555
N13B Co2 1_555 1_555
N15 N16 1_555 1_555
C2 C3 1_555 1_555
C6 C7 1_555 1_555
C7 C8 1_555 1_555
C12 C13 1_555 1_555
C16 C17 1_555 1_555
C17 C18 1_555 1_555
C22 C23 1_555 1_555
C26 C27 1_555 1_555
C27 C28 1_555 1_555
C32 C33 1_555 1_555
C36 C37 1_555 1_555
C37 C38 1_555 1_555

#END
