
#######################################################################
#
#                 Cambridge Crystallographic Data Centre
#                                CCDC 
#
#######################################################################
#
# If this CIF has been generated from an entry in the Cambridge 
# Structural Database, then it will include bibliographic, chemical, 
# crystal, experimental, refinement or atomic coordinate data resulting 
# from the CCDC's data processing and validation procedures.
#
#######################################################################

data_CIKHAH
_symmetry_cell_setting           triclinic
_symmetry_space_group_name_H-M   'P -1'
_symmetry_Int_Tables_number      2
_space_group_name_Hall           '-P 1'
loop_
_symmetry_equiv_pos_site_id
_symmetry_equiv_pos_as_xyz
1 x,y,z
2 -x,-y,-z
_cell_length_a                   5.7629(12)
_cell_length_b                   9.6524(19)
_cell_length_c                   18.300(4)
_cell_angle_alpha                105.13(3)
_cell_angle_beta                 92.04(3)
_cell_angle_gamma                97.68(3)
_cell_volume                     971.205
loop_
_atom_site_label
_atom_site_type_symbol
_atom_site_fract_x
_atom_site_fract_y
_atom_site_fract_z
C1 C 0.2689(11) 1.0997(6) 0.2576(3)
C2 C 0.4272(11) 1.0859(7) 0.3135(4)
H1 H 0.5821 1.1302 0.3163
C3 C 0.3614(11) 1.0082(7) 0.3651(4)
H2 H 0.4709 1.0008 0.4020
C4 C 0.1341(11) 0.9424(6) 0.3615(3)
C5 C -0.0268(11) 0.9530(6) 0.3050(3)
H3 H -0.1809 0.9073 0.3018
C6 C 0.0412(11) 1.0309(6) 0.2537(3)
H4 H -0.0676 1.0369 0.2163
C7 C 0.3507(10) 1.1944(6) 0.2070(3)
H5 H 0.5009 1.2503 0.2291
H6 H 0.2407 1.2628 0.2087
C8 C 0.0624(12) 0.8627(7) 0.4183(3)
C9 C 0.1793(10) 0.5767(6) 0.2648(3)
C10 C 0.3630(11) 0.5824(7) 0.3176(3)
H7 H 0.5081 0.6362 0.3157
C11 C 0.3308(11) 0.5082(7) 0.3731(3)
H8 H 0.4549 0.5108 0.4076
C12 C 0.1143(11) 0.4308(6) 0.3769(3)
C13 C -0.0701(10) 0.4290(7) 0.3250(3)
H9 H -0.2172 0.3790 0.3281
C14 C -0.0381(11) 0.4994(7) 0.2696(3)
H10 H -0.1624 0.4957 0.2350
C15 C 0.2118(11) 0.6551(6) 0.2036(3)
H11 H 0.3448 0.7318 0.2196
H12 H 0.0737 0.7003 0.1986
C16 C 0.0735(11) 0.3510(7) 0.4353(3)
La1 La 0.12952(5) 0.80443(3) -0.000331(15)
O1 O 0.4709(7) 0.9632(4) 0.0945(2)
O2 O 0.1419(6) 1.0776(4) 0.0642(2)
O3 O 0.5547(7) 1.2213(4) 0.0834(2)
O4 O 0.2196(9) 0.8640(6) 0.4686(3)
H13 H 0.1721 0.8068 0.4928
O5 O -0.1471(8) 0.7998(6) 0.4146(3)
O6 O 0.2581(7) 0.6328(4) 0.0569(2)
O7 O 0.5189(6) 0.5076(4) 0.1215(2)
H14 H 0.5175 0.4196 0.1112
O8 O 0.0901(7) 0.4030(4) 0.0912(2)
O9 O 0.2406(9) 0.3477(6) 0.4808(3)
H15 H 0.1882 0.3189 0.5162
O10 O -0.1310(9) 0.2872(6) 0.4362(3)
O11 O -0.2064(7) 0.7766(5) 0.0827(2)
H16 H -0.2769 0.6928 0.0857
H17 H -0.3193 0.8290 0.0874
P1 P 0.3844(2) 1.10970(14) 0.10850(7)
P2 P 0.2592(2) 0.54128(14) 0.11191(7)
La1A La -0.12952(5) 0.19557(3) 0.000331(15)
La1A_2 La -0.12952(5) 1.19557(3) 0.000331(15)
La1A_3 La 0.87048(5) 1.19557(3) 0.000331(15)
O2A O -0.1419(6) 0.9224(4) -0.0642(2)
O3A O 0.4453(7) 0.7787(4) -0.0834(2)
O8A O -0.0901(7) 0.5970(4) -0.0912(2)
loop_
_geom_bond_atom_site_label_1
_geom_bond_atom_site_label_2
_geom_bond_site_symmetry_1
_geom_bond_site_symmetry_2
C1 C2 1_555 1_555
C2 H1 1_555 1_555
C3 C2 1_555 1_555
H2 C3 1_555 1_555
C4 C3 1_555 1_555
C5 C4 1_555 1_555
H3 C5 1_555 1_555
C6 C1 1_555 1_555
H4 C6 1_555 1_555
C7 C1 1_555 1_555
H5 C7 1_555 1_555
H6 C7 1_555 1_555
C8 C4 1_555 1_555
C9 C10 1_555 1_555
C10 H7 1_555 1_555
C11 C10 1_555 1_555
H8 C11 1_555 1_555
C12 C11 1_555 1_555
C13 C12 1_555 1_555
H9 C13 1_555 1_555
C14 C9 1_555 1_555
H10 C14 1_555 1_555
C15 C9 1_555 1_555
H11 C15 1_555 1_555
H12 C15 1_555 1_555
C16 C12 1_555 1_555
La1 O1 1_555 1_555
O1 P1 1_555 1_555
O2 La1 1_555 1_555
O3 P1 1_555 1_555
O4 C8 1_555 1_555
H13 O4 1_555 1_555
O5 C8 1_555 1_555
O6 La1 1_555 1_555
O7 H14 1_555 1_555
O8 P2 1_555 1_555
O9 C16 1_555 1_555
H15 O9 1_555 1_555
O10 C16 1_555 1_555
O11 La1 1_555 1_555
H16 O11 1_555 1_555
H17 O11 1_555 1_555
P1 C7 1_555 1_555
P2 C15 1_555 1_555
La1A O8 1_555 1_555
La1A_2 O2 1_555 1_555
La1A_3 O3 1_555 1_555
O2A La1 1_555 1_555
O3A La1 1_555 1_555
O8A La1 1_555 1_555
C5 C6 1_555 1_555
C13 C14 1_555 1_555
O2 P1 1_555 1_555
O6 P2 1_555 1_555
O7 P2 1_555 1_555
La1A_2 O2A 1_555 1_555

#END
