
#######################################################################
#
#                 Cambridge Crystallographic Data Centre
#                                CCDC 
#
#######################################################################
#
# If this CIF has been generated from an entry in the Cambridge 
# Structural Database, then it will include bibliographic, chemical, 
# crystal, experimental, refinement or atomic coordinate data resulting 
# from the CCDC's data processing and validation procedures.
#
#######################################################################

data_CIKJOX
_symmetry_cell_setting           triclinic
_symmetry_space_group_name_H-M   'P -1'
_symmetry_Int_Tables_number      2
_space_group_name_Hall           '-P 1'
loop_
_symmetry_equiv_pos_site_id
_symmetry_equiv_pos_as_xyz
1 x,y,z
2 -x,-y,-z
_cell_length_a                   9.3836(19)
_cell_length_b                   9.834(2)
_cell_length_c                   11.888(2)
_cell_angle_alpha                70.02(3)
_cell_angle_beta                 71.86(3)
_cell_angle_gamma                67.37(3)
_cell_volume                     930.921
loop_
_atom_site_label
_atom_site_type_symbol
_atom_site_fract_x
_atom_site_fract_y
_atom_site_fract_z
C1 C 0.3868(4) 0.6414(4) 0.6108(3)
C2 C 0.2524(4) 0.7558(4) 0.5740(3)
H1 H 0.1535 0.7432 0.6101
C3 C 0.2651(4) 0.8878(4) 0.4842(3)
H2 H 0.1746 0.9623 0.4607
C4 C 0.4115(4) 0.9096(4) 0.4292(3)
C5 C 0.5453(4) 0.7993(4) 0.4665(3)
H3 H 0.6436 0.8135 0.4312
C6 C 0.5329(4) 0.6673(4) 0.5567(3)
H4 H 0.6234 0.5946 0.5815
C7 C 0.5587(4) 1.0651(4) 0.2745(3)
H5 H 0.6217 0.9840 0.2339
H6 H 0.6153 1.0618 0.3317
C8 C 0.5341(4) 1.2176(4) 0.1806(3)
C9 C 0.2313(4) 0.4679(4) 0.7207(3)
H7 H 0.2574 0.3579 0.7481
H8 H 0.1987 0.4994 0.6434
C10 C 0.0912(4) 0.5362(4) 0.8134(3)
C11 C 0.5184(4) 0.3832(4) 0.7196(3)
H9 H 0.5922 0.3791 0.6419
H10 H 0.4949 0.2875 0.7527
C12 C 0.5958(4) 0.4000(4) 0.8066(3)
N1 N 0.3733(3) 0.5069(3) 0.6986(2)
O1 O 0.5118(3) 0.4286(3) 0.9074(2)
O2 O 0.7407(3) 0.3832(3) 0.7812(2)
O3 O 0.1052(3) 0.6043(3) 0.8803(2)
O4 O -0.0358(3) 0.5176(3) 0.8171(2)
O5 O 0.4105(3) 1.0432(3) 0.3388(2)
O6 O 0.3969(3) 1.3000(3) 0.1704(2)
O7 O 0.6605(3) 1.2465(3) 0.1202(2)
O8 O 0.7637(3) 0.6964(3) 0.9994(3)
H11 H 0.8523 0.7100 0.9647
H12 H 0.6895 0.7788 0.9840
O9 O 0.9611(4) 0.2147(4) 0.9491(3)
H13 H 1.0033 0.1823 0.8848
H14 H 0.9668 0.1419 1.0132
Nd1 Nd 0.736416(17) 0.463116(19) 0.968960(13)
O1A O 0.4882(3) 0.5714(3) 1.0926(2)
O3A O 0.8948(3) 0.3957(3) 1.1197(2)
O4_2 O 0.9642(3) 0.5176(3) 0.8171(2)
O6A O 0.6031(3) 0.7000(3) 0.8296(2)
O7_2 O 0.6605(3) 0.2465(3) 1.1202(2)
Nd1_2 Nd -0.263584(17) 0.463116(19) 0.968960(13)
Nd1_3 Nd 0.736416(17) 1.463116(19) -0.031040(13)
Nd1A Nd 0.263584(17) 0.536884(19) 1.031040(13)
Nd1A_2 Nd 0.263584(17) 1.536884(19) 0.031040(13)
O10 O 0.9689(5) 0.7666(6) 0.3475(4)
H15 H 1.0417 0.6879 0.3303
H16 H 0.9318 0.7604 0.4234
O11 O 0.1322(4) 0.2945(5) 0.4051(3)
H17 H 0.2232 0.2555 0.3655
H18 H 0.0839 0.3765 0.3600
O12 O 0.0251(8) 0.9707(8) 0.8048(6)
H19 H 0.0702 1.0288 0.7466
H20 H -0.0615 0.9794 0.7910
O14 O 0.2918(11) 0.0050(11) 0.1590(8)
O14A O 0.7082(11) -0.0050(11) -0.1590(8)
O13? O 0.459(3) -0.014(4) 0.046(2)
loop_
_geom_bond_atom_site_label_1
_geom_bond_atom_site_label_2
_geom_bond_site_symmetry_1
_geom_bond_site_symmetry_2
C1 C2 1_555 1_555
C2 H1 1_555 1_555
C3 C2 1_555 1_555
H2 C3 1_555 1_555
C4 C3 1_555 1_555
C5 C4 1_555 1_555
H3 C5 1_555 1_555
C6 C1 1_555 1_555
H4 C6 1_555 1_555
C7 H5 1_555 1_555
H6 C7 1_555 1_555
C8 C7 1_555 1_555
C9 H7 1_555 1_555
H8 C9 1_555 1_555
C10 C9 1_555 1_555
C11 H9 1_555 1_555
H10 C11 1_555 1_555
C12 C11 1_555 1_555
N1 C1 1_555 1_555
O1 C12 1_555 1_555
O2 C12 1_555 1_555
O3 C10 1_555 1_555
O4 C10 1_555 1_555
O5 C4 1_555 1_555
O6 C8 1_555 1_555
O7 C8 1_555 1_555
O8 H11 1_555 1_555
H12 O8 1_555 1_555
O9 H13 1_555 1_555
H14 O9 1_555 1_555
Nd1 O1 1_555 1_555
O10 H15 1_555 1_555
H16 O10 1_555 1_555
O11 H17 1_555 1_555
H18 O11 1_555 1_555
O12 H19 1_555 1_555
H20 O12 1_555 1_555
O1A Nd1 1_555 1_555
O3A Nd1 1_555 1_555
O4_2 Nd1 1_555 1_555
O6A Nd1 1_555 1_555
O7_2 Nd1 1_555 1_555
Nd1_2 O4 1_555 1_555
Nd1_3 O7 1_555 1_555
Nd1A O1 1_555 1_555
Nd1A_2 O6 1_555 1_555
C5 C6 1_555 1_555
C7 O5 1_555 1_555
C9 N1 1_555 1_555
C11 N1 1_555 1_555
O2 Nd1 1_555 1_555
O3 Nd1A 1_555 1_555
O8 Nd1 1_555 1_555
O9 Nd1 1_555 1_555
O1A Nd1A 1_555 1_555

#END
