
#######################################################################
#
#                 Cambridge Crystallographic Data Centre
#                                CCDC 
#
#######################################################################
#
# If this CIF has been generated from an entry in the Cambridge 
# Structural Database, then it will include bibliographic, chemical, 
# crystal, experimental, refinement or atomic coordinate data resulting 
# from the CCDC's data processing and validation procedures.
#
#######################################################################

data_CIKJUD
_symmetry_cell_setting           triclinic
_symmetry_space_group_name_H-M   'P -1'
_symmetry_Int_Tables_number      2
_space_group_name_Hall           '-P 1'
loop_
_symmetry_equiv_pos_site_id
_symmetry_equiv_pos_as_xyz
1 x,y,z
2 -x,-y,-z
_cell_length_a                   9.4465(19)
_cell_length_b                   9.830(2)
_cell_length_c                   11.903(2)
_cell_angle_alpha                70.18(3)
_cell_angle_beta                 71.73(3)
_cell_angle_gamma                67.28(3)
_cell_volume                     937.679
loop_
_atom_site_label
_atom_site_type_symbol
_atom_site_fract_x
_atom_site_fract_y
_atom_site_fract_z
C1 C 0.3866(4) 0.6414(4) 0.6121(3)
C2 C 0.2533(4) 0.7560(4) 0.5757(3)
H1 H 0.1549 0.7438 0.6121
C3 C 0.2656(4) 0.8869(4) 0.4867(3)
H2 H 0.1756 0.9613 0.4634
C4 C 0.4114(4) 0.9087(4) 0.4313(3)
C5 C 0.5442(4) 0.7990(4) 0.4676(3)
H3 H 0.6419 0.8132 0.4319
C6 C 0.5320(4) 0.6659(4) 0.5584(3)
H4 H 0.6219 0.5930 0.5831
C7 C 0.5581(4) 1.0634(4) 0.2762(3)
H5 H 0.6206 0.9818 0.2358
H6 H 0.6147 1.0604 0.3329
C8 C 0.5337(4) 1.2153(4) 0.1822(3)
C9 C 0.2333(4) 0.4670(4) 0.7206(3)
H7 H 0.2588 0.3571 0.7483
H8 H 0.2030 0.4979 0.6428
C10 C 0.0924(4) 0.5366(4) 0.8116(3)
C11 C 0.5184(4) 0.3818(4) 0.7196(3)
H9 H 0.5909 0.3781 0.6414
H10 H 0.4953 0.2861 0.7525
C12 C 0.5968(3) 0.3982(4) 0.8057(3)
N1 N 0.3739(3) 0.5053(3) 0.7004(2)
O1 O 0.5135(3) 0.4270(3) 0.90666(19)
O2 O 0.7408(3) 0.3795(3) 0.7804(2)
O3 O 0.1046(3) 0.6043(3) 0.8786(2)
O4 O -0.0334(3) 0.5178(3) 0.8146(2)
O5 O 0.4103(3) 1.0418(3) 0.3415(2)
O6 O 0.3972(3) 1.2978(3) 0.1724(2)
O7 O 0.6599(3) 1.2432(3) 0.1216(2)
O8 O 0.7644(3) 0.6997(3) 0.9984(3)
H11 H 0.8530 0.7134 0.9637
H12 H 0.6902 0.7821 0.9829
O9 O 0.9665(4) 0.2111(4) 0.9510(3)
H13 H 1.0088 0.1787 0.8867
H14 H 0.9723 0.1383 1.0151
Ce1 Ce 0.738029(17) 0.462251(19) 0.969114(14)
O1A O 0.4865(3) 0.5730(3) 1.09334(19)
O3A O 0.8954(3) 0.3957(3) 1.1214(2)
O4_2 O 0.9666(3) 0.5178(3) 0.8146(2)
O6A O 0.6028(3) 0.7022(3) 0.8276(2)
O7_2 O 0.6599(3) 0.2432(3) 1.1216(2)
Ce1_2 Ce -0.261971(17) 0.462251(19) 0.969114(14)
Ce1_3 Ce 0.738029(17) 1.462251(19) -0.030886(14)
Ce1A Ce 0.261971(17) 0.537749(19) 1.030886(14)
Ce1A_2 Ce 0.261971(17) 1.537749(19) 0.030886(14)
O10 O 0.9707(6) 0.7681(6) 0.3490(4)
H15 H 1.0436 0.6894 0.3317
H16 H 0.9337 0.7618 0.4248
O11 O 0.1327(4) 0.2963(5) 0.4056(3)
H17 H 0.2237 0.2573 0.3660
H18 H 0.0844 0.3783 0.3604
O12 O 0.0295(8) 0.9740(7) 0.8064(6)
H19 H 0.0746 1.0321 0.7482
H20 H -0.0571 0.9827 0.7926
O14 O 0.2885(10) 0.0032(10) 0.1629(8)
O14A O 0.7115(10) -0.0032(10) -0.1629(8)
O13? O 0.464(5) -0.014(6) 0.045(3)
loop_
_geom_bond_atom_site_label_1
_geom_bond_atom_site_label_2
_geom_bond_site_symmetry_1
_geom_bond_site_symmetry_2
C1 C2 1_555 1_555
C2 H1 1_555 1_555
C3 C2 1_555 1_555
H2 C3 1_555 1_555
C4 C3 1_555 1_555
C5 C4 1_555 1_555
H3 C5 1_555 1_555
C6 C1 1_555 1_555
H4 C6 1_555 1_555
C7 H5 1_555 1_555
H6 C7 1_555 1_555
C8 C7 1_555 1_555
C9 H7 1_555 1_555
H8 C9 1_555 1_555
C10 C9 1_555 1_555
C11 H9 1_555 1_555
H10 C11 1_555 1_555
C12 C11 1_555 1_555
N1 C1 1_555 1_555
O1 C12 1_555 1_555
O2 C12 1_555 1_555
O3 C10 1_555 1_555
O4 C10 1_555 1_555
O5 C4 1_555 1_555
O6 C8 1_555 1_555
O7 C8 1_555 1_555
O8 H11 1_555 1_555
H12 O8 1_555 1_555
O9 H13 1_555 1_555
H14 O9 1_555 1_555
Ce1 O1 1_555 1_555
O10 H15 1_555 1_555
H16 O10 1_555 1_555
O11 H17 1_555 1_555
H18 O11 1_555 1_555
O12 H19 1_555 1_555
H20 O12 1_555 1_555
O1A Ce1 1_555 1_555
O3A Ce1 1_555 1_555
O4_2 Ce1 1_555 1_555
O6A Ce1 1_555 1_555
O7_2 Ce1 1_555 1_555
Ce1_2 O4 1_555 1_555
Ce1_3 O7 1_555 1_555
Ce1A O1 1_555 1_555
Ce1A_2 O6 1_555 1_555
C5 C6 1_555 1_555
C7 O5 1_555 1_555
C9 N1 1_555 1_555
C11 N1 1_555 1_555
O2 Ce1 1_555 1_555
O3 Ce1A 1_555 1_555
O8 Ce1 1_555 1_555
O9 Ce1 1_555 1_555
O1A Ce1A 1_555 1_555

#END
