
#######################################################################
#
#                 Cambridge Crystallographic Data Centre
#                                CCDC 
#
#######################################################################
#
# If this CIF has been generated from an entry in the Cambridge 
# Structural Database, then it will include bibliographic, chemical, 
# crystal, experimental, refinement or atomic coordinate data resulting 
# from the CCDC's data processing and validation procedures.
#
#######################################################################

data_CIKPAP
_symmetry_cell_setting           triclinic
_symmetry_space_group_name_H-M   'P -1'
_symmetry_Int_Tables_number      2
_space_group_name_Hall           '-P 1'
loop_
_symmetry_equiv_pos_site_id
_symmetry_equiv_pos_as_xyz
1 x,y,z
2 -x,-y,-z
_cell_length_a                   8.3165(9)
_cell_length_b                   10.5403(8)
_cell_length_c                   13.2830(13)
_cell_angle_alpha                111.567(8)
_cell_angle_beta                 105.814(9)
_cell_angle_gamma                95.450(7)
_cell_volume                     1016.78
loop_
_atom_site_label
_atom_site_type_symbol
_atom_site_fract_x
_atom_site_fract_y
_atom_site_fract_z
C1 C 0.7131(9) 1.1522(6) 0.5142(6)
H1 H 0.7544 1.2480 0.5683
H2 H 0.5930 1.1244 0.5002
H3 H 0.7312 1.1420 0.4435
C2 C 0.8081(8) 1.0615(5) 0.5618(5)
H4 H 0.9297 1.0884 0.5762
H5 H 0.7911 1.0710 0.6335
C3 C 0.7890(7) 0.8174(5) 0.5137(5)
C4 C 0.9260(8) 0.8398(6) 0.6079(5)
H6 H 0.9952 0.9289 0.6512
C5 C 0.9635(8) 0.7315(7) 0.6400(5)
H7 H 1.0563 0.7483 0.7047
C6 C 0.8630(8) 0.6008(6) 0.5760(5)
H8 H 0.8867 0.5291 0.5988
C7 C 0.7244(8) 0.5711(6) 0.4763(5)
C8 C 0.6841(7) 0.6813(5) 0.4419(4)
C9 C 0.6226(8) 0.4324(6) 0.4153(5)
C10 C 0.4170(8) 0.2381(5) 0.2619(5)
H9 H 0.2968 0.2349 0.2280
H10 H 0.4272 0.2030 0.3209
C11 C 0.4804(9) 0.1437(6) 0.1698(6)
H11 H 0.3793 0.0734 0.1116
C12 C 0.5531(7) 0.2190(5) 0.1079(5)
H12 H 0.6709 0.2668 0.1539
H13 H 0.5533 0.1502 0.0354
C13 C 0.3915(7) 0.3054(5) -0.0188(5)
C14 C 0.2927(7) 0.3932(5) -0.0580(4)
C15 C 0.2207(8) 0.3491(6) -0.1778(5)
H14 H 0.2440 0.2693 -0.2268
C16 C 0.1170(8) 0.4220(6) -0.2230(5)
H15 H 0.0694 0.3916 -0.3020
C17 C 0.0836(7) 0.5420(6) -0.1494(5)
H16 H 0.0100 0.5896 -0.1800
C18 C 0.1574(7) 0.5915(5) -0.0321(4)
C19 C 0.2677(6) 0.5179(5) 0.0184(4)
C20 C 0.0281(8) 0.7886(6) 0.0032(5)
H17 H -0.0847 0.7294 -0.0432
H18 H 0.0733 0.8241 -0.0436
C21 C 0.0184(9) 0.9069(7) 0.1056(6)
H19 H -0.0550 0.9621 0.0805
H20 H 0.1309 0.9642 0.1510
H21 H -0.0270 0.8702 0.1509
N1 N 0.4562(6) 0.3211(4) 0.0857(4)
N2 N 0.5126(6) 0.3836(4) 0.3149(4)
O1 O 0.7409(5) 0.9189(4) 0.4774(3)
O2 O 0.1392(5) 0.7116(4) 0.0462(3)
O3 O 0.5588(5) 0.6633(3) 0.3498(3)
O4 O 0.3343(5) 0.5703(3) 0.1296(3)
O5 O 0.5947(8) 0.0726(6) 0.2009(5)
Cu1 Cu 0.46682(10) 0.48777(7) 0.21922(6)
Na1 Na 0.4533(6) 0.8706(4) 0.2577(4)
H22 H 0.649(10) 0.371(8) 0.457(7)
H23 H 0.399(8) 0.235(7) -0.076(6)
O5_2 O 0.5947(8) 1.0726(6) 0.2009(5)
Na1_2 Na 0.4533(6) -0.1294(4) 0.2577(4)
loop_
_geom_bond_atom_site_label_1
_geom_bond_atom_site_label_2
_geom_bond_site_symmetry_1
_geom_bond_site_symmetry_2
C1 H1 1_555 1_555
H2 C1 1_555 1_555
H3 C1 1_555 1_555
C2 C1 1_555 1_555
H4 C2 1_555 1_555
H5 C2 1_555 1_555
C3 C4 1_555 1_555
C4 H6 1_555 1_555
C5 C4 1_555 1_555
H7 C5 1_555 1_555
C6 C5 1_555 1_555
H8 C6 1_555 1_555
C7 C6 1_555 1_555
C8 C3 1_555 1_555
C9 C7 1_555 1_555
C10 H9 1_555 1_555
H10 C10 1_555 1_555
C11 C10 1_555 1_555
H11 C11 1_555 1_555
C12 C11 1_555 1_555
H12 C12 1_555 1_555
H13 C12 1_555 1_555
C13 C14 1_555 1_555
C14 C15 1_555 1_555
C15 H14 1_555 1_555
C16 C15 1_555 1_555
H15 C16 1_555 1_555
C17 C16 1_555 1_555
H16 C17 1_555 1_555
C18 C17 1_555 1_555
C19 C14 1_555 1_555
C20 H17 1_555 1_555
H18 C20 1_555 1_555
C21 C20 1_555 1_555
H19 C21 1_555 1_555
H20 C21 1_555 1_555
H21 C21 1_555 1_555
N1 C12 1_555 1_555
N2 C9 1_555 1_555
O1 C2 1_555 1_555
O2 C18 1_555 1_555
O3 C8 1_555 1_555
O4 C19 1_555 1_555
O5 C11 1_555 1_555
Cu1 N1 1_555 1_555
Na1 O2 1_555 1_555
H22 C9 1_555 1_555
H23 C13 1_555 1_555
O5_2 Na1 1_555 1_555
Na1_2 O5 1_555 1_555
C3 O1 1_555 1_555
C7 C8 1_555 1_555
C10 N2 1_555 1_555
C13 N1 1_555 1_555
C18 C19 1_555 1_555
C20 O2 1_555 1_555
N2 Cu1 1_555 1_555
O3 Cu1 1_555 1_555
O3 Na1 1_555 1_555
O4 Cu1 1_555 1_555
O4 Na1 1_555 1_555

#END
