
#######################################################################
#
#                 Cambridge Crystallographic Data Centre
#                                CCDC 
#
#######################################################################
#
# If this CIF has been generated from an entry in the Cambridge 
# Structural Database, then it will include bibliographic, chemical, 
# crystal, experimental, refinement or atomic coordinate data resulting 
# from the CCDC's data processing and validation procedures.
#
#######################################################################

data_CIKPOD
_symmetry_cell_setting           monoclinic
_symmetry_space_group_name_H-M   'P 21/c'
_symmetry_Int_Tables_number      14
_space_group_name_Hall           '-P 2ybc'
loop_
_symmetry_equiv_pos_site_id
_symmetry_equiv_pos_as_xyz
1 x,y,z
2 -x,1/2+y,1/2-z
3 -x,-y,-z
4 x,1/2-y,1/2+z
_cell_length_a                   15.919(3)
_cell_length_b                   16.025(3)
_cell_length_c                   27.627(8)
_cell_angle_alpha                90
_cell_angle_beta                 123.20(2)
_cell_angle_gamma                90
_cell_volume                     5897.27
loop_
_atom_site_label
_atom_site_type_symbol
_atom_site_fract_x
_atom_site_fract_y
_atom_site_fract_z
Cu1 Cu 0.2642(2) -0.53326(18) -0.10623(13)
Cu2 Cu 0.3039(2) 0.05057(19) -0.23576(13)
N1 N 0.2351(10) -0.4120(9) -0.1056(6)
N2 N 0.3815(12) -0.6020(10) -0.0991(8)
N3 N 0.1898(12) -0.5938(10) -0.1837(7)
N4 N 0.2264(13) -0.5368(11) -0.0462(8)
N5 N -0.2153(8) -0.4099(7) -0.2879(5)
C1 C -0.2604(8) -0.3902(8) -0.3443(5)
C2 C -0.1903(10) -0.3579(9) -0.3519(6)
H1 H -0.2012 -0.3387 -0.3875
C3 C -0.1019(9) -0.3577(8) -0.3003(6)
H2 H -0.0396 -0.3384 -0.2930
N6 N -0.1174(8) -0.3899(7) -0.2607(5)
N7 N -0.4114(9) -0.4290(8) -0.3544(5)
C4 C -0.5117(10) -0.4446(9) -0.3863(6)
H3 H -0.5443 -0.4617 -0.3676
C5 C -0.5653(11) -0.4358(10) -0.4447(7)
H4 H -0.6354 -0.4467 -0.4669
C6 C -0.5186(12) -0.4114(10) -0.4714(6)
H5 H -0.5561 -0.4053 -0.5123
C7 C -0.4183(11) -0.3958(9) -0.4396(6)
H6 H -0.3856 -0.3787 -0.4582
C8 C -0.3647(8) -0.4046(8) -0.3811(6)
N8 N 0.3219(10) -0.0593(8) -0.2654(6)
N9 N 0.3030(10) -0.1411(9) -0.2658(6)
C9 C 0.3276(13) -0.1800(10) -0.2994(8)
H7 H 0.3219 -0.2381 -0.3074
C10 C 0.3617(13) -0.1222(12) -0.3199(8)
H8 H 0.3843 -0.1323 -0.3448
C11 C 0.3581(12) -0.0476(10) -0.2989(7)
N10 N 0.3431(11) 0.0962(11) -0.2883(7)
C12 C 0.3778(13) 0.0373(10) -0.3082(8)
C13 C 0.4246(14) 0.0603(13) -0.3349(8)
H9 H 0.4490 0.0190 -0.3489
C14 C 0.4366(14) 0.1422(14) -0.3417(8)
H10 H 0.4693 0.1584 -0.3604
C15 C 0.4018(14) 0.2011(12) -0.3217(9)
H11 H 0.4102 0.2586 -0.3265
C16 C 0.3550(12) 0.1781(11) -0.2951(8)
H12 H 0.3306 0.2194 -0.2811
N11 N 0.2245(11) -0.3384(9) -0.1320(7)
C17 C 0.1891(13) -0.2761(13) -0.1139(9)
H13 H 0.1768 -0.2197 -0.1264
C18 C 0.1755(16) -0.3111(14) -0.0749(10)
H14 H 0.1527 -0.2843 -0.0534
C19 C 0.2011(12) -0.3939(11) -0.0719(8)
C20 C 0.2001(15) -0.4642(13) -0.0377(9)
C21 C 0.174(2) -0.4507(19) 0.0029(13)
H15 H 0.1551 -0.3970 0.0083
C22 C 0.177(2) -0.521(2) 0.0355(14)
H16 H 0.1648 -0.5152 0.0652
C23 C 0.200(2) -0.598(2) 0.0216(14)
H17 H 0.1975 -0.6470 0.0401
C24 C 0.2254(18) -0.6043(16) -0.0173(11)
H18 H 0.2429 -0.6573 -0.0247
C25 C 0.2609(16) -0.3299(14) -0.1697(10)
H19 H 0.2065 -0.3073 -0.2075
H20 H 0.2792 -0.3856 -0.1766
C26 C 0.3515(14) -0.2726(12) -0.1443(9)
C27 C 0.4298(17) -0.2921(15) -0.0899(11)
H21 H 0.4240 -0.3392 -0.0710
C28 C 0.5189(19) -0.2449(16) -0.0606(12)
H22 H 0.5727 -0.2592 -0.0227
C29 C 0.5248(16) -0.1780(14) -0.0890(10)
H23 H 0.5840 -0.1450 -0.0707
C30 C 0.4461(16) -0.1575(15) -0.1439(10)
H24 H 0.4513 -0.1104 -0.1630
C31 C 0.3578(15) -0.2060(14) -0.1717(10)
C32 C 0.2736(19) -0.1781(16) -0.2321(11)
H25 H 0.2319 -0.2273 -0.2532
H26 H 0.2305 -0.1381 -0.2280
C33 C -0.0473(13) -0.4002(11) -0.1995(8)
H27 H -0.0673 -0.3632 -0.1788
H28 H 0.0201 -0.3824 -0.1893
C34 C -0.0408(13) -0.4881(11) -0.1790(8)
C35 C -0.0676(15) -0.5018(14) -0.1397(9)
H29 H -0.0915 -0.4563 -0.1284
C36 C -0.0607(18) -0.5791(16) -0.1166(12)
H30 H -0.0783 -0.5873 -0.0892
C37 C -0.0278(17) -0.6439(17) -0.1339(11)
H31 H -0.0225 -0.6978 -0.1181
C38 C -0.0028(16) -0.6337(15) -0.1726(10)
H32 H 0.0184 -0.6804 -0.1845
C39 C -0.0077(15) -0.5545(13) -0.1955(9)
C40 C 0.0212(15) -0.5405(13) -0.2383(9)
H33 H -0.0396 -0.5453 -0.2779
H34 H 0.0473 -0.4830 -0.2335
N12 N 0.0973(12) -0.5996(10) -0.2319(7)
C41 C 0.0936(16) -0.6563(14) -0.2679(10)
H35 H 0.0360 -0.6718 -0.3043
C42 C 0.1888(15) -0.6887(13) -0.2427(9)
H36 H 0.2103 -0.7303 -0.2581
C43 C 0.2472(15) -0.6476(13) -0.1896(9)
C44 C 0.3511(13) -0.6530(11) -0.1447(8)
C45 C 0.4184(16) -0.7084(14) -0.1448(10)
H37 H 0.3967 -0.7457 -0.1763
C46 C 0.5155(17) -0.7081(15) -0.0993(11)
H38 H 0.5628 -0.7443 -0.0993
C47 C 0.5457(19) -0.6554(16) -0.0530(12)
H39 H 0.6131 -0.6560 -0.0205
C48 C 0.4763(19) -0.6022(17) -0.0549(12)
H40 H 0.4969 -0.5647 -0.0237
Cu2A Cu -0.3039(2) -0.44943(19) -0.26424(13)
N5A N 0.2153(8) 0.0901(7) -0.2121(5)
N7A N 0.4114(9) 0.0710(8) -0.1456(5)
W1 W 0.07679(6) -0.40215(5) -0.36757(3)
W2 W -0.10978(6) -0.55806(5) -0.42387(4)
W3 W 0.18271(6) -0.34139(5) -0.44536(4)
W4 W 0.24233(5) -0.53790(5) -0.37569(4)
W5 W 0.05761(6) -0.69593(5) -0.42997(4)
W6 W 0.16393(5) -0.63788(5) -0.50739(4)
Si1 Si 0.0000 -0.5000 -0.5000
O1 O 0.0831(15) -0.5696(13) -0.4648(10)
O2 O -0.1818(11) -0.4619(10) -0.4633(7)
O3 O 0.2590(13) -0.4332(11) -0.4030(8)
O4 O -0.0017(11) -0.4896(9) -0.3681(7)
O5 O 0.1155(11) -0.7093(10) -0.4742(7)
O6 O 0.3579(12) -0.5554(11) -0.3169(8)
O7 O 0.1690(11) -0.6333(10) -0.3776(7)
O8 O 0.1378(12) -0.3314(10) -0.3947(7)
O9 O -0.0434(12) -0.3463(10) -0.4203(7)
O10 O 0.0849(12) -0.7894(10) -0.3963(7)
O11 O 0.0668(11) -0.2806(10) -0.5013(7)
O12 O -0.0123(12) -0.6467(11) -0.4011(7)
O13 O -0.1906(11) -0.6165(10) -0.4940(7)
O14 O 0.2520(11) -0.5915(10) -0.4330(7)
O15 O 0.2702(9) -0.2668(8) -0.4189(6)
O16 O 0.1111(9) -0.3552(8) -0.3057(6)
O17 O 0.2415(9) -0.7026(8) -0.5126(6)
O18 O -0.1581(9) -0.5859(8) -0.3861(6)
O19 O 0.1834(11) -0.4795(10) -0.3421(7)
O20 O 0.0979(14) -0.4598(12) -0.4413(9)
O21 O -0.0423(16) -0.5788(14) -0.4824(10)
O22 O 0.0372(16) -0.5350(14) -0.5415(10)
O1B O -0.0831(15) -0.4304(13) -0.5352(10)
O20B O -0.0979(14) -0.5402(12) -0.5587(9)
O21B O 0.0423(16) -0.4212(14) -0.5176(10)
O22B O -0.0372(16) -0.4650(14) -0.4585(10)
W1B W -0.07679(6) -0.59785(5) -0.63243(3)
W2B W 0.10978(6) -0.44194(5) -0.57613(4)
W3B W -0.18271(6) -0.65861(5) -0.55464(4)
W4B W -0.24233(5) -0.46210(5) -0.62431(4)
W5B W -0.05761(6) -0.30407(5) -0.57003(4)
W6B W -0.16393(5) -0.36212(5) -0.49261(4)
O2B O 0.1818(11) -0.5381(10) -0.5367(7)
O3B O -0.2590(13) -0.5668(11) -0.5970(8)
O4B O 0.0017(11) -0.5104(9) -0.6319(7)
O5B O -0.1155(11) -0.2907(10) -0.5258(7)
O6B O -0.3579(12) -0.4446(11) -0.6831(8)
O7B O -0.1690(11) -0.3667(10) -0.6224(7)
O8B O -0.1378(12) -0.6686(10) -0.6053(7)
O9B O 0.0434(12) -0.6537(10) -0.5797(7)
O10B O -0.0849(12) -0.2106(10) -0.6037(7)
O11B O -0.0668(11) -0.7194(10) -0.4987(7)
O12B O 0.0123(12) -0.3533(11) -0.5989(7)
O13B O 0.1906(11) -0.3835(10) -0.5060(7)
O14B O -0.2520(11) -0.4085(10) -0.5670(7)
O15B O -0.2702(9) -0.7332(8) -0.5811(6)
O16B O -0.1111(9) -0.6448(8) -0.6943(6)
O17B O -0.2415(9) -0.2974(8) -0.4874(6)
O18B O 0.1581(9) -0.4141(8) -0.6139(6)
O19B O -0.1834(11) -0.5205(10) -0.6579(7)
loop_
_geom_bond_atom_site_label_1
_geom_bond_atom_site_label_2
_geom_bond_site_symmetry_1
_geom_bond_site_symmetry_2
W1 O4 1_555 1_555
W2 O2 1_555 1_555
W3 O3 1_555 1_555
W4 O1 1_555 1_555
W5 O1 1_555 1_555
W6 O1 1_555 1_555
Si1 O1 1_555 1_555
O1 O21 1_555 1_555
O2 W6B 1_555 1_555
O3 W4 1_555 1_555
O4 W2 1_555 1_555
O5 W5 1_555 1_555
O6 W4 1_555 1_555
O7 W4 1_555 1_555
O8 W1 1_555 1_555
O9 W1 1_555 1_555
O10 W5 1_555 1_555
O11 W3 1_555 1_555
O12 W2 1_555 1_555
O13 W2 1_555 1_555
O14 W4 1_555 1_555
O15 W3 1_555 1_555
O16 W1 1_555 1_555
O17 W6 1_555 1_555
O18 W2 1_555 1_555
O19 W1 1_555 1_555
O20 W1 1_555 1_555
O21 W2 1_555 1_555
O22 W6 1_555 1_555
Cu1 N1 1_555 1_555
Cu2 N8 1_555 1_555
N1 N11 1_555 1_555
N2 Cu1 1_555 1_555
N3 Cu1 1_555 1_555
N4 Cu1 1_555 1_555
N5 C1 1_555 1_555
C1 C2 1_555 1_555
C2 H1 1_555 1_555
C3 C2 1_555 1_555
H2 C3 1_555 1_555
N6 N5 1_555 1_555
N7 C4 1_555 1_555
C4 H3 1_555 1_555
C5 C4 1_555 1_555
H4 C5 1_555 1_555
C6 C5 1_555 1_555
H5 C6 1_555 1_555
C7 C6 1_555 1_555
H6 C7 1_555 1_555
C8 C1 1_555 1_555
N8 N9 1_555 1_555
N9 C9 1_555 1_555
C9 H7 1_555 1_555
C10 C9 1_555 1_555
H8 C10 1_555 1_555
C11 N8 1_555 1_555
N10 Cu2 1_555 1_555
C12 C11 1_555 1_555
C13 C12 1_555 1_555
H9 C13 1_555 1_555
C14 C13 1_555 1_555
H10 C14 1_555 1_555
C15 C14 1_555 1_555
H11 C15 1_555 1_555
C16 N10 1_555 1_555
H12 C16 1_555 1_555
N11 C17 1_555 1_555
C17 H13 1_555 1_555
C18 C17 1_555 1_555
H14 C18 1_555 1_555
C19 N1 1_555 1_555
C20 N4 1_555 1_555
C21 C20 1_555 1_555
H15 C21 1_555 1_555
C22 C21 1_555 1_555
H16 C22 1_555 1_555
C23 C22 1_555 1_555
H17 C23 1_555 1_555
C24 N4 1_555 1_555
H18 C24 1_555 1_555
C25 N11 1_555 1_555
H19 C25 1_555 1_555
H20 C25 1_555 1_555
C26 C25 1_555 1_555
C27 C26 1_555 1_555
H21 C27 1_555 1_555
C28 C27 1_555 1_555
H22 C28 1_555 1_555
C29 C28 1_555 1_555
H23 C29 1_555 1_555
C30 C29 1_555 1_555
H24 C30 1_555 1_555
C31 C26 1_555 1_555
C32 N9 1_555 1_555
H25 C32 1_555 1_555
H26 C32 1_555 1_555
C33 N6 1_555 1_555
H27 C33 1_555 1_555
H28 C33 1_555 1_555
C34 C33 1_555 1_555
C35 C34 1_555 1_555
H29 C35 1_555 1_555
C36 C35 1_555 1_555
H30 C36 1_555 1_555
C37 C36 1_555 1_555
H31 C37 1_555 1_555
C38 C37 1_555 1_555
H32 C38 1_555 1_555
C39 C34 1_555 1_555
C40 C39 1_555 1_555
H33 C40 1_555 1_555
H34 C40 1_555 1_555
N12 N3 1_555 1_555
C41 N12 1_555 1_555
H35 C41 1_555 1_555
C42 C41 1_555 1_555
H36 C42 1_555 1_555
C43 N3 1_555 1_555
C44 N2 1_555 1_555
C45 C44 1_555 1_555
H37 C45 1_555 1_555
C46 C45 1_555 1_555
H38 C46 1_555 1_555
C47 C46 1_555 1_555
H39 C47 1_555 1_555
C48 N2 1_555 1_555
H40 C48 1_555 1_555
O1B Si1 1_555 1_555
O20B Si1 1_555 1_555
O21B W3 1_555 1_555
O22B W1 1_555 1_555
W1B O22 1_555 1_555
W2B O22 1_555 1_555
W3B O13 1_555 1_555
W4B O1B 1_555 1_555
W5B O11 1_555 1_555
W6B O9 1_555 1_555
O2B W6 1_555 1_555
O3B W3B 1_555 1_555
O4B W1B 1_555 1_555
O5B W5B 1_555 1_555
O6B W4B 1_555 1_555
O7B W4B 1_555 1_555
O8B W1B 1_555 1_555
O9B W6 1_555 1_555
O10B W5B 1_555 1_555
O11B W5 1_555 1_555
O12B W2B 1_555 1_555
O13B W3 1_555 1_555
O14B W4B 1_555 1_555
O15B W3B 1_555 1_555
O16B W1B 1_555 1_555
O17B W6B 1_555 1_555
O18B W2B 1_555 1_555
O19B W1B 1_555 1_555
Cu2A N5 1_555 1_555
N5A Cu2 1_555 1_555
N7A Cu2 1_555 1_555
W2 O22B 1_555 1_555
W3 O8 1_555 1_555
W3 O20 1_555 1_555
W4 O19 1_555 1_555
W4 O20 1_555 1_555
W5 O7 1_555 1_555
W5 O12 1_555 1_555
W5 O21 1_555 1_555
W6 O5 1_555 1_555
W6 O14 1_555 1_555
Si1 O20 1_555 1_555
Si1 O21 1_555 1_555
Si1 O22 1_555 1_555
Si1 O21B 1_555 1_555
Si1 O22B 1_555 1_555
O21 W3B 1_555 1_555
C3 N6 1_555 1_555
N7 C8 1_555 1_555
N7 Cu2A 1_555 1_555
C7 C8 1_555 1_555
C10 C11 1_555 1_555
N10 C12 1_555 1_555
C15 C16 1_555 1_555
C18 C19 1_555 1_555
C19 C20 1_555 1_555
C23 C24 1_555 1_555
C30 C31 1_555 1_555
C31 C32 1_555 1_555
C38 C39 1_555 1_555
C40 N12 1_555 1_555
C42 C43 1_555 1_555
C43 C44 1_555 1_555
C47 C48 1_555 1_555
O1B O21B 1_555 1_555
O1B W5B 1_555 1_555
O1B W6B 1_555 1_555
O20B W1B 1_555 1_555
O20B W3B 1_555 1_555
O20B W4B 1_555 1_555
O21B W2B 1_555 1_555
O21B W5B 1_555 1_555
O22B W6B 1_555 1_555
W1B O9B 1_555 1_555
W2B O2B 1_555 1_555
W2B O4B 1_555 1_555
W2B O13B 1_555 1_555
W3B O8B 1_555 1_555
W3B O11B 1_555 1_555
W4B O3B 1_555 1_555
W4B O19B 1_555 1_555
W5B O7B 1_555 1_555
W5B O12B 1_555 1_555
W6B O5B 1_555 1_555
W6B O14B 1_555 1_555

#END
