
#######################################################################
#
#                 Cambridge Crystallographic Data Centre
#                                CCDC 
#
#######################################################################
#
# If this CIF has been generated from an entry in the Cambridge 
# Structural Database, then it will include bibliographic, chemical, 
# crystal, experimental, refinement or atomic coordinate data resulting 
# from the CCDC's data processing and validation procedures.
#
#######################################################################

data_CIKROF
_symmetry_cell_setting           triclinic
_symmetry_space_group_name_H-M   'P -1'
_symmetry_Int_Tables_number      2
_space_group_name_Hall           '-P 1'
loop_
_symmetry_equiv_pos_site_id
_symmetry_equiv_pos_as_xyz
1 x,y,z
2 -x,-y,-z
_cell_length_a                   9.4993(18)
_cell_length_b                   9.9848(18)
_cell_length_c                   13.335(2)
_cell_angle_alpha                79.008(15)
_cell_angle_beta                 78.226(15)
_cell_angle_gamma                62.978(18)
_cell_volume                     1096.04
loop_
_atom_site_label
_atom_site_type_symbol
_atom_site_fract_x
_atom_site_fract_y
_atom_site_fract_z
Cu1 Cu 0.18117(12) 0.34314(12) 0.60783(8)
N1 N 0.3190(9) 0.4047(9) 0.4955(6)
N2 N 0.5282(9) 0.3918(9) 0.3826(6)
N3 N 1.0428(9) 0.2761(8) -0.2819(6)
N4 N 0.8331(11) 0.2763(9) -0.1732(7)
I1 I -0.20240(9) 0.80314(8) 1.00841(5)
O1 O 0.0359(8) 0.5534(6) 0.6410(5)
O2 O -0.0866(8) 0.7183(8) 0.5109(5)
O3 O -0.6132(8) 1.2592(7) 0.7450(5)
O4 O -0.6321(7) 1.1407(7) 0.6258(5)
C1 C -0.1490(11) 0.7537(10) 0.7833(7)
H1 H -0.0602 0.6672 0.8026
C2 C -0.2467(11) 0.8506(11) 0.8555(7)
C3 C -0.3815(11) 0.9792(10) 0.8256(8)
H2 H -0.4474 1.0467 0.8731
C4 C -0.4171(10) 1.0066(10) 0.7257(8)
C5 C -0.3159(10) 0.9077(10) 0.6534(7)
H3 H -0.3390 0.9253 0.5863
C6 C -0.1807(10) 0.7829(10) 0.6830(7)
C7 C -0.0679(10) 0.6749(10) 0.6026(8)
C8 C -0.5664(11) 1.1471(10) 0.6973(8)
C9 C 0.2902(13) 0.5484(12) 0.4465(8)
H4 H 0.1980 0.6364 0.4592
C10 C 0.4191(12) 0.5389(12) 0.3769(8)
H5 H 0.4309 0.6187 0.3332
C11 C 0.4644(12) 0.3130(11) 0.4528(8)
H6 H 0.5140 0.2088 0.4698
C12 C 0.6897(12) 0.3307(15) 0.3226(8)
H7 H 0.7509 0.2273 0.3509
H8 H 0.7441 0.3901 0.3288
C13 C 0.6820(11) 0.3338(12) 0.2094(8)
C14 C 0.6220(12) 0.2474(12) 0.1786(8)
H9 H 0.5819 0.1896 0.2280
C15 C 0.6206(12) 0.2458(12) 0.0755(8)
H10 H 0.5806 0.1864 0.0563
C16 C 0.6780(11) 0.3315(11) 0.0012(8)
C17 C 0.7352(11) 0.4193(12) 0.0327(8)
H11 H 0.7737 0.4786 -0.0164
C18 C 0.7359(12) 0.4203(12) 0.1365(8)
H12 H 0.7738 0.4811 0.1562
C19 C 0.6738(11) 0.3334(12) -0.1116(8)
H13 H 0.6214 0.2723 -0.1180
H14 H 0.6105 0.4364 -0.1395
C20 C 0.8978(11) 0.3585(10) -0.2357(7)
H15 H 0.8473 0.4635 -0.2463
C21 C 1.0679(14) 0.1328(12) -0.2445(9)
H16 H 1.1604 0.0475 -0.2622
C22 C 0.9411(13) 0.1291(12) -0.1778(8)
H17 H 0.9301 0.0438 -0.1425
Cu1_2 Cu -0.81883(12) 1.34314(12) 0.60783(8)
Cu1_3 Cu 1.18117(12) 0.34314(12) -0.39217(8)
Cu1A Cu -0.18117(12) 0.65686(12) 0.39217(8)
N3_2 N 0.0428(9) 0.2761(8) 0.7181(6)
O2A O 0.0866(8) 0.2817(8) 0.4891(5)
O3_2 O 0.3868(8) 0.2592(7) 0.7450(5)
O4_2 O 0.3679(7) 0.1407(7) 0.6258(5)
loop_
_geom_bond_atom_site_label_1
_geom_bond_atom_site_label_2
_geom_bond_site_symmetry_1
_geom_bond_site_symmetry_2
Cu1 N1 1_555 1_555
N1 C9 1_555 1_555
N2 C10 1_555 1_555
N3 C20 1_555 1_555
N4 C19 1_555 1_555
I1 C2 1_555 1_555
O1 Cu1 1_555 1_555
O2 C7 1_555 1_555
O3 C8 1_555 1_555
O4 C8 1_555 1_555
C1 H1 1_555 1_555
C2 C1 1_555 1_555
C3 C2 1_555 1_555
H2 C3 1_555 1_555
C4 C3 1_555 1_555
C5 C4 1_555 1_555
H3 C5 1_555 1_555
C6 C1 1_555 1_555
C7 O1 1_555 1_555
C8 C4 1_555 1_555
C9 H4 1_555 1_555
C10 C9 1_555 1_555
H5 C10 1_555 1_555
C11 N1 1_555 1_555
H6 C11 1_555 1_555
C12 N2 1_555 1_555
H7 C12 1_555 1_555
H8 C12 1_555 1_555
C13 C12 1_555 1_555
C14 C13 1_555 1_555
H9 C14 1_555 1_555
C15 C14 1_555 1_555
H10 C15 1_555 1_555
C16 C15 1_555 1_555
C17 C16 1_555 1_555
H11 C17 1_555 1_555
C18 C13 1_555 1_555
H12 C18 1_555 1_555
C19 C16 1_555 1_555
H13 C19 1_555 1_555
H14 C19 1_555 1_555
C20 N4 1_555 1_555
H15 C20 1_555 1_555
C21 N3 1_555 1_555
H16 C21 1_555 1_555
C22 N4 1_555 1_555
H17 C22 1_555 1_555
Cu1_2 O3 1_555 1_555
Cu1_3 N3 1_555 1_555
Cu1A O2 1_555 1_555
N3_2 Cu1 1_555 1_555
O2A Cu1 1_555 1_555
O3_2 Cu1 1_555 1_555
O4_2 Cu1 1_555 1_555
N2 C11 1_555 1_555
O4 Cu1_2 1_555 1_555
C5 C6 1_555 1_555
C6 C7 1_555 1_555
C17 C18 1_555 1_555
C21 C22 1_555 1_555

#END
