
#######################################################################
#
#                 Cambridge Crystallographic Data Centre
#                                CCDC 
#
#######################################################################
#
# If this CIF has been generated from an entry in the Cambridge 
# Structural Database, then it will include bibliographic, chemical, 
# crystal, experimental, refinement or atomic coordinate data resulting 
# from the CCDC's data processing and validation procedures.
#
#######################################################################

data_CIKRIZ
_symmetry_cell_setting           orthorhombic
_symmetry_space_group_name_H-M   'P n m a'
_symmetry_Int_Tables_number      62
_space_group_name_Hall           '-P 2ac 2n'
loop_
_symmetry_equiv_pos_site_id
_symmetry_equiv_pos_as_xyz
1 x,y,z
2 1/2-x,-y,1/2+z
3 -x,1/2+y,-z
4 1/2+x,1/2-y,1/2-z
5 -x,-y,-z
6 1/2+x,y,1/2-z
7 x,1/2-y,z
8 1/2-x,1/2+y,1/2+z
_cell_length_a                   20.1360(15)
_cell_length_b                   17.8880(15)
_cell_length_c                   12.2967(14)
_cell_angle_alpha                90
_cell_angle_beta                 90
_cell_angle_gamma                90
_cell_volume                     4429.18
loop_
_atom_site_label
_atom_site_type_symbol
_atom_site_fract_x
_atom_site_fract_y
_atom_site_fract_z
Cu1 Cu 1.0000 0.0000 1.0000
Cu2 Cu 0.75639(3) 0.2500 0.25345(6)
N1 N 0.75694(17) 0.1382(2) 0.2701(3)
N2 N 0.96868(17) -0.00367(17) 0.8447(3)
O1 O 0.68479(18) 0.2500 0.1467(3)
O2 O 0.6309(2) 0.2500 0.3046(3)
O3 O 0.3311(2) 0.2500 0.1425(4)
O4 O 0.3817(2) 0.2500 0.3003(4)
O5 O 0.98419(13) -0.11034(14) 1.0135(2)
O6 O 0.89295(14) -0.05031(13) 1.0610(2)
I1 I 0.51005(3) 0.2500 -0.19798(4)
I2 I 0.70517(2) -0.2500 1.21918(5)
C1 C 0.5078(3) 0.2500 -0.0279(5)
C2 C 0.4482(3) 0.2500 0.0276(5)
H1 H 0.4083 0.2500 -0.0103
C3 C 0.4484(3) 0.2500 0.1400(5)
C4 C 0.5072(3) 0.2500 0.1958(5)
H2 H 0.5065 0.2500 0.2714
C5 C 0.5673(3) 0.2500 0.1421(5)
C6 C 0.5679(3) 0.2500 0.0293(5)
H3 H 0.6080 0.2500 -0.0081
C7 C 0.6315(3) 0.2500 0.2041(5)
C8 C 0.3831(3) 0.2500 0.1999(5)
C9 C 0.7213(2) 0.1092(3) 0.3517(4)
H4 H 0.6874 0.1378 0.3818
C10 C 0.7327(2) 0.0390(3) 0.3930(4)
H5 H 0.7064 0.0209 0.4492
C11 C 0.7829(2) -0.0045(2) 0.3517(4)
C12 C 0.8175(2) 0.0243(3) 0.2641(4)
H6 H 0.8506 -0.0041 0.2311
C13 C 0.8033(2) 0.0942(3) 0.2256(4)
H7 H 0.8269 0.1120 0.1660
C14 C 0.8010(3) -0.0774(2) 0.4051(4)
H8 H 0.8325 -0.1039 0.3596
H9 H 0.7615 -0.1081 0.4116
C15 C 0.8312(2) -0.0656(2) 0.5179(4)
H10 H 0.8395 -0.1140 0.5506
H11 H 0.7991 -0.0398 0.5632
C16 C 0.8959(2) -0.0209(3) 0.5176(4)
H12 H 0.9284 -0.0461 0.4723
H13 H 0.8879 0.0282 0.4869
C17 C 0.9231(2) -0.0127(2) 0.6309(4)
C18 C 0.9709(2) -0.0606(2) 0.6704(4)
H14 H 0.9893 -0.0967 0.6251
C19 C 0.9916(2) -0.0551(2) 0.7762(4)
H15 H 1.0231 -0.0889 0.8014
C20 C 0.9241(3) 0.0440(3) 0.8056(4)
H16 H 0.9082 0.0814 0.8512
C21 C 0.9004(3) 0.0406(3) 0.7012(4)
H17 H 0.8687 0.0748 0.6781
C22 C 0.9242(2) -0.1095(2) 1.0474(3)
C23 C 0.9224(3) -0.2500 1.0456(4)
H18 H 0.9641 -0.2500 1.0130
C24 C 0.89135(18) -0.18270(18) 1.0698(3)
C25 C 0.82949(19) -0.1830(2) 1.1185(3)
H19 H 0.8086 -0.1380 1.1349
C26 C 0.7986(3) -0.2500 1.1427(5)
O5F O 0.98419(13) -0.38966(14) 1.0135(2)
O6F O 0.89295(14) -0.44969(13) 1.0610(2)
C22F C 0.9242(2) -0.3905(2) 1.0474(3)
C24F C 0.89135(18) -0.31730(18) 1.0698(3)
C25F C 0.82949(19) -0.3170(2) 1.1185(3)
H19F H 0.8086 -0.3620 1.1349
N1D N 1.24306(17) -0.1382(2) 1.7299(3)
N2D N 1.03132(17) 0.00367(17) 1.1553(3)
C9D C 1.2787(2) -0.1092(3) 1.6483(4)
H4D H 1.3126 -0.1378 1.6182
C10D C 1.2673(2) -0.0390(3) 1.6070(4)
H5D H 1.2936 -0.0209 1.5508
C11D C 1.2171(2) 0.0045(2) 1.6483(4)
C12D C 1.1825(2) -0.0243(3) 1.7359(4)
H6D H 1.1494 0.0041 1.7689
C13D C 1.1967(2) -0.0942(3) 1.7744(4)
H7D H 1.1731 -0.1120 1.8340
C14D C 1.1990(3) 0.0774(2) 1.5949(4)
H8D H 1.1675 0.1039 1.6404
H9D H 1.2385 0.1081 1.5884
C15D C 1.1688(2) 0.0656(2) 1.4821(4)
H10D H 1.1605 0.1140 1.4494
H11D H 1.2009 0.0398 1.4368
C16D C 1.1041(2) 0.0209(3) 1.4824(4)
H12D H 1.0716 0.0461 1.5277
H13D H 1.1121 -0.0282 1.5131
C17D C 1.0769(2) 0.0127(2) 1.3691(4)
C18D C 1.0291(2) 0.0606(2) 1.3296(4)
H14D H 1.0107 0.0967 1.3749
C19D C 1.0084(2) 0.0551(2) 1.2238(4)
H15D H 0.9769 0.0889 1.1986
C20D C 1.0759(3) -0.0440(3) 1.1944(4)
H16D H 1.0918 -0.0814 1.1488
C21D C 1.0996(3) -0.0406(3) 1.2988(4)
H17D H 1.1313 -0.0748 1.3219
Cu1B Cu 1.0000 -0.5000 1.0000
Cu2B Cu 1.24361(3) -0.2500 1.74655(6)
Cu2C Cu 0.25639(3) 0.2500 0.24655(6)
N1F N 0.75694(17) 0.3618(2) 0.2701(3)
O3C O 0.8311(2) 0.2500 0.3575(4)
O4C O 0.8817(2) 0.2500 0.1997(4)
O5D O 1.01581(13) 0.11034(14) 0.9865(2)
O6D O 1.10705(14) 0.05031(13) 0.9390(2)
O7 O 0.8876(5) 0.1860(5) -0.0153(7)
H20 H 0.8841 0.1810 0.0532
H21 H 0.9238 0.1621 -0.0162
loop_
_geom_bond_atom_site_label_1
_geom_bond_atom_site_label_2
_geom_bond_site_symmetry_1
_geom_bond_site_symmetry_2
Cu1 N2 1_555 1_555
Cu2 N1 1_555 1_555
N1 C9 1_555 1_555
N2 C19 1_555 1_555
O1 Cu2 1_555 1_555
O2 Cu2 1_555 1_555
O3 C8 1_555 1_555
O4 C8 1_555 1_555
O5 Cu1 1_555 1_555
O6 Cu1 1_555 1_555
I1 C1 1_555 1_555
I2 C26 1_555 1_555
C1 C2 1_555 1_555
C2 H1 1_555 1_555
C3 C2 1_555 1_555
C4 C3 1_555 1_555
H2 C4 1_555 1_555
C5 C4 1_555 1_555
C6 C1 1_555 1_555
H3 C6 1_555 1_555
C7 O1 1_555 1_555
C8 C3 1_555 1_555
C9 H4 1_555 1_555
C10 C9 1_555 1_555
H5 C10 1_555 1_555
C11 C10 1_555 1_555
C12 C11 1_555 1_555
H6 C12 1_555 1_555
C13 N1 1_555 1_555
H7 C13 1_555 1_555
C14 C11 1_555 1_555
H8 C14 1_555 1_555
H9 C14 1_555 1_555
C15 C14 1_555 1_555
H10 C15 1_555 1_555
H11 C15 1_555 1_555
C16 C15 1_555 1_555
H12 C16 1_555 1_555
H13 C16 1_555 1_555
C17 C16 1_555 1_555
C18 C17 1_555 1_555
H14 C18 1_555 1_555
C19 C18 1_555 1_555
H15 C19 1_555 1_555
C20 N2 1_555 1_555
H16 C20 1_555 1_555
C21 C17 1_555 1_555
H17 C21 1_555 1_555
C22 O5 1_555 1_555
C23 H18 1_555 1_555
C24 C22 1_555 1_555
C25 C24 1_555 1_555
H19 C25 1_555 1_555
C26 C25 1_555 1_555
O7 H20 1_555 1_555
H21 O7 1_555 1_555
O5F C22F 1_555 1_555
O6F C22F 1_555 1_555
C22F C24F 1_555 1_555
C24F C23 1_555 1_555
C25F C26 1_555 1_555
H19F C25F 1_555 1_555
N1D C9D 1_555 1_555
N2D Cu1 1_555 1_555
C9D H4D 1_555 1_555
C10D C9D 1_555 1_555
H5D C10D 1_555 1_555
C11D C10D 1_555 1_555
C12D C11D 1_555 1_555
H6D C12D 1_555 1_555
C13D N1D 1_555 1_555
H7D C13D 1_555 1_555
C14D C11D 1_555 1_555
H8D C14D 1_555 1_555
H9D C14D 1_555 1_555
C15D C14D 1_555 1_555
H10D C15D 1_555 1_555
H11D C15D 1_555 1_555
C16D C15D 1_555 1_555
H12D C16D 1_555 1_555
H13D C16D 1_555 1_555
C17D C16D 1_555 1_555
C18D C17D 1_555 1_555
H14D C18D 1_555 1_555
C19D N2D 1_555 1_555
H15D C19D 1_555 1_555
C20D N2D 1_555 1_555
H16D C20D 1_555 1_555
C21D C17D 1_555 1_555
H17D C21D 1_555 1_555
Cu1B O5F 1_555 1_555
Cu2B N1D 1_555 1_555
Cu2C O3 1_555 1_555
N1F Cu2 1_555 1_555
O3C Cu2 1_555 1_555
O4C Cu2 1_555 1_555
O5D Cu1 1_555 1_555
O6D Cu1 1_555 1_555
O2 C7 1_555 1_555
O4 Cu2C 1_555 1_555
O6 C22 1_555 1_555
C5 C6 1_555 1_555
C5 C7 1_555 1_555
C12 C13 1_555 1_555
C20 C21 1_555 1_555
C23 C24 1_555 1_555
O6F Cu1B 1_555 1_555
C24F C25F 1_555 1_555
C12D C13D 1_555 1_555
C18D C19D 1_555 1_555
C20D C21D 1_555 1_555

#END
