
#######################################################################
#
#                 Cambridge Crystallographic Data Centre
#                                CCDC 
#
#######################################################################
#
# If this CIF has been generated from an entry in the Cambridge 
# Structural Database, then it will include bibliographic, chemical, 
# crystal, experimental, refinement or atomic coordinate data resulting 
# from the CCDC's data processing and validation procedures.
#
#######################################################################

data_CIKVUP
_symmetry_cell_setting           monoclinic
_symmetry_space_group_name_H-M   'P 21/c'
_symmetry_Int_Tables_number      14
_space_group_name_Hall           '-P 2ybc'
loop_
_symmetry_equiv_pos_site_id
_symmetry_equiv_pos_as_xyz
1 x,y,z
2 -x,1/2+y,1/2-z
3 -x,-y,-z
4 x,1/2-y,1/2+z
_cell_length_a                   14.4783(4)
_cell_length_b                   17.1227(5)
_cell_length_c                   12.3520(3)
_cell_angle_alpha                90
_cell_angle_beta                 100.9700(10)
_cell_angle_gamma                90
_cell_volume                     3006.2
loop_
_atom_site_label
_atom_site_type_symbol
_atom_site_fract_x
_atom_site_fract_y
_atom_site_fract_z
Cu1 Cu 0.14208(5) 0.61311(5) 0.66275(6)
Cu2 Cu 0.44051(4) 0.54198(4) 0.54467(5)
O1 O 0.4272(3) 0.9013(2) 0.9032(3)
O2 O 0.5286(3) 0.9709(2) 0.8282(3)
O3 O 0.2448(3) 0.6887(2) 0.6749(3)
O4 O 0.3423(3) 0.6121(2) 0.6056(3)
O5 O 0.3436(2) 0.4684(2) 0.4719(3)
O6 O 0.4456(2) 0.3987(2) 0.3962(3)
O7 O -0.0074(3) 0.4125(3) 0.3270(3)
O8 O -0.0350(3) 0.2915(3) 0.2892(6)
N1 N 0.1930(3) 0.5621(3) 0.8030(4)
N2 N 0.2028(4) 0.4969(4) 0.9577(4)
N3 N 0.1141(4) 0.6210(3) 1.3257(4)
N4 N 0.1074(4) 0.6099(4) 1.4989(5)
I1 I 0.54697(4) 0.84611(3) 0.41611(4)
I2 I 0.26896(3) 0.14687(3) 0.16725(5)
C1 C 0.4847(4) 0.8254(4) 0.5532(4)
C2 C 0.4980(4) 0.8772(3) 0.6410(4)
H1 H 0.5359 0.9210 0.6408
C3 C 0.4540(4) 0.8629(3) 0.7287(4)
C4 C 0.3958(4) 0.7990(3) 0.7277(4)
H2 H 0.3643 0.7912 0.7858
C5 C 0.3837(3) 0.7459(3) 0.6407(4)
C6 C 0.4297(4) 0.7588(3) 0.5539(4)
H3 H 0.4238 0.7232 0.4962
C7 C 0.4713(4) 0.9163(3) 0.8280(4)
C8 C 0.3212(4) 0.6762(3) 0.6402(4)
C9 C 0.2361(4) 0.2487(4) 0.2478(5)
C10 C 0.3082(4) 0.2962(4) 0.3003(4)
H4 H 0.3706 0.2840 0.2991
C11 C 0.2858(4) 0.3627(3) 0.3548(4)
C12 C 0.1919(4) 0.3816(4) 0.3555(4)
H5 H 0.1771 0.4265 0.3908
C13 C 0.1211(4) 0.3323(4) 0.3027(5)
C14 C 0.1434(4) 0.2665(4) 0.2483(5)
H6 H 0.0958 0.2341 0.2120
C15 C 0.3646(4) 0.4142(3) 0.4123(4)
C16 C 0.0200(4) 0.3465(4) 0.3058(6)
C17 C 0.1463(5) 0.5255(4) 0.8693(6)
H7 H 0.0811 0.5202 0.8557
C18 C 0.2859(5) 0.5558(6) 0.8532(7)
H8 H 0.3363 0.5759 0.8253
C19 C 0.2931(6) 0.5165(6) 0.9488(7)
H9 H 0.3481 0.5048 0.9986
C20 C 0.1728(6) 0.4559(5) 1.0501(6)
H10 H 0.2269 0.4313 1.0959
H11 H 0.1281 0.4153 1.0214
C21 C 0.1274(5) 0.5125(5) 1.1198(6)
H12 H 0.0753 0.5387 1.0729
H13 H 0.1024 0.4832 1.1749
C22 C 0.1955(6) 0.5731(6) 1.1769(6)
H14 H 0.2396 0.5474 1.2350
H15 H 0.2312 0.5932 1.1240
C23 C 0.1533(6) 0.6401(5) 1.2259(7)
H16 H 0.1034 0.6618 1.1704
H17 H 0.2010 0.6802 1.2451
C24 C 0.1617(6) 0.6217(5) 1.4281(6)
H18 H 0.2263 0.6296 1.4472
C25 C 0.0200(5) 0.5974(4) 1.4373(6)
H19 H -0.0338 0.5852 1.4647
C26 C 0.0249(5) 0.6056(4) 1.3294(7)
H20 H -0.0247 0.6013 1.2695
Cu1_2 Cu 0.14208(5) 0.61311(5) 1.66275(6)
Cu1B Cu -0.14208(5) 0.38689(5) 0.33725(6)
Cu2A Cu 0.55949(4) 1.04198(4) 0.95533(5)
Cu2B Cu 0.55949(4) 0.45802(4) 0.45533(5)
Cu2C Cu 0.44051(4) 0.95802(4) 1.04467(5)
O1C O 0.4272(3) 0.5987(2) 0.4032(3)
O2A O 0.4714(3) 0.4709(2) 0.6718(3)
O6B O 0.5544(2) 0.6013(2) 0.6038(3)
O7B O 0.0074(3) 0.5875(3) 0.6730(3)
O8B O 0.0350(3) 0.7085(3) 0.7108(6)
N4_2 N 0.1074(4) 0.6099(4) 0.4989(5)
O9 O 0.0331(16) 0.6852(7) 0.9806(11)
H21 H -0.0049 0.6667 0.9256
H22 H 0.0878 0.6974 0.9707
loop_
_geom_bond_atom_site_label_1
_geom_bond_atom_site_label_2
_geom_bond_site_symmetry_1
_geom_bond_site_symmetry_2
Cu1 O3 1_555 1_555
Cu2 O4 1_555 1_555
O1 C7 1_555 1_555
O2 C7 1_555 1_555
O3 C8 1_555 1_555
O4 C8 1_555 1_555
O5 Cu2 1_555 1_555
O6 C15 1_555 1_555
O7 C16 1_555 1_555
O8 C16 1_555 1_555
N1 Cu1 1_555 1_555
N2 C17 1_555 1_555
N3 C23 1_555 1_555
N4 C24 1_555 1_555
I1 C1 1_555 1_555
I2 C9 1_555 1_555
C1 C2 1_555 1_555
C2 H1 1_555 1_555
C3 C2 1_555 1_555
C4 C3 1_555 1_555
H2 C4 1_555 1_555
C5 C4 1_555 1_555
C6 C1 1_555 1_555
H3 C6 1_555 1_555
C7 C3 1_555 1_555
C8 C5 1_555 1_555
C9 C10 1_555 1_555
C10 H4 1_555 1_555
C11 C10 1_555 1_555
C12 C11 1_555 1_555
H5 C12 1_555 1_555
C13 C12 1_555 1_555
C14 C9 1_555 1_555
H6 C14 1_555 1_555
C15 O5 1_555 1_555
C16 C13 1_555 1_555
C17 N1 1_555 1_555
H7 C17 1_555 1_555
C18 N1 1_555 1_555
H8 C18 1_555 1_555
C19 N2 1_555 1_555
H9 C19 1_555 1_555
C20 N2 1_555 1_555
H10 C20 1_555 1_555
H11 C20 1_555 1_555
C21 C20 1_555 1_555
H12 C21 1_555 1_555
H13 C21 1_555 1_555
C22 C21 1_555 1_555
H14 C22 1_555 1_555
H15 C22 1_555 1_555
C23 C22 1_555 1_555
H16 C23 1_555 1_555
H17 C23 1_555 1_555
C24 N3 1_555 1_555
H18 C24 1_555 1_555
C25 N4 1_555 1_555
H19 C25 1_555 1_555
C26 N3 1_555 1_555
H20 C26 1_555 1_555
O9 H21 1_555 1_555
H22 O9 1_555 1_555
Cu1_2 N4 1_555 1_555
Cu1B O7 1_555 1_555
Cu2A O2 1_555 1_555
Cu2B Cu2 1_555 1_555
Cu2C O1 1_555 1_555
O1C Cu2 1_555 1_555
O2A Cu2 1_555 1_555
O6B Cu2 1_555 1_555
O7B Cu1 1_555 1_555
O8B Cu1 1_555 1_555
N4_2 Cu1 1_555 1_555
O6 Cu2B 1_555 1_555
O8 Cu1B 1_555 1_555
C5 C6 1_555 1_555
C11 C15 1_555 1_555
C13 C14 1_555 1_555
C18 C19 1_555 1_555
C25 C26 1_555 1_555
Cu2A Cu2C 1_555 1_555

#END
