
#######################################################################
#
#                 Cambridge Crystallographic Data Centre
#                                CCDC 
#
#######################################################################
#
# If this CIF has been generated from an entry in the Cambridge 
# Structural Database, then it will include bibliographic, chemical, 
# crystal, experimental, refinement or atomic coordinate data resulting 
# from the CCDC's data processing and validation procedures.
#
#######################################################################

data_CIKVOJ
_symmetry_cell_setting           monoclinic
_symmetry_space_group_name_H-M   'C 2/c'
_symmetry_Int_Tables_number      15
_space_group_name_Hall           '-C 2yn'
loop_
_symmetry_equiv_pos_site_id
_symmetry_equiv_pos_as_xyz
1 x,y,z
2 -x,y,1/2-z
3 1/2+x,1/2+y,z
4 1/2-x,1/2+y,1/2-z
5 -x,-y,-z
6 x,-y,1/2+z
7 1/2-x,1/2-y,-z
8 1/2+x,1/2-y,1/2+z
_cell_length_a                   12.7032(4)
_cell_length_b                   22.4160(7)
_cell_length_c                   14.2465(6)
_cell_angle_alpha                90
_cell_angle_beta                 110.593(4)
_cell_angle_gamma                90
_cell_volume                     3797.54
loop_
_atom_site_label
_atom_site_type_symbol
_atom_site_fract_x
_atom_site_fract_y
_atom_site_fract_z
Cu1 Cu -0.2500 0.7500 0.0000
Cu2 Cu 0.5000 0.60530(4) 0.2500
O1 O 0.3405(2) 0.51875(15) 0.2368(3)
O2 O 0.3367(2) 0.61715(14) 0.2163(2)
O3 O -0.0313(2) 0.72428(14) 0.1140(3)
O4 O -0.1878(2) 0.67127(13) 0.0547(2)
N1 N 0.4796(3) 0.59853(19) 0.1056(3)
N2 N 0.5091(3) 0.5910(2) -0.0369(3)
N3 N -0.2822(3) 0.76820(18) 0.1231(3)
N4 N -0.2595(3) 0.78010(19) 0.2826(3)
I1 I -0.09353(2) 0.430020(14) 0.09942(3)
C1 C -0.0088(3) 0.51169(19) 0.1274(3)
C2 C 0.1071(3) 0.51268(19) 0.1646(3)
H1 H 0.1476 0.4772 0.1791
C3 C 0.1626(3) 0.56671(19) 0.1804(3)
C4 C 0.1016(3) 0.61948(19) 0.1606(3)
H2 H 0.1393 0.6558 0.1721
C5 C -0.0159(3) 0.61841(18) 0.1235(3)
C6 C -0.0708(3) 0.56406(19) 0.1064(3)
H3 H -0.1490 0.5626 0.0809
C7 C 0.2898(3) 0.5662(2) 0.2153(3)
C8 C -0.0811(3) 0.67606(19) 0.0970(3)
C9 C 0.3969(4) 0.5643(2) 0.0395(4)
H4 H 0.3375 0.5469 0.0534
C10 C 0.4137(4) 0.5595(2) -0.0482(4)
H5 H 0.3694 0.5388 -0.1049
C11 C 0.5465(4) 0.6130(3) 0.0556(4)
H6 H 0.6115 0.6358 0.0820
C12 C 0.5583(5) 0.5975(3) -0.1153(4)
H7 H 0.6251 0.6222 -0.0902
H8 H 0.5811 0.5585 -0.1309
C13 C 0.4814(5) 0.6237(3) -0.2058(4)
H9 H 0.4675 0.6647 -0.1914
H10 H 0.4104 0.6025 -0.2241
C14 C -0.2159(4) 0.7596(2) 0.2164(3)
H11 H -0.1459 0.7413 0.2343
C15 C -0.3593(5) 0.8055(3) 0.2277(5)
H12 H -0.4082 0.8254 0.2525
C16 C -0.3739(5) 0.7961(3) 0.1307(4)
H13 H -0.4373 0.8071 0.0768
C17 C -0.2079(4) 0.7809(2) 0.3921(4)
H14 H -0.1970 0.8220 0.4149
H15 H -0.1344 0.7622 0.4117
C18 C -0.2777(4) 0.7491(2) 0.4432(3)
H16 H -0.2880 0.7078 0.4212
H17 H -0.3512 0.7676 0.4237
N1A N 0.5204(3) 0.59853(19) -0.6056(3)
N2A N 0.4909(3) 0.5910(2) -0.4631(3)
C9A C 0.6031(4) 0.5643(2) -0.5395(4)
H4A H 0.6625 0.5469 -0.5534
C10A C 0.5863(4) 0.5595(2) -0.4518(4)
H5A H 0.6306 0.5388 -0.3951
C11A C 0.4535(4) 0.6130(3) -0.5556(4)
H6A H 0.3885 0.6358 -0.5820
C12A C 0.4417(5) 0.5975(3) -0.3847(4)
H7A H 0.3749 0.6222 -0.4098
H8A H 0.4189 0.5585 -0.3691
C13A C 0.5186(5) 0.6237(3) -0.2942(4)
H9A H 0.5325 0.6647 -0.3086
H10A H 0.5896 0.6025 -0.2759
N3F N -0.2178(3) 0.73180(18) 0.8769(3)
N4F N -0.2405(3) 0.71990(19) 0.7174(3)
C14F C -0.2841(4) 0.7404(2) 0.7836(3)
H11F H -0.3541 0.7587 0.7657
C15F C -0.1407(5) 0.6945(3) 0.7723(5)
H12F H -0.0918 0.6746 0.7475
C16F C -0.1261(5) 0.7039(3) 0.8693(4)
H13F H -0.0627 0.6929 0.9232
C17F C -0.2921(4) 0.7191(2) 0.6079(4)
H14F H -0.3030 0.6780 0.5851
H15F H -0.3656 0.7378 0.5883
C18F C -0.2223(4) 0.7509(2) 0.5568(3)
H16F H -0.2120 0.7922 0.5788
H17F H -0.1488 0.7324 0.5763
O1F O -0.8405(2) 0.98125(15) -0.2368(3)
O2F O -0.8367(2) 0.88285(14) -0.2163(2)
O3F O -0.4687(2) 0.77572(14) -0.1140(3)
O4F O -0.3122(2) 0.82873(13) -0.0547(2)
I1F I -0.40647(2) 1.069980(14) -0.09942(3)
C1F C -0.4912(3) 0.98831(19) -0.1274(3)
C2F C -0.6071(3) 0.98732(19) -0.1646(3)
H1F H -0.6476 1.0228 -0.1791
C3F C -0.6626(3) 0.93329(19) -0.1804(3)
C4F C -0.6016(3) 0.88052(19) -0.1606(3)
H2F H -0.6393 0.8442 -0.1721
C5F C -0.4841(3) 0.88159(18) -0.1235(3)
C6F C -0.4292(3) 0.93594(19) -0.1064(3)
H3F H -0.3510 0.9374 -0.0809
C7F C -0.7898(3) 0.9338(2) -0.2153(3)
C8F C -0.4189(3) 0.82394(19) -0.0970(3)
Cu1_2 Cu -0.2500 0.7500 1.0000
Cu2_2 Cu 0.5000 0.60530(4) -0.7500
Cu2F Cu -1.0000 0.89470(4) -0.2500
O1A O 0.6595(2) 0.51875(15) 0.2632(3)
O2A O 0.6633(2) 0.61715(14) 0.2837(2)
N1A_2 N 0.5204(3) 0.59853(19) 0.3944(3)
N3F_2 N -0.2178(3) 0.73180(18) -0.1231(3)
loop_
_geom_bond_atom_site_label_1
_geom_bond_atom_site_label_2
_geom_bond_site_symmetry_1
_geom_bond_site_symmetry_2
Cu1 O3 1_555 1_555
Cu2 O1 1_555 1_555
O1 C7 1_555 1_555
O2 Cu2 1_555 1_555
O3 C8 1_555 1_555
O4 Cu1 1_555 1_555
N1 Cu2 1_555 1_555
N2 C10 1_555 1_555
N3 Cu1 1_555 1_555
N4 C14 1_555 1_555
I1 C1 1_555 1_555
C1 C2 1_555 1_555
C2 H1 1_555 1_555
C3 C2 1_555 1_555
C4 C3 1_555 1_555
H2 C4 1_555 1_555
C5 C4 1_555 1_555
C6 C1 1_555 1_555
H3 C6 1_555 1_555
C7 O2 1_555 1_555
C8 O4 1_555 1_555
C9 N1 1_555 1_555
H4 C9 1_555 1_555
C10 C9 1_555 1_555
H5 C10 1_555 1_555
C11 N1 1_555 1_555
H6 C11 1_555 1_555
C12 N2 1_555 1_555
H7 C12 1_555 1_555
H8 C12 1_555 1_555
C13 C12 1_555 1_555
H9 C13 1_555 1_555
H10 C13 1_555 1_555
C14 N3 1_555 1_555
H11 C14 1_555 1_555
C15 N4 1_555 1_555
H12 C15 1_555 1_555
C16 N3 1_555 1_555
H13 C16 1_555 1_555
C17 N4 1_555 1_555
H14 C17 1_555 1_555
H15 C17 1_555 1_555
C18 C17 1_555 1_555
H16 C18 1_555 1_555
H17 C18 1_555 1_555
N1A C9A 1_555 1_555
N2A C10A 1_555 1_555
C9A H4A 1_555 1_555
C10A C9A 1_555 1_555
H5A C10A 1_555 1_555
C11A N1A 1_555 1_555
H6A C11A 1_555 1_555
C12A N2A 1_555 1_555
H7A C12A 1_555 1_555
H8A C12A 1_555 1_555
C13A C13 1_555 1_555
H9A C13A 1_555 1_555
H10A C13A 1_555 1_555
N3F C14F 1_555 1_555
N4F C14F 1_555 1_555
C14F H11F 1_555 1_555
C15F N4F 1_555 1_555
H12F C15F 1_555 1_555
C16F N3F 1_555 1_555
H13F C16F 1_555 1_555
C17F N4F 1_555 1_555
H14F C17F 1_555 1_555
H15F C17F 1_555 1_555
C18F C18 1_555 1_555
H16F C18F 1_555 1_555
H17F C18F 1_555 1_555
O1F C7F 1_555 1_555
O2F C7F 1_555 1_555
O3F Cu1 1_555 1_555
O4F Cu1 1_555 1_555
I1F C1F 1_555 1_555
C1F C2F 1_555 1_555
C2F H1F 1_555 1_555
C3F C2F 1_555 1_555
C4F C3F 1_555 1_555
H2F C4F 1_555 1_555
C5F C4F 1_555 1_555
C6F C1F 1_555 1_555
H3F C6F 1_555 1_555
C7F C3F 1_555 1_555
C8F O3F 1_555 1_555
Cu1_2 N3F 1_555 1_555
Cu2_2 N1A 1_555 1_555
Cu2F O1F 1_555 1_555
O1A Cu2 1_555 1_555
O2A Cu2 1_555 1_555
N1A_2 Cu2 1_555 1_555
N3F_2 Cu1 1_555 1_555
N2 C11 1_555 1_555
C3 C7 1_555 1_555
C5 C6 1_555 1_555
C5 C8 1_555 1_555
C15 C16 1_555 1_555
N2A C11A 1_555 1_555
C12A C13A 1_555 1_555
C15F C16F 1_555 1_555
C17F C18F 1_555 1_555
O2F Cu2F 1_555 1_555
O4F C8F 1_555 1_555
C5F C6F 1_555 1_555
C5F C8F 1_555 1_555

#END
