
#######################################################################
#
#                 Cambridge Crystallographic Data Centre
#                                CCDC 
#
#######################################################################
#
# If this CIF has been generated from an entry in the Cambridge 
# Structural Database, then it will include bibliographic, chemical, 
# crystal, experimental, refinement or atomic coordinate data resulting 
# from the CCDC's data processing and validation procedures.
#
#######################################################################

data_CIKWAW
_symmetry_cell_setting           monoclinic
_symmetry_space_group_name_H-M   'P 21/c'
_symmetry_Int_Tables_number      14
_space_group_name_Hall           '-P 2ybc'
loop_
_symmetry_equiv_pos_site_id
_symmetry_equiv_pos_as_xyz
1 x,y,z
2 -x,1/2+y,1/2-z
3 -x,-y,-z
4 x,1/2-y,1/2+z
_cell_length_a                   9.146(5)
_cell_length_b                   17.611(9)
_cell_length_c                   13.737(5)
_cell_angle_alpha                90
_cell_angle_beta                 123.00(2)
_cell_angle_gamma                90
_cell_volume                     1855.66
loop_
_atom_site_label
_atom_site_type_symbol
_atom_site_fract_x
_atom_site_fract_y
_atom_site_fract_z
I1 I 1.31635(3) 0.062232(15) 0.49856(3)
Cu1 Cu 1.23542(5) 0.37584(2) 0.67781(4)
O1 O 0.5940(3) 0.04151(15) 0.2393(3)
O2 O 1.2917(3) 0.48380(14) 0.7078(3)
H1 H 1.2265 0.5186 0.6841
H2 H 1.3619 0.4949 0.6947
O3 O 0.4788(3) 0.15268(14) 0.2455(2)
O4 O 0.8625(4) 0.38378(14) 0.3498(3)
O5 O 1.1468(3) 0.36829(14) 0.4859(2)
N1 N 0.9819(4) 0.38926(16) 0.6228(3)
N2 N 1.1833(4) 0.26658(16) 0.6966(3)
C1 C 1.0947(4) 0.13312(19) 0.4278(3)
C2 C 0.9298(5) 0.1003(2) 0.3712(3)
H3 H 0.9170 0.0478 0.3630
C3 C 0.7836(4) 0.14735(19) 0.3266(3)
C4 C 0.8049(4) 0.22592(19) 0.3381(3)
H4 H 0.7074 0.2571 0.3069
C5 C 0.9705(4) 0.25826(18) 0.3957(3)
C6 C 1.1172(4) 0.21127(19) 0.4413(3)
H5 H 1.2285 0.2322 0.4803
C7 C 0.9952(5) 0.34429(19) 0.4116(3)
C8 C 0.6055(4) 0.10979(19) 0.2654(3)
C9 C 1.2881(5) 0.2062(2) 0.7359(3)
H6 H 1.4063 0.2133 0.7666
C10 C 1.2280(5) 0.1327(2) 0.7329(4)
H7 H 1.3050 0.0919 0.7611
C11 C 1.0534(5) 0.1214(2) 0.6876(4)
H8 H 1.0120 0.0729 0.6861
C12 C 0.9373(5) 0.1835(2) 0.6433(3)
C13 C 0.7520(5) 0.1776(2) 0.5910(3)
H9 H 0.7022 0.1303 0.5846
C14 C 0.6493(5) 0.2400(2) 0.5511(3)
H10 H 0.5298 0.2346 0.5169
C15 C 0.7203(4) 0.3145(2) 0.5603(3)
C16 C 0.6215(5) 0.3824(2) 0.5222(3)
H11 H 0.5018 0.3812 0.4897
C17 C 0.7040(5) 0.4500(2) 0.5337(4)
H12 H 0.6398 0.4948 0.5080
C18 C 0.8842(5) 0.4521(2) 0.5839(3)
H13 H 0.9376 0.4984 0.5904
C19 C 0.9012(4) 0.32172(19) 0.6108(3)
C20 C 1.0100(4) 0.25528(19) 0.6514(3)
Cu1C Cu 0.23542(5) 0.12416(2) 0.17781(4)
O3C O 1.4788(3) 0.34732(14) 0.7455(2)
loop_
_geom_bond_atom_site_label_1
_geom_bond_atom_site_label_2
_geom_bond_site_symmetry_1
_geom_bond_site_symmetry_2
I1 C1 1_555 1_555
Cu1 O2 1_555 1_555
O1 C8 1_555 1_555
O2 H1 1_555 1_555
H2 O2 1_555 1_555
O3 C8 1_555 1_555
O4 C7 1_555 1_555
O5 Cu1 1_555 1_555
N1 Cu1 1_555 1_555
N2 Cu1 1_555 1_555
C1 C2 1_555 1_555
C2 H3 1_555 1_555
C3 C2 1_555 1_555
C4 C3 1_555 1_555
H4 C4 1_555 1_555
C5 C4 1_555 1_555
C6 C1 1_555 1_555
H5 C6 1_555 1_555
C7 O5 1_555 1_555
C8 C3 1_555 1_555
C9 N2 1_555 1_555
H6 C9 1_555 1_555
C10 C9 1_555 1_555
H7 C10 1_555 1_555
C11 C10 1_555 1_555
H8 C11 1_555 1_555
C12 C11 1_555 1_555
C13 C12 1_555 1_555
H9 C13 1_555 1_555
C14 C13 1_555 1_555
H10 C14 1_555 1_555
C15 C14 1_555 1_555
C16 C15 1_555 1_555
H11 C16 1_555 1_555
C17 C16 1_555 1_555
H12 C17 1_555 1_555
C18 N1 1_555 1_555
H13 C18 1_555 1_555
C19 N1 1_555 1_555
C20 N2 1_555 1_555
Cu1C O3 1_555 1_555
O3C Cu1 1_555 1_555
C5 C6 1_555 1_555
C5 C7 1_555 1_555
C12 C20 1_555 1_555
C15 C19 1_555 1_555
C17 C18 1_555 1_555
C19 C20 1_555 1_555

#END
