
#######################################################################
#
#                 Cambridge Crystallographic Data Centre
#                                CCDC 
#
#######################################################################
#
# If this CIF has been generated from an entry in the Cambridge 
# Structural Database, then it will include bibliographic, chemical, 
# crystal, experimental, refinement or atomic coordinate data resulting 
# from the CCDC's data processing and validation procedures.
#
#######################################################################

data_CIKXUR
_symmetry_cell_setting           monoclinic
_symmetry_space_group_name_H-M   'P 21'
_symmetry_Int_Tables_number      4
_space_group_name_Hall           'P 2yb'
loop_
_symmetry_equiv_pos_site_id
_symmetry_equiv_pos_as_xyz
1 x,y,z
2 -x,1/2+y,-z
_cell_length_a                   6.66210(10)
_cell_length_b                   20.4492(4)
_cell_length_c                   7.58000(10)
_cell_angle_alpha                90
_cell_angle_beta                 104.4700(10)
_cell_angle_gamma                90
_cell_volume                     999.901
loop_
_atom_site_label
_atom_site_type_symbol
_atom_site_fract_x
_atom_site_fract_y
_atom_site_fract_z
C1 C -0.3953(5) 0.23825(16) 0.3360(5)
Cu1 Cu 0.37704(5) 0.320859(18) 0.63606(6)
Ca1 Ca 0.86559(9) 0.55161(3) 0.90599(10)
N1 N 0.6553(4) 0.30616(12) 0.7954(4)
N2 N 0.1000(4) 0.34001(12) 0.4833(4)
O1 O 0.2395(3) 0.24012(11) 0.6903(3)
O2 O -0.5413(4) 0.24469(13) 0.4064(4)
O3 O -0.0399(4) 0.18007(11) 0.5733(4)
O4 O -0.3741(4) 0.19366(12) 0.2301(4)
O5 O 0.5036(3) 0.40224(11) 0.5796(3)
O6 O 1.3063(3) 0.39946(12) 0.8938(3)
O7 O 1.0981(3) 0.46437(10) 1.0041(3)
O8 O 0.7729(4) 0.46722(10) 0.6841(3)
C2 C -0.0331(5) 0.28950(15) 0.4708(4)
C3 C -0.2977(5) 0.35282(17) 0.2748(5)
H1 H -0.4327 0.3576 0.2041
C4 C -0.2358(5) 0.29334(15) 0.3644(5)
C5 C -0.1621(5) 0.40342(16) 0.2906(5)
H2 H -0.2039 0.4429 0.2318
C6 C 0.0590(5) 0.23131(15) 0.5859(4)
C7 C 0.0387(5) 0.39562(16) 0.3950(5)
H3 H 0.1326 0.4298 0.4036
C8 C 0.7217(5) 0.25172(15) 0.8864(5)
H4 H 0.6323 0.2162 0.8765
C9 C 0.6816(4) 0.41428(15) 0.6835(4)
C10 C 1.1399(5) 0.41260(15) 0.9344(5)
C11 C 0.7819(5) 0.35874(14) 0.8055(4)
C12 C 1.0535(5) 0.29887(15) 1.0049(5)
H5 H 1.1895 0.2957 1.0746
C13 C 0.9855(5) 0.35683(15) 0.9107(5)
C14 C 0.9214(5) 0.24657(16) 0.9957(5)
H6 H 0.9652 0.2086 1.0615
O9 O 0.7037(4) 0.64414(12) 1.0111(4)
O10 O 1.0544(5) 0.57237(17) 1.2098(5)
O11 O 0.5530(4) 0.50821(12) 0.9779(4)
O12 O 0.7286(4) 0.61802(13) 0.6230(4)
H7 H 0.6920 0.6540 0.6509
O13 O 1.1564(4) 0.58297(15) 0.7959(5)
H8 H 0.467(6) 0.4723(15) 0.940(6)
H9 H 1.202(8) 0.6252(14) 0.786(8)
H10 H 1.200(4) 0.566(4) 1.234(11)
H11 H 0.735(8) 0.677(2) 1.097(6)
H12 H 0.531(6) 0.5209(19) 1.089(4)
H13 H 0.585(5) 0.661(2) 0.934(6)
H14 H 1.278(5) 0.563(2) 0.854(7)
H15 H 1.070(9) 0.610(2) 1.285(8)
H16 H 0.833(9) 0.619(4) 0.558(9)
Cu1_2 Cu -0.62296(5) 0.320859(18) 0.63606(6)
Cu1_3 Cu 1.37704(5) 0.320859(18) 0.63606(6)
O2_2 O 0.4587(4) 0.24469(13) 0.4064(4)
O6_2 O 0.3063(3) 0.39946(12) 0.8938(3)
O14 O 0.5278(5) 0.0275(2) 0.6561(5)
H17 H 0.514(12) -0.002(4) 0.587(10)
H18 H 0.442(10) 0.051(3) 0.583(10)
loop_
_geom_bond_atom_site_label_1
_geom_bond_atom_site_label_2
_geom_bond_site_symmetry_1
_geom_bond_site_symmetry_2
C1 O2 1_555 1_555
Cu1 N1 1_555 1_555
Ca1 O7 1_555 1_555
N1 C8 1_555 1_555
N2 Cu1 1_555 1_555
O1 Cu1 1_555 1_555
O2 Cu1_2 1_555 1_555
O3 C6 1_555 1_555
O4 C1 1_555 1_555
O5 Cu1 1_555 1_555
O6 C10 1_555 1_555
O7 C10 1_555 1_555
O8 Ca1 1_555 1_555
C2 N2 1_555 1_555
C3 H1 1_555 1_555
C4 C1 1_555 1_555
C5 C3 1_555 1_555
H2 C5 1_555 1_555
C6 O1 1_555 1_555
C7 N2 1_555 1_555
H3 C7 1_555 1_555
C8 H4 1_555 1_555
C9 O5 1_555 1_555
C10 C13 1_555 1_555
C11 N1 1_555 1_555
C12 H5 1_555 1_555
C13 C11 1_555 1_555
C14 C8 1_555 1_555
H6 C14 1_555 1_555
O9 Ca1 1_555 1_555
O10 Ca1 1_555 1_555
O11 Ca1 1_555 1_555
O12 Ca1 1_555 1_555
H7 O12 1_555 1_555
O13 Ca1 1_555 1_555
H8 O11 1_555 1_555
H9 O13 1_555 1_555
H10 O10 1_555 1_555
H11 O9 1_555 1_555
H12 O11 1_555 1_555
H13 O9 1_555 1_555
H14 O13 1_555 1_555
H15 O10 1_555 1_555
H16 O12 1_555 1_555
O14 H17 1_555 1_555
H18 O14 1_555 1_555
Cu1_3 O6 1_555 1_555
O2_2 Cu1 1_555 1_555
O6_2 Cu1 1_555 1_555
O8 C9 1_555 1_555
C2 C4 1_555 1_555
C2 C6 1_555 1_555
C3 C4 1_555 1_555
C5 C7 1_555 1_555
C9 C11 1_555 1_555
C12 C13 1_555 1_555
C12 C14 1_555 1_555

#END
