
#######################################################################
#
#                 Cambridge Crystallographic Data Centre
#                                CCDC 
#
#######################################################################
#
# If this CIF has been generated from an entry in the Cambridge 
# Structural Database, then it will include bibliographic, chemical, 
# crystal, experimental, refinement or atomic coordinate data resulting 
# from the CCDC's data processing and validation procedures.
#
#######################################################################

data_CIKYEC
_symmetry_cell_setting           triclinic
_symmetry_space_group_name_H-M   'P -1'
_symmetry_Int_Tables_number      2
_space_group_name_Hall           '-P 1'
loop_
_symmetry_equiv_pos_site_id
_symmetry_equiv_pos_as_xyz
1 x,y,z
2 -x,-y,-z
_cell_length_a                   6.9758(8)
_cell_length_b                   7.5074(9)
_cell_length_c                   11.3187(13)
_cell_angle_alpha                85.179(7)
_cell_angle_beta                 72.204(7)
_cell_angle_gamma                66.030(7)
_cell_volume                     515.175
loop_
_atom_site_label
_atom_site_type_symbol
_atom_site_fract_x
_atom_site_fract_y
_atom_site_fract_z
Cu1 Cu 1.0000 0.0000 0.5000
O1 O 0.8195(3) -0.0754(3) 0.6476(2)
O2 O 0.4718(3) -0.0095(3) 0.7559(2)
O3 O 0.0007(4) 0.2431(4) 0.6703(2)
O4 O 0.0920(4) 0.4151(4) 0.7767(2)
N1 N 0.7174(4) 0.1606(4) 0.4760(2)
C1 C 0.6138(5) 0.0171(5) 0.6681(3)
C2 C 0.5437(5) 0.1641(5) 0.5733(3)
C3 C 0.3310(5) 0.2861(5) 0.5767(3)
C4 C 0.3017(5) 0.4013(5) 0.4757(3)
H1 H 0.1605 0.4862 0.4760
C5 C 0.4772(5) 0.3921(5) 0.3755(3)
H2 H 0.4559 0.4669 0.3072
C6 C 0.6859(5) 0.2694(5) 0.3785(3)
H3 H 0.8065 0.2623 0.3116
C7 C 0.1254(5) 0.3115(5) 0.6861(3)
O1A O 0.1805(3) 0.0754(3) 0.3524(2)
O2A O 0.5282(3) 0.0095(3) 0.2441(2)
O3A O 0.9993(4) -0.2431(4) 0.3297(2)
O4A O 0.9080(4) -0.4151(4) 0.2233(2)
N1A N 0.2826(4) -0.1606(4) 0.5240(2)
C1A C 0.3862(5) -0.0171(5) 0.3319(3)
C2A C 0.4563(5) -0.1641(5) 0.4267(3)
C3A C 0.6690(5) -0.2861(5) 0.4233(3)
C4A C 0.6983(5) -0.4013(5) 0.5243(3)
H1A H 0.8395 -0.4862 0.5240
C5A C 0.5228(5) -0.3921(5) 0.6245(3)
H2A H 0.5441 -0.4669 0.6928
C6A C 0.3141(5) -0.2694(5) 0.6215(3)
H3A H 0.1935 -0.2623 0.6884
C7A C 0.8746(5) -0.3115(5) 0.3139(3)
Cu1_2 Cu 0.0000 0.0000 0.5000
O1A_2 O 1.1805(3) 0.0754(3) 0.3524(2)
O3_2 O 1.0007(4) 0.2431(4) 0.6703(2)
N1A_2 N 1.2826(4) -0.1606(4) 0.5240(2)
Mg1 Mg 0.5000 0.5000 0.0000
O5 O 0.6814(4) 0.2542(4) -0.1160(2)
O6 O 0.7517(4) 0.4161(5) 0.0827(3)
O7 O 0.3398(4) 0.3438(3) 0.1213(2)
H4 H 0.402(7) 0.239(5) 0.167(4)
H5 H 0.729(6) 0.130(4) -0.085(3)
H6 H 0.870(8) 0.328(7) 0.051(4)
H7 H 0.785(6) 0.258(7) -0.189(3)
H8 H 0.778(6) 0.488(6) 0.125(4)
H9 H 0.201(4) 0.425(5) 0.165(4)
O5A O 0.3186(4) 0.7458(4) 0.1160(2)
O6A O 0.2483(4) 0.5839(5) -0.0827(3)
O7A O 0.6602(4) 0.6562(3) -0.1213(2)
H4A H 0.598(7) 0.761(5) -0.167(4)
H5A H 0.271(6) 0.870(4) 0.085(3)
H6A H 0.130(8) 0.672(7) -0.051(4)
H7A H 0.215(6) 0.742(7) 0.189(3)
H8A H 0.222(6) 0.512(6) -0.125(4)
H9A H 0.799(4) 0.575(5) -0.165(4)
O8 O 0.1915(5) 0.1150(4) 1.0039(3)
H10 H 0.243(9) 0.198(7) 1.032(5)
H11 H 0.242(12) 0.068(11) 0.921(3)
loop_
_geom_bond_atom_site_label_1
_geom_bond_atom_site_label_2
_geom_bond_site_symmetry_1
_geom_bond_site_symmetry_2
Cu1 O1 1_555 1_555
O1 C1 1_555 1_555
O2 C1 1_555 1_555
O3 C7 1_555 1_555
O4 C7 1_555 1_555
N1 Cu1 1_555 1_555
C1 C2 1_555 1_555
C2 N1 1_555 1_555
C3 C2 1_555 1_555
C4 C3 1_555 1_555
H1 C4 1_555 1_555
C5 C4 1_555 1_555
H2 C5 1_555 1_555
C6 N1 1_555 1_555
H3 C6 1_555 1_555
C7 C3 1_555 1_555
Mg1 O5 1_555 1_555
O5 H5 1_555 1_555
O6 Mg1 1_555 1_555
O7 Mg1 1_555 1_555
H4 O7 1_555 1_555
H6 O6 1_555 1_555
H7 O5 1_555 1_555
H8 O6 1_555 1_555
H9 O7 1_555 1_555
O8 H10 1_555 1_555
H11 O8 1_555 1_555
O1A C1A 1_555 1_555
O2A C1A 1_555 1_555
O3A Cu1 1_555 1_555
O4A C7A 1_555 1_555
N1A C2A 1_555 1_555
C1A C2A 1_555 1_555
C2A C3A 1_555 1_555
C3A C4A 1_555 1_555
C4A H1A 1_555 1_555
C5A C4A 1_555 1_555
H2A C5A 1_555 1_555
C6A N1A 1_555 1_555
H3A C6A 1_555 1_555
C7A O3A 1_555 1_555
Cu1_2 O3 1_555 1_555
O1A_2 Cu1 1_555 1_555
O3_2 Cu1 1_555 1_555
N1A_2 Cu1 1_555 1_555
O5A Mg1 1_555 1_555
O6A Mg1 1_555 1_555
O7A Mg1 1_555 1_555
H4A O7A 1_555 1_555
H5A O5A 1_555 1_555
H6A O6A 1_555 1_555
H7A O5A 1_555 1_555
H8A O6A 1_555 1_555
H9A O7A 1_555 1_555
C5 C6 1_555 1_555
O1A Cu1_2 1_555 1_555
N1A Cu1_2 1_555 1_555
C3A C7A 1_555 1_555
C5A C6A 1_555 1_555

#END
