
#######################################################################
#
#                 Cambridge Crystallographic Data Centre
#                                CCDC 
#
#######################################################################
#
# If this CIF has been generated from an entry in the Cambridge 
# Structural Database, then it will include bibliographic, chemical, 
# crystal, experimental, refinement or atomic coordinate data resulting 
# from the CCDC's data processing and validation procedures.
#
#######################################################################

data_CIKYAY
_symmetry_cell_setting           triclinic
_symmetry_space_group_name_H-M   'P -1'
_symmetry_Int_Tables_number      2
_space_group_name_Hall           '-P 1'
loop_
_symmetry_equiv_pos_site_id
_symmetry_equiv_pos_as_xyz
1 x,y,z
2 -x,-y,-z
_cell_length_a                   7.0078(4)
_cell_length_b                   7.5881(5)
_cell_length_c                   11.3217(6)
_cell_angle_alpha                85.343(4)
_cell_angle_beta                 72.348(3)
_cell_angle_gamma                65.866(3)
_cell_volume                     522.915
loop_
_atom_site_label
_atom_site_type_symbol
_atom_site_fract_x
_atom_site_fract_y
_atom_site_fract_z
Cu1 Cu 0.0000 1.0000 0.5000
O1 O 0.5295(4) 1.0071(4) 0.2469(2)
O2 O 0.1814(5) 1.0744(5) 0.3536(3)
O3 O 0.9950(4) 0.7608(4) 0.3339(2)
O4 O 0.9101(5) 0.5851(5) 0.2272(3)
N1 N 0.2816(5) 0.8378(5) 0.5241(3)
C1 C 0.4557(6) 0.8349(5) 0.4290(3)
C2 C 0.3864(6) 0.9817(6) 0.3335(3)
C3 C 0.6664(6) 0.7159(6) 0.4255(3)
C4 C 0.5208(7) 0.6071(6) 0.6255(3)
H1 H 0.5416 0.5318 0.6932
C5 C 0.3119(7) 0.7297(6) 0.6217(3)
H2 H 0.1913 0.7368 0.6879
C6 C 0.8710(6) 0.6902(6) 0.3185(3)
C7 C 0.6953(7) 0.6002(7) 0.5269(4)
H3 H 0.8360 0.5168 0.5273
O1A O -0.5295(4) 0.9929(4) 0.7531(2)
O2A O -0.1814(5) 0.9256(5) 0.6464(3)
O3A O -0.9950(4) 1.2392(4) 0.6661(2)
O4A O -0.9101(5) 1.4149(5) 0.7728(3)
N1A N -0.2816(5) 1.1622(5) 0.4759(3)
C1A C -0.4557(6) 1.1651(5) 0.5710(3)
C2A C -0.3864(6) 1.0183(6) 0.6665(3)
C3A C -0.6664(6) 1.2841(6) 0.5745(3)
C4A C -0.5208(7) 1.3929(6) 0.3745(3)
H1A H -0.5416 1.4682 0.3068
C5A C -0.3119(7) 1.2703(6) 0.3783(3)
H2A H -0.1913 1.2632 0.3121
C6A C -0.8710(6) 1.3098(6) 0.6815(3)
C7A C -0.6953(7) 1.3998(7) 0.4731(4)
H3A H -0.8360 1.4832 0.4727
Cu1_2 Cu -1.0000 1.0000 0.5000
Cu1_3 Cu 1.0000 1.0000 0.5000
O3_2 O -0.0050(4) 0.7608(4) 0.3339(2)
O3A_2 O 0.0050(4) 1.2392(4) 0.6661(2)
Co1 Co 0.5000 0.5000 0.0000
O5 O 0.2334(5) 0.5879(5) -0.0846(3)
H4 H 0.2422 0.4937 -0.1202
O6 O 0.3347(5) 0.3357(4) 0.1258(2)
H5 H 0.2136 0.4104 0.1677
O7 O 0.3095(5) 0.7556(4) 0.1213(3)
H6 H 0.2275 0.7319 0.1830
H7 H 0.389(8) 0.238(6) 0.175(4)
H8 H 0.259(9) 0.884(4) 0.096(5)
H9 H 0.123(17) 0.708(11) -0.042(13)
O5A O 0.7666(5) 0.4121(5) 0.0846(3)
H4A H 0.7578 0.5063 0.1202
O6A O 0.6653(5) 0.6643(4) -0.1258(2)
H5A H 0.7864 0.5896 -0.1677
O7A O 0.6905(5) 0.2444(4) -0.1213(3)
H6A H 0.7725 0.2681 -0.1830
H7A H 0.611(8) 0.762(6) -0.175(4)
H8A H 0.741(9) 0.116(4) -0.096(5)
H9A H 0.877(17) 0.292(11) 0.042(13)
O8 O 0.1956(6) 0.1144(5) 1.0023(3)
H10 H 0.240(10) 0.094(10) 0.916(2)
H11 H 0.258(12) 0.183(10) 1.033(7)
loop_
_geom_bond_atom_site_label_1
_geom_bond_atom_site_label_2
_geom_bond_site_symmetry_1
_geom_bond_site_symmetry_2
Cu1 O2 1_555 1_555
O1 C2 1_555 1_555
O2 C2 1_555 1_555
O3 C6 1_555 1_555
O4 C6 1_555 1_555
N1 Cu1 1_555 1_555
C1 N1 1_555 1_555
C2 C1 1_555 1_555
C3 C1 1_555 1_555
C4 H1 1_555 1_555
C5 N1 1_555 1_555
H2 C5 1_555 1_555
C6 C3 1_555 1_555
C7 C3 1_555 1_555
H3 C7 1_555 1_555
Co1 O5 1_555 1_555
O5 H4 1_555 1_555
O6 Co1 1_555 1_555
H5 O6 1_555 1_555
O7 Co1 1_555 1_555
H6 O7 1_555 1_555
H7 O6 1_555 1_555
H8 O7 1_555 1_555
H9 O5 1_555 1_555
O8 H10 1_555 1_555
H11 O8 1_555 1_555
O1A C2A 1_555 1_555
O2A Cu1 1_555 1_555
O3A C6A 1_555 1_555
O4A C6A 1_555 1_555
N1A Cu1 1_555 1_555
C1A N1A 1_555 1_555
C2A O2A 1_555 1_555
C3A C1A 1_555 1_555
C4A H1A 1_555 1_555
C5A N1A 1_555 1_555
H2A C5A 1_555 1_555
C6A C3A 1_555 1_555
C7A C3A 1_555 1_555
H3A C7A 1_555 1_555
Cu1_2 O3A 1_555 1_555
Cu1_3 O3 1_555 1_555
O3_2 Cu1 1_555 1_555
O3A_2 Cu1 1_555 1_555
O5A Co1 1_555 1_555
H4A O5A 1_555 1_555
O6A Co1 1_555 1_555
H5A O6A 1_555 1_555
O7A Co1 1_555 1_555
H6A O7A 1_555 1_555
H7A O6A 1_555 1_555
H8A O7A 1_555 1_555
H9A O5A 1_555 1_555
C4 C5 1_555 1_555
C4 C7 1_555 1_555
C1A C2A 1_555 1_555
C4A C5A 1_555 1_555
C4A C7A 1_555 1_555

#END
