
#######################################################################
#
#                 Cambridge Crystallographic Data Centre
#                                CCDC 
#
#######################################################################
#
# If this CIF has been generated from an entry in the Cambridge 
# Structural Database, then it will include bibliographic, chemical, 
# crystal, experimental, refinement or atomic coordinate data resulting 
# from the CCDC's data processing and validation procedures.
#
#######################################################################

data_CILDUX
_symmetry_cell_setting           monoclinic
_symmetry_space_group_name_H-M   'P 21/c'
_symmetry_Int_Tables_number      14
_space_group_name_Hall           '-P 2ybc'
loop_
_symmetry_equiv_pos_site_id
_symmetry_equiv_pos_as_xyz
1 x,y,z
2 -x,1/2+y,1/2-z
3 -x,-y,-z
4 x,1/2-y,1/2+z
_cell_length_a                   10.8284(2)
_cell_length_b                   9.8002(2)
_cell_length_c                   9.8846(1)
_cell_angle_alpha                90
_cell_angle_beta                 113.774(1)
_cell_angle_gamma                90
_cell_volume                     959.947
loop_
_atom_site_label
_atom_site_type_symbol
_atom_site_fract_x
_atom_site_fract_y
_atom_site_fract_z
C1 C 0.0535(4) 0.0300(4) 0.5707(4)
C2 C 0.4991(4) 0.0507(3) 0.5581(4)
C3 C 0.0337(4) -0.0697(4) 0.0043(4)
O1 O 0.1573(3) 0.0771(3) 0.5630(3)
O2 O 0.0265(3) 0.0275(3) 0.6839(3)
O3 O 0.3887(2) 0.1093(3) 0.5326(3)
O4 O 0.6077(3) 0.0669(3) 0.6689(3)
O5 O 0.1274(3) -0.1003(3) 0.1245(3)
O6 O -0.0103(2) -0.1420(3) -0.1111(2)
H4 H 0.270(3) 0.2601(15) 0.180(4)
H5 H 0.131(4) 0.345(2) 0.325(3)
H6 H 0.200(4) 0.307(3) 0.4602(15)
H7 H 0.150(2) -0.219(4) 0.438(4)
H8 H 0.3747(11) 0.182(3) 0.223(4)
H9 H 0.270(2) -0.184(4) 0.5270(19)
O8 O 0.1664(3) 0.2778(3) 0.3756(3)
O9 O 0.2145(3) -0.1722(3) 0.4416(3)
O10 O 0.2913(3) 0.1790(3) 0.1933(3)
Tb1 Tb 0.189510(16) 0.046207(17) 0.329650(15)
C1B C -0.0535(4) -0.0300(4) 0.4293(4)
C2B C 0.5009(4) -0.0507(3) 0.4419(4)
C3B C -0.0337(4) 0.0697(4) -0.0043(4)
O1B O -0.1573(3) -0.0771(3) 0.4370(3)
O2B O -0.0265(3) -0.0275(3) 0.3161(3)
O3B O 0.6113(2) -0.1093(3) 0.4674(3)
O3B_2 O -0.3887(2) -0.1093(3) 0.4674(3)
O4B O 0.3923(3) -0.0669(3) 0.3311(3)
O4_2 O -0.3923(3) 0.0669(3) 0.6689(3)
O5B O -0.1274(3) 0.1003(3) -0.1245(3)
O5B_2 O -0.1274(3) 0.1003(3) 0.8755(3)
O6B O 0.0103(2) 0.1420(3) 0.1111(2)
O6_2 O -0.0103(2) -0.1420(3) 0.8889(2)
H4B H -0.270(3) -0.2601(15) 0.820(4)
H5B H -0.131(4) -0.345(2) 0.675(3)
H6B H -0.200(4) -0.307(3) 0.5398(15)
H7B H -0.150(2) 0.219(4) 0.562(4)
H8B H -0.3747(11) -0.182(3) 0.777(4)
H9B H -0.270(2) 0.184(4) 0.4730(19)
O8B O -0.1664(3) -0.2778(3) 0.6244(3)
O9B O -0.2145(3) 0.1722(3) 0.5584(3)
O10B O -0.2913(3) -0.1790(3) 0.8067(3)
Tb1B Tb -0.189510(16) -0.046207(17) 0.670350(15)
Tb1B_2 Tb 0.810490(16) -0.046207(17) 0.670350(15)
Tb1B_3 Tb -0.189510(16) -0.046207(17) -0.329650(15)
C4 C 0.4073(6) 0.5977(6) 0.3276(6)
H1 H 0.4698 0.6234 0.4249
H2 H 0.4240 0.5050 0.3085
H3 H 0.3167 0.6058 0.3211
O7 O 0.4246(3) 0.6869(3) 0.2191(3)
H10 H 0.4062 0.7655 0.2326
loop_
_geom_bond_atom_site_label_1
_geom_bond_atom_site_label_2
_geom_bond_site_symmetry_1
_geom_bond_site_symmetry_2
C1 O1 1_555 1_555
C2 O3 1_555 1_555
C3 O5 1_555 1_555
C4 H1 1_555 1_555
H2 C4 1_555 1_555
H3 C4 1_555 1_555
O1 Tb1 1_555 1_555
O2 C1 1_555 1_555
O3 Tb1 1_555 1_555
O4 C2 1_555 1_555
O5 Tb1 1_555 1_555
O6 C3 1_555 1_555
H4 O10 1_555 1_555
H5 O8 1_555 1_555
H6 O8 1_555 1_555
H7 O9 1_555 1_555
H8 O10 1_555 1_555
H9 O9 1_555 1_555
O7 C4 1_555 1_555
H10 O7 1_555 1_555
O8 Tb1 1_555 1_555
O9 Tb1 1_555 1_555
O10 Tb1 1_555 1_555
Tb1 O2B 1_555 1_555
C1B C1 1_555 1_555
C2B C2 1_555 1_555
C3B C3 1_555 1_555
O1B C1B 1_555 1_555
O2B C1B 1_555 1_555
O3B C2B 1_555 1_555
O3B_2 Tb1B 1_555 1_555
O4B Tb1 1_555 1_555
O4_2 Tb1B 1_555 1_555
O5B C3B 1_555 1_555
O5B_2 Tb1B 1_555 1_555
O6B Tb1 1_555 1_555
O6_2 Tb1B 1_555 1_555
H4B O10B 1_555 1_555
H5B O8B 1_555 1_555
H6B O8B 1_555 1_555
H7B O9B 1_555 1_555
H8B O10B 1_555 1_555
H9B O9B 1_555 1_555
O8B Tb1B 1_555 1_555
O9B Tb1B 1_555 1_555
O10B Tb1B 1_555 1_555
Tb1B O2 1_555 1_555
Tb1B_2 O4 1_555 1_555
Tb1B_3 O6 1_555 1_555
C2B O4B 1_555 1_555
C3B O6B 1_555 1_555
O1B Tb1B 1_555 1_555
O3B Tb1B_2 1_555 1_555
O5B Tb1B_3 1_555 1_555

#END
