
#######################################################################
#
#                 Cambridge Crystallographic Data Centre
#                                CCDC 
#
#######################################################################
#
# If this CIF has been generated from an entry in the Cambridge 
# Structural Database, then it will include bibliographic, chemical, 
# crystal, experimental, refinement or atomic coordinate data resulting 
# from the CCDC's data processing and validation procedures.
#
#######################################################################

data_CILDOR01
_symmetry_cell_setting           monoclinic
_symmetry_space_group_name_H-M   'P 21/c'
_symmetry_Int_Tables_number      14
_space_group_name_Hall           '-P 2ybc'
loop_
_symmetry_equiv_pos_site_id
_symmetry_equiv_pos_as_xyz
1 x,y,z
2 -x,1/2+y,1/2-z
3 -x,-y,-z
4 x,1/2-y,1/2+z
_cell_length_a                   9.3365(11)
_cell_length_b                   6.7815(8)
_cell_length_c                   13.9607(16)
_cell_angle_alpha                90
_cell_angle_beta                 100.704(2)
_cell_angle_gamma                90
_cell_volume                     868.548
loop_
_atom_site_label
_atom_site_type_symbol
_atom_site_fract_x
_atom_site_fract_y
_atom_site_fract_z
Zn1 Zn 0.39914(4) 0.70215(5) 0.87100(2)
Zn2 Zn 0.58659(4) 0.80231(5) 1.12066(2)
N1 N 0.1707(3) 0.6866(3) 0.88781(18)
O1 O 0.4075(2) 0.7670(3) 1.01744(15)
O2 O 0.2778(2) 0.8488(3) 1.13097(15)
O3 O -0.2583(2) 0.8019(3) 1.04181(15)
O4 O -0.3660(2) 0.6818(3) 0.89630(16)
O5 O 0.3818(2) 0.9571(3) 0.80851(15)
H1 H 0.4450 0.9605 0.7714
O6 O 0.3996(2) 0.4440(3) 0.80928(14)
H2 H 0.3210 0.4510 0.7580
C1 C 0.2860(3) 0.7929(4) 1.0489(2)
C2 C 0.1502(3) 0.7460(4) 0.9760(2)
C3 C 0.0137(3) 0.7634(4) 1.0004(2)
H3 H 0.0040 0.8064 1.0621
C4 C -0.1089(3) 0.7156(4) 0.9312(2)
C5 C -0.0884(3) 0.6473(4) 0.8407(2)
H4 H -0.1675 0.6087 0.7937
C6 C 0.0526(3) 0.6376(5) 0.8219(2)
H5 H 0.0655 0.5953 0.7607
C7 C -0.2586(3) 0.7338(4) 0.9576(2)
Zn1_2 Zn -0.60086(4) 0.70215(5) 0.87100(2)
Zn2_2 Zn -0.41341(4) 0.80231(5) 1.12066(2)
Zn2B Zn 0.41341(4) 1.19769(5) 0.87934(2)
Zn2B_2 Zn 0.41341(4) 0.19769(5) 0.87934(2)
O3_2 O 0.7417(2) 0.8019(3) 1.04181(15)
O4_2 O 0.6340(2) 0.6818(3) 0.89630(16)
O5B O 0.6182(2) 1.0429(3) 1.19149(15)
H1B H 0.5550 1.0395 1.2286
O6B O 0.6004(2) 0.5560(3) 1.19072(14)
H2B H 0.6790 0.5490 1.2420
loop_
_geom_bond_atom_site_label_1
_geom_bond_atom_site_label_2
_geom_bond_site_symmetry_1
_geom_bond_site_symmetry_2
Zn1 N1 1_555 1_555
Zn2 O1 1_555 1_555
N1 C2 1_555 1_555
O1 Zn1 1_555 1_555
O2 C1 1_555 1_555
O3 C7 1_555 1_555
O4 C7 1_555 1_555
O5 Zn1 1_555 1_555
H1 O5 1_555 1_555
O6 Zn1 1_555 1_555
H2 O6 1_555 1_555
C1 O1 1_555 1_555
C2 C1 1_555 1_555
C3 C2 1_555 1_555
H3 C3 1_555 1_555
C4 C3 1_555 1_555
C5 C4 1_555 1_555
H4 C5 1_555 1_555
C6 N1 1_555 1_555
H5 C6 1_555 1_555
C7 C4 1_555 1_555
Zn1_2 O4 1_555 1_555
Zn2_2 O3 1_555 1_555
Zn2B O5 1_555 1_555
Zn2B_2 O6 1_555 1_555
O3_2 Zn2 1_555 1_555
O4_2 Zn1 1_555 1_555
O5B Zn2 1_555 1_555
H1B O5B 1_555 1_555
O6B Zn2 1_555 1_555
H2B O6B 1_555 1_555
C5 C6 1_555 1_555

#END
