
#######################################################################
#
#                 Cambridge Crystallographic Data Centre
#                                CCDC 
#
#######################################################################
#
# If this CIF has been generated from an entry in the Cambridge 
# Structural Database, then it will include bibliographic, chemical, 
# crystal, experimental, refinement or atomic coordinate data resulting 
# from the CCDC's data processing and validation procedures.
#
#######################################################################

data_CILDOR
_symmetry_cell_setting           monoclinic
_symmetry_space_group_name_H-M   'P 21/c'
_symmetry_Int_Tables_number      14
_space_group_name_Hall           '-P 2ybc'
loop_
_symmetry_equiv_pos_site_id
_symmetry_equiv_pos_as_xyz
1 x,y,z
2 -x,1/2+y,1/2-z
3 -x,-y,-z
4 x,1/2-y,1/2+z
_cell_length_a                   9.3424(11)
_cell_length_b                   6.7836(8)
_cell_length_c                   13.9741(17)
_cell_angle_alpha                90
_cell_angle_beta                 100.688(2)
_cell_angle_gamma                90
_cell_volume                     870.246
loop_
_atom_site_label
_atom_site_type_symbol
_atom_site_fract_x
_atom_site_fract_y
_atom_site_fract_z
Zn1 Zn 0.39900(4) 0.70349(5) 0.87082(3)
Zn2 Zn 0.58627(4) 0.80076(5) 1.12028(3)
N1 N 0.1704(3) 0.6883(4) 0.8874(2)
O1 O 0.4073(2) 0.7664(3) 1.01734(16)
O2 O 0.2778(3) 0.8456(4) 1.13122(17)
O3 O -0.2583(2) 0.8004(3) 1.04186(17)
O4 O -0.3655(2) 0.6837(4) 0.89574(18)
O5 O 0.3820(2) 0.9591(3) 0.80885(16)
H1 H 0.4450 0.9605 0.7714
O6 O 0.3990(2) 0.4456(3) 0.80963(15)
H2 H 0.3210 0.4510 0.7580
C1 C 0.2857(4) 0.7918(5) 1.0491(2)
C2 C 0.1502(3) 0.7461(5) 0.9760(2)
C3 C 0.0137(3) 0.7630(4) 0.9999(2)
H3 H 0.0039 0.8058 1.0616
C4 C -0.1082(3) 0.7160(5) 0.9314(2)
C5 C -0.0886(4) 0.6498(5) 0.8403(2)
H4 H -0.1681 0.6131 0.7932
C6 C 0.0518(4) 0.6398(5) 0.8212(2)
H5 H 0.0645 0.5977 0.7600
C7 C -0.2586(4) 0.7346(5) 0.9572(2)
Zn1_2 Zn -0.60100(4) 0.70349(5) 0.87082(3)
Zn2_2 Zn -0.41373(4) 0.80076(5) 1.12028(3)
Zn2B Zn 0.41373(4) 1.19924(5) 0.87972(3)
Zn2B_2 Zn 0.41373(4) 0.19924(5) 0.87972(3)
O3_2 O 0.7417(2) 0.8004(3) 1.04186(17)
O4_2 O 0.6345(2) 0.6837(4) 0.89574(18)
O5B O 0.6180(2) 1.0409(3) 1.19115(16)
H1B H 0.5550 1.0395 1.2286
O6B O 0.6010(2) 0.5544(3) 1.19037(15)
H2B H 0.6790 0.5490 1.2420
loop_
_geom_bond_atom_site_label_1
_geom_bond_atom_site_label_2
_geom_bond_site_symmetry_1
_geom_bond_site_symmetry_2
Zn1 N1 1_555 1_555
Zn2 O1 1_555 1_555
N1 C2 1_555 1_555
O1 Zn1 1_555 1_555
O2 C1 1_555 1_555
O3 C7 1_555 1_555
O4 C7 1_555 1_555
O5 Zn1 1_555 1_555
H1 O5 1_555 1_555
O6 Zn1 1_555 1_555
H2 O6 1_555 1_555
C1 O1 1_555 1_555
C2 C1 1_555 1_555
C3 C2 1_555 1_555
H3 C3 1_555 1_555
C4 C3 1_555 1_555
C5 C4 1_555 1_555
H4 C5 1_555 1_555
C6 N1 1_555 1_555
H5 C6 1_555 1_555
C7 C4 1_555 1_555
Zn1_2 O4 1_555 1_555
Zn2_2 O3 1_555 1_555
Zn2B O5 1_555 1_555
Zn2B_2 O6 1_555 1_555
O3_2 Zn2 1_555 1_555
O4_2 Zn1 1_555 1_555
O5B Zn2 1_555 1_555
H1B O5B 1_555 1_555
O6B Zn2 1_555 1_555
H2B O6B 1_555 1_555
C5 C6 1_555 1_555

#END
