
#######################################################################
#
#                 Cambridge Crystallographic Data Centre
#                                CCDC 
#
#######################################################################
#
# If this CIF has been generated from an entry in the Cambridge 
# Structural Database, then it will include bibliographic, chemical, 
# crystal, experimental, refinement or atomic coordinate data resulting 
# from the CCDC's data processing and validation procedures.
#
#######################################################################

data_CILFIO
_symmetry_cell_setting           triclinic
_symmetry_space_group_name_H-M   'P 1'
_symmetry_Int_Tables_number      1
_space_group_name_Hall           'P 1'
loop_
_symmetry_equiv_pos_site_id
_symmetry_equiv_pos_as_xyz
1 x,y,z
_cell_length_a                   6.7564(8)
_cell_length_b                   8.3947(11)
_cell_length_c                   15.916(3)
_cell_angle_alpha                79.240(12)
_cell_angle_beta                 89.650(11)
_cell_angle_gamma                81.465(10)
_cell_volume                     876.813
loop_
_atom_site_label
_atom_site_type_symbol
_atom_site_fract_x
_atom_site_fract_y
_atom_site_fract_z
C1 C 0.8637(13) 0.0539(12) 0.4032(6)
C2 C 0.8749(12) 0.2255(12) 0.4138(6)
C3 C 1.0144(13) 0.3213(12) 0.3785(6)
C4 C 1.0020(15) 0.4784(12) 0.3986(7)
H1 H 1.0972 0.5446 0.3783
C5 C 0.8486(14) 0.5351(12) 0.4486(6)
H2 H 0.8370 0.6400 0.4611
C6 C 0.7153(14) 0.4323(12) 0.4790(7)
H3 H 0.6126 0.4685 0.5132
C7 C 1.1766(14) 0.2710(12) 0.3176(6)
C8 C 0.1963(13) 0.2084(12) 0.5855(7)
C9 C 0.1948(13) 0.0306(11) 0.5729(6)
C10 C 0.0489(13) -0.0642(11) 0.6069(6)
C11 C 0.0631(13) -0.2218(12) 0.5898(7)
H4 H -0.0322 -0.2876 0.6106
C12 C 0.2166(13) -0.2801(12) 0.5423(6)
H5 H 0.2274 -0.3861 0.5314
C13 C 0.3584(15) -0.1785(12) 0.5101(6)
H6 H 0.4626 -0.2175 0.4774
C14 C -0.1110(13) -0.0116(12) 0.6680(6)
Cu1 Cu 0.53134(13) 0.13135(12) 0.49357(8)
N1 N 0.7258(10) 0.2850(9) 0.4620(5)
N2 N 0.3446(10) -0.0272(9) 0.5261(5)
O1 O 0.7164(9) -0.0093(8) 0.4345(4)
O2 O 1.0016(10) -0.0160(8) 0.3635(5)
O3 O 1.3540(9) 0.2439(10) 0.3442(5)
O4 O 1.1141(10) 0.2716(10) 0.2442(5)
O5 O 0.3450(8) 0.2719(8) 0.5510(4)
O6 O 0.0618(9) 0.2725(9) 0.6233(5)
O7 O -0.0536(9) -0.0171(8) 0.7441(4)
O8 O -0.2886(10) 0.0214(9) 0.6412(4)
Cu1_2 Cu -0.46866(13) 0.13135(12) 0.49357(8)
Cu1_3 Cu 1.53134(13) 0.13135(12) 0.49357(8)
O3_2 O 0.3540(9) 0.2439(10) 0.3442(5)
O8_2 O 0.7114(10) 0.0214(9) 0.6412(4)
C15 C 0.8770(13) 0.4109(10) 1.0170(5)
C16 C 0.6617(13) 0.3556(10) 1.1389(6)
C17 C 0.4927(13) 0.3739(10) 1.0838(6)
H7 H 0.3664 0.3613 1.1052
C18 C 0.5231(13) 0.4106(11) 0.9986(6)
H8 H 0.4147 0.4220 0.9611
C19 C 0.7277(12) 0.4753(11) 0.8707(5)
H9 H 0.8490 0.5258 0.8583
C20 C 0.7340(11) 0.3325(10) 0.8243(5)
H10 H 0.6463 0.2564 0.8524
C21 C 0.6451(14) 0.4188(11) 0.7373(6)
H11 H 0.5855 0.3440 0.7080
C22 C 0.4885(15) 0.5516(13) 0.7600(7)
H12 H 0.4799 0.6492 0.7147
C23 C 0.2862(14) 0.5013(13) 0.7725(7)
H13 H 0.1963 0.5861 0.7932
H14 H 0.2328 0.4877 0.7182
N3 N 0.6550(12) 0.3150(10) 1.2231(5)
H15 H 0.7615 0.3071 1.2538
H16 H 0.5442 0.2964 1.2471
N4 N 0.8366(10) 0.3835(9) 1.1038(5)
N5 N 0.7066(10) 0.4314(9) 0.9656(5)
O9 O 1.0421(9) 0.4169(9) 0.9903(4)
O10 O 0.5600(9) 0.5894(7) 0.8385(4)
O11 O 0.9317(8) 0.2491(8) 0.8236(5)
H17 H 0.9317 0.1696 0.8004
O12 O 0.7867(10) 0.5006(8) 0.6846(4)
H18 H 0.8812 0.4330 0.6755
O13 O 0.2986(9) 0.3521(9) 0.8321(5)
H19 H 0.1941 0.3141 0.8304
H20 H 0.935(8) 0.344(9) 1.145(4)
C24 C 0.7320(12) 0.8586(10) -0.0532(5)
C25 C 0.4540(13) 0.9426(11) -0.1568(6)
C26 C 0.3171(13) 0.9242(13) -0.0890(6)
H21 H 0.1799 0.9440 -0.1005
C27 C 0.3879(13) 0.8779(12) -0.0079(6)
H22 H 0.2983 0.8692 0.0367
C28 C 0.6661(12) 0.7986(10) 0.0991(6)
H23 H 0.8014 0.7364 0.1017
C29 C 0.6631(13) 0.9480(10) 0.1414(6)
H24 H 0.5392 1.0232 0.1234
C30 C 0.6460(12) 0.8716(11) 0.2355(6)
H25 H 0.5881 0.9522 0.2696
C31 C 0.5133(14) 0.7442(12) 0.2309(6)
H26 H 0.5623 0.6458 0.2733
C32 C 0.2922(14) 0.7992(13) 0.2479(7)
H27 H 0.2141 0.7151 0.2396
H28 H 0.2778 0.8145 0.3067
N6 N 0.4002(12) 0.9864(11) -0.2360(5)
H29 H 0.4890 0.9998 -0.2746
H30 H 0.2754 1.0024 -0.2504
N7 N 0.6544(10) 0.9176(9) -0.1349(5)
N8 N 0.5887(10) 0.8433(9) 0.0102(5)
O14 O 0.9084(9) 0.8254(10) -0.0406(5)
O15 O 0.5334(9) 0.7041(7) 0.1479(4)
O16 O 0.8259(9) 1.0334(8) 0.1181(4)
H31 H 0.9271 0.9833 0.1445
O17 O 0.8408(9) 0.7891(8) 0.2675(5)
H32 H 0.8848 0.8402 0.3005
O18 O 0.2186(10) 0.9506(8) 0.1907(5)
H33 H 0.1913 1.0240 0.2183
H34 H 0.743(10) 0.935(11) -0.179(4)
loop_
_geom_bond_atom_site_label_1
_geom_bond_atom_site_label_2
_geom_bond_site_symmetry_1
_geom_bond_site_symmetry_2
C1 C2 1_555 1_555
C2 C3 1_555 1_555
C3 C4 1_555 1_555
C4 H1 1_555 1_555
C5 C4 1_555 1_555
H2 C5 1_555 1_555
C6 C5 1_555 1_555
H3 C6 1_555 1_555
C7 C3 1_555 1_555
C8 C9 1_555 1_555
C9 C10 1_555 1_555
C10 C11 1_555 1_555
C11 H4 1_555 1_555
C12 C11 1_555 1_555
H5 C12 1_555 1_555
C13 C12 1_555 1_555
H6 C13 1_555 1_555
C14 C10 1_555 1_555
Cu1 N1 1_555 1_555
N1 C2 1_555 1_555
N2 C9 1_555 1_555
O1 C1 1_555 1_555
O2 C1 1_555 1_555
O3 C7 1_555 1_555
O4 C7 1_555 1_555
O5 C8 1_555 1_555
O6 C8 1_555 1_555
O7 C14 1_555 1_555
O8 C14 1_555 1_555
C15 N4 1_555 1_555
C16 C17 1_555 1_555
C17 H7 1_555 1_555
C18 C17 1_555 1_555
H8 C18 1_555 1_555
C19 H9 1_555 1_555
C20 C19 1_555 1_555
H10 C20 1_555 1_555
C21 C20 1_555 1_555
H11 C21 1_555 1_555
C22 C21 1_555 1_555
H12 C22 1_555 1_555
C23 C22 1_555 1_555
H13 C23 1_555 1_555
H14 C23 1_555 1_555
N3 C16 1_555 1_555
H15 N3 1_555 1_555
H16 N3 1_555 1_555
N4 C16 1_555 1_555
N5 C15 1_555 1_555
O9 C15 1_555 1_555
O10 C19 1_555 1_555
O11 C20 1_555 1_555
H17 O11 1_555 1_555
O12 C21 1_555 1_555
H18 O12 1_555 1_555
O13 C23 1_555 1_555
H19 O13 1_555 1_555
H20 N4 1_555 1_555
C24 N7 1_555 1_555
C25 C26 1_555 1_555
C26 H21 1_555 1_555
C27 C26 1_555 1_555
H22 C27 1_555 1_555
C28 H23 1_555 1_555
C29 C28 1_555 1_555
H24 C29 1_555 1_555
C30 C29 1_555 1_555
H25 C30 1_555 1_555
C31 C30 1_555 1_555
H26 C31 1_555 1_555
C32 C31 1_555 1_555
H27 C32 1_555 1_555
H28 C32 1_555 1_555
N6 C25 1_555 1_555
H29 N6 1_555 1_555
H30 N6 1_555 1_555
N7 C25 1_555 1_555
N8 C24 1_555 1_555
O14 C24 1_555 1_555
O15 C28 1_555 1_555
O16 C29 1_555 1_555
H31 O16 1_555 1_555
O17 C30 1_555 1_555
H32 O17 1_555 1_555
O18 C32 1_555 1_555
H33 O18 1_555 1_555
H34 N7 1_555 1_555
Cu1_2 O8 1_555 1_555
Cu1_3 O3 1_555 1_555
O3_2 Cu1 1_555 1_555
O8_2 Cu1 1_555 1_555
C6 N1 1_555 1_555
C13 N2 1_555 1_555
Cu1 N2 1_555 1_555
Cu1 O1 1_555 1_555
Cu1 O5 1_555 1_555
C18 N5 1_555 1_555
C19 N5 1_555 1_555
C22 O10 1_555 1_555
C27 N8 1_555 1_555
C28 N8 1_555 1_555
C31 O15 1_555 1_555

#END
