
#######################################################################
#
#                 Cambridge Crystallographic Data Centre
#                                CCDC 
#
#######################################################################
#
# If this CIF has been generated from an entry in the Cambridge 
# Structural Database, then it will include bibliographic, chemical, 
# crystal, experimental, refinement or atomic coordinate data resulting 
# from the CCDC's data processing and validation procedures.
#
#######################################################################

data_CILJOY
_symmetry_cell_setting           orthorhombic
_symmetry_space_group_name_H-M   'P b c n'
_symmetry_Int_Tables_number      60
_space_group_name_Hall           '-P 2n 2ab'
loop_
_symmetry_equiv_pos_site_id
_symmetry_equiv_pos_as_xyz
1 x,y,z
2 1/2-x,1/2-y,1/2+z
3 1/2+x,1/2-y,-z
4 -x,y,1/2-z
5 -x,-y,-z
6 1/2+x,1/2+y,1/2-z
7 1/2-x,1/2+y,z
8 x,-y,1/2+z
_cell_length_a                   13.1635(2)
_cell_length_b                   11.1835(2)
_cell_length_c                   24.1019(4)
_cell_angle_alpha                90
_cell_angle_beta                 90
_cell_angle_gamma                90
_cell_volume                     3548.14
loop_
_atom_site_label
_atom_site_type_symbol
_atom_site_fract_x
_atom_site_fract_y
_atom_site_fract_z
Ag1 Ag 0.76662(2) 0.24711(3) 0.366590(12)
Si1 Si 0.61490(7) 0.02133(8) 0.11980(4)
N1 N 0.7379(2) 0.2026(3) 0.28181(12)
N2 N 0.7054(2) 0.1969(3) -0.04997(12)
C1 C 0.7897(3) 0.1152(4) 0.25680(16)
H1 H 0.8505 0.0870 0.2735
C2 C 0.7579(3) 0.0645(4) 0.20739(15)
H2 H 0.7971 0.0025 0.1910
C3 C 0.6695(3) 0.1028(3) 0.18150(13)
C4 C 0.6206(3) 0.1998(3) 0.20630(14)
H3 H 0.5625 0.2340 0.1891
C5 C 0.6560(3) 0.2462(3) 0.25550(15)
H4 H 0.6209 0.3119 0.2716
C6 C 0.4727(3) 0.0279(4) 0.12239(17)
H5 H 0.4513 0.1128 0.1227
H6 H 0.4451 -0.0091 0.0882
C7 C 0.4264(4) -0.0352(4) 0.1729(2)
H7 H 0.3522 -0.0280 0.1716
H8 H 0.4519 0.0021 0.2069
H9 H 0.4455 -0.1199 0.1724
C8 C 0.6623(3) -0.1364(3) 0.12201(16)
H10 H 0.7362 -0.1364 0.1144
H11 H 0.6521 -0.1684 0.1599
C9 C 0.6101(4) -0.2191(4) 0.0807(2)
H12 H 0.6386 -0.2997 0.0840
H13 H 0.6210 -0.1892 0.0430
H14 H 0.5371 -0.2216 0.0886
C10 C 0.6371(3) 0.2489(3) -0.01654(15)
H15 H 0.6059 0.3213 -0.0282
C11 C 0.6102(3) 0.2012(3) 0.03422(15)
H16 H 0.5611 0.2407 0.0565
C12 C 0.6548(3) 0.0953(3) 0.05309(13)
C13 C 0.7267(3) 0.0446(4) 0.01841(15)
H17 H 0.7604 -0.0266 0.0295
C14 C 0.7502(3) 0.0963(4) -0.03219(16)
H18 H 0.7997 0.0591 -0.0551
Ag1A Ag 0.73338(2) 0.25289(3) -0.133410(12)
N2A N 0.7946(2) 0.3031(3) 0.45003(12)
Cl1 Cl 0.47997(7) 0.46453(8) 0.13033(4)
O1 O 0.5707(3) 0.4714(3) 0.09888(16)
O2 O 0.4333(2) 0.3490(2) 0.12163(12)
O3 O 0.4108(3) 0.5569(3) 0.11605(13)
O4 O 0.5047(2) 0.4753(3) 0.18847(13)
loop_
_geom_bond_atom_site_label_1
_geom_bond_atom_site_label_2
_geom_bond_site_symmetry_1
_geom_bond_site_symmetry_2
Ag1 N1 1_555 1_555
Si1 C3 1_555 1_555
N1 C1 1_555 1_555
N2 C10 1_555 1_555
C1 H1 1_555 1_555
C2 C1 1_555 1_555
H2 C2 1_555 1_555
C3 C2 1_555 1_555
C4 C3 1_555 1_555
H3 C4 1_555 1_555
C5 N1 1_555 1_555
H4 C5 1_555 1_555
C6 Si1 1_555 1_555
H5 C6 1_555 1_555
H6 C6 1_555 1_555
C7 C6 1_555 1_555
H7 C7 1_555 1_555
H8 C7 1_555 1_555
H9 C7 1_555 1_555
C8 Si1 1_555 1_555
H10 C8 1_555 1_555
H11 C8 1_555 1_555
C9 C8 1_555 1_555
H12 C9 1_555 1_555
H13 C9 1_555 1_555
H14 C9 1_555 1_555
C10 H15 1_555 1_555
C11 C10 1_555 1_555
H16 C11 1_555 1_555
C12 Si1 1_555 1_555
C13 C12 1_555 1_555
H17 C13 1_555 1_555
C14 N2 1_555 1_555
H18 C14 1_555 1_555
Cl1 O1 1_555 1_555
O2 Cl1 1_555 1_555
O3 Cl1 1_555 1_555
O4 Cl1 1_555 1_555
Ag1A N2 1_555 1_555
N2A Ag1 1_555 1_555
C4 C5 1_555 1_555
C11 C12 1_555 1_555
C13 C14 1_555 1_555

#END
