
#######################################################################
#
#                 Cambridge Crystallographic Data Centre
#                                CCDC 
#
#######################################################################
#
# If this CIF has been generated from an entry in the Cambridge 
# Structural Database, then it will include bibliographic, chemical, 
# crystal, experimental, refinement or atomic coordinate data resulting 
# from the CCDC's data processing and validation procedures.
#
#######################################################################

data_CILJUE
_symmetry_cell_setting           orthorhombic
_symmetry_space_group_name_H-M   'P b c n'
_symmetry_Int_Tables_number      60
_space_group_name_Hall           '-P 2n 2ab'
loop_
_symmetry_equiv_pos_site_id
_symmetry_equiv_pos_as_xyz
1 x,y,z
2 1/2-x,1/2-y,1/2+z
3 -x,y,1/2-z
4 1/2+x,1/2-y,-z
5 -x,-y,-z
6 1/2+x,1/2+y,1/2-z
7 x,-y,1/2+z
8 1/2-x,1/2+y,z
_cell_length_a                   12.8987(3)
_cell_length_b                   11.1528(2)
_cell_length_c                   24.2763(6)
_cell_angle_alpha                90
_cell_angle_beta                 90
_cell_angle_gamma                90
_cell_volume                     3492.31
loop_
_atom_site_label
_atom_site_type_symbol
_atom_site_fract_x
_atom_site_fract_y
_atom_site_fract_z
Ag1 Ag 0.23055(2) 0.74941(2) 0.133708(9)
Si1 Si 0.38428(6) 0.96985(7) 0.37930(3)
N1 N 0.2577(2) 0.7890(2) 0.21844(10)
N2 N 0.2942(2) 0.8013(2) 0.54991(10)
C1 C 0.2047(2) 0.8770(3) 0.24382(12)
H1 H 0.1426 0.9057 0.2274
C2 C 0.2371(2) 0.9270(3) 0.29271(12)
H2 H 0.1975 0.9894 0.3091
C3 C 0.3275(2) 0.8870(2) 0.31844(11)
C4 C 0.3775(2) 0.7904(3) 0.29365(11)
H3 H 0.4369 0.7560 0.3106
C5 C 0.3410(2) 0.7443(3) 0.24438(13)
H4 H 0.3764 0.6783 0.2283
C6 C 0.3376(2) 1.1285(3) 0.37613(13)
H5 H 0.3470 1.1587 0.3381
H6 H 0.2624 1.1298 0.3844
C7 C 0.3927(3) 1.2126(3) 0.41569(17)
H7 H 0.3643 1.2937 0.4117
H8 H 0.4670 1.2137 0.4073
H9 H 0.3823 1.1848 0.4536
C8 C 0.5292(2) 0.9615(3) 0.37592(13)
H10 H 0.5583 0.9978 0.4098
H11 H 0.5502 0.8761 0.3752
C9 C 0.5758(3) 1.0249(3) 0.32570(15)
H12 H 0.6515 1.0170 0.3265
H13 H 0.5570 1.1100 0.3265
H14 H 0.5488 0.9882 0.2919
C10 C 0.2474(3) 0.9011(3) 0.53117(13)
H15 H 0.1970 0.9391 0.5537
C11 C 0.2699(2) 0.9501(3) 0.48046(13)
H16 H 0.2347 1.0204 0.4687
C12 C 0.3438(2) 0.8976(2) 0.44629(11)
C13 C 0.3899(2) 0.7928(3) 0.46569(12)
H17 H 0.4397 0.7522 0.4437
C14 C 0.3632(2) 0.7475(3) 0.51710(12)
H18 H 0.3952 0.6756 0.5294
Ag1A Ag 0.26945(2) 0.75059(2) 0.633708(9)
N2A N 0.2058(2) 0.6987(2) 0.04991(10)
F1 F 0.43439(15) 0.64675(17) 0.12271(8)
F2 F 0.50291(17) 0.5222(2) 0.18629(9)
F3 F 0.4085(2) 0.4460(2) 0.11660(10)
F4 F 0.5683(2) 0.5261(2) 0.10070(12)
B1 B 0.4787(3) 0.5334(3) 0.13036(15)
loop_
_geom_bond_atom_site_label_1
_geom_bond_atom_site_label_2
_geom_bond_site_symmetry_1
_geom_bond_site_symmetry_2
Ag1 N1 1_555 1_555
Si1 C3 1_555 1_555
N1 C1 1_555 1_555
N2 C10 1_555 1_555
C1 H1 1_555 1_555
C2 C1 1_555 1_555
H2 C2 1_555 1_555
C3 C2 1_555 1_555
C4 C3 1_555 1_555
H3 C4 1_555 1_555
C5 N1 1_555 1_555
H4 C5 1_555 1_555
C6 Si1 1_555 1_555
H5 C6 1_555 1_555
H6 C6 1_555 1_555
C7 C6 1_555 1_555
H7 C7 1_555 1_555
H8 C7 1_555 1_555
H9 C7 1_555 1_555
C8 Si1 1_555 1_555
H10 C8 1_555 1_555
H11 C8 1_555 1_555
C9 C8 1_555 1_555
H12 C9 1_555 1_555
H13 C9 1_555 1_555
H14 C9 1_555 1_555
C10 H15 1_555 1_555
C11 C10 1_555 1_555
H16 C11 1_555 1_555
C12 Si1 1_555 1_555
C13 C12 1_555 1_555
H17 C13 1_555 1_555
C14 N2 1_555 1_555
H18 C14 1_555 1_555
F1 B1 1_555 1_555
F2 B1 1_555 1_555
F3 B1 1_555 1_555
F4 B1 1_555 1_555
Ag1A N2 1_555 1_555
N2A Ag1 1_555 1_555
C4 C5 1_555 1_555
C11 C12 1_555 1_555
C13 C14 1_555 1_555

#END
