
#######################################################################
#
#                 Cambridge Crystallographic Data Centre
#                                CCDC 
#
#######################################################################
#
# If this CIF has been generated from an entry in the Cambridge 
# Structural Database, then it will include bibliographic, chemical, 
# crystal, experimental, refinement or atomic coordinate data resulting 
# from the CCDC's data processing and validation procedures.
#
#######################################################################

data_CILKOZ
_symmetry_cell_setting           monoclinic
_symmetry_space_group_name_H-M   'C 2/c'
_symmetry_Int_Tables_number      15
_space_group_name_Hall           '-C 2yn'
loop_
_symmetry_equiv_pos_site_id
_symmetry_equiv_pos_as_xyz
1 x,y,z
2 -x,y,1/2-z
3 1/2+x,1/2+y,z
4 1/2-x,1/2+y,1/2-z
5 -x,-y,-z
6 x,-y,1/2+z
7 1/2-x,1/2-y,-z
8 1/2+x,1/2-y,1/2+z
_cell_length_a                   17.2027(8)
_cell_length_b                   16.6803(5)
_cell_length_c                   10.0443(5)
_cell_angle_alpha                90
_cell_angle_beta                 120.267(6)
_cell_angle_gamma                90
_cell_volume                     2489.29
loop_
_atom_site_label
_atom_site_type_symbol
_atom_site_fract_x
_atom_site_fract_y
_atom_site_fract_z
Zn1 Zn 0.26764(2) 0.105331(18) 0.85457(4)
C1 C 0.2907(2) 0.01416(17) 0.6085(4)
C2 C 0.3675(3) 0.0609(3) 0.6200(6)
H1 H 0.3839 0.1023 0.6960
H2 H 0.3502 0.0847 0.5219
H3 H 0.4179 0.0259 0.6496
C3 C 0.0739(2) 0.15328(18) 0.6592(4)
H4 H 0.0645 0.0982 0.6531
C4 C 0.0008(2) 0.20237(19) 0.5813(4)
H5 H -0.0566 0.1807 0.5239
C5 C 0.01325(19) 0.28447(18) 0.5891(3)
C6 C 0.1007(2) 0.31353(18) 0.6771(4)
H6 H 0.1118 0.3684 0.6849
C7 C 0.1707(2) 0.26003(18) 0.7525(4)
H7 H 0.2289 0.2798 0.8119
C8 C -0.0637(2) 0.34184(19) 0.5074(4)
N1 N 0.25248(16) 0.02665(15) 0.6934(3)
N2 N 0.1871(2) -0.02957(17) 0.6498(4)
N3 N 0.1856(2) -0.07405(18) 0.5421(4)
N4 N 0.25058(17) -0.04784(14) 0.5137(3)
N5 N 0.15785(16) 0.18041(13) 0.7432(3)
O1 O -0.14126(15) 0.31112(13) 0.4293(3)
O2 O -0.0503(2) 0.41431(15) 0.5200(4)
Zn1E Zn 0.26764(2) -0.105331(18) 0.35457(4)
Zn1G Zn -0.23236(2) 0.394669(18) 0.35457(4)
N4E N 0.25058(17) 0.04784(14) 1.0137(3)
O1G O 0.35874(15) 0.18888(13) 0.9293(3)
loop_
_geom_bond_atom_site_label_1
_geom_bond_atom_site_label_2
_geom_bond_site_symmetry_1
_geom_bond_site_symmetry_2
Zn1 N1 1_555 1_555
C1 C2 1_555 1_555
C2 H1 1_555 1_555
H2 C2 1_555 1_555
H3 C2 1_555 1_555
C3 H4 1_555 1_555
C4 C3 1_555 1_555
H5 C4 1_555 1_555
C5 C4 1_555 1_555
C6 C5 1_555 1_555
H6 C6 1_555 1_555
C7 C6 1_555 1_555
H7 C7 1_555 1_555
C8 C5 1_555 1_555
N1 C1 1_555 1_555
N2 N1 1_555 1_555
N3 N2 1_555 1_555
N4 C1 1_555 1_555
N5 Zn1 1_555 1_555
O1 C8 1_555 1_555
O2 C8 1_555 1_555
Zn1E N4 1_555 1_555
Zn1G O1 1_555 1_555
N4E Zn1 1_555 1_555
O1G Zn1 1_555 1_555
C3 N5 1_555 1_555
C7 N5 1_555 1_555
N3 N4 1_555 1_555

#END
