
#######################################################################
#
#                 Cambridge Crystallographic Data Centre
#                                CCDC 
#
#######################################################################
#
# If this CIF has been generated from an entry in the Cambridge 
# Structural Database, then it will include bibliographic, chemical, 
# crystal, experimental, refinement or atomic coordinate data resulting 
# from the CCDC's data processing and validation procedures.
#
#######################################################################

data_CILKIT
_symmetry_cell_setting           monoclinic
_symmetry_space_group_name_H-M   'P 21/c'
_symmetry_Int_Tables_number      14
_space_group_name_Hall           '-P 2ybc'
loop_
_symmetry_equiv_pos_site_id
_symmetry_equiv_pos_as_xyz
1 x,y,z
2 -x,1/2+y,1/2-z
3 -x,-y,-z
4 x,1/2-y,1/2+z
_cell_length_a                   7.8273(7)
_cell_length_b                   19.155(3)
_cell_length_c                   10.1323(12)
_cell_angle_alpha                90
_cell_angle_beta                 96.535(9)
_cell_angle_gamma                90
_cell_volume                     1509.28
loop_
_atom_site_label
_atom_site_type_symbol
_atom_site_fract_x
_atom_site_fract_y
_atom_site_fract_z
Zn1 Zn -0.80708(5) 0.66058(2) 0.59168(4)
N1 N -0.5900(4) 0.59897(15) 0.6215(3)
O1 O -0.1246(4) 0.68737(19) 0.5634(3)
N2 N -0.7731(4) 0.77120(17) 0.2435(3)
O2 O 0.0145(4) 0.58943(17) 0.6099(3)
N3 N -0.7732(4) 0.70769(17) 0.4197(3)
C1 C -0.4389(4) 0.6266(2) 0.6022(4)
H1 H -0.4356 0.6731 0.5759
C2 C -0.1219(5) 0.6255(2) 0.5950(4)
N4 N -0.6802(5) 0.6750(2) 0.3340(3)
C3 C -0.5951(5) 0.5325(2) 0.6611(4)
H2 H -0.7005 0.5132 0.6752
C4 C -0.8288(5) 0.76684(19) 0.3624(3)
N5 N -0.6798(5) 0.7131(2) 0.2291(3)
C5 C -0.2923(5) 0.5205(2) 0.6614(4)
H3 H -0.1925 0.4939 0.6758
C6 C -0.2852(4) 0.5891(2) 0.6197(3)
C7 C -0.4505(5) 0.4918(2) 0.6814(4)
H4 H -0.4581 0.4456 0.7083
C8 C -0.9355(7) 0.8200(3) 0.4204(5)
H5 H -0.9587 0.8578 0.3587
H6 H -0.8751 0.8374 0.5015
H7 H -1.0420 0.7993 0.4387
Zn1_2 Zn 0.19292(5) 0.66058(2) 0.59168(4)
Zn1C Zn -0.80708(5) 0.83942(2) 0.09168(4)
O1_2 O -1.1246(4) 0.68737(19) 0.5634(3)
N2C N -0.7731(4) 0.72880(17) 0.7435(3)
O2_2 O -0.9855(4) 0.58943(17) 0.6099(3)
loop_
_geom_bond_atom_site_label_1
_geom_bond_atom_site_label_2
_geom_bond_site_symmetry_1
_geom_bond_site_symmetry_2
Zn1 N1 1_555 1_555
N1 C1 1_555 1_555
O1 C2 1_555 1_555
N2 C4 1_555 1_555
O2 C2 1_555 1_555
N3 Zn1 1_555 1_555
C1 H1 1_555 1_555
C2 C6 1_555 1_555
N4 N3 1_555 1_555
C3 N1 1_555 1_555
H2 C3 1_555 1_555
C4 N3 1_555 1_555
N5 N2 1_555 1_555
C5 H3 1_555 1_555
C6 C1 1_555 1_555
C7 C3 1_555 1_555
H4 C7 1_555 1_555
C8 C4 1_555 1_555
H5 C8 1_555 1_555
H6 C8 1_555 1_555
H7 C8 1_555 1_555
Zn1_2 O1 1_555 1_555
Zn1C N2 1_555 1_555
O1_2 Zn1 1_555 1_555
N2C Zn1 1_555 1_555
O2_2 Zn1 1_555 1_555
O2 Zn1_2 1_555 1_555
N4 N5 1_555 1_555
C5 C6 1_555 1_555
C5 C7 1_555 1_555

#END
