
#######################################################################
#
#                 Cambridge Crystallographic Data Centre
#                                CCDC 
#
#######################################################################
#
# If this CIF has been generated from an entry in the Cambridge 
# Structural Database, then it will include bibliographic, chemical, 
# crystal, experimental, refinement or atomic coordinate data resulting 
# from the CCDC's data processing and validation procedures.
#
#######################################################################

data_CILNUI
_symmetry_cell_setting           triclinic
_symmetry_space_group_name_H-M   'P -1'
_symmetry_Int_Tables_number      2
_space_group_name_Hall           '-P 1'
loop_
_symmetry_equiv_pos_site_id
_symmetry_equiv_pos_as_xyz
1 x,y,z
2 -x,-y,-z
_cell_length_a                   8.0447(10)
_cell_length_b                   12.4673(16)
_cell_length_c                   13.4014(16)
_cell_angle_alpha                110.964(7)
_cell_angle_beta                 95.056(6)
_cell_angle_gamma                101.381(6)
_cell_volume                     1211.81
loop_
_atom_site_label
_atom_site_type_symbol
_atom_site_fract_x
_atom_site_fract_y
_atom_site_fract_z
Cu1 Cu 0.50002(12) 0.00018(9) 0.25010(9)
O1 O 0.4375(5) -0.1931(4) -0.2274(4)
O2 O 0.4464(7) -0.3530(4) -0.1940(4)
O3 O 0.7696(5) 0.1896(4) 0.5445(4)
O4 O 0.6982(5) 0.0772(4) 0.3683(4)
O5 O 0.5608(5) 0.1912(4) 0.7287(4)
O6 O 0.5553(6) 0.3511(4) 0.6917(4)
O7 O 0.3010(5) -0.0771(4) 0.1319(4)
O8 O 0.2305(5) -0.1895(4) -0.0441(4)
N1 N 0.3700(6) 0.0578(4) 0.3684(4)
N2 N 0.6285(6) -0.0588(5) 0.1319(5)
C1 C 0.4824(8) -0.2426(6) -0.1669(6)
C2 C 0.4730(7) 0.1200(5) 0.4651(5)
C3 C 0.4066(7) 0.1689(5) 0.5589(5)
C4 C 0.2279(8) 0.1524(5) 0.5487(6)
H1 H 0.1781 0.1840 0.6093
C5 C 0.1261(8) 0.0889(6) 0.4480(6)
H2 H 0.0071 0.0773 0.4404
C6 C 0.2008(8) 0.0428(6) 0.3593(6)
H3 H 0.1316 0.0004 0.2915
C7 C 0.6633(7) 0.1298(5) 0.4602(6)
C8 C 0.5188(8) 0.2429(6) 0.6704(6)
C9 C 0.3370(8) -0.1315(6) 0.0390(6)
C10 C 0.5286(7) -0.1199(5) 0.0345(6)
C11 C 0.8004(7) -0.0420(6) 0.1400(6)
H4 H 0.8695 0.0025 0.2075
C12 C 0.8773(8) -0.0887(6) 0.0520(6)
H5 H 0.9961 -0.0781 0.0594
C13 C 0.7723(8) -0.1515(6) -0.0475(6)
H6 H 0.8209 -0.1836 -0.1085
C14 C 0.5949(8) -0.1677(5) -0.0580(5)
Cu1A Cu 0.49998(12) -0.00018(9) -0.25010(9)
Cu1A_2 Cu 0.49998(12) -0.00018(9) 0.74990(9)
O1A O 0.5625(5) 0.1931(4) 0.2274(4)
O5A O 0.4392(5) -0.1912(4) 0.2713(4)
N3 N 1.1032(7) 0.6915(5) 0.1784(5)
H7 H 1.2072 0.7331 0.2050
N4 N 0.8638(7) 0.6033(5) 0.0699(5)
H8 H 0.7857 0.5780 0.0130
C15 C 1.0196(8) 0.6718(6) 0.0842(7)
H9 H 1.0622 0.7012 0.0343
C16 C 0.9983(10) 0.6351(7) 0.2284(7)
H10 H 1.0263 0.6353 0.2973
C17 C 0.8491(11) 0.5798(7) 0.1613(7)
H11 H 0.7534 0.5342 0.1740
N5 N -0.1035(8) 0.3078(5) 0.3245(6)
H12 H -0.2073 0.2651 0.2996
C18 C 0.1458(10) 0.4191(8) 0.3372(7)
H13 H 0.2383 0.4651 0.3221
C19 C -0.0054(10) 0.3616(8) 0.2730(7)
H14 H -0.0372 0.3594 0.2038
C20 C -0.0129(10) 0.3315(7) 0.4212(6)
H15 H -0.0513 0.3053 0.4739
N6 N 0.1388(7) 0.3976(5) 0.4291(5)
H16 H 0.2210 0.4234 0.4837
O9 O 0.6358(9) 0.5317(5) 0.3902(5)
H17 H 0.612(7) 0.578(4) 0.353(4)
H18 H 0.652(9) 0.474(5) 0.326(4)
O10 O 0.3563(8) 0.4668(5) 0.1119(5)
H19 H 0.404(7) 0.544(2) 0.159(4)
H20 H 0.436(5) 0.425(4) 0.117(4)
loop_
_geom_bond_atom_site_label_1
_geom_bond_atom_site_label_2
_geom_bond_site_symmetry_1
_geom_bond_site_symmetry_2
Cu1 O4 1_555 1_555
O1 C1 1_555 1_555
O2 C1 1_555 1_555
O3 C7 1_555 1_555
O4 C7 1_555 1_555
O5 C8 1_555 1_555
O6 C8 1_555 1_555
O7 Cu1 1_555 1_555
O8 C9 1_555 1_555
N1 Cu1 1_555 1_555
N2 Cu1 1_555 1_555
C1 C14 1_555 1_555
C2 N1 1_555 1_555
C3 C2 1_555 1_555
C4 C3 1_555 1_555
H1 C4 1_555 1_555
C5 C4 1_555 1_555
H2 C5 1_555 1_555
C6 N1 1_555 1_555
H3 C6 1_555 1_555
C7 C2 1_555 1_555
C8 C3 1_555 1_555
C9 O7 1_555 1_555
C10 N2 1_555 1_555
C11 N2 1_555 1_555
H4 C11 1_555 1_555
C12 C11 1_555 1_555
H5 C12 1_555 1_555
C13 C12 1_555 1_555
H6 C13 1_555 1_555
C14 C10 1_555 1_555
N3 H7 1_555 1_555
N4 H8 1_555 1_555
C15 N3 1_555 1_555
H9 C15 1_555 1_555
C16 N3 1_555 1_555
H10 C16 1_555 1_555
C17 N4 1_555 1_555
H11 C17 1_555 1_555
N5 H12 1_555 1_555
C18 H13 1_555 1_555
C19 N5 1_555 1_555
H14 C19 1_555 1_555
C20 N5 1_555 1_555
H15 C20 1_555 1_555
N6 C18 1_555 1_555
H16 N6 1_555 1_555
O9 H17 1_555 1_555
H18 O9 1_555 1_555
O10 H19 1_555 1_555
H20 O10 1_555 1_555
Cu1A O1 1_555 1_555
Cu1A_2 O5 1_555 1_555
O1A Cu1 1_555 1_555
O5A Cu1 1_555 1_555
C5 C6 1_555 1_555
C9 C10 1_555 1_555
C13 C14 1_555 1_555
N4 C15 1_555 1_555
C16 C17 1_555 1_555
C18 C19 1_555 1_555
C20 N6 1_555 1_555

#END
