
#######################################################################
#
#                 Cambridge Crystallographic Data Centre
#                                CCDC 
#
#######################################################################
#
# If this CIF has been generated from an entry in the Cambridge 
# Structural Database, then it will include bibliographic, chemical, 
# crystal, experimental, refinement or atomic coordinate data resulting 
# from the CCDC's data processing and validation procedures.
#
#######################################################################

data_CILPOE
_symmetry_cell_setting           monoclinic
_symmetry_space_group_name_H-M   'P 21/c'
_symmetry_Int_Tables_number      14
_space_group_name_Hall           '-P 2ybc'
loop_
_symmetry_equiv_pos_site_id
_symmetry_equiv_pos_as_xyz
1 x,y,z
2 -x,1/2+y,1/2-z
3 -x,-y,-z
4 x,1/2-y,1/2+z
_cell_length_a                   11.3777(15)
_cell_length_b                   6.2596(9)
_cell_length_c                   20.920(2)
_cell_angle_alpha                90
_cell_angle_beta                 121.649(8)
_cell_angle_gamma                90
_cell_volume                     1268.34
loop_
_atom_site_label
_atom_site_type_symbol
_atom_site_fract_x
_atom_site_fract_y
_atom_site_fract_z
Cu1 Cu 0.0000 0.5000 0.0000
O1 O 0.0427(4) 0.6694(6) 0.0871(2)
O2 O 0.1766(5) 0.9385(7) 0.1568(2)
O3 O 0.4228(4) 1.1318(6) 0.1589(2)
O4 O 0.2620(4) 1.3806(6) 0.0951(2)
N1 N 0.0943(4) 0.7327(7) -0.0192(2)
C1 C 0.1245(6) 0.8283(8) 0.1000(3)
C2 C 0.1540(5) 0.8707(8) 0.0389(3)
C3 C 0.2344(6) 1.0393(8) 0.0396(3)
C4 C 0.2483(7) 1.0609(10) -0.0215(3)
H1 H 0.2991 1.1740 -0.0237
C5 C 0.1873(7) 0.9157(11) -0.0795(3)
H2 H 0.1981 0.9282 -0.1204
C6 C 0.1111(6) 0.7535(10) -0.0760(3)
H3 H 0.0700 0.6552 -0.1151
C7 C 0.3096(5) 1.1963(9) 0.1037(3)
O1B O -0.0427(4) 0.3306(6) -0.0871(2)
O2B O -0.1766(5) 0.0615(7) -0.1568(2)
O3B O -0.4228(4) -0.1318(6) -0.1589(2)
O4B O -0.2620(4) -0.3806(6) -0.0951(2)
N1B N -0.0943(4) 0.2673(7) 0.0192(2)
C1B C -0.1245(6) 0.1717(8) -0.1000(3)
C2B C -0.1540(5) 0.1293(8) -0.0389(3)
C3B C -0.2344(6) -0.0393(8) -0.0396(3)
C4B C -0.2483(7) -0.0609(10) 0.0215(3)
H1B H -0.2991 -0.1740 0.0237
C5B C -0.1873(7) 0.0843(11) 0.0795(3)
H2B H -0.1981 0.0718 0.1204
C6B C -0.1111(6) 0.2465(10) 0.0760(3)
H3B H -0.0700 0.3448 0.1151
C7B C -0.3096(5) -0.1963(9) -0.1037(3)
Cu1_2 Cu 0.0000 -0.5000 0.0000
Cu1_3 Cu 0.0000 1.5000 0.0000
O4_2 O 0.2620(4) 0.3806(6) 0.0951(2)
O4B_2 O -0.2620(4) 0.6194(6) -0.0951(2)
N2 N 0.5222(5) 0.1866(7) 0.3112(3)
H4 H 0.4961 0.1741 0.2632
H5 H 0.5893 0.0934 0.3386
H6 H 0.5529 0.3186 0.3270
C8 C 0.2993(7) 0.3204(12) 0.2818(4)
H7 H 0.3403 0.4531 0.3064
H8 H 0.2193 0.2925 0.2847
H9 H 0.2727 0.3290 0.2301
C9 C 0.4019(6) 0.1427(11) 0.3196(4)
H10 H 0.3589 0.0081 0.2941
C10 C 0.4517(9) 0.1202(15) 0.4028(4)
H11 H 0.5144 0.0018 0.4237
H12 H 0.3740 0.0957 0.4081
H13 H 0.4980 0.2488 0.4288
O5 O 0.0531(9) 0.798(3) 0.2448(5)
loop_
_geom_bond_atom_site_label_1
_geom_bond_atom_site_label_2
_geom_bond_site_symmetry_1
_geom_bond_site_symmetry_2
Cu1 O1 1_555 1_555
O1 C1 1_555 1_555
O2 C1 1_555 1_555
O3 C7 1_555 1_555
O4 C7 1_555 1_555
N1 Cu1 1_555 1_555
C1 C2 1_555 1_555
C2 N1 1_555 1_555
C3 C2 1_555 1_555
C4 C3 1_555 1_555
H1 C4 1_555 1_555
C5 C4 1_555 1_555
H2 C5 1_555 1_555
C6 N1 1_555 1_555
H3 C6 1_555 1_555
C7 C3 1_555 1_555
N2 H4 1_555 1_555
H5 N2 1_555 1_555
H6 N2 1_555 1_555
C8 H7 1_555 1_555
H8 C8 1_555 1_555
H9 C8 1_555 1_555
C9 N2 1_555 1_555
H10 C9 1_555 1_555
C10 C9 1_555 1_555
H11 C10 1_555 1_555
H12 C10 1_555 1_555
H13 C10 1_555 1_555
O1B Cu1 1_555 1_555
O2B C1B 1_555 1_555
O3B C7B 1_555 1_555
O4B C7B 1_555 1_555
N1B Cu1 1_555 1_555
C1B O1B 1_555 1_555
C2B N1B 1_555 1_555
C3B C2B 1_555 1_555
C4B C3B 1_555 1_555
H1B C4B 1_555 1_555
C5B C4B 1_555 1_555
H2B C5B 1_555 1_555
C6B N1B 1_555 1_555
H3B C6B 1_555 1_555
C7B C3B 1_555 1_555
Cu1_2 O4B 1_555 1_555
Cu1_3 O4 1_555 1_555
O4_2 Cu1 1_555 1_555
O4B_2 Cu1 1_555 1_555
C5 C6 1_555 1_555
C8 C9 1_555 1_555
C1B C2B 1_555 1_555
C5B C6B 1_555 1_555

#END
