
#######################################################################
#
#                 Cambridge Crystallographic Data Centre
#                                CCDC 
#
#######################################################################
#
# If this CIF has been generated from an entry in the Cambridge 
# Structural Database, then it will include bibliographic, chemical, 
# crystal, experimental, refinement or atomic coordinate data resulting 
# from the CCDC's data processing and validation procedures.
#
#######################################################################

data_CILPIY
_symmetry_cell_setting           monoclinic
_symmetry_space_group_name_H-M   'C 2/c'
_symmetry_Int_Tables_number      15
_space_group_name_Hall           '-C 2yn'
loop_
_symmetry_equiv_pos_site_id
_symmetry_equiv_pos_as_xyz
1 x,y,z
2 -x,y,1/2-z
3 1/2+x,1/2+y,z
4 1/2-x,1/2+y,1/2-z
5 -x,-y,-z
6 x,-y,1/2+z
7 1/2-x,1/2-y,-z
8 1/2+x,1/2-y,1/2+z
_cell_length_a                   21.6963(13)
_cell_length_b                   14.8361(13)
_cell_length_c                   6.8547(5)
_cell_angle_alpha                90
_cell_angle_beta                 102.763(7)
_cell_angle_gamma                90
_cell_volume                     2151.93
loop_
_atom_site_label
_atom_site_type_symbol
_atom_site_fract_x
_atom_site_fract_y
_atom_site_fract_z
C8 C 0.5000 0.1393(6) 0.7500
H4 H 0.5000 0.2020 0.7500
C9 C 0.5554(3) 0.0927(5) 0.8003(9)
H5 H 0.5935 0.1235 0.8358
C10 C 0.5000 -0.0424(7) 0.7500
H6 H 0.5000 -0.1051 0.7500
H7 H 0.595(2) -0.029(5) 0.811(13)
N2 N 0.5546(4) 0.0015(5) 0.7983(8)
C9A C 0.4446(3) 0.0927(5) 0.6997(9)
H5A H 0.4065 0.1235 0.6642
H7A H 0.405(2) -0.029(5) 0.689(13)
N2A N 0.4454(4) 0.0015(5) 0.7017(8)
O5 O 0.4677(4) 0.2836(8) 0.3714(19)
O6 O 0.4732(15) 0.405(3) 0.539(6)
C1 C 0.81952(17) 0.3126(2) 0.7376(5)
C2 C 0.75260(16) 0.3451(2) 0.6507(5)
C3 C 0.73463(18) 0.3946(3) 0.4767(5)
C4 C 0.67082(19) 0.4155(3) 0.4119(6)
H1 H 0.6570 0.4473 0.2933
C5 C 0.62829(19) 0.3894(3) 0.5223(6)
H2 H 0.5857 0.4034 0.4799
C6 C 0.64975(18) 0.3420(3) 0.6967(6)
H3 H 0.6212 0.3254 0.7734
C7 C 0.77990(18) 0.4300(2) 0.3569(5)
Cu1 Cu 0.7500 0.2500 1.0000
N1 N 0.71027(14) 0.3195(2) 0.7586(4)
O1 O 0.82653(14) 0.26851(19) 0.9015(4)
O2 O 0.86103(12) 0.3274(2) 0.6471(4)
O3 O 0.81338(13) 0.4977(2) 0.4185(4)
O4 O 0.7769(2) 0.3963(2) 0.1894(5)
C1F C 0.68048(17) 0.1874(2) 0.2624(5)
C2F C 0.74740(16) 0.1549(2) 0.3493(5)
C3F C 0.76537(18) 0.1054(3) 0.5233(5)
C4F C 0.82918(19) 0.0845(3) 0.5881(6)
H1F H 0.8430 0.0527 0.7067
C5F C 0.87171(19) 0.1106(3) 0.4777(6)
H2F H 0.9143 0.0966 0.5201
C6F C 0.85025(18) 0.1580(3) 0.3033(6)
H3F H 0.8788 0.1746 0.2266
C7F C 0.72010(18) 0.0700(2) 0.6431(5)
N1F N 0.78973(14) 0.1805(2) 0.2414(4)
O1F O 0.67347(14) 0.23149(19) 0.0985(4)
O2F O 0.63897(12) 0.1726(2) 0.3529(4)
O3F O 0.68662(13) 0.0023(2) 0.5815(4)
O4F O 0.7231(2) 0.1037(2) 0.8106(5)
Cu1_2 Cu 0.7500 0.2500 0.0000
N1F_2 N 0.78973(14) 0.1805(2) 1.2414(4)
O1F_2 O 0.67347(14) 0.23149(19) 1.0985(4)
O4_2 O 0.7769(2) 0.3963(2) 1.1894(5)
O7? O 0.5000 0.4285(8) 0.7500
loop_
_geom_bond_atom_site_label_1
_geom_bond_atom_site_label_2
_geom_bond_site_symmetry_1
_geom_bond_site_symmetry_2
C1 C2 1_555 1_555
C2 C3 1_555 1_555
C3 C4 1_555 1_555
C4 H1 1_555 1_555
C5 C4 1_555 1_555
H2 C5 1_555 1_555
C6 C5 1_555 1_555
H3 C6 1_555 1_555
C7 C3 1_555 1_555
Cu1 N1 1_555 1_555
N1 C2 1_555 1_555
O1 C1 1_555 1_555
O2 C1 1_555 1_555
O3 C7 1_555 1_555
O4 C7 1_555 1_555
C8 H4 1_555 1_555
C9 C8 1_555 1_555
H5 C9 1_555 1_555
C10 H6 1_555 1_555
H7 N2 1_555 1_555
N2 C9 1_555 1_555
C1F C2F 1_555 1_555
C2F C3F 1_555 1_555
C3F C4F 1_555 1_555
C4F H1F 1_555 1_555
C5F C4F 1_555 1_555
H2F C5F 1_555 1_555
C6F C5F 1_555 1_555
H3F C6F 1_555 1_555
C7F C3F 1_555 1_555
N1F C2F 1_555 1_555
O1F C1F 1_555 1_555
O2F C1F 1_555 1_555
O3F C7F 1_555 1_555
O4F Cu1 1_555 1_555
Cu1_2 O4 1_555 1_555
N1F_2 Cu1 1_555 1_555
O1F_2 Cu1 1_555 1_555
O4_2 Cu1 1_555 1_555
C9A C8 1_555 1_555
H5A C9A 1_555 1_555
H7A N2A 1_555 1_555
N2A C10 1_555 1_555
C6 N1 1_555 1_555
Cu1 O1 1_555 1_555
C10 N2 1_555 1_555
C6F N1F 1_555 1_555
C7F O4F 1_555 1_555
N1F Cu1_2 1_555 1_555
O1F Cu1_2 1_555 1_555
C9A N2A 1_555 1_555

#END
