
#######################################################################
#
#                 Cambridge Crystallographic Data Centre
#                                CCDC 
#
#######################################################################
#
# If this CIF has been generated from an entry in the Cambridge 
# Structural Database, then it will include bibliographic, chemical, 
# crystal, experimental, refinement or atomic coordinate data resulting 
# from the CCDC's data processing and validation procedures.
#
#######################################################################

data_CILQAP
_symmetry_cell_setting           monoclinic
_symmetry_space_group_name_H-M   'P 21/c'
_symmetry_Int_Tables_number      14
_space_group_name_Hall           '-P 2ybc'
loop_
_symmetry_equiv_pos_site_id
_symmetry_equiv_pos_as_xyz
1 x,y,z
2 x,1/2-y,1/2+z
3 -x,-y,-z
4 -x,1/2+y,1/2-z
_cell_length_a                   16.2475(2)
_cell_length_b                   15.9840(2)
_cell_length_c                   16.38560(10)
_cell_angle_alpha                90.00
_cell_angle_beta                 94.2776(3)
_cell_angle_gamma                90.00
_cell_volume                     4243.49
loop_
_atom_site_label
_atom_site_type_symbol
_atom_site_fract_x
_atom_site_fract_y
_atom_site_fract_z
Fe1 Fe 0.28486(3) 0.22416(3) 0.46061(3)
Fe2 Fe 0.24457(3) 0.55750(3) 0.50792(3)
Fe3 Fe 0.22527(3) -0.10603(3) 0.52602(3)
O1 O 0.21272(15) 0.1224(2) 0.41215(14)
O2 O 0.33464(15) 0.1246(2) 0.53328(14)
O3 O 0.22446(14) 0.32649(15) 0.40151(14)
O4 O 0.34735(14) 0.32410(15) 0.52127(14)
O5 O 0.20300(14) 0.46241(15) 0.42512(14)
O6 O 0.32938(14) 0.46098(15) 0.54305(14)
O7 O 0.15996(14) 0.65385(15) 0.47065(14)
O8 O 0.28652(14) 0.6544(2) 0.58870(13)
O9 O 0.15541(14) 0.79322(15) 0.47547(13)
O10 O 0.27681(14) 0.79383(15) 0.59709(13)
O11 O 0.18340(15) -0.00966(15) 0.44395(14)
O12 O 0.30057(15) -0.00449(15) 0.57014(14)
N1 N 0.1900(2) 0.2332(2) 0.5568(2)
N2 N -0.1079(2) 0.2140(2) 0.8517(2)
N3 N 0.3762(2) 0.1989(2) 0.3696(2)
N4 N 0.6713(2) 0.1122(2) 0.0817(2)
N5 N 0.1602(2) 0.5067(2) 0.5980(2)
N6 N -0.1333(2) 0.4311(2) 0.8896(2)
N7 N 0.3221(2) -0.1283(2) 0.4373(2)
N8 N 0.6136(2) -0.0763(2) 0.1399(2)
C1 C 0.1094(2) 0.2273(3) 0.5351(2)
H1 H 0.0927(2) 0.2250(3) 0.4796(2)
C2 C 0.0498(2) 0.2244(3) 0.5901(2)
H2 H -0.0056(2) 0.2205(3) 0.5715(2)
C3 C 0.0721(2) 0.2273(2) 0.6733(2)
C4 C 0.1560(2) 0.2350(3) 0.6955(2)
H3 H 0.1746(2) 0.2382(3) 0.7505(2)
C5 C 0.2112(2) 0.2379(3) 0.6364(2)
H4 H 0.2669(2) 0.2434(3) 0.6531(2)
C6 C 0.0100(2) 0.2231(2) 0.7359(2)
C7 C 0.0297(2) 0.1905(2) 0.8133(2)
H5 H 0.0827(2) 0.1712(2) 0.8282(2)
C8 C -0.0312(2) 0.1874(2) 0.8678(2)
H6 H -0.0173(2) 0.1650(2) 0.9194(2)
C9 C -0.1259(2) 0.2453(3) 0.7771(2)
H7 H -0.1793(2) 0.2644(3) 0.7643(2)
C10 C -0.0702(2) 0.2511(3) 0.7177(2)
H8 H -0.0861(2) 0.2734(3) 0.6664(2)
C11 C 0.3561(2) 0.1623(2) 0.2973(2)
H9 H 0.3014(2) 0.1467(2) 0.2851(2)
C12 C 0.4123(2) 0.1463(3) 0.2400(2)
H10 H 0.3948(2) 0.1220(3) 0.1901(2)
C13 C 0.4948(2) 0.1669(2) 0.2570(2)
C14 C 0.5165(2) 0.2025(2) 0.3325(2)
H11 H 0.5713(2) 0.2159(2) 0.3472(2)
C15 C 0.4560(2) 0.2182(2) 0.3861(2)
H12 H 0.4717(2) 0.2433(2) 0.4360(2)
C16 C 0.5568(2) 0.1497(2) 0.1963(2)
C17 C 0.5363(2) 0.1560(3) 0.1132(2)
H13 H 0.4836(2) 0.1727(3) 0.0940(2)
C18 C 0.5950(2) 0.1370(2) 0.0586(2)
H14 H 0.5802(2) 0.1420(2) 0.0029(2)
C19 C 0.6915(2) 0.1088(3) 0.1616(2)
H15 H 0.7450(2) 0.0932(3) 0.1790(2)
C20 C 0.6375(2) 0.1272(3) 0.2205(2)
H16 H 0.6550(2) 0.1244(3) 0.2758(2)
C21 C 0.0854(2) 0.4768(2) 0.5765(2)
H17 H 0.0717(2) 0.4667(2) 0.5212(2)
C22 C 0.0271(2) 0.4598(3) 0.6308(2)
H18 H -0.0244(2) 0.4392(3) 0.6121(2)
C23 C 0.0455(2) 0.4737(2) 0.7135(2)
C24 C 0.1241(2) 0.5018(3) 0.7370(2)
H19 H 0.1402(2) 0.5099(3) 0.7921(2)
C25 C 0.1785(2) 0.5179(3) 0.6785(2)
H20 H 0.2309(2) 0.5375(3) 0.6956(2)
C26 C -0.0164(2) 0.4599(2) 0.7745(2)
C27 C 0.0063(2) 0.4265(2) 0.8510(2)
H21 H 0.0612(2) 0.4136(2) 0.8656(2)
C28 C -0.0534(2) 0.4125(3) 0.9054(2)
H22 H -0.0370(2) 0.3889(3) 0.9559(2)
C29 C -0.1540(2) 0.4655(2) 0.8165(2)
H23 H -0.2090(2) 0.4802(2) 0.8045(2)
C30 C -0.0995(2) 0.4806(2) 0.7582(2)
H24 H -0.1177(2) 0.5043(2) 0.7082(2)
C31 C 0.3022(2) -0.1426(2) 0.3579(2)
H25 H 0.2483(2) -0.1589(2) 0.3424(2)
C32 C 0.3563(2) -0.1346(3) 0.2976(2)
H26 H 0.3391(2) -0.1453(3) 0.2432(2)
C33 C 0.4372(2) -0.1103(2) 0.3195(2)
C34 C 0.4589(2) -0.0974(3) 0.4018(2)
H27 H 0.5126(2) -0.0820(3) 0.4192(2)
C35 C 0.4980(2) -0.0979(2) 0.2565(2)
C36 C 0.4007(2) -0.1075(3) 0.4580(2)
H28 H 0.4168(2) -0.0993(3) 0.5130(2)
C37 C 0.5813(2) -0.1139(3) 0.2753(2)
H29 H 0.6004(2) -0.1316(3) 0.3274(2)
C38 C 0.6350(2) -0.1028(3) 0.2148(2)
H30 H 0.6905(2) -0.1148(3) 0.2277(2)
C39 C 0.5339(3) -0.0600(3) 0.1231(2)
H31 H 0.5173(3) -0.0406(3) 0.0709(2)
C40 C 0.4740(2) -0.0700(2) 0.1783(2)
H32 H 0.4189(2) -0.0582(2) 0.1631(2)
C41 C 0.2403(2) 0.3944(2) 0.4382(2)
C42 C 0.3123(2) 0.3934(2) 0.5063(2)
C43 C 0.1836(2) 0.7231(2) 0.4991(2)
C44 C 0.2543(2) 0.7234(2) 0.5677(2)
C45 C 0.2232(2) 0.0566(2) 0.4544(2)
C46 C 0.2924(2) 0.0589(2) 0.5257(2)
N4C N 0.3287(2) 0.6122(2) 0.4183(2)
O9_2 O 0.15541(14) -0.20678(15) 0.47547(13)
O10_2 O 0.27681(14) -0.20617(15) 0.59709(13)
N6C N 0.1333(2) -0.0689(2) 0.6104(2)
Fe3_2 Fe 0.22527(3) 0.89397(3) 0.52602(3)
Fe2C Fe 0.75543(3) 0.05750(3) -0.00792(3)
Fe3C Fe -0.22527(3) 0.39397(3) 0.97398(3)
loop_
_geom_bond_atom_site_label_1
_geom_bond_atom_site_label_2
_geom_bond_site_symmetry_1
_geom_bond_site_symmetry_2
Fe1 O1 1_555 1_555
Fe2 O5 1_555 1_555
Fe3 O11 1_555 1_555
O1 C45 1_555 1_555
O2 Fe1 1_555 1_555
O3 Fe1 1_555 1_555
O4 Fe1 1_555 1_555
O5 C41 1_555 1_555
O6 Fe2 1_555 1_555
O7 Fe2 1_555 1_555
O8 Fe2 1_555 1_555
O9 C43 1_555 1_555
O10 C44 1_555 1_555
O11 C45 1_555 1_555
O12 Fe3 1_555 1_555
N1 Fe1 1_555 1_555
N2 C8 1_555 1_555
N3 Fe1 1_555 1_555
N4 C18 1_555 1_555
N5 Fe2 1_555 1_555
N6 C28 1_555 1_555
N7 Fe3 1_555 1_555
N8 C38 1_555 1_555
C1 N1 1_555 1_555
H1 C1 1_555 1_555
C2 C1 1_555 1_555
H2 C2 1_555 1_555
C3 C2 1_555 1_555
C4 C3 1_555 1_555
H3 C4 1_555 1_555
C5 N1 1_555 1_555
H4 C5 1_555 1_555
C6 C3 1_555 1_555
C7 C6 1_555 1_555
H5 C7 1_555 1_555
C8 C7 1_555 1_555
H6 C8 1_555 1_555
C9 N2 1_555 1_555
H7 C9 1_555 1_555
C10 C6 1_555 1_555
H8 C10 1_555 1_555
C11 N3 1_555 1_555
H9 C11 1_555 1_555
C12 C11 1_555 1_555
H10 C12 1_555 1_555
C13 C12 1_555 1_555
C14 C13 1_555 1_555
H11 C14 1_555 1_555
C15 N3 1_555 1_555
H12 C15 1_555 1_555
C16 C13 1_555 1_555
C17 C16 1_555 1_555
H13 C17 1_555 1_555
C18 C17 1_555 1_555
H14 C18 1_555 1_555
C19 N4 1_555 1_555
H15 C19 1_555 1_555
C20 C16 1_555 1_555
H16 C20 1_555 1_555
C21 N5 1_555 1_555
H17 C21 1_555 1_555
C22 C21 1_555 1_555
H18 C22 1_555 1_555
C23 C22 1_555 1_555
C24 C23 1_555 1_555
H19 C24 1_555 1_555
C25 N5 1_555 1_555
H20 C25 1_555 1_555
C26 C23 1_555 1_555
C27 C26 1_555 1_555
H21 C27 1_555 1_555
C28 C27 1_555 1_555
H22 C28 1_555 1_555
C29 N6 1_555 1_555
H23 C29 1_555 1_555
C30 C26 1_555 1_555
H24 C30 1_555 1_555
C31 N7 1_555 1_555
H25 C31 1_555 1_555
C32 C31 1_555 1_555
H26 C32 1_555 1_555
C33 C32 1_555 1_555
C34 C33 1_555 1_555
H27 C34 1_555 1_555
C35 C33 1_555 1_555
C36 N7 1_555 1_555
H28 C36 1_555 1_555
C37 C35 1_555 1_555
H29 C37 1_555 1_555
C38 C37 1_555 1_555
H30 C38 1_555 1_555
C39 N8 1_555 1_555
H31 C39 1_555 1_555
C40 C35 1_555 1_555
H32 C40 1_555 1_555
C41 O3 1_555 1_555
C42 O4 1_555 1_555
C43 O7 1_555 1_555
C44 O8 1_555 1_555
C45 C46 1_555 1_555
C46 O2 1_555 1_555
N4C Fe2 1_555 1_555
O9_2 Fe3 1_555 1_555
O10_2 Fe3 1_555 1_555
N6C Fe3 1_555 1_555
Fe3_2 O9 1_555 1_555
Fe2C N4 1_555 1_555
Fe3C N6 1_555 1_555
O6 C42 1_555 1_555
O10 Fe3_2 1_555 1_555
O12 C46 1_555 1_555
C4 C5 1_555 1_555
C9 C10 1_555 1_555
C14 C15 1_555 1_555
C19 C20 1_555 1_555
C24 C25 1_555 1_555
C29 C30 1_555 1_555
C34 C36 1_555 1_555
C39 C40 1_555 1_555
C41 C42 1_555 1_555
C43 C44 1_555 1_555

#END
