
#######################################################################
#
#                 Cambridge Crystallographic Data Centre
#                                CCDC 
#
#######################################################################
#
# If this CIF has been generated from an entry in the Cambridge 
# Structural Database, then it will include bibliographic, chemical, 
# crystal, experimental, refinement or atomic coordinate data resulting 
# from the CCDC's data processing and validation procedures.
#
#######################################################################

data_CILQIZ
_symmetry_cell_setting           triclinic
_symmetry_space_group_name_H-M   'P -1'
_symmetry_Int_Tables_number      2
_space_group_name_Hall           '-P 1'
loop_
_symmetry_equiv_pos_site_id
_symmetry_equiv_pos_as_xyz
1 x,y,z
2 -x,-y,-z
_cell_length_a                   11.1704(2)
_cell_length_b                   12.6342(3)
_cell_length_c                   14.6490(5)
_cell_angle_alpha                105.2480(10)
_cell_angle_beta                 92.7010(10)
_cell_angle_gamma                116.0810(10)
_cell_volume                     1759.64
loop_
_atom_site_label
_atom_site_type_symbol
_atom_site_fract_x
_atom_site_fract_y
_atom_site_fract_z
Cu1 Cu 0.76747(8) 0.56173(7) 0.13091(5)
O1 O 1.2513(4) 0.8269(4) 0.4523(3)
O2 O 1.2273(4) 0.6326(4) 0.3977(3)
O3 O 0.7889(4) 0.5702(4) 0.2675(3)
O4 O 0.9402(4) 0.6384(3) 0.3999(3)
O5 O 0.7471(4) 0.5291(4) -0.0084(3)
O6 O 0.5893(4) 0.4243(3) -0.1426(3)
O7 O 0.3463(5) 0.1390(4) -0.1887(3)
O8 O 0.2560(4) 0.2691(4) -0.1662(3)
N1 N 0.5837(5) 0.4231(4) 0.0971(4)
N2 N 0.9677(5) 0.6400(4) 0.1614(3)
C1 C 0.6280(7) 0.4492(6) -0.0560(5)
C2 C 1.1540(7) 0.7079(5) 0.2878(4)
C3 C 1.0182(6) 0.6611(5) 0.2537(4)
C4 C 0.5311(6) 0.3808(5) 0.0023(4)
C5 C 0.3311(7) 0.2270(6) -0.1397(4)
C6 C 0.9094(7) 0.6217(5) 0.3134(5)
C7 C 1.0512(7) 0.6677(6) 0.1013(4)
H1 H 1.0157 0.6537 0.0381
C8 C 1.2150(6) 0.7255(7) 0.3888(4)
C9 C 0.4015(7) 0.2839(6) -0.0343(4)
C10 C 0.5124(7) 0.3727(6) 0.1578(5)
H2 H 0.5496 0.4058 0.2232
C11 C 1.2415(6) 0.7365(5) 0.2231(5)
H3 H 1.3343 0.7686 0.2434
C12 C 1.1908(7) 0.7171(6) 0.1283(4)
H4 H 1.2482 0.7365 0.0846
C13 C 0.3864(8) 0.2741(7) 0.1271(5)
H5 H 0.3397 0.2369 0.1703
C14 C 0.3284(7) 0.2294(6) 0.0299(5)
H6 H 0.2410 0.1635 0.0078
Cu2 Cu 1.5000 1.0000 0.5000
O9 O 1.5130(4) 0.9820(4) 0.6286(3)
O10 O 1.5793(4) 0.8872(4) 0.7118(3)
O11 O 1.5106(4) 0.6121(4) 0.6285(3)
O12 O 1.7330(5) 0.7038(4) 0.6446(3)
N3 N 1.5634(5) 0.8752(4) 0.4684(3)
C15 C 1.5566(6) 0.9060(6) 0.6369(4)
C16 C 1.5777(6) 0.8344(5) 0.5431(4)
C17 C 1.6310(6) 0.6872(6) 0.4430(4)
H7 H 1.6531 0.6226 0.4332
C18 C 1.6168(8) 0.6821(6) 0.6099(4)
C19 C 1.5844(6) 0.8268(5) 0.3826(4)
H8 H 1.5751 0.8560 0.3321
C20 C 1.6090(6) 0.7378(5) 0.5316(4)
C21 C 1.6203(7) 0.7321(6) 0.3686(4)
H9 H 1.6371 0.6992 0.3089
Cu1A Cu 0.23253(8) 0.43827(7) -0.13091(5)
O1A O -0.2513(4) 0.1731(4) -0.4523(3)
O2A O -0.2273(4) 0.3674(4) -0.3977(3)
O3A O 0.2111(4) 0.4298(4) -0.2675(3)
O4A O 0.0598(4) 0.3616(3) -0.3999(3)
O5A O 0.2529(4) 0.4709(4) 0.0084(3)
O6A O 0.4107(4) 0.5757(3) 0.1426(3)
O7A O 0.6537(5) 0.8610(4) 0.1887(3)
O8A O 0.7440(4) 0.7309(4) 0.1662(3)
N1A N 0.4163(5) 0.5769(4) -0.0971(4)
N2A N 0.0323(5) 0.3600(4) -0.1614(3)
C1A C 0.3720(7) 0.5508(6) 0.0560(5)
C2A C -0.1540(7) 0.2921(5) -0.2878(4)
C3A C -0.0182(6) 0.3389(5) -0.2537(4)
C4A C 0.4689(6) 0.6192(5) -0.0023(4)
C5A C 0.6689(7) 0.7730(6) 0.1397(4)
C6A C 0.0906(7) 0.3783(5) -0.3134(5)
C7A C -0.0512(7) 0.3323(6) -0.1013(4)
H1A H -0.0157 0.3463 -0.0381
C8A C -0.2150(6) 0.2745(7) -0.3888(4)
C9A C 0.5985(7) 0.7161(6) 0.0343(4)
C10A C 0.4876(7) 0.6273(6) -0.1578(5)
H2A H 0.4504 0.5942 -0.2232
C11A C -0.2415(6) 0.2635(5) -0.2231(5)
H3A H -0.3343 0.2314 -0.2434
C12A C -0.1908(7) 0.2829(6) -0.1283(4)
H4A H -0.2482 0.2635 -0.0846
C13A C 0.6136(8) 0.7259(7) -0.1271(5)
H5A H 0.6603 0.7631 -0.1703
C14A C 0.6716(7) 0.7706(6) -0.0299(5)
H6A H 0.7590 0.8365 -0.0078
O9A O 1.4870(4) 1.0180(4) 0.3714(3)
O10A O 1.4207(4) 1.1128(4) 0.2882(3)
O11A O 1.4894(4) 1.3879(4) 0.3715(3)
O12A O 1.2670(5) 1.2962(4) 0.3554(3)
N3A N 1.4366(5) 1.1248(4) 0.5316(3)
C15A C 1.4434(6) 1.0940(6) 0.3631(4)
C16A C 1.4223(6) 1.1656(5) 0.4569(4)
C17A C 1.3690(6) 1.3128(6) 0.5570(4)
H7A H 1.3469 1.3774 0.5668
C18A C 1.3832(8) 1.3179(6) 0.3901(4)
C19A C 1.4156(6) 1.1732(5) 0.6174(4)
H8A H 1.4249 1.1440 0.6679
C20A C 1.3910(6) 1.2622(5) 0.4684(4)
C21A C 1.3797(7) 1.2679(6) 0.6314(4)
H9A H 1.3629 1.3008 0.6911
O1A_2 O 1.7487(4) 1.1731(4) 0.5477(3)
Cu2_2 Cu -0.5000 0.0000 -0.5000
N4 N 0.9741(5) 0.2985(4) 0.3089(3)
N5 N 0.7379(5) 0.4096(4) 0.4279(3)
H10 H 0.7476 0.3966 0.4840
H11 H 0.6523 0.3921 0.4102
H12 H 0.7926 0.4888 0.4341
N6 N 1.2386(5) 0.4421(4) 0.2541(3)
H13 H 1.2258 0.5000 0.2957
H14 H 1.3036 0.4780 0.2229
H15 H 1.2630 0.4014 0.2857
N7 N 1.0323(6) 0.1535(5) 0.4178(4)
H16 H 1.0956 0.1946 0.3876
H17 H 1.0431 0.0903 0.4251
H18 H 1.0400 0.2045 0.4753
C22 C 0.9189(6) 0.3581(5) 0.3812(4)
H19 H 0.9746 0.4473 0.3983
H20 H 0.9271 0.3353 0.4386
C23 C 0.7737(6) 0.3280(6) 0.3532(4)
H21 H 0.7606 0.3402 0.2915
H22 H 0.7146 0.2417 0.3466
C24 C 0.9074(7) 0.1621(6) 0.2796(4)
H23 H 0.9559 0.1330 0.2349
H24 H 0.8161 0.1305 0.2453
C25 C 1.1088(6) 0.3524(6) 0.1828(4)
H25 H 1.1040 0.2709 0.1617
H26 H 1.1083 0.3796 0.1267
C26 C 0.9867(6) 0.3440(6) 0.2268(4)
H27 H 0.9920 0.4257 0.2469
H28 H 0.9055 0.2893 0.1779
C27 C 0.8986(7) 0.1064(6) 0.3610(5)
H29 H 0.8412 0.1265 0.4024
H30 H 0.8574 0.0167 0.3343
O13 O 0.5232(5) 0.9839(4) 0.1429(3)
O14 O 0.0995(5) 0.9509(4) 0.4297(3)
O15 O 0.6806(6) 0.1155(5) 0.0240(4)
O16 O 0.0075(7) 0.9246(6) 0.2422(4)
O17 O 0.8415(13) 0.0333(9) 0.9038(11)
loop_
_geom_bond_atom_site_label_1
_geom_bond_atom_site_label_2
_geom_bond_site_symmetry_1
_geom_bond_site_symmetry_2
Cu1 O3 1_555 1_555
O1 C8 1_555 1_555
O2 C8 1_555 1_555
O3 C6 1_555 1_555
O4 C6 1_555 1_555
O5 Cu1 1_555 1_555
O6 C1 1_555 1_555
O7 C5 1_555 1_555
O8 C5 1_555 1_555
N1 Cu1 1_555 1_555
N2 Cu1 1_555 1_555
C1 O5 1_555 1_555
C2 C3 1_555 1_555
C3 N2 1_555 1_555
C4 N1 1_555 1_555
C5 C9 1_555 1_555
C6 C3 1_555 1_555
C7 N2 1_555 1_555
H1 C7 1_555 1_555
C8 C2 1_555 1_555
C9 C4 1_555 1_555
C10 N1 1_555 1_555
H2 C10 1_555 1_555
C11 C2 1_555 1_555
H3 C11 1_555 1_555
C12 C7 1_555 1_555
H4 C12 1_555 1_555
C13 C10 1_555 1_555
H5 C13 1_555 1_555
C14 C9 1_555 1_555
H6 C14 1_555 1_555
Cu2 O1 1_555 1_555
O9 Cu2 1_555 1_555
O10 C15 1_555 1_555
O11 C18 1_555 1_555
O12 C18 1_555 1_555
N3 Cu2 1_555 1_555
C15 O9 1_555 1_555
C16 N3 1_555 1_555
C17 H7 1_555 1_555
C18 C20 1_555 1_555
C19 N3 1_555 1_555
H8 C19 1_555 1_555
C20 C16 1_555 1_555
C21 C17 1_555 1_555
H9 C21 1_555 1_555
N4 C22 1_555 1_555
N5 H10 1_555 1_555
H11 N5 1_555 1_555
H12 N5 1_555 1_555
N6 H13 1_555 1_555
H14 N6 1_555 1_555
H15 N6 1_555 1_555
N7 H16 1_555 1_555
H17 N7 1_555 1_555
H18 N7 1_555 1_555
C22 H19 1_555 1_555
H20 C22 1_555 1_555
C23 N5 1_555 1_555
H21 C23 1_555 1_555
H22 C23 1_555 1_555
C24 N4 1_555 1_555
H23 C24 1_555 1_555
H24 C24 1_555 1_555
C25 N6 1_555 1_555
H25 C25 1_555 1_555
H26 C25 1_555 1_555
C26 N4 1_555 1_555
H27 C26 1_555 1_555
H28 C26 1_555 1_555
C27 N7 1_555 1_555
H29 C27 1_555 1_555
H30 C27 1_555 1_555
Cu1A O8 1_555 1_555
O1A C8A 1_555 1_555
O2A C8A 1_555 1_555
O3A Cu1A 1_555 1_555
O4A C6A 1_555 1_555
O5A Cu1A 1_555 1_555
O6A C1A 1_555 1_555
O7A C5A 1_555 1_555
O8A Cu1 1_555 1_555
N1A Cu1A 1_555 1_555
N2A Cu1A 1_555 1_555
C1A O5A 1_555 1_555
C2A C3A 1_555 1_555
C3A N2A 1_555 1_555
C4A N1A 1_555 1_555
C5A O8A 1_555 1_555
C6A O3A 1_555 1_555
C7A N2A 1_555 1_555
H1A C7A 1_555 1_555
C8A C2A 1_555 1_555
C9A C4A 1_555 1_555
C10A N1A 1_555 1_555
H2A C10A 1_555 1_555
C11A C2A 1_555 1_555
H3A C11A 1_555 1_555
C12A C7A 1_555 1_555
H4A C12A 1_555 1_555
C13A C10A 1_555 1_555
H5A C13A 1_555 1_555
C14A C9A 1_555 1_555
H6A C14A 1_555 1_555
O9A Cu2 1_555 1_555
O10A C15A 1_555 1_555
O11A C18A 1_555 1_555
O12A C18A 1_555 1_555
N3A Cu2 1_555 1_555
C15A O9A 1_555 1_555
C16A N3A 1_555 1_555
C17A H7A 1_555 1_555
C18A C20A 1_555 1_555
C19A N3A 1_555 1_555
H8A C19A 1_555 1_555
C20A C16A 1_555 1_555
C21A C17A 1_555 1_555
H9A C21A 1_555 1_555
O1A_2 Cu2 1_555 1_555
Cu2_2 O1A 1_555 1_555
C1 C4 1_555 1_555
C11 C12 1_555 1_555
C13 C14 1_555 1_555
C15 C16 1_555 1_555
C17 C20 1_555 1_555
C19 C21 1_555 1_555
C22 C23 1_555 1_555
C24 C27 1_555 1_555
C25 C26 1_555 1_555
C1A C4A 1_555 1_555
C3A C6A 1_555 1_555
C5A C9A 1_555 1_555
C11A C12A 1_555 1_555
C13A C14A 1_555 1_555
C15A C16A 1_555 1_555
C17A C20A 1_555 1_555
C19A C21A 1_555 1_555

#END
