
#######################################################################
#
#                 Cambridge Crystallographic Data Centre
#                                CCDC 
#
#######################################################################
#
# If this CIF has been generated from an entry in the Cambridge 
# Structural Database, then it will include bibliographic, chemical, 
# crystal, experimental, refinement or atomic coordinate data resulting 
# from the CCDC's data processing and validation procedures.
#
#######################################################################

data_CILREW
_symmetry_cell_setting           triclinic
_symmetry_space_group_name_H-M   'P -1'
_symmetry_Int_Tables_number      2
_space_group_name_Hall           '-P 1'
loop_
_symmetry_equiv_pos_site_id
_symmetry_equiv_pos_as_xyz
1 x,y,z
2 -x,-y,-z
_cell_length_a                   6.7282(3)
_cell_length_b                   10.9920(4)
_cell_length_c                   11.4866(5)
_cell_angle_alpha                91.651(2)
_cell_angle_beta                 103.965(2)
_cell_angle_gamma                91.524(2)
_cell_volume                     823.563
loop_
_atom_site_label
_atom_site_type_symbol
_atom_site_fract_x
_atom_site_fract_y
_atom_site_fract_z
C1 C 0.1163(4) 0.4093(2) 0.3748(2)
C2 C 0.0952(3) 0.5458(2) 0.3825(2)
C3 C -0.0823(4) 0.6053(2) 0.3310(2)
C4 C -0.0815(4) 0.7306(2) 0.3508(2)
H1 H -0.1983 0.7734 0.3185
C5 C 0.0913(4) 0.7918(2) 0.4180(2)
H2 H 0.0918 0.8756 0.4321
C6 C 0.2634(4) 0.7270(2) 0.4639(2)
H3 H 0.3810 0.7683 0.5084
C7 C -0.2733(4) 0.5439(2) 0.2517(2)
Cu1 Cu 0.5000 0.5000 0.5000
N1 N 0.2657(3) 0.60670(18) 0.44629(18)
O1 O 0.2944(2) 0.37095(15) 0.42478(15)
O2 O -0.0347(2) 0.34517(15) 0.32498(16)
O3 O -0.4209(2) 0.52414(16) 0.29990(15)
O4 O -0.2779(3) 0.52659(17) 0.14381(16)
C1A C -0.1163(4) 0.5907(2) 0.6252(2)
C2A C -0.0952(3) 0.4542(2) 0.6175(2)
C3A C 0.0823(4) 0.3947(2) 0.6690(2)
C4A C 0.0815(4) 0.2694(2) 0.6492(2)
H1A H 0.1983 0.2266 0.6815
C5A C -0.0913(4) 0.2082(2) 0.5820(2)
H2A H -0.0918 0.1244 0.5679
C6A C -0.2634(4) 0.2730(2) 0.5361(2)
H3A H -0.3810 0.2317 0.4916
C7A C 0.2733(4) 0.4561(2) 0.7483(2)
N1A N -0.2657(3) 0.39330(18) 0.55371(18)
O1A O -0.2944(2) 0.62905(15) 0.57522(15)
O2A O 0.0347(2) 0.65483(15) 0.67502(16)
O3A O 0.4209(2) 0.47586(16) 0.70010(15)
O4A O 0.2779(3) 0.47341(17) 0.85619(16)
Cu1_2 Cu -0.5000 0.5000 0.5000
N1A_2 N 0.7343(3) 0.39330(18) 0.55371(18)
O1A_2 O 0.7056(2) 0.62905(15) 0.57522(15)
O3_2 O 0.5791(2) 0.52414(16) 0.29990(15)
C8 C -0.2910(4) 0.3226(3) -0.0549(2)
H4 H -0.4058 0.3693 -0.0595
C9 C -0.3030(5) 0.2199(3) -0.1291(3)
H5 H -0.4240 0.1989 -0.1857
C10 C -0.1364(5) 0.1499(3) -0.1186(3)
H6 H -0.1452 0.0800 -0.1673
C11 C 0.0488(4) 0.1816(2) -0.0351(2)
C12 C 0.2249(5) 0.1109(3) -0.0167(3)
H7 H 0.2239 0.0391 -0.0617
C13 C 0.3965(5) 0.1489(3) 0.0677(3)
H8 H 0.5097 0.0998 0.0821
C14 C 0.4082(4) 0.2596(3) 0.1335(3)
H9 H 0.5285 0.2836 0.1895
C15 C 0.2419(4) 0.3323(2) 0.1151(2)
C16 C 0.0577(4) 0.2898(2) 0.0347(2)
H10 H -0.114(4) 0.418(2) 0.070(2)
N2 N -0.1168(3) 0.3544(2) 0.0224(2)
O5 O 0.2376(3) 0.44340(16) 0.16618(16)
H11 H 0.3522 0.4631 0.2071
H12 H 0.494(6) -0.021(4) 0.634(3)
H13 H 0.357(6) 0.044(3) 0.576(3)
O6 O 0.4000(5) 0.0216(3) 0.6439(3)
H14 H 0.291(5) 0.187(3) 0.413(3)
H15 H 0.174(6) 0.093(4) 0.366(4)
O7 O 0.2781(4) 0.1134(3) 0.4099(3)
H16 H 0.811(7) 0.068(4) 0.295(4)
H17 H 0.891(6) 0.165(4) 0.272(3)
O8 O 0.8916(4) 0.0966(3) 0.2588(3)
loop_
_geom_bond_atom_site_label_1
_geom_bond_atom_site_label_2
_geom_bond_site_symmetry_1
_geom_bond_site_symmetry_2
C1 C2 1_555 1_555
C2 C3 1_555 1_555
C3 C4 1_555 1_555
C4 H1 1_555 1_555
C5 C4 1_555 1_555
H2 C5 1_555 1_555
C6 C5 1_555 1_555
H3 C6 1_555 1_555
C7 C3 1_555 1_555
Cu1 N1 1_555 1_555
N1 C2 1_555 1_555
O1 C1 1_555 1_555
O2 C1 1_555 1_555
O3 C7 1_555 1_555
O4 C7 1_555 1_555
C8 H4 1_555 1_555
C9 C8 1_555 1_555
H5 C9 1_555 1_555
C10 C9 1_555 1_555
H6 C10 1_555 1_555
C11 C10 1_555 1_555
C12 C11 1_555 1_555
H7 C12 1_555 1_555
C13 C12 1_555 1_555
H8 C13 1_555 1_555
C14 C13 1_555 1_555
H9 C14 1_555 1_555
C15 C14 1_555 1_555
C16 C11 1_555 1_555
H10 N2 1_555 1_555
N2 C8 1_555 1_555
O5 C15 1_555 1_555
H11 O5 1_555 1_555
H12 O6 1_555 1_555
H13 O6 1_555 1_555
H14 O7 1_555 1_555
H15 O7 1_555 1_555
H16 O8 1_555 1_555
H17 O8 1_555 1_555
C1A C2A 1_555 1_555
C2A C3A 1_555 1_555
C3A C4A 1_555 1_555
C4A H1A 1_555 1_555
C5A C4A 1_555 1_555
H2A C5A 1_555 1_555
C6A C5A 1_555 1_555
H3A C6A 1_555 1_555
C7A C3A 1_555 1_555
N1A C2A 1_555 1_555
O1A C1A 1_555 1_555
O2A C1A 1_555 1_555
O3A Cu1 1_555 1_555
O4A C7A 1_555 1_555
Cu1_2 O3 1_555 1_555
N1A_2 Cu1 1_555 1_555
O1A_2 Cu1 1_555 1_555
O3_2 Cu1 1_555 1_555
C6 N1 1_555 1_555
Cu1 O1 1_555 1_555
C15 C16 1_555 1_555
C16 N2 1_555 1_555
C6A N1A 1_555 1_555
C7A O3A 1_555 1_555
N1A Cu1_2 1_555 1_555
O1A Cu1_2 1_555 1_555

#END
