
#######################################################################
#
#                 Cambridge Crystallographic Data Centre
#                                CCDC 
#
#######################################################################
#
# If this CIF has been generated from an entry in the Cambridge 
# Structural Database, then it will include bibliographic, chemical, 
# crystal, experimental, refinement or atomic coordinate data resulting 
# from the CCDC's data processing and validation procedures.
#
#######################################################################

data_CILWAV
_symmetry_cell_setting           triclinic
_symmetry_space_group_name_H-M   'P -1'
_symmetry_Int_Tables_number      2
_space_group_name_Hall           '-P 1'
loop_
_symmetry_equiv_pos_site_id
_symmetry_equiv_pos_as_xyz
1 x,y,z
2 -x,-y,-z
_cell_length_a                   7.0069(11)
_cell_length_b                   8.533(2)
_cell_length_c                   11.013(2)
_cell_angle_alpha                70.95(2)
_cell_angle_beta                 84.824(13)
_cell_angle_gamma                74.253(15)
_cell_volume                     599.044
loop_
_atom_site_label
_atom_site_type_symbol
_atom_site_fract_x
_atom_site_fract_y
_atom_site_fract_z
Cu1 Cu 0.0000 0.0000 0.5000
Cu2 Cu 0.5000 0.0000 0.5000
N1 N 0.1565(4) -0.1644(4) 0.6581(3)
N2 N 0.3458(4) -0.1650(4) 0.6822(3)
N3 N 0.2382(4) -0.3381(3) 0.8499(3)
N4 N 0.2348(5) -0.4551(4) 0.9735(3)
H1 H 0.3360(5) -0.4890(4) 1.0231(3)
H2 H 0.1316(5) -0.4930(4) 0.9997(3)
N5 N 0.2006(4) -0.1027(3) 0.3862(3)
N6 N 0.4002(4) -0.1123(4) 0.3934(3)
N7 N 0.3603(4) -0.2184(4) 0.2476(3)
N8 N 0.4086(6) -0.2885(5) 0.1462(4)
H3 H 0.5291(6) -0.3110(5) 0.1198(4)
H4 H 0.3175(6) -0.3089(5) 0.1107(4)
N9 N 0.2301(4) 0.1702(4) 0.4835(3)
N10 N 0.2191(5) 0.3151(4) 0.4227(4)
N11 N 0.2075(9) 0.4529(6) 0.3575(7)
C1 C 0.0946(5) -0.2693(5) 0.7596(3)
H5 H -0.0289(5) -0.2929(5) 0.7682(3)
C2 C 0.3897(5) -0.2696(4) 0.7978(3)
H6 H 0.5095(5) -0.2936(4) 0.8388(3)
C3 C 0.1803(5) -0.1670(4) 0.2976(3)
H7 H 0.0614(5) -0.1761(4) 0.2729(3)
C4 C 0.4917(5) -0.1824(4) 0.3085(3)
H8 H 0.6275(5) -0.2042(4) 0.2927(3)
N2A N 0.6542(4) 0.1650(4) 0.3178(3)
N1A N 0.8435(4) 0.1644(4) 0.3419(3)
Cu1A Cu 1.0000 0.0000 0.5000
N5A N 0.7994(4) 0.1027(3) 0.6138(3)
N6A N 0.5998(4) 0.1123(4) 0.6066(3)
N1A_2 N -0.1565(4) 0.1644(4) 0.3419(3)
N5A_2 N -0.2006(4) 0.1027(3) 0.6138(3)
N9A N 0.7699(4) -0.1702(4) 0.5165(3)
N10A N 0.7809(5) -0.3151(4) 0.5773(4)
N11A N 0.7925(9) -0.4529(6) 0.6425(7)
N9A_2 N -0.2301(4) -0.1702(4) 0.5165(3)
C4A C 0.5083(5) 0.1824(4) 0.6915(3)
N7A N 0.6397(4) 0.2184(4) 0.7524(3)
N8A N 0.5914(6) 0.2885(5) 0.8538(4)
H3A H 0.4709(6) 0.3110(5) 0.8802(4)
H4A H 0.6825(6) 0.3089(5) 0.8893(4)
C3A C 0.8197(5) 0.1670(4) 0.7024(3)
H7A H 0.9386(5) 0.1761(4) 0.7271(3)
H8A H 0.3725(5) 0.2042(4) 0.7073(3)
C1A C 0.9054(5) 0.2693(5) 0.2404(3)
N3A N 0.7618(4) 0.3381(3) 0.1501(3)
N4A N 0.7652(5) 0.4551(4) 0.0265(3)
H1A H 0.6640(5) 0.4890(4) -0.0231(3)
H2A H 0.8684(5) 0.4930(4) 0.0003(3)
C2A C 0.6103(5) 0.2696(4) 0.2022(3)
H6A H 0.4905(5) 0.2936(4) 0.1612(3)
H5A H 1.0289(5) 0.2929(5) 0.2318(3)
N12 N 0.1783(5) 0.1483(5) 0.9532(3)
O1 O 0.0878(6) 0.2857(5) 0.8717(4)
O2 O 0.2206(6) 0.0147(4) 0.9235(4)
O3 O 0.2228(6) 0.1517(5) 1.0579(3)
loop_
_geom_bond_atom_site_label_1
_geom_bond_atom_site_label_2
_geom_bond_site_symmetry_1
_geom_bond_site_symmetry_2
Cu1 N1 1_555 1_555
Cu2 N2 1_555 1_555
N1 N2 1_555 1_555
N2 C2 1_555 1_555
N3 N4 1_555 1_555
N4 H1 1_555 1_555
H2 N4 1_555 1_555
N5 Cu1 1_555 1_555
N6 Cu2 1_555 1_555
N7 N8 1_555 1_555
N8 H3 1_555 1_555
H4 N8 1_555 1_555
N9 Cu1 1_555 1_555
N10 N9 1_555 1_555
N11 N10 1_555 1_555
C1 N1 1_555 1_555
H5 C1 1_555 1_555
C2 N3 1_555 1_555
H6 C2 1_555 1_555
C3 N5 1_555 1_555
H7 C3 1_555 1_555
C4 N6 1_555 1_555
H8 C4 1_555 1_555
N12 O1 1_555 1_555
O2 N12 1_555 1_555
O3 N12 1_555 1_555
N2A Cu2 1_555 1_555
N1A N2A 1_555 1_555
Cu1A N1A 1_555 1_555
N5A Cu1A 1_555 1_555
N6A Cu2 1_555 1_555
N1A_2 Cu1 1_555 1_555
N5A_2 Cu1 1_555 1_555
N9A Cu2 1_555 1_555
N10A N9A 1_555 1_555
N11A N10A 1_555 1_555
N9A_2 Cu1 1_555 1_555
C4A N6A 1_555 1_555
N7A C4A 1_555 1_555
N8A N7A 1_555 1_555
H3A N8A 1_555 1_555
H4A N8A 1_555 1_555
C3A N5A 1_555 1_555
H7A C3A 1_555 1_555
H8A C4A 1_555 1_555
C1A N1A 1_555 1_555
N3A C1A 1_555 1_555
N4A N3A 1_555 1_555
H1A N4A 1_555 1_555
H2A N4A 1_555 1_555
C2A N2A 1_555 1_555
H6A C2A 1_555 1_555
H5A C1A 1_555 1_555
Cu2 N9 1_555 1_555
N3 C1 1_555 1_555
N5 N6 1_555 1_555
N7 C3 1_555 1_555
N7 C4 1_555 1_555
Cu1A N9A 1_555 1_555
N5A N6A 1_555 1_555
N7A C3A 1_555 1_555
N3A C2A 1_555 1_555

#END
