
#######################################################################
#
#                 Cambridge Crystallographic Data Centre
#                                CCDC 
#
#######################################################################
#
# If this CIF has been generated from an entry in the Cambridge 
# Structural Database, then it will include bibliographic, chemical, 
# crystal, experimental, refinement or atomic coordinate data resulting 
# from the CCDC's data processing and validation procedures.
#
#######################################################################

data_CILXIG
_symmetry_cell_setting           triclinic
_symmetry_space_group_name_H-M   'P -1'
_symmetry_Int_Tables_number      2
_space_group_name_Hall           '-P 1'
loop_
_symmetry_equiv_pos_site_id
_symmetry_equiv_pos_as_xyz
1 x,y,z
2 -x,-y,-z
_cell_length_a                   6.1845(3)
_cell_length_b                   8.1568(4)
_cell_length_c                   10.9703(5)
_cell_angle_alpha                70.148(3)
_cell_angle_beta                 82.111(3)
_cell_angle_gamma                83.340(3)
_cell_volume                     514.16
loop_
_atom_site_label
_atom_site_type_symbol
_atom_site_fract_x
_atom_site_fract_y
_atom_site_fract_z
Cu1 Cu 0.0000 0.5000 0.0000
O1 O 0.18776(19) 0.29099(14) 0.07554(12)
O2 O 0.4591(2) 0.19622(15) 0.20125(13)
O3 O 0.55003(19) 0.34259(18) 0.40836(12)
O4 O 0.83277(18) 0.40642(17) 0.25439(12)
N1 N 0.1982(2) 0.61460(16) 0.06584(13)
C1 C 0.3315(2) 0.31270(19) 0.14036(15)
C2 C 0.3415(2) 0.49789(19) 0.13883(14)
C3 C 0.4839(2) 0.5473(2) 0.20496(15)
C4 C 0.4783(3) 0.7249(2) 0.19053(17)
H1 H 0.5743 0.7634 0.2314
C5 C 0.3308(3) 0.8424(2) 0.11592(18)
H2 H 0.3254 0.9604 0.1065
C6 C 0.1908(3) 0.7826(2) 0.05521(17)
H3 H 0.0892 0.8614 0.0058
C7 C 0.6346(2) 0.4183(2) 0.29603(16)
O1A O -0.18776(19) 0.70901(14) -0.07554(12)
O2A O -0.4591(2) 0.80378(15) -0.20125(13)
O3A O -0.55003(19) 0.65741(18) -0.40836(12)
O4A O -0.83277(18) 0.59358(17) -0.25439(12)
N1A N -0.1982(2) 0.38540(16) -0.06584(13)
C1A C -0.3315(2) 0.68730(19) -0.14036(15)
C2A C -0.3415(2) 0.50211(19) -0.13883(14)
C3A C -0.4839(2) 0.4527(2) -0.20496(15)
C4A C -0.4783(3) 0.2751(2) -0.19053(17)
H1A H -0.5743 0.2366 -0.2314
C5A C -0.3308(3) 0.1576(2) -0.11592(18)
H2A H -0.3254 0.0396 -0.1065
C6A C -0.1908(3) 0.2174(2) -0.05521(17)
H3A H -0.0892 0.1386 -0.0058
C7A C -0.6346(2) 0.5817(2) -0.29603(16)
Cu1_2 Cu -1.0000 0.5000 0.0000
Cu1_3 Cu 1.0000 0.5000 0.0000
O4_2 O -0.16723(18) 0.40642(17) 0.25439(12)
O4A_2 O 0.16723(18) 0.59358(17) -0.25439(12)
N2 N 0.0974(2) 0.29248(19) 0.46516(15)
H4 H 0.0279 0.3126 0.3953
H5 H 0.0907 0.1812 0.5145
H6 H 0.2366 0.3156 0.4403
C8 C -0.0073(3) 0.4051(2) 0.54082(17)
H7 H 0.0651 0.3804 0.6188
H8 H -0.1597 0.3806 0.5672
N2A N -0.0974(2) 0.70752(19) 0.53484(15)
H4A H -0.0279 0.6874 0.6047
H5A H -0.0907 0.8188 0.4855
H6A H -0.2366 0.6844 0.5597
C8A C 0.0073(3) 0.5949(2) 0.45918(17)
H7A H -0.0651 0.6196 0.3812
H8A H 0.1597 0.6194 0.4328
O5 O 0.7524(2) 0.04235(19) 0.57677(16)
H9 H 0.6780 0.1158 0.5182
H10 H 0.6514 -0.0078 0.6389
O6 O 0.8510(3) -0.0204(2) 0.27285(17)
H11 H 0.9436 0.0191 0.2980
H12 H 0.7492 0.0544 0.2399
loop_
_geom_bond_atom_site_label_1
_geom_bond_atom_site_label_2
_geom_bond_site_symmetry_1
_geom_bond_site_symmetry_2
Cu1 O1 1_555 1_555
O1 C1 1_555 1_555
O2 C1 1_555 1_555
O3 C7 1_555 1_555
O4 C7 1_555 1_555
N1 Cu1 1_555 1_555
C1 C2 1_555 1_555
C2 N1 1_555 1_555
C3 C2 1_555 1_555
C4 C3 1_555 1_555
H1 C4 1_555 1_555
C5 C4 1_555 1_555
H2 C5 1_555 1_555
C6 N1 1_555 1_555
H3 C6 1_555 1_555
C7 C3 1_555 1_555
N2 H4 1_555 1_555
H5 N2 1_555 1_555
H6 N2 1_555 1_555
C8 N2 1_555 1_555
H7 C8 1_555 1_555
H8 C8 1_555 1_555
O5 H9 1_555 1_555
H10 O5 1_555 1_555
O6 H11 1_555 1_555
H12 O6 1_555 1_555
O1A Cu1 1_555 1_555
O2A C1A 1_555 1_555
O3A C7A 1_555 1_555
O4A C7A 1_555 1_555
N1A Cu1 1_555 1_555
C1A O1A 1_555 1_555
C2A N1A 1_555 1_555
C3A C2A 1_555 1_555
C4A C3A 1_555 1_555
H1A C4A 1_555 1_555
C5A C4A 1_555 1_555
H2A C5A 1_555 1_555
C6A N1A 1_555 1_555
H3A C6A 1_555 1_555
C7A C3A 1_555 1_555
Cu1_2 O4A 1_555 1_555
Cu1_3 O4 1_555 1_555
O4_2 Cu1 1_555 1_555
O4A_2 Cu1 1_555 1_555
N2A H4A 1_555 1_555
H5A N2A 1_555 1_555
H6A N2A 1_555 1_555
C8A C8 1_555 1_555
H7A C8A 1_555 1_555
H8A C8A 1_555 1_555
C5 C6 1_555 1_555
C1A C2A 1_555 1_555
C5A C6A 1_555 1_555
N2A C8A 1_555 1_555

#END
