
#######################################################################
#
#                 Cambridge Crystallographic Data Centre
#                                CCDC 
#
#######################################################################
#
# If this CIF has been generated from an entry in the Cambridge 
# Structural Database, then it will include bibliographic, chemical, 
# crystal, experimental, refinement or atomic coordinate data resulting 
# from the CCDC's data processing and validation procedures.
#
#######################################################################

data_CILXIE
_symmetry_cell_setting           monoclinic
_symmetry_space_group_name_H-M   'P 21/c'
_symmetry_Int_Tables_number      14
_space_group_name_Hall           '-P 2ybc'
loop_
_symmetry_equiv_pos_site_id
_symmetry_equiv_pos_as_xyz
1 x,y,z
2 x,1/2-y,1/2+z
3 -x,-y,-z
4 -x,1/2+y,1/2-z
_cell_length_a                   8.4444(15)
_cell_length_b                   11.1376(13)
_cell_length_c                   9.994(2)
_cell_angle_alpha                90
_cell_angle_beta                 98.48(2)
_cell_angle_gamma                90
_cell_volume                     929.663
loop_
_atom_site_label
_atom_site_type_symbol
_atom_site_fract_x
_atom_site_fract_y
_atom_site_fract_z
Cu1 Cu 0.61860(6) 1.11885(6) -0.04650(6)
Cu2 Cu 1.0000 1.0000 0.0000
N1 N 0.8568(4) 0.9785(3) -0.1756(4)
N2 N 0.7047(4) 1.0245(4) -0.1906(4)
N3 N 0.7461(5) 0.9475(4) -0.3805(4)
N4 N 0.7153(5) 0.9176(4) -0.5189(4)
H1 H 0.7884(5) 0.8838(4) -0.5572(4)
H2 H 0.6233(5) 0.9332(4) -0.5650(4)
N5 N 0.8462(4) 1.1263(4) 0.0442(4)
N6 N 0.8989(5) 1.2297(5) 0.0648(4)
N7 N 0.9461(7) 1.3255(5) 0.0860(6)
N8 N 0.5339(5) 1.2040(5) 0.0983(4)
N9 N 0.5975(5) 1.1954(4) 0.2118(4)
N10 N 0.6555(7) 1.3093(5) -0.1755(5)
N11 N 0.4032(5) 1.0891(5) -0.1473(5)
N12 N 0.2828(5) 1.1276(4) -0.1198(4)
N13 N 1.1607(6) 1.1628(5) -0.0950(5)
C1 C 0.8783(6) 0.9317(4) -0.2910(5)
H3 H 0.9711(6) 0.8934(4) -0.3083(5)
C2 C 0.6395(6) 1.0052(4) -0.3156(5)
H4 H 0.5365(6) 1.0277(4) -0.3536(5)
N1B N 1.1432(4) 1.0215(3) 0.1756(4)
N5B N 1.1538(4) 0.8737(4) -0.0442(4)
N13B N 0.8393(6) 0.8372(5) 0.0950(5)
N10A N 0.6555(7) 1.1907(5) 0.3245(5)
N9A N 0.5975(5) 1.3046(4) -0.2882(4)
N13_2 N 0.1607(6) 1.1628(5) -0.0950(5)
N12_2 N 1.2828(5) 1.1276(4) -0.1198(4)
N11_2 N 1.4032(5) 1.0891(5) -0.1473(5)
Cu1B Cu 1.38140(6) 0.88115(6) 0.04650(6)
N6B N 1.1011(5) 0.7703(5) -0.0648(4)
N2B N 1.2953(4) 0.9755(4) 0.1906(4)
C1B C 1.1217(6) 1.0683(4) 0.2910(5)
N8A N 0.5339(5) 1.2960(5) -0.4017(4)
Cu2_2 Cu 0.0000 1.0000 0.0000
Cu1_2 Cu 1.61860(6) 1.11885(6) -0.04650(6)
C2B C 1.3605(6) 0.9948(4) 0.3156(5)
N3B N 1.2539(5) 1.0525(4) 0.3805(4)
H3B H 1.0289(6) 1.1066(4) 0.3083(5)
N8B N 1.4661(5) 0.7960(5) -0.0983(4)
N10B N 1.3445(7) 0.6907(5) 0.1755(5)
N11B N 1.5968(5) 0.9109(5) 0.1473(5)
N4B N 1.2847(5) 1.0824(4) 0.5189(4)
H4B H 1.4635(6) 0.9723(4) 0.3536(5)
H1B H 1.2116(5) 1.1162(4) 0.5572(4)
H2B H 1.3767(5) 1.0668(4) 0.5650(4)
Cu1A Cu 0.61860(6) 1.38115(6) -0.54650(6)
Cu1A_2 Cu 0.61860(6) 1.38115(6) 0.45350(6)
N7B N 1.0539(7) 0.6745(5) -0.0860(6)
loop_
_geom_bond_atom_site_label_1
_geom_bond_atom_site_label_2
_geom_bond_site_symmetry_1
_geom_bond_site_symmetry_2
Cu1 N2 1_555 1_555
Cu2 N1 1_555 1_555
N1 N2 1_555 1_555
N2 C2 1_555 1_555
N3 N4 1_555 1_555
N4 H1 1_555 1_555
H2 N4 1_555 1_555
N5 Cu1 1_555 1_555
N6 N5 1_555 1_555
N7 N6 1_555 1_555
N8 Cu1 1_555 1_555
N9 N8 1_555 1_555
N10 Cu1 1_555 1_555
N11 Cu1 1_555 1_555
N12 N11 1_555 1_555
N13 Cu2 1_555 1_555
C1 N1 1_555 1_555
H3 C1 1_555 1_555
C2 N3 1_555 1_555
H4 C2 1_555 1_555
N1B Cu2 1_555 1_555
N5B Cu2 1_555 1_555
N13B Cu2 1_555 1_555
N10A N9 1_555 1_555
N9A N10 1_555 1_555
N13_2 N12 1_555 1_555
N12_2 N13 1_555 1_555
N11_2 N12_2 1_555 1_555
Cu1B N5B 1_555 1_555
N6B N5B 1_555 1_555
N2B N1B 1_555 1_555
C1B N1B 1_555 1_555
N8A N9A 1_555 1_555
Cu2_2 N13_2 1_555 1_555
Cu1_2 N11_2 1_555 1_555
C2B N2B 1_555 1_555
N3B C1B 1_555 1_555
H3B C1B 1_555 1_555
N8B Cu1B 1_555 1_555
N10B Cu1B 1_555 1_555
N11B Cu1B 1_555 1_555
N4B N3B 1_555 1_555
H4B C2B 1_555 1_555
H1B N4B 1_555 1_555
H2B N4B 1_555 1_555
Cu1A N8A 1_555 1_555
Cu1A_2 N10A 1_555 1_555
N7B N6B 1_555 1_555
Cu2 N5 1_555 1_555
N3 C1 1_555 1_555
Cu1B N2B 1_555 1_555
C2B N3B 1_555 1_555

#END
