
#######################################################################
#
#                 Cambridge Crystallographic Data Centre
#                                CCDC 
#
#######################################################################
#
# If this CIF has been generated from an entry in the Cambridge 
# Structural Database, then it will include bibliographic, chemical, 
# crystal, experimental, refinement or atomic coordinate data resulting 
# from the CCDC's data processing and validation procedures.
#
#######################################################################

data_CIMFIP
_symmetry_cell_setting           orthorhombic
_symmetry_space_group_name_H-M   'P c a 21'
_symmetry_Int_Tables_number      29
_space_group_name_Hall           'P 2c -2ac'
loop_
_symmetry_equiv_pos_site_id
_symmetry_equiv_pos_as_xyz
1 x,y,z
2 -x,-y,1/2+z
3 1/2-x,y,1/2+z
4 1/2+x,-y,z
_cell_length_a                   14.268(3)
_cell_length_b                   4.5707(11)
_cell_length_c                   10.746(3)
_cell_angle_alpha                90
_cell_angle_beta                 90
_cell_angle_gamma                90
_cell_volume                     700.798
loop_
_atom_site_label
_atom_site_type_symbol
_atom_site_fract_x
_atom_site_fract_y
_atom_site_fract_z
C1 C 0.36617(14) 0.4753(5) 0.50893(18)
H1 H 0.4253 0.3879 0.4928
C2 C 0.23816(13) 0.7051(3) 0.4893(2)
C3 C 0.31995(13) 0.4724(4) 0.62151(17)
H2 H 0.342 0.3828 0.6957
N1 N 0.31306(10) 0.6245(4) 0.42420(14)
N2 N 0.16299(11) 0.8662(4) 0.43400(17)
N3 N 0.23735(11) 0.6196(4) 0.60875(13)
C4 C 0.46149(14) 1.2408(4) 0.2291(2)
H3 H 0.5136 1.1158 0.2148
O1 O 0.17588(11) 0.9624(3) 0.32862(14)
O2 O 0.09023(9) 0.8968(4) 0.49375(14)
O3 O 0.38316(8) 1.1273(2) 0.24779(14)
O4 O 0.47469(8) 1.5120(3) 0.22829(13)
Zn1 Zn 0.350464(11) 0.70988(4) 0.24754(3)
N3B N 0.26265(11) 0.6196(4) 0.10875(13)
O4_2 O 0.47469(8) 0.5120(3) 0.22829(13)
Zn1_2 Zn 0.350464(11) 1.70988(4) 0.24754(3)
Zn1B Zn 0.149536(11) 0.70988(4) 0.74754(3)
loop_
_geom_bond_atom_site_label_1
_geom_bond_atom_site_label_2
_geom_bond_site_symmetry_1
_geom_bond_site_symmetry_2
C1 H1 1_555 1_555
C2 N1 1_555 1_555
C3 C1 1_555 1_555
H2 C3 1_555 1_555
N1 C1 1_555 1_555
N2 C2 1_555 1_555
N3 C2 1_555 1_555
C4 H3 1_555 1_555
O1 N2 1_555 1_555
O2 N2 1_555 1_555
O3 C4 1_555 1_555
O4 C4 1_555 1_555
Zn1 N1 1_555 1_555
N3B Zn1 1_555 1_555
O4_2 Zn1 1_555 1_555
Zn1_2 O4 1_555 1_555
Zn1B N3 1_555 1_555
C3 N3 1_555 1_555
O3 Zn1 1_555 1_555

#END
