
#######################################################################
#
#                 Cambridge Crystallographic Data Centre
#                                CCDC 
#
#######################################################################
#
# If this CIF has been generated from an entry in the Cambridge 
# Structural Database, then it will include bibliographic, chemical, 
# crystal, experimental, refinement or atomic coordinate data resulting 
# from the CCDC's data processing and validation procedures.
#
#######################################################################

data_CIMFUB
_symmetry_cell_setting           cubic
_symmetry_space_group_name_H-M   'I -4 3 m'
_symmetry_Int_Tables_number      217
_space_group_name_Hall           'I -4 2 3'
loop_
_symmetry_equiv_pos_site_id
_symmetry_equiv_pos_as_xyz
1 x,y,z
2 x,-y,-z
3 -x,-y,z
4 -x,y,-z
5 y,-x,-z
6 -y,-x,z
7 -y,x,-z
8 y,x,z
9 y,z,x
10 -y,-z,x
11 y,-z,-x
12 -y,z,-x
13 z,-y,-x
14 z,y,x
15 -z,y,-x
16 -z,-y,x
17 z,x,y
18 -z,x,-y
19 -z,-x,y
20 z,-x,-y
21 x,z,y
22 x,-z,-y
23 -x,z,-y
24 -x,-z,y
25 1/2+x,1/2+y,1/2+z
26 1/2+x,1/2-y,1/2-z
27 1/2-x,1/2-y,1/2+z
28 1/2-x,1/2+y,1/2-z
29 1/2+y,1/2-x,1/2-z
30 1/2-y,1/2-x,1/2+z
31 1/2-y,1/2+x,1/2-z
32 1/2+y,1/2+x,1/2+z
33 1/2+y,1/2+z,1/2+x
34 1/2-y,1/2-z,1/2+x
35 1/2+y,1/2-z,1/2-x
36 1/2-y,1/2+z,1/2-x
37 1/2+z,1/2-y,1/2-x
38 1/2+z,1/2+y,1/2+x
39 1/2-z,1/2+y,1/2-x
40 1/2-z,1/2-y,1/2+x
41 1/2+z,1/2+x,1/2+y
42 1/2-z,1/2+x,1/2-y
43 1/2-z,1/2-x,1/2+y
44 1/2+z,1/2-x,1/2-y
45 1/2+x,1/2+z,1/2+y
46 1/2+x,1/2-z,1/2-y
47 1/2-x,1/2+z,1/2-y
48 1/2-x,1/2-z,1/2+y
_cell_length_a                   17.0000(11)
_cell_length_b                   17.0000(11)
_cell_length_c                   17.0000(11)
_cell_angle_alpha                90
_cell_angle_beta                 90
_cell_angle_gamma                90
_cell_volume                     4913
loop_
_atom_site_label
_atom_site_type_symbol
_atom_site_fract_x
_atom_site_fract_y
_atom_site_fract_z
Zn1 Zn 0.500 0.250 0.000
C1 C 0.3732(2) 0.3732(2) -0.0127(3)
C2 C 0.3481(4) 0.2961(4) 0.0764(4)
H1 H 0.3503 0.2535 0.1124
N1 N 0.4008(2) 0.3088(2) 0.01814(17)
N2 N 0.4103(3) 0.4103(3) -0.0764(4)
O1 O 0.3801(3) 0.4688(3) -0.1030(3)
C2G C 0.2961(4) 0.3481(4) 0.0764(4)
H1G H 0.2535 0.3503 0.1124
N1G N 0.3088(2) 0.4008(2) 0.01814(17)
O1G O 0.4688(3) 0.3801(3) -0.1030(3)
C1C C 0.6268(2) 0.3732(2) 0.0127(3)
C2C C 0.6519(4) 0.2961(4) -0.0764(4)
H1C H 0.6497 0.2535 -0.1124
N1C N 0.5992(2) 0.3088(2) -0.01814(17)
N2C N 0.5897(3) 0.4103(3) 0.0764(4)
O1C O 0.6199(3) 0.4688(3) 0.1030(3)
C2F C 0.7039(4) 0.3481(4) -0.0764(4)
H1F H 0.7465 0.3503 -0.1124
N1F N 0.6912(2) 0.4008(2) -0.01814(17)
O1F O 0.5312(3) 0.3801(3) 0.1030(3)
Zn1D Zn 0.250 0.500 0.000
Zn1E Zn 0.750 0.500 0.000
N1JA N 0.51814(17) 0.1912(2) 0.0992(2)
N1MA N 0.48186(17) 0.1912(2) -0.0992(2)
loop_
_geom_bond_atom_site_label_1
_geom_bond_atom_site_label_2
_geom_bond_site_symmetry_1
_geom_bond_site_symmetry_2
Zn1 N1 1_555 1_555
C1 N1 1_555 1_555
C2 H1 1_555 1_555
N1 C2 1_555 1_555
N2 C1 1_555 1_555
O1 N2 1_555 1_555
C2G C2 1_555 1_555
H1G C2G 1_555 1_555
N1G C1 1_555 1_555
O1G N2 1_555 1_555
C1C N1C 1_555 1_555
C2C H1C 1_555 1_555
N1C Zn1 1_555 1_555
N2C C1C 1_555 1_555
O1C N2C 1_555 1_555
C2F C2C 1_555 1_555
H1F C2F 1_555 1_555
N1F C1C 1_555 1_555
O1F N2C 1_555 1_555
Zn1D N1G 1_555 1_555
Zn1E N1F 1_555 1_555
N1JA Zn1 1_555 1_555
N1MA Zn1 1_555 1_555
C2G N1G 1_555 1_555
C2C N1C 1_555 1_555
C2F N1F 1_555 1_555

#END
