
#######################################################################
#
#                 Cambridge Crystallographic Data Centre
#                                CCDC 
#
#######################################################################
#
# If this CIF has been generated from an entry in the Cambridge 
# Structural Database, then it will include bibliographic, chemical, 
# crystal, experimental, refinement or atomic coordinate data resulting 
# from the CCDC's data processing and validation procedures.
#
#######################################################################

data_CIMRUN
_symmetry_cell_setting           triclinic
_symmetry_space_group_name_H-M   'P -1'
_symmetry_Int_Tables_number      2
_space_group_name_Hall           '-P 1'
loop_
_symmetry_equiv_pos_site_id
_symmetry_equiv_pos_as_xyz
1 x,y,z
2 -x,-y,-z
_cell_length_a                   8.5127(9)
_cell_length_b                   9.9215(10)
_cell_length_c                   17.1690(18)
_cell_angle_alpha                85.8380(10)
_cell_angle_beta                 82.2710(10)
_cell_angle_gamma                67.5370(10)
_cell_volume                     1327.52
loop_
_atom_site_label
_atom_site_type_symbol
_atom_site_fract_x
_atom_site_fract_y
_atom_site_fract_z
Pt1 Pt 1.349570(17) 0.218534(15) 0.312482(8)
Zn1 Zn 0.85071(5) 0.71828(5) 0.31051(2)
O1 O 1.0286(4) 0.8131(3) 0.24810(18)
H1 H 1.0351 0.8187 0.1982
H2 H 0.9959 0.8991 0.2649
O2 O 0.6595(4) 0.6310(3) 0.36796(18)
H3 H 0.5637 0.6763 0.3505
H4 H 0.6432 0.6415 0.4175
O3 O 0.7375(4) 0.4814(4) -0.05867(19)
O4 O 0.0184(4) 0.9430(4) -0.32954(19)
N1 N 1.0354(5) 0.5143(4) 0.3066(2)
N2 N 1.4259(6) 0.3163(5) 0.4697(2)
N3 N 1.6616(5) -0.0779(5) 0.3163(3)
N4 N 1.2716(6) 0.1180(5) 0.1568(3)
N5 N 0.7862(5) 0.6834(4) 0.1927(2)
N6 N 0.4987(5) 0.6910(4) -0.0500(2)
H5 H 0.4436 0.7657 -0.0211
N7 N 0.1928(5) 0.7019(4) -0.3226(2)
H6 H 0.2231 0.6205 -0.3459
N8 N -0.0654(5) 0.7565(4) -0.5782(2)
C1 C 1.1490(6) 0.4046(6) 0.3087(3)
C2 C 1.3999(6) 0.2809(5) 0.4122(3)
C3 C 1.5486(6) 0.0317(5) 0.3160(3)
C4 C 1.2978(6) 0.1556(5) 0.2136(3)
C5 C 0.8723(6) 0.5582(5) 0.1536(3)
H7 H 0.9644 0.4871 0.1751
C6 C 0.8298(6) 0.5309(5) 0.0831(3)
H8 H 0.8932 0.4432 0.0582
C7 C 0.6934(6) 0.6335(5) 0.0495(3)
C8 C 0.6081(6) 0.7638(5) 0.0885(3)
H9 H 0.5173 0.8373 0.0675
C9 C 0.6583(6) 0.7842(5) 0.1588(3)
H10 H 0.5997 0.8728 0.1836
C10 C 0.6460(6) 0.5953(5) -0.0254(3)
C11 C 0.4239(6) 0.6831(5) -0.1178(3)
C12 C 0.5022(5) 0.5796(5) -0.1759(2)
H11 H 0.6079 0.5057 -0.1703
C13 C 0.4212(6) 0.5877(5) -0.2421(3)
H12 H 0.4736 0.5183 -0.2807
C14 C 0.2637(5) 0.6969(5) -0.2518(2)
C15 C 0.1809(6) 0.7976(5) -0.1923(3)
H13 H 0.0727 0.8685 -0.1969
C16 C 0.2627(5) 0.7902(5) -0.1262(2)
H14 H 0.2088 0.8579 -0.0869
C17 C 0.0830(6) 0.8202(5) -0.3575(3)
C18 C 0.0391(6) 0.7952(5) -0.4361(3)
C19 C 0.1397(6) 0.6811(6) -0.4846(3)
H15 H 0.2446 0.6159 -0.4708
C20 C 0.0834(6) 0.6648(5) -0.5536(3)
H16 H 0.1518 0.5863 -0.5849
C21 C -0.1597(6) 0.8712(5) -0.5330(3)
H17 H -0.2610 0.9379 -0.5495
C22 C -0.1114(6) 0.8940(5) -0.4622(2)
H18 H -0.1796 0.9750 -0.4326
Zn1_2 Zn -0.14929(5) 0.71828(5) -0.68949(2)
Zn1_3 Zn 1.85071(5) -0.28172(5) 0.31051(2)
N3_2 N 0.6616(5) 0.9221(5) 0.3163(3)
N8_2 N 0.9346(5) 0.7565(4) 0.4218(2)
O5 O 1.0405(4) 0.8189(4) 0.08275(19)
H19 H 1.0992 0.8719 0.0715
H20 H 1.1059 0.7319 0.0712
O6 O 0.3526(5) 0.7839(5) 0.3044(3)
H21 H 0.3306 0.8749 0.2986
H22 H 0.2677 0.7692 0.2914
O7 O 0.7844(4) 1.0010(3) 0.97427(18)
H23 H 0.7634 0.9578 0.9384
H24 H 0.8545 0.9359 1.0011
loop_
_geom_bond_atom_site_label_1
_geom_bond_atom_site_label_2
_geom_bond_site_symmetry_1
_geom_bond_site_symmetry_2
Pt1 C1 1_555 1_555
Zn1 O1 1_555 1_555
O1 H1 1_555 1_555
H2 O1 1_555 1_555
O2 Zn1 1_555 1_555
H3 O2 1_555 1_555
H4 O2 1_555 1_555
O3 C10 1_555 1_555
O4 C17 1_555 1_555
N1 Zn1 1_555 1_555
N2 C2 1_555 1_555
N3 C3 1_555 1_555
N4 C4 1_555 1_555
N5 Zn1 1_555 1_555
N6 H5 1_555 1_555
N7 H6 1_555 1_555
N8 C20 1_555 1_555
C1 N1 1_555 1_555
C2 Pt1 1_555 1_555
C3 Pt1 1_555 1_555
C4 Pt1 1_555 1_555
C5 N5 1_555 1_555
H7 C5 1_555 1_555
C6 C5 1_555 1_555
H8 C6 1_555 1_555
C7 C6 1_555 1_555
C8 C7 1_555 1_555
H9 C8 1_555 1_555
C9 N5 1_555 1_555
H10 C9 1_555 1_555
C10 N6 1_555 1_555
C11 N6 1_555 1_555
C12 C11 1_555 1_555
H11 C12 1_555 1_555
C13 C12 1_555 1_555
H12 C13 1_555 1_555
C14 N7 1_555 1_555
C15 C14 1_555 1_555
H13 C15 1_555 1_555
C16 C11 1_555 1_555
H14 C16 1_555 1_555
C17 N7 1_555 1_555
C18 C17 1_555 1_555
C19 C18 1_555 1_555
H15 C19 1_555 1_555
C20 C19 1_555 1_555
H16 C20 1_555 1_555
C21 N8 1_555 1_555
H17 C21 1_555 1_555
C22 C18 1_555 1_555
H18 C22 1_555 1_555
O5 H19 1_555 1_555
H20 O5 1_555 1_555
O6 H21 1_555 1_555
H22 O6 1_555 1_555
O7 H23 1_555 1_555
H24 O7 1_555 1_555
Zn1_2 N8 1_555 1_555
Zn1_3 N3 1_555 1_555
N3_2 Zn1 1_555 1_555
N8_2 Zn1 1_555 1_555
C7 C10 1_555 1_555
C8 C9 1_555 1_555
C13 C14 1_555 1_555
C15 C16 1_555 1_555
C21 C22 1_555 1_555

#END
