
#######################################################################
#
#                 Cambridge Crystallographic Data Centre
#                                CCDC 
#
#######################################################################
#
# If this CIF has been generated from an entry in the Cambridge 
# Structural Database, then it will include bibliographic, chemical, 
# crystal, experimental, refinement or atomic coordinate data resulting 
# from the CCDC's data processing and validation procedures.
#
#######################################################################

data_CIMSOI
_symmetry_cell_setting           monoclinic
_symmetry_space_group_name_H-M   'C 2/c'
_symmetry_Int_Tables_number      15
_space_group_name_Hall           '-C 2yn'
loop_
_symmetry_equiv_pos_site_id
_symmetry_equiv_pos_as_xyz
1 x,y,z
2 -x,y,1/2-z
3 1/2+x,1/2+y,z
4 1/2-x,1/2+y,1/2-z
5 -x,-y,-z
6 x,-y,1/2+z
7 1/2-x,1/2-y,-z
8 1/2+x,1/2-y,1/2+z
_cell_length_a                   14.419(13)
_cell_length_b                   18.307(15)
_cell_length_c                   16.937(15)
_cell_angle_alpha                90
_cell_angle_beta                 104.286(16)
_cell_angle_gamma                90
_cell_volume                     4332.58
loop_
_atom_site_label
_atom_site_type_symbol
_atom_site_fract_x
_atom_site_fract_y
_atom_site_fract_z
Ni1 Ni 0.63292(4) 0.58114(3) 0.45933(3)
O1 O 0.6300(2) 0.66326(16) 0.54490(17)
O2 O 0.6264(2) 0.54981(17) 0.58653(17)
O3 O 0.6228(3) 0.59787(19) 0.96165(19)
O4 O 0.6299(2) 0.50356(16) 0.88168(19)
O5 O 0.6218(3) 0.81959(19) 0.7937(2)
O6 O 0.4843(2) 0.57625(17) 0.42882(18)
N1 N 0.6334(2) 0.65530(19) 0.3666(2)
N2 N 0.2842(3) 0.92543(19) 0.0011(2)
C1 C 0.6419(3) 0.7273(2) 0.3815(3)
H1 H 0.6517 0.7429 0.4352
H2 H 0.4550 0.5836 0.4659
H3 H 0.4652 0.5335 0.4115
C2 C 0.6370(3) 0.7800(2) 0.3216(3)
H4 H 0.6429 0.8292 0.3356
C3 C 0.6212(4) 0.6348(3) 0.2879(3)
H5 H 0.6163 0.5853 0.2752
C4 C 0.6159(4) 0.6850(3) 0.2255(3)
H6 H 0.6072 0.6683 0.1723
C5 C 0.6233(3) 0.7587(3) 0.2404(3)
C6 C 0.6145(4) 0.8120(3) 0.1707(3)
H7 H 0.6673 0.8030 0.1459
H8 H 0.5561 0.8006 0.1301
C7 C 0.6133(4) 0.8918(3) 0.1887(3)
H9 H 0.6756 0.9062 0.2218
H10 H 0.5664 0.9012 0.2198
C8 C 0.5891(4) 0.9382(3) 0.1107(3)
H11 H 0.6080 0.9884 0.1243
H12 H 0.6254 0.9203 0.0735
C9 C 0.4832(4) 0.9358(3) 0.0689(3)
C10 C 0.4190(4) 0.9839(3) 0.0891(3)
H13 H 0.4413 1.0210 0.1265
C11 C 0.3220(3) 0.9777(3) 0.0545(3)
H14 H 0.2810 1.0115 0.0691
C12 C 0.4448(4) 0.8826(3) 0.0116(3)
H15 H 0.4847 0.8495 -0.0055
C13 C 0.3458(3) 0.8793(3) -0.0203(3)
H16 H 0.3214 0.8432 -0.0584
C14 C 0.6270(3) 0.6175(2) 0.6007(3)
C15 C 0.6254(3) 0.6446(2) 0.6839(2)
C16 C 0.6243(3) 0.7202(2) 0.6975(3)
H17 H 0.6245 0.7528 0.6555
C17 C 0.6228(4) 0.7458(2) 0.7739(3)
C18 C 0.6232(3) 0.6967(3) 0.8374(3)
H18 H 0.6222 0.7144 0.8887
C19 C 0.6251(3) 0.6223(2) 0.8244(3)
C20 C 0.6266(3) 0.5963(2) 0.7473(3)
H19 H 0.6285 0.5463 0.7383
C21 C 0.6258(3) 0.5713(2) 0.8954(3)
C22 C 0.6197(5) 0.8713(3) 0.7320(4)
H20 H 0.6772 0.8675 0.7134
H21 H 0.6150 0.9195 0.7530
H22 H 0.5653 0.8622 0.6873
Ni1E Ni 0.63292(4) 0.41886(3) 0.95933(3)
Ni1G Ni 0.13292(4) 0.91886(3) -0.04067(3)
O4E O 0.6299(2) 0.49644(16) 0.38168(19)
N2G N 0.7842(3) 0.57457(19) 0.5011(2)
O7 O 0.3055(9) 0.8337(6) 0.5270(6)
H23 H 0.2774 0.8720 0.5042
loop_
_geom_bond_atom_site_label_1
_geom_bond_atom_site_label_2
_geom_bond_site_symmetry_1
_geom_bond_site_symmetry_2
Ni1 O1 1_555 1_555
O1 C14 1_555 1_555
O2 Ni1 1_555 1_555
O3 C21 1_555 1_555
O4 C21 1_555 1_555
O5 C17 1_555 1_555
O6 Ni1 1_555 1_555
N1 Ni1 1_555 1_555
N2 C11 1_555 1_555
C1 N1 1_555 1_555
H1 C1 1_555 1_555
H2 O6 1_555 1_555
H3 O6 1_555 1_555
C2 C1 1_555 1_555
H4 C2 1_555 1_555
C3 N1 1_555 1_555
H5 C3 1_555 1_555
C4 C3 1_555 1_555
H6 C4 1_555 1_555
C5 C2 1_555 1_555
C6 C5 1_555 1_555
H7 C6 1_555 1_555
H8 C6 1_555 1_555
C7 C6 1_555 1_555
H9 C7 1_555 1_555
H10 C7 1_555 1_555
C8 C7 1_555 1_555
H11 C8 1_555 1_555
H12 C8 1_555 1_555
C9 C8 1_555 1_555
C10 C9 1_555 1_555
H13 C10 1_555 1_555
C11 C10 1_555 1_555
H14 C11 1_555 1_555
C12 C9 1_555 1_555
H15 C12 1_555 1_555
C13 N2 1_555 1_555
H16 C13 1_555 1_555
C14 O2 1_555 1_555
C15 C14 1_555 1_555
C16 C15 1_555 1_555
H17 C16 1_555 1_555
C17 C16 1_555 1_555
C18 C17 1_555 1_555
H18 C18 1_555 1_555
C19 C18 1_555 1_555
C20 C15 1_555 1_555
H19 C20 1_555 1_555
C21 C19 1_555 1_555
C22 O5 1_555 1_555
H20 C22 1_555 1_555
H21 C22 1_555 1_555
H22 C22 1_555 1_555
O7 H23 1_555 1_555
Ni1E O4 1_555 1_555
Ni1G N2 1_555 1_555
O4E Ni1 1_555 1_555
N2G Ni1 1_555 1_555
C4 C5 1_555 1_555
C12 C13 1_555 1_555
C19 C20 1_555 1_555

#END
