
#######################################################################
#
#                 Cambridge Crystallographic Data Centre
#                                CCDC 
#
#######################################################################
#
# If this CIF has been generated from an entry in the Cambridge 
# Structural Database, then it will include bibliographic, chemical, 
# crystal, experimental, refinement or atomic coordinate data resulting 
# from the CCDC's data processing and validation procedures.
#
#######################################################################

data_CIMSAU
_symmetry_cell_setting           triclinic
_symmetry_space_group_name_H-M   'P -1'
_symmetry_Int_Tables_number      2
_space_group_name_Hall           '-P 1'
loop_
_symmetry_equiv_pos_site_id
_symmetry_equiv_pos_as_xyz
1 x,y,z
2 -x,-y,-z
_cell_length_a                   8.623(3)
_cell_length_b                   10.023(4)
_cell_length_c                   17.138(7)
_cell_angle_alpha                85.869(5)
_cell_angle_beta                 82.515(5)
_cell_angle_gamma                66.591(5)
_cell_volume                     1347.38
loop_
_atom_site_label
_atom_site_type_symbol
_atom_site_fract_x
_atom_site_fract_y
_atom_site_fract_z
Pd1 Pd 0.65138(3) 0.77931(2) 0.187254(14)
Zn1 Zn 1.15230(4) 0.28058(4) 0.18888(2)
O1 O 0.9771(3) 0.1875(2) 0.25036(13)
H1 H 0.9611 0.1883 0.3003
H2 H 1.0096 0.1001 0.2361
O2 O 1.3404(3) 0.3684(2) 0.13198(14)
H3 H 1.4337 0.3371 0.1522
H4 H 1.3721 0.3473 0.0838
O3 O 1.2664(3) 0.5180(3) 0.55781(15)
O4 O 1.9824(3) 0.0546(2) 0.82991(14)
N1 N 0.9648(3) 0.4841(3) 0.19215(16)
N2 N 0.7301(4) 0.8801(4) 0.3418(2)
N3 N 0.3427(3) 1.0779(3) 0.18313(17)
N4 N 0.5745(4) 0.6828(4) 0.03025(19)
N5 N 1.2156(3) 0.3160(3) 0.30686(15)
N6 N 1.4996(3) 0.3066(3) 0.55048(16)
H5 H 1.5534 0.2310 0.5222
N7 N 1.8080(3) 0.2945(3) 0.82273(15)
H6 H 1.7779 0.3760 0.8456
N8 N 2.0716(3) 0.2431(3) 1.07644(15)
C1 C 0.8517(4) 0.5933(3) 0.19097(18)
C2 C 0.7039(4) 0.8425(4) 0.2853(2)
C3 C 0.4543(4) 0.9671(4) 0.18379(19)
C4 C 0.5997(4) 0.7179(3) 0.0879(2)
C5 C 1.3419(4) 0.2145(4) 0.3425(2)
H7 H 1.4002 0.1252 0.3185
C6 C 1.3901(5) 0.2348(4) 0.4124(2)
H8 H 1.4782 0.1599 0.4345
C7 C 1.3085(4) 0.3658(3) 0.45015(19)
C8 C 1.1733(4) 0.4690(4) 0.41573(19)
H9 H 1.1099 0.5573 0.4400
C9 C 1.1330(4) 0.4406(4) 0.3454(2)
H10 H 1.0424 0.5125 0.3233
C10 C 1.3554(4) 0.4034(4) 0.52443(19)
C11 C 1.5753(4) 0.3125(4) 0.61879(19)
C12 C 1.7366(4) 0.2067(4) 0.6267(2)
H11 H 1.7911 0.1397 0.5870
C13 C 1.8172(4) 0.1993(4) 0.69221(19)
H12 H 1.9254 0.1283 0.6965
C14 C 1.7355(4) 0.2990(3) 0.75215(19)
C15 C 1.5772(4) 0.4061(3) 0.74294(19)
H13 H 1.5231 0.4737 0.7823
C16 C 1.4972(4) 0.4154(4) 0.67677(19)
H14 H 1.3919 0.4900 0.6711
C17 C 1.9190(4) 0.1763(4) 0.85778(19)
C18 C 1.9658(4) 0.2022(3) 0.93465(18)
C19 C 2.1155(4) 0.1047(3) 0.96132(19)
H15 H 2.1840 0.0232 0.9321
C20 C 2.1630(4) 0.1282(4) 1.0311(2)
H16 H 2.2639 0.0608 1.0476
C21 C 1.9232(4) 0.3333(4) 1.0521(2)
H17 H 1.8545 0.4115 1.0836
C22 C 1.8661(4) 0.3173(4) 0.9834(2)
H18 H 1.7615 0.3832 0.9697
Zn1_2 Zn 0.15230(4) 1.28058(4) 0.18888(2)
Zn1_3 Zn 2.15230(4) 0.28058(4) 1.18888(2)
N3_2 N 1.3427(3) 0.0779(3) 0.18313(17)
N8_2 N 1.0716(3) 0.2431(3) 0.07644(15)
O5 O 0.7872(3) 0.9992(3) 0.47262(15)
H19 H 0.8486 0.9272 0.4993
H20 H 0.7645 0.9654 0.4335
O6 O 0.9571(3) 0.1826(3) 0.41782(15)
H21 H 0.8958 0.2710 0.4283
H22 H 0.8933 0.1354 0.4263
O7 O 1.6483(3) 0.2162(4) 0.1971(2)
H23 H 1.7415 0.1553 0.2116
H24 H 1.6729 0.2678 0.1599
loop_
_geom_bond_atom_site_label_1
_geom_bond_atom_site_label_2
_geom_bond_site_symmetry_1
_geom_bond_site_symmetry_2
Pd1 C1 1_555 1_555
Zn1 O1 1_555 1_555
O1 H1 1_555 1_555
H2 O1 1_555 1_555
O2 Zn1 1_555 1_555
H3 O2 1_555 1_555
H4 O2 1_555 1_555
O3 C10 1_555 1_555
O4 C17 1_555 1_555
N1 Zn1 1_555 1_555
N2 C2 1_555 1_555
N3 C3 1_555 1_555
N4 C4 1_555 1_555
N5 Zn1 1_555 1_555
N6 H5 1_555 1_555
N7 H6 1_555 1_555
N8 C20 1_555 1_555
C1 N1 1_555 1_555
C2 Pd1 1_555 1_555
C3 Pd1 1_555 1_555
C4 Pd1 1_555 1_555
C5 N5 1_555 1_555
H7 C5 1_555 1_555
C6 C5 1_555 1_555
H8 C6 1_555 1_555
C7 C6 1_555 1_555
C8 C7 1_555 1_555
H9 C8 1_555 1_555
C9 N5 1_555 1_555
H10 C9 1_555 1_555
C10 N6 1_555 1_555
C11 N6 1_555 1_555
C12 C11 1_555 1_555
H11 C12 1_555 1_555
C13 C12 1_555 1_555
H12 C13 1_555 1_555
C14 N7 1_555 1_555
C15 C14 1_555 1_555
H13 C15 1_555 1_555
C16 C11 1_555 1_555
H14 C16 1_555 1_555
C17 N7 1_555 1_555
C18 C17 1_555 1_555
C19 C18 1_555 1_555
H15 C19 1_555 1_555
C20 C19 1_555 1_555
H16 C20 1_555 1_555
C21 N8 1_555 1_555
H17 C21 1_555 1_555
C22 C18 1_555 1_555
H18 C22 1_555 1_555
O5 H19 1_555 1_555
H20 O5 1_555 1_555
O6 H21 1_555 1_555
H22 O6 1_555 1_555
O7 H23 1_555 1_555
H24 O7 1_555 1_555
Zn1_2 N3 1_555 1_555
Zn1_3 N8 1_555 1_555
N3_2 Zn1 1_555 1_555
N8_2 Zn1 1_555 1_555
C7 C10 1_555 1_555
C8 C9 1_555 1_555
C13 C14 1_555 1_555
C15 C16 1_555 1_555
C21 C22 1_555 1_555

#END
