
#######################################################################
#
#                 Cambridge Crystallographic Data Centre
#                                CCDC 
#
#######################################################################
#
# If this CIF has been generated from an entry in the Cambridge 
# Structural Database, then it will include bibliographic, chemical, 
# crystal, experimental, refinement or atomic coordinate data resulting 
# from the CCDC's data processing and validation procedures.
#
#######################################################################

data_CIMTOJ
_symmetry_cell_setting           orthorhombic
_symmetry_space_group_name_H-M   'I b c a'
_symmetry_Int_Tables_number      73
_space_group_name_Hall           '-I 2b 2c'
loop_
_symmetry_equiv_pos_site_id
_symmetry_equiv_pos_as_xyz
1 x,y,z
2 1/2-x,-y,1/2+z
3 -x,1/2+y,1/2-z
4 1/2+x,1/2-y,-z
5 1/2+x,1/2+y,1/2+z
6 -x,1/2-y,z
7 1/2-x,y,-z
8 x,-y,1/2-z
9 -x,-y,-z
10 1/2+x,y,1/2-z
11 x,1/2-y,1/2+z
12 1/2-x,1/2+y,z
13 1/2-x,1/2-y,1/2-z
14 x,1/2+y,-z
15 1/2+x,-y,z
16 -x,y,1/2+z
_cell_length_a                   14.1929(9)
_cell_length_b                   14.4100(9)
_cell_length_c                   27.4173(17)
_cell_angle_alpha                90
_cell_angle_beta                 90
_cell_angle_gamma                90
_cell_volume                     5607.38
loop_
_atom_site_label
_atom_site_type_symbol
_atom_site_fract_x
_atom_site_fract_y
_atom_site_fract_z
Zn1 Zn 0.245473(19) 0.032897(19) 0.376526(10)
O1 O 0.24849(14) 0.15994(14) 0.40203(8)
O2 O 0.1327(2) 0.12369(14) 0.45227(9)
O3 O 0.67091(14) 0.10770(18) 0.30610(9)
O4 O 0.62101(13) -0.01013(16) 0.35074(8)
N1 N 0.20188(15) 0.43932(14) 0.42404(8)
N2 N 0.06767(17) 0.43220(17) 0.53706(9)
H1 H 0.0430 0.3925 0.5567
H2 H 0.0631 0.4906 0.5431
N3 N 0.34539(14) 0.05546(15) 0.32480(8)
N4 N 0.36399(18) 0.18739(19) 0.21236(9)
H3 H 0.4055 0.2113 0.1933
H4 H 0.3050 0.1941 0.2061
C1 C 0.1847(2) 0.18058(18) 0.43281(10)
C2 C 0.17351(19) 0.28162(16) 0.44465(9)
C3 C 0.12315(19) 0.30863(18) 0.48527(10)
H5 H 0.0953 0.2642 0.5052
C4 C 0.11403(18) 0.40267(19) 0.49647(10)
C5 C 0.15465(18) 0.46573(17) 0.46391(10)
H6 H 0.1485 0.5288 0.4702
C6 C 0.21280(19) 0.34821(18) 0.41465(9)
H7 H 0.2474 0.3298 0.3875
C7 C 0.60885(18) 0.0572(2) 0.32123(10)
C8 C 0.50803(18) 0.07353(18) 0.30638(9)
C9 C 0.43638(18) 0.03946(18) 0.33512(10)
H8 H 0.4515 0.0043 0.3625
C10 C 0.32404(18) 0.10283(19) 0.28450(10)
H9 H 0.2608 0.1125 0.2772
C11 C 0.39173(19) 0.13869(19) 0.25273(10)
C12 C 0.48576(19) 0.12496(19) 0.26528(10)
H10 H 0.5334 0.1502 0.2461
Zn1K Zn 0.254527(19) 0.532897(19) 0.376526(10)
Zn1N Zn 0.745473(19) -0.032897(19) 0.376526(10)
O4N O 0.12101(13) 0.01013(16) 0.35074(8)
N1K N 0.29812(15) -0.06068(14) 0.42404(8)
O5 O 0.0179(4) 0.1924(4) 0.36039(19)
H11 H 0.0049 0.1571 0.3843
O6 O 0.5577(5) 0.7633(5) 0.5981(3)
H12 H 0.5951 0.7532 0.6217
H13? H 0.0000 0.2500 0.3620
H14? H 0.5000 0.7500 0.6032
loop_
_geom_bond_atom_site_label_1
_geom_bond_atom_site_label_2
_geom_bond_site_symmetry_1
_geom_bond_site_symmetry_2
Zn1 O1 1_555 1_555
O1 C1 1_555 1_555
O2 C1 1_555 1_555
O3 C7 1_555 1_555
O4 C7 1_555 1_555
N1 C5 1_555 1_555
N2 H1 1_555 1_555
H2 N2 1_555 1_555
N3 Zn1 1_555 1_555
N4 H3 1_555 1_555
H4 N4 1_555 1_555
C1 C2 1_555 1_555
C2 C3 1_555 1_555
C3 H5 1_555 1_555
C4 N2 1_555 1_555
C5 C4 1_555 1_555
H6 C5 1_555 1_555
C6 N1 1_555 1_555
H7 C6 1_555 1_555
C7 C8 1_555 1_555
C8 C9 1_555 1_555
C9 N3 1_555 1_555
H8 C9 1_555 1_555
C10 N3 1_555 1_555
H9 C10 1_555 1_555
C11 N4 1_555 1_555
C12 C8 1_555 1_555
H10 C12 1_555 1_555
O5 H11 1_555 1_555
O6 H12 1_555 1_555
Zn1K N1 1_555 1_555
Zn1N O4 1_555 1_555
O4N Zn1 1_555 1_555
N1K Zn1 1_555 1_555
C2 C6 1_555 1_555
C3 C4 1_555 1_555
C10 C11 1_555 1_555
C11 C12 1_555 1_555

#END
