
#######################################################################
#
#                 Cambridge Crystallographic Data Centre
#                                CCDC 
#
#######################################################################
#
# If this CIF has been generated from an entry in the Cambridge 
# Structural Database, then it will include bibliographic, chemical, 
# crystal, experimental, refinement or atomic coordinate data resulting 
# from the CCDC's data processing and validation procedures.
#
#######################################################################

data_CIMTAU
_symmetry_cell_setting           monoclinic
_symmetry_space_group_name_H-M   'P 21/n'
_symmetry_Int_Tables_number      14
_space_group_name_Hall           '-P 2yn'
loop_
_symmetry_equiv_pos_site_id
_symmetry_equiv_pos_as_xyz
1 x,y,z
2 1/2-x,1/2+y,1/2-z
3 -x,-y,-z
4 1/2+x,1/2-y,1/2+z
_cell_length_a                   11.4549(18)
_cell_length_b                   22.739(4)
_cell_length_c                   13.396(2)
_cell_angle_alpha                90
_cell_angle_beta                 101.438(12)
_cell_angle_gamma                90
_cell_volume                     3420
loop_
_atom_site_label
_atom_site_type_symbol
_atom_site_fract_x
_atom_site_fract_y
_atom_site_fract_z
Sr1 Sr 0.5000 0.5000 0.5000
O1 O 0.6734(3) 0.5668(2) 0.4864(4)
O2 O 0.4231(3) 0.5751(2) 0.3598(4)
O3 O 0.4239(4) 0.5280(2) 0.6615(4)
O4 O 0.6325(3) 0.5847(2) 0.2638(4)
O5 O 0.5953(4) 0.7032(2) 0.4035(4)
O6 O 0.8788(3) 0.4997(3) 0.3852(4)
Li1 Li 0.5752(8) 0.6194(6) 0.3781(11)
Li2 Li 0.4924(10) 0.5339(6) 0.2530(11)
Li3 Li 0.7101(9) 0.5288(6) 0.3643(10)
O7 O 0.3830(6) 0.5199(3) 0.1218(6)
C1 C 0.7491(5) 0.6024(4) 0.5516(6)
C2 C 0.8429(5) 0.6315(4) 0.5181(8)
H1 H 0.8558 0.6259 0.4516
C3 C 0.9164(7) 0.6690(4) 0.5860(10)
H2 H 0.9786 0.6892 0.5644
C4 C 0.8991(8) 0.6769(5) 0.6852(11)
H3 H 0.9483 0.7026 0.7299
C5 C 0.8101(8) 0.6470(5) 0.7165(10)
H4 H 0.7998 0.6513 0.7840
C6 C 0.7349(6) 0.6106(4) 0.6516(7)
H5 H 0.6732 0.5910 0.6749
C7 C 0.3158(5) 0.6040(4) 0.3269(6)
C8 C 0.2096(5) 0.5712(4) 0.3211(7)
H6 H 0.2129 0.5307 0.3353
C9 C 0.0993(6) 0.5999(5) 0.2938(8)
H7 H 0.0286 0.5786 0.2917
C10 C 0.0940(7) 0.6568(5) 0.2709(8)
H8 H 0.0190 0.6747 0.2512
C11 C 0.1973(6) 0.6912(4) 0.2753(7)
H9 H 0.1935 0.7315 0.2595
C12 C 0.3071(6) 0.6613(4) 0.3050(7)
H10 H 0.3778 0.6830 0.3096
C13 C 0.3994(5) 0.5847(3) 0.6708(6)
C14 C 0.3220(6) 0.6154(4) 0.5905(6)
H11 H 0.2883 0.5946 0.5312
C15 C 0.2954(6) 0.6734(4) 0.5967(7)
H12 H 0.2408 0.6912 0.5437
C16 C 0.3480(7) 0.7063(4) 0.6805(7)
H13 H 0.3308 0.7465 0.6851
C17 C 0.4245(8) 0.6789(4) 0.7550(8)
H14 H 0.4607 0.7009 0.8123
C18 C 0.4525(6) 0.6201(4) 0.7514(7)
H15 H 0.5088 0.6036 0.8047
C19 C 0.6557(5) 0.6153(3) 0.1841(6)
C20 C 0.7675(5) 0.6106(4) 0.1544(6)
H16 H 0.8288 0.5879 0.1931
C21 C 0.7861(8) 0.6401(5) 0.0668(8)
H17 H 0.8597 0.6355 0.0466
C22 C 0.7011(9) 0.6753(5) 0.0096(8)
H18 H 0.7154 0.6951 -0.0484
C23 C 0.5925(9) 0.6806(4) 0.0412(8)
H19 H 0.5333 0.7050 0.0041
C24 C 0.5691(7) 0.6508(4) 0.1258(7)
H20 H 0.4941 0.6546 0.1437
C25 C 0.6754(6) 0.7423(4) 0.3620(7)
H21 H 0.6420 0.7517 0.2907
H22 H 0.7532 0.7235 0.3657
C26 C 0.6881(10) 0.7976(5) 0.4265(9)
H23 H 0.7667 0.7989 0.4716
H24 H 0.6789 0.8326 0.3831
C27 C 0.5981(12) 0.7954(6) 0.4838(11)
H25 H 0.5289 0.8183 0.4501
H26 H 0.6270 0.8119 0.5518
C28 C 0.5651(8) 0.7335(5) 0.4915(8)
H27 H 0.6093 0.7164 0.5550
H28 H 0.4797 0.7300 0.4907
C29 C 0.9102(7) 0.4609(5) 0.3118(7)
H29 H 0.9962 0.4589 0.3208
H30 H 0.8769 0.4753 0.2439
H31 H 0.8789 0.4220 0.3204
C30 C 0.9382(4) 0.4855(4) 0.4899(5)
H32 H 0.9461 0.4428 0.4984
H33 H 0.8912 0.5004 0.5381
C31 C 0.3031(14) 0.5656(9) 0.0560(13)
H34 H 0.2425 0.5800 0.0923
H35 H 0.3513 0.5991 0.0422
C32 C 0.253(4) 0.5416(10) -0.028(2)
H36 H 0.2105 0.5687 -0.0791
H37 H 0.3033 0.5141 -0.0565
C33 C 0.1746(13) 0.5127(14) 0.0430(18)
H38 H 0.1146 0.4855 0.0065
H39 H 0.1373 0.5417 0.0809
C34 C 0.2829(14) 0.4806(10) 0.1106(13)
H40 H 0.3003 0.4440 0.0780
H41 H 0.2652 0.4712 0.1774
O1B O 0.3266(3) 0.4332(2) 0.5136(4)
O2B O 0.5769(3) 0.4249(2) 0.6402(4)
O3B O 0.5761(4) 0.4720(2) 0.3385(4)
O4B O 0.3675(3) 0.4153(2) 0.7362(4)
O5B O 0.4047(4) 0.2968(2) 0.5965(4)
O6B O 1.1212(3) 0.5003(3) 0.6148(4)
O6B_2 O 0.1212(3) 0.5003(3) 0.6148(4)
Li1B Li 0.4248(8) 0.3806(6) 0.6219(11)
Li2B Li 0.5076(10) 0.4661(6) 0.7470(11)
Li3B Li 0.2899(9) 0.4712(6) 0.6357(10)
Li3B_2 Li 1.2899(9) 0.4712(6) 0.6357(10)
O7B O 0.6170(6) 0.4801(3) 0.8782(6)
C1B C 0.2509(5) 0.3976(4) 0.4484(6)
C2B C 0.1571(5) 0.3685(4) 0.4819(8)
H1B H 0.1442 0.3741 0.5484
C3B C 0.0836(7) 0.3310(4) 0.4140(10)
H2B H 0.0214 0.3108 0.4356
C4B C 0.1009(8) 0.3231(5) 0.3148(11)
H3B H 0.0517 0.2974 0.2701
C5B C 0.1899(8) 0.3530(5) 0.2835(10)
H4B H 0.2002 0.3487 0.2160
C6B C 0.2651(6) 0.3894(4) 0.3484(7)
H5B H 0.3268 0.4090 0.3251
C7B C 0.6842(5) 0.3960(4) 0.6731(6)
C8B C 0.7904(5) 0.4288(4) 0.6789(7)
H6B H 0.7871 0.4693 0.6647
C9B C 0.9007(6) 0.4001(5) 0.7062(8)
H7B H 0.9714 0.4214 0.7083
C10B C 0.9060(7) 0.3432(5) 0.7291(8)
H8B H 0.9810 0.3253 0.7488
C11B C 0.8027(6) 0.3088(4) 0.7247(7)
H9B H 0.8065 0.2685 0.7405
C12B C 0.6929(6) 0.3387(4) 0.6950(7)
H10B H 0.6222 0.3170 0.6904
C13B C 0.6006(5) 0.4153(3) 0.3292(6)
C14B C 0.6780(6) 0.3846(4) 0.4095(6)
H11B H 0.7117 0.4054 0.4688
C15B C 0.7046(6) 0.3266(4) 0.4033(7)
H12B H 0.7592 0.3088 0.4563
C16B C 0.6520(7) 0.2937(4) 0.3195(7)
H13B H 0.6692 0.2535 0.3149
C17B C 0.5755(8) 0.3211(4) 0.2450(8)
H14B H 0.5393 0.2991 0.1877
C18B C 0.5475(6) 0.3799(4) 0.2486(7)
H15B H 0.4912 0.3964 0.1953
C19B C 0.3443(5) 0.3847(3) 0.8159(6)
C20B C 0.2325(5) 0.3894(4) 0.8456(6)
H16B H 0.1712 0.4121 0.8069
C21B C 0.2139(8) 0.3599(5) 0.9332(8)
H17B H 0.1403 0.3645 0.9534
C22B C 0.2989(9) 0.3247(5) 0.9904(8)
H18B H 0.2846 0.3049 1.0484
C23B C 0.4075(9) 0.3194(4) 0.9588(8)
H19B H 0.4667 0.2950 0.9959
C24B C 0.4309(7) 0.3492(4) 0.8742(7)
H20B H 0.5059 0.3454 0.8563
C25B C 0.3246(6) 0.2577(4) 0.6380(7)
H21B H 0.3580 0.2483 0.7093
H22B H 0.2468 0.2765 0.6343
C26B C 0.3119(10) 0.2024(5) 0.5735(9)
H23B H 0.2333 0.2011 0.5284
H24B H 0.3211 0.1674 0.6169
C27B C 0.4019(12) 0.2046(6) 0.5162(11)
H25B H 0.4711 0.1817 0.5499
H26B H 0.3730 0.1881 0.4482
C28B C 0.4349(8) 0.2665(5) 0.5085(8)
H27B H 0.3907 0.2836 0.4450
H28B H 0.5203 0.2700 0.5093
C29B C 1.0898(7) 0.5391(5) 0.6882(7)
H29B H 1.0038 0.5411 0.6792
H30B H 1.1231 0.5247 0.7561
H31B H 1.1211 0.5780 0.6796
C30B C 1.0618(4) 0.5145(4) 0.5101(5)
H32B H 1.0539 0.5572 0.5016
H33B H 1.1088 0.4996 0.4619
C31B C 0.6969(14) 0.4344(9) 0.9440(13)
H34B H 0.7575 0.4200 0.9077
H35B H 0.6487 0.4009 0.9578
C32B C 0.747(4) 0.4584(10) 1.028(2)
H36B H 0.7895 0.4313 1.0791
H37B H 0.6967 0.4859 1.0565
C33B C 0.8254(13) 0.4873(14) 0.9570(18)
H38B H 0.8854 0.5145 0.9935
H39B H 0.8627 0.4583 0.9191
C34B C 0.7171(14) 0.5194(10) 0.8894(13)
H40B H 0.6997 0.5560 0.9220
H41B H 0.7348 0.5288 0.8226
loop_
_geom_bond_atom_site_label_1
_geom_bond_atom_site_label_2
_geom_bond_site_symmetry_1
_geom_bond_site_symmetry_2
Sr1 O1 1_555 1_555
O1 Li1 1_555 1_555
O2 Sr1 1_555 1_555
O3 Sr1 1_555 1_555
O4 Li1 1_555 1_555
O5 Li1 1_555 1_555
O6 Li3 1_555 1_555
Li1 O2 1_555 1_555
Li2 O2 1_555 1_555
Li3 O1 1_555 1_555
O7 Li2 1_555 1_555
C1 O1 1_555 1_555
C2 C1 1_555 1_555
H1 C2 1_555 1_555
C3 C2 1_555 1_555
H2 C3 1_555 1_555
C4 C3 1_555 1_555
H3 C4 1_555 1_555
C5 C4 1_555 1_555
H4 C5 1_555 1_555
C6 C1 1_555 1_555
H5 C6 1_555 1_555
C7 O2 1_555 1_555
C8 C7 1_555 1_555
H6 C8 1_555 1_555
C9 C8 1_555 1_555
H7 C9 1_555 1_555
C10 C9 1_555 1_555
H8 C10 1_555 1_555
C11 C10 1_555 1_555
H9 C11 1_555 1_555
C12 C7 1_555 1_555
H10 C12 1_555 1_555
C13 O3 1_555 1_555
C14 C13 1_555 1_555
H11 C14 1_555 1_555
C15 C14 1_555 1_555
H12 C15 1_555 1_555
C16 C15 1_555 1_555
H13 C16 1_555 1_555
C17 C16 1_555 1_555
H14 C17 1_555 1_555
C18 C13 1_555 1_555
H15 C18 1_555 1_555
C19 O4 1_555 1_555
C20 C19 1_555 1_555
H16 C20 1_555 1_555
C21 C20 1_555 1_555
H17 C21 1_555 1_555
C22 C21 1_555 1_555
H18 C22 1_555 1_555
C23 C22 1_555 1_555
H19 C23 1_555 1_555
C24 C19 1_555 1_555
H20 C24 1_555 1_555
C25 O5 1_555 1_555
H21 C25 1_555 1_555
H22 C25 1_555 1_555
C26 C25 1_555 1_555
H23 C26 1_555 1_555
H24 C26 1_555 1_555
C27 C26 1_555 1_555
H25 C27 1_555 1_555
H26 C27 1_555 1_555
C28 O5 1_555 1_555
H27 C28 1_555 1_555
H28 C28 1_555 1_555
C29 O6 1_555 1_555
H29 C29 1_555 1_555
H30 C29 1_555 1_555
H31 C29 1_555 1_555
C30 O6 1_555 1_555
H32 C30 1_555 1_555
H33 C30 1_555 1_555
C31 O7 1_555 1_555
H34 C31 1_555 1_555
H35 C31 1_555 1_555
C32 C31 1_555 1_555
H36 C32 1_555 1_555
H37 C32 1_555 1_555
C33 C32 1_555 1_555
H38 C33 1_555 1_555
H39 C33 1_555 1_555
C34 O7 1_555 1_555
H40 C34 1_555 1_555
H41 C34 1_555 1_555
O1B Sr1 1_555 1_555
O2B Sr1 1_555 1_555
O3B Sr1 1_555 1_555
O4B Li1B 1_555 1_555
O5B Li1B 1_555 1_555
O6B Li3B_2 1_555 1_555
O6B_2 Li3B 1_555 1_555
Li1B O1B 1_555 1_555
Li2B O3 1_555 1_555
Li3B O3 1_555 1_555
O7B Li2B 1_555 1_555
C1B O1B 1_555 1_555
C2B C1B 1_555 1_555
H1B C2B 1_555 1_555
C3B C2B 1_555 1_555
H2B C3B 1_555 1_555
C4B C3B 1_555 1_555
H3B C4B 1_555 1_555
C5B C4B 1_555 1_555
H4B C5B 1_555 1_555
C6B C1B 1_555 1_555
H5B C6B 1_555 1_555
C7B O2B 1_555 1_555
C8B C7B 1_555 1_555
H6B C8B 1_555 1_555
C9B C8B 1_555 1_555
H7B C9B 1_555 1_555
C10B C9B 1_555 1_555
H8B C10B 1_555 1_555
C11B C10B 1_555 1_555
H9B C11B 1_555 1_555
C12B C7B 1_555 1_555
H10B C12B 1_555 1_555
C13B O3B 1_555 1_555
C14B C13B 1_555 1_555
H11B C14B 1_555 1_555
C15B C14B 1_555 1_555
H12B C15B 1_555 1_555
C16B C15B 1_555 1_555
H13B C16B 1_555 1_555
C17B C16B 1_555 1_555
H14B C17B 1_555 1_555
C18B C13B 1_555 1_555
H15B C18B 1_555 1_555
C19B O4B 1_555 1_555
C20B C19B 1_555 1_555
H16B C20B 1_555 1_555
C21B C20B 1_555 1_555
H17B C21B 1_555 1_555
C22B C21B 1_555 1_555
H18B C22B 1_555 1_555
C23B C22B 1_555 1_555
H19B C23B 1_555 1_555
C24B C19B 1_555 1_555
H20B C24B 1_555 1_555
C25B O5B 1_555 1_555
H21B C25B 1_555 1_555
H22B C25B 1_555 1_555
C26B C25B 1_555 1_555
H23B C26B 1_555 1_555
H24B C26B 1_555 1_555
C27B C26B 1_555 1_555
H25B C27B 1_555 1_555
H26B C27B 1_555 1_555
C28B O5B 1_555 1_555
H27B C28B 1_555 1_555
H28B C28B 1_555 1_555
C29B O6B 1_555 1_555
H29B C29B 1_555 1_555
H30B C29B 1_555 1_555
H31B C29B 1_555 1_555
C30B C30 1_555 1_555
H32B C30B 1_555 1_555
H33B C30B 1_555 1_555
C31B O7B 1_555 1_555
H34B C31B 1_555 1_555
H35B C31B 1_555 1_555
C32B C31B 1_555 1_555
H36B C32B 1_555 1_555
H37B C32B 1_555 1_555
C33B C32B 1_555 1_555
H38B C33B 1_555 1_555
H39B C33B 1_555 1_555
C34B O7B 1_555 1_555
H40B C34B 1_555 1_555
H41B C34B 1_555 1_555
O4 Li2 1_555 1_555
O4 Li3 1_555 1_555
Li2 O3B 1_555 1_555
Li3 O3B 1_555 1_555
C5 C6 1_555 1_555
C11 C12 1_555 1_555
C17 C18 1_555 1_555
C23 C24 1_555 1_555
C27 C28 1_555 1_555
C33 C34 1_555 1_555
O1B Li3B 1_555 1_555
O2B Li1B 1_555 1_555
O2B Li2B 1_555 1_555
O4B Li2B 1_555 1_555
O4B Li3B 1_555 1_555
O6B C30B 1_555 1_555
C5B C6B 1_555 1_555
C11B C12B 1_555 1_555
C17B C18B 1_555 1_555
C23B C24B 1_555 1_555
C27B C28B 1_555 1_555
C33B C34B 1_555 1_555

#END
