
#######################################################################
#
#                 Cambridge Crystallographic Data Centre
#                                CCDC 
#
#######################################################################
#
# If this CIF has been generated from an entry in the Cambridge 
# Structural Database, then it will include bibliographic, chemical, 
# crystal, experimental, refinement or atomic coordinate data resulting 
# from the CCDC's data processing and validation procedures.
#
#######################################################################

data_CIMTEZ
_symmetry_cell_setting           orthorhombic
_symmetry_space_group_name_H-M   'P n n a'
_symmetry_Int_Tables_number      52
_space_group_name_Hall           '-P 2a 2bc'
loop_
_symmetry_equiv_pos_site_id
_symmetry_equiv_pos_as_xyz
1 x,y,z
2 1/2-x,-y,z
3 x,1/2-y,1/2-z
4 1/2-x,1/2+y,1/2-z
5 -x,-y,-z
6 1/2+x,y,-z
7 -x,1/2+y,1/2+z
8 1/2+x,1/2-y,1/2+z
_cell_length_a                   37.6140(15)
_cell_length_b                   27.2860(11)
_cell_length_c                   18.2151(7)
_cell_angle_alpha                90
_cell_angle_beta                 90
_cell_angle_gamma                90
_cell_volume                     18694.8
loop_
_atom_site_label
_atom_site_type_symbol
_atom_site_fract_x
_atom_site_fract_y
_atom_site_fract_z
O17 O 0.8407(9) 0.1068(13) 0.3744(19)
N2 N 0.0544(5) 0.3947(7) 1.0199(12)
C74 C 0.0326(6) 0.4408(8) 1.0122(15)
C75 C 0.0751(10) 0.3932(15) 1.0884(18)
Nd1 Nd -0.095642(14) 0.25160(2) 1.12156(3)
Nd2 Nd 0.026707(13) 0.255431(18) 1.12616(3)
B1 B -0.0320(3) 0.4375(4) 0.7443(6)
B2 B 0.1774(5) 0.2500 0.7500
B3 B 0.2555(5) 0.2500 1.2500
C1 C -0.0327(3) 0.3211(3) 1.0184(6)
C2 C -0.03303(16) 0.35117(19) 0.9480(3)
C3 C -0.05534(15) 0.3915(2) 0.9414(3)
C4 C -0.05434(15) 0.42008(18) 0.8782(3)
C5 C -0.03103(17) 0.4082(2) 0.8217(3)
C6 C -0.00873(15) 0.3679(2) 0.8283(3)
C7 C -0.00973(15) 0.33933(18) 0.8915(3)
C8 C 0.0121(3) 0.2926(4) 0.8946(6)
H1 H 0.0266 0.2902 0.8514
H2 H -0.0035 0.2648 0.8971
H3 H 0.0270 0.2932 0.9374
C9 C 0.0194(3) 0.3563(4) 0.7707(6)
H4 H 0.0170 0.3786 0.7302
H5 H 0.0162 0.3233 0.7535
H6 H 0.0426 0.3596 0.7920
C10 C -0.0819(3) 0.4616(4) 0.8662(6)
H7 H -0.0960 0.4655 0.9098
H8 H -0.0971 0.4533 0.8257
H9 H -0.0698 0.4918 0.8557
C11 C -0.0795(3) 0.4060(4) 1.0091(5)
H10 H -0.0767 0.3822 1.0474
H11 H -0.1039 0.4070 0.9940
H12 H -0.0726 0.4377 1.0270
C12 C -0.0277(3) 0.6537(4) 0.7344(7)
C13 C -0.02865(16) 0.59872(14) 0.7358(3)
C14 C -0.05557(14) 0.57338(19) 0.6998(3)
C15 C -0.05661(14) 0.52249(19) 0.7027(3)
C16 C -0.03074(17) 0.49695(14) 0.7415(3)
C17 C -0.00382(15) 0.52229(19) 0.7774(3)
C18 C -0.00278(15) 0.57318(19) 0.7746(3)
C19 C 0.0278(3) 0.6011(4) 0.8120(8)
H13 H 0.0432 0.5782 0.8362
H14 H 0.0182 0.6235 0.8474
H15 H 0.0410 0.6190 0.7757
C20 C 0.0262(3) 0.4952(4) 0.8167(7)
H16 H 0.0423 0.5186 0.8380
H17 H 0.0388 0.4751 0.7821
H18 H 0.0165 0.4749 0.8547
C21 C -0.0869(3) 0.4962(4) 0.6638(7)
H19 H -0.0843 0.4614 0.6703
H20 H -0.0862 0.5038 0.6123
H21 H -0.1092 0.5067 0.6841
C22 C -0.0836(3) 0.6013(4) 0.6565(6)
H22 H -0.0791 0.6359 0.6601
H23 H -0.1068 0.5942 0.6762
H24 H -0.0828 0.5915 0.6060
C23 C -0.0325(3) 0.3107(3) 0.4826(6)
C24 C -0.03239(16) 0.34437(19) 0.5476(3)
C25 C -0.01077(15) 0.3857(2) 0.5494(3)
C26 C -0.01140(16) 0.41651(18) 0.6102(3)
C27 C -0.03364(17) 0.40606(19) 0.6690(3)
C28 C -0.05526(16) 0.3648(2) 0.6672(3)
C29 C -0.05464(16) 0.33392(18) 0.6065(3)
C30 C -0.0757(3) 0.2858(4) 0.6086(6)
H25 H -0.0896 0.2845 0.6528
H26 H -0.0595 0.2586 0.6076
H27 H -0.0912 0.2842 0.5668
C31 C -0.0834(3) 0.3545(5) 0.7262(6)
H28 H -0.0953 0.3243 0.7151
H29 H -0.1003 0.3807 0.7272
H30 H -0.0720 0.3519 0.7733
C32 C 0.0153(3) 0.4599(4) 0.6148(6)
H31 H 0.0115 0.4775 0.6598
H32 H 0.0117 0.4815 0.5739
H33 H 0.0392 0.4474 0.6137
C33 C 0.0888(5) 0.2373(7) 1.0128(10)
C34 C 0.0114(3) 0.3977(4) 0.4794(5)
H34 H 0.0251 0.4268 0.4877
H35 H -0.0043 0.4028 0.4387
H36 H 0.0271 0.3709 0.4688
C35 C 0.1140(2) 0.2380(3) 0.9511(3)
C36 C 0.10543(19) 0.2099(3) 0.8900(4)
C37 C 0.1268(2) 0.2116(3) 0.8278(3)
C38 C 0.15681(18) 0.2413(3) 0.8268(3)
C39 C 0.16541(18) 0.2695(3) 0.8879(4)
C40 C 0.1440(2) 0.2678(3) 0.9501(3)
C41 C 0.1545(5) 0.2939(6) 1.0223(8)
H37 H 0.1756 0.3130 1.0144
H38 H 0.1589 0.2698 1.0596
H39 H 0.1355 0.3150 1.0376
C42 C 0.1957(4) 0.3068(6) 0.8879(9)
H40 H 0.2086 0.3044 0.8425
H41 H 0.2114 0.3001 0.9282
H42 H 0.1861 0.3392 0.8929
C43 C 0.1174(3) 0.1785(6) 0.7644(6)
H43 H 0.0959 0.1612 0.7754
H44 H 0.1363 0.1555 0.7565
H45 H 0.1141 0.1979 0.7209
C44 C 0.0707(5) 0.1781(8) 0.8904(10)
H46 H 0.0591 0.1812 0.9371
H47 H 0.0767 0.1444 0.8820
H48 H 0.0550 0.1892 0.8523
C45 C 0.3334(4) 0.2500 0.7500
C46 C 0.2938(4) 0.2500 0.7500
C47 C 0.2757(3) 0.2919(4) 0.7267(6)
C48 C 0.2383(3) 0.2917(4) 0.7252(6)
C49 C 0.2198(4) 0.2500 0.7500
C50 C 0.2193(3) 0.3373(5) 0.6981(8)
H49 H 0.1940 0.3321 0.7000
H50 H 0.2263 0.3440 0.6485
H51 H 0.2255 0.3646 0.7288
C51 C 0.2962(3) 0.3374(4) 0.7041(7)
H52 H 0.3212 0.3312 0.7083
H53 H 0.2897 0.3642 0.7355
H54 H 0.2905 0.3455 0.6542
C52 C 0.0997(4) 0.2500 1.2500
C53 C 0.1393(3) 0.2500 1.2500
C54 C 0.1574(2) 0.2078(4) 1.2732(5)
C55 C 0.1947(2) 0.2088(4) 1.2745(5)
C56 C 0.2136(3) 0.2500 1.2500
C57 C 0.2157(3) 0.1628(4) 1.3001(7)
H55 H 0.2408 0.1694 1.2978
H56 H 0.2102 0.1356 1.2686
H57 H 0.2093 0.1549 1.3497
C58 C 0.1354(3) 0.1644(4) 1.2961(6)
H58 H 0.1106 0.1720 1.2906
H59 H 0.1402 0.1566 1.3465
H60 H 0.1412 0.1367 1.2658
C59 C 0.3502(4) 0.2388(6) 1.5116(6)
C60 C 0.32182(18) 0.2340(3) 1.4474(3)
C61 C 0.32991(15) 0.2079(3) 1.3840(4)
C62 C 0.30759(18) 0.2107(3) 1.3233(3)
C63 C 0.27719(16) 0.2396(3) 1.3260(3)
C64 C 0.26911(16) 0.2657(3) 1.3894(4)
C65 C 0.2914(2) 0.2629(3) 1.4500(3)
C66 C 0.2826(4) 0.2863(7) 1.5262(6)
H61 H 0.2613 0.3055 1.5222
H62 H 0.3019 0.3070 1.5412
H63 H 0.2792 0.2609 1.5618
C67 C 0.2364(4) 0.3005(6) 1.3918(7)
H64 H 0.2347 0.3154 1.4394
H65 H 0.2151 0.2820 1.3822
H66 H 0.2390 0.3255 1.3552
C68 C 0.3161(3) 0.1781(6) 1.2591(7)
H67 H 0.2990 0.1833 1.2209
H68 H 0.3154 0.1445 1.2744
H69 H 0.3394 0.1858 1.2410
C69 C 0.3637(3) 0.1773(6) 1.3825(7)
H70 H 0.3658 0.1615 1.3356
H71 H 0.3626 0.1529 1.4204
H72 H 0.3839 0.1982 1.3905
C70 C -0.0449(4) 0.2500 1.2500
O1 O -0.0050(2) 0.3177(2) 1.0533(4)
O2 O -0.0616(2) 0.3006(3) 1.0353(4)
O3 O -0.0332(2) 0.6749(3) 0.7954(5)
O4 O -0.0221(2) 0.6741(2) 0.6750(5)
O5 O -0.0605(2) 0.3063(3) 0.4467(4)
O6 O -0.00371(19) 0.2889(2) 0.4681(3)
O7 O 0.0728(3) 0.2777(6) 1.0322(6)
O8 O 0.0724(3) 0.2043(6) 1.0423(6)
O9 O 0.34890(18) 0.2504(3) 0.8104(4)
O10 O 0.08398(17) 0.2419(3) 1.1910(4)
O11 O 0.3572(2) 0.2007(4) 1.5444(5)
O12 O 0.3628(2) 0.2797(4) 1.5250(5)
O13 O -0.03104(16) 0.2555(2) 1.1888(4)
O14 O -0.0800(3) 0.2500 1.2500
O15 O -0.1035(2) 0.3370(3) 1.1753(5)
O16 O -0.1046(3) 0.1645(3) 1.1650(5)
N1 N -0.0933(5) 0.0908(6) 1.1040(11)
C71 C -0.1124(13) 0.1370(13) 1.112(2)
H73 H -0.1301 0.1458 1.0793
C72 C -0.0958(14) 0.0607(15) 1.036(2)
H74 H -0.1112 0.0767 1.0016
H75 H -0.1053 0.0290 1.0481
H76 H -0.0726 0.0570 1.0151
C73 C -0.0691(13) 0.0731(17) 1.165(2)
H77 H -0.0706 0.0953 1.2057
H78 H -0.0451 0.0720 1.1472
H79 H -0.0763 0.0410 1.1801
C33B C 0.0888(5) 0.2627(7) 0.4872(10)
C35B C 0.1140(2) 0.2620(3) 0.5489(3)
C36B C 0.10543(19) 0.2901(3) 0.6100(4)
C37B C 0.1268(2) 0.2884(3) 0.6722(3)
C38B C 0.15681(18) 0.2587(3) 0.6732(3)
C39B C 0.16541(18) 0.2305(3) 0.6121(4)
C40B C 0.1440(2) 0.2322(3) 0.5499(3)
C41B C 0.1545(5) 0.2061(6) 0.4777(8)
H37B H 0.1756 0.1870 0.4856
H38B H 0.1589 0.2302 0.4404
H39B H 0.1355 0.1850 0.4624
C42B C 0.1957(4) 0.1932(6) 0.6121(9)
H40B H 0.2086 0.1956 0.6575
H41B H 0.2114 0.1999 0.5718
H42B H 0.1861 0.1608 0.6071
C43B C 0.1174(3) 0.3215(6) 0.7356(6)
H43B H 0.0959 0.3388 0.7246
H44B H 0.1363 0.3445 0.7435
H45B H 0.1141 0.3021 0.7791
C44B C 0.0707(5) 0.3219(8) 0.6096(10)
H46B H 0.0591 0.3188 0.5629
H47B H 0.0767 0.3556 0.6180
H48B H 0.0550 0.3108 0.6477
C47B C 0.2757(3) 0.2081(4) 0.7733(6)
C48B C 0.2383(3) 0.2083(4) 0.7748(6)
C50B C 0.2193(3) 0.1627(5) 0.8019(8)
H49B H 0.1940 0.1679 0.8000
H50B H 0.2263 0.1560 0.8515
H51B H 0.2255 0.1354 0.7712
C51B C 0.2962(3) 0.1626(4) 0.7959(7)
H52B H 0.3212 0.1688 0.7917
H53B H 0.2897 0.1358 0.7645
H54B H 0.2905 0.1545 0.8458
O7B O 0.0728(3) 0.2223(6) 0.4678(6)
O8B O 0.0724(3) 0.2957(6) 0.4577(6)
O9B O 0.34890(18) 0.2496(3) 0.6896(4)
C54B C 0.1574(2) 0.2922(4) 1.2268(5)
C55B C 0.1947(2) 0.2912(4) 1.2255(5)
C57B C 0.2157(3) 0.3372(4) 1.1999(7)
H55B H 0.2408 0.3306 1.2022
H56B H 0.2102 0.3644 1.2314
H57B H 0.2093 0.3451 1.1503
C58B C 0.1354(3) 0.3356(4) 1.2039(6)
H58B H 0.1106 0.3280 1.2094
H59B H 0.1402 0.3434 1.1535
H60B H 0.1412 0.3633 1.2342
C59B C 0.3502(4) 0.2612(6) 0.9884(6)
C60B C 0.32182(18) 0.2660(3) 1.0526(3)
C61B C 0.32991(15) 0.2921(3) 1.1160(4)
C62B C 0.30759(18) 0.2893(3) 1.1767(3)
C63B C 0.27719(16) 0.2604(3) 1.1740(3)
C64B C 0.26911(16) 0.2343(3) 1.1106(4)
C65B C 0.2914(2) 0.2371(3) 1.0500(3)
C66B C 0.2826(4) 0.2137(7) 0.9738(6)
H61B H 0.2613 0.1945 0.9778
H62B H 0.3019 0.1930 0.9588
H63B H 0.2792 0.2391 0.9382
C67B C 0.2364(4) 0.1995(6) 1.1082(7)
H64B H 0.2347 0.1846 1.0606
H65B H 0.2151 0.2180 1.1178
H66B H 0.2390 0.1745 1.1448
C68B C 0.3161(3) 0.3219(6) 1.2409(7)
H67B H 0.2990 0.3167 1.2791
H68B H 0.3154 0.3555 1.2256
H69B H 0.3394 0.3142 1.2590
C69B C 0.3637(3) 0.3227(6) 1.1175(7)
H70B H 0.3658 0.3385 1.1644
H71B H 0.3626 0.3471 1.0796
H72B H 0.3839 0.3018 1.1095
O10B O 0.08398(17) 0.2581(3) 1.3090(4)
O11B O 0.3572(2) 0.2993(4) 0.9556(5)
O12B O 0.3628(2) 0.2203(4) 0.9750(5)
O13B O -0.03104(16) 0.2445(2) 1.3112(4)
Nd1B Nd -0.095642(14) 0.24840(2) 0.37844(3)
Nd2B Nd 0.026707(13) 0.244569(18) 0.37384(3)
B1B B -0.0320(3) 0.0625(4) 0.7557(6)
C1B C -0.0327(3) 0.1789(3) 0.4816(6)
C2B C -0.03303(16) 0.14883(19) 0.5520(3)
C3B C -0.05534(15) 0.1085(2) 0.5586(3)
C4B C -0.05434(15) 0.07992(18) 0.6218(3)
C5B C -0.03103(17) 0.0918(2) 0.6783(3)
C6B C -0.00873(15) 0.1321(2) 0.6717(3)
C7B C -0.00973(15) 0.16067(18) 0.6085(3)
C8B C 0.0121(3) 0.2074(4) 0.6054(6)
H1B H 0.0266 0.2098 0.6486
H2B H -0.0035 0.2352 0.6029
H3B H 0.0270 0.2068 0.5626
C9B C 0.0194(3) 0.1437(4) 0.7293(6)
H4B H 0.0170 0.1214 0.7698
H5B H 0.0162 0.1767 0.7465
H6B H 0.0426 0.1404 0.7080
C10B C -0.0819(3) 0.0384(4) 0.6338(6)
H7B H -0.0960 0.0345 0.5902
H8B H -0.0971 0.0467 0.6743
H9B H -0.0698 0.0082 0.6443
C11B C -0.0795(3) 0.0940(4) 0.4909(5)
H10B H -0.0767 0.1178 0.4526
H11B H -0.1039 0.0930 0.5060
H12B H -0.0726 0.0623 0.4730
C12B C -0.0277(3) -0.1537(4) 0.7656(7)
C13B C -0.02865(16) -0.09872(14) 0.7642(3)
C14B C -0.05557(14) -0.07338(19) 0.8002(3)
C15B C -0.05661(14) -0.02249(19) 0.7973(3)
C16B C -0.03074(17) 0.00305(14) 0.7585(3)
C17B C -0.00382(15) -0.02229(19) 0.7226(3)
C18B C -0.00278(15) -0.07318(19) 0.7254(3)
C19B C 0.0278(3) -0.1011(4) 0.6880(8)
H13B H 0.0432 -0.0782 0.6638
H14B H 0.0182 -0.1235 0.6526
H15B H 0.0410 -0.1190 0.7243
C20B C 0.0262(3) 0.0048(4) 0.6833(7)
H16B H 0.0423 -0.0186 0.6620
H17B H 0.0388 0.0249 0.7179
H18B H 0.0165 0.0251 0.6453
C21B C -0.0869(3) 0.0038(4) 0.8362(7)
H19B H -0.0843 0.0386 0.8297
H20B H -0.0862 -0.0038 0.8877
H21B H -0.1092 -0.0067 0.8159
C22B C -0.0836(3) -0.1013(4) 0.8435(6)
H22B H -0.0791 -0.1359 0.8399
H23B H -0.1068 -0.0942 0.8238
H24B H -0.0828 -0.0915 0.8940
C23B C -0.0325(3) 0.1893(3) 1.0174(6)
C24B C -0.03239(16) 0.15563(19) 0.9524(3)
C25B C -0.01077(15) 0.1143(2) 0.9506(3)
C26B C -0.01140(16) 0.08349(18) 0.8898(3)
C27B C -0.03364(17) 0.09394(19) 0.8310(3)
C28B C -0.05526(16) 0.1352(2) 0.8328(3)
C29B C -0.05464(16) 0.16608(18) 0.8935(3)
C30B C -0.0757(3) 0.2142(4) 0.8914(6)
H25B H -0.0896 0.2155 0.8472
H26B H -0.0595 0.2414 0.8924
H27B H -0.0912 0.2158 0.9332
C31B C -0.0834(3) 0.1455(5) 0.7738(6)
H28B H -0.0953 0.1757 0.7849
H29B H -0.1003 0.1193 0.7728
H30B H -0.0720 0.1481 0.7267
C32B C 0.0153(3) 0.0401(4) 0.8852(6)
H31B H 0.0115 0.0225 0.8402
H32B H 0.0117 0.0185 0.9261
H33B H 0.0392 0.0526 0.8863
C34B C 0.0114(3) 0.1023(4) 1.0206(5)
H34B H 0.0251 0.0732 1.0123
H35B H -0.0043 0.0972 1.0613
H36B H 0.0271 0.1291 1.0312
O1B O -0.0050(2) 0.1823(2) 0.4467(4)
O2B O -0.0616(2) 0.1994(3) 0.4647(4)
O3B O -0.0332(2) -0.1749(3) 0.7046(5)
O4B O -0.0221(2) -0.1741(2) 0.8250(5)
O5B O -0.0605(2) 0.1937(3) 1.0533(4)
O6B O -0.00371(19) 0.2111(2) 1.0319(3)
O15B O -0.1035(2) 0.1630(3) 0.3247(5)
O16B O -0.1046(3) 0.3355(3) 0.3350(5)
N1B N -0.0933(5) 0.4092(6) 0.3960(11)
C71B C -0.1124(13) 0.3630(13) 0.388(2)
H73B H -0.1301 0.3542 0.4207
C72B C -0.0958(14) 0.4393(15) 0.464(2)
H74B H -0.1112 0.4233 0.4984
H75B H -0.1053 0.4710 0.4519
H76B H -0.0726 0.4430 0.4849
C73B C -0.0691(13) 0.4269(17) 0.335(2)
H77B H -0.0706 0.4047 0.2943
H78B H -0.0451 0.4280 0.3528
H79B H -0.0763 0.4590 0.3199
Nd1B_2 Nd -0.095642(14) 0.24840(2) 1.37844(3)
Nd1E Nd 0.404358(14) 0.25160(2) 0.87844(3)
Nd1G Nd 0.404358(14) 0.24840(2) 0.62156(3)
Nd1G_2 Nd 0.404358(14) 0.24840(2) 1.62156(3)
Nd2B_2 Nd 0.026707(13) 0.244569(18) 1.37384(3)
Nd2D Nd -0.026707(13) -0.255431(18) 0.87384(3)
Nd2D_2 Nd -0.026707(13) 0.744569(18) 0.87384(3)
Nd2F Nd -0.026707(13) -0.244569(18) 0.62616(3)
Nd2F_2 Nd -0.026707(13) 0.755431(18) 0.62616(3)
O3D O 0.0332(2) 0.3251(3) 1.2046(5)
O3F O 0.0332(2) 0.1749(3) 0.2954(5)
O4D O 0.0221(2) 0.3259(2) 0.3250(5)
O4F O 0.0221(2) 0.1741(2) 1.1750(5)
O9E O -0.15110(18) 0.2504(3) 1.1896(4)
O9G O -0.15110(18) 0.2496(3) 0.3104(4)
O10B_2 O 0.08398(17) 0.2581(3) 0.3090(4)
O11E O -0.1428(2) 0.2007(4) 0.4556(5)
O11G O -0.1428(2) 0.2993(4) 1.0444(5)
O12E O -0.1372(2) 0.2797(4) 0.4750(5)
O12G O -0.1372(2) 0.2203(4) 1.0250(5)
O13B_2 O -0.03104(16) 0.2445(2) 0.3112(4)
O14_2 O -0.0800(3) 0.2500 0.2500
loop_
_geom_bond_atom_site_label_1
_geom_bond_atom_site_label_2
_geom_bond_site_symmetry_1
_geom_bond_site_symmetry_2
Nd1 O2 1_555 1_555
Nd2 O1 1_555 1_555
B1 C5 1_555 1_555
B2 C38 1_555 1_555
B3 C56 1_555 1_555
C1 C2 1_555 1_555
C2 C3 1_555 1_555
C3 C4 1_555 1_555
C4 C5 1_555 1_555
C5 C6 1_555 1_555
C6 C7 1_555 1_555
C7 C2 1_555 1_555
C8 C7 1_555 1_555
H1 C8 1_555 1_555
H2 C8 1_555 1_555
H3 C8 1_555 1_555
C9 C6 1_555 1_555
H4 C9 1_555 1_555
H5 C9 1_555 1_555
H6 C9 1_555 1_555
C10 C4 1_555 1_555
H7 C10 1_555 1_555
H8 C10 1_555 1_555
H9 C10 1_555 1_555
C11 C3 1_555 1_555
H10 C11 1_555 1_555
H11 C11 1_555 1_555
H12 C11 1_555 1_555
C12 C13 1_555 1_555
C13 C14 1_555 1_555
C14 C15 1_555 1_555
C15 C16 1_555 1_555
C16 B1 1_555 1_555
C17 C16 1_555 1_555
C18 C13 1_555 1_555
C19 C18 1_555 1_555
H13 C19 1_555 1_555
H14 C19 1_555 1_555
H15 C19 1_555 1_555
C20 C17 1_555 1_555
H16 C20 1_555 1_555
H17 C20 1_555 1_555
H18 C20 1_555 1_555
C21 C15 1_555 1_555
H19 C21 1_555 1_555
H20 C21 1_555 1_555
H21 C21 1_555 1_555
C22 C14 1_555 1_555
H22 C22 1_555 1_555
H23 C22 1_555 1_555
H24 C22 1_555 1_555
C23 C24 1_555 1_555
C24 C25 1_555 1_555
C25 C26 1_555 1_555
C26 C27 1_555 1_555
C27 B1 1_555 1_555
C28 C27 1_555 1_555
C29 C24 1_555 1_555
C30 C29 1_555 1_555
H25 C30 1_555 1_555
H26 C30 1_555 1_555
H27 C30 1_555 1_555
C31 C28 1_555 1_555
H28 C31 1_555 1_555
H29 C31 1_555 1_555
H30 C31 1_555 1_555
C32 C26 1_555 1_555
H31 C32 1_555 1_555
H32 C32 1_555 1_555
H33 C32 1_555 1_555
C33 C35 1_555 1_555
C34 C25 1_555 1_555
H34 C34 1_555 1_555
H35 C34 1_555 1_555
H36 C34 1_555 1_555
C35 C36 1_555 1_555
C36 C37 1_555 1_555
C37 C38 1_555 1_555
C38 C39 1_555 1_555
C39 C40 1_555 1_555
C40 C35 1_555 1_555
C41 C40 1_555 1_555
H37 C41 1_555 1_555
H38 C41 1_555 1_555
H39 C41 1_555 1_555
C42 C39 1_555 1_555
H40 C42 1_555 1_555
H41 C42 1_555 1_555
H42 C42 1_555 1_555
C43 C37 1_555 1_555
H43 C43 1_555 1_555
H44 C43 1_555 1_555
H45 C43 1_555 1_555
C44 C36 1_555 1_555
H46 C44 1_555 1_555
H47 C44 1_555 1_555
H48 C44 1_555 1_555
C45 C46 1_555 1_555
C46 C47 1_555 1_555
C47 C48 1_555 1_555
C48 C49 1_555 1_555
C49 B2 1_555 1_555
C50 C48 1_555 1_555
H49 C50 1_555 1_555
H50 C50 1_555 1_555
H51 C50 1_555 1_555
C51 C47 1_555 1_555
H52 C51 1_555 1_555
H53 C51 1_555 1_555
H54 C51 1_555 1_555
C52 C53 1_555 1_555
C53 C54 1_555 1_555
C54 C55 1_555 1_555
C55 C56 1_555 1_555
C56 C55B 1_555 1_555
C57 C55 1_555 1_555
H55 C57 1_555 1_555
H56 C57 1_555 1_555
H57 C57 1_555 1_555
C58 C54 1_555 1_555
H58 C58 1_555 1_555
H59 C58 1_555 1_555
H60 C58 1_555 1_555
C59 C60 1_555 1_555
C60 C61 1_555 1_555
C61 C62 1_555 1_555
C62 C63 1_555 1_555
C63 B3 1_555 1_555
C64 C63 1_555 1_555
C65 C60 1_555 1_555
C66 C65 1_555 1_555
H61 C66 1_555 1_555
H62 C66 1_555 1_555
H63 C66 1_555 1_555
C67 C64 1_555 1_555
H64 C67 1_555 1_555
H65 C67 1_555 1_555
H66 C67 1_555 1_555
C68 C62 1_555 1_555
H67 C68 1_555 1_555
H68 C68 1_555 1_555
H69 C68 1_555 1_555
C69 C61 1_555 1_555
H70 C69 1_555 1_555
H71 C69 1_555 1_555
H72 C69 1_555 1_555
C70 O13 1_555 1_555
O1 C1 1_555 1_555
O2 C1 1_555 1_555
O3 C12 1_555 1_555
O4 C12 1_555 1_555
O5 C23 1_555 1_555
O6 C23 1_555 1_555
O7 Nd2 1_555 1_555
O8 Nd2 1_555 1_555
O9 C45 1_555 1_555
O10 Nd2 1_555 1_555
O11 C59 1_555 1_555
O12 C59 1_555 1_555
O13 Nd1 1_555 1_555
O14 Nd1 1_555 1_555
O15 Nd1 1_555 1_555
O16 Nd1 1_555 1_555
N1 C71 1_555 1_555
C71 O16 1_555 1_555
H73 C71 1_555 1_555
C72 N1 1_555 1_555
H74 C72 1_555 1_555
H75 C72 1_555 1_555
H76 C72 1_555 1_555
C73 N1 1_555 1_555
H77 C73 1_555 1_555
H78 C73 1_555 1_555
H79 C73 1_555 1_555
N2 C74 1_555 1_555
C75 N2 1_555 1_555
C33B C35B 1_555 1_555
C35B C36B 1_555 1_555
C36B C37B 1_555 1_555
C37B C38B 1_555 1_555
C38B B2 1_555 1_555
C39B C38B 1_555 1_555
C40B C35B 1_555 1_555
C41B C40B 1_555 1_555
H37B C41B 1_555 1_555
H38B C41B 1_555 1_555
H39B C41B 1_555 1_555
C42B C39B 1_555 1_555
H40B C42B 1_555 1_555
H41B C42B 1_555 1_555
H42B C42B 1_555 1_555
C43B C37B 1_555 1_555
H43B C43B 1_555 1_555
H44B C43B 1_555 1_555
H45B C43B 1_555 1_555
C44B C36B 1_555 1_555
H46B C44B 1_555 1_555
H47B C44B 1_555 1_555
H48B C44B 1_555 1_555
C47B C46 1_555 1_555
C48B C49 1_555 1_555
C50B C48B 1_555 1_555
H49B C50B 1_555 1_555
H50B C50B 1_555 1_555
H51B C50B 1_555 1_555
C51B C47B 1_555 1_555
H52B C51B 1_555 1_555
H53B C51B 1_555 1_555
H54B C51B 1_555 1_555
O7B C33B 1_555 1_555
O8B C33B 1_555 1_555
O9B C45 1_555 1_555
C54B C53 1_555 1_555
C55B C54B 1_555 1_555
C57B C55B 1_555 1_555
H55B C57B 1_555 1_555
H56B C57B 1_555 1_555
H57B C57B 1_555 1_555
C58B C54B 1_555 1_555
H58B C58B 1_555 1_555
H59B C58B 1_555 1_555
H60B C58B 1_555 1_555
C59B C60B 1_555 1_555
C60B C61B 1_555 1_555
C61B C62B 1_555 1_555
C62B C63B 1_555 1_555
C63B B3 1_555 1_555
C64B C63B 1_555 1_555
C65B C60B 1_555 1_555
C66B C65B 1_555 1_555
H61B C66B 1_555 1_555
H62B C66B 1_555 1_555
H63B C66B 1_555 1_555
C67B C64B 1_555 1_555
H64B C67B 1_555 1_555
H65B C67B 1_555 1_555
H66B C67B 1_555 1_555
C68B C62B 1_555 1_555
H67B C68B 1_555 1_555
H68B C68B 1_555 1_555
H69B C68B 1_555 1_555
C69B C61B 1_555 1_555
H70B C69B 1_555 1_555
H71B C69B 1_555 1_555
H72B C69B 1_555 1_555
O10B C52 1_555 1_555
O11B C59B 1_555 1_555
O12B C59B 1_555 1_555
O13B C70 1_555 1_555
Nd1B O5 1_555 1_555
Nd2B O6 1_555 1_555
B1B C5B 1_555 1_555
C1B C2B 1_555 1_555
C2B C3B 1_555 1_555
C3B C4B 1_555 1_555
C4B C5B 1_555 1_555
C5B C6B 1_555 1_555
C6B C7B 1_555 1_555
C7B C2B 1_555 1_555
C8B C7B 1_555 1_555
H1B C8B 1_555 1_555
H2B C8B 1_555 1_555
H3B C8B 1_555 1_555
C9B C6B 1_555 1_555
H4B C9B 1_555 1_555
H5B C9B 1_555 1_555
H6B C9B 1_555 1_555
C10B C4B 1_555 1_555
H7B C10B 1_555 1_555
H8B C10B 1_555 1_555
H9B C10B 1_555 1_555
C11B C3B 1_555 1_555
H10B C11B 1_555 1_555
H11B C11B 1_555 1_555
H12B C11B 1_555 1_555
C12B C13B 1_555 1_555
C13B C14B 1_555 1_555
C14B C15B 1_555 1_555
C15B C16B 1_555 1_555
C16B B1B 1_555 1_555
C17B C16B 1_555 1_555
C18B C13B 1_555 1_555
C19B C18B 1_555 1_555
H13B C19B 1_555 1_555
H14B C19B 1_555 1_555
H15B C19B 1_555 1_555
C20B C17B 1_555 1_555
H16B C20B 1_555 1_555
H17B C20B 1_555 1_555
H18B C20B 1_555 1_555
C21B C15B 1_555 1_555
H19B C21B 1_555 1_555
H20B C21B 1_555 1_555
H21B C21B 1_555 1_555
C22B C14B 1_555 1_555
H22B C22B 1_555 1_555
H23B C22B 1_555 1_555
H24B C22B 1_555 1_555
C23B C24B 1_555 1_555
C24B C25B 1_555 1_555
C25B C26B 1_555 1_555
C26B C27B 1_555 1_555
C27B B1B 1_555 1_555
C28B C27B 1_555 1_555
C29B C24B 1_555 1_555
C30B C29B 1_555 1_555
H25B C30B 1_555 1_555
H26B C30B 1_555 1_555
H27B C30B 1_555 1_555
C31B C28B 1_555 1_555
H28B C31B 1_555 1_555
H29B C31B 1_555 1_555
H30B C31B 1_555 1_555
C32B C26B 1_555 1_555
H31B C32B 1_555 1_555
H32B C32B 1_555 1_555
H33B C32B 1_555 1_555
C34B C25B 1_555 1_555
H34B C34B 1_555 1_555
H35B C34B 1_555 1_555
H36B C34B 1_555 1_555
O1B Nd2B 1_555 1_555
O2B Nd1B 1_555 1_555
O3B C12B 1_555 1_555
O4B C12B 1_555 1_555
O5B Nd1 1_555 1_555
O6B Nd2 1_555 1_555
O15B Nd1B 1_555 1_555
O16B Nd1B 1_555 1_555
N1B C71B 1_555 1_555
C71B O16B 1_555 1_555
H73B C71B 1_555 1_555
C72B N1B 1_555 1_555
H74B C72B 1_555 1_555
H75B C72B 1_555 1_555
H76B C72B 1_555 1_555
C73B N1B 1_555 1_555
H77B C73B 1_555 1_555
H78B C73B 1_555 1_555
H79B C73B 1_555 1_555
Nd1B_2 O14 1_555 1_555
Nd1E O9 1_555 1_555
Nd1G O9B 1_555 1_555
Nd1G_2 O11 1_555 1_555
Nd2B_2 O10B 1_555 1_555
Nd2D O4B 1_555 1_555
Nd2D_2 O3 1_555 1_555
Nd2F O3B 1_555 1_555
Nd2F_2 O4 1_555 1_555
O3D Nd2 1_555 1_555
O3F Nd2B 1_555 1_555
O4D Nd2B 1_555 1_555
O4F Nd2 1_555 1_555
O9E Nd1 1_555 1_555
O9G Nd1B 1_555 1_555
O10B_2 Nd2B 1_555 1_555
O11E Nd1B 1_555 1_555
O11G Nd1 1_555 1_555
O12E Nd1B 1_555 1_555
O12G Nd1 1_555 1_555
O13B_2 Nd1B 1_555 1_555
O14_2 Nd1B 1_555 1_555
Nd2 O13 1_555 1_555
C17 C18 1_555 1_555
C28 C29 1_555 1_555
C33 O7 1_555 1_555
C33 O8 1_555 1_555
C52 O10 1_555 1_555
C64 C65 1_555 1_555
C70 O14 1_555 1_555
O12 Nd1G_2 1_555 1_555
C39B C40B 1_555 1_555
C47B C48B 1_555 1_555
O7B Nd2B 1_555 1_555
O8B Nd2B 1_555 1_555
C64B C65B 1_555 1_555
O11B Nd1E 1_555 1_555
O12B Nd1E 1_555 1_555
O13B Nd1B_2 1_555 1_555
O13B Nd2B_2 1_555 1_555
Nd2B O13B_2 1_555 1_555
C1B O1B 1_555 1_555
C1B O2B 1_555 1_555
C17B C18B 1_555 1_555
C23B O5B 1_555 1_555
C23B O6B 1_555 1_555
C28B C29B 1_555 1_555

#END
