
#######################################################################
#
#                 Cambridge Crystallographic Data Centre
#                                CCDC 
#
#######################################################################
#
# If this CIF has been generated from an entry in the Cambridge 
# Structural Database, then it will include bibliographic, chemical, 
# crystal, experimental, refinement or atomic coordinate data resulting 
# from the CCDC's data processing and validation procedures.
#
#######################################################################

data_CIMTEY
_symmetry_cell_setting           monoclinic
_symmetry_space_group_name_H-M   'P 21/n'
_symmetry_Int_Tables_number      14
_space_group_name_Hall           '-P 2yn'
loop_
_symmetry_equiv_pos_site_id
_symmetry_equiv_pos_as_xyz
1 x,y,z
2 1/2-x,1/2+y,1/2-z
3 -x,-y,-z
4 1/2+x,1/2-y,1/2+z
_cell_length_a                   12.8075(11)
_cell_length_b                   19.2227(18)
_cell_length_c                   14.3397(15)
_cell_angle_alpha                90
_cell_angle_beta                 94.950(8)
_cell_angle_gamma                90
_cell_volume                     3517.19
loop_
_atom_site_label
_atom_site_type_symbol
_atom_site_fract_x
_atom_site_fract_y
_atom_site_fract_z
Sr1 Sr 0.5000 0.0000 0.5000
O1 O 0.31234(13) -0.00302(8) 0.42788(9)
O2 O 0.37539(13) 0.03918(8) 0.61975(9)
O3 O 0.45072(12) 0.12303(7) 0.45832(9)
O4 O 0.23095(12) 0.12277(8) 0.50123(10)
Li1 Li 0.2448(3) 0.0249(2) 0.5373(2)
Li2 Li 0.3112(4) 0.0986(2) 0.3975(3)
Li3 Li 0.3654(4) 0.13557(19) 0.5695(2)
O5 O 0.25680(13) 0.11964(9) 0.27167(10)
O6 O 0.11623(15) -0.02316(11) 0.57486(13)
O7 O 0.40762(16) 0.21723(9) 0.64255(12)
O8 O 0.40387(18) 0.37444(12) 0.62200(18)
C1 C 0.29519(18) -0.04731(11) 0.35710(13)
C2 C 0.2209(2) -0.10015(13) 0.35707(16)
H1 H 0.1831 -0.1062 0.4099
C3 C 0.2013(2) -0.14420(14) 0.2806(2)
H2 H 0.1477 -0.1777 0.2807
C4 C 0.2598(3) -0.13900(16) 0.20514(19)
H3 H 0.2485 -0.1699 0.1545
C5 C 0.3341(2) -0.08868(15) 0.20430(17)
H4 H 0.3745 -0.0848 0.1529
C6 C 0.35049(19) -0.04346(12) 0.27832(15)
H5 H 0.4013 -0.0084 0.2754
C7 C 0.38132(17) 0.02409(12) 0.71157(13)
C8 C 0.40559(19) -0.04132(14) 0.74565(16)
H6 H 0.4179 -0.0771 0.7033
C9 C 0.4125(2) -0.05624(18) 0.84109(18)
H7 H 0.4298 -0.1014 0.8624
C10 C 0.3936(3) -0.0043(2) 0.90436(18)
H8 H 0.3987 -0.0134 0.9690
C11 C 0.3677(3) 0.0599(2) 0.87141(17)
H9 H 0.3546 0.0954 0.9139
C12 C 0.3599(2) 0.07440(16) 0.77727(15)
H10 H 0.3398 0.1192 0.7567
C13 C 0.50772(18) 0.17672(11) 0.43433(13)
C14 C 0.4634(2) 0.23940(12) 0.40225(17)
H11 H 0.3899 0.2432 0.3955
C15 C 0.5215(3) 0.29521(15) 0.3803(2)
H12 H 0.4881 0.3368 0.3602
C16 C 0.6290(3) 0.29096(16) 0.38765(19)
H13 H 0.6695 0.3290 0.3705
C17 C 0.6762(3) 0.23156(17) 0.4197(2)
H14 H 0.7497 0.2291 0.4267
C18 C 0.6181(2) 0.17446(15) 0.44234(18)
H15 H 0.6526 0.1335 0.4634
C19 C 0.15628(18) 0.16964(11) 0.51025(14)
C20 C 0.1086(2) 0.17651(15) 0.59344(16)
H16 H 0.1269 0.1458 0.6432
C21 C 0.0358(3) 0.22714(17) 0.6039(2)
H17 H 0.0082 0.2328 0.6621
C22 C 0.0019(2) 0.27024(17) 0.5302(2)
H18 H -0.0504 0.3037 0.5372
C23 C 0.0457(2) 0.26344(15) 0.4471(2)
H19 H 0.0230 0.2922 0.3963
C24 C 0.1227(2) 0.21477(13) 0.43727(16)
H20 H 0.1535 0.2118 0.3802
C25 C 0.1290(3) -0.0667(2) 0.6542(3)
H21 H 0.0873 -0.0490 0.7023
H22 H 0.2023 -0.0676 0.6778
H23 H 0.1062 -0.1135 0.6370
C26 C 0.0068(2) -0.01394(19) 0.5468(2)
H24 H -0.0241 0.0179 0.5902
H25 H -0.0294 -0.0588 0.5489
C27 C 0.3098(3) 0.15066(18) 0.19884(19)
H26 H 0.3857 0.1447 0.2112
H27 H 0.2943 0.2005 0.1948
C28 C 0.2732(3) 0.1165(3) 0.1128(2)
H28 H 0.2625 0.1507 0.0622
H29 H 0.3254 0.0826 0.0955
C29 C 0.1773(3) 0.0822(2) 0.1260(2)
H30 H 0.1807 0.0331 0.1081
H31 H 0.1190 0.1043 0.0881
C30 C 0.1626(2) 0.08914(16) 0.23006(18)
H32 H 0.1023 0.1189 0.2395
H33 H 0.1512 0.0434 0.2576
C31 C 0.5163(2) 0.23097(16) 0.6583(2)
H34 H 0.5356 0.2671 0.6158
H35 H 0.5554 0.1889 0.6475
H36 H 0.5324 0.2463 0.7224
C32 C 0.3439(3) 0.26748(15) 0.6785(3)
H37 H 0.3783 0.2840 0.7381
H38 H 0.2779 0.2454 0.6920
C33 C 0.3191(3) 0.32849(19) 0.6176(3)
H39 H 0.3030 0.3130 0.5529
H40 H 0.2573 0.3524 0.6377
C34 C 0.3842(4) 0.4339(2) 0.5635(4)
H41 H 0.3637 0.4188 0.5000
H42 H 0.4472 0.4619 0.5643
H43 H 0.3282 0.4612 0.5865
O1B O 0.68766(13) 0.00302(8) 0.57212(9)
O2B O 0.62461(13) -0.03918(8) 0.38025(9)
O3B O 0.54928(12) -0.12303(7) 0.54168(9)
O4B O 0.76905(12) -0.12277(8) 0.49877(10)
Li1B Li 0.7552(3) -0.0249(2) 0.4627(2)
Li1B_2 Li -0.2448(3) -0.0249(2) 0.4627(2)
Li2B Li 0.6888(4) -0.0986(2) 0.6025(3)
Li3B Li 0.6346(4) -0.13557(19) 0.4305(2)
O5B O 0.74320(13) -0.11964(9) 0.72833(10)
O6B O -0.11623(15) 0.02316(11) 0.42514(13)
O6B_2 O 0.88377(15) 0.02316(11) 0.42514(13)
O7B O 0.59238(16) -0.21723(9) 0.35745(12)
O8B O 0.59613(18) -0.37444(12) 0.37800(18)
C1B C 0.70481(18) 0.04731(11) 0.64290(13)
C2B C 0.7791(2) 0.10015(13) 0.64293(16)
H1B H 0.8169 0.1062 0.5901
C3B C 0.7987(2) 0.14420(14) 0.7194(2)
H2B H 0.8523 0.1777 0.7193
C4B C 0.7402(3) 0.13900(16) 0.79486(19)
H3B H 0.7515 0.1699 0.8455
C5B C 0.6659(2) 0.08868(15) 0.79570(17)
H4B H 0.6255 0.0848 0.8471
C6B C 0.64951(19) 0.04346(12) 0.72168(15)
H5B H 0.5987 0.0084 0.7246
C7B C 0.61868(17) -0.02409(12) 0.28843(13)
C8B C 0.59441(19) 0.04132(14) 0.25435(16)
H6B H 0.5821 0.0771 0.2967
C9B C 0.5875(2) 0.05624(18) 0.15891(18)
H7B H 0.5702 0.1014 0.1376
C10B C 0.6064(3) 0.0043(2) 0.09564(18)
H8B H 0.6013 0.0134 0.0310
C11B C 0.6323(3) -0.0599(2) 0.12859(17)
H9B H 0.6454 -0.0954 0.0861
C12B C 0.6401(2) -0.07440(16) 0.22273(15)
H10B H 0.6602 -0.1192 0.2433
C13B C 0.49228(18) -0.17672(11) 0.56567(13)
C14B C 0.5366(2) -0.23940(12) 0.59775(17)
H11B H 0.6101 -0.2432 0.6045
C15B C 0.4785(3) -0.29521(15) 0.6197(2)
H12B H 0.5119 -0.3368 0.6398
C16B C 0.3710(3) -0.29096(16) 0.61235(19)
H13B H 0.3305 -0.3290 0.6295
C17B C 0.3238(3) -0.23156(17) 0.5803(2)
H14B H 0.2503 -0.2291 0.5733
C18B C 0.3819(2) -0.17446(15) 0.55766(18)
H15B H 0.3474 -0.1335 0.5366
C19B C 0.84372(18) -0.16964(11) 0.48975(14)
C20B C 0.8914(2) -0.17651(15) 0.40656(16)
H16B H 0.8731 -0.1458 0.3568
C21B C 0.9642(3) -0.22714(17) 0.3961(2)
H17B H 0.9918 -0.2328 0.3379
C22B C 0.9981(2) -0.27024(17) 0.4698(2)
H18B H 1.0504 -0.3037 0.4628
C23B C 0.9543(2) -0.26344(15) 0.5529(2)
H19B H 0.9770 -0.2922 0.6037
C24B C 0.8773(2) -0.21477(13) 0.56273(16)
H20B H 0.8465 -0.2118 0.6198
C25B C -0.1290(3) 0.0667(2) 0.3458(3)
H21B H -0.0873 0.0490 0.2977
H22B H -0.2023 0.0676 0.3222
H23B H -0.1062 0.1135 0.3630
C26B C -0.0068(2) 0.01394(19) 0.4532(2)
H24B H 0.0241 -0.0179 0.4098
H25B H 0.0294 0.0588 0.4511
C27B C 0.6902(3) -0.15066(18) 0.80116(19)
H26B H 0.6143 -0.1447 0.7888
H27B H 0.7057 -0.2005 0.8052
C28B C 0.7268(3) -0.1165(3) 0.8872(2)
H28B H 0.7375 -0.1507 0.9378
H29B H 0.6746 -0.0826 0.9045
C29B C 0.8227(3) -0.0822(2) 0.8740(2)
H30B H 0.8193 -0.0331 0.8919
H31B H 0.8810 -0.1043 0.9119
C30B C 0.8374(2) -0.08914(16) 0.76994(18)
H32B H 0.8977 -0.1189 0.7605
H33B H 0.8488 -0.0434 0.7424
C31B C 0.4837(2) -0.23097(16) 0.3417(2)
H34B H 0.4644 -0.2671 0.3842
H35B H 0.4446 -0.1889 0.3525
H36B H 0.4676 -0.2463 0.2776
C32B C 0.6561(3) -0.26748(15) 0.3215(3)
H37B H 0.6217 -0.2840 0.2619
H38B H 0.7221 -0.2454 0.3080
C33B C 0.6809(3) -0.32849(19) 0.3824(3)
H39B H 0.6970 -0.3130 0.4471
H40B H 0.7427 -0.3524 0.3623
C34B C 0.6158(4) -0.4339(2) 0.4365(4)
H41B H 0.6363 -0.4188 0.5000
H42B H 0.5528 -0.4619 0.4357
H43B H 0.6718 -0.4612 0.4135
loop_
_geom_bond_atom_site_label_1
_geom_bond_atom_site_label_2
_geom_bond_site_symmetry_1
_geom_bond_site_symmetry_2
Sr1 O1 1_555 1_555
O1 Li1 1_555 1_555
O2 Sr1 1_555 1_555
O3 Sr1 1_555 1_555
O4 Li1 1_555 1_555
Li1 O2 1_555 1_555
Li2 O1 1_555 1_555
Li3 O2 1_555 1_555
O5 Li2 1_555 1_555
O6 Li1 1_555 1_555
O7 Li3 1_555 1_555
O8 C33 1_555 1_555
C1 O1 1_555 1_555
C2 C1 1_555 1_555
H1 C2 1_555 1_555
C3 C2 1_555 1_555
H2 C3 1_555 1_555
C4 C3 1_555 1_555
H3 C4 1_555 1_555
C5 C4 1_555 1_555
H4 C5 1_555 1_555
C6 C1 1_555 1_555
H5 C6 1_555 1_555
C7 O2 1_555 1_555
C8 C7 1_555 1_555
H6 C8 1_555 1_555
C9 C8 1_555 1_555
H7 C9 1_555 1_555
C10 C9 1_555 1_555
H8 C10 1_555 1_555
C11 C10 1_555 1_555
H9 C11 1_555 1_555
C12 C7 1_555 1_555
H10 C12 1_555 1_555
C13 O3 1_555 1_555
C14 C13 1_555 1_555
H11 C14 1_555 1_555
C15 C14 1_555 1_555
H12 C15 1_555 1_555
C16 C15 1_555 1_555
H13 C16 1_555 1_555
C17 C16 1_555 1_555
H14 C17 1_555 1_555
C18 C13 1_555 1_555
H15 C18 1_555 1_555
C19 O4 1_555 1_555
C20 C19 1_555 1_555
H16 C20 1_555 1_555
C21 C20 1_555 1_555
H17 C21 1_555 1_555
C22 C21 1_555 1_555
H18 C22 1_555 1_555
C23 C22 1_555 1_555
H19 C23 1_555 1_555
C24 C19 1_555 1_555
H20 C24 1_555 1_555
C25 O6 1_555 1_555
H21 C25 1_555 1_555
H22 C25 1_555 1_555
H23 C25 1_555 1_555
C26 O6 1_555 1_555
H24 C26 1_555 1_555
H25 C26 1_555 1_555
C27 O5 1_555 1_555
H26 C27 1_555 1_555
H27 C27 1_555 1_555
C28 C27 1_555 1_555
H28 C28 1_555 1_555
H29 C28 1_555 1_555
C29 C28 1_555 1_555
H30 C29 1_555 1_555
H31 C29 1_555 1_555
C30 O5 1_555 1_555
H32 C30 1_555 1_555
H33 C30 1_555 1_555
C31 O7 1_555 1_555
H34 C31 1_555 1_555
H35 C31 1_555 1_555
H36 C31 1_555 1_555
C32 O7 1_555 1_555
H37 C32 1_555 1_555
H38 C32 1_555 1_555
C33 C32 1_555 1_555
H39 C33 1_555 1_555
H40 C33 1_555 1_555
C34 O8 1_555 1_555
H41 C34 1_555 1_555
H42 C34 1_555 1_555
H43 C34 1_555 1_555
O1B Sr1 1_555 1_555
O2B Sr1 1_555 1_555
O3B Sr1 1_555 1_555
O4B Li1B 1_555 1_555
Li1B O1B 1_555 1_555
Li1B_2 O6B 1_555 1_555
Li2B O1B 1_555 1_555
Li3B O2B 1_555 1_555
O5B Li2B 1_555 1_555
O6B C25B 1_555 1_555
O6B_2 Li1B 1_555 1_555
O7B Li3B 1_555 1_555
O8B C33B 1_555 1_555
C1B O1B 1_555 1_555
C2B C1B 1_555 1_555
H1B C2B 1_555 1_555
C3B C2B 1_555 1_555
H2B C3B 1_555 1_555
C4B C3B 1_555 1_555
H3B C4B 1_555 1_555
C5B C4B 1_555 1_555
H4B C5B 1_555 1_555
C6B C1B 1_555 1_555
H5B C6B 1_555 1_555
C7B O2B 1_555 1_555
C8B C7B 1_555 1_555
H6B C8B 1_555 1_555
C9B C8B 1_555 1_555
H7B C9B 1_555 1_555
C10B C9B 1_555 1_555
H8B C10B 1_555 1_555
C11B C10B 1_555 1_555
H9B C11B 1_555 1_555
C12B C7B 1_555 1_555
H10B C12B 1_555 1_555
C13B O3B 1_555 1_555
C14B C13B 1_555 1_555
H11B C14B 1_555 1_555
C15B C14B 1_555 1_555
H12B C15B 1_555 1_555
C16B C15B 1_555 1_555
H13B C16B 1_555 1_555
C17B C16B 1_555 1_555
H14B C17B 1_555 1_555
C18B C13B 1_555 1_555
H15B C18B 1_555 1_555
C19B O4B 1_555 1_555
C20B C19B 1_555 1_555
H16B C20B 1_555 1_555
C21B C20B 1_555 1_555
H17B C21B 1_555 1_555
C22B C21B 1_555 1_555
H18B C22B 1_555 1_555
C23B C22B 1_555 1_555
H19B C23B 1_555 1_555
C24B C19B 1_555 1_555
H20B C24B 1_555 1_555
C25B H21B 1_555 1_555
H22B C25B 1_555 1_555
H23B C25B 1_555 1_555
C26B C26 1_555 1_555
H24B C26B 1_555 1_555
H25B C26B 1_555 1_555
C27B O5B 1_555 1_555
H26B C27B 1_555 1_555
H27B C27B 1_555 1_555
C28B C27B 1_555 1_555
H28B C28B 1_555 1_555
H29B C28B 1_555 1_555
C29B C28B 1_555 1_555
H30B C29B 1_555 1_555
H31B C29B 1_555 1_555
C30B O5B 1_555 1_555
H32B C30B 1_555 1_555
H33B C30B 1_555 1_555
C31B O7B 1_555 1_555
H34B C31B 1_555 1_555
H35B C31B 1_555 1_555
H36B C31B 1_555 1_555
C32B O7B 1_555 1_555
H37B C32B 1_555 1_555
H38B C32B 1_555 1_555
C33B C32B 1_555 1_555
H39B C33B 1_555 1_555
H40B C33B 1_555 1_555
C34B O8B 1_555 1_555
H41B C34B 1_555 1_555
H42B C34B 1_555 1_555
H43B C34B 1_555 1_555
O3 Li2 1_555 1_555
O3 Li3 1_555 1_555
O4 Li2 1_555 1_555
O4 Li3 1_555 1_555
C5 C6 1_555 1_555
C11 C12 1_555 1_555
C17 C18 1_555 1_555
C23 C24 1_555 1_555
C29 C30 1_555 1_555
O2B Li1B 1_555 1_555
O3B Li2B 1_555 1_555
O3B Li3B 1_555 1_555
O4B Li2B 1_555 1_555
O4B Li3B 1_555 1_555
O6B C26B 1_555 1_555
C5B C6B 1_555 1_555
C11B C12B 1_555 1_555
C17B C18B 1_555 1_555
C23B C24B 1_555 1_555
C29B C30B 1_555 1_555

#END
