
#######################################################################
#
#                 Cambridge Crystallographic Data Centre
#                                CCDC 
#
#######################################################################
#
# If this CIF has been generated from an entry in the Cambridge 
# Structural Database, then it will include bibliographic, chemical, 
# crystal, experimental, refinement or atomic coordinate data resulting 
# from the CCDC's data processing and validation procedures.
#
#######################################################################

data_CIMYAA
_symmetry_cell_setting           monoclinic
_symmetry_space_group_name_H-M   'P 21/c'
_symmetry_Int_Tables_number      14
_space_group_name_Hall           '-P 2ybc'
loop_
_symmetry_equiv_pos_site_id
_symmetry_equiv_pos_as_xyz
1 x,y,z
2 -x,1/2+y,1/2-z
3 -x,-y,-z
4 x,1/2-y,1/2+z
_cell_length_a                   10.075(5)
_cell_length_b                   12.806(5)
_cell_length_c                   19.502(5)
_cell_angle_alpha                90
_cell_angle_beta                 95.342(5)
_cell_angle_gamma                90
_cell_volume                     2505.23
loop_
_atom_site_label
_atom_site_type_symbol
_atom_site_fract_x
_atom_site_fract_y
_atom_site_fract_z
C1 C 0.8223(12) 0.6357(10) 0.6304(7)
C2 C 0.8199(14) 0.6278(11) 0.7002(8)
H1 H 0.7501 0.5933 0.7186
C3 C 0.9176(14) 0.6696(12) 0.7416(8)
C4 C 1.0132(17) 0.7192(13) 0.7160(9)
H2 H 1.0834 0.7459 0.7451
C5 C 1.0122(15) 0.7324(12) 0.6479(8)
H3 H 1.0792 0.7710 0.6300
C6 C 0.9145(13) 0.6898(10) 0.6055(7)
C7 C 0.9301(12) 0.7125(11) 0.5318(7)
C8 C 1.2825(12) 0.6318(10) 1.1050(7)
C9 C 1.2680(13) 0.6198(10) 1.1699(7)
H4 H 1.2018 0.5759 1.1835
C10 C 1.3489(13) 0.6712(10) 1.2177(7)
C11 C 1.4403(15) 0.7331(12) 1.1979(8)
H5 H 1.4974 0.7675 1.2307
C12 C 1.4534(14) 0.7481(11) 1.1306(7)
H6 H 1.5176 0.7938 1.1169
C13 C 1.3728(12) 0.6962(10) 1.0831(7)
C14 C 1.3932(13) 0.7163(11) 1.0100(7)
C15 C 1.3335(15) 0.6652(11) 1.2902(8)
C16 C 1.0485(15) 0.4553(11) 0.6383(8)
H7 H 0.9607 0.4322 0.6317
C17 C 1.2228(17) 0.5253(13) 0.5974(9)
H8 H 1.2629 0.5558 0.5613
C18 C 1.1129(14) 0.4459(11) 0.7002(8)
H9 H 1.0698 0.4167 0.7358
C19 C 1.2959(17) 0.5147(12) 0.6598(8)
H10 H 1.3854 0.5337 0.6648
C20 C 1.2392(13) 0.4778(11) 0.7123(7)
C21 C 1.3073(13) 0.4755(10) 0.7790(7)
C22 C 1.4157(15) 0.5335(12) 0.7957(8)
H11 H 1.4521 0.5726 0.7619
C23 C 1.2654(15) 0.4171(12) 0.8287(8)
H12 H 1.1925 0.3733 0.8187
C24 C 1.4714(14) 0.5358(11) 0.8591(8)
H13 H 1.5448 0.5789 0.8694
C25 C 1.3260(14) 0.4196(11) 0.8938(8)
H14 H 1.2944 0.3781 0.9278
Cu1 Cu 0.68462(19) 0.35621(15) 0.59709(8)
Cu2 Cu 0.9773(2) 0.64937(16) 0.93583(9)
Cu3 Cu 1.0000 0.5000 0.5000
Cu4 Cu 1.5000 0.5000 1.0000
N1 N 1.1016(13) 0.4950(9) 0.5866(5)
N2 N 1.4284(12) 0.4803(8) 0.9085(5)
O1 O 0.7743(9) 0.4756(7) 0.5590(4)
O2 O 0.6766(11) 0.6347(9) 0.5201(6)
O3 O 0.6012(11) 0.5407(9) 0.6140(6)
O4 O 0.9816(9) 0.6500(7) 0.4980(4)
O5 O 0.9038(10) 0.8000(7) 0.5131(4)
O6 O 1.1512(10) 0.6217(8) 0.9882(5)
O7 O 1.0855(10) 0.5141(8) 1.0752(5)
O8 O 1.2806(11) 0.4788(8) 1.0278(5)
O9 O 1.4558(9) 0.6525(7) 0.9821(4)
O10 O 1.3537(10) 0.7987(7) 0.9884(4)
O11 O 1.2404(10) 0.6183(8) 1.3089(5)
O12 O 1.4071(12) 0.7081(9) 1.3327(4)
S1 S 0.7057(4) 0.5693(3) 0.5766(2)
S2 S 1.1907(4) 0.5548(3) 1.04403(18)
O13 O 0.8363(15) 0.6689(12) 0.8468(6)
O14 O 1.0409(14) 0.6540(11) 0.8483(5)
C26 C 0.9271(19) 0.6629(14) 0.8192(10)
C1B C 1.1777(12) 0.3643(10) 0.3696(7)
C2B C 1.1801(14) 0.3722(11) 0.2998(8)
H1B H 1.2499 0.4067 0.2814
C3B C 1.0824(14) 0.3304(12) 0.2584(8)
C4B C 0.9868(17) 0.2808(13) 0.2840(9)
H2B H 0.9166 0.2541 0.2549
C5B C 0.9878(15) 0.2676(12) 0.3521(8)
H3B H 0.9208 0.2290 0.3700
C6B C 1.0855(13) 0.3102(10) 0.3945(7)
C7B C 1.0699(12) 0.2875(11) 0.4682(7)
C8B C 0.7175(12) 0.3682(10) -0.1050(7)
C9B C 0.7320(13) 0.3802(10) -0.1699(7)
H4B H 0.7982 0.4241 -0.1835
C10B C 0.6511(13) 0.3288(10) -0.2177(7)
C11B C 0.5597(15) 0.2669(12) -0.1979(8)
H5B H 0.5026 0.2325 -0.2307
C12B C 0.5466(14) 0.2519(11) -0.1306(7)
H6B H 0.4824 0.2062 -0.1169
C13B C 0.6272(12) 0.3038(10) -0.0831(7)
C14B C 0.6068(13) 0.2837(11) -0.0100(7)
C15B C 0.6665(15) 0.3348(11) -0.2902(8)
C16B C 0.9515(15) 0.5447(11) 0.3617(8)
H7B H 1.0393 0.5678 0.3683
C17B C 0.7772(17) 0.4747(13) 0.4026(9)
H8B H 0.7371 0.4442 0.4387
C18B C 0.8871(14) 0.5541(11) 0.2998(8)
H9B H 0.9302 0.5833 0.2642
C19B C 0.7041(17) 0.4853(12) 0.3402(8)
H10B H 0.6146 0.4663 0.3352
C20B C 0.7608(13) 0.5222(11) 0.2877(7)
C21B C 0.6927(13) 0.5245(10) 0.2210(7)
C22B C 0.5843(15) 0.4665(12) 0.2043(8)
H11B H 0.5479 0.4274 0.2381
C23B C 0.7346(15) 0.5829(12) 0.1713(8)
H12B H 0.8075 0.6267 0.1813
C24B C 0.5286(14) 0.4642(11) 0.1409(8)
H13B H 0.4552 0.4211 0.1306
C25B C 0.6740(14) 0.5804(11) 0.1062(8)
H14B H 0.7056 0.6219 0.0722
Cu1B Cu 1.31538(19) 0.64379(15) 0.40291(8)
Cu2B Cu 1.0227(2) 0.35063(16) 0.06417(9)
N1B N 0.8984(13) 0.5050(9) 0.4134(5)
N2B N 0.5716(12) 0.5197(8) 0.0915(5)
O1B O 1.2257(9) 0.5244(7) 0.4410(4)
O2B O 1.3234(11) 0.3653(9) 0.4799(6)
O3B O 1.3988(11) 0.4593(9) 0.3860(6)
O4B O 1.0184(9) 0.3500(7) 0.5020(4)
O5B O 1.0962(10) 0.2000(7) 0.4869(4)
O6B O 0.8488(10) 0.3783(8) 0.0118(5)
O7B O 0.9145(10) 0.4859(8) -0.0752(5)
O8B O 0.7194(11) 0.5212(8) -0.0278(5)
O9B O 0.5442(9) 0.3475(7) 0.0179(4)
O10B O 0.6463(10) 0.2013(7) 0.0116(4)
O11B O 0.7596(10) 0.3817(8) -0.3089(5)
O12B O 0.5929(12) 0.2919(9) -0.3327(4)
S1B S 1.2943(4) 0.4307(3) 0.4234(2)
S2B S 0.8093(4) 0.4452(3) -0.04403(18)
O13B O 1.1637(15) 0.3311(12) 0.1532(6)
O14B O 0.9591(14) 0.3460(11) 0.1517(5)
C26B C 1.0729(19) 0.3371(14) 0.1808(10)
Cu1_2 Cu 0.68462(19) 0.35621(15) -0.40291(8)
Cu1A Cu 1.31538(19) 0.85621(15) 0.90291(8)
Cu1B_2 Cu 1.31538(19) 0.64379(15) 1.40291(8)
Cu1C Cu 0.68462(19) 0.14379(15) 0.09709(8)
Cu2_2 Cu 0.9773(2) 0.64937(16) -0.06417(9)
Cu2A Cu 1.0227(2) 0.14937(16) 0.56417(9)
Cu2B_2 Cu 1.0227(2) 0.35063(16) 1.06417(9)
Cu2C Cu 0.9773(2) 0.85063(16) 0.43583(9)
Cu4_2 Cu 0.5000 0.5000 0.0000
N2B_2 N 1.5716(12) 0.5197(8) 1.0915(5)
O5A O 1.0962(10) 0.3000(7) -0.0131(4)
O5C O 0.9038(10) 0.7000(7) 1.0131(4)
O7_2 O 1.0855(10) 0.5141(8) 0.0752(5)
O7B_2 O 0.9145(10) 0.4859(8) 0.9248(5)
O8B_2 O 1.7194(11) 0.5212(8) 0.9722(5)
O9B_2 O 1.5442(9) 0.3475(7) 1.0179(4)
O10A O 0.6463(10) 0.2987(7) 0.5116(4)
O10C O 1.3537(10) 0.7013(7) 0.4884(4)
O11_2 O 1.2404(10) 0.6183(8) 0.3089(5)
O11B_2 O 0.7596(10) 0.3817(8) 0.6911(5)
O12_2 O 1.4071(12) 0.7081(9) 0.3327(4)
O12B_2 O 0.5929(12) 0.2919(9) 0.6673(4)
O15 O 0.831(2) 0.6617(19) 0.9242(13)
O15B O 1.169(2) 0.3383(19) 0.0758(13)
loop_
_geom_bond_atom_site_label_1
_geom_bond_atom_site_label_2
_geom_bond_site_symmetry_1
_geom_bond_site_symmetry_2
C1 C2 1_555 1_555
C2 H1 1_555 1_555
C3 C2 1_555 1_555
C4 C3 1_555 1_555
H2 C4 1_555 1_555
C5 C4 1_555 1_555
H3 C5 1_555 1_555
C6 C1 1_555 1_555
C7 C6 1_555 1_555
C8 C9 1_555 1_555
C9 H4 1_555 1_555
C10 C9 1_555 1_555
C11 C10 1_555 1_555
H5 C11 1_555 1_555
C12 C11 1_555 1_555
H6 C12 1_555 1_555
C13 C8 1_555 1_555
C14 C13 1_555 1_555
C15 C10 1_555 1_555
C16 H7 1_555 1_555
C17 H8 1_555 1_555
C18 C16 1_555 1_555
H9 C18 1_555 1_555
C19 C17 1_555 1_555
H10 C19 1_555 1_555
C20 C18 1_555 1_555
C21 C20 1_555 1_555
C22 C21 1_555 1_555
H11 C22 1_555 1_555
C23 C21 1_555 1_555
H12 C23 1_555 1_555
C24 C22 1_555 1_555
H13 C24 1_555 1_555
C25 C23 1_555 1_555
H14 C25 1_555 1_555
Cu1 O1 1_555 1_555
Cu2 O6 1_555 1_555
Cu3 N1 1_555 1_555
Cu4 N2 1_555 1_555
N1 C16 1_555 1_555
N2 C24 1_555 1_555
O1 Cu3 1_555 1_555
O2 S1 1_555 1_555
O3 Cu1 1_555 1_555
O4 C7 1_555 1_555
O5 C7 1_555 1_555
O6 S2 1_555 1_555
O7 S2 1_555 1_555
O8 Cu4 1_555 1_555
O9 C14 1_555 1_555
O10 C14 1_555 1_555
O11 C15 1_555 1_555
O12 C15 1_555 1_555
S1 C1 1_555 1_555
S2 C8 1_555 1_555
O13 Cu2 1_555 1_555
O14 Cu2 1_555 1_555
C26 C3 1_555 1_555
C1B C2B 1_555 1_555
C2B H1B 1_555 1_555
C3B C2B 1_555 1_555
C4B C3B 1_555 1_555
H2B C4B 1_555 1_555
C5B C4B 1_555 1_555
H3B C5B 1_555 1_555
C6B C1B 1_555 1_555
C7B C6B 1_555 1_555
C8B C9B 1_555 1_555
C9B H4B 1_555 1_555
C10B C9B 1_555 1_555
C11B C10B 1_555 1_555
H5B C11B 1_555 1_555
C12B C11B 1_555 1_555
H6B C12B 1_555 1_555
C13B C8B 1_555 1_555
C14B C13B 1_555 1_555
C15B C10B 1_555 1_555
C16B H7B 1_555 1_555
C17B H8B 1_555 1_555
C18B C16B 1_555 1_555
H9B C18B 1_555 1_555
C19B C17B 1_555 1_555
H10B C19B 1_555 1_555
C20B C18B 1_555 1_555
C21B C20B 1_555 1_555
C22B C21B 1_555 1_555
H11B C22B 1_555 1_555
C23B C21B 1_555 1_555
H12B C23B 1_555 1_555
C24B C22B 1_555 1_555
H13B C24B 1_555 1_555
C25B C23B 1_555 1_555
H14B C25B 1_555 1_555
Cu1B O1B 1_555 1_555
Cu2B O6B 1_555 1_555
N1B Cu3 1_555 1_555
N2B C24B 1_555 1_555
O1B Cu3 1_555 1_555
O2B S1B 1_555 1_555
O3B Cu1B 1_555 1_555
O4B Cu3 1_555 1_555
O5B C7B 1_555 1_555
O6B S2B 1_555 1_555
O7B S2B 1_555 1_555
O8B S2B 1_555 1_555
O9B C14B 1_555 1_555
O10B C14B 1_555 1_555
O11B C15B 1_555 1_555
O12B C15B 1_555 1_555
S1B C1B 1_555 1_555
S2B C8B 1_555 1_555
O13B Cu2B 1_555 1_555
O14B Cu2B 1_555 1_555
C26B C3B 1_555 1_555
Cu1_2 O11B 1_555 1_555
Cu1A O10 1_555 1_555
Cu1B_2 O11 1_555 1_555
Cu1C O10B 1_555 1_555
Cu2_2 O7B 1_555 1_555
Cu2A O5B 1_555 1_555
Cu2B_2 O7 1_555 1_555
Cu2C O5 1_555 1_555
Cu4_2 N2B 1_555 1_555
N2B_2 Cu4 1_555 1_555
O5A Cu2B 1_555 1_555
O5C Cu2 1_555 1_555
O7_2 Cu2B 1_555 1_555
O7B_2 Cu2 1_555 1_555
O8B_2 Cu4 1_555 1_555
O9B_2 Cu4 1_555 1_555
O10A Cu1 1_555 1_555
O10C Cu1B 1_555 1_555
O11_2 Cu1B 1_555 1_555
O11B_2 Cu1 1_555 1_555
O12_2 Cu1B 1_555 1_555
O12B_2 Cu1 1_555 1_555
C5 C6 1_555 1_555
C12 C13 1_555 1_555
C17 N1 1_555 1_555
C19 C20 1_555 1_555
C25 N2 1_555 1_555
Cu3 O4 1_555 1_555
Cu4 O9 1_555 1_555
O1 S1 1_555 1_555
O3 S1 1_555 1_555
O8 S2 1_555 1_555
O12 Cu1B_2 1_555 1_555
O13 C26 1_555 1_555
O14 C26 1_555 1_555
C5B C6B 1_555 1_555
C7B O4B 1_555 1_555
C12B C13B 1_555 1_555
C16B N1B 1_555 1_555
C17B N1B 1_555 1_555
C19B C20B 1_555 1_555
C25B N2B 1_555 1_555
O1B S1B 1_555 1_555
O3B S1B 1_555 1_555
O8B Cu4_2 1_555 1_555
O9B Cu4_2 1_555 1_555
O12B Cu1_2 1_555 1_555
O13B C26B 1_555 1_555
O14B C26B 1_555 1_555

#END
