
#######################################################################
#
#                 Cambridge Crystallographic Data Centre
#                                CCDC 
#
#######################################################################
#
# If this CIF has been generated from an entry in the Cambridge 
# Structural Database, then it will include bibliographic, chemical, 
# crystal, experimental, refinement or atomic coordinate data resulting 
# from the CCDC's data processing and validation procedures.
#
#######################################################################

data_CIMZII
_symmetry_cell_setting           orthorhombic
_symmetry_space_group_name_H-M   'P 21 21 21'
_symmetry_Int_Tables_number      19
_space_group_name_Hall           'P 2ac 2ab'
loop_
_symmetry_equiv_pos_site_id
_symmetry_equiv_pos_as_xyz
1 x,y,z
2 1/2-x,-y,1/2+z
3 1/2+x,1/2-y,-z
4 -x,1/2+y,1/2-z
_cell_length_a                   7.777(5)
_cell_length_b                   8.882(5)
_cell_length_c                   8.933(5)
_cell_angle_alpha                90
_cell_angle_beta                 90
_cell_angle_gamma                90
_cell_volume                     617.05
loop_
_atom_site_label
_atom_site_type_symbol
_atom_site_fract_x
_atom_site_fract_y
_atom_site_fract_z
Zn1 Zn -0.09814(3) 0.06890(3) 0.11449(3)
O1 O -0.1635(2) -0.11862(17) -0.30419(17)
O2 O 0.4161(2) -0.10078(16) -0.22749(18)
O3 O -0.0760(2) 0.31139(18) 0.04485(18)
H1 H -0.007(3) 0.313(3) -0.029(2)
H2 H -0.041(4) 0.369(3) 0.115(2)
O4 O -0.20743(17) 0.00207(17) -0.08792(16)
O5 O 0.4254(2) -0.34502(17) -0.17795(17)
C1 C 0.0824(3) -0.0568(2) -0.1608(2)
H3 H 0.1363 -0.0072 -0.2497
O6 O 0.1186(2) 0.03157(18) -0.03249(17)
H4 H 0.2297 0.0714 -0.0126
C2 C -0.1123(3) -0.0585(2) -0.1833(2)
C3 C 0.1565(3) -0.2153(2) -0.1463(3)
H5 H 0.1398 -0.2513 -0.0425
H6 H 0.0928 -0.2839 -0.2139
C4 C 0.3462(3) -0.2215(2) -0.1845(2)
Zn1A Zn -0.40186(3) -0.06890(3) -0.38551(3)
Zn1A_2 Zn 0.59814(3) -0.06890(3) -0.38551(3)
Zn1B Zn 0.40186(3) -0.56890(3) -0.11449(3)
O1A O -0.3365(2) 0.11862(17) 0.19581(17)
O2A O 0.0839(2) 0.10078(16) 0.27251(18)
O5B O -0.0746(2) -0.15498(17) 0.17795(17)
loop_
_geom_bond_atom_site_label_1
_geom_bond_atom_site_label_2
_geom_bond_site_symmetry_1
_geom_bond_site_symmetry_2
Zn1 O3 1_555 1_555
O1 C2 1_555 1_555
O2 C4 1_555 1_555
O3 H1 1_555 1_555
H2 O3 1_555 1_555
O4 Zn1 1_555 1_555
O5 C4 1_555 1_555
C1 H3 1_555 1_555
O6 Zn1 1_555 1_555
H4 O6 1_555 1_555
C2 O4 1_555 1_555
C3 C1 1_555 1_555
H5 C3 1_555 1_555
H6 C3 1_555 1_555
C4 C3 1_555 1_555
Zn1A O1 1_555 1_555
Zn1A_2 O2 1_555 1_555
Zn1B O5 1_555 1_555
O1A Zn1 1_555 1_555
O2A Zn1 1_555 1_555
O5B Zn1 1_555 1_555
C1 O6 1_555 1_555
C1 C2 1_555 1_555

#END
