
#######################################################################
#
#                 Cambridge Crystallographic Data Centre
#                                CCDC 
#
#######################################################################
#
# If this CIF has been generated from an entry in the Cambridge 
# Structural Database, then it will include bibliographic, chemical, 
# crystal, experimental, refinement or atomic coordinate data resulting 
# from the CCDC's data processing and validation procedures.
#
#######################################################################

data_CINCEI
_symmetry_cell_setting           trigonal
_symmetry_space_group_name_H-M   'P 31 2 1'
_symmetry_Int_Tables_number      152
_space_group_name_Hall           'P 31 2"'
loop_
_symmetry_equiv_pos_site_id
_symmetry_equiv_pos_as_xyz
1 x,y,z
2 -y,x-y,1/3+z
3 y,x,-z
4 -x+y,-x,2/3+z
5 -x,-x+y,1/3-z
6 x-y,-y,2/3-z
_cell_length_a                   10.8986(7)
_cell_length_b                   10.8986(7)
_cell_length_c                   5.8226(4)
_cell_angle_alpha                90
_cell_angle_beta                 90
_cell_angle_gamma                120
_cell_volume                     598.948
loop_
_atom_site_label
_atom_site_type_symbol
_atom_site_fract_x
_atom_site_fract_y
_atom_site_fract_z
O1 O 0.88779(14) 0.04735(16) 0.0084(2)
O2 O 0.5670(2) 0.1957(2) 0.3384(3)
O3 O 0.3708(2) 0.1420(3) 0.1669(3)
N1 N 0.4830(2) 0.1417(2) 0.1823(3)
C1 C 0.8112(2) 0.0000 -0.1667
C2 C 0.6722(2) 0.0000 -0.1667
C3 C 0.6433(2) 0.0709(2) 0.0052(3)
H1 H 0.7086 0.1181 0.1217
C4 C 0.5159(2) 0.0697(2) -0.0007(3)
C5 C 0.4143(3) 0.0000 -0.1667
H2 H 0.3290 0.0000 -0.1667
Li1 Li 1.0935(5) 0.0935(5) 0.0000
O1E O 0.84044(21) -0.04735(16) -0.3417(2)
O1B O 1.04735(16) -0.11221(14) -0.0084(2)
O1C O 1.15956(21) 0.11221(14) -0.3249(2)
O1D O 1.11221(14) 0.15956(21) 0.3249(2)
O2E O 0.3713(3) -0.1957(2) -0.6717(3)
O3E O 0.2288(4) -0.1420(3) -0.5002(3)
N1E N 0.3413(3) -0.1417(2) -0.5156(3)
C3E C 0.5724(3) -0.0709(2) -0.3385(3)
H1E H 0.5905 -0.1181 -0.4550
C4E C 0.4462(3) -0.0697(2) -0.3326(3)
Li1A Li 0.9065(5) 0.0000(7) 0.3333
Li1A_2 Li 0.9065(5) 0.0000(7) -0.6667
Li1C Li 1.0000(7) -0.0935(5) -0.3333
loop_
_geom_bond_atom_site_label_1
_geom_bond_atom_site_label_2
_geom_bond_site_symmetry_1
_geom_bond_site_symmetry_2
O1 C1 1_555 1_555
O2 N1 1_555 1_555
O3 N1 1_555 1_555
N1 C4 1_555 1_555
C1 C2 1_555 1_555
C2 C3 1_555 1_555
C3 H1 1_555 1_555
C4 C3 1_555 1_555
C5 C4 1_555 1_555
H2 C5 1_555 1_555
Li1 O1 1_555 1_555
O1E C1 1_555 1_555
O1B Li1 1_555 1_555
O1C Li1 1_555 1_555
O1D Li1 1_555 1_555
O2E N1E 1_555 1_555
O3E N1E 1_555 1_555
N1E C4E 1_555 1_555
C3E C2 1_555 1_555
H1E C3E 1_555 1_555
C4E C5 1_555 1_555
Li1A O1 1_555 1_555
Li1A_2 O1E 1_555 1_555
Li1C O1E 1_555 1_555
O1B Li1C 1_555 1_555
O1C Li1C 1_555 1_555
O1D Li1A 1_555 1_555
C3E C4E 1_555 1_555

#END
