
#######################################################################
#
#                 Cambridge Crystallographic Data Centre
#                                CCDC 
#
#######################################################################
#
# If this CIF has been generated from an entry in the Cambridge 
# Structural Database, then it will include bibliographic, chemical, 
# crystal, experimental, refinement or atomic coordinate data resulting 
# from the CCDC's data processing and validation procedures.
#
#######################################################################

data_CINCIN
_symmetry_cell_setting           monoclinic
_symmetry_space_group_name_H-M   'P 21/c'
_symmetry_Int_Tables_number      14
_space_group_name_Hall           '-P 2ybc'
loop_
_symmetry_equiv_pos_site_id
_symmetry_equiv_pos_as_xyz
1 x,y,z
2 -x,1/2+y,1/2-z
3 -x,-y,-z
4 x,1/2-y,1/2+z
_cell_length_a                   10.035(2)
_cell_length_b                   16.481(3)
_cell_length_c                   16.114(5)
_cell_angle_alpha                90
_cell_angle_beta                 113.84(2)
_cell_angle_gamma                90
_cell_volume                     2437.66
loop_
_atom_site_label
_atom_site_type_symbol
_atom_site_fract_x
_atom_site_fract_y
_atom_site_fract_z
Ag1 Ag -0.12416(2) -0.019536(13) 0.263677(18)
Ag2 Ag 0.38283(3) -0.424194(18) 0.398050(19)
O1 O 0.3761(2) -0.56238(15) 0.46452(17)
O2 O 0.2772(3) -0.66386(18) 0.4989(2)
O3 O 0.1453(2) -0.58221(18) 0.39730(17)
O4 O 0.4955(3) -0.43185(18) 0.29656(19)
O5 O 0.2903(3) -0.3754(2) 0.2275(2)
O6 O 0.4313(3) -0.39214(16) 0.15892(17)
N1 N 0.2652(2) -0.60264(14) 0.45461(16)
N2 N 0.4063(3) -0.39964(15) 0.22679(18)
N3 N 0.2659(3) -0.36646(14) 0.47300(18)
N4 N 0.3027(2) -0.29421(13) 0.51586(15)
N5 N 0.0293(2) 0.07533(13) 0.27344(17)
N6 N 0.1456(2) 0.07187(14) 0.25148(18)
N7 N -0.2722(2) -0.11114(14) 0.27272(16)
N8 N -0.2428(2) -0.15857(13) 0.34592(15)
C1 C 0.1504(4) -0.3911(2) 0.4870(2)
H1 H 0.1013 -0.4396 0.4654
C2 C 0.1127(3) -0.3352(2) 0.5379(2)
H2 H 0.0364 -0.3388 0.5565
C3 C 0.2113(3) -0.27367(19) 0.5549(2)
H3 H 0.2149 -0.2265 0.5874
C4 C 0.4157(3) -0.24403(16) 0.50680(19)
H4 H 0.4846 -0.2787 0.4955
H5 H 0.4680 -0.2156 0.5635
C5 C 0.3553(2) -0.18285(15) 0.43111(17)
C6 C 0.4254(3) -0.10869(16) 0.43823(19)
H6 H 0.5092 -0.0974 0.4897
C7 C 0.3724(3) -0.05171(17) 0.3701(2)
H7 H 0.4221 -0.0031 0.3755
C8 C 0.2453(3) -0.06604(15) 0.29342(18)
C9 C 0.1757(3) -0.14033(16) 0.28574(18)
H8 H 0.0913 -0.1512 0.2346
C10 C 0.2304(3) -0.19837(15) 0.35320(18)
H9 H 0.1834 -0.2481 0.3465
C11 C 0.1859(3) -0.00337(17) 0.2193(2)
H10 H 0.2587 0.0084 0.1957
H11 H 0.1009 -0.0253 0.1700
C12 C 0.2169(3) 0.14248(19) 0.2688(3)
H12 H 0.3003 0.1542 0.2593
C13 C 0.1458(4) 0.1942(2) 0.3028(3)
H13 H 0.1701 0.2477 0.3210
C14 C 0.0300(3) 0.15027(18) 0.3047(2)
H14 H -0.0382 0.1702 0.3250
C15 C -0.4103(3) -0.12792(18) 0.2180(2)
H15 H -0.4609 -0.1038 0.1617
C16 C -0.4679(3) -0.18583(18) 0.2561(2)
H16 H -0.5615 -0.2075 0.2314
C17 C -0.3581(3) -0.20445(17) 0.3377(2)
H17 H -0.3624 -0.2419 0.3798
C18 C -0.0984(3) -0.15893(18) 0.4203(2)
H18 H -0.0286 -0.1805 0.3984
H19 H -0.0997 -0.1947 0.4678
C19 C -0.0490(3) -0.07562(16) 0.46011(18)
C20 C -0.1426(3) -0.02298(19) 0.4768(2)
H20 H -0.2390 -0.0381 0.4614
C21 C 0.0944(3) -0.05180(19) 0.4838(2)
H21 H 0.1587 -0.0866 0.4731
N7B N 0.2722(2) 0.11114(14) 0.72728(16)
N8B N 0.2428(2) 0.15857(13) 0.65408(15)
C15B C 0.4103(3) 0.12792(18) 0.7820(2)
H15B H 0.4609 0.1038 0.8383
C16B C 0.4679(3) 0.18583(18) 0.7439(2)
H16B H 0.5615 0.2075 0.7686
C17B C 0.3581(3) 0.20445(17) 0.6623(2)
H17B H 0.3624 0.2419 0.6202
C18B C 0.0984(3) 0.15893(18) 0.5797(2)
H18B H 0.0286 0.1805 0.6016
H19B H 0.0997 0.1947 0.5322
C19B C 0.0490(3) 0.07562(16) 0.53989(18)
C20B C 0.1426(3) 0.02298(19) 0.5232(2)
H20B H 0.2390 0.0381 0.5386
C21B C -0.0944(3) 0.05180(19) 0.5162(2)
H21B H -0.1587 0.0866 0.5269
Ag1B Ag 0.12416(2) 0.019536(13) 0.736323(18)
Ag2B Ag -0.38283(3) 0.424194(18) 0.601950(19)
O1B O -0.3761(2) 0.56238(15) 0.53548(17)
O2B O -0.2772(3) 0.66386(18) 0.5011(2)
O3B O -0.1453(2) 0.58221(18) 0.60270(17)
O4B O -0.4955(3) 0.43185(18) 0.70344(19)
O5B O -0.2903(3) 0.3754(2) 0.7725(2)
O6B O -0.4313(3) 0.39214(16) 0.84108(17)
N1B N -0.2652(2) 0.60264(14) 0.54539(16)
N2B N -0.4063(3) 0.39964(15) 0.77321(18)
N3B N -0.2659(3) 0.36646(14) 0.52700(18)
N4B N -0.3027(2) 0.29421(13) 0.48414(15)
N5B N -0.0293(2) -0.07533(13) 0.72656(17)
N6B N -0.1456(2) -0.07187(14) 0.74852(18)
C1B C -0.1504(4) 0.3911(2) 0.5130(2)
H1B H -0.1013 0.4396 0.5346
C2B C -0.1127(3) 0.3352(2) 0.4621(2)
H2B H -0.0364 0.3388 0.4435
C3B C -0.2113(3) 0.27367(19) 0.4451(2)
H3B H -0.2149 0.2265 0.4126
C4B C -0.4157(3) 0.24403(16) 0.49320(19)
H4B H -0.4846 0.2787 0.5045
H5B H -0.4680 0.2156 0.4365
C5B C -0.3553(2) 0.18285(15) 0.56889(17)
C6B C -0.4254(3) 0.10869(16) 0.56177(19)
H6B H -0.5092 0.0974 0.5103
C7B C -0.3724(3) 0.05171(17) 0.6299(2)
H7B H -0.4221 0.0031 0.6245
C8B C -0.2453(3) 0.06604(15) 0.70658(18)
C9B C -0.1757(3) 0.14033(16) 0.71426(18)
H8B H -0.0913 0.1512 0.7654
C10B C -0.2304(3) 0.19837(15) 0.64680(18)
H9B H -0.1834 0.2481 0.6535
C11B C -0.1859(3) 0.00337(17) 0.7807(2)
H10B H -0.2587 -0.0084 0.8043
H11B H -0.1009 0.0253 0.8300
C12B C -0.2169(3) -0.14248(19) 0.7312(3)
H12B H -0.3003 -0.1542 0.7407
C13B C -0.1458(4) -0.1942(2) 0.6972(3)
H13B H -0.1701 -0.2477 0.6790
C14B C -0.0300(3) -0.15027(18) 0.6953(2)
H14B H 0.0382 -0.1702 0.6750
Ag1A Ag 0.12416(2) -0.519536(13) 0.236323(18)
Ag1C Ag -0.12416(2) 0.519536(13) 0.763677(18)
Ag2_2 Ag -0.61717(3) 0.575806(18) 0.398050(19)
Ag2B_2 Ag 0.61717(3) -0.575806(18) 0.601950(19)
O1_2 O -0.6239(2) 0.43762(15) 0.46452(17)
O1B_2 O 0.6239(2) -0.43762(15) 0.53548(17)
O3A O -0.1453(2) -0.08221(18) 0.10270(17)
O3C O 0.1453(2) 0.08221(18) 0.89730(17)
loop_
_geom_bond_atom_site_label_1
_geom_bond_atom_site_label_2
_geom_bond_site_symmetry_1
_geom_bond_site_symmetry_2
Ag1 N5 1_555 1_555
Ag2 O1 1_555 1_555
O1 N1 1_555 1_555
O2 N1 1_555 1_555
O3 N1 1_555 1_555
O4 Ag2 1_555 1_555
O5 Ag2 1_555 1_555
O6 N2 1_555 1_555
N2 O4 1_555 1_555
N3 Ag2 1_555 1_555
N4 N3 1_555 1_555
N5 N6 1_555 1_555
N6 C11 1_555 1_555
N7 Ag1 1_555 1_555
N8 N7 1_555 1_555
C1 N3 1_555 1_555
H1 C1 1_555 1_555
C2 C1 1_555 1_555
H2 C2 1_555 1_555
C3 N4 1_555 1_555
H3 C3 1_555 1_555
C4 N4 1_555 1_555
H4 C4 1_555 1_555
H5 C4 1_555 1_555
C5 C4 1_555 1_555
C6 C5 1_555 1_555
H6 C6 1_555 1_555
C7 C6 1_555 1_555
H7 C7 1_555 1_555
C8 C7 1_555 1_555
C9 C8 1_555 1_555
H8 C9 1_555 1_555
C10 C5 1_555 1_555
H9 C10 1_555 1_555
C11 C8 1_555 1_555
H10 C11 1_555 1_555
H11 C11 1_555 1_555
C12 N6 1_555 1_555
H12 C12 1_555 1_555
C13 C12 1_555 1_555
H13 C13 1_555 1_555
C14 N5 1_555 1_555
H14 C14 1_555 1_555
C15 N7 1_555 1_555
H15 C15 1_555 1_555
C16 C15 1_555 1_555
H16 C16 1_555 1_555
C17 N8 1_555 1_555
H17 C17 1_555 1_555
C18 N8 1_555 1_555
H18 C18 1_555 1_555
H19 C18 1_555 1_555
C19 C18 1_555 1_555
C20 C19 1_555 1_555
H20 C20 1_555 1_555
C21 C19 1_555 1_555
H21 C21 1_555 1_555
N7B N8B 1_555 1_555
N8B C17B 1_555 1_555
C15B N7B 1_555 1_555
H15B C15B 1_555 1_555
C16B C15B 1_555 1_555
H16B C16B 1_555 1_555
C17B C16B 1_555 1_555
H17B C17B 1_555 1_555
C18B N8B 1_555 1_555
H18B C18B 1_555 1_555
H19B C18B 1_555 1_555
C19B C18B 1_555 1_555
C20B C21 1_555 1_555
H20B C20B 1_555 1_555
C21B C20 1_555 1_555
H21B C21B 1_555 1_555
Ag1B N7B 1_555 1_555
Ag2B O1B 1_555 1_555
O1B N1B 1_555 1_555
O2B N1B 1_555 1_555
O3B N1B 1_555 1_555
O4B Ag2B 1_555 1_555
O5B Ag2B 1_555 1_555
O6B N2B 1_555 1_555
N2B O4B 1_555 1_555
N3B Ag2B 1_555 1_555
N4B N3B 1_555 1_555
N5B Ag1B 1_555 1_555
N6B N5B 1_555 1_555
C1B N3B 1_555 1_555
H1B C1B 1_555 1_555
C2B C1B 1_555 1_555
H2B C2B 1_555 1_555
C3B N4B 1_555 1_555
H3B C3B 1_555 1_555
C4B N4B 1_555 1_555
H4B C4B 1_555 1_555
H5B C4B 1_555 1_555
C5B C4B 1_555 1_555
C6B C5B 1_555 1_555
H6B C6B 1_555 1_555
C7B C6B 1_555 1_555
H7B C7B 1_555 1_555
C8B C7B 1_555 1_555
C9B C8B 1_555 1_555
H8B C9B 1_555 1_555
C10B C5B 1_555 1_555
H9B C10B 1_555 1_555
C11B N6B 1_555 1_555
H10B C11B 1_555 1_555
H11B C11B 1_555 1_555
C12B N6B 1_555 1_555
H12B C12B 1_555 1_555
C13B C12B 1_555 1_555
H13B C13B 1_555 1_555
C14B N5B 1_555 1_555
H14B C14B 1_555 1_555
Ag1A O3 1_555 1_555
Ag1C O3B 1_555 1_555
Ag2_2 O1B 1_555 1_555
Ag2B_2 O1 1_555 1_555
O1_2 Ag2B 1_555 1_555
O1B_2 Ag2 1_555 1_555
O3A Ag1 1_555 1_555
O3C Ag1B 1_555 1_555
O5 N2 1_555 1_555
C2 C3 1_555 1_555
C9 C10 1_555 1_555
C13 C14 1_555 1_555
C16 C17 1_555 1_555
C19B C20B 1_555 1_555
C19B C21B 1_555 1_555
O5B N2B 1_555 1_555
C2B C3B 1_555 1_555
C8B C11B 1_555 1_555
C9B C10B 1_555 1_555
C13B C14B 1_555 1_555
Ag2_2 O1_2 1_555 1_555
Ag2B_2 O1B_2 1_555 1_555

#END
