
#######################################################################
#
#                 Cambridge Crystallographic Data Centre
#                                CCDC 
#
#######################################################################
#
# If this CIF has been generated from an entry in the Cambridge 
# Structural Database, then it will include bibliographic, chemical, 
# crystal, experimental, refinement or atomic coordinate data resulting 
# from the CCDC's data processing and validation procedures.
#
#######################################################################

data_CINJEP
_symmetry_cell_setting           orthorhombic
_symmetry_space_group_name_H-M   'F 2 d d'
_symmetry_Int_Tables_number      43
_space_group_name_Hall           'F -2d 2'
loop_
_symmetry_equiv_pos_site_id
_symmetry_equiv_pos_as_xyz
1 x,y,z
2 1/4+x,1/4+y,1/4-z
3 x,-y,-z
4 1/4+x,1/4-y,1/4+z
5 x,1/2+y,1/2+z
6 1/4+x,3/4+y,3/4-z
7 x,1/2-y,1/2-z
8 1/4+x,3/4-y,3/4+z
9 1/2+x,y,1/2+z
10 3/4+x,1/4+y,3/4-z
11 1/2+x,-y,1/2-z
12 3/4+x,1/4-y,3/4+z
13 1/2+x,1/2+y,z
14 3/4+x,3/4+y,1/4-z
15 1/2+x,1/2-y,-z
16 3/4+x,3/4-y,1/4+z
_cell_length_a                   8.0806(6)
_cell_length_b                   28.0091(9)
_cell_length_c                   28.1093(9)
_cell_angle_alpha                90
_cell_angle_beta                 90
_cell_angle_gamma                90
_cell_volume                     6361.99
loop_
_atom_site_label
_atom_site_type_symbol
_atom_site_fract_x
_atom_site_fract_y
_atom_site_fract_z
C1 C 0.2952(3) 0.87766(9) 1.28789(8)
C2 C 0.4127(3) 0.89128(9) 1.32785(8)
C3 C 0.1828(3) 0.87935(8) 1.38884(8)
C4 C 0.3594(3) 0.86804(10) 1.37457(8)
C5 C 0.8014(3) 0.87944(9) 1.24540(8)
C6 C 0.6401(3) 0.89766(10) 1.26636(9)
C7 C 0.5881(3) 0.87464(9) 1.31307(8)
C8 C 0.7096(3) 0.88700(9) 1.35309(8)
Co1 Co 0.12527(3) 0.901372(11) 1.193884(11)
Co2 Co -0.06947(4) 0.963030(11) 1.395380(11)
O1 O 0.2492(2) 0.90927(6) 1.25936(6)
O2 O 0.2553(3) 0.83459(7) 1.28455(7)
O3 O 0.8963(2) 0.90943(6) 1.22806(6)
O4 O 0.8245(3) 0.83528(7) 1.24468(8)
O5 O 0.1230(2) 0.91823(6) 1.37613(6)
O6 O 0.1096(2) 0.84799(6) 1.41347(6)
O7 O 0.7432(2) 0.93022(7) 1.35841(7)
O8 O 0.7609(2) 0.85297(7) 1.37819(6)
O12 O -0.0201(3) 1.00499(8) 1.33648(7)
O13 O 0.1042(3) 0.99739(7) 1.43777(8)
O14 O -0.2484(3) 1.01714(8) 1.41535(9)
O15 O 0.1099(2) 0.82618(6) 1.20468(6)
O16 O 0.1227(4) 0.97714(7) 1.18977(9)
H1 H 0.554(4) 0.8906(9) 1.2432(10)
H2 H 0.656(4) 0.9347(11) 1.2702(10)
H3 H 0.376(4) 0.8333(10) 1.3753(9)
H4 H 0.424(4) 0.8760(10) 1.4002(10)
H5 H 0.410(3) 0.9249(9) 1.3305(8)
H6 H 0.579(3) 0.8409(10) 1.3085(9)
H7 H 0.075(3) 1.0034(13) 1.3196(11)
H8 H -0.036(4) 1.0309(12) 1.3366(11)
H9 H -0.208(6) 1.0495(8) 1.4197(17)
H10 H 0.209(3) 0.9895(15) 1.4331(18)
H11 H -0.346(4) 1.0086(16) 1.4251(18)
H12 H 0.080(5) 1.0281(8) 1.4495(13)
H13 H 0.178(5) 0.9932(15) 1.1758(14)
H14 H 0.040(6) 0.9855(17) 1.1957(17)
H15 H 0.009(3) 0.8245(11) 1.2161(10)
H16 H 0.163(5) 0.8226(14) 1.2310(9)
Co1_2 Co 1.12527(3) 0.901372(11) 1.193884(11)
Co1O Co -0.12473(3) 0.848628(11) 1.443884(11)
Co1O_2 Co 0.87527(3) 0.848628(11) 1.443884(11)
Co2_2 Co 0.93053(4) 0.963030(11) 1.395380(11)
Co2G Co 0.18053(4) 0.786970(11) 1.145380(11)
O3_2 O -0.1037(2) 0.90943(6) 1.22806(6)
O6G O 0.3596(2) 0.90201(6) 1.16347(6)
O7_2 O -0.2568(2) 0.93022(7) 1.35841(7)
O8G O 0.0109(2) 0.89703(7) 1.12819(6)
O15O O -0.1401(2) 0.92382(6) 1.45468(6)
H15O H -0.241(3) 0.9255(11) 1.4661(10)
H16O H -0.087(5) 0.9274(14) 1.4810(9)
O9 O 0.7871(3) 0.99919(8) 1.20641(8)
O11 O 0.6632(7) 0.7430(2) 1.1477(3)
O10? O 0.7007(6) 0.75161(16) 1.2146(2)
loop_
_geom_bond_atom_site_label_1
_geom_bond_atom_site_label_2
_geom_bond_site_symmetry_1
_geom_bond_site_symmetry_2
C1 C2 1_555 1_555
C2 C4 1_555 1_555
C3 C4 1_555 1_555
C4 H3 1_555 1_555
C5 C6 1_555 1_555
C6 C7 1_555 1_555
C7 C2 1_555 1_555
C8 C7 1_555 1_555
Co1 O1 1_555 1_555
Co2 O5 1_555 1_555
O1 C1 1_555 1_555
O2 C1 1_555 1_555
O3 C5 1_555 1_555
O4 C5 1_555 1_555
O5 C3 1_555 1_555
O6 C3 1_555 1_555
O7 C8 1_555 1_555
O8 C8 1_555 1_555
O12 Co2 1_555 1_555
O13 Co2 1_555 1_555
O14 Co2 1_555 1_555
O15 Co1 1_555 1_555
O16 Co1 1_555 1_555
H1 C6 1_555 1_555
H2 C6 1_555 1_555
H4 C4 1_555 1_555
H5 C2 1_555 1_555
H6 C7 1_555 1_555
H7 O12 1_555 1_555
H8 O12 1_555 1_555
H9 O14 1_555 1_555
H10 O13 1_555 1_555
H11 O14 1_555 1_555
H12 O13 1_555 1_555
H13 O16 1_555 1_555
H14 O16 1_555 1_555
H15 O15 1_555 1_555
H16 O15 1_555 1_555
Co1_2 O3 1_555 1_555
Co1O O6 1_555 1_555
Co1O_2 O8 1_555 1_555
Co2_2 O7 1_555 1_555
Co2G O15 1_555 1_555
O3_2 Co1 1_555 1_555
O6G Co1 1_555 1_555
O7_2 Co2 1_555 1_555
O8G Co1 1_555 1_555
O15O Co2 1_555 1_555
H15O O15O 1_555 1_555
H16O O15O 1_555 1_555
Co1O O15O 1_555 1_555

#END
