
#######################################################################
#
#                 Cambridge Crystallographic Data Centre
#                                CCDC 
#
#######################################################################
#
# If this CIF has been generated from an entry in the Cambridge 
# Structural Database, then it will include bibliographic, chemical, 
# crystal, experimental, refinement or atomic coordinate data resulting 
# from the CCDC's data processing and validation procedures.
#
#######################################################################

data_CINMIW
_symmetry_cell_setting           monoclinic
_symmetry_space_group_name_H-M   'P 21/c'
_symmetry_Int_Tables_number      14
_space_group_name_Hall           '-P 2ybc'
loop_
_symmetry_equiv_pos_site_id
_symmetry_equiv_pos_as_xyz
1 x,y,z
2 -x,1/2+y,1/2-z
3 -x,-y,-z
4 x,1/2-y,1/2+z
_cell_length_a                   9.4004(12)
_cell_length_b                   14.1098(18)
_cell_length_c                   10.9211(14)
_cell_angle_alpha                90
_cell_angle_beta                 92.583(2)
_cell_angle_gamma                90
_cell_volume                     1447.08
loop_
_atom_site_label
_atom_site_type_symbol
_atom_site_fract_x
_atom_site_fract_y
_atom_site_fract_z
Tm1 Tm -0.379680(18) 0.152050(12) -0.437180(16)
O1 O -0.1954(3) 0.0456(2) -0.7808(3)
O2 O -0.3417(3) 0.0994(2) -0.6420(3)
O3 O -0.2223(3) 0.1898(2) -0.2750(3)
O4 O -0.0047(3) 0.1923(3) -0.1865(3)
O5 O 0.3927(3) 0.1547(2) -0.5222(4)
O6 O 0.3398(3) 0.0080(2) -0.5830(3)
O7 O -0.3420(3) 0.2856(2) -0.5507(3)
H1 H -0.3595 0.3421 -0.5286
H2 H -0.2937 0.2798 -0.6142
O8 O -0.4821(3) 0.2789(2) -0.3313(3)
H3 H -0.4299 0.3133 -0.2838
H4 H -0.5624 0.3015 -0.3552
O9 O -0.5121(3) 0.0845(2) -0.2808(3)
H5 H -0.5656 0.1201 -0.2404
H6 H -0.5376 0.0270 -0.2894
N1 N -0.1315(4) 0.1347(2) -0.4836(3)
C1 C -0.0944(4) 0.1016(3) -0.5926(4)
C2 C -0.0302(5) 0.1543(3) -0.3986(4)
C3 C 0.1125(4) 0.1449(3) -0.4197(4)
H7 H 0.1814 0.1627 -0.3604
C4 C 0.1512(4) 0.1083(3) -0.5312(4)
C5 C 0.0458(4) 0.0847(3) -0.6194(4)
H8 H 0.0689 0.0583 -0.6940
C6 C -0.2188(5) 0.0809(3) -0.6802(4)
C7 C -0.0869(5) 0.1820(3) -0.2752(4)
C8 C 0.3054(4) 0.0881(3) -0.5485(4)
Tm1_2 Tm 0.620320(18) 0.152050(12) -0.437180(16)
Tm1B Tm 0.379680(18) -0.152050(12) -0.562820(16)
O5_2 O -0.6073(3) 0.1547(2) -0.5222(4)
O6B O -0.3398(3) -0.0080(2) -0.4170(3)
O10 O -0.3640(4) 0.4687(3) -0.4928(4)
H9 H -0.3124 0.4785 -0.4281
H10 H -0.3527 0.5051 -0.5536
O11 O -0.2958(4) 0.6708(2) -0.3600(3)
H11 H -0.2065 0.6621 -0.3496
H12 H -0.3225 0.7267 -0.3792
O12 O -0.7217(5) 0.3851(4) -0.3483(5)
H13 H -0.7438 0.3675 -0.4215
H14 H -0.7080 0.3400 -0.2932
O13 O 0.0067(5) 0.1259(4) -0.9386(5)
H15 H 0.0246 0.0720 -0.9696
H16 H -0.0732 0.1310 -0.9059
loop_
_geom_bond_atom_site_label_1
_geom_bond_atom_site_label_2
_geom_bond_site_symmetry_1
_geom_bond_site_symmetry_2
Tm1 O2 1_555 1_555
O1 C6 1_555 1_555
O2 C6 1_555 1_555
O3 Tm1 1_555 1_555
O4 C7 1_555 1_555
O5 C8 1_555 1_555
O6 C8 1_555 1_555
O7 Tm1 1_555 1_555
H1 O7 1_555 1_555
H2 O7 1_555 1_555
O8 Tm1 1_555 1_555
H3 O8 1_555 1_555
H4 O8 1_555 1_555
O9 Tm1 1_555 1_555
H5 O9 1_555 1_555
H6 O9 1_555 1_555
N1 Tm1 1_555 1_555
C1 N1 1_555 1_555
C2 N1 1_555 1_555
C3 C2 1_555 1_555
H7 C3 1_555 1_555
C4 C3 1_555 1_555
C5 C1 1_555 1_555
H8 C5 1_555 1_555
C6 C1 1_555 1_555
C7 O3 1_555 1_555
C8 C4 1_555 1_555
O10 H9 1_555 1_555
H10 O10 1_555 1_555
O11 H11 1_555 1_555
H12 O11 1_555 1_555
O12 H13 1_555 1_555
H14 O12 1_555 1_555
O13 H15 1_555 1_555
H16 O13 1_555 1_555
Tm1_2 O5 1_555 1_555
Tm1B O6 1_555 1_555
O5_2 Tm1 1_555 1_555
O6B Tm1 1_555 1_555
C2 C7 1_555 1_555
C4 C5 1_555 1_555

#END
