
#######################################################################
#
#                 Cambridge Crystallographic Data Centre
#                                CCDC 
#
#######################################################################
#
# If this CIF has been generated from an entry in the Cambridge 
# Structural Database, then it will include bibliographic, chemical, 
# crystal, experimental, refinement or atomic coordinate data resulting 
# from the CCDC's data processing and validation procedures.
#
#######################################################################

data_CINMUI
_symmetry_cell_setting           monoclinic
_symmetry_space_group_name_H-M   'P 21/c'
_symmetry_Int_Tables_number      14
_space_group_name_Hall           '-P 2ybc'
loop_
_symmetry_equiv_pos_site_id
_symmetry_equiv_pos_as_xyz
1 x,y,z
2 -x,1/2+y,1/2-z
3 -x,-y,-z
4 x,1/2-y,1/2+z
_cell_length_a                   9.3875(6)
_cell_length_b                   14.0961(10)
_cell_length_c                   10.9245(7)
_cell_angle_alpha                90
_cell_angle_beta                 92.6090(10)
_cell_angle_gamma                90
_cell_volume                     1444.11
loop_
_atom_site_label
_atom_site_type_symbol
_atom_site_fract_x
_atom_site_fract_y
_atom_site_fract_z
Yb1 Yb -0.120510(13) 0.152090(9) -0.563000(12)
O1 O -0.1570(2) 0.09922(17) -0.3587(2)
O2 O -0.3039(2) 0.0459(2) -0.2194(2)
O3 O -0.8398(2) 0.00746(16) -0.4174(2)
O4 O -0.8928(2) 0.15382(16) -0.4786(2)
O5 O -0.4954(2) 0.1927(2) -0.8140(2)
O6 O -0.2765(2) 0.19002(17) -0.7250(2)
O7 O -0.1575(2) 0.28515(17) -0.4498(2)
H1 H -0.1406 0.3408 -0.4755
H2 H -0.2083 0.2821 -0.3875
O8 O -0.0187(2) 0.27880(17) -0.6680(2)
H3 H 0.0651 0.3008 -0.6561
H4 H -0.0757 0.3116 -0.7134
O9 O 0.0116(2) 0.08455(17) -0.7189(2)
H5 H 0.0330 0.0261 -0.7122
H6 H 0.0663 0.1175 -0.7620
N1 N -0.3677(3) 0.13483(17) -0.5165(2)
C1 C -0.4050(3) 0.1014(2) -0.4078(3)
C2 C -0.5450(3) 0.0847(2) -0.3819(3)
H7 H -0.5680 0.0583 -0.3073
C3 C -0.6516(3) 0.1079(2) -0.4697(3)
C4 C -0.6130(3) 0.1450(2) -0.5811(3)
H8 H -0.6820 0.1631 -0.6402
C5 C -0.4694(3) 0.1544(2) -0.6023(3)
C6 C -0.2798(3) 0.0803(2) -0.3199(3)
C7 C -0.8061(3) 0.0877(2) -0.4521(3)
C8 C -0.4124(3) 0.1820(2) -0.7245(3)
Yb1B Yb -0.879490(13) -0.152090(9) -0.437000(12)
Yb1_2 Yb -1.120510(13) 0.152090(9) -0.563000(12)
O3B O -0.1602(2) -0.00746(16) -0.5826(2)
O4_2 O 0.1072(2) 0.15382(16) -0.4786(2)
O10 O -0.1363(3) 0.0318(2) -0.0076(3)
H9 H -0.1862 0.0373 -0.0741
H10 H -0.1600 -0.0112 0.0421
O11 O -0.2038(3) 0.6713(2) -0.6401(3)
H11 H -0.2936 0.6637 -0.6487
H12 H -0.1766 0.7205 -0.6006
O12 O -0.5063(4) 0.1245(3) -0.0621(3)
H13 H -0.5049 0.1143 0.0146
H14 H -0.4378 0.1021 -0.1014
O13 O -0.7777(4) 0.1157(3) -0.1535(4)
H15 H -0.8365 0.1579 -0.1327
H16 H -0.6933 0.1197 -0.1223
loop_
_geom_bond_atom_site_label_1
_geom_bond_atom_site_label_2
_geom_bond_site_symmetry_1
_geom_bond_site_symmetry_2
Yb1 O1 1_555 1_555
O1 C6 1_555 1_555
O2 C6 1_555 1_555
O3 C7 1_555 1_555
O4 C7 1_555 1_555
O5 C8 1_555 1_555
O6 Yb1 1_555 1_555
O7 Yb1 1_555 1_555
H1 O7 1_555 1_555
H2 O7 1_555 1_555
O8 Yb1 1_555 1_555
H3 O8 1_555 1_555
H4 O8 1_555 1_555
O9 Yb1 1_555 1_555
H5 O9 1_555 1_555
H6 O9 1_555 1_555
N1 Yb1 1_555 1_555
C1 N1 1_555 1_555
C2 C1 1_555 1_555
H7 C2 1_555 1_555
C3 C2 1_555 1_555
C4 C3 1_555 1_555
H8 C4 1_555 1_555
C5 N1 1_555 1_555
C6 C1 1_555 1_555
C7 C3 1_555 1_555
C8 O6 1_555 1_555
O10 H9 1_555 1_555
H10 O10 1_555 1_555
O11 H11 1_555 1_555
H12 O11 1_555 1_555
O12 H13 1_555 1_555
H14 O12 1_555 1_555
O13 H15 1_555 1_555
H16 O13 1_555 1_555
Yb1B O3 1_555 1_555
Yb1_2 O4 1_555 1_555
O3B Yb1 1_555 1_555
O4_2 Yb1 1_555 1_555
C4 C5 1_555 1_555
C5 C8 1_555 1_555

#END
