
#######################################################################
#
#                 Cambridge Crystallographic Data Centre
#                                CCDC 
#
#######################################################################
#
# If this CIF has been generated from an entry in the Cambridge 
# Structural Database, then it will include bibliographic, chemical, 
# crystal, experimental, refinement or atomic coordinate data resulting 
# from the CCDC's data processing and validation procedures.
#
#######################################################################

data_CINMOC
_symmetry_cell_setting           orthorhombic
_symmetry_space_group_name_H-M   'P n a 21'
_symmetry_Int_Tables_number      33
_space_group_name_Hall           'P 2c -2n'
loop_
_symmetry_equiv_pos_site_id
_symmetry_equiv_pos_as_xyz
1 x,y,z
2 -x,-y,1/2+z
3 1/2+x,1/2-y,z
4 1/2-x,1/2+y,1/2+z
_cell_length_a                   6.7382(8)
_cell_length_b                   13.1824(17)
_cell_length_c                   17.537(2)
_cell_angle_alpha                90
_cell_angle_beta                 90
_cell_angle_gamma                90
_cell_volume                     1557.74
loop_
_atom_site_label
_atom_site_type_symbol
_atom_site_fract_x
_atom_site_fract_y
_atom_site_fract_z
Ho1 Ho 1.008693(18) 0.538907(9) 0.48462(3)
N1 N 0.9601(4) 0.6394(2) 0.36573(17)
O1 O 1.0754(4) 0.4517(2) 0.37033(15)
O2 O 1.0669(5) 0.4348(2) 0.24326(16)
O3 O 0.8944(3) 0.7090(2) 0.50079(13)
O4 O 0.8017(3) 0.86205(19) 0.45795(13)
O5 O 0.8705(4) 0.7750(2) 0.10151(15)
O6 O 0.9696(5) 0.9104(3) 0.16674(19)
C1 C 0.9885(4) 0.5958(3) 0.2974(2)
C2 C 0.9719(5) 0.6501(3) 0.2300(2)
H1 H 0.9805 0.6175 0.1831
C3 C 0.9420(5) 0.7545(3) 0.2341(2)
C4 C 0.9168(5) 0.7991(3) 0.3045(2)
H2 H 0.8991 0.8689 0.3086
C5 C 0.9182(5) 0.7387(3) 0.3692(2)
C6 C 1.0458(5) 0.4849(3) 0.3035(2)
C7 C 0.9290(6) 0.8186(3) 0.1610(2)
C8 C 0.8679(5) 0.7750(3) 0.4493(2)
O7 O 1.3111(3) 0.4342(2) 0.50401(14)
H3 H 1.3346 0.3824 0.4766
H4 H 1.3526 0.4259 0.5493
O8 O 0.9264(4) 0.3721(2) 0.52802(16)
H5 H 0.812(2) 0.353(3) 0.543(2)
H6 H 1.024(3) 0.338(3) 0.545(2)
O9 O 0.6875(4) 0.5038(3) 0.42914(17)
H7 H 0.6636 0.4921 0.3824
H8 H 0.5801 0.5106 0.4541
O10 O 0.7461(4) 0.5456(2) 0.57749(15)
H9 H 0.6663 0.5954 0.5804
H10 H 0.6893 0.4916 0.5924
O11 O 1.1436(4) 0.5724(2) 0.60760(15)
H11 H 1.2471 0.6092 0.6084
H12 H 1.0896 0.5718 0.6514
Ho1B Ho 0.508693(18) 0.961093(9) 0.48462(3)
O4B O 1.3017(3) 0.63795(19) 0.45795(13)
O12 O 0.4870(4) 0.6873(2) 0.63097(18)
H13 H 0.4757 0.7284 0.5939
H14 H 0.5730 0.7232 0.6540
O13 O 0.5853(5) 0.4488(3) 0.28125(19)
H15 H 0.5536 0.4891 0.2458
H16 H 0.5016 0.4036 0.2936
O14 O 0.2927(4) 0.2611(2) 0.2604(2)
H17 H 0.3004 0.2394 0.3063
H18 H 0.1967 0.3009 0.2504
O15 O 0.874(11) 0.232(3) 0.4072(12)
O16? O 0.953(6) 0.213(2) 0.4138(12)
loop_
_geom_bond_atom_site_label_1
_geom_bond_atom_site_label_2
_geom_bond_site_symmetry_1
_geom_bond_site_symmetry_2
Ho1 N1 1_555 1_555
N1 C1 1_555 1_555
O1 Ho1 1_555 1_555
O2 C6 1_555 1_555
O3 Ho1 1_555 1_555
O4 C8 1_555 1_555
O5 C7 1_555 1_555
O6 C7 1_555 1_555
C1 C2 1_555 1_555
C2 H1 1_555 1_555
C3 C2 1_555 1_555
C4 C3 1_555 1_555
H2 C4 1_555 1_555
C5 N1 1_555 1_555
C6 O1 1_555 1_555
C7 C3 1_555 1_555
C8 O3 1_555 1_555
O7 Ho1 1_555 1_555
H3 O7 1_555 1_555
H4 O7 1_555 1_555
O8 Ho1 1_555 1_555
H5 O8 1_555 1_555
H6 O8 1_555 1_555
O9 Ho1 1_555 1_555
H7 O9 1_555 1_555
H8 O9 1_555 1_555
O10 Ho1 1_555 1_555
H9 O10 1_555 1_555
H10 O10 1_555 1_555
O11 Ho1 1_555 1_555
H11 O11 1_555 1_555
H12 O11 1_555 1_555
O12 H13 1_555 1_555
H14 O12 1_555 1_555
O13 H15 1_555 1_555
H16 O13 1_555 1_555
O14 H17 1_555 1_555
H18 O14 1_555 1_555
Ho1B O4 1_555 1_555
O4B Ho1 1_555 1_555
C1 C6 1_555 1_555
C4 C5 1_555 1_555
C5 C8 1_555 1_555

#END
