
#######################################################################
#
#                 Cambridge Crystallographic Data Centre
#                                CCDC 
#
#######################################################################
#
# If this CIF has been generated from an entry in the Cambridge 
# Structural Database, then it will include bibliographic, chemical, 
# crystal, experimental, refinement or atomic coordinate data resulting 
# from the CCDC's data processing and validation procedures.
#
#######################################################################

data_CINNOD
_symmetry_cell_setting           monoclinic
_symmetry_space_group_name_H-M   'P 21/c'
_symmetry_Int_Tables_number      14
_space_group_name_Hall           '-P 2ybc'
loop_
_symmetry_equiv_pos_site_id
_symmetry_equiv_pos_as_xyz
1 x,y,z
2 -x,1/2+y,1/2-z
3 -x,-y,-z
4 x,1/2-y,1/2+z
_cell_length_a                   9.4389(11)
_cell_length_b                   14.1624(18)
_cell_length_c                   10.9400(13)
_cell_angle_alpha                90
_cell_angle_beta                 92.614(2)
_cell_angle_gamma                90
_cell_volume                     1460.91
loop_
_atom_site_label
_atom_site_type_symbol
_atom_site_fract_x
_atom_site_fract_y
_atom_site_fract_z
Er1 Er 0.120262(15) -0.152023(11) 0.062648(14)
O1 O 0.8400(3) -0.00834(19) -0.0832(3)
O2 O 0.8915(3) -0.15484(19) -0.0229(3)
O3 O 0.4964(3) -0.1926(2) 0.3128(2)
O4 O 0.2787(3) -0.19025(19) 0.2245(2)
O5 O 0.1591(2) -0.09931(19) -0.1426(2)
O6 O 0.3050(3) -0.0465(2) -0.2816(2)
O7 O -0.0130(3) -0.0839(2) 0.2191(2)
H1 H -0.0399 -0.0268 0.2113
H2 H -0.0665 -0.1202 0.2582
O8 O 0.0192(3) -0.27962(19) 0.1690(2)
H3 H -0.0654 -0.2992 0.1582
H4 H 0.0731 -0.3122 0.2174
O9 O 0.1581(3) -0.28609(19) -0.0512(2)
H5 H 0.2044 -0.2875 -0.1161
H6 H 0.1388 -0.3392 -0.0201
N1 N 0.3694(3) -0.1347(2) 0.0160(3)
C1 C 0.4140(4) -0.1817(3) 0.2247(3)
C2 C 0.4702(4) -0.1543(2) 0.1009(3)
C3 C 0.6131(4) -0.1450(3) 0.0805(3)
H7 H 0.6817 -0.1627 0.1398
C4 C 0.6514(4) -0.1083(2) -0.0314(3)
C5 C 0.8057(4) -0.0881(3) -0.0490(3)
C6 C 0.5460(3) -0.0845(3) -0.1191(3)
H8 H 0.5691 -0.0582 -0.1934
C7 C 0.4054(4) -0.1010(2) -0.0930(3)
C8 C 0.2811(4) -0.0808(3) -0.1812(3)
Er1B Er 0.879738(15) 0.152023(11) -0.062648(14)
Er1_2 Er 1.120262(15) -0.152023(11) 0.062648(14)
O1B O 0.1600(3) 0.00834(19) 0.0832(3)
O2_2 O -0.1085(3) -0.15484(19) -0.0229(3)
O10 O 0.8630(4) 0.0313(2) 0.4919(3)
H9 H 0.8051 0.0276 0.4303
H10 H 0.8527 -0.0080 0.5497
O11 O 0.5068(4) 0.8743(4) 0.5602(4)
H11 H 0.4260 0.8744 0.5925
H12 H 0.5299 0.9263 0.5266
O12 O 0.7784(4) 0.8834(4) 0.6531(4)
H13 H 0.8145 0.8566 0.5912
H14 H 0.6874 0.8825 0.6509
O13 O 0.7953(3) 0.8293(2) 0.3591(3)
H15 H 0.7072 0.8347 0.3384
H16 H 0.8197 0.7768 0.3922
loop_
_geom_bond_atom_site_label_1
_geom_bond_atom_site_label_2
_geom_bond_site_symmetry_1
_geom_bond_site_symmetry_2
Er1 O4 1_555 1_555
O1 C5 1_555 1_555
O2 C5 1_555 1_555
O3 C1 1_555 1_555
O4 C1 1_555 1_555
O5 Er1 1_555 1_555
O6 C8 1_555 1_555
O7 Er1 1_555 1_555
H1 O7 1_555 1_555
H2 O7 1_555 1_555
O8 Er1 1_555 1_555
H3 O8 1_555 1_555
H4 O8 1_555 1_555
O9 Er1 1_555 1_555
H5 O9 1_555 1_555
H6 O9 1_555 1_555
N1 Er1 1_555 1_555
C1 C2 1_555 1_555
C2 N1 1_555 1_555
C3 C2 1_555 1_555
H7 C3 1_555 1_555
C4 C3 1_555 1_555
C5 C4 1_555 1_555
C6 C4 1_555 1_555
H8 C6 1_555 1_555
C7 N1 1_555 1_555
C8 O5 1_555 1_555
O10 H9 1_555 1_555
H10 O10 1_555 1_555
O11 H11 1_555 1_555
H12 O11 1_555 1_555
O12 H13 1_555 1_555
H14 O12 1_555 1_555
O13 H15 1_555 1_555
H16 O13 1_555 1_555
Er1B O1 1_555 1_555
Er1_2 O2 1_555 1_555
O1B Er1 1_555 1_555
O2_2 Er1 1_555 1_555
C6 C7 1_555 1_555
C7 C8 1_555 1_555

#END
