
#######################################################################
#
#                 Cambridge Crystallographic Data Centre
#                                CCDC 
#
#######################################################################
#
# If this CIF has been generated from an entry in the Cambridge 
# Structural Database, then it will include bibliographic, chemical, 
# crystal, experimental, refinement or atomic coordinate data resulting 
# from the CCDC's data processing and validation procedures.
#
#######################################################################

data_CINNUJ
_symmetry_cell_setting           monoclinic
_symmetry_space_group_name_H-M   'P 21/c'
_symmetry_Int_Tables_number      14
_space_group_name_Hall           '-P 2ybc'
loop_
_symmetry_equiv_pos_site_id
_symmetry_equiv_pos_as_xyz
1 x,y,z
2 -x,1/2+y,1/2-z
3 -x,-y,-z
4 x,1/2-y,1/2+z
_cell_length_a                   9.463(3)
_cell_length_b                   14.190(4)
_cell_length_c                   10.944(3)
_cell_angle_alpha                90
_cell_angle_beta                 92.677(4)
_cell_angle_gamma                90
_cell_volume                     1467.96
loop_
_atom_site_label
_atom_site_type_symbol
_atom_site_fract_x
_atom_site_fract_y
_atom_site_fract_z
Dy1 Dy -0.380510(12) 0.151900(9) -0.437350(11)
O1 O -0.3400(2) 0.09901(15) -0.64347(18)
O2 O -0.1935(2) 0.04643(18) -0.78219(19)
O3 O 0.3397(2) 0.00962(15) -0.5835(2)
O4 O 0.3892(2) 0.15578(14) -0.5252(2)
O5 O -0.0023(2) 0.19192(18) -0.18750(19)
O6 O -0.2201(2) 0.19022(15) -0.27529(18)
O7 O -0.5162(2) 0.08301(15) -0.2811(2)
H1 H -0.5690 0.1166 -0.2378
H2 H -0.5371 0.0248 -0.2855
O8 O -0.4819(2) 0.28040(15) -0.32992(18)
H3 H -0.4324 0.3086 -0.2744
H4 H -0.5619 0.3051 -0.3485
O9 O -0.3411(2) 0.28701(15) -0.55194(18)
H5 H -0.2929 0.2859 -0.6155
H6 H -0.3581 0.3415 -0.5239
N1 N -0.1302(2) 0.13431(15) -0.4847(2)
C1 C -0.0939(3) 0.10128(19) -0.5931(2)
C2 C 0.0455(3) 0.08481(19) -0.6192(2)
H7 H 0.0683 0.0586 -0.6936
C3 C 0.1509(3) 0.10838(19) -0.5317(2)
C4 C 0.1124(3) 0.14474(19) -0.4205(3)
H8 H 0.1810 0.1625 -0.3613
C5 C -0.0297(3) 0.15404(19) -0.3991(3)
C6 C -0.2173(3) 0.0806(2) -0.6815(3)
C7 C 0.3047(3) 0.0893(2) -0.5499(2)
C8 C -0.0853(3) 0.1816(2) -0.2758(3)
Dy1B Dy 0.380510(12) -0.151900(9) -0.562650(11)
Dy1_2 Dy 0.619490(12) 0.151900(9) -0.437350(11)
O3B O -0.3397(2) -0.00962(15) -0.4165(2)
O4_2 O -0.6108(2) 0.15578(14) -0.5252(2)
O10 O -0.3627(3) 0.46893(18) -0.4937(3)
H9 H -0.3129 0.4767 -0.4278
H10 H -0.3870 0.5182 -0.5335
O11 O -0.2946(2) 0.66960(18) -0.3599(2)
H11 H -0.2065 0.6729 -0.3414
H12 H -0.3302 0.7176 -0.3961
O12 O -0.7225(3) 0.3818(3) -0.3473(3)
H13 H -0.7295 0.3593 -0.4193
H14 H -0.7529 0.4375 -0.3376
O13 O 0.0070(3) 0.1266(3) -0.9395(3)
H15 H 0.0229 0.0750 -0.9757
H16 H -0.0651 0.1267 -0.8961
loop_
_geom_bond_atom_site_label_1
_geom_bond_atom_site_label_2
_geom_bond_site_symmetry_1
_geom_bond_site_symmetry_2
Dy1 O1 1_555 1_555
O1 C6 1_555 1_555
O2 C6 1_555 1_555
O3 C7 1_555 1_555
O4 C7 1_555 1_555
O5 C8 1_555 1_555
O6 Dy1 1_555 1_555
O7 Dy1 1_555 1_555
H1 O7 1_555 1_555
H2 O7 1_555 1_555
O8 Dy1 1_555 1_555
H3 O8 1_555 1_555
H4 O8 1_555 1_555
O9 Dy1 1_555 1_555
H5 O9 1_555 1_555
H6 O9 1_555 1_555
N1 Dy1 1_555 1_555
C1 N1 1_555 1_555
C2 C1 1_555 1_555
H7 C2 1_555 1_555
C3 C2 1_555 1_555
C4 C3 1_555 1_555
H8 C4 1_555 1_555
C5 N1 1_555 1_555
C6 C1 1_555 1_555
C7 C3 1_555 1_555
C8 O6 1_555 1_555
O10 H9 1_555 1_555
H10 O10 1_555 1_555
O11 H11 1_555 1_555
H12 O11 1_555 1_555
O12 H13 1_555 1_555
H14 O12 1_555 1_555
O13 H15 1_555 1_555
H16 O13 1_555 1_555
Dy1B O3 1_555 1_555
Dy1_2 O4 1_555 1_555
O3B Dy1 1_555 1_555
O4_2 Dy1 1_555 1_555
C4 C5 1_555 1_555
C5 C8 1_555 1_555

#END
