
#######################################################################
#
#                 Cambridge Crystallographic Data Centre
#                                CCDC 
#
#######################################################################
#
# If this CIF has been generated from an entry in the Cambridge 
# Structural Database, then it will include bibliographic, chemical, 
# crystal, experimental, refinement or atomic coordinate data resulting 
# from the CCDC's data processing and validation procedures.
#
#######################################################################

data_CINNAP
_symmetry_cell_setting           orthorhombic
_symmetry_space_group_name_H-M   'P n a 21'
_symmetry_Int_Tables_number      33
_space_group_name_Hall           'P 2c -2n'
loop_
_symmetry_equiv_pos_site_id
_symmetry_equiv_pos_as_xyz
1 x,y,z
2 -x,-y,1/2+z
3 1/2+x,1/2-y,z
4 1/2-x,1/2+y,1/2+z
_cell_length_a                   6.7888(8)
_cell_length_b                   13.2489(15)
_cell_length_c                   17.704(2)
_cell_angle_alpha                90
_cell_angle_beta                 90
_cell_angle_gamma                90
_cell_volume                     1592.37
loop_
_atom_site_label
_atom_site_type_symbol
_atom_site_fract_x
_atom_site_fract_y
_atom_site_fract_z
Sm1 Sm -0.51220(2) -0.037180(13) 0.37968(4)
O1 O -0.5765(6) 0.0477(2) 0.2618(2)
O2 O -0.5604(6) 0.0630(3) 0.1370(2)
O3 O -0.3983(5) -0.2111(2) 0.39443(18)
O4 O -0.3116(5) -0.3625(2) 0.35139(18)
O5 O -0.4617(7) -0.4106(4) 0.0642(3)
O6 O -0.3734(6) -0.2771(3) -0.00116(19)
O7 O -0.1849(5) 0.0003(3) 0.3223(2)
H1 H -0.1494 -0.0292 0.2819
H2 H -0.1089 0.0429 0.3433
O8 O -0.4263(5) 0.1311(3) 0.4245(2)
H3 H -0.3636 0.1714 0.3959
H4 H -0.4600 0.1496 0.4686
O9 O -0.2438(6) -0.0448(3) 0.4728(2)
H5 H -0.1424 -0.0806 0.4642
H6 H -0.2531 -0.0118 0.5138
O10 O -0.6493(5) -0.0721(3) 0.5048(2)
H7 H -0.6948 -0.1304 0.5149
H8 H -0.6524 -0.0259 0.5380
O11 O -0.8150(5) 0.0710(3) 0.39860(19)
H9 H -0.9026 0.0734 0.3643
H10 H -0.8295 0.1050 0.4390
N1 N -0.4612(5) -0.1397(3) 0.2593(2)
C1 C -0.5447(7) 0.0138(4) 0.1966(3)
C2 C -0.4878(5) -0.0974(4) 0.1921(3)
C3 C -0.4701(6) -0.1509(4) 0.1254(3)
H11 H -0.4776 -0.1181 0.0790
C4 C -0.4406(7) -0.2556(3) 0.1291(3)
C5 C -0.4285(7) -0.3194(4) 0.0579(3)
C6 C -0.4175(7) -0.2987(3) 0.2004(3)
H12 H -0.4006 -0.3681 0.2049
C7 C -0.4195(7) -0.2398(3) 0.2635(3)
C8 C -0.3730(6) -0.2755(4) 0.3422(3)
Sm1B Sm -0.01220(2) -0.462820(13) 0.37968(4)
O4B O -0.8116(5) -0.1375(2) 0.35139(18)
O12 O -0.7904(7) -0.7643(3) 0.1554(3)
H13 H -0.7066 -0.8133 0.1552
H14 H -0.8127 -0.7363 0.1042
O13 O -0.0749(8) -0.9477(4) 0.1772(3)
H15 H -0.0683 -1.0026 0.1523
H16 H -0.1818 -0.9130 0.1745
O14 O -0.9036(13) -0.7768(4) 0.3022(3)
H17 H -0.7885 -0.7511 0.3027
H18 H -0.9999 -0.7349 0.3081
O15 O 0.0102(5) -0.1882(3) 0.5242(3)
H19 H -0.0506 -0.2223 0.5587
H20 H -0.0262 -0.1255 0.5204
loop_
_geom_bond_atom_site_label_1
_geom_bond_atom_site_label_2
_geom_bond_site_symmetry_1
_geom_bond_site_symmetry_2
Sm1 O1 1_555 1_555
O1 C1 1_555 1_555
O2 C1 1_555 1_555
O3 Sm1 1_555 1_555
O4 C8 1_555 1_555
O5 C5 1_555 1_555
O6 C5 1_555 1_555
O7 Sm1 1_555 1_555
H1 O7 1_555 1_555
H2 O7 1_555 1_555
O8 Sm1 1_555 1_555
H3 O8 1_555 1_555
H4 O8 1_555 1_555
O9 Sm1 1_555 1_555
H5 O9 1_555 1_555
H6 O9 1_555 1_555
O10 Sm1 1_555 1_555
H7 O10 1_555 1_555
H8 O10 1_555 1_555
O11 Sm1 1_555 1_555
H9 O11 1_555 1_555
H10 O11 1_555 1_555
N1 Sm1 1_555 1_555
C1 C2 1_555 1_555
C2 N1 1_555 1_555
C3 C2 1_555 1_555
H11 C3 1_555 1_555
C4 C3 1_555 1_555
C5 C4 1_555 1_555
C6 C4 1_555 1_555
H12 C6 1_555 1_555
C7 N1 1_555 1_555
C8 O3 1_555 1_555
O12 H13 1_555 1_555
H14 O12 1_555 1_555
O13 H15 1_555 1_555
H16 O13 1_555 1_555
O14 H17 1_555 1_555
H18 O14 1_555 1_555
O15 H19 1_555 1_555
H20 O15 1_555 1_555
Sm1B O4 1_555 1_555
O4B Sm1 1_555 1_555
C6 C7 1_555 1_555
C7 C8 1_555 1_555

#END
