
#######################################################################
#
#                 Cambridge Crystallographic Data Centre
#                                CCDC 
#
#######################################################################
#
# If this CIF has been generated from an entry in the Cambridge 
# Structural Database, then it will include bibliographic, chemical, 
# crystal, experimental, refinement or atomic coordinate data resulting 
# from the CCDC's data processing and validation procedures.
#
#######################################################################

data_CINWAY
_symmetry_cell_setting           monoclinic
_symmetry_space_group_name_H-M   'C 2/m'
_symmetry_Int_Tables_number      12
_space_group_name_Hall           '-C 2y'
loop_
_symmetry_equiv_pos_site_id
_symmetry_equiv_pos_as_xyz
1 x,y,z
2 1/2+x,1/2+y,z
3 -x,y,-z
4 1/2-x,1/2+y,-z
5 -x,-y,-z
6 1/2-x,1/2-y,-z
7 x,-y,z
8 1/2+x,1/2-y,z
_cell_length_a                   18.373(4)
_cell_length_b                   3.9648(8)
_cell_length_c                   7.5442(15)
_cell_angle_alpha                90
_cell_angle_beta                 92.74(3)
_cell_angle_gamma                90
_cell_volume                     548.931
loop_
_atom_site_label
_atom_site_type_symbol
_atom_site_fract_x
_atom_site_fract_y
_atom_site_fract_z
Br1 Br -0.0626(2) 0.0000 0.8003(5)
Mn1 Mn 0.0000 0.5000 1.0000
O1 O 0.0948(12) 0.5000 0.830(3)
C1 C 0.090(2) 0.5000 0.640(5)
H1 H 0.0637 0.7038 0.5949
C2 C 0.167(2) 0.5000 0.584(5)
H2 H 0.1771 0.2980 0.5122
C3 C 0.217(2) 0.5000 0.741(5)
H3 H 0.2484 0.7030 0.7428
C4 C 0.1679(19) 0.5000 0.901(7)
H4 H 0.1773 0.2978 0.9754
Br1_2 Br -0.0626(2) 1.0000 0.8003(5)
Br1D Br 0.0626(2) 0.0000 1.1997(5)
Br1D_2 Br 0.0626(2) 1.0000 1.1997(5)
Mn1_2 Mn 0.0000 -0.5000 1.0000
Mn1_3 Mn 0.0000 1.5000 1.0000
O1D O -0.0948(12) 0.5000 1.170(3)
C1D C -0.090(2) 0.5000 1.360(5)
H1F H 0.0637 0.2962 0.5949
H1D H -0.0637 0.2962 1.4051
H1B H -0.0637 0.7038 1.4051
C2D C -0.167(2) 0.5000 1.416(5)
H2F H 0.1771 0.7020 0.5122
H2D H -0.1771 0.7020 1.4878
H2B H -0.1771 0.2980 1.4878
C3D C -0.217(2) 0.5000 1.259(5)
H3F H 0.2484 0.2970 0.7428
H3D H -0.2484 0.2970 1.2572
H3B H -0.2484 0.7030 1.2572
C4D C -0.1679(19) 0.5000 1.099(7)
H4F H 0.1773 0.7022 0.9754
H4D H -0.1773 0.7022 1.0246
H4B H -0.1773 0.2978 1.0246
loop_
_geom_bond_atom_site_label_1
_geom_bond_atom_site_label_2
_geom_bond_site_symmetry_1
_geom_bond_site_symmetry_2
Br1 Mn1 1_555 1_555
Mn1 O1 1_555 1_555
O1 C1 1_555 1_555
C1 H1 1_555 1_555
C2 C1 1_555 1_555
H2 C2 1_555 1_555
C3 C2 1_555 1_555
H3 C3 1_555 1_555
C4 O1 1_555 1_555
H4 C4 1_555 1_555
Br1_2 Mn1 1_555 1_555
Br1D Mn1 1_555 1_555
Br1D_2 Mn1 1_555 1_555
Mn1_2 Br1 1_555 1_555
Mn1_3 Br1_2 1_555 1_555
O1D Mn1 1_555 1_555
C1D O1D 1_555 1_555
H1F C1 1_555 1_555
H1D C1D 1_555 1_555
H1B C1D 1_555 1_555
C2D C1D 1_555 1_555
H2F C2 1_555 1_555
H2D C2D 1_555 1_555
H2B C2D 1_555 1_555
C3D C2D 1_555 1_555
H3F C3 1_555 1_555
H3D C3D 1_555 1_555
H3B C3D 1_555 1_555
C4D O1D 1_555 1_555
H4F C4 1_555 1_555
H4D C4D 1_555 1_555
H4B C4D 1_555 1_555
C3 C4 1_555 1_555
Br1D Mn1_2 1_555 1_555
Br1D_2 Mn1_3 1_555 1_555
C3D C4D 1_555 1_555

#END
