
#######################################################################
#
#                 Cambridge Crystallographic Data Centre
#                                CCDC 
#
#######################################################################
#
# If this CIF has been generated from an entry in the Cambridge 
# Structural Database, then it will include bibliographic, chemical, 
# crystal, experimental, refinement or atomic coordinate data resulting 
# from the CCDC's data processing and validation procedures.
#
#######################################################################

data_CINYIJ
_symmetry_cell_setting           trigonal
_symmetry_space_group_name_H-M   'P 32'
_symmetry_Int_Tables_number      145
_space_group_name_Hall           'P 32'
loop_
_symmetry_equiv_pos_site_id
_symmetry_equiv_pos_as_xyz
1 x,y,z
2 -y,x-y,2/3+z
3 -x+y,-x,1/3+z
_cell_length_a                   11.1778(7)
_cell_length_b                   11.1778(7)
_cell_length_c                   27.6410(17)
_cell_angle_alpha                90
_cell_angle_beta                 90
_cell_angle_gamma                120
_cell_volume                     2990.87
loop_
_atom_site_label
_atom_site_type_symbol
_atom_site_fract_x
_atom_site_fract_y
_atom_site_fract_z
Mo1 Mo 1.15857(7) 0.71566(7) 0.31185(3)
Mo2 Mo 0.94565(8) 0.81303(7) 0.36164(3)
Mo3 Mo 0.67841(7) 0.53954(8) 0.41701(3)
Mo4 Mo 1.06339(7) 0.39100(7) 0.35212(3)
Mo5 Mo 0.70357(7) 0.25655(7) 0.39677(2)
P1 P 0.6806(3) 0.1897(2) 0.64054(7)
P2 P 1.0028(2) 0.5839(2) 0.42716(7)
O1 O 1.3067(7) 0.8529(7) 0.3339(2)
O2 O 1.1982(7) 0.7119(7) 0.2516(2)
O3 O 0.5587(8) 0.0402(6) 0.6419(2)
O4 O 1.1967(6) 0.5754(6) 0.3373(2)
O5 O 1.0399(7) 0.3137(7) 0.2967(2)
O6 O 1.1558(7) 0.3306(7) 0.3818(2)
O7 O 0.8809(6) 0.2773(6) 0.3777(2)
O8 O 1.0770(6) 0.5019(6) 0.4239(2)
O9 O 0.7012(7) 0.2063(7) 0.4553(2)
O10 O 0.5943(6) 0.3470(7) 0.4013(2)
O11 O 0.6269(8) 0.2878(6) 0.6520(2)
O12 O 0.8451(6) 0.4852(6) 0.4219(2)
O13 O 0.5506(7) 0.5660(8) 0.3945(3)
O14 O 1.0561(6) 0.6982(6) 0.3885(2)
O15 O 0.5899(7) 0.1041(7) 0.3696(2)
O16 O 0.8530(7) 0.8724(7) 0.3297(2)
O17 O 0.6559(7) 0.5327(7) 0.4779(2)
O18 O 0.7958(8) 0.2097(6) 0.6760(2)
O19 O 0.8328(6) 0.7290(6) 0.4166(2)
O20 O 1.0728(7) 0.9592(7) 0.3880(2)
O21 O 1.0409(7) 0.7919(6) 0.3064(2)
C1 C 0.7564(13) 0.2260(9) 0.5809(3)
H1 H 0.7809 0.1548 0.5726
H2 H 0.6863 0.2184 0.5574
C2 C 1.0306(9) 0.6687(8) 0.4853(3)
H3 H 1.1245 0.7507 0.4855
H4 H 0.9639 0.7020 0.4886
C3 C 1.0164(8) 0.5813(8) 0.5285(3)
C4 C 0.8955(9) 0.4524(9) 0.5362(3)
H5 H 0.8198 0.4219 0.5146
C5 C 0.8863(8) 0.3694(9) 0.5756(3)
C6 C 0.9979(9) 0.4175(9) 0.6077(3)
H6 H 0.9941 0.3612 0.6341
C7 C 1.1128(9) 0.5454(9) 0.6014(3)
H7 H 1.1859 0.5778 0.6243
C8 C 1.1243(9) 0.6282(9) 0.5622(3)
H8 H 1.2047 0.7161 0.5583
Mo1B Mo 0.55709(10) -0.15857(7) 0.64518(3)
Mo2B Mo 0.86738(11) 0.05435(8) 0.69497(3)
Mo3B Mo 0.86113(11) 0.32159(7) 0.75034(3)
Mo4B Mo 0.32761(10) -0.06339(7) 0.68545(3)
Mo5B Mo 0.55298(10) 0.29643(7) 0.73010(2)
O3A O 0.9598(6) 0.5185(10) 0.3086(2)
O11A O 0.7122(6) 0.3391(10) 0.3187(2)
O18A O 0.7903(6) 0.5861(10) 0.3427(2)
N1 N -0.1667(11) -0.2235(9) 0.1264(3)
H9 H -0.2124 -0.2781 0.1021
N2 N 0.0388(8) 0.0141(8) 0.2461(3)
H10 H -0.0182 0.0216 0.2662
N3 N 0.4392(8) 0.2125(8) 0.2963(3)
H11 H 0.5245 0.2549 0.3073
C9 C -0.0288(13) -0.1421(12) 0.1230(4)
H12 H 0.0182 -0.1427 0.0944
C10 C -0.2355(12) -0.2237(10) 0.1656(4)
H13 H -0.3335 -0.2773 0.1656
C11 C 0.0438(12) -0.0576(11) 0.1613(4)
H14 H 0.1404 0.0038 0.1582
C12 C -0.0219(10) -0.0608(9) 0.2045(3)
C13 C -0.1678(11) -0.1475(10) 0.2066(4)
H15 H -0.2177 -0.1532 0.2352
C14 C 0.1759(9) 0.0794(8) 0.2610(3)
C15 C 0.2811(11) 0.0671(10) 0.2379(3)
H16 H 0.2621 0.0107 0.2100
C16 C 0.2073(9) 0.1579(9) 0.3026(3)
H17 H 0.1370 0.1658 0.3191
C17 C 0.4107(10) 0.1381(10) 0.2565(4)
H18 H 0.4835 0.1339 0.2403
C18 C 0.3429(9) 0.2259(9) 0.3205(3)
H19 H 0.3658 0.2801 0.3491
N4 N 0.3991(9) -0.0816(9) 0.4390(3)
H20 H 0.4137 -0.1244 0.4150
N5 N 0.3503(10) 0.1309(10) 0.5521(3)
H21 H 0.3341 0.0863 0.5797
N6 N 0.3886(11) 0.5122(11) 0.5707(4)
H22 H 0.3998 0.5950 0.5759
C19 C 0.3388(10) -0.0046(10) 0.4300(4)
H23 H 0.3096 -0.0007 0.3980
C20 C 0.4364(11) -0.0934(11) 0.4834(4)
H24 H 0.4729 -0.1528 0.4892
C21 C 0.3194(10) 0.0669(10) 0.4656(4)
H25 H 0.2760 0.1196 0.4589
C22 C 0.4231(11) -0.0213(11) 0.5210(4)
H26 H 0.4533 -0.0276 0.5525
C23 C 0.3644(11) 0.0617(10) 0.5125(4)
C24 C 0.3573(10) 0.2558(11) 0.5552(4)
C25 C 0.3817(12) 0.3449(12) 0.5168(5)
H27 H 0.3881 0.3176 0.4848
C26 C 0.3463(13) 0.2984(14) 0.6027(5)
H28 H 0.3272 0.2380 0.6294
C27 C 0.3966(12) 0.4746(12) 0.5252(5)
H29 H 0.4123 0.5359 0.4991
C28 C 0.3634(12) 0.4262(14) 0.6094(5)
H30 H 0.3579 0.4561 0.6411
loop_
_geom_bond_atom_site_label_1
_geom_bond_atom_site_label_2
_geom_bond_site_symmetry_1
_geom_bond_site_symmetry_2
Mo1 O1 1_555 1_555
Mo2 O14 1_555 1_555
Mo3 O10 1_555 1_555
Mo4 O4 1_555 1_555
Mo5 O7 1_555 1_555
P1 O3 1_555 1_555
P2 O8 1_555 1_555
O2 Mo1 1_555 1_555
O3 Mo1B 1_555 1_555
O4 Mo1 1_555 1_555
O5 Mo4 1_555 1_555
O6 Mo4 1_555 1_555
O7 Mo4 1_555 1_555
O8 Mo4 1_555 1_555
O9 Mo5 1_555 1_555
O10 Mo5 1_555 1_555
O11 P1 1_555 1_555
O12 Mo3 1_555 1_555
O13 Mo3 1_555 1_555
O14 Mo1 1_555 1_555
O15 Mo5 1_555 1_555
O16 Mo2 1_555 1_555
O17 Mo3 1_555 1_555
O18 P1 1_555 1_555
O19 Mo2 1_555 1_555
O20 Mo2 1_555 1_555
O21 Mo1 1_555 1_555
C1 P1 1_555 1_555
H1 C1 1_555 1_555
H2 C1 1_555 1_555
C2 P2 1_555 1_555
H3 C2 1_555 1_555
H4 C2 1_555 1_555
C3 C2 1_555 1_555
C4 C3 1_555 1_555
H5 C4 1_555 1_555
C5 C1 1_555 1_555
C6 C5 1_555 1_555
H6 C6 1_555 1_555
C7 C6 1_555 1_555
H7 C7 1_555 1_555
C8 C3 1_555 1_555
H8 C8 1_555 1_555
N1 H9 1_555 1_555
N2 H10 1_555 1_555
N3 H11 1_555 1_555
C9 N1 1_555 1_555
H12 C9 1_555 1_555
C10 N1 1_555 1_555
H13 C10 1_555 1_555
C11 C9 1_555 1_555
H14 C11 1_555 1_555
C12 N2 1_555 1_555
C13 C10 1_555 1_555
H15 C13 1_555 1_555
C14 N2 1_555 1_555
C15 C14 1_555 1_555
H16 C15 1_555 1_555
C16 C14 1_555 1_555
H17 C16 1_555 1_555
C17 N3 1_555 1_555
H18 C17 1_555 1_555
C18 N3 1_555 1_555
H19 C18 1_555 1_555
N4 H20 1_555 1_555
N5 H21 1_555 1_555
N6 H22 1_555 1_555
C19 N4 1_555 1_555
H23 C19 1_555 1_555
C20 N4 1_555 1_555
H24 C20 1_555 1_555
C21 C19 1_555 1_555
H25 C21 1_555 1_555
C22 C20 1_555 1_555
H26 C22 1_555 1_555
C23 N5 1_555 1_555
C24 N5 1_555 1_555
C25 C24 1_555 1_555
H27 C25 1_555 1_555
C26 C24 1_555 1_555
H28 C26 1_555 1_555
C27 N6 1_555 1_555
H29 C27 1_555 1_555
C28 N6 1_555 1_555
H30 C28 1_555 1_555
Mo2B O18 1_555 1_555
Mo3B O18 1_555 1_555
Mo4B O3 1_555 1_555
Mo5B O11 1_555 1_555
O3A Mo1 1_555 1_555
O11A Mo5 1_555 1_555
O18A Mo2 1_555 1_555
Mo2 O21 1_555 1_555
Mo3 O19 1_555 1_555
Mo3 O18A 1_555 1_555
Mo4 O3A 1_555 1_555
Mo5 O12 1_555 1_555
P2 O12 1_555 1_555
P2 O14 1_555 1_555
C4 C5 1_555 1_555
C7 C8 1_555 1_555
C11 C12 1_555 1_555
C12 C13 1_555 1_555
C15 C17 1_555 1_555
C16 C18 1_555 1_555
C21 C23 1_555 1_555
C22 C23 1_555 1_555
C25 C27 1_555 1_555
C26 C28 1_555 1_555

#END
