
#######################################################################
#
#                 Cambridge Crystallographic Data Centre
#                                CCDC 
#
#######################################################################
#
# If this CIF has been generated from an entry in the Cambridge 
# Structural Database, then it will include bibliographic, chemical, 
# crystal, experimental, refinement or atomic coordinate data resulting 
# from the CCDC's data processing and validation procedures.
#
#######################################################################

data_CINYUV
_symmetry_cell_setting           orthorhombic
_symmetry_space_group_name_H-M   'P 21 21 21'
_symmetry_Int_Tables_number      19
_space_group_name_Hall           'P 2ac 2ab'
loop_
_symmetry_equiv_pos_site_id
_symmetry_equiv_pos_as_xyz
1 x,y,z
2 1/2-x,-y,1/2+z
3 -x,1/2+y,1/2-z
4 1/2+x,1/2-y,-z
_cell_length_a                   14.574(3)
_cell_length_b                   17.358(3)
_cell_length_c                   20.413(4)
_cell_angle_alpha                90
_cell_angle_beta                 90
_cell_angle_gamma                90
_cell_volume                     5163.99
loop_
_atom_site_label
_atom_site_type_symbol
_atom_site_fract_x
_atom_site_fract_y
_atom_site_fract_z
Mo1 Mo 0.46730(5) 1.05527(4) 0.04360(3)
Mo2 Mo 0.41800(5) 1.20117(4) 0.14679(4)
Mo3 Mo 0.22436(5) 1.16188(4) 0.22870(4)
Mo4 Mo 0.12277(5) 0.99822(4) 0.15184(3)
Mo5 Mo 0.31402(5) 0.91297(4) 0.06053(4)
P1 P 0.36256(15) 1.01276(13) 0.19342(10)
P2 P 0.25662(15) 0.88578(12) 0.56068(11)
O1 O 0.4377(4) 0.9494(3) 0.0505(3)
O2 O 0.4729(4) 1.0668(3) -0.0396(3)
O3 O 0.5791(4) 1.0493(3) 0.0668(3)
O4 O 0.4447(4) 1.1638(3) 0.0616(3)
O5 O 0.4252(4) 1.0667(3) 0.1541(3)
O6 O 0.5239(4) 1.2070(4) 0.1821(3)
O7 O 0.3912(4) 1.2943(3) 0.1296(3)
O8 O 0.3485(4) 1.1861(3) 0.2280(3)
O9 O 0.1708(4) 1.2490(3) 0.2193(3)
O10 O 0.2135(4) 1.1435(3) 0.3095(3)
O11 O 0.1088(4) 1.1042(3) 0.1960(3)
O12 O 0.2645(4) 1.0469(3) 0.1997(3)
O13 O 0.0149(4) 0.9870(3) 0.1215(3)
O14 O 0.1152(4) 0.9495(3) 0.2247(3)
O15 O 0.1936(4) 0.9305(3) 0.1018(3)
O16 O 0.3561(4) 0.9337(3) 0.1638(3)
O17 O 0.3348(4) 0.8179(3) 0.0735(3)
O18 O 0.2793(4) 0.9135(3) -0.0191(3)
O19 O 0.1854(4) 0.9502(3) 0.5503(3)
O20 O 0.2295(4) 0.8317(3) 0.6175(3)
O21 O 0.3497(4) 0.9216(3) 0.5725(3)
C1 C 0.4139(6) 1.0063(5) 0.2731(4)
H1 H 0.4768 0.9892 0.2673
H2 H 0.4164 1.0579 0.2912
C2 C 0.3697(6) 0.9547(5) 0.3235(4)
C3 C 0.2821(6) 0.9696(5) 0.3470(4)
H3 H 0.2471 1.0081 0.3276
C4 C 0.4182(6) 0.8953(5) 0.3525(4)
H4 H 0.4761 0.8830 0.3364
C5 C 0.2460(6) 0.9281(5) 0.3988(4)
H5 H 0.1871 0.9392 0.4136
C6 C 0.3834(6) 0.8537(5) 0.4044(4)
H6 H 0.4181 0.8145 0.4230
C7 C 0.2963(6) 0.8703(5) 0.4291(4)
C8 C 0.2599(6) 0.8280(5) 0.4882(4)
H7 H 0.2981 0.7832 0.4963
H8 H 0.1983 0.8099 0.4787
Mo1A Mo 0.03270(5) 0.94473(4) 0.54360(3)
Mo2A Mo 0.08200(5) 0.79883(4) 0.64679(4)
Mo3A Mo 0.27564(5) 0.83812(4) 0.72870(4)
Mo4A Mo 0.37723(5) 1.00178(4) 0.65184(3)
Mo5A Mo 0.18598(5) 1.08703(4) 0.56053(4)
O19A O 0.3146(4) 1.0498(3) 0.0503(3)
O20A O 0.2705(4) 1.1683(3) 0.1175(3)
O21A O 0.1503(4) 1.0784(3) 0.0725(3)
Co1 Co 0.77506(8) 0.91804(7) 0.89269(5)
N1 N 0.6430(5) 0.9270(4) 0.8920(3)
N2 N 0.7539(5) 0.8567(4) 0.9701(3)
N3 N 0.8000(5) 1.0024(4) 0.9513(3)
N4 N 0.9051(5) 0.9031(4) 0.8980(3)
N5 N 0.7967(5) 0.9797(4) 0.8151(3)
N6 N 0.7574(5) 0.8375(4) 0.8295(3)
C9 C 0.5921(6) 0.9562(5) 0.8440(4)
H9 H 0.6204 0.9849 0.8113
C10 C 0.4983(6) 0.9451(5) 0.8413(4)
H10 H 0.4641 0.9665 0.8075
C11 C 0.4555(6) 0.9016(5) 0.8899(4)
H11 H 0.3926 0.8927 0.8884
C12 C 0.5073(6) 0.8721(5) 0.9399(4)
H12 H 0.4803 0.8433 0.9731
C13 C 0.6017(6) 0.8862(4) 0.9400(4)
C14 C 0.6644(6) 0.8539(5) 0.9897(4)
C15 C 0.6379(6) 0.8262(5) 1.0493(4)
H13 H 0.5765 0.8267 1.0617
C16 C 0.7050(7) 0.7973(5) 1.0910(4)
H14 H 0.6892 0.7794 1.1325
C17 C 0.7959(6) 0.7953(5) 1.0704(4)
H15 H 0.8414 0.7738 1.0966
C18 C 0.8164(6) 0.8259(5) 1.0102(4)
H16 H 0.8772 0.8251 0.9964
C19 C 0.7383(6) 1.0499(5) 0.9767(4)
H17 H 0.6768 1.0425 0.9666
C20 C 0.7621(7) 1.1094(5) 1.0176(4)
H18 H 0.7171 1.1407 1.0359
C21 C 0.8537(6) 1.1224(5) 1.0312(4)
H19 H 0.8714 1.1638 1.0573
C22 C 0.9189(7) 1.0726(5) 1.0053(4)
H20 H 0.9808 1.0794 1.0148
C23 C 0.8907(6) 1.0133(5) 0.9656(4)
C24 C 0.9505(6) 0.9546(5) 0.9369(4)
C25 C 1.0448(6) 0.9484(5) 0.9470(4)
H21 H 1.0751 0.9833 0.9740
C26 C 1.0919(6) 0.8908(5) 0.9170(4)
H22 H 1.1549 0.8861 0.9230
C27 C 1.0448(6) 0.8387(6) 0.8771(4)
H23 H 1.0764 0.7993 0.8560
C28 C 0.9524(6) 0.8460(5) 0.8692(4)
H24 H 0.9213 0.8105 0.8433
C29 C 0.8124(6) 1.0556(5) 0.8127(4)
H25 H 0.8039 1.0854 0.8501
C30 C 0.8412(6) 1.0905(5) 0.7553(4)
H26 H 0.8499 1.1436 0.7541
C31 C 0.8568(6) 1.0476(5) 0.7006(4)
H27 H 0.8791 1.0704 0.6626
C32 C 0.8386(6) 0.9692(5) 0.7030(4)
H28 H 0.8477 0.9387 0.6661
C33 C 0.8074(6) 0.9372(5) 0.7598(4)
C34 C 0.7806(6) 0.8561(5) 0.7678(4)
C35 C 0.7756(6) 0.8039(5) 0.7168(4)
H29 H 0.7929 0.8179 0.6746
C36 C 0.7445(6) 0.7309(5) 0.7302(5)
H30 H 0.7424 0.6942 0.6971
C37 C 0.7166(6) 0.7123(5) 0.7919(4)
H31 H 0.6933 0.6636 0.8009
C38 C 0.7235(6) 0.7665(5) 0.8410(4)
H32 H 0.7043 0.7539 0.8831
O22 O 0.4835(5) 0.8130(4) 0.1982(3)
H33 H 0.453(6) 0.853(3) 0.203(4)
H34 H 0.493(7) 0.797(5) 0.237(2)
O23 O 0.9524(6) 0.3041(5) 0.4367(4)
H35 H 0.987(7) 0.305(6) 0.403(4)
H36 H 0.931(8) 0.349(3) 0.442(6)
O24 O 0.9587(6) 0.3605(4) 0.1703(3)
H37 H 0.926(7) 0.388(5) 0.194(4)
H38 H 0.954(8) 0.380(5) 0.132(2)
O25 O 0.9836(5) 0.1968(4) 0.1491(3)
H39 H 0.961(7) 0.155(3) 0.158(4)
H40 H 0.983(7) 0.225(4) 0.182(3)
O26 O 0.0421(7) 0.2577(5) 0.0356(4)
H41 H 0.005(6) 0.281(5) 0.012(5)
H42 H 0.070(7) 0.283(5) 0.064(4)
O28 O 0.1340(9) 0.3612(8) 0.1265(6)
O29 O 0.0390(10) 0.3169(7) 0.3104(5)
H43 H 0.030(13) 0.276(5) 0.333(6)
H44 H 0.060(12) 0.302(8) 0.273(4)
O27? O 0.1656(16) 0.3304(14) 0.1059(11)
loop_
_geom_bond_atom_site_label_1
_geom_bond_atom_site_label_2
_geom_bond_site_symmetry_1
_geom_bond_site_symmetry_2
Mo1 O1 1_555 1_555
Mo2 O4 1_555 1_555
Mo3 O8 1_555 1_555
Mo4 O11 1_555 1_555
Mo5 O1 1_555 1_555
P1 O5 1_555 1_555
P2 O19 1_555 1_555
O2 Mo1 1_555 1_555
O3 Mo1 1_555 1_555
O4 Mo1 1_555 1_555
O5 Mo1 1_555 1_555
O6 Mo2 1_555 1_555
O7 Mo2 1_555 1_555
O8 Mo2 1_555 1_555
O9 Mo3 1_555 1_555
O10 Mo3 1_555 1_555
O11 Mo3 1_555 1_555
O12 Mo3 1_555 1_555
O13 Mo4 1_555 1_555
O14 Mo4 1_555 1_555
O15 Mo4 1_555 1_555
O16 Mo5 1_555 1_555
O17 Mo5 1_555 1_555
O18 Mo5 1_555 1_555
O19 Mo1A 1_555 1_555
O20 P2 1_555 1_555
O21 P2 1_555 1_555
C1 P1 1_555 1_555
H1 C1 1_555 1_555
H2 C1 1_555 1_555
C2 C1 1_555 1_555
C3 C2 1_555 1_555
H3 C3 1_555 1_555
C4 C2 1_555 1_555
H4 C4 1_555 1_555
C5 C3 1_555 1_555
H5 C5 1_555 1_555
C6 C4 1_555 1_555
H6 C6 1_555 1_555
C7 C5 1_555 1_555
C8 P2 1_555 1_555
H7 C8 1_555 1_555
H8 C8 1_555 1_555
Co1 N1 1_555 1_555
N1 C9 1_555 1_555
N2 Co1 1_555 1_555
N3 Co1 1_555 1_555
N4 Co1 1_555 1_555
N5 Co1 1_555 1_555
N6 Co1 1_555 1_555
C9 H9 1_555 1_555
C10 C9 1_555 1_555
H10 C10 1_555 1_555
C11 C10 1_555 1_555
H11 C11 1_555 1_555
C12 C11 1_555 1_555
H12 C12 1_555 1_555
C13 N1 1_555 1_555
C14 N2 1_555 1_555
C15 C14 1_555 1_555
H13 C15 1_555 1_555
C16 C15 1_555 1_555
H14 C16 1_555 1_555
C17 C16 1_555 1_555
H15 C17 1_555 1_555
C18 N2 1_555 1_555
H16 C18 1_555 1_555
C19 N3 1_555 1_555
H17 C19 1_555 1_555
C20 C19 1_555 1_555
H18 C20 1_555 1_555
C21 C20 1_555 1_555
H19 C21 1_555 1_555
C22 C21 1_555 1_555
H20 C22 1_555 1_555
C23 N3 1_555 1_555
C24 N4 1_555 1_555
C25 C24 1_555 1_555
H21 C25 1_555 1_555
C26 C25 1_555 1_555
H22 C26 1_555 1_555
C27 C26 1_555 1_555
H23 C27 1_555 1_555
C28 N4 1_555 1_555
H24 C28 1_555 1_555
C29 N5 1_555 1_555
H25 C29 1_555 1_555
C30 C29 1_555 1_555
H26 C30 1_555 1_555
C31 C30 1_555 1_555
H27 C31 1_555 1_555
C32 C31 1_555 1_555
H28 C32 1_555 1_555
C33 N5 1_555 1_555
C34 N6 1_555 1_555
C35 C34 1_555 1_555
H29 C35 1_555 1_555
C36 C35 1_555 1_555
H30 C36 1_555 1_555
C37 C36 1_555 1_555
H31 C37 1_555 1_555
C38 N6 1_555 1_555
H32 C38 1_555 1_555
O22 H33 1_555 1_555
H34 O22 1_555 1_555
O23 H35 1_555 1_555
H36 O23 1_555 1_555
O24 H37 1_555 1_555
H38 O24 1_555 1_555
O25 H39 1_555 1_555
H40 O25 1_555 1_555
O26 H41 1_555 1_555
H42 O26 1_555 1_555
O29 H43 1_555 1_555
H44 O29 1_555 1_555
Mo2A O20 1_555 1_555
Mo3A O20 1_555 1_555
Mo4A O21 1_555 1_555
Mo5A O19 1_555 1_555
O19A Mo1 1_555 1_555
O20A Mo2 1_555 1_555
O21A Mo4 1_555 1_555
Mo2 O5 1_555 1_555
Mo3 O20A 1_555 1_555
Mo4 O12 1_555 1_555
Mo5 O15 1_555 1_555
Mo5 O19A 1_555 1_555
P1 O12 1_555 1_555
P1 O16 1_555 1_555
C6 C7 1_555 1_555
C7 C8 1_555 1_555
C12 C13 1_555 1_555
C13 C14 1_555 1_555
C17 C18 1_555 1_555
C22 C23 1_555 1_555
C23 C24 1_555 1_555
C27 C28 1_555 1_555
C32 C33 1_555 1_555
C33 C34 1_555 1_555
C37 C38 1_555 1_555

#END
