
#######################################################################
#
#                 Cambridge Crystallographic Data Centre
#                                CCDC 
#
#######################################################################
#
# If this CIF has been generated from an entry in the Cambridge 
# Structural Database, then it will include bibliographic, chemical, 
# crystal, experimental, refinement or atomic coordinate data resulting 
# from the CCDC's data processing and validation procedures.
#
#######################################################################

data_CINYOP
_symmetry_cell_setting           orthorhombic
_symmetry_space_group_name_H-M   'P n a 21'
_symmetry_Int_Tables_number      33
_space_group_name_Hall           'P 2c -2n'
loop_
_symmetry_equiv_pos_site_id
_symmetry_equiv_pos_as_xyz
1 x,y,z
2 -x,-y,1/2+z
3 1/2-x,1/2+y,1/2+z
4 1/2+x,1/2-y,z
_cell_length_a                   23.327(3)
_cell_length_b                   21.115(3)
_cell_length_c                   9.7462(14)
_cell_angle_alpha                90
_cell_angle_beta                 90
_cell_angle_gamma                90
_cell_volume                     4800.49
loop_
_atom_site_label
_atom_site_type_symbol
_atom_site_fract_x
_atom_site_fract_y
_atom_site_fract_z
Mo1 Mo 0.75696(3) -0.07686(4) 0.32527(8)
Mo2 Mo 0.61693(3) -0.06515(4) 0.23037(7)
Mo3 Mo 0.61298(3) 0.07301(4) -0.00162(7)
Mo4 Mo 0.75036(3) 0.09118(4) -0.10536(8)
Mo5 Mo 0.83816(3) 0.00636(4) 0.10279(10)
P1 P 0.71081(10) 0.07357(10) 0.2376(2)
P2 P 0.78928(10) 0.43757(10) 0.4819(2)
O1 O 0.6986(3) 0.0042(3) 0.2806(6)
O2 O 0.6802(3) -0.1126(3) 0.2978(6)
O3 O 0.7550(3) -0.0660(3) 0.5004(7)
O4 O 0.7927(3) -0.1470(3) 0.3053(7)
O5 O 0.8162(3) -0.0161(3) 0.2878(6)
O6 O 0.5942(3) -0.0347(3) 0.3914(7)
O7 O 0.5651(3) -0.1211(3) 0.2036(7)
O8 O 0.5926(2) 0.0036(3) 0.1123(8)
O9 O 0.5895(3) 0.0428(3) -0.1647(7)
O10 O 0.5607(3) 0.1266(3) 0.0274(7)
O11 O 0.6551(3) 0.1029(3) 0.1858(6)
O12 O 0.6732(3) 0.1234(3) -0.0712(6)
O13 O 0.7454(3) 0.0814(3) -0.2793(7)
O14 O 0.7858(3) 0.1616(3) -0.0867(7)
O15 O 0.8116(3) 0.0305(3) -0.0777(6)
O16 O 0.7594(3) 0.0756(3) 0.1288(6)
O17 O 0.8828(3) -0.0542(3) 0.0597(8)
O18 O 0.8831(3) 0.0678(3) 0.1388(8)
O19 O 0.7403(3) 0.4362(3) 0.5879(7)
O20 O 0.8042(3) 0.5068(3) 0.4405(6)
O21 O 0.8427(3) 0.4062(3) 0.5386(6)
C1 C 0.7342(4) 0.1175(4) 0.3871(9)
H1 H 0.7068 0.1101 0.4603
H2 H 0.7707 0.1002 0.4168
C2 C 0.7412(4) 0.1891(4) 0.3697(9)
C3 C 0.7807(4) 0.2152(4) 0.2761(10)
H3 H 0.8016 0.1883 0.2197
C4 C 0.7114(4) 0.2315(5) 0.4493(10)
H4 H 0.6852 0.2153 0.5122
C5 C 0.7892(4) 0.2804(4) 0.2660(10)
H5 H 0.8162 0.2959 0.2044
C6 C 0.7177(4) 0.2974(4) 0.4421(9)
H6 H 0.6961 0.3237 0.4984
C7 C 0.7576(4) 0.3234(4) 0.3473(9)
C8 C 0.7660(4) 0.3942(4) 0.3322(9)
H7 H 0.7300 0.4124 0.3017
H8 H 0.7938 0.4013 0.2599
Mo1B Mo 0.74304(3) 0.42314(4) 0.82527(8)
Mo2B Mo 0.88307(3) 0.43485(4) 0.73037(7)
Mo3B Mo 0.88702(3) 0.57301(4) 0.49838(7)
Mo4B Mo 0.74964(3) 0.59118(4) 0.39464(8)
Mo5B Mo 0.66184(3) 0.50636(4) 0.60279(10)
O19B O 0.7597(3) -0.0638(3) 0.0879(7)
O20B O 0.6958(3) 0.0068(3) -0.0595(6)
O21B O 0.6573(3) -0.0938(3) 0.0386(6)
Co1 Co 0.49721(5) 0.26827(4) 0.36109(15)
N1 N 0.4266(3) 0.2770(3) 0.4651(7)
N2 N 0.4940(3) 0.3565(3) 0.3582(9)
N3 N 0.5671(3) 0.2817(3) 0.2574(7)
N4 N 0.5405(3) 0.2601(3) 0.5308(7)
N5 N 0.4991(3) 0.1802(3) 0.3643(9)
N6 N 0.4545(3) 0.2534(3) 0.1930(7)
C9 C 0.3937(4) 0.2304(4) 0.5168(9)
H9 H 0.4037 0.1885 0.4990
C10 C 0.3457(4) 0.2427(4) 0.5954(9)
H10 H 0.3237 0.2096 0.6301
C11 C 0.3306(4) 0.3057(5) 0.6220(9)
H11 H 0.2986 0.3153 0.6748
C12 C 0.3640(4) 0.3531(4) 0.5687(9)
H12 H 0.3548 0.3951 0.5865
C13 C 0.4115(4) 0.3389(4) 0.4883(9)
C14 C 0.4500(4) 0.3850(4) 0.4233(8)
C15 C 0.4465(4) 0.4512(4) 0.4226(10)
H13 H 0.4172 0.4722 0.4682
C16 C 0.4882(4) 0.4842(4) 0.3517(12)
H14 H 0.4862 0.5281 0.3484
C17 C 0.5335(4) 0.4535(4) 0.2847(9)
H15 H 0.5615 0.4766 0.2387
C18 C 0.5356(4) 0.3876(4) 0.2884(9)
C19 C 0.5775(4) 0.3444(4) 0.2269(9)
C20 C 0.6238(4) 0.3620(5) 0.1503(10)
H16 H 0.6312 0.4046 0.1332
C21 C 0.6605(4) 0.3142(4) 0.0970(11)
H17 H 0.6916 0.3253 0.0425
C22 C 0.6022(4) 0.2375(4) 0.2084(9)
H18 H 0.5949 0.1953 0.2294
C23 C 0.6500(4) 0.2522(4) 0.1257(8)
H19 H 0.6737 0.2204 0.0919
C24 C 0.5623(4) 0.3065(5) 0.6070(10)
H20 H 0.5570 0.3483 0.5795
C25 C 0.5928(4) 0.2942(5) 0.7268(11)
H21 H 0.6076 0.3273 0.7787
C26 C 0.6007(5) 0.2322(5) 0.7678(11)
H22 H 0.6205 0.2230 0.8482
C27 C 0.5788(5) 0.1841(6) 0.6879(12)
H23 H 0.5843 0.1420 0.7132
C28 C 0.5486(4) 0.1986(4) 0.5701(9)
C29 C 0.5244(4) 0.1518(4) 0.4728(10)
C30 C 0.5247(4) 0.0867(4) 0.4812(12)
H24 H 0.5412 0.0662 0.5558
C31 C 0.4998(4) 0.0526(4) 0.3756(14)
H25 H 0.5008 0.0086 0.3788
C32 C 0.4733(4) 0.0819(4) 0.2656(12)
H26 H 0.4559 0.0584 0.1965
C33 C 0.4739(4) 0.1479(4) 0.2621(10)
C34 C 0.4487(4) 0.1912(4) 0.1612(10)
C35 C 0.4200(4) 0.1717(5) 0.0411(9)
H27 H 0.4170 0.1290 0.0189
C36 C 0.3966(5) 0.2173(5) -0.0422(10)
H28 H 0.3762 0.2055 -0.1202
C37 C 0.4032(4) 0.2807(5) -0.0106(11)
H29 H 0.3883 0.3117 -0.0684
C38 C 0.4325(4) 0.2980(4) 0.1093(10)
H30 H 0.4368 0.3406 0.1313
O22 O 0.6491(3) 0.0016(5) 0.6209(11)
H31 H 0.6269 0.0011 0.5519
H32 H 0.6829 0.0131 0.5969
O23 O 0.8432(3) 0.0018(3) 0.6504(6)
loop_
_geom_bond_atom_site_label_1
_geom_bond_atom_site_label_2
_geom_bond_site_symmetry_1
_geom_bond_site_symmetry_2
Mo1 O1 1_555 1_555
Mo2 O1 1_555 1_555
Mo3 O8 1_555 1_555
Mo4 O12 1_555 1_555
Mo5 O5 1_555 1_555
P1 O1 1_555 1_555
P2 O19 1_555 1_555
O2 Mo1 1_555 1_555
O3 Mo1 1_555 1_555
O4 Mo1 1_555 1_555
O5 Mo1 1_555 1_555
O6 Mo2 1_555 1_555
O7 Mo2 1_555 1_555
O8 Mo2 1_555 1_555
O9 Mo3 1_555 1_555
O10 Mo3 1_555 1_555
O11 Mo3 1_555 1_555
O12 Mo3 1_555 1_555
O13 Mo4 1_555 1_555
O14 Mo4 1_555 1_555
O15 Mo4 1_555 1_555
O16 Mo4 1_555 1_555
O17 Mo5 1_555 1_555
O18 Mo5 1_555 1_555
O19 Mo1B 1_555 1_555
O20 P2 1_555 1_555
O21 P2 1_555 1_555
C1 P1 1_555 1_555
H1 C1 1_555 1_555
H2 C1 1_555 1_555
C2 C1 1_555 1_555
C3 C2 1_555 1_555
H3 C3 1_555 1_555
C4 C2 1_555 1_555
H4 C4 1_555 1_555
C5 C3 1_555 1_555
H5 C5 1_555 1_555
C6 C4 1_555 1_555
H6 C6 1_555 1_555
C7 C5 1_555 1_555
C8 P2 1_555 1_555
H7 C8 1_555 1_555
H8 C8 1_555 1_555
Co1 N1 1_555 1_555
N1 C9 1_555 1_555
N2 Co1 1_555 1_555
N3 Co1 1_555 1_555
N4 Co1 1_555 1_555
N5 Co1 1_555 1_555
N6 Co1 1_555 1_555
C9 H9 1_555 1_555
C10 C9 1_555 1_555
H10 C10 1_555 1_555
C11 C10 1_555 1_555
H11 C11 1_555 1_555
C12 C11 1_555 1_555
H12 C12 1_555 1_555
C13 N1 1_555 1_555
C14 N2 1_555 1_555
C15 C14 1_555 1_555
H13 C15 1_555 1_555
C16 C15 1_555 1_555
H14 C16 1_555 1_555
C17 C16 1_555 1_555
H15 C17 1_555 1_555
C18 N2 1_555 1_555
C19 N3 1_555 1_555
C20 C19 1_555 1_555
H16 C20 1_555 1_555
C21 C20 1_555 1_555
H17 C21 1_555 1_555
C22 N3 1_555 1_555
H18 C22 1_555 1_555
C23 C21 1_555 1_555
H19 C23 1_555 1_555
C24 N4 1_555 1_555
H20 C24 1_555 1_555
C25 C24 1_555 1_555
H21 C25 1_555 1_555
C26 C25 1_555 1_555
H22 C26 1_555 1_555
C27 C26 1_555 1_555
H23 C27 1_555 1_555
C28 N4 1_555 1_555
C29 N5 1_555 1_555
C30 C29 1_555 1_555
H24 C30 1_555 1_555
C31 C30 1_555 1_555
H25 C31 1_555 1_555
C32 C31 1_555 1_555
H26 C32 1_555 1_555
C33 N5 1_555 1_555
C34 N6 1_555 1_555
C35 C34 1_555 1_555
H27 C35 1_555 1_555
C36 C35 1_555 1_555
H28 C36 1_555 1_555
C37 C36 1_555 1_555
H29 C37 1_555 1_555
C38 N6 1_555 1_555
H30 C38 1_555 1_555
O22 H31 1_555 1_555
H32 O22 1_555 1_555
Mo2B O21 1_555 1_555
Mo3B O20 1_555 1_555
Mo4B O20 1_555 1_555
Mo5B O19 1_555 1_555
O19B Mo1 1_555 1_555
O20B Mo3 1_555 1_555
O21B Mo2 1_555 1_555
Mo2 O2 1_555 1_555
Mo4 O20B 1_555 1_555
Mo5 O15 1_555 1_555
Mo5 O16 1_555 1_555
Mo5 O19B 1_555 1_555
P1 O11 1_555 1_555
P1 O16 1_555 1_555
C6 C7 1_555 1_555
C7 C8 1_555 1_555
C12 C13 1_555 1_555
C13 C14 1_555 1_555
C17 C18 1_555 1_555
C18 C19 1_555 1_555
C22 C23 1_555 1_555
C27 C28 1_555 1_555
C28 C29 1_555 1_555
C32 C33 1_555 1_555
C33 C34 1_555 1_555
C37 C38 1_555 1_555

#END
