
#######################################################################
#
#                 Cambridge Crystallographic Data Centre
#                                CCDC 
#
#######################################################################
#
# If this CIF has been generated from an entry in the Cambridge 
# Structural Database, then it will include bibliographic, chemical, 
# crystal, experimental, refinement or atomic coordinate data resulting 
# from the CCDC's data processing and validation procedures.
#
#######################################################################

data_CINZAC
_symmetry_cell_setting           triclinic
_symmetry_space_group_name_H-M   'P -1'
_symmetry_Int_Tables_number      2
_space_group_name_Hall           '-P 1'
loop_
_symmetry_equiv_pos_site_id
_symmetry_equiv_pos_as_xyz
1 x,y,z
2 -x,-y,-z
_cell_length_a                   13.0366(13)
_cell_length_b                   13.0703(13)
_cell_length_c                   20.989(2)
_cell_angle_alpha                76.271(3)
_cell_angle_beta                 85.514(3)
_cell_angle_gamma                60.541(3)
_cell_volume                     3021.86
loop_
_atom_site_label
_atom_site_type_symbol
_atom_site_fract_x
_atom_site_fract_y
_atom_site_fract_z
Mo1 Mo -0.08068(5) 0.89274(5) 0.27789(3)
Mo2 Mo 0.19443(5) 0.77422(5) 0.34394(3)
Mo3 Mo 0.38579(5) 0.56473(5) 0.26304(3)
Mo4 Mo 0.23354(5) 0.52309(5) 0.15857(3)
Mo5 Mo -0.05583(5) 0.67800(5) 0.18351(3)
Cu1 Cu 0.31923(7) 0.92753(7) 0.38978(4)
Cu2 Cu 0.38905(8) 0.23735(8) 0.12500(4)
P1 P 0.13559(17) 0.80830(16) 0.17695(9)
P2 P 0.12336(15) 0.57032(15) 0.31521(9)
O1 O -0.1381(4) 0.8507(4) 0.3491(3)
O2 O -0.1839(4) 1.0387(4) 0.2503(3)
O3 O 0.0422(4) 0.9079(4) 0.3154(2)
O4 O 0.0216(4) 0.9138(4) 0.1908(2)
O5 O -0.1118(4) 0.8092(4) 0.2252(2)
O6 O 0.1804(4) 0.7489(4) 0.4267(2)
O7 O 0.2713(4) 0.8559(4) 0.3300(2)
O8 O 0.3221(4) 0.6163(4) 0.3423(2)
O9 O 0.2307(4) 0.7598(4) 0.2320(2)
O10 O 0.4809(4) 0.6215(4) 0.2456(2)
O11 O 0.4796(4) 0.4150(4) 0.2948(2)
O12 O 0.3498(4) 0.5641(4) 0.1764(2)
O13 O 0.2325(4) 0.5196(4) 0.2729(2)
O14 O 0.2385(5) 0.5544(5) 0.0756(2)
O15 O 0.3155(4) 0.3657(4) 0.1827(2)
O16 O 0.0828(4) 0.5341(4) 0.1685(2)
O17 O 0.1105(4) 0.7082(4) 0.1681(2)
O18 O -0.1006(5) 0.7555(5) 0.1037(2)
O19 O -0.1545(4) 0.6260(4) 0.2042(3)
O20 O 0.0185(4) 0.5733(4) 0.2885(2)
O21 O 0.0905(4) 0.6986(4) 0.3213(2)
N1 N 0.4227(5) 1.0077(5) 0.3690(3)
N2 N 0.1987(5) 1.0898(5) 0.3452(3)
N3 N 0.4361(5) 0.7637(5) 0.4375(3)
N4 N 0.2466(5) 0.9269(5) 0.4810(3)
N5 N 0.3814(6) 0.2881(6) 0.0256(3)
N6 N 0.5217(5) 0.2727(5) 0.1143(3)
N7 N 0.4633(5) 0.0670(5) 0.1849(3)
N8 N 0.2476(6) 0.2148(6) 0.1355(3)
C1 C 0.5365(6) 0.9606(7) 0.3853(4)
H1 H 0.5794 0.8774 0.4064
C2 C 0.5947(7) 1.0264(7) 0.3729(4)
H2 H 0.6762 0.9891 0.3848
C3 C 0.5335(7) 1.1464(6) 0.3433(4)
H3 H 0.5717 1.1940 0.3348
C4 C 0.4141(7) 1.1983(6) 0.3258(3)
H4 H 0.3699 1.2814 0.3050
C5 C 0.3609(6) 1.1264(6) 0.3392(3)
C6 C 0.2358(6) 1.1710(6) 0.3240(3)
C7 C 0.1586(7) 1.2881(6) 0.2902(3)
H5 H 0.1870 1.3430 0.2725
C8 C 0.0401(6) 1.3243(6) 0.2823(4)
H6 H -0.0147 1.4050 0.2616
C9 C 0.0036(7) 1.2381(6) 0.3056(4)
H7 H -0.0769 1.2595 0.3011
C10 C 0.0855(7) 1.1229(7) 0.3351(4)
H8 H 0.0609 1.0640 0.3490
C11 C 0.5294(7) 0.6854(7) 0.4097(4)
H9 H 0.5397 0.7075 0.3642
C12 C 0.6104(6) 0.5735(6) 0.4460(4)
H10 H 0.6760 0.5194 0.4258
C13 C 0.5949(7) 0.5422(7) 0.5112(4)
H11 H 0.6494 0.4656 0.5370
C14 C 0.4985(6) 0.6235(6) 0.5399(4)
H12 H 0.4876 0.6038 0.5855
C15 C 0.4197(7) 0.7322(6) 0.5014(3)
C16 C 0.3088(6) 0.8224(6) 0.5256(4)
C17 C 0.2713(7) 0.8028(7) 0.5891(4)
H13 H 0.3145 0.7274 0.6193
C18 C 0.1713(7) 0.8939(7) 0.6076(4)
H14 H 0.1457 0.8825 0.6510
C19 C 0.1078(7) 1.0022(7) 0.5628(4)
H15 H 0.0385 1.0666 0.5747
C20 C 0.1486(7) 1.0138(7) 0.4999(4)
H16 H 0.1045 1.0873 0.4686
C21 C 0.3086(8) 0.2869(9) -0.0158(4)
H17 H 0.2518 0.2637 0.0019
C22 C 0.3135(9) 0.3176(10) -0.0823(4)
H18 H 0.2599 0.3177 -0.1105
C23 C 0.3985(9) 0.3490(9) -0.1081(4)
H19 H 0.4037 0.3710 -0.1543
C24 C 0.4753(8) 0.3477(7) -0.0656(4)
H20 H 0.5350 0.3672 -0.0822
C25 C 0.4641(7) 0.3178(7) 0.0009(4)
C26 C 0.5410(7) 0.3131(6) 0.0504(4)
C27 C 0.6261(7) 0.3485(7) 0.0355(4)
H21 H 0.6410 0.3737 -0.0089
C28 C 0.6890(8) 0.3464(8) 0.0866(5)
H22 H 0.7463 0.3721 0.0775
C29 C 0.6680(8) 0.3064(8) 0.1511(5)
H23 H 0.7109 0.3033 0.1867
C30 C 0.5821(7) 0.2711(7) 0.1621(4)
H24 H 0.5665 0.2447 0.2061
C31 C 0.5769(7) -0.0048(7) 0.2061(4)
H25 H 0.6272 0.0297 0.2017
C32 C 0.6233(7) -0.1258(7) 0.2336(4)
H26 H 0.7032 -0.1735 0.2496
C33 C 0.5511(7) -0.1767(7) 0.2376(4)
H27 H 0.5819 -0.2610 0.2544
C34 C 0.4323(7) -0.1029(6) 0.2169(3)
H28 H 0.3810 -0.1360 0.2199
C35 C 0.3913(6) 0.0181(7) 0.1920(3)
C36 C 0.2676(6) 0.1050(6) 0.1701(3)
C37 C 0.1757(7) 0.0790(7) 0.1839(4)
H29 H 0.1911 0.0015 0.2086
C38 C 0.0634(7) 0.1653(8) 0.1620(4)
H30 H 0.0003 0.1480 0.1703
C39 C 0.0425(7) 0.2796(7) 0.1270(4)
H31 H -0.0349 0.3412 0.1114
C40 C 0.1368(7) 0.3011(7) 0.1156(4)
H32 H 0.1228 0.3792 0.0930
C41 C 0.1904(7) 0.8560(6) 0.1005(3)
H33 H 0.2261 0.9044 0.1074
H34 H 0.2528 0.7840 0.0862
C42 C 0.0934(7) 0.9305(7) 0.0470(3)
C43 C 0.0447(7) 0.8763(7) 0.0192(4)
H35 H 0.0752 0.7914 0.0318
C44 C 0.0480(7) 1.0538(7) 0.0268(3)
H36 H 0.0813 1.0914 0.0450
C45 C 0.1694(6) 0.4687(6) 0.3957(3)
H37 H 0.2006 0.3857 0.3898
H38 H 0.2361 0.4724 0.4126
C46 C 0.0800(6) 0.4878(6) 0.4483(3)
C47 C 0.0210(7) 0.4199(6) 0.4616(4)
H39 H 0.0341 0.3653 0.4350
C48 C 0.0553(7) 0.5696(6) 0.4878(4)
H40 H 0.0919 0.6186 0.4796
P1A P -0.13559(17) 1.19170(16) -0.17695(9)
O4A O -0.0216(4) 1.0862(4) -0.1908(2)
O9A O -0.2307(4) 1.2402(4) -0.2320(2)
O17A O -0.1105(4) 1.2918(4) -0.1681(2)
C41A C -0.1904(7) 1.1440(6) -0.1005(3)
H33A H -0.2261 1.0956 -0.1074
H34A H -0.2528 1.2160 -0.0862
C42A C -0.0934(7) 1.0695(7) -0.0470(3)
C43A C -0.0447(7) 1.1237(7) -0.0192(4)
H35A H -0.0752 1.2086 -0.0318
C44A C -0.0480(7) 0.9462(7) -0.0268(3)
H36A H -0.0813 0.9086 -0.0450
P2A P -0.12336(15) 0.42968(15) 0.68479(9)
O13A O -0.2325(4) 0.4804(4) 0.7271(2)
O20A O -0.0185(4) 0.4267(4) 0.7115(2)
O21A O -0.0905(4) 0.3014(4) 0.6787(2)
C45A C -0.1694(6) 0.5313(6) 0.6043(3)
H37A H -0.2006 0.6143 0.6102
H38A H -0.2361 0.5276 0.5874
C46A C -0.0800(6) 0.5122(6) 0.5517(3)
C47A C -0.0210(7) 0.5801(6) 0.5384(4)
H39A H -0.0341 0.6347 0.5650
C48A C -0.0553(7) 0.4304(6) 0.5122(4)
H40A H -0.0919 0.3814 0.5204
Mo1A Mo 0.08068(5) 0.10726(5) 0.72211(3)
Mo2A Mo -0.19443(5) 0.22578(5) 0.65606(3)
Mo3A Mo -0.38579(5) 0.43527(5) 0.73696(3)
Mo4A Mo -0.23354(5) 0.47691(5) 0.84143(3)
Mo5A Mo 0.05583(5) 0.32200(5) 0.81649(3)
Cu1A Cu -0.31923(7) 0.07247(7) 0.61022(4)
Cu2A Cu -0.38905(8) 0.76265(8) 0.87500(4)
O1A O 0.1381(4) 0.1493(4) 0.6509(3)
O2A O 0.1839(4) -0.0387(4) 0.7497(3)
O3A O -0.0422(4) 0.0921(4) 0.6846(2)
O5A O 0.1118(4) 0.1908(4) 0.7748(2)
O6A O -0.1804(4) 0.2511(4) 0.5733(2)
O7A O -0.2713(4) 0.1441(4) 0.6700(2)
O8A O -0.3221(4) 0.3837(4) 0.6577(2)
O10A O -0.4809(4) 0.3785(4) 0.7544(2)
O11A O -0.4796(4) 0.5850(4) 0.7052(2)
O12A O -0.3498(4) 0.4359(4) 0.8236(2)
O14A O -0.2385(5) 0.4456(5) 0.9244(2)
O15A O -0.3155(4) 0.6343(4) 0.8173(2)
O16A O -0.0828(4) 0.4659(4) 0.8315(2)
O18A O 0.1006(5) 0.2445(5) 0.8963(2)
O19A O 0.1545(4) 0.3740(4) 0.7958(3)
N1A N -0.4227(5) -0.0077(5) 0.6310(3)
N2A N -0.1987(5) -0.0898(5) 0.6548(3)
N3A N -0.4361(5) 0.2363(5) 0.5625(3)
N4A N -0.2466(5) 0.0731(5) 0.5190(3)
N5A N -0.3814(6) 0.7119(6) 0.9744(3)
N6A N -0.5217(5) 0.7273(5) 0.8857(3)
N7A N -0.4633(5) 0.9330(5) 0.8151(3)
N8A N -0.2476(6) 0.7852(6) 0.8645(3)
C1A C -0.5365(6) 0.0394(7) 0.6147(4)
H1A H -0.5794 0.1226 0.5936
C2A C -0.5947(7) -0.0264(7) 0.6271(4)
H2A H -0.6762 0.0109 0.6152
C3A C -0.5335(7) -0.1464(6) 0.6567(4)
H3A H -0.5717 -0.1940 0.6652
C4A C -0.4141(7) -0.1983(6) 0.6742(3)
H4A H -0.3699 -0.2814 0.6950
C5A C -0.3609(6) -0.1264(6) 0.6608(3)
C6A C -0.2358(6) -0.1710(6) 0.6760(3)
C7A C -0.1586(7) -0.2881(6) 0.7098(3)
H5A H -0.1870 -0.3430 0.7275
C8A C -0.0401(6) -0.3243(6) 0.7177(4)
H6A H 0.0147 -0.4050 0.7384
C9A C -0.0036(7) -0.2381(6) 0.6944(4)
H7A H 0.0769 -0.2595 0.6989
C10A C -0.0855(7) -0.1229(7) 0.6649(4)
H8A H -0.0609 -0.0640 0.6510
C11A C -0.5294(7) 0.3146(7) 0.5903(4)
H9A H -0.5397 0.2925 0.6358
C12A C -0.6104(6) 0.4265(6) 0.5540(4)
H10A H -0.6760 0.4806 0.5742
C13A C -0.5949(7) 0.4578(7) 0.4888(4)
H11A H -0.6494 0.5344 0.4630
C14A C -0.4985(6) 0.3765(6) 0.4601(4)
H12A H -0.4876 0.3962 0.4145
C15A C -0.4197(7) 0.2678(6) 0.4986(3)
C16A C -0.3088(6) 0.1776(6) 0.4744(4)
C17A C -0.2713(7) 0.1972(7) 0.4109(4)
H13A H -0.3145 0.2726 0.3807
C18A C -0.1713(7) 0.1061(7) 0.3924(4)
H14A H -0.1457 0.1175 0.3490
C19A C -0.1078(7) -0.0022(7) 0.4372(4)
H15A H -0.0385 -0.0666 0.4253
C20A C -0.1486(7) -0.0138(7) 0.5001(4)
H16A H -0.1045 -0.0873 0.5314
C21A C -0.3086(8) 0.7131(9) 1.0158(4)
H17A H -0.2518 0.7363 0.9981
C22A C -0.3135(9) 0.6824(10) 1.0823(4)
H18A H -0.2599 0.6823 1.1105
C23A C -0.3985(9) 0.6510(9) 1.1081(4)
H19A H -0.4037 0.6290 1.1543
C24A C -0.4753(8) 0.6523(7) 1.0656(4)
H20A H -0.5350 0.6328 1.0822
C25A C -0.4641(7) 0.6822(7) 0.9991(4)
C26A C -0.5410(7) 0.6869(6) 0.9496(4)
C27A C -0.6261(7) 0.6515(7) 0.9645(4)
H21A H -0.6410 0.6263 1.0089
C28A C -0.6890(8) 0.6536(8) 0.9134(5)
H22A H -0.7463 0.6279 0.9225
C29A C -0.6680(8) 0.6936(8) 0.8489(5)
H23A H -0.7109 0.6967 0.8133
C30A C -0.5821(7) 0.7289(7) 0.8379(4)
H24A H -0.5665 0.7553 0.7939
C31A C -0.5769(7) 1.0048(7) 0.7939(4)
H25A H -0.6272 0.9703 0.7983
C32A C -0.6233(7) 1.1258(7) 0.7664(4)
H26A H -0.7032 1.1735 0.7504
C33A C -0.5511(7) 1.1767(7) 0.7624(4)
H27A H -0.5819 1.2610 0.7456
C34A C -0.4323(7) 1.1029(6) 0.7831(3)
H28A H -0.3810 1.1360 0.7801
C35A C -0.3913(6) 0.9819(7) 0.8080(3)
C36A C -0.2676(6) 0.8950(6) 0.8299(3)
C37A C -0.1757(7) 0.9210(7) 0.8161(4)
H29A H -0.1911 0.9985 0.7914
C38A C -0.0634(7) 0.8347(8) 0.8380(4)
H30A H -0.0003 0.8520 0.8297
C39A C -0.0425(7) 0.7204(7) 0.8730(4)
H31A H 0.0349 0.6588 0.8886
C40A C -0.1368(7) 0.6989(7) 0.8844(4)
H32A H -0.1228 0.6208 0.9070
Mo1A_2 Mo 0.08068(5) 1.10726(5) -0.27789(3)
Mo2A_2 Mo -0.19443(5) 1.22578(5) -0.34394(3)
Mo3A_2 Mo -0.38579(5) 1.43527(5) -0.26304(3)
Mo4A_2 Mo -0.23354(5) 1.47691(5) -0.15857(3)
Mo5A_2 Mo 0.05583(5) 1.32200(5) -0.18351(3)
O4A_2 O -0.0216(4) 0.0862(4) 0.8092(2)
O9A_2 O -0.2307(4) 0.2402(4) 0.7680(2)
O17A_2 O -0.1105(4) 0.2918(4) 0.8319(2)
O22 O 0.7728(7) 0.7087(7) 0.4160(5)
H41 H 0.789(11) 0.759(9) 0.390(5)
H42 H 0.827(8) 0.635(4) 0.430(6)
O23 O 0.7206(7) 0.4175(8) 0.2933(5)
H43 H 0.740(12) 0.470(9) 0.276(7)
H44 H 0.649(4) 0.448(11) 0.304(7)
O24 O 0.7836(9) 0.5694(8) 0.3321(5)
H45 H 0.797(13) 0.619(10) 0.347(7)
H46 H 0.781(13) 0.506(7) 0.352(6)
loop_
_geom_bond_atom_site_label_1
_geom_bond_atom_site_label_2
_geom_bond_site_symmetry_1
_geom_bond_site_symmetry_2
Mo1 O1 1_555 1_555
Mo2 O3 1_555 1_555
Mo3 O8 1_555 1_555
Mo4 O12 1_555 1_555
Mo5 O5 1_555 1_555
Cu1 O7 1_555 1_555
Cu2 O15 1_555 1_555
P1 O4 1_555 1_555
P2 O13 1_555 1_555
O2 Mo1 1_555 1_555
O3 Mo1 1_555 1_555
O4 Mo1 1_555 1_555
O5 Mo1 1_555 1_555
O6 Mo2 1_555 1_555
O7 Mo2 1_555 1_555
O8 Mo2 1_555 1_555
O9 Mo2 1_555 1_555
O10 Mo3 1_555 1_555
O11 Mo3 1_555 1_555
O12 Mo3 1_555 1_555
O13 Mo3 1_555 1_555
O14 Mo4 1_555 1_555
O15 Mo4 1_555 1_555
O16 Mo4 1_555 1_555
O17 Mo4 1_555 1_555
O18 Mo5 1_555 1_555
O19 Mo5 1_555 1_555
O20 Mo5 1_555 1_555
O21 Mo1 1_555 1_555
N1 Cu1 1_555 1_555
N2 Cu1 1_555 1_555
N3 Cu1 1_555 1_555
N4 Cu1 1_555 1_555
N5 Cu2 1_555 1_555
N6 Cu2 1_555 1_555
N7 Cu2 1_555 1_555
N8 Cu2 1_555 1_555
C1 N1 1_555 1_555
H1 C1 1_555 1_555
C2 C1 1_555 1_555
H2 C2 1_555 1_555
C3 C2 1_555 1_555
H3 C3 1_555 1_555
C4 C3 1_555 1_555
H4 C4 1_555 1_555
C5 N1 1_555 1_555
C6 N2 1_555 1_555
C7 C6 1_555 1_555
H5 C7 1_555 1_555
C8 C7 1_555 1_555
H6 C8 1_555 1_555
C9 C8 1_555 1_555
H7 C9 1_555 1_555
C10 N2 1_555 1_555
H8 C10 1_555 1_555
C11 N3 1_555 1_555
H9 C11 1_555 1_555
C12 C11 1_555 1_555
H10 C12 1_555 1_555
C13 C12 1_555 1_555
H11 C13 1_555 1_555
C14 C13 1_555 1_555
H12 C14 1_555 1_555
C15 N3 1_555 1_555
C16 N4 1_555 1_555
C17 C16 1_555 1_555
H13 C17 1_555 1_555
C18 C17 1_555 1_555
H14 C18 1_555 1_555
C19 C18 1_555 1_555
H15 C19 1_555 1_555
C20 N4 1_555 1_555
H16 C20 1_555 1_555
C21 N5 1_555 1_555
H17 C21 1_555 1_555
C22 C21 1_555 1_555
H18 C22 1_555 1_555
C23 C22 1_555 1_555
H19 C23 1_555 1_555
C24 C23 1_555 1_555
H20 C24 1_555 1_555
C25 N5 1_555 1_555
C26 N6 1_555 1_555
C27 C26 1_555 1_555
H21 C27 1_555 1_555
C28 C27 1_555 1_555
H22 C28 1_555 1_555
C29 C28 1_555 1_555
H23 C29 1_555 1_555
C30 N6 1_555 1_555
H24 C30 1_555 1_555
C31 N7 1_555 1_555
H25 C31 1_555 1_555
C32 C31 1_555 1_555
H26 C32 1_555 1_555
C33 C32 1_555 1_555
H27 C33 1_555 1_555
C34 C33 1_555 1_555
H28 C34 1_555 1_555
C35 N7 1_555 1_555
C36 N8 1_555 1_555
C37 C36 1_555 1_555
H29 C37 1_555 1_555
C38 C37 1_555 1_555
H30 C38 1_555 1_555
C39 C38 1_555 1_555
H31 C39 1_555 1_555
C40 N8 1_555 1_555
H32 C40 1_555 1_555
C41 P1 1_555 1_555
H33 C41 1_555 1_555
H34 C41 1_555 1_555
C42 C41 1_555 1_555
C43 C42 1_555 1_555
H35 C43 1_555 1_555
C44 C42 1_555 1_555
H36 C44 1_555 1_555
C45 P2 1_555 1_555
H37 C45 1_555 1_555
H38 C45 1_555 1_555
C46 C45 1_555 1_555
C47 C46 1_555 1_555
H39 C47 1_555 1_555
C48 C46 1_555 1_555
H40 C48 1_555 1_555
O22 H41 1_555 1_555
H42 O22 1_555 1_555
O23 H43 1_555 1_555
H44 O23 1_555 1_555
O24 H45 1_555 1_555
H46 O24 1_555 1_555
P1A O4A 1_555 1_555
O4A Mo1A_2 1_555 1_555
O9A P1A 1_555 1_555
O17A P1A 1_555 1_555
C41A P1A 1_555 1_555
H33A C41A 1_555 1_555
H34A C41A 1_555 1_555
C42A C41A 1_555 1_555
C43A C44 1_555 1_555
H35A C43A 1_555 1_555
C44A C43 1_555 1_555
H36A C44A 1_555 1_555
P2A O13A 1_555 1_555
O13A Mo3A 1_555 1_555
O20A P2A 1_555 1_555
O21A P2A 1_555 1_555
C45A P2A 1_555 1_555
H37A C45A 1_555 1_555
H38A C45A 1_555 1_555
C46A C45A 1_555 1_555
C47A C48 1_555 1_555
H39A C47A 1_555 1_555
C48A C47 1_555 1_555
H40A C48A 1_555 1_555
Mo1A O21A 1_555 1_555
Mo2A O21A 1_555 1_555
Mo3A O8A 1_555 1_555
Mo4A O13A 1_555 1_555
Mo5A O20A 1_555 1_555
Cu1A O7A 1_555 1_555
Cu2A O15A 1_555 1_555
O1A Mo1A 1_555 1_555
O2A Mo1A 1_555 1_555
O3A Mo1A 1_555 1_555
O5A Mo1A 1_555 1_555
O6A Mo2A 1_555 1_555
O7A Mo2A 1_555 1_555
O8A Mo2A 1_555 1_555
O10A Mo3A 1_555 1_555
O11A Mo3A 1_555 1_555
O12A Mo3A 1_555 1_555
O14A Mo4A 1_555 1_555
O15A Mo4A 1_555 1_555
O16A Mo4A 1_555 1_555
O18A Mo5A 1_555 1_555
O19A Mo5A 1_555 1_555
N1A Cu1A 1_555 1_555
N2A Cu1A 1_555 1_555
N3A Cu1A 1_555 1_555
N4A Cu1A 1_555 1_555
N5A Cu2A 1_555 1_555
N6A Cu2A 1_555 1_555
N7A Cu2A 1_555 1_555
N8A Cu2A 1_555 1_555
C1A N1A 1_555 1_555
H1A C1A 1_555 1_555
C2A C1A 1_555 1_555
H2A C2A 1_555 1_555
C3A C2A 1_555 1_555
H3A C3A 1_555 1_555
C4A C3A 1_555 1_555
H4A C4A 1_555 1_555
C5A N1A 1_555 1_555
C6A N2A 1_555 1_555
C7A C6A 1_555 1_555
H5A C7A 1_555 1_555
C8A C7A 1_555 1_555
H6A C8A 1_555 1_555
C9A C8A 1_555 1_555
H7A C9A 1_555 1_555
C10A N2A 1_555 1_555
H8A C10A 1_555 1_555
C11A N3A 1_555 1_555
H9A C11A 1_555 1_555
C12A C11A 1_555 1_555
H10A C12A 1_555 1_555
C13A C12A 1_555 1_555
H11A C13A 1_555 1_555
C14A C13A 1_555 1_555
H12A C14A 1_555 1_555
C15A N3A 1_555 1_555
C16A N4A 1_555 1_555
C17A C16A 1_555 1_555
H13A C17A 1_555 1_555
C18A C17A 1_555 1_555
H14A C18A 1_555 1_555
C19A C18A 1_555 1_555
H15A C19A 1_555 1_555
C20A N4A 1_555 1_555
H16A C20A 1_555 1_555
C21A N5A 1_555 1_555
H17A C21A 1_555 1_555
C22A C21A 1_555 1_555
H18A C22A 1_555 1_555
C23A C22A 1_555 1_555
H19A C23A 1_555 1_555
C24A C23A 1_555 1_555
H20A C24A 1_555 1_555
C25A N5A 1_555 1_555
C26A N6A 1_555 1_555
C27A C26A 1_555 1_555
H21A C27A 1_555 1_555
C28A C27A 1_555 1_555
H22A C28A 1_555 1_555
C29A C28A 1_555 1_555
H23A C29A 1_555 1_555
C30A N6A 1_555 1_555
H24A C30A 1_555 1_555
C31A N7A 1_555 1_555
H25A C31A 1_555 1_555
C32A C31A 1_555 1_555
H26A C32A 1_555 1_555
C33A C32A 1_555 1_555
H27A C33A 1_555 1_555
C34A C33A 1_555 1_555
H28A C34A 1_555 1_555
C35A N7A 1_555 1_555
C36A N8A 1_555 1_555
C37A C36A 1_555 1_555
H29A C37A 1_555 1_555
C38A C37A 1_555 1_555
H30A C38A 1_555 1_555
C39A C38A 1_555 1_555
H31A C39A 1_555 1_555
C40A N8A 1_555 1_555
H32A C40A 1_555 1_555
Mo2A_2 O9A 1_555 1_555
Mo3A_2 O9A 1_555 1_555
Mo4A_2 O17A 1_555 1_555
Mo5A_2 O17A 1_555 1_555
O4A_2 Mo1A 1_555 1_555
O9A_2 Mo2A 1_555 1_555
O17A_2 Mo4A 1_555 1_555
Mo2 O21 1_555 1_555
Mo3 O9 1_555 1_555
Mo4 O13 1_555 1_555
Mo5 O16 1_555 1_555
Mo5 O17 1_555 1_555
P1 O9 1_555 1_555
P1 O17 1_555 1_555
P2 O20 1_555 1_555
P2 O21 1_555 1_555
C4 C5 1_555 1_555
C5 C6 1_555 1_555
C9 C10 1_555 1_555
C14 C15 1_555 1_555
C15 C16 1_555 1_555
C19 C20 1_555 1_555
C24 C25 1_555 1_555
C25 C26 1_555 1_555
C29 C30 1_555 1_555
C34 C35 1_555 1_555
C35 C36 1_555 1_555
C39 C40 1_555 1_555
C42A C43A 1_555 1_555
C42A C44A 1_555 1_555
C46A C47A 1_555 1_555
C46A C48A 1_555 1_555
Mo2A O3A 1_555 1_555
Mo3A O9A_2 1_555 1_555
Mo4A O12A 1_555 1_555
Mo5A O5A 1_555 1_555
Mo5A O16A 1_555 1_555
Mo5A O17A_2 1_555 1_555
C4A C5A 1_555 1_555
C5A C6A 1_555 1_555
C9A C10A 1_555 1_555
C14A C15A 1_555 1_555
C15A C16A 1_555 1_555
C19A C20A 1_555 1_555
C24A C25A 1_555 1_555
C25A C26A 1_555 1_555
C29A C30A 1_555 1_555
C34A C35A 1_555 1_555
C35A C36A 1_555 1_555
C39A C40A 1_555 1_555

#END
