
#######################################################################
#
#                 Cambridge Crystallographic Data Centre
#                                CCDC 
#
#######################################################################
#
# If this CIF has been generated from an entry in the Cambridge 
# Structural Database, then it will include bibliographic, chemical, 
# crystal, experimental, refinement or atomic coordinate data resulting 
# from the CCDC's data processing and validation procedures.
#
#######################################################################

data_CINZAB
_symmetry_cell_setting           orthorhombic
_symmetry_space_group_name_H-M   'P b c a'
_symmetry_Int_Tables_number      61
_space_group_name_Hall           '-P 2ac 2ab'
loop_
_symmetry_equiv_pos_site_id
_symmetry_equiv_pos_as_xyz
1 x,y,z
2 1/2-x,-y,1/2+z
3 1/2+x,1/2-y,-z
4 -x,1/2+y,1/2-z
5 -x,-y,-z
6 1/2+x,y,1/2-z
7 1/2-x,1/2+y,z
8 x,1/2-y,1/2+z
_cell_length_a                   11.5488(15)
_cell_length_b                   15.2642(10)
_cell_length_c                   16.2480(12)
_cell_angle_alpha                90
_cell_angle_beta                 90
_cell_angle_gamma                90
_cell_volume                     2864.25
loop_
_atom_site_label
_atom_site_type_symbol
_atom_site_fract_x
_atom_site_fract_y
_atom_site_fract_z
Hg1 Hg -0.04664(3) 0.093700(16) 0.300270(19)
O1 O -0.1072(5) -0.0915(4) 0.3798(3)
O2 O 0.0534(6) 0.0276(3) 0.1497(3)
O3 O -0.2233(6) 0.0805(5) 0.3927(4)
N1 N -0.0221(6) -0.0349(4) 0.2649(4)
N2 N -0.0303(6) -0.1875(4) 0.2872(4)
N3 N 0.0933(6) -0.1618(4) 0.0914(4)
N4 N 0.0490(7) -0.2732(4) 0.1709(4)
C1 C -0.0561(7) -0.1028(4) 0.3144(4)
C2 C -0.0669(9) -0.2622(5) 0.3375(6)
C3 C 0.0203(6) -0.1976(4) 0.2121(4)
C4 C 0.0491(7) -0.1275(4) 0.1626(5)
C5 C 0.0288(6) -0.0397(4) 0.1883(5)
C6 C 0.1258(10) -0.1133(5) 0.0158(5)
C7 C 0.0914(8) -0.2482(5) 0.0982(6)
Hg1C Hg 0.04664(3) -0.406300(16) 0.199730(19)
N4C N -0.0490(7) 0.2268(4) 0.3291(4)
Cl1 Cl 0.2505(2) 0.35464(16) 0.39711(15)
O4 O 0.2534(10) 0.3368(15) 0.3175(6)
O5 O 0.1831(11) 0.3008(10) 0.4430(9)
O6 O 0.3634(6) 0.3610(6) 0.4319(4)
O7 O 0.1929(11) 0.4343(8) 0.4052(12)
O8 O -0.2408(9) 0.1129(7) 0.1964(5)
O9 O 0.0822(7) 0.0666(5) 0.4427(5)
loop_
_geom_bond_atom_site_label_1
_geom_bond_atom_site_label_2
_geom_bond_site_symmetry_1
_geom_bond_site_symmetry_2
Hg1 O3 1_555 1_555
O1 C1 1_555 1_555
O2 C5 1_555 1_555
N1 Hg1 1_555 1_555
N2 C1 1_555 1_555
N3 C4 1_555 1_555
N4 C3 1_555 1_555
C1 N1 1_555 1_555
C2 N2 1_555 1_555
C3 N2 1_555 1_555
C4 C3 1_555 1_555
C5 N1 1_555 1_555
C6 N3 1_555 1_555
C7 N3 1_555 1_555
Cl1 O4 1_555 1_555
O5 Cl1 1_555 1_555
O6 Cl1 1_555 1_555
O7 Cl1 1_555 1_555
Hg1C N4 1_555 1_555
N4C Hg1 1_555 1_555
N4 C7 1_555 1_555
C4 C5 1_555 1_555

#END
