
#######################################################################
#
#                 Cambridge Crystallographic Data Centre
#                                CCDC 
#
#######################################################################
#
# If this CIF has been generated from an entry in the Cambridge 
# Structural Database, then it will include bibliographic, chemical, 
# crystal, experimental, refinement or atomic coordinate data resulting 
# from the CCDC's data processing and validation procedures.
#
#######################################################################

data_CINZIK
_symmetry_cell_setting           monoclinic
_symmetry_space_group_name_H-M   'C 2/c'
_symmetry_Int_Tables_number      15
_space_group_name_Hall           '-C 2yn'
loop_
_symmetry_equiv_pos_site_id
_symmetry_equiv_pos_as_xyz
1 x,y,z
2 -x,y,1/2-z
3 1/2+x,1/2+y,z
4 1/2-x,1/2+y,1/2-z
5 -x,-y,-z
6 x,-y,1/2+z
7 1/2-x,1/2-y,-z
8 1/2+x,1/2-y,1/2+z
_cell_length_a                   53.884(3)
_cell_length_b                   9.5839(5)
_cell_length_c                   18.7832(9)
_cell_angle_alpha                90
_cell_angle_beta                 91.5890(10)
_cell_angle_gamma                90
_cell_volume                     9696.27
loop_
_atom_site_label
_atom_site_type_symbol
_atom_site_fract_x
_atom_site_fract_y
_atom_site_fract_z
Mo1 Mo 0.40593(2) 0.57178(4) 0.27422(2)
Mo2 Mo 0.39149(2) 0.31642(4) 0.38596(2)
Mo3 Mo 0.32635(2) 0.30677(4) 0.40175(2)
Mo4 Mo 0.30417(2) 0.50314(4) 0.24442(2)
Mo5 Mo 0.35344(2) 0.69458(3) 0.19184(2)
Cu1 Cu 0.31561(2) 0.26293(5) 0.11493(2)
P1 P 0.35899(2) 0.32977(10) 0.23506(5)
P2 P 0.35277(2) 0.38662(10) -0.13130(5)
O1 O 0.42225(5) 0.5542(3) 0.19842(15)
O2 O 0.42635(5) 0.6548(3) 0.33165(15)
O3 O 0.40868(5) 0.3809(3) 0.30746(14)
O4 O 0.37157(5) 0.4664(3) 0.21442(14)
O5 O 0.38380(5) 0.7167(3) 0.24822(14)
O6 O 0.36377(5) 0.6921(3) 0.10625(14)
O7 O 0.34250(5) 0.8582(3) 0.20396(14)
O8 O 0.32267(5) 0.5953(3) 0.17189(14)
O9 O 0.28554(5) 0.6296(3) 0.27626(15)
O10 O 0.28460(5) 0.4086(3) 0.18927(14)
O11 O 0.30700(4) 0.3862(3) 0.32778(14)
O12 O 0.35784(5) 0.3118(3) 0.31745(13)
O13 O 0.32352(5) 0.1337(3) 0.38299(14)
O14 O 0.30967(5) 0.3238(3) 0.47614(15)
O15 O 0.36092(5) 0.2962(3) 0.44992(14)
H1 H 0.3631(8) 0.318(4) 0.4918(12)
O16 O 0.40977(5) 0.3637(3) 0.45756(14)
O17 O 0.39645(5) 0.1434(3) 0.37491(15)
O18 O 0.33221(5) 0.3252(3) 0.20531(13)
O19 O 0.32865(6) 0.4205(3) 0.06470(15)
H2 H 0.3261(8) 0.492(3) 0.088(2)
H3 H 0.3318(8) 0.438(5) 0.0233(12)
O20 O 0.33697(4) 0.4640(3) -0.07833(13)
O21 O 0.33916(5) 0.3868(3) -0.20488(13)
O22 O 0.37876(5) 0.4550(3) -0.13474(13)
N1 N 0.29337(6) 0.2040(3) 0.03308(17)
N2 N 0.29925(6) 0.1072(3) 0.16397(17)
C1 C 0.29028(7) 0.2592(4) -0.0313(2)
H4 H 0.3003 0.3362 -0.0443
C2 C 0.27270(7) 0.2077(4) -0.0807(2)
H5 H 0.2709 0.2502 -0.1263
C3 C 0.25816(8) 0.0966(5) -0.0639(2)
H6 H 0.2463 0.0611 -0.0976
C4 C 0.26098(7) 0.0351(4) 0.0041(2)
C5 C 0.24564(8) -0.0749(5) 0.0296(2)
H7 H 0.2337 -0.1170 -0.0018
C6 C 0.24782(7) -0.1201(5) 0.0977(2)
H8 H 0.2372 -0.1921 0.1135
C7 C 0.26602(7) -0.0605(4) 0.1467(2)
C8 C 0.27872(7) 0.0946(4) 0.0508(2)
C9 C 0.28144(7) 0.0442(4) 0.1224(2)
C10 C 0.26894(7) -0.0982(4) 0.2193(2)
H9 H 0.2585 -0.1669 0.2393
C11 C 0.28696(8) -0.0348(5) 0.2603(2)
H10 H 0.2894 -0.0608 0.3088
C12 C 0.30178(7) 0.0678(4) 0.2310(2)
H11 H 0.3142 0.1112 0.2603
C13 C 0.37569(7) 0.1836(4) 0.2013(2)
H12 H 0.3935 0.1915 0.2157
H13 H 0.3691 0.0963 0.2219
C14 C 0.37312(7) 0.1781(4) 0.1208(2)
C15 C 0.38628(7) 0.2719(4) 0.0798(2)
H14 H 0.3982 0.3318 0.1020
C16 C 0.38207(7) 0.2783(4) 0.0068(2)
H15 H 0.3914 0.3417 -0.0207
C17 C 0.35648(7) 0.0875(4) 0.0872(2)
H16 H 0.3481 0.0198 0.1145
C18 C 0.35198(7) 0.0949(4) 0.0137(2)
H17 H 0.3404 0.0329 -0.0087
C19 C 0.36434(7) 0.1927(4) -0.0267(2)
C20 C 0.35765(7) 0.2078(4) -0.1055(2)
H18 H 0.3424 0.1538 -0.1165
H19 H 0.3712 0.1680 -0.1337
Mo1E Mo 0.40593(2) 0.42822(4) -0.22578(2)
Mo2E Mo 0.39149(2) 0.68358(4) -0.11404(2)
Mo3E Mo 0.32635(2) 0.69323(4) -0.09825(2)
Mo4E Mo 0.30417(2) 0.49686(4) -0.25558(2)
Mo5E Mo 0.35344(2) 0.30542(3) -0.30816(2)
O20E O 0.33697(4) 0.5360(3) 0.42167(13)
O21E O 0.33916(5) 0.6132(3) 0.29512(13)
O22E O 0.37876(5) 0.5450(3) 0.36526(13)
Cu2 Cu 0.46926(2) 0.36339(5) 0.07308(3)
P3 P 0.49304(2) 0.38306(10) -0.08701(5)
O23 O 0.43789(5) 0.5078(3) 0.06614(16)
H20 H 0.4302(8) 0.542(5) 0.0324(18)
H21 H 0.4318(8) 0.542(5) 0.1016(17)
O24 O 0.47609(5) 0.4023(3) -0.02570(14)
O25 O 0.47758(5) 0.3183(3) -0.15198(15)
H22 H 0.4628(4) 0.335(5) -0.156(2)
O26 O 0.50511(5) 0.5148(3) -0.11318(14)
N3 N 0.44889(6) 0.1946(3) 0.04769(17)
N4 N 0.46315(6) 0.2934(3) 0.17253(17)
C21 C 0.44043(7) 0.1554(4) -0.0159(2)
H23 H 0.4443 0.2104 -0.0562
C22 C 0.42593(8) 0.0349(5) -0.0259(2)
H24 H 0.4200 0.0095 -0.0722
C23 C 0.42033(8) -0.0458(5) 0.0317(2)
H25 H 0.4107 -0.1283 0.0254
C24 C 0.42883(7) -0.0060(4) 0.1002(2)
C25 C 0.44271(7) 0.1164(4) 0.1051(2)
C26 C 0.42363(8) -0.0791(4) 0.1647(2)
H26 H 0.4144 -0.1634 0.1621
C27 C 0.43147(7) -0.0313(4) 0.2288(2)
H27 H 0.4280 -0.0834 0.2703
C28 C 0.44507(7) 0.0981(4) 0.2352(2)
C29 C 0.45063(7) 0.1699(4) 0.1728(2)
C30 C 0.45273(7) 0.1596(4) 0.3002(2)
H28 H 0.4497 0.1140 0.3440
C31 C 0.46468(7) 0.2862(4) 0.2996(2)
H29 H 0.4696 0.3298 0.3431
C32 C 0.46956(7) 0.3507(4) 0.2346(2)
H30 H 0.4777 0.4385 0.2349
C33 C 0.51671(7) 0.2544(4) -0.0690(2)
H31 H 0.5244 0.2295 -0.1146
H32 H 0.5298 0.2973 -0.0381
C34 C 0.50821(7) 0.1224(4) -0.0342(2)
C35 C 0.49859(7) 0.0113(4) -0.0738(2)
H33 H 0.4974 0.0175 -0.1243
C36 C 0.49070(7) -0.1087(4) -0.0395(2)
H34 H 0.4844 -0.1840 -0.0675
P3D P 0.50696(2) -0.38306(10) 0.08701(5)
O24D O 0.52391(5) -0.4023(3) 0.02570(14)
O25D O 0.52242(5) -0.3183(3) 0.15198(15)
H22D H 0.5372(4) -0.335(5) 0.156(2)
O26D O 0.49489(5) -0.5148(3) 0.11318(14)
C33D C 0.48329(7) -0.2544(4) 0.0690(2)
H31D H 0.4756 -0.2295 0.1146
H32D H 0.4702 -0.2973 0.0381
C34D C 0.49179(7) -0.1224(4) 0.0342(2)
C35D C 0.50141(7) -0.0113(4) 0.0738(2)
H33D H 0.5026 -0.0175 0.1243
C36D C 0.50930(7) 0.1087(4) 0.0395(2)
H34D H 0.5156 0.1840 0.0675
Cu2D Cu 0.53074(2) -0.36339(5) -0.07308(3)
O23D O 0.56211(5) -0.5078(3) -0.06614(16)
H20D H 0.5698(8) -0.542(5) -0.0324(18)
H21D H 0.5682(8) -0.542(5) -0.1016(17)
N3D N 0.55111(6) -0.1946(3) -0.04769(17)
N4D N 0.53685(6) -0.2934(3) -0.17253(17)
C21D C 0.55957(7) -0.1554(4) 0.0159(2)
H23D H 0.5557 -0.2104 0.0562
C22D C 0.57407(8) -0.0349(5) 0.0259(2)
H24D H 0.5800 -0.0095 0.0722
C23D C 0.57967(8) 0.0458(5) -0.0317(2)
H25D H 0.5893 0.1283 -0.0254
C24D C 0.57117(7) 0.0060(4) -0.1002(2)
C25D C 0.55729(7) -0.1164(4) -0.1051(2)
C26D C 0.57637(8) 0.0791(4) -0.1647(2)
H26D H 0.5856 0.1634 -0.1621
C27D C 0.56853(7) 0.0313(4) -0.2288(2)
H27D H 0.5720 0.0834 -0.2703
C28D C 0.55493(7) -0.0981(4) -0.2352(2)
C29D C 0.54937(7) -0.1699(4) -0.1728(2)
C30D C 0.54727(7) -0.1596(4) -0.3002(2)
H28D H 0.5503 -0.1140 -0.3440
C31D C 0.53532(7) -0.2862(4) -0.2996(2)
H29D H 0.5304 -0.3298 -0.3431
C32D C 0.53044(7) -0.3507(4) -0.2346(2)
H30D H 0.5223 -0.4385 -0.2349
Cu2_2 Cu 0.46926(2) -0.63661(5) 0.07308(3)
Cu2D_2 Cu 0.53074(2) 0.63661(5) -0.07308(3)
O26_2 O 0.50511(5) -0.4852(3) -0.11318(14)
O26D_2 O 0.49489(5) 0.4852(3) 0.11318(14)
loop_
_geom_bond_atom_site_label_1
_geom_bond_atom_site_label_2
_geom_bond_site_symmetry_1
_geom_bond_site_symmetry_2
Mo1 O1 1_555 1_555
Mo2 O3 1_555 1_555
Mo3 O11 1_555 1_555
Mo4 O8 1_555 1_555
Mo5 O4 1_555 1_555
Cu1 O10 1_555 1_555
P1 O4 1_555 1_555
P2 O20 1_555 1_555
O2 Mo1 1_555 1_555
O3 Mo1 1_555 1_555
O4 Mo1 1_555 1_555
O5 Mo1 1_555 1_555
O6 Mo5 1_555 1_555
O7 Mo5 1_555 1_555
O8 Mo5 1_555 1_555
O9 Mo4 1_555 1_555
O10 Mo4 1_555 1_555
O11 Mo4 1_555 1_555
O12 Mo2 1_555 1_555
O13 Mo3 1_555 1_555
O14 Mo3 1_555 1_555
O15 Mo2 1_555 1_555
H1 O15 1_555 1_555
O16 Mo2 1_555 1_555
O17 Mo2 1_555 1_555
O18 Mo4 1_555 1_555
O19 Cu1 1_555 1_555
H2 O19 1_555 1_555
H3 O19 1_555 1_555
O20 Mo3E 1_555 1_555
O21 P2 1_555 1_555
O22 P2 1_555 1_555
N1 Cu1 1_555 1_555
N2 Cu1 1_555 1_555
C1 N1 1_555 1_555
H4 C1 1_555 1_555
C2 C1 1_555 1_555
H5 C2 1_555 1_555
C3 C2 1_555 1_555
H6 C3 1_555 1_555
C4 C3 1_555 1_555
C5 C4 1_555 1_555
H7 C5 1_555 1_555
C6 C5 1_555 1_555
H8 C6 1_555 1_555
C7 C6 1_555 1_555
C8 N1 1_555 1_555
C9 N2 1_555 1_555
C10 C7 1_555 1_555
H9 C10 1_555 1_555
C11 C10 1_555 1_555
H10 C11 1_555 1_555
C12 N2 1_555 1_555
H11 C12 1_555 1_555
C13 P1 1_555 1_555
H12 C13 1_555 1_555
H13 C13 1_555 1_555
C14 C13 1_555 1_555
C15 C14 1_555 1_555
H14 C15 1_555 1_555
C16 C15 1_555 1_555
H15 C16 1_555 1_555
C17 C14 1_555 1_555
H16 C17 1_555 1_555
C18 C17 1_555 1_555
H17 C18 1_555 1_555
C19 C16 1_555 1_555
C20 P2 1_555 1_555
H18 C20 1_555 1_555
H19 C20 1_555 1_555
Cu2 O23 1_555 1_555
P3 O24 1_555 1_555
O23 H20 1_555 1_555
H21 O23 1_555 1_555
O24 Cu2 1_555 1_555
O25 P3 1_555 1_555
H22 O25 1_555 1_555
O26 P3 1_555 1_555
N3 Cu2 1_555 1_555
N4 Cu2 1_555 1_555
C21 N3 1_555 1_555
H23 C21 1_555 1_555
C22 C21 1_555 1_555
H24 C22 1_555 1_555
C23 C22 1_555 1_555
H25 C23 1_555 1_555
C24 C23 1_555 1_555
C25 N3 1_555 1_555
C26 C24 1_555 1_555
H26 C26 1_555 1_555
C27 C26 1_555 1_555
H27 C27 1_555 1_555
C28 C27 1_555 1_555
C29 N4 1_555 1_555
C30 C28 1_555 1_555
H28 C30 1_555 1_555
C31 C30 1_555 1_555
H29 C31 1_555 1_555
C32 N4 1_555 1_555
H30 C32 1_555 1_555
C33 P3 1_555 1_555
H31 C33 1_555 1_555
H32 C33 1_555 1_555
C34 C33 1_555 1_555
C35 C34 1_555 1_555
H33 C35 1_555 1_555
C36 C35 1_555 1_555
H34 C36 1_555 1_555
Mo1E O22 1_555 1_555
Mo2E O22 1_555 1_555
Mo4E O21 1_555 1_555
Mo5E O21 1_555 1_555
O20E Mo3 1_555 1_555
O21E Mo4 1_555 1_555
O22E Mo1 1_555 1_555
P3D O24D 1_555 1_555
O24D Cu2D 1_555 1_555
O25D P3D 1_555 1_555
H22D O25D 1_555 1_555
O26D P3D 1_555 1_555
C33D P3D 1_555 1_555
H31D C33D 1_555 1_555
H32D C33D 1_555 1_555
C34D C36 1_555 1_555
C35D C34D 1_555 1_555
H33D C35D 1_555 1_555
C36D C34 1_555 1_555
H34D C36D 1_555 1_555
Cu2D O23D 1_555 1_555
O23D H20D 1_555 1_555
H21D O23D 1_555 1_555
N3D Cu2D 1_555 1_555
N4D Cu2D 1_555 1_555
C21D N3D 1_555 1_555
H23D C21D 1_555 1_555
C22D C21D 1_555 1_555
H24D C22D 1_555 1_555
C23D C22D 1_555 1_555
H25D C23D 1_555 1_555
C24D C23D 1_555 1_555
C25D N3D 1_555 1_555
C26D C24D 1_555 1_555
H26D C26D 1_555 1_555
C27D C26D 1_555 1_555
H27D C27D 1_555 1_555
C28D C27D 1_555 1_555
C29D N4D 1_555 1_555
C30D C28D 1_555 1_555
H28D C30D 1_555 1_555
C31D C30D 1_555 1_555
H29D C31D 1_555 1_555
C32D N4D 1_555 1_555
H30D C32D 1_555 1_555
Cu2_2 O26D 1_555 1_555
Cu2D_2 O26 1_555 1_555
O26_2 Cu2D 1_555 1_555
O26D_2 Cu2 1_555 1_555
Mo2 O22E 1_555 1_555
Mo3 O12 1_555 1_555
Mo3 O15 1_555 1_555
Mo5 O5 1_555 1_555
Mo5 O21E 1_555 1_555
Cu1 O18 1_555 1_555
P1 O12 1_555 1_555
P1 O18 1_555 1_555
C4 C8 1_555 1_555
C7 C9 1_555 1_555
C8 C9 1_555 1_555
C11 C12 1_555 1_555
C18 C19 1_555 1_555
C19 C20 1_555 1_555
C24 C25 1_555 1_555
C25 C29 1_555 1_555
C28 C29 1_555 1_555
C31 C32 1_555 1_555
C33D C34D 1_555 1_555
C35D C36D 1_555 1_555
C24D C25D 1_555 1_555
C25D C29D 1_555 1_555
C28D C29D 1_555 1_555
C31D C32D 1_555 1_555

#END
