
#######################################################################
#
#                 Cambridge Crystallographic Data Centre
#                                CCDC 
#
#######################################################################
#
# If this CIF has been generated from an entry in the Cambridge 
# Structural Database, then it will include bibliographic, chemical, 
# crystal, experimental, refinement or atomic coordinate data resulting 
# from the CCDC's data processing and validation procedures.
#
#######################################################################

data_CIPBEK
_symmetry_cell_setting           monoclinic
_symmetry_space_group_name_H-M   'C 2/c'
_symmetry_Int_Tables_number      15
_space_group_name_Hall           '-C 2yn'
loop_
_symmetry_equiv_pos_site_id
_symmetry_equiv_pos_as_xyz
1 x,y,z
2 -x,y,1/2-z
3 1/2+x,1/2+y,z
4 1/2-x,1/2+y,1/2-z
5 -x,-y,-z
6 x,-y,1/2+z
7 1/2-x,1/2-y,-z
8 1/2+x,1/2-y,1/2+z
_cell_length_a                   17.3753(12)
_cell_length_b                   11.3661(8)
_cell_length_c                   22.3579(15)
_cell_angle_alpha                90
_cell_angle_beta                 103.1180(10)
_cell_angle_gamma                90
_cell_volume                     4300.23
loop_
_atom_site_label
_atom_site_type_symbol
_atom_site_fract_x
_atom_site_fract_y
_atom_site_fract_z
Mo1 Mo 0.39635(2) 0.42202(3) 0.70708(2)
Mo2 Mo 0.35739(2) 0.70639(3) 0.66782(2)
Mo3 Mo 0.5000 0.87807(4) 0.7500
Ni1 Ni 0.19148(3) 0.90381(5) 0.67989(2)
P1 P 0.04754(6) 1.11857(9) 0.67987(5)
O1 O 0.5000 0.3785(3) 0.7500
O2 O 0.39153(17) 0.3588(2) 0.63794(13)
O3 O 0.33670(16) 0.3303(3) 0.73937(13)
O4 O 0.32306(15) 0.5516(2) 0.68583(12)
O5 O 0.33608(16) 0.7009(3) 0.58966(12)
O6 O 0.43634(16) 0.8248(2) 0.67418(12)
O7 O 0.56439(17) 0.9700(3) 0.72573(14)
O8 O 0.28043(16) 0.7856(2) 0.68478(12)
O9 O 0.27095(17) 1.0102(3) 0.73826(14)
H1 H 0.3190(12) 0.999(4) 0.747(2)
H2 H 0.259(3) 1.030(4) 0.7707(14)
O10 O 0.09931(15) 1.0105(2) 0.69591(12)
O11 O 0.07622(15) 1.2179(2) 0.72595(12)
O12 O -0.03913(15) 1.0843(2) 0.68083(12)
N1 N 0.2212(2) 0.9859(3) 0.60692(15)
N2 N 0.1796(2) 0.8239(3) 0.54005(16)
H3 H 0.177(3) 0.805(4) 0.5018(11)
N3 N 0.1159(2) 0.7933(3) 0.62235(16)
C1 C 0.2556(2) 1.0940(4) 0.6142(2)
H4 H 0.2567 1.1353 0.6513
C2 C 0.2886(3) 1.1464(4) 0.5712(2)
H5 H 0.3106 1.2232 0.5778
C3 C 0.2896(3) 1.0855(4) 0.5174(2)
H6 H 0.3137 1.1188 0.4873
C4 C 0.2552(3) 0.9773(4) 0.5086(2)
H7 H 0.2560 0.9336 0.4726
C5 C 0.2188(2) 0.9310(4) 0.55338(19)
C6 C 0.1230(2) 0.7695(4) 0.56482(19)
C7 C 0.0744(3) 0.6867(4) 0.5279(2)
H8 H 0.0814 0.6691 0.4879
C8 C 0.0166(3) 0.6313(4) 0.5502(2)
H9 H -0.0177 0.5763 0.5254
C9 C 0.0084(3) 0.6560(4) 0.6088(2)
H10 H -0.0314 0.6187 0.6250
C10 C 0.0593(3) 0.7358(4) 0.6431(2)
H11 H 0.0543 0.7514 0.6838
C11 C 0.0464(2) 1.1678(4) 0.60291(17)
H12 H 0.0100 1.2358 0.5938
H13 H 0.0999 1.1970 0.6025
C12 C 0.0224(2) 1.0793(4) 0.55058(17)
C13 C 0.0630(2) 1.0748(4) 0.50367(18)
H14 H 0.1066 1.1260 0.5053
C14 C 0.0415(2) 0.9975(4) 0.45441(18)
H15 H 0.0710 0.9970 0.4235
P1D P -0.04754(6) 0.88143(9) 0.32013(5)
O10D O -0.09931(15) 0.9895(2) 0.30409(12)
O11D O -0.07622(15) 0.7821(2) 0.27405(12)
O12D O 0.03913(15) 0.9157(2) 0.31917(12)
C11D C -0.0464(2) 0.8322(4) 0.39709(17)
H12D H -0.0100 0.7642 0.4062
H13D H -0.0999 0.8030 0.3975
C12D C -0.0224(2) 0.9207(4) 0.44942(17)
C13D C -0.0630(2) 0.9252(4) 0.49633(18)
H14D H -0.1066 0.8740 0.4947
C14D C -0.0415(2) 1.0025(4) 0.54559(18)
H15D H -0.0710 1.0030 0.5765
Mo1A Mo 0.60365(2) 0.42202(3) 0.79292(2)
Mo2A Mo 0.64261(2) 0.70639(3) 0.83218(2)
Ni1A Ni 0.80852(3) 0.90381(5) 0.82011(2)
O2A O 0.60847(17) 0.3588(2) 0.86206(13)
O3A O 0.66330(16) 0.3303(3) 0.76063(13)
O4A O 0.67694(15) 0.5516(2) 0.81417(12)
O5A O 0.66392(16) 0.7009(3) 0.91034(12)
O6A O 0.56366(16) 0.8248(2) 0.82582(12)
O7A O 0.43561(17) 0.9700(3) 0.77427(14)
O8A O 0.71957(16) 0.7856(2) 0.81522(12)
O9A O 0.72905(17) 1.0102(3) 0.76174(14)
H1A H 0.6810(12) 0.999(4) 0.753(2)
H2A H 0.741(3) 1.030(4) 0.7293(14)
N1A N 0.7788(2) 0.9859(3) 0.89308(15)
N2A N 0.8204(2) 0.8239(3) 0.95995(16)
H3A H 0.823(3) 0.805(4) 0.9982(11)
N3A N 0.8841(2) 0.7933(3) 0.87765(16)
C1A C 0.7444(2) 1.0940(4) 0.8858(2)
H4A H 0.7433 1.1353 0.8487
C2A C 0.7114(3) 1.1464(4) 0.9288(2)
H5A H 0.6894 1.2232 0.9222
C3A C 0.7104(3) 1.0855(4) 0.9826(2)
H6A H 0.6863 1.1188 1.0127
C4A C 0.7448(3) 0.9773(4) 0.9914(2)
H7A H 0.7440 0.9336 1.0274
C5A C 0.7812(2) 0.9310(4) 0.94662(19)
C6A C 0.8770(2) 0.7695(4) 0.93518(19)
C7A C 0.9256(3) 0.6867(4) 0.9721(2)
H8A H 0.9186 0.6691 1.0121
C8A C 0.9834(3) 0.6313(4) 0.9498(2)
H9A H 1.0177 0.5763 0.9746
C9A C 0.9916(3) 0.6560(4) 0.8912(2)
H10A H 1.0314 0.6187 0.8750
C10A C 0.9407(3) 0.7358(4) 0.8569(2)
H11A H 0.9457 0.7514 0.8162
Mo1B Mo -0.10365(2) 0.92202(3) 0.70708(2)
Mo1C Mo 0.10365(2) 0.92202(3) 0.79292(2)
Mo1F Mo 0.10365(2) 1.07798(3) 0.29292(2)
Mo1G Mo -0.10365(2) 1.07798(3) 0.20708(2)
Mo2B Mo -0.14261(2) 1.20639(3) 0.66782(2)
Mo2C Mo 0.14261(2) 1.20639(3) 0.83218(2)
Mo2F Mo 0.14261(2) 0.79361(3) 0.33218(2)
Mo2G Mo -0.14261(2) 0.79361(3) 0.16782(2)
Mo3B Mo 0.0000 1.37807(4) 0.7500
Mo3F Mo 0.0000 0.62193(4) 0.2500
Ni1B Ni 0.69148(3) 0.40381(5) 0.67989(2)
Ni1C Ni 0.30852(3) 0.40381(5) 0.82011(2)
Ni1D Ni -0.19148(3) 1.09619(5) 0.32011(2)
O3B O 0.83670(16) 0.8303(3) 0.73937(13)
O3C O 0.16330(16) 0.8303(3) 0.76063(13)
O10A O 0.90069(15) 1.0105(2) 0.80409(12)
O10B O 0.59931(15) 0.5105(2) 0.69591(12)
O10C O 0.40069(15) 0.5105(2) 0.80409(12)
O11B O 0.57622(15) 0.7179(2) 0.72595(12)
O11C O 0.42378(15) 0.7179(2) 0.77405(12)
O12B O 0.46087(15) 0.5843(2) 0.68083(12)
O12C O 0.53913(15) 0.5843(2) 0.81917(12)
O13 O 0.3391(10) 0.0844(16) 0.3800(7)
loop_
_geom_bond_atom_site_label_1
_geom_bond_atom_site_label_2
_geom_bond_site_symmetry_1
_geom_bond_site_symmetry_2
Mo1 O1 1_555 1_555
Mo2 O4 1_555 1_555
Mo3 O6 1_555 1_555
Ni1 O8 1_555 1_555
P1 O10 1_555 1_555
O1 Mo1A 1_555 1_555
O2 Mo1 1_555 1_555
O3 Mo1 1_555 1_555
O4 Mo1 1_555 1_555
O5 Mo2 1_555 1_555
O6 Mo2 1_555 1_555
O7 Mo3 1_555 1_555
O8 Mo2 1_555 1_555
O9 Ni1 1_555 1_555
H1 O9 1_555 1_555
H2 O9 1_555 1_555
O10 Ni1 1_555 1_555
O11 P1 1_555 1_555
O12 P1 1_555 1_555
N1 Ni1 1_555 1_555
N2 H3 1_555 1_555
N3 Ni1 1_555 1_555
C1 N1 1_555 1_555
H4 C1 1_555 1_555
C2 C1 1_555 1_555
H5 C2 1_555 1_555
C3 C2 1_555 1_555
H6 C3 1_555 1_555
C4 C3 1_555 1_555
H7 C4 1_555 1_555
C5 N1 1_555 1_555
C6 N2 1_555 1_555
C7 C6 1_555 1_555
H8 C7 1_555 1_555
C8 C7 1_555 1_555
H9 C8 1_555 1_555
C9 C8 1_555 1_555
H10 C9 1_555 1_555
C10 N3 1_555 1_555
H11 C10 1_555 1_555
C11 P1 1_555 1_555
H12 C11 1_555 1_555
H13 C11 1_555 1_555
C12 C11 1_555 1_555
C13 C12 1_555 1_555
H14 C13 1_555 1_555
C14 C13 1_555 1_555
H15 C14 1_555 1_555
P1D O10D 1_555 1_555
O10D Mo1G 1_555 1_555
O11D P1D 1_555 1_555
O12D P1D 1_555 1_555
C11D P1D 1_555 1_555
H12D C11D 1_555 1_555
H13D C11D 1_555 1_555
C12D C14 1_555 1_555
C13D C12D 1_555 1_555
H14D C13D 1_555 1_555
C14D C12 1_555 1_555
H15D C14D 1_555 1_555
Mo1A O2A 1_555 1_555
Mo2A O4A 1_555 1_555
Ni1A O8A 1_555 1_555
O3A Mo1A 1_555 1_555
O4A Mo1A 1_555 1_555
O5A Mo2A 1_555 1_555
O6A Mo3 1_555 1_555
O7A Mo3 1_555 1_555
O8A Mo2A 1_555 1_555
O9A Ni1A 1_555 1_555
H1A O9A 1_555 1_555
H2A O9A 1_555 1_555
N1A Ni1A 1_555 1_555
N2A H3A 1_555 1_555
N3A Ni1A 1_555 1_555
C1A N1A 1_555 1_555
H4A C1A 1_555 1_555
C2A C1A 1_555 1_555
H5A C2A 1_555 1_555
C3A C2A 1_555 1_555
H6A C3A 1_555 1_555
C4A C3A 1_555 1_555
H7A C4A 1_555 1_555
C5A N1A 1_555 1_555
C6A N2A 1_555 1_555
C7A C6A 1_555 1_555
H8A C7A 1_555 1_555
C8A C7A 1_555 1_555
H9A C8A 1_555 1_555
C9A C8A 1_555 1_555
H10A C9A 1_555 1_555
C10A N3A 1_555 1_555
H11A C10A 1_555 1_555
Mo1B O12 1_555 1_555
Mo1C O10 1_555 1_555
Mo1F O12D 1_555 1_555
Mo2B O12 1_555 1_555
Mo2C O11 1_555 1_555
Mo2F O12D 1_555 1_555
Mo2G O11D 1_555 1_555
Mo3B O11 1_555 1_555
Mo3F O11D 1_555 1_555
Ni1B O3A 1_555 1_555
Ni1C O3 1_555 1_555
Ni1D O10D 1_555 1_555
O3B Ni1A 1_555 1_555
O3C Ni1 1_555 1_555
O10A Ni1A 1_555 1_555
O10B Mo1A 1_555 1_555
O10C Mo1 1_555 1_555
O11B Mo3 1_555 1_555
O11C Mo2 1_555 1_555
O12B Mo1 1_555 1_555
O12C Mo1A 1_555 1_555
Mo2 O12B 1_555 1_555
Mo3 O11C 1_555 1_555
N2 C5 1_555 1_555
N3 C6 1_555 1_555
C4 C5 1_555 1_555
C9 C10 1_555 1_555
C11D C12D 1_555 1_555
C13D C14D 1_555 1_555
Mo2A O6A 1_555 1_555
Mo2A O11B 1_555 1_555
Mo2A O12C 1_555 1_555
N2A C5A 1_555 1_555
N3A C6A 1_555 1_555
C4A C5A 1_555 1_555
C9A C10A 1_555 1_555
Mo1C O3C 1_555 1_555
Ni1B O10B 1_555 1_555
Ni1C O10C 1_555 1_555

#END
