
#######################################################################
#
#                 Cambridge Crystallographic Data Centre
#                                CCDC 
#
#######################################################################
#
# If this CIF has been generated from an entry in the Cambridge 
# Structural Database, then it will include bibliographic, chemical, 
# crystal, experimental, refinement or atomic coordinate data resulting 
# from the CCDC's data processing and validation procedures.
#
#######################################################################

data_CIPBUA
_symmetry_cell_setting           monoclinic
_symmetry_space_group_name_H-M   'P 21/n'
_symmetry_Int_Tables_number      14
_space_group_name_Hall           '-P 2yn'
loop_
_symmetry_equiv_pos_site_id
_symmetry_equiv_pos_as_xyz
1 x,y,z
2 1/2-x,1/2+y,1/2-z
3 -x,-y,-z
4 1/2+x,1/2-y,1/2+z
_cell_length_a                   8.562(2)
_cell_length_b                   19.809(5)
_cell_length_c                   13.219(3)
_cell_angle_alpha                90
_cell_angle_beta                 103.447(3)
_cell_angle_gamma                90
_cell_volume                     2180.54
loop_
_atom_site_label
_atom_site_type_symbol
_atom_site_fract_x
_atom_site_fract_y
_atom_site_fract_z
Mo1 Mo 0.59126(6) 0.08461(3) 0.85379(4)
Cu1 Cu 0.5000 0.5000 0.5000
Cu2 Cu 0.25524(8) 0.47869(3) 0.80027(5)
P1 P 0.31133(16) 0.39203(7) 0.60006(10)
P2 P 0.19712(16) 0.08524(7) 0.86128(10)
F1 F 0.7890(4) 0.04757(18) 0.8549(2)
O1 O 0.2739(4) 0.4099(2) 0.7026(3)
O2 O 0.1626(4) 0.4092(2) 0.5124(3)
O3 O 0.4635(4) 0.42138(19) 0.5799(3)
O4 O 0.3779(4) 0.1025(2) 0.8844(3)
O5 O 0.1693(4) 0.04957(19) 0.9566(3)
O6 O 0.1425(4) 0.04842(19) 0.7593(3)
O7 O 0.5590(5) -0.0252(2) 0.8987(3)
H1 H 0.482(4) -0.039(3) 0.923(4)
H2 H 0.646(4) -0.037(3) 0.939(4)
O8 O 0.4907(4) 0.05269(19) 0.7286(3)
O9 O 0.6335(5) 0.1644(2) 0.8264(3)
N1 N 0.1289(5) 0.4164(2) 0.8675(3)
N2 N 0.2983(5) 0.5213(2) 0.9412(3)
C1 C 0.0342(7) 0.3675(3) 0.8180(5)
H3 H 0.0311 0.3587 0.7469
C2 C -0.0603(8) 0.3290(3) 0.8689(5)
H4 H -0.1297 0.2950 0.8328
C3 C -0.0510(8) 0.3412(3) 0.9722(5)
H5 H -0.1133 0.3152 1.0087
C4 C 0.0490(7) 0.3915(3) 1.0235(5)
H6 H 0.0572 0.4001 1.0952
C5 C 0.1362(7) 0.4287(3) 0.9683(4)
C6 C 0.2403(6) 0.4860(3) 1.0119(4)
C7 C 0.2754(7) 0.5045(3) 1.1158(4)
H7 H 0.2343 0.4790 1.1647
C8 C 0.3702(7) 0.5601(3) 1.1475(4)
H8 H 0.3967 0.5732 1.2186
C9 C 0.4261(7) 0.5965(3) 1.0749(5)
H9 H 0.4901 0.6356 1.0950
C10 C 0.3883(7) 0.5756(3) 0.9716(4)
H10 H 0.4276 0.6008 0.9216
C11 C 0.3306(7) 0.3015(3) 0.5984(5)
H11 H 0.3425 0.2875 0.5287
H12 H 0.4302 0.2884 0.6494
C12 C 0.1925(7) 0.2634(3) 0.6231(4)
C13 C 0.0455(7) 0.2600(3) 0.5505(5)
H13 H 0.0334 0.2807 0.4843
C14 C -0.0833(7) 0.2265(3) 0.5752(5)
H14 H -0.1829 0.2241 0.5254
C15 C 0.2052(6) 0.2315(3) 0.7191(4)
H15 H 0.3051 0.2328 0.7688
C16 C 0.0783(7) 0.1985(3) 0.7440(4)
C17 C -0.0683(7) 0.1967(3) 0.6711(5)
H16 H -0.1580 0.1748 0.6876
C18 C 0.0906(7) 0.1645(3) 0.8479(4)
H17 H -0.0191 0.1566 0.8578
H18 H 0.1459 0.1955 0.9037
Mo1B Mo 0.40874(6) 0.91539(3) 0.14621(4)
Cu2B Cu 0.74476(8) 0.52131(3) 0.19973(5)
P1B P 0.68867(16) 0.60797(7) 0.39994(10)
P2B P 0.80288(16) 0.91476(7) 0.13872(10)
F1B F 0.2110(4) 0.95243(18) 0.1451(2)
O1B O 0.7261(4) 0.5901(2) 0.2974(3)
O2B O 0.8374(4) 0.5908(2) 0.4876(3)
O3B O 0.5365(4) 0.57862(19) 0.4201(3)
O4B O 0.6221(4) 0.8975(2) 0.1156(3)
O5B O 0.8307(4) 0.95043(19) 0.0434(3)
O6B O 0.8575(4) 0.95158(19) 0.2407(3)
O7B O 0.4410(5) 1.0252(2) 0.1013(3)
H1B H 0.518(4) 1.039(3) 0.077(4)
H2B H 0.354(4) 1.037(3) 0.061(4)
O8B O 0.5093(4) 0.94731(19) 0.2714(3)
O9B O 0.3665(5) 0.8356(2) 0.1736(3)
N1B N 0.8711(5) 0.5836(2) 0.1325(3)
N2B N 0.7017(5) 0.4787(2) 0.0588(3)
C1B C 0.9658(7) 0.6325(3) 0.1820(5)
H3B H 0.9689 0.6413 0.2531
C2B C 1.0603(8) 0.6710(3) 0.1311(5)
H4B H 1.1297 0.7050 0.1672
C3B C 1.0510(8) 0.6588(3) 0.0278(5)
H5B H 1.1133 0.6848 -0.0087
C4B C 0.9510(7) 0.6085(3) -0.0235(5)
H6B H 0.9428 0.5999 -0.0952
C5B C 0.8638(7) 0.5713(3) 0.0317(4)
C6B C 0.7597(6) 0.5140(3) -0.0119(4)
C7B C 0.7246(7) 0.4955(3) -0.1158(4)
H7B H 0.7657 0.5210 -0.1647
C8B C 0.6298(7) 0.4399(3) -0.1475(4)
H8B H 0.6033 0.4268 -0.2186
C9B C 0.5739(7) 0.4035(3) -0.0749(5)
H9B H 0.5099 0.3644 -0.0950
C10B C 0.6117(7) 0.4244(3) 0.0284(4)
H10B H 0.5724 0.3992 0.0784
C11B C 0.6694(7) 0.6985(3) 0.4016(5)
H11B H 0.6575 0.7125 0.4713
H12B H 0.5698 0.7116 0.3506
C12B C 0.8075(7) 0.7366(3) 0.3769(4)
C13B C 0.9545(7) 0.7400(3) 0.4495(5)
H13B H 0.9666 0.7193 0.5157
C14B C 1.0833(7) 0.7735(3) 0.4248(5)
H14B H 1.1829 0.7759 0.4746
C15B C 0.7948(6) 0.7685(3) 0.2809(4)
H15B H 0.6949 0.7672 0.2312
C16B C 0.9217(7) 0.8015(3) 0.2560(4)
C17B C 1.0683(7) 0.8033(3) 0.3289(5)
H16B H 1.1580 0.8252 0.3124
C18B C 0.9094(7) 0.8355(3) 0.1521(4)
H17B H 1.0191 0.8434 0.1422
H18B H 0.8541 0.8045 0.0963
Mo1A Mo 0.90874(6) 0.58461(3) 0.64621(4)
Mo1C Mo 0.09126(6) 0.41539(3) 0.35379(4)
Cu1A Cu 0.0000 0.0000 1.0000
Cu1A_2 Cu 0.0000 1.0000 0.0000
Cu1A_3 Cu 1.0000 0.0000 1.0000
Cu1A_4 Cu 1.0000 1.0000 0.0000
Cu2A Cu 0.24476(8) -0.02131(3) 0.69973(5)
Cu2C Cu 0.75524(8) 1.02131(3) 0.30027(5)
F1A F 0.7110(4) 0.54757(18) 0.6451(2)
F1C F 0.2890(4) 0.45243(18) 0.3549(2)
O2A O 0.3374(4) 0.9092(2) -0.0124(3)
O2C O 0.6626(4) 0.0908(2) 1.0124(3)
O5A O 0.3307(4) 0.54957(19) 0.5434(3)
O5C O 0.6693(4) 0.45043(19) 0.4566(3)
O6A O 0.3575(4) 0.54842(19) 0.7407(3)
O6C O 0.6425(4) 0.45158(19) 0.2593(3)
O8A O 0.0093(4) 0.55269(19) 0.7714(3)
O8C O 0.9907(4) 0.44731(19) 0.2286(3)
loop_
_geom_bond_atom_site_label_1
_geom_bond_atom_site_label_2
_geom_bond_site_symmetry_1
_geom_bond_site_symmetry_2
Mo1 F1 1_555 1_555
Cu1 O3 1_555 1_555
Cu2 O1 1_555 1_555
P1 O1 1_555 1_555
P2 O4 1_555 1_555
F1 Cu1A_3 1_555 1_555
O2 P1 1_555 1_555
O3 P1 1_555 1_555
O4 Mo1 1_555 1_555
O5 P2 1_555 1_555
O6 P2 1_555 1_555
O7 Mo1 1_555 1_555
H1 O7 1_555 1_555
H2 O7 1_555 1_555
O8 Mo1 1_555 1_555
O9 Mo1 1_555 1_555
N1 Cu2 1_555 1_555
N2 Cu2 1_555 1_555
C1 N1 1_555 1_555
H3 C1 1_555 1_555
C2 C1 1_555 1_555
H4 C2 1_555 1_555
C3 C2 1_555 1_555
H5 C3 1_555 1_555
C4 C3 1_555 1_555
H6 C4 1_555 1_555
C5 N1 1_555 1_555
C6 N2 1_555 1_555
C7 C6 1_555 1_555
H7 C7 1_555 1_555
C8 C7 1_555 1_555
H8 C8 1_555 1_555
C9 C8 1_555 1_555
H9 C9 1_555 1_555
C10 N2 1_555 1_555
H10 C10 1_555 1_555
C11 P1 1_555 1_555
H11 C11 1_555 1_555
H12 C11 1_555 1_555
C12 C11 1_555 1_555
C13 C12 1_555 1_555
H13 C13 1_555 1_555
C14 C13 1_555 1_555
H14 C14 1_555 1_555
C15 C12 1_555 1_555
H15 C15 1_555 1_555
C16 C15 1_555 1_555
C17 C14 1_555 1_555
H16 C17 1_555 1_555
C18 P2 1_555 1_555
H17 C18 1_555 1_555
H18 C18 1_555 1_555
Mo1B F1B 1_555 1_555
Cu2B O1B 1_555 1_555
P1B O1B 1_555 1_555
P2B O4B 1_555 1_555
F1B Cu1A_2 1_555 1_555
O2B P1B 1_555 1_555
O3B Cu1 1_555 1_555
O4B Mo1B 1_555 1_555
O5B P2B 1_555 1_555
O6B P2B 1_555 1_555
O7B Mo1B 1_555 1_555
H1B O7B 1_555 1_555
H2B O7B 1_555 1_555
O8B Mo1B 1_555 1_555
O9B Mo1B 1_555 1_555
N1B Cu2B 1_555 1_555
N2B Cu2B 1_555 1_555
C1B N1B 1_555 1_555
H3B C1B 1_555 1_555
C2B C1B 1_555 1_555
H4B C2B 1_555 1_555
C3B C2B 1_555 1_555
H5B C3B 1_555 1_555
C4B C3B 1_555 1_555
H6B C4B 1_555 1_555
C5B N1B 1_555 1_555
C6B N2B 1_555 1_555
C7B C6B 1_555 1_555
H7B C7B 1_555 1_555
C8B C7B 1_555 1_555
H8B C8B 1_555 1_555
C9B C8B 1_555 1_555
H9B C9B 1_555 1_555
C10B N2B 1_555 1_555
H10B C10B 1_555 1_555
C11B P1B 1_555 1_555
H11B C11B 1_555 1_555
H12B C11B 1_555 1_555
C12B C11B 1_555 1_555
C13B C12B 1_555 1_555
H13B C13B 1_555 1_555
C14B C13B 1_555 1_555
H14B C14B 1_555 1_555
C15B C12B 1_555 1_555
H15B C15B 1_555 1_555
C16B C15B 1_555 1_555
C17B C14B 1_555 1_555
H16B C17B 1_555 1_555
C18B P2B 1_555 1_555
H17B C18B 1_555 1_555
H18B C18B 1_555 1_555
Mo1A O2B 1_555 1_555
Mo1C O2 1_555 1_555
Cu1A O5 1_555 1_555
Cu1A_4 O5B 1_555 1_555
Cu2A O6 1_555 1_555
Cu2C O6B 1_555 1_555
F1A Cu1 1_555 1_555
F1C Cu1 1_555 1_555
O2A Mo1B 1_555 1_555
O2C Mo1 1_555 1_555
O5A Cu1 1_555 1_555
O5C Cu1 1_555 1_555
O6A Cu2 1_555 1_555
O6C Cu2B 1_555 1_555
O8A Cu2 1_555 1_555
O8C Cu2B 1_555 1_555
O8 Cu2A 1_555 1_555
C4 C5 1_555 1_555
C5 C6 1_555 1_555
C9 C10 1_555 1_555
C16 C17 1_555 1_555
C16 C18 1_555 1_555
P1B O3B 1_555 1_555
O8B Cu2C 1_555 1_555
C4B C5B 1_555 1_555
C5B C6B 1_555 1_555
C9B C10B 1_555 1_555
C16B C17B 1_555 1_555
C16B C18B 1_555 1_555
Mo1A F1A 1_555 1_555
Mo1C F1C 1_555 1_555

#END
