
#######################################################################
#
#                 Cambridge Crystallographic Data Centre
#                                CCDC 
#
#######################################################################
#
# If this CIF has been generated from an entry in the Cambridge 
# Structural Database, then it will include bibliographic, chemical, 
# crystal, experimental, refinement or atomic coordinate data resulting 
# from the CCDC's data processing and validation procedures.
#
#######################################################################

data_CIPBIO
_symmetry_cell_setting           triclinic
_symmetry_space_group_name_H-M   'P -1'
_symmetry_Int_Tables_number      2
_space_group_name_Hall           '-P 1'
loop_
_symmetry_equiv_pos_site_id
_symmetry_equiv_pos_as_xyz
1 x,y,z
2 -x,-y,-z
_cell_length_a                   10.9305(12)
_cell_length_b                   12.2497(14)
_cell_length_c                   16.2618(18)
_cell_angle_alpha                85.669(2)
_cell_angle_beta                 76.269(2)
_cell_angle_gamma                66.823(2)
_cell_volume                     1944.05
loop_
_atom_site_label
_atom_site_type_symbol
_atom_site_fract_x
_atom_site_fract_y
_atom_site_fract_z
Mo1 Mo 0.56915(3) 1.20034(3) 0.92401(2)
Mo2 Mo 0.81760(3) 0.78912(3) 0.52914(2)
Cu1 Cu 0.55088(4) 1.20194(4) 0.68758(3)
Cu2 Cu 0.83247(4) 0.79359(4) 0.79035(3)
P1 P -0.18037(9) 1.05493(8) 0.75925(6)
P2 P 0.57877(9) 0.93440(8) 0.70170(6)
F1 F 0.5921(2) 1.06330(19) 1.00239(13)
F2 F 0.3975(2) 1.2772(2) 1.00332(14)
F3 F 0.8090(3) 0.9307(2) 0.46181(16)
O1 O 0.4440(3) 1.1076(2) 0.89138(16)
H1 H 0.469(4) 1.092(3) 0.8398(12)
H2 H 0.455(5) 1.043(2) 0.915(2)
O2 O -0.2675(3) 1.0764(2) 0.85061(16)
O3 O -0.2607(3) 1.1199(2) 0.69391(16)
O4 O -0.1080(3) 0.9217(2) 0.74142(16)
O5 O 0.5010(3) 1.0668(2) 0.72511(15)
O6 O 0.5658(4) 1.1538(3) 0.5410(2)
H3 H 0.617(4) 1.077(2) 0.542(4)
H4 H 0.488(3) 1.157(4) 0.533(4)
O7 O 0.6505(3) 0.8652(2) 0.76879(16)
O8 O 0.6741(3) 0.9203(2) 0.61336(16)
O9 O 0.9569(3) 0.8438(3) 0.5801(2)
H5 H 0.930(6) 0.917(2) 0.563(3)
H6 H 0.934(5) 0.862(4) 0.6337(13)
O10 O 0.7748(3) 0.8399(2) 0.92871(17)
H7 H 0.742(4) 0.9121(17) 0.928(3)
H8 H 0.715(3) 0.817(3) 0.954(3)
O11 O 0.8313(3) 0.6869(3) 0.6155(2)
O12 O 0.7006(3) 0.7630(3) 0.4891(2)
O13 O 0.5264(3) 1.2878(2) 0.83976(17)
O14 O 0.6561(3) 1.2608(3) 0.96553(18)
O15 O 0.9746(3) 0.7043(3) 0.4560(2)
N1 N 0.3580(3) 1.3062(3) 0.68511(19)
N2 N 0.5824(3) 1.3506(3) 0.64874(19)
N3 N 1.0220(3) 0.6960(3) 0.81000(19)
N4 N 0.8096(3) 0.6385(3) 0.8216(2)
C1 C 0.2489(4) 1.2787(4) 0.7032(2)
H9 H 0.2563 1.2035 0.7264
C2 C 0.1208(4) 1.3595(4) 0.6887(3)
H10 H 0.0435 1.3386 0.7023
C3 C 0.1104(4) 1.4675(4) 0.6551(3)
H11 H 0.0258 1.5214 0.6443
C4 C 0.2243(4) 1.4992(4) 0.6364(2)
C5 C 0.3467(4) 1.4143(3) 0.6526(2)
C6 C 0.2233(5) 1.6104(4) 0.6026(3)
H12 H 0.1415 1.6681 0.5906
C7 C 0.3384(5) 1.6355(3) 0.5871(3)
H13 H 0.3345 1.7106 0.5653
C8 C 0.4645(4) 1.5502(3) 0.6033(2)
C9 C 0.4672(4) 1.4393(3) 0.6344(2)
C10 C 0.5860(5) 1.5684(4) 0.5887(3)
H14 H 0.5886 1.6423 0.5679
C11 C 0.7025(4) 1.4788(4) 0.6045(3)
H15 H 0.7852 1.4910 0.5958
C12 C 0.6977(4) 1.3704(3) 0.6333(2)
H16 H 0.7790 1.3084 0.6423
C13 C 1.1263(4) 0.7282(3) 0.8033(3)
H17 H 1.1205 0.8030 0.7798
C14 C 1.2457(4) 0.6547(4) 0.8300(3)
H18 H 1.3192 0.6799 0.8238
C15 C 1.2558(4) 0.5473(4) 0.8649(3)
H19 H 1.3363 0.4973 0.8826
C16 C 1.1450(4) 0.5114(3) 0.8743(2)
C17 C 1.0307(4) 0.5901(3) 0.8456(2)
C18 C 1.1440(5) 0.4009(4) 0.9102(3)
H20 H 1.2213 0.3469 0.9293
C19 C 1.0346(5) 0.3733(3) 0.9169(3)
H21 H 1.0355 0.3005 0.9419
C20 C 0.9161(4) 0.4510(3) 0.8872(2)
C21 C 0.9158(4) 0.5594(3) 0.8519(2)
C22 C 0.8009(5) 0.4252(4) 0.8893(3)
H22 H 0.7958 0.3534 0.9131
C23 C 0.6959(4) 0.5053(4) 0.8565(3)
H23 H 0.6186 0.4880 0.8561
C24 C 0.7027(4) 0.6115(4) 0.8240(3)
H24 H 0.6283 0.6666 0.8027
C25 C 0.4512(4) 0.8782(3) 0.6924(2)
H25 H 0.4339 0.8946 0.6348
H26 H 0.4895 0.7909 0.6985
C26 C 0.3162(4) 0.9296(3) 0.7560(2)
C27 C 0.3063(4) 0.9161(4) 0.8429(2)
H27 H 0.3857 0.8711 0.8636
C28 C 0.1978(4) 0.9954(3) 0.7276(2)
H28 H 0.2032 1.0047 0.6685
C29 C 0.1815(4) 0.9679(4) 0.8993(2)
H29 H 0.1764 0.9580 0.9584
C30 C 0.0705(4) 1.0481(3) 0.7844(2)
C31 C 0.0638(4) 1.0339(4) 0.8711(2)
H30 H -0.0209 1.0693 0.9106
C32 C -0.0541(4) 1.1189(3) 0.7502(2)
H31 H -0.0231 1.1331 0.6896
H32 H -0.0997 1.1973 0.7797
Mo1_2 Mo -0.43085(3) 1.20034(3) 0.92401(2)
Cu1_2 Cu -0.44912(4) 1.20194(4) 0.68758(3)
Cu2_2 Cu -0.16753(4) 0.79359(4) 0.79035(3)
O2_2 O 0.7325(3) 1.0764(2) 0.85061(16)
O3_2 O 0.7393(3) 1.1199(2) 0.69391(16)
O4_2 O 0.8920(3) 0.9217(2) 0.74142(16)
O16 O 0.8489(5) 0.1122(4) 0.5165(2)
H33 H 0.849(7) 0.042(3) 0.504(3)
H34 H 0.830(7) 0.107(5) 0.5724(13)
loop_
_geom_bond_atom_site_label_1
_geom_bond_atom_site_label_2
_geom_bond_site_symmetry_1
_geom_bond_site_symmetry_2
Mo1 F1 1_555 1_555
Mo2 F3 1_555 1_555
Cu1 O5 1_555 1_555
Cu2 O7 1_555 1_555
P1 O2 1_555 1_555
P2 O5 1_555 1_555
F2 Mo1 1_555 1_555
O1 Mo1 1_555 1_555
H1 O1 1_555 1_555
H2 O1 1_555 1_555
O2 Mo1_2 1_555 1_555
O3 P1 1_555 1_555
O4 P1 1_555 1_555
O6 Cu1 1_555 1_555
H3 O6 1_555 1_555
H4 O6 1_555 1_555
O7 P2 1_555 1_555
O8 Mo2 1_555 1_555
O9 Mo2 1_555 1_555
H5 O9 1_555 1_555
H6 O9 1_555 1_555
O10 Cu2 1_555 1_555
H7 O10 1_555 1_555
H8 O10 1_555 1_555
O11 Mo2 1_555 1_555
O12 Mo2 1_555 1_555
O13 Mo1 1_555 1_555
O14 Mo1 1_555 1_555
O15 Mo2 1_555 1_555
N1 Cu1 1_555 1_555
N2 Cu1 1_555 1_555
N3 Cu2 1_555 1_555
N4 Cu2 1_555 1_555
C1 N1 1_555 1_555
H9 C1 1_555 1_555
C2 C1 1_555 1_555
H10 C2 1_555 1_555
C3 C2 1_555 1_555
H11 C3 1_555 1_555
C4 C3 1_555 1_555
C5 N1 1_555 1_555
C6 C4 1_555 1_555
H12 C6 1_555 1_555
C7 C6 1_555 1_555
H13 C7 1_555 1_555
C8 C7 1_555 1_555
C9 N2 1_555 1_555
C10 C8 1_555 1_555
H14 C10 1_555 1_555
C11 C10 1_555 1_555
H15 C11 1_555 1_555
C12 N2 1_555 1_555
H16 C12 1_555 1_555
C13 N3 1_555 1_555
H17 C13 1_555 1_555
C14 C13 1_555 1_555
H18 C14 1_555 1_555
C15 C14 1_555 1_555
H19 C15 1_555 1_555
C16 C15 1_555 1_555
C17 N3 1_555 1_555
C18 C16 1_555 1_555
H20 C18 1_555 1_555
C19 C18 1_555 1_555
H21 C19 1_555 1_555
C20 C19 1_555 1_555
C21 N4 1_555 1_555
C22 C20 1_555 1_555
H22 C22 1_555 1_555
C23 C22 1_555 1_555
H23 C23 1_555 1_555
C24 N4 1_555 1_555
H24 C24 1_555 1_555
C25 P2 1_555 1_555
H25 C25 1_555 1_555
H26 C25 1_555 1_555
C26 C25 1_555 1_555
C27 C26 1_555 1_555
H27 C27 1_555 1_555
C28 C26 1_555 1_555
H28 C28 1_555 1_555
C29 C27 1_555 1_555
H29 C29 1_555 1_555
C30 C28 1_555 1_555
C31 C29 1_555 1_555
H30 C31 1_555 1_555
C32 P1 1_555 1_555
H31 C32 1_555 1_555
H32 C32 1_555 1_555
O16 H33 1_555 1_555
H34 O16 1_555 1_555
Cu1_2 O3 1_555 1_555
Cu2_2 O4 1_555 1_555
O2_2 Mo1 1_555 1_555
O3_2 Cu1 1_555 1_555
O4_2 Cu2 1_555 1_555
Cu1 O13 1_555 1_555
P2 O8 1_555 1_555
C4 C5 1_555 1_555
C5 C9 1_555 1_555
C8 C9 1_555 1_555
C11 C12 1_555 1_555
C16 C17 1_555 1_555
C17 C21 1_555 1_555
C20 C21 1_555 1_555
C23 C24 1_555 1_555
C30 C31 1_555 1_555
C30 C32 1_555 1_555

#END
