
#######################################################################
#
#                 Cambridge Crystallographic Data Centre
#                                CCDC 
#
#######################################################################
#
# If this CIF has been generated from an entry in the Cambridge 
# Structural Database, then it will include bibliographic, chemical, 
# crystal, experimental, refinement or atomic coordinate data resulting 
# from the CCDC's data processing and validation procedures.
#
#######################################################################

data_CIPDIQ
_symmetry_cell_setting           monoclinic
_symmetry_space_group_name_H-M   'C 2/c'
_symmetry_Int_Tables_number      15
_space_group_name_Hall           '-C 2yn'
loop_
_symmetry_equiv_pos_site_id
_symmetry_equiv_pos_as_xyz
1 x,y,z
2 -x,y,1/2-z
3 1/2+x,1/2+y,z
4 1/2-x,1/2+y,1/2-z
5 -x,-y,-z
6 x,-y,1/2+z
7 1/2-x,1/2-y,-z
8 1/2+x,1/2-y,1/2+z
_cell_length_a                   26.0990(17)
_cell_length_b                   8.7015(3)
_cell_length_c                   15.0839(9)
_cell_angle_alpha                90
_cell_angle_beta                 116.468(8)
_cell_angle_gamma                90
_cell_volume                     3066.5
loop_
_atom_site_label
_atom_site_type_symbol
_atom_site_fract_x
_atom_site_fract_y
_atom_site_fract_z
Ag1 Ag 0.35625(3) 0.66314(9) 0.22528(5)
Ag2 Ag 0.48973(2) 1.51210(6) 0.08909(4)
O1 O 0.4469(2) 1.2927(5) 0.0250(3)
N1 N 0.2991(3) 0.5935(7) 0.2849(4)
C1 C 0.3114(3) 0.5809(8) 0.3792(5)
H1 H 0.3476 0.5986 0.4305
N2 N 0.2666(2) 0.5402(6) 0.3933(4)
C2 C 0.4138(2) 0.9870(6) 0.0075(4)
H2 H 0.4120 1.0447 0.0580
C3 C 0.4272(2) 1.0588(7) -0.0612(4)
C4 C 0.4443(2) 1.2246(7) -0.0493(5)
C5 C 0.2216(3) 0.5258(9) 0.3021(5)
H3 H 0.1844 0.4988 0.2884
C6 C 0.2411(3) 0.5580(10) 0.2355(5)
H4 H 0.2193 0.5567 0.1672
C7 C 0.4029(3) 0.8309(7) 0.0026(4)
C8 C 0.4036(2) 0.7456(7) -0.0752(4)
H5 H 0.3961 0.6407 -0.0798
C9 C 0.2366(3) 0.6758(8) 0.5056(5)
H6 H 0.1962 0.6764 0.4594
H7 H 0.2396 0.6712 0.5720
C10 C 0.4280(2) 0.9735(7) -0.1389(4)
H8 H 0.4369 1.0202 -0.1859
C11 C 0.2641(3) 0.5323(9) 0.4875(5)
H9 H 0.3026 0.5212 0.5406
H10 H 0.2423 0.4426 0.4882
O2 O 0.4031(2) 0.6115(6) 0.0966(3)
C12 C 0.4155(3) 0.8180(7) -0.1450(4)
O3 O 0.4552(2) 1.2839(5) -0.1154(3)
C13 C 0.3911(3) 0.7501(8) 0.0806(4)
O4 O 0.3686(2) 0.8296(6) 0.1241(4)
I1 I 0.41650(2) 0.68486(5) -0.26131(3)
N1F N 0.2009(3) 0.9065(7) 0.7151(4)
C1F C 0.1886(3) 0.9191(8) 0.6208(5)
H1F H 0.1524 0.9014 0.5695
N2F N 0.2334(2) 0.9598(6) 0.6067(4)
C5F C 0.2784(3) 0.9742(9) 0.6979(5)
H3F H 0.3156 1.0012 0.7116
C6F C 0.2589(3) 0.9420(10) 0.7645(5)
H4F H 0.2807 0.9433 0.8328
C9F C 0.2634(3) 0.8242(8) 0.4944(5)
H6F H 0.3038 0.8236 0.5406
H7F H 0.2604 0.8288 0.4280
C11F C 0.2359(3) 0.9677(9) 0.5125(5)
H9F H 0.1974 0.9788 0.4594
H10F H 0.2577 1.0574 0.5118
Ag1D Ag 0.64375(3) 2.33686(9) -0.22528(5)
Ag2D Ag 0.51027(2) 1.48790(6) -0.08909(4)
O1D O 0.5531(2) 1.7073(5) -0.0250(3)
C2D C 0.5862(2) 2.0130(6) -0.0075(4)
H2D H 0.5880 1.9553 -0.0580
C3D C 0.5728(2) 1.9412(7) 0.0612(4)
C4D C 0.5557(2) 1.7754(7) 0.0493(5)
C7D C 0.5971(3) 2.1691(7) -0.0026(4)
C8D C 0.5964(2) 2.2544(7) 0.0752(4)
H5D H 0.6039 2.3593 0.0798
C10D C 0.5720(2) 2.0265(7) 0.1389(4)
H8D H 0.5631 1.9798 0.1859
O2D O 0.5969(2) 2.3885(6) -0.0966(3)
C12D C 0.5845(3) 2.1820(7) 0.1450(4)
O3D O 0.5448(2) 1.7161(5) 0.1154(3)
C13D C 0.6089(3) 2.2499(8) -0.0806(4)
O4D O 0.6314(2) 2.1704(6) -0.1241(4)
I1D I 0.58350(2) 2.31514(5) 0.26131(3)
Ag1A Ag 0.64375(3) 1.66314(9) 0.27472(5)
Ag1E Ag 0.35625(3) 1.33686(9) -0.27472(5)
Ag1F Ag 0.14375(3) 0.83686(9) 0.77472(5)
Ag2_2 Ag 0.48973(2) 0.51210(6) 0.08909(4)
Ag2D_2 Ag 0.51027(2) 2.48790(6) -0.08909(4)
N1D N 0.7009(3) 2.4065(7) -0.2849(4)
O2_2 O 0.4031(2) 1.6115(6) 0.0966(3)
O2D_2 O 0.5969(2) 1.3885(6) -0.0966(3)
O3A O 0.5448(2) 2.2839(5) -0.3846(3)
O3E O 0.4552(2) 0.7161(5) 0.3846(3)
loop_
_geom_bond_atom_site_label_1
_geom_bond_atom_site_label_2
_geom_bond_site_symmetry_1
_geom_bond_site_symmetry_2
Ag1 N1 1_555 1_555
Ag2 O1 1_555 1_555
O1 C4 1_555 1_555
N1 C1 1_555 1_555
C1 H1 1_555 1_555
N2 C1 1_555 1_555
C2 H2 1_555 1_555
C3 C2 1_555 1_555
C4 C3 1_555 1_555
C5 N2 1_555 1_555
H3 C5 1_555 1_555
C6 N1 1_555 1_555
H4 C6 1_555 1_555
C7 C2 1_555 1_555
C8 C7 1_555 1_555
H5 C8 1_555 1_555
C9 H6 1_555 1_555
H7 C9 1_555 1_555
C10 C3 1_555 1_555
H8 C10 1_555 1_555
C11 N2 1_555 1_555
H9 C11 1_555 1_555
H10 C11 1_555 1_555
O2 C13 1_555 1_555
C12 C8 1_555 1_555
O3 C4 1_555 1_555
C13 C7 1_555 1_555
O4 Ag1 1_555 1_555
I1 C12 1_555 1_555
N1F C1F 1_555 1_555
C1F H1F 1_555 1_555
N2F C1F 1_555 1_555
C5F N2F 1_555 1_555
H3F C5F 1_555 1_555
C6F N1F 1_555 1_555
H4F C6F 1_555 1_555
C9F C9 1_555 1_555
H6F C9F 1_555 1_555
H7F C9F 1_555 1_555
C11F N2F 1_555 1_555
H9F C11F 1_555 1_555
H10F C11F 1_555 1_555
Ag1D O4D 1_555 1_555
Ag2D Ag2 1_555 1_555
O1D Ag2D 1_555 1_555
C2D H2D 1_555 1_555
C3D C2D 1_555 1_555
C4D O1D 1_555 1_555
C7D C2D 1_555 1_555
C8D C7D 1_555 1_555
H5D C8D 1_555 1_555
C10D C3D 1_555 1_555
H8D C10D 1_555 1_555
O2D C13D 1_555 1_555
C12D C8D 1_555 1_555
O3D Ag2 1_555 1_555
C13D C7D 1_555 1_555
O4D C13D 1_555 1_555
I1D C12D 1_555 1_555
Ag1A O3D 1_555 1_555
Ag1E O3 1_555 1_555
Ag1F N1F 1_555 1_555
Ag2_2 O2 1_555 1_555
Ag2D_2 O2D 1_555 1_555
N1D Ag1D 1_555 1_555
O2_2 Ag2 1_555 1_555
O2D_2 Ag2D 1_555 1_555
O3A Ag1D 1_555 1_555
O3E Ag1 1_555 1_555
C5 C6 1_555 1_555
C9 C11 1_555 1_555
C10 C12 1_555 1_555
O3 Ag2D 1_555 1_555
C13 O4 1_555 1_555
C5F C6F 1_555 1_555
C9F C11F 1_555 1_555
C3D C4D 1_555 1_555
C4D O3D 1_555 1_555
C10D C12D 1_555 1_555

#END
