
#######################################################################
#
#                 Cambridge Crystallographic Data Centre
#                                CCDC 
#
#######################################################################
#
# If this CIF has been generated from an entry in the Cambridge 
# Structural Database, then it will include bibliographic, chemical, 
# crystal, experimental, refinement or atomic coordinate data resulting 
# from the CCDC's data processing and validation procedures.
#
#######################################################################

data_CIPDEM
_symmetry_cell_setting           triclinic
_symmetry_space_group_name_H-M   'P -1'
_symmetry_Int_Tables_number      2
_space_group_name_Hall           '-P 1'
loop_
_symmetry_equiv_pos_site_id
_symmetry_equiv_pos_as_xyz
1 x,y,z
2 -x,-y,-z
_cell_length_a                   11.2576(4)
_cell_length_b                   12.6293(4)
_cell_length_c                   16.9504(5)
_cell_angle_alpha                102.542(3)
_cell_angle_beta                 93.087(3)
_cell_angle_gamma                106.942(3)
_cell_volume                     2232.56
loop_
_atom_site_label
_atom_site_type_symbol
_atom_site_fract_x
_atom_site_fract_y
_atom_site_fract_z
Ag1 Ag 0.79090(6) 1.23350(4) 0.59445(4)
N1 N 0.7309(5) 0.9177(5) 0.6738(3)
N2 N 0.7756(5) 1.0636(5) 0.6173(3)
C1 C 0.8242(6) 0.9090(6) 0.6280(4)
H1 H 0.8617 0.8516 0.6209
C2 C 0.8520(7) 0.9990(6) 0.5950(4)
H2 H 0.9145 1.0152 0.5617
C3 C 0.7030(7) 1.0106(6) 0.6653(4)
H3 H 0.6406 1.0351 0.6898
C4 C 0.5718(6) 0.7296(6) 0.6660(4)
C5 C 0.3991(7) 0.6410(6) 0.5592(4)
H4 H 0.3437 0.6479 0.5194
C6 C 0.3916(6) 0.5347(6) 0.5701(4)
C7 C 0.4877(7) 0.7379(6) 0.6065(4)
H5 H 0.4910 0.8091 0.5984
C8 C 0.4771(6) 0.5269(6) 0.6295(4)
H6 H 0.4742 0.4558 0.6377
C9 C 0.5662(6) 0.6240(6) 0.6764(4)
H7 H 0.6229 0.6173 0.7155
C10 C 0.6667(7) 0.8355(6) 0.7198(4)
H8 H 0.6246 0.8727 0.7603
H9 H 0.7286 0.8130 0.7484
N3 N 0.2322(5) 0.3471(5) 0.5612(3)
C11 C 0.2945(7) 0.4305(6) 0.5162(4)
H10 H 0.2319 0.4546 0.4898
H11 H 0.3346 0.3940 0.4740
C12 C 0.1407(7) 0.3555(6) 0.6073(4)
H12 H 0.1030 0.4127 0.6122
C13 C 0.2616(7) 0.2530(6) 0.5705(5)
H13 H 0.3220 0.2249 0.5462
C14 C 0.1864(7) 0.2088(6) 0.6215(5)
H14 H 0.1864 0.1435 0.6384
N4 N 0.1110(6) 0.2719(5) 0.6451(4)
Ag2 Ag -1.0000 -0.5000 1.0000
Ag3 Ag -0.01043(6) 0.25439(6) 0.73639(4)
N5 N -0.8777(5) -0.4778(5) 0.9113(3)
N6 N -0.7707(5) -0.3986(5) 0.8243(3)
C15 C -0.7433(7) -0.4986(6) 0.8224(4)
H15 H -0.6903 -0.5278 0.7902
C16 C -0.8511(6) -0.3902(6) 0.8781(4)
H16 H -0.8843 -0.3301 0.8906
C17 C -0.8103(7) -0.5455(6) 0.8777(4)
H17 H -0.8099 -0.6134 0.8905
C18 C -0.4070(6) -0.0291(6) 0.9185(4)
C19 C -0.5192(6) -0.2297(6) 0.8808(4)
H18 H -0.5260 -0.3032 0.8854
C20 C -0.4984(6) -0.0133(6) 0.8687(4)
H19 H -0.4926 0.0602 0.8643
C21 C -0.4190(6) -0.1393(6) 0.9250(4)
H20 H -0.3600 -0.1525 0.9590
C22 C -0.5983(6) -0.1038(6) 0.8254(4)
H21 H -0.6590 -0.0907 0.7927
C23 C -0.6083(6) -0.2137(6) 0.8304(4)
C24 C -0.7145(6) -0.3133(6) 0.7793(4)
H22 H -0.7786 -0.2846 0.7598
H23 H -0.6831 -0.3497 0.7321
C25 C -0.2969(7) 0.0678(6) 0.9649(4)
H24 H -0.3239 0.1088 1.0123
H25 H -0.2346 0.0370 0.9842
C26 C -0.1580(6) 0.1338(6) 0.8628(4)
H26 H -0.1294 0.0709 0.8508
C27 C -0.2584(7) 0.2490(6) 0.9155(4)
H27 H -0.3102 0.2814 0.9467
N7 N -0.2388(5) 0.1485(5) 0.9171(3)
N8 N -0.1254(5) 0.2213(5) 0.8291(3)
C28 C -0.1907(7) 0.2936(6) 0.8616(4)
H28 H -0.1882 0.3618 0.8482
I1 I 0.67194(4) 1.55620(4) 0.90439(3)
O1 O 0.4556(5) 1.0755(4) 0.6138(3)
O2 O 0.5754(5) 1.2416(4) 0.5968(3)
C29 C 0.5114(6) 1.1829(6) 0.6371(4)
C30 C 0.4911(6) 1.2375(5) 0.7223(4)
C31 C 0.5691(6) 1.3469(5) 0.7612(4)
H29 H 0.6331 1.3856 0.7357
C32 C 0.5496(6) 1.3964(5) 0.8384(4)
C33 C 0.3955(6) 1.1813(6) 0.7603(4)
H30 H 0.3455 1.1076 0.7345
C34 C 0.4509(6) 1.3418(5) 0.8759(4)
H31 H 0.4373 1.3777 0.9270
C35 C 0.3730(6) 1.2336(5) 0.8368(4)
O3 O 0.2426(5) 1.2263(5) 0.9403(3)
C36 C 0.2588(9) 1.1735(8) 0.8767(6)
O4 O 0.2126(6) 1.0742(5) 0.8508(4)
Ag4 Ag 0.06520(5) 1.09606(5) 0.96390(3)
I2 I -0.17865(5) 1.12717(4) 1.41398(3)
Ag5 Ag 0.5000 1.0000 0.5000
C37 C 0.0514(6) 1.4024(5) 1.3197(4)
C38 C -0.0134(6) 1.3403(5) 1.3712(4)
H32 H -0.0220 1.3771 1.4234
C39 C -0.0647(6) 1.2235(5) 1.3436(4)
C40 C 0.0646(6) 1.3447(5) 1.2423(4)
H33 H 0.1057 1.3859 1.2071
C41 C -0.0479(6) 1.1644(5) 1.2681(4)
H34 H -0.0795 1.0852 1.2522
C42 C 0.0169(6) 1.2259(5) 1.2170(4)
C43 C 0.0291(6) 1.1646(5) 1.1317(4)
O5 O 0.0666(4) 1.0792(4) 1.1252(3)
O6 O 0.0002(5) 1.2023(4) 1.0744(3)
C44 C 0.1050(6) 1.5301(5) 1.3454(4)
O7 O 0.1303(5) 1.5834(4) 1.2909(3)
O8 O 0.1185(4) 1.5785(4) 1.4197(3)
Ag1A Ag -2.79090(6) -2.23350(4) 1.40555(4)
N1A N -2.7309(5) -1.9177(5) 1.3262(3)
N2A N -2.7756(5) -2.0636(5) 1.3827(3)
C1A C -2.8242(6) -1.9090(6) 1.3720(4)
H1A H -2.8617 -1.8516 1.3791
C2A C -2.8520(7) -1.9990(6) 1.4050(4)
H2A H -2.9145 -2.0152 1.4383
C3A C -2.7030(7) -2.0106(6) 1.3347(4)
H3A H -2.6406 -2.0351 1.3102
C4A C -2.5718(6) -1.7296(6) 1.3340(4)
C5A C -2.3991(7) -1.6410(6) 1.4408(4)
H4A H -2.3437 -1.6479 1.4806
C6A C -2.3916(6) -1.5347(6) 1.4299(4)
C7A C -2.4877(7) -1.7379(6) 1.3935(4)
H5A H -2.4910 -1.8091 1.4016
C8A C -2.4771(6) -1.5269(6) 1.3705(4)
H6A H -2.4742 -1.4558 1.3623
C9A C -2.5662(6) -1.6240(6) 1.3236(4)
H7A H -2.6229 -1.6173 1.2845
C10A C -2.6667(7) -1.8355(6) 1.2802(4)
H8A H -2.6246 -1.8727 1.2397
H9A H -2.7286 -1.8130 1.2516
N3A N -2.2322(5) -1.3471(5) 1.4388(3)
C11A C -2.2945(7) -1.4305(6) 1.4838(4)
H10A H -2.2319 -1.4546 1.5102
H11A H -2.3346 -1.3940 1.5260
C12A C -2.1407(7) -1.3555(6) 1.3927(4)
H12A H -2.1030 -1.4127 1.3878
C13A C -2.2616(7) -1.2530(6) 1.4295(5)
H13A H -2.3220 -1.2249 1.4538
C14A C -2.1864(7) -1.2088(6) 1.3785(5)
H14A H -2.1864 -1.1435 1.3616
N4A N -2.1110(6) -1.2719(5) 1.3549(4)
Ag3A Ag -1.98957(6) -1.25439(6) 1.26361(4)
N5A N -1.1223(5) -0.5222(5) 1.0887(3)
N6A N -1.2293(5) -0.6014(5) 1.1757(3)
C15A C -1.2567(7) -0.5014(6) 1.1776(4)
H15A H -1.3097 -0.4722 1.2098
C16A C -1.1489(6) -0.6098(6) 1.1219(4)
H16A H -1.1157 -0.6699 1.1094
C17A C -1.1897(7) -0.4545(6) 1.1223(4)
H17A H -1.1901 -0.3866 1.1095
C18A C -1.5930(6) -0.9709(6) 1.0815(4)
C19A C -1.4808(6) -0.7703(6) 1.1192(4)
H18A H -1.4740 -0.6968 1.1146
C20A C -1.5016(6) -0.9867(6) 1.1313(4)
H19A H -1.5074 -1.0602 1.1357
C21A C -1.5810(6) -0.8607(6) 1.0750(4)
H20A H -1.6400 -0.8475 1.0410
C22A C -1.4017(6) -0.8962(6) 1.1746(4)
H21A H -1.3410 -0.9093 1.2073
C23A C -1.3917(6) -0.7863(6) 1.1696(4)
C24A C -1.2855(6) -0.6867(6) 1.2207(4)
H22A H -1.2214 -0.7154 1.2402
H23A H -1.3169 -0.6503 1.2679
C25A C -1.7031(7) -1.0678(6) 1.0351(4)
H24A H -1.6761 -1.1088 0.9877
H25A H -1.7654 -1.0370 1.0158
C26A C -1.8420(6) -1.1338(6) 1.1372(4)
H26A H -1.8706 -1.0709 1.1492
C27A C -1.7416(7) -1.2490(6) 1.0845(4)
H27A H -1.6898 -1.2814 1.0533
N7A N -1.7612(5) -1.1485(5) 1.0829(3)
N8A N -1.8746(5) -1.2213(5) 1.1709(3)
C28A C -1.8093(7) -1.2936(6) 1.1384(4)
H28A H -1.8118 -1.3618 1.1518
I1A I -2.67194(4) -2.55620(4) 1.09561(3)
O1A O -2.4556(5) -2.0755(4) 1.3862(3)
O2A O -2.5754(5) -2.2416(4) 1.4032(3)
C29A C -2.5114(6) -2.1829(6) 1.3629(4)
C30A C -2.4911(6) -2.2375(5) 1.2777(4)
C31A C -2.5691(6) -2.3469(5) 1.2388(4)
H29A H -2.6331 -2.3856 1.2643
C32A C -2.5496(6) -2.3964(5) 1.1616(4)
C33A C -2.3955(6) -2.1813(6) 1.2397(4)
H30A H -2.3455 -2.1076 1.2655
C34A C -2.4509(6) -2.3418(5) 1.1241(4)
H31A H -2.4373 -2.3777 1.0730
C35A C -2.3730(6) -2.2336(5) 1.1632(4)
O3A O -2.2426(5) -2.2263(5) 1.0597(3)
C36A C -2.2588(9) -2.1735(8) 1.1233(6)
O4A O -2.2126(6) -2.0742(5) 1.1492(4)
Ag4A Ag -2.06520(5) -2.09606(5) 1.03610(3)
I2A I -1.82135(5) -2.12717(4) 0.58602(3)
C37A C -2.0514(6) -2.4024(5) 0.6803(4)
C38A C -1.9866(6) -2.3403(5) 0.6288(4)
H32A H -1.9780 -2.3771 0.5766
C39A C -1.9353(6) -2.2235(5) 0.6564(4)
C40A C -2.0646(6) -2.3447(5) 0.7577(4)
H33A H -2.1057 -2.3859 0.7929
C41A C -1.9521(6) -2.1644(5) 0.7319(4)
H34A H -1.9205 -2.0852 0.7478
C42A C -2.0169(6) -2.2259(5) 0.7830(4)
C43A C -2.0291(6) -2.1646(5) 0.8683(4)
O5A O -2.0666(4) -2.0792(4) 0.8748(3)
O6A O -2.0002(5) -2.2023(4) 0.9256(3)
C44A C -2.1050(6) -2.5301(5) 0.6546(4)
O7A O -2.1303(5) -2.5834(4) 0.7091(3)
O8A O -2.1185(4) -2.5785(4) 0.5803(3)
Ag1_2 Ag -2.20910(6) -2.76650(4) 0.59445(4)
Ag1A_2 Ag 0.20910(6) 1.76650(4) 1.40555(4)
O1A_2 O 0.5444(5) 0.9245(4) 0.3862(3)
Ag4_2 Ag -1.93480(5) -1.90394(5) 0.96390(3)
Ag4A_2 Ag -0.06520(5) 0.90394(5) 1.03610(3)
Ag5_2 Ag -2.5000 -2.0000 1.5000
O5_2 O -1.9334(4) -1.9208(4) 1.1252(3)
O5A_2 O -0.0666(4) 0.9208(4) 0.8748(3)
O7_2 O -2.8697(5) -2.4166(4) 1.2909(3)
O7A_2 O 0.8697(5) 1.4166(4) 0.7091(3)
O8_2 O -2.8815(4) -2.4215(4) 1.4197(3)
O8A_2 O 0.8815(4) 1.4215(4) 0.5803(3)
loop_
_geom_bond_atom_site_label_1
_geom_bond_atom_site_label_2
_geom_bond_site_symmetry_1
_geom_bond_site_symmetry_2
Ag1 N2 1_555 1_555
N1 C1 1_555 1_555
N2 C2 1_555 1_555
C1 H1 1_555 1_555
C2 C1 1_555 1_555
H2 C2 1_555 1_555
C3 N1 1_555 1_555
H3 C3 1_555 1_555
C4 C7 1_555 1_555
C5 H4 1_555 1_555
C6 C5 1_555 1_555
C7 C5 1_555 1_555
H5 C7 1_555 1_555
C8 C6 1_555 1_555
H6 C8 1_555 1_555
C9 C4 1_555 1_555
H7 C9 1_555 1_555
C10 N1 1_555 1_555
H8 C10 1_555 1_555
H9 C10 1_555 1_555
N3 C11 1_555 1_555
C11 C6 1_555 1_555
H10 C11 1_555 1_555
H11 C11 1_555 1_555
C12 N3 1_555 1_555
H12 C12 1_555 1_555
C13 N3 1_555 1_555
H13 C13 1_555 1_555
C14 C13 1_555 1_555
H14 C14 1_555 1_555
N4 C12 1_555 1_555
Ag2 N5 1_555 1_555
Ag3 N4 1_555 1_555
N5 C16 1_555 1_555
N6 C15 1_555 1_555
C15 H15 1_555 1_555
C16 N6 1_555 1_555
H16 C16 1_555 1_555
C17 N5 1_555 1_555
H17 C17 1_555 1_555
C18 C20 1_555 1_555
C19 H18 1_555 1_555
C20 H19 1_555 1_555
C21 C18 1_555 1_555
H20 C21 1_555 1_555
C22 C20 1_555 1_555
H21 C22 1_555 1_555
C23 C19 1_555 1_555
C24 N6 1_555 1_555
H22 C24 1_555 1_555
H23 C24 1_555 1_555
C25 C18 1_555 1_555
H24 C25 1_555 1_555
H25 C25 1_555 1_555
C26 H26 1_555 1_555
C27 H27 1_555 1_555
N7 C25 1_555 1_555
N8 Ag3 1_555 1_555
C28 C27 1_555 1_555
H28 C28 1_555 1_555
I1 C32 1_555 1_555
O1 C29 1_555 1_555
O2 Ag1 1_555 1_555
C29 O2 1_555 1_555
C30 C29 1_555 1_555
C31 C30 1_555 1_555
H29 C31 1_555 1_555
C32 C31 1_555 1_555
C33 C30 1_555 1_555
H30 C33 1_555 1_555
C34 C32 1_555 1_555
H31 C34 1_555 1_555
C35 C33 1_555 1_555
O3 C36 1_555 1_555
C36 C35 1_555 1_555
O4 C36 1_555 1_555
Ag4 O3 1_555 1_555
I2 C39 1_555 1_555
Ag5 O1 1_555 1_555
C37 C38 1_555 1_555
C38 H32 1_555 1_555
C39 C38 1_555 1_555
C40 C37 1_555 1_555
H33 C40 1_555 1_555
C41 C39 1_555 1_555
H34 C41 1_555 1_555
C42 C40 1_555 1_555
C43 C42 1_555 1_555
O5 C43 1_555 1_555
O6 Ag4 1_555 1_555
C44 C37 1_555 1_555
O7 C44 1_555 1_555
O8 C44 1_555 1_555
Ag1A N2A 1_555 1_555
N1A C1A 1_555 1_555
N2A C2A 1_555 1_555
C1A H1A 1_555 1_555
C2A C1A 1_555 1_555
H2A C2A 1_555 1_555
C3A N1A 1_555 1_555
H3A C3A 1_555 1_555
C4A C7A 1_555 1_555
C5A H4A 1_555 1_555
C6A C5A 1_555 1_555
C7A C5A 1_555 1_555
H5A C7A 1_555 1_555
C8A C6A 1_555 1_555
H6A C8A 1_555 1_555
C9A C4A 1_555 1_555
H7A C9A 1_555 1_555
C10A N1A 1_555 1_555
H8A C10A 1_555 1_555
H9A C10A 1_555 1_555
N3A C11A 1_555 1_555
C11A C6A 1_555 1_555
H10A C11A 1_555 1_555
H11A C11A 1_555 1_555
C12A N3A 1_555 1_555
H12A C12A 1_555 1_555
C13A N3A 1_555 1_555
H13A C13A 1_555 1_555
C14A C13A 1_555 1_555
H14A C14A 1_555 1_555
N4A C12A 1_555 1_555
Ag3A N4A 1_555 1_555
N5A Ag2 1_555 1_555
N6A C15A 1_555 1_555
C15A H15A 1_555 1_555
C16A N5A 1_555 1_555
H16A C16A 1_555 1_555
C17A N5A 1_555 1_555
H17A C17A 1_555 1_555
C18A C20A 1_555 1_555
C19A H18A 1_555 1_555
C20A H19A 1_555 1_555
C21A C18A 1_555 1_555
H20A C21A 1_555 1_555
C22A C20A 1_555 1_555
H21A C22A 1_555 1_555
C23A C19A 1_555 1_555
C24A N6A 1_555 1_555
H22A C24A 1_555 1_555
H23A C24A 1_555 1_555
C25A C18A 1_555 1_555
H24A C25A 1_555 1_555
H25A C25A 1_555 1_555
C26A H26A 1_555 1_555
C27A H27A 1_555 1_555
N7A C25A 1_555 1_555
N8A Ag3A 1_555 1_555
C28A C27A 1_555 1_555
H28A C28A 1_555 1_555
I1A C32A 1_555 1_555
O1A C29A 1_555 1_555
O2A Ag1A 1_555 1_555
C29A O2A 1_555 1_555
C30A C29A 1_555 1_555
C31A C30A 1_555 1_555
H29A C31A 1_555 1_555
C32A C31A 1_555 1_555
C33A C30A 1_555 1_555
H30A C33A 1_555 1_555
C34A C32A 1_555 1_555
H31A C34A 1_555 1_555
C35A C33A 1_555 1_555
O3A C36A 1_555 1_555
C36A C35A 1_555 1_555
O4A C36A 1_555 1_555
Ag4A O3A 1_555 1_555
I2A C39A 1_555 1_555
C37A C38A 1_555 1_555
C38A H32A 1_555 1_555
C39A C38A 1_555 1_555
C40A C37A 1_555 1_555
H33A C40A 1_555 1_555
C41A C39A 1_555 1_555
H34A C41A 1_555 1_555
C42A C40A 1_555 1_555
C43A C42A 1_555 1_555
O5A C43A 1_555 1_555
O6A Ag4A 1_555 1_555
C44A C37A 1_555 1_555
O7A C44A 1_555 1_555
O8A C44A 1_555 1_555
Ag1_2 O7A 1_555 1_555
Ag1A_2 O7 1_555 1_555
O1A_2 Ag5 1_555 1_555
Ag4_2 O5A 1_555 1_555
Ag4A_2 O5 1_555 1_555
Ag5_2 O1A 1_555 1_555
O5_2 Ag4A 1_555 1_555
O5A_2 Ag4 1_555 1_555
O7_2 Ag1A 1_555 1_555
O7A_2 Ag1 1_555 1_555
O8_2 Ag1A 1_555 1_555
O8A_2 Ag1 1_555 1_555
N2 C3 1_555 1_555
C4 C10 1_555 1_555
C8 C9 1_555 1_555
C14 N4 1_555 1_555
C15 C17 1_555 1_555
C19 C21 1_555 1_555
C22 C23 1_555 1_555
C23 C24 1_555 1_555
C26 N7 1_555 1_555
C26 N8 1_555 1_555
C27 N7 1_555 1_555
N8 C28 1_555 1_555
C34 C35 1_555 1_555
C41 C42 1_555 1_555
C43 O6 1_555 1_555
O8 Ag1A_2 1_555 1_555
N2A C3A 1_555 1_555
C4A C10A 1_555 1_555
C8A C9A 1_555 1_555
C14A N4A 1_555 1_555
N6A C16A 1_555 1_555
C15A C17A 1_555 1_555
C19A C21A 1_555 1_555
C22A C23A 1_555 1_555
C23A C24A 1_555 1_555
C26A N7A 1_555 1_555
C26A N8A 1_555 1_555
C27A N7A 1_555 1_555
N8A C28A 1_555 1_555
C34A C35A 1_555 1_555
C41A C42A 1_555 1_555
C43A O6A 1_555 1_555
O8A Ag1_2 1_555 1_555

#END
