
#######################################################################
#
#                 Cambridge Crystallographic Data Centre
#                                CCDC 
#
#######################################################################
#
# If this CIF has been generated from an entry in the Cambridge 
# Structural Database, then it will include bibliographic, chemical, 
# crystal, experimental, refinement or atomic coordinate data resulting 
# from the CCDC's data processing and validation procedures.
#
#######################################################################

data_CIPDOW
_symmetry_cell_setting           triclinic
_symmetry_space_group_name_H-M   'P -1'
_symmetry_Int_Tables_number      2
_space_group_name_Hall           '-P 1'
loop_
_symmetry_equiv_pos_site_id
_symmetry_equiv_pos_as_xyz
1 x,y,z
2 -x,-y,-z
_cell_length_a                   9.2367(9)
_cell_length_b                   9.3456(8)
_cell_length_c                   13.4445(11)
_cell_angle_alpha                88.897(7)
_cell_angle_beta                 71.282(8)
_cell_angle_gamma                67.893(8)
_cell_volume                     1011.53
loop_
_atom_site_label
_atom_site_type_symbol
_atom_site_fract_x
_atom_site_fract_y
_atom_site_fract_z
I1 I 0.17000(4) 0.23489(5) 0.48570(3)
Ag1 Ag 0.98768(4) 0.11390(5) -0.07403(3)
Ag2 Ag 1.19365(5) 0.27902(5) -0.01515(3)
N1 N 1.0286(5) 0.2399(5) 0.1320(3)
N2 N 0.3864(5) 0.2536(5) 0.8334(3)
C1 C 0.4593(6) 0.2286(7) 0.6462(4)
H1 H 0.4318 0.2125 0.5878
C2 C 0.6067(6) 0.2472(6) 0.6312(4)
C3 C 1.0758(6) 0.1252(6) 0.1907(4)
H2 H 1.1841 0.0511 0.1660
C4 C 0.6409(6) 0.2648(7) 0.7210(4)
H3 H 0.7393 0.2751 0.7155
C5 C 0.7620(6) 0.3415(6) 0.2661(4)
H4 H 0.6558 0.4195 0.2900
C6 C 0.8742(6) 0.3444(6) 0.1700(4)
H5 H 0.8395 0.4240 0.1298
C7 C 0.3543(6) 0.2334(6) 0.7453(4)
H6 H 0.2557 0.2222 0.7522
C8 C 0.8073(7) 0.2236(6) 0.3262(4)
C9 C 0.5315(6) 0.2673(6) 0.8191(4)
H7 H 0.5590 0.2790 0.8783
O1 O 0.7148(4) 0.1818(4) 0.0091(3)
C10 C 0.6863(7) 0.2136(8) 0.4297(4)
H8 H 0.5756 0.2865 0.4358
H9 H 0.6860 0.1099 0.4297
C11 C 0.9685(7) 0.1135(7) 0.2871(4)
H10 H 1.0049 0.0318 0.3254
C12 C 0.3818(5) 0.3583(5) 0.1296(4)
H11 H 0.4219 0.3811 0.0610
C13 C 0.4836(6) 0.2351(5) 0.1661(4)
C14 C 0.6639(6) 0.1422(6) 0.0987(4)
C15 C 0.7256(8) 0.2476(9) 0.5230(4)
H12 H 0.7320 0.3489 0.5198
H13 H 0.8351 0.1719 0.5170
O2 O 0.7477(4) 0.0369(4) 0.1414(3)
C16 C 0.1628(5) 0.4138(5) 0.2952(4)
H14 H 0.0566 0.4754 0.3399
C17 C 0.2203(5) 0.4488(5) 0.1936(4)
C18 C 0.1109(5) 0.5890(6) 0.1553(4)
C19 C 0.4228(6) 0.1967(6) 0.2669(4)
H15 H 0.4886 0.1114 0.2912
C20 C 0.2624(6) 0.2875(6) 0.3306(4)
O3 O 0.0383(4) 0.7123(4) 0.2153(3)
O4 O 0.1002(4) 0.5675(4) 0.0662(3)
Ag1A Ag 0.01232(4) 0.88610(5) 0.07403(3)
Ag1A_2 Ag 1.01232(4) -0.11390(5) 0.07403(3)
Ag2_2 Ag 0.19365(5) 0.27902(5) -0.01515(3)
Ag2_3 Ag 0.19365(5) 0.27902(5) 0.98485(3)
N2_2 N 1.3864(5) 0.2536(5) -0.1666(3)
O2A O 1.2523(4) -0.0369(4) -0.1414(3)
O3A O 0.9617(4) 0.2877(4) -0.2153(3)
O4_2 O 1.1002(4) 0.5675(4) 0.0662(3)
loop_
_geom_bond_atom_site_label_1
_geom_bond_atom_site_label_2
_geom_bond_site_symmetry_1
_geom_bond_site_symmetry_2
I1 C20 1_555 1_555
Ag1 Ag2 1_555 1_555
Ag2 N1 1_555 1_555
N1 C3 1_555 1_555
N2 C7 1_555 1_555
C1 H1 1_555 1_555
C2 C1 1_555 1_555
C3 H2 1_555 1_555
C4 C2 1_555 1_555
H3 C4 1_555 1_555
C5 H4 1_555 1_555
C6 N1 1_555 1_555
H5 C6 1_555 1_555
C7 C1 1_555 1_555
H6 C7 1_555 1_555
C8 C5 1_555 1_555
C9 N2 1_555 1_555
H7 C9 1_555 1_555
O1 Ag1 1_555 1_555
C10 C8 1_555 1_555
H8 C10 1_555 1_555
H9 C10 1_555 1_555
C11 C3 1_555 1_555
H10 C11 1_555 1_555
C12 H11 1_555 1_555
C13 C12 1_555 1_555
C14 O1 1_555 1_555
C15 C2 1_555 1_555
H12 C15 1_555 1_555
H13 C15 1_555 1_555
O2 C14 1_555 1_555
C16 H14 1_555 1_555
C17 C12 1_555 1_555
C18 C17 1_555 1_555
C19 C13 1_555 1_555
H15 C19 1_555 1_555
C20 C16 1_555 1_555
O3 C18 1_555 1_555
O4 C18 1_555 1_555
Ag1A O3 1_555 1_555
Ag1A_2 Ag1 1_555 1_555
Ag2_2 O4 1_555 1_555
Ag2_3 N2 1_555 1_555
N2_2 Ag2 1_555 1_555
O2A Ag1 1_555 1_555
O3A Ag1 1_555 1_555
O4_2 Ag2 1_555 1_555
C4 C9 1_555 1_555
C5 C6 1_555 1_555
C8 C11 1_555 1_555
C10 C15 1_555 1_555
C13 C14 1_555 1_555
O2 Ag1A_2 1_555 1_555
C16 C17 1_555 1_555
C19 C20 1_555 1_555

#END
