
#######################################################################
#
#                 Cambridge Crystallographic Data Centre
#                                CCDC 
#
#######################################################################
#
# If this CIF has been generated from an entry in the Cambridge 
# Structural Database, then it will include bibliographic, chemical, 
# crystal, experimental, refinement or atomic coordinate data resulting 
# from the CCDC's data processing and validation procedures.
#
#######################################################################

data_CIPLUJ
_symmetry_cell_setting           triclinic
_symmetry_space_group_name_H-M   'P -1'
_symmetry_Int_Tables_number      2
_space_group_name_Hall           '-P 1'
loop_
_symmetry_equiv_pos_site_id
_symmetry_equiv_pos_as_xyz
1 x,y,z
2 -x,-y,-z
_cell_length_a                   11.0587(12)
_cell_length_b                   11.3607(13)
_cell_length_c                   13.9423(15)
_cell_angle_alpha                76.8040(10)
_cell_angle_beta                 84.6520(10)
_cell_angle_gamma                89.4380(10)
_cell_volume                     1697.84
loop_
_atom_site_label
_atom_site_type_symbol
_atom_site_fract_x
_atom_site_fract_y
_atom_site_fract_z
La1 La 0.952971(18) 0.895350(18) 0.905321(14)
C1 C 1.2666(4) 1.1894(4) 0.1657(3)
C2 C 1.3863(4) 1.2174(4) 0.1996(3)
C3 C 1.4763(5) 1.2795(6) 0.1317(4)
H1 H 1.4620 1.3066 0.0657
C4 C 1.5874(5) 1.3009(7) 0.1625(4)
H2 H 1.6486 1.3408 0.1167
C5 C 1.6084(5) 1.2631(6) 0.2619(4)
H3 H 1.6833 1.2780 0.2824
C6 C 1.5171(4) 1.2030(4) 0.3299(3)
C7 C 1.4072(3) 1.1791(4) 0.2979(3)
H4 H 1.3468 1.1368 0.3431
C8 C 1.5449(3) 1.1609(4) 0.4331(3)
C9 C 1.5365(3) 1.1205(4) 0.5947(3)
C10 C 1.4993(4) 1.1141(4) 0.7002(3)
C11 C 1.5856(4) 1.1459(5) 0.7563(4)
H5 H 1.6634 1.1693 0.7273
C12 C 1.5556(5) 1.1427(6) 0.8552(4)
H6 H 1.6129 1.1660 0.8923
C13 C 1.4412(4) 1.1051(5) 0.8997(4)
H7 H 1.4212 1.1041 0.9661
C14 C 1.3566(4) 1.0689(4) 0.8449(3)
C15 C 1.3853(3) 1.0716(4) 0.7452(3)
H8 H 1.3289 1.0454 0.7089
C16 C 1.2335(4) 1.0273(4) 0.8966(3)
C17 C 1.0716(4) 0.8307(4) 0.1541(3)
C18 C 1.1252(4) 0.7076(4) 0.1856(3)
C19 C 1.1757(4) 0.6453(4) 0.1169(3)
H9 H 1.1762 0.6794 0.0496
C20 C 1.2250(5) 0.5328(5) 0.1489(3)
H10 H 1.2604 0.4922 0.1028
C21 C 1.2224(4) 0.4797(4) 0.2486(3)
H11 H 1.2551 0.4035 0.2695
C22 C 1.1704(4) 0.5414(4) 0.3174(3)
C23 C 1.1243(4) 0.6554(3) 0.2858(3)
H12 H 1.0923 0.6976 0.3320
C24 C 1.1588(4) 0.4810(3) 0.4227(3)
C25 C 1.1527(4) 0.4459(3) 0.5835(3)
C26 C 1.1578(4) 0.4619(3) 0.6848(3)
C27 C 1.1989(4) 0.3669(4) 0.7562(3)
H13 H 1.2294 0.2976 0.7383
C28 C 1.1943(4) 0.3763(4) 0.8534(3)
H14 H 1.2223 0.3130 0.9007
C29 C 1.1484(4) 0.4786(4) 0.8815(3)
H15 H 1.1448 0.4839 0.9473
C30 C 1.1075(3) 0.5744(3) 0.8092(3)
C31 C 1.1124(4) 0.5661(3) 0.7117(3)
H16 H 1.0856 0.6298 0.6641
C32 C 1.0581(4) 0.6864(4) 0.8382(3)
N1 N 1.6458(3) 1.0920(3) 0.5611(2)
N2 N 1.6508(3) 1.1168(3) 0.4593(3)
N3 N 1.4704(3) 1.1619(3) 0.5164(2)
N4 N 1.3560(3) 1.2156(5) 0.5194(3)
N5 N 1.2287(4) 0.6473(3) 0.4938(3)
N6 N 1.1759(3) 0.5340(3) 0.4993(2)
N7 N 1.1231(4) 0.3444(3) 0.5611(2)
N8 N 1.1261(3) 0.3673(3) 0.4584(2)
O1 O 1.1673(3) 0.9683(3) 0.8555(2)
O2 O 1.2065(3) 1.0546(3) 0.9781(2)
O3 O 1.2014(3) 1.1068(3) 0.2223(2)
O4 O 1.2357(3) 1.2470(3) 0.0851(2)
O5 O 1.0348(3) 0.7763(3) 0.7719(2)
O6 O 1.0417(3) 0.6872(3) 0.9276(2)
O7 O 1.0629(3) 0.8984(3) 0.2143(2)
O8 O 1.0374(3) 0.8656(3) 0.0687(2)
H21 H 1.1747 0.7047 0.4743
H23 H 1.2919 1.1668 0.5302
H25 H 1.3431 1.2802 0.4698
H26 H 1.2948 0.6621 0.4506
La1A La 1.047029(18) 1.104650(18) 1.094679(14)
La1A_2 La 1.047029(18) 1.104650(18) 0.094679(14)
La1_2 La 0.952971(18) 0.895350(18) -0.094679(14)
La1_3 La 0.952971(18) 0.895350(18) 1.905321(14)
C1A C 0.7334(4) 0.8106(4) 1.8343(3)
C2A C 0.6137(4) 0.7826(4) 1.8004(3)
C3A C 0.5237(5) 0.7205(6) 1.8683(4)
H1A H 0.5380 0.6934 1.9343
C4A C 0.4126(5) 0.6991(7) 1.8375(4)
H2A H 0.3514 0.6592 1.8833
C5A C 0.3916(5) 0.7369(6) 1.7381(4)
H3A H 0.3167 0.7220 1.7176
C6A C 0.4829(4) 0.7970(4) 1.6701(3)
C7A C 0.5928(3) 0.8209(4) 1.7021(3)
H4A H 0.6532 0.8632 1.6569
C8A C 0.4551(3) 0.8391(4) 1.5669(3)
C9A C 0.4635(3) 0.8795(4) 1.4053(3)
C10A C 0.5007(4) 0.8859(4) 1.2998(3)
C11A C 0.4144(4) 0.8541(5) 1.2437(4)
H5A H 0.3366 0.8307 1.2727
C12A C 0.4444(5) 0.8573(6) 1.1448(4)
H6A H 0.3871 0.8340 1.1077
C13A C 0.5588(4) 0.8949(5) 1.1003(4)
H7A H 0.5788 0.8959 1.0339
C14A C 0.6434(4) 0.9311(4) 1.1551(3)
C15A C 0.6147(3) 0.9284(4) 1.2548(3)
H8A H 0.6711 0.9546 1.2911
C16A C 0.7665(4) 0.9727(4) 1.1034(3)
C17A C 0.9284(4) 1.1693(4) 0.8459(3)
C18A C 0.8748(4) 1.2924(4) 0.8144(3)
C19A C 0.8243(4) 1.3547(4) 0.8831(3)
H9A H 0.8238 1.3206 0.9504
C20A C 0.7750(5) 1.4672(5) 0.8511(3)
H10A H 0.7396 1.5078 0.8972
C21A C 0.7776(4) 1.5203(4) 0.7514(3)
H11A H 0.7449 1.5965 0.7305
C22A C 0.8296(4) 1.4586(4) 0.6826(3)
C23A C 0.8757(4) 1.3446(3) 0.7142(3)
H12A H 0.9077 1.3024 0.6680
C24A C 0.8412(4) 1.5190(3) 0.5773(3)
C25A C 0.8473(4) 1.5541(3) 0.4165(3)
C26A C 0.8422(4) 1.5381(3) 0.3152(3)
C27A C 0.8011(4) 1.6331(4) 0.2438(3)
H13A H 0.7706 1.7024 0.2617
C28A C 0.8057(4) 1.6237(4) 0.1466(3)
H14A H 0.7777 1.6870 0.0993
C29A C 0.8516(4) 1.5214(4) 0.1185(3)
H15A H 0.8552 1.5161 0.0527
C30A C 0.8925(3) 1.4256(3) 0.1908(3)
C31A C 0.8876(4) 1.4339(3) 0.2883(3)
H16A H 0.9144 1.3702 0.3359
C32A C 0.9419(4) 1.3136(4) 0.1618(3)
N1A N 0.3542(3) 0.9080(3) 1.4389(2)
N2A N 0.3492(3) 0.8832(3) 1.5407(3)
N3A N 0.5296(3) 0.8381(3) 1.4836(2)
N4A N 0.6440(3) 0.7844(5) 1.4806(3)
N5A N 0.7713(4) 1.3527(3) 0.5062(3)
N6A N 0.8241(3) 1.4660(3) 0.5007(2)
N7A N 0.8769(4) 1.6556(3) 0.4389(2)
N8A N 0.8739(3) 1.6327(3) 0.5416(2)
O1A O 0.8327(3) 1.0317(3) 1.1445(2)
O2A O 0.7935(3) 0.9454(3) 1.0219(2)
O3A O 0.7986(3) 0.8932(3) 1.7777(2)
O3A_2 O 0.7986(3) 0.8932(3) 0.7777(2)
O3_2 O 1.2014(3) 1.1068(3) 1.2223(2)
O4A O 0.7643(3) 0.7530(3) 1.9149(2)
O4A_2 O 0.7643(3) 0.7530(3) 0.9149(2)
O4_2 O 1.2357(3) 1.2470(3) 1.0851(2)
O5A O 0.9652(3) 1.2237(3) 0.2281(2)
O5A_2 O 0.9652(3) 1.2237(3) 1.2281(2)
O6A O 0.9583(3) 1.3128(3) 0.0724(2)
O6A_2 O 0.9583(3) 1.3128(3) 1.0724(2)
O7A O 0.9371(3) 1.1016(3) 0.7857(2)
O7_2 O 1.0629(3) 0.8984(3) 1.2143(2)
O8A O 0.9626(3) 1.1344(3) 0.9313(2)
O8_2 O 1.0374(3) 0.8656(3) 1.0687(2)
H21A H 0.8253 1.2953 0.5257
H23A H 0.7081 0.8332 1.4698
H25A H 0.6569 0.7198 1.5302
H26A H 0.7052 1.3379 0.5494
Mn1 Mn 0.0000 0.0000 0.5000
O9 O 0.1152(3) 0.1466(3) 0.4153(2)
H17 H 0.1312 0.1370 0.3590
O10 O 0.1304(3) -0.0433(4) 0.6099(2)
H18 H 0.0971 -0.0849 0.6613
O11 O -0.1067(3) 0.1049(2) 0.5933(2)
H19 H -0.0715 0.1055 0.6424
H20 H 0.0803 0.2122 0.4212
H22 H -0.1747 0.0762 0.5854
H24 H 0.1851 -0.0742 0.5769
O9A O -0.1152(3) -0.1466(3) 0.5847(2)
H17A H -0.1312 -0.1370 0.6410
O10A O -0.1304(3) 0.0433(4) 0.3901(2)
H18A H -0.0971 0.0849 0.3387
O11A O 0.1067(3) -0.1049(2) 0.4067(2)
H19A H 0.0715 -0.1055 0.3576
H20A H -0.0803 -0.2122 0.5788
H22A H 0.1747 -0.0762 0.4146
H24A H -0.1851 0.0742 0.4231
O12 O 0.4804(17) 0.546(2) 0.4066(12)
H27 H 0.4612 0.5358 0.3513
H28 H 0.5575 0.5484 0.4038
loop_
_geom_bond_atom_site_label_1
_geom_bond_atom_site_label_2
_geom_bond_site_symmetry_1
_geom_bond_site_symmetry_2
La1 O1 1_555 1_555
Mn1 O9 1_555 1_555
C1 C2 1_555 1_555
C2 C3 1_555 1_555
C3 H1 1_555 1_555
C4 C3 1_555 1_555
H2 C4 1_555 1_555
C5 C4 1_555 1_555
H3 C5 1_555 1_555
C6 C5 1_555 1_555
C7 C2 1_555 1_555
H4 C7 1_555 1_555
C8 C6 1_555 1_555
C9 C10 1_555 1_555
C10 C11 1_555 1_555
C11 H5 1_555 1_555
C12 C11 1_555 1_555
H6 C12 1_555 1_555
C13 C12 1_555 1_555
H7 C13 1_555 1_555
C14 C13 1_555 1_555
C15 C10 1_555 1_555
H8 C15 1_555 1_555
C16 C14 1_555 1_555
C17 C18 1_555 1_555
C18 C19 1_555 1_555
C19 H9 1_555 1_555
C20 C19 1_555 1_555
H10 C20 1_555 1_555
C21 C20 1_555 1_555
H11 C21 1_555 1_555
C22 C21 1_555 1_555
C23 C18 1_555 1_555
H12 C23 1_555 1_555
C24 C22 1_555 1_555
C25 C26 1_555 1_555
C26 C27 1_555 1_555
C27 H13 1_555 1_555
C28 C27 1_555 1_555
H14 C28 1_555 1_555
C29 C28 1_555 1_555
H15 C29 1_555 1_555
C30 C29 1_555 1_555
C31 C26 1_555 1_555
H16 C31 1_555 1_555
C32 C30 1_555 1_555
N1 C9 1_555 1_555
N2 C8 1_555 1_555
N3 C8 1_555 1_555
N4 N3 1_555 1_555
N5 N6 1_555 1_555
N6 C24 1_555 1_555
N7 C25 1_555 1_555
N8 C24 1_555 1_555
O1 C16 1_555 1_555
O2 C16 1_555 1_555
O3 C1 1_555 1_555
O4 C1 1_555 1_555
O5 La1 1_555 1_555
O6 La1 1_555 1_555
O7 C17 1_555 1_555
O8 C17 1_555 1_555
O9 H17 1_555 1_555
O10 Mn1 1_555 1_555
H18 O10 1_555 1_555
O11 Mn1 1_555 1_555
H19 O11 1_555 1_555
H20 O9 1_555 1_555
H21 N5 1_555 1_555
H22 O11 1_555 1_555
H23 N4 1_555 1_555
H24 O10 1_555 1_555
H25 N4 1_555 1_555
H26 N5 1_555 1_555
O12 H27 1_555 1_555
H28 O12 1_555 1_555
La1A O2 1_555 1_555
La1A_2 O3 1_555 1_555
La1_2 O8 1_555 1_555
La1_3 O3A 1_555 1_555
C1A C2A 1_555 1_555
C2A C3A 1_555 1_555
C3A H1A 1_555 1_555
C4A C3A 1_555 1_555
H2A C4A 1_555 1_555
C5A C4A 1_555 1_555
H3A C5A 1_555 1_555
C6A C5A 1_555 1_555
C7A C2A 1_555 1_555
H4A C7A 1_555 1_555
C8A C6A 1_555 1_555
C9A C10A 1_555 1_555
C10A C11A 1_555 1_555
C11A H5A 1_555 1_555
C12A C11A 1_555 1_555
H6A C12A 1_555 1_555
C13A C12A 1_555 1_555
H7A C13A 1_555 1_555
C14A C13A 1_555 1_555
C15A C10A 1_555 1_555
H8A C15A 1_555 1_555
C16A C14A 1_555 1_555
C17A C18A 1_555 1_555
C18A C19A 1_555 1_555
C19A H9A 1_555 1_555
C20A C19A 1_555 1_555
H10A C20A 1_555 1_555
C21A C20A 1_555 1_555
H11A C21A 1_555 1_555
C22A C21A 1_555 1_555
C23A C18A 1_555 1_555
H12A C23A 1_555 1_555
C24A C22A 1_555 1_555
C25A C26A 1_555 1_555
C26A C27A 1_555 1_555
C27A H13A 1_555 1_555
C28A C27A 1_555 1_555
H14A C28A 1_555 1_555
C29A C28A 1_555 1_555
H15A C29A 1_555 1_555
C30A C29A 1_555 1_555
C31A C26A 1_555 1_555
H16A C31A 1_555 1_555
C32A C30A 1_555 1_555
N1A C9A 1_555 1_555
N2A C8A 1_555 1_555
N3A C8A 1_555 1_555
N4A N3A 1_555 1_555
N5A N6A 1_555 1_555
N6A C24A 1_555 1_555
N7A C25A 1_555 1_555
N8A C24A 1_555 1_555
O1A La1A 1_555 1_555
O2A La1 1_555 1_555
O3A C1A 1_555 1_555
O3A_2 La1 1_555 1_555
O3_2 La1A 1_555 1_555
O4A La1_3 1_555 1_555
O4A_2 La1 1_555 1_555
O4_2 La1A 1_555 1_555
O5A La1A_2 1_555 1_555
O5A_2 La1A 1_555 1_555
O6A La1A_2 1_555 1_555
O6A_2 La1A 1_555 1_555
O7A La1 1_555 1_555
O7_2 La1A 1_555 1_555
O8A La1A 1_555 1_555
O8_2 La1 1_555 1_555
O9A Mn1 1_555 1_555
H17A O9A 1_555 1_555
O10A Mn1 1_555 1_555
H18A O10A 1_555 1_555
O11A Mn1 1_555 1_555
H19A O11A 1_555 1_555
H20A O9A 1_555 1_555
H21A N5A 1_555 1_555
H22A O11A 1_555 1_555
H23A N4A 1_555 1_555
H24A O10A 1_555 1_555
H25A N4A 1_555 1_555
H26A N5A 1_555 1_555
C6 C7 1_555 1_555
C9 N3 1_555 1_555
C14 C15 1_555 1_555
C22 C23 1_555 1_555
C25 N6 1_555 1_555
C30 C31 1_555 1_555
C32 O5 1_555 1_555
C32 O6 1_555 1_555
N1 N2 1_555 1_555
N7 N8 1_555 1_555
O4 La1A_2 1_555 1_555
O7 La1A_2 1_555 1_555
C1A O4A 1_555 1_555
C6A C7A 1_555 1_555
C9A N3A 1_555 1_555
C14A C15A 1_555 1_555
C16A O1A 1_555 1_555
C16A O2A 1_555 1_555
C17A O7A 1_555 1_555
C17A O8A 1_555 1_555
C22A C23A 1_555 1_555
C25A N6A 1_555 1_555
C30A C31A 1_555 1_555
C32A O5A 1_555 1_555
C32A O6A 1_555 1_555
N1A N2A 1_555 1_555
N7A N8A 1_555 1_555

#END
