
#######################################################################
#
#                 Cambridge Crystallographic Data Centre
#                                CCDC 
#
#######################################################################
#
# If this CIF has been generated from an entry in the Cambridge 
# Structural Database, then it will include bibliographic, chemical, 
# crystal, experimental, refinement or atomic coordinate data resulting 
# from the CCDC's data processing and validation procedures.
#
#######################################################################

data_CIPMEU
_symmetry_cell_setting           triclinic
_symmetry_space_group_name_H-M   'P -1'
_symmetry_Int_Tables_number      2
_space_group_name_Hall           '-P 1'
loop_
_symmetry_equiv_pos_site_id
_symmetry_equiv_pos_as_xyz
1 x,y,z
2 -x,-y,-z
_cell_length_a                   11.139(3)
_cell_length_b                   11.154(3)
_cell_length_c                   27.170(8)
_cell_angle_alpha                79.687(5)
_cell_angle_beta                 86.145(4)
_cell_angle_gamma                89.942(5)
_cell_volume                     3313.46
loop_
_atom_site_label
_atom_site_type_symbol
_atom_site_fract_x
_atom_site_fract_y
_atom_site_fract_z
C1 C 0.4927(17) 0.2595(17) 0.0468(7)
C2 C 0.4585(17) 0.1385(17) 0.0683(7)
C3 C 0.404(2) 0.064(2) 0.0462(8)
H1 H 0.3816 0.0912 0.0138
C4 C 0.377(2) -0.063(2) 0.0694(9)
H2 H 0.3492 -0.1168 0.0502
C5 C 0.392(2) -0.101(2) 0.1179(8)
H3 H 0.3719 -0.1815 0.1327
C6 C 0.4369(16) -0.0207(16) 0.1469(6)
C7 C 0.4737(15) 0.0947(15) 0.1233(6)
H4 H 0.5087 0.1465 0.1417
C8 C 0.4446(15) -0.0621(15) 0.2011(6)
C9 C 0.4286(16) -0.0773(16) 0.2829(7)
C10 C 0.4069(16) -0.0510(16) 0.3329(7)
C11 C 0.3512(18) -0.1452(18) 0.3693(7)
H5 H 0.3240 -0.2160 0.3599
C12 C 0.3372(18) -0.1307(16) 0.4201(7)
H6 H 0.3016 -0.1938 0.4436
C13 C 0.374(2) -0.0276(15) 0.4363(7)
H7 H 0.3648 -0.0193 0.4698
C14 C 0.4258(16) 0.0632(15) 0.3995(6)
C15 C 0.4452(15) 0.0555(16) 0.3485(6)
H8 H 0.4823 0.1190 0.3257
C16 C 0.4728(18) 0.1815(18) 0.4164(7)
C17 C 0.7840(15) 0.2896(15) 0.4264(6)
C18 C 0.9115(15) 0.2514(15) 0.4136(6)
C19 C 0.9770(17) 0.181(2) 0.4482(7)
H9 H 0.9447 0.1522 0.4807
C20 C 1.0927(19) 0.153(3) 0.4332(10)
H10 H 1.1405 0.1107 0.4570
C21 C 1.140(2) 0.186(2) 0.3854(10)
H11 H 1.2187 0.1638 0.3770
C22 C 1.0726(17) 0.2518(18) 0.3489(7)
C23 C 0.9586(17) 0.2865(17) 0.3648(7)
H12 H 0.9127 0.3349 0.3418
C24 C 1.1194(16) 0.2831(17) 0.2969(7)
C25 C 1.1270(15) 0.3089(16) 0.2151(6)
C26 C 1.0967(15) 0.3133(16) 0.1626(6)
C27 C 1.1805(17) 0.2813(17) 0.1271(7)
H13 H 1.2542 0.2503 0.1372
C28 C 1.1570(15) 0.2943(17) 0.0774(7)
H14 H 1.2154 0.2731 0.0544
C29 C 1.0490(13) 0.3380(17) 0.0613(6)
H15 H 1.0332 0.3455 0.0277
C30 C 0.9635(14) 0.3708(15) 0.0956(6)
C31 C 0.9855(16) 0.3557(16) 0.1476(6)
H16 H 0.9264 0.3740 0.1709
C32 C 0.8425(15) 0.4169(15) 0.0805(6)
C33 C 0.7256(16) 0.7370(16) 0.0736(6)
C34 C 0.7640(18) 0.8536(17) 0.0861(7)
C35 C 0.8263(19) 0.9478(17) 0.0507(8)
H17 H 0.8468 0.9338 0.0185
C36 C 0.856(3) 1.055(3) 0.0624(11)
H18 H 0.8921 1.1162 0.0381
C37 C 0.831(2) 1.074(2) 0.1125(9)
H19 H 0.8548 1.1466 0.1216
C38 C 0.7724(17) 0.9877(17) 0.1471(7)
C39 C 0.7379(17) 0.8786(17) 0.1336(7)
H20 H 0.6958 0.8207 0.1574
C40 C 0.7447(17) 1.0114(18) 0.1990(7)
C41 C 0.7284(16) 0.9839(16) 0.2807(7)
C42 C 0.7236(16) 0.9339(16) 0.3337(7)
C43 C 0.7631(19) 0.9997(19) 0.3685(8)
H21 H 0.8022 1.0741 0.3571
C44 C 0.7460(19) 0.958(2) 0.4190(8)
H22 H 0.7721 1.0046 0.4414
C45 C 0.6898(18) 0.8450(19) 0.4374(8)
H23 H 0.6791 0.8160 0.4717
C46 C 0.6510(15) 0.7783(15) 0.4038(6)
C47 C 0.6730(16) 0.8192(16) 0.3523(6)
H24 H 0.6535 0.7690 0.3300
C48 C 0.5901(16) 0.6568(16) 0.4224(6)
C49 C 0.2838(16) 0.5161(15) 0.4552(6)
C50 C 0.1783(15) 0.5557(15) 0.4286(6)
C51 C 0.085(2) 0.601(2) 0.4548(9)
H25 H 0.0939 0.6071 0.4880
C52 C -0.020(2) 0.637(2) 0.4339(9)
H26 H -0.0840 0.6636 0.4530
C53 C -0.030(2) 0.634(2) 0.3819(9)
H27 H -0.1007 0.6582 0.3668
C54 C 0.0633(16) 0.5951(17) 0.3546(6)
C55 C 0.1685(16) 0.5487(16) 0.3778(7)
H28 H 0.2295 0.5145 0.3598
C56 C 0.0474(16) 0.5911(17) 0.3027(7)
C57 C 0.0708(16) 0.6096(16) 0.2200(7)
C58 C 0.1205(17) 0.6315(17) 0.1673(7)
C59 C 0.2256(16) 0.5872(16) 0.1500(7)
H29 H 0.2773 0.5483 0.1731
C60 C 0.2591(16) 0.5977(16) 0.0990(7)
C61 C 0.3686(16) 0.5402(16) 0.0813(6)
C62 C 0.1830(17) 0.6571(17) 0.0644(7)
H30 H 0.2039 0.6643 0.0302
C63 C 0.076(2) 0.706(2) 0.0803(8)
H31 H 0.0250 0.7447 0.0570
C64 C 0.0455(19) 0.6952(19) 0.1317(7)
H32 H -0.0248 0.7306 0.1425
Eu1 Eu 0.56052(8) 0.38486(8) 0.45367(3)
Eu2 Eu 0.62528(8) 0.52829(8) 0.04534(3)
N1 N 0.6942(15) 1.0985(15) 0.2624(6)
N2 N 0.7090(14) 1.1170(14) 0.2110(6)
N3 N 0.7572(14) 0.9289(13) 0.2413(5)
N4 N 0.8048(18) 0.8150(17) 0.2434(7)
H33 H 0.8769 0.8138 0.2557
H34 H 0.8123 0.7980 0.2126
N5 N -0.0567(14) 0.5623(14) 0.2854(6)
N6 N -0.0389(14) 0.5775(14) 0.2336(6)
N7 N 0.1300(12) 0.6156(13) 0.2610(5)
N8 N 0.2503(14) 0.6611(16) 0.2618(6)
H35 H 0.2710 0.6490 0.2934
H36 H 0.2524 0.7406 0.2494
N9 N 0.4673(14) -0.1802(13) 0.2721(5)
N10 N 0.4778(14) -0.1717(14) 0.2207(6)
N11 N 0.4155(13) 0.0029(12) 0.2393(5)
N12 N 0.3619(17) 0.1139(17) 0.2344(7)
H37 H 0.3095 0.1196 0.2108
H38 H 0.4180 0.1720 0.2256
N13 N 1.2274(14) 0.3244(14) 0.2799(5)
N14 N 1.2331(14) 0.3416(15) 0.2281(6)
N15 N 1.0544(14) 0.2729(14) 0.2561(6)
N16 N 0.9431(18) 0.2125(18) 0.2590(7)
H39 H 0.9319 0.1906 0.2297
H40 H 0.8851 0.2630 0.2660
O1 O 0.5640(12) 0.3191(12) 0.0669(5)
O2 O 0.4470(13) 0.2974(13) 0.0054(5)
O3 O 0.7607(12) 0.4451(13) 0.1127(5)
O4 O 0.8197(12) 0.4334(13) 0.0354(5)
O5 O 0.6351(12) 0.6826(12) 0.0991(5)
O6 O 0.7816(12) 0.6955(12) 0.0389(5)
O7 O 0.4546(11) 0.5144(12) 0.1116(5)
O8 O 0.3857(12) 0.5252(12) 0.0372(5)
O9 O 0.3628(11) 0.4520(11) 0.4330(5)
O10 O 0.3001(13) 0.5450(13) 0.4962(5)
O11 O 0.5948(12) 0.5791(12) 0.3939(5)
O12 O 0.5383(12) 0.6370(12) 0.4654(5)
O13 O 0.7422(13) 0.3787(13) 0.3992(5)
O14 O 0.7270(12) 0.2321(12) 0.4642(5)
O15 O 0.5148(11) 0.2694(11) 0.3835(4)
O16 O 0.4608(12) 0.1852(12) 0.4604(5)
Eu1A Eu 0.43948(8) 0.61514(8) 0.54633(3)
Eu2A Eu 0.37472(8) 0.47171(8) -0.04534(3)
O2A O 0.5530(13) 0.7026(13) -0.0054(5)
O8A O 0.6143(12) 0.4748(12) -0.0372(5)
O10A O 0.6999(13) 0.4550(13) 0.5038(5)
O12A O 0.4617(12) 0.3630(12) 0.5346(5)
Mn1 Mn 0.5976(3) 0.4645(3) 0.24994(10)
O17 O 0.6845(13) 0.5671(13) 0.3002(5)
O18 O 0.4386(17) 0.4270(18) 0.3007(7)
O19 O 0.6850(15) 0.3131(14) 0.2953(6)
O20 O 0.5537(16) 0.3356(16) 0.1967(6)
O21 O 0.7524(17) 0.5145(18) 0.2025(7)
O22 O 0.4996(14) 0.5979(14) 0.2021(6)
H41 H 0.6764 0.5747 0.3316
H42 H 0.7443 0.6131 0.2875
H43 H 0.4470 0.3920 0.3322
H44 H 0.3644 0.4166 0.2965
H45 H 0.7097 0.3238 0.3240
H46 H 0.6647 0.2361 0.3005
H47 H 0.5957 0.2974 0.1766
H48 H 0.4908 0.3597 0.1823
H49 H 0.7596 0.5038 0.1723
H50 H 0.8229 0.5398 0.2089
H51 H 0.5085 0.6038 0.1704
H52 H 0.4616 0.6603 0.2083
loop_
_geom_bond_atom_site_label_1
_geom_bond_atom_site_label_2
_geom_bond_site_symmetry_1
_geom_bond_site_symmetry_2
C1 C2 1_555 1_555
C2 C3 1_555 1_555
C3 H1 1_555 1_555
C4 C3 1_555 1_555
H2 C4 1_555 1_555
C5 C4 1_555 1_555
H3 C5 1_555 1_555
C6 C5 1_555 1_555
C7 C2 1_555 1_555
H4 C7 1_555 1_555
C8 C6 1_555 1_555
C9 C10 1_555 1_555
C10 C11 1_555 1_555
C11 H5 1_555 1_555
C12 C11 1_555 1_555
H6 C12 1_555 1_555
C13 C12 1_555 1_555
H7 C13 1_555 1_555
C14 C13 1_555 1_555
C15 C10 1_555 1_555
H8 C15 1_555 1_555
C16 C14 1_555 1_555
C17 C18 1_555 1_555
C18 C19 1_555 1_555
C19 H9 1_555 1_555
C20 C19 1_555 1_555
H10 C20 1_555 1_555
C21 C20 1_555 1_555
H11 C21 1_555 1_555
C22 C21 1_555 1_555
C23 C18 1_555 1_555
H12 C23 1_555 1_555
C24 C22 1_555 1_555
C25 C26 1_555 1_555
C26 C27 1_555 1_555
C27 H13 1_555 1_555
C28 C27 1_555 1_555
H14 C28 1_555 1_555
C29 C28 1_555 1_555
H15 C29 1_555 1_555
C30 C29 1_555 1_555
C31 C26 1_555 1_555
H16 C31 1_555 1_555
C32 C30 1_555 1_555
C33 C34 1_555 1_555
C34 C35 1_555 1_555
C35 H17 1_555 1_555
C36 C35 1_555 1_555
H18 C36 1_555 1_555
C37 C36 1_555 1_555
H19 C37 1_555 1_555
C38 C37 1_555 1_555
C39 C34 1_555 1_555
H20 C39 1_555 1_555
C40 C38 1_555 1_555
C41 C42 1_555 1_555
C42 C43 1_555 1_555
C43 H21 1_555 1_555
C44 C43 1_555 1_555
H22 C44 1_555 1_555
C45 C44 1_555 1_555
H23 C45 1_555 1_555
C46 C45 1_555 1_555
C47 C42 1_555 1_555
H24 C47 1_555 1_555
C48 C46 1_555 1_555
C49 C50 1_555 1_555
C50 C51 1_555 1_555
C51 H25 1_555 1_555
C52 C51 1_555 1_555
H26 C52 1_555 1_555
C53 C52 1_555 1_555
H27 C53 1_555 1_555
C54 C53 1_555 1_555
C55 C50 1_555 1_555
H28 C55 1_555 1_555
C56 C54 1_555 1_555
C57 C58 1_555 1_555
C58 C59 1_555 1_555
C59 H29 1_555 1_555
C60 C59 1_555 1_555
C61 C60 1_555 1_555
C62 C60 1_555 1_555
H30 C62 1_555 1_555
C63 C62 1_555 1_555
H31 C63 1_555 1_555
C64 C58 1_555 1_555
H32 C64 1_555 1_555
Eu1 O9 1_555 1_555
Eu2 O1 1_555 1_555
Mn1 O17 1_555 1_555
N1 C41 1_555 1_555
N2 C40 1_555 1_555
N3 C40 1_555 1_555
N4 N3 1_555 1_555
H33 N4 1_555 1_555
H34 N4 1_555 1_555
N5 C56 1_555 1_555
N6 C57 1_555 1_555
N7 C56 1_555 1_555
N8 N7 1_555 1_555
H35 N8 1_555 1_555
H36 N8 1_555 1_555
N9 C9 1_555 1_555
N10 C8 1_555 1_555
N11 C8 1_555 1_555
N12 N11 1_555 1_555
H37 N12 1_555 1_555
H38 N12 1_555 1_555
N13 C24 1_555 1_555
N14 C25 1_555 1_555
N15 C24 1_555 1_555
N16 N15 1_555 1_555
H39 N16 1_555 1_555
H40 N16 1_555 1_555
O1 C1 1_555 1_555
O2 C1 1_555 1_555
O3 C32 1_555 1_555
O4 C32 1_555 1_555
O5 C33 1_555 1_555
O6 C33 1_555 1_555
O7 C61 1_555 1_555
O8 C61 1_555 1_555
O9 C49 1_555 1_555
O10 C49 1_555 1_555
O11 C48 1_555 1_555
O12 C48 1_555 1_555
O13 C17 1_555 1_555
O14 C17 1_555 1_555
O15 C16 1_555 1_555
O16 C16 1_555 1_555
O17 H41 1_555 1_555
O18 Mn1 1_555 1_555
O19 Mn1 1_555 1_555
O20 Mn1 1_555 1_555
O21 Mn1 1_555 1_555
O22 Mn1 1_555 1_555
H42 O17 1_555 1_555
H43 O18 1_555 1_555
H44 O18 1_555 1_555
H45 O19 1_555 1_555
H46 O19 1_555 1_555
H47 O20 1_555 1_555
H48 O20 1_555 1_555
H49 O21 1_555 1_555
H50 O21 1_555 1_555
H51 O22 1_555 1_555
H52 O22 1_555 1_555
Eu1A O10 1_555 1_555
Eu2A O2 1_555 1_555
O2A Eu2 1_555 1_555
O8A Eu2 1_555 1_555
O10A Eu1 1_555 1_555
O12A Eu1 1_555 1_555
C6 C7 1_555 1_555
C9 N11 1_555 1_555
C14 C15 1_555 1_555
C22 C23 1_555 1_555
C25 N15 1_555 1_555
C30 C31 1_555 1_555
C38 C39 1_555 1_555
C41 N3 1_555 1_555
C46 C47 1_555 1_555
C54 C55 1_555 1_555
C57 N7 1_555 1_555
C63 C64 1_555 1_555
Eu1 O11 1_555 1_555
Eu1 O13 1_555 1_555
Eu1 O14 1_555 1_555
Eu1 O15 1_555 1_555
Eu1 O16 1_555 1_555
Eu2 O3 1_555 1_555
Eu2 O4 1_555 1_555
Eu2 O5 1_555 1_555
Eu2 O6 1_555 1_555
Eu2 O7 1_555 1_555
N1 N2 1_555 1_555
N5 N6 1_555 1_555
N9 N10 1_555 1_555
N13 N14 1_555 1_555
O8 Eu2A 1_555 1_555
O12 Eu1A 1_555 1_555

#END
