
#######################################################################
#
#                 Cambridge Crystallographic Data Centre
#                                CCDC 
#
#######################################################################
#
# If this CIF has been generated from an entry in the Cambridge 
# Structural Database, then it will include bibliographic, chemical, 
# crystal, experimental, refinement or atomic coordinate data resulting 
# from the CCDC's data processing and validation procedures.
#
#######################################################################

data_CIPMOF
_symmetry_cell_setting           monoclinic
_symmetry_space_group_name_H-M   'P 21/n'
_symmetry_Int_Tables_number      14
_space_group_name_Hall           '-P 2yn'
loop_
_symmetry_equiv_pos_site_id
_symmetry_equiv_pos_as_xyz
1 x,y,z
2 1/2-x,1/2+y,1/2-z
3 -x,-y,-z
4 1/2+x,1/2-y,1/2+z
_cell_length_a                   7.71910(10)
_cell_length_b                   19.5746(3)
_cell_length_c                   12.3696(2)
_cell_angle_alpha                90
_cell_angle_beta                 96.5880(10)
_cell_angle_gamma                90
_cell_volume                     1856.68
loop_
_atom_site_label
_atom_site_type_symbol
_atom_site_fract_x
_atom_site_fract_y
_atom_site_fract_z
Gd1 Gd 0.76041(2) 0.466484(10) 0.527125(15)
N1 N 1.0550(5) 0.84928(19) 0.3095(3)
O1 O 0.7775(4) 0.58606(15) 0.5221(3)
O2 O 1.0092(4) 0.98588(14) 0.1092(2)
O3 O 0.8764(4) 0.47821(15) 0.7198(2)
O4 O 1.0771(4) 0.50282(15) 0.6147(2)
O5 O 0.6340(4) 0.37089(16) 0.6093(3)
N2 N 1.0832(5) 0.5071(2) 0.9067(3)
O6 O 1.0226(6) 0.61935(19) 0.8977(3)
O7 O 1.0322(4) 0.62339(14) 0.4743(3)
O8 O 1.0028(5) 0.90339(18) 0.4652(3)
O9 O 0.8912(6) 0.6898(2) 0.2053(3)
N3 N 0.8850(5) 0.73504(19) 0.3729(3)
C1 C 0.8709(6) 0.6266(2) 0.4749(4)
C2 C 0.9410(7) 0.7324(2) 0.2759(4)
C3 C 1.0057(6) 0.8510(2) 0.4094(4)
C4 C 1.0742(6) 0.7849(2) 0.2543(4)
H1 H 1.1896 0.7668 0.2769
H2 H 1.0657 0.7933 0.1765
C5 C 1.1069(6) 0.9111(2) 0.2572(4)
H3 H 1.2229 0.9049 0.2359
H4 H 1.1121 0.9485 0.3091
C6 C 0.9544(7) 0.7838(2) 0.4549(4)
H5 H 1.0558 0.7639 0.4969
H6 H 0.8675 0.792 0.5042
C7 C 0.7728(6) 0.6824(2) 0.4094(4)
H7 H 0.7059 0.662 0.3463
H8 H 0.6911 0.7033 0.4534
C8 C 1.0278(5) 0.4957(2) 0.7078(3)
O10 O 0.8571(4) 0.89284(16) 0.1264(2)
C9 C 0.9828(5) 0.9302(2) 0.1577(3)
C10 C 1.1603(6) 0.5094(3) 0.8049(3)
H9 H 1.2527 0.4757 0.8069
H10 H 1.2118 0.5541 0.797
C11 C 1.0175(6) 0.5637(3) 0.9437(4)
C12 C 1.0677(8) 0.4401(3) 0.9539(4)
H11 H 1.1839 0.4208 0.9685
H12 H 1.0025 0.4112 0.8999
O3B O 1.1236(4) 0.52179(15) 1.2802(2)
O4B O 0.9229(4) 0.49718(15) 1.3853(2)
N2B N 0.9168(5) 0.4929(2) 1.0933(3)
O6B O 0.9774(6) 0.38065(19) 1.1023(3)
C8B C 0.9722(5) 0.5043(2) 1.2922(3)
C10B C 0.8397(6) 0.4906(3) 1.1951(3)
H9B H 0.7473 0.5243 1.1931
H10B H 0.7882 0.4459 1.203
C11B C 0.9825(6) 0.4363(3) 1.0563(4)
C12B C 0.9323(8) 0.5599(3) 1.0461(4)
H11B H 0.8161 0.5792 1.0315
H12B H 0.9975 0.5888 1.1001
Gd1B Gd 1.23959(2) 0.533516(10) 0.472875(15)
N1B N 0.9450(5) 0.15072(19) 0.6905(3)
O1B O 1.2225(4) 0.41394(15) 0.4779(3)
O2B O 0.9908(4) 0.01412(14) 0.8908(2)
O5B O 1.3660(4) 0.62911(16) 0.3907(3)
O7B O 0.9678(4) 0.37661(14) 0.5257(3)
O8B O 0.9972(5) 0.09661(18) 0.5348(3)
O9B O 1.1088(6) 0.3102(2) 0.7947(3)
N3B N 1.1150(5) 0.26496(19) 0.6271(3)
C1B C 1.1291(6) 0.3734(2) 0.5251(4)
C2B C 1.0590(7) 0.2676(2) 0.7241(4)
C3B C 0.9943(6) 0.1490(2) 0.5906(4)
C4B C 0.9258(6) 0.2151(2) 0.7457(4)
H1B H 0.8104 0.2332 0.7231
H2B H 0.9343 0.2067 0.8235
C5B C 0.8931(6) 0.0889(2) 0.7428(4)
H3B H 0.7771 0.0951 0.7641
H4B H 0.8879 0.0515 0.6909
C6B C 1.0456(7) 0.2162(2) 0.5451(4)
H5B H 0.9442 0.2361 0.5031
H6B H 1.1325 0.208 0.4958
C7B C 1.2272(6) 0.3176(2) 0.5906(4)
H7B H 1.2941 0.338 0.6537
H8B H 1.3089 0.2967 0.5466
O10B O 1.1429(4) 0.10716(16) 0.8736(2)
C9B C 1.0172(5) 0.0698(2) 0.8423(3)
Gd1_2 Gd 0.76041(2) 0.466484(10) 1.527125(15)
Gd1A Gd 0.73959(2) -0.033516(10) 0.972875(15)
Gd1A_2 Gd 0.73959(2) 0.966484(10) -0.027125(15)
Gd1B_2 Gd 1.23959(2) 0.533516(10) 1.472875(15)
Gd1C Gd 1.26041(2) 0.033516(10) 1.027125(15)
Gd1C_2 Gd 1.26041(2) 1.033516(10) 0.027125(15)
O2A O 0.4908(4) 0.48588(14) 0.3908(2)
O2A_2 O 1.4908(4) 0.48588(14) 0.3908(2)
O2C O 0.5092(4) 0.51412(14) 0.6092(2)
O2C_2 O 1.5092(4) 0.51412(14) 0.6092(2)
O3B_2 O 1.1236(4) 0.52179(15) 0.2802(2)
O4B_2 O 0.9229(4) 0.49718(15) 0.3853(2)
O10A O 0.6429(4) 0.39284(16) 0.3736(2)
O10C O 1.3571(4) 0.60716(16) 0.6264(2)
O11 O 0.8937(5) 0.73769(19) 0.9836(3)
O12 O 0.0421(8) 0.6975(3) 0.7021(4)
O13 O 0.5419(15) 0.3710(7) 0.8147(6)
loop_
_geom_bond_atom_site_label_1
_geom_bond_atom_site_label_2
_geom_bond_site_symmetry_1
_geom_bond_site_symmetry_2
Gd1 O1 1_555 1_555
N1 C3 1_555 1_555
O1 C1 1_555 1_555
O2 C9 1_555 1_555
O3 Gd1 1_555 1_555
O4 Gd1 1_555 1_555
O5 Gd1 1_555 1_555
N2 C10 1_555 1_555
O6 C11 1_555 1_555
O7 C1 1_555 1_555
O8 C3 1_555 1_555
O9 C2 1_555 1_555
N3 C2 1_555 1_555
C1 C7 1_555 1_555
C2 C4 1_555 1_555
C3 C6 1_555 1_555
C4 N1 1_555 1_555
H1 C4 1_555 1_555
H2 C4 1_555 1_555
C5 N1 1_555 1_555
H3 C5 1_555 1_555
H4 C5 1_555 1_555
C6 N3 1_555 1_555
H5 C6 1_555 1_555
H6 C6 1_555 1_555
C7 N3 1_555 1_555
H7 C7 1_555 1_555
H8 C7 1_555 1_555
C8 O3 1_555 1_555
O10 C9 1_555 1_555
C9 C5 1_555 1_555
C10 C8 1_555 1_555
H9 C10 1_555 1_555
H10 C10 1_555 1_555
C11 N2 1_555 1_555
C12 N2 1_555 1_555
H11 C12 1_555 1_555
H12 C12 1_555 1_555
O3B C8B 1_555 1_555
O4B C8B 1_555 1_555
N2B C10B 1_555 1_555
O6B C11B 1_555 1_555
C8B C10B 1_555 1_555
C10B H9B 1_555 1_555
H10B C10B 1_555 1_555
C11B C12 1_555 1_555
C12B C11 1_555 1_555
H11B C12B 1_555 1_555
H12B C12B 1_555 1_555
Gd1B O4 1_555 1_555
N1B C3B 1_555 1_555
O1B Gd1B 1_555 1_555
O2B C9B 1_555 1_555
O5B Gd1B 1_555 1_555
O7B Gd1 1_555 1_555
O8B C3B 1_555 1_555
O9B C2B 1_555 1_555
N3B C2B 1_555 1_555
C1B O1B 1_555 1_555
C2B C4B 1_555 1_555
C3B C6B 1_555 1_555
C4B N1B 1_555 1_555
H1B C4B 1_555 1_555
H2B C4B 1_555 1_555
C5B N1B 1_555 1_555
H3B C5B 1_555 1_555
H4B C5B 1_555 1_555
C6B N3B 1_555 1_555
H5B C6B 1_555 1_555
H6B C6B 1_555 1_555
C7B N3B 1_555 1_555
H7B C7B 1_555 1_555
H8B C7B 1_555 1_555
O10B C9B 1_555 1_555
C9B C5B 1_555 1_555
Gd1_2 O4B 1_555 1_555
Gd1A O2B 1_555 1_555
Gd1A_2 O2 1_555 1_555
Gd1B_2 O3B 1_555 1_555
Gd1C O2B 1_555 1_555
Gd1C_2 O2 1_555 1_555
O2A Gd1 1_555 1_555
O2A_2 Gd1B 1_555 1_555
O2C Gd1 1_555 1_555
O2C_2 Gd1B 1_555 1_555
O3B_2 Gd1B 1_555 1_555
O4B_2 Gd1 1_555 1_555
O10A Gd1 1_555 1_555
O10C Gd1B 1_555 1_555
O4 C8 1_555 1_555
O7 Gd1B 1_555 1_555
O10 Gd1A_2 1_555 1_555
O4B Gd1B_2 1_555 1_555
N2B C11B 1_555 1_555
N2B C12B 1_555 1_555
Gd1B O4B_2 1_555 1_555
O7B C1B 1_555 1_555
C1B C7B 1_555 1_555
O10B Gd1C 1_555 1_555

#END
