
#######################################################################
#
#                 Cambridge Crystallographic Data Centre
#                                CCDC 
#
#######################################################################
#
# If this CIF has been generated from an entry in the Cambridge 
# Structural Database, then it will include bibliographic, chemical, 
# crystal, experimental, refinement or atomic coordinate data resulting 
# from the CCDC's data processing and validation procedures.
#
#######################################################################

data_CIPMIY
_symmetry_cell_setting           triclinic
_symmetry_space_group_name_H-M   'P -1'
_symmetry_Int_Tables_number      2
_space_group_name_Hall           '-P 1'
loop_
_symmetry_equiv_pos_site_id
_symmetry_equiv_pos_as_xyz
1 x,y,z
2 -x,-y,-z
_cell_length_a                   11.1188(16)
_cell_length_b                   11.1414(16)
_cell_length_c                   27.065(4)
_cell_angle_alpha                79.742(2)
_cell_angle_beta                 86.224(2)
_cell_angle_gamma                89.898(2)
_cell_volume                     3291.86
loop_
_atom_site_label
_atom_site_type_symbol
_atom_site_fract_x
_atom_site_fract_y
_atom_site_fract_z
Tb1 Tb 0.56063(2) 0.38477(2) 0.953588(8)
Tb2 Tb 0.62454(2) 0.52693(2) 0.545410(8)
N1 N 0.8109(5) 0.8116(4) 0.74442(19)
N2 N 0.7563(4) 0.9266(4) 0.74214(16)
N3 N 0.7073(5) 1.1128(4) 0.71050(17)
N4 N 0.6948(4) 1.0961(4) 0.76252(17)
N5 N 0.9399(4) 0.2120(5) 0.75916(18)
N6 N 1.0528(4) 0.2718(4) 0.75664(16)
N7 N 1.2316(4) 0.3411(4) 0.72805(16)
N8 N 1.2252(4) 0.3243(4) 0.78013(17)
N9 N 0.3614(5) 0.1177(4) 0.73243(19)
N10 N 0.4180(4) 0.0030(4) 0.73764(16)
N11 N 0.4771(4) -0.1721(4) 0.72080(16)
N12 N 0.4669(4) -0.1806(4) 0.77245(16)
N13 N 0.2483(4) 0.6634(5) 0.76479(19)
N14 N 0.1322(4) 0.6147(4) 0.76252(16)
N15 N -0.0386(4) 0.5745(4) 0.73419(16)
N16 N -0.0549(4) 0.5621(4) 0.78588(17)
C1 C 0.7243(5) 0.7334(5) 0.57350(19)
C2 C 0.7644(5) 0.8529(5) 0.5863(2)
C3 C 0.8294(7) 0.9393(6) 0.5512(2)
H1 H 0.8541 0.9220 0.5198
C4 C 0.8567(8) 1.0503(7) 0.5634(3)
H2 H 0.8921 1.1114 0.5388
C5 C 0.8321(8) 1.0723(6) 0.6117(2)
H3 H 0.8558 1.1457 0.6201
C6 C 0.7720(5) 0.9844(5) 0.6478(2)
C7 C 0.7373(5) 0.8756(5) 0.6349(2)
H4 H 0.6956 0.8173 0.6586
C8 C 0.7455(5) 1.0086(5) 0.6990(2)
C9 C 0.7253(5) 0.9834(4) 0.7810(2)
C10 C 0.7229(5) 0.9317(5) 0.8348(2)
C11 C 0.7639(6) 1.0011(5) 0.8686(2)
H5 H 0.8010 1.0764 0.8567
C12 C 0.7490(6) 0.9572(6) 0.9198(2)
H6 H 0.7789 1.0017 0.9424
C13 C 0.6902(5) 0.8483(5) 0.9374(2)
H7 H 0.6766 0.8216 0.9719
C14 C 0.6511(5) 0.7776(5) 0.90416(18)
C15 C 0.6696(5) 0.8195(5) 0.85286(19)
H8 H 0.6458 0.7714 0.8304
C16 C 0.5884(5) 0.6582(5) 0.92330(18)
C17 C 0.2911(5) 0.5117(5) 0.9561(2)
C18 C 0.1792(5) 0.5545(5) 0.9298(2)
C19 C 0.0849(6) 0.6012(6) 0.9561(2)
H9 H 0.0913 0.6066 0.9897
C20 C -0.0176(6) 0.6396(7) 0.9332(2)
H10 H -0.0813 0.6689 0.9515
C21 C -0.0275(5) 0.6353(7) 0.8834(2)
H11 H -0.0976 0.6621 0.8682
C22 C 0.0663(5) 0.5911(5) 0.8554(2)
C23 C 0.1696(5) 0.5485(5) 0.8790(2)
H12 H 0.2321 0.5162 0.8611
C24 C 0.0482(5) 0.5878(5) 0.80263(19)
C25 C 0.0738(5) 0.6070(5) 0.72047(19)
C26 C 0.1204(5) 0.6319(5) 0.66743(19)
C27 C 0.2285(5) 0.5860(5) 0.65101(19)
H13 H 0.2811 0.5484 0.6742
C28 C 0.2588(5) 0.5961(5) 0.59935(19)
C29 C 0.1818(6) 0.6570(5) 0.5655(2)
H14 H 0.2024 0.6652 0.5312
C30 C 0.0762(6) 0.7053(6) 0.5814(2)
H15 H 0.0259 0.7466 0.5581
C31 C 0.0443(6) 0.6926(6) 0.6324(2)
H16 H -0.0280 0.7246 0.6433
C32 C 0.3724(5) 0.5388(5) 0.58140(18)
C33 C 0.4941(5) 0.2609(5) 0.54527(19)
C34 C 0.4587(5) 0.1339(5) 0.5710(2)
C35 C 0.4076(6) 0.0552(6) 0.5445(2)
H17 H 0.3947 0.0811 0.5107
C36 C 0.3751(8) -0.0623(6) 0.5676(2)
H18 H 0.3442 -0.1163 0.5489
C37 C 0.3886(7) -0.0992(6) 0.6181(2)
H19 H 0.3662 -0.1780 0.6336
C38 C 0.4355(5) -0.0197(5) 0.6463(2)
C39 C 0.4733(5) 0.0958(4) 0.62187(19)
H20 H 0.5090 0.1483 0.6399
C40 C 0.4446(5) -0.0610(4) 0.70030(19)
C41 C 0.4302(5) -0.0745(4) 0.78196(19)
C42 C 0.4064(5) -0.0493(5) 0.83315(19)
C43 C 0.3506(5) -0.1413(5) 0.8685(2)
H21 H 0.3232 -0.2116 0.8586
C44 C 0.3357(6) -0.1287(5) 0.9185(2)
H22 H 0.2977 -0.1904 0.9420
C45 C 0.3768(5) -0.0249(5) 0.9340(2)
H23 H 0.3691 -0.0180 0.9678
C46 C 0.4303(5) 0.0696(5) 0.89812(19)
C47 C 0.4441(5) 0.0578(5) 0.84775(19)
H24 H 0.4782 0.1211 0.8239
C48 C 0.4734(5) 0.1821(5) 0.9151(2)
C49 C 0.7849(5) 0.2899(5) 0.92749(19)
C50 C 0.9105(5) 0.2528(5) 0.91380(19)
C51 C 0.9803(6) 0.1862(7) 0.9488(2)
H25 H 0.9498 0.1635 0.9820
C52 C 1.0961(7) 0.1530(9) 0.9347(3)
H26 H 1.1436 0.1097 0.9586
C53 C 1.1414(6) 0.1838(9) 0.8853(3)
H27 H 1.2186 0.1604 0.8758
C54 C 1.0703(5) 0.2502(5) 0.8498(2)
C55 C 0.9574(5) 0.2859(5) 0.8645(2)
H28 H 0.9115 0.3331 0.8410
C56 C 1.1177(5) 0.2817(5) 0.7969(2)
C57 C 1.1270(4) 0.3080(5) 0.71490(19)
C58 C 1.0944(5) 0.3128(5) 0.6626(2)
C59 C 0.9832(5) 0.3564(5) 0.64755(19)
H29 H 0.9256 0.3766 0.6711
C60 C 0.9574(5) 0.3699(4) 0.59713(19)
C61 C 0.8387(5) 0.4180(5) 0.58038(19)
C62 C 1.0445(5) 0.3394(5) 0.5625(2)
H30 H 1.0289 0.3506 0.5286
C63 C 1.1545(5) 0.2926(5) 0.5776(2)
H31 H 1.2109 0.2692 0.5543
C64 C 1.1795(5) 0.2809(5) 0.6272(2)
H32 H 1.2539 0.2514 0.6373
O1 O 0.6361(4) 0.6783(3) 0.59854(14)
O2 O 0.7805(3) 0.6917(4) 0.53864(14)
O3 O 0.5927(4) 0.5766(3) 0.89616(14)
O4 O 0.5340(3) 0.6396(4) 0.96605(13)
O5 O 0.7413(4) 0.3788(4) 0.89956(14)
O6 O 0.7269(4) 0.2335(3) 0.96573(14)
O7 O 0.7578(3) 0.4432(3) 0.61253(13)
O8 O 0.8180(3) 0.4331(4) 0.53505(13)
O9 O 0.5649(3) 0.3197(3) 0.56543(14)
O10 O 0.4438(4) 0.2977(3) 0.50470(15)
O11 O 0.5158(3) 0.2720(3) 0.88350(13)
O12 O 0.4651(4) 0.1876(3) 0.96081(14)
O13 O 0.3656(3) 0.4505(3) 0.93423(14)
O14 O 0.3014(3) 0.5420(4) 0.99799(14)
O15 O 0.4547(3) 0.5127(4) 0.61054(14)
O16 O 0.3855(3) 0.5228(3) 0.53627(13)
H46 H 0.4376 0.1433 0.7261
H47 H 0.7476 0.7593 0.7533
H50 H 0.9214 0.1926 0.7295
H51 H 0.2890 0.5944 0.7638
H53 H 0.8585 0.8009 0.7704
H54 H 0.2570 0.7137 0.7353
H55 H 0.8777 0.2538 0.7703
H56 H 0.3272 0.1171 0.7034
Tb1A Tb 0.43937(2) 0.61523(2) 1.046412(8)
Tb2A Tb 0.37546(2) 0.47307(2) 0.454590(8)
O4A O 0.4660(3) 0.3604(4) 1.03395(13)
O10A O 0.5562(4) 0.7023(3) 0.49530(15)
O14A O 0.6986(3) 0.4580(4) 1.00201(14)
O16A O 0.6145(3) 0.4772(3) 0.46373(13)
Mn1 Mn 0.59670(7) 0.46411(7) 0.74982(3)
O17 O 0.5526(4) 0.3358(4) 0.69611(16)
H33 H 0.5164 0.3734 0.6728
O18 O 0.7540(4) 0.5095(6) 0.70200(17)
H34 H 0.7447 0.4905 0.6746
O19 O 0.4992(4) 0.5978(4) 0.70162(14)
H35 H 0.5060 0.6644 0.7102
O20 O 0.6853(4) 0.3123(4) 0.79576(15)
H36 H 0.6706 0.2488 0.7859
O21 O 0.6836(3) 0.5678(3) 0.80054(14)
H37 H 0.6365 0.5735 0.8246
O22 O 0.4368(4) 0.4249(5) 0.80046(17)
H38 H 0.4523 0.4333 0.8288
H43 H 0.6284 0.3292 0.6938
H44 H 0.5013 0.5951 0.6705
H45 H 0.7528 0.5836 0.7051
H48 H 0.6594 0.3189 0.8256
H49 H 0.4098 0.3537 0.7976
H52 H 0.7535 0.5399 0.8073
O24 O 0.0555(4) 0.9423(5) 0.80064(18)
H41 H 0.0764 0.8870 0.7827
H42 H 0.1128 0.9965 0.8014
O23? O 0.1062(4) 0.9702(5) 0.69545(18)
H39? H 0.0941 0.9841 0.6687
H40? H 0.1563 0.9262 0.7088
loop_
_geom_bond_atom_site_label_1
_geom_bond_atom_site_label_2
_geom_bond_site_symmetry_1
_geom_bond_site_symmetry_2
Tb1 O3 1_555 1_555
Tb2 O1 1_555 1_555
Mn1 O17 1_555 1_555
N1 N2 1_555 1_555
N2 C8 1_555 1_555
N3 N4 1_555 1_555
N4 C9 1_555 1_555
N5 N6 1_555 1_555
N6 C56 1_555 1_555
N7 N8 1_555 1_555
N8 C56 1_555 1_555
N9 N10 1_555 1_555
N10 C40 1_555 1_555
N11 N12 1_555 1_555
N12 C41 1_555 1_555
N13 N14 1_555 1_555
N14 C24 1_555 1_555
N15 N16 1_555 1_555
N16 C24 1_555 1_555
C1 C2 1_555 1_555
C2 C3 1_555 1_555
C3 H1 1_555 1_555
C4 C3 1_555 1_555
H2 C4 1_555 1_555
C5 C4 1_555 1_555
H3 C5 1_555 1_555
C6 C5 1_555 1_555
C7 C2 1_555 1_555
H4 C7 1_555 1_555
C8 N3 1_555 1_555
C9 N2 1_555 1_555
C10 C9 1_555 1_555
C11 C10 1_555 1_555
H5 C11 1_555 1_555
C12 C11 1_555 1_555
H6 C12 1_555 1_555
C13 C12 1_555 1_555
H7 C13 1_555 1_555
C14 C13 1_555 1_555
C15 C10 1_555 1_555
H8 C15 1_555 1_555
C16 C14 1_555 1_555
C17 C18 1_555 1_555
C18 C19 1_555 1_555
C19 H9 1_555 1_555
C20 C19 1_555 1_555
H10 C20 1_555 1_555
C21 C20 1_555 1_555
H11 C21 1_555 1_555
C22 C21 1_555 1_555
C23 C18 1_555 1_555
H12 C23 1_555 1_555
C24 C22 1_555 1_555
C25 N14 1_555 1_555
C26 C25 1_555 1_555
C27 C26 1_555 1_555
H13 C27 1_555 1_555
C28 C27 1_555 1_555
C29 C28 1_555 1_555
H14 C29 1_555 1_555
C30 C29 1_555 1_555
H15 C30 1_555 1_555
C31 C26 1_555 1_555
H16 C31 1_555 1_555
C32 C28 1_555 1_555
C33 C34 1_555 1_555
C34 C35 1_555 1_555
C35 H17 1_555 1_555
C36 C35 1_555 1_555
H18 C36 1_555 1_555
C37 C36 1_555 1_555
H19 C37 1_555 1_555
C38 C37 1_555 1_555
C39 C34 1_555 1_555
H20 C39 1_555 1_555
C40 N11 1_555 1_555
C41 N10 1_555 1_555
C42 C41 1_555 1_555
C43 C42 1_555 1_555
H21 C43 1_555 1_555
C44 C43 1_555 1_555
H22 C44 1_555 1_555
C45 C44 1_555 1_555
H23 C45 1_555 1_555
C46 C45 1_555 1_555
C47 C42 1_555 1_555
H24 C47 1_555 1_555
C48 C46 1_555 1_555
C49 C50 1_555 1_555
C50 C51 1_555 1_555
C51 H25 1_555 1_555
C52 C51 1_555 1_555
H26 C52 1_555 1_555
C53 C52 1_555 1_555
H27 C53 1_555 1_555
C54 C53 1_555 1_555
C55 C50 1_555 1_555
H28 C55 1_555 1_555
C56 C54 1_555 1_555
C57 N6 1_555 1_555
C58 C57 1_555 1_555
C59 C58 1_555 1_555
H29 C59 1_555 1_555
C60 C59 1_555 1_555
C61 C60 1_555 1_555
C62 C60 1_555 1_555
H30 C62 1_555 1_555
C63 C62 1_555 1_555
H31 C63 1_555 1_555
C64 C58 1_555 1_555
H32 C64 1_555 1_555
O1 C1 1_555 1_555
O2 Tb2 1_555 1_555
O3 C16 1_555 1_555
O4 C16 1_555 1_555
O5 Tb1 1_555 1_555
O6 Tb1 1_555 1_555
O7 Tb2 1_555 1_555
O8 Tb2 1_555 1_555
O9 Tb2 1_555 1_555
O10 C33 1_555 1_555
O11 Tb1 1_555 1_555
O12 Tb1 1_555 1_555
O13 Tb1 1_555 1_555
O14 C17 1_555 1_555
O15 Tb2 1_555 1_555
O16 C32 1_555 1_555
O17 H33 1_555 1_555
O18 Mn1 1_555 1_555
H34 O18 1_555 1_555
O19 Mn1 1_555 1_555
H35 O19 1_555 1_555
O20 Mn1 1_555 1_555
H36 O20 1_555 1_555
O21 Mn1 1_555 1_555
H37 O21 1_555 1_555
O22 Mn1 1_555 1_555
H38 O22 1_555 1_555
O24 H41 1_555 1_555
H42 O24 1_555 1_555
H43 O17 1_555 1_555
H44 O19 1_555 1_555
H45 O18 1_555 1_555
H46 N9 1_555 1_555
H47 N1 1_555 1_555
H48 O20 1_555 1_555
H49 O22 1_555 1_555
H50 N5 1_555 1_555
H51 N13 1_555 1_555
H52 O21 1_555 1_555
H53 N1 1_555 1_555
H54 N13 1_555 1_555
H55 N5 1_555 1_555
H56 N9 1_555 1_555
Tb1A O4 1_555 1_555
Tb2A O10 1_555 1_555
O4A Tb1 1_555 1_555
O10A Tb2 1_555 1_555
O14A Tb1 1_555 1_555
O16A Tb2 1_555 1_555
N7 C57 1_555 1_555
N15 C25 1_555 1_555
C1 O2 1_555 1_555
C6 C7 1_555 1_555
C6 C8 1_555 1_555
C14 C15 1_555 1_555
C17 O13 1_555 1_555
C22 C23 1_555 1_555
C30 C31 1_555 1_555
C32 O15 1_555 1_555
C33 O9 1_555 1_555
C38 C39 1_555 1_555
C38 C40 1_555 1_555
C46 C47 1_555 1_555
C48 O11 1_555 1_555
C48 O12 1_555 1_555
C49 O5 1_555 1_555
C49 O6 1_555 1_555
C54 C55 1_555 1_555
C61 O7 1_555 1_555
C61 O8 1_555 1_555
C63 C64 1_555 1_555
O14 Tb1A 1_555 1_555
O16 Tb2A 1_555 1_555

#END
