
#######################################################################
#
#                 Cambridge Crystallographic Data Centre
#                                CCDC 
#
#######################################################################
#
# If this CIF has been generated from an entry in the Cambridge 
# Structural Database, then it will include bibliographic, chemical, 
# crystal, experimental, refinement or atomic coordinate data resulting 
# from the CCDC's data processing and validation procedures.
#
#######################################################################

data_CIPMIX
_symmetry_cell_setting           orthorhombic
_symmetry_space_group_name_H-M   'P 21 21 21'
_symmetry_Int_Tables_number      19
_space_group_name_Hall           'P 2ac 2ab'
loop_
_symmetry_equiv_pos_site_id
_symmetry_equiv_pos_as_xyz
1 x,y,z
2 1/2+x,1/2-y,-z
3 -x,1/2+y,1/2-z
4 1/2-x,-y,1/2+z
_cell_length_a                   10.280(1)
_cell_length_b                   15.053(2)
_cell_length_c                   10.735(1)
_cell_angle_alpha                90
_cell_angle_beta                 90
_cell_angle_gamma                90
_cell_volume                     1661.19
loop_
_atom_site_label
_atom_site_type_symbol
_atom_site_fract_x
_atom_site_fract_y
_atom_site_fract_z
As1 As 0.0006 -0.2401 -0.0019
Na1 Na 0.2439 -0.3420 0.0363
O1 O 0.2179 -0.4235 0.2180
O2 O 0.2273 -0.5302 0.4210
C1 C -0.0582 -0.2482 0.1737
C2 C -0.1821 -0.2763 0.2091
C3 C -0.2187 -0.2737 0.3342
C4 C -0.1313 -0.2430 0.4239
C5 C -0.0074 -0.2149 0.3884
C6 C 0.0291 -0.2175 0.2633
C7 C -0.0894 -0.3391 -0.0866
C8 C -0.1442 -0.4130 -0.0282
C9 C -0.1985 -0.4810 -0.0995
C10 C -0.1979 -0.4752 -0.2292
C11 C -0.1431 -0.4013 -0.2876
C12 C -0.0888 -0.3333 -0.2163
C13 C 0.1023 -0.4734 0.2588
C14 C 0.1104 -0.4878 0.3849
C15 C 0.3443 -0.4824 0.3853
C16 C 0.3372 -0.4722 0.2572
Na1A Na -0.2561 -0.1580 -0.0363
As1A As 0.5006 -0.2599 0.0019
O2C O 0.2727 -0.4698 -0.0790
Na1C Na 0.2561 -0.6580 0.5363
loop_
_geom_bond_atom_site_label_1
_geom_bond_atom_site_label_2
_geom_bond_site_symmetry_1
_geom_bond_site_symmetry_2
As1 Na1 1_555 1_555
Na1 O1 1_555 1_555
O1 C13 1_555 1_555
O2 C14 1_555 1_555
C1 As1 1_555 1_555
C2 C1 1_555 1_555
C3 C2 1_555 1_555
C4 C3 1_555 1_555
C5 C4 1_555 1_555
C6 C1 1_555 1_555
C7 As1 1_555 1_555
C8 C7 1_555 1_555
C9 C8 1_555 1_555
C10 C9 1_555 1_555
C11 C10 1_555 1_555
C12 C7 1_555 1_555
C13 C14 1_555 1_555
C15 O2 1_555 1_555
C16 O1 1_555 1_555
Na1A As1 1_555 1_555
As1A Na1 1_555 1_555
O2C Na1 1_555 1_555
Na1C O2 1_555 1_555
C5 C6 1_555 1_555
C11 C12 1_555 1_555
C15 C16 1_555 1_555

#END
