
#######################################################################
#
#                 Cambridge Crystallographic Data Centre
#                                CCDC 
#
#######################################################################
#
# If this CIF has been generated from an entry in the Cambridge 
# Structural Database, then it will include bibliographic, chemical, 
# crystal, experimental, refinement or atomic coordinate data resulting 
# from the CCDC's data processing and validation procedures.
#
#######################################################################

data_CIPMAQ
_symmetry_cell_setting           triclinic
_symmetry_space_group_name_H-M   'P -1'
_symmetry_Int_Tables_number      2
_space_group_name_Hall           '-P 1'
loop_
_symmetry_equiv_pos_site_id
_symmetry_equiv_pos_as_xyz
1 x,y,z
2 -x,-y,-z
_cell_length_a                   11.1220(11)
_cell_length_b                   11.1502(11)
_cell_length_c                   27.107(3)
_cell_angle_alpha                79.7440(10)
_cell_angle_beta                 86.1500(10)
_cell_angle_gamma                89.9920(10)
_cell_volume                     3300.19
loop_
_atom_site_label
_atom_site_type_symbol
_atom_site_fract_x
_atom_site_fract_y
_atom_site_fract_z
Gd1 Gd 0.93967(2) 0.61449(2) 0.046425(8)
Gd2 Gd 0.87547(2) 0.47268(2) 0.454627(8)
N1 N 1.0330(4) 1.1810(4) 0.22683(16)
N2 N 1.0233(4) 1.1731(4) 0.27837(16)
N3 N 1.0821(4) 0.9973(4) 0.26166(16)
N4 N 1.1383(5) 0.8837(4) 0.26803(19)
N5 N 0.2679(4) 0.6591(4) 0.27234(16)
N6 N 0.2743(4) 0.6748(4) 0.22046(16)
N7 N 0.4475(4) 0.7272(4) 0.24364(16)
N8 N 0.5599(4) 0.7869(5) 0.24115(18)
N9 N 0.7933(4) -0.1133(4) 0.28944(16)
N10 N 0.8062(4) -0.0973(4) 0.23758(16)
N11 N 0.7434(4) 0.0724(3) 0.25772(16)
N12 N 0.6888(5) 0.1872(4) 0.2551(2)
N13 N 1.5397(4) 0.4238(4) 0.26619(16)
N14 N 1.5557(4) 0.4371(4) 0.21453(16)
N15 N 1.3681(4) 0.3848(4) 0.23772(16)
N16 N 1.2523(4) 0.3368(5) 0.2372(2)
C1 C 1.0277(4) 0.8182(4) 0.08436(19)
C2 C 1.0699(4) 0.9311(4) 0.10150(19)
C3 C 1.1234(5) 1.0251(5) 0.0661(2)
H1 H 1.1319 1.0174 0.0324
C4 C 1.1638(6) 1.1303(5) 0.0807(2)
H2 H 1.1998 1.1925 0.0568
C5 C 1.1509(5) 1.1427(5) 0.1304(2)
H3 H 1.1797 1.2126 0.1401
C6 C 1.0942(5) 1.0499(4) 0.16659(19)
C7 C 1.0562(5) 0.9438(4) 0.15189(19)
H4 H 1.0214 0.8809 0.1757
C8 C 1.0701(5) 1.0751(4) 0.21763(19)
C9 C 1.0551(5) 1.0618(4) 0.29898(19)
C10 C 1.0644(5) 1.0202(4) 0.35298(19)
C11 C 1.1122(6) 1.1007(5) 0.3805(2)
H5 H 1.1363 1.1788 0.3648
C12 C 1.1236(7) 1.0631(6) 0.4315(2)
H6 H 1.1539 1.1171 0.4502
C13 C 1.0908(6) 0.9479(5) 0.4547(2)
H7 H 1.1014 0.9231 0.4887
C14 C 1.0415(5) 0.8674(4) 0.42759(19)
C15 C 1.0267(5) 0.9045(4) 0.37730(19)
H8 H 0.9910 0.8519 0.3594
C16 C 1.0074(4) 0.7398(4) 0.45395(16)
H9 H 0.7432 0.2453 0.2427
H10 H 1.0819 0.8275 0.2676
H11 H 0.6143 0.7278 0.2409
H12 H 1.1883 0.3846 0.2318
H13 H 0.6148 0.2111 0.2453
H14 H 1.2597 0.2852 0.2153
H15 H 0.5718 0.8273 0.2663
H16 H 1.1964 0.8842 0.2433
C17 C 0.7149(4) 0.7099(5) 0.07279(18)
C18 C 0.5887(5) 0.7475(5) 0.0867(2)
C19 C 0.5199(6) 0.8147(6) 0.0518(2)
H21 H 0.5513 0.8395 0.0189
C20 C 0.4029(7) 0.8455(8) 0.0660(3)
H22 H 0.3545 0.8868 0.0420
C21 C 0.3588(6) 0.8152(8) 0.1150(2)
H23 H 0.2816 0.8386 0.1245
C22 C 0.4293(5) 0.7494(5) 0.1507(2)
C23 C 0.5421(4) 0.7136(4) 0.13586(18)
H24 H 0.5878 0.6658 0.1592
C24 C 0.3821(5) 0.7167(5) 0.2036(2)
C25 C 0.3729(4) 0.6912(5) 0.28560(19)
C26 C 0.4048(4) 0.6868(4) 0.33750(18)
C27 C 0.3191(5) 0.7204(5) 0.3728(2)
H25 H 0.2453 0.7510 0.3626
C28 C 0.3441(5) 0.7081(5) 0.4225(2)
H26 H 0.2872 0.7305 0.4458
C29 C 0.4549(5) 0.6620(5) 0.4378(2)
H27 H 0.4712 0.6525 0.4715
C30 C 0.5413(4) 0.6302(4) 0.40287(19)
C31 C 0.5150(4) 0.6434(4) 0.35298(19)
H28 H 0.5725 0.6227 0.3295
C32 C 0.6598(5) 0.5820(4) 0.41970(19)
C33 C 0.9104(5) 0.3421(4) 0.07752(18)
C34 C 0.8477(5) 0.2226(4) 0.09613(18)
C35 C 0.8100(5) 0.1518(5) 0.0627(2)
H29 H 0.8238 0.1785 0.0282
C36 C 0.7519(6) 0.0416(6) 0.0808(2)
H30 H 0.7228 -0.0038 0.0583
C37 C 0.7367(5) -0.0015(5) 0.1314(2)
H31 H 0.6992 -0.0766 0.1432
C38 C 0.7774(5) 0.0671(4) 0.16554(19)
C39 C 0.8307(5) 0.1794(4) 0.14738(19)
H32 H 0.8555 0.2269 0.1698
C40 C 0.7746(5) 0.0145(4) 0.21908(19)
C41 C 0.7548(5) -0.0097(4) 0.30120(19)
C42 C 0.7287(5) 0.0141(5) 0.3520(2)
C43 C 0.6715(7) -0.0750(6) 0.3885(2)
H33 H 0.6515 -0.1503 0.3809
C44 C 0.6448(8) -0.0508(6) 0.4359(2)
H34 H 0.6062 -0.1104 0.4602
C45 C 0.6736(7) 0.0589(6) 0.4483(2)
H47 H 0.6512 0.0746 0.4802
C46 C 0.7363(5) 0.1468(5) 0.41335(19)
C47 C 0.7624(5) 0.1236(5) 0.36549(19)
H48 H 0.8034 0.1825 0.3417
C48 C 0.7748(5) 0.2658(5) 0.42613(19)
C49 C 1.2106(5) 0.4873(5) 0.04493(19)
C50 C 1.3209(4) 0.4458(5) 0.0708(2)
C51 C 1.4161(5) 0.3984(6) 0.0442(2)
H49 H 1.4097 0.3928 0.0107
C52 C 1.5193(6) 0.3600(7) 0.0674(2)
H50 H 1.5824 0.3296 0.0492
C53 C 1.5302(5) 0.3660(6) 0.1172(2)
H51 H 1.6012 0.3421 0.1322
C54 C 1.4345(5) 0.4081(5) 0.1450(2)
C55 C 1.3322(5) 0.4504(5) 0.12141(19)
H52 H 1.2701 0.4824 0.1396
C56 C 1.4531(4) 0.4122(5) 0.19751(19)
C57 C 1.4266(4) 0.3925(5) 0.27989(19)
C58 C 1.3802(5) 0.3682(5) 0.33258(18)
C59 C 1.4561(5) 0.3078(5) 0.3680(2)
H53 H 1.5286 0.2763 0.3572
C60 C 1.4248(6) 0.2944(6) 0.4187(2)
H54 H 1.4745 0.2525 0.4420
C61 C 1.3177(5) 0.3445(5) 0.4344(2)
H55 H 1.2971 0.3378 0.4686
C62 C 1.2418(5) 0.4037(4) 0.40046(18)
C63 C 1.2718(4) 0.4132(4) 0.34919(19)
H56 H 1.2189 0.4499 0.3261
C64 C 1.1281(4) 0.4608(5) 0.41806(18)
O3 O 0.9360(3) 0.6808(3) 0.43382(14)
O4 O 1.0560(4) 0.7022(3) 0.49414(14)
O5 O 0.9845(3) 0.7286(3) 0.11639(13)
O6 O 1.0356(4) 0.8136(3) 0.03902(13)
O7 O 0.7409(3) 0.5569(3) 0.38742(12)
O8 O 0.6801(3) 0.5665(4) 0.46523(13)
O9 O 0.7719(3) 0.7667(3) 0.03513(14)
O10 O 0.7582(3) 0.6214(4) 0.10087(14)
O11 O 0.8646(4) 0.3205(3) 0.40121(14)
O12 O 0.7197(3) 0.3067(3) 0.46112(13)
O13 O 0.9072(3) 0.4221(3) 0.10477(13)
O14 O 0.9634(3) 0.3622(3) 0.03432(13)
O15 O 1.1362(3) 0.5491(3) 0.06629(14)
O16 O 1.1999(3) 0.4566(4) 0.00267(14)
O17 O 1.0463(3) 0.4876(4) 0.38883(13)
O18 O 1.1137(3) 0.4763(3) 0.46339(12)
Gd1A Gd 1.06033(2) 0.38551(2) -0.046425(8)
Gd2A Gd 1.12453(2) 0.52732(2) 0.545373(8)
O4A O 0.9440(4) 0.2978(3) 0.50586(14)
O14A O 1.0366(3) 0.6378(3) -0.03432(13)
O16A O 0.8001(3) 0.5434(4) -0.00267(14)
O18A O 0.8863(3) 0.5237(3) 0.53661(12)
Mn1 Mn 0.90333(7) 0.53629(6) 0.25022(3)
H35 H 0.9924 0.3877 0.3303
H36 H 1.0348 0.3412 0.2889
H37 H 0.8194 0.7080 0.1721
H38 H 0.7787 0.7455 0.2158
H39 H 0.8197 0.4278 0.1685
H40 H 0.7778 0.3690 0.2154
H41 H 0.7344 0.5079 0.3276
H42 H 0.6827 0.4521 0.2928
H43 H 1.0542 0.6097 0.1687
H44 H 1.1373 0.5765 0.2037
H45 H 0.9537 0.6383 0.3352
H46 H 0.9916 0.7270 0.2952
O19 O 0.8162(3) 0.4329(3) 0.19985(13)
O20 O 0.8160(4) 0.6876(4) 0.20423(15)
O21 O 1.0628(4) 0.5750(5) 0.19934(16)
O22 O 0.9995(4) 0.4013(3) 0.29823(14)
O23 O 0.9471(4) 0.6629(4) 0.30373(16)
O24 O 0.7469(4) 0.4907(6) 0.29822(16)
O2 O 0.4695(4) 0.0679(4) 0.20201(16)
H19 H 0.4094 0.0221 0.1997
H20 H 0.4496 0.1286 0.2160
O1? O 0.3654(4) 0.0551(4) 0.29622(16)
H17? H 0.4094 0.0374 0.3214
H18? H 0.3795 0.0071 0.2752
loop_
_geom_bond_atom_site_label_1
_geom_bond_atom_site_label_2
_geom_bond_site_symmetry_1
_geom_bond_site_symmetry_2
Gd1 O5 1_555 1_555
Gd2 O3 1_555 1_555
Mn1 O19 1_555 1_555
N1 N2 1_555 1_555
N2 C9 1_555 1_555
N3 N4 1_555 1_555
N4 H10 1_555 1_555
N5 N6 1_555 1_555
N6 C24 1_555 1_555
N7 N8 1_555 1_555
N8 H11 1_555 1_555
N9 N10 1_555 1_555
N10 C40 1_555 1_555
N11 N12 1_555 1_555
N12 H9 1_555 1_555
N13 N14 1_555 1_555
N14 C56 1_555 1_555
N15 N16 1_555 1_555
N16 H12 1_555 1_555
C1 C2 1_555 1_555
C2 C3 1_555 1_555
C3 H1 1_555 1_555
C4 C3 1_555 1_555
H2 C4 1_555 1_555
C5 C4 1_555 1_555
H3 C5 1_555 1_555
C6 C5 1_555 1_555
C7 C2 1_555 1_555
H4 C7 1_555 1_555
C8 N1 1_555 1_555
C9 N3 1_555 1_555
C10 C9 1_555 1_555
C11 C10 1_555 1_555
H5 C11 1_555 1_555
C12 C11 1_555 1_555
H6 C12 1_555 1_555
C13 C12 1_555 1_555
H7 C13 1_555 1_555
C14 C13 1_555 1_555
C15 C10 1_555 1_555
H8 C15 1_555 1_555
C16 C14 1_555 1_555
H13 N12 1_555 1_555
H14 N16 1_555 1_555
H15 N8 1_555 1_555
H16 N4 1_555 1_555
O2 H19 1_555 1_555
H20 O2 1_555 1_555
C17 C18 1_555 1_555
C18 C19 1_555 1_555
C19 H21 1_555 1_555
C20 C19 1_555 1_555
H22 C20 1_555 1_555
C21 C20 1_555 1_555
H23 C21 1_555 1_555
C22 C21 1_555 1_555
C23 C18 1_555 1_555
H24 C23 1_555 1_555
C24 N7 1_555 1_555
C25 N5 1_555 1_555
C26 C25 1_555 1_555
C27 C26 1_555 1_555
H25 C27 1_555 1_555
C28 C27 1_555 1_555
H26 C28 1_555 1_555
C29 C28 1_555 1_555
H27 C29 1_555 1_555
C30 C29 1_555 1_555
C31 C26 1_555 1_555
H28 C31 1_555 1_555
C32 C30 1_555 1_555
C33 C34 1_555 1_555
C34 C35 1_555 1_555
C35 H29 1_555 1_555
C36 C35 1_555 1_555
H30 C36 1_555 1_555
C37 C36 1_555 1_555
H31 C37 1_555 1_555
C38 C37 1_555 1_555
C39 C34 1_555 1_555
H32 C39 1_555 1_555
C40 N11 1_555 1_555
C41 N9 1_555 1_555
C42 C41 1_555 1_555
C43 C42 1_555 1_555
H33 C43 1_555 1_555
C44 C43 1_555 1_555
H34 C44 1_555 1_555
H35 O22 1_555 1_555
H36 O22 1_555 1_555
H37 O20 1_555 1_555
H38 O20 1_555 1_555
H39 O19 1_555 1_555
H40 O19 1_555 1_555
H41 O24 1_555 1_555
H42 O24 1_555 1_555
H43 O21 1_555 1_555
H44 O21 1_555 1_555
H45 O23 1_555 1_555
H46 O23 1_555 1_555
C45 C44 1_555 1_555
H47 C45 1_555 1_555
C46 C45 1_555 1_555
C47 C42 1_555 1_555
H48 C47 1_555 1_555
C48 C46 1_555 1_555
C49 C50 1_555 1_555
C50 C51 1_555 1_555
C51 H49 1_555 1_555
C52 C51 1_555 1_555
H50 C52 1_555 1_555
C53 C52 1_555 1_555
H51 C53 1_555 1_555
C54 C53 1_555 1_555
C55 C50 1_555 1_555
H52 C55 1_555 1_555
C56 N15 1_555 1_555
C57 N13 1_555 1_555
C58 C57 1_555 1_555
C59 C58 1_555 1_555
H53 C59 1_555 1_555
C60 C59 1_555 1_555
H54 C60 1_555 1_555
C61 C60 1_555 1_555
H55 C61 1_555 1_555
C62 C61 1_555 1_555
C63 C58 1_555 1_555
H56 C63 1_555 1_555
C64 C62 1_555 1_555
O3 C16 1_555 1_555
O4 C16 1_555 1_555
O5 C1 1_555 1_555
O6 Gd1 1_555 1_555
O7 Gd2 1_555 1_555
O8 Gd2 1_555 1_555
O9 Gd1 1_555 1_555
O10 Gd1 1_555 1_555
O11 Gd2 1_555 1_555
O12 Gd2 1_555 1_555
O13 Gd1 1_555 1_555
O14 C33 1_555 1_555
O15 Gd1 1_555 1_555
O16 C49 1_555 1_555
O17 Gd2 1_555 1_555
O18 C64 1_555 1_555
O20 Mn1 1_555 1_555
O21 Mn1 1_555 1_555
O22 Mn1 1_555 1_555
O23 Mn1 1_555 1_555
O24 Mn1 1_555 1_555
Gd1A O14 1_555 1_555
Gd2A O4 1_555 1_555
O4A Gd2 1_555 1_555
O14A Gd1 1_555 1_555
O16A Gd1 1_555 1_555
O18A Gd2 1_555 1_555
N3 C8 1_555 1_555
N7 C25 1_555 1_555
N11 C41 1_555 1_555
N15 C57 1_555 1_555
C1 O6 1_555 1_555
C6 C7 1_555 1_555
C6 C8 1_555 1_555
C14 C15 1_555 1_555
C17 O9 1_555 1_555
C17 O10 1_555 1_555
C22 C23 1_555 1_555
C22 C24 1_555 1_555
C30 C31 1_555 1_555
C32 O7 1_555 1_555
C32 O8 1_555 1_555
C33 O13 1_555 1_555
C38 C39 1_555 1_555
C38 C40 1_555 1_555
C46 C47 1_555 1_555
C48 O11 1_555 1_555
C48 O12 1_555 1_555
C49 O15 1_555 1_555
C54 C55 1_555 1_555
C54 C56 1_555 1_555
C62 C63 1_555 1_555
C64 O17 1_555 1_555
O16 Gd1A 1_555 1_555
O18 Gd2A 1_555 1_555

#END
