
#######################################################################
#
#                 Cambridge Crystallographic Data Centre
#                                CCDC 
#
#######################################################################
#
# If this CIF has been generated from an entry in the Cambridge 
# Structural Database, then it will include bibliographic, chemical, 
# crystal, experimental, refinement or atomic coordinate data resulting 
# from the CCDC's data processing and validation procedures.
#
#######################################################################

data_CIPMUL
_symmetry_cell_setting           monoclinic
_symmetry_space_group_name_H-M   'P 21/n'
_symmetry_Int_Tables_number      14
_space_group_name_Hall           '-P 2yn'
loop_
_symmetry_equiv_pos_site_id
_symmetry_equiv_pos_as_xyz
1 x,y,z
2 1/2-x,1/2+y,1/2-z
3 -x,-y,-z
4 1/2+x,1/2-y,1/2+z
_cell_length_a                   7.7416(2)
_cell_length_b                   19.5781(4)
_cell_length_c                   12.3835(2)
_cell_angle_alpha                90
_cell_angle_beta                 96.5130(10)
_cell_angle_gamma                90
_cell_volume                     1864.8
loop_
_atom_site_label
_atom_site_type_symbol
_atom_site_fract_x
_atom_site_fract_y
_atom_site_fract_z
Eu1 Eu 0.76050(3) 0.466333(14) 0.52726(2)
N1 N 1.0551(6) 0.8495(2) 0.3099(4)
O1 O 0.7769(5) 0.58691(19) 0.5231(3)
O2 O 1.0099(5) 0.98613(18) 0.1093(3)
O3 O 1.0772(5) 0.5025(2) 0.6150(3)
O4 O 1.0323(5) 0.62392(18) 0.4752(3)
O5 O 0.6342(5) 0.3700(2) 0.6105(4)
N2 N 1.0834(6) 0.5070(3) 0.9068(4)
O6 O 1.0224(7) 0.6193(2) 0.8976(4)
O7 O 1.0028(7) 0.9035(2) 0.4646(4)
O8 O 0.8916(7) 0.6896(2) 0.2055(4)
C1 C 0.8715(8) 0.6270(3) 0.4759(5)
C2 C 0.9423(8) 0.7322(3) 0.2759(6)
C3 C 1.1604(7) 0.5090(3) 0.8048(4)
H1 H 1.2517 0.475 0.8066
H2 H 1.2127 0.5535 0.7967
C4 C 1.1054(8) 0.9113(3) 0.2568(5)
H3 H 1.221 0.9052 0.2351
H4 H 1.1107 0.9488 0.3084
C5 C 1.0062(8) 0.8508(3) 0.4099(5)
C6 C 1.0751(8) 0.7851(3) 0.2547(5)
H5 H 1.1902 0.7671 0.2776
H6 H 1.0673 0.7934 0.1771
C7 C 1.0150(8) 0.5639(3) 0.9442(5)
C8 C 1.0665(10) 0.4403(3) 0.9550(5)
H7 H 1.1819 0.4206 0.9687
H8 H 1.0003 0.4116 0.9014
C9 C 0.7725(7) 0.6824(3) 0.4099(6)
H9 H 0.7063 0.6618 0.3471
H10 H 0.6907 0.7034 0.4537
C10 C 0.9540(9) 0.7840(3) 0.4551(5)
H11 H 1.0546 0.764 0.4973
H12 H 0.8671 0.7925 0.504
N3 N 0.8848(6) 0.7352(2) 0.3732(4)
O9 O 0.8767(5) 0.4778(2) 0.7203(3)
C11 C 1.0266(7) 0.4956(3) 0.7079(4)
O10 O 0.8572(5) 0.8929(2) 0.1271(3)
C12 C 0.9829(7) 0.9300(3) 0.1588(4)
O3B O 0.9228(5) 0.4975(2) 1.3850(3)
N2B N 0.9166(6) 0.4930(3) 1.0932(4)
O6B O 0.9776(7) 0.3807(2) 1.1024(4)
C3B C 0.8396(7) 0.4910(3) 1.1952(4)
H1B H 0.7483 0.525 1.1934
H2B H 0.7873 0.4465 1.2033
C7B C 0.9850(8) 0.4361(3) 1.0558(5)
C8B C 0.9335(10) 0.5597(3) 1.0450(5)
H7B H 0.8181 0.5794 1.0313
H8B H 0.9997 0.5884 1.0986
O9B O 1.1233(5) 0.5222(2) 1.2797(3)
C11B C 0.9734(7) 0.5044(3) 1.2921(4)
Eu1B Eu 1.23950(3) 0.533667(14) 0.47274(2)
N1B N 0.9449(6) 0.1505(2) 0.6901(4)
O1B O 1.2231(5) 0.41309(19) 0.4769(3)
O2B O 0.9901(5) 0.01387(18) 0.8907(3)
O4B O 0.9677(5) 0.37608(18) 0.5248(3)
O5B O 1.3658(5) 0.6300(2) 0.3895(4)
O7B O 0.9972(7) 0.0965(2) 0.5354(4)
O8B O 1.1084(7) 0.3104(2) 0.7945(4)
C1B C 1.1285(8) 0.3730(3) 0.5241(5)
C2B C 1.0577(8) 0.2678(3) 0.7241(6)
C4B C 0.8946(8) 0.0887(3) 0.7432(5)
H3B H 0.779 0.0948 0.7649
H4B H 0.8893 0.0512 0.6916
C5B C 0.9938(8) 0.1492(3) 0.5901(5)
C6B C 0.9249(8) 0.2149(3) 0.7453(5)
H5B H 0.8098 0.2329 0.7224
H6B H 0.9327 0.2066 0.8229
C9B C 1.2275(7) 0.3176(3) 0.5901(6)
H9B H 1.2937 0.3382 0.6529
H10B H 1.3093 0.2966 0.5463
C10B C 1.0460(9) 0.2160(3) 0.5449(5)
H11B H 0.9454 0.236 0.5027
H12B H 1.1329 0.2075 0.496
N3B N 1.1152(6) 0.2648(2) 0.6268(4)
O10B O 1.1428(5) 0.1071(2) 0.8729(3)
C12B C 1.0171(7) 0.0700(3) 0.8412(4)
Eu1_2 Eu 0.76050(3) 0.466333(14) 1.52726(2)
Eu1A Eu 0.73950(3) -0.033667(14) 0.97274(2)
Eu1A_2 Eu 0.73950(3) 0.966333(14) -0.02726(2)
Eu1B_2 Eu 1.23950(3) 0.533667(14) 1.47274(2)
Eu1C Eu 1.26050(3) 0.033667(14) 1.02726(2)
Eu1C_2 Eu 1.26050(3) 1.033667(14) 0.02726(2)
O2A O 0.4901(5) 0.48613(18) 0.3907(3)
O2A_2 O 1.4901(5) 0.48613(18) 0.3907(3)
O2C O 0.5099(5) 0.51387(18) 0.6093(3)
O2C_2 O 1.5099(5) 0.51387(18) 0.6093(3)
O3B_2 O 0.9228(5) 0.4975(2) 0.3850(3)
O9B_2 O 1.1233(5) 0.5222(2) 0.2797(3)
O10A O 0.6428(5) 0.3929(2) 0.3729(3)
O10C O 1.3572(5) 0.6071(2) 0.6271(3)
O11 O 0.8933(7) 0.7373(2) 0.9833(4)
O12 O 0.0403(9) 0.6976(4) 0.7027(5)
O13 O 0.5440(17) 0.3713(8) 0.8152(7)
loop_
_geom_bond_atom_site_label_1
_geom_bond_atom_site_label_2
_geom_bond_site_symmetry_1
_geom_bond_site_symmetry_2
Eu1 O1 1_555 1_555
N1 C4 1_555 1_555
O1 C1 1_555 1_555
O2 C12 1_555 1_555
O3 Eu1 1_555 1_555
O4 C1 1_555 1_555
O5 Eu1 1_555 1_555
N2 C3 1_555 1_555
O6 C7 1_555 1_555
O7 C5 1_555 1_555
O8 C2 1_555 1_555
C1 C9 1_555 1_555
C2 C6 1_555 1_555
C3 H1 1_555 1_555
H2 C3 1_555 1_555
C4 H3 1_555 1_555
H4 C4 1_555 1_555
C5 N1 1_555 1_555
C6 N1 1_555 1_555
H5 C6 1_555 1_555
H6 C6 1_555 1_555
C7 N2 1_555 1_555
C8 N2 1_555 1_555
H7 C8 1_555 1_555
H8 C8 1_555 1_555
C9 H9 1_555 1_555
H10 C9 1_555 1_555
C10 C5 1_555 1_555
H11 C10 1_555 1_555
H12 C10 1_555 1_555
N3 C2 1_555 1_555
O9 Eu1 1_555 1_555
C11 O3 1_555 1_555
O10 C12 1_555 1_555
C12 C4 1_555 1_555
O3B C11B 1_555 1_555
N2B C3B 1_555 1_555
O6B C7B 1_555 1_555
C3B H1B 1_555 1_555
H2B C3B 1_555 1_555
C7B C8 1_555 1_555
C8B C7 1_555 1_555
H7B C8B 1_555 1_555
H8B C8B 1_555 1_555
O9B C11B 1_555 1_555
C11B C3B 1_555 1_555
Eu1B O3 1_555 1_555
N1B C4B 1_555 1_555
O1B Eu1B 1_555 1_555
O2B C12B 1_555 1_555
O4B Eu1 1_555 1_555
O5B Eu1B 1_555 1_555
O7B C5B 1_555 1_555
O8B C2B 1_555 1_555
C1B O1B 1_555 1_555
C2B C6B 1_555 1_555
C4B H3B 1_555 1_555
H4B C4B 1_555 1_555
C5B N1B 1_555 1_555
C6B N1B 1_555 1_555
H5B C6B 1_555 1_555
H6B C6B 1_555 1_555
C9B C1B 1_555 1_555
H9B C9B 1_555 1_555
H10B C9B 1_555 1_555
C10B C5B 1_555 1_555
H11B C10B 1_555 1_555
H12B C10B 1_555 1_555
N3B C2B 1_555 1_555
O10B C12B 1_555 1_555
C12B C4B 1_555 1_555
Eu1_2 O3B 1_555 1_555
Eu1A O2B 1_555 1_555
Eu1A_2 O2 1_555 1_555
Eu1B_2 O3B 1_555 1_555
Eu1C O2B 1_555 1_555
Eu1C_2 O2 1_555 1_555
O2A Eu1 1_555 1_555
O2A_2 Eu1B 1_555 1_555
O2C Eu1 1_555 1_555
O2C_2 Eu1B 1_555 1_555
O3B_2 Eu1 1_555 1_555
O9B_2 Eu1B 1_555 1_555
O10A Eu1 1_555 1_555
O10C Eu1B 1_555 1_555
O4 Eu1B 1_555 1_555
C3 C11 1_555 1_555
C9 N3 1_555 1_555
C10 N3 1_555 1_555
O9 C11 1_555 1_555
O10 Eu1A_2 1_555 1_555
N2B C7B 1_555 1_555
N2B C8B 1_555 1_555
O9B Eu1B_2 1_555 1_555
Eu1B O3B_2 1_555 1_555
O4B C1B 1_555 1_555
C9B N3B 1_555 1_555
C10B N3B 1_555 1_555
O10B Eu1C 1_555 1_555

#END
