
#######################################################################
#
#                 Cambridge Crystallographic Data Centre
#                                CCDC 
#
#######################################################################
#
# If this CIF has been generated from an entry in the Cambridge 
# Structural Database, then it will include bibliographic, chemical, 
# crystal, experimental, refinement or atomic coordinate data resulting 
# from the CCDC's data processing and validation procedures.
#
#######################################################################

data_CIPZOS
_symmetry_cell_setting           triclinic
_symmetry_space_group_name_H-M   'P -1'
_symmetry_Int_Tables_number      2
_space_group_name_Hall           '-P 1'
loop_
_symmetry_equiv_pos_site_id
_symmetry_equiv_pos_as_xyz
1 x,y,z
2 -x,-y,-z
_cell_length_a                   11.12280(90)
_cell_length_b                   11.81290(90)
_cell_length_c                   13.31700(90)
_cell_angle_alpha                102.2687(50)
_cell_angle_beta                 103.4396(41)
_cell_angle_gamma                95.9468(39)
_cell_volume                     1641.28
loop_
_atom_site_label
_atom_site_type_symbol
_atom_site_fract_x
_atom_site_fract_y
_atom_site_fract_z
Fe1 Fe 0.26589(6) 0.39659(6) 0.68708(6)
O1 O 0.2704(3) 0.5538(3) 0.6639(3)
O2 O 0.2176(3) 0.3392(3) 0.5332(3)
O3 O 0.2910(5) 0.8634(4) 0.8872(3)
O4 O 0.0726(5) -0.0051(4) 0.3623(3)
O5 O 0.3867(4) 0.2938(3) 1.1526(3)
H1 H 0.3814 0.2288 1.1689
O6 O 0.3342(5) 0.0707(3) 1.0242(3)
H2 H 0.3143 0.0071 0.9773
N1 N 0.3092(4) 0.4515(3) 0.8379(3)
N2 N 0.2570(4) 0.2431(3) 0.7116(3)
N3 N 0.0859(4) 0.3950(3) 0.6833(3)
N4 N -0.5538(4) 0.4037(4) 0.6862(3)
C1 C 0.2790(5) 0.6490(4) 0.7317(4)
C2 C 0.2999(5) 0.6594(4) 0.8434(4)
C3 C 0.3174(5) 0.5601(5) 0.8894(4)
H3 H 0.3368 0.5755 0.9649
C4 C 0.3201(4) 0.3581(4) 0.8911(4)
C5 C 0.3535(5) 0.3724(5) 1.0020(4)
H4 H 0.3744 0.4490 1.0480
C6 C 0.3561(5) 0.2755(5) 1.0443(4)
C7 C 0.3274(5) 0.1619(5) 0.9766(4)
C8 C 0.2957(5) 0.1473(5) 0.8671(4)
H5 H 0.2775 0.0705 0.8215
C9 C 0.2906(4) 0.2455(4) 0.8231(4)
C10 C 0.2163(5) 0.1456(4) 0.6377(4)
H6 H 0.2134 0.0749 0.6609
C11 C 0.1757(5) 0.1344(4) 0.5251(4)
C12 C 0.1769(5) 0.2340(5) 0.4791(4)
C13 C 0.1322(6) 0.2224(5) 0.3607(4)
H7 H 0.1532 0.2984 0.3452
H8 H 0.0412 0.1975 0.3371
H9 H 0.1731 0.1640 0.3229
C14 C 0.2595(6) 0.7520(5) 0.6834(4)
H10 H 0.2453 0.7264 0.6061
H11 H 0.3340 0.8126 0.7130
H12 H 0.1866 0.7840 0.6999
C15 C 0.1326(5) 0.0153(5) 0.4577(4)
C16 C 0.1582(6) -0.0898(5) 0.5014(5)
H13 H 0.1367 -0.1606 0.4428
H14 H 0.1074 -0.0977 0.5513
H15 H 0.2471 -0.0796 0.5385
C17 C 0.3092(6) 0.7725(5) 0.9160(5)
C18 C 0.3402(8) 0.7819(5) 1.0346(5)
H16 H 0.3498 0.8642 1.0729
H17 H 0.4186 0.7518 1.0565
H18 H 0.2724 0.7356 1.0512
C19 C -0.1148(4) 0.4428(4) 0.6057(4)
H19 H -0.1637 0.4732 0.5522
C20 C 0.0091(5) 0.4367(5) 0.6107(4)
H20 H 0.0429 0.4639 0.5593
C21 C 0.0324(5) 0.3553(5) 0.7525(4)
H21 H 0.0822 0.3221 0.8033
C22 C -0.0891(5) 0.3599(5) 0.7541(4)
H22 H -0.1203 0.3325 0.8067
C23 C -0.1681(4) 0.4040(4) 0.6797(4)
C24 C -0.3005(4) 0.4076(4) 0.6816(4)
C25 C -0.3766(5) 0.4720(5) 0.6287(5)
H23 H -0.3444 0.5201 0.5891
C26 C -0.4998(5) 0.4674(5) 0.6326(5)
H24 H -0.5497 0.5128 0.5943
C27 C -0.4757(5) 0.3494(6) 0.7455(5)
H25 H -0.5073 0.3086 0.7905
C28 C -0.3526(5) 0.3498(6) 0.7445(5)
H26 H -0.3023 0.3092 0.7881
Fe1_2 Fe -0.73411(6) 0.39659(6) 0.68708(6)
N4_2 N 0.4462(4) 0.4037(4) 0.6862(3)
N5 N 0.4222(6) 0.1401(5) 0.2864(5)
C29 C 0.4841(8) 0.0298(6) 0.4554(6)
C30 C 0.4486(7) 0.1974(6) 0.3881(6)
H27 H 0.4462 0.2793 0.4038
C31 C 0.4792(7) 0.1459(6) 0.4727(6)
H28 H 0.4970 0.1925 0.5436
C32 C 0.4667(14) -0.0259(8) 0.3513(7)
H29 H 0.4773 -0.1058 0.3326
C33 C 0.4336(16) 0.0336(9) 0.2730(8)
H30 H 0.4179 -0.0105 0.2014
N5A N 0.5778(6) -0.1401(5) 0.7136(5)
C29A C 0.5159(8) -0.0298(6) 0.5446(6)
C30A C 0.5514(7) -0.1974(6) 0.6119(6)
H27A H 0.5538 -0.2793 0.5962
C31A C 0.5208(7) -0.1459(6) 0.5273(6)
H28A H 0.5030 -0.1925 0.4564
C32A C 0.5333(14) 0.0259(8) 0.6487(7)
H29A H 0.5227 0.1058 0.6674
C33A C 0.5664(16) -0.0336(9) 0.7270(8)
H30A H 0.5821 0.0105 0.7986
O7 O 0.0845(9) -0.1264(6) 0.1672(5)
H31 H 0.0843 -0.0968 0.2303
C34 C 0.0577(11) -0.0477(5) 0.1076(4)
H32 H -0.0288 -0.0343 0.1025
H33 H 0.0674 -0.0786 0.0361
H34 H 0.1150 0.0265 0.1412
O8 O 0.0012(6) -0.3417(5) -0.0069(4)
H35 H 0.0319 -0.2839 0.0453
C35 C 0.0922(7) -0.4394(6) -0.0044(4)
H36 H 0.1734 -0.4048 0.0463
H37 H 0.1044 -0.4671 -0.0756
H38 H 0.0543 -0.5055 0.0175
H39? H 0.0236 -0.2782 0.0401
C36? C -0.0410(6) -0.3187(5) -0.1052(4)
H40? H -0.1205 -0.2888 -0.1092
H41? H -0.0536 -0.3911 -0.1610
H42? H 0.0210 -0.2599 -0.1152
loop_
_geom_bond_atom_site_label_1
_geom_bond_atom_site_label_2
_geom_bond_site_symmetry_1
_geom_bond_site_symmetry_2
Fe1 O1 1_555 1_555
O1 C1 1_555 1_555
O2 Fe1 1_555 1_555
O3 C17 1_555 1_555
O4 C15 1_555 1_555
O5 H1 1_555 1_555
O6 H2 1_555 1_555
N1 Fe1 1_555 1_555
N2 Fe1 1_555 1_555
N3 Fe1 1_555 1_555
N4 C26 1_555 1_555
C1 C2 1_555 1_555
C2 C3 1_555 1_555
C3 N1 1_555 1_555
H3 C3 1_555 1_555
C4 N1 1_555 1_555
C5 C4 1_555 1_555
H4 C5 1_555 1_555
C6 O5 1_555 1_555
C7 O6 1_555 1_555
C8 C7 1_555 1_555
H5 C8 1_555 1_555
C9 N2 1_555 1_555
C10 N2 1_555 1_555
H6 C10 1_555 1_555
C11 C10 1_555 1_555
C12 O2 1_555 1_555
C13 C12 1_555 1_555
H7 C13 1_555 1_555
H8 C13 1_555 1_555
H9 C13 1_555 1_555
C14 C1 1_555 1_555
H10 C14 1_555 1_555
H11 C14 1_555 1_555
H12 C14 1_555 1_555
C15 C11 1_555 1_555
C16 C15 1_555 1_555
H13 C16 1_555 1_555
H14 C16 1_555 1_555
H15 C16 1_555 1_555
C17 C2 1_555 1_555
C18 C17 1_555 1_555
H16 C18 1_555 1_555
H17 C18 1_555 1_555
H18 C18 1_555 1_555
C19 H19 1_555 1_555
C20 N3 1_555 1_555
H20 C20 1_555 1_555
C21 N3 1_555 1_555
H21 C21 1_555 1_555
C22 C21 1_555 1_555
H22 C22 1_555 1_555
C23 C19 1_555 1_555
C24 C23 1_555 1_555
C25 C24 1_555 1_555
H23 C25 1_555 1_555
C26 C25 1_555 1_555
H24 C26 1_555 1_555
C27 N4 1_555 1_555
H25 C27 1_555 1_555
C28 C24 1_555 1_555
H26 C28 1_555 1_555
N5 C30 1_555 1_555
C29 C31 1_555 1_555
C30 H27 1_555 1_555
C31 C30 1_555 1_555
H28 C31 1_555 1_555
C32 C29 1_555 1_555
H29 C32 1_555 1_555
C33 N5 1_555 1_555
H30 C33 1_555 1_555
O7 H31 1_555 1_555
C34 O7 1_555 1_555
H32 C34 1_555 1_555
H33 C34 1_555 1_555
H34 C34 1_555 1_555
O8 H35 1_555 1_555
C35 O8 1_555 1_555
H36 C35 1_555 1_555
H37 C35 1_555 1_555
H38 C35 1_555 1_555
Fe1_2 N4 1_555 1_555
N4_2 Fe1 1_555 1_555
N5A C30A 1_555 1_555
C29A C29 1_555 1_555
C30A H27A 1_555 1_555
C31A C29A 1_555 1_555
H28A C31A 1_555 1_555
C32A C29A 1_555 1_555
H29A C32A 1_555 1_555
C33A N5A 1_555 1_555
H30A C33A 1_555 1_555
C4 C9 1_555 1_555
C5 C6 1_555 1_555
C6 C7 1_555 1_555
C8 C9 1_555 1_555
C11 C12 1_555 1_555
C19 C20 1_555 1_555
C22 C23 1_555 1_555
C27 C28 1_555 1_555
C32 C33 1_555 1_555
C30A C31A 1_555 1_555
C32A C33A 1_555 1_555

#END
