
#######################################################################
#
#                 Cambridge Crystallographic Data Centre
#                                CCDC 
#
#######################################################################
#
# If this CIF has been generated from an entry in the Cambridge 
# Structural Database, then it will include bibliographic, chemical, 
# crystal, experimental, refinement or atomic coordinate data resulting 
# from the CCDC's data processing and validation procedures.
#
#######################################################################

data_CIQBIP
_symmetry_cell_setting           monoclinic
_symmetry_space_group_name_H-M   'P 21/c'
_symmetry_Int_Tables_number      14
_space_group_name_Hall           '-P 2ybc'
loop_
_symmetry_equiv_pos_site_id
_symmetry_equiv_pos_as_xyz
1 x,y,z
2 -x,1/2+y,1/2-z
3 -x,-y,-z
4 x,1/2-y,1/2+z
_cell_length_a                   12.749(9)
_cell_length_b                   17.215(11)
_cell_length_c                   9.489(6)
_cell_angle_alpha                90
_cell_angle_beta                 100.402(9)
_cell_angle_gamma                90
_cell_volume                     2048.36
loop_
_atom_site_label
_atom_site_type_symbol
_atom_site_fract_x
_atom_site_fract_y
_atom_site_fract_z
C1 C 0.6949(4) 0.3358(3) 0.7449(5)
H1 H 0.7418 0.3699 0.8002
C2 C 0.6200(4) 0.3566(3) 0.6310(6)
H2 H 0.6052 0.4066 0.5960
C3 C 0.6160(4) 0.2320(3) 0.6638(5)
H3 H 0.5967 0.1799 0.6525
C4 C 0.4862(3) 0.2815(2) 0.4563(4)
C5 C 0.4586(3) 0.2085(2) 0.3991(5)
H4 H 0.4958 0.1652 0.4399
C6 C 0.3782(3) 0.1990(2) 0.2843(4)
H5 H 0.3584 0.1495 0.2502
C7 C 0.3262(3) 0.2642(2) 0.2187(4)
C8 C 0.3552(3) 0.3387(2) 0.2740(4)
C9 C 0.4336(3) 0.3480(2) 0.3928(4)
H6 H 0.4514 0.3971 0.4303
C10 C 0.2905(3) 0.4015(2) 0.1815(4)
C11 C 0.2225(4) 0.4498(2) 0.2671(5)
H7 H 0.1886 0.4913 0.2082
H8 H 0.2673 0.4711 0.3503
H9 H 0.1691 0.4173 0.2961
C12 C 0.3639(4) 0.4557(3) 0.1148(5)
H10 H 0.4068 0.4254 0.0620
H11 H 0.4093 0.4838 0.1894
H12 H 0.3214 0.4917 0.0515
C13 C 0.2203(3) 0.3512(2) 0.0691(4)
C14 C 0.2410(3) 0.2727(2) 0.0954(4)
C15 C 0.1829(3) 0.2170(2) 0.0049(4)
H13 H 0.1952 0.1642 0.0214
C16 C 0.1072(3) 0.2420(2) -0.1091(5)
H14 H 0.0677 0.2056 -0.1689
C17 C 0.0892(3) 0.3200(2) -0.1355(4)
C18 C 0.1445(3) 0.3764(2) -0.0449(4)
H15 H 0.1308 0.4290 -0.0608
C19 C -0.0034(4) 0.4189(3) -0.3096(6)
H16 H 0.0306 0.4635 -0.2692
C20 C -0.0774(4) 0.4156(3) -0.4282(6)
H17 H -0.1043 0.4581 -0.4840
C21 C -0.0509(3) 0.2993(3) -0.3515(5)
H18 H -0.0545 0.2456 -0.3433
Cu1 Cu 0.78789(5) 0.20173(4) 0.89997(6)
N1 N 0.6917(3) 0.2586(2) 0.7663(4)
N2 N 0.5701(3) 0.28965(19) 0.5776(4)
N3 N 0.0134(3) 0.3451(2) -0.2583(3)
N4 N -0.1078(3) 0.3396(2) -0.4553(4)
Cu1C Cu -0.21211(5) 0.29827(4) -0.60003(6)
N4C N 0.8922(3) 0.1604(2) 1.0447(4)
Cl1 Cl 0.65855(15) 0.02121(12) 0.8299(2)
Cl2 Cl 0.88472(16) 0.10157(9) 0.5935(2)
Cu2 Cu 0.77042(6) 0.06509(4) 0.71334(8)
loop_
_geom_bond_atom_site_label_1
_geom_bond_atom_site_label_2
_geom_bond_site_symmetry_1
_geom_bond_site_symmetry_2
C1 H1 1_555 1_555
C2 C1 1_555 1_555
H2 C2 1_555 1_555
C3 H3 1_555 1_555
C4 C5 1_555 1_555
C5 H4 1_555 1_555
C6 C5 1_555 1_555
H5 C6 1_555 1_555
C7 C6 1_555 1_555
C8 C7 1_555 1_555
C9 C4 1_555 1_555
H6 C9 1_555 1_555
C10 C8 1_555 1_555
C11 C10 1_555 1_555
H7 C11 1_555 1_555
H8 C11 1_555 1_555
H9 C11 1_555 1_555
C12 C10 1_555 1_555
H10 C12 1_555 1_555
H11 C12 1_555 1_555
H12 C12 1_555 1_555
C13 C10 1_555 1_555
C14 C7 1_555 1_555
C15 C14 1_555 1_555
H13 C15 1_555 1_555
C16 C15 1_555 1_555
H14 C16 1_555 1_555
C17 C16 1_555 1_555
C18 C13 1_555 1_555
H15 C18 1_555 1_555
C19 H16 1_555 1_555
C20 C19 1_555 1_555
H17 C20 1_555 1_555
C21 H18 1_555 1_555
Cu1 N1 1_555 1_555
N1 C1 1_555 1_555
N2 C2 1_555 1_555
N3 C17 1_555 1_555
N4 C20 1_555 1_555
Cl1 Cu2 1_555 1_555
Cl2 Cu2 1_555 1_555
Cu1C N4 1_555 1_555
N4C Cu1 1_555 1_555
C3 N1 1_555 1_555
C3 N2 1_555 1_555
C4 N2 1_555 1_555
C8 C9 1_555 1_555
C13 C14 1_555 1_555
C17 C18 1_555 1_555
C19 N3 1_555 1_555
C21 N3 1_555 1_555
C21 N4 1_555 1_555

#END
