
#######################################################################
#
#                 Cambridge Crystallographic Data Centre
#                                CCDC 
#
#######################################################################
#
# If this CIF has been generated from an entry in the Cambridge 
# Structural Database, then it will include bibliographic, chemical, 
# crystal, experimental, refinement or atomic coordinate data resulting 
# from the CCDC's data processing and validation procedures.
#
#######################################################################

data_CIQGUG
_symmetry_cell_setting           triclinic
_symmetry_space_group_name_H-M   'P -1'
_symmetry_Int_Tables_number      2
_space_group_name_Hall           '-P 1'
loop_
_symmetry_equiv_pos_site_id
_symmetry_equiv_pos_as_xyz
1 x,y,z
2 -x,-y,-z
_cell_length_a                   5.43710(10)
_cell_length_b                   9.8496(3)
_cell_length_c                   10.2564(3)
_cell_angle_alpha                96.4450(10)
_cell_angle_beta                 91.2320(10)
_cell_angle_gamma                91.3280(10)
_cell_volume                     545.485
loop_
_atom_site_label
_atom_site_type_symbol
_atom_site_fract_x
_atom_site_fract_y
_atom_site_fract_z
H1 H 0.0869 0.1434 0.3071
H2 H 0.0780 -0.2852 -0.0807
H3 H 0.2169 -0.2460 0.0208
H4 H 0.4549 0.1226 0.5668
H5 H -0.4194 -0.4465 0.1454
H6 H 0.2609 0.1784 0.6194
H7 H -0.1925 -0.3972 0.2127
H8 H 0.1381 0.0269 0.2641
Co1 Co 0.0000 0.0000 0.5000
Co2 Co 0.0000 -0.5000 0.0000
O1 O -0.0419(5) -0.3362(3) 0.3694(3)
O2 O 0.2439(5) -0.5016(3) 0.1641(3)
O3 O 0.2189(5) -0.1729(3) 0.4617(3)
O4 O 0.0733(6) -0.6758(3) 0.2541(3)
O5 O 0.3013(5) 0.1098(3) 0.5906(3)
O6 O -0.2644(6) -0.4222(4) 0.1330(3)
C1 C 0.3561(6) -0.5310(4) 0.3841(3)
O7 O 0.0735(7) 0.0657(3) 0.3177(3)
C2 C 0.5172(7) -0.6259(4) 0.4275(3)
H9 H 0.5283 -0.7109 0.3786
C3 C 0.3387(6) -0.4025(3) 0.4587(3)
C4 C 0.1578(6) -0.2968(4) 0.4251(3)
C5 C 0.2111(7) -0.5719(4) 0.2586(3)
O8 O 0.1143(9) -0.3016(4) -0.0152(4)
O1A O 1.0419(5) -0.6638(3) 0.6306(3)
O2A O 0.7561(5) -0.4984(3) 0.8359(3)
O3A O 0.7811(5) -0.8271(3) 0.5383(3)
O4A O 0.9267(6) -0.3242(3) 0.7459(3)
C1A C 0.6439(6) -0.4690(4) 0.6159(3)
C2A C 0.4828(7) -0.3741(4) 0.5725(3)
H9A H 0.4717 -0.2891 0.6214
C3A C 0.6613(6) -0.5975(3) 0.5413(3)
C4A C 0.8422(6) -0.7032(4) 0.5749(3)
C5A C 0.7889(7) -0.4281(4) 0.7414(3)
H2A H -0.0780 -0.7148 0.0807
H3A H -0.2169 -0.7540 -0.0208
H5A H 0.4194 -0.5535 -0.1454
H7A H 0.1925 -0.6028 -0.2127
O6A O 0.2644(6) -0.5778(4) -0.1330(3)
O8A O -0.1143(9) -0.6984(4) 0.0152(4)
H1A H -0.0869 -0.1434 0.6929
H8A H -0.1381 -0.0269 0.7359
O7A O -0.0735(7) -0.0657(3) 0.6823(3)
H4A H -0.4549 -0.1226 0.4332
H6A H -0.2609 -0.1784 0.3806
O5A O -0.3013(5) -0.1098(3) 0.4094(3)
Co1_2 Co 1.0000 -1.0000 0.5000
Co2_2 Co 1.0000 -0.5000 1.0000
O2A_2 O -0.2439(5) -0.4984(3) -0.1641(3)
O3A_2 O -0.2189(5) 0.1729(3) 0.5383(3)
O9 O 0.2936(16) -0.0732(8) 0.1144(8)
O10 O 0.5551(16) -0.1850(8) 0.0171(9)
O11 O -0.4581(14) 0.0456(9) 0.1989(8)
O12 O 0.8066(16) -0.0714(9) 0.1011(8)
loop_
_geom_bond_atom_site_label_1
_geom_bond_atom_site_label_2
_geom_bond_site_symmetry_1
_geom_bond_site_symmetry_2
H1 O7 1_555 1_555
H2 O8 1_555 1_555
H3 O8 1_555 1_555
H4 O5 1_555 1_555
H5 O6 1_555 1_555
H6 O5 1_555 1_555
H7 O6 1_555 1_555
H8 O7 1_555 1_555
Co1 O3 1_555 1_555
Co2 O2 1_555 1_555
O1 C4 1_555 1_555
O2 C5 1_555 1_555
O3 C4 1_555 1_555
O4 C5 1_555 1_555
O5 Co1 1_555 1_555
O6 Co2 1_555 1_555
C1 C2 1_555 1_555
O7 Co1 1_555 1_555
C2 H9 1_555 1_555
C3 C1 1_555 1_555
C4 C3 1_555 1_555
C5 C1 1_555 1_555
O8 Co2 1_555 1_555
O1A C4A 1_555 1_555
O2A C5A 1_555 1_555
O3A C4A 1_555 1_555
O4A C5A 1_555 1_555
C1A C2A 1_555 1_555
C2A C3 1_555 1_555
H9A C2A 1_555 1_555
C3A C2 1_555 1_555
C4A C3A 1_555 1_555
C5A C1A 1_555 1_555
H2A O8A 1_555 1_555
H3A O8A 1_555 1_555
H5A O6A 1_555 1_555
H7A O6A 1_555 1_555
O6A Co2 1_555 1_555
O8A Co2 1_555 1_555
H1A O7A 1_555 1_555
H8A O7A 1_555 1_555
O7A Co1 1_555 1_555
H4A O5A 1_555 1_555
H6A O5A 1_555 1_555
O5A Co1 1_555 1_555
Co1_2 O3A 1_555 1_555
Co2_2 O2A 1_555 1_555
O2A_2 Co2 1_555 1_555
O3A_2 Co1 1_555 1_555
C1A C3A 1_555 1_555

#END
