
#######################################################################
#
#                 Cambridge Crystallographic Data Centre
#                                CCDC 
#
#######################################################################
#
# If this CIF has been generated from an entry in the Cambridge 
# Structural Database, then it will include bibliographic, chemical, 
# crystal, experimental, refinement or atomic coordinate data resulting 
# from the CCDC's data processing and validation procedures.
#
#######################################################################

data_CIQMIA
_symmetry_cell_setting           monoclinic
_symmetry_space_group_name_H-M   'P 21/c'
_symmetry_Int_Tables_number      14
_space_group_name_Hall           '-P 2ybc'
loop_
_symmetry_equiv_pos_site_id
_symmetry_equiv_pos_as_xyz
1 x,y,z
2 -x,1/2+y,1/2-z
3 -x,-y,-z
4 x,1/2-y,1/2+z
_cell_length_a                   12.0228(3)
_cell_length_b                   13.1583(3)
_cell_length_c                   8.3837(2)
_cell_angle_alpha                90
_cell_angle_beta                 96.5140(10)
_cell_angle_gamma                90
_cell_volume                     1317.74
loop_
_atom_site_label
_atom_site_type_symbol
_atom_site_fract_x
_atom_site_fract_y
_atom_site_fract_z
Er1 Er 0.335321(11) 0.591503(11) 0.010551(16)
O1 O 0.0633(2) 0.6091(2) -0.3864(3)
O2 O 0.21703(19) 0.63106(19) -0.2143(3)
O3 O 0.36952(18) 0.46767(19) 0.2202(3)
O4 O 0.26928(19) 0.60038(18) 0.2725(3)
O5 O 0.40113(18) 0.45674(19) 0.8828(3)
O6 O 0.51643(18) 0.33934(18) 0.8105(3)
O7 O 0.45533(19) 0.65928(19) -0.1625(3)
H1 H 0.5078 0.6247 -0.1854
H2 H 0.4654 0.7143 -0.2025
O8 O 0.28320(19) 0.75947(18) 0.0351(3)
H3 H 0.2643 0.7935 -0.0440
H4 H 0.2613 0.7894 0.1105
N1 N 0.1654(2) 0.4746(2) -0.0357(3)
C1 C 0.1452(3) 0.3900(3) 0.0466(4)
H5 H 0.1907 0.3766 0.1445
C2 C 0.0610(3) 0.3215(3) -0.0049(4)
H6 H 0.0502 0.2622 0.0562
C3 C -0.0069(3) 0.3402(3) -0.1456(4)
H7 H -0.0650 0.2942 -0.1830
C4 C 0.0117(3) 0.4282(3) -0.2319(4)
H8 H -0.0339 0.4443 -0.3287
C5 C 0.0989(3) 0.4915(3) -0.1718(4)
C6 C 0.1248(3) 0.5848(3) -0.2669(4)
C7 C 0.3183(3) 0.5187(3) 0.3177(4)
C8 C 0.3142(3) 0.4811(3) 0.4872(4)
H9 H 0.2391 0.4961 0.5192
H10 H 0.3696 0.5198 0.5597
C9 C 0.3377(3) 0.3677(3) 0.5121(4)
H11 H 0.4139 0.3524 0.4846
H12 H 0.2837 0.3282 0.4386
C10 C 0.3288(3) 0.3345(3) 0.6862(4)
H13 H 0.2551 0.3556 0.7171
H14 H 0.3331 0.2594 0.6930
C11 C 0.4202(3) 0.3799(3) 0.8016(4)
Er1_2 Er 0.335321(11) 0.591503(11) 1.010551(16)
Er1B Er 0.664679(11) 0.408497(11) 0.989449(16)
O5_2 O 0.40113(18) 0.45674(19) -0.1172(3)
O6B O 0.48357(18) 0.66066(18) 0.1895(3)
loop_
_geom_bond_atom_site_label_1
_geom_bond_atom_site_label_2
_geom_bond_site_symmetry_1
_geom_bond_site_symmetry_2
Er1 O2 1_555 1_555
O1 C6 1_555 1_555
O2 C6 1_555 1_555
O3 Er1 1_555 1_555
O4 Er1 1_555 1_555
O5 C11 1_555 1_555
O6 C11 1_555 1_555
O7 Er1 1_555 1_555
H1 O7 1_555 1_555
H2 O7 1_555 1_555
O8 Er1 1_555 1_555
H3 O8 1_555 1_555
H4 O8 1_555 1_555
N1 Er1 1_555 1_555
C1 N1 1_555 1_555
H5 C1 1_555 1_555
C2 C1 1_555 1_555
H6 C2 1_555 1_555
C3 C2 1_555 1_555
H7 C3 1_555 1_555
C4 C3 1_555 1_555
H8 C4 1_555 1_555
C5 N1 1_555 1_555
C6 C5 1_555 1_555
C7 O3 1_555 1_555
C8 C7 1_555 1_555
H9 C8 1_555 1_555
H10 C8 1_555 1_555
C9 C8 1_555 1_555
H11 C9 1_555 1_555
H12 C9 1_555 1_555
C10 C9 1_555 1_555
H13 C10 1_555 1_555
H14 C10 1_555 1_555
C11 C10 1_555 1_555
Er1_2 O5 1_555 1_555
Er1B O6 1_555 1_555
O5_2 Er1 1_555 1_555
O6B Er1 1_555 1_555
O4 C7 1_555 1_555
C4 C5 1_555 1_555

#END
