
#######################################################################
#
#                 Cambridge Crystallographic Data Centre
#                                CCDC 
#
#######################################################################
#
# If this CIF has been generated from an entry in the Cambridge 
# Structural Database, then it will include bibliographic, chemical, 
# crystal, experimental, refinement or atomic coordinate data resulting 
# from the CCDC's data processing and validation procedures.
#
#######################################################################

data_CIQMEW
_symmetry_cell_setting           monoclinic
_symmetry_space_group_name_H-M   'P 21/c'
_symmetry_Int_Tables_number      14
_space_group_name_Hall           '-P 2ybc'
loop_
_symmetry_equiv_pos_site_id
_symmetry_equiv_pos_as_xyz
1 x,y,z
2 -x,1/2+y,1/2-z
3 -x,-y,-z
4 x,1/2-y,1/2+z
_cell_length_a                   11.9132(7)
_cell_length_b                   13.2782(8)
_cell_length_c                   8.4139(5)
_cell_angle_alpha                90
_cell_angle_beta                 96.390(2)
_cell_angle_gamma                90
_cell_volume                     1322.69
loop_
_atom_site_label
_atom_site_type_symbol
_atom_site_fract_x
_atom_site_fract_y
_atom_site_fract_z
Tb1 Tb 0.335287(8) 0.591508(7) 0.011818(10)
O1 O 0.05804(14) 0.60849(11) -0.38368(19)
O2 O 0.21353(12) 0.63008(11) -0.21393(16)
O3 O 0.36810(12) 0.46753(10) 0.22407(15)
O4 O 0.26928(13) 0.60011(10) 0.27807(17)
O5 O 0.40223(12) 0.45533(10) 0.88222(16)
O6 O 0.51483(12) 0.33765(10) 0.80684(17)
O7 O 0.45752(12) 0.65896(10) -0.16429(17)
H1 H 0.5100 0.6244 -0.1872
H2 H 0.4675 0.7140 -0.2044
O8 O 0.28049(13) 0.76084(10) 0.03639(16)
H3 H 0.2616 0.7949 -0.0428
H4 H 0.2585 0.7908 0.1118
N1 N 0.16233(14) 0.47371(13) -0.03619(19)
C1 C 0.14217(19) 0.38918(16) 0.0438(3)
H5 H 0.1870 0.3762 0.1422
C2 C 0.05929(19) 0.31996(16) -0.0098(3)
H6 H 0.0490 0.2604 0.0495
C3 C -0.00794(18) 0.33920(16) -0.1507(3)
H7 H -0.0658 0.2934 -0.1898
C4 C 0.01044(19) 0.42652(16) -0.2341(3)
H8 H -0.0348 0.4419 -0.3313
C5 C 0.09576(17) 0.49070(15) -0.1735(2)
C6 C 0.12144(19) 0.58380(14) -0.2657(2)
C7 C 0.31711(17) 0.51787(15) 0.3215(2)
C8 C 0.3126(2) 0.48118(16) 0.4896(2)
H9 H 0.2372 0.4972 0.5220
H10 H 0.3692 0.5187 0.5616
C9 C 0.33417(18) 0.36892(17) 0.5136(2)
H11 H 0.4106 0.3527 0.4855
H12 H 0.2788 0.3307 0.4404
C10 C 0.32496(17) 0.33556(15) 0.6863(2)
H13 H 0.2513 0.3575 0.7182
H14 H 0.3280 0.2611 0.6923
C11 C 0.41870(17) 0.37912(15) 0.8003(2)
Tb1_2 Tb 0.335287(8) 0.591508(7) 1.011818(10)
Tb1B Tb 0.664713(8) 0.408492(7) 0.988182(10)
O5_2 O 0.40223(12) 0.45533(10) -0.11778(16)
O6B O 0.48517(12) 0.66235(10) 0.19316(17)
loop_
_geom_bond_atom_site_label_1
_geom_bond_atom_site_label_2
_geom_bond_site_symmetry_1
_geom_bond_site_symmetry_2
Tb1 O2 1_555 1_555
O1 C6 1_555 1_555
O2 C6 1_555 1_555
O3 Tb1 1_555 1_555
O4 Tb1 1_555 1_555
O5 C11 1_555 1_555
O6 C11 1_555 1_555
O7 Tb1 1_555 1_555
H1 O7 1_555 1_555
H2 O7 1_555 1_555
O8 Tb1 1_555 1_555
H3 O8 1_555 1_555
H4 O8 1_555 1_555
N1 Tb1 1_555 1_555
C1 N1 1_555 1_555
H5 C1 1_555 1_555
C2 C1 1_555 1_555
H6 C2 1_555 1_555
C3 C2 1_555 1_555
H7 C3 1_555 1_555
C4 C3 1_555 1_555
H8 C4 1_555 1_555
C5 N1 1_555 1_555
C6 C5 1_555 1_555
C7 O3 1_555 1_555
C8 C7 1_555 1_555
H9 C8 1_555 1_555
H10 C8 1_555 1_555
C9 C8 1_555 1_555
H11 C9 1_555 1_555
H12 C9 1_555 1_555
C10 C9 1_555 1_555
H13 C10 1_555 1_555
H14 C10 1_555 1_555
C11 C10 1_555 1_555
Tb1_2 O5 1_555 1_555
Tb1B O6 1_555 1_555
O5_2 Tb1 1_555 1_555
O6B Tb1 1_555 1_555
O4 C7 1_555 1_555
C4 C5 1_555 1_555

#END
