
#######################################################################
#
#                 Cambridge Crystallographic Data Centre
#                                CCDC 
#
#######################################################################
#
# If this CIF has been generated from an entry in the Cambridge 
# Structural Database, then it will include bibliographic, chemical, 
# crystal, experimental, refinement or atomic coordinate data resulting 
# from the CCDC's data processing and validation procedures.
#
#######################################################################

data_CIQQOK
_symmetry_cell_setting           monoclinic
_symmetry_space_group_name_H-M   'P 21/c'
_symmetry_Int_Tables_number      14
_space_group_name_Hall           '-P 2ybc'
loop_
_symmetry_equiv_pos_site_id
_symmetry_equiv_pos_as_xyz
1 x,y,z
2 -x,1/2+y,1/2-z
3 -x,-y,-z
4 x,1/2-y,1/2+z
_cell_length_a                   11.9099(2)
_cell_length_b                   13.3448(1)
_cell_length_c                   8.4333(3)
_cell_angle_alpha                90
_cell_angle_beta                 96.2950(10)
_cell_angle_gamma                90
_cell_volume                     1332.27
loop_
_atom_site_label
_atom_site_type_symbol
_atom_site_fract_x
_atom_site_fract_y
_atom_site_fract_z
Gd1 Gd 0.335649(9) 0.591494(7) 0.011971(12)
O1 O 0.05610(16) 0.60885(13) -0.3826(2)
O2 O 0.21202(14) 0.63046(12) -0.21393(19)
O3 O 0.36743(13) 0.46744(11) 0.22500(18)
O4 O 0.26888(15) 0.59971(11) 0.2794(2)
O5 O 0.40356(14) 0.45451(12) 0.88237(18)
O6 O 0.51398(13) 0.33624(11) 0.8050(2)
O7 O 0.45899(14) 0.65857(12) -0.16482(19)
H1 H 0.5115 0.6240 -0.1878
H2 H 0.4690 0.7136 -0.2049
O8 O 0.27962(15) 0.76112(12) 0.03651(19)
H3 H 0.2607 0.7952 -0.0426
H4 H 0.2577 0.7910 0.1119
N1 N 0.16137(15) 0.47411(15) -0.0368(2)
C1 C 0.1420(2) 0.38933(18) 0.0422(3)
H5 H 0.1871 0.3762 0.1400
C2 C 0.0596(2) 0.31994(18) -0.0116(3)
H6 H 0.0495 0.2605 0.0472
C3 C -0.0074(2) 0.33912(18) -0.1524(3)
H7 H -0.0648 0.2932 -0.1918
C4 C 0.0101(2) 0.42637(18) -0.2355(3)
H8 H -0.0350 0.4414 -0.3326
C5 C 0.09479(19) 0.49103(17) -0.1741(3)
C6 C 0.1201(2) 0.58413(16) -0.2656(3)
C7 C 0.31681(19) 0.51807(16) 0.3227(3)
C8 C 0.3123(2) 0.48126(18) 0.4906(3)
H9 H 0.2373 0.4978 0.5236
H10 H 0.3696 0.5180 0.5621
C9 C 0.33266(19) 0.36901(18) 0.5140(2)
H11 H 0.4088 0.3521 0.4852
H12 H 0.2766 0.3316 0.4414
C10 C 0.32360(19) 0.33595(17) 0.6866(3)
H13 H 0.2504 0.3586 0.7192
H14 H 0.3256 0.2619 0.6925
C11 C 0.41870(19) 0.37851(16) 0.8002(3)
Gd1_2 Gd 0.335649(9) 0.591494(7) 1.011971(12)
Gd1B Gd 0.664351(9) 0.408506(7) 0.988029(12)
O5_2 O 0.40356(14) 0.45451(12) -0.11763(18)
O6B O 0.48602(13) 0.66376(11) 0.1950(2)
loop_
_geom_bond_atom_site_label_1
_geom_bond_atom_site_label_2
_geom_bond_site_symmetry_1
_geom_bond_site_symmetry_2
Gd1 O2 1_555 1_555
O1 C6 1_555 1_555
O2 C6 1_555 1_555
O3 Gd1 1_555 1_555
O4 Gd1 1_555 1_555
O5 C11 1_555 1_555
O6 C11 1_555 1_555
O7 Gd1 1_555 1_555
H1 O7 1_555 1_555
H2 O7 1_555 1_555
O8 Gd1 1_555 1_555
H3 O8 1_555 1_555
H4 O8 1_555 1_555
N1 Gd1 1_555 1_555
C1 N1 1_555 1_555
H5 C1 1_555 1_555
C2 C1 1_555 1_555
H6 C2 1_555 1_555
C3 C2 1_555 1_555
H7 C3 1_555 1_555
C4 C3 1_555 1_555
H8 C4 1_555 1_555
C5 N1 1_555 1_555
C6 C5 1_555 1_555
C7 O3 1_555 1_555
C8 C7 1_555 1_555
H9 C8 1_555 1_555
H10 C8 1_555 1_555
C9 C8 1_555 1_555
H11 C9 1_555 1_555
H12 C9 1_555 1_555
C10 C9 1_555 1_555
H13 C10 1_555 1_555
H14 C10 1_555 1_555
C11 C10 1_555 1_555
Gd1_2 O5 1_555 1_555
Gd1B O6 1_555 1_555
O5_2 Gd1 1_555 1_555
O6B Gd1 1_555 1_555
O4 C7 1_555 1_555
C4 C5 1_555 1_555

#END
