
#######################################################################
#
#                 Cambridge Crystallographic Data Centre
#                                CCDC 
#
#######################################################################
#
# If this CIF has been generated from an entry in the Cambridge 
# Structural Database, then it will include bibliographic, chemical, 
# crystal, experimental, refinement or atomic coordinate data resulting 
# from the CCDC's data processing and validation procedures.
#
#######################################################################

data_CIQRAX
_symmetry_cell_setting           monoclinic
_symmetry_space_group_name_H-M   'P 21/c'
_symmetry_Int_Tables_number      14
_space_group_name_Hall           '-P 2ybc'
loop_
_symmetry_equiv_pos_site_id
_symmetry_equiv_pos_as_xyz
1 x,y,z
2 -x,1/2+y,1/2-z
3 -x,-y,-z
4 x,1/2-y,1/2+z
_cell_length_a                   11.9640(3)
_cell_length_b                   13.2553(5)
_cell_length_c                   8.4017(4)
_cell_angle_alpha                90
_cell_angle_beta                 96.4550(10)
_cell_angle_gamma                90
_cell_volume                     1323.95
loop_
_atom_site_label
_atom_site_type_symbol
_atom_site_fract_x
_atom_site_fract_y
_atom_site_fract_z
Dy1 Dy 0.334996(10) 0.591628(10) 0.011240(14)
O1 O 0.05932(18) 0.60873(16) -0.3847(3)
O2 O 0.21440(16) 0.63034(15) -0.2135(2)
O3 O 0.36847(16) 0.46792(15) 0.2230(2)
O4 O 0.26915(16) 0.60028(14) 0.2764(2)
O5 O 0.40181(16) 0.45562(15) 0.8824(2)
O6 O 0.51564(15) 0.33823(15) 0.8086(2)
O7 O 0.45701(16) 0.65912(15) -0.1634(2)
H1 H 0.5095 0.6246 -0.1863
H2 H 0.4670 0.7142 -0.2034
O8 O 0.28099(16) 0.76068(15) 0.0359(2)
H3 H 0.2621 0.7948 -0.0432
H4 H 0.2590 0.7906 0.1113
N1 N 0.16318(18) 0.47418(19) -0.0354(3)
C1 C 0.1434(2) 0.3895(2) 0.0456(4)
H5 H 0.1883 0.3766 0.1442
C2 C 0.0605(3) 0.3202(2) -0.0082(4)
H6 H 0.0511 0.2602 0.0508
C3 C -0.0077(2) 0.3394(2) -0.1478(4)
H7 H -0.0662 0.2939 -0.1855
C4 C 0.0107(2) 0.4267(2) -0.2328(4)
H8 H -0.0349 0.4421 -0.3298
C5 C 0.0965(2) 0.4908(2) -0.1735(3)
C6 C 0.1224(2) 0.5840(2) -0.2659(3)
C7 C 0.3171(2) 0.5184(2) 0.3205(3)
C8 C 0.3131(3) 0.4812(2) 0.4887(3)
H9 H 0.2380 0.4967 0.5212
H10 H 0.3693 0.5190 0.5608
C9 C 0.3354(2) 0.3686(2) 0.5127(3)
H11 H 0.4118 0.3528 0.4849
H12 H 0.2807 0.3300 0.4392
C10 C 0.3262(2) 0.3348(2) 0.6867(3)
H13 H 0.2526 0.3562 0.7183
H14 H 0.3300 0.2603 0.6929
C11 C 0.4192(2) 0.3794(2) 0.8009(3)
Dy1_2 Dy 0.334996(10) 0.591628(10) 1.011240(14)
Dy1B Dy 0.665004(10) 0.408372(10) 0.988760(14)
O5_2 O 0.40181(16) 0.45562(15) -0.1176(2)
O6B O 0.48436(15) 0.66177(15) 0.1914(2)
loop_
_geom_bond_atom_site_label_1
_geom_bond_atom_site_label_2
_geom_bond_site_symmetry_1
_geom_bond_site_symmetry_2
Dy1 O2 1_555 1_555
O1 C6 1_555 1_555
O2 C6 1_555 1_555
O3 Dy1 1_555 1_555
O4 Dy1 1_555 1_555
O5 C11 1_555 1_555
O6 C11 1_555 1_555
O7 Dy1 1_555 1_555
H1 O7 1_555 1_555
H2 O7 1_555 1_555
O8 Dy1 1_555 1_555
H3 O8 1_555 1_555
H4 O8 1_555 1_555
N1 Dy1 1_555 1_555
C1 N1 1_555 1_555
H5 C1 1_555 1_555
C2 C1 1_555 1_555
H6 C2 1_555 1_555
C3 C2 1_555 1_555
H7 C3 1_555 1_555
C4 C3 1_555 1_555
H8 C4 1_555 1_555
C5 N1 1_555 1_555
C6 C5 1_555 1_555
C7 O3 1_555 1_555
C8 C7 1_555 1_555
H9 C8 1_555 1_555
H10 C8 1_555 1_555
C9 C8 1_555 1_555
H11 C9 1_555 1_555
H12 C9 1_555 1_555
C10 C9 1_555 1_555
H13 C10 1_555 1_555
H14 C10 1_555 1_555
C11 C10 1_555 1_555
Dy1_2 O5 1_555 1_555
Dy1B O6 1_555 1_555
O5_2 Dy1 1_555 1_555
O6B Dy1 1_555 1_555
O4 C7 1_555 1_555
C4 C5 1_555 1_555

#END
