
#######################################################################
#
#                 Cambridge Crystallographic Data Centre
#                                CCDC 
#
#######################################################################
#
# If this CIF has been generated from an entry in the Cambridge 
# Structural Database, then it will include bibliographic, chemical, 
# crystal, experimental, refinement or atomic coordinate data resulting 
# from the CCDC's data processing and validation procedures.
#
#######################################################################

data_CIQYUX
_symmetry_cell_setting           tetragonal
_symmetry_space_group_name_H-M   'I 41/a'
_symmetry_Int_Tables_number      88
_space_group_name_Hall           '-I 4ad'
loop_
_symmetry_equiv_pos_site_id
_symmetry_equiv_pos_as_xyz
1 x,y,z
2 3/4-y,1/4+x,1/4+z
3 1/2+x,1/2+y,1/2+z
4 1/4-y,3/4+x,3/4+z
5 1/4+y,1/4-x,1/4+z
6 1/2-x,-y,1/2+z
7 3/4+y,3/4-x,3/4+z
8 -x,1/2-y,z
9 -x,-y,-z
10 1/4+y,3/4-x,3/4-z
11 1/2-x,1/2-y,1/2-z
12 3/4+y,1/4-x,1/4-z
13 3/4-y,3/4+x,3/4-z
14 1/2+x,y,1/2-z
15 1/4-y,1/4+x,1/4-z
16 x,1/2+y,-z
_cell_length_a                   23.705(3)
_cell_length_b                   23.705(3)
_cell_length_c                   11.409(2)
_cell_angle_alpha                90
_cell_angle_beta                 90
_cell_angle_gamma                90
_cell_volume                     6411.03
loop_
_atom_site_label
_atom_site_type_symbol
_atom_site_fract_x
_atom_site_fract_y
_atom_site_fract_z
Co1 Co 0.77774(4) 0.44691(4) 0.01999(9)
Co2 Co 0.78893(4) 0.37755(4) 0.24415(9)
Co3 Co 1.0000 0.5000 0.0000
O1 O 0.79593(19) 0.52921(18) 0.0910(4)
O2 O 0.7127(2) 0.5447(2) 0.1732(5)
O3 O 0.84810(19) 0.42230(18) 0.1335(4)
O4 O 0.92059(19) 0.4739(2) 0.0776(5)
O5 O 0.94059(19) 0.5323(2) -0.1253(5)
O6 O 0.8881(2) 0.5303(2) -0.2882(5)
O7 O 0.9071(2) 0.5984(2) 0.0963(5)
O8 O 0.9978(2) 0.5727(3) 0.0927(6)
O9 O 0.83145(18) 0.47801(18) -0.0982(4)
H1 H 0.8575 0.4490 -0.1269
C1 C 0.7604(3) 0.5615(3) 0.1415(7)
C2 C 0.7753(5) 0.6219(4) 0.1618(10)
H2 H 0.7696 0.6311 0.2428
H3 H 0.7518 0.6455 0.1139
H4 H 0.8142 0.6279 0.1416
C3 C 0.8999(3) 0.4285(3) 0.1173(7)
C4 C 0.9392(3) 0.3796(4) 0.1456(9)
H5 H 0.9305 0.3651 0.2221
H6 H 0.9776 0.3925 0.1440
H7 H 0.9342 0.3502 0.0885
C5 C 0.9340(3) 0.5261(3) -0.2382(7)
C6 C 0.9855(4) 0.5135(5) -0.3097(9)
H8 H 0.9878 0.5397 -0.3739
H9 H 0.9831 0.4758 -0.3397
H10 H 1.0185 0.5171 -0.2615
C7 C 0.9584(4) 0.6051(4) 0.1223(9)
C8 C 0.9732(6) 0.6555(7) 0.1962(19)
H11 H 1.0132 0.6565 0.2088
H12 H 0.9541 0.6529 0.2703
H13 H 0.9616 0.6893 0.1566
Co1H Co 1.22226(4) 0.55309(4) -0.01999(9)
Co1D Co 0.69691(4) 0.47226(4) 0.26999(9)
Co1C Co 0.80309(4) 0.52774(4) -0.23001(9)
Co1K Co 1.19691(4) 0.47226(4) 0.23001(9)
Co2H Co 1.21107(4) 0.62245(4) -0.24415(9)
Co2C Co 0.87245(4) 0.53893(4) -0.00585(9)
Co2K Co 1.12755(4) 0.46107(4) 0.00585(9)
Co2E Co 0.71107(4) 0.62245(4) -0.25585(9)
O1C O 0.72079(18) 0.54593(19) -0.1590(4)
O1D O 0.77921(18) 0.45407(19) 0.3410(4)
O1H O 1.20407(19) 0.47079(18) -0.0910(4)
O1L O 1.22079(18) 0.54593(19) -0.3410(4)
O2C O 0.7053(2) 0.4627(2) -0.0768(5)
O2K O 1.2947(2) 0.5373(2) 0.0768(5)
O3H O 1.15190(19) 0.57770(18) -0.1335(4)
O4H O 1.07941(19) 0.5261(2) -0.0776(5)
O4D O 0.7239(2) 0.32941(19) 0.3276(5)
O4L O 1.2761(2) 0.67059(19) -0.3276(5)
O5H O 1.05941(19) 0.4677(2) 0.1253(5)
O5D O 0.7823(2) 0.30941(19) 0.1247(5)
O5L O 1.2177(2) 0.69059(19) -0.1247(5)
O6H O 1.1119(2) 0.4697(2) 0.2882(5)
O6D O 0.7803(2) 0.3619(2) -0.0382(5)
O6L O 1.2197(2) 0.6381(2) 0.0382(5)
O7H O 1.0929(2) 0.4016(2) -0.0963(5)
O7D O 0.8484(2) 0.3429(2) 0.3463(5)
O7L O 1.1516(2) 0.6571(2) -0.3463(5)
O8H O 1.0022(2) 0.4273(3) -0.0927(6)
O9D O 0.72801(18) 0.41855(18) 0.1518(4)
O9H O 1.16855(18) 0.52199(18) 0.0982(4)
O9L O 1.27199(18) 0.58145(18) -0.1518(4)
H1D H 0.6990 0.3925 0.1231
H1H H 1.1425 0.5510 0.1269
H1L H 1.3010 0.6075 -0.1231
C1C C 0.6885(3) 0.5104(3) -0.1085(7)
C2C C 0.6281(4) 0.5253(5) -0.0882(10)
H2C H 0.6189 0.5196 -0.0072
H3C H 0.6045 0.5018 -0.1361
H4C H 0.6221 0.5642 -0.1084
C3H C 1.1001(3) 0.5715(3) -0.1173(7)
C4H C 1.0608(3) 0.6204(4) -0.1456(9)
H5H H 1.0695 0.6349 -0.2221
H6H H 1.0224 0.6075 -0.1440
H7H H 1.0658 0.6498 -0.0885
C5H C 1.0660(3) 0.4739(3) 0.2382(7)
C6H C 1.0145(4) 0.4865(5) 0.3097(9)
H8H H 1.0122 0.4603 0.3739
H9H H 1.0169 0.5242 0.3397
H10H H 0.9815 0.4829 0.2615
C7H C 1.0416(4) 0.3949(4) -0.1223(9)
C8H C 1.0268(6) 0.3445(7) -0.1962(19)
H11H H 0.9868 0.3435 -0.2088
H12H H 1.0459 0.3471 -0.2703
H13H H 1.0384 0.3107 -0.1566
O10 O 1.1317(6) 0.6189(6) 0.2288(14)
O11? O 1.0985(8) 0.6139(7) 0.1723(18)
O12? O 1.128(2) 0.669(2) 0.246(7)
loop_
_geom_bond_atom_site_label_1
_geom_bond_atom_site_label_2
_geom_bond_site_symmetry_1
_geom_bond_site_symmetry_2
Co1 O1 1_555 1_555
Co2 O3 1_555 1_555
Co3 O4 1_555 1_555
O1 C1 1_555 1_555
O2 C1 1_555 1_555
O3 Co1 1_555 1_555
O4 C3 1_555 1_555
O5 Co3 1_555 1_555
O6 C5 1_555 1_555
O7 C7 1_555 1_555
O8 Co3 1_555 1_555
O9 Co1 1_555 1_555
H1 O9 1_555 1_555
C1 C2 1_555 1_555
C2 H2 1_555 1_555
H3 C2 1_555 1_555
H4 C2 1_555 1_555
C3 O3 1_555 1_555
C4 C3 1_555 1_555
H5 C4 1_555 1_555
H6 C4 1_555 1_555
H7 C4 1_555 1_555
C5 O5 1_555 1_555
C6 C5 1_555 1_555
H8 C6 1_555 1_555
H9 C6 1_555 1_555
H10 C6 1_555 1_555
C7 O8 1_555 1_555
C8 C7 1_555 1_555
H11 C8 1_555 1_555
H12 C8 1_555 1_555
H13 C8 1_555 1_555
Co1H O1H 1_555 1_555
Co1D O2 1_555 1_555
Co1C O6 1_555 1_555
Co1K O6H 1_555 1_555
Co2H O1L 1_555 1_555
Co2C O1 1_555 1_555
Co2K O1H 1_555 1_555
Co2E O1C 1_555 1_555
O1C Co1C 1_555 1_555
O1D Co2 1_555 1_555
O2C Co1 1_555 1_555
O2K Co1H 1_555 1_555
O3H Co1H 1_555 1_555
O4H Co3 1_555 1_555
O4D Co2 1_555 1_555
O4L Co2H 1_555 1_555
O5H Co3 1_555 1_555
O5D Co2 1_555 1_555
O5L Co2H 1_555 1_555
O6H C5H 1_555 1_555
O6D Co1 1_555 1_555
O6L Co1H 1_555 1_555
O7H Co2K 1_555 1_555
O7D Co2 1_555 1_555
O7L Co2H 1_555 1_555
O8H Co3 1_555 1_555
O9D Co1 1_555 1_555
O9H Co1H 1_555 1_555
O9L Co1H 1_555 1_555
H1D O9D 1_555 1_555
H1H O9H 1_555 1_555
H1L O9L 1_555 1_555
C1C O1C 1_555 1_555
C2C C1C 1_555 1_555
H2C C2C 1_555 1_555
H3C C2C 1_555 1_555
H4C C2C 1_555 1_555
C3H O3H 1_555 1_555
C4H C3H 1_555 1_555
H5H C4H 1_555 1_555
H6H C4H 1_555 1_555
H7H C4H 1_555 1_555
C5H O5H 1_555 1_555
C6H C5H 1_555 1_555
H8H C6H 1_555 1_555
H9H C6H 1_555 1_555
H10H C6H 1_555 1_555
C7H O7H 1_555 1_555
C8H C7H 1_555 1_555
H11H C8H 1_555 1_555
H12H C8H 1_555 1_555
H13H C8H 1_555 1_555
Co2 O9D 1_555 1_555
O4 Co2C 1_555 1_555
O5 Co2C 1_555 1_555
O7 Co2C 1_555 1_555
O9 Co1C 1_555 1_555
O9 Co2C 1_555 1_555
Co1D O1D 1_555 1_555
Co1D O9D 1_555 1_555
Co1K O9H 1_555 1_555
Co2H O3H 1_555 1_555
Co2H O9L 1_555 1_555
Co2K O4H 1_555 1_555
Co2K O5H 1_555 1_555
Co2K O9H 1_555 1_555
O2C C1C 1_555 1_555
O4H C3H 1_555 1_555
O8H C7H 1_555 1_555

#END
