
#######################################################################
#
#                 Cambridge Crystallographic Data Centre
#                                CCDC 
#
#######################################################################
#
# If this CIF has been generated from an entry in the Cambridge 
# Structural Database, then it will include bibliographic, chemical, 
# crystal, experimental, refinement or atomic coordinate data resulting 
# from the CCDC's data processing and validation procedures.
#
#######################################################################

data_CIRBAH
_symmetry_cell_setting           triclinic
_symmetry_space_group_name_H-M   'P -1'
_symmetry_Int_Tables_number      2
_space_group_name_Hall           '-P 1'
loop_
_symmetry_equiv_pos_site_id
_symmetry_equiv_pos_as_xyz
1 x,y,z
2 -x,-y,-z
_cell_length_a                   15.987(3)
_cell_length_b                   16.587(3)
_cell_length_c                   19.414(3)
_cell_angle_alpha                82.378(4)
_cell_angle_beta                 80.176(3)
_cell_angle_gamma                85.986(4)
_cell_volume                     5021.91
loop_
_atom_site_label
_atom_site_type_symbol
_atom_site_fract_x
_atom_site_fract_y
_atom_site_fract_z
Mn1 Mn 0.09842(3) 0.81309(3) 0.21284(3)
Mn2 Mn 0.39545(3) 0.69884(3) 0.28864(3)
Mn3 Mn 0.00902(3) 1.13885(3) 0.21871(3)
Mn4 Mn 0.18686(3) 0.63459(3) 0.33569(3)
Mn5 Mn 0.48943(3) 0.38446(3) 0.26551(3)
Mn6 Mn 0.30993(3) 0.87189(3) 0.16590(3)
P1 P 0.35347(5) 0.50863(5) 0.35801(4)
P2 P 0.14494(5) 1.00045(5) 0.14134(4)
P3 P 0.22850(5) 0.81022(5) 0.32989(4)
P4 P 0.26562(5) 0.69750(5) 0.17118(4)
S1 S 0.35929(6) 0.60897(6) 0.61851(5)
S2 S 0.14055(6) 0.87102(6) -0.10594(5)
S3 S 0.29698(7) 1.00044(6) 0.52698(5)
S4 S 0.21721(7) 0.53613(7) -0.05420(6)
N1 N 0.41091(18) 0.34793(18) 0.18740(16)
N2 N 0.45957(18) 0.25375(18) 0.30061(16)
N3 N 0.08851(18) 1.17425(18) 0.29566(15)
N4 N 0.04503(18) 1.26893(18) 0.18080(16)
N5 N 0.02661(19) 0.74394(17) 0.15471(17)
N6 N -0.03204(18) 0.79296(19) 0.28181(17)
N7 N 0.38835(18) 0.85757(17) 0.05907(15)
N8 N 0.43939(17) 0.91971(16) 0.16590(16)
N9 N 0.11121(18) 0.64596(17) 0.44498(16)
N10 N 0.05805(17) 0.58762(16) 0.33703(15)
N11 N 0.52800(18) 0.72410(18) 0.22393(16)
N12 N 0.46196(18) 0.76323(17) 0.35352(16)
C1 C 0.37205(19) 0.48809(19) 0.44836(17)
C2 C 0.3623(2) 0.5493(2) 0.49245(18)
H1 H 0.3463 0.6022 0.4752
C3 C 0.3761(2) 0.5325(2) 0.56135(19)
C4 C 0.3992(2) 0.4541(2) 0.5885(2)
H2 H 0.4083 0.4429 0.6350
C5 C 0.4085(3) 0.3929(2) 0.5456(2)
H3 H 0.4246 0.3402 0.5630
C6 C 0.3941(2) 0.4097(2) 0.47668(19)
H4 H 0.3992 0.3676 0.4488
C7 C 0.1285(2) 1.01301(19) 0.05065(18)
C8 C 0.1379(2) 0.9458(2) 0.01247(18)
H5 H 0.1527 0.8945 0.0340
C9 C 0.1254(2) 0.9553(2) -0.05691(19)
C10 C 0.1044(3) 1.0315(3) -0.0902(2)
H6 H 0.0957 1.0377 -0.1368
C11 C 0.0967(3) 1.0981(3) -0.0532(2)
H7 H 0.0832 1.1495 -0.0752
C12 C 0.1089(2) 1.0886(2) 0.0164(2)
H8 H 0.1039 1.1340 0.0405
C13 C 0.1954(2) 0.86296(19) 0.40680(17)
C14 C 0.2512(2) 0.9070(2) 0.43318(18)
H9 H 0.3071 0.9108 0.4104
C15 C 0.2246(2) 0.9452(2) 0.49269(19)
C16 C 0.1408(3) 0.9418(3) 0.5264(2)
H10 H 0.1230 0.9677 0.5664
C17 C 0.0845(3) 0.8999(3) 0.5004(3)
H11 H 0.0280 0.8985 0.5222
C18 C 0.1114(2) 0.8599(3) 0.4417(2)
H12 H 0.0731 0.8305 0.4253
C19 C 0.3023(2) 0.6457(2) 0.09442(17)
C20 C 0.2496(2) 0.6132(2) 0.05640(18)
H13 H 0.1910 0.6164 0.0707
C21 C 0.2836(2) 0.5758(2) -0.00304(19)
C22 C 0.3700(3) 0.5688(3) -0.0247(2)
H14 H 0.3921 0.5435 -0.0643
C23 C 0.4231(3) 0.5995(3) 0.0126(2)
H15 H 0.4816 0.5942 -0.0012
C24 C 0.3900(2) 0.6385(3) 0.0708(2)
H16 H 0.4268 0.6605 0.0948
C25 C 0.3881(2) 0.3938(3) 0.1320(2)
H17 H 0.4089 0.4456 0.1200
C26 C 0.3337(3) 0.3678(3) 0.0904(2)
H18 H 0.3199 0.4014 0.0512
C27 C 0.3018(3) 0.2928(3) 0.1083(2)
H19 H 0.2656 0.2749 0.0815
C28 C 0.3233(2) 0.2423(2) 0.1673(2)
C29 C 0.2910(2) 0.1620(3) 0.1909(3)
H20 H 0.2518 0.1424 0.1676
C30 C 0.3170(2) 0.1162(3) 0.2453(2)
H21 H 0.2964 0.0644 0.2587
C31 C 0.3756(2) 0.1439(2) 0.2840(2)
C32 C 0.4040(3) 0.0977(2) 0.3424(2)
H22 H 0.3843 0.0460 0.3580
C33 C 0.4602(3) 0.1282(3) 0.3764(2)
H23 H 0.4813 0.0969 0.4136
C34 C 0.4854(3) 0.2076(2) 0.3539(2)
H24 H 0.5225 0.2290 0.3780
C35 C 0.4059(2) 0.2223(2) 0.26424(19)
C36 C 0.3799(2) 0.2724(2) 0.20500(19)
C37 C 0.1104(3) 1.1275(3) 0.3508(2)
H25 H 0.0885 1.0761 0.3624
C38 C 0.1647(3) 1.1515(3) 0.3927(2)
H26 H 0.1778 1.1171 0.4317
C39 C 0.1980(3) 1.2260(3) 0.3756(2)
H27 H 0.2344 1.2428 0.4029
C40 C 0.1777(2) 1.2776(3) 0.3169(2)
C41 C 0.2098(2) 1.3581(3) 0.2943(3)
H28 H 0.2481 1.3772 0.3187
C42 C 0.1859(3) 1.4052(3) 0.2396(3)
H29 H 0.2071 1.4568 0.2271
C43 C 0.1282(2) 1.3785(2) 0.1992(2)
C44 C 0.1016(3) 1.4254(3) 0.1405(2)
H30 H 0.1214 1.4773 0.1258
C45 C 0.0472(3) 1.3954(3) 0.1050(3)
H31 H 0.0282 1.4266 0.0668
C46 C 0.0202(3) 1.3163(2) 0.1273(2)
H32 H -0.0175 1.2961 0.1030
C47 C 0.0972(2) 1.2993(2) 0.21807(19)
C48 C 0.1216(2) 1.2489(2) 0.27819(18)
C49 C 0.0546(3) 0.7229(2) 0.0908(2)
H33 H 0.1060 0.7421 0.0665
C50 C 0.0103(4) 0.6735(3) 0.0585(3)
H34 H 0.0325 0.6601 0.0138
C51 C -0.0637(4) 0.6453(3) 0.0913(3)
H35 H -0.0932 0.6122 0.0697
C52 C -0.0974(3) 0.6657(3) 0.1593(3)
C53 C -0.1743(3) 0.6391(3) 0.1989(4)
H36 H -0.2068 0.6065 0.1796
C54 C -0.2026(3) 0.6589(3) 0.2632(4)
H37 H -0.2534 0.6386 0.2879
C55 C -0.1556(2) 0.7116(3) 0.2957(3)
C56 C -0.1825(3) 0.7361(3) 0.3614(3)
H38 H -0.2322 0.7166 0.3889
C57 C -0.1365(3) 0.7888(3) 0.3862(3)
H39 H -0.1545 0.8059 0.4303
C58 C -0.0609(3) 0.8168(3) 0.3437(2)
H40 H -0.0303 0.8537 0.3602
C59 C -0.0794(2) 0.7402(2) 0.2569(2)
C60 C -0.0490(2) 0.7165(2) 0.1892(2)
C61 C 0.3631(3) 0.8277(2) 0.0059(2)
H41 H 0.3078 0.8108 0.0120
C62 C 0.4155(3) 0.8207(3) -0.0583(2)
H42 H 0.3960 0.7979 -0.0935
C63 C 0.4952(3) 0.8473(3) -0.0688(2)
H43 H 0.5302 0.8440 -0.1119
C64 C 0.5254(2) 0.8800(2) -0.0152(2)
C65 C 0.6074(3) 0.9136(3) -0.0220(3)
H44 H 0.6451 0.9119 -0.0641
C66 C 0.6314(3) 0.9472(3) 0.0297(3)
H45 H 0.6851 0.9680 0.0231
C67 C 0.5758(2) 0.9517(2) 0.0949(2)
C68 C 0.5960(2) 0.9886(2) 0.1511(3)
H46 H 0.6483 1.0117 0.1469
C69 C 0.5390(2) 0.9903(2) 0.2111(3)
H47 H 0.5515 1.0154 0.2480
C70 C 0.4615(2) 0.9545(2) 0.2175(2)
H48 H 0.4236 0.9550 0.2595
C71 C 0.4951(2) 0.91878(19) 0.1055(2)
C72 C 0.4691(2) 0.8835(2) 0.04868(19)
C73 C 0.1384(3) 0.6725(2) 0.4985(2)
H49 H 0.1939 0.6891 0.4920
C74 C 0.0871(3) 0.6767(3) 0.5641(2)
H50 H 0.1079 0.6973 0.5998
C75 C 0.0064(3) 0.6503(3) 0.5751(2)
H51 H -0.0281 0.6525 0.6186
C76 C -0.0244(2) 0.6199(2) 0.5205(2)
C77 C -0.1063(3) 0.5873(3) 0.5285(3)
H52 H -0.1430 0.5880 0.5712
C78 C -0.1312(3) 0.5558(3) 0.4760(3)
H53 H -0.1848 0.5348 0.4829
C79 C -0.0776(2) 0.5537(2) 0.4092(2)
C80 C -0.0983(2) 0.5178(2) 0.3528(3)
H54 H -0.1505 0.4944 0.3575
C81 C -0.0425(2) 0.5172(2) 0.2915(2)
H55 H -0.0555 0.4927 0.2546
C82 C 0.0346(2) 0.5541(2) 0.2852(2)
H56 H 0.0715 0.5553 0.2426
C83 C 0.0033(2) 0.5867(2) 0.3987(2)
C84 C 0.0304(2) 0.6199(2) 0.45586(19)
C85 C 0.5619(2) 0.7039(2) 0.1610(2)
H57 H 0.5324 0.6693 0.1407
C86 C 0.6388(3) 0.7312(3) 0.1235(2)
H58 H 0.6599 0.7156 0.0793
C87 C 0.6825(2) 0.7813(3) 0.1529(2)
H59 H 0.7335 0.8012 0.1283
C88 C 0.6512(2) 0.8032(2) 0.2202(2)
C89 C 0.6948(2) 0.8532(3) 0.2558(3)
H60 H 0.7460 0.8745 0.2329
C90 C 0.6637(3) 0.8700(3) 0.3211(3)
H61 H 0.6943 0.9016 0.3432
C91 C 0.5844(2) 0.8401(2) 0.3574(2)
C92 C 0.5490(3) 0.8544(3) 0.4258(2)
H62 H 0.5773 0.8854 0.4502
C93 C 0.4739(3) 0.8234(3) 0.4567(2)
H63 H 0.4509 0.8317 0.5027
C94 C 0.4313(2) 0.7786(2) 0.4187(2)
H64 H 0.3791 0.7586 0.4400
C95 C 0.5388(2) 0.7925(2) 0.32259(19)
C96 C 0.5734(2) 0.7730(2) 0.2538(2)
O1 O 0.37917(13) 0.43142(13) 0.32495(12)
O2 O 0.25980(14) 0.53323(14) 0.36184(13)
O3 O 0.40962(14) 0.57865(13) 0.32138(12)
O4 O 0.3429(2) 0.68467(18) 0.57636(17)
O5 O 0.43607(17) 0.60808(19) 0.64919(15)
O6 O 0.28719(18) 0.5833(2) 0.67146(16)
O7 O 0.12047(14) 1.08158(13) 0.16812(12)
O8 O 0.23809(14) 0.97468(14) 0.14079(13)
O9 O 0.08691(14) 0.93426(13) 0.18144(13)
O10 O 0.06294(18) 0.8688(2) -0.13467(17)
O11 O 0.21153(18) 0.8922(2) -0.16137(17)
O12 O 0.1575(2) 0.80005(18) -0.05914(17)
O13 O 0.14725(14) 0.78956(15) 0.30607(12)
O14 O 0.28678(15) 0.86392(14) 0.27675(12)
O15 O 0.27409(13) 0.72789(13) 0.35210(12)
O16 O 0.38075(19) 0.9845(2) 0.48758(18)
O17 O 0.2677(2) 1.08416(19) 0.5202(2)
O18 O 0.2916(2) 0.9657(2) 0.59943(17)
O19 O 0.21843(14) 0.77863(13) 0.14914(12)
O20 O 0.34604(14) 0.72016(14) 0.19556(12)
O21 O 0.20944(15) 0.64236(14) 0.22466(12)
O22 O 0.1319(2) 0.5445(2) -0.01874(17)
O23 O 0.2470(3) 0.4523(2) -0.0582(2)
O24 O 0.2334(2) 0.5848(2) -0.12276(17)
O25 O -0.01931(17) 1.01974(16) 0.27889(15)
O26 O -0.10278(17) 1.19971(19) 0.27989(16)
O27 O 0.60592(16) 0.34289(17) 0.19749(15)
O28 O 0.50765(17) 0.50810(15) 0.21162(15)
Mn3A Mn -0.00902(3) 0.86115(3) -0.21871(3)
Mn5A Mn 0.51057(3) 0.61554(3) 0.73449(3)
O5A O 0.56393(17) 0.39192(19) 0.35081(15)
O10A O -0.06294(18) 1.1312(2) 0.13467(17)
O29 O 0.1827(2) 1.0000(2) -0.27870(19)
O30 O 0.33118(19) 0.4717(2) 0.78517(18)
O31 O 0.3523(2) 0.8159(2) -0.2277(2)
O32 O 0.2749(2) 0.8119(2) 0.6542(2)
O33 O 0.8542(2) 0.3612(2) 0.23789(19)
loop_
_geom_bond_atom_site_label_1
_geom_bond_atom_site_label_2
_geom_bond_site_symmetry_1
_geom_bond_site_symmetry_2
Mn1 N5 1_555 1_555
Mn2 N11 1_555 1_555
Mn3 N3 1_555 1_555
Mn4 N9 1_555 1_555
Mn5 N1 1_555 1_555
Mn6 N7 1_555 1_555
P1 C1 1_555 1_555
P2 C7 1_555 1_555
P3 C13 1_555 1_555
P4 C19 1_555 1_555
S1 C3 1_555 1_555
S2 C9 1_555 1_555
S3 C15 1_555 1_555
S4 C21 1_555 1_555
N1 C25 1_555 1_555
N2 Mn5 1_555 1_555
N3 C37 1_555 1_555
N4 Mn3 1_555 1_555
N5 C49 1_555 1_555
N6 Mn1 1_555 1_555
N7 C61 1_555 1_555
N8 Mn6 1_555 1_555
N9 C73 1_555 1_555
N10 Mn4 1_555 1_555
N11 C85 1_555 1_555
N12 Mn2 1_555 1_555
C1 C2 1_555 1_555
C2 H1 1_555 1_555
C3 C2 1_555 1_555
C4 C3 1_555 1_555
H2 C4 1_555 1_555
C5 C4 1_555 1_555
H3 C5 1_555 1_555
C6 C1 1_555 1_555
H4 C6 1_555 1_555
C7 C8 1_555 1_555
C8 H5 1_555 1_555
C9 C8 1_555 1_555
C10 C9 1_555 1_555
H6 C10 1_555 1_555
C11 C10 1_555 1_555
H7 C11 1_555 1_555
C12 C7 1_555 1_555
H8 C12 1_555 1_555
C13 C14 1_555 1_555
C14 H9 1_555 1_555
C15 C14 1_555 1_555
C16 C15 1_555 1_555
H10 C16 1_555 1_555
C17 C16 1_555 1_555
H11 C17 1_555 1_555
C18 C13 1_555 1_555
H12 C18 1_555 1_555
C19 C20 1_555 1_555
C20 H13 1_555 1_555
C21 C20 1_555 1_555
C22 C21 1_555 1_555
H14 C22 1_555 1_555
C23 C22 1_555 1_555
H15 C23 1_555 1_555
C24 C19 1_555 1_555
H16 C24 1_555 1_555
C25 H17 1_555 1_555
C26 C25 1_555 1_555
H18 C26 1_555 1_555
C27 C26 1_555 1_555
H19 C27 1_555 1_555
C28 C27 1_555 1_555
C29 C28 1_555 1_555
H20 C29 1_555 1_555
C30 C29 1_555 1_555
H21 C30 1_555 1_555
C31 C30 1_555 1_555
C32 C31 1_555 1_555
H22 C32 1_555 1_555
C33 C32 1_555 1_555
H23 C33 1_555 1_555
C34 N2 1_555 1_555
H24 C34 1_555 1_555
C35 N2 1_555 1_555
C36 N1 1_555 1_555
C37 H25 1_555 1_555
C38 C37 1_555 1_555
H26 C38 1_555 1_555
C39 C38 1_555 1_555
H27 C39 1_555 1_555
C40 C39 1_555 1_555
C41 C40 1_555 1_555
H28 C41 1_555 1_555
C42 C41 1_555 1_555
H29 C42 1_555 1_555
C43 C42 1_555 1_555
C44 C43 1_555 1_555
H30 C44 1_555 1_555
C45 C44 1_555 1_555
H31 C45 1_555 1_555
C46 N4 1_555 1_555
H32 C46 1_555 1_555
C47 N4 1_555 1_555
C48 N3 1_555 1_555
C49 H33 1_555 1_555
C50 C49 1_555 1_555
H34 C50 1_555 1_555
C51 C50 1_555 1_555
H35 C51 1_555 1_555
C52 C51 1_555 1_555
C53 C52 1_555 1_555
H36 C53 1_555 1_555
C54 C53 1_555 1_555
H37 C54 1_555 1_555
C55 C54 1_555 1_555
C56 C55 1_555 1_555
H38 C56 1_555 1_555
C57 C56 1_555 1_555
H39 C57 1_555 1_555
C58 N6 1_555 1_555
H40 C58 1_555 1_555
C59 N6 1_555 1_555
C60 N5 1_555 1_555
C61 H41 1_555 1_555
C62 C61 1_555 1_555
H42 C62 1_555 1_555
C63 C62 1_555 1_555
H43 C63 1_555 1_555
C64 C63 1_555 1_555
C65 C64 1_555 1_555
H44 C65 1_555 1_555
C66 C65 1_555 1_555
H45 C66 1_555 1_555
C67 C66 1_555 1_555
C68 C67 1_555 1_555
H46 C68 1_555 1_555
C69 C68 1_555 1_555
H47 C69 1_555 1_555
C70 N8 1_555 1_555
H48 C70 1_555 1_555
C71 N8 1_555 1_555
C72 N7 1_555 1_555
C73 H49 1_555 1_555
C74 C73 1_555 1_555
H50 C74 1_555 1_555
C75 C74 1_555 1_555
H51 C75 1_555 1_555
C76 C75 1_555 1_555
C77 C76 1_555 1_555
H52 C77 1_555 1_555
C78 C77 1_555 1_555
H53 C78 1_555 1_555
C79 C78 1_555 1_555
C80 C79 1_555 1_555
H54 C80 1_555 1_555
C81 C80 1_555 1_555
H55 C81 1_555 1_555
C82 N10 1_555 1_555
H56 C82 1_555 1_555
C83 N10 1_555 1_555
C84 N9 1_555 1_555
C85 H57 1_555 1_555
C86 C85 1_555 1_555
H58 C86 1_555 1_555
C87 C86 1_555 1_555
H59 C87 1_555 1_555
C88 C87 1_555 1_555
C89 C88 1_555 1_555
H60 C89 1_555 1_555
C90 C89 1_555 1_555
H61 C90 1_555 1_555
C91 C90 1_555 1_555
C92 C91 1_555 1_555
H62 C92 1_555 1_555
C93 C92 1_555 1_555
H63 C93 1_555 1_555
C94 N12 1_555 1_555
H64 C94 1_555 1_555
C95 N12 1_555 1_555
C96 N11 1_555 1_555
O1 Mn5 1_555 1_555
O2 Mn4 1_555 1_555
O3 Mn2 1_555 1_555
O4 S1 1_555 1_555
O5 S1 1_555 1_555
O6 S1 1_555 1_555
O7 Mn3 1_555 1_555
O8 Mn6 1_555 1_555
O9 Mn1 1_555 1_555
O10 S2 1_555 1_555
O11 S2 1_555 1_555
O12 S2 1_555 1_555
O13 Mn1 1_555 1_555
O14 Mn6 1_555 1_555
O15 Mn2 1_555 1_555
O16 S3 1_555 1_555
O17 S3 1_555 1_555
O18 S3 1_555 1_555
O19 Mn1 1_555 1_555
O20 Mn2 1_555 1_555
O21 Mn4 1_555 1_555
O22 S4 1_555 1_555
O23 S4 1_555 1_555
O24 S4 1_555 1_555
O25 Mn3 1_555 1_555
O26 Mn3 1_555 1_555
O27 Mn5 1_555 1_555
O28 Mn5 1_555 1_555
Mn3A O10 1_555 1_555
Mn5A O5 1_555 1_555
O5A Mn5 1_555 1_555
O10A Mn3 1_555 1_555
Mn4 O15 1_555 1_555
Mn6 O19 1_555 1_555
P1 O1 1_555 1_555
P1 O2 1_555 1_555
P1 O3 1_555 1_555
P2 O7 1_555 1_555
P2 O8 1_555 1_555
P2 O9 1_555 1_555
P3 O13 1_555 1_555
P3 O14 1_555 1_555
P3 O15 1_555 1_555
P4 O19 1_555 1_555
P4 O20 1_555 1_555
P4 O21 1_555 1_555
C5 C6 1_555 1_555
C11 C12 1_555 1_555
C17 C18 1_555 1_555
C23 C24 1_555 1_555
C28 C36 1_555 1_555
C31 C35 1_555 1_555
C33 C34 1_555 1_555
C35 C36 1_555 1_555
C40 C48 1_555 1_555
C43 C47 1_555 1_555
C45 C46 1_555 1_555
C47 C48 1_555 1_555
C52 C60 1_555 1_555
C55 C59 1_555 1_555
C57 C58 1_555 1_555
C59 C60 1_555 1_555
C64 C72 1_555 1_555
C67 C71 1_555 1_555
C69 C70 1_555 1_555
C71 C72 1_555 1_555
C76 C84 1_555 1_555
C79 C83 1_555 1_555
C81 C82 1_555 1_555
C83 C84 1_555 1_555
C88 C96 1_555 1_555
C91 C95 1_555 1_555
C93 C94 1_555 1_555
C95 C96 1_555 1_555

#END
