
#######################################################################
#
#                 Cambridge Crystallographic Data Centre
#                                CCDC 
#
#######################################################################
#
# If this CIF has been generated from an entry in the Cambridge 
# Structural Database, then it will include bibliographic, chemical, 
# crystal, experimental, refinement or atomic coordinate data resulting 
# from the CCDC's data processing and validation procedures.
#
#######################################################################

data_CIRGEQ
_symmetry_cell_setting           triclinic
_symmetry_space_group_name_H-M   'P -1'
_symmetry_Int_Tables_number      2
_space_group_name_Hall           '-P 1'
loop_
_symmetry_equiv_pos_site_id
_symmetry_equiv_pos_as_xyz
1 x,y,z
2 -x,-y,-z
_cell_length_a                   9.697
_cell_length_b                   10.0396
_cell_length_c                   5.9005
_cell_angle_alpha                95.11
_cell_angle_beta                 105.41
_cell_angle_gamma                115.039
_cell_volume                     488.203
loop_
_atom_site_label
_atom_site_type_symbol
_atom_site_fract_x
_atom_site_fract_y
_atom_site_fract_z
V1 V 0.1103(1) 0.4764(1) 0.2918(1)
Cl1 Cl 0.3516(1) 0.6280(1) 0.5610(1)
Cl2 Cl 0.1604(1) 0.6382(1) 0.0190(1)
Cl3 Cl 0.0133(1) 0.6631(1) 0.4701(1)
Cl4 Cl 0.4012(2) 0.0109(1) -0.3048(2)
N1 N 0.1648(3) 0.3588(3) 0.1770(5)
C1 C 0.2236(4) 0.2774(4) 0.0729(6)
C2 C 0.3085(4) 0.3376(4) -0.0826(6)
H1 H 0.3119(51) 0.4331(50) -0.1033(77)
C3 C 0.3642(4) 0.2553(4) -0.1947(7)
H2 H 0.4112(49) 0.2912(45) -0.2990(74)
C4 C 0.3362(4) 0.1150(4) -0.1537(7)
C5 C 0.2562(5) 0.0554(4) 0.0038(8)
H3 H 0.2458(50) -0.0340(50) 0.0422(76)
C6 C 0.1999(4) 0.1360(4) 0.1180(7)
H4 H 0.1409(46) 0.1006(43) 0.2347(69)
V1A V -0.1103(1) 0.5236(1) -0.2918(1)
V1A_2 V -0.1103(1) 0.5236(1) 0.7082(1)
Cl2A Cl -0.1604(1) 0.3618(1) -0.0190(1)
Cl3A Cl -0.0133(1) 0.3369(1) 0.5299(1)
loop_
_geom_bond_atom_site_label_1
_geom_bond_atom_site_label_2
_geom_bond_site_symmetry_1
_geom_bond_site_symmetry_2
V1 Cl1 1_555 1_555
Cl2 V1 1_555 1_555
Cl3 V1 1_555 1_555
Cl4 C4 1_555 1_555
N1 V1 1_555 1_555
C1 N1 1_555 1_555
C2 C1 1_555 1_555
H1 C2 1_555 1_555
C3 C2 1_555 1_555
H2 C3 1_555 1_555
C4 C3 1_555 1_555
C5 C4 1_555 1_555
H3 C5 1_555 1_555
C6 C1 1_555 1_555
H4 C6 1_555 1_555
V1A Cl2 1_555 1_555
V1A_2 Cl3 1_555 1_555
Cl2A V1 1_555 1_555
Cl3A V1 1_555 1_555
C5 C6 1_555 1_555
V1A Cl2A 1_555 1_555
V1A_2 Cl3A 1_555 1_555

#END
