
#######################################################################
#
#                 Cambridge Crystallographic Data Centre
#                                CCDC 
#
#######################################################################
#
# If this CIF has been generated from an entry in the Cambridge 
# Structural Database, then it will include bibliographic, chemical, 
# crystal, experimental, refinement or atomic coordinate data resulting 
# from the CCDC's data processing and validation procedures.
#
#######################################################################

data_CIRSUR
_symmetry_cell_setting           monoclinic
_symmetry_space_group_name_H-M   'P 21/c'
_symmetry_Int_Tables_number      14
_space_group_name_Hall           '-P 2ybc'
loop_
_symmetry_equiv_pos_site_id
_symmetry_equiv_pos_as_xyz
1 x,y,z
2 x,1/2-y,1/2+z
3 -x,-y,-z
4 -x,1/2+y,1/2-z
_cell_length_a                   5.5362(2)
_cell_length_b                   12.8676(5)
_cell_length_c                   15.4337(5)
_cell_angle_alpha                90
_cell_angle_beta                 99.2790(10)
_cell_angle_gamma                90
_cell_volume                     1085.07
loop_
_atom_site_label
_atom_site_type_symbol
_atom_site_fract_x
_atom_site_fract_y
_atom_site_fract_z
Fe1 Fe -0.61186(5) 0.03357(2) 0.09076(2)
P1 P -0.09980(10) 0.12016(4) 0.17583(3)
P2 P -0.10671(10) -0.10132(4) 0.11290(3)
O1 O -0.3233(3) 0.14325(11) 0.10803(9)
O2 O 0.1459(3) 0.13425(11) 0.14760(10)
O3 O -0.1238(3) 0.18421(12) 0.25888(10)
O4 O -0.3156(3) -0.06727(11) 0.04185(9)
O5 O -1.1494(3) 0.08967(11) -0.09234(10)
O6 O -0.1569(3) -0.21440(11) 0.13702(10)
O7 O -0.3916(3) -0.02148(11) 0.21864(10)
C3 C 0.0357(4) -0.0445(2) 0.29027(14)
C4 C -0.1369(4) -0.01636(15) 0.20639(13)
H8 H 0.1864 -0.0346 0.2833
H9 H -0.0042 -0.0043 0.3400
H10 H 0.0230 -0.1093 0.3053
H11 H 0.0094 0.2221 0.3007
H12 H -0.4048 -0.0810 0.2421
O2_2 O -0.8541(3) 0.13425(11) 0.14760(10)
Fe1_2 Fe 0.38814(5) 0.03357(2) 0.09076(2)
O2B O -0.1459(3) -0.13425(11) -0.14760(10)
Fe1B Fe -0.38814(5) -0.03357(2) -0.09076(2)
O1B O -0.6767(3) -0.14325(11) -0.10803(9)
O4B O -0.6844(3) 0.06727(11) -0.04185(9)
Fe1B_2 Fe -1.38814(5) -0.03357(2) -0.09076(2)
P2B P -0.89329(10) 0.10132(4) -0.11290(3)
O5B O -0.8506(3) -0.08967(11) 0.09234(10)
O2B_2 O -1.1459(3) -0.13425(11) -0.14760(10)
O6B O -0.8431(3) 0.21440(11) -0.13702(10)
C4B C -0.8631(4) 0.01636(15) -0.20639(13)
O5_2 O -0.1494(3) 0.08967(11) -0.09234(10)
O7B O -0.6084(3) 0.02148(11) -0.21864(10)
O5B_2 O 0.1494(3) -0.08967(11) 0.09234(10)
H12B H -0.5952 0.0810 -0.2421
P1B P -0.90020(10) -0.12016(4) -0.17583(3)
C3B C -1.0357(4) 0.0445(2) -0.29027(14)
H8B H -1.1864 0.0346 -0.2833
H9B H -0.9958 0.0043 -0.3400
H10B H -1.0230 0.1093 -0.3053
O3B O -0.8762(3) -0.18421(12) -0.25888(10)
H11B H -1.0094 -0.2221 -0.3007
O8 O -0.4478(3) -0.19418(14) 0.30063(15)
H13 H -0.5475 -0.2321 0.2709
H14 H -0.3320 -0.2434 0.3089
N1 N -0.3889(3) 0.26783(13) -0.04178(13)
C1 C -0.3348(5) 0.3814(2) -0.0399(2)
C2 C -0.5251(5) 0.4415(2) -0.0011(2)
H1 H -0.2604 0.2327 -0.0749
H2 H -0.3799 0.2432 0.0088
H3 H -0.5225 0.2571 -0.0693
H4 H -0.1593 0.3963 -0.0058
H5 H -0.3306 0.4068 -0.1004
H6 H -0.5296 0.4229 0.0539
H7 H -0.6794 0.4316 -0.0380
C2B C -0.4749(5) 0.5585(2) 0.0011(2)
C1B C -0.6652(5) 0.6186(2) 0.0399(2)
N1B N -0.6111(3) 0.73217(13) 0.04178(13)
H1B H -0.7396 0.7673 0.0749
H2B H -0.6201 0.7568 -0.0088
H3B H -0.4775 0.7429 0.0693
H4B H -0.8407 0.6037 0.0058
H5B H -0.6694 0.5932 0.1004
H6B H -0.4704 0.5771 -0.0539
H7B H -0.3206 0.5684 0.0380
loop_
_geom_bond_atom_site_label_1
_geom_bond_atom_site_label_2
_geom_bond_site_symmetry_1
_geom_bond_site_symmetry_2
Fe1 O1 1_555 1_555
P1 O1 1_555 1_555
P2 O4 1_555 1_555
O2 P1 1_555 1_555
O3 P1 1_555 1_555
O4 Fe1 1_555 1_555
O5 Fe1B_2 1_555 1_555
O6 P2 1_555 1_555
O7 Fe1 1_555 1_555
O8 H13 1_555 1_555
N1 C1 1_555 1_555
C1 C2 1_555 1_555
C2 H6 1_555 1_555
C3 C4 1_555 1_555
C4 P1 1_555 1_555
H1 N1 1_555 1_555
H2 N1 1_555 1_555
H3 N1 1_555 1_555
H4 C1 1_555 1_555
H5 C1 1_555 1_555
H7 C2 1_555 1_555
H8 C3 1_555 1_555
H9 C3 1_555 1_555
H10 C3 1_555 1_555
H11 O3 1_555 1_555
H12 O7 1_555 1_555
H14 O8 1_555 1_555
O2_2 Fe1 1_555 1_555
Fe1_2 O2 1_555 1_555
O2B Fe1B 1_555 1_555
Fe1B O4 1_555 1_555
O1B Fe1B 1_555 1_555
O4B Fe1 1_555 1_555
Fe1B_2 O2B_2 1_555 1_555
P2B O5 1_555 1_555
O5B Fe1 1_555 1_555
O2B_2 P1B 1_555 1_555
O6B P2B 1_555 1_555
C4B P2B 1_555 1_555
O5_2 Fe1B 1_555 1_555
O7B Fe1B 1_555 1_555
O5B_2 P2 1_555 1_555
C2B C2 1_555 1_555
C1B C2B 1_555 1_555
N1B C1B 1_555 1_555
H1B N1B 1_555 1_555
H2B N1B 1_555 1_555
H3B N1B 1_555 1_555
H4B C1B 1_555 1_555
H5B C1B 1_555 1_555
H6B C2B 1_555 1_555
H7B C2B 1_555 1_555
H12B O7B 1_555 1_555
P1B O1B 1_555 1_555
C3B C4B 1_555 1_555
H8B C3B 1_555 1_555
H9B C3B 1_555 1_555
H10B C3B 1_555 1_555
O3B P1B 1_555 1_555
H11B O3B 1_555 1_555
P2 C4 1_555 1_555
O7 C4 1_555 1_555
Fe1_2 O5B_2 1_555 1_555
Fe1B O4B 1_555 1_555
O4B P2B 1_555 1_555
C4B P1B 1_555 1_555
C4B O7B 1_555 1_555

#END
