
#######################################################################
#
#                 Cambridge Crystallographic Data Centre
#                                CCDC 
#
#######################################################################
#
# If this CIF has been generated from an entry in the Cambridge 
# Structural Database, then it will include bibliographic, chemical, 
# crystal, experimental, refinement or atomic coordinate data resulting 
# from the CCDC's data processing and validation procedures.
#
#######################################################################

data_CIRTIH
_symmetry_cell_setting           monoclinic
_symmetry_space_group_name_H-M   'P 21/c'
_symmetry_Int_Tables_number      14
_space_group_name_Hall           '-P 2ybc'
loop_
_symmetry_equiv_pos_site_id
_symmetry_equiv_pos_as_xyz
1 x,y,z
2 -x,1/2+y,1/2-z
3 -x,-y,-z
4 x,1/2-y,1/2+z
_cell_length_a                   19.073(5)
_cell_length_b                   9.988(5)
_cell_length_c                   18.096(5)
_cell_angle_alpha                90.000(5)
_cell_angle_beta                 113.075(5)
_cell_angle_gamma                90.000(5)
_cell_volume                     3171.5
loop_
_atom_site_label
_atom_site_type_symbol
_atom_site_fract_x
_atom_site_fract_y
_atom_site_fract_z
Ni1 Ni 0.451731(16) 0.24770(3) 0.268831(17)
O1 O 0.39849(9) 0.10837(15) 0.31789(10)
O2 O 0.48686(9) 0.44827(15) 0.24957(9)
O3 O 0.32705(10) 0.10179(17) 0.39136(11)
N1 N 0.42270(10) 0.36266(17) 0.34273(10)
O4 O 0.51097(9) 0.65053(15) 0.30818(9)
C1 C 0.78780(14) 0.1937(3) 0.53922(14)
N2 N 0.56094(11) 0.22197(17) 0.35868(11)
N3 N 0.34460(11) 0.26576(19) 0.17245(11)
C2 C 0.70895(14) 0.2010(2) 0.47752(14)
N4 N 0.07046(12) 0.1567(2) -0.00017(12)
N5 N 0.83581(13) 0.2887(2) 0.53551(13)
C3 C 0.64729(14) 0.1455(2) 0.48805(14)
H1 H 0.6542 0.0994 0.5350
C4 C 0.38785(13) 0.3049(2) 0.38540(14)
C5 C 0.36866(14) 0.1581(2) 0.36409(15)
C6 C 1.01698(14) 0.1924(3) 0.70834(15)
C7 C -0.04176(14) 0.2635(2) -0.09716(15)
C8 C 0.88503(14) 0.0939(3) 0.65255(15)
H2 H 0.9008 0.0273 0.6916
C9 C 0.93661(14) 0.1896(3) 0.65065(14)
C10 C 0.69448(14) 0.2660(2) 0.40535(14)
H3 H 0.7342 0.3050 0.3955
C11 C 0.44442(12) 0.4916(2) 0.35365(13)
C12 C 0.10886(14) 0.2723(2) 0.01083(15)
C13 C 0.19054(14) 0.2711(2) 0.06514(14)
C14 C -0.12072(14) 0.2518(3) -0.15857(14)
C15 C 0.81047(14) 0.0955(3) 0.59751(15)
H4 H 0.7760 0.0313 0.5997
C16 C 0.48399(13) 0.5337(2) 0.29916(13)
C17 C 0.42988(14) 0.5689(2) 0.40903(14)
H5 H 0.4439 0.6587 0.4161
C18 C 0.37263(14) 0.3762(3) 0.44277(14)
H6 H 0.3488 0.3356 0.4730
C19 C -0.00184(15) 0.1562(3) -0.05190(15)
H7 H -0.0281 0.0758 -0.0583
C20 C -0.26751(16) 0.2296(3) -0.27782(16)
H8 H -0.3165 0.2225 -0.3173
C21 C 0.23212(14) 0.1526(2) 0.08384(15)
H9 H 0.2093 0.0723 0.0607
C22 C 0.23027(15) 0.3863(2) 0.10021(16)
H10 H 0.2059 0.4690 0.0885
C23 C 0.39376(14) 0.5096(3) 0.45415(15)
H11 H 0.3837 0.5598 0.4922
C24 C -0.23252(15) 0.1214(3) -0.23260(16)
H12 H -0.2577 0.0395 -0.2416
C25 C 0.57545(14) 0.1588(2) 0.42862(15)
H13 H 0.5346 0.1219 0.4374
C26 C 0.90720(15) 0.2845(3) 0.59033(16)
H14 H 0.9402 0.3512 0.5879
C27 C 0.62133(14) 0.2727(2) 0.34850(14)
H15 H 0.6134 0.3150 0.3001
C28 C 1.16823(16) 0.2017(3) 0.81987(18)
H16 H 1.2181 0.2073 0.8576
C29 C 0.30526(15) 0.3789(2) 0.15209(15)
H17 H 0.3301 0.4582 0.1744
C30 C -0.16033(14) 0.1319(3) -0.17383(15)
H18 H -0.1376 0.0567 -0.1436
C31 C 1.07205(15) 0.2665(3) 0.69440(17)
H19 H 1.0586 0.3144 0.6467
C32 C 0.30748(15) 0.1549(2) 0.13692(15)
H20 H 0.3340 0.0743 0.1487
C33 C 1.04124(15) 0.1203(3) 0.77955(16)
H21 H 1.0063 0.0680 0.7908
C34 C -0.15740(16) 0.3604(3) -0.20555(17)
H22 H -0.1328 0.4428 -0.1972
C35 C -0.00150(16) 0.3821(3) -0.08082(19)
H23 H -0.0253 0.4602 -0.1065
C36 C 0.07269(16) 0.3868(3) -0.02754(18)
H24 H 0.0989 0.4678 -0.0172
C37 C 1.14658(16) 0.2708(3) 0.74983(19)
H25 H 1.1823 0.3215 0.7390
C38 C -0.22960(17) 0.3485(3) -0.26426(18)
H26 H -0.2529 0.4227 -0.2951
C39 C 1.11620(16) 0.1241(3) 0.83437(17)
H27 H 1.1311 0.0737 0.8812
Ni1A Ni 0.548269(16) 0.74770(3) 0.231169(17)
O4A O 0.48903(9) 0.15053(15) 0.19182(9)
O5 O 0.47001(17) 0.8728(2) 0.39887(16)
H28 H 0.513(5) 0.817(8) 0.382(6)
H29 H 0.449(3) 0.950(4) 0.365(3)
loop_
_geom_bond_atom_site_label_1
_geom_bond_atom_site_label_2
_geom_bond_site_symmetry_1
_geom_bond_site_symmetry_2
Ni1 O1 1_555 1_555
O1 C5 1_555 1_555
O2 Ni1 1_555 1_555
O3 C5 1_555 1_555
N1 Ni1 1_555 1_555
O4 C16 1_555 1_555
C1 C2 1_555 1_555
N2 Ni1 1_555 1_555
N3 Ni1 1_555 1_555
C2 C3 1_555 1_555
N4 C12 1_555 1_555
N5 C1 1_555 1_555
C3 H1 1_555 1_555
C4 N1 1_555 1_555
C5 C4 1_555 1_555
C6 C9 1_555 1_555
C7 C14 1_555 1_555
C8 H2 1_555 1_555
C9 C8 1_555 1_555
C10 C2 1_555 1_555
H3 C10 1_555 1_555
C11 N1 1_555 1_555
C12 C13 1_555 1_555
C13 C21 1_555 1_555
C14 C30 1_555 1_555
C15 C1 1_555 1_555
H4 C15 1_555 1_555
O5 H28 1_555 1_555
C16 O2 1_555 1_555
C17 C11 1_555 1_555
H5 C17 1_555 1_555
C18 C4 1_555 1_555
H6 C18 1_555 1_555
C19 N4 1_555 1_555
H7 C19 1_555 1_555
C20 H8 1_555 1_555
C21 H9 1_555 1_555
C22 C13 1_555 1_555
H10 C22 1_555 1_555
C23 C17 1_555 1_555
H11 C23 1_555 1_555
C24 C20 1_555 1_555
H12 C24 1_555 1_555
C25 N2 1_555 1_555
H13 C25 1_555 1_555
C26 N5 1_555 1_555
H14 C26 1_555 1_555
C27 N2 1_555 1_555
H15 C27 1_555 1_555
C28 H16 1_555 1_555
C29 N3 1_555 1_555
H17 C29 1_555 1_555
C30 C24 1_555 1_555
H18 C30 1_555 1_555
C31 C6 1_555 1_555
H19 C31 1_555 1_555
C32 N3 1_555 1_555
H20 C32 1_555 1_555
C33 C6 1_555 1_555
H21 C33 1_555 1_555
C34 C14 1_555 1_555
H22 C34 1_555 1_555
C35 C7 1_555 1_555
H23 C35 1_555 1_555
C36 C12 1_555 1_555
H24 C36 1_555 1_555
C37 C28 1_555 1_555
H25 C37 1_555 1_555
C38 C20 1_555 1_555
H26 C38 1_555 1_555
C39 C28 1_555 1_555
H27 C39 1_555 1_555
H29 O5 1_555 1_555
Ni1A O4 1_555 1_555
O4A Ni1 1_555 1_555
C3 C25 1_555 1_555
C7 C19 1_555 1_555
C8 C15 1_555 1_555
C9 C26 1_555 1_555
C10 C27 1_555 1_555
C11 C16 1_555 1_555
C18 C23 1_555 1_555
C21 C32 1_555 1_555
C22 C29 1_555 1_555
C31 C37 1_555 1_555
C33 C39 1_555 1_555
C34 C38 1_555 1_555
C35 C36 1_555 1_555

#END
