
#######################################################################
#
#                 Cambridge Crystallographic Data Centre
#                                CCDC 
#
#######################################################################
#
# If this CIF has been generated from an entry in the Cambridge 
# Structural Database, then it will include bibliographic, chemical, 
# crystal, experimental, refinement or atomic coordinate data resulting 
# from the CCDC's data processing and validation procedures.
#
#######################################################################

data_CIRTUT
_symmetry_cell_setting           monoclinic
_symmetry_space_group_name_H-M   'P 21/c'
_symmetry_Int_Tables_number      14
_space_group_name_Hall           '-P 2ybc'
loop_
_symmetry_equiv_pos_site_id
_symmetry_equiv_pos_as_xyz
1 x,y,z
2 -x,1/2+y,1/2-z
3 -x,-y,-z
4 x,1/2-y,1/2+z
_cell_length_a                   10.1711(10)
_cell_length_b                   28.951(3)
_cell_length_c                   5.6154(5)
_cell_angle_alpha                90.00
_cell_angle_beta                 97.619(2)
_cell_angle_gamma                90.00
_cell_volume                     1638.93
loop_
_atom_site_label
_atom_site_type_symbol
_atom_site_fract_x
_atom_site_fract_y
_atom_site_fract_z
Pb1 Pb 0.19122(2) 0.197100(9) 0.28427(5)
S1 S -0.60187(16) 0.17952(6) -0.2127(3)
N1 N 0.0982(6) 0.1154(2) 0.1492(11)
O1 O 0.0551(5) 0.22027(19) -0.1115(9)
O2 O 0.0246(5) 0.18042(19) -0.4556(10)
O3 O -0.6192(5) 0.1666(2) 0.0300(9)
O4 O -0.6503(5) 0.22576(18) -0.2786(10)
O5 O -0.6566(5) 0.14598(18) -0.3931(9)
C1 C -0.0162(6) 0.1969(2) -0.2718(13)
C2 C -0.1599(6) 0.1894(2) -0.2479(12)
C3 C -0.2124(7) 0.2051(2) -0.0467(14)
H1 H -0.1573 0.2178 0.0820
C4 C -0.3487(8) 0.2016(3) -0.0394(14)
H2 H -0.3848 0.2132 0.0920
C5 C -0.4292(7) 0.1812(2) -0.2232(13)
C6 C -0.3770(7) 0.1648(3) -0.4198(14)
H3 H -0.4321 0.1507 -0.5443
C7 C -0.2437(7) 0.1690(3) -0.4336(13)
H4 H -0.2093 0.1581 -0.5685
C8 C 0.0183(8) 0.0918(3) 0.2738(15)
H5 H -0.0111 0.1063 0.4049
C9 C -0.0235(8) 0.0473(3) 0.2210(14)
H6 H -0.0804 0.0328 0.3139
C10 C 0.0190(7) 0.0243(2) 0.0299(13)
C11 C 0.1007(8) 0.0489(3) -0.1052(14)
H7 H 0.1309 0.0354 -0.2380
C12 C 0.1365(8) 0.0939(3) -0.0392(14)
H8 H 0.1905 0.1099 -0.1322
Pb1B Pb -0.19122(2) -0.197100(9) -0.28427(5)
Pb1C Pb 0.19122(2) 0.302900(9) -0.21573(5)
Pb1_2 Pb 0.19122(2) 0.197100(9) -0.71573(5)
Pb1_3 Pb -0.80878(2) 0.197100(9) 0.28427(5)
Pb1_4 Pb -0.80878(2) 0.197100(9) -0.71573(5)
Pb1C_2 Pb -0.80878(2) 0.302900(9) -0.21573(5)
Pb1C_3 Pb 0.19122(2) 0.302900(9) 0.78427(5)
Pb1C_4 Pb -0.80878(2) 0.302900(9) 0.78427(5)
S1C S -0.60187(16) 0.32048(6) 0.2873(3)
N1B N -0.0982(6) -0.1154(2) -0.1492(11)
O1C O 0.0551(5) 0.27973(19) 0.3885(9)
O1B O -0.0551(5) -0.22027(19) 0.1115(9)
O1A O -0.0551(5) -0.27973(19) -0.3885(9)
O2C O 0.0246(5) 0.31958(19) 0.0444(10)
O2_2 O 0.0246(5) 0.18042(19) 0.5444(10)
O2B O -0.0246(5) -0.18042(19) -0.5444(10)
O3C O -0.6192(5) 0.3334(2) 0.5300(9)
O3_2 O 0.3808(5) 0.1666(2) 0.0300(9)
O3B O -0.3808(5) -0.1666(2) -0.0300(9)
O4C O -0.6503(5) 0.27424(18) 0.2214(10)
O4_2 O 0.3497(5) 0.22576(18) 0.7214(10)
O4C_2 O 0.3497(5) 0.27424(18) 0.2214(10)
O4B O -0.3497(5) -0.22576(18) -0.7214(10)
O4A O -0.3497(5) -0.27424(18) -0.2214(10)
O5C O -0.6566(5) 0.35402(18) 0.1069(9)
O5_2 O 0.3434(5) 0.14598(18) 0.6069(9)
O5B O -0.3434(5) -0.14598(18) -0.6069(9)
C1C C -0.0162(6) 0.3031(2) 0.2282(13)
C2C C -0.1599(6) 0.3106(2) 0.2521(12)
C3C C -0.2124(7) 0.2949(2) 0.4533(14)
H1C H -0.1573 0.2822 0.5820
C4C C -0.3487(8) 0.2984(3) 0.4606(14)
H2C H -0.3848 0.2868 0.5920
C5C C -0.4292(7) 0.3188(2) 0.2768(13)
C6C C -0.3770(7) 0.3352(3) 0.0802(14)
H3C H -0.4321 0.3493 -0.0443
C7C C -0.2437(7) 0.3310(3) 0.0664(13)
H4C H -0.2093 0.3419 -0.0685
C8B C -0.0183(8) -0.0918(3) -0.2738(15)
H5B H 0.0111 -0.1063 -0.4049
C9B C 0.0235(8) -0.0473(3) -0.2210(14)
H6B H 0.0804 -0.0328 -0.3139
C10B C -0.0190(7) -0.0243(2) -0.0299(13)
C11B C -0.1007(8) -0.0489(3) 0.1052(14)
H7B H -0.1309 -0.0354 0.2380
C12B C -0.1365(8) -0.0939(3) 0.0392(14)
H8B H -0.1905 -0.1099 0.1322
N2 N 0.2738(8) -0.0051(3) 0.4360(16)
C13 C 0.2948(10) -0.0405(4) 0.298(2)
H9 H 0.2479 -0.0676 0.3177
C14 C 0.3816(9) -0.0407(3) 0.1263(19)
H10 H 0.3916 -0.0671 0.0362
C15 C 0.4531(8) -0.0010(3) 0.0904(16)
C16 C 0.4282(9) 0.0365(3) 0.2307(18)
H11 H 0.4708 0.0644 0.2122
C17 C 0.3403(9) 0.0328(4) 0.3985(18)
H12 H 0.3272 0.0587 0.4905
N2B N 0.7262(8) 0.0051(3) -0.4360(16)
C13B C 0.7052(10) 0.0405(4) -0.298(2)
H9B H 0.7521 0.0676 -0.3177
C14B C 0.6184(9) 0.0407(3) -0.1263(19)
H10B H 0.6084 0.0671 -0.0362
C15B C 0.5469(8) 0.0010(3) -0.0904(16)
C16B C 0.5718(9) -0.0365(3) -0.2307(18)
H11B H 0.5292 -0.0644 -0.2122
C17B C 0.6597(9) -0.0328(4) -0.3985(18)
H12B H 0.6728 -0.0587 -0.4905
loop_
_geom_bond_atom_site_label_1
_geom_bond_atom_site_label_2
_geom_bond_site_symmetry_1
_geom_bond_site_symmetry_2
Pb1 N1 1_555 1_555
S1 O3 1_555 1_555
N1 C8 1_555 1_555
N2 C13 1_555 1_555
O1 Pb1 1_555 1_555
O2 C1 1_555 1_555
O3 Pb1_3 1_555 1_555
O4 S1 1_555 1_555
O5 S1 1_555 1_555
C1 O1 1_555 1_555
C2 C1 1_555 1_555
C3 C2 1_555 1_555
H1 C3 1_555 1_555
C4 C3 1_555 1_555
H2 C4 1_555 1_555
C5 S1 1_555 1_555
C6 C5 1_555 1_555
H3 C6 1_555 1_555
C7 C2 1_555 1_555
H4 C7 1_555 1_555
C8 H5 1_555 1_555
C9 C8 1_555 1_555
H6 C9 1_555 1_555
C10 C9 1_555 1_555
C11 C10 1_555 1_555
H7 C11 1_555 1_555
C12 N1 1_555 1_555
H8 C12 1_555 1_555
C13 H9 1_555 1_555
C14 C13 1_555 1_555
H10 C14 1_555 1_555
C15 C14 1_555 1_555
C16 C15 1_555 1_555
H11 C16 1_555 1_555
C17 N2 1_555 1_555
H12 C17 1_555 1_555
Pb1B N1B 1_555 1_555
Pb1C O1 1_555 1_555
Pb1_2 O2 1_555 1_555
Pb1_3 O4C 1_555 1_555
Pb1_4 O4 1_555 1_555
Pb1C_2 O4 1_555 1_555
Pb1C_3 O1C 1_555 1_555
Pb1C_4 O3C 1_555 1_555
S1C O3C 1_555 1_555
N1B C8B 1_555 1_555
N2B C13B 1_555 1_555
O1C Pb1 1_555 1_555
O1B Pb1B 1_555 1_555
O1A Pb1B 1_555 1_555
O2C Pb1C 1_555 1_555
O2_2 Pb1 1_555 1_555
O2B Pb1B 1_555 1_555
O3_2 Pb1 1_555 1_555
O3B Pb1B 1_555 1_555
O4C Pb1C_2 1_555 1_555
O4_2 Pb1 1_555 1_555
O4C_2 Pb1 1_555 1_555
O4B Pb1B 1_555 1_555
O4A Pb1B 1_555 1_555
O5C Pb1C_2 1_555 1_555
O5_2 Pb1 1_555 1_555
O5B Pb1B 1_555 1_555
C1C O1C 1_555 1_555
C2C C1C 1_555 1_555
C3C C2C 1_555 1_555
H1C C3C 1_555 1_555
C4C C3C 1_555 1_555
H2C C4C 1_555 1_555
C5C S1C 1_555 1_555
C6C C5C 1_555 1_555
H3C C6C 1_555 1_555
C7C C2C 1_555 1_555
H4C C7C 1_555 1_555
C8B H5B 1_555 1_555
C9B C8B 1_555 1_555
H6B C9B 1_555 1_555
C10B C10 1_555 1_555
C11B C10B 1_555 1_555
H7B C11B 1_555 1_555
C12B N1B 1_555 1_555
H8B C12B 1_555 1_555
C13B H9B 1_555 1_555
C14B C13B 1_555 1_555
H10B C14B 1_555 1_555
C15B C15 1_555 1_555
C16B C15B 1_555 1_555
H11B C16B 1_555 1_555
C17B N2B 1_555 1_555
H12B C17B 1_555 1_555
O5 Pb1_4 1_555 1_555
C4 C5 1_555 1_555
C6 C7 1_555 1_555
C11 C12 1_555 1_555
C16 C17 1_555 1_555
Pb1C O4C_2 1_555 1_555
Pb1C_3 O4_2 1_555 1_555
S1C O4C 1_555 1_555
S1C O5C 1_555 1_555
O2C C1C 1_555 1_555
C4C C5C 1_555 1_555
C6C C7C 1_555 1_555
C9B C10B 1_555 1_555
C11B C12B 1_555 1_555
C14B C15B 1_555 1_555
C16B C17B 1_555 1_555

#END
