
#######################################################################
#
#                 Cambridge Crystallographic Data Centre
#                                CCDC 
#
#######################################################################
#
# If this CIF has been generated from an entry in the Cambridge 
# Structural Database, then it will include bibliographic, chemical, 
# crystal, experimental, refinement or atomic coordinate data resulting 
# from the CCDC's data processing and validation procedures.
#
#######################################################################

data_CIRVUW
_symmetry_cell_setting           monoclinic
_symmetry_space_group_name_H-M   'P 21'
_symmetry_Int_Tables_number      4
_space_group_name_Hall           'P 2yb'
loop_
_symmetry_equiv_pos_site_id
_symmetry_equiv_pos_as_xyz
1 x,y,z
2 -x,1/2+y,-z
_cell_length_a                   12.4204(6)
_cell_length_b                   20.4162(7)
_cell_length_c                   14.9983(6)
_cell_angle_alpha                90
_cell_angle_beta                 93.042(4)
_cell_angle_gamma                90
_cell_volume                     3797.87
loop_
_atom_site_label
_atom_site_type_symbol
_atom_site_fract_x
_atom_site_fract_y
_atom_site_fract_z
Fe1 Fe 0.29289(9) 0.69952(5) 1.39320(8)
Fe2 Fe 0.28972(8) 0.35853(5) 0.89581(7)
Mn1 Mn 0.24143(9) 0.57000(5) 1.08387(8)
Mn2 Mn 0.24720(9) 0.48999(6) 0.58469(9)
O1 O 0.4515(5) 0.8588(3) 1.3141(4)
O2 O 0.2159(4) 0.6414(3) 1.0059(4)
O3 O 0.0948(4) 0.5523(3) 1.0962(4)
O4 O 0.4578(5) 0.2031(3) 0.8251(4)
O5 O 0.1008(5) 0.5121(3) 0.5938(4)
O6 O 0.2169(4) 0.4170(3) 0.5108(4)
N1 N 0.2566(5) 0.6384(4) 1.2039(5)
N2 N 0.3141(7) 0.7420(5) 1.5894(6)
N3 N 0.2604(6) 0.5581(4) 1.4631(5)
N4 N 0.4497(5) 0.6926(4) 1.3920(5)
N5 N 0.1418(5) 0.7279(4) 1.3888(5)
N6 N 0.3167(5) 0.7846(3) 1.3491(4)
N7 N 0.4016(5) 0.5755(3) 1.0741(4)
N8 N 0.2827(5) 0.4973(4) 1.1674(4)
N9 N 0.2437(6) 0.4958(4) 0.9697(5)
N10 N 0.2566(6) 0.4257(4) 0.7124(5)
N11 N 0.3098(7) 0.3143(4) 1.0955(5)
N12 N 0.4477(5) 0.3659(4) 0.8943(5)
N13 N 0.1389(5) 0.3274(3) 0.8903(4)
N14 N 0.3182(5) 0.2749(3) 0.8527(4)
N15 N 0.4059(5) 0.4762(3) 0.5829(4)
N16 N 0.2961(5) 0.5684(4) 0.6557(5)
C1 C 0.2717(6) 0.6619(4) 1.2730(6)
C2 C 0.3076(6) 0.7257(4) 1.5180(5)
C3 C 0.2706(7) 0.6104(5) 1.4373(6)
C4 C 0.5146(7) 0.6450(5) 1.4148(6)
H1 H 0.4881 0.6044 1.4309
C5 C 0.6312(8) 0.6571(6) 1.4144(7)
H2 H 0.6772 0.6221 1.4277
C6 C 0.6734(6) 0.7118(6) 1.3971(7)
H3 H 0.7476 0.7180 1.4022
C7 C 0.6080(6) 0.7591(5) 1.3718(6)
H4 H 0.6361 0.7990 1.3542
C8 C 0.4984(8) 0.7507(5) 1.3707(6)
C9 C 0.4202(7) 0.8048(5) 1.3410(6)
C10 C 0.2260(7) 0.8229(4) 1.3326(6)
C11 C 0.2159(8) 0.8843(5) 1.2990(6)
H5 H 0.2766 0.9055 1.2796
C12 C 0.1139(10) 0.9177(5) 1.2926(8)
H6 H 0.1091 0.9602 1.2704
C13 C 0.0255(9) 0.8867(7) 1.3191(9)
H7 H -0.0401 0.9088 1.3145
C14 C 0.0276(8) 0.8212(6) 1.3541(7)
C15 C 0.1323(7) 0.7905(5) 1.3597(6)
C16 C -0.0613(8) 0.7851(6) 1.3841(7)
H8 H -0.1287 0.8050 1.3844
C17 C -0.0503(8) 0.7235(6) 1.4118(6)
H9 H -0.1093 0.6993 1.4286
C18 C 0.0542(7) 0.6962(6) 1.4147(6)
H10 H 0.0628 0.6536 1.4360
C19 C 0.4594(5) 0.5200(3) 1.1183(4)
H11 H 0.4550 0.4824 1.0776
C20 C 0.5806(6) 0.5320(4) 1.1461(7)
H12 H 0.6206 0.5402 1.0935
H13 H 0.5875 0.5701 1.1846
C21 C 0.6254(6) 0.4732(4) 1.1943(6)
H14 H 0.7001 0.4815 1.2129
H15 H 0.6237 0.4363 1.1535
C22 C 0.5629(7) 0.4550(5) 1.2769(6)
H16 H 0.5678 0.4904 1.3202
H17 H 0.5936 0.4159 1.3048
C23 C 0.4433(7) 0.4428(5) 1.2464(6)
H18 H 0.4388 0.4061 1.2053
H19 H 0.4026 0.4318 1.2977
C24 C 0.3956(5) 0.5030(3) 1.2011(4)
H20 H 0.4016 0.5397 1.2431
C25 C 0.2243(6) 0.4477(4) 1.1849(5)
H21 H 0.2560 0.4132 1.2171
C26 C 0.1140(7) 0.4428(4) 1.1575(6)
C27 C 0.0640(7) 0.3826(5) 1.1746(7)
H22 H 0.1026 0.3497 1.2049
C28 C -0.0445(8) 0.3719(5) 1.1458(7)
H23 H -0.0759 0.3311 1.1537
C29 C -0.1051(7) 0.4231(5) 1.1053(7)
H24 H -0.1776 0.4166 1.0887
C30 C -0.0574(7) 0.4828(5) 1.0901(6)
H25 H -0.0981 0.5165 1.0634
C31 C 0.0523(6) 0.4932(5) 1.1146(6)
C32 C 0.4499(7) 0.6212(4) 1.0273(5)
H26 H 0.5247 0.6197 1.0271
C33 C 0.3981(7) 0.6709(4) 0.9786(6)
C34 C 0.4645(7) 0.7152(4) 0.9344(6)
H27 H 0.5387 0.7089 0.9409
C35 C 0.4288(7) 0.7655(5) 0.8841(6)
H28 H 0.4760 0.7945 0.8587
C36 C 0.3160(8) 0.7725(5) 0.8711(7)
H29 H 0.2880 0.8051 0.8334
C37 C 0.2456(8) 0.7309(4) 0.9146(7)
H30 H 0.1716 0.7379 0.9092
C38 C 0.2870(7) 0.6796(4) 0.9652(6)
C39 C 0.2595(6) 0.4454(5) 0.9413(6)
C40 C 0.2695(6) 0.4005(4) 0.7784(5)
C41 C 0.3028(7) 0.3310(4) 1.0232(7)
C42 C 0.0503(6) 0.3570(5) 0.9134(6)
H31 H 0.0539 0.3991 0.9369
C43 C -0.0500(7) 0.3249(5) 0.9025(7)
H32 H -0.1115 0.3469 0.9188
C44 C -0.0607(7) 0.2643(5) 0.8698(6)
H33 H -0.1282 0.2447 0.8634
C45 C 0.0318(7) 0.2310(4) 0.8453(6)
C46 C 0.1275(6) 0.2646(4) 0.8560(5)
C47 C 0.0323(9) 0.1664(5) 0.8136(7)
H34 H -0.0313 0.1425 0.8067
C48 C 0.1298(9) 0.1393(5) 0.7927(7)
H35 H 0.1288 0.0969 0.7698
C49 C 0.2282(7) 0.1701(4) 0.8033(6)
H36 H 0.2918 0.1492 0.7898
C50 C 0.2279(6) 0.2339(4) 0.8352(5)
C51 C 0.5124(7) 0.4203(5) 0.9143(6)
H37 H 0.4818 0.4610 0.9247
C52 C 0.6207(7) 0.4127(5) 0.9182(6)
H38 H 0.6635 0.4489 0.9332
C53 C 0.6687(6) 0.3571(5) 0.9019(6)
H39 H 0.7435 0.3536 0.9052
C54 C 0.6095(8) 0.3081(6) 0.8817(6)
H40 H 0.6433 0.2683 0.8716
C55 C 0.4949(6) 0.3099(4) 0.8732(5)
C56 C 0.4232(6) 0.2558(4) 0.8471(5)
C57 C 0.4672(5) 0.5147(3) 0.6541(4)
H41 H 0.4582 0.4921 0.7109
C58 C 0.4137(5) 0.5790(3) 0.6601(5)
H42 H 0.4308 0.6040 0.6069
C59 C 0.4596(8) 0.6170(6) 0.7410(7)
H43 H 0.4263 0.6599 0.7426
H44 H 0.4437 0.5939 0.7953
C60 C 0.5800(7) 0.6241(5) 0.7356(7)
H45 H 0.5947 0.6519 0.6852
H46 H 0.6092 0.6456 0.7894
C61 C 0.6357(7) 0.5596(4) 0.7254(6)
H47 H 0.6293 0.5338 0.7792
H48 H 0.7118 0.5670 0.7175
C62 C 0.5851(7) 0.5210(5) 0.6431(6)
H49 H 0.5979 0.5443 0.5883
H50 H 0.6177 0.4779 0.6399
C63 C 0.4525(7) 0.4352(4) 0.5381(5)
H51 H 0.5275 0.4348 0.5435
C64 C 0.3997(7) 0.3863(4) 0.4761(5)
C65 C 0.4655(8) 0.3427(4) 0.4313(6)
H52 H 0.5401 0.3439 0.4408
C66 C 0.4154(9) 0.2969(4) 0.3713(7)
H53 H 0.4572 0.2689 0.3385
C67 C 0.3068(8) 0.2943(5) 0.3620(8)
H54 H 0.2749 0.2633 0.3236
C68 C 0.2432(8) 0.3347(5) 0.4061(7)
H55 H 0.1690 0.3318 0.3948
C69 C 0.2835(7) 0.3815(4) 0.4690(6)
C70 C 0.2307(8) 0.6145(5) 0.6786(6)
H56 H 0.2617 0.6486 0.7119
C71 C 0.1151(8) 0.6192(5) 0.6587(6)
C72 C 0.0621(9) 0.6783(6) 0.6801(8)
H57 H 0.1031 0.7127 0.7043
C73 C -0.0428(10) 0.6865(6) 0.6671(8)
H58 H -0.0769 0.7247 0.6840
C74 C -0.0996(9) 0.6352(6) 0.6271(7)
H59 H -0.1734 0.6406 0.6156
C75 C -0.0552(8) 0.5773(6) 0.6035(7)
H60 H -0.0985 0.5444 0.5781
C76 C 0.0581(8) 0.5672(5) 0.6177(6)
Mn2_2 Mn 0.24720(9) 0.48999(6) 1.58469(9)
N3_2 N 0.2604(6) 0.5581(4) 0.4631(5)
O7 O 0.7168(6) 0.5716(5) 0.9547(6)
N17 N 0.8724(7) 0.6215(6) 0.9165(6)
C77 C 0.9290(14) 0.5660(7) 0.8791(9)
H61 H 0.8840 0.5278 0.8797
H62 H 0.9946 0.5579 0.9142
H63 H 0.9457 0.5757 0.8187
C78 C 0.9306(10) 0.6850(7) 0.9224(8)
H64 H 0.8908 0.7155 0.9566
H65 H 0.9380 0.7022 0.8634
H66 H 1.0008 0.6785 0.9509
C79 C 0.7734(9) 0.6221(7) 0.9500(7)
H67 H 0.7464 0.6616 0.9704
O8 O 0.7489(12) 0.5084(9) 0.4441(10)
N18 N 0.8745(17) 0.4367(12) 0.4140(12)
C80 C 0.898(2) 0.3724(13) 0.4079(15)
H68 H 0.8329 0.3476 0.4001
H69 H 0.9375 0.3585 0.4615
H70 H 0.9418 0.3654 0.3576
C81 C 0.944(2) 0.4857(15) 0.3796(15)
H71 H 1.0117 0.4856 0.4139
H72 H 0.9109 0.5279 0.3837
H73 H 0.9564 0.4762 0.3183
C82 C 0.7777(18) 0.4551(14) 0.4505(14)
H74 H 0.7370 0.4243 0.4797
loop_
_geom_bond_atom_site_label_1
_geom_bond_atom_site_label_2
_geom_bond_site_symmetry_1
_geom_bond_site_symmetry_2
Fe1 N4 1_555 1_555
Fe2 N12 1_555 1_555
Mn1 O2 1_555 1_555
Mn2 O5 1_555 1_555
O1 C9 1_555 1_555
O2 C38 1_555 1_555
O3 Mn1 1_555 1_555
O4 C56 1_555 1_555
O5 C76 1_555 1_555
O6 Mn2 1_555 1_555
N1 Mn1 1_555 1_555
N2 C2 1_555 1_555
N3 C3 1_555 1_555
N4 C4 1_555 1_555
N5 Fe1 1_555 1_555
N6 Fe1 1_555 1_555
N7 Mn1 1_555 1_555
N8 Mn1 1_555 1_555
N9 Mn1 1_555 1_555
N10 Mn2 1_555 1_555
N11 C41 1_555 1_555
N12 C51 1_555 1_555
N13 Fe2 1_555 1_555
N14 Fe2 1_555 1_555
N15 Mn2 1_555 1_555
N16 Mn2 1_555 1_555
C1 Fe1 1_555 1_555
C2 Fe1 1_555 1_555
C3 Fe1 1_555 1_555
C4 H1 1_555 1_555
C5 C4 1_555 1_555
H2 C5 1_555 1_555
C6 C5 1_555 1_555
H3 C6 1_555 1_555
C7 C6 1_555 1_555
H4 C7 1_555 1_555
C8 N4 1_555 1_555
C9 N6 1_555 1_555
C10 N6 1_555 1_555
C11 C10 1_555 1_555
H5 C11 1_555 1_555
C12 C11 1_555 1_555
H6 C12 1_555 1_555
C13 C12 1_555 1_555
H7 C13 1_555 1_555
C14 C13 1_555 1_555
C15 N5 1_555 1_555
C16 C14 1_555 1_555
H8 C16 1_555 1_555
C17 C16 1_555 1_555
H9 C17 1_555 1_555
C18 N5 1_555 1_555
H10 C18 1_555 1_555
C19 N7 1_555 1_555
H11 C19 1_555 1_555
C20 C19 1_555 1_555
H12 C20 1_555 1_555
H13 C20 1_555 1_555
C21 C20 1_555 1_555
H14 C21 1_555 1_555
H15 C21 1_555 1_555
C22 C21 1_555 1_555
H16 C22 1_555 1_555
H17 C22 1_555 1_555
C23 C22 1_555 1_555
H18 C23 1_555 1_555
H19 C23 1_555 1_555
C24 N8 1_555 1_555
H20 C24 1_555 1_555
C25 N8 1_555 1_555
H21 C25 1_555 1_555
C26 C25 1_555 1_555
C27 C26 1_555 1_555
H22 C27 1_555 1_555
C28 C27 1_555 1_555
H23 C28 1_555 1_555
C29 C28 1_555 1_555
H24 C29 1_555 1_555
C30 C29 1_555 1_555
H25 C30 1_555 1_555
C31 O3 1_555 1_555
C32 N7 1_555 1_555
H26 C32 1_555 1_555
C33 C32 1_555 1_555
C34 C33 1_555 1_555
H27 C34 1_555 1_555
C35 C34 1_555 1_555
H28 C35 1_555 1_555
C36 C35 1_555 1_555
H29 C36 1_555 1_555
C37 C36 1_555 1_555
H30 C37 1_555 1_555
C38 C33 1_555 1_555
C39 Fe2 1_555 1_555
C40 Fe2 1_555 1_555
C41 Fe2 1_555 1_555
C42 N13 1_555 1_555
H31 C42 1_555 1_555
C43 C42 1_555 1_555
H32 C43 1_555 1_555
C44 C43 1_555 1_555
H33 C44 1_555 1_555
C45 C44 1_555 1_555
C46 N13 1_555 1_555
C47 C45 1_555 1_555
H34 C47 1_555 1_555
C48 C47 1_555 1_555
H35 C48 1_555 1_555
C49 C48 1_555 1_555
H36 C49 1_555 1_555
C50 N14 1_555 1_555
C51 H37 1_555 1_555
C52 C51 1_555 1_555
H38 C52 1_555 1_555
C53 C52 1_555 1_555
H39 C53 1_555 1_555
C54 C53 1_555 1_555
H40 C54 1_555 1_555
C55 N12 1_555 1_555
C56 N14 1_555 1_555
C57 N15 1_555 1_555
H41 C57 1_555 1_555
C58 N16 1_555 1_555
H42 C58 1_555 1_555
C59 C58 1_555 1_555
H43 C59 1_555 1_555
H44 C59 1_555 1_555
C60 C59 1_555 1_555
H45 C60 1_555 1_555
H46 C60 1_555 1_555
C61 C60 1_555 1_555
H47 C61 1_555 1_555
H48 C61 1_555 1_555
C62 C57 1_555 1_555
H49 C62 1_555 1_555
H50 C62 1_555 1_555
C63 N15 1_555 1_555
H51 C63 1_555 1_555
C64 C63 1_555 1_555
C65 C64 1_555 1_555
H52 C65 1_555 1_555
C66 C65 1_555 1_555
H53 C66 1_555 1_555
C67 C66 1_555 1_555
H54 C67 1_555 1_555
C68 C67 1_555 1_555
H55 C68 1_555 1_555
C69 O6 1_555 1_555
C70 N16 1_555 1_555
H56 C70 1_555 1_555
C71 C70 1_555 1_555
C72 C71 1_555 1_555
H57 C72 1_555 1_555
C73 C72 1_555 1_555
H58 C73 1_555 1_555
C74 C73 1_555 1_555
H59 C74 1_555 1_555
C75 C74 1_555 1_555
H60 C75 1_555 1_555
C76 C71 1_555 1_555
O7 C79 1_555 1_555
N17 C77 1_555 1_555
C77 H61 1_555 1_555
H62 C77 1_555 1_555
H63 C77 1_555 1_555
C78 N17 1_555 1_555
H64 C78 1_555 1_555
H65 C78 1_555 1_555
H66 C78 1_555 1_555
C79 N17 1_555 1_555
H67 C79 1_555 1_555
O8 C82 1_555 1_555
N18 C80 1_555 1_555
C80 H68 1_555 1_555
H69 C80 1_555 1_555
H70 C80 1_555 1_555
C81 N18 1_555 1_555
H71 C81 1_555 1_555
H72 C81 1_555 1_555
H73 C81 1_555 1_555
C82 N18 1_555 1_555
H74 C82 1_555 1_555
Mn2_2 N3 1_555 1_555
N3_2 Mn2 1_555 1_555
N1 C1 1_555 1_555
N9 C39 1_555 1_555
N10 C40 1_555 1_555
C7 C8 1_555 1_555
C8 C9 1_555 1_555
C10 C15 1_555 1_555
C14 C15 1_555 1_555
C17 C18 1_555 1_555
C19 C24 1_555 1_555
C23 C24 1_555 1_555
C26 C31 1_555 1_555
C30 C31 1_555 1_555
C37 C38 1_555 1_555
C45 C46 1_555 1_555
C46 C50 1_555 1_555
C49 C50 1_555 1_555
C54 C55 1_555 1_555
C55 C56 1_555 1_555
C57 C58 1_555 1_555
C61 C62 1_555 1_555
C64 C69 1_555 1_555
C68 C69 1_555 1_555
C75 C76 1_555 1_555

#END
