
#######################################################################
#
#                 Cambridge Crystallographic Data Centre
#                                CCDC 
#
#######################################################################
#
# If this CIF has been generated from an entry in the Cambridge 
# Structural Database, then it will include bibliographic, chemical, 
# crystal, experimental, refinement or atomic coordinate data resulting 
# from the CCDC's data processing and validation procedures.
#
#######################################################################

data_CIRWAD
_symmetry_cell_setting           monoclinic
_symmetry_space_group_name_H-M   'P 21'
_symmetry_Int_Tables_number      4
_space_group_name_Hall           'P 2yb'
loop_
_symmetry_equiv_pos_site_id
_symmetry_equiv_pos_as_xyz
1 x,y,z
2 -x,1/2+y,-z
_cell_length_a                   12.4080(6)
_cell_length_b                   20.4024(9)
_cell_length_c                   15.0189(9)
_cell_angle_alpha                90
_cell_angle_beta                 92.969(5)
_cell_angle_gamma                90
_cell_volume                     3796.98
loop_
_atom_site_label
_atom_site_type_symbol
_atom_site_fract_x
_atom_site_fract_y
_atom_site_fract_z
Fe1 Fe 0.79358(16) 0.63471(8) 1.39383(13)
Fe2 Fe 0.78973(16) 0.29389(8) 0.89533(14)
Mn1 Mn 0.74197(16) 0.50490(9) 1.08406(14)
Mn2 Mn 0.74772(16) 0.42527(9) 0.58516(15)
O1 O 0.9508(8) 0.7952(6) 1.3151(7)
O2 O 0.7164(7) 0.5765(5) 1.0046(6)
O3 O 0.5951(7) 0.4874(5) 1.0971(7)
O4 O 0.9579(8) 0.1385(5) 0.8246(7)
O5 O 0.6012(8) 0.4485(6) 0.5943(8)
O6 O 0.7164(8) 0.3517(5) 0.5135(7)
N1 N 0.7555(9) 0.5744(6) 1.2044(9)
N2 N 0.7629(10) 0.4931(6) 1.4643(9)
N3 N 0.8166(12) 0.6766(8) 1.5911(10)
N4 N 0.6426(9) 0.6629(6) 1.3905(8)
N5 N 0.8168(9) 0.7188(6) 1.3488(8)
N6 N 0.9511(9) 0.6291(7) 1.3922(8)
N7 N 0.7842(9) 0.4311(6) 1.1657(8)
N8 N 0.9014(9) 0.5103(6) 1.0748(8)
N9 N 0.7455(10) 0.4314(6) 0.9698(8)
N10 N 0.8085(13) 0.2494(7) 1.0942(11)
N11 N 0.7558(10) 0.3617(6) 0.7124(9)
N12 N 0.6388(9) 0.2634(6) 0.8907(8)
N13 N 0.8179(9) 0.2088(5) 0.8526(8)
N14 N 0.9483(10) 0.3010(6) 0.8939(8)
N15 N 0.9068(10) 0.4113(6) 0.5825(8)
N16 N 0.7968(10) 0.5046(6) 0.6564(8)
C1 C 0.7731(11) 0.5954(7) 1.2740(10)
C2 C 0.7720(12) 0.5457(8) 1.4371(10)
C3 C 0.8084(12) 0.6619(8) 1.5205(11)
C4 C 1.0127(13) 0.5803(9) 1.4146(11)
H1 H 0.9858 0.5396 1.4302
C5 C 1.1331(14) 0.5945(10) 1.4134(11)
H2 H 1.1796 0.5596 1.4265
C6 C 1.1760(11) 0.6483(9) 1.3965(10)
H3 H 1.2504 0.6546 1.4001
C7 C 1.1092(11) 0.6941(9) 1.3739(11)
H4 H 1.1372 0.7350 1.3605
C8 C 0.9977(12) 0.6865(8) 1.3681(10)
C9 C 0.9205(12) 0.7391(8) 1.3415(11)
C10 C 0.7255(12) 0.7578(7) 1.3322(10)
C11 C 0.7178(13) 0.8200(8) 1.2960(11)
H5 H 0.7775 0.8409 1.2738
C12 C 0.6125(14) 0.8517(8) 1.2938(11)
H6 H 0.6066 0.8949 1.2745
C13 C 0.5228(15) 0.8203(9) 1.3191(12)
H7 H 0.4565 0.8414 1.3116
C14 C 0.5259(14) 0.7579(9) 1.3556(11)
C15 C 0.4379(13) 0.7192(10) 1.3833(11)
H8 H 0.3692 0.7375 1.3831
C16 C 0.4521(13) 0.6583(9) 1.4089(11)
H9 H 0.3937 0.6324 1.4227
C17 C 0.5564(12) 0.6332(9) 1.4150(10)
H10 H 0.5653 0.5913 1.4388
C18 C 0.6294(12) 0.7255(8) 1.3604(10)
C19 C 0.9593(10) 0.4551(7) 1.1209(9)
H11 H 0.9564 0.4174 1.0804
C20 C 0.8945(9) 0.4379(6) 1.2008(9)
H12 H 0.8984 0.4746 1.2429
C21 C 0.9413(13) 0.3782(8) 1.2461(11)
H13 H 0.9357 0.3410 1.2060
H14 H 0.9016 0.3681 1.2984
C22 C 1.0646(12) 0.3915(8) 1.2747(11)
H15 H 1.0697 0.4278 1.3165
H16 H 1.0953 0.3530 1.3043
C23 C 1.1272(11) 0.4074(8) 1.1945(11)
H17 H 1.1247 0.3706 1.1537
H18 H 1.2021 0.4157 1.2128
C24 C 1.0782(12) 0.4684(8) 1.1476(12)
H19 H 1.0839 0.5058 1.1874
H20 H 1.1174 0.4784 1.0950
C25 C 0.7253(12) 0.3818(8) 1.1837(10)
H21 H 0.7570 0.3475 1.2164
C26 C 0.6176(12) 0.3768(8) 1.1574(10)
C27 C 0.5614(13) 0.3158(9) 1.1726(12)
H22 H 0.5978 0.2812 1.2011
C28 C 0.4565(14) 0.3089(9) 1.1454(12)
H23 H 0.4243 0.2684 1.1540
C29 C 0.3923(13) 0.3588(8) 1.1049(11)
H24 H 0.3195 0.3522 1.0896
C30 C 0.4419(12) 0.4171(9) 1.0891(11)
H25 H 0.4020 0.4504 1.0608
C31 C 0.5524(11) 0.4288(8) 1.1143(10)
C32 C 0.9499(13) 0.5546(8) 1.0310(10)
H26 H 1.0249 0.5529 1.0326
C33 C 0.8983(12) 0.6071(7) 0.9793(10)
C34 C 0.9652(13) 0.6494(7) 0.9318(10)
H27 H 1.0392 0.6417 0.9343
C35 C 0.9274(13) 0.6989(8) 0.8844(11)
H28 H 0.9742 0.7277 0.8578
C36 C 0.8164(14) 0.7080(8) 0.8745(12)
H29 H 0.7890 0.7429 0.8405
C37 C 0.7465(13) 0.6661(8) 0.9144(12)
H30 H 0.6725 0.6730 0.9073
C38 C 0.7852(13) 0.6142(7) 0.9645(11)
C39 C 0.7604(12) 0.3798(8) 0.9423(11)
C40 C 0.8021(12) 0.2670(8) 1.0204(11)
C41 C 0.7693(11) 0.3362(7) 0.7781(10)
C42 C 1.0144(13) 0.3529(8) 0.9129(10)
H31 H 0.9835 0.3937 0.9223
C43 C 1.1221(13) 0.3478(9) 0.9186(11)
H32 H 1.1645 0.3840 0.9341
C44 C 1.1665(11) 0.2922(8) 0.9025(10)
H33 H 1.2413 0.2883 0.9075
C45 C 1.1095(13) 0.2428(9) 0.8801(11)
H34 H 1.1440 0.2038 0.8666
C46 C 0.9950(12) 0.2447(8) 0.8746(10)
C47 C 0.7276(12) 0.1687(7) 0.8355(10)
C48 C 0.7249(13) 0.1073(7) 0.8052(11)
H35 H 0.7894 0.0865 0.7933
C49 C 0.6328(14) 0.0749(9) 0.7914(12)
H36 H 0.6355 0.0332 0.7667
C50 C 0.5342(15) 0.0991(9) 0.8112(12)
H37 H 0.4717 0.0742 0.8043
C51 C 0.5327(14) 0.1675(8) 0.8443(11)
C52 C 0.4395(14) 0.1996(9) 0.8702(12)
H38 H 0.3723 0.1796 0.8622
C53 C 0.4487(14) 0.2601(9) 0.9072(12)
H39 H 0.3883 0.2803 0.9289
C54 C 0.6315(12) 0.2011(8) 0.8564(10)
C55 C 0.5499(11) 0.2928(9) 0.9130(10)
H40 H 0.5534 0.3359 0.9330
C56 C 0.9665(10) 0.4488(6) 0.6538(9)
H41 H 0.9580 0.4260 0.7104
C57 C 0.9153(10) 0.5149(6) 0.6600(9)
H42 H 0.9324 0.5394 0.6064
C58 C 0.9655(12) 0.5519(9) 0.7402(10)
H43 H 0.9323 0.5949 0.7432
H44 H 0.9501 0.5284 0.7943
C59 C 1.0812(11) 0.5597(8) 0.7364(11)
H45 H 1.1093 0.5807 0.7907
H46 H 1.0964 0.5880 0.6867
C60 C 1.1392(12) 0.4929(7) 0.7252(10)
H47 H 1.1321 0.4662 0.7780
H48 H 1.2153 0.5000 0.7171
C61 C 1.0859(12) 0.4576(8) 0.6418(12)
H49 H 1.0965 0.4834 0.5888
H50 H 1.1195 0.4152 0.6344
C62 C 0.9519(12) 0.3678(7) 0.5352(10)
H51 H 1.0269 0.3662 0.5393
C63 C 0.8979(12) 0.3214(7) 0.4767(10)
C64 C 0.9633(13) 0.2773(7) 0.4325(11)
H52 H 1.0375 0.2779 0.4448
C65 C 0.9183(15) 0.2315(8) 0.3691(12)
H53 H 0.9614 0.2034 0.3376
C66 C 0.8067(14) 0.2313(8) 0.3572(13)
H54 H 0.7748 0.2034 0.3146
C67 C 0.7405(14) 0.2708(8) 0.4059(12)
H55 H 0.6660 0.2680 0.3966
C68 C 0.7855(13) 0.3153(7) 0.4697(11)
C69 C 0.7335(13) 0.5487(9) 0.6811(10)
H56 H 0.7639 0.5819 0.7166
C70 C 0.6150(13) 0.5533(9) 0.6594(11)
C71 C 0.5650(15) 0.6121(10) 0.6832(12)
H57 H 0.6075 0.6444 0.7112
C72 C 0.4601(15) 0.6242(10) 0.6679(12)
H58 H 0.4276 0.6637 0.6820
C73 C 0.4045(13) 0.5720(9) 0.6288(11)
H59 H 0.3307 0.5776 0.6174
C74 C 0.4479(12) 0.5120(9) 0.6048(11)
H60 H 0.4037 0.4789 0.5809
C75 C 0.5589(12) 0.5025(9) 0.6172(11)
C76 C 0.9196(12) 0.1900(7) 0.8465(10)
Mn2_2 Mn 0.74772(16) 0.42527(9) 1.58516(15)
N2_2 N 0.7629(10) 0.4931(6) 0.4643(9)
O7 O 0.249(2) 0.4463(16) 0.4446(18)
N17 N 0.376(3) 0.3744(17) 0.4129(17)
C77 C 0.389(3) 0.303(2) 0.407(2)
H61 H 0.4294 0.2924 0.3562
H62 H 0.3196 0.2826 0.4017
H63 H 0.4277 0.2874 0.4603
C78 C 0.459(3) 0.422(2) 0.388(2)
H64 H 0.5293 0.4060 0.4048
H65 H 0.4472 0.4633 0.4175
H66 H 0.4532 0.4292 0.3243
C79 C 0.279(4) 0.389(2) 0.442(2)
H67 H 0.2345 0.3554 0.4612
O8 O 0.2164(12) 0.5065(8) 0.9539(10)
N18 N 0.3735(15) 0.5563(10) 0.9190(12)
C80 C 0.4231(18) 0.4988(11) 0.8766(14)
H68 H 0.3748 0.4621 0.8781
H69 H 0.4899 0.4880 0.9084
H70 H 0.4368 0.5090 0.8158
C81 C 0.4325(16) 0.6196(12) 0.9248(14)
H71 H 0.4437 0.6354 0.8658
H72 H 0.5010 0.6133 0.9563
H73 H 0.3909 0.6510 0.9559
C82 C 0.2737(16) 0.5572(13) 0.9529(13)
H74 H 0.2475 0.5962 0.9757
loop_
_geom_bond_atom_site_label_1
_geom_bond_atom_site_label_2
_geom_bond_site_symmetry_1
_geom_bond_site_symmetry_2
Fe1 N4 1_555 1_555
Fe2 N12 1_555 1_555
Mn1 O2 1_555 1_555
Mn2 O5 1_555 1_555
O1 C9 1_555 1_555
O2 C38 1_555 1_555
O3 Mn1 1_555 1_555
O4 C76 1_555 1_555
O5 C75 1_555 1_555
O6 Mn2 1_555 1_555
N1 Mn1 1_555 1_555
N2 C2 1_555 1_555
N3 C3 1_555 1_555
N4 C17 1_555 1_555
N5 Fe1 1_555 1_555
N6 Fe1 1_555 1_555
N7 Mn1 1_555 1_555
N8 Mn1 1_555 1_555
N9 Mn1 1_555 1_555
N10 C40 1_555 1_555
N11 Mn2 1_555 1_555
N12 C54 1_555 1_555
N13 Fe2 1_555 1_555
N14 Fe2 1_555 1_555
N15 Mn2 1_555 1_555
N16 Mn2 1_555 1_555
C1 Fe1 1_555 1_555
C2 Fe1 1_555 1_555
C3 Fe1 1_555 1_555
C4 N6 1_555 1_555
H1 C4 1_555 1_555
C5 C4 1_555 1_555
H2 C5 1_555 1_555
C6 C5 1_555 1_555
H3 C6 1_555 1_555
C7 C6 1_555 1_555
H4 C7 1_555 1_555
C8 N6 1_555 1_555
C9 N5 1_555 1_555
C10 N5 1_555 1_555
C11 C10 1_555 1_555
H5 C11 1_555 1_555
C12 C11 1_555 1_555
H6 C12 1_555 1_555
C13 C12 1_555 1_555
H7 C13 1_555 1_555
C14 C13 1_555 1_555
C15 C14 1_555 1_555
H8 C15 1_555 1_555
C16 C15 1_555 1_555
H9 C16 1_555 1_555
C17 C16 1_555 1_555
H10 C17 1_555 1_555
C18 N4 1_555 1_555
C19 N8 1_555 1_555
H11 C19 1_555 1_555
C20 N7 1_555 1_555
H12 C20 1_555 1_555
C21 C20 1_555 1_555
H13 C21 1_555 1_555
H14 C21 1_555 1_555
C22 C21 1_555 1_555
H15 C22 1_555 1_555
H16 C22 1_555 1_555
C23 C22 1_555 1_555
H17 C23 1_555 1_555
H18 C23 1_555 1_555
C24 C19 1_555 1_555
H19 C24 1_555 1_555
H20 C24 1_555 1_555
C25 N7 1_555 1_555
H21 C25 1_555 1_555
C26 C25 1_555 1_555
C27 C26 1_555 1_555
H22 C27 1_555 1_555
C28 C27 1_555 1_555
H23 C28 1_555 1_555
C29 C28 1_555 1_555
H24 C29 1_555 1_555
C30 C29 1_555 1_555
H25 C30 1_555 1_555
C31 O3 1_555 1_555
C32 N8 1_555 1_555
H26 C32 1_555 1_555
C33 C32 1_555 1_555
C34 C33 1_555 1_555
H27 C34 1_555 1_555
C35 C34 1_555 1_555
H28 C35 1_555 1_555
C36 C35 1_555 1_555
H29 C36 1_555 1_555
C37 C36 1_555 1_555
H30 C37 1_555 1_555
C38 C33 1_555 1_555
C39 Fe2 1_555 1_555
C40 Fe2 1_555 1_555
C41 Fe2 1_555 1_555
C42 N14 1_555 1_555
H31 C42 1_555 1_555
C43 C42 1_555 1_555
H32 C43 1_555 1_555
C44 C43 1_555 1_555
H33 C44 1_555 1_555
C45 C44 1_555 1_555
H34 C45 1_555 1_555
C46 N14 1_555 1_555
C47 N13 1_555 1_555
C48 C47 1_555 1_555
H35 C48 1_555 1_555
C49 C48 1_555 1_555
H36 C49 1_555 1_555
C50 C49 1_555 1_555
H37 C50 1_555 1_555
C51 C50 1_555 1_555
C52 C51 1_555 1_555
H38 C52 1_555 1_555
C53 C52 1_555 1_555
H39 C53 1_555 1_555
C54 C47 1_555 1_555
C55 N12 1_555 1_555
H40 C55 1_555 1_555
C56 N15 1_555 1_555
H41 C56 1_555 1_555
C57 N16 1_555 1_555
H42 C57 1_555 1_555
C58 C57 1_555 1_555
H43 C58 1_555 1_555
H44 C58 1_555 1_555
C59 C58 1_555 1_555
H45 C59 1_555 1_555
H46 C59 1_555 1_555
C60 C59 1_555 1_555
H47 C60 1_555 1_555
H48 C60 1_555 1_555
C61 C56 1_555 1_555
H49 C61 1_555 1_555
H50 C61 1_555 1_555
C62 N15 1_555 1_555
H51 C62 1_555 1_555
C63 C62 1_555 1_555
C64 C63 1_555 1_555
H52 C64 1_555 1_555
C65 C64 1_555 1_555
H53 C65 1_555 1_555
C66 C65 1_555 1_555
H54 C66 1_555 1_555
C67 C66 1_555 1_555
H55 C67 1_555 1_555
C68 O6 1_555 1_555
C69 N16 1_555 1_555
H56 C69 1_555 1_555
C70 C69 1_555 1_555
C71 C70 1_555 1_555
H57 C71 1_555 1_555
C72 C71 1_555 1_555
H58 C72 1_555 1_555
C73 C72 1_555 1_555
H59 C73 1_555 1_555
C74 C73 1_555 1_555
H60 C74 1_555 1_555
C75 C70 1_555 1_555
C76 N13 1_555 1_555
O7 C79 1_555 1_555
N17 C77 1_555 1_555
C77 H61 1_555 1_555
H62 C77 1_555 1_555
H63 C77 1_555 1_555
C78 N17 1_555 1_555
H64 C78 1_555 1_555
H65 C78 1_555 1_555
H66 C78 1_555 1_555
C79 N17 1_555 1_555
H67 C79 1_555 1_555
O8 C82 1_555 1_555
N18 C80 1_555 1_555
C80 H68 1_555 1_555
H69 C80 1_555 1_555
H70 C80 1_555 1_555
C81 N18 1_555 1_555
H71 C81 1_555 1_555
H72 C81 1_555 1_555
H73 C81 1_555 1_555
C82 N18 1_555 1_555
H74 C82 1_555 1_555
Mn2_2 N2 1_555 1_555
N2_2 Mn2 1_555 1_555
N1 C1 1_555 1_555
N9 C39 1_555 1_555
N11 C41 1_555 1_555
C7 C8 1_555 1_555
C8 C9 1_555 1_555
C10 C18 1_555 1_555
C14 C18 1_555 1_555
C19 C20 1_555 1_555
C23 C24 1_555 1_555
C26 C31 1_555 1_555
C30 C31 1_555 1_555
C37 C38 1_555 1_555
C45 C46 1_555 1_555
C46 C76 1_555 1_555
C51 C54 1_555 1_555
C53 C55 1_555 1_555
C56 C57 1_555 1_555
C60 C61 1_555 1_555
C63 C68 1_555 1_555
C67 C68 1_555 1_555
C74 C75 1_555 1_555

#END
