
#######################################################################
#
#                 Cambridge Crystallographic Data Centre
#                                CCDC 
#
#######################################################################
#
# If this CIF has been generated from an entry in the Cambridge 
# Structural Database, then it will include bibliographic, chemical, 
# crystal, experimental, refinement or atomic coordinate data resulting 
# from the CCDC's data processing and validation procedures.
#
#######################################################################

data_CIRXUX
_symmetry_cell_setting           monoclinic
_symmetry_space_group_name_H-M   'C 2/c'
_symmetry_Int_Tables_number      15
_space_group_name_Hall           '-C 2yn'
loop_
_symmetry_equiv_pos_site_id
_symmetry_equiv_pos_as_xyz
1 x,y,z
2 1/2+x,1/2+y,z
3 -x,y,1/2-z
4 1/2-x,1/2+y,1/2-z
5 -x,-y,-z
6 1/2-x,1/2-y,-z
7 x,-y,1/2+z
8 1/2+x,1/2-y,1/2+z
_cell_length_a                   19.3590(13)
_cell_length_b                   16.5100(9)
_cell_length_c                   14.6392(7)
_cell_angle_alpha                90
_cell_angle_beta                 111.844(3)
_cell_angle_gamma                90
_cell_volume                     4342.99
loop_
_atom_site_label
_atom_site_type_symbol
_atom_site_fract_x
_atom_site_fract_y
_atom_site_fract_z
Mn1 Mn 0.169850(15) 0.162840(17) -0.28842(2)
O1 O 0.24244(7) 0.58370(8) -0.25961(10)
O2 O 0.15659(9) 0.67787(8) -0.29226(12)
O3 O 0.18256(7) 0.29581(8) -0.28043(10)
O4 O 0.06964(8) 0.25534(8) -0.34206(11)
O5 O -0.09599(9) 0.58727(12) -0.42407(17)
O6 O -0.12192(8) 0.46120(11) -0.43665(15)
N1 N -0.07865(10) 0.51664(13) -0.41464(14)
N2 N 0.08976(8) 0.06004(10) -0.33072(11)
N3 N 0.17448(8) 0.16318(10) -0.44299(11)
N4 N 0.16835(8) 0.16746(10) -0.13193(11)
C1 C 0.12165(10) 0.54004(11) -0.31399(13)
C2 C 0.14228(10) 0.45930(11) -0.30347(13)
H1 H 0.1927 0.4467 -0.2783
C3 C 0.09180(10) 0.39717(11) -0.32843(13)
C4 C 0.01871(10) 0.41607(11) -0.36486(14)
H2 H -0.0174 0.3757 -0.3824
C5 C -0.00089(9) 0.49671(12) -0.37529(14)
C6 C 0.04841(11) 0.55897(11) -0.35048(14)
H3 H 0.0325 0.6126 -0.3583
C7 C 0.17690(11) 0.60706(12) -0.28680(14)
C8 C 0.11587(11) 0.31029(11) -0.31625(14)
C9 C 0.10953(11) -0.01728(14) -0.31709(17)
H4 H 0.1601 -0.0291 -0.2898
C10 C 0.06109(14) -0.08047(14) -0.34024(19)
H5 H 0.0778 -0.1337 -0.3294
C11 C -0.01131(13) -0.06332(16) -0.37911(18)
H6 H -0.0466 -0.1045 -0.3959
C12 C -0.03231(12) 0.01519(16) -0.39365(19)
H7 H -0.0826 0.0283 -0.4211
C13 C 0.01903(11) 0.07468(13) -0.36876(17)
H8 H 0.0031 0.1282 -0.3793
C14 C 0.14824(12) 0.22378(13) -0.50623(15)
H9 H 0.1221 0.2647 -0.4895
C15 C 0.15728(12) 0.22971(14) -0.59469(15)
H10 H 0.1378 0.2734 -0.6365
C16 C 0.19524(12) 0.17054(16) -0.61953(16)
H11 H 0.2032 0.1731 -0.6783
C17 C 0.22194(12) 0.10629(15) -0.55592(17)
H12 H 0.2475 0.0642 -0.5717
C18 C 0.21036(11) 0.10525(13) -0.46952(15)
H13 H 0.2286 0.0616 -0.4272
C19 C 0.22171(11) 0.13344(13) -0.05693(15)
H14 H 0.2558 0.1006 -0.0705
C20 C 0.23018(12) 0.14349(14) 0.04018(15)
H15 H 0.2685 0.1174 0.0900
C21 C 0.18193(12) 0.19181(14) 0.06216(15)
H16 H 0.1870 0.2014 0.1270
C22 C 0.12592(12) 0.22553(14) -0.01431(16)
H17 H 0.0907 0.2577 -0.0026
C23 C 0.12106(11) 0.21237(13) -0.10914(15)
H18 H 0.0822 0.2366 -0.1601
Mn1C Mn 0.330150(15) 0.662840(17) -0.21158(2)
O1C O 0.25756(7) 0.08370(8) -0.24039(10)
loop_
_geom_bond_atom_site_label_1
_geom_bond_atom_site_label_2
_geom_bond_site_symmetry_1
_geom_bond_site_symmetry_2
Mn1 O3 1_555 1_555
O1 C7 1_555 1_555
O2 C7 1_555 1_555
O3 C8 1_555 1_555
O4 Mn1 1_555 1_555
O5 N1 1_555 1_555
O6 N1 1_555 1_555
N1 C5 1_555 1_555
N2 Mn1 1_555 1_555
N3 Mn1 1_555 1_555
N4 Mn1 1_555 1_555
C1 C2 1_555 1_555
C2 H1 1_555 1_555
C3 C2 1_555 1_555
C4 C3 1_555 1_555
H2 C4 1_555 1_555
C5 C4 1_555 1_555
C6 C1 1_555 1_555
H3 C6 1_555 1_555
C7 C1 1_555 1_555
C8 O4 1_555 1_555
C9 N2 1_555 1_555
H4 C9 1_555 1_555
C10 C9 1_555 1_555
H5 C10 1_555 1_555
C11 C10 1_555 1_555
H6 C11 1_555 1_555
C12 C11 1_555 1_555
H7 C12 1_555 1_555
C13 N2 1_555 1_555
H8 C13 1_555 1_555
C14 N3 1_555 1_555
H9 C14 1_555 1_555
C15 C14 1_555 1_555
H10 C15 1_555 1_555
C16 C15 1_555 1_555
H11 C16 1_555 1_555
C17 C16 1_555 1_555
H12 C17 1_555 1_555
C18 N3 1_555 1_555
H13 C18 1_555 1_555
C19 N4 1_555 1_555
H14 C19 1_555 1_555
C20 C19 1_555 1_555
H15 C20 1_555 1_555
C21 C20 1_555 1_555
H16 C21 1_555 1_555
C22 C21 1_555 1_555
H17 C22 1_555 1_555
C23 N4 1_555 1_555
H18 C23 1_555 1_555
Mn1C O1 1_555 1_555
O1C Mn1 1_555 1_555
C3 C8 1_555 1_555
C5 C6 1_555 1_555
C12 C13 1_555 1_555
C17 C18 1_555 1_555
C22 C23 1_555 1_555

#END
