
#######################################################################
#
#                 Cambridge Crystallographic Data Centre
#                                CCDC 
#
#######################################################################
#
# If this CIF has been generated from an entry in the Cambridge 
# Structural Database, then it will include bibliographic, chemical, 
# crystal, experimental, refinement or atomic coordinate data resulting 
# from the CCDC's data processing and validation procedures.
#
#######################################################################

data_CIRYAE
_symmetry_cell_setting           monoclinic
_symmetry_space_group_name_H-M   'C 2/c'
_symmetry_Int_Tables_number      15
_space_group_name_Hall           '-C 2yn'
loop_
_symmetry_equiv_pos_site_id
_symmetry_equiv_pos_as_xyz
1 x,y,z
2 1/2+x,1/2+y,z
3 -x,y,1/2-z
4 1/2-x,1/2+y,1/2-z
5 -x,-y,-z
6 1/2-x,1/2-y,-z
7 x,-y,1/2+z
8 1/2+x,1/2-y,1/2+z
_cell_length_a                   19.797(4)
_cell_length_b                   16.256(3)
_cell_length_c                   14.619(3)
_cell_angle_alpha                90
_cell_angle_beta                 111.82(3)
_cell_angle_gamma                90
_cell_volume                     4367.63
loop_
_atom_site_label
_atom_site_type_symbol
_atom_site_fract_x
_atom_site_fract_y
_atom_site_fract_z
O1 O 0.1670(3) 0.8359(4) 0.7037(5)
Co1 Co 0.16689(3) 0.16421(4) 0.71050(4)
O2 O 0.07684(18) 0.2539(2) 0.6629(3)
O3 O 0.18900(17) 0.2967(2) 0.7232(2)
O4 O 0.24367(16) 0.5928(2) 0.7425(2)
O5 O 0.1538(2) 0.6857(2) 0.7071(3)
O6 O -0.0968(2) 0.5843(3) 0.5723(5)
O7 O -0.1187(2) 0.4567(3) 0.5638(4)
N1 N -0.07694(19) 0.5125(3) 0.5851(3)
N2 N 0.1717(2) 0.1651(2) 0.5629(3)
N3 N 0.0938(2) 0.0620(3) 0.6738(3)
N4 N 0.16812(19) 0.1696(2) 0.8619(3)
C1 C 0.0971(2) 0.3987(3) 0.6746(3)
C2 C 0.1458(2) 0.4626(3) 0.6991(3)
H1 H 0.1952 0.4504 0.7247
C3 C 0.1247(2) 0.5439(3) 0.6876(3)
C4 C 0.0484(2) 0.5619(3) 0.6490(3)
H2 H 0.0316 0.6158 0.6401
C5 C 0.0015(2) 0.4975(2) 0.6258(3)
C6 C 0.0239(2) 0.4152(3) 0.6372(3)
H3 H -0.0100 0.3728 0.6199
C7 C 0.1244(2) 0.3116(3) 0.6888(3)
C8 C 0.1766(2) 0.6155(3) 0.7147(3)
C9 C 0.1455(3) 0.2258(3) 0.4987(4)
H4 H 0.1205 0.2680 0.5153
C10 C 0.1531(3) 0.2299(3) 0.4087(4)
H5 H 0.1316 0.2723 0.3649
C11 C 0.1918(3) 0.1719(4) 0.3856(4)
H6 H 0.2000 0.1754 0.3270
C12 C 0.2194(3) 0.1071(4) 0.4490(4)
H7 H 0.2438 0.0642 0.4325
C13 C 0.2099(3) 0.1078(4) 0.5373(4)
H8 H 0.2313 0.0659 0.5820
C14 C 0.1137(3) -0.0162(3) 0.6875(4)
H9 H 0.1633 -0.0277 0.7146
C15 C 0.0672(3) -0.0801(4) 0.6650(4)
H10 H 0.0844 -0.1339 0.6769
C16 C -0.0055(3) -0.0644(4) 0.6243(4)
H11 H -0.0390 -0.1073 0.6077
C17 C -0.0277(3) 0.0131(4) 0.6087(5)
H12 H -0.0772 0.0248 0.5808
C18 C 0.0218(3) 0.0764(4) 0.6335(4)
H13 H 0.0052 0.1303 0.6222
C19 C 0.2208(3) 0.1340(3) 0.9359(4)
H14 H 0.2553 0.1031 0.9219
C20 C 0.2270(3) 0.1406(4) 1.0339(4)
H15 H 0.2636 0.1127 1.0833
C21 C 0.1801(3) 0.1873(3) 1.0556(4)
H16 H 0.1852 0.1953 1.1209
C22 C 0.1239(3) 0.2235(4) 0.9805(4)
H17 H 0.0884 0.2533 0.9934
C23 C 0.1214(3) 0.2149(3) 0.8867(4)
H18 H 0.0847 0.2424 0.8367
Co1C Co 0.33311(3) 0.66421(4) 0.78950(4)
O4C O 0.25633(16) 0.0928(2) 0.7575(2)
loop_
_geom_bond_atom_site_label_1
_geom_bond_atom_site_label_2
_geom_bond_site_symmetry_1
_geom_bond_site_symmetry_2
Co1 O2 1_555 1_555
O2 C7 1_555 1_555
O3 Co1 1_555 1_555
O4 C8 1_555 1_555
O5 C8 1_555 1_555
O6 N1 1_555 1_555
O7 N1 1_555 1_555
N1 C5 1_555 1_555
N2 Co1 1_555 1_555
N3 Co1 1_555 1_555
N4 Co1 1_555 1_555
C1 C2 1_555 1_555
C2 H1 1_555 1_555
C3 C2 1_555 1_555
C4 C3 1_555 1_555
H2 C4 1_555 1_555
C5 C4 1_555 1_555
C6 C1 1_555 1_555
H3 C6 1_555 1_555
C7 O3 1_555 1_555
C8 C3 1_555 1_555
C9 N2 1_555 1_555
H4 C9 1_555 1_555
C10 C9 1_555 1_555
H5 C10 1_555 1_555
C11 C10 1_555 1_555
H6 C11 1_555 1_555
C12 C11 1_555 1_555
H7 C12 1_555 1_555
C13 N2 1_555 1_555
H8 C13 1_555 1_555
C14 N3 1_555 1_555
H9 C14 1_555 1_555
C15 C14 1_555 1_555
H10 C15 1_555 1_555
C16 C15 1_555 1_555
H11 C16 1_555 1_555
C17 C16 1_555 1_555
H12 C17 1_555 1_555
C18 N3 1_555 1_555
H13 C18 1_555 1_555
C19 N4 1_555 1_555
H14 C19 1_555 1_555
C20 C19 1_555 1_555
H15 C20 1_555 1_555
C21 C20 1_555 1_555
H16 C21 1_555 1_555
C22 C21 1_555 1_555
H17 C22 1_555 1_555
C23 N4 1_555 1_555
H18 C23 1_555 1_555
Co1C O4 1_555 1_555
O4C Co1 1_555 1_555
C1 C7 1_555 1_555
C5 C6 1_555 1_555
C12 C13 1_555 1_555
C17 C18 1_555 1_555
C22 C23 1_555 1_555

#END
