
#######################################################################
#
#                 Cambridge Crystallographic Data Centre
#                                CCDC 
#
#######################################################################
#
# If this CIF has been generated from an entry in the Cambridge 
# Structural Database, then it will include bibliographic, chemical, 
# crystal, experimental, refinement or atomic coordinate data resulting 
# from the CCDC's data processing and validation procedures.
#
#######################################################################

data_CIRYEI
_symmetry_cell_setting           monoclinic
_symmetry_space_group_name_H-M   'P 21/c'
_symmetry_Int_Tables_number      14
_space_group_name_Hall           '-P 2ybc'
loop_
_symmetry_equiv_pos_site_id
_symmetry_equiv_pos_as_xyz
1 x,y,z
2 -x,1/2+y,1/2-z
3 -x,-y,-z
4 x,1/2-y,1/2+z
_cell_length_a                   7.6882(15)
_cell_length_b                   17.861(4)
_cell_length_c                   13.219(3)
_cell_angle_alpha                90
_cell_angle_beta                 92.53(3)
_cell_angle_gamma                90
_cell_volume                     1813.45
loop_
_atom_site_label
_atom_site_type_symbol
_atom_site_fract_x
_atom_site_fract_y
_atom_site_fract_z
Cd1 Cd -0.122250(18) 0.143370(7) 0.058600(10)
O1 O -0.02167(18) 0.59732(7) 0.30595(11)
O2 O 0.1264(2) 0.49652(8) 0.35258(11)
O3 O -0.0028(2) 0.26006(7) 0.14591(11)
O4 O -0.1482(2) 0.27142(7) 0.00012(11)
O5 O -0.3796(2) 0.51091(10) -0.10607(12)
O6 O -0.3251(3) 0.61096(10) -0.02105(13)
O7 O 0.1334(2) 0.13066(11) -0.03233(12)
N1 N -0.3138(2) 0.54396(10) -0.03320(13)
N2 N -0.3665(2) 0.16087(10) 0.14931(13)
N3 N -0.6317(3) 0.18096(19) 0.1903(2)
H1 H -0.7415 0.1902 0.1841
N4 N -0.2820(2) 0.09933(9) -0.07575(12)
N5 N -0.4633(3) 0.03550(14) -0.17108(18)
H2 H -0.5248 -0.0014 -0.1944
C1 C -0.0503(2) 0.49264(10) 0.19939(13)
C2 C -0.0284(2) 0.41616(10) 0.18343(13)
H3 H 0.0364 0.3880 0.2307
C3 C -0.1020(2) 0.38156(10) 0.09774(14)
C4 C -0.1979(2) 0.42350(11) 0.02731(13)
H4 H -0.2493 0.4010 -0.0300
C5 C -0.2158(2) 0.49917(10) 0.04373(13)
C6 C -0.1443(2) 0.53487(10) 0.12810(13)
H5 H -0.1588 0.5861 0.1370
C7 C 0.0243(2) 0.53060(10) 0.29350(14)
C8 C -0.0815(3) 0.29857(11) 0.08048(15)
C9 C -0.3759(3) 0.16019(13) 0.25157(18)
H6 H -0.2820 0.1522 0.2971
C10 C -0.5393(4) 0.17260(17) 0.2774(2)
H7 H -0.5802 0.1749 0.3425
C11 C -0.5250(3) 0.1725(2) 0.1148(2)
H8 H -0.5591 0.1747 0.0465
C12 C -0.3496(3) 0.03288(14) -0.09221(19)
H9 H -0.3223 -0.0098 -0.0544
C13 C -0.4655(4) 0.10414(17) -0.20737(19)
H10 H -0.5317 0.1215 -0.2631
C14 C -0.3549(3) 0.14358(14) -0.14895(17)
H11 H -0.3311 0.1942 -0.1571
H12 H 0.141(3) 0.1728(16) -0.0754(18)
H13 H 0.125(3) 0.0970(17) -0.0639(18)
Cd1A Cd 0.122250(18) 0.643370(7) 0.441400(10)
O1A O 0.02167(18) 0.09732(7) 0.19405(11)
O8 O 0.9044(3) 0.75574(12) 0.65057(18)
H14 H 0.981(5) 0.769(2) 0.623(2)
H15 H 0.944(5) 0.754(2) 0.702(3)
loop_
_geom_bond_atom_site_label_1
_geom_bond_atom_site_label_2
_geom_bond_site_symmetry_1
_geom_bond_site_symmetry_2
Cd1 O3 1_555 1_555
O1 C7 1_555 1_555
O2 C7 1_555 1_555
O3 C8 1_555 1_555
O4 Cd1 1_555 1_555
O5 N1 1_555 1_555
O6 N1 1_555 1_555
O7 Cd1 1_555 1_555
N1 C5 1_555 1_555
N2 Cd1 1_555 1_555
N3 H1 1_555 1_555
N4 Cd1 1_555 1_555
N5 H2 1_555 1_555
C1 C2 1_555 1_555
C2 H3 1_555 1_555
C3 C2 1_555 1_555
C4 C3 1_555 1_555
H4 C4 1_555 1_555
C5 C4 1_555 1_555
C6 C1 1_555 1_555
H5 C6 1_555 1_555
C7 C1 1_555 1_555
C8 O4 1_555 1_555
C9 N2 1_555 1_555
H6 C9 1_555 1_555
C10 N3 1_555 1_555
H7 C10 1_555 1_555
C11 N2 1_555 1_555
H8 C11 1_555 1_555
C12 N4 1_555 1_555
H9 C12 1_555 1_555
C13 N5 1_555 1_555
H10 C13 1_555 1_555
C14 N4 1_555 1_555
H11 C14 1_555 1_555
H12 O7 1_555 1_555
H13 O7 1_555 1_555
O8 H14 1_555 1_555
H15 O8 1_555 1_555
Cd1A O1 1_555 1_555
O1A Cd1 1_555 1_555
N3 C11 1_555 1_555
N5 C12 1_555 1_555
C3 C8 1_555 1_555
C5 C6 1_555 1_555
C9 C10 1_555 1_555
C13 C14 1_555 1_555

#END
