
#######################################################################
#
#                 Cambridge Crystallographic Data Centre
#                                CCDC 
#
#######################################################################
#
# If this CIF has been generated from an entry in the Cambridge 
# Structural Database, then it will include bibliographic, chemical, 
# crystal, experimental, refinement or atomic coordinate data resulting 
# from the CCDC's data processing and validation procedures.
#
#######################################################################

data_CISJOE
_symmetry_cell_setting           rhombohedral
_symmetry_space_group_name_H-M   'R 3 c'
_symmetry_Int_Tables_number      161
_space_group_name_Hall           'R 3 -2"c'
loop_
_symmetry_equiv_pos_site_id
_symmetry_equiv_pos_as_xyz
1 x,y,z
2 -y,x-y,z
3 -y,-x,1/2+z
4 -x+y,-x,z
5 x,x-y,1/2+z
6 -x+y,y,1/2+z
7 2/3+x,1/3+y,1/3+z
8 2/3-y,1/3+x-y,1/3+z
9 2/3-y,1/3-x,5/6+z
10 2/3-x+y,1/3-x,1/3+z
11 2/3+x,1/3+x-y,5/6+z
12 2/3-x+y,1/3+y,5/6+z
13 1/3+x,2/3+y,2/3+z
14 1/3-y,2/3+x-y,2/3+z
15 1/3-y,2/3-x,1/6+z
16 1/3-x+y,2/3-x,2/3+z
17 1/3+x,2/3+x-y,1/6+z
18 1/3-x+y,2/3+y,1/6+z
_cell_length_a                   22.5944(4)
_cell_length_b                   22.5944(4)
_cell_length_c                   7.7592(2)
_cell_angle_alpha                90
_cell_angle_beta                 90
_cell_angle_gamma                120.00
_cell_volume                     3430.44
loop_
_atom_site_label
_atom_site_type_symbol
_atom_site_fract_x
_atom_site_fract_y
_atom_site_fract_z
Dy1 Dy 1.0000 0.0000 0.4957(2)
O1 O 0.91888(17) -0.01948(17) 0.7330(4)
O2 O 0.9219(2) 0.0429(2) 0.9522(4)
C1 C 0.8992(3) 0.0183(3) 0.8063(6)
C2 C 0.8476(2) 0.0303(3) 0.7195(6)
H1 H 0.8246 0.0044 0.6201
C3 C 0.8335(3) 0.0765(3) 0.7790(6)
H2 H 0.8562 0.0993 0.8820
C4 C 0.7863(3) 0.0968(3) 0.7031(6)
C5 C 0.7381(3) 0.0573(3) 0.5741(6)
H3 H 0.7348 0.0159 0.5347
C6 C 0.6958(3) 0.0794(3) 0.5060(7)
H4 H 0.6628 0.0526 0.4212
C7 C 0.7012(3) 0.1412(3) 0.5613(7)
H5 H 0.6727 0.1566 0.5126
C8 C 0.7478(3) 0.1790(3) 0.6855(7)
H6 H 0.7518 0.2209 0.7233
C9 C 0.7890(3) 0.1564(3) 0.7560(7)
H7 H 0.8203 0.1827 0.8442
Dy1B Dy 1.0000 0.0000 0.9957(2)
Dy1B_2 Dy 1.0000 0.0000 -0.0043(2)
O1A O 1.01948(17) -0.06164(24) 0.7330(4)
O1B O 1.01948(17) 0.08112(17) 0.2330(4)
O1C O 1.06164(24) 0.08112(17) 0.7330(4)
O1D O 0.91888(17) -0.06164(24) 0.2330(4)
O1E O 1.06164(24) -0.01948(17) 0.2330(4)
O2A O 0.9571(2) -0.1210(3) 0.9522(4)
O2B O 0.9571(2) 0.0781(2) 0.4522(4)
O2D O 0.9219(2) -0.1210(3) 0.4522(4)
O2E O 1.1210(3) 0.0429(2) 0.4522(4)
C1A C 0.9817(3) -0.1191(4) 0.8063(6)
C1B C 0.9817(3) 0.1008(3) 0.3063(6)
C2A C 0.9697(3) -0.1827(4) 0.7195(6)
C2B C 0.9697(3) 0.1524(2) 0.2195(6)
H1A H 0.9956 -0.1798 0.6201
H1B H 0.9956 0.1754 0.1201
C3A C 0.9235(3) -0.2430(4) 0.7790(6)
C3B C 0.9235(3) 0.1665(3) 0.2790(6)
H2A H 0.9007 -0.2431 0.8820
H2B H 0.9007 0.1438 0.3820
C4A C 0.9032(3) -0.3105(4) 0.7031(6)
C4B C 0.9032(3) 0.2137(3) 0.2031(6)
C5A C 0.9427(3) -0.3192(4) 0.5741(6)
C5B C 0.9427(3) 0.2619(3) 0.0741(6)
H3A H 0.9841 -0.2811 0.5347
H3B H 0.9841 0.2652 0.0347
C6A C 0.9206(3) -0.3836(4) 0.5060(7)
C6B C 0.9206(3) 0.3042(3) 0.0060(7)
H4A H 0.9474 -0.3898 0.4212
H4B H 0.9474 0.3372 -0.0788
C7A C 0.8588(3) -0.4400(4) 0.5613(7)
C7B C 0.8588(3) 0.2988(3) 0.0613(7)
H5A H 0.8434 -0.4839 0.5126
H5B H 0.8434 0.3273 0.0126
C8A C 0.8210(3) -0.4312(4) 0.6855(7)
C8B C 0.8210(3) 0.2522(3) 0.1855(7)
H6A H 0.7791 -0.4691 0.7233
H6B H 0.7791 0.2482 0.2233
C9A C 0.8436(3) -0.3674(4) 0.7560(7)
C9B C 0.8436(3) 0.2110(3) 0.2560(7)
H7A H 0.8173 -0.3624 0.8442
H7B H 0.8173 0.1797 0.3442
loop_
_geom_bond_atom_site_label_1
_geom_bond_atom_site_label_2
_geom_bond_site_symmetry_1
_geom_bond_site_symmetry_2
Dy1 O1 1_555 1_555
O1 C1 1_555 1_555
O2 C1 1_555 1_555
C1 C2 1_555 1_555
C2 H1 1_555 1_555
C3 C2 1_555 1_555
H2 C3 1_555 1_555
C4 C3 1_555 1_555
C5 C4 1_555 1_555
H3 C5 1_555 1_555
C6 C5 1_555 1_555
H4 C6 1_555 1_555
C7 C6 1_555 1_555
H5 C7 1_555 1_555
C8 C7 1_555 1_555
H6 C8 1_555 1_555
C9 C4 1_555 1_555
H7 C9 1_555 1_555
Dy1B O1 1_555 1_555
Dy1B_2 O1B 1_555 1_555
O1A Dy1 1_555 1_555
O1B Dy1 1_555 1_555
O1C Dy1 1_555 1_555
O1D Dy1 1_555 1_555
O1E Dy1 1_555 1_555
O2A Dy1B 1_555 1_555
O2B Dy1 1_555 1_555
O2D Dy1 1_555 1_555
O2E Dy1 1_555 1_555
C1A O1A 1_555 1_555
C1B O1B 1_555 1_555
C2A C1A 1_555 1_555
C2B C1B 1_555 1_555
H1A C2A 1_555 1_555
H1B C2B 1_555 1_555
C3A C2A 1_555 1_555
C3B C2B 1_555 1_555
H2A C3A 1_555 1_555
H2B C3B 1_555 1_555
C4A C3A 1_555 1_555
C4B C3B 1_555 1_555
C5A C4A 1_555 1_555
C5B C4B 1_555 1_555
H3A C5A 1_555 1_555
H3B C5B 1_555 1_555
C6A C5A 1_555 1_555
C6B C5B 1_555 1_555
H4A C6A 1_555 1_555
H4B C6B 1_555 1_555
C7A C6A 1_555 1_555
C7B C6B 1_555 1_555
H5A C7A 1_555 1_555
H5B C7B 1_555 1_555
C8A C7A 1_555 1_555
C8B C7B 1_555 1_555
H6A C8A 1_555 1_555
H6B C8B 1_555 1_555
C9A C4A 1_555 1_555
C9B C4B 1_555 1_555
H7A C9A 1_555 1_555
H7B C9B 1_555 1_555
O2 Dy1B 1_555 1_555
C8 C9 1_555 1_555
Dy1B O1A 1_555 1_555
Dy1B O1C 1_555 1_555
Dy1B_2 O1D 1_555 1_555
Dy1B_2 O1E 1_555 1_555
O2A C1A 1_555 1_555
O2B C1B 1_555 1_555
C8A C9A 1_555 1_555
C8B C9B 1_555 1_555

#END
