
#######################################################################
#
#                 Cambridge Crystallographic Data Centre
#                                CCDC 
#
#######################################################################
#
# If this CIF has been generated from an entry in the Cambridge 
# Structural Database, then it will include bibliographic, chemical, 
# crystal, experimental, refinement or atomic coordinate data resulting 
# from the CCDC's data processing and validation procedures.
#
#######################################################################

data_CISJAQ01
_symmetry_cell_setting           monoclinic
_symmetry_space_group_name_H-M   'P 21/m'
_symmetry_Int_Tables_number      11
_space_group_name_Hall           '-P 2yb'
loop_
_symmetry_equiv_pos_site_id
_symmetry_equiv_pos_as_xyz
1 x,y,z
2 -x,1/2+y,-z
3 -x,-y,-z
4 x,1/2-y,z
_cell_length_a                   4.6478(9)
_cell_length_b                   13.292(3)
_cell_length_c                   9.745(3)
_cell_angle_alpha                90
_cell_angle_beta                 95.80(3)
_cell_angle_gamma                90
_cell_volume                     598.95
loop_
_atom_site_label
_atom_site_type_symbol
_atom_site_fract_x
_atom_site_fract_y
_atom_site_fract_z
Zn1 Zn 0.17301(8) 0.61549(3) 0.31562(4)
P1 P -0.3541(2) 0.7500 0.24060(11)
O1 O 0.3136(8) 0.6247(2) 0.5148(3)
H1 H 0.211(13) 0.607(4) 0.567(6)
H2 H 0.460(19) 0.613(6) 0.537(8)
O2 O -0.2348(5) 0.6530(2) 0.3058(3)
O3 O -0.2433(6) 0.4810(2) -0.1639(3)
O4 O -0.1341(7) 0.5623(2) -0.3476(3)
C1 C -0.1939(7) 0.5617(3) -0.2220(4)
C2 C -0.2191(8) 0.6589(3) -0.1482(3)
C3 C -0.2974(10) 0.7500 0.0593(5)
O5 O -0.6853(7) 0.7500 0.2505(3)
C4 C -0.1886(11) 0.7500 -0.2169(5)
H3 H -0.1479 0.7500 -0.3084
C5 C -0.2724(7) 0.6592(3) -0.0093(3)
H4 H -0.2910 0.5987 0.0370
Zn1C Zn 0.17301(8) 0.88451(3) 0.31562(4)
Zn1_2 Zn -0.82699(8) 0.61549(3) 0.31562(4)
Zn1B Zn -0.17301(8) 0.38451(3) -0.31562(4)
Zn1C_2 Zn -0.82699(8) 0.88451(3) 0.31562(4)
Zn1A Zn -0.17301(8) 1.11549(3) -0.31562(4)
O1C O 0.3136(8) 0.8753(2) 0.5148(3)
H1C H 0.211(13) 0.893(4) 0.567(6)
H2C H 0.460(19) 0.887(6) 0.537(8)
O2C O -0.2348(5) 0.8470(2) 0.3058(3)
O2_2 O 0.7652(5) 0.6530(2) 0.3058(3)
O2C_2 O 0.7652(5) 0.8470(2) 0.3058(3)
O3C O -0.2433(6) 1.0190(2) -0.1639(3)
O3B O 0.2433(6) 0.5190(2) 0.1639(3)
O3A O 0.2433(6) 0.9810(2) 0.1639(3)
O4C O -0.1341(7) 0.9377(2) -0.3476(3)
O4B O 0.1341(7) 0.4377(2) 0.3476(3)
O4A O 0.1341(7) 1.0623(2) 0.3476(3)
C1C C -0.1939(7) 0.9383(3) -0.2220(4)
C2C C -0.2191(8) 0.8411(3) -0.1482(3)
O5_2 O 0.3147(7) 0.7500 0.2505(3)
C5C C -0.2724(7) 0.8408(3) -0.0093(3)
H4C H -0.2910 0.9013 0.0370
loop_
_geom_bond_atom_site_label_1
_geom_bond_atom_site_label_2
_geom_bond_site_symmetry_1
_geom_bond_site_symmetry_2
Zn1 O1 1_555 1_555
P1 O2 1_555 1_555
O1 H1 1_555 1_555
H2 O1 1_555 1_555
O2 Zn1 1_555 1_555
O3 C1 1_555 1_555
O4 C1 1_555 1_555
C1 C2 1_555 1_555
C2 C4 1_555 1_555
C3 P1 1_555 1_555
O5 P1 1_555 1_555
C4 H3 1_555 1_555
C5 C2 1_555 1_555
H4 C5 1_555 1_555
Zn1C O1C 1_555 1_555
Zn1_2 O2 1_555 1_555
Zn1B O3 1_555 1_555
Zn1C_2 O5 1_555 1_555
Zn1A O3C 1_555 1_555
O1C H1C 1_555 1_555
H2C O1C 1_555 1_555
O2C P1 1_555 1_555
O2_2 Zn1 1_555 1_555
O2C_2 Zn1C 1_555 1_555
O3C C1C 1_555 1_555
O3B Zn1 1_555 1_555
O3A Zn1C 1_555 1_555
O4C Zn1A 1_555 1_555
O4B Zn1 1_555 1_555
O4A Zn1C 1_555 1_555
C1C O4C 1_555 1_555
C2C C4 1_555 1_555
O5_2 Zn1 1_555 1_555
C5C C3 1_555 1_555
H4C C5C 1_555 1_555
O4 Zn1B 1_555 1_555
C3 C5 1_555 1_555
O5 Zn1_2 1_555 1_555
Zn1C O2C 1_555 1_555
Zn1C O5_2 1_555 1_555
Zn1C_2 O2C 1_555 1_555
C1C C2C 1_555 1_555
C2C C5C 1_555 1_555

#END
