
#######################################################################
#
#                 Cambridge Crystallographic Data Centre
#                                CCDC 
#
#######################################################################
#
# If this CIF has been generated from an entry in the Cambridge 
# Structural Database, then it will include bibliographic, chemical, 
# crystal, experimental, refinement or atomic coordinate data resulting 
# from the CCDC's data processing and validation procedures.
#
#######################################################################

data_CISJIY01
_symmetry_cell_setting           monoclinic
_symmetry_space_group_name_H-M   'P 21'
_symmetry_Int_Tables_number      4
_space_group_name_Hall           'P 2yb'
loop_
_symmetry_equiv_pos_site_id
_symmetry_equiv_pos_as_xyz
1 x,y,z
2 -x,1/2+y,-z
_cell_length_a                   11.5429(10)
_cell_length_b                   7.9186(7)
_cell_length_c                   13.0625(11)
_cell_angle_alpha                90
_cell_angle_beta                 94.139(2)
_cell_angle_gamma                90
_cell_volume                     1190.85
loop_
_atom_site_label
_atom_site_type_symbol
_atom_site_fract_x
_atom_site_fract_y
_atom_site_fract_z
Y1 Y 0.46007(3) 0.54206(11) 0.52409(3)
O1 O 0.5949(3) 0.4678(4) 0.4167(2)
O2 O 0.6765(3) 0.2152(4) 0.4162(2)
O3 O 0.4595(3) 0.7688(4) 0.4115(2)
O4 O 0.5838(3) 0.9032(4) 0.3228(2)
O5 O 0.6694(3) 0.9017(4) 0.5792(2)
O6 O 0.6026(3) 0.6544(4) 0.6296(2)
C1 C 0.6823(4) 0.3736(6) 0.4112(3)
C2 C 0.7953(5) 0.4499(8) 0.3958(4)
C3 C 0.8123(6) 0.6155(8) 0.3914(5)
C4 C 0.9199(4) 0.7065(6) 0.3784(4)
C5 C 1.0281(4) 0.6294(7) 0.3839(4)
C6 C 1.1277(4) 0.7177(8) 0.3675(4)
C7 C 1.1203(5) 0.8894(7) 0.3465(4)
C8 C 1.0153(5) 0.9689(7) 0.3436(4)
C9 C 0.9157(5) 0.8812(7) 0.3604(4)
C10 C 0.5029(4) 0.8001(5) 0.3254(3)
C11 C 0.4472(4) 0.7250(6) 0.2312(3)
C12 C 0.4734(4) 0.7746(6) 0.1391(3)
C13 C 0.4153(4) 0.7276(6) 0.0395(3)
C14 C 0.3123(4) 0.6375(7) 0.0293(4)
C15 C 0.2586(5) 0.6030(7) -0.0656(4)
C16 C 0.3068(5) 0.6582(7) -0.1534(4)
C17 C 0.4085(5) 0.7477(8) -0.1446(4)
C18 C 0.4628(4) 0.7832(7) -0.0486(3)
C19 C 0.6681(4) 0.7807(6) 0.6421(3)
C20 C 0.7467(4) 0.7916(6) 0.7362(3)
C21 C 0.7379(4) 0.6925(6) 0.8165(3)
C22 C 0.8102(4) 0.6986(6) 0.9141(3)
C23 C 0.9169(4) 0.7783(7) 0.9236(4)
C24 C 0.9812(5) 0.7823(11) 1.0166(5)
C25 C 0.9409(5) 0.7063(8) 1.1011(4)
C26 C 0.8356(5) 0.6234(8) 1.0932(4)
C27 C 0.7704(5) 0.6194(7) 0.9999(4)
H1 H 0.8598 0.3772 0.3887
H2 H 0.7453 0.6836 0.3974
H3 H 1.0336 0.5124 0.3994
H4 H 1.2007 0.6618 0.3705
H5 H 1.1883 0.9514 0.3341
H6 H 1.0110 1.0866 0.3298
H7 H 0.8436 0.9391 0.3597
H8 H 0.3908 0.6386 0.2368
H9 H 0.5375 0.8496 0.1371
H10 H 0.2781 0.5989 0.0891
H11 H 0.1879 0.5410 -0.0709
H12 H 0.2698 0.6343 -0.2191
H13 H 0.4423 0.7859 -0.2046
H14 H 0.5330 0.8461 -0.0435
H15 H 0.8066 0.8742 0.7391
H16 H 0.6790 0.6086 0.8108
H17 H 0.9462 0.8308 0.8654
H18 H 1.0541 0.8384 1.0221
H19 H 0.9853 0.7106 1.1651
H20 H 0.8079 0.5691 1.1515
H21 H 0.6979 0.5621 0.9944
Y1A Y 0.53993(3) 0.04206(11) 0.47591(3)
Y1A_2 Y 0.53993(3) 1.04206(11) 0.47591(3)
O2A O 0.3235(3) 0.7152(4) 0.5838(2)
O3A O 0.5405(3) 0.2688(4) 0.5885(2)
O4A O 0.4162(3) 0.4032(4) 0.6772(2)
O5A O 0.3306(3) 0.4017(4) 0.4208(2)
loop_
_geom_bond_atom_site_label_1
_geom_bond_atom_site_label_2
_geom_bond_site_symmetry_1
_geom_bond_site_symmetry_2
Y1 O1 1_555 1_555
O1 C1 1_555 1_555
O2 C1 1_555 1_555
O3 Y1 1_555 1_555
O4 C10 1_555 1_555
O5 C19 1_555 1_555
O6 Y1 1_555 1_555
C1 C2 1_555 1_555
C2 C3 1_555 1_555
C3 C4 1_555 1_555
C4 C5 1_555 1_555
C5 C6 1_555 1_555
C6 C7 1_555 1_555
C7 C8 1_555 1_555
C8 C9 1_555 1_555
C9 C4 1_555 1_555
C10 O3 1_555 1_555
C11 C10 1_555 1_555
C12 C11 1_555 1_555
C13 C12 1_555 1_555
C14 C13 1_555 1_555
C15 C14 1_555 1_555
C16 C15 1_555 1_555
C17 C16 1_555 1_555
C18 C13 1_555 1_555
C19 O6 1_555 1_555
C20 C19 1_555 1_555
C21 C20 1_555 1_555
C22 C21 1_555 1_555
C23 C22 1_555 1_555
C24 C23 1_555 1_555
C25 C24 1_555 1_555
C26 C25 1_555 1_555
C27 C22 1_555 1_555
H1 C2 1_555 1_555
H2 C3 1_555 1_555
H3 C5 1_555 1_555
H4 C6 1_555 1_555
H5 C7 1_555 1_555
H6 C8 1_555 1_555
H7 C9 1_555 1_555
H8 C11 1_555 1_555
H9 C12 1_555 1_555
H10 C14 1_555 1_555
H11 C15 1_555 1_555
H12 C16 1_555 1_555
H13 C17 1_555 1_555
H14 C18 1_555 1_555
H15 C20 1_555 1_555
H16 C21 1_555 1_555
H17 C23 1_555 1_555
H18 C24 1_555 1_555
H19 C25 1_555 1_555
H20 C26 1_555 1_555
H21 C27 1_555 1_555
Y1A O2 1_555 1_555
Y1A_2 O3 1_555 1_555
O2A Y1 1_555 1_555
O3A Y1 1_555 1_555
O4A Y1 1_555 1_555
O5A Y1 1_555 1_555
O4 Y1A_2 1_555 1_555
O5 Y1A_2 1_555 1_555
C17 C18 1_555 1_555
C26 C27 1_555 1_555
Y1A O3A 1_555 1_555

#END
