
#######################################################################
#
#                 Cambridge Crystallographic Data Centre
#                                CCDC 
#
#######################################################################
#
# If this CIF has been generated from an entry in the Cambridge 
# Structural Database, then it will include bibliographic, chemical, 
# crystal, experimental, refinement or atomic coordinate data resulting 
# from the CCDC's data processing and validation procedures.
#
#######################################################################

data_CISJOE01
_symmetry_cell_setting           monoclinic
_symmetry_space_group_name_H-M   'P 21'
_symmetry_Int_Tables_number      4
_space_group_name_Hall           'P 2yb'
loop_
_symmetry_equiv_pos_site_id
_symmetry_equiv_pos_as_xyz
1 x,y,z
2 -x,1/2+y,-z
_cell_length_a                   11.405(4)
_cell_length_b                   7.871(3)
_cell_length_c                   12.980(4)
_cell_angle_alpha                90
_cell_angle_beta                 93.617(7)
_cell_angle_gamma                90
_cell_volume                     1162.88
loop_
_atom_site_label
_atom_site_type_symbol
_atom_site_fract_x
_atom_site_fract_y
_atom_site_fract_z
Dy1 Dy 0.45906(2) 0.49999(7) 0.52482(2)
O1 O 0.5989(4) 0.5704(6) 0.4171(4)
O2 O 0.6809(4) 0.8294(6) 0.4162(4)
O3 O 0.6005(5) 0.3872(7) 0.6337(4)
O4 O 0.6726(5) 0.1436(6) 0.5782(4)
O5 O 0.5408(4) 0.7734(6) 0.5887(4)
O6 O 0.4114(5) 0.6432(7) 0.6784(4)
C1 C 0.6876(6) 0.6716(9) 0.4109(5)
C2 C 0.8002(10) 0.5902(15) 0.3982(8)
H1 H 0.8665 0.6621 0.3932
C3 C 0.8185(11) 0.4210(16) 0.3928(8)
H2 H 0.7505 0.3521 0.3969
C4 C 0.9265(6) 0.3307(9) 0.3817(5)
C5 C 1.0355(7) 0.4100(10) 0.3854(5)
H3 H 1.0412 0.5276 0.4014
C6 C 1.1351(7) 0.3206(10) 0.3662(5)
H4 H 1.2084 0.3782 0.3664
C7 C 1.1306(8) 0.1488(10) 0.3466(6)
H5 H 1.2001 0.0871 0.3348
C8 C 1.0222(7) 0.0675(10) 0.3443(6)
H6 H 1.0178 -0.051 0.3307
C9 C 0.9204(7) 0.1565(9) 0.3615(6)
H7 H 0.8469 0.0993 0.3595
C10 C 0.6693(6) 0.2614(9) 0.6442(5)
C11 C 0.7480(7) 0.2458(10) 0.7385(5)
H8 H 0.8075 0.1611 0.7407
C12 C 0.7391(6) 0.3457(10) 0.8207(5)
H9 H 0.6793 0.4298 0.8154
C13 C 0.8112(6) 0.3399(9) 0.9179(5)
C14 C 0.9200(7) 0.2555(10) 0.9259(6)
H10 H 0.9482 0.1997 0.8674
C15 C 0.9859(8) 0.2538(15) 1.0189(6)
H11 H 1.0606 0.1998 1.023
C16 C 0.9456(7) 0.3284(11) 1.1054(6)
H12 H 0.9916 0.3239 1.169
C17 C 0.8385(8) 0.4099(11) 1.1001(6)
H13 H 0.8101 0.4611 1.1599
C18 C 0.7719(7) 0.4165(10) 1.0058(6)
H14 H 0.6987 0.4744 1.0019
C19 C 0.4948(6) 0.7434(9) 0.6768(5)
C20 C 0.5514(7) 0.8186(10) 0.7700(6)
H15 H 0.6082 0.9058 0.7644
C21 C 0.5237(6) 0.7655(9) 0.8634(5)
H16 H 0.4582 0.6914 0.8655
C22 C 0.5836(6) 0.8093(9) 0.9619(5)
C23 C 0.6890(7) 0.9021(10) 0.9722(6)
H17 H 0.7226 0.945 0.9123
C24 C 0.7446(7) 0.9317(10) 1.0681(6)
H18 H 0.8175 0.9904 1.0735
C25 C 0.6949(8) 0.8769(10) 1.1549(6)
H19 H 0.7332 0.899 1.2207
C26 C 0.5918(8) 0.7914(11) 1.1485(6)
H20 H 0.5569 0.7571 1.2097
C27 C 0.5367(7) 0.7534(10) 1.0528(6)
H21 H 0.4663 0.6885 1.0491
Dy1A Dy 0.54094(2) 0.99999(7) 0.47518(2)
Dy1A_2 Dy 0.54094(2) -0.00001(7) 0.47518(2)
O2A O 0.3191(4) 0.3294(6) 0.5838(4)
O4A O 0.3274(5) 0.6436(6) 0.4218(4)
O5A O 0.4592(4) 0.2734(6) 0.4113(4)
loop_
_geom_bond_atom_site_label_1
_geom_bond_atom_site_label_2
_geom_bond_site_symmetry_1
_geom_bond_site_symmetry_2
Dy1 O1 1_555 1_555
O1 C1 1_555 1_555
O2 C1 1_555 1_555
O3 Dy1 1_555 1_555
O4 C10 1_555 1_555
O5 Dy1 1_555 1_555
O6 Dy1 1_555 1_555
C1 C2 1_555 1_555
C2 H1 1_555 1_555
C3 C2 1_555 1_555
H2 C3 1_555 1_555
C4 C3 1_555 1_555
C5 C4 1_555 1_555
H3 C5 1_555 1_555
C6 C5 1_555 1_555
H4 C6 1_555 1_555
C7 C6 1_555 1_555
H5 C7 1_555 1_555
C8 C7 1_555 1_555
H6 C8 1_555 1_555
C9 C4 1_555 1_555
H7 C9 1_555 1_555
C10 O3 1_555 1_555
C11 C10 1_555 1_555
H8 C11 1_555 1_555
C12 C11 1_555 1_555
H9 C12 1_555 1_555
C13 C12 1_555 1_555
C14 C13 1_555 1_555
H10 C14 1_555 1_555
C15 C14 1_555 1_555
H11 C15 1_555 1_555
C16 C15 1_555 1_555
H12 C16 1_555 1_555
C17 C16 1_555 1_555
H13 C17 1_555 1_555
C18 C13 1_555 1_555
H14 C18 1_555 1_555
C19 O5 1_555 1_555
C20 C19 1_555 1_555
H15 C20 1_555 1_555
C21 C20 1_555 1_555
H16 C21 1_555 1_555
C22 C21 1_555 1_555
C23 C22 1_555 1_555
H17 C23 1_555 1_555
C24 C23 1_555 1_555
H18 C24 1_555 1_555
C25 C24 1_555 1_555
H19 C25 1_555 1_555
C26 C25 1_555 1_555
H20 C26 1_555 1_555
C27 C22 1_555 1_555
H21 C27 1_555 1_555
Dy1A O2 1_555 1_555
Dy1A_2 O4 1_555 1_555
O2A Dy1 1_555 1_555
O4A Dy1 1_555 1_555
O5A Dy1 1_555 1_555
O5 Dy1A 1_555 1_555
O6 C19 1_555 1_555
C8 C9 1_555 1_555
C17 C18 1_555 1_555
C26 C27 1_555 1_555
Dy1A_2 O5A 1_555 1_555

#END
