
#######################################################################
#
#                 Cambridge Crystallographic Data Centre
#                                CCDC 
#
#######################################################################
#
# If this CIF has been generated from an entry in the Cambridge 
# Structural Database, then it will include bibliographic, chemical, 
# crystal, experimental, refinement or atomic coordinate data resulting 
# from the CCDC's data processing and validation procedures.
#
#######################################################################

data_CISJUK
_symmetry_cell_setting           rhombohedral
_symmetry_space_group_name_H-M   'R 3 c'
_symmetry_Int_Tables_number      161
_space_group_name_Hall           'R 3 -2"c'
loop_
_symmetry_equiv_pos_site_id
_symmetry_equiv_pos_as_xyz
1 x,y,z
2 -y,x-y,z
3 -y,-x,1/2+z
4 -x+y,-x,z
5 x,x-y,1/2+z
6 -x+y,y,1/2+z
7 2/3+x,1/3+y,1/3+z
8 2/3-y,1/3+x-y,1/3+z
9 2/3-y,1/3-x,5/6+z
10 2/3-x+y,1/3-x,1/3+z
11 2/3+x,1/3+x-y,5/6+z
12 2/3-x+y,1/3+y,5/6+z
13 1/3+x,2/3+y,2/3+z
14 1/3-y,2/3+x-y,2/3+z
15 1/3-y,2/3-x,1/6+z
16 1/3-x+y,2/3-x,2/3+z
17 1/3+x,2/3+x-y,1/6+z
18 1/3-x+y,2/3+y,1/6+z
_cell_length_a                   22.6030(10)
_cell_length_b                   22.6030(10)
_cell_length_c                   7.7680(5)
_cell_angle_alpha                90
_cell_angle_beta                 90
_cell_angle_gamma                120.0
_cell_volume                     3436.94
loop_
_atom_site_label
_atom_site_type_symbol
_atom_site_fract_x
_atom_site_fract_y
_atom_site_fract_z
Nd1 Nd 1.00000 0.00000 0.50004(10)
O1 O 0.91901(5) -0.02012(6) 0.73757(13)
O2 O 0.92205(7) 0.04326(8) 0.95627(15)
C1 C 0.89905(7) 0.01800(7) 0.81034(16)
C2 C 0.84795(7) 0.03022(8) 0.72389(17)
H1 H 0.8253 0.0048 0.6238
C3 C 0.83306(8) 0.07676(8) 0.78482(18)
H2 H 0.8551 0.0993 0.8884
C4 C 0.78606(8) 0.09629(8) 0.70747(18)
C5 C 0.73833(8) 0.05757(9) 0.5802(2)
H3 H 0.7349 0.0161 0.5415
C6 C 0.69580(9) 0.07950(10) 0.5100(2)
H4 H 0.6634 0.0527 0.4242
C7 C 0.70048(10) 0.14065(10) 0.5649(2)
H5 H 0.6716 0.1556 0.5164
C8 C 0.74756(10) 0.17917(10) 0.6906(2)
H6 H 0.7511 0.2208 0.7283
C9 C 0.78984(9) 0.15721(9) 0.7621(2)
H7 H 0.8217 0.1839 0.849
Nd1B Nd 1.00000 0.00000 1.00004(10)
Nd1B_2 Nd 1.00000 0.00000 0.00004(10)
O1A O 1.02012(6) -0.06087(8) 0.73757(13)
O1B O 1.02012(6) 0.08099(5) 0.23757(13)
O1C O 1.06087(8) 0.08099(5) 0.73757(13)
O1D O 0.91901(5) -0.06087(8) 0.23757(13)
O1E O 1.06087(8) -0.02012(6) 0.23757(13)
O2A O 0.95674(8) -0.12121(11) 0.95627(15)
O2B O 0.95674(8) 0.07795(7) 0.45627(15)
O2D O 0.92205(7) -0.12121(11) 0.45627(15)
O2E O 1.12121(11) 0.04326(8) 0.45627(15)
C1A C 0.98200(7) -0.11895(10) 0.81034(16)
C1B C 0.98200(7) 0.10095(7) 0.31034(16)
C2A C 0.96978(8) -0.18227(11) 0.72389(17)
C2B C 0.96978(8) 0.15205(7) 0.22389(17)
H1A H 0.9952 -0.1795 0.6238
H1B H 0.9952 0.1747 0.1238
C3A C 0.92324(8) -0.24370(11) 0.78482(18)
C3B C 0.92324(8) 0.16694(8) 0.28482(18)
H2A H 0.9007 -0.2442 0.8884
H2B H 0.9007 0.1449 0.3884
C4A C 0.90371(8) -0.31023(11) 0.70747(18)
C4B C 0.90371(8) 0.21394(8) 0.20747(18)
C5A C 0.94243(9) -0.31924(12) 0.5802(2)
C5B C 0.94243(9) 0.26167(8) 0.0802(2)
H3A H 0.9839 -0.2812 0.5415
H3B H 0.9839 0.2651 0.0415
C6A C 0.92050(10) -0.38370(13) 0.5100(2)
C6B C 0.92050(10) 0.30420(9) 0.0100(2)
H4A H 0.9473 -0.3893 0.4242
H4B H 0.9473 0.3366 -0.0758
C7A C 0.85935(10) -0.44017(14) 0.5649(2)
C7B C 0.85935(10) 0.29952(10) 0.0649(2)
H5A H 0.8444 -0.4840 0.5164
H5B H 0.8444 0.3284 0.0164
C8A C 0.82083(10) -0.43161(14) 0.6906(2)
C8B C 0.82083(10) 0.25244(10) 0.1906(2)
H6A H 0.7792 -0.4697 0.7283
H6B H 0.7792 0.2489 0.2283
C9A C 0.84279(9) -0.36737(13) 0.7621(2)
C9B C 0.84279(9) 0.21016(9) 0.2621(2)
H7A H 0.8161 -0.3622 0.849
H7B H 0.8161 0.1783 0.349
loop_
_geom_bond_atom_site_label_1
_geom_bond_atom_site_label_2
_geom_bond_site_symmetry_1
_geom_bond_site_symmetry_2
Nd1 O1 1_555 1_555
O1 C1 1_555 1_555
O2 C1 1_555 1_555
C1 C2 1_555 1_555
C2 H1 1_555 1_555
C3 C2 1_555 1_555
H2 C3 1_555 1_555
C4 C3 1_555 1_555
C5 C4 1_555 1_555
H3 C5 1_555 1_555
C6 C5 1_555 1_555
H4 C6 1_555 1_555
C7 C6 1_555 1_555
H5 C7 1_555 1_555
C8 C7 1_555 1_555
H6 C8 1_555 1_555
C9 C4 1_555 1_555
H7 C9 1_555 1_555
Nd1B O1 1_555 1_555
Nd1B_2 O1B 1_555 1_555
O1A Nd1 1_555 1_555
O1B Nd1 1_555 1_555
O1C Nd1 1_555 1_555
O1D Nd1 1_555 1_555
O1E Nd1 1_555 1_555
O2A Nd1B 1_555 1_555
O2B Nd1 1_555 1_555
O2D Nd1 1_555 1_555
O2E Nd1 1_555 1_555
C1A O1A 1_555 1_555
C1B O1B 1_555 1_555
C2A C1A 1_555 1_555
C2B C1B 1_555 1_555
H1A C2A 1_555 1_555
H1B C2B 1_555 1_555
C3A C2A 1_555 1_555
C3B C2B 1_555 1_555
H2A C3A 1_555 1_555
H2B C3B 1_555 1_555
C4A C3A 1_555 1_555
C4B C3B 1_555 1_555
C5A C4A 1_555 1_555
C5B C4B 1_555 1_555
H3A C5A 1_555 1_555
H3B C5B 1_555 1_555
C6A C5A 1_555 1_555
C6B C5B 1_555 1_555
H4A C6A 1_555 1_555
H4B C6B 1_555 1_555
C7A C6A 1_555 1_555
C7B C6B 1_555 1_555
H5A C7A 1_555 1_555
H5B C7B 1_555 1_555
C8A C7A 1_555 1_555
C8B C7B 1_555 1_555
H6A C8A 1_555 1_555
H6B C8B 1_555 1_555
C9A C4A 1_555 1_555
C9B C4B 1_555 1_555
H7A C9A 1_555 1_555
H7B C9B 1_555 1_555
O2 Nd1B 1_555 1_555
C8 C9 1_555 1_555
Nd1B O1A 1_555 1_555
Nd1B O1C 1_555 1_555
Nd1B_2 O1D 1_555 1_555
Nd1B_2 O1E 1_555 1_555
O2A C1A 1_555 1_555
O2B C1B 1_555 1_555
C8A C9A 1_555 1_555
C8B C9B 1_555 1_555

#END
