
#######################################################################
#
#                 Cambridge Crystallographic Data Centre
#                                CCDC 
#
#######################################################################
#
# If this CIF has been generated from an entry in the Cambridge 
# Structural Database, then it will include bibliographic, chemical, 
# crystal, experimental, refinement or atomic coordinate data resulting 
# from the CCDC's data processing and validation procedures.
#
#######################################################################

data_CISJUK01
_symmetry_cell_setting           rhombohedral
_symmetry_space_group_name_H-M   'R 3 c'
_symmetry_Int_Tables_number      161
_space_group_name_Hall           'R 3 -2"c'
loop_
_symmetry_equiv_pos_site_id
_symmetry_equiv_pos_as_xyz
1 x,y,z
2 -y,x-y,z
3 -x+y,-x,z
4 -x+y,y,1/2+z
5 x,x-y,1/2+z
6 -y,-x,1/2+z
7 2/3+x,1/3+y,1/3+z
8 2/3-y,1/3+x-y,1/3+z
9 2/3-x+y,1/3-x,1/3+z
10 2/3-x+y,1/3+y,5/6+z
11 2/3+x,1/3+x-y,5/6+z
12 2/3-y,1/3-x,5/6+z
13 1/3+x,2/3+y,2/3+z
14 1/3-y,2/3+x-y,2/3+z
15 1/3-x+y,2/3-x,2/3+z
16 1/3-x+y,2/3+y,1/6+z
17 1/3+x,2/3+x-y,1/6+z
18 1/3-y,2/3-x,1/6+z
_cell_length_a                   22.657(3)
_cell_length_b                   22.657(3)
_cell_length_c                   7.830(1)
_cell_angle_alpha                90
_cell_angle_beta                 90
_cell_angle_gamma                120
_cell_volume                     3480.95
loop_
_atom_site_label
_atom_site_type_symbol
_atom_site_fract_x
_atom_site_fract_y
_atom_site_fract_z
Nd1 Nd 0.0000 0.0000 -0.00002(10)
O1 O 0.07819(13) 0.12069(12) 0.0460(3)
O2 O 0.08074(11) 0.06138(11) 0.2633(3)
C1 C 0.1006(2) 0.1187(2) 0.1898(4)
C2 C 0.1515(2) 0.1824(2) 0.2743(4)
C3 C 0.1663(2) 0.2428(2) 0.2163(4)
C4 C 0.2134(2) 0.3099(2) 0.2910(4)
C5 C 0.2614(2) 0.3190(2) 0.4154(5)
C6 C 0.3033(2) 0.3834(2) 0.4828(5)
C7 C 0.2981(2) 0.4388(2) 0.4306(5)
C8 C 0.2514(2) 0.4299(2) 0.3083(6)
C9 C 0.2093(2) 0.3662(2) 0.2377(5)
H1 H 0.1741 0.1796 0.3734
H2 H 0.1439 0.2432 0.1141
H3 H 0.2653 0.2813 0.4537
H4 H 0.3363 0.3895 0.5664
H5 H 0.3266 0.4825 0.4791
H6 H 0.2477 0.4678 0.2711
H7 H 0.1773 0.3610 0.1521
Nd1C Nd 0.0000 0.0000 0.49998(10)
O1A O -0.12069(12) -0.04250(18) 0.0460(3)
O1B O 0.04250(18) -0.07819(13) 0.0460(3)
O2A O -0.06138(11) 0.01936(16) 0.2633(3)
O2B O -0.01936(16) -0.08074(11) 0.2633(3)
O2C O -0.01936(16) 0.06138(11) -0.2367(3)
O2D O 0.08074(11) 0.01936(16) -0.2367(3)
O2E O -0.06138(11) -0.08074(11) -0.2367(3)
C1A C -0.1187(2) -0.0181(3) 0.1898(4)
C1B C 0.0181(3) -0.1006(2) 0.1898(4)
C2A C -0.1824(2) -0.0309(3) 0.2743(4)
C2B C 0.0309(3) -0.1515(2) 0.2743(4)
C3A C -0.2428(2) -0.0765(3) 0.2163(4)
C3B C 0.0765(3) -0.1663(2) 0.2163(4)
C4A C -0.3099(2) -0.0965(3) 0.2910(4)
C4B C 0.0965(3) -0.2134(2) 0.2910(4)
C5A C -0.3190(2) -0.0576(3) 0.4154(5)
C5B C 0.0576(3) -0.2614(2) 0.4154(5)
C6A C -0.3834(2) -0.0801(3) 0.4828(5)
C6B C 0.0801(3) -0.3033(2) 0.4828(5)
C7A C -0.4388(2) -0.1407(3) 0.4306(5)
C7B C 0.1407(3) -0.2981(2) 0.4306(5)
C8A C -0.4299(2) -0.1785(3) 0.3083(6)
C8B C 0.1785(3) -0.2514(2) 0.3083(6)
C9A C -0.3662(2) -0.1569(3) 0.2377(5)
C9B C 0.1569(3) -0.2093(2) 0.2377(5)
H1A H -0.1796 -0.0055 0.3734
H1B H 0.0055 -0.1741 0.3734
H2A H -0.2432 -0.0993 0.1141
H2B H 0.0993 -0.1439 0.1141
H3A H -0.2813 -0.0160 0.4537
H3B H 0.0160 -0.2653 0.4537
H4A H -0.3895 -0.0532 0.5664
H4B H 0.0532 -0.3363 0.5664
H5A H -0.4825 -0.1559 0.4791
H5B H 0.1559 -0.3266 0.4791
H6A H -0.4678 -0.2201 0.2711
H6B H 0.2201 -0.2477 0.2711
H7A H -0.3610 -0.1837 0.1521
H7B H 0.1837 -0.1773 0.1521
loop_
_geom_bond_atom_site_label_1
_geom_bond_atom_site_label_2
_geom_bond_site_symmetry_1
_geom_bond_site_symmetry_2
Nd1 O1 1_555 1_555
O1 C1 1_555 1_555
O2 Nd1 1_555 1_555
C1 O2 1_555 1_555
C2 C1 1_555 1_555
C3 C2 1_555 1_555
C4 C3 1_555 1_555
C5 C4 1_555 1_555
C6 C5 1_555 1_555
C7 C6 1_555 1_555
C8 C7 1_555 1_555
C9 C4 1_555 1_555
H1 C2 1_555 1_555
H2 C3 1_555 1_555
H3 C5 1_555 1_555
H4 C6 1_555 1_555
H5 C7 1_555 1_555
H6 C8 1_555 1_555
H7 C9 1_555 1_555
Nd1C O2 1_555 1_555
O1A Nd1 1_555 1_555
O1B Nd1 1_555 1_555
O2A Nd1 1_555 1_555
O2B Nd1 1_555 1_555
O2C Nd1 1_555 1_555
O2D Nd1 1_555 1_555
O2E Nd1 1_555 1_555
C1A O1A 1_555 1_555
C1B O1B 1_555 1_555
C2A C1A 1_555 1_555
C2B C1B 1_555 1_555
C3A C2A 1_555 1_555
C3B C2B 1_555 1_555
C4A C3A 1_555 1_555
C4B C3B 1_555 1_555
C5A C4A 1_555 1_555
C5B C4B 1_555 1_555
C6A C5A 1_555 1_555
C6B C5B 1_555 1_555
C7A C6A 1_555 1_555
C7B C6B 1_555 1_555
C8A C7A 1_555 1_555
C8B C7B 1_555 1_555
C9A C4A 1_555 1_555
C9B C4B 1_555 1_555
H1A C2A 1_555 1_555
H1B C2B 1_555 1_555
H2A C3A 1_555 1_555
H2B C3B 1_555 1_555
H3A C5A 1_555 1_555
H3B C5B 1_555 1_555
H4A C6A 1_555 1_555
H4B C6B 1_555 1_555
H5A C7A 1_555 1_555
H5B C7B 1_555 1_555
H6A C8A 1_555 1_555
H6B C8B 1_555 1_555
H7A C9A 1_555 1_555
H7B C9B 1_555 1_555
C8 C9 1_555 1_555
Nd1C O2A 1_555 1_555
Nd1C O2B 1_555 1_555
O2A C1A 1_555 1_555
O2B C1B 1_555 1_555
C8A C9A 1_555 1_555
C8B C9B 1_555 1_555

#END
