
#######################################################################
#
#                 Cambridge Crystallographic Data Centre
#                                CCDC 
#
#######################################################################
#
# If this CIF has been generated from an entry in the Cambridge 
# Structural Database, then it will include bibliographic, chemical, 
# crystal, experimental, refinement or atomic coordinate data resulting 
# from the CCDC's data processing and validation procedures.
#
#######################################################################

data_CISJOE02
_symmetry_cell_setting           monoclinic
_symmetry_space_group_name_H-M   'P 21'
_symmetry_Int_Tables_number      4
_space_group_name_Hall           'P 2yb'
loop_
_symmetry_equiv_pos_site_id
_symmetry_equiv_pos_as_xyz
1 x,y,z
2 -x,1/2+y,-z
_cell_length_a                   11.5204(11)
_cell_length_b                   7.9361(7)
_cell_length_c                   13.0778(12)
_cell_angle_alpha                90
_cell_angle_beta                 94.049(2)
_cell_angle_gamma                90
_cell_volume                     1192.68
loop_
_atom_site_label
_atom_site_type_symbol
_atom_site_fract_x
_atom_site_fract_y
_atom_site_fract_z
Dy1 Dy 0.540380(10) 0.48642(13) 0.475720(10)
O1 O 0.6789(3) 0.3130(5) 0.4168(3)
O2 O 0.5958(3) 0.0604(5) 0.4163(3)
O3 O 0.5845(3) 0.6271(5) 0.3219(3)
O4 O 0.4595(3) 0.7601(4) 0.4108(2)
O5 O 0.6704(3) 0.6300(5) 0.5789(3)
O6 O 0.6041(3) 0.8738(5) 0.6303(3)
C1 C 0.6834(4) 0.1547(6) 0.4111(4)
C2 C 0.7973(7) 0.0778(11) 0.3965(6)
C3 C 0.8121(7) -0.0871(12) 0.3917(6)
C4 C 0.9215(4) -0.1799(7) 0.3800(4)
C5 C 1.0290(4) -0.0999(7) 0.3834(4)
C6 C 1.1283(5) -0.1896(9) 0.3671(5)
C7 C 1.1214(6) -0.3607(9) 0.3472(5)
C8 C 1.0166(6) -0.4410(9) 0.3448(6)
C9 C 0.9156(6) -0.3524(8) 0.3613(5)
C10 C 0.5030(4) 0.7281(6) 0.3243(3)
C11 C 0.4468(5) 0.8038(7) 0.2305(4)
C12 C 0.4735(4) 0.7543(7) 0.1386(4)
C13 C 0.4148(4) 0.8001(7) 0.0388(4)
C14 C 0.4625(5) 0.7440(9) -0.0495(4)
C15 C 0.4085(6) 0.7804(10) -0.1450(4)
C16 C 0.3070(6) 0.8697(9) -0.1530(4)
C17 C 0.2581(5) 0.9244(8) -0.0666(4)
C18 C 0.3133(5) 0.8925(8) 0.0303(4)
C19 C 0.6687(4) 0.7485(6) 0.6426(4)
C20 C 0.7477(4) 0.7359(6) 0.7370(4)
C21 C 0.7387(4) 0.8351(7) 0.8176(4)
C22 C 0.8108(4) 0.8292(7) 0.9148(4)
C23 C 0.7705(5) 0.9071(9) 1.0001(4)
C24 C 0.8358(6) 0.9033(10) 1.0937(5)
C25 C 0.9417(6) 0.8222(10) 1.1019(5)
C26 C 0.9830(7) 0.745(2) 1.0175(6)
C27 C 0.9178(5) 0.7476(9) 0.9238(4)
H1 H 0.8626 0.1493 0.3903
H2 H 0.7443 -0.1539 0.3965
H3 H 1.0340 0.0175 0.3970
H4 H 1.2016 -0.1341 0.3695
H5 H 1.1898 -0.4224 0.3353
H6 H 1.0126 -0.5587 0.3318
H7 H 0.8429 -0.4092 0.3598
H8 H 0.3903 0.8899 0.2362
H9 H 0.5382 0.6804 0.1367
H10 H 0.5325 0.6802 -0.0445
H11 H 0.4423 0.7431 -0.2052
H12 H 0.2703 0.8940 -0.2187
H13 H 0.1865 0.9841 -0.0724
H14 H 0.2810 0.9346 0.0901
H15 H 0.8074 0.6530 0.7397
H16 H 0.6795 0.9187 0.8120
H17 H 0.6976 0.9636 0.9947
H18 H 0.8073 0.9566 1.1520
H19 H 0.9862 0.8196 1.1659
H20 H 1.0563 0.6895 1.0232
H21 H 0.9465 0.6936 0.8659
Dy1A Dy 0.459620(10) -0.01358(13) 0.524280(10)
Dy1A_2 Dy 0.459620(10) 0.98642(13) 0.524280(10)
O2A O 0.4042(3) 0.5604(5) 0.5837(3)
O4A O 0.5405(3) 0.2601(4) 0.5892(2)
O6A O 0.3959(3) 0.3738(5) 0.3697(3)
loop_
_geom_bond_atom_site_label_1
_geom_bond_atom_site_label_2
_geom_bond_site_symmetry_1
_geom_bond_site_symmetry_2
Dy1 O1 1_555 1_555
O1 C1 1_555 1_555
O2 C1 1_555 1_555
O3 Dy1 1_555 1_555
O4 Dy1 1_555 1_555
O5 Dy1 1_555 1_555
O6 C19 1_555 1_555
C1 C2 1_555 1_555
C2 C3 1_555 1_555
C3 C4 1_555 1_555
C4 C5 1_555 1_555
C5 C6 1_555 1_555
C6 C7 1_555 1_555
C7 C8 1_555 1_555
C8 C9 1_555 1_555
C9 C4 1_555 1_555
C10 O3 1_555 1_555
C11 C10 1_555 1_555
C12 C11 1_555 1_555
C13 C12 1_555 1_555
C14 C13 1_555 1_555
C15 C14 1_555 1_555
C16 C15 1_555 1_555
C17 C16 1_555 1_555
C18 C13 1_555 1_555
C19 O5 1_555 1_555
C20 C19 1_555 1_555
C21 C20 1_555 1_555
C22 C21 1_555 1_555
C23 C22 1_555 1_555
C24 C23 1_555 1_555
C25 C24 1_555 1_555
C26 C25 1_555 1_555
C27 C22 1_555 1_555
H1 C2 1_555 1_555
H2 C3 1_555 1_555
H3 C5 1_555 1_555
H4 C6 1_555 1_555
H5 C7 1_555 1_555
H6 C8 1_555 1_555
H7 C9 1_555 1_555
H8 C11 1_555 1_555
H9 C12 1_555 1_555
H10 C14 1_555 1_555
H11 C15 1_555 1_555
H12 C16 1_555 1_555
H13 C17 1_555 1_555
H14 C18 1_555 1_555
H15 C20 1_555 1_555
H16 C21 1_555 1_555
H17 C23 1_555 1_555
H18 C24 1_555 1_555
H19 C25 1_555 1_555
H20 C26 1_555 1_555
H21 C27 1_555 1_555
Dy1A O2 1_555 1_555
Dy1A_2 O4 1_555 1_555
O2A Dy1 1_555 1_555
O4A Dy1 1_555 1_555
O6A Dy1 1_555 1_555
O4 C10 1_555 1_555
O6 Dy1A_2 1_555 1_555
C17 C18 1_555 1_555
C26 C27 1_555 1_555
Dy1A O4A 1_555 1_555

#END
