
#######################################################################
#
#                 Cambridge Crystallographic Data Centre
#                                CCDC 
#
#######################################################################
#
# If this CIF has been generated from an entry in the Cambridge 
# Structural Database, then it will include bibliographic, chemical, 
# crystal, experimental, refinement or atomic coordinate data resulting 
# from the CCDC's data processing and validation procedures.
#
#######################################################################

data_CISJUK02
_symmetry_cell_setting           rhombohedral
_symmetry_space_group_name_H-M   'R 3 c'
_symmetry_Int_Tables_number      161
_space_group_name_Hall           'R 3 -2"c'
loop_
_symmetry_equiv_pos_site_id
_symmetry_equiv_pos_as_xyz
1 x,y,z
2 -y,x-y,z
3 -x+y,-x,z
4 -y,-x,1/2+z
5 -x+y,y,1/2+z
6 x,x-y,1/2+z
7 2/3+x,1/3+y,1/3+z
8 2/3-y,1/3+x-y,1/3+z
9 2/3-x+y,1/3-x,1/3+z
10 2/3-y,1/3-x,5/6+z
11 2/3-x+y,1/3+y,5/6+z
12 2/3+x,1/3+x-y,5/6+z
13 1/3+x,2/3+y,2/3+z
14 1/3-y,2/3+x-y,2/3+z
15 1/3-x+y,2/3-x,2/3+z
16 1/3-y,2/3-x,1/6+z
17 1/3-x+y,2/3+y,1/6+z
18 1/3+x,2/3+x-y,1/6+z
_cell_length_a                   22.625(8)
_cell_length_b                   22.625(8)
_cell_length_c                   7.839(6)
_cell_angle_alpha                90
_cell_angle_beta                 90
_cell_angle_gamma                120
_cell_volume                     3475.11
loop_
_atom_site_label
_atom_site_type_symbol
_atom_site_fract_x
_atom_site_fract_y
_atom_site_fract_z
Nd1 Nd 0.0000 0.0000 1.09854(14)
O1 O 0.06123(13) 0.08053(12) 0.8348(4)
O2 O 0.12033(14) 0.07794(15) 1.0525(4)
C1 C 0.1187(2) 0.1006(2) 0.9090(5)
C2 C 0.1826(2) 0.15142(19) 0.8241(5)
H1 H 0.1799 0.1734 0.7266
C3 C 0.2434(2) 0.1664(2) 0.8828(5)
H2 H 0.2438 0.1446 0.9828
C4 C 0.3099(2) 0.2135(2) 0.8084(6)
C5 C 0.3663(2) 0.2098(2) 0.8612(6)
H3 H 0.3614 0.1788 0.9456
C6 C 0.4300(2) 0.2517(3) 0.7899(7)
H4 H 0.4672 0.2481 0.8263
C7 C 0.4388(2) 0.2977(3) 0.6682(7)
H5 H 0.4818 0.3254 0.6207
C8 C 0.3834(2) 0.3036(2) 0.6142(7)
H6 H 0.3892 0.3358 0.5321
C9 C 0.3193(2) 0.2614(2) 0.6835(6)
H7 H 0.2822 0.2650 0.6463
Nd1C Nd 0.0000 0.0000 0.59854(14)
O1A O -0.08053(12) -0.01930(18) 0.8348(4)
O1B O 0.01930(18) -0.06123(13) 0.8348(4)
O1C O -0.08053(12) -0.06123(13) 1.3348(4)
O1D O 0.01930(18) 0.08053(12) 1.3348(4)
O1E O 0.06123(13) -0.01930(18) 1.3348(4)
O2A O -0.07794(15) 0.04239(21) 1.0525(4)
O2B O -0.04239(21) -0.12033(14) 1.0525(4)
C1A C -0.1006(2) 0.0181(3) 0.9090(5)
C1B C -0.0181(3) -0.1187(2) 0.9090(5)
C2A C -0.15142(19) 0.03118(28) 0.8241(5)
C2B C -0.03118(28) -0.1826(2) 0.8241(5)
H1A H -0.1734 0.0065 0.7266
H1B H -0.0065 -0.1799 0.7266
C3A C -0.1664(2) 0.0770(3) 0.8828(5)
C3B C -0.0770(3) -0.2434(2) 0.8828(5)
H2A H -0.1446 0.0992 0.9828
H2B H -0.0992 -0.2438 0.9828
C4A C -0.2135(2) 0.0964(3) 0.8084(6)
C4B C -0.0964(3) -0.3099(2) 0.8084(6)
C5A C -0.2098(2) 0.1565(3) 0.8612(6)
C5B C -0.1565(3) -0.3663(2) 0.8612(6)
H3A H -0.1788 0.1826 0.9456
H3B H -0.1826 -0.3614 0.9456
C6A C -0.2517(3) 0.1783(4) 0.7899(7)
C6B C -0.1783(4) -0.4300(2) 0.7899(7)
H4A H -0.2481 0.2191 0.8263
H4B H -0.2191 -0.4672 0.8263
C7A C -0.2977(3) 0.1411(4) 0.6682(7)
C7B C -0.1411(4) -0.4388(2) 0.6682(7)
H5A H -0.3254 0.1564 0.6207
H5B H -0.1564 -0.4818 0.6207
C8A C -0.3036(2) 0.0798(3) 0.6142(7)
C8B C -0.0798(3) -0.3834(2) 0.6142(7)
H6A H -0.3358 0.0534 0.5321
H6B H -0.0534 -0.3892 0.5321
C9A C -0.2614(2) 0.0579(3) 0.6835(6)
C9B C -0.0579(3) -0.3193(2) 0.6835(6)
H7A H -0.2650 0.0172 0.6463
H7B H -0.0172 -0.2822 0.6463
loop_
_geom_bond_atom_site_label_1
_geom_bond_atom_site_label_2
_geom_bond_site_symmetry_1
_geom_bond_site_symmetry_2
Nd1 O1 1_555 1_555
O1 C1 1_555 1_555
O2 Nd1 1_555 1_555
C1 O2 1_555 1_555
C2 C1 1_555 1_555
H1 C2 1_555 1_555
C3 C2 1_555 1_555
H2 C3 1_555 1_555
C4 C3 1_555 1_555
C5 C4 1_555 1_555
H3 C5 1_555 1_555
C6 C5 1_555 1_555
H4 C6 1_555 1_555
C7 C6 1_555 1_555
H5 C7 1_555 1_555
C8 C7 1_555 1_555
H6 C8 1_555 1_555
C9 C4 1_555 1_555
H7 C9 1_555 1_555
Nd1C O1 1_555 1_555
O1A Nd1 1_555 1_555
O1B Nd1 1_555 1_555
O1C Nd1 1_555 1_555
O1D Nd1 1_555 1_555
O1E Nd1 1_555 1_555
O2A Nd1 1_555 1_555
O2B Nd1 1_555 1_555
C1A O1A 1_555 1_555
C1B O1B 1_555 1_555
C2A C1A 1_555 1_555
C2B C1B 1_555 1_555
H1A C2A 1_555 1_555
H1B C2B 1_555 1_555
C3A C2A 1_555 1_555
C3B C2B 1_555 1_555
H2A C3A 1_555 1_555
H2B C3B 1_555 1_555
C4A C3A 1_555 1_555
C4B C3B 1_555 1_555
C5A C4A 1_555 1_555
C5B C4B 1_555 1_555
H3A C5A 1_555 1_555
H3B C5B 1_555 1_555
C6A C5A 1_555 1_555
C6B C5B 1_555 1_555
H4A C6A 1_555 1_555
H4B C6B 1_555 1_555
C7A C6A 1_555 1_555
C7B C6B 1_555 1_555
H5A C7A 1_555 1_555
H5B C7B 1_555 1_555
C8A C7A 1_555 1_555
C8B C7B 1_555 1_555
H6A C8A 1_555 1_555
H6B C8B 1_555 1_555
C9A C4A 1_555 1_555
C9B C4B 1_555 1_555
H7A C9A 1_555 1_555
H7B C9B 1_555 1_555
C8 C9 1_555 1_555
Nd1C O1A 1_555 1_555
Nd1C O1B 1_555 1_555
O2A C1A 1_555 1_555
O2B C1B 1_555 1_555
C8A C9A 1_555 1_555
C8B C9B 1_555 1_555

#END
