
#######################################################################
#
#                 Cambridge Crystallographic Data Centre
#                                CCDC 
#
#######################################################################
#
# If this CIF has been generated from an entry in the Cambridge 
# Structural Database, then it will include bibliographic, chemical, 
# crystal, experimental, refinement or atomic coordinate data resulting 
# from the CCDC's data processing and validation procedures.
#
#######################################################################

data_CISKIZ
_symmetry_cell_setting           monoclinic
_symmetry_space_group_name_H-M   'P 21'
_symmetry_Int_Tables_number      4
_space_group_name_Hall           'P 2yb'
loop_
_symmetry_equiv_pos_site_id
_symmetry_equiv_pos_as_xyz
1 x,y,z
2 -x,1/2+y,-z
_cell_length_a                   11.380(4)
_cell_length_b                   7.837(3)
_cell_length_c                   12.952(5)
_cell_angle_alpha                90
_cell_angle_beta                 93.689(5)
_cell_angle_gamma                90
_cell_volume                     1152.73
loop_
_atom_site_label
_atom_site_type_symbol
_atom_site_fract_x
_atom_site_fract_y
_atom_site_fract_z
Ho1 Ho 0.54062(2) 0.49991(7) 0.47493(2)
O1 O 0.4009(4) 0.4369(7) 0.5833(4)
O2 O 0.3210(5) 0.1740(7) 0.5849(4)
O3 O 0.3983(5) 0.6110(7) 0.3662(4)
O4 O 0.3284(5) 0.8577(7) 0.4217(4)
O5 O 0.4588(4) 0.2284(6) 0.4118(4)
O6 O 0.5882(5) 0.3584(7) 0.3219(4)
C1 C 0.3148(7) 0.3333(10) 0.5906(6)
C2 C 0.2006(10) 0.4080(17) 0.6023(9)
H1 H 0.1354 0.3334 0.6071
C3 C 0.1810(11) 0.5761(16) 0.6067(9)
H2 H 0.249 0.6448 0.6008
C4 C 0.0739(7) 0.6706(10) 0.6190(6)
C5 C -0.0361(7) 0.5905(11) 0.6145(6)
H3 H -0.0418 0.4721 0.5992
C6 C -0.1350(7) 0.6809(11) 0.6320(6)
H4 H -0.209 0.6244 0.6289
C7 C -0.1299(8) 0.8537(11) 0.6541(7)
H5 H -0.1992 0.9154 0.6674
C8 C -0.0222(7) 0.9345(11) 0.6564(7)
H6 H -0.0177 1.0533 0.6706
C9 C 0.0791(8) 0.8462(10) 0.6384(7)
H7 H 0.1524 0.9044 0.6392
C10 C 0.3322(6) 0.7402(10) 0.3551(6)
C11 C 0.2523(7) 0.7554(10) 0.2615(6)
H8 H 0.1919 0.8392 0.2595
C12 C 0.2622(7) 0.6552(10) 0.1796(6)
H9 H 0.3228 0.5716 0.1847
C13 C 0.1888(7) 0.6609(10) 0.0821(6)
C14 C 0.0804(7) 0.7433(11) 0.0747(6)
H10 H 0.0518 0.7971 0.1338
C15 C 0.0136(10) 0.7474(17) -0.0195(6)
H11 H -0.0606 0.8033 -0.0247
C16 C 0.0558(8) 0.6699(12) -0.1047(7)
H12 H 0.0103 0.6728 -0.1688
C17 C 0.1626(8) 0.5884(11) -0.0988(7)
H13 H 0.1915 0.5369 -0.1586
C18 C 0.2283(8) 0.5819(11) -0.0044(6)
H14 H 0.3012 0.5223 0.0005
C19 C 0.5062(7) 0.2557(9) 0.3240(6)
C20 C 0.4479(7) 0.1793(10) 0.2298(6)
H15 H 0.3915 0.0911 0.2353
C21 C 0.4752(7) 0.2353(10) 0.1365(6)
H16 H 0.5394 0.3124 0.1347
C22 C 0.4158(7) 0.1891(10) 0.0379(6)
C23 C 0.3114(7) 0.0979(11) 0.0294(6)
H17 H 0.2776 0.0578 0.09
C24 C 0.2556(7) 0.0646(10) -0.0671(6)
H18 H 0.1834 0.0034 -0.0721
C25 C 0.3048(8) 0.1203(11) -0.1554(7)
H19 H 0.2667 0.097 -0.2213
C26 C 0.4087(7) 0.2090(11) -0.1484(7)
H20 H 0.4429 0.2464 -0.2095
C27 C 0.4637(7) 0.2442(11) -0.0528(6)
H21 H 0.5353 0.3069 -0.0486
Ho1A Ho 0.45938(2) -0.00009(7) 0.52507(2)
Ho1A_2 Ho 0.45938(2) 0.99991(7) 0.52507(2)
O2A O 0.6790(5) 0.6740(7) 0.4151(4)
O4A O 0.6716(5) 0.3577(7) 0.5783(4)
O5A O 0.5412(4) 0.7284(6) 0.5882(4)
loop_
_geom_bond_atom_site_label_1
_geom_bond_atom_site_label_2
_geom_bond_site_symmetry_1
_geom_bond_site_symmetry_2
Ho1 O1 1_555 1_555
O1 C1 1_555 1_555
O2 C1 1_555 1_555
O3 Ho1 1_555 1_555
O4 C10 1_555 1_555
O5 Ho1 1_555 1_555
O6 Ho1 1_555 1_555
C1 C2 1_555 1_555
C2 H1 1_555 1_555
C3 C2 1_555 1_555
H2 C3 1_555 1_555
C4 C3 1_555 1_555
C5 C4 1_555 1_555
H3 C5 1_555 1_555
C6 C5 1_555 1_555
H4 C6 1_555 1_555
C7 C6 1_555 1_555
H5 C7 1_555 1_555
C8 C7 1_555 1_555
H6 C8 1_555 1_555
C9 C4 1_555 1_555
H7 C9 1_555 1_555
C10 O3 1_555 1_555
C11 C10 1_555 1_555
H8 C11 1_555 1_555
C12 C11 1_555 1_555
H9 C12 1_555 1_555
C13 C12 1_555 1_555
C14 C13 1_555 1_555
H10 C14 1_555 1_555
C15 C14 1_555 1_555
H11 C15 1_555 1_555
C16 C15 1_555 1_555
H12 C16 1_555 1_555
C17 C16 1_555 1_555
H13 C17 1_555 1_555
C18 C13 1_555 1_555
H14 C18 1_555 1_555
C19 O5 1_555 1_555
C20 C19 1_555 1_555
H15 C20 1_555 1_555
C21 C20 1_555 1_555
H16 C21 1_555 1_555
C22 C21 1_555 1_555
C23 C22 1_555 1_555
H17 C23 1_555 1_555
C24 C23 1_555 1_555
H18 C24 1_555 1_555
C25 C24 1_555 1_555
H19 C25 1_555 1_555
C26 C25 1_555 1_555
H20 C26 1_555 1_555
C27 C22 1_555 1_555
H21 C27 1_555 1_555
Ho1A O2 1_555 1_555
Ho1A_2 O4 1_555 1_555
O2A Ho1 1_555 1_555
O4A Ho1 1_555 1_555
O5A Ho1 1_555 1_555
O5 Ho1A 1_555 1_555
O6 C19 1_555 1_555
C8 C9 1_555 1_555
C17 C18 1_555 1_555
C26 C27 1_555 1_555
Ho1A_2 O5A 1_555 1_555

#END
