
#######################################################################
#
#                 Cambridge Crystallographic Data Centre
#                                CCDC 
#
#######################################################################
#
# If this CIF has been generated from an entry in the Cambridge 
# Structural Database, then it will include bibliographic, chemical, 
# crystal, experimental, refinement or atomic coordinate data resulting 
# from the CCDC's data processing and validation procedures.
#
#######################################################################

data_CISKIZ01
_symmetry_cell_setting           monoclinic
_symmetry_space_group_name_H-M   'P 21'
_symmetry_Int_Tables_number      4
_space_group_name_Hall           'P 2yb'
loop_
_symmetry_equiv_pos_site_id
_symmetry_equiv_pos_as_xyz
1 x,y,z
2 -x,1/2+y,-z
_cell_length_a                   11.544(1)
_cell_length_b                   7.9169(9)
_cell_length_c                   13.071(2)
_cell_angle_alpha                90
_cell_angle_beta                 94.136(2)
_cell_angle_gamma                90
_cell_volume                     1191.48
loop_
_atom_site_label
_atom_site_type_symbol
_atom_site_fract_x
_atom_site_fract_y
_atom_site_fract_z
Ho1 Ho 0.46010(2) 0.4926(2) 0.524000(10)
O1 O 0.5956(3) 0.4208(6) 0.4168(3)
O2 O 0.6777(4) 0.1652(6) 0.4172(3)
O3 O 0.4597(3) 0.7198(5) 0.4116(3)
O4 O 0.5838(4) 0.8532(6) 0.3234(3)
O5 O 0.3292(4) 0.3506(6) 0.4211(3)
O6 O 0.3969(4) 0.1049(6) 0.3707(3)
C1 C 0.6829(5) 0.3249(8) 0.4102(4)
C2 C 0.7963(8) 0.399(1) 0.3954(8)
C3 C 0.8113(9) 0.565(1) 0.3916(7)
C4 C 0.9195(5) 0.6588(8) 0.3791(5)
C5 C 1.0287(6) 0.5783(9) 0.3834(5)
C6 C 1.1279(6) 0.6689(10) 0.3672(6)
C7 C 1.1224(7) 0.8390(11) 0.3469(6)
C8 C 1.0161(7) 0.9197(11) 0.3439(7)
C9 C 0.9157(7) 0.8316(10) 0.3603(6)
C10 C 0.5034(5) 0.7512(7) 0.3248(4)
C11 C 0.4466(6) 0.6734(8) 0.2307(4)
C12 C 0.4727(5) 0.7251(8) 0.1392(4)
C13 C 0.4155(5) 0.6802(8) 0.0397(4)
C14 C 0.4626(6) 0.7351(10) -0.0499(5)
C15 C 0.4092(7) 0.6974(11) -0.1447(5)
C16 C 0.3069(7) 0.6078(10) -0.1533(5)
C17 C 0.2583(7) 0.5518(10) -0.0661(5)
C18 C 0.3123(6) 0.5881(10) 0.0299(5)
C19 C 0.3318(5) 0.2315(8) 0.3579(4)
C20 C 0.2517(5) 0.2436(8) 0.2632(4)
C21 C 0.2618(5) 0.1445(8) 0.1834(4)
C22 C 0.1903(5) 0.1486(9) 0.0852(4)
C23 C 0.0818(6) 0.2292(10) 0.0762(5)
C24 C 0.0172(9) 0.233(2) -0.0180(7)
C25 C 0.0596(7) 0.1548(12) -0.1024(6)
C26 C 0.1636(8) 0.0756(12) -0.0936(6)
C27 C 0.2294(7) 0.0707(10) -0.0001(5)
H1 H 0.8609 0.3272 0.3883
H2 H 0.7437 0.6313 0.3976
H3 H 1.0340 0.4607 0.3977
H4 H 1.2008 0.6129 0.3701
H5 H 1.1909 0.9004 0.3350
H6 H 1.0119 1.0375 0.3303
H7 H 0.8435 0.8896 0.3588
H8 H 0.3912 0.5858 0.2364
H9 H 0.5364 0.8009 0.1379
H10 H 0.5323 0.7993 -0.0455
H11 H 0.4434 0.7337 -0.2049
H12 H 0.2698 0.5846 -0.2190
H13 H 0.1881 0.4886 -0.0716
H14 H 0.2784 0.5495 0.0898
H15 H 0.1914 0.3255 0.2605
H16 H 0.3215 0.0617 0.1897
H17 H 0.0522 0.2810 0.1345
H18 H -0.0555 0.2900 -0.0243
H19 H 0.0154 0.1566 -0.1666
H20 H 0.1922 0.0227 -0.1520
H21 H 0.3018 0.0132 0.0050
Ho1A Ho 0.53990(2) -0.0074(2) 0.476000(10)
Ho1A_2 Ho 0.53990(2) 0.9926(2) 0.476000(10)
O2A O 0.3223(4) 0.6652(6) 0.5828(3)
O3A O 0.5403(3) 0.2198(5) 0.5884(3)
O4A O 0.4162(4) 0.3532(6) 0.6766(3)
O6A O 0.6031(4) 0.6049(6) 0.6293(3)
loop_
_geom_bond_atom_site_label_1
_geom_bond_atom_site_label_2
_geom_bond_site_symmetry_1
_geom_bond_site_symmetry_2
Ho1 O1 1_555 1_555
O1 C1 1_555 1_555
O2 C1 1_555 1_555
O3 Ho1 1_555 1_555
O4 C10 1_555 1_555
O5 Ho1 1_555 1_555
O6 C19 1_555 1_555
C1 C2 1_555 1_555
C2 C3 1_555 1_555
C3 C4 1_555 1_555
C4 C5 1_555 1_555
C5 C6 1_555 1_555
C6 C7 1_555 1_555
C7 C8 1_555 1_555
C8 C9 1_555 1_555
C9 C4 1_555 1_555
C10 O3 1_555 1_555
C11 C10 1_555 1_555
C12 C11 1_555 1_555
C13 C12 1_555 1_555
C14 C13 1_555 1_555
C15 C14 1_555 1_555
C16 C15 1_555 1_555
C17 C16 1_555 1_555
C18 C13 1_555 1_555
C19 O5 1_555 1_555
C20 C19 1_555 1_555
C21 C20 1_555 1_555
C22 C21 1_555 1_555
C23 C22 1_555 1_555
C24 C23 1_555 1_555
C25 C24 1_555 1_555
C26 C25 1_555 1_555
C27 C22 1_555 1_555
H1 C2 1_555 1_555
H2 C3 1_555 1_555
H3 C5 1_555 1_555
H4 C6 1_555 1_555
H5 C7 1_555 1_555
H6 C8 1_555 1_555
H7 C9 1_555 1_555
H8 C11 1_555 1_555
H9 C12 1_555 1_555
H10 C14 1_555 1_555
H11 C15 1_555 1_555
H12 C16 1_555 1_555
H13 C17 1_555 1_555
H14 C18 1_555 1_555
H15 C20 1_555 1_555
H16 C21 1_555 1_555
H17 C23 1_555 1_555
H18 C24 1_555 1_555
H19 C25 1_555 1_555
H20 C26 1_555 1_555
H21 C27 1_555 1_555
Ho1A O2 1_555 1_555
Ho1A_2 O3 1_555 1_555
O2A Ho1 1_555 1_555
O3A Ho1 1_555 1_555
O4A Ho1 1_555 1_555
O6A Ho1 1_555 1_555
O4 Ho1A_2 1_555 1_555
O6 Ho1A 1_555 1_555
C17 C18 1_555 1_555
C26 C27 1_555 1_555
Ho1A O3A 1_555 1_555

#END
