
#######################################################################
#
#                 Cambridge Crystallographic Data Centre
#                                CCDC 
#
#######################################################################
#
# If this CIF has been generated from an entry in the Cambridge 
# Structural Database, then it will include bibliographic, chemical, 
# crystal, experimental, refinement or atomic coordinate data resulting 
# from the CCDC's data processing and validation procedures.
#
#######################################################################

data_CISKIA
_symmetry_cell_setting           monoclinic
_symmetry_space_group_name_H-M   'P 21/c'
_symmetry_Int_Tables_number      14
_space_group_name_Hall           '-P 2ybc'
loop_
_symmetry_equiv_pos_site_id
_symmetry_equiv_pos_as_xyz
1 x,y,z
2 -x,1/2+y,1/2-z
3 -x,-y,-z
4 x,1/2-y,1/2+z
_cell_length_a                   14.1561(7)
_cell_length_b                   12.3533(4)
_cell_length_c                   13.5163(7)
_cell_angle_alpha                90
_cell_angle_beta                 109.193(3)
_cell_angle_gamma                90
_cell_volume                     2232.28
loop_
_atom_site_label
_atom_site_type_symbol
_atom_site_fract_x
_atom_site_fract_y
_atom_site_fract_z
U1 U 0.88678(4) 0.60491(5) 0.73227(4)
U2 U 0.86956(4) 0.25090(5) 0.75590(4)
U3 U 1.08094(4) 0.39609(5) 0.68524(4)
K1 K 0.8476(3) 0.4746(3) 0.9939(3)
S1 S 0.2593(3) 0.5687(3) 0.6157(3)
O1 O 0.9605(7) 0.5670(9) 0.8634(8)
O2 O 0.8095(8) 0.6325(9) 0.6003(8)
O3 O 0.9016(7) 0.3154(9) 0.8806(8)
O4 O 0.8288(7) 0.1856(9) 0.6316(8)
O5 O 1.1451(9) 0.4412(9) 0.8159(8)
O6 O 1.0212(7) 0.3585(9) 0.5513(8)
O7 O 0.7553(8) 0.5096(10) 0.7675(8)
O8 O 0.7124(8) 0.3469(10) 0.6973(8)
O9 O 0.2565(8) 0.6424(10) 0.7010(9)
O10 O 0.2048(8) 0.4680(9) 0.6161(9)
O11 O 0.2280(9) 0.6213(11) 0.5147(9)
O12 O 0.9052(7) 0.4209(8) 0.6805(8)
H1 H 0.8707 0.4154 0.6238
O13 O 1.0359(7) 0.5866(9) 0.6627(8)
H2 H 1.0234 0.6031 0.5999
O14 O 0.8039(7) 0.7500(9) 0.7890(8)
H3 H 0.7460 0.7656 0.7343
O15 O 1.0246(7) 0.2567(9) 0.7518(8)
O16 O 0.7589(9) 0.6794(11) 0.9598(10)
O17 O 0.669(3) 0.348(3) 0.927(2)
C1 C 0.6933(13) 0.4425(17) 0.7205(17)
C2 C 0.5829(13) 0.4725(17) 0.6908(17)
C3 C 0.5121(13) 0.4063(18) 0.6342(18)
H4 H 0.5292 0.3404 0.6114
C4 C 0.4108(13) 0.4363(17) 0.6087(18)
H5 H 0.3607 0.3918 0.5664
C5 C 0.3871(12) 0.5297(17) 0.6459(17)
C6 C 0.4596(13) 0.6036(18) 0.6934(18)
H6 H 0.4434 0.6721 0.7115
C7 C 0.5597(15) 0.5719(18) 0.7140(18)
H7 H 0.6107 0.6212 0.7443
U1A U 1.11322(4) 0.10491(5) 0.76773(4)
U2A U 0.13044(4) 0.75090(5) 0.74410(4)
U2A_2 U 1.13044(4) 0.75090(5) 0.74410(4)
U3_2 U 0.08094(4) 0.39609(5) 0.68524(4)
U3A U 0.91906(4) 0.89609(5) 0.81476(4)
K1B K 1.1524(3) 0.5254(3) 1.0061(3)
K1C K 0.8476(3) 0.0254(3) 0.4939(3)
O1B O 1.0395(7) 0.4330(9) 1.1366(8)
O4C O 0.8288(7) 0.3144(9) 1.1316(8)
O5B O 0.8549(9) 0.5588(9) 1.1841(8)
O9A O 0.7435(8) 0.1424(10) 0.7990(9)
O10_2 O 1.2048(8) 0.4680(9) 0.6161(9)
O13A O 0.9641(7) 0.0866(9) 0.8373(8)
O14A O 1.1961(7) 0.2500(9) 0.7110(8)
O15A O 0.9754(7) 0.7567(9) 0.7482(8)
O18 O 0.618(2) 0.828(3) 0.625(3)
loop_
_geom_bond_atom_site_label_1
_geom_bond_atom_site_label_2
_geom_bond_site_symmetry_1
_geom_bond_site_symmetry_2
U1 O1 1_555 1_555
U2 O3 1_555 1_555
U3 O5 1_555 1_555
K1 O1 1_555 1_555
S1 O9 1_555 1_555
O1 K1B 1_555 1_555
O2 U1 1_555 1_555
O3 K1 1_555 1_555
O4 U2 1_555 1_555
O5 K1B 1_555 1_555
O6 U3 1_555 1_555
O7 U1 1_555 1_555
O8 U2 1_555 1_555
O9 U2A 1_555 1_555
O10 S1 1_555 1_555
O11 S1 1_555 1_555
O12 U1 1_555 1_555
H1 O12 1_555 1_555
O13 U1 1_555 1_555
H2 O13 1_555 1_555
O14 U1 1_555 1_555
H3 O14 1_555 1_555
O15 U2 1_555 1_555
O16 K1 1_555 1_555
O17 K1 1_555 1_555
C1 O7 1_555 1_555
C2 C1 1_555 1_555
C3 C2 1_555 1_555
H4 C3 1_555 1_555
C4 C3 1_555 1_555
H5 C4 1_555 1_555
C5 S1 1_555 1_555
C6 C5 1_555 1_555
H6 C6 1_555 1_555
C7 C2 1_555 1_555
H7 C7 1_555 1_555
U1A O15 1_555 1_555
U2A_2 O13 1_555 1_555
U3_2 O10 1_555 1_555
U3A O14 1_555 1_555
K1B O1B 1_555 1_555
K1C O4 1_555 1_555
O1B K1 1_555 1_555
O4C K1 1_555 1_555
O5B K1 1_555 1_555
O9A U2 1_555 1_555
O10_2 U3 1_555 1_555
O13A U2 1_555 1_555
O14A U3 1_555 1_555
O15A U1 1_555 1_555
U2 O12 1_555 1_555
U3 O12 1_555 1_555
U3 O13 1_555 1_555
U3 O15 1_555 1_555
K1 O7 1_555 1_555
O8 C1 1_555 1_555
C4 C5 1_555 1_555
C6 C7 1_555 1_555
U1A O13A 1_555 1_555
U1A O14A 1_555 1_555
U2A_2 O15A 1_555 1_555
U3A O15A 1_555 1_555

#END
