
#######################################################################
#
#                 Cambridge Crystallographic Data Centre
#                                CCDC 
#
#######################################################################
#
# If this CIF has been generated from an entry in the Cambridge 
# Structural Database, then it will include bibliographic, chemical, 
# crystal, experimental, refinement or atomic coordinate data resulting 
# from the CCDC's data processing and validation procedures.
#
#######################################################################

data_CISKAR
_symmetry_cell_setting           monoclinic
_symmetry_space_group_name_H-M   'P 21'
_symmetry_Int_Tables_number      4
_space_group_name_Hall           'P 2yb'
loop_
_symmetry_equiv_pos_site_id
_symmetry_equiv_pos_as_xyz
1 x,y,z
2 -x,1/2+y,-z
_cell_length_a                   11.618(2)
_cell_length_b                   7.8236(16)
_cell_length_c                   13.042(3)
_cell_angle_alpha                90
_cell_angle_beta                 94.45(3)
_cell_angle_gamma                90
_cell_volume                     1181.87
loop_
_atom_site_label
_atom_site_type_symbol
_atom_site_fract_x
_atom_site_fract_y
_atom_site_fract_z
Lu1 Lu 0.461334(17) 0.49969(5) 0.523564(14)
O1 O 0.5918(3) 0.5680(4) 0.4167(3)
O2 O 0.6723(3) 0.8295(5) 0.4182(3)
O3 O 0.6011(3) 0.3876(5) 0.6276(3)
O4 O 0.6675(3) 0.1379(5) 0.5763(3)
O5 O 0.5419(3) 0.7731(5) 0.5860(2)
O6 O 0.4180(3) 0.6372(5) 0.6734(3)
C1 C 0.6777(4) 0.6682(8) 0.4111(4)
C2 C 0.7942(10) 0.5899(18) 0.3979(8)
H1 H 0.8580 0.6610 0.3946
C3 C 0.8079(9) 0.4231(16) 0.3910(7)
H2 H 0.7423 0.3556 0.3936
C4 C 0.9177(4) 0.3348(8) 0.3795(4)
C5 C 1.0246(4) 0.4129(8) 0.3848(4)
H3 H 1.0282 0.5294 0.3988
C6 C 1.1257(5) 0.3288(9) 0.3706(4)
H4 H 1.1961 0.3858 0.3752
C7 C 1.1185(6) 0.1523(10) 0.3489(5)
H5 H 1.1851 0.0918 0.3372
C8 C 1.0155(6) 0.0701(9) 0.3450(5)
H6 H 1.0116 -0.0468 0.3323
C9 C 0.9167(5) 0.1608(9) 0.3599(5)
H7 H 0.8465 0.1030 0.3566
C10 C 0.6658(4) 0.2621(7) 0.6395(4)
C11 C 0.7471(5) 0.2491(7) 0.7340(4)
H8 H 0.8060 0.1684 0.7362
C12 C 0.7372(4) 0.3506(7) 0.8154(4)
H9 H 0.6789 0.4322 0.8098
C13 C 0.8096(5) 0.3457(8) 0.9130(4)
C14 C 0.9163(5) 0.2640(9) 0.9220(4)
H10 H 0.9444 0.2135 0.8645
C15 C 0.9807(7) 0.257(2) 1.0147(7)
H11 H 1.0508 0.1989 1.0201
C16 C 0.9408(6) 0.3371(10) 1.1009(5)
H12 H 0.9855 0.3355 1.1632
C17 C 0.8368(6) 0.4172(9) 1.0937(4)
H13 H 0.8094 0.4670 1.1518
C18 C 0.7704(5) 0.4255(8) 0.9994(4)
H14 H 0.7005 0.4839 0.9945
C19 C 0.4982(5) 0.7446(7) 0.6736(4)
C20 C 0.5530(5) 0.8206(8) 0.7660(4)
H15 H 0.6076 0.9063 0.7606
C21 C 0.5260(5) 0.7690(8) 0.8597(4)
H16 H 0.4629 0.6961 0.8614
C22 C 0.5852(5) 0.8152(8) 0.9602(4)
C23 C 0.6879(5) 0.9041(8) 0.9701(4)
H17 H 0.7217 0.9397 0.9114
C24 C 0.7418(5) 0.9411(8) 1.0660(4)
H18 H 0.8102 1.0032 1.0718
C25 C 0.6929(6) 0.8851(9) 1.1526(5)
H19 H 0.7289 0.9089 1.2172
C26 C 0.5908(6) 0.7939(10) 1.1447(4)
H20 H 0.5588 0.7549 1.2036
C27 C 0.5359(5) 0.7605(8) 1.0477(4)
H21 H 0.4661 0.7016 1.0419
Lu1A Lu 0.538666(17) 0.99969(5) 0.476436(14)
Lu1A_2 Lu 0.538666(17) -0.00031(5) 0.476436(14)
O2A O 0.3277(3) 0.3295(5) 0.5818(3)
O4A O 0.3325(3) 0.6379(5) 0.4237(3)
O5A O 0.4581(3) 0.2731(5) 0.4140(2)
loop_
_geom_bond_atom_site_label_1
_geom_bond_atom_site_label_2
_geom_bond_site_symmetry_1
_geom_bond_site_symmetry_2
Lu1 O1 1_555 1_555
O1 C1 1_555 1_555
O2 C1 1_555 1_555
O3 Lu1 1_555 1_555
O4 C10 1_555 1_555
O5 Lu1 1_555 1_555
O6 Lu1 1_555 1_555
C1 C2 1_555 1_555
C2 H1 1_555 1_555
C3 C2 1_555 1_555
H2 C3 1_555 1_555
C4 C3 1_555 1_555
C5 C4 1_555 1_555
H3 C5 1_555 1_555
C6 C5 1_555 1_555
H4 C6 1_555 1_555
C7 C6 1_555 1_555
H5 C7 1_555 1_555
C8 C7 1_555 1_555
H6 C8 1_555 1_555
C9 C4 1_555 1_555
H7 C9 1_555 1_555
C10 O3 1_555 1_555
C11 C10 1_555 1_555
H8 C11 1_555 1_555
C12 C11 1_555 1_555
H9 C12 1_555 1_555
C13 C12 1_555 1_555
C14 C13 1_555 1_555
H10 C14 1_555 1_555
C15 C14 1_555 1_555
H11 C15 1_555 1_555
C16 C15 1_555 1_555
H12 C16 1_555 1_555
C17 C16 1_555 1_555
H13 C17 1_555 1_555
C18 C13 1_555 1_555
H14 C18 1_555 1_555
C19 O5 1_555 1_555
C20 C19 1_555 1_555
H15 C20 1_555 1_555
C21 C20 1_555 1_555
H16 C21 1_555 1_555
C22 C21 1_555 1_555
C23 C22 1_555 1_555
H17 C23 1_555 1_555
C24 C23 1_555 1_555
H18 C24 1_555 1_555
C25 C24 1_555 1_555
H19 C25 1_555 1_555
C26 C25 1_555 1_555
H20 C26 1_555 1_555
C27 C22 1_555 1_555
H21 C27 1_555 1_555
Lu1A O2 1_555 1_555
Lu1A_2 O4 1_555 1_555
O2A Lu1 1_555 1_555
O4A Lu1 1_555 1_555
O5A Lu1 1_555 1_555
O5 Lu1A 1_555 1_555
O6 C19 1_555 1_555
C8 C9 1_555 1_555
C17 C18 1_555 1_555
C26 C27 1_555 1_555
Lu1A_2 O5A 1_555 1_555

#END
