
#######################################################################
#
#                 Cambridge Crystallographic Data Centre
#                                CCDC 
#
#######################################################################
#
# If this CIF has been generated from an entry in the Cambridge 
# Structural Database, then it will include bibliographic, chemical, 
# crystal, experimental, refinement or atomic coordinate data resulting 
# from the CCDC's data processing and validation procedures.
#
#######################################################################

data_CISKAR01
_symmetry_cell_setting           monoclinic
_symmetry_space_group_name_H-M   'P 21'
_symmetry_Int_Tables_number      4
_space_group_name_Hall           'P 2yb'
loop_
_symmetry_equiv_pos_site_id
_symmetry_equiv_pos_as_xyz
1 x,y,z
2 -x,1/2+y,-z
_cell_length_a                   11.589(2)
_cell_length_b                   7.817(2)
_cell_length_c                   13.021(3)
_cell_angle_alpha                90
_cell_angle_beta                 94.354(3)
_cell_angle_gamma                90
_cell_volume                     1176.18
loop_
_atom_site_label
_atom_site_type_symbol
_atom_site_fract_x
_atom_site_fract_y
_atom_site_fract_z
Lu1 Lu 0.46131(2) 0.5081(2) 0.52359(2)
O1 O 0.5942(5) 0.4396(9) 0.4174(5)
O2 O 0.6731(5) 0.1781(9) 0.4184(5)
O3 O 0.4579(5) 0.7349(8) 0.4141(4)
O4 O 0.5824(6) 0.8704(9) 0.3257(5)
O5 O 0.6675(6) 0.8702(9) 0.5766(5)
O6 O 0.6023(6) 0.6189(9) 0.6278(5)
C1 C 0.6792(8) 0.3409(13) 0.4117(6)
C2 C 0.7920(12) 0.416(2) 0.3952(11)
C3 C 0.8109(13) 0.584(2) 0.3926(11)
C4 C 0.9184(8) 0.6729(13) 0.3801(7)
C5 C 1.0251(8) 0.592(1) 0.3846(8)
C6 C 1.1262(9) 0.681(2) 0.3698(8)
C7 C 1.1193(10) 0.856(2) 0.3478(9)
C8 C 1.0142(11) 0.936(2) 0.3442(10)
C9 C 0.9158(10) 0.851(2) 0.3606(9)
C10 C 0.5026(8) 0.7678(12) 0.3273(6)
C11 C 0.4450(9) 0.6865(13) 0.2320(6)
C12 C 0.4747(8) 0.7388(13) 0.1416(7)
C13 C 0.4156(8) 0.6936(13) 0.0410(6)
C14 C 0.3119(10) 0.604(2) 0.0304(8)
C15 C 0.2590(10) 0.571(2) -0.0657(9)
C16 C 0.3067(10) 0.625(2) -0.1533(8)
C17 C 0.4089(11) 0.712(2) -0.1451(7)
C18 C 0.4641(10) 0.748(2) -0.0487(7)
C19 C 0.6659(7) 0.7464(12) 0.6405(6)
C20 C 0.7462(8) 0.7590(13) 0.7349(7)
C21 C 0.7365(8) 0.6572(13) 0.8153(7)
C22 C 0.8110(9) 0.6630(13) 0.9141(7)
C23 C 0.9153(9) 0.744(2) 0.9213(8)
C24 C 0.9824(12) 0.746(2) 1.0163(10)
C25 C 0.9416(11) 0.672(2) 1.1004(8)
C26 C 0.8359(11) 0.591(2) 1.0944(8)
C27 C 0.7710(10) 0.584(2) 0.9992(8)
H1 H 0.8549 0.3415 0.3858
H2 H 0.7453 0.6548 0.3998
H3 H 1.0292 0.4726 0.3982
H4 H 1.1989 0.6246 0.3745
H5 H 1.1871 0.9184 0.3355
H6 H 1.0104 1.0550 0.3298
H7 H 0.8446 0.9117 0.3590
H8 H 0.3885 0.5994 0.2370
H9 H 0.5399 0.8122 0.1411
H10 H 0.2772 0.5654 0.0899
H11 H 0.1882 0.5093 -0.0716
H12 H 0.2686 0.6031 -0.2192
H13 H 0.4430 0.7474 -0.2056
H14 H 0.5348 0.8100 -0.0439
H15 H 0.8061 0.8423 0.7378
H16 H 0.6771 0.5733 0.8096
H17 H 0.9427 0.7989 0.8627
H18 H 1.0562 0.8000 1.0214
H19 H 0.9868 0.6752 1.1644
H20 H 0.8073 0.5402 1.1538
H21 H 0.6991 0.5253 0.9933
Lu1A Lu 0.53869(2) 0.0081(2) 0.47641(2)
Lu1A_2 Lu 0.53869(2) 1.0081(2) 0.47641(2)
O2A O 0.3269(5) 0.6781(9) 0.5816(5)
O3A O 0.5421(5) 0.2349(8) 0.5859(4)
O4A O 0.4176(6) 0.3704(9) 0.6743(5)
O5A O 0.3325(6) 0.3702(9) 0.4234(5)
loop_
_geom_bond_atom_site_label_1
_geom_bond_atom_site_label_2
_geom_bond_site_symmetry_1
_geom_bond_site_symmetry_2
Lu1 O1 1_555 1_555
O1 C1 1_555 1_555
O2 C1 1_555 1_555
O3 Lu1 1_555 1_555
O4 C10 1_555 1_555
O5 C19 1_555 1_555
O6 Lu1 1_555 1_555
C1 C2 1_555 1_555
C2 C3 1_555 1_555
C3 C4 1_555 1_555
C4 C5 1_555 1_555
C5 C6 1_555 1_555
C6 C7 1_555 1_555
C7 C8 1_555 1_555
C8 C9 1_555 1_555
C9 C4 1_555 1_555
C10 O3 1_555 1_555
C11 C10 1_555 1_555
C12 C11 1_555 1_555
C13 C12 1_555 1_555
C14 C13 1_555 1_555
C15 C14 1_555 1_555
C16 C15 1_555 1_555
C17 C16 1_555 1_555
C18 C13 1_555 1_555
C19 O6 1_555 1_555
C20 C19 1_555 1_555
C21 C20 1_555 1_555
C22 C21 1_555 1_555
C23 C22 1_555 1_555
C24 C23 1_555 1_555
C25 C24 1_555 1_555
C26 C25 1_555 1_555
C27 C22 1_555 1_555
H1 C2 1_555 1_555
H2 C3 1_555 1_555
H3 C5 1_555 1_555
H4 C6 1_555 1_555
H5 C7 1_555 1_555
H6 C8 1_555 1_555
H7 C9 1_555 1_555
H8 C11 1_555 1_555
H9 C12 1_555 1_555
H10 C14 1_555 1_555
H11 C15 1_555 1_555
H12 C16 1_555 1_555
H13 C17 1_555 1_555
H14 C18 1_555 1_555
H15 C20 1_555 1_555
H16 C21 1_555 1_555
H17 C23 1_555 1_555
H18 C24 1_555 1_555
H19 C25 1_555 1_555
H20 C26 1_555 1_555
H21 C27 1_555 1_555
Lu1A O2 1_555 1_555
Lu1A_2 O3 1_555 1_555
O2A Lu1 1_555 1_555
O3A Lu1 1_555 1_555
O4A Lu1 1_555 1_555
O5A Lu1 1_555 1_555
O4 Lu1A_2 1_555 1_555
O5 Lu1A_2 1_555 1_555
C17 C18 1_555 1_555
C26 C27 1_555 1_555
Lu1A O3A 1_555 1_555

#END
