
#######################################################################
#
#                 Cambridge Crystallographic Data Centre
#                                CCDC 
#
#######################################################################
#
# If this CIF has been generated from an entry in the Cambridge 
# Structural Database, then it will include bibliographic, chemical, 
# crystal, experimental, refinement or atomic coordinate data resulting 
# from the CCDC's data processing and validation procedures.
#
#######################################################################

data_CISKEV
_symmetry_cell_setting           rhombohedral
_symmetry_space_group_name_H-M   'R 3 c'
_symmetry_Int_Tables_number      161
_space_group_name_Hall           'R 3 -2"c'
loop_
_symmetry_equiv_pos_site_id
_symmetry_equiv_pos_as_xyz
1 x,y,z
2 -y,x-y,z
3 -y,-x,1/2+z
4 -x+y,-x,z
5 x,x-y,1/2+z
6 -x+y,y,1/2+z
7 2/3+x,1/3+y,1/3+z
8 2/3-y,1/3+x-y,1/3+z
9 2/3-y,1/3-x,5/6+z
10 2/3-x+y,1/3-x,1/3+z
11 2/3+x,1/3+x-y,5/6+z
12 2/3-x+y,1/3+y,5/6+z
13 1/3+x,2/3+y,2/3+z
14 1/3-y,2/3+x-y,2/3+z
15 1/3-y,2/3-x,1/6+z
16 1/3-x+y,2/3-x,2/3+z
17 1/3+x,2/3+x-y,1/6+z
18 1/3-x+y,2/3+y,1/6+z
_cell_length_a                   22.690(3)
_cell_length_b                   22.690(3)
_cell_length_c                   7.8916(16)
_cell_angle_alpha                90
_cell_angle_beta                 90
_cell_angle_gamma                120.00
_cell_volume                     3518.56
loop_
_atom_site_label
_atom_site_type_symbol
_atom_site_fract_x
_atom_site_fract_y
_atom_site_fract_z
Pr1 Pr 1.0000 0.0000 0.50015(4)
O1 O 0.91914(9) -0.01896(8) 0.7364(3)
O2 O 0.92158(10) 0.04274(10) 0.9533(2)
C1 C 0.89894(14) 0.01833(14) 0.8094(3)
C2 C 0.84852(15) 0.03147(15) 0.7252(4)
H1 H 0.8267 0.0069 0.6282
C3 C 0.83319(16) 0.07718(18) 0.7833(4)
H2 H 0.8548 0.0994 0.8829
C4 C 0.78635(16) 0.09666(16) 0.7088(4)
C5 C 0.73894(16) 0.05818(17) 0.5847(4)
H3 H 0.7356 0.0177 0.5474
C6 C 0.69646(19) 0.0800(2) 0.5159(5)
H4 H 0.6644 0.0537 0.4345
C7 C 0.7020(2) 0.1412(2) 0.5691(5)
H5 H 0.6747 0.1564 0.5211
C8 C 0.7481(2) 0.17868(19) 0.6927(5)
H6 H 0.7514 0.2190 0.7303
C9 C 0.78987(18) 0.15672(17) 0.7618(4)
H7 H 0.8209 0.1827 0.8455
Pr1B Pr 1.0000 0.0000 1.00015(4)
Pr1B_2 Pr 1.0000 0.0000 0.00015(4)
O1A O 1.01896(8) -0.06190(12) 0.7364(3)
O1B O 1.01896(8) 0.08086(9) 0.2364(3)
O1C O 1.06190(12) 0.08086(9) 0.7364(3)
O1D O 0.91914(9) -0.06190(12) 0.2364(3)
O1E O 1.06190(12) -0.01896(8) 0.2364(3)
O2A O 0.95726(10) -0.12116(14) 0.9533(2)
O2B O 0.95726(10) 0.07842(10) 0.4533(2)
O2D O 0.92158(10) -0.12116(14) 0.4533(2)
O2E O 1.12116(14) 0.04274(10) 0.4533(2)
C1A C 0.98167(14) -0.11939(20) 0.8094(3)
C1B C 0.98167(14) 0.10106(14) 0.3094(3)
C2A C 0.96853(15) -0.18295(21) 0.7252(4)
C2B C 0.96853(15) 0.15148(15) 0.2252(4)
H1A H 0.9931 -0.1802 0.6282
H1B H 0.9931 0.1733 0.1282
C3A C 0.92282(18) -0.24399(24) 0.7833(4)
C3B C 0.92282(18) 0.16681(16) 0.2833(4)
H2A H 0.9006 -0.2446 0.8829
H2B H 0.9006 0.1452 0.3829
C4A C 0.90334(16) -0.31031(23) 0.7088(4)
C4B C 0.90334(16) 0.21365(16) 0.2088(4)
C5A C 0.94182(17) -0.31924(23) 0.5847(4)
C5B C 0.94182(17) 0.26106(16) 0.0847(4)
H3A H 0.9823 -0.2821 0.5474
H3B H 0.9823 0.2644 0.0474
C6A C 0.9200(2) -0.38354(28) 0.5159(5)
C6B C 0.9200(2) 0.30354(19) 0.0159(5)
H4A H 0.9463 -0.3893 0.4345
H4B H 0.9463 0.3356 -0.0655
C7A C 0.8588(2) -0.4392(3) 0.5691(5)
C7B C 0.8588(2) 0.2980(2) 0.0691(5)
H5A H 0.8436 -0.4817 0.5211
H5B H 0.8436 0.3253 0.0211
C8A C 0.82132(19) -0.43058(28) 0.6927(5)
C8B C 0.82132(19) 0.2519(2) 0.1927(5)
H6A H 0.7810 -0.4676 0.7303
H6B H 0.7810 0.2486 0.2303
C9A C 0.84328(17) -0.36685(25) 0.7618(4)
C9B C 0.84328(17) 0.21013(18) 0.2618(4)
H7A H 0.8173 -0.3618 0.8455
H7B H 0.8173 0.1791 0.3455
loop_
_geom_bond_atom_site_label_1
_geom_bond_atom_site_label_2
_geom_bond_site_symmetry_1
_geom_bond_site_symmetry_2
Pr1 O1 1_555 1_555
O1 C1 1_555 1_555
O2 C1 1_555 1_555
C1 C2 1_555 1_555
C2 H1 1_555 1_555
C3 C2 1_555 1_555
H2 C3 1_555 1_555
C4 C3 1_555 1_555
C5 C4 1_555 1_555
H3 C5 1_555 1_555
C6 C5 1_555 1_555
H4 C6 1_555 1_555
C7 C6 1_555 1_555
H5 C7 1_555 1_555
C8 C7 1_555 1_555
H6 C8 1_555 1_555
C9 C4 1_555 1_555
H7 C9 1_555 1_555
Pr1B O1 1_555 1_555
Pr1B_2 O1B 1_555 1_555
O1A Pr1 1_555 1_555
O1B Pr1 1_555 1_555
O1C Pr1 1_555 1_555
O1D Pr1 1_555 1_555
O1E Pr1 1_555 1_555
O2A Pr1B 1_555 1_555
O2B Pr1 1_555 1_555
O2D Pr1 1_555 1_555
O2E Pr1 1_555 1_555
C1A O1A 1_555 1_555
C1B O1B 1_555 1_555
C2A C1A 1_555 1_555
C2B C1B 1_555 1_555
H1A C2A 1_555 1_555
H1B C2B 1_555 1_555
C3A C2A 1_555 1_555
C3B C2B 1_555 1_555
H2A C3A 1_555 1_555
H2B C3B 1_555 1_555
C4A C3A 1_555 1_555
C4B C3B 1_555 1_555
C5A C4A 1_555 1_555
C5B C4B 1_555 1_555
H3A C5A 1_555 1_555
H3B C5B 1_555 1_555
C6A C5A 1_555 1_555
C6B C5B 1_555 1_555
H4A C6A 1_555 1_555
H4B C6B 1_555 1_555
C7A C6A 1_555 1_555
C7B C6B 1_555 1_555
H5A C7A 1_555 1_555
H5B C7B 1_555 1_555
C8A C7A 1_555 1_555
C8B C7B 1_555 1_555
H6A C8A 1_555 1_555
H6B C8B 1_555 1_555
C9A C4A 1_555 1_555
C9B C4B 1_555 1_555
H7A C9A 1_555 1_555
H7B C9B 1_555 1_555
O2 Pr1B 1_555 1_555
C8 C9 1_555 1_555
Pr1B O1A 1_555 1_555
Pr1B O1C 1_555 1_555
Pr1B_2 O1D 1_555 1_555
Pr1B_2 O1E 1_555 1_555
O2A C1A 1_555 1_555
O2B C1B 1_555 1_555
C8A C9A 1_555 1_555
C8B C9B 1_555 1_555

#END
