
#######################################################################
#
#                 Cambridge Crystallographic Data Centre
#                                CCDC 
#
#######################################################################
#
# If this CIF has been generated from an entry in the Cambridge 
# Structural Database, then it will include bibliographic, chemical, 
# crystal, experimental, refinement or atomic coordinate data resulting 
# from the CCDC's data processing and validation procedures.
#
#######################################################################

data_CISLAS
_symmetry_cell_setting           orthorhombic
_symmetry_space_group_name_H-M   'P b c a'
_symmetry_Int_Tables_number      61
_space_group_name_Hall           '-P 2ac 2ab'
loop_
_symmetry_equiv_pos_site_id
_symmetry_equiv_pos_as_xyz
1 x,y,z
2 1/2-x,-y,1/2+z
3 -x,1/2+y,1/2-z
4 1/2+x,1/2-y,-z
5 -x,-y,-z
6 1/2+x,y,1/2-z
7 x,1/2-y,1/2+z
8 1/2-x,1/2+y,z
_cell_length_a                   6.9504(2)
_cell_length_b                   10.6473(3)
_cell_length_c                   17.8555(5)
_cell_angle_alpha                90
_cell_angle_beta                 90
_cell_angle_gamma                90
_cell_volume                     1321.36
loop_
_atom_site_label
_atom_site_type_symbol
_atom_site_fract_x
_atom_site_fract_y
_atom_site_fract_z
Zn1 Zn 1.0000 0.5000 0.0000
C1 C 0.6053(2) 0.76298(17) 0.08751(9)
C2 C 0.7549(3) 0.59748(17) 0.13216(10)
H1 H 0.8007 0.5382 0.1660
N1 N 0.6437(2) 0.69607(14) 0.15091(8)
H2 H 0.6037 0.7138 0.1952
N2 N 0.6968(2) 0.69990(14) 0.03377(8)
N3 N 0.7899(2) 0.59573(14) 0.06146(8)
O4 O 0.50528(17) 0.85964(13) 0.08220(7)
O5 O 1.2190(2) 0.58485(14) 0.07028(8)
H3 H 0.684(5) 0.712(3) -0.0171(17)
H4 H 1.299(4) 0.526(2) 0.0867(13)
H5 H 1.184(4) 0.618(2) 0.1071(15)
Zn1G Zn 0.5000 1.0000 0.0000
Zn1G_2 Zn 1.5000 0.0000 0.0000
C1D C 1.3947(2) 0.23702(17) -0.08751(9)
C2D C 1.2451(3) 0.40252(17) -0.13216(10)
H1D H 1.1993 0.4618 -0.1660
N1D N 1.3563(2) 0.30393(14) -0.15091(8)
H2D H 1.3963 0.2862 -0.1952
N2D N 1.3032(2) 0.30010(14) -0.03377(8)
N3D N 1.2101(2) 0.40427(14) -0.06146(8)
O4D O 1.49472(17) 0.14036(13) -0.08220(7)
O4G O 0.99472(17) 0.35964(13) 0.08220(7)
O4C O 1.00528(17) 0.64036(13) -0.08220(7)
O5D O 0.7810(2) 0.41515(14) -0.07028(8)
H3D H 1.316(5) 0.288(3) 0.0171(17)
H4D H 0.701(4) 0.474(2) -0.0867(13)
H5D H 0.816(4) 0.382(2) -0.1071(15)
N4 N 0.4066(3) 0.34536(18) 0.17739(9)
O1 O 0.3887(3) 0.23150(15) 0.19511(7)
O2 O 0.4402(2) 0.37269(15) 0.11041(8)
O3 O 0.3941(4) 0.42626(17) 0.22470(10)
loop_
_geom_bond_atom_site_label_1
_geom_bond_atom_site_label_2
_geom_bond_site_symmetry_1
_geom_bond_site_symmetry_2
Zn1 N3 1_555 1_555
C1 N1 1_555 1_555
C2 H1 1_555 1_555
N1 C2 1_555 1_555
H2 N1 1_555 1_555
N2 C1 1_555 1_555
N3 C2 1_555 1_555
N4 O1 1_555 1_555
O2 N4 1_555 1_555
O3 N4 1_555 1_555
O4 C1 1_555 1_555
O5 Zn1 1_555 1_555
H3 N2 1_555 1_555
H4 O5 1_555 1_555
H5 O5 1_555 1_555
Zn1G O4 1_555 1_555
Zn1G_2 O4D 1_555 1_555
C1D N1D 1_555 1_555
C2D H1D 1_555 1_555
N1D C2D 1_555 1_555
H2D N1D 1_555 1_555
N2D C1D 1_555 1_555
N3D Zn1 1_555 1_555
O4D C1D 1_555 1_555
O4G Zn1 1_555 1_555
O4C Zn1 1_555 1_555
O5D Zn1 1_555 1_555
H3D N2D 1_555 1_555
H4D O5D 1_555 1_555
H5D O5D 1_555 1_555
N2 N3 1_555 1_555
C2D N3D 1_555 1_555
N2D N3D 1_555 1_555

#END
