
#######################################################################
#
#                 Cambridge Crystallographic Data Centre
#                                CCDC 
#
#######################################################################
#
# If this CIF has been generated from an entry in the Cambridge 
# Structural Database, then it will include bibliographic, chemical, 
# crystal, experimental, refinement or atomic coordinate data resulting 
# from the CCDC's data processing and validation procedures.
#
#######################################################################

data_CISMEY
_symmetry_cell_setting           triclinic
_symmetry_space_group_name_H-M   'P -1'
_symmetry_Int_Tables_number      2
_space_group_name_Hall           '-P 1'
loop_
_symmetry_equiv_pos_site_id
_symmetry_equiv_pos_as_xyz
1 x,y,z
2 -x,-y,-z
_cell_length_a                   9.1794(9)
_cell_length_b                   9.4600(9)
_cell_length_c                   11.1538(10)
_cell_angle_alpha                90.7260(10)
_cell_angle_beta                 100.2520(10)
_cell_angle_gamma                105.2650(10)
_cell_volume                     917.664
loop_
_atom_site_label
_atom_site_type_symbol
_atom_site_fract_x
_atom_site_fract_y
_atom_site_fract_z
C1 C 0.0761(5) -0.2357(4) 0.3034(4)
C2 C 0.1338(4) -0.1375(4) 0.4176(3)
C3 C 0.1479(4) -0.1952(4) 0.5301(3)
H1 H 0.1260 -0.2964 0.5352
C4 C 0.1945(4) -0.1039(4) 0.6368(3)
C5 C 0.2286(4) 0.0471(4) 0.6288(3)
H2 H 0.2594 0.1092 0.6992
C6 C 0.2163(4) 0.1046(4) 0.5153(4)
C7 C 0.1675(4) 0.0143(4) 0.4099(3)
H3 H 0.1572 0.0543 0.3341
C8 C 0.1993(4) -0.1691(4) 0.7594(3)
C9 C 0.3537(4) 0.3536(4) 0.5791(3)
C10 C 0.3260(5) 0.4855(4) 0.6033(4)
H4 H 0.2314 0.5017 0.5714
C11 C 0.4400(5) 0.5944(5) 0.6755(4)
H5 H 0.4220 0.6846 0.6905
C12 C 0.5794(4) 0.5713(4) 0.7253(3)
C13 C 0.6041(5) 0.4372(4) 0.6990(4)
H6 H 0.6979 0.4198 0.7315
C14 C 0.4919(5) 0.3281(5) 0.6252(4)
H7 H 0.5105 0.2388 0.6073
C15 C 0.6978(4) 0.6869(4) 0.8040(3)
Cd1 Cd 0.16276(3) -0.13385(3) 0.03213(2)
Cd2 Cd -0.00304(3) -0.52291(3) 0.15004(2)
N1 N 0.6724(4) 0.8115(3) 0.8424(3)
N2 N 0.8067(4) 0.8872(3) 0.9112(3)
N3 N 0.9077(4) 0.8117(3) 0.9152(3)
N4 N 0.8424(4) 0.6844(3) 0.8473(3)
O1 O 0.0406(3) -0.1795(3) 0.2039(2)
O2 O 0.0626(3) -0.3709(3) 0.3140(2)
O3 O 0.1556(3) -0.3061(3) 0.7580(3)
O4 O 0.2464(4) -0.0823(3) 0.8535(3)
O5 O 0.2374(3) 0.2536(3) 0.5000(3)
O6 O 0.4065(4) -0.0944(4) 0.1516(4)
O7 O 0.1416(3) -0.3749(3) 0.0313(2)
O8 O -0.2412(4) -0.3904(4) 0.1247(4)
Cd1_2 Cd 0.16276(3) -0.13385(3) 1.03213(2)
Cd1_3 Cd 1.16276(3) 0.86615(3) 1.03213(2)
Cd1A Cd 0.83724(3) 1.13385(3) 0.96787(2)
Cd2A Cd 0.00304(3) -0.47709(3) -0.15004(2)
Cd2A_2 Cd 0.00304(3) -0.47709(3) 0.84996(2)
Cd2A_3 Cd 1.00304(3) 0.52291(3) 0.84996(2)
N2A N 0.1933(4) 0.1128(3) 0.0888(3)
N3_2 N -0.0923(4) -0.1883(3) -0.0848(3)
N4A N 0.1576(4) -0.6844(3) 0.1527(3)
O3A O -0.1556(3) -0.6939(3) 0.2420(3)
O4_2 O 0.2464(4) -0.0823(3) -0.1465(3)
O7A O -0.1416(3) -0.6251(3) -0.0313(2)
O9 O 0.4773(5) 0.6854(6) 0.0264(4)
loop_
_geom_bond_atom_site_label_1
_geom_bond_atom_site_label_2
_geom_bond_site_symmetry_1
_geom_bond_site_symmetry_2
C1 C2 1_555 1_555
C2 C3 1_555 1_555
C3 H1 1_555 1_555
C4 C3 1_555 1_555
C5 C4 1_555 1_555
H2 C5 1_555 1_555
C6 C5 1_555 1_555
C7 C2 1_555 1_555
H3 C7 1_555 1_555
C8 C4 1_555 1_555
C9 C10 1_555 1_555
C10 H4 1_555 1_555
C11 C10 1_555 1_555
H5 C11 1_555 1_555
C12 C11 1_555 1_555
C13 C12 1_555 1_555
H6 C13 1_555 1_555
C14 C9 1_555 1_555
H7 C14 1_555 1_555
C15 C12 1_555 1_555
Cd1 O1 1_555 1_555
Cd2 O2 1_555 1_555
N1 C15 1_555 1_555
N2 N1 1_555 1_555
N3 N2 1_555 1_555
N4 C15 1_555 1_555
O1 C1 1_555 1_555
O2 C1 1_555 1_555
O3 C8 1_555 1_555
O4 C8 1_555 1_555
O5 C6 1_555 1_555
O6 Cd1 1_555 1_555
O7 Cd1 1_555 1_555
O8 Cd2 1_555 1_555
Cd1_2 O4 1_555 1_555
Cd1_3 N3 1_555 1_555
Cd1A N2 1_555 1_555
Cd2A O7 1_555 1_555
Cd2A_2 O3 1_555 1_555
Cd2A_3 N4 1_555 1_555
N2A Cd1 1_555 1_555
N3_2 Cd1 1_555 1_555
N4A Cd2 1_555 1_555
O3A Cd2 1_555 1_555
O4_2 Cd1 1_555 1_555
O7A Cd2 1_555 1_555
C6 C7 1_555 1_555
C9 O5 1_555 1_555
C13 C14 1_555 1_555
Cd2 O7 1_555 1_555
N3 N4 1_555 1_555
Cd2A O7A 1_555 1_555

#END
