
#######################################################################
#
#                 Cambridge Crystallographic Data Centre
#                                CCDC 
#
#######################################################################
#
# If this CIF has been generated from an entry in the Cambridge 
# Structural Database, then it will include bibliographic, chemical, 
# crystal, experimental, refinement or atomic coordinate data resulting 
# from the CCDC's data processing and validation procedures.
#
#######################################################################

data_CISMAT
_symmetry_cell_setting           monoclinic
_symmetry_space_group_name_H-M   'P 21/m'
_symmetry_Int_Tables_number      11
_space_group_name_Hall           '-P 2yb'
loop_
_symmetry_equiv_pos_site_id
_symmetry_equiv_pos_as_xyz
1 x,y,z
2 -x,1/2+y,-z
3 -x,-y,-z
4 x,1/2-y,z
_cell_length_a                   4.961(2)
_cell_length_b                   11.930(5)
_cell_length_c                   10.727(5)
_cell_angle_alpha                90
_cell_angle_beta                 93.972(6)
_cell_angle_gamma                90
_cell_volume                     633.35
loop_
_atom_site_label
_atom_site_type_symbol
_atom_site_fract_x
_atom_site_fract_y
_atom_site_fract_z
Al1 Al -1.0000 0.5000 0.0000
Al2 Al -0.7492(4) 0.2500 -0.1117(2)
P1 P -1.4801(3) 0.51301(11) 0.17958(12)
F1 F -0.9540(6) 0.3527(2) -0.0364(3)
O1 O -1.2908(7) 0.4568(3) 0.0918(3)
O2 O -1.4451(7) 0.6407(3) 0.1827(3)
O3 O -1.7728(8) 0.4803(3) 0.1474(4)
O4 O -0.5094(11) 0.2500 0.0386(5)
O5 O -1.0267(11) 0.2500 -0.2466(5)
C1 C -1.5562(13) 0.5158(5) 0.4346(5)
H1 H -1.5549 0.5984 0.4258
H2 H -1.7458 0.4901 0.4222
C2 C -1.3892(11) 0.4633(5) 0.3338(5)
H3 H -1.4128 0.3809 0.3353
H4 H -1.1956 0.4795 0.3546
Al1_2 Al -2.0000 0.5000 0.0000
Al1_3 Al -2.0000 0.5000 1.0000
Al1_4 Al -1.0000 0.5000 1.0000
Al2B Al -1.2508(4) 0.7500 0.1117(2)
Al2_2 Al -1.7492(4) 0.2500 0.8883(2)
P1B P -1.5199(3) 0.48699(11) 0.82042(12)
F1B F -1.0460(6) 0.6473(2) 0.0364(3)
F1C F -0.9540(6) 0.1473(2) -0.0364(3)
O1B O -1.7092(7) 0.5432(3) 0.9082(3)
O1B_2 O -0.7092(7) 0.5432(3) -0.0918(3)
O2B O -1.5549(7) 0.3593(3) 0.8173(3)
O2B_2 O -0.5549(7) 0.3593(3) -0.1827(3)
O2A O -0.5549(7) 0.1407(3) -0.1827(3)
O3B O -1.2272(8) 0.5197(3) 0.8526(4)
O3_2 O -0.7728(8) 0.4803(3) 0.1474(4)
O3B_2 O -1.2272(8) 0.5197(3) -0.1474(4)
C1B C -1.4438(13) 0.4842(5) 0.5654(5)
H1B H -1.4451 0.4016 0.5742
H2B H -1.2542 0.5099 0.5778
C2B C -1.6108(11) 0.5367(5) 0.6662(5)
H3B H -1.5872 0.6191 0.6647
H4B H -1.8044 0.5205 0.6454
O6 O -0.9361(14) 0.2500 0.2562(6)
O7 O -0.911(2) 0.2500 -0.4880(7)
loop_
_geom_bond_atom_site_label_1
_geom_bond_atom_site_label_2
_geom_bond_site_symmetry_1
_geom_bond_site_symmetry_2
Al1 F1 1_555 1_555
Al2 F1 1_555 1_555
P1 O1 1_555 1_555
O1 Al1 1_555 1_555
O2 P1 1_555 1_555
O3 P1 1_555 1_555
O4 Al2 1_555 1_555
O5 Al2 1_555 1_555
C1 H1 1_555 1_555
H2 C1 1_555 1_555
C2 P1 1_555 1_555
H3 C2 1_555 1_555
H4 C2 1_555 1_555
Al1_2 O3 1_555 1_555
Al1_3 O1B 1_555 1_555
Al1_4 O3B 1_555 1_555
Al2B O2 1_555 1_555
Al2_2 O2B 1_555 1_555
P1B O1B 1_555 1_555
F1B Al1 1_555 1_555
F1C Al2 1_555 1_555
O1B_2 Al1 1_555 1_555
O2B P1B 1_555 1_555
O2B_2 Al2 1_555 1_555
O2A Al2 1_555 1_555
O3B P1B 1_555 1_555
O3_2 Al1 1_555 1_555
O3B_2 Al1 1_555 1_555
C1B C1 1_555 1_555
H1B C1B 1_555 1_555
H2B C1B 1_555 1_555
C2B P1B 1_555 1_555
H3B C2B 1_555 1_555
H4B C2B 1_555 1_555
C1 C2 1_555 1_555
Al2B F1B 1_555 1_555
C1B C2B 1_555 1_555

#END
