
#######################################################################
#
#                 Cambridge Crystallographic Data Centre
#                                CCDC 
#
#######################################################################
#
# If this CIF has been generated from an entry in the Cambridge 
# Structural Database, then it will include bibliographic, chemical, 
# crystal, experimental, refinement or atomic coordinate data resulting 
# from the CCDC's data processing and validation procedures.
#
#######################################################################

data_CISMAU
_symmetry_cell_setting           triclinic
_symmetry_space_group_name_H-M   'P -1'
_symmetry_Int_Tables_number      2
_space_group_name_Hall           '-P 1'
loop_
_symmetry_equiv_pos_site_id
_symmetry_equiv_pos_as_xyz
1 x,y,z
2 -x,-y,-z
_cell_length_a                   8.4724(15)
_cell_length_b                   9.3461(17)
_cell_length_c                   11.4906(19)
_cell_angle_alpha                82.012(2)
_cell_angle_beta                 76.920(2)
_cell_angle_gamma                69.835(2)
_cell_volume                     830.089
loop_
_atom_site_label
_atom_site_type_symbol
_atom_site_fract_x
_atom_site_fract_y
_atom_site_fract_z
O1 O 0.423(5) 0.113(6) 0.120(4)
C1 C 0.4522(5) -0.2410(4) 0.3520(3)
C2 C 0.3776(4) -0.1530(4) 0.4612(3)
C3 C 0.3662(4) -0.2251(4) 0.5747(3)
H1 H 0.4002 -0.3312 0.5850
C4 C 0.3033(4) -0.1368(4) 0.6733(3)
C5 C 0.2467(5) 0.0209(4) 0.6576(3)
H2 H 0.2014 0.0796 0.7237
C6 C 0.2576(4) 0.0907(4) 0.5442(3)
C7 C 0.3233(4) 0.0051(4) 0.4453(3)
H3 H 0.3311 0.0529 0.3687
C8 C 0.2963(4) -0.2085(4) 0.7972(3)
C9 C 0.1559(4) 0.3304(4) 0.4361(3)
C10 C 0.0444(5) 0.2952(4) 0.3820(4)
H4 H 0.0104 0.2100 0.4099
C11 C -0.0145(5) 0.3868(4) 0.2875(4)
H5 H -0.0866 0.3618 0.2496
C12 C 0.0307(4) 0.5168(4) 0.2466(3)
C13 C 0.1405(5) 0.5516(4) 0.3037(3)
H6 H 0.1717 0.6386 0.2781
C14 C 0.2025(5) 0.4579(4) 0.3974(3)
H7 H 0.2765 0.4810 0.4348
C15 C -0.0390(4) 0.6142(4) 0.1473(3)
N1 N -0.1865(4) 0.6227(3) 0.1171(3)
N2 N -0.2041(4) 0.7226(4) 0.0209(3)
N3 N -0.0751(4) 0.7725(4) -0.0069(3)
N4 N 0.0322(4) 0.7059(3) 0.0705(3)
O2 O 0.4515(4) -0.3749(3) 0.0709(3)
O3 O 0.4551(4) -0.1713(4) 0.2516(2)
O4 O 0.5123(4) -0.3849(3) 0.3625(2)
O5 O 0.3379(4) -0.3500(3) 0.8160(2)
O6 O 0.2455(4) -0.1217(3) 0.8813(2)
O7 O 0.2125(3) 0.2479(3) 0.5361(2)
O8 O 0.1761(4) 0.9404(3) 0.1464(3)
Zn1 Zn 0.59285(5) -0.42281(4) 0.18914(3)
Zn2 Zn 0.24389(5) 0.76910(5) 0.03901(4)
N1_2 N 0.8135(4) -0.3773(3) 0.1171(3)
O2_2 O 0.4515(4) 0.6251(3) 0.0709(3)
O5A O 0.6621(4) -0.6500(3) 0.1840(2)
O6_2 O 0.2455(4) 0.8783(3) -0.1187(2)
Zn1_2 Zn -0.40715(5) 0.57719(4) 0.18914(3)
Zn1A Zn 0.40715(5) -0.57719(4) 0.81086(3)
Zn2_2 Zn 0.24389(5) -0.23090(5) 0.03901(4)
Zn2_3 Zn 0.24389(5) -0.23090(5) 1.03901(4)
loop_
_geom_bond_atom_site_label_1
_geom_bond_atom_site_label_2
_geom_bond_site_symmetry_1
_geom_bond_site_symmetry_2
C1 C2 1_555 1_555
C2 C3 1_555 1_555
C3 H1 1_555 1_555
C4 C3 1_555 1_555
C5 C4 1_555 1_555
H2 C5 1_555 1_555
C6 C5 1_555 1_555
C7 C2 1_555 1_555
H3 C7 1_555 1_555
C8 C4 1_555 1_555
C9 C10 1_555 1_555
C10 H4 1_555 1_555
C11 C10 1_555 1_555
H5 C11 1_555 1_555
C12 C11 1_555 1_555
C13 C12 1_555 1_555
H6 C13 1_555 1_555
C14 C9 1_555 1_555
H7 C14 1_555 1_555
C15 C12 1_555 1_555
N1 C15 1_555 1_555
N2 N1 1_555 1_555
N3 N2 1_555 1_555
N4 C15 1_555 1_555
O2 Zn1 1_555 1_555
O3 C1 1_555 1_555
O4 C1 1_555 1_555
O5 C8 1_555 1_555
O6 C8 1_555 1_555
O7 C6 1_555 1_555
O8 Zn2 1_555 1_555
Zn1 O3 1_555 1_555
Zn2 N4 1_555 1_555
N1_2 Zn1 1_555 1_555
O2_2 Zn2 1_555 1_555
O5A Zn1 1_555 1_555
O6_2 Zn2 1_555 1_555
Zn1_2 N1 1_555 1_555
Zn1A O5 1_555 1_555
Zn2_2 O2 1_555 1_555
Zn2_3 O6 1_555 1_555
C6 C7 1_555 1_555
C9 O7 1_555 1_555
C13 C14 1_555 1_555
N3 N4 1_555 1_555
O4 Zn1 1_555 1_555

#END
