
#######################################################################
#
#                 Cambridge Crystallographic Data Centre
#                                CCDC 
#
#######################################################################
#
# If this CIF has been generated from an entry in the Cambridge 
# Structural Database, then it will include bibliographic, chemical, 
# crystal, experimental, refinement or atomic coordinate data resulting 
# from the CCDC's data processing and validation procedures.
#
#######################################################################

data_CISMEY01
_symmetry_cell_setting           triclinic
_symmetry_space_group_name_H-M   'P -1'
_symmetry_Int_Tables_number      2
_space_group_name_Hall           '-P 1'
loop_
_symmetry_equiv_pos_site_id
_symmetry_equiv_pos_as_xyz
1 x,y,z
2 -x,-y,-z
_cell_length_a                   9.1530(15)
_cell_length_b                   9.4866(15)
_cell_length_c                   11.1531(18)
_cell_angle_alpha                90.929(2)
_cell_angle_beta                 99.746(2)
_cell_angle_gamma                105.174(2)
_cell_volume                     919.313
loop_
_atom_site_label
_atom_site_type_symbol
_atom_site_fract_x
_atom_site_fract_y
_atom_site_fract_z
Cd1 Cd 0.33839(2) 0.133841(18) 0.467130(15)
Cd2 Cd 0.49582(2) 0.476789(18) 0.649967(15)
C1 C 0.5755(3) 0.7645(3) 0.8033(2)
C2 C 0.6340(3) 0.8625(3) 0.9180(2)
C3 C 0.6481(3) 0.8038(2) 1.0313(2)
H1 H 0.6255 0.7028 1.0363
C4 C 0.6957(3) 0.8949(3) 1.1372(2)
C5 C 0.7011(3) 0.8295(3) 1.2595(2)
C6 C 0.6682(3) 1.0141(3) 0.9107(2)
H2 H 0.6583 1.0543 0.8352
C7 C 0.7301(3) 1.0463(3) 1.1301(2)
H3 H 0.7614 1.1079 1.2007
C8 C 0.7170(3) 1.1038(2) 1.0165(2)
C9 C 0.8552(3) 1.3526(2) 1.0795(2)
C10 C 0.9918(3) 1.3252(3) 1.1302(3)
H4 H 1.0090 1.2346 1.1157
C11 C 1.1043(3) 1.4349(3) 1.2035(3)
H5 H 1.1967 1.4167 1.2387
C12 C 1.0807(3) 1.5711(2) 1.2248(2)
C13 C 0.9430(3) 1.5964(3) 1.1708(3)
H6 H 0.9263 1.6878 1.1829
C14 C 0.8293(3) 1.4869(3) 1.0987(3)
H7 H 0.7365 1.5043 1.0636
C15 C 1.1980(3) 1.6874(2) 1.3033(2)
H8 H 0.281(4) 0.383(4) 0.467(3)
N1 N 1.3426(2) 1.6842(2) 1.34746(19)
N2 N 1.4071(2) 1.8115(2) 1.41474(19)
N3 N 1.3056(2) 1.8866(2) 1.4103(2)
N4 N 1.1716(2) 1.8116(2) 1.3407(2)
O1 O 0.5385(2) 0.8207(2) 0.70492(16)
O2 O 0.5617(2) 0.62949(19) 0.81386(17)
O3 O 0.6588(2) 0.6930(2) 1.25850(18)
O4 O 0.7480(3) 0.9161(2) 1.35397(17)
O5 O 0.7393(2) 1.25259(18) 1.00175(18)
O6 O 0.0968(3) 0.0949(3) 0.3470(3)
O7 O 0.3601(2) 0.37373(18) 0.46863(16)
O8 O 0.2572(3) 0.6080(3) 0.6251(3)
H9 H 0.335(6) 0.691(6) 0.648(5)
H10 H 0.231(6) 0.579(6) 0.682(5)
H11 H 0.045(6) 0.140(6) 0.387(5)
H12 H 0.045(8) 0.018(7) 0.344(6)
Cd1_2 Cd 1.33839(2) 2.133841(18) 1.467130(15)
Cd1A Cd 0.66161(2) 0.866159(18) 0.532870(15)
Cd1A_2 Cd 0.66161(2) 0.866159(18) 1.532870(15)
Cd1A_3 Cd 1.66161(2) 1.866159(18) 1.532870(15)
Cd2A Cd 0.50418(2) 0.523211(18) 0.350033(15)
Cd2A_2 Cd 0.50418(2) 0.523211(18) 1.350033(15)
Cd2A_3 Cd 1.50418(2) 1.523211(18) 1.350033(15)
N1A N 0.6574(2) 0.3158(2) 0.65254(19)
N2A N 0.5929(2) 0.1885(2) 0.58526(19)
N3_2 N 0.3056(2) -0.1134(2) 0.4103(2)
O1A O 0.4615(2) 0.1793(2) 0.29508(16)
O3A O 0.3412(2) 0.3070(2) 0.74150(18)
O4A O 0.2520(3) 0.0839(2) 0.64603(17)
O7A O 0.6399(2) 0.62627(18) 0.53137(16)
O9 O 1.0236(4) 0.3136(4) 0.4726(3)
H13 H 0.916(8) 0.344(7) 0.439(7)
H14 H 1.004(9) 0.272(9) 0.530(7)
loop_
_geom_bond_atom_site_label_1
_geom_bond_atom_site_label_2
_geom_bond_site_symmetry_1
_geom_bond_site_symmetry_2
Cd1 O6 1_555 1_555
Cd2 O2 1_555 1_555
C1 C2 1_555 1_555
C2 C3 1_555 1_555
C3 H1 1_555 1_555
C4 C3 1_555 1_555
C5 C4 1_555 1_555
C6 C2 1_555 1_555
H2 C6 1_555 1_555
C7 C4 1_555 1_555
H3 C7 1_555 1_555
C8 C6 1_555 1_555
C9 C10 1_555 1_555
C10 H4 1_555 1_555
C11 C10 1_555 1_555
H5 C11 1_555 1_555
C12 C11 1_555 1_555
C13 C12 1_555 1_555
H6 C13 1_555 1_555
C14 C9 1_555 1_555
H7 C14 1_555 1_555
C15 C12 1_555 1_555
H8 O7 1_555 1_555
N1 C15 1_555 1_555
N2 N1 1_555 1_555
N3 N2 1_555 1_555
N4 C15 1_555 1_555
O1 C1 1_555 1_555
O2 C1 1_555 1_555
O3 C5 1_555 1_555
O4 C5 1_555 1_555
O5 C8 1_555 1_555
O6 H11 1_555 1_555
O7 Cd1 1_555 1_555
O8 Cd2 1_555 1_555
H9 O8 1_555 1_555
H10 O8 1_555 1_555
H12 O6 1_555 1_555
O9 H13 1_555 1_555
H14 O9 1_555 1_555
Cd1_2 N3 1_555 1_555
Cd1A O1 1_555 1_555
Cd1A_2 O4 1_555 1_555
Cd1A_3 N2 1_555 1_555
Cd2A O7 1_555 1_555
Cd2A_2 O3 1_555 1_555
Cd2A_3 N1 1_555 1_555
N1A Cd2 1_555 1_555
N2A Cd1 1_555 1_555
N3_2 Cd1 1_555 1_555
O1A Cd1 1_555 1_555
O3A Cd2 1_555 1_555
O4A Cd1 1_555 1_555
O7A Cd2 1_555 1_555
Cd2 O7 1_555 1_555
C7 C8 1_555 1_555
C9 O5 1_555 1_555
C13 C14 1_555 1_555
N3 N4 1_555 1_555
Cd1A O7A 1_555 1_555
Cd2A O7A 1_555 1_555
N1A N2A 1_555 1_555

#END
