
#######################################################################
#
#                 Cambridge Crystallographic Data Centre
#                                CCDC 
#
#######################################################################
#
# If this CIF has been generated from an entry in the Cambridge 
# Structural Database, then it will include bibliographic, chemical, 
# crystal, experimental, refinement or atomic coordinate data resulting 
# from the CCDC's data processing and validation procedures.
#
#######################################################################

data_CISMIC
_symmetry_cell_setting           triclinic
_symmetry_space_group_name_H-M   'P -1'
_symmetry_Int_Tables_number      2
_space_group_name_Hall           '-P 1'
loop_
_symmetry_equiv_pos_site_id
_symmetry_equiv_pos_as_xyz
1 x,y,z
2 -x,-y,-z
_cell_length_a                   9.117(16)
_cell_length_b                   9.452(16)
_cell_length_c                   10.914(19)
_cell_angle_alpha                97.53(3)
_cell_angle_beta                 92.11(2)
_cell_angle_gamma                103.25(3)
_cell_volume                     905.39
loop_
_atom_site_label
_atom_site_type_symbol
_atom_site_fract_x
_atom_site_fract_y
_atom_site_fract_z
C1 C 0.6906(6) 0.3161(7) 0.2322(5)
C2 C 0.6178(6) 0.3117(6) 0.3558(5)
C3 C 0.4580(6) 0.2674(6) 0.3554(5)
H1 H 0.3985 0.2335 0.2818
C4 C 0.3932(5) 0.2765(6) 0.4692(5)
C5 C 0.4798(6) 0.3268(6) 0.5809(5)
H2 H 0.4332 0.3334 0.6552
C6 C 0.6382(6) 0.3676(6) 0.5805(5)
C7 C 0.7076(6) 0.3627(6) 0.4682(5)
H3 H 0.8121 0.3927 0.4676
C8 C 0.7305(6) 0.4234(6) 0.7031(5)
C9 C 0.1397(6) 0.1293(7) 0.4047(5)
C10 C 0.1784(6) -0.0008(7) 0.3578(6)
H4 H 0.2757 -0.0121 0.3737
C11 C 0.0724(6) -0.1125(7) 0.2879(6)
H5 H 0.0994 -0.1988 0.2571
C12 C -0.0749(6) -0.0992(6) 0.2623(5)
C13 C -0.1136(6) 0.0304(7) 0.3126(6)
H6 H -0.2116 0.0408 0.2984
C14 C -0.0063(6) 0.1451(7) 0.3843(6)
H7 H -0.0330 0.2306 0.4177
C15 C -0.1894(6) -0.2181(6) 0.1843(5)
Co1 Co 0.64360(7) 0.36245(8) -0.03379(6)
Co2 Co 0.97779(7) 0.49263(9) 0.14119(6)
N1 N -0.3250(5) -0.1977(5) 0.1472(4)
N2 N -0.3988(4) -0.3274(5) 0.0777(4)
N3 N -0.3120(5) -0.4209(5) 0.0730(4)
N4 N -0.1777(4) -0.3565(5) 0.1404(4)
O1 O 0.6127(5) 0.1441(5) -0.1430(4)
O2 O 0.8755(4) 0.3807(4) -0.0285(3)
O3 O 0.8340(4) 0.3652(5) 0.2408(4)
O4 O 0.6079(4) 0.2749(5) 0.1320(3)
O5 O 0.8727(4) 0.4358(5) 0.7034(3)
O6 O 0.6622(4) 0.4598(5) 0.7988(3)
O7 O 0.2363(4) 0.2488(5) 0.4787(4)
Co1_2 Co -0.35640(7) -0.63755(8) -0.03379(6)
Co1_3 Co 0.64360(7) 0.36245(8) 0.96621(6)
Co1A Co -0.64360(7) -0.36245(8) 0.03379(6)
Co2_2 Co -0.02221(7) -0.50737(9) 0.14119(6)
Co2A Co 1.02221(7) 0.50737(9) -0.14119(6)
Co2A_2 Co 1.02221(7) 0.50737(9) 0.85881(6)
N2A N 0.3988(4) 0.3274(5) -0.0777(4)
N3_2 N 0.6880(5) 0.5791(5) 0.0730(4)
N4_2 N 0.8223(4) 0.6435(5) 0.1404(4)
O2A O 1.1245(4) 0.6193(4) 0.0285(3)
O5A O 1.1273(4) 0.5642(5) 0.2966(3)
O6_2 O 0.6622(4) 0.4598(5) -0.2012(3)
O8 O 0.1050(5) 0.2779(6) 0.1236(4)
O9 O 0.1901(9) 0.9797(8) 0.0267(7)
loop_
_geom_bond_atom_site_label_1
_geom_bond_atom_site_label_2
_geom_bond_site_symmetry_1
_geom_bond_site_symmetry_2
C1 C2 1_555 1_555
C2 C3 1_555 1_555
C3 H1 1_555 1_555
C4 C3 1_555 1_555
C5 C4 1_555 1_555
H2 C5 1_555 1_555
C6 C5 1_555 1_555
C7 C2 1_555 1_555
H3 C7 1_555 1_555
C8 C6 1_555 1_555
C9 C10 1_555 1_555
C10 H4 1_555 1_555
C11 C10 1_555 1_555
H5 C11 1_555 1_555
C12 C11 1_555 1_555
C13 C12 1_555 1_555
H6 C13 1_555 1_555
C14 C9 1_555 1_555
H7 C14 1_555 1_555
C15 C12 1_555 1_555
Co1 O1 1_555 1_555
Co2 O2 1_555 1_555
N1 C15 1_555 1_555
N2 N1 1_555 1_555
N3 N2 1_555 1_555
N4 C15 1_555 1_555
O2 Co1 1_555 1_555
O3 C1 1_555 1_555
O4 C1 1_555 1_555
O5 C8 1_555 1_555
O6 C8 1_555 1_555
O7 C4 1_555 1_555
Co1_2 N3 1_555 1_555
Co1_3 O6 1_555 1_555
Co1A N2 1_555 1_555
Co2_2 N4 1_555 1_555
Co2A O2 1_555 1_555
Co2A_2 O5 1_555 1_555
N2A Co1 1_555 1_555
N3_2 Co1 1_555 1_555
N4_2 Co2 1_555 1_555
O2A Co2 1_555 1_555
O5A Co2 1_555 1_555
O6_2 Co1 1_555 1_555
C6 C7 1_555 1_555
C9 O7 1_555 1_555
C13 C14 1_555 1_555
Co1 O4 1_555 1_555
Co2 O3 1_555 1_555
N3 N4 1_555 1_555
Co2A O2A 1_555 1_555
N3_2 N4_2 1_555 1_555

#END
