
#######################################################################
#
#                 Cambridge Crystallographic Data Centre
#                                CCDC 
#
#######################################################################
#
# If this CIF has been generated from an entry in the Cambridge 
# Structural Database, then it will include bibliographic, chemical, 
# crystal, experimental, refinement or atomic coordinate data resulting 
# from the CCDC's data processing and validation procedures.
#
#######################################################################

data_CISMOH
_symmetry_cell_setting           triclinic
_symmetry_space_group_name_H-M   'P -1'
_symmetry_Int_Tables_number      2
_space_group_name_Hall           '-P 1'
loop_
_symmetry_equiv_pos_site_id
_symmetry_equiv_pos_as_xyz
1 x,y,z
2 -x,-y,-z
_cell_length_a                   9.096(4)
_cell_length_b                   9.320(4)
_cell_length_c                   11.755(5)
_cell_angle_alpha                68.388(4)
_cell_angle_beta                 78.420(5)
_cell_angle_gamma                62.292(4)
_cell_volume                     819.705
loop_
_atom_site_label
_atom_site_type_symbol
_atom_site_fract_x
_atom_site_fract_y
_atom_site_fract_z
Co1 Co 0.5000 0.5000 0.5000
N1 N -0.023(4) 0.816(4) 0.514(3)
N2 N 0.245(4) 0.658(4) 0.539(3)
N3 N -0.288(4) 0.822(4) 0.509(3)
N4 N -0.418(4) 0.664(4) 0.530(3)
O1 O 0.525(4) 0.357(4) 0.689(3)
H1 H 0.5680 0.2496 0.7014
H2 H 0.5216 0.3631 0.7596
C1 C 0.124(5) 0.735(5) 0.462(4)
H3 H 0.1382 0.7343 0.3821
C2 C 0.170(5) 0.692(6) 0.645(4)
H4 H 0.2249 0.6528 0.7173
C3 C 0.007(5) 0.790(6) 0.631(4)
H5 H -0.0711 0.8319 0.6893
C4 C -0.319(5) 0.731(5) 0.458(4)
H6 H -0.2763 0.7170 0.3820
C5 C -0.449(5) 0.714(6) 0.632(4)
H7 H -0.5155 0.6861 0.6994
C6 C -0.371(5) 0.811(6) 0.620(4)
H8 H -0.3721 0.8599 0.6762
C7 C -0.184(5) 0.913(6) 0.458(4)
H9 H -0.1677 0.9322 0.3705
H10 H -0.2387 1.0230 0.4714
Co1_2 Co -0.5000 0.5000 0.5000
Co1_3 Co 1.5000 0.5000 0.5000
N1A N 1.023(4) 0.184(4) 0.486(3)
N2A N 0.755(4) 0.342(4) 0.461(3)
N3A N 1.288(4) 0.178(4) 0.491(3)
N4A N 1.418(4) 0.336(4) 0.470(3)
N4_2 N 0.582(4) 0.664(4) 0.530(3)
N4A_2 N 0.418(4) 0.336(4) 0.470(3)
O1A O 0.475(4) 0.643(4) 0.311(3)
H1A H 0.4320 0.7504 0.2986
H2A H 0.4784 0.6369 0.2404
C1A C 0.876(5) 0.265(5) 0.538(4)
H3A H 0.8618 0.2657 0.6179
C2A C 0.830(5) 0.308(6) 0.355(4)
H4A H 0.7751 0.3472 0.2827
C3A C 0.993(5) 0.210(6) 0.369(4)
H5A H 1.0711 0.1681 0.3107
C4A C 1.319(5) 0.269(5) 0.542(4)
H6A H 1.2763 0.2830 0.6180
C5A C 1.449(5) 0.286(6) 0.368(4)
H7A H 1.5155 0.3139 0.3006
C6A C 1.371(5) 0.189(6) 0.380(4)
H8A H 1.3721 0.1401 0.3238
C7A C 1.184(5) 0.087(6) 0.542(4)
H9A H 1.1677 0.0678 0.6295
H10A H 1.2387 -0.0230 0.5286
O2 O 0.468(4) -0.146(5) 0.912(3)
O3 O 0.281(4) -0.206(4) 0.868(3)
O4 O -0.015(4) 0.006(5) 0.834(3)
H11 H 0.0685 -0.0845 0.8393
C8 C 0.323(6) -0.105(6) 0.887(4)
C9 C 0.191(5) 0.070(6) 0.877(4)
C10 C 0.025(6) 0.117(6) 0.853(4)
C11 C -0.097(6) 0.278(7) 0.848(5)
H12 H -0.2056 0.3087 0.8316
C12 C -0.060(7) 0.395(8) 0.868(6)
H13 H -0.1435 0.5028 0.8656
C13 C 0.101(7) 0.351(7) 0.892(5)
H14 H 0.1257 0.4304 0.9048
C14 C 0.224(6) 0.191(6) 0.898(4)
H15 H 0.3311 0.1629 0.9151
O5 O 0.322(4) -0.007(4) 0.206(3)
H16 H 0.3899 0.0222 0.1536
H17 H 0.2454 0.0093 0.1648
O6 O 0.434(5) 0.448(4) 0.892(3)
H18 H 0.4572 0.3736 0.9622
H19 H 0.4003 0.5451 0.9010
loop_
_geom_bond_atom_site_label_1
_geom_bond_atom_site_label_2
_geom_bond_site_symmetry_1
_geom_bond_site_symmetry_2
Co1 N2 1_555 1_555
N1 C1 1_555 1_555
N2 C1 1_555 1_555
N3 C4 1_555 1_555
N4 C4 1_555 1_555
O1 Co1 1_555 1_555
H1 O1 1_555 1_555
H2 O1 1_555 1_555
C1 H3 1_555 1_555
C2 N2 1_555 1_555
H4 C2 1_555 1_555
C3 N1 1_555 1_555
H5 C3 1_555 1_555
C4 H6 1_555 1_555
C5 N4 1_555 1_555
H7 C5 1_555 1_555
C6 N3 1_555 1_555
H8 C6 1_555 1_555
C7 N1 1_555 1_555
H9 C7 1_555 1_555
H10 C7 1_555 1_555
O2 C8 1_555 1_555
O3 C8 1_555 1_555
O4 H11 1_555 1_555
C8 C9 1_555 1_555
C9 C10 1_555 1_555
C10 O4 1_555 1_555
C11 C10 1_555 1_555
H12 C11 1_555 1_555
C12 C11 1_555 1_555
H13 C12 1_555 1_555
C13 C12 1_555 1_555
H14 C13 1_555 1_555
C14 C9 1_555 1_555
H15 C14 1_555 1_555
O5 H16 1_555 1_555
H17 O5 1_555 1_555
O6 H18 1_555 1_555
H19 O6 1_555 1_555
Co1_2 N4 1_555 1_555
Co1_3 N4A 1_555 1_555
N1A C1A 1_555 1_555
N2A Co1 1_555 1_555
N3A C4A 1_555 1_555
N4A C4A 1_555 1_555
N4_2 Co1 1_555 1_555
N4A_2 Co1 1_555 1_555
O1A Co1 1_555 1_555
H1A O1A 1_555 1_555
H2A O1A 1_555 1_555
C1A N2A 1_555 1_555
H3A C1A 1_555 1_555
C2A N2A 1_555 1_555
H4A C2A 1_555 1_555
C3A N1A 1_555 1_555
H5A C3A 1_555 1_555
C4A H6A 1_555 1_555
C5A N4A 1_555 1_555
H7A C5A 1_555 1_555
C6A N3A 1_555 1_555
H8A C6A 1_555 1_555
C7A N1A 1_555 1_555
H9A C7A 1_555 1_555
H10A C7A 1_555 1_555
N3 C7 1_555 1_555
C2 C3 1_555 1_555
C5 C6 1_555 1_555
C13 C14 1_555 1_555
N3A C7A 1_555 1_555
C2A C3A 1_555 1_555
C5A C6A 1_555 1_555

#END
