
#######################################################################
#
#                 Cambridge Crystallographic Data Centre
#                                CCDC 
#
#######################################################################
#
# If this CIF has been generated from an entry in the Cambridge 
# Structural Database, then it will include bibliographic, chemical, 
# crystal, experimental, refinement or atomic coordinate data resulting 
# from the CCDC's data processing and validation procedures.
#
#######################################################################

data_CISNAU
_symmetry_cell_setting           monoclinic
_symmetry_space_group_name_H-M   'P 21/n'
_symmetry_Int_Tables_number      14
_space_group_name_Hall           '-P 2yn'
loop_
_symmetry_equiv_pos_site_id
_symmetry_equiv_pos_as_xyz
1 x,y,z
2 1/2-x,1/2+y,1/2-z
3 -x,-y,-z
4 1/2+x,1/2-y,1/2+z
_cell_length_a                   12.9056(6)
_cell_length_b                   8.2315(4)
_cell_length_c                   19.3387(10)
_cell_angle_alpha                90
_cell_angle_beta                 97.5780(10)
_cell_angle_gamma                90
_cell_volume                     2036.45
loop_
_atom_site_label
_atom_site_type_symbol
_atom_site_fract_x
_atom_site_fract_y
_atom_site_fract_z
C1 C 0.11271(11) -0.18006(16) 0.28275(8)
C2 C 0.06469(16) -0.1772(2) 0.35100(9)
C3 C -0.07991(19) -0.3439(2) 0.02310(11)
C4 C -0.10971(17) -0.0911(2) 0.01042(10)
C5 C 0.35383(16) -0.1129(3) 0.04739(11)
C6 C 0.22429(16) -0.2752(2) 0.04120(10)
C7 C -0.0907(2) -0.3129(2) -0.04588(11)
C8 C 0.33009(19) -0.1544(3) -0.02031(12)
C9 C -0.31802(16) -0.3022(3) 0.12895(16)
C10 C -0.41820(16) -0.2756(3) 0.13821(15)
C11 C -0.32012(14) -0.0922(2) 0.19350(10)
H1 H 0.356(2) -0.118(3) -0.0565(16)
H2 H 0.214(2) -0.288(3) -0.0577(15)
H3 H 0.179(2) -0.337(3) 0.0523(13)
H4 H 0.4046(19) -0.043(3) 0.0667(13)
H5 H 0.2517(15) -0.098(2) 0.3148(10)
H6 H 0.2522(17) -0.261(3) 0.3165(12)
H7 H 0.0887(19) -0.271(3) 0.3774(13)
H8 H -0.0099(19) -0.172(2) 0.3423(13)
H9 H 0.0908(17) -0.084(3) 0.3773(12)
H10 H -0.3011(17) -0.009(3) 0.2214(12)
H11 H -0.478(2) -0.095(3) 0.1930(13)
H12 H -0.480(2) -0.330(3) 0.1244(15)
H13 H -0.293(2) -0.377(4) 0.1027(17)
H14 H -0.1180(18) 0.018(3) 0.0206(13)
H15 H -0.1204(17) -0.092(3) -0.0903(12)
H16 H -0.087(2) -0.382(3) -0.0870(15)
H17 H -0.0619(19) -0.443(3) 0.0465(13)
N1 N 0.22926(10) -0.17946(16) 0.29392(7)
N2 N -0.09257(12) -0.20322(17) 0.05881(8)
N3 N 0.28694(11) -0.19051(15) 0.08615(8)
N4 N -0.25547(11) -0.18641(17) 0.16400(9)
N5 N -0.10961(13) -0.1509(2) -0.05294(9)
N6 N -0.41824(12) -0.1428(2) 0.17872(8)
N7 N 0.24781(15) -0.2586(2) -0.02370(9)
O1 O -0.03504(8) 0.00928(13) 0.20324(6)
O2 O -0.03671(8) -0.37023(13) 0.20728(6)
O3 O 0.10636(9) 0.14541(13) 0.28300(6)
O4 O 0.15159(8) 0.00112(12) 0.17465(6)
O5 O 0.14958(8) -0.37163(13) 0.17611(6)
O6 O 0.10291(8) -0.50683(12) 0.28696(6)
P1 P 0.08135(3) -0.37015(4) 0.23381(2)
P2 P 0.08177(3) 0.00799(4) 0.23252(2)
Zn1 Zn 0.280289(13) -0.183873(19) 0.193570(9)
Zn2 Zn -0.102670(13) -0.18025(2) 0.160380(10)
O3A O 0.39364(9) -0.35459(13) 0.21700(6)
O6A O 0.39709(8) -0.00683(12) 0.21304(6)
Zn1A Zn 0.219711(13) 0.316127(19) 0.306430(9)
Zn1A_2 Zn 0.219711(13) -0.683873(19) 0.306430(9)
H18 H 0.096(2) 0.747(4) 0.8351(17)
H19 H 0.095(2) 0.603(4) 0.8340(16)
O7 O 0.11645(16) 0.6760(2) 0.85266(9)
loop_
_geom_bond_atom_site_label_1
_geom_bond_atom_site_label_2
_geom_bond_site_symmetry_1
_geom_bond_site_symmetry_2
C1 C2 1_555 1_555
C2 H7 1_555 1_555
C3 C7 1_555 1_555
C4 H14 1_555 1_555
C5 C8 1_555 1_555
C6 H3 1_555 1_555
C7 H16 1_555 1_555
C8 H1 1_555 1_555
C9 C10 1_555 1_555
C10 H12 1_555 1_555
C11 H10 1_555 1_555
H2 N7 1_555 1_555
H4 C5 1_555 1_555
H5 N1 1_555 1_555
H6 N1 1_555 1_555
H8 C2 1_555 1_555
H9 C2 1_555 1_555
H11 N6 1_555 1_555
H13 C9 1_555 1_555
H15 N5 1_555 1_555
H17 C3 1_555 1_555
N1 C1 1_555 1_555
N2 C3 1_555 1_555
N3 C5 1_555 1_555
N4 C9 1_555 1_555
N5 C4 1_555 1_555
N6 C10 1_555 1_555
N7 C6 1_555 1_555
O1 P2 1_555 1_555
O2 P1 1_555 1_555
O3 P2 1_555 1_555
O4 P2 1_555 1_555
O5 P1 1_555 1_555
O6 P1 1_555 1_555
P1 C1 1_555 1_555
P2 C1 1_555 1_555
Zn1 N1 1_555 1_555
Zn2 N2 1_555 1_555
H18 O7 1_555 1_555
H19 O7 1_555 1_555
O3A Zn1 1_555 1_555
O6A Zn1 1_555 1_555
Zn1A O3 1_555 1_555
Zn1A_2 O6 1_555 1_555
C4 N2 1_555 1_555
C6 N3 1_555 1_555
C7 N5 1_555 1_555
C8 N7 1_555 1_555
C11 N4 1_555 1_555
C11 N6 1_555 1_555
N3 Zn1 1_555 1_555
N4 Zn2 1_555 1_555
O1 Zn2 1_555 1_555
O2 Zn2 1_555 1_555
O4 Zn1 1_555 1_555
O5 Zn1 1_555 1_555

#END
