
#######################################################################
#
#                 Cambridge Crystallographic Data Centre
#                                CCDC 
#
#######################################################################
#
# If this CIF has been generated from an entry in the Cambridge 
# Structural Database, then it will include bibliographic, chemical, 
# crystal, experimental, refinement or atomic coordinate data resulting 
# from the CCDC's data processing and validation procedures.
#
#######################################################################

data_CISSED
_symmetry_cell_setting           tetragonal
_symmetry_space_group_name_H-M   'I -4'
_symmetry_Int_Tables_number      82
_space_group_name_Hall           'I -4'
loop_
_symmetry_equiv_pos_site_id
_symmetry_equiv_pos_as_xyz
1 x,y,z
2 -x,-y,z
3 y,-x,-z
4 -y,x,-z
5 1/2+x,1/2+y,1/2+z
6 1/2-x,1/2-y,1/2+z
7 1/2+y,1/2-x,1/2-z
8 1/2-y,1/2+x,1/2-z
_cell_length_a                   41.1322(3)
_cell_length_b                   41.1322(3)
_cell_length_c                   42.0792(8)
_cell_angle_alpha                90
_cell_angle_beta                 90
_cell_angle_gamma                90
_cell_volume                     71192
loop_
_atom_site_label
_atom_site_type_symbol
_atom_site_fract_x
_atom_site_fract_y
_atom_site_fract_z
S1 S 1.9357(8) -0.4798(8) 0.2071(8)
Cd1 Cd 2.0000 -0.5000 -0.2500
Cd2 Cd 1.89055(7) -0.42218(8) -0.15921(7)
Cd3 Cd 1.94377(6) -0.58290(7) -0.24962(6)
Cd4 Cd 1.93246(7) -0.51328(7) -0.17972(6)
Cd5 Cd 1.98659(7) -0.42566(7) -0.18303(6)
Cd6 Cd 1.94970(15) -0.0010(3) 0.32029(12)
Cd7 Cd 1.91189(8) -0.09897(12) 0.14783(8)
Cd8 Cd 1.99245(8) 0.07659(12) 0.17790(7)
Cd9 Cd 1.93518(8) -0.00452(13) 0.16514(8)
Cd10 Cd 1.92732(7) -0.06801(9) 0.23957(7)
Cd11 Cd 1.58260(7) -0.40366(7) 0.16552(8)
Cd12 Cd 2.01075(10) -0.08483(10) 0.29033(19)
Cd13 Cd 2.0000 0.0000 0.23801(9)
Cd14 Cd 1.9134(3) 0.05040(11) 0.24716(12)
Cd15 Cd 1.90709(10) -0.44010(13) 0.16975(12)
Cd16 Cd 1.89359(9) -0.27518(9) 0.06532(9)
Cd17 Cd 1.83907(10) -0.36769(10) 0.17000(8)
Cd18 Cd 1.86058(10) -0.18860(8) 0.10341(8)
Cd19 Cd 1.91351(8) -0.36861(10) 0.10081(9)
Cd20 Cd 1.83569(9) -0.27175(8) 0.14528(7)
Cd21 Cd 1.84496(7) -0.37955(7) -0.07351(7)
Cd22 Cd 1.66234(7) -0.35959(7) 0.11253(7)
Cd23 Cd 1.83962(8) -0.43766(8) 0.10002(9)
Cd24 Cd 1.80210(7) -0.41159(7) 0.01089(7)
Cd25 Cd 1.79665(8) -0.24678(7) 0.05687(7)
Cd26 Cd 1.88873(7) -0.35762(8) 0.00763(8)
Cd27 Cd 1.72614(7) -0.31424(7) 0.05421(7)
Cd28 Cd 1.74406(7) -0.40696(6) 0.08794(7)
Cd29 Cd 1.75157(8) -0.32742(7) 0.14887(7)
Cd30 Cd 1.80006(7) -0.31524(7) -0.01561(6)
Cd31 Cd 1.81984(7) -0.34189(7) 0.07766(6)
S2 S 1.9455(3) -0.3980(3) -0.1476(3)
S3 S 1.9016(3) -0.5495(3) -0.2180(2)
S4 S 1.9018(3) -0.4793(3) -0.1393(3)
S5 S 2.0233(2) -0.4597(3) -0.1471(2)
S6 S 1.9593(2) -0.4702(2) -0.2151(2)
S7 S 2.0128(3) -0.3859(3) -0.2209(3)
S8 S 1.8792(3) -0.4096(3) -0.2174(3)
S9 S 1.8422(3) -0.4009(3) -0.1300(3)
S10 S 1.9077(3) -0.2150(3) 0.0749(3)
S11 S 1.9466(3) -0.4066(5) 0.1388(5)
S12 S 1.6036(4) -0.3593(4) 0.1281(5)
S13 S 1.8713(4) -0.4074(4) 0.2046(4)
S14 S 1.9181(2) -0.3955(3) 0.0465(3)
S15 S 1.8749(4) -0.4754(4) 0.1321(4)
S16 S 1.8424(3) -0.4467(3) 0.0414(3)
S17 S 1.7386(3) -0.2572(3) 0.0706(3)
S18 S 1.8670(4) -0.3125(4) 0.1754(3)
S19 S 1.7827(3) -0.4372(3) 0.1237(3)
S20 S 1.8536(2) -0.3782(3) 0.1125(2)
S21 S 1.6917(3) -0.3341(3) 0.1600(3)
S22 S 1.7796(3) -0.3711(3) 0.1826(2)
S23 S 1.9005(3) -0.3732(3) -0.0495(3)
S24 S 1.6682(3) -0.3327(3) 0.0594(3)
S25 S 1.9265(3) -0.3092(4) 0.1058(3)
S26 S 1.7731(3) -0.2700(3) 0.1523(3)
S27 S 1.8523(4) -0.2136(3) 0.1568(3)
S28 S 1.7428(2) -0.3342(3) -0.0007(2)
S29 S 1.8284(2) -0.3561(2) 0.0204(2)
S30 S 1.8133(3) -0.2576(3) -0.0010(3)
S31 S 1.8132(3) -0.4257(3) -0.0471(2)
S32 S 1.8374(3) -0.2835(2) 0.0857(3)
S33 S 1.8973(3) -0.2956(3) 0.0087(3)
S34 S 1.8095(3) -0.3288(3) -0.0736(3)
S35 S 1.7608(2) -0.3479(2) 0.0927(2)
S36 S 1.8125(3) -0.1882(3) 0.0674(3)
S37 S 1.7442(2) -0.4176(2) 0.0287(3)
S38 S 1.6872(2) -0.4151(2) 0.1115(3)
S39 S 1.8830(4) -0.1308(5) 0.1055(3)
S40 S 1.9017(3) -0.0412(5) 0.1306(3)
S41 S 1.8907(4) 0.0189(3) 0.2033(3)
S42 S 1.9646(3) 0.0400(6) 0.1360(3)
S43 S 1.8915(3) -0.1040(4) 0.2054(3)
S44 S 1.9714(3) -0.1199(4) 0.1553(3)
S45 S 1.9650(3) -0.1112(3) 0.2633(3)
S46 S 1.9646(3) 0.0327(3) 0.2739(2)
S47 S 1.6166(2) -0.4544(3) 0.1728(4)
S48 S 1.9551(3) 0.0992(3) 0.2204(3)
S49 S 1.5277(3) -0.4184(3) 0.1421(3)
S50 S 1.9848(3) -0.0454(4) 0.3416(3)
S51 S 1.9670(3) -0.0378(4) 0.2038(2)
S52 S 1.9007(3) -0.0326(5) 0.2806(3)
S53 S 1.5853(4) -0.3779(4) 0.2186(4)
C1 C 1.7774(6) -0.4233(8) -0.0711(8)
C2 C 1.7741(8) -0.4426(7) -0.0981(9)
C3 C 1.7466(10) -0.4398(9) -0.1170(7)
C4 C 1.7224(8) -0.4176(9) -0.1091(7)
C5 C 1.7257(6) -0.3983(7) -0.0822(7)
C6 C 1.7532(7) -0.4011(7) -0.0632(6)
C7 C 1.7536(19) -0.4623(17) -0.1466(15)
C8 C 1.9418(6) -0.1337(7) 0.2909(6)
C9 C 1.9512(7) -0.1366(6) 0.3225(7)
C10 C 1.9328(8) -0.1553(8) 0.3434(5)
C11 C 1.9049(7) -0.1709(7) 0.3327(8)
C12 C 1.8955(7) -0.1680(6) 0.3011(9)
C13 C 1.9139(8) -0.1493(8) 0.2802(6)
C14 C 1.9420(19) -0.157(2) 0.375(2)
C15 C 1.7361(7) -0.4584(5) 0.0199(8)
C16 C 1.7306(7) -0.4797(8) 0.0450(5)
C17 C 1.7241(8) -0.5123(7) 0.0389(7)
C18 C 1.7231(8) -0.5236(6) 0.0078(9)
C19 C 1.7286(8) -0.5023(8) -0.0173(6)
C20 C 1.7351(7) -0.4697(7) -0.0112(6)
C21 C 1.725(2) -0.5414(17) 0.0645(18)
C22 C 1.6535(5) -0.4453(7) 0.1934(6)
C23 C 1.6707(6) -0.4694(5) 0.2094(6)
C24 C 1.6994(6) -0.4618(6) 0.2251(6)
C25 C 1.7110(6) -0.4300(7) 0.2249(7)
C26 C 1.6938(7) -0.4059(5) 0.2089(7)
C27 C 1.6651(7) -0.4136(6) 0.1932(6)
C28 C 1.7127(13) -0.4925(11) 0.2417(13)
C29 C 1.8702(11) -0.2996(10) 0.2154(8)
C30 C 1.8952(8) -0.2801(9) 0.2268(10)
C31 C 1.8953(10) -0.2704(9) 0.2585(11)
C32 C 1.8704(14) -0.2801(12) 0.2786(7)
C33 C 1.8454(11) -0.2996(13) 0.2672(12)
C34 C 1.8453(9) -0.3093(10) 0.2355(14)
C35 C 1.921(2) -0.249(2) 0.275(2)
C36 C 1.7775(7) -0.1710(9) 0.0858(9)
C37 C 1.7609(9) -0.1442(9) 0.0740(7)
C38 C 1.7345(9) -0.1317(8) 0.0906(10)
C39 C 1.7246(8) -0.1461(11) 0.1189(10)
C40 C 1.7412(11) -0.1729(11) 0.1306(8)
C41 C 1.7676(10) -0.1854(8) 0.1141(10)
C42 C 1.7130(14) -0.1063(13) 0.0739(14)
C43 C 1.7884(7) -0.2299(8) -0.0260(8)
C44 C 1.7868(13) -0.1974(10) -0.0170(11)
C45 C 1.7739(18) -0.1745(7) -0.0378(17)
C46 C 1.7626(15) -0.1841(14) -0.0675(15)
C47 C 1.7642(11) -0.2165(16) -0.0764(8)
C48 C 1.7771(10) -0.2395(9) -0.0557(9)
C49 C 1.756(2) -0.1414(19) -0.028(2)
C50 C 1.7670(9) -0.4778(7) 0.1312(9)
C51 C 1.7848(7) -0.5045(10) 0.1208(7)
C52 C 1.7738(10) -0.5358(8) 0.1272(9)
C53 C 1.7451(10) -0.5404(7) 0.1441(10)
C54 C 1.7273(7) -0.5137(11) 0.1545(8)
C55 C 1.7383(9) -0.4824(9) 0.1481(8)
C56 C 1.7929(18) -0.5614(17) 0.1051(18)
C57 C 1.7115(12) -0.2291(13) 0.0432(16)
C58 C 1.6911(14) -0.2096(14) 0.0613(9)
C59 C 1.6692(14) -0.1888(14) 0.0465(18)
C60 C 1.6678(19) -0.1875(19) 0.0135(18)
C61 C 1.688(2) -0.207(2) -0.0046(10)
C62 C 1.7102(18) -0.2277(18) 0.0102(15)
C63 C 1.9378(7) -0.3570(7) -0.1632(8)
C64 C 1.9346(8) -0.3488(8) -0.1951(7)
C65 C 1.9293(9) -0.3167(10) -0.2038(9)
C66 C 1.9273(12) -0.2926(6) -0.1806(14)
C67 C 1.9306(14) -0.3008(9) -0.1487(12)
C68 C 1.9358(12) -0.3329(11) -0.1400(7)
C69 C 1.932(2) -0.311(2) -0.2409(13)
C70 C 1.9052(16) -0.1948(14) 0.0392(12)
C71 C 1.9243(12) -0.1670(18) 0.0379(14)
C72 C 1.9205(14) -0.1452(12) 0.0129(19)
C73 C 1.8977(18) -0.1513(14) -0.0108(14)
C74 C 1.8786(12) -0.1791(17) -0.0094(12)
C75 C 1.8824(12) -0.2009(11) 0.0156(16)
C76 C 1.9341(15) -0.1102(13) 0.0147(15)
C77 C 1.8455(14) -0.4375(12) 0.222(2)
C78 C 1.821(2) -0.4489(17) 0.2027(11)
C79 C 1.7977(13) -0.4703(17) 0.215(2)
C80 C 1.7991(18) -0.4802(15) 0.246(2)
C81 C 1.824(3) -0.469(2) 0.2658(13)
C82 C 1.8470(17) -0.447(2) 0.2539(19)
C83 C 1.6715(11) -0.2957(11) 0.1673(13)
C84 C 1.6628(15) -0.2851(13) 0.1975(10)
C85 C 1.6526(16) -0.2533(15) 0.2021(12)
C86 C 1.6511(19) -0.2320(11) 0.1765(18)
C87 C 1.6597(18) -0.2425(15) 0.1463(14)
C88 C 1.6700(12) -0.2744(16) 0.1417(9)
C89 C 1.9885(11) -0.1364(11) 0.1191(10)
C90 C 2.0111(10) -0.1203(15) 0.1003(16)
C91 C 2.0272(18) -0.1369(13) 0.0762(14)
C92 C 2.0206(17) -0.1696(13) 0.0710(10)
C93 C 1.9980(10) -0.1857(13) 0.0898(12)
C94 C 1.9819(11) -0.1691(9) 0.1138(10)
C95 C 2.015(3) -0.113(3) 0.050(3)
C96 C 2.0435(9) -0.4361(10) -0.1171(8)
C97 C 2.0346(8) -0.4035(11) -0.1162(9)
C98 C 2.0497(11) -0.3824(7) -0.0950(11)
C99 C 2.0738(10) -0.3940(10) -0.0747(9)
C100 C 2.0826(8) -0.4266(11) -0.0756(8)
C101 C 2.0675(10) -0.4476(7) -0.0968(10)
C102 C 2.053(5) -0.360(4) -0.124(3)
C103 C 1.8374(9) -0.4888(7) 0.0358(8)
C104 C 1.8602(8) -0.5100(10) 0.0487(8)
C105 C 1.8584(10) -0.5430(9) 0.0422(10)
C106 C 1.8338(13) -0.5550(7) 0.0228(12)
C107 C 1.8110(11) -0.5338(12) 0.0099(11)
C108 C 1.8128(8) -0.5007(11) 0.0164(9)
C109 C 1.8963(17) -0.551(3) 0.049(3)
C110 C 1.8918(6) -0.2129(8) 0.1696(8)
C111 C 1.9170(9) -0.2338(7) 0.1612(7)
C112 C 1.9478(7) -0.2294(9) 0.1740(9)
C113 C 1.9535(7) -0.2041(11) 0.1952(9)
C114 C 1.9284(11) -0.1832(8) 0.2036(8)
C115 C 1.8975(9) -0.1876(8) 0.1908(9)
C116 C 1.9691(15) -0.2598(14) 0.1635(17)
C117 C 1.8811(9) -0.5775(9) -0.1966(10)
C118 C 1.8820(10) -0.5763(10) -0.1636(11)
C119 C 1.8666(14) -0.6002(14) -0.1458(9)
C120 C 1.8502(11) -0.6253(11) -0.1610(15)
C121 C 1.8493(11) -0.6266(9) -0.1940(15)
C122 C 1.8647(12) -0.6027(12) -0.2118(9)
C123 C 1.9351(8) -0.2842(11) -0.0085(10)
C124 C 1.9541(14) -0.3045(10) -0.0273(14)
C125 C 1.9773(14) -0.2913(18) -0.0476(14)
C126 C 1.9815(14) -0.2579(19) -0.0491(15)
C127 C 1.9626(15) -0.2375(12) -0.0304(16)
C128 C 1.9394(10) -0.2507(10) -0.0101(10)
C129 C 2.007(3) -0.291(4) -0.024(3)
C130 C 1.8353(8) -0.2951(7) -0.0863(9)
C131 C 1.8271(8) -0.2781(11) -0.1138(9)
C132 C 1.8451(12) -0.2511(10) -0.1228(8)
C133 C 1.8713(11) -0.2410(8) -0.1045(12)
C134 C 1.8795(8) -0.2579(10) -0.0770(10)
C135 C 1.8615(9) -0.2850(9) -0.0680(7)
C136 C 1.825(2) -0.230(2) -0.147(2)
C137 C 1.6695(7) -0.4409(8) 0.0832(7)
C138 C 1.6642(8) -0.4274(7) 0.0533(9)
C139 C 1.6521(9) -0.4465(11) 0.0288(6)
C140 C 1.6453(9) -0.4792(10) 0.0341(9)
C141 C 1.6506(9) -0.4927(6) 0.0639(11)
C142 C 1.6627(9) -0.4736(9) 0.0885(7)
C143 C 1.6489(16) -0.4395(16) -0.0081(11)
C144 C 1.529(2) -0.335(2) 0.218(2)
C145 C 1.5160(15) -0.306(3) 0.207(3)
C146 C 1.537(2) -0.2807(19) 0.199(2)
C147 C 1.570(2) -0.2848(16) 0.2019(15)
C148 C 1.5828(15) -0.314(2) 0.2131(19)
C149 C 1.562(3) -0.3392(14) 0.2214(17)
C150 C 1.7724(9) -0.3585(10) 0.2211(6)
C151 C 1.7571(8) -0.3307(8) 0.2325(9)
C152 C 1.7542(9) -0.3257(8) 0.2650(10)
C153 C 1.7667(10) -0.3484(12) 0.2862(6)
C154 C 1.7820(9) -0.3762(10) 0.2749(9)
C155 C 1.7848(8) -0.3813(7) 0.2423(11)
C156 C 1.732(2) -0.295(2) 0.266(3)
C157 C 1.7616(17) -0.2489(11) 0.1877(9)
C158 C 1.7882(11) -0.2414(13) 0.2068(15)
C159 C 1.7837(13) -0.2251(15) 0.2354(14)
C160 C 1.7525(17) -0.2164(11) 0.2450(9)
C161 C 1.7259(11) -0.2240(12) 0.2260(14)
C162 C 1.7305(13) -0.2402(13) 0.1974(12)
C163 C 1.797(6) -0.198(5) 0.258(5)
C164 C 1.9239(10) -0.0387(14) 0.0917(9)
C165 C 1.9050(12) -0.0361(9) 0.0644(14)
C166 C 1.9198(12) -0.0358(16) 0.0347(10)
C167 C 1.9534(13) -0.0381(17) 0.0322(11)
C168 C 1.9723(14) -0.0407(9) 0.0595(17)
C169 C 1.9575(12) -0.0410(13) 0.0892(12)
C170 C 1.8563(10) 0.0386(8) 0.1884(11)
C171 C 1.8454(10) 0.0285(11) 0.1588(11)
C172 C 1.8185(14) 0.0434(13) 0.1450(10)
C173 C 1.8026(14) 0.0684(11) 0.1608(15)
C174 C 1.8135(13) 0.0785(14) 0.1905(15)
C175 C 1.8404(13) 0.0636(14) 0.2043(10)
C176 C 1.8020(16) 0.0299(16) 0.1155(14)
C177 C 1.9383(8) 0.1356(12) 0.2080(9)
C178 C 1.9070(11) 0.1445(11) 0.2170(10)
C179 C 1.8946(13) 0.1745(9) 0.2080(13)
C180 C 1.9135(9) 0.1957(14) 0.1900(12)
C181 C 1.9448(11) 0.1868(13) 0.1810(9)
C182 C 1.9572(12) 0.1567(8) 0.1900(10)
C183 C 1.860(2) 0.1760(14) 0.219(2)
C184 C 1.8662(9) -0.4970(9) -0.1289(11)
C185 C 1.8455(13) -0.5135(12) -0.1496(8)
C186 C 1.8180(12) -0.5290(11) -0.1379(13)
C187 C 1.8110(9) -0.5280(11) -0.1056(15)
C188 C 1.8316(12) -0.5115(11) -0.0850(9)
C189 C 1.8592(10) -0.4961(9) -0.0966(10)
C190 C 1.809(3) -0.528(3) -0.1735(17)
C191 C 1.9609(8) -0.3920(13) 0.0348(10)
C192 C 1.9724(11) -0.4202(9) 0.0205(10)
C193 C 2.0026(12) -0.4202(12) 0.0056(10)
C194 C 2.0213(9) -0.3920(17) 0.0052(13)
C195 C 2.0098(14) -0.3639(12) 0.0196(17)
C196 C 1.9796(14) -0.3639(10) 0.0344(15)
C197 C 2.0259(19) -0.4481(18) 0.001(2)
C198 C 1.8736(10) -0.0584(12) 0.2984(15)
C199 C 1.8486(14) -0.0755(14) 0.2837(10)
C200 C 1.8317(13) -0.0993(11) 0.3004(17)
C201 C 1.8398(12) -0.1060(16) 0.3318(17)
C202 C 1.8647(16) -0.0889(17) 0.3465(10)
C203 C 1.8816(13) -0.0651(10) 0.3298(15)
C204 C 1.809(3) -0.118(3) 0.277(2)
C205 C 1.9661(8) -0.3020(12) 0.0911(13)
C206 C 1.9807(11) -0.2853(10) 0.0662(10)
C207 C 2.0143(12) -0.2815(11) 0.0656(12)
C208 C 2.0332(8) -0.2944(15) 0.0899(16)
C209 C 2.0186(16) -0.3111(15) 0.1148(13)
C210 C 1.9850(17) -0.3149(13) 0.1154(11)
C211 C 1.8516(9) -0.1068(9) 0.0891(13)
C212 C 1.8484(10) -0.1043(9) 0.0563(12)
C213 C 1.8245(11) -0.0844(11) 0.0434(7)
C214 C 1.8038(8) -0.0670(8) 0.0632(12)
C215 C 1.8070(10) -0.0695(10) 0.0960(11)
C216 C 1.8309(12) -0.0894(12) 0.1090(8)
C217 C 1.818(2) -0.090(2) 0.0076(13)
C218 C 1.8274(10) -0.3653(7) -0.1517(8)
C219 C 1.7941(10) -0.3598(9) -0.1501(8)
C220 C 1.7803(7) -0.3344(10) -0.1672(10)
C221 C 1.7998(11) -0.3146(8) -0.1859(8)
C222 C 1.8331(11) -0.3201(9) -0.1876(8)
C223 C 1.8469(7) -0.3454(11) -0.1704(10)
C224 C 1.7449(15) -0.325(3) -0.170(3)
C225 C 1.9791(12) -0.0318(13) 0.3961(15)
C226 C 1.9680(12) -0.0562(11) 0.3761(9)
C227 C 1.9475(10) -0.0803(11) 0.3878(11)
C228 C 1.9382(11) -0.0799(9) 0.4195(12)
C229 C 1.9493(16) -0.0555(16) 0.4396(9)
C230 C 1.9698(16) -0.0314(19) 0.4279(14)
C231 C 1.915(3) -0.063(2) 0.377(3)
C232 C 1.8473(13) -0.0912(8) 0.2018(10)
C233 C 1.8397(11) -0.0584(9) 0.2034(9)
C234 C 1.8078(7) -0.0482(12) 0.1993(9)
C235 C 1.7835(12) -0.0709(7) 0.1936(9)
C236 C 1.7911(10) -0.1038(10) 0.1920(9)
C237 C 1.8230(8) -0.1140(13) 0.1962(11)
C238 C 1.7920(18) -0.018(2) 0.215(2)
C239 C 1.6225(15) -0.2865(14) 0.0767(9)
C240 C 1.6392(11) -0.3013(9) 0.0519(13)
C241 C 1.6373(9) -0.2885(10) 0.0214(10)
C242 C 1.6186(10) -0.2609(10) 0.0157(8)
C243 C 1.6019(10) -0.2462(9) 0.0405(12)
C244 C 1.6039(14) -0.2589(14) 0.0710(10)
C245 C 1.613(2) -0.251(2) -0.022(2)
C246 C 1.926(2) 0.0650(12) 0.118(2)
C247 C 1.912(2) 0.089(2) 0.1375(15)
C248 C 1.8820(15) 0.101(2) 0.129(2)
C249 C 1.866(2) 0.0900(12) 0.102(2)
C250 C 1.880(2) 0.067(2) 0.0830(14)
C251 C 1.9110(15) 0.054(2) 0.091(2)
C252 C 1.8641(19) 0.1282(19) 0.1411(18)
C253 C 1.966(3) -0.388(3) 0.171(2)
C254 C 1.9055(15) -0.4900(18) 0.1084(16)
C255 C 1.9124(9) -0.4149(6) -0.0440(8)
C256 C 1.9406(9) -0.4195(9) -0.0616(9)
C257 C 1.9537(8) -0.4505(12) -0.0647(9)
C258 C 1.9387(11) -0.4768(7) -0.0500(10)
C259 C 1.9106(11) -0.4722(7) -0.0324(10)
C260 C 1.8974(7) -0.4412(10) -0.0293(8)
C261 C 1.969(2) -0.4773(18) -0.084(2)
C262 C 2.0349(10) -0.3554(15) -0.1971(10)
C263 C 2.0150(14) -0.3326(9) -0.1824(12)
C264 C 2.0286(11) -0.3074(11) -0.1650(11)
C265 C 2.0622(9) -0.3049(12) -0.1622(9)
C266 C 2.0821(13) -0.3277(8) -0.1768(12)
C267 C 2.0685(11) -0.3530(14) -0.1943(12)
C268 C 2.018(2) -0.272(4) -0.170(4)
C269 C 1.8393(8) -0.4280(11) -0.2222(8)
C270 C 1.8153(14) -0.4051(9) -0.2284(11)
C271 C 1.7836(11) -0.4150(17) -0.2343(13)
C272 C 1.7759(9) -0.448(2) -0.2341(13)
C273 C 1.7998(16) -0.4709(12) -0.2279(14)
C274 C 1.8316(12) -0.4609(9) -0.2220(11)
C275 C 1.764(3) -0.385(2) -0.242(3)
C276 C 1.7119(12) -0.3274(14) -0.0279(10)
C277 C 1.6819(15) -0.3426(11) -0.0313(13)
C278 C 1.6614(10) -0.3338(16) -0.0561(17)
C279 C 1.6708(17) -0.3098(19) -0.0775(14)
C280 C 1.7008(19) -0.2947(15) -0.0741(14)
C281 C 1.7213(11) -0.3035(13) -0.0493(15)
C282 C 1.627(3) -0.343(4) -0.068(4)
C283 C 1.5200(13) -0.4013(10) 0.1059(10)
C284 C 1.5417(13) -0.3779(14) 0.1167(15)
C285 C 1.5346(17) -0.3451(12) 0.1128(18)
C286 C 1.5059(19) -0.3357(11) 0.0981(17)
C287 C 1.4842(15) -0.3591(16) 0.0872(18)
C288 C 1.4913(13) -0.3920(14) 0.0911(15)
C289 C 1.5880(14) -0.3826(14) 0.0931(10)
C290 C 1.5827(18) -0.4130(11) 0.0798(18)
C291 C 1.5735(17) -0.4157(15) 0.0481(19)
C292 C 1.5698(15) -0.388(2) 0.0297(11)
C293 C 1.5751(13) -0.3574(16) 0.0430(13)
C294 C 1.5842(10) -0.3548(10) 0.0747(14)
Cd3F Cd 1.91710(7) -0.44377(6) -0.25038(6)
Cd3A Cd 2.05623(6) -0.41710(7) -0.24962(6)
Cd4A Cd 2.06754(7) -0.48672(7) -0.17972(6)
Cd6F Cd 1.4990(3) -0.44970(15) 0.17971(12)
Cd8A Cd 2.00755(8) -0.07659(12) 0.17790(7)
Cd12A Cd 1.98925(10) 0.08483(10) 0.29033(19)
Cd12G Cd 1.58483(10) -0.48925(10) 0.20967(19)
Cd14F Cd 1.55040(11) -0.4134(3) 0.25284(12)
S5A S 1.9767(2) -0.5403(3) -0.1471(2)
S6A S 2.0407(2) -0.5298(2) -0.2151(2)
S6F S 2.0298(2) -0.4593(2) -0.2849(2)
S6G S 1.9702(2) -0.5407(2) -0.2849(2)
S7A S 1.9872(3) -0.6141(3) -0.2209(3)
S8G S 1.9096(3) -0.6208(3) -0.2826(3)
S44A S 2.0286(3) 0.1199(4) 0.1553(3)
S46A S 2.0354(3) -0.0327(3) 0.2739(2)
S47F S 2.0456(3) -0.1166(2) 0.3272(4)
S49G S 1.9184(3) 0.0277(3) 0.3579(3)
S51A S 2.0330(3) 0.0378(4) 0.2038(2)
S53G S 1.8779(4) 0.0853(4) 0.2814(4)
loop_
_geom_bond_atom_site_label_1
_geom_bond_atom_site_label_2
_geom_bond_site_symmetry_1
_geom_bond_site_symmetry_2
S1 Cd15 1_555 1_555
Cd1 S6 1_555 1_555
Cd2 S2 1_555 1_555
Cd3 S3 1_555 1_555
Cd4 S3 1_555 1_555
Cd5 S2 1_555 1_555
Cd6 S46 1_555 1_555
Cd7 S39 1_555 1_555
Cd8 S42 1_555 1_555
Cd9 S40 1_555 1_555
Cd10 S43 1_555 1_555
Cd11 S12 1_555 1_555
Cd12 S45 1_555 1_555
Cd13 S46 1_555 1_555
Cd14 S41 1_555 1_555
Cd15 S11 1_555 1_555
Cd16 S10 1_555 1_555
Cd17 S13 1_555 1_555
Cd18 S10 1_555 1_555
Cd19 S11 1_555 1_555
Cd20 S18 1_555 1_555
Cd21 S9 1_555 1_555
Cd22 S12 1_555 1_555
Cd23 S15 1_555 1_555
Cd24 S16 1_555 1_555
Cd25 S17 1_555 1_555
Cd26 S14 1_555 1_555
Cd27 S17 1_555 1_555
Cd28 S19 1_555 1_555
Cd29 S21 1_555 1_555
Cd30 S28 1_555 1_555
Cd31 S20 1_555 1_555
S2 C63 1_555 1_555
S3 C117 1_555 1_555
S4 Cd2 1_555 1_555
S5 Cd5 1_555 1_555
S6 Cd4 1_555 1_555
S7 Cd5 1_555 1_555
S8 Cd2 1_555 1_555
S9 Cd2 1_555 1_555
S10 C70 1_555 1_555
S11 C253 1_555 1_555
S12 C289 1_555 1_555
S13 Cd15 1_555 1_555
S14 Cd19 1_555 1_555
S15 Cd15 1_555 1_555
S16 Cd23 1_555 1_555
S17 C57 1_555 1_555
S18 Cd17 1_555 1_555
S19 Cd23 1_555 1_555
S20 Cd17 1_555 1_555
S21 Cd22 1_555 1_555
S22 Cd17 1_555 1_555
S23 Cd21 1_555 1_555
S24 Cd22 1_555 1_555
S25 Cd16 1_555 1_555
S26 Cd20 1_555 1_555
S27 Cd18 1_555 1_555
S28 Cd27 1_555 1_555
S29 Cd24 1_555 1_555
S30 Cd25 1_555 1_555
S31 Cd21 1_555 1_555
S32 Cd16 1_555 1_555
S33 Cd16 1_555 1_555
S34 Cd21 1_555 1_555
S35 Cd27 1_555 1_555
S36 Cd18 1_555 1_555
S37 Cd24 1_555 1_555
S38 Cd22 1_555 1_555
S39 Cd18 1_555 1_555
S40 Cd7 1_555 1_555
S41 Cd9 1_555 1_555
S42 Cd9 1_555 1_555
S43 Cd7 1_555 1_555
S44 Cd7 1_555 1_555
S45 Cd10 1_555 1_555
S46 Cd14 1_555 1_555
S47 Cd11 1_555 1_555
S48 Cd8 1_555 1_555
S49 Cd11 1_555 1_555
S50 Cd6 1_555 1_555
S51 Cd9 1_555 1_555
S52 Cd6 1_555 1_555
S53 Cd11 1_555 1_555
C1 S31 1_555 1_555
C2 C1 1_555 1_555
C3 C2 1_555 1_555
C4 C3 1_555 1_555
C5 C4 1_555 1_555
C6 C1 1_555 1_555
C7 C3 1_555 1_555
C8 S45 1_555 1_555
C9 C8 1_555 1_555
C10 C9 1_555 1_555
C11 C10 1_555 1_555
C12 C11 1_555 1_555
C13 C8 1_555 1_555
C14 C10 1_555 1_555
C15 S37 1_555 1_555
C16 C15 1_555 1_555
C17 C16 1_555 1_555
C18 C17 1_555 1_555
C19 C18 1_555 1_555
C20 C15 1_555 1_555
C21 C17 1_555 1_555
C22 S47 1_555 1_555
C23 C22 1_555 1_555
C24 C23 1_555 1_555
C25 C24 1_555 1_555
C26 C25 1_555 1_555
C27 C22 1_555 1_555
C28 C24 1_555 1_555
C29 S18 1_555 1_555
C30 C29 1_555 1_555
C31 C30 1_555 1_555
C32 C31 1_555 1_555
C33 C32 1_555 1_555
C34 C29 1_555 1_555
C35 C31 1_555 1_555
C36 S36 1_555 1_555
C37 C36 1_555 1_555
C38 C37 1_555 1_555
C39 C38 1_555 1_555
C40 C39 1_555 1_555
C41 C36 1_555 1_555
C42 C38 1_555 1_555
C43 S30 1_555 1_555
C44 C43 1_555 1_555
C45 C44 1_555 1_555
C46 C45 1_555 1_555
C47 C46 1_555 1_555
C48 C43 1_555 1_555
C49 C45 1_555 1_555
C50 S19 1_555 1_555
C51 C50 1_555 1_555
C52 C51 1_555 1_555
C53 C52 1_555 1_555
C54 C53 1_555 1_555
C55 C50 1_555 1_555
C56 C52 1_555 1_555
C57 C58 1_555 1_555
C58 C59 1_555 1_555
C59 C60 1_555 1_555
C60 C61 1_555 1_555
C61 C62 1_555 1_555
C62 C57 1_555 1_555
C63 C64 1_555 1_555
C64 C65 1_555 1_555
C65 C66 1_555 1_555
C66 C67 1_555 1_555
C67 C68 1_555 1_555
C68 C63 1_555 1_555
C69 C65 1_555 1_555
C70 C71 1_555 1_555
C71 C72 1_555 1_555
C72 C73 1_555 1_555
C73 C74 1_555 1_555
C74 C75 1_555 1_555
C75 C70 1_555 1_555
C76 C72 1_555 1_555
C77 S13 1_555 1_555
C78 C77 1_555 1_555
C79 C78 1_555 1_555
C80 C79 1_555 1_555
C81 C80 1_555 1_555
C82 C77 1_555 1_555
C83 S21 1_555 1_555
C84 C83 1_555 1_555
C85 C84 1_555 1_555
C86 C85 1_555 1_555
C87 C86 1_555 1_555
C88 C83 1_555 1_555
C89 S44 1_555 1_555
C90 C89 1_555 1_555
C91 C90 1_555 1_555
C92 C91 1_555 1_555
C93 C92 1_555 1_555
C94 C89 1_555 1_555
C95 C91 1_555 1_555
C96 S5 1_555 1_555
C97 C96 1_555 1_555
C98 C97 1_555 1_555
C99 C98 1_555 1_555
C100 C99 1_555 1_555
C101 C96 1_555 1_555
C102 C98 1_555 1_555
C103 S16 1_555 1_555
C104 C103 1_555 1_555
C105 C104 1_555 1_555
C106 C105 1_555 1_555
C107 C106 1_555 1_555
C108 C103 1_555 1_555
C109 C105 1_555 1_555
C110 S27 1_555 1_555
C111 C110 1_555 1_555
C112 C111 1_555 1_555
C113 C112 1_555 1_555
C114 C113 1_555 1_555
C115 C110 1_555 1_555
C116 C112 1_555 1_555
C117 C118 1_555 1_555
C118 C119 1_555 1_555
C119 C120 1_555 1_555
C120 C121 1_555 1_555
C121 C122 1_555 1_555
C122 C117 1_555 1_555
C123 S33 1_555 1_555
C124 C123 1_555 1_555
C125 C124 1_555 1_555
C126 C125 1_555 1_555
C127 C126 1_555 1_555
C128 C123 1_555 1_555
C129 C125 1_555 1_555
C130 S34 1_555 1_555
C131 C130 1_555 1_555
C132 C131 1_555 1_555
C133 C132 1_555 1_555
C134 C133 1_555 1_555
C135 C130 1_555 1_555
C136 C132 1_555 1_555
C137 S38 1_555 1_555
C138 C137 1_555 1_555
C139 C138 1_555 1_555
C140 C139 1_555 1_555
C141 C140 1_555 1_555
C142 C137 1_555 1_555
C143 C139 1_555 1_555
C144 C145 1_555 1_555
C145 C146 1_555 1_555
C146 C147 1_555 1_555
C147 C148 1_555 1_555
C148 C149 1_555 1_555
C149 S53 1_555 1_555
C150 S22 1_555 1_555
C151 C150 1_555 1_555
C152 C151 1_555 1_555
C153 C152 1_555 1_555
C154 C153 1_555 1_555
C155 C150 1_555 1_555
C156 C152 1_555 1_555
C157 S26 1_555 1_555
C158 C157 1_555 1_555
C159 C158 1_555 1_555
C160 C159 1_555 1_555
C161 C160 1_555 1_555
C162 C157 1_555 1_555
C163 C159 1_555 1_555
C164 S40 1_555 1_555
C165 C164 1_555 1_555
C166 C165 1_555 1_555
C167 C166 1_555 1_555
C168 C167 1_555 1_555
C169 C164 1_555 1_555
C170 S41 1_555 1_555
C171 C170 1_555 1_555
C172 C171 1_555 1_555
C173 C172 1_555 1_555
C174 C173 1_555 1_555
C175 C170 1_555 1_555
C176 C172 1_555 1_555
C177 S48 1_555 1_555
C178 C177 1_555 1_555
C179 C178 1_555 1_555
C180 C179 1_555 1_555
C181 C180 1_555 1_555
C182 C177 1_555 1_555
C183 C179 1_555 1_555
C184 S4 1_555 1_555
C185 C184 1_555 1_555
C186 C185 1_555 1_555
C187 C186 1_555 1_555
C188 C187 1_555 1_555
C189 C184 1_555 1_555
C190 C186 1_555 1_555
C191 S14 1_555 1_555
C192 C191 1_555 1_555
C193 C192 1_555 1_555
C194 C193 1_555 1_555
C195 C194 1_555 1_555
C196 C191 1_555 1_555
C197 C193 1_555 1_555
C198 S52 1_555 1_555
C199 C198 1_555 1_555
C200 C199 1_555 1_555
C201 C200 1_555 1_555
C202 C201 1_555 1_555
C203 C198 1_555 1_555
C204 C200 1_555 1_555
C205 S25 1_555 1_555
C206 C205 1_555 1_555
C207 C206 1_555 1_555
C208 C207 1_555 1_555
C209 C208 1_555 1_555
C210 C205 1_555 1_555
C211 S39 1_555 1_555
C212 C211 1_555 1_555
C213 C212 1_555 1_555
C214 C213 1_555 1_555
C215 C214 1_555 1_555
C216 C211 1_555 1_555
C217 C213 1_555 1_555
C218 S9 1_555 1_555
C219 C218 1_555 1_555
C220 C219 1_555 1_555
C221 C220 1_555 1_555
C222 C221 1_555 1_555
C223 C218 1_555 1_555
C224 C220 1_555 1_555
C225 C226 1_555 1_555
C226 S50 1_555 1_555
C227 C226 1_555 1_555
C228 C227 1_555 1_555
C229 C228 1_555 1_555
C230 C225 1_555 1_555
C231 C227 1_555 1_555
C232 S43 1_555 1_555
C233 C232 1_555 1_555
C234 C233 1_555 1_555
C235 C234 1_555 1_555
C236 C235 1_555 1_555
C237 C232 1_555 1_555
C238 C234 1_555 1_555
C239 C240 1_555 1_555
C240 S24 1_555 1_555
C241 C240 1_555 1_555
C242 C241 1_555 1_555
C243 C242 1_555 1_555
C244 C239 1_555 1_555
C245 C242 1_555 1_555
C246 S42 1_555 1_555
C247 C246 1_555 1_555
C248 C247 1_555 1_555
C249 C248 1_555 1_555
C250 C249 1_555 1_555
C251 C246 1_555 1_555
C252 C248 1_555 1_555
C254 S15 1_555 1_555
C255 S23 1_555 1_555
C256 C255 1_555 1_555
C257 C256 1_555 1_555
C258 C257 1_555 1_555
C259 C258 1_555 1_555
C260 C255 1_555 1_555
C261 C257 1_555 1_555
C262 S7 1_555 1_555
C263 C262 1_555 1_555
C264 C263 1_555 1_555
C265 C264 1_555 1_555
C266 C265 1_555 1_555
C267 C262 1_555 1_555
C268 C264 1_555 1_555
C269 S8 1_555 1_555
C270 C269 1_555 1_555
C271 C270 1_555 1_555
C272 C271 1_555 1_555
C273 C272 1_555 1_555
C274 C269 1_555 1_555
C275 C271 1_555 1_555
C276 S28 1_555 1_555
C277 C276 1_555 1_555
C278 C277 1_555 1_555
C279 C278 1_555 1_555
C280 C279 1_555 1_555
C281 C276 1_555 1_555
C282 C278 1_555 1_555
C283 S49 1_555 1_555
C284 C283 1_555 1_555
C285 C284 1_555 1_555
C286 C285 1_555 1_555
C287 C286 1_555 1_555
C288 C283 1_555 1_555
C289 C290 1_555 1_555
C290 C291 1_555 1_555
C291 C292 1_555 1_555
C292 C293 1_555 1_555
C293 C294 1_555 1_555
C294 C289 1_555 1_555
Cd3F S6 1_555 1_555
Cd3A S7 1_555 1_555
Cd4A S5 1_555 1_555
Cd6F S49 1_555 1_555
Cd8A S44 1_555 1_555
Cd12A S46 1_555 1_555
Cd12G S47 1_555 1_555
Cd14F S53 1_555 1_555
S5A Cd4 1_555 1_555
S6A Cd1 1_555 1_555
S6F Cd1 1_555 1_555
S6G Cd1 1_555 1_555
S7A Cd3 1_555 1_555
S8G Cd3 1_555 1_555
S44A Cd8 1_555 1_555
S46A Cd12 1_555 1_555
S47F Cd12 1_555 1_555
S49G Cd6 1_555 1_555
S51A Cd8 1_555 1_555
S53G Cd14 1_555 1_555
Cd3 S6G 1_555 1_555
Cd4 S4 1_555 1_555
Cd5 S6 1_555 1_555
Cd10 S51 1_555 1_555
Cd10 S52 1_555 1_555
Cd12 S50 1_555 1_555
Cd13 S51 1_555 1_555
Cd13 S46A 1_555 1_555
Cd13 S51A 1_555 1_555
Cd14 S48 1_555 1_555
Cd19 S20 1_555 1_555
Cd19 S25 1_555 1_555
Cd20 S27 1_555 1_555
Cd20 S32 1_555 1_555
Cd23 S20 1_555 1_555
Cd24 S31 1_555 1_555
Cd25 S32 1_555 1_555
Cd25 S36 1_555 1_555
Cd26 S23 1_555 1_555
Cd26 S29 1_555 1_555
Cd26 S33 1_555 1_555
Cd27 S24 1_555 1_555
Cd28 S35 1_555 1_555
Cd28 S37 1_555 1_555
Cd28 S38 1_555 1_555
Cd29 S22 1_555 1_555
Cd29 S26 1_555 1_555
Cd29 S35 1_555 1_555
Cd30 S29 1_555 1_555
Cd30 S30 1_555 1_555
Cd30 S34 1_555 1_555
Cd31 S29 1_555 1_555
Cd31 S32 1_555 1_555
Cd31 S35 1_555 1_555
S8 Cd3F 1_555 1_555
S51 Cd8A 1_555 1_555
C5 C6 1_555 1_555
C12 C13 1_555 1_555
C19 C20 1_555 1_555
C26 C27 1_555 1_555
C33 C34 1_555 1_555
C40 C41 1_555 1_555
C47 C48 1_555 1_555
C54 C55 1_555 1_555
C81 C82 1_555 1_555
C87 C88 1_555 1_555
C93 C94 1_555 1_555
C100 C101 1_555 1_555
C107 C108 1_555 1_555
C114 C115 1_555 1_555
C127 C128 1_555 1_555
C134 C135 1_555 1_555
C141 C142 1_555 1_555
C144 C149 1_555 1_555
C154 C155 1_555 1_555
C161 C162 1_555 1_555
C168 C169 1_555 1_555
C174 C175 1_555 1_555
C181 C182 1_555 1_555
C188 C189 1_555 1_555
C195 C196 1_555 1_555
C202 C203 1_555 1_555
C209 C210 1_555 1_555
C215 C216 1_555 1_555
C222 C223 1_555 1_555
C229 C230 1_555 1_555
C236 C237 1_555 1_555
C243 C244 1_555 1_555
C250 C251 1_555 1_555
C259 C260 1_555 1_555
C266 C267 1_555 1_555
C273 C274 1_555 1_555
C280 C281 1_555 1_555
C287 C288 1_555 1_555
Cd3A S6F 1_555 1_555
Cd4A S6A 1_555 1_555

#END
