
#######################################################################
#
#                 Cambridge Crystallographic Data Centre
#                                CCDC 
#
#######################################################################
#
# If this CIF has been generated from an entry in the Cambridge 
# Structural Database, then it will include bibliographic, chemical, 
# crystal, experimental, refinement or atomic coordinate data resulting 
# from the CCDC's data processing and validation procedures.
#
#######################################################################

data_CISTIJ
_symmetry_cell_setting           triclinic
_symmetry_space_group_name_H-M   'P -1'
_symmetry_Int_Tables_number      2
_space_group_name_Hall           '-P 1'
loop_
_symmetry_equiv_pos_site_id
_symmetry_equiv_pos_as_xyz
1 x,y,z
2 -x,-y,-z
_cell_length_a                   7.9666(16)
_cell_length_b                   9.4084(19)
_cell_length_c                   9.6154(19)
_cell_angle_alpha                89.66(3)
_cell_angle_beta                 71.19(3)
_cell_angle_gamma                69.77(3)
_cell_volume                     635.591
loop_
_atom_site_label
_atom_site_type_symbol
_atom_site_fract_x
_atom_site_fract_y
_atom_site_fract_z
Cu1 Cu 0.43222(19) -0.04300(12) 0.40112(13)
I1 I 0.79917(10) -0.14939(7) 0.35485(7)
O1 O 0.7412(13) 0.2965(10) 0.0021(9)
N1 N 0.3563(11) 0.0680(8) 0.2309(8)
N2 N 0.5333(12) 0.3827(8) 0.2184(9)
N3 N 0.3556(12) 0.7655(8) 0.4184(8)
C1 C 0.2425(15) 0.0261(12) 0.1776(11)
H1 H 0.2221 -0.0632 0.2049
C2 C 0.1537(17) 0.1065(13) 0.0851(12)
H2 H 0.0751 0.0731 0.0513
C3 C 0.1851(16) 0.2376(13) 0.0443(11)
H3 H 0.1270 0.2951 -0.0179
C4 C 0.3012(17) 0.2834(12) 0.0951(11)
H4 H 0.3218 0.3728 0.0689
C5 C 0.3889(14) 0.1957(10) 0.1862(9)
C6 C 0.5269(16) 0.2311(10) 0.2431(11)
H5 H 0.4919 0.2228 0.3484
H6 H 0.6531 0.1555 0.1949
C7 C 0.4193(14) 0.5097(10) 0.3268(10)
C8 C 0.2649(15) 0.5056(11) 0.4435(11)
H7 H 0.2341 0.4185 0.4523
C9 C 0.1583(16) 0.6316(11) 0.5458(12)
H8 H 0.0550 0.6308 0.6258
C10 C 0.2064(15) 0.7601(11) 0.5283(11)
H9 H 0.1310 0.8464 0.5965
C11 C 0.4598(16) 0.6426(10) 0.3196(11)
H10 H 0.5644 0.6457 0.2423
C12 C 0.6472(15) 0.4069(10) 0.0946(10)
H11 H 0.6551 0.5024 0.0790
Cu1_2 Cu 0.43222(19) 0.95700(12) 0.40112(13)
Cu1A Cu 0.56778(19) 0.04300(12) 0.59888(13)
I1A I 0.20083(10) 0.14939(7) 0.64515(7)
N3_2 N 0.3556(12) -0.2345(8) 0.4184(8)
loop_
_geom_bond_atom_site_label_1
_geom_bond_atom_site_label_2
_geom_bond_site_symmetry_1
_geom_bond_site_symmetry_2
Cu1 I1 1_555 1_555
I1 Cu1A 1_555 1_555
O1 C12 1_555 1_555
N1 Cu1 1_555 1_555
N2 C6 1_555 1_555
N3 C10 1_555 1_555
C1 N1 1_555 1_555
H1 C1 1_555 1_555
C2 C1 1_555 1_555
H2 C2 1_555 1_555
C3 C2 1_555 1_555
H3 C3 1_555 1_555
C4 C3 1_555 1_555
H4 C4 1_555 1_555
C5 N1 1_555 1_555
C6 C5 1_555 1_555
H5 C6 1_555 1_555
H6 C6 1_555 1_555
C7 N2 1_555 1_555
C8 C7 1_555 1_555
H7 C8 1_555 1_555
C9 C8 1_555 1_555
H8 C9 1_555 1_555
C10 C9 1_555 1_555
H9 C10 1_555 1_555
C11 N3 1_555 1_555
H10 C11 1_555 1_555
C12 N2 1_555 1_555
H11 C12 1_555 1_555
Cu1_2 N3 1_555 1_555
Cu1A Cu1 1_555 1_555
I1A Cu1 1_555 1_555
N3_2 Cu1 1_555 1_555
C4 C5 1_555 1_555
C7 C11 1_555 1_555
Cu1A I1A 1_555 1_555

#END
