
#######################################################################
#
#                 Cambridge Crystallographic Data Centre
#                                CCDC 
#
#######################################################################
#
# If this CIF has been generated from an entry in the Cambridge 
# Structural Database, then it will include bibliographic, chemical, 
# crystal, experimental, refinement or atomic coordinate data resulting 
# from the CCDC's data processing and validation procedures.
#
#######################################################################

data_CISTEF
_symmetry_cell_setting           orthorhombic
_symmetry_space_group_name_H-M   'P c c n'
_symmetry_Int_Tables_number      56
_space_group_name_Hall           '-P 2ab 2ac'
loop_
_symmetry_equiv_pos_site_id
_symmetry_equiv_pos_as_xyz
1 x,y,z
2 1/2-x,1/2-y,z
3 -x,1/2+y,1/2-z
4 1/2+x,-y,1/2-z
5 -x,-y,-z
6 1/2+x,1/2+y,-z
7 x,1/2-y,1/2+z
8 1/2-x,y,1/2+z
_cell_length_a                   23.0737(14)
_cell_length_b                   11.5118(7)
_cell_length_c                   16.6416(9)
_cell_angle_alpha                90
_cell_angle_beta                 90
_cell_angle_gamma                90
_cell_volume                     4420.34
loop_
_atom_site_label
_atom_site_type_symbol
_atom_site_fract_x
_atom_site_fract_y
_atom_site_fract_z
I1 I 0.698243(19) 0.90553(3) 0.20636(2)
Cu1 Cu 0.69470(4) 0.67658(7) 0.14223(4)
Cu2 Cu 0.7500 0.7500 0.29044(5)
P1 P 0.62159(7) 0.57420(13) 0.18785(9)
N1 N 0.7500 0.7500 0.4077(3)
N2 N 0.7249(2) 0.7833(4) 0.5359(2)
C1 C 0.55303(19) 0.6246(4) 0.1461(3)
C2 C 0.5098(3) 0.5489(4) 0.1207(4)
H1 H 0.5156 0.4691 0.1237
C3 C 0.4580(2) 0.5925(7) 0.0908(5)
H2 H 0.4291 0.5418 0.0738
C4 C 0.4493(2) 0.7118(7) 0.0862(4)
H3 H 0.4146 0.7409 0.0662
C5 C 0.4925(3) 0.7875(5) 0.1116(3)
H4 H 0.4867 0.8673 0.1086
C6 C 0.5444(2) 0.7439(4) 0.1415(3)
H5 H 0.5733 0.7946 0.1585
C7 C 0.6253(2) 0.4208(3) 0.1627(2)
C8 C 0.5942(2) 0.3366(4) 0.2044(3)
H6 H 0.5710 0.3578 0.2476
C9 C 0.5979(3) 0.2208(4) 0.1814(4)
H7 H 0.5771 0.1645 0.2092
C10 C 0.6327(3) 0.1891(3) 0.1168(4)
H8 H 0.6351 0.1116 0.1014
C11 C 0.6638(2) 0.2732(5) 0.0752(3)
H9 H 0.6870 0.2520 0.0320
C12 C 0.66007(19) 0.3891(4) 0.0982(2)
H10 H 0.6809 0.4454 0.0703
C13 C 0.61036(19) 0.5739(4) 0.29757(17)
C14 C 0.56003(17) 0.6166(4) 0.3327(3)
H11 H 0.5304 0.6458 0.3006
C15 C 0.5540(2) 0.6157(5) 0.4158(3)
H12 H 0.5203 0.6443 0.4393
C16 C 0.5983(3) 0.5722(5) 0.46377(17)
H13 H 0.5942 0.5716 0.5194
C17 C 0.6486(2) 0.5295(4) 0.4286(2)
H14 H 0.6782 0.5003 0.4607
C18 C 0.65464(16) 0.5304(4) 0.3455(2)
H15 H 0.6883 0.5018 0.3220
C19 C 0.7111(3) 0.8002(5) 0.4588(3)
C20 C 0.6604(3) 0.8686(6) 0.4332(3)
H16 H 0.6330 0.8730 0.4765
H17 H 0.6425 0.8318 0.3877
H18 H 0.6725 0.9455 0.4186
N2A N 0.7751(2) 0.7167(4) 0.5359(2)
C19A C 0.7889(3) 0.6998(5) 0.4588(3)
C20A C 0.8396(3) 0.6314(6) 0.4332(3)
H16A H 0.8670 0.6270 0.4765
H17A H 0.8575 0.6682 0.3877
H18A H 0.8275 0.5545 0.4186
I1A I 0.801757(19) 0.59447(3) 0.20636(2)
Cu1A Cu 0.80530(4) 0.82342(7) 0.14223(4)
P1A P 0.87841(7) 0.92580(13) 0.18785(9)
C1A C 0.94697(19) 0.8754(4) 0.1461(3)
C2A C 0.9902(3) 0.9511(4) 0.1207(4)
H1A H 0.9844 1.0309 0.1237
C3A C 1.0420(2) 0.9075(7) 0.0908(5)
H2A H 1.0709 0.9582 0.0738
C4A C 1.0507(2) 0.7882(7) 0.0862(4)
H3A H 1.0854 0.7591 0.0662
C5A C 1.0075(3) 0.7125(5) 0.1116(3)
H4A H 1.0133 0.6327 0.1086
C6A C 0.9556(2) 0.7561(4) 0.1415(3)
H5A H 0.9267 0.7054 0.1585
C7A C 0.8747(2) 1.0792(3) 0.1627(2)
C8A C 0.9058(2) 1.1634(4) 0.2044(3)
H6A H 0.9290 1.1422 0.2476
C9A C 0.9021(3) 1.2792(4) 0.1814(4)
H7A H 0.9229 1.3355 0.2092
C10A C 0.8673(3) 1.3109(3) 0.1168(4)
H8A H 0.8649 1.3884 0.1014
C11A C 0.8362(2) 1.2268(5) 0.0752(3)
H9A H 0.8130 1.2480 0.0320
C12A C 0.83993(19) 1.1109(4) 0.0982(2)
H10A H 0.8191 1.0546 0.0703
C13A C 0.88964(19) 0.9261(4) 0.29757(17)
C14A C 0.93997(17) 0.8834(4) 0.3327(3)
H11A H 0.9696 0.8542 0.3006
C15A C 0.9460(2) 0.8843(5) 0.4158(3)
H12A H 0.9797 0.8557 0.4393
C16A C 0.9017(3) 0.9278(5) 0.46377(17)
H13A H 0.9058 0.9284 0.5194
C17A C 0.8514(2) 0.9705(4) 0.4286(2)
H14A H 0.8218 0.9997 0.4607
C18A C 0.84536(16) 0.9696(4) 0.3455(2)
H15A H 0.8117 0.9982 0.3220
Cu1F Cu 0.69470(4) 0.82342(7) 0.64223(4)
Cu1G Cu 0.80530(4) 0.67658(7) 0.64223(4)
N2F N 0.7249(2) 0.7167(4) 0.0359(2)
N2G N 0.7751(2) 0.7833(4) 0.0359(2)
loop_
_geom_bond_atom_site_label_1
_geom_bond_atom_site_label_2
_geom_bond_site_symmetry_1
_geom_bond_site_symmetry_2
I1 Cu1 1_555 1_555
Cu1 P1 1_555 1_555
Cu2 I1 1_555 1_555
P1 C1 1_555 1_555
N1 Cu2 1_555 1_555
N2 C19 1_555 1_555
C1 C2 1_555 1_555
C2 H1 1_555 1_555
C3 C2 1_555 1_555
H2 C3 1_555 1_555
C4 C3 1_555 1_555
H3 C4 1_555 1_555
C5 C4 1_555 1_555
H4 C5 1_555 1_555
C6 C1 1_555 1_555
H5 C6 1_555 1_555
C7 P1 1_555 1_555
C8 C7 1_555 1_555
H6 C8 1_555 1_555
C9 C8 1_555 1_555
H7 C9 1_555 1_555
C10 C9 1_555 1_555
H8 C10 1_555 1_555
C11 C10 1_555 1_555
H9 C11 1_555 1_555
C12 C7 1_555 1_555
H10 C12 1_555 1_555
C13 P1 1_555 1_555
C14 C13 1_555 1_555
H11 C14 1_555 1_555
C15 C14 1_555 1_555
H12 C15 1_555 1_555
C16 C15 1_555 1_555
H13 C16 1_555 1_555
C17 C16 1_555 1_555
H14 C17 1_555 1_555
C18 C13 1_555 1_555
H15 C18 1_555 1_555
C19 N1 1_555 1_555
C20 C19 1_555 1_555
H16 C20 1_555 1_555
H17 C20 1_555 1_555
H18 C20 1_555 1_555
N2A N2 1_555 1_555
C19A N1 1_555 1_555
C20A C19A 1_555 1_555
H16A C20A 1_555 1_555
H17A C20A 1_555 1_555
H18A C20A 1_555 1_555
I1A Cu1 1_555 1_555
Cu1A I1 1_555 1_555
P1A Cu1A 1_555 1_555
C1A P1A 1_555 1_555
C2A C1A 1_555 1_555
H1A C2A 1_555 1_555
C3A C2A 1_555 1_555
H2A C3A 1_555 1_555
C4A C3A 1_555 1_555
H3A C4A 1_555 1_555
C5A C4A 1_555 1_555
H4A C5A 1_555 1_555
C6A C1A 1_555 1_555
H5A C6A 1_555 1_555
C7A P1A 1_555 1_555
C8A C7A 1_555 1_555
H6A C8A 1_555 1_555
C9A C8A 1_555 1_555
H7A C9A 1_555 1_555
C10A C9A 1_555 1_555
H8A C10A 1_555 1_555
C11A C10A 1_555 1_555
H9A C11A 1_555 1_555
C12A C7A 1_555 1_555
H10A C12A 1_555 1_555
C13A P1A 1_555 1_555
C14A C13A 1_555 1_555
H11A C14A 1_555 1_555
C15A C14A 1_555 1_555
H12A C15A 1_555 1_555
C16A C15A 1_555 1_555
H13A C16A 1_555 1_555
C17A C16A 1_555 1_555
H14A C17A 1_555 1_555
C18A C13A 1_555 1_555
H15A C18A 1_555 1_555
Cu1F N2 1_555 1_555
Cu1G N2A 1_555 1_555
N2F Cu1 1_555 1_555
N2G Cu1A 1_555 1_555
Cu2 I1A 1_555 1_555
C5 C6 1_555 1_555
C11 C12 1_555 1_555
C17 C18 1_555 1_555
N2A C19A 1_555 1_555
I1A Cu1A 1_555 1_555
C5A C6A 1_555 1_555
C11A C12A 1_555 1_555
C17A C18A 1_555 1_555
N2F N2G 1_555 1_555

#END
