
#######################################################################
#
#                 Cambridge Crystallographic Data Centre
#                                CCDC 
#
#######################################################################
#
# If this CIF has been generated from an entry in the Cambridge 
# Structural Database, then it will include bibliographic, chemical, 
# crystal, experimental, refinement or atomic coordinate data resulting 
# from the CCDC's data processing and validation procedures.
#
#######################################################################

data_CISXEI
_symmetry_cell_setting           triclinic
_symmetry_space_group_name_H-M   'P -1'
_symmetry_Int_Tables_number      2
_space_group_name_Hall           '-P 1'
loop_
_symmetry_equiv_pos_site_id
_symmetry_equiv_pos_as_xyz
1 x,y,z
2 -x,-y,-z
_cell_length_a                   9.0345(14)
_cell_length_b                   10.2443(16)
_cell_length_c                   10.5895(16)
_cell_angle_alpha                90.411(3)
_cell_angle_beta                 112.934(3)
_cell_angle_gamma                92.554(3)
_cell_volume                     901.392
loop_
_atom_site_label
_atom_site_type_symbol
_atom_site_fract_x
_atom_site_fract_y
_atom_site_fract_z
U1 U 0.08704(2) 0.059737(18) 1.287127(19)
O1 O 0.2661(8) 0.4012(5) 1.6228(7)
O2 O 0.2368(5) -0.0480(4) 1.2962(4)
O3 O 0.4651(7) 0.3529(6) 2.1868(5)
O4 O -0.0661(5) 0.1631(4) 1.2762(5)
O5 O 0.2930(6) 0.2435(4) 1.3540(4)
O6 O 0.1706(7) 0.5854(5) 1.6158(7)
O7 O 0.3458(6) 0.4785(5) 2.0202(5)
O8 O 0.2151(5) 0.0911(4) 1.5278(4)
O9 O 0.1047(5) 0.1763(4) 2.0958(4)
O10 O 0.0388(4) 0.0999(3) 1.6272(4)
O11 O 0.0863(4) 0.0521(3) 1.9168(4)
N1 N 0.1882(6) 0.4750(5) 1.6547(5)
N2 N 0.4097(6) 0.3777(6) 2.0652(5)
C1 C 0.2920(6) 0.2494(5) 1.8452(5)
C2 C 0.0427(6) 0.2791(5) 1.8851(5)
C3 C 0.4233(7) 0.2760(5) 1.9702(6)
C4 C 0.1390(6) 0.3172(5) 1.8147(5)
C5 C 0.0809(6) 0.1604(5) 1.9730(6)
C6 C 0.1782(7) 0.1139(5) 1.6284(5)
C7 C 0.0908(7) 0.4256(5) 1.7307(6)
C8 C 0.3149(6) 0.1536(5) 1.7608(5)
C9 C -0.0906(8) 0.3477(6) 1.8745(7)
H1 H -0.1516 0.3220 1.9241
C10 C 0.4572(7) 0.0932(6) 1.7964(6)
H2 H 0.4700 0.0331 1.7357
C11 C 0.5646(7) 0.2126(6) 2.0104(6)
H3 H 0.6464 0.2312 2.0958
C12 C -0.0430(8) 0.4922(6) 1.7192(7)
H4 H -0.0721 0.5634 1.6624
C13 C 0.5836(7) 0.1214(6) 1.9235(7)
H5 H 0.6793 0.0788 1.9483
C14 C -0.1325(9) 0.4532(7) 1.7911(8)
H6 H -0.2226 0.4982 1.7837
U1_2 U 0.08704(2) 0.059737(18) 2.287127(19)
U1A U -0.08704(2) -0.059737(18) 1.712873(19)
O9_2 O 0.1047(5) 0.1763(4) 1.0958(4)
O10A O -0.0388(4) -0.0999(3) 1.3728(4)
O11A O -0.0863(4) -0.0521(3) 1.0832(4)
O12 O 0.6007(10) 0.2416(11) 0.4930(13)
H7 H 0.6428 0.3173 0.4627
H8 H 0.6820 0.1787 0.5253
loop_
_geom_bond_atom_site_label_1
_geom_bond_atom_site_label_2
_geom_bond_site_symmetry_1
_geom_bond_site_symmetry_2
U1 O2 1_555 1_555
O1 N1 1_555 1_555
O3 N2 1_555 1_555
O4 U1 1_555 1_555
O5 U1 1_555 1_555
O6 N1 1_555 1_555
O7 N2 1_555 1_555
O8 U1 1_555 1_555
O9 C5 1_555 1_555
O10 C6 1_555 1_555
O11 C5 1_555 1_555
N1 C7 1_555 1_555
N2 C3 1_555 1_555
C1 C3 1_555 1_555
C2 C4 1_555 1_555
C3 C11 1_555 1_555
C4 C1 1_555 1_555
C5 C2 1_555 1_555
C6 O8 1_555 1_555
C7 C4 1_555 1_555
C8 C1 1_555 1_555
C9 C2 1_555 1_555
H1 C9 1_555 1_555
C10 C8 1_555 1_555
H2 C10 1_555 1_555
C11 H3 1_555 1_555
C12 C7 1_555 1_555
H4 C12 1_555 1_555
C13 C10 1_555 1_555
H5 C13 1_555 1_555
C14 C9 1_555 1_555
H6 C14 1_555 1_555
O12 H7 1_555 1_555
H8 O12 1_555 1_555
U1_2 O9 1_555 1_555
U1A O10 1_555 1_555
O9_2 U1 1_555 1_555
O10A U1 1_555 1_555
O11A U1 1_555 1_555
O11 U1A 1_555 1_555
C6 C8 1_555 1_555
C11 C13 1_555 1_555
C12 C14 1_555 1_555

#END
