
#######################################################################
#
#                 Cambridge Crystallographic Data Centre
#                                CCDC 
#
#######################################################################
#
# If this CIF has been generated from an entry in the Cambridge 
# Structural Database, then it will include bibliographic, chemical, 
# crystal, experimental, refinement or atomic coordinate data resulting 
# from the CCDC's data processing and validation procedures.
#
#######################################################################

data_CISXAE
_symmetry_cell_setting           monoclinic
_symmetry_space_group_name_H-M   'C 2/c'
_symmetry_Int_Tables_number      15
_space_group_name_Hall           '-C 2yn'
loop_
_symmetry_equiv_pos_site_id
_symmetry_equiv_pos_as_xyz
1 x,y,z
2 1/2+x,1/2+y,z
3 -x,y,1/2-z
4 1/2-x,1/2+y,1/2-z
5 -x,-y,-z
6 1/2-x,1/2-y,-z
7 x,-y,1/2+z
8 1/2+x,1/2-y,1/2+z
_cell_length_a                   16.403(3)
_cell_length_b                   11.967(2)
_cell_length_c                   10.6630(17)
_cell_angle_alpha                90
_cell_angle_beta                 104.412(4)
_cell_angle_gamma                90
_cell_volume                     2027.22
loop_
_atom_site_label
_atom_site_type_symbol
_atom_site_fract_x
_atom_site_fract_y
_atom_site_fract_z
U1 U 0.5000 -0.06930(3) 0.2500
O1 O 0.6074(4) -0.0668(4) 0.2508(6)
O2 O 0.5245(4) 0.0789(4) 0.3982(5)
O3 O 0.5000 -0.2818(8) 0.2500
H1 H 0.4856 -0.3086 0.1624
C1 C 0.2825(8) 0.4723(14) -0.0356(15)
H2 H 0.2445 0.5084 -0.1027
C2 C 0.4212(5) 0.2215(6) 0.3319(6)
C3 C 0.4533(4) 0.2821(6) 0.2462(6)
C4 C 0.4748(5) 0.1464(6) 0.4309(6)
C5 C 0.3100(5) 0.3472(6) 0.1460(7)
C6 C 0.3969(5) 0.3500(7) 0.1527(7)
C7 C 0.2798(5) 0.2803(8) 0.2331(8)
H3 H 0.2223 0.2752 0.2262
C8 C 0.3344(5) 0.2239(7) 0.3262(7)
H4 H 0.3146 0.1856 0.3884
C9 C 0.2544(7) 0.4129(8) 0.0507(11)
H5 H 0.1974 0.4144 0.0486
C10 C 0.4252(7) 0.4161(10) 0.0617(14)
H6 H 0.4818 0.4159 0.0613
C11 C 0.3691(8) 0.4806(15) -0.0257(17)
H7 H 0.3887 0.5302 -0.0787
O4 O 0.4646(5) 0.1554(5) 0.5428(5)
U1F U 0.5000 0.06930(3) 0.7500
U1F_2 U 0.5000 0.06930(3) -0.2500
O1B O 0.3926(4) -0.0668(4) 0.2492(6)
O2B O 0.4755(4) 0.0789(4) 0.1018(5)
H1B H 0.5144 -0.3086 0.3376
C1B C 0.7175(8) 0.4723(14) 0.5356(15)
H2B H 0.7555 0.5084 0.6027
C2B C 0.5788(5) 0.2215(6) 0.1681(6)
C3B C 0.5467(4) 0.2821(6) 0.2538(6)
C4B C 0.5252(5) 0.1464(6) 0.0691(6)
C5B C 0.6900(5) 0.3472(6) 0.3540(7)
C6B C 0.6031(5) 0.3500(7) 0.3473(7)
C7B C 0.7202(5) 0.2803(8) 0.2669(8)
H3B H 0.7777 0.2752 0.2738
C8B C 0.6656(5) 0.2239(7) 0.1738(7)
H4B H 0.6854 0.1856 0.1116
C9B C 0.7456(7) 0.4129(8) 0.4493(11)
H5B H 0.8026 0.4144 0.4514
C10B C 0.5748(7) 0.4161(10) 0.4383(14)
H6B H 0.5182 0.4159 0.4387
C11B C 0.6309(8) 0.4806(15) 0.5257(17)
H7B H 0.6113 0.5302 0.5787
O4B O 0.5354(5) 0.1554(5) -0.0428(5)
O4F O 0.4646(5) -0.1554(5) 0.0428(5)
O4D O 0.5354(5) -0.1554(5) 0.4572(5)
loop_
_geom_bond_atom_site_label_1
_geom_bond_atom_site_label_2
_geom_bond_site_symmetry_1
_geom_bond_site_symmetry_2
U1 O1 1_555 1_555
O2 U1 1_555 1_555
O3 U1 1_555 1_555
H1 O3 1_555 1_555
C1 H2 1_555 1_555
C2 C3 1_555 1_555
C3 C6 1_555 1_555
C4 O2 1_555 1_555
C5 C6 1_555 1_555
C6 C10 1_555 1_555
C7 C5 1_555 1_555
H3 C7 1_555 1_555
C8 C2 1_555 1_555
H4 C8 1_555 1_555
C9 C1 1_555 1_555
H5 C9 1_555 1_555
C10 H6 1_555 1_555
C11 C1 1_555 1_555
H7 C11 1_555 1_555
O4 C4 1_555 1_555
U1F O4 1_555 1_555
U1F_2 O4B 1_555 1_555
O1B U1 1_555 1_555
O2B U1 1_555 1_555
H1B O3 1_555 1_555
C1B H2B 1_555 1_555
C2B C3B 1_555 1_555
C3B C3 1_555 1_555
C4B O2B 1_555 1_555
C5B C6B 1_555 1_555
C6B C3B 1_555 1_555
C7B C5B 1_555 1_555
H3B C7B 1_555 1_555
C8B C2B 1_555 1_555
H4B C8B 1_555 1_555
C9B C1B 1_555 1_555
H5B C9B 1_555 1_555
C10B C6B 1_555 1_555
H6B C10B 1_555 1_555
C11B C1B 1_555 1_555
H7B C11B 1_555 1_555
O4B C4B 1_555 1_555
O4F U1 1_555 1_555
O4D U1 1_555 1_555
C2 C4 1_555 1_555
C5 C9 1_555 1_555
C7 C8 1_555 1_555
C10 C11 1_555 1_555
C2B C4B 1_555 1_555
C5B C9B 1_555 1_555
C7B C8B 1_555 1_555
C10B C11B 1_555 1_555

#END
