
#######################################################################
#
#                 Cambridge Crystallographic Data Centre
#                                CCDC 
#
#######################################################################
#
# If this CIF has been generated from an entry in the Cambridge 
# Structural Database, then it will include bibliographic, chemical, 
# crystal, experimental, refinement or atomic coordinate data resulting 
# from the CCDC's data processing and validation procedures.
#
#######################################################################

data_CITBIS
_symmetry_cell_setting           triclinic
_symmetry_space_group_name_H-M   'P -1'
_symmetry_Int_Tables_number      2
_space_group_name_Hall           '-P 1'
loop_
_symmetry_equiv_pos_site_id
_symmetry_equiv_pos_as_xyz
1 x,y,z
2 -x,-y,-z
_cell_length_a                   10.2419(6)
_cell_length_b                   11.5688(7)
_cell_length_c                   14.8155(9)
_cell_angle_alpha                74.9510(10)
_cell_angle_beta                 89.0700(10)
_cell_angle_gamma                69.8160(10)
_cell_volume                     1585.91
loop_
_atom_site_label
_atom_site_type_symbol
_atom_site_fract_x
_atom_site_fract_y
_atom_site_fract_z
Cu1 Cu 0.32108(3) 0.07749(2) 0.924593(18)
O1 O 0.14780(17) 0.21102(16) 0.86300(13)
N1 N 0.21469(19) 0.01614(17) 1.02794(13)
C1 C -0.5515(3) 0.2930(2) 1.70752(18)
H1 H -0.5597 0.3712 1.6660
O2 O 0.48222(15) -0.09333(13) 0.96186(10)
N2 N -0.58028(19) 0.14905(17) 1.82154(13)
C2 C -0.4820(2) 0.0918(2) 1.77481(16)
H2 H -0.4342 0.0040 1.7892
O3 O -0.2015(4) 0.5270(3) 0.4884(2)
N3 N 0.6109(2) -0.5201(2) 0.77740(16)
C3 C -0.4087(3) 0.1565(2) 1.54962(17)
O4 O -0.0498(4) 0.3469(3) 0.5435(2)
N4 N 0.7651(2) -0.57947(19) 1.10308(16)
C4 C -0.2475(3) 0.2215(3) 1.4359(2)
H3 H -0.3261 0.2830 1.3933
H4 H -0.2243 0.2641 1.4784
O5 O 0.1254(2) 0.35519(18) 0.94291(14)
N5 N -0.2360(2) 0.7646(2) 0.73401(19)
C5 C -0.1232(3) 0.1748(3) 1.38041(19)
H5 H -0.1028 0.2476 1.3424
H6 H -0.0419 0.1207 1.4234
O6 O -0.3109(3) 0.8425(2) 0.66678(19)
N6 N 0.2197(2) -0.10963(19) 1.05832(16)
C6 C -0.1517(2) 0.1004(3) 1.31755(16)
H7 H -0.2286 0.1591 1.2711
O7 O -0.2282(2) 0.7853(2) 0.80939(17)
N7 N 0.05291(19) 0.01178(18) 1.12223(13)
C7 C -0.1963(3) -0.0091(3) 1.3722(2)
H8 H -0.1189 -0.0725 1.4150
H9 H -0.2210 -0.0499 1.3291
O8 O 0.33802(16) -0.10526(16) 0.85816(12)
N8 N -0.05479(19) 0.04867(19) 1.17811(13)
H10 H -0.1400 0.0705 1.1568
C8 C -0.3214(3) 0.0398(3) 1.4279(2)
H11 H -0.4016 0.0969 1.3849
H12 H -0.3449 -0.0318 1.4649
O9 O 0.0941(2) 0.0146(3) 1.29753(15)
N9 N -0.3638(2) 0.1552(2) 1.63664(13)
H13 H -0.2770 0.1398 1.6502
C9 C 0.1216(3) -0.1082(2) 1.11467(19)
H14 H 0.1010 -0.1799 1.1458
O10 O -0.53076(19) 0.1948(2) 1.52428(14)
N10 N -0.46015(19) 0.17898(19) 1.70270(13)
C10 C 0.1148(2) 0.0865(2) 1.06708(15)
H15 H 0.0902 0.1741 1.0583
O11 O 0.5415(2) -0.4495(2) 0.70591(15)
N11 N -0.1203(3) 0.4508(3) 0.5497(2)
C11 C 0.4433(2) -0.1547(2) 0.91512(15)
O12 O 0.6848(2) -0.63030(19) 0.78431(16)
N12 N -0.6263(2) 0.27867(19) 1.77795(15)
C12 C 0.5295(2) -0.2930(2) 0.92618(16)
O13 O 0.8661(2) -0.67222(19) 1.09926(16)
C13 C 0.5294(2) -0.3430(2) 0.85048(16)
H16 H 0.4761 -0.2920 0.7948
O14 O 0.7270(2) -0.55166(19) 1.17494(14)
C14 C 0.6090(2) -0.4691(2) 0.85883(17)
C15 C 0.6881(2) -0.5489(2) 0.94039(18)
H17 H 0.7417 -0.6339 0.9452
C16 C 0.6834(2) -0.4964(2) 1.01395(17)
C17 C 0.6068(2) -0.3703(2) 1.00973(16)
H18 H 0.6071 -0.3383 1.0612
C18 C 0.1016(2) 0.3245(2) 0.87400(19)
C19 C 0.0064(2) 0.4247(2) 0.79159(17)
C20 C -0.0102(3) 0.3945(2) 0.70890(19)
H19 H 0.0391 0.3132 0.7025
C21 C -0.1006(3) 0.4861(3) 0.63623(19)
C22 C -0.1752(3) 0.6089(3) 0.64122(19)
H20 H -0.2360 0.6696 0.5917
C23 C -0.1541(2) 0.6358(2) 0.72373(18)
C24 C -0.0663(2) 0.5472(2) 0.79929(17)
H21 H -0.0562 0.5692 0.8542
C25 C -0.0257(3) 0.0502(3) 1.26542(17)
C26 C -0.2879(3) 0.1099(3) 1.49188(17)
H22 H -0.2076 0.0500 1.5352
Cu1_2 Cu -0.67892(3) 0.07749(2) 1.924593(18)
Cu1A Cu 0.67892(3) -0.07749(2) 1.075407(18)
O2A O 0.51778(15) 0.09333(13) 1.03814(10)
N2_2 N 0.41972(19) 0.14905(17) 0.82154(13)
loop_
_geom_bond_atom_site_label_1
_geom_bond_atom_site_label_2
_geom_bond_site_symmetry_1
_geom_bond_site_symmetry_2
Cu1 O1 1_555 1_555
O1 C18 1_555 1_555
N1 Cu1 1_555 1_555
C1 H1 1_555 1_555
O2 Cu1 1_555 1_555
N2 C2 1_555 1_555
C2 H2 1_555 1_555
O3 N11 1_555 1_555
N3 O11 1_555 1_555
C3 N9 1_555 1_555
O4 N11 1_555 1_555
N4 O13 1_555 1_555
C4 H3 1_555 1_555
H4 C4 1_555 1_555
O5 C18 1_555 1_555
N5 O6 1_555 1_555
C5 C4 1_555 1_555
H5 C5 1_555 1_555
H6 C5 1_555 1_555
N6 N1 1_555 1_555
C6 C5 1_555 1_555
H7 C6 1_555 1_555
O7 N5 1_555 1_555
N7 N8 1_555 1_555
C7 C6 1_555 1_555
H8 C7 1_555 1_555
H9 C7 1_555 1_555
O8 Cu1 1_555 1_555
N8 H10 1_555 1_555
C8 C7 1_555 1_555
H11 C8 1_555 1_555
H12 C8 1_555 1_555
O9 C25 1_555 1_555
N9 H13 1_555 1_555
C9 N6 1_555 1_555
H14 C9 1_555 1_555
O10 C3 1_555 1_555
N10 C1 1_555 1_555
C10 N1 1_555 1_555
H15 C10 1_555 1_555
N11 C21 1_555 1_555
C11 O2 1_555 1_555
O12 N3 1_555 1_555
N12 C1 1_555 1_555
C12 C11 1_555 1_555
C13 C12 1_555 1_555
H16 C13 1_555 1_555
O14 N4 1_555 1_555
C14 N3 1_555 1_555
C15 C14 1_555 1_555
H17 C15 1_555 1_555
C16 N4 1_555 1_555
C17 C12 1_555 1_555
H18 C17 1_555 1_555
C18 C19 1_555 1_555
C19 C20 1_555 1_555
C20 H19 1_555 1_555
C21 C20 1_555 1_555
C22 C21 1_555 1_555
H20 C22 1_555 1_555
C23 N5 1_555 1_555
C24 C19 1_555 1_555
H21 C24 1_555 1_555
C25 C6 1_555 1_555
C26 C3 1_555 1_555
H22 C26 1_555 1_555
Cu1_2 N2 1_555 1_555
Cu1A O2 1_555 1_555
O2A Cu1 1_555 1_555
N2_2 Cu1 1_555 1_555
N2 N12 1_555 1_555
C2 N10 1_555 1_555
C4 C26 1_555 1_555
N7 C9 1_555 1_555
N7 C10 1_555 1_555
O8 C11 1_555 1_555
N8 C25 1_555 1_555
C8 C26 1_555 1_555
N9 N10 1_555 1_555
C13 C14 1_555 1_555
C15 C16 1_555 1_555
C16 C17 1_555 1_555
C22 C23 1_555 1_555
C23 C24 1_555 1_555
Cu1A O2A 1_555 1_555

#END
