
#######################################################################
#
#                 Cambridge Crystallographic Data Centre
#                                CCDC 
#
#######################################################################
#
# If this CIF has been generated from an entry in the Cambridge 
# Structural Database, then it will include bibliographic, chemical, 
# crystal, experimental, refinement or atomic coordinate data resulting 
# from the CCDC's data processing and validation procedures.
#
#######################################################################

data_CITGET
_symmetry_cell_setting           triclinic
_symmetry_space_group_name_H-M   'P -1'
_symmetry_Int_Tables_number      2
_space_group_name_Hall           '-P 1'
loop_
_symmetry_equiv_pos_site_id
_symmetry_equiv_pos_as_xyz
1 x,y,z
2 -x,-y,-z
_cell_length_a                   5.836(5)
_cell_length_b                   18.104(5)
_cell_length_c                   18.280(5)
_cell_angle_alpha                73.828(5)
_cell_angle_beta                 89.830(5)
_cell_angle_gamma                89.890(5)
_cell_volume                     1854.94
loop_
_atom_site_label
_atom_site_type_symbol
_atom_site_fract_x
_atom_site_fract_y
_atom_site_fract_z
Hg1 Hg -0.5000 0.0000 0.5000
S1 S -0.6886(2) 0.12036(7) 0.49956(9)
N1 N -0.3642(6) 0.0656(2) 0.36294(19)
N2 N -0.8737(7) -0.0633(3) 0.4514(2)
C1 C -0.9478(8) 0.0860(3) 0.5283(2)
C2 C -0.1901(7) 0.1132(3) 0.3388(2)
C3 C -0.4876(8) 0.0455(3) 0.3106(3)
C4 C -0.1316(7) 0.1435(2) 0.2631(2)
H1 H -0.1019 0.1270 0.3752
C5 C -0.4435(7) 0.0720(3) 0.2339(2)
H2 H -0.6098 0.0120 0.3266
C6 C -0.2643(7) 0.1212(2) 0.2102(2)
C7 C 0.0614(7) 0.1972(2) 0.2431(2)
H3 H -0.5337 0.0567 0.1988
H4 H -0.2311 0.1397 0.1586
C8 C 0.1603(7) 0.2204(2) 0.1750(2)
H5 H 0.1194 0.2166 0.2813
H6 H 0.1038 0.2000 0.1373
C9 C 0.3475(7) 0.2744(2) 0.1539(2)
C10 C 0.4431(8) 0.2863(2) 0.0843(2)
C11 C 0.4377(7) 0.3157(3) 0.2087(2)
C12 C 0.6377(7) 0.3352(2) 0.0599(2)
H7 H 0.3800 0.2618 0.0507
H8 H 0.5428 0.2819 0.2437
H9 H 0.3108 0.3267 0.2385
C13 C 0.5616(7) 0.3911(3) 0.1699(2)
C14 C 0.7361(7) 0.3421(3) -0.0095(2)
C15 C 0.7356(7) 0.3753(3) 0.1139(2)
C16 C 0.3885(7) 0.4521(3) 0.1277(3)
C17 C 0.6856(8) 0.4209(3) 0.2296(3)
C18 C 0.6455(10) 0.3043(3) -0.0623(3)
C19 C 0.9381(10) 0.3868(3) -0.0332(3)
H10 H 0.8014 0.4238 0.0848
H11 H 0.8586 0.3441 0.1423
H12 H 0.3158 0.4350 0.0882
H13 H 0.4668 0.4997 0.1055
H14 H 0.2746 0.4596 0.1629
H15 H 0.5768 0.4288 0.2661
H16 H 0.7599 0.4687 0.2050
H17 H 0.7981 0.3839 0.2549
N3 N 0.5744(12) 0.2751(4) -0.1050(3)
N4 N 1.1009(9) 0.4221(3) -0.0529(3)
N1A N -0.6358(6) -0.0656(2) 0.63706(19)
S1A S -0.3114(2) -0.12036(7) 0.50044(9)
N2A N -0.1263(7) 0.0633(3) 0.5486(2)
C1A C -1.0522(8) -0.0860(3) 0.4717(2)
C2A C -0.8099(7) -0.1132(3) 0.6612(2)
C3A C -0.5124(8) -0.0455(3) 0.6894(3)
N2A_2 N -1.1263(7) 0.0633(3) 0.5486(2)
S1A_2 S -1.3114(2) -0.12036(7) 0.50044(9)
C4A C -0.8684(7) -0.1435(2) 0.7369(2)
H1A H -0.8981 -0.1270 0.6248
C5A C -0.5565(7) -0.0720(3) 0.7661(2)
H2A H -0.3902 -0.0120 0.6734
Hg1_2 Hg -1.5000 0.0000 0.5000
C6A C -0.7357(7) -0.1212(2) 0.7898(2)
C7A C -1.0614(7) -0.1972(2) 0.7569(2)
H3A H -0.4663 -0.0567 0.8012
H4A H -0.7689 -0.1397 0.8414
C8A C -1.1603(7) -0.2204(2) 0.8250(2)
H5A H -1.1194 -0.2166 0.7187
H6A H -1.1038 -0.2000 0.8627
C9A C -1.3475(7) -0.2744(2) 0.8461(2)
C10A C -1.4431(8) -0.2863(2) 0.9157(2)
C11A C -1.4377(7) -0.3157(3) 0.7913(2)
C12A C -1.6377(7) -0.3352(2) 0.9401(2)
H7A H -1.3800 -0.2618 0.9493
H8A H -1.5428 -0.2819 0.7563
H9A H -1.3108 -0.3267 0.7615
C13A C -1.5616(7) -0.3911(3) 0.8301(2)
C14A C -1.7361(7) -0.3421(3) 1.0095(2)
C15A C -1.7356(7) -0.3753(3) 0.8861(2)
C16A C -1.3885(7) -0.4521(3) 0.8723(3)
C17A C -1.6856(8) -0.4209(3) 0.7704(3)
C18A C -1.6455(10) -0.3043(3) 1.0623(3)
C19A C -1.9381(10) -0.3868(3) 1.0332(3)
H10A H -1.8014 -0.4238 0.9152
H11A H -1.8586 -0.3441 0.8577
H12A H -1.3158 -0.4350 0.9118
H13A H -1.4668 -0.4997 0.8945
H14A H -1.2746 -0.4596 0.8371
H15A H -1.5768 -0.4288 0.7339
H16A H -1.7599 -0.4687 0.7950
H17A H -1.7981 -0.3839 0.7451
N3A N -1.5744(12) -0.2751(4) 1.1050(3)
N4A N -2.1009(9) -0.4221(3) 1.0529(3)
Hg2 Hg 0.0000 1.0000 0.0000
S2 S 0.1885(2) 1.12027(7) -0.00046(9)
C20 C 0.3687(7) 0.8565(2) 0.2369(2)
N5 N 0.1358(6) 0.9344(2) 0.13703(19)
C21 C 0.5613(7) 0.8026(2) 0.2565(2)
H18 H 0.6185 0.7827 0.2183
C22 C 1.2359(7) 0.6245(2) 0.3860(2)
H19 H 1.3005 0.5760 0.4153
H20 H 1.3596 0.6552 0.3574
N6 N 0.6263(7) 1.0636(3) 0.0484(2)
C23 C 0.8885(8) 0.5482(3) 0.3721(3)
H21 H 0.8189 0.5642 0.4129
H22 H 0.9656 0.5000 0.3926
H23 H 0.7723 0.5423 0.3371
C24 C 0.3100(7) 0.8865(3) 0.1613(2)
H24 H 0.3979 0.8721 0.1250
C25 C 1.1373(7) 0.6656(2) 0.4398(2)
C26 C 0.6611(7) 0.7797(2) 0.3246(2)
H25 H 0.6049 0.8007 0.3621
C27 C 0.9383(7) 0.6842(3) 0.2911(2)
H26 H 1.0434 0.7178 0.2560
H27 H 0.8116 0.6730 0.2617
C28 C 0.0559(8) 0.9282(3) 0.2661(2)
H28 H -0.0351 0.9436 0.3011
C29 C 0.2360(7) 0.8788(2) 0.2901(2)
H29 H 0.2690 0.8604 0.3418
C30 C 1.1853(8) 0.5790(3) 0.2703(3)
H30 H 1.0770 0.5734 0.2328
H31 H 1.2541 0.5301 0.2943
H32 H 1.3021 0.6149 0.2461
C31 C 1.0620(7) 0.6090(3) 0.3304(2)
C32 C 0.0118(8) 0.9546(3) 0.1891(3)
H33 H -0.1106 0.9881 0.1730
C33 C 0.9436(8) 0.7140(2) 0.4158(2)
H34 H 0.8802 0.7389 0.4492
N7 N 1.6017(9) 0.5778(3) 0.5532(3)
C34 C 1.2352(8) 0.6578(3) 0.5088(3)
C35 C 0.4468(8) 1.0857(3) 0.0286(3)
C36 C 0.8481(7) 0.7253(2) 0.3461(2)
N8 N 1.0753(13) 0.7252(4) 0.6045(3)
C37 C 1.4383(10) 0.6130(3) 0.5333(3)
C38 C 1.1437(10) 0.6954(3) 0.5622(3)
S2A S -0.1885(2) 0.87973(7) 0.00046(9)
C20A C -0.3687(7) 1.1435(2) -0.2369(2)
N5A N -0.1358(6) 1.0656(2) -0.13703(19)
C21A C -0.5613(7) 1.1974(2) -0.2565(2)
H18A H -0.6185 1.2173 -0.2183
C22A C -1.2359(7) 1.3755(2) -0.3860(2)
H19A H -1.3005 1.4240 -0.4153
H20A H -1.3596 1.3448 -0.3574
C23A C -0.8885(8) 1.4518(3) -0.3721(3)
H21A H -0.8189 1.4358 -0.4129
H22A H -0.9656 1.5000 -0.3926
H23A H -0.7723 1.4577 -0.3371
C24A C -0.3100(7) 1.1135(3) -0.1613(2)
H24A H -0.3979 1.1279 -0.1250
C25A C -1.1373(7) 1.3344(2) -0.4398(2)
C26A C -0.6611(7) 1.2203(2) -0.3246(2)
H25A H -0.6049 1.1993 -0.3621
C27A C -0.9383(7) 1.3158(3) -0.2911(2)
H26A H -1.0434 1.2822 -0.2560
H27A H -0.8116 1.3270 -0.2617
C28A C -0.0559(8) 1.0718(3) -0.2661(2)
H28A H 0.0351 1.0564 -0.3011
C29A C -0.2360(7) 1.1212(2) -0.2901(2)
H29A H -0.2690 1.1396 -0.3418
C30A C -1.1853(8) 1.4210(3) -0.2703(3)
H30A H -1.0770 1.4266 -0.2328
H31A H -1.2541 1.4699 -0.2943
H32A H -1.3021 1.3851 -0.2461
C31A C -1.0620(7) 1.3910(3) -0.3304(2)
C32A C -0.0118(8) 1.0454(3) -0.1891(3)
H33A H 0.1106 1.0119 -0.1730
C33A C -0.9436(8) 1.2860(2) -0.4158(2)
H34A H -0.8802 1.2611 -0.4492
N7A N -1.6017(9) 1.4222(3) -0.5532(3)
C34A C -1.2352(8) 1.3422(3) -0.5088(3)
C36A C -0.8481(7) 1.2747(2) -0.3461(2)
N8A N -1.0753(13) 1.2748(4) -0.6045(3)
C37A C -1.4383(10) 1.3870(3) -0.5333(3)
C38A C -1.1437(10) 1.3046(3) -0.5622(3)
Hg2_2 Hg -1.0000 1.0000 0.0000
Hg2_3 Hg 1.0000 1.0000 0.0000
N6_2 N -0.3737(7) 1.0636(3) 0.0484(2)
N6A N 0.3737(7) 0.9364(3) -0.0484(2)
C35_2 C -0.5532(8) 1.0857(3) 0.0286(3)
S2_2 S -0.8115(2) 1.12027(7) -0.00046(9)
loop_
_geom_bond_atom_site_label_1
_geom_bond_atom_site_label_2
_geom_bond_site_symmetry_1
_geom_bond_site_symmetry_2
Hg1 S1 1_555 1_555
S1 C1 1_555 1_555
N1 Hg1 1_555 1_555
N2 Hg1 1_555 1_555
C1 N2A_2 1_555 1_555
C2 N1 1_555 1_555
C3 N1 1_555 1_555
C4 C2 1_555 1_555
H1 C2 1_555 1_555
C5 C3 1_555 1_555
H2 C3 1_555 1_555
C6 C4 1_555 1_555
C7 C4 1_555 1_555
H3 C5 1_555 1_555
H4 C6 1_555 1_555
C8 C7 1_555 1_555
H5 C7 1_555 1_555
H6 C8 1_555 1_555
C9 C8 1_555 1_555
C10 C9 1_555 1_555
C11 C9 1_555 1_555
C12 C10 1_555 1_555
H7 C10 1_555 1_555
H8 C11 1_555 1_555
H9 C11 1_555 1_555
C13 C11 1_555 1_555
C14 C12 1_555 1_555
C15 C12 1_555 1_555
C16 C13 1_555 1_555
C17 C13 1_555 1_555
C18 C14 1_555 1_555
C19 C14 1_555 1_555
H10 C15 1_555 1_555
H11 C15 1_555 1_555
H12 C16 1_555 1_555
H13 C16 1_555 1_555
H14 C16 1_555 1_555
H15 C17 1_555 1_555
H16 C17 1_555 1_555
H17 C17 1_555 1_555
N3 C18 1_555 1_555
N4 C19 1_555 1_555
Hg2 S2 1_555 1_555
S2 C35 1_555 1_555
C20 C21 1_555 1_555
N5 Hg2 1_555 1_555
C21 H18 1_555 1_555
C22 H19 1_555 1_555
H20 C22 1_555 1_555
N6 C35 1_555 1_555
C23 H21 1_555 1_555
H22 C23 1_555 1_555
H23 C23 1_555 1_555
C24 C20 1_555 1_555
H24 C24 1_555 1_555
C25 C22 1_555 1_555
C26 C21 1_555 1_555
H25 C26 1_555 1_555
C27 H26 1_555 1_555
H27 C27 1_555 1_555
C28 H28 1_555 1_555
C29 C20 1_555 1_555
H29 C29 1_555 1_555
C30 H30 1_555 1_555
H31 C30 1_555 1_555
H32 C30 1_555 1_555
C31 C22 1_555 1_555
C32 N5 1_555 1_555
H33 C32 1_555 1_555
C33 C25 1_555 1_555
H34 C33 1_555 1_555
N7 C37 1_555 1_555
C34 C25 1_555 1_555
C36 C26 1_555 1_555
N8 C38 1_555 1_555
C37 C34 1_555 1_555
C38 C34 1_555 1_555
N1A Hg1 1_555 1_555
S1A Hg1 1_555 1_555
N2A Hg1 1_555 1_555
C1A N2 1_555 1_555
C2A N1A 1_555 1_555
C3A N1A 1_555 1_555
N2A_2 Hg1_2 1_555 1_555
S1A_2 C1A 1_555 1_555
C4A C2A 1_555 1_555
H1A C2A 1_555 1_555
C5A C3A 1_555 1_555
H2A C3A 1_555 1_555
Hg1_2 S1A_2 1_555 1_555
C6A C4A 1_555 1_555
C7A C4A 1_555 1_555
H3A C5A 1_555 1_555
H4A C6A 1_555 1_555
C8A C7A 1_555 1_555
H5A C7A 1_555 1_555
H6A C8A 1_555 1_555
C9A C8A 1_555 1_555
C10A C9A 1_555 1_555
C11A C9A 1_555 1_555
C12A C10A 1_555 1_555
H7A C10A 1_555 1_555
H8A C11A 1_555 1_555
H9A C11A 1_555 1_555
C13A C11A 1_555 1_555
C14A C12A 1_555 1_555
C15A C12A 1_555 1_555
C16A C13A 1_555 1_555
C17A C13A 1_555 1_555
C18A C14A 1_555 1_555
C19A C14A 1_555 1_555
H10A C15A 1_555 1_555
H11A C15A 1_555 1_555
H12A C16A 1_555 1_555
H13A C16A 1_555 1_555
H14A C16A 1_555 1_555
H15A C17A 1_555 1_555
H16A C17A 1_555 1_555
H17A C17A 1_555 1_555
N3A C18A 1_555 1_555
N4A C19A 1_555 1_555
S2A Hg2 1_555 1_555
C20A C21A 1_555 1_555
N5A Hg2 1_555 1_555
C21A H18A 1_555 1_555
C22A H19A 1_555 1_555
H20A C22A 1_555 1_555
C23A H21A 1_555 1_555
H22A C23A 1_555 1_555
H23A C23A 1_555 1_555
C24A C20A 1_555 1_555
H24A C24A 1_555 1_555
C25A C22A 1_555 1_555
C26A C21A 1_555 1_555
H25A C26A 1_555 1_555
C27A H26A 1_555 1_555
H27A C27A 1_555 1_555
C28A H28A 1_555 1_555
C29A C20A 1_555 1_555
H29A C29A 1_555 1_555
C30A H30A 1_555 1_555
H31A C30A 1_555 1_555
H32A C30A 1_555 1_555
C31A C22A 1_555 1_555
C32A N5A 1_555 1_555
H33A C32A 1_555 1_555
C33A C25A 1_555 1_555
H34A C33A 1_555 1_555
N7A C37A 1_555 1_555
C34A C25A 1_555 1_555
C36A C26A 1_555 1_555
N8A C38A 1_555 1_555
C37A C34A 1_555 1_555
C38A C34A 1_555 1_555
Hg2_2 S2_2 1_555 1_555
Hg2_3 N6 1_555 1_555
N6_2 Hg2 1_555 1_555
N6A Hg2 1_555 1_555
C35_2 N6_2 1_555 1_555
S2_2 C35_2 1_555 1_555
C5 C6 1_555 1_555
C13 C15 1_555 1_555
N5 C24 1_555 1_555
C23 C31 1_555 1_555
C27 C31 1_555 1_555
C27 C36 1_555 1_555
C28 C29 1_555 1_555
C28 C32 1_555 1_555
C30 C31 1_555 1_555
C33 C36 1_555 1_555
C5A C6A 1_555 1_555
C13A C15A 1_555 1_555
N5A C24A 1_555 1_555
C23A C31A 1_555 1_555
C27A C31A 1_555 1_555
C27A C36A 1_555 1_555
C28A C29A 1_555 1_555
C28A C32A 1_555 1_555
C30A C31A 1_555 1_555
C33A C36A 1_555 1_555

#END
