
#######################################################################
#
#                 Cambridge Crystallographic Data Centre
#                                CCDC 
#
#######################################################################
#
# If this CIF has been generated from an entry in the Cambridge 
# Structural Database, then it will include bibliographic, chemical, 
# crystal, experimental, refinement or atomic coordinate data resulting 
# from the CCDC's data processing and validation procedures.
#
#######################################################################

data_CITGUJ
_symmetry_cell_setting           monoclinic
_symmetry_space_group_name_H-M   'P 21/c'
_symmetry_Int_Tables_number      14
_space_group_name_Hall           '-P 2ybc'
loop_
_symmetry_equiv_pos_site_id
_symmetry_equiv_pos_as_xyz
1 x,y,z
2 -x,1/2+y,1/2-z
3 -x,-y,-z
4 x,1/2-y,1/2+z
_cell_length_a                   12.6651(16)
_cell_length_b                   6.2232(8)
_cell_length_c                   21.107(3)
_cell_angle_alpha                90
_cell_angle_beta                 101.871(2)
_cell_angle_gamma                90
_cell_volume                     1628.02
loop_
_atom_site_label
_atom_site_type_symbol
_atom_site_fract_x
_atom_site_fract_y
_atom_site_fract_z
Cu1 Cu 0.0000 0.0000 0.0000
O1 O 0.0584(3) 0.0987(6) 0.08721(16)
N1 N 0.0688(3) 0.2519(6) -0.03314(18)
C1 C 0.1430(5) -0.0016(9) 0.1142(3)
O2 O 0.1852(3) -0.1487(7) 0.08935(19)
N2 N 0.0505(4) 0.3130(7) -0.0968(2)
C2 C 0.1381(4) 0.3846(8) 0.0012(2)
H1 H 0.1638 0.3773 0.0457
O3 O 0.0865(5) 0.6038(9) 0.2655(3)
N3 N 0.1655(3) 0.5312(6) -0.0382(2)
C3 C 0.1094(4) 0.4839(8) -0.0979(3)
H2 H 0.1124 0.5627 -0.1350
O4 O 0.2195(5) 0.5943(11) 0.3442(3)
N4 N 0.2435(3) 0.6915(6) -0.0199(2)
H3 H 0.2311 0.8033 0.0014
C4 C 0.3405(4) 0.6608(8) -0.0377(2)
O5 O 0.5146(4) 0.1017(11) 0.3401(2)
N5 N 0.1696(5) 0.5250(8) 0.2941(3)
C5 C 0.4267(5) 0.8221(9) -0.0081(3)
H4 H 0.4667 0.7462 0.0301
O6 O 0.4711(5) -0.1993(12) 0.2907(2)
N6 N 0.4537(5) -0.0136(12) 0.3031(2)
C6 C 0.3965(5) 1.0164(11) 0.0182(4)
H5 H 0.3535 0.9822 0.0500
H6 H 0.3512 1.0979 -0.0161
O7 O 0.3542(3) 0.5166(5) -0.0724(2)
C7 C 0.5085(4) 0.8416(10) -0.0505(3)
H7 H 0.4744 0.9034 -0.0919
H8 H 0.5349 0.6998 -0.0585
C8 C 0.1983(4) 0.0780(8) 0.1810(2)
C9 C 0.1564(4) 0.2527(9) 0.2080(2)
H9 H 0.0914 0.3140 0.1875
C10 C 0.2131(4) 0.3348(8) 0.2660(2)
C11 C 0.3099(5) 0.2525(9) 0.2985(2)
H10 H 0.3475 0.3117 0.3370
C12 C 0.3478(4) 0.0758(10) 0.2701(2)
C13 C 0.2953(4) -0.0138(8) 0.2132(2)
H11 H 0.3235 -0.1335 0.1962
N1B N 0.9312(3) 1.7481(6) 0.03314(18)
N2B N 0.9495(4) 1.6870(7) 0.0968(2)
C2B C 0.8619(4) 1.6154(8) -0.0012(2)
H1B H 0.8362 1.6227 -0.0457
N3B N 0.8345(3) 1.4688(6) 0.0382(2)
C3B C 0.8906(4) 1.5161(8) 0.0979(3)
H2B H 0.8876 1.4373 0.1350
N4B N 0.7565(3) 1.3085(6) 0.0199(2)
H3B H 0.7689 1.1967 -0.0014
C4B C 0.6595(4) 1.3392(8) 0.0377(2)
C5B C 0.5733(5) 1.1779(9) 0.0081(3)
H4B H 0.5333 1.2538 -0.0301
C6B C 0.6035(5) 0.9836(11) -0.0182(4)
H5B H 0.6465 1.0178 -0.0500
H6B H 0.6488 0.9021 0.0161
O7B O 0.6458(3) 1.4834(5) 0.0724(2)
C7B C 0.4915(4) 1.1584(10) 0.0505(3)
H7B H 0.5256 1.0966 0.0919
H8B H 0.4651 1.3002 0.0585
O1B O -0.0584(3) -0.0987(6) -0.08721(16)
C1B C -0.1430(5) 0.0016(9) -0.1142(3)
O2B O -0.1852(3) 0.1487(7) -0.08935(19)
O3B O -0.0865(5) -0.6038(9) -0.2655(3)
O4B O -0.2195(5) -0.5943(11) -0.3442(3)
O5B O -0.5146(4) -0.1017(11) -0.3401(2)
N5B N -0.1696(5) -0.5250(8) -0.2941(3)
O6B O -0.4711(5) 0.1993(12) -0.2907(2)
N6B N -0.4537(5) 0.0136(12) -0.3031(2)
C8B C -0.1983(4) -0.0780(8) -0.1810(2)
C9B C -0.1564(4) -0.2527(9) -0.2080(2)
H9B H -0.0914 -0.3140 -0.1875
C10B C -0.2131(4) -0.3348(8) -0.2660(2)
C11B C -0.3099(5) -0.2525(9) -0.2985(2)
H10B H -0.3475 -0.3117 -0.3370
C12B C -0.3478(4) -0.0758(10) -0.2701(2)
C13B C -0.2953(4) 0.0138(8) -0.2132(2)
H11B H -0.3235 0.1335 -0.1962
Cu1_2 Cu 1.0000 2.0000 0.0000
N1B_2 N -0.0688(3) -0.2519(6) 0.03314(18)
loop_
_geom_bond_atom_site_label_1
_geom_bond_atom_site_label_2
_geom_bond_site_symmetry_1
_geom_bond_site_symmetry_2
Cu1 O1 1_555 1_555
O1 C1 1_555 1_555
N1 Cu1 1_555 1_555
C1 O2 1_555 1_555
N2 N1 1_555 1_555
C2 N1 1_555 1_555
H1 C2 1_555 1_555
O3 N5 1_555 1_555
N3 C2 1_555 1_555
C3 N2 1_555 1_555
H2 C3 1_555 1_555
O4 N5 1_555 1_555
N4 N3 1_555 1_555
H3 N4 1_555 1_555
C4 N4 1_555 1_555
O5 N6 1_555 1_555
N5 C10 1_555 1_555
C5 C4 1_555 1_555
H4 C5 1_555 1_555
O6 N6 1_555 1_555
N6 C12 1_555 1_555
C6 C5 1_555 1_555
H5 C6 1_555 1_555
H6 C6 1_555 1_555
O7 C4 1_555 1_555
C7 C5 1_555 1_555
H7 C7 1_555 1_555
H8 C7 1_555 1_555
C8 C1 1_555 1_555
C9 C8 1_555 1_555
H9 C9 1_555 1_555
C10 C9 1_555 1_555
C11 C10 1_555 1_555
H10 C11 1_555 1_555
C12 C11 1_555 1_555
C13 C8 1_555 1_555
H11 C13 1_555 1_555
N1B N2B 1_555 1_555
N2B C3B 1_555 1_555
C2B N1B 1_555 1_555
H1B C2B 1_555 1_555
N3B C2B 1_555 1_555
C3B N3B 1_555 1_555
H2B C3B 1_555 1_555
N4B N3B 1_555 1_555
H3B N4B 1_555 1_555
C4B N4B 1_555 1_555
C5B C4B 1_555 1_555
H4B C5B 1_555 1_555
C6B C7 1_555 1_555
H5B C6B 1_555 1_555
H6B C6B 1_555 1_555
O7B C4B 1_555 1_555
C7B C6 1_555 1_555
H7B C7B 1_555 1_555
H8B C7B 1_555 1_555
O1B Cu1 1_555 1_555
C1B O1B 1_555 1_555
O2B C1B 1_555 1_555
O3B N5B 1_555 1_555
O4B N5B 1_555 1_555
O5B N6B 1_555 1_555
N5B C10B 1_555 1_555
O6B N6B 1_555 1_555
N6B C12B 1_555 1_555
C8B C1B 1_555 1_555
C9B C8B 1_555 1_555
H9B C9B 1_555 1_555
C10B C9B 1_555 1_555
C11B C10B 1_555 1_555
H10B C11B 1_555 1_555
C12B C11B 1_555 1_555
C13B C8B 1_555 1_555
H11B C13B 1_555 1_555
Cu1_2 N1B 1_555 1_555
N1B_2 Cu1 1_555 1_555
N3 C3 1_555 1_555
C12 C13 1_555 1_555
C5B C6B 1_555 1_555
C5B C7B 1_555 1_555
C12B C13B 1_555 1_555

#END
