
#######################################################################
#
#                 Cambridge Crystallographic Data Centre
#                                CCDC 
#
#######################################################################
#
# If this CIF has been generated from an entry in the Cambridge 
# Structural Database, then it will include bibliographic, chemical, 
# crystal, experimental, refinement or atomic coordinate data resulting 
# from the CCDC's data processing and validation procedures.
#
#######################################################################

data_CITGIX
_symmetry_cell_setting           monoclinic
_symmetry_space_group_name_H-M   'P 21/c'
_symmetry_Int_Tables_number      14
_space_group_name_Hall           '-P 2ybc'
loop_
_symmetry_equiv_pos_site_id
_symmetry_equiv_pos_as_xyz
1 x,y,z
2 -x,1/2+y,1/2-z
3 -x,-y,-z
4 x,1/2-y,1/2+z
_cell_length_a                   21.836(5)
_cell_length_b                   5.844(5)
_cell_length_c                   18.266(5)
_cell_angle_alpha                90
_cell_angle_beta                 109.733(5)
_cell_angle_gamma                90
_cell_volume                     2194.04
loop_
_atom_site_label
_atom_site_type_symbol
_atom_site_fract_x
_atom_site_fract_y
_atom_site_fract_z
Hg1 Hg 0.413822(6) 0.090262(19) 0.797618(7)
S1 S 0.51484(4) 0.30531(14) 0.82988(6)
S2 S 0.31366(5) -0.08513(15) 0.71556(7)
C1 C 0.13508(16) 1.2491(6) 1.10619(18)
N1 N 0.37786(13) 0.1880(5) 0.90405(14)
C2 C 0.14180(15) 1.1618(6) 1.04020(18)
C3 C 0.09584(19) 1.4484(7) 1.1044(2)
C4 C 0.18441(16) 0.9717(6) 1.04430(18)
H1 H 0.2060 0.9069 1.0927
C5 C 0.0672(2) 1.2163(7) 0.8182(2)
H2 H 0.0612 1.1101 0.7762
H3 H 0.0972 1.3335 0.8156
H4 H 0.0261 1.2846 0.8139
C6 C 0.15886(16) 0.9743(7) 0.90135(18)
H5 H 0.1502 0.8497 0.8641
H6 H 0.1863 1.0844 0.8874
C7 C 0.10737(16) 1.2634(5) 0.96203(17)
H7 H 0.1335 1.3874 0.9530
H8 H 0.0663 1.3276 0.9617
C8 C 0.48567(15) 0.5479(5) 0.85404(19)
C9 C 0.04462(18) 0.9131(6) 0.9011(2)
H9 H 0.0041 0.9879 0.8955
H10 H 0.0604 0.8381 0.9507
H11 H 0.0380 0.8020 0.8604
C10 C 0.24193(15) 0.7007(6) 0.99264(18)
H12 H 0.2601 0.6450 1.0431
C11 C 0.33144(16) 0.2953(6) 1.02238(18)
H13 H 0.3165 0.3311 1.0630
C12 C 0.33429(15) 0.3556(6) 0.89568(18)
H14 H 0.3198 0.4344 0.8487
C13 C 0.30963(15) 0.4178(5) 0.95323(17)
C14 C 0.26238(15) 0.6040(5) 0.93836(19)
H15 H 0.2453 0.6593 0.8878
C15 C 0.19467(15) 0.8824(5) 0.98101(18)
N2 N 0.46757(15) 0.7169(5) 0.87077(17)
C16 C 0.37533(19) 0.1206(6) 1.0301(2)
H16 H 0.3896 0.0350 1.0756
C17 C 0.09418(16) 1.0898(5) 0.89573(18)
C18 C 0.1681(2) 1.1543(8) 1.1817(2)
N3 N 0.0662(2) 1.6080(7) 1.1038(2)
N4 N 0.1938(2) 1.0782(9) 1.2414(2)
C19 C 0.39797(17) 0.0731(6) 0.9704(2)
H17 H 0.4284 -0.0433 0.9766
C20 C 0.33734(16) -0.3527(5) 0.71226(17)
N5 N 0.35056(17) -0.5401(5) 0.70704(19)
Hg1_2 Hg 0.413822(6) -0.909738(19) 0.797618(7)
Hg1_3 Hg 0.413822(6) 1.090262(19) 0.797618(7)
N2_2 N 0.46757(15) -0.2831(5) 0.87077(17)
N5_2 N 0.35056(17) 0.4599(5) 0.70704(19)
loop_
_geom_bond_atom_site_label_1
_geom_bond_atom_site_label_2
_geom_bond_site_symmetry_1
_geom_bond_site_symmetry_2
Hg1 S1 1_555 1_555
S1 C8 1_555 1_555
S2 Hg1 1_555 1_555
C1 C2 1_555 1_555
N1 Hg1 1_555 1_555
C2 C4 1_555 1_555
C3 C1 1_555 1_555
C4 H1 1_555 1_555
C5 H2 1_555 1_555
H3 C5 1_555 1_555
H4 C5 1_555 1_555
C6 H5 1_555 1_555
H6 C6 1_555 1_555
C7 C2 1_555 1_555
H7 C7 1_555 1_555
H8 C7 1_555 1_555
C8 N2 1_555 1_555
C9 H9 1_555 1_555
H10 C9 1_555 1_555
H11 C9 1_555 1_555
C10 H12 1_555 1_555
C11 H13 1_555 1_555
C12 N1 1_555 1_555
H14 C12 1_555 1_555
C13 C11 1_555 1_555
C14 C10 1_555 1_555
H15 C14 1_555 1_555
C15 C4 1_555 1_555
N2 Hg1_3 1_555 1_555
C16 C11 1_555 1_555
H16 C16 1_555 1_555
C17 C5 1_555 1_555
C18 C1 1_555 1_555
N3 C3 1_555 1_555
N4 C18 1_555 1_555
C19 N1 1_555 1_555
H17 C19 1_555 1_555
C20 S2 1_555 1_555
N5 C20 1_555 1_555
Hg1_2 N5 1_555 1_555
N2_2 Hg1 1_555 1_555
N5_2 Hg1 1_555 1_555
C6 C15 1_555 1_555
C6 C17 1_555 1_555
C7 C17 1_555 1_555
C9 C17 1_555 1_555
C10 C15 1_555 1_555
C12 C13 1_555 1_555
C13 C14 1_555 1_555
C16 C19 1_555 1_555

#END
