
#######################################################################
#
#                 Cambridge Crystallographic Data Centre
#                                CCDC 
#
#######################################################################
#
# If this CIF has been generated from an entry in the Cambridge 
# Structural Database, then it will include bibliographic, chemical, 
# crystal, experimental, refinement or atomic coordinate data resulting 
# from the CCDC's data processing and validation procedures.
#
#######################################################################

data_CITHOD
_symmetry_cell_setting           triclinic
_symmetry_space_group_name_H-M   'P -1'
_symmetry_Int_Tables_number      2
_space_group_name_Hall           '-P 1'
loop_
_symmetry_equiv_pos_site_id
_symmetry_equiv_pos_as_xyz
1 x,y,z
2 -x,-y,-z
_cell_length_a                   9.4097(6)
_cell_length_b                   10.4414(7)
_cell_length_c                   12.2651(4)
_cell_angle_alpha                99.259(5)
_cell_angle_beta                 90.292(4)
_cell_angle_gamma                93.124(5)
_cell_volume                     1187.47
loop_
_atom_site_label
_atom_site_type_symbol
_atom_site_fract_x
_atom_site_fract_y
_atom_site_fract_z
Cd1 Cd 0.747550(14) 0.360955(12) 0.032994(12)
S1 S 0.80884(7) 0.41168(7) -0.16706(5)
S2 S 0.71551(7) 0.59417(5) 0.14566(5)
O1 O 0.65444(17) 0.26584(13) 0.18226(12)
N1 N 1.0196(2) 0.6091(2) -0.10243(17)
N2 N 0.4876(2) 0.66373(18) 0.02564(19)
N5 N 0.76529(19) 0.13616(15) -0.00220(15)
N6 N 0.5743(3) 0.0845(2) 0.2400(2)
C1 C 0.9329(2) 0.5277(2) -0.12749(16)
C2 C 0.5800(2) 0.63221(17) 0.07485(18)
C5 C 0.7094(2) 0.06646(18) 0.07116(16)
C6 C 0.7134(3) -0.0667(2) 0.0565(2)
H1 H 0.6734 -0.1134 0.1083
C7 C 0.7774(4) -0.1298(2) -0.0358(3)
H2 H 0.7819 -0.2197 -0.0467
C8 C 0.8341(4) -0.0597(3) -0.1109(3)
H3 H 0.8776 -0.1007 -0.1740
C9 C 0.8256(3) 0.0735(2) -0.0914(2)
H4 H 0.8637 0.1215 -0.1430
C10 C 0.6439(2) 0.14590(18) 0.16949(16)
H9 H 0.536(3) 0.127(3) 0.290(3)
H10 H 0.563(3) 0.004(3) 0.226(2)
Cd1A Cd 1.252450(14) 0.639045(12) -0.032994(12)
Cd1A_2 Cd 0.252450(14) 0.639045(12) -0.032994(12)
N1A N 0.9804(2) 0.3909(2) 0.10243(17)
N2A N 0.5124(2) 0.33627(18) -0.02564(19)
Cd2 Cd 0.747079(15) 0.840433(13) 0.471672(12)
S3 S 0.51047(6) 0.79046(5) 0.33112(4)
S4 S 0.89942(7) 0.88476(6) 0.30252(5)
O2 O 0.60591(17) 0.74903(14) 0.60256(13)
N3 N 0.3330(2) 0.96300(18) 0.45615(19)
N4 N 1.0600(2) 1.10549(19) 0.40452(16)
N7 N 0.78681(17) 0.61828(15) 0.46091(13)
N8 N 0.5490(3) 0.5755(2) 0.6814(2)
C3 C 0.4058(2) 0.89185(18) 0.40557(18)
C4 C 0.9927(2) 1.0145(2) 0.36496(16)
C11 C 0.71689(19) 0.55303(18) 0.53202(15)
C12 C 0.7324(2) 0.4225(2) 0.53193(19)
H5 H 0.6843 0.3795 0.5827
C13 C 0.8205(3) 0.3565(2) 0.4552(2)
H6 H 0.8314 0.2681 0.4531
C14 C 0.8914(2) 0.4222(2) 0.38244(18)
H7 H 0.9512 0.3797 0.3301
C15 C 0.8724(2) 0.5538(2) 0.38841(16)
H8 H 0.9215 0.5989 0.3396
C16 C 0.6204(2) 0.63299(19) 0.60947(16)
H11 H 0.492(3) 0.615(3) 0.726(3)
H12 H 0.569(4) 0.508(4) 0.692(3)
Cd2A Cd 0.252921(15) 1.159567(13) 0.528328(12)
Cd2A_2 Cd 1.252921(15) 1.159567(13) 0.528328(12)
N3A N 0.6670(2) 1.03700(18) 0.54385(19)
N4A N 0.9400(2) 0.89451(19) 0.59548(16)
loop_
_geom_bond_atom_site_label_1
_geom_bond_atom_site_label_2
_geom_bond_site_symmetry_1
_geom_bond_site_symmetry_2
Cd1 S1 1_555 1_555
Cd2 S3 1_555 1_555
S1 C1 1_555 1_555
S2 Cd1 1_555 1_555
S3 C3 1_555 1_555
S4 Cd2 1_555 1_555
O1 Cd1 1_555 1_555
O2 Cd2 1_555 1_555
N1 C1 1_555 1_555
N2 C2 1_555 1_555
N3 C3 1_555 1_555
N4 C4 1_555 1_555
N5 Cd1 1_555 1_555
N6 C10 1_555 1_555
N7 Cd2 1_555 1_555
N8 C16 1_555 1_555
C2 S2 1_555 1_555
C4 S4 1_555 1_555
C5 N5 1_555 1_555
C6 C5 1_555 1_555
H1 C6 1_555 1_555
C7 C6 1_555 1_555
H2 C7 1_555 1_555
C8 C7 1_555 1_555
H3 C8 1_555 1_555
C9 N5 1_555 1_555
H4 C9 1_555 1_555
C10 O1 1_555 1_555
C11 N7 1_555 1_555
C12 C11 1_555 1_555
H5 C12 1_555 1_555
C13 C12 1_555 1_555
H6 C13 1_555 1_555
C14 C13 1_555 1_555
H7 C14 1_555 1_555
C15 N7 1_555 1_555
H8 C15 1_555 1_555
C16 O2 1_555 1_555
H9 N6 1_555 1_555
H10 N6 1_555 1_555
H11 N8 1_555 1_555
H12 N8 1_555 1_555
Cd1A N1 1_555 1_555
Cd1A_2 N2 1_555 1_555
Cd2A N3 1_555 1_555
Cd2A_2 N4 1_555 1_555
N1A Cd1 1_555 1_555
N2A Cd1 1_555 1_555
N3A Cd2 1_555 1_555
N4A Cd2 1_555 1_555
C5 C10 1_555 1_555
C8 C9 1_555 1_555
C11 C16 1_555 1_555
C14 C15 1_555 1_555

#END
