
#######################################################################
#
#                 Cambridge Crystallographic Data Centre
#                                CCDC 
#
#######################################################################
#
# If this CIF has been generated from an entry in the Cambridge 
# Structural Database, then it will include bibliographic, chemical, 
# crystal, experimental, refinement or atomic coordinate data resulting 
# from the CCDC's data processing and validation procedures.
#
#######################################################################

data_CITJEV
_symmetry_cell_setting           monoclinic
_symmetry_space_group_name_H-M   'P 21/c'
_symmetry_Int_Tables_number      14
_space_group_name_Hall           '-P 2ybc'
loop_
_symmetry_equiv_pos_site_id
_symmetry_equiv_pos_as_xyz
1 x,y,z
2 -x,1/2+y,1/2-z
3 -x,-y,-z
4 x,1/2-y,1/2+z
_cell_length_a                   10.685(2)
_cell_length_b                   19.399(4)
_cell_length_c                   10.733(2)
_cell_angle_alpha                90
_cell_angle_beta                 100.880(4)
_cell_angle_gamma                90
_cell_volume                     2184.73
loop_
_atom_site_label
_atom_site_type_symbol
_atom_site_fract_x
_atom_site_fract_y
_atom_site_fract_z
W1 W 0.078013(18) 0.118187(9) 0.198219(14)
Cu1 Cu 0.24435(6) 0.19882(3) 0.10511(5)
Cu2 Cu 0.21470(6) 0.16337(3) 0.41920(5)
Cu3 Cu -0.06593(7) 0.04966(3) 0.33134(6)
S1 S 0.02776(14) 0.18602(7) 0.03440(11)
S2 S 0.29168(13) 0.11271(6) 0.25400(10)
S3 S -0.00464(12) 0.16070(6) 0.36036(10)
S4 S -0.00167(15) 0.01455(6) 0.15518(11)
S5 S 0.34295(11) 0.22937(5) -0.05732(9)
S6 S 0.25259(13) 0.09143(6) -0.17600(9)
S7 S 0.19029(14) 0.01119(6) -0.42869(11)
N1 N 0.2787(4) 0.19844(17) -0.3064(3)
N2 N 0.2463(4) 0.14446(18) -0.3925(3)
C1 C 0.2890(4) 0.1781(2) -0.1892(4)
C2 C 0.2288(4) 0.0854(2) -0.3403(4)
Cu1C Cu 0.24435(6) 0.30118(3) -0.39489(5)
Cu2C Cu 0.21470(6) 0.33663(3) -0.08080(5)
Cu2_2 Cu 0.21470(6) 0.16337(3) -0.58080(5)
Cu3B Cu 0.06593(7) -0.04966(3) -0.33134(6)
S5C S 0.34295(11) 0.27063(5) 0.44268(9)
S7B S -0.19029(14) -0.01119(6) 0.42869(11)
N1C N 0.2787(4) 0.30156(17) 0.1936(3)
N2_2 N 0.2463(4) 0.14446(18) 0.6075(3)
N3 N -0.6951(4) -0.1490(2) 0.2686(4)
C3 C -0.6994(8) -0.2171(4) 0.2028(8)
H1 H -0.7859 -0.2240 0.1570
H2 H -0.6452 -0.2139 0.1400
C4 C -0.6625(11) -0.2785(5) 0.2774(12)
H3 H -0.6697 -0.3180 0.2225
H4 H -0.7173 -0.2843 0.3379
H5 H -0.5759 -0.2740 0.3214
C5 C -0.5660(8) -0.1357(5) 0.3441(9)
H6 H -0.5053 -0.1405 0.2879
H7 H -0.5473 -0.1717 0.4076
C6 C -0.5413(8) -0.0674(5) 0.4111(10)
H8 H -0.4545 -0.0657 0.4556
H9 H -0.5976 -0.0622 0.4704
H10 H -0.5560 -0.0307 0.3499
C7 C -0.7354(8) -0.0957(5) 0.1679(8)
H11 H -0.8174 -0.1095 0.1189
H12 H -0.7481 -0.0526 0.2095
C8 C -0.6468(10) -0.0823(6) 0.0768(10)
H13 H -0.6820 -0.0468 0.0181
H14 H -0.6366 -0.1237 0.0310
H15 H -0.5654 -0.0677 0.1232
C9 C -0.7897(9) -0.1471(5) 0.3589(8)
H16 H -0.7620 -0.1809 0.4250
H17 H -0.7826 -0.1022 0.3995
C10 C -0.9234(7) -0.1594(4) 0.3096(6)
H18 H -0.9705 -0.1557 0.3771
H19 H -0.9341 -0.2048 0.2736
H20 H -0.9543 -0.1259 0.2453
loop_
_geom_bond_atom_site_label_1
_geom_bond_atom_site_label_2
_geom_bond_site_symmetry_1
_geom_bond_site_symmetry_2
W1 S1 1_555 1_555
Cu1 S1 1_555 1_555
Cu2 S2 1_555 1_555
Cu3 S3 1_555 1_555
S2 W1 1_555 1_555
S3 W1 1_555 1_555
S4 W1 1_555 1_555
S5 Cu1 1_555 1_555
S6 C1 1_555 1_555
S7 C2 1_555 1_555
N1 N2 1_555 1_555
N2 C2 1_555 1_555
N3 C3 1_555 1_555
C1 S5 1_555 1_555
C2 S6 1_555 1_555
C3 H1 1_555 1_555
H2 C3 1_555 1_555
C4 C3 1_555 1_555
H3 C4 1_555 1_555
H4 C4 1_555 1_555
H5 C4 1_555 1_555
C5 N3 1_555 1_555
H6 C5 1_555 1_555
H7 C5 1_555 1_555
C6 C5 1_555 1_555
H8 C6 1_555 1_555
H9 C6 1_555 1_555
H10 C6 1_555 1_555
C7 N3 1_555 1_555
H11 C7 1_555 1_555
H12 C7 1_555 1_555
C8 C7 1_555 1_555
H13 C8 1_555 1_555
H14 C8 1_555 1_555
H15 C8 1_555 1_555
C9 N3 1_555 1_555
H16 C9 1_555 1_555
H17 C9 1_555 1_555
C10 C9 1_555 1_555
H18 C10 1_555 1_555
H19 C10 1_555 1_555
H20 C10 1_555 1_555
Cu1C N1 1_555 1_555
Cu2C S5 1_555 1_555
Cu2_2 N2 1_555 1_555
Cu3B S7 1_555 1_555
S5C Cu2 1_555 1_555
S7B Cu3 1_555 1_555
N1C Cu1 1_555 1_555
N2_2 Cu2 1_555 1_555
Cu1 S2 1_555 1_555
Cu2 S3 1_555 1_555
Cu3 S4 1_555 1_555
N1 C1 1_555 1_555

#END
