
#######################################################################
#
#                 Cambridge Crystallographic Data Centre
#                                CCDC 
#
#######################################################################
#
# If this CIF has been generated from an entry in the Cambridge 
# Structural Database, then it will include bibliographic, chemical, 
# crystal, experimental, refinement or atomic coordinate data resulting 
# from the CCDC's data processing and validation procedures.
#
#######################################################################

data_CITKIZ
_symmetry_cell_setting           monoclinic
_symmetry_space_group_name_H-M   'P 21/n'
_symmetry_Int_Tables_number      14
_space_group_name_Hall           '-P 2yn'
loop_
_symmetry_equiv_pos_site_id
_symmetry_equiv_pos_as_xyz
1 x,y,z
2 1/2-x,1/2+y,1/2-z
3 -x,-y,-z
4 1/2+x,1/2-y,1/2+z
_cell_length_a                   10.467(1)
_cell_length_b                   8.135(3)
_cell_length_c                   28.079(2)
_cell_angle_alpha                90
_cell_angle_beta                 96.497(7)
_cell_angle_gamma                90
_cell_volume                     2375.55
loop_
_atom_site_label
_atom_site_type_symbol
_atom_site_fract_x
_atom_site_fract_y
_atom_site_fract_z
Zn1 Zn 0.24638(7) 0.06157(8) 0.25021(13)
O1 O 0.1025(4) -0.0310(5) 0.2865(2)
O2 O 0.1671(3) 0.2983(4) 0.2419(1)
O3 O 0.1557(5) -0.0257(5) 0.1873(1)
Cl1 Cl 0.5638(3) 0.3131(3) 0.0325(1)
Cl2 Cl 0.7377(2) 0.1456(3) 0.2456(1)
Cl3 Cl 0.7477(3) 0.3534(5) 0.4634(1)
Cl4 Cl 0.2131(2) 0.0277(3) 0.4211(1)
O4 O 0.4018(4) 0.1374(5) 0.2154(1)
O5 O 0.3462(4) 0.1409(5) 0.3150(1)
O6 O 0.4848(4) -0.1017(5) 0.1963(2)
O7 O 0.4299(4) -0.0960(5) 0.3434(1)
O8 O 0.4139(4) 0.1227(6) 0.0969(2)
O9 O 0.6398(5) 0.2056(6) 0.3695(2)
C1 C 0.5686(6) 0.1411(7) 0.1659(2)
C2 C 0.4425(6) 0.1299(8) 0.3951(2)
C3 C 0.5321(7) 0.1749(8) 0.1177(2)
C4 C 0.5595(7) 0.2061(8) 0.4045(2)
C5 C 0.6124(8) 0.2656(9) 0.0922(3)
C6 C 0.5957(8) 0.2710(11) 0.4504(3)
C7 C 0.7293(9) 0.3195(10) 0.1136(4)
C8 C 0.5145(11) 0.2633(12) 0.4853(3)
C9 C 0.7682(8) 0.2827(10) 0.1604(4)
C10 C 0.3956(10) 0.1924(11) 0.4763(3)
C11 C 0.6883(7) 0.1961(9) 0.1870(3)
C12 C 0.3630(7) 0.1218(9) 0.4319(2)
C13 C 0.4771(6) 0.0509(9) 0.1948(2)
C14 C 0.4047(6) 0.0505(8) 0.3472(2)
C15 C 0.4153(8) -0.0332(11) 0.0731(3)
C16 C 0.6585(8) 0.3485(12) 0.3469(3)
H1 H 0.050 0.013 0.307
H2 H 0.098 -0.168 0.284
H3 H 0.125 0.322 0.215
H4 H 0.097 0.321 0.261
H5 H 0.147 0.023 0.161
H6 H 0.150 -0.135 0.184
H7 H 0.790 0.388 0.094
H8 H 0.871 0.332 0.185
H9 H 0.470 -0.022 0.047
H10 H 0.448 -0.111 0.088
H11 H 0.330 -0.057 0.057
H12 H 0.536 0.336 0.520
H13 H 0.390 0.186 0.521
H14 H 0.625 0.370 0.322
H15 H 0.724 0.370 0.339
H16 H 0.635 0.412 0.361
O2A O 0.3329(3) -0.2017(4) 0.2581(1)
Zn1A Zn 0.25362(7) 0.56157(8) 0.24979(13)
O10 O 0.1403(5) 0.1390(6) 0.1038(2)
O11 O 0.5555(5) -0.3815(5) 0.1536(2)
loop_
_geom_bond_atom_site_label_1
_geom_bond_atom_site_label_2
_geom_bond_site_symmetry_1
_geom_bond_site_symmetry_2
Zn1 O1 1_555 1_555
O1 H1 1_555 1_555
O2 Zn1 1_555 1_555
O3 Zn1 1_555 1_555
Cl1 C5 1_555 1_555
Cl2 C11 1_555 1_555
Cl3 C6 1_555 1_555
Cl4 C12 1_555 1_555
O4 Zn1 1_555 1_555
O5 Zn1 1_555 1_555
O6 C13 1_555 1_555
O7 C14 1_555 1_555
O8 C3 1_555 1_555
O9 C4 1_555 1_555
C1 C3 1_555 1_555
C2 C4 1_555 1_555
C3 C5 1_555 1_555
C4 C6 1_555 1_555
C5 C7 1_555 1_555
C6 C8 1_555 1_555
C7 C9 1_555 1_555
C8 C10 1_555 1_555
C9 C11 1_555 1_555
C10 C12 1_555 1_555
C11 C1 1_555 1_555
C12 C2 1_555 1_555
C13 O4 1_555 1_555
C14 O5 1_555 1_555
C15 O8 1_555 1_555
C16 O9 1_555 1_555
H2 O1 1_555 1_555
H3 O2 1_555 1_555
H4 O2 1_555 1_555
H5 O3 1_555 1_555
H6 O3 1_555 1_555
H7 C7 1_555 1_555
H8 C9 1_555 1_555
H9 C15 1_555 1_555
H10 C15 1_555 1_555
H11 C15 1_555 1_555
H12 C8 1_555 1_555
H13 C10 1_555 1_555
H14 C16 1_555 1_555
H15 C16 1_555 1_555
H16 C16 1_555 1_555
O2A Zn1 1_555 1_555
Zn1A O2 1_555 1_555
C1 C13 1_555 1_555
C2 C14 1_555 1_555

#END
