
#######################################################################
#
#                 Cambridge Crystallographic Data Centre
#                                CCDC 
#
#######################################################################
#
# If this CIF has been generated from an entry in the Cambridge 
# Structural Database, then it will include bibliographic, chemical, 
# crystal, experimental, refinement or atomic coordinate data resulting 
# from the CCDC's data processing and validation procedures.
#
#######################################################################

data_CITLIC
_symmetry_cell_setting           monoclinic
_symmetry_space_group_name_H-M   'P 21/c'
_symmetry_Int_Tables_number      14
_space_group_name_Hall           '-P 2ybc'
loop_
_symmetry_equiv_pos_site_id
_symmetry_equiv_pos_as_xyz
1 x,y,z
2 -x,1/2+y,1/2-z
3 -x,-y,-z
4 x,1/2-y,1/2+z
_cell_length_a                   12.0042(15)
_cell_length_b                   15.906(2)
_cell_length_c                   17.2162(16)
_cell_angle_alpha                90
_cell_angle_beta                 127.984(6)
_cell_angle_gamma                90
_cell_volume                     2590.95
loop_
_atom_site_label
_atom_site_type_symbol
_atom_site_fract_x
_atom_site_fract_y
_atom_site_fract_z
N1 N 0.9293(4) 0.3525(3) -0.0045(3)
C1 C 0.7981(6) 0.3911(4) -0.0567(4)
H1 H 0.7162 0.3708 -0.1150
C2 C 1.0146(5) 0.4016(3) 0.0736(4)
N2 N 0.9438(5) 0.4678(3) 0.0708(3)
C3 C 1.0036(7) 0.5360(4) 0.1444(4)
H2 H 0.9449 0.5856 0.1139
H3 H 1.0972 0.5498 0.1654
Zn1 Zn 1.02527(5) 0.75005(3) 0.55261(4)
O1 O 0.8330(3) 0.7766(2) 0.5099(3)
N3 N 0.9663(4) 0.5409(3) 0.3846(3)
N4 N 1.0270(4) 0.6493(3) 0.4828(3)
O2 O 0.1513(4) 0.7372(2) 0.1970(3)
C4 C 0.6385(5) 0.7236(3) 0.5005(3)
O3 O 0.8621(4) 0.6553(2) 0.5802(3)
C5 C 0.7884(5) 0.7165(3) 0.5333(3)
C6 C 0.9207(5) 0.6108(3) 0.4012(4)
C7 C 0.8825(6) 0.4817(3) 0.3021(4)
H4 H 0.7880 0.4779 0.2831
H5 H 0.9252 0.4264 0.3232
C8 C 0.4764(5) 0.8079(4) 0.5159(4)
H6 H 0.4708 0.8571 0.5477
C9 C 0.5325(5) 0.7346(3) 0.3878(3)
H7 H 0.5568 0.7845 0.3686
H8 H 0.5385 0.6865 0.3558
C10 C 0.6267(5) 0.8005(4) 0.5484(4)
H9 H 0.6504 0.8508 0.5295
H10 H 0.6931 0.7953 0.6196
C11 C 0.5984(5) 0.6461(4) 0.5306(4)
H11 H 0.6052 0.5964 0.5011
H12 H 0.6636 0.6396 0.6016
C12 C 0.3821(5) 0.7428(3) 0.3536(3)
C13 C 0.3453(5) 0.6649(3) 0.3850(4)
H13 H 0.3496 0.6157 0.3537
H14 H 0.2496 0.6699 0.3636
O4 O 0.3225(5) 0.7849(4) 0.1987(3)
C14 C 1.1089(6) 0.5343(3) 0.4592(4)
H15 H 1.1688 0.4921 0.4669
C15 C 0.3729(5) 0.8193(3) 0.4036(4)
H16 H 0.2773 0.8250 0.3823
H17 H 0.3963 0.8699 0.3850
C16 C 0.8730(6) 0.5088(3) 0.2135(4)
H18 H 0.8127 0.4697 0.1599
H19 H 0.8289 0.5638 0.1921
C17 C 0.4483(5) 0.6544(4) 0.4972(4)
H20 H 0.4234 0.6040 0.5163
C18 C 1.1451(5) 0.6006(3) 0.5187(4)
H21 H 1.2358 0.6120 0.5756
C19 C 0.2795(6) 0.7559(3) 0.2416(4)
C20 C 1.0137(6) 0.5128(4) 0.2340(4)
H22 H 1.0596 0.4585 0.2583
H23 H 1.0724 0.5539 0.2855
C21 C 0.7713(5) 0.6391(4) 0.3356(4)
H24 H 0.7134 0.5991 0.3377
H25 H 0.7400 0.6437 0.2693
H26 H 0.7638 0.6929 0.3573
C22 C 0.4387(7) 0.7309(5) 0.5450(4)
H27 H 0.3435 0.7362 0.5244
H28 H 0.5029 0.7247 0.6161
C23 C 0.8060(6) 0.4615(4) -0.0114(4)
H29 H 0.7329 0.4987 -0.0316
C24 C 1.1669(6) 0.3842(4) 0.1534(4)
H30 H 1.1781 0.3602 0.2091
H31 H 1.2194 0.4358 0.1728
H32 H 1.2014 0.3455 0.1299
N1A N 1.0707(4) 0.8525(3) 0.5045(3)
Zn1A Zn 0.97473(5) 0.25005(3) -0.05261(4)
Zn1C Zn 0.02527(5) 0.74995(3) 0.05261(4)
O2C O 1.1513(4) 0.7628(2) 0.6970(3)
O5 O -0.0161(8) 0.7533(4) 0.2768(5)
O6 O 0.4887(10) 0.9466(7) 0.2715(10)
H33 H 0.4117 0.9569 0.2581
C25 C 0.503(4) 0.9917(19) 0.210(2)
H34 H 0.4233 1.0285 0.1695
H35 H 0.5069 0.9536 0.1682
H36 H 0.5882 1.0242 0.2482
loop_
_geom_bond_atom_site_label_1
_geom_bond_atom_site_label_2
_geom_bond_site_symmetry_1
_geom_bond_site_symmetry_2
N1 C1 1_555 1_555
C1 H1 1_555 1_555
C2 N1 1_555 1_555
N2 C2 1_555 1_555
C3 N2 1_555 1_555
H2 C3 1_555 1_555
H3 C3 1_555 1_555
Zn1 O1 1_555 1_555
O1 C5 1_555 1_555
N3 C6 1_555 1_555
N4 Zn1 1_555 1_555
O2 C19 1_555 1_555
C4 C5 1_555 1_555
O3 C5 1_555 1_555
C6 N4 1_555 1_555
C7 N3 1_555 1_555
H4 C7 1_555 1_555
H5 C7 1_555 1_555
C8 H6 1_555 1_555
C9 C4 1_555 1_555
H7 C9 1_555 1_555
H8 C9 1_555 1_555
C10 C4 1_555 1_555
H9 C10 1_555 1_555
H10 C10 1_555 1_555
C11 C4 1_555 1_555
H11 C11 1_555 1_555
H12 C11 1_555 1_555
C12 C9 1_555 1_555
C13 C12 1_555 1_555
H13 C13 1_555 1_555
H14 C13 1_555 1_555
O4 C19 1_555 1_555
C14 N3 1_555 1_555
H15 C14 1_555 1_555
C15 C8 1_555 1_555
H16 C15 1_555 1_555
H17 C15 1_555 1_555
C16 C7 1_555 1_555
H18 C16 1_555 1_555
H19 C16 1_555 1_555
C17 C11 1_555 1_555
H20 C17 1_555 1_555
C18 N4 1_555 1_555
H21 C18 1_555 1_555
C19 C12 1_555 1_555
C20 C3 1_555 1_555
H22 C20 1_555 1_555
H23 C20 1_555 1_555
C21 C6 1_555 1_555
H24 C21 1_555 1_555
H25 C21 1_555 1_555
H26 C21 1_555 1_555
C22 C8 1_555 1_555
H27 C22 1_555 1_555
H28 C22 1_555 1_555
C23 C1 1_555 1_555
H29 C23 1_555 1_555
C24 C2 1_555 1_555
H30 C24 1_555 1_555
H31 C24 1_555 1_555
H32 C24 1_555 1_555
O6 H33 1_555 1_555
C25 O6 1_555 1_555
H34 C25 1_555 1_555
H35 C25 1_555 1_555
H36 C25 1_555 1_555
N1A Zn1 1_555 1_555
Zn1A N1 1_555 1_555
Zn1C O2 1_555 1_555
O2C Zn1 1_555 1_555
N2 C23 1_555 1_555
C8 C10 1_555 1_555
C12 C15 1_555 1_555
C13 C17 1_555 1_555
C14 C18 1_555 1_555
C16 C20 1_555 1_555
C17 C22 1_555 1_555

#END
