
#######################################################################
#
#                 Cambridge Crystallographic Data Centre
#                                CCDC 
#
#######################################################################
#
# If this CIF has been generated from an entry in the Cambridge 
# Structural Database, then it will include bibliographic, chemical, 
# crystal, experimental, refinement or atomic coordinate data resulting 
# from the CCDC's data processing and validation procedures.
#
#######################################################################

data_CITLOI
_symmetry_cell_setting           monoclinic
_symmetry_space_group_name_H-M   'P 21/c'
_symmetry_Int_Tables_number      14
_space_group_name_Hall           '-P 2ybc'
loop_
_symmetry_equiv_pos_site_id
_symmetry_equiv_pos_as_xyz
1 x,y,z
2 -x,1/2+y,1/2-z
3 -x,-y,-z
4 x,1/2-y,1/2+z
_cell_length_a                   10.4902(19)
_cell_length_b                   12.535(2)
_cell_length_c                   15.912(3)
_cell_angle_alpha                90
_cell_angle_beta                 108.746(3)
_cell_angle_gamma                90
_cell_volume                     1981.35
loop_
_atom_site_label
_atom_site_type_symbol
_atom_site_fract_x
_atom_site_fract_y
_atom_site_fract_z
Zn1 Zn 0.43586(7) 0.39315(6) 0.05792(5)
C1 C 0.7036(7) 0.4098(6) 0.0444(4)
C2 C 0.8412(7) 0.3604(6) 0.0614(5)
H1 H 0.8569 0.3088 0.1091
H2 H 0.9090 0.4158 0.0808
C3 C 0.8581(6) 0.3043(5) -0.0212(4)
C4 C 0.8415(8) 0.3820(6) -0.0971(5)
H3 H 0.9051 0.4402 -0.0774
H4 H 0.7514 0.4117 -0.1152
C5 C 0.8657(8) 0.3253(7) -0.1764(5)
H5 H 0.8530 0.3763 -0.2251
C6 C 1.0071(8) 0.2811(7) -0.1500(5)
H6 H 1.0715 0.3389 -0.1317
H7 H 1.0214 0.2456 -0.2003
C7 C 1.0284(6) 0.2015(5) -0.0732(4)
C8 C 1.0014(6) 0.2579(6) 0.0047(5)
H8 H 1.0661 0.3151 0.0257
H9 H 1.0138 0.2076 0.0530
C9 C 0.7571(7) 0.2123(6) -0.0522(5)
H10 H 0.6658 0.2396 -0.0696
H11 H 0.7684 0.1615 -0.0044
C10 C 0.7641(9) 0.2336(8) -0.2074(5)
H12 H 0.6730 0.2615 -0.2262
H13 H 0.7784 0.1971 -0.2574
C11 C 0.9238(7) 0.1125(6) -0.1042(5)
H14 H 0.9379 0.0751 -0.1538
H15 H 0.9348 0.0617 -0.0564
C12 C 0.7830(8) 0.1573(7) -0.1319(5)
H16 H 0.7189 0.0984 -0.1519
C13 C 1.1701(7) 0.1507(6) -0.0450(5)
H17 H 1.1809 0.1059 0.0065
H18 H 1.1774 0.1054 -0.0927
C14 C 1.2828(7) 0.2329(6) -0.0229(5)
C15 C 0.4192(6) 0.4617(6) 0.2377(4)
C16 C 0.5651(7) 0.5942(6) 0.2772(5)
H19 H 0.6179 0.6497 0.3089
C17 C 0.5685(7) 0.5528(6) 0.2006(4)
H20 H 0.6234 0.5766 0.1687
C18 C 0.4322(7) 0.5542(6) 0.3807(4)
H21 H 0.3381 0.5365 0.3690
H22 H 0.4436 0.6291 0.3966
C19 C 0.5151(7) 0.4896(6) 0.4571(4)
H23 H 0.6095 0.5046 0.4668
H24 H 0.5002 0.4145 0.4423
C20 C 0.3093(7) 0.3857(6) 0.2382(5)
H25 H 0.2885 0.3407 0.1867
H26 H 0.2305 0.4251 0.2375
H27 H 0.3385 0.3425 0.2908
N1 N 0.4777(6) 0.4691(5) 0.1757(3)
N2 N 0.4664(5) 0.5377(4) 0.3004(3)
O1 O 0.6126(5) 0.3509(4) 0.0544(4)
O2 O 0.6894(5) 0.5071(4) 0.0229(3)
O3 O 1.3216(5) 0.2695(4) 0.0572(3)
O4 O 1.3335(5) 0.2598(5) -0.0789(4)
C15B C 0.5808(6) 0.5383(6) 0.7623(4)
C16B C 0.4349(7) 0.4058(6) 0.7228(5)
H19B H 0.3821 0.3503 0.6911
C17B C 0.4315(7) 0.4472(6) 0.7994(4)
H20B H 0.3766 0.4234 0.8313
C18B C 0.5678(7) 0.4458(6) 0.6193(4)
H21B H 0.6619 0.4635 0.6310
H22B H 0.5564 0.3709 0.6034
C19B C 0.4849(7) 0.5104(6) 0.5429(4)
H23B H 0.3905 0.4954 0.5332
H24B H 0.4998 0.5855 0.5577
C20B C 0.6907(7) 0.6143(6) 0.7618(5)
H25B H 0.7115 0.6593 0.8133
H26B H 0.7695 0.5749 0.7625
H27B H 0.6615 0.6575 0.7092
N1B N 0.5223(6) 0.5309(5) 0.8243(3)
N2B N 0.5336(5) 0.4623(4) 0.6996(3)
Zn1B Zn 0.56414(7) 0.60685(6) -0.05792(5)
C1B C 0.2964(7) 0.5902(6) -0.0444(4)
C2B C 0.1588(7) 0.6396(6) -0.0614(5)
H1B H 0.1431 0.6912 -0.1091
H2B H 0.0910 0.5842 -0.0808
C3B C 0.1419(6) 0.6957(5) 0.0212(4)
C4B C 0.1585(8) 0.6180(6) 0.0971(5)
H3B H 0.0949 0.5598 0.0774
H4B H 0.2486 0.5883 0.1152
C5B C 0.1343(8) 0.6747(7) 0.1764(5)
H5B H 0.1470 0.6237 0.2251
C6B C -0.0071(8) 0.7189(7) 0.1500(5)
H6B H -0.0715 0.6611 0.1317
H7B H -0.0214 0.7544 0.2003
C7B C -0.0284(6) 0.7985(5) 0.0732(4)
C8B C -0.0014(6) 0.7421(6) -0.0047(5)
H8B H -0.0661 0.6849 -0.0257
H9B H -0.0138 0.7924 -0.0530
C9B C 0.2429(7) 0.7877(6) 0.0522(5)
H10B H 0.3342 0.7604 0.0696
H11B H 0.2316 0.8385 0.0044
C10B C 0.2359(9) 0.7664(8) 0.2074(5)
H12B H 0.3270 0.7385 0.2262
H13B H 0.2216 0.8029 0.2574
C11B C 0.0762(7) 0.8875(6) 0.1042(5)
H14B H 0.0621 0.9249 0.1538
H15B H 0.0652 0.9383 0.0564
C12B C 0.2170(8) 0.8427(7) 0.1319(5)
H16B H 0.2811 0.9016 0.1519
C13B C -0.1701(7) 0.8493(6) 0.0450(5)
H17B H -0.1809 0.8941 -0.0065
H18B H -0.1774 0.8946 0.0927
C14B C -0.2828(7) 0.7671(6) 0.0229(5)
O1B O 0.3874(5) 0.6491(4) -0.0544(4)
O2B O 0.3106(5) 0.4929(4) -0.0229(3)
O3B O -0.3216(5) 0.7305(4) -0.0572(3)
O4B O -0.3335(5) 0.7402(5) 0.0789(4)
Zn1_2 Zn 1.43586(7) 0.39315(6) 0.05792(5)
Zn1B_2 Zn -0.43586(7) 0.60685(6) -0.05792(5)
Zn1B_3 Zn 0.56414(7) 0.60685(6) 0.94208(5)
N1B_2 N 0.5223(6) 0.5309(5) -0.1757(3)
O3_2 O 0.3216(5) 0.2695(4) 0.0572(3)
O3B_2 O 0.6784(5) 0.7305(4) -0.0572(3)
loop_
_geom_bond_atom_site_label_1
_geom_bond_atom_site_label_2
_geom_bond_site_symmetry_1
_geom_bond_site_symmetry_2
Zn1 N1 1_555 1_555
C1 C2 1_555 1_555
C2 H1 1_555 1_555
H2 C2 1_555 1_555
C3 C2 1_555 1_555
C4 C3 1_555 1_555
H3 C4 1_555 1_555
H4 C4 1_555 1_555
C5 C4 1_555 1_555
H5 C5 1_555 1_555
C6 C5 1_555 1_555
H6 C6 1_555 1_555
H7 C6 1_555 1_555
C7 C6 1_555 1_555
C8 C3 1_555 1_555
H8 C8 1_555 1_555
H9 C8 1_555 1_555
C9 C3 1_555 1_555
H10 C9 1_555 1_555
H11 C9 1_555 1_555
C10 C5 1_555 1_555
H12 C10 1_555 1_555
H13 C10 1_555 1_555
C11 C7 1_555 1_555
H14 C11 1_555 1_555
H15 C11 1_555 1_555
C12 C9 1_555 1_555
H16 C12 1_555 1_555
C13 C7 1_555 1_555
H17 C13 1_555 1_555
H18 C13 1_555 1_555
C14 C13 1_555 1_555
C15 C20 1_555 1_555
C16 H19 1_555 1_555
C17 C16 1_555 1_555
H20 C17 1_555 1_555
C18 H21 1_555 1_555
H22 C18 1_555 1_555
C19 C18 1_555 1_555
H23 C19 1_555 1_555
H24 C19 1_555 1_555
C20 H25 1_555 1_555
H26 C20 1_555 1_555
H27 C20 1_555 1_555
N1 C15 1_555 1_555
N2 C15 1_555 1_555
O1 Zn1 1_555 1_555
O2 C1 1_555 1_555
O3 C14 1_555 1_555
O4 C14 1_555 1_555
C15B C20B 1_555 1_555
C16B H19B 1_555 1_555
C17B C16B 1_555 1_555
H20B C17B 1_555 1_555
C18B H21B 1_555 1_555
H22B C18B 1_555 1_555
C19B C19 1_555 1_555
H23B C19B 1_555 1_555
H24B C19B 1_555 1_555
C20B H25B 1_555 1_555
H26B C20B 1_555 1_555
H27B C20B 1_555 1_555
N1B C15B 1_555 1_555
N2B C15B 1_555 1_555
Zn1B O2 1_555 1_555
C1B C2B 1_555 1_555
C2B H1B 1_555 1_555
H2B C2B 1_555 1_555
C3B C2B 1_555 1_555
C4B C3B 1_555 1_555
H3B C4B 1_555 1_555
H4B C4B 1_555 1_555
C5B C4B 1_555 1_555
H5B C5B 1_555 1_555
C6B C5B 1_555 1_555
H6B C6B 1_555 1_555
H7B C6B 1_555 1_555
C7B C6B 1_555 1_555
C8B C3B 1_555 1_555
H8B C8B 1_555 1_555
H9B C8B 1_555 1_555
C9B C3B 1_555 1_555
H10B C9B 1_555 1_555
H11B C9B 1_555 1_555
C10B C5B 1_555 1_555
H12B C10B 1_555 1_555
H13B C10B 1_555 1_555
C11B C7B 1_555 1_555
H14B C11B 1_555 1_555
H15B C11B 1_555 1_555
C12B C9B 1_555 1_555
H16B C12B 1_555 1_555
C13B C7B 1_555 1_555
H17B C13B 1_555 1_555
H18B C13B 1_555 1_555
C14B C13B 1_555 1_555
O1B Zn1B 1_555 1_555
O2B Zn1 1_555 1_555
O3B C14B 1_555 1_555
O4B C14B 1_555 1_555
Zn1_2 O3 1_555 1_555
Zn1B_2 O3B 1_555 1_555
Zn1B_3 N1B 1_555 1_555
N1B_2 Zn1B 1_555 1_555
O3_2 Zn1 1_555 1_555
O3B_2 Zn1B 1_555 1_555
C1 O1 1_555 1_555
C7 C8 1_555 1_555
C10 C12 1_555 1_555
C11 C12 1_555 1_555
C16 N2 1_555 1_555
C17 N1 1_555 1_555
C18 N2 1_555 1_555
C16B N2B 1_555 1_555
C17B N1B 1_555 1_555
C18B C19B 1_555 1_555
C18B N2B 1_555 1_555
C1B O1B 1_555 1_555
C1B O2B 1_555 1_555
C7B C8B 1_555 1_555
C10B C12B 1_555 1_555
C11B C12B 1_555 1_555

#END
