
#######################################################################
#
#                 Cambridge Crystallographic Data Centre
#                                CCDC 
#
#######################################################################
#
# If this CIF has been generated from an entry in the Cambridge 
# Structural Database, then it will include bibliographic, chemical, 
# crystal, experimental, refinement or atomic coordinate data resulting 
# from the CCDC's data processing and validation procedures.
#
#######################################################################

data_CITNAW
_symmetry_cell_setting           orthorhombic
_symmetry_space_group_name_H-M   'P 21 21 2'
_symmetry_Int_Tables_number      18
_space_group_name_Hall           'P 2 2ab'
loop_
_symmetry_equiv_pos_site_id
_symmetry_equiv_pos_as_xyz
1 x,y,z
2 -x,-y,z
3 1/2-x,1/2+y,-z
4 1/2+x,1/2-y,-z
_cell_length_a                   21.6201(6)
_cell_length_b                   29.5433(9)
_cell_length_c                   5.0964(2)
_cell_angle_alpha                90
_cell_angle_beta                 90
_cell_angle_gamma                90
_cell_volume                     3255.22
loop_
_atom_site_label
_atom_site_type_symbol
_atom_site_fract_x
_atom_site_fract_y
_atom_site_fract_z
Hg1 Hg 0.242702(18) -0.121593(9) 1.52515(6)
Cl1 Cl 0.34862(15) -0.11921(10) 1.6239(6)
Cl2 Cl 0.13643(14) -0.12427(9) 1.6093(5)
N1 N 0.2431(4) -0.0600(2) 1.2029(14)
C1 C 0.2951(5) -0.0438(4) 1.116(2)
H1 H 0.3331 -0.0543 1.1872
C2 C 0.2958(5) -0.0112(4) 0.919(2)
H2 H 0.3342 0.0005 0.8603
C3 C 0.2423(5) 0.0042(3) 0.8096(16)
C4 C 0.1871(6) -0.0125(3) 0.902(2)
H3 H 0.1488 -0.0025 0.8312
C5 C 0.1890(5) -0.0449(4) 1.104(2)
H4 H 0.1512 -0.0564 1.1720
C6 C 0.2415(6) 0.0374(3) 0.6032(16)
C7 C 0.2413(5) 0.0649(3) 0.4368(17)
C8 C 0.2421(5) 0.0983(3) 0.2278(15)
C9 C 0.2957(5) 0.1194(3) 0.1477(18)
C10 C 0.2960(5) 0.1509(3) -0.064(2)
C11 C 0.2432(5) 0.1627(3) -0.2022(16)
C12 C 0.1893(5) 0.1417(3) -0.1188(16)
C13 C 0.1874(5) 0.1106(3) 0.0921(17)
C14 C 0.3594(5) 0.1174(3) 0.254(2)
O1 O 0.3780(3) 0.0945(2) 0.4358(16)
N2 N 0.3953(4) 0.1467(3) 0.1054(17)
C15 C 0.3612(5) 0.1674(3) -0.096(2)
O2 O 0.3810(4) 0.1926(2) -0.2554(15)
C16 C 0.4619(6) 0.1544(5) 0.152(3)
H5 H 0.4721 0.1375 0.3168
C17 C 0.4735(5) 0.2044(4) 0.213(3)
H6 H 0.4625 0.2231 0.0590
H7 H 0.4475 0.2140 0.3629
C18 C 0.5389(7) 0.2103(7) 0.277(4)
H8 H 0.5537 0.1839 0.3754
H9 H 0.5441 0.2376 0.3843
H10 H 0.5629 0.2134 0.1149
C19 C 0.5021(9) 0.1354(6) -0.053(4)
H11 H 0.4880 0.1048 -0.0977
H12 H 0.5448 0.1340 0.0116
H13 H 0.5003 0.1546 -0.2094
C20 C 0.1238(5) 0.0953(3) 0.127(2)
O3 O 0.1043(4) 0.0681(2) 0.2840(14)
N3 N 0.0889(4) 0.1171(3) -0.0740(15)
C21 C 0.1260(5) 0.1446(3) -0.2241(19)
O4 O 0.1073(4) 0.1671(2) -0.4044(13)
C22 C 0.0238(6) 0.1108(3) -0.1147(19)
H14 H 0.0122 0.1281 -0.2760
C23 C -0.0158(6) 0.1292(3) 0.113(2)
H15 H -0.0599 0.1223 0.0795
H16 H -0.0036 0.1140 0.2782
C24 C -0.0076(6) 0.1788(4) 0.140(3)
H17 H 0.0366 0.1861 0.1384
H18 H -0.0259 0.1889 0.3058
H19 H -0.0281 0.1942 -0.0066
C25 C 0.0072(6) 0.0590(4) -0.167(3)
H20 H 0.0324 0.0475 -0.3121
H21 H -0.0367 0.0564 -0.2113
H22 H 0.0158 0.0413 -0.0081
C26 C 0.2455(5) 0.1953(3) -0.4091(16)
C27 C 0.2482(5) 0.2222(3) -0.5814(17)
C28 C 0.2493(5) 0.2551(2) -0.7892(15)
C29 C 0.3053(5) 0.2715(4) -0.881(2)
H23 H 0.3430 0.2612 -0.8060
C30 C 0.3058(5) 0.3031(3) -1.084(2)
H24 H 0.3447 0.3141 -1.1440
N4 N 0.2566(4) 0.3182(2) -1.1945(13)
C31 C 0.2025(5) 0.3015(4) -1.101(2)
H25 H 0.1655 0.3120 -1.1805
C32 C 0.1966(5) 0.2712(3) -0.904(2)
H26 H 0.1570 0.2614 -0.8464
Hg1B Hg 0.257298(18) 0.378407(9) -1.52515(6)
N4B N 0.2434(4) -0.1818(2) 1.1945(13)
loop_
_geom_bond_atom_site_label_1
_geom_bond_atom_site_label_2
_geom_bond_site_symmetry_1
_geom_bond_site_symmetry_2
Hg1 Cl1 1_555 1_555
Cl2 Hg1 1_555 1_555
N1 Hg1 1_555 1_555
C1 N1 1_555 1_555
H1 C1 1_555 1_555
C2 C1 1_555 1_555
H2 C2 1_555 1_555
C3 C2 1_555 1_555
C4 C3 1_555 1_555
H3 C4 1_555 1_555
C5 N1 1_555 1_555
H4 C5 1_555 1_555
C6 C3 1_555 1_555
C7 C6 1_555 1_555
C8 C7 1_555 1_555
C9 C8 1_555 1_555
C10 C9 1_555 1_555
C11 C10 1_555 1_555
C12 C11 1_555 1_555
C13 C8 1_555 1_555
C14 C9 1_555 1_555
O1 C14 1_555 1_555
N2 C14 1_555 1_555
C15 C10 1_555 1_555
O2 C15 1_555 1_555
C16 N2 1_555 1_555
H5 C16 1_555 1_555
C17 C16 1_555 1_555
H6 C17 1_555 1_555
H7 C17 1_555 1_555
C18 C17 1_555 1_555
H8 C18 1_555 1_555
H9 C18 1_555 1_555
H10 C18 1_555 1_555
C19 C16 1_555 1_555
H11 C19 1_555 1_555
H12 C19 1_555 1_555
H13 C19 1_555 1_555
C20 C13 1_555 1_555
O3 C20 1_555 1_555
N3 C20 1_555 1_555
C21 C12 1_555 1_555
O4 C21 1_555 1_555
C22 N3 1_555 1_555
H14 C22 1_555 1_555
C23 C22 1_555 1_555
H15 C23 1_555 1_555
H16 C23 1_555 1_555
C24 C23 1_555 1_555
H17 C24 1_555 1_555
H18 C24 1_555 1_555
H19 C24 1_555 1_555
C25 C22 1_555 1_555
H20 C25 1_555 1_555
H21 C25 1_555 1_555
H22 C25 1_555 1_555
C26 C11 1_555 1_555
C27 C26 1_555 1_555
C28 C27 1_555 1_555
C29 C28 1_555 1_555
H23 C29 1_555 1_555
C30 C29 1_555 1_555
H24 C30 1_555 1_555
N4 C30 1_555 1_555
C31 N4 1_555 1_555
H25 C31 1_555 1_555
C32 C28 1_555 1_555
H26 C32 1_555 1_555
Hg1B N4 1_555 1_555
N4B Hg1 1_555 1_555
C4 C5 1_555 1_555
C12 C13 1_555 1_555
N2 C15 1_555 1_555
N3 C21 1_555 1_555
C31 C32 1_555 1_555

#END
