
#######################################################################
#
#                 Cambridge Crystallographic Data Centre
#                                CCDC 
#
#######################################################################
#
# If this CIF has been generated from an entry in the Cambridge 
# Structural Database, then it will include bibliographic, chemical, 
# crystal, experimental, refinement or atomic coordinate data resulting 
# from the CCDC's data processing and validation procedures.
#
#######################################################################

data_CITNEA
_symmetry_cell_setting           triclinic
_symmetry_space_group_name_H-M   'P 1'
_symmetry_Int_Tables_number      1
_space_group_name_Hall           'P 1'
loop_
_symmetry_equiv_pos_site_id
_symmetry_equiv_pos_as_xyz
1 x,y,z
_cell_length_a                   6.4908(2)
_cell_length_b                   14.5434(5)
_cell_length_c                   15.0317(5)
_cell_angle_alpha                66.668(2)
_cell_angle_beta                 82.427(2)
_cell_angle_gamma                80.980(2)
_cell_volume                     1283.01
loop_
_atom_site_label
_atom_site_type_symbol
_atom_site_fract_x
_atom_site_fract_y
_atom_site_fract_z
Cu1 Cu -0.62904(7) 0.68459(4) -0.14143(4)
N1 N -0.4507(5) 0.5774(3) -0.0363(3)
C1 C -0.5135(7) 0.4872(3) 0.0178(4)
H1 H -0.6450 0.4732 0.0081
C2 C -0.3936(7) 0.4134(4) 0.0876(4)
H2 H -0.4420 0.3495 0.1238
C3 C -0.2025(7) 0.4327(3) 0.1046(3)
C4 C -0.1397(7) 0.5269(4) 0.0479(4)
H3 H -0.0092 0.5429 0.0565
C5 C -0.2652(6) 0.5973(4) -0.0205(3)
H4 H -0.2201 0.6616 -0.0578
C6 C -0.0691(8) 0.3590(3) 0.1741(4)
C7 C 0.0477(7) 0.3051(4) 0.2329(4)
C8 C 0.2030(7) 0.2443(3) 0.2992(3)
C9 C 0.2376(6) 0.1404(4) 0.3342(3)
C10 C 0.3916(7) 0.0852(3) 0.3973(3)
C11 C 0.5272(7) 0.1294(4) 0.4291(3)
C12 C 0.4949(7) 0.2361(3) 0.3919(3)
C13 C 0.3383(7) 0.2911(4) 0.3304(3)
C14 C 0.1270(7) 0.0689(4) 0.3126(4)
O1 O -0.0136(6) 0.0861(3) 0.2617(3)
N2 N 0.2246(6) -0.0284(3) 0.3667(3)
C15 C 0.3810(7) -0.0251(4) 0.4207(3)
O2 O 0.4859(5) -0.0965(2) 0.4747(3)
C16 C 0.1838(8) -0.1237(4) 0.3625(4)
H5 H 0.2691 -0.1797 0.4113
C17 C 0.2566(7) -0.1276(4) 0.2639(4)
H6 H 0.2196 -0.1906 0.2630
H7 H 0.1794 -0.0705 0.2139
C18 C 0.4887(12) -0.1230(7) 0.2366(7)
H8 H 0.5313 -0.0660 0.2463
H9 H 0.5187 -0.1141 0.1683
H10 H 0.5663 -0.1858 0.2776
C19 C -0.0422(7) -0.1402(4) 0.3926(4)
H11 H -0.0770 -0.1409 0.4583
H12 H -0.0656 -0.2049 0.3919
H13 H -0.1312 -0.0856 0.3472
C20 C 0.3446(7) 0.3997(4) 0.3093(4)
O3 O 0.2372(6) 0.4711(3) 0.2587(3)
N3 N 0.5016(6) 0.4026(3) 0.3630(3)
C21 C 0.6012(7) 0.3087(4) 0.4111(3)
O4 O 0.7466(6) 0.2880(3) 0.4624(3)
C22 C 0.5600(9) 0.4956(4) 0.3694(4)
H14 H 0.6616 0.4727 0.4206
C23 C 0.3705(9) 0.5526(5) 0.4027(5)
H15 H 0.4170 0.6089 0.4133
H16 H 0.2743 0.5824 0.3499
C24 C 0.2564(11) 0.4927(5) 0.4902(6)
H17 H 0.1607 0.4567 0.4741
H18 H 0.1760 0.5368 0.5208
H19 H 0.3548 0.4440 0.5351
C25 C 0.6696(9) 0.5596(4) 0.2762(4)
H20 H 0.7948 0.5200 0.2603
H21 H 0.7105 0.6181 0.2836
H22 H 0.5754 0.5826 0.2239
C26 C 0.6824(7) 0.0710(3) 0.4937(3)
C27 C 0.8053(7) 0.0139(4) 0.5495(4)
C28 C 0.9380(7) -0.0608(3) 0.6188(3)
C29 C 1.1294(6) -0.0402(3) 0.6356(3)
H23 H 1.1754 0.0245 0.6016
C30 C 1.2493(7) -0.1157(3) 0.7025(3)
H24 H 1.3801 -0.1018 0.7130
N4 N 1.1914(6) -0.2089(3) 0.7541(3)
C31 C 1.0104(7) -0.2279(3) 0.7359(3)
H25 H 0.9679 -0.2931 0.7716
C32 C 0.8803(7) -0.1580(3) 0.6676(4)
H26 H 0.7561 -0.1758 0.6546
O5 O -0.7803(5) 0.5765(2) -0.1440(2)
C33 C -0.7277(7) 0.5215(3) -0.1930(4)
C34 C -0.5726(8) 0.5253(4) -0.2640(4)
H27 H -0.5606 0.4781 -0.2941
C35 C -0.4271(7) 0.5981(4) -0.2948(4)
O6 O -0.4085(5) 0.6616(2) -0.2634(3)
C36 C -0.8716(9) 0.4359(5) -0.1598(5)
F1 F -0.8350(6) 0.3818(3) -0.2157(3)
F2 F -1.0697(5) 0.4737(3) -0.1646(3)
F3 F -0.8438(6) 0.3743(3) -0.0700(3)
C37 C -0.2751(10) 0.5986(5) -0.3832(5)
F4 F -0.3576(8) 0.6618(4) -0.4655(3)
F5 F -0.2320(7) 0.5102(3) -0.3898(3)
F6 F -0.0956(6) 0.6314(3) -0.3829(3)
O7 O -0.8548(5) 0.7084(2) -0.0228(2)
C38 C -0.8457(7) 0.7758(4) 0.0065(4)
C39 C -0.7009(8) 0.8477(4) -0.0238(4)
H28 H -0.7197 0.8972 0.0039
C40 C -0.5338(7) 0.8497(3) -0.0914(4)
O8 O -0.4795(4) 0.7927(2) -0.1382(2)
C41 C -1.0123(8) 0.7785(4) 0.0895(4)
F7 F -1.1934(5) 0.7531(3) 0.0777(2)
F8 F -1.0553(5) 0.8694(2) 0.0937(3)
F9 F -0.9465(5) 0.7152(3) 0.1740(2)
C42 C -0.3980(7) 0.9360(4) -0.1211(4)
F10 F -0.1925(4) 0.9026(3) -0.1251(2)
F11 F -0.4276(5) 0.9866(3) -0.0642(3)
F12 F -0.4350(6) 1.0009(2) -0.2119(3)
Cu1_2 Cu 1.37096(7) -0.31541(4) 0.85857(4)
N4_2 N -0.8086(6) 0.7911(3) -0.2459(3)
Cl1 Cl 0.5023(4) 0.16593(17) 0.1143(2)
C43 C 0.7422(18) 0.1071(7) 0.0646(7)
H29 H 0.8119 0.0500 0.1174
H30 H 0.7062 0.0821 0.0168
C44 C 0.8692(18) 0.1822(6) 0.0208(7)
H31 H 0.9138 0.2042 0.0690
H32 H 0.7972 0.2411 -0.0296
Cl2 Cl 1.0972(4) 0.1225(2) -0.0344(3)
Cl3 Cl 0.6430(5) 0.2495(2) 0.7633(3)
C45 C 0.8607(15) 0.1924(8) 0.7067(10)
H33 H 0.9295 0.1317 0.7565
H34 H 0.8099 0.1717 0.6589
C46 C 1.0041(15) 0.2635(7) 0.6598(10)
H35 H 1.0431 0.2894 0.7063
H36 H 0.9391 0.3211 0.6058
Cl4 Cl 1.2324(4) 0.20523(18) 0.6138(2)
loop_
_geom_bond_atom_site_label_1
_geom_bond_atom_site_label_2
_geom_bond_site_symmetry_1
_geom_bond_site_symmetry_2
Cu1 N1 1_555 1_555
N1 C1 1_555 1_555
C1 H1 1_555 1_555
C2 C1 1_555 1_555
H2 C2 1_555 1_555
C3 C2 1_555 1_555
C4 C3 1_555 1_555
H3 C4 1_555 1_555
C5 N1 1_555 1_555
H4 C5 1_555 1_555
C6 C3 1_555 1_555
C7 C6 1_555 1_555
C8 C7 1_555 1_555
C9 C8 1_555 1_555
C10 C9 1_555 1_555
C11 C10 1_555 1_555
C12 C11 1_555 1_555
C13 C8 1_555 1_555
C14 C9 1_555 1_555
O1 C14 1_555 1_555
N2 C14 1_555 1_555
C15 C10 1_555 1_555
O2 C15 1_555 1_555
C16 N2 1_555 1_555
H5 C16 1_555 1_555
C17 C16 1_555 1_555
H6 C17 1_555 1_555
H7 C17 1_555 1_555
C18 C17 1_555 1_555
H8 C18 1_555 1_555
H9 C18 1_555 1_555
H10 C18 1_555 1_555
C19 C16 1_555 1_555
H11 C19 1_555 1_555
H12 C19 1_555 1_555
H13 C19 1_555 1_555
C20 C13 1_555 1_555
O3 C20 1_555 1_555
N3 C20 1_555 1_555
C21 C12 1_555 1_555
O4 C21 1_555 1_555
C22 N3 1_555 1_555
H14 C22 1_555 1_555
C23 C22 1_555 1_555
H15 C23 1_555 1_555
H16 C23 1_555 1_555
C24 C23 1_555 1_555
H17 C24 1_555 1_555
H18 C24 1_555 1_555
H19 C24 1_555 1_555
C25 C22 1_555 1_555
H20 C25 1_555 1_555
H21 C25 1_555 1_555
H22 C25 1_555 1_555
C26 C11 1_555 1_555
C27 C26 1_555 1_555
C28 C27 1_555 1_555
C29 C28 1_555 1_555
H23 C29 1_555 1_555
C30 C29 1_555 1_555
H24 C30 1_555 1_555
N4 C30 1_555 1_555
C31 N4 1_555 1_555
H25 C31 1_555 1_555
C32 C28 1_555 1_555
H26 C32 1_555 1_555
O5 Cu1 1_555 1_555
C33 O5 1_555 1_555
C34 C33 1_555 1_555
H27 C34 1_555 1_555
C35 C34 1_555 1_555
O6 Cu1 1_555 1_555
C36 C33 1_555 1_555
F1 C36 1_555 1_555
F2 C36 1_555 1_555
F3 C36 1_555 1_555
C37 C35 1_555 1_555
F4 C37 1_555 1_555
F5 C37 1_555 1_555
F6 C37 1_555 1_555
O7 Cu1 1_555 1_555
C38 O7 1_555 1_555
C39 C38 1_555 1_555
H28 C39 1_555 1_555
C40 C39 1_555 1_555
O8 Cu1 1_555 1_555
C41 C38 1_555 1_555
F7 C41 1_555 1_555
F8 C41 1_555 1_555
F9 C41 1_555 1_555
C42 C40 1_555 1_555
F10 C42 1_555 1_555
F11 C42 1_555 1_555
F12 C42 1_555 1_555
Cl1 C43 1_555 1_555
C43 H29 1_555 1_555
H30 C43 1_555 1_555
C44 C43 1_555 1_555
H31 C44 1_555 1_555
H32 C44 1_555 1_555
Cl2 C44 1_555 1_555
Cl3 C45 1_555 1_555
C45 H33 1_555 1_555
H34 C45 1_555 1_555
C46 C45 1_555 1_555
H35 C46 1_555 1_555
H36 C46 1_555 1_555
Cl4 C46 1_555 1_555
Cu1_2 N4 1_555 1_555
N4_2 Cu1 1_555 1_555
C4 C5 1_555 1_555
C12 C13 1_555 1_555
N2 C15 1_555 1_555
N3 C21 1_555 1_555
C31 C32 1_555 1_555
C35 O6 1_555 1_555
C40 O8 1_555 1_555

#END
