
#######################################################################
#
#                 Cambridge Crystallographic Data Centre
#                                CCDC 
#
#######################################################################
#
# If this CIF has been generated from an entry in the Cambridge 
# Structural Database, then it will include bibliographic, chemical, 
# crystal, experimental, refinement or atomic coordinate data resulting 
# from the CCDC's data processing and validation procedures.
#
#######################################################################

data_CITPIG
_symmetry_cell_setting           triclinic
_symmetry_space_group_name_H-M   'P -1'
_symmetry_Int_Tables_number      2
_space_group_name_Hall           '-P 1'
loop_
_symmetry_equiv_pos_site_id
_symmetry_equiv_pos_as_xyz
1 x,y,z
2 -x,-y,-z
_cell_length_a                   8.4443(5)
_cell_length_b                   10.7103(7)
_cell_length_c                   11.8338(8)
_cell_angle_alpha                71.6460(10)
_cell_angle_beta                 84.2460(10)
_cell_angle_gamma                81.5000(10)
_cell_volume                     1003.01
loop_
_atom_site_label
_atom_site_type_symbol
_atom_site_fract_x
_atom_site_fract_y
_atom_site_fract_z
Mo1 Mo -0.18457(4) -0.03336(3) -0.41847(3)
Cu1 Cu 0.0000 0.0000 0.0000
O1 O 0.0320(4) 0.2866(3) -0.3207(3)
N1 N 0.1434(4) 0.1247(3) 0.0153(3)
C1 C 0.2820(5) -0.0888(4) 0.1102(3)
Mo2 Mo -0.04799(4) 0.23197(3) -0.42034(3)
N2 N 0.3792(5) 0.2580(4) 0.0515(3)
H1 H 0.4527 0.3000 0.0625
O2 O 0.0832(3) -0.2090(3) -0.2060(2)
C2 C 0.2740(5) 0.0588(4) 0.0729(3)
Mo3 Mo 0.18588(4) -0.05805(3) -0.29539(3)
O3 O -0.0760(3) 0.0460(3) -0.3253(2)
C3 C 0.3906(5) 0.1265(5) 0.0926(4)
H2 H 0.4784 0.0793 0.1354
Mo4 Mo 0.04781(4) -0.32907(3) -0.29045(3)
O4 O 0.0295(3) 0.3438(3) -0.5673(3)
C4 C 0.2514(6) 0.3221(4) -0.0066(4)
H3 H 0.2417 0.4141 -0.0367
O5 O 0.0850(3) -0.1202(2) -0.4429(2)
C5 C 0.1303(6) 0.2554(4) -0.0242(4)
H4 H 0.0402 0.3032 -0.0638
O6 O 0.1895(3) 0.0964(3) -0.4427(2)
O7 O -0.3728(3) 0.0428(3) -0.4131(3)
O8 O 0.3750(3) -0.1339(3) -0.3107(3)
O9 O -0.2455(4) 0.2946(3) -0.4181(3)
O10 O 0.2426(4) -0.3913(3) -0.3090(3)
O11 O -0.0354(4) -0.4506(3) -0.1810(3)
O12 O 0.1938(4) 0.0147(3) -0.1873(3)
O13 O -0.1876(3) -0.1905(3) -0.3124(2)
O14 O 0.3992(4) -0.1586(3) 0.1607(3)
O15 O 0.1627(3) -0.1340(3) 0.0840(3)
Mo1A Mo 0.18457(4) 0.03336(3) -0.58153(3)
O1A O -0.0320(4) -0.2866(3) -0.6793(3)
Mo2A Mo 0.04799(4) -0.23197(3) -0.57966(3)
O2A O -0.0832(3) 0.2090(3) -0.7940(2)
Mo3A Mo -0.18588(4) 0.05805(3) -0.70461(3)
O3A O 0.0760(3) -0.0460(3) -0.6747(2)
Mo4A Mo -0.04781(4) 0.32907(3) -0.70955(3)
O4A O -0.0295(3) -0.3438(3) -0.4327(3)
O5A O -0.0850(3) 0.1202(2) -0.5571(2)
O6A O -0.1895(3) -0.0964(3) -0.5573(2)
O7A O 0.3728(3) -0.0428(3) -0.5869(3)
O8A O -0.3750(3) 0.1339(3) -0.6893(3)
O9A O 0.2455(4) -0.2946(3) -0.5819(3)
O10A O -0.2426(4) 0.3913(3) -0.6910(3)
O11A O 0.0354(4) 0.4506(3) -0.8190(3)
O12A O -0.1938(4) -0.0147(3) -0.8127(3)
O13A O 0.1876(3) 0.1905(3) -0.6876(2)
N1A N -0.1434(4) -0.1247(3) -0.0153(3)
C1A C -0.2820(5) 0.0888(4) -0.1102(3)
N2A N -0.3792(5) -0.2580(4) -0.0515(3)
H1A H -0.4527 -0.3000 -0.0625
C2A C -0.2740(5) -0.0588(4) -0.0729(3)
C3A C -0.3906(5) -0.1265(5) -0.0926(4)
H2A H -0.4784 -0.0793 -0.1354
C4A C -0.2514(6) -0.3221(4) 0.0066(4)
H3A H -0.2417 -0.4141 0.0367
C5A C -0.1303(6) -0.2554(4) 0.0242(4)
H4A H -0.0402 -0.3032 0.0638
O14A O -0.3992(4) 0.1586(3) -0.1607(3)
O15A O -0.1627(3) 0.1340(3) -0.0840(3)
Cu1_2 Cu 0.0000 0.0000 -1.0000
O12A_2 O -0.1938(4) -0.0147(3) 0.1873(3)
O16 O 0.6691(4) 0.3746(3) 0.0374(3)
O17 O 0.6262(4) -0.2953(4) 0.3160(3)
N3 N 0.7070(5) 0.4106(4) -0.2066(3)
H5 H 0.7057 0.3947 -0.1280
H6 H 0.8076 0.4126 -0.2371
H7 H 0.6649 0.3467 -0.2221
N4 N 0.5400(5) 0.7047(4) -0.4527(4)
H8 H 0.5418 0.7193 -0.5311
H9 H 0.5954 0.7616 -0.4376
H10 H 0.4390 0.7158 -0.4243
C6 C 0.6125(5) 0.5680(4) -0.3949(4)
H11 H 0.7221 0.5555 -0.4267
H12 H 0.5530 0.5060 -0.4122
C7 C 0.6110(5) 0.5404(4) -0.2610(4)
H13 H 0.6559 0.6103 -0.2436
H14 H 0.5015 0.5389 -0.2273
loop_
_geom_bond_atom_site_label_1
_geom_bond_atom_site_label_2
_geom_bond_site_symmetry_1
_geom_bond_site_symmetry_2
Mo1 O3 1_555 1_555
Cu1 N1 1_555 1_555
O1 Mo2 1_555 1_555
N1 C2 1_555 1_555
C1 C2 1_555 1_555
Mo2 O3 1_555 1_555
N2 H1 1_555 1_555
O2 Mo3 1_555 1_555
C2 C3 1_555 1_555
Mo3 O3 1_555 1_555
C3 N2 1_555 1_555
H2 C3 1_555 1_555
Mo4 O2 1_555 1_555
O4 Mo2 1_555 1_555
C4 N2 1_555 1_555
H3 C4 1_555 1_555
O5 Mo1 1_555 1_555
C5 N1 1_555 1_555
H4 C5 1_555 1_555
O6 Mo2 1_555 1_555
O7 Mo1 1_555 1_555
O8 Mo3 1_555 1_555
O9 Mo2 1_555 1_555
O10 Mo4 1_555 1_555
O11 Mo4 1_555 1_555
O12 Cu1 1_555 1_555
O13 Mo1 1_555 1_555
O14 C1 1_555 1_555
O15 Cu1 1_555 1_555
N3 H5 1_555 1_555
H6 N3 1_555 1_555
H7 N3 1_555 1_555
N4 H8 1_555 1_555
H9 N4 1_555 1_555
H10 N4 1_555 1_555
C6 N4 1_555 1_555
H11 C6 1_555 1_555
H12 C6 1_555 1_555
C7 N3 1_555 1_555
H13 C7 1_555 1_555
H14 C7 1_555 1_555
Mo1A O5 1_555 1_555
O1A Mo2A 1_555 1_555
Mo2A O5 1_555 1_555
O2A Mo3A 1_555 1_555
Mo3A O3A 1_555 1_555
O3A Mo1A 1_555 1_555
Mo4A O4 1_555 1_555
O4A Mo4 1_555 1_555
O5A Mo1 1_555 1_555
O6A Mo1 1_555 1_555
O7A Mo1A 1_555 1_555
O8A Mo3A 1_555 1_555
O9A Mo2A 1_555 1_555
O10A Mo4A 1_555 1_555
O11A Mo4A 1_555 1_555
O12A Mo3A 1_555 1_555
O13A Mo1A 1_555 1_555
N1A Cu1 1_555 1_555
C1A C2A 1_555 1_555
N2A H1A 1_555 1_555
C2A N1A 1_555 1_555
C3A N2A 1_555 1_555
H2A C3A 1_555 1_555
C4A N2A 1_555 1_555
H3A C4A 1_555 1_555
C5A N1A 1_555 1_555
H4A C5A 1_555 1_555
O14A C1A 1_555 1_555
O15A Cu1 1_555 1_555
Cu1_2 O12A 1_555 1_555
O12A_2 Cu1 1_555 1_555
C1 O15 1_555 1_555
Mo2 O5A 1_555 1_555
Mo3 O5 1_555 1_555
Mo3 O6 1_555 1_555
Mo3 O12 1_555 1_555
Mo4 O5 1_555 1_555
Mo4 O13 1_555 1_555
C4 C5 1_555 1_555
O6 Mo1A 1_555 1_555
C6 C7 1_555 1_555
Mo1A O5A 1_555 1_555
Mo2A O3A 1_555 1_555
Mo2A O4A 1_555 1_555
Mo2A O6A 1_555 1_555
O2A Mo4A 1_555 1_555
Mo3A O5A 1_555 1_555
Mo3A O6A 1_555 1_555
Mo4A O5A 1_555 1_555
Mo4A O13A 1_555 1_555
C1A O15A 1_555 1_555
C2A C3A 1_555 1_555
C4A C5A 1_555 1_555

#END
