
#######################################################################
#
#                 Cambridge Crystallographic Data Centre
#                                CCDC 
#
#######################################################################
#
# If this CIF has been generated from an entry in the Cambridge 
# Structural Database, then it will include bibliographic, chemical, 
# crystal, experimental, refinement or atomic coordinate data resulting 
# from the CCDC's data processing and validation procedures.
#
#######################################################################

data_CITPOM
_symmetry_cell_setting           monoclinic
_symmetry_space_group_name_H-M   'P 21/c'
_symmetry_Int_Tables_number      14
_space_group_name_Hall           '-P 2ybc'
loop_
_symmetry_equiv_pos_site_id
_symmetry_equiv_pos_as_xyz
1 x,y,z
2 -x,1/2+y,1/2-z
3 -x,-y,-z
4 x,1/2-y,1/2+z
_cell_length_a                   11.1850(7)
_cell_length_b                   13.4130(8)
_cell_length_c                   19.3880(10)
_cell_angle_alpha                90
_cell_angle_beta                 124.5830(10)
_cell_angle_gamma                90
_cell_volume                     2394.72
loop_
_atom_site_label
_atom_site_type_symbol
_atom_site_fract_x
_atom_site_fract_y
_atom_site_fract_z
Mo1 Mo 0.26272(4) -0.57098(3) 0.14808(2)
Mo2 Mo -0.02207(4) -0.59077(3) -0.14028(2)
Mo3 Mo 0.11695(4) -0.41385(3) -0.00458(2)
Mo4 Mo 0.12720(4) -0.75354(3) 0.01368(3)
Cu1 Cu 0.17690(6) -0.44988(4) -0.22787(4)
Cu2 Cu 0.46541(7) -0.25354(5) 0.05964(4)
O1 O 0.0923(3) -0.5692(2) 0.00206(17)
O2 O 0.3752(3) -0.4791(3) -0.1258(2)
O3 O 0.1999(3) -0.4299(2) 0.11491(18)
O4 O 0.1603(4) -0.5745(2) -0.2878(2)
O5 O 0.0339(3) -0.5555(2) 0.12100(18)
O6 O 0.5392(4) -0.3502(3) 0.0129(2)
O7 O 0.2078(3) -0.7058(2) 0.1254(2)
O8 O 0.3549(4) -0.1733(3) -0.0435(2)
O9 O 0.2823(4) -0.7457(3) 0.0158(2)
O10 O 0.1023(4) -0.8769(3) 0.0183(3)
O11 O 0.0706(3) -0.2882(2) -0.0085(2)
O12 O 0.2694(3) -0.4104(2) -0.0033(2)
O13 O -0.1602(4) -0.5988(3) -0.2432(2)
O14 O 0.1303(4) -0.5806(3) -0.1400(2)
O15 O 0.3390(4) -0.5651(3) 0.2532(2)
O16 O 0.4054(4) -0.5681(3) 0.1386(2)
O17 O -0.0090(4) -0.7235(2) -0.1035(2)
O18 O 0.1843(3) -0.3278(3) -0.1722(2)
O19 O 0.0496(4) -0.2093(2) -0.1682(2)
O20 O 0.5527(4) -0.1647(3) -0.3399(2)
O21 O 0.5612(4) -0.1364(3) -0.2251(2)
N1 N 0.2604(4) -0.3772(3) -0.3016(3)
N2 N 0.3721(4) -0.3095(3) -0.3891(2)
N3 N -0.0358(4) -0.4165(3) -0.3014(2)
N4 N -0.3175(4) -0.3404(3) -0.3853(2)
C1 C -0.2867(5) -0.4212(4) -0.4111(3)
H1 H -0.3613 -0.4531 -0.4592
C2 C -0.1458(5) -0.4611(4) -0.3689(3)
H2 H -0.1295 -0.5193 -0.3886
C3 C -0.0643(5) -0.3338(3) -0.2753(3)
C4 C -0.2052(5) -0.2967(4) -0.3175(3)
H3 H -0.2217 -0.2389 -0.2976
C5 C 0.0638(5) -0.2858(3) -0.1998(3)
C6 C 0.5136(5) -0.1815(3) -0.2905(3)
C7 C 0.4071(5) -0.2653(3) -0.3179(3)
C8 C 0.3507(5) -0.2994(3) -0.2745(3)
H4 H 0.3762 -0.2673 -0.2254
C9 C 0.2275(6) -0.4210(4) -0.3726(3)
H5 H 0.1663 -0.4762 -0.3923
C10 C 0.2806(6) -0.3876(4) -0.4172(3)
H6 H 0.2534 -0.4190 -0.4669
Mo2B Mo 0.02207(4) -0.40923(3) 0.14028(2)
Mo3B Mo -0.11695(4) -0.58615(3) 0.00458(2)
Mo4B Mo -0.12720(4) -0.24646(3) -0.01368(3)
Cu2C Cu -0.53459(7) -0.24646(5) -0.44036(4)
Cu2C_2 Cu 0.46541(7) -0.24646(5) -0.44036(4)
O1B O -0.0923(3) -0.4308(2) -0.00206(17)
O3B O -0.1999(3) -0.5701(2) -0.11491(18)
O5B O -0.0339(3) -0.4445(2) -0.12100(18)
O11B O -0.0706(3) -0.7118(2) 0.0085(2)
O20C O 0.5527(4) -0.3353(3) 0.1601(2)
N2C N 0.3721(4) -0.1905(3) 0.1109(2)
N4C N 0.6825(4) -0.1596(3) 0.1147(2)
O22 O 0.4795(5) -0.0908(3) -0.1118(3)
loop_
_geom_bond_atom_site_label_1
_geom_bond_atom_site_label_2
_geom_bond_site_symmetry_1
_geom_bond_site_symmetry_2
Mo1 O1 1_555 1_555
Mo2 O1 1_555 1_555
Mo3 O1 1_555 1_555
Mo4 O1 1_555 1_555
Cu1 O2 1_555 1_555
Cu2 O6 1_555 1_555
O1 Mo3B 1_555 1_555
O3 Mo1 1_555 1_555
O4 Cu1 1_555 1_555
O5 Mo1 1_555 1_555
O7 Mo1 1_555 1_555
O8 Cu2 1_555 1_555
O9 Mo4 1_555 1_555
O10 Mo4 1_555 1_555
O11 Mo3 1_555 1_555
O12 Mo3 1_555 1_555
O13 Mo2 1_555 1_555
O14 Mo2 1_555 1_555
O15 Mo1 1_555 1_555
O16 Mo1 1_555 1_555
O17 Mo2 1_555 1_555
O18 Cu1 1_555 1_555
O19 C5 1_555 1_555
O20 C6 1_555 1_555
O21 C6 1_555 1_555
N1 Cu1 1_555 1_555
N2 C7 1_555 1_555
N3 Cu1 1_555 1_555
N4 C1 1_555 1_555
C1 H1 1_555 1_555
C2 N3 1_555 1_555
H2 C2 1_555 1_555
C3 N3 1_555 1_555
C4 N4 1_555 1_555
H3 C4 1_555 1_555
C5 O18 1_555 1_555
C6 C7 1_555 1_555
C7 C8 1_555 1_555
C8 N1 1_555 1_555
H4 C8 1_555 1_555
C9 N1 1_555 1_555
H5 C9 1_555 1_555
C10 N2 1_555 1_555
H6 C10 1_555 1_555
Mo2B O3 1_555 1_555
Mo3B O5 1_555 1_555
Mo4B O11 1_555 1_555
Cu2C N4 1_555 1_555
Cu2C_2 O20 1_555 1_555
O1B Mo3 1_555 1_555
O3B Mo2 1_555 1_555
O5B Mo2 1_555 1_555
O11B Mo4 1_555 1_555
O20C Cu2 1_555 1_555
N2C Cu2 1_555 1_555
N4C Cu2 1_555 1_555
Mo3 O3 1_555 1_555
Mo3 O5B 1_555 1_555
Mo4 O7 1_555 1_555
Mo4 O17 1_555 1_555
Cu1 O14 1_555 1_555
Cu2 O12 1_555 1_555
O5 Mo2B 1_555 1_555
N2 Cu2C_2 1_555 1_555
C1 C2 1_555 1_555
C3 C4 1_555 1_555
C3 C5 1_555 1_555
C9 C10 1_555 1_555
Mo2B O1B 1_555 1_555
Mo3B O1B 1_555 1_555
Mo3B O3B 1_555 1_555
Mo3B O11B 1_555 1_555
Mo4B O1B 1_555 1_555

#END
