
#######################################################################
#
#                 Cambridge Crystallographic Data Centre
#                                CCDC 
#
#######################################################################
#
# If this CIF has been generated from an entry in the Cambridge 
# Structural Database, then it will include bibliographic, chemical, 
# crystal, experimental, refinement or atomic coordinate data resulting 
# from the CCDC's data processing and validation procedures.
#
#######################################################################

data_CITTUW
_symmetry_cell_setting           monoclinic
_symmetry_space_group_name_H-M   'P 2/c'
_symmetry_Int_Tables_number      13
_space_group_name_Hall           '-P 2yc'
loop_
_symmetry_equiv_pos_site_id
_symmetry_equiv_pos_as_xyz
1 x,y,z
2 -x,y,1/2-z
3 -x,-y,-z
4 x,-y,1/2+z
_cell_length_a                   14.539(3)
_cell_length_b                   6.3406(13)
_cell_length_c                   7.2354(14)
_cell_angle_alpha                90
_cell_angle_beta                 104.19(3)
_cell_angle_gamma                90
_cell_volume                     646.651
loop_
_atom_site_label
_atom_site_type_symbol
_atom_site_fract_x
_atom_site_fract_y
_atom_site_fract_z
Zn1 Zn 0.5000 0.31643(17) 0.7500
O1 O 0.5000 0.0044(13) 0.7500
O2 O 0.3767(4) 0.4184(10) 0.6071(9)
C1 C 0.2731(5) 0.6805(11) 0.4442(10)
C2 C 0.1032(5) 0.6549(12) 0.3883(11)
H1 H 0.0486 0.5757 0.3947
C3 C 0.0922(5) 0.8561(11) 0.3094(10)
C4 C 0.1926(5) 0.5674(12) 0.4580(10)
H2 H 0.1990 0.4314 0.5147
O3 O 0.0000 1.1620(14) 0.2500
C5 C 0.2631(5) 0.8807(12) 0.3612(11)
C6 C 0.0000 0.9694(17) 0.2500
C7 C 0.1733(5) 0.9689(12) 0.2974(11)
H3 H 0.322(5) 0.956(12) 0.358(11)
H4 H 0.167(6) 1.105(13) 0.216(11)
O4 O 0.4421(4) 0.6959(8) 0.5033(8)
C8 C 0.3702(5) 0.5926(11) 0.5209(10)
H5 H 0.525(6) -0.091(14) 0.842(12)
H5A H 0.475(6) -0.091(14) 0.658(12)
O2A O -0.3767(4) 0.4184(10) -0.1071(9)
C1A C -0.2731(5) 0.6805(11) 0.0558(10)
C2A C -0.1032(5) 0.6549(12) 0.1117(11)
H1A H -0.0486 0.5757 0.1053
C3A C -0.0922(5) 0.8561(11) 0.1906(10)
C4A C -0.1926(5) 0.5674(12) 0.0420(10)
H2A H -0.1990 0.4314 -0.0147
C5A C -0.2631(5) 0.8807(12) 0.1388(11)
C7A C -0.1733(5) 0.9689(12) 0.2026(11)
H3A H -0.322(5) 0.956(12) 0.142(11)
H4A H -0.167(6) 1.105(13) 0.284(11)
O4A O -0.4421(4) 0.6959(8) -0.0033(8)
C8A C -0.3702(5) 0.5926(11) -0.0209(10)
Zn1_2 Zn -0.5000 0.31643(17) -0.2500
Zn1B Zn -0.5000 0.68357(17) 0.2500
Zn1B_2 Zn 0.5000 0.68357(17) 0.2500
O2A_2 O 0.6233(4) 0.4184(10) 0.8929(9)
O4B O 0.5579(4) 0.3041(8) 0.4967(8)
O4C O 0.4421(4) 0.3041(8) 1.0033(8)
loop_
_geom_bond_atom_site_label_1
_geom_bond_atom_site_label_2
_geom_bond_site_symmetry_1
_geom_bond_site_symmetry_2
Zn1 O1 1_555 1_555
O1 H5 1_555 1_555
O2 Zn1 1_555 1_555
C1 C4 1_555 1_555
C2 H1 1_555 1_555
C3 C2 1_555 1_555
C4 C2 1_555 1_555
H2 C4 1_555 1_555
O3 C6 1_555 1_555
C5 C1 1_555 1_555
C6 C3 1_555 1_555
C7 C3 1_555 1_555
H3 C5 1_555 1_555
H4 C7 1_555 1_555
O4 C8 1_555 1_555
C8 O2 1_555 1_555
H5A O1 1_555 1_555
O2A C8A 1_555 1_555
C1A C4A 1_555 1_555
C2A H1A 1_555 1_555
C3A C6 1_555 1_555
C4A C2A 1_555 1_555
H2A C4A 1_555 1_555
C5A C1A 1_555 1_555
C7A C3A 1_555 1_555
H3A C5A 1_555 1_555
H4A C7A 1_555 1_555
O4A C8A 1_555 1_555
C8A C1A 1_555 1_555
Zn1_2 O2A 1_555 1_555
Zn1B O4A 1_555 1_555
Zn1B_2 O4 1_555 1_555
O2A_2 Zn1 1_555 1_555
O4B Zn1 1_555 1_555
O4C Zn1 1_555 1_555
C1 C8 1_555 1_555
C5 C7 1_555 1_555
C2A C3A 1_555 1_555
C5A C7A 1_555 1_555

#END
