
#######################################################################
#
#                 Cambridge Crystallographic Data Centre
#                                CCDC 
#
#######################################################################
#
# If this CIF has been generated from an entry in the Cambridge 
# Structural Database, then it will include bibliographic, chemical, 
# crystal, experimental, refinement or atomic coordinate data resulting 
# from the CCDC's data processing and validation procedures.
#
#######################################################################

data_CITTUV
_symmetry_cell_setting           monoclinic
_symmetry_space_group_name_H-M   'P 21/c'
_symmetry_Int_Tables_number      14
_space_group_name_Hall           '-P 2ybc'
loop_
_symmetry_equiv_pos_site_id
_symmetry_equiv_pos_as_xyz
1 x,y,z
2 -x,1/2+y,1/2-z
3 -x,-y,-z
4 x,1/2-y,1/2+z
_cell_length_a                   8.520(1)
_cell_length_b                   17.573(2)
_cell_length_c                   9.483(2)
_cell_angle_alpha                90
_cell_angle_beta                 102.185(9)
_cell_angle_gamma                90
_cell_volume                     1387.83
loop_
_atom_site_label
_atom_site_type_symbol
_atom_site_fract_x
_atom_site_fract_y
_atom_site_fract_z
Cu1 Cu 0.26963(6) 0.64197(3) 0.22629(6)
N1 N 0.3538(4) 0.6850(2) 0.0460(4)
N2 N 0.4626(4) 0.5689(2) 0.2190(4)
N3 N 0.3710(4) 0.7783(2) -0.1315(4)
C1 C 0.2976(5) 0.7441(2) -0.0366(5)
C2 C 0.5161(5) 0.7499(3) -0.1397(5)
C3 C 0.5823(5) 0.6873(3) -0.0614(5)
C4 C 0.6804(5) 0.5429(3) 0.1023(5)
C5 C 0.7249(6) 0.4795(3) 0.1898(6)
C6 C 0.6343(6) 0.4612(3) 0.2916(5)
C7 C 0.5027(6) 0.5065(3) 0.3018(5)
C8 C 0.4963(5) 0.6540(2) 0.0326(5)
C9 C 0.5500(5) 0.5866(2) 0.1204(5)
C10 C 0.0502(6) 0.6138(3) 0.2626(7)
C11 C 0.0667(6) 0.5827(4) 0.1404(6)
H1 H 0.4391 0.4928 0.3690
H2 H 0.6835 0.6676 -0.0710
H3 H 0.7384 0.5561 0.0306
H4 H 0.8147 0.4494 0.1803
H5 H 0.5749 0.7740 -0.2019
H6 H 0.1963 0.7638 -0.0275
H7 H 0.6624 0.4186 0.3535
H8 H 0.0008 0.6010 0.0536
H9 H 0.0738 0.5288 0.1363
H10 H 0.0460 0.5810 0.3414
H11 H -0.0270 0.6532 0.2586
Cu1C Cu 0.26963(6) 0.85803(3) -0.27371(6)
N3C N 0.3710(4) 0.7217(2) 0.3685(4)
P1 P -0.1295(2) 0.84886(7) 0.1428(1)
F1 F -0.3104(5) 0.8687(3) 0.0783(7)
F2 F -0.1914(5) 0.7731(2) 0.2054(4)
F3 F -0.1172(6) 0.8028(3) 0.0033(5)
F4 F -0.0680(7) 0.9238(2) 0.0840(4)
F5 F 0.0503(5) 0.8275(3) 0.2143(7)
F6 F -0.1393(6) 0.8930(3) 0.2869(4)
loop_
_geom_bond_atom_site_label_1
_geom_bond_atom_site_label_2
_geom_bond_site_symmetry_1
_geom_bond_site_symmetry_2
Cu1 N1 1_555 1_555
P1 F1 1_555 1_555
F2 P1 1_555 1_555
F3 P1 1_555 1_555
F4 P1 1_555 1_555
F5 P1 1_555 1_555
F6 P1 1_555 1_555
N1 C1 1_555 1_555
N2 Cu1 1_555 1_555
N3 C1 1_555 1_555
C1 H6 1_555 1_555
C2 N3 1_555 1_555
C3 C2 1_555 1_555
C4 C5 1_555 1_555
C5 C6 1_555 1_555
C6 C7 1_555 1_555
C7 N2 1_555 1_555
C8 N1 1_555 1_555
C9 N2 1_555 1_555
C10 Cu1 1_555 1_555
C11 Cu1 1_555 1_555
H1 C7 1_555 1_555
H2 C3 1_555 1_555
H3 C4 1_555 1_555
H4 C5 1_555 1_555
H5 C2 1_555 1_555
H7 C6 1_555 1_555
H8 C11 1_555 1_555
H9 C11 1_555 1_555
H10 C10 1_555 1_555
H11 C10 1_555 1_555
Cu1C N3 1_555 1_555
N3C Cu1 1_555 1_555
C3 C8 1_555 1_555
C4 C9 1_555 1_555
C8 C9 1_555 1_555
C10 C11 1_555 1_555

#END
