
#######################################################################
#
#                 Cambridge Crystallographic Data Centre
#                                CCDC 
#
#######################################################################
#
# If this CIF has been generated from an entry in the Cambridge 
# Structural Database, then it will include bibliographic, chemical, 
# crystal, experimental, refinement or atomic coordinate data resulting 
# from the CCDC's data processing and validation procedures.
#
#######################################################################

data_CITVAE
_symmetry_cell_setting           monoclinic
_symmetry_space_group_name_H-M   'P 2/c'
_symmetry_Int_Tables_number      13
_space_group_name_Hall           '-P 2yc'
loop_
_symmetry_equiv_pos_site_id
_symmetry_equiv_pos_as_xyz
1 x,y,z
2 -x,y,1/2-z
3 -x,-y,-z
4 x,-y,1/2+z
_cell_length_a                   14.848(6)
_cell_length_b                   6.391(2)
_cell_length_c                   7.149(3)
_cell_angle_alpha                90
_cell_angle_beta                 103.090(4)
_cell_angle_gamma                90
_cell_volume                     660.766
loop_
_atom_site_label
_atom_site_type_symbol
_atom_site_fract_x
_atom_site_fract_y
_atom_site_fract_z
Cd1 Cd 0.5000 0.66066(3) 0.7500
O1 O 0.57104(10) 0.6750(2) 0.4815(2)
C1 C 0.73697(12) 0.6729(3) 0.5565(2)
C2 C 0.64470(12) 0.5730(3) 0.4822(2)
O2 O 0.64228(10) 0.3899(3) 0.4187(3)
C3 C 0.74347(13) 0.8727(3) 0.6339(3)
O3 O 1.0000 1.1633(3) 0.7500
O4 O 0.5000 1.0072(4) 0.7500
C4 C 0.90283(13) 0.6579(3) 0.6095(3)
C5 C 0.90987(12) 0.8576(3) 0.6877(3)
C6 C 0.82917(12) 0.9653(3) 0.6988(3)
C7 C 0.81694(12) 0.5652(3) 0.5435(3)
C8 C 1.0000 0.9737(4) 0.7500
H1 H 0.9540(17) 0.589(4) 0.601(3)
H2 H 0.6913(16) 0.943(4) 0.641(3)
H3 H 0.8122(16) 0.437(4) 0.495(3)
H4 H 0.8328(16) 1.099(4) 0.745(3)
H5 H 0.521(2) 1.081(5) 0.837(4)
O1A O 1.42896(10) 0.6750(2) 1.0185(2)
C1A C 1.26303(12) 0.6729(3) 0.9435(2)
C2A C 1.35530(12) 0.5730(3) 1.0178(2)
O2A O 1.35772(10) 0.3899(3) 1.0813(3)
C3A C 1.25653(13) 0.8727(3) 0.8661(3)
C4A C 1.09717(13) 0.6579(3) 0.8905(3)
C5A C 1.09013(12) 0.8576(3) 0.8123(3)
C6A C 1.17083(12) 0.9653(3) 0.8012(3)
C7A C 1.18306(12) 0.5652(3) 0.9565(3)
H1A H 1.0460(17) 0.589(4) 0.899(3)
H2A H 1.3087(16) 0.943(4) 0.859(3)
H3A H 1.1878(16) 0.437(4) 1.005(3)
H4A H 1.1672(16) 1.099(4) 0.755(3)
H5A H 0.479(2) 1.081(5) 0.663(4)
Cd1_2 Cd 1.5000 0.66066(3) 0.7500
Cd1B Cd 0.5000 0.33934(3) 0.2500
Cd1B_2 Cd 1.5000 0.33934(3) 1.2500
O1A_2 O 0.42896(10) 0.6750(2) 1.0185(2)
O1B O 0.42896(10) 0.3250(2) 0.5185(2)
O1C O 0.57104(10) 0.3250(2) 0.9815(2)
O2B O 0.35772(10) 0.6101(3) 0.5813(3)
O2C O 0.64228(10) 0.6101(3) 0.9187(3)
loop_
_geom_bond_atom_site_label_1
_geom_bond_atom_site_label_2
_geom_bond_site_symmetry_1
_geom_bond_site_symmetry_2
Cd1 O1 1_555 1_555
O1 C2 1_555 1_555
C1 C2 1_555 1_555
C2 O2 1_555 1_555
O2 Cd1B 1_555 1_555
C3 C1 1_555 1_555
O3 C8 1_555 1_555
O4 Cd1 1_555 1_555
C4 C5 1_555 1_555
C5 C6 1_555 1_555
C6 C3 1_555 1_555
C7 C1 1_555 1_555
C8 C5 1_555 1_555
H1 C4 1_555 1_555
H2 C3 1_555 1_555
H3 C7 1_555 1_555
H4 C6 1_555 1_555
H5 O4 1_555 1_555
O1A C2A 1_555 1_555
C1A C2A 1_555 1_555
C2A O2A 1_555 1_555
O2A Cd1B_2 1_555 1_555
C3A C1A 1_555 1_555
C4A C5A 1_555 1_555
C5A C8 1_555 1_555
C6A C3A 1_555 1_555
C7A C1A 1_555 1_555
H1A C4A 1_555 1_555
H2A C3A 1_555 1_555
H3A C7A 1_555 1_555
H4A C6A 1_555 1_555
H5A O4 1_555 1_555
Cd1_2 O1A 1_555 1_555
Cd1B O1 1_555 1_555
Cd1B_2 O1A 1_555 1_555
O1A_2 Cd1 1_555 1_555
O1B Cd1 1_555 1_555
O1C Cd1 1_555 1_555
O2B Cd1 1_555 1_555
O2C Cd1 1_555 1_555
C4 C7 1_555 1_555
C4A C7A 1_555 1_555
C5A C6A 1_555 1_555
Cd1B O1B 1_555 1_555

#END
