
#######################################################################
#
#                 Cambridge Crystallographic Data Centre
#                                CCDC 
#
#######################################################################
#
# If this CIF has been generated from an entry in the Cambridge 
# Structural Database, then it will include bibliographic, chemical, 
# crystal, experimental, refinement or atomic coordinate data resulting 
# from the CCDC's data processing and validation procedures.
#
#######################################################################

data_CITWOS
_symmetry_cell_setting           orthorhombic
_symmetry_space_group_name_H-M   'P b c a'
_symmetry_Int_Tables_number      61
_space_group_name_Hall           '-P 2ac 2ab'
loop_
_symmetry_equiv_pos_site_id
_symmetry_equiv_pos_as_xyz
1 x,y,z
2 1/2-x,-y,1/2+z
3 -x,1/2+y,1/2-z
4 1/2+x,1/2-y,-z
5 -x,-y,-z
6 1/2+x,y,1/2-z
7 x,1/2-y,1/2+z
8 1/2-x,1/2+y,z
_cell_length_a                   10.9385(3)
_cell_length_b                   19.5849(5)
_cell_length_c                   32.2466(8)
_cell_angle_alpha                90
_cell_angle_beta                 90
_cell_angle_gamma                90
_cell_volume                     6908.17
loop_
_atom_site_label
_atom_site_type_symbol
_atom_site_fract_x
_atom_site_fract_y
_atom_site_fract_z
K1 K 0.63759(4) 0.07816(2) 0.346095(12)
K2 K 0.90754(4) -0.01377(2) 0.387246(12)
Cl1 Cl 0.31084(5) -0.22707(3) 0.31240(2)
Cl2 Cl 0.75413(9) 0.30036(4) 0.53369(3)
O1 O 0.73732(12) -0.04826(6) 0.33344(4)
O2 O 0.75349(13) 0.07137(7) 0.41680(4)
O3 O 0.48739(16) 0.11038(8) 0.27641(5)
O4 O 0.35871(16) 0.10381(9) 0.20017(5)
O5 O 0.57537(14) 0.21295(7) 0.36453(5)
O6 O 0.52270(13) 0.35277(7) 0.37818(5)
O7 O 1.02853(16) -0.02663(8) 0.46035(5)
O8 O 0.14511(13) 0.02922(9) 0.37267(5)
O9 O 0.40039(13) 0.05144(8) 0.37052(5)
C1 C 0.64624(16) -0.09033(9) 0.32876(6)
C2 C 0.60249(17) -0.10837(9) 0.28849(6)
C3 C 0.50020(18) -0.15035(10) 0.28402(7)
H1 H 0.4707 -0.1613 0.2571
C4 C 0.44176(18) -0.17595(10) 0.31868(7)
C5 C 0.48417(19) -0.16187(10) 0.35817(7)
H2 H 0.4438 -0.1807 0.3816
C6 C 0.58625(17) -0.11996(9) 0.36369(6)
C7 C 0.6684(2) -0.08017(11) 0.25124(7)
H3 H 0.6261 -0.0945 0.2259
H4 H 0.7525 -0.0974 0.2509
H5 H 0.6696 -0.0302 0.2527
C8 C 0.6346(2) -0.10409(11) 0.40634(6)
H6 H 0.5782 -0.1221 0.4273
H7 H 0.6419 -0.0545 0.4097
H8 H 0.7151 -0.1253 0.4098
C9 C 0.75566(17) 0.12151(9) 0.44328(6)
C10 C 0.66825(18) 0.12556(10) 0.47584(6)
C11 C 0.6702(2) 0.17989(12) 0.50354(7)
H9 H 0.6118 0.1821 0.5253
C12 C 0.7568(2) 0.23049(12) 0.49950(8)
C13 C 0.8446(2) 0.22776(11) 0.46885(8)
H10 H 0.9044 0.2628 0.4669
C14 C 0.84563(18) 0.17378(10) 0.44090(7)
C15 C 0.5730(2) 0.07106(13) 0.47871(9)
H11 H 0.5188 0.0806 0.5022
H12 H 0.6126 0.0267 0.4828
H13 H 0.5252 0.0701 0.4530
C16 C 0.9411(2) 0.16818(13) 0.40771(9)
H14 H 0.9943 0.2084 0.4086
H15 H 0.9014 0.1655 0.3805
H16 H 0.9901 0.1270 0.4123
C17 C 0.4291(2) 0.04929(11) 0.26256(7)
H17 H 0.3453 0.0475 0.2741
H18 H 0.4747 0.0094 0.2734
C18 C 0.4223(2) 0.04421(13) 0.21678(7)
H19 H 0.5058 0.0418 0.2050
H20 H 0.3780 0.0021 0.2089
C19 C 0.4175(3) 0.16461(13) 0.21366(8)
H21 H 0.3711 0.2047 0.2036
H22 H 0.5006 0.1667 0.2016
C20 C 0.4265(3) 0.16760(13) 0.25946(9)
H23 H 0.4708 0.2096 0.2675
H24 H 0.3431 0.1703 0.2713
C21 C 0.6366(2) 0.26558(11) 0.34180(7)
H25 H 0.6578 0.2486 0.3138
H26 H 0.7135 0.2780 0.3562
C22 C 0.5562(2) 0.32778(10) 0.33803(6)
H27 H 0.6003 0.3639 0.3226
H28 H 0.4816 0.3160 0.3222
C23 C 0.46182(19) 0.30004(10) 0.40114(7)
H29 H 0.3849 0.2874 0.3869
H30 H 0.4409 0.3171 0.4292
C24 C 0.5430(2) 0.23818(10) 0.40482(7)
H31 H 0.6181 0.2504 0.4203
H32 H 0.4999 0.2020 0.4205
C25 C 0.9623(2) -0.06581(13) 0.48997(7)
H33 H 1.0200 -0.0936 0.5066
H34 H 0.9059 -0.0972 0.4754
C26 C 1.1094(2) 0.01969(14) 0.48175(8)
H35 H 1.1549 0.0475 0.4613
H36 H 1.1695 -0.0067 0.4982
C27 C 0.2300(2) -0.02622(12) 0.37390(10)
H37 H 0.2457 -0.0427 0.3454
H38 H 0.1948 -0.0644 0.3901
C28 C 0.1970(2) 0.08605(14) 0.35125(8)
H39 H 0.1393 0.1250 0.3522
H40 H 0.2100 0.0738 0.3218
C29 C 0.3165(2) 0.10697(11) 0.37020(8)
H41 H 0.3516 0.1453 0.3542
H42 H 0.3025 0.1229 0.3990
C30 C 0.3482(2) -0.00378(13) 0.39340(9)
H43 H 0.3330 0.0108 0.4223
H44 H 0.4062 -0.0426 0.3940
K1E K 1.13759(4) 0.07816(2) 0.153905(12)
K1E_2 K 0.13759(4) 0.07816(2) 0.153905(12)
K1G K 0.86241(4) -0.42184(2) 0.346095(12)
K1_2 K 1.63759(4) 0.07816(2) 0.346095(12)
K2G K 0.59246(4) 0.48623(2) 0.387246(12)
K2_2 K -0.09246(4) -0.01377(2) 0.387246(12)
K2D K 1.09246(4) 0.01377(2) 0.612754(12)
K2E K 1.40754(4) -0.01377(2) 0.112754(12)
Cl1E Cl 0.81084(5) -0.22707(3) 0.18760(2)
Cl2E Cl 1.25413(9) 0.30036(4) -0.03369(3)
O1E O 1.23732(12) -0.04826(6) 0.16656(4)
O1G O 0.76268(12) 0.45174(6) 0.33344(4)
O2E O 1.25349(13) 0.07137(7) 0.08320(4)
O2G O 0.74651(13) 0.57137(7) 0.41680(4)
O3E O 0.98739(16) 0.11038(8) 0.22359(5)
O4E O 0.85871(16) 0.10381(9) 0.29983(5)
O4_2 O 1.35871(16) 0.10381(9) 0.20017(5)
O5G O 0.92463(14) -0.28705(7) 0.36453(5)
O5E O 1.07537(14) 0.21295(7) 0.13547(5)
O6G O 0.97730(13) -0.14723(7) 0.37818(5)
O7D O 0.97147(16) 0.02663(8) 0.53965(5)
O7G O 0.47147(16) 0.47337(8) 0.46035(5)
O8_2 O 1.14511(13) 0.02922(9) 0.37267(5)
O8G O 0.35489(13) 0.52922(9) 0.37267(5)
O9_2 O 1.40039(13) 0.05144(8) 0.37052(5)
O9E O 0.90039(13) 0.05144(8) 0.12948(5)
C1E C 1.14624(16) -0.09033(9) 0.17124(6)
C2E C 1.10249(17) -0.10837(9) 0.21151(6)
C3E C 1.00020(18) -0.15035(10) 0.21598(7)
H1E H 0.9707 -0.1613 0.2429
C4E C 0.94176(18) -0.17595(10) 0.18132(7)
C5E C 0.98417(19) -0.16187(10) 0.14183(7)
H2E H 0.9438 -0.1807 0.1184
C6E C 1.08625(17) -0.11996(9) 0.13631(6)
C7E C 1.1684(2) -0.08017(11) 0.24876(7)
H3E H 1.1261 -0.0945 0.2741
H4E H 1.2525 -0.0974 0.2491
H5E H 1.1696 -0.0302 0.2473
C8E C 1.1346(2) -0.10409(11) 0.09366(6)
H6E H 1.0782 -0.1221 0.0727
H7E H 1.1419 -0.0545 0.0903
H8E H 1.2151 -0.1253 0.0902
C9E C 1.25566(17) 0.12151(9) 0.05672(6)
C10E C 1.16825(18) 0.12556(10) 0.02416(6)
C11E C 1.1702(2) 0.17989(12) -0.00354(7)
H9E H 1.1118 0.1821 -0.0253
C12E C 1.2568(2) 0.23049(12) 0.00050(8)
C13E C 1.3446(2) 0.22776(11) 0.03115(8)
H10E H 1.4044 0.2628 0.0331
C14E C 1.34563(18) 0.17378(10) 0.05910(7)
C15E C 1.0730(2) 0.07106(13) 0.02129(9)
H11E H 1.0188 0.0806 -0.0022
H12E H 1.1126 0.0267 0.0172
H13E H 1.0252 0.0701 0.0470
C16E C 1.4411(2) 0.16818(13) 0.09229(9)
H14E H 1.4943 0.2084 0.0914
H15E H 1.4014 0.1655 0.1195
H16E H 1.4901 0.1270 0.0877
C17E C 0.9291(2) 0.04929(11) 0.23744(7)
H17E H 0.8453 0.0475 0.2259
H18E H 0.9747 0.0094 0.2266
C18E C 0.9223(2) 0.04421(13) 0.28322(7)
H19E H 1.0058 0.0418 0.2950
H20E H 0.8780 0.0021 0.2911
C19E C 0.9175(3) 0.16461(13) 0.28634(8)
H21E H 0.8711 0.2047 0.2964
H22E H 1.0006 0.1667 0.2984
C20E C 0.9265(3) 0.16760(13) 0.24054(9)
H23E H 0.9708 0.2096 0.2325
H24E H 0.8431 0.1703 0.2287
C21G C 0.8634(2) -0.23442(11) 0.34180(7)
H25G H 0.8422 -0.2514 0.3138
H26G H 0.7865 -0.2220 0.3562
C22G C 0.9438(2) -0.17222(10) 0.33803(6)
H27G H 0.8997 -0.1361 0.3226
H28G H 1.0184 -0.1840 0.3222
C23G C 1.03818(19) -0.19996(10) 0.40114(7)
H29G H 1.1151 -0.2126 0.3869
H30G H 1.0591 -0.1829 0.4292
C24G C 0.9570(2) -0.26182(10) 0.40482(7)
H31G H 0.8819 -0.2496 0.4203
H32G H 1.0001 -0.2980 0.4205
C25D C 1.0377(2) 0.06581(13) 0.51003(7)
H33D H 0.9800 0.0936 0.4934
H34D H 1.0941 0.0972 0.5246
C26D C 0.8906(2) -0.01969(14) 0.51825(8)
H35D H 0.8451 -0.0475 0.5387
H36D H 0.8305 0.0067 0.5018
C27_2 C 1.2300(2) -0.02622(12) 0.37390(10)
H37_2 H 1.2457 -0.0427 0.3454
H38_2 H 1.1948 -0.0644 0.3901
C28_2 C 1.1970(2) 0.08605(14) 0.35125(8)
H39_2 H 1.1393 0.1250 0.3522
H40_2 H 1.2100 0.0738 0.3218
C29_2 C 1.3165(2) 0.10697(11) 0.37020(8)
H41_2 H 1.3516 0.1453 0.3542
H42_2 H 1.3025 0.1229 0.3990
C30_2 C 1.3482(2) -0.00378(13) 0.39340(9)
H43_2 H 1.3330 0.0108 0.4223
H44_2 H 1.4062 -0.0426 0.3940
loop_
_geom_bond_atom_site_label_1
_geom_bond_atom_site_label_2
_geom_bond_site_symmetry_1
_geom_bond_site_symmetry_2
K1 O1 1_555 1_555
K2 O1 1_555 1_555
Cl1 C4 1_555 1_555
Cl2 C12 1_555 1_555
O1 C1 1_555 1_555
O2 K1 1_555 1_555
O3 K1 1_555 1_555
O4 C18 1_555 1_555
O5 K1 1_555 1_555
O6 C22 1_555 1_555
O7 K2 1_555 1_555
O8 C27 1_555 1_555
O9 K1 1_555 1_555
C1 C2 1_555 1_555
C2 C3 1_555 1_555
C3 H1 1_555 1_555
C4 C3 1_555 1_555
C5 C4 1_555 1_555
H2 C5 1_555 1_555
C6 C1 1_555 1_555
C7 C2 1_555 1_555
H3 C7 1_555 1_555
H4 C7 1_555 1_555
H5 C7 1_555 1_555
C8 C6 1_555 1_555
H6 C8 1_555 1_555
H7 C8 1_555 1_555
H8 C8 1_555 1_555
C9 O2 1_555 1_555
C10 C9 1_555 1_555
C11 C10 1_555 1_555
H9 C11 1_555 1_555
C12 C11 1_555 1_555
C13 C12 1_555 1_555
H10 C13 1_555 1_555
C14 C9 1_555 1_555
C15 C10 1_555 1_555
H11 C15 1_555 1_555
H12 C15 1_555 1_555
H13 C15 1_555 1_555
C16 C14 1_555 1_555
H14 C16 1_555 1_555
H15 C16 1_555 1_555
H16 C16 1_555 1_555
C17 O3 1_555 1_555
H17 C17 1_555 1_555
H18 C17 1_555 1_555
C18 C17 1_555 1_555
H19 C18 1_555 1_555
H20 C18 1_555 1_555
C19 O4 1_555 1_555
H21 C19 1_555 1_555
H22 C19 1_555 1_555
C20 O3 1_555 1_555
H23 C20 1_555 1_555
H24 C20 1_555 1_555
C21 O5 1_555 1_555
H25 C21 1_555 1_555
H26 C21 1_555 1_555
C22 C21 1_555 1_555
H27 C22 1_555 1_555
H28 C22 1_555 1_555
C23 O6 1_555 1_555
H29 C23 1_555 1_555
H30 C23 1_555 1_555
C24 O5 1_555 1_555
H31 C24 1_555 1_555
H32 C24 1_555 1_555
C25 O7 1_555 1_555
H33 C25 1_555 1_555
H34 C25 1_555 1_555
C26 O7 1_555 1_555
H35 C26 1_555 1_555
H36 C26 1_555 1_555
C27 H37 1_555 1_555
H38 C27 1_555 1_555
C28 O8 1_555 1_555
H39 C28 1_555 1_555
H40 C28 1_555 1_555
C29 O9 1_555 1_555
H41 C29 1_555 1_555
H42 C29 1_555 1_555
C30 O9 1_555 1_555
H43 C30 1_555 1_555
H44 C30 1_555 1_555
K1E O1E 1_555 1_555
K1E_2 O4 1_555 1_555
K1G O5G 1_555 1_555
K1_2 O9_2 1_555 1_555
K2G O6 1_555 1_555
K2_2 O8 1_555 1_555
K2D O7D 1_555 1_555
K2E O1E 1_555 1_555
Cl1E C4E 1_555 1_555
Cl2E C12E 1_555 1_555
O1E C1E 1_555 1_555
O1G K2G 1_555 1_555
O2E K1E 1_555 1_555
O2G K2G 1_555 1_555
O3E K1E 1_555 1_555
O4E K1 1_555 1_555
O4_2 K1E 1_555 1_555
O5G C21G 1_555 1_555
O5E K1E 1_555 1_555
O6G K2 1_555 1_555
O7D C25D 1_555 1_555
O7G K2G 1_555 1_555
O8_2 K2 1_555 1_555
O8G K2G 1_555 1_555
O9_2 C29_2 1_555 1_555
O9E K1E 1_555 1_555
C1E C2E 1_555 1_555
C2E C3E 1_555 1_555
C3E H1E 1_555 1_555
C4E C3E 1_555 1_555
C5E C4E 1_555 1_555
H2E C5E 1_555 1_555
C6E C1E 1_555 1_555
C7E C2E 1_555 1_555
H3E C7E 1_555 1_555
H4E C7E 1_555 1_555
H5E C7E 1_555 1_555
C8E C6E 1_555 1_555
H6E C8E 1_555 1_555
H7E C8E 1_555 1_555
H8E C8E 1_555 1_555
C9E O2E 1_555 1_555
C10E C9E 1_555 1_555
C11E C10E 1_555 1_555
H9E C11E 1_555 1_555
C12E C11E 1_555 1_555
C13E C12E 1_555 1_555
H10E C13E 1_555 1_555
C14E C9E 1_555 1_555
C15E C10E 1_555 1_555
H11E C15E 1_555 1_555
H12E C15E 1_555 1_555
H13E C15E 1_555 1_555
C16E C14E 1_555 1_555
H14E C16E 1_555 1_555
H15E C16E 1_555 1_555
H16E C16E 1_555 1_555
C17E O3E 1_555 1_555
H17E C17E 1_555 1_555
H18E C17E 1_555 1_555
C18E O4E 1_555 1_555
H19E C18E 1_555 1_555
H20E C18E 1_555 1_555
C19E O4E 1_555 1_555
H21E C19E 1_555 1_555
H22E C19E 1_555 1_555
C20E O3E 1_555 1_555
H23E C20E 1_555 1_555
H24E C20E 1_555 1_555
C21G H25G 1_555 1_555
H26G C21G 1_555 1_555
C22G O6G 1_555 1_555
H27G C22G 1_555 1_555
H28G C22G 1_555 1_555
C23G O6G 1_555 1_555
H29G C23G 1_555 1_555
H30G C23G 1_555 1_555
C24G O5G 1_555 1_555
H31G C24G 1_555 1_555
H32G C24G 1_555 1_555
C25D C26 1_555 1_555
H33D C25D 1_555 1_555
H34D C25D 1_555 1_555
C26D C25 1_555 1_555
H35D C26D 1_555 1_555
H36D C26D 1_555 1_555
C27_2 O8_2 1_555 1_555
H37_2 C27_2 1_555 1_555
H38_2 C27_2 1_555 1_555
C28_2 O8_2 1_555 1_555
H39_2 C28_2 1_555 1_555
H40_2 C28_2 1_555 1_555
C29_2 C28_2 1_555 1_555
H41_2 C29_2 1_555 1_555
H42_2 C29_2 1_555 1_555
C30_2 O9_2 1_555 1_555
H43_2 C30_2 1_555 1_555
H44_2 C30_2 1_555 1_555
K2 O2 1_555 1_555
C5 C6 1_555 1_555
C13 C14 1_555 1_555
C19 C20 1_555 1_555
C23 C24 1_555 1_555
C27 C30 1_555 1_555
C28 C29 1_555 1_555
K2E O2E 1_555 1_555
O7D C26D 1_555 1_555
C5E C6E 1_555 1_555
C13E C14E 1_555 1_555
C17E C18E 1_555 1_555
C19E C20E 1_555 1_555
C21G C22G 1_555 1_555
C23G C24G 1_555 1_555
C27_2 C30_2 1_555 1_555

#END
