
#######################################################################
#
#                 Cambridge Crystallographic Data Centre
#                                CCDC 
#
#######################################################################
#
# If this CIF has been generated from an entry in the Cambridge 
# Structural Database, then it will include bibliographic, chemical, 
# crystal, experimental, refinement or atomic coordinate data resulting 
# from the CCDC's data processing and validation procedures.
#
#######################################################################

data_CITXEJ
_symmetry_cell_setting           monoclinic
_symmetry_space_group_name_H-M   'P 21/n'
_symmetry_Int_Tables_number      14
_space_group_name_Hall           '-P 2yn'
loop_
_symmetry_equiv_pos_site_id
_symmetry_equiv_pos_as_xyz
1 x,y,z
2 1/2-x,1/2+y,1/2-z
3 -x,-y,-z
4 1/2+x,1/2-y,1/2+z
_cell_length_a                   19.0470(4)
_cell_length_b                   20.6118(5)
_cell_length_c                   20.0105(5)
_cell_angle_alpha                90
_cell_angle_beta                 91.7130(10)
_cell_angle_gamma                90
_cell_volume                     7852.47
loop_
_atom_site_label
_atom_site_type_symbol
_atom_site_fract_x
_atom_site_fract_y
_atom_site_fract_z
Rb1 Rb 0.661631(13) 0.138358(12) 0.322711(12)
Rb2 Rb 0.412736(13) 0.311666(12) 0.381409(13)
Rb3 Rb 0.444043(13) 0.151281(12) 0.264956(12)
Rb4 Rb 0.591728(13) 0.141159(12) 0.124764(12)
Rb5 Rb 0.573573(13) 0.305033(12) 0.234049(12)
Rb6 Rb 0.845700(14) 0.179990(13) 0.691260(13)
O1 O 0.54381(9) 0.23018(8) 0.34926(8)
O2 O 0.33019(9) 0.23799(8) 0.29521(9)
O3 O 0.56323(9) 0.07652(8) 0.24235(8)
O4 O 0.68271(9) 0.21133(8) 0.21063(8)
O5 O 0.45217(9) 0.37564(8) 0.27153(9)
O6 O 0.47420(9) 0.23364(9) 0.14913(8)
O7 O 0.73332(12) 0.13911(12) 0.45345(10)
O8 O 0.75102(10) 0.01936(9) 0.31244(11)
O9 O 0.31906(11) 0.36547(11) 0.47063(10)
O10 O 0.35297(10) 0.03532(8) 0.23512(9)
O11 O 0.20571(11) 0.40773(11) 0.54581(10)
O12 O 0.54958(10) 0.04624(9) 0.02411(9)
O13 O 0.82797(10) -0.08500(9) 0.25853(10)
O14 O 0.76952(12) 0.10962(11) 0.58687(10)
O15 O 0.26347(10) -0.07516(9) 0.24117(10)
C1 C 0.54258(13) 0.23265(12) 0.41484(13)
C2 C 0.56715(13) 0.28838(12) 0.45174(13)
C3 C 0.56131(14) 0.28968(14) 0.52051(13)
H1 H 0.5774 0.3269 0.5444
C4 C 0.53282(15) 0.23869(15) 0.55593(14)
H2 H 0.5297 0.2407 0.6032
C5 C 0.50914(15) 0.18516(15) 0.52112(14)
H3 H 0.4892 0.1499 0.5445
C6 C 0.51404(14) 0.18206(13) 0.45232(13)
H4 H 0.4975 0.1443 0.4296
C7 C 0.60037(14) 0.34354(12) 0.41352(13)
H5 H 0.5701 0.3519 0.3728
C8 C 0.60689(18) 0.40724(14) 0.45216(16)
H6 H 0.5607 0.4199 0.4680
H7 H 0.6247 0.4411 0.4228
H8 H 0.6395 0.4015 0.4905
C9 C 0.67270(15) 0.32288(14) 0.39006(15)
H9 H 0.7037 0.3143 0.4290
H10 H 0.6927 0.3577 0.3632
H11 H 0.6680 0.2834 0.3629
C10 C 0.28980(14) 0.19868(12) 0.32871(13)
C11 C 0.21613(14) 0.19323(12) 0.31336(13)
C12 C 0.17673(15) 0.14877(13) 0.34827(14)
H12 H 0.1279 0.1453 0.3379
C13 C 0.20576(16) 0.10906(14) 0.39783(14)
H13 H 0.1775 0.0784 0.4201
C14 C 0.27624(16) 0.11475(13) 0.41418(14)
H14 H 0.2968 0.0882 0.4483
C15 C 0.31731(14) 0.15923(13) 0.38077(13)
H15 H 0.3656 0.1632 0.3934
C16 C 0.18485(14) 0.23381(13) 0.25676(14)
H16 H 0.2100 0.2764 0.2572
C17 C 0.10643(14) 0.24790(15) 0.26353(17)
H17 H 0.0798 0.2073 0.2592
H18 H 0.0908 0.2781 0.2283
H19 H 0.0985 0.2672 0.3074
C18 C 0.19713(16) 0.20181(15) 0.18910(14)
H20 H 0.2475 0.1940 0.1843
H21 H 0.1799 0.2305 0.1531
H22 H 0.1718 0.1604 0.1865
C19 C 0.55688(13) 0.01322(12) 0.24511(13)
C20 C 0.53365(13) -0.01987(13) 0.30301(13)
C21 C 0.52594(14) -0.08696(13) 0.30188(14)
H23 H 0.5100 -0.1083 0.3407
C22 C 0.54069(15) -0.12358(14) 0.24613(14)
H24 H 0.5339 -0.1692 0.2463
C23 C 0.56547(15) -0.09278(13) 0.19025(14)
H25 H 0.5773 -0.1174 0.1521
C24 C 0.57293(14) -0.02649(13) 0.19006(13)
H26 H 0.5897 -0.0063 0.1510
C25 C 0.51977(14) 0.01843(13) 0.36566(13)
H27 H 0.5232 0.0654 0.3537
C26 C 0.57498(15) 0.00562(14) 0.42127(14)
H28 H 0.5723 -0.0398 0.4354
H29 H 0.5661 0.0339 0.4594
H30 H 0.6219 0.0145 0.4046
C27 C 0.44606(15) 0.00733(14) 0.39151(14)
H31 H 0.4112 0.0172 0.3560
H32 H 0.4386 0.0357 0.4299
H33 H 0.4412 -0.0381 0.4052
C28 C 0.72596(14) 0.24220(12) 0.17191(12)
C29 C 0.80048(13) 0.24069(12) 0.18322(12)
C30 C 0.84333(15) 0.27542(13) 0.14144(13)
H34 H 0.8926 0.2750 0.1502
C31 C 0.81705(15) 0.31083(14) 0.08732(14)
H35 H 0.8477 0.3342 0.0596
C32 C 0.74575(15) 0.31135(14) 0.07465(14)
H36 H 0.7269 0.3347 0.0373
C33 C 0.70121(14) 0.27808(13) 0.11589(13)
H37 H 0.6521 0.2794 0.1062
C34 C 0.82873(14) 0.20067(13) 0.24163(13)
H38 H 0.7993 0.1606 0.2437
C35 C 0.90466(15) 0.17873(15) 0.23467(16)
H39 H 0.9092 0.1554 0.1923
H40 H 0.9179 0.1500 0.2719
H41 H 0.9356 0.2167 0.2353
C36 C 0.82060(15) 0.23665(14) 0.30769(13)
H42 H 0.8521 0.2743 0.3092
H43 H 0.8326 0.2075 0.3450
H44 H 0.7719 0.2513 0.3113
C37 C 0.46106(13) 0.43012(13) 0.23950(14)
C38 C 0.46293(13) 0.49121(12) 0.27354(14)
C39 C 0.47028(14) 0.54769(13) 0.23683(15)
H45 H 0.4698 0.5881 0.2596
C40 C 0.47823(14) 0.54762(14) 0.16829(15)
H46 H 0.4829 0.5872 0.1445
C41 C 0.47922(14) 0.48922(14) 0.13527(15)
H47 H 0.4858 0.4883 0.0884
C42 C 0.47074(14) 0.43142(14) 0.16984(14)
H48 H 0.4715 0.3916 0.1459
C43 C 0.45829(14) 0.49141(13) 0.34901(14)
H49 H 0.4783 0.4493 0.3654
C44 C 0.38198(15) 0.49393(15) 0.37096(15)
H50 H 0.3806 0.4884 0.4195
H51 H 0.3551 0.4591 0.3489
H52 H 0.3614 0.5359 0.3585
C45 C 0.50098(16) 0.54512(14) 0.38310(15)
H53 H 0.5493 0.5438 0.3677
H54 H 0.5011 0.5388 0.4317
H55 H 0.4800 0.5873 0.3719
C46 C 0.43766(14) 0.21971(13) 0.09463(13)
C47 C 0.45491(14) 0.24212(13) 0.03005(13)
C48 C 0.41350(15) 0.22546(14) -0.02524(14)
H56 H 0.4264 0.2410 -0.0679
C49 C 0.35437(16) 0.18726(15) -0.02125(14)
H57 H 0.3268 0.1769 -0.0602
C50 C 0.33607(16) 0.16432(15) 0.04082(15)
H58 H 0.2955 0.1379 0.0447
C51 C 0.37628(15) 0.17946(14) 0.09701(14)
H59 H 0.3629 0.1626 0.1389
C52 C 0.51883(15) 0.28475(14) 0.02078(14)
H60 H 0.5425 0.2902 0.0657
C53 C 0.49985(19) 0.35209(16) -0.00480(17)
H61 H 0.4781 0.3487 -0.0497
H62 H 0.5424 0.3786 -0.0067
H63 H 0.4668 0.3724 0.0254
C54 C 0.57219(16) 0.25297(17) -0.02528(15)
H64 H 0.5866 0.2108 -0.0068
H65 H 0.6135 0.2811 -0.0285
H66 H 0.5506 0.2468 -0.0699
C55 C 0.70487(17) 0.17418(16) 0.50743(15)
H67 H 0.6574 0.1901 0.4944
H68 H 0.7349 0.2123 0.5180
C56 C 0.80183(19) 0.11690(19) 0.47312(17)
H69 H 0.8325 0.1545 0.4836
H70 H 0.8225 0.0926 0.4358
C57 C 0.82589(16) 0.01968(15) 0.31109(18)
H71 H 0.8455 0.0015 0.3535
H72 H 0.8428 0.0649 0.3071
C58 C 0.72743(16) -0.04629(14) 0.31707(17)
H73 H 0.6754 -0.0471 0.3164
H74 H 0.7446 -0.0651 0.3601
C59 C 0.24929(18) 0.3607(2) 0.44551(16)
H75 H 0.2300 0.3176 0.4565
H76 H 0.2485 0.3653 0.3962
C60 C 0.31993(17) 0.35879(16) 0.54139(15)
H77 H 0.3688 0.3621 0.5593
H78 H 0.3014 0.3156 0.5535
C61 C 0.27816(15) 0.04126(13) 0.23998(14)
H79 H 0.2564 0.0448 0.1946
H80 H 0.2670 0.0813 0.2648
C62 C 0.36890(16) -0.02390(13) 0.20103(15)
H81 H 0.4205 -0.0292 0.1994
H82 H 0.3498 -0.0219 0.1545
C63 C 0.27624(18) 0.41038(18) 0.57143(17)
H83 H 0.2766 0.4049 0.6206
H84 H 0.2966 0.4534 0.5615
C64 C 0.20469(18) 0.41257(19) 0.47521(16)
H85 H 0.2224 0.4557 0.4621
H86 H 0.1558 0.4083 0.4576
C65 C 0.57038(15) -0.01787(14) 0.00505(15)
H87 H 0.6120 -0.0313 0.0324
H88 H 0.5835 -0.0178 -0.0425
C66 C 0.48841(16) 0.06524(14) -0.01474(15)
H89 H 0.4999 0.0670 -0.0626
H90 H 0.4734 0.1091 -0.0010
C67 C 0.75300(15) -0.08653(14) 0.26094(17)
H91 H 0.7372 -0.1319 0.2666
H92 H 0.7325 -0.0701 0.2182
C68 C 0.85088(16) -0.01900(15) 0.25431(17)
H93 H 0.8328 0.0002 0.2118
H94 H 0.9028 -0.0177 0.2542
C69 C 0.70062(18) 0.13248(17) 0.56719(16)
H95 H 0.6804 0.1574 0.6043
H96 H 0.6695 0.0951 0.5572
C70 C 0.79798(19) 0.07394(16) 0.53315(16)
H97 H 0.7679 0.0359 0.5226
H98 H 0.8455 0.0581 0.5461
C71 C 0.33792(16) -0.08109(14) 0.23604(16)
H99 H 0.3488 -0.1212 0.2112
H100 H 0.3597 -0.0849 0.2814
C72 C 0.24794(16) -0.01610(13) 0.27503(15)
H101 H 0.2675 -0.0181 0.3214
H102 H 0.1964 -0.0110 0.2772
Rb1A Rb 0.838369(13) -0.361642(12) 0.177289(12)
Rb1A_2 Rb 0.838369(13) 0.638358(12) 0.177289(12)
Rb2A Rb 1.087264(13) -0.188334(12) 0.118591(13)
Rb2C Rb 0.912736(13) 0.188334(12) -0.118591(13)
Rb2C_2 Rb 0.912736(13) 0.188334(12) 0.881409(13)
Rb3A Rb 1.055957(13) -0.348719(12) 0.235044(12)
Rb3C Rb 0.944043(13) 0.348719(12) 0.764956(12)
Rb3B Rb 0.555957(13) -0.151281(12) 0.735044(12)
Rb4A Rb 0.908272(13) -0.358841(12) 0.375236(12)
Rb4C Rb 0.091728(13) 0.358841(12) 0.624764(12)
Rb4B Rb 0.408272(13) -0.141159(12) -0.124764(12)
Rb4C_2 Rb 1.091728(13) 0.358841(12) 0.624764(12)
Rb5A Rb 0.926427(13) -0.194967(12) 0.265951(12)
Rb5C Rb 1.073573(13) 0.194967(12) 0.734049(12)
Rb6C Rb 0.345700(14) 0.320010(13) 0.191260(13)
Rb6B Rb 0.154300(14) -0.179990(13) 0.308740(13)
Rb6A Rb 0.654300(14) -0.320010(13) -0.191260(13)
O1A O 0.95619(9) -0.26982(8) 0.15074(8)
O2C O 0.83019(9) 0.26201(8) 0.79521(9)
O2A O 1.16981(9) -0.26201(8) 0.20479(9)
O3A O 0.93677(9) -0.42348(8) 0.25765(8)
O4A O 0.81729(9) -0.28867(8) 0.28937(8)
O5C O 0.95217(9) 0.12436(8) 0.77153(9)
O5A O 1.04783(9) -0.12436(8) 0.22847(9)
O6C O 0.97420(9) 0.26636(9) 0.64913(8)
O6A O 1.02580(9) -0.26636(9) 0.35087(8)
O7A O 0.76668(12) -0.36089(12) 0.04655(10)
O8A O 0.74898(10) 0.51936(9) 0.18756(11)
O8A_2 O 0.74898(10) -0.48064(9) 0.18756(11)
O9C O 0.81906(11) 0.13453(11) -0.02937(10)
O9A O 1.18094(11) -0.13453(11) 0.02937(10)
O10B O 0.64703(10) -0.03532(8) 0.76488(9)
O10A O 1.14703(10) -0.46468(8) 0.26488(9)
O11C O 0.70571(11) 0.09227(11) 0.04581(10)
O11B O 0.79429(11) -0.40773(11) 0.45419(10)
O12B O 0.45042(10) -0.04624(9) -0.02411(9)
O12A O 0.95042(10) -0.45376(9) 0.47589(9)
O13A O 0.67203(10) 0.41500(9) 0.24147(10)
O14A O 0.73048(12) -0.39038(11) -0.08687(10)
O14C O 0.26952(12) 0.39038(11) 0.08687(10)
O15B O 0.73653(10) 0.07516(9) 0.75883(10)
O15A O 0.23653(10) 0.42484(9) 0.25883(10)
C1A C 0.95742(13) -0.26735(12) 0.08516(13)
C2A C 0.93285(13) -0.21162(12) 0.04826(13)
C3A C 0.93869(14) -0.21032(14) -0.02051(13)
H1A H 0.9226 -0.1731 -0.0444
C4A C 0.96718(15) -0.26131(15) -0.05593(14)
H2A H 0.9703 -0.2593 -0.1032
C5A C 0.99086(15) -0.31484(15) -0.02112(14)
H3A H 1.0108 -0.3501 -0.0445
C6A C 0.98596(14) -0.31794(13) 0.04768(13)
H4A H 1.0025 -0.3557 0.0704
C7A C 0.89963(14) -0.15646(12) 0.08648(13)
H5A H 0.9299 -0.1481 0.1272
C8A C 0.89311(18) -0.09276(14) 0.04784(16)
H6A H 0.9393 -0.0801 0.0320
H7A H 0.8753 -0.0589 0.0772
H8A H 0.8605 -0.0985 0.0095
C9A C 0.82730(15) -0.17712(14) 0.10994(15)
H9A H 0.7963 -0.1857 0.0710
H10A H 0.8073 -0.1423 0.1368
H11A H 0.8320 -0.2166 0.1371
C10C C 0.78980(14) 0.30132(12) 0.82871(13)
C11C C 0.71613(14) 0.30677(12) 0.81336(13)
C12C C 0.67673(15) 0.35123(13) 0.84827(14)
H12C H 0.6279 0.3547 0.8379
C13C C 0.70576(16) 0.39094(14) 0.89783(14)
H13C H 0.6775 0.4216 0.9201
C14C C 0.77624(16) 0.38525(13) 0.91418(14)
H14C H 0.7968 0.4118 0.9483
C15C C 0.81731(14) 0.34077(13) 0.88077(13)
H15C H 0.8656 0.3368 0.8934
C16C C 0.68485(14) 0.26619(13) 0.75676(14)
H16C H 0.7100 0.2236 0.7572
C17C C 0.60643(14) 0.25210(15) 0.76353(17)
H17C H 0.5798 0.2927 0.7592
H18C H 0.5908 0.2219 0.7283
H19C H 0.5985 0.2328 0.8074
C18C C 0.69713(16) 0.29819(15) 0.68910(14)
H20C H 0.7475 0.3060 0.6843
H21C H 0.6799 0.2695 0.6531
H22C H 0.6718 0.3396 0.6865
C19A C 0.94312(13) -0.48678(12) 0.25489(13)
C20A C 0.96635(13) -0.51987(13) 0.19699(13)
C21A C 0.97406(14) -0.58696(13) 0.19812(14)
H23A H 0.9900 -0.6083 0.1593
C22A C 0.95931(15) -0.62358(14) 0.25387(14)
H24A H 0.9661 -0.6692 0.2537
C23A C 0.93453(15) -0.59278(13) 0.30975(14)
H25A H 0.9227 -0.6174 0.3479
C24A C 0.92707(14) -0.52649(13) 0.30994(13)
H26A H 0.9103 -0.5063 0.3490
C25A C 0.98023(14) -0.48157(13) 0.13434(13)
H27A H 0.9768 -0.4346 0.1463
C26A C 0.92502(15) -0.49438(14) 0.07873(14)
H28A H 0.9277 -0.5398 0.0646
H29A H 0.9339 -0.4661 0.0406
H30A H 0.8781 -0.4855 0.0954
C27A C 1.05394(15) -0.49267(14) 0.10849(14)
H31A H 1.0888 -0.4828 0.1440
H32A H 1.0614 -0.4643 0.0701
H33A H 1.0588 -0.5381 0.0948
C28A C 0.77404(14) -0.25780(12) 0.32809(12)
C29A C 0.69952(13) -0.25931(12) 0.31678(12)
C30A C 0.65667(15) -0.22458(13) 0.35856(13)
H34A H 0.6074 -0.2250 0.3498
C31A C 0.68295(15) -0.18917(14) 0.41268(14)
H35A H 0.6523 -0.1658 0.4404
C32A C 0.75425(15) -0.18865(14) 0.42535(14)
H36A H 0.7731 -0.1653 0.4627
C33A C 0.79879(14) -0.22192(13) 0.38411(13)
H37A H 0.8479 -0.2206 0.3938
C34A C 0.67127(14) -0.29933(13) 0.25837(13)
H38A H 0.7007 -0.3394 0.2563
C35A C 0.59534(15) -0.32127(15) 0.26533(16)
H39A H 0.5908 -0.3446 0.3077
H40A H 0.5821 -0.3500 0.2281
H41A H 0.5644 -0.2833 0.2647
C36A C 0.67940(15) -0.26335(14) 0.19231(13)
H42A H 0.6479 -0.2257 0.1908
H43A H 0.6674 -0.2925 0.1550
H44A H 0.7281 -0.2487 0.1887
C37C C 0.96106(13) 0.06988(13) 0.73950(14)
C38C C 0.96293(13) 0.00879(12) 0.77354(14)
C39C C 0.97028(14) -0.04769(13) 0.73683(15)
H45C H 0.9698 -0.0881 0.7596
C40C C 0.97823(14) -0.04762(14) 0.66829(15)
H46C H 0.9829 -0.0872 0.6445
C41C C 0.97922(14) 0.01078(14) 0.63527(15)
H47C H 0.9858 0.0117 0.5884
C42C C 0.97074(14) 0.06858(14) 0.66984(14)
H48C H 0.9715 0.1084 0.6459
C43C C 0.95829(14) 0.00859(13) 0.84901(14)
H49C H 0.9783 0.0507 0.8654
C44C C 0.88198(15) 0.00607(15) 0.87096(15)
H50C H 0.8806 0.0116 0.9195
H51C H 0.8551 0.0409 0.8489
H52C H 0.8614 -0.0359 0.8585
C45C C 1.00098(16) -0.04512(14) 0.88310(15)
H53C H 1.0493 -0.0438 0.8677
H54C H 1.0011 -0.0388 0.9317
H55C H 0.9800 -0.0873 0.8719
C46C C 0.93766(14) 0.28029(13) 0.59463(13)
C47C C 0.95491(14) 0.25788(13) 0.53005(13)
C48C C 0.91350(15) 0.27454(14) 0.47476(14)
H56C H 0.9264 0.2590 0.4321
C49C C 0.85437(16) 0.31274(15) 0.47875(14)
H57C H 0.8268 0.3231 0.4398
C50C C 0.83607(16) 0.33568(15) 0.54082(15)
H58C H 0.7955 0.3621 0.5447
C51C C 0.87628(15) 0.32054(14) 0.59701(14)
H59C H 0.8629 0.3374 0.6389
C52C C 1.01883(15) 0.21525(14) 0.52078(14)
H60C H 1.0425 0.2098 0.5657
C53C C 0.99985(19) 0.14791(16) 0.49520(17)
H61C H 0.9781 0.1513 0.4503
H62C H 1.0424 0.1214 0.4933
H63C H 0.9668 0.1276 0.5254
C54C C 1.07219(16) 0.24703(17) 0.47472(15)
H64C H 1.0866 0.2892 0.4932
H65C H 1.1135 0.2189 0.4715
H66C H 1.0506 0.2532 0.4301
C55A C 0.79513(17) -0.32582(16) -0.00743(15)
H67A H 0.8426 -0.3099 0.0056
H68A H 0.7651 -0.2877 -0.0180
C56A C 0.69817(19) -0.38310(19) 0.02688(17)
H69A H 0.6675 -0.3455 0.0164
H70A H 0.6775 -0.4074 0.0642
C57A C 0.67411(16) 0.51968(15) 0.18891(18)
H71A H 0.6545 0.5015 0.1465
H72A H 0.6572 0.5649 0.1929
C58A C 0.77257(16) 0.45371(14) 0.18293(17)
H73A H 0.8246 0.4529 0.1836
H74A H 0.7554 0.4349 0.1399
C59C C 0.74929(18) 0.1393(2) -0.05449(16)
H75C H 0.7300 0.1824 -0.0435
H76C H 0.7485 0.1347 -0.1038
C60C C 0.81993(17) 0.14121(16) 0.04139(15)
H77C H 0.8688 0.1379 0.0593
H78C H 0.8014 0.1844 0.0535
C61B C 0.72184(15) -0.04126(13) 0.76002(14)
H79B H 0.7436 -0.0448 0.8054
H80B H 0.7330 -0.0813 0.7352
C62B C 0.63110(16) 0.02390(13) 0.79897(15)
H81B H 0.5795 0.0292 0.8006
H82B H 0.6502 0.0219 0.8455
C63C C 0.77624(18) 0.08962(18) 0.07143(17)
H83C H 0.7766 0.0951 0.1206
H84C H 0.7966 0.0466 0.0615
C64C C 0.70469(18) 0.08743(19) -0.02479(16)
H85C H 0.7224 0.0443 -0.0379
H86C H 0.6558 0.0917 -0.0424
C65B C 0.42962(15) 0.01787(14) -0.00505(15)
H87B H 0.3880 0.0313 -0.0324
H88B H 0.4165 0.0178 0.0425
C66B C 0.51159(16) -0.06524(14) 0.01474(15)
H89B H 0.5001 -0.0670 0.0626
H90B H 0.5266 -0.1091 0.0010
C67A C 0.74700(15) 0.41347(14) 0.23906(17)
H91A H 0.7628 0.3681 0.2334
H92A H 0.7675 0.4299 0.2818
C68A C 0.64912(16) 0.48100(15) 0.24569(17)
H93A H 0.6672 0.5002 0.2882
H94A H 0.5972 0.4823 0.2458
C69A C 0.79938(18) -0.36752(17) -0.06719(16)
H95A H 0.8196 -0.3426 -0.1043
H96A H 0.8305 -0.4049 -0.0572
C70A C 0.70202(19) -0.42606(16) -0.03315(16)
H97A H 0.7321 -0.4641 -0.0226
H98A H 0.6545 -0.4419 -0.0461
C71B C 0.66208(16) 0.08109(14) 0.76396(16)
H99B H 0.6512 0.1212 0.7888
H100B H 0.6403 0.0849 0.7186
C72B C 0.75206(16) 0.01610(13) 0.72497(15)
H101B H 0.7325 0.0181 0.6786
H102B H 0.8036 0.0110 0.7228
loop_
_geom_bond_atom_site_label_1
_geom_bond_atom_site_label_2
_geom_bond_site_symmetry_1
_geom_bond_site_symmetry_2
Rb1 O1 1_555 1_555
Rb2 O1 1_555 1_555
Rb3 O1 1_555 1_555
Rb4 O3 1_555 1_555
Rb5 O1 1_555 1_555
Rb6 O14 1_555 1_555
O1 C1 1_555 1_555
O2 Rb2 1_555 1_555
O3 Rb1 1_555 1_555
O4 Rb1 1_555 1_555
O5 Rb2 1_555 1_555
O6 Rb3 1_555 1_555
O7 Rb1 1_555 1_555
O8 Rb1 1_555 1_555
O9 Rb2 1_555 1_555
O10 Rb3 1_555 1_555
O11 C63 1_555 1_555
O12 Rb4 1_555 1_555
O13 C67 1_555 1_555
O14 C69 1_555 1_555
O15 C71 1_555 1_555
C1 C2 1_555 1_555
C2 C3 1_555 1_555
C3 H1 1_555 1_555
C4 C3 1_555 1_555
H2 C4 1_555 1_555
C5 C4 1_555 1_555
H3 C5 1_555 1_555
C6 C1 1_555 1_555
H4 C6 1_555 1_555
C7 C2 1_555 1_555
H5 C7 1_555 1_555
C8 C7 1_555 1_555
H6 C8 1_555 1_555
H7 C8 1_555 1_555
H8 C8 1_555 1_555
C9 C7 1_555 1_555
H9 C9 1_555 1_555
H10 C9 1_555 1_555
H11 C9 1_555 1_555
C10 O2 1_555 1_555
C11 C10 1_555 1_555
C12 C11 1_555 1_555
H12 C12 1_555 1_555
C13 C12 1_555 1_555
H13 C13 1_555 1_555
C14 C13 1_555 1_555
H14 C14 1_555 1_555
C15 C10 1_555 1_555
H15 C15 1_555 1_555
C16 C11 1_555 1_555
H16 C16 1_555 1_555
C17 C16 1_555 1_555
H17 C17 1_555 1_555
H18 C17 1_555 1_555
H19 C17 1_555 1_555
C18 C16 1_555 1_555
H20 C18 1_555 1_555
H21 C18 1_555 1_555
H22 C18 1_555 1_555
C19 O3 1_555 1_555
C20 C19 1_555 1_555
C21 C20 1_555 1_555
H23 C21 1_555 1_555
C22 C21 1_555 1_555
H24 C22 1_555 1_555
C23 C22 1_555 1_555
H25 C23 1_555 1_555
C24 C19 1_555 1_555
H26 C24 1_555 1_555
C25 C20 1_555 1_555
H27 C25 1_555 1_555
C26 C25 1_555 1_555
H28 C26 1_555 1_555
H29 C26 1_555 1_555
H30 C26 1_555 1_555
C27 C25 1_555 1_555
H31 C27 1_555 1_555
H32 C27 1_555 1_555
H33 C27 1_555 1_555
C28 O4 1_555 1_555
C29 C28 1_555 1_555
C30 C29 1_555 1_555
H34 C30 1_555 1_555
C31 C30 1_555 1_555
H35 C31 1_555 1_555
C32 C31 1_555 1_555
H36 C32 1_555 1_555
C33 C28 1_555 1_555
H37 C33 1_555 1_555
C34 C29 1_555 1_555
H38 C34 1_555 1_555
C35 C34 1_555 1_555
H39 C35 1_555 1_555
H40 C35 1_555 1_555
H41 C35 1_555 1_555
C36 C34 1_555 1_555
H42 C36 1_555 1_555
H43 C36 1_555 1_555
H44 C36 1_555 1_555
C37 O5 1_555 1_555
C38 C37 1_555 1_555
C39 C38 1_555 1_555
H45 C39 1_555 1_555
C40 C39 1_555 1_555
H46 C40 1_555 1_555
C41 C40 1_555 1_555
H47 C41 1_555 1_555
C42 C37 1_555 1_555
H48 C42 1_555 1_555
C43 C38 1_555 1_555
H49 C43 1_555 1_555
C44 C43 1_555 1_555
H50 C44 1_555 1_555
H51 C44 1_555 1_555
H52 C44 1_555 1_555
C45 C43 1_555 1_555
H53 C45 1_555 1_555
H54 C45 1_555 1_555
H55 C45 1_555 1_555
C46 O6 1_555 1_555
C47 C46 1_555 1_555
C48 C47 1_555 1_555
H56 C48 1_555 1_555
C49 C48 1_555 1_555
H57 C49 1_555 1_555
C50 C49 1_555 1_555
H58 C50 1_555 1_555
C51 C46 1_555 1_555
H59 C51 1_555 1_555
C52 C47 1_555 1_555
H60 C52 1_555 1_555
C53 C52 1_555 1_555
H61 C53 1_555 1_555
H62 C53 1_555 1_555
H63 C53 1_555 1_555
C54 C52 1_555 1_555
H64 C54 1_555 1_555
H65 C54 1_555 1_555
H66 C54 1_555 1_555
C55 O7 1_555 1_555
H67 C55 1_555 1_555
H68 C55 1_555 1_555
C56 O7 1_555 1_555
H69 C56 1_555 1_555
H70 C56 1_555 1_555
C57 O8 1_555 1_555
H71 C57 1_555 1_555
H72 C57 1_555 1_555
C58 O8 1_555 1_555
H73 C58 1_555 1_555
H74 C58 1_555 1_555
C59 O9 1_555 1_555
H75 C59 1_555 1_555
H76 C59 1_555 1_555
C60 O9 1_555 1_555
H77 C60 1_555 1_555
H78 C60 1_555 1_555
C61 O10 1_555 1_555
H79 C61 1_555 1_555
H80 C61 1_555 1_555
C62 O10 1_555 1_555
H81 C62 1_555 1_555
H82 C62 1_555 1_555
C63 C60 1_555 1_555
H83 C63 1_555 1_555
H84 C63 1_555 1_555
C64 O11 1_555 1_555
H85 C64 1_555 1_555
H86 C64 1_555 1_555
C65 O12 1_555 1_555
H87 C65 1_555 1_555
H88 C65 1_555 1_555
C66 O12 1_555 1_555
H89 C66 1_555 1_555
H90 C66 1_555 1_555
C67 C58 1_555 1_555
H91 C67 1_555 1_555
H92 C67 1_555 1_555
C68 O13 1_555 1_555
H93 C68 1_555 1_555
H94 C68 1_555 1_555
C69 C55 1_555 1_555
H95 C69 1_555 1_555
H96 C69 1_555 1_555
C70 O14 1_555 1_555
H97 C70 1_555 1_555
H98 C70 1_555 1_555
C71 C62 1_555 1_555
H99 C71 1_555 1_555
H100 C71 1_555 1_555
C72 O15 1_555 1_555
H101 C72 1_555 1_555
H102 C72 1_555 1_555
Rb1A O1A 1_555 1_555
Rb1A_2 O8A 1_555 1_555
Rb2A O1A 1_555 1_555
Rb2C O9C 1_555 1_555
Rb2C_2 O2C 1_555 1_555
Rb3A O1A 1_555 1_555
Rb3C O2C 1_555 1_555
Rb3B O10B 1_555 1_555
Rb4A O3A 1_555 1_555
Rb4C O11 1_555 1_555
Rb4B O12B 1_555 1_555
Rb4C_2 O6C 1_555 1_555
Rb5A O13 1_555 1_555
Rb5C O5C 1_555 1_555
Rb6C O2 1_555 1_555
Rb6B O15 1_555 1_555
Rb6A O14A 1_555 1_555
O1A Rb5A 1_555 1_555
O2C Rb6 1_555 1_555
O2A Rb2A 1_555 1_555
O3A Rb1A 1_555 1_555
O4A Rb1A 1_555 1_555
O5C Rb6 1_555 1_555
O5A Rb2A 1_555 1_555
O6C Rb6 1_555 1_555
O6A Rb3A 1_555 1_555
O7A Rb1A 1_555 1_555
O8A C57A 1_555 1_555
O8A_2 Rb1A 1_555 1_555
O9C C59C 1_555 1_555
O9A Rb2A 1_555 1_555
O10B C61B 1_555 1_555
O10A Rb3A 1_555 1_555
O11C Rb4 1_555 1_555
O11B Rb4A 1_555 1_555
O12B C65B 1_555 1_555
O12A Rb4A 1_555 1_555
O13A Rb5 1_555 1_555
O14A C69A 1_555 1_555
O14C Rb6C 1_555 1_555
O15B Rb6 1_555 1_555
O15A Rb6C 1_555 1_555
C1A O1A 1_555 1_555
C2A C1A 1_555 1_555
C3A C2A 1_555 1_555
H1A C3A 1_555 1_555
C4A C3A 1_555 1_555
H2A C4A 1_555 1_555
C5A C4A 1_555 1_555
H3A C5A 1_555 1_555
C6A C1A 1_555 1_555
H4A C6A 1_555 1_555
C7A C2A 1_555 1_555
H5A C7A 1_555 1_555
C8A C7A 1_555 1_555
H6A C8A 1_555 1_555
H7A C8A 1_555 1_555
H8A C8A 1_555 1_555
C9A C7A 1_555 1_555
H9A C9A 1_555 1_555
H10A C9A 1_555 1_555
H11A C9A 1_555 1_555
C10C O2C 1_555 1_555
C11C C10C 1_555 1_555
C12C C11C 1_555 1_555
H12C C12C 1_555 1_555
C13C C12C 1_555 1_555
H13C C13C 1_555 1_555
C14C C13C 1_555 1_555
H14C C14C 1_555 1_555
C15C C10C 1_555 1_555
H15C C15C 1_555 1_555
C16C C11C 1_555 1_555
H16C C16C 1_555 1_555
C17C C16C 1_555 1_555
H17C C17C 1_555 1_555
H18C C17C 1_555 1_555
H19C C17C 1_555 1_555
C18C C16C 1_555 1_555
H20C C18C 1_555 1_555
H21C C18C 1_555 1_555
H22C C18C 1_555 1_555
C19A O3A 1_555 1_555
C20A C19A 1_555 1_555
C21A C20A 1_555 1_555
H23A C21A 1_555 1_555
C22A C21A 1_555 1_555
H24A C22A 1_555 1_555
C23A C22A 1_555 1_555
H25A C23A 1_555 1_555
C24A C19A 1_555 1_555
H26A C24A 1_555 1_555
C25A C20A 1_555 1_555
H27A C25A 1_555 1_555
C26A C25A 1_555 1_555
H28A C26A 1_555 1_555
H29A C26A 1_555 1_555
H30A C26A 1_555 1_555
C27A C25A 1_555 1_555
H31A C27A 1_555 1_555
H32A C27A 1_555 1_555
H33A C27A 1_555 1_555
C28A O4A 1_555 1_555
C29A C28A 1_555 1_555
C30A C29A 1_555 1_555
H34A C30A 1_555 1_555
C31A C30A 1_555 1_555
H35A C31A 1_555 1_555
C32A C31A 1_555 1_555
H36A C32A 1_555 1_555
C33A C28A 1_555 1_555
H37A C33A 1_555 1_555
C34A C29A 1_555 1_555
H38A C34A 1_555 1_555
C35A C34A 1_555 1_555
H39A C35A 1_555 1_555
H40A C35A 1_555 1_555
H41A C35A 1_555 1_555
C36A C34A 1_555 1_555
H42A C36A 1_555 1_555
H43A C36A 1_555 1_555
H44A C36A 1_555 1_555
C37C O5C 1_555 1_555
C38C C37C 1_555 1_555
C39C C38C 1_555 1_555
H45C C39C 1_555 1_555
C40C C39C 1_555 1_555
H46C C40C 1_555 1_555
C41C C40C 1_555 1_555
H47C C41C 1_555 1_555
C42C C37C 1_555 1_555
H48C C42C 1_555 1_555
C43C C38C 1_555 1_555
H49C C43C 1_555 1_555
C44C C43C 1_555 1_555
H50C C44C 1_555 1_555
H51C C44C 1_555 1_555
H52C C44C 1_555 1_555
C45C C43C 1_555 1_555
H53C C45C 1_555 1_555
H54C C45C 1_555 1_555
H55C C45C 1_555 1_555
C46C O6C 1_555 1_555
C47C C46C 1_555 1_555
C48C C47C 1_555 1_555
H56C C48C 1_555 1_555
C49C C48C 1_555 1_555
H57C C49C 1_555 1_555
C50C C49C 1_555 1_555
H58C C50C 1_555 1_555
C51C C46C 1_555 1_555
H59C C51C 1_555 1_555
C52C C47C 1_555 1_555
H60C C52C 1_555 1_555
C53C C52C 1_555 1_555
H61C C53C 1_555 1_555
H62C C53C 1_555 1_555
H63C C53C 1_555 1_555
C54C C52C 1_555 1_555
H64C C54C 1_555 1_555
H65C C54C 1_555 1_555
H66C C54C 1_555 1_555
C55A O7A 1_555 1_555
H67A C55A 1_555 1_555
H68A C55A 1_555 1_555
C56A O7A 1_555 1_555
H69A C56A 1_555 1_555
H70A C56A 1_555 1_555
C57A H71A 1_555 1_555
H72A C57A 1_555 1_555
C58A O8A 1_555 1_555
H73A C58A 1_555 1_555
H74A C58A 1_555 1_555
C59C H75C 1_555 1_555
H76C C59C 1_555 1_555
C60C O9C 1_555 1_555
H77C C60C 1_555 1_555
H78C C60C 1_555 1_555
C61B H79B 1_555 1_555
H80B C61B 1_555 1_555
C62B O10B 1_555 1_555
H81B C62B 1_555 1_555
H82B C62B 1_555 1_555
C63C O11C 1_555 1_555
H83C C63C 1_555 1_555
H84C C63C 1_555 1_555
C64C O11C 1_555 1_555
H85C C64C 1_555 1_555
H86C C64C 1_555 1_555
C65B C66 1_555 1_555
H87B C65B 1_555 1_555
H88B C65B 1_555 1_555
C66B C65 1_555 1_555
H89B C66B 1_555 1_555
H90B C66B 1_555 1_555
C67A O13A 1_555 1_555
H91A C67A 1_555 1_555
H92A C67A 1_555 1_555
C68A O13A 1_555 1_555
H93A C68A 1_555 1_555
H94A C68A 1_555 1_555
C69A C55A 1_555 1_555
H95A C69A 1_555 1_555
H96A C69A 1_555 1_555
C70A O14A 1_555 1_555
H97A C70A 1_555 1_555
H98A C70A 1_555 1_555
C71B O15B 1_555 1_555
H99B C71B 1_555 1_555
H100B C71B 1_555 1_555
C72B O15B 1_555 1_555
H101B C72B 1_555 1_555
H102B C72B 1_555 1_555
Rb3 O2 1_555 1_555
Rb3 O3 1_555 1_555
Rb4 O4 1_555 1_555
Rb4 O6 1_555 1_555
Rb5 O4 1_555 1_555
Rb5 O5 1_555 1_555
Rb5 O6 1_555 1_555
O5 Rb6C 1_555 1_555
O6 Rb6C 1_555 1_555
C5 C6 1_555 1_555
C14 C15 1_555 1_555
C23 C24 1_555 1_555
C32 C33 1_555 1_555
C41 C42 1_555 1_555
C50 C51 1_555 1_555
C56 C70 1_555 1_555
C57 C68 1_555 1_555
C59 C64 1_555 1_555
C61 C72 1_555 1_555
Rb2C_2 O5C 1_555 1_555
Rb3A O2A 1_555 1_555
Rb3A O3A 1_555 1_555
Rb3C O6C 1_555 1_555
Rb4A O4A 1_555 1_555
Rb4A O6A 1_555 1_555
Rb5A O4A 1_555 1_555
Rb5A O5A 1_555 1_555
Rb5A O6A 1_555 1_555
Rb5C O6C 1_555 1_555
O12B C66B 1_555 1_555
C5A C6A 1_555 1_555
C14C C15C 1_555 1_555
C23A C24A 1_555 1_555
C32A C33A 1_555 1_555
C41C C42C 1_555 1_555
C50C C51C 1_555 1_555
C56A C70A 1_555 1_555
C57A C68A 1_555 1_555
C58A C67A 1_555 1_555
C59C C64C 1_555 1_555
C60C C63C 1_555 1_555
C61B C72B 1_555 1_555
C62B C71B 1_555 1_555

#END
