
#######################################################################
#
#                 Cambridge Crystallographic Data Centre
#                                CCDC 
#
#######################################################################
#
# If this CIF has been generated from an entry in the Cambridge 
# Structural Database, then it will include bibliographic, chemical, 
# crystal, experimental, refinement or atomic coordinate data resulting 
# from the CCDC's data processing and validation procedures.
#
#######################################################################

data_CITYAG
_symmetry_cell_setting           monoclinic
_symmetry_space_group_name_H-M   'P 21/n'
_symmetry_Int_Tables_number      14
_space_group_name_Hall           '-P 2yn'
loop_
_symmetry_equiv_pos_site_id
_symmetry_equiv_pos_as_xyz
1 x,y,z
2 1/2-x,1/2+y,1/2-z
3 -x,-y,-z
4 1/2+x,1/2-y,1/2+z
_cell_length_a                   12.7210(18)
_cell_length_b                   7.7387(11)
_cell_length_c                   14.005(2)
_cell_angle_alpha                90
_cell_angle_beta                 108.106(2)
_cell_angle_gamma                90
_cell_volume                     1310.44
loop_
_atom_site_label
_atom_site_type_symbol
_atom_site_fract_x
_atom_site_fract_y
_atom_site_fract_z
O1 O -0.1401(2) 1.2768(3) 0.7015(2)
O2 O 0.0205(2) 1.1685(3) 0.7787(2)
C1 C -0.0458(3) 1.2942(5) 0.7650(3)
O3 O 0.2672(2) 1.5118(3) 1.0680(2)
C2 C 0.2006(3) 1.6401(5) 1.0516(3)
Cu1 Cu -0.10334(4) 1.02491(6) 0.67992(4)
N1 N -0.1348(3) 1.8981(4) 0.8095(2)
H1 H -0.1250 1.9755 0.8595
H2 H -0.2055 1.8623 0.7915
O4 O 0.2116(2) 1.7690(4) 1.1055(2)
C3 C -0.0156(3) 1.4582(5) 0.8216(3)
C4 C 0.0794(3) 1.4733(5) 0.9043(3)
H3 H 0.1279 1.3804 0.9231
C5 C 0.1018(3) 1.6261(5) 0.9586(3)
C6 C 0.0297(3) 1.7655(5) 0.9284(3)
H4 H 0.0447 1.8681 0.9647
C7 C -0.0636(3) 1.7539(5) 0.8453(3)
C8 C -0.0867(3) 1.5989(5) 0.7925(3)
H5 H -0.1501 1.5892 0.7374
N2 N -0.0005(3) 0.8744(4) 0.6337(3)
C9 C 0.1012(4) 0.8416(6) 0.6947(3)
H6 H 0.1221 0.8865 0.7595
C10 C 0.1763(4) 0.7440(7) 0.6656(4)
H7 H 0.2462 0.7240 0.7107
C11 C 0.1486(4) 0.6748(6) 0.5691(4)
C12 C 0.0424(4) 0.7117(6) 0.5077(3)
H8 H 0.0188 0.6687 0.4425
C13 C -0.0281(4) 0.8100(6) 0.5411(3)
H9 H -0.0983 0.8329 0.4974
C14 C 0.2269(4) 0.5667(7) 0.5344(4)
H10 H 0.2036 0.4482 0.5297
H11 H 0.2999 0.5764 0.5815
H12 H 0.2276 0.6062 0.4696
O3C O -0.2328(2) 0.9882(3) 0.5680(2)
Cu1C Cu 0.39666(4) 1.47509(6) 1.17992(4)
Cu1_2 Cu -0.10334(4) 2.02491(6) 0.67992(4)
N1_2 N -0.1348(3) 0.8981(4) 0.8095(2)
H1_2 H -0.1250 0.9755 0.8595
H2_2 H -0.2055 0.8623 0.7915
loop_
_geom_bond_atom_site_label_1
_geom_bond_atom_site_label_2
_geom_bond_site_symmetry_1
_geom_bond_site_symmetry_2
O1 C1 1_555 1_555
O2 C1 1_555 1_555
C1 C3 1_555 1_555
O3 C2 1_555 1_555
C2 O4 1_555 1_555
Cu1 O1 1_555 1_555
N1 H1 1_555 1_555
H2 N1 1_555 1_555
C3 C4 1_555 1_555
C4 H3 1_555 1_555
C5 C2 1_555 1_555
C6 C5 1_555 1_555
H4 C6 1_555 1_555
C7 N1 1_555 1_555
C8 C3 1_555 1_555
H5 C8 1_555 1_555
N2 Cu1 1_555 1_555
C9 N2 1_555 1_555
H6 C9 1_555 1_555
C10 C9 1_555 1_555
H7 C10 1_555 1_555
C11 C10 1_555 1_555
C12 C11 1_555 1_555
H8 C12 1_555 1_555
C13 N2 1_555 1_555
H9 C13 1_555 1_555
C14 C11 1_555 1_555
H10 C14 1_555 1_555
H11 C14 1_555 1_555
H12 C14 1_555 1_555
O3C Cu1 1_555 1_555
Cu1C O3 1_555 1_555
Cu1_2 N1 1_555 1_555
N1_2 Cu1 1_555 1_555
H1_2 N1_2 1_555 1_555
H2_2 N1_2 1_555 1_555
O2 Cu1 1_555 1_555
C4 C5 1_555 1_555
C6 C7 1_555 1_555
C7 C8 1_555 1_555
C12 C13 1_555 1_555

#END
