
#######################################################################
#
#                 Cambridge Crystallographic Data Centre
#                                CCDC 
#
#######################################################################
#
# If this CIF has been generated from an entry in the Cambridge 
# Structural Database, then it will include bibliographic, chemical, 
# crystal, experimental, refinement or atomic coordinate data resulting 
# from the CCDC's data processing and validation procedures.
#
#######################################################################

data_CITYOV
_symmetry_cell_setting           monoclinic
_symmetry_space_group_name_H-M   'P 21/c'
_symmetry_Int_Tables_number      14
_space_group_name_Hall           '-P 2ybc'
loop_
_symmetry_equiv_pos_site_id
_symmetry_equiv_pos_as_xyz
1 x,y,z
2 -x,1/2+y,1/2-z
3 -x,-y,-z
4 x,1/2-y,1/2+z
_cell_length_a                   12.5678(10)
_cell_length_b                   14.6474(12)
_cell_length_c                   13.8216(11)
_cell_angle_alpha                90
_cell_angle_beta                 102.5000(10)
_cell_angle_gamma                90
_cell_volume                     2484.05
loop_
_atom_site_label
_atom_site_type_symbol
_atom_site_fract_x
_atom_site_fract_y
_atom_site_fract_z
V1 V 0.32182(3) 0.31472(2) 0.87441(2)
Cu1 Cu 0.38483(2) 0.27287(2) 0.62160(2)
As1 As 0.15267(2) 0.32735(2) 0.66758(2)
As2 As 0.23993(2) 0.40872(2) 1.05580(2)
O1 O 0.25082(10) 0.34081(9) 0.60541(9)
O2 O 0.05088(10) 0.25929(9) 0.60872(10)
H1 H 0.0752(18) 0.2133(13) 0.5843(16)
O3 O 0.19618(10) 0.28239(9) 0.78379(9)
O4 O 0.41063(12) 0.34901(12) 0.81367(10)
O5 O 0.37115(12) 0.23023(10) 0.94673(10)
O6 O 0.29069(12) 0.40940(9) 0.94957(10)
O7 O 0.11039(11) 0.37345(9) 1.02603(10)
O8 O 0.32210(10) 0.34592(9) 1.14161(9)
N1 N 0.53408(13) 0.21787(11) 0.63569(11)
N2 N 0.47055(12) 0.38969(11) 0.62371(11)
C1 C 0.56357(17) 0.13101(14) 0.64513(14)
H2 H 0.5106 0.0865 0.6516
C2 C 0.67017(18) 0.10242(15) 0.64586(15)
H3 H 0.6888 0.0395 0.6530
C3 C 0.74706(17) 0.16572(16) 0.63627(15)
H4 H 0.8191 0.1469 0.6352
C4 C 0.71931(16) 0.25843(15) 0.62803(14)
C5 C 0.61080(15) 0.28094(13) 0.62774(13)
C6 C 0.79459(17) 0.33114(16) 0.62268(15)
H5 H 0.8676 0.3169 0.6199
C7 C 0.76336(17) 0.41898(16) 0.62155(15)
H6 H 0.8154 0.4656 0.6198
C8 C 0.65302(16) 0.44411(14) 0.62291(13)
C9 C 0.57688(15) 0.37436(13) 0.62358(12)
C10 C 0.61523(18) 0.53410(14) 0.62443(14)
H7 H 0.6636 0.5840 0.6246
C11 C 0.50776(18) 0.54949(14) 0.62571(14)
H8 H 0.4814 0.6102 0.6270
C12 C 0.43713(17) 0.47538(13) 0.62510(13)
H9 H 0.3629 0.4869 0.6257
C13 C 0.09161(15) 0.44390(13) 0.68252(14)
C14 C 0.08961(16) 0.50820(13) 0.60780(14)
H10 H 0.1224 0.4948 0.5536
C15 C 0.04709(15) 0.46395(13) 0.76410(14)
H11 H 0.0496 0.4204 0.8155
C16 C 0.03963(17) 0.59179(14) 0.61295(15)
H12 H 0.0367 0.6354 0.5615
C17 C -0.00616(16) 0.61189(14) 0.69314(16)
H13 H -0.0411 0.6690 0.6962
C18 C -0.00121(16) 0.54899(14) 0.76884(15)
H14 H -0.0310 0.5640 0.8244
C19 C 0.24175(15) 0.53541(12) 1.08849(13)
C20 C 0.14224(16) 0.58074(13) 1.07490(14)
H15 H 0.0759 0.5480 1.0550
C21 C 0.33940(16) 0.58311(13) 1.11544(13)
H16 H 0.4071 0.5519 1.1236
C22 C 0.33690(16) 0.67661(13) 1.13026(14)
H17 H 0.4031 0.7098 1.1487
C23 C 0.14090(16) 0.67413(13) 1.09065(14)
H18 H 0.0734 0.7055 1.0825
C24 C 0.23803(17) 0.72178(13) 1.11823(14)
H19 H 0.2368 0.7858 1.1289
Cu1C Cu 0.38483(2) 0.22713(2) 1.12160(2)
O5C O 0.37115(12) 0.26977(10) 0.44673(10)
O8C O 0.32210(10) 0.15408(9) 0.64161(9)
loop_
_geom_bond_atom_site_label_1
_geom_bond_atom_site_label_2
_geom_bond_site_symmetry_1
_geom_bond_site_symmetry_2
V1 O3 1_555 1_555
Cu1 O1 1_555 1_555
As1 O1 1_555 1_555
As2 O6 1_555 1_555
O2 As1 1_555 1_555
H1 O2 1_555 1_555
O3 As1 1_555 1_555
O4 V1 1_555 1_555
O5 V1 1_555 1_555
O6 V1 1_555 1_555
O7 As2 1_555 1_555
O8 As2 1_555 1_555
N1 Cu1 1_555 1_555
N2 Cu1 1_555 1_555
C1 N1 1_555 1_555
H2 C1 1_555 1_555
C2 C1 1_555 1_555
H3 C2 1_555 1_555
C3 C2 1_555 1_555
H4 C3 1_555 1_555
C4 C3 1_555 1_555
C5 N1 1_555 1_555
C6 C4 1_555 1_555
H5 C6 1_555 1_555
C7 C6 1_555 1_555
H6 C7 1_555 1_555
C8 C7 1_555 1_555
C9 N2 1_555 1_555
C10 C8 1_555 1_555
H7 C10 1_555 1_555
C11 C10 1_555 1_555
H8 C11 1_555 1_555
C12 N2 1_555 1_555
H9 C12 1_555 1_555
C13 As1 1_555 1_555
C14 C13 1_555 1_555
H10 C14 1_555 1_555
C15 C13 1_555 1_555
H11 C15 1_555 1_555
C16 C14 1_555 1_555
H12 C16 1_555 1_555
C17 C16 1_555 1_555
H13 C17 1_555 1_555
C18 C15 1_555 1_555
H14 C18 1_555 1_555
C19 As2 1_555 1_555
C20 C19 1_555 1_555
H15 C20 1_555 1_555
C21 C19 1_555 1_555
H16 C21 1_555 1_555
C22 C21 1_555 1_555
H17 C22 1_555 1_555
C23 C20 1_555 1_555
H18 C23 1_555 1_555
C24 C22 1_555 1_555
H19 C24 1_555 1_555
Cu1C O5 1_555 1_555
O5C Cu1 1_555 1_555
O8C Cu1 1_555 1_555
O8 Cu1C 1_555 1_555
C4 C5 1_555 1_555
C5 C9 1_555 1_555
C8 C9 1_555 1_555
C11 C12 1_555 1_555
C17 C18 1_555 1_555
C23 C24 1_555 1_555

#END
