
#######################################################################
#
#                 Cambridge Crystallographic Data Centre
#                                CCDC 
#
#######################################################################
#
# If this CIF has been generated from an entry in the Cambridge 
# Structural Database, then it will include bibliographic, chemical, 
# crystal, experimental, refinement or atomic coordinate data resulting 
# from the CCDC's data processing and validation procedures.
#
#######################################################################

data_CITYUB
_symmetry_cell_setting           triclinic
_symmetry_space_group_name_H-M   'P -1'
_symmetry_Int_Tables_number      2
_space_group_name_Hall           '-P 1'
loop_
_symmetry_equiv_pos_site_id
_symmetry_equiv_pos_as_xyz
1 x,y,z
2 -x,-y,-z
_cell_length_a                   12.031(2)
_cell_length_b                   12.169(2)
_cell_length_c                   18.278(3)
_cell_angle_alpha                90.743(3)
_cell_angle_beta                 97.993(3)
_cell_angle_gamma                112.527(3)
_cell_volume                     2441.37
loop_
_atom_site_label
_atom_site_type_symbol
_atom_site_fract_x
_atom_site_fract_y
_atom_site_fract_z
V1 V 0.07324(4) 0.48787(4) 1.07661(2)
Cu1 Cu 0.20467(3) 0.53379(3) 0.89594(2)
As1 As 0.16537(2) 0.72341(2) 0.98782(2)
As2 As 0.35937(2) 0.51009(2) 1.05457(2)
O1 O 0.36647(15) 0.52504(16) 0.96443(9)
O2 O 0.24533(16) 0.69981(15) 0.92499(9)
O3 O 0.01608(15) 0.68610(15) 0.95272(9)
O4 O 0.18038(15) 0.65279(15) 1.06692(9)
O5 O -0.06196(15) 0.50982(14) 1.05106(9)
O6 O 0.08219(16) 0.48769(15) 1.16523(9)
O7 O 0.21654(15) 0.44239(15) 1.07131(9)
O8 O 0.42773(16) 0.41472(16) 1.08745(10)
H1 H 0.4971 0.4362 1.0748
N1 N 0.29426(19) 0.56911(19) 0.80732(11)
N2 N 0.16126(19) 0.36730(19) 0.85576(11)
C1 C 0.3612(2) 0.6777(2) 0.78763(13)
H2 H 0.3590 0.7458 0.8123
C2 C 0.4333(3) 0.6939(3) 0.73261(14)
H3 H 0.4790 0.7715 0.7190
C3 C 0.4371(3) 0.5934(3) 0.69794(14)
H4 H 0.4880 0.6019 0.6613
C4 C 0.3667(3) 0.4806(3) 0.71672(14)
H5 H 0.3677 0.4114 0.6927
C5 C 0.2946(2) 0.4710(2) 0.77144(13)
C6 C 0.2129(2) 0.3565(2) 0.79599(13)
C7 C 0.1874(3) 0.2452(2) 0.76122(14)
H6 H 0.2215 0.2386 0.7183
C8 C 0.1115(3) 0.1440(2) 0.79040(15)
H7 H 0.0929 0.0672 0.7675
C9 C 0.0626(3) 0.1555(2) 0.85321(15)
H8 H 0.0120 0.0869 0.8744
C10 C 0.0893(2) 0.2690(2) 0.88440(14)
H9 H 0.0557 0.2774 0.9272
C11 C 0.2312(2) 0.8886(2) 1.02027(13)
C12 C 0.1589(3) 0.9551(2) 1.01262(15)
H10 H 0.0772 0.9204 0.9880
C13 C 0.3512(3) 0.9391(3) 1.05482(16)
H11 H 0.4003 0.8935 1.0591
C14 C 0.2086(3) 1.0738(3) 1.04180(17)
H12 H 0.1602 1.1201 1.0372
C15 C 0.3992(3) 1.0575(3) 1.08331(17)
H13 H 0.4815 1.0928 1.1070
C16 C 0.3280(3) 1.1240(3) 1.07739(15)
H14 H 0.3610 1.2042 1.0978
C17 C 0.4521(2) 0.6604(2) 1.10945(13)
C18 C 0.5379(3) 0.7486(2) 1.07652(14)
H15 H 0.5476 0.7354 1.0269
C19 C 0.4367(3) 0.6787(3) 1.18168(15)
H16 H 0.3780 0.6180 1.2041
C20 C 0.6099(3) 0.8571(3) 1.11661(16)
H17 H 0.6694 0.9176 1.0944
C21 C 0.5090(3) 0.7876(3) 1.22098(16)
H18 H 0.4993 0.8010 1.2706
C22 C 0.5947(3) 0.8763(3) 1.18838(16)
H19 H 0.6429 0.9504 1.2155
V1A V -0.07324(4) 0.51213(4) 0.92339(2)
Cu1A Cu -0.20467(3) 0.46621(3) 1.10406(2)
As1A As -0.16537(2) 0.27659(2) 1.01218(2)
As2A As -0.35937(2) 0.48991(2) 0.94543(2)
O1A O -0.36647(15) 0.47496(16) 1.03557(9)
O2A O -0.24533(16) 0.30019(15) 1.07501(9)
O3A O -0.01608(15) 0.31390(15) 1.04728(9)
O4A O -0.18038(15) 0.34721(15) 0.93308(9)
O5A O 0.06196(15) 0.49018(14) 0.94894(9)
O6A O -0.08219(16) 0.51231(15) 0.83477(9)
O7A O -0.21654(15) 0.55761(15) 0.92869(9)
O8A O -0.42773(16) 0.58528(16) 0.91255(10)
H1A H -0.4971 0.5638 0.9252
N1A N -0.29426(19) 0.43089(19) 1.19268(11)
N2A N -0.16126(19) 0.63270(19) 1.14424(11)
C1A C -0.3612(2) 0.3223(2) 1.21237(13)
H2A H -0.3590 0.2542 1.1877
C2A C -0.4333(3) 0.3061(3) 1.26739(14)
H3A H -0.4790 0.2285 1.2810
C3A C -0.4371(3) 0.4066(3) 1.30206(14)
H4A H -0.4880 0.3981 1.3387
C4A C -0.3667(3) 0.5194(3) 1.28328(14)
H5A H -0.3677 0.5886 1.3073
C5A C -0.2946(2) 0.5290(2) 1.22856(13)
C6A C -0.2129(2) 0.6435(2) 1.20401(13)
C7A C -0.1874(3) 0.7548(2) 1.23878(14)
H6A H -0.2215 0.7614 1.2817
C8A C -0.1115(3) 0.8560(2) 1.20960(15)
H7A H -0.0929 0.9328 1.2325
C9A C -0.0626(3) 0.8445(2) 1.14679(15)
H8A H -0.0120 0.9131 1.1256
C10A C -0.0893(2) 0.7310(2) 1.11560(14)
H9A H -0.0557 0.7226 1.0728
C11A C -0.2312(2) 0.1114(2) 0.97973(13)
C12A C -0.1589(3) 0.0449(2) 0.98738(15)
H10A H -0.0772 0.0796 1.0120
C13A C -0.3512(3) 0.0609(3) 0.94518(16)
H11A H -0.4003 0.1065 0.9409
C14A C -0.2086(3) -0.0738(3) 0.95820(17)
H12A H -0.1602 -0.1201 0.9628
C15A C -0.3992(3) -0.0575(3) 0.91669(17)
H13A H -0.4815 -0.0928 0.8930
C16A C -0.3280(3) -0.1240(3) 0.92261(15)
H14A H -0.3610 -0.2042 0.9022
C17A C -0.4521(2) 0.3396(2) 0.89055(13)
C18A C -0.5379(3) 0.2514(2) 0.92348(14)
H15A H -0.5476 0.2646 0.9731
C19A C -0.4367(3) 0.3213(3) 0.81832(15)
H16A H -0.3780 0.3820 0.7959
C20A C -0.6099(3) 0.1429(3) 0.88339(16)
H17A H -0.6694 0.0824 0.9056
C21A C -0.5090(3) 0.2124(3) 0.77902(16)
H18A H -0.4993 0.1990 0.7294
C22A C -0.5947(3) 0.1237(3) 0.81162(16)
H19A H -0.6429 0.0496 0.7845
V2 V 0.24475(4) 1.12059(4) 0.55507(2)
V3 V 0.63003(4) 1.05434(4) 0.40366(2)
Cu2 Cu 0.08163(3) 0.83356(3) 0.45836(2)
As3 As -0.02166(2) 0.92212(2) 0.58563(2)
As4 As 0.50268(2) 1.17176(2) 0.50690(2)
O9 O -0.12344(16) 0.97156(15) 0.53702(9)
O10 O -0.01193(16) 0.81023(15) 0.53629(9)
O11 O 0.10831(16) 1.04263(15) 0.60923(9)
O12 O 0.34756(16) 1.09874(15) 0.62017(9)
O13 O 0.25723(16) 1.25453(16) 0.57257(9)
O14 O 0.35527(16) 1.15242(15) 0.48037(9)
O15 O 0.51793(16) 1.07015(15) 0.56608(9)
O16 O 0.55502(16) 1.16397(15) 0.42646(9)
O17 O 0.75565(16) 1.10554(16) 0.46573(9)
O18 O 0.65653(17) 1.10198(16) 0.32272(9)
N3 N 0.1553(2) 0.83658(19) 0.36806(11)
N4 N -0.0152(2) 0.6631(2) 0.41774(11)
C23 C 0.2476(2) 0.9295(2) 0.34889(14)
H20 H 0.2876 0.9977 0.3828
C24 C 0.2867(3) 0.9294(2) 0.28089(14)
H21 H 0.3531 0.9959 0.2688
C25 C 0.2271(3) 0.8304(3) 0.23096(14)
H22 H 0.2497 0.8299 0.1832
C26 C 0.1343(2) 0.7326(2) 0.25151(13)
H23 H 0.0936 0.6635 0.2184
C27 C 0.1011(2) 0.7363(2) 0.32119(13)
C28 C 0.0115(2) 0.6341(2) 0.35250(13)
C29 C -0.0373(2) 0.5170(2) 0.32178(14)
H24 H -0.0175 0.4980 0.2760
C30 C -0.1153(3) 0.4283(2) 0.35891(15)
H25 H -0.1485 0.3477 0.3392
C31 C -0.1442(3) 0.4587(3) 0.42510(15)
H26 H -0.1982 0.3994 0.4510
C32 C -0.0931(2) 0.5768(2) 0.45291(14)
H27 H -0.1135 0.5978 0.4980
C33 C -0.0696(2) 0.8608(2) 0.67650(13)
C34 C -0.1855(3) 0.8364(2) 0.69370(14)
H28 H -0.2446 0.8522 0.6602
C35 C 0.0173(3) 0.8356(2) 0.72475(14)
H29 H 0.0958 0.8517 0.7123
C36 C -0.0127(3) 0.7867(2) 0.79108(14)
H30 H 0.0454 0.7686 0.8239
C37 C -0.2136(3) 0.7883(2) 0.76110(15)
H31 H -0.2920 0.7722 0.7738
C38 C -0.1275(3) 0.7640(2) 0.80963(14)
H32 H -0.1469 0.7319 0.8555
C39 C 0.5964(2) 1.3261(2) 0.55545(14)
C40 C 0.6033(3) 1.4294(2) 0.52081(15)
H33 H 0.5589 1.4240 0.4728
C41 C 0.6583(2) 1.3329(2) 0.62668(14)
H34 H 0.6511 1.2622 0.6506
C42 C 0.6755(3) 1.5402(2) 0.55688(16)
H35 H 0.6812 1.6110 0.5335
C43 C 0.7309(3) 1.4446(2) 0.66256(14)
H36 H 0.7744 1.4503 0.7110
C44 C 0.7395(3) 1.5469(2) 0.62754(15)
H37 H 0.7897 1.6227 0.6520
V2A V -0.24475(4) 0.87941(4) 0.44493(2)
V3A V 0.36997(4) 0.94566(4) 0.59634(2)
Cu2A Cu -0.08163(3) 1.16644(3) 0.54164(2)
Cu2A_2 Cu 0.91837(3) 1.16644(3) 0.54164(2)
O9A O 0.12344(16) 1.02844(15) 0.46298(9)
O12A O 0.65244(16) 0.90126(15) 0.37983(9)
O15A O 0.48207(16) 0.92985(15) 0.43392(9)
O17A O 0.24435(16) 0.89446(16) 0.53427(9)
loop_
_geom_bond_atom_site_label_1
_geom_bond_atom_site_label_2
_geom_bond_site_symmetry_1
_geom_bond_site_symmetry_2
V1 O4 1_555 1_555
Cu1 O1 1_555 1_555
As1 O2 1_555 1_555
As2 O1 1_555 1_555
O2 Cu1 1_555 1_555
O3 As1 1_555 1_555
O4 As1 1_555 1_555
O5 V1 1_555 1_555
O6 V1 1_555 1_555
O7 V1 1_555 1_555
O8 As2 1_555 1_555
H1 O8 1_555 1_555
N1 Cu1 1_555 1_555
N2 Cu1 1_555 1_555
C1 N1 1_555 1_555
H2 C1 1_555 1_555
C2 C1 1_555 1_555
H3 C2 1_555 1_555
C3 C2 1_555 1_555
H4 C3 1_555 1_555
C4 C3 1_555 1_555
H5 C4 1_555 1_555
C5 N1 1_555 1_555
C6 N2 1_555 1_555
C7 C6 1_555 1_555
H6 C7 1_555 1_555
C8 C7 1_555 1_555
H7 C8 1_555 1_555
C9 C8 1_555 1_555
H8 C9 1_555 1_555
C10 N2 1_555 1_555
H9 C10 1_555 1_555
C11 As1 1_555 1_555
C12 C11 1_555 1_555
H10 C12 1_555 1_555
C13 C11 1_555 1_555
H11 C13 1_555 1_555
C14 C12 1_555 1_555
H12 C14 1_555 1_555
C15 C13 1_555 1_555
H13 C15 1_555 1_555
C16 C14 1_555 1_555
H14 C16 1_555 1_555
C17 As2 1_555 1_555
C18 C17 1_555 1_555
H15 C18 1_555 1_555
C19 C17 1_555 1_555
H16 C19 1_555 1_555
C20 C18 1_555 1_555
H17 C20 1_555 1_555
C21 C19 1_555 1_555
H18 C21 1_555 1_555
C22 C20 1_555 1_555
H19 C22 1_555 1_555
V2 O11 1_555 1_555
V3 O16 1_555 1_555
Cu2 O10 1_555 1_555
As3 O9 1_555 1_555
As4 O14 1_555 1_555
O9 V2A 1_555 1_555
O10 As3 1_555 1_555
O11 As3 1_555 1_555
O12 V2 1_555 1_555
O13 V2 1_555 1_555
O14 V2 1_555 1_555
O15 As4 1_555 1_555
O16 As4 1_555 1_555
O17 V3 1_555 1_555
O18 V3 1_555 1_555
N3 Cu2 1_555 1_555
N4 Cu2 1_555 1_555
C23 N3 1_555 1_555
H20 C23 1_555 1_555
C24 C23 1_555 1_555
H21 C24 1_555 1_555
C25 C24 1_555 1_555
H22 C25 1_555 1_555
C26 C25 1_555 1_555
H23 C26 1_555 1_555
C27 N3 1_555 1_555
C28 N4 1_555 1_555
C29 C28 1_555 1_555
H24 C29 1_555 1_555
C30 C29 1_555 1_555
H25 C30 1_555 1_555
C31 C30 1_555 1_555
H26 C31 1_555 1_555
C32 N4 1_555 1_555
H27 C32 1_555 1_555
C33 As3 1_555 1_555
C34 C33 1_555 1_555
H28 C34 1_555 1_555
C35 C33 1_555 1_555
H29 C35 1_555 1_555
C36 C35 1_555 1_555
H30 C36 1_555 1_555
C37 C34 1_555 1_555
H31 C37 1_555 1_555
C38 C36 1_555 1_555
H32 C38 1_555 1_555
C39 As4 1_555 1_555
C40 C39 1_555 1_555
H33 C40 1_555 1_555
C41 C39 1_555 1_555
H34 C41 1_555 1_555
C42 C40 1_555 1_555
H35 C42 1_555 1_555
C43 C41 1_555 1_555
H36 C43 1_555 1_555
C44 C42 1_555 1_555
H37 C44 1_555 1_555
V1A O3 1_555 1_555
Cu1A O5 1_555 1_555
As1A O2A 1_555 1_555
As2A O1A 1_555 1_555
O1A Cu1A 1_555 1_555
O2A Cu1A 1_555 1_555
O3A V1 1_555 1_555
O4A V1A 1_555 1_555
O5A V1 1_555 1_555
O6A V1A 1_555 1_555
O7A V1A 1_555 1_555
O8A As2A 1_555 1_555
H1A O8A 1_555 1_555
N1A Cu1A 1_555 1_555
N2A Cu1A 1_555 1_555
C1A N1A 1_555 1_555
H2A C1A 1_555 1_555
C2A C1A 1_555 1_555
H3A C2A 1_555 1_555
C3A C2A 1_555 1_555
H4A C3A 1_555 1_555
C4A C3A 1_555 1_555
H5A C4A 1_555 1_555
C5A N1A 1_555 1_555
C6A N2A 1_555 1_555
C7A C6A 1_555 1_555
H6A C7A 1_555 1_555
C8A C7A 1_555 1_555
H7A C8A 1_555 1_555
C9A C8A 1_555 1_555
H8A C9A 1_555 1_555
C10A N2A 1_555 1_555
H9A C10A 1_555 1_555
C11A As1A 1_555 1_555
C12A C11A 1_555 1_555
H10A C12A 1_555 1_555
C13A C11A 1_555 1_555
H11A C13A 1_555 1_555
C14A C12A 1_555 1_555
H12A C14A 1_555 1_555
C15A C13A 1_555 1_555
H13A C15A 1_555 1_555
C16A C14A 1_555 1_555
H14A C16A 1_555 1_555
C17A As2A 1_555 1_555
C18A C17A 1_555 1_555
H15A C18A 1_555 1_555
C19A C17A 1_555 1_555
H16A C19A 1_555 1_555
C20A C18A 1_555 1_555
H17A C20A 1_555 1_555
C21A C19A 1_555 1_555
H18A C21A 1_555 1_555
C22A C20A 1_555 1_555
H19A C22A 1_555 1_555
V3A O12 1_555 1_555
Cu2A O9 1_555 1_555
Cu2A_2 O17 1_555 1_555
O9A V2 1_555 1_555
O12A V3 1_555 1_555
O15A V3 1_555 1_555
O17A Cu2 1_555 1_555
Cu1 O5A 1_555 1_555
As2 O7 1_555 1_555
O5 V1A 1_555 1_555
C4 C5 1_555 1_555
C5 C6 1_555 1_555
C9 C10 1_555 1_555
C15 C16 1_555 1_555
C21 C22 1_555 1_555
Cu2 O9A 1_555 1_555
O15 V3A 1_555 1_555
C26 C27 1_555 1_555
C27 C28 1_555 1_555
C31 C32 1_555 1_555
C37 C38 1_555 1_555
C43 C44 1_555 1_555
V1A O5A 1_555 1_555
As1A O3A 1_555 1_555
As1A O4A 1_555 1_555
As2A O7A 1_555 1_555
C4A C5A 1_555 1_555
C5A C6A 1_555 1_555
C9A C10A 1_555 1_555
C15A C16A 1_555 1_555
C21A C22A 1_555 1_555
V3A O17A 1_555 1_555

#END
