
#######################################################################
#
#                 Cambridge Crystallographic Data Centre
#                                CCDC 
#
#######################################################################
#
# If this CIF has been generated from an entry in the Cambridge 
# Structural Database, then it will include bibliographic, chemical, 
# crystal, experimental, refinement or atomic coordinate data resulting 
# from the CCDC's data processing and validation procedures.
#
#######################################################################

data_CITZOW
_symmetry_cell_setting           triclinic
_symmetry_space_group_name_H-M   'P -1'
_symmetry_Int_Tables_number      2
_space_group_name_Hall           '-P 1'
loop_
_symmetry_equiv_pos_site_id
_symmetry_equiv_pos_as_xyz
1 x,y,z
2 -x,-y,-z
_cell_length_a                   11.128(3)
_cell_length_b                   13.002(4)
_cell_length_c                   15.233(4)
_cell_angle_alpha                72.428(12)
_cell_angle_beta                 74.971(11)
_cell_angle_gamma                78.552(10)
_cell_volume                     2011.93
loop_
_atom_site_label
_atom_site_type_symbol
_atom_site_fract_x
_atom_site_fract_y
_atom_site_fract_z
Ag1 Ag 0.86053(2) 0.57756(2) 0.56044(2)
Ag2 Ag 0.99134(2) 0.63568(2) 0.91700(2)
P1 P 0.65349(3) 0.66363(3) 0.59398(3)
P2 P 1.03024(4) 0.81304(3) 0.82809(3)
O1 O 0.96944(9) 0.40629(8) 0.57590(7)
O2 O 0.81000(10) 0.34392(9) 0.69280(8)
C1 C 0.91041(13) 0.33402(12) 0.63696(10)
C2 C 0.97202(15) 0.21592(13) 0.63997(11)
F1 F 1.09710(10) 0.20642(9) 0.61230(9)
F2 F 0.92953(13) 0.17601(10) 0.58498(10)
F3 F 0.94927(12) 0.15020(9) 0.72610(8)
O3 O 1.13052(9) 0.47206(9) 0.95522(7)
O4 O 1.29259(10) 0.53390(9) 0.84075(8)
C3 C 1.24298(13) 0.46668(12) 0.90937(10)
C4 C 1.33210(15) 0.36413(14) 0.94495(11)
F4 F 1.41238(10) 0.33101(10) 0.87301(8)
F5 F 1.40169(11) 0.38567(11) 0.99493(9)
F6 F 1.27488(11) 0.27850(9) 0.99870(8)
C5 C 0.55593(13) 0.60274(13) 0.70835(10)
H1 H 0.4733 0.6483 0.7160
H2 H 0.5415 0.5299 0.7085
C6 C 0.61309(13) 0.59090(14) 0.79236(11)
H3 H 0.6294 0.6632 0.7920
H4 H 0.5524 0.5635 0.8515
N1 N 0.72968(11) 0.51676(11) 0.79012(9)
H5 H 0.7326 0.4539 0.7784
C7 C 0.83271(13) 0.54108(13) 0.80528(10)
O5 O 0.83779(11) 0.62587(10) 0.82342(9)
C8 C 0.94474(13) 0.45477(13) 0.80083(10)
C9 C 0.93514(15) 0.34943(13) 0.85672(11)
H6 H 0.8562 0.3307 0.8949
C10 C 1.03971(17) 0.27124(14) 0.85739(13)
H7 H 1.0329 0.1993 0.8964
C11 C 1.15484(16) 0.29869(14) 0.80060(12)
H8 H 1.2267 0.2452 0.8007
C12 C 1.16511(14) 0.40333(13) 0.74416(11)
H9 H 1.2438 0.4213 0.7052
C13 C 1.06074(13) 0.48254(12) 0.74414(10)
C14 C 1.07072(13) 0.59643(12) 0.68342(10)
O6 O 1.00682(10) 0.64083(9) 0.62370(8)
N2 N 1.15374(11) 0.64705(10) 0.69970(8)
H10 H 1.2050 0.6095 0.7369
C15 C 1.16056(14) 0.76264(12) 0.65712(10)
H11 H 1.1643 0.7789 0.5887
H12 H 1.2388 0.7808 0.6649
C16 C 1.04900(15) 0.83404(13) 0.70023(10)
H13 H 0.9715 0.8193 0.6884
H14 H 1.0589 0.9113 0.6680
C17 C 0.65008(13) 0.80378(12) 0.59503(10)
C18 C 0.53827(16) 0.87471(15) 0.60536(13)
H15 H 0.4604 0.8492 0.6147
C19 C 0.54028(18) 0.98203(15) 0.60212(14)
H16 H 0.4638 1.0294 0.6101
C20 C 0.6531(2) 1.02052(15) 0.58736(13)
H17 H 0.6542 1.0946 0.5837
C21 C 0.76382(19) 0.95133(15) 0.57807(14)
H18 H 0.8412 0.9775 0.5689
C22 C 0.76292(16) 0.84304(14) 0.58204(12)
H19 H 0.8397 0.7957 0.5759
C23 C 0.55592(13) 0.67430(12) 0.51124(11)
C24 C 0.60050(14) 0.72372(14) 0.41650(11)
H20 H 0.6782 0.7523 0.3974
C25 C 0.53226(15) 0.73160(15) 0.34978(12)
H21 H 0.5631 0.7663 0.2854
C26 C 0.41962(15) 0.68930(14) 0.37633(13)
H22 H 0.3734 0.6944 0.3304
C27 C 0.37504(15) 0.63974(15) 0.46972(13)
H23 H 0.2977 0.6106 0.4881
C28 C 0.44212(14) 0.63180(14) 0.53763(12)
H24 H 0.4104 0.5974 0.6019
C29 C 0.90545(14) 0.91961(12) 0.85393(10)
C30 C 0.90791(15) 0.97353(14) 0.91989(11)
H25 H 0.9774 0.9565 0.9494
C31 C 0.80948(16) 1.05188(15) 0.94271(12)
H26 H 0.8116 1.0872 0.9885
C32 C 0.70852(16) 1.07883(16) 0.89928(14)
H27 H 0.6423 1.1336 0.9140
C33 C 0.70481(16) 1.02524(16) 0.83399(15)
H28 H 0.6355 1.0434 0.8041
C34 C 0.80121(15) 0.94551(15) 0.81211(13)
H29 H 0.7966 0.9082 0.7685
C35 C 1.17310(13) 0.85365(12) 0.83714(10)
C36 C 1.20413(16) 0.95901(14) 0.79775(12)
H30 H 1.1480 1.0143 0.7665
C37 C 1.31693(17) 0.98329(17) 0.80421(14)
H31 H 1.3373 1.0555 0.7781
C38 C 1.40014(16) 0.90273(18) 0.84867(15)
H32 H 1.4775 0.9198 0.8524
C39 C 1.37116(16) 0.79864(17) 0.88714(14)
H33 H 1.4283 0.7436 0.9175
C40 C 1.25729(15) 0.77358(14) 0.88167(12)
H34 H 1.2372 0.7014 0.9085
Ag1A Ag 1.13947(2) 0.42244(2) 0.43956(2)
Ag2A Ag 1.00866(2) 0.36432(2) 1.08300(2)
O1A O 1.03056(9) 0.59371(8) 0.42410(7)
O3A O 0.86948(9) 0.52794(9) 1.04478(7)
loop_
_geom_bond_atom_site_label_1
_geom_bond_atom_site_label_2
_geom_bond_site_symmetry_1
_geom_bond_site_symmetry_2
Ag1 P1 1_555 1_555
Ag2 P2 1_555 1_555
P1 C5 1_555 1_555
P2 C16 1_555 1_555
O1 Ag1 1_555 1_555
O2 C1 1_555 1_555
C1 O1 1_555 1_555
C2 C1 1_555 1_555
F1 C2 1_555 1_555
F2 C2 1_555 1_555
F3 C2 1_555 1_555
O3 Ag2 1_555 1_555
O4 C3 1_555 1_555
C3 O3 1_555 1_555
C4 C3 1_555 1_555
F4 C4 1_555 1_555
F5 C4 1_555 1_555
F6 C4 1_555 1_555
C5 H1 1_555 1_555
H2 C5 1_555 1_555
C6 C5 1_555 1_555
H3 C6 1_555 1_555
H4 C6 1_555 1_555
N1 C6 1_555 1_555
H5 N1 1_555 1_555
C7 N1 1_555 1_555
O5 Ag2 1_555 1_555
C8 C7 1_555 1_555
C9 C8 1_555 1_555
H6 C9 1_555 1_555
C10 C9 1_555 1_555
H7 C10 1_555 1_555
C11 C10 1_555 1_555
H8 C11 1_555 1_555
C12 C11 1_555 1_555
H9 C12 1_555 1_555
C13 C8 1_555 1_555
C14 C13 1_555 1_555
O6 Ag1 1_555 1_555
N2 C14 1_555 1_555
H10 N2 1_555 1_555
C15 N2 1_555 1_555
H11 C15 1_555 1_555
H12 C15 1_555 1_555
C16 C15 1_555 1_555
H13 C16 1_555 1_555
H14 C16 1_555 1_555
C17 P1 1_555 1_555
C18 C17 1_555 1_555
H15 C18 1_555 1_555
C19 C18 1_555 1_555
H16 C19 1_555 1_555
C20 C19 1_555 1_555
H17 C20 1_555 1_555
C21 C20 1_555 1_555
H18 C21 1_555 1_555
C22 C17 1_555 1_555
H19 C22 1_555 1_555
C23 P1 1_555 1_555
C24 C23 1_555 1_555
H20 C24 1_555 1_555
C25 C24 1_555 1_555
H21 C25 1_555 1_555
C26 C25 1_555 1_555
H22 C26 1_555 1_555
C27 C26 1_555 1_555
H23 C27 1_555 1_555
C28 C23 1_555 1_555
H24 C28 1_555 1_555
C29 P2 1_555 1_555
C30 C29 1_555 1_555
H25 C30 1_555 1_555
C31 C30 1_555 1_555
H26 C31 1_555 1_555
C32 C31 1_555 1_555
H27 C32 1_555 1_555
C33 C32 1_555 1_555
H28 C33 1_555 1_555
C34 C29 1_555 1_555
H29 C34 1_555 1_555
C35 P2 1_555 1_555
C36 C35 1_555 1_555
H30 C36 1_555 1_555
C37 C36 1_555 1_555
H31 C37 1_555 1_555
C38 C37 1_555 1_555
H32 C38 1_555 1_555
C39 C38 1_555 1_555
H33 C39 1_555 1_555
C40 C35 1_555 1_555
H34 C40 1_555 1_555
Ag1A O1 1_555 1_555
Ag2A O3 1_555 1_555
O1A Ag1 1_555 1_555
O3A Ag2 1_555 1_555
C7 O5 1_555 1_555
C12 C13 1_555 1_555
C14 O6 1_555 1_555
C21 C22 1_555 1_555
C27 C28 1_555 1_555
C33 C34 1_555 1_555
C39 C40 1_555 1_555
Ag1A O1A 1_555 1_555
Ag2A O3A 1_555 1_555

#END
