
#######################################################################
#
#                 Cambridge Crystallographic Data Centre
#                                CCDC 
#
#######################################################################
#
# If this CIF has been generated from an entry in the Cambridge 
# Structural Database, then it will include bibliographic, chemical, 
# crystal, experimental, refinement or atomic coordinate data resulting 
# from the CCDC's data processing and validation procedures.
#
#######################################################################

data_CITZAH
_symmetry_cell_setting           triclinic
_symmetry_space_group_name_H-M   'P -1'
_symmetry_Int_Tables_number      2
_space_group_name_Hall           '-P 1'
loop_
_symmetry_equiv_pos_site_id
_symmetry_equiv_pos_as_xyz
1 x,y,z
2 -x,-y,-z
_cell_length_a                   11.8935(9)
_cell_length_b                   12.3996(10)
_cell_length_c                   17.1234(14)
_cell_angle_alpha                101.549(2)
_cell_angle_beta                 102.531(2)
_cell_angle_gamma                96.167(2)
_cell_volume                     2384.97
loop_
_atom_site_label
_atom_site_type_symbol
_atom_site_fract_x
_atom_site_fract_y
_atom_site_fract_z
O1 O -0.5292(3) -0.0728(3) 0.3520(2)
C1 C -0.6186(5) -0.1177(5) 0.2792(3)
H1 H -0.6573 -0.1908 0.2826
H2 H -0.5832 -0.1302 0.2315
C2 C -0.7089(5) -0.0425(5) 0.2653(3)
C3 C -0.7974(5) -0.0628(5) 0.1957(4)
H3 H -0.8021 -0.1247 0.1516
C4 C -0.8802(5) 0.0078(5) 0.1899(4)
H4 H -0.9418 -0.0051 0.1418
C5 C -0.8723(5) 0.0967(5) 0.2546(4)
H5 H -0.9290 0.1451 0.2524
C6 C -0.7801(5) 0.1141(5) 0.3229(3)
H6 H -0.7731 0.1763 0.3672
N1 N -0.6997(4) 0.0455(4) 0.3284(3)
O2 O -0.3852(3) 0.0100(3) 0.5009(2)
C7 C -0.2815(5) 0.0896(5) 0.5292(3)
H7 H -0.2434 0.0880 0.5864
H8 H -0.3014 0.1651 0.5293
C8 C -0.1984(5) 0.0653(5) 0.4752(3)
C9 C -0.1063(5) 0.1458(5) 0.4789(4)
H9 H -0.0973 0.2187 0.5124
C10 C -0.0269(5) 0.1170(5) 0.4321(4)
H10 H 0.0353 0.1714 0.4314
C11 C -0.0389(5) 0.0114(5) 0.3877(3)
H11 H 0.0169 -0.0105 0.3580
C12 C -0.1337(5) -0.0634(5) 0.3865(3)
H12 H -0.1421 -0.1374 0.3548
N2 N -0.2144(4) -0.0382(4) 0.4272(3)
O3 O -0.4572(3) -0.1910(3) 0.5004(2)
C13 C -0.5232(5) -0.2906(4) 0.5042(3)
H13 H -0.4739 -0.3501 0.5044
H14 H -0.5896 -0.3148 0.4551
C14 C -0.5680(4) -0.2732(4) 0.5801(3)
C15 C -0.6238(5) -0.3584(5) 0.6061(3)
H15 H -0.6349 -0.4336 0.5760
C16 C -0.6629(5) -0.3318(5) 0.6765(4)
H16 H -0.6994 -0.3891 0.6963
C17 C -0.6491(5) -0.2222(5) 0.7182(4)
H17 H -0.6785 -0.2030 0.7656
C18 C -0.5927(5) -0.1415(5) 0.6904(3)
H18 H -0.5810 -0.0662 0.7203
N3 N -0.5530(4) -0.1652(4) 0.6217(3)
N4 N -0.2603(4) -0.2816(4) 0.4301(3)
C19 C -0.1999(5) -0.3443(5) 0.4413(4)
C20 C -0.1203(6) -0.4233(5) 0.4559(5)
H19 H -0.1226 -0.4745 0.4037
H20 H -0.1438 -0.4659 0.4938
H21 H -0.0409 -0.3829 0.4801
Pt1 Pt -0.630050(19) -0.710000(18) 0.071810(13)
S1 S -0.53429(13) -0.53767(12) 0.13864(9)
C21 C -0.5645(5) -0.5251(5) 0.2328(3)
C22 C -0.5282(5) -0.4167(5) 0.2874(3)
N5 N -0.5005(4) -0.3284(4) 0.3281(3)
C23 C -0.6239(5) -0.6093(4) 0.2554(3)
C24 C -0.6498(5) -0.5942(4) 0.3344(3)
N6 N -0.6723(4) -0.5816(4) 0.3972(3)
S2 S -0.67402(12) -0.73798(11) 0.18911(8)
S3 S -0.73599(13) -0.87739(12) 0.00302(8)
C25 C -0.7259(5) -0.8822(5) -0.0960(3)
C26 C -0.7864(5) -0.9823(5) -0.1560(3)
N7 N -0.8340(4) -1.0640(4) -0.2006(3)
C27 C -0.6630(5) -0.7991(5) -0.1174(3)
C28 C -0.6507(5) -0.8094(5) -0.1994(4)
N8 N -0.3592(4) 0.8182(4) 1.2649(3)
S4 S -0.58898(13) -0.68012(12) -0.04604(9)
Mn1 Mn -0.38502(7) -0.15458(6) 0.40132(5)
Mn2 Mn -0.54014(7) 0.05809(6) 0.42577(5)
O1A O -0.4708(3) 0.0728(3) 0.6480(2)
C1A C -0.3814(5) 0.1177(5) 0.7208(3)
H1A H -0.3427 0.1908 0.7174
H2A H -0.4168 0.1302 0.7685
C2A C -0.2911(5) 0.0425(5) 0.7347(3)
C3A C -0.2026(5) 0.0628(5) 0.8043(4)
H3A H -0.1979 0.1247 0.8484
C4A C -0.1198(5) -0.0078(5) 0.8101(4)
H4A H -0.0582 0.0051 0.8582
C5A C -0.1277(5) -0.0967(5) 0.7454(4)
H5A H -0.0710 -0.1451 0.7476
C6A C -0.2199(5) -0.1141(5) 0.6771(3)
H6A H -0.2269 -0.1763 0.6328
N1A N -0.3003(4) -0.0455(4) 0.6716(3)
O2A O -0.6148(3) -0.0100(3) 0.4991(2)
C7A C -0.7185(5) -0.0896(5) 0.4708(3)
H7A H -0.7566 -0.0880 0.4136
H8A H -0.6986 -0.1651 0.4707
C8A C -0.8016(5) -0.0653(5) 0.5248(3)
C9A C -0.8937(5) -0.1458(5) 0.5211(4)
H9A H -0.9027 -0.2187 0.4876
C10A C -0.9731(5) -0.1170(5) 0.5679(4)
H10A H -1.0353 -0.1714 0.5686
C11A C -0.9611(5) -0.0114(5) 0.6123(3)
H11A H -1.0169 0.0105 0.6420
C12A C -0.8663(5) 0.0634(5) 0.6135(3)
H12A H -0.8579 0.1374 0.6452
N2A N -0.7856(4) 0.0382(4) 0.5728(3)
O3A O -0.5428(3) 0.1910(3) 0.4996(2)
C13A C -0.4768(5) 0.2906(4) 0.4958(3)
H13A H -0.5261 0.3501 0.4956
H14A H -0.4104 0.3148 0.5449
C14A C -0.4320(4) 0.2732(4) 0.4199(3)
C15A C -0.3762(5) 0.3584(5) 0.3939(3)
H15A H -0.3651 0.4336 0.4240
C16A C -0.3371(5) 0.3318(5) 0.3235(4)
H16A H -0.3006 0.3891 0.3037
C17A C -0.3509(5) 0.2222(5) 0.2818(4)
H17A H -0.3215 0.2030 0.2344
C18A C -0.4073(5) 0.1415(5) 0.3096(3)
H18A H -0.4190 0.0662 0.2797
N3A N -0.4470(4) 0.1652(4) 0.3783(3)
N4A N -0.7397(4) 0.2816(4) 0.5699(3)
C19A C -0.8001(5) 0.3443(5) 0.5587(4)
C20A C -0.8797(6) 0.4233(5) 0.5441(5)
H19A H -0.8774 0.4745 0.5963
H20A H -0.8562 0.4659 0.5062
H21A H -0.9591 0.3829 0.5199
Pt1A Pt -0.369950(19) 0.710000(18) 0.928190(13)
S1A S -0.46571(13) 0.53767(12) 0.86136(9)
C21A C -0.4355(5) 0.5251(5) 0.7672(3)
C22A C -0.4718(5) 0.4167(5) 0.7126(3)
N5A N -0.4995(4) 0.3284(4) 0.6719(3)
C23A C -0.3761(5) 0.6093(4) 0.7446(3)
C24A C -0.3502(5) 0.5942(4) 0.6656(3)
N6A N -0.3277(4) 0.5816(4) 0.6028(3)
S2A S -0.32598(12) 0.73798(11) 0.81089(8)
S3A S -0.26401(13) 0.87739(12) 0.99698(8)
C25A C -0.2741(5) 0.8822(5) 1.0960(3)
C26A C -0.2136(5) 0.9823(5) 1.1560(3)
N7A N -0.1660(4) 1.0640(4) 1.2006(3)
C27A C -0.3370(5) 0.7991(5) 1.1174(3)
C28A C -0.3493(5) 0.8094(5) 1.1994(4)
N8_2 N -0.3592(4) -0.1818(4) 0.2649(3)
N8A N -0.6408(4) 0.1818(4) 0.7351(3)
N8A_2 N -0.6408(4) -0.8182(4) -0.2649(3)
S4A S -0.41102(13) 0.68012(12) 1.04604(9)
Mn1A Mn -0.61498(7) 0.15458(6) 0.59868(5)
Mn1_2 Mn -0.38502(7) 0.84542(6) 1.40132(5)
Mn1A_2 Mn -0.61498(7) -0.84542(6) -0.40132(5)
Mn2A Mn -0.45986(7) -0.05809(6) 0.57423(5)
Pt2 Pt 0.10813(2) 0.42277(2) 1.06279(2)
S5 S 0.19853(17) 0.5143(2) 0.9852(2)
C29 C 0.1479(6) 0.4269(8) 0.8880(7)
C30 C 0.1889(7) 0.4626(10) 0.8223(8)
N9 N 0.2189(7) 0.4862(9) 0.7678(7)
C31 C 0.0764(6) 0.3297(7) 0.8725(6)
C32 C 0.0320(9) 0.2628(9) 0.7896(6)
N10 N -0.0048(9) 0.2128(7) 0.7243(5)
S6 S 0.02903(14) 0.28383(16) 0.94998(12)
S7 S 0.01561(15) 0.32548(14) 1.13545(11)
C33 C 0.0524(6) 0.4129(6) 1.2312(5)
C34 C 0.0070(8) 0.3765(7) 1.2950(6)
N11 N -0.0275(7) 0.3466(6) 1.3454(5)
C35 C 0.1209(6) 0.5127(6) 1.2485(6)
C36 C 0.1505(7) 0.5835(7) 1.3319(7)
N12 N 0.1762(6) 0.6352(6) 1.3982(6)
S8 S 0.17882(17) 0.56351(16) 1.17588(18)
N13 N -0.5314(5) -0.0401(5) 0.1108(4)
C37 C -0.5863(6) -0.0942(6) 0.0497(4)
C38 C -0.6547(7) -0.1627(6) -0.0280(5)
H22 H -0.7274 -0.1336 -0.0444
H23 H -0.6727 -0.2394 -0.0225
H24 H -0.6102 -0.1617 -0.0699
loop_
_geom_bond_atom_site_label_1
_geom_bond_atom_site_label_2
_geom_bond_site_symmetry_1
_geom_bond_site_symmetry_2
O1 C1 1_555 1_555
C1 H1 1_555 1_555
H2 C1 1_555 1_555
C2 C1 1_555 1_555
C3 C2 1_555 1_555
H3 C3 1_555 1_555
C4 C3 1_555 1_555
H4 C4 1_555 1_555
C5 C4 1_555 1_555
H5 C5 1_555 1_555
C6 C5 1_555 1_555
H6 C6 1_555 1_555
N1 C2 1_555 1_555
O2 C7 1_555 1_555
C7 H7 1_555 1_555
H8 C7 1_555 1_555
C8 C7 1_555 1_555
C9 C8 1_555 1_555
H9 C9 1_555 1_555
C10 C9 1_555 1_555
H10 C10 1_555 1_555
C11 C10 1_555 1_555
H11 C11 1_555 1_555
C12 C11 1_555 1_555
H12 C12 1_555 1_555
N2 C8 1_555 1_555
O3 C13 1_555 1_555
C13 H13 1_555 1_555
H14 C13 1_555 1_555
C14 C13 1_555 1_555
C15 C14 1_555 1_555
H15 C15 1_555 1_555
C16 C15 1_555 1_555
H16 C16 1_555 1_555
C17 C16 1_555 1_555
H17 C17 1_555 1_555
C18 C17 1_555 1_555
H18 C18 1_555 1_555
N3 C14 1_555 1_555
N4 C19 1_555 1_555
C19 C20 1_555 1_555
C20 H19 1_555 1_555
H20 C20 1_555 1_555
H21 C20 1_555 1_555
Pt1 S1 1_555 1_555
S1 C21 1_555 1_555
C21 C22 1_555 1_555
C22 N5 1_555 1_555
N5 Mn1 1_555 1_555
C23 C21 1_555 1_555
C24 C23 1_555 1_555
N6 C24 1_555 1_555
S2 Pt1 1_555 1_555
S3 Pt1 1_555 1_555
C25 S3 1_555 1_555
C26 C25 1_555 1_555
N7 C26 1_555 1_555
C27 C25 1_555 1_555
C28 C27 1_555 1_555
N8 C28A 1_555 1_555
S4 Pt1 1_555 1_555
Pt2 S5 1_555 1_555
S5 C29 1_555 1_555
C29 C30 1_555 1_555
C30 N9 1_555 1_555
C31 C29 1_555 1_555
C32 C31 1_555 1_555
N10 C32 1_555 1_555
S6 Pt2 1_555 1_555
S7 Pt2 1_555 1_555
C33 S7 1_555 1_555
C34 C33 1_555 1_555
N11 C34 1_555 1_555
C35 C33 1_555 1_555
C36 C35 1_555 1_555
N12 C36 1_555 1_555
S8 Pt2 1_555 1_555
N13 C37 1_555 1_555
C37 C38 1_555 1_555
C38 H22 1_555 1_555
H23 C38 1_555 1_555
H24 C38 1_555 1_555
Mn1 O1 1_555 1_555
Mn2 O1 1_555 1_555
O1A C1A 1_555 1_555
C1A H1A 1_555 1_555
H2A C1A 1_555 1_555
C2A C1A 1_555 1_555
C3A C2A 1_555 1_555
H3A C3A 1_555 1_555
C4A C3A 1_555 1_555
H4A C4A 1_555 1_555
C5A C4A 1_555 1_555
H5A C5A 1_555 1_555
C6A C5A 1_555 1_555
H6A C6A 1_555 1_555
N1A C2A 1_555 1_555
O2A Mn2 1_555 1_555
C7A O2A 1_555 1_555
H7A C7A 1_555 1_555
H8A C7A 1_555 1_555
C8A C7A 1_555 1_555
C9A C8A 1_555 1_555
H9A C9A 1_555 1_555
C10A C9A 1_555 1_555
H10A C10A 1_555 1_555
C11A C10A 1_555 1_555
H11A C11A 1_555 1_555
C12A C11A 1_555 1_555
H12A C12A 1_555 1_555
N2A C8A 1_555 1_555
O3A Mn2 1_555 1_555
C13A O3A 1_555 1_555
H13A C13A 1_555 1_555
H14A C13A 1_555 1_555
C14A C13A 1_555 1_555
C15A C14A 1_555 1_555
H15A C15A 1_555 1_555
C16A C15A 1_555 1_555
H16A C16A 1_555 1_555
C17A C16A 1_555 1_555
H17A C17A 1_555 1_555
C18A C17A 1_555 1_555
H18A C18A 1_555 1_555
N3A Mn2 1_555 1_555
N4A C19A 1_555 1_555
C19A C20A 1_555 1_555
C20A H19A 1_555 1_555
H20A C20A 1_555 1_555
H21A C20A 1_555 1_555
Pt1A S1A 1_555 1_555
S1A C21A 1_555 1_555
C21A C22A 1_555 1_555
C22A N5A 1_555 1_555
N5A Mn1A 1_555 1_555
C23A C21A 1_555 1_555
C24A C23A 1_555 1_555
N6A C24A 1_555 1_555
S2A Pt1A 1_555 1_555
S3A Pt1A 1_555 1_555
C25A S3A 1_555 1_555
C26A C25A 1_555 1_555
N7A C26A 1_555 1_555
C27A C25A 1_555 1_555
C28A C27A 1_555 1_555
N8_2 Mn1 1_555 1_555
N8A Mn1A 1_555 1_555
N8A_2 C28 1_555 1_555
S4A Pt1A 1_555 1_555
Mn1A O1A 1_555 1_555
Mn1_2 N8 1_555 1_555
Mn1A_2 N8A_2 1_555 1_555
Mn2A O2 1_555 1_555
C6 N1 1_555 1_555
N1 Mn2 1_555 1_555
O2 Mn1 1_555 1_555
O2 Mn2 1_555 1_555
C12 N2 1_555 1_555
N2 Mn1 1_555 1_555
O3 Mn1 1_555 1_555
O3 Mn2A 1_555 1_555
C18 N3 1_555 1_555
N3 Mn2A 1_555 1_555
N4 Mn1 1_555 1_555
C23 S2 1_555 1_555
C27 S4 1_555 1_555
C31 S6 1_555 1_555
C35 S8 1_555 1_555
O1A Mn2A 1_555 1_555
C6A N1A 1_555 1_555
N1A Mn2A 1_555 1_555
O2A Mn1A 1_555 1_555
O2A Mn2A 1_555 1_555
C12A N2A 1_555 1_555
N2A Mn1A 1_555 1_555
O3A Mn1A 1_555 1_555
C14A N3A 1_555 1_555
C18A N3A 1_555 1_555
N4A Mn1A 1_555 1_555
C23A S2A 1_555 1_555
C27A S4A 1_555 1_555

#END
