
#######################################################################
#
#                 Cambridge Crystallographic Data Centre
#                                CCDC 
#
#######################################################################
#
# If this CIF has been generated from an entry in the Cambridge 
# Structural Database, then it will include bibliographic, chemical, 
# crystal, experimental, refinement or atomic coordinate data resulting 
# from the CCDC's data processing and validation procedures.
#
#######################################################################

data_CITZIP
_symmetry_cell_setting           monoclinic
_symmetry_space_group_name_H-M   'C 2/c'
_symmetry_Int_Tables_number      15
_space_group_name_Hall           '-C 2yn'
loop_
_symmetry_equiv_pos_site_id
_symmetry_equiv_pos_as_xyz
1 x,y,z
2 1/2+x,1/2+y,z
3 -x,y,1/2-z
4 1/2-x,1/2+y,1/2-z
5 -x,-y,-z
6 1/2-x,1/2-y,-z
7 x,-y,1/2+z
8 1/2+x,1/2-y,1/2+z
_cell_length_a                   17.5151(5)
_cell_length_b                   13.7564(2)
_cell_length_c                   10.8123(4)
_cell_angle_alpha                90
_cell_angle_beta                 105.532(2)
_cell_angle_gamma                90
_cell_volume                     2510.03
loop_
_atom_site_label
_atom_site_type_symbol
_atom_site_fract_x
_atom_site_fract_y
_atom_site_fract_z
Co1 Co 0.0000 0.90413(12) 0.2500
Co2 Co 0.09052(6) 0.96960(9) 0.04928(11)
O1 O -0.0211(3) 0.9158(4) 0.0514(5)
O2 O 0.0809(3) 1.0127(4) 0.2317(6)
O3 O 0.1377(4) 1.0916(5) 0.4108(6)
N1 N 0.1878(4) 1.0677(5) 0.1162(7)
O4 O 0.4177(4) 1.2934(5) 0.2284(7)
C1 C 0.2971(6) 1.1672(7) 0.1042(9)
H1 H 0.3331 1.1853 0.0589
C2 C 0.2405(5) 1.0959(7) 0.0556(9)
H2 H 0.2398 1.0669 -0.0225
C3 C 0.2995(5) 1.2108(6) 0.2195(8)
O5 O 0.3423(4) 1.3479(5) 0.3494(7)
C4 C 0.2455(5) 1.1790(7) 0.2863(8)
H3 H 0.2461 1.2055 0.3656
C5 C 0.3582(5) 1.2909(7) 0.2711(9)
C6 C 0.1918(5) 1.1077(7) 0.2320(8)
C7 C 0.1324(5) 1.0692(6) 0.2973(9)
Co1A Co 0.5000 1.40413(12) 0.2500
Co1A_2 Co -0.5000 1.40413(12) 0.2500
Co2B Co -0.09052(6) 0.96960(9) 0.45072(11)
Co2D Co -0.09052(6) 1.03040(9) -0.04928(11)
Co2F Co 0.09052(6) 1.03040(9) 0.54928(11)
Co2C Co 0.40948(6) 1.46960(9) 0.45072(11)
Co2A Co -0.40948(6) 1.46960(9) 0.04928(11)
O1B O 0.0211(3) 0.9158(4) 0.4486(5)
O1D O 0.0211(3) 1.0842(4) -0.0514(5)
O1F O -0.0211(3) 1.0842(4) 0.5514(5)
O2B O -0.0809(3) 1.0127(4) 0.2683(6)
O3B O -0.1377(4) 1.0916(5) 0.0892(6)
O3F O 0.1377(4) 0.9084(5) -0.0892(6)
O3D O -0.1377(4) 0.9084(5) 0.5892(6)
N1B N -0.1878(4) 1.0677(5) 0.3838(7)
O4B O -0.4177(4) 1.2934(5) 0.2716(7)
O4A O -0.0823(4) 0.7934(5) 0.2284(7)
O4C O 0.0823(4) 0.7934(5) 0.2716(7)
C1B C -0.2971(6) 1.1672(7) 0.3958(9)
H1B H -0.3331 1.1853 0.4411
C2B C -0.2405(5) 1.0959(7) 0.4444(9)
H2B H -0.2398 1.0669 0.5225
C3B C -0.2995(5) 1.2108(6) 0.2805(8)
O5B O -0.3423(4) 1.3479(5) 0.1506(7)
O5C O 0.1577(4) 0.8479(5) 0.1506(7)
O5A O -0.1577(4) 0.8479(5) 0.3494(7)
C4B C -0.2455(5) 1.1790(7) 0.2137(8)
H3B H -0.2461 1.2055 0.1344
C5B C -0.3582(5) 1.2909(7) 0.2289(9)
C6B C -0.1918(5) 1.1077(7) 0.2680(8)
C7B C -0.1324(5) 1.0692(6) 0.2027(9)
O6 O -0.0546(10) 0.7344(11) -0.100(2)
O7 O 0.3276(9) 0.8969(12) 0.240(3)
O8 O 0.1010(12) 0.6932(16) -0.068(2)
O9 O 0.3978(16) 1.0186(19) 0.438(3)
O10 O 0.0059(17) 0.6001(19) 0.345(4)
loop_
_geom_bond_atom_site_label_1
_geom_bond_atom_site_label_2
_geom_bond_site_symmetry_1
_geom_bond_site_symmetry_2
Co1 O1 1_555 1_555
Co2 O1 1_555 1_555
O1 Co2D 1_555 1_555
O2 Co1 1_555 1_555
O3 C7 1_555 1_555
N1 Co2 1_555 1_555
O4 C5 1_555 1_555
C1 H1 1_555 1_555
C2 N1 1_555 1_555
H2 C2 1_555 1_555
C3 C1 1_555 1_555
O5 C5 1_555 1_555
C4 C3 1_555 1_555
H3 C4 1_555 1_555
C5 C3 1_555 1_555
C6 N1 1_555 1_555
C7 O2 1_555 1_555
Co1A O4 1_555 1_555
Co1A_2 O4B 1_555 1_555
Co2B O1B 1_555 1_555
Co2D O1D 1_555 1_555
Co2F O3 1_555 1_555
Co2C O5 1_555 1_555
Co2A O5B 1_555 1_555
O1B Co1 1_555 1_555
O1D Co2 1_555 1_555
O1F Co2B 1_555 1_555
O2B Co1 1_555 1_555
O3B Co2D 1_555 1_555
O3F Co2 1_555 1_555
O3D Co2B 1_555 1_555
N1B Co2B 1_555 1_555
O4B C5B 1_555 1_555
O4A Co1 1_555 1_555
O4C Co1 1_555 1_555
C1B H1B 1_555 1_555
C2B N1B 1_555 1_555
H2B C2B 1_555 1_555
C3B C1B 1_555 1_555
O5B C5B 1_555 1_555
O5C Co2 1_555 1_555
O5A Co2B 1_555 1_555
C4B C3B 1_555 1_555
H3B C4B 1_555 1_555
C5B C3B 1_555 1_555
C6B N1B 1_555 1_555
C7B O2B 1_555 1_555
Co2 O2 1_555 1_555
C1 C2 1_555 1_555
C4 C6 1_555 1_555
C6 C7 1_555 1_555
Co2B O2B 1_555 1_555
Co2F O1B 1_555 1_555
Co2F O1F 1_555 1_555
O3B C7B 1_555 1_555
C1B C2B 1_555 1_555
C4B C6B 1_555 1_555
C6B C7B 1_555 1_555

#END
