
#######################################################################
#
#                 Cambridge Crystallographic Data Centre
#                                CCDC 
#
#######################################################################
#
# If this CIF has been generated from an entry in the Cambridge 
# Structural Database, then it will include bibliographic, chemical, 
# crystal, experimental, refinement or atomic coordinate data resulting 
# from the CCDC's data processing and validation procedures.
#
#######################################################################

data_CIVBOZ
_symmetry_cell_setting           orthorhombic
_symmetry_space_group_name_H-M   'P 21 21 21'
_symmetry_Int_Tables_number      19
_space_group_name_Hall           'P 2ac 2ab'
loop_
_symmetry_equiv_pos_site_id
_symmetry_equiv_pos_as_xyz
1 x,y,z
2 1/2-x,-y,1/2+z
3 -x,1/2+y,1/2-z
4 1/2+x,1/2-y,-z
_cell_length_a                   6.0249(8)
_cell_length_b                   16.660(2)
_cell_length_c                   26.145(4)
_cell_angle_alpha                90
_cell_angle_beta                 90
_cell_angle_gamma                90
_cell_volume                     2624.3
loop_
_atom_site_label
_atom_site_type_symbol
_atom_site_fract_x
_atom_site_fract_y
_atom_site_fract_z
C1 C 0.1247(15) 0.3137(5) 0.4112(3)
C2 C 0.1803(18) 0.3849(6) 0.4359(3)
H1 H 0.3071 0.4122 0.4254
C3 C 0.058(2) 0.4160(6) 0.4744(4)
H2 H 0.1007 0.4632 0.4906
C4 C -0.136(2) 0.3754(6) 0.4897(4)
H3 H -0.2209 0.3959 0.5164
C5 C -0.2039(19) 0.3050(5) 0.4653(4)
H4 H -0.3330 0.2786 0.4751
C6 C -0.0715(17) 0.2755(5) 0.4256(3)
H5 H -0.1153 0.2293 0.4084
C7 C 0.2649(13) 0.2816(5) 0.3672(3)
H6 H 0.4008 0.3138 0.3652
C8 C 0.3319(17) 0.1927(5) 0.3722(3)
H7 H 0.4143 0.1852 0.4032
H8 H 0.4221 0.1776 0.3435
H9 H 0.2009 0.1599 0.3730
C9 C 0.4447(15) 0.2024(5) 0.0922(3)
C10 C 0.3203(17) 0.1331(5) 0.0776(4)
H10 H 0.1977 0.1171 0.0966
C11 C 0.385(2) 0.0895(7) 0.0340(4)
H11 H 0.3009 0.0462 0.0227
C12 C 0.575(2) 0.1117(6) 0.0084(4)
H12 H 0.6236 0.0806 -0.0189
C13 C 0.696(2) 0.1793(6) 0.0223(4)
H13 H 0.8208 0.1944 0.0038
C14 C 0.6256(17) 0.2237(6) 0.0642(4)
H14 H 0.7049 0.2694 0.0734
C15 C 0.3725(14) 0.2506(5) 0.1374(3)
H15 H 0.4952 0.2856 0.1478
C16 C 0.171(2) 0.3032(6) 0.1238(4)
H16 H 0.0411 0.2825 0.1404
H17 H 0.1490 0.3027 0.0874
H18 H 0.1975 0.3573 0.1350
Cu1 Cu 0.24053(19) 0.24874(6) 0.25184(4)
Cu2 Cu 0.39793(17) 0.48709(5) 0.23473(4)
Cu3 Cu 0.10394(17) 0.00444(5) 0.26618(4)
N1 N 0.1310(12) 0.2956(4) 0.3179(2)
H19 H 0.1188 0.3490 0.3135
H20 H -0.0069 0.2766 0.3233
N2 N 0.3034(12) 0.2020(4) 0.1819(2)
H21 H 0.4092 0.1645 0.1863
H22 H 0.1797 0.1756 0.1724
N3 N 0.4536(13) 0.3416(4) 0.2425(3)
N4 N 0.6458(13) 0.3342(4) 0.2389(3)
N5 N 0.8318(13) 0.3311(4) 0.2334(3)
N6 N 0.6523(11) 0.5075(4) 0.2820(3)
N7 N 0.6653(10) 0.4704(4) 0.3242(2)
N8 N 0.6822(13) 0.4356(5) 0.3601(3)
N9 N 0.6363(12) 0.5012(4) 0.1845(3)
N10 N 0.6616(12) 0.5041(4) 0.1384(3)
N11 N 0.6746(15) 0.5106(5) 0.0970(4)
N12 N 0.1380(12) 0.4834(4) 0.2857(3)
N13 N 0.1231(13) 0.4765(5) 0.3317(3)
N14 N 0.1099(16) 0.4662(5) 0.3737(4)
N15 N 0.1520(12) 0.4913(4) 0.1872(3)
N16 N 0.1561(12) 0.5220(4) 0.1456(3)
N17 N 0.1728(15) 0.5507(5) 0.1052(3)
N18 N 0.0491(11) 0.1506(4) 0.2604(3)
N19 N -0.1544(16) 0.1594(4) 0.2650(3)
N20 N -0.3461(14) 0.1582(4) 0.2678(4)
Cu3B Cu 0.89606(17) 0.50444(5) 0.23382(4)
Cu3B_2 Cu -0.10394(17) 0.50444(5) 0.23382(4)
N6B N 0.3477(11) 0.0075(4) 0.2180(3)
N9B N 0.3637(12) 0.0012(4) 0.3155(3)
N12B N -0.1380(12) -0.0166(4) 0.2143(3)
N15B N -0.1520(12) -0.0087(4) 0.3128(3)
loop_
_geom_bond_atom_site_label_1
_geom_bond_atom_site_label_2
_geom_bond_site_symmetry_1
_geom_bond_site_symmetry_2
C1 C2 1_555 1_555
C2 H1 1_555 1_555
C3 C2 1_555 1_555
H2 C3 1_555 1_555
C4 C3 1_555 1_555
H3 C4 1_555 1_555
C5 C4 1_555 1_555
H4 C5 1_555 1_555
C6 C1 1_555 1_555
H5 C6 1_555 1_555
C7 C1 1_555 1_555
H6 C7 1_555 1_555
C8 C7 1_555 1_555
H7 C8 1_555 1_555
H8 C8 1_555 1_555
H9 C8 1_555 1_555
C9 C10 1_555 1_555
C10 H10 1_555 1_555
C11 C10 1_555 1_555
H11 C11 1_555 1_555
C12 C11 1_555 1_555
H12 C12 1_555 1_555
C13 C12 1_555 1_555
H13 C13 1_555 1_555
C14 C9 1_555 1_555
H14 C14 1_555 1_555
C15 C9 1_555 1_555
H15 C15 1_555 1_555
C16 C15 1_555 1_555
H16 C16 1_555 1_555
H17 C16 1_555 1_555
H18 C16 1_555 1_555
Cu1 N1 1_555 1_555
Cu2 N3 1_555 1_555
Cu3 N18 1_555 1_555
N1 C7 1_555 1_555
H19 N1 1_555 1_555
H20 N1 1_555 1_555
N2 C15 1_555 1_555
H21 N2 1_555 1_555
H22 N2 1_555 1_555
N3 Cu1 1_555 1_555
N4 N3 1_555 1_555
N5 N4 1_555 1_555
N6 Cu2 1_555 1_555
N7 N6 1_555 1_555
N8 N7 1_555 1_555
N9 Cu2 1_555 1_555
N10 N9 1_555 1_555
N11 N10 1_555 1_555
N12 Cu2 1_555 1_555
N13 N12 1_555 1_555
N14 N13 1_555 1_555
N15 Cu2 1_555 1_555
N16 N15 1_555 1_555
N17 N16 1_555 1_555
N18 Cu1 1_555 1_555
N19 N18 1_555 1_555
N20 N19 1_555 1_555
Cu3B N6 1_555 1_555
Cu3B_2 N12 1_555 1_555
N6B Cu3 1_555 1_555
N9B Cu3 1_555 1_555
N12B Cu3 1_555 1_555
N15B Cu3 1_555 1_555
C5 C6 1_555 1_555
C13 C14 1_555 1_555
Cu1 N2 1_555 1_555
N9 Cu3B 1_555 1_555
N15 Cu3B_2 1_555 1_555

#END
