
#######################################################################
#
#                 Cambridge Crystallographic Data Centre
#                                CCDC 
#
#######################################################################
#
# If this CIF has been generated from an entry in the Cambridge 
# Structural Database, then it will include bibliographic, chemical, 
# crystal, experimental, refinement or atomic coordinate data resulting 
# from the CCDC's data processing and validation procedures.
#
#######################################################################

data_CIVBUF
_symmetry_cell_setting           monoclinic
_symmetry_space_group_name_H-M   'C c'
_symmetry_Int_Tables_number      9
_space_group_name_Hall           'C -2yc'
loop_
_symmetry_equiv_pos_site_id
_symmetry_equiv_pos_as_xyz
1 x,y,z
2 x,-y,1/2+z
3 1/2+x,1/2+y,z
4 1/2+x,1/2-y,1/2+z
_cell_length_a                   12.991(3)
_cell_length_b                   12.200(2)
_cell_length_c                   25.812(5)
_cell_angle_alpha                90
_cell_angle_beta                 101.63(3)
_cell_angle_gamma                90
_cell_volume                     4006.96
loop_
_atom_site_label
_atom_site_type_symbol
_atom_site_fract_x
_atom_site_fract_y
_atom_site_fract_z
Co1 Co 0.17155(9) 0.17960(8) 0.28514(5)
N1 N 0.1745(7) 0.1649(5) 0.3594(3)
N2 N 0.1050(6) 0.0299(5) 0.2615(3)
C1 C 0.0917(9) 0.1929(7) 0.3798(4)
N3 N 0.3229(6) 0.1134(5) 0.3101(3)
N4 N 0.1690(6) 0.1874(5) 0.2116(3)
N5 N 0.2312(6) 0.3335(5) 0.2816(3)
C2 C 0.1005(8) 0.0102(6) 0.2101(3)
C3 C 0.3471(8) 0.0932(6) 0.3626(3)
C4 C 0.2578(8) 0.4050(7) 0.3201(4)
H1 H 0.2546 0.3837 0.3543
N6 N 0.0258(7) 0.2505(6) 0.2912(4)
C5 C 0.1351(7) 0.0993(6) 0.1804(3)
C6 C 0.4456(9) 0.0577(7) 0.3879(4)
H2 H 0.4597 0.0439 0.4240
C7 C 0.0066(9) 0.2403(7) 0.3407(5)
C8 C 0.4002(8) 0.0971(6) 0.2825(4)
H3 H 0.3860 0.1107 0.2463
C9 C 0.2394(8) 0.3633(6) 0.2313(3)
C10 C 0.2906(9) 0.5115(8) 0.3120(4)
H4 H 0.3088 0.5602 0.3401
C11 C -0.0888(11) 0.2756(8) 0.3519(6)
H5 H -0.1025 0.2685 0.3858
C12 C 0.0926(11) 0.1743(10) 0.4331(5)
H6 H 0.0355 0.1954 0.4475
C13 C -0.1407(11) 0.3341(8) 0.2625(8)
H7 H -0.1886 0.3680 0.2356
C14 C 0.1798(9) 0.1906(8) 0.1077(4)
H8 H 0.1857 0.1908 0.0724
C15 C 0.2619(9) 0.1175(7) 0.3902(3)
C16 C 0.0354(9) -0.1461(7) 0.2731(4)
H9 H 0.0141 -0.1975 0.2953
C17 C 0.0750(8) -0.0448(6) 0.2917(4)
H10 H 0.0805 -0.0292 0.3275
C18 C -0.0479(10) 0.2963(7) 0.2541(5)
H11 H -0.0345 0.3025 0.2201
C19 C 0.1374(9) 0.1012(7) 0.1273(4)
H12 H 0.1106 0.0431 0.1054
C20 C 0.1755(13) 0.1261(12) 0.4637(5)
H13 H 0.1756 0.1134 0.4992
C21 C 0.0612(9) -0.0895(7) 0.1881(4)
H14 H 0.0567 -0.1032 0.1523
C22 C 0.4980(9) 0.0613(7) 0.3060(5)
H15 H 0.5484 0.0494 0.2856
C23 C 0.0291(10) -0.1674(8) 0.2201(5)
H16 H 0.0032 -0.2344 0.2060
C24 C 0.2688(9) 0.4675(7) 0.2194(4)
H17 H 0.2711 0.4876 0.1849
C25 C 0.5219(9) 0.0430(7) 0.3588(5)
H18 H 0.5892 0.0208 0.3751
C26 C 0.2068(7) 0.2784(6) 0.1917(3)
C32 C 0.2143(8) 0.2806(7) 0.1387(4)
H19 H 0.2418 0.3414 0.1246
C33 C 0.2608(11) 0.0952(10) 0.4430(4)
H20 H 0.3173 0.0597 0.4642
C34 C -0.1620(11) 0.3211(10) 0.3116(8)
H21 H -0.2268 0.3432 0.3180
C35 C 0.2951(11) 0.5419(8) 0.2615(5)
H22 H 0.3158 0.6127 0.2550
Mn1 Mn -0.00142(12) 0.57554(10) 0.07266(6)
Cr1 Cr -0.13746(12) 0.98792(11) 0.00412(6)
Cl1 Cl -0.0560(3) 0.5608(2) 0.15474(11)
O1 O -0.1908(5) 0.9937(5) 0.0703(2)
O2 O -0.1839(5) 0.8314(4) -0.0073(2)
O3 O -0.0861(6) 1.0008(5) -0.0610(2)
O4 O -0.0788(5) 1.1337(4) 0.0164(2)
O5 O 0.0484(5) 0.7542(5) 0.0765(2)
C27 C -0.0175(9) 0.8131(7) 0.0493(3)
O6 O -0.0063(5) 0.9167(4) 0.0429(2)
O7 O -0.1344(6) 0.6630(4) 0.0214(3)
O8 O -0.2793(5) 1.0422(5) -0.0275(2)
O9 O 0.0102(6) 1.2595(5) -0.0186(3)
C28 C -0.0318(8) 1.1722(8) -0.0189(3)
C29 C -0.2859(8) 1.0262(6) 0.0628(3)
O10 O 0.0000(7) 1.1145(7) -0.1040(3)
C30 C -0.1194(8) 0.7641(7) 0.0186(3)
C31 C -0.0365(8) 1.0907(8) -0.0666(3)
O11 O -0.0445(7) 0.4055(4) 0.0508(3)
C36 C -0.3375(9) 1.0503(7) 0.0050(3)
O14 O -0.3365(6) 1.0368(5) 0.0976(2)
O15 O -0.4315(6) 1.0759(5) -0.0042(3)
Mn1B Mn -0.50142(12) 1.07554(10) 0.07266(6)
O14B O 0.1635(6) 0.5368(5) 0.0976(2)
O15B O 0.0685(6) 0.5759(5) -0.0042(3)
O12 O 0.1873(8) 1.2383(8) -0.1037(3)
O13 O -0.0987(16) 0.2596(13) 0.1156(7)
C37 C -0.2002(19) 0.283(2) 0.1164(12)
loop_
_geom_bond_atom_site_label_1
_geom_bond_atom_site_label_2
_geom_bond_site_symmetry_1
_geom_bond_site_symmetry_2
Co1 N1 1_555 1_555
N1 C1 1_555 1_555
N2 Co1 1_555 1_555
C1 C7 1_555 1_555
N3 Co1 1_555 1_555
N4 Co1 1_555 1_555
N5 Co1 1_555 1_555
C2 N2 1_555 1_555
C3 N3 1_555 1_555
C4 N5 1_555 1_555
H1 C4 1_555 1_555
N6 Co1 1_555 1_555
C5 N4 1_555 1_555
C6 C3 1_555 1_555
H2 C6 1_555 1_555
C7 N6 1_555 1_555
C8 N3 1_555 1_555
H3 C8 1_555 1_555
C9 N5 1_555 1_555
C10 C4 1_555 1_555
H4 C10 1_555 1_555
C11 C7 1_555 1_555
H5 C11 1_555 1_555
C12 C1 1_555 1_555
H6 C12 1_555 1_555
C13 H7 1_555 1_555
C14 H8 1_555 1_555
C15 N1 1_555 1_555
C16 H9 1_555 1_555
C17 N2 1_555 1_555
H10 C17 1_555 1_555
C18 N6 1_555 1_555
H11 C18 1_555 1_555
C19 C5 1_555 1_555
H12 C19 1_555 1_555
C20 C12 1_555 1_555
H13 C20 1_555 1_555
C21 C2 1_555 1_555
H14 C21 1_555 1_555
C22 C8 1_555 1_555
H15 C22 1_555 1_555
C23 C16 1_555 1_555
H16 C23 1_555 1_555
C24 C9 1_555 1_555
H17 C24 1_555 1_555
C25 C6 1_555 1_555
H18 C25 1_555 1_555
C26 N4 1_555 1_555
Mn1 Cl1 1_555 1_555
Cr1 O1 1_555 1_555
O1 C29 1_555 1_555
O2 Cr1 1_555 1_555
O3 Cr1 1_555 1_555
O4 Cr1 1_555 1_555
O5 Mn1 1_555 1_555
C27 O5 1_555 1_555
O6 Cr1 1_555 1_555
O7 Mn1 1_555 1_555
O8 Cr1 1_555 1_555
O9 C28 1_555 1_555
C28 O4 1_555 1_555
C29 C36 1_555 1_555
O10 C31 1_555 1_555
C30 O2 1_555 1_555
C31 O3 1_555 1_555
O11 Mn1 1_555 1_555
C32 C14 1_555 1_555
H19 C32 1_555 1_555
C33 C15 1_555 1_555
H20 C33 1_555 1_555
C34 C11 1_555 1_555
H21 C34 1_555 1_555
C35 C10 1_555 1_555
H22 C35 1_555 1_555
O13 C37 1_555 1_555
C36 O8 1_555 1_555
O14 C29 1_555 1_555
O15 C36 1_555 1_555
Mn1B O14 1_555 1_555
O14B Mn1 1_555 1_555
O15B Mn1 1_555 1_555
C2 C5 1_555 1_555
C3 C15 1_555 1_555
C9 C26 1_555 1_555
C13 C18 1_555 1_555
C13 C34 1_555 1_555
C14 C19 1_555 1_555
C16 C17 1_555 1_555
C20 C33 1_555 1_555
C21 C23 1_555 1_555
C22 C25 1_555 1_555
C24 C35 1_555 1_555
C26 C32 1_555 1_555
C27 O6 1_555 1_555
C27 C30 1_555 1_555
O7 C30 1_555 1_555
C28 C31 1_555 1_555
O15 Mn1B 1_555 1_555

#END
