
#######################################################################
#
#                 Cambridge Crystallographic Data Centre
#                                CCDC 
#
#######################################################################
#
# If this CIF has been generated from an entry in the Cambridge 
# Structural Database, then it will include bibliographic, chemical, 
# crystal, experimental, refinement or atomic coordinate data resulting 
# from the CCDC's data processing and validation procedures.
#
#######################################################################

data_CIVCAM
_symmetry_cell_setting           monoclinic
_symmetry_space_group_name_H-M   'P 21/n'
_symmetry_Int_Tables_number      14
_space_group_name_Hall           '-P 2yn'
loop_
_symmetry_equiv_pos_site_id
_symmetry_equiv_pos_as_xyz
1 x,y,z
2 1/2-x,1/2+y,1/2-z
3 -x,-y,-z
4 1/2+x,1/2-y,1/2+z
_cell_length_a                   14.693(3)
_cell_length_b                   17.947(4)
_cell_length_c                   20.005(5)
_cell_angle_alpha                90
_cell_angle_beta                 98.2571(13)
_cell_angle_gamma                90
_cell_volume                     5220.54
loop_
_atom_site_label
_atom_site_type_symbol
_atom_site_fract_x
_atom_site_fract_y
_atom_site_fract_z
Co1 Co -0.97805(8) 0.32287(6) -0.15349(6)
N1 N -1.1060(5) 0.3285(4) -0.1391(4)
N2 N -0.9781(5) 0.4006(4) -0.2149(4)
N3 N -0.8502(5) 0.2962(4) -0.1525(3)
N4 N -0.9416(5) 0.4015(4) -0.0878(4)
N5 N -1.0135(5) 0.2644(4) -0.2353(3)
C1 C -0.9507(6) 0.5275(5) -0.2367(4)
H1 H -0.9365 0.5757 -0.2215
C2 C -0.9930(5) 0.3844(5) -0.2812(4)
N6 N -0.9758(5) 0.2433(4) -0.0947(4)
C3 C -1.0548(6) 0.2253(5) -0.0712(4)
C4 C -1.0129(6) 0.3057(5) -0.2936(5)
C5 C -0.7356(6) 0.2043(5) -0.1117(4)
H2 H -0.7191 0.1612 -0.0870
C6 C -0.8988(6) 0.2031(5) -0.0813(4)
C7 C -1.1298(6) 0.2757(5) -0.0947(4)
C9 C -0.7874(6) 0.3316(5) -0.1831(4)
H3 H -0.8038 0.3752 -0.2068
C11 C -0.9548(6) 0.4694(5) -0.1907(5)
C13 C -0.9203(6) 0.3934(5) -0.0212(5)
H4 H -0.9267 0.3469 -0.0019
C14 C -1.2842(6) 0.3226(6) -0.1075(5)
H5 H -1.3439 0.3213 -0.0971
C16 C -1.2585(7) 0.3751(5) -0.1530(5)
H6 H -1.3015 0.4088 -0.1740
C17 C -1.0579(7) 0.1616(5) -0.0313(5)
H7 H -1.1119 0.1474 -0.0156
C18 C -0.6991(6) 0.3050(6) -0.1802(5)
H8 H -0.6567 0.3303 -0.2021
C19 C -1.0287(6) 0.2719(5) -0.3561(4)
H9 H -1.0264 0.2996 -0.3951
C20 C -0.6739(6) 0.2406(6) -0.1450(5)
H10 H -0.6147 0.2218 -0.1438
C22 C -0.8236(6) 0.2335(5) -0.1156(4)
C23 C -1.0334(6) 0.1929(5) -0.2405(5)
H11 H -1.0334 0.1651 -0.2013
C24 C -0.9032(6) 0.5306(5) -0.0776(5)
H12 H -0.8988 0.5771 -0.0975
C26 C -0.8884(6) 0.4534(5) 0.0202(5)
H13 H -0.8736 0.4466 0.0666
C28 C -1.1690(6) 0.3767(5) -0.1664(5)
H14 H -1.1523 0.4128 -0.1957
C29 C -0.9332(6) 0.4699(5) -0.1165(5)
C30 C -1.2179(6) 0.2720(5) -0.0782(4)
H15 H -1.2329 0.2363 -0.0479
C33 C -0.8790(6) 0.5216(5) -0.0075(5)
H16 H -0.8570 0.5617 0.0195
C35 C -0.8955(6) 0.1391(5) -0.0418(4)
H17 H -0.8423 0.1104 -0.0330
C36 C -0.9768(6) 0.1197(5) -0.0157(4)
H18 H -0.9766 0.0784 0.0123
C38 C -1.0480(6) 0.1967(5) -0.3603(5)
H19 H -1.0565 0.1727 -0.4019
C40 C -0.9679(6) 0.5124(5) -0.3044(5)
H20 H -0.9643 0.5509 -0.3351
C41 C -0.9907(6) 0.4406(5) -0.3289(4)
H21 H -1.0037 0.4310 -0.3749
C42 C -1.0543(6) 0.1579(5) -0.3020(5)
H22 H -1.0726 0.1083 -0.3040
Cr1 Cr 0.36870(11) -0.22589(8) 0.33489(8)
Cr2 Cr -0.15379(11) 0.01434(9) 0.18388(8)
Mn1 Mn 0.21635(13) -0.00924(11) 0.15951(10)
Mn2 Mn 0.75339(15) -0.20283(13) 0.36384(11)
O1 O -0.0737(5) 0.0144(4) 0.1122(3)
O2 O 0.2698(5) -0.2161(3) 0.2575(3)
O3 O 0.2837(5) -0.2139(4) 0.4016(3)
O4 O 0.3805(4) -0.1164(3) 0.3222(3)
O5 O 0.4738(5) -0.2269(4) 0.4085(3)
O6 O 0.2009(5) -0.2819(5) 0.4628(4)
O7 O 0.4676(5) -0.2407(4) 0.2774(3)
O8 O -0.1315(4) -0.0924(3) 0.2044(3)
O9 O 0.3412(6) -0.3326(4) 0.3434(4)
O10 O 0.3232(4) -0.0268(3) 0.2502(3)
O11 O 0.0767(5) 0.0012(4) 0.1023(3)
O12 O 0.6200(5) -0.2165(4) 0.2858(3)
O13 O -0.2602(5) -0.0095(4) 0.1168(3)
O14 O 0.6280(5) -0.2149(4) 0.4229(3)
O15 O 0.2021(4) -0.1288(4) 0.1866(3)
O16 O -0.0336(5) 0.0384(4) 0.2425(3)
O17 O 0.1173(5) 0.0185(4) 0.2395(4)
O18 O -0.2586(5) -0.0751(4) 0.3377(4)
C8 C 0.0124(7) 0.0123(5) 0.1350(5)
C10 C 0.5526(7) -0.2235(5) 0.3877(5)
C12 C -0.3004(7) 0.0477(6) 0.0886(5)
C15 C 0.3249(6) -0.0920(5) 0.2706(4)
O19 O -0.2224(5) 0.0078(4) 0.2615(4)
O20 O -0.3641(5) 0.0466(5) 0.0395(4)
C21 C -0.2228(6) -0.0567(6) 0.2885(5)
O21 O -0.1936(6) 0.1184(4) 0.1635(4)
C25 C -0.2633(8) 0.1228(6) 0.1193(6)
C27 C 0.5476(7) -0.2276(5) 0.3106(5)
O22 O 0.8535(7) -0.1591(7) 0.4499(5)
C31 C -0.1694(6) -0.1177(6) 0.2544(5)
C32 C 0.2590(6) -0.1488(5) 0.2348(5)
C34 C 0.2781(8) -0.3437(6) 0.3798(6)
C37 C 0.2493(7) -0.2755(6) 0.4190(5)
C39 C 0.0364(8) 0.0245(5) 0.2122(5)
O23 O 0.2968(7) -0.0678(5) 0.0872(5)
O24 O -0.3042(5) 0.1823(4) 0.1002(5)
O25 O -0.1661(4) -0.1813(4) 0.2759(3)
O26 O 0.2385(5) -0.4051(4) 0.3846(5)
Mn1A Mn 0.28365(13) -0.50924(11) 0.34049(10)
Mn2_2 Mn -0.24661(15) -0.20283(13) 0.36384(11)
Mn2A Mn -0.25339(15) 0.29717(13) 0.13616(11)
O18_2 O 0.7414(5) -0.0751(4) 0.3377(4)
O24A O 0.8042(5) -0.3177(4) 0.3998(5)
O25_2 O 0.8339(4) -0.1813(4) 0.2759(3)
O26A O 0.2615(5) 0.0949(4) 0.1154(5)
O27 O -0.4524(8) 0.1921(6) -0.0187(5)
O28 O 0.4241(6) -0.1696(5) 0.1479(4)
O29 O 0.0870(5) -0.4019(6) 0.4914(4)
O30 O 0.185(2) -0.1250(13) 0.5109(12)
C43 C 0.168(4) -0.055(8) 0.537(5)
O31 O -0.5191(14) 0.3263(15) -0.0292(9)
O32 O 0.0044(11) 0.0576(16) 0.3864(7)
O33 O 0.857(3) -0.025(2) 0.515(2)
loop_
_geom_bond_atom_site_label_1
_geom_bond_atom_site_label_2
_geom_bond_site_symmetry_1
_geom_bond_site_symmetry_2
Co1 N1 1_555 1_555
Cr1 O2 1_555 1_555
Cr2 O1 1_555 1_555
Mn1 O10 1_555 1_555
Mn2 O12 1_555 1_555
O1 C8 1_555 1_555
O2 C32 1_555 1_555
O3 Cr1 1_555 1_555
O4 Cr1 1_555 1_555
O5 Cr1 1_555 1_555
N1 C7 1_555 1_555
O6 C37 1_555 1_555
N2 Co1 1_555 1_555
O7 Cr1 1_555 1_555
O8 Cr2 1_555 1_555
N3 Co1 1_555 1_555
O9 Cr1 1_555 1_555
O10 C15 1_555 1_555
N4 Co1 1_555 1_555
O11 Mn1 1_555 1_555
O12 C27 1_555 1_555
O13 Cr2 1_555 1_555
N5 Co1 1_555 1_555
O14 Mn2 1_555 1_555
O15 Mn1 1_555 1_555
C1 H1 1_555 1_555
C2 N2 1_555 1_555
N6 Co1 1_555 1_555
C3 N6 1_555 1_555
C4 N5 1_555 1_555
O16 Cr2 1_555 1_555
O17 Mn1 1_555 1_555
O18 C21 1_555 1_555
C5 H2 1_555 1_555
C6 N6 1_555 1_555
C7 C3 1_555 1_555
C8 O11 1_555 1_555
C9 N3 1_555 1_555
H3 C9 1_555 1_555
C10 O5 1_555 1_555
C11 N2 1_555 1_555
C12 O13 1_555 1_555
C13 N4 1_555 1_555
H4 C13 1_555 1_555
C14 H5 1_555 1_555
C15 O4 1_555 1_555
C16 C14 1_555 1_555
H6 C16 1_555 1_555
C17 C3 1_555 1_555
H7 C17 1_555 1_555
C18 C9 1_555 1_555
H8 C18 1_555 1_555
C19 C4 1_555 1_555
H9 C19 1_555 1_555
O19 Cr2 1_555 1_555
C20 C5 1_555 1_555
H10 C20 1_555 1_555
O20 C12 1_555 1_555
C21 O19 1_555 1_555
C22 N3 1_555 1_555
C23 N5 1_555 1_555
H11 C23 1_555 1_555
O21 Cr2 1_555 1_555
C24 H12 1_555 1_555
C25 C12 1_555 1_555
C26 C13 1_555 1_555
H13 C26 1_555 1_555
C27 O7 1_555 1_555
C28 N1 1_555 1_555
H14 C28 1_555 1_555
C29 N4 1_555 1_555
O22 Mn2 1_555 1_555
C30 C7 1_555 1_555
H15 C30 1_555 1_555
C31 O8 1_555 1_555
C32 O15 1_555 1_555
C33 C24 1_555 1_555
H16 C33 1_555 1_555
C34 O9 1_555 1_555
C35 C6 1_555 1_555
H17 C35 1_555 1_555
C36 C17 1_555 1_555
H18 C36 1_555 1_555
C37 O3 1_555 1_555
C38 C19 1_555 1_555
H19 C38 1_555 1_555
C39 O16 1_555 1_555
C40 C1 1_555 1_555
H20 C40 1_555 1_555
C41 C2 1_555 1_555
H21 C41 1_555 1_555
O23 Mn1 1_555 1_555
C42 C23 1_555 1_555
H22 C42 1_555 1_555
O24 C25 1_555 1_555
O25 C31 1_555 1_555
O26 C34 1_555 1_555
O30 C43 1_555 1_555
Mn1A O26 1_555 1_555
Mn2_2 O18 1_555 1_555
Mn2A O24 1_555 1_555
O18_2 Mn2 1_555 1_555
O24A Mn2 1_555 1_555
O25_2 Mn2 1_555 1_555
O26A Mn1 1_555 1_555
O14 C10 1_555 1_555
C1 C11 1_555 1_555
C2 C4 1_555 1_555
O17 C39 1_555 1_555
C5 C22 1_555 1_555
C6 C22 1_555 1_555
C8 C39 1_555 1_555
C10 C27 1_555 1_555
C11 C29 1_555 1_555
C14 C30 1_555 1_555
C15 C32 1_555 1_555
C16 C28 1_555 1_555
C18 C20 1_555 1_555
C21 C31 1_555 1_555
O21 C25 1_555 1_555
C24 C29 1_555 1_555
C26 C33 1_555 1_555
C34 C37 1_555 1_555
C35 C36 1_555 1_555
C38 C42 1_555 1_555
C40 C41 1_555 1_555
O25 Mn2_2 1_555 1_555

#END
