
#######################################################################
#
#                 Cambridge Crystallographic Data Centre
#                                CCDC 
#
#######################################################################
#
# If this CIF has been generated from an entry in the Cambridge 
# Structural Database, then it will include bibliographic, chemical, 
# crystal, experimental, refinement or atomic coordinate data resulting 
# from the CCDC's data processing and validation procedures.
#
#######################################################################

data_CIVDIW
_symmetry_cell_setting           triclinic
_symmetry_space_group_name_H-M   'P -1'
_symmetry_Int_Tables_number      2
_space_group_name_Hall           '-P 1'
loop_
_symmetry_equiv_pos_site_id
_symmetry_equiv_pos_as_xyz
1 x,y,z
2 -x,-y,-z
_cell_length_a                   9.0713(12)
_cell_length_b                   9.5507(13)
_cell_length_c                   14.686(2)
_cell_angle_alpha                105.453(2)
_cell_angle_beta                 93.783(2)
_cell_angle_gamma                111.641(2)
_cell_volume                     1120.6
loop_
_atom_site_label
_atom_site_type_symbol
_atom_site_fract_x
_atom_site_fract_y
_atom_site_fract_z
Zn1 Zn 0.30900(3) 0.38473(3) 0.289082(19)
O1 O 0.4390(3) 0.6046(2) 0.37787(16)
H1 H 0.4075 0.6761 0.3759
H2 H 0.5068 0.6364 0.4292
O2 O 0.4719(2) 0.3007(2) 0.26006(14)
O3 O 0.2722(2) 0.1124(2) 0.14553(15)
O4 O 0.1480(2) 0.2596(2) 0.35316(13)
O5 O 0.3573(3) 0.3036(3) 0.45877(17)
O6 O 0.1651(2) 0.4221(2) 0.20472(13)
O7 O 0.3684(3) 0.5120(4) 0.12905(19)
N1 N 0.8770(3) -0.2085(3) 0.16085(17)
C1 C 0.4133(3) 0.1714(3) 0.18840(19)
C2 C 0.5268(3) 0.0932(3) 0.16036(19)
C3 C 0.4680(4) -0.0587(4) 0.0939(2)
H3 H 0.3569 -0.1111 0.0655
C4 C 0.5715(4) -0.1330(4) 0.0693(2)
H4 H 0.5306 -0.2367 0.0244
C5 C 0.7342(4) -0.0579(4) 0.1095(2)
C6 C 0.7944(3) 0.0955(3) 0.17413(19)
H5 H 0.9063 0.1490 0.2007
C7 C 0.6906(3) 0.1699(3) 0.19960(19)
H6 H 0.7317 0.2739 0.2442
C8 C 0.8460(4) -0.1401(4) 0.0845(2)
H7 H 0.7977 -0.2261 0.0224
H8 H 0.9496 -0.0634 0.0770
C9 C 0.7523(3) -0.3154(3) 0.1838(2)
H9 H 0.6454 -0.3459 0.1519
C10 C 0.7786(4) -0.3802(3) 0.2527(2)
H10 H 0.6903 -0.4537 0.2697
C11 C 0.9356(4) -0.3376(4) 0.2976(2)
H11 H 0.9558 -0.3839 0.3442
C12 C 1.0620(4) -0.2273(4) 0.2737(2)
H12 H 1.1698 -0.1953 0.3045
C13 C 1.0293(3) -0.1639(3) 0.2042(2)
H13 H 1.1154 -0.0882 0.1871
C14 C 0.2117(3) 0.2357(3) 0.42439(19)
C15 C 0.1012(3) 0.1138(3) 0.46376(18)
C16 C 0.1649(3) 0.0652(3) 0.53251(19)
H14 H 0.2782 0.1097 0.5545
C17 C -0.0657(3) 0.0466(3) 0.43095(18)
H15 H -0.1105 0.0780 0.3836
C18 C 0.2256(3) 0.4742(3) 0.13722(19)
C19 C 0.1079(3) 0.4859(3) 0.06614(17)
C20 C -0.0556(3) 0.4328(3) 0.07054(17)
H16 H -0.0941 0.3868 0.1188
C21 C 0.1624(3) 0.5538(3) -0.00545(18)
H17 H 0.2737 0.5909 -0.0092
O4A O -0.1480(2) -0.2596(2) 0.64684(13)
O5A O -0.3573(3) -0.3036(3) 0.54123(17)
C14A C -0.2117(3) -0.2357(3) 0.57561(19)
C15A C -0.1012(3) -0.1138(3) 0.53624(18)
C16A C -0.1649(3) -0.0652(3) 0.46749(19)
H14A H -0.2782 -0.1097 0.4455
C17A C 0.0657(3) -0.0466(3) 0.56905(18)
H15A H 0.1105 -0.0780 0.6164
O6A O -0.1651(2) 0.5779(2) -0.20472(13)
O7A O -0.3684(3) 0.4880(4) -0.12905(19)
C18A C -0.2256(3) 0.5258(3) -0.13722(19)
C19A C -0.1079(3) 0.5141(3) -0.06614(17)
C20A C 0.0556(3) 0.5672(3) -0.07054(17)
H16A H 0.0941 0.6132 -0.1188
C21A C -0.1624(3) 0.4462(3) 0.00545(18)
H17A H -0.2737 0.4091 0.0092
Zn1A Zn -0.30900(3) -0.38473(3) 0.710918(19)
O1A O -0.4390(3) -0.6046(2) 0.62213(16)
H1A H -0.4075 -0.6761 0.6241
H2A H -0.5068 -0.6364 0.5708
O2A O -0.4719(2) -0.3007(2) 0.73994(14)
O3A O -0.2722(2) -0.1124(2) 0.85447(15)
N1A N -0.8770(3) 0.2085(3) 0.83915(17)
C1A C -0.4133(3) -0.1714(3) 0.81160(19)
C2A C -0.5268(3) -0.0932(3) 0.83964(19)
C3A C -0.4680(4) 0.0587(4) 0.9061(2)
H3A H -0.3569 0.1111 0.9345
C4A C -0.5715(4) 0.1330(4) 0.9307(2)
H4A H -0.5306 0.2367 0.9756
C5A C -0.7342(4) 0.0579(4) 0.8905(2)
C6A C -0.7944(3) -0.0955(3) 0.82587(19)
H5A H -0.9063 -0.1490 0.7993
C7A C -0.6906(3) -0.1699(3) 0.80040(19)
H6A H -0.7317 -0.2739 0.7558
C8A C -0.8460(4) 0.1401(4) 0.9155(2)
H7A H -0.7977 0.2261 0.9776
H8A H -0.9496 0.0634 0.9230
C9A C -0.7523(3) 0.3154(3) 0.8162(2)
H9A H -0.6454 0.3459 0.8481
C10A C -0.7786(4) 0.3802(3) 0.7473(2)
H10A H -0.6903 0.4537 0.7303
C11A C -0.9356(4) 0.3376(4) 0.7024(2)
H11A H -0.9558 0.3839 0.6558
C12A C -1.0620(4) 0.2273(4) 0.7263(2)
H12A H -1.1698 0.1953 0.6955
C13A C -1.0293(3) 0.1639(3) 0.7958(2)
H13A H -1.1154 0.0882 0.8129
Zn1A_2 Zn -0.30900(3) 0.61527(3) -0.289082(19)
O6A_2 O -0.1651(2) -0.4221(2) 0.79528(13)
O8 O 0.0777(3) 0.6021(3) 0.58939(17)
H18 H 0.0250 0.6582 0.6082
H19 H 0.1779 0.6617 0.6115
O9 O 0.6153(3) 0.1925(5) 0.41910(18)
H20 H 0.5880 0.2357 0.3798
H21 H 0.6349 0.1175 0.3875
O10 O 0.4794(5) 0.8427(5) 0.3065(3)
H22 H 0.5542 0.8134 0.3157
C22 C 0.4244(6) 0.8916(6) 0.4003(3)
H23 H 0.4892 0.8803 0.4518
H24 H 0.3105 0.8237 0.3945
H25 H 0.4379 1.0024 0.4155
loop_
_geom_bond_atom_site_label_1
_geom_bond_atom_site_label_2
_geom_bond_site_symmetry_1
_geom_bond_site_symmetry_2
Zn1 O1 1_555 1_555
O1 H1 1_555 1_555
H2 O1 1_555 1_555
O2 Zn1 1_555 1_555
O3 C1 1_555 1_555
O4 Zn1 1_555 1_555
O5 C14 1_555 1_555
O6 Zn1 1_555 1_555
O7 C18 1_555 1_555
N1 C8 1_555 1_555
C1 O2 1_555 1_555
C2 C1 1_555 1_555
C3 C2 1_555 1_555
H3 C3 1_555 1_555
C4 C3 1_555 1_555
H4 C4 1_555 1_555
C5 C4 1_555 1_555
C6 C5 1_555 1_555
H5 C6 1_555 1_555
C7 C2 1_555 1_555
H6 C7 1_555 1_555
C8 C5 1_555 1_555
H7 C8 1_555 1_555
H8 C8 1_555 1_555
C9 N1 1_555 1_555
H9 C9 1_555 1_555
C10 C9 1_555 1_555
H10 C10 1_555 1_555
C11 C10 1_555 1_555
H11 C11 1_555 1_555
C12 C11 1_555 1_555
H12 C12 1_555 1_555
C13 N1 1_555 1_555
H13 C13 1_555 1_555
C14 O4 1_555 1_555
C15 C14 1_555 1_555
C16 C15 1_555 1_555
H14 C16 1_555 1_555
C17 C15 1_555 1_555
H15 C17 1_555 1_555
C18 O6 1_555 1_555
C19 C18 1_555 1_555
C20 C19 1_555 1_555
H16 C20 1_555 1_555
C21 C19 1_555 1_555
H17 C21 1_555 1_555
O8 H18 1_555 1_555
H19 O8 1_555 1_555
O9 H20 1_555 1_555
H21 O9 1_555 1_555
O10 H22 1_555 1_555
C22 O10 1_555 1_555
H23 C22 1_555 1_555
H24 C22 1_555 1_555
H25 C22 1_555 1_555
O4A C14A 1_555 1_555
O5A C14A 1_555 1_555
C14A C15A 1_555 1_555
C15A C16A 1_555 1_555
C16A C17 1_555 1_555
H14A C16A 1_555 1_555
C17A C16 1_555 1_555
H15A C17A 1_555 1_555
O6A C18A 1_555 1_555
O7A C18A 1_555 1_555
C18A C19A 1_555 1_555
C19A C20A 1_555 1_555
C20A C21 1_555 1_555
H16A C20A 1_555 1_555
C21A C20 1_555 1_555
H17A C21A 1_555 1_555
Zn1A O4A 1_555 1_555
O1A Zn1A 1_555 1_555
H1A O1A 1_555 1_555
H2A O1A 1_555 1_555
O2A Zn1A 1_555 1_555
O3A C1A 1_555 1_555
N1A C8A 1_555 1_555
C1A O2A 1_555 1_555
C2A C1A 1_555 1_555
C3A C2A 1_555 1_555
H3A C3A 1_555 1_555
C4A C3A 1_555 1_555
H4A C4A 1_555 1_555
C5A C4A 1_555 1_555
C6A C5A 1_555 1_555
H5A C6A 1_555 1_555
C7A C2A 1_555 1_555
H6A C7A 1_555 1_555
C8A C5A 1_555 1_555
H7A C8A 1_555 1_555
H8A C8A 1_555 1_555
C9A N1A 1_555 1_555
H9A C9A 1_555 1_555
C10A C9A 1_555 1_555
H10A C10A 1_555 1_555
C11A C10A 1_555 1_555
H11A C11A 1_555 1_555
C12A C11A 1_555 1_555
H12A C12A 1_555 1_555
C13A N1A 1_555 1_555
H13A C13A 1_555 1_555
Zn1A_2 O6A 1_555 1_555
O6A_2 Zn1A 1_555 1_555
C6 C7 1_555 1_555
C12 C13 1_555 1_555
C15A C17A 1_555 1_555
C19A C21A 1_555 1_555
C6A C7A 1_555 1_555
C12A C13A 1_555 1_555

#END
