
#######################################################################
#
#                 Cambridge Crystallographic Data Centre
#                                CCDC 
#
#######################################################################
#
# If this CIF has been generated from an entry in the Cambridge 
# Structural Database, then it will include bibliographic, chemical, 
# crystal, experimental, refinement or atomic coordinate data resulting 
# from the CCDC's data processing and validation procedures.
#
#######################################################################

data_CIVDAO
_symmetry_cell_setting           monoclinic
_symmetry_space_group_name_H-M   'P 21/c'
_symmetry_Int_Tables_number      14
_space_group_name_Hall           '-P 2ybc'
loop_
_symmetry_equiv_pos_site_id
_symmetry_equiv_pos_as_xyz
1 x,y,z
2 -x,1/2+y,1/2-z
3 -x,-y,-z
4 x,1/2-y,1/2+z
_cell_length_a                   12.586(3)
_cell_length_b                   15.928(3)
_cell_length_c                   24.335(5)
_cell_angle_alpha                90
_cell_angle_beta                 94.28(3)
_cell_angle_gamma                90
_cell_volume                     4864.83
loop_
_atom_site_label
_atom_site_type_symbol
_atom_site_fract_x
_atom_site_fract_y
_atom_site_fract_z
Zn1 Zn 0.42312(16) 0.36810(12) 0.83918(8)
O1 O 0.4573(10) 0.2857(8) 0.8955(5)
O2 O 0.4138(14) 0.2935(10) 0.7753(6)
O3 O 0.3077(10) 0.4505(8) 0.8580(6)
O4 O 0.5321(13) 0.4418(11) 0.8005(7)
C1 C 0.391(2) 0.2426(12) 0.9225(8)
C2 C 0.341(2) 0.2820(19) 0.7453(10)
C3 C 0.315(2) 0.5011(14) 0.8942(13)
O5 O 0.2992(11) 0.2319(10) 0.9170(5)
C4 C 0.4379(14) 0.1818(11) 0.9698(7)
O6 O 0.2548(18) 0.3225(12) 0.7630(7)
C5 C 0.341(2) 0.2401(12) 0.6943(8)
O7 O 0.4044(12) 0.4876(9) 0.9239(6)
C6 C 0.2540(15) 0.5712(12) 0.9080(8)
C7 C 0.3775(15) 0.1427(13) 1.0090(8)
C8 C 0.546(2) 0.1752(12) 0.9674(8)
C9 C 0.431(2) 0.1887(16) 0.6794(8)
C10 C 0.272(2) 0.2436(13) 0.6600(8)
C11 C 0.1568(18) 0.5781(11) 0.8842(7)
C12 C 0.2732(16) 0.6305(14) 0.9432(8)
H1 H 0.3042 0.1504 1.0084
C13 C 0.4286(19) 0.0948(10) 1.0465(8)
C14 C 0.5889(18) 0.1206(14) 1.0076(10)
H2 H 0.5855 0.2035 0.9423
H3 H 0.4887 0.1860 0.7053
C15 C 0.4399(13) 0.1438(11) 0.6312(7)
C16 C 0.2746(17) 0.2028(11) 0.6125(8)
H4 H 0.2129 0.2763 0.6658
H5 H 0.1353 0.5392 0.8571
C17 C 0.0833(17) 0.6409(11) 0.8972(7)
C18 C 0.2008(14) 0.6929(11) 0.9614(7)
H6 H 0.3427 0.6335 0.9589
H7 H 0.3902 0.0684 1.0728
C19 C 0.5319(18) 0.0834(11) 1.0478(8)
H8 H 0.6610 0.1079 1.0076
H9 H 0.4993 0.1115 0.6249
C20 C 0.3589(14) 0.1508(10) 0.5961(7)
H10 H 0.2155 0.2087 0.5875
H11 H 0.0167 0.6436 0.8779
C21 C 0.1106(14) 0.6984(10) 0.9388(7)
H12 H 0.2223 0.7288 0.9903
C22 C 0.5729(16) 0.0316(11) 1.0905(8)
C23 C 0.3649(12) 0.1009(12) 0.5423(7)
C24 C 0.0297(19) 0.7692(12) 0.9552(9)
N1 N 0.6486(14) 0.0787(9) 1.1225(6)
H13 H 0.6059 -0.0177 1.0757
H14 H 0.5163 0.0134 1.1128
N2 N 0.2565(12) 0.0702(9) 0.5295(6)
H15 H 0.3872 0.1368 0.5130
H16 H 0.4146 0.0545 0.5474
O8 O 0.0399(12) 0.8093(9) 0.9971(6)
O9 O -0.0448(13) 0.7818(9) 0.9251(8)
C25 C 0.6060(16) 0.1333(12) 1.1610(9)
C26 C 0.7582(18) 0.0715(12) 1.1143(8)
C27 C 0.2138(16) 0.0037(12) 0.5558(6)
C28 C 0.2000(15) 0.1115(13) 0.4912(8)
H17 H 0.5327 0.1359 1.1637
C29 C 0.6698(15) 0.1801(11) 1.1927(8)
C30 C 0.8232(16) 0.1214(11) 1.1465(8)
H18 H 0.7837 0.0350 1.0886
H19 H 0.2573 -0.0240 0.5825
C31 C 0.1084(14) -0.0258(11) 0.5454(6)
C32 C 0.1010(14) 0.0864(10) 0.4785(6)
H20 H 0.2285 0.1570 0.4734
H21 H 0.6441 0.2141 1.2198
C33 C 0.7803(13) 0.1768(9) 1.1840(6)
H22 H 0.8965 0.1192 1.1438
H23 H 0.0805 -0.0700 0.5647
C34 C 0.0528(11) 0.0153(10) 0.5056(7)
H24 H 0.0602 0.1153 0.4513
C35 C 0.8482(13) 0.2300(10) 1.2168(6)
C36 C 0.8092(15) 0.2986(14) 1.2373(9)
C37 C 0.9525(16) 0.2095(11) 1.2254(7)
H25 H 0.7365 0.3086 1.2309
C38 C 0.8675(18) 0.3546(15) 1.2666(11)
C39 C 1.0135(15) 0.2603(11) 1.2556(7)
H26 H 0.9795 0.1610 1.2103
N3 N 0.9704(13) 0.3311(9) 1.2782(5)
H27 H 0.8403 0.4054 1.2780
H28 H 1.0859 0.2490 1.2619
C40 C 1.0400(15) 0.3812(12) 1.3146(7)
H29 H 1.0738 0.3458 1.3432
H30 H 0.9987 0.4237 1.3321
C41 C 1.1295(15) 0.4257(11) 1.2811(7)
C42 C 1.2318(17) 0.4124(13) 1.2954(8)
C43 C 1.1112(18) 0.4778(12) 1.2411(9)
H31 H 1.2532 0.3764 1.3242
C44 C 1.3153(16) 0.4594(16) 1.2620(11)
C45 C 1.1938(16) 0.5207(12) 1.2125(7)
H32 H 1.0405 0.4889 1.2295
H33 H 1.3860 0.4503 1.2745
C46 C 1.3016(15) 0.5087(12) 1.2198(8)
H34 H 1.1704 0.5606 1.1865
C47 C 1.379(2) 0.5538(18) 1.1929(11)
O10 O 1.3613(15) 0.5936(13) 1.1420(10)
C34B C -0.0528(11) -0.0153(10) 0.4944(7)
C31B C -0.1084(14) 0.0258(11) 0.4546(6)
C32B C -0.1010(14) -0.0864(10) 0.5215(6)
C27B C -0.2138(16) -0.0037(12) 0.4442(6)
H23B H -0.0805 0.0700 0.4353
H24B H -0.0602 -0.1153 0.5487
C28B C -0.2000(15) -0.1115(13) 0.5088(8)
N2B N -0.2565(12) -0.0702(9) 0.4705(6)
H19B H -0.2573 0.0240 0.4175
H20B H -0.2285 -0.1570 0.5266
C23B C -0.3649(12) -0.1009(12) 0.4577(7)
C20B C -0.3589(14) -0.1508(10) 0.4039(7)
H15B H -0.3872 -0.1368 0.4870
H16B H -0.4146 -0.0545 0.4526
C15B C -0.4399(13) -0.1438(11) 0.3688(7)
C16B C -0.2746(17) -0.2028(11) 0.3875(8)
C9B C -0.431(2) -0.1887(16) 0.3206(8)
H9B H -0.4993 -0.1115 0.3751
H10B H -0.2155 -0.2087 0.4125
C10B C -0.272(2) -0.2436(13) 0.3400(8)
C5B C -0.341(2) -0.2401(12) 0.3057(8)
H3B H -0.4887 -0.1860 0.2947
H4B H -0.2129 -0.2763 0.3342
C2B C -0.341(2) -0.2820(19) 0.2547(10)
O4B O 1.4679(13) 0.5582(11) 1.1995(7)
O2B O -0.4138(14) -0.2935(10) 0.2247(6)
O6B O -0.2548(18) -0.3225(12) 0.2370(7)
Zn1B Zn 1.57688(16) 0.63190(12) 1.16082(8)
Zn1B_2 Zn -0.42312(16) -0.36810(12) 0.16082(8)
O1B O -0.4573(10) -0.2857(8) 0.1045(5)
O3B O -0.3077(10) -0.4505(8) 0.1420(6)
O4B_2 O -0.5321(13) -0.4418(11) 0.1995(7)
C1B C -0.391(2) -0.2426(12) 0.0775(8)
C3B C -0.315(2) -0.5011(14) 0.1058(13)
O5B O -0.2992(11) -0.2319(10) 0.0830(5)
C4B C -0.4379(14) -0.1818(11) 0.0302(7)
O7B O -0.4044(12) -0.4876(9) 0.0761(6)
C6B C -0.2540(15) -0.5712(12) 0.0920(8)
C7B C -0.3775(15) -0.1427(13) -0.0090(8)
C8B C -0.546(2) -0.1752(12) 0.0326(8)
C11B C -0.1568(18) -0.5781(11) 0.1158(7)
C12B C -0.2732(16) -0.6305(14) 0.0568(8)
H1B H -0.3042 -0.1504 -0.0084
C13B C -0.4286(19) -0.0948(10) -0.0465(8)
C14B C -0.5889(18) -0.1206(14) -0.0076(10)
H2B H -0.5855 -0.2035 0.0577
H5B H -0.1353 -0.5392 0.1429
C17B C -0.0833(17) -0.6409(11) 0.1028(7)
C18B C -0.2008(14) -0.6929(11) 0.0386(7)
H6B H -0.3427 -0.6335 0.0411
H7B H -0.3902 -0.0684 -0.0728
C19B C -0.5319(18) -0.0834(11) -0.0478(8)
H8B H -0.6610 -0.1079 -0.0076
H11B H -0.0167 -0.6436 0.1221
C21B C -0.1106(14) -0.6984(10) 0.0612(7)
H12B H -0.2223 -0.7288 0.0097
C22B C -0.5729(16) -0.0316(11) -0.0905(8)
C24B C -0.0297(19) -0.7692(12) 0.0448(9)
N1B N -0.6486(14) -0.0787(9) -0.1225(6)
H13B H -0.6059 0.0177 -0.0757
H14B H -0.5163 -0.0134 -0.1128
O8B O -0.0399(12) -0.8093(9) 0.0029(6)
O9B O 0.0448(13) -0.7818(9) 0.0749(8)
C25B C -0.6060(16) -0.1333(12) -0.1610(9)
C26B C -0.7582(18) -0.0715(12) -0.1143(8)
H17B H -0.5327 -0.1359 -0.1637
C29B C -0.6698(15) -0.1801(11) -0.1927(8)
C30B C -0.8232(16) -0.1214(11) -0.1465(8)
H18B H -0.7837 -0.0350 -0.0886
H21B H -0.6441 -0.2141 -0.2198
C33B C -0.7803(13) -0.1768(9) -0.1840(6)
H22B H -0.8965 -0.1192 -0.1438
C35B C -0.8482(13) -0.2300(10) -0.2168(6)
C36B C -0.8092(15) -0.2986(14) -0.2373(9)
C37B C -0.9525(16) -0.2095(11) -0.2254(7)
H25B H -0.7365 -0.3086 -0.2309
C38B C -0.8675(18) -0.3546(15) -0.2666(11)
C39B C -1.0135(15) -0.2603(11) -0.2556(7)
H26B H -0.9795 -0.1610 -0.2103
N3B N -0.9704(13) -0.3311(9) -0.2782(5)
H27B H -0.8403 -0.4054 -0.2780
H28B H -1.0859 -0.2490 -0.2619
C40B C -1.0400(15) -0.3812(12) -0.3146(7)
H29B H -1.0738 -0.3458 -0.3432
H30B H -0.9987 -0.4237 -0.3321
C41B C -1.1295(15) -0.4257(11) -0.2811(7)
C42B C -1.2318(17) -0.4124(13) -0.2954(8)
C43B C -1.1112(18) -0.4778(12) -0.2411(9)
H31B H -1.2532 -0.3764 -0.3242
C44B C -1.3153(16) -0.4594(16) -0.2620(11)
C45B C -1.1938(16) -0.5207(12) -0.2125(7)
H32B H -1.0405 -0.4889 -0.2295
H33B H -1.3860 -0.4503 -0.2745
C46B C -1.3016(15) -0.5087(12) -0.2198(8)
H34B H -1.1704 -0.5606 -0.1865
C47B C -1.379(2) -0.5538(18) -0.1929(11)
O10B O -1.3613(15) -0.5936(13) -0.1420(10)
O4_2 O -1.4679(13) -0.5582(11) -0.1995(7)
Zn1_2 Zn -1.57688(16) -0.63190(12) -0.16082(8)
O11 O 0.1336(13) 0.1074(9) 0.9452(6)
H35 H 0.1282 0.0995 0.9106
H36 H 0.0832 0.1213 0.9783
O12 O 0.0621(15) 0.7288(13) 1.1007(7)
H37 H 0.0303 0.6919 1.1066
H38 H 0.1013 0.7151 1.0840
O13 O -0.0983(19) 0.9362(11) 0.8902(8)
H39 H -0.1122 0.9170 0.8681
H40 H -0.0615 0.9578 0.8992
O14 O 0.1455(18) 0.9637(16) 1.0170(10)
H41 H 0.1546 0.9231 1.0195
H42 H 0.0904 0.9571 1.0016
loop_
_geom_bond_atom_site_label_1
_geom_bond_atom_site_label_2
_geom_bond_site_symmetry_1
_geom_bond_site_symmetry_2
Zn1 O1 1_555 1_555
O1 C1 1_555 1_555
O2 Zn1 1_555 1_555
O3 Zn1 1_555 1_555
O4 Zn1 1_555 1_555
C1 O5 1_555 1_555
C2 O2 1_555 1_555
C3 O3 1_555 1_555
C4 C1 1_555 1_555
O6 C2 1_555 1_555
C5 C2 1_555 1_555
O7 C3 1_555 1_555
C6 C3 1_555 1_555
C7 C4 1_555 1_555
C8 C4 1_555 1_555
C9 C5 1_555 1_555
C10 C5 1_555 1_555
C11 C6 1_555 1_555
C12 C6 1_555 1_555
H1 C7 1_555 1_555
C13 C7 1_555 1_555
C14 C8 1_555 1_555
H2 C8 1_555 1_555
H3 C9 1_555 1_555
C15 C9 1_555 1_555
C16 C10 1_555 1_555
H4 C10 1_555 1_555
H5 C11 1_555 1_555
C17 C11 1_555 1_555
C18 C12 1_555 1_555
H6 C12 1_555 1_555
H7 C13 1_555 1_555
C19 C13 1_555 1_555
H8 C14 1_555 1_555
H9 C15 1_555 1_555
C20 C15 1_555 1_555
H10 C16 1_555 1_555
H11 C17 1_555 1_555
C21 C17 1_555 1_555
H12 C18 1_555 1_555
C22 C19 1_555 1_555
C23 C20 1_555 1_555
C24 C21 1_555 1_555
N1 C22 1_555 1_555
H13 C22 1_555 1_555
H14 C22 1_555 1_555
N2 C23 1_555 1_555
H15 C23 1_555 1_555
H16 C23 1_555 1_555
O8 C24 1_555 1_555
O9 C24 1_555 1_555
C25 N1 1_555 1_555
C26 N1 1_555 1_555
C27 N2 1_555 1_555
C28 N2 1_555 1_555
H17 C25 1_555 1_555
C29 C25 1_555 1_555
C30 C26 1_555 1_555
H18 C26 1_555 1_555
H19 C27 1_555 1_555
C31 C27 1_555 1_555
C32 C28 1_555 1_555
H20 C28 1_555 1_555
H21 C29 1_555 1_555
C33 C29 1_555 1_555
H22 C30 1_555 1_555
H23 C31 1_555 1_555
C34 C31 1_555 1_555
H24 C32 1_555 1_555
C35 C33 1_555 1_555
C36 C35 1_555 1_555
C37 C35 1_555 1_555
H25 C36 1_555 1_555
C38 C36 1_555 1_555
C39 C37 1_555 1_555
H26 C37 1_555 1_555
N3 C38 1_555 1_555
H27 C38 1_555 1_555
H28 C39 1_555 1_555
C40 N3 1_555 1_555
H29 C40 1_555 1_555
H30 C40 1_555 1_555
C41 C40 1_555 1_555
C42 C41 1_555 1_555
C43 C41 1_555 1_555
H31 C42 1_555 1_555
C44 C42 1_555 1_555
C45 C43 1_555 1_555
H32 C43 1_555 1_555
H33 C44 1_555 1_555
C46 C44 1_555 1_555
H34 C45 1_555 1_555
C47 C46 1_555 1_555
O10 C47 1_555 1_555
O11 H35 1_555 1_555
H36 O11 1_555 1_555
O12 H37 1_555 1_555
H38 O12 1_555 1_555
O13 H39 1_555 1_555
H40 O13 1_555 1_555
O14 H41 1_555 1_555
H42 O14 1_555 1_555
C34B C34 1_555 1_555
C31B C34B 1_555 1_555
C32B C34B 1_555 1_555
C27B C31B 1_555 1_555
H23B C31B 1_555 1_555
H24B C32B 1_555 1_555
C28B C32B 1_555 1_555
N2B C27B 1_555 1_555
H19B C27B 1_555 1_555
H20B C28B 1_555 1_555
C23B N2B 1_555 1_555
C20B C23B 1_555 1_555
H15B C23B 1_555 1_555
H16B C23B 1_555 1_555
C15B C20B 1_555 1_555
C16B C20B 1_555 1_555
C9B C15B 1_555 1_555
H9B C15B 1_555 1_555
H10B C16B 1_555 1_555
C10B C16B 1_555 1_555
C5B C9B 1_555 1_555
H3B C9B 1_555 1_555
H4B C10B 1_555 1_555
C2B C5B 1_555 1_555
O4B C47 1_555 1_555
O2B C2B 1_555 1_555
O6B C2B 1_555 1_555
Zn1B O4B 1_555 1_555
Zn1B_2 O2B 1_555 1_555
O1B Zn1B_2 1_555 1_555
O3B Zn1B_2 1_555 1_555
O4B_2 Zn1B_2 1_555 1_555
C1B O1B 1_555 1_555
C3B O3B 1_555 1_555
O5B C1B 1_555 1_555
C4B C1B 1_555 1_555
O7B C3B 1_555 1_555
C6B C3B 1_555 1_555
C7B C4B 1_555 1_555
C8B C4B 1_555 1_555
C11B C6B 1_555 1_555
C12B C6B 1_555 1_555
H1B C7B 1_555 1_555
C13B C7B 1_555 1_555
C14B C8B 1_555 1_555
H2B C8B 1_555 1_555
H5B C11B 1_555 1_555
C17B C11B 1_555 1_555
C18B C12B 1_555 1_555
H6B C12B 1_555 1_555
H7B C13B 1_555 1_555
C19B C13B 1_555 1_555
H8B C14B 1_555 1_555
H11B C17B 1_555 1_555
C21B C17B 1_555 1_555
H12B C18B 1_555 1_555
C22B C19B 1_555 1_555
C24B C21B 1_555 1_555
N1B C22B 1_555 1_555
H13B C22B 1_555 1_555
H14B C22B 1_555 1_555
O8B C24B 1_555 1_555
O9B C24B 1_555 1_555
C25B N1B 1_555 1_555
C26B N1B 1_555 1_555
H17B C25B 1_555 1_555
C29B C25B 1_555 1_555
C30B C26B 1_555 1_555
H18B C26B 1_555 1_555
H21B C29B 1_555 1_555
C33B C29B 1_555 1_555
H22B C30B 1_555 1_555
C35B C33B 1_555 1_555
C36B C35B 1_555 1_555
C37B C35B 1_555 1_555
H25B C36B 1_555 1_555
C38B C36B 1_555 1_555
C39B C37B 1_555 1_555
H26B C37B 1_555 1_555
N3B C38B 1_555 1_555
H27B C38B 1_555 1_555
H28B C39B 1_555 1_555
C40B N3B 1_555 1_555
H29B C40B 1_555 1_555
H30B C40B 1_555 1_555
C41B C40B 1_555 1_555
C42B C41B 1_555 1_555
C43B C41B 1_555 1_555
H31B C42B 1_555 1_555
C44B C42B 1_555 1_555
C45B C43B 1_555 1_555
H32B C43B 1_555 1_555
H33B C44B 1_555 1_555
C46B C44B 1_555 1_555
H34B C45B 1_555 1_555
C47B C46B 1_555 1_555
O10B C47B 1_555 1_555
O4_2 C47B 1_555 1_555
Zn1_2 O4_2 1_555 1_555
C14 C19 1_555 1_555
C16 C20 1_555 1_555
C18 C21 1_555 1_555
C30 C33 1_555 1_555
C32 C34 1_555 1_555
C39 N3 1_555 1_555
C45 C46 1_555 1_555
C28B N2B 1_555 1_555
C10B C5B 1_555 1_555
C14B C19B 1_555 1_555
C18B C21B 1_555 1_555
C30B C33B 1_555 1_555
C39B N3B 1_555 1_555
C45B C46B 1_555 1_555

#END
