
#######################################################################
#
#                 Cambridge Crystallographic Data Centre
#                                CCDC 
#
#######################################################################
#
# If this CIF has been generated from an entry in the Cambridge 
# Structural Database, then it will include bibliographic, chemical, 
# crystal, experimental, refinement or atomic coordinate data resulting 
# from the CCDC's data processing and validation procedures.
#
#######################################################################

data_CIVGUL
_symmetry_cell_setting           orthorhombic
_symmetry_space_group_name_H-M   'P 21 21 21'
_symmetry_Int_Tables_number      19
_space_group_name_Hall           'P 2ac 2ab'
loop_
_symmetry_equiv_pos_site_id
_symmetry_equiv_pos_as_xyz
1 x,y,z
2 1/2-x,-y,1/2+z
3 1/2+x,1/2-y,-z
4 -x,1/2+y,1/2-z
_cell_length_a                   7.1631(9)
_cell_length_b                   8.3919(10)
_cell_length_c                   19.652(2)
_cell_angle_alpha                90
_cell_angle_beta                 90
_cell_angle_gamma                90
_cell_volume                     1181.32
loop_
_atom_site_label
_atom_site_type_symbol
_atom_site_fract_x
_atom_site_fract_y
_atom_site_fract_z
Cu1 Cu 0.30933(6) 0.28137(5) 0.27108(3)
O1 O 0.3492(4) 0.1034(3) 0.32854(14)
N1 N 0.1938(6) 0.4035(5) 0.3436(3)
N2 N 0.2515(5) 0.4772(5) 0.2120(3)
H1 H 0.355(6) 0.533(5) 0.215(2)
N3 N 0.3609(5) 0.1467(4) 0.19093(18)
N4 N 0.3604(4) 0.0072(4) 0.19717(16)
N5 N 0.3653(5) -0.1304(4) 0.2011(2)
C1 C 0.2866(6) 0.0784(6) 0.3904(2)
C2 C 0.3153(8) -0.0726(7) 0.4204(2)
H2 H 0.3797 -0.1505 0.3963
C3 C 0.2500(10) -0.1068(10) 0.4845(3)
H3 H 0.2703 -0.2076 0.5027
C4 C 0.1577(12) 0.0018(16) 0.5214(3)
H4 H 0.1154 -0.0238 0.5648
C5 C 0.1258(9) 0.1487(12) 0.4955(3)
H5 H 0.0609 0.2231 0.5214
C6 C 0.1903(7) 0.1921(8) 0.4289(2)
C7 C 0.1507(7) 0.3502(8) 0.4032(4)
H6 H 0.0885 0.4197 0.4322
C8 C 0.1492(8) 0.5679(6) 0.3220(4)
H7 H 0.2551 0.6373 0.3302
H8 H 0.0435 0.6080 0.3477
C9 C 0.1038(7) 0.5647(6) 0.2481(4)
H9 H -0.0156 0.5127 0.2410
H10 H 0.0954 0.6726 0.2306
C10 C 0.2011(9) 0.4560(7) 0.1400(4)
H11 H 0.0904 0.3920 0.1368
H12 H 0.3016 0.4039 0.1166
H13 H 0.1785 0.5582 0.1197
Cu1C Cu 0.69067(6) -0.21863(5) 0.22892(3)
N5C N 0.6347(5) 0.3696(4) 0.2989(2)
loop_
_geom_bond_atom_site_label_1
_geom_bond_atom_site_label_2
_geom_bond_site_symmetry_1
_geom_bond_site_symmetry_2
Cu1 O1 1_555 1_555
O1 C1 1_555 1_555
N1 Cu1 1_555 1_555
N2 Cu1 1_555 1_555
H1 N2 1_555 1_555
N3 Cu1 1_555 1_555
N4 N3 1_555 1_555
N5 N4 1_555 1_555
C1 C2 1_555 1_555
C2 H2 1_555 1_555
C3 C2 1_555 1_555
H3 C3 1_555 1_555
C4 C3 1_555 1_555
H4 C4 1_555 1_555
C5 C4 1_555 1_555
H5 C5 1_555 1_555
C6 C1 1_555 1_555
C7 N1 1_555 1_555
H6 C7 1_555 1_555
C8 N1 1_555 1_555
H7 C8 1_555 1_555
H8 C8 1_555 1_555
C9 N2 1_555 1_555
H9 C9 1_555 1_555
H10 C9 1_555 1_555
C10 N2 1_555 1_555
H11 C10 1_555 1_555
H12 C10 1_555 1_555
H13 C10 1_555 1_555
Cu1C N5 1_555 1_555
N5C Cu1 1_555 1_555
C5 C6 1_555 1_555
C6 C7 1_555 1_555
C8 C9 1_555 1_555

#END
