
#######################################################################
#
#                 Cambridge Crystallographic Data Centre
#                                CCDC 
#
#######################################################################
#
# If this CIF has been generated from an entry in the Cambridge 
# Structural Database, then it will include bibliographic, chemical, 
# crystal, experimental, refinement or atomic coordinate data resulting 
# from the CCDC's data processing and validation procedures.
#
#######################################################################

data_CIVMEB
_symmetry_cell_setting           monoclinic
_symmetry_space_group_name_H-M   'C 2/c'
_symmetry_Int_Tables_number      15
_space_group_name_Hall           '-C 2yn'
loop_
_symmetry_equiv_pos_site_id
_symmetry_equiv_pos_as_xyz
1 x,y,z
2 -x,y,1/2-z
3 1/2+x,1/2+y,z
4 1/2-x,1/2+y,1/2-z
5 -x,-y,-z
6 x,-y,1/2+z
7 1/2-x,1/2-y,-z
8 1/2+x,1/2-y,1/2+z
_cell_length_a                   13.9833(19)
_cell_length_b                   17.9852(19)
_cell_length_c                   22.788(3)
_cell_angle_alpha                90
_cell_angle_beta                 97.846(3)
_cell_angle_gamma                90
_cell_volume                     5677.36
loop_
_atom_site_label
_atom_site_type_symbol
_atom_site_fract_x
_atom_site_fract_y
_atom_site_fract_z
Ag1 Ag 0.35768(4) 0.03971(3) 0.30979(2)
N1 N 0.3687(4) 0.0197(3) 0.4057(2)
N2 N 0.3834(4) -0.0210(3) 0.7171(2)
O1 O 0.3459(4) 0.1718(3) 0.3028(2)
O2 O 0.1963(4) 0.1419(3) 0.2659(2)
O3 O 0.0438(4) 0.2426(4) -0.0411(2)
O4 O -0.0876(4) 0.2405(3) 0.0031(2)
C1 C 0.3718(5) 0.0785(4) 0.4424(3)
H1 H 0.3697 0.1258 0.4259
C2 C 0.3780(5) 0.0726(3) 0.5026(3)
H2 H 0.3804 0.1153 0.5258
C3 C 0.3806(4) 0.0029(3) 0.5293(2)
C4 C 0.3787(4) -0.0581(3) 0.4919(3)
H3 H 0.3818 -0.1061 0.5073
C5 C 0.3721(5) -0.0467(4) 0.4316(3)
H4 H 0.3698 -0.0884 0.4073
C6 C 0.3721(5) 0.0448(4) 0.6903(3)
H5 H 0.3646 0.0865 0.7134
C7 C 0.3711(5) 0.0544(3) 0.6306(3)
H6 H 0.3602 0.1013 0.6139
C8 C 0.3863(4) -0.0059(3) 0.5950(2)
C9 C 0.4000(5) -0.0730(4) 0.6231(3)
H7 H 0.4113 -0.1149 0.6012
C10 C 0.3974(5) -0.0799(4) 0.6829(3)
H8 H 0.4056 -0.1267 0.7002
C11 C 0.2601(6) 0.1881(4) 0.2843(3)
C12 C 0.2320(5) 0.2703(4) 0.2824(3)
H9 H 0.2680 0.2961 0.3157
H10 H 0.1638 0.2752 0.2853
C13 C 0.2539(5) 0.3057(4) 0.2242(3)
H11 H 0.2523 0.3593 0.2286
H12 H 0.3191 0.2921 0.2185
C14 C 0.1872(5) 0.2849(3) 0.1689(3)
C15 C 0.0870(5) 0.2858(4) 0.1660(3)
H13 H 0.0598 0.2967 0.2000
C16 C 0.0265(5) 0.2710(4) 0.1138(3)
H14 H -0.0400 0.2702 0.1137
C17 C 0.0644(5) 0.2576(3) 0.0623(3)
C18 C 0.1649(5) 0.2556(3) 0.0647(3)
H15 H 0.1919 0.2458 0.0304
C19 C 0.2246(5) 0.2679(3) 0.1172(3)
H16 H 0.2911 0.2648 0.1179
C20 C 0.0017(6) 0.2460(4) 0.0031(3)
Ag1E Ag 0.35768(4) -0.03971(3) 0.80979(2)
N2E N 0.3834(4) 0.0210(3) 0.2171(2)
Ag2 Ag 0.87774(5) 0.99859(4) 0.74475(2)
N3 N 0.8749(4) 1.0006(3) 0.6500(2)
N4 N 0.8704(4) 0.9986(3) 0.3384(2)
C21 C 0.8752(5) 1.0630(4) 0.6191(3)
H17 H 0.8761 1.1081 0.6391
C22 C 0.8742(5) 1.0640(3) 0.5591(3)
H18 H 0.8753 1.1094 0.5397
C23 C 0.8717(4) 0.9990(3) 0.5266(3)
C24 C 0.8710(5) 0.9339(4) 0.5589(3)
H19 H 0.8696 0.8881 0.5398
C25 C 0.8724(6) 0.9369(4) 0.6197(3)
H20 H 0.8716 0.8924 0.6405
C26 C 0.8588(6) 1.0597(4) 0.3675(3)
H21 H 0.8516 1.1040 0.3463
C27 C 0.8565(6) 1.0625(4) 0.4274(3)
H22 H 0.8456 1.1076 0.4454
C28 C 0.8703(4) 0.9981(3) 0.4614(2)
C29 C 0.8802(5) 0.9337(4) 0.4307(3)
H23 H 0.8852 0.8883 0.4504
C30 C 0.8826(5) 0.9363(4) 0.3706(3)
H24 H 0.8933 0.8922 0.3512
Ag2E Ag 0.87774(5) 1.00141(4) 0.24475(2)
N4E N 0.8704(4) 1.0014(3) 0.8384(2)
O5 O 0.0000 0.1309(4) 0.7500
H25 H 0.006(5) 0.161(3) 0.723(2)
H25A H -0.006(5) 0.161(3) 0.777(2)
O6 O 0.9948(5) 0.2337(3) 0.8405(2)
H26 H 0.947(4) 0.260(4) 0.830(3)
H27 H 1.003(6) 0.232(5) 0.8780(10)
O7 O 1.0000 0.1273(6) 0.2500
H28 H 0.947(4) 0.149(5) 0.253(5)
H28A H 1.053(4) 0.149(5) 0.247(5)
O8 O 0.7680(5) 0.2681(4) 0.0765(3)
H29 H 0.715(4) 0.270(5) 0.053(3)
H30 H 0.806(5) 0.249(5) 0.055(3)
loop_
_geom_bond_atom_site_label_1
_geom_bond_atom_site_label_2
_geom_bond_site_symmetry_1
_geom_bond_site_symmetry_2
Ag1 N1 1_555 1_555
N1 C1 1_555 1_555
N2 C6 1_555 1_555
O1 Ag1 1_555 1_555
O2 C11 1_555 1_555
O3 C20 1_555 1_555
O4 C20 1_555 1_555
C1 H1 1_555 1_555
C2 C1 1_555 1_555
H2 C2 1_555 1_555
C3 C2 1_555 1_555
C4 C3 1_555 1_555
H3 C4 1_555 1_555
C5 N1 1_555 1_555
H4 C5 1_555 1_555
C6 H5 1_555 1_555
C7 C6 1_555 1_555
H6 C7 1_555 1_555
C8 C3 1_555 1_555
C9 C8 1_555 1_555
H7 C9 1_555 1_555
C10 N2 1_555 1_555
H8 C10 1_555 1_555
C11 O1 1_555 1_555
C12 C11 1_555 1_555
H9 C12 1_555 1_555
H10 C12 1_555 1_555
C13 C12 1_555 1_555
H11 C13 1_555 1_555
H12 C13 1_555 1_555
C14 C13 1_555 1_555
C15 C14 1_555 1_555
H13 C15 1_555 1_555
C16 C15 1_555 1_555
H14 C16 1_555 1_555
C17 C16 1_555 1_555
C18 C17 1_555 1_555
H15 C18 1_555 1_555
C19 C14 1_555 1_555
H16 C19 1_555 1_555
C20 C17 1_555 1_555
Ag2 N3 1_555 1_555
N3 C21 1_555 1_555
N4 C26 1_555 1_555
C21 H17 1_555 1_555
C22 C21 1_555 1_555
H18 C22 1_555 1_555
C23 C22 1_555 1_555
C24 C23 1_555 1_555
H19 C24 1_555 1_555
C25 N3 1_555 1_555
H20 C25 1_555 1_555
C26 H21 1_555 1_555
C27 C26 1_555 1_555
H22 C27 1_555 1_555
C28 C23 1_555 1_555
C29 C28 1_555 1_555
H23 C29 1_555 1_555
C30 N4 1_555 1_555
H24 C30 1_555 1_555
O5 H25 1_555 1_555
O6 H26 1_555 1_555
H27 O6 1_555 1_555
O7 H28 1_555 1_555
O8 H29 1_555 1_555
H30 O8 1_555 1_555
Ag1E N2 1_555 1_555
N2E Ag1 1_555 1_555
Ag2E N4 1_555 1_555
N4E Ag2 1_555 1_555
H25A O5 1_555 1_555
H28A O7 1_555 1_555
C4 C5 1_555 1_555
C7 C8 1_555 1_555
C9 C10 1_555 1_555
C18 C19 1_555 1_555
C24 C25 1_555 1_555
C27 C28 1_555 1_555
C29 C30 1_555 1_555

#END
