
#######################################################################
#
#                 Cambridge Crystallographic Data Centre
#                                CCDC 
#
#######################################################################
#
# If this CIF has been generated from an entry in the Cambridge 
# Structural Database, then it will include bibliographic, chemical, 
# crystal, experimental, refinement or atomic coordinate data resulting 
# from the CCDC's data processing and validation procedures.
#
#######################################################################

data_CIVMAX
_symmetry_cell_setting           monoclinic
_symmetry_space_group_name_H-M   'P 21/c'
_symmetry_Int_Tables_number      14
_space_group_name_Hall           '-P 2ybc'
loop_
_symmetry_equiv_pos_site_id
_symmetry_equiv_pos_as_xyz
1 x,y,z
2 -x,1/2+y,1/2-z
3 -x,-y,-z
4 x,1/2-y,1/2+z
_cell_length_a                   12.2121(13)
_cell_length_b                   13.3343(14)
_cell_length_c                   14.2535(15)
_cell_angle_alpha                90
_cell_angle_beta                 113.8290(10)
_cell_angle_gamma                90
_cell_volume                     2123.18
loop_
_atom_site_label
_atom_site_type_symbol
_atom_site_fract_x
_atom_site_fract_y
_atom_site_fract_z
Co1 Co 0.85211(2) 0.22693(2) 0.15432(2)
N1 N 0.66553(16) 0.22494(14) 0.04972(14)
N2 N 0.04132(15) 0.26197(14) -0.25016(14)
O1 O 0.86581(16) 0.07140(14) 0.14533(13)
H1 H 0.904(2) 0.045(2) 0.2013(16)
H2 H 0.867(3) 0.042(2) 0.0973(17)
O2 O 0.89535(17) 0.24551(16) 0.02831(13)
H3 H 0.932(2) 0.2913(18) 0.015(2)
H4 H 0.870(3) 0.2032(19) -0.0193(19)
O3 O 0.83076(15) 0.37943(13) 0.17823(13)
H5 H 0.880(2) 0.4213(17) 0.172(2)
H6 H 0.817(2) 0.396(2) 0.2284(16)
O4 O 0.80254(14) 0.19630(12) 0.27618(12)
H7 H 0.788(2) 0.2484(15) 0.2988(19)
H8 H 0.8587(19) 0.1659(18) 0.3230(16)
C1 C 0.6162(2) 0.3050(2) -0.0085(2)
H9 H 0.6660 0.3580 -0.0077
C2 C 0.4963(2) 0.3136(2) -0.0695(2)
H10 H 0.4668 0.3712 -0.1082
C3 C 0.41927(19) 0.23589(17) -0.07298(17)
C4 C 0.47032(19) 0.15195(17) -0.01411(18)
H11 H 0.4227 0.0973 -0.0147
C5 C 0.59153(19) 0.14961(17) 0.04520(18)
H12 H 0.6236 0.0926 0.0842
C6 C 0.12078(19) 0.31177(18) -0.27550(17)
H13 H 0.0920 0.3529 -0.3331
C7 C 0.24242(19) 0.30524(18) -0.22094(17)
H14 H 0.2938 0.3417 -0.2416
C8 C 0.28875(19) 0.24390(17) -0.13459(17)
C9 C 0.20644(19) 0.19217(18) -0.10804(17)
H15 H 0.2327 0.1503 -0.0510
C10 C 0.08586(19) 0.20347(17) -0.16686(17)
H16 H 0.0323 0.1685 -0.1476
Co1C Co -0.14789(2) 0.27307(2) -0.34568(2)
N2C N 1.04132(15) 0.23803(14) 0.24984(14)
O5 O -0.02149(15) 0.38291(13) -0.06487(12)
O6 O 0.01740(14) 0.49153(12) -0.16451(12)
O7 O 0.7405(2) 0.5143(2) 0.4218(3)
O8 O 0.78728(14) 0.37754(13) 0.35997(13)
C11 C 0.04792(19) 0.44130(16) -0.08279(17)
C12 C 0.1753(2) 0.45313(18) -0.00417(17)
H17 H 0.1890 0.5235 0.0143
H18 H 0.2291 0.4345 -0.0361
C13 C 0.2084(2) 0.3923(2) 0.09377(18)
H19 H 0.1596 0.4138 0.1295
H20 H 0.1918 0.3220 0.0765
C14 C 0.3391(2) 0.40493(19) 0.16349(17)
C15 C 0.4219(2) 0.3306(2) 0.1729(2)
H21 H 0.3963 0.2712 0.1364
C16 C 0.5415(2) 0.34266(19) 0.2352(2)
H22 H 0.5951 0.2913 0.2398
C17 C 0.5833(2) 0.42993(18) 0.29089(18)
C18 C 0.5008(2) 0.50491(19) 0.2813(2)
H23 H 0.5266 0.5644 0.3176
C19 C 0.3809(2) 0.4928(2) 0.2187(2)
H24 H 0.3274 0.5443 0.2135
C20 C 0.7126(2) 0.4426(2) 0.3628(2)
O9 O 0.9780(4) 0.9912(4) 0.0354(3)
loop_
_geom_bond_atom_site_label_1
_geom_bond_atom_site_label_2
_geom_bond_site_symmetry_1
_geom_bond_site_symmetry_2
Co1 N1 1_555 1_555
N1 C1 1_555 1_555
N2 C6 1_555 1_555
O1 Co1 1_555 1_555
H1 O1 1_555 1_555
H2 O1 1_555 1_555
O2 Co1 1_555 1_555
H3 O2 1_555 1_555
H4 O2 1_555 1_555
O3 Co1 1_555 1_555
H5 O3 1_555 1_555
H6 O3 1_555 1_555
O4 Co1 1_555 1_555
H7 O4 1_555 1_555
H8 O4 1_555 1_555
C1 H9 1_555 1_555
C2 C1 1_555 1_555
H10 C2 1_555 1_555
C3 C2 1_555 1_555
C4 C3 1_555 1_555
H11 C4 1_555 1_555
C5 N1 1_555 1_555
H12 C5 1_555 1_555
C6 H13 1_555 1_555
C7 C6 1_555 1_555
H14 C7 1_555 1_555
C8 C3 1_555 1_555
C9 C8 1_555 1_555
H15 C9 1_555 1_555
C10 N2 1_555 1_555
H16 C10 1_555 1_555
O5 C11 1_555 1_555
O6 C11 1_555 1_555
O7 C20 1_555 1_555
O8 C20 1_555 1_555
C11 C12 1_555 1_555
C12 H17 1_555 1_555
H18 C12 1_555 1_555
C13 C12 1_555 1_555
H19 C13 1_555 1_555
H20 C13 1_555 1_555
C14 C13 1_555 1_555
C15 C14 1_555 1_555
H21 C15 1_555 1_555
C16 C15 1_555 1_555
H22 C16 1_555 1_555
C17 C16 1_555 1_555
C18 C17 1_555 1_555
H23 C18 1_555 1_555
C19 C14 1_555 1_555
H24 C19 1_555 1_555
C20 C17 1_555 1_555
Co1C N2 1_555 1_555
N2C Co1 1_555 1_555
C4 C5 1_555 1_555
C7 C8 1_555 1_555
C9 C10 1_555 1_555
C18 C19 1_555 1_555

#END
