
#######################################################################
#
#                 Cambridge Crystallographic Data Centre
#                                CCDC 
#
#######################################################################
#
# If this CIF has been generated from an entry in the Cambridge 
# Structural Database, then it will include bibliographic, chemical, 
# crystal, experimental, refinement or atomic coordinate data resulting 
# from the CCDC's data processing and validation procedures.
#
#######################################################################

data_CIVRUW
_symmetry_cell_setting           monoclinic
_symmetry_space_group_name_H-M   'P 21'
_symmetry_Int_Tables_number      4
_space_group_name_Hall           'P 2yb'
loop_
_symmetry_equiv_pos_site_id
_symmetry_equiv_pos_as_xyz
1 x,y,z
2 -x,1/2+y,-z
_cell_length_a                   10.7150(3)
_cell_length_b                   11.1039(2)
_cell_length_c                   16.3611(4)
_cell_angle_alpha                90
_cell_angle_beta                 100.975(2)
_cell_angle_gamma                90
_cell_volume                     1911.01
loop_
_atom_site_label
_atom_site_type_symbol
_atom_site_fract_x
_atom_site_fract_y
_atom_site_fract_z
Ce1 Ce 0.41401(3) 0.24387(2) 0.933830(18)
Ce2 Ce -0.09386(3) -0.17680(2) 0.436385(18)
O1 O -0.2915(4) -0.1863(6) 0.4900(3)
O2 O -0.1740(6) -0.3895(5) 0.4201(4)
O3 O -0.0650(4) -0.2417(6) 0.2878(3)
O4 O 0.1035(5) -0.3001(4) 0.4469(3)
O5 O 0.8129(5) 0.0359(5) 1.4380(3)
O6 O 0.0562(5) -0.0267(5) 0.3903(4)
O7 O 0.0222(5) -0.0881(5) 0.5720(3)
O8 O -0.0332(4) -0.2760(5) 0.5848(3)
O9 O -0.3620(7) -0.3564(5) 0.5332(3)
O10 O -0.1659(5) 0.1477(5) 0.7003(3)
O11 O -0.2280(5) 0.1265(5) 0.8207(3)
O12 O -0.2567(6) -0.3242(6) 0.8488(3)
O13 O 0.3159(5) 0.0347(5) 0.9375(3)
O14 O 0.2396(5) 0.1407(5) 0.8273(3)
O15 O 0.2114(5) 0.2612(7) 0.9922(3)
O16 O 0.5583(5) 0.0895(5) 0.8858(3)
O17 O 0.4363(5) 0.3130(7) 0.7868(3)
O18 O 0.6138(5) 0.3616(5) 0.9462(3)
O19 O 0.3267(6) 0.4552(6) 0.9144(4)
O20 O 0.5303(5) 0.1566(5) 1.0705(3)
O21 O 0.4677(5) 0.3430(5) 1.0803(3)
O22 O 0.7420(5) -0.0684(5) 1.3244(3)
O23 O 0.5879(5) 0.4413(5) 1.3872(3)
O24 O 0.0788(6) -0.3584(6) 0.8981(3)
C1 C -0.2908(5) -0.2073(5) 0.6356(3)
C2 C -0.2623(6) -0.0890(7) 0.6513(4)
H1 H -0.2584 -0.0370 0.6072
C3 C -0.2388(6) -0.0448(5) 0.7329(4)
C4 C -0.2356(7) -0.1266(7) 0.7987(5)
H2 H -0.2163 -0.0996 0.8534
C5 C -0.2608(6) -0.2468(6) 0.7823(4)
C6 C -0.2890(7) -0.2886(7) 0.7013(4)
H3 H -0.3066 -0.3697 0.6906
C7 C -0.3178(6) -0.2537(6) 0.5476(4)
C8 C -0.2093(5) 0.0866(5) 0.7523(4)
C9 C 0.0620(5) -0.1749(9) 0.7087(4)
C10 C 0.1235(6) -0.0678(7) 0.7442(4)
H4 H 0.1335 -0.0023 0.7106
C11 C 0.1685(7) -0.0628(7) 0.8300(4)
C12 C 0.1522(6) -0.1618(8) 0.8802(4)
H5 H 0.1824 -0.1586 0.9373
C13 C 0.0919(7) -0.2633(9) 0.8450(4)
C14 C 0.0475(6) -0.2705(8) 0.7595(4)
H6 H 0.0078 -0.3404 0.7365
C15 C 0.0151(5) -0.1805(8) 0.6172(3)
C16 C 0.2435(6) 0.0422(7) 0.8668(4)
C17 C 0.5720(5) 0.2446(8) 1.2076(3)
C18 C 0.5606(6) 0.3457(6) 1.2558(4)
H7 H 0.5256 0.4163 1.2307
C19 C 0.6016(6) 0.3407(7) 1.3409(4)
C20 C 0.6592(6) 0.2379(8) 1.3782(4)
H8 H 0.6882 0.2353 1.4355
C21 C 0.6733(6) 0.1379(6) 1.3288(4)
C22 C 0.6280(7) 0.1435(7) 1.2434(5)
H9 H 0.6364 0.0769 1.2104
C23 C 0.7462(6) 0.0292(6) 1.3654(4)
C24 C 0.5212(5) 0.2492(8) 1.1144(4)
Ce2_2 Ce 0.90614(3) -0.17680(2) 1.436385(18)
O5_2 O -0.1871(5) 0.0359(5) 0.4380(3)
O22_2 O -0.2580(5) -0.0684(5) 0.3244(3)
O25 O 0.5264(5) 0.4336(5) 0.5427(3)
O26 O 0.4958(6) 0.1826(6) 0.6563(4)
O27 O 0.9556(7) 0.2267(8) 0.9363(4)
O28 O 0.7366(5) 0.3758(5) 0.6657(3)
O29 O 0.0113(9) 0.4268(7) 0.8389(5)
O30 O 0.6949(12) 0.4499(7) 0.8118(5)
loop_
_geom_bond_atom_site_label_1
_geom_bond_atom_site_label_2
_geom_bond_site_symmetry_1
_geom_bond_site_symmetry_2
Ce1 O13 1_555 1_555
Ce2 O1 1_555 1_555
O1 C7 1_555 1_555
O2 Ce2 1_555 1_555
O3 Ce2 1_555 1_555
O4 Ce2 1_555 1_555
O5 C23 1_555 1_555
O6 Ce2 1_555 1_555
O7 Ce2 1_555 1_555
O8 Ce2 1_555 1_555
O9 C7 1_555 1_555
O10 C8 1_555 1_555
O11 C8 1_555 1_555
O12 C5 1_555 1_555
O13 C16 1_555 1_555
O14 Ce1 1_555 1_555
O15 Ce1 1_555 1_555
O16 Ce1 1_555 1_555
O17 Ce1 1_555 1_555
O18 Ce1 1_555 1_555
O19 Ce1 1_555 1_555
O20 Ce1 1_555 1_555
O21 Ce1 1_555 1_555
O22 C23 1_555 1_555
O23 C19 1_555 1_555
O24 C13 1_555 1_555
C1 C2 1_555 1_555
C2 H1 1_555 1_555
C3 C2 1_555 1_555
C4 C3 1_555 1_555
H2 C4 1_555 1_555
C5 C4 1_555 1_555
C6 C1 1_555 1_555
H3 C6 1_555 1_555
C7 C1 1_555 1_555
C8 C3 1_555 1_555
C9 C10 1_555 1_555
C10 H4 1_555 1_555
C11 C10 1_555 1_555
C12 C11 1_555 1_555
H5 C12 1_555 1_555
C13 C12 1_555 1_555
C14 C9 1_555 1_555
H6 C14 1_555 1_555
C15 O7 1_555 1_555
C16 O14 1_555 1_555
C17 C18 1_555 1_555
C18 H7 1_555 1_555
C19 C18 1_555 1_555
C20 C19 1_555 1_555
H8 C20 1_555 1_555
C21 C20 1_555 1_555
C22 C17 1_555 1_555
H9 C22 1_555 1_555
C23 C21 1_555 1_555
C24 O20 1_555 1_555
Ce2_2 O5 1_555 1_555
O5_2 Ce2 1_555 1_555
O22_2 Ce2 1_555 1_555
O8 C15 1_555 1_555
O21 C24 1_555 1_555
O22 Ce2_2 1_555 1_555
C5 C6 1_555 1_555
C9 C15 1_555 1_555
C11 C16 1_555 1_555
C13 C14 1_555 1_555
C17 C24 1_555 1_555
C21 C22 1_555 1_555

#END
