
#######################################################################
#
#                 Cambridge Crystallographic Data Centre
#                                CCDC 
#
#######################################################################
#
# If this CIF has been generated from an entry in the Cambridge 
# Structural Database, then it will include bibliographic, chemical, 
# crystal, experimental, refinement or atomic coordinate data resulting 
# from the CCDC's data processing and validation procedures.
#
#######################################################################

data_CIVSUW
_symmetry_cell_setting           trigonal
_symmetry_space_group_name_H-M   'P -3 c 1'
_symmetry_Int_Tables_number      165
_space_group_name_Hall           '-P 3 2"c'
loop_
_symmetry_equiv_pos_site_id
_symmetry_equiv_pos_as_xyz
1 x,y,z
2 -y,x-y,z
3 -x+y,-x,z
4 y,x,1/2-z
5 x-y,-y,1/2-z
6 -x,-x+y,1/2-z
7 -x,-y,-z
8 y,-x+y,-z
9 x-y,x,-z
10 -y,-x,1/2+z
11 -x+y,y,1/2+z
12 x,x-y,1/2+z
_cell_length_a                   32.5392(6)
_cell_length_b                   32.5392(6)
_cell_length_c                   14.4167(12)
_cell_angle_alpha                90
_cell_angle_beta                 90
_cell_angle_gamma                120
_cell_volume                     13219.4
loop_
_atom_site_label
_atom_site_type_symbol
_atom_site_fract_x
_atom_site_fract_y
_atom_site_fract_z
Cd1 Cd 0.0000 1.0000 1.0000
Cd2 Cd 0.6667 1.3333 1.12504(5)
N1 N 0.06773(14) 1.01972(15) 0.9094(4)
N2 N 0.13832(15) 1.03180(16) 0.8719(4)
N3 N 0.61849(13) 1.26767(14) 1.0289(4)
N4 N 0.56215(13) 1.20066(14) 0.9698(4)
N5 N 0.31809(13) 0.71969(13) 0.7921(4)
N6 N 0.31020(14) 0.78231(13) 0.7744(4)
N7 N 0.29477(14) 0.96818(14) 0.8502(4)
N8 N 0.34360(14) 1.04918(14) 0.8954(5)
N9 N 0.37819(14) 1.00056(14) 0.8728(4)
C1 C 0.09747(18) 1.00436(19) 0.9176(5)
H1 H 0.0911 0.9769 0.9519
C2 C 0.0903(2) 1.0587(2) 0.8561(6)
H2 H 0.0772 1.0780 0.8391
C3 C 0.1327(2) 1.0671(2) 0.8302(6)
H3 H 0.1546 1.0920 0.7912
C4 C 0.18007(16) 1.02734(19) 0.8702(5)
C5 C 0.2241(2) 1.06707(19) 0.8740(6)
H4 H 0.2271 1.0977 0.8762
C6 C 0.26402(19) 1.06239(18) 0.8745(6)
H5 H 0.2947 1.0898 0.8762
C7 C 0.25905(18) 1.01627(18) 0.8724(6)
C8 C 0.21321(18) 0.97728(18) 0.8690(6)
H6 H 0.2093 0.9463 0.8675
C9 C 0.17455(18) 0.98177(18) 0.8677(5)
H7 H 0.1438 0.9545 0.8651
C10 C 0.30151(18) 1.01109(18) 0.8731(6)
C11 C 0.38076(18) 1.04250(17) 0.8919(5)
C12 C 0.33449(18) 0.96484(17) 0.8523(6)
C13 C 0.42764(17) 1.08279(17) 0.9159(5)
C14 C 0.43269(19) 1.12592(18) 0.9389(6)
H8 H 0.4053 1.1292 0.9410
C15 C 0.47585(17) 1.16419(19) 0.9588(5)
H9 H 0.4781 1.1934 0.9766
C16 C 0.51621(18) 1.16053(16) 0.9533(5)
C17 C 0.51306(19) 1.11818(19) 0.9281(6)
H10 H 0.5408 1.1157 0.9230
C18 C 0.46757(18) 1.07831(18) 0.9100(5)
H11 H 0.4647 1.0487 0.8938
C19 C 0.57253(16) 1.23511(16) 1.0324(5)
H12 H 0.5502 1.2361 1.0735
C20 C 0.6363(2) 1.2528(2) 0.9596(5)
H13 H 0.6683 1.2697 0.9389
C21 C 0.6025(2) 1.21074(19) 0.9240(5)
H14 H 0.6063 1.1924 0.8772
C22 C 0.32853(17) 0.91724(16) 0.8289(5)
C23 C 0.36644(18) 0.90974(18) 0.8292(6)
H15 H 0.3969 0.9354 0.8452
C24 C 0.36230(17) 0.86692(17) 0.8076(5)
H16 H 0.3893 0.8631 0.8031
C25 C 0.31672(18) 0.82927(16) 0.7925(5)
C26 C 0.27818(17) 0.83551(18) 0.7894(6)
H17 H 0.2476 0.8098 0.7749
C27 C 0.28479(19) 0.88000(18) 0.8078(6)
H18 H 0.2583 0.8848 0.8057
C28 C 0.33656(17) 0.76513(16) 0.8077(5)
H19 H 0.3657 0.7838 0.8395
C29 C 0.27767(18) 0.70715(17) 0.7451(4)
H20 H 0.2565 0.6761 0.7226
C30 C 0.27161(19) 0.74449(18) 0.7345(5)
H21 H 0.2456 0.7448 0.7051
Cd2A Cd -0.3333 1.3334 1.12504(5)
Cd2B Cd -0.3334 0.3333 1.12504(5)
Cd2F Cd -0.6667 0.6667 0.87496(5)
Cd2G Cd 0.3333 0.6666 0.87496(5)
Cd2H Cd 0.3334 1.6667 0.87496(5)
N1A N -0.01972(15) 1.04801(21) 0.9094(4)
N1B N -0.04801(21) 0.93227(14) 0.9094(4)
N1F N -0.06773(14) 0.98028(15) 1.0906(4)
N1G N 0.01972(15) 0.95199(21) 1.0906(4)
N1H N 0.04801(21) 1.06773(14) 1.0906(4)
N2A N -0.03180(16) 1.10652(22) 0.8719(4)
N2B N -0.10652(22) 0.86168(15) 0.8719(4)
N2F N -0.13832(15) 0.96820(16) 1.1281(4)
N2G N 0.03180(16) 0.89348(22) 1.1281(4)
N2H N 0.10652(22) 1.13832(15) 1.1281(4)
N3A N -0.26767(14) 1.35082(19) 1.0289(4)
N3B N -0.35082(19) 0.38151(13) 1.0289(4)
N3F N -0.61849(13) 0.73233(14) 0.9711(4)
N3G N 0.26767(14) 0.64918(19) 0.9711(4)
N3H N 0.35082(19) 1.61849(13) 0.9711(4)
N3A_2 N 0.73233(14) 1.35082(19) 1.0289(4)
N3B_2 N 0.64918(19) 1.38151(13) 1.0289(4)
N3F_2 N 0.38151(13) 1.73233(14) 0.9711(4)
N3G_2 N 0.26767(14) 1.64918(19) 0.9711(4)
N4A N -0.20066(14) 1.36149(19) 0.9698(4)
N4B N -0.36149(19) 0.43785(13) 0.9698(4)
N4F N -0.56215(13) 0.79934(14) 1.0302(4)
N4G N 0.20066(14) 0.63851(19) 1.0302(4)
N4H N 0.36149(19) 1.56215(13) 1.0302(4)
N5A N 0.28031(13) 1.59840(18) 0.7921(4)
N5B N -0.59840(18) 0.68191(13) 0.7921(4)
N5F N -0.31809(13) 1.28031(13) 1.2079(4)
N5G N -0.28031(13) 0.40160(18) 1.2079(4)
N5H N 0.59840(18) 1.31809(13) 1.2079(4)
N5F_2 N 0.68191(13) 1.28031(13) 1.2079(4)
N5G_2 N 0.71969(13) 1.40160(18) 1.2079(4)
N5_2 N 0.31809(13) 1.71969(13) 0.7921(4)
N5B_2 N 0.40160(18) 1.68191(13) 0.7921(4)
N6A N 0.21769(13) 1.52789(19) 0.7744(4)
N6B N -0.52789(19) 0.68980(14) 0.7744(4)
N6F N -0.31020(14) 1.21769(13) 1.2256(4)
N6G N -0.21769(13) 0.47211(19) 1.2256(4)
N6H N 0.52789(19) 1.31020(14) 1.2256(4)
N7A N 0.03182(14) 1.32659(20) 0.8502(4)
N7B N -0.32659(20) 0.70523(14) 0.8502(4)
N7F N -0.29477(14) 1.03182(14) 1.1498(4)
N7G N -0.03182(14) 0.67341(20) 1.1498(4)
N7H N 0.32659(20) 1.29477(14) 1.1498(4)
N8A N -0.04918(14) 1.29442(20) 0.8954(5)
N8B N -0.29442(20) 0.65640(14) 0.8954(5)
N8F N -0.34360(14) 0.95082(14) 1.1046(5)
N8G N 0.04918(14) 0.70558(20) 1.1046(5)
N8H N 0.29442(20) 1.34360(14) 1.1046(5)
N9A N -0.00056(14) 1.37763(20) 0.8728(4)
N9B N -0.37763(20) 0.62181(14) 0.8728(4)
N9F N -0.37819(14) 0.99944(14) 1.1272(4)
N9G N 0.00056(14) 0.62237(20) 1.1272(4)
N9H N 0.37763(20) 1.37819(14) 1.1272(4)
C1A C -0.00436(19) 1.09311(26) 0.9176(5)
C1B C -0.09311(26) 0.90253(18) 0.9176(5)
C1F C -0.09747(18) 0.99564(19) 1.0824(5)
C1G C 0.00436(19) 0.90689(26) 1.0824(5)
C1H C 0.09311(26) 1.09747(18) 1.0824(5)
H1A H 0.0231 1.1142 0.9519
H1B H -0.1142 0.9089 0.9519
H1F H -0.0911 1.0231 1.0481
H1G H -0.0231 0.8858 1.0481
H1H H 0.1142 1.0911 1.0481
C2A C -0.0587(2) 1.0316(3) 0.8561(6)
C2B C -0.0316(3) 0.9097(2) 0.8561(6)
C2F C -0.0903(2) 0.9413(2) 1.1439(6)
C2G C 0.0587(2) 0.9684(3) 1.1439(6)
C2H C 0.0316(3) 1.0903(2) 1.1439(6)
H2A H -0.0780 0.9992 0.8391
H2B H 0.0008 0.9228 0.8391
H2F H -0.0772 0.9220 1.1609
H2G H 0.0780 1.0008 1.1609
H2H H -0.0008 1.0772 1.1609
C3A C -0.0671(2) 1.0656(3) 0.8302(6)
C3B C -0.0656(3) 0.8673(2) 0.8302(6)
C3F C -0.1327(2) 0.9329(2) 1.1698(6)
C3G C 0.0671(2) 0.9344(3) 1.1698(6)
C3H C 0.0656(3) 1.1327(2) 1.1698(6)
H3A H -0.0920 1.0626 0.7912
H3B H -0.0626 0.8454 0.7912
H3F H -0.1546 0.9080 1.2088
H3G H 0.0920 0.9374 1.2088
H3H H 0.0626 1.1546 1.2088
C4A C -0.02734(19) 1.15273(25) 0.8702(5)
C4B C -0.15273(25) 0.81993(16) 0.8702(5)
C4F C -0.18007(16) 0.97266(19) 1.1298(5)
C4G C 0.02734(19) 0.84727(25) 1.1298(5)
C4H C 0.15273(25) 1.18007(16) 1.1298(5)
C5A C -0.06707(19) 1.15703(28) 0.8740(6)
C5B C -0.15703(28) 0.7759(2) 0.8740(6)
C5F C -0.2241(2) 0.93293(19) 1.1260(6)
C5G C 0.06707(19) 0.84297(28) 1.1260(6)
C5H C 0.15703(28) 1.2241(2) 1.1260(6)
H4A H -0.0977 1.1294 0.8762
H4B H -0.1294 0.7729 0.8762
H4F H -0.2271 0.9023 1.1238
H4G H 0.0977 0.8706 1.1238
H4H H 0.1294 1.2271 1.1238
C6A C -0.06239(18) 1.20163(26) 0.8745(6)
C6B C -0.20163(26) 0.73598(19) 0.8745(6)
C6F C -0.26402(19) 0.93761(18) 1.1255(6)
C6G C 0.06239(18) 0.79837(26) 1.1255(6)
C6H C 0.20163(26) 1.26402(19) 1.1255(6)
H5A H -0.0898 1.2049 0.8762
H5B H -0.2049 0.7053 0.8762
H5F H -0.2947 0.9102 1.1238
H5G H 0.0898 0.7951 1.1238
H5H H 0.2049 1.2947 1.1238
C7A C -0.01627(18) 1.24278(25) 0.8724(6)
C7B C -0.24278(25) 0.74095(18) 0.8724(6)
C7F C -0.25905(18) 0.98373(18) 1.1276(6)
C7G C 0.01627(18) 0.75722(25) 1.1276(6)
C7H C 0.24278(25) 1.25905(18) 1.1276(6)
C8A C 0.02272(18) 1.23593(25) 0.8690(6)
C8B C -0.23593(25) 0.78679(18) 0.8690(6)
C8F C -0.21321(18) 1.02272(18) 1.1310(6)
C8G C -0.02272(18) 0.76407(25) 1.1310(6)
C8H C 0.23593(25) 1.21321(18) 1.1310(6)
H6A H 0.0537 1.2630 0.8675
H6B H -0.2630 0.7907 0.8675
H6F H -0.2093 1.0537 1.1325
H6G H -0.0537 0.7370 1.1325
H6H H 0.2630 1.2093 1.1325
C9A C 0.01823(18) 1.19278(25) 0.8677(5)
C9B C -0.19278(25) 0.82545(18) 0.8677(5)
C9F C -0.17455(18) 1.01823(18) 1.1323(5)
C9G C -0.01823(18) 0.80722(25) 1.1323(5)
C9H C 0.19278(25) 1.17455(18) 1.1323(5)
H7A H 0.0455 1.1893 0.8651
H7B H -0.1893 0.8562 0.8651
H7F H -0.1438 1.0455 1.1349
H7G H -0.0455 0.8107 1.1349
H7H H 0.1893 1.1438 1.1349
C10A C -0.01109(18) 1.29042(25) 0.8731(6)
C10B C -0.29042(25) 0.69849(18) 0.8731(6)
C10F C -0.30151(18) 0.98891(18) 1.1269(6)
C10G C 0.01109(18) 0.70958(25) 1.1269(6)
C10H C 0.29042(25) 1.30151(18) 1.1269(6)
C11A C -0.04250(17) 1.33826(25) 0.8919(5)
C11B C -0.33826(25) 0.61924(18) 0.8919(5)
C11F C -0.38076(18) 0.95750(17) 1.1081(5)
C11G C 0.04250(17) 0.66174(25) 1.1081(5)
C11H C 0.33826(25) 1.38076(18) 1.1081(5)
C12A C 0.03516(17) 1.36965(25) 0.8523(6)
C12B C -0.36965(25) 0.66551(18) 0.8523(6)
C12F C -0.33449(18) 1.03516(17) 1.1477(6)
C12G C -0.03516(17) 0.63035(25) 1.1477(6)
C12H C 0.36965(25) 1.33449(18) 1.1477(6)
C13A C -0.08279(17) 1.34485(24) 0.9159(5)
C13B C -0.34485(24) 0.57236(17) 0.9159(5)
C13F C -0.42764(17) 0.91721(17) 1.0841(5)
C13G C 0.08279(17) 0.65515(24) 1.0841(5)
C13H C 0.34485(24) 1.42764(17) 1.0841(5)
C14A C -0.12592(18) 1.30677(26) 0.9389(6)
C14B C -0.30677(26) 0.56731(19) 0.9389(6)
C14F C -0.43269(19) 0.87408(18) 1.0611(6)
C14G C 0.12592(18) 0.69323(26) 1.0611(6)
C14H C 0.30677(26) 1.43269(19) 1.0611(6)
H8A H -0.1292 1.2761 0.9410
H8B H -0.2761 0.5947 0.9410
H8F H -0.4053 0.8708 1.0590
H8G H 0.1292 0.7239 1.0590
H8H H 0.2761 1.4053 1.0590
C15A C -0.16419(19) 1.31166(25) 0.9588(5)
C15B C -0.31166(25) 0.52415(17) 0.9588(5)
C15F C -0.47585(17) 0.83581(19) 1.0412(5)
C15G C 0.16419(19) 0.68834(25) 1.0412(5)
C15H C 0.31166(25) 1.47585(17) 1.0412(5)
H9A H -0.1934 1.2847 0.9766
H9B H -0.2847 0.5219 0.9766
H9F H -0.4781 0.8066 1.0234
H9G H 0.1934 0.7153 1.0234
H9H H 0.2847 1.4781 1.0234
C16A C -0.16053(16) 1.35568(24) 0.9533(5)
C16B C -0.35568(24) 0.48379(18) 0.9533(5)
C16F C -0.51621(18) 0.83947(16) 1.0467(5)
C16G C 0.16053(16) 0.64432(24) 1.0467(5)
C16H C 0.35568(24) 1.51621(18) 1.0467(5)
C17A C -0.11818(19) 1.39488(27) 0.9281(6)
C17B C -0.39488(27) 0.48694(19) 0.9281(6)
C17F C -0.51306(19) 0.88182(19) 1.0719(6)
C17G C 0.11818(19) 0.60512(27) 1.0719(6)
C17H C 0.39488(27) 1.51306(19) 1.0719(6)
H10A H -0.1157 1.4251 0.9230
H10B H -0.4251 0.4592 0.9230
H10F H -0.5408 0.8843 1.0770
H10G H 0.1157 0.5749 1.0770
H10H H 0.4251 1.5408 1.0770
C18A C -0.07831(18) 1.38926(25) 0.9100(5)
C18B C -0.38926(25) 0.53243(18) 0.9100(5)
C18F C -0.46757(18) 0.92169(18) 1.0900(5)
C18G C 0.07831(18) 0.61074(25) 1.0900(5)
C18H C 0.38926(25) 1.46757(18) 1.0900(5)
H11A H -0.0487 1.4160 0.8938
H11B H -0.4160 0.5353 0.8938
H11F H -0.4647 0.9513 1.1062
H11G H 0.0487 0.5840 1.1062
H11H H 0.4160 1.4647 1.1062
C19A C -0.23511(16) 1.33742(23) 1.0324(5)
C19B C -0.33742(23) 0.42747(16) 1.0324(5)
C19F C -0.57253(16) 0.76489(16) 0.9676(5)
C19G C 0.23511(16) 0.66258(23) 0.9676(5)
C19H C 0.33742(23) 1.57253(16) 0.9676(5)
H12A H -0.2361 1.3141 1.0735
H12B H -0.3141 0.4498 1.0735
H12F H -0.5502 0.7639 0.9265
H12G H 0.2361 0.6859 0.9265
H12H H 0.3141 1.5502 0.9265
C20A C -0.2528(2) 1.3835(3) 0.9596(5)
C20B C -0.3835(3) 0.3637(2) 0.9596(5)
C20F C -0.6363(2) 0.7472(2) 1.0404(5)
C20G C 0.2528(2) 0.6165(3) 1.0404(5)
C20H C 0.3835(3) 1.6363(2) 1.0404(5)
H13A H -0.2697 1.3986 0.9389
H13B H -0.3986 0.3317 0.9389
H13F H -0.6683 0.7303 1.0611
H13G H 0.2697 0.6014 1.0611
H13H H 0.3986 1.6683 1.0611
C21A C -0.21074(19) 1.39176(28) 0.9240(5)
C21B C -0.39176(28) 0.3975(2) 0.9240(5)
C21F C -0.6025(2) 0.78926(19) 1.0760(5)
C21G C 0.21074(19) 0.60824(28) 1.0760(5)
C21H C 0.39176(28) 1.6025(2) 1.0760(5)
H14A H -0.1924 1.4139 0.8772
H14B H -0.4139 0.3937 0.8772
H14F H -0.6063 0.8076 1.1228
H14G H 0.1924 0.5861 1.1228
H14H H 0.4139 1.6063 1.1228
C22A C 0.08276(16) 1.41129(23) 0.8289(5)
C22B C -0.41129(23) 0.67147(17) 0.8289(5)
C22F C -0.32853(17) 1.08276(16) 1.1711(5)
C22G C -0.08276(16) 0.58871(23) 1.1711(5)
C22H C 0.41129(23) 1.32853(17) 1.1711(5)
C23A C 0.09026(18) 1.45670(25) 0.8292(6)
C23B C -0.45670(25) 0.63356(18) 0.8292(6)
C23F C -0.36644(18) 1.09026(18) 1.1708(6)
C23G C -0.09026(18) 0.54330(25) 1.1708(6)
C23H C 0.45670(25) 1.36644(18) 1.1708(6)
H15A H 0.0646 1.4615 0.8452
H15B H -0.4615 0.6031 0.8452
H15F H -0.3969 1.0646 1.1548
H15G H -0.0646 0.5385 1.1548
H15H H 0.4615 1.3969 1.1548
C24A C 0.13308(17) 1.49538(24) 0.8076(5)
C24B C -0.49538(24) 0.63770(17) 0.8076(5)
C24F C -0.36230(17) 1.13308(17) 1.1924(5)
C24G C -0.13308(17) 0.50462(24) 1.1924(5)
C24H C 0.49538(24) 1.36230(17) 1.1924(5)
H16A H 0.1369 1.5262 0.8031
H16B H -0.5262 0.6107 0.8031
H16F H -0.3893 1.1369 1.1969
H16G H -0.1369 0.4738 1.1969
H16H H 0.5262 1.3893 1.1969
C25A C 0.17073(16) 1.48745(24) 0.7925(5)
C25B C -0.48745(24) 0.68328(18) 0.7925(5)
C25F C -0.31672(18) 1.17073(16) 1.2075(5)
C25G C -0.17073(16) 0.51255(24) 1.2075(5)
C25H C 0.48745(24) 1.31672(18) 1.2075(5)
C26A C 0.16449(18) 1.44267(25) 0.7894(6)
C26B C -0.44267(25) 0.72182(17) 0.7894(6)
C26F C -0.27818(17) 1.16449(18) 1.2106(6)
C26G C -0.16449(18) 0.55733(25) 1.2106(6)
C26H C 0.44267(25) 1.27818(17) 1.2106(6)
H17A H 0.1902 1.4378 0.7749
H17B H -0.4378 0.7524 0.7749
H17F H -0.2476 1.1902 1.2251
H17G H -0.1902 0.5622 1.2251
H17H H 0.4378 1.2476 1.2251
C27A C 0.12000(18) 1.40479(26) 0.8078(6)
C27B C -0.40479(26) 0.71521(19) 0.8078(6)
C27F C -0.28479(19) 1.12000(18) 1.1922(6)
C27G C -0.12000(18) 0.59521(26) 1.1922(6)
C27H C 0.40479(26) 1.28479(19) 1.1922(6)
H18A H 0.1152 1.3735 0.8057
H18B H -0.3735 0.7417 0.8057
H18F H -0.2583 1.1152 1.1943
H18G H -0.1152 0.6265 1.1943
H18H H 0.3735 1.2583 1.1943
C28A C 0.23487(16) 1.57143(23) 0.8077(5)
C28B C -0.57143(23) 0.66344(17) 0.8077(5)
C28F C -0.33656(17) 1.23487(16) 1.1923(5)
C28G C -0.23487(16) 0.42857(23) 1.1923(5)
C28H C 0.57143(23) 1.33656(17) 1.1923(5)
H19A H 0.2162 1.5819 0.8395
H19B H -0.5819 0.6343 0.8395
H19F H -0.3657 1.2162 1.1605
H19G H -0.2162 0.4181 1.1605
H19H H 0.5819 1.3657 1.1605
C29A C 0.29285(17) 1.57052(25) 0.7451(4)
C29B C -0.57052(25) 0.72233(18) 0.7451(4)
C29F C -0.27767(18) 1.29285(17) 1.2549(4)
C29G C -0.29285(17) 0.42948(25) 1.2549(4)
C29H C 0.57052(25) 1.27767(18) 1.2549(4)
H20A H 0.3239 1.5804 0.7226
H20B H -0.5804 0.7435 0.7226
H20F H -0.2565 1.3239 1.2774
H20G H -0.3239 0.4196 1.2774
H20H H 0.5804 1.2565 1.2774
C30A C 0.25551(18) 1.52712(26) 0.7345(5)
C30B C -0.52712(26) 0.72839(19) 0.7345(5)
C30F C -0.27161(19) 1.25551(18) 1.2655(5)
C30G C -0.25551(18) 0.47288(26) 1.2655(5)
C30H C 0.52712(26) 1.27161(19) 1.2655(5)
H21A H 0.2552 1.5008 0.7051
H21B H -0.5008 0.7544 0.7051
H21F H -0.2456 1.2552 1.2949
H21G H -0.2552 0.4992 1.2949
H21H H 0.5008 1.2456 1.2949
O1 O 1.1587(3) 0.4811(3) 0.2918(9)
O2 O 1.1613(2) 0.55073(19) 0.2877(6)
O3 O 1.1323(6) 0.5056(6) 0.1816(8)
S1 S 1.13903(11) 0.50687(13) 0.27098(12)
C31 C 1.08163(12) 0.4761(3) 0.31801(11)
C32 C 1.0618(3) 0.4293(4) 0.3434(3)
H22 H 1.0780 0.4120 0.3368
C33 C 1.0157(3) 0.4091(5) 0.3800(4)
H23 H 1.0013 0.3767 0.3979
C34 C 0.9884(4) 0.4310(4) 0.3931(4)
C35 C 1.0128(4) 0.4767(5) 0.3646(4)
H24 H 0.9969 0.4943 0.3706
C36 C 1.0586(3) 0.5012(4) 0.3275(4)
H25 H 1.0729 0.5336 0.3098
C37 C 0.9436(5) 0.4136(7) 0.4283(5)
H26 H 0.9358 0.4391 0.4305
H27 H 0.9422 0.4014 0.4911
H28 H 0.9207 0.3879 0.3885
O4 O 1.0628(4) 0.1769(3) 0.3912(10)
O5 O 1.0923(16) 0.231(2) 0.2705(11)
O6 O 1.1221(8) 0.2670(8) 0.394(3)
S2 S 1.0811(3) 0.2247(3) 0.3659(5)
C38 C 1.0348(5) 0.2389(5) 0.3817(5)
C39 C 0.9887(4) 0.2028(7) 0.3991(13)
H29 H 0.9816 0.1708 0.4032
C40 C 0.9527(6) 0.2139(5) 0.4106(19)
H30 H 0.9209 0.1896 0.4218
C41 C 0.9643(6) 0.2612(5) 0.4055(18)
C42 C 1.0104(4) 0.2977(7) 0.3889(18)
H31 H 1.0175 0.3297 0.3852
C43 C 1.0460(6) 0.2857(5) 0.3779(16)
H32 H 1.0779 0.3099 0.3677
C44 C 0.9268(12) 0.2793(12) 0.418(2)
H33 H 0.8957 0.2523 0.4340
H34 H 0.9244 0.2936 0.3599
H35 H 0.9375 0.3030 0.4677
O8 O 1.2856(7) 0.4784(7) 0.5210(15)
O9 O 1.1583(5) 0.3969(5) 0.3405(11)
O7? O 1.0530(18) 0.1849(19) 0.382(4)
loop_
_geom_bond_atom_site_label_1
_geom_bond_atom_site_label_2
_geom_bond_site_symmetry_1
_geom_bond_site_symmetry_2
Cd1 N1 1_555 1_555
Cd2 N3 1_555 1_555
N1 C1 1_555 1_555
N2 C1 1_555 1_555
N3 C19 1_555 1_555
N4 C16 1_555 1_555
N5 C28 1_555 1_555
N6 C25 1_555 1_555
N7 C10 1_555 1_555
N8 C10 1_555 1_555
N9 C11 1_555 1_555
C1 H1 1_555 1_555
C2 N1 1_555 1_555
H2 C2 1_555 1_555
C3 N2 1_555 1_555
H3 C3 1_555 1_555
C4 N2 1_555 1_555
C5 C4 1_555 1_555
H4 C5 1_555 1_555
C6 C5 1_555 1_555
H5 C6 1_555 1_555
C7 C6 1_555 1_555
C8 C7 1_555 1_555
H6 C8 1_555 1_555
C9 C4 1_555 1_555
H7 C9 1_555 1_555
C10 C7 1_555 1_555
C11 N8 1_555 1_555
C12 N7 1_555 1_555
C13 C11 1_555 1_555
C14 C13 1_555 1_555
H8 C14 1_555 1_555
C15 C14 1_555 1_555
H9 C15 1_555 1_555
C16 C15 1_555 1_555
C17 C16 1_555 1_555
H10 C17 1_555 1_555
C18 C13 1_555 1_555
H11 C18 1_555 1_555
C19 N4 1_555 1_555
H12 C19 1_555 1_555
C20 N3 1_555 1_555
H13 C20 1_555 1_555
C21 N4 1_555 1_555
H14 C21 1_555 1_555
C22 C12 1_555 1_555
C23 C22 1_555 1_555
H15 C23 1_555 1_555
C24 C23 1_555 1_555
H16 C24 1_555 1_555
C25 C24 1_555 1_555
C26 C25 1_555 1_555
H17 C26 1_555 1_555
C27 C22 1_555 1_555
H18 C27 1_555 1_555
C28 N6 1_555 1_555
H19 C28 1_555 1_555
C29 N5 1_555 1_555
H20 C29 1_555 1_555
C30 N6 1_555 1_555
H21 C30 1_555 1_555
O1 S1 1_555 1_555
O2 S1 1_555 1_555
O3 S1 1_555 1_555
S1 C31 1_555 1_555
C31 C32 1_555 1_555
C32 H22 1_555 1_555
C33 C32 1_555 1_555
H23 C33 1_555 1_555
C34 C33 1_555 1_555
C35 C34 1_555 1_555
H24 C35 1_555 1_555
C36 C31 1_555 1_555
H25 C36 1_555 1_555
C37 C34 1_555 1_555
H26 C37 1_555 1_555
H27 C37 1_555 1_555
H28 C37 1_555 1_555
O4 S2 1_555 1_555
O5 S2 1_555 1_555
O6 S2 1_555 1_555
S2 C38 1_555 1_555
C38 C39 1_555 1_555
C39 H29 1_555 1_555
C40 C39 1_555 1_555
H30 C40 1_555 1_555
C41 C40 1_555 1_555
C42 C41 1_555 1_555
H31 C42 1_555 1_555
C43 C38 1_555 1_555
H32 C43 1_555 1_555
C44 C41 1_555 1_555
H33 C44 1_555 1_555
H34 C44 1_555 1_555
H35 C44 1_555 1_555
Cd2A N3A 1_555 1_555
Cd2B N3B 1_555 1_555
Cd2F N3F 1_555 1_555
Cd2G N5 1_555 1_555
Cd2H N3H 1_555 1_555
N1A Cd1 1_555 1_555
N1B Cd1 1_555 1_555
N1F Cd1 1_555 1_555
N1G Cd1 1_555 1_555
N1H Cd1 1_555 1_555
N2A C1A 1_555 1_555
N2B C1B 1_555 1_555
N2F C1F 1_555 1_555
N2G C1G 1_555 1_555
N2H C1H 1_555 1_555
N3A C19A 1_555 1_555
N3B C19B 1_555 1_555
N3F C19F 1_555 1_555
N3G Cd2G 1_555 1_555
N3H C19H 1_555 1_555
N3A_2 Cd2 1_555 1_555
N3B_2 Cd2 1_555 1_555
N3F_2 Cd2H 1_555 1_555
N3G_2 Cd2H 1_555 1_555
N4A C16A 1_555 1_555
N4B C16B 1_555 1_555
N4F C16F 1_555 1_555
N4G C16G 1_555 1_555
N4H C16H 1_555 1_555
N5A Cd2H 1_555 1_555
N5B Cd2F 1_555 1_555
N5F Cd2A 1_555 1_555
N5G Cd2B 1_555 1_555
N5H Cd2 1_555 1_555
N5F_2 Cd2 1_555 1_555
N5G_2 Cd2 1_555 1_555
N5_2 Cd2H 1_555 1_555
N5B_2 Cd2H 1_555 1_555
N6A C25A 1_555 1_555
N6B C25B 1_555 1_555
N6F C25F 1_555 1_555
N6G C25G 1_555 1_555
N6H C25H 1_555 1_555
N7A C10A 1_555 1_555
N7B C10B 1_555 1_555
N7F C10F 1_555 1_555
N7G C10G 1_555 1_555
N7H C10H 1_555 1_555
N8A C10A 1_555 1_555
N8B C10B 1_555 1_555
N8F C10F 1_555 1_555
N8G C10G 1_555 1_555
N8H C10H 1_555 1_555
N9A C11A 1_555 1_555
N9B C11B 1_555 1_555
N9F C11F 1_555 1_555
N9G C11G 1_555 1_555
N9H C11H 1_555 1_555
C1A N1A 1_555 1_555
C1B N1B 1_555 1_555
C1F N1F 1_555 1_555
C1G N1G 1_555 1_555
C1H N1H 1_555 1_555
H1A C1A 1_555 1_555
H1B C1B 1_555 1_555
H1F C1F 1_555 1_555
H1G C1G 1_555 1_555
H1H C1H 1_555 1_555
C2A N1A 1_555 1_555
C2B N1B 1_555 1_555
C2F N1F 1_555 1_555
C2G N1G 1_555 1_555
C2H N1H 1_555 1_555
H2A C2A 1_555 1_555
H2B C2B 1_555 1_555
H2F C2F 1_555 1_555
H2G C2G 1_555 1_555
H2H C2H 1_555 1_555
C3A N2A 1_555 1_555
C3B N2B 1_555 1_555
C3F N2F 1_555 1_555
C3G N2G 1_555 1_555
C3H N2H 1_555 1_555
H3A C3A 1_555 1_555
H3B C3B 1_555 1_555
H3F C3F 1_555 1_555
H3G C3G 1_555 1_555
H3H C3H 1_555 1_555
C4A N2A 1_555 1_555
C4B N2B 1_555 1_555
C4F N2F 1_555 1_555
C4G N2G 1_555 1_555
C4H N2H 1_555 1_555
C5A C4A 1_555 1_555
C5B C4B 1_555 1_555
C5F C4F 1_555 1_555
C5G C4G 1_555 1_555
C5H C4H 1_555 1_555
H4A C5A 1_555 1_555
H4B C5B 1_555 1_555
H4F C5F 1_555 1_555
H4G C5G 1_555 1_555
H4H C5H 1_555 1_555
C6A C5A 1_555 1_555
C6B C5B 1_555 1_555
C6F C5F 1_555 1_555
C6G C5G 1_555 1_555
C6H C5H 1_555 1_555
H5A C6A 1_555 1_555
H5B C6B 1_555 1_555
H5F C6F 1_555 1_555
H5G C6G 1_555 1_555
H5H C6H 1_555 1_555
C7A C6A 1_555 1_555
C7B C6B 1_555 1_555
C7F C6F 1_555 1_555
C7G C6G 1_555 1_555
C7H C6H 1_555 1_555
C8A C7A 1_555 1_555
C8B C7B 1_555 1_555
C8F C7F 1_555 1_555
C8G C7G 1_555 1_555
C8H C7H 1_555 1_555
H6A C8A 1_555 1_555
H6B C8B 1_555 1_555
H6F C8F 1_555 1_555
H6G C8G 1_555 1_555
H6H C8H 1_555 1_555
C9A C4A 1_555 1_555
C9B C4B 1_555 1_555
C9F C4F 1_555 1_555
C9G C4G 1_555 1_555
C9H C4H 1_555 1_555
H7A C9A 1_555 1_555
H7B C9B 1_555 1_555
H7F C9F 1_555 1_555
H7G C9G 1_555 1_555
H7H C9H 1_555 1_555
C10A C7A 1_555 1_555
C10B C7B 1_555 1_555
C10F C7F 1_555 1_555
C10G C7G 1_555 1_555
C10H C7H 1_555 1_555
C11A N8A 1_555 1_555
C11B N8B 1_555 1_555
C11F N8F 1_555 1_555
C11G N8G 1_555 1_555
C11H N8H 1_555 1_555
C12A N7A 1_555 1_555
C12B N7B 1_555 1_555
C12F N7F 1_555 1_555
C12G N7G 1_555 1_555
C12H N7H 1_555 1_555
C13A C11A 1_555 1_555
C13B C11B 1_555 1_555
C13F C11F 1_555 1_555
C13G C11G 1_555 1_555
C13H C11H 1_555 1_555
C14A C13A 1_555 1_555
C14B C13B 1_555 1_555
C14F C13F 1_555 1_555
C14G C13G 1_555 1_555
C14H C13H 1_555 1_555
H8A C14A 1_555 1_555
H8B C14B 1_555 1_555
H8F C14F 1_555 1_555
H8G C14G 1_555 1_555
H8H C14H 1_555 1_555
C15A C14A 1_555 1_555
C15B C14B 1_555 1_555
C15F C14F 1_555 1_555
C15G C14G 1_555 1_555
C15H C14H 1_555 1_555
H9A C15A 1_555 1_555
H9B C15B 1_555 1_555
H9F C15F 1_555 1_555
H9G C15G 1_555 1_555
H9H C15H 1_555 1_555
C16A C15A 1_555 1_555
C16B C15B 1_555 1_555
C16F C15F 1_555 1_555
C16G C15G 1_555 1_555
C16H C15H 1_555 1_555
C17A C16A 1_555 1_555
C17B C16B 1_555 1_555
C17F C16F 1_555 1_555
C17G C16G 1_555 1_555
C17H C16H 1_555 1_555
H10A C17A 1_555 1_555
H10B C17B 1_555 1_555
H10F C17F 1_555 1_555
H10G C17G 1_555 1_555
H10H C17H 1_555 1_555
C18A C13A 1_555 1_555
C18B C13B 1_555 1_555
C18F C13F 1_555 1_555
C18G C13G 1_555 1_555
C18H C13H 1_555 1_555
H11A C18A 1_555 1_555
H11B C18B 1_555 1_555
H11F C18F 1_555 1_555
H11G C18G 1_555 1_555
H11H C18H 1_555 1_555
C19A N4A 1_555 1_555
C19B N4B 1_555 1_555
C19F N4F 1_555 1_555
C19G N3G 1_555 1_555
C19H N4H 1_555 1_555
H12A C19A 1_555 1_555
H12B C19B 1_555 1_555
H12F C19F 1_555 1_555
H12G C19G 1_555 1_555
H12H C19H 1_555 1_555
C20A N3A 1_555 1_555
C20B N3B 1_555 1_555
C20F N3F 1_555 1_555
C20G N3G 1_555 1_555
C20H N3H 1_555 1_555
H13A C20A 1_555 1_555
H13B C20B 1_555 1_555
H13F C20F 1_555 1_555
H13G C20G 1_555 1_555
H13H C20H 1_555 1_555
C21A N4A 1_555 1_555
C21B N4B 1_555 1_555
C21F N4F 1_555 1_555
C21G N4G 1_555 1_555
C21H N4H 1_555 1_555
H14A C21A 1_555 1_555
H14B C21B 1_555 1_555
H14F C21F 1_555 1_555
H14G C21G 1_555 1_555
H14H C21H 1_555 1_555
C22A C12A 1_555 1_555
C22B C12B 1_555 1_555
C22F C12F 1_555 1_555
C22G C12G 1_555 1_555
C22H C12H 1_555 1_555
C23A C22A 1_555 1_555
C23B C22B 1_555 1_555
C23F C22F 1_555 1_555
C23G C22G 1_555 1_555
C23H C22H 1_555 1_555
H15A C23A 1_555 1_555
H15B C23B 1_555 1_555
H15F C23F 1_555 1_555
H15G C23G 1_555 1_555
H15H C23H 1_555 1_555
C24A C23A 1_555 1_555
C24B C23B 1_555 1_555
C24F C23F 1_555 1_555
C24G C23G 1_555 1_555
C24H C23H 1_555 1_555
H16A C24A 1_555 1_555
H16B C24B 1_555 1_555
H16F C24F 1_555 1_555
H16G C24G 1_555 1_555
H16H C24H 1_555 1_555
C25A C24A 1_555 1_555
C25B C24B 1_555 1_555
C25F C24F 1_555 1_555
C25G C24G 1_555 1_555
C25H C24H 1_555 1_555
C26A C25A 1_555 1_555
C26B C25B 1_555 1_555
C26F C25F 1_555 1_555
C26G C25G 1_555 1_555
C26H C25H 1_555 1_555
H17A C26A 1_555 1_555
H17B C26B 1_555 1_555
H17F C26F 1_555 1_555
H17G C26G 1_555 1_555
H17H C26H 1_555 1_555
C27A C22A 1_555 1_555
C27B C22B 1_555 1_555
C27F C22F 1_555 1_555
C27G C22G 1_555 1_555
C27H C22H 1_555 1_555
H18A C27A 1_555 1_555
H18B C27B 1_555 1_555
H18F C27F 1_555 1_555
H18G C27G 1_555 1_555
H18H C27H 1_555 1_555
C28A N5A 1_555 1_555
C28B N5B 1_555 1_555
C28F N5F 1_555 1_555
C28G N5G 1_555 1_555
C28H N5H 1_555 1_555
H19A C28A 1_555 1_555
H19B C28B 1_555 1_555
H19F C28F 1_555 1_555
H19G C28G 1_555 1_555
H19H C28H 1_555 1_555
C29A N5A 1_555 1_555
C29B N5B 1_555 1_555
C29F N5F 1_555 1_555
C29G N5G 1_555 1_555
C29H N5H 1_555 1_555
H20A C29A 1_555 1_555
H20B C29B 1_555 1_555
H20F C29F 1_555 1_555
H20G C29G 1_555 1_555
H20H C29H 1_555 1_555
C30A N6A 1_555 1_555
C30B N6B 1_555 1_555
C30F N6F 1_555 1_555
C30G N6G 1_555 1_555
C30H N6H 1_555 1_555
H21A C30A 1_555 1_555
H21B C30B 1_555 1_555
H21F C30F 1_555 1_555
H21G C30G 1_555 1_555
H21H C30H 1_555 1_555
N9 C12 1_555 1_555
C2 C3 1_555 1_555
C8 C9 1_555 1_555
C17 C18 1_555 1_555
C20 C21 1_555 1_555
C26 C27 1_555 1_555
C29 C30 1_555 1_555
C35 C36 1_555 1_555
C42 C43 1_555 1_555
N4G C19G 1_555 1_555
N6A C28A 1_555 1_555
N6B C28B 1_555 1_555
N6F C28F 1_555 1_555
N6G C28G 1_555 1_555
N6H C28H 1_555 1_555
N9A C12A 1_555 1_555
N9B C12B 1_555 1_555
N9F C12F 1_555 1_555
N9G C12G 1_555 1_555
N9H C12H 1_555 1_555
C2A C3A 1_555 1_555
C2B C3B 1_555 1_555
C2F C3F 1_555 1_555
C2G C3G 1_555 1_555
C2H C3H 1_555 1_555
C8A C9A 1_555 1_555
C8B C9B 1_555 1_555
C8F C9F 1_555 1_555
C8G C9G 1_555 1_555
C8H C9H 1_555 1_555
C17A C18A 1_555 1_555
C17B C18B 1_555 1_555
C17F C18F 1_555 1_555
C17G C18G 1_555 1_555
C17H C18H 1_555 1_555
C20A C21A 1_555 1_555
C20B C21B 1_555 1_555
C20F C21F 1_555 1_555
C20G C21G 1_555 1_555
C20H C21H 1_555 1_555
C26A C27A 1_555 1_555
C26B C27B 1_555 1_555
C26F C27F 1_555 1_555
C26G C27G 1_555 1_555
C26H C27H 1_555 1_555
C29A C30A 1_555 1_555
C29B C30B 1_555 1_555
C29F C30F 1_555 1_555
C29G C30G 1_555 1_555
C29H C30H 1_555 1_555

#END
