
#######################################################################
#
#                 Cambridge Crystallographic Data Centre
#                                CCDC 
#
#######################################################################
#
# If this CIF has been generated from an entry in the Cambridge 
# Structural Database, then it will include bibliographic, chemical, 
# crystal, experimental, refinement or atomic coordinate data resulting 
# from the CCDC's data processing and validation procedures.
#
#######################################################################

data_CIVTAD
_symmetry_cell_setting           monoclinic
_symmetry_space_group_name_H-M   'P 21/c'
_symmetry_Int_Tables_number      14
_space_group_name_Hall           '-P 2ybc'
loop_
_symmetry_equiv_pos_site_id
_symmetry_equiv_pos_as_xyz
1 x,y,z
2 -x,1/2+y,1/2-z
3 -x,-y,-z
4 x,1/2-y,1/2+z
_cell_length_a                   18.5838(3)
_cell_length_b                   33.2158(5)
_cell_length_c                   14.8187(3)
_cell_angle_alpha                90
_cell_angle_beta                 100.552(2)
_cell_angle_gamma                90
_cell_volume                     8992.54
loop_
_atom_site_label
_atom_site_type_symbol
_atom_site_fract_x
_atom_site_fract_y
_atom_site_fract_z
Cd1 Cd 0.74261(2) 1.249046(13) -1.03947(4)
N1 N 0.7124(3) 1.30631(15) -1.1344(4)
N2 N 0.6947(3) 1.37066(16) -1.1633(5)
N3 N 1.1796(3) 1.70726(15) -1.0596(4)
N4 N 1.0874(3) 1.66483(15) -1.1001(4)
N5 N 0.3539(3) 1.73291(15) -1.0349(4)
N6 N 0.4506(3) 1.70587(16) -1.0736(4)
N7 N 0.6767(3) 1.56185(16) -1.1063(5)
N8 N 0.8025(3) 1.55412(16) -1.1155(5)
N9 N 0.7550(3) 1.61879(16) -1.0912(5)
N10 N 0.7758(3) 1.19285(15) -0.9414(4)
N11 N 0.7977(3) 1.13212(16) -0.8872(5)
N12 N 0.3350(3) 0.79416(16) -0.8623(4)
N13 N 0.4269(3) 0.83614(17) -0.8226(5)
N14 N 1.1605(3) 0.76896(15) -0.8874(4)
N15 N 1.0634(3) 0.79639(16) -0.8474(4)
N16 N 0.8319(3) 0.94071(15) -0.8469(5)
N17 N 0.7065(3) 0.94832(15) -0.8399(5)
N18 N 0.7592(3) 0.88313(15) -0.8321(5)
C1 C 0.7390(4) 1.34226(19) -1.1195(6)
H1 H 0.7849 1.3479 -1.0817
C2 C 0.6473(4) 1.3114(2) -1.1897(6)
H2 H 0.6147 1.2902 -1.2125
C3 C 0.6342(4) 1.3516(2) -1.2087(6)
H3 H 0.5923 1.3634 -1.2454
C4 C 0.7052(4) 1.41390(19) -1.1536(6)
C5 C 0.7749(4) 1.4293(2) -1.1383(7)
H4 H 0.8158 1.4120 -1.1366
C6 C 0.7848(3) 1.4706(2) -1.1252(7)
H5 H 0.8327 1.4818 -1.1127
C7 C 0.7235(4) 1.49549(19) -1.1307(6)
C8 C 0.6546(4) 1.4791(2) -1.1457(7)
H6 H 0.6131 1.4960 -1.1478
C9 C 0.6455(4) 1.4383(2) -1.1577(7)
H7 H 0.5977 1.4270 -1.1688
C10 C 0.7344(4) 1.53951(19) -1.1174(6)
C11 C 0.8095(3) 1.59350(19) -1.1020(5)
C12 C 0.6903(3) 1.6015(2) -1.0938(5)
C13 C 0.8821(3) 1.61171(19) -1.1012(5)
C14 C 0.9428(4) 1.5880(2) -1.1047(7)
H8 H 0.9377 1.5595 -1.1066
C15 C 1.0104(4) 1.6049(2) -1.1054(7)
H9 H 1.0518 1.5883 -1.1073
C16 C 1.0172(3) 1.6461(2) -1.1035(5)
C17 C 0.9569(4) 1.6712(2) -1.1032(6)
H10 H 0.9619 1.6996 -1.1037
C18 C 0.8894(4) 1.6533(2) -1.1021(6)
H11 H 0.8477 1.6698 -1.1019
C19 C 1.1105(3) 1.69912(19) -1.0543(5)
H12 H 1.0811 1.7152 -1.0224
C20 C 1.2009(4) 1.6764(2) -1.1110(6)
H13 H 1.2481 1.6738 -1.1263
C21 C 1.1452(4) 1.6503(2) -1.1364(6)
H14 H 1.1458 1.6267 -1.1723
C22 C 0.6279(3) 1.6282(2) -1.0852(6)
C23 C 0.6364(4) 1.6695(2) -1.0903(6)
H15 H 0.6827 1.6803 -1.0960
C24 C 0.5783(4) 1.6953(2) -1.0871(6)
H16 H 0.5837 1.7235 -1.0935
C25 C 0.5126(3) 1.6792(2) -1.0744(6)
C26 C 0.5026(4) 1.6385(2) -1.0666(7)
H17 H 0.4573 1.6281 -1.0562
C27 C 0.5613(4) 1.6125(2) -1.0744(7)
H18 H 0.5549 1.5842 -1.0722
C28 C 0.4005(3) 1.70308(19) -1.0218(5)
H19 H 0.3983 1.6818 -0.9797
C29 C 0.3766(4) 1.7555(3) -1.0993(6)
H20 H 0.3527 1.7794 -1.1244
C30 C 0.4369(4) 1.7403(3) -1.1239(7)
H21 H 0.4640 1.7511 -1.1667
C31 C 0.7514(4) 1.15675(19) -0.9444(6)
H22 H 0.7068 1.1482 -0.9816
C32 C 0.8402(5) 1.1926(2) -0.8821(6)
H23 H 0.8706 1.2154 -0.8656
C33 C 0.8550(5) 1.1543(2) -0.8493(7)
H24 H 0.8974 1.1454 -0.8081
C34 C 0.7910(4) 1.08920(19) -0.8765(6)
C35 C 0.7273(4) 1.0717(2) -0.8742(6)
H25 H 0.6861 1.0888 -0.8753
C36 C 0.7159(4) 1.0312(2) -0.8704(6)
H26 H 0.6682 1.0200 -0.8771
C37 C 0.7794(4) 1.00707(19) -0.8559(6)
C38 C 0.8473(4) 1.0246(2) -0.8523(7)
H27 H 0.8902 1.0084 -0.8431
C39 C 0.8523(4) 1.0657(2) -0.8623(7)
H28 H 0.8990 1.0779 -0.8592
C40 C 0.7726(3) 0.96261(18) -0.8458(6)
C41 C 0.7023(3) 0.90827(19) -0.8332(5)
C42 C 0.8225(3) 0.90083(19) -0.8390(5)
C43 C 0.6310(3) 0.89032(19) -0.8267(5)
C44 C 0.5702(4) 0.9135(2) -0.8225(6)
H29 H 0.5745 0.9420 -0.8214
C45 C 0.5034(4) 0.8962(2) -0.8199(7)
H30 H 0.4619 0.9126 -0.8178
C46 C 0.4972(3) 0.8549(2) -0.8203(6)
C47 C 0.5573(3) 0.8306(2) -0.8216(6)
H31 H 0.5528 0.8021 -0.8206
C48 C 0.6240(4) 0.8483(2) -0.8242(6)
H32 H 0.6658 0.8318 -0.8243
C49 C 0.4036(3) 0.8031(2) -0.8697(5)
H33 H 0.4323 0.7878 -0.9043
C50 C 0.3146(4) 0.8235(3) -0.8089(6)
H34 H 0.2681 0.8252 -0.7913
C51 C 0.3703(4) 0.8501(3) -0.7842(7)
H35 H 0.3699 0.8736 -0.7476
C52 C 0.8859(3) 0.87394(19) -0.8414(5)
C53 C 0.8782(4) 0.8325(2) -0.8353(6)
H36 H 0.8322 0.8216 -0.8286
C54 C 0.9355(3) 0.8069(2) -0.8389(6)
H37 H 0.9290 0.7786 -0.8372
C55 C 1.0036(3) 0.8233(2) -0.8453(5)
C56 C 1.0121(3) 0.8638(2) -0.8505(5)
H38 H 1.0583 0.8746 -0.8569
C57 C 0.9543(3) 0.88955(19) -0.8468(6)
H39 H 0.9614 0.9179 -0.8478
C58 C 1.1144(3) 0.79916(18) -0.9016(5)
H40 H 1.1165 0.8202 -0.9444
C59 C 1.1390(4) 0.7455(2) -0.8212(6)
H41 H 1.1634 0.7218 -0.7961
C60 C 1.0771(4) 0.7613(2) -0.7964(6)
H42 H 1.0497 0.7506 -0.7538
Cd1B Cd 1.25739(2) 1.750954(13) -0.96053(4)
Cd1B_2 Cd 0.25739(2) 1.750954(13) -0.96053(4)
Cd1B_3 Cd 0.25739(2) 0.750954(13) -0.96053(4)
Cd1B_4 Cd 1.25739(2) 0.750954(13) -0.96053(4)
N3B N 0.8204(3) 1.29274(15) -0.9404(4)
N5B N 0.6461(3) 1.26709(15) -0.9651(4)
N12B N 0.6650(3) 1.20584(16) -1.1377(4)
N14B N 0.8395(3) 1.23104(15) -1.1126(4)
S1 S 1.0513(3) 0.28866(14) -0.3998(4)
O1 O 1.0210(7) 0.2602(3) -0.4722(8)
O2 O 1.0285(5) 0.2756(3) -0.3210(6)
O3 O 1.0428(7) 0.3340(3) -0.4152(10)
C61 C 1.1450(5) 0.2828(3) -0.3815(7)
F1 F 1.1721(8) 0.2470(3) -0.3594(8)
F2 F 1.1882(7) 0.3038(4) -0.3169(7)
F3 F 1.1785(7) 0.2890(4) -0.4518(7)
S2 S 1.4384(3) 0.43594(19) -0.2424(5)
O4 O 1.3581(5) 0.4334(6) -0.2559(14)
O5 O 1.4654(9) 0.4517(5) -0.1506(8)
O6 O 1.4778(7) 0.4011(4) -0.2625(12)
C62 C 1.4556(6) 0.4736(3) -0.3141(7)
F4 F 1.4272(11) 0.4695(7) -0.4025(8)
F5 F 1.4303(11) 0.5092(4) -0.2961(16)
F6 F 1.5208(7) 0.4797(7) -0.3343(15)
S3 S 1.4378(4) 0.2997(2) -0.2085(5)
O7 O 1.4811(6) 0.2668(3) -0.1802(10)
O8 O 1.4488(11) 0.3377(4) -0.1575(12)
O9 O 1.4340(11) 0.3105(6) -0.3062(8)
C63 C 1.3502(6) 0.2875(3) -0.1981(8)
F7 F 1.3194(10) 0.2583(4) -0.2532(12)
F8 F 1.3028(8) 0.3174(4) -0.2113(16)
F9 F 1.3331(10) 0.2660(5) -0.1311(10)
O13 O 1.0396(6) 0.4483(3) -0.4292(11)
N19 N 1.1559(5) 0.4232(3) -0.4027(11)
C65 C 1.1859(9) 0.4596(4) -0.377(2)
H43 H 1.2386 0.4587 -0.3775
H44 H 1.1777 0.4663 -0.3157
H45 H 1.1631 0.4801 -0.4209
C66 C 1.2041(6) 0.3943(4) -0.4152(14)
H46 H 1.2538 0.4053 -0.4017
H47 H 1.1933 0.3850 -0.4791
H48 H 1.2002 0.3717 -0.3741
C67 C 1.0825(6) 0.4156(3) -0.4194(13)
H49 H 1.0632 0.3890 -0.4238
O14 O 1.3385(6) 0.6072(3) -0.0754(9)
N20 N 1.3406(5) 0.5420(3) -0.0957(11)
C68 C 1.4153(5) 0.5392(5) -0.0850(14)
H50 H 1.4291 0.5114 -0.0957
H51 H 1.4376 0.5473 -0.0226
H52 H 1.4327 0.5570 -0.1293
C69 C 1.3030(8) 0.5063(4) -0.1093(15)
H53 H 1.3373 0.4844 -0.1140
H54 H 1.2667 0.5079 -0.1662
H55 H 1.2781 0.5013 -0.0576
C70 C 1.2995(7) 0.5753(3) -0.0934(13)
H56 H 1.2475 0.5752 -0.1039
O15 O 0.9219(5) 0.3636(3) -0.1270(8)
N21 N 1.0413(5) 0.3576(3) -0.1387(12)
C71 C 1.1079(7) 0.3721(5) -0.1504(14)
H57 H 1.1431 0.3499 -0.1456
H58 H 1.1252 0.3922 -0.1029
H59 H 1.1031 0.3847 -0.2111
C72 C 1.0344(12) 0.3175(4) -0.1417(18)
H60 H 1.0827 0.3051 -0.1233
H61 H 1.0132 0.3092 -0.2044
H62 H 1.0023 0.3090 -0.0997
C73 C 0.9822(6) 0.3809(4) -0.1403(13)
H63 H 0.9840 0.4091 -0.1509
O16 O 0.6119(7) 1.6281(6) -0.5739(16)
N22 N 0.4990(6) 1.6223(3) -0.5620(14)
C74 C 0.5051(14) 1.5816(4) -0.565(2)
H64 H 0.4604 1.5691 -0.5516
H65 H 0.5472 1.5728 -0.5195
H66 H 0.5120 1.5734 -0.6265
C75 C 0.4392(5) 1.6372(3) -0.5354(8)
H67 H 0.4059 1.6151 -0.5276
H68 H 0.4145 1.6559 -0.5822
H69 H 0.4535 1.6515 -0.4770
C76 C 0.5535(8) 1.6495(5) -0.563(2)
H70 H 0.5505 1.6779 -0.5565
O17 O 1.1655(10) 0.5703(6) -0.2874(15)
O18 O 1.0555(11) 0.5349(6) -0.4171(16)
O19 O 1.2721(15) 0.5592(9) -0.371(2)
O22 O 1.071(2) 0.4945(12) -0.093(3)
S4? S 1.4498(5) 0.2874(3) -0.1609(6)
O10? O 1.4575(14) 0.2619(5) -0.0804(11)
O11? O 1.4900(11) 0.3249(5) -0.138(2)
O12? O 1.4662(12) 0.2701(7) -0.2431(11)
C64? C 1.3618(6) 0.3049(4) -0.1826(7)
F10? F 1.3512(14) 0.3434(4) -0.1643(19)
F11? F 1.3262(13) 0.3040(10) -0.2691(10)
F12? F 1.3138(9) 0.2945(9) -0.1313(14)
O20? O 1.042(2) 0.4958(12) -0.202(3)
O21? O 1.1927(10) 0.5872(6) -0.3677(15)
loop_
_geom_bond_atom_site_label_1
_geom_bond_atom_site_label_2
_geom_bond_site_symmetry_1
_geom_bond_site_symmetry_2
Cd1 N1 1_555 1_555
N1 C1 1_555 1_555
N2 C1 1_555 1_555
N3 C19 1_555 1_555
N4 C16 1_555 1_555
N5 C28 1_555 1_555
N6 C25 1_555 1_555
N7 C10 1_555 1_555
N8 C10 1_555 1_555
N9 C11 1_555 1_555
N10 Cd1 1_555 1_555
N11 C31 1_555 1_555
N12 C49 1_555 1_555
N13 C46 1_555 1_555
N14 C58 1_555 1_555
N15 C55 1_555 1_555
N16 C40 1_555 1_555
N17 C40 1_555 1_555
N18 C41 1_555 1_555
C1 H1 1_555 1_555
C2 N1 1_555 1_555
H2 C2 1_555 1_555
C3 N2 1_555 1_555
H3 C3 1_555 1_555
C4 N2 1_555 1_555
C5 C4 1_555 1_555
H4 C5 1_555 1_555
C6 C5 1_555 1_555
H5 C6 1_555 1_555
C7 C6 1_555 1_555
C8 C7 1_555 1_555
H6 C8 1_555 1_555
C9 C4 1_555 1_555
H7 C9 1_555 1_555
C10 C7 1_555 1_555
C11 N8 1_555 1_555
C12 N7 1_555 1_555
C13 C11 1_555 1_555
C14 C13 1_555 1_555
H8 C14 1_555 1_555
C15 C14 1_555 1_555
H9 C15 1_555 1_555
C16 C15 1_555 1_555
C17 C16 1_555 1_555
H10 C17 1_555 1_555
C18 C13 1_555 1_555
H11 C18 1_555 1_555
C19 N4 1_555 1_555
H12 C19 1_555 1_555
C20 N3 1_555 1_555
H13 C20 1_555 1_555
C21 N4 1_555 1_555
H14 C21 1_555 1_555
C22 C12 1_555 1_555
C23 C22 1_555 1_555
H15 C23 1_555 1_555
C24 C23 1_555 1_555
H16 C24 1_555 1_555
C25 C24 1_555 1_555
C26 C25 1_555 1_555
H17 C26 1_555 1_555
C27 C22 1_555 1_555
H18 C27 1_555 1_555
C28 N6 1_555 1_555
H19 C28 1_555 1_555
C29 N5 1_555 1_555
H20 C29 1_555 1_555
C30 N6 1_555 1_555
H21 C30 1_555 1_555
C31 N10 1_555 1_555
H22 C31 1_555 1_555
C32 N10 1_555 1_555
H23 C32 1_555 1_555
C33 N11 1_555 1_555
H24 C33 1_555 1_555
C34 N11 1_555 1_555
C35 C34 1_555 1_555
H25 C35 1_555 1_555
C36 C35 1_555 1_555
H26 C36 1_555 1_555
C37 C36 1_555 1_555
C38 C37 1_555 1_555
H27 C38 1_555 1_555
C39 C34 1_555 1_555
H28 C39 1_555 1_555
C40 C37 1_555 1_555
C41 N17 1_555 1_555
C42 N16 1_555 1_555
C43 C41 1_555 1_555
C44 C43 1_555 1_555
H29 C44 1_555 1_555
C45 C44 1_555 1_555
H30 C45 1_555 1_555
C46 C45 1_555 1_555
C47 C46 1_555 1_555
H31 C47 1_555 1_555
C48 C43 1_555 1_555
H32 C48 1_555 1_555
C49 N13 1_555 1_555
H33 C49 1_555 1_555
C50 N12 1_555 1_555
H34 C50 1_555 1_555
C51 N13 1_555 1_555
H35 C51 1_555 1_555
C52 C42 1_555 1_555
C53 C52 1_555 1_555
H36 C53 1_555 1_555
C54 C53 1_555 1_555
H37 C54 1_555 1_555
C55 C54 1_555 1_555
C56 C55 1_555 1_555
H38 C56 1_555 1_555
C57 C52 1_555 1_555
H39 C57 1_555 1_555
C58 N15 1_555 1_555
H40 C58 1_555 1_555
C59 N14 1_555 1_555
H41 C59 1_555 1_555
C60 N15 1_555 1_555
H42 C60 1_555 1_555
S1 O1 1_555 1_555
O2 S1 1_555 1_555
O3 S1 1_555 1_555
C61 S1 1_555 1_555
F1 C61 1_555 1_555
F2 C61 1_555 1_555
F3 C61 1_555 1_555
S2 O4 1_555 1_555
O5 S2 1_555 1_555
O6 S2 1_555 1_555
C62 S2 1_555 1_555
F4 C62 1_555 1_555
F5 C62 1_555 1_555
F6 C62 1_555 1_555
S3 O7 1_555 1_555
O8 S3 1_555 1_555
O9 S3 1_555 1_555
C63 S3 1_555 1_555
F7 C63 1_555 1_555
F8 C63 1_555 1_555
F9 C63 1_555 1_555
O13 C67 1_555 1_555
N19 C65 1_555 1_555
C65 H43 1_555 1_555
H44 C65 1_555 1_555
H45 C65 1_555 1_555
C66 N19 1_555 1_555
H46 C66 1_555 1_555
H47 C66 1_555 1_555
H48 C66 1_555 1_555
C67 N19 1_555 1_555
H49 C67 1_555 1_555
O14 C70 1_555 1_555
N20 C68 1_555 1_555
C68 H50 1_555 1_555
H51 C68 1_555 1_555
H52 C68 1_555 1_555
C69 N20 1_555 1_555
H53 C69 1_555 1_555
H54 C69 1_555 1_555
H55 C69 1_555 1_555
C70 N20 1_555 1_555
H56 C70 1_555 1_555
O15 C73 1_555 1_555
N21 C71 1_555 1_555
C71 H57 1_555 1_555
H58 C71 1_555 1_555
H59 C71 1_555 1_555
C72 N21 1_555 1_555
H60 C72 1_555 1_555
H61 C72 1_555 1_555
H62 C72 1_555 1_555
C73 N21 1_555 1_555
H63 C73 1_555 1_555
O16 C76 1_555 1_555
N22 C74 1_555 1_555
C74 H64 1_555 1_555
H65 C74 1_555 1_555
H66 C74 1_555 1_555
C75 N22 1_555 1_555
H67 C75 1_555 1_555
H68 C75 1_555 1_555
H69 C75 1_555 1_555
C76 N22 1_555 1_555
H70 C76 1_555 1_555
Cd1B N3 1_555 1_555
Cd1B_2 N5 1_555 1_555
Cd1B_3 N12 1_555 1_555
Cd1B_4 N14 1_555 1_555
N3B Cd1 1_555 1_555
N5B Cd1 1_555 1_555
N12B Cd1 1_555 1_555
N14B Cd1 1_555 1_555
N9 C12 1_555 1_555
N18 C42 1_555 1_555
C2 C3 1_555 1_555
C8 C9 1_555 1_555
C17 C18 1_555 1_555
C20 C21 1_555 1_555
C26 C27 1_555 1_555
C29 C30 1_555 1_555
C32 C33 1_555 1_555
C38 C39 1_555 1_555
C47 C48 1_555 1_555
C50 C51 1_555 1_555
C56 C57 1_555 1_555
C59 C60 1_555 1_555

#END
