
#######################################################################
#
#                 Cambridge Crystallographic Data Centre
#                                CCDC 
#
#######################################################################
#
# If this CIF has been generated from an entry in the Cambridge 
# Structural Database, then it will include bibliographic, chemical, 
# crystal, experimental, refinement or atomic coordinate data resulting 
# from the CCDC's data processing and validation procedures.
#
#######################################################################

data_CIVTEH
_symmetry_cell_setting           monoclinic
_symmetry_space_group_name_H-M   'C 2/c'
_symmetry_Int_Tables_number      15
_space_group_name_Hall           '-C 2yn'
loop_
_symmetry_equiv_pos_site_id
_symmetry_equiv_pos_as_xyz
1 x,y,z
2 1/2+x,1/2+y,z
3 -x,y,1/2-z
4 1/2-x,1/2+y,1/2-z
5 -x,-y,-z
6 1/2-x,1/2-y,-z
7 x,-y,1/2+z
8 1/2+x,1/2-y,1/2+z
_cell_length_a                   12.2342(11)
_cell_length_b                   25.093(2)
_cell_length_c                   19.6064(18)
_cell_angle_alpha                90
_cell_angle_beta                 104.225(2)
_cell_angle_gamma                90
_cell_volume                     5834.47
loop_
_atom_site_label
_atom_site_type_symbol
_atom_site_fract_x
_atom_site_fract_y
_atom_site_fract_z
Cu1 Cu 0.58123(5) 0.72198(2) 0.96223(3)
O1 O 0.5877(3) 0.79103(12) 0.91576(17)
O2 O 0.7740(3) 0.79649(13) 0.94915(17)
C1 C 0.6807(4) 0.81517(18) 0.9218(2)
C2 C 0.6724(4) 0.87153(19) 0.8934(2)
C3 C 0.5676(5) 0.8969(2) 0.8710(3)
H1 H 0.5003 0.8783 0.8719
C4 C 0.5629(5) 0.9489(2) 0.8476(3)
H2 H 0.4917 0.9658 0.8316
C5 C 0.6602(4) 0.97683(19) 0.8470(3)
C6 C 0.7641(4) 0.9516(2) 0.8682(2)
H3 H 0.8313 0.9699 0.8664
C7 C 0.7690(4) 0.8990(2) 0.8924(3)
H4 H 0.8401 0.8821 0.9083
N1 N 0.6573(3) 1.14311(15) 0.79298(19)
C8 C 0.6567(4) 1.0342(2) 0.8261(3)
C9 C 0.7043(4) 1.05300(18) 0.7734(2)
C10 C 0.7034(4) 1.1074(2) 0.7585(2)
C11 C 0.6140(4) 1.12614(19) 0.8454(2)
C12 C 0.6084(4) 1.0719(2) 0.8610(2)
C13 C 0.5354(6) 1.0551(3) 0.9049(4)
N2 N 0.4836(6) 1.0459(4) 0.9443(4)
C15 C 0.7343(6) 1.0126(3) 0.7280(4)
N4 N 0.7618(7) 0.9817(3) 0.6933(4)
N6 N 0.8535(3) 1.18281(15) 0.60773(19)
C17 C 0.7571(4) 1.13162(19) 0.7043(2)
C18 C 0.8196(4) 1.1775(2) 0.7229(3)
H5 H 0.8306 1.1917 0.7690
C19 C 0.8667(5) 1.2029(2) 0.6736(3)
H6 H 0.9086 1.2348 0.6863
C20 C 0.7950(4) 1.13767(19) 0.5915(3)
H7 H 0.7857 1.1233 0.5456
C21 C 0.7479(5) 1.11112(19) 0.6384(3)
H8 H 0.7089 1.0785 0.6251
N7 N 0.4906(3) 1.23824(16) 0.9715(2)
C22 C 0.5734(4) 1.1677(2) 0.8873(2)
C23 C 0.4925(4) 1.2043(2) 0.8579(3)
H9 H 0.4630 1.2060 0.8084
C24 C 0.4548(4) 1.2389(2) 0.9028(2)
H10 H 0.3995 1.2646 0.8823
C25 C 0.5727(5) 1.2039(3) 0.9994(3)
H11 H 0.6024 1.2042 1.0489
C26 C 0.6164(5) 1.1683(3) 0.9601(3)
H12 H 0.6750 1.1446 0.9820
O3 O 0.5111(3) 0.65241(13) 0.98411(17)
O4 O 0.3552(4) 0.60978(18) 0.9384(3)
O5 O 0.3870(3) 0.68789(16) 0.8982(2)
N8 N 0.4147(4) 0.64998(18) 0.9390(2)
Cu1E Cu 0.91877(5) 0.77802(2) 1.03777(3)
Cu1C Cu 0.91877(5) 1.22198(2) 0.53777(3)
Cu1D Cu 0.41877(5) 1.27802(2) 1.03777(3)
O2E O 0.7260(3) 0.70351(13) 1.05085(17)
N6C N 0.6465(3) 0.68281(15) 0.89227(19)
N7D N 0.5094(3) 0.76176(16) 1.0285(2)
O6 O 1.2787(7) 0.8554(4) 0.8635(6)
O7 O 1.0911(7) 0.8093(4) 0.7661(6)
C28 C 1.2847(12) 0.8056(5) 0.8261(6)
H17 H 1.2665 0.7753 0.8537
H18 H 1.3622 0.8005 0.8204
C29 C 1.2026(7) 0.8069(7) 0.7547(4)
H19 H 1.2167 0.8385 0.7279
H20 H 1.2110 0.7745 0.7276
C30 C 1.0754(12) 0.8589(5) 0.8014(6)
H22 H 1.0870 0.8900 0.7729
C31 C 1.1649(8) 0.8583(9) 0.8731(7)
H23 H 1.1570 0.8911 0.8997
H24 H 1.1511 0.8273 0.9010
C27 C 0.4681(8) 0.4653(7) 0.5396(6)
H13 H 0.4250 0.4459 0.4983
H14 H 0.4905 0.4406 0.5794
H15 H 0.5356 0.4808 0.5291
O8 O 0.3992(11) 0.5071(5) 0.5573(7)
H16 H 0.3309 0.4984 0.5439
C14? C 0.9160(9) 0.5614(5) 0.5707(4)
N3? N 0.9460(12) 0.5527(7) 0.5213(5)
C16? C 0.7113(7) 0.5220(4) 0.7511(5)
N5? N 0.6497(9) 0.4977(5) 0.7734(7)
H21? H 0.9983 0.8608 0.8088
loop_
_geom_bond_atom_site_label_1
_geom_bond_atom_site_label_2
_geom_bond_site_symmetry_1
_geom_bond_site_symmetry_2
Cu1 O1 1_555 1_555
O1 C1 1_555 1_555
O2 C1 1_555 1_555
C1 C2 1_555 1_555
C2 C3 1_555 1_555
C3 H1 1_555 1_555
C4 C3 1_555 1_555
H2 C4 1_555 1_555
C5 C4 1_555 1_555
C6 C5 1_555 1_555
H3 C6 1_555 1_555
C7 C2 1_555 1_555
H4 C7 1_555 1_555
N1 C10 1_555 1_555
C8 C5 1_555 1_555
C9 C8 1_555 1_555
C10 C9 1_555 1_555
C11 N1 1_555 1_555
C12 C8 1_555 1_555
C13 C12 1_555 1_555
N2 C13 1_555 1_555
C15 C9 1_555 1_555
N4 C15 1_555 1_555
N6 C19 1_555 1_555
C17 C10 1_555 1_555
C18 C17 1_555 1_555
H5 C18 1_555 1_555
C19 C18 1_555 1_555
H6 C19 1_555 1_555
C20 N6 1_555 1_555
H7 C20 1_555 1_555
C21 C17 1_555 1_555
H8 C21 1_555 1_555
N7 C24 1_555 1_555
C22 C11 1_555 1_555
C23 C22 1_555 1_555
H9 C23 1_555 1_555
C24 C23 1_555 1_555
H10 C24 1_555 1_555
C25 N7 1_555 1_555
H11 C25 1_555 1_555
C26 C22 1_555 1_555
H12 C26 1_555 1_555
O3 Cu1 1_555 1_555
O4 N8 1_555 1_555
O5 Cu1 1_555 1_555
N8 O3 1_555 1_555
O6 C28 1_555 1_555
O7 C29 1_555 1_555
C27 H13 1_555 1_555
H14 C27 1_555 1_555
H15 C27 1_555 1_555
O8 C27 1_555 1_555
H16 O8 1_555 1_555
C28 H17 1_555 1_555
H18 C28 1_555 1_555
C29 C28 1_555 1_555
H19 C29 1_555 1_555
H20 C29 1_555 1_555
C30 O7 1_555 1_555
H22 C30 1_555 1_555
C31 O6 1_555 1_555
H23 C31 1_555 1_555
H24 C31 1_555 1_555
Cu1E O2 1_555 1_555
Cu1C N6 1_555 1_555
Cu1D N7 1_555 1_555
O2E Cu1 1_555 1_555
N6C Cu1 1_555 1_555
N7D Cu1 1_555 1_555
C6 C7 1_555 1_555
C11 C12 1_555 1_555
C20 C21 1_555 1_555
C25 C26 1_555 1_555
O5 N8 1_555 1_555
C30 C31 1_555 1_555

#END
