
#######################################################################
#
#                 Cambridge Crystallographic Data Centre
#                                CCDC 
#
#######################################################################
#
# If this CIF has been generated from an entry in the Cambridge 
# Structural Database, then it will include bibliographic, chemical, 
# crystal, experimental, refinement or atomic coordinate data resulting 
# from the CCDC's data processing and validation procedures.
#
#######################################################################

data_CIVVUZ
_symmetry_cell_setting           triclinic
_symmetry_space_group_name_H-M   'P -1'
_symmetry_Int_Tables_number      2
_space_group_name_Hall           '-P 1'
loop_
_symmetry_equiv_pos_site_id
_symmetry_equiv_pos_as_xyz
1 x,y,z
2 -x,-y,-z
_cell_length_a                   7.499(4)
_cell_length_b                   9.246(5)
_cell_length_c                   9.374(5)
_cell_angle_alpha                112.158(2)
_cell_angle_beta                 107.435(4)
_cell_angle_gamma                100.623(4)
_cell_volume                     540.801
loop_
_atom_site_label
_atom_site_type_symbol
_atom_site_fract_x
_atom_site_fract_y
_atom_site_fract_z
Mn1 Mn 0.10955(5) 0.74916(4) -0.22562(4)
Mn2 Mn 0.0000 0.5000 -1.0000
O1 O 0.1945(3) 1.0119(2) -0.15382(19)
O2 O 0.3279(3) 1.2099(2) -0.2072(2)
O3 O 0.3315(3) 1.0092(2) -0.8018(2)
O4 O 0.1409(3) 0.74630(19) -0.98359(19)
O5 O -0.0471(3) 0.50871(19) -0.6605(2)
N1 N 0.1121(3) 0.7760(2) -0.4586(2)
N2 N 0.1016(3) 0.6860(2) -0.7361(2)
C1 C 0.2455(3) 1.0623(3) -0.2469(3)
C2 C 0.2011(3) 0.9319(2) -0.4241(2)
C3 C 0.2458(3) 0.9732(2) -0.5392(3)
H1 H 0.3093 1.0847 -0.5121
C4 C 0.1929(3) 0.8431(2) -0.6963(2)
C5 C 0.2266(3) 0.8706(3) -0.8373(3)
C6 C 0.0556(3) 0.6531(3) -0.6190(2)
O6 O 0.4266(3) 0.7697(2) -0.1442(2)
H2 H 0.5039 0.8463 -0.1484
H3 H 0.4756 0.7740 -0.0478
O7 O -0.2041(3) 0.7163(3) -0.2850(3)
H4 H -0.2264 0.8052 -0.2369
H5 H -0.2421 0.6843 -0.3903
O8 O 0.2836(3) 0.4605(3) -0.9562(3)
H6 H 0.3879 0.5004 -0.8662
H7 H 0.2861 0.3783 -1.0360
Mn1A Mn -0.10955(5) 0.25084(4) -1.77438(4)
Mn1_2 Mn 0.10955(5) 0.74916(4) -1.22562(4)
Mn1A_2 Mn -0.10955(5) 0.25084(4) -0.77438(4)
O1A O -0.1945(3) -0.0119(2) -1.84618(19)
O2A O -0.3279(3) -0.2099(2) -1.7928(2)
O3A O -0.3315(3) -0.0092(2) -1.1982(2)
O4A O -0.1409(3) 0.25370(19) -1.01641(19)
O4_2 O 0.1409(3) 0.74630(19) 0.01641(19)
O4A_2 O -0.1409(3) 0.25370(19) -2.01641(19)
O5A O 0.0471(3) 0.49129(19) -1.3395(2)
O5A_2 O 0.0471(3) 0.49129(19) -0.3395(2)
O5_2 O -0.0471(3) 0.50871(19) -1.6605(2)
N1A N -0.1121(3) 0.2240(2) -1.5414(2)
N2A N -0.1016(3) 0.3140(2) -1.2639(2)
C1A C -0.2455(3) -0.0623(3) -1.7531(3)
C2A C -0.2011(3) 0.0681(2) -1.5759(2)
C3A C -0.2458(3) 0.0268(2) -1.4608(3)
H1A H -0.3093 -0.0847 -1.4879
C4A C -0.1929(3) 0.1569(2) -1.3037(2)
C5A C -0.2266(3) 0.1294(3) -1.1627(3)
C6A C -0.0556(3) 0.3469(3) -1.3810(2)
O6A O -0.4266(3) 0.2303(2) -1.8558(2)
H2A H -0.5039 0.1537 -1.8516
H3A H -0.4756 0.2260 -1.9522
O7A O 0.2041(3) 0.2837(3) -1.7150(3)
H4A H 0.2264 0.1948 -1.7631
H5A H 0.2421 0.3157 -1.6097
O8A O -0.2836(3) 0.5395(3) -1.0438(3)
H6A H -0.3879 0.4996 -1.1338
H7A H -0.2861 0.6217 -0.9640
O9 O 0.4072(4) 1.4207(3) -0.3689(4)
H8 H 0.3286 1.4548 -0.3261
H9 H 0.4895 1.4913 -0.3764
loop_
_geom_bond_atom_site_label_1
_geom_bond_atom_site_label_2
_geom_bond_site_symmetry_1
_geom_bond_site_symmetry_2
Mn1 O1 1_555 1_555
Mn2 O4 1_555 1_555
O1 C1 1_555 1_555
O2 C1 1_555 1_555
O3 C5 1_555 1_555
O4 C5 1_555 1_555
O5 C6 1_555 1_555
N1 Mn1 1_555 1_555
N2 Mn2 1_555 1_555
C1 C2 1_555 1_555
C2 N1 1_555 1_555
C3 C2 1_555 1_555
H1 C3 1_555 1_555
C4 N2 1_555 1_555
C5 C4 1_555 1_555
C6 N1 1_555 1_555
O6 Mn1 1_555 1_555
H2 O6 1_555 1_555
H3 O6 1_555 1_555
O7 Mn1 1_555 1_555
H4 O7 1_555 1_555
H5 O7 1_555 1_555
O8 Mn2 1_555 1_555
H6 O8 1_555 1_555
H7 O8 1_555 1_555
O9 H8 1_555 1_555
H9 O9 1_555 1_555
Mn1A O1A 1_555 1_555
Mn1_2 O4 1_555 1_555
Mn1A_2 O5 1_555 1_555
O1A C1A 1_555 1_555
O2A C1A 1_555 1_555
O3A C5A 1_555 1_555
O4A Mn2 1_555 1_555
O4_2 Mn1 1_555 1_555
O4A_2 Mn1A 1_555 1_555
O5A Mn1_2 1_555 1_555
O5A_2 Mn1 1_555 1_555
O5_2 Mn1A 1_555 1_555
N1A Mn1A 1_555 1_555
N2A Mn2 1_555 1_555
C1A C2A 1_555 1_555
C2A N1A 1_555 1_555
C3A C2A 1_555 1_555
H1A C3A 1_555 1_555
C4A N2A 1_555 1_555
C5A O4A 1_555 1_555
C6A O5A 1_555 1_555
O6A Mn1A 1_555 1_555
H2A O6A 1_555 1_555
H3A O6A 1_555 1_555
O7A Mn1A 1_555 1_555
H4A O7A 1_555 1_555
H5A O7A 1_555 1_555
O8A Mn2 1_555 1_555
H6A O8A 1_555 1_555
H7A O8A 1_555 1_555
N2 C6 1_555 1_555
C3 C4 1_555 1_555
Mn1A_2 O4A 1_555 1_555
N1A C6A 1_555 1_555
N2A C6A 1_555 1_555
C3A C4A 1_555 1_555
C4A C5A 1_555 1_555

#END
