
#######################################################################
#
#                 Cambridge Crystallographic Data Centre
#                                CCDC 
#
#######################################################################
#
# If this CIF has been generated from an entry in the Cambridge 
# Structural Database, then it will include bibliographic, chemical, 
# crystal, experimental, refinement or atomic coordinate data resulting 
# from the CCDC's data processing and validation procedures.
#
#######################################################################

data_CIVVOT
_symmetry_cell_setting           monoclinic
_symmetry_space_group_name_H-M   'P 21/c'
_symmetry_Int_Tables_number      14
_space_group_name_Hall           '-P 2ybc'
loop_
_symmetry_equiv_pos_site_id
_symmetry_equiv_pos_as_xyz
1 x,y,z
2 -x,1/2+y,1/2-z
3 -x,-y,-z
4 x,1/2-y,1/2+z
_cell_length_a                   7.604(2)
_cell_length_b                   33.436(7)
_cell_length_c                   15.726(3)
_cell_angle_alpha                90
_cell_angle_beta                 91.95(3)
_cell_angle_gamma                90
_cell_volume                     3995.98
loop_
_atom_site_label
_atom_site_type_symbol
_atom_site_fract_x
_atom_site_fract_y
_atom_site_fract_z
Mn1 Mn 0.15697(7) 0.356556(15) 0.80274(3)
Mn2 Mn 0.22982(7) 0.437485(15) 0.68798(3)
Mn3 Mn 0.37388(7) 0.350060(15) 0.62454(4)
Br1 Br -0.01299(6) 0.162986(13) 1.01983(3)
Br2 Br -0.16837(7) 0.625043(13) 0.84758(4)
Br3 Br 0.66108(9) 0.334635(19) 0.17727(3)
C1 C 0.0519(5) 0.29398(11) 0.9215(3)
C2 C -0.0215(6) 0.28661(12) 0.9999(3)
H1 H -0.0575 0.3081 1.0327
C3 C -0.0417(5) 0.24841(12) 1.0299(3)
H2 H -0.0912 0.2440 1.0824
C4 C 0.0122(5) 0.21659(11) 0.9814(3)
C5 C 0.0870(5) 0.22291(10) 0.9044(3)
H3 H 0.1247 0.2011 0.8732
C6 C 0.1079(5) 0.26142(10) 0.8720(2)
C7 C 0.1881(5) 0.26711(10) 0.7907(2)
C8 C 0.2478(6) 0.23938(12) 0.7307(3)
H4 H 0.2419 0.2116 0.7341
C9 C 0.3154(5) 0.26116(11) 0.6672(3)
H5 H 0.3658 0.2504 0.6191
C10 C 0.1262(5) 0.52047(10) 0.7161(2)
C11 C 0.1147(6) 0.55809(12) 0.6800(3)
H6 H 0.1668 0.5625 0.6282
C12 C 0.0283(6) 0.58966(11) 0.7182(3)
H7 H 0.0227 0.6148 0.6929
C13 C -0.0478(5) 0.58253(11) 0.7938(3)
C14 C -0.0399(5) 0.54558(10) 0.8319(3)
H8 H -0.0929 0.5416 0.8837
C15 C 0.0466(5) 0.51408(10) 0.7939(2)
C16 C 0.0503(5) 0.47513(10) 0.8360(2)
C17 C -0.0219(6) 0.46213(12) 0.9116(3)
H9 H -0.0827 0.4776 0.9500
C18 C 0.0143(6) 0.42257(12) 0.9178(3)
H10 H -0.0171 0.4062 0.9626
C19 C 0.5099(5) 0.32429(11) 0.4615(2)
C20 C 0.5741(5) 0.29187(11) 0.4170(3)
H11 H 0.5845 0.2672 0.4439
C21 C 0.6228(5) 0.29566(13) 0.3336(3)
H12 H 0.6676 0.2738 0.3047
C22 C 0.6046(5) 0.33134(12) 0.2945(3)
C23 C 0.5404(5) 0.36416(12) 0.3343(2)
H13 H 0.5280 0.3882 0.3048
C24 C 0.4930(4) 0.36190(10) 0.4195(2)
C25 C 0.4290(5) 0.39701(11) 0.4642(2)
C26 C 0.4106(6) 0.43640(12) 0.4374(3)
H14 H 0.4354 0.4468 0.3843
C27 C 0.3482(6) 0.45678(12) 0.5057(3)
H15 H 0.3245 0.4841 0.5064
C28 C -0.2504(4) 0.34740(10) 0.7177(2)
C29 C -0.2599(7) 0.30384(14) 0.7329(4)
H16 H -0.1487 0.2945 0.7558
H17 H -0.2870 0.2904 0.6801
H18 H -0.3501 0.2984 0.7725
C30 C 0.5062(9) 0.3369(2) 0.9324(4)
H19 H 0.6208 0.3461 0.9511
H20 H 0.5160 0.3109 0.9071
H21 H 0.4314 0.3353 0.9803
C31 C -0.1343(8) 0.44180(18) 0.5656(4)
H22 H -0.2517 0.4312 0.5635
H23 H -0.0747 0.4339 0.5155
H24 H -0.1392 0.4705 0.5684
C32 C 0.6064(9) 0.47337(19) 0.7536(6)
H25 H 0.7183 0.4666 0.7797
H26 H 0.5477 0.4923 0.7887
H27 H 0.6238 0.4849 0.6986
N1 N 0.2219(4) 0.30426(8) 0.75952(19)
N2 N 0.2994(4) 0.30087(8) 0.6833(2)
N3 N 0.1234(4) 0.44302(8) 0.79898(19)
N4 N 0.1020(4) 0.41043(9) 0.8499(2)
N5 N 0.3778(4) 0.39496(8) 0.54539(19)
N6 N 0.3259(4) 0.43201(8) 0.57151(19)
O1 O 0.0660(4) 0.33221(7) 0.89775(17)
O2 O 0.2145(4) 0.49247(7) 0.67373(17)
O3 O 0.4687(4) 0.31803(7) 0.54178(17)
O4 O 0.2498(3) 0.38119(6) 0.70464(14)
O5 O -0.1119(4) 0.36414(9) 0.7337(2)
O6 O -0.3807(4) 0.36532(8) 0.6891(2)
O7 O 0.4350(4) 0.36322(10) 0.8736(2)
H31 H 0.5093 0.3644 0.8344
O8 O -0.0477(4) 0.42785(8) 0.6340(2)
O9 O 0.5083(4) 0.44052(9) 0.7449(2)
H32 H 0.5797 0.4240 0.7217
H33 H -0.1057 0.4101 0.6537
Mn3_2 Mn -0.62612(7) 0.350060(15) 0.62454(4)
O6_2 O 0.6193(4) 0.36532(8) 0.6891(2)
C33 C 0.4990(18) 0.4390(3) 0.9848(11)
H28 H 0.4287 0.4158 0.9959
H29 H 0.5923 0.4318 0.9482
H30 H 0.4268 0.4592 0.9577
O10 O 0.5616(14) 0.4520(5) 1.0518(9)
H34 H 0.5491 0.4462 1.1039
loop_
_geom_bond_atom_site_label_1
_geom_bond_atom_site_label_2
_geom_bond_site_symmetry_1
_geom_bond_site_symmetry_2
Mn1 N1 1_555 1_555
Mn2 N3 1_555 1_555
Mn3 N2 1_555 1_555
Br1 C4 1_555 1_555
Br2 C13 1_555 1_555
Br3 C22 1_555 1_555
C1 C2 1_555 1_555
C2 H1 1_555 1_555
C3 C2 1_555 1_555
H2 C3 1_555 1_555
C4 C3 1_555 1_555
C5 C4 1_555 1_555
H3 C5 1_555 1_555
C6 C1 1_555 1_555
C7 C6 1_555 1_555
C8 C7 1_555 1_555
H4 C8 1_555 1_555
C9 C8 1_555 1_555
H5 C9 1_555 1_555
C10 C11 1_555 1_555
C11 H6 1_555 1_555
C12 C11 1_555 1_555
H7 C12 1_555 1_555
C13 C12 1_555 1_555
C14 C13 1_555 1_555
H8 C14 1_555 1_555
C15 C10 1_555 1_555
C16 C15 1_555 1_555
C17 C16 1_555 1_555
H9 C17 1_555 1_555
C18 C17 1_555 1_555
H10 C18 1_555 1_555
C19 C20 1_555 1_555
C20 H11 1_555 1_555
C21 C20 1_555 1_555
H12 C21 1_555 1_555
C22 C21 1_555 1_555
C23 C22 1_555 1_555
H13 C23 1_555 1_555
C24 C19 1_555 1_555
C25 C24 1_555 1_555
C26 C25 1_555 1_555
H14 C26 1_555 1_555
C27 C26 1_555 1_555
H15 C27 1_555 1_555
C28 C29 1_555 1_555
C29 H16 1_555 1_555
H17 C29 1_555 1_555
H18 C29 1_555 1_555
C30 H19 1_555 1_555
H20 C30 1_555 1_555
H21 C30 1_555 1_555
C31 H22 1_555 1_555
H23 C31 1_555 1_555
H24 C31 1_555 1_555
C32 H25 1_555 1_555
H26 C32 1_555 1_555
H27 C32 1_555 1_555
C33 H28 1_555 1_555
H29 C33 1_555 1_555
H30 C33 1_555 1_555
N1 C7 1_555 1_555
N2 C9 1_555 1_555
N3 C16 1_555 1_555
N4 Mn1 1_555 1_555
N5 Mn3 1_555 1_555
N6 Mn2 1_555 1_555
O1 Mn1 1_555 1_555
O2 Mn2 1_555 1_555
O3 Mn3 1_555 1_555
O4 Mn1 1_555 1_555
O5 Mn1 1_555 1_555
O6 C28 1_555 1_555
O7 Mn1 1_555 1_555
H31 O7 1_555 1_555
O8 Mn2 1_555 1_555
O9 Mn2 1_555 1_555
O10 C33 1_555 1_555
H32 O9 1_555 1_555
H33 O8 1_555 1_555
H34 O10 1_555 1_555
Mn3_2 O6 1_555 1_555
O6_2 Mn3 1_555 1_555
Mn2 O4 1_555 1_555
Mn3 O4 1_555 1_555
C1 O1 1_555 1_555
C5 C6 1_555 1_555
C10 O2 1_555 1_555
C14 C15 1_555 1_555
C18 N4 1_555 1_555
C19 O3 1_555 1_555
C23 C24 1_555 1_555
C25 N5 1_555 1_555
C27 N6 1_555 1_555
C28 O5 1_555 1_555
C30 O7 1_555 1_555
C31 O8 1_555 1_555
C32 O9 1_555 1_555
N1 N2 1_555 1_555
N3 N4 1_555 1_555
N5 N6 1_555 1_555

#END
