
#######################################################################
#
#                 Cambridge Crystallographic Data Centre
#                                CCDC 
#
#######################################################################
#
# If this CIF has been generated from an entry in the Cambridge 
# Structural Database, then it will include bibliographic, chemical, 
# crystal, experimental, refinement or atomic coordinate data resulting 
# from the CCDC's data processing and validation procedures.
#
#######################################################################

data_CIVVEJ
_symmetry_cell_setting           monoclinic
_symmetry_space_group_name_H-M   'P 21/c'
_symmetry_Int_Tables_number      14
_space_group_name_Hall           '-P 2ybc'
loop_
_symmetry_equiv_pos_site_id
_symmetry_equiv_pos_as_xyz
1 x,y,z
2 -x,1/2+y,1/2-z
3 -x,-y,-z
4 x,1/2-y,1/2+z
_cell_length_a                   19.1576(12)
_cell_length_b                   8.2244(5)
_cell_length_c                   25.5724(17)
_cell_angle_alpha                90
_cell_angle_beta                 98.152(3)
_cell_angle_gamma                90
_cell_volume                     3988.47
loop_
_atom_site_label
_atom_site_type_symbol
_atom_site_fract_x
_atom_site_fract_y
_atom_site_fract_z
Br1 Br 0.26045(3) 0.70574(9) 0.40879(3)
Br2 Br 0.86688(4) -0.41004(9) 0.68720(3)
Br3 Br 0.93561(4) 0.36429(9) 0.13029(3)
Mn1 Mn 0.61874(5) 0.38220(12) 0.38024(4)
Mn2 Mn 0.68175(5) 0.09490(11) 0.46540(4)
Mn3 Mn 0.78167(5) 0.24129(12) 0.38040(4)
O1 O 0.5407(2) 0.4957(6) 0.34640(19)
O2 O 0.6709(2) -0.0392(5) 0.52163(18)
O3 O 0.8655(2) 0.2399(6) 0.35083(18)
O4 O 0.6962(2) 0.2512(5) 0.41248(17)
N1 N 0.5640(3) 0.3182(6) 0.4358(2)
N2 N 0.5896(3) 0.2019(6) 0.4727(2)
N3 N 0.7830(3) 0.0391(6) 0.4746(2)
N4 N 0.8248(3) 0.0950(6) 0.4386(2)
N5 N 0.7390(3) 0.3781(6) 0.3215(2)
N6 N 0.6737(3) 0.4460(7) 0.3221(2)
C1 C 0.4803(3) 0.5429(8) 0.3634(3)
C2 C 0.4566(3) 0.4810(8) 0.4098(3)
C3 C 0.3919(3) 0.5328(8) 0.4231(3)
H1 H 0.3760 0.4922 0.4541
C4 C 0.3506(3) 0.6431(8) 0.3913(3)
C5 C 0.3729(4) 0.7042(9) 0.3457(3)
H2 H 0.3443 0.7791 0.3240
C6 C 0.4376(4) 0.6546(8) 0.3323(3)
H3 H 0.4530 0.6975 0.3014
C7 C 0.4984(3) 0.3592(8) 0.4436(3)
C8 C 0.4808(3) 0.2711(8) 0.4874(3)
H4 H 0.4383 0.2762 0.5025
C9 C 0.5398(3) 0.1753(8) 0.5034(3)
H5 H 0.5441 0.1012 0.5321
C10 C 0.7178(3) -0.1186(7) 0.5583(3)
C11 C 0.7905(3) -0.1308(8) 0.5543(3)
C12 C 0.8340(4) -0.2167(8) 0.5940(3)
H6 H 0.8832 -0.2235 0.5924
C13 C 0.8068(4) -0.2913(8) 0.6350(3)
C14 C 0.7347(3) -0.2814(8) 0.6385(3)
H7 H 0.7159 -0.3355 0.6662
C15 C 0.6906(3) -0.1917(8) 0.6011(3)
H8 H 0.6421 -0.1797 0.6044
C16 C 0.8221(3) -0.0543(8) 0.5111(3)
C17 C 0.8910(4) -0.0610(8) 0.4981(3)
H9 H 0.9301 -0.1181 0.5165
C18 C 0.8902(3) 0.0323(8) 0.4530(3)
H10 H 0.9295 0.0498 0.4349
C19 C 0.8784(3) 0.2719(8) 0.3016(3)
C20 C 0.9428(3) 0.2183(8) 0.2873(3)
H11 H 0.9748 0.1608 0.3125
C21 C 0.9612(4) 0.2472(8) 0.2372(3)
H12 H 1.0046 0.2084 0.2281
C22 C 0.9145(3) 0.3341(8) 0.2009(3)
C23 C 0.8510(3) 0.3908(8) 0.2136(3)
H13 H 0.8202 0.4500 0.1881
C24 C 0.8316(3) 0.3619(8) 0.2637(3)
C25 C 0.7636(3) 0.4206(8) 0.2761(3)
C26 C 0.7129(4) 0.5214(8) 0.2473(3)
H14 H 0.7154 0.5711 0.2141
C27 C 0.6583(4) 0.5333(8) 0.2774(3)
H15 H 0.6163 0.5942 0.2679
N7 N 0.6561(3) 0.6246(7) 0.4272(2)
N8 N 0.6489(3) 0.7637(7) 0.4172(2)
N9 N 0.6418(3) 0.9051(7) 0.4071(2)
O5 O 0.5788(3) 0.1464(6) 0.3337(2)
H16 H 0.605(4) 0.075(11) 0.345(3)
C28 C 0.5062(5) 0.1093(13) 0.3215(4)
H17 H 0.4883 0.0716 0.3535
H18 H 0.4997 0.0236 0.2947
H19 H 0.4803 0.2068 0.3080
O6 O 0.8254(3) 0.4629(6) 0.4288(2)
H20 H 0.8696(10) 0.462(10) 0.440(3)
C29 C 0.8140(5) 0.4831(10) 0.4823(3)
H21 H 0.7633 0.4935 0.4837
H22 H 0.8383 0.5814 0.4969
H23 H 0.8324 0.3884 0.5030
O7 O 0.7363(3) 0.0146(6) 0.33422(19)
H24 H 0.7667 -0.0602 0.3420
C30 C 0.7163(4) 0.0047(9) 0.2773(3)
H25 H 0.6802 0.0869 0.2659
H26 H 0.6972 -0.1037 0.2679
H27 H 0.7577 0.0242 0.2597
Mn2_2 Mn 0.68175(5) 1.09490(11) 0.46540(4)
N9_2 N 0.6418(3) -0.0949(7) 0.4071(2)
O8 O 0.1924(5) 0.2390(7) 0.1354(3)
H28 H 0.1927 0.1476 0.1208
C31 C 0.1339(5) 0.2497(11) 0.1628(4)
H29 H 0.1002 0.1631 0.1508
H30 H 0.1110 0.3557 0.1559
H31 H 0.1496 0.2376 0.2008
O10 O -0.0195(6) 0.3799(15) 0.4546(5)
C33 C 0.0054(13) 0.504(2) 0.4215(9)
H35 H -0.0108 0.6112 0.4318
H36 H -0.0132 0.4833 0.3845
H37 H 0.0571 0.5029 0.4260
C32? C 0.0084(14) 0.446(3) 0.4172(11)
H32? H 0.0012 0.4752 0.3797
H33? H -0.0011 0.3295 0.4209
H34? H 0.0572 0.4692 0.4324
O9? O -0.0393(6) 0.540(2) 0.4448(6)
loop_
_geom_bond_atom_site_label_1
_geom_bond_atom_site_label_2
_geom_bond_site_symmetry_1
_geom_bond_site_symmetry_2
Br1 C4 1_555 1_555
Br2 C13 1_555 1_555
Br3 C22 1_555 1_555
Mn1 O1 1_555 1_555
Mn2 O2 1_555 1_555
Mn3 O3 1_555 1_555
O1 C1 1_555 1_555
O2 C10 1_555 1_555
O3 C19 1_555 1_555
O4 Mn1 1_555 1_555
N1 Mn1 1_555 1_555
N2 Mn2 1_555 1_555
N3 Mn2 1_555 1_555
N4 Mn3 1_555 1_555
N5 Mn3 1_555 1_555
N6 Mn1 1_555 1_555
C1 C2 1_555 1_555
C2 C3 1_555 1_555
C3 H1 1_555 1_555
C4 C3 1_555 1_555
C5 C4 1_555 1_555
H2 C5 1_555 1_555
C6 C1 1_555 1_555
H3 C6 1_555 1_555
C7 N1 1_555 1_555
C8 C7 1_555 1_555
H4 C8 1_555 1_555
C9 N2 1_555 1_555
H5 C9 1_555 1_555
C10 C11 1_555 1_555
C11 C12 1_555 1_555
C12 H6 1_555 1_555
C13 C12 1_555 1_555
C14 C13 1_555 1_555
H7 C14 1_555 1_555
C15 C10 1_555 1_555
H8 C15 1_555 1_555
C16 N3 1_555 1_555
C17 C16 1_555 1_555
H9 C17 1_555 1_555
C18 N4 1_555 1_555
H10 C18 1_555 1_555
C19 C20 1_555 1_555
C20 H11 1_555 1_555
C21 C20 1_555 1_555
H12 C21 1_555 1_555
C22 C21 1_555 1_555
C23 C22 1_555 1_555
H13 C23 1_555 1_555
C24 C19 1_555 1_555
C25 N5 1_555 1_555
C26 C25 1_555 1_555
H14 C26 1_555 1_555
C27 N6 1_555 1_555
H15 C27 1_555 1_555
N7 Mn1 1_555 1_555
N8 N7 1_555 1_555
N9 N8 1_555 1_555
O5 Mn1 1_555 1_555
H16 O5 1_555 1_555
C28 O5 1_555 1_555
H17 C28 1_555 1_555
H18 C28 1_555 1_555
H19 C28 1_555 1_555
O6 Mn3 1_555 1_555
H20 O6 1_555 1_555
C29 O6 1_555 1_555
H21 C29 1_555 1_555
H22 C29 1_555 1_555
H23 C29 1_555 1_555
O7 Mn3 1_555 1_555
H24 O7 1_555 1_555
C30 O7 1_555 1_555
H25 C30 1_555 1_555
H26 C30 1_555 1_555
H27 C30 1_555 1_555
O8 H28 1_555 1_555
C31 O8 1_555 1_555
H29 C31 1_555 1_555
H30 C31 1_555 1_555
H31 C31 1_555 1_555
O10 C33 1_555 1_555
C33 H35 1_555 1_555
H36 C33 1_555 1_555
H37 C33 1_555 1_555
Mn2_2 N9 1_555 1_555
N9_2 Mn2 1_555 1_555
Mn2 O4 1_555 1_555
Mn3 O4 1_555 1_555
N1 N2 1_555 1_555
N3 N4 1_555 1_555
N5 N6 1_555 1_555
C2 C7 1_555 1_555
C5 C6 1_555 1_555
C8 C9 1_555 1_555
C11 C16 1_555 1_555
C14 C15 1_555 1_555
C17 C18 1_555 1_555
C23 C24 1_555 1_555
C24 C25 1_555 1_555
C26 C27 1_555 1_555

#END
