
#######################################################################
#
#                 Cambridge Crystallographic Data Centre
#                                CCDC 
#
#######################################################################
#
# If this CIF has been generated from an entry in the Cambridge 
# Structural Database, then it will include bibliographic, chemical, 
# crystal, experimental, refinement or atomic coordinate data resulting 
# from the CCDC's data processing and validation procedures.
#
#######################################################################

data_CIVWAG
_symmetry_cell_setting           triclinic
_symmetry_space_group_name_H-M   'P -1'
_symmetry_Int_Tables_number      2
_space_group_name_Hall           '-P 1'
loop_
_symmetry_equiv_pos_site_id
_symmetry_equiv_pos_as_xyz
1 x,y,z
2 -x,-y,-z
_cell_length_a                   7.3879(19)
_cell_length_b                   9.073(2)
_cell_length_c                   9.1324(18)
_cell_angle_alpha                112.463(5)
_cell_angle_beta                 106.946(6)
_cell_angle_gamma                99.518(5)
_cell_volume                     513.943
loop_
_atom_site_label
_atom_site_type_symbol
_atom_site_fract_x
_atom_site_fract_y
_atom_site_fract_z
Co1 Co 0.11529(6) 0.24776(4) -0.22632(4)
Co2 Co 0.0000 0.0000 -1.0000
O1 O 0.1884(3) 0.5061(3) -0.1439(3)
O2 O 0.3236(4) 0.7060(3) -0.1990(3)
O3 O 0.3325(4) 0.4969(3) -0.8069(3)
O4 O 0.1404(3) 0.2323(3) -0.9923(2)
O5 O -0.0706(3) 0.0029(2) -0.6606(3)
N1 N 0.1034(3) 0.2696(3) -0.4552(3)
N2 N 0.0911(3) 0.1750(3) -0.7405(3)
C1 C 0.2414(4) 0.5579(3) -0.2397(3)
C2 C 0.1971(4) 0.4249(3) -0.4205(3)
C3 C 0.2438(4) 0.4647(3) -0.5389(3)
H1 H 0.3097 0.5764 -0.5121
C4 C 0.1887(4) 0.3313(3) -0.6997(3)
C5 C 0.2263(4) 0.3581(3) -0.8435(3)
C6 C 0.0399(4) 0.1440(3) -0.6205(3)
O6 O 0.4227(3) 0.2713(3) -0.1521(3)
H2 H 0.4665 0.2633 -0.0647
H3 H 0.4954 0.3502 -0.1487
O7 O -0.1831(4) 0.2238(3) -0.2696(4)
H4 H -0.1998 0.3139 -0.2535
H5 H -0.2546 0.1848 -0.2323
O8 O 0.2693(4) -0.0472(3) -0.9481(3)
H6 H 0.2895 -0.1254 -1.0145
H7 H 0.3544 -0.0061 -0.8523
Co1A Co -0.11529(6) -0.24776(4) -1.77368(4)
Co1_2 Co 0.11529(6) 0.24776(4) -1.22632(4)
Co1A_2 Co -0.11529(6) -0.24776(4) -0.77368(4)
O1A O -0.1884(3) -0.5061(3) -1.8561(3)
O2A O -0.3236(4) -0.7060(3) -1.8010(3)
O3A O -0.3325(4) -0.4969(3) -1.1931(3)
O4A O -0.1404(3) -0.2323(3) -1.0077(2)
O4_2 O 0.1404(3) 0.2323(3) 0.0077(2)
O4A_2 O -0.1404(3) -0.2323(3) -2.0077(2)
O5A O 0.0706(3) -0.0029(2) -1.3394(3)
O5A_2 O 0.0706(3) -0.0029(2) -0.3394(3)
O5_2 O -0.0706(3) 0.0029(2) -1.6606(3)
N1A N -0.1034(3) -0.2696(3) -1.5448(3)
N2A N -0.0911(3) -0.1750(3) -1.2595(3)
C1A C -0.2414(4) -0.5579(3) -1.7603(3)
C2A C -0.1971(4) -0.4249(3) -1.5795(3)
C3A C -0.2438(4) -0.4647(3) -1.4611(3)
H1A H -0.3097 -0.5764 -1.4879
C4A C -0.1887(4) -0.3313(3) -1.3003(3)
C5A C -0.2263(4) -0.3581(3) -1.1565(3)
C6A C -0.0399(4) -0.1440(3) -1.3795(3)
O6A O -0.4227(3) -0.2713(3) -1.8479(3)
H2A H -0.4665 -0.2633 -1.9353
H3A H -0.4954 -0.3502 -1.8513
O7A O 0.1831(4) -0.2238(3) -1.7304(4)
H4A H 0.1998 -0.3139 -1.7465
H5A H 0.2546 -0.1848 -1.7677
O8A O -0.2693(4) 0.0472(3) -1.0519(3)
H6A H -0.2895 0.1254 -0.9855
H7A H -0.3544 0.0061 -1.1477
O9 O 0.4218(5) 0.9105(5) -0.3683(5)
H8 H 0.4578 0.9273 -0.4382
H9 H 0.3592 0.9728 -0.3340
loop_
_geom_bond_atom_site_label_1
_geom_bond_atom_site_label_2
_geom_bond_site_symmetry_1
_geom_bond_site_symmetry_2
Co1 O1 1_555 1_555
Co2 O4 1_555 1_555
O1 C1 1_555 1_555
O2 C1 1_555 1_555
O3 C5 1_555 1_555
O4 C5 1_555 1_555
O5 C6 1_555 1_555
N1 Co1 1_555 1_555
N2 Co2 1_555 1_555
C1 C2 1_555 1_555
C2 N1 1_555 1_555
C3 C2 1_555 1_555
H1 C3 1_555 1_555
C4 N2 1_555 1_555
C5 C4 1_555 1_555
C6 N1 1_555 1_555
O6 Co1 1_555 1_555
H2 O6 1_555 1_555
H3 O6 1_555 1_555
O7 Co1 1_555 1_555
H4 O7 1_555 1_555
H5 O7 1_555 1_555
O8 Co2 1_555 1_555
H6 O8 1_555 1_555
H7 O8 1_555 1_555
O9 H8 1_555 1_555
H9 O9 1_555 1_555
Co1A O1A 1_555 1_555
Co1_2 O4 1_555 1_555
Co1A_2 O5 1_555 1_555
O1A C1A 1_555 1_555
O2A C1A 1_555 1_555
O3A C5A 1_555 1_555
O4A Co2 1_555 1_555
O4_2 Co1 1_555 1_555
O4A_2 Co1A 1_555 1_555
O5A Co1_2 1_555 1_555
O5A_2 Co1 1_555 1_555
O5_2 Co1A 1_555 1_555
N1A Co1A 1_555 1_555
N2A Co2 1_555 1_555
C1A C2A 1_555 1_555
C2A N1A 1_555 1_555
C3A C2A 1_555 1_555
H1A C3A 1_555 1_555
C4A N2A 1_555 1_555
C5A O4A 1_555 1_555
C6A O5A 1_555 1_555
O6A Co1A 1_555 1_555
H2A O6A 1_555 1_555
H3A O6A 1_555 1_555
O7A Co1A 1_555 1_555
H4A O7A 1_555 1_555
H5A O7A 1_555 1_555
O8A Co2 1_555 1_555
H6A O8A 1_555 1_555
H7A O8A 1_555 1_555
N2 C6 1_555 1_555
C3 C4 1_555 1_555
Co1A_2 O4A 1_555 1_555
N1A C6A 1_555 1_555
N2A C6A 1_555 1_555
C3A C4A 1_555 1_555
C4A C5A 1_555 1_555

#END
