
#######################################################################
#
#                 Cambridge Crystallographic Data Centre
#                                CCDC 
#
#######################################################################
#
# If this CIF has been generated from an entry in the Cambridge 
# Structural Database, then it will include bibliographic, chemical, 
# crystal, experimental, refinement or atomic coordinate data resulting 
# from the CCDC's data processing and validation procedures.
#
#######################################################################

data_CIVXUB01
_symmetry_cell_setting           triclinic
_symmetry_space_group_name_H-M   'P -1'
_symmetry_Int_Tables_number      2
_space_group_name_Hall           '-P 1'
loop_
_symmetry_equiv_pos_site_id
_symmetry_equiv_pos_as_xyz
1 x,y,z
2 -x,-y,-z
_cell_length_a                   11.3013(4)
_cell_length_b                   14.1099(4)
_cell_length_c                   15.2300(5)
_cell_angle_alpha                93.8340(10)
_cell_angle_beta                 102.1980(10)
_cell_angle_gamma                100.4750(10)
_cell_volume                     2320.14
loop_
_atom_site_label
_atom_site_type_symbol
_atom_site_fract_x
_atom_site_fract_y
_atom_site_fract_z
Cu1 Cu 0.80396(7) 0.21559(6) 0.29883(6)
Cu2 Cu 0.69230(7) 0.14027(6) 0.43179(5)
Cu3 Cu 0.57604(7) 0.23532(6) 0.30182(5)
Cu4 Cu 0.76994(7) 0.33896(6) 0.43188(5)
I1 I 0.61228(4) 0.05951(3) 0.26245(3)
I2 I 0.93285(3) 0.22522(3) 0.47622(3)
I3 I 0.74197(4) 0.38206(3) 0.26280(3)
I4 I 0.56014(4) 0.26506(3) 0.48049(3)
S1 S 0.95673(13) 0.17671(11) 0.23211(11)
S2 S 1.33243(14) -0.01573(11) 0.47875(11)
S3 S 0.38254(14) 0.26393(11) 0.24328(11)
S4 S 0.15156(14) 0.51352(12) 0.48177(12)
O1 O 1.0550(4) -0.0369(4) 0.1659(3)
O2 O 0.2486(6) 0.4618(5) 0.1768(4)
N1 N 1.1656(4) 0.0350(4) 0.3039(3)
N2 N 0.2162(4) 0.4195(4) 0.3113(4)
C1 C 0.7744(6) 0.1375(5) 0.0703(4)
H1 H 0.7322 0.1850 0.0953
H2 H 0.7438 0.0734 0.0891
C2 C 0.7429(7) 0.1317(6) -0.0331(5)
H3 H 0.7804 0.0812 -0.0585
H4 H 0.6522 0.1136 -0.0561
C3 C 0.7911(8) 0.2283(6) -0.0624(5)
H5 H 0.7466 0.2770 -0.0425
H6 H 0.7750 0.2228 -0.1292
C4 C 0.9296(8) 0.2622(6) -0.0229(6)
H7 H 0.9747 0.2178 -0.0490
H8 H 0.9569 0.3277 -0.0400
C5 C 0.9617(7) 0.2652(5) 0.0793(5)
H9 H 0.9255 0.3157 0.1061
H10 H 1.0525 0.2823 0.1018
C6 C 0.9124(5) 0.1674(4) 0.1083(4)
H11 H 0.9534 0.1181 0.0833
C7 C 0.9475(5) 0.0505(4) 0.2510(4)
H12 H 0.9389 0.0428 0.3136
H13 H 0.8728 0.0110 0.2093
C8 C 1.0608(6) 0.0129(4) 0.2363(4)
C9 C 1.2737(6) -0.0051(5) 0.2937(5)
H14 H 1.3462 0.0484 0.3003
H15 H 1.2575 -0.0404 0.2326
C10 C 1.3014(6) -0.0735(5) 0.3645(5)
H16 H 1.3739 -0.1002 0.3561
H17 H 1.2301 -0.1283 0.3554
C11 C 1.1961(6) 0.0366(5) 0.4684(4)
H18 H 1.1222 -0.0158 0.4601
H19 H 1.2023 0.0785 0.5246
C12 C 1.1819(6) 0.0961(4) 0.3887(4)
H20 H 1.1095 0.1269 0.3864
H21 H 1.2562 0.1482 0.3965
C13 C 0.2660(6) 0.1438(5) 0.0918(5)
H22 H 0.3165 0.0968 0.1157
H23 H 0.1921 0.1354 0.1178
C14 C 0.2263(7) 0.1238(6) -0.0100(5)
H24 H 0.1715 0.1681 -0.0336
H25 H 0.1792 0.0564 -0.0269
C15 C 0.3387(8) 0.1383(6) -0.0519(5)
H26 H 0.3911 0.0914 -0.0310
H27 H 0.3112 0.1260 -0.1185
C16 C 0.4134(8) 0.2408(6) -0.0255(5)
H28 H 0.3632 0.2873 -0.0510
H29 H 0.4878 0.2483 -0.0509
C17 C 0.4521(7) 0.2632(5) 0.0771(5)
H30 H 0.5099 0.2215 0.1018
H31 H 0.4959 0.3316 0.0929
C18 C 0.3407(6) 0.2460(4) 0.1197(4)
H32 H 0.2868 0.2925 0.0980
C19 C 0.4065(6) 0.3947(4) 0.2645(5)
H33 H 0.4514 0.4158 0.3279
H34 H 0.4577 0.4251 0.2246
C20 C 0.2823(6) 0.4282(5) 0.2469(5)
C21 C 0.2519(6) 0.3801(4) 0.3974(5)
H35 H 0.3245 0.3500 0.3973
H36 H 0.1831 0.3293 0.4053
C22 C 0.2832(6) 0.4604(5) 0.4750(4)
H37 H 0.3515 0.5112 0.4665
H38 H 0.3118 0.4337 0.5325
C23 C 0.1144(6) 0.5417(5) 0.3663(5)
H39 H 0.0360 0.5656 0.3554
H40 H 0.1802 0.5942 0.3570
C24 C 0.1015(6) 0.4545(5) 0.2988(5)
H41 H 0.0344 0.4023 0.3067
H42 H 0.0793 0.4726 0.2366
Cu2A Cu 1.30770(7) -0.14027(6) 0.56821(5)
Cu4A Cu 0.23006(7) 0.66104(6) 0.56812(5)
S2A S 0.66757(14) 0.01573(11) 0.52125(11)
S4A S 0.84844(14) 0.48648(12) 0.51823(12)
C27 C 0.189(3) 0.4902(18) 0.9735(17)
H46 H 0.1448 0.5125 0.9186
H47 H 0.1770 0.5272 1.0268
H48 H 0.1555 0.4211 0.9745
C28 C 0.293(3) 0.501(3) 0.974(3)
N4 N 0.419(2) 0.5115(19) 0.996(2)
C35 C 0.473(3) 0.708(2) 0.249(2)
H63 H 0.5087 0.7776 0.2585
H64 H 0.3988 0.6960 0.2739
H65 H 0.4510 0.6857 0.1846
C36 C 0.560(2) 0.6572(17) 0.2943(15)
H66 H 0.5853 0.6813 0.3594
H67 H 0.5231 0.5873 0.2884
C37 C 0.661(3) 0.670(3) 0.258(3)
H68 H 0.6274 0.6838 0.1960
H69 H 0.6766 0.6031 0.2509
C38 C 0.782(3) 0.727(3) 0.279(2)
H70 H 0.7816 0.7861 0.2471
H71 H 0.8066 0.7483 0.3449
C39 C 0.844(3) 0.6906(18) 0.261(2)
H72 H 0.7998 0.6486 0.2049
H73 H 0.8604 0.6464 0.3082
C40 C 0.975(2) 0.7355(19) 0.2446(17)
H74 H 0.9776 0.8035 0.2338
H75 H 0.9885 0.6993 0.1917
H76 H 1.0390 0.7317 0.2978
C25? C 0.328(3) 0.512(4) 0.995(3)
H43? H 0.3366 0.4733 1.0459
H44? H 0.3657 0.5801 1.0160
H45? H 0.3705 0.4883 0.9502
C26? C 0.165(4) 0.501(3) 0.942(3)
N3? N 0.0621(18) 0.4867(14) 0.9144(16)
C29? C 0.418(2) 0.684(2) 0.257(2)
H49? H 0.3961 0.6600 0.1925
H50? H 0.3607 0.7251 0.2693
H51? H 0.4131 0.6296 0.2931
C30? C 0.540(2) 0.740(2) 0.279(2)
H52? H 0.5602 0.7464 0.2193
H53? H 0.5283 0.8051 0.2995
C31? C 0.656(2) 0.736(3) 0.335(2)
H54? H 0.6609 0.6664 0.3356
H55? H 0.6558 0.7606 0.3972
C32? C 0.764(3) 0.785(3) 0.313(2)
H56? H 0.7236 0.8292 0.2744
H57? H 0.7974 0.8253 0.3721
C33? C 0.873(3) 0.800(3) 0.284(3)
H58? H 0.9397 0.8202 0.3389
H59? H 0.8718 0.8572 0.2497
C34? C 0.911(3) 0.731(2) 0.232(2)
H60? H 0.8639 0.6664 0.2351
H61? H 0.9991 0.7334 0.2546
H62? H 0.8959 0.7455 0.1687
loop_
_geom_bond_atom_site_label_1
_geom_bond_atom_site_label_2
_geom_bond_site_symmetry_1
_geom_bond_site_symmetry_2
Cu1 I1 1_555 1_555
Cu2 I1 1_555 1_555
Cu3 I1 1_555 1_555
Cu4 I2 1_555 1_555
I2 Cu1 1_555 1_555
I3 Cu1 1_555 1_555
I4 Cu2 1_555 1_555
S1 Cu1 1_555 1_555
S2 C10 1_555 1_555
S3 Cu3 1_555 1_555
S4 C22 1_555 1_555
O1 C8 1_555 1_555
O2 C20 1_555 1_555
N1 C8 1_555 1_555
N2 C20 1_555 1_555
C1 H1 1_555 1_555
H2 C1 1_555 1_555
C2 C1 1_555 1_555
H3 C2 1_555 1_555
H4 C2 1_555 1_555
C3 C2 1_555 1_555
H5 C3 1_555 1_555
H6 C3 1_555 1_555
C4 C3 1_555 1_555
H7 C4 1_555 1_555
H8 C4 1_555 1_555
C5 C4 1_555 1_555
H9 C5 1_555 1_555
H10 C5 1_555 1_555
C6 S1 1_555 1_555
H11 C6 1_555 1_555
C7 S1 1_555 1_555
H12 C7 1_555 1_555
H13 C7 1_555 1_555
C8 C7 1_555 1_555
C9 N1 1_555 1_555
H14 C9 1_555 1_555
H15 C9 1_555 1_555
C10 C9 1_555 1_555
H16 C10 1_555 1_555
H17 C10 1_555 1_555
C11 S2 1_555 1_555
H18 C11 1_555 1_555
H19 C11 1_555 1_555
C12 N1 1_555 1_555
H20 C12 1_555 1_555
H21 C12 1_555 1_555
C13 H22 1_555 1_555
H23 C13 1_555 1_555
C14 C13 1_555 1_555
H24 C14 1_555 1_555
H25 C14 1_555 1_555
C15 C14 1_555 1_555
H26 C15 1_555 1_555
H27 C15 1_555 1_555
C16 C15 1_555 1_555
H28 C16 1_555 1_555
H29 C16 1_555 1_555
C17 C16 1_555 1_555
H30 C17 1_555 1_555
H31 C17 1_555 1_555
C18 S3 1_555 1_555
H32 C18 1_555 1_555
C19 S3 1_555 1_555
H33 C19 1_555 1_555
H34 C19 1_555 1_555
C20 C19 1_555 1_555
C21 N2 1_555 1_555
H35 C21 1_555 1_555
H36 C21 1_555 1_555
C22 C21 1_555 1_555
H37 C22 1_555 1_555
H38 C22 1_555 1_555
C23 S4 1_555 1_555
H39 C23 1_555 1_555
H40 C23 1_555 1_555
C24 N2 1_555 1_555
H41 C24 1_555 1_555
H42 C24 1_555 1_555
C27 H46 1_555 1_555
H47 C27 1_555 1_555
H48 C27 1_555 1_555
C28 C27 1_555 1_555
N4 C28 1_555 1_555
C35 H63 1_555 1_555
H64 C35 1_555 1_555
H65 C35 1_555 1_555
C36 C35 1_555 1_555
H66 C36 1_555 1_555
H67 C36 1_555 1_555
C37 C36 1_555 1_555
H68 C37 1_555 1_555
H69 C37 1_555 1_555
C38 C37 1_555 1_555
H70 C38 1_555 1_555
H71 C38 1_555 1_555
C39 C38 1_555 1_555
H72 C39 1_555 1_555
H73 C39 1_555 1_555
C40 C39 1_555 1_555
H74 C40 1_555 1_555
H75 C40 1_555 1_555
H76 C40 1_555 1_555
Cu2A S2 1_555 1_555
Cu4A S4 1_555 1_555
S2A Cu2 1_555 1_555
S4A Cu4 1_555 1_555
Cu2 I2 1_555 1_555
Cu3 I3 1_555 1_555
Cu3 I4 1_555 1_555
Cu4 I3 1_555 1_555
Cu4 I4 1_555 1_555
C1 C6 1_555 1_555
C5 C6 1_555 1_555
C11 C12 1_555 1_555
C13 C18 1_555 1_555
C17 C18 1_555 1_555
C23 C24 1_555 1_555

#END
