
#######################################################################
#
#                 Cambridge Crystallographic Data Centre
#                                CCDC 
#
#######################################################################
#
# If this CIF has been generated from an entry in the Cambridge 
# Structural Database, then it will include bibliographic, chemical, 
# crystal, experimental, refinement or atomic coordinate data resulting 
# from the CCDC's data processing and validation procedures.
#
#######################################################################

data_CIVXOV
_symmetry_cell_setting           orthorhombic
_symmetry_space_group_name_H-M   'P b c a'
_symmetry_Int_Tables_number      61
_space_group_name_Hall           '-P 2ac 2ab'
loop_
_symmetry_equiv_pos_site_id
_symmetry_equiv_pos_as_xyz
1 x,y,z
2 1/2-x,-y,1/2+z
3 -x,1/2+y,1/2-z
4 1/2+x,1/2-y,-z
5 -x,-y,-z
6 1/2+x,y,1/2-z
7 x,1/2-y,1/2+z
8 1/2-x,1/2+y,z
_cell_length_a                   13.4885(5)
_cell_length_b                   20.6679(8)
_cell_length_c                   27.2103(10)
_cell_angle_alpha                90
_cell_angle_beta                 90
_cell_angle_gamma                90
_cell_volume                     7585.66
loop_
_atom_site_label
_atom_site_type_symbol
_atom_site_fract_x
_atom_site_fract_y
_atom_site_fract_z
Cu1 Cu 0.33785(5) 0.19826(4) 0.13377(3)
Cu2 Cu 0.26502(5) 0.07901(4) 0.15898(3)
Cu3 Cu 0.14851(5) 0.16041(4) 0.10635(3)
Cu4 Cu 0.31694(6) 0.10509(4) 0.06880(3)
I1 I 0.19589(3) 0.187399(19) 0.201271(14)
I2 I 0.45680(3) 0.09333(2) 0.140157(16)
I3 I 0.26877(3) 0.22612(2) 0.042883(14)
I4 I 0.15138(3) 0.03711(2) 0.083297(15)
S1 S 0.42783(10) 0.28787(7) 0.15596(6)
S2 S 0.25826(11) 0.50648(8) 0.22125(6)
S3 S 0.00977(10) 0.22279(7) 0.08903(5)
S4 S -0.10072(12) 0.44034(8) -0.00380(6)
O1 O 0.5583(3) 0.3565(2) 0.26312(15)
O2 O -0.1304(3) 0.3309(2) 0.15559(15)
N1 N 0.4028(3) 0.3921(2) 0.24422(18)
N2 N -0.0416(3) 0.3891(2) 0.10079(18)
C1 C 0.6159(5) 0.3414(4) 0.1414(3)
H1 H 0.6852 0.3338 0.1309
H2 H 0.6158 0.3479 0.1774
C2 C 0.5755(6) 0.4031(4) 0.1159(4)
H3 H 0.5113 0.4150 0.1310
H4 H 0.6223 0.4392 0.1215
C3 C 0.5607(6) 0.3945(4) 0.0608(3)
H5 H 0.5276 0.4333 0.0472
H6 H 0.6261 0.3901 0.0446
C4 C 0.4992(5) 0.3359(4) 0.0501(3)
H7 H 0.4955 0.3295 0.0141
H8 H 0.4311 0.3429 0.0624
C5 C 0.5420(5) 0.2755(4) 0.0737(2)
H9 H 0.4981 0.2383 0.0666
H10 H 0.6077 0.2663 0.0591
C6 C 0.5532(4) 0.2825(3) 0.1286(2)
H11 H 0.5868 0.2430 0.1417
C7 C 0.4556(4) 0.2816(3) 0.2216(2)
H12 H 0.3991 0.2607 0.2384
H13 H 0.5144 0.2535 0.2260
C8 C 0.4755(4) 0.3462(3) 0.2455(2)
C9 C 0.2980(4) 0.3774(3) 0.2343(2)
H14 H 0.2598 0.3799 0.2653
H15 H 0.2922 0.3328 0.2213
C10 C 0.2552(4) 0.4247(3) 0.1974(2)
H16 H 0.1858 0.4125 0.1899
H17 H 0.2938 0.4226 0.1665
C11 C 0.3902(5) 0.5094(3) 0.2333(2)
H18 H 0.4267 0.5068 0.2018
H19 H 0.4068 0.5512 0.2490
C12 C 0.4226(5) 0.4547(3) 0.2665(2)
H20 H 0.4945 0.4587 0.2732
H21 H 0.3870 0.4577 0.2982
C13 C -0.1435(5) 0.1411(4) 0.0695(3)
H22 H -0.0947 0.1061 0.0637
H23 H -0.1518 0.1657 0.0385
C14 C -0.2442(5) 0.1118(4) 0.0855(3)
H24 H -0.2946 0.1465 0.0869
H25 H -0.2659 0.0798 0.0607
C15 C -0.2378(5) 0.0796(4) 0.1346(3)
H26 H -0.3046 0.0644 0.1443
H27 H -0.1941 0.0412 0.1320
C16 C -0.1989(6) 0.1234(4) 0.1731(3)
H28 H -0.1918 0.0990 0.2042
H29 H -0.2471 0.1587 0.1788
C17 C -0.0976(5) 0.1529(3) 0.1591(2)
H30 H -0.0771 0.1849 0.1842
H31 H -0.0467 0.1185 0.1576
C18 C -0.1068(5) 0.1854(3) 0.1096(2)
H32 H -0.1566 0.2209 0.1131
C19 C 0.0263(4) 0.2874(3) 0.1342(2)
H33 H 0.0269 0.2685 0.1676
H34 H 0.0910 0.3087 0.1287
C20 C -0.0556(4) 0.3373(3) 0.1308(2)
C21 C -0.1222(5) 0.4362(3) 0.0965(2)
H35 H -0.0946 0.4806 0.0967
H36 H -0.1676 0.4319 0.1249
C22 C -0.1792(4) 0.4249(3) 0.0490(2)
H37 H -0.2376 0.4539 0.0479
H38 H -0.2032 0.3797 0.0479
C23 C -0.0021(4) 0.3848(3) 0.0119(2)
H39 H -0.0272 0.3399 0.0094
H40 H 0.0527 0.3897 -0.0119
C24 C 0.0374(4) 0.3962(3) 0.0636(2)
H41 H 0.0910 0.3648 0.0705
H42 H 0.0658 0.4402 0.0657
Cu2G Cu 0.23498(5) 0.57901(4) 0.15898(3)
Cu4C Cu -0.18306(6) 0.39491(4) -0.06880(3)
S2G S 0.24174(11) 0.00648(8) 0.22125(6)
S4C S 0.39928(12) 0.05966(8) 0.00380(6)
loop_
_geom_bond_atom_site_label_1
_geom_bond_atom_site_label_2
_geom_bond_site_symmetry_1
_geom_bond_site_symmetry_2
Cu1 I1 1_555 1_555
Cu2 I1 1_555 1_555
Cu3 I1 1_555 1_555
Cu4 I2 1_555 1_555
I2 Cu1 1_555 1_555
I3 Cu1 1_555 1_555
I4 Cu2 1_555 1_555
S1 Cu1 1_555 1_555
S2 C10 1_555 1_555
S3 Cu3 1_555 1_555
S4 C22 1_555 1_555
O1 C8 1_555 1_555
O2 C20 1_555 1_555
N1 C8 1_555 1_555
N2 C20 1_555 1_555
C1 H1 1_555 1_555
H2 C1 1_555 1_555
C2 C1 1_555 1_555
H3 C2 1_555 1_555
H4 C2 1_555 1_555
C3 C2 1_555 1_555
H5 C3 1_555 1_555
H6 C3 1_555 1_555
C4 C3 1_555 1_555
H7 C4 1_555 1_555
H8 C4 1_555 1_555
C5 C4 1_555 1_555
H9 C5 1_555 1_555
H10 C5 1_555 1_555
C6 S1 1_555 1_555
H11 C6 1_555 1_555
C7 S1 1_555 1_555
H12 C7 1_555 1_555
H13 C7 1_555 1_555
C8 C7 1_555 1_555
C9 N1 1_555 1_555
H14 C9 1_555 1_555
H15 C9 1_555 1_555
C10 C9 1_555 1_555
H16 C10 1_555 1_555
H17 C10 1_555 1_555
C11 S2 1_555 1_555
H18 C11 1_555 1_555
H19 C11 1_555 1_555
C12 N1 1_555 1_555
H20 C12 1_555 1_555
H21 C12 1_555 1_555
C13 H22 1_555 1_555
H23 C13 1_555 1_555
C14 C13 1_555 1_555
H24 C14 1_555 1_555
H25 C14 1_555 1_555
C15 C14 1_555 1_555
H26 C15 1_555 1_555
H27 C15 1_555 1_555
C16 C15 1_555 1_555
H28 C16 1_555 1_555
H29 C16 1_555 1_555
C17 C16 1_555 1_555
H30 C17 1_555 1_555
H31 C17 1_555 1_555
C18 S3 1_555 1_555
H32 C18 1_555 1_555
C19 S3 1_555 1_555
H33 C19 1_555 1_555
H34 C19 1_555 1_555
C20 C19 1_555 1_555
C21 N2 1_555 1_555
H35 C21 1_555 1_555
H36 C21 1_555 1_555
C22 C21 1_555 1_555
H37 C22 1_555 1_555
H38 C22 1_555 1_555
C23 S4 1_555 1_555
H39 C23 1_555 1_555
H40 C23 1_555 1_555
C24 N2 1_555 1_555
H41 C24 1_555 1_555
H42 C24 1_555 1_555
Cu2G S2 1_555 1_555
Cu4C S4 1_555 1_555
S2G Cu2 1_555 1_555
S4C Cu4 1_555 1_555
Cu2 I2 1_555 1_555
Cu3 I3 1_555 1_555
Cu3 I4 1_555 1_555
Cu4 I3 1_555 1_555
Cu4 I4 1_555 1_555
C1 C6 1_555 1_555
C5 C6 1_555 1_555
C11 C12 1_555 1_555
C13 C18 1_555 1_555
C17 C18 1_555 1_555
C23 C24 1_555 1_555

#END
