
#######################################################################
#
#                 Cambridge Crystallographic Data Centre
#                                CCDC 
#
#######################################################################
#
# If this CIF has been generated from an entry in the Cambridge 
# Structural Database, then it will include bibliographic, chemical, 
# crystal, experimental, refinement or atomic coordinate data resulting 
# from the CCDC's data processing and validation procedures.
#
#######################################################################

data_CIVXOV03
_symmetry_cell_setting           orthorhombic
_symmetry_space_group_name_H-M   'P b c a'
_symmetry_Int_Tables_number      61
_space_group_name_Hall           '-P 2ac 2ab'
loop_
_symmetry_equiv_pos_site_id
_symmetry_equiv_pos_as_xyz
1 x,y,z
2 1/2-x,-y,1/2+z
3 -x,1/2+y,1/2-z
4 1/2+x,1/2-y,-z
5 -x,-y,-z
6 1/2+x,y,1/2-z
7 x,1/2-y,1/2+z
8 1/2-x,1/2+y,z
_cell_length_a                   13.5800(8)
_cell_length_b                   20.8675(12)
_cell_length_c                   27.3564(17)
_cell_angle_alpha                90
_cell_angle_beta                 90
_cell_angle_gamma                90
_cell_volume                     7752.27
loop_
_atom_site_label
_atom_site_type_symbol
_atom_site_fract_x
_atom_site_fract_y
_atom_site_fract_z
Cu1 Cu 0.34336(12) 0.20390(8) 0.13785(7)
Cu2 Cu 0.27022(12) 0.08321(7) 0.16233(6)
Cu3 Cu 0.15377(12) 0.16318(7) 0.10787(6)
Cu4 Cu 0.32689(13) 0.11181(8) 0.07297(6)
I1 I 0.19769(6) 0.19090(4) 0.20316(3)
I2 I 0.46171(6) 0.09989(4) 0.14557(4)
I3 I 0.27593(6) 0.23110(4) 0.04698(3)
I4 I 0.16313(7) 0.04146(4) 0.08470(3)
S1 S 0.4284(2) 0.29423(15) 0.16031(13)
S2 S 0.2536(3) 0.51075(16) 0.22369(13)
S3 S 0.0148(2) 0.22280(15) 0.08886(12)
S4 S -0.0893(3) 0.43308(17) -0.00924(14)
O1 O 0.5496(7) 0.3655(4) 0.2663(4)
O2 O -0.1294(7) 0.3331(4) 0.1501(4)
N1 N 0.3973(7) 0.3975(4) 0.2470(4)
N2 N -0.0361(7) 0.3882(5) 0.0960(4)
C1 C 0.6185(14) 0.3425(15) 0.1478(9)
H1 H 0.6841 0.3352 0.1349
H2 H 0.6232 0.3444 0.1832
C2 C 0.5797(19) 0.4055(13) 0.1288(13)
H3 H 0.6239 0.4400 0.1379
H4 H 0.5155 0.4143 0.1427
C3 C 0.572(2) 0.4008(16) 0.0706(16)
H5 H 0.5401 0.4389 0.0577
H6 H 0.6369 0.3975 0.0564
C4 C 0.5152(17) 0.3453(18) 0.0590(8)
H7 H 0.5129 0.3411 0.0237
H8 H 0.4482 0.3522 0.0702
C5 C 0.5530(15) 0.2804(12) 0.0809(9)
H9 H 0.5093 0.2456 0.0719
H10 H 0.6186 0.2708 0.0690
C6 C 0.5541(12) 0.2889(10) 0.1337(8)
H11 H 0.5840 0.2501 0.1473
C7 C 0.4509(9) 0.2896(5) 0.2254(5)
H12 H 0.3948 0.2692 0.2410
H13 H 0.5080 0.2627 0.2311
C8 C 0.4683(8) 0.3549(6) 0.2493(4)
C9 C 0.2949(8) 0.3839(6) 0.2369(4)
H14 H 0.2576 0.3864 0.2670
H15 H 0.2891 0.3405 0.2244
C10 C 0.2514(8) 0.4303(5) 0.1998(5)
H16 H 0.1841 0.4181 0.1925
H17 H 0.2891 0.4285 0.1697
C11 C 0.3806(9) 0.5135(6) 0.2369(5)
H18 H 0.4170 0.5110 0.2064
H19 H 0.3956 0.5545 0.2518
C12 C 0.4165(11) 0.4605(6) 0.2707(5)
H20 H 0.4864 0.4655 0.2768
H21 H 0.3821 0.4629 0.3017
C13 C -0.1328(11) 0.1403(7) 0.0659(6)
H22 H -0.0828 0.1080 0.0602
H23 H -0.1407 0.1651 0.0362
C14 C -0.2305(13) 0.1078(8) 0.0791(10)
H24 H -0.2448 0.0745 0.0554
H25 H -0.2833 0.1391 0.0777
C15 C -0.2260(17) 0.0780(10) 0.1314(9)
H26 H -0.2896 0.0595 0.1394
H27 H -0.1777 0.0437 0.1318
C16 C -0.2010(15) 0.1235(10) 0.1668(8)
H28 H -0.1996 0.1033 0.1987
H29 H -0.2506 0.1569 0.1674
C17 C -0.0987(13) 0.1537(8) 0.1558(6)
H30 H -0.0832 0.1856 0.1805
H31 H -0.0483 0.1208 0.1568
C18 C -0.1004(9) 0.1840(6) 0.1071(5)
H32 H -0.1498 0.2182 0.1089
C19 C 0.0253(9) 0.2873(5) 0.1330(5)
H33 H 0.0203 0.2696 0.1657
H34 H 0.0896 0.3070 0.1298
C20 C -0.0520(11) 0.3373(7) 0.1265(5)
C21 C -0.1116(11) 0.4356(6) 0.0902(5)
H35 H -0.0824 0.4780 0.0894
H36 H -0.1566 0.4337 0.1177
C22 C -0.1678(11) 0.4231(7) 0.0427(5)
H37 H -0.2228 0.4526 0.0403
H38 H -0.1938 0.3798 0.0430
C23 C 0.0058(9) 0.3779(8) 0.0085(5)
H39 H -0.0197 0.3346 0.0070
H40 H 0.0602 0.3811 -0.0144
C24 C 0.0432(10) 0.3912(7) 0.0598(5)
H41 H 0.0935 0.3601 0.0682
H42 H 0.0730 0.4334 0.0607
Cu2G Cu 0.22978(12) 0.58321(7) 0.16233(6)
Cu4C Cu -0.17311(13) 0.38819(8) -0.07297(6)
S2G S 0.2464(3) 0.01075(16) 0.22369(13)
S4C S 0.4107(3) 0.06692(17) 0.00924(14)
loop_
_geom_bond_atom_site_label_1
_geom_bond_atom_site_label_2
_geom_bond_site_symmetry_1
_geom_bond_site_symmetry_2
Cu1 I1 1_555 1_555
Cu2 I1 1_555 1_555
Cu3 I1 1_555 1_555
Cu4 I2 1_555 1_555
I2 Cu1 1_555 1_555
I3 Cu1 1_555 1_555
I4 Cu2 1_555 1_555
S1 Cu1 1_555 1_555
S2 C10 1_555 1_555
S3 Cu3 1_555 1_555
S4 C22 1_555 1_555
O1 C8 1_555 1_555
O2 C20 1_555 1_555
N1 C8 1_555 1_555
N2 C20 1_555 1_555
C1 H1 1_555 1_555
H2 C1 1_555 1_555
C2 C1 1_555 1_555
H3 C2 1_555 1_555
H4 C2 1_555 1_555
C3 C2 1_555 1_555
H5 C3 1_555 1_555
H6 C3 1_555 1_555
C4 C3 1_555 1_555
H7 C4 1_555 1_555
H8 C4 1_555 1_555
C5 C4 1_555 1_555
H9 C5 1_555 1_555
H10 C5 1_555 1_555
C6 S1 1_555 1_555
H11 C6 1_555 1_555
C7 S1 1_555 1_555
H12 C7 1_555 1_555
H13 C7 1_555 1_555
C8 C7 1_555 1_555
C9 N1 1_555 1_555
H14 C9 1_555 1_555
H15 C9 1_555 1_555
C10 C9 1_555 1_555
H16 C10 1_555 1_555
H17 C10 1_555 1_555
C11 S2 1_555 1_555
H18 C11 1_555 1_555
H19 C11 1_555 1_555
C12 N1 1_555 1_555
H20 C12 1_555 1_555
H21 C12 1_555 1_555
C13 H22 1_555 1_555
H23 C13 1_555 1_555
C14 C13 1_555 1_555
H24 C14 1_555 1_555
H25 C14 1_555 1_555
C15 C14 1_555 1_555
H26 C15 1_555 1_555
H27 C15 1_555 1_555
C16 C15 1_555 1_555
H28 C16 1_555 1_555
H29 C16 1_555 1_555
C17 C16 1_555 1_555
H30 C17 1_555 1_555
H31 C17 1_555 1_555
C18 S3 1_555 1_555
H32 C18 1_555 1_555
C19 S3 1_555 1_555
H33 C19 1_555 1_555
H34 C19 1_555 1_555
C20 C19 1_555 1_555
C21 N2 1_555 1_555
H35 C21 1_555 1_555
H36 C21 1_555 1_555
C22 C21 1_555 1_555
H37 C22 1_555 1_555
H38 C22 1_555 1_555
C23 S4 1_555 1_555
H39 C23 1_555 1_555
H40 C23 1_555 1_555
C24 N2 1_555 1_555
H41 C24 1_555 1_555
H42 C24 1_555 1_555
Cu2G S2 1_555 1_555
Cu4C S4 1_555 1_555
S2G Cu2 1_555 1_555
S4C Cu4 1_555 1_555
Cu2 I2 1_555 1_555
Cu3 I3 1_555 1_555
Cu3 I4 1_555 1_555
Cu4 I3 1_555 1_555
Cu4 I4 1_555 1_555
C1 C6 1_555 1_555
C5 C6 1_555 1_555
C11 C12 1_555 1_555
C13 C18 1_555 1_555
C17 C18 1_555 1_555
C23 C24 1_555 1_555

#END
