
#######################################################################
#
#                 Cambridge Crystallographic Data Centre
#                                CCDC 
#
#######################################################################
#
# If this CIF has been generated from an entry in the Cambridge 
# Structural Database, then it will include bibliographic, chemical, 
# crystal, experimental, refinement or atomic coordinate data resulting 
# from the CCDC's data processing and validation procedures.
#
#######################################################################

data_CIVXIP
_symmetry_cell_setting           monoclinic
_symmetry_space_group_name_H-M   'P 21/c'
_symmetry_Int_Tables_number      14
_space_group_name_Hall           '-P 2ybc'
loop_
_symmetry_equiv_pos_site_id
_symmetry_equiv_pos_as_xyz
1 x,y,z
2 -x,1/2+y,1/2-z
3 -x,-y,-z
4 x,1/2-y,1/2+z
_cell_length_a                   10.4687(5)
_cell_length_b                   8.7776(4)
_cell_length_c                   17.4451(8)
_cell_angle_alpha                90
_cell_angle_beta                 103.5330(10)
_cell_angle_gamma                90
_cell_volume                     1558.52
loop_
_atom_site_label
_atom_site_type_symbol
_atom_site_fract_x
_atom_site_fract_y
_atom_site_fract_z
Cu1 Cu 0.60769(4) 0.46844(5) 0.07078(2)
I1 I 0.37816(2) 0.32656(3) 0.035964(13)
S1 S 0.78663(8) 0.30493(10) 0.11563(5)
S2 S 0.63705(8) -0.39986(11) 0.19357(5)
O1 O 0.9195(2) 0.0371(3) 0.19952(15)
N1 N 0.7532(3) -0.0742(3) 0.24078(16)
C1 C 0.9182(4) 0.3286(4) 0.0015(2)
H1 H 0.9947 0.3645 0.0423
H2 H 0.8599 0.4169 -0.0160
C2 C 0.9659(4) 0.2650(5) -0.0690(2)
H3 H 1.0072 0.3478 -0.0932
H4 H 1.0332 0.1857 -0.0503
C3 C 0.8533(4) 0.1971(5) -0.1304(2)
H5 H 0.8875 0.1527 -0.1738
H6 H 0.7899 0.2783 -0.1528
C4 C 0.7840(4) 0.0739(5) -0.0936(2)
H7 H 0.8457 -0.0111 -0.0753
H8 H 0.7089 0.0335 -0.1340
C5 C 0.7345(4) 0.1366(5) -0.0243(2)
H9 H 0.6655 0.2137 -0.0437
H10 H 0.6947 0.0529 0.0003
C6 C 0.8441(3) 0.2083(4) 0.03696(19)
H11 H 0.9074 0.1266 0.0611
C7 C 0.7085(3) 0.1558(4) 0.1591(2)
H12 H 0.6628 0.2018 0.1971
H13 H 0.6413 0.1061 0.1171
C8 C 0.8038(3) 0.0349(4) 0.20146(19)
C9 C 0.8335(3) -0.2074(4) 0.2707(2)
H14 H 0.8139 -0.2413 0.3208
H15 H 0.9277 -0.1797 0.2814
C10 C 0.8063(3) -0.3356(4) 0.2117(2)
H16 H 0.8656 -0.4220 0.2316
H17 H 0.8251 -0.3009 0.1615
C11 C 0.5561(3) -0.2169(4) 0.1720(2)
H18 H 0.5658 -0.1812 0.1198
H19 H 0.4611 -0.2294 0.1692
C12 C 0.6123(3) -0.0972(4) 0.2340(2)
H20 H 0.5655 0.0004 0.2196
H21 H 0.5979 -0.1298 0.2857
Cu1B Cu 0.39231(4) 0.53156(5) -0.07078(2)
Cu1_2 Cu 0.60769(4) -0.53156(5) 0.07078(2)
I1B I 0.62184(2) 0.67344(3) -0.035964(13)
S2_2 S 0.63705(8) 0.60014(11) 0.19357(5)
loop_
_geom_bond_atom_site_label_1
_geom_bond_atom_site_label_2
_geom_bond_site_symmetry_1
_geom_bond_site_symmetry_2
Cu1 I1 1_555 1_555
I1 Cu1B 1_555 1_555
S1 Cu1 1_555 1_555
S2 C10 1_555 1_555
O1 C8 1_555 1_555
N1 C8 1_555 1_555
C1 H1 1_555 1_555
H2 C1 1_555 1_555
C2 C1 1_555 1_555
H3 C2 1_555 1_555
H4 C2 1_555 1_555
C3 C2 1_555 1_555
H5 C3 1_555 1_555
H6 C3 1_555 1_555
C4 C3 1_555 1_555
H7 C4 1_555 1_555
H8 C4 1_555 1_555
C5 C4 1_555 1_555
H9 C5 1_555 1_555
H10 C5 1_555 1_555
C6 S1 1_555 1_555
H11 C6 1_555 1_555
C7 S1 1_555 1_555
H12 C7 1_555 1_555
H13 C7 1_555 1_555
C8 C7 1_555 1_555
C9 N1 1_555 1_555
H14 C9 1_555 1_555
H15 C9 1_555 1_555
C10 C9 1_555 1_555
H16 C10 1_555 1_555
H17 C10 1_555 1_555
C11 S2 1_555 1_555
H18 C11 1_555 1_555
H19 C11 1_555 1_555
C12 N1 1_555 1_555
H20 C12 1_555 1_555
H21 C12 1_555 1_555
Cu1B I1B 1_555 1_555
Cu1_2 S2 1_555 1_555
I1B Cu1 1_555 1_555
S2_2 Cu1 1_555 1_555
C1 C6 1_555 1_555
C5 C6 1_555 1_555
C11 C12 1_555 1_555

#END
