
#######################################################################
#
#                 Cambridge Crystallographic Data Centre
#                                CCDC 
#
#######################################################################
#
# If this CIF has been generated from an entry in the Cambridge 
# Structural Database, then it will include bibliographic, chemical, 
# crystal, experimental, refinement or atomic coordinate data resulting 
# from the CCDC's data processing and validation procedures.
#
#######################################################################

data_CIVXOV01
_symmetry_cell_setting           orthorhombic
_symmetry_space_group_name_H-M   'P b c a'
_symmetry_Int_Tables_number      61
_space_group_name_Hall           '-P 2ac 2ab'
loop_
_symmetry_equiv_pos_site_id
_symmetry_equiv_pos_as_xyz
1 x,y,z
2 1/2-x,-y,1/2+z
3 -x,1/2+y,1/2-z
4 1/2+x,1/2-y,-z
5 -x,-y,-z
6 1/2+x,y,1/2-z
7 x,1/2-y,1/2+z
8 1/2-x,1/2+y,z
_cell_length_a                   13.5252(6)
_cell_length_b                   20.7188(9)
_cell_length_c                   27.2475(12)
_cell_angle_alpha                90
_cell_angle_beta                 90
_cell_angle_gamma                90
_cell_volume                     7635.46
loop_
_atom_site_label
_atom_site_type_symbol
_atom_site_fract_x
_atom_site_fract_y
_atom_site_fract_z
Cu1 Cu 0.33891(7) 0.20017(4) 0.13541(4)
Cu2 Cu 0.26673(7) 0.08040(4) 0.16025(3)
Cu3 Cu 0.15023(7) 0.16107(4) 0.10692(4)
Cu4 Cu 0.32031(7) 0.10748(5) 0.07054(4)
I1 I 0.19572(4) 0.18840(2) 0.202019(17)
I2 I 0.45832(4) 0.09563(3) 0.14228(2)
I3 I 0.27119(4) 0.22793(2) 0.044414(18)
I4 I 0.15551(4) 0.03827(2) 0.083831(19)
S1 S 0.42777(13) 0.28991(9) 0.15763(7)
S2 S 0.25607(15) 0.50780(9) 0.22230(7)
S3 S 0.01185(13) 0.22255(9) 0.08848(7)
S4 S -0.09653(16) 0.43789(10) -0.00600(8)
O1 O 0.5544(4) 0.3591(3) 0.2650(2)
O2 O -0.1302(4) 0.3309(3) 0.1535(2)
N1 N 0.4001(4) 0.3932(3) 0.2453(2)
N2 N -0.0397(5) 0.3884(3) 0.0989(2)
C1 C 0.6151(7) 0.3423(6) 0.1451(4)
H1 H 0.6159 0.3462 0.1813
H2 H 0.6840 0.3351 0.1341
C2 C 0.5784(10) 0.4039(6) 0.1236(7)
H3 H 0.6256 0.4390 0.1313
H4 H 0.5140 0.4151 0.1387
C3 C 0.5658(10) 0.3987(7) 0.0672(7)
H5 H 0.5328 0.4380 0.0545
H6 H 0.6316 0.3954 0.0514
C4 C 0.5055(8) 0.3407(6) 0.0547(4)
H7 H 0.5028 0.3363 0.0186
H8 H 0.4371 0.3475 0.0666
C5 C 0.5442(6) 0.2792(5) 0.0761(4)
H9 H 0.6099 0.2696 0.0618
H10 H 0.4991 0.2433 0.0674
C6 C 0.5529(6) 0.2837(5) 0.1310(3)
H11 H 0.5856 0.2437 0.1436
C7 C 0.4532(6) 0.2837(3) 0.2233(3)
H12 H 0.3962 0.2629 0.2396
H13 H 0.5117 0.2557 0.2282
C8 C 0.4725(6) 0.3488(4) 0.2474(3)
C9 C 0.2965(5) 0.3801(3) 0.2352(3)
H14 H 0.2583 0.3833 0.2661
H15 H 0.2898 0.3355 0.2227
C10 C 0.2540(5) 0.4261(3) 0.1983(3)
H16 H 0.1851 0.4135 0.1906
H17 H 0.2930 0.4241 0.1676
C11 C 0.3869(6) 0.5112(3) 0.2355(3)
H18 H 0.4244 0.5094 0.2043
H19 H 0.4024 0.5527 0.2517
C12 C 0.4194(6) 0.4560(3) 0.2683(3)
H20 H 0.4910 0.4601 0.2752
H21 H 0.3836 0.4586 0.2999
C13 C -0.1398(6) 0.1409(4) 0.0675(3)
H22 H -0.0905 0.1063 0.0619
H23 H -0.1476 0.1655 0.0366
C14 C -0.2395(6) 0.1111(5) 0.0826(5)
H24 H -0.2905 0.1453 0.0831
H25 H -0.2594 0.0787 0.0577
C15 C -0.2352(7) 0.0794(5) 0.1318(4)
H26 H -0.3018 0.0634 0.1406
H27 H -0.1902 0.0418 0.1301
C16 C -0.2002(8) 0.1239(5) 0.1704(4)
H28 H -0.1948 0.1003 0.2018
H29 H -0.2489 0.1591 0.1747
C17 C -0.0979(7) 0.1532(4) 0.1569(3)
H30 H -0.0780 0.1851 0.1821
H31 H -0.0474 0.1187 0.1559
C18 C -0.1048(6) 0.1852(4) 0.1079(3)
H32 H -0.1547 0.2206 0.1110
C19 C 0.0258(5) 0.2870(3) 0.1337(3)
H33 H 0.0236 0.2681 0.1671
H34 H 0.0911 0.3077 0.1294
C20 C -0.0539(6) 0.3372(4) 0.1290(3)
C21 C -0.1183(6) 0.4353(4) 0.0940(3)
H35 H -0.0899 0.4793 0.0941
H36 H -0.1639 0.4316 0.1223
C22 C -0.1754(6) 0.4247(4) 0.0467(3)
H37 H -0.2322 0.4548 0.0454
H38 H -0.2015 0.3801 0.0459
C23 C 0.0002(5) 0.3823(4) 0.0106(3)
H39 H -0.0254 0.3377 0.0085
H40 H 0.0554 0.3865 -0.0131
C24 C 0.0389(6) 0.3947(4) 0.0625(3)
H41 H 0.0922 0.3635 0.0700
H42 H 0.0673 0.4387 0.0643
Cu2G Cu 0.23327(7) 0.58040(4) 0.16025(3)
Cu4C Cu -0.17969(7) 0.39252(5) -0.07054(4)
S2G S 0.24393(15) 0.00780(9) 0.22230(7)
S4C S 0.40347(16) 0.06211(10) 0.00600(8)
loop_
_geom_bond_atom_site_label_1
_geom_bond_atom_site_label_2
_geom_bond_site_symmetry_1
_geom_bond_site_symmetry_2
Cu1 I1 1_555 1_555
Cu2 I1 1_555 1_555
Cu3 I1 1_555 1_555
Cu4 I2 1_555 1_555
I2 Cu1 1_555 1_555
I3 Cu1 1_555 1_555
I4 Cu2 1_555 1_555
S1 Cu1 1_555 1_555
S2 C10 1_555 1_555
S3 Cu3 1_555 1_555
S4 C22 1_555 1_555
O1 C8 1_555 1_555
O2 C20 1_555 1_555
N1 C8 1_555 1_555
N2 C20 1_555 1_555
C1 H1 1_555 1_555
H2 C1 1_555 1_555
C2 C1 1_555 1_555
H3 C2 1_555 1_555
H4 C2 1_555 1_555
C3 C2 1_555 1_555
H5 C3 1_555 1_555
H6 C3 1_555 1_555
C4 C3 1_555 1_555
H7 C4 1_555 1_555
H8 C4 1_555 1_555
C5 C4 1_555 1_555
H9 C5 1_555 1_555
H10 C5 1_555 1_555
C6 S1 1_555 1_555
H11 C6 1_555 1_555
C7 S1 1_555 1_555
H12 C7 1_555 1_555
H13 C7 1_555 1_555
C8 C7 1_555 1_555
C9 N1 1_555 1_555
H14 C9 1_555 1_555
H15 C9 1_555 1_555
C10 C9 1_555 1_555
H16 C10 1_555 1_555
H17 C10 1_555 1_555
C11 S2 1_555 1_555
H18 C11 1_555 1_555
H19 C11 1_555 1_555
C12 N1 1_555 1_555
H20 C12 1_555 1_555
H21 C12 1_555 1_555
C13 H22 1_555 1_555
H23 C13 1_555 1_555
C14 C13 1_555 1_555
H24 C14 1_555 1_555
H25 C14 1_555 1_555
C15 C14 1_555 1_555
H26 C15 1_555 1_555
H27 C15 1_555 1_555
C16 C15 1_555 1_555
H28 C16 1_555 1_555
H29 C16 1_555 1_555
C17 C16 1_555 1_555
H30 C17 1_555 1_555
H31 C17 1_555 1_555
C18 S3 1_555 1_555
H32 C18 1_555 1_555
C19 S3 1_555 1_555
H33 C19 1_555 1_555
H34 C19 1_555 1_555
C20 C19 1_555 1_555
C21 N2 1_555 1_555
H35 C21 1_555 1_555
H36 C21 1_555 1_555
C22 C21 1_555 1_555
H37 C22 1_555 1_555
H38 C22 1_555 1_555
C23 S4 1_555 1_555
H39 C23 1_555 1_555
H40 C23 1_555 1_555
C24 N2 1_555 1_555
H41 C24 1_555 1_555
H42 C24 1_555 1_555
Cu2G S2 1_555 1_555
Cu4C S4 1_555 1_555
S2G Cu2 1_555 1_555
S4C Cu4 1_555 1_555
Cu2 I2 1_555 1_555
Cu3 I3 1_555 1_555
Cu3 I4 1_555 1_555
Cu4 I3 1_555 1_555
Cu4 I4 1_555 1_555
C1 C6 1_555 1_555
C5 C6 1_555 1_555
C11 C12 1_555 1_555
C13 C18 1_555 1_555
C17 C18 1_555 1_555
C23 C24 1_555 1_555

#END
