
#######################################################################
#
#                 Cambridge Crystallographic Data Centre
#                                CCDC 
#
#######################################################################
#
# If this CIF has been generated from an entry in the Cambridge 
# Structural Database, then it will include bibliographic, chemical, 
# crystal, experimental, refinement or atomic coordinate data resulting 
# from the CCDC's data processing and validation procedures.
#
#######################################################################

data_CIVXUB02
_symmetry_cell_setting           triclinic
_symmetry_space_group_name_H-M   'P -1'
_symmetry_Int_Tables_number      2
_space_group_name_Hall           '-P 1'
loop_
_symmetry_equiv_pos_site_id
_symmetry_equiv_pos_as_xyz
1 x,y,z
2 -x,-y,-z
_cell_length_a                   11.3299(4)
_cell_length_b                   14.1649(5)
_cell_length_c                   15.2775(5)
_cell_angle_alpha                93.8840(10)
_cell_angle_beta                 101.8140(10)
_cell_angle_gamma                100.6520(10)
_cell_volume                     2344.3
loop_
_atom_site_label
_atom_site_type_symbol
_atom_site_fract_x
_atom_site_fract_y
_atom_site_fract_z
Cu1 Cu 0.80463(8) 0.21550(6) 0.29982(6)
Cu2 Cu 0.69241(8) 0.14010(7) 0.43327(6)
Cu3 Cu 0.57653(8) 0.23488(6) 0.30324(6)
Cu4 Cu 0.76997(8) 0.33907(6) 0.43313(6)
I1 I 0.61297(4) 0.05964(3) 0.26458(3)
I2 I 0.93223(4) 0.22597(3) 0.47644(3)
I3 I 0.74356(4) 0.38156(3) 0.26450(3)
I4 I 0.55968(4) 0.26442(3) 0.48120(3)
S1 S 0.95733(15) 0.17657(12) 0.23301(12)
S2 S 1.33152(16) -0.01644(13) 0.47689(13)
S3 S 0.38390(16) 0.26287(12) 0.24386(12)
S4 S 0.15229(16) 0.51362(13) 0.48082(14)
O1 O 1.0539(5) -0.0358(4) 0.1664(4)
O2 O 0.2521(7) 0.4597(5) 0.1775(5)
N1 N 1.1635(5) 0.0336(4) 0.3036(4)
N2 N 0.2190(5) 0.4188(4) 0.3116(5)
C1 C 0.7763(7) 0.1375(6) 0.0717(5)
H1 H 0.7340 0.1839 0.0963
H2 H 0.7457 0.0738 0.0892
C2 C 0.7488(8) 0.1334(7) -0.0301(6)
H3 H 0.7851 0.0828 -0.0547
H4 H 0.6594 0.1164 -0.0536
C3 C 0.7989(10) 0.2281(7) -0.0602(6)
H5 H 0.7541 0.2766 -0.0428
H6 H 0.7854 0.2211 -0.1260
C4 C 0.9350(10) 0.2629(8) -0.0199(7)
H7 H 0.9810 0.2202 -0.0456
H8 H 0.9614 0.3280 -0.0361
C5 C 0.9655(9) 0.2652(6) 0.0812(6)
H9 H 0.9308 0.3155 0.1079
H10 H 1.0551 0.2811 0.1034
C6 C 0.9138(7) 0.1676(5) 0.1096(5)
H11 H 0.9540 0.1187 0.0851
C7 C 0.9480(6) 0.0507(5) 0.2519(5)
H12 H 0.9400 0.0433 0.3139
H13 H 0.8738 0.0117 0.2115
C8 C 1.0589(6) 0.0129(5) 0.2363(5)
C9 C 1.2705(7) -0.0065(6) 0.2923(5)
H14 H 1.3422 0.0461 0.2979
H15 H 1.2537 -0.0417 0.2322
C10 C 1.2984(7) -0.0744(5) 0.3633(5)
H16 H 1.3691 -0.1014 0.3541
H17 H 1.2275 -0.1282 0.3554
C11 C 1.1973(7) 0.0367(6) 0.4674(5)
H18 H 1.1241 -0.0146 0.4611
H19 H 1.2050 0.0791 0.5226
C12 C 1.1810(6) 0.0944(5) 0.3880(5)
H20 H 1.1094 0.1244 0.3868
H21 H 1.2537 0.1462 0.3945
C13 C 0.2685(8) 0.1435(6) 0.0927(6)
H22 H 0.3173 0.0965 0.1157
H23 H 0.1956 0.1357 0.1187
C14 C 0.2293(9) 0.1249(7) -0.0084(6)
H24 H 0.1765 0.1694 -0.0310
H25 H 0.1817 0.0587 -0.0257
C15 C 0.3418(10) 0.1388(7) -0.0501(6)
H26 H 0.3918 0.0914 -0.0304
H27 H 0.3149 0.1276 -0.1158
C16 C 0.4189(9) 0.2397(7) -0.0231(6)
H28 H 0.3715 0.2868 -0.0479
H29 H 0.4926 0.2458 -0.0481
C17 C 0.4569(8) 0.2612(7) 0.0795(5)
H30 H 0.5122 0.2190 0.1037
H31 H 0.5017 0.3284 0.0956
C18 C 0.3447(7) 0.2454(5) 0.1205(5)
H32 H 0.2929 0.2918 0.0987
C19 C 0.4082(6) 0.3934(5) 0.2655(6)
H33 H 0.4510 0.4140 0.3283
H34 H 0.4602 0.4237 0.2270
C20 C 0.2855(7) 0.4265(6) 0.2470(6)
C21 C 0.2538(7) 0.3808(5) 0.3980(5)
H35 H 0.3260 0.3518 0.3986
H36 H 0.1860 0.3303 0.4058
C22 C 0.2827(7) 0.4602(5) 0.4741(5)
H37 H 0.3505 0.5103 0.4660
H38 H 0.3099 0.4341 0.5309
C23 C 0.1162(7) 0.5407(6) 0.3662(5)
H39 H 0.0387 0.5638 0.3555
H40 H 0.1810 0.5930 0.3572
C24 C 0.1042(7) 0.4539(6) 0.2976(6)
H41 H 0.0368 0.4023 0.3040
H42 H 0.0848 0.4727 0.2366
Cu2A Cu 1.30759(8) -0.14010(7) 0.56673(6)
Cu4A Cu 0.23003(8) 0.66093(6) 0.56687(6)
S2A S 0.66848(16) 0.01644(13) 0.52311(13)
S4A S 0.84771(16) 0.48638(13) 0.51918(14)
C27 C 0.203(4) 0.488(3) 0.977(3)
H46 H 0.1520 0.4931 0.9193
H47 H 0.1871 0.5323 1.0228
H48 H 0.1851 0.4227 0.9927
C28 C 0.304(9) 0.508(5) 0.974(6)
N4 N 0.426(3) 0.506(3) 0.996(3)
C35 C 0.474(5) 0.710(4) 0.254(4)
H63 H 0.5121 0.7783 0.2663
H64 H 0.4009 0.6979 0.2782
H65 H 0.4522 0.6919 0.1894
C36 C 0.557(3) 0.656(2) 0.294(2)
H66 H 0.5792 0.6753 0.3590
H67 H 0.5158 0.5876 0.2845
C37 C 0.663(3) 0.664(4) 0.263(4)
H68 H 0.6347 0.6710 0.1995
H69 H 0.6784 0.5979 0.2639
C38 C 0.782(4) 0.719(4) 0.282(3)
H70 H 0.7803 0.7826 0.2615
H71 H 0.8144 0.7284 0.3477
C39 C 0.840(4) 0.687(3) 0.252(3)
H72 H 0.7930 0.6618 0.1916
H73 H 0.8516 0.6304 0.2843
C40 C 0.966(3) 0.734(3) 0.242(3)
H74 H 0.9632 0.7957 0.2191
H75 H 0.9929 0.6923 0.1998
H76 H 1.0239 0.7432 0.2997
C25? C 0.314(7) 0.504(3) 0.990(5)
H43? H 0.3219 0.4573 1.0335
H44? H 0.3514 0.5685 1.0205
H45? H 0.3556 0.4898 0.9430
C26? C 0.165(3) 0.499(3) 0.946(3)
N3? N 0.062(2) 0.4871(19) 0.916(2)
C29? C 0.421(3) 0.693(3) 0.249(3)
H49? H 0.3927 0.6940 0.1852
H50? H 0.3770 0.7304 0.2817
H51? H 0.4050 0.6263 0.2635
C30? C 0.547(3) 0.731(4) 0.275(4)
H52? H 0.5709 0.7195 0.2177
H53? H 0.5460 0.8004 0.2804
C31? C 0.657(3) 0.731(3) 0.335(3)
H54? H 0.6687 0.6645 0.3360
H55? H 0.6497 0.7539 0.3952
C32? C 0.762(3) 0.788(3) 0.316(3)
H56? H 0.7213 0.8319 0.2797
H57? H 0.7939 0.8256 0.3754
C33? C 0.869(3) 0.801(3) 0.287(3)
H58? H 0.9353 0.8233 0.3404
H59? H 0.8677 0.8566 0.2512
C34? C 0.909(5) 0.733(4) 0.237(3)
H60? H 0.8773 0.6693 0.2516
H61? H 0.9981 0.7458 0.2510
H62? H 0.8790 0.7370 0.1733
loop_
_geom_bond_atom_site_label_1
_geom_bond_atom_site_label_2
_geom_bond_site_symmetry_1
_geom_bond_site_symmetry_2
Cu1 I1 1_555 1_555
Cu2 I1 1_555 1_555
Cu3 I1 1_555 1_555
Cu4 I2 1_555 1_555
I2 Cu1 1_555 1_555
I3 Cu1 1_555 1_555
I4 Cu2 1_555 1_555
S1 Cu1 1_555 1_555
S2 C10 1_555 1_555
S3 Cu3 1_555 1_555
S4 C22 1_555 1_555
O1 C8 1_555 1_555
O2 C20 1_555 1_555
N1 C8 1_555 1_555
N2 C20 1_555 1_555
C1 H1 1_555 1_555
H2 C1 1_555 1_555
C2 C1 1_555 1_555
H3 C2 1_555 1_555
H4 C2 1_555 1_555
C3 C2 1_555 1_555
H5 C3 1_555 1_555
H6 C3 1_555 1_555
C4 C3 1_555 1_555
H7 C4 1_555 1_555
H8 C4 1_555 1_555
C5 C4 1_555 1_555
H9 C5 1_555 1_555
H10 C5 1_555 1_555
C6 S1 1_555 1_555
H11 C6 1_555 1_555
C7 S1 1_555 1_555
H12 C7 1_555 1_555
H13 C7 1_555 1_555
C8 C7 1_555 1_555
C9 N1 1_555 1_555
H14 C9 1_555 1_555
H15 C9 1_555 1_555
C10 C9 1_555 1_555
H16 C10 1_555 1_555
H17 C10 1_555 1_555
C11 S2 1_555 1_555
H18 C11 1_555 1_555
H19 C11 1_555 1_555
C12 N1 1_555 1_555
H20 C12 1_555 1_555
H21 C12 1_555 1_555
C13 H22 1_555 1_555
H23 C13 1_555 1_555
C14 C13 1_555 1_555
H24 C14 1_555 1_555
H25 C14 1_555 1_555
C15 C14 1_555 1_555
H26 C15 1_555 1_555
H27 C15 1_555 1_555
C16 C15 1_555 1_555
H28 C16 1_555 1_555
H29 C16 1_555 1_555
C17 C16 1_555 1_555
H30 C17 1_555 1_555
H31 C17 1_555 1_555
C18 S3 1_555 1_555
H32 C18 1_555 1_555
C19 S3 1_555 1_555
H33 C19 1_555 1_555
H34 C19 1_555 1_555
C20 C19 1_555 1_555
C21 N2 1_555 1_555
H35 C21 1_555 1_555
H36 C21 1_555 1_555
C22 C21 1_555 1_555
H37 C22 1_555 1_555
H38 C22 1_555 1_555
C23 S4 1_555 1_555
H39 C23 1_555 1_555
H40 C23 1_555 1_555
C24 N2 1_555 1_555
H41 C24 1_555 1_555
H42 C24 1_555 1_555
C27 H46 1_555 1_555
H47 C27 1_555 1_555
H48 C27 1_555 1_555
C28 C27 1_555 1_555
N4 C28 1_555 1_555
C35 H63 1_555 1_555
H64 C35 1_555 1_555
H65 C35 1_555 1_555
C36 C35 1_555 1_555
H66 C36 1_555 1_555
H67 C36 1_555 1_555
C37 C36 1_555 1_555
H68 C37 1_555 1_555
H69 C37 1_555 1_555
C38 C37 1_555 1_555
H70 C38 1_555 1_555
H71 C38 1_555 1_555
C39 C38 1_555 1_555
H72 C39 1_555 1_555
H73 C39 1_555 1_555
C40 C39 1_555 1_555
H74 C40 1_555 1_555
H75 C40 1_555 1_555
H76 C40 1_555 1_555
Cu2A S2 1_555 1_555
Cu4A S4 1_555 1_555
S2A Cu2 1_555 1_555
S4A Cu4 1_555 1_555
Cu2 I2 1_555 1_555
Cu3 I3 1_555 1_555
Cu3 I4 1_555 1_555
Cu4 I3 1_555 1_555
Cu4 I4 1_555 1_555
C1 C6 1_555 1_555
C5 C6 1_555 1_555
C11 C12 1_555 1_555
C13 C18 1_555 1_555
C17 C18 1_555 1_555
C23 C24 1_555 1_555

#END
