
#######################################################################
#
#                 Cambridge Crystallographic Data Centre
#                                CCDC 
#
#######################################################################
#
# If this CIF has been generated from an entry in the Cambridge 
# Structural Database, then it will include bibliographic, chemical, 
# crystal, experimental, refinement or atomic coordinate data resulting 
# from the CCDC's data processing and validation procedures.
#
#######################################################################

data_CIVXUB
_symmetry_cell_setting           triclinic
_symmetry_space_group_name_H-M   'P -1'
_symmetry_Int_Tables_number      2
_space_group_name_Hall           '-P 1'
loop_
_symmetry_equiv_pos_site_id
_symmetry_equiv_pos_as_xyz
1 x,y,z
2 -x,-y,-z
_cell_length_a                   11.2778(3)
_cell_length_b                   14.0507(4)
_cell_length_c                   15.2067(4)
_cell_angle_alpha                93.7060(10)
_cell_angle_beta                 102.6370(10)
_cell_angle_gamma                100.2410(10)
_cell_volume                     2300.35
loop_
_atom_site_label
_atom_site_type_symbol
_atom_site_fract_x
_atom_site_fract_y
_atom_site_fract_z
Cu1 Cu 0.80294(6) 0.21577(5) 0.29751(5)
Cu2 Cu 0.69217(6) 0.14043(5) 0.42999(5)
Cu3 Cu 0.57506(6) 0.23590(5) 0.30003(5)
Cu4 Cu 0.76960(6) 0.33899(5) 0.42994(5)
I1 I 0.61144(3) 0.05941(3) 0.26018(3)
I2 I 0.93326(3) 0.22458(3) 0.47553(3)
I3 I 0.73940(3) 0.38277(3) 0.26059(3)
I4 I 0.56027(3) 0.26575(3) 0.47920(3)
S1 S 0.95590(12) 0.17735(10) 0.23061(10)
S2 S 1.33387(13) -0.01505(10) 0.48078(10)
S3 S 0.38034(13) 0.26478(10) 0.24216(10)
S4 S 0.15082(13) 0.51318(11) 0.48316(11)
O1 O 1.0573(4) -0.0367(3) 0.1656(3)
O2 O 0.2424(5) 0.4633(4) 0.1753(4)
N1 N 1.1676(4) 0.0361(4) 0.3036(3)
N2 N 0.2140(4) 0.4199(4) 0.3112(3)
C1 C 0.7704(5) 0.1369(5) 0.0684(4)
H1 H 0.7277 0.1843 0.0933
H2 H 0.7411 0.0725 0.0873
C2 C 0.7388(6) 0.1313(5) -0.0347(4)
H3 H 0.7774 0.0811 -0.0598
H4 H 0.6479 0.1124 -0.0581
C3 C 0.7855(7) 0.2290(5) -0.0649(5)
H5 H 0.7406 0.2777 -0.0449
H6 H 0.7684 0.2234 -0.1319
C4 C 0.9244(7) 0.2632(5) -0.0255(5)
H7 H 0.9697 0.2188 -0.0516
H8 H 0.9510 0.3290 -0.0427
C5 C 0.9574(6) 0.2662(5) 0.0771(4)
H9 H 0.9206 0.3165 0.1039
H10 H 1.0485 0.2838 0.0998
C6 C 0.9096(5) 0.1680(4) 0.1059(4)
H11 H 0.9510 0.1188 0.0808
C7 C 0.9478(5) 0.0504(4) 0.2500(4)
H12 H 0.9396 0.0427 0.3128
H13 H 0.8731 0.0106 0.2082
C8 C 1.0618(5) 0.0132(4) 0.2358(4)
C9 C 1.2759(5) -0.0032(5) 0.2947(4)
H14 H 1.3482 0.0506 0.3021
H15 H 1.2605 -0.0383 0.2335
C10 C 1.3041(5) -0.0727(4) 0.3661(4)
H16 H 1.3773 -0.0991 0.3584
H17 H 1.2329 -0.1280 0.3564
C11 C 1.1968(5) 0.0378(4) 0.4689(4)
H18 H 1.1228 -0.0146 0.4608
H19 H 1.2030 0.0804 0.5249
C12 C 1.1823(5) 0.0967(4) 0.3885(4)
H20 H 1.1089 0.1271 0.3852
H21 H 1.2561 0.1494 0.3970
C13 C 0.2627(6) 0.1432(4) 0.0910(4)
H22 H 0.3147 0.0967 0.1153
H23 H 0.1887 0.1339 0.1169
C14 C 0.2229(6) 0.1235(5) -0.0111(5)
H24 H 0.1670 0.1675 -0.0349
H25 H 0.1765 0.0557 -0.0283
C15 C 0.3358(7) 0.1391(5) -0.0534(5)
H26 H 0.3899 0.0929 -0.0320
H27 H 0.3078 0.1263 -0.1202
C16 C 0.4080(7) 0.2424(6) -0.0274(5)
H28 H 0.3562 0.2881 -0.0538
H29 H 0.4827 0.2507 -0.0525
C17 C 0.4469(6) 0.2661(5) 0.0756(4)
H30 H 0.5071 0.2259 0.1012
H31 H 0.4884 0.3353 0.0908
C18 C 0.3359(5) 0.2470(4) 0.1184(4)
H32 H 0.2801 0.2928 0.0969
C19 C 0.4040(5) 0.3962(4) 0.2637(4)
H33 H 0.4499 0.4172 0.3273
H34 H 0.4546 0.4269 0.2236
C20 C 0.2800(6) 0.4298(5) 0.2465(5)
C21 C 0.2514(5) 0.3802(4) 0.3972(4)
H35 H 0.3243 0.3501 0.3965
H36 H 0.1830 0.3289 0.4049
C22 C 0.2836(5) 0.4594(4) 0.4761(4)
H37 H 0.3521 0.5105 0.4685
H38 H 0.3121 0.4315 0.5333
C23 C 0.1117(6) 0.5425(5) 0.3678(4)
H39 H 0.0328 0.5664 0.3573
H40 H 0.1770 0.5955 0.3587
C24 C 0.0983(5) 0.4556(5) 0.2991(5)
H41 H 0.0312 0.4031 0.3066
H42 H 0.0755 0.4746 0.2370
Cu2A Cu 1.30783(6) -0.14043(5) 0.57001(5)
Cu4A Cu 0.23040(6) 0.66101(5) 0.57006(5)
S2A S 0.66613(13) 0.01505(10) 0.51922(10)
S4A S 0.84918(13) 0.48682(11) 0.51684(11)
C27 C 0.183(2) 0.4926(17) 0.9744(13)
H46 H 0.1442 0.5006 0.9118
H47 H 0.1662 0.5421 1.0158
H48 H 0.1497 0.4277 0.9885
C28 C 0.301(4) 0.503(3) 0.983(2)
N4 N 0.4140(18) 0.5153(14) 1.0008(17)
C35 C 0.471(2) 0.7108(17) 0.2501(15)
H63 H 0.5195 0.7748 0.2455
H64 H 0.4044 0.7188 0.2798
H65 H 0.4359 0.6765 0.1892
C36 C 0.5527(17) 0.6540(16) 0.3036(15)
H66 H 0.5757 0.6774 0.3691
H67 H 0.5171 0.5834 0.2945
C37 C 0.6487(16) 0.6773(16) 0.2627(14)
H68 H 0.6072 0.7042 0.2083
H69 H 0.6567 0.6117 0.2397
C38 C 0.7774(17) 0.7310(17) 0.2757(16)
H70 H 0.7759 0.7870 0.2394
H71 H 0.8079 0.7577 0.3402
C39 C 0.8445(17) 0.6899(13) 0.2576(13)
H72 H 0.8019 0.6504 0.1993
H73 H 0.8567 0.6433 0.3034
C40 C 0.9807(18) 0.7369(16) 0.2469(14)
H74 H 0.9817 0.8032 0.2302
H75 H 1.0022 0.6974 0.1994
H76 H 1.0410 0.7386 0.3044
C25? C 0.318(5) 0.513(4) 0.989(4)
H43? H 0.3307 0.4799 1.0437
H44? H 0.3508 0.5828 1.0041
H45? H 0.3606 0.4867 0.9459
C26? C 0.162(4) 0.494(3) 0.940(2)
N3? N 0.0663(15) 0.4860(12) 0.9135(13)
C29? C 0.4179(15) 0.6785(14) 0.2682(14)
H49? H 0.3970 0.6445 0.2068
H50? H 0.3592 0.7212 0.2727
H51? H 0.4131 0.6307 0.3121
C30? C 0.5469(15) 0.7381(15) 0.2879(14)
H52? H 0.5712 0.7308 0.2295
H53? H 0.5342 0.8058 0.2948
C31? C 0.6641(17) 0.740(2) 0.3567(16)
H54? H 0.6695 0.7832 0.4119
H55? H 0.6701 0.6736 0.3737
C32? C 0.761(2) 0.777(2) 0.3107(18)
H56? H 0.7216 0.7362 0.2525
H57? H 0.7347 0.8396 0.3007
C33? C 0.878(3) 0.806(2) 0.289(3)
H58? H 0.9417 0.8264 0.3466
H59? H 0.8750 0.8632 0.2551
C34? C 0.920(2) 0.7329(18) 0.2363(16)
H60? H 0.8731 0.6681 0.2399
H61? H 1.0084 0.7353 0.2608
H62? H 0.9061 0.7467 0.1729
loop_
_geom_bond_atom_site_label_1
_geom_bond_atom_site_label_2
_geom_bond_site_symmetry_1
_geom_bond_site_symmetry_2
Cu1 I1 1_555 1_555
Cu2 I1 1_555 1_555
Cu3 I1 1_555 1_555
Cu4 I2 1_555 1_555
I2 Cu1 1_555 1_555
I3 Cu1 1_555 1_555
I4 Cu2 1_555 1_555
S1 Cu1 1_555 1_555
S2 C10 1_555 1_555
S3 Cu3 1_555 1_555
S4 C22 1_555 1_555
O1 C8 1_555 1_555
O2 C20 1_555 1_555
N1 C8 1_555 1_555
N2 C20 1_555 1_555
C1 H1 1_555 1_555
H2 C1 1_555 1_555
C2 C1 1_555 1_555
H3 C2 1_555 1_555
H4 C2 1_555 1_555
C3 C2 1_555 1_555
H5 C3 1_555 1_555
H6 C3 1_555 1_555
C4 C3 1_555 1_555
H7 C4 1_555 1_555
H8 C4 1_555 1_555
C5 C4 1_555 1_555
H9 C5 1_555 1_555
H10 C5 1_555 1_555
C6 S1 1_555 1_555
H11 C6 1_555 1_555
C7 S1 1_555 1_555
H12 C7 1_555 1_555
H13 C7 1_555 1_555
C8 C7 1_555 1_555
C9 N1 1_555 1_555
H14 C9 1_555 1_555
H15 C9 1_555 1_555
C10 C9 1_555 1_555
H16 C10 1_555 1_555
H17 C10 1_555 1_555
C11 S2 1_555 1_555
H18 C11 1_555 1_555
H19 C11 1_555 1_555
C12 N1 1_555 1_555
H20 C12 1_555 1_555
H21 C12 1_555 1_555
C13 H22 1_555 1_555
H23 C13 1_555 1_555
C14 C13 1_555 1_555
H24 C14 1_555 1_555
H25 C14 1_555 1_555
C15 C14 1_555 1_555
H26 C15 1_555 1_555
H27 C15 1_555 1_555
C16 C15 1_555 1_555
H28 C16 1_555 1_555
H29 C16 1_555 1_555
C17 C16 1_555 1_555
H30 C17 1_555 1_555
H31 C17 1_555 1_555
C18 S3 1_555 1_555
H32 C18 1_555 1_555
C19 S3 1_555 1_555
H33 C19 1_555 1_555
H34 C19 1_555 1_555
C20 C19 1_555 1_555
C21 N2 1_555 1_555
H35 C21 1_555 1_555
H36 C21 1_555 1_555
C22 C21 1_555 1_555
H37 C22 1_555 1_555
H38 C22 1_555 1_555
C23 S4 1_555 1_555
H39 C23 1_555 1_555
H40 C23 1_555 1_555
C24 N2 1_555 1_555
H41 C24 1_555 1_555
H42 C24 1_555 1_555
C27 H46 1_555 1_555
H47 C27 1_555 1_555
H48 C27 1_555 1_555
C28 C27 1_555 1_555
N4 C28 1_555 1_555
C35 H63 1_555 1_555
H64 C35 1_555 1_555
H65 C35 1_555 1_555
C36 C35 1_555 1_555
H66 C36 1_555 1_555
H67 C36 1_555 1_555
C37 C36 1_555 1_555
H68 C37 1_555 1_555
H69 C37 1_555 1_555
C38 C37 1_555 1_555
H70 C38 1_555 1_555
H71 C38 1_555 1_555
C39 C38 1_555 1_555
H72 C39 1_555 1_555
H73 C39 1_555 1_555
C40 C39 1_555 1_555
H74 C40 1_555 1_555
H75 C40 1_555 1_555
H76 C40 1_555 1_555
Cu2A S2 1_555 1_555
Cu4A S4 1_555 1_555
S2A Cu2 1_555 1_555
S4A Cu4 1_555 1_555
Cu2 I2 1_555 1_555
Cu3 I3 1_555 1_555
Cu3 I4 1_555 1_555
Cu4 I3 1_555 1_555
Cu4 I4 1_555 1_555
C1 C6 1_555 1_555
C5 C6 1_555 1_555
C11 C12 1_555 1_555
C13 C18 1_555 1_555
C17 C18 1_555 1_555
C23 C24 1_555 1_555

#END
