
#######################################################################
#
#                 Cambridge Crystallographic Data Centre
#                                CCDC 
#
#######################################################################
#
# If this CIF has been generated from an entry in the Cambridge 
# Structural Database, then it will include bibliographic, chemical, 
# crystal, experimental, refinement or atomic coordinate data resulting 
# from the CCDC's data processing and validation procedures.
#
#######################################################################

data_CIVXUB03
_symmetry_cell_setting           triclinic
_symmetry_space_group_name_H-M   'P -1'
_symmetry_Int_Tables_number      2
_space_group_name_Hall           '-P 1'
loop_
_symmetry_equiv_pos_site_id
_symmetry_equiv_pos_as_xyz
1 x,y,z
2 -x,-y,-z
_cell_length_a                   11.3572(18)
_cell_length_b                   14.247(2)
_cell_length_c                   15.331(2)
_cell_angle_alpha                94.143(3)
_cell_angle_beta                 101.578(3)
_cell_angle_gamma                100.526(3)
_cell_volume                     2373.95
loop_
_atom_site_label
_atom_site_type_symbol
_atom_site_fract_x
_atom_site_fract_y
_atom_site_fract_z
Cu1 Cu 0.80590(18) 0.21495(13) 0.30127(13)
Cu2 Cu 0.69316(18) 0.13979(14) 0.43587(13)
Cu3 Cu 0.57722(17) 0.23365(13) 0.30559(13)
Cu4 Cu 0.77043(18) 0.33889(13) 0.43496(14)
I1 I 0.61509(9) 0.05979(7) 0.26757(7)
I2 I 0.93181(9) 0.22640(7) 0.47710(7)
I3 I 0.74448(9) 0.37951(7) 0.26709(7)
I4 I 0.55997(9) 0.26380(7) 0.48229(7)
S1 S 0.9586(3) 0.1761(2) 0.2345(3)
S2 S 1.3298(4) -0.0176(3) 0.4748(3)
S3 S 0.3857(3) 0.2606(2) 0.2448(3)
S4 S 0.1533(4) 0.5141(3) 0.4801(3)
O1 O 1.0524(11) -0.0340(9) 0.1664(8)
O2 O 0.2532(13) 0.4557(10) 0.1786(9)
N1 N 1.1637(11) 0.0345(9) 0.3044(9)
N2 N 0.2211(12) 0.4186(9) 0.3118(10)
C1 C 0.7775(15) 0.1349(12) 0.0753(11)
H1 H 0.7344 0.1794 0.1003
H2 H 0.7503 0.0716 0.0924
C2 C 0.7535(19) 0.1323(14) -0.0278(12)
H3 H 0.7904 0.0828 -0.0519
H4 H 0.6658 0.1156 -0.0525
C3 C 0.804(2) 0.2251(18) -0.0557(15)
H5 H 0.7574 0.2719 -0.0397
H6 H 0.7925 0.2182 -0.1205
C4 C 0.937(2) 0.2633(15) -0.0151(14)
H7 H 0.9858 0.2242 -0.0413
H8 H 0.9600 0.3283 -0.0298
C5 C 0.9666(17) 0.2637(12) 0.0820(12)
H9 H 0.9349 0.3141 0.1098
H10 H 1.0550 0.2764 0.1038
C6 C 0.9100(15) 0.1668(9) 0.1071(10)
H11 H 0.9492 0.1184 0.0822
C7 C 0.9492(14) 0.0521(10) 0.2534(11)
H12 H 0.9405 0.0453 0.3144
H13 H 0.8762 0.0138 0.2135
C8 C 1.0600(13) 0.0133(10) 0.2385(10)
C9 C 1.2686(14) -0.0080(11) 0.2913(11)
H14 H 1.3407 0.0423 0.2966
H15 H 1.2505 -0.0431 0.2320
C10 C 1.2933(14) -0.0771(11) 0.3635(9)
H16 H 1.3607 -0.1068 0.3541
H17 H 1.2212 -0.1277 0.3567
C11 C 1.1962(14) 0.0370(10) 0.4677(9)
H18 H 1.1234 -0.0126 0.4623
H19 H 1.2054 0.0797 0.5220
C12 C 1.1817(13) 0.0930(9) 0.3877(10)
H20 H 1.1122 0.1240 0.3866
H21 H 1.2544 0.1430 0.3942
C13 C 0.2734(16) 0.1429(12) 0.0954(13)
H22 H 0.2035 0.1352 0.1236
H23 H 0.3221 0.0961 0.1153
C14 C 0.230(2) 0.1267(17) -0.0048(15)
H24 H 0.1792 0.1725 -0.0244
H25 H 0.1803 0.0625 -0.0224
C15 C 0.339(2) 0.1387(14) -0.0488(14)
H26 H 0.3100 0.1308 -0.1134
H27 H 0.3852 0.0892 -0.0332
C16 C 0.422(2) 0.2371(18) -0.0193(14)
H28 H 0.4955 0.2403 -0.0435
H29 H 0.3802 0.2864 -0.0428
C17 C 0.4589(17) 0.2560(14) 0.0823(11)
H30 H 0.5113 0.2127 0.1052
H31 H 0.5049 0.3213 0.0998
C18 C 0.3489(14) 0.2419(12) 0.1218(11)
H32 H 0.2985 0.2878 0.0996
C19 C 0.4106(14) 0.3902(10) 0.2683(11)
H33 H 0.4510 0.4097 0.3307
H34 H 0.4631 0.4208 0.2314
C20 C 0.2845(16) 0.4223(12) 0.2482(12)
C21 C 0.2565(14) 0.3811(11) 0.3983(12)
H35 H 0.3300 0.3552 0.3998
H36 H 0.1914 0.3298 0.4056
C22 C 0.2794(14) 0.4605(11) 0.4724(10)
H37 H 0.3465 0.5099 0.4648
H38 H 0.3059 0.4355 0.5287
C23 C 0.1169(15) 0.5386(12) 0.3658(11)
H39 H 0.0408 0.5620 0.3553
H40 H 0.1810 0.5890 0.3557
C24 C 0.1035(16) 0.4511(12) 0.2995(11)
H41 H 0.0397 0.4001 0.3090
H42 H 0.0804 0.4671 0.2388
Cu2A Cu 1.30684(18) -0.13979(14) 0.56413(13)
Cu4A Cu 0.22957(18) 0.66111(13) 0.56504(14)
S2A S 0.6702(4) 0.0176(3) 0.5252(3)
S4A S 0.8467(4) 0.4859(3) 0.5199(3)
C27 C 0.201(7) 0.515(4) 0.988(4)
H46 H 0.1514 0.5270 0.9336
H47 H 0.1970 0.5603 1.0366
H48 H 0.1714 0.4509 1.0012
C28 C 0.299(12) 0.522(8) 0.981(9)
N4 N 0.431(7) 0.511(7) 1.000(6)
C35 C 0.460(8) 0.666(8) 0.239(7)
H63 H 0.3988 0.6314 0.2660
H64 H 0.4496 0.6391 0.1784
H65 H 0.4530 0.7324 0.2403
C36 C 0.567(7) 0.661(5) 0.283(5)
H66 H 0.5607 0.5951 0.2969
H67 H 0.5789 0.7000 0.3402
C37 C 0.668(7) 0.683(18) 0.257(13)
H68 H 0.6428 0.6446 0.1988
H69 H 0.6617 0.7474 0.2427
C38 C 0.785(6) 0.692(5) 0.267(5)
H70 H 0.8105 0.7608 0.2800
H71 H 0.8044 0.6675 0.3242
C39 C 0.871(9) 0.672(7) 0.233(6)
H72 H 0.8368 0.6554 0.1691
H73 H 0.8905 0.6146 0.2564
C40 C 0.973(5) 0.731(4) 0.240(4)
H74 H 0.9583 0.7887 0.2143
H75 H 1.0252 0.7021 0.2094
H76 H 1.0125 0.7476 0.3024
C25? C 0.317(11) 0.496(3) 0.972(5)
H43? H 0.3370 0.4741 1.0297
H44? H 0.3544 0.5627 0.9752
H45? H 0.3461 0.4591 0.9291
C26? C 0.165(7) 0.483(3) 0.940(5)
N3? N 0.052(5) 0.497(4) 0.921(4)
C29? C 0.428(5) 0.703(6) 0.255(5)
H49? H 0.4189 0.6588 0.2984
H50? H 0.4045 0.6694 0.1959
H51? H 0.3767 0.7493 0.2601
C30? C 0.540(5) 0.748(4) 0.270(4)
H52? H 0.5598 0.7534 0.2112
H53? H 0.5429 0.8122 0.2955
C31? C 0.630(6) 0.719(9) 0.318(7)
H54? H 0.6166 0.7205 0.3782
H55? H 0.6228 0.6516 0.2965
C32? C 0.742(8) 0.760(7) 0.324(6)
H56? H 0.7784 0.7048 0.3398
H57? H 0.7534 0.7978 0.3809
C33? C 0.835(7) 0.807(6) 0.299(5)
H58? H 0.8934 0.8401 0.3521
H59? H 0.8065 0.8567 0.2643
C34? C 0.892(7) 0.761(6) 0.252(5)
H60? H 0.8746 0.6939 0.2610
H61? H 0.9783 0.7856 0.2703
H62? H 0.8643 0.7672 0.1897
loop_
_geom_bond_atom_site_label_1
_geom_bond_atom_site_label_2
_geom_bond_site_symmetry_1
_geom_bond_site_symmetry_2
Cu1 I1 1_555 1_555
Cu2 I1 1_555 1_555
Cu3 I1 1_555 1_555
Cu4 I2 1_555 1_555
I2 Cu1 1_555 1_555
I3 Cu1 1_555 1_555
I4 Cu2 1_555 1_555
S1 Cu1 1_555 1_555
S2 C10 1_555 1_555
S3 Cu3 1_555 1_555
S4 C22 1_555 1_555
O1 C8 1_555 1_555
O2 C20 1_555 1_555
N1 C8 1_555 1_555
N2 C20 1_555 1_555
C1 H1 1_555 1_555
H2 C1 1_555 1_555
C2 C1 1_555 1_555
H3 C2 1_555 1_555
H4 C2 1_555 1_555
C3 C2 1_555 1_555
H5 C3 1_555 1_555
H6 C3 1_555 1_555
C4 C3 1_555 1_555
H7 C4 1_555 1_555
H8 C4 1_555 1_555
C5 C4 1_555 1_555
H9 C5 1_555 1_555
H10 C5 1_555 1_555
C6 S1 1_555 1_555
H11 C6 1_555 1_555
C7 S1 1_555 1_555
H12 C7 1_555 1_555
H13 C7 1_555 1_555
C8 C7 1_555 1_555
C9 N1 1_555 1_555
H14 C9 1_555 1_555
H15 C9 1_555 1_555
C10 C9 1_555 1_555
H16 C10 1_555 1_555
H17 C10 1_555 1_555
C11 S2 1_555 1_555
H18 C11 1_555 1_555
H19 C11 1_555 1_555
C12 N1 1_555 1_555
H20 C12 1_555 1_555
H21 C12 1_555 1_555
C13 H22 1_555 1_555
H23 C13 1_555 1_555
C14 C13 1_555 1_555
H24 C14 1_555 1_555
H25 C14 1_555 1_555
C15 C14 1_555 1_555
H26 C15 1_555 1_555
H27 C15 1_555 1_555
C16 C15 1_555 1_555
H28 C16 1_555 1_555
H29 C16 1_555 1_555
C17 C16 1_555 1_555
H30 C17 1_555 1_555
H31 C17 1_555 1_555
C18 S3 1_555 1_555
H32 C18 1_555 1_555
C19 S3 1_555 1_555
H33 C19 1_555 1_555
H34 C19 1_555 1_555
C20 C19 1_555 1_555
C21 N2 1_555 1_555
H35 C21 1_555 1_555
H36 C21 1_555 1_555
C22 C21 1_555 1_555
H37 C22 1_555 1_555
H38 C22 1_555 1_555
C23 S4 1_555 1_555
H39 C23 1_555 1_555
H40 C23 1_555 1_555
C24 N2 1_555 1_555
H41 C24 1_555 1_555
H42 C24 1_555 1_555
C27 H46 1_555 1_555
H47 C27 1_555 1_555
H48 C27 1_555 1_555
C28 C27 1_555 1_555
N4 C28 1_555 1_555
C35 H63 1_555 1_555
H64 C35 1_555 1_555
H65 C35 1_555 1_555
C36 C35 1_555 1_555
H66 C36 1_555 1_555
H67 C36 1_555 1_555
C37 C36 1_555 1_555
H68 C37 1_555 1_555
H69 C37 1_555 1_555
C38 C37 1_555 1_555
H70 C38 1_555 1_555
H71 C38 1_555 1_555
C39 C38 1_555 1_555
H72 C39 1_555 1_555
H73 C39 1_555 1_555
C40 C39 1_555 1_555
H74 C40 1_555 1_555
H75 C40 1_555 1_555
H76 C40 1_555 1_555
Cu2A S2 1_555 1_555
Cu4A S4 1_555 1_555
S2A Cu2 1_555 1_555
S4A Cu4 1_555 1_555
Cu2 I2 1_555 1_555
Cu3 I3 1_555 1_555
Cu3 I4 1_555 1_555
Cu4 I3 1_555 1_555
Cu4 I4 1_555 1_555
C1 C6 1_555 1_555
C5 C6 1_555 1_555
C11 C12 1_555 1_555
C13 C18 1_555 1_555
C17 C18 1_555 1_555
C23 C24 1_555 1_555

#END
