
#######################################################################
#
#                 Cambridge Crystallographic Data Centre
#                                CCDC 
#
#######################################################################
#
# If this CIF has been generated from an entry in the Cambridge 
# Structural Database, then it will include bibliographic, chemical, 
# crystal, experimental, refinement or atomic coordinate data resulting 
# from the CCDC's data processing and validation procedures.
#
#######################################################################

data_CIWBER
_symmetry_cell_setting           triclinic
_symmetry_space_group_name_H-M   'P -1'
_symmetry_Int_Tables_number      2
_space_group_name_Hall           '-P 1'
loop_
_symmetry_equiv_pos_site_id
_symmetry_equiv_pos_as_xyz
1 x,y,z
2 -x,-y,-z
_cell_length_a                   6.8596(12)
_cell_length_b                   7.9312(13)
_cell_length_c                   8.2366(14)
_cell_angle_alpha                78.544(2)
_cell_angle_beta                 82.112(2)
_cell_angle_gamma                86.246(2)
_cell_volume                     434.691
loop_
_atom_site_label
_atom_site_type_symbol
_atom_site_fract_x
_atom_site_fract_y
_atom_site_fract_z
C1 C 0.2918(9) 0.7533(8) 0.1194(8)
C2 C 0.2460(9) 0.9413(7) 0.0554(7)
C3 C 0.1737(10) 1.0510(9) 0.1652(8)
H1 H 0.1474 1.0070 0.2790
C4 C 0.1408(9) 1.2262(9) 0.1049(8)
C5 C 0.1801(10) 1.2938(8) -0.0658(8)
H2 H 0.1607 1.4109 -0.1061
C6 C 0.2488(9) 1.1830(8) -0.1747(7)
C7 C 0.2831(9) 1.0076(8) -0.1148(8)
H3 H 0.3307 0.9353 -0.1886
C8 C 0.2883(11) 1.2524(9) -0.3591(8)
O1 O 0.2703(8) 0.6974(6) 0.2757(6)
O2 O 0.3502(8) 0.6578(6) 0.0183(6)
O3 O 0.2855(10) 1.1539(7) -0.4604(7)
O4 O 0.3273(8) 1.4119(6) -0.4082(6)
O5 O 0.0679(8) 1.3391(6) 0.2186(7)
H4 H -0.0186 1.2919 0.2884
Pb1 Pb 0.43789(4) 0.41776(3) 0.28866(3)
O2A O 0.6498(8) 0.3422(6) -0.0183(6)
O3_2 O 0.2855(10) 0.1539(7) 0.5396(7)
O4_2 O 0.3273(8) 0.4119(6) 0.5918(6)
O4A O 0.6727(8) 0.5881(6) 0.4082(6)
O5_2 O 0.0679(8) 0.3391(6) 0.2186(7)
Pb1_2 Pb 0.43789(4) 1.41776(3) -0.71134(3)
Pb1_3 Pb 0.43789(4) 1.41776(3) 0.28866(3)
Pb1A Pb 0.56211(4) 0.58224(3) -0.28866(3)
Pb1A_2 Pb 0.56211(4) 1.58224(3) -0.28866(3)
O6 O 0.7734(9) 0.2002(7) 0.4238(7)
H5 H 0.7644 0.0963 0.4187
H6 H 0.7816 0.2084 0.5227
loop_
_geom_bond_atom_site_label_1
_geom_bond_atom_site_label_2
_geom_bond_site_symmetry_1
_geom_bond_site_symmetry_2
C1 C2 1_555 1_555
C2 C3 1_555 1_555
C3 H1 1_555 1_555
C4 C3 1_555 1_555
C5 C4 1_555 1_555
H2 C5 1_555 1_555
C6 C5 1_555 1_555
C7 C2 1_555 1_555
H3 C7 1_555 1_555
C8 C6 1_555 1_555
O1 C1 1_555 1_555
O2 C1 1_555 1_555
O3 C8 1_555 1_555
O4 C8 1_555 1_555
O5 C4 1_555 1_555
H4 O5 1_555 1_555
Pb1 O1 1_555 1_555
O6 H5 1_555 1_555
H6 O6 1_555 1_555
O2A Pb1 1_555 1_555
O3_2 Pb1 1_555 1_555
O4_2 Pb1 1_555 1_555
O4A Pb1 1_555 1_555
O5_2 Pb1 1_555 1_555
Pb1_2 O3 1_555 1_555
Pb1_3 O5 1_555 1_555
Pb1A O2 1_555 1_555
Pb1A_2 O4 1_555 1_555
C6 C7 1_555 1_555
O2 Pb1 1_555 1_555
O4 Pb1_2 1_555 1_555
O2A Pb1A 1_555 1_555

#END
