
#######################################################################
#
#                 Cambridge Crystallographic Data Centre
#                                CCDC 
#
#######################################################################
#
# If this CIF has been generated from an entry in the Cambridge 
# Structural Database, then it will include bibliographic, chemical, 
# crystal, experimental, refinement or atomic coordinate data resulting 
# from the CCDC's data processing and validation procedures.
#
#######################################################################

data_CIWBUH
_symmetry_cell_setting           triclinic
_symmetry_space_group_name_H-M   'P -1'
_symmetry_Int_Tables_number      2
_space_group_name_Hall           '-P 1'
loop_
_symmetry_equiv_pos_site_id
_symmetry_equiv_pos_as_xyz
1 x,y,z
2 -x,-y,-z
_cell_length_a                   10.0866(15)
_cell_length_b                   10.1962(15)
_cell_length_c                   11.3836(17)
_cell_angle_alpha                82.426(2)
_cell_angle_beta                 70.449(2)
_cell_angle_gamma                63.495(2)
_cell_volume                     987.076
loop_
_atom_site_label
_atom_site_type_symbol
_atom_site_fract_x
_atom_site_fract_y
_atom_site_fract_z
C1 C 0.2354(4) 0.6251(3) 0.3479(3)
C2 C 0.1475(4) 0.7894(3) 0.3434(3)
C3 C -0.0050(4) 0.8524(3) 0.3403(3)
H1 H -0.0520 0.7930 0.3373
C4 C -0.0877(4) 1.0043(4) 0.3419(3)
C5 C -0.0150(4) 1.0914(3) 0.3439(3)
H2 H -0.0691 1.1929 0.3434
C6 C 0.1377(4) 1.0288(3) 0.3466(3)
C7 C 0.2195(4) 0.8770(3) 0.3471(3)
H3 H 0.3213 0.8345 0.3498
C8 C 0.2137(4) 1.1244(3) 0.3503(3)
C9 C 0.1756(5) 0.4407(4) 0.6165(4)
H4 H 0.1021 0.5284 0.5970
C10 C 0.3584(5) 0.2281(4) 0.6069(4)
H5 H 0.4391 0.1375 0.5755
C11 C 0.1191(10) 0.5042(6) 0.8374(5)
H6 H 0.1975 0.5169 0.8598
H7 H 0.0476 0.5998 0.8181
C12 C 0.0355(11) 0.4465(7) 0.9412(5)
H8 H 0.1051 0.3492 0.9595
H9 H -0.0476 0.4392 0.9218
C13 C 0.5448(6) 0.3569(5) 0.1285(4)
H10 H 0.5022 0.4581 0.1387
C14 C 0.5781(4) 0.1393(4) 0.1589(3)
H11 H 0.5690 0.0541 0.1919
C15 C 0.8102(5) 0.0243(5) -0.0293(4)
H12 H 0.8322 0.0624 -0.1127
H13 H 0.7736 -0.0487 -0.0305
C16 C 0.9607(5) -0.0496(5) 0.0050(4)
H14 H 0.9379 -0.0838 0.0898
H15 H 1.0325 -0.1347 -0.0494
N1 N 0.2771(3) 0.3290(3) 0.5371(3)
N2 N 0.3123(5) 0.2707(4) 0.7228(3)
N3 N 0.1954(5) 0.4076(4) 0.7261(3)
N4 N 0.4842(3) 0.2729(3) 0.2083(3)
N5 N 0.6677(5) 0.2851(5) 0.0357(4)
N6 N 0.6853(4) 0.1449(4) 0.0569(3)
O1 O -0.2517(3) 1.0702(3) 0.3427(2)
H16 H -0.2957 1.1549 0.3696
O2 O 0.1716(3) 0.5482(3) 0.3332(2)
O3 O 0.3632(3) 0.5730(3) 0.3674(3)
O4 O 0.1394(3) 1.2631(2) 0.3388(2)
O5 O 0.3448(3) 1.0705(3) 0.3646(3)
Zn1 Zn 0.28866(4) 0.33356(4) 0.35588(4)
C9A C -0.1756(5) 0.5593(4) 1.3835(4)
H4A H -0.1021 0.4716 1.4030
C10A C -0.3584(5) 0.7719(4) 1.3931(4)
H5A H -0.4391 0.8625 1.4245
C11A C -0.1191(10) 0.4958(6) 1.1626(5)
H6A H -0.1975 0.4831 1.1402
H7A H -0.0476 0.4002 1.1819
C12A C -0.0355(11) 0.5535(7) 1.0588(5)
H8A H -0.1051 0.6508 1.0405
H9A H 0.0476 0.5608 1.0782
N1A N -0.2771(3) 0.6710(3) 1.4629(3)
N2A N -0.3123(5) 0.7293(4) 1.2772(3)
N3A N -0.1954(5) 0.5924(4) 1.2739(3)
C13A C 1.4552(6) -0.3569(5) -0.1285(4)
H10A H 1.4978 -0.4581 -0.1387
C14A C 1.4219(4) -0.1393(4) -0.1589(3)
H11A H 1.4310 -0.0541 -0.1919
C15A C 1.1898(5) -0.0243(5) 0.0293(4)
H12A H 1.1678 -0.0624 0.1127
H13A H 1.2264 0.0487 0.0305
C16A C 1.0393(5) 0.0496(5) -0.0050(4)
H14A H 1.0621 0.0838 -0.0898
H15A H 0.9675 0.1347 0.0494
N4A N 1.5158(3) -0.2729(3) -0.2083(3)
N5A N 1.3323(5) -0.2851(5) -0.0357(4)
N6A N 1.3147(4) -0.1449(4) -0.0569(3)
C1A C -0.2354(4) 0.3749(3) 1.6521(3)
C2A C -0.1475(4) 0.2106(3) 1.6566(3)
C3A C 0.0050(4) 0.1476(3) 1.6597(3)
H1A H 0.0520 0.2070 1.6627
C4A C 0.0877(4) -0.0043(4) 1.6581(3)
C5A C 0.0150(4) -0.0914(3) 1.6561(3)
H2A H 0.0691 -0.1929 1.6566
C6A C -0.1377(4) -0.0288(3) 1.6534(3)
C7A C -0.2195(4) 0.1230(3) 1.6529(3)
H3A H -0.3213 0.1655 1.6502
C8A C -0.2137(4) -0.1244(3) 1.6497(3)
O1A O 0.2517(3) -0.0702(3) 1.6573(2)
H16A H 0.2957 -0.1549 1.6304
O2A O -0.1716(3) 0.4518(3) 1.6668(2)
O3A O -0.3632(3) 0.4270(3) 1.6326(3)
O4A O -0.1394(3) -0.2631(2) 1.6612(2)
O5A O -0.3448(3) -0.0705(3) 1.6354(3)
Zn1A Zn -0.28866(4) 0.66644(4) 1.64412(4)
N4A_2 N -0.4842(3) 0.7271(3) 1.7917(3)
O4_2 O 0.1394(3) 0.2631(2) 0.3388(2)
O4A_2 O -0.1394(3) 0.7369(2) 1.6612(2)
O5_2 O 0.3448(3) 0.0705(3) 0.3646(3)
O5A_2 O -0.3448(3) 0.9295(3) 1.6354(3)
Zn1_2 Zn 0.28866(4) 1.33356(4) 0.35588(4)
Zn1A_2 Zn -0.28866(4) -0.33356(4) 1.64412(4)
Zn1A_3 Zn 1.71134(4) -0.33356(4) -0.35588(4)
O6 O 0.5648(17) 0.8310(17) 0.0646(13)
H17 H 0.6537 0.7854 0.0172
H18 H 0.5637 0.8277 0.1404
O7 O 0.6331(4) 0.3492(4) 0.4013(4)
H19 H 0.6660 0.3188 0.4642
H20 H 0.5590 0.4367 0.4169
loop_
_geom_bond_atom_site_label_1
_geom_bond_atom_site_label_2
_geom_bond_site_symmetry_1
_geom_bond_site_symmetry_2
C1 C2 1_555 1_555
C2 C3 1_555 1_555
C3 H1 1_555 1_555
C4 C3 1_555 1_555
C5 C4 1_555 1_555
H2 C5 1_555 1_555
C6 C5 1_555 1_555
C7 C2 1_555 1_555
H3 C7 1_555 1_555
C8 C6 1_555 1_555
C9 H4 1_555 1_555
C10 H5 1_555 1_555
C11 H6 1_555 1_555
H7 C11 1_555 1_555
C12 C11 1_555 1_555
H8 C12 1_555 1_555
H9 C12 1_555 1_555
C13 H10 1_555 1_555
C14 H11 1_555 1_555
C15 H12 1_555 1_555
H13 C15 1_555 1_555
C16 C15 1_555 1_555
H14 C16 1_555 1_555
H15 C16 1_555 1_555
N1 C9 1_555 1_555
N2 C10 1_555 1_555
N3 C9 1_555 1_555
N4 C13 1_555 1_555
N5 C13 1_555 1_555
N6 C14 1_555 1_555
O1 C4 1_555 1_555
H16 O1 1_555 1_555
O2 C1 1_555 1_555
O3 C1 1_555 1_555
O4 C8 1_555 1_555
O5 C8 1_555 1_555
Zn1 N1 1_555 1_555
O6 H17 1_555 1_555
H18 O6 1_555 1_555
O7 H19 1_555 1_555
H20 O7 1_555 1_555
C9A H4A 1_555 1_555
C10A H5A 1_555 1_555
C11A H6A 1_555 1_555
H7A C11A 1_555 1_555
C12A C12 1_555 1_555
H8A C12A 1_555 1_555
H9A C12A 1_555 1_555
N1A C9A 1_555 1_555
N2A C10A 1_555 1_555
N3A C9A 1_555 1_555
C13A H10A 1_555 1_555
C14A H11A 1_555 1_555
C15A H12A 1_555 1_555
H13A C15A 1_555 1_555
C16A C16 1_555 1_555
H14A C16A 1_555 1_555
H15A C16A 1_555 1_555
N4A C13A 1_555 1_555
N5A C13A 1_555 1_555
N6A C14A 1_555 1_555
C1A C2A 1_555 1_555
C2A C3A 1_555 1_555
C3A H1A 1_555 1_555
C4A C3A 1_555 1_555
C5A C4A 1_555 1_555
H2A C5A 1_555 1_555
C6A C5A 1_555 1_555
C7A C2A 1_555 1_555
H3A C7A 1_555 1_555
C8A C6A 1_555 1_555
O1A C4A 1_555 1_555
H16A O1A 1_555 1_555
O2A C1A 1_555 1_555
O3A C1A 1_555 1_555
O4A C8A 1_555 1_555
O5A C8A 1_555 1_555
Zn1A N1A 1_555 1_555
N4A_2 Zn1A 1_555 1_555
O4_2 Zn1 1_555 1_555
O4A_2 Zn1A 1_555 1_555
O5_2 Zn1 1_555 1_555
O5A_2 Zn1A 1_555 1_555
Zn1_2 O4 1_555 1_555
Zn1A_2 O4A 1_555 1_555
Zn1A_3 N4A 1_555 1_555
C6 C7 1_555 1_555
C10 N1 1_555 1_555
C11 N3 1_555 1_555
C14 N4 1_555 1_555
C15 N6 1_555 1_555
N2 N3 1_555 1_555
N4 Zn1 1_555 1_555
N5 N6 1_555 1_555
O2 Zn1 1_555 1_555
O5 Zn1_2 1_555 1_555
C10A N1A 1_555 1_555
C11A C12A 1_555 1_555
C11A N3A 1_555 1_555
N2A N3A 1_555 1_555
C14A N4A 1_555 1_555
C15A C16A 1_555 1_555
C15A N6A 1_555 1_555
N5A N6A 1_555 1_555
C6A C7A 1_555 1_555
O2A Zn1A 1_555 1_555
O5A Zn1A_2 1_555 1_555

#END
