
#######################################################################
#
#                 Cambridge Crystallographic Data Centre
#                                CCDC 
#
#######################################################################
#
# If this CIF has been generated from an entry in the Cambridge 
# Structural Database, then it will include bibliographic, chemical, 
# crystal, experimental, refinement or atomic coordinate data resulting 
# from the CCDC's data processing and validation procedures.
#
#######################################################################

data_CIWCUI
_symmetry_cell_setting           monoclinic
_symmetry_space_group_name_H-M   'P 2/c'
_symmetry_Int_Tables_number      13
_space_group_name_Hall           '-P 2yc'
loop_
_symmetry_equiv_pos_site_id
_symmetry_equiv_pos_as_xyz
1 x,y,z
2 -x,y,1/2-z
3 -x,-y,-z
4 x,-y,1/2+z
_cell_length_a                   13.1332(9)
_cell_length_b                   11.4606(8)
_cell_length_c                   16.4028(11)
_cell_angle_alpha                90
_cell_angle_beta                 92.252(3)
_cell_angle_gamma                90
_cell_volume                     2466.95
loop_
_atom_site_label
_atom_site_type_symbol
_atom_site_fract_x
_atom_site_fract_y
_atom_site_fract_z
Er1 Er 0.5000 0.41023(2) 0.2500
O1 O 0.4266(3) 0.6373(3) 0.62306(19)
O2 O 0.5270(3) 0.5787(3) 0.3382(2)
O3 O 0.6564(2) 0.4715(3) 0.21387(19)
O4 O 0.5908(3) 0.2438(3) 0.2082(2)
H1 H 0.570(4) 0.171(2) 0.209(4)
H2 H 0.654(2) 0.243(4) 0.189(4)
N1 N 0.4164(3) 0.7389(4) 0.5831(2)
N2 N 0.6116(3) 0.6899(4) 0.4313(3)
H3 H 0.661(3) 0.735(4) 0.437(4)
P1 P 0.73059(9) 0.56524(11) 0.24052(7)
C1 C 0.3494(4) 0.8199(5) 0.6076(3)
H4 H 0.3151 0.8087 0.6568
C2 C 0.3309(4) 0.9175(5) 0.5622(4)
H5 H 0.2845 0.9748 0.5802
C3 C 0.3799(5) 0.9333(5) 0.4894(4)
H6 H 0.3652 0.9991 0.4558
C4 C 0.4508(4) 0.8509(5) 0.4671(3)
H7 H 0.4865 0.8614 0.4184
C5 C 0.4701(4) 0.7543(4) 0.5147(3)
C6 C 0.5458(4) 0.6603(5) 0.4973(3)
H8 H 0.5087 0.5875 0.4832
H9 H 0.5885 0.6454 0.5473
C7 C 0.5978(3) 0.6460(4) 0.3570(3)
C8 C 0.6723(4) 0.6846(4) 0.2942(3)
H10 H 0.7267 0.7316 0.3218
H11 H 0.6361 0.7356 0.2538
C9 C 0.8330(3) 0.5037(4) 0.3018(3)
C10 C 0.8533(4) 0.3856(5) 0.2918(3)
H12 H 0.8101 0.3394 0.2571
C11 C 0.9370(4) 0.3352(6) 0.3328(3)
H13 H 0.9516 0.2548 0.3253
C12 C 0.9985(4) 0.4019(5) 0.3841(4)
H14 H 1.0556 0.3672 0.4119
C13 C 0.9783(4) 0.5178(6) 0.3954(3)
H15 H 1.0211 0.5627 0.4314
C14 C 0.8955(4) 0.5704(5) 0.3546(3)
H16 H 0.8815 0.6509 0.3626
C15 C 0.7825(4) 0.6369(5) 0.1543(3)
C16 C 0.8440(4) 0.7347(5) 0.1650(3)
H17 H 0.8615 0.7621 0.2184
C17 C 0.8800(5) 0.7925(5) 0.0974(4)
H18 H 0.9219 0.8597 0.1045
C18 C 0.8547(4) 0.7520(5) 0.0200(3)
H19 H 0.8786 0.7924 -0.0260
C19 C 0.7952(4) 0.6537(5) 0.0087(3)
H20 H 0.7797 0.6252 -0.0448
C20 C 0.7580(4) 0.5964(4) 0.0765(3)
H21 H 0.7158 0.5296 0.0692
O1A O 0.5734(3) 0.6373(3) -0.12306(19)
O2A O 0.4730(3) 0.5787(3) 0.1618(2)
O3A O 0.3436(2) 0.4715(3) 0.28613(19)
O4A O 0.4092(3) 0.2438(3) 0.2918(2)
H1A H 0.430(4) 0.171(2) 0.291(4)
H2A H 0.346(2) 0.243(4) 0.311(4)
N1A N 0.5836(3) 0.7389(4) -0.0831(2)
N2A N 0.3884(3) 0.6899(4) 0.0687(3)
H3A H 0.339(3) 0.735(4) 0.063(4)
P1A P 0.26941(9) 0.56524(11) 0.25948(7)
C1A C 0.6506(4) 0.8199(5) -0.1076(3)
H4A H 0.6849 0.8087 -0.1568
C2A C 0.6691(4) 0.9175(5) -0.0622(4)
H5A H 0.7155 0.9748 -0.0802
C3A C 0.6201(5) 0.9333(5) 0.0106(4)
H6A H 0.6348 0.9991 0.0442
C4A C 0.5492(4) 0.8509(5) 0.0329(3)
H7A H 0.5135 0.8614 0.0816
C5A C 0.5299(4) 0.7543(4) -0.0147(3)
C6A C 0.4542(4) 0.6603(5) 0.0027(3)
H8A H 0.4913 0.5875 0.0168
H9A H 0.4115 0.6454 -0.0473
C7A C 0.4022(3) 0.6460(4) 0.1430(3)
C8A C 0.3277(4) 0.6846(4) 0.2058(3)
H10A H 0.2733 0.7316 0.1782
H11A H 0.3639 0.7356 0.2462
C9A C 0.1670(3) 0.5037(4) 0.1982(3)
C10A C 0.1467(4) 0.3856(5) 0.2082(3)
H12A H 0.1899 0.3394 0.2429
C11A C 0.0630(4) 0.3352(6) 0.1672(3)
H13A H 0.0484 0.2548 0.1747
C12A C 0.0015(4) 0.4019(5) 0.1159(4)
H14A H -0.0556 0.3672 0.0881
C13A C 0.0217(4) 0.5178(6) 0.1046(3)
H15A H -0.0211 0.5627 0.0686
C14A C 0.1045(4) 0.5704(5) 0.1454(3)
H16A H 0.1185 0.6509 0.1374
C15A C 0.2175(4) 0.6369(5) 0.3457(3)
C16A C 0.1560(4) 0.7347(5) 0.3350(3)
H17A H 0.1385 0.7621 0.2816
C17A C 0.1200(5) 0.7925(5) 0.4026(4)
H18A H 0.0781 0.8597 0.3955
C18A C 0.1453(4) 0.7520(5) 0.4800(3)
H19A H 0.1214 0.7924 0.5260
C19A C 0.2048(4) 0.6537(5) 0.4913(3)
H20A H 0.2203 0.6252 0.5448
C20A C 0.2420(4) 0.5964(4) 0.4235(3)
H21A H 0.2842 0.5296 0.4308
Er1B Er 0.5000 0.58977(2) -0.2500
Er1B_2 Er 0.5000 0.58977(2) 0.7500
O1B O 0.5734(3) 0.3627(3) 0.37694(19)
O1C O 0.4266(3) 0.3627(3) 0.12306(19)
O5 O 0.8163(5) 0.1196(6) 0.2167(4)
O6 O 0.8918(4) 0.1124(5) 0.0997(5)
O7 O 0.7561(4) 0.2144(5) 0.1089(3)
N3 N 0.8235(5) 0.1468(5) 0.1428(5)
O8 O 0.5000 0.8591(5) 0.2500
O9 O 0.5317(4) 1.0209(4) 0.1900(3)
N4 N 0.5000 0.9663(6) 0.2500
O9A O 0.4683(4) 1.0209(4) 0.3100(3)
O10 O 0.8100(4) 0.1694(5) -0.0649(4)
H22 H 0.794(7) 0.175(8) -0.015(2)
H23 H 0.845(6) 0.110(5) -0.074(5)
O11 O 0.0807(6) -0.0098(8) 0.1619(7)
H24 H 0.024(6) 0.026(13) 0.160(10)
H25 H 0.114(10) 0.007(15) 0.206(6)
loop_
_geom_bond_atom_site_label_1
_geom_bond_atom_site_label_2
_geom_bond_site_symmetry_1
_geom_bond_site_symmetry_2
Er1 O2 1_555 1_555
O1 N1 1_555 1_555
O2 C7 1_555 1_555
O3 Er1 1_555 1_555
O4 Er1 1_555 1_555
H1 O4 1_555 1_555
H2 O4 1_555 1_555
N1 C1 1_555 1_555
N2 H3 1_555 1_555
P1 O3 1_555 1_555
C1 H4 1_555 1_555
C2 C1 1_555 1_555
H5 C2 1_555 1_555
C3 C2 1_555 1_555
H6 C3 1_555 1_555
C4 C3 1_555 1_555
H7 C4 1_555 1_555
C5 N1 1_555 1_555
C6 N2 1_555 1_555
H8 C6 1_555 1_555
H9 C6 1_555 1_555
C7 N2 1_555 1_555
C8 P1 1_555 1_555
H10 C8 1_555 1_555
H11 C8 1_555 1_555
C9 P1 1_555 1_555
C10 C9 1_555 1_555
H12 C10 1_555 1_555
C11 C10 1_555 1_555
H13 C11 1_555 1_555
C12 C11 1_555 1_555
H14 C12 1_555 1_555
C13 C12 1_555 1_555
H15 C13 1_555 1_555
C14 C9 1_555 1_555
H16 C14 1_555 1_555
C15 P1 1_555 1_555
C16 C15 1_555 1_555
H17 C16 1_555 1_555
C17 C16 1_555 1_555
H18 C17 1_555 1_555
C18 C17 1_555 1_555
H19 C18 1_555 1_555
C19 C18 1_555 1_555
H20 C19 1_555 1_555
C20 C15 1_555 1_555
H21 C20 1_555 1_555
O5 N3 1_555 1_555
O6 N3 1_555 1_555
O7 N3 1_555 1_555
O8 N4 1_555 1_555
O9 N4 1_555 1_555
N4 O9A 1_555 1_555
O10 H22 1_555 1_555
H23 O10 1_555 1_555
O11 H24 1_555 1_555
H25 O11 1_555 1_555
O1A N1A 1_555 1_555
O2A Er1 1_555 1_555
O3A Er1 1_555 1_555
O4A Er1 1_555 1_555
H1A O4A 1_555 1_555
H2A O4A 1_555 1_555
N1A C1A 1_555 1_555
N2A H3A 1_555 1_555
P1A O3A 1_555 1_555
C1A H4A 1_555 1_555
C2A C1A 1_555 1_555
H5A C2A 1_555 1_555
C3A C2A 1_555 1_555
H6A C3A 1_555 1_555
C4A C3A 1_555 1_555
H7A C4A 1_555 1_555
C5A N1A 1_555 1_555
C6A N2A 1_555 1_555
H8A C6A 1_555 1_555
H9A C6A 1_555 1_555
C7A O2A 1_555 1_555
C8A P1A 1_555 1_555
H10A C8A 1_555 1_555
H11A C8A 1_555 1_555
C9A P1A 1_555 1_555
C10A C9A 1_555 1_555
H12A C10A 1_555 1_555
C11A C10A 1_555 1_555
H13A C11A 1_555 1_555
C12A C11A 1_555 1_555
H14A C12A 1_555 1_555
C13A C12A 1_555 1_555
H15A C13A 1_555 1_555
C14A C9A 1_555 1_555
H16A C14A 1_555 1_555
C15A P1A 1_555 1_555
C16A C15A 1_555 1_555
H17A C16A 1_555 1_555
C17A C16A 1_555 1_555
H18A C17A 1_555 1_555
C18A C17A 1_555 1_555
H19A C18A 1_555 1_555
C19A C18A 1_555 1_555
H20A C19A 1_555 1_555
C20A C15A 1_555 1_555
H21A C20A 1_555 1_555
Er1B O1A 1_555 1_555
Er1B_2 O1 1_555 1_555
O1B Er1 1_555 1_555
O1C Er1 1_555 1_555
C4 C5 1_555 1_555
C5 C6 1_555 1_555
C7 C8 1_555 1_555
C13 C14 1_555 1_555
C19 C20 1_555 1_555
N2A C7A 1_555 1_555
C4A C5A 1_555 1_555
C5A C6A 1_555 1_555
C7A C8A 1_555 1_555
C13A C14A 1_555 1_555
C19A C20A 1_555 1_555

#END
