
#######################################################################
#
#                 Cambridge Crystallographic Data Centre
#                                CCDC 
#
#######################################################################
#
# If this CIF has been generated from an entry in the Cambridge 
# Structural Database, then it will include bibliographic, chemical, 
# crystal, experimental, refinement or atomic coordinate data resulting 
# from the CCDC's data processing and validation procedures.
#
#######################################################################

data_CIWDUJ
_symmetry_cell_setting           monoclinic
_symmetry_space_group_name_H-M   'P 21/c'
_symmetry_Int_Tables_number      14
_space_group_name_Hall           '-P 2ybc'
loop_
_symmetry_equiv_pos_site_id
_symmetry_equiv_pos_as_xyz
1 x,y,z
2 -x,1/2+y,1/2-z
3 -x,-y,-z
4 x,1/2-y,1/2+z
_cell_length_a                   16.7262(19)
_cell_length_b                   11.4988(12)
_cell_length_c                   14.6506(17)
_cell_angle_alpha                90
_cell_angle_beta                 109.599(6)
_cell_angle_gamma                90
_cell_volume                     2654.52
loop_
_atom_site_label
_atom_site_type_symbol
_atom_site_fract_x
_atom_site_fract_y
_atom_site_fract_z
Yb1 Yb 0.2988 0.060 0.1735
P1 P 0.1732(1) 0.2692(1) 0.0188(1)
O1 O 0.5874(2) 0.4661(3) 0.3376(2)
O2 O 0.3649(2) 0.2081(3) 0.1252(2)
O3 O 0.1877(2) 0.1778(3) 0.0962(2)
O4 O 0.2270(2) 0.0118(3) 0.2842(2)
O5 O 0.3186(2) -0.1135(3) 0.2709(3)
O6 O 0.2429(3) -0.1538(4) 0.3618(3)
O7 O 0.3079(2) 0.2350(3) 0.2830(2)
O8 O 0.4111(2) 0.1131(3) 0.3217(2)
O9 O 0.4224(2) 0.2727(3) 0.4045(3)
O10 O 0.2611(2) 0.0143(3) 0.0004(2)
O11 O 0.1986(2) -0.0805(3) 0.0840(2)
O12 O 0.1633(3) -0.1128(3) -0.0706(3)
N1 N 0.5109(2) 0.5069(3) 0.3311(3)
N2 N 0.3898(3) 0.3913(3) 0.0911(3)
H1 H 0.377(3) 0.451(3) 0.052(3)
N3 N 0.2630(3) -0.0884(4) 0.3081(3)
N4 N 0.3809(2) 0.2094(3) 0.3381(3)
N5 N 0.2061(3) -0.0612(4) 0.0013(3)
C1 C 0.5031(3) 0.5720(5) 0.4048(4)
H2 H 0.5516 0.5893 0.4594
C2 C 0.4252(4) 0.6127(6) 0.3998(5)
H3 H 0.4197 0.6601 0.4504
C3 C 0.3544(4) 0.5854(5) 0.3219(5)
H4 H 0.2999 0.6130 0.3184
C4 C 0.3645(3) 0.5174(5) 0.2495(4)
H5 H 0.3160 0.4966 0.1959
C5 C 0.4435(3) 0.4785(4) 0.2528(4)
C6 C 0.4632(3) 0.4036(4) 0.1791(3)
H6 H 0.5107 0.4386 0.1626
H7 H 0.4814 0.3258 0.2073
C7 C 0.3442(3) 0.2942(4) 0.0713(3)
C8 C 0.2669(3) 0.2897(4) -0.0173(3)
H8 H 0.2717 0.2247 -0.0594
H9 H 0.2615 0.3631 -0.0543
C9 C 0.0896(3) 0.2279(4) -0.0901(3)
C10 C 0.0394(3) 0.1328(4) -0.0863(4)
H10 H 0.0493 0.0918 -0.0272
C11 C -0.0252(3) 0.0986(5) -0.1695(4)
H11 H -0.0599 0.0340 -0.1673
C12 C -0.0393(3) 0.1575(5) -0.2553(4)
H12 H -0.0833 0.1329 -0.3121
C13 C 0.0104(3) 0.2526(6) -0.2589(4)
H13 H -0.0001 0.2936 -0.3181
C14 C 0.0751(3) 0.2880(5) -0.1771(4)
H14 H 0.1095 0.3527 -0.1798
C15 C 0.1517(3) 0.4079(4) 0.0614(3)
C16 C 0.1445(3) 0.4154(4) 0.1520(4)
H15 H 0.1491 0.3473 0.1902
C17 C 0.1305(4) 0.5227(5) 0.1877(4)
H16 H 0.1246 0.5282 0.2498
C18 C 0.1254(4) 0.6214(5) 0.1323(5)
H17 H 0.1154 0.6947 0.1564
C19 C 0.1345(4) 0.6149(5) 0.0437(5)
H18 H 0.1315 0.6835 0.0065
C20 C 0.1482(4) 0.5086(5) 0.0076(4)
H19 H 0.1553 0.5043 -0.0540
Yb1A Yb 0.7012 0.560 0.3265
O1A O 0.4126(2) -0.0339(3) 0.1624(2)
O13 O 0.4060(3) 0.6158(4) 0.0312(5)
H20 H 0.4572 0.6342 0.0441
C21 C 0.3579(5) 0.7147(7) 0.0749(6)
H21 H 0.3952 0.7384 0.1394
H22 H 0.3053 0.6822 0.0797
H23 H 0.3446 0.7823 0.0318
loop_
_geom_bond_atom_site_label_1
_geom_bond_atom_site_label_2
_geom_bond_site_symmetry_1
_geom_bond_site_symmetry_2
Yb1 O2 1_555 1_555
P1 O3 1_555 1_555
O1 N1 1_555 1_555
O2 C7 1_555 1_555
O3 Yb1 1_555 1_555
O4 Yb1 1_555 1_555
O5 Yb1 1_555 1_555
O6 N3 1_555 1_555
O7 Yb1 1_555 1_555
O8 Yb1 1_555 1_555
O9 N4 1_555 1_555
O10 Yb1 1_555 1_555
O11 Yb1 1_555 1_555
O12 N5 1_555 1_555
N1 C1 1_555 1_555
N2 H1 1_555 1_555
N3 O4 1_555 1_555
N4 O7 1_555 1_555
N5 O10 1_555 1_555
C1 H2 1_555 1_555
C2 C1 1_555 1_555
H3 C2 1_555 1_555
C3 C2 1_555 1_555
H4 C3 1_555 1_555
C4 C3 1_555 1_555
H5 C4 1_555 1_555
C5 N1 1_555 1_555
C6 N2 1_555 1_555
H6 C6 1_555 1_555
H7 C6 1_555 1_555
C7 N2 1_555 1_555
C8 P1 1_555 1_555
H8 C8 1_555 1_555
H9 C8 1_555 1_555
C9 P1 1_555 1_555
C10 C9 1_555 1_555
H10 C10 1_555 1_555
C11 C10 1_555 1_555
H11 C11 1_555 1_555
C12 C11 1_555 1_555
H12 C12 1_555 1_555
C13 C12 1_555 1_555
H13 C13 1_555 1_555
C14 C9 1_555 1_555
H14 C14 1_555 1_555
C15 P1 1_555 1_555
C16 C15 1_555 1_555
H15 C16 1_555 1_555
C17 C16 1_555 1_555
H16 C17 1_555 1_555
C18 C17 1_555 1_555
H17 C18 1_555 1_555
C19 C18 1_555 1_555
H18 C19 1_555 1_555
C20 C15 1_555 1_555
H19 C20 1_555 1_555
O13 H20 1_555 1_555
C21 O13 1_555 1_555
H21 C21 1_555 1_555
H22 C21 1_555 1_555
H23 C21 1_555 1_555
Yb1A O1 1_555 1_555
O1A Yb1 1_555 1_555
O5 N3 1_555 1_555
O8 N4 1_555 1_555
O11 N5 1_555 1_555
C4 C5 1_555 1_555
C5 C6 1_555 1_555
C7 C8 1_555 1_555
C13 C14 1_555 1_555
C19 C20 1_555 1_555

#END
