
#######################################################################
#
#                 Cambridge Crystallographic Data Centre
#                                CCDC 
#
#######################################################################
#
# If this CIF has been generated from an entry in the Cambridge 
# Structural Database, then it will include bibliographic, chemical, 
# crystal, experimental, refinement or atomic coordinate data resulting 
# from the CCDC's data processing and validation procedures.
#
#######################################################################

data_CIWDES
_symmetry_cell_setting           triclinic
_symmetry_space_group_name_H-M   'P -1'
_symmetry_Int_Tables_number      2
_space_group_name_Hall           '-P 1'
loop_
_symmetry_equiv_pos_site_id
_symmetry_equiv_pos_as_xyz
1 x,y,z
2 -x,-y,-z
_cell_length_a                   7.9150(8)
_cell_length_b                   13.5900(14)
_cell_length_c                   16.956(2)
_cell_angle_alpha                98.373(2)
_cell_angle_beta                 92.604(2)
_cell_angle_gamma                102.393(3)
_cell_volume                     1756.82
loop_
_atom_site_label
_atom_site_type_symbol
_atom_site_fract_x
_atom_site_fract_y
_atom_site_fract_z
Cu1 Cu 0.23427(12) 0.24682(7) 0.98084(5)
Cl1 Cl 0.4724(3) 0.17977(15) 1.00816(13)
N1 N 0.2188(7) 0.3971(4) 1.0204(3)
N2 N 0.3450(8) 0.3126(4) 0.8935(3)
N3 N 0.1019(8) 0.1815(4) 1.0637(3)
N4 N 0.0074(8) 0.1699(4) 0.9111(3)
C1 C 0.1501(9) 0.4354(5) 1.0857(4)
H17 H 0.1070 0.3917 1.1211
C2 C 0.1404(9) 0.5351(6) 1.1027(5)
H18 H 0.0901 0.5584 1.1483
C3 C 0.2063(9) 0.6008(6) 1.0515(5)
H19 H 0.2029 0.6694 1.0623
C4 C 0.2771(9) 0.5637(6) 0.9840(5)
H20 H 0.3226 0.6071 0.9488
C5 C 0.2800(8) 0.4613(5) 0.9690(4)
C6 C 0.3525(8) 0.4136(5) 0.8980(4)
C7 C 0.4252(9) 0.4661(6) 0.8386(4)
H21 H 0.4286 0.5353 0.8412
C8 C 0.4919(9) 0.4141(6) 0.7761(4)
H22 H 0.5415 0.4486 0.7363
C9 C 0.4858(10) 0.3120(6) 0.7722(4)
H23 H 0.5320 0.2764 0.7306
C10 C 0.4087(10) 0.2631(6) 0.8320(5)
H24 H 0.4010 0.1934 0.8292
C11 C 0.1584(11) 0.1953(6) 1.1410(4)
H25 H 0.2651 0.2391 1.1583
C12 C 0.0614(12) 0.1458(6) 1.1963(5)
H26 H 0.1013 0.1564 1.2499
C13 C -0.0956(12) 0.0804(6) 1.1685(5)
H27 H -0.1626 0.0459 1.2039
C14 C -0.1534(11) 0.0660(6) 1.0899(5)
H28 H -0.2592 0.0218 1.0716
C15 C -0.0532(9) 0.1179(5) 1.0371(4)
C16 C -0.1054(9) 0.1100(5) 0.9511(4)
C17 C -0.2596(10) 0.0495(6) 0.9136(5)
H29 H -0.3346 0.0074 0.9416
C18 C -0.3003(11) 0.0523(7) 0.8345(6)
H30 H -0.4025 0.0110 0.8084
C19 C -0.1906(12) 0.1157(7) 0.7940(5)
H31 H -0.2190 0.1207 0.7412
C20 C -0.0359(11) 0.1724(6) 0.8342(5)
H32 H 0.0411 0.2139 0.8065
Te1 Te 1.0000 0.5000 0.5000
Mo1 Mo 0.91571(7) 0.58444(4) 0.68244(3)
Mo2 Mo 0.93971(7) 0.73225(4) 0.54325(3)
Mo3 Mo 1.03457(7) 0.64969(4) 0.36137(3)
Na1 Na 1.4265(4) 0.7334(2) 0.55024(19)
Na2 Na 0.5000 0.5000 0.5000
Na3 Na 1.3087(8) 0.9994(5) 0.5340(4)
O1 O 0.8260(5) 0.5649(3) 0.5482(2)
O2 O 0.9069(5) 0.4948(3) 0.3911(2)
O3 O 1.1236(5) 0.6369(3) 0.4916(2)
O4 O 1.0336(5) 0.7063(3) 0.6438(3)
O5 O 0.8660(5) 0.6972(3) 0.4294(3)
O6 O 0.8091(5) 0.4395(3) 0.6684(2)
O7 O 1.0561(6) 0.6000(4) 0.7661(3)
O8 O 0.7348(6) 0.6226(4) 0.7156(3)
O9 O 1.0912(6) 0.8434(4) 0.5426(3)
O10 O 0.7547(6) 0.7692(4) 0.5732(3)
O11 O 1.1883(6) 0.7621(4) 0.3667(3)
O12 O 0.9160(6) 0.6355(4) 0.2722(3)
O13 O 0.4335(7) 0.5956(4) 0.6161(3)
H1 H 0.3362 0.5697 0.6323
H2 H 0.5133 0.6085 0.6539
O14 O 0.5007(7) 0.6410(4) 0.4336(3)
H3 H 0.5997 0.6671 0.4192
H4 H 0.4235 0.6290 0.3948
O15 O 1.4452(9) 0.8746(5) 0.4821(4)
H5 H 1.4034 0.8525 0.4342
O16 O 1.3617(8) 0.8217(5) 0.6794(4)
H7 H 1.3717 0.7855 0.7155
H8 H 1.4330 0.8791 0.6913
O17 O 1.1601(12) 1.1047(6) 0.6139(6)
H9 H 1.1583 1.1577 0.5930
H10 H 1.0567 1.0719 0.6165
O18 O 1.1978(12) 1.0113(6) 0.4055(6)
H11 H 1.1752 1.0697 0.4058
H12 H 1.2730 1.0033 0.3723
O19 O 1.4325(12) 1.0274(7) 0.6727(6)
H13 H 1.3728 0.9842 0.6979
H14 H 1.5363 1.0198 0.6730
Mo1A Mo 1.08429(7) 0.41556(4) 0.31756(3)
Mo2A Mo 1.06029(7) 0.26775(4) 0.45675(3)
Mo2_2 Mo 1.93971(7) 0.73225(4) 0.54325(3)
Mo3A Mo 0.96543(7) 0.35031(4) 0.63863(3)
Na1A Na 0.5735(4) 0.2666(2) 0.44976(19)
Na1_2 Na 0.4265(4) 0.7334(2) 0.55024(19)
Na2_2 Na 1.5000 0.5000 0.5000
Na3A Na 0.6913(8) 0.0006(5) 0.4660(4)
Na3A_2 Na 1.6913(8) 1.0006(5) 0.4660(4)
Na3_2 Na 0.3087(8) -0.0006(5) 0.5340(4)
O1A O 1.1740(5) 0.4351(3) 0.4518(2)
O1A_2 O 0.1740(5) 0.4351(3) 0.4518(2)
O2A O 1.0931(5) 0.5052(3) 0.6089(2)
O3A O 0.8764(5) 0.3631(3) 0.5084(2)
O4A O 0.9664(5) 0.2937(3) 0.3562(3)
O5A O 1.1340(5) 0.3028(3) 0.5706(3)
O6A O 1.1909(5) 0.5605(3) 0.3316(2)
O7A O 0.9439(6) 0.4000(4) 0.2339(3)
O8A O 1.2652(6) 0.3774(4) 0.2844(3)
O9A O 0.9088(6) 0.1566(4) 0.4574(3)
O10_2 O 1.7547(6) 0.7692(4) 0.5732(3)
O10A O 1.2453(6) 0.2308(4) 0.4268(3)
O10A_2 O 0.2453(6) 0.2308(4) 0.4268(3)
O11A O 0.8117(6) 0.2379(4) 0.6333(3)
O12A O 1.0840(6) 0.3645(4) 0.7278(3)
O13A O 0.5665(7) 0.4044(4) 0.3839(3)
O13_2 O 1.4335(7) 0.5956(4) 0.6161(3)
H1A H 0.6638 0.4303 0.3677
H1_2 H 1.3362 0.5697 0.6323
H2A H 0.4867 0.3915 0.3461
H2_2 H 1.5133 0.6085 0.6539
O14A O 0.4993(7) 0.3590(4) 0.5664(3)
O14_2 O 1.5007(7) 0.6410(4) 0.4336(3)
H3A H 0.4003 0.3329 0.5808
H3_2 H 1.5997 0.6671 0.4192
H4A H 0.5765 0.3710 0.6052
H4_2 H 1.4235 0.6290 0.3948
O15A O 0.5548(9) 0.1254(5) 0.5179(4)
O15A_2 O 1.5548(9) 1.1254(5) 0.5179(4)
O15_2 O 0.4452(9) -0.1254(5) 0.4821(4)
H5A H 0.5966 0.1475 0.5658
H5A_2 H 1.5966 1.1475 0.5658
H5_2 H 0.4034 -0.1475 0.4342
O16A O 0.6383(8) 0.1783(5) 0.3206(4)
H7A H 0.6283 0.2145 0.2845
H8A H 0.5670 0.1209 0.3087
O17A O 0.8399(12) -0.1047(6) 0.3861(6)
H9A H 0.8417 -0.1577 0.4070
H10A H 0.9433 -0.0719 0.3835
O18A O 0.8022(12) -0.0113(6) 0.5945(6)
H11A H 0.8248 -0.0697 0.5942
H12A H 0.7270 -0.0033 0.6277
O19A O 0.5675(12) -0.0274(7) 0.3273(6)
H13A H 0.6272 0.0158 0.3021
H14A H 0.4637 -0.0198 0.3270
O20 O 0.3941(8) 0.7191(5) 0.8107(4)
H15 H 0.4167 0.7426 0.8602
H16 H 0.2899 0.6847 0.8034
H6? H 0.5519 0.9019 0.4806
loop_
_geom_bond_atom_site_label_1
_geom_bond_atom_site_label_2
_geom_bond_site_symmetry_1
_geom_bond_site_symmetry_2
Cu1 Cl1 1_555 1_555
Te1 O1 1_555 1_555
Mo1 O1 1_555 1_555
Mo2 O1 1_555 1_555
Mo3 O2 1_555 1_555
Na1 O3 1_555 1_555
Na2 O1 1_555 1_555
Na3 O9 1_555 1_555
N1 Cu1 1_555 1_555
N2 Cu1 1_555 1_555
N3 Cu1 1_555 1_555
N4 Cu1 1_555 1_555
O2 Te1 1_555 1_555
O3 Te1 1_555 1_555
O4 Mo1 1_555 1_555
O5 Mo2 1_555 1_555
O6 Mo1 1_555 1_555
O7 Mo1 1_555 1_555
O8 Mo1 1_555 1_555
O9 Mo2 1_555 1_555
O10 Mo2 1_555 1_555
O11 Mo3 1_555 1_555
O12 Mo3 1_555 1_555
O13 Na2 1_555 1_555
H1 O13 1_555 1_555
H2 O13 1_555 1_555
O14 Na2 1_555 1_555
H3 O14 1_555 1_555
H4 O14 1_555 1_555
O15 Na1 1_555 1_555
H5 O15 1_555 1_555
O16 Na1 1_555 1_555
H7 O16 1_555 1_555
H8 O16 1_555 1_555
O17 Na3 1_555 1_555
H9 O17 1_555 1_555
H10 O17 1_555 1_555
O18 Na3 1_555 1_555
H11 O18 1_555 1_555
H12 O18 1_555 1_555
O19 Na3 1_555 1_555
H13 O19 1_555 1_555
H14 O19 1_555 1_555
O20 H15 1_555 1_555
H16 O20 1_555 1_555
C1 N1 1_555 1_555
H17 C1 1_555 1_555
C2 C1 1_555 1_555
H18 C2 1_555 1_555
C3 C2 1_555 1_555
H19 C3 1_555 1_555
C4 C3 1_555 1_555
H20 C4 1_555 1_555
C5 N1 1_555 1_555
C6 N2 1_555 1_555
C7 C6 1_555 1_555
H21 C7 1_555 1_555
C8 C7 1_555 1_555
H22 C8 1_555 1_555
C9 C8 1_555 1_555
H23 C9 1_555 1_555
C10 N2 1_555 1_555
H24 C10 1_555 1_555
C11 N3 1_555 1_555
H25 C11 1_555 1_555
C12 C11 1_555 1_555
H26 C12 1_555 1_555
C13 C12 1_555 1_555
H27 C13 1_555 1_555
C14 C13 1_555 1_555
H28 C14 1_555 1_555
C15 N3 1_555 1_555
C16 N4 1_555 1_555
C17 C16 1_555 1_555
H29 C17 1_555 1_555
C18 C17 1_555 1_555
H30 C18 1_555 1_555
C19 C18 1_555 1_555
H31 C19 1_555 1_555
C20 N4 1_555 1_555
H32 C20 1_555 1_555
Mo1A O2 1_555 1_555
Mo2A O1A 1_555 1_555
Mo2_2 O10_2 1_555 1_555
Mo3A O6 1_555 1_555
Na1A O3A 1_555 1_555
Na1_2 O10 1_555 1_555
Na2_2 O1A 1_555 1_555
Na3A O9A 1_555 1_555
Na3A_2 O15 1_555 1_555
Na3_2 O15A 1_555 1_555
O1A Te1 1_555 1_555
O1A_2 Na2 1_555 1_555
O2A Te1 1_555 1_555
O3A Te1 1_555 1_555
O4A Mo1A 1_555 1_555
O5A Mo2A 1_555 1_555
O6A Mo3 1_555 1_555
O7A Mo1A 1_555 1_555
O8A Mo1A 1_555 1_555
O9A Mo2A 1_555 1_555
O10_2 Na1 1_555 1_555
O10A Mo2A 1_555 1_555
O10A_2 Na1A 1_555 1_555
O11A Mo3A 1_555 1_555
O12A Mo3A 1_555 1_555
O13A Na2 1_555 1_555
O13_2 Na1 1_555 1_555
H1A O13A 1_555 1_555
H1_2 O13_2 1_555 1_555
H2A O13A 1_555 1_555
H2_2 O13_2 1_555 1_555
O14A Na2 1_555 1_555
O14_2 Na1 1_555 1_555
H3A O14A 1_555 1_555
H3_2 O14_2 1_555 1_555
H4A O14A 1_555 1_555
H4_2 O14_2 1_555 1_555
O15A Na1A 1_555 1_555
O15A_2 Na3 1_555 1_555
O15_2 Na3A 1_555 1_555
H5A O15A 1_555 1_555
H5A_2 O15A_2 1_555 1_555
H5_2 O15_2 1_555 1_555
O16A Na1A 1_555 1_555
H7A O16A 1_555 1_555
H8A O16A 1_555 1_555
O17A Na3A 1_555 1_555
H9A O17A 1_555 1_555
H10A O17A 1_555 1_555
O18A Na3A 1_555 1_555
H11A O18A 1_555 1_555
H12A O18A 1_555 1_555
O19A Na3A 1_555 1_555
H13A O19A 1_555 1_555
H14A O19A 1_555 1_555
Mo1 O2A 1_555 1_555
Mo2 O3 1_555 1_555
Mo2 O4 1_555 1_555
Mo3 O3 1_555 1_555
Mo3 O5 1_555 1_555
Na3 O15 1_555 1_555
O13 Na1_2 1_555 1_555
O14 Na1_2 1_555 1_555
C4 C5 1_555 1_555
C5 C6 1_555 1_555
C9 C10 1_555 1_555
C14 C15 1_555 1_555
C15 C16 1_555 1_555
C19 C20 1_555 1_555
Mo1A O1A 1_555 1_555
Mo1A O6A 1_555 1_555
Mo2A O3A 1_555 1_555
Mo2A O4A 1_555 1_555
Mo3A O2A 1_555 1_555
Mo3A O3A 1_555 1_555
Mo3A O5A 1_555 1_555
Na1A O13A 1_555 1_555
Na1A O14A 1_555 1_555
Na2_2 O13_2 1_555 1_555
Na2_2 O14_2 1_555 1_555
Na3A O15A 1_555 1_555
Na3A_2 O15A_2 1_555 1_555
Na3_2 O15_2 1_555 1_555

#END
