
#######################################################################
#
#                 Cambridge Crystallographic Data Centre
#                                CCDC 
#
#######################################################################
#
# If this CIF has been generated from an entry in the Cambridge 
# Structural Database, then it will include bibliographic, chemical, 
# crystal, experimental, refinement or atomic coordinate data resulting 
# from the CCDC's data processing and validation procedures.
#
#######################################################################

data_CIWFEV
_symmetry_cell_setting           orthorhombic
_symmetry_space_group_name_H-M   'P c a 21'
_symmetry_Int_Tables_number      29
_space_group_name_Hall           'P 2c -2ac'
loop_
_symmetry_equiv_pos_site_id
_symmetry_equiv_pos_as_xyz
1 x,y,z
2 -x,-y,1/2+z
3 1/2-x,y,1/2+z
4 1/2+x,-y,z
_cell_length_a                   24.7829(16)
_cell_length_b                   8.7977(6)
_cell_length_c                   18.1338(12)
_cell_angle_alpha                90
_cell_angle_beta                 90
_cell_angle_gamma                90
_cell_volume                     3953.76
loop_
_atom_site_label
_atom_site_type_symbol
_atom_site_fract_x
_atom_site_fract_y
_atom_site_fract_z
La1 La 0.128995(5) -0.399502(14) 0.001890(9)
O1 O 0.11323(8) -0.1350(2) 0.05533(10)
O2 O 0.07116(7) -0.2561(2) -0.08430(10)
O3 O 0.15503(8) 0.5929(2) 0.12991(10)
O4 O 0.17707(8) -0.4939(2) -0.11741(11)
O5 O 0.09727(8) -0.5890(2) -0.10378(11)
O6 O 0.14612(11) -0.6496(3) -0.19925(14)
O7 O 0.19554(7) -0.1863(2) -0.05198(11)
O8 O 0.23454(7) -0.36936(19) 0.00654(15)
O9 O 0.28219(8) -0.1802(3) -0.03467(12)
O10 O 0.03677(8) -0.3697(2) 0.07964(12)
O11 O 0.05544(8) -0.5958(2) 0.04238(11)
O12 O -0.00797(10) -0.5605(3) 0.12369(14)
O13 O 0.17039(7) -0.6657(2) 0.03439(10)
H1 H 0.1525 -0.7151 0.0741
P1 P 0.05106(3) -0.09629(8) -0.09246(4)
P2 P 0.18681(3) 0.58696(8) 0.20038(4)
N1 N 0.15901(9) 0.2298(3) 0.18557(12)
N2 N 0.08259(9) 0.0966(3) 0.08600(14)
H2 H 0.0733 0.1879 0.0707
N3 N 0.14009(10) -0.5788(3) -0.14227(14)
N4 N 0.23879(10) -0.2433(3) -0.02759(13)
N5 N 0.02649(9) -0.5089(3) 0.08312(13)
C1 C 0.19903(11) 0.2783(3) 0.23058(15)
C2 C 0.21175(12) 0.2070(3) 0.29626(15)
H3 H 0.2401 0.2449 0.3264
C3 C 0.18280(12) 0.0799(3) 0.31771(17)
H4 H 0.1916 0.0273 0.3619
C4 C 0.14107(12) 0.0317(3) 0.27362(16)
H5 H 0.1200 -0.0538 0.2875
C5 C 0.12989(11) 0.1092(3) 0.20834(16)
C6 C 0.08094(12) 0.0637(3) 0.16469(16)
H6 H 0.0754 -0.0469 0.1710
H7 H 0.0492 0.1158 0.1860
C7 C 0.09753(12) -0.0061(4) 0.03682(17)
C8 C 0.09397(12) 0.0372(3) -0.04375(16)
H8 H 0.1305 0.0368 -0.0658
H9 H 0.0790 0.1411 -0.0484
C9 C -0.01605(11) -0.0744(3) -0.05630(15)
C10 C -0.04543(11) -0.2041(4) -0.03908(17)
H10 H -0.0294 -0.3015 -0.0450
C11 C -0.09795(11) -0.1926(3) -0.01323(16)
H11 H -0.1179 -0.2817 -0.0018
C12 C -0.12084(10) -0.0521(3) -0.0043(3)
H12 H -0.1568 -0.0439 0.0133
C13 C -0.09217(13) 0.0767(4) -0.02045(17)
H13 H -0.1082 0.1738 -0.0138
C14 C -0.03952(13) 0.0656(3) -0.04658(18)
H14 H -0.0197 0.1552 -0.0577
C15 C 0.05112(10) -0.0392(3) -0.18732(15)
C16 C 0.04649(11) 0.1128(3) -0.20795(16)
H15 H 0.0443 0.1893 -0.1711
C17 C 0.04508(11) 0.1534(4) -0.28140(16)
H16 H 0.0411 0.2570 -0.2952
C18 C 0.04952(11) 0.0417(4) -0.33493(16)
H17 H 0.0487 0.0693 -0.3856
C19 C 0.05513(12) -0.1089(4) -0.31545(17)
H18 H 0.0586 -0.1844 -0.3526
C20 C 0.05566(11) -0.1504(3) -0.24159(16)
H19 H 0.0591 -0.2543 -0.2281
C21 C 0.22916(11) 0.4193(3) 0.20721(16)
H20 H 0.2462 0.4004 0.1587
H21 H 0.2583 0.4394 0.2432
C22 C 0.14074(12) 0.5826(3) 0.27693(16)
C23 C 0.08526(12) 0.5889(3) 0.26152(17)
H22 H 0.0731 0.6002 0.2121
C24 C 0.04820(13) 0.5784(3) 0.31857(19)
H23 H 0.0106 0.5810 0.3083
C25 C 0.06595(15) 0.5643(3) 0.39007(19)
H24 H 0.0405 0.5594 0.4292
C26 C 0.12049(16) 0.5571(4) 0.40565(19)
H25 H 0.1323 0.5466 0.4553
C27 C 0.15808(14) 0.5651(3) 0.34911(17)
H26 H 0.1955 0.5587 0.3598
C28 C 0.23228(11) 0.7447(3) 0.20811(16)
C29 C 0.23151(11) 0.8586(3) 0.15468(15)
H27 H 0.2057 0.8547 0.1160
C30 C 0.26829(11) 0.9779(3) 0.15774(16)
H28 H 0.2683 1.0536 0.1204
C31 C 0.30501(11) 0.9862(3) 0.21544(16)
H29 H 0.3298 1.0684 0.2181
C32 C 0.30544(12) 0.8750(3) 0.26869(17)
H30 H 0.3306 0.8809 0.3081
C33 C 0.26970(12) 0.7550(3) 0.26555(16)
H31 H 0.2705 0.6789 0.3027
C34 C 0.21425(10) -0.7518(3) 0.0048(2)
H32 H 0.2172 -0.7323 -0.0482
H33 H 0.2077 -0.8603 0.0131
H34 H 0.2479 -0.7217 0.0293
La1_2 La 0.128995(5) 0.600498(14) 0.001890(9)
O3_2 O 0.15503(8) -0.4071(2) 0.12991(10)
O14 O 0.18099(8) 0.4693(3) 0.57317(12)
H35 H 0.2049 0.5281 0.5569
C35 C 0.14428(16) 0.5533(5) 0.6188(2)
H36 H 0.1639 0.6348 0.6442
H37 H 0.1281 0.4850 0.6553
H38 H 0.1158 0.5975 0.5881
loop_
_geom_bond_atom_site_label_1
_geom_bond_atom_site_label_2
_geom_bond_site_symmetry_1
_geom_bond_site_symmetry_2
La1 O1 1_555 1_555
O1 C7 1_555 1_555
O2 La1 1_555 1_555
O3 P2 1_555 1_555
O4 La1 1_555 1_555
O5 La1 1_555 1_555
O6 N3 1_555 1_555
O7 La1 1_555 1_555
O8 La1 1_555 1_555
O9 N4 1_555 1_555
O10 La1 1_555 1_555
O11 La1 1_555 1_555
O12 N5 1_555 1_555
O13 La1 1_555 1_555
H1 O13 1_555 1_555
P1 O2 1_555 1_555
P2 C21 1_555 1_555
N1 C1 1_555 1_555
N2 H2 1_555 1_555
N3 O4 1_555 1_555
N4 O7 1_555 1_555
N5 O10 1_555 1_555
C1 C2 1_555 1_555
C2 H3 1_555 1_555
C3 C2 1_555 1_555
H4 C3 1_555 1_555
C4 C3 1_555 1_555
H5 C4 1_555 1_555
C5 N1 1_555 1_555
C6 N2 1_555 1_555
H6 C6 1_555 1_555
H7 C6 1_555 1_555
C7 N2 1_555 1_555
C8 P1 1_555 1_555
H8 C8 1_555 1_555
H9 C8 1_555 1_555
C9 P1 1_555 1_555
C10 C9 1_555 1_555
H10 C10 1_555 1_555
C11 C10 1_555 1_555
H11 C11 1_555 1_555
C12 C11 1_555 1_555
H12 C12 1_555 1_555
C13 C12 1_555 1_555
H13 C13 1_555 1_555
C14 C9 1_555 1_555
H14 C14 1_555 1_555
C15 P1 1_555 1_555
C16 C15 1_555 1_555
H15 C16 1_555 1_555
C17 C16 1_555 1_555
H16 C17 1_555 1_555
C18 C17 1_555 1_555
H17 C18 1_555 1_555
C19 C18 1_555 1_555
H18 C19 1_555 1_555
C20 C15 1_555 1_555
H19 C20 1_555 1_555
C21 C1 1_555 1_555
H20 C21 1_555 1_555
H21 C21 1_555 1_555
C22 P2 1_555 1_555
C23 C22 1_555 1_555
H22 C23 1_555 1_555
C24 C23 1_555 1_555
H23 C24 1_555 1_555
C25 C24 1_555 1_555
H24 C25 1_555 1_555
C26 C25 1_555 1_555
H25 C26 1_555 1_555
C27 C22 1_555 1_555
H26 C27 1_555 1_555
C28 P2 1_555 1_555
C29 C28 1_555 1_555
H27 C29 1_555 1_555
C30 C29 1_555 1_555
H28 C30 1_555 1_555
C31 C30 1_555 1_555
H29 C31 1_555 1_555
C32 C31 1_555 1_555
H30 C32 1_555 1_555
C33 C28 1_555 1_555
H31 C33 1_555 1_555
C34 O13 1_555 1_555
H32 C34 1_555 1_555
H33 C34 1_555 1_555
H34 C34 1_555 1_555
O14 H35 1_555 1_555
C35 O14 1_555 1_555
H36 C35 1_555 1_555
H37 C35 1_555 1_555
H38 C35 1_555 1_555
La1_2 O3 1_555 1_555
O3_2 La1 1_555 1_555
O5 N3 1_555 1_555
O8 N4 1_555 1_555
O11 N5 1_555 1_555
C4 C5 1_555 1_555
C5 C6 1_555 1_555
C7 C8 1_555 1_555
C13 C14 1_555 1_555
C19 C20 1_555 1_555
C26 C27 1_555 1_555
C32 C33 1_555 1_555

#END
