
#######################################################################
#
#                 Cambridge Crystallographic Data Centre
#                                CCDC 
#
#######################################################################
#
# If this CIF has been generated from an entry in the Cambridge 
# Structural Database, then it will include bibliographic, chemical, 
# crystal, experimental, refinement or atomic coordinate data resulting 
# from the CCDC's data processing and validation procedures.
#
#######################################################################

data_CIWLID10
_symmetry_cell_setting           monoclinic
_symmetry_space_group_name_H-M   'P 21'
_symmetry_Int_Tables_number      4
_space_group_name_Hall           'P 2yb'
loop_
_symmetry_equiv_pos_site_id
_symmetry_equiv_pos_as_xyz
1 x,y,z
2 -x,1/2+y,-z
_cell_length_a                   13.265(8)
_cell_length_b                   5.036(3)
_cell_length_c                   9.571(6)
_cell_angle_alpha                90
_cell_angle_beta                 97.55(2)
_cell_angle_gamma                90
_cell_volume                     633.824
loop_
_atom_site_label
_atom_site_type_symbol
_atom_site_fract_x
_atom_site_fract_y
_atom_site_fract_z
Cu1 Cu 0.49395(9) -0.32586 0.24963(11)
S1 S 0.14482(19) -0.64482(79) 0.08266(28)
S2 S 0.83059(19) 0.10823(76) 0.44365(27)
O1 O 0.4597(4) -0.1186(16) 0.0796(6)
O2 O 0.3676(5) -0.1241(17) -0.1319(6)
O3 O 0.5295(5) -0.5313(15) 0.4219(6)
O4 O 0.6348(5) -0.5224(16) 0.6223(6)
C1 C 0.3912(7) -0.2132(21) -0.0142(10)
C2 C 0.3352(7) -0.4595(21) 0.0302(9)
C3 C 0.2301(7) -0.3702(25) 0.0610(10)
C4 C 0.1108(9) -0.7347(30) -0.0978(13)
C5 C 0.6084(7) -0.4447(21) 0.5002(9)
C6 C 0.6728(7) -0.2475(20) 0.4294(9)
C7 C 0.7440(7) -0.0825(22) 0.5342(10)
C8 C 0.9063(9) 0.2493(31) 0.5915(12)
N1 N 0.3935(5) -0.5885(19) 0.1569(7)
N2 N 0.6010(5) -0.0760(16) 0.3362(7)
O2A O 0.6324(5) -0.6241(17) 0.1319(6)
O4A O 0.3652(5) -0.0224(16) 0.3777(6)
Cu1A Cu 0.50605(9) 0.17414 -0.24963(11)
Cu1A_2 Cu 0.50605(9) -0.82586 0.75037(11)
loop_
_geom_bond_atom_site_label_1
_geom_bond_atom_site_label_2
_geom_bond_site_symmetry_1
_geom_bond_site_symmetry_2
Cu1 O1 1_555 1_555
S1 C3 1_555 1_555
S2 C7 1_555 1_555
O1 C1 1_555 1_555
O2 C1 1_555 1_555
O3 Cu1 1_555 1_555
O4 C5 1_555 1_555
C1 C2 1_555 1_555
C2 C3 1_555 1_555
C4 S1 1_555 1_555
C5 O3 1_555 1_555
C6 C5 1_555 1_555
C7 C6 1_555 1_555
C8 S2 1_555 1_555
N1 Cu1 1_555 1_555
N2 Cu1 1_555 1_555
O2A Cu1 1_555 1_555
O4A Cu1 1_555 1_555
Cu1A O2 1_555 1_555
Cu1A_2 O4 1_555 1_555
C2 N1 1_555 1_555
C6 N2 1_555 1_555

#END
