
#######################################################################
#
#                 Cambridge Crystallographic Data Centre
#                                CCDC 
#
#######################################################################
#
# If this CIF has been generated from an entry in the Cambridge 
# Structural Database, then it will include bibliographic, chemical, 
# crystal, experimental, refinement or atomic coordinate data resulting 
# from the CCDC's data processing and validation procedures.
#
#######################################################################

data_CIWNIG
_symmetry_cell_setting           orthorhombic
_symmetry_space_group_name_H-M   'P n a b'
_symmetry_Int_Tables_number      60
_space_group_name_Hall           '-P 2bc 2n'
loop_
_symmetry_equiv_pos_site_id
_symmetry_equiv_pos_as_xyz
1 x,y,z
2 -x,1/2-y,1/2+z
3 1/2+x,1/2-y,1/2-z
4 1/2-x,y,-z
5 -x,-y,-z
6 x,1/2+y,1/2-z
7 1/2-x,1/2+y,1/2+z
8 1/2+x,-y,z
_cell_length_a                   11.659(1)
_cell_length_b                   12.929(1)
_cell_length_c                   14.903(1)
_cell_angle_alpha                90
_cell_angle_beta                 90
_cell_angle_gamma                90
_cell_volume                     2246.47
loop_
_atom_site_label
_atom_site_type_symbol
_atom_site_fract_x
_atom_site_fract_y
_atom_site_fract_z
Ni1 Ni -0.2500 0.29960(7) 0.5000
S1 S 0.01887(11) 0.33325(10) 0.40295(8)
O1 O 0.1145(3) 0.3608(3) 0.4588(2)
O2 O -0.0356(3) 0.4169(3) 0.3557(2)
N1 N -0.1553(3) 0.1810(3) 0.5643(2)
N2 N -0.0815(3) 0.2749(3) 0.4548(2)
N3 N 0.2063(3) 0.0833(3) 0.0987(2)
H1 H 0.2877 0.0753 0.1189
H2 H 0.1689 0.0240 0.0777
C1 C -0.1539(5) 0.1074(4) 0.6276(3)
H3 H -0.2205 0.0951 0.6602
C2 C -0.0584(6) 0.0494(4) 0.6460(4)
H4 H -0.0599 -0.0009 0.6906
C3 C 0.0386(5) 0.0671(4) 0.5978(4)
H5 H 0.1040 0.0283 0.6095
C4 C 0.0414(5) 0.1417(4) 0.5317(3)
H6 H 0.1078 0.1549 0.4990
C5 C -0.0596(4) 0.1965(4) 0.5161(3)
C6 C 0.0725(4) 0.2470(4) 0.3202(3)
C7 C 0.1881(4) 0.2206(4) 0.3177(3)
H7 H 0.2374 0.2428 0.3628
C8 C 0.2293(4) 0.1604(4) 0.2470(3)
H8 H 0.3061 0.1408 0.2465
C9 C 0.1592(4) 0.1295(4) 0.1782(3)
C10 C 0.0411(4) 0.1498(4) 0.1835(3)
H9 H -0.0088 0.1246 0.1399
C11 C -0.0001(4) 0.2082(4) 0.2548(3)
H10 H -0.0783 0.2215 0.2588
Ni1A Ni 0.2500 0.20040(7) 0.0000
Ni1A_2 Ni -0.7500 0.20040(7) 1.0000
S1C S -0.51887(11) 0.33325(10) 0.59705(8)
O1C O -0.6145(3) 0.3608(3) 0.5412(2)
O2C O -0.4644(3) 0.4169(3) 0.6443(2)
N1C N -0.3447(3) 0.1810(3) 0.4357(2)
N2C N -0.4185(3) 0.2749(3) 0.5452(2)
N3C N -0.7063(3) 0.0833(3) 0.9013(2)
N3A N -0.2063(3) 0.4167(3) 0.5987(2)
N3B N -0.2937(3) 0.4167(3) 0.4013(2)
H1C H -0.7877 0.0753 0.8811
H1A H -0.2877 0.4247 0.6189
H1B H -0.2123 0.4247 0.3811
H2C H -0.6689 0.0240 0.9223
H2A H -0.1689 0.4760 0.5777
H2B H -0.3311 0.4760 0.4223
C1C C -0.3461(5) 0.1074(4) 0.3724(3)
H3C H -0.2795 0.0951 0.3398
C2C C -0.4416(6) 0.0494(4) 0.3540(4)
H4C H -0.4401 -0.0009 0.3094
C3C C -0.5386(5) 0.0671(4) 0.4022(4)
H5C H -0.6040 0.0283 0.3905
C4C C -0.5414(5) 0.1417(4) 0.4683(3)
H6C H -0.6078 0.1549 0.5010
C5C C -0.4404(4) 0.1965(4) 0.4839(3)
C6C C -0.5725(4) 0.2470(4) 0.6798(3)
C7C C -0.6881(4) 0.2206(4) 0.6823(3)
H7C H -0.7374 0.2428 0.6372
C8C C -0.7293(4) 0.1604(4) 0.7530(3)
H8C H -0.8061 0.1408 0.7535
C9C C -0.6592(4) 0.1295(4) 0.8218(3)
C10C C -0.5411(4) 0.1498(4) 0.8165(3)
H9C H -0.4912 0.1246 0.8601
C11C C -0.4999(4) 0.2082(4) 0.7452(3)
H10C H -0.4217 0.2215 0.7412
loop_
_geom_bond_atom_site_label_1
_geom_bond_atom_site_label_2
_geom_bond_site_symmetry_1
_geom_bond_site_symmetry_2
Ni1 N1 1_555 1_555
S1 O1 1_555 1_555
O2 S1 1_555 1_555
N1 C1 1_555 1_555
N2 Ni1 1_555 1_555
N3 H1 1_555 1_555
H2 N3 1_555 1_555
C1 H3 1_555 1_555
C2 C1 1_555 1_555
H4 C2 1_555 1_555
C3 C2 1_555 1_555
H5 C3 1_555 1_555
C4 C3 1_555 1_555
H6 C4 1_555 1_555
C5 N1 1_555 1_555
C6 S1 1_555 1_555
C7 C6 1_555 1_555
H7 C7 1_555 1_555
C8 C7 1_555 1_555
H8 C8 1_555 1_555
C9 N3 1_555 1_555
C10 C9 1_555 1_555
H9 C10 1_555 1_555
C11 C6 1_555 1_555
H10 C11 1_555 1_555
Ni1A N3 1_555 1_555
Ni1A_2 N3C 1_555 1_555
S1C O1C 1_555 1_555
O2C S1C 1_555 1_555
N1C Ni1 1_555 1_555
N2C Ni1 1_555 1_555
N3C H1C 1_555 1_555
N3A Ni1 1_555 1_555
N3B Ni1 1_555 1_555
H1A N3A 1_555 1_555
H1B N3B 1_555 1_555
H2C N3C 1_555 1_555
H2A N3A 1_555 1_555
H2B N3B 1_555 1_555
C1C N1C 1_555 1_555
H3C C1C 1_555 1_555
C2C C1C 1_555 1_555
H4C C2C 1_555 1_555
C3C C2C 1_555 1_555
H5C C3C 1_555 1_555
C4C C3C 1_555 1_555
H6C C4C 1_555 1_555
C5C N1C 1_555 1_555
C6C S1C 1_555 1_555
C7C C6C 1_555 1_555
H7C C7C 1_555 1_555
C8C C7C 1_555 1_555
H8C C8C 1_555 1_555
C9C N3C 1_555 1_555
C10C C9C 1_555 1_555
H9C C10C 1_555 1_555
C11C C6C 1_555 1_555
H10C C11C 1_555 1_555
S1 N2 1_555 1_555
N2 C5 1_555 1_555
C4 C5 1_555 1_555
C8 C9 1_555 1_555
C10 C11 1_555 1_555
S1C N2C 1_555 1_555
N2C C5C 1_555 1_555
C4C C5C 1_555 1_555
C8C C9C 1_555 1_555
C10C C11C 1_555 1_555

#END
