
#######################################################################
#
#                 Cambridge Crystallographic Data Centre
#                                CCDC 
#
#######################################################################
#
# If this CIF has been generated from an entry in the Cambridge 
# Structural Database, then it will include bibliographic, chemical, 
# crystal, experimental, refinement or atomic coordinate data resulting 
# from the CCDC's data processing and validation procedures.
#
#######################################################################

data_CIWNIH
_symmetry_cell_setting           triclinic
_symmetry_space_group_name_H-M   'P -1'
_symmetry_Int_Tables_number      2
_space_group_name_Hall           '-P 1'
loop_
_symmetry_equiv_pos_site_id
_symmetry_equiv_pos_as_xyz
1 x,y,z
2 -x,-y,-z
_cell_length_a                   6.5906(8)
_cell_length_b                   6.7983(7)
_cell_length_c                   8.1887(9)
_cell_angle_alpha                94.964(9)
_cell_angle_beta                 107.326(10)
_cell_angle_gamma                117.279(11)
_cell_volume                     300.347
loop_
_atom_site_label
_atom_site_type_symbol
_atom_site_fract_x
_atom_site_fract_y
_atom_site_fract_z
K1 K 0.19570(7) -0.26813(6) 0.80336(5)
O1 O 0.3099(3) 0.0916(2) 1.04827(19)
O2 O 0.6201(2) 0.31941(19) 0.78898(15)
O3 O -0.1123(2) -0.2947(2) 0.18085(16)
C1 C 0.5035(3) 0.4244(3) 0.5578(2)
O4 O 0.0872(2) -0.27444(19) 0.45097(16)
N1 N 0.1672(3) 0.0483(2) 0.35637(18)
N2 N 0.4238(3) 0.1163(2) 0.66446(19)
N3 N 0.6645(3) 0.5048(2) 0.71900(19)
N4 N 0.0478(3) -0.1771(2) 0.33300(18)
C2 C 0.3512(3) 0.1775(3) 0.5213(2)
H1 H 0.258(4) 0.158(4) 0.993(3)
H2 H 0.255(5) 0.083(4) 1.116(4)
O2A O 0.3799(2) 0.68059(19) 0.21102(15)
O3A O 1.1123(2) 1.2947(2) 0.81915(16)
C1A C 0.4965(3) 0.5756(3) 0.4422(2)
O4A O 0.9128(2) 1.27444(19) 0.54903(16)
N1A N 0.8328(3) 0.9517(2) 0.64363(18)
N2A N 0.5762(3) 0.8837(2) 0.33554(19)
N3A N 0.3355(3) 0.4952(2) 0.28100(19)
N4A N 0.9522(3) 1.1771(2) 0.66700(18)
C2A C 0.6488(3) 0.8225(3) 0.4787(2)
K1A K -0.19570(7) -0.73187(6) 0.19664(5)
O1A O -0.3099(3) -1.0916(2) -0.04827(19)
H1A H -0.258(4) -1.158(4) 0.007(3)
H2A H -0.255(5) -1.083(4) -0.116(4)
K1_2 K -0.80430(7) -1.26813(6) -0.19664(5)
K1_3 K 0.19570(7) 0.73187(6) -0.19664(5)
K1_4 K 1.19570(7) 0.73187(6) 0.80336(5)
K1_5 K 1.19570(7) 1.73187(6) 0.80336(5)
K1A_2 K -0.19570(7) 0.26813(6) 0.19664(5)
K1A_3 K 0.80430(7) 0.26813(6) 1.19664(5)
K1A_4 K 0.80430(7) 1.26813(6) 0.19664(5)
O1_2 O -0.6901(3) -0.9084(2) 0.04827(19)
O1A_2 O 0.6901(3) -0.0916(2) 0.95173(19)
O2_2 O -0.3799(2) -0.68059(19) -0.21102(15)
O2A_2 O 0.3799(2) -0.31941(19) 1.21102(15)
O3A_2 O 0.1123(2) -0.7053(2) 0.81915(16)
O4A_2 O -0.0872(2) -0.72556(19) 0.54903(16)
N2A_2 N -0.4238(3) -1.1163(2) 0.33554(19)
N3_2 N -0.3355(3) -0.4952(2) 0.71900(19)
N3A_2 N 0.3355(3) -0.5048(2) 0.28100(19)
loop_
_geom_bond_atom_site_label_1
_geom_bond_atom_site_label_2
_geom_bond_site_symmetry_1
_geom_bond_site_symmetry_2
K1 O1 1_555 1_555
O1 H1 1_555 1_555
O2 N2 1_555 1_555
O3 N4 1_555 1_555
C1 N3 1_555 1_555
O4 K1 1_555 1_555
N1 N4 1_555 1_555
N2 K1 1_555 1_555
N3 O2 1_555 1_555
N4 O4 1_555 1_555
C2 C1 1_555 1_555
H2 O1 1_555 1_555
O2A N2A 1_555 1_555
O3A N4A 1_555 1_555
C1A C1 1_555 1_555
O4A N4A 1_555 1_555
N1A N4A 1_555 1_555
N2A C2A 1_555 1_555
N3A O2A 1_555 1_555
C2A C1A 1_555 1_555
K1A O3 1_555 1_555
O1A K1A 1_555 1_555
H1A O1A 1_555 1_555
H2A O1A 1_555 1_555
K1_2 O1A 1_555 1_555
K1_3 O2A 1_555 1_555
K1_4 N3 1_555 1_555
K1_5 O3A 1_555 1_555
K1A_2 N3A 1_555 1_555
K1A_3 O1 1_555 1_555
K1A_4 O4A 1_555 1_555
O1_2 K1A 1_555 1_555
O1A_2 K1 1_555 1_555
O2_2 K1A 1_555 1_555
O2A_2 K1 1_555 1_555
O3A_2 K1 1_555 1_555
O4A_2 K1 1_555 1_555
N2A_2 K1A 1_555 1_555
N3_2 K1 1_555 1_555
N3A_2 K1A 1_555 1_555
O2 K1A_3 1_555 1_555
O4 K1A 1_555 1_555
N1 C2 1_555 1_555
N2 C2 1_555 1_555
C1A N3A 1_555 1_555
O4A K1_5 1_555 1_555
N1A C2A 1_555 1_555
N2A K1A_4 1_555 1_555
K1A O4A_2 1_555 1_555
K1_2 O1_2 1_555 1_555
K1A_3 O1A_2 1_555 1_555

#END
