
#######################################################################
#
#                 Cambridge Crystallographic Data Centre
#                                CCDC 
#
#######################################################################
#
# If this CIF has been generated from an entry in the Cambridge 
# Structural Database, then it will include bibliographic, chemical, 
# crystal, experimental, refinement or atomic coordinate data resulting 
# from the CCDC's data processing and validation procedures.
#
#######################################################################

data_CIWPIH
_symmetry_cell_setting           monoclinic
_symmetry_space_group_name_H-M   'P 21/c'
_symmetry_Int_Tables_number      14
_space_group_name_Hall           '-P 2ybc'
loop_
_symmetry_equiv_pos_site_id
_symmetry_equiv_pos_as_xyz
1 x,y,z
2 -x,1/2+y,1/2-z
3 -x,-y,-z
4 x,1/2-y,1/2+z
_cell_length_a                   13.401(2)
_cell_length_b                   19.173(5)
_cell_length_c                   8.079(1)
_cell_angle_alpha                90
_cell_angle_beta                 98.94(1)
_cell_angle_gamma                90
_cell_volume                     2050.58
loop_
_atom_site_label
_atom_site_type_symbol
_atom_site_fract_x
_atom_site_fract_y
_atom_site_fract_z
Ce1 Ce 0.2618 0.2207 0.0328
O1 O 0.4164(3) 0.2661(2) 0.1816(5)
O2 O 0.4016(3) 0.3310(2) 0.4034(5)
O3 O 0.7598(3) 0.4309(3) 0.5327(6)
O4 O 0.3071(4) 0.1035(2) 0.1469(5)
O5 O 0.2951(3) 0.1769(2) 0.3526(5)
O6 O 0.3736(4) 0.0235(2) 0.8746(5)
O7 O 0.1110(3) 0.3020(2) -0.0219(5)
O8 O 0.1879(3) 0.3097(2) 0.2375(5)
O9 O 0.0379(4) 0.5513(3) 0.3712(6)
C1 C 0.4542(5) 0.3012(3) 0.3062(7)
C2 C 0.5670(5) 0.3085(3) 0.3388(7)
C3 C 0.6262(5) 0.2590(4) 0.2752(9)
C4 C 0.7304(5) 0.2665(4) 0.3042(10)
C5 C 0.7760(5) 0.3243(4) 0.3939(10)
C6 C 0.7144(5) 0.3733(4) 0.4517(8)
C7 C 0.6097(5) 0.3659(3) 0.4285(7)
C8 C 0.3143(4) 0.1164(3) 0.3019(7)
C9 C 0.3414(4) 0.0585(3) 0.4230(7)
C10 C 0.3681(5) -0.0060(3) 0.3626(8)
C11 C 0.3945(5) -0.0606(3) 0.4758(8)
C12 C 0.3964(5) -0.0499(3) 0.6483(8)
C13 C 0.3700(4) 0.0153(3) 0.7035(7)
C14 C 0.3412(4) 0.0694(3) 0.5938(7)
C15 C 0.1189(4) 0.3291(3) 0.1202(7)
C16 C 0.0477(4) 0.3856(3) 0.1487(7)
C17 C -0.0503(5) 0.3838(4) 0.0569(8)
C18 C -0.1173(5) 0.4367(4) 0.0806(10)
C19 C -0.0869(5) 0.4924(4) 0.1874(10)
C20 C 0.0109(5) 0.4940(4) 0.2729(8)
C21 C 0.0788(5) 0.4401(3) 0.2594(8)
O10 O 0.1004(3) 0.1642(3) 0.1248(6)
O5C O 0.2951(3) 0.3231(2) -0.1474(5)
O8C O 0.1879(3) 0.1903(2) -0.2625(5)
Ce1C Ce 0.2618 0.2793 0.5328
O2C O 0.4016(3) 0.1690(2) -0.0966(5)
loop_
_geom_bond_atom_site_label_1
_geom_bond_atom_site_label_2
_geom_bond_site_symmetry_1
_geom_bond_site_symmetry_2
Ce1 O1 1_555 1_555
O1 C1 1_555 1_555
O2 C1 1_555 1_555
O3 C6 1_555 1_555
O4 Ce1 1_555 1_555
O5 Ce1 1_555 1_555
O6 C13 1_555 1_555
O7 Ce1 1_555 1_555
O8 Ce1 1_555 1_555
O9 C20 1_555 1_555
C1 C2 1_555 1_555
C2 C3 1_555 1_555
C3 C4 1_555 1_555
C4 C5 1_555 1_555
C5 C6 1_555 1_555
C6 C7 1_555 1_555
C7 C2 1_555 1_555
C8 O4 1_555 1_555
C9 C8 1_555 1_555
C10 C9 1_555 1_555
C11 C10 1_555 1_555
C12 C11 1_555 1_555
C13 C12 1_555 1_555
C14 C9 1_555 1_555
C15 O7 1_555 1_555
C16 C15 1_555 1_555
C17 C16 1_555 1_555
C18 C17 1_555 1_555
C19 C18 1_555 1_555
C20 C19 1_555 1_555
C21 C16 1_555 1_555
O10 Ce1 1_555 1_555
O5C Ce1 1_555 1_555
O8C Ce1 1_555 1_555
Ce1C O2 1_555 1_555
O2C Ce1 1_555 1_555
O5 C8 1_555 1_555
O5 Ce1C 1_555 1_555
O8 C15 1_555 1_555
O8 Ce1C 1_555 1_555
C13 C14 1_555 1_555
C20 C21 1_555 1_555

#END
