
#######################################################################
#
#                 Cambridge Crystallographic Data Centre
#                                CCDC 
#
#######################################################################
#
# If this CIF has been generated from an entry in the Cambridge 
# Structural Database, then it will include bibliographic, chemical, 
# crystal, experimental, refinement or atomic coordinate data resulting 
# from the CCDC's data processing and validation procedures.
#
#######################################################################

data_CIWTOT
_symmetry_cell_setting           triclinic
_symmetry_space_group_name_H-M   'P -1'
_symmetry_Int_Tables_number      2
_space_group_name_Hall           '-P 1'
loop_
_symmetry_equiv_pos_site_id
_symmetry_equiv_pos_as_xyz
1 x,y,z
2 -x,-y,-z
_cell_length_a                   4.9305(4)
_cell_length_b                   7.9365(6)
_cell_length_c                   8.4930(8)
_cell_angle_alpha                68.909(8)
_cell_angle_beta                 83.968(7)
_cell_angle_gamma                86.088(6)
_cell_volume                     308.193
loop_
_atom_site_label
_atom_site_type_symbol
_atom_site_fract_x
_atom_site_fract_y
_atom_site_fract_z
Cu1 Cu 0.5000 1.0000 -0.5000
N1 N 0.4557(3) 0.6963(2) 0.2294(2)
O1 O 0.3306(3) 0.7667(2) -0.3931(2)
N2 N -0.0253(3) 0.4762(2) 0.0794(2)
C1 C 0.1481(4) 0.5524(3) 0.1555(3)
C2 C 0.3703(4) 0.6765(3) 0.0953(3)
O2 O 0.7606(3) 0.9177(2) -0.26587(17)
O3 O 0.7836(3) 0.8924(2) -0.00397(18)
O4 O 0.2892(3) 0.5871(2) 0.36868(17)
N3 N 0.6712(3) 0.8554(2) -0.1098(2)
N4 N 0.4592(3) 0.7490(2) -0.0735(2)
O5 O 0.2258(3) 1.1133(2) -0.37585(19)
N5 N 0.1055(3) 0.5016(2) 0.3193(2)
H1 H 0.318(6) 0.742(4) -0.300(4)
H2 H 0.297(6) 1.165(4) -0.321(3)
H3 H 0.104(6) 1.054(4) -0.322(4)
H4 H 0.199(6) 0.735(4) -0.418(3)
N1A N -0.4557(3) 0.3037(2) -0.2294(2)
N2A N 0.0253(3) 0.5238(2) -0.0794(2)
C1A C -0.1481(4) 0.4476(3) -0.1555(3)
C2A C -0.3703(4) 0.3235(3) -0.0953(3)
O2A O -0.7606(3) 0.0823(2) 0.26587(17)
O3A O -0.7836(3) 0.1076(2) 0.00397(18)
O4A O -0.2892(3) 0.4129(2) -0.36868(17)
N3A N -0.6712(3) 0.1446(2) 0.1098(2)
N4A N -0.4592(3) 0.2510(2) 0.0735(2)
N5A N -0.1055(3) 0.4984(2) -0.3193(2)
O1A O 0.6694(3) 1.2333(2) -0.6069(2)
H1A H 0.682(6) 1.258(4) -0.700(4)
H4A H 0.801(6) 1.265(4) -0.582(3)
O5A O 0.7742(3) 0.8867(2) -0.62415(19)
H2A H 0.703(6) 0.835(4) -0.679(3)
H3A H 0.896(6) 0.946(4) -0.678(4)
Cu1_2 Cu -0.5000 0.0000 0.5000
O2A_2 O 0.2394(3) 1.0823(2) -0.73413(17)
loop_
_geom_bond_atom_site_label_1
_geom_bond_atom_site_label_2
_geom_bond_site_symmetry_1
_geom_bond_site_symmetry_2
Cu1 O1 1_555 1_555
N1 C2 1_555 1_555
O1 H1 1_555 1_555
N2 C1 1_555 1_555
C1 C2 1_555 1_555
C2 N4 1_555 1_555
O2 Cu1 1_555 1_555
O3 N3 1_555 1_555
O4 N1 1_555 1_555
N3 O2 1_555 1_555
N4 N3 1_555 1_555
O5 Cu1 1_555 1_555
N5 C1 1_555 1_555
H2 O5 1_555 1_555
H3 O5 1_555 1_555
H4 O1 1_555 1_555
N1A C2A 1_555 1_555
N2A N2 1_555 1_555
C1A N2A 1_555 1_555
C2A C1A 1_555 1_555
O2A N3A 1_555 1_555
O3A N3A 1_555 1_555
O4A N1A 1_555 1_555
N3A N4A 1_555 1_555
N4A C2A 1_555 1_555
N5A C1A 1_555 1_555
O1A Cu1 1_555 1_555
H1A O1A 1_555 1_555
H4A O1A 1_555 1_555
O5A Cu1 1_555 1_555
H2A O5A 1_555 1_555
H3A O5A 1_555 1_555
Cu1_2 O2A 1_555 1_555
O2A_2 Cu1 1_555 1_555
O4 N5 1_555 1_555
O4A N5A 1_555 1_555

#END
