
#######################################################################
#
#                 Cambridge Crystallographic Data Centre
#                                CCDC 
#
#######################################################################
#
# If this CIF has been generated from an entry in the Cambridge 
# Structural Database, then it will include bibliographic, chemical, 
# crystal, experimental, refinement or atomic coordinate data resulting 
# from the CCDC's data processing and validation procedures.
#
#######################################################################

data_CIWWUB
_symmetry_cell_setting           monoclinic
_symmetry_space_group_name_H-M   'P 21/n'
_symmetry_Int_Tables_number      14
_space_group_name_Hall           '-P 2yn'
loop_
_symmetry_equiv_pos_site_id
_symmetry_equiv_pos_as_xyz
1 x,y,z
2 1/2-x,1/2+y,1/2-z
3 -x,-y,-z
4 1/2+x,1/2-y,1/2+z
_cell_length_a                   4.8940(11)
_cell_length_b                   16.011(4)
_cell_length_c                   19.077(4)
_cell_angle_alpha                90
_cell_angle_beta                 92.393(3)
_cell_angle_gamma                90
_cell_volume                     1493.53
loop_
_atom_site_label
_atom_site_type_symbol
_atom_site_fract_x
_atom_site_fract_y
_atom_site_fract_z
Ag1 Ag 0.71244(4) 0.134100(11) 1.018347(10)
C1 C 0.8319(5) 0.15500(14) 0.86188(13)
H1 H 0.7003 0.1963 0.8664
C2 C 0.9351(5) 0.14053(14) 0.79680(14)
H2 H 0.8725 0.1717 0.7582
C3 C 1.1311(5) 0.07976(15) 0.78912(12)
H3 H 1.2020 0.0695 0.7455
C4 C 1.2219(4) 0.03380(13) 0.84769(12)
C5 C 1.1087(5) 0.05276(13) 0.91116(12)
H4 H 1.1701 0.0232 0.9507
C6 C 1.4272(4) -0.03242(13) 0.84195(11)
C7 C 0.3021(5) 0.13812(13) 1.13777(12)
C8 C 0.1575(5) 0.20687(14) 1.11051(13)
H5 H 0.1860 0.2269 1.0656
C9 C -0.0299(5) 0.24392(16) 1.15313(14)
H6 H -0.1287 0.2900 1.1365
C10 C -0.0745(5) 0.21380(16) 1.22057(14)
H7 H -0.2039 0.2399 1.2474
C11 C 0.0682(5) 0.14644(15) 1.24842(13)
H8 H 0.0397 0.1267 1.2934
C12 C 0.2577(4) 0.10963(13) 1.20541(11)
C13 C 0.5074(5) 0.32005(13) 0.96973(12)
C14 C 0.4884(5) 0.41435(13) 0.98107(11)
C15 C 0.3175(5) 0.47239(13) 0.94532(11)
C16 C 0.1144(5) 0.45601(15) 0.88456(12)
C17 C 0.6648(5) 0.44432(14) 1.03430(12)
H9 H 0.7785 0.4061 1.0578
N1 N 0.9155(4) 0.11133(12) 0.91899(11)
N2 N 0.5015(4) 0.08847(11) 1.10831(9)
N3 N 1.5701(4) -0.04297(11) 0.78374(9)
H10 H 1.5557 -0.0131 0.7463
O1 O 0.6918(4) 0.28179(11) 1.00118(11)
O2 O 0.3338(4) 0.28267(11) 0.92943(12)
H11 H 0.202(8) 0.322(3) 0.909(2)
O3 O 0.0297(4) 0.51667(11) 0.84961(9)
O4 O 0.0356(4) 0.38157(11) 0.87094(10)
Ag1B Ag 1.28756(4) -0.134100(11) 0.981653(10)
Ag1B_2 Ag 0.28756(4) 0.865900(11) 0.981653(10)
C1B C 1.1681(5) -0.15500(14) 1.13812(13)
H1B H 1.2997 -0.1963 1.1336
C2B C 1.0649(5) -0.14053(14) 1.20320(14)
H2B H 1.1275 -0.1717 1.2418
C3B C 0.8689(5) -0.07976(15) 1.21088(12)
H3B H 0.7980 -0.0695 1.2545
C4B C 0.7781(4) -0.03380(13) 1.15231(12)
C5B C 0.8913(5) -0.05276(13) 1.08884(12)
H4B H 0.8299 -0.0232 1.0493
C6B C 0.5728(4) 0.03242(13) 1.15805(11)
C7B C 1.6979(5) -0.13812(13) 0.86223(12)
C8B C 1.8425(5) -0.20687(14) 0.88949(13)
H5B H 1.8140 -0.2269 0.9344
C9B C 2.0299(5) -0.24392(16) 0.84687(14)
H6B H 2.1287 -0.2900 0.8635
C10B C 2.0745(5) -0.21380(16) 0.77943(14)
H7B H 2.2039 -0.2399 0.7526
C11B C 1.9318(5) -0.14644(15) 0.75158(13)
H8B H 1.9603 -0.1267 0.7066
C12B C 1.7423(4) -0.10963(13) 0.79459(11)
C13B C 0.4926(5) 0.67995(13) 1.03027(12)
C14B C 0.5116(5) 0.58565(13) 1.01893(11)
C15B C 0.6825(5) 0.52761(13) 1.05468(11)
C16B C 0.8856(5) 0.54399(15) 1.11544(12)
C17B C 0.3352(5) 0.55568(14) 0.96570(12)
H9B H 0.2215 0.5939 0.9422
N1B N 1.0845(4) -0.11133(12) 1.08101(11)
N2B N 1.4985(4) -0.08847(11) 0.89169(9)
N3B N 0.4299(4) 0.04297(11) 1.21626(9)
H10B H 0.4443 0.0131 1.2537
O1B O 0.3082(4) 0.71821(11) 0.99882(11)
O1B_2 O 1.3082(4) -0.28179(11) 0.99882(11)
O2B O 0.6662(4) 0.71733(11) 1.07057(12)
H11B H 0.798(8) 0.678(3) 1.091(2)
O3B O 0.9703(4) 0.48333(11) 1.15039(9)
O4B O 0.9644(4) 0.61843(11) 1.12906(10)
loop_
_geom_bond_atom_site_label_1
_geom_bond_atom_site_label_2
_geom_bond_site_symmetry_1
_geom_bond_site_symmetry_2
Ag1 N1 1_555 1_555
C1 H1 1_555 1_555
C2 C1 1_555 1_555
H2 C2 1_555 1_555
C3 C2 1_555 1_555
H3 C3 1_555 1_555
C4 C3 1_555 1_555
C5 C4 1_555 1_555
H4 C5 1_555 1_555
C6 C4 1_555 1_555
C7 C8 1_555 1_555
C8 H5 1_555 1_555
C9 C8 1_555 1_555
H6 C9 1_555 1_555
C10 C9 1_555 1_555
H7 C10 1_555 1_555
C11 C10 1_555 1_555
H8 C11 1_555 1_555
C12 C7 1_555 1_555
C13 C14 1_555 1_555
C14 C15 1_555 1_555
C15 C16 1_555 1_555
C16 O3 1_555 1_555
C17 C14 1_555 1_555
H9 C17 1_555 1_555
N1 C1 1_555 1_555
N2 Ag1 1_555 1_555
N3 C6 1_555 1_555
H10 N3 1_555 1_555
O1 Ag1 1_555 1_555
O2 C13 1_555 1_555
H11 O2 1_555 1_555
O4 C16 1_555 1_555
Ag1B N1B 1_555 1_555
Ag1B_2 O1B 1_555 1_555
C1B H1B 1_555 1_555
C2B C1B 1_555 1_555
H2B C2B 1_555 1_555
C3B C2B 1_555 1_555
H3B C3B 1_555 1_555
C4B C3B 1_555 1_555
C5B C4B 1_555 1_555
H4B C5B 1_555 1_555
C6B N2 1_555 1_555
C7B C8B 1_555 1_555
C8B H5B 1_555 1_555
C9B C8B 1_555 1_555
H6B C9B 1_555 1_555
C10B C9B 1_555 1_555
H7B C10B 1_555 1_555
C11B C10B 1_555 1_555
H8B C11B 1_555 1_555
C12B N3 1_555 1_555
C13B C14B 1_555 1_555
C14B C15B 1_555 1_555
C15B C17 1_555 1_555
C16B C15B 1_555 1_555
C17B C15 1_555 1_555
H9B C17B 1_555 1_555
N1B C1B 1_555 1_555
N2B C6 1_555 1_555
N3B C12 1_555 1_555
H10B N3B 1_555 1_555
O1B C13B 1_555 1_555
O1B_2 Ag1B 1_555 1_555
O2B C13B 1_555 1_555
H11B O2B 1_555 1_555
O3B C16B 1_555 1_555
O4B C16B 1_555 1_555
C5 N1 1_555 1_555
C7 N2 1_555 1_555
C11 C12 1_555 1_555
C13 O1 1_555 1_555
Ag1B N2B 1_555 1_555
C4B C6B 1_555 1_555
C5B N1B 1_555 1_555
C6B N3B 1_555 1_555
C7B C12B 1_555 1_555
C7B N2B 1_555 1_555
C11B C12B 1_555 1_555
C14B C17B 1_555 1_555

#END
