
#######################################################################
#
#                 Cambridge Crystallographic Data Centre
#                                CCDC 
#
#######################################################################
#
# If this CIF has been generated from an entry in the Cambridge 
# Structural Database, then it will include bibliographic, chemical, 
# crystal, experimental, refinement or atomic coordinate data resulting 
# from the CCDC's data processing and validation procedures.
#
#######################################################################

data_CIWXUD
_symmetry_cell_setting           monoclinic
_symmetry_space_group_name_H-M   'P 21/c'
_symmetry_Int_Tables_number      14
_space_group_name_Hall           '-P 2ybc'
loop_
_symmetry_equiv_pos_site_id
_symmetry_equiv_pos_as_xyz
1 x,y,z
2 -x,1/2+y,1/2-z
3 -x,-y,-z
4 x,1/2-y,1/2+z
_cell_length_a                   11.217(3)
_cell_length_b                   17.405(5)
_cell_length_c                   20.125(5)
_cell_angle_alpha                90
_cell_angle_beta                 99.431(5)
_cell_angle_gamma                90
_cell_volume                     3875.94
loop_
_atom_site_label
_atom_site_type_symbol
_atom_site_fract_x
_atom_site_fract_y
_atom_site_fract_z
Fe1 Fe 0.40007(13) 0.20036(9) -0.08740(6)
Ni1 Ni 0.37974(12) 0.24926(8) 0.16188(6)
O1 O 0.6926(10) 0.0665(6) -0.0759(5)
O2 O 0.4186(8) 0.4303(6) -0.0884(5)
N1 N 0.3747(8) 0.2058(5) 0.0638(4)
N2 N 0.5621(9) 0.1699(7) -0.0698(4)
N3 N 0.4674(10) 0.3008(6) -0.0803(4)
N4 N 0.2466(8) 0.2602(5) -0.1062(4)
N5 N 0.3731(12) 0.0869(6) -0.0904(4)
N6 N 0.5392(11) 0.2081(9) 0.1940(5)
N7 N 0.4820(11) 0.3384(6) 0.1339(4)
N8 N 0.2116(9) 0.2957(6) 0.1350(5)
H1 H 0.1959 0.3214 0.1720
N9 N 0.3383(16) 0.1434(7) 0.1979(5)
N10 N 0.3841(9) 0.2956(5) 0.2578(5)
C1 C 0.3822(8) 0.2008(5) 0.0089(5)
C2 C 0.3897(10) 0.3016(6) 0.3146(6)
C3 C 0.6444(14) 0.2315(10) -0.0567(6)
C4 C 0.5932(12) 0.3046(9) -0.0629(6)
C5 C 0.6647(15) 0.3717(10) -0.0490(7)
H2 H 0.6302 0.4204 -0.0503
C6 C 0.7863(19) 0.3611(15) -0.0337(11)
H3 H 0.8355 0.4044 -0.0294
C7 C 0.8368(17) 0.2952(16) -0.0248(9)
H4 H 0.9195 0.2935 -0.0091
C8 C 0.7744(14) 0.2246(13) -0.0375(7)
H5 H 0.8137 0.1774 -0.0339
C9 C 0.5880(16) 0.0961(10) -0.0772(5)
C10 C 0.4805(14) 0.0479(8) -0.0837(5)
C11 C 0.4855(19) -0.0309(10) -0.0812(6)
H6 H 0.5588 -0.0568 -0.0775
C12 C 0.377(2) -0.0703(9) -0.0846(6)
H7 H 0.3782 -0.1237 -0.0830
C13 C 0.2726(17) -0.0341(10) -0.0899(6)
H8 H 0.2019 -0.0625 -0.0917
C14 C 0.2662(14) 0.0469(9) -0.0929(6)
H9 H 0.1926 0.0724 -0.0964
C15 C 0.3912(12) 0.3627(8) -0.0904(5)
C16 C 0.2625(11) 0.3350(7) -0.1055(5)
C17 C 0.1674(14) 0.3859(7) -0.1188(6)
H10 H 0.1808 0.4387 -0.1183
C18 C 0.0536(13) 0.3570(10) -0.1326(6)
H11 H -0.0122 0.3901 -0.1411
C19 C 0.0361(13) 0.2812(10) -0.1339(7)
H12 H -0.0417 0.2611 -0.1432
C20 C 0.1333(13) 0.2338(7) -0.1213(6)
H13 H 0.1208 0.1809 -0.1234
C21 C 0.549(3) 0.1432(13) 0.2244(8)
C22 C 0.662(3) 0.1159(12) 0.2554(9)
H14 H 0.6743 0.0704 0.2798
C23 C 0.753(2) 0.1656(19) 0.2448(13)
H15 H 0.8313 0.1483 0.2592
C24 C 0.7437(19) 0.2349(14) 0.2167(11)
H16 H 0.8087 0.2680 0.2161
C25 C 0.6299(15) 0.2514(13) 0.1896(8)
C26 C 0.6007(16) 0.3266(11) 0.1510(7)
C27 C 0.6920(14) 0.3798(11) 0.1312(8)
H17 H 0.7573 0.3507 0.1183
H18 H 0.7225 0.4125 0.1685
H19 H 0.6552 0.4106 0.0938
C28 C 0.4281(15) 0.3999(8) 0.0950(7)
H20 H 0.4332 0.3899 0.0481
H21 H 0.4741 0.4461 0.1082
C29 C 0.2985(16) 0.4143(8) 0.1008(8)
H22 H 0.2718 0.4583 0.0726
H23 H 0.2963 0.4294 0.1469
C30 C 0.2065(14) 0.3519(8) 0.0831(7)
H24 H 0.1265 0.3746 0.0750
H25 H 0.2200 0.3271 0.0419
C31 C 0.1200(13) 0.2361(10) 0.1220(9)
H26 H 0.1291 0.2095 0.0808
H27 H 0.0408 0.2600 0.1151
C32 C 0.1268(18) 0.1759(13) 0.1806(8)
H28 H 0.1356 0.2047 0.2224
H29 H 0.0488 0.1506 0.1755
C33 C 0.221(2) 0.1138(11) 0.1901(9)
H30 H 0.2124 0.0837 0.2295
H31 H 0.2085 0.0799 0.1514
C34 C 0.433(3) 0.1021(12) 0.2245(8)
C35 C 0.424(2) 0.0233(9) 0.2474(7)
H32 H 0.4215 0.0231 0.2948
H33 H 0.4934 -0.0052 0.2388
H34 H 0.3520 0.0001 0.2235
Fe1C Fe 0.40007(13) 0.29964(9) 0.41260(6)
C2C C 0.3897(10) 0.1984(6) -0.1854(6)
Cl1 Cl 0.0280(5) 0.4425(4) 0.2304(4)
O3 O -0.022(3) 0.4949(15) 0.2600(12)
O4 O 0.061(3) 0.3688(18) 0.2415(12)
O5 O -0.007(3) 0.4486(15) 0.1598(17)
O6 O 0.151(4) 0.459(2) 0.2375(17)
loop_
_geom_bond_atom_site_label_1
_geom_bond_atom_site_label_2
_geom_bond_site_symmetry_1
_geom_bond_site_symmetry_2
Fe1 N2 1_555 1_555
Ni1 N1 1_555 1_555
O1 C9 1_555 1_555
O2 C15 1_555 1_555
N1 C1 1_555 1_555
N2 C3 1_555 1_555
N3 Fe1 1_555 1_555
N4 Fe1 1_555 1_555
N5 Fe1 1_555 1_555
N6 Ni1 1_555 1_555
N7 Ni1 1_555 1_555
N8 Ni1 1_555 1_555
H1 N8 1_555 1_555
N9 Ni1 1_555 1_555
N10 Ni1 1_555 1_555
C1 Fe1 1_555 1_555
C2 N10 1_555 1_555
C3 C4 1_555 1_555
C4 N3 1_555 1_555
C5 C4 1_555 1_555
H2 C5 1_555 1_555
C6 C5 1_555 1_555
H3 C6 1_555 1_555
C7 C6 1_555 1_555
H4 C7 1_555 1_555
C8 C3 1_555 1_555
H5 C8 1_555 1_555
C9 N2 1_555 1_555
C10 N5 1_555 1_555
C11 C10 1_555 1_555
H6 C11 1_555 1_555
C12 C11 1_555 1_555
H7 C12 1_555 1_555
C13 C12 1_555 1_555
H8 C13 1_555 1_555
C14 N5 1_555 1_555
H9 C14 1_555 1_555
C15 N3 1_555 1_555
C16 N4 1_555 1_555
C17 C16 1_555 1_555
H10 C17 1_555 1_555
C18 C17 1_555 1_555
H11 C18 1_555 1_555
C19 C18 1_555 1_555
H12 C19 1_555 1_555
C20 N4 1_555 1_555
H13 C20 1_555 1_555
C21 N6 1_555 1_555
C22 C21 1_555 1_555
H14 C22 1_555 1_555
C23 C22 1_555 1_555
H15 C23 1_555 1_555
C24 C23 1_555 1_555
H16 C24 1_555 1_555
C25 N6 1_555 1_555
C26 N7 1_555 1_555
C27 C26 1_555 1_555
H17 C27 1_555 1_555
H18 C27 1_555 1_555
H19 C27 1_555 1_555
C28 N7 1_555 1_555
H20 C28 1_555 1_555
H21 C28 1_555 1_555
C29 C28 1_555 1_555
H22 C29 1_555 1_555
H23 C29 1_555 1_555
C30 N8 1_555 1_555
H24 C30 1_555 1_555
H25 C30 1_555 1_555
C31 N8 1_555 1_555
H26 C31 1_555 1_555
H27 C31 1_555 1_555
C32 C31 1_555 1_555
H28 C32 1_555 1_555
H29 C32 1_555 1_555
C33 N9 1_555 1_555
H30 C33 1_555 1_555
H31 C33 1_555 1_555
C34 N9 1_555 1_555
C35 C34 1_555 1_555
H32 C35 1_555 1_555
H33 C35 1_555 1_555
H34 C35 1_555 1_555
Cl1 O3 1_555 1_555
O4 Cl1 1_555 1_555
O5 Cl1 1_555 1_555
O6 Cl1 1_555 1_555
Fe1C C2 1_555 1_555
C2C Fe1 1_555 1_555
C7 C8 1_555 1_555
C9 C10 1_555 1_555
C13 C14 1_555 1_555
C15 C16 1_555 1_555
C19 C20 1_555 1_555
C21 C34 1_555 1_555
C24 C25 1_555 1_555
C25 C26 1_555 1_555
C29 C30 1_555 1_555
C32 C33 1_555 1_555

#END
