
#######################################################################
#
#                 Cambridge Crystallographic Data Centre
#                                CCDC 
#
#######################################################################
#
# If this CIF has been generated from an entry in the Cambridge 
# Structural Database, then it will include bibliographic, chemical, 
# crystal, experimental, refinement or atomic coordinate data resulting 
# from the CCDC's data processing and validation procedures.
#
#######################################################################

data_CIWXAJ
_symmetry_cell_setting           triclinic
_symmetry_space_group_name_H-M   'P -1'
_symmetry_Int_Tables_number      2
_space_group_name_Hall           '-P 1'
loop_
_symmetry_equiv_pos_site_id
_symmetry_equiv_pos_as_xyz
1 x,y,z
2 -x,-y,-z
_cell_length_a                   3.4464(4)
_cell_length_b                   7.1820(10)
_cell_length_c                   12.504(2)
_cell_angle_alpha                98.809(14)
_cell_angle_beta                 96.162(12)
_cell_angle_gamma                90.757(10)
_cell_volume                     303.943
loop_
_atom_site_label
_atom_site_type_symbol
_atom_site_fract_x
_atom_site_fract_y
_atom_site_fract_z
N1 N 1.0503(3) 0.15180(16) 0.34382(10)
O1 O 1.2270(3) 0.12178(13) 0.44466(8)
O2 O 0.4849(3) -0.19193(15) 0.24921(10)
O3 O 0.4762(3) 0.44469(14) 0.12252(9)
O4 O 0.9665(4) -0.19062(16) 0.05530(10)
N2 N 0.7383(4) 0.43128(17) 0.28833(10)
O5 O 0.7265(3) 0.17805(13) 0.15235(9)
N3 N 1.2131(3) 0.27937(16) 0.52227(10)
C1 C 1.0352(4) 0.40545(19) 0.47197(12)
N4 N 0.6505(3) 0.34652(16) 0.18661(10)
C2 C 0.9305(4) 0.32630(19) 0.35865(12)
Li1 Li 0.9682(7) -0.0634(3) 0.2060(2)
H1 H 0.550(7) -0.217(3) 0.311(2)
H2 H 1.101(7) -0.158(3) 0.008(2)
H3 H 0.466(7) -0.298(4) 0.205(2)
H4 H 0.811(7) -0.277(4) 0.017(2)
N1A N 0.9497(3) 0.84820(16) 0.65618(10)
O1A O 0.7730(3) 0.87822(13) 0.55534(8)
O3A O 1.5238(3) 0.55531(14) 0.87748(9)
N2A N 1.2617(4) 0.56872(17) 0.71167(10)
O5A O 1.2735(3) 0.82195(13) 0.84765(9)
N3A N 0.7869(3) 0.72063(16) 0.47773(10)
C1A C 0.9648(4) 0.59455(19) 0.52803(12)
N4A N 1.3495(3) 0.65348(16) 0.81339(10)
C2A C 1.0695(4) 0.67370(19) 0.64135(12)
O2A O 1.5151(3) 1.19193(15) 0.75079(10)
O4A O 1.0335(4) 1.19062(16) 0.94470(10)
Li1A Li 1.0318(7) 1.0634(3) 0.7940(2)
H1A H 1.450(7) 1.217(3) 0.689(2)
H2A H 0.899(7) 1.158(3) 0.992(2)
H3A H 1.534(7) 1.298(4) 0.795(2)
H4A H 1.189(7) 1.277(4) 0.983(2)
O2_2 O 1.4849(3) -0.19193(15) 0.24921(10)
O2A_2 O 0.5151(3) 1.19193(15) 0.75079(10)
Li1_2 Li -0.0318(7) -0.0634(3) 0.2060(2)
Li1A_2 Li 2.0318(7) 1.0634(3) 0.7940(2)
loop_
_geom_bond_atom_site_label_1
_geom_bond_atom_site_label_2
_geom_bond_site_symmetry_1
_geom_bond_site_symmetry_2
N1 O1 1_555 1_555
O1 N3 1_555 1_555
O2 Li1 1_555 1_555
O3 N4 1_555 1_555
O4 Li1 1_555 1_555
N2 N4 1_555 1_555
O5 N4 1_555 1_555
N3 C1 1_555 1_555
C1 C2 1_555 1_555
C2 N1 1_555 1_555
Li1 N1 1_555 1_555
H1 O2 1_555 1_555
H2 O4 1_555 1_555
H3 O2 1_555 1_555
H4 O4 1_555 1_555
N1A O1A 1_555 1_555
O1A N3A 1_555 1_555
O3A N4A 1_555 1_555
N2A N4A 1_555 1_555
O5A N4A 1_555 1_555
N3A C1A 1_555 1_555
C1A C1 1_555 1_555
C2A N1A 1_555 1_555
O2A Li1A 1_555 1_555
O4A Li1A 1_555 1_555
Li1A N1A 1_555 1_555
H1A O2A 1_555 1_555
H2A O4A 1_555 1_555
H3A O2A 1_555 1_555
H4A O4A 1_555 1_555
O2_2 Li1 1_555 1_555
O2A_2 Li1A 1_555 1_555
Li1_2 O2 1_555 1_555
Li1A_2 O2A 1_555 1_555
N2 C2 1_555 1_555
O5 Li1 1_555 1_555
N2A C2A 1_555 1_555
O5A Li1A 1_555 1_555
C1A C2A 1_555 1_555

#END
