
#######################################################################
#
#                 Cambridge Crystallographic Data Centre
#                                CCDC 
#
#######################################################################
#
# If this CIF has been generated from an entry in the Cambridge 
# Structural Database, then it will include bibliographic, chemical, 
# crystal, experimental, refinement or atomic coordinate data resulting 
# from the CCDC's data processing and validation procedures.
#
#######################################################################

data_CIWYIR
_symmetry_cell_setting           monoclinic
_symmetry_space_group_name_H-M   'C 2/c'
_symmetry_Int_Tables_number      15
_space_group_name_Hall           '-C 2yn'
loop_
_symmetry_equiv_pos_site_id
_symmetry_equiv_pos_as_xyz
1 x,y,z
2 1/2+x,1/2+y,z
3 -x,y,1/2-z
4 1/2-x,1/2+y,1/2-z
5 -x,-y,-z
6 1/2-x,1/2-y,-z
7 x,-y,1/2+z
8 1/2+x,1/2-y,1/2+z
_cell_length_a                   24.685(3)
_cell_length_b                   10.0335(15)
_cell_length_c                   23.615(3)
_cell_angle_alpha                90
_cell_angle_beta                 110.824(3)
_cell_angle_gamma                90
_cell_volume                     5466.82
loop_
_atom_site_label
_atom_site_type_symbol
_atom_site_fract_x
_atom_site_fract_y
_atom_site_fract_z
Cd1 Cd 0.672608(9) 0.28061(3) 0.551211(12)
N1 N 0.68309(11) 0.1257(3) 0.63191(14)
N2 N 0.65754(11) 0.3903(3) 0.63584(15)
N3 N 0.63680(11) 0.1008(3) 0.48121(14)
N4 N 0.56280(12) 0.2637(3) 0.51335(17)
O1 O 0.76113(9) 0.1952(3) 0.55994(12)
O2 O 0.78103(10) 0.3445(3) 0.63324(15)
O3 O 0.83213(10) 0.0279(3) 0.50044(12)
O4 O 0.81027(12) -0.0898(3) 0.56942(14)
O5 O 1.0000 0.4332(5) 0.7500
C1 C 0.69919(14) -0.0007(4) 0.63137(19)
H1 H 0.7058 -0.0319 0.5973
C2 C 0.70660(15) -0.0887(5) 0.6792(2)
H2 H 0.7180 -0.1762 0.6768
C3 C 0.69687(15) -0.0452(5) 0.7298(2)
H3 H 0.7010 -0.1031 0.7618
C4 C 0.68054(14) 0.0890(4) 0.73264(18)
C5 C 0.67126(18) 0.1440(5) 0.7841(2)
H4 H 0.6752 0.0896 0.8172
C6 C 0.65681(19) 0.2738(5) 0.7858(2)
H5 H 0.6504 0.3067 0.8197
C7 C 0.65127(15) 0.3611(5) 0.73594(19)
C8 C 0.64017(17) 0.4993(5) 0.7371(2)
H6 H 0.6337 0.5365 0.7702
C9 C 0.63902(18) 0.5772(5) 0.6900(2)
H7 H 0.6319 0.6681 0.6908
C10 C 0.64853(16) 0.5210(4) 0.6397(2)
H8 H 0.6486 0.5765 0.6081
C11 C 0.65994(13) 0.3118(4) 0.68380(18)
C12 C 0.67408(13) 0.1718(4) 0.68183(17)
C13 C 0.67149(14) 0.0188(4) 0.46662(17)
H9 H 0.7112 0.0326 0.4845
C14 C 0.65255(16) -0.0876(5) 0.42600(19)
H10 H 0.6789 -0.1444 0.4182
C15 C 0.59401(17) -0.1055(5) 0.3980(2)
H11 H 0.5801 -0.1734 0.3698
C16 C 0.55529(15) -0.0217(4) 0.41191(18)
C17 C 0.49315(16) -0.0363(5) 0.3850(2)
H12 H 0.4777 -0.1015 0.3556
C18 C 0.45756(16) 0.0419(5) 0.4013(2)
H13 H 0.4178 0.0286 0.3836
C19 C 0.47875(14) 0.1460(5) 0.4454(2)
C20 C 0.44280(16) 0.2266(5) 0.4641(2)
H14 H 0.4029 0.2141 0.4481
C21 C 0.46582(16) 0.3248(5) 0.5062(2)
H15 H 0.4420 0.3802 0.5188
C22 C 0.52672(16) 0.3394(5) 0.5300(2)
H16 H 0.5425 0.4053 0.5589
C23 C 0.53995(13) 0.1666(4) 0.47175(18)
C24 C 0.57802(13) 0.0814(4) 0.45420(16)
C25 C 0.79536(14) 0.2527(4) 0.60618(18)
C26 C 0.83420(14) 0.0043(4) 0.55470(18)
C27 C 0.87472(13) 0.0915(4) 0.60510(16)
C28 C 0.93210(15) 0.0502(5) 0.6303(2)
H17 H 0.9439 -0.0255 0.6151
C29 C 0.97217(15) 0.1196(5) 0.6776(2)
H18 H 1.0101 0.0885 0.6943
C30 C 0.95654(14) 0.2332(4) 0.70006(19)
C31 C 0.89889(14) 0.2770(4) 0.67499(18)
H19 H 0.8880 0.3548 0.6895
C32 C 0.85795(13) 0.2067(4) 0.62904(17)
C33 C 1.0000 0.3106(7) 0.7500
Cd1B Cd 1.327392(9) 0.28061(3) 0.948789(12)
Cd1E Cd 0.827392(9) 0.21939(3) 0.448789(12)
Cd1G Cd 1.172608(9) 0.21939(3) 1.051211(12)
N1B N 1.31691(11) 0.1257(3) 0.86809(14)
N2B N 1.34246(11) 0.3903(3) 0.86416(15)
N3B N 1.36320(11) 0.1008(3) 1.01879(14)
N4B N 1.43720(12) 0.2637(3) 0.98665(17)
O1B O 1.23887(9) 0.1952(3) 0.94006(12)
O2B O 1.21897(10) 0.3445(3) 0.86676(15)
O3B O 1.16787(10) 0.0279(3) 0.99956(12)
O3E O 0.66787(10) 0.4721(3) 0.49956(12)
O3G O 1.33213(10) 0.4721(3) 1.00044(12)
O4B O 1.18973(12) -0.0898(3) 0.93058(14)
C1B C 1.30081(14) -0.0007(4) 0.86863(19)
H1B H 1.2942 -0.0319 0.9027
C2B C 1.29340(15) -0.0887(5) 0.8208(2)
H2B H 1.2820 -0.1762 0.8232
C3B C 1.30313(15) -0.0452(5) 0.7702(2)
H3B H 1.2990 -0.1031 0.7382
C4B C 1.31946(14) 0.0890(4) 0.76736(18)
C5B C 1.32874(18) 0.1440(5) 0.7159(2)
H4B H 1.3248 0.0896 0.6828
C6B C 1.34319(19) 0.2738(5) 0.7142(2)
H5B H 1.3496 0.3067 0.6803
C7B C 1.34873(15) 0.3611(5) 0.76406(19)
C8B C 1.35983(17) 0.4993(5) 0.7629(2)
H6B H 1.3663 0.5365 0.7298
C9B C 1.36098(18) 0.5772(5) 0.8100(2)
H7B H 1.3681 0.6681 0.8092
C10B C 1.35147(16) 0.5210(4) 0.8603(2)
H8B H 1.3514 0.5765 0.8919
C11B C 1.34006(13) 0.3118(4) 0.81620(18)
C12B C 1.32592(13) 0.1718(4) 0.81817(17)
C13B C 1.32851(14) 0.0188(4) 1.03338(17)
H9B H 1.2888 0.0326 1.0155
C14B C 1.34745(16) -0.0876(5) 1.07400(19)
H10B H 1.3211 -0.1444 1.0818
C15B C 1.40599(17) -0.1055(5) 1.1020(2)
H11B H 1.4199 -0.1734 1.1302
C16B C 1.44471(15) -0.0217(4) 1.08809(18)
C17B C 1.50685(16) -0.0363(5) 1.1150(2)
H12B H 1.5223 -0.1015 1.1444
C18B C 1.54244(16) 0.0419(5) 1.0987(2)
H13B H 1.5822 0.0286 1.1164
C19B C 1.52125(14) 0.1460(5) 1.0546(2)
C20B C 1.55720(16) 0.2266(5) 1.0359(2)
H14B H 1.5971 0.2141 1.0519
C21B C 1.53418(16) 0.3248(5) 0.9938(2)
H15B H 1.5580 0.3802 0.9812
C22B C 1.47328(16) 0.3394(5) 0.9700(2)
H16B H 1.4575 0.4053 0.9411
C23B C 1.46005(13) 0.1666(4) 1.02825(18)
C24B C 1.42198(13) 0.0814(4) 1.04580(16)
C25B C 1.20464(14) 0.2527(4) 0.89382(18)
C26B C 1.16580(14) 0.0043(4) 0.94530(18)
C27B C 1.12528(13) 0.0915(4) 0.89490(16)
C28B C 1.06790(15) 0.0502(5) 0.8697(2)
H17B H 1.0561 -0.0255 0.8849
C29B C 1.02783(15) 0.1196(5) 0.8224(2)
H18B H 0.9899 0.0885 0.8057
C30B C 1.04346(14) 0.2332(4) 0.79994(19)
C31B C 1.10111(14) 0.2770(4) 0.82501(18)
H19B H 1.1120 0.3548 0.8105
C32B C 1.14205(13) 0.2067(4) 0.87096(17)
O6 O 0.70991(13) 0.7290(3) 0.56154(17)
H20 H 0.7087 0.6549 0.5437
H21 H 0.7429 0.7628 0.5667
O7 O 0.5000 0.767(2) 0.2500
H22 H 0.4752 0.7160 0.2561
H22B H 0.5248 0.7160 0.2439
loop_
_geom_bond_atom_site_label_1
_geom_bond_atom_site_label_2
_geom_bond_site_symmetry_1
_geom_bond_site_symmetry_2
Cd1 N1 1_555 1_555
N1 C1 1_555 1_555
N2 Cd1 1_555 1_555
N3 Cd1 1_555 1_555
N4 Cd1 1_555 1_555
O1 Cd1 1_555 1_555
O2 Cd1 1_555 1_555
O3 C26 1_555 1_555
O4 C26 1_555 1_555
O5 C33 1_555 1_555
C1 H1 1_555 1_555
C2 C1 1_555 1_555
H2 C2 1_555 1_555
C3 C2 1_555 1_555
H3 C3 1_555 1_555
C4 C3 1_555 1_555
C5 C4 1_555 1_555
H4 C5 1_555 1_555
C6 C5 1_555 1_555
H5 C6 1_555 1_555
C7 C6 1_555 1_555
C8 C7 1_555 1_555
H6 C8 1_555 1_555
C9 C8 1_555 1_555
H7 C9 1_555 1_555
C10 N2 1_555 1_555
H8 C10 1_555 1_555
C11 N2 1_555 1_555
C12 N1 1_555 1_555
C13 N3 1_555 1_555
H9 C13 1_555 1_555
C14 C13 1_555 1_555
H10 C14 1_555 1_555
C15 C14 1_555 1_555
H11 C15 1_555 1_555
C16 C15 1_555 1_555
C17 C16 1_555 1_555
H12 C17 1_555 1_555
C18 C17 1_555 1_555
H13 C18 1_555 1_555
C19 C18 1_555 1_555
C20 C19 1_555 1_555
H14 C20 1_555 1_555
C21 C20 1_555 1_555
H15 C21 1_555 1_555
C22 N4 1_555 1_555
H16 C22 1_555 1_555
C23 N4 1_555 1_555
C24 N3 1_555 1_555
C25 O1 1_555 1_555
C26 C27 1_555 1_555
C27 C28 1_555 1_555
C28 H17 1_555 1_555
C29 C28 1_555 1_555
H18 C29 1_555 1_555
C30 C29 1_555 1_555
C31 C30 1_555 1_555
H19 C31 1_555 1_555
C32 C25 1_555 1_555
C33 C30 1_555 1_555
O6 H20 1_555 1_555
H21 O6 1_555 1_555
O7 H22 1_555 1_555
Cd1B N1B 1_555 1_555
Cd1E O3 1_555 1_555
Cd1G O3B 1_555 1_555
N1B C1B 1_555 1_555
N2B Cd1B 1_555 1_555
N3B Cd1B 1_555 1_555
N4B Cd1B 1_555 1_555
O1B Cd1B 1_555 1_555
O2B Cd1B 1_555 1_555
O3B C26B 1_555 1_555
O3E Cd1 1_555 1_555
O3G Cd1B 1_555 1_555
O4B C26B 1_555 1_555
C1B H1B 1_555 1_555
C2B C1B 1_555 1_555
H2B C2B 1_555 1_555
C3B C2B 1_555 1_555
H3B C3B 1_555 1_555
C4B C3B 1_555 1_555
C5B C4B 1_555 1_555
H4B C5B 1_555 1_555
C6B C5B 1_555 1_555
H5B C6B 1_555 1_555
C7B C6B 1_555 1_555
C8B C7B 1_555 1_555
H6B C8B 1_555 1_555
C9B C8B 1_555 1_555
H7B C9B 1_555 1_555
C10B N2B 1_555 1_555
H8B C10B 1_555 1_555
C11B N2B 1_555 1_555
C12B N1B 1_555 1_555
C13B N3B 1_555 1_555
H9B C13B 1_555 1_555
C14B C13B 1_555 1_555
H10B C14B 1_555 1_555
C15B C14B 1_555 1_555
H11B C15B 1_555 1_555
C16B C15B 1_555 1_555
C17B C16B 1_555 1_555
H12B C17B 1_555 1_555
C18B C17B 1_555 1_555
H13B C18B 1_555 1_555
C19B C18B 1_555 1_555
C20B C19B 1_555 1_555
H14B C20B 1_555 1_555
C21B C20B 1_555 1_555
H15B C21B 1_555 1_555
C22B N4B 1_555 1_555
H16B C22B 1_555 1_555
C23B N4B 1_555 1_555
C24B N3B 1_555 1_555
C25B O1B 1_555 1_555
C26B C27B 1_555 1_555
C27B C28B 1_555 1_555
C28B H17B 1_555 1_555
C29B C28B 1_555 1_555
H18B C29B 1_555 1_555
C30B C33 1_555 1_555
C31B C30B 1_555 1_555
H19B C31B 1_555 1_555
C32B C25B 1_555 1_555
H22B O7 1_555 1_555
O2 C25 1_555 1_555
C4 C12 1_555 1_555
C7 C11 1_555 1_555
C9 C10 1_555 1_555
C11 C12 1_555 1_555
C16 C24 1_555 1_555
C19 C23 1_555 1_555
C21 C22 1_555 1_555
C23 C24 1_555 1_555
C27 C32 1_555 1_555
C31 C32 1_555 1_555
O2B C25B 1_555 1_555
C4B C12B 1_555 1_555
C7B C11B 1_555 1_555
C9B C10B 1_555 1_555
C11B C12B 1_555 1_555
C16B C24B 1_555 1_555
C19B C23B 1_555 1_555
C21B C22B 1_555 1_555
C23B C24B 1_555 1_555
C27B C32B 1_555 1_555
C29B C30B 1_555 1_555
C31B C32B 1_555 1_555

#END
