
#######################################################################
#
#                 Cambridge Crystallographic Data Centre
#                                CCDC 
#
#######################################################################
#
# If this CIF has been generated from an entry in the Cambridge 
# Structural Database, then it will include bibliographic, chemical, 
# crystal, experimental, refinement or atomic coordinate data resulting 
# from the CCDC's data processing and validation procedures.
#
#######################################################################

data_CIWZIS
_symmetry_cell_setting           orthorhombic
_symmetry_space_group_name_H-M   'P 21 21 21'
_symmetry_Int_Tables_number      19
_space_group_name_Hall           'P 2ac 2ab'
loop_
_symmetry_equiv_pos_site_id
_symmetry_equiv_pos_as_xyz
1 x,y,z
2 1/2-x,-y,1/2+z
3 -x,1/2+y,1/2-z
4 1/2+x,1/2-y,-z
_cell_length_a                   6.0255(14)
_cell_length_b                   16.659(4)
_cell_length_c                   26.139(6)
_cell_angle_alpha                90
_cell_angle_beta                 90
_cell_angle_gamma                90
_cell_volume                     2623.8
loop_
_atom_site_label
_atom_site_type_symbol
_atom_site_fract_x
_atom_site_fract_y
_atom_site_fract_z
C1 C 0.3757(15) 0.1876(4) 0.0876(3)
C2 C 0.3123(16) 0.1146(5) 0.0639(3)
H1 H 0.1875 0.0862 0.0744
C3 C 0.447(2) 0.0872(6) 0.0237(4)
H2 H 0.4038 0.0413 0.0060
C4 C 0.635(2) 0.1242(6) 0.0097(4)
H3 H 0.7198 0.1034 -0.0169
C5 C 0.704(2) 0.1943(7) 0.0349(4)
H4 H 0.8361 0.2197 0.0260
C6 C 0.5695(19) 0.2249(5) 0.0737(3)
H5 H 0.6120 0.2716 0.0905
C7 C 0.2313(14) 0.2165(5) 0.1328(2)
H6 H 0.0947 0.1847 0.1351
C8 C 0.1768(18) 0.3058(5) 0.1261(3)
H7 H 0.0494 0.3192 0.1464
H8 H 0.1458 0.3166 0.0907
H9 H 0.3012 0.3376 0.1369
C9 C 0.0553(15) 0.2989(5) 0.4078(3)
C10 C -0.132(2) 0.2766(5) 0.4348(4)
H10 H -0.2129 0.2319 0.4246
C11 C -0.1994(18) 0.3195(6) 0.4761(4)
H11 H -0.3247 0.3038 0.4943
C12 C -0.080(3) 0.3872(6) 0.4912(3)
H12 H -0.1256 0.4165 0.5195
C13 C 0.106(2) 0.4110(6) 0.4644(4)
H13 H 0.1860 0.4563 0.4741
C14 C 0.1702(16) 0.3646(5) 0.4221(3)
H14 H 0.2952 0.3795 0.4035
C15 C 0.1322(12) 0.2477(4) 0.3627(2)
H15 H 0.0092 0.2124 0.3530
C16 C 0.332(2) 0.1956(6) 0.3739(4)
H16 H 0.2951 0.1404 0.3673
H17 H 0.3736 0.2017 0.4091
H18 H 0.4529 0.2114 0.3523
Cu1 Cu 0.25864(19) 0.25169(6) 0.24819(3)
Cu2 Cu 0.10355(18) 0.01308(5) 0.26523(4)
Cu3 Cu 0.39632(17) 0.49585(4) 0.23390(4)
N1 N 0.3708(13) 0.2054(4) 0.1806(2)
H19 H 0.5052 0.2269 0.1744
H20 H 0.3911 0.1523 0.1851
N2 N 0.1913(12) 0.2981(4) 0.3167(2)
H21 H 0.3101 0.3276 0.3257
H22 H 0.0785 0.3327 0.3122
N3 N -0.3354(12) 0.1692(4) 0.2672(3)
N4 N -0.1390(14) 0.1664(3) 0.2613(3)
N5 N 0.0534(12) 0.1585(3) 0.2555(3)
N6 N 0.3565(12) 0.0150(4) 0.2143(2)
N7 N 0.3182(12) 0.0203(4) 0.1688(2)
N8 N 0.2911(17) 0.0263(6) 0.1276(3)
N9 N 0.3544(11) 0.0095(4) 0.3138(3)
N10 N 0.3439(10) -0.0237(4) 0.3551(3)
N11 N 0.3414(14) -0.0507(4) 0.3952(3)
N12 N -0.1484(11) -0.0066(4) 0.2165(3)
N13 N -0.1625(11) 0.0307(4) 0.1767(2)
N14 N -0.1704(13) 0.0657(5) 0.1389(3)
N15 N -0.1501(12) -0.0032(3) 0.3137(2)
N16 N -0.1662(12) -0.0214(5) 0.3588(3)
N17 N -0.1926(15) -0.0369(5) 0.3989(3)
N18 N 0.4542(11) 0.3487(3) 0.2389(3)
N19 N 0.6538(13) 0.3411(3) 0.2350(2)
N20 N 0.8413(14) 0.3404(4) 0.2329(3)
Cu3B Cu 0.60368(17) -0.00415(4) 0.26610(4)
Cu3B_2 Cu -0.39632(17) -0.00415(4) 0.26610(4)
N6B N 0.6435(12) 0.5150(4) 0.2857(2)
N9B N 0.6456(11) 0.5095(4) 0.1862(3)
N12B N 0.1484(11) 0.4934(4) 0.2835(3)
N15B N 0.1501(12) 0.4968(3) 0.1863(2)
loop_
_geom_bond_atom_site_label_1
_geom_bond_atom_site_label_2
_geom_bond_site_symmetry_1
_geom_bond_site_symmetry_2
C1 C2 1_555 1_555
C2 H1 1_555 1_555
C3 C2 1_555 1_555
H2 C3 1_555 1_555
C4 C3 1_555 1_555
H3 C4 1_555 1_555
C5 C4 1_555 1_555
H4 C5 1_555 1_555
C6 C1 1_555 1_555
H5 C6 1_555 1_555
C7 C1 1_555 1_555
H6 C7 1_555 1_555
C8 C7 1_555 1_555
H7 C8 1_555 1_555
H8 C8 1_555 1_555
H9 C8 1_555 1_555
C9 C10 1_555 1_555
C10 H10 1_555 1_555
C11 C10 1_555 1_555
H11 C11 1_555 1_555
C12 C11 1_555 1_555
H12 C12 1_555 1_555
C13 C12 1_555 1_555
H13 C13 1_555 1_555
C14 C9 1_555 1_555
H14 C14 1_555 1_555
C15 C9 1_555 1_555
H15 C15 1_555 1_555
C16 C15 1_555 1_555
H16 C16 1_555 1_555
H17 C16 1_555 1_555
H18 C16 1_555 1_555
Cu1 N1 1_555 1_555
Cu2 N5 1_555 1_555
Cu3 N18 1_555 1_555
N1 C7 1_555 1_555
H19 N1 1_555 1_555
H20 N1 1_555 1_555
N2 C15 1_555 1_555
H21 N2 1_555 1_555
H22 N2 1_555 1_555
N3 N4 1_555 1_555
N4 N5 1_555 1_555
N5 Cu1 1_555 1_555
N6 Cu2 1_555 1_555
N7 N6 1_555 1_555
N8 N7 1_555 1_555
N9 Cu2 1_555 1_555
N10 N9 1_555 1_555
N11 N10 1_555 1_555
N12 Cu2 1_555 1_555
N13 N12 1_555 1_555
N14 N13 1_555 1_555
N15 Cu2 1_555 1_555
N16 N15 1_555 1_555
N17 N16 1_555 1_555
N18 Cu1 1_555 1_555
N19 N18 1_555 1_555
N20 N19 1_555 1_555
Cu3B N6 1_555 1_555
Cu3B_2 N12 1_555 1_555
N6B Cu3 1_555 1_555
N9B Cu3 1_555 1_555
N12B Cu3 1_555 1_555
N15B Cu3 1_555 1_555
C5 C6 1_555 1_555
C13 C14 1_555 1_555
Cu1 N2 1_555 1_555
N9 Cu3B 1_555 1_555
N15 Cu3B_2 1_555 1_555

#END
