
#######################################################################
#
#                 Cambridge Crystallographic Data Centre
#                                CCDC 
#
#######################################################################
#
# If this CIF has been generated from an entry in the Cambridge 
# Structural Database, then it will include bibliographic, chemical, 
# crystal, experimental, refinement or atomic coordinate data resulting 
# from the CCDC's data processing and validation procedures.
#
#######################################################################

data_CIWZIT
_symmetry_cell_setting           monoclinic
_symmetry_space_group_name_H-M   'P 21/n'
_symmetry_Int_Tables_number      14
_space_group_name_Hall           '-P 2yn'
loop_
_symmetry_equiv_pos_site_id
_symmetry_equiv_pos_as_xyz
1 x,y,z
2 1/2-x,1/2+y,1/2-z
3 -x,-y,-z
4 1/2+x,1/2-y,1/2+z
_cell_length_a                   26.2457(15)
_cell_length_b                   13.9671(8)
_cell_length_c                   29.8116(17)
_cell_angle_alpha                90
_cell_angle_beta                 95.3110(10)
_cell_angle_gamma                90
_cell_volume                     10881.3
loop_
_atom_site_label
_atom_site_type_symbol
_atom_site_fract_x
_atom_site_fract_y
_atom_site_fract_z
W1 W 0.321518(10) 0.539231(19) 0.157138(8)
W2 W 0.178159(10) 0.84240(2) -0.151983(9)
Ni1 Ni 0.49901(4) 0.62811(7) 0.24625(4)
Ni2 Ni 0.26628(4) 0.88426(6) 0.21005(3)
Ni3 Ni 0.26218(4) 0.66557(7) -0.00813(3)
Ni4 Ni 0.26689(4) 0.66626(7) -0.27665(4)
N1 N 0.4221(2) 0.6297(5) 0.2174(3)
N2 N 0.2981(3) 0.7666(4) 0.1785(2)
N3 N 0.2885(3) 0.6375(5) 0.0583(2)
N4 N 0.4170(4) 0.5221(13) 0.0941(4)
N5 N 0.3897(3) 0.3589(5) 0.2049(3)
N6 N 0.2815(5) 0.3467(6) 0.0996(3)
N7 N 0.1949(3) 0.5446(7) 0.1438(3)
N8 N 0.5092(3) 0.7631(5) 0.2323(3)
N9 N 0.5253(3) 0.6223(7) 0.1821(3)
N10 N 0.4897(3) 0.4869(6) 0.2569(4)
H1 H 0.4568 0.4735 0.2464
N11 N 0.4811(3) 0.6899(10) 0.3050(3)
N12 N 0.0749(2) 0.8786(5) -0.2226(2)
N13 N 0.2311(3) 0.9380(4) 0.1552(2)
N14 N 0.2011(3) 0.8063(5) 0.2070(2)
N15 N 0.3018(3) 0.8444(5) 0.2709(2)
H2 H 0.2908 0.8860 0.2914
N16 N 0.3211(3) 0.9811(5) 0.1899(3)
N17 N 0.2729(3) 0.4925(4) 0.2529(2)
N18 N 0.3315(3) 0.6986(6) -0.0223(2)
N19 N 0.2639(3) 0.8102(5) 0.0052(2)
N20 N 0.1901(3) 0.6314(6) 0.0058(2)
H3 H 0.1705 0.6374 -0.0209
N21 N 0.2901(4) 0.5317(5) -0.0226(2)
N22 N 0.2326(3) 0.6982(5) -0.0744(2)
N23 N 0.1987(4) 1.0001(6) -0.0701(3)
N24 N 0.0831(4) 0.8315(9) -0.0872(3)
N25 N 0.3036(3) 0.8804(7) -0.1441(3)
N26 N 0.1247(4) 0.6282(6) -0.1692(3)
N27 N 0.2213(3) 0.7717(5) -0.2472(2)
N28 N 0.3284(4) 0.7383(7) -0.2620(4)
N29 N 0.2737(5) 0.7470(8) -0.3380(4)
N30 N 0.2822(5) 0.6168(8) -0.2156(4)
N31 N 0.2036(4) 0.5911(9) -0.3011(5)
H4 H 0.2165 0.5371 -0.3129
N32 N 0.1915(3) 1.0529(5) -0.1980(3)
C1 C 0.3861(3) 0.6013(5) 0.1977(3)
C2 C 0.3050(3) 0.6861(5) 0.1703(2)
C3 C 0.3011(3) 0.6037(5) 0.0923(2)
C4 C 0.3838(4) 0.5270(8) 0.1161(3)
C5 C 0.3655(3) 0.4194(5) 0.1877(3)
C6 C 0.2962(4) 0.4129(5) 0.1197(3)
C7 C 0.2387(3) 0.5442(6) 0.1485(2)
C8 C 0.2925(3) 0.5113(5) 0.2218(2)
C9 C 0.5022(4) 0.8261(8) 0.2638(5)
C10 C 0.5090(5) 0.9254(9) 0.2554(7)
H5 H 0.5060 0.9734 0.2766
C11 C 0.5209(7) 0.9420(13) 0.2110(10)
H6 H 0.5248 1.0057 0.2029
C12 C 0.5275(5) 0.8750(11) 0.1778(6)
H7 H 0.5346 0.8916 0.1489
C13 C 0.5229(4) 0.7853(8) 0.1911(4)
C14 C 0.5337(4) 0.7008(10) 0.1648(4)
C15 C 0.5556(7) 0.7177(15) 0.1203(5)
H8 H 0.5905 0.6964 0.1223
H9 H 0.5542 0.7849 0.1133
H10 H 0.5359 0.6828 0.0970
C16 C 0.5379(5) 0.5296(10) 0.1619(5)
H11 H 0.5283 0.5323 0.1297
H12 H 0.5746 0.5200 0.1664
C17 C 0.5125(5) 0.4472(9) 0.1806(6)
H13 H 0.5228 0.3904 0.1650
H14 H 0.4759 0.4547 0.1732
C18 C 0.5215(5) 0.4279(8) 0.2309(6)
H15 H 0.5144 0.3610 0.2365
H16 H 0.5571 0.4398 0.2408
C19 C 0.4932(5) 0.4670(11) 0.3042(5)
H17 H 0.5280 0.4788 0.3171
H18 H 0.4856 0.3999 0.3088
C20 C 0.4568(6) 0.5278(15) 0.3283(5)
H19 H 0.4499 0.4938 0.3555
H20 H 0.4248 0.5306 0.3093
C21 C 0.4718(5) 0.6343(14) 0.3425(5)
H21 H 0.4442 0.6629 0.3574
H22 H 0.5021 0.6335 0.3636
C22 C 0.4889(4) 0.7836(10) 0.3061(5)
C23 C 0.4879(6) 0.8376(13) 0.3482(5)
H23 H 0.4544 0.8336 0.3586
H24 H 0.4962 0.9034 0.3431
H25 H 0.5126 0.8111 0.3706
C24 C 0.1843(3) 0.9122(6) 0.1456(3)
C25 C 0.1533(4) 0.9635(9) 0.1117(4)
H26 H 0.1196 0.9460 0.1031
C26 C 0.1755(5) 1.0388(9) 0.0927(4)
H27 H 0.1559 1.0739 0.0710
C27 C 0.2247(5) 1.0666(8) 0.1033(3)
H28 H 0.2387 1.1190 0.0896
C28 C 0.2534(4) 1.0120(5) 0.1363(3)
C29 C 0.3075(4) 1.0282(6) 0.1550(3)
C30 C 0.3396(5) 1.0978(8) 0.1321(4)
H29 H 0.3745 1.0761 0.1347
H30 H 0.3379 1.1594 0.1461
H31 H 0.3272 1.1026 0.1009
C31 C 0.3724(4) 0.9837(8) 0.2129(4)
H32 H 0.3865 1.0475 0.2105
H33 H 0.3942 0.9396 0.1983
C32 C 0.3727(4) 0.9574(8) 0.2617(4)
H34 H 0.3497 1.0008 0.2752
H35 H 0.4068 0.9695 0.2760
C33 C 0.3578(4) 0.8547(7) 0.2737(4)
H36 H 0.3718 0.8100 0.2532
H37 H 0.3722 0.8396 0.3040
C34 C 0.2849(5) 0.7479(6) 0.2843(3)
H38 H 0.2983 0.7004 0.2647
H39 H 0.2993 0.7347 0.3148
C35 C 0.2290(4) 0.7379(6) 0.2821(3)
H40 H 0.2162 0.7934 0.2970
H41 H 0.2220 0.6826 0.3002
C36 C 0.1963(4) 0.7271(7) 0.2367(4)
H42 H 0.2063 0.6689 0.2221
H43 H 0.1606 0.7205 0.2424
C37 C 0.1688(3) 0.8298(7) 0.1739(4)
C38 C 0.1198(4) 0.7773(10) 0.1610(5)
H44 H 0.1273 0.7129 0.1526
H45 H 0.1012 0.8092 0.1361
H46 H 0.0994 0.7763 0.1862
C39 C 0.3452(4) 0.7885(8) -0.0198(3)
C40 C 0.3946(5) 0.8111(12) -0.0304(5)
H47 H 0.4062 0.8741 -0.0294
C41 C 0.4245(6) 0.7405(18) -0.0420(6)
H48 H 0.4572 0.7562 -0.0492
C42 C 0.4103(5) 0.6453(14) -0.0440(5)
H49 H 0.4321 0.5973 -0.0524
C43 C 0.3615(4) 0.6264(8) -0.0328(3)
C44 C 0.3361(5) 0.5312(8) -0.0310(3)
C45 C 0.3670(7) 0.4422(10) -0.0388(6)
H50 H 0.3442 0.3909 -0.0485
H51 H 0.3866 0.4245 -0.0113
H52 H 0.3897 0.4549 -0.0616
C46 C 0.2608(6) 0.4455(7) -0.0143(4)
H53 H 0.2735 0.4188 0.0146
H54 H 0.2663 0.3983 -0.0373
C47 C 0.2043(6) 0.4633(9) -0.0143(4)
H55 H 0.1881 0.4019 -0.0099
H56 H 0.1920 0.4853 -0.0442
C48 C 0.1847(5) 0.5325(9) 0.0190(4)
H57 H 0.1489 0.5192 0.0219
H58 H 0.2034 0.5226 0.0483
C49 C 0.1709(4) 0.7045(9) 0.0354(4)
H59 H 0.1359 0.6889 0.0405
H60 H 0.1911 0.7019 0.0643
C50 C 0.1723(5) 0.8019(9) 0.0182(4)
H61 H 0.1464 0.8385 0.0318
H62 H 0.1622 0.7996 -0.0139
C51 C 0.2224(5) 0.8577(8) 0.0251(3)
H63 H 0.2174 0.9208 0.0118
H64 H 0.2316 0.8659 0.0571
C52 C 0.3052(5) 0.8524(7) -0.0042(3)
C53 C 0.3165(6) 0.9576(8) 0.0005(6)
H65 H 0.2906 0.9879 0.0162
H66 H 0.3169 0.9857 -0.0289
H67 H 0.3493 0.9664 0.0171
C54 C 0.2133(3) 0.7469(5) -0.1015(2)
C55 C 0.1923(4) 0.9443(6) -0.0976(3)
C56 C 0.1165(3) 0.8368(7) -0.1094(3)
C57 C 0.2603(3) 0.8669(6) -0.1469(3)
C58 C 0.1442(3) 0.7021(6) -0.1644(3)
C59 C 0.1108(3) 0.8674(5) -0.1979(2)
C60 C 0.2063(3) 0.7947(5) -0.2140(3)
C61 C 0.3505(5) 0.7201(10) -0.2239(5)
C62 C 0.4000(6) 0.7672(11) -0.2087(6)
H68 H 0.4166 0.7626 -0.1798
C63 C 0.4168(6) 0.8162(11) -0.2418(7)
H69 H 0.4479 0.8468 -0.2343
C64 C 0.3962(6) 0.8314(11) -0.2875(6)
H70 H 0.4118 0.8650 -0.3095
C65 C 0.3482(5) 0.7865(7) -0.2931(5)
C66 C 0.3109(7) 0.7858(13) -0.3338(6)
C67 C 0.3307(7) 0.8466(13) -0.3745(6)
H71 H 0.3355 0.8046 -0.3993
H72 H 0.3625 0.8771 -0.3646
H73 H 0.3057 0.8945 -0.3841
C68 C 0.2322(8) 0.7385(18) -0.3730(6)
H74 H 0.2111 0.7950 -0.3707
H75 H 0.2475 0.7441 -0.4013
C69 C 0.1990(9) 0.6620(16) -0.3778(8)
H76 H 0.2179 0.6076 -0.3878
H77 H 0.1729 0.6773 -0.4019
C70 C 0.1717(7) 0.6298(13) -0.3369(6)
H78 H 0.1539 0.6844 -0.3257
H79 H 0.1462 0.5823 -0.3469
C71 C 0.1731(6) 0.5565(11) -0.2676(6)
H80 H 0.1473 0.5126 -0.2808
H81 H 0.1559 0.6093 -0.2541
C72 C 0.2084(7) 0.5055(10) -0.2321(7)
H82 H 0.2275 0.4597 -0.2484
H83 H 0.1863 0.4682 -0.2145
C73 C 0.2501(6) 0.5565(11) -0.1959(6)
H84 H 0.2321 0.5924 -0.1744
H85 H 0.2701 0.5074 -0.1794
C74 C 0.3253(5) 0.6551(9) -0.1926(5)
C75 C 0.3384(8) 0.6392(13) -0.1467(5)
H86 H 0.3433 0.6995 -0.1315
H87 H 0.3694 0.6026 -0.1428
H88 H 0.3114 0.6045 -0.1343
C76 C 0.1850(3) 0.9795(5) -0.1828(3)
Ni1C Ni -0.00099(4) 0.87189(7) -0.25375(4)
Ni2A Ni 0.23372(4) 0.38426(6) 0.28995(3)
Ni4A Ni 0.23311(4) 1.16626(7) -0.22335(4)
N12C N 0.5749(2) 0.6214(5) 0.2774(2)
N17A N 0.2271(3) 0.9925(4) 0.2471(2)
N32A N 0.3085(3) 0.5529(5) -0.3020(3)
O1 O 0.0285(6) 0.2449(13) 0.8800(6)
H89 H 0.0439 0.3076 0.8940
H90 H 0.0490 0.1918 0.8871
O2 O 0.4285(11) 0.890(4) 0.0893(8)
H91 H 0.4417 0.9339 0.1086
H92 H 0.4114 0.9305 0.0670
O3 O 0.3930(11) 0.791(2) 0.1066(9)
H93 H 0.3838 0.7438 0.0901
H94 H 0.3807 0.7837 0.1318
O4 O 0.4506(3) 0.1908(6) 0.2238(4)
H95 H 0.4590 0.2396 0.2399
H96 H 0.4609 0.2000 0.1980
O5 O 0.4125(3) 0.9368(7) 0.8742(4)
H97 H 0.3733 0.9349 0.8710
H98 H 0.4091 0.9764 0.8965
O6 O 0.5217(4) 0.8736(7) 0.6868(4)
H99 H 0.5240 0.8303 0.6671
H100 H 0.5383 0.8549 0.7110
O7 O 0.2993(5) 0.2143(7) 0.0263(4)
H101 H 0.3203 0.1702 0.0210
H102 H 0.3141 0.2509 0.0463
O8 O 0.0863(4) 0.5388(8) 0.1252(4)
H103 H 0.1194 0.5426 0.1259
H104 H 0.0756 0.5715 0.1008
O9 O 0.2084(7) 0.1716(9) 0.9815(5)
H105 H 0.2390 0.1919 0.9825
H106 H 0.2027 0.1382 0.9577
O10 O 0.1669(7) 0.3308(10) 0.0981(5)
H107 H 0.1636 0.3038 0.1233
H108 H 0.1954 0.3602 0.1005
O11 O 0.5077(5) 0.8406(12) 0.8595(5)
H109 H 0.4802 0.8731 0.8567
H110 H 0.5020 0.7904 0.8745
O12 O 0.0947(7) 0.566(2) 0.9190(8)
H111 H 0.1169 0.5325 0.9346
H112 H 0.0819 0.6051 0.9367
O13 O 0.4407(8) 0.0576(13) 0.9460(7)
H113 H 0.4564 0.0326 0.9710
H114 H 0.4616 0.0627 0.9276
O14 O 0.4973(6) 0.5343(18) 0.0422(5)
H115 H 0.4716 0.5308 0.0576
H116 H 0.5020 0.5930 0.0364
O15 O 0.6463(9) 0.614(3) 0.1938(10)
H117 H 0.6392 0.6687 0.1828
H118 H 0.6434 0.6163 0.2220
O16 O 0.0991(15) 0.110(2) 0.8847(14)
H119 H 0.1088 0.0868 0.8605
H120 H 0.1138 0.0782 0.9066
O17 O 0.5577(9) 0.7037(13) 0.9156(8)
H121 H 0.5699 0.7048 0.9430
H122 H 0.5728 0.6591 0.9025
loop_
_geom_bond_atom_site_label_1
_geom_bond_atom_site_label_2
_geom_bond_site_symmetry_1
_geom_bond_site_symmetry_2
W1 C1 1_555 1_555
W2 C54 1_555 1_555
Ni1 N1 1_555 1_555
Ni2 N2 1_555 1_555
Ni3 N3 1_555 1_555
Ni4 N27 1_555 1_555
N1 C1 1_555 1_555
N2 C2 1_555 1_555
N3 C3 1_555 1_555
N4 C4 1_555 1_555
N5 C5 1_555 1_555
N6 C6 1_555 1_555
N7 C7 1_555 1_555
N8 Ni1 1_555 1_555
N9 Ni1 1_555 1_555
N10 Ni1 1_555 1_555
H1 N10 1_555 1_555
N11 Ni1 1_555 1_555
N12 C59 1_555 1_555
N13 Ni2 1_555 1_555
N14 Ni2 1_555 1_555
N15 Ni2 1_555 1_555
H2 N15 1_555 1_555
N16 Ni2 1_555 1_555
N17 C8 1_555 1_555
N18 Ni3 1_555 1_555
N19 Ni3 1_555 1_555
N20 Ni3 1_555 1_555
H3 N20 1_555 1_555
N21 Ni3 1_555 1_555
N22 Ni3 1_555 1_555
N23 C55 1_555 1_555
N24 C56 1_555 1_555
N25 C57 1_555 1_555
N26 C58 1_555 1_555
N27 C60 1_555 1_555
N28 Ni4 1_555 1_555
N29 Ni4 1_555 1_555
N30 Ni4 1_555 1_555
N31 Ni4 1_555 1_555
H4 N31 1_555 1_555
N32 C76 1_555 1_555
C2 W1 1_555 1_555
C3 W1 1_555 1_555
C4 W1 1_555 1_555
C5 W1 1_555 1_555
C6 W1 1_555 1_555
C7 W1 1_555 1_555
C8 W1 1_555 1_555
C9 N8 1_555 1_555
C10 C9 1_555 1_555
H5 C10 1_555 1_555
C11 C10 1_555 1_555
H6 C11 1_555 1_555
C12 C11 1_555 1_555
H7 C12 1_555 1_555
C13 N8 1_555 1_555
C14 N9 1_555 1_555
C15 C14 1_555 1_555
H8 C15 1_555 1_555
H9 C15 1_555 1_555
H10 C15 1_555 1_555
C16 N9 1_555 1_555
H11 C16 1_555 1_555
H12 C16 1_555 1_555
C17 C16 1_555 1_555
H13 C17 1_555 1_555
H14 C17 1_555 1_555
C18 N10 1_555 1_555
H15 C18 1_555 1_555
H16 C18 1_555 1_555
C19 N10 1_555 1_555
H17 C19 1_555 1_555
H18 C19 1_555 1_555
C20 C19 1_555 1_555
H19 C20 1_555 1_555
H20 C20 1_555 1_555
C21 N11 1_555 1_555
H21 C21 1_555 1_555
H22 C21 1_555 1_555
C22 N11 1_555 1_555
C23 C22 1_555 1_555
H23 C23 1_555 1_555
H24 C23 1_555 1_555
H25 C23 1_555 1_555
C24 N13 1_555 1_555
C25 C24 1_555 1_555
H26 C25 1_555 1_555
C26 C25 1_555 1_555
H27 C26 1_555 1_555
C27 C26 1_555 1_555
H28 C27 1_555 1_555
C28 N13 1_555 1_555
C29 N16 1_555 1_555
C30 C29 1_555 1_555
H29 C30 1_555 1_555
H30 C30 1_555 1_555
H31 C30 1_555 1_555
C31 N16 1_555 1_555
H32 C31 1_555 1_555
H33 C31 1_555 1_555
C32 C31 1_555 1_555
H34 C32 1_555 1_555
H35 C32 1_555 1_555
C33 N15 1_555 1_555
H36 C33 1_555 1_555
H37 C33 1_555 1_555
C34 N15 1_555 1_555
H38 C34 1_555 1_555
H39 C34 1_555 1_555
C35 C34 1_555 1_555
H40 C35 1_555 1_555
H41 C35 1_555 1_555
C36 N14 1_555 1_555
H42 C36 1_555 1_555
H43 C36 1_555 1_555
C37 N14 1_555 1_555
C38 C37 1_555 1_555
H44 C38 1_555 1_555
H45 C38 1_555 1_555
H46 C38 1_555 1_555
C39 N18 1_555 1_555
C40 C39 1_555 1_555
H47 C40 1_555 1_555
C41 C40 1_555 1_555
H48 C41 1_555 1_555
C42 C41 1_555 1_555
H49 C42 1_555 1_555
C43 N18 1_555 1_555
C44 N21 1_555 1_555
C45 C44 1_555 1_555
H50 C45 1_555 1_555
H51 C45 1_555 1_555
H52 C45 1_555 1_555
C46 N21 1_555 1_555
H53 C46 1_555 1_555
H54 C46 1_555 1_555
C47 C46 1_555 1_555
H55 C47 1_555 1_555
H56 C47 1_555 1_555
C48 N20 1_555 1_555
H57 C48 1_555 1_555
H58 C48 1_555 1_555
C49 N20 1_555 1_555
H59 C49 1_555 1_555
H60 C49 1_555 1_555
C50 C49 1_555 1_555
H61 C50 1_555 1_555
H62 C50 1_555 1_555
C51 N19 1_555 1_555
H63 C51 1_555 1_555
H64 C51 1_555 1_555
C52 N19 1_555 1_555
C53 C52 1_555 1_555
H65 C53 1_555 1_555
H66 C53 1_555 1_555
H67 C53 1_555 1_555
C54 N22 1_555 1_555
C55 W2 1_555 1_555
C56 W2 1_555 1_555
C57 W2 1_555 1_555
C58 W2 1_555 1_555
C59 W2 1_555 1_555
C60 W2 1_555 1_555
C61 N28 1_555 1_555
C62 C61 1_555 1_555
H68 C62 1_555 1_555
C63 C62 1_555 1_555
H69 C63 1_555 1_555
C64 C63 1_555 1_555
H70 C64 1_555 1_555
C65 N28 1_555 1_555
C66 N29 1_555 1_555
C67 C66 1_555 1_555
H71 C67 1_555 1_555
H72 C67 1_555 1_555
H73 C67 1_555 1_555
C68 N29 1_555 1_555
H74 C68 1_555 1_555
H75 C68 1_555 1_555
C69 C68 1_555 1_555
H76 C69 1_555 1_555
H77 C69 1_555 1_555
C70 N31 1_555 1_555
H78 C70 1_555 1_555
H79 C70 1_555 1_555
C71 N31 1_555 1_555
H80 C71 1_555 1_555
H81 C71 1_555 1_555
C72 C71 1_555 1_555
H82 C72 1_555 1_555
H83 C72 1_555 1_555
C73 N30 1_555 1_555
H84 C73 1_555 1_555
H85 C73 1_555 1_555
C74 N30 1_555 1_555
C75 C74 1_555 1_555
H86 C75 1_555 1_555
H87 C75 1_555 1_555
H88 C75 1_555 1_555
C76 W2 1_555 1_555
O1 H89 1_555 1_555
H90 O1 1_555 1_555
O2 H91 1_555 1_555
H92 O2 1_555 1_555
O3 H93 1_555 1_555
H94 O3 1_555 1_555
O4 H95 1_555 1_555
H96 O4 1_555 1_555
O5 H97 1_555 1_555
H98 O5 1_555 1_555
O6 H99 1_555 1_555
H100 O6 1_555 1_555
O7 H101 1_555 1_555
H102 O7 1_555 1_555
O8 H103 1_555 1_555
H104 O8 1_555 1_555
O9 H105 1_555 1_555
H106 O9 1_555 1_555
O10 H107 1_555 1_555
H108 O10 1_555 1_555
O11 H109 1_555 1_555
H110 O11 1_555 1_555
O12 H111 1_555 1_555
H112 O12 1_555 1_555
O13 H113 1_555 1_555
H114 O13 1_555 1_555
O14 H115 1_555 1_555
H116 O14 1_555 1_555
O15 H117 1_555 1_555
H118 O15 1_555 1_555
O16 H119 1_555 1_555
H120 O16 1_555 1_555
O17 H121 1_555 1_555
H122 O17 1_555 1_555
Ni1C N12 1_555 1_555
Ni2A N17 1_555 1_555
Ni4A N32 1_555 1_555
N12C Ni1 1_555 1_555
N17A Ni2 1_555 1_555
N32A Ni4 1_555 1_555
C9 C22 1_555 1_555
C12 C13 1_555 1_555
C13 C14 1_555 1_555
C17 C18 1_555 1_555
C20 C21 1_555 1_555
C24 C37 1_555 1_555
C27 C28 1_555 1_555
C28 C29 1_555 1_555
C32 C33 1_555 1_555
C35 C36 1_555 1_555
C39 C52 1_555 1_555
C42 C43 1_555 1_555
C43 C44 1_555 1_555
C47 C48 1_555 1_555
C50 C51 1_555 1_555
C61 C74 1_555 1_555
C64 C65 1_555 1_555
C65 C66 1_555 1_555
C69 C70 1_555 1_555
C72 C73 1_555 1_555

#END
