
#######################################################################
#
#                 Cambridge Crystallographic Data Centre
#                                CCDC 
#
#######################################################################
#
# If this CIF has been generated from an entry in the Cambridge 
# Structural Database, then it will include bibliographic, chemical, 
# crystal, experimental, refinement or atomic coordinate data resulting 
# from the CCDC's data processing and validation procedures.
#
#######################################################################

data_CIWZAL
_symmetry_cell_setting           triclinic
_symmetry_space_group_name_H-M   'P -1'
_symmetry_Int_Tables_number      2
_space_group_name_Hall           '-P 1'
loop_
_symmetry_equiv_pos_site_id
_symmetry_equiv_pos_as_xyz
1 x,y,z
2 -x,-y,-z
_cell_length_a                   11.2803(8)
_cell_length_b                   16.4227(11)
_cell_length_c                   20.3742(14)
_cell_angle_alpha                98.2400(10)
_cell_angle_beta                 91.1160(10)
_cell_angle_gamma                105.4670(10)
_cell_volume                     3593.54
loop_
_atom_site_label
_atom_site_type_symbol
_atom_site_fract_x
_atom_site_fract_y
_atom_site_fract_z
Cr1 Cr 0.81095(8) 0.57164(5) 0.25225(4)
Cr2 Cr 0.5000 0.0000 0.0000
Cr3 Cr 0.5000 0.0000 0.5000
Ni1 Ni 0.64581(6) 0.33083(4) 0.05518(3)
Ni2 Ni 0.56185(6) -0.01460(4) 0.24902(3)
Ni3 Ni 0.10793(7) -0.25822(4) 0.44936(3)
N1 N 0.7024(5) 0.4558(3) 0.1125(2)
N2 N 0.5692(7) 0.6384(6) 0.2712(4)
N3 N 0.9395(7) 0.7426(5) 0.1931(5)
N4 N 1.0479(7) 0.4995(5) 0.2306(3)
N5 N 0.6690(11) 0.4036(7) 0.3066(5)
N6 N 0.6449(4) 0.3807(2) -0.02649(19)
N7 N 0.8244(5) 0.3450(3) 0.0283(3)
N8 N 0.6458(7) 0.2819(4) 0.1402(3)
H1 H 0.6694 0.3330 0.1676
N9 N 0.4652(4) 0.3343(3) 0.0469(2)
N10 N 0.5937(5) 0.2031(3) 0.0045(2)
N11 N 0.2428(8) 0.0297(6) 0.0432(4)
N12 N 0.5869(5) 0.0248(3) 0.1543(2)
N13 N 0.4066(5) 0.0154(3) 0.2496(2)
N14 N 0.6169(7) 0.1090(4) 0.3006(2)
N15 N 0.7257(5) -0.0418(4) 0.2432(3)
H2 H 0.7527 -0.0273 0.2035
N16 N 0.4471(5) -0.1261(3) 0.1993(2)
N17 N 0.5360(5) -0.0514(3) 0.3450(2)
N18 N 0.3002(9) 0.0880(7) 0.4539(5)
N19 N 0.2740(5) -0.1691(3) 0.4928(2)
N20 N 0.0777(7) -0.3169(5) 0.5246(3)
N21 N 0.2092(7) -0.3573(6) 0.4318(6)
N22 N 0.1467(9) -0.2200(6) 0.3629(4)
H3 H 0.0796 -0.2526 0.3369
N23 N 0.0090(7) -0.1915(5) 0.4966(4)
N24 N 0.9462(5) 0.6590(3) 0.3946(2)
C1 C 0.7418(6) 0.5032(3) 0.1594(3)
C2 C 0.6552(7) 0.6161(5) 0.2646(3)
C3 C 0.8887(5) 0.6275(4) 0.3467(3)
C4 C 0.8950(6) 0.6817(4) 0.2136(3)
C5 C 0.7219(8) 0.4640(5) 0.2885(4)
C6 C 0.9646(6) 0.5266(4) 0.2378(3)
C7 C 0.7470(6) 0.4017(4) -0.0559(3)
C8 C 0.7453(8) 0.4407(5) -0.1147(3)
H4 H 0.8159 0.4561 -0.1380
C9 C 0.6400(9) 0.4542(5) -0.1350(4)
H5 H 0.6387 0.4809 -0.1723
C10 C 0.5343(8) 0.4303(4) -0.1031(3)
H6 H 0.4609 0.4385 -0.1186
C11 C 0.5402(5) 0.3934(3) -0.0465(2)
C12 C 0.4348(5) 0.3630(3) -0.0043(3)
C13 C 0.3109(6) 0.3667(5) -0.0240(4)
H7 H 0.2554 0.3479 0.0093
H8 H 0.2833 0.3302 -0.0657
H9 H 0.3129 0.4244 -0.0285
C14 C 0.3771(8) 0.2988(6) 0.0942(4)
H10 H 0.3271 0.3378 0.1064
H11 H 0.3225 0.2452 0.0724
C15 C 0.4327(11) 0.2841(8) 0.1534(5)
H12 H 0.4501 0.3387 0.1823
H13 H 0.3655 0.2464 0.1726
C16 C 0.5334(11) 0.2538(7) 0.1656(5)
H14 H 0.5482 0.2627 0.2135
H15 H 0.5068 0.1924 0.1516
C17 C 0.7517(13) 0.2562(7) 0.1534(6)
H16 H 0.7619 0.2616 0.2014
H17 H 0.7320 0.1956 0.1365
C18 C 0.8672(14) 0.2927(12) 0.1318(7)
H18 H 0.9164 0.2558 0.1429
H19 H 0.8977 0.3456 0.1625
C19 C 0.9090(8) 0.3147(6) 0.0693(6)
H20 H 0.9257 0.2650 0.0436
H21 H 0.9865 0.3590 0.0774
C20 C 0.8503(6) 0.3784(4) -0.0236(4)
C21 C 0.9727(8) 0.3960(6) -0.0549(5)
H22 H 1.0329 0.3840 -0.0266
H23 H 0.9986 0.4550 -0.0608
H24 H 0.9646 0.3603 -0.0973
C22 C 0.5601(5) 0.1303(3) -0.0011(2)
C23 C 0.3335(7) 0.0162(4) 0.0278(3)
C24 C 0.5594(5) 0.0196(3) 0.0986(2)
C25 C 0.3114(6) -0.0401(5) 0.2134(3)
C26 C 0.2022(8) -0.0204(8) 0.2067(5)
H25 H 0.1345 -0.0578 0.1816
C27 C 0.1983(12) 0.0596(10) 0.2398(7)
H26 H 0.1248 0.0748 0.2372
C28 C 0.2966(12) 0.1162(8) 0.2755(5)
H27 H 0.2927 0.1697 0.2960
C29 C 0.4038(9) 0.0896(5) 0.2799(3)
C30 C 0.5288(10) 0.1412(4) 0.3139(3)
C31 C 0.5351(12) 0.2232(5) 0.3596(4)
H28 H 0.5854 0.2265 0.3990
H29 H 0.4535 0.2242 0.3716
H30 H 0.5703 0.2709 0.3374
C32 C 0.7370(10) 0.1488(6) 0.3277(4)
H31 H 0.7417 0.1429 0.3744
H32 H 0.7576 0.2093 0.3246
C33 C 0.8242(10) 0.1108(7) 0.2930(5)
H33 H 0.9059 0.1440 0.3110
H34 H 0.8182 0.1191 0.2470
C34 C 0.8182(7) 0.0156(7) 0.2927(5)
H35 H 0.8985 0.0071 0.2835
H36 H 0.7988 0.0010 0.3364
C35 C 0.7121(9) -0.1289(7) 0.2363(6)
H37 H 0.6785 -0.1495 0.2762
H38 H 0.7927 -0.1390 0.2324
C36 C 0.6295(9) -0.1798(6) 0.1769(4)
H39 H 0.6501 -0.2337 0.1667
H40 H 0.6521 -0.1493 0.1396
C37 C 0.4896(8) -0.2006(4) 0.1791(4)
H41 H 0.4524 -0.2278 0.1354
H42 H 0.4626 -0.2410 0.2097
C38 C 0.3393(6) -0.1222(5) 0.1851(3)
C39 C 0.2414(8) -0.1913(7) 0.1448(4)
H43 H 0.2008 -0.1673 0.1138
H44 H 0.1824 -0.2188 0.1736
H45 H 0.2777 -0.2325 0.1210
C40 C 0.3727(7) 0.0577(5) 0.4713(3)
C41 C 0.3568(5) -0.1107(3) 0.4986(2)
C42 C 0.0058(8) -0.2942(7) 0.5626(4)
C43 C -0.0398(12) -0.3320(14) 0.6211(6)
H46 H -0.0931 -0.3160 0.6515
C44 C 0.016(2) -0.3978(13) 0.6199(9)
H47 H -0.0022 -0.4256 0.6566
C45 C 0.0973(16) -0.4360(9) 0.5768(8)
H48 H 0.1262 -0.4835 0.5797
C46 C 0.1167(9) -0.3819(5) 0.5320(5)
C47 C 0.1983(13) -0.3966(8) 0.4786(10)
C48 C 0.2603(13) -0.4666(8) 0.4794(10)
H49 H 0.2411 -0.4922 0.5187
H50 H 0.3479 -0.4432 0.4791
H51 H 0.2317 -0.5092 0.4409
C49 C 0.2635(13) -0.3481(12) 0.3797(8)
H52 H 0.2868 -0.4013 0.3732
H53 H 0.3385 -0.3059 0.3985
C50 C 0.2690(14) -0.3323(13) 0.3174(8)
H54 H 0.2070 -0.3753 0.2883
H55 H 0.3497 -0.3305 0.3010
C51 C 0.2396(16) -0.2298(12) 0.3237(6)
H56 H 0.3144 -0.1863 0.3411
H57 H 0.2199 -0.2200 0.2795
C52 C 0.1380(16) -0.1334(9) 0.3573(7)
H58 H 0.2089 -0.0910 0.3803
H59 H 0.1356 -0.1259 0.3110
C53 C 0.0291(14) -0.1239(8) 0.3861(7)
H60 H -0.0377 -0.1691 0.3620
H61 H 0.0182 -0.0705 0.3755
C54 C 0.0052(12) -0.1237(8) 0.4626(6)
H62 H 0.0642 -0.0733 0.4863
H63 H -0.0756 -0.1145 0.4683
C55 C -0.0380(10) -0.2248(9) 0.5544(5)
C56 C -0.1021(13) -0.1754(10) 0.5915(9)
H64 H -0.0542 -0.1166 0.5985
H65 H -0.1175 -0.1946 0.6336
H66 H -0.1790 -0.1804 0.5681
C57 C 0.5224(5) -0.0378(3) 0.4006(2)
Cr1A Cr 0.18905(8) -0.57164(5) -0.25225(4)
Ni1A Ni 0.35419(6) -0.33083(4) -0.05518(3)
Ni2A Ni 0.43815(6) 0.01460(4) -0.24902(3)
N1A N 0.2976(5) -0.4558(3) -0.1125(2)
N2A N 0.4308(7) -0.6384(6) -0.2712(4)
N3A N 0.0605(7) -0.7426(5) -0.1931(5)
N4A N -0.0479(7) -0.4995(5) -0.2306(3)
N5A N 0.3310(11) -0.4036(7) -0.3066(5)
N6A N 0.3551(4) -0.3807(2) 0.02649(19)
N7A N 0.1756(5) -0.3450(3) -0.0283(3)
N8A N 0.3542(7) -0.2819(4) -0.1402(3)
H1A H 0.3306 -0.3330 -0.1676
N9A N 0.5348(4) -0.3343(3) -0.0469(2)
N10A N 0.4063(5) -0.2031(3) -0.0045(2)
N11A N 0.7572(8) -0.0297(6) -0.0432(4)
N12A N 0.4131(5) -0.0248(3) -0.1543(2)
N13A N 0.5934(5) -0.0154(3) -0.2496(2)
N14A N 0.3831(7) -0.1090(4) -0.3006(2)
N15A N 0.2743(5) 0.0418(4) -0.2432(3)
H2A H 0.2473 0.0273 -0.2035
N16A N 0.5529(5) 0.1261(3) -0.1993(2)
N17A N 0.4640(5) 0.0514(3) -0.3450(2)
N24A N 0.0538(5) -0.6590(3) -0.3946(2)
C1A C 0.2582(6) -0.5032(3) -0.1594(3)
C2A C 0.3448(7) -0.6161(5) -0.2646(3)
C3A C 0.1113(5) -0.6275(4) -0.3467(3)
C4A C 0.1050(6) -0.6817(4) -0.2136(3)
C5A C 0.2781(8) -0.4640(5) -0.2885(4)
C6A C 0.0354(6) -0.5266(4) -0.2378(3)
C7A C 0.2530(6) -0.4017(4) 0.0559(3)
C8A C 0.2547(8) -0.4407(5) 0.1147(3)
H4A H 0.1841 -0.4561 0.1380
C9A C 0.3600(9) -0.4542(5) 0.1350(4)
H5A H 0.3613 -0.4809 0.1723
C10A C 0.4657(8) -0.4303(4) 0.1031(3)
H6A H 0.5391 -0.4385 0.1186
C11A C 0.4598(5) -0.3934(3) 0.0465(2)
C12A C 0.5652(5) -0.3630(3) 0.0043(3)
C13A C 0.6891(6) -0.3667(5) 0.0240(4)
H7A H 0.7446 -0.3479 -0.0093
H8A H 0.7167 -0.3302 0.0657
H9A H 0.6871 -0.4244 0.0285
C14A C 0.6229(8) -0.2988(6) -0.0942(4)
H10A H 0.6729 -0.3378 -0.1064
H11A H 0.6775 -0.2452 -0.0724
C15A C 0.5673(11) -0.2841(8) -0.1534(5)
H12A H 0.5499 -0.3387 -0.1823
H13A H 0.6345 -0.2464 -0.1726
C16A C 0.4666(11) -0.2538(7) -0.1656(5)
H14A H 0.4518 -0.2627 -0.2135
H15A H 0.4932 -0.1924 -0.1516
C17A C 0.2483(13) -0.2562(7) -0.1534(6)
H16A H 0.2381 -0.2616 -0.2014
H17A H 0.2680 -0.1956 -0.1365
C18A C 0.1328(14) -0.2927(12) -0.1318(7)
H18A H 0.0836 -0.2558 -0.1429
H19A H 0.1023 -0.3456 -0.1625
C19A C 0.0910(8) -0.3147(6) -0.0693(6)
H20A H 0.0743 -0.2650 -0.0436
H21A H 0.0135 -0.3590 -0.0774
C20A C 0.1497(6) -0.3784(4) 0.0236(4)
C21A C 0.0273(8) -0.3960(6) 0.0549(5)
H22A H -0.0329 -0.3840 0.0266
H23A H 0.0014 -0.4550 0.0608
H24A H 0.0354 -0.3603 0.0973
C22A C 0.4399(5) -0.1303(3) 0.0011(2)
C23A C 0.6665(7) -0.0162(4) -0.0278(3)
C24A C 0.4406(5) -0.0196(3) -0.0986(2)
C25A C 0.6886(6) 0.0401(5) -0.2134(3)
C26A C 0.7978(8) 0.0204(8) -0.2067(5)
H25A H 0.8655 0.0578 -0.1816
C27A C 0.8017(12) -0.0596(10) -0.2398(7)
H26A H 0.8752 -0.0748 -0.2372
C28A C 0.7034(12) -0.1162(8) -0.2755(5)
H27A H 0.7073 -0.1697 -0.2960
C29A C 0.5962(9) -0.0896(5) -0.2799(3)
C30A C 0.4712(10) -0.1412(4) -0.3139(3)
C31A C 0.4649(12) -0.2232(5) -0.3596(4)
H28A H 0.4146 -0.2265 -0.3990
H29A H 0.5465 -0.2242 -0.3716
H30A H 0.4297 -0.2709 -0.3374
C32A C 0.2630(10) -0.1488(6) -0.3277(4)
H31A H 0.2583 -0.1429 -0.3744
H32A H 0.2424 -0.2093 -0.3246
C33A C 0.1758(10) -0.1108(7) -0.2930(5)
H33A H 0.0941 -0.1440 -0.3110
H34A H 0.1818 -0.1191 -0.2470
C34A C 0.1818(7) -0.0156(7) -0.2927(5)
H35A H 0.1015 -0.0071 -0.2835
H36A H 0.2012 -0.0010 -0.3364
C35A C 0.2879(9) 0.1289(7) -0.2363(6)
H37A H 0.3215 0.1495 -0.2762
H38A H 0.2073 0.1390 -0.2324
C36A C 0.3705(9) 0.1798(6) -0.1769(4)
H39A H 0.3499 0.2337 -0.1667
H40A H 0.3479 0.1493 -0.1396
C37A C 0.5104(8) 0.2006(4) -0.1791(4)
H41A H 0.5476 0.2278 -0.1354
H42A H 0.5374 0.2410 -0.2097
C38A C 0.6607(6) 0.1222(5) -0.1851(3)
C39A C 0.7586(8) 0.1913(7) -0.1448(4)
H43A H 0.7992 0.1673 -0.1138
H44A H 0.8176 0.2188 -0.1736
H45A H 0.7223 0.2325 -0.1210
C57A C 0.4776(5) 0.0378(3) -0.4006(2)
Ni3A Ni 0.89207(7) 0.25822(4) 0.55064(3)
N19A N 0.7260(5) 0.1691(3) 0.5072(2)
N20A N 0.9223(7) 0.3169(5) 0.4754(3)
N21A N 0.7908(7) 0.3573(6) 0.5682(6)
N22A N 0.8533(9) 0.2200(6) 0.6371(4)
H3A H 0.9204 0.2526 0.6631
N23A N 0.9910(7) 0.1915(5) 0.5034(4)
C41A C 0.6432(5) 0.1107(3) 0.5014(2)
C42A C 0.9942(8) 0.2942(7) 0.4374(4)
C43A C 1.0398(12) 0.3320(14) 0.3789(6)
H46A H 1.0931 0.3160 0.3485
C44A C 0.984(2) 0.3978(13) 0.3801(9)
H47A H 1.0022 0.4256 0.3434
C45A C 0.9027(16) 0.4360(9) 0.4232(8)
H48A H 0.8738 0.4835 0.4203
C46A C 0.8833(9) 0.3819(5) 0.4680(5)
C47A C 0.8017(13) 0.3966(8) 0.5214(10)
C48A C 0.7397(13) 0.4666(8) 0.5206(10)
H49A H 0.7589 0.4922 0.4813
H50A H 0.6521 0.4432 0.5209
H51A H 0.7683 0.5092 0.5591
C49A C 0.7365(13) 0.3481(12) 0.6203(8)
H52A H 0.7132 0.4013 0.6268
H53A H 0.6615 0.3059 0.6015
C50A C 0.7310(14) 0.3323(13) 0.6826(8)
H54A H 0.7930 0.3753 0.7117
H55A H 0.6503 0.3305 0.6990
C51A C 0.7604(16) 0.2298(12) 0.6763(6)
H56A H 0.6856 0.1863 0.6589
H57A H 0.7801 0.2200 0.7205
C52A C 0.8620(16) 0.1334(9) 0.6427(7)
H58A H 0.7911 0.0910 0.6197
H59A H 0.8644 0.1259 0.6890
C53A C 0.9709(14) 0.1239(8) 0.6139(7)
H60A H 1.0377 0.1691 0.6380
H61A H 0.9818 0.0705 0.6245
C54A C 0.9948(12) 0.1237(8) 0.5374(6)
H62A H 0.9358 0.0733 0.5137
H63A H 1.0756 0.1145 0.5317
C55A C 1.0380(10) 0.2248(9) 0.4456(5)
C56A C 1.1021(13) 0.1754(10) 0.4085(9)
H64A H 1.0542 0.1166 0.4015
H65A H 1.1175 0.1946 0.3664
H66A H 1.1790 0.1804 0.4319
N18A N 0.6998(9) -0.0880(7) 0.5461(5)
C40A C 0.6273(7) -0.0577(5) 0.5287(3)
Cr3_2 Cr 0.5000 0.0000 -0.5000
Ni3_2 Ni 1.10793(7) 0.74178(4) 0.44936(3)
Ni3A_2 Ni -0.10793(7) -0.74178(4) -0.44936(3)
N24_2 N -0.0538(5) -0.3410(3) 0.3946(2)
N24A_2 N 1.0538(5) 0.3410(3) 0.6054(2)
C57A_2 C 0.4776(5) 0.0378(3) 0.5994(2)
O1 O 0.7925(9) 0.6121(6) 0.7710(5)
H67 H 0.8266 0.6353 0.7394
H68 H 0.8324 0.5790 0.7795
O2 O 0.0888(10) 0.2163(6) 0.2221(5)
H69 H 0.1590 0.2462 0.2392
H70 H 0.0775 0.2327 0.1853
O3 O 0.8753(10) 0.9976(8) 0.1119(5)
H71 H 0.8115 1.0050 0.0972
H72 H 0.9009 0.9927 0.1503
O4 O 0.0732(9) 0.1234(7) 0.0896(7)
H73 H 0.0569 0.1711 0.0999
H74 H 0.0077 0.0873 0.0718
O5 O 0.9396(15) 0.8375(9) 0.0742(10)
H75 H 0.9116 0.8035 0.1015
H76 H 0.9128 0.8812 0.0836
O6 O 0.6213(11) 0.6845(13) 0.4817(13)
H77 H 0.6302 0.6525 0.4465
H78 H 0.6330 0.6615 0.5155
O7 O 0.3947(14) 0.4200(14) 0.3280(9)
H79 H 0.3393 0.3934 0.2978
H80 H 0.4146 0.4180 0.3665
loop_
_geom_bond_atom_site_label_1
_geom_bond_atom_site_label_2
_geom_bond_site_symmetry_1
_geom_bond_site_symmetry_2
Cr1 C1 1_555 1_555
Cr2 C22 1_555 1_555
Cr3 C40 1_555 1_555
Ni1 N1 1_555 1_555
Ni2 N12 1_555 1_555
Ni3 N19 1_555 1_555
N1 C1 1_555 1_555
N2 C2 1_555 1_555
N3 C4 1_555 1_555
N4 C6 1_555 1_555
N5 C5 1_555 1_555
N6 Ni1 1_555 1_555
N7 Ni1 1_555 1_555
N8 Ni1 1_555 1_555
H1 N8 1_555 1_555
N9 Ni1 1_555 1_555
N10 Ni1 1_555 1_555
N11 C23 1_555 1_555
N12 C24 1_555 1_555
N13 Ni2 1_555 1_555
N14 Ni2 1_555 1_555
N15 Ni2 1_555 1_555
H2 N15 1_555 1_555
N16 Ni2 1_555 1_555
N17 Ni2 1_555 1_555
N18 C40 1_555 1_555
N19 C41 1_555 1_555
N20 Ni3 1_555 1_555
N21 Ni3 1_555 1_555
N22 Ni3 1_555 1_555
H3 N22 1_555 1_555
N23 Ni3 1_555 1_555
N24 C3 1_555 1_555
C2 Cr1 1_555 1_555
C3 Cr1 1_555 1_555
C4 Cr1 1_555 1_555
C5 Cr1 1_555 1_555
C6 Cr1 1_555 1_555
C7 N6 1_555 1_555
C8 C7 1_555 1_555
H4 C8 1_555 1_555
C9 C8 1_555 1_555
H5 C9 1_555 1_555
C10 C9 1_555 1_555
H6 C10 1_555 1_555
C11 N6 1_555 1_555
C12 N9 1_555 1_555
C13 C12 1_555 1_555
H7 C13 1_555 1_555
H8 C13 1_555 1_555
H9 C13 1_555 1_555
C14 N9 1_555 1_555
H10 C14 1_555 1_555
H11 C14 1_555 1_555
C15 C14 1_555 1_555
H12 C15 1_555 1_555
H13 C15 1_555 1_555
C16 N8 1_555 1_555
H14 C16 1_555 1_555
H15 C16 1_555 1_555
C17 N8 1_555 1_555
H16 C17 1_555 1_555
H17 C17 1_555 1_555
C18 C17 1_555 1_555
H18 C18 1_555 1_555
H19 C18 1_555 1_555
C19 N7 1_555 1_555
H20 C19 1_555 1_555
H21 C19 1_555 1_555
C20 N7 1_555 1_555
C21 C20 1_555 1_555
H22 C21 1_555 1_555
H23 C21 1_555 1_555
H24 C21 1_555 1_555
C22 N10 1_555 1_555
C23 Cr2 1_555 1_555
C24 Cr2 1_555 1_555
C25 N13 1_555 1_555
C26 C25 1_555 1_555
H25 C26 1_555 1_555
C27 C26 1_555 1_555
H26 C27 1_555 1_555
C28 C27 1_555 1_555
H27 C28 1_555 1_555
C29 N13 1_555 1_555
C30 N14 1_555 1_555
C31 C30 1_555 1_555
H28 C31 1_555 1_555
H29 C31 1_555 1_555
H30 C31 1_555 1_555
C32 N14 1_555 1_555
H31 C32 1_555 1_555
H32 C32 1_555 1_555
C33 C32 1_555 1_555
H33 C33 1_555 1_555
H34 C33 1_555 1_555
C34 N15 1_555 1_555
H35 C34 1_555 1_555
H36 C34 1_555 1_555
C35 N15 1_555 1_555
H37 C35 1_555 1_555
H38 C35 1_555 1_555
C36 C35 1_555 1_555
H39 C36 1_555 1_555
H40 C36 1_555 1_555
C37 N16 1_555 1_555
H41 C37 1_555 1_555
H42 C37 1_555 1_555
C38 N16 1_555 1_555
C39 C38 1_555 1_555
H43 C39 1_555 1_555
H44 C39 1_555 1_555
H45 C39 1_555 1_555
C41 Cr3 1_555 1_555
C42 N20 1_555 1_555
C43 C42 1_555 1_555
H46 C43 1_555 1_555
C44 C43 1_555 1_555
H47 C44 1_555 1_555
C45 C44 1_555 1_555
H48 C45 1_555 1_555
C46 N20 1_555 1_555
C47 N21 1_555 1_555
C48 C47 1_555 1_555
H49 C48 1_555 1_555
H50 C48 1_555 1_555
H51 C48 1_555 1_555
C49 N21 1_555 1_555
H52 C49 1_555 1_555
H53 C49 1_555 1_555
C50 C49 1_555 1_555
H54 C50 1_555 1_555
H55 C50 1_555 1_555
C51 N22 1_555 1_555
H56 C51 1_555 1_555
H57 C51 1_555 1_555
C52 N22 1_555 1_555
H58 C52 1_555 1_555
H59 C52 1_555 1_555
C53 C52 1_555 1_555
H60 C53 1_555 1_555
H61 C53 1_555 1_555
C54 N23 1_555 1_555
H62 C54 1_555 1_555
H63 C54 1_555 1_555
C55 N23 1_555 1_555
C56 C55 1_555 1_555
H64 C56 1_555 1_555
H65 C56 1_555 1_555
H66 C56 1_555 1_555
C57 Cr3 1_555 1_555
O1 H67 1_555 1_555
H68 O1 1_555 1_555
O2 H69 1_555 1_555
H70 O2 1_555 1_555
O3 H71 1_555 1_555
H72 O3 1_555 1_555
O4 H73 1_555 1_555
H74 O4 1_555 1_555
O5 H75 1_555 1_555
H76 O5 1_555 1_555
O6 H77 1_555 1_555
H78 O6 1_555 1_555
O7 H79 1_555 1_555
H80 O7 1_555 1_555
Cr1A C1A 1_555 1_555
Ni1A N1A 1_555 1_555
Ni2A N12A 1_555 1_555
N1A C1A 1_555 1_555
N2A C2A 1_555 1_555
N3A C4A 1_555 1_555
N4A C6A 1_555 1_555
N5A C5A 1_555 1_555
N6A Ni1A 1_555 1_555
N7A Ni1A 1_555 1_555
N8A Ni1A 1_555 1_555
H1A N8A 1_555 1_555
N9A Ni1A 1_555 1_555
N10A Ni1A 1_555 1_555
N11A C23A 1_555 1_555
N12A C24A 1_555 1_555
N13A Ni2A 1_555 1_555
N14A Ni2A 1_555 1_555
N15A Ni2A 1_555 1_555
H2A N15A 1_555 1_555
N16A Ni2A 1_555 1_555
N17A Ni2A 1_555 1_555
N24A C3A 1_555 1_555
C2A Cr1A 1_555 1_555
C3A Cr1A 1_555 1_555
C4A Cr1A 1_555 1_555
C5A Cr1A 1_555 1_555
C6A Cr1A 1_555 1_555
C7A N6A 1_555 1_555
C8A C7A 1_555 1_555
H4A C8A 1_555 1_555
C9A C8A 1_555 1_555
H5A C9A 1_555 1_555
C10A C9A 1_555 1_555
H6A C10A 1_555 1_555
C11A N6A 1_555 1_555
C12A N9A 1_555 1_555
C13A C12A 1_555 1_555
H7A C13A 1_555 1_555
H8A C13A 1_555 1_555
H9A C13A 1_555 1_555
C14A N9A 1_555 1_555
H10A C14A 1_555 1_555
H11A C14A 1_555 1_555
C15A C14A 1_555 1_555
H12A C15A 1_555 1_555
H13A C15A 1_555 1_555
C16A N8A 1_555 1_555
H14A C16A 1_555 1_555
H15A C16A 1_555 1_555
C17A N8A 1_555 1_555
H16A C17A 1_555 1_555
H17A C17A 1_555 1_555
C18A C17A 1_555 1_555
H18A C18A 1_555 1_555
H19A C18A 1_555 1_555
C19A N7A 1_555 1_555
H20A C19A 1_555 1_555
H21A C19A 1_555 1_555
C20A N7A 1_555 1_555
C21A C20A 1_555 1_555
H22A C21A 1_555 1_555
H23A C21A 1_555 1_555
H24A C21A 1_555 1_555
C22A Cr2 1_555 1_555
C23A Cr2 1_555 1_555
C24A Cr2 1_555 1_555
C25A N13A 1_555 1_555
C26A C25A 1_555 1_555
H25A C26A 1_555 1_555
C27A C26A 1_555 1_555
H26A C27A 1_555 1_555
C28A C27A 1_555 1_555
H27A C28A 1_555 1_555
C29A N13A 1_555 1_555
C30A N14A 1_555 1_555
C31A C30A 1_555 1_555
H28A C31A 1_555 1_555
H29A C31A 1_555 1_555
H30A C31A 1_555 1_555
C32A N14A 1_555 1_555
H31A C32A 1_555 1_555
H32A C32A 1_555 1_555
C33A C32A 1_555 1_555
H33A C33A 1_555 1_555
H34A C33A 1_555 1_555
C34A N15A 1_555 1_555
H35A C34A 1_555 1_555
H36A C34A 1_555 1_555
C35A N15A 1_555 1_555
H37A C35A 1_555 1_555
H38A C35A 1_555 1_555
C36A C35A 1_555 1_555
H39A C36A 1_555 1_555
H40A C36A 1_555 1_555
C37A N16A 1_555 1_555
H41A C37A 1_555 1_555
H42A C37A 1_555 1_555
C38A N16A 1_555 1_555
C39A C38A 1_555 1_555
H43A C39A 1_555 1_555
H44A C39A 1_555 1_555
H45A C39A 1_555 1_555
C57A N17A 1_555 1_555
Ni3A N19A 1_555 1_555
N19A C41A 1_555 1_555
N20A Ni3A 1_555 1_555
N21A Ni3A 1_555 1_555
N22A Ni3A 1_555 1_555
H3A N22A 1_555 1_555
N23A Ni3A 1_555 1_555
C41A Cr3 1_555 1_555
C42A N20A 1_555 1_555
C43A C42A 1_555 1_555
H46A C43A 1_555 1_555
C44A C43A 1_555 1_555
H47A C44A 1_555 1_555
C45A C44A 1_555 1_555
H48A C45A 1_555 1_555
C46A N20A 1_555 1_555
C47A N21A 1_555 1_555
C48A C47A 1_555 1_555
H49A C48A 1_555 1_555
H50A C48A 1_555 1_555
H51A C48A 1_555 1_555
C49A N21A 1_555 1_555
H52A C49A 1_555 1_555
H53A C49A 1_555 1_555
C50A C49A 1_555 1_555
H54A C50A 1_555 1_555
H55A C50A 1_555 1_555
C51A N22A 1_555 1_555
H56A C51A 1_555 1_555
H57A C51A 1_555 1_555
C52A N22A 1_555 1_555
H58A C52A 1_555 1_555
H59A C52A 1_555 1_555
C53A C52A 1_555 1_555
H60A C53A 1_555 1_555
H61A C53A 1_555 1_555
C54A N23A 1_555 1_555
H62A C54A 1_555 1_555
H63A C54A 1_555 1_555
C55A N23A 1_555 1_555
C56A C55A 1_555 1_555
H64A C56A 1_555 1_555
H65A C56A 1_555 1_555
H66A C56A 1_555 1_555
N18A C40A 1_555 1_555
C40A Cr3 1_555 1_555
Cr3_2 C57A 1_555 1_555
Ni3_2 N24 1_555 1_555
Ni3A_2 N24A 1_555 1_555
N24_2 Ni3 1_555 1_555
N24A_2 Ni3A 1_555 1_555
C57A_2 Cr3 1_555 1_555
N17 C57 1_555 1_555
C7 C20 1_555 1_555
C10 C11 1_555 1_555
C11 C12 1_555 1_555
C15 C16 1_555 1_555
C18 C19 1_555 1_555
C25 C38 1_555 1_555
C28 C29 1_555 1_555
C29 C30 1_555 1_555
C33 C34 1_555 1_555
C36 C37 1_555 1_555
C42 C55 1_555 1_555
C45 C46 1_555 1_555
C46 C47 1_555 1_555
C50 C51 1_555 1_555
C53 C54 1_555 1_555
N10A C22A 1_555 1_555
C7A C20A 1_555 1_555
C10A C11A 1_555 1_555
C11A C12A 1_555 1_555
C15A C16A 1_555 1_555
C18A C19A 1_555 1_555
C25A C38A 1_555 1_555
C28A C29A 1_555 1_555
C29A C30A 1_555 1_555
C33A C34A 1_555 1_555
C36A C37A 1_555 1_555
C42A C55A 1_555 1_555
C45A C46A 1_555 1_555
C46A C47A 1_555 1_555
C50A C51A 1_555 1_555
C53A C54A 1_555 1_555

#END
