
#######################################################################
#
#                 Cambridge Crystallographic Data Centre
#                                CCDC 
#
#######################################################################
#
# If this CIF has been generated from an entry in the Cambridge 
# Structural Database, then it will include bibliographic, chemical, 
# crystal, experimental, refinement or atomic coordinate data resulting 
# from the CCDC's data processing and validation procedures.
#
#######################################################################

data_CIXDAP
_symmetry_cell_setting           monoclinic
_symmetry_space_group_name_H-M   'P 21/n'
_symmetry_Int_Tables_number      14
_space_group_name_Hall           '-P 2yn'
loop_
_symmetry_equiv_pos_site_id
_symmetry_equiv_pos_as_xyz
1 x,y,z
2 1/2-x,1/2+y,1/2-z
3 -x,-y,-z
4 1/2+x,1/2-y,1/2+z
_cell_length_a                   12.3784(16)
_cell_length_b                   5.9718(8)
_cell_length_c                   15.209(2)
_cell_angle_alpha                90
_cell_angle_beta                 91.924(2)
_cell_angle_gamma                90
_cell_volume                     1123.64
loop_
_atom_site_label
_atom_site_type_symbol
_atom_site_fract_x
_atom_site_fract_y
_atom_site_fract_z
Cu1 Cu 0.5000 0.5000 0.5000
Cu2 Cu 0.13525(2) -0.05674(5) 0.36060(2)
V1 V 0.76709(3) 0.29365(7) 0.45348(3)
V2 V 0.89147(3) 0.80022(7) 0.42543(3)
O1 O 0.63568(14) 0.3016(3) 0.44016(14)
O2 O 0.20015(15) -0.2790(3) 0.43951(13)
O3 O 0.81790(15) 0.5476(3) 0.40571(13)
O4 O 0.81386(15) 0.0485(3) 0.39874(13)
O5 O 0.07050(15) 0.1873(3) 0.47157(13)
O6 O -0.00121(14) -0.2053(3) 0.36043(13)
N1 N 0.39308(17) 0.3153(4) 0.42944(15)
N2 N 0.32417(17) 0.1474(4) 0.43966(15)
N3 N 0.27118(17) 0.1213(4) 0.36326(15)
N4 N 0.30341(17) 0.2682(4) 0.30263(15)
N5 N 0.50092(17) 0.6713(4) 0.38354(15)
N6 N 0.43553(17) 0.6457(4) 0.23494(15)
C1 C 0.3789(2) 0.3853(5) 0.34635(18)
C2 C 0.4406(2) 0.5776(5) 0.31835(17)
C3 C 0.4944(2) 0.8259(5) 0.2152(2)
H1 H 0.4921 0.8804 0.1579
C4 C 0.5583(3) 0.9318(5) 0.2782(2)
H2 H 0.5987 1.0571 0.2639
C5 C 0.5614(2) 0.8494(5) 0.3628(2)
H3 H 0.6056 0.9172 0.4058
Cu2B Cu 0.86475(2) 1.05674(5) 0.63940(2)
Cu2A Cu 0.36475(2) 0.44326(5) 0.13940(2)
Cu2C Cu 0.63525(2) 0.55674(5) 0.86060(2)
Cu2B_2 Cu 0.86475(2) 0.05674(5) 0.63940(2)
V1B V 0.23291(3) 0.70635(7) 0.54652(3)
V1B_2 V 0.23291(3) -0.29365(7) 0.54652(3)
V2B V 0.10853(3) 0.19978(7) 0.57457(3)
V2_2 V 0.89147(3) -0.19978(7) 0.42543(3)
V2_3 V -0.10853(3) -0.19978(7) 0.42543(3)
V2B_2 V 1.10853(3) 1.19978(7) 0.57457(3)
V2B_3 V 0.10853(3) 1.19978(7) 0.57457(3)
O1B O 0.36432(14) 0.6984(3) 0.55984(14)
O2B O 0.79985(15) 0.2790(3) 0.56049(13)
O2B_2 O 0.79985(15) 1.2790(3) 0.56049(13)
O2_2 O 0.20015(15) 0.7210(3) 0.43951(13)
O3B O 0.18210(15) 0.4524(3) 0.59429(13)
O4B O 0.18614(15) 0.9515(3) 0.60126(13)
O4_2 O 0.81386(15) 1.0485(3) 0.39874(13)
O4B_2 O 0.18614(15) -0.0485(3) 0.60126(13)
O5B O 0.92950(15) 0.8127(3) 0.52843(13)
O6B O 1.00121(14) 1.2053(3) 0.63957(13)
O6_2 O 0.99879(14) 0.7947(3) 0.36043(13)
O6B_2 O 0.00121(14) 0.2053(3) 0.63957(13)
N1B N 0.60692(17) 0.6847(4) 0.57056(15)
N2B N 0.67583(17) 0.8526(4) 0.56034(15)
N3B N 0.72882(17) 0.8787(4) 0.63674(15)
N4B N 0.69659(17) 0.7318(4) 0.69737(15)
N5B N 0.49908(17) 0.3287(4) 0.61646(15)
N6B N 0.56447(17) 0.3543(4) 0.76506(15)
N6A N 0.06447(17) 0.1457(4) 0.26506(15)
N6C N 0.93553(17) 0.8543(4) 0.73494(15)
C1B C 0.6211(2) 0.6147(5) 0.65365(18)
C2B C 0.5594(2) 0.4224(5) 0.68165(17)
C3B C 0.5056(2) 0.1741(5) 0.7848(2)
H1B H 0.5079 0.1196 0.8421
C4B C 0.4417(3) 0.0682(5) 0.7218(2)
H2B H 0.4013 -0.0571 0.7361
C5B C 0.4386(2) 0.1506(5) 0.6372(2)
H3B H 0.3944 0.0828 0.5942
loop_
_geom_bond_atom_site_label_1
_geom_bond_atom_site_label_2
_geom_bond_site_symmetry_1
_geom_bond_site_symmetry_2
Cu1 O1 1_555 1_555
Cu2 O2 1_555 1_555
V1 O1 1_555 1_555
V2 O3 1_555 1_555
O2 V1B_2 1_555 1_555
O3 V1 1_555 1_555
O4 V1 1_555 1_555
O5 Cu2 1_555 1_555
O6 Cu2 1_555 1_555
N1 Cu1 1_555 1_555
N2 N1 1_555 1_555
N3 Cu2 1_555 1_555
N4 N3 1_555 1_555
N5 Cu1 1_555 1_555
N6 C2 1_555 1_555
C1 N1 1_555 1_555
C2 N5 1_555 1_555
C3 N6 1_555 1_555
H1 C3 1_555 1_555
C4 C3 1_555 1_555
H2 C4 1_555 1_555
C5 N5 1_555 1_555
H3 C5 1_555 1_555
Cu2B O2B_2 1_555 1_555
Cu2A N6 1_555 1_555
Cu2C N6B 1_555 1_555
Cu2B_2 O2B 1_555 1_555
V1B O1B 1_555 1_555
V1B_2 O4B_2 1_555 1_555
V2B O5 1_555 1_555
V2_2 O4 1_555 1_555
V2_3 O6 1_555 1_555
V2B_2 O6B 1_555 1_555
V2B_3 O4B 1_555 1_555
O1B Cu1 1_555 1_555
O2B V1 1_555 1_555
O2_2 V1B 1_555 1_555
O3B V1B 1_555 1_555
O4B V1B 1_555 1_555
O4_2 V2 1_555 1_555
O4B_2 V2B 1_555 1_555
O5B V2 1_555 1_555
O6B Cu2B 1_555 1_555
O6_2 V2 1_555 1_555
O6B_2 V2B 1_555 1_555
N1B Cu1 1_555 1_555
N2B N1B 1_555 1_555
N3B Cu2B 1_555 1_555
N4B N3B 1_555 1_555
N5B Cu1 1_555 1_555
N6B C2B 1_555 1_555
N6A Cu2 1_555 1_555
N6C Cu2B 1_555 1_555
C1B N1B 1_555 1_555
C2B N5B 1_555 1_555
C3B N6B 1_555 1_555
H1B C3B 1_555 1_555
C4B C3B 1_555 1_555
H2B C4B 1_555 1_555
C5B N5B 1_555 1_555
H3B C5B 1_555 1_555
N2 N3 1_555 1_555
N4 C1 1_555 1_555
C1 C2 1_555 1_555
C4 C5 1_555 1_555
Cu2B O5B 1_555 1_555
V2B O3B 1_555 1_555
N2B N3B 1_555 1_555
N4B C1B 1_555 1_555
C1B C2B 1_555 1_555
C4B C5B 1_555 1_555

#END
