
#######################################################################
#
#                 Cambridge Crystallographic Data Centre
#                                CCDC 
#
#######################################################################
#
# If this CIF has been generated from an entry in the Cambridge 
# Structural Database, then it will include bibliographic, chemical, 
# crystal, experimental, refinement or atomic coordinate data resulting 
# from the CCDC's data processing and validation procedures.
#
#######################################################################

data_CIXDAO01
_symmetry_cell_setting           monoclinic
_symmetry_space_group_name_H-M   'P 21/n'
_symmetry_Int_Tables_number      14
_space_group_name_Hall           '-P 2yn'
loop_
_symmetry_equiv_pos_site_id
_symmetry_equiv_pos_as_xyz
1 x,y,z
2 1/2+x,1/2-y,1/2+z
3 -x,-y,-z
4 1/2-x,1/2+y,1/2-z
_cell_length_a                   13.5709(13)
_cell_length_b                   6.7141(9)
_cell_length_c                   22.7232(17)
_cell_angle_alpha                90
_cell_angle_beta                 99.705(14)
_cell_angle_gamma                90
_cell_volume                     2040.82
loop_
_atom_site_label
_atom_site_type_symbol
_atom_site_fract_x
_atom_site_fract_y
_atom_site_fract_z
Gd1 Gd 0.329182(15) 0.16314(3) 0.228658(9)
O1 O 0.2366(2) -0.0024(4) 0.30522(12)
O2 O 0.1935(2) 0.3037(4) 0.28161(13)
O3 O 0.1087(2) 0.5227(5) 0.35564(15)
O4 O 0.4719(2) 0.3581(5) 0.20600(14)
O5 O 0.5342(3) 0.2229(6) 0.13081(18)
H1 H 0.5134 0.1181 0.1426
O6 O 0.5534(3) 0.6665(6) 0.2568(2)
H2 H 0.5274 0.5567 0.2579
O7 O 0.1799(2) 0.1231(5) 0.16143(14)
O8 O 0.1004(2) -0.1471(5) 0.18406(14)
O9 O 0.0748(3) 0.3979(6) 0.0975(2)
H3 H 0.1272 0.3528 0.1159
O10 O 0.4713(2) 0.0065(6) 0.28546(16)
H4 H 0.476(3) 0.030(6) 0.3280(11)
H5 H 0.506(4) -0.118(5) 0.290(2)
C1 C 0.1983(3) 0.1617(7) 0.31813(18)
C2 C 0.1641(3) 0.1862(7) 0.37656(18)
C3 C 0.1196(3) 0.3617(7) 0.3909(2)
C4 C 0.0844(4) 0.3693(8) 0.4458(2)
H6 H 0.0546 0.4851 0.4568
C5 C 0.0938(4) 0.2081(8) 0.4833(2)
H7 H 0.0695 0.2159 0.5191
C6 C 0.1388(4) 0.0332(9) 0.4688(2)
H8 H 0.1457 -0.0756 0.4945
C7 C 0.1724(3) 0.0261(7) 0.4159(2)
H9 H 0.2022 -0.0906 0.4055
C8 C 0.5345(3) 0.3554(7) 0.1702(2)
C9 C 0.6121(4) 0.5118(8) 0.1755(2)
C10 C 0.6156(4) 0.6637(9) 0.2170(2)
C11 C 0.6838(5) 0.8123(10) 0.2171(3)
H10 H 0.6845 0.9194 0.2431
C12 C 0.7526(5) 0.8032(12) 0.1781(3)
H11 H 0.7994 0.9047 0.1790
C13 C 0.7537(5) 0.6512(12) 0.1388(3)
H12 H 0.8015 0.6463 0.1139
C14 C 0.6806(5) 0.5012(12) 0.1367(3)
H13 H 0.6783 0.3967 0.1096
C15 C 0.1065(3) 0.0052(7) 0.15349(17)
C16 C 0.0227(4) 0.0540(7) 0.1046(2)
C17 C 0.0104(4) 0.2458(8) 0.0794(2)
C18 C -0.0710(4) 0.2848(10) 0.0361(2)
H14 H -0.0801 0.4133 0.0209
C19 C -0.1383(4) 0.1425(11) 0.0149(2)
H15 H -0.1920 0.1722 -0.0150
C20 C -0.1259(4) -0.0489(11) 0.0385(3)
H16 H -0.1712 -0.1486 0.0243
C21 C -0.0468(4) -0.0904(9) 0.0828(3)
H17 H -0.0397 -0.2184 0.0986
O1C O 0.2634(2) 0.4976(4) 0.19478(12)
O2C O 0.3065(2) -0.1963(4) 0.21839(13)
O3C O 0.3913(2) 0.0227(5) 0.14436(15)
O8C O 0.3996(2) 0.3529(5) 0.31594(14)
Gd1C Gd 0.170818(15) -0.33686(3) 0.271342(9)
Gd1C_2 Gd 0.170818(15) 0.66314(3) 0.271342(9)
loop_
_geom_bond_atom_site_label_1
_geom_bond_atom_site_label_2
_geom_bond_site_symmetry_1
_geom_bond_site_symmetry_2
Gd1 O1 1_555 1_555
O1 C1 1_555 1_555
O2 Gd1 1_555 1_555
O3 C3 1_555 1_555
O4 Gd1 1_555 1_555
O5 H1 1_555 1_555
O6 H2 1_555 1_555
O7 Gd1 1_555 1_555
O8 C15 1_555 1_555
O9 H3 1_555 1_555
O10 Gd1 1_555 1_555
H4 O10 1_555 1_555
H5 O10 1_555 1_555
C1 O2 1_555 1_555
C2 C1 1_555 1_555
C3 C2 1_555 1_555
C4 C3 1_555 1_555
H6 C4 1_555 1_555
C5 C4 1_555 1_555
H7 C5 1_555 1_555
C6 C5 1_555 1_555
H8 C6 1_555 1_555
C7 C2 1_555 1_555
H9 C7 1_555 1_555
C8 O4 1_555 1_555
C9 C8 1_555 1_555
C10 O6 1_555 1_555
C11 C10 1_555 1_555
H10 C11 1_555 1_555
C12 C11 1_555 1_555
H11 C12 1_555 1_555
C13 C12 1_555 1_555
H12 C13 1_555 1_555
C14 C9 1_555 1_555
H13 C14 1_555 1_555
C15 O7 1_555 1_555
C16 C15 1_555 1_555
C17 O9 1_555 1_555
C18 C17 1_555 1_555
H14 C18 1_555 1_555
C19 C18 1_555 1_555
H15 C19 1_555 1_555
C20 C19 1_555 1_555
H16 C20 1_555 1_555
C21 C16 1_555 1_555
H17 C21 1_555 1_555
O1C Gd1 1_555 1_555
O2C Gd1 1_555 1_555
O3C Gd1 1_555 1_555
O8C Gd1 1_555 1_555
Gd1C O1 1_555 1_555
Gd1C_2 O2 1_555 1_555
O3 Gd1C_2 1_555 1_555
O5 C8 1_555 1_555
O8 Gd1C 1_555 1_555
C6 C7 1_555 1_555
C9 C10 1_555 1_555
C13 C14 1_555 1_555
C16 C17 1_555 1_555
C20 C21 1_555 1_555
O1C Gd1C_2 1_555 1_555
O2C Gd1C 1_555 1_555

#END
