
#######################################################################
#
#                 Cambridge Crystallographic Data Centre
#                                CCDC 
#
#######################################################################
#
# If this CIF has been generated from an entry in the Cambridge 
# Structural Database, then it will include bibliographic, chemical, 
# crystal, experimental, refinement or atomic coordinate data resulting 
# from the CCDC's data processing and validation procedures.
#
#######################################################################

data_CIXFAR
_symmetry_cell_setting           orthorhombic
_symmetry_space_group_name_H-M   'F d d d'
_symmetry_Int_Tables_number      70
_space_group_name_Hall           '-F 2uv 2vw'
loop_
_symmetry_equiv_pos_site_id
_symmetry_equiv_pos_as_xyz
1 x,y,z
2 x,1/2+y,1/2+z
3 x,1/4-y,1/4-z
4 1/2+x,y,1/2+z
5 1/4-x,y,1/4-z
6 1/2+x,1/2+y,z
7 1/4-x,1/4-y,z
8 3/4-x,3/4-y,z
9 3/4-x,y,3/4-z
10 x,3/4-y,3/4-z
11 3/4-x,1/4-y,1/2+z
12 3/4-x,1/2+y,1/4-z
13 1/4-x,3/4-y,1/2+z
14 1/2+x,3/4-y,1/4-z
15 1/4-x,1/2+y,3/4-z
16 1/2+x,1/4-y,3/4-z
17 -x,-y,-z
18 -x,1/2-y,1/2-z
19 -x,3/4+y,3/4+z
20 1/2-x,-y,1/2-z
21 3/4+x,-y,3/4+z
22 1/2-x,1/2-y,-z
23 3/4+x,3/4+y,-z
24 1/4+x,1/4+y,-z
25 1/4+x,-y,1/4+z
26 -x,1/4+y,1/4+z
27 1/4+x,3/4+y,1/2-z
28 1/4+x,1/2-y,3/4+z
29 3/4+x,1/4+y,1/2-z
30 1/2-x,1/4+y,3/4+z
31 3/4+x,1/2-y,1/4+z
32 1/2-x,3/4+y,1/4+z
_cell_length_a                   7.1213(5)
_cell_length_b                   25.8933(17)
_cell_length_c                   43.629(3)
_cell_angle_alpha                90
_cell_angle_beta                 90
_cell_angle_gamma                90
_cell_volume                     8044.92
loop_
_atom_site_label
_atom_site_type_symbol
_atom_site_fract_x
_atom_site_fract_y
_atom_site_fract_z
C10 C 0.2947(6) 0.09812(15) 0.12494(10)
C11 C 0.1250(6) 0.07330(15) 0.12500(10)
C10B C 0.2947(6) 0.15188(15) 0.12506(10)
C10F C -0.0447(6) 0.15188(15) 0.12494(10)
C10D C -0.0447(6) 0.09812(15) 0.12506(10)
C11B C 0.1250(6) 0.17670(15) 0.12500(10)
In1 In 1.1250 -0.11497(2) 0.1250
C1 C 0.8882(9) -0.2027(2) 0.08688(13)
C2 C 0.9352(8) -0.2483(2) 0.06742(13)
C3 C 1.1083(9) -0.2719(2) 0.07195(14)
H1 H 1.1886 -0.2596 0.0871
C4 C 1.1621(8) -0.3135(2) 0.05415(14)
H2 H 1.2762 -0.3299 0.0579
C5 C 1.0465(8) -0.3310(2) 0.03077(12)
C6 C 0.8742(9) -0.3071(2) 0.02636(13)
H3 H 0.7964 -0.3182 0.0106
C7 C 0.8160(8) -0.2670(2) 0.04514(14)
H4 H 0.6971 -0.2527 0.0427
C8 C 1.1250 -0.3750 0.01043(17)
C9 C 0.9752(11) -0.3999(3) -0.01070(16)
F1 F 0.9151(7) -0.36795(18) -0.03265(9)
F2 F 0.8244(6) -0.41491(16) 0.00530(11)
F3 F 1.0418(7) -0.44181(17) -0.02470(10)
O1 O 1.3750 -0.1250 0.10086(12)
O2 O 1.0211(6) -0.17518(18) 0.09536(13)
O3 O 0.7172(6) -0.19464(15) 0.09377(10)
H5 H 1.3750 -0.1250 0.0816
In1G In 1.6250 -0.13503(2) 0.1250
In1G_2 In 0.6250 -0.13503(2) 0.1250
In1B In 1.1250 -0.63503(2) 0.1250
In1E In 1.6250 -0.61497(2) 0.1250
C1F C 1.3618(9) -0.5473(2) 0.08688(13)
C2F C 1.3148(8) -0.5017(2) 0.06742(13)
C3F C 1.1417(9) -0.4781(2) 0.07195(14)
H1F H 1.0614 -0.4904 0.0871
C4F C 1.0879(8) -0.4365(2) 0.05415(14)
H2F H 0.9738 -0.4201 0.0579
C5F C 1.2035(8) -0.4190(2) 0.03077(12)
C6F C 1.3758(9) -0.4429(2) 0.02636(13)
H3F H 1.4536 -0.4318 0.0106
C7F C 1.4340(8) -0.4830(2) 0.04514(14)
H4F H 1.5529 -0.4973 0.0427
C9F C 1.2748(11) -0.3501(3) -0.01070(16)
F1F F 1.3349(7) -0.38205(18) -0.03265(9)
F2F F 1.4256(6) -0.33509(16) 0.00530(11)
F3F F 1.2082(7) -0.30819(17) -0.02470(10)
O1D O 0.8750 -0.1250 0.14914(12)
O2F O 1.2289(6) -0.57482(18) 0.09536(13)
O2D O 1.2289(6) -0.17518(18) 0.15464(13)
O3F O 1.5328(6) -0.55536(15) 0.09377(10)
O3G O 1.0328(6) -0.05536(15) 0.09377(10)
O3M O 1.2172(6) -0.05536(15) 0.15623(10)
H5D H 0.8750 -0.1250 0.1684
loop_
_geom_bond_atom_site_label_1
_geom_bond_atom_site_label_2
_geom_bond_site_symmetry_1
_geom_bond_site_symmetry_2
In1 O1 1_555 1_555
C1 C2 1_555 1_555
C2 C3 1_555 1_555
C3 H1 1_555 1_555
C4 C3 1_555 1_555
H2 C4 1_555 1_555
C5 C4 1_555 1_555
C6 C5 1_555 1_555
H3 C6 1_555 1_555
C7 C2 1_555 1_555
H4 C7 1_555 1_555
C8 C5 1_555 1_555
C9 C8 1_555 1_555
F1 C9 1_555 1_555
F2 C9 1_555 1_555
F3 C9 1_555 1_555
O1 H5 1_555 1_555
O2 In1 1_555 1_555
O3 C1 1_555 1_555
C10 C11 1_555 1_555
C11 C10D 1_555 1_555
In1G O1 1_555 1_555
In1G_2 O3 1_555 1_555
In1B O2F 1_555 1_555
In1E O3F 1_555 1_555
C1F C2F 1_555 1_555
C2F C3F 1_555 1_555
C3F H1F 1_555 1_555
C4F C3F 1_555 1_555
H2F C4F 1_555 1_555
C5F C8 1_555 1_555
C6F C5F 1_555 1_555
H3F C6F 1_555 1_555
C7F C2F 1_555 1_555
H4F C7F 1_555 1_555
C9F C8 1_555 1_555
F1F C9F 1_555 1_555
F2F C9F 1_555 1_555
F3F C9F 1_555 1_555
O1D In1 1_555 1_555
O2F C1F 1_555 1_555
O2D In1 1_555 1_555
O3F C1F 1_555 1_555
O3G In1 1_555 1_555
O3M In1 1_555 1_555
H5D O1D 1_555 1_555
C10B C10 1_555 1_555
C10F C10D 1_555 1_555
C11B C10B 1_555 1_555
C1 O2 1_555 1_555
C6 C7 1_555 1_555
In1G_2 O1D 1_555 1_555
C4F C5F 1_555 1_555
C6F C7F 1_555 1_555
C10F C11B 1_555 1_555

#END
