
#######################################################################
#
#                 Cambridge Crystallographic Data Centre
#                                CCDC 
#
#######################################################################
#
# If this CIF has been generated from an entry in the Cambridge 
# Structural Database, then it will include bibliographic, chemical, 
# crystal, experimental, refinement or atomic coordinate data resulting 
# from the CCDC's data processing and validation procedures.
#
#######################################################################

data_CIXNED
_symmetry_cell_setting           monoclinic
_symmetry_space_group_name_H-M   'C 2/c'
_symmetry_Int_Tables_number      15
_space_group_name_Hall           '-C 2yn'
loop_
_symmetry_equiv_pos_site_id
_symmetry_equiv_pos_as_xyz
1 x,y,z
2 1/2+x,1/2+y,z
3 -x,y,1/2-z
4 1/2-x,1/2+y,1/2-z
5 -x,-y,-z
6 1/2-x,1/2-y,-z
7 x,-y,1/2+z
8 1/2+x,1/2-y,1/2+z
_cell_length_a                   28.286(10)
_cell_length_b                   17.758(10)
_cell_length_c                   20.480(10)
_cell_angle_alpha                90
_cell_angle_beta                 114.618(11)
_cell_angle_gamma                90
_cell_volume                     9352.11
loop_
_atom_site_label
_atom_site_type_symbol
_atom_site_fract_x
_atom_site_fract_y
_atom_site_fract_z
Zn1 Zn 0.09533(2) 0.70738(4) 1.01564(3)
Fe1 Fe 0.16545(4) 0.61682(5) 1.37121(4)
Fe2 Fe -0.04297(4) 0.92420(7) 1.09577(6)
O1 O 0.13283(19) 0.8318(3) 1.0739(2)
O2 O 0.13064(17) 0.7223(3) 1.1221(2)
O3 O 0.2315(2) 0.6637(3) 1.2457(3)
O4 O 0.02412(16) 0.7473(2) 0.9695(2)
O5 O 0.0348(2) 0.7680(4) 0.8720(3)
O6 O -0.0847(2) 0.7449(3) 0.9942(3)
N1 N 0.14673(18) 0.7001(3) 0.9713(2)
N2 N 0.18430(19) 0.7032(3) 0.8958(2)
N3 N 0.08331(19) 0.5177(3) 0.5719(2)
N4 N 0.08443(17) 0.4062(3) 0.5243(2)
C1 C 0.1433(2) 0.7903(4) 1.1271(3)
C2 C 0.1728(2) 0.8230(4) 1.2023(3)
C3 C 0.1769(3) 0.9000(4) 1.2101(4)
H1 H 0.1630 0.9306 1.1696
C4 C 0.2013(3) 0.9323(4) 1.2768(4)
H2 H 0.2037 0.9844 1.2814
C5 C 0.2217(3) 0.8881(4) 1.3358(4)
H3 H 0.2376 0.9100 1.3810
C6 C 0.2191(3) 0.8113(4) 1.3293(3)
H4 H 0.2334 0.7812 1.3700
C7 C 0.1948(2) 0.7781(3) 1.2614(3)
C8 C 0.1976(3) 0.6934(4) 1.2575(3)
C9 C 0.1594(2) 0.6496(4) 1.2727(3)
C10 C 0.1578(3) 0.5692(4) 1.2779(3)
H5 H 0.1823 0.5338 1.2719
C11 C 0.1147(3) 0.5497(5) 1.2929(4)
H6 H 0.1041 0.4987 1.2991
C12 C 0.0905(3) 0.6162(5) 1.2968(4)
H7 H 0.0599 0.6198 1.3077
C13 C 0.1173(2) 0.6787(4) 1.2850(3)
H8 H 0.1084 0.7319 1.2854
C14 C 0.1961(3) 0.6826(5) 1.4586(3)
H9 H 0.1926 0.7374 1.4598
C15 C 0.1627(3) 0.6286(6) 1.4674(3)
H10 H 0.1316 0.6390 1.4757
C16 C 0.1822(4) 0.5586(6) 1.4633(4)
H11 H 0.1669 0.5102 1.4673
C17 C 0.2265(4) 0.5679(5) 1.4527(4)
H12 H 0.2480 0.5271 1.4474
C18 C 0.2354(3) 0.6442(5) 1.4491(3)
H13 H 0.2645 0.6668 1.4422
C19 C 0.0099(3) 0.7736(4) 0.9087(4)
C20 C -0.0409(2) 0.8163(4) 0.8771(3)
C21 C -0.0578(3) 0.8440(4) 0.8072(4)
H14 H -0.0369 0.8379 0.7825
C22 C -0.1062(3) 0.8811(5) 0.7735(5)
H15 H -0.1165 0.9021 0.7280
C23 C -0.1373(3) 0.8855(4) 0.8091(5)
H16 H -0.1703 0.9065 0.7865
C24 C -0.1205(3) 0.8593(4) 0.8778(4)
H17 H -0.1419 0.8640 0.9018
C25 C -0.0725(3) 0.8259(4) 0.9120(3)
C26 C -0.0603(3) 0.7972(4) 0.9868(4)
C27 C -0.0223(3) 0.8383(5) 1.0488(4)
C28 C 0.0056(3) 0.9045(5) 1.0462(5)
H18 H 0.0050 0.9295 1.0032
C29 C 0.0350(4) 0.9261(9) 1.1189(7)
H19 H 0.0571 0.9709 1.1341
C30 C 0.0259(5) 0.8782(9) 1.1642(7)
H20 H 0.0411 0.8818 1.2167
C31 C -0.0090(4) 0.8210(7) 1.1221(5)
H21 H -0.0217 0.7781 1.1404
C32 C -0.1208(3) 0.9361(7) 1.0514(7)
H22 H -0.1458 0.9023 1.0161
C33 C -0.1026(5) 0.9306(7) 1.1270(8)
H23 H -0.1123 0.8918 1.1531
C34 C -0.0693(5) 0.9869(8) 1.1564(6)
H24 H -0.0504 0.9966 1.2080
C35 C -0.0667(4) 1.0302(5) 1.1019(9)
H25 H -0.0456 1.0757 1.1087
C36 C -0.0983(4) 0.9989(7) 1.0363(6)
H26 H -0.1045 1.0182 0.9886
C37 C 0.1426(2) 0.7210(3) 0.9082(3)
H27 H 0.1137 0.7458 0.8749
C38 C 0.1956(2) 0.6661(3) 1.0038(3)
C39 C 0.2209(2) 0.6349(3) 1.0724(3)
H28 H 0.2057 0.6345 1.1050
C40 C 0.2696(3) 0.6047(4) 1.0893(4)
H29 H 0.2870 0.5818 1.1338
C41 C 0.2934(3) 0.6072(4) 1.0425(4)
H30 H 0.3268 0.5876 1.0567
C42 C 0.2686(3) 0.6382(4) 0.9752(4)
H31 H 0.2844 0.6397 0.9435
C43 C 0.2191(2) 0.6673(3) 0.9563(3)
C44 C 0.1891(3) 0.7154(4) 0.8282(3)
H32 H 0.2254 0.7239 0.8385
H33 H 0.1699 0.7605 0.8055
C45 C 0.1690(3) 0.6501(4) 0.7760(3)
H34 H 0.1923 0.6075 0.7945
H35 H 0.1351 0.6352 0.7726
C46 C 0.1650(3) 0.6692(4) 0.7043(3)
H36 H 0.1981 0.6897 0.7094
H37 H 0.1393 0.7089 0.6849
C47 C 0.1505(3) 0.6060(4) 0.6497(3)
H38 H 0.1545 0.6237 0.6075
H39 H 0.1746 0.5647 0.6699
C48 C 0.0960(2) 0.5768(3) 0.6270(3)
H40 H 0.0922 0.5568 0.6686
H41 H 0.0717 0.6182 0.6081
C49 C 0.0983(2) 0.4449(3) 0.5827(3)
H42 H 0.1169 0.4245 0.6281
C50 C 0.0562(2) 0.5268(3) 0.4984(3)
C51 C 0.0298(2) 0.5879(3) 0.4567(3)
H43 H 0.0289 0.6347 0.4766
C52 C 0.0055(3) 0.5745(4) 0.3849(3)
H44 H -0.0138 0.6130 0.3547
C53 C 0.0084(3) 0.5063(4) 0.3556(4)
H45 H -0.0075 0.5014 0.3059
C54 C 0.0338(2) 0.4444(4) 0.3958(3)
H46 H 0.0345 0.3982 0.3750
C55 C 0.0580(2) 0.4560(3) 0.4692(3)
Zn1F Zn 0.09533(2) 0.29262(4) 0.51564(3)
N4F N 0.08443(17) 0.5938(3) 1.0243(2)
loop_
_geom_bond_atom_site_label_1
_geom_bond_atom_site_label_2
_geom_bond_site_symmetry_1
_geom_bond_site_symmetry_2
Zn1 O2 1_555 1_555
Fe1 C9 1_555 1_555
Fe2 C27 1_555 1_555
O1 C1 1_555 1_555
O2 C1 1_555 1_555
O3 C8 1_555 1_555
O4 Zn1 1_555 1_555
O5 C19 1_555 1_555
O6 C26 1_555 1_555
N1 Zn1 1_555 1_555
N2 C37 1_555 1_555
N3 C48 1_555 1_555
N4 C49 1_555 1_555
C1 C2 1_555 1_555
C2 C3 1_555 1_555
C3 H1 1_555 1_555
C4 C3 1_555 1_555
H2 C4 1_555 1_555
C5 C4 1_555 1_555
H3 C5 1_555 1_555
C6 C5 1_555 1_555
H4 C6 1_555 1_555
C7 C2 1_555 1_555
C8 C7 1_555 1_555
C9 C8 1_555 1_555
C10 Fe1 1_555 1_555
H5 C10 1_555 1_555
C11 Fe1 1_555 1_555
H6 C11 1_555 1_555
C12 Fe1 1_555 1_555
H7 C12 1_555 1_555
C13 Fe1 1_555 1_555
H8 C13 1_555 1_555
C14 Fe1 1_555 1_555
H9 C14 1_555 1_555
C15 Fe1 1_555 1_555
H10 C15 1_555 1_555
C16 Fe1 1_555 1_555
H11 C16 1_555 1_555
C17 Fe1 1_555 1_555
H12 C17 1_555 1_555
C18 Fe1 1_555 1_555
H13 C18 1_555 1_555
C19 O4 1_555 1_555
C20 C19 1_555 1_555
C21 C20 1_555 1_555
H14 C21 1_555 1_555
C22 C21 1_555 1_555
H15 C22 1_555 1_555
C23 C22 1_555 1_555
H16 C23 1_555 1_555
C24 C23 1_555 1_555
H17 C24 1_555 1_555
C25 C20 1_555 1_555
C26 C25 1_555 1_555
C27 C26 1_555 1_555
C28 Fe2 1_555 1_555
H18 C28 1_555 1_555
C29 Fe2 1_555 1_555
H19 C29 1_555 1_555
C30 Fe2 1_555 1_555
H20 C30 1_555 1_555
C31 Fe2 1_555 1_555
H21 C31 1_555 1_555
C32 Fe2 1_555 1_555
H22 C32 1_555 1_555
C33 Fe2 1_555 1_555
H23 C33 1_555 1_555
C34 Fe2 1_555 1_555
H24 C34 1_555 1_555
C35 Fe2 1_555 1_555
H25 C35 1_555 1_555
C36 Fe2 1_555 1_555
H26 C36 1_555 1_555
C37 N1 1_555 1_555
H27 C37 1_555 1_555
C38 N1 1_555 1_555
C39 C38 1_555 1_555
H28 C39 1_555 1_555
C40 C39 1_555 1_555
H29 C40 1_555 1_555
C41 C40 1_555 1_555
H30 C41 1_555 1_555
C42 C41 1_555 1_555
H31 C42 1_555 1_555
C43 N2 1_555 1_555
C44 N2 1_555 1_555
H32 C44 1_555 1_555
H33 C44 1_555 1_555
C45 C44 1_555 1_555
H34 C45 1_555 1_555
H35 C45 1_555 1_555
C46 C45 1_555 1_555
H36 C46 1_555 1_555
H37 C46 1_555 1_555
C47 C46 1_555 1_555
H38 C47 1_555 1_555
H39 C47 1_555 1_555
C48 C47 1_555 1_555
H40 C48 1_555 1_555
H41 C48 1_555 1_555
C49 N3 1_555 1_555
H42 C49 1_555 1_555
C50 N3 1_555 1_555
C51 C50 1_555 1_555
H43 C51 1_555 1_555
C52 C51 1_555 1_555
H44 C52 1_555 1_555
C53 C52 1_555 1_555
H45 C53 1_555 1_555
C54 C53 1_555 1_555
H46 C54 1_555 1_555
C55 N4 1_555 1_555
Zn1F N4 1_555 1_555
N4F Zn1 1_555 1_555
C6 C7 1_555 1_555
C9 C10 1_555 1_555
C9 C13 1_555 1_555
C10 C11 1_555 1_555
C11 C12 1_555 1_555
C12 C13 1_555 1_555
C14 C15 1_555 1_555
C14 C18 1_555 1_555
C15 C16 1_555 1_555
C16 C17 1_555 1_555
C17 C18 1_555 1_555
C24 C25 1_555 1_555
C27 C28 1_555 1_555
C27 C31 1_555 1_555
C28 C29 1_555 1_555
C29 C30 1_555 1_555
C30 C31 1_555 1_555
C32 C33 1_555 1_555
C32 C36 1_555 1_555
C33 C34 1_555 1_555
C34 C35 1_555 1_555
C35 C36 1_555 1_555
C38 C43 1_555 1_555
C42 C43 1_555 1_555
C50 C55 1_555 1_555
C54 C55 1_555 1_555

#END
