
#######################################################################
#
#                 Cambridge Crystallographic Data Centre
#                                CCDC 
#
#######################################################################
#
# If this CIF has been generated from an entry in the Cambridge 
# Structural Database, then it will include bibliographic, chemical, 
# crystal, experimental, refinement or atomic coordinate data resulting 
# from the CCDC's data processing and validation procedures.
#
#######################################################################

data_CIXNUT
_symmetry_cell_setting           triclinic
_symmetry_space_group_name_H-M   'P -1'
_symmetry_Int_Tables_number      2
_space_group_name_Hall           '-P 1'
loop_
_symmetry_equiv_pos_site_id
_symmetry_equiv_pos_as_xyz
1 x,y,z
2 -x,-y,-z
_cell_length_a                   6.7480(13)
_cell_length_b                   9.3680(19)
_cell_length_c                   9.918(2)
_cell_angle_alpha                75.83(3)
_cell_angle_beta                 72.96(3)
_cell_angle_gamma                82.61(3)
_cell_volume                     580.111
loop_
_atom_site_label
_atom_site_type_symbol
_atom_site_fract_x
_atom_site_fract_y
_atom_site_fract_z
Ca1 Ca 0.33851(8) 0.83758(5) 1.01812(6)
Ca2 Ca 0.62646(9) 0.18700(6) 1.40182(6)
O1 O 0.3752(3) 0.55159(17) 1.1701(2)
O2 O 0.3741(3) 0.31024(18) 1.1913(2)
O3 O -0.4001(3) 0.70427(19) 1.3489(2)
N1 N -0.1002(3) 0.39385(17) 1.47247(19)
O4 O -0.1973(3) 0.88310(18) 1.4846(2)
O5 O -0.3523(3) 0.48334(18) 1.2956(2)
O6 O 0.0267(3) 0.85982(18) 1.2752(2)
N2 N 0.0914(2) 0.61014(17) 1.02613(18)
O7 O 0.2562(3) 0.13293(18) 1.0174(2)
C1 C 0.1037(3) 0.1925(2) 1.0884(2)
C2 C 0.0547(3) 0.35710(18) 1.0438(2)
C3 C -0.0429(3) 0.64422(19) 1.4555(2)
C4 C -0.0821(3) 0.8095(2) 1.4053(2)
C5 C -0.3128(3) 0.5808(2) 1.3508(2)
C6 C 0.1472(3) 0.46881(19) 1.0708(2)
C7 C -0.1443(3) 0.5377(2) 1.4279(2)
C8 C 0.3114(3) 0.4361(2) 1.1512(2)
O8 O -0.0361(3) 0.12867(19) 1.1921(3)
O9 O 0.5036(4) 1.0017(3) 0.7342(3)
H1 H 0.604(8) 0.980(5) 0.721(5)
H2 H 0.476(6) 1.082(5) 0.731(4)
Ca1A Ca -0.33851(8) 0.16242(5) 0.98188(6)
Ca1A_2 Ca 0.66149(8) 0.16242(5) 0.98188(6)
Ca1_2 Ca 0.33851(8) -0.16242(5) 1.01812(6)
Ca1_3 Ca -0.66149(8) 0.83758(5) 1.01812(6)
Ca1A_3 Ca -0.33851(8) 1.16242(5) 0.98188(6)
Ca1A_4 Ca -0.33851(8) 0.16242(5) 1.98188(6)
Ca2A Ca -0.62646(9) 0.81300(6) 0.59818(6)
Ca2A_2 Ca -0.62646(9) 0.81300(6) 1.59818(6)
Ca2_2 Ca -0.37354(9) 0.18700(6) 1.40182(6)
Ca2_3 Ca -0.37354(9) 1.18700(6) 1.40182(6)
Ca2A_3 Ca 0.37354(9) 0.81300(6) 0.59818(6)
Ca2A_4 Ca 0.37354(9) -0.18700(6) 1.59818(6)
Ca2A_5 Ca 0.37354(9) 0.81300(6) 1.59818(6)
O1A O -0.3752(3) 0.44841(17) 0.8299(2)
O2A O -0.3741(3) 0.68976(18) 0.8087(2)
O2A_2 O 0.6259(3) 0.68976(18) 0.8087(2)
O2_2 O -0.6259(3) 0.31024(18) 1.1913(2)
O3A O 0.4001(3) 0.29573(19) 1.6511(2)
O3_2 O -0.4001(3) 0.70427(19) 0.3489(2)
N1A N 0.1002(3) 0.60615(17) 1.52753(19)
N1_2 N 0.8998(3) 0.39385(17) 1.47247(19)
N1A_2 N -0.8998(3) 0.60615(17) 0.52753(19)
O4A O 0.1973(3) 0.11690(18) 1.5154(2)
O4_2 O 0.8027(3) -0.11690(18) 1.4846(2)
O4_3 O -0.1973(3) 0.88310(18) 0.4846(2)
O4A_2 O -0.8027(3) 1.11690(18) 0.5154(2)
O5A O 0.3523(3) 0.51666(18) 1.7044(2)
O5_2 O 0.6477(3) 0.48334(18) 1.2956(2)
O5A_2 O -0.6477(3) 0.51666(18) 0.7044(2)
O6A O -0.0267(3) 0.14018(18) 1.7248(2)
O6A_2 O -0.0267(3) 0.14018(18) 0.7248(2)
N2A N -0.0914(2) 0.38986(17) 0.97387(18)
O7A O -0.2562(3) 0.86707(18) 0.9826(2)
O7_2 O 0.2562(3) 1.13293(18) 1.0174(2)
O7A_2 O 0.7438(3) 0.86707(18) 0.9826(2)
O7_3 O -0.7438(3) 0.13293(18) 1.0174(2)
O7A_3 O -0.2562(3) -0.13293(18) 0.9826(2)
C1A C -0.1037(3) 0.8075(2) 0.9116(2)
C2A C -0.0547(3) 0.64290(18) 0.9562(2)
C3A C 0.0429(3) 0.35578(19) 1.5445(2)
C4A C 0.0821(3) 0.1905(2) 1.5947(2)
C5A C 0.3128(3) 0.4192(2) 1.6492(2)
C6A C -0.1472(3) 0.53119(19) 0.9292(2)
C7A C 0.1443(3) 0.4623(2) 1.5721(2)
C8A C -0.3114(3) 0.5639(2) 0.8488(2)
O8A O 0.0361(3) 0.87133(19) 0.8079(3)
O8_2 O 0.9639(3) 0.12867(19) 1.1921(3)
O8A_2 O -0.9639(3) 0.87133(19) 0.8079(3)
O9A O 0.4964(4) -0.0017(3) 1.2658(3)
O9A_2 O -0.5036(4) -0.0017(3) 1.2658(3)
O9_2 O -0.4964(4) 1.0017(3) 0.7342(3)
H1A H 0.396(8) 0.020(5) 1.279(5)
H1A_2 H -0.604(8) 0.020(5) 1.279(5)
H1_2 H -0.396(8) 0.980(5) 0.721(5)
H2A H 0.524(6) -0.082(5) 1.269(4)
H2A_2 H -0.476(6) -0.082(5) 1.269(4)
H2_2 H -0.524(6) 1.082(5) 0.731(4)
loop_
_geom_bond_atom_site_label_1
_geom_bond_atom_site_label_2
_geom_bond_site_symmetry_1
_geom_bond_site_symmetry_2
Ca1 O1 1_555 1_555
Ca2 O2 1_555 1_555
O1 C8 1_555 1_555
O2 C8 1_555 1_555
O3 C5 1_555 1_555
N1 C7 1_555 1_555
O4 C4 1_555 1_555
O5 C5 1_555 1_555
O6 Ca1 1_555 1_555
N2 Ca1 1_555 1_555
O7 C1 1_555 1_555
C1 C2 1_555 1_555
C2 C6 1_555 1_555
C3 C4 1_555 1_555
C4 O6 1_555 1_555
C5 C7 1_555 1_555
C6 N2 1_555 1_555
C7 C3 1_555 1_555
C8 C6 1_555 1_555
O8 C1 1_555 1_555
O9 Ca1 1_555 1_555
H1 O9 1_555 1_555
H2 O9 1_555 1_555
Ca1A O1A 1_555 1_555
Ca1A_2 O2 1_555 1_555
Ca1_2 O7 1_555 1_555
Ca1_3 O2A 1_555 1_555
Ca1A_3 O7A 1_555 1_555
Ca1A_4 O6A 1_555 1_555
Ca2A O2A 1_555 1_555
Ca2A_2 O3 1_555 1_555
Ca2_2 N1 1_555 1_555
Ca2_3 O4 1_555 1_555
Ca2A_3 O9 1_555 1_555
Ca2A_4 O4A 1_555 1_555
Ca2A_5 N1A 1_555 1_555
O1A C8A 1_555 1_555
O2A C8A 1_555 1_555
O2A_2 Ca1 1_555 1_555
O2_2 Ca1A 1_555 1_555
O3A Ca2 1_555 1_555
O3_2 Ca2A 1_555 1_555
N1A C3 1_555 1_555
N1_2 Ca2 1_555 1_555
N1A_2 Ca2A 1_555 1_555
O4A Ca2 1_555 1_555
O4_2 Ca2 1_555 1_555
O4_3 Ca2A 1_555 1_555
O4A_2 Ca2A 1_555 1_555
O5A Ca2A_5 1_555 1_555
O5_2 Ca2 1_555 1_555
O5A_2 Ca2A 1_555 1_555
O6A C4A 1_555 1_555
O6A_2 Ca1A 1_555 1_555
N2A C2 1_555 1_555
O7A Ca1_3 1_555 1_555
O7_2 Ca1 1_555 1_555
O7A_2 Ca1 1_555 1_555
O7_3 Ca1A 1_555 1_555
O7A_3 Ca1A 1_555 1_555
C1A O7A 1_555 1_555
C2A N2 1_555 1_555
C3A N1 1_555 1_555
C4A O4A 1_555 1_555
C5A O3A 1_555 1_555
C6A N2A 1_555 1_555
C7A N1A 1_555 1_555
C8A C6A 1_555 1_555
O8A Ca2A_3 1_555 1_555
O8_2 Ca2 1_555 1_555
O8A_2 Ca2A 1_555 1_555
O9A Ca2 1_555 1_555
O9A_2 Ca1A 1_555 1_555
O9_2 Ca1_3 1_555 1_555
H1A O9A 1_555 1_555
H1A_2 O9A_2 1_555 1_555
H1_2 O9_2 1_555 1_555
H2A O9A 1_555 1_555
H2A_2 O9A_2 1_555 1_555
H2_2 O9_2 1_555 1_555
O4 Ca2A_2 1_555 1_555
O5 Ca2_2 1_555 1_555
O7 Ca1A_2 1_555 1_555
O8 Ca2_2 1_555 1_555
Ca1A N2A 1_555 1_555
Ca1A_2 O9A 1_555 1_555
Ca2A O9_2 1_555 1_555
Ca2_2 O2_2 1_555 1_555
Ca2_2 O9A_2 1_555 1_555
Ca2A_3 O2A_2 1_555 1_555
Ca2A_4 O4_2 1_555 1_555
O5A C5A 1_555 1_555
C1A C2A 1_555 1_555
C1A O8A 1_555 1_555
C2A C6A 1_555 1_555
C3A C4A 1_555 1_555
C3A C7A 1_555 1_555
C5A C7A 1_555 1_555

#END
