
#######################################################################
#
#                 Cambridge Crystallographic Data Centre
#                                CCDC 
#
#######################################################################
#
# If this CIF has been generated from an entry in the Cambridge 
# Structural Database, then it will include bibliographic, chemical, 
# crystal, experimental, refinement or atomic coordinate data resulting 
# from the CCDC's data processing and validation procedures.
#
#######################################################################

data_CIXNAZ
_symmetry_cell_setting           monoclinic
_symmetry_space_group_name_H-M   'P 21/c'
_symmetry_Int_Tables_number      14
_space_group_name_Hall           '-P 2ybc'
loop_
_symmetry_equiv_pos_site_id
_symmetry_equiv_pos_as_xyz
1 x,y,z
2 -x,1/2+y,1/2-z
3 -x,-y,-z
4 x,1/2-y,1/2+z
_cell_length_a                   7.811(2)
_cell_length_b                   12.324(3)
_cell_length_c                   15.794(4)
_cell_angle_alpha                90
_cell_angle_beta                 98.206(4)
_cell_angle_gamma                90
_cell_volume                     1504.81
loop_
_atom_site_label
_atom_site_type_symbol
_atom_site_fract_x
_atom_site_fract_y
_atom_site_fract_z
Zn1 Zn 0.50404(5) 0.81623(4) 0.24691(3)
N1 N 1.0432(4) 0.6493(3) 0.02758(19)
N2 N 0.3110(4) 0.8808(3) 0.1586(2)
O1 O 0.6201(3) 0.7407(3) 0.15991(18)
O2 O 0.7860(4) 0.7027(3) 0.27771(19)
O3 O 1.3766(3) 0.4243(2) 0.17556(17)
O4 O 1.3273(3) 0.5133(2) 0.29119(17)
O5 O 0.3860(3) 0.7276(2) 0.32562(17)
H1 H 0.3696 0.6602 0.3164
H2 H 0.2874 0.7503 0.3345
C1 C 0.9053(4) 0.6820(3) 0.0631(2)
C2 C 0.8976(4) 0.6633(3) 0.1501(2)
C3 C 1.0330(4) 0.6065(3) 0.1954(2)
H5 H 1.0321 0.5942 0.2534
C4 C 1.1700(4) 0.5672(3) 0.1579(2)
C5 C 1.1732(5) 0.5927(3) 0.0726(2)
C6 C 0.7688(5) 0.7405(4) 0.0033(3)
H6 H 0.8024 0.7431 -0.0528
H7 H 0.7561 0.8130 0.0237
H8 H 0.6608 0.7026 0.0009
C7 C 0.7596(5) 0.7044(3) 0.1993(3)
C8 C 1.3021(5) 0.4984(3) 0.2130(3)
C9 C 1.3207(5) 0.5668(4) 0.0247(3)
H9 H 1.2941 0.5922 -0.0331
H10 H 1.3386 0.4898 0.0247
H11 H 1.4237 0.6020 0.0519
C10 C 0.1531(5) 0.9064(3) 0.1741(2)
H12 H 0.1251 0.8927 0.2284
C11 C 0.0289(5) 0.9520(3) 0.1140(2)
H13 H -0.0799 0.9676 0.1282
C12 C 0.0648(4) 0.9747(3) 0.0327(2)
C13 C 0.2284(5) 0.9465(4) 0.0162(3)
H14 H 0.2595 0.9591 -0.0376
C14 C 0.3444(5) 0.9003(4) 0.0789(3)
H15 H 0.4526 0.8812 0.0656
Zn1B Zn -0.50404(5) 1.18377(4) -0.24691(3)
Zn1A Zn 1.49596(5) 0.31623(4) 0.25309(3)
Zn1A_2 Zn 1.49596(5) 1.31623(4) 0.25309(3)
N1A N 0.9568(4) 1.1493(3) 0.47242(19)
N2B N -0.3110(4) 1.1192(3) -0.1586(2)
O1A O 1.3799(3) 1.2407(3) 0.34009(18)
O1B O -0.6201(3) 1.2593(3) -0.15991(18)
O2A O 1.2140(4) 1.2027(3) 0.22229(19)
O3A O 0.6234(3) 0.9243(2) 0.32444(17)
O3C O -0.6234(3) 1.0757(2) -0.32444(17)
O4A O 0.6727(3) 1.0133(2) 0.20881(17)
O5B O -0.3860(3) 1.2724(2) -0.32562(17)
H1B H -0.3696 1.3398 -0.3164
H2B H -0.2874 1.2497 -0.3345
C1A C 1.0947(4) 1.1820(3) 0.4369(2)
C2A C 1.1024(4) 1.1633(3) 0.3499(2)
C3A C 0.9670(4) 1.1065(3) 0.3046(2)
H5A H 0.9679 1.0942 0.2466
C4A C 0.8300(4) 1.0672(3) 0.3421(2)
C5A C 0.8268(5) 1.0927(3) 0.4274(2)
C6A C 1.2312(5) 1.2405(4) 0.4967(3)
H6A H 1.1976 1.2431 0.5528
H7A H 1.2439 1.3130 0.4763
H8A H 1.3392 1.2026 0.4991
C7A C 1.2404(5) 1.2044(3) 0.3007(3)
C8A C 0.6979(5) 0.9984(3) 0.2870(3)
C9A C 0.6793(5) 1.0668(4) 0.4753(3)
H9A H 0.7059 1.0922 0.5331
H10A H 0.6614 0.9898 0.4753
H11A H 0.5763 1.1020 0.4481
C10B C -0.1531(5) 1.0936(3) -0.1741(2)
H12B H -0.1251 1.1073 -0.2284
C11B C -0.0289(5) 1.0480(3) -0.1140(2)
H13B H 0.0799 1.0324 -0.1282
C12B C -0.0648(4) 1.0253(3) -0.0327(2)
C13B C -0.2284(5) 1.0535(4) -0.0162(3)
H14B H -0.2595 1.0409 0.0376
C14B C -0.3444(5) 1.0997(4) -0.0789(3)
H15B H -0.4526 1.1188 -0.0656
O6 O 0.0861(4) 0.7921(3) 0.36171(19)
H3 H 0.0707 0.8088 0.4123
H4 H -0.0056 0.7616 0.3374
loop_
_geom_bond_atom_site_label_1
_geom_bond_atom_site_label_2
_geom_bond_site_symmetry_1
_geom_bond_site_symmetry_2
Zn1 N2 1_555 1_555
N1 C1 1_555 1_555
N2 C10 1_555 1_555
O1 Zn1 1_555 1_555
O2 C7 1_555 1_555
O3 C8 1_555 1_555
O4 C8 1_555 1_555
O5 Zn1 1_555 1_555
H1 O5 1_555 1_555
H2 O5 1_555 1_555
O6 H3 1_555 1_555
H4 O6 1_555 1_555
C1 C2 1_555 1_555
C2 C3 1_555 1_555
C3 H5 1_555 1_555
C4 C3 1_555 1_555
C5 N1 1_555 1_555
C6 C1 1_555 1_555
H6 C6 1_555 1_555
H7 C6 1_555 1_555
H8 C6 1_555 1_555
C7 O1 1_555 1_555
C8 C4 1_555 1_555
C9 C5 1_555 1_555
H9 C9 1_555 1_555
H10 C9 1_555 1_555
H11 C9 1_555 1_555
C10 H12 1_555 1_555
C11 C10 1_555 1_555
H13 C11 1_555 1_555
C12 C11 1_555 1_555
C13 C12 1_555 1_555
H14 C13 1_555 1_555
C14 N2 1_555 1_555
H15 C14 1_555 1_555
Zn1B N2B 1_555 1_555
Zn1A O3 1_555 1_555
Zn1A_2 O1A 1_555 1_555
N1A C1A 1_555 1_555
N2B C10B 1_555 1_555
O1A C7A 1_555 1_555
O1B Zn1B 1_555 1_555
O2A C7A 1_555 1_555
O3A Zn1 1_555 1_555
O3C Zn1B 1_555 1_555
O4A C8A 1_555 1_555
O5B Zn1B 1_555 1_555
H1B O5B 1_555 1_555
H2B O5B 1_555 1_555
C1A C2A 1_555 1_555
C2A C3A 1_555 1_555
C3A H5A 1_555 1_555
C4A C3A 1_555 1_555
C5A N1A 1_555 1_555
C6A C1A 1_555 1_555
H6A C6A 1_555 1_555
H7A C6A 1_555 1_555
H8A C6A 1_555 1_555
C7A C2A 1_555 1_555
C8A O3A 1_555 1_555
C9A C5A 1_555 1_555
H9A C9A 1_555 1_555
H10A C9A 1_555 1_555
H11A C9A 1_555 1_555
C10B H12B 1_555 1_555
C11B C10B 1_555 1_555
H13B C11B 1_555 1_555
C12B C12 1_555 1_555
C13B C12B 1_555 1_555
H14B C13B 1_555 1_555
C14B N2B 1_555 1_555
H15B C14B 1_555 1_555
C2 C7 1_555 1_555
C4 C5 1_555 1_555
C13 C14 1_555 1_555
C4A C5A 1_555 1_555
C4A C8A 1_555 1_555
C11B C12B 1_555 1_555
C13B C14B 1_555 1_555

#END
