
#######################################################################
#
#                 Cambridge Crystallographic Data Centre
#                                CCDC 
#
#######################################################################
#
# If this CIF has been generated from an entry in the Cambridge 
# Structural Database, then it will include bibliographic, chemical, 
# crystal, experimental, refinement or atomic coordinate data resulting 
# from the CCDC's data processing and validation procedures.
#
#######################################################################

data_CIXPAB
_symmetry_cell_setting           monoclinic
_symmetry_space_group_name_H-M   'P 21/c'
_symmetry_Int_Tables_number      14
_space_group_name_Hall           '-P 2ybc'
loop_
_symmetry_equiv_pos_site_id
_symmetry_equiv_pos_as_xyz
1 x,y,z
2 -x,1/2+y,1/2-z
3 -x,-y,-z
4 x,1/2-y,1/2+z
_cell_length_a                   11.344(3)
_cell_length_b                   15.880(4)
_cell_length_c                   23.436(5)
_cell_angle_alpha                90
_cell_angle_beta                 117.831(10)
_cell_angle_gamma                90
_cell_volume                     3733.48
loop_
_atom_site_label
_atom_site_type_symbol
_atom_site_fract_x
_atom_site_fract_y
_atom_site_fract_z
Co1 Co 0.13640(6) 0.35704(4) 0.17796(3)
C1 C 0.2793(5) 0.3235(3) 0.2952(3)
C2 C 0.3726(5) 0.3049(3) 0.3643(3)
C3 C 0.3812(5) 0.2228(3) 0.3877(3)
H1 H 0.3257 0.1809 0.3609
C4 C 0.4727(6) 0.2041(3) 0.4510(3)
C5 C 0.4841(6) 0.1153(4) 0.4737(3)
C6 C 0.5568(6) 0.2659(3) 0.4917(3)
H2 H 0.6194 0.2527 0.5337
C7 C 0.5459(6) 0.3481(3) 0.4686(3)
C8 C 0.6394(6) 0.4135(4) 0.5123(3)
C9 C 0.4548(5) 0.3664(3) 0.4046(3)
H3 H 0.4496 0.4209 0.3891
C10 C 0.0205(5) 0.2276(3) 0.0735(2)
C11 C -0.0838(5) 0.2109(3) 0.0046(3)
C12 C -0.0965(6) 0.1326(3) -0.0239(3)
H4 H -0.0406 0.0889 -0.0002
C13 C -0.1917(6) 0.1188(4) -0.0875(3)
C14 C -0.2043(7) 0.0344(4) -0.1173(3)
C15 C -0.2748(6) 0.1826(4) -0.1234(3)
H5 H -0.3381 0.1733 -0.1659
C16 C -0.2633(5) 0.2620(4) -0.0953(3)
C17 C -0.3533(6) 0.3328(4) -0.1298(3)
C18 C -0.1677(5) 0.2748(3) -0.0314(3)
H6 H -0.1604 0.3275 -0.0128
C19 C 0.3782(6) 0.2801(4) 0.1728(3)
H7 H 0.3362 0.2302 0.1735
C20 C 0.5033(6) 0.2755(4) 0.1778(3)
H8 H 0.5442 0.2234 0.1823
C21 C 0.5686(5) 0.3476(3) 0.1759(3)
C22 C 0.4997(7) 0.4222(4) 0.1668(4)
H9 H 0.5373 0.4729 0.1635
C23 C 0.3744(6) 0.4208(4) 0.1626(4)
H10 H 0.3296 0.4718 0.1563
C24 C 0.7048(5) 0.3466(3) 0.1835(3)
C25 C 0.7621(6) 0.2757(3) 0.1717(3)
H11 H 0.7162 0.2249 0.1611
C26 C 0.7846(6) 0.4190(4) 0.2031(3)
H12 H 0.7539 0.4675 0.2140
C27 C 0.1280(6) 0.5498(4) 0.1767(3)
H13 H 0.2026 0.5432 0.2167
C28 C 0.0766(7) 0.6294(4) 0.1592(3)
H14 H 0.1158 0.6744 0.1872
C29 C -0.0327(6) 0.6425(3) 0.1005(3)
C30 C -0.0805(8) 0.5741(4) 0.0622(3)
H15 H -0.1516 0.5800 0.0210
C31 C -0.0245(8) 0.4949(4) 0.0837(3)
H16 H -0.0617 0.4489 0.0566
C32 C -0.1219(8) 0.8707(4) 0.1024(4)
H17 H -0.0977 0.9145 0.1321
C33 C -0.0612(7) 0.7947(4) 0.1231(3)
H18 H 0.0026 0.7877 0.1659
C34 C -0.0947(6) 0.7272(4) 0.0800(3)
C35 C -0.1887(7) 0.7437(4) 0.0172(3)
H19 H -0.2132 0.7018 -0.0139
C36 C -0.2463(7) 0.8222(4) 0.0009(4)
H20 H -0.3116 0.8311 -0.0414
N1 N 0.3134(4) 0.3523(3) 0.1670(2)
N2 N 0.0794(4) 0.4822(3) 0.1411(2)
N3 N -0.2134(6) 0.8858(3) 0.0422(3)
O1 O 0.2229(4) 0.2646(2) 0.25559(17)
O2 O 0.2584(4) 0.3986(2) 0.27647(18)
O3 O 0.6332(5) 0.4844(3) 0.4831(2)
H21 H 0.6832 0.5188 0.5094
O4 O 0.7106(6) 0.4010(3) 0.5687(2)
O5 O 0.5820(6) 0.0978(3) 0.5284(2)
H22 H 0.5761 0.0488 0.5377
O6 O 0.4004(5) 0.0623(3) 0.4388(2)
O7 O 0.0282(4) 0.3023(2) 0.09152(18)
O8 O 0.0903(4) 0.1697(3) 0.10873(19)
O9 O -0.1142(8) -0.0168(3) -0.0824(3)
H23 H -0.0924 -0.0453 -0.1051
O10 O -0.2907(6) 0.0161(4) -0.1689(3)
O11 O -0.4376(5) 0.3139(3) -0.1907(2)
H24 H -0.4872 0.3540 -0.2077
O12 O -0.3527(5) 0.3990(3) -0.1053(2)
C37 C 0.8868(6) 0.2812(4) 0.1759(3)
H25 H 0.9226 0.2327 0.1678
N4 N 0.9594(4) 0.3507(3) 0.1908(2)
C38 C 0.9085(6) 0.4179(4) 0.2060(3)
H26 H 0.9598 0.4667 0.2194
Co1_2 Co 1.13640(6) 0.35704(4) 0.17796(3)
N4_2 N -0.0406(4) 0.3507(3) 0.1908(2)
O13 O 0.3353(5) 0.1055(3) 0.2581(2)
H27 H 0.329(9) 0.066(4) 0.234(4)
H28 H 0.281(7) 0.147(4) 0.251(4)
loop_
_geom_bond_atom_site_label_1
_geom_bond_atom_site_label_2
_geom_bond_site_symmetry_1
_geom_bond_site_symmetry_2
Co1 N1 1_555 1_555
C1 C2 1_555 1_555
C2 C3 1_555 1_555
C3 H1 1_555 1_555
C4 C3 1_555 1_555
C5 C4 1_555 1_555
C6 C4 1_555 1_555
H2 C6 1_555 1_555
C7 C6 1_555 1_555
C8 C7 1_555 1_555
C9 C2 1_555 1_555
H3 C9 1_555 1_555
C10 C11 1_555 1_555
C11 C12 1_555 1_555
C12 H4 1_555 1_555
C13 C12 1_555 1_555
C14 C13 1_555 1_555
C15 C13 1_555 1_555
H5 C15 1_555 1_555
C16 C15 1_555 1_555
C17 C16 1_555 1_555
C18 C11 1_555 1_555
H6 C18 1_555 1_555
C19 H7 1_555 1_555
C20 C19 1_555 1_555
H8 C20 1_555 1_555
C21 C20 1_555 1_555
C22 C21 1_555 1_555
H9 C22 1_555 1_555
C23 C22 1_555 1_555
H10 C23 1_555 1_555
C24 C21 1_555 1_555
C25 C24 1_555 1_555
H11 C25 1_555 1_555
C26 C24 1_555 1_555
H12 C26 1_555 1_555
C27 H13 1_555 1_555
C28 C27 1_555 1_555
H14 C28 1_555 1_555
C29 C28 1_555 1_555
C30 C29 1_555 1_555
H15 C30 1_555 1_555
C31 C30 1_555 1_555
H16 C31 1_555 1_555
C32 H17 1_555 1_555
C33 C32 1_555 1_555
H18 C33 1_555 1_555
C34 C29 1_555 1_555
C35 C34 1_555 1_555
H19 C35 1_555 1_555
C36 C35 1_555 1_555
H20 C36 1_555 1_555
N1 C19 1_555 1_555
N2 Co1 1_555 1_555
N3 C32 1_555 1_555
O1 Co1 1_555 1_555
O2 Co1 1_555 1_555
O3 C8 1_555 1_555
H21 O3 1_555 1_555
O4 C8 1_555 1_555
O5 C5 1_555 1_555
H22 O5 1_555 1_555
O6 C5 1_555 1_555
O7 Co1 1_555 1_555
O8 C10 1_555 1_555
O9 C14 1_555 1_555
H23 O9 1_555 1_555
O10 C14 1_555 1_555
O11 C17 1_555 1_555
H24 O11 1_555 1_555
O12 C17 1_555 1_555
C37 C25 1_555 1_555
H25 C37 1_555 1_555
N4 C37 1_555 1_555
C38 C26 1_555 1_555
H26 C38 1_555 1_555
O13 H27 1_555 1_555
H28 O13 1_555 1_555
Co1_2 N4 1_555 1_555
N4_2 Co1 1_555 1_555
C1 O1 1_555 1_555
C1 O2 1_555 1_555
C7 C9 1_555 1_555
C10 O7 1_555 1_555
C16 C18 1_555 1_555
C23 N1 1_555 1_555
C27 N2 1_555 1_555
C31 N2 1_555 1_555
C33 C34 1_555 1_555
C36 N3 1_555 1_555
N4 C38 1_555 1_555

#END
