
#######################################################################
#
#                 Cambridge Crystallographic Data Centre
#                                CCDC 
#
#######################################################################
#
# If this CIF has been generated from an entry in the Cambridge 
# Structural Database, then it will include bibliographic, chemical, 
# crystal, experimental, refinement or atomic coordinate data resulting 
# from the CCDC's data processing and validation procedures.
#
#######################################################################

data_CIXQAC
_symmetry_cell_setting           triclinic
_symmetry_space_group_name_H-M   'P -1'
_symmetry_Int_Tables_number      2
_space_group_name_Hall           '-P 1'
loop_
_symmetry_equiv_pos_site_id
_symmetry_equiv_pos_as_xyz
1 x,y,z
2 -x,-y,-z
_cell_length_a                   10.3790(19)
_cell_length_b                   12.194(2)
_cell_length_c                   12.519(2)
_cell_angle_alpha                111.281(3)
_cell_angle_beta                 99.076(3)
_cell_angle_gamma                91.411(3)
_cell_volume                     1452.12
loop_
_atom_site_label
_atom_site_type_symbol
_atom_site_fract_x
_atom_site_fract_y
_atom_site_fract_z
Au1 Au 0.95012(4) -0.02512(4) 0.23080(3)
Au2 Au 1.0000 0.0000 0.0000
Au3 Au 1.0000 0.0000 0.5000
Ni1 Ni 0.65448(11) 0.30649(10) 0.23290(10)
O1 O 0.4921(6) 0.2532(6) 0.2854(6)
H1 H 0.4240 0.2294 0.2328
H2 H 0.4900 0.2389 0.3491
N1 N 0.7574(8) 0.1705(8) 0.2533(7)
N2 N 1.1493(11) -0.2175(10) 0.1929(10)
N3 N 1.2445(10) 0.1781(10) 0.1375(8)
N4 N 0.727(2) -0.1318(19) 0.4622(17)
N5 N 0.7269(7) 0.4334(7) 0.3984(6)
N6 N 0.8231(7) 0.3761(7) 0.2001(6)
N7 N 0.5775(8) 0.2127(7) 0.0575(7)
N8 N 0.5363(7) 0.4318(7) 0.1938(7)
C1 C 0.8247(10) 0.0993(9) 0.2490(8)
C2 C 1.0724(13) -0.1488(11) 0.2070(10)
C3 C 1.1523(11) 0.1125(11) 0.0873(9)
C4 C 0.8215(19) -0.0843(19) 0.4735(13)
C5 C 0.6812(10) 0.4612(9) 0.4972(8)
H3 H 0.6139 0.4116 0.5007
C6 C 0.7289(12) 0.5611(11) 0.5962(9)
H4 H 0.6917 0.5784 0.6627
C7 C 0.8312(12) 0.6338(10) 0.5947(9)
H5 H 0.8646 0.7002 0.6604
C8 C 0.8847(10) 0.6066(9) 0.4929(9)
C9 C 0.9911(11) 0.6773(10) 0.4823(11)
H6 H 1.0264 0.7463 0.5443
C10 C 1.0405(11) 0.6435(12) 0.3812(11)
H7 H 1.1118 0.6884 0.3770
C11 C 0.9869(10) 0.5433(10) 0.2842(9)
C12 C 1.0392(10) 0.5038(12) 0.1816(11)
H8 H 1.1098 0.5466 0.1732
C13 C 0.9840(11) 0.4005(11) 0.0933(10)
H9 H 1.0191 0.3711 0.0255
C14 C 0.8765(10) 0.3406(10) 0.1058(9)
H10 H 0.8398 0.2716 0.0445
C15 C 0.8798(9) 0.4733(8) 0.2898(8)
C16 C 0.8276(9) 0.5065(8) 0.3974(8)
C17 C 0.6046(11) 0.1085(9) -0.0114(9)
H11 H 0.6677 0.0687 0.0177
C18 C 0.5399(14) 0.0557(11) -0.1289(10)
H12 H 0.5629 -0.0165 -0.1769
C19 C 0.4454(12) 0.1100(11) -0.1709(10)
H13 H 0.4013 0.0749 -0.2474
C20 C 0.4142(10) 0.2183(10) -0.0998(9)
C21 C 0.3150(12) 0.2817(13) -0.1389(11)
H14 H 0.2655 0.2467 -0.2133
C22 C 0.2920(11) 0.3898(12) -0.0711(10)
H15 H 0.2261 0.4282 -0.0989
C23 C 0.3659(10) 0.4467(10) 0.0418(10)
C24 C 0.3533(11) 0.5634(11) 0.1166(11)
H16 H 0.2936 0.6087 0.0919
C25 C 0.4275(12) 0.6087(11) 0.2233(11)
H17 H 0.4187 0.6849 0.2735
C26 C 0.5188(10) 0.5394(10) 0.2581(9)
H18 H 0.5701 0.5727 0.3320
C27 C 0.4610(9) 0.3839(10) 0.0843(8)
C28 C 0.4840(9) 0.2673(9) 0.0116(8)
Au1A Au 1.04988(4) 0.02512(4) -0.23080(3)
Au1A_2 Au 1.04988(4) 0.02512(4) 0.76920(3)
Au3_2 Au 1.0000 0.0000 -0.5000
Ni1A Ni 1.34552(11) -0.30649(10) -0.23290(10)
O1A O 1.5079(6) -0.2532(6) -0.2854(6)
H1A H 1.5760 -0.2294 -0.2328
H2A H 1.5100 -0.2389 -0.3491
N1A N 1.2426(8) -0.1705(8) -0.2533(7)
N2A N 0.8507(11) 0.2175(10) -0.1929(10)
N3A N 0.7555(10) -0.1781(10) -0.1375(8)
N4A N 1.273(2) 0.1318(19) 0.5378(17)
N5A N 1.2731(7) -0.4334(7) -0.3984(6)
N6A N 1.1769(7) -0.3761(7) -0.2001(6)
N7A N 1.4225(8) -0.2127(7) -0.0575(7)
N8A N 1.4637(7) -0.4318(7) -0.1938(7)
C1A C 1.1753(10) -0.0993(9) -0.2490(8)
C2A C 0.9276(13) 0.1488(11) -0.2070(10)
C3A C 0.8477(11) -0.1125(11) -0.0873(9)
C4A C 1.1785(19) 0.0843(19) 0.5265(13)
C5A C 1.3188(10) -0.4612(9) -0.4972(8)
H3A H 1.3861 -0.4116 -0.5007
C6A C 1.2711(12) -0.5611(11) -0.5962(9)
H4A H 1.3083 -0.5784 -0.6627
C7A C 1.1688(12) -0.6338(10) -0.5947(9)
H5A H 1.1354 -0.7002 -0.6604
C8A C 1.1153(10) -0.6066(9) -0.4929(9)
C9A C 1.0089(11) -0.6773(10) -0.4823(11)
H6A H 0.9736 -0.7463 -0.5443
C10A C 0.9595(11) -0.6435(12) -0.3812(11)
H7A H 0.8882 -0.6884 -0.3770
C11A C 1.0131(10) -0.5433(10) -0.2842(9)
C12A C 0.9608(10) -0.5038(12) -0.1816(11)
H8A H 0.8902 -0.5466 -0.1732
C13A C 1.0160(11) -0.4005(11) -0.0933(10)
H9A H 0.9809 -0.3711 -0.0255
C14A C 1.1235(10) -0.3406(10) -0.1058(9)
H10A H 1.1602 -0.2716 -0.0445
C15A C 1.1202(9) -0.4733(8) -0.2898(8)
C16A C 1.1724(9) -0.5065(8) -0.3974(8)
C17A C 1.3954(11) -0.1085(9) 0.0114(9)
H11A H 1.3323 -0.0687 -0.0177
C18A C 1.4601(14) -0.0557(11) 0.1289(10)
H12A H 1.4371 0.0165 0.1769
C19A C 1.5546(12) -0.1100(11) 0.1709(10)
H13A H 1.5987 -0.0749 0.2474
C20A C 1.5858(10) -0.2183(10) 0.0998(9)
C21A C 1.6850(12) -0.2817(13) 0.1389(11)
H14A H 1.7345 -0.2467 0.2133
C22A C 1.7080(11) -0.3898(12) 0.0711(10)
H15A H 1.7739 -0.4282 0.0989
C23A C 1.6341(10) -0.4467(10) -0.0418(10)
C24A C 1.6467(11) -0.5634(11) -0.1166(11)
H16A H 1.7064 -0.6087 -0.0919
C25A C 1.5725(12) -0.6087(11) -0.2233(11)
H17A H 1.5813 -0.6849 -0.2735
C26A C 1.4812(10) -0.5394(10) -0.2581(9)
H18A H 1.4299 -0.5727 -0.3320
C27A C 1.5390(9) -0.3839(10) -0.0843(8)
C28A C 1.5160(9) -0.2673(9) -0.0116(8)
O3 O 0.4809(16) 0.2197(18) 0.4797(14)
O4 O 0.649(2) 0.110(2) 0.5928(15)
O2? O 0.524(3) 0.154(3) 0.464(3)
loop_
_geom_bond_atom_site_label_1
_geom_bond_atom_site_label_2
_geom_bond_site_symmetry_1
_geom_bond_site_symmetry_2
Au1 Au2 1_555 1_555
Au2 C3 1_555 1_555
Au3 Au1 1_555 1_555
Ni1 O1 1_555 1_555
O1 H1 1_555 1_555
H2 O1 1_555 1_555
N1 Ni1 1_555 1_555
N2 C2 1_555 1_555
N3 C3 1_555 1_555
N4 C4 1_555 1_555
N5 Ni1 1_555 1_555
N6 Ni1 1_555 1_555
N7 Ni1 1_555 1_555
N8 Ni1 1_555 1_555
C1 Au1 1_555 1_555
C2 Au1 1_555 1_555
C4 Au3 1_555 1_555
C5 N5 1_555 1_555
H3 C5 1_555 1_555
C6 C5 1_555 1_555
H4 C6 1_555 1_555
C7 C6 1_555 1_555
H5 C7 1_555 1_555
C8 C7 1_555 1_555
C9 C8 1_555 1_555
H6 C9 1_555 1_555
C10 C9 1_555 1_555
H7 C10 1_555 1_555
C11 C10 1_555 1_555
C12 C11 1_555 1_555
H8 C12 1_555 1_555
C13 C12 1_555 1_555
H9 C13 1_555 1_555
C14 N6 1_555 1_555
H10 C14 1_555 1_555
C15 N6 1_555 1_555
C16 N5 1_555 1_555
C17 N7 1_555 1_555
H11 C17 1_555 1_555
C18 C17 1_555 1_555
H12 C18 1_555 1_555
C19 C18 1_555 1_555
H13 C19 1_555 1_555
C20 C19 1_555 1_555
C21 C20 1_555 1_555
H14 C21 1_555 1_555
C22 C21 1_555 1_555
H15 C22 1_555 1_555
C23 C22 1_555 1_555
C24 C23 1_555 1_555
H16 C24 1_555 1_555
C25 C24 1_555 1_555
H17 C25 1_555 1_555
C26 N8 1_555 1_555
H18 C26 1_555 1_555
C27 N8 1_555 1_555
C28 N7 1_555 1_555
Au1A Au2 1_555 1_555
Au1A_2 Au3 1_555 1_555
Au3_2 Au1A 1_555 1_555
Ni1A O1A 1_555 1_555
O1A H1A 1_555 1_555
H2A O1A 1_555 1_555
N1A Ni1A 1_555 1_555
N2A C2A 1_555 1_555
N3A C3A 1_555 1_555
N4A C4A 1_555 1_555
N5A Ni1A 1_555 1_555
N6A Ni1A 1_555 1_555
N7A Ni1A 1_555 1_555
N8A Ni1A 1_555 1_555
C1A Au1A 1_555 1_555
C2A Au1A 1_555 1_555
C3A Au2 1_555 1_555
C4A Au3 1_555 1_555
C5A N5A 1_555 1_555
H3A C5A 1_555 1_555
C6A C5A 1_555 1_555
H4A C6A 1_555 1_555
C7A C6A 1_555 1_555
H5A C7A 1_555 1_555
C8A C7A 1_555 1_555
C9A C8A 1_555 1_555
H6A C9A 1_555 1_555
C10A C9A 1_555 1_555
H7A C10A 1_555 1_555
C11A C10A 1_555 1_555
C12A C11A 1_555 1_555
H8A C12A 1_555 1_555
C13A C12A 1_555 1_555
H9A C13A 1_555 1_555
C14A N6A 1_555 1_555
H10A C14A 1_555 1_555
C15A N6A 1_555 1_555
C16A N5A 1_555 1_555
C17A N7A 1_555 1_555
H11A C17A 1_555 1_555
C18A C17A 1_555 1_555
H12A C18A 1_555 1_555
C19A C18A 1_555 1_555
H13A C19A 1_555 1_555
C20A C19A 1_555 1_555
C21A C20A 1_555 1_555
H14A C21A 1_555 1_555
C22A C21A 1_555 1_555
H15A C22A 1_555 1_555
C23A C22A 1_555 1_555
C24A C23A 1_555 1_555
H16A C24A 1_555 1_555
C25A C24A 1_555 1_555
H17A C25A 1_555 1_555
C26A N8A 1_555 1_555
H18A C26A 1_555 1_555
C27A N8A 1_555 1_555
C28A N7A 1_555 1_555
N1 C1 1_555 1_555
C8 C16 1_555 1_555
C11 C15 1_555 1_555
C13 C14 1_555 1_555
C15 C16 1_555 1_555
C20 C28 1_555 1_555
C23 C27 1_555 1_555
C25 C26 1_555 1_555
C27 C28 1_555 1_555
N1A C1A 1_555 1_555
C8A C16A 1_555 1_555
C11A C15A 1_555 1_555
C13A C14A 1_555 1_555
C15A C16A 1_555 1_555
C20A C28A 1_555 1_555
C23A C27A 1_555 1_555
C25A C26A 1_555 1_555
C27A C28A 1_555 1_555

#END
