
#######################################################################
#
#                 Cambridge Crystallographic Data Centre
#                                CCDC 
#
#######################################################################
#
# If this CIF has been generated from an entry in the Cambridge 
# Structural Database, then it will include bibliographic, chemical, 
# crystal, experimental, refinement or atomic coordinate data resulting 
# from the CCDC's data processing and validation procedures.
#
#######################################################################

data_CIXQIK
_symmetry_cell_setting           orthorhombic
_symmetry_space_group_name_H-M   'P b c a'
_symmetry_Int_Tables_number      61
_space_group_name_Hall           '-P 2ac 2ab'
loop_
_symmetry_equiv_pos_site_id
_symmetry_equiv_pos_as_xyz
1 x,y,z
2 1/2-x,-y,1/2+z
3 -x,1/2+y,1/2-z
4 1/2+x,1/2-y,-z
5 -x,-y,-z
6 1/2+x,y,1/2-z
7 x,1/2-y,1/2+z
8 1/2-x,1/2+y,z
_cell_length_a                   18.568(2)
_cell_length_b                   10.3675(13)
_cell_length_c                   23.104(3)
_cell_angle_alpha                90
_cell_angle_beta                 90
_cell_angle_gamma                90
_cell_volume                     4447.61
loop_
_atom_site_label
_atom_site_type_symbol
_atom_site_fract_x
_atom_site_fract_y
_atom_site_fract_z
Cd1 Cd 0.735709(11) 0.42602(2) 0.473660(10)
O1 O 0.71998(12) 0.3145(2) 0.38412(10)
O2 O 0.69418(12) 0.2633(2) 0.52932(10)
O3 O 0.60130(14) 0.3538(3) 0.48696(12)
O4 O 0.35388(12) 0.1788(2) 0.52014(11)
O5 O 0.34406(11) -0.0146(2) 0.55852(11)
O6 O 0.54986(18) -0.1953(3) 0.66146(16)
O7 O 0.65405(18) -0.1304(5) 0.6431(2)
O8 O 0.71375(16) 0.5651(2) 0.55096(12)
H1 H 0.6713 0.5849 0.5616
H2 H 0.7434 0.6268 0.5463
N1 N 0.64159(16) 0.3433(2) 0.30662(12)
N2 N 0.60439(17) 0.4492(3) 0.28280(13)
N3 N 0.68549(14) 0.5827(2) 0.41244(11)
H3 H 0.6502 0.6262 0.4307
H4 H 0.7193 0.6393 0.4008
N4 N 0.59080(18) -0.1231(4) 0.63707(16)
C1 C 0.65664(18) 0.2324(3) 0.27279(14)
C2 C 0.6672(2) 0.2422(4) 0.21360(16)
H5 H 0.6656 0.3223 0.1956
C3 C 0.6801(3) 0.1330(5) 0.18179(19)
H6 H 0.6853 0.1391 0.1419
C4 C 0.6853(3) 0.0155(5) 0.2081(2)
H7 H 0.6947 -0.0578 0.1861
C5 C 0.6767(2) 0.0056(4) 0.26727(19)
H8 H 0.6808 -0.0744 0.2851
C6 C 0.66188(19) 0.1143(3) 0.30045(16)
H9 H 0.6557 0.1079 0.3403
C7 C 0.67722(17) 0.3820(3) 0.35552(14)
C8 C 0.65745(16) 0.5132(3) 0.36441(13)
C9 C 0.6131(2) 0.5489(3) 0.32126(16)
C10 C 0.5753(3) 0.6745(4) 0.3126(2)
H10 H 0.5925 0.7360 0.3404
H11 H 0.5244 0.6625 0.3176
H12 H 0.5846 0.7057 0.2742
C11 C 0.5332(2) 0.4191(4) 0.2589(2)
H13 H 0.5026 0.3871 0.2892
H14 H 0.5380 0.3546 0.2293
H15 H 0.5125 0.4957 0.2426
C12 C 0.62722(17) 0.2703(3) 0.51842(14)
C13 C 0.57888(15) 0.1717(3) 0.54632(13)
C14 C 0.50511(16) 0.1762(3) 0.53623(13)
H16 H 0.4860 0.2432 0.5143
C15 C 0.45969(16) 0.0823(3) 0.55842(13)
C16 C 0.38014(17) 0.0824(3) 0.54508(14)
C17 C 0.48757(16) -0.0173(3) 0.59135(13)
H17 H 0.4578 -0.0818 0.6059
C18 C 0.56077(17) -0.0185(3) 0.60207(14)
C19 C 0.60697(17) 0.0731(3) 0.57999(14)
H18 H 0.6561 0.0689 0.5875
Cd1C Cd 0.235709(11) 0.07398(2) 0.526340(10)
O4C O 0.85388(12) 0.3212(2) 0.47986(11)
O5C O 0.84406(11) 0.5146(2) 0.44148(11)
O9 O 0.5515(13) 0.5633(19) 0.5683(5)
O10? O 0.5604(7) 0.5659(14) 0.5452(6)
O11? O 0.5319(10) 0.541(2) 0.5881(9)
loop_
_geom_bond_atom_site_label_1
_geom_bond_atom_site_label_2
_geom_bond_site_symmetry_1
_geom_bond_site_symmetry_2
Cd1 O1 1_555 1_555
O1 C7 1_555 1_555
O2 Cd1 1_555 1_555
O3 Cd1 1_555 1_555
O4 C16 1_555 1_555
O5 C16 1_555 1_555
O6 N4 1_555 1_555
O7 N4 1_555 1_555
O8 Cd1 1_555 1_555
H1 O8 1_555 1_555
H2 O8 1_555 1_555
N1 N2 1_555 1_555
N2 C9 1_555 1_555
N3 Cd1 1_555 1_555
H3 N3 1_555 1_555
H4 N3 1_555 1_555
N4 C18 1_555 1_555
C1 N1 1_555 1_555
C2 C1 1_555 1_555
H5 C2 1_555 1_555
C3 C2 1_555 1_555
H6 C3 1_555 1_555
C4 C3 1_555 1_555
H7 C4 1_555 1_555
C5 C4 1_555 1_555
H8 C5 1_555 1_555
C6 C1 1_555 1_555
H9 C6 1_555 1_555
C7 N1 1_555 1_555
C8 N3 1_555 1_555
C9 C8 1_555 1_555
C10 C9 1_555 1_555
H10 C10 1_555 1_555
H11 C10 1_555 1_555
H12 C10 1_555 1_555
C11 N2 1_555 1_555
H13 C11 1_555 1_555
H14 C11 1_555 1_555
H15 C11 1_555 1_555
C12 O2 1_555 1_555
C13 C12 1_555 1_555
C14 C13 1_555 1_555
H16 C14 1_555 1_555
C15 C14 1_555 1_555
C16 C15 1_555 1_555
C17 C15 1_555 1_555
H17 C17 1_555 1_555
C18 C17 1_555 1_555
C19 C13 1_555 1_555
H18 C19 1_555 1_555
Cd1C O4 1_555 1_555
O4C Cd1 1_555 1_555
O5C Cd1 1_555 1_555
O3 C12 1_555 1_555
O5 Cd1C 1_555 1_555
C5 C6 1_555 1_555
C7 C8 1_555 1_555
C18 C19 1_555 1_555

#END
