
#######################################################################
#
#                 Cambridge Crystallographic Data Centre
#                                CCDC 
#
#######################################################################
#
# If this CIF has been generated from an entry in the Cambridge 
# Structural Database, then it will include bibliographic, chemical, 
# crystal, experimental, refinement or atomic coordinate data resulting 
# from the CCDC's data processing and validation procedures.
#
#######################################################################

data_CIXRUX
_symmetry_cell_setting           triclinic
_symmetry_space_group_name_H-M   'P -1'
_symmetry_Int_Tables_number      2
_space_group_name_Hall           '-P 1'
loop_
_symmetry_equiv_pos_site_id
_symmetry_equiv_pos_as_xyz
1 x,y,z
2 -x,-y,-z
_cell_length_a                   8.7460(3)
_cell_length_b                   10.2184(4)
_cell_length_c                   17.8131(7)
_cell_angle_alpha                77.4560(5)
_cell_angle_beta                 77.0510(5)
_cell_angle_gamma                71.1440(5)
_cell_volume                     1450.01
loop_
_atom_site_label
_atom_site_type_symbol
_atom_site_fract_x
_atom_site_fract_y
_atom_site_fract_z
Nd1 Nd 0.255145(17) 0.502163(14) 0.491335(7)
Cl1 Cl 0.2140(2) 0.5287(3) -0.12009(7)
Cl2 Cl -0.2037(3) 1.0422(2) 0.13577(8)
Cl3 Cl 0.2804(2) 0.9989(2) 0.02747(8)
O1 O -0.0296(2) 0.63672(18) 0.50895(10)
O2 O 0.1793(2) 0.5312(2) 0.35888(10)
O3 O -0.2159(3) 1.0016(2) 0.46948(13)
O4 O 0.4936(2) 0.63015(18) 0.46005(10)
O5 O -0.2897(2) 0.74845(19) 0.51470(11)
O6 O 0.3607(3) 0.9733(2) 0.34827(11)
O7 O 0.2442(2) 0.6409(2) 0.59673(11)
O8 O 0.1458(2) 0.4054(2) 0.63180(10)
O9 O 0.4421(2) 0.4525(2) 0.36061(11)
O10 O 0.2246(3) 0.5521(3) 0.20412(13)
O11 O 0.2636(2) 0.74054(19) 0.41686(11)
C1 C 0.3224(4) 0.4888(3) 0.32545(15)
C2 C 0.3564(4) 0.4736(4) 0.24089(18)
H1 H 0.4523 0.5037 0.2151
H2 H 0.3801 0.3758 0.2365
C3 C 0.2341(5) 0.5386(4) 0.12763(19)
C4 C 0.1246(6) 0.6456(5) 0.0878(2)
H3 H 0.0546 0.7197 0.1124
C5 C 0.1195(7) 0.6421(6) 0.0115(3)
H4 H 0.0468 0.7141 -0.0159
C6 C 0.2216(7) 0.5325(7) -0.0230(2)
C7 C 0.3277(8) 0.4270(6) 0.0145(3)
H5 H 0.3954 0.3523 -0.0103
C8 C 0.3354(6) 0.4307(5) 0.0921(2)
H6 H 0.4100 0.3592 0.1188
C9 C -0.1466(3) 0.7491(3) 0.51042(14)
C10 C -0.1078(4) 0.8836(3) 0.50869(16)
H7 H -0.1160 0.8977 0.5617
H8 H 0.0040 0.8758 0.4826
C11 C -0.2045(4) 1.0055(3) 0.39099(18)
C12 C -0.3330(4) 1.0995(3) 0.3576(2)
H9 H -0.4205 1.1551 0.3878
C13 C -0.3308(6) 1.1104(4) 0.2794(3)
H10 H -0.4170 1.1742 0.2564
C14 C -0.2032(6) 1.0283(5) 0.2349(2)
C15 C -0.0751(5) 0.9336(5) 0.2676(2)
H11 H 0.0112 0.8777 0.2370
C16 C -0.0750(4) 0.9219(4) 0.34608(18)
H12 H 0.0115 0.8583 0.3688
C17 C 0.4021(3) 0.7371(3) 0.42314(14)
C18 C 0.4704(4) 0.8586(3) 0.38826(16)
H13 H 0.4982 0.8904 0.4295
H14 H 0.5705 0.8269 0.3522
C19 C 0.3493(4) 0.9697(3) 0.27360(18)
C20 C 0.2529(5) 1.0900(4) 0.2368(2)
H15 H 0.2019 1.1667 0.2627
C21 C 0.2315(6) 1.0974(6) 0.1616(3)
H16 H 0.1641 1.1787 0.1374
C22 C 0.3071(7) 0.9882(7) 0.1227(2)
C23 C 0.4010(7) 0.8702(6) 0.1582(2)
H17 H 0.4524 0.7946 0.1315
C24 C 0.4227(6) 0.8594(4) 0.2346(2)
H18 H 0.4875 0.7766 0.2589
C25 C 0.1677(4) 0.4626(4) 0.69391(16)
H19 H 0.2775 0.4181 0.7058
H20 H 0.0902 0.4449 0.7404
C26 C 0.1416(4) 0.6165(3) 0.67024(16)
H21 H 0.0276 0.6629 0.6656
H22 H 0.1689 0.6541 0.7094
H23 H 0.0300 0.4333 0.6370
H24 H 0.3648 0.6460 0.5948
Nd1A Nd -0.255145(17) 0.497837(14) 0.508665(7)
Nd1A_2 Nd 0.744855(17) 0.497837(14) 0.508665(7)
O1A O 0.0296(2) 0.36328(18) 0.49105(10)
O4A O 0.5064(2) 0.36985(18) 0.53995(10)
O5A O 0.2897(2) 0.25155(19) 0.48530(11)
loop_
_geom_bond_atom_site_label_1
_geom_bond_atom_site_label_2
_geom_bond_site_symmetry_1
_geom_bond_site_symmetry_2
Nd1 O1 1_555 1_555
Cl1 C6 1_555 1_555
Cl2 C14 1_555 1_555
Cl3 C22 1_555 1_555
O1 C9 1_555 1_555
O2 Nd1 1_555 1_555
O3 C10 1_555 1_555
O4 Nd1 1_555 1_555
O5 C9 1_555 1_555
O6 C18 1_555 1_555
O7 Nd1 1_555 1_555
O8 Nd1 1_555 1_555
O9 Nd1 1_555 1_555
O10 C2 1_555 1_555
O11 Nd1 1_555 1_555
C1 O2 1_555 1_555
C2 C1 1_555 1_555
H1 C2 1_555 1_555
H2 C2 1_555 1_555
C3 O10 1_555 1_555
C4 C3 1_555 1_555
H3 C4 1_555 1_555
C5 C4 1_555 1_555
H4 C5 1_555 1_555
C6 C5 1_555 1_555
C7 C6 1_555 1_555
H5 C7 1_555 1_555
C8 C3 1_555 1_555
H6 C8 1_555 1_555
C9 C10 1_555 1_555
C10 H7 1_555 1_555
H8 C10 1_555 1_555
C11 O3 1_555 1_555
C12 C11 1_555 1_555
H9 C12 1_555 1_555
C13 C12 1_555 1_555
H10 C13 1_555 1_555
C14 C13 1_555 1_555
C15 C14 1_555 1_555
H11 C15 1_555 1_555
C16 C11 1_555 1_555
H12 C16 1_555 1_555
C17 O4 1_555 1_555
C18 C17 1_555 1_555
H13 C18 1_555 1_555
H14 C18 1_555 1_555
C19 O6 1_555 1_555
C20 C19 1_555 1_555
H15 C20 1_555 1_555
C21 C20 1_555 1_555
H16 C21 1_555 1_555
C22 C21 1_555 1_555
C23 C22 1_555 1_555
H17 C23 1_555 1_555
C24 C19 1_555 1_555
H18 C24 1_555 1_555
C25 O8 1_555 1_555
H19 C25 1_555 1_555
H20 C25 1_555 1_555
C26 O7 1_555 1_555
H21 C26 1_555 1_555
H22 C26 1_555 1_555
H23 O8 1_555 1_555
H24 O7 1_555 1_555
Nd1A O1 1_555 1_555
Nd1A_2 O4 1_555 1_555
O1A Nd1 1_555 1_555
O4A Nd1 1_555 1_555
O5A Nd1 1_555 1_555
O5 Nd1A 1_555 1_555
O9 C1 1_555 1_555
O11 C17 1_555 1_555
C7 C8 1_555 1_555
C15 C16 1_555 1_555
C23 C24 1_555 1_555
C25 C26 1_555 1_555
Nd1A O1A 1_555 1_555
Nd1A_2 O4A 1_555 1_555

#END
