
#######################################################################
#
#                 Cambridge Crystallographic Data Centre
#                                CCDC 
#
#######################################################################
#
# If this CIF has been generated from an entry in the Cambridge 
# Structural Database, then it will include bibliographic, chemical, 
# crystal, experimental, refinement or atomic coordinate data resulting 
# from the CCDC's data processing and validation procedures.
#
#######################################################################

data_CIXRIL
_symmetry_cell_setting           monoclinic
_symmetry_space_group_name_H-M   'P 21/n'
_symmetry_Int_Tables_number      14
_space_group_name_Hall           '-P 2yn'
loop_
_symmetry_equiv_pos_site_id
_symmetry_equiv_pos_as_xyz
1 x,y,z
2 1/2-x,1/2+y,1/2-z
3 -x,-y,-z
4 1/2+x,1/2-y,1/2+z
_cell_length_a                   9.1631(3)
_cell_length_b                   18.5536(6)
_cell_length_c                   15.1681(5)
_cell_angle_alpha                90
_cell_angle_beta                 105.5750(10)
_cell_angle_gamma                90
_cell_volume                     2484.02
loop_
_atom_site_label
_atom_site_type_symbol
_atom_site_fract_x
_atom_site_fract_y
_atom_site_fract_z
Ag1 Ag 0.73980(2) 0.110805(11) 0.356649(15)
S1 S 0.85466(7) 0.28119(3) 0.39392(4)
F1 F 0.8644(3) 0.35571(13) 0.54231(13)
O1 O 0.8517(2) 0.21694(11) 0.44819(14)
N1 N 0.8444(2) 0.00241(11) 0.35964(14)
C1 C 0.8977(3) -0.02066(14) 0.29059(17)
H1 H 0.8997 0.0118 0.2425
Ag2 Ag 1.17615(2) 0.200180(10) 0.484230(13)
S2 S 0.83833(8) 0.17914(4) 0.14362(5)
F2 F 0.6425(3) 0.33818(19) 0.4534(2)
O2 O 1.0055(2) 0.30360(11) 0.39633(15)
N2 N 0.8848(2) -0.11490(11) 0.42517(14)
C2 C 0.9495(3) -0.08976(14) 0.28698(18)
H2 H 0.9909 -0.1048 0.2389
F3 F 0.7891(3) 0.41456(11) 0.41728(15)
F4 F 0.7444(4) 0.06176(12) 0.0514(2)
O3 O 0.8726(3) 0.14067(12) 0.22816(16)
C3 C 0.4384(3) 0.17330(12) 0.39044(16)
O4 O 0.7470(2) 0.28225(11) 0.30586(14)
N3 N 0.5139(2) 0.16609(11) 0.32647(14)
C4 C 0.9390(3) -0.13613(14) 0.35537(18)
H3 H 0.9710 -0.1847 0.3534
F5 F 0.9834(4) 0.07738(17) 0.08471(16)
O5 O 0.6864(2) 0.20600(12) 0.10882(15)
N4 N 0.3040(2) 0.20701(11) 0.37773(14)
C5 C 0.8422(3) -0.04574(12) 0.42543(16)
C6 C 0.7909(3) -0.02196(13) 0.50199(17)
F6 F 0.8384(2) 0.13783(10) -0.02196(12)
O6 O 0.9501(3) 0.23134(14) 0.13656(16)
C7 C 0.7476(3) -0.00474(12) 0.56664(16)
C8 C 0.6929(3) 0.01496(13) 0.64318(16)
C9 C 0.7374(3) -0.02352(14) 0.72554(17)
H4 H 0.8048 -0.0632 0.7309
C10 C 0.6836(3) -0.00393(15) 0.79900(18)
H5 H 0.7138 -0.0303 0.8546
C11 C 0.5854(3) 0.05420(15) 0.79168(18)
H6 H 0.5494 0.0675 0.8426
C12 C 0.5397(3) 0.09281(14) 0.71108(18)
H7 H 0.4717 0.1321 0.7066
C13 C 0.5933(3) 0.07414(13) 0.63596(16)
C14 C 0.5453(3) 0.11223(13) 0.55124(17)
C15 C 0.5022(3) 0.14168(13) 0.47828(17)
C16 C 0.4500(3) 0.19482(14) 0.24388(18)
H8 H 0.5012 0.1908 0.1973
C17 C 0.3125(3) 0.22993(15) 0.22464(18)
H9 H 0.2678 0.2498 0.1658
C18 C 0.2423(3) 0.23508(14) 0.29457(17)
H10 H 0.1477 0.2592 0.2834
C19 C 0.7848(4) 0.35093(19) 0.4559(2)
C20 C 0.8531(4) 0.11085(16) 0.0596(2)
Ag2B Ag 0.82385(2) -0.200180(10) 0.515770(13)
Ag2C Ag 0.67615(2) 0.299820(10) -0.015770(13)
Ag2_2 Ag 0.17615(2) 0.200180(10) 0.484230(13)
N2B N 1.1152(2) 0.11490(11) 0.57483(14)
O5C O 1.1864(2) 0.29400(12) 0.60882(15)
N4_2 N 1.3040(2) 0.20701(11) 0.37773(14)
loop_
_geom_bond_atom_site_label_1
_geom_bond_atom_site_label_2
_geom_bond_site_symmetry_1
_geom_bond_site_symmetry_2
Ag1 O1 1_555 1_555
S1 O1 1_555 1_555
F1 C19 1_555 1_555
N1 Ag1 1_555 1_555
C1 N1 1_555 1_555
H1 C1 1_555 1_555
Ag2 O2 1_555 1_555
S2 O3 1_555 1_555
F2 C19 1_555 1_555
O2 S1 1_555 1_555
N2 C4 1_555 1_555
C2 C1 1_555 1_555
H2 C2 1_555 1_555
F3 C19 1_555 1_555
F4 C20 1_555 1_555
O3 Ag1 1_555 1_555
C3 N3 1_555 1_555
O4 S1 1_555 1_555
N3 Ag1 1_555 1_555
C4 C2 1_555 1_555
H3 C4 1_555 1_555
F5 C20 1_555 1_555
O5 S2 1_555 1_555
N4 C3 1_555 1_555
C5 N1 1_555 1_555
C6 C5 1_555 1_555
F6 C20 1_555 1_555
O6 S2 1_555 1_555
C7 C6 1_555 1_555
C8 C7 1_555 1_555
C9 C8 1_555 1_555
H4 C9 1_555 1_555
C10 C9 1_555 1_555
H5 C10 1_555 1_555
C11 C10 1_555 1_555
H6 C11 1_555 1_555
C12 C11 1_555 1_555
H7 C12 1_555 1_555
C13 C8 1_555 1_555
C14 C13 1_555 1_555
C15 C3 1_555 1_555
C16 N3 1_555 1_555
H8 C16 1_555 1_555
C17 C16 1_555 1_555
H9 C17 1_555 1_555
C18 N4 1_555 1_555
H10 C18 1_555 1_555
C19 S1 1_555 1_555
C20 S2 1_555 1_555
Ag2B N2 1_555 1_555
Ag2C O5 1_555 1_555
Ag2_2 N4 1_555 1_555
N2B Ag2 1_555 1_555
O5C Ag2 1_555 1_555
N4_2 Ag2 1_555 1_555
N2 C5 1_555 1_555
C12 C13 1_555 1_555
C14 C15 1_555 1_555
C17 C18 1_555 1_555

#END
