
#######################################################################
#
#                 Cambridge Crystallographic Data Centre
#                                CCDC 
#
#######################################################################
#
# If this CIF has been generated from an entry in the Cambridge 
# Structural Database, then it will include bibliographic, chemical, 
# crystal, experimental, refinement or atomic coordinate data resulting 
# from the CCDC's data processing and validation procedures.
#
#######################################################################

data_CIXSAE
_symmetry_cell_setting           triclinic
_symmetry_space_group_name_H-M   'P -1'
_symmetry_Int_Tables_number      2
_space_group_name_Hall           '-P 1'
loop_
_symmetry_equiv_pos_site_id
_symmetry_equiv_pos_as_xyz
1 x,y,z
2 -x,-y,-z
_cell_length_a                   9.0002(6)
_cell_length_b                   10.0739(6)
_cell_length_c                   17.7613(11)
_cell_angle_alpha                76.821(8)
_cell_angle_beta                 76.372(8)
_cell_angle_gamma                69.738(8)
_cell_volume                     1449.13
loop_
_atom_site_label
_atom_site_type_symbol
_atom_site_fract_x
_atom_site_fract_y
_atom_site_fract_z
Gd1 Gd 0.262983(11) 0.514196(10) 0.495445(6)
Cl1 Cl 0.2315(2) 0.5169(2) -0.11561(6)
Cl2 Cl 0.2918(2) 0.9931(2) 0.02797(7)
Cl3 Cl 0.1599(2) -0.03532(19) 0.87868(8)
O1 O 0.17189(17) 0.54623(18) 0.36629(9)
O2 O 0.49562(16) 0.63074(15) 0.46075(9)
O3 O 0.14690(19) 0.41554(18) 0.63317(9)
O4 O 0.26722(17) 0.75332(16) 0.42064(9)
O5 O 0.25585(18) 0.27939(17) 0.49452(10)
O6 O 0.26160(19) 0.64059(18) 0.59966(9)
O7 O 0.43044(18) 0.45438(18) 0.36805(9)
O8 O 0.3719(2) 0.98241(17) 0.34662(10)
O9 O 0.00246(18) 0.35745(17) 0.48087(10)
O10 O 0.2379(2) 0.00182(17) 0.53891(13)
O11 O 0.2185(2) 0.5500(2) 0.21106(10)
C1 C 0.3118(3) 0.4947(3) 0.33293(13)
C2 C 0.3485(3) 0.4702(4) 0.24928(15)
H1 H 0.4428 0.4978 0.2221
H2 H 0.3718 0.3691 0.2481
C3 C 0.2316(4) 0.5358(4) 0.13415(16)
C4 C 0.3429(5) 0.4296(5) 0.0982(2)
H3 H 0.4193 0.3601 0.1253
C5 C 0.3432(6) 0.4239(5) 0.0201(2)
H4 H 0.4205 0.3516 -0.0050
C6 C 0.2310(5) 0.5238(5) -0.01826(19)
C7 C 0.1178(5) 0.6296(5) 0.0177(2)
H5 H 0.0405 0.6979 -0.0094
C8 C 0.1171(4) 0.6360(4) 0.09484(19)
H6 H 0.0391 0.7082 0.1198
C9 C 0.4069(2) 0.7442(2) 0.42444(12)
C10 C 0.4763(3) 0.8640(2) 0.38897(14)
H7 H 0.5014 0.8966 0.4304
H8 H 0.5761 0.8280 0.3538
C11 C 0.3588(3) 0.9755(3) 0.27283(15)
C12 C 0.4363(5) 0.8610(4) 0.2353(2)
H9 H 0.5041 0.7782 0.2600
C13 C 0.4132(6) 0.8688(6) 0.1593(2)
H10 H 0.4651 0.7899 0.1336
C14 C 0.3179(7) 0.9876(7) 0.1227(2)
C15 C 0.2400(6) 1.0976(6) 0.1602(3)
H11 H 0.1703 1.1786 0.1354
C16 C 0.2594(4) 1.0954(4) 0.2355(2)
H12 H 0.2053 1.1748 0.2605
C17 C 0.1291(2) 0.2586(2) 0.49155(12)
C18 C 0.1238(3) 0.1089(2) 0.49651(15)
H13 H 0.0169 0.1049 0.5214
H14 H 0.1428 0.0881 0.4437
C19 C 0.2102(3) -0.0024(3) 0.61816(17)
C20 C 0.0737(3) 0.0831(3) 0.65964(18)
H15 H -0.0076 0.1475 0.6335
C21 C 0.0586(4) 0.0726(4) 0.7396(2)
H16 H -0.0330 0.1297 0.7675
C22 C 0.1781(5) -0.0216(4) 0.7778(2)
C23 C 0.3132(5) -0.1087(4) 0.7373(2)
H17 H 0.3930 -0.1741 0.7641
C24 C 0.3300(4) -0.0989(3) 0.6576(2)
H18 H 0.4216 -0.1568 0.6301
C25 C 0.1586(4) 0.4736(3) 0.69665(15)
H19 H 0.2590 0.4194 0.7152
H20 H 0.0710 0.4660 0.7396
C26 C 0.1515(3) 0.6266(3) 0.67097(15)
H21 H 0.0433 0.6844 0.6631
H22 H 0.1788 0.6606 0.7112
H23 H 0.3632 0.6182 0.6146
H24 H 0.0372 0.4209 0.6394
Gd1A Gd 0.737017(11) 0.485804(10) 0.504555(6)
Gd1A_2 Gd -0.262983(11) 0.485804(10) 0.504555(6)
O2A O 0.50438(16) 0.36926(15) 0.53925(9)
O9A O -0.00246(18) 0.64255(17) 0.51913(10)
loop_
_geom_bond_atom_site_label_1
_geom_bond_atom_site_label_2
_geom_bond_site_symmetry_1
_geom_bond_site_symmetry_2
Gd1 O1 1_555 1_555
Cl1 C6 1_555 1_555
Cl2 C14 1_555 1_555
Cl3 C22 1_555 1_555
O1 C1 1_555 1_555
O2 Gd1 1_555 1_555
O3 Gd1 1_555 1_555
O4 Gd1 1_555 1_555
O5 Gd1 1_555 1_555
O6 Gd1 1_555 1_555
O7 Gd1 1_555 1_555
O8 C10 1_555 1_555
O9 C17 1_555 1_555
O10 C18 1_555 1_555
O11 C2 1_555 1_555
C1 O7 1_555 1_555
C2 C1 1_555 1_555
H1 C2 1_555 1_555
H2 C2 1_555 1_555
C3 O11 1_555 1_555
C4 C3 1_555 1_555
H3 C4 1_555 1_555
C5 C4 1_555 1_555
H4 C5 1_555 1_555
C6 C5 1_555 1_555
C7 C6 1_555 1_555
H5 C7 1_555 1_555
C8 C3 1_555 1_555
H6 C8 1_555 1_555
C9 O2 1_555 1_555
C10 C9 1_555 1_555
H7 C10 1_555 1_555
H8 C10 1_555 1_555
C11 O8 1_555 1_555
C12 C11 1_555 1_555
H9 C12 1_555 1_555
C13 C12 1_555 1_555
H10 C13 1_555 1_555
C14 C13 1_555 1_555
C15 C14 1_555 1_555
H11 C15 1_555 1_555
C16 C11 1_555 1_555
H12 C16 1_555 1_555
C17 O5 1_555 1_555
C18 C17 1_555 1_555
H13 C18 1_555 1_555
H14 C18 1_555 1_555
C19 O10 1_555 1_555
C20 C19 1_555 1_555
H15 C20 1_555 1_555
C21 C20 1_555 1_555
H16 C21 1_555 1_555
C22 C21 1_555 1_555
C23 C22 1_555 1_555
H17 C23 1_555 1_555
C24 C19 1_555 1_555
H18 C24 1_555 1_555
C25 O3 1_555 1_555
H19 C25 1_555 1_555
H20 C25 1_555 1_555
C26 O6 1_555 1_555
H21 C26 1_555 1_555
H22 C26 1_555 1_555
H23 O6 1_555 1_555
H24 O3 1_555 1_555
Gd1A O2 1_555 1_555
Gd1A_2 O9 1_555 1_555
O2A Gd1 1_555 1_555
O9A Gd1 1_555 1_555
O4 C9 1_555 1_555
C7 C8 1_555 1_555
C15 C16 1_555 1_555
C23 C24 1_555 1_555
C25 C26 1_555 1_555
Gd1A O2A 1_555 1_555

#END
