
#######################################################################
#
#                 Cambridge Crystallographic Data Centre
#                                CCDC 
#
#######################################################################
#
# If this CIF has been generated from an entry in the Cambridge 
# Structural Database, then it will include bibliographic, chemical, 
# crystal, experimental, refinement or atomic coordinate data resulting 
# from the CCDC's data processing and validation procedures.
#
#######################################################################

data_CIXTIN
_symmetry_cell_setting           monoclinic
_symmetry_space_group_name_H-M   'P 21/c'
_symmetry_Int_Tables_number      14
_space_group_name_Hall           '-P 2ybc'
loop_
_symmetry_equiv_pos_site_id
_symmetry_equiv_pos_as_xyz
1 x,y,z
2 -x,1/2+y,1/2-z
3 -x,-y,-z
4 x,1/2-y,1/2+z
_cell_length_a                   16.954(6)
_cell_length_b                   20.500(7)
_cell_length_c                   11.693(4)
_cell_angle_alpha                90
_cell_angle_beta                 96.061(6)
_cell_angle_gamma                90
_cell_volume                     4041.27
loop_
_atom_site_label
_atom_site_type_symbol
_atom_site_fract_x
_atom_site_fract_y
_atom_site_fract_z
Sn1 Sn 0.41400(3) 0.30036(2) 0.39977(4)
Sn2 Sn 0.38939(3) 0.69968(2) 0.95214(4)
Sn3 Sn 0.09033(3) 0.54438(2) 0.86362(4)
Sn4 Sn 0.10679(3) 0.45009(2) 0.36826(4)
O1 O 0.2855(3) 0.2923(2) 0.3806(4)
O2 O 0.3861(3) 0.2080(2) 0.5120(4)
O3 O 0.3958(3) 0.2914(3) 0.7743(4)
O4 O 0.3960(4) 0.3303(3) 0.5981(4)
O5 O 0.3535(3) 0.4113(3) 0.3974(5)
O6 O 0.3828(4) 0.1698(3) 0.6890(4)
O7 O 0.2610(3) 0.7069(2) 0.9225(4)
O8 O 0.3731(3) 0.7894(2) 0.8294(4)
O9 O 0.3583(3) 0.7059(2) 0.5674(4)
O10 O 0.3335(3) 0.5891(2) 0.9398(4)
O11 O 0.3667(4) 0.6665(2) 0.7455(4)
O12 O 0.3520(4) 0.8277(2) 0.6518(4)
O13 O 0.2186(3) 0.5393(2) 0.8904(4)
O14 O 0.1133(3) 0.4550(2) 0.7470(4)
O15 O 0.1159(3) 0.4519(2) -0.0098(4)
O16 O 0.1453(3) 0.6562(2) 0.8832(4)
O17 O 0.1257(3) 0.5789(2) 0.6718(4)
O18 O 0.1203(3) 0.5756(2) 0.0714(4)
O19 O 0.2346(3) 0.4579(2) 0.3904(4)
O20 O 0.1276(3) 0.5378(2) 0.2494(4)
O21 O 0.1289(3) 0.5424(2) 0.4938(4)
O22 O 0.1290(4) 0.4186(2) 0.5738(4)
O23 O 0.1674(3) 0.3389(2) 0.3761(4)
O24 O 0.1346(3) 0.4159(2) 0.1710(4)
C1 C 0.3628(4) 0.7825(3) 0.7225(6)
C2 C 0.1218(4) 0.4640(3) 0.6443(6)
C3 C 0.1253(4) 0.5340(3) 0.5997(6)
C4 C 0.2609(4) 0.5895(3) 0.9137(5)
C5 C 0.1252(4) 0.4597(3) 0.0964(5)
C6 C 0.3921(5) 0.2851(4) 0.6675(6)
C7 C 0.2184(4) 0.6561(3) 0.9067(5)
C8 C 0.3864(5) 0.2148(4) 0.6188(6)
C9 C 0.3627(4) 0.7118(3) 0.6747(6)
C10 C 0.2799(4) 0.4091(3) 0.3903(5)
C11 C 0.2407(4) 0.3417(3) 0.3805(5)
C12 C 0.1244(4) 0.5302(3) 0.1433(5)
Sn1C Sn 0.41400(3) 0.19964(2) 0.89977(4)
Sn2C Sn 0.38939(3) 0.80032(2) 0.45214(4)
Sn3_2 Sn 0.09033(3) 0.54438(2) -0.13638(4)
O3C O 0.3958(3) 0.2086(3) 0.2743(4)
O6C O 0.3828(4) 0.3302(3) 0.1890(4)
O9C O 0.3583(3) 0.7941(2) 1.0674(4)
O12C O 0.3520(4) 0.6723(2) 1.1518(4)
O15_2 O 0.1159(3) 0.4519(2) 0.9902(4)
O18_2 O 0.1203(3) 0.5756(2) 1.0714(4)
O25 O 0.3265(6) 0.4416(4) 0.0719(8)
O26 O 0.4148(5) 0.5818(3) 0.4533(7)
O27 O 0.3187(4) 0.5486(3) 0.2355(7)
O28 O 0.2140(4) 0.3392(3) 0.9082(6)
O29 O 0.2004(4) 0.3034(3) 0.6717(6)
O30 O 0.7782(3) 0.1407(3) 0.0950(5)
O31 O 0.0871(4) 0.2882(3) 0.1234(5)
C13 C 1.0517(4) 0.2378(3) 0.3919(6)
H1 H 1.0950 0.2553 0.3533
H2 H 1.0734 0.2259 0.4692
C14 C 0.9938(4) 0.2906(3) 0.4012(7)
H3 H 0.9837 0.3121 0.3272
H4 H 1.0166 0.3226 0.4562
N1 N 0.9154(4) 0.2669(4) 0.4387(6)
H5 H 0.9253 0.2331 0.4872
H6 H 0.8945 0.2991 0.4782
C15 C 0.8538(4) 0.2456(4) 0.3421(6)
H7 H 0.8037 0.2386 0.3732
H8 H 0.8463 0.2804 0.2858
N2 N 0.9550(5) 0.1849(4) 0.2396(6)
H9 H 0.9609 0.2222 0.2010
H10 H 0.9566 0.1518 0.1894
C16 C 1.0235(5) 0.1779(4) 0.3316(7)
H11 H 1.0083 0.1471 0.3884
H12 H 1.0677 0.1589 0.2969
C17 C 0.8756(4) 0.1853(3) 0.2836(5)
H13 H 0.8358 0.1772 0.2194
H14 H 0.8736 0.1492 0.3370
C18 C 0.3208(5) 0.4446(5) 0.7514(8)
H15 H 0.2782 0.4689 0.7807
H16 H 0.2972 0.4069 0.7111
C19 C 0.4117(7) 0.5145(15) 0.6473(11)
H17 H 0.3950 0.5594 0.6343
H18 H 0.4252 0.4986 0.5737
N3 N 0.3577(11) 0.4880(6) 0.6630(14)
H19 H 0.3500 0.4632 0.5994
H20 H 0.3211 0.5198 0.6517
C20 C 0.4528(12) 0.4428(7) 0.870(2)
H21 H 0.4575 0.4567 0.9496
H22 H 0.4833 0.4028 0.8691
C21 C 0.4868(6) 0.5187(10) 0.7191(10)
H23 H 0.4972 0.5640 0.7392
H24 H 0.5288 0.5038 0.6751
N4 N 0.4892(9) 0.4795(17) 0.8266(15)
H25 H 0.5361 0.4588 0.8272
H26 H 0.4976 0.5105 0.8811
C22 C 0.3729(6) 0.4216(4) 0.8483(9)
H27 H 0.3474 0.4318 0.9166
H28 H 0.3742 0.3745 0.8425
loop_
_geom_bond_atom_site_label_1
_geom_bond_atom_site_label_2
_geom_bond_site_symmetry_1
_geom_bond_site_symmetry_2
Sn1 O1 1_555 1_555
Sn2 O7 1_555 1_555
Sn3 O13 1_555 1_555
Sn4 O19 1_555 1_555
O1 C11 1_555 1_555
O2 Sn1 1_555 1_555
O3 C6 1_555 1_555
O4 Sn1 1_555 1_555
O5 Sn1 1_555 1_555
O6 C8 1_555 1_555
O7 C7 1_555 1_555
O8 Sn2 1_555 1_555
O9 C9 1_555 1_555
O10 Sn2 1_555 1_555
O11 Sn2 1_555 1_555
O12 C1 1_555 1_555
O13 C4 1_555 1_555
O14 Sn3 1_555 1_555
O15 C5 1_555 1_555
O16 Sn3 1_555 1_555
O17 Sn3 1_555 1_555
O18 C12 1_555 1_555
O19 C10 1_555 1_555
O20 Sn4 1_555 1_555
O21 Sn4 1_555 1_555
O22 Sn4 1_555 1_555
O23 Sn4 1_555 1_555
O24 Sn4 1_555 1_555
C1 O8 1_555 1_555
C2 O14 1_555 1_555
C3 O17 1_555 1_555
C4 O10 1_555 1_555
C5 O24 1_555 1_555
C6 O4 1_555 1_555
C7 O16 1_555 1_555
C8 O2 1_555 1_555
C9 O11 1_555 1_555
C10 O5 1_555 1_555
C11 O23 1_555 1_555
C12 O20 1_555 1_555
C13 H1 1_555 1_555
H2 C13 1_555 1_555
C14 C13 1_555 1_555
H3 C14 1_555 1_555
H4 C14 1_555 1_555
N1 C14 1_555 1_555
H5 N1 1_555 1_555
H6 N1 1_555 1_555
C15 N1 1_555 1_555
H7 C15 1_555 1_555
H8 C15 1_555 1_555
N2 H9 1_555 1_555
H10 N2 1_555 1_555
C16 C13 1_555 1_555
H11 C16 1_555 1_555
H12 C16 1_555 1_555
C17 C15 1_555 1_555
H13 C17 1_555 1_555
H14 C17 1_555 1_555
C18 H15 1_555 1_555
H16 C18 1_555 1_555
C19 H17 1_555 1_555
H18 C19 1_555 1_555
N3 C18 1_555 1_555
H19 N3 1_555 1_555
H20 N3 1_555 1_555
C20 H21 1_555 1_555
H22 C20 1_555 1_555
C21 C19 1_555 1_555
H23 C21 1_555 1_555
H24 C21 1_555 1_555
N4 C20 1_555 1_555
H25 N4 1_555 1_555
H26 N4 1_555 1_555
C22 C18 1_555 1_555
H27 C22 1_555 1_555
H28 C22 1_555 1_555
Sn1C O3 1_555 1_555
Sn2C O9 1_555 1_555
Sn3_2 O15 1_555 1_555
O3C Sn1 1_555 1_555
O6C Sn1 1_555 1_555
O9C Sn2 1_555 1_555
O12C Sn2 1_555 1_555
O15_2 Sn3 1_555 1_555
O18_2 Sn3 1_555 1_555
O6 Sn1C 1_555 1_555
O12 Sn2C 1_555 1_555
O18 Sn3_2 1_555 1_555
O21 C3 1_555 1_555
O22 C2 1_555 1_555
C1 C9 1_555 1_555
C2 C3 1_555 1_555
C4 C7 1_555 1_555
C5 C12 1_555 1_555
C6 C8 1_555 1_555
C10 C11 1_555 1_555
N2 C16 1_555 1_555
N2 C17 1_555 1_555
C19 N3 1_555 1_555
C20 C22 1_555 1_555
C21 N4 1_555 1_555

#END
