
#######################################################################
#
#                 Cambridge Crystallographic Data Centre
#                                CCDC 
#
#######################################################################
#
# If this CIF has been generated from an entry in the Cambridge 
# Structural Database, then it will include bibliographic, chemical, 
# crystal, experimental, refinement or atomic coordinate data resulting 
# from the CCDC's data processing and validation procedures.
#
#######################################################################

data_CIXTAF
_symmetry_cell_setting           monoclinic
_symmetry_space_group_name_H-M   'P 21/c'
_symmetry_Int_Tables_number      14
_space_group_name_Hall           '-P 2ybc'
loop_
_symmetry_equiv_pos_site_id
_symmetry_equiv_pos_as_xyz
1 x,y,z
2 -x,1/2+y,1/2-z
3 -x,-y,-z
4 x,1/2-y,1/2+z
_cell_length_a                   9.6764(19)
_cell_length_b                   16.407(3)
_cell_length_c                   8.9254(18)
_cell_angle_alpha                90
_cell_angle_beta                 113.391(3)
_cell_angle_gamma                90
_cell_volume                     1300.55
loop_
_atom_site_label
_atom_site_type_symbol
_atom_site_fract_x
_atom_site_fract_y
_atom_site_fract_z
Sn1 Sn 0.889382(18) 0.622455(9) 0.943406(19)
O1 O 0.76394(18) 0.71674(10) 0.7790(2)
O2 O 1.02978(19) 0.66324(10) 0.7931(2)
O3 O 0.7581(2) 0.81070(11) 0.5999(2)
O4 O 1.0192(2) 0.75088(11) 0.5981(2)
N1 N 0.6118(2) 0.56981(12) 0.8184(2)
C1 C 0.8183(3) 0.75230(13) 0.6894(3)
C2 C 0.7004(3) 0.46602(13) 0.6878(3)
C3 C 0.5881(3) 0.49632(14) 0.7426(3)
C4 C 0.9696(3) 0.71952(13) 0.6923(3)
C5 C 0.3686(3) 0.55847(18) 0.8294(3)
H1 H 0.2942 0.5825 0.8558
C6 C 0.4430(4) 0.37056(17) 0.6391(4)
H2 H 0.3590 0.3387 0.6245
C7 C 0.5029(3) 0.59950(17) 0.8573(3)
H3 H 0.5169 0.6507 0.9060
C8 C 0.4589(3) 0.44913(15) 0.7150(3)
C9 C 0.3486(3) 0.48239(18) 0.7627(3)
H4 H 0.2626 0.4527 0.7488
N2 N 0.8209(2) 0.51410(12) 0.7106(2)
C10 C 0.6795(3) 0.38904(14) 0.6117(3)
C11 C 0.9250(3) 0.48576(15) 0.6614(3)
H5 H 1.0091 0.5178 0.6782
C12 C 0.7915(3) 0.36164(16) 0.5606(3)
H6 H 0.7825 0.3112 0.5102
C13 C 0.9136(3) 0.41003(16) 0.5858(3)
H7 H 0.9886 0.3927 0.5529
C14 C 0.5477(4) 0.34252(17) 0.5888(4)
H8 H 0.5343 0.2919 0.5381
Sn1C Sn 0.889382(18) 0.877545(9) 0.443406(19)
O3C O 0.7581(2) 0.68930(11) 1.0999(2)
O4C O 1.0192(2) 0.74912(11) 1.0981(2)
loop_
_geom_bond_atom_site_label_1
_geom_bond_atom_site_label_2
_geom_bond_site_symmetry_1
_geom_bond_site_symmetry_2
Sn1 O1 1_555 1_555
O1 C1 1_555 1_555
O2 Sn1 1_555 1_555
O3 C1 1_555 1_555
O4 C4 1_555 1_555
N1 Sn1 1_555 1_555
C1 C4 1_555 1_555
C2 C3 1_555 1_555
C3 N1 1_555 1_555
C4 O2 1_555 1_555
C5 H1 1_555 1_555
C6 H2 1_555 1_555
C7 N1 1_555 1_555
H3 C7 1_555 1_555
C8 C3 1_555 1_555
C9 C5 1_555 1_555
H4 C9 1_555 1_555
N2 Sn1 1_555 1_555
C10 C2 1_555 1_555
C11 N2 1_555 1_555
H5 C11 1_555 1_555
C12 C10 1_555 1_555
H6 C12 1_555 1_555
C13 C11 1_555 1_555
H7 C13 1_555 1_555
C14 C6 1_555 1_555
H8 C14 1_555 1_555
Sn1C O3 1_555 1_555
O3C Sn1 1_555 1_555
O4C Sn1 1_555 1_555
O4 Sn1C 1_555 1_555
C2 N2 1_555 1_555
C5 C7 1_555 1_555
C6 C8 1_555 1_555
C8 C9 1_555 1_555
C10 C14 1_555 1_555
C12 C13 1_555 1_555

#END
