
#######################################################################
#
#                 Cambridge Crystallographic Data Centre
#                                CCDC 
#
#######################################################################
#
# If this CIF has been generated from an entry in the Cambridge 
# Structural Database, then it will include bibliographic, chemical, 
# crystal, experimental, refinement or atomic coordinate data resulting 
# from the CCDC's data processing and validation procedures.
#
#######################################################################

data_CIXVOU
_symmetry_cell_setting           triclinic
_symmetry_space_group_name_H-M   'P -1'
_symmetry_Int_Tables_number      2
_space_group_name_Hall           '-P 1'
loop_
_symmetry_equiv_pos_site_id
_symmetry_equiv_pos_as_xyz
1 x,y,z
2 -x,-y,-z
_cell_length_a                   14.46(1)
_cell_length_b                   9.404(8)
_cell_length_c                   6.768(4)
_cell_angle_alpha                95.08
_cell_angle_beta                 103.23
_cell_angle_gamma                87.47
_cell_volume                     892.109
loop_
_atom_site_label
_atom_site_type_symbol
_atom_site_fract_x
_atom_site_fract_y
_atom_site_fract_z
Np1 Np 0.2538(1) 0.0166(1) 0.2317(1)
C1 C 0.0297(3) 0.3570(4) -0.0238(6)
C2 C 0.0920(3) 0.4585(4) 0.0894(6)
C3 C -0.0634(3) 0.3985(4) -0.1141(6)
C4 C 0.0673(3) 0.2071(4) -0.0551(7)
C5 C -0.1354(3) 0.2943(4) -0.2302(7)
C6 C 0.4032(3) 0.5170(4) 0.4263(7)
C7 C 0.4445(3) 0.3802(4) 0.4322(6)
C8 C 0.4050(3) 0.7789(4) 0.4914(6)
C9 C 0.4576(3) 0.6374(4) 0.4949(6)
C10 C 0.3810(3) 0.2560(4) 0.3641(7)
O1 O 0.2851(3) -0.0074(4) -0.0170(5)
O2 O 0.1094(2) 0.1492(3) 0.1048(5)
O3 O -0.1459(3) 0.1838(4) -0.1427(6)
O4 O 0.2199(2) 0.0431(4) 0.4803(5)
O5 O 0.3008(2) 0.2740(4) 0.2439(6)
O6 O 0.0565(3) 0.1522(4) -0.2319(5)
O7 O 0.3960(3) 0.8438(4) 0.6543(5)
O8 O -0.1822(3) 0.3249(4) -0.4004(5)
O9 O 0.4066(2) 0.1358(3) 0.4304(6)
O10 O 0.3662(2) 0.8174(3) 0.3147(5)
H1 H 0.1580(43) 0.4245(64) 0.1526(91)
H2 H 0.3337(47) 0.5330(69) 0.3911(99)
C3A C 0.0634(3) 0.6015(4) 0.1141(6)
C1A C -0.0297(3) 0.6430(4) 0.0238(6)
C2A C -0.0920(3) 0.5415(4) -0.0894(6)
H1A H -0.1580(43) 0.5755(64) -0.1526(91)
C4A C -0.0673(3) 0.7929(4) 0.0551(7)
O2A O -0.1094(2) 0.8508(3) -0.1048(5)
O6A O -0.0565(3) 0.8478(4) 0.2319(5)
C5A C 0.1354(3) 0.7057(4) 0.2302(7)
O3A O 0.1459(3) 0.8162(4) 0.1427(6)
O8A O 0.1822(3) 0.6751(4) 0.4004(5)
C9A C 0.5424(3) 0.3626(4) 0.5051(6)
C6A C 0.5968(3) 0.4830(4) 0.5737(7)
C7A C 0.5555(3) 0.6198(4) 0.5678(6)
C10A C 0.6190(3) 0.7440(4) 0.6359(7)
O5A O 0.6992(2) 0.7260(4) 0.7561(6)
O9A O 0.5934(2) 0.8642(3) 0.5696(6)
H2A H 0.6663(47) 0.4670(69) 0.6089(99)
C8A C 0.5950(3) 0.2211(4) 0.5086(6)
O7A O 0.6040(3) 0.1562(4) 0.3457(5)
O10A O 0.6338(2) 0.1826(3) 0.6853(5)
Np1A Np -0.2538(1) 0.9834(1) -0.2317(1)
O3A_2 O 0.1459(3) -0.1838(4) 0.1427(6)
O10_2 O 0.3662(2) -0.1826(3) 0.3147(5)
Np1A_2 Np -0.2538(1) -0.0166(1) -0.2317(1)
Np1_2 Np 0.2538(1) 1.0166(1) 0.2317(1)
Np1A_3 Np 0.7462(1) 0.9834(1) 0.7683(1)
Np1A_4 Np 0.7462(1) -0.0166(1) 0.7683(1)
O1_2 O 0.2851(3) 0.9926(4) -0.0170(5)
O2_2 O 0.1094(2) 1.1492(3) 0.1048(5)
O4_2 O 0.2199(2) 1.0431(4) 0.4803(5)
O5_2 O 0.3008(2) 1.2740(4) 0.2439(6)
O9_2 O 0.4066(2) 1.1358(3) 0.4304(6)
Na1 Na 0.6341(2) 0.9055(3) 0.2423(4)
Na2 Na 0.7683(2) 0.1735(3) 0.3113(3)
Na3 Na 0.0791(2) 0.2048(3) 0.4539(4)
O11 O 0.4959(4) 0.8075(8) 0.0501(8)
O12 O 0.7141(5) 0.3584(6) 0.0921(10)
O13 O 0.9261(3) 0.1397(4) 0.2690(6)
O14 O 0.8879(6) 0.5535(7) 0.4335(9)
O15 O 0.7056(8) 0.6697(8) 0.1669(12)
O16 O 0.5000 0.5000 0.0000
loop_
_geom_bond_atom_site_label_1
_geom_bond_atom_site_label_2
_geom_bond_site_symmetry_1
_geom_bond_site_symmetry_2
Np1 O1 1_555 1_555
C1 C2 1_555 1_555
C2 H1 1_555 1_555
C3 C1 1_555 1_555
C4 C1 1_555 1_555
C5 C3 1_555 1_555
C6 C7 1_555 1_555
C7 C10 1_555 1_555
C8 C9 1_555 1_555
C9 C6 1_555 1_555
C10 O5 1_555 1_555
O2 Np1 1_555 1_555
O3 C5 1_555 1_555
O4 Np1 1_555 1_555
O5 Np1 1_555 1_555
O6 C4 1_555 1_555
O7 C8 1_555 1_555
O8 C5 1_555 1_555
O9 Np1 1_555 1_555
O10 C8 1_555 1_555
H2 C6 1_555 1_555
C3A C2 1_555 1_555
C1A C3A 1_555 1_555
C2A C3 1_555 1_555
H1A C2A 1_555 1_555
C4A C1A 1_555 1_555
O2A C4A 1_555 1_555
O6A C4A 1_555 1_555
C5A C3A 1_555 1_555
O3A C5A 1_555 1_555
O8A C5A 1_555 1_555
C9A C7 1_555 1_555
C6A C9A 1_555 1_555
C7A C9 1_555 1_555
C10A C7A 1_555 1_555
O5A C10A 1_555 1_555
O9A C10A 1_555 1_555
H2A C6A 1_555 1_555
C8A C9A 1_555 1_555
O7A C8A 1_555 1_555
O10A C8A 1_555 1_555
Np1A O2A 1_555 1_555
O3A_2 Np1 1_555 1_555
O10_2 Np1 1_555 1_555
Np1A_2 O3 1_555 1_555
Np1_2 O10 1_555 1_555
Np1A_3 O5A 1_555 1_555
Np1A_4 O10A 1_555 1_555
O1_2 Np1_2 1_555 1_555
O2_2 Np1_2 1_555 1_555
O4_2 Np1_2 1_555 1_555
O5_2 Np1_2 1_555 1_555
O9_2 Np1_2 1_555 1_555
C4 O2 1_555 1_555
C10 O9 1_555 1_555
C1A C2A 1_555 1_555
O3A Np1_2 1_555 1_555
C6A C7A 1_555 1_555
O9A Np1A_3 1_555 1_555

#END
