
#######################################################################
#
#                 Cambridge Crystallographic Data Centre
#                                CCDC 
#
#######################################################################
#
# If this CIF has been generated from an entry in the Cambridge 
# Structural Database, then it will include bibliographic, chemical, 
# crystal, experimental, refinement or atomic coordinate data resulting 
# from the CCDC's data processing and validation procedures.
#
#######################################################################

data_CIXVUA10
_symmetry_cell_setting           monoclinic
_symmetry_space_group_name_H-M   'C 2/c'
_symmetry_Int_Tables_number      15
_space_group_name_Hall           '-C 2yn'
loop_
_symmetry_equiv_pos_site_id
_symmetry_equiv_pos_as_xyz
1 x,y,z
2 1/2+x,1/2+y,z
3 -x,y,1/2-z
4 1/2-x,1/2+y,1/2-z
5 -x,-y,-z
6 1/2-x,1/2-y,-z
7 x,-y,1/2+z
8 1/2+x,1/2-y,1/2+z
_cell_length_a                   12.53(1)
_cell_length_b                   11.58(2)
_cell_length_c                   17.81(2)
_cell_angle_alpha                90
_cell_angle_beta                 105.79
_cell_angle_gamma                90
_cell_volume                     2486.67
loop_
_atom_site_label
_atom_site_type_symbol
_atom_site_fract_x
_atom_site_fract_y
_atom_site_fract_z
Np1 Np 0.13767(4) 0.02285(4) 0.24677(3)
C1 C 0.3844(10) 0.1481(10) 0.3478(7)
C2 C 0.3903(9) -0.0945(10) 0.3515(7)
C3 C 0.4434(9) 0.0853(9) 0.2954(6)
C4 C 0.4451(8) -0.0357(9) 0.2965(6)
C5 C 0.5000 -0.2243(14) 0.2500
C6 C 0.5000 -0.0937(13) 0.2500
C7 C 0.5000 0.1453(14) 0.2500
C8 C 0.5000 0.2730(14) 0.2500
O1 O 0.4361(8) 0.1855(9) 0.4104(6)
O2 O 0.4490(7) -0.1340(7) 0.4131(5)
O3 O 0.2763(7) 0.1491(7) 0.3227(6)
O4 O 0.2825(6) -0.0927(7) 0.3320(5)
O5 O 0.5760(7) -0.2789(7) 0.2268(5)
O6 O 0.5795(7) 0.3284(7) 0.2312(5)
O7 O 0.1951(7) 0.0124(8) 0.1615(5)
O8 O -0.0613(6) 0.0253(7) 0.1737(4)
Np1B Np -0.13767(4) 0.02285(4) 0.25323(3)
O8B O 0.0613(6) 0.0253(7) 0.3263(4)
O5A O 0.0760(7) 0.2211(7) 0.2268(5)
O5B O 0.4240(7) -0.2789(7) 0.2732(5)
C4B C 0.5549(8) -0.0357(9) 0.2035(6)
C3B C 0.5566(9) 0.0853(9) 0.2046(6)
O6A O 0.0795(7) -0.1716(7) 0.2312(5)
O6B O 0.4205(7) 0.3284(7) 0.2688(5)
C1B C 0.6156(10) 0.1481(10) 0.1522(7)
C2B C 0.6097(9) -0.0945(10) 0.1485(7)
Np1A Np 0.63767(4) -0.47715(4) 0.24677(3)
Np1C Np 0.36233(4) -0.47715(4) 0.25323(3)
Np1A_2 Np 0.63767(4) 0.52285(4) 0.24677(3)
Np1C_2 Np 0.36233(4) 0.52285(4) 0.25323(3)
O1B O 0.5639(8) 0.1855(9) 0.0896(6)
O3B O 0.7237(7) 0.1491(7) 0.1773(6)
O2B O 0.5510(7) -0.1340(7) 0.0869(5)
O4B O 0.7175(6) -0.0927(7) 0.1680(5)
Np1B_2 Np 0.86233(4) 0.02285(4) 0.25323(3)
O3B_2 O -0.2763(7) 0.1491(7) 0.1773(6)
O4B_2 O -0.2825(6) -0.0927(7) 0.1680(5)
O5C O -0.0760(7) 0.2211(7) 0.2732(5)
O6C O -0.0795(7) -0.1716(7) 0.2688(5)
O7B O -0.1951(7) 0.0124(8) 0.3385(5)
Na1 Na 0.3872(5) 0.2160(6) 0.0132(3)
Na2 Na 0.7077(7) 0.3313(7) 0.0769(4)
O9 O 0.2727(8) 0.2135(8) 0.0957(6)
O10 O 0.3282(10) 0.9792(10) 0.0205(7)
O11 O 0.8694(9) 0.2140(10) 0.0632(7)
O12 O 0.4317(15) 0.4219(16) 0.0310(11)
loop_
_geom_bond_atom_site_label_1
_geom_bond_atom_site_label_2
_geom_bond_site_symmetry_1
_geom_bond_site_symmetry_2
Np1 O3 1_555 1_555
C1 C3 1_555 1_555
C2 C4 1_555 1_555
C3 C4 1_555 1_555
C4 C6 1_555 1_555
C5 C6 1_555 1_555
C6 C4B 1_555 1_555
C7 C3 1_555 1_555
C8 C7 1_555 1_555
O1 C1 1_555 1_555
O2 C2 1_555 1_555
O3 C1 1_555 1_555
O4 Np1 1_555 1_555
O5 C5 1_555 1_555
O6 C8 1_555 1_555
O7 Np1 1_555 1_555
O8 Np1 1_555 1_555
Np1B O8 1_555 1_555
O8B Np1 1_555 1_555
O5A Np1 1_555 1_555
O5B C5 1_555 1_555
C4B C3B 1_555 1_555
C3B C7 1_555 1_555
O6A Np1 1_555 1_555
O6B C8 1_555 1_555
C1B C3B 1_555 1_555
C2B C4B 1_555 1_555
Np1A O5 1_555 1_555
Np1C O5B 1_555 1_555
Np1A_2 O6 1_555 1_555
Np1C_2 O6B 1_555 1_555
O1B C1B 1_555 1_555
O3B C1B 1_555 1_555
O2B C2B 1_555 1_555
O4B C2B 1_555 1_555
Np1B_2 O3B 1_555 1_555
O3B_2 Np1B 1_555 1_555
O4B_2 Np1B 1_555 1_555
O5C Np1B 1_555 1_555
O6C Np1B 1_555 1_555
O7B Np1B 1_555 1_555
C2 O4 1_555 1_555
Np1B O8B 1_555 1_555
O4B Np1B_2 1_555 1_555

#END
