
#######################################################################
#
#                 Cambridge Crystallographic Data Centre
#                                CCDC 
#
#######################################################################
#
# If this CIF has been generated from an entry in the Cambridge 
# Structural Database, then it will include bibliographic, chemical, 
# crystal, experimental, refinement or atomic coordinate data resulting 
# from the CCDC's data processing and validation procedures.
#
#######################################################################

data_CIXXIQ
_symmetry_cell_setting           monoclinic
_symmetry_space_group_name_H-M   'P 21/n'
_symmetry_Int_Tables_number      14
_space_group_name_Hall           '-P 2yn'
loop_
_symmetry_equiv_pos_site_id
_symmetry_equiv_pos_as_xyz
1 x,y,z
2 1/2-x,1/2+y,1/2-z
3 -x,-y,-z
4 1/2+x,1/2-y,1/2+z
_cell_length_a                   19.57(2)
_cell_length_b                   4.633(3)
_cell_length_c                   9.355(7)
_cell_angle_alpha                90
_cell_angle_beta                 90.85(7)
_cell_angle_gamma                90
_cell_volume                     848.104
loop_
_atom_site_label
_atom_site_type_symbol
_atom_site_fract_x
_atom_site_fract_y
_atom_site_fract_z
Ag1 Ag 0.29728(4) 0.1394(1) 0.29792(7)
I1 I 0.15094(3) 0.1423(1) 0.33868(5)
N1 N 0.3411(4) 0.131(2) 0.5301(7)
C1 C 0.3939(5) -0.029(2) 0.5732(9)
C2 C 0.4212(5) -0.037(2) 0.7084(10)
C3 C 0.4842(6) -0.220(3) 0.7403(16)
C4 C 0.3893(6) 0.125(2) 0.8103(10)
C5 C 0.3327(6) 0.300(2) 0.7686(10)
C6 C 0.3090(6) 0.290(2) 0.6331(9)
H1 H 0.414 -0.151 0.502
H2 H 0.405 0.121 0.910
H3 H 0.311 0.424 0.838
H4 H 0.268 0.396 0.606
H5 H 0.474 -0.412 0.717
H6 H 0.520 -0.152 0.679
H7 H 0.496 -0.206 0.840
I1A I 0.34906(3) 0.6423(1) 0.16132(5)
I1A_2 I 0.34906(3) -0.3577(1) 0.16132(5)
Ag1A Ag 0.20272(4) 0.6394(1) 0.20208(7)
Ag1A_2 Ag 0.20272(4) -0.3606(1) 0.20208(7)
Ag1_2 Ag 0.29728(4) 1.1394(1) 0.29792(7)
I1_2 I 0.15094(3) 1.1423(1) 0.33868(5)
N1A N 0.1589(4) 0.631(2) -0.0301(7)
C1A C 0.1061(5) 0.471(2) -0.0732(9)
C6A C 0.1910(6) 0.790(2) -0.1331(9)
C2A C 0.0788(5) 0.463(2) -0.2084(10)
H1A H 0.086 0.349 -0.002
C5A C 0.1673(6) 0.800(2) -0.2686(10)
H4A H 0.232 0.896 -0.106
C3A C 0.0158(6) 0.280(3) -0.2403(16)
C4A C 0.1107(6) 0.625(2) -0.3103(10)
H3A H 0.189 0.924 -0.338
H5A H 0.026 0.088 -0.217
H6A H -0.020 0.348 -0.179
H7A H 0.004 0.294 -0.340
H2A H 0.095 0.621 -0.410
loop_
_geom_bond_atom_site_label_1
_geom_bond_atom_site_label_2
_geom_bond_site_symmetry_1
_geom_bond_site_symmetry_2
Ag1 I1 1_555 1_555
I1 Ag1A 1_555 1_555
N1 Ag1 1_555 1_555
C1 N1 1_555 1_555
C2 C1 1_555 1_555
C3 C2 1_555 1_555
C4 C2 1_555 1_555
C5 C4 1_555 1_555
C6 N1 1_555 1_555
H1 C1 1_555 1_555
H2 C4 1_555 1_555
H3 C5 1_555 1_555
H4 C6 1_555 1_555
H5 C3 1_555 1_555
H6 C3 1_555 1_555
H7 C3 1_555 1_555
I1A Ag1 1_555 1_555
I1A_2 Ag1 1_555 1_555
Ag1A I1A 1_555 1_555
Ag1A_2 I1 1_555 1_555
Ag1_2 I1A 1_555 1_555
I1_2 Ag1A 1_555 1_555
N1A Ag1A 1_555 1_555
C1A N1A 1_555 1_555
C6A N1A 1_555 1_555
C2A C1A 1_555 1_555
H1A C1A 1_555 1_555
C5A C6A 1_555 1_555
H4A C6A 1_555 1_555
C3A C2A 1_555 1_555
C4A C2A 1_555 1_555
H3A C5A 1_555 1_555
H5A C3A 1_555 1_555
H6A C3A 1_555 1_555
H7A C3A 1_555 1_555
H2A C4A 1_555 1_555
C5 C6 1_555 1_555
C5A C4A 1_555 1_555

#END
