
#######################################################################
#
#                 Cambridge Crystallographic Data Centre
#                                CCDC 
#
#######################################################################
#
# If this CIF has been generated from an entry in the Cambridge 
# Structural Database, then it will include bibliographic, chemical, 
# crystal, experimental, refinement or atomic coordinate data resulting 
# from the CCDC's data processing and validation procedures.
#
#######################################################################

data_CIYDAP
_symmetry_cell_setting           triclinic
_symmetry_space_group_name_H-M   'P -1'
_symmetry_Int_Tables_number      2
_space_group_name_Hall           '-P 1'
loop_
_symmetry_equiv_pos_site_id
_symmetry_equiv_pos_as_xyz
1 x,y,z
2 -x,-y,-z
_cell_length_a                   5.063(1)
_cell_length_b                   10.294(1)
_cell_length_c                   11.640(1)
_cell_angle_alpha                68.35(1)
_cell_angle_beta                 83.32(1)
_cell_angle_gamma                86.85(1)
_cell_volume                     559.987
loop_
_atom_site_label
_atom_site_type_symbol
_atom_site_fract_x
_atom_site_fract_y
_atom_site_fract_z
Cu1 Cu 0.05191(7) 0.17268(4) 0.23789(3)
N1 N 0.2070(5) -0.0222(3) 0.2913(2)
C1 C 0.1150(6) -0.1335(3) 0.3896(3)
C2 C 0.2509(7) -0.2586(3) 0.4206(3)
C3 C 0.4845(7) -0.2638(4) 0.3498(3)
N2 N 0.5809(5) -0.1538(3) 0.2506(3)
C4 C 0.4363(6) -0.0393(3) 0.2275(3)
C5 C 0.5203(6) 0.0893(3) 0.1181(3)
N3 N 0.7418(5) 0.0832(3) 0.0463(3)
C6 C 0.7990(7) 0.2008(4) -0.0522(3)
C7 C 0.6412(7) 0.3198(4) -0.0771(3)
C8 C 0.4204(6) 0.3164(3) 0.0039(3)
N4 N 0.3583(5) 0.1983(3) 0.1029(2)
N5 N -0.2539(5) 0.1092(3) 0.3630(3)
N6 N -0.4571(5) 0.1751(3) 0.3630(2)
N7 N -0.6559(5) 0.2337(3) 0.3655(3)
N8 N -0.0792(6) 0.3629(3) 0.1615(3)
N9 N -0.1139(5) 0.4322(3) 0.2247(3)
N10 N -0.1458(8) 0.5036(3) 0.2807(3)
H1 H -0.0463(6) -0.1316(3) 0.4409(3)
H2 H 0.1840(7) -0.3496(3) 0.4968(3)
H3 H 0.9538(7) 0.2102(4) -0.1119(3)
H4 H 0.6864(7) 0.4124(4) -0.1569(3)
H5 H 0.3174(6) 0.4051(3) -0.0169(3)
H6 H 0.5742(7) -0.3579(4) 0.3791(3)
N7_2 N 0.3441(5) 0.2337(3) 0.3655(3)
Cu1_2 Cu -0.94809(7) 0.17268(4) 0.23789(3)
loop_
_geom_bond_atom_site_label_1
_geom_bond_atom_site_label_2
_geom_bond_site_symmetry_1
_geom_bond_site_symmetry_2
Cu1 N1 1_555 1_555
N1 C1 1_555 1_555
C1 C2 1_555 1_555
C2 C3 1_555 1_555
C3 N2 1_555 1_555
N2 C4 1_555 1_555
C4 N1 1_555 1_555
C5 C4 1_555 1_555
N3 C5 1_555 1_555
C6 N3 1_555 1_555
C7 C6 1_555 1_555
C8 C7 1_555 1_555
N4 Cu1 1_555 1_555
N5 Cu1 1_555 1_555
N6 N5 1_555 1_555
N7 N6 1_555 1_555
N8 Cu1 1_555 1_555
N9 N8 1_555 1_555
N10 N9 1_555 1_555
H1 C1 1_555 1_555
H2 C2 1_555 1_555
H3 C6 1_555 1_555
H4 C7 1_555 1_555
H5 C8 1_555 1_555
H6 C3 1_555 1_555
N7_2 Cu1 1_555 1_555
Cu1_2 N7 1_555 1_555
C5 N4 1_555 1_555
C8 N4 1_555 1_555

#END
