
#######################################################################
#
#                 Cambridge Crystallographic Data Centre
#                                CCDC 
#
#######################################################################
#
# If this CIF has been generated from an entry in the Cambridge 
# Structural Database, then it will include bibliographic, chemical, 
# crystal, experimental, refinement or atomic coordinate data resulting 
# from the CCDC's data processing and validation procedures.
#
#######################################################################

data_CIYDAP01
_symmetry_cell_setting           triclinic
_symmetry_space_group_name_H-M   'P -1'
_symmetry_Int_Tables_number      2
_space_group_name_Hall           '-P 1'
loop_
_symmetry_equiv_pos_site_id
_symmetry_equiv_pos_as_xyz
1 x,y,z
2 -x,-y,-z
_cell_length_a                   5.0128(7)
_cell_length_b                   10.190(2)
_cell_length_c                   11.578(3)
_cell_angle_alpha                68.329(14)
_cell_angle_beta                 84.065(14)
_cell_angle_gamma                87.645(11)
_cell_volume                     546.66
loop_
_atom_site_label
_atom_site_type_symbol
_atom_site_fract_x
_atom_site_fract_y
_atom_site_fract_z
Cu1 Cu -0.44867(9) 0.17203(5) 0.23784(4)
N1 N -0.1556(6) 0.2368(3) 0.3634(3)
N2 N 0.0432(6) 0.1754(3) 0.3630(3)
N3 N 0.2453(6) 0.1075(3) 0.3650(3)
N4 N -0.5832(7) 0.3632(3) 0.1599(3)
N5 N -0.6131(6) 0.4336(3) 0.2232(3)
N6 N -0.6409(8) 0.5068(4) 0.2796(4)
N7 N -0.2956(6) -0.0246(3) 0.2928(3)
N8 N 0.0813(6) -0.1571(3) 0.2537(3)
N9 N -0.1436(6) 0.1997(3) 0.1018(3)
N10 N 0.2429(6) 0.0832(4) 0.0460(3)
C1 C -0.0643(7) -0.0398(4) 0.2275(3)
C2 C -0.0142(8) -0.2678(4) 0.3529(4)
C3 C -0.2499(8) -0.2625(4) 0.4236(4)
C4 C -0.3877(7) -0.1364(4) 0.3909(3)
C5 C 0.0198(7) 0.0878(4) 0.1184(3)
C6 C 0.2962(7) 0.2026(5) -0.0535(4)
C7 C 0.1391(8) 0.3216(4) -0.0795(3)
C8 C -0.0828(8) 0.3166(4) 0.0029(3)
H1 H 0.0829 -0.3518 0.3750
H2 H -0.3137 -0.3414 0.4910
H3 H -0.5462 -0.1291 0.4375
H4 H 0.4479 0.2047 -0.1076
H5 H 0.1806 0.4022 -0.1498
H6 H -0.1917 0.3961 -0.0107
N3_2 N -0.7547(6) 0.1075(3) 0.3650(3)
Cu1_2 Cu 0.55133(9) 0.17203(5) 0.23784(4)
loop_
_geom_bond_atom_site_label_1
_geom_bond_atom_site_label_2
_geom_bond_site_symmetry_1
_geom_bond_site_symmetry_2
Cu1 N1 1_555 1_555
N1 N2 1_555 1_555
N2 N3 1_555 1_555
N3 Cu1_2 1_555 1_555
N4 Cu1 1_555 1_555
N5 N4 1_555 1_555
N6 N5 1_555 1_555
N7 Cu1 1_555 1_555
N8 C1 1_555 1_555
N9 Cu1 1_555 1_555
N10 C5 1_555 1_555
C1 N7 1_555 1_555
C2 N8 1_555 1_555
C3 C2 1_555 1_555
C4 N7 1_555 1_555
C5 N9 1_555 1_555
C6 N10 1_555 1_555
C7 C6 1_555 1_555
C8 N9 1_555 1_555
H1 C2 1_555 1_555
H2 C3 1_555 1_555
H3 C4 1_555 1_555
H4 C6 1_555 1_555
H5 C7 1_555 1_555
H6 C8 1_555 1_555
N3_2 Cu1 1_555 1_555
C1 C5 1_555 1_555
C3 C4 1_555 1_555
C7 C8 1_555 1_555

#END
