
#######################################################################
#
#                 Cambridge Crystallographic Data Centre
#                                CCDC 
#
#######################################################################
#
# If this CIF has been generated from an entry in the Cambridge 
# Structural Database, then it will include bibliographic, chemical, 
# crystal, experimental, refinement or atomic coordinate data resulting 
# from the CCDC's data processing and validation procedures.
#
#######################################################################

data_CIYKIF
_symmetry_cell_setting           monoclinic
_symmetry_space_group_name_H-M   'P 21/n'
_symmetry_Int_Tables_number      14
_space_group_name_Hall           '-P 2yn'
loop_
_symmetry_equiv_pos_site_id
_symmetry_equiv_pos_as_xyz
1 x,y,z
2 1/2-x,1/2+y,1/2-z
3 -x,-y,-z
4 1/2+x,1/2-y,1/2+z
_cell_length_a                   9.5873(16)
_cell_length_b                   13.469(2)
_cell_length_c                   21.989(4)
_cell_angle_alpha                90
_cell_angle_beta                 92.551(3)
_cell_angle_gamma                90
_cell_volume                     2836.66
loop_
_atom_site_label
_atom_site_type_symbol
_atom_site_fract_x
_atom_site_fract_y
_atom_site_fract_z
Tb1 Tb 0.26771(3) 0.43880(2) -0.224760(12)
Tb2 Tb -0.23612(3) 0.70396(2) -0.148460(11)
O1 O -0.3996(4) 0.6874(3) -0.06900(17)
O2 O -0.4436(4) 0.6340(3) 0.02422(18)
O3 O -0.1309(4) 0.3340(3) 0.04424(16)
H1 H -0.0631 0.2997 0.0369
O4 O 0.0972(4) 0.4619(3) -0.15051(16)
O5 O -0.0347(4) 0.5970(3) -0.16858(17)
O6 O 0.5709(4) 0.3018(3) -0.29717(16)
O7 O 0.4559(4) 0.3257(3) -0.21222(16)
O8 O 0.8282(4) 0.2015(3) -0.05660(16)
H2 H 0.9098 0.1871 -0.0479
O9 O 1.0435(4) 0.0287(3) -0.23903(17)
O10 O 0.8909(4) 0.0732(3) -0.31387(16)
O11 O -0.0677(4) 0.2923(3) -0.29633(17)
O12 O 0.0585(4) 0.4290(3) -0.27932(18)
O13 O -0.0423(4) 0.6257(3) -0.46809(19)
H3 H -0.0898 0.6440 -0.4980
O14 O -0.4379(5) 0.3757(3) -0.51642(18)
O15 O -0.4103(4) 0.2722(3) -0.43752(17)
O16 O 0.3994(4) 0.4779(3) -0.13176(16)
H4 H 0.4123 0.4375 -0.1022
H5 H 0.4700 0.5118 -0.1414
O17 O 0.2009(4) 0.6072(3) -0.2310(2)
H6 H 0.1218 0.6191 -0.2164
H7 H 0.2471 0.6570 -0.2428
O18 O 0.1773(4) 0.2717(3) -0.20778(19)
H8 H 0.1931 0.2508 -0.1719
H9 H 0.1146 0.2421 -0.2302
O19 O 0.3091(4) 0.3778(3) -0.32612(17)
H10 H 0.2487 0.3565 -0.3527
H11 H 0.3878 0.3477 -0.3254
N1 N -0.1935(4) 0.5607(3) -0.07865(19)
N2 N 0.7438(4) 0.1776(3) -0.24070(18)
N3 N -0.2037(5) 0.3751(3) -0.38973(19)
C1 C -0.3816(6) 0.6296(4) -0.0235(3)
C2 C -0.2739(5) 0.5488(4) -0.0314(2)
C3 C -0.2557(5) 0.4710(4) 0.0084(2)
H12 H -0.3151 0.4637 0.0404
C4 C -0.1492(6) 0.4035(4) 0.0010(2)
C5 C -0.0644(5) 0.4149(4) -0.0484(2)
H13 H 0.0075 0.3705 -0.0553
C6 C -0.0914(5) 0.4948(4) -0.0868(2)
C7 C -0.0022(6) 0.5188(4) -0.1395(2)
C8 C 0.5550(5) 0.2911(4) -0.2409(3)
C9 C 0.6660(6) 0.2347(4) -0.2058(2)
C10 C 0.6909(5) 0.2431(4) -0.1434(2)
H14 H 0.6344 0.2825 -0.1200
C11 C 0.8028(6) 0.1908(4) -0.1167(2)
C12 C 0.8843(6) 0.1303(4) -0.1527(2)
H15 H 0.9587 0.0937 -0.1359
C13 C 0.8493(6) 0.1273(4) -0.2144(2)
C14 C 0.9356(5) 0.0706(4) -0.2591(2)
C15 C -0.0301(5) 0.3785(4) -0.3079(2)
C16 C -0.0953(6) 0.4254(4) -0.3651(2)
C17 C -0.0404(6) 0.5096(4) -0.3892(3)
H16 H 0.0341 0.5424 -0.3695
C18 C -0.0998(6) 0.5451(4) -0.4443(3)
C19 C -0.2135(6) 0.4941(4) -0.4706(3)
H17 H -0.2561 0.5154 -0.5071
C20 C -0.2611(6) 0.4118(4) -0.4415(2)
C21 C -0.3799(6) 0.3497(4) -0.4673(3)
Tb1A Tb 1.23229(3) -0.06120(2) -0.275240(12)
Tb2A Tb 0.73612(3) 0.20396(2) -0.351540(11)
Tb2A_2 Tb -0.26388(3) 0.20396(2) -0.351540(11)
O6A O -0.0709(4) 0.8018(3) -0.20283(16)
O9A O 0.4565(4) 0.5287(3) -0.26097(17)
O10A O -0.3909(4) 0.5732(3) -0.18613(16)
O11A O -0.4323(4) 0.7923(3) -0.20367(17)
O15A O -0.0897(4) 0.7722(3) -0.06248(17)
N2A N -0.2438(4) 0.6776(3) -0.25930(18)
N3A N -0.2963(5) 0.8751(3) -0.11027(19)
O20 O 0.7316(7) 0.7995(5) -0.9001(3)
H18 H 0.6580 0.7889 -0.9223
H19 H 0.8010 0.7617 -0.9056
O21 O 0.6475(4) 0.2073(3) -0.92742(18)
H20 H 0.7108 0.2446 -0.9414
H21 H 0.5735 0.2376 -0.9175
loop_
_geom_bond_atom_site_label_1
_geom_bond_atom_site_label_2
_geom_bond_site_symmetry_1
_geom_bond_site_symmetry_2
Tb1 O4 1_555 1_555
Tb2 O1 1_555 1_555
O1 C1 1_555 1_555
O2 C1 1_555 1_555
O3 H1 1_555 1_555
O4 C7 1_555 1_555
O5 Tb2 1_555 1_555
O6 C8 1_555 1_555
O7 Tb1 1_555 1_555
O8 H2 1_555 1_555
O9 C14 1_555 1_555
O10 C14 1_555 1_555
O11 C15 1_555 1_555
O12 Tb1 1_555 1_555
O13 H3 1_555 1_555
O14 C21 1_555 1_555
O15 C21 1_555 1_555
O16 Tb1 1_555 1_555
H4 O16 1_555 1_555
H5 O16 1_555 1_555
O17 Tb1 1_555 1_555
H6 O17 1_555 1_555
H7 O17 1_555 1_555
O18 Tb1 1_555 1_555
H8 O18 1_555 1_555
H9 O18 1_555 1_555
O19 Tb1 1_555 1_555
H10 O19 1_555 1_555
H11 O19 1_555 1_555
N1 Tb2 1_555 1_555
N2 C9 1_555 1_555
N3 C16 1_555 1_555
C1 C2 1_555 1_555
C2 N1 1_555 1_555
C3 C2 1_555 1_555
H12 C3 1_555 1_555
C4 O3 1_555 1_555
C5 C4 1_555 1_555
H13 C5 1_555 1_555
C6 N1 1_555 1_555
C7 O5 1_555 1_555
C8 O7 1_555 1_555
C9 C8 1_555 1_555
C10 C9 1_555 1_555
H14 C10 1_555 1_555
C11 O8 1_555 1_555
C12 C11 1_555 1_555
H15 C12 1_555 1_555
C13 N2 1_555 1_555
C14 C13 1_555 1_555
C15 O12 1_555 1_555
C16 C15 1_555 1_555
C17 C16 1_555 1_555
H16 C17 1_555 1_555
C18 O13 1_555 1_555
C19 C18 1_555 1_555
H17 C19 1_555 1_555
C20 N3 1_555 1_555
C21 C20 1_555 1_555
O20 H18 1_555 1_555
H19 O20 1_555 1_555
O21 H20 1_555 1_555
H21 O21 1_555 1_555
Tb1A O9 1_555 1_555
Tb2A O6 1_555 1_555
Tb2A_2 O11 1_555 1_555
O6A Tb2 1_555 1_555
O9A Tb1 1_555 1_555
O10A Tb2 1_555 1_555
O11A Tb2 1_555 1_555
O15A Tb2 1_555 1_555
N2A Tb2 1_555 1_555
N3A Tb2 1_555 1_555
O10 Tb2A 1_555 1_555
O15 Tb2A_2 1_555 1_555
N2 Tb2A 1_555 1_555
N3 Tb2A_2 1_555 1_555
C3 C4 1_555 1_555
C5 C6 1_555 1_555
C6 C7 1_555 1_555
C10 C11 1_555 1_555
C12 C13 1_555 1_555
C17 C18 1_555 1_555
C19 C20 1_555 1_555

#END
