
#######################################################################
#
#                 Cambridge Crystallographic Data Centre
#                                CCDC 
#
#######################################################################
#
# If this CIF has been generated from an entry in the Cambridge 
# Structural Database, then it will include bibliographic, chemical, 
# crystal, experimental, refinement or atomic coordinate data resulting 
# from the CCDC's data processing and validation procedures.
#
#######################################################################

data_CIYNUU
_symmetry_cell_setting           rhombohedral
_symmetry_space_group_name_H-M   'R -3'
_symmetry_Int_Tables_number      148
_space_group_name_Hall           '-R 3'
loop_
_symmetry_equiv_pos_site_id
_symmetry_equiv_pos_as_xyz
1 x,y,z
2 -y,x-y,z
3 -x+y,-x,z
4 2/3+x,1/3+y,1/3+z
5 2/3-y,1/3+x-y,1/3+z
6 2/3-x+y,1/3-x,1/3+z
7 1/3+x,2/3+y,2/3+z
8 1/3-y,2/3+x-y,2/3+z
9 1/3-x+y,2/3-x,2/3+z
10 -x,-y,-z
11 y,-x+y,-z
12 x-y,x,-z
13 1/3-x,2/3-y,2/3-z
14 1/3+y,2/3-x+y,2/3-z
15 1/3+x-y,2/3+x,2/3-z
16 2/3-x,1/3-y,1/3-z
17 2/3+y,1/3-x+y,1/3-z
18 2/3+x-y,1/3+x,1/3-z
_cell_length_a                   38.46(1)
_cell_length_b                   38.46(1)
_cell_length_c                   20.287(6)
_cell_angle_alpha                90
_cell_angle_beta                 90
_cell_angle_gamma                120.0
_cell_volume                     25987.7
loop_
_atom_site_label
_atom_site_type_symbol
_atom_site_fract_x
_atom_site_fract_y
_atom_site_fract_z
Mn1 Mn 0.10348(5) 0.49931(5) 0.17604(8)
Mn2 Mn 0.0000 0.5000 0.5000
Mn3 Mn 0.07876(5) 0.60347(5) 0.30893(7)
N1 N 0.0884(3) 0.5427(3) 0.2175(4)
N2 N 0.0346(3) 0.5369(3) 0.4146(4)
N3 N 0.1623(3) 0.6223(3) 0.3695(5)
N4 N -0.0083(3) 0.5770(3) 0.2600(5)
N5 N 0.1225(3) 0.6712(3) 0.2026(4)
N6 N 0.0773(3) 0.6636(3) 0.4127(5)
N7 N 0.1597(3) 0.5520(3) 0.1326(5)
N8 N 0.2516(3) 0.6497(3) 0.0299(5)
N9 N 0.0743(3) 0.5021(3) 0.0798(4)
N10 N 0.0388(3) 0.5238(3) -0.1044(5)
N11 N 0.0452(3) 0.4489(3) 0.2190(4)
N12 N -0.0671(3) 0.3584(4) 0.2853(5)
N13 N 0.1373(3) 0.5023(3) 0.2704(4)
N14 N 0.1980(4) 0.5064(4) 0.4457(6)
N15 N -0.0156(3) 0.5469(3) 0.5304(5)
N16 N -0.0365(3) 0.6322(3) 0.6229(5)
N17 N -0.0591(3) 0.4699(3) 0.4408(4)
N18 N -0.1671(4) 0.4278(4) 0.3378(5)
C1 C 0.0829(3) 0.5641(3) 0.2501(5)
C2 C 0.0517(3) 0.5615(3) 0.3745(5)
C3 C 0.1320(3) 0.6155(3) 0.3472(5)
C4 C 0.0243(4) 0.5873(3) 0.2755(6)
C5 C 0.1058(3) 0.6463(3) 0.2410(5)
C6 C 0.0770(3) 0.6421(3) 0.3734(5)
C7 C 0.1783(4) 0.5909(4) 0.1547(5)
C8 C 0.2083(4) 0.6225(4) 0.1241(6)
C9 C 0.2221(4) 0.6171(4) 0.0644(6)
C10 C 0.2054(4) 0.5790(4) 0.0393(6)
C11 C 0.1758(4) 0.5483(4) 0.0752(7)
C12 C 0.2709(5) 0.6896(4) 0.0555(7)
C13 C 0.2630(4) 0.6446(4) -0.0370(8)
C14 C 0.0683(4) 0.4786(3) 0.0276(6)
C15 C 0.0565(4) 0.4841(3) -0.0337(6)
C16 C 0.0490(3) 0.5155(3) -0.0456(5)
C17 C 0.0542(3) 0.5396(3) 0.0110(5)
C18 C 0.0668(3) 0.5321(3) 0.0697(5)
C19 C 0.0311(5) 0.4970(5) -0.1612(6)
C20 C 0.0325(4) 0.5570(4) -0.1129(6)
C21 C 0.0280(4) 0.4112(4) 0.1964(6)
C22 C -0.0086(3) 0.3803(3) 0.2173(5)
C23 C -0.0299(4) 0.3882(4) 0.2637(5)
C24 C -0.0121(4) 0.4277(3) 0.2890(5)
C25 C 0.0243(3) 0.4556(3) 0.2652(5)
C26 C -0.0858(4) 0.3174(4) 0.2593(7)
C27 C -0.0919(4) 0.3675(5) 0.3274(7)
C28 C 0.1391(4) 0.5252(3) 0.3241(6)
C29 C 0.1586(4) 0.5263(4) 0.3826(5)
C30 C 0.1786(4) 0.5050(4) 0.3883(6)
C31 C 0.1770(4) 0.4822(4) 0.3348(6)
C32 C 0.1566(3) 0.4822(4) 0.2785(5)
C33 C 0.1966(6) 0.5273(6) 0.5032(8)
C34 C 0.2184(6) 0.4842(5) 0.4527(8)
C35 C 0.0102(4) 0.5865(4) 0.5260(6)
C36 C 0.0047(4) 0.6157(4) 0.5547(6)
C37 C -0.0306(4) 0.6047(4) 0.5904(6)
C38 C -0.0588(3) 0.5641(3) 0.5931(5)
C39 C -0.0501(3) 0.5376(3) 0.5629(6)
C40 C -0.0052(4) 0.6738(4) 0.6268(7)
C41 C -0.0706(4) 0.6201(4) 0.6667(7)
C42 C -0.0611(4) 0.4872(4) 0.3854(6)
C43 C -0.0953(4) 0.4748(4) 0.3490(6)
C44 C -0.1308(5) 0.4430(4) 0.3701(7)
C45 C -0.1291(4) 0.4234(4) 0.4287(7)
C46 C -0.0936(4) 0.4380(4) 0.4597(6)
C47 C -0.1690(5) 0.4479(5) 0.2797(7)
C48 C -0.2039(5) 0.3942(5) 0.3611(8)
H1 H 0.1699 0.5950 0.1971
H2 H 0.2198 0.6488 0.1439
H3 H 0.2136 0.5742 -0.0019
H4 H 0.1658 0.5216 0.0599
H5 H 0.2522 0.6979 0.0655
H6 H 0.2836 0.6894 0.0986
H7 H 0.2912 0.7074 0.0281
H8 H 0.2722 0.6692 -0.0605
H9 H 0.2394 0.6242 -0.0590
H10 H 0.2827 0.6375 -0.0353
H11 H 0.0728 0.4565 0.0325
H12 H 0.0532 0.4660 -0.0684
H13 H 0.0491 0.5612 0.0079
H14 H 0.0704 0.5495 0.1067
H15 H 0.0457 0.4838 -0.1580
H16 H 0.0027 0.4776 -0.1630
H17 H 0.0378 0.5124 -0.2012
H18 H 0.0574 0.5811 -0.1106
H19 H 0.0150 0.5563 -0.0798
H20 H 0.0207 0.5548 -0.1552
H21 H 0.0421 0.4052 0.1634
H22 H -0.0193 0.3538 0.2001
H23 H -0.0255 0.4345 0.3217
H24 H 0.0359 0.4821 0.2813
H25 H -0.0979 0.2988 0.2959
H26 H -0.1056 0.3127 0.2284
H27 H -0.0657 0.3129 0.2408
H28 H -0.0774 0.3808 0.3656
H29 H -0.1155 0.3430 0.3395
H30 H -0.0997 0.3840 0.3042
H31 H 0.1271 0.5412 0.3206
H32 H 0.1583 0.5418 0.4193
H33 H 0.1893 0.4662 0.3367
H34 H 0.1563 0.4664 0.2418
H35 H 0.2007 0.5159 0.5419
H36 H 0.1712 0.5260 0.5062
H37 H 0.2171 0.5550 0.5008
H38 H 0.2136 0.4736 0.4966
H39 H 0.2088 0.4642 0.4218
H40 H 0.2463 0.5025 0.4478
H41 H 0.0335 0.5949 0.4992
H42 H 0.0257 0.6430 0.5516
H43 H -0.0835 0.5551 0.6152
H44 H -0.0696 0.5099 0.5656
H45 H 0.0161 0.6755 0.6518
H46 H 0.0028 0.6840 0.5844
H47 H -0.0163 0.6883 0.6491
H48 H -0.0674 0.6078 0.7049
H49 H -0.0947 0.6014 0.6446
H50 H -0.0726 0.6429 0.6793
H51 H -0.0366 0.5102 0.3717
H52 H -0.0929 0.4888 0.3089
H53 H -0.1525 0.4006 0.4455
H54 H -0.0925 0.4250 0.4989
H55 H -0.1604 0.4387 0.2420
H56 H -0.1944 0.4440 0.2724
H57 H -0.1499 0.4765 0.2835
H58 H -0.1988 0.3717 0.3638
H59 H -0.2245 0.3886 0.3335
H60 H -0.2081 0.4001 0.4048
Mn1I Mn -0.10348(5) 0.50069(5) 0.82396(8)
Mn1P Mn 0.16598(5) 0.72916(7) 0.15729(8)
Mn1G Mn -0.16598(5) 0.27084(7) 0.84271(8)
Mn3I Mn -0.07876(5) 0.39653(5) 0.69107(7)
N1I N -0.0884(3) 0.4573(3) 0.7825(4)
N2I N -0.0346(3) 0.4631(3) 0.5854(4)
N3I N -0.1623(3) 0.3777(3) 0.6305(5)
N4I N 0.0083(3) 0.4230(3) 0.7400(5)
N5I N -0.1225(3) 0.3288(3) 0.7974(4)
N5Q N 0.1180(4) 0.4558(3) 0.1307(4)
N5H N -0.1180(4) 0.5442(3) 0.8693(4)
N6I N -0.0773(3) 0.3364(3) 0.5873(5)
N7I N -0.1597(3) 0.4480(3) 0.8674(5)
N8I N -0.2516(3) 0.3503(3) 0.9701(5)
N9I N -0.0743(3) 0.4979(3) 0.9202(4)
N10I N -0.0388(3) 0.4762(3) 1.1044(5)
N11I N -0.0452(3) 0.5511(3) 0.7810(4)
N12I N 0.0671(3) 0.6416(4) 0.7147(5)
N13I N -0.1373(3) 0.4977(3) 0.7296(4)
N14I N -0.1980(4) 0.4936(4) 0.5543(6)
N15I N 0.0156(3) 0.4531(3) 0.4696(5)
N16I N 0.0365(3) 0.3678(3) 0.3771(5)
N17I N 0.0591(3) 0.5301(3) 0.5592(4)
N18I N 0.1671(4) 0.5722(4) 0.6622(5)
C1I C -0.0829(3) 0.4359(3) 0.7499(5)
C2I C -0.0517(3) 0.4385(3) 0.6255(5)
C3I C -0.1320(3) 0.3845(3) 0.6528(5)
C4I C -0.0243(4) 0.4127(3) 0.7245(6)
C5I C -0.1058(3) 0.3537(3) 0.7590(5)
C6I C -0.0770(3) 0.3579(3) 0.6266(5)
C7I C -0.1783(4) 0.4091(4) 0.8453(5)
C8I C -0.2083(4) 0.3775(4) 0.8759(6)
C9I C -0.2221(4) 0.3829(4) 0.9356(6)
C10I C -0.2054(4) 0.4210(4) 0.9607(6)
C11I C -0.1758(4) 0.4517(4) 0.9248(7)
C12I C -0.2709(5) 0.3104(4) 0.9445(7)
C13I C -0.2630(4) 0.3554(4) 1.0370(8)
C14I C -0.0683(4) 0.5214(3) 0.9724(6)
C15I C -0.0565(4) 0.5159(3) 1.0337(6)
C16I C -0.0490(3) 0.4845(3) 1.0456(5)
C17I C -0.0542(3) 0.4604(3) 0.9890(5)
C18I C -0.0668(3) 0.4679(3) 0.9303(5)
C19I C -0.0311(5) 0.5030(5) 1.1612(6)
C20I C -0.0325(4) 0.4430(4) 1.1129(6)
C21I C -0.0280(4) 0.5888(4) 0.8036(6)
C22I C 0.0086(3) 0.6197(3) 0.7827(5)
C23I C 0.0299(4) 0.6118(4) 0.7363(5)
C24I C 0.0121(4) 0.5723(3) 0.7110(5)
C25I C -0.0243(3) 0.5444(3) 0.7348(5)
C26I C 0.0858(4) 0.6826(4) 0.7407(7)
C27I C 0.0919(4) 0.6325(5) 0.6726(7)
C28I C -0.1391(4) 0.4748(3) 0.6759(6)
C29I C -0.1586(4) 0.4737(4) 0.6174(5)
C30I C -0.1786(4) 0.4950(4) 0.6117(6)
C31I C -0.1770(4) 0.5178(4) 0.6652(6)
C32I C -0.1566(3) 0.5178(4) 0.7215(5)
C33I C -0.1966(6) 0.4727(6) 0.4968(8)
C34I C -0.2184(6) 0.5158(5) 0.5473(8)
C35I C -0.0102(4) 0.4135(4) 0.4740(6)
C36I C -0.0047(4) 0.3843(4) 0.4453(6)
C37I C 0.0306(4) 0.3953(4) 0.4096(6)
C38I C 0.0588(3) 0.4359(3) 0.4069(5)
C39I C 0.0501(3) 0.4624(3) 0.4371(6)
C40I C 0.0052(4) 0.3262(4) 0.3732(7)
C41I C 0.0706(4) 0.3799(4) 0.3333(7)
C42I C 0.0611(4) 0.5128(4) 0.6146(6)
C43I C 0.0953(4) 0.5252(4) 0.6510(6)
C44I C 0.1308(5) 0.5570(4) 0.6299(7)
C45I C 0.1291(4) 0.5766(4) 0.5713(7)
C46I C 0.0936(4) 0.5620(4) 0.5403(6)
C47I C 0.1690(5) 0.5521(5) 0.7203(7)
C48I C 0.2039(5) 0.6058(5) 0.6389(8)
H1I H -0.1699 0.4050 0.8029
H2I H -0.2198 0.3512 0.8561
H3I H -0.2136 0.4258 1.0019
H4I H -0.1658 0.4784 0.9401
H5I H -0.2522 0.3021 0.9345
H6I H -0.2836 0.3106 0.9014
H7I H -0.2912 0.2926 0.9719
H8I H -0.2722 0.3308 1.0605
H9I H -0.2394 0.3758 1.0590
H10I H -0.2827 0.3625 1.0353
H11I H -0.0728 0.5435 0.9675
H12I H -0.0532 0.5340 1.0684
H13I H -0.0491 0.4388 0.9921
H14I H -0.0704 0.4505 0.8933
H15I H -0.0457 0.5162 1.1580
H16I H -0.0027 0.5224 1.1630
H17I H -0.0378 0.4876 1.2012
H18I H -0.0574 0.4189 1.1106
H19I H -0.0150 0.4437 1.0798
H20I H -0.0207 0.4452 1.1552
H21I H -0.0421 0.5948 0.8366
H22I H 0.0193 0.6462 0.7999
H23I H 0.0255 0.5655 0.6783
H24I H -0.0359 0.5179 0.7187
H25I H 0.0979 0.7012 0.7041
H26I H 0.1056 0.6873 0.7716
H27I H 0.0657 0.6871 0.7592
H28I H 0.0774 0.6192 0.6344
H29I H 0.1155 0.6570 0.6605
H30I H 0.0997 0.6160 0.6958
H31I H -0.1271 0.4588 0.6794
H32I H -0.1583 0.4582 0.5807
H33I H -0.1893 0.5338 0.6633
H34I H -0.1563 0.5336 0.7582
H35I H -0.2007 0.4841 0.4581
H36I H -0.1712 0.4740 0.4938
H37I H -0.2171 0.4450 0.4992
H38I H -0.2136 0.5264 0.5034
H39I H -0.2088 0.5358 0.5782
H40I H -0.2463 0.4975 0.5522
H41I H -0.0335 0.4051 0.5008
H42I H -0.0257 0.3570 0.4484
H43I H 0.0835 0.4449 0.3848
H44I H 0.0696 0.4901 0.4344
H45I H -0.0161 0.3245 0.3482
H46I H -0.0028 0.3160 0.4156
H47I H 0.0163 0.3117 0.3509
H48I H 0.0674 0.3922 0.2951
H49I H 0.0947 0.3986 0.3554
H50I H 0.0726 0.3571 0.3207
H51I H 0.0366 0.4898 0.6283
H52I H 0.0929 0.5112 0.6911
H53I H 0.1525 0.5994 0.5545
H54I H 0.0925 0.5750 0.5011
H55I H 0.1604 0.5613 0.7580
H56I H 0.1944 0.5560 0.7276
H57I H 0.1499 0.5235 0.7165
H58I H 0.1988 0.6283 0.6362
H59I H 0.2245 0.6114 0.6665
H60I H 0.2081 0.5999 0.5952
O1 O 0.1123(3) 0.6948(2) 0.5366(4)
O2 O 0.2190(4) 0.6531(4) 0.4717(5)
H61 H 0.2237 0.6653 0.5120
O3 O 0.1752(4) 0.6923(4) 0.4723(6)
H62 H 0.1639 0.6632 0.4781
H63 H 0.1664 0.6988 0.5064
O4 O -0.2897(10) 0.342(1) 0.486(2)
O8 O -0.376(5) 0.342(5) 0.373(8)
O5? O -0.2888(9) 0.3156(10) 0.447(2)
O6? O -0.365(2) 0.278(2) 0.461(3)
O7? O -0.343(2) 0.359(2) 0.310(3)
O9? O -0.218(5) 0.358(5) 0.561(6)
loop_
_geom_bond_atom_site_label_1
_geom_bond_atom_site_label_2
_geom_bond_site_symmetry_1
_geom_bond_site_symmetry_2
Mn1 N1 1_555 1_555
Mn2 N2 1_555 1_555
Mn3 C1 1_555 1_555
O2 H61 1_555 1_555
O3 H62 1_555 1_555
N1 C1 1_555 1_555
N2 C2 1_555 1_555
N3 C3 1_555 1_555
N4 C4 1_555 1_555
N5 C5 1_555 1_555
N6 C6 1_555 1_555
N7 Mn1 1_555 1_555
N8 C9 1_555 1_555
N9 Mn1 1_555 1_555
N10 C16 1_555 1_555
N11 Mn1 1_555 1_555
N12 C23 1_555 1_555
N13 Mn1 1_555 1_555
N14 C30 1_555 1_555
N15 Mn2 1_555 1_555
N16 C37 1_555 1_555
N17 Mn2 1_555 1_555
N18 C44 1_555 1_555
C2 Mn3 1_555 1_555
C3 Mn3 1_555 1_555
C4 Mn3 1_555 1_555
C5 Mn3 1_555 1_555
C6 Mn3 1_555 1_555
C7 N7 1_555 1_555
C8 C7 1_555 1_555
C9 C8 1_555 1_555
C10 C9 1_555 1_555
C11 N7 1_555 1_555
C12 N8 1_555 1_555
C13 N8 1_555 1_555
C14 N9 1_555 1_555
C15 C14 1_555 1_555
C16 C15 1_555 1_555
C17 C16 1_555 1_555
C18 N9 1_555 1_555
C19 N10 1_555 1_555
C20 N10 1_555 1_555
C21 N11 1_555 1_555
C22 C21 1_555 1_555
C23 C22 1_555 1_555
C24 C23 1_555 1_555
C25 N11 1_555 1_555
C26 N12 1_555 1_555
C27 N12 1_555 1_555
C28 N13 1_555 1_555
C29 C28 1_555 1_555
C30 C29 1_555 1_555
C31 C30 1_555 1_555
C32 N13 1_555 1_555
C33 N14 1_555 1_555
C34 N14 1_555 1_555
C35 N15 1_555 1_555
C36 C35 1_555 1_555
C37 C36 1_555 1_555
C38 C37 1_555 1_555
C39 N15 1_555 1_555
C40 N16 1_555 1_555
C41 N16 1_555 1_555
C42 N17 1_555 1_555
C43 C42 1_555 1_555
C44 C43 1_555 1_555
C45 C44 1_555 1_555
C46 N17 1_555 1_555
C47 N18 1_555 1_555
C48 N18 1_555 1_555
H1 C7 1_555 1_555
H2 C8 1_555 1_555
H3 C10 1_555 1_555
H4 C11 1_555 1_555
H5 C12 1_555 1_555
H6 C12 1_555 1_555
H7 C12 1_555 1_555
H8 C13 1_555 1_555
H9 C13 1_555 1_555
H10 C13 1_555 1_555
H11 C14 1_555 1_555
H12 C15 1_555 1_555
H13 C17 1_555 1_555
H14 C18 1_555 1_555
H15 C19 1_555 1_555
H16 C19 1_555 1_555
H17 C19 1_555 1_555
H18 C20 1_555 1_555
H19 C20 1_555 1_555
H20 C20 1_555 1_555
H21 C21 1_555 1_555
H22 C22 1_555 1_555
H23 C24 1_555 1_555
H24 C25 1_555 1_555
H25 C26 1_555 1_555
H26 C26 1_555 1_555
H27 C26 1_555 1_555
H28 C27 1_555 1_555
H29 C27 1_555 1_555
H30 C27 1_555 1_555
H31 C28 1_555 1_555
H32 C29 1_555 1_555
H33 C31 1_555 1_555
H34 C32 1_555 1_555
H35 C33 1_555 1_555
H36 C33 1_555 1_555
H37 C33 1_555 1_555
H38 C34 1_555 1_555
H39 C34 1_555 1_555
H40 C34 1_555 1_555
H41 C35 1_555 1_555
H42 C36 1_555 1_555
H43 C38 1_555 1_555
H44 C39 1_555 1_555
H45 C40 1_555 1_555
H46 C40 1_555 1_555
H47 C40 1_555 1_555
H48 C41 1_555 1_555
H49 C41 1_555 1_555
H50 C41 1_555 1_555
H51 C42 1_555 1_555
H52 C43 1_555 1_555
H53 C45 1_555 1_555
H54 C46 1_555 1_555
H55 C47 1_555 1_555
H56 C47 1_555 1_555
H57 C47 1_555 1_555
H58 C48 1_555 1_555
H59 C48 1_555 1_555
H60 C48 1_555 1_555
H63 O3 1_555 1_555
Mn1I N1I 1_555 1_555
Mn1P N5 1_555 1_555
Mn1G N5I 1_555 1_555
Mn3I C1I 1_555 1_555
N1I C1I 1_555 1_555
N2I Mn2 1_555 1_555
N3I C3I 1_555 1_555
N4I C4I 1_555 1_555
N5I C5I 1_555 1_555
N5Q Mn1 1_555 1_555
N5H Mn1I 1_555 1_555
N6I C6I 1_555 1_555
N7I Mn1I 1_555 1_555
N8I C9I 1_555 1_555
N9I Mn1I 1_555 1_555
N10I C16I 1_555 1_555
N11I Mn1I 1_555 1_555
N12I C23I 1_555 1_555
N13I Mn1I 1_555 1_555
N14I C30I 1_555 1_555
N15I Mn2 1_555 1_555
N16I C37I 1_555 1_555
N17I Mn2 1_555 1_555
N18I C44I 1_555 1_555
C2I Mn3I 1_555 1_555
C3I Mn3I 1_555 1_555
C4I Mn3I 1_555 1_555
C5I Mn3I 1_555 1_555
C6I Mn3I 1_555 1_555
C7I N7I 1_555 1_555
C8I C7I 1_555 1_555
C9I C8I 1_555 1_555
C10I C9I 1_555 1_555
C11I N7I 1_555 1_555
C12I N8I 1_555 1_555
C13I N8I 1_555 1_555
C14I N9I 1_555 1_555
C15I C14I 1_555 1_555
C16I C15I 1_555 1_555
C17I C16I 1_555 1_555
C18I N9I 1_555 1_555
C19I N10I 1_555 1_555
C20I N10I 1_555 1_555
C21I N11I 1_555 1_555
C22I C21I 1_555 1_555
C23I C22I 1_555 1_555
C24I C23I 1_555 1_555
C25I N11I 1_555 1_555
C26I N12I 1_555 1_555
C27I N12I 1_555 1_555
C28I N13I 1_555 1_555
C29I C28I 1_555 1_555
C30I C29I 1_555 1_555
C31I C30I 1_555 1_555
C32I N13I 1_555 1_555
C33I N14I 1_555 1_555
C34I N14I 1_555 1_555
C35I N15I 1_555 1_555
C36I C35I 1_555 1_555
C37I C36I 1_555 1_555
C38I C37I 1_555 1_555
C39I N15I 1_555 1_555
C40I N16I 1_555 1_555
C41I N16I 1_555 1_555
C42I N17I 1_555 1_555
C43I C42I 1_555 1_555
C44I C43I 1_555 1_555
C45I C44I 1_555 1_555
C46I N17I 1_555 1_555
C47I N18I 1_555 1_555
C48I N18I 1_555 1_555
H1I C7I 1_555 1_555
H2I C8I 1_555 1_555
H3I C10I 1_555 1_555
H4I C11I 1_555 1_555
H5I C12I 1_555 1_555
H6I C12I 1_555 1_555
H7I C12I 1_555 1_555
H8I C13I 1_555 1_555
H9I C13I 1_555 1_555
H10I C13I 1_555 1_555
H11I C14I 1_555 1_555
H12I C15I 1_555 1_555
H13I C17I 1_555 1_555
H14I C18I 1_555 1_555
H15I C19I 1_555 1_555
H16I C19I 1_555 1_555
H17I C19I 1_555 1_555
H18I C20I 1_555 1_555
H19I C20I 1_555 1_555
H20I C20I 1_555 1_555
H21I C21I 1_555 1_555
H22I C22I 1_555 1_555
H23I C24I 1_555 1_555
H24I C25I 1_555 1_555
H25I C26I 1_555 1_555
H26I C26I 1_555 1_555
H27I C26I 1_555 1_555
H28I C27I 1_555 1_555
H29I C27I 1_555 1_555
H30I C27I 1_555 1_555
H31I C28I 1_555 1_555
H32I C29I 1_555 1_555
H33I C31I 1_555 1_555
H34I C32I 1_555 1_555
H35I C33I 1_555 1_555
H36I C33I 1_555 1_555
H37I C33I 1_555 1_555
H38I C34I 1_555 1_555
H39I C34I 1_555 1_555
H40I C34I 1_555 1_555
H41I C35I 1_555 1_555
H42I C36I 1_555 1_555
H43I C38I 1_555 1_555
H44I C39I 1_555 1_555
H45I C40I 1_555 1_555
H46I C40I 1_555 1_555
H47I C40I 1_555 1_555
H48I C41I 1_555 1_555
H49I C41I 1_555 1_555
H50I C41I 1_555 1_555
H51I C42I 1_555 1_555
H52I C43I 1_555 1_555
H53I C45I 1_555 1_555
H54I C46I 1_555 1_555
H55I C47I 1_555 1_555
H56I C47I 1_555 1_555
H57I C47I 1_555 1_555
H58I C48I 1_555 1_555
H59I C48I 1_555 1_555
H60I C48I 1_555 1_555
C10 C11 1_555 1_555
C17 C18 1_555 1_555
C24 C25 1_555 1_555
C31 C32 1_555 1_555
C38 C39 1_555 1_555
C45 C46 1_555 1_555
N2I C2I 1_555 1_555
C10I C11I 1_555 1_555
C17I C18I 1_555 1_555
C24I C25I 1_555 1_555
C31I C32I 1_555 1_555
C38I C39I 1_555 1_555
C45I C46I 1_555 1_555

#END
