
#######################################################################
#
#                 Cambridge Crystallographic Data Centre
#                                CCDC 
#
#######################################################################
#
# If this CIF has been generated from an entry in the Cambridge 
# Structural Database, then it will include bibliographic, chemical, 
# crystal, experimental, refinement or atomic coordinate data resulting 
# from the CCDC's data processing and validation procedures.
#
#######################################################################

data_CIYZEQ
_symmetry_cell_setting           monoclinic
_symmetry_space_group_name_H-M   'C 2/c'
_symmetry_Int_Tables_number      15
_space_group_name_Hall           '-C 2yn'
loop_
_symmetry_equiv_pos_site_id
_symmetry_equiv_pos_as_xyz
1 x,y,z
2 1/2+x,1/2+y,z
3 -x,y,1/2-z
4 1/2-x,1/2+y,1/2-z
5 -x,-y,-z
6 1/2-x,1/2-y,-z
7 x,-y,1/2+z
8 1/2+x,1/2-y,1/2+z
_cell_length_a                   25.1320(7)
_cell_length_b                   5.7534(2)
_cell_length_c                   18.7976(5)
_cell_angle_alpha                90
_cell_angle_beta                 124.1530(13)
_cell_angle_gamma                90
_cell_volume                     2249.28
loop_
_atom_site_label
_atom_site_type_symbol
_atom_site_fract_x
_atom_site_fract_y
_atom_site_fract_z
Ho1 Ho 0.133817(7) 0.156907(19) 0.114675(8)
S1 S 0.19233(4) 0.50008(11) -0.06215(5)
S2 S 0.0000 0.18758(16) 0.2500
C1 C 0.13580(17) 0.6659(4) 0.0199(2)
C2 C 0.15322(16) 0.7075(5) -0.04204(19)
C3 C 0.14313(17) 0.9067(5) -0.0881(2)
H1 H 0.1208(16) 1.054(5) -0.0838(19)
C4 C 0.16491(17) 0.8887(5) -0.1416(2)
H2 H 0.161(2) 1.013(6) -0.178(2)
C5 C 0.19280(17) 0.6775(4) -0.1351(2)
C6 C 0.22462(16) 0.6012(5) -0.17760(19)
C7 C 0.05190(17) 0.3200(4) 0.1615(2)
C8 C 0.02356(17) 0.3939(5) 0.2080(2)
C9 C 0.0136(2) 0.6138(5) 0.2263(3)
H3 H 0.0303(19) 0.747(7) 0.213(2)
O1 O 0.16451(14) -0.1667(3) 0.20915(16)
H4 H 0.1416(11) -0.284(4) 0.190(2)
H5 H 0.2016(6) -0.217(5) 0.233(2)
O2 O 0.15160(12) 0.4726(3) 0.05857(14)
O3 O 0.03380(13) 0.2057(4) -0.02164(15)
H6 H 0.0184(14) 0.087(3) -0.051(2)
H7 H 0.0040(11) 0.297(4) -0.039(2)
O4 O 0.10668(13) 0.8260(3) 0.03027(16)
O5 O 0.26855(11) 0.4518(3) -0.13925(13)
O6 O 0.20689(13) 0.6896(3) -0.24934(14)
O7 O 0.07302(12) 0.4697(3) 0.13383(14)
O8 O 0.05669(12) 0.1043(3) 0.15155(14)
Ho1_2 Ho 0.133817(7) -0.843093(19) 0.114675(8)
Ho1_3 Ho 0.133817(7) 1.156907(19) 0.114675(8)
Ho1E Ho 0.366183(7) 0.343093(19) -0.114675(8)
Ho1F Ho 0.133817(7) 0.843093(19) -0.385325(8)
Ho1B Ho -0.133817(7) 0.156907(19) 0.385325(8)
Ho1E_2 Ho 0.366183(7) -0.656907(19) -0.114675(8)
Ho1F_2 Ho 0.133817(7) -0.156907(19) -0.385325(8)
S1_2 S 0.19233(4) -0.49992(11) -0.06215(5)
C1_2 C 0.13580(17) -0.3341(4) 0.0199(2)
C2_2 C 0.15322(16) -0.2925(5) -0.04204(19)
C3_2 C 0.14313(17) -0.0933(5) -0.0881(2)
H1_2 H 0.1208(16) 0.054(5) -0.0838(19)
C4_2 C 0.16491(17) -0.1113(5) -0.1416(2)
H2_2 H 0.161(2) 0.013(6) -0.178(2)
C5_2 C 0.19280(17) -0.3225(4) -0.1351(2)
C6_2 C 0.22462(16) -0.3988(5) -0.17760(19)
C7B C -0.05190(17) 0.3200(4) 0.3385(2)
C8B C -0.02356(17) 0.3939(5) 0.2920(2)
C9B C -0.0136(2) 0.6138(5) 0.2737(3)
H3B H -0.0303(19) 0.747(7) 0.287(2)
O1_2 O 0.16451(14) -1.1667(3) 0.20915(16)
H4_2 H 0.1416(11) -1.284(4) 0.190(2)
H5_2 H 0.2016(6) -1.217(5) 0.233(2)
O2_2 O 0.15160(12) -0.5274(3) 0.05857(14)
O3_2 O 0.03380(13) -0.7943(4) -0.02164(15)
H6_2 H 0.0184(14) -0.913(3) -0.051(2)
H7_2 H 0.0040(11) -0.703(4) -0.039(2)
O4_2 O 0.10668(13) -0.1740(3) 0.03027(16)
O4_3 O 0.10668(13) -1.1740(3) 0.03027(16)
O5_2 O 0.26855(11) -0.5482(3) -0.13925(13)
O5E O 0.23145(11) 0.0482(3) 0.13925(13)
O5E_2 O 0.23145(11) -0.9518(3) 0.13925(13)
O6_2 O 0.20689(13) -0.3104(3) -0.24934(14)
O6F O 0.20689(13) 0.3104(3) 0.25066(14)
O6F_2 O 0.20689(13) -0.6896(3) 0.25066(14)
O7B O -0.07302(12) 0.4697(3) 0.36617(14)
O7_2 O 0.07302(12) -0.5303(3) 0.13383(14)
O8B O -0.05669(12) 0.1043(3) 0.34845(14)
O8_2 O 0.05669(12) -0.8957(3) 0.15155(14)
loop_
_geom_bond_atom_site_label_1
_geom_bond_atom_site_label_2
_geom_bond_site_symmetry_1
_geom_bond_site_symmetry_2
Ho1 O1 1_555 1_555
S1 C2 1_555 1_555
S2 C8 1_555 1_555
C1 C2 1_555 1_555
C2 C3 1_555 1_555
C3 H1 1_555 1_555
C4 C3 1_555 1_555
H2 C4 1_555 1_555
C5 S1 1_555 1_555
C6 C5 1_555 1_555
C7 C8 1_555 1_555
C8 C9 1_555 1_555
C9 H3 1_555 1_555
O1 H4 1_555 1_555
H5 O1 1_555 1_555
O2 Ho1 1_555 1_555
O3 Ho1 1_555 1_555
H6 O3 1_555 1_555
H7 O3 1_555 1_555
O4 C1 1_555 1_555
O5 C6 1_555 1_555
O6 C6 1_555 1_555
O7 Ho1 1_555 1_555
O8 Ho1 1_555 1_555
Ho1_2 O1_2 1_555 1_555
Ho1_3 O4 1_555 1_555
Ho1E O5 1_555 1_555
Ho1F O6 1_555 1_555
Ho1B O7B 1_555 1_555
Ho1E_2 O5_2 1_555 1_555
Ho1F_2 O6_2 1_555 1_555
S1_2 C2_2 1_555 1_555
C1_2 C2_2 1_555 1_555
C2_2 C3_2 1_555 1_555
C3_2 H1_2 1_555 1_555
C4_2 C3_2 1_555 1_555
H2_2 C4_2 1_555 1_555
C5_2 S1_2 1_555 1_555
C6_2 C5_2 1_555 1_555
C7B C8B 1_555 1_555
C8B S2 1_555 1_555
C9B C9 1_555 1_555
H3B C9B 1_555 1_555
O1_2 H4_2 1_555 1_555
H5_2 O1_2 1_555 1_555
O2_2 Ho1_2 1_555 1_555
O3_2 Ho1_2 1_555 1_555
H6_2 O3_2 1_555 1_555
H7_2 O3_2 1_555 1_555
O4_2 Ho1 1_555 1_555
O4_3 Ho1_2 1_555 1_555
O5_2 C6_2 1_555 1_555
O5E Ho1 1_555 1_555
O5E_2 Ho1_2 1_555 1_555
O6_2 C6_2 1_555 1_555
O6F Ho1 1_555 1_555
O6F_2 Ho1_2 1_555 1_555
O7B C7B 1_555 1_555
O7_2 Ho1_2 1_555 1_555
O8B Ho1B 1_555 1_555
O8_2 Ho1_2 1_555 1_555
C1 O2 1_555 1_555
C4 C5 1_555 1_555
C7 O7 1_555 1_555
C7 O8 1_555 1_555
C1_2 O2_2 1_555 1_555
C1_2 O4_2 1_555 1_555
C4_2 C5_2 1_555 1_555
C7B O8B 1_555 1_555
C8B C9B 1_555 1_555

#END
