
#######################################################################
#
#                 Cambridge Crystallographic Data Centre
#                                CCDC 
#
#######################################################################
#
# If this CIF has been generated from an entry in the Cambridge 
# Structural Database, then it will include bibliographic, chemical, 
# crystal, experimental, refinement or atomic coordinate data resulting 
# from the CCDC's data processing and validation procedures.
#
#######################################################################

data_CIYZAN
_symmetry_cell_setting           monoclinic
_symmetry_space_group_name_H-M   'P 21'
_symmetry_Int_Tables_number      4
_space_group_name_Hall           'P 2yb'
loop_
_symmetry_equiv_pos_site_id
_symmetry_equiv_pos_as_xyz
1 x,y,z
2 -x,1/2+y,-z
_cell_length_a                   13.1439(2)
_cell_length_b                   18.6122(3)
_cell_length_c                   30.2319(6)
_cell_angle_alpha                90
_cell_angle_beta                 96.0250(10)
_cell_angle_gamma                90
_cell_volume                     7354.98
loop_
_atom_site_label
_atom_site_type_symbol
_atom_site_fract_x
_atom_site_fract_y
_atom_site_fract_z
O19 O 1.0297(6) 0.5333(4) 0.3910(3)
N46 N 1.0910(5) 0.4227(4) 0.3735(2)
C112 C 1.1773(6) 0.4239(6) 0.4041(3)
H142 H 1.2141 0.3782 0.4029
H143 H 1.1567 0.4307 0.4341
H144 H 1.2220 0.4634 0.3971
C113 C 1.0808(7) 0.3659(4) 0.3406(3)
H145 H 1.1319 0.3285 0.3489
H146 H 1.0917 0.3855 0.3114
H147 H 1.0121 0.3451 0.3394
C114 C 1.0264(7) 0.4818(5) 0.3691(3)
O20 O 0.572(2) 0.3054(17) 0.0230(10)
O21 O 0.6921(19) 0.4287(15) -0.0615(10)
O22 O 0.8617(11) 0.3328(8) -0.0386(7)
O23 O 0.665(3) 0.369(2) -0.0051(14)
O24 O 0.601(3) 0.546(2) -0.0387(12)
O25 O 0.406(3) 0.135(2) -0.0761(13)
O26 O 0.784(2) 0.3452(15) 0.0350(9)
O27 O 0.7275(13) 0.5562(10) -0.0926(10)
W1 W 0.561244(14) 0.483447(10) 0.288161(6)
W2 W 0.811612(14) 0.512097(10) 0.631081(6)
W3 W 1.18849(2) 0.558633(13) 0.959399(7)
Gd1 Gd 1.159319(17) 0.484022(14) 0.771661(7)
Gd2 Gd 0.683896(15) 0.639642(11) 0.454984(7)
Gd3 Gd 0.22910(2) 0.458857(13) 0.142534(8)
O1 O 1.1277(3) 0.3803(2) 0.72512(12)
O2 O 1.0094(3) 0.4373(2) 0.79803(13)
O3 O 1.0893(3) 0.6002(2) 0.78178(12)
O4 O 1.3105(3) 0.5507(3) 0.79628(14)
O5 O 0.6041(3) 0.69696(18) 0.51272(11)
O6 O 0.7653(3) 0.67787(18) 0.39247(11)
O7 O 0.7900(3) 0.54149(18) 0.44398(11)
O8 O 0.5640(2) 0.54974(18) 0.47453(11)
O9 O 0.2968(4) 0.5727(2) 0.13573(13)
O10 O 0.3797(3) 0.4186(2) 0.11493(13)
O11 O 0.0714(3) 0.5228(2) 0.11917(13)
O12 O 0.2691(3) 0.3502(2) 0.18477(13)
O13 O 1.3186(3) 0.5405(2) 0.64521(12)
O14 O 1.3959(3) 0.3168(2) 0.83540(14)
O15 O 0.0582(3) 0.5160(3) 0.26726(13)
O16 O 0.4746(3) 0.81893(18) 0.38582(12)
O17 O 0.9463(3) 0.78649(19) 0.52062(12)
O18 O 0.0055(4) 0.2807(3) 0.08293(16)
N1 N 1.1655(4) 0.5083(3) 0.85384(14)
N2 N 1.2225(6) 0.7043(4) 0.8998(2)
N3 N 1.4051(6) 0.6329(4) 1.0049(3)
N4 N 1.1131(6) 0.6824(4) 1.0274(2)
N5 N 1.3742(6) 0.4409(5) 0.9514(3)
N6 N 1.0531(5) 0.4087(4) 0.9579(2)
N7 N 0.9487(5) 0.5946(4) 0.9200(2)
N8 N 0.2219(4) 0.4898(3) 0.06061(14)
N9 N 1.0045(3) 0.5057(2) 0.71174(13)
N10 N 1.0286(3) 0.4964(2) 0.58477(14)
N11 N 0.7867(4) 0.3700(2) 0.56404(15)
N12 N 0.7473(3) 0.5828(2) 0.53141(13)
N13 N 0.5618(3) 0.4994(2) 0.60365(14)
N14 N 0.7125(4) 0.5892(3) 0.71601(17)
N15 N 0.7641(3) 0.3756(2) 0.69681(15)
N16 N 0.8918(4) 0.6812(3) 0.63447(16)
N17 N 0.5813(4) 0.3503(3) 0.36264(16)
N18 N 0.6133(4) 0.3408(3) 0.22799(17)
N19 N 0.3807(3) 0.4768(2) 0.20322(14)
N20 N 0.6791(4) 0.5543(3) 0.20613(17)
N21 N 0.6092(3) 0.5697(2) 0.38416(13)
N22 N 0.3360(4) 0.4616(3) 0.32671(15)
N23 N 0.4807(4) 0.6518(3) 0.27688(16)
N24 N 0.8093(4) 0.4598(3) 0.31551(18)
N25 N 1.2525(4) 0.3813(3) 0.81713(14)
N26 N 1.3267(3) 0.4328(2) 0.74342(14)
N27 N 1.2172(3) 0.5409(2) 0.70102(13)
N28 N 0.5386(3) 0.7133(2) 0.41325(13)
N29 N 0.7065(3) 0.7806(2) 0.45334(12)
N30 N 0.8546(3) 0.6915(2) 0.49057(13)
N31 N 0.1690(3) 0.5142(3) 0.21483(14)
N32 N 0.0641(4) 0.4045(3) 0.17209(15)
N33 N 0.1379(4) 0.3574(2) 0.09628(14)
N34 N 1.0336(3) 0.3214(2) 0.66992(14)
N35 N 0.8540(5) 0.4384(5) 0.8243(2)
N36 N 0.9469(4) 0.6649(3) 0.79134(16)
N37 N 1.4275(8) 0.5920(7) 0.8501(4)
N38 N 0.5721(3) 0.6988(2) 0.58519(15)
N39 N 0.5245(3) 0.4308(2) 0.47270(14)
N40 N 0.8421(3) 0.4268(2) 0.44307(15)
N41 N 0.8031(3) 0.6640(2) 0.32146(14)
N42 N -0.0805(6) 0.5423(4) 0.0804(3)
N43 N 0.3771(5) 0.6754(3) 0.12262(19)
N44 N 0.3514(4) 0.2835(3) 0.24001(16)
N45 N 0.5461(9) 0.4030(9) 0.1043(5)
C1 C 1.1735(5) 0.5255(3) 0.89017(18)
C2 C 1.0314(6) 0.5837(4) 0.9349(2)
C3 C 1.2109(6) 0.6531(4) 0.9213(2)
C4 C 1.1374(6) 0.6390(4) 1.0031(2)
C5 C 1.3281(7) 0.6075(4) 0.9881(3)
C6 C 0.2110(5) 0.5128(3) 0.02503(17)
C7 C 1.3106(5) 0.4829(4) 0.9530(2)
C8 C 1.1007(5) 0.4595(4) 0.95863(19)
C9 C 0.9373(4) 0.5078(3) 0.68415(16)
C10 C 0.9535(4) 0.5027(2) 0.60125(14)
C11 C 0.7712(3) 0.5579(3) 0.56581(15)
C12 C 0.6475(4) 0.5030(3) 0.61479(15)
C13 C 0.7456(4) 0.5627(3) 0.68586(17)
C14 C 0.7801(4) 0.4225(3) 0.67318(16)
C15 C 0.8650(4) 0.6221(3) 0.63321(17)
C16 C 0.7963(4) 0.4188(3) 0.58761(16)
C17 C 0.5927(4) 0.5397(3) 0.35141(16)
C18 C 0.4451(4) 0.4785(3) 0.23183(16)
C19 C 0.5948(4) 0.3898(3) 0.25036(17)
C20 C 0.7236(4) 0.4689(3) 0.30551(17)
C21 C 0.4135(4) 0.4714(3) 0.31392(16)
C22 C 0.5063(4) 0.5932(3) 0.28052(17)
C23 C 0.6377(4) 0.5301(3) 0.23534(19)
C24 C 0.5740(4) 0.3966(3) 0.33682(16)
C25 C 1.3611(4) 0.4589(3) 0.70643(17)
C26 C 1.4527(4) 0.4372(4) 0.6924(2)
H1 H 1.4752 0.4562 0.6660
C27 C 1.5108(5) 0.3877(4) 0.7172(2)
H2 H 1.5741 0.3721 0.7080
C28 C 1.4773(5) 0.3607(4) 0.7554(2)
H3 H 1.5171 0.3268 0.7732
C29 C 1.3839(4) 0.3844(3) 0.76729(19)
C30 C 1.2940(4) 0.5142(3) 0.68444(16)
C31 C 0.4417(4) 0.6933(3) 0.38681(16)
H4 H 0.4576 0.6628 0.3612
C32 C 1.2368(5) 0.5913(3) 0.63122(18)
H5 H 1.1894 0.5709 0.6068
H6 H 1.2652 0.6369 0.6209
C33 C 1.1812(4) 0.6040(3) 0.67319(18)
H7 H 1.1054 0.6015 0.6654
C34 C 1.2100(5) 0.6737(3) 0.6988(2)
H8 H 1.1782 0.6725 0.7274
C35 C 1.1646(7) 0.7388(4) 0.6710(3)
H9 H 1.0905 0.7326 0.6645
H10 H 1.1960 0.7416 0.6431
H11 H 1.1786 0.7833 0.6880
C36 C 1.3258(5) 0.6820(4) 0.7097(2)
H12 H 1.3405 0.7269 0.7260
H13 H 1.3584 0.6830 0.6820
H14 H 1.3526 0.6414 0.7280
C37 C 1.3385(4) 0.3618(3) 0.80744(18)
C38 C 1.3389(5) 0.3115(3) 0.87441(19)
H15 H 1.3718 0.3407 0.8993
H16 H 1.3351 0.2610 0.8843
C39 C 1.2317(4) 0.3407(3) 0.85856(16)
H17 H 1.2092 0.3749 0.8811
C40 C 1.1496(5) 0.2840(3) 0.84743(18)
H18 H 1.0877 0.3090 0.8327
C41 C 1.1194(6) 0.2489(4) 0.8899(2)
H19 H 1.0661 0.2129 0.8821
H20 H 1.0933 0.2857 0.9090
H21 H 1.1794 0.2257 0.9058
C42 C 1.1824(6) 0.2269(4) 0.8144(2)
H22 H 1.1272 0.1919 0.8080
H23 H 1.2442 0.2023 0.8276
H24 H 1.1966 0.2506 0.7867
C43 C 0.3714(4) 0.6511(2) 0.41469(16)
H25 H 0.4096 0.6073 0.4260
C44 C 0.2766(4) 0.6258(3) 0.3852(2)
H26 H 0.2976 0.5992 0.3598
H27 H 0.2356 0.6676 0.3746
H28 H 0.2357 0.5945 0.4025
C45 C 0.3438(4) 0.6933(3) 0.45520(18)
H29 H 0.2992 0.6639 0.4720
H30 H 0.3081 0.7376 0.4453
H31 H 0.4064 0.7053 0.4743
C46 C 0.3970(4) 0.7654(3) 0.36876(19)
H32 H 0.3878 0.7654 0.3358
H33 H 0.3303 0.7752 0.3800
C47 C 0.5472(3) 0.7817(3) 0.40993(15)
C48 C 0.6346(4) 0.8219(3) 0.43184(16)
C49 C 0.6423(4) 0.8962(3) 0.43028(18)
H34 H 0.5893 0.9242 0.4150
C50 C 0.7300(4) 0.9289(3) 0.45174(19)
H35 H 0.7382 0.9796 0.4514
C51 C 0.8045(4) 0.8851(3) 0.4735(2)
H36 H 0.8655 0.9057 0.4878
C52 C 0.7903(4) 0.8114(3) 0.47450(16)
C53 C 0.8635(4) 0.7598(3) 0.49534(16)
C54 C 1.0002(4) 0.7223(3) 0.53956(18)
H37 H 0.9903 0.7167 0.5714
H38 H 1.0743 0.7253 0.5366
C55 C 0.9510(3) 0.6597(3) 0.51201(15)
H39 H 0.9349 0.6197 0.5322
C56 C 1.0158(4) 0.6313(3) 0.47658(17)
H40 H 0.9733 0.5949 0.4587
C57 C 1.0444(4) 0.6888(3) 0.4444(2)
H41 H 1.0854 0.6673 0.4226
H42 H 1.0841 0.7265 0.4609
H43 H 0.9820 0.7096 0.4289
C58 C 1.1106(4) 0.5920(3) 0.49830(19)
H44 H 1.0896 0.5554 0.5188
H45 H 1.1564 0.6265 0.5148
H46 H 1.1464 0.5690 0.4752
C59 C 0.0109(4) 0.3525(3) 0.14969(19)
C60 C -0.0790(5) 0.3246(4) 0.1617(2)
H47 H -0.1142 0.2873 0.1450
C61 C -0.1163(5) 0.3529(4) 0.1989(2)
H48 H -0.1780 0.3348 0.2083
C62 C -0.0649(4) 0.4069(4) 0.2224(2)
H49 H -0.0906 0.4275 0.2477
C63 C 0.0261(4) 0.4305(3) 0.20795(18)
C64 C 0.0892(4) 0.4891(3) 0.22963(17)
C65 C 0.1401(4) 0.5664(4) 0.28352(19)
H50 H 0.1816 0.5466 0.3099
H51 H 0.1111 0.6131 0.2916
C66 C 0.2052(4) 0.5752(3) 0.2445(2)
H52 H 0.2788 0.5675 0.2555
C67 C 0.1943(5) 0.6461(3) 0.2203(2)
H53 H 0.2369 0.6439 0.1948
C68 C 0.0849(6) 0.6636(4) 0.2016(3)
H54 H 0.0835 0.7102 0.1864
H55 H 0.0413 0.6657 0.2260
H56 H 0.0595 0.6262 0.1804
C69 C 0.2368(6) 0.7084(4) 0.2518(3)
H57 H 0.2298 0.7542 0.2358
H58 H 0.3092 0.6996 0.2617
H59 H 0.1981 0.7104 0.2778
C70 C 0.0556(5) 0.3307(3) 0.10794(19)
C71 C 0.1531(5) 0.3240(3) 0.05206(19)
H60 H 0.1400 0.3622 0.0289
C72 C 0.0651(6) 0.2709(4) 0.0456(2)
H61 H 0.0225 0.2803 0.0172
H62 H 0.0915 0.2211 0.0451
C73 C 0.2577(6) 0.2964(5) 0.0493(3)
H63 H 0.3065 0.3373 0.0552
C74 C 0.2663(7) 0.2690(5) 0.0016(3)
H64 H 0.3355 0.2504 -0.0004
H65 H 0.2526 0.3086 -0.0196
H66 H 0.2164 0.2305 -0.0056
C75 C 0.2869(10) 0.2372(7) 0.0849(3)
H67 H 0.3565 0.2201 0.0821
H68 H 0.2389 0.1970 0.0804
H69 H 0.2838 0.2574 0.1147
C76 C 1.0505(4) 0.3451(3) 0.71120(17)
C77 C 1.1003(5) 0.3391(3) 0.63586(19)
H70 H 1.0743 0.3162 0.6078
H71 H 1.1696 0.3218 0.6451
H72 H 1.1016 0.3914 0.6318
C78 C 0.9442(4) 0.2755(3) 0.65656(19)
H73 H 0.9434 0.2627 0.6251
H74 H 0.8814 0.3016 0.6611
H75 H 0.9483 0.2317 0.6746
C79 C 0.9128(7) 0.4488(6) 0.7916(2)
C80 C 0.7421(8) 0.4473(10) 0.8124(4)
H76 H 0.7063 0.4380 0.8387
H77 H 0.7185 0.4132 0.7888
H78 H 0.7278 0.4964 0.8019
C81 C 0.8880(9) 0.4079(9) 0.8660(4)
H79 H 0.8308 0.4055 0.8843
H80 H 0.9427 0.4376 0.8810
H81 H 0.9140 0.3593 0.8617
C82 C 1.0196(5) 0.6191(3) 0.80485(18)
C83 C 0.9388(6) 0.6957(4) 0.7460(2)
H82 H 0.8799 0.7282 0.7419
H83 H 0.9300 0.6569 0.7240
H84 H 1.0014 0.7226 0.7420
C84 C 0.8642(6) 0.6800(4) 0.8188(2)
H85 H 0.8169 0.7148 0.8035
H86 H 0.8929 0.6998 0.8474
H87 H 0.8274 0.6354 0.8238
C85 C 1.3352(7) 0.5965(7) 0.8225(3)
C86 C 1.4615(11) 0.6513(9) 0.8822(5)
H88 H 1.5275 0.6386 0.8984
H89 H 1.4105 0.6578 0.9032
H90 H 1.4685 0.6960 0.8657
C87 C 1.4883(10) 0.5205(8) 0.8503(5)
H91 H 1.5512 0.5247 0.8706
H92 H 1.5057 0.5103 0.8202
H93 H 1.4463 0.4813 0.8602
C88 C 0.5620(4) 0.6730(3) 0.54450(17)
C89 C 0.5169(5) 0.6714(3) 0.6205(2)
H94 H 0.5366 0.6984 0.6479
H95 H 0.5335 0.6205 0.6254
H96 H 0.4432 0.6766 0.6121
C90 C 0.6452(5) 0.7570(3) 0.59726(18)
H97 H 0.6432 0.7695 0.6286
H98 H 0.6268 0.7991 0.5787
H99 H 0.7142 0.7411 0.5925
C91 C 0.5842(4) 0.4859(3) 0.48539(15)
C92 C 0.4303(4) 0.4410(3) 0.4434(2)
H100 H 0.3965 0.3945 0.4376
H101 H 0.4463 0.4620 0.4153
H102 H 0.3847 0.4733 0.4577
C93 C 0.5543(5) 0.3573(3) 0.48475(19)
H103 H 0.5006 0.3241 0.4725
H104 H 0.5637 0.3527 0.5172
H105 H 0.6185 0.3456 0.4726
C94 C 0.7837(4) 0.4798(3) 0.42830(16)
C95 C 0.8340(6) 0.3564(3) 0.4211(3)
H106 H 0.8834 0.3232 0.4367
H107 H 0.8487 0.3616 0.3901
H108 H 0.7647 0.3375 0.4219
C96 C 0.9217(4) 0.4354(3) 0.47984(18)
H109 H 0.9568 0.3894 0.4859
H110 H 0.8909 0.4510 0.5064
H111 H 0.9710 0.4715 0.4721
C97 C 0.8153(4) 0.6482(3) 0.36502(16)
C98 C 0.7247(4) 0.7142(3) 0.30310(18)
H112 H 0.7275 0.7187 0.2710
H113 H 0.7366 0.7613 0.3172
H114 H 0.6571 0.6964 0.3088
C99 C 0.8692(4) 0.6307(3) 0.29135(17)
H115 H 0.8500 0.6480 0.2610
H116 H 0.8612 0.5784 0.2922
H117 H 0.9406 0.6434 0.3006
C100 C 0.0176(6) 0.5379(7) 0.0867(3)
C101 C -0.1400(8) 0.5367(7) 0.1227(4)
H118 H -0.2137 0.5407 0.1138
H119 H -0.1182 0.5757 0.1433
H120 H -0.1253 0.4903 0.1373
C102 C -0.1420(10) 0.5548(10) 0.0421(4)
H121 H -0.2136 0.5549 0.0483
H122 H -0.1316 0.5170 0.0204
H123 H -0.1249 0.6016 0.0299
C103 C 0.3052(6) 0.6282(3) 0.1130(2)
C104 C 0.4583(9) 0.6658(6) 0.1597(3)
H124 H 0.5042 0.7075 0.1612
H125 H 0.4973 0.6222 0.1548
H126 H 0.4275 0.6615 0.1877
C105 C 0.3872(9) 0.7400(4) 0.0952(3)
H127 H 0.4458 0.7685 0.1080
H128 H 0.3247 0.7689 0.0946
H129 H 0.3980 0.7256 0.0649
C106 C 0.4673(7) 0.4049(6) 0.1256(3)
C107 C 0.6510(14) 0.3952(11) 0.1261(6)
H130 H 0.6994 0.3964 0.1036
H131 H 0.6573 0.3493 0.1420
H132 H 0.6661 0.4347 0.1472
C108 C 0.2964(7) 0.3383(5) 0.2225(3)
C109 C 0.4059(10) 0.2326(6) 0.2176(6)
H133 H 0.4401 0.1988 0.2391
H134 H 0.4571 0.2571 0.2017
H135 H 0.3584 0.2062 0.1963
C110 C 0.3673(10) 0.2754(6) 0.2861(3)
H136 H 0.4087 0.2323 0.2934
H137 H 0.3012 0.2704 0.2981
H138 H 0.4032 0.3176 0.2993
C111 C 0.547(3) 0.4823(15) 0.0814(12)
H139 H 0.6054 0.4863 0.0641
H140 H 0.5515 0.5192 0.1046
H141 H 0.4832 0.4890 0.0617
W3_2 W 0.18849(2) 0.558633(13) -0.040601(7)
C6_2 C 1.2110(5) 0.5128(3) 1.02503(17)
loop_
_geom_bond_atom_site_label_1
_geom_bond_atom_site_label_2
_geom_bond_site_symmetry_1
_geom_bond_site_symmetry_2
W1 C17 1_555 1_555
W2 C9 1_555 1_555
W3 C1 1_555 1_555
Gd1 O1 1_555 1_555
Gd2 O5 1_555 1_555
Gd3 O9 1_555 1_555
O1 C76 1_555 1_555
O2 Gd1 1_555 1_555
O3 Gd1 1_555 1_555
O4 Gd1 1_555 1_555
O5 C88 1_555 1_555
O6 Gd2 1_555 1_555
O7 Gd2 1_555 1_555
O8 Gd2 1_555 1_555
O9 C103 1_555 1_555
O10 Gd3 1_555 1_555
O11 Gd3 1_555 1_555
O12 Gd3 1_555 1_555
O13 C30 1_555 1_555
O14 C37 1_555 1_555
O15 C64 1_555 1_555
O16 C46 1_555 1_555
O17 C53 1_555 1_555
O18 C70 1_555 1_555
N1 Gd1 1_555 1_555
N2 C3 1_555 1_555
N3 C5 1_555 1_555
N4 C4 1_555 1_555
N5 C7 1_555 1_555
N6 C8 1_555 1_555
N7 C2 1_555 1_555
N8 Gd3 1_555 1_555
N9 Gd1 1_555 1_555
N10 C10 1_555 1_555
N11 C16 1_555 1_555
N12 Gd2 1_555 1_555
N13 C12 1_555 1_555
N14 C13 1_555 1_555
N15 C14 1_555 1_555
N16 C15 1_555 1_555
N17 C24 1_555 1_555
N18 C19 1_555 1_555
N19 Gd3 1_555 1_555
N20 C23 1_555 1_555
N21 Gd2 1_555 1_555
N22 C21 1_555 1_555
N23 C22 1_555 1_555
N24 C20 1_555 1_555
N25 Gd1 1_555 1_555
N26 Gd1 1_555 1_555
N27 Gd1 1_555 1_555
N28 Gd2 1_555 1_555
N29 Gd2 1_555 1_555
N30 Gd2 1_555 1_555
N31 Gd3 1_555 1_555
N32 Gd3 1_555 1_555
N33 Gd3 1_555 1_555
N34 C76 1_555 1_555
N35 C79 1_555 1_555
N36 C82 1_555 1_555
N37 C85 1_555 1_555
N38 C88 1_555 1_555
N39 C91 1_555 1_555
N40 C94 1_555 1_555
N41 C97 1_555 1_555
N42 C100 1_555 1_555
N43 C103 1_555 1_555
N44 C108 1_555 1_555
N45 C106 1_555 1_555
C1 N1 1_555 1_555
C2 W3 1_555 1_555
C3 W3 1_555 1_555
C4 W3 1_555 1_555
C5 W3 1_555 1_555
C6 N8 1_555 1_555
C7 W3 1_555 1_555
C8 W3 1_555 1_555
C9 N9 1_555 1_555
C10 W2 1_555 1_555
C11 W2 1_555 1_555
C12 W2 1_555 1_555
C13 W2 1_555 1_555
C14 W2 1_555 1_555
C15 W2 1_555 1_555
C16 W2 1_555 1_555
C17 N21 1_555 1_555
C18 W1 1_555 1_555
C19 W1 1_555 1_555
C20 W1 1_555 1_555
C21 W1 1_555 1_555
C22 W1 1_555 1_555
C23 W1 1_555 1_555
C24 W1 1_555 1_555
C25 N26 1_555 1_555
C26 C25 1_555 1_555
H1 C26 1_555 1_555
C27 C26 1_555 1_555
H2 C27 1_555 1_555
C28 C27 1_555 1_555
H3 C28 1_555 1_555
C29 N26 1_555 1_555
C30 N27 1_555 1_555
C31 N28 1_555 1_555
H4 C31 1_555 1_555
C32 O13 1_555 1_555
H5 C32 1_555 1_555
H6 C32 1_555 1_555
C33 N27 1_555 1_555
H7 C33 1_555 1_555
C34 C33 1_555 1_555
H8 C34 1_555 1_555
C35 C34 1_555 1_555
H9 C35 1_555 1_555
H10 C35 1_555 1_555
H11 C35 1_555 1_555
C36 C34 1_555 1_555
H12 C36 1_555 1_555
H13 C36 1_555 1_555
H14 C36 1_555 1_555
C37 N25 1_555 1_555
C38 O14 1_555 1_555
H15 C38 1_555 1_555
H16 C38 1_555 1_555
C39 N25 1_555 1_555
H17 C39 1_555 1_555
C40 C39 1_555 1_555
H18 C40 1_555 1_555
C41 C40 1_555 1_555
H19 C41 1_555 1_555
H20 C41 1_555 1_555
H21 C41 1_555 1_555
C42 C40 1_555 1_555
H22 C42 1_555 1_555
H23 C42 1_555 1_555
H24 C42 1_555 1_555
C43 C31 1_555 1_555
H25 C43 1_555 1_555
C44 C43 1_555 1_555
H26 C44 1_555 1_555
H27 C44 1_555 1_555
H28 C44 1_555 1_555
C45 C43 1_555 1_555
H29 C45 1_555 1_555
H30 C45 1_555 1_555
H31 C45 1_555 1_555
C46 C31 1_555 1_555
H32 C46 1_555 1_555
H33 C46 1_555 1_555
C47 O16 1_555 1_555
C48 N29 1_555 1_555
C49 C48 1_555 1_555
H34 C49 1_555 1_555
C50 C49 1_555 1_555
H35 C50 1_555 1_555
C51 C50 1_555 1_555
H36 C51 1_555 1_555
C52 N29 1_555 1_555
C53 N30 1_555 1_555
C54 O17 1_555 1_555
H37 C54 1_555 1_555
H38 C54 1_555 1_555
C55 N30 1_555 1_555
H39 C55 1_555 1_555
C56 C55 1_555 1_555
H40 C56 1_555 1_555
C57 C56 1_555 1_555
H41 C57 1_555 1_555
H42 C57 1_555 1_555
H43 C57 1_555 1_555
C58 C56 1_555 1_555
H44 C58 1_555 1_555
H45 C58 1_555 1_555
H46 C58 1_555 1_555
C59 N32 1_555 1_555
C60 C59 1_555 1_555
H47 C60 1_555 1_555
C61 C60 1_555 1_555
H48 C61 1_555 1_555
C62 C61 1_555 1_555
H49 C62 1_555 1_555
C63 N32 1_555 1_555
C64 N31 1_555 1_555
C65 O15 1_555 1_555
H50 C65 1_555 1_555
H51 C65 1_555 1_555
C66 N31 1_555 1_555
H52 C66 1_555 1_555
C67 C66 1_555 1_555
H53 C67 1_555 1_555
C68 C67 1_555 1_555
H54 C68 1_555 1_555
H55 C68 1_555 1_555
H56 C68 1_555 1_555
C69 C67 1_555 1_555
H57 C69 1_555 1_555
H58 C69 1_555 1_555
H59 C69 1_555 1_555
C70 N33 1_555 1_555
C71 N33 1_555 1_555
H60 C71 1_555 1_555
C72 O18 1_555 1_555
H61 C72 1_555 1_555
H62 C72 1_555 1_555
C73 C71 1_555 1_555
H63 C73 1_555 1_555
C74 C73 1_555 1_555
H64 C74 1_555 1_555
H65 C74 1_555 1_555
H66 C74 1_555 1_555
C75 C73 1_555 1_555
H67 C75 1_555 1_555
H68 C75 1_555 1_555
H69 C75 1_555 1_555
C77 N34 1_555 1_555
H70 C77 1_555 1_555
H71 C77 1_555 1_555
H72 C77 1_555 1_555
C78 N34 1_555 1_555
H73 C78 1_555 1_555
H74 C78 1_555 1_555
H75 C78 1_555 1_555
C79 O2 1_555 1_555
C80 N35 1_555 1_555
H76 C80 1_555 1_555
H77 C80 1_555 1_555
H78 C80 1_555 1_555
C81 N35 1_555 1_555
H79 C81 1_555 1_555
H80 C81 1_555 1_555
H81 C81 1_555 1_555
C82 O3 1_555 1_555
C83 N36 1_555 1_555
H82 C83 1_555 1_555
H83 C83 1_555 1_555
H84 C83 1_555 1_555
C84 N36 1_555 1_555
H85 C84 1_555 1_555
H86 C84 1_555 1_555
H87 C84 1_555 1_555
C85 O4 1_555 1_555
C86 N37 1_555 1_555
H88 C86 1_555 1_555
H89 C86 1_555 1_555
H90 C86 1_555 1_555
C87 N37 1_555 1_555
H91 C87 1_555 1_555
H92 C87 1_555 1_555
H93 C87 1_555 1_555
C89 N38 1_555 1_555
H94 C89 1_555 1_555
H95 C89 1_555 1_555
H96 C89 1_555 1_555
C90 N38 1_555 1_555
H97 C90 1_555 1_555
H98 C90 1_555 1_555
H99 C90 1_555 1_555
C91 O8 1_555 1_555
C92 N39 1_555 1_555
H100 C92 1_555 1_555
H101 C92 1_555 1_555
H102 C92 1_555 1_555
C93 N39 1_555 1_555
H103 C93 1_555 1_555
H104 C93 1_555 1_555
H105 C93 1_555 1_555
C94 O7 1_555 1_555
C95 N40 1_555 1_555
H106 C95 1_555 1_555
H107 C95 1_555 1_555
H108 C95 1_555 1_555
C96 N40 1_555 1_555
H109 C96 1_555 1_555
H110 C96 1_555 1_555
H111 C96 1_555 1_555
C97 O6 1_555 1_555
C98 N41 1_555 1_555
H112 C98 1_555 1_555
H113 C98 1_555 1_555
H114 C98 1_555 1_555
C99 N41 1_555 1_555
H115 C99 1_555 1_555
H116 C99 1_555 1_555
H117 C99 1_555 1_555
C100 O11 1_555 1_555
C101 N42 1_555 1_555
H118 C101 1_555 1_555
H119 C101 1_555 1_555
H120 C101 1_555 1_555
C102 N42 1_555 1_555
H121 C102 1_555 1_555
H122 C102 1_555 1_555
H123 C102 1_555 1_555
C104 N43 1_555 1_555
H124 C104 1_555 1_555
H125 C104 1_555 1_555
H126 C104 1_555 1_555
C105 N43 1_555 1_555
H127 C105 1_555 1_555
H128 C105 1_555 1_555
H129 C105 1_555 1_555
C106 O10 1_555 1_555
C107 N45 1_555 1_555
H130 C107 1_555 1_555
H131 C107 1_555 1_555
H132 C107 1_555 1_555
C108 O12 1_555 1_555
C109 N44 1_555 1_555
H133 C109 1_555 1_555
H134 C109 1_555 1_555
H135 C109 1_555 1_555
C110 N44 1_555 1_555
H136 C110 1_555 1_555
H137 C110 1_555 1_555
H138 C110 1_555 1_555
C111 N45 1_555 1_555
H139 C111 1_555 1_555
H140 C111 1_555 1_555
H141 C111 1_555 1_555
O19 C114 1_555 1_555
N46 C112 1_555 1_555
C112 H142 1_555 1_555
H143 C112 1_555 1_555
H144 C112 1_555 1_555
C113 N46 1_555 1_555
H145 C113 1_555 1_555
H146 C113 1_555 1_555
H147 C113 1_555 1_555
C114 N46 1_555 1_555
W3_2 C6 1_555 1_555
C6_2 W3 1_555 1_555
N12 C11 1_555 1_555
N19 C18 1_555 1_555
N28 C47 1_555 1_555
C25 C30 1_555 1_555
C28 C29 1_555 1_555
C29 C37 1_555 1_555
C32 C33 1_555 1_555
C38 C39 1_555 1_555
C47 C48 1_555 1_555
C51 C52 1_555 1_555
C52 C53 1_555 1_555
C54 C55 1_555 1_555
C59 C70 1_555 1_555
C62 C63 1_555 1_555
C63 C64 1_555 1_555
C65 C66 1_555 1_555
C71 C72 1_555 1_555

#END
