
#######################################################################
#
#                 Cambridge Crystallographic Data Centre
#                                CCDC 
#
#######################################################################
#
# If this CIF has been generated from an entry in the Cambridge 
# Structural Database, then it will include bibliographic, chemical, 
# crystal, experimental, refinement or atomic coordinate data resulting 
# from the CCDC's data processing and validation procedures.
#
#######################################################################

data_CIYZUH
_symmetry_cell_setting           orthorhombic
_symmetry_space_group_name_H-M   'P 21 21 21'
_symmetry_Int_Tables_number      19
_space_group_name_Hall           'P 2ac 2ab'
loop_
_symmetry_equiv_pos_site_id
_symmetry_equiv_pos_as_xyz
1 x,y,z
2 1/2+x,1/2-y,-z
3 -x,1/2+y,1/2-z
4 1/2-x,-y,1/2+z
_cell_length_a                   17.2812(4)
_cell_length_b                   19.9181(6)
_cell_length_c                   19.9424(6)
_cell_angle_alpha                90
_cell_angle_beta                 90
_cell_angle_gamma                90
_cell_volume                     6864.35
loop_
_atom_site_label
_atom_site_type_symbol
_atom_site_fract_x
_atom_site_fract_y
_atom_site_fract_z
W1 W 0.64811(2) 0.133292(18) 0.063592(19)
Gd1 Gd 0.41126(3) 0.33930(2) 0.12144(2)
O1 O 0.4536(4) 0.3564(3) 0.0091(3)
O2 O 0.3690(4) 0.2325(3) 0.0815(3)
O3 O 0.4363(4) 0.2654(3) 0.2117(4)
O4 O 0.3845(4) 0.4567(4) 0.1049(4)
O5 O 0.6249(4) 0.4298(4) 0.2291(4)
O6 O 0.2245(4) 0.3837(4) 0.2847(4)
N1 N 0.8014(5) 0.0539(5) 0.1248(5)
N2 N 0.6580(5) -0.0122(5) -0.0147(5)
N3 N 0.5318(4) 0.2634(4) 0.0959(4)
N4 N 0.5639(5) 0.1722(5) -0.0811(5)
N5 N 0.6133(5) 0.1036(6) 0.2242(5)
N6 N 0.2891(5) 0.3489(4) 0.0467(4)
N7 N 0.4704(5) 0.0720(4) 0.0733(5)
N8 N 0.7556(5) 0.2533(5) 0.1328(5)
N9 N 0.4813(5) 0.3311(5) -0.0985(4)
N10 N 0.3384(4) 0.1646(5) -0.0044(5)
N11 N 0.4191(5) 0.1674(5) 0.2673(4)
N12 N 0.3719(5) 0.5544(4) 0.0457(5)
N13 N 0.5391(5) 0.3990(4) 0.1487(4)
N14 N 0.4212(5) 0.3991(4) 0.2379(4)
N15 N 0.2878(5) 0.3413(5) 0.1966(4)
C1 C 0.7475(5) 0.0808(5) 0.1039(5)
C2 C 0.6537(6) 0.0366(5) 0.0134(5)
C3 C 0.5737(5) 0.2176(4) 0.0844(4)
C4 C 0.5950(5) 0.1605(5) -0.0302(5)
C5 C 0.6260(6) 0.1120(5) 0.1680(5)
C6 C 0.2401(5) 0.3517(4) 0.0089(4)
C7 C 0.5332(6) 0.0926(5) 0.0688(6)
C8 C 0.7184(6) 0.2111(5) 0.1091(5)
C9 C 0.4343(6) 0.3377(5) -0.0475(5)
C10 C 0.3874(6) 0.2005(5) 0.0301(5)
C11 C 0.4413(6) 0.2030(5) 0.2172(5)
C12 C 0.3643(6) 0.4870(5) 0.0527(6)
C13 C 0.5648(6) 0.3431(6) -0.0907(6)
H1 H 0.5781 0.3432 -0.0429
H2 H 0.5782 0.3866 -0.1104
H3 H 0.5937 0.3075 -0.1135
C14 C 0.4543(8) 0.3059(10) -0.1654(7)
H4 H 0.4143 0.3360 -0.1830
H5 H 0.4329 0.2606 -0.1603
H6 H 0.4981 0.3046 -0.1966
C15 C 0.3642(7) 0.1264(6) -0.0611(7)
H7 H 0.4029 0.0936 -0.0466
H8 H 0.3871 0.1567 -0.0944
H9 H 0.3200 0.1029 -0.0812
C16 C 0.2575(6) 0.1563(6) 0.0151(6)
H10 H 0.2322 0.2003 0.0166
H11 H 0.2549 0.1354 0.0596
H12 H 0.2311 0.1277 -0.0176
C17 C 0.3796(8) 0.2003(7) 0.3248(6)
H13 H 0.3333 0.2237 0.3088
H14 H 0.4149 0.2326 0.3457
H15 H 0.3647 0.1662 0.3578
C18 C 0.4225(7) 0.0943(5) 0.2678(6)
H16 H 0.4765 0.0797 0.2640
H17 H 0.3927 0.0765 0.2299
H18 H 0.4005 0.0774 0.3099
C19 C 0.4076(9) 0.5950(6) 0.0994(6)
H19 H 0.4610 0.5799 0.1066
H20 H 0.3780 0.5895 0.1409
H21 H 0.4077 0.6424 0.0862
C20 C 0.3428(8) 0.5869(6) -0.0136(6)
H22 H 0.2870 0.5789 -0.0173
H23 H 0.3689 0.5686 -0.0532
H24 H 0.3525 0.6352 -0.0107
C21 C 0.3637(6) 0.4000(5) 0.2809(5)
C22 C 0.3699(6) 0.4198(5) 0.3477(5)
H25 H 0.3260 0.4203 0.3763
C23 C 0.4419(6) 0.4386(5) 0.3710(6)
H26 H 0.4491 0.4515 0.4164
C24 C 0.5036(6) 0.4383(5) 0.3264(6)
H27 H 0.5534 0.4521 0.3409
C25 C 0.4924(6) 0.4179(5) 0.2608(6)
C26 C 0.5511(6) 0.4148(5) 0.2099(6)
C27 C 0.2894(5) 0.3720(5) 0.2520(5)
C28 C 0.6745(6) 0.4177(6) 0.1692(7)
H28 H 0.7074 0.3767 0.1749
C29 C 0.6146(6) 0.4088(6) 0.1121(6)
H29 H 0.6272 0.3693 0.0832
C30 C 0.1622(6) 0.3604(6) 0.2421(5)
H30 H 0.1338 0.3985 0.2205
C31 C 0.2082(7) 0.3173(6) 0.1893(5)
H31 H 0.1880 0.3230 0.1427
C32 C 0.7219(6) 0.4779(6) 0.1529(7)
H32 H 0.7261 0.5079 0.1924
H33 H 0.7745 0.4647 0.1386
C33 C 0.6182(7) 0.4714(5) 0.0745(6)
C34 C 0.6806(7) 0.5116(7) 0.0980(7)
C35 C 0.6936(7) 0.5748(6) 0.0674(8)
H34 H 0.7362 0.6013 0.0816
C36 C 0.6460(9) 0.5984(7) 0.0178(6)
H35 H 0.6553 0.6410 -0.0019
C37 C 0.5831(9) 0.5591(7) -0.0040(7)
H36 H 0.5493 0.5756 -0.0377
C38 C 0.5703(7) 0.4949(6) 0.0243(7)
H37 H 0.5286 0.4679 0.0088
C39 C 0.1081(6) 0.3131(7) 0.2778(6)
H38 H 0.0549 0.3173 0.2599
H39 H 0.1071 0.3227 0.3265
C40 C 0.1400(7) 0.2427(5) 0.2647(6)
C41 C 0.1963(6) 0.2451(6) 0.2165(6)
C42 C 0.2341(6) 0.1866(6) 0.1934(5)
H40 H 0.2732 0.1882 0.1600
C43 C 0.2113(6) 0.1282(7) 0.2216(6)
H41 H 0.2350 0.0878 0.2068
C44 C 0.1547(7) 0.1240(6) 0.2714(5)
H42 H 0.1410 0.0819 0.2906
C45 C 0.1190(7) 0.1826(6) 0.2920(6)
H43 H 0.0797 0.1810 0.3253
W1A W 0.14811(2) 0.366708(18) -0.063592(19)
C6A C 0.7401(5) 0.1483(4) -0.0089(4)
O7 O 0.3249(5) 0.0300(5) 0.1250(6)
C46 C 0.2903(11) -0.0247(9) 0.0940(11)
H44 H 0.2567 -0.0479 0.1261
H45 H 0.3303 -0.0557 0.0781
H46 H 0.2594 -0.0092 0.0558
O8 O 0.2212(8) 0.2504(6) 0.4302(7)
C47 C 0.2941(16) 0.2823(19) 0.429(2)
O9 O 0.2376(7) 0.2410(7) 0.5676(7)
C48 C 0.1798(10) 0.2184(12) 0.5107(9)
O10 O 0.9272(6) 0.0125(7) 0.2084(6)
C49 C 0.9823(8) -0.0140(9) 0.1637(9)
H47 H 1.0013 0.0217 0.1343
H48 H 0.9582 -0.0494 0.1366
H49 H 1.0256 -0.0329 0.1891
N16 N 0.0872(10) 0.0675(9) 0.4396(10)
C50 C -0.0143(11) 0.0019(11) 0.3656(10)
H50 H 0.0118 -0.0350 0.3422
H51 H -0.0371 0.0325 0.3326
H52 H -0.0551 -0.0163 0.3944
C51 C 0.0417(11) 0.0382(9) 0.4064(10)
N17 N 0.4929(9) 0.2087(9) 0.5733(10)
C52 C 0.4664(11) 0.2586(10) 0.5420(10)
C53 C 0.4268(13) 0.3148(11) 0.5092(12)
H53 H 0.3803 0.2982 0.4864
H54 H 0.4615 0.3356 0.4764
H55 H 0.4119 0.3481 0.5430
N18 N 0.8678(15) 0.4174(17) 0.2345(14)
C54 C 0.842(3) 0.314(2) 0.308(2)
C55 C 0.865(3) 0.3668(18) 0.262(3)
N19 N 0.829(2) 0.155(2) 0.3178(19)
C56 C 0.7716(9) 0.0373(10) 0.3120(10)
H56 H 0.8107 0.0174 0.2824
H57 H 0.7211 0.0362 0.2897
H58 H 0.7690 0.0117 0.3539
C57 C 0.791(2) 0.103(2) 0.3259(18)
N20 N 0.5454(12) 0.2725(9) 0.3766(9)
C58 C 0.5853(10) 0.2675(7) 0.3301(8)
C59 C 0.6288(11) 0.2647(8) 0.2740(9)
H59 H 0.5952 0.2676 0.2345
H60 H 0.6574 0.2223 0.2730
H61 H 0.6654 0.3023 0.2737
loop_
_geom_bond_atom_site_label_1
_geom_bond_atom_site_label_2
_geom_bond_site_symmetry_1
_geom_bond_site_symmetry_2
W1 C1 1_555 1_555
Gd1 O1 1_555 1_555
O1 C9 1_555 1_555
O2 Gd1 1_555 1_555
O3 Gd1 1_555 1_555
O4 Gd1 1_555 1_555
O5 C26 1_555 1_555
O6 C27 1_555 1_555
N1 C1 1_555 1_555
N2 C2 1_555 1_555
N3 Gd1 1_555 1_555
N4 C4 1_555 1_555
N5 C5 1_555 1_555
N6 Gd1 1_555 1_555
N7 C7 1_555 1_555
N8 C8 1_555 1_555
N9 C9 1_555 1_555
N10 C10 1_555 1_555
N11 C11 1_555 1_555
N12 C12 1_555 1_555
N13 Gd1 1_555 1_555
N14 Gd1 1_555 1_555
N15 Gd1 1_555 1_555
C2 W1 1_555 1_555
C3 W1 1_555 1_555
C4 W1 1_555 1_555
C5 W1 1_555 1_555
C6 N6 1_555 1_555
C7 W1 1_555 1_555
C8 W1 1_555 1_555
C10 O2 1_555 1_555
C11 O3 1_555 1_555
C12 O4 1_555 1_555
C13 N9 1_555 1_555
H1 C13 1_555 1_555
H2 C13 1_555 1_555
H3 C13 1_555 1_555
C14 N9 1_555 1_555
H4 C14 1_555 1_555
H5 C14 1_555 1_555
H6 C14 1_555 1_555
C15 N10 1_555 1_555
H7 C15 1_555 1_555
H8 C15 1_555 1_555
H9 C15 1_555 1_555
C16 N10 1_555 1_555
H10 C16 1_555 1_555
H11 C16 1_555 1_555
H12 C16 1_555 1_555
C17 N11 1_555 1_555
H13 C17 1_555 1_555
H14 C17 1_555 1_555
H15 C17 1_555 1_555
C18 N11 1_555 1_555
H16 C18 1_555 1_555
H17 C18 1_555 1_555
H18 C18 1_555 1_555
C19 N12 1_555 1_555
H19 C19 1_555 1_555
H20 C19 1_555 1_555
H21 C19 1_555 1_555
C20 N12 1_555 1_555
H22 C20 1_555 1_555
H23 C20 1_555 1_555
H24 C20 1_555 1_555
C21 N14 1_555 1_555
C22 C21 1_555 1_555
H25 C22 1_555 1_555
C23 C22 1_555 1_555
H26 C23 1_555 1_555
C24 C23 1_555 1_555
H27 C24 1_555 1_555
C25 N14 1_555 1_555
C26 N13 1_555 1_555
C27 N15 1_555 1_555
C28 O5 1_555 1_555
H28 C28 1_555 1_555
C29 N13 1_555 1_555
H29 C29 1_555 1_555
C30 O6 1_555 1_555
H30 C30 1_555 1_555
C31 N15 1_555 1_555
H31 C31 1_555 1_555
C32 C28 1_555 1_555
H32 C32 1_555 1_555
H33 C32 1_555 1_555
C33 C29 1_555 1_555
C34 C32 1_555 1_555
C35 C34 1_555 1_555
H34 C35 1_555 1_555
C36 C35 1_555 1_555
H35 C36 1_555 1_555
C37 C36 1_555 1_555
H36 C37 1_555 1_555
C38 C33 1_555 1_555
H37 C38 1_555 1_555
C39 C30 1_555 1_555
H38 C39 1_555 1_555
H39 C39 1_555 1_555
C40 C39 1_555 1_555
C41 C31 1_555 1_555
C42 C41 1_555 1_555
H40 C42 1_555 1_555
C43 C42 1_555 1_555
H41 C43 1_555 1_555
C44 C43 1_555 1_555
H42 C44 1_555 1_555
C45 C40 1_555 1_555
H43 C45 1_555 1_555
O7 C46 1_555 1_555
C46 H44 1_555 1_555
H45 C46 1_555 1_555
H46 C46 1_555 1_555
O8 C47 1_555 1_555
O9 C48 1_555 1_555
O10 C49 1_555 1_555
C49 H47 1_555 1_555
H48 C49 1_555 1_555
H49 C49 1_555 1_555
N16 C51 1_555 1_555
C50 H50 1_555 1_555
H51 C50 1_555 1_555
H52 C50 1_555 1_555
C51 C50 1_555 1_555
N17 C52 1_555 1_555
C52 C53 1_555 1_555
C53 H53 1_555 1_555
H54 C53 1_555 1_555
H55 C53 1_555 1_555
N18 C55 1_555 1_555
C54 C55 1_555 1_555
N19 C57 1_555 1_555
C56 H56 1_555 1_555
H57 C56 1_555 1_555
H58 C56 1_555 1_555
C57 C56 1_555 1_555
N20 C58 1_555 1_555
C58 C59 1_555 1_555
C59 H59 1_555 1_555
H60 C59 1_555 1_555
H61 C59 1_555 1_555
W1A C6 1_555 1_555
C6A W1 1_555 1_555
N3 C3 1_555 1_555
C21 C27 1_555 1_555
C24 C25 1_555 1_555
C25 C26 1_555 1_555
C28 C29 1_555 1_555
C30 C31 1_555 1_555
C33 C34 1_555 1_555
C37 C38 1_555 1_555
C40 C41 1_555 1_555
C44 C45 1_555 1_555

#END
