
#######################################################################
#
#                 Cambridge Crystallographic Data Centre
#                                CCDC 
#
#######################################################################
#
# If this CIF has been generated from an entry in the Cambridge 
# Structural Database, then it will include bibliographic, chemical, 
# crystal, experimental, refinement or atomic coordinate data resulting 
# from the CCDC's data processing and validation procedures.
#
#######################################################################

data_CIYZOB
_symmetry_cell_setting           monoclinic
_symmetry_space_group_name_H-M   'P 21'
_symmetry_Int_Tables_number      4
_space_group_name_Hall           'P 2yb'
loop_
_symmetry_equiv_pos_site_id
_symmetry_equiv_pos_as_xyz
1 x,y,z
2 -x,1/2+y,-z
_cell_length_a                   13.2378(3)
_cell_length_b                   18.7167(5)
_cell_length_c                   30.4634(6)
_cell_angle_alpha                90
_cell_angle_beta                 96.2340(10)
_cell_angle_gamma                90
_cell_volume                     7503.22
loop_
_atom_site_label
_atom_site_type_symbol
_atom_site_fract_x
_atom_site_fract_y
_atom_site_fract_z
O19 O 0.4713(12) 0.2155(8) 0.1070(5)
N46 N 0.4120(12) 0.3261(8) 0.1250(5)
C112 C 0.4820(13) 0.2695(12) 0.1288(6)
C113 C 0.4204(18) 0.3888(13) 0.1578(7)
H142 H 0.3648 0.4225 0.1500
H143 H 0.4857 0.4131 0.1567
H144 H 0.4162 0.3706 0.1878
C114 C 0.3226(13) 0.3245(10) 0.0937(5)
H145 H 0.2835 0.3685 0.0962
H146 H 0.2806 0.2833 0.0997
H147 H 0.3427 0.3206 0.0637
O20 O 1.3602(19) -0.0807(14) 0.4615(8)
O21 O 1.192(3) -0.1664(19) 0.4265(12)
O22 O 1.152(9) -0.150(7) 0.498(3)
O23 O 1.000(6) -0.068(5) 0.479(2)
O24 O 1.230(5) -0.297(4) 0.4085(18)
O25 O 1.081(3) -0.028(2) 0.5274(12)
O26 O 1.244(4) -0.079(2) 0.5365(16)
O27 O 0.912(4) 0.086(3) 0.4452(16)
W1 W 0.94451(5) 0.26738(3) 0.210961(16)
W2 W 0.68605(4) 0.23938(3) -0.130771(16)
W3 W 1.31612(6) 0.19656(4) 0.540420(17)
Nd1 Nd 0.33806(6) 0.26732(4) -0.27142(2)
Nd2 Nd 0.81907(5) 0.11108(4) 0.04435(2)
Nd3 Nd 1.27905(6) 0.29210(4) 0.35580(2)
O1 O 1.5042(10) 0.4703(7) 0.4132(4)
O2 O 1.4491(8) 0.2362(7) 0.2305(3)
O3 O 1.2381(9) 0.4001(7) 0.3127(3)
O4 O 1.4401(8) 0.2287(7) 0.3795(3)
O5 O 1.2141(9) 0.1741(6) 0.3648(3)
O6 O 1.1269(10) 0.3322(8) 0.3833(4)
O7 O 0.7356(7) 0.0728(5) 0.1073(3)
O8 O 0.7136(7) 0.2103(5) 0.0559(3)
O9 O 0.9385(6) 0.2013(5) 0.0237(3)
O10 O 0.9003(7) 0.0542(5) -0.0147(3)
O11 O 0.4905(8) 0.3142(7) -0.2963(4)
O12 O 0.4077(7) 0.1510(6) -0.2824(3)
O13 O 0.3684(9) 0.3717(5) -0.2239(3)
O14 O 0.1866(8) 0.2017(8) -0.2985(4)
O15 O 1.0292(8) -0.0704(5) 0.1133(3)
O16 O 0.5571(7) -0.0392(5) -0.0196(3)
O17 O 0.1762(8) 0.2104(6) -0.1448(3)
O18 O 0.0983(9) 0.4361(6) -0.3335(3)
N1 N 1.3753(11) 0.3917(7) 0.4007(4)
N2 N 1.4451(10) 0.3482(7) 0.3249(4)
N3 N 1.3401(10) 0.2401(7) 0.2823(4)
N4 N 1.2878(10) 0.2625(7) 0.4390(3)
N5 N 1.1252(9) 0.2735(7) 0.2950(4)
N6 N 1.0261(13) 0.1005(8) 0.2223(4)
N7 N 0.8283(11) 0.1951(8) 0.2924(5)
N8 N 0.8961(9) 0.1818(6) 0.1158(4)
N9 N 0.9194(9) 0.4011(6) 0.1383(4)
N10 N 0.8902(11) 0.4095(8) 0.2707(4)
N11 N 1.1662(12) 0.2887(9) 0.1713(4)
N12 N 0.6974(10) 0.2896(9) 0.1839(4)
N13 N 0.6077(12) 0.0714(8) -0.1347(4)
N14 N 0.7512(9) 0.1692(6) -0.0321(3)
N15 N 0.4701(9) 0.2546(6) -0.0846(3)
N16 N 0.4950(9) 0.2447(6) -0.2110(3)
N17 N 0.7128(10) 0.3805(7) -0.0645(4)
N18 N 0.7329(9) 0.3755(6) -0.1953(4)
N19 N 0.9347(9) 0.2510(7) -0.1044(4)
N20 N 0.7854(11) 0.1633(9) -0.2155(4)
N21 N 1.2760(15) 0.0528(10) 0.5997(5)
N22 N 1.5537(15) 0.1570(10) 0.5797(5)
N23 N 1.3340(10) 0.2445(8) 0.6453(4)
N24 N 1.4552(15) 0.3424(10) 0.5425(5)
N25 N 1.1394(15) 0.3169(11) 0.5459(5)
N26 N 1.3850(16) 0.0675(9) 0.4739(5)
N27 N 0.7960(9) -0.0334(6) 0.0456(3)
N28 N 0.6498(9) 0.0563(6) 0.0083(3)
N29 N 0.2415(10) 0.3690(7) -0.3159(3)
N30 N 0.1683(9) 0.3180(7) -0.2431(3)
N31 N 0.2798(9) 0.2087(7) -0.2003(4)
N32 N 0.9635(9) 0.0351(6) 0.0861(3)
N33 N 1.1017(14) 0.1289(13) 0.4940(8)
N34 N 0.9725(9) 0.3224(6) 0.0260(4)
N35 N 0.6594(8) 0.3249(6) 0.0575(4)
N36 N 0.9236(9) 0.0524(7) -0.0873(4)
N37 N 0.4640(9) 0.4311(6) -0.1692(4)
N38 N 1.1237(13) 0.0767(8) 0.3764(5)
N39 N 0.5512(10) 0.0851(7) -0.2915(4)
N40 N 0.6486(12) 0.3159(11) -0.3221(5)
N41 N 0.7018(9) 0.0885(7) 0.1777(4)
N42 N 1.1518(12) 0.4667(8) 0.2594(5)
N43 N 1.576(3) 0.205(2) 0.4231(11)
N44 N 0.956(3) 0.329(2) 0.3919(12)
C1 C 1.4825(11) 0.3209(8) 0.2901(4)
C2 C 1.5700(13) 0.3436(10) 0.2735(5)
H1 H 1.5930 0.3229 0.2479
C3 C 1.6246(14) 0.4011(12) 0.2977(5)
H2 H 1.6849 0.4199 0.2879
C4 C 1.5885(14) 0.4277(11) 0.3344(6)
H3 H 1.6239 0.4651 0.3506
C5 C 1.4977(12) 0.3996(9) 0.3484(5)
C6 C 1.4188(12) 0.2642(10) 0.2681(5)
C7 C 1.3652(11) 0.1855(10) 0.2134(5)
H4 H 1.3935 0.1390 0.2053
H5 H 1.3241 0.2057 0.1873
C8 C 1.3004(12) 0.1767(9) 0.2525(4)
H6 H 1.2271 0.1847 0.2418
C9 C 1.3117(13) 0.1077(9) 0.2772(5)
H7 H 1.2716 0.1117 0.3031
C10 C 1.4199(16) 0.0912(10) 0.2947(6)
H8 H 1.4223 0.0456 0.3106
H9 H 1.4462 0.1293 0.3149
H10 H 1.4615 0.0880 0.2701
C11 C 1.4542(15) 0.4206(8) 0.3890(5)
C12 C 1.3595(14) 0.4285(10) 0.4452(5)
H11 H 1.3744 0.3919 0.4689
C13 C 1.4463(15) 0.4831(11) 0.4507(6)
H12 H 1.4194 0.5325 0.4500
H13 H 1.4894 0.4756 0.4789
C14 C 1.2977(13) 0.2384(9) 0.4753(4)
C15 C 1.0614(11) 0.2706(10) 0.2661(4)
C16 C 0.9115(11) 0.2102(8) 0.1480(4)
C17 C 0.7769(12) 0.2810(9) 0.1942(4)
C18 C 0.8680(13) 0.2196(9) 0.2636(5)
C19 C 0.9146(12) 0.3626(8) 0.2498(4)
C20 C 1.0933(12) 0.2774(8) 0.1854(4)
C21 C 0.9318(10) 0.3555(7) 0.1643(4)
C22 C 0.9989(11) 0.1592(9) 0.2175(4)
C23 C 0.8497(10) 0.2476(7) -0.1158(4)
C24 C 0.7525(13) 0.1889(8) -0.1852(5)
C25 C 0.5622(10) 0.2422(8) -0.1832(4)
C26 C 0.5466(10) 0.2484(7) -0.1005(4)
C27 C 0.7008(12) 0.3326(8) -0.0874(4)
C28 C 0.7302(9) 0.1916(7) -0.0662(4)
C29 C 0.7169(10) 0.3288(7) -0.1725(4)
C30 C 0.6336(11) 0.1310(9) -0.1315(4)
C31 C 0.9159(10) 0.2654(9) 0.0131(4)
C32 C 1.3561(14) 0.1111(10) 0.4973(5)
C33 C 1.4733(17) 0.1714(10) 0.5670(5)
C34 C 1.3266(13) 0.2293(9) 0.6090(4)
C35 C 1.4039(19) 0.2945(12) 0.5419(5)
C36 C 1.2012(15) 0.2752(12) 0.5450(5)
C37 C 0.8702(10) -0.0735(8) 0.0682(4)
C38 C 0.8614(12) -0.1492(8) 0.0696(5)
H14 H 0.9143 -0.1782 0.0837
C39 C 0.7709(12) -0.1791(8) 0.0494(5)
H15 H 0.7594 -0.2292 0.0505
C40 C 0.6985(13) -0.1342(8) 0.0276(5)
H16 H 0.6376 -0.1543 0.0134
C41 C 0.7121(10) -0.0626(7) 0.0258(4)
C42 C 0.9553(10) -0.0322(8) 0.0900(4)
C43 C 1.1066(12) -0.0169(8) 0.1294(5)
H17 H 1.1715 -0.0257 0.1169
H18 H 1.1191 -0.0175 0.1621
C44 C 1.0593(10) 0.0531(8) 0.1129(4)
H19 H 1.0431 0.0818 0.1389
C45 C 1.1585(11) 0.0604(10) 0.0443(5)
H20 H 1.0962 0.0461 0.0260
H21 H 1.1995 0.0179 0.0525
H22 H 1.1975 0.0932 0.0276
C46 C 1.1305(10) 0.0979(8) 0.0863(4)
H23 H 1.0929 0.1425 0.0766
C47 C 1.2254(10) 0.1204(10) 0.1142(6)
H24 H 1.2073 0.1445 0.1408
H25 H 1.2641 0.1532 0.0973
H26 H 1.2668 0.0782 0.1226
C48 C 0.6401(10) -0.0128(8) 0.0054(4)
C49 C 0.5504(11) 0.0872(8) -0.0129(4)
H27 H 0.5647 0.1260 -0.0339
C50 C 0.4867(11) 0.1172(8) 0.0219(4)
H28 H 0.5292 0.1539 0.0391
C51 C 0.4988(12) 0.0240(8) -0.0388(4)
H29 H 0.4261 0.0206 -0.0342
H30 H 0.5047 0.0286 -0.0708
C52 C 0.3920(11) 0.1557(8) -0.0002(5)
H31 H 0.3525 0.1747 0.0226
H32 H 0.3503 0.1218 -0.0188
H33 H 0.4129 0.1950 -0.0184
C53 C 1.2653(15) 0.0432(13) 0.2476(6)
H34 H 1.2745 -0.0014 0.2643
H35 H 1.3003 0.0397 0.2209
H36 H 1.1927 0.0516 0.2392
C54 C 1.2564(17) 0.4556(13) 0.4489(6)
H37 H 1.2083 0.4145 0.4435
C55 C 1.251(2) 0.4810(12) 0.4958(6)
H38 H 1.1825 0.4985 0.4989
H39 H 1.3003 0.5196 0.5026
H40 H 1.2672 0.4412 0.5163
C56 C 1.223(2) 0.5142(14) 0.4145(6)
H41 H 1.1531 0.5291 0.4179
H42 H 1.2256 0.4952 0.3846
H43 H 1.2684 0.5554 0.4191
C57 C 1.1738(17) 0.1531(14) 0.5110(7)
C58 C 0.1556(14) 0.3917(10) -0.3047(5)
C59 C 0.1578(14) 0.4433(11) -0.3711(5)
H44 H 0.1651 0.4944 -0.3786
H45 H 0.1233 0.4184 -0.3972
C60 C 0.2625(12) 0.4100(9) -0.3579(5)
H46 H 0.2832 0.3773 -0.3813
C61 C 0.3404(16) 0.4675(10) -0.3462(5)
H47 H 0.4009 0.4415 -0.3315
C62 C 0.3178(15) 0.5234(11) -0.3137(5)
H48 H 0.3754 0.5565 -0.3089
H49 H 0.3066 0.5007 -0.2856
H50 H 0.2567 0.5498 -0.3252
C63 C 0.3780(15) 0.5019(10) -0.3877(4)
H51 H 0.4292 0.5384 -0.3787
H52 H 0.3206 0.5240 -0.4057
H53 H 0.4082 0.4650 -0.4051
C64 C 0.1112(11) 0.3683(9) -0.2668(4)
C65 C 0.0185(12) 0.3898(10) -0.2541(6)
H54 H -0.0213 0.4241 -0.2713
C66 C -0.0155(12) 0.3623(10) -0.2177(5)
H55 H -0.0797 0.3770 -0.2097
C67 C 0.0400(13) 0.3142(11) -0.1920(6)
H56 H 0.0176 0.2963 -0.1656
C68 C 0.1335(11) 0.2917(9) -0.2068(5)
C69 C 0.2021(10) 0.2391(10) -0.1843(4)
C70 C 0.3157(13) 0.1473(8) -0.1725(5)
H57 H 0.3909 0.1503 -0.1647
C71 C 0.2601(12) 0.1606(10) -0.1304(5)
H58 H 0.2333 0.1153 -0.1195
H59 H 0.3071 0.1821 -0.1065
C72 C 0.1756(13) 0.0672(10) -0.2079(6)
H60 H 0.1629 0.0223 -0.2241
H61 H 0.1473 0.1071 -0.2261
H62 H 0.1431 0.0654 -0.1805
C73 C 0.2881(15) 0.0777(10) -0.1971(6)
H63 H 0.3207 0.0775 -0.2252
C74 C 0.334(2) 0.0181(11) -0.1675(7)
H64 H 0.4077 0.0261 -0.1611
H65 H 0.3223 -0.0279 -0.1825
H66 H 0.3031 0.0178 -0.1398
C75 C 1.2937(16) 0.1048(12) 0.5792(5)
C76 C 0.9458(10) 0.3943(8) 0.0153(5)
H67 H 0.9992 0.4263 0.0286
H68 H 0.8814 0.4060 0.0267
H69 H 0.9383 0.4003 -0.0169
C77 C 1.0677(12) 0.3124(9) 0.0556(5)
H70 H 1.0999 0.3590 0.0620
H71 H 1.1139 0.2816 0.0412
H72 H 1.0522 0.2902 0.0832
C78 C 0.5782(12) 0.3170(9) 0.0219(5)
H73 H 0.5432 0.3628 0.0166
H74 H 0.5299 0.2810 0.0301
H75 H 0.6068 0.3018 -0.0049
C79 C 0.6651(16) 0.3937(10) 0.0795(7)
H76 H 0.6152 0.4264 0.0642
H77 H 0.7335 0.4136 0.0792
H78 H 0.6504 0.3878 0.1102
C80 C 0.7181(13) 0.2718(10) 0.0711(5)
C81 C 0.9397(11) 0.0775(9) -0.0465(5)
C82 C 0.8554(13) -0.0086(11) -0.0984(5)
H79 H 0.8532 -0.0191 -0.1300
H80 H 0.7870 0.0032 -0.0912
H81 H 0.8808 -0.0505 -0.0813
C83 C 0.9737(14) 0.0800(10) -0.1227(5)
H82 H 0.9505 0.0542 -0.1499
H83 H 1.0473 0.0739 -0.1159
H84 H 0.9579 0.1309 -0.1266
C84 C 0.4478(13) 0.4083(8) -0.2106(4)
C85 C 0.3983(13) 0.4121(9) -0.1338(4)
H85 H 0.4255 0.4345 -0.1059
H86 H 0.3974 0.3601 -0.1301
H87 H 0.3290 0.4293 -0.1423
C86 C 0.5536(11) 0.4768(9) -0.1554(5)
H88 H 0.5549 0.4885 -0.1240
H89 H 0.5491 0.5210 -0.1727
H90 H 0.6158 0.4511 -0.1603
C87 C 1.203(2) 0.1201(11) 0.3863(5)
C88 C 1.104(2) 0.0160(14) 0.4071(7)
H91 H 1.0419 -0.0095 0.3952
H92 H 1.0944 0.0352 0.4363
H93 H 1.1613 -0.0170 0.4096
C89 C 1.056(3) 0.081(2) 0.3358(8)
H94 H 1.0030 0.0437 0.3362
H95 H 1.0942 0.0726 0.3106
H96 H 1.0237 0.1278 0.3334
C90 C 0.4815(12) 0.1276(8) -0.3066(4)
C91 C 0.5648(15) 0.0548(10) -0.2469(5)
H97 H 0.6244 0.0234 -0.2440
H98 H 0.5043 0.0271 -0.2418
H99 H 0.5746 0.0934 -0.2252
C92 C 0.6301(14) 0.0678(12) -0.3176(6)
H100 H 0.6774 0.0344 -0.3014
H101 H 0.6666 0.1114 -0.3242
H102 H 0.6009 0.0456 -0.3452
C93 C 0.5863(14) 0.3031(10) -0.2900(5)
C94 C 0.768(2) 0.303(3) -0.3107(13)
H103 H 0.8029 0.3153 -0.3366
H104 H 0.7807 0.2531 -0.3028
H105 H 0.7937 0.3339 -0.2859
C95 C 0.619(2) 0.338(2) -0.3647(11)
H106 H 0.6796 0.3433 -0.3806
H107 H 0.5847 0.3844 -0.3641
H108 H 0.5732 0.3030 -0.3798
C96 C 0.6858(10) 0.1019(7) 0.1347(4)
C97 C 0.7789(12) 0.0374(9) 0.1947(5)
H109 H 0.7802 0.0341 0.2268
H110 H 0.8454 0.0531 0.1871
H111 H 0.7629 -0.0096 0.1815
C98 C 0.6351(11) 0.1208(8) 0.2083(5)
H112 H 0.6573 0.1054 0.2385
H113 H 0.5648 0.1055 0.2001
H114 H 0.6392 0.1730 0.2065
C99 C 0.1624(18) 0.1543(17) -0.3235(8)
C100 C 0.022(4) 0.115(2) -0.3874(14)
H115 H -0.0413 0.1372 -0.4005
H116 H 0.0060 0.0693 -0.3737
H117 H 0.0665 0.1061 -0.4104
C101 C 1.207(2) 0.4099(15) 0.2769(8)
C102 C 1.081(4) 0.515(3) 0.2744(13)
H118 H 1.0590 0.5487 0.2508
H119 H 1.1129 0.5408 0.3002
H120 H 1.0221 0.4882 0.2825
C103 C 1.159(3) 0.467(2) 0.2142(8)
H121 H 1.1202 0.5072 0.2005
H122 H 1.1325 0.4222 0.2012
H123 H 1.2309 0.4721 0.2090
C104 C 1.033(2) 0.3432(17) 0.3755(9)
C105 C 0.4570(12) 0.0604(10) 0.0552(5)
H124 H 0.5185 0.0368 0.0690
H125 H 0.4120 0.0249 0.0396
H126 H 0.4219 0.0837 0.0780
C106 C 0.012(3) 0.2330(19) -0.3574(13)
H127 H -0.0484 0.2275 -0.3786
H128 H 0.0551 0.2711 -0.3673
H129 H -0.0084 0.2455 -0.3284
C107 C 1.483(2) 0.1956(18) 0.4089(6)
C108 C 1.589(4) 0.277(2) 0.4390(15)
H130 H 1.6589 0.2837 0.4521
H131 H 1.5422 0.2856 0.4614
H132 H 1.5735 0.3101 0.4144
C109 C 1.619(3) 0.160(2) 0.4635(10)
H133 H 1.6889 0.1750 0.4732
H134 H 1.6193 0.1090 0.4553
H135 H 1.5769 0.1663 0.4877
C110 C 0.849(3) 0.346(2) 0.3744(11)
H136 H 0.8029 0.3316 0.3961
H137 H 0.8305 0.3193 0.3468
H138 H 0.8420 0.3970 0.3687
C111 C 0.956(4) 0.286(3) 0.4346(14)
H139 H 0.8864 0.2826 0.4428
H140 H 0.9995 0.3094 0.4583
H141 H 0.9817 0.2374 0.4301
N45 N 0.072(2) 0.1620(18) -0.3539(9)
Nd1_2 Nd 1.33806(6) 0.26732(4) 0.72858(2)
N23_2 N 0.3340(10) 0.2445(8) -0.3547(4)
loop_
_geom_bond_atom_site_label_1
_geom_bond_atom_site_label_2
_geom_bond_site_symmetry_1
_geom_bond_site_symmetry_2
W1 C15 1_555 1_555
W2 C23 1_555 1_555
W3 C14 1_555 1_555
Nd1 O11 1_555 1_555
Nd2 O7 1_555 1_555
Nd3 O3 1_555 1_555
O1 C11 1_555 1_555
O2 C6 1_555 1_555
O3 C101 1_555 1_555
O4 Nd3 1_555 1_555
O5 Nd3 1_555 1_555
O6 Nd3 1_555 1_555
O7 C96 1_555 1_555
O8 Nd2 1_555 1_555
O9 Nd2 1_555 1_555
O10 Nd2 1_555 1_555
O11 C93 1_555 1_555
O12 Nd1 1_555 1_555
O13 Nd1 1_555 1_555
O14 Nd1 1_555 1_555
O15 C42 1_555 1_555
O16 C48 1_555 1_555
O17 C69 1_555 1_555
O18 C58 1_555 1_555
N1 Nd3 1_555 1_555
N2 Nd3 1_555 1_555
N3 Nd3 1_555 1_555
N4 Nd3 1_555 1_555
N5 Nd3 1_555 1_555
N6 C22 1_555 1_555
N7 C18 1_555 1_555
N8 Nd2 1_555 1_555
N9 C21 1_555 1_555
N10 C19 1_555 1_555
N11 C20 1_555 1_555
N12 C17 1_555 1_555
N13 C30 1_555 1_555
N14 Nd2 1_555 1_555
N15 C26 1_555 1_555
N16 Nd1 1_555 1_555
N17 C27 1_555 1_555
N18 C29 1_555 1_555
N19 C23 1_555 1_555
N20 C24 1_555 1_555
N21 C75 1_555 1_555
N22 C33 1_555 1_555
N23 C34 1_555 1_555
N24 C35 1_555 1_555
N25 C36 1_555 1_555
N26 C32 1_555 1_555
N27 Nd2 1_555 1_555
N28 Nd2 1_555 1_555
N29 Nd1 1_555 1_555
N30 Nd1 1_555 1_555
N31 Nd1 1_555 1_555
N32 Nd2 1_555 1_555
N33 C57 1_555 1_555
N34 C31 1_555 1_555
N35 C78 1_555 1_555
N36 C81 1_555 1_555
N37 C84 1_555 1_555
N38 C87 1_555 1_555
N39 C90 1_555 1_555
N40 C93 1_555 1_555
N41 C96 1_555 1_555
N42 C101 1_555 1_555
N43 C107 1_555 1_555
N44 C104 1_555 1_555
C1 N2 1_555 1_555
C2 C1 1_555 1_555
H1 C2 1_555 1_555
C3 C2 1_555 1_555
H2 C3 1_555 1_555
C4 C3 1_555 1_555
H3 C4 1_555 1_555
C5 N2 1_555 1_555
C6 N3 1_555 1_555
C7 O2 1_555 1_555
H4 C7 1_555 1_555
H5 C7 1_555 1_555
C8 N3 1_555 1_555
H6 C8 1_555 1_555
C9 C8 1_555 1_555
H7 C9 1_555 1_555
C10 C9 1_555 1_555
H8 C10 1_555 1_555
H9 C10 1_555 1_555
H10 C10 1_555 1_555
C11 N1 1_555 1_555
C12 N1 1_555 1_555
H11 C12 1_555 1_555
C13 O1 1_555 1_555
H12 C13 1_555 1_555
H13 C13 1_555 1_555
C14 N4 1_555 1_555
C15 N5 1_555 1_555
C16 W1 1_555 1_555
C17 W1 1_555 1_555
C18 W1 1_555 1_555
C19 W1 1_555 1_555
C20 W1 1_555 1_555
C21 W1 1_555 1_555
C22 W1 1_555 1_555
C24 W2 1_555 1_555
C25 W2 1_555 1_555
C26 W2 1_555 1_555
C27 W2 1_555 1_555
C28 W2 1_555 1_555
C29 W2 1_555 1_555
C30 W2 1_555 1_555
C31 O9 1_555 1_555
C32 W3 1_555 1_555
C33 W3 1_555 1_555
C34 W3 1_555 1_555
C35 W3 1_555 1_555
C36 W3 1_555 1_555
C37 N27 1_555 1_555
C38 C37 1_555 1_555
H14 C38 1_555 1_555
C39 C38 1_555 1_555
H15 C39 1_555 1_555
C40 C39 1_555 1_555
H16 C40 1_555 1_555
C41 N27 1_555 1_555
C42 N32 1_555 1_555
C43 O15 1_555 1_555
H17 C43 1_555 1_555
H18 C43 1_555 1_555
C44 N32 1_555 1_555
H19 C44 1_555 1_555
C45 H20 1_555 1_555
H21 C45 1_555 1_555
H22 C45 1_555 1_555
C46 C44 1_555 1_555
H23 C46 1_555 1_555
C47 C46 1_555 1_555
H24 C47 1_555 1_555
H25 C47 1_555 1_555
H26 C47 1_555 1_555
C48 N28 1_555 1_555
C49 N28 1_555 1_555
H27 C49 1_555 1_555
C50 C49 1_555 1_555
H28 C50 1_555 1_555
C51 O16 1_555 1_555
H29 C51 1_555 1_555
H30 C51 1_555 1_555
C52 C50 1_555 1_555
H31 C52 1_555 1_555
H32 C52 1_555 1_555
H33 C52 1_555 1_555
C53 C9 1_555 1_555
H34 C53 1_555 1_555
H35 C53 1_555 1_555
H36 C53 1_555 1_555
C54 C12 1_555 1_555
H37 C54 1_555 1_555
C55 C54 1_555 1_555
H38 C55 1_555 1_555
H39 C55 1_555 1_555
H40 C55 1_555 1_555
C56 C54 1_555 1_555
H41 C56 1_555 1_555
H42 C56 1_555 1_555
H43 C56 1_555 1_555
C57 W3 1_555 1_555
C58 N29 1_555 1_555
C59 O18 1_555 1_555
H44 C59 1_555 1_555
H45 C59 1_555 1_555
C60 N29 1_555 1_555
H46 C60 1_555 1_555
C61 C60 1_555 1_555
H47 C61 1_555 1_555
C62 C61 1_555 1_555
H48 C62 1_555 1_555
H49 C62 1_555 1_555
H50 C62 1_555 1_555
C63 C61 1_555 1_555
H51 C63 1_555 1_555
H52 C63 1_555 1_555
H53 C63 1_555 1_555
C64 N30 1_555 1_555
C65 C64 1_555 1_555
H54 C65 1_555 1_555
C66 C65 1_555 1_555
H55 C66 1_555 1_555
C67 C66 1_555 1_555
H56 C67 1_555 1_555
C68 N30 1_555 1_555
C69 N31 1_555 1_555
C70 N31 1_555 1_555
H57 C70 1_555 1_555
C71 O17 1_555 1_555
H58 C71 1_555 1_555
H59 C71 1_555 1_555
C72 H60 1_555 1_555
H61 C72 1_555 1_555
H62 C72 1_555 1_555
C73 C70 1_555 1_555
H63 C73 1_555 1_555
C74 C73 1_555 1_555
H64 C74 1_555 1_555
H65 C74 1_555 1_555
H66 C74 1_555 1_555
C75 W3 1_555 1_555
C76 N34 1_555 1_555
H67 C76 1_555 1_555
H68 C76 1_555 1_555
H69 C76 1_555 1_555
C77 N34 1_555 1_555
H70 C77 1_555 1_555
H71 C77 1_555 1_555
H72 C77 1_555 1_555
C78 H73 1_555 1_555
H74 C78 1_555 1_555
H75 C78 1_555 1_555
C79 N35 1_555 1_555
H76 C79 1_555 1_555
H77 C79 1_555 1_555
H78 C79 1_555 1_555
C80 O8 1_555 1_555
C81 O10 1_555 1_555
C82 N36 1_555 1_555
H79 C82 1_555 1_555
H80 C82 1_555 1_555
H81 C82 1_555 1_555
C83 N36 1_555 1_555
H82 C83 1_555 1_555
H83 C83 1_555 1_555
H84 C83 1_555 1_555
C84 O13 1_555 1_555
C85 N37 1_555 1_555
H85 C85 1_555 1_555
H86 C85 1_555 1_555
H87 C85 1_555 1_555
C86 N37 1_555 1_555
H88 C86 1_555 1_555
H89 C86 1_555 1_555
H90 C86 1_555 1_555
C87 O5 1_555 1_555
C88 N38 1_555 1_555
H91 C88 1_555 1_555
H92 C88 1_555 1_555
H93 C88 1_555 1_555
C89 N38 1_555 1_555
H94 C89 1_555 1_555
H95 C89 1_555 1_555
H96 C89 1_555 1_555
C90 O12 1_555 1_555
C91 N39 1_555 1_555
H97 C91 1_555 1_555
H98 C91 1_555 1_555
H99 C91 1_555 1_555
C92 N39 1_555 1_555
H100 C92 1_555 1_555
H101 C92 1_555 1_555
H102 C92 1_555 1_555
C94 N40 1_555 1_555
H103 C94 1_555 1_555
H104 C94 1_555 1_555
H105 C94 1_555 1_555
C95 N40 1_555 1_555
H106 C95 1_555 1_555
H107 C95 1_555 1_555
H108 C95 1_555 1_555
C97 N41 1_555 1_555
H109 C97 1_555 1_555
H110 C97 1_555 1_555
H111 C97 1_555 1_555
C98 N41 1_555 1_555
H112 C98 1_555 1_555
H113 C98 1_555 1_555
H114 C98 1_555 1_555
C99 O14 1_555 1_555
C100 H115 1_555 1_555
H116 C100 1_555 1_555
H117 C100 1_555 1_555
C102 N42 1_555 1_555
H118 C102 1_555 1_555
H119 C102 1_555 1_555
H120 C102 1_555 1_555
C103 N42 1_555 1_555
H121 C103 1_555 1_555
H122 C103 1_555 1_555
H123 C103 1_555 1_555
C104 O6 1_555 1_555
C105 C50 1_555 1_555
H124 C105 1_555 1_555
H125 C105 1_555 1_555
H126 C105 1_555 1_555
C106 H127 1_555 1_555
H128 C106 1_555 1_555
H129 C106 1_555 1_555
C107 O4 1_555 1_555
C108 N43 1_555 1_555
H130 C108 1_555 1_555
H131 C108 1_555 1_555
H132 C108 1_555 1_555
C109 N43 1_555 1_555
H133 C109 1_555 1_555
H134 C109 1_555 1_555
H135 C109 1_555 1_555
C110 N44 1_555 1_555
H136 C110 1_555 1_555
H137 C110 1_555 1_555
H138 C110 1_555 1_555
C111 N44 1_555 1_555
H139 C111 1_555 1_555
H140 C111 1_555 1_555
H141 C111 1_555 1_555
N45 C99 1_555 1_555
O19 C112 1_555 1_555
N46 C112 1_555 1_555
C113 N46 1_555 1_555
H142 C113 1_555 1_555
H143 C113 1_555 1_555
H144 C113 1_555 1_555
C114 N46 1_555 1_555
H145 C114 1_555 1_555
H146 C114 1_555 1_555
H147 C114 1_555 1_555
Nd1_2 N23 1_555 1_555
N23_2 Nd1 1_555 1_555
N8 C16 1_555 1_555
N14 C28 1_555 1_555
N16 C25 1_555 1_555
N35 C80 1_555 1_555
C1 C6 1_555 1_555
C4 C5 1_555 1_555
C5 C11 1_555 1_555
C7 C8 1_555 1_555
C12 C13 1_555 1_555
C37 C42 1_555 1_555
C40 C41 1_555 1_555
C41 C48 1_555 1_555
C43 C44 1_555 1_555
C45 C46 1_555 1_555
C49 C51 1_555 1_555
C58 C64 1_555 1_555
C59 C60 1_555 1_555
C67 C68 1_555 1_555
C68 C69 1_555 1_555
C70 C71 1_555 1_555
C72 C73 1_555 1_555
C100 N45 1_555 1_555
C106 N45 1_555 1_555

#END
