
#######################################################################
#
#                 Cambridge Crystallographic Data Centre
#                                CCDC 
#
#######################################################################
#
# If this CIF has been generated from an entry in the Cambridge 
# Structural Database, then it will include bibliographic, chemical, 
# crystal, experimental, refinement or atomic coordinate data resulting 
# from the CCDC's data processing and validation procedures.
#
#######################################################################

data_CIYZAM
_symmetry_cell_setting           monoclinic
_symmetry_space_group_name_H-M   'C 2/c'
_symmetry_Int_Tables_number      15
_space_group_name_Hall           '-C 2yn'
loop_
_symmetry_equiv_pos_site_id
_symmetry_equiv_pos_as_xyz
1 x,y,z
2 1/2+x,1/2+y,z
3 -x,y,1/2-z
4 1/2-x,1/2+y,1/2-z
5 -x,-y,-z
6 1/2-x,1/2-y,-z
7 x,-y,1/2+z
8 1/2+x,1/2-y,1/2+z
_cell_length_a                   25.215(5)
_cell_length_b                   5.7711(12)
_cell_length_c                   18.858(4)
_cell_angle_alpha                90
_cell_angle_beta                 124.15(3)
_cell_angle_gamma                90
_cell_volume                     2271.01
loop_
_atom_site_label
_atom_site_type_symbol
_atom_site_fract_x
_atom_site_fract_y
_atom_site_fract_z
Dy1 Dy 0.133734(8) 0.15770(3) 0.114348(11)
S1 S 0.19218(5) 0.50122(18) -0.06235(6)
S2 S 0.0000 0.1887(3) 0.2500
C1 C 0.13557(19) 0.6669(7) 0.0193(3)
C2 C 0.15350(18) 0.7085(7) -0.0422(2)
C3 C 0.1429(2) 0.9059(8) -0.0887(3)
H1 H 0.122(2) 1.049(8) -0.085(3)
C4 C 0.1654(2) 0.8886(8) -0.1414(3)
H2 H 0.163(2) 0.997(10) -0.180(3)
C5 C 0.19268(19) 0.6786(7) -0.1351(2)
C6 C 0.22469(18) 0.6030(7) -0.1773(2)
C7 C 0.05213(19) 0.3199(7) 0.1618(2)
C8 C 0.0233(2) 0.3950(8) 0.2080(3)
C9 C 0.0140(3) 0.6128(9) 0.2268(3)
H3 H 0.029(3) 0.750(13) 0.217(4)
O1 O 0.16428(14) -0.1671(5) 0.2084(2)
H4 H 0.1409(15) -0.282(4) 0.191(3)
H5 H 0.2005(8) -0.215(6) 0.227(3)
O2 O 0.15110(14) 0.4749(5) 0.05795(19)
O3 O 0.03339(15) 0.2060(6) -0.02205(19)
H6 H 0.020(2) 0.102(5) -0.057(2)
H7 H 0.0082(18) 0.314(5) -0.044(3)
O4 O 0.10651(14) 0.8263(5) 0.02970(18)
O5 O 0.26848(13) 0.4506(5) -0.13871(17)
O6 O 0.20684(14) 0.6899(5) -0.24906(18)
O7 O 0.07277(14) 0.4709(5) 0.13382(19)
O8 O 0.05638(13) 0.1058(5) 0.15150(18)
Dy1_2 Dy 0.133734(8) -0.84230(3) 0.114348(11)
Dy1_3 Dy 0.133734(8) 1.15770(3) 0.114348(11)
Dy1E Dy 0.366266(8) 0.34230(3) -0.114348(11)
Dy1F Dy 0.133734(8) 0.84230(3) -0.385652(11)
Dy1B Dy -0.133734(8) 0.15770(3) 0.385652(11)
Dy1E_2 Dy 0.366266(8) -0.65770(3) -0.114348(11)
Dy1F_2 Dy 0.133734(8) -0.15770(3) -0.385652(11)
S1_2 S 0.19218(5) -0.49878(18) -0.06235(6)
C1_2 C 0.13557(19) -0.3331(7) 0.0193(3)
C2_2 C 0.15350(18) -0.2915(7) -0.0422(2)
C3_2 C 0.1429(2) -0.0941(8) -0.0887(3)
H1_2 H 0.122(2) 0.049(8) -0.085(3)
C4_2 C 0.1654(2) -0.1114(8) -0.1414(3)
H2_2 H 0.163(2) -0.003(10) -0.180(3)
C5_2 C 0.19268(19) -0.3214(7) -0.1351(2)
C6_2 C 0.22469(18) -0.3970(7) -0.1773(2)
C7B C -0.05213(19) 0.3199(7) 0.3382(2)
C8B C -0.0233(2) 0.3950(8) 0.2920(3)
C9B C -0.0140(3) 0.6128(9) 0.2732(3)
H3B H -0.029(3) 0.750(13) 0.283(4)
O1_2 O 0.16428(14) -1.1671(5) 0.2084(2)
H4_2 H 0.1409(15) -1.282(4) 0.191(3)
H5_2 H 0.2005(8) -1.215(6) 0.227(3)
O2_2 O 0.15110(14) -0.5251(5) 0.05795(19)
O3_2 O 0.03339(15) -0.7940(6) -0.02205(19)
H6_2 H 0.020(2) -0.898(5) -0.057(2)
H7_2 H 0.0082(18) -0.686(5) -0.044(3)
O4_2 O 0.10651(14) -0.1737(5) 0.02970(18)
O4_3 O 0.10651(14) -1.1737(5) 0.02970(18)
O5_2 O 0.26848(13) -0.5494(5) -0.13871(17)
O5E O 0.23152(13) 0.0494(5) 0.13871(17)
O5E_2 O 0.23152(13) -0.9506(5) 0.13871(17)
O6_2 O 0.20684(14) -0.3101(5) -0.24906(18)
O6F O 0.20684(14) 0.3101(5) 0.25094(18)
O6F_2 O 0.20684(14) -0.6899(5) 0.25094(18)
O7B O -0.07277(14) 0.4709(5) 0.36618(19)
O7_2 O 0.07277(14) -0.5291(5) 0.13382(19)
O8B O -0.05638(13) 0.1058(5) 0.34850(18)
O8_2 O 0.05638(13) -0.8942(5) 0.15150(18)
loop_
_geom_bond_atom_site_label_1
_geom_bond_atom_site_label_2
_geom_bond_site_symmetry_1
_geom_bond_site_symmetry_2
Dy1 O1 1_555 1_555
S1 C2 1_555 1_555
S2 C8 1_555 1_555
C1 C2 1_555 1_555
C2 C3 1_555 1_555
C3 H1 1_555 1_555
C4 C3 1_555 1_555
H2 C4 1_555 1_555
C5 S1 1_555 1_555
C6 C5 1_555 1_555
C7 C8 1_555 1_555
C8 C9 1_555 1_555
C9 H3 1_555 1_555
O1 H4 1_555 1_555
H5 O1 1_555 1_555
O2 Dy1 1_555 1_555
O3 Dy1 1_555 1_555
H6 O3 1_555 1_555
H7 O3 1_555 1_555
O4 C1 1_555 1_555
O5 C6 1_555 1_555
O6 C6 1_555 1_555
O7 Dy1 1_555 1_555
O8 Dy1 1_555 1_555
Dy1_2 O1_2 1_555 1_555
Dy1_3 O4 1_555 1_555
Dy1E O5 1_555 1_555
Dy1F O6 1_555 1_555
Dy1B O7B 1_555 1_555
Dy1E_2 O5_2 1_555 1_555
Dy1F_2 O6_2 1_555 1_555
S1_2 C2_2 1_555 1_555
C1_2 C2_2 1_555 1_555
C2_2 C3_2 1_555 1_555
C3_2 H1_2 1_555 1_555
C4_2 C3_2 1_555 1_555
H2_2 C4_2 1_555 1_555
C5_2 S1_2 1_555 1_555
C6_2 C5_2 1_555 1_555
C7B C8B 1_555 1_555
C8B S2 1_555 1_555
C9B C9 1_555 1_555
H3B C9B 1_555 1_555
O1_2 H4_2 1_555 1_555
H5_2 O1_2 1_555 1_555
O2_2 Dy1_2 1_555 1_555
O3_2 Dy1_2 1_555 1_555
H6_2 O3_2 1_555 1_555
H7_2 O3_2 1_555 1_555
O4_2 Dy1 1_555 1_555
O4_3 Dy1_2 1_555 1_555
O5_2 C6_2 1_555 1_555
O5E Dy1 1_555 1_555
O5E_2 Dy1_2 1_555 1_555
O6_2 C6_2 1_555 1_555
O6F Dy1 1_555 1_555
O6F_2 Dy1_2 1_555 1_555
O7B C7B 1_555 1_555
O7_2 Dy1_2 1_555 1_555
O8B Dy1B 1_555 1_555
O8_2 Dy1_2 1_555 1_555
C1 O2 1_555 1_555
C4 C5 1_555 1_555
C7 O7 1_555 1_555
C7 O8 1_555 1_555
C1_2 O2_2 1_555 1_555
C1_2 O4_2 1_555 1_555
C4_2 C5_2 1_555 1_555
C7B O8B 1_555 1_555
C8B C9B 1_555 1_555

#END
