
#######################################################################
#
#                 Cambridge Crystallographic Data Centre
#                                CCDC 
#
#######################################################################
#
# If this CIF has been generated from an entry in the Cambridge 
# Structural Database, then it will include bibliographic, chemical, 
# crystal, experimental, refinement or atomic coordinate data resulting 
# from the CCDC's data processing and validation procedures.
#
#######################################################################

data_CIYZAM01
_symmetry_cell_setting           monoclinic
_symmetry_space_group_name_H-M   'C 2/c'
_symmetry_Int_Tables_number      15
_space_group_name_Hall           '-C 2yn'
loop_
_symmetry_equiv_pos_site_id
_symmetry_equiv_pos_as_xyz
1 x,y,z
2 -x,y,1/2-z
3 1/2+x,1/2+y,z
4 1/2-x,1/2+y,1/2-z
5 -x,-y,-z
6 x,-y,1/2+z
7 1/2-x,1/2-y,-z
8 1/2+x,1/2-y,1/2+z
_cell_length_a                   25.212(5)
_cell_length_b                   5.7646(12)
_cell_length_c                   18.814(4)
_cell_angle_alpha                90
_cell_angle_beta                 124.56(3)
_cell_angle_gamma                90
_cell_volume                     2251.84
loop_
_atom_site_label
_atom_site_type_symbol
_atom_site_fract_x
_atom_site_fract_y
_atom_site_fract_z
Dy1 Dy 0.230308(12) 0.09266(4) 0.613303(15)
C1 C 0.0546(2) 0.5403(9) 0.4574(3)
C2 C 0.0180(3) 0.3423(10) 0.4106(4)
H1 H 0.0382 0.2063 0.4113
C3 C -0.0574(3) 0.3587(10) 0.3573(4)
H2 H -0.0850 0.2379 0.3243
C4 C -0.0778(3) 0.5694(9) 0.3650(4)
C5 C 0.1325(2) 0.5851(9) 0.5176(3)
C6 C -0.1520(3) 0.6449(9) 0.3234(3)
C7 C 0.4346(3) -0.1472(10) 0.7083(4)
C8 C 0.4626(3) -0.3671(10) 0.7267(4)
H3 H 0.4387 -0.5029 0.7126
C9 C 0.3594(3) -0.0716(9) 0.6616(4)
O1 O 0.17252(19) 0.4238(6) 0.5275(2)
O2 O 0.15644(19) 0.7754(6) 0.5572(2)
O3 O -0.20712(19) 0.5595(6) 0.2505(2)
O4 O -0.15699(18) 0.7968(6) 0.3618(2)
O5 O 0.31066(19) -0.2202(6) 0.6337(2)
O6 O 0.34538(19) 0.1436(6) 0.6520(2)
O7 O 0.1943(2) 0.0421(7) 0.4758(2)
O8 O 0.29312(19) 0.4196(6) 0.7082(2)
S1 S -0.00455(7) 0.7472(2) 0.43790(8)
S2 S 0.5000 0.0609(3) 0.7500
Dy1_2 Dy 0.230308(12) -0.90734(4) 0.613303(15)
Dy1_3 Dy 0.230308(12) 1.09266(4) 0.613303(15)
Dy1G Dy -0.269692(12) 0.40734(4) 0.113303(15)
Dy1D Dy -0.230308(12) 0.90734(4) 0.386697(15)
Dy1A Dy 0.769692(12) 0.09266(4) 0.886697(15)
Dy1G_2 Dy -0.269692(12) -0.59266(4) 0.113303(15)
Dy1D_2 Dy -0.230308(12) -0.09266(4) 0.386697(15)
C1_2 C 0.0546(2) -0.4597(9) 0.4574(3)
C2_2 C 0.0180(3) -0.6577(10) 0.4106(4)
H1_2 H 0.0382 -0.7937 0.4113
C3_2 C -0.0574(3) -0.6413(10) 0.3573(4)
H2_2 H -0.0850 -0.7621 0.3243
C4_2 C -0.0778(3) -0.4306(9) 0.3650(4)
C5_2 C 0.1325(2) -0.4149(9) 0.5176(3)
C6_2 C -0.1520(3) -0.3551(9) 0.3234(3)
C7A C 0.5654(3) -0.1472(10) 0.7917(4)
C8A C 0.5374(3) -0.3671(10) 0.7733(4)
H3A H 0.5613 -0.5029 0.7874
C9A C 0.6406(3) -0.0716(9) 0.8384(4)
O1_2 O 0.17252(19) -0.5762(6) 0.5275(2)
O2_2 O 0.15644(19) -0.2246(6) 0.5572(2)
O2_3 O 0.15644(19) -1.2246(6) 0.5572(2)
O3_2 O -0.20712(19) -0.4405(6) 0.2505(2)
O3G O 0.29288(19) -0.0595(6) 0.7505(2)
O3G_2 O 0.29288(19) -1.0595(6) 0.7505(2)
O4_2 O -0.15699(18) -0.2032(6) 0.3618(2)
O4D O 0.15699(18) 0.2032(6) 0.6382(2)
O4D_2 O 0.15699(18) -0.7968(6) 0.6382(2)
O5A O 0.68934(19) -0.2202(6) 0.8663(2)
O5_2 O 0.31066(19) -1.2202(6) 0.6337(2)
O6A O 0.65462(19) 0.1436(6) 0.8480(2)
O6_2 O 0.34538(19) -0.8564(6) 0.6520(2)
O7_2 O 0.1943(2) -0.9579(7) 0.4758(2)
O8_2 O 0.29312(19) -0.5804(6) 0.7082(2)
S1_2 S -0.00455(7) -0.2528(2) 0.43790(8)
loop_
_geom_bond_atom_site_label_1
_geom_bond_atom_site_label_2
_geom_bond_site_symmetry_1
_geom_bond_site_symmetry_2
Dy1 O1 1_555 1_555
C1 C2 1_555 1_555
C2 H1 1_555 1_555
C3 C2 1_555 1_555
H2 C3 1_555 1_555
C4 C3 1_555 1_555
C5 C1 1_555 1_555
C6 C4 1_555 1_555
C7 C8 1_555 1_555
C8 H3 1_555 1_555
C9 C7 1_555 1_555
O1 C5 1_555 1_555
O2 C5 1_555 1_555
O3 C6 1_555 1_555
O4 C6 1_555 1_555
O5 Dy1 1_555 1_555
O6 Dy1 1_555 1_555
O7 Dy1 1_555 1_555
O8 Dy1 1_555 1_555
S1 C1 1_555 1_555
S2 C7 1_555 1_555
Dy1_2 O1_2 1_555 1_555
Dy1_3 O2 1_555 1_555
Dy1G O3 1_555 1_555
Dy1D O4 1_555 1_555
Dy1A O5A 1_555 1_555
Dy1G_2 O3_2 1_555 1_555
Dy1D_2 O4_2 1_555 1_555
C1_2 C2_2 1_555 1_555
C2_2 H1_2 1_555 1_555
C3_2 C2_2 1_555 1_555
H2_2 C3_2 1_555 1_555
C4_2 C3_2 1_555 1_555
C5_2 C1_2 1_555 1_555
C6_2 C4_2 1_555 1_555
C7A S2 1_555 1_555
C8A C8 1_555 1_555
H3A C8A 1_555 1_555
C9A C7A 1_555 1_555
O1_2 C5_2 1_555 1_555
O2_2 Dy1 1_555 1_555
O2_3 Dy1_2 1_555 1_555
O3_2 C6_2 1_555 1_555
O3G Dy1 1_555 1_555
O3G_2 Dy1_2 1_555 1_555
O4_2 C6_2 1_555 1_555
O4D Dy1 1_555 1_555
O4D_2 Dy1_2 1_555 1_555
O5A C9A 1_555 1_555
O5_2 Dy1_2 1_555 1_555
O6A Dy1A 1_555 1_555
O6_2 Dy1_2 1_555 1_555
O7_2 Dy1_2 1_555 1_555
O8_2 Dy1_2 1_555 1_555
S1_2 C1_2 1_555 1_555
C4 S1 1_555 1_555
C9 O5 1_555 1_555
C9 O6 1_555 1_555
C4_2 S1_2 1_555 1_555
C5_2 O2_2 1_555 1_555
C7A C8A 1_555 1_555
C9A O6A 1_555 1_555

#END
