
#######################################################################
#
#                 Cambridge Crystallographic Data Centre
#                                CCDC 
#
#######################################################################
#
# If this CIF has been generated from an entry in the Cambridge 
# Structural Database, then it will include bibliographic, chemical, 
# crystal, experimental, refinement or atomic coordinate data resulting 
# from the CCDC's data processing and validation procedures.
#
#######################################################################

data_CIZBAQ
_symmetry_cell_setting           orthorhombic
_symmetry_space_group_name_H-M   'P 21 21 21'
_symmetry_Int_Tables_number      19
_space_group_name_Hall           'P 2ac 2ab'
loop_
_symmetry_equiv_pos_site_id
_symmetry_equiv_pos_as_xyz
1 x,y,z
2 1/2+x,1/2-y,-z
3 -x,1/2+y,1/2-z
4 1/2-x,-y,1/2+z
_cell_length_a                   17.2970(5)
_cell_length_b                   19.8958(6)
_cell_length_c                   19.8942(7)
_cell_angle_alpha                90
_cell_angle_beta                 90
_cell_angle_gamma                90
_cell_volume                     6846.34
loop_
_atom_site_label
_atom_site_type_symbol
_atom_site_fract_x
_atom_site_fract_y
_atom_site_fract_z
W1 W 0.35207(3) 0.63317(2) 0.56360(3)
Gd1 Gd 0.58897(4) 0.83921(3) 0.62146(3)
O1 O 0.6325(5) 0.7318(4) 0.5810(4)
O2 O 0.5464(5) 0.8571(4) 0.5079(5)
O3 O 0.6153(5) 0.9566(5) 0.6049(5)
O4 O 0.7752(6) 0.8840(4) 0.7852(5)
O5 O 0.3755(6) 0.9310(5) 0.7290(5)
O6 O 0.5646(5) 0.7657(4) 0.7130(5)
N1 N 0.4685(6) 0.7651(5) 0.5958(5)
N2 N 0.2446(7) 0.7539(6) 0.6336(6)
N3 N 0.1979(7) 0.5547(6) 0.6253(7)
N4 N 0.3420(7) 0.4870(6) 0.4853(7)
N5 N 0.5285(6) 0.5723(6) 0.5720(6)
N6 N 0.4366(7) 0.6728(6) 0.4189(6)
N7 N 0.3887(8) 0.6028(7) 0.7237(7)
N8 N 0.7129(6) 0.8407(6) 0.6970(6)
N9 N 0.5791(7) 0.8987(5) 0.7376(6)
N10 N 0.4632(6) 0.8986(6) 0.6483(6)
N11 N 0.6288(8) 1.0540(5) 0.5476(7)
N12 N 0.5188(7) 0.8322(6) 0.4016(6)
N13 N 0.5806(7) 0.6672(6) 0.7671(6)
N14 N 0.7113(5) 0.8484(5) 0.5473(6)
N15 N 0.6616(6) 0.6635(6) 0.4939(6)
C1 C 0.4668(8) 0.5907(6) 0.5692(9)
C2 C 0.3462(8) 0.5363(5) 0.5132(7)
C3 C 0.3746(10) 0.6119(8) 0.6694(10)
C4 C 0.2509(8) 0.5813(6) 0.6034(6)
C5 C 0.2803(8) 0.7099(7) 0.6100(7)
C6 C 0.4277(9) 0.7176(6) 0.5840(7)
C7 C 0.4058(7) 0.6599(7) 0.4685(7)
C8 C 0.7590(6) 0.8526(5) 0.5090(6)
C9 C 0.7935(8) 0.8173(7) 0.6893(8)
H1 H 0.8143 0.8232 0.6428
C10 C 0.7087(8) 0.8727(6) 0.7524(7)
C11 C 0.8390(8) 0.8587(7) 0.7438(7)
H2 H 0.8677 0.8967 0.7225
C12 C 0.6358(7) 0.8994(6) 0.7812(6)
C13 C 0.6290(9) 0.9205(7) 0.8486(8)
H3 H 0.6729 0.9222 0.8772
C14 C 0.5588(10) 0.9381(6) 0.8709(9)
H4 H 0.5515 0.9504 0.9166
C15 C 0.4963(9) 0.9379(6) 0.8262(8)
H5 H 0.4464 0.9513 0.8410
C16 C 0.5077(8) 0.9183(6) 0.7607(7)
C17 C 0.4476(8) 0.9157(6) 0.7108(8)
C18 C 0.3857(8) 0.9097(7) 0.6122(8)
H6 H 0.3722 0.8703 0.5833
C19 C 0.3266(8) 0.9186(7) 0.6692(8)
H7 H 0.2943 0.8774 0.6750
C20 C 0.2777(8) 0.9789(7) 0.6523(9)
H8 H 0.2252 0.9650 0.6381
H9 H 0.2732 1.0094 0.6915
C21 C 0.3192(10) 1.0118(8) 0.5968(9)
C22 C 0.3065(8) 1.0751(7) 0.5671(9)
H10 H 0.2640 1.1018 0.5814
C23 C 0.3543(11) 1.0982(10) 0.5185(10)
H11 H 0.3441 1.1413 0.4999
C24 C 0.4189(11) 1.0618(9) 0.4937(10)
H12 H 0.4520 1.0794 0.4599
C25 C 0.4311(10) 0.9947(9) 0.5238(9)
H13 H 0.4723 0.9671 0.5086
C26 C 0.3834(9) 0.9728(7) 0.5734(8)
C27 C 0.8927(10) 0.8131(10) 0.7782(9)
H14 H 0.8939 0.8223 0.8270
H15 H 0.9456 0.8178 0.7599
C28 C 0.8035(9) 0.7464(8) 0.7165(7)
C29 C 0.8603(9) 0.7421(8) 0.7641(7)
C30 C 0.8823(8) 0.6828(7) 0.7920(8)
H16 H 0.9222 0.6813 0.8248
C31 C 0.8449(9) 0.6243(7) 0.7711(8)
H17 H 0.8581 0.5823 0.7909
C32 C 0.7888(9) 0.6271(9) 0.7219(8)
H18 H 0.7645 0.5867 0.7075
C33 C 0.7678(8) 0.6857(7) 0.6941(7)
H19 H 0.7296 0.6868 0.6598
C34 C 0.5928(10) 1.0946(8) 0.5995(8)
H20 H 0.6209 1.0888 0.6418
H21 H 0.5390 1.0803 0.6055
H22 H 0.5941 1.1420 0.5862
C35 C 0.6352(7) 0.9877(6) 0.5535(7)
C36 C 0.6552(11) 1.0879(7) 0.4859(8)
H23 H 0.6268 1.0701 0.4472
H24 H 0.7106 1.0799 0.4797
H25 H 0.6457 1.1363 0.4898
C37 C 0.5666(8) 0.8379(7) 0.4508(6)
C38 C 0.4369(8) 0.8443(7) 0.4060(8)
H26 H 0.4278 0.8906 0.4209
H27 H 0.4138 0.8130 0.4383
H28 H 0.4133 0.8376 0.3617
C39 C 0.5491(13) 0.8049(12) 0.3355(9)
H29 H 0.5694 0.7594 0.3424
H30 H 0.5904 0.8341 0.3187
H31 H 0.5069 0.8034 0.3026
C40 C 0.5585(8) 0.7032(6) 0.7170(7)
C41 C 0.6221(11) 0.6989(9) 0.8259(9)
H32 H 0.5888 0.7330 0.8465
H33 H 0.6700 0.7200 0.8102
H34 H 0.6345 0.6642 0.8592
C42 C 0.5786(9) 0.5941(7) 0.7679(8)
H35 H 0.5677 0.5783 0.8135
H36 H 0.6288 0.5765 0.7531
H37 H 0.5381 0.5782 0.7374
C43 C 0.6133(8) 0.7012(6) 0.5299(7)
C44 C 0.6338(9) 0.6261(7) 0.4392(8)
H38 H 0.6107 0.6565 0.4061
H39 H 0.5946 0.5942 0.4550
H40 H 0.6766 0.6014 0.4185
C45 C 0.7417(9) 0.6559(8) 0.5154(9)
H41 H 0.7430 0.6362 0.5605
H42 H 0.7669 0.7000 0.5161
H43 H 0.7690 0.6263 0.4839
W1A W 0.85207(3) 0.86683(2) 0.43640(3)
C8A C 0.2590(6) 0.6474(5) 0.4910(6)
O7 O 0.7199(8) 0.2505(6) 0.4305(7)
C46 C 0.7927(16) 0.227(2) 0.415(2)
O8 O 0.7381(7) 0.2581(7) 0.5680(8)
C47 C 0.6795(13) 0.2768(17) 0.5129(10)
O9 O 0.6746(7) 0.5310(6) 0.6250(7)
C48 C 0.7095(11) 0.4745(8) 0.5918(11)
H44 H 0.7524 0.4575 0.6192
H45 H 0.7291 0.4884 0.5478
H46 H 0.6709 0.4389 0.5859
O10 O 0.0731(8) 0.5126(9) 0.7086(7)
C49 C 0.0180(10) 0.4842(11) 0.6642(11)
H47 H -0.0259 0.4670 0.6901
H48 H 0.0419 0.4473 0.6391
H49 H -0.0001 0.5187 0.6327
N16 N 0.9174(13) 0.5662(10) 0.9440(12)
C50 C 0.9560(14) 0.5404(10) 0.9084(11)
C51 C 1.0144(13) 0.5049(15) 0.8662(12)
H50 H 1.0659 0.5108 0.8858
H51 H 1.0138 0.5236 0.8206
H52 H 1.0018 0.4569 0.8643
N17 N 0.1271(15) 0.9232(17) 0.7310(15)
C52 C 0.129(2) 0.873(2) 0.7565(19)
C53 C 0.149(3) 0.814(2) 0.802(2)
N18 N 0.4544(17) 0.7722(10) 0.8772(12)
C54 C 0.4139(14) 0.7682(9) 0.8296(11)
C55 C 0.3690(13) 0.7654(9) 0.7765(10)
H53 H 0.3384 0.7240 0.7778
H54 H 0.4008 0.7659 0.7357
H55 H 0.3342 0.8043 0.7763
N19 N 0.171(2) 0.6597(18) 0.8217(18)
C56 C 0.210(2) 0.6042(17) 0.826(2)
C57 C 0.2298(14) 0.5379(11) 0.8115(12)
H56 H 0.1917 0.5183 0.7809
H57 H 0.2310 0.5120 0.8534
H58 H 0.2810 0.5369 0.7905
N20 N 0.4912(13) 0.2103(11) 0.4285(12)
C58 C 0.4655(14) 0.2589(14) 0.4574(13)
C59 C 0.4236(15) 0.3104(14) 0.4919(15)
H59 H 0.4061 0.3442 0.4595
H60 H 0.4573 0.3316 0.5253
H61 H 0.3787 0.2905 0.5145
loop_
_geom_bond_atom_site_label_1
_geom_bond_atom_site_label_2
_geom_bond_site_symmetry_1
_geom_bond_site_symmetry_2
W1 C1 1_555 1_555
Gd1 O1 1_555 1_555
O1 C43 1_555 1_555
O2 Gd1 1_555 1_555
O3 Gd1 1_555 1_555
O4 C10 1_555 1_555
O5 C17 1_555 1_555
O6 Gd1 1_555 1_555
N1 Gd1 1_555 1_555
N2 C5 1_555 1_555
N3 C4 1_555 1_555
N4 C2 1_555 1_555
N5 C1 1_555 1_555
N6 C7 1_555 1_555
N7 C3 1_555 1_555
N8 Gd1 1_555 1_555
N9 Gd1 1_555 1_555
N10 Gd1 1_555 1_555
N11 C34 1_555 1_555
N12 C37 1_555 1_555
N13 C40 1_555 1_555
N14 Gd1 1_555 1_555
N15 C43 1_555 1_555
C2 W1 1_555 1_555
C3 W1 1_555 1_555
C4 W1 1_555 1_555
C5 W1 1_555 1_555
C6 W1 1_555 1_555
C7 W1 1_555 1_555
C8 N14 1_555 1_555
C9 N8 1_555 1_555
H1 C9 1_555 1_555
C10 N8 1_555 1_555
C11 O4 1_555 1_555
H2 C11 1_555 1_555
C12 N9 1_555 1_555
C13 C12 1_555 1_555
H3 C13 1_555 1_555
C14 C13 1_555 1_555
H4 C14 1_555 1_555
C15 C14 1_555 1_555
H5 C15 1_555 1_555
C16 N9 1_555 1_555
C17 N10 1_555 1_555
C18 N10 1_555 1_555
H6 C18 1_555 1_555
C19 O5 1_555 1_555
H7 C19 1_555 1_555
C20 C19 1_555 1_555
H8 C20 1_555 1_555
H9 C20 1_555 1_555
C21 C20 1_555 1_555
C22 C21 1_555 1_555
H10 C22 1_555 1_555
C23 C22 1_555 1_555
H11 C23 1_555 1_555
C24 C23 1_555 1_555
H12 C24 1_555 1_555
C25 C24 1_555 1_555
H13 C25 1_555 1_555
C26 C18 1_555 1_555
C27 C11 1_555 1_555
H14 C27 1_555 1_555
H15 C27 1_555 1_555
C28 C9 1_555 1_555
C29 C27 1_555 1_555
C30 C29 1_555 1_555
H16 C30 1_555 1_555
C31 C30 1_555 1_555
H17 C31 1_555 1_555
C32 C31 1_555 1_555
H18 C32 1_555 1_555
C33 C28 1_555 1_555
H19 C33 1_555 1_555
C34 H20 1_555 1_555
H21 C34 1_555 1_555
H22 C34 1_555 1_555
C35 O3 1_555 1_555
C36 N11 1_555 1_555
H23 C36 1_555 1_555
H24 C36 1_555 1_555
H25 C36 1_555 1_555
C37 O2 1_555 1_555
C38 N12 1_555 1_555
H26 C38 1_555 1_555
H27 C38 1_555 1_555
H28 C38 1_555 1_555
C39 N12 1_555 1_555
H29 C39 1_555 1_555
H30 C39 1_555 1_555
H31 C39 1_555 1_555
C40 O6 1_555 1_555
C41 N13 1_555 1_555
H32 C41 1_555 1_555
H33 C41 1_555 1_555
H34 C41 1_555 1_555
C42 N13 1_555 1_555
H35 C42 1_555 1_555
H36 C42 1_555 1_555
H37 C42 1_555 1_555
C44 N15 1_555 1_555
H38 C44 1_555 1_555
H39 C44 1_555 1_555
H40 C44 1_555 1_555
C45 N15 1_555 1_555
H41 C45 1_555 1_555
H42 C45 1_555 1_555
H43 C45 1_555 1_555
O7 C46 1_555 1_555
O8 C47 1_555 1_555
O9 C48 1_555 1_555
C48 H44 1_555 1_555
H45 C48 1_555 1_555
H46 C48 1_555 1_555
O10 C49 1_555 1_555
C49 H47 1_555 1_555
H48 C49 1_555 1_555
H49 C49 1_555 1_555
N16 C50 1_555 1_555
C50 C51 1_555 1_555
C51 H50 1_555 1_555
H51 C51 1_555 1_555
H52 C51 1_555 1_555
N17 C52 1_555 1_555
C52 C53 1_555 1_555
N18 C54 1_555 1_555
C54 C55 1_555 1_555
C55 H53 1_555 1_555
H54 C55 1_555 1_555
H55 C55 1_555 1_555
N19 C56 1_555 1_555
C56 C57 1_555 1_555
C57 H56 1_555 1_555
H57 C57 1_555 1_555
H58 C57 1_555 1_555
N20 C58 1_555 1_555
C58 C59 1_555 1_555
C59 H59 1_555 1_555
H60 C59 1_555 1_555
H61 C59 1_555 1_555
W1A C8 1_555 1_555
C8A W1 1_555 1_555
N1 C6 1_555 1_555
N11 C35 1_555 1_555
C9 C11 1_555 1_555
C10 C12 1_555 1_555
C15 C16 1_555 1_555
C16 C17 1_555 1_555
C18 C19 1_555 1_555
C21 C26 1_555 1_555
C25 C26 1_555 1_555
C28 C29 1_555 1_555
C32 C33 1_555 1_555

#END
