
#######################################################################
#
#                 Cambridge Crystallographic Data Centre
#                                CCDC 
#
#######################################################################
#
# If this CIF has been generated from an entry in the Cambridge 
# Structural Database, then it will include bibliographic, chemical, 
# crystal, experimental, refinement or atomic coordinate data resulting 
# from the CCDC's data processing and validation procedures.
#
#######################################################################

data_CIZBIY
_symmetry_cell_setting           orthorhombic
_symmetry_space_group_name_H-M   'P 21 21 21'
_symmetry_Int_Tables_number      19
_space_group_name_Hall           'P 2ac 2ab'
loop_
_symmetry_equiv_pos_site_id
_symmetry_equiv_pos_as_xyz
1 x,y,z
2 1/2+x,1/2-y,-z
3 -x,1/2+y,1/2-z
4 1/2-x,-y,1/2+z
_cell_length_a                   17.2644(5)
_cell_length_b                   20.0554(6)
_cell_length_c                   20.0367(7)
_cell_angle_alpha                90
_cell_angle_beta                 90
_cell_angle_gamma                90
_cell_volume                     6937.6
loop_
_atom_site_label
_atom_site_type_symbol
_atom_site_fract_x
_atom_site_fract_y
_atom_site_fract_z
W1 W 0.147819(19) 0.131686(17) 0.437023(17)
Nd1 Nd -0.08817(3) 0.33874(2) 0.37705(2)
O1 O 0.1257(4) 0.4264(4) 0.2639(4)
O2 O -0.2759(4) 0.3853(4) 0.2113(4)
O3 O -0.1125(4) 0.4575(3) 0.3955(3)
O4 O -0.0469(4) 0.3568(3) 0.4923(3)
O5 O -0.1321(3) 0.2308(3) 0.4178(3)
O6 O -0.0647(4) 0.2627(3) 0.2858(3)
N1 N 0.0338(4) 0.2620(4) 0.4056(4)
N2 N 0.0630(4) 0.1712(5) 0.5808(4)
N3 N 0.1585(5) -0.0136(4) 0.5146(4)
N4 N -0.0304(4) 0.0709(4) 0.4266(4)
N5 N 0.3022(5) 0.0526(5) 0.3784(5)
N6 N 0.2538(5) 0.2501(5) 0.3668(5)
N7 N 0.1136(5) 0.0993(5) 0.2785(4)
N8 N -0.2132(4) 0.3488(4) 0.4512(4)
N9 N -0.2135(4) 0.3436(4) 0.2995(4)
N10 N -0.0785(4) 0.3987(4) 0.2586(4)
N11 N 0.0425(5) 0.3974(4) 0.3454(4)
N12 N -0.1266(5) 0.5545(4) 0.4529(5)
N13 N -0.1646(4) 0.1636(4) 0.5035(4)
N14 N -0.0817(5) 0.1644(4) 0.2322(4)
N15 N -0.0171(5) 0.3294(4) 0.5986(4)
C1 C 0.0734(5) 0.2174(4) 0.4165(4)
C2 C 0.0934(5) 0.1573(5) 0.5313(5)
C3 C 0.1542(6) 0.0362(5) 0.4873(4)
C4 C 0.2183(6) 0.2076(5) 0.3934(5)
C5 C 0.2484(6) 0.0794(5) 0.3978(5)
C6 C 0.1246(5) 0.1112(5) 0.3313(5)
C7 C 0.0316(5) 0.0915(4) 0.4306(5)
C8 C -0.2605(5) 0.3524(4) 0.4906(4)
C9 C -0.1372(6) 0.3998(5) 0.2156(5)
C10 C -0.1295(6) 0.4200(5) 0.1493(5)
H1 H -0.1736 0.4224 0.1211
C11 C -0.0581(6) 0.4364(4) 0.1254(6)
H2 H -0.0509 0.4477 0.0798
C12 C 0.0040(6) 0.4360(5) 0.1700(5)
H3 H 0.0540 0.4490 0.1552
C13 C -0.0067(5) 0.4169(4) 0.2344(5)
C14 C 0.0538(6) 0.4126(5) 0.2839(5)
C15 C -0.2112(5) 0.3732(5) 0.2447(5)
C16 C -0.2936(6) 0.3207(6) 0.3072(5)
H4 H -0.3139 0.3280 0.3533
C17 C -0.3387(6) 0.3611(6) 0.2541(5)
H5 H -0.3673 0.3991 0.2750
C18 C -0.3935(6) 0.3152(6) 0.2179(6)
H6 H -0.3931 0.3238 0.1693
H7 H -0.4471 0.3201 0.2349
C19 C -0.3057(6) 0.2485(6) 0.2829(5)
C20 C -0.3612(6) 0.2472(6) 0.2338(5)
C21 C -0.3830(7) 0.1853(6) 0.2064(6)
H8 H -0.4223 0.1831 0.1732
C22 C -0.3462(7) 0.1269(6) 0.2285(5)
H9 H -0.3590 0.0847 0.2101
C23 C -0.2904(6) 0.1329(6) 0.2780(5)
H10 H -0.2662 0.0933 0.2934
C24 C -0.2681(6) 0.1912(5) 0.3056(5)
H11 H -0.2289 0.1931 0.3389
C25 C 0.1204(5) 0.4029(5) 0.3791(6)
H12 H 0.1332 0.3627 0.4065
C26 C 0.1772(6) 0.4136(6) 0.3218(6)
H13 H 0.2098 0.3731 0.3143
C27 C 0.2265(6) 0.4736(6) 0.3373(7)
H14 H 0.2798 0.4598 0.3492
H15 H 0.2291 0.5038 0.2982
C28 C 0.1884(6) 0.5072(5) 0.3945(6)
C29 C 0.1235(7) 0.4677(6) 0.4198(5)
C30 C 0.0793(7) 0.4876(6) 0.4701(6)
H16 H 0.0393 0.4597 0.4869
C31 C 0.0933(8) 0.5527(7) 0.4989(7)
H17 H 0.0606 0.5694 0.5332
C32 C 0.1534(8) 0.5894(7) 0.4764(6)
H18 H 0.1636 0.6313 0.4967
C33 C 0.2008(7) 0.5683(6) 0.4250(7)
H19 H 0.2423 0.5958 0.4105
C34 C -0.0919(9) 0.5949(6) 0.4013(6)
H20 H -0.0924 0.6418 0.4150
H21 H -0.1215 0.5898 0.3598
H22 H -0.0384 0.5805 0.3939
C35 C -0.1342(6) 0.4895(5) 0.4463(5)
C36 C -0.1551(9) 0.5892(5) 0.5122(6)
H23 H -0.1452 0.6371 0.5076
H24 H -0.1281 0.5722 0.5518
H25 H -0.2108 0.5815 0.5169
C37 C -0.1161(6) 0.2011(5) 0.4690(5)
C38 C -0.2462(6) 0.1591(6) 0.4811(5)
H26 H -0.2751 0.1298 0.5113
H27 H -0.2480 0.1409 0.4358
H28 H -0.2695 0.2036 0.4815
C39 C -0.1402(7) 0.1251(5) 0.5609(6)
H29 H -0.1847 0.1010 0.5793
H30 H -0.1192 0.1552 0.5950
H31 H -0.1002 0.0932 0.5474
C40 C -0.0583(5) 0.2015(5) 0.2823(5)
C41 C -0.1218(8) 0.1959(6) 0.1759(6)
H32 H -0.1353 0.1619 0.1428
H33 H -0.0879 0.2293 0.1554
H34 H -0.1692 0.2177 0.1919
C42 C -0.0780(6) 0.0926(5) 0.2321(6)
H35 H -0.0982 0.0757 0.1896
H36 H -0.1093 0.0751 0.2689
H37 H -0.0241 0.0784 0.2375
C43 C -0.0660(6) 0.3379(6) 0.5494(5)
C44 C 0.0648(6) 0.3394(6) 0.5911(6)
H38 H 0.0908 0.3305 0.6336
H39 H 0.0748 0.3855 0.5775
H40 H 0.0848 0.3089 0.5569
C45 C -0.0445(8) 0.3041(10) 0.6642(6)
H41 H -0.0007 0.3010 0.6950
H42 H -0.0677 0.2599 0.6583
H43 H -0.0833 0.3348 0.6824
W1A W -0.352181(19) 0.368314(17) 0.562977(17)
C8A C 0.2395(5) 0.1476(4) 0.5094(4)
O7 O -0.1769(5) 0.0332(5) 0.3751(5)
C46 C -0.2127(10) -0.0219(9) 0.4067(11)
H44 H -0.1731 -0.0544 0.4197
H45 H -0.2494 -0.0428 0.3758
H46 H -0.2404 -0.0065 0.4466
O8 O 0.4307(7) 0.0129(10) 0.2988(7)
C47 C 0.4843(9) -0.0107(10) 0.3425(9)
H47 H 0.5363 -0.0029 0.3246
H48 H 0.4764 -0.0586 0.3490
H49 H 0.4788 0.0124 0.3853
N16 N -0.0773(10) -0.0674(8) 0.5594(10)
C48 C -0.0388(11) -0.0407(10) 0.5949(9)
C49 C 0.0128(13) 0.0041(11) 0.6383(11)
H50 H 0.0403 0.0360 0.6098
H51 H 0.0505 -0.0234 0.6623
H52 H -0.0194 0.0284 0.6704
N17 N 0.0430(11) 0.2735(9) 0.1217(10)
C50 C 0.0853(12) 0.2670(8) 0.1695(9)
C51 C 0.1265(9) 0.2613(8) 0.2232(8)
H53 H 0.1726 0.2896 0.2196
H54 H 0.1424 0.2148 0.2289
H55 H 0.0957 0.2754 0.2618
O9 O -0.3254(13) 0.2205(11) 0.0029(11)
C52 C -0.2775(6) 0.2500(5) 0.0689(5)
C53 C 0.2386(7) 0.2603(10) 0.0693(6)
O10 O 0.2790(18) 0.1947(13) 0.1016(14)
N18 N 0.4900(10) 0.2954(9) 0.0676(9)
C54 C 0.4245(14) 0.1944(11) 0.0045(14)
H56 H 0.3912 0.1696 0.0354
H57 H 0.4625 0.1640 -0.0153
H58 H 0.3927 0.2141 -0.0309
C55 C 0.4643(11) 0.2468(9) 0.0404(9)
C56 C -0.188(2) 0.165(2) 0.8394(18)
C57 C -0.140(3) 0.1590(18) 0.777(2)
N19 N -0.1094(14) 0.1127(16) 0.7343(10)
C58 C 0.2925(14) 0.1029(12) 0.1769(12)
C59 C 0.2731(9) 0.0363(9) 0.1899(8)
H59 H 0.3099 0.0175 0.2221
H60 H 0.2752 0.0107 0.1483
H61 H 0.2206 0.0341 0.2085
N20 N 0.3305(17) 0.1573(13) 0.1858(14)
loop_
_geom_bond_atom_site_label_1
_geom_bond_atom_site_label_2
_geom_bond_site_symmetry_1
_geom_bond_site_symmetry_2
W1 C1 1_555 1_555
Nd1 O3 1_555 1_555
O1 C14 1_555 1_555
O2 C15 1_555 1_555
O3 C35 1_555 1_555
O4 Nd1 1_555 1_555
O5 Nd1 1_555 1_555
O6 Nd1 1_555 1_555
N1 Nd1 1_555 1_555
N2 C2 1_555 1_555
N3 C3 1_555 1_555
N4 C7 1_555 1_555
N5 C5 1_555 1_555
N6 C4 1_555 1_555
N7 C6 1_555 1_555
N8 Nd1 1_555 1_555
N9 Nd1 1_555 1_555
N10 Nd1 1_555 1_555
N11 Nd1 1_555 1_555
N12 C34 1_555 1_555
N13 C37 1_555 1_555
N14 C40 1_555 1_555
N15 C43 1_555 1_555
C1 N1 1_555 1_555
C2 W1 1_555 1_555
C3 W1 1_555 1_555
C4 W1 1_555 1_555
C5 W1 1_555 1_555
C6 W1 1_555 1_555
C7 W1 1_555 1_555
C8 N8 1_555 1_555
C9 N10 1_555 1_555
C10 C9 1_555 1_555
H1 C10 1_555 1_555
C11 C10 1_555 1_555
H2 C11 1_555 1_555
C12 C11 1_555 1_555
H3 C12 1_555 1_555
C13 N10 1_555 1_555
C14 N11 1_555 1_555
C15 N9 1_555 1_555
C16 N9 1_555 1_555
H4 C16 1_555 1_555
C17 O2 1_555 1_555
H5 C17 1_555 1_555
C18 C17 1_555 1_555
H6 C18 1_555 1_555
H7 C18 1_555 1_555
C19 C16 1_555 1_555
C20 C18 1_555 1_555
C21 C20 1_555 1_555
H8 C21 1_555 1_555
C22 C21 1_555 1_555
H9 C22 1_555 1_555
C23 C22 1_555 1_555
H10 C23 1_555 1_555
C24 C19 1_555 1_555
H11 C24 1_555 1_555
C25 N11 1_555 1_555
H12 C25 1_555 1_555
C26 O1 1_555 1_555
H13 C26 1_555 1_555
C27 C26 1_555 1_555
H14 C27 1_555 1_555
H15 C27 1_555 1_555
C28 C27 1_555 1_555
C29 C25 1_555 1_555
C30 C29 1_555 1_555
H16 C30 1_555 1_555
C31 C30 1_555 1_555
H17 C31 1_555 1_555
C32 C31 1_555 1_555
H18 C32 1_555 1_555
C33 C28 1_555 1_555
H19 C33 1_555 1_555
C34 H20 1_555 1_555
H21 C34 1_555 1_555
H22 C34 1_555 1_555
C35 N12 1_555 1_555
C36 N12 1_555 1_555
H23 C36 1_555 1_555
H24 C36 1_555 1_555
H25 C36 1_555 1_555
C37 O5 1_555 1_555
C38 N13 1_555 1_555
H26 C38 1_555 1_555
H27 C38 1_555 1_555
H28 C38 1_555 1_555
C39 N13 1_555 1_555
H29 C39 1_555 1_555
H30 C39 1_555 1_555
H31 C39 1_555 1_555
C40 O6 1_555 1_555
C41 N14 1_555 1_555
H32 C41 1_555 1_555
H33 C41 1_555 1_555
H34 C41 1_555 1_555
C42 N14 1_555 1_555
H35 C42 1_555 1_555
H36 C42 1_555 1_555
H37 C42 1_555 1_555
C43 O4 1_555 1_555
C44 N15 1_555 1_555
H38 C44 1_555 1_555
H39 C44 1_555 1_555
H40 C44 1_555 1_555
C45 N15 1_555 1_555
H41 C45 1_555 1_555
H42 C45 1_555 1_555
H43 C45 1_555 1_555
O7 C46 1_555 1_555
C46 H44 1_555 1_555
H45 C46 1_555 1_555
H46 C46 1_555 1_555
O8 C47 1_555 1_555
C47 H47 1_555 1_555
H48 C47 1_555 1_555
H49 C47 1_555 1_555
N16 C48 1_555 1_555
C48 C49 1_555 1_555
C49 H50 1_555 1_555
H51 C49 1_555 1_555
H52 C49 1_555 1_555
N17 C50 1_555 1_555
C50 C51 1_555 1_555
C51 H53 1_555 1_555
H54 C51 1_555 1_555
H55 C51 1_555 1_555
O9 C52 1_555 1_555
C53 O10 1_555 1_555
N18 C55 1_555 1_555
C54 H56 1_555 1_555
H57 C54 1_555 1_555
H58 C54 1_555 1_555
C55 C54 1_555 1_555
C56 C57 1_555 1_555
C57 N19 1_555 1_555
C58 C59 1_555 1_555
C59 H59 1_555 1_555
H60 C59 1_555 1_555
H61 C59 1_555 1_555
N20 C58 1_555 1_555
W1A C8 1_555 1_555
C8A W1 1_555 1_555
C9 C15 1_555 1_555
C12 C13 1_555 1_555
C13 C14 1_555 1_555
C16 C17 1_555 1_555
C19 C20 1_555 1_555
C23 C24 1_555 1_555
C25 C26 1_555 1_555
C28 C29 1_555 1_555
C32 C33 1_555 1_555

#END
