
#######################################################################
#
#                 Cambridge Crystallographic Data Centre
#                                CCDC 
#
#######################################################################
#
# If this CIF has been generated from an entry in the Cambridge 
# Structural Database, then it will include bibliographic, chemical, 
# crystal, experimental, refinement or atomic coordinate data resulting 
# from the CCDC's data processing and validation procedures.
#
#######################################################################

data_CIZFOG
_symmetry_cell_setting           monoclinic
_symmetry_space_group_name_H-M   'C 2/c'
_symmetry_Int_Tables_number      15
_space_group_name_Hall           '-C 2yn'
loop_
_symmetry_equiv_pos_site_id
_symmetry_equiv_pos_as_xyz
1 x,y,z
2 -x,y,1/2-z
3 1/2+x,1/2+y,z
4 1/2-x,1/2+y,1/2-z
5 -x,-y,-z
6 x,-y,1/2+z
7 1/2-x,1/2-y,-z
8 1/2+x,1/2-y,1/2+z
_cell_length_a                   12.156(3)
_cell_length_b                   11.381(2)
_cell_length_c                   16.646(8)
_cell_angle_alpha                90
_cell_angle_beta                 100.43(3)
_cell_angle_gamma                90
_cell_volume                     2264.88
loop_
_atom_site_label
_atom_site_type_symbol
_atom_site_fract_x
_atom_site_fract_y
_atom_site_fract_z
Ni1 Ni 0.5000 -0.63134(6) 0.2500
S1 S 0.1737(1) -0.5705(2) 0.03910(10)
N1 N 0.5000 0.1813(4) 0.2500
N2 N 0.4024(3) -0.6512(3) 0.3457(2)
N3 N 0.5000 -0.4426(4) 0.2500
N4 N 0.3567(3) -0.6219(3) 0.1631(2)
C1 C 0.4619(4) 0.1195(4) 0.1808(3)
C2 C 0.4628(4) -0.0009(4) 0.1783(3)
C3 C 0.5000 -0.0650(6) 0.2500
C4 C 0.5000 -0.1944(6) 0.2500
C5 C 0.5547(4) -0.2587(4) 0.1964(3)
C6 C 0.5553(3) -0.3814(4) 0.2002(3)
C7 C 0.3068(4) -0.7157(5) 0.3279(3)
C8 C 0.2472(3) -0.7558(5) 0.3857(3)
C9 C 0.2815(3) -0.7297(4) 0.4683(3)
C10 C 0.1207(4) -0.8377(6) 0.5143(3)
C11 C 0.0653(4) -0.8724(4) 0.5746(3)
C12 C 0.2814(4) -0.5997(4) 0.1107(3)
H1 H 0.5665 0.1614 0.3681
H2 H 0.5617 -0.0408 0.3719
H3 H 0.4095 -0.2189 0.3420
H4 H 0.4033 -0.4237 0.3335
H5 H 0.2209 -0.7656 0.7276
H6 H 0.3184 -0.6983 0.6311
H7 H 0.0923 -0.8600 0.4593
H8 H -0.0014 -0.9167 0.5589
Ni1_2 Ni 0.5000 0.36866(6) 0.2500
C2A C 0.5372(4) -0.0009(4) 0.3217(3)
C1A C 0.5381(4) 0.1195(4) 0.3192(3)
N1_2 N 0.5000 -0.8187(4) 0.2500
N2A N 0.5976(3) -0.6512(3) 0.1543(2)
C9F C 0.2185(3) -0.7703(4) 0.5317(3)
C8F C 0.2528(3) -0.7442(5) 0.6143(3)
C7F C 0.1932(4) -0.7843(5) 0.6721(3)
N2F N 0.0976(3) -0.8488(3) 0.6543(2)
Ni1F Ni 0.0000 -0.86866(6) 0.7500
C10F C 0.3793(4) -0.6623(6) 0.4857(3)
C11F C 0.4347(4) -0.6276(4) 0.4254(3)
H8F H 0.5014 -0.5833 0.4411
H7F H 0.4077 -0.6400 0.5407
H6F H 0.1816 -0.8017 0.3689
H5F H 0.2791 -0.7344 0.2724
N4A N 0.6433(3) -0.6219(3) 0.3369(2)
C12A C 0.7186(4) -0.5997(4) 0.3893(3)
S1A S 0.8263(1) -0.5705(2) 0.46090(10)
C6A C 0.4447(3) -0.3814(4) 0.2998(3)
C5A C 0.4453(4) -0.2587(4) 0.3036(3)
H4A H 0.5967 -0.4237 0.1665
H3A H 0.5905 -0.2189 0.1580
H2A H 0.4383 -0.0408 0.1281
H1A H 0.4335 0.1614 0.1319
loop_
_geom_bond_atom_site_label_1
_geom_bond_atom_site_label_2
_geom_bond_site_symmetry_1
_geom_bond_site_symmetry_2
Ni1 N2 1_555 1_555
S1 C12 1_555 1_555
N1 C1 1_555 1_555
N2 C7 1_555 1_555
N3 Ni1 1_555 1_555
N4 Ni1 1_555 1_555
C1 C2 1_555 1_555
C2 C3 1_555 1_555
C3 C4 1_555 1_555
C4 C5 1_555 1_555
C5 C6 1_555 1_555
C6 N3 1_555 1_555
C7 C8 1_555 1_555
C8 C9 1_555 1_555
C9 C9F 1_555 1_555
C10 C11 1_555 1_555
C11 H8 1_555 1_555
C12 N4 1_555 1_555
H1 C1A 1_555 1_555
H2 C2A 1_555 1_555
H3 C5A 1_555 1_555
H4 C6A 1_555 1_555
H5 C7F 1_555 1_555
H6 C8F 1_555 1_555
H7 C10 1_555 1_555
Ni1_2 N1 1_555 1_555
C2A C3 1_555 1_555
C1A N1 1_555 1_555
N1_2 Ni1 1_555 1_555
N2A Ni1 1_555 1_555
C9F C10 1_555 1_555
C8F C9F 1_555 1_555
C7F C8F 1_555 1_555
N2F C11 1_555 1_555
Ni1F N2F 1_555 1_555
C10F C9 1_555 1_555
C11F N2 1_555 1_555
H8F C11F 1_555 1_555
H7F C10F 1_555 1_555
H6F C8 1_555 1_555
H5F C7 1_555 1_555
N4A Ni1 1_555 1_555
C12A N4A 1_555 1_555
S1A C12A 1_555 1_555
C6A N3 1_555 1_555
C5A C4 1_555 1_555
H4A C6 1_555 1_555
H3A C5 1_555 1_555
H2A C2 1_555 1_555
H1A C1 1_555 1_555
C2A C1A 1_555 1_555
C7F N2F 1_555 1_555
C10F C11F 1_555 1_555
C6A C5A 1_555 1_555

#END
