
#######################################################################
#
#                 Cambridge Crystallographic Data Centre
#                                CCDC 
#
#######################################################################
#
# If this CIF has been generated from an entry in the Cambridge 
# Structural Database, then it will include bibliographic, chemical, 
# crystal, experimental, refinement or atomic coordinate data resulting 
# from the CCDC's data processing and validation procedures.
#
#######################################################################

data_CIZFOG01
_symmetry_cell_setting           monoclinic
_symmetry_space_group_name_H-M   'C 2/c'
_symmetry_Int_Tables_number      15
_space_group_name_Hall           '-C 2yn'
loop_
_symmetry_equiv_pos_site_id
_symmetry_equiv_pos_as_xyz
1 x,y,z
2 -x,y,1/2-z
3 1/2+x,1/2+y,z
4 1/2-x,1/2+y,1/2-z
5 -x,-y,-z
6 x,-y,1/2+z
7 1/2-x,1/2-y,-z
8 1/2+x,1/2-y,1/2+z
_cell_length_a                   12.156(3)
_cell_length_b                   11.38(2)
_cell_length_c                   16.646(8)
_cell_angle_alpha                90
_cell_angle_beta                 100.43(3)
_cell_angle_gamma                90
_cell_volume                     2264.68
loop_
_atom_site_label
_atom_site_type_symbol
_atom_site_fract_x
_atom_site_fract_y
_atom_site_fract_z
Ni1 Ni 1.0000 0.13134(6) 0.7500
S1 S 1.3263(1) 0.0705(2) 0.96090(10)
N1 N 1.0000 0.3187(4) 0.7500
N2 N 0.9024(3) 0.1512(3) 0.8457(2)
N3 N 1.0000 0.9426(4) 0.7500
N4 N 1.1433(3) 0.1219(3) 0.8369(2)
C1 C 1.0381(4) 0.3805(4) 0.8192(3)
C2 C 1.0372(4) 0.5009(4) 0.8217(3)
C3 C 1.0000 0.5650(6) 0.7500
C4 C 1.0000 0.6944(6) 0.7500
C5 C 0.9453(4) 0.7587(4) 0.8036(3)
C6 C 0.9477(3) 0.8814(4) 0.7998(3)
C7 C 0.8068(4) 0.2157(5) 0.8279(3)
C8 C 0.7472(3) 0.2558(5) 0.8857(3)
C9 C 0.7815(3) 0.2297(4) 0.9683(3)
C10 C 0.8793(4) 0.1623(6) 0.9857(3)
C11 C 0.9347(4) 0.1276(4) 0.9254(3)
C12 C 1.2186(4) 0.0997(4) 0.8893(3)
C2A C 0.9628(4) 0.5009(4) 0.6783(3)
C1A C 0.9619(4) 0.3805(4) 0.6808(3)
C6A C 1.0523(3) 0.8814(4) 0.7002(3)
C5A C 1.0547(4) 0.7587(4) 0.6964(3)
C9F C 0.7185(3) 0.2703(4) 1.0317(3)
C8F C 0.7528(3) 0.2442(5) 1.1143(3)
C7F C 0.6932(4) 0.2843(5) 1.1721(3)
N2F N 0.5976(3) 0.3488(3) 1.1543(2)
C11F C 0.5653(4) 0.3724(4) 1.0746(3)
C10F C 0.6207(4) 0.3377(6) 1.0143(3)
S1A S 0.6737(1) 0.0705(2) 0.53910(10)
N4A N 0.8567(3) 0.1219(3) 0.6631(2)
C12A C 0.7814(4) 0.0997(4) 0.6107(3)
N2A N 1.0976(3) 0.1512(3) 0.6543(2)
N3_2 N 1.0000 -0.0574(4) 0.7500
Ni1_2 Ni 1.0000 1.13134(6) 0.7500
Ni1F Ni 0.5000 0.36866(6) 1.2500
loop_
_geom_bond_atom_site_label_1
_geom_bond_atom_site_label_2
_geom_bond_site_symmetry_1
_geom_bond_site_symmetry_2
Ni1 N1 1_555 1_555
S1 C12 1_555 1_555
N1 C1 1_555 1_555
N2 Ni1 1_555 1_555
N3 C6 1_555 1_555
N4 Ni1 1_555 1_555
C1 C2 1_555 1_555
C2 C3 1_555 1_555
C3 C4 1_555 1_555
C4 C5 1_555 1_555
C5 C6 1_555 1_555
C7 N2 1_555 1_555
C8 C7 1_555 1_555
C9 C8 1_555 1_555
C10 C9 1_555 1_555
C11 N2 1_555 1_555
C12 N4 1_555 1_555
C2A C3 1_555 1_555
C1A N1 1_555 1_555
C6A N3 1_555 1_555
C5A C4 1_555 1_555
C9F C9 1_555 1_555
C8F C9F 1_555 1_555
C7F C8F 1_555 1_555
N2F C7F 1_555 1_555
C11F N2F 1_555 1_555
C10F C9F 1_555 1_555
S1A C12A 1_555 1_555
N4A Ni1 1_555 1_555
C12A N4A 1_555 1_555
N2A Ni1 1_555 1_555
N3_2 Ni1 1_555 1_555
Ni1_2 N3 1_555 1_555
Ni1F N2F 1_555 1_555
C10 C11 1_555 1_555
C2A C1A 1_555 1_555
C6A C5A 1_555 1_555
C11F C10F 1_555 1_555

#END
