
#######################################################################
#
#                 Cambridge Crystallographic Data Centre
#                                CCDC 
#
#######################################################################
#
# If this CIF has been generated from an entry in the Cambridge 
# Structural Database, then it will include bibliographic, chemical, 
# crystal, experimental, refinement or atomic coordinate data resulting 
# from the CCDC's data processing and validation procedures.
#
#######################################################################

data_CIZLOO
_symmetry_cell_setting           monoclinic
_symmetry_space_group_name_H-M   'C 2/c'
_symmetry_Int_Tables_number      15
_space_group_name_Hall           '-C 2yn'
loop_
_symmetry_equiv_pos_site_id
_symmetry_equiv_pos_as_xyz
1 x,y,z
2 -x,y,1/2-z
3 1/2+x,1/2+y,z
4 1/2-x,1/2+y,1/2-z
5 -x,-y,-z
6 x,-y,1/2+z
7 1/2-x,1/2-y,-z
8 1/2+x,1/2-y,1/2+z
_cell_length_a                   38.1051(19)
_cell_length_b                   8.0262(2)
_cell_length_c                   26.1036(12)
_cell_angle_alpha                90
_cell_angle_beta                 130.755(8)
_cell_angle_gamma                90
_cell_volume                     6047.57
loop_
_atom_site_label
_atom_site_type_symbol
_atom_site_fract_x
_atom_site_fract_y
_atom_site_fract_z
C1 C 0.42892(18) -0.1166(7) 0.8725(3)
H1 H 0.4309 -0.2305 0.8805
C2 C 0.40038(17) 0.1267(7) 0.8326(3)
H2 H 0.3797 0.2145 0.8087
C3 C 0.46525(18) -0.0158(7) 0.8987(3)
H3 H 0.4964 -0.0455 0.9283
C4 C 0.48483(18) 0.5548(7) 0.8620(3)
C5 C 0.52768(18) 0.5721(7) 0.9268(3)
H4 H 0.5455 0.6675 0.9392
C6 C 0.54302(18) 0.4428(7) 0.9723(3)
C7 C 0.51590(18) 0.3026(7) 0.9553(3)
H5 H 0.5259 0.2194 0.9870
C8 C 0.47346(18) 0.2892(7) 0.8897(3)
C9 C 0.45737(18) 0.4142(7) 0.8421(3)
H6 H 0.4291 0.4040 0.7984
C10 C 0.61098(19) 0.5844(7) 1.0813(3)
H7 H 0.6027 0.6960 1.0709
C11 C 0.6489(2) 0.5212(7) 1.1409(3)
H8 H 0.6713 0.5838 1.1791
C12 C 0.61243(18) 0.3118(7) 1.0745(3)
H9 H 0.6046 0.2042 1.0570
N1 N 0.46873(16) 0.9189(6) 0.7691(2)
C13 C 0.49460(19) 0.8104(7) 0.8184(3)
H10 H 0.5266 0.8178 0.8521
C14 C 0.42283(18) 0.7211(7) 0.7583(3)
H11 H 0.3969 0.6591 0.7426
C15 C 0.29643(19) -0.0295(7) 0.8700(3)
C16 C 0.28218(18) -0.0152(7) 0.9115(3)
C17 C 0.30809(19) -0.0927(7) 0.9742(3)
C18 C 0.2948(2) -0.0892(8) 1.0128(3)
H12 H 0.3127 -0.1427 1.0545
C19 C 0.2549(2) -0.0053(9) 0.9886(4)
H13 H 0.2457 -0.0012 1.0140
C20 C 0.2288(2) 0.0721(8) 0.9265(4)
H14 H 0.2019 0.1284 0.9102
C21 C 0.24168(19) 0.0680(8) 0.8878(3)
C22 C 0.2146(2) 0.1684(10) 0.8220(3)
C23 C 0.35376(18) -0.3360(7) 1.0162(3)
C24 C 0.3231(2) -0.4480(8) 0.9659(3)
H15 H 0.2994 -0.4104 0.9221
C25 C 0.3274(2) -0.6154(9) 0.9802(3)
H16 H 0.3072 -0.6911 0.9458
C26 C 0.3615(2) -0.6712(8) 1.0452(4)
H17 H 0.3643 -0.7844 1.0548
C27 C 0.3918(2) -0.5590(7) 1.0963(3)
H18 H 0.4140 -0.5968 1.1405
C28 C 0.38921(18) -0.3885(7) 1.0822(3)
C29 C 0.42567(19) -0.2753(8) 1.1379(3)
N2 N 0.38773(15) -0.0255(6) 0.8314(2)
N3 N 0.44693(14) 0.1423(6) 0.8727(2)
N4 N 0.46848(15) 0.6863(5) 0.8138(2)
C30 C 0.42365(19) 0.8633(8) 0.7317(3)
H19 H 0.3976 0.9164 0.6937
N5 N 0.58707(15) 0.4486(6) 1.0388(2)
N6 N 0.64932(15) 0.3488(6) 1.1366(2)
O1 O 0.26851(13) -0.1049(5) 0.81341(19)
O2 O 0.33469(12) 0.0258(5) 0.89146(19)
O3 O 0.23518(18) 0.2422(7) 0.8083(2)
O4 O 0.1722(2) 0.1691(12) 0.7868(3)
O5 O 0.34996(12) -0.1679(5) 1.0002(2)
O6 O 0.44195(14) -0.1581(6) 1.1283(2)
O7 O 0.44038(17) -0.3078(6) 1.1969(2)
O8 O 0.29116(16) 0.1344(6) 0.7308(3)
H20 H 0.2685 0.1790 0.7259
H21 H 0.3027 0.2009 0.7202
Cd1 Cd 0.315747(13) -0.12195(6) 0.78765(2)
Cd2 Cd 0.5000 -0.12046(8) 1.2500
C1A C 0.57108(18) -0.1166(7) 1.6275(3)
H1A H 0.5691 -0.2305 1.6195
C2A C 0.59962(17) 0.1267(7) 1.6674(3)
H2A H 0.6203 0.2145 1.6913
C3A C 0.53475(18) -0.0158(7) 1.6013(3)
H3A H 0.5036 -0.0455 1.5717
C4A C 0.51517(18) 0.5548(7) 1.6380(3)
C5A C 0.47232(18) 0.5721(7) 1.5732(3)
H4A H 0.4545 0.6675 1.5608
C6A C 0.45698(18) 0.4428(7) 1.5277(3)
C7A C 0.48410(18) 0.3026(7) 1.5447(3)
H5A H 0.4741 0.2194 1.5130
C8A C 0.52654(18) 0.2892(7) 1.6103(3)
C9A C 0.54263(18) 0.4142(7) 1.6579(3)
H6A H 0.5709 0.4040 1.7016
C10A C 0.38902(19) 0.5844(7) 1.4187(3)
H7A H 0.3973 0.6960 1.4291
C11A C 0.3511(2) 0.5212(7) 1.3591(3)
H8A H 0.3287 0.5838 1.3209
C12A C 0.38757(18) 0.3118(7) 1.4255(3)
H9A H 0.3954 0.2042 1.4430
N1A N 0.53127(16) 0.9189(6) 1.7309(2)
C13A C 0.50540(19) 0.8104(7) 1.6816(3)
H10A H 0.4734 0.8178 1.6479
C14A C 0.57717(18) 0.7211(7) 1.7417(3)
H11A H 0.6031 0.6591 1.7574
C15A C 0.70357(19) -0.0295(7) 1.6300(3)
C16A C 0.71782(18) -0.0152(7) 1.5885(3)
C17A C 0.69191(19) -0.0927(7) 1.5258(3)
C18A C 0.7052(2) -0.0892(8) 1.4872(3)
H12A H 0.6873 -0.1427 1.4455
C19A C 0.7451(2) -0.0053(9) 1.5114(4)
H13A H 0.7543 -0.0012 1.4860
C20A C 0.7712(2) 0.0721(8) 1.5735(4)
H14A H 0.7981 0.1284 1.5898
C21A C 0.75832(19) 0.0680(8) 1.6122(3)
C22A C 0.7854(2) 0.1684(10) 1.6780(3)
C23A C 0.64624(18) -0.3360(7) 1.4838(3)
C24A C 0.6769(2) -0.4480(8) 1.5341(3)
H15A H 0.7006 -0.4104 1.5779
C25A C 0.6726(2) -0.6154(9) 1.5198(3)
H16A H 0.6928 -0.6911 1.5542
C26A C 0.6385(2) -0.6712(8) 1.4548(4)
H17A H 0.6357 -0.7844 1.4452
C27A C 0.6082(2) -0.5590(7) 1.4037(3)
H18A H 0.5860 -0.5968 1.3595
C28A C 0.61079(18) -0.3885(7) 1.4178(3)
C29A C 0.57433(19) -0.2753(8) 1.3621(3)
N2A N 0.61227(15) -0.0255(6) 1.6686(2)
N3A N 0.55307(14) 0.1423(6) 1.6273(2)
N4A N 0.53152(15) 0.6863(5) 1.6862(2)
C30A C 0.57635(19) 0.8633(8) 1.7683(3)
H19A H 0.6024 0.9164 1.8063
N5A N 0.41293(15) 0.4486(6) 1.4612(2)
N6A N 0.35068(15) 0.3488(6) 1.3634(2)
O1A O 0.73149(13) -0.1049(5) 1.68659(19)
O2A O 0.66531(12) 0.0258(5) 1.60854(19)
O3A O 0.76482(18) 0.2422(7) 1.6917(2)
O4A O 0.8278(2) 0.1691(12) 1.7132(3)
O5A O 0.65004(12) -0.1679(5) 1.4998(2)
O6A O 0.55805(14) -0.1581(6) 1.3717(2)
O7A O 0.55962(17) -0.3078(6) 1.3031(2)
O8A O 0.70884(16) 0.1344(6) 1.7692(3)
H20A H 0.7315 0.1790 1.7741
H21A H 0.6973 0.2009 1.7798
Cd1A Cd 0.684253(13) -0.12195(6) 1.71235(2)
N1D N 0.53127(16) 0.0811(6) 1.2309(2)
N1E N 0.46873(16) 0.0811(6) 1.2691(2)
N6D N 0.35068(15) -0.3488(6) 0.8634(2)
N6E N 0.64932(15) -0.3488(6) 1.6366(2)
O3B O 0.73518(18) -0.2578(7) 1.8083(2)
O3C O 0.26482(18) -0.2578(7) 0.6917(2)
Cd1B Cd 0.815747(13) 0.37805(6) 1.78765(2)
Cd1C Cd 0.184253(13) 0.37805(6) 0.71235(2)
Cd1D Cd 0.684253(13) 0.12195(6) 1.21235(2)
Cd1E Cd 0.315747(13) 0.12195(6) 1.28765(2)
Cd2D Cd 0.5000 1.12046(8) 0.7500
Cd2D_2 Cd 0.5000 1.12046(8) 1.7500
O9 O 0.57731(13) -0.0501(5) 0.97774(19)
H22 H 0.5766 0.0130 0.9510
H23 H 0.6044 -0.0509 1.0162
O10 O 0.36023(19) 0.3115(7) 0.6883(3)
H24 H 0.3814 0.3850 0.7097
H25 H 0.3373 0.3411 0.6846
O11 O 0.3084(4) 0.0392(13) 0.6487(4)
H26 H 0.2956 0.0546 0.6655
H27 H 0.3318 0.1030 0.6693
loop_
_geom_bond_atom_site_label_1
_geom_bond_atom_site_label_2
_geom_bond_site_symmetry_1
_geom_bond_site_symmetry_2
C1 H1 1_555 1_555
C2 H2 1_555 1_555
C3 C1 1_555 1_555
H3 C3 1_555 1_555
C4 C5 1_555 1_555
C5 H4 1_555 1_555
C6 C5 1_555 1_555
C7 C6 1_555 1_555
H5 C7 1_555 1_555
C8 C7 1_555 1_555
C9 C4 1_555 1_555
H6 C9 1_555 1_555
C10 H7 1_555 1_555
C11 C10 1_555 1_555
H8 C11 1_555 1_555
C12 H9 1_555 1_555
N1 C13 1_555 1_555
C13 H10 1_555 1_555
C14 H11 1_555 1_555
C15 C16 1_555 1_555
C16 C17 1_555 1_555
C17 C18 1_555 1_555
C18 H12 1_555 1_555
C19 C18 1_555 1_555
H13 C19 1_555 1_555
C20 C19 1_555 1_555
H14 C20 1_555 1_555
C21 C16 1_555 1_555
C22 C21 1_555 1_555
C23 C24 1_555 1_555
C24 H15 1_555 1_555
C25 C24 1_555 1_555
H16 C25 1_555 1_555
C26 C25 1_555 1_555
H17 C26 1_555 1_555
C27 C26 1_555 1_555
H18 C27 1_555 1_555
C28 C23 1_555 1_555
C29 C28 1_555 1_555
N2 C1 1_555 1_555
N3 C2 1_555 1_555
N4 C4 1_555 1_555
C30 N1 1_555 1_555
H19 C30 1_555 1_555
N5 C6 1_555 1_555
N6 C11 1_555 1_555
O1 C15 1_555 1_555
O2 C15 1_555 1_555
O3 C22 1_555 1_555
O4 C22 1_555 1_555
O5 C17 1_555 1_555
O6 C29 1_555 1_555
O7 C29 1_555 1_555
O8 H20 1_555 1_555
H21 O8 1_555 1_555
Cd1 N2 1_555 1_555
Cd2 O6 1_555 1_555
O9 H22 1_555 1_555
H23 O9 1_555 1_555
O10 H24 1_555 1_555
H25 O10 1_555 1_555
O11 H26 1_555 1_555
H27 O11 1_555 1_555
C1A H1A 1_555 1_555
C2A H2A 1_555 1_555
C3A C1A 1_555 1_555
H3A C3A 1_555 1_555
C4A C5A 1_555 1_555
C5A H4A 1_555 1_555
C6A C5A 1_555 1_555
C7A C6A 1_555 1_555
H5A C7A 1_555 1_555
C8A C7A 1_555 1_555
C9A C4A 1_555 1_555
H6A C9A 1_555 1_555
C10A H7A 1_555 1_555
C11A C10A 1_555 1_555
H8A C11A 1_555 1_555
C12A H9A 1_555 1_555
N1A C13A 1_555 1_555
C13A H10A 1_555 1_555
C14A H11A 1_555 1_555
C15A C16A 1_555 1_555
C16A C17A 1_555 1_555
C17A C18A 1_555 1_555
C18A H12A 1_555 1_555
C19A C18A 1_555 1_555
H13A C19A 1_555 1_555
C20A C19A 1_555 1_555
H14A C20A 1_555 1_555
C21A C16A 1_555 1_555
C22A C21A 1_555 1_555
C23A C24A 1_555 1_555
C24A H15A 1_555 1_555
C25A C24A 1_555 1_555
H16A C25A 1_555 1_555
C26A C25A 1_555 1_555
H17A C26A 1_555 1_555
C27A C26A 1_555 1_555
H18A C27A 1_555 1_555
C28A C23A 1_555 1_555
C29A C28A 1_555 1_555
N2A C1A 1_555 1_555
N3A C2A 1_555 1_555
N4A C4A 1_555 1_555
C30A N1A 1_555 1_555
H19A C30A 1_555 1_555
N5A C6A 1_555 1_555
N6A C11A 1_555 1_555
O1A C15A 1_555 1_555
O2A C15A 1_555 1_555
O3A C22A 1_555 1_555
O4A C22A 1_555 1_555
O5A C17A 1_555 1_555
O6A Cd2 1_555 1_555
O7A Cd2 1_555 1_555
O8A H20A 1_555 1_555
H21A O8A 1_555 1_555
Cd1A N2A 1_555 1_555
N1D Cd2 1_555 1_555
N1E Cd2 1_555 1_555
N6D Cd1 1_555 1_555
N6E Cd1A 1_555 1_555
O3B Cd1A 1_555 1_555
O3C Cd1 1_555 1_555
Cd1B O3A 1_555 1_555
Cd1C O3 1_555 1_555
Cd1D N6 1_555 1_555
Cd1E N6A 1_555 1_555
Cd2D N1 1_555 1_555
Cd2D_2 N1A 1_555 1_555
C2 N2 1_555 1_555
C3 N3 1_555 1_555
C8 C9 1_555 1_555
C8 N3 1_555 1_555
C10 N5 1_555 1_555
C12 N5 1_555 1_555
C12 N6 1_555 1_555
C13 N4 1_555 1_555
C14 N4 1_555 1_555
C14 C30 1_555 1_555
C20 C21 1_555 1_555
C23 O5 1_555 1_555
C27 C28 1_555 1_555
O1 Cd1 1_555 1_555
O2 Cd1 1_555 1_555
O7 Cd2 1_555 1_555
O8 Cd1 1_555 1_555
C2A N2A 1_555 1_555
C3A N3A 1_555 1_555
C8A C9A 1_555 1_555
C8A N3A 1_555 1_555
C10A N5A 1_555 1_555
C12A N5A 1_555 1_555
C12A N6A 1_555 1_555
C13A N4A 1_555 1_555
C14A N4A 1_555 1_555
C14A C30A 1_555 1_555
C20A C21A 1_555 1_555
C23A O5A 1_555 1_555
C27A C28A 1_555 1_555
C29A O6A 1_555 1_555
C29A O7A 1_555 1_555
O1A Cd1A 1_555 1_555
O2A Cd1A 1_555 1_555
O8A Cd1A 1_555 1_555

#END
