
#######################################################################
#
#                 Cambridge Crystallographic Data Centre
#                                CCDC 
#
#######################################################################
#
# If this CIF has been generated from an entry in the Cambridge 
# Structural Database, then it will include bibliographic, chemical, 
# crystal, experimental, refinement or atomic coordinate data resulting 
# from the CCDC's data processing and validation procedures.
#
#######################################################################

data_CIZLUU
_symmetry_cell_setting           orthorhombic
_symmetry_space_group_name_H-M   'P c c n'
_symmetry_Int_Tables_number      56
_space_group_name_Hall           '-P 2ab 2ac'
loop_
_symmetry_equiv_pos_site_id
_symmetry_equiv_pos_as_xyz
1 x,y,z
2 1/2-x,1/2-y,z
3 1/2+x,-y,1/2-z
4 -x,1/2+y,1/2-z
5 -x,-y,-z
6 1/2+x,1/2+y,-z
7 1/2-x,y,1/2+z
8 x,1/2-y,1/2+z
_cell_length_a                   10.1513(15)
_cell_length_b                   32.003(6)
_cell_length_c                   18.417(4)
_cell_angle_alpha                90
_cell_angle_beta                 90
_cell_angle_gamma                90
_cell_volume                     5983.17
loop_
_atom_site_label
_atom_site_type_symbol
_atom_site_fract_x
_atom_site_fract_y
_atom_site_fract_z
C1 C -0.1552(11) -0.0859(5) 0.3146(6)
C2 C 0.1014(11) -0.0336(4) 0.3166(6)
C3 C -0.0216(10) -0.1022(3) 0.3313(5)
C4 C 0.0943(9) -0.0798(3) 0.3311(5)
C5 C 0.2102(9) -0.0999(3) 0.3446(5)
H1 H 0.2878 -0.0845 0.3435
C6 C 0.2173(11) -0.1410(4) 0.3594(6)
C7 C 0.1042(14) -0.1630(4) 0.3628(6)
H2 H 0.1081 -0.1913 0.3744
C8 C -0.0145(13) -0.1455(4) 0.3499(6)
H3 H -0.0909 -0.1614 0.3532
C9 C 0.3638(11) -0.1871(4) 0.4236(7)
C10 C 0.3016(13) -0.1837(4) 0.4899(7)
H4 H 0.2329 -0.1649 0.4962
C11 C 0.3417(15) -0.2083(4) 0.5459(7)
H5 H 0.2962 -0.2072 0.5897
C12 C 0.4422(17) -0.2334(4) 0.5399(8)
H6 H 0.4701 -0.2489 0.5798
C13 C 0.5103(15) -0.2373(5) 0.4712(10)
H7 H 0.5825 -0.2549 0.4654
C14 C 0.4629(14) -0.2137(4) 0.4155(9)
C15 C 0.5324(16) -0.2238(4) 0.3384(10)
C16 C -0.5365(10) 0.0615(3) 0.5822(5)
H8 H -0.5927 0.0844 0.5803
C17 C -0.4345(10) 0.0046(3) 0.6184(5)
H9 H -0.4103 -0.0186 0.6459
C18 C -0.3770(11) 0.0179(3) 0.5557(6)
H10 H -0.3059 0.0052 0.5327
C19 C -0.4155(11) 0.0771(3) 0.4693(5)
C20 C -0.2952(9) 0.0761(3) 0.4350(5)
H11 H -0.2267 0.0598 0.4530
C21 C -0.2788(9) 0.0997(3) 0.3740(5)
C22 C -0.3804(9) 0.1253(3) 0.3454(5)
H12 H -0.3681 0.1407 0.3030
C23 C -0.4952(9) 0.1265(3) 0.3816(5)
C24 C -0.5193(9) 0.1024(3) 0.4432(5)
H13 H -0.6008 0.1030 0.4662
C25 C -0.0816(9) 0.0670(3) 0.3226(5)
H14 H -0.0988 0.0405 0.3413
C26 C 0.0100(10) 0.1177(3) 0.2668(5)
H15 H 0.0682 0.1334 0.2389
C27 C -0.0994(11) 0.1320(3) 0.2990(6)
H16 H -0.1305 0.1593 0.2979
C28 C -0.5871(10) 0.1856(4) 0.3115(6)
H17 H -0.5080 0.1931 0.2895
C29 C -0.7811(11) 0.1838(4) 0.3407(9)
H18 H -0.8704 0.1903 0.3428
C30 C -0.7282(11) 0.1535(4) 0.3765(9)
H19 H -0.7694 0.1353 0.4086
O1 O -0.1675(7) -0.0526(3) 0.2790(4)
O2 O -0.2513(8) -0.1047(3) 0.3348(5)
O3 O 0.1431(7) -0.0218(2) 0.2569(5)
O4 O 0.0649(9) -0.0106(2) 0.3668(5)
O5 O 0.3405(9) -0.1598(3) 0.3684(5)
O6 O 0.473(2) -0.2273(4) 0.2810(7)
O7 O 0.6449(15) -0.2291(5) 0.3417(8)
Zn1 Zn 0.14365(10) 0.03703(3) 0.22826(6)
Zn2 Zn -0.7500 0.2500 0.23221(11)
N1 N 0.0212(8) 0.0759(2) 0.2820(4)
N2 N -0.1566(7) 0.0992(3) 0.3336(4)
N3 N -0.6956(9) 0.2047(3) 0.3007(5)
N4 N -0.5995(8) 0.1541(3) 0.3571(5)
N5 N -0.4409(7) 0.0526(2) 0.5327(4)
N6 N -0.5370(8) 0.0325(3) 0.6333(4)
C1A C -1.3448(11) 0.5859(5) 0.3146(6)
C2A C -1.6014(11) 0.5336(4) 0.3166(6)
C3A C -1.4784(10) 0.6022(3) 0.3313(5)
C4A C -1.5943(9) 0.5798(3) 0.3311(5)
C5A C -1.7102(9) 0.5999(3) 0.3446(5)
H1A H -1.7878 0.5845 0.3435
C6A C -1.7173(11) 0.6410(4) 0.3594(6)
C7A C -1.6042(14) 0.6630(4) 0.3628(6)
H2A H -1.6081 0.6913 0.3744
C8A C -1.4855(13) 0.6455(4) 0.3499(6)
H3A H -1.4091 0.6614 0.3532
C9A C -1.8638(11) 0.6871(4) 0.4236(7)
C10A C -1.8016(13) 0.6837(4) 0.4899(7)
H4A H -1.7329 0.6649 0.4962
C11A C -1.8417(15) 0.7083(4) 0.5459(7)
H5A H -1.7962 0.7072 0.5897
C12A C -1.9422(17) 0.7334(4) 0.5399(8)
H6A H -1.9701 0.7489 0.5798
C13A C -2.0103(15) 0.7373(5) 0.4712(10)
H7A H -2.0825 0.7549 0.4654
C14A C -1.9629(14) 0.7137(4) 0.4155(9)
C15A C -2.0324(16) 0.7238(4) 0.3384(10)
C16A C -0.9635(10) 0.4385(3) 0.5822(5)
H8A H -0.9073 0.4156 0.5803
C17A C -1.0655(10) 0.4954(3) 0.6184(5)
H9A H -1.0897 0.5186 0.6459
C18A C -1.1230(11) 0.4821(3) 0.5557(6)
H10A H -1.1941 0.4948 0.5327
C19A C -1.0845(11) 0.4229(3) 0.4693(5)
C20A C -1.2048(9) 0.4239(3) 0.4350(5)
H11A H -1.2733 0.4402 0.4530
C21A C -1.2212(9) 0.4003(3) 0.3740(5)
C22A C -1.1196(9) 0.3747(3) 0.3454(5)
H12A H -1.1319 0.3593 0.3030
C23A C -1.0048(9) 0.3735(3) 0.3816(5)
C24A C -0.9807(9) 0.3976(3) 0.4432(5)
H13A H -0.8992 0.3970 0.4662
C25A C -1.4184(9) 0.4330(3) 0.3226(5)
H14A H -1.4012 0.4595 0.3413
C26A C -1.5100(10) 0.3823(3) 0.2668(5)
H15A H -1.5682 0.3666 0.2389
C27A C -1.4006(11) 0.3680(3) 0.2990(6)
H16A H -1.3695 0.3407 0.2979
C28A C -0.9129(10) 0.3144(4) 0.3115(6)
H17A H -0.9920 0.3069 0.2895
C29A C -0.7189(11) 0.3162(4) 0.3407(9)
H18A H -0.6296 0.3097 0.3428
C30A C -0.7718(11) 0.3465(4) 0.3765(9)
H19A H -0.7306 0.3647 0.4086
O1A O -1.3325(7) 0.5526(3) 0.2790(4)
O2A O -1.2487(8) 0.6047(3) 0.3348(5)
O3A O -1.6431(7) 0.5218(2) 0.2569(5)
O4A O -1.5649(9) 0.5106(2) 0.3668(5)
O5A O -1.8405(9) 0.6598(3) 0.3684(5)
O6A O -1.973(2) 0.7273(4) 0.2810(7)
O7A O -2.1449(15) 0.7291(5) 0.3417(8)
Zn1A Zn -1.64365(10) 0.46297(3) 0.22826(6)
N1A N -1.5212(8) 0.4241(2) 0.2820(4)
N2A N -1.3434(7) 0.4008(3) 0.3336(4)
N3A N -0.8044(9) 0.2953(3) 0.3007(5)
N4A N -0.9005(8) 0.3459(3) 0.3571(5)
N5A N -1.0591(7) 0.4474(2) 0.5327(4)
N6A N -0.9630(8) 0.4675(3) 0.6333(4)
O1B O 0.3325(7) 0.0526(3) 0.2210(4)
O1C O -1.8325(7) 0.4474(3) 0.2210(4)
O7B O -0.8551(15) 0.2291(5) 0.1583(8)
O7C O -0.6449(15) 0.2709(5) 0.1583(8)
Zn1B Zn -0.35635(10) -0.03703(3) 0.27174(6)
Zn1C Zn -1.14365(10) 0.53703(3) 0.27174(6)
Zn1F Zn -0.64365(10) 0.03703(3) 0.72826(6)
Zn1G Zn -0.85635(10) 0.46297(3) 0.72826(6)
Zn2B Zn -2.2500 0.7500 0.26779(11)
Zn2B_2 Zn 0.7500 -0.2500 0.26779(11)
N6F N 0.0370(8) 0.0325(3) 0.1333(4)
N6G N -1.5370(8) 0.4675(3) 0.1333(4)
O8 O 0.2500 -0.2500 0.2229(11)
loop_
_geom_bond_atom_site_label_1
_geom_bond_atom_site_label_2
_geom_bond_site_symmetry_1
_geom_bond_site_symmetry_2
C1 C3 1_555 1_555
C2 C4 1_555 1_555
C3 C4 1_555 1_555
C4 C5 1_555 1_555
C5 H1 1_555 1_555
C6 C5 1_555 1_555
C7 C6 1_555 1_555
H2 C7 1_555 1_555
C8 C3 1_555 1_555
H3 C8 1_555 1_555
C9 C10 1_555 1_555
C10 H4 1_555 1_555
C11 C10 1_555 1_555
H5 C11 1_555 1_555
C12 C11 1_555 1_555
H6 C12 1_555 1_555
C13 C12 1_555 1_555
H7 C13 1_555 1_555
C14 C9 1_555 1_555
C15 C14 1_555 1_555
C16 H8 1_555 1_555
C17 H9 1_555 1_555
C18 C17 1_555 1_555
H10 C18 1_555 1_555
C19 C20 1_555 1_555
C20 H11 1_555 1_555
C21 C20 1_555 1_555
C22 C21 1_555 1_555
H12 C22 1_555 1_555
C23 C22 1_555 1_555
C24 C19 1_555 1_555
H13 C24 1_555 1_555
C25 H14 1_555 1_555
C26 H15 1_555 1_555
C27 C26 1_555 1_555
H16 C27 1_555 1_555
C28 H17 1_555 1_555
C29 H18 1_555 1_555
C30 C29 1_555 1_555
H19 C30 1_555 1_555
O1 C1 1_555 1_555
O2 C1 1_555 1_555
O3 C2 1_555 1_555
O4 C2 1_555 1_555
O5 C6 1_555 1_555
O6 C15 1_555 1_555
O7 C15 1_555 1_555
Zn1 O3 1_555 1_555
Zn2 N3 1_555 1_555
N1 C25 1_555 1_555
N2 C21 1_555 1_555
N3 C28 1_555 1_555
N4 C23 1_555 1_555
N5 C16 1_555 1_555
N6 C16 1_555 1_555
C1A C3A 1_555 1_555
C2A C4A 1_555 1_555
C3A C4A 1_555 1_555
C4A C5A 1_555 1_555
C5A H1A 1_555 1_555
C6A C5A 1_555 1_555
C7A C6A 1_555 1_555
H2A C7A 1_555 1_555
C8A C3A 1_555 1_555
H3A C8A 1_555 1_555
C9A C10A 1_555 1_555
C10A H4A 1_555 1_555
C11A C10A 1_555 1_555
H5A C11A 1_555 1_555
C12A C11A 1_555 1_555
H6A C12A 1_555 1_555
C13A C12A 1_555 1_555
H7A C13A 1_555 1_555
C14A C9A 1_555 1_555
C15A C14A 1_555 1_555
C16A H8A 1_555 1_555
C17A H9A 1_555 1_555
C18A C17A 1_555 1_555
H10A C18A 1_555 1_555
C19A C20A 1_555 1_555
C20A H11A 1_555 1_555
C21A C20A 1_555 1_555
C22A C21A 1_555 1_555
H12A C22A 1_555 1_555
C23A C22A 1_555 1_555
C24A C19A 1_555 1_555
H13A C24A 1_555 1_555
C25A H14A 1_555 1_555
C26A H15A 1_555 1_555
C27A C26A 1_555 1_555
H16A C27A 1_555 1_555
C28A H17A 1_555 1_555
C29A H18A 1_555 1_555
C30A C29A 1_555 1_555
H19A C30A 1_555 1_555
O1A C1A 1_555 1_555
O2A C1A 1_555 1_555
O3A C2A 1_555 1_555
O4A C2A 1_555 1_555
O5A C6A 1_555 1_555
O6A C15A 1_555 1_555
O7A C15A 1_555 1_555
Zn1A O3A 1_555 1_555
N1A C25A 1_555 1_555
N2A C21A 1_555 1_555
N3A Zn2 1_555 1_555
N4A C23A 1_555 1_555
N5A C16A 1_555 1_555
N6A C16A 1_555 1_555
O1B Zn1 1_555 1_555
O1C Zn1A 1_555 1_555
O7B Zn2 1_555 1_555
O7C Zn2 1_555 1_555
Zn1B O1 1_555 1_555
Zn1C O1A 1_555 1_555
Zn1F N6 1_555 1_555
Zn1G N6A 1_555 1_555
Zn2B O7A 1_555 1_555
Zn2B_2 O7 1_555 1_555
N6F Zn1 1_555 1_555
N6G Zn1A 1_555 1_555
C7 C8 1_555 1_555
C9 O5 1_555 1_555
C13 C14 1_555 1_555
C17 N6 1_555 1_555
C18 N5 1_555 1_555
C19 N5 1_555 1_555
C23 C24 1_555 1_555
C25 N2 1_555 1_555
C26 N1 1_555 1_555
C27 N2 1_555 1_555
C28 N4 1_555 1_555
C29 N3 1_555 1_555
C30 N4 1_555 1_555
Zn1 N1 1_555 1_555
C7A C8A 1_555 1_555
C9A O5A 1_555 1_555
C13A C14A 1_555 1_555
C17A N6A 1_555 1_555
C18A N5A 1_555 1_555
C19A N5A 1_555 1_555
C23A C24A 1_555 1_555
C25A N2A 1_555 1_555
C26A N1A 1_555 1_555
C27A N2A 1_555 1_555
C28A N3A 1_555 1_555
C28A N4A 1_555 1_555
C29A N3A 1_555 1_555
C30A N4A 1_555 1_555
Zn1A N1A 1_555 1_555

#END
