
#######################################################################
#
#                 Cambridge Crystallographic Data Centre
#                                CCDC 
#
#######################################################################
#
# If this CIF has been generated from an entry in the Cambridge 
# Structural Database, then it will include bibliographic, chemical, 
# crystal, experimental, refinement or atomic coordinate data resulting 
# from the CCDC's data processing and validation procedures.
#
#######################################################################

data_CIZLEE
_symmetry_cell_setting           triclinic
_symmetry_space_group_name_H-M   'P -1'
_symmetry_Int_Tables_number      2
_space_group_name_Hall           '-P 1'
loop_
_symmetry_equiv_pos_site_id
_symmetry_equiv_pos_as_xyz
1 x,y,z
2 -x,-y,-z
_cell_length_a                   6.5950(4)
_cell_length_b                   9.1653(5)
_cell_length_c                   14.1958(10)
_cell_angle_alpha                85.873(5)
_cell_angle_beta                 82.166(5)
_cell_angle_gamma                74.734(4)
_cell_volume                     819.479
loop_
_atom_site_label
_atom_site_type_symbol
_atom_site_fract_x
_atom_site_fract_y
_atom_site_fract_z
C1 C 0.2246(7) 0.7550(5) 0.1929(4)
C2 C 0.5650(8) 0.0749(5) 0.1717(4)
C3 C 0.6533(7) -0.0946(5) 0.1876(4)
C4 C 0.6924(7) -0.1601(5) 0.2772(4)
C5 C 0.6737(8) -0.0741(6) 0.3642(4)
C6 C 0.7575(7) -0.3168(5) 0.2862(4)
H1 H 0.7889 -0.3627 0.3465
C7 C 0.7779(7) -0.4083(5) 0.2104(4)
C8 C 0.8445(8) -0.5765(5) 0.2348(4)
C9 C 0.7401(7) -0.3434(5) 0.1208(4)
C10 C 0.7350(7) -0.4319(5) 0.0361(4)
C11 C 0.6816(7) -0.1835(5) 0.1097(4)
H2 H 0.6617 -0.1371 0.0484
Cd1 Cd 0.41306(6) 0.38552(4) 0.16468(3)
Cd2 Cd 0.05851(6) 0.11128(4) 0.27540(3)
Cd3 Cd 0.24604(6) 0.87754(4) 0.48855(3)
N1 N 0.2101(6) 0.7910(5) 0.1011(4)
H3 H 0.1696 0.8866 0.0820
H4 H 0.2410 0.7193 0.0595
N2 N 0.1817(6) 0.8543(4) 0.2631(4)
N3 N 0.2147(6) 0.7685(4) 0.3448(4)
N4 N 0.2730(7) 0.6256(5) 0.3257(4)
N5 N 0.2818(6) 0.6120(5) 0.2311(4)
O1 O 0.4120(5) 0.1436(4) 0.2314(3)
O2 O 0.6408(5) 0.1418(4) 0.1016(3)
O3 O 0.7443(5) 0.0422(4) 0.3593(3)
O4 O 0.5944(5) -0.1267(4) 0.4412(3)
O5 O 0.7050(5) -0.6507(4) 0.2519(3)
O6 O 1.0340(5) -0.6354(4) 0.2461(3)
O7 O 0.6869(5) -0.5554(4) 0.0509(3)
O8 O 0.7767(5) -0.3733(4) -0.0461(3)
O9 O 0.0839(5) 0.1059(4) 0.4299(3)
H5 H 0.1583 0.1642 0.4386
O10 O 0.0567(5) 0.1245(4) 0.1091(3)
H6 H 0.1062 0.1977 0.0853
H7 H -0.0703 0.1392 0.0973
O11 O 0.3729(7) 0.6327(5) 0.5480(4)
H8 H 0.3668 0.6343 0.6081
H9 H 0.5007 0.5993 0.5239
Cd1_2 Cd 0.41306(6) -0.61448(4) 0.16468(3)
Cd1_3 Cd 1.41306(6) -0.61448(4) 0.16468(3)
Cd1A Cd 0.58694(6) -0.38552(4) -0.16468(3)
Cd2_2 Cd 0.05851(6) 1.11128(4) 0.27540(3)
Cd2_3 Cd 1.05851(6) -0.88872(4) 0.27540(3)
Cd2_4 Cd 1.05851(6) 0.11128(4) 0.27540(3)
Cd3_2 Cd 0.24604(6) -0.12246(4) 0.48855(3)
Cd3A Cd -0.24604(6) 0.12246(4) 0.51145(3)
Cd3A_2 Cd 0.75396(6) 0.12246(4) 0.51145(3)
N2_2 N 0.1817(6) -0.1457(4) 0.2631(4)
O3_2 O -0.2557(5) 0.0422(4) 0.3593(3)
O3A O 0.2557(5) 0.9578(4) 0.6407(3)
O4_2 O 0.5944(5) 0.8733(4) 0.4412(3)
O5_2 O -0.2950(5) 0.3493(4) 0.2519(3)
O5_3 O 0.7050(5) 0.3493(4) 0.2519(3)
O6_2 O 0.0340(5) 0.3646(4) 0.2461(3)
O7_2 O 0.6869(5) 0.4446(4) 0.0509(3)
O8A O 0.2233(5) 0.3733(4) 0.0461(3)
O9_2 O 0.0839(5) 1.1059(4) 0.4299(3)
O9A O -0.0839(5) 0.8941(4) 0.5701(3)
O12 O 0.8359(14) 0.6013(9) 0.5463(7)
O13? O 1.0000 0.5000 0.5000
O14? O 1.006(7) 0.466(4) 0.465(3)
loop_
_geom_bond_atom_site_label_1
_geom_bond_atom_site_label_2
_geom_bond_site_symmetry_1
_geom_bond_site_symmetry_2
C1 N1 1_555 1_555
C2 C3 1_555 1_555
C3 C4 1_555 1_555
C4 C5 1_555 1_555
C5 O3 1_555 1_555
C6 C4 1_555 1_555
H1 C6 1_555 1_555
C7 C6 1_555 1_555
C8 C7 1_555 1_555
C9 C7 1_555 1_555
C10 C9 1_555 1_555
C11 C3 1_555 1_555
H2 C11 1_555 1_555
Cd1 N5 1_555 1_555
Cd2 O1 1_555 1_555
Cd3 N3 1_555 1_555
N1 H3 1_555 1_555
H4 N1 1_555 1_555
N2 C1 1_555 1_555
N3 N2 1_555 1_555
N4 N3 1_555 1_555
N5 C1 1_555 1_555
O1 C2 1_555 1_555
O2 C2 1_555 1_555
O3 Cd2_4 1_555 1_555
O4 C5 1_555 1_555
O5 C8 1_555 1_555
O6 C8 1_555 1_555
O7 C10 1_555 1_555
O8 C10 1_555 1_555
O9 Cd2 1_555 1_555
H5 O9 1_555 1_555
O10 Cd2 1_555 1_555
H6 O10 1_555 1_555
H7 O10 1_555 1_555
O11 Cd3 1_555 1_555
H8 O11 1_555 1_555
H9 O11 1_555 1_555
Cd1_2 O5 1_555 1_555
Cd1_3 O6 1_555 1_555
Cd1A O8 1_555 1_555
Cd2_2 N2 1_555 1_555
Cd2_3 O5 1_555 1_555
Cd2_4 O5_3 1_555 1_555
Cd3_2 O4 1_555 1_555
Cd3A O9 1_555 1_555
Cd3A_2 O3 1_555 1_555
N2_2 Cd2 1_555 1_555
O3_2 Cd2 1_555 1_555
O3A Cd3 1_555 1_555
O4_2 Cd3 1_555 1_555
O5_2 Cd2 1_555 1_555
O5_3 Cd1 1_555 1_555
O6_2 Cd1 1_555 1_555
O7_2 Cd1 1_555 1_555
O8A Cd1 1_555 1_555
O9_2 Cd3 1_555 1_555
O9A Cd3 1_555 1_555
C9 C11 1_555 1_555
Cd1 O1 1_555 1_555
Cd1 O2 1_555 1_555
Cd2 O6_2 1_555 1_555
N4 N5 1_555 1_555
O6 Cd2_3 1_555 1_555
O7 Cd1_2 1_555 1_555
O9 Cd3_2 1_555 1_555
Cd2_2 O9_2 1_555 1_555
Cd3A O3_2 1_555 1_555

#END
