
#######################################################################
#
#                 Cambridge Crystallographic Data Centre
#                                CCDC 
#
#######################################################################
#
# If this CIF has been generated from an entry in the Cambridge 
# Structural Database, then it will include bibliographic, chemical, 
# crystal, experimental, refinement or atomic coordinate data resulting 
# from the CCDC's data processing and validation procedures.
#
#######################################################################

data_CIZMOP
_symmetry_cell_setting           monoclinic
_symmetry_space_group_name_H-M   'C 2'
_symmetry_Int_Tables_number      5
_space_group_name_Hall           'C 2y'
loop_
_symmetry_equiv_pos_site_id
_symmetry_equiv_pos_as_xyz
1 x,y,z
2 -x,y,-z
3 1/2+x,1/2+y,z
4 1/2-x,1/2+y,-z
_cell_length_a                   27.4177(12)
_cell_length_b                   8.2315(3)
_cell_length_c                   13.7691(7)
_cell_angle_alpha                90
_cell_angle_beta                 94.263(5)
_cell_angle_gamma                90
_cell_volume                     3098.93
loop_
_atom_site_label
_atom_site_type_symbol
_atom_site_fract_x
_atom_site_fract_y
_atom_site_fract_z
C1 C 0.7204(3) 1.2956(9) -0.7034(7)
C2 C 0.7917(3) 1.0407(9) -0.6378(5)
C3 C 0.7377(3) 1.1717(9) -0.7747(5)
C4 C 0.7706(3) 1.0518(9) -0.7405(5)
C5 C 0.7823(3) 0.9276(8) -0.8033(5)
C6 C 0.7637(3) 0.9280(10) -0.9009(6)
H1 H 0.7722 0.8462 -0.9430
C7 C 0.7327(4) 1.0504(11) -0.9337(6)
H2 H 0.7206 1.0521 -0.9986
C8 C 0.7193(3) 1.1704(11) -0.8717(6)
H3 H 0.6977 1.2513 -0.8946
C9 C 0.8333(3) 0.6937(9) -0.8149(5)
C10 C 0.8639(3) 0.7398(11) -0.8864(6)
H4 H 0.8659 0.8477 -0.9058
C11 C 0.8917(3) 0.6177(10) -0.9286(7)
H5 H 0.9127 0.6461 -0.9759
C12 C 0.8883(3) 0.4551(11) -0.9007(5)
C13 C 0.8562(3) 0.4123(9) -0.8307(6)
H6 H 0.8535 0.3041 -0.8124
C14 C 0.8281(3) 0.5293(9) -0.7883(6)
H7 H 0.8062 0.4998 -0.7430
C15 C 0.9221(3) 0.3342(11) -0.9418(7)
C16 C 0.6078(3) 1.2376(9) -0.4381(5)
H8 H 0.5907 1.3311 -0.4236
C17 C 0.6594(3) 1.0742(9) -0.4956(6)
H9 H 0.6851 1.0352 -0.5295
C18 C 0.6292(3) 0.9817(11) -0.4455(6)
H10 H 0.6307 0.8697 -0.4372
C19 C 0.5535(3) 1.0502(9) -0.3584(6)
C20 C 0.5293(3) 0.9038(9) -0.3779(6)
H11 H 0.5415 0.8266 -0.4190
C21 C 0.4859(3) 0.8775(9) -0.3331(6)
C22 C 0.4676(3) 0.9895(10) -0.2714(6)
H12 H 0.4392 0.9677 -0.2407
C23 C 0.4919(3) 1.1345(9) -0.2555(6)
C24 C 0.5355(3) 1.1664(9) -0.2988(5)
H13 H 0.5520 1.2642 -0.2874
C25 C 0.4991(3) 1.3752(10) -0.1466(6)
H14 H 0.5330 1.3841 -0.1433
C26 C 0.4246(3) 1.4233(10) -0.1290(7)
H15 H 0.3964 1.4753 -0.1115
C27 C 0.4247(3) 1.2862(12) -0.1809(7)
H16 H 0.3977 1.2245 -0.2028
C28 C 0.4106(3) 0.7112(9) -0.3710(6)
H17 H 0.3882 0.7951 -0.3661
C29 C 0.4800(3) 0.5784(9) -0.3683(6)
H18 H 0.5129 0.5506 -0.3627
C30 C 0.4416(3) 0.4803(11) -0.3923(5)
H19 H 0.4442 0.3699 -0.4054
O1 O 0.7413(3) 1.3166(8) -0.6245(5)
O2 O 0.6814(3) 1.3646(10) -0.7272(6)
O3 O 0.76687(16) 0.9715(8) -0.5768(3)
O4 O 0.8337(2) 1.0941(7) -0.6145(4)
O5 O 0.8098(2) 0.8039(6) -0.7606(4)
O6 O 0.9320(3) 0.2061(8) -0.8959(5)
O7 O 0.9419(3) 0.3663(8) -1.0157(5)
O8 O 0.7049(3) 1.7128(8) -0.6177(7)
H20 H 0.6902 1.7616 -0.6661
H21 H 0.7360 1.7169 -0.6214
Cd1 Cd 0.679360(17) 1.46739(5) -0.55856(3)
Cd2 Cd 0.5000 1.66793(9) 0.0000
N1 N 0.6461(2) 1.2371(8) -0.4887(5)
N2 N 0.5954(2) 1.0861(7) -0.4089(4)
N3 N 0.4734(2) 1.2543(8) -0.1953(5)
N4 N 0.4704(2) 1.4768(9) -0.1053(4)
N5 N 0.4596(2) 0.7296(8) -0.3537(5)
N6 N 0.3983(2) 0.5633(7) -0.3951(5)
C1A C 0.2796(3) 1.2956(9) 0.7034(7)
C2A C 0.2083(3) 1.0407(9) 0.6378(5)
C3A C 0.2623(3) 1.1717(9) 0.7747(5)
C4A C 0.2294(3) 1.0518(9) 0.7405(5)
C5A C 0.2177(3) 0.9276(8) 0.8033(5)
C6A C 0.2363(3) 0.9280(10) 0.9009(6)
H1A H 0.2278 0.8462 0.9430
C7A C 0.2673(4) 1.0504(11) 0.9337(6)
H2A H 0.2794 1.0521 0.9986
C8A C 0.2807(3) 1.1704(11) 0.8717(6)
H3A H 0.3023 1.2513 0.8946
C9A C 0.1667(3) 0.6937(9) 0.8149(5)
C10A C 0.1361(3) 0.7398(11) 0.8864(6)
H4A H 0.1341 0.8477 0.9058
C11A C 0.1083(3) 0.6177(10) 0.9286(7)
H5A H 0.0873 0.6461 0.9759
C12A C 0.1117(3) 0.4551(11) 0.9007(5)
C13A C 0.1438(3) 0.4123(9) 0.8307(6)
H6A H 0.1465 0.3041 0.8124
C14A C 0.1719(3) 0.5293(9) 0.7883(6)
H7A H 0.1938 0.4998 0.7430
C15A C 0.0779(3) 0.3342(11) 0.9418(7)
C16A C 0.3922(3) 1.2376(9) 0.4381(5)
H8A H 0.4093 1.3311 0.4236
C17A C 0.3406(3) 1.0742(9) 0.4956(6)
H9A H 0.3149 1.0352 0.5295
C18A C 0.3708(3) 0.9817(11) 0.4455(6)
H10A H 0.3693 0.8697 0.4372
C19A C 0.4465(3) 1.0502(9) 0.3584(6)
C20A C 0.4707(3) 0.9038(9) 0.3779(6)
H11A H 0.4585 0.8266 0.4190
C21A C 0.5141(3) 0.8775(9) 0.3331(6)
C22A C 0.5324(3) 0.9895(10) 0.2714(6)
H12A H 0.5608 0.9677 0.2407
C23A C 0.5081(3) 1.1345(9) 0.2555(6)
C24A C 0.4645(3) 1.1664(9) 0.2988(5)
H13A H 0.4480 1.2642 0.2874
C25A C 0.5009(3) 1.3752(10) 0.1466(6)
H14A H 0.4670 1.3841 0.1433
C26A C 0.5754(3) 1.4233(10) 0.1290(7)
H15A H 0.6036 1.4753 0.1115
C27A C 0.5753(3) 1.2862(12) 0.1809(7)
H16A H 0.6023 1.2245 0.2028
C28A C 0.5894(3) 0.7112(9) 0.3710(6)
H17A H 0.6118 0.7951 0.3661
C29A C 0.5200(3) 0.5784(9) 0.3683(6)
H18A H 0.4871 0.5506 0.3627
C30A C 0.5584(3) 0.4803(11) 0.3923(5)
H19A H 0.5558 0.3699 0.4054
O1A O 0.2587(3) 1.3166(8) 0.6245(5)
O2A O 0.3186(3) 1.3646(10) 0.7272(6)
O3A O 0.23313(16) 0.9715(8) 0.5768(3)
O4A O 0.1663(2) 1.0941(7) 0.6145(4)
O5A O 0.1902(2) 0.8039(6) 0.7606(4)
O6A O 0.0680(3) 0.2061(8) 0.8959(5)
O7A O 0.0581(3) 0.3663(8) 1.0157(5)
O8A O 0.2951(3) 1.7128(8) 0.6177(7)
H20A H 0.3098 1.7616 0.6661
H21A H 0.2640 1.7169 0.6214
Cd1A Cd 0.320640(17) 1.46739(5) 0.55856(3)
N1A N 0.3539(2) 1.2371(8) 0.4887(5)
N2A N 0.4046(2) 1.0861(7) 0.4089(4)
N3A N 0.5266(2) 1.2543(8) 0.1953(5)
N4A N 0.5296(2) 1.4768(9) 0.1053(4)
N5A N 0.5404(2) 0.7296(8) 0.3537(5)
N6A N 0.6017(2) 0.5633(7) 0.3951(5)
O3B O 0.26687(16) 1.4715(8) 0.4232(3)
O3C O 0.73313(16) 1.4715(8) -0.4232(3)
O4B O 0.3337(2) 1.5941(7) 0.3855(4)
O4C O 0.6663(2) 1.5941(7) -0.3855(4)
O6B O 0.4320(3) 1.7061(8) 0.1041(5)
O6C O 0.5680(3) 1.7061(8) -0.1041(5)
O7B O 0.4419(3) 1.8663(8) -0.0157(5)
O7C O 0.5581(3) 1.8663(8) 0.0157(5)
Cd1_2 Cd 0.679360(17) 0.46739(5) 0.44144(3)
Cd1A_2 Cd 0.320640(17) 0.46739(5) -0.44144(3)
Cd1B Cd 0.179360(17) 0.96739(5) 0.44144(3)
Cd1C Cd 0.820640(17) 0.96739(5) -0.44144(3)
Cd2B Cd 0.0000 0.16793(9) 1.0000
Cd2B_2 Cd 1.0000 0.16793(9) -1.0000
N6_2 N 0.3983(2) 1.5633(7) 0.6049(5)
N6A_2 N 0.6017(2) 1.5633(7) -0.6049(5)
O9 O 0.9131(2) 1.0380(7) -0.7261(5)
H22 H 0.8845 1.0395 -0.7068
H23 H 0.9153 1.0941 -0.7771
O10 O 0.3619(5) 0.8944(17) -0.1764(11)
H24 H 0.3652 0.8159 -0.1332
H25 H 0.3455 0.9711 -0.1521
loop_
_geom_bond_atom_site_label_1
_geom_bond_atom_site_label_2
_geom_bond_site_symmetry_1
_geom_bond_site_symmetry_2
C1 C3 1_555 1_555
C2 C4 1_555 1_555
C3 C4 1_555 1_555
C4 C5 1_555 1_555
C5 C6 1_555 1_555
C6 H1 1_555 1_555
C7 C6 1_555 1_555
H2 C7 1_555 1_555
C8 C3 1_555 1_555
H3 C8 1_555 1_555
C9 C10 1_555 1_555
C10 H4 1_555 1_555
C11 C10 1_555 1_555
H5 C11 1_555 1_555
C12 C11 1_555 1_555
C13 C12 1_555 1_555
H6 C13 1_555 1_555
C14 C9 1_555 1_555
H7 C14 1_555 1_555
C15 C12 1_555 1_555
C16 H8 1_555 1_555
C17 H9 1_555 1_555
C18 C17 1_555 1_555
H10 C18 1_555 1_555
C19 C20 1_555 1_555
C20 H11 1_555 1_555
C21 C20 1_555 1_555
C22 C21 1_555 1_555
H12 C22 1_555 1_555
C23 C22 1_555 1_555
C24 C19 1_555 1_555
H13 C24 1_555 1_555
C25 H14 1_555 1_555
C26 H15 1_555 1_555
C27 C26 1_555 1_555
H16 C27 1_555 1_555
C28 H17 1_555 1_555
C29 H18 1_555 1_555
C30 C29 1_555 1_555
H19 C30 1_555 1_555
O1 C1 1_555 1_555
O2 C1 1_555 1_555
O3 C2 1_555 1_555
O4 C2 1_555 1_555
O5 C5 1_555 1_555
O6 C15 1_555 1_555
O7 C15 1_555 1_555
O8 H20 1_555 1_555
H21 O8 1_555 1_555
Cd1 O1 1_555 1_555
Cd2 N4 1_555 1_555
N1 C16 1_555 1_555
N2 C16 1_555 1_555
N3 C23 1_555 1_555
N4 C25 1_555 1_555
N5 C21 1_555 1_555
N6 C28 1_555 1_555
O9 H22 1_555 1_555
H23 O9 1_555 1_555
O10 H24 1_555 1_555
H25 O10 1_555 1_555
C1A C3A 1_555 1_555
C2A C4A 1_555 1_555
C3A C4A 1_555 1_555
C4A C5A 1_555 1_555
C5A C6A 1_555 1_555
C6A H1A 1_555 1_555
C7A C6A 1_555 1_555
H2A C7A 1_555 1_555
C8A C3A 1_555 1_555
H3A C8A 1_555 1_555
C9A C10A 1_555 1_555
C10A H4A 1_555 1_555
C11A C10A 1_555 1_555
H5A C11A 1_555 1_555
C12A C11A 1_555 1_555
C13A C12A 1_555 1_555
H6A C13A 1_555 1_555
C14A C9A 1_555 1_555
H7A C14A 1_555 1_555
C15A C12A 1_555 1_555
C16A H8A 1_555 1_555
C17A H9A 1_555 1_555
C18A C17A 1_555 1_555
H10A C18A 1_555 1_555
C19A C20A 1_555 1_555
C20A H11A 1_555 1_555
C21A C20A 1_555 1_555
C22A C21A 1_555 1_555
H12A C22A 1_555 1_555
C23A C22A 1_555 1_555
C24A C19A 1_555 1_555
H13A C24A 1_555 1_555
C25A H14A 1_555 1_555
C26A H15A 1_555 1_555
C27A C26A 1_555 1_555
H16A C27A 1_555 1_555
C28A H17A 1_555 1_555
C29A H18A 1_555 1_555
C30A C29A 1_555 1_555
H19A C30A 1_555 1_555
O1A C1A 1_555 1_555
O2A C1A 1_555 1_555
O3A C2A 1_555 1_555
O4A C2A 1_555 1_555
O5A C5A 1_555 1_555
O6A C15A 1_555 1_555
O7A C15A 1_555 1_555
O8A H20A 1_555 1_555
H21A O8A 1_555 1_555
Cd1A O1A 1_555 1_555
N1A C16A 1_555 1_555
N2A C16A 1_555 1_555
N3A C23A 1_555 1_555
N4A Cd2 1_555 1_555
N5A C21A 1_555 1_555
N6A C28A 1_555 1_555
O3B Cd1A 1_555 1_555
O3C Cd1 1_555 1_555
O4B Cd1A 1_555 1_555
O4C Cd1 1_555 1_555
O6B Cd2 1_555 1_555
O6C Cd2 1_555 1_555
O7B Cd2 1_555 1_555
O7C Cd2 1_555 1_555
Cd1_2 N6A 1_555 1_555
Cd1A_2 N6 1_555 1_555
Cd1B O3A 1_555 1_555
Cd1C O3 1_555 1_555
Cd2B O6A 1_555 1_555
Cd2B_2 O6 1_555 1_555
N6_2 Cd1A 1_555 1_555
N6A_2 Cd1 1_555 1_555
C7 C8 1_555 1_555
C9 O5 1_555 1_555
C13 C14 1_555 1_555
C17 N1 1_555 1_555
C18 N2 1_555 1_555
C19 N2 1_555 1_555
C23 C24 1_555 1_555
C25 N3 1_555 1_555
C26 N4 1_555 1_555
C27 N3 1_555 1_555
C28 N5 1_555 1_555
C29 N5 1_555 1_555
C30 N6 1_555 1_555
O2 Cd1 1_555 1_555
O4 Cd1C 1_555 1_555
O7 Cd2B_2 1_555 1_555
O8 Cd1 1_555 1_555
Cd1 N1 1_555 1_555
C7A C8A 1_555 1_555
C9A O5A 1_555 1_555
C13A C14A 1_555 1_555
C17A N1A 1_555 1_555
C18A N2A 1_555 1_555
C19A N2A 1_555 1_555
C23A C24A 1_555 1_555
C25A N3A 1_555 1_555
C25A N4A 1_555 1_555
C26A N4A 1_555 1_555
C27A N3A 1_555 1_555
C28A N5A 1_555 1_555
C29A N5A 1_555 1_555
C30A N6A 1_555 1_555
O2A Cd1A 1_555 1_555
O4A Cd1B 1_555 1_555
O7A Cd2B 1_555 1_555
O8A Cd1A 1_555 1_555
Cd1A N1A 1_555 1_555

#END
