
#######################################################################
#
#                 Cambridge Crystallographic Data Centre
#                                CCDC 
#
#######################################################################
#
# If this CIF has been generated from an entry in the Cambridge 
# Structural Database, then it will include bibliographic, chemical, 
# crystal, experimental, refinement or atomic coordinate data resulting 
# from the CCDC's data processing and validation procedures.
#
#######################################################################

data_CIZMAB
_symmetry_cell_setting           orthorhombic
_symmetry_space_group_name_H-M   'P c c n'
_symmetry_Int_Tables_number      56
_space_group_name_Hall           '-P 2ab 2ac'
loop_
_symmetry_equiv_pos_site_id
_symmetry_equiv_pos_as_xyz
1 x,y,z
2 1/2-x,1/2-y,z
3 1/2+x,-y,1/2-z
4 -x,1/2+y,1/2-z
5 -x,-y,-z
6 1/2+x,1/2+y,-z
7 1/2-x,y,1/2+z
8 x,1/2-y,1/2+z
_cell_length_a                   32.5833(8)
_cell_length_b                   10.1910(3)
_cell_length_c                   19.1380(5)
_cell_angle_alpha                90
_cell_angle_beta                 90
_cell_angle_gamma                90
_cell_volume                     6354.9
loop_
_atom_site_label
_atom_site_type_symbol
_atom_site_fract_x
_atom_site_fract_y
_atom_site_fract_z
C1 C 0.57029(16) 0.0715(5) 0.3333(3)
H1 H 0.5437 0.0873 0.3490
C2 C 0.62262(17) -0.0137(6) 0.2815(3)
H2 H 0.6386 -0.0700 0.2546
C3 C 0.63638(17) 0.0931(6) 0.3145(3)
H3 H 0.6632 0.1247 0.3149
C4 C 0.60223(16) 0.2704(5) 0.3841(3)
C5 C 0.57765(16) 0.2861(5) 0.4436(3)
H4 H 0.5616 0.2176 0.4606
C6 C 0.57817(16) 0.4073(5) 0.4758(3)
C7 C 0.60237(16) 0.5096(5) 0.4519(3)
H5 H 0.6021 0.5908 0.4741
C8 C 0.62698(16) 0.4881(5) 0.3939(3)
C9 C 0.62636(17) 0.3695(5) 0.3586(3)
H6 H 0.6420 0.3574 0.3185
C10 C 0.56275(17) 0.5194(5) 0.5869(3)
H7 H 0.5861 0.5719 0.5869
N1 N 0.53422(14) 0.5229(4) 0.6358(2)
C11 C 0.51727(18) 0.3720(6) 0.5558(3)
H8 H 0.5034 0.3062 0.5318
C12 C 0.68341(18) 0.5817(6) 0.3226(3)
H9 H 0.6888 0.5066 0.2965
C13 C 0.6870(2) 0.7741(7) 0.3643(4)
H10 H 0.6955 0.8600 0.3723
C14 C 0.6566(3) 0.7146(7) 0.3981(5)
H11 H 0.6405 0.7503 0.4334
C15 C 0.72046(18) 0.9418(6) 0.1519(4)
C16 C 0.71417(16) 1.0234(5) 0.0879(3)
C17 C 0.7360(2) 0.9907(7) 0.0275(4)
H12 H 0.7534 0.9185 0.0279
C18 C 0.7321(2) 1.0634(8) -0.0321(4)
H13 H 0.7473 1.0417 -0.0716
C19 C 0.7063(2) 1.1667(7) -0.0336(4)
H14 H 0.7039 1.2160 -0.0743
C20 C 0.68382(18) 1.1999(6) 0.0234(3)
H15 H 0.6658 1.2706 0.0214
C21 C 0.68777(16) 1.1282(5) 0.0846(3)
C22 C 0.64501(16) 1.2697(5) 0.1550(3)
C23 C 0.66579(17) 1.3869(6) 0.1517(3)
H16 H 0.6934 1.3885 0.1393
C24 C 0.64563(16) 1.5017(6) 0.1668(3)
H17 H 0.6597 1.5810 0.1636
C25 C 0.60423(15) 1.5016(5) 0.1870(3)
C26 C 0.58374(15) 1.3818(5) 0.1913(3)
C27 C 0.60406(16) 1.2655(5) 0.1754(3)
H18 H 0.5904 1.1856 0.1783
C28 C 0.53938(16) 1.3718(5) 0.2119(3)
C29 C 0.58331(16) 1.6280(5) 0.2047(3)
N2 N 0.58094(13) -0.0281(4) 0.2935(2)
N3 N 0.60285(13) 0.1474(4) 0.3481(2)
N4 N 0.55394(13) 0.4304(4) 0.5370(2)
C30 C 0.50566(18) 0.4305(6) 0.6165(3)
H19 H 0.4819 0.4108 0.6413
N5 N 0.65368(14) 0.5907(4) 0.3711(2)
N6 N 0.70381(14) 0.6925(5) 0.3167(2)
O1 O 0.70920(17) 0.8231(5) 0.1493(3)
O2 O 0.73898(17) 0.9841(5) 0.2027(3)
O3 O 0.66387(13) 1.1496(4) 0.1438(2)
O4 O 0.53059(12) 1.3097(4) 0.2664(2)
O5 O 0.51272(12) 1.4216(5) 0.1739(2)
O6 O 0.55777(16) 1.6321(4) 0.2526(3)
O7 O 0.59158(16) 1.7282(4) 0.1710(3)
Cd1 Cd 0.537542(11) -0.15372(3) 0.23282(2)
Cd2 Cd 0.7500 0.7500 0.23735(3)
C1A C 0.92971(16) 1.4285(5) 0.3333(3)
H1A H 0.9563 1.4127 0.3490
C2A C 0.87738(17) 1.5137(6) 0.2815(3)
H2A H 0.8614 1.5700 0.2546
C3A C 0.86362(17) 1.4069(6) 0.3145(3)
H3A H 0.8368 1.3753 0.3149
C4A C 0.89777(16) 1.2296(5) 0.3841(3)
C5A C 0.92235(16) 1.2139(5) 0.4436(3)
H4A H 0.9384 1.2824 0.4606
C6A C 0.92183(16) 1.0927(5) 0.4758(3)
C7A C 0.89763(16) 0.9904(5) 0.4519(3)
H5A H 0.8979 0.9092 0.4741
C8A C 0.87302(16) 1.0119(5) 0.3939(3)
C9A C 0.87364(17) 1.1305(5) 0.3586(3)
H6A H 0.8580 1.1426 0.3185
C10A C 0.93725(17) 0.9806(5) 0.5869(3)
H7A H 0.9139 0.9281 0.5869
N1A N 0.96578(14) 0.9771(4) 0.6358(2)
C11A C 0.98273(18) 1.1280(6) 0.5558(3)
H8A H 0.9966 1.1938 0.5318
C12A C 0.81659(18) 0.9183(6) 0.3226(3)
H9A H 0.8112 0.9934 0.2965
C13A C 0.8130(2) 0.7259(7) 0.3643(4)
H10A H 0.8045 0.6400 0.3723
C14A C 0.8434(3) 0.7854(7) 0.3981(5)
H11A H 0.8595 0.7497 0.4334
C15A C 0.77954(18) 0.5582(6) 0.1519(4)
C16A C 0.78583(16) 0.4766(5) 0.0879(3)
C17A C 0.7640(2) 0.5093(7) 0.0275(4)
H12A H 0.7466 0.5815 0.0279
C18A C 0.7679(2) 0.4366(8) -0.0321(4)
H13A H 0.7527 0.4583 -0.0716
C19A C 0.7937(2) 0.3333(7) -0.0336(4)
H14A H 0.7961 0.2840 -0.0743
C20A C 0.81618(18) 0.3001(6) 0.0234(3)
H15A H 0.8342 0.2294 0.0214
C21A C 0.81223(16) 0.3718(5) 0.0846(3)
C22A C 0.85499(16) 0.2303(5) 0.1550(3)
C23A C 0.83421(17) 0.1131(6) 0.1517(3)
H16A H 0.8066 0.1115 0.1393
C24A C 0.85437(16) -0.0017(6) 0.1668(3)
H17A H 0.8403 -0.0810 0.1636
C25A C 0.89577(15) -0.0016(5) 0.1870(3)
C26A C 0.91626(15) 0.1182(5) 0.1913(3)
C27A C 0.89594(16) 0.2345(5) 0.1754(3)
H18A H 0.9096 0.3144 0.1783
C28A C 0.96062(16) 0.1282(5) 0.2119(3)
C29A C 0.91669(16) -0.1280(5) 0.2047(3)
N2A N 0.91906(13) 1.5281(4) 0.2935(2)
N3A N 0.89715(13) 1.3526(4) 0.3481(2)
N4A N 0.94606(13) 1.0696(4) 0.5370(2)
C30A C 0.99434(18) 1.0695(6) 0.6165(3)
H19A H 1.0181 1.0892 0.6413
N5A N 0.84632(14) 0.9093(4) 0.3711(2)
N6A N 0.79619(14) 0.8075(5) 0.3167(2)
O1A O 0.79080(17) 0.6769(5) 0.1493(3)
O2A O 0.76102(17) 0.5159(5) 0.2027(3)
O3A O 0.83613(13) 0.3504(4) 0.1438(2)
O4A O 0.96941(12) 0.1903(4) 0.2664(2)
O5A O 0.98728(12) 0.0784(5) 0.1739(2)
O6A O 0.94223(16) -0.1321(4) 0.2526(3)
O7A O 0.90842(16) -0.2282(4) 0.1710(3)
Cd1A Cd 0.962458(11) 1.65372(3) 0.23282(2)
N1F N 0.96578(14) 1.5229(4) 0.1358(2)
N1G N 0.53422(14) -0.0229(4) 0.1358(2)
O4B O 1.03059(12) 1.6903(4) 0.2336(2)
O4C O 0.46941(12) -0.1903(4) 0.2336(2)
O5B O 1.01272(12) 1.5784(5) 0.3261(2)
O5C O 0.48728(12) -0.0784(5) 0.3261(2)
O6_2 O 0.55777(16) -0.3679(4) 0.2526(3)
O6A_2 O 0.94223(16) 1.8679(4) 0.2526(3)
O7_2 O 0.59158(16) -0.2718(4) 0.1710(3)
O7A_2 O 0.90842(16) 1.7718(4) 0.1710(3)
Cd1_2 Cd 0.537542(11) 1.84628(3) 0.23282(2)
Cd1A_2 Cd 0.962458(11) -0.34628(3) 0.23282(2)
Cd1B Cd 1.037542(11) 0.15372(3) 0.26718(2)
Cd1C Cd 0.462458(11) 1.34628(3) 0.26718(2)
Cd1F Cd 0.962458(11) 0.84628(3) 0.73282(2)
Cd1G Cd 0.537542(11) 0.65372(3) 0.73282(2)
O8 O 0.64227(19) 1.7603(7) 0.0618(3)
H20 H 0.6212 1.7180 0.0404
H21 H 0.6639 1.7104 0.0624
O9 O 0.5273(4) 1.5199(18) 0.0443(6)
H22 H 0.5301 1.5974 0.0596
H23 H 0.5497 1.4810 0.0383
O10 O 0.6250(7) 1.5139(14) -0.0098(7)
O11 O 0.7500 1.2500 0.2765(5)
H24? H 0.7552 1.3230 0.3133
H25? H 0.7412 1.2773 0.2324
loop_
_geom_bond_atom_site_label_1
_geom_bond_atom_site_label_2
_geom_bond_site_symmetry_1
_geom_bond_site_symmetry_2
C1 H1 1_555 1_555
C2 H2 1_555 1_555
C3 C2 1_555 1_555
H3 C3 1_555 1_555
C4 C5 1_555 1_555
C5 H4 1_555 1_555
C6 C5 1_555 1_555
C7 C6 1_555 1_555
H5 C7 1_555 1_555
C8 C7 1_555 1_555
C9 C4 1_555 1_555
H6 C9 1_555 1_555
C10 H7 1_555 1_555
N1 C10 1_555 1_555
C11 H8 1_555 1_555
C12 H9 1_555 1_555
C13 H10 1_555 1_555
C14 C13 1_555 1_555
H11 C14 1_555 1_555
C15 C16 1_555 1_555
C16 C17 1_555 1_555
C17 H12 1_555 1_555
C18 C17 1_555 1_555
H13 C18 1_555 1_555
C19 C18 1_555 1_555
H14 C19 1_555 1_555
C20 C19 1_555 1_555
H15 C20 1_555 1_555
C21 C16 1_555 1_555
C22 C23 1_555 1_555
C23 H16 1_555 1_555
C24 C23 1_555 1_555
H17 C24 1_555 1_555
C25 C24 1_555 1_555
C26 C25 1_555 1_555
C27 C22 1_555 1_555
H18 C27 1_555 1_555
C28 C26 1_555 1_555
C29 C25 1_555 1_555
N2 C1 1_555 1_555
N3 C1 1_555 1_555
N4 C6 1_555 1_555
C30 N1 1_555 1_555
H19 C30 1_555 1_555
N5 C8 1_555 1_555
N6 C12 1_555 1_555
O1 C15 1_555 1_555
O2 C15 1_555 1_555
O3 C21 1_555 1_555
O4 C28 1_555 1_555
O5 C28 1_555 1_555
O6 C29 1_555 1_555
O7 C29 1_555 1_555
Cd1 N2 1_555 1_555
Cd2 N6 1_555 1_555
O8 H20 1_555 1_555
H21 O8 1_555 1_555
O9 H22 1_555 1_555
H23 O9 1_555 1_555
C1A H1A 1_555 1_555
C2A H2A 1_555 1_555
C3A C2A 1_555 1_555
H3A C3A 1_555 1_555
C4A C5A 1_555 1_555
C5A H4A 1_555 1_555
C6A C5A 1_555 1_555
C7A C6A 1_555 1_555
H5A C7A 1_555 1_555
C8A C7A 1_555 1_555
C9A C4A 1_555 1_555
H6A C9A 1_555 1_555
C10A H7A 1_555 1_555
N1A C10A 1_555 1_555
C11A H8A 1_555 1_555
C12A H9A 1_555 1_555
C13A H10A 1_555 1_555
C14A C13A 1_555 1_555
H11A C14A 1_555 1_555
C15A C16A 1_555 1_555
C16A C17A 1_555 1_555
C17A H12A 1_555 1_555
C18A C17A 1_555 1_555
H13A C18A 1_555 1_555
C19A C18A 1_555 1_555
H14A C19A 1_555 1_555
C20A C19A 1_555 1_555
H15A C20A 1_555 1_555
C21A C16A 1_555 1_555
C22A C23A 1_555 1_555
C23A H16A 1_555 1_555
C24A C23A 1_555 1_555
H17A C24A 1_555 1_555
C25A C24A 1_555 1_555
C26A C25A 1_555 1_555
C27A C22A 1_555 1_555
H18A C27A 1_555 1_555
C28A C26A 1_555 1_555
C29A C25A 1_555 1_555
N2A C1A 1_555 1_555
N3A C1A 1_555 1_555
N4A C6A 1_555 1_555
C30A N1A 1_555 1_555
H19A C30A 1_555 1_555
N5A C8A 1_555 1_555
N6A Cd2 1_555 1_555
O1A Cd2 1_555 1_555
O2A Cd2 1_555 1_555
O3A C21A 1_555 1_555
O4A C28A 1_555 1_555
O5A C28A 1_555 1_555
O6A C29A 1_555 1_555
O7A C29A 1_555 1_555
Cd1A N2A 1_555 1_555
N1F Cd1A 1_555 1_555
N1G Cd1 1_555 1_555
O4B Cd1A 1_555 1_555
O4C Cd1 1_555 1_555
O5B Cd1A 1_555 1_555
O5C Cd1 1_555 1_555
O6_2 Cd1 1_555 1_555
O6A_2 Cd1A 1_555 1_555
O7_2 Cd1 1_555 1_555
O7A_2 Cd1A 1_555 1_555
Cd1_2 O6 1_555 1_555
Cd1A_2 O6A 1_555 1_555
Cd1B O4A 1_555 1_555
Cd1C O4 1_555 1_555
Cd1F N1A 1_555 1_555
Cd1G N1 1_555 1_555
C2 N2 1_555 1_555
C3 N3 1_555 1_555
C4 N3 1_555 1_555
C8 C9 1_555 1_555
C10 N4 1_555 1_555
C11 N4 1_555 1_555
C11 C30 1_555 1_555
C12 N5 1_555 1_555
C13 N6 1_555 1_555
C14 N5 1_555 1_555
C20 C21 1_555 1_555
C22 O3 1_555 1_555
C26 C27 1_555 1_555
O1 Cd2 1_555 1_555
O2 Cd2 1_555 1_555
O5 Cd1C 1_555 1_555
O7 Cd1_2 1_555 1_555
C2A N2A 1_555 1_555
C3A N3A 1_555 1_555
C4A N3A 1_555 1_555
C8A C9A 1_555 1_555
C10A N4A 1_555 1_555
C11A N4A 1_555 1_555
C11A C30A 1_555 1_555
C12A N5A 1_555 1_555
C12A N6A 1_555 1_555
C13A N6A 1_555 1_555
C14A N5A 1_555 1_555
C15A O1A 1_555 1_555
C15A O2A 1_555 1_555
C20A C21A 1_555 1_555
C22A O3A 1_555 1_555
C26A C27A 1_555 1_555
O5A Cd1B 1_555 1_555
O7A Cd1A_2 1_555 1_555

#END
