
#######################################################################
#
#                 Cambridge Crystallographic Data Centre
#                                CCDC 
#
#######################################################################
#
# If this CIF has been generated from an entry in the Cambridge 
# Structural Database, then it will include bibliographic, chemical, 
# crystal, experimental, refinement or atomic coordinate data resulting 
# from the CCDC's data processing and validation procedures.
#
#######################################################################

data_CIZMEF
_symmetry_cell_setting           orthorhombic
_symmetry_space_group_name_H-M   'P b c a'
_symmetry_Int_Tables_number      61
_space_group_name_Hall           '-P 2ac 2ab'
loop_
_symmetry_equiv_pos_site_id
_symmetry_equiv_pos_as_xyz
1 x,y,z
2 1/2-x,-y,1/2+z
3 1/2+x,1/2-y,-z
4 -x,1/2+y,1/2-z
5 -x,-y,-z
6 1/2+x,y,1/2-z
7 1/2-x,1/2+y,z
8 x,1/2-y,1/2+z
_cell_length_a                   19.9674(5)
_cell_length_b                   18.9868(5)
_cell_length_c                   30.7298(11)
_cell_angle_alpha                90
_cell_angle_beta                 90
_cell_angle_gamma                90
_cell_volume                     11650.2
loop_
_atom_site_label
_atom_site_type_symbol
_atom_site_fract_x
_atom_site_fract_y
_atom_site_fract_z
C1 C 0.6625(3) 1.1666(3) 0.2025(2)
C2 C 0.7831(3) 1.1653(3) 0.1457(2)
C3 C 0.6608(3) 1.1371(3) 0.1573(2)
C4 C 0.7186(3) 1.1327(3) 0.1308(2)
C5 C 0.7150(3) 1.1018(3) 0.0904(2)
H1 H 0.7531 1.1001 0.0731
C6 C 0.6559(4) 1.0731(4) 0.0750(3)
H2 H 0.6543 1.0520 0.0477
C7 C 0.5991(4) 1.0763(3) 0.1008(3)
H3 H 0.5588 1.0580 0.0906
C8 C 0.6022(3) 1.1070(3) 0.1420(3)
C9 C 0.5056(3) 1.0572(3) 0.1784(2)
C10 C 0.5207(3) 0.9872(3) 0.1680(3)
H4 H 0.5596 0.9756 0.1530
C11 C 0.4762(3) 0.9364(3) 0.1806(2)
H5 H 0.4851 0.8898 0.1734
C12 C 0.4183(3) 0.9516(3) 0.2039(2)
C13 C 0.4054(3) 1.0215(3) 0.2141(2)
H6 H 0.3672 1.0330 0.2298
C14 C 0.4484(3) 1.0739(3) 0.2012(2)
H7 H 0.4390 1.1206 0.2078
C15 C 0.3697(3) 0.8938(4) 0.2167(2)
C16 C 0.8636(4) 2.1948(4) 0.5796(3)
C17 C 0.7898(4) 2.1476(4) 0.5007(3)
C18 C 0.8992(3) 2.1805(4) 0.5379(2)
C19 C 0.8644(3) 2.1567(3) 0.5013(2)
C20 C 0.9014(3) 2.1435(3) 0.4635(2)
C21 C 0.9684(4) 2.1585(4) 0.4604(3)
H8 H 0.9910 2.1521 0.4343
C22 C 1.0016(3) 2.1830(4) 0.4962(3)
H9 H 1.0470 2.1934 0.4944
C23 C 0.9679(3) 2.1923(4) 0.5348(3)
H10 H 0.9915 2.2068 0.5593
C24 C 0.8646(4) 2.0408(3) 0.4266(2)
C25 C 0.8360(3) 2.0112(4) 0.3907(2)
H11 H 0.8213 2.0395 0.3679
C26 C 0.8289(3) 1.9391(4) 0.3883(2)
H12 H 0.8100 1.9193 0.3635
C27 C 0.8491(3) 1.8957(4) 0.4218(2)
C28 C 0.8808(5) 1.9262(4) 0.4564(3)
H13 H 0.8970 1.8978 0.4788
C29 C 0.8895(4) 1.9997(4) 0.4590(3)
H14 H 0.9119 2.0198 0.4824
C30 C 0.8386(3) 1.8166(4) 0.4209(3)
C31 C 0.5931(3) 0.8641(3) 0.2391(2)
H15 H 0.6118 0.9084 0.2345
C32 C 0.5724(3) 0.7533(3) 0.2345(2)
H16 H 0.5747 0.7065 0.2257
C33 C 0.5300(3) 0.7786(3) 0.2647(2)
H17 H 0.4983 0.7531 0.2803
C34 C 0.5069(3) 0.9018(3) 0.2915(2)
C35 C 0.5347(3) 0.9677(3) 0.2979(2)
H18 H 0.5788 0.9770 0.2900
C36 C 0.4948(3) 1.0196(3) 0.3166(2)
C37 C 0.4304(3) 1.0068(3) 0.3302(2)
H19 H 0.4046 1.0422 0.3426
C38 C 0.4051(3) 0.9394(3) 0.3249(2)
C39 C 0.4418(3) 0.8866(3) 0.3058(2)
H20 H 0.4238 0.8417 0.3024
C40 C 0.2987(3) 0.8718(3) 0.3258(2)
H21 H 0.3145 0.8340 0.3095
C41 C 0.2378(5) 0.9364(5) 0.3634(4)
H22 H 0.2008 0.9536 0.3784
C42 C 0.2977(5) 0.9672(5) 0.3629(4)
H23 H 0.3100 1.0084 0.3771
C43 C 0.5691(3) 1.1165(3) 0.2937(2)
H24 H 0.5865 1.0935 0.2694
C44 C 0.5103(3) 1.1394(3) 0.3522(2)
H25 H 0.4804 1.1355 0.3752
C45 C 0.5494(4) 1.1951(3) 0.3431(3)
H26 H 0.5512 1.2366 0.3592
C46 C 0.7769(3) 1.2961(3) 0.3135(2)
H27 H 0.7639 1.3425 0.3087
C47 C 0.7800(3) 1.1834(4) 0.3115(2)
H28 H 0.7696 1.1370 0.3046
C48 C 0.8309(3) 1.2041(3) 0.3379(2)
H29 H 0.8609 1.1750 0.3525
C49 C 0.8705(3) 1.3228(3) 0.3636(2)
C50 C 0.9308(3) 1.2993(3) 0.3806(2)
H30 H 0.9455 1.2535 0.3757
C51 C 0.9688(3) 1.3460(3) 0.4050(2)
C52 C 0.9504(3) 1.4152(3) 0.4119(2)
H31 H 0.9776 1.4459 0.4275
C53 C 0.8902(3) 1.4370(3) 0.3947(2)
C54 C 0.8496(3) 1.3925(3) 0.3709(2)
H32 H 0.8090 1.4084 0.3599
C55 C 0.8793(3) 1.5476(3) 0.4362(2)
H33 H 0.9014 1.5318 0.4610
C56 C 0.8336(3) 1.5484(3) 0.3711(2)
H34 H 0.8186 1.5345 0.3438
C57 C 0.8250(3) 1.6118(3) 0.3902(2)
H35 H 0.8033 1.6500 0.3775
C58 C 1.0520(3) 1.3379(3) 0.4639(2)
H36 H 1.0258 1.3611 0.4844
C59 C 1.1333(3) 1.2838(4) 0.4324(2)
H37 H 1.1751 1.2636 0.4275
C60 C 1.0836(3) 1.2873(3) 0.4032(2)
H38 H 1.0838 1.2689 0.3751
O1 O 0.6871(2) 1.1302(2) 0.23232(15)
O2 O 0.6359(2) 1.2264(2) 0.20952(15)
O3 O 0.7778(2) 1.2169(2) 0.17166(16)
O4 O 0.8369(2) 1.1399(2) 0.13280(18)
O5 O 0.5456(2) 1.1148(2) 0.16809(17)
O6 O 0.3126(2) 0.9090(2) 0.22905(17)
O7 O 0.3927(2) 0.8312(2) 0.21284(16)
O8 O 0.7589(2) 2.1987(3) 0.48235(18)
O9 O 0.7639(3) 2.0933(3) 0.5138(2)
O10 O 0.8054(3) 2.2158(3) 0.57920(18)
O11 O 0.8953(2) 2.1842(3) 0.61530(17)
O12 O 0.8680(2) 2.1138(2) 0.42742(16)
O13 O 0.8620(3) 1.7838(2) 0.45310(19)
O14 O 0.8088(3) 1.7903(3) 0.3898(2)
Zn1 Zn 0.66796(3) 0.80003(4) 0.16274(3)
Zn2 Zn 0.65247(3) 1.24293(4) 0.27390(3)
Zn3 Zn 0.83644(4) 1.69091(4) 0.47249(3)
N1 N 0.6118(2) 0.8068(3) 0.21851(17)
N2 N 0.5431(2) 0.8508(2) 0.26792(17)
N3 N 0.5229(2) 1.0888(3) 0.32071(17)
N4 N 0.5865(2) 1.1808(2) 0.30610(18)
N5 N 0.3367(2) 0.9263(3) 0.33740(19)
N6 N 0.2378(3) 0.8769(3) 0.3395(2)
N7 N 0.7465(2) 1.2413(3) 0.29641(18)
N8 N 0.8294(2) 1.2773(2) 0.33889(17)
N9 N 0.8693(3) 1.5083(3) 0.40064(18)
N10 N 0.8537(3) 1.6120(3) 0.43190(18)
N11 N 1.0322(2) 1.3236(3) 0.42287(18)
N12 N 1.1131(3) 1.3149(3) 0.47119(18)
O3F O 0.7222(2) 0.7169(2) 0.17166(16)
O7C O 0.6073(2) 1.3312(2) 0.28716(16)
O8F O 0.7411(2) 1.6987(3) 0.48235(18)
O11A O 0.6047(2) 0.8158(3) 0.11530(17)
Zn1A Zn 0.83204(3) 2.19997(4) 0.66274(3)
Zn1E Zn 0.16796(3) 0.80003(4) 0.33726(3)
Zn1F Zn 0.83204(3) 1.30003(4) 0.16274(3)
Zn2C Zn 0.34753(3) 0.74293(4) 0.22610(3)
Zn3D Zn 1.16356(4) 1.30909(4) 0.52751(3)
Zn3F Zn 0.66356(4) 2.19091(4) 0.47249(3)
N6E N 0.7378(3) 0.8769(3) 0.1605(2)
N12D N 0.8869(3) 1.6851(3) 0.52881(18)
O15 O 0.6994(2) 0.9947(3) 0.26832(18)
H39 H 0.7343 1.0198 0.2729
H40 H 0.6880 1.0014 0.2418
O16 O 0.8272(4) 2.3299(4) 0.4820(3)
H41 H 0.7922 2.3324 0.5051
H42 H 0.8114 2.2947 0.4684
O17 O 0.4092(4) 1.1372(5) 0.4469(3)
O18 O 1.0585(7) 1.5092(8) 0.4658(5)
H43 H 1.0435 1.5470 0.4549
H44 H 1.1015 1.5091 0.4658
O19 O 0.7854(8) 2.4634(9) 0.4910(6)
loop_
_geom_bond_atom_site_label_1
_geom_bond_atom_site_label_2
_geom_bond_site_symmetry_1
_geom_bond_site_symmetry_2
C1 C3 1_555 1_555
C2 C4 1_555 1_555
C3 C4 1_555 1_555
C4 C5 1_555 1_555
C5 H1 1_555 1_555
C6 C5 1_555 1_555
H2 C6 1_555 1_555
C7 C6 1_555 1_555
H3 C7 1_555 1_555
C8 C3 1_555 1_555
C9 C10 1_555 1_555
C10 H4 1_555 1_555
C11 C10 1_555 1_555
H5 C11 1_555 1_555
C12 C11 1_555 1_555
C13 C12 1_555 1_555
H6 C13 1_555 1_555
C14 C9 1_555 1_555
H7 C14 1_555 1_555
C15 C12 1_555 1_555
C16 C18 1_555 1_555
C17 C19 1_555 1_555
C18 C19 1_555 1_555
C19 C20 1_555 1_555
C20 C21 1_555 1_555
C21 H8 1_555 1_555
C22 C21 1_555 1_555
H9 C22 1_555 1_555
C23 C18 1_555 1_555
H10 C23 1_555 1_555
C24 C25 1_555 1_555
C25 H11 1_555 1_555
C26 C25 1_555 1_555
H12 C26 1_555 1_555
C27 C26 1_555 1_555
C28 C27 1_555 1_555
H13 C28 1_555 1_555
C29 C24 1_555 1_555
H14 C29 1_555 1_555
C30 C27 1_555 1_555
C31 H15 1_555 1_555
C32 H16 1_555 1_555
C33 C32 1_555 1_555
H17 C33 1_555 1_555
C34 C35 1_555 1_555
C35 H18 1_555 1_555
C36 C35 1_555 1_555
C37 C36 1_555 1_555
H19 C37 1_555 1_555
C38 C37 1_555 1_555
C39 C34 1_555 1_555
H20 C39 1_555 1_555
C40 H21 1_555 1_555
C41 H22 1_555 1_555
C42 C41 1_555 1_555
H23 C42 1_555 1_555
C43 H24 1_555 1_555
C44 H25 1_555 1_555
C45 C44 1_555 1_555
H26 C45 1_555 1_555
C46 H27 1_555 1_555
C47 H28 1_555 1_555
C48 C47 1_555 1_555
H29 C48 1_555 1_555
C49 C50 1_555 1_555
C50 H30 1_555 1_555
C51 C50 1_555 1_555
C52 C51 1_555 1_555
H31 C52 1_555 1_555
C53 C52 1_555 1_555
C54 C49 1_555 1_555
H32 C54 1_555 1_555
C55 H33 1_555 1_555
C56 H34 1_555 1_555
C57 C56 1_555 1_555
H35 C57 1_555 1_555
C58 H36 1_555 1_555
C59 H37 1_555 1_555
C60 C59 1_555 1_555
H38 C60 1_555 1_555
O1 C1 1_555 1_555
O2 C1 1_555 1_555
O3 C2 1_555 1_555
O4 C2 1_555 1_555
O5 C8 1_555 1_555
O6 C15 1_555 1_555
O7 C15 1_555 1_555
O8 C17 1_555 1_555
O9 C17 1_555 1_555
O10 C16 1_555 1_555
O11 C16 1_555 1_555
O12 C20 1_555 1_555
O13 C30 1_555 1_555
O14 C30 1_555 1_555
Zn1 N1 1_555 1_555
Zn2 O2 1_555 1_555
Zn3 O13 1_555 1_555
N1 C31 1_555 1_555
N2 C31 1_555 1_555
N3 C36 1_555 1_555
N4 C43 1_555 1_555
N5 C38 1_555 1_555
N6 C40 1_555 1_555
N7 C46 1_555 1_555
N8 C46 1_555 1_555
N9 C53 1_555 1_555
N10 C55 1_555 1_555
N11 C51 1_555 1_555
N12 C58 1_555 1_555
O15 H39 1_555 1_555
H40 O15 1_555 1_555
O16 H41 1_555 1_555
H42 O16 1_555 1_555
O18 H43 1_555 1_555
H44 O18 1_555 1_555
O3F Zn1 1_555 1_555
O7C Zn2 1_555 1_555
O8F Zn3 1_555 1_555
O11A Zn1 1_555 1_555
Zn1A O11 1_555 1_555
Zn1E N6 1_555 1_555
Zn1F O3 1_555 1_555
Zn2C O7 1_555 1_555
Zn3D N12 1_555 1_555
Zn3F O8 1_555 1_555
N6E Zn1 1_555 1_555
N12D Zn3 1_555 1_555
C7 C8 1_555 1_555
C9 O5 1_555 1_555
C13 C14 1_555 1_555
C22 C23 1_555 1_555
C24 O12 1_555 1_555
C28 C29 1_555 1_555
C32 N1 1_555 1_555
C33 N2 1_555 1_555
C34 N2 1_555 1_555
C38 C39 1_555 1_555
C40 N5 1_555 1_555
C41 N6 1_555 1_555
C42 N5 1_555 1_555
C43 N3 1_555 1_555
C44 N3 1_555 1_555
C45 N4 1_555 1_555
C47 N7 1_555 1_555
C48 N8 1_555 1_555
C49 N8 1_555 1_555
C53 C54 1_555 1_555
C55 N9 1_555 1_555
C56 N9 1_555 1_555
C57 N10 1_555 1_555
C58 N11 1_555 1_555
C59 N12 1_555 1_555
C60 N11 1_555 1_555
Zn2 N4 1_555 1_555
Zn2 N7 1_555 1_555
Zn3 N10 1_555 1_555

#END
