
#######################################################################
#
#                 Cambridge Crystallographic Data Centre
#                                CCDC 
#
#######################################################################
#
# If this CIF has been generated from an entry in the Cambridge 
# Structural Database, then it will include bibliographic, chemical, 
# crystal, experimental, refinement or atomic coordinate data resulting 
# from the CCDC's data processing and validation procedures.
#
#######################################################################

data_CIZNOQ
_symmetry_cell_setting           monoclinic
_symmetry_space_group_name_H-M   'C 2/c'
_symmetry_Int_Tables_number      15
_space_group_name_Hall           '-C 2yn'
loop_
_symmetry_equiv_pos_site_id
_symmetry_equiv_pos_as_xyz
1 x,y,z
2 -x,y,1/2-z
3 1/2+x,1/2+y,z
4 1/2-x,1/2+y,1/2-z
5 -x,-y,-z
6 x,-y,1/2+z
7 1/2-x,1/2-y,-z
8 1/2+x,1/2-y,1/2+z
_cell_length_a                   14.978(5)
_cell_length_b                   29.229(5)
_cell_length_c                   25.515(5)
_cell_angle_alpha                90
_cell_angle_beta                 95.961(5)
_cell_angle_gamma                90
_cell_volume                     11109.9
loop_
_atom_site_label
_atom_site_type_symbol
_atom_site_fract_x
_atom_site_fract_y
_atom_site_fract_z
Ag1 Ag 0.95792(14) 0.19770(7) -0.01981(8)
Ag2 Ag 1.12082(10) 0.44208(5) 0.21033(6)
C1 C 1.1112(14) 0.2677(7) 0.0216(8)
C2 C 1.1321(13) 0.3131(6) 0.0151(8)
C3 C 1.0627(16) 0.3321(8) -0.0170(8)
C4 C 1.1641(16) 0.2319(8) 0.0545(10)
H1 H 1.1330 0.2032 0.0511
H2 H 1.1706 0.2412 0.0908
H3 H 1.2224 0.2286 0.0424
C5 C 1.0452(17) 0.3798(9) -0.0374(11)
H4 H 0.9893 0.3805 -0.0595
H5 H 1.0929 0.3890 -0.0574
H6 H 1.0421 0.4003 -0.0083
C6 C 1.2158(13) 0.3371(7) 0.0386(10)
H7 H 1.2517 0.3154 0.0604
H8 H 1.2503 0.3461 0.0102
C7 C 1.1520(11) 0.3805(6) 0.1162(7)
C8 C 1.2017(12) 0.3786(6) 0.0713(7)
C9 C 1.2313(13) 0.4220(7) 0.0657(7)
C10 C 1.1023(13) 0.3416(6) 0.1406(8)
H9 H 1.0747 0.3529 0.1704
H10 H 1.1441 0.3178 0.1519
H11 H 1.0570 0.3296 0.1149
C11 C 1.2864(15) 0.4404(7) 0.0246(8)
H12 H 1.2974 0.4724 0.0306
H13 H 1.2545 0.4361 -0.0097
H14 H 1.3426 0.4243 0.0265
C12 C 1.1157(12) 0.4104(6) 0.3257(8)
C13 C 1.1074(13) 0.4256(6) 0.3760(8)
C14 C 1.0784(14) 0.4696(7) 0.3716(9)
C15 C 1.1442(15) 0.3651(7) 0.3081(9)
H15 H 1.1427 0.3649 0.2704
H16 H 1.1042 0.3420 0.3189
H17 H 1.2041 0.3588 0.3236
C16 C 1.0601(17) 0.5052(8) 0.4105(10)
H18 H 1.0403 0.5328 0.3924
H19 H 1.1140 0.5114 0.4333
H20 H 1.0142 0.4946 0.4312
C17 C 1.1342(13) 0.3984(8) 0.4245(8)
H21 H 1.1030 0.3693 0.4218
H22 H 1.1153 0.4145 0.4547
C18 C 1.2755(16) 0.3476(6) 0.4494(8)
C19 C 1.2340(12) 0.3896(6) 0.4337(7)
C20 C 1.3036(13) 0.4201(7) 0.4302(7)
C21 C 1.2305(18) 0.3026(8) 0.4609(11)
H23 H 1.2756 0.2799 0.4703
H24 H 1.1932 0.2928 0.4300
H25 H 1.1943 0.3067 0.4894
C22 C 1.3097(16) 0.4692(7) 0.4181(10)
H26 H 1.3717 0.4778 0.4190
H27 H 1.2817 0.4866 0.4437
H28 H 1.2798 0.4751 0.3836
N1 N 1.0329(13) 0.2582(6) -0.0053(8)
N2 N 1.0045(14) 0.2975(8) -0.0266(9)
H29 H 0.9534 0.3006 -0.0450
N3 N 1.1543(11) 0.4221(6) 0.1367(6)
N4 N 1.2042(12) 0.4465(5) 0.1048(6)
H30 H 1.2168 0.4750 0.1096
N5 N 1.0941(10) 0.4426(5) 0.2891(7)
N6 N 1.0723(10) 0.4792(5) 0.3183(7)
H31 H 1.0566 0.5054 0.3051
N7 N 1.3797(12) 0.3963(6) 0.4422(7)
H32 H 1.4323 0.4080 0.4421
N8 N 1.3647(12) 0.3512(6) 0.4547(7)
Ag1G Ag 1.45792(14) 0.30230(7) 0.48019(8)
N8G N 0.8647(12) 0.1488(6) -0.0453(7)
P1 P 0.8833(2) 0.10756(12) 0.20577(15)
W1 W 0.82841(5) 0.20959(2) 0.26825(3)
W2 W 0.76149(4) 0.07383(2) 0.08562(3)
W3 W 0.99892(4) 0.11141(2) 0.09193(3)
W4 W 0.94883(5) 0.21100(2) 0.14922(3)
W5 W 0.65544(4) 0.07452(2) 0.19673(3)
W6 W 0.71113(4) 0.17446(2) 0.13971(3)
W7 W 0.77924(4) 0.10941(2) 0.32483(3)
W8 W 0.94474(4) 0.00227(2) 0.15169(3)
W9 W 0.83673(4) 0.00154(2) 0.26181(3)
O1 O 0.9496(7) 0.1328(4) 0.1739(4)
O2 O 0.8699(7) 0.1325(4) 0.2577(4)
O3 O 0.9083(7) 0.0576(3) 0.2150(4)
O4 O 0.7906(7) 0.1074(3) 0.1708(4)
O5 O 0.7884(8) -0.0446(4) 0.2880(5)
O6 O 0.7322(7) 0.0244(4) 0.2201(4)
O7 O 1.0018(7) 0.0508(4) 0.1204(5)
O8 O 0.8177(7) 0.0495(4) 0.3091(4)
O9 O 0.8333(7) 0.0244(3) 0.1162(4)
O10 O 0.6229(7) 0.1330(4) 0.1653(5)
O11 O 0.7646(8) 0.1745(4) 0.3143(5)
O12 O 0.8244(8) 0.1950(4) 0.1255(5)
O13 O 0.9063(7) 0.2201(4) 0.2150(5)
O14 O 0.7078(9) 0.1009(5) 0.3713(5)
O15 O 0.9622(8) -0.0425(4) 0.1114(5)
O16 O 0.6672(7) 0.0536(4) 0.1262(4)
O17 O 0.9817(8) 0.1757(4) 0.0909(4)
O18 O 1.0333(8) 0.1045(5) 0.0312(5)
O19 O 1.0662(8) 0.2097(4) 0.1811(5)
O20 O 0.5537(8) 0.0525(4) 0.2063(5)
O21 O 0.8741(8) 0.1011(4) 0.0745(5)
O22 O 0.9526(8) -0.0050(4) 0.2983(4)
O23 O 0.9483(9) 0.2652(4) 0.1233(5)
O24 O 0.7234(8) 0.0495(4) 0.0272(5)
O25 O 0.8756(7) -0.0288(4) 0.2009(4)
O26 O 0.7068(7) 0.1333(4) 0.0808(4)
O27 O 0.7399(7) 0.1956(4) 0.2098(5)
O28 O 0.7876(8) 0.2623(4) 0.2808(6)
O29 O 0.8851(7) 0.1194(4) 0.3692(5)
O30 O 0.6909(7) 0.1009(4) 0.2620(5)
O31 O 0.6384(8) 0.2167(4) 0.1124(5)
P1A P 1.1167(2) 0.10756(12) 0.29423(15)
W1A W 1.17159(5) 0.20959(2) 0.23175(3)
W2A W 1.23851(4) 0.07383(2) 0.41438(3)
W3A W 1.00108(4) 0.11141(2) 0.40807(3)
W4A W 1.05117(5) 0.21100(2) 0.35078(3)
W5A W 1.34456(4) 0.07452(2) 0.30327(3)
W6A W 1.28887(4) 0.17446(2) 0.36029(3)
W7A W 1.22076(4) 0.10941(2) 0.17517(3)
W8A W 1.05526(4) 0.00227(2) 0.34831(3)
W9A W 1.16327(4) 0.00154(2) 0.23819(3)
O1A O 1.0504(7) 0.1328(4) 0.3261(4)
O2A O 1.1301(7) 0.1325(4) 0.2423(4)
O3A O 1.0917(7) 0.0576(3) 0.2850(4)
O4A O 1.2094(7) 0.1074(3) 0.3292(4)
O5A O 1.2116(8) -0.0446(4) 0.2120(5)
O6A O 1.2678(7) 0.0244(4) 0.2799(4)
O7A O 0.9982(7) 0.0508(4) 0.3796(5)
O8A O 1.1823(7) 0.0495(4) 0.1909(4)
O9A O 1.1667(7) 0.0244(3) 0.3838(4)
O10A O 1.3771(7) 0.1330(4) 0.3347(5)
O11A O 1.2354(8) 0.1745(4) 0.1857(5)
O12A O 1.1756(8) 0.1950(4) 0.3745(5)
O13A O 1.0937(7) 0.2201(4) 0.2850(5)
O14A O 1.2922(9) 0.1009(5) 0.1287(5)
O15A O 1.0378(8) -0.0425(4) 0.3886(5)
O16A O 1.3328(7) 0.0536(4) 0.3738(4)
O17A O 1.0183(8) 0.1757(4) 0.4091(4)
O18A O 0.9667(8) 0.1045(5) 0.4688(5)
O19A O 0.9338(8) 0.2097(4) 0.3189(5)
O20A O 1.4463(8) 0.0525(4) 0.2937(5)
O21A O 1.1259(8) 0.1011(4) 0.4255(5)
O22A O 1.0474(8) -0.0050(4) 0.2017(4)
O23A O 1.0517(9) 0.2652(4) 0.3767(5)
O24A O 1.2766(8) 0.0495(4) 0.4728(5)
O25A O 1.1244(7) -0.0288(4) 0.2991(4)
O26A O 1.2932(7) 0.1333(4) 0.4192(4)
O27A O 1.2601(7) 0.1956(4) 0.2902(5)
O28A O 1.2124(8) 0.2623(4) 0.2192(6)
O29A O 1.1149(7) 0.1194(4) 0.1308(5)
O30A O 1.3091(7) 0.1009(4) 0.2380(5)
O31A O 1.3616(8) 0.2167(4) 0.3876(5)
loop_
_geom_bond_atom_site_label_1
_geom_bond_atom_site_label_2
_geom_bond_site_symmetry_1
_geom_bond_site_symmetry_2
P1 O1 1_555 1_555
W1 O2 1_555 1_555
W2 O4 1_555 1_555
W3 O1 1_555 1_555
W4 O1 1_555 1_555
W5 O4 1_555 1_555
W6 O4 1_555 1_555
W7 O2 1_555 1_555
W8 O3 1_555 1_555
W9 O3 1_555 1_555
O2 P1 1_555 1_555
O3 P1 1_555 1_555
O4 P1 1_555 1_555
O5 W9 1_555 1_555
O6 W5 1_555 1_555
O7 W3 1_555 1_555
O8 W7 1_555 1_555
O9 W2 1_555 1_555
O10 W5 1_555 1_555
O11 W1 1_555 1_555
O12 W4 1_555 1_555
O13 W1 1_555 1_555
O14 W7 1_555 1_555
O15 W8 1_555 1_555
O16 W2 1_555 1_555
O17 W3 1_555 1_555
O18 W3 1_555 1_555
O19 W4 1_555 1_555
O20 W5 1_555 1_555
O21 W2 1_555 1_555
O22 W9 1_555 1_555
O23 W4 1_555 1_555
O24 W2 1_555 1_555
O25 W8 1_555 1_555
O26 W2 1_555 1_555
O27 W1 1_555 1_555
O28 W1 1_555 1_555
O29 W7 1_555 1_555
O30 W5 1_555 1_555
O31 W6 1_555 1_555
Ag1 N1 1_555 1_555
Ag2 N3 1_555 1_555
C1 C2 1_555 1_555
C2 C3 1_555 1_555
C3 C5 1_555 1_555
C4 C1 1_555 1_555
H1 C4 1_555 1_555
H2 C4 1_555 1_555
H3 C4 1_555 1_555
C5 H4 1_555 1_555
H5 C5 1_555 1_555
H6 C5 1_555 1_555
C6 C2 1_555 1_555
H7 C6 1_555 1_555
H8 C6 1_555 1_555
C7 C8 1_555 1_555
C8 C6 1_555 1_555
C9 C8 1_555 1_555
C10 C7 1_555 1_555
H9 C10 1_555 1_555
H10 C10 1_555 1_555
H11 C10 1_555 1_555
C11 C9 1_555 1_555
H12 C11 1_555 1_555
H13 C11 1_555 1_555
H14 C11 1_555 1_555
C12 C13 1_555 1_555
C13 C14 1_555 1_555
C14 C16 1_555 1_555
C15 C12 1_555 1_555
H15 C15 1_555 1_555
H16 C15 1_555 1_555
H17 C15 1_555 1_555
C16 H18 1_555 1_555
H19 C16 1_555 1_555
H20 C16 1_555 1_555
C17 C13 1_555 1_555
H21 C17 1_555 1_555
H22 C17 1_555 1_555
C18 C19 1_555 1_555
C19 C17 1_555 1_555
C20 C19 1_555 1_555
C21 C18 1_555 1_555
H23 C21 1_555 1_555
H24 C21 1_555 1_555
H25 C21 1_555 1_555
C22 C20 1_555 1_555
H26 C22 1_555 1_555
H27 C22 1_555 1_555
H28 C22 1_555 1_555
N1 C1 1_555 1_555
N2 C3 1_555 1_555
H29 N2 1_555 1_555
N3 C7 1_555 1_555
N4 C9 1_555 1_555
H30 N4 1_555 1_555
N5 Ag2 1_555 1_555
N6 C14 1_555 1_555
H31 N6 1_555 1_555
N7 C20 1_555 1_555
H32 N7 1_555 1_555
N8 C18 1_555 1_555
P1A O1A 1_555 1_555
W1A O19 1_555 1_555
W2A O4A 1_555 1_555
W3A O29 1_555 1_555
W4A O1A 1_555 1_555
W5A O4A 1_555 1_555
W6A O4A 1_555 1_555
W7A O2A 1_555 1_555
W8A O22 1_555 1_555
W9A O3A 1_555 1_555
O1A W3A 1_555 1_555
O2A P1A 1_555 1_555
O3A P1A 1_555 1_555
O4A P1A 1_555 1_555
O5A W9A 1_555 1_555
O6A W5A 1_555 1_555
O7A W3A 1_555 1_555
O8A W7A 1_555 1_555
O9A W2A 1_555 1_555
O10A W5A 1_555 1_555
O11A W1A 1_555 1_555
O12A W4A 1_555 1_555
O13A W1A 1_555 1_555
O14A W7A 1_555 1_555
O15A W8A 1_555 1_555
O16A W2A 1_555 1_555
O17A W3A 1_555 1_555
O18A W3A 1_555 1_555
O19A W1 1_555 1_555
O20A W5A 1_555 1_555
O21A W2A 1_555 1_555
O22A W8 1_555 1_555
O23A W4A 1_555 1_555
O24A W2A 1_555 1_555
O25A W8A 1_555 1_555
O26A W2A 1_555 1_555
O27A W1A 1_555 1_555
O28A W1A 1_555 1_555
O29A W3 1_555 1_555
O30A W5A 1_555 1_555
O31A W6A 1_555 1_555
Ag1G N8 1_555 1_555
N8G Ag1 1_555 1_555
W3 O21 1_555 1_555
W4 O13 1_555 1_555
W4 O17 1_555 1_555
W5 O16 1_555 1_555
W6 O10 1_555 1_555
W6 O12 1_555 1_555
W6 O26 1_555 1_555
W6 O27 1_555 1_555
W7 O11 1_555 1_555
W7 O30 1_555 1_555
W8 O7 1_555 1_555
W8 O9 1_555 1_555
W9 O6 1_555 1_555
W9 O8 1_555 1_555
W9 O25 1_555 1_555
C12 N5 1_555 1_555
N1 N2 1_555 1_555
N3 N4 1_555 1_555
N5 N6 1_555 1_555
N7 N8 1_555 1_555
W1A O2A 1_555 1_555
W3A O21A 1_555 1_555
W4A O13A 1_555 1_555
W4A O17A 1_555 1_555
W4A O19A 1_555 1_555
W5A O16A 1_555 1_555
W6A O10A 1_555 1_555
W6A O12A 1_555 1_555
W6A O26A 1_555 1_555
W6A O27A 1_555 1_555
W7A O11A 1_555 1_555
W7A O29A 1_555 1_555
W7A O30A 1_555 1_555
W8A O3A 1_555 1_555
W8A O7A 1_555 1_555
W8A O9A 1_555 1_555
W9A O6A 1_555 1_555
W9A O8A 1_555 1_555
W9A O22A 1_555 1_555
W9A O25A 1_555 1_555

#END
