
#######################################################################
#
#                 Cambridge Crystallographic Data Centre
#                                CCDC 
#
#######################################################################
#
# If this CIF has been generated from an entry in the Cambridge 
# Structural Database, then it will include bibliographic, chemical, 
# crystal, experimental, refinement or atomic coordinate data resulting 
# from the CCDC's data processing and validation procedures.
#
#######################################################################

data_CIZNAA
_symmetry_cell_setting           rhombohedral
_symmetry_space_group_name_H-M   'R -3'
_symmetry_Int_Tables_number      148
_space_group_name_Hall           '-P 3*'
loop_
_symmetry_equiv_pos_site_id
_symmetry_equiv_pos_as_xyz
1 x,y,z
2 z,x,y
3 y,z,x
4 -x,-y,-z
5 -z,-x,-y
6 -y,-z,-x
_cell_length_a                   11.80(1)
_cell_length_b                   11.80(1)
_cell_length_c                   11.80(1)
_cell_angle_alpha                60.1(1)
_cell_angle_beta                 60.1(1)
_cell_angle_gamma                60.1(1)
_cell_volume                     1164.43
loop_
_atom_site_label
_atom_site_type_symbol
_atom_site_fract_x
_atom_site_fract_y
_atom_site_fract_z
Sb1 Sb 0.23335(7) 0.23335(7) 0.23335(7)
S1 S 0.5259(2) 0.0520(3) 0.2829(2)
Cl1 Cl 0.3685(3) 0.1613(3) 0.0312(3)
C1 C 0.5373(8) 0.0425(8) 0.4279(9)
N1 N 0.6095(8) 0.1019(8) 0.4297(8)
C2 C 0.6883(10) 0.1930(10) 0.3072(10)
C3 C 0.8371(11) 0.1052(11) 0.2456(11)
C4 C 0.6869(14) 0.2988(13) 0.3497(14)
S1A S 0.2829(2) 0.5259(2) 0.0520(3)
S1B S 0.0520(3) 0.2829(2) 0.5259(2)
Cl1A Cl 0.0312(3) 0.3685(3) 0.1613(3)
Cl1B Cl 0.1613(3) 0.0312(3) 0.3685(3)
C1C C 0.4627(8) -0.0425(8) 0.5721(9)
C1A C 0.4279(9) 0.5373(8) 0.0425(8)
C1B C 0.0425(8) 0.4279(9) 0.5373(8)
S1C S 0.4741(2) -0.0520(3) 0.7171(2)
N1C N 0.3905(8) -0.1019(8) 0.5703(8)
C1D C 0.5721(9) 0.4627(8) -0.0425(8)
N1A N 0.4297(8) 0.6095(8) 0.1019(8)
C1E C -0.0425(8) 0.5721(9) 0.4627(8)
N1B N 0.1019(8) 0.4297(8) 0.6095(8)
Sb1C Sb 0.76665(7) -0.23335(7) 0.76665(7)
C2C C 0.3117(10) -0.1930(10) 0.6928(10)
S1D S 0.7171(2) 0.4741(2) -0.0520(3)
N1D N 0.5703(8) 0.3905(8) -0.1019(8)
C2A C 0.3072(10) 0.6883(10) 0.1930(10)
S1E S -0.0520(3) 0.7171(2) 0.4741(2)
N1E N -0.1019(8) 0.5703(8) 0.3905(8)
C2B C 0.1930(10) 0.3072(10) 0.6883(10)
S1D_2 S 0.7171(2) -0.5259(2) 0.9480(3)
S1E_2 S 0.9480(3) -0.2829(2) 0.4741(2)
Cl1C Cl 0.6315(3) -0.1613(3) 0.9688(3)
Cl1D Cl 0.9688(3) -0.3685(3) 0.8387(3)
Cl1E Cl 0.8387(3) -0.0312(3) 0.6315(3)
C3C C 0.1629(11) -0.1052(11) 0.7544(11)
C4C C 0.3131(14) -0.2988(13) 0.6503(14)
Sb1C_2 Sb 0.76665(7) 0.76665(7) -0.23335(7)
C2D C 0.6928(10) 0.3117(10) -0.1930(10)
C3A C 0.2456(11) 0.8371(11) 0.1052(11)
C4A C 0.3497(14) 0.6869(14) 0.2988(13)
Sb1C_3 Sb -0.23335(7) 0.76665(7) 0.76665(7)
C2E C -0.1930(10) 0.6928(10) 0.3117(10)
C3B C 0.1052(11) 0.2456(11) 0.8371(11)
C4B C 0.2988(13) 0.3497(14) 0.6869(14)
C3D C 0.7544(11) 0.1629(11) -0.1052(11)
C4D C 0.6503(14) 0.3131(14) -0.2988(13)
C3E C -0.1052(11) 0.7544(11) 0.1629(11)
C4E C -0.2988(13) 0.6503(14) 0.3131(14)
loop_
_geom_bond_atom_site_label_1
_geom_bond_atom_site_label_2
_geom_bond_site_symmetry_1
_geom_bond_site_symmetry_2
Sb1 S1 1_555 1_555
S1 C1 1_555 1_555
Cl1 Sb1 1_555 1_555
C1 N1 1_555 1_555
N1 C2 1_555 1_555
C2 C3 1_555 1_555
C4 C2 1_555 1_555
S1A Sb1 1_555 1_555
S1B Sb1 1_555 1_555
Cl1A Sb1 1_555 1_555
Cl1B Sb1 1_555 1_555
C1C C1 1_555 1_555
C1A S1A 1_555 1_555
C1B S1B 1_555 1_555
S1C C1C 1_555 1_555
N1C C1C 1_555 1_555
C1D C1A 1_555 1_555
N1A C1A 1_555 1_555
C1E C1B 1_555 1_555
N1B C1B 1_555 1_555
Sb1C S1C 1_555 1_555
C2C N1C 1_555 1_555
S1D C1D 1_555 1_555
N1D C1D 1_555 1_555
C2A N1A 1_555 1_555
S1E C1E 1_555 1_555
N1E C1E 1_555 1_555
C2B N1B 1_555 1_555
S1D_2 Sb1C 1_555 1_555
S1E_2 Sb1C 1_555 1_555
Cl1C Sb1C 1_555 1_555
Cl1D Sb1C 1_555 1_555
Cl1E Sb1C 1_555 1_555
C3C C2C 1_555 1_555
C4C C2C 1_555 1_555
Sb1C_2 S1D 1_555 1_555
C2D N1D 1_555 1_555
C3A C2A 1_555 1_555
C4A C2A 1_555 1_555
Sb1C_3 S1E 1_555 1_555
C2E N1E 1_555 1_555
C3B C2B 1_555 1_555
C4B C2B 1_555 1_555
C3D C2D 1_555 1_555
C4D C2D 1_555 1_555
C3E C2E 1_555 1_555
C4E C2E 1_555 1_555

#END
