
#######################################################################
#
#                 Cambridge Crystallographic Data Centre
#                                CCDC 
#
#######################################################################
#
# If this CIF has been generated from an entry in the Cambridge 
# Structural Database, then it will include bibliographic, chemical, 
# crystal, experimental, refinement or atomic coordinate data resulting 
# from the CCDC's data processing and validation procedures.
#
#######################################################################

data_CIZNAC
_symmetry_cell_setting           monoclinic
_symmetry_space_group_name_H-M   'C m'
_symmetry_Int_Tables_number      8
_space_group_name_Hall           'C -2y'
loop_
_symmetry_equiv_pos_site_id
_symmetry_equiv_pos_as_xyz
1 x,y,z
2 x,-y,z
3 1/2+x,1/2+y,z
4 1/2+x,1/2-y,z
_cell_length_a                   12.973(5)
_cell_length_b                   19.165(5)
_cell_length_c                   9.998(5)
_cell_angle_alpha                90
_cell_angle_beta                 101.712(5)
_cell_angle_gamma                90
_cell_volume                     2434.03
loop_
_atom_site_label
_atom_site_type_symbol
_atom_site_fract_x
_atom_site_fract_y
_atom_site_fract_z
O25 O -0.5769(9) 0.0000 0.5035(16)
O26 O -0.6166(14) 0.0000 0.192(2)
P1 P -1.1133(3) 0.0000 -0.3893(4)
O1 O -1.1707(9) -0.0453(5) -0.5033(11)
O2 O -1.0546(9) -0.0440(5) -0.2730(10)
O3 O -1.1928(8) -0.0477(5) -0.3367(10)
O4 O -1.0338(8) -0.0474(6) -0.4452(11)
O5 O -1.0221(8) -0.1657(4) -0.2201(11)
O6 O -1.3442(7) -0.0671(5) -0.6284(9)
O7 O -1.4325(7) 0.0000 -0.1533(9)
O8 O -0.8813(10) 0.0000 0.0991(11)
O9 O -0.9770(7) -0.0710(5) -0.6469(9)
O10 O -1.2491(7) 0.0710(5) -0.1285(8)
O11 O -1.4120(5) -0.1845(4) -0.5223(10)
O12 O -1.0743(8) -0.1986(4) -0.7267(8)
O13 O -1.1548(6) -0.2023(4) -0.0523(7)
O14 O -0.8199(6) -0.1862(4) -0.2512(9)
O15 O -1.1770(7) -0.0700(5) -0.7368(10)
O16 O -1.2344(8) -0.1649(5) -0.3152(8)
O17 O -1.0509(8) -0.0724(5) -0.0409(10)
O18 O -1.3732(7) -0.0655(4) -0.3729(8)
O19 O -1.2038(6) -0.1656(4) -0.5581(10)
O20 O -0.9942(8) -0.1647(5) -0.4631(10)
O21 O -0.8812(7) -0.0660(4) -0.1480(10)
O22 O -1.3493(8) 0.0000 -0.8761(9)
O23 O -0.7903(7) 0.0000 -0.6257(9)
Mo1 Mo -1.32570(8) 0.0000 -0.21712(10)
Mo2 Mo -0.90770(6) -0.12472(4) -0.29666(8)
Mo3 Mo -1.08644(6) -0.13791(4) -0.61699(7)
Mo4 Mo -0.96046(8) 0.0000 -0.05126(10)
Mo5 Mo -1.14129(6) -0.13880(4) -0.16123(8)
Mo6 Mo -0.89820(8) 0.0000 -0.55925(10)
Mo7 Mo -1.31963(5) -0.12383(4) -0.48236(7)
Mo8 Mo -1.26766(9) 0.0000 -0.72561(10)
Ag1 Ag -0.63859(7) -0.13226(5) -0.44835(9)
Ag2 Ag -0.70488(9) 0.0000 -0.18350(19)
C1 C -0.2985(7) -0.3030(4) 0.3136(8)
H1 H -0.3372 -0.2846 0.3741
C2 C -0.3212(6) -0.2946(4) 0.1792(8)
C3 C -0.2464(8) -0.3310(5) 0.1314(9)
H2 H -0.2424 -0.3352 0.0399
C4 C -0.4083(7) -0.2582(5) 0.0952(11)
H3 H -0.4669 -0.2574 0.1420
H4 H -0.4307 -0.2837 0.0105
C5 C -0.3823(7) -0.1863(5) 0.0634(10)
H5 H -0.3728 -0.1583 0.1458
H6 H -0.3166 -0.1861 0.0314
C6 C -0.4875(6) -0.1694(4) -0.1737(9)
H7 H -0.4480 -0.1990 -0.2173
C7 C -0.4657(5) -0.1556(3) -0.0413(7)
C8 C -0.5412(7) -0.1113(5) -0.0215(9)
H8 H -0.5464 -0.0923 0.0624
N1 N -0.2131(6) -0.3412(4) 0.3486(8)
N2 N -0.1808(9) -0.3591(4) 0.2336(9)
H9 H -0.1270 -0.3844 0.2283
N3 N -0.6062(5) -0.0986(3) -0.1364(7)
N4 N -0.5722(5) -0.1358(3) -0.2360(7)
O24 O -0.8481(7) -0.0684(5) -0.4069(8)
O1A O -1.1707(9) 0.0453(5) -0.5033(11)
O2A O -1.0546(9) 0.0440(5) -0.2730(10)
O3A O -1.1928(8) 0.0477(5) -0.3367(10)
O4A O -1.0338(8) 0.0474(6) -0.4452(11)
O5A O -1.0221(8) 0.1657(4) -0.2201(11)
O6A O -1.3442(7) 0.0671(5) -0.6284(9)
O9A O -0.9770(7) 0.0710(5) -0.6469(9)
O10A O -1.2491(7) -0.0710(5) -0.1285(8)
O11A O -1.4120(5) 0.1845(4) -0.5223(10)
O12A O -1.0743(8) 0.1986(4) -0.7267(8)
O13A O -1.1548(6) 0.2023(4) -0.0523(7)
O14A O -0.8199(6) 0.1862(4) -0.2512(9)
O15A O -1.1770(7) 0.0700(5) -0.7368(10)
O16A O -1.2344(8) 0.1649(5) -0.3152(8)
O17A O -1.0509(8) 0.0724(5) -0.0409(10)
O18A O -1.3732(7) 0.0655(4) -0.3729(8)
O19A O -1.2038(6) 0.1656(4) -0.5581(10)
O20A O -0.9942(8) 0.1647(5) -0.4631(10)
O21A O -0.8812(7) 0.0660(4) -0.1480(10)
Mo2A Mo -0.90770(6) 0.12472(4) -0.29666(8)
Mo3A Mo -1.08644(6) 0.13791(4) -0.61699(7)
Mo5A Mo -1.14129(6) 0.13880(4) -0.16123(8)
Mo7A Mo -1.31963(5) 0.12383(4) -0.48236(7)
Ag1A Ag -0.63859(7) 0.13226(5) -0.44835(9)
C1A C -0.2985(7) 0.3030(4) 0.3136(8)
H1A H -0.3372 0.2846 0.3741
C2A C -0.3212(6) 0.2946(4) 0.1792(8)
C3A C -0.2464(8) 0.3310(5) 0.1314(9)
H2A H -0.2424 0.3352 0.0399
C4A C -0.4083(7) 0.2582(5) 0.0952(11)
H3A H -0.4669 0.2574 0.1420
H4A H -0.4307 0.2837 0.0105
C5A C -0.3823(7) 0.1863(5) 0.0634(10)
H5A H -0.3728 0.1583 0.1458
H6A H -0.3166 0.1861 0.0314
C6A C -0.4875(6) 0.1694(4) -0.1737(9)
H7A H -0.4480 0.1990 -0.2173
C7A C -0.4657(5) 0.1556(3) -0.0413(7)
C8A C -0.5412(7) 0.1113(5) -0.0215(9)
H8A H -0.5464 0.0923 0.0624
N1A N -0.2131(6) 0.3412(4) 0.3486(8)
N2A N -0.1808(9) 0.3591(4) 0.2336(9)
H9A H -0.1270 0.3844 0.2283
N3A N -0.6062(5) 0.0986(3) -0.1364(7)
N4A N -0.5722(5) 0.1358(3) -0.2360(7)
O24A O -0.8481(7) 0.0684(5) -0.4069(8)
Ag1B Ag -0.13859(7) 0.36774(5) 0.55165(9)
Ag1C Ag -0.13859(7) -0.36774(5) 0.55165(9)
N1B N -0.7131(6) 0.1588(4) -0.6514(8)
N1C N -0.7131(6) -0.1588(4) -0.6514(8)
loop_
_geom_bond_atom_site_label_1
_geom_bond_atom_site_label_2
_geom_bond_site_symmetry_1
_geom_bond_site_symmetry_2
P1 O1 1_555 1_555
O1 O3 1_555 1_555
O2 P1 1_555 1_555
O3 P1 1_555 1_555
O4 P1 1_555 1_555
O5 Mo2 1_555 1_555
O6 Mo7 1_555 1_555
O7 Mo1 1_555 1_555
O8 Mo4 1_555 1_555
O9 Mo3 1_555 1_555
O10 Mo1 1_555 1_555
O11 Mo7 1_555 1_555
O12 Mo3 1_555 1_555
O13 Mo5 1_555 1_555
O14 Mo2 1_555 1_555
O15 Mo3 1_555 1_555
O16 Mo5 1_555 1_555
O17 Mo4 1_555 1_555
O18 Mo1 1_555 1_555
O19 Mo3 1_555 1_555
O20 Mo2 1_555 1_555
O21 Mo2 1_555 1_555
O22 Mo8 1_555 1_555
O23 Mo6 1_555 1_555
Mo1 O3 1_555 1_555
Mo2 O2 1_555 1_555
Mo3 O1 1_555 1_555
Mo4 O2 1_555 1_555
Mo5 O2 1_555 1_555
Mo6 O4 1_555 1_555
Mo7 O1 1_555 1_555
Mo8 O1 1_555 1_555
Ag1 N4 1_555 1_555
Ag2 O21 1_555 1_555
C1 H1 1_555 1_555
C2 C1 1_555 1_555
C3 C2 1_555 1_555
H2 C3 1_555 1_555
C4 C2 1_555 1_555
H3 C4 1_555 1_555
H4 C4 1_555 1_555
C5 C4 1_555 1_555
H5 C5 1_555 1_555
H6 C5 1_555 1_555
C6 H7 1_555 1_555
C7 C5 1_555 1_555
C8 C7 1_555 1_555
H8 C8 1_555 1_555
N1 C1 1_555 1_555
N2 C3 1_555 1_555
H9 N2 1_555 1_555
N3 Ag2 1_555 1_555
N4 C6 1_555 1_555
O24 Mo2 1_555 1_555
O1A P1 1_555 1_555
O2A P1 1_555 1_555
O3A P1 1_555 1_555
O4A P1 1_555 1_555
O5A Mo2A 1_555 1_555
O6A Mo8 1_555 1_555
O9A Mo6 1_555 1_555
O10A Mo1 1_555 1_555
O11A Mo7A 1_555 1_555
O12A Mo3A 1_555 1_555
O13A Mo5A 1_555 1_555
O14A Mo2A 1_555 1_555
O15A Mo8 1_555 1_555
O16A Mo5A 1_555 1_555
O17A Mo4 1_555 1_555
O18A Mo1 1_555 1_555
O19A Mo3A 1_555 1_555
O20A Mo2A 1_555 1_555
O21A Mo4 1_555 1_555
Mo2A O2A 1_555 1_555
Mo3A O1A 1_555 1_555
Mo5A O10 1_555 1_555
Mo7A O1A 1_555 1_555
Ag1A N4A 1_555 1_555
C1A H1A 1_555 1_555
C2A C1A 1_555 1_555
C3A C2A 1_555 1_555
H2A C3A 1_555 1_555
C4A C2A 1_555 1_555
H3A C4A 1_555 1_555
H4A C4A 1_555 1_555
C5A C4A 1_555 1_555
H5A C5A 1_555 1_555
H6A C5A 1_555 1_555
C6A H7A 1_555 1_555
C7A C5A 1_555 1_555
C8A C7A 1_555 1_555
H8A C8A 1_555 1_555
N1A C1A 1_555 1_555
N2A C3A 1_555 1_555
H9A N2A 1_555 1_555
N3A Ag2 1_555 1_555
N4A C6A 1_555 1_555
O24A Mo6 1_555 1_555
Ag1B N1A 1_555 1_555
Ag1C N1 1_555 1_555
N1B Ag1A 1_555 1_555
N1C Ag1 1_555 1_555
O1 O4 1_555 1_555
O1 O1A 1_555 1_555
O2 O3 1_555 1_555
O2 O4 1_555 1_555
O2 O2A 1_555 1_555
O3 Mo5 1_555 1_555
O3 Mo7 1_555 1_555
O4 Mo2 1_555 1_555
O4 Mo3 1_555 1_555
O5 Mo5 1_555 1_555
O6 Mo8 1_555 1_555
O9 Mo6 1_555 1_555
O15 Mo8 1_555 1_555
O16 Mo7 1_555 1_555
O17 Mo5 1_555 1_555
O18 Mo7 1_555 1_555
O19 Mo7 1_555 1_555
O20 Mo3 1_555 1_555
O21 Mo4 1_555 1_555
Mo1 O3A 1_555 1_555
Mo4 O2A 1_555 1_555
Mo5 O10A 1_555 1_555
Mo6 O24 1_555 1_555
Mo6 O4A 1_555 1_555
Mo8 O1A 1_555 1_555
Ag2 O21A 1_555 1_555
C6 C7 1_555 1_555
C8 N3 1_555 1_555
N1 N2 1_555 1_555
N3 N4 1_555 1_555
O1A O3A 1_555 1_555
O1A O4A 1_555 1_555
O2A O3A 1_555 1_555
O2A O4A 1_555 1_555
O2A Mo5A 1_555 1_555
O3A Mo5A 1_555 1_555
O3A Mo7A 1_555 1_555
O4A Mo2A 1_555 1_555
O4A Mo3A 1_555 1_555
O5A Mo5A 1_555 1_555
O6A Mo7A 1_555 1_555
O9A Mo3A 1_555 1_555
O15A Mo3A 1_555 1_555
O16A Mo7A 1_555 1_555
O17A Mo5A 1_555 1_555
O18A Mo7A 1_555 1_555
O19A Mo7A 1_555 1_555
O20A Mo3A 1_555 1_555
O21A Mo2A 1_555 1_555
Mo2A O24A 1_555 1_555
C6A C7A 1_555 1_555
C8A N3A 1_555 1_555
N1A N2A 1_555 1_555
N3A N4A 1_555 1_555

#END
