
#######################################################################
#
#                 Cambridge Crystallographic Data Centre
#                                CCDC 
#
#######################################################################
#
# If this CIF has been generated from an entry in the Cambridge 
# Structural Database, then it will include bibliographic, chemical, 
# crystal, experimental, refinement or atomic coordinate data resulting 
# from the CCDC's data processing and validation procedures.
#
#######################################################################

data_CIZPIM
_symmetry_cell_setting           triclinic
_symmetry_space_group_name_H-M   'P -1'
_symmetry_Int_Tables_number      2
_space_group_name_Hall           '-P 1'
loop_
_symmetry_equiv_pos_site_id
_symmetry_equiv_pos_as_xyz
1 x,y,z
2 -x,-y,-z
_cell_length_a                   8.6479(4)
_cell_length_b                   9.4452(4)
_cell_length_c                   12.1753(6)
_cell_angle_alpha                96.438(4)
_cell_angle_beta                 96.446(4)
_cell_angle_gamma                104.773(4)
_cell_volume                     945.23
loop_
_atom_site_label
_atom_site_type_symbol
_atom_site_fract_x
_atom_site_fract_y
_atom_site_fract_z
Co1 Co 0.5000 1.0000 0.5000
O1 O 0.4652(3) 0.4004(2) 0.19282(17)
O2 O 0.3155(2) 0.5461(2) 0.13792(15)
H1 H 0.3278 0.5125 0.0755
O3 O -0.0613(2) 1.1632(2) 0.06973(16)
O4 O 0.6208(2) 0.75282(18) 0.24746(14)
O5 O 0.60457(18) 0.94052(17) 0.36839(13)
N1 N 0.4030(2) 0.7546(2) 0.47355(15)
N2 N 0.2934(2) 1.0081(2) 0.38595(16)
N3 N -0.1340(2) 0.9814(2) 0.17581(16)
H2 H -0.2140 0.9112 0.1863
C1 C 0.4386(3) 0.6999(2) 0.37812(19)
C2 C 0.3773(3) 0.5496(3) 0.3292(2)
C3 C 0.2866(3) 0.4546(3) 0.3895(2)
H3 H 0.2487 0.3544 0.3613
C4 C 0.2505(3) 0.5062(3) 0.4927(2)
C5 C 0.3046(3) 0.6600(3) 0.53168(19)
C6 C 0.2578(3) 0.7156(3) 0.6307(2)
H4 H 0.2918 0.8166 0.6569
C7 C 0.1622(3) 0.6214(3) 0.6888(2)
H5 H 0.1307 0.6593 0.7539
C8 C 0.1109(3) 0.4687(3) 0.6516(2)
H6 H 0.0473 0.4059 0.6926
C9 C 0.1538(3) 0.4127(3) 0.5563(2)
H7 H 0.1193 0.3112 0.5322
C10 C 0.5633(3) 0.8056(3) 0.3248(2)
C11 C 0.3957(3) 0.4922(3) 0.2140(2)
C12 C 0.1461(3) 0.9455(3) 0.4085(2)
H8 H 0.1385 0.9046 0.4744
C13 C 0.0062(3) 0.9374(3) 0.3414(2)
H9 H -0.0929 0.8916 0.3616
C14 C 0.0124(3) 0.9977(3) 0.24268(19)
C15 C 0.2983(3) 1.0673(3) 0.2907(2)
H10 H 0.3992 1.1120 0.2727
C16 C -0.1655(3) 1.0639(3) 0.0957(2)
C17 C 0.1641(3) 1.0661(3) 0.2180(2)
H11 H 0.1748 1.1102 0.1537
C18 C -0.3389(3) 1.0281(3) 0.04554(19)
C19 C -0.4043(3) 1.1442(3) 0.0262(2)
H12 H -0.3398 1.2412 0.0436
C20 C -0.4352(3) 0.8838(3) 0.0188(2)
H13 H -0.3916 0.8056 0.0311
O3A O -0.9387(2) 0.8368(2) -0.06973(16)
N2A N -1.2934(2) 0.9919(2) -0.38595(16)
N3A N -0.8660(2) 1.0186(2) -0.17581(16)
H2A H -0.7860 1.0888 -0.1863
C12A C -1.1461(3) 1.0545(3) -0.4085(2)
H8A H -1.1385 1.0954 -0.4744
C13A C -1.0062(3) 1.0626(3) -0.3414(2)
H9A H -0.9071 1.1084 -0.3616
C14A C -1.0124(3) 1.0023(3) -0.24268(19)
C15A C -1.2983(3) 0.9327(3) -0.2907(2)
H10A H -1.3992 0.8880 -0.2727
C16A C -0.8345(3) 0.9361(3) -0.0957(2)
C17A C -1.1641(3) 0.9339(3) -0.2180(2)
H11A H -1.1748 0.8898 -0.1537
C18A C -0.6611(3) 0.9719(3) -0.04554(19)
C19A C -0.5957(3) 0.8558(3) -0.0262(2)
H12A H -0.6602 0.7588 -0.0436
C20A C -0.5648(3) 1.1162(3) -0.0188(2)
H13A H -0.6084 1.1944 -0.0311
O1A O 0.5348(3) 1.5996(2) 0.80718(17)
O2A O 0.6845(2) 1.4539(2) 0.86208(15)
H1A H 0.6722 1.4875 0.9245
O4A O 0.3792(2) 1.24718(18) 0.75254(14)
O5A O 0.39543(18) 1.05948(17) 0.63161(13)
N1A N 0.5970(2) 1.2454(2) 0.52645(15)
C1A C 0.5614(3) 1.3001(2) 0.62188(19)
C2A C 0.6227(3) 1.4504(3) 0.6708(2)
C3A C 0.7134(3) 1.5454(3) 0.6105(2)
H3A H 0.7513 1.6456 0.6387
C4A C 0.7495(3) 1.4938(3) 0.5073(2)
C5A C 0.6954(3) 1.3400(3) 0.46832(19)
C6A C 0.7422(3) 1.2844(3) 0.3693(2)
H4A H 0.7082 1.1834 0.3431
C7A C 0.8378(3) 1.3786(3) 0.3112(2)
H5A H 0.8693 1.3407 0.2461
C8A C 0.8891(3) 1.5313(3) 0.3484(2)
H6A H 0.9527 1.5941 0.3074
C9A C 0.8462(3) 1.5873(3) 0.4437(2)
H7A H 0.8807 1.6888 0.4678
C10A C 0.4367(3) 1.1944(3) 0.6752(2)
C11A C 0.6043(3) 1.5078(3) 0.7860(2)
Co1_2 Co -1.5000 1.0000 -0.5000
N2A_2 N 0.7066(2) 0.9919(2) 0.61405(16)
O6 O 0.0494(3) 0.6853(3) 0.1175(2)
H14 H 0.061(4) 0.731(4) 0.054(2)
H15 H 0.132(3) 0.643(4) 0.131(3)
O7 O 0.2732(3) 0.4409(3) 0.93207(17)
H16 H 0.160(2) 0.402(4) 0.912(3)
H17 H 0.324(3) 0.436(4) 0.874(2)
loop_
_geom_bond_atom_site_label_1
_geom_bond_atom_site_label_2
_geom_bond_site_symmetry_1
_geom_bond_site_symmetry_2
Co1 O5 1_555 1_555
O1 C11 1_555 1_555
O2 H1 1_555 1_555
O3 C16 1_555 1_555
O4 C10 1_555 1_555
O5 C10 1_555 1_555
N1 Co1 1_555 1_555
N2 Co1 1_555 1_555
N3 H2 1_555 1_555
C1 N1 1_555 1_555
C2 C1 1_555 1_555
C3 C2 1_555 1_555
H3 C3 1_555 1_555
C4 C3 1_555 1_555
C5 N1 1_555 1_555
C6 C5 1_555 1_555
H4 C6 1_555 1_555
C7 C6 1_555 1_555
H5 C7 1_555 1_555
C8 C7 1_555 1_555
H6 C8 1_555 1_555
C9 C4 1_555 1_555
H7 C9 1_555 1_555
C10 C1 1_555 1_555
C11 O2 1_555 1_555
C12 N2 1_555 1_555
H8 C12 1_555 1_555
C13 C12 1_555 1_555
H9 C13 1_555 1_555
C14 N3 1_555 1_555
C15 N2 1_555 1_555
H10 C15 1_555 1_555
C16 N3 1_555 1_555
C17 C14 1_555 1_555
H11 C17 1_555 1_555
C18 C16 1_555 1_555
C19 C18 1_555 1_555
H12 C19 1_555 1_555
C20 C18 1_555 1_555
H13 C20 1_555 1_555
O6 H14 1_555 1_555
H15 O6 1_555 1_555
O7 H16 1_555 1_555
H17 O7 1_555 1_555
O3A C16A 1_555 1_555
N2A C12A 1_555 1_555
N3A H2A 1_555 1_555
C12A H8A 1_555 1_555
C13A C12A 1_555 1_555
H9A C13A 1_555 1_555
C14A N3A 1_555 1_555
C15A N2A 1_555 1_555
H10A C15A 1_555 1_555
C16A N3A 1_555 1_555
C17A C14A 1_555 1_555
H11A C17A 1_555 1_555
C18A C16A 1_555 1_555
C19A C20 1_555 1_555
H12A C19A 1_555 1_555
C20A C19 1_555 1_555
H13A C20A 1_555 1_555
O1A C11A 1_555 1_555
O2A H1A 1_555 1_555
O4A C10A 1_555 1_555
O5A Co1 1_555 1_555
N1A Co1 1_555 1_555
C1A N1A 1_555 1_555
C2A C1A 1_555 1_555
C3A C2A 1_555 1_555
H3A C3A 1_555 1_555
C4A C3A 1_555 1_555
C5A N1A 1_555 1_555
C6A C5A 1_555 1_555
H4A C6A 1_555 1_555
C7A C6A 1_555 1_555
H5A C7A 1_555 1_555
C8A C7A 1_555 1_555
H6A C8A 1_555 1_555
C9A C4A 1_555 1_555
H7A C9A 1_555 1_555
C10A O5A 1_555 1_555
C11A O2A 1_555 1_555
Co1_2 N2A 1_555 1_555
N2A_2 Co1 1_555 1_555
C2 C11 1_555 1_555
C4 C5 1_555 1_555
C8 C9 1_555 1_555
C13 C14 1_555 1_555
C15 C17 1_555 1_555
C13A C14A 1_555 1_555
C15A C17A 1_555 1_555
C18A C19A 1_555 1_555
C18A C20A 1_555 1_555
C1A C10A 1_555 1_555
C2A C11A 1_555 1_555
C4A C5A 1_555 1_555
C8A C9A 1_555 1_555

#END
