
#######################################################################
#
#                 Cambridge Crystallographic Data Centre
#                                CCDC 
#
#######################################################################
#
# If this CIF has been generated from an entry in the Cambridge 
# Structural Database, then it will include bibliographic, chemical, 
# crystal, experimental, refinement or atomic coordinate data resulting 
# from the CCDC's data processing and validation procedures.
#
#######################################################################

data_CIZPEI
_symmetry_cell_setting           triclinic
_symmetry_space_group_name_H-M   'P -1'
_symmetry_Int_Tables_number      2
_space_group_name_Hall           '-P 1'
loop_
_symmetry_equiv_pos_site_id
_symmetry_equiv_pos_as_xyz
1 x,y,z
2 -x,-y,-z
_cell_length_a                   7.6099(3)
_cell_length_b                   10.4281(5)
_cell_length_c                   13.6427(7)
_cell_angle_alpha                84.281(4)
_cell_angle_beta                 89.806(4)
_cell_angle_gamma                70.891(4)
_cell_volume                     1017.4
loop_
_atom_site_label
_atom_site_type_symbol
_atom_site_fract_x
_atom_site_fract_y
_atom_site_fract_z
Mn1 Mn 0.59474(8) 0.75521(6) 0.76149(4)
N1 N 0.6675(5) 0.8917(4) 0.8613(3)
O1 O 0.3021(4) 0.8374(3) 0.7868(2)
O2 O -0.1273(4) 0.6687(3) 0.7166(2)
O3 O 0.5489(5) 0.9106(5) 0.6371(3)
N2 N 0.4555(4) 0.6137(3) 0.6951(2)
N3 N 0.6840(5) 0.6303(4) 0.9118(3)
C1 C 0.5335(5) 0.4895(4) 0.6601(3)
O4 O -0.1394(4) 0.7326(4) 0.5562(2)
O5 O 0.0449(4) 0.8898(4) 0.6908(3)
C2 C 0.7200(5) 0.8378(4) 0.9549(3)
C3 C 0.7306(5) 0.6988(4) 0.9817(3)
C4 C 0.7261(5) 0.4199(5) 0.6746(3)
H1 H 0.8000 0.4597 0.7063
C5 C 0.7083(7) 1.0981(5) 0.9009(4)
H2 H 0.7051 1.1864 0.8797
C6 C 0.4241(6) 0.4283(5) 0.6108(3)
C7 C 0.7658(6) 0.9113(5) 1.0260(3)
C8 C -0.0541(5) 0.6820(5) 0.6348(3)
C9 C 0.2733(5) 0.6755(4) 0.6846(3)
C10 C 0.1554(5) 0.6180(5) 0.6361(3)
C11 C 0.6999(6) 0.5004(5) 0.9367(4)
H3 H 0.6651 0.4537 0.8899
C12 C 0.2316(6) 0.4977(5) 0.5991(3)
H4 H 0.1568 0.4604 0.5658
C13 C 0.8350(7) 0.7171(6) 1.1480(4)
H5 H 0.8733 0.6775 1.2118
C14 C 0.6653(7) 1.0189(5) 0.8356(4)
H6 H 0.6333 1.0561 0.7707
C15 C 0.5111(7) 0.2987(5) 0.5766(4)
H7 H 0.4407 0.2580 0.5431
C16 C 0.1980(6) 0.8124(5) 0.7240(4)
C17 C 0.8033(6) 0.2962(5) 0.6429(4)
H8 H 0.9299 0.2508 0.6543
C18 C 0.7928(5) 0.6358(5) 1.0771(3)
C19 C 0.8202(7) 0.8474(6) 1.1237(4)
H9 H 0.8459 0.8975 1.1712
C20 C 0.8117(6) 0.4990(5) 1.0980(4)
H10 H 0.8562 0.4539 1.1597
C21 C 0.7553(7) 1.0466(5) 0.9961(4)
H11 H 0.7803 1.1003 1.0410
C22 C 0.7648(7) 0.4307(5) 1.0275(4)
H12 H 0.7765 0.3390 1.0406
C23 C 0.6966(7) 0.2340(6) 0.5927(4)
H13 H 0.7530 0.1489 0.5706
H14 H 0.466(4) 0.988(3) 0.622(3)
H15 H 0.656(3) 0.889(4) 0.603(3)
Mn1_2 Mn -0.40526(8) 0.75521(6) 0.76149(4)
O2_2 O 0.8727(4) 0.6687(3) 0.7166(2)
O6 O 0.8024(5) 0.9581(5) 0.4351(3)
H16 H 0.786(5) 0.899(4) 0.381(3)
H17 H 0.667(3) 1.017(3) 0.435(3)
loop_
_geom_bond_atom_site_label_1
_geom_bond_atom_site_label_2
_geom_bond_site_symmetry_1
_geom_bond_site_symmetry_2
Mn1 N1 1_555 1_555
N1 C2 1_555 1_555
O1 Mn1 1_555 1_555
O2 C8 1_555 1_555
O3 Mn1 1_555 1_555
N2 Mn1 1_555 1_555
N3 Mn1 1_555 1_555
C1 N2 1_555 1_555
O4 C8 1_555 1_555
O5 C16 1_555 1_555
C2 C3 1_555 1_555
C3 N3 1_555 1_555
C4 C1 1_555 1_555
H1 C4 1_555 1_555
C5 H2 1_555 1_555
C6 C1 1_555 1_555
C7 C2 1_555 1_555
C8 C10 1_555 1_555
C9 N2 1_555 1_555
C10 C9 1_555 1_555
C11 N3 1_555 1_555
H3 C11 1_555 1_555
C12 C6 1_555 1_555
H4 C12 1_555 1_555
C13 H5 1_555 1_555
C14 N1 1_555 1_555
H6 C14 1_555 1_555
C15 C6 1_555 1_555
H7 C15 1_555 1_555
C16 O1 1_555 1_555
C17 C4 1_555 1_555
H8 C17 1_555 1_555
C18 C3 1_555 1_555
C19 C7 1_555 1_555
H9 C19 1_555 1_555
C20 C18 1_555 1_555
H10 C20 1_555 1_555
C21 C5 1_555 1_555
H11 C21 1_555 1_555
C22 C11 1_555 1_555
H12 C22 1_555 1_555
C23 C15 1_555 1_555
H13 C23 1_555 1_555
H14 O3 1_555 1_555
H15 O3 1_555 1_555
O6 H16 1_555 1_555
H17 O6 1_555 1_555
Mn1_2 O2 1_555 1_555
O2_2 Mn1 1_555 1_555
C5 C14 1_555 1_555
C7 C21 1_555 1_555
C9 C16 1_555 1_555
C10 C12 1_555 1_555
C13 C18 1_555 1_555
C13 C19 1_555 1_555
C17 C23 1_555 1_555
C20 C22 1_555 1_555

#END
