
#######################################################################
#
#                 Cambridge Crystallographic Data Centre
#                                CCDC 
#
#######################################################################
#
# If this CIF has been generated from an entry in the Cambridge 
# Structural Database, then it will include bibliographic, chemical, 
# crystal, experimental, refinement or atomic coordinate data resulting 
# from the CCDC's data processing and validation procedures.
#
#######################################################################

data_CIZQAF
_symmetry_cell_setting           monoclinic
_symmetry_space_group_name_H-M   'C 2/c'
_symmetry_Int_Tables_number      15
_space_group_name_Hall           '-C 2yn'
loop_
_symmetry_equiv_pos_site_id
_symmetry_equiv_pos_as_xyz
1 x,y,z
2 -x,y,1/2-z
3 1/2+x,1/2+y,z
4 1/2-x,1/2+y,1/2-z
5 -x,-y,-z
6 x,-y,1/2+z
7 1/2-x,1/2-y,-z
8 1/2+x,1/2-y,1/2+z
_cell_length_a                   10.9578(3)
_cell_length_b                   16.3093(5)
_cell_length_c                   9.2414(3)
_cell_angle_alpha                90
_cell_angle_beta                 97.956(3)
_cell_angle_gamma                90
_cell_volume                     1635.67
loop_
_atom_site_label
_atom_site_type_symbol
_atom_site_fract_x
_atom_site_fract_y
_atom_site_fract_z
Cd1 Cd 0.21731(3) 0.395688(18) 0.10147(3)
K1 K 0.0000 0.54714(9) 0.2500
O1 O 0.0082(3) 0.39568(17) 0.0322(3)
O2 O 0.0850(3) 0.27794(17) 0.1217(3)
N1 N 0.4452(3) 0.2787(2) 0.2149(4)
N2 N 0.4062(3) 0.3572(2) 0.1907(4)
C1 C -0.0042(4) 0.3210(3) 0.0684(4)
C2 C 0.5000 0.4044(4) 0.2500
N3 N 0.5000 0.4878(3) 0.2500
C3 C -0.2370(4) 0.3348(2) 0.0155(4)
C4 C -0.1472(4) 0.2006(2) 0.0234(4)
H1 H -0.0783 0.1669 0.0402
C5 C -0.1321(4) 0.2843(2) 0.0376(4)
C6 C -0.2291(4) 0.4268(3) 0.0376(5)
O3 O -0.2019(3) 0.45416(17) 0.1649(3)
O4 O -0.2548(3) 0.47022(17) -0.0764(3)
O5 O 0.2347(5) 0.3516(3) -0.1325(4)
H2 H 0.430(3) 0.513(3) 0.212(7)
H3 H 0.298(3) 0.378(4) -0.150(7)
H4 H 0.175(4) 0.360(4) -0.200(6)
O1F O -0.5082(3) 0.10432(17) -0.0322(3)
O2F O -0.5850(3) 0.22206(17) -0.1217(3)
C1F C -0.4958(4) 0.1790(3) -0.0684(4)
C3F C -0.2630(4) 0.1652(2) -0.0155(4)
C4F C -0.3528(4) 0.2994(2) -0.0234(4)
H1F H -0.4217 0.3331 -0.0402
C5F C -0.3679(4) 0.2157(2) -0.0376(4)
C6F C -0.2709(4) 0.0732(3) -0.0376(5)
O3F O -0.2981(3) 0.04584(17) -0.1649(3)
O4F O -0.2452(3) 0.02978(17) 0.0764(3)
N1A N 0.5548(3) 0.2787(2) 0.2851(4)
N2A N 0.5938(3) 0.3572(2) 0.3093(4)
H2A H 0.570(3) 0.513(3) 0.288(7)
Cd1A Cd -0.21731(3) 0.395688(18) 0.39853(3)
O5A O -0.2347(5) 0.3516(3) 0.6325(4)
H3A H -0.298(3) 0.378(4) 0.650(7)
H4A H -0.175(4) 0.360(4) 0.700(6)
Cd1A_2 Cd 0.78269(3) 0.395688(18) 0.39853(3)
Cd1B Cd -0.28269(3) -0.104312(18) 0.10147(3)
Cd1D Cd -0.21731(3) 0.604312(18) -0.10147(3)
Cd1F Cd -0.71731(3) 0.104312(18) -0.10147(3)
Cd1G Cd -0.28269(3) 0.104312(18) -0.39853(3)
K1B K -0.5000 0.04714(9) 0.2500
K1D K 0.0000 0.45286(9) -0.2500
K1D_2 K 0.0000 0.45286(9) 0.7500
K1F K -0.5000 -0.04714(9) -0.2500
O1A O -0.0082(3) 0.39568(17) 0.4678(3)
O1D O -0.0082(3) 0.60432(17) -0.0322(3)
O1E O 0.0082(3) 0.60432(17) 0.5322(3)
O2A O -0.0850(3) 0.27794(17) 0.3783(3)
N2A_2 N -0.4062(3) 0.3572(2) 0.3093(4)
O3A O 0.2019(3) 0.45416(17) 0.3351(3)
O4D O 0.2548(3) 0.52978(17) 0.0764(3)
O4E O -0.2548(3) 0.52978(17) 0.4236(3)
O5D O -0.2347(5) 0.6484(3) 0.1325(4)
O5E O 0.2347(5) 0.6484(3) 0.3675(4)
loop_
_geom_bond_atom_site_label_1
_geom_bond_atom_site_label_2
_geom_bond_site_symmetry_1
_geom_bond_site_symmetry_2
Cd1 O1 1_555 1_555
K1 O1 1_555 1_555
O1 C1 1_555 1_555
O2 Cd1 1_555 1_555
N1 N2 1_555 1_555
N2 Cd1 1_555 1_555
C1 O2 1_555 1_555
C2 N2 1_555 1_555
N3 C2 1_555 1_555
C3 C5 1_555 1_555
C4 H1 1_555 1_555
C5 C1 1_555 1_555
C6 C3 1_555 1_555
O3 K1 1_555 1_555
O4 C6 1_555 1_555
O5 Cd1 1_555 1_555
H2 N3 1_555 1_555
H3 O5 1_555 1_555
H4 O5 1_555 1_555
O1F C1F 1_555 1_555
O2F C1F 1_555 1_555
C1F C5F 1_555 1_555
C3F C4 1_555 1_555
C4F C3 1_555 1_555
H1F C4F 1_555 1_555
C5F C3F 1_555 1_555
C6F C3F 1_555 1_555
O3F C6F 1_555 1_555
O4F C6F 1_555 1_555
N1A N1 1_555 1_555
N2A C2 1_555 1_555
H2A N3 1_555 1_555
Cd1A O3 1_555 1_555
O5A Cd1A 1_555 1_555
H3A O5A 1_555 1_555
H4A O5A 1_555 1_555
Cd1A_2 N2A 1_555 1_555
Cd1B O4F 1_555 1_555
Cd1D O4 1_555 1_555
Cd1F O1F 1_555 1_555
Cd1G O3F 1_555 1_555
K1B O1F 1_555 1_555
K1D O1 1_555 1_555
K1D_2 O5A 1_555 1_555
K1F O1F 1_555 1_555
O1A K1 1_555 1_555
O1D K1 1_555 1_555
O1E K1 1_555 1_555
O2A Cd1A 1_555 1_555
N2A_2 Cd1A 1_555 1_555
O3A Cd1 1_555 1_555
O4D Cd1 1_555 1_555
O4E Cd1A 1_555 1_555
O5D K1 1_555 1_555
O5E K1 1_555 1_555
K1 O3A 1_555 1_555
C4 C5 1_555 1_555
C6 O3 1_555 1_555
O5 K1D 1_555 1_555
O2F Cd1F 1_555 1_555
C4F C5F 1_555 1_555
O3F K1F 1_555 1_555
N1A N2A 1_555 1_555
Cd1A O1A 1_555 1_555
Cd1D O1D 1_555 1_555
Cd1D O5D 1_555 1_555
K1D O1D 1_555 1_555
K1D_2 O1A 1_555 1_555
K1D_2 O1E 1_555 1_555

#END
