
#######################################################################
#
#                 Cambridge Crystallographic Data Centre
#                                CCDC 
#
#######################################################################
#
# If this CIF has been generated from an entry in the Cambridge 
# Structural Database, then it will include bibliographic, chemical, 
# crystal, experimental, refinement or atomic coordinate data resulting 
# from the CCDC's data processing and validation procedures.
#
#######################################################################

data_CIZSAF
_symmetry_cell_setting           monoclinic
_symmetry_space_group_name_H-M   'P 21/c'
_symmetry_Int_Tables_number      14
_space_group_name_Hall           '-P 2ybc'
loop_
_symmetry_equiv_pos_site_id
_symmetry_equiv_pos_as_xyz
1 x,y,z
2 -x,1/2+y,1/2-z
3 -x,-y,-z
4 x,1/2-y,1/2+z
_cell_length_a                   8.969(4)
_cell_length_b                   10.146(5)
_cell_length_c                   19.540(7)
_cell_angle_alpha                90
_cell_angle_beta                 93.70(4)
_cell_angle_gamma                90
_cell_volume                     1774.42
loop_
_atom_site_label
_atom_site_type_symbol
_atom_site_fract_x
_atom_site_fract_y
_atom_site_fract_z
Sn1 Sn 0.91578(3) 0.30183(2) 0.76237(1)
O1 O 1.0477(3) 0.4879(3) 0.7280(1)
O2 O 0.7950(3) 0.1382(3) 0.8060(1)
C1 C 1.1508(5) 0.5232(4) 0.6919(2)
C2 C 1.2154(6) 0.4320(4) 0.6413(2)
C3 C 0.7618(4) 0.4343(3) 0.8033(2)
C4 C 0.6277(5) 0.4651(5) 0.7673(2)
C5 C 0.5274(5) 0.5527(6) 0.7936(3)
C6 C 0.5568(5) 0.6079(5) 0.8572(3)
C7 C 0.6887(5) 0.5795(4) 0.8931(2)
C8 C 0.7905(5) 0.4944(4) 0.8666(2)
C9 C 1.1045(4) 0.2613(4) 0.8316(2)
C10 C 1.0748(5) 0.2353(4) 0.8996(2)
C11 C 1.1906(7) 0.2123(4) 0.9485(2)
C12 C 1.3357(7) 0.2147(5) 0.9318(3)
C13 C 1.3672(6) 0.2393(6) 0.8661(3)
C14 C 1.2516(5) 0.2631(5) 0.8154(3)
C15 C 0.8578(4) 0.2616(4) 0.6569(2)
C16 C 0.8471(5) 0.1356(4) 0.6299(2)
C17 C 0.7983(5) 0.1159(5) 0.5617(2)
C18 C 0.7553(5) 0.2202(5) 0.5202(2)
C19 C 0.7635(6) 0.3455(5) 0.5467(2)
C20 C 0.8141(5) 0.3663(5) 0.6145(2)
H1 H 1.1606 0.3375 0.6437
H2 H 1.3336 0.4200 0.6538
H3 H 1.1978 0.4719 0.5902
H4 H 0.6014 0.4192 0.7182
H5 H 0.4259 0.5786 0.7639
H6 H 0.4760 0.6719 0.8790
H7 H 0.7140 0.6243 0.9426
H8 H 0.8953 0.4742 0.8950
H9 H 0.9601 0.2331 0.9134
H10 H 1.1652 0.1931 1.0008
H11 H 1.4247 0.1960 0.9705
H12 H 1.4819 0.2410 0.8523
H13 H 1.2766 0.2831 0.7630
H14 H 0.8766 0.0526 0.6627
H15 H 0.7937 0.0171 0.5411
H16 H 0.7164 0.2038 0.4674
H17 H 0.7303 0.4285 0.5146
H18 H 0.8200 0.4650 0.6352
C1A C 0.8492(5) 0.0232(4) 0.8081(2)
O2A O 1.2050(3) 0.6382(3) 0.6940(1)
O1A O 0.9523(3) -0.0121(3) 0.7720(1)
C2A C 0.7846(6) -0.0680(4) 0.8587(2)
Sn1A Sn 1.08422(3) 0.80183(2) 0.73763(1)
Sn1A_2 Sn 1.08422(3) -0.19817(2) 0.73763(1)
H1A H 0.8394 -0.1625 0.8563
H2A H 0.6664 -0.0800 0.8462
H3A H 0.8022 -0.0281 0.9098
O1A_2 O 0.9523(3) 0.9879(3) 0.7720(1)
C3A C 1.2382(4) 0.9343(3) 0.6967(2)
C9A C 0.8955(4) 0.7613(4) 0.6684(2)
C15A C 1.1422(4) 0.7616(4) 0.8431(2)
C4A C 1.3723(5) 0.9651(5) 0.7327(2)
C8A C 1.2095(5) 0.9944(4) 0.6334(2)
C10A C 0.9252(5) 0.7353(4) 0.6004(2)
C14A C 0.7484(5) 0.7631(5) 0.6846(3)
C16A C 1.1529(5) 0.6356(4) 0.8701(2)
C20A C 1.1859(5) 0.8663(5) 0.8855(2)
C5A C 1.4726(5) 1.0527(6) 0.7064(3)
H4A H 1.3986 0.9192 0.7818
C7A C 1.3113(5) 1.0795(4) 0.6069(2)
H8A H 1.1047 0.9742 0.6050
C11A C 0.8094(7) 0.7123(4) 0.5515(2)
H9A H 1.0399 0.7331 0.5866
C13A C 0.6328(6) 0.7393(6) 0.6339(3)
H13A H 0.7234 0.7831 0.7370
C17A C 1.2017(5) 0.6159(5) 0.9383(2)
H14A H 1.1234 0.5526 0.8373
C19A C 1.2365(6) 0.8455(5) 0.9533(2)
H18A H 1.1800 0.9650 0.8648
C6A C 1.4432(5) 1.1079(5) 0.6428(3)
H5A H 1.5741 1.0786 0.7361
H7A H 1.2860 1.1243 0.5574
C12A C 0.6643(7) 0.7147(5) 0.5682(3)
H10A H 0.8348 0.6931 0.4992
H12A H 0.5181 0.7410 0.6477
C18A C 1.2447(5) 0.7202(5) 0.9798(2)
H15A H 1.2063 0.5171 0.9589
H17A H 1.2697 0.9285 0.9854
H6A H 1.5240 1.1719 0.6210
H11A H 0.5753 0.6960 0.5295
H16A H 1.2836 0.7038 1.0326
loop_
_geom_bond_atom_site_label_1
_geom_bond_atom_site_label_2
_geom_bond_site_symmetry_1
_geom_bond_site_symmetry_2
Sn1 O1 1_555 1_555
O1 C1 1_555 1_555
O2 Sn1 1_555 1_555
C1 C2 1_555 1_555
C2 H1 1_555 1_555
C3 Sn1 1_555 1_555
C4 C3 1_555 1_555
C5 C4 1_555 1_555
C6 C5 1_555 1_555
C7 C6 1_555 1_555
C8 C3 1_555 1_555
C9 Sn1 1_555 1_555
C10 C9 1_555 1_555
C11 C10 1_555 1_555
C12 C11 1_555 1_555
C13 C12 1_555 1_555
C14 C9 1_555 1_555
C15 Sn1 1_555 1_555
C16 C15 1_555 1_555
C17 C16 1_555 1_555
C18 C17 1_555 1_555
C19 C18 1_555 1_555
C20 C15 1_555 1_555
H2 C2 1_555 1_555
H3 C2 1_555 1_555
H4 C4 1_555 1_555
H5 C5 1_555 1_555
H6 C6 1_555 1_555
H7 C7 1_555 1_555
H8 C8 1_555 1_555
H9 C10 1_555 1_555
H10 C11 1_555 1_555
H11 C12 1_555 1_555
H12 C13 1_555 1_555
H13 C14 1_555 1_555
H14 C16 1_555 1_555
H15 C17 1_555 1_555
H16 C18 1_555 1_555
H17 C19 1_555 1_555
H18 C20 1_555 1_555
C1A O2 1_555 1_555
O2A C1 1_555 1_555
O1A C1A 1_555 1_555
C2A C1A 1_555 1_555
Sn1A O2A 1_555 1_555
Sn1A_2 O1A 1_555 1_555
H1A C2A 1_555 1_555
H2A C2A 1_555 1_555
H3A C2A 1_555 1_555
O1A_2 Sn1A 1_555 1_555
C3A Sn1A 1_555 1_555
C9A Sn1A 1_555 1_555
C15A Sn1A 1_555 1_555
C4A C3A 1_555 1_555
C8A C3A 1_555 1_555
C10A C9A 1_555 1_555
C14A C9A 1_555 1_555
C16A C15A 1_555 1_555
C20A C15A 1_555 1_555
C5A C4A 1_555 1_555
H4A C4A 1_555 1_555
C7A C8A 1_555 1_555
H8A C8A 1_555 1_555
C11A C10A 1_555 1_555
H9A C10A 1_555 1_555
C13A C14A 1_555 1_555
H13A C14A 1_555 1_555
C17A C16A 1_555 1_555
H14A C16A 1_555 1_555
C19A C20A 1_555 1_555
H18A C20A 1_555 1_555
C6A C5A 1_555 1_555
H5A C5A 1_555 1_555
H7A C7A 1_555 1_555
C12A C11A 1_555 1_555
H10A C11A 1_555 1_555
H12A C13A 1_555 1_555
C18A C17A 1_555 1_555
H15A C17A 1_555 1_555
H17A C19A 1_555 1_555
H6A C6A 1_555 1_555
H11A C12A 1_555 1_555
H16A C18A 1_555 1_555
C7 C8 1_555 1_555
C13 C14 1_555 1_555
C19 C20 1_555 1_555
C7A C6A 1_555 1_555
C13A C12A 1_555 1_555
C19A C18A 1_555 1_555

#END
