
#######################################################################
#
#                 Cambridge Crystallographic Data Centre
#                                CCDC 
#
#######################################################################
#
# If this CIF has been generated from an entry in the Cambridge 
# Structural Database, then it will include bibliographic, chemical, 
# crystal, experimental, refinement or atomic coordinate data resulting 
# from the CCDC's data processing and validation procedures.
#
#######################################################################

data_CIZTIP
_symmetry_cell_setting           orthorhombic
_symmetry_space_group_name_H-M   'F d d 2'
_symmetry_Int_Tables_number      43
_space_group_name_Hall           'F 2 -2d'
loop_
_symmetry_equiv_pos_site_id
_symmetry_equiv_pos_as_xyz
1 x,y,z
2 -x,-y,z
3 1/4+x,1/4-y,1/4+z
4 1/4-x,1/4+y,1/4+z
5 x,1/2+y,1/2+z
6 -x,1/2-y,1/2+z
7 1/4+x,3/4-y,3/4+z
8 1/4-x,3/4+y,3/4+z
9 1/2+x,y,1/2+z
10 1/2-x,-y,1/2+z
11 3/4+x,1/4-y,3/4+z
12 3/4-x,1/4+y,3/4+z
13 1/2+x,1/2+y,z
14 1/2-x,1/2-y,z
15 3/4+x,3/4-y,1/4+z
16 3/4-x,3/4+y,1/4+z
_cell_length_a                   26.306(5)
_cell_length_b                   49.555(9)
_cell_length_c                   10.7101(19)
_cell_angle_alpha                90
_cell_angle_beta                 90
_cell_angle_gamma                90
_cell_volume                     13961.6
loop_
_atom_site_label
_atom_site_type_symbol
_atom_site_fract_x
_atom_site_fract_y
_atom_site_fract_z
Ag1 Ag 0.28576(2) 0.172408(10) 1.01789(5)
Ag2 Ag 0.396029(18) 0.257213(9) 0.60510(5)
Ag3 Ag 0.519003(18) 0.156209(9) 0.81402(5)
P1 P 0.34624(6) 0.21591(3) 0.81282(15)
N1 N 0.34885(18) 0.18606(9) 0.8723(5)
P2 P 0.39384(6) 0.16579(3) 0.83328(14)
N2 N 0.40042(18) 0.22522(9) 0.7513(5)
P3 P 0.45472(6) 0.21117(3) 0.78059(15)
N3 N 0.44835(18) 0.18083(9) 0.8324(5)
N4 N 0.3238(2) 0.23531(11) 0.9236(5)
H1 H 0.3026 0.2484 0.9040
C1 C 0.3381(3) 0.23154(13) 1.0534(6)
H2 H 0.3446 0.2495 1.0909
H3 H 0.3702 0.2212 1.0564
C2 C 0.2992(3) 0.21717(14) 1.1315(6)
H4 H 0.3104 0.2095 1.2079
C3 C 0.2517(3) 0.21448(14) 1.1030(7)
H5 H 0.2390 0.2219 1.0273
H6 H 0.2294 0.2051 1.1576
N5 N 0.3929(2) 0.14095(10) 0.9320(5)
H7 H 0.3918 0.1243 0.9038
C4 C 0.3939(3) 0.14569(13) 1.0681(6)
H8 H 0.4054 0.1644 1.0843
H9 H 0.4189 0.1333 1.1069
C5 C 0.3427(3) 0.14146(14) 1.1284(7)
H10 H 0.3377 0.1501 1.2066
C6 C 0.3046(3) 0.12752(14) 1.0869(8)
H11 H 0.3072 0.1184 1.0092
H12 H 0.2741 0.1264 1.1341
N6 N 0.49251(19) 0.22579(10) 0.8811(5)
H13 H 0.5154 0.2372 0.8530
C7 C 0.4902(2) 0.22079(13) 1.0145(6)
H14 H 0.4622 0.2079 1.0313
H15 H 0.4818 0.2379 1.0574
C8 C 0.5389(2) 0.20958(12) 1.0704(7)
H16 H 0.5394 0.2068 1.1581
C9 C 0.5807(3) 0.20339(12) 1.0071(7)
H17 H 0.5818 0.2059 0.9192
H18 H 0.6095 0.1965 1.0498
N7 N 0.3040(2) 0.22064(11) 0.7026(5)
H19 H 0.2754 0.2290 0.7199
C10 C 0.3136(3) 0.21104(13) 0.5753(6)
H20 H 0.2837 0.2007 0.5466
H21 H 0.3430 0.1986 0.5770
C11 C 0.3243(3) 0.23327(14) 0.4821(6)
H22 H 0.3412 0.2285 0.4068
C12 C 0.3116(3) 0.25963(16) 0.4988(8)
H23 H 0.2947 0.2651 0.5730
H24 H 0.3195 0.2725 0.4362
N8 N 0.3851(2) 0.15383(10) 0.6937(5)
H25 H 0.4113 0.1534 0.6430
C13 C 0.3359(2) 0.14371(13) 0.6464(6)
H26 H 0.3381 0.1413 0.5548
H27 H 0.3091 0.1572 0.6638
C14 C 0.3219(3) 0.11747(12) 0.7058(6)
H28 H 0.3457 0.1031 0.7016
C15 C 0.2785(3) 0.11316(13) 0.7634(7)
H29 H 0.2540 0.1272 0.7691
H30 H 0.2717 0.0960 0.7994
N9 N 0.4858(2) 0.21506(10) 0.6489(5)
H31 H 0.4705 0.2233 0.5866
C16 C 0.5382(2) 0.20527(13) 0.6307(6)
H32 H 0.5590 0.2112 0.7026
H33 H 0.5523 0.2139 0.5549
C17 C 0.5434(3) 0.17507(13) 0.6173(7)
H34 H 0.5165 0.1656 0.5774
C18 C 0.5827(3) 0.16091(15) 0.6572(7)
H35 H 0.6103 0.1697 0.6975
H36 H 0.5835 0.1419 0.6456
Cl1 Cl 0.17174(7) 0.18686(4) 0.8362(2)
O1 O 0.2135(3) 0.16883(13) 0.8702(9)
O2 O 0.1476(2) 0.19327(15) 0.9466(7)
O3 O 0.1400(3) 0.17303(12) 0.7499(7)
O4 O 0.1938(2) 0.21057(11) 0.7826(6)
Ag2E Ag 0.603971(18) 0.242787(9) 1.10510(5)
Ag3J Ag 0.269003(18) 0.093791(9) 0.56402(5)
C8E C 0.4611(2) 0.29042(12) 0.5704(7)
H16E H 0.4606 0.2932 0.6581
C9E C 0.4193(3) 0.29661(12) 0.5071(7)
H17E H 0.4182 0.2941 0.4192
H18E H 0.3905 0.3035 0.5498
C14B C 0.5719(3) 0.13253(12) 0.9558(6)
H28B H 0.5957 0.1469 0.9516
C15B C 0.5285(3) 0.13684(13) 1.0134(7)
H29B H 0.5040 0.1228 1.0191
H30B H 0.5217 0.1540 1.0494
Cl2 Cl 0.44299(7) 0.19516(5) 0.33629(18)
O5 O 0.4222(2) 0.18473(17) 0.4487(5)
O6 O 0.4767(4) 0.21540(14) 0.3620(7)
O7 O 0.4060(3) 0.20151(17) 0.2510(6)
O8 O 0.4737(3) 0.17459(14) 0.2768(7)
Cl3 Cl 0.47134(6) 0.09609(3) 0.63986(15)
O9 O 0.5197(2) 0.08545(14) 0.6093(6)
O10 O 0.4580(3) 0.11762(12) 0.5520(6)
O11 O 0.4342(3) 0.07638(12) 0.6287(7)
O12 O 0.4714(2) 0.10701(13) 0.7636(6)
loop_
_geom_bond_atom_site_label_1
_geom_bond_atom_site_label_2
_geom_bond_site_symmetry_1
_geom_bond_site_symmetry_2
Ag1 N1 1_555 1_555
Ag2 N2 1_555 1_555
Ag3 N3 1_555 1_555
P1 N1 1_555 1_555
N1 P2 1_555 1_555
P2 N3 1_555 1_555
N2 P1 1_555 1_555
P3 N2 1_555 1_555
N3 P3 1_555 1_555
N4 P1 1_555 1_555
H1 N4 1_555 1_555
C1 N4 1_555 1_555
H2 C1 1_555 1_555
H3 C1 1_555 1_555
C2 Ag1 1_555 1_555
H4 C2 1_555 1_555
C3 Ag1 1_555 1_555
H5 C3 1_555 1_555
H6 C3 1_555 1_555
N5 P2 1_555 1_555
H7 N5 1_555 1_555
C4 N5 1_555 1_555
H8 C4 1_555 1_555
H9 C4 1_555 1_555
C5 Ag1 1_555 1_555
H10 C5 1_555 1_555
C6 Ag1 1_555 1_555
H11 C6 1_555 1_555
H12 C6 1_555 1_555
N6 P3 1_555 1_555
H13 N6 1_555 1_555
C7 N6 1_555 1_555
H14 C7 1_555 1_555
H15 C7 1_555 1_555
C8 C7 1_555 1_555
H16 C8 1_555 1_555
C9 C8 1_555 1_555
H17 C9 1_555 1_555
H18 C9 1_555 1_555
N7 P1 1_555 1_555
H19 N7 1_555 1_555
C10 N7 1_555 1_555
H20 C10 1_555 1_555
H21 C10 1_555 1_555
C11 Ag2 1_555 1_555
H22 C11 1_555 1_555
C12 Ag2 1_555 1_555
H23 C12 1_555 1_555
H24 C12 1_555 1_555
N8 P2 1_555 1_555
H25 N8 1_555 1_555
C13 N8 1_555 1_555
H26 C13 1_555 1_555
H27 C13 1_555 1_555
C14 C13 1_555 1_555
H28 C14 1_555 1_555
C15 C14 1_555 1_555
H29 C15 1_555 1_555
H30 C15 1_555 1_555
N9 P3 1_555 1_555
H31 N9 1_555 1_555
C16 N9 1_555 1_555
H32 C16 1_555 1_555
H33 C16 1_555 1_555
C17 Ag3 1_555 1_555
H34 C17 1_555 1_555
C18 Ag3 1_555 1_555
H35 C18 1_555 1_555
H36 C18 1_555 1_555
Cl1 O1 1_555 1_555
O1 Ag1 1_555 1_555
O2 Cl1 1_555 1_555
O3 Cl1 1_555 1_555
O4 Cl1 1_555 1_555
Cl2 O5 1_555 1_555
O6 Cl2 1_555 1_555
O7 Cl2 1_555 1_555
O8 Cl2 1_555 1_555
Cl3 O9 1_555 1_555
O10 Cl3 1_555 1_555
O11 Cl3 1_555 1_555
O12 Cl3 1_555 1_555
Ag2E C8 1_555 1_555
Ag3J C14 1_555 1_555
C8E Ag2 1_555 1_555
H16E C8E 1_555 1_555
C9E Ag2 1_555 1_555
H17E C9E 1_555 1_555
H18E C9E 1_555 1_555
C14B Ag3 1_555 1_555
H28B C14B 1_555 1_555
C15B Ag3 1_555 1_555
H29B C15B 1_555 1_555
H30B C15B 1_555 1_555
C1 C2 1_555 1_555
C2 C3 1_555 1_555
C4 C5 1_555 1_555
C5 C6 1_555 1_555
C9 Ag2E 1_555 1_555
C10 C11 1_555 1_555
C11 C12 1_555 1_555
C15 Ag3J 1_555 1_555
C16 C17 1_555 1_555
C17 C18 1_555 1_555
C8E C9E 1_555 1_555
C14B C15B 1_555 1_555

#END
