
#######################################################################
#
#                 Cambridge Crystallographic Data Centre
#                                CCDC 
#
#######################################################################
#
# If this CIF has been generated from an entry in the Cambridge 
# Structural Database, then it will include bibliographic, chemical, 
# crystal, experimental, refinement or atomic coordinate data resulting 
# from the CCDC's data processing and validation procedures.
#
#######################################################################

data_CIZTEL
_symmetry_cell_setting           monoclinic
_symmetry_space_group_name_H-M   'C 2/c'
_symmetry_Int_Tables_number      15
_space_group_name_Hall           '-C 2yn'
loop_
_symmetry_equiv_pos_site_id
_symmetry_equiv_pos_as_xyz
1 x,y,z
2 1/2+x,1/2+y,z
3 -x,y,1/2-z
4 1/2-x,1/2+y,1/2-z
5 -x,-y,-z
6 1/2-x,1/2-y,-z
7 x,-y,1/2+z
8 1/2+x,1/2-y,1/2+z
_cell_length_a                   22.012(3)
_cell_length_b                   15.727(2)
_cell_length_c                   11.7810(18)
_cell_angle_alpha                90
_cell_angle_beta                 101.206(3)
_cell_angle_gamma                90
_cell_volume                     4000.62
loop_
_atom_site_label
_atom_site_type_symbol
_atom_site_fract_x
_atom_site_fract_y
_atom_site_fract_z
Ag1 Ag 0.853462(19) 0.67711(3) 0.30529(4)
Ag2 Ag 1.0000 1.03916(3) 0.2500
P1 P 1.0000 0.68977(11) 0.2500
P2 P 0.95667(6) 0.84507(8) 0.32320(10)
N1 N 0.94586(18) 0.7476(2) 0.2848(3)
N2 N 1.0000 0.8961(3) 0.2500
N3 N 0.96422(19) 0.6248(3) 0.1520(4)
H1 H 0.9811 0.5745 0.1468
C1 C 0.9065(3) 0.6433(4) 0.0722(5)
H2 H 0.9088 0.6197 -0.0048
H3 H 0.9018 0.7057 0.0639
C2 C 0.8509(3) 0.6077(4) 0.1100(5)
H4 H 0.8116 0.6289 0.0728
C3 C 0.8515(3) 0.5490(4) 0.1914(6)
H5 H 0.8897 0.5261 0.2309
H6 H 0.8137 0.5299 0.2101
N4 N 0.88782(17) 0.8857(3) 0.3119(3)
H7 H 0.8813 0.9211 0.3661
C4 C 0.8366(2) 0.8671(3) 0.2176(4)
H8 H 0.8530 0.8422 0.1525
H9 H 0.8152 0.9208 0.1902
C5 C 0.7900(3) 0.8059(4) 0.2522(6)
H10 H 0.7614 0.7798 0.1915
C6 C 0.7856(3) 0.7861(4) 0.3580(6)
H11 H 0.8132 0.8108 0.4215
H12 H 0.7549 0.7471 0.3714
N5 N 0.98838(19) 0.8604(3) 0.4592(3)
H13 H 1.0173 0.8994 0.4771
C7 C 0.9698(2) 0.8108(3) 0.5515(4)
H14 H 1.0075 0.7879 0.6021
H15 H 0.9447 0.7618 0.5164
C8 C 0.9335(2) 0.8590(3) 0.6243(4)
H16 H 0.9237 0.8309 0.6898
C9 C 0.9137(2) 0.9388(3) 0.6043(4)
H17 H 0.9226 0.9690 0.5396
H18 H 0.8907 0.9655 0.6548
O1 O 0.8754(3) 0.6034(5) 0.4786(5)
Ag1B Ag 1.146538(19) 0.67711(3) 0.19471(4)
Ag2F Ag 1.0000 0.96084(3) 0.7500
Ag2F_2 Ag 1.0000 0.96084(3) -0.2500
P2B P 1.04333(6) 0.84507(8) 0.17680(10)
N1B N 1.05414(18) 0.7476(2) 0.2152(3)
N3B N 1.03578(19) 0.6248(3) 0.3480(4)
H1B H 1.0189 0.5745 0.3532
C1B C 1.0935(3) 0.6433(4) 0.4278(5)
H2B H 1.0912 0.6197 0.5048
H3B H 1.0982 0.7057 0.4361
C2B C 1.1491(3) 0.6077(4) 0.3900(5)
H4B H 1.1884 0.6289 0.4272
C3B C 1.1485(3) 0.5490(4) 0.3086(6)
H5B H 1.1103 0.5261 0.2691
H6B H 1.1863 0.5299 0.2899
N4B N 1.11218(17) 0.8857(3) 0.1881(3)
H7B H 1.1187 0.9211 0.1339
C4B C 1.1634(2) 0.8671(3) 0.2824(4)
H8B H 1.1470 0.8422 0.3475
H9B H 1.1848 0.9208 0.3098
C5B C 1.2100(3) 0.8059(4) 0.2478(6)
H10B H 1.2386 0.7798 0.3085
C6B C 1.2144(3) 0.7861(4) 0.1420(6)
H11B H 1.1868 0.8108 0.0785
H12B H 1.2451 0.7471 0.1286
N5B N 1.01162(19) 0.8604(3) 0.0408(3)
H13B H 0.9827 0.8994 0.0229
C7B C 1.0302(2) 0.8108(3) -0.0515(4)
H14B H 0.9925 0.7879 -0.1021
H15B H 1.0553 0.7618 -0.0164
C8B C 1.0665(2) 0.8590(3) -0.1243(4)
C8F C 0.9335(2) 1.1410(3) 0.1243(4)
C8D C 1.0665(2) 1.1410(3) 0.3757(4)
H16B H 1.0763 0.8309 -0.1898
H16F H 0.9237 1.1691 0.1898
H16D H 1.0763 1.1691 0.3102
C9B C 1.0863(2) 0.9388(3) -0.1043(4)
C9F C 0.9137(2) 1.0612(3) 0.1043(4)
C9D C 1.0863(2) 1.0612(3) 0.3957(4)
H17B H 1.0774 0.9690 -0.0396
H17F H 0.9226 1.0310 0.0396
H17D H 1.0774 1.0310 0.4604
H18B H 1.1093 0.9655 -0.1548
H18F H 0.8907 1.0345 0.1548
H18D H 1.1093 1.0345 0.3452
O1B O 1.1246(3) 0.6034(5) 0.0214(5)
O2 O 0.7617(3) 0.5349(4) 0.4407(5)
Cl1 Cl 0.66942(5) 0.60740(8) 0.13262(10)
O3 O 0.6867(2) 0.6701(3) 0.0596(4)
O4 O 0.6939(2) 0.5264(3) 0.1085(4)
O5 O 0.60318(16) 0.5977(3) 0.1151(3)
O6 O 0.69274(18) 0.6286(3) 0.2504(3)
Cl2 Cl 1.0000 0.61328(12) 0.7500
O7 O 0.9993(3) 0.5611(3) 0.6514(4)
O8 O 0.9464(2) 0.6665(3) 0.7332(6)
O7B O 1.0007(3) 0.5611(3) 0.8486(4)
O8B O 1.0536(2) 0.6665(3) 0.7668(6)
loop_
_geom_bond_atom_site_label_1
_geom_bond_atom_site_label_2
_geom_bond_site_symmetry_1
_geom_bond_site_symmetry_2
Ag1 N1 1_555 1_555
Ag2 N2 1_555 1_555
P1 N1 1_555 1_555
P2 N1 1_555 1_555
N2 P2 1_555 1_555
N3 P1 1_555 1_555
H1 N3 1_555 1_555
C1 N3 1_555 1_555
H2 C1 1_555 1_555
H3 C1 1_555 1_555
C2 Ag1 1_555 1_555
H4 C2 1_555 1_555
C3 Ag1 1_555 1_555
H5 C3 1_555 1_555
H6 C3 1_555 1_555
N4 P2 1_555 1_555
H7 N4 1_555 1_555
C4 N4 1_555 1_555
H8 C4 1_555 1_555
H9 C4 1_555 1_555
C5 Ag1 1_555 1_555
H10 C5 1_555 1_555
C6 Ag1 1_555 1_555
H11 C6 1_555 1_555
H12 C6 1_555 1_555
N5 P2 1_555 1_555
H13 N5 1_555 1_555
C7 N5 1_555 1_555
H14 C7 1_555 1_555
H15 C7 1_555 1_555
C8 C7 1_555 1_555
H16 C8 1_555 1_555
C9 C8 1_555 1_555
H17 C9 1_555 1_555
H18 C9 1_555 1_555
O1 Ag1 1_555 1_555
Cl1 O3 1_555 1_555
O4 Cl1 1_555 1_555
O5 Cl1 1_555 1_555
O6 Cl1 1_555 1_555
Cl2 O7 1_555 1_555
O8 Cl2 1_555 1_555
Ag1B N1B 1_555 1_555
Ag2F C8 1_555 1_555
Ag2F_2 C8B 1_555 1_555
P2B N2 1_555 1_555
N1B P1 1_555 1_555
N3B P1 1_555 1_555
H1B N3B 1_555 1_555
C1B N3B 1_555 1_555
H2B C1B 1_555 1_555
H3B C1B 1_555 1_555
C2B Ag1B 1_555 1_555
H4B C2B 1_555 1_555
C3B Ag1B 1_555 1_555
H5B C3B 1_555 1_555
H6B C3B 1_555 1_555
N4B P2B 1_555 1_555
H7B N4B 1_555 1_555
C4B N4B 1_555 1_555
H8B C4B 1_555 1_555
H9B C4B 1_555 1_555
C5B Ag1B 1_555 1_555
H10B C5B 1_555 1_555
C6B Ag1B 1_555 1_555
H11B C6B 1_555 1_555
H12B C6B 1_555 1_555
N5B P2B 1_555 1_555
H13B N5B 1_555 1_555
C7B N5B 1_555 1_555
H14B C7B 1_555 1_555
H15B C7B 1_555 1_555
C8B C7B 1_555 1_555
C8F Ag2 1_555 1_555
C8D Ag2 1_555 1_555
H16B C8B 1_555 1_555
H16F C8F 1_555 1_555
H16D C8D 1_555 1_555
C9B Ag2F_2 1_555 1_555
C9F Ag2 1_555 1_555
C9D Ag2 1_555 1_555
H17B C9B 1_555 1_555
H17F C9F 1_555 1_555
H17D C9D 1_555 1_555
H18B C9B 1_555 1_555
H18F C9F 1_555 1_555
H18D C9D 1_555 1_555
O1B Ag1B 1_555 1_555
O7B Cl2 1_555 1_555
O8B Cl2 1_555 1_555
C1 C2 1_555 1_555
C2 C3 1_555 1_555
C4 C5 1_555 1_555
C5 C6 1_555 1_555
C9 Ag2F 1_555 1_555
P2B N1B 1_555 1_555
C1B C2B 1_555 1_555
C2B C3B 1_555 1_555
C4B C5B 1_555 1_555
C5B C6B 1_555 1_555
C8B C9B 1_555 1_555
C8F C9F 1_555 1_555
C8D C9D 1_555 1_555

#END
