
#######################################################################
#
#                 Cambridge Crystallographic Data Centre
#                                CCDC 
#
#######################################################################
#
# If this CIF has been generated from an entry in the Cambridge 
# Structural Database, then it will include bibliographic, chemical, 
# crystal, experimental, refinement or atomic coordinate data resulting 
# from the CCDC's data processing and validation procedures.
#
#######################################################################

data_CIZZAO
_symmetry_cell_setting           orthorhombic
_symmetry_space_group_name_H-M   'P b c a'
_symmetry_Int_Tables_number      61
_space_group_name_Hall           '-P 2ac 2ab'
loop_
_symmetry_equiv_pos_site_id
_symmetry_equiv_pos_as_xyz
1 x,y,z
2 1/2+x,1/2-y,-z
3 -x,1/2+y,1/2-z
4 1/2-x,-y,1/2+z
5 -x,-y,-z
6 1/2-x,1/2+y,z
7 x,1/2-y,1/2+z
8 1/2+x,y,1/2-z
_cell_length_a                   13.9312(11)
_cell_length_b                   9.2315(7)
_cell_length_c                   27.423(2)
_cell_angle_alpha                90
_cell_angle_beta                 90
_cell_angle_gamma                90
_cell_volume                     3526.76
loop_
_atom_site_label
_atom_site_type_symbol
_atom_site_fract_x
_atom_site_fract_y
_atom_site_fract_z
Zn1 Zn 0.50231(2) 0.19828(2) 0.37062(2)
O1 O 0.36966(7) -0.12202(11) 0.28089(3)
O2 O 0.41756(7) 0.03163(10) 0.34019(3)
O3 O 0.34564(7) 0.50414(11) 0.45261(4)
O4 O 0.40466(7) 0.31264(10) 0.41189(3)
O5 O 0.51731(9) 0.06806(12) 0.43673(4)
H1 H 0.5088(13) -0.014(3) 0.4428(7)
H2 H 0.5083(14) 0.119(3) 0.4611(9)
N1 N 0.61097(8) 0.33622(12) 0.39350(4)
N2 N 0.61290(8) 0.12889(12) 0.32640(4)
N3 N 0.53603(9) -0.15532(13) 0.19114(4)
N4 N 0.50550(9) 0.76393(14) 0.47291(4)
C1 C 0.70235(10) 0.29789(13) 0.37492(4)
C2 C 0.79016(10) 0.35644(14) 0.38978(5)
H3 H 0.7915 0.4271 0.4150
C3 C 0.87537(10) 0.31270(14) 0.36822(5)
H4 H 0.9342 0.3561 0.3779
C4 C 0.87557(10) 0.20536(14) 0.33235(5)
H5 H 0.9342 0.1760 0.3177
C5 C 0.78987(10) 0.14213(14) 0.31837(5)
H6 H 0.7900 0.0664 0.2949
C6 C 0.70280(10) 0.18889(14) 0.33858(4)
C7 C 0.60147(10) 0.06126(13) 0.28535(4)
H7 H 0.6540 0.0611 0.2633
C8 C 0.51716(10) -0.01222(15) 0.27076(5)
C9 C 0.43345(10) -0.02889(14) 0.30044(4)
C10 C 0.52453(9) -0.09216(15) 0.22679(5)
C11 C 0.29041(10) -0.17030(16) 0.31142(5)
H8 H 0.2381 -0.2080 0.2906
H9 H 0.2650 -0.0872 0.3303
C12 C 0.32314(12) -0.28751(16) 0.34613(6)
H10 H 0.3535 -0.3660 0.3276
H11 H 0.2677 -0.3256 0.3640
H12 H 0.3695 -0.2470 0.3693
C13 C 0.59711(10) 0.46053(14) 0.41516(4)
H13 H 0.6510 0.5226 0.4188
C14 C 0.50756(10) 0.51032(15) 0.43377(5)
C15 C 0.50610(9) 0.64963(16) 0.45565(5)
C16 C 0.41851(10) 0.43285(14) 0.43127(4)
C17 C 0.25169(11) 0.43452(17) 0.45179(5)
H14 H 0.2435 0.3821 0.4206
H15 H 0.2010 0.5093 0.4539
C18 C 0.24101(12) 0.32972(19) 0.49360(5)
H16 H 0.2945 0.2609 0.4932
H17 H 0.1803 0.2770 0.4903
H18 H 0.2412 0.3832 0.5245
Zn1B Zn 0.49769(2) -0.30172(2) 0.12938(2)
N3B N 0.46397(9) 0.34468(13) 0.30886(4)
loop_
_geom_bond_atom_site_label_1
_geom_bond_atom_site_label_2
_geom_bond_site_symmetry_1
_geom_bond_site_symmetry_2
Zn1 O2 1_555 1_555
O1 C9 1_555 1_555
O2 C9 1_555 1_555
O3 C16 1_555 1_555
O4 Zn1 1_555 1_555
O5 Zn1 1_555 1_555
H1 O5 1_555 1_555
H2 O5 1_555 1_555
N1 Zn1 1_555 1_555
N2 Zn1 1_555 1_555
N3 C10 1_555 1_555
N4 C15 1_555 1_555
C1 N1 1_555 1_555
C2 C1 1_555 1_555
H3 C2 1_555 1_555
C3 C2 1_555 1_555
H4 C3 1_555 1_555
C4 C3 1_555 1_555
H5 C4 1_555 1_555
C5 C4 1_555 1_555
H6 C5 1_555 1_555
C6 N2 1_555 1_555
C7 N2 1_555 1_555
H7 C7 1_555 1_555
C8 C7 1_555 1_555
C9 C8 1_555 1_555
C10 C8 1_555 1_555
C11 O1 1_555 1_555
H8 C11 1_555 1_555
H9 C11 1_555 1_555
C12 C11 1_555 1_555
H10 C12 1_555 1_555
H11 C12 1_555 1_555
H12 C12 1_555 1_555
C13 N1 1_555 1_555
H13 C13 1_555 1_555
C14 C13 1_555 1_555
C15 C14 1_555 1_555
C16 O4 1_555 1_555
C17 O3 1_555 1_555
H14 C17 1_555 1_555
H15 C17 1_555 1_555
C18 C17 1_555 1_555
H16 C18 1_555 1_555
H17 C18 1_555 1_555
H18 C18 1_555 1_555
Zn1B N3 1_555 1_555
N3B Zn1 1_555 1_555
C1 C6 1_555 1_555
C5 C6 1_555 1_555
C14 C16 1_555 1_555

#END
