
#######################################################################
#
#                 Cambridge Crystallographic Data Centre
#                                CCDC 
#
#######################################################################
#
# If this CIF has been generated from an entry in the Cambridge 
# Structural Database, then it will include bibliographic, chemical, 
# crystal, experimental, refinement or atomic coordinate data resulting 
# from the CCDC's data processing and validation procedures.
#
#######################################################################

data_CLBITV
_symmetry_cell_setting           monoclinic
_symmetry_space_group_name_H-M   'C 2/c'
_symmetry_Int_Tables_number      15
_space_group_name_Hall           '-C 2yn'
loop_
_symmetry_equiv_pos_site_id
_symmetry_equiv_pos_as_xyz
1 x,y,z
2 1/2+x,1/2+y,z
3 -x,y,1/2-z
4 1/2-x,1/2+y,1/2-z
5 -x,-y,-z
6 1/2-x,1/2-y,-z
7 x,-y,1/2+z
8 1/2+x,1/2-y,1/2+z
_cell_length_a                   9.595(1)
_cell_length_b                   17.445(2)
_cell_length_c                   8.678(1)
_cell_angle_alpha                90
_cell_angle_beta                 96.72(1)
_cell_angle_gamma                90
_cell_volume                     1442.59
loop_
_atom_site_label
_atom_site_type_symbol
_atom_site_fract_x
_atom_site_fract_y
_atom_site_fract_z
Bi1 Bi 0.00000 0.10670 0.25000
Cl1 Cl 0.00000 0.00000 0.00000
Cl2 Cl 0.28320 0.11450 0.29160
S1 S -0.00190 0.21220 0.02120
N1 N 0.05100 0.36100 0.05000
N2 N 0.20300 0.29200 0.20100
C1 C 0.09000 0.29100 0.09600
C2 C 0.15400 0.42000 0.11700
C3 C 0.25200 0.37100 0.23400
Cl1B Cl 0.00000 0.00000 0.50000
Cl2B Cl -0.28320 0.11450 0.20840
S1B S 0.00190 0.21220 0.47880
Bi1D Bi 0.00000 -0.10670 -0.25000
Bi1D_2 Bi 0.00000 -0.10670 0.75000
C1B C -0.09000 0.29100 0.40400
Cl1B_2 Cl 0.00000 0.00000 -0.50000
Cl2D Cl -0.28320 -0.11450 -0.29160
Cl2F Cl 0.28320 -0.11450 -0.20840
S1D S 0.00190 -0.21220 -0.02120
S1F S -0.00190 -0.21220 -0.47880
N1B N -0.05100 0.36100 0.45000
N2B N -0.20300 0.29200 0.29900
C1D C -0.09000 -0.29100 -0.09600
C1F C 0.09000 -0.29100 -0.40400
C2B C -0.15400 0.42000 0.38300
C3B C -0.25200 0.37100 0.26600
N1D N -0.05100 -0.36100 -0.05000
N2D N -0.20300 -0.29200 -0.20100
N1F N 0.05100 -0.36100 -0.45000
N2F N 0.20300 -0.29200 -0.29900
C2D C -0.15400 -0.42000 -0.11700
C3D C -0.25200 -0.37100 -0.23400
C2F C 0.15400 -0.42000 -0.38300
C3F C 0.25200 -0.37100 -0.26600
loop_
_geom_bond_atom_site_label_1
_geom_bond_atom_site_label_2
_geom_bond_site_symmetry_1
_geom_bond_site_symmetry_2
Bi1 Cl1 1_555 1_555
Cl1 Bi1D 1_555 1_555
Cl2 Bi1 1_555 1_555
S1 Bi1 1_555 1_555
N1 C1 1_555 1_555
N2 C1 1_555 1_555
C1 S1 1_555 1_555
C2 N1 1_555 1_555
C3 N2 1_555 1_555
Cl1B Bi1 1_555 1_555
Cl2B Bi1 1_555 1_555
S1B Bi1 1_555 1_555
Bi1D Cl1B_2 1_555 1_555
Bi1D_2 Cl1B 1_555 1_555
C1B S1B 1_555 1_555
Cl2D Bi1D 1_555 1_555
Cl2F Bi1D 1_555 1_555
S1D Bi1D 1_555 1_555
S1F Bi1D 1_555 1_555
N1B C1B 1_555 1_555
N2B C1B 1_555 1_555
C1D S1D 1_555 1_555
C1F S1F 1_555 1_555
C2B N1B 1_555 1_555
C3B N2B 1_555 1_555
N1D C1D 1_555 1_555
N2D C1D 1_555 1_555
N1F C1F 1_555 1_555
N2F C1F 1_555 1_555
C2D N1D 1_555 1_555
C3D N2D 1_555 1_555
C2F N1F 1_555 1_555
C3F N2F 1_555 1_555
C2 C3 1_555 1_555
C2B C3B 1_555 1_555
C2D C3D 1_555 1_555
C2F C3F 1_555 1_555

#END
