
#######################################################################
#
#                 Cambridge Crystallographic Data Centre
#                                CCDC 
#
#######################################################################
#
# If this CIF has been generated from an entry in the Cambridge 
# Structural Database, then it will include bibliographic, chemical, 
# crystal, experimental, refinement or atomic coordinate data resulting 
# from the CCDC's data processing and validation procedures.
#
#######################################################################

data_CLIMCD
_symmetry_cell_setting           monoclinic
_symmetry_space_group_name_H-M   'P 21/c'
_symmetry_Int_Tables_number      14
_space_group_name_Hall           '-P 2ybc'
loop_
_symmetry_equiv_pos_site_id
_symmetry_equiv_pos_as_xyz
1 x,y,z
2 -x,1/2+y,1/2-z
3 -x,-y,-z
4 x,1/2-y,1/2+z
_cell_length_a                   3.904(3)
_cell_length_b                   13.04(1)
_cell_length_c                   9.89(1)
_cell_angle_alpha                90
_cell_angle_beta                 93.7(1)
_cell_angle_gamma                90
_cell_volume                     502.432
loop_
_atom_site_label
_atom_site_type_symbol
_atom_site_fract_x
_atom_site_fract_y
_atom_site_fract_z
Cd1 Cd 0.00000 0.00000 0.00000
Cl1 Cl 0.47300 0.00990 -0.19130
C1 C 0.15350 0.22530 0.11820
C2 C -0.09420 0.33810 -0.01810
C3 C -0.15330 0.24300 -0.06760
H1 H 0.28300 0.19100 0.19200
H2 H 0.18500 0.37000 0.15300
H3 H -0.18100 0.40600 -0.04900
H4 H -0.29700 0.21900 -0.14900
N1 N 0.00190 0.17180 0.01870
N2 N 0.10090 0.32580 0.10000
Cl1_2 Cl -0.52700 0.00990 -0.19130
Cl1B Cl -0.47300 -0.00990 0.19130
Cl1B_2 Cl 0.52700 -0.00990 0.19130
N1B N -0.00190 -0.17180 -0.01870
Cd1_2 Cd 1.00000 0.00000 0.00000
C1B C -0.15350 -0.22530 -0.11820
C3B C 0.15330 -0.24300 0.06760
H1B H -0.28300 -0.19100 -0.19200
N2B N -0.10090 -0.32580 -0.10000
C2B C 0.09420 -0.33810 0.01810
H4B H 0.29700 -0.21900 0.14900
H2B H -0.18500 -0.37000 -0.15300
H3B H 0.18100 -0.40600 0.04900
loop_
_geom_bond_atom_site_label_1
_geom_bond_atom_site_label_2
_geom_bond_site_symmetry_1
_geom_bond_site_symmetry_2
Cd1 Cl1 1_555 1_555
Cl1 Cd1_2 1_555 1_555
C1 H1 1_555 1_555
C2 C3 1_555 1_555
C3 H4 1_555 1_555
H2 N2 1_555 1_555
H3 C2 1_555 1_555
N1 Cd1 1_555 1_555
N2 C1 1_555 1_555
Cl1_2 Cd1 1_555 1_555
Cl1B Cd1 1_555 1_555
Cl1B_2 Cd1 1_555 1_555
N1B Cd1 1_555 1_555
Cd1_2 Cl1B_2 1_555 1_555
C1B N1B 1_555 1_555
C3B N1B 1_555 1_555
H1B C1B 1_555 1_555
N2B C1B 1_555 1_555
C2B C3B 1_555 1_555
H4B C3B 1_555 1_555
H2B N2B 1_555 1_555
H3B C2B 1_555 1_555
C1 N1 1_555 1_555
C2 N2 1_555 1_555
C3 N1 1_555 1_555
N2B C2B 1_555 1_555

#END
