
#######################################################################
#
#                 Cambridge Crystallographic Data Centre
#                                CCDC 
#
#######################################################################
#
# If this CIF has been generated from an entry in the Cambridge 
# Structural Database, then it will include bibliographic, chemical, 
# crystal, experimental, refinement or atomic coordinate data resulting 
# from the CCDC's data processing and validation procedures.
#
#######################################################################

data_CLIMZC
_symmetry_cell_setting           orthorhombic
_symmetry_space_group_name_H-M   'P b n 21'
_symmetry_Int_Tables_number      33
_space_group_name_Hall           'P 2c -2ab'
loop_
_symmetry_equiv_pos_site_id
_symmetry_equiv_pos_as_xyz
1 x,y,z
2 -x,-y,1/2+z
3 1/2-x,1/2+y,z
4 1/2+x,1/2-y,1/2+z
_cell_length_a                   15.305(5)
_cell_length_b                   11.102(5)
_cell_length_c                   3.838(5)
_cell_angle_alpha                90
_cell_angle_beta                 90
_cell_angle_gamma                90
_cell_volume                     652.138
loop_
_atom_site_label
_atom_site_type_symbol
_atom_site_fract_x
_atom_site_fract_y
_atom_site_fract_z
Cd1 Cd 0.41040 -0.39790 0.00000
Cl1 Cl 0.41610 -0.57240 0.50000
Cl2 Cl 0.42230 -0.24040 0.50000
C1 C 0.21290 -0.31230 0.09840
C2 C 0.12500 -0.44760 -0.10960
C3 C 0.20770 -0.48730 -0.13410
H1 H 0.23640 -0.22990 0.21480
H2 H 0.07470 -0.28020 0.11000
H3 H 0.06670 -0.49390 -0.19470
H4 H 0.22700 -0.57380 -0.23710
N1 N 0.26390 -0.40160 -0.00790
N2 N 0.12940 -0.33720 0.04410
Cl1_2 Cl 0.41610 -0.57240 -0.50000
Cl1A Cl 0.58390 -0.42760 0.00000
Cl2_2 Cl 0.42230 -0.24040 -0.50000
Cd1_2 Cd 0.41040 -0.39790 1.00000
Cd1A Cd 0.58960 -0.60210 0.50000
Cd1A_2 Cd 0.58960 -0.60210 -0.50000
Cl1A_2 Cl 0.58390 -0.42760 1.00000
Cl2A Cl 0.57770 -0.75960 1.00000
Cl2A_2 Cl 0.57770 -0.75960 0.00000
N1A N 0.73610 -0.59840 0.49210
Cd1A_3 Cd 0.58960 -0.60210 1.50000
C1A C 0.78710 -0.68770 0.59840
C3A C 0.79230 -0.51270 0.36590
H1A H 0.76360 -0.77010 0.71480
N2A N 0.87060 -0.66280 0.54410
C2A C 0.87500 -0.55240 0.39040
H4A H 0.77300 -0.42620 0.26290
H2A H 0.92530 -0.71980 0.61000
H3A H 0.93330 -0.50610 0.30530
loop_
_geom_bond_atom_site_label_1
_geom_bond_atom_site_label_2
_geom_bond_site_symmetry_1
_geom_bond_site_symmetry_2
Cd1 Cl1 1_555 1_555
Cl1 Cd1_2 1_555 1_555
Cl2 Cd1 1_555 1_555
C1 H1 1_555 1_555
C2 C3 1_555 1_555
C3 H4 1_555 1_555
H2 N2 1_555 1_555
H3 C2 1_555 1_555
N1 Cd1 1_555 1_555
N2 C1 1_555 1_555
Cl1_2 Cd1 1_555 1_555
Cl1A Cd1 1_555 1_555
Cl2_2 Cd1 1_555 1_555
Cd1_2 Cl2 1_555 1_555
Cd1A Cl1 1_555 1_555
Cd1A_2 Cl1A 1_555 1_555
Cl1A_2 Cd1A 1_555 1_555
Cl2A Cd1A 1_555 1_555
Cl2A_2 Cd1A 1_555 1_555
N1A Cd1A 1_555 1_555
Cd1A_3 Cl2A 1_555 1_555
C1A N1A 1_555 1_555
C3A N1A 1_555 1_555
H1A C1A 1_555 1_555
N2A C1A 1_555 1_555
C2A C3A 1_555 1_555
H4A C3A 1_555 1_555
H2A N2A 1_555 1_555
H3A C2A 1_555 1_555
C1 N1 1_555 1_555
C2 N2 1_555 1_555
C3 N1 1_555 1_555
Cl1A Cd1A 1_555 1_555
N2A C2A 1_555 1_555

#END
