
#######################################################################
#
#                 Cambridge Crystallographic Data Centre
#                                CCDC 
#
#######################################################################
#
# If this CIF has been generated from an entry in the Cambridge 
# Structural Database, then it will include bibliographic, chemical, 
# crystal, experimental, refinement or atomic coordinate data resulting 
# from the CCDC's data processing and validation procedures.
#
#######################################################################

data_CLNCHG
_symmetry_cell_setting           orthorhombic
_symmetry_space_group_name_H-M   'P 21 21 21'
_symmetry_Int_Tables_number      19
_space_group_name_Hall           'P 2ac 2ab'
loop_
_symmetry_equiv_pos_site_id
_symmetry_equiv_pos_as_xyz
1 x,y,z
2 1/2+x,1/2-y,-z
3 -x,1/2+y,1/2-z
4 1/2-x,-y,1/2+z
_cell_length_a                   11.210(2)
_cell_length_b                   15.166(4)
_cell_length_c                   7.568(2)
_cell_angle_alpha                90
_cell_angle_beta                 90
_cell_angle_gamma                90
_cell_volume                     1286.64
loop_
_atom_site_label
_atom_site_type_symbol
_atom_site_fract_x
_atom_site_fract_y
_atom_site_fract_z
Hg1 Hg -0.57457 0.29924 0.44714
Cl1 Cl -0.58720 0.15180 0.33950
Cl2 Cl -0.67510 0.43420 0.39970
N1 N -0.37870 0.33760 0.32460
N2 N -0.00890 0.21610 0.25300
C1 C -0.35920 0.42060 0.27650
C2 C -0.26070 0.44400 0.17700
C3 C -0.18020 0.38070 0.12640
C4 C -0.19670 0.29160 0.17780
C5 C -0.30050 0.27540 0.27420
C6 C -0.11070 0.22160 0.12190
C7 C -0.15750 0.12740 0.10000
C8 C -0.05420 0.07140 0.13970
C9 C 0.04960 0.13300 0.19120
C10 C 0.07120 0.29030 0.24620
N2A N -0.50890 0.28390 0.74700
Hg1A Hg -0.07457 0.20076 0.55286
loop_
_geom_bond_atom_site_label_1
_geom_bond_atom_site_label_2
_geom_bond_site_symmetry_1
_geom_bond_site_symmetry_2
Hg1 Cl1 1_555 1_555
Cl2 Hg1 1_555 1_555
N1 Hg1 1_555 1_555
N2 C6 1_555 1_555
C1 N1 1_555 1_555
C2 C1 1_555 1_555
C3 C2 1_555 1_555
C4 C3 1_555 1_555
C5 N1 1_555 1_555
C6 C4 1_555 1_555
C7 C6 1_555 1_555
C8 C7 1_555 1_555
C9 N2 1_555 1_555
C10 N2 1_555 1_555
N2A Hg1 1_555 1_555
Hg1A N2 1_555 1_555
C4 C5 1_555 1_555
C8 C9 1_555 1_555

#END
