
#######################################################################
#
#                 Cambridge Crystallographic Data Centre
#                                CCDC 
#
#######################################################################
#
# If this CIF has been generated from an entry in the Cambridge 
# Structural Database, then it will include bibliographic, chemical, 
# crystal, experimental, refinement or atomic coordinate data resulting 
# from the CCDC's data processing and validation procedures.
#
#######################################################################

data_CLPRCV
_symmetry_cell_setting           monoclinic
_symmetry_space_group_name_H-M   'P 21/c'
_symmetry_Int_Tables_number      14
_space_group_name_Hall           '-P 2ybc'
loop_
_symmetry_equiv_pos_site_id
_symmetry_equiv_pos_as_xyz
1 x,y,z
2 -x,1/2+y,1/2-z
3 -x,-y,-z
4 x,1/2-y,1/2+z
_cell_length_a                   12.723(3)
_cell_length_b                   6.110(1)
_cell_length_c                   17.234(4)
_cell_angle_alpha                90
_cell_angle_beta                 100.11(1)
_cell_angle_gamma                90
_cell_volume                     1318.93
loop_
_atom_site_label
_atom_site_type_symbol
_atom_site_fract_x
_atom_site_fract_y
_atom_site_fract_z
Cu1 Cu 0.77040 1.07950 0.07190
Cu2 Cu 0.75420 1.60170 0.17300
Cl1 Cl 0.89080 1.21490 0.00270
Cl2 Cl 0.65710 1.36610 0.04390
Cl3 Cl 0.64740 0.90700 0.13930
Cl4 Cl 0.87810 0.79030 0.11790
Cl5 Cl 0.64240 1.47580 0.25210
Cl6 Cl 0.87740 1.34460 0.21580
N1 N 0.55600 0.64200 -0.12130
C1 C 0.59440 0.79710 -0.06790
N2 N 0.69700 0.84700 -0.04930
C2 C 0.75860 0.72890 -0.08820
C3 C 0.72490 0.56430 -0.14250
C4 C 0.61630 0.52180 -0.16100
N3 N 0.81210 0.48830 -0.17020
C5 C 0.89620 0.59500 -0.13300
N4 N 0.86680 0.74680 -0.08410
H1 H 0.47790 0.63990 -0.13260
H2 H 0.53770 0.87060 -0.03700
H3 H 0.58760 0.40620 -0.20620
H4 H 0.97600 0.59420 -0.14740
H5 H 0.91470 0.84950 -0.04750
Cl3_2 Cl 0.64740 1.90700 0.13930
Cl4_2 Cl 0.87810 1.79030 0.11790
Cu2_2 Cu 0.75420 0.60170 0.17300
loop_
_geom_bond_atom_site_label_1
_geom_bond_atom_site_label_2
_geom_bond_site_symmetry_1
_geom_bond_site_symmetry_2
Cu1 Cl1 1_555 1_555
Cu2 Cl2 1_555 1_555
Cl2 Cu1 1_555 1_555
Cl3 Cu1 1_555 1_555
Cl4 Cu1 1_555 1_555
Cl5 Cu2 1_555 1_555
Cl6 Cu2 1_555 1_555
N1 C1 1_555 1_555
C1 N2 1_555 1_555
N2 Cu1 1_555 1_555
C2 N2 1_555 1_555
C3 C2 1_555 1_555
C4 N1 1_555 1_555
N3 C3 1_555 1_555
C5 N3 1_555 1_555
N4 C2 1_555 1_555
H1 N1 1_555 1_555
H2 C1 1_555 1_555
H3 C4 1_555 1_555
H4 C5 1_555 1_555
H5 N4 1_555 1_555
Cl3_2 Cu2 1_555 1_555
Cl4_2 Cu2 1_555 1_555
Cu2_2 Cl3 1_555 1_555
Cl4 Cu2_2 1_555 1_555
C3 C4 1_555 1_555
C5 N4 1_555 1_555

#END
