
#######################################################################
#
#                 Cambridge Crystallographic Data Centre
#                                CCDC 
#
#######################################################################
#
# If this CIF has been generated from an entry in the Cambridge 
# Structural Database, then it will include bibliographic, chemical, 
# crystal, experimental, refinement or atomic coordinate data resulting 
# from the CCDC's data processing and validation procedures.
#
#######################################################################

data_CMEPCU
_symmetry_cell_setting           monoclinic
_symmetry_space_group_name_H-M   'P 21/c'
_symmetry_Int_Tables_number      14
_space_group_name_Hall           '-P 2ybc'
loop_
_symmetry_equiv_pos_site_id
_symmetry_equiv_pos_as_xyz
1 x,y,z
2 -x,1/2+y,1/2-z
3 -x,-y,-z
4 x,1/2-y,1/2+z
_cell_length_a                   9.464(5)
_cell_length_b                   6.119(3)
_cell_length_c                   19.690(10)
_cell_angle_alpha                90
_cell_angle_beta                 124.78(5)
_cell_angle_gamma                90
_cell_volume                     936.544
loop_
_atom_site_label
_atom_site_type_symbol
_atom_site_fract_x
_atom_site_fract_y
_atom_site_fract_z
Cl1 Cl 0.06190 -0.07100 0.93100
Cl2 Cl 0.35210 0.29020 0.89460
Cu1 Cu 0.10390 0.05210 0.83470
C1 C 0.40920 0.34550 0.60750
C2 C 0.30690 0.16770 0.66920
C3 C 0.24530 -0.00260 0.61150
C4 C 0.26920 0.01010 0.54990
C5 C 0.18490 -0.07620 0.70340
H1 H 0.37400 0.21000 0.50300
H2 H 0.47700 0.48200 0.60300
H3 H 0.22500 -0.11500 0.50300
H4 H 0.11100 -0.30500 0.60400
H5 H 0.29700 0.22300 0.77500
N1 N 0.35270 0.19090 0.55110
N2 N 0.38950 0.34570 0.66880
N3 N 0.17050 -0.15260 0.63480
N4 N 0.26770 0.12100 0.72410
S1 S 0.12500 -0.20950 0.75790
S1A S -0.12500 0.29050 0.74210
Cu1A Cu -0.10390 -0.44790 0.66530
Cu1A_2 Cu -0.10390 0.55210 0.66530
C5A C -0.18490 0.42380 0.79660
Cl1A Cl -0.06190 -0.57100 0.56900
Cl2A Cl -0.35210 -0.20980 0.60540
S1A_2 S -0.12500 -0.70950 0.74210
N3A N -0.17050 0.34740 0.86520
N4A N -0.26770 0.62100 0.77590
C3A C -0.24530 0.49740 0.88850
H4A H -0.11100 0.19500 0.89600
C2A C -0.30690 0.66770 0.83080
H5A H -0.29700 0.72300 0.72500
C4A C -0.26920 0.51010 0.95010
N2A N -0.38950 0.84570 0.83120
H3A H -0.22500 0.38500 0.99700
N1A N -0.35270 0.69090 0.94890
C1A C -0.40920 0.84550 0.89250
H1A H -0.37400 0.71000 0.99700
H2A H -0.47700 0.98200 0.89700
loop_
_geom_bond_atom_site_label_1
_geom_bond_atom_site_label_2
_geom_bond_site_symmetry_1
_geom_bond_site_symmetry_2
Cl1 Cu1 1_555 1_555
Cl2 Cu1 1_555 1_555
Cu1 S1 1_555 1_555
C1 H2 1_555 1_555
C2 C3 1_555 1_555
C3 C4 1_555 1_555
C4 H3 1_555 1_555
C5 N3 1_555 1_555
H1 N1 1_555 1_555
H4 N3 1_555 1_555
H5 N4 1_555 1_555
N1 C1 1_555 1_555
N2 C1 1_555 1_555
N3 C3 1_555 1_555
N4 C2 1_555 1_555
S1 C5 1_555 1_555
S1A Cu1 1_555 1_555
Cu1A S1 1_555 1_555
Cu1A_2 S1A 1_555 1_555
C5A S1A 1_555 1_555
Cl1A Cu1A 1_555 1_555
Cl2A Cu1A 1_555 1_555
S1A_2 Cu1A 1_555 1_555
N3A C5A 1_555 1_555
N4A C5A 1_555 1_555
C3A N3A 1_555 1_555
H4A N3A 1_555 1_555
C2A N4A 1_555 1_555
H5A N4A 1_555 1_555
C4A C3A 1_555 1_555
N2A C2A 1_555 1_555
H3A C4A 1_555 1_555
N1A C4A 1_555 1_555
C1A N2A 1_555 1_555
H1A N1A 1_555 1_555
H2A C1A 1_555 1_555
C2 N2 1_555 1_555
C4 N1 1_555 1_555
C5 N4 1_555 1_555
C3A C2A 1_555 1_555
N1A C1A 1_555 1_555

#END
