
#######################################################################
#
#                 Cambridge Crystallographic Data Centre
#                                CCDC 
#
#######################################################################
#
# If this CIF has been generated from an entry in the Cambridge 
# Structural Database, then it will include bibliographic, chemical, 
# crystal, experimental, refinement or atomic coordinate data resulting 
# from the CCDC's data processing and validation procedures.
#
#######################################################################

data_CNPRCV
_symmetry_cell_setting           tetragonal
_symmetry_space_group_name_H-M   'I 41/a'
_symmetry_Int_Tables_number      88
_space_group_name_Hall           '-I 4ad'
loop_
_symmetry_equiv_pos_site_id
_symmetry_equiv_pos_as_xyz
1 x,y,z
2 1/2+x,1/2+y,1/2+z
3 3/4-y,1/4+x,1/4+z
4 1/4-y,3/4+x,3/4+z
5 1/2-x,-y,1/2+z
6 -x,1/2-y,z
7 3/4+y,3/4-x,3/4+z
8 1/4+y,1/4-x,1/4+z
9 -x,-y,-z
10 1/2-x,1/2-y,1/2-z
11 1/4+y,3/4-x,3/4-z
12 3/4+y,1/4-x,1/4-z
13 1/2+x,y,1/2-z
14 x,1/2+y,-z
15 1/4-y,1/4+x,1/4-z
16 3/4-y,3/4+x,3/4-z
_cell_length_a                   15.649(3)
_cell_length_b                   15.649(3)
_cell_length_c                   9.917(3)
_cell_angle_alpha                90
_cell_angle_beta                 90
_cell_angle_gamma                90
_cell_volume                     2428.59
loop_
_atom_site_label
_atom_site_type_symbol
_atom_site_fract_x
_atom_site_fract_y
_atom_site_fract_z
Cu1 Cu 0.00000 0.00000 0.00000
N1 N 0.04280 -0.07270 -0.14410
N2 N -0.06950 0.06980 -0.13610
C1 C 0.09630 -0.09550 -0.21540
C2 C -0.06750 0.15500 -0.13050
C3 C -0.11030 0.20460 -0.22240
C4 C -0.15750 0.16500 -0.32270
C5 C -0.16060 0.07720 -0.32960
C6 C -0.11510 0.03280 -0.23330
O1 O 0.14850 -0.12060 -0.29190
H1 H -0.03000 0.18200 -0.05700
H2 H -0.10900 0.27500 -0.21200
H3 H -0.19100 0.20400 -0.39000
H4 H -0.19500 0.04500 -0.40100
H5 H -0.11600 -0.03300 -0.24000
N1H N -0.04280 0.07270 0.14410
N2H N 0.06950 -0.06980 0.13610
O1O O -0.12940 -0.10150 0.04190
O1G O 0.12940 0.10150 -0.04190
C1H C -0.09630 0.09550 0.21540
C2H C 0.06750 -0.15500 0.13050
C6H C 0.11510 -0.03280 0.23330
Cu1C Cu 0.25000 -0.25000 -0.25000
C3H C 0.11030 -0.20460 0.22240
H1H H 0.03000 -0.18200 0.05700
C5H C 0.16060 -0.07720 0.32960
H5H H 0.11600 0.03300 0.24000
O1H O -0.14850 0.12060 0.29190
C4H C 0.15750 -0.16500 0.32270
H2H H 0.10900 -0.27500 0.21200
H4H H 0.19500 -0.04500 0.40100
Cu1B Cu -0.25000 0.25000 0.25000
H3H H 0.19100 -0.20400 0.39000
loop_
_geom_bond_atom_site_label_1
_geom_bond_atom_site_label_2
_geom_bond_site_symmetry_1
_geom_bond_site_symmetry_2
Cu1 N1 1_555 1_555
N1 C1 1_555 1_555
N2 Cu1 1_555 1_555
C1 O1 1_555 1_555
C2 N2 1_555 1_555
C3 C2 1_555 1_555
C4 C3 1_555 1_555
C5 C4 1_555 1_555
C6 N2 1_555 1_555
O1 Cu1C 1_555 1_555
H1 C2 1_555 1_555
H2 C3 1_555 1_555
H3 C4 1_555 1_555
H4 C5 1_555 1_555
H5 C6 1_555 1_555
N1H Cu1 1_555 1_555
N2H Cu1 1_555 1_555
O1O Cu1 1_555 1_555
O1G Cu1 1_555 1_555
C1H N1H 1_555 1_555
C2H N2H 1_555 1_555
C6H N2H 1_555 1_555
C3H C2H 1_555 1_555
H1H C2H 1_555 1_555
C5H C6H 1_555 1_555
H5H C6H 1_555 1_555
O1H C1H 1_555 1_555
C4H C3H 1_555 1_555
H2H C3H 1_555 1_555
H4H C5H 1_555 1_555
Cu1B O1H 1_555 1_555
H3H C4H 1_555 1_555
C5 C6 1_555 1_555
C5H C4H 1_555 1_555

#END
