
#######################################################################
#
#                 Cambridge Crystallographic Data Centre
#                                CCDC 
#
#######################################################################
#
# If this CIF has been generated from an entry in the Cambridge 
# Structural Database, then it will include bibliographic, chemical, 
# crystal, experimental, refinement or atomic coordinate data resulting 
# from the CCDC's data processing and validation procedures.
#
#######################################################################

data_CNSMAG01
_symmetry_cell_setting           orthorhombic
_symmetry_space_group_name_H-M   'P b c a'
_symmetry_Int_Tables_number      61
_space_group_name_Hall           '-P 2ac 2ab'
loop_
_symmetry_equiv_pos_site_id
_symmetry_equiv_pos_as_xyz
1 x,y,z
2 1/2-x,-y,1/2+z
3 -x,1/2+y,1/2-z
4 1/2+x,1/2-y,-z
5 -x,-y,-z
6 1/2+x,y,1/2-z
7 x,1/2-y,1/2+z
8 1/2-x,1/2+y,z
_cell_length_a                   10.3063(13)
_cell_length_b                   7.9860(10)
_cell_length_c                   11.5458(15)
_cell_angle_alpha                90
_cell_angle_beta                 90
_cell_angle_gamma                90
_cell_volume                     950.29
loop_
_atom_site_label
_atom_site_type_symbol
_atom_site_fract_x
_atom_site_fract_y
_atom_site_fract_z
Ag1 Ag 0.57481(3) 0.20831(3) 0.48857(2)
C1 C 0.3726(3) 0.2631(3) 0.6941(2)
C2 C 0.3946(3) 0.4302(4) 0.6556(2)
C3 C 0.3024(3) 0.2327(4) 0.7985(3)
N1 N 0.4208(2) 0.1421(3) 0.6275(2)
N2 N 0.4126(3) 0.5622(3) 0.6212(3)
N3 N 0.2481(3) 0.2063(4) 0.8822(3)
O1 O 0.3987(2) -0.0081(3) 0.66018(19)
Ag1D Ag 0.42519(3) 0.79169(3) 0.51143(2)
Ag1E Ag 0.07481(3) 0.20831(3) 1.01143(2)
Ag1D_2 Ag 0.42519(3) -0.20831(3) 0.51143(2)
N2D N 0.5874(3) 0.4378(3) 0.3788(3)
N3E N 0.7481(3) 0.2063(4) 0.6178(3)
O1D O 0.6013(2) 0.0081(3) 0.33982(19)
loop_
_geom_bond_atom_site_label_1
_geom_bond_atom_site_label_2
_geom_bond_site_symmetry_1
_geom_bond_site_symmetry_2
Ag1 N1 1_555 1_555
C1 C2 1_555 1_555
C2 N2 1_555 1_555
C3 C1 1_555 1_555
N1 C1 1_555 1_555
N2 Ag1D 1_555 1_555
N3 C3 1_555 1_555
O1 N1 1_555 1_555
Ag1E N3 1_555 1_555
Ag1D_2 O1 1_555 1_555
N2D Ag1 1_555 1_555
N3E Ag1 1_555 1_555
O1D Ag1 1_555 1_555

#END
