
#######################################################################
#
#                 Cambridge Crystallographic Data Centre
#                                CCDC 
#
#######################################################################
#
# If this CIF has been generated from an entry in the Cambridge 
# Structural Database, then it will include bibliographic, chemical, 
# crystal, experimental, refinement or atomic coordinate data resulting 
# from the CCDC's data processing and validation procedures.
#
#######################################################################

data_COACET
_symmetry_cell_setting           orthorhombic
_symmetry_space_group_name_H-M   'P b c n'
_symmetry_Int_Tables_number      60
_space_group_name_Hall           '-P 2n 2ab'
loop_
_symmetry_equiv_pos_site_id
_symmetry_equiv_pos_as_xyz
1 x,y,z
2 1/2-x,1/2-y,1/2+z
3 1/2+x,1/2-y,-z
4 -x,y,1/2-z
5 -x,-y,-z
6 1/2+x,1/2+y,1/2-z
7 1/2-x,1/2+y,z
8 x,-y,1/2+z
_cell_length_a                   17.67
_cell_length_b                   22.22
_cell_length_c                   8.26
_cell_angle_alpha                90
_cell_angle_beta                 90
_cell_angle_gamma                90
_cell_volume                     3243.1
loop_
_atom_site_label
_atom_site_type_symbol
_atom_site_fract_x
_atom_site_fract_y
_atom_site_fract_z
Co1 Co 0.50000 0.35250 -0.25000
Co2 Co 0.32320 0.32080 -0.16170
Co3 Co 0.79750 0.30410 -0.02200
C1 C 0.39850 0.43140 -0.04190
C2 C 0.57430 0.36120 0.14710
C3 C 0.38950 0.48940 0.05000
C4 C 0.54720 0.24170 -0.48020
C5 C 0.53240 0.21760 -0.01660
C6 C 0.27470 0.19700 -0.34280
C7 C 0.30550 0.13270 -0.34300
C8 C 0.80600 0.39900 -0.17890
C9 C 0.81040 0.45800 -0.27760
C10 C 0.63100 0.34600 0.00520
O1 O 0.46010 0.41970 -0.10400
O2 O 0.69710 0.33260 0.05840
O3 O 0.39040 0.34740 -0.36280
O4 O 0.43670 0.28930 -0.10200
O5 O 0.34060 0.39860 -0.05050
O6 O 0.77970 0.35160 -0.24010
O7 O 0.26440 0.28270 0.04830
O8 O 0.19260 0.26930 0.27110
O9 O 0.40300 0.21800 0.06700
O10 O 0.83350 0.39530 -0.03740
Co2A Co 0.17680 0.17920 0.33830
O1C O 0.53990 0.41970 -0.39600
C1C C 0.60150 0.43140 -0.45810
C3C C 0.61050 0.48940 -0.55000
O5C O 0.65940 0.39860 -0.44950
Co2C Co 0.67680 0.32080 -0.33830
O3C O 0.60960 0.34740 -0.13720
O4C O 0.56330 0.28930 -0.39800
Co3B Co 0.29750 0.19590 0.02200
O7B O 0.76440 0.21730 -0.04830
O9B O 0.90300 0.28200 -0.06700
O8C O 0.80740 0.26930 0.22890
O7C O 0.73560 0.28270 -0.54830
O8B O 0.69260 0.23070 -0.27110
C4C C 0.45280 0.24170 -0.01980
O8A O 0.30740 0.23070 -0.22890
O6C O 0.22030 0.35160 -0.25990
Co3C Co 0.20250 0.30410 -0.47800
O2C O 0.30290 0.33260 -0.55840
C10C C 0.36900 0.34600 -0.50520
C2C C 0.42570 0.36120 -0.64710
O7A O 0.23560 0.21730 -0.45170
Co2A_2 Co 0.17680 0.17920 -0.66170
O8_2 O 0.19260 0.26930 -0.72890
O9A O 0.09700 0.28200 -0.43300
O10C O 0.16650 0.39530 -0.46260
C8C C 0.19400 0.39900 -0.32110
C9C C 0.18960 0.45800 -0.22240
C6A C 0.22530 0.30300 0.15720
Co3C_2 Co 0.20250 0.30410 0.52200
Co3A Co 0.70250 0.19590 -0.52200
O9C O 0.59700 0.21800 -0.56700
C5C C 0.46760 0.21760 -0.48340
C7A C 0.19450 0.36730 0.15700
O11 O 0.01900 0.44800 0.41820
loop_
_geom_bond_atom_site_label_1
_geom_bond_atom_site_label_2
_geom_bond_site_symmetry_1
_geom_bond_site_symmetry_2
Co1 O1 1_555 1_555
Co2 O3 1_555 1_555
Co3 O2 1_555 1_555
C1 C3 1_555 1_555
C2 C10 1_555 1_555
C4 O4C 1_555 1_555
C5 C4C 1_555 1_555
C6 C7 1_555 1_555
C8 C9 1_555 1_555
C10 O2 1_555 1_555
O1 C1 1_555 1_555
O3 Co1 1_555 1_555
O4 Co1 1_555 1_555
O5 Co2 1_555 1_555
O6 Co3 1_555 1_555
O7 Co2 1_555 1_555
O8 Co2A 1_555 1_555
O9 Co3B 1_555 1_555
O10 Co3 1_555 1_555
O1C Co1 1_555 1_555
C1C O1C 1_555 1_555
C3C C1C 1_555 1_555
O5C C1C 1_555 1_555
Co2C O6 1_555 1_555
O3C Co1 1_555 1_555
O4C Co1 1_555 1_555
Co3B O7 1_555 1_555
O7B Co3 1_555 1_555
O9B Co3 1_555 1_555
O8C Co3 1_555 1_555
O7C Co2C 1_555 1_555
O8B Co2C 1_555 1_555
C4C O4 1_555 1_555
O8A Co2 1_555 1_555
O6C Co2 1_555 1_555
Co3C O6C 1_555 1_555
O2C Co3C 1_555 1_555
C10C O3 1_555 1_555
C2C C10C 1_555 1_555
O7A C6 1_555 1_555
Co2A_2 O7A 1_555 1_555
O8_2 Co3C 1_555 1_555
O9A Co3C 1_555 1_555
O10C Co3C 1_555 1_555
C8C O6C 1_555 1_555
C9C C8C 1_555 1_555
C6A O7 1_555 1_555
Co3C_2 O8 1_555 1_555
Co3A O7C 1_555 1_555
O9C C4 1_555 1_555
C5C C4 1_555 1_555
C7A C6A 1_555 1_555
Co2 O4 1_555 1_555
C1 O5 1_555 1_555
C6 O8A 1_555 1_555
C8 O6 1_555 1_555
C8 O10 1_555 1_555
C10 O3C 1_555 1_555
O8 C6A 1_555 1_555
O9 C4C 1_555 1_555
O5C Co2C 1_555 1_555
Co2C O3C 1_555 1_555
Co2C O4C 1_555 1_555
Co3B O8A 1_555 1_555
O8B Co3A 1_555 1_555
Co3C O7A 1_555 1_555
O2C C10C 1_555 1_555
Co2A_2 O8_2 1_555 1_555
O10C C8C 1_555 1_555
Co3A O9C 1_555 1_555

#END
