
#######################################################################
#
#                 Cambridge Crystallographic Data Centre
#                                CCDC 
#
#######################################################################
#
# If this CIF has been generated from an entry in the Cambridge 
# Structural Database, then it will include bibliographic, chemical, 
# crystal, experimental, refinement or atomic coordinate data resulting 
# from the CCDC's data processing and validation procedures.
#
#######################################################################

data_COBFUV
_symmetry_cell_setting           monoclinic
_symmetry_space_group_name_H-M   'P 21/c'
_symmetry_Int_Tables_number      14
_space_group_name_Hall           '-P 2ybc'
loop_
_symmetry_equiv_pos_site_id
_symmetry_equiv_pos_as_xyz
1 x,y,z
2 -x,1/2+y,1/2-z
3 -x,-y,-z
4 x,1/2-y,1/2+z
_cell_length_a                   13.719(3)
_cell_length_b                   13.400(3)
_cell_length_c                   19.628(4)
_cell_angle_alpha                90
_cell_angle_beta                 106.77(3)
_cell_angle_gamma                90
_cell_volume                     3454.85
loop_
_atom_site_label
_atom_site_type_symbol
_atom_site_fract_x
_atom_site_fract_y
_atom_site_fract_z
C1 C -0.4306(4) 0.6569(4) 0.0647(3)
H1 H -0.3905 0.7100 0.0874
C2 C -0.5352(4) 0.6552(4) 0.0600(3)
H2 H -0.5637 0.7076 0.0788
N1 N -0.1947(3) 0.5902(3) 0.0542(2)
N2 N -0.2150(3) 0.4128(3) -0.0163(2)
C7 C -0.2837(4) 0.5534(4) 0.0290(3)
C8 C -0.3864(4) 0.5799(4) 0.0357(3)
C9 C -0.4497(4) 0.5015(4) 0.0022(3)
C10 C -0.5961(4) 0.5753(4) 0.0274(3)
C11 C -0.2949(4) 0.4556(4) -0.0101(3)
C12 C -0.1782(4) 0.6713(4) 0.1045(3)
C13 C -0.1608(4) 0.7680(5) 0.0816(3)
C14 C -0.1415(5) 0.8435(5) 0.1317(4)
H11 H -0.1309 0.9080 0.1179
C15 C -0.1376(5) 0.8258(5) 0.2021(4)
H12 H -0.1239 0.8778 0.2349
C16 C -0.1539(5) 0.7310(5) 0.2231(3)
H13 H -0.1505 0.7194 0.2704
C17 C -0.1756(4) 0.6516(4) 0.1748(3)
C18 C -0.1690(5) 0.7895(5) 0.0038(4)
H14 H -0.1674 0.7253 -0.0197
C19 C -0.2699(6) 0.8388(6) -0.0331(4)
H15 H -0.2781 0.8973 -0.0070
H16 H -0.3244 0.7930 -0.0351
H17 H -0.2710 0.8575 -0.0805
C20 C -0.0788(6) 0.8507(6) -0.0033(5)
H18 H -0.0837 0.9175 0.0131
H19 H -0.0793 0.8524 -0.0523
H20 H -0.0167 0.8207 0.0248
C21 C -0.1937(5) 0.5472(5) 0.2001(3)
H21 H -0.2242 0.5062 0.1580
C22 C -0.2650(6) 0.5481(6) 0.2450(4)
H22 H -0.2330 0.5808 0.2894
H23 H -0.2819 0.4808 0.2540
H24 H -0.3260 0.5834 0.2205
C23 C -0.0909(5) 0.5001(6) 0.2404(5)
H25 H -0.0489 0.4945 0.2090
H26 H -0.1023 0.4349 0.2570
H27 H -0.0575 0.5414 0.2803
C24 C -0.2193(4) 0.3115(4) -0.0399(3)
C25 C -0.2029(4) 0.2365(5) 0.0114(3)
C26 C -0.2082(5) 0.1386(5) -0.0125(4)
H28 H -0.2006 0.0870 0.0203
C27 C -0.2244(5) 0.1157(5) -0.0833(4)
H29 H -0.2288 0.0494 -0.0979
C28 C -0.2341(5) 0.1916(5) -0.1325(3)
H30 H -0.2421 0.1758 -0.1800
C29 C -0.2322(4) 0.2915(5) -0.1122(3)
C30 C -0.2401(5) 0.3728(5) -0.1662(3)
H31 H -0.2353 0.4372 -0.1418
C31 C -0.1493(7) 0.3644(7) -0.1977(4)
H32 H -0.0874 0.3811 -0.1618
H33 H -0.1591 0.4096 -0.2371
H34 H -0.1449 0.2974 -0.2138
C32 C -0.3420(7) 0.3692(6) -0.2243(4)
H35 H -0.3489 0.3060 -0.2483
H36 H -0.3447 0.4219 -0.2579
H37 H -0.3965 0.3773 -0.2031
C33 C -0.1772(4) 0.2620(5) 0.0903(3)
H38 H -0.1499 0.3300 0.0961
C34 C -0.2721(5) 0.2617(6) 0.1168(3)
H39 H -0.3246 0.3009 0.0853
H40 H -0.2553 0.2896 0.1638
H41 H -0.2956 0.1944 0.1179
C35 C -0.0957(5) 0.1944(6) 0.1359(3)
H42 H -0.1234 0.1289 0.1374
H43 H -0.0725 0.2209 0.1833
H44 H -0.0395 0.1906 0.1161
Cu1 Cu -0.08894(5) 0.51050(6) 0.01669(4)
Br1 Br 0.05311(4) 0.41369(5) 0.08670(3)
C1B C -0.5694(4) 0.3431(4) -0.0647(3)
H1B H -0.6095 0.2900 -0.0874
C2B C -0.4648(4) 0.3448(4) -0.0600(3)
H2B H -0.4363 0.2924 -0.0788
N1B N -0.8053(3) 0.4098(3) -0.0542(2)
N2B N -0.7850(3) 0.5872(3) 0.0163(2)
C7B C -0.7163(4) 0.4466(4) -0.0290(3)
C8B C -0.6136(4) 0.4201(4) -0.0357(3)
C9B C -0.5503(4) 0.4985(4) -0.0022(3)
C10B C -0.4039(4) 0.4247(4) -0.0274(3)
C11B C -0.7051(4) 0.5444(4) 0.0101(3)
C12B C -0.8218(4) 0.3287(4) -0.1045(3)
C13B C -0.8392(4) 0.2320(5) -0.0816(3)
C14B C -0.8585(5) 0.1565(5) -0.1317(4)
H11B H -0.8691 0.0920 -0.1179
C15B C -0.8624(5) 0.1742(5) -0.2021(4)
H12B H -0.8761 0.1222 -0.2349
C16B C -0.8461(5) 0.2690(5) -0.2231(3)
H13B H -0.8495 0.2806 -0.2704
C17B C -0.8244(4) 0.3484(4) -0.1748(3)
C18B C -0.8310(5) 0.2105(5) -0.0038(4)
H14B H -0.8326 0.2747 0.0197
C19B C -0.7301(6) 0.1612(6) 0.0331(4)
H15B H -0.7219 0.1027 0.0070
H16B H -0.6756 0.2070 0.0351
H17B H -0.7290 0.1425 0.0805
C20B C -0.9212(6) 0.1493(6) 0.0033(5)
H18B H -0.9163 0.0825 -0.0131
H19B H -0.9207 0.1476 0.0523
H20B H -0.9833 0.1793 -0.0248
C21B C -0.8063(5) 0.4528(5) -0.2001(3)
H21B H -0.7758 0.4938 -0.1580
C22B C -0.7350(6) 0.4519(6) -0.2450(4)
H22B H -0.7670 0.4192 -0.2894
H23B H -0.7181 0.5192 -0.2540
H24B H -0.6740 0.4166 -0.2205
C23B C -0.9091(5) 0.4999(6) -0.2404(5)
H25B H -0.9511 0.5055 -0.2090
H26B H -0.8977 0.5651 -0.2570
H27B H -0.9425 0.4586 -0.2803
C24B C -0.7807(4) 0.6885(4) 0.0399(3)
C25B C -0.7971(4) 0.7635(5) -0.0114(3)
C26B C -0.7918(5) 0.8614(5) 0.0125(4)
H28B H -0.7994 0.9130 -0.0203
C27B C -0.7756(5) 0.8843(5) 0.0833(4)
H29B H -0.7712 0.9506 0.0979
C28B C -0.7659(5) 0.8084(5) 0.1325(3)
H30B H -0.7579 0.8242 0.1800
C29B C -0.7678(4) 0.7085(5) 0.1122(3)
C30B C -0.7599(5) 0.6272(5) 0.1662(3)
H31B H -0.7647 0.5628 0.1418
C31B C -0.8507(7) 0.6356(7) 0.1977(4)
H32B H -0.9126 0.6189 0.1618
H33B H -0.8409 0.5904 0.2371
H34B H -0.8551 0.7026 0.2138
C32B C -0.6580(7) 0.6308(6) 0.2243(4)
H35B H -0.6511 0.6940 0.2483
H36B H -0.6553 0.5781 0.2579
H37B H -0.6035 0.6227 0.2031
C33B C -0.8228(4) 0.7380(5) -0.0903(3)
H38B H -0.8501 0.6700 -0.0961
C34B C -0.7279(5) 0.7383(6) -0.1168(3)
H39B H -0.6754 0.6991 -0.0853
H40B H -0.7447 0.7104 -0.1638
H41B H -0.7044 0.8056 -0.1179
C35B C -0.9043(5) 0.8056(6) -0.1359(3)
H42B H -0.8766 0.8711 -0.1374
H43B H -0.9275 0.7791 -0.1833
H44B H -0.9605 0.8094 -0.1161
Cu1B Cu -0.91106(5) 0.48950(6) -0.01669(4)
Cu1B_2 Cu 0.08894(5) 0.48950(6) -0.01669(4)
Br1B Br -0.05311(4) 0.58631(5) -0.08670(3)
Br1_2 Br -0.94689(4) 0.41369(5) 0.08670(3)
Br1B_2 Br -1.05311(4) 0.58631(5) -0.08670(3)
C3 C -0.4870(6) 0.6105(9) -0.1711(5)
H3 H -0.5176 0.6683 -0.1558
H4 H -0.5199 0.5509 -0.1603
C4 C -0.4981(6) 0.6162(8) -0.2474(5)
H5 H -0.5598 0.6515 -0.2725
H6 H -0.4990 0.5502 -0.2679
C5 C -0.4040(7) 0.6740(10) -0.2495(6)
H7 H -0.3795 0.6517 -0.2886
H8 H -0.4180 0.7450 -0.2545
C6 C -0.3301(6) 0.6516(7) -0.1809(5)
H9 H -0.2784 0.6066 -0.1877
H10 H -0.2969 0.7126 -0.1594
O1 O -0.3809(4) 0.6076(5) -0.1363(3)
loop_
_geom_bond_atom_site_label_1
_geom_bond_atom_site_label_2
_geom_bond_site_symmetry_1
_geom_bond_site_symmetry_2
C1 H1 1_555 1_555
C2 C1 1_555 1_555
H2 C2 1_555 1_555
C3 H3 1_555 1_555
H4 C3 1_555 1_555
C4 C3 1_555 1_555
H5 C4 1_555 1_555
H6 C4 1_555 1_555
C5 C4 1_555 1_555
H7 C5 1_555 1_555
H8 C5 1_555 1_555
C6 C5 1_555 1_555
H9 C6 1_555 1_555
H10 C6 1_555 1_555
N1 C7 1_555 1_555
N2 C11 1_555 1_555
O1 C3 1_555 1_555
C7 C8 1_555 1_555
C8 C1 1_555 1_555
C9 C8 1_555 1_555
C10 C2 1_555 1_555
C11 C7 1_555 1_555
C12 N1 1_555 1_555
C13 C12 1_555 1_555
C14 C13 1_555 1_555
H11 C14 1_555 1_555
C15 C14 1_555 1_555
H12 C15 1_555 1_555
C16 C15 1_555 1_555
H13 C16 1_555 1_555
C17 C12 1_555 1_555
C18 C13 1_555 1_555
H14 C18 1_555 1_555
C19 C18 1_555 1_555
H15 C19 1_555 1_555
H16 C19 1_555 1_555
H17 C19 1_555 1_555
C20 C18 1_555 1_555
H18 C20 1_555 1_555
H19 C20 1_555 1_555
H20 C20 1_555 1_555
C21 C17 1_555 1_555
H21 C21 1_555 1_555
C22 C21 1_555 1_555
H22 C22 1_555 1_555
H23 C22 1_555 1_555
H24 C22 1_555 1_555
C23 C21 1_555 1_555
H25 C23 1_555 1_555
H26 C23 1_555 1_555
H27 C23 1_555 1_555
C24 N2 1_555 1_555
C25 C24 1_555 1_555
C26 C25 1_555 1_555
H28 C26 1_555 1_555
C27 C26 1_555 1_555
H29 C27 1_555 1_555
C28 C27 1_555 1_555
H30 C28 1_555 1_555
C29 C24 1_555 1_555
C30 C29 1_555 1_555
H31 C30 1_555 1_555
C31 C30 1_555 1_555
H32 C31 1_555 1_555
H33 C31 1_555 1_555
H34 C31 1_555 1_555
C32 C30 1_555 1_555
H35 C32 1_555 1_555
H36 C32 1_555 1_555
H37 C32 1_555 1_555
C33 C25 1_555 1_555
H38 C33 1_555 1_555
C34 C33 1_555 1_555
H39 C34 1_555 1_555
H40 C34 1_555 1_555
H41 C34 1_555 1_555
C35 C33 1_555 1_555
H42 C35 1_555 1_555
H43 C35 1_555 1_555
H44 C35 1_555 1_555
Cu1 N1 1_555 1_555
Br1 Cu1 1_555 1_555
C1B H1B 1_555 1_555
C2B C1B 1_555 1_555
H2B C2B 1_555 1_555
N1B C7B 1_555 1_555
N2B C11B 1_555 1_555
C7B C8B 1_555 1_555
C8B C1B 1_555 1_555
C9B C9 1_555 1_555
C10B C9 1_555 1_555
C11B C10 1_555 1_555
C12B N1B 1_555 1_555
C13B C12B 1_555 1_555
C14B C13B 1_555 1_555
H11B C14B 1_555 1_555
C15B C14B 1_555 1_555
H12B C15B 1_555 1_555
C16B C15B 1_555 1_555
H13B C16B 1_555 1_555
C17B C12B 1_555 1_555
C18B C13B 1_555 1_555
H14B C18B 1_555 1_555
C19B C18B 1_555 1_555
H15B C19B 1_555 1_555
H16B C19B 1_555 1_555
H17B C19B 1_555 1_555
C20B C18B 1_555 1_555
H18B C20B 1_555 1_555
H19B C20B 1_555 1_555
H20B C20B 1_555 1_555
C21B C17B 1_555 1_555
H21B C21B 1_555 1_555
C22B C21B 1_555 1_555
H22B C22B 1_555 1_555
H23B C22B 1_555 1_555
H24B C22B 1_555 1_555
C23B C21B 1_555 1_555
H25B C23B 1_555 1_555
H26B C23B 1_555 1_555
H27B C23B 1_555 1_555
C24B N2B 1_555 1_555
C25B C24B 1_555 1_555
C26B C25B 1_555 1_555
H28B C26B 1_555 1_555
C27B C26B 1_555 1_555
H29B C27B 1_555 1_555
C28B C27B 1_555 1_555
H30B C28B 1_555 1_555
C29B C24B 1_555 1_555
C30B C29B 1_555 1_555
H31B C30B 1_555 1_555
C31B C30B 1_555 1_555
H32B C31B 1_555 1_555
H33B C31B 1_555 1_555
H34B C31B 1_555 1_555
C32B C30B 1_555 1_555
H35B C32B 1_555 1_555
H36B C32B 1_555 1_555
H37B C32B 1_555 1_555
C33B C25B 1_555 1_555
H38B C33B 1_555 1_555
C34B C33B 1_555 1_555
H39B C34B 1_555 1_555
H40B C34B 1_555 1_555
H41B C34B 1_555 1_555
C35B C33B 1_555 1_555
H42B C35B 1_555 1_555
H43B C35B 1_555 1_555
H44B C35B 1_555 1_555
Cu1B N1B 1_555 1_555
Cu1B_2 Br1 1_555 1_555
Br1B Cu1 1_555 1_555
Br1_2 Cu1B 1_555 1_555
Br1B_2 Cu1B 1_555 1_555
C6 O1 1_555 1_555
N2 Cu1 1_555 1_555
C10 C9B 1_555 1_555
C11 C10B 1_555 1_555
C16 C17 1_555 1_555
C28 C29 1_555 1_555
C2B C10B 1_555 1_555
N2B Cu1B 1_555 1_555
C7B C11B 1_555 1_555
C8B C9B 1_555 1_555
C16B C17B 1_555 1_555
C28B C29B 1_555 1_555
Cu1B_2 Br1B 1_555 1_555

#END
