
#######################################################################
#
#                 Cambridge Crystallographic Data Centre
#                                CCDC 
#
#######################################################################
#
# If this CIF has been generated from an entry in the Cambridge 
# Structural Database, then it will include bibliographic, chemical, 
# crystal, experimental, refinement or atomic coordinate data resulting 
# from the CCDC's data processing and validation procedures.
#
#######################################################################

data_COBJOT01
_symmetry_cell_setting           monoclinic
_symmetry_space_group_name_H-M   'C 2/c'
_symmetry_Int_Tables_number      15
_space_group_name_Hall           '-C 2yn'
loop_
_symmetry_equiv_pos_site_id
_symmetry_equiv_pos_as_xyz
1 x,y,z
2 -x,y,1/2-z
3 1/2+x,1/2+y,z
4 1/2-x,1/2+y,1/2-z
5 -x,-y,-z
6 x,-y,1/2+z
7 1/2-x,1/2-y,-z
8 1/2+x,1/2-y,1/2+z
_cell_length_a                   20.0291(18)
_cell_length_b                   9.5076(9)
_cell_length_c                   13.6558(12)
_cell_angle_alpha                90
_cell_angle_beta                 118.0960(10)
_cell_angle_gamma                90
_cell_volume                     2294.02
loop_
_atom_site_label
_atom_site_type_symbol
_atom_site_fract_x
_atom_site_fract_y
_atom_site_fract_z
Eu1 Eu 0.132444(11) 0.06266(2) 0.185019(18)
O1 O 0.1059(2) 0.0629(4) 0.3444(3)
O2 O 0.01526(17) 0.1872(3) 0.1444(3)
O3 O 0.18910(18) -0.1164(3) 0.1167(3)
O4 O 0.11036(17) 0.3290(4) 0.1783(3)
C1 C 0.2269(2) -0.2165(5) 0.1770(4)
C2 C 0.0422(2) 0.3109(5) 0.1513(4)
C3 C -0.0109(3) 0.4325(5) 0.1230(4)
C4 C 0.0138(3) 0.5705(5) 0.1269(4)
H1 H 0.0648 0.5888 0.1508
C5 C -0.1364(2) 0.5166(5) 0.0647(3)
C6 C -0.0867(2) 0.4058(5) 0.0907(4)
H2 H -0.1037 0.3139 0.0866
C7 C -0.1138(2) 0.6541(5) 0.0656(4)
H3 H -0.1484 0.7274 0.0471
C8 C -0.0382(2) 0.6815(5) 0.0948(3)
N1 N -0.2162(2) 0.4891(4) 0.0313(3)
H4 H -0.2242 0.3967 0.0271
H5 H -0.2450 0.5279 -0.0347
H6 H -0.2279 0.5259 0.0812
O5 O 0.26805(17) -0.3277(3) 0.3527(3)
C9 C 0.2350(2) -0.2215(5) 0.2952(4)
O6 O 0.20798(17) -0.1204(3) 0.3236(2)
O7 O 0.25991(17) -0.3104(4) 0.1519(3)
C10 C -0.0171(2) 0.8294(5) 0.0825(4)
O8 O -0.06899(17) 0.9062(3) 0.0119(2)
O9 O 0.05064(17) 0.8664(3) 0.1423(3)
H7 H 0.067(3) 0.105(6) 0.334(5)
H8 H 0.119(4) 0.013(9) 0.398(7)
Eu1C Eu 0.367556(11) -0.43734(2) 0.314981(18)
Eu1D Eu -0.132444(11) 0.93734(2) -0.185019(18)
Eu1_2 Eu 0.132444(11) 1.06266(2) 0.185019(18)
O5C O 0.23195(17) 0.1723(3) 0.1473(3)
O7C O 0.24009(17) 0.1896(4) 0.3481(3)
O8D O 0.06899(17) 0.0938(3) -0.0119(2)
O9_2 O 0.05064(17) -0.1336(3) 0.1423(3)
loop_
_geom_bond_atom_site_label_1
_geom_bond_atom_site_label_2
_geom_bond_site_symmetry_1
_geom_bond_site_symmetry_2
Eu1 O1 1_555 1_555
O1 H7 1_555 1_555
O2 Eu1 1_555 1_555
O3 Eu1 1_555 1_555
O4 Eu1 1_555 1_555
C1 O3 1_555 1_555
C2 O2 1_555 1_555
C3 C2 1_555 1_555
C4 C3 1_555 1_555
H1 C4 1_555 1_555
C5 C6 1_555 1_555
C6 C3 1_555 1_555
H2 C6 1_555 1_555
C7 C5 1_555 1_555
H3 C7 1_555 1_555
C8 C4 1_555 1_555
N1 C5 1_555 1_555
H4 N1 1_555 1_555
H5 N1 1_555 1_555
H6 N1 1_555 1_555
O5 C9 1_555 1_555
C9 C1 1_555 1_555
O6 Eu1 1_555 1_555
O7 C1 1_555 1_555
C10 C8 1_555 1_555
O8 C10 1_555 1_555
O9 C10 1_555 1_555
H8 O1 1_555 1_555
Eu1C O5 1_555 1_555
Eu1D O8 1_555 1_555
Eu1_2 O9 1_555 1_555
O5C Eu1 1_555 1_555
O7C Eu1 1_555 1_555
O8D Eu1 1_555 1_555
O9_2 Eu1 1_555 1_555
O4 C2 1_555 1_555
C7 C8 1_555 1_555
C9 O6 1_555 1_555
O7 Eu1C 1_555 1_555

#END
