
#######################################################################
#
#                 Cambridge Crystallographic Data Centre
#                                CCDC 
#
#######################################################################
#
# If this CIF has been generated from an entry in the Cambridge 
# Structural Database, then it will include bibliographic, chemical, 
# crystal, experimental, refinement or atomic coordinate data resulting 
# from the CCDC's data processing and validation procedures.
#
#######################################################################

data_COBJOT
_symmetry_cell_setting           monoclinic
_symmetry_space_group_name_H-M   'C 2/c'
_symmetry_Int_Tables_number      15
_space_group_name_Hall           '-C 2yn'
loop_
_symmetry_equiv_pos_site_id
_symmetry_equiv_pos_as_xyz
1 x,y,z
2 1/2+x,1/2+y,z
3 -x,y,1/2-z
4 1/2-x,1/2+y,1/2-z
5 -x,-y,-z
6 1/2-x,1/2-y,-z
7 x,-y,1/2+z
8 1/2+x,1/2-y,1/2+z
_cell_length_a                   20.030(3)
_cell_length_b                   9.5082(14)
_cell_length_c                   13.6444(15)
_cell_angle_alpha                90.00
_cell_angle_beta                 118.060(8)
_cell_angle_gamma                90.00
_cell_volume                     2293.12
loop_
_atom_site_label
_atom_site_type_symbol
_atom_site_fract_x
_atom_site_fract_y
_atom_site_fract_z
Eu1 Eu 0.367431(10) 0.937198(18) 0.814868(15)
O1 O 0.43116(16) 0.9066(3) 1.0120(2)
O2 O 0.55038(16) 0.8668(3) 1.1430(2)
O3 O 0.61016(17) 0.3290(3) 1.1781(2)
O4 O 0.51530(16) 0.1883(3) 1.1445(2)
O5 O 0.26833(15) 0.8276(3) 0.8524(2)
O6 O 0.26019(16) 0.8099(3) 0.6523(2)
O7 O 0.18911(16) 0.6165(3) 0.6164(2)
O8 O 0.20838(16) 0.6204(3) 0.8236(2)
O9 O 0.39406(17) 0.9367(3) 0.6556(2)
H1 H 0.3837 0.9969 0.6043
H2 H 0.4295 0.8792 0.6667
N1 N 0.28451(18) 0.4895(4) 1.0316(3)
H3 H 0.2732 0.5208 1.0835
H4 H 0.2761 0.3973 1.0228
H5 H 0.2557 0.5332 0.9677
C1 C 0.4834(2) 0.8303(4) 1.0831(3)
C2 C 0.4616(2) 0.6820(4) 1.0942(3)
C3 C 0.5136(2) 0.5713(4) 1.1266(3)
H6 H 0.5645 0.5898 1.1503
C4 C 0.4892(2) 0.4332(4) 1.1232(3)
C5 C 0.5423(2) 0.3115(4) 1.1513(3)
C6 C 0.4134(2) 0.4057(4) 1.0906(3)
H7 H 0.3964 0.3137 1.0858
C7 C 0.3637(2) 0.5175(4) 1.0655(3)
C8 C 0.3871(2) 0.6539(4) 1.0661(3)
H8 H 0.3526 0.7274 1.0476
C9 C 0.2353(2) 0.7227(4) 0.7949(3)
C10 C 0.2266(2) 0.7153(4) 0.6763(3)
Eu1D Eu 0.632569(10) 1.062802(18) 1.185132(15)
Eu1D_2 Eu 0.632569(10) 0.062802(18) 1.185132(15)
Eu1C Eu 0.132569(10) 0.437198(18) 0.685132(15)
O2D O 0.44962(16) 1.1332(3) 0.8570(2)
O3D O 0.38984(17) 0.6710(3) 0.8219(2)
O4D O 0.48470(16) 0.8117(3) 0.8555(2)
O7C O 0.31089(16) 1.1165(3) 0.8836(2)
O8C O 0.29162(16) 1.1204(3) 0.6764(2)
loop_
_geom_bond_atom_site_label_1
_geom_bond_atom_site_label_2
_geom_bond_site_symmetry_1
_geom_bond_site_symmetry_2
Eu1 O1 1_555 1_555
O1 C1 1_555 1_555
O2 C1 1_555 1_555
O3 C5 1_555 1_555
O4 C5 1_555 1_555
O5 Eu1 1_555 1_555
O6 Eu1 1_555 1_555
O7 C10 1_555 1_555
O8 C9 1_555 1_555
O9 Eu1 1_555 1_555
H1 O9 1_555 1_555
H2 O9 1_555 1_555
N1 H3 1_555 1_555
H4 N1 1_555 1_555
H5 N1 1_555 1_555
C1 C2 1_555 1_555
C2 C3 1_555 1_555
C3 H6 1_555 1_555
C4 C3 1_555 1_555
C5 C4 1_555 1_555
C6 C4 1_555 1_555
H7 C6 1_555 1_555
C7 N1 1_555 1_555
C8 C2 1_555 1_555
H8 C8 1_555 1_555
C9 O5 1_555 1_555
C10 O6 1_555 1_555
Eu1D O2 1_555 1_555
Eu1D_2 O3 1_555 1_555
Eu1C O7 1_555 1_555
O2D Eu1 1_555 1_555
O3D Eu1 1_555 1_555
O4D Eu1 1_555 1_555
O7C Eu1 1_555 1_555
O8C Eu1 1_555 1_555
O4 Eu1D_2 1_555 1_555
O8 Eu1C 1_555 1_555
C6 C7 1_555 1_555
C7 C8 1_555 1_555
C9 C10 1_555 1_555

#END
