
#######################################################################
#
#                 Cambridge Crystallographic Data Centre
#                                CCDC 
#
#######################################################################
#
# If this CIF has been generated from an entry in the Cambridge 
# Structural Database, then it will include bibliographic, chemical, 
# crystal, experimental, refinement or atomic coordinate data resulting 
# from the CCDC's data processing and validation procedures.
#
#######################################################################

data_COBLIP
_symmetry_cell_setting           monoclinic
_symmetry_space_group_name_H-M   'P 21/n'
_symmetry_Int_Tables_number      14
_space_group_name_Hall           '-P 2yn'
loop_
_symmetry_equiv_pos_site_id
_symmetry_equiv_pos_as_xyz
1 x,y,z
2 1/2-x,1/2+y,1/2-z
3 -x,-y,-z
4 1/2+x,1/2-y,1/2+z
_cell_length_a                   7.3360(15)
_cell_length_b                   14.121(3)
_cell_length_c                   7.890(2)
_cell_angle_alpha                90
_cell_angle_beta                 95.12(3)
_cell_angle_gamma                90
_cell_volume                     814.077
loop_
_atom_site_label
_atom_site_type_symbol
_atom_site_fract_x
_atom_site_fract_y
_atom_site_fract_z
Zn1 Zn 0.16515(7) 0.57678(4) 0.50874(7)
N1 N 0.0370(5) 0.4705(3) 0.3374(5)
N2 N 0.1465(6) 0.4195(3) 0.2747(6)
N3 N 0.2510(7) 0.3737(4) 0.2162(7)
N4 N 0.3603(6) 0.5987(3) 0.3247(5)
N5 N 0.5138(6) 0.5690(3) 0.3524(5)
N6 N 0.6631(6) 0.5427(3) 0.3734(6)
N7 N 0.3051(5) 0.6722(3) 0.6887(5)
C1 C 0.3367(6) 0.6640(3) 0.8589(6)
C2 C 0.4346(7) 0.7355(3) 0.9539(6)
H1 H 0.4532 0.7291 1.0715
N8 N 0.5002(5) 0.8105(3) 0.8820(5)
C3 C 0.4688(7) 0.8180(3) 0.7100(6)
H2 H 0.5129 0.8703 0.6548
C4 C 0.3740(7) 0.7500(3) 0.6178(6)
H3 H 0.3557 0.7573 0.5004
N9 N 0.2768(6) 0.5871(3) 0.9378(6)
H4 H 0.2176 0.5388 0.8746
H5 H 0.2998 0.5827 1.0554
Zn1B Zn -0.16515(7) 0.42322(4) 0.49126(7)
Zn1B_2 Zn 0.83485(7) 0.42322(4) 0.49126(7)
Zn1C Zn 0.66515(7) 0.92322(4) 1.00874(7)
N1B N -0.0370(5) 0.5295(3) 0.6626(5)
N6B N 0.3369(6) 0.4573(3) 0.6266(6)
N8C N 0.0002(5) 0.6895(3) 0.3820(5)
loop_
_geom_bond_atom_site_label_1
_geom_bond_atom_site_label_2
_geom_bond_site_symmetry_1
_geom_bond_site_symmetry_2
Zn1 N1 1_555 1_555
N1 N2 1_555 1_555
N2 N3 1_555 1_555
N4 Zn1 1_555 1_555
N5 N4 1_555 1_555
N6 N5 1_555 1_555
N7 Zn1 1_555 1_555
C1 N7 1_555 1_555
C2 C1 1_555 1_555
H1 C2 1_555 1_555
N8 C2 1_555 1_555
C3 N8 1_555 1_555
H2 C3 1_555 1_555
C4 N7 1_555 1_555
H3 C4 1_555 1_555
N9 C1 1_555 1_555
H4 N9 1_555 1_555
H5 N9 1_555 1_555
Zn1B N1 1_555 1_555
Zn1B_2 N6 1_555 1_555
Zn1C N8 1_555 1_555
N1B Zn1 1_555 1_555
N6B Zn1 1_555 1_555
N8C Zn1 1_555 1_555
C3 C4 1_555 1_555
Zn1B N1B 1_555 1_555

#END
