
#######################################################################
#
#                 Cambridge Crystallographic Data Centre
#                                CCDC 
#
#######################################################################
#
# If this CIF has been generated from an entry in the Cambridge 
# Structural Database, then it will include bibliographic, chemical, 
# crystal, experimental, refinement or atomic coordinate data resulting 
# from the CCDC's data processing and validation procedures.
#
#######################################################################

data_COBLOV
_symmetry_cell_setting           triclinic
_symmetry_space_group_name_H-M   'P -1'
_symmetry_Int_Tables_number      2
_space_group_name_Hall           '-P 1'
loop_
_symmetry_equiv_pos_site_id
_symmetry_equiv_pos_as_xyz
1 x,y,z
2 -x,-y,-z
_cell_length_a                   7.838(3)
_cell_length_b                   8.020(3)
_cell_length_c                   9.265(3)
_cell_angle_alpha                71.12(3)
_cell_angle_beta                 81.12(3)
_cell_angle_gamma                78.15(3)
_cell_volume                     536.89
loop_
_atom_site_label
_atom_site_type_symbol
_atom_site_fract_x
_atom_site_fract_y
_atom_site_fract_z
Zn1 Zn 0.0000 0.5000 0.0000
Zn2 Zn 0.03172(3) 0.41365(3) -0.31984(3)
N1 N 0.1991(3) 0.4229(3) -0.1599(2)
N2 N 0.3526(3) 0.3690(3) -0.1423(2)
N3 N 0.4969(3) 0.3181(4) -0.1234(3)
N4 N 0.1535(3) 0.4889(3) 0.1754(2)
N5 N 0.2764(3) 0.3748(3) 0.2236(2)
N6 N 0.3925(3) 0.2694(3) 0.2679(3)
N7 N -0.1634(3) 0.4615(3) -0.4882(2)
N8 N -0.2741(3) 0.3747(3) -0.4859(2)
N9 N -0.3791(4) 0.2923(4) -0.4792(3)
N10 N 0.0220(3) 0.7858(3) -0.1151(2)
C1 C 0.1704(3) 0.8365(3) -0.1854(3)
H1 H 0.2695 0.7502 -0.1870
C2 C 0.1833(3) 1.0188(3) -0.2586(3)
N11 N 0.0422(3) 1.1439(3) -0.2542(2)
C3 C -0.1103(3) 1.0885(3) -0.1835(3)
H2 H -0.2105 1.1734 -0.1817
C4 C -0.1208(3) 0.9140(3) -0.1157(3)
H3 H -0.2277 0.8812 -0.0686
N12 N 0.3359(3) 1.0657(3) -0.3289(3)
H4 H 0.3455 1.1818 -0.3875
H5 H 0.4351 0.9817 -0.3343
Zn2A Zn -0.03172(3) 0.58635(3) 0.31984(3)
Zn2A_2 Zn -0.03172(3) 0.58635(3) -0.68016(3)
Zn2_2 Zn 0.03172(3) 1.41365(3) -0.31984(3)
Zn2A_3 Zn -0.03172(3) -0.41365(3) 0.31984(3)
N1A N -0.1991(3) 0.5771(3) 0.1599(2)
N2A N -0.3526(3) 0.6310(3) 0.1423(2)
N3A N -0.4969(3) 0.6819(4) 0.1234(3)
N4A N -0.1535(3) 0.5111(3) -0.1754(2)
N5A N -0.2764(3) 0.6252(3) -0.2236(2)
N6A N -0.3925(3) 0.7306(3) -0.2679(3)
N7A N 0.1634(3) 0.5385(3) -0.5118(2)
N7_2 N -0.1634(3) 0.4615(3) 0.5118(2)
N7A_2 N 0.1634(3) 0.5385(3) 0.4882(2)
N8A N 0.2741(3) 0.6253(3) -0.5141(2)
N9A N 0.3791(4) 0.7077(4) -0.5208(3)
N10A N -0.0220(3) 0.2142(3) 0.1151(2)
C1A C -0.1704(3) 0.1635(3) 0.1854(3)
H1A H -0.2695 0.2498 0.1870
C2A C -0.1833(3) -0.0188(3) 0.2586(3)
N11A N -0.0422(3) -0.1439(3) 0.2542(2)
N11_2 N 0.0422(3) 0.1439(3) -0.2542(2)
N11A_2 N -0.0422(3) 0.8561(3) 0.2542(2)
C3A C 0.1103(3) -0.0885(3) 0.1835(3)
H2A H 0.2105 -0.1734 0.1817
C4A C 0.1208(3) 0.0860(3) 0.1157(3)
H3A H 0.2277 0.1188 0.0686
N12A N -0.3359(3) -0.0657(3) 0.3289(3)
H4A H -0.3455 -0.1818 0.3875
H5A H -0.4351 0.0183 0.3343
loop_
_geom_bond_atom_site_label_1
_geom_bond_atom_site_label_2
_geom_bond_site_symmetry_1
_geom_bond_site_symmetry_2
Zn1 N1 1_555 1_555
Zn2 N1 1_555 1_555
N1 N2 1_555 1_555
N2 N3 1_555 1_555
N4 Zn1 1_555 1_555
N5 N4 1_555 1_555
N6 N5 1_555 1_555
N7 Zn2 1_555 1_555
N8 N7 1_555 1_555
N9 N8 1_555 1_555
N10 Zn1 1_555 1_555
C1 N10 1_555 1_555
H1 C1 1_555 1_555
C2 C1 1_555 1_555
N11 C2 1_555 1_555
C3 N11 1_555 1_555
H2 C3 1_555 1_555
C4 N10 1_555 1_555
H3 C4 1_555 1_555
N12 C2 1_555 1_555
H4 N12 1_555 1_555
H5 N12 1_555 1_555
Zn2A N4 1_555 1_555
Zn2A_2 N7 1_555 1_555
Zn2_2 N11 1_555 1_555
Zn2A_3 N11A 1_555 1_555
N1A Zn1 1_555 1_555
N2A N1A 1_555 1_555
N3A N2A 1_555 1_555
N4A Zn1 1_555 1_555
N5A N4A 1_555 1_555
N6A N5A 1_555 1_555
N7A Zn2 1_555 1_555
N7_2 Zn2A 1_555 1_555
N7A_2 Zn2A 1_555 1_555
N8A N7A 1_555 1_555
N9A N8A 1_555 1_555
N10A Zn1 1_555 1_555
C1A N10A 1_555 1_555
H1A C1A 1_555 1_555
C2A C1A 1_555 1_555
N11A C2A 1_555 1_555
N11_2 Zn2 1_555 1_555
N11A_2 Zn2A 1_555 1_555
C3A N11A 1_555 1_555
H2A C3A 1_555 1_555
C4A N10A 1_555 1_555
H3A C4A 1_555 1_555
N12A C2A 1_555 1_555
H4A N12A 1_555 1_555
H5A N12A 1_555 1_555
Zn2 N4A 1_555 1_555
C3 C4 1_555 1_555
Zn2A N1A 1_555 1_555
Zn2A_2 N7A 1_555 1_555
C3A C4A 1_555 1_555

#END
