
#######################################################################
#
#                 Cambridge Crystallographic Data Centre
#                                CCDC 
#
#######################################################################
#
# If this CIF has been generated from an entry in the Cambridge 
# Structural Database, then it will include bibliographic, chemical, 
# crystal, experimental, refinement or atomic coordinate data resulting 
# from the CCDC's data processing and validation procedures.
#
#######################################################################

data_COBMUD
_symmetry_cell_setting           triclinic
_symmetry_space_group_name_H-M   'P -1'
_symmetry_Int_Tables_number      2
_space_group_name_Hall           '-P 1'
loop_
_symmetry_equiv_pos_site_id
_symmetry_equiv_pos_as_xyz
1 x,y,z
2 -x,-y,-z
_cell_length_a                   10.0384(8)
_cell_length_b                   10.8925(8)
_cell_length_c                   11.9122(9)
_cell_angle_alpha                104.2400(10)
_cell_angle_beta                 97.4330(10)
_cell_angle_gamma                101.4250(10)
_cell_volume                     1215.54
loop_
_atom_site_label
_atom_site_type_symbol
_atom_site_fract_x
_atom_site_fract_y
_atom_site_fract_z
Ni1 Ni 0.71622(2) 0.38119(2) 0.48058(2)
Co1 Co 0.80816(2) 0.37539(2) 0.92509(2)
O1 O 0.75359(14) 0.23427(12) 0.74742(11)
O2 O 0.84974(14) 0.49308(12) 0.81476(11)
O3 O 0.87275(13) 0.54486(12) 1.06432(11)
O4 O 1.03464(12) 0.70874(13) 1.04701(12)
O5 O 0.40655(13) 0.62523(14) 1.09439(13)
O6 O 0.33123(13) 0.75459(14) 1.00133(13)
N1 N 0.71001(17) 0.24650(15) 0.55414(14)
N2 N 0.55320(18) 0.28385(16) 0.37096(14)
N3 N 0.74957(19) 0.50425(17) 0.39518(14)
N4 N 0.84427(16) 0.48660(15) 0.61774(13)
N5 N 0.76425(18) 1.00271(16) 0.89768(17)
H1 H 0.7207 1.0654 0.9252
H2 H 0.8546 1.0344 0.8994
C1 C 0.75520(18) 0.29195(18) 0.67006(16)
C2 C 0.6725(2) 0.11299(18) 0.49396(17)
C3 C 0.5854(2) 0.07236(19) 0.38242(17)
C4 C 0.5534(2) -0.0587(2) 0.31667(19)
H3 H 0.4941 -0.0853 0.2439
C5 C 0.6082(2) -0.1479(2) 0.3578(2)
H4 H 0.5900 -0.2340 0.3120
C6 C 0.6910(2) -0.1085(2) 0.4687(2)
H5 H 0.7262 -0.1697 0.4979
C7 C 0.7228(2) 0.01993(19) 0.53705(19)
H6 H 0.7776 0.0440 0.6117
C8 C 0.5149(2) 0.1590(2) 0.33787(17)
H7 H 0.4354 0.1211 0.2805
C9 C 0.4540(3) 0.3553(2) 0.3308(2)
H8 H 0.4152 0.3949 0.3972
H9 H 0.3786 0.2936 0.2723
C10 C 0.5190(3) 0.4609(3) 0.2780(2)
H10 H 0.4686 0.4446 0.1986
H11 H 0.5099 0.5446 0.3241
C11 C 0.6695(3) 0.4682(2) 0.27374(19)
H12 H 0.6805 0.3844 0.2295
H13 H 0.7037 0.5328 0.2344
C12 C 0.8391(2) 0.6140(2) 0.43120(19)
H14 H 0.8508 0.6608 0.3761
C13 C 0.9236(2) 0.6736(2) 0.54652(19)
C14 C 0.9276(2) 0.61320(18) 0.63820(17)
C15 C 1.0208(2) 0.6795(2) 0.74404(19)
H15 H 1.0293 0.6392 0.8041
C16 C 1.1003(3) 0.8036(2) 0.7605(2)
H16 H 1.1612 0.8460 0.8315
C17 C 1.0902(2) 0.8659(2) 0.6724(2)
H17 H 1.1405 0.9511 0.6853
C18 C 1.0057(2) 0.8005(2) 0.5667(2)
H18 H 1.0021 0.8407 0.5063
C19 C 0.82099(18) 0.43743(17) 0.70801(16)
C20 C 0.80394(18) 0.72891(17) 1.02228(16)
C21 C 0.67196(18) 0.68913(17) 1.04401(16)
H19 H 0.6504 0.6184 1.0745
C22 C 0.57202(18) 0.75607(17) 1.01973(16)
C23 C 0.60387(19) 0.86118(18) 0.97351(17)
H20 H 0.5361 0.9046 0.9568
C24 C 0.73696(19) 0.90265(18) 0.95176(16)
C25 C 0.83591(18) 0.83475(18) 0.97694(17)
H21 H 0.9248 0.8608 0.9631
C26 C 0.91107(18) 0.65459(17) 1.04597(15)
C27 C 0.42873(18) 0.70949(17) 1.03966(16)
Co1A Co 0.19184(2) 0.62461(2) 1.07491(2)
Co1A_2 Co 1.19184(2) 0.62461(2) 1.07491(2)
O4A O 0.96536(12) 0.29126(13) 0.95299(12)
O5A O 0.59345(13) 0.37477(14) 0.90561(13)
O6A O 0.66877(13) 0.24541(14) 0.99867(13)
loop_
_geom_bond_atom_site_label_1
_geom_bond_atom_site_label_2
_geom_bond_site_symmetry_1
_geom_bond_site_symmetry_2
Ni1 N1 1_555 1_555
Co1 O1 1_555 1_555
O1 C1 1_555 1_555
O2 Co1 1_555 1_555
O3 Co1 1_555 1_555
O4 C26 1_555 1_555
O5 C27 1_555 1_555
O6 C27 1_555 1_555
N1 C1 1_555 1_555
N2 Ni1 1_555 1_555
N3 Ni1 1_555 1_555
N4 Ni1 1_555 1_555
N5 H1 1_555 1_555
H2 N5 1_555 1_555
C1 C19 1_555 1_555
C2 N1 1_555 1_555
C3 C2 1_555 1_555
C4 C3 1_555 1_555
H3 C4 1_555 1_555
C5 C4 1_555 1_555
H4 C5 1_555 1_555
C6 C5 1_555 1_555
H5 C6 1_555 1_555
C7 C2 1_555 1_555
H6 C7 1_555 1_555
C8 N2 1_555 1_555
H7 C8 1_555 1_555
C9 N2 1_555 1_555
H8 C9 1_555 1_555
H9 C9 1_555 1_555
C10 C9 1_555 1_555
H10 C10 1_555 1_555
H11 C10 1_555 1_555
C11 N3 1_555 1_555
H12 C11 1_555 1_555
H13 C11 1_555 1_555
C12 N3 1_555 1_555
H14 C12 1_555 1_555
C13 C12 1_555 1_555
C14 N4 1_555 1_555
C15 C14 1_555 1_555
H15 C15 1_555 1_555
C16 C15 1_555 1_555
H16 C16 1_555 1_555
C17 C16 1_555 1_555
H17 C17 1_555 1_555
C18 C13 1_555 1_555
H18 C18 1_555 1_555
C19 O2 1_555 1_555
C20 C21 1_555 1_555
C21 H19 1_555 1_555
C22 C21 1_555 1_555
C23 C22 1_555 1_555
H20 C23 1_555 1_555
C24 N5 1_555 1_555
C25 C20 1_555 1_555
H21 C25 1_555 1_555
C26 O3 1_555 1_555
C27 C22 1_555 1_555
Co1A O5 1_555 1_555
Co1A_2 O4 1_555 1_555
O4A Co1 1_555 1_555
O5A Co1 1_555 1_555
O6A Co1 1_555 1_555
O6 Co1A 1_555 1_555
N4 C19 1_555 1_555
C3 C8 1_555 1_555
C6 C7 1_555 1_555
C10 C11 1_555 1_555
C13 C14 1_555 1_555
C17 C18 1_555 1_555
C20 C26 1_555 1_555
C23 C24 1_555 1_555
C24 C25 1_555 1_555

#END
