
#######################################################################
#
#                 Cambridge Crystallographic Data Centre
#                                CCDC 
#
#######################################################################
#
# If this CIF has been generated from an entry in the Cambridge 
# Structural Database, then it will include bibliographic, chemical, 
# crystal, experimental, refinement or atomic coordinate data resulting 
# from the CCDC's data processing and validation procedures.
#
#######################################################################

data_COBMAJ
_symmetry_cell_setting           orthorhombic
_symmetry_space_group_name_H-M   'I b c a'
_symmetry_Int_Tables_number      73
_space_group_name_Hall           '-I 2b 2c'
loop_
_symmetry_equiv_pos_site_id
_symmetry_equiv_pos_as_xyz
1 x,y,z
2 -x,1/2-y,z
3 x,-y,1/2-z
4 1/2-x,y,-z
5 1/2+x,1/2+y,1/2+z
6 1/2-x,-y,1/2+z
7 1/2+x,1/2-y,-z
8 -x,1/2+y,1/2-z
9 -x,-y,-z
10 x,1/2+y,-z
11 -x,y,1/2+z
12 1/2+x,-y,z
13 1/2-x,1/2-y,1/2-z
14 1/2+x,y,1/2-z
15 1/2-x,1/2+y,z
16 x,1/2-y,1/2+z
_cell_length_a                   14.6667(9)
_cell_length_b                   15.6057(8)
_cell_length_c                   16.8944(8)
_cell_angle_alpha                90
_cell_angle_beta                 90
_cell_angle_gamma                90
_cell_volume                     3866.86
loop_
_atom_site_label
_atom_site_type_symbol
_atom_site_fract_x
_atom_site_fract_y
_atom_site_fract_z
C1 C 0.6084(4) 0.3243(3) 0.5435(3)
C2 C 0.5994(4) 0.3369(4) 0.4556(3)
H1 H 0.63 0.2899 0.4289
H2 H 0.5354 0.3344 0.4415
C3 C 0.6239(4) 0.2984(4) 0.7030(3)
H3 H 0.6295 0.2878 0.7569
C4 C 0.6741(4) 0.2530(4) 0.6492(3)
H4 H 0.7142 0.2115 0.6678
C5 C 0.5656(5) 0.3593(5) 0.6760(4)
H5 H 0.5318 0.392 0.7114
C6 C 0.5572(4) 0.3719(4) 0.5964(4)
H6 H 0.5166 0.4129 0.5775
C7 C 0.6371(6) 0.4174(4) 0.4266(4)
H7 H 0.7027 0.4175 0.4337
H8 H 0.6119 0.4647 0.4567
C8 C 0.7012(5) 0.4926(7) 0.2932(4)
H9 H 0.699 0.5473 0.3203
H10 H 0.7575 0.4643 0.3081
N1 N 0.6681(3) 0.2656(2) 0.5708(2)
S1 S 0.61004(16) 0.43072(13) 0.32306(10)
Cl1 Cl 0.65667(10) 0.11154(9) 0.42454(9)
Co1 Co 0.75000 0.19061(7) 0.50000
C1B C 0.6084(4) 0.6757(3) -0.0435(3)
C2B C 0.5994(4) 0.6631(4) 0.0444(3)
H1B H 0.63 0.7101 0.0711
H2B H 0.5354 0.6656 0.0585
C3B C 0.6239(4) 0.7016(4) -0.2030(3)
H3B H 0.6295 0.7122 -0.2569
C4B C 0.6741(4) 0.7470(4) -0.1492(3)
H4B H 0.7142 0.7885 -0.1678
C5B C 0.5656(5) 0.6407(5) -0.1760(4)
H5B H 0.5318 0.608 -0.2114
C6B C 0.5572(4) 0.6281(4) -0.0964(4)
H6B H 0.5166 0.5871 -0.0775
C7B C 0.6371(6) 0.5826(4) 0.0734(4)
H7B H 0.7027 0.5825 0.0663
H8B H 0.6119 0.5353 0.0433
C8B C 0.7012(5) 0.5074(7) 0.2068(4)
H9B H 0.699 0.4527 0.1797
H10B H 0.7575 0.5357 0.1919
N1B N 0.6681(3) 0.7344(2) -0.0708(2)
S1B S 0.61004(16) 0.56928(13) 0.17694(10)
Cl1C Cl 0.84333(10) 0.11154(9) 0.57546(9)
N1C N 0.8319(3) 0.2656(2) 0.4292(2)
Co1B Co 0.75000 0.80939(7) 0.00000
loop_
_geom_bond_atom_site_label_1
_geom_bond_atom_site_label_2
_geom_bond_site_symmetry_1
_geom_bond_site_symmetry_2
C1 C2 1_555 1_555
C2 H1 1_555 1_555
H2 C2 1_555 1_555
C3 H3 1_555 1_555
C4 C3 1_555 1_555
H4 C4 1_555 1_555
C5 C3 1_555 1_555
H5 C5 1_555 1_555
C6 C1 1_555 1_555
H6 C6 1_555 1_555
C7 C2 1_555 1_555
H7 C7 1_555 1_555
H8 C7 1_555 1_555
C8 H9 1_555 1_555
H10 C8 1_555 1_555
N1 C1 1_555 1_555
S1 C7 1_555 1_555
Cl1 Co1 1_555 1_555
Co1 N1 1_555 1_555
C1B C2B 1_555 1_555
C2B H1B 1_555 1_555
H2B C2B 1_555 1_555
C3B H3B 1_555 1_555
C4B C3B 1_555 1_555
H4B C4B 1_555 1_555
C5B C3B 1_555 1_555
H5B C5B 1_555 1_555
C6B C1B 1_555 1_555
H6B C6B 1_555 1_555
C7B C2B 1_555 1_555
H7B C7B 1_555 1_555
H8B C7B 1_555 1_555
C8B C8 1_555 1_555
H9B C8B 1_555 1_555
H10B C8B 1_555 1_555
N1B C1B 1_555 1_555
S1B C7B 1_555 1_555
Cl1C Co1 1_555 1_555
N1C Co1 1_555 1_555
Co1B N1B 1_555 1_555
C4 N1 1_555 1_555
C5 C6 1_555 1_555
C8 S1 1_555 1_555
C4B N1B 1_555 1_555
C5B C6B 1_555 1_555
C8B S1B 1_555 1_555

#END
