
#######################################################################
#
#                 Cambridge Crystallographic Data Centre
#                                CCDC 
#
#######################################################################
#
# If this CIF has been generated from an entry in the Cambridge 
# Structural Database, then it will include bibliographic, chemical, 
# crystal, experimental, refinement or atomic coordinate data resulting 
# from the CCDC's data processing and validation procedures.
#
#######################################################################

data_COBNAK
_symmetry_cell_setting           monoclinic
_symmetry_space_group_name_H-M   'P 21/c'
_symmetry_Int_Tables_number      14
_space_group_name_Hall           '-P 2ybc'
loop_
_symmetry_equiv_pos_site_id
_symmetry_equiv_pos_as_xyz
1 x,y,z
2 -x,1/2+y,1/2-z
3 -x,-y,-z
4 x,1/2-y,1/2+z
_cell_length_a                   11.794(5)
_cell_length_b                   16.703(7)
_cell_length_c                   18.492(7)
_cell_angle_alpha                90
_cell_angle_beta                 94.184(7)
_cell_angle_gamma                90
_cell_volume                     3633.13
loop_
_atom_site_label
_atom_site_type_symbol
_atom_site_fract_x
_atom_site_fract_y
_atom_site_fract_z
Co1 Co 0.28845(4) 0.53966(3) 0.24100(3)
Co2 Co 0.33355(4) 0.55219(3) 0.40818(3)
Cu1 Cu 0.27051(4) 0.52237(3) -0.04541(3)
O1 O 0.2007(2) 0.47906(17) 0.15415(14)
O2 O 0.3742(2) 0.57692(16) 0.15426(13)
O3 O 0.4222(2) 0.44912(16) 0.38249(13)
O4 O 0.3787(2) 0.43962(16) 0.26344(14)
O5 O 0.4587(3) 0.17396(19) 0.15239(17)
O6 O 0.6207(2) 0.11399(15) 0.18721(13)
O7 O 0.8107(3) 0.3026(2) 0.36529(19)
H1 H 0.8190 0.3430 0.3903
O8 O 0.1858(2) 0.51926(15) 0.33650(14)
O9 O 0.1311(2) 0.59956(17) 0.24730(14)
O10 O -0.1479(2) 0.41027(17) 0.47034(14)
O11 O -0.2649(2) 0.50423(17) 0.50671(14)
O12 O -0.2406(3) 0.7119(2) 0.3113(3)
H2 H -0.3077 0.6986 0.3087
O13 O 0.2459(2) 0.65903(16) 0.42650(15)
H3 H 0.2103 0.6487 0.4637
O14 O 0.4779(3) 0.59214(18) 0.46988(15)
H4 H 0.5314 0.6208 0.4555
H5 H 0.5011 0.5769 0.5122
N1 N 0.1920(3) 0.47531(19) 0.02883(17)
N2 N 0.1483(3) 0.5062(2) -0.11420(17)
N3 N 0.3686(3) 0.5409(2) -0.11872(17)
N4 N 0.3709(3) 0.56732(19) 0.02852(16)
C1 C 0.2332(3) 0.4981(2) 0.0938(2)
C2 C 0.1112(3) 0.4139(2) 0.0188(2)
C3 C 0.0533(4) 0.4041(3) -0.0494(2)
C4 C -0.0217(4) 0.3403(3) -0.0614(3)
H6 H -0.0606 0.3346 -0.1067
C5 C -0.0396(5) 0.2864(3) -0.0090(3)
H7 H -0.0882 0.2432 -0.0183
C6 C 0.0155(5) 0.2970(3) 0.0583(3)
H8 H 0.0023 0.2610 0.0951
C7 C 0.0893(4) 0.3590(3) 0.0725(2)
H9 H 0.1252 0.3646 0.1187
C8 C 0.0664(4) 0.4578(3) -0.1090(2)
H10 H 0.0101 0.4571 -0.1469
C9 C 0.1459(4) 0.5597(3) -0.1770(2)
H11 H 0.1582 0.6144 -0.1607
H12 H 0.0717 0.5569 -0.2033
C10 C 0.2359(4) 0.5370(3) -0.2268(2)
H13 H 0.2036 0.4997 -0.2629
H14 H 0.2592 0.5845 -0.2519
C11 C 0.3387(4) 0.4994(3) -0.1879(2)
H15 H 0.3234 0.4434 -0.1785
H16 H 0.4022 0.5021 -0.2183
C12 C 0.4628(4) 0.5779(2) -0.1124(2)
H17 H 0.5056 0.5780 -0.1527
C13 C 0.5101(3) 0.6197(2) -0.0494(2)
C14 C 0.4659(3) 0.6166(2) 0.0193(2)
C15 C 0.5193(4) 0.6632(3) 0.0740(2)
H18 H 0.4911 0.6629 0.1197
C16 C 0.6123(4) 0.7095(3) 0.0625(3)
H19 H 0.6459 0.7400 0.1003
C17 C 0.6568(4) 0.7116(3) -0.0049(2)
H20 H 0.7199 0.7430 -0.0128
C18 C 0.6056(4) 0.6663(3) -0.0591(2)
H21 H 0.6355 0.6666 -0.1042
C19 C 0.3341(3) 0.5532(2) 0.0938(2)
C20 C 0.5139(3) 0.3508(2) 0.31333(19)
C21 C 0.4908(3) 0.2917(2) 0.2616(2)
H22 H 0.4203 0.2904 0.2356
C22 C 0.5722(3) 0.2344(2) 0.2482(2)
C23 C 0.6793(4) 0.2404(2) 0.2838(2)
H23 H 0.7360 0.2046 0.2730
C24 C 0.7027(4) 0.2994(2) 0.3355(2)
C25 C 0.6184(4) 0.3532(2) 0.3518(2)
H24 H 0.6324 0.3907 0.3886
C26 C 0.4309(3) 0.4181(2) 0.3214(2)
C27 C 0.5467(3) 0.1700(2) 0.1930(2)
C28 C -0.0010(3) 0.5770(2) 0.3362(2)
C29 C -0.0382(3) 0.5258(2) 0.3881(2)
H25 H 0.0077 0.4835 0.4051
C30 C -0.1429(3) 0.5372(2) 0.4148(2)
C31 C -0.2102(4) 0.6002(3) 0.3903(2)
H26 H -0.2797 0.6088 0.4098
C32 C -0.1758(4) 0.6503(3) 0.3374(3)
C33 C -0.0701(3) 0.6387(3) 0.3092(2)
H27 H -0.0466 0.6719 0.2729
C34 C 0.1118(3) 0.5653(2) 0.3060(2)
C35 C -0.1878(3) 0.4796(3) 0.46812(19)
C36 C 0.2992(5) 0.7348(3) 0.4416(3)
H28 H 0.3305 0.7358 0.4910
H29 H 0.2439 0.7768 0.4343
H30 H 0.3589 0.7428 0.4098
Co1A Co 0.71155(4) 0.03966(3) 0.25900(3)
Co2A Co 0.66645(4) 0.05219(3) 0.09182(3)
Co2B Co -0.33355(4) 0.44781(3) 0.59182(3)
O6A O 0.3793(2) 0.61399(15) 0.31279(13)
O11B O 0.2649(2) 0.49577(17) 0.49329(14)
O15 O 0.1403(18) 0.3340(15) 0.2894(9)
H31 H 0.0763 0.3493 0.2755
C37 C 0.154(3) 0.3379(11) 0.3711(10)
H32 H 0.2190 0.3704 0.3858
H33 H 0.1654 0.2848 0.3903
H34 H 0.0873 0.3608 0.3892
O16? O 0.111(2) 0.3142(16) 0.3363(16)
H35? H 0.1389 0.2695 0.3430
C38? C 0.0113(16) 0.3089(13) 0.2815(10)
H36? H -0.0293 0.2601 0.2885
H37? H 0.0376 0.3096 0.2335
H38? H -0.0382 0.3537 0.2872
loop_
_geom_bond_atom_site_label_1
_geom_bond_atom_site_label_2
_geom_bond_site_symmetry_1
_geom_bond_site_symmetry_2
Co1 O1 1_555 1_555
Co2 O3 1_555 1_555
Cu1 N1 1_555 1_555
O1 C1 1_555 1_555
O2 Co1 1_555 1_555
O3 C26 1_555 1_555
O4 Co1 1_555 1_555
O5 C27 1_555 1_555
O6 C27 1_555 1_555
O7 H1 1_555 1_555
O8 Co1 1_555 1_555
O9 Co1 1_555 1_555
O10 C35 1_555 1_555
O11 C35 1_555 1_555
O12 H2 1_555 1_555
O13 Co2 1_555 1_555
H3 O13 1_555 1_555
O14 Co2 1_555 1_555
H4 O14 1_555 1_555
H5 O14 1_555 1_555
N1 C1 1_555 1_555
N2 Cu1 1_555 1_555
N3 Cu1 1_555 1_555
N4 Cu1 1_555 1_555
C1 C19 1_555 1_555
C2 N1 1_555 1_555
C3 C2 1_555 1_555
C4 C3 1_555 1_555
H6 C4 1_555 1_555
C5 C4 1_555 1_555
H7 C5 1_555 1_555
C6 C5 1_555 1_555
H8 C6 1_555 1_555
C7 C2 1_555 1_555
H9 C7 1_555 1_555
C8 N2 1_555 1_555
H10 C8 1_555 1_555
C9 N2 1_555 1_555
H11 C9 1_555 1_555
H12 C9 1_555 1_555
C10 C9 1_555 1_555
H13 C10 1_555 1_555
H14 C10 1_555 1_555
C11 N3 1_555 1_555
H15 C11 1_555 1_555
H16 C11 1_555 1_555
C12 N3 1_555 1_555
H17 C12 1_555 1_555
C13 C12 1_555 1_555
C14 N4 1_555 1_555
C15 C14 1_555 1_555
H18 C15 1_555 1_555
C16 C15 1_555 1_555
H19 C16 1_555 1_555
C17 C16 1_555 1_555
H20 C17 1_555 1_555
C18 C13 1_555 1_555
H21 C18 1_555 1_555
C19 O2 1_555 1_555
C20 C21 1_555 1_555
C21 H22 1_555 1_555
C22 C21 1_555 1_555
C23 C22 1_555 1_555
H23 C23 1_555 1_555
C24 O7 1_555 1_555
C25 C20 1_555 1_555
H24 C25 1_555 1_555
C26 O4 1_555 1_555
C27 C22 1_555 1_555
C28 C29 1_555 1_555
C29 H25 1_555 1_555
C30 C29 1_555 1_555
C31 C30 1_555 1_555
H26 C31 1_555 1_555
C32 O12 1_555 1_555
C33 C28 1_555 1_555
H27 C33 1_555 1_555
C34 O8 1_555 1_555
C35 C30 1_555 1_555
C36 O13 1_555 1_555
H28 C36 1_555 1_555
H29 C36 1_555 1_555
H30 C36 1_555 1_555
O15 H31 1_555 1_555
C37 O15 1_555 1_555
H32 C37 1_555 1_555
H33 C37 1_555 1_555
H34 C37 1_555 1_555
Co1A O6 1_555 1_555
Co2A O6 1_555 1_555
Co2B O11 1_555 1_555
O6A Co1 1_555 1_555
O11B Co2 1_555 1_555
Co2 O8 1_555 1_555
Co2 O6A 1_555 1_555
O9 C34 1_555 1_555
N4 C19 1_555 1_555
C3 C8 1_555 1_555
C6 C7 1_555 1_555
C10 C11 1_555 1_555
C13 C14 1_555 1_555
C17 C18 1_555 1_555
C20 C26 1_555 1_555
C23 C24 1_555 1_555
C24 C25 1_555 1_555
C28 C34 1_555 1_555
C31 C32 1_555 1_555
C32 C33 1_555 1_555

#END
