
#######################################################################
#
#                 Cambridge Crystallographic Data Centre
#                                CCDC 
#
#######################################################################
#
# If this CIF has been generated from an entry in the Cambridge 
# Structural Database, then it will include bibliographic, chemical, 
# crystal, experimental, refinement or atomic coordinate data resulting 
# from the CCDC's data processing and validation procedures.
#
#######################################################################

data_COBNIS
_symmetry_cell_setting           monoclinic
_symmetry_space_group_name_H-M   'P 21/n'
_symmetry_Int_Tables_number      14
_space_group_name_Hall           '-P 2yn'
loop_
_symmetry_equiv_pos_site_id
_symmetry_equiv_pos_as_xyz
1 x,y,z
2 1/2-x,1/2+y,1/2-z
3 -x,-y,-z
4 1/2+x,1/2-y,1/2+z
_cell_length_a                   9.7954(10)
_cell_length_b                   24.686(3)
_cell_length_c                   15.9523(16)
_cell_angle_alpha                90
_cell_angle_beta                 92.175(2)
_cell_angle_gamma                90
_cell_volume                     3854.63
loop_
_atom_site_label
_atom_site_type_symbol
_atom_site_fract_x
_atom_site_fract_y
_atom_site_fract_z
Co1 Co -0.27094(6) 0.41920(2) 0.75387(4)
Co2 Co 0.22899(6) 0.32600(2) 0.73911(4)
Cu1 Cu 0.31162(5) 0.11536(2) 0.68040(3)
Cu2 Cu -0.18302(5) 0.63170(2) 0.69720(3)
O1 O 0.1771(3) 0.24841(11) 0.79236(17)
O2 O 0.3374(3) 0.27251(12) 0.66698(18)
O3 O -0.3205(3) 0.49712(12) 0.80650(17)
O4 O -0.1559(3) 0.47222(12) 0.68562(17)
O5 O -0.0924(3) 0.40876(12) 0.82811(17)
O6 O 0.1201(3) 0.37776(12) 0.81180(17)
O7 O 0.0372(3) 0.32490(11) 0.67238(18)
O8 O -0.1765(3) 0.35612(12) 0.68659(17)
O9 O -0.4539(3) 0.42291(11) 0.68123(18)
O10 O -0.6659(3) 0.38851(12) 0.68064(18)
O11 O -0.3895(3) 0.36925(12) 0.82442(17)
O12 O -0.5970(3) 0.33109(12) 0.82041(18)
N1 N 0.2253(4) 0.15644(14) 0.7727(2)
N2 N 0.2075(4) 0.04845(14) 0.7053(2)
N3 N 0.3774(4) 0.09010(15) 0.5696(2)
N4 N 0.4138(4) 0.18344(14) 0.6668(2)
N5 N -0.0871(4) 0.56221(14) 0.6770(2)
N6 N -0.0778(4) 0.66797(15) 0.6078(2)
N7 N -0.3116(4) 0.69402(14) 0.7135(2)
N8 N -0.2719(4) 0.58904(14) 0.7867(2)
C1 C 0.2374(4) 0.20992(18) 0.7594(3)
C2 C 0.1407(4) 0.13638(18) 0.8348(3)
C3 C 0.0866(4) 0.08412(18) 0.8272(3)
C4 C -0.0019(4) 0.06386(19) 0.8882(3)
H1 H -0.0398 0.0286 0.8819
C5 C -0.0333(5) 0.09511(18) 0.9566(3)
H2 H -0.0949 0.0820 0.9965
C6 C 0.0259(5) 0.14568(19) 0.9663(3)
H3 H 0.0081 0.1665 1.0148
C7 C 0.1104(5) 0.16648(18) 0.9070(3)
H4 H 0.1487 0.2016 0.9148
C8 C 0.1211(4) 0.04472(18) 0.7644(3)
H5 H 0.0736 0.0113 0.7669
C9 C 0.2143(5) -0.00334(18) 0.6561(3)
H6 H 0.1258 -0.0086 0.6252
H7 H 0.2264 -0.0338 0.6960
C10 C 0.3266(5) -0.00577(18) 0.5946(3)
H8 H 0.3212 -0.0407 0.5641
H9 H 0.4161 -0.0043 0.6255
C11 C 0.3179(5) 0.04015(18) 0.5319(3)
H10 H 0.3681 0.0303 0.4814
H11 H 0.2212 0.0467 0.5145
C12 C 0.4701(5) 0.11234(18) 0.5264(3)
H12 H 0.4897 0.0949 0.4752
C13 C 0.5488(4) 0.16087(17) 0.5461(3)
C14 C 0.5220(4) 0.19566(17) 0.6129(3)
C15 C 0.6063(4) 0.24063(17) 0.6260(3)
H13 H 0.5907 0.2641 0.6718
C16 C 0.7124(4) 0.25174(18) 0.5736(3)
H14 H 0.7681 0.2828 0.5836
C17 C 0.7377(5) 0.21792(18) 0.5065(3)
H15 H 0.8103 0.2256 0.4705
C18 C 0.6567(4) 0.17301(18) 0.4928(3)
H16 H 0.6735 0.1498 0.4468
C19 C 0.3378(5) 0.22428(18) 0.6920(3)
C20 C -0.1598(4) 0.52146(18) 0.7063(3)
C21 C 0.0196(4) 0.55021(18) 0.6222(3)
C22 C 0.0552(4) 0.58914(18) 0.5621(3)
C23 C 0.1543(5) 0.57639(19) 0.5045(3)
H17 H 0.1753 0.6020 0.4624
C24 C 0.2221(5) 0.52743(19) 0.5075(3)
H18 H 0.2882 0.5190 0.4674
C25 C 0.1923(4) 0.49088(18) 0.5696(3)
H19 H 0.2411 0.4577 0.5735
C26 C 0.0926(5) 0.50187(18) 0.6261(3)
H20 H 0.0736 0.4761 0.6683
C27 C 0.0029(5) 0.64351(19) 0.5577(3)
H21 H 0.0315 0.6644 0.5116
C28 C -0.1002(5) 0.7265(2) 0.5892(4)
H22 H -0.0529 0.7363 0.5376
H23 H -0.0608 0.7486 0.6360
C29 C -0.2504(5) 0.7386(2) 0.5776(3)
H24 H -0.2624 0.7727 0.5455
H25 H -0.2949 0.7092 0.5445
C30 C -0.3194(5) 0.74404(18) 0.6598(3)
H26 H -0.2770 0.7745 0.6916
H27 H -0.4167 0.7532 0.6484
C31 C -0.3974(5) 0.69632(18) 0.7730(3)
H28 H -0.4531 0.7278 0.7728
C32 C -0.4216(4) 0.65805(18) 0.8401(3)
C33 C -0.3578(4) 0.60740(17) 0.8489(3)
C34 C -0.3836(4) 0.57703(17) 0.9219(3)
H29 H -0.3410 0.5428 0.9299
C35 C -0.4692(5) 0.59624(19) 0.9813(3)
H30 H -0.4821 0.5757 1.0307
C36 C -0.5374(5) 0.64546(19) 0.9702(3)
H31 H -0.5998 0.6578 1.0101
C37 C -0.5123(5) 0.67565(18) 0.9003(3)
H32 H -0.5575 0.7094 0.8925
C38 C -0.2600(4) 0.53606(17) 0.7726(3)
C39 C -0.0040(5) 0.38259(17) 0.7900(3)
C40 C -0.0530(4) 0.35226(17) 0.7091(3)
C41 C -0.5463(4) 0.39367(17) 0.7104(3)
C42 C -0.5073(4) 0.36205(17) 0.7919(3)
Co2_2 Co -0.77101(6) 0.32600(2) 0.73911(4)
O10_2 O 0.3341(3) 0.38851(12) 0.68064(18)
O12_2 O 0.4030(3) 0.33109(12) 0.82041(18)
loop_
_geom_bond_atom_site_label_1
_geom_bond_atom_site_label_2
_geom_bond_site_symmetry_1
_geom_bond_site_symmetry_2
Co1 O3 1_555 1_555
Co2 O1 1_555 1_555
Cu1 N1 1_555 1_555
Cu2 N5 1_555 1_555
O1 C1 1_555 1_555
O2 Co2 1_555 1_555
O3 C38 1_555 1_555
O4 Co1 1_555 1_555
O5 Co1 1_555 1_555
O6 Co2 1_555 1_555
O7 Co2 1_555 1_555
O8 Co1 1_555 1_555
O9 Co1 1_555 1_555
O10 C41 1_555 1_555
O11 Co1 1_555 1_555
O12 C42 1_555 1_555
N1 C1 1_555 1_555
N2 Cu1 1_555 1_555
N3 Cu1 1_555 1_555
N4 Cu1 1_555 1_555
N5 C20 1_555 1_555
N6 Cu2 1_555 1_555
N7 Cu2 1_555 1_555
N8 Cu2 1_555 1_555
C1 C19 1_555 1_555
C2 N1 1_555 1_555
C3 C2 1_555 1_555
C4 C3 1_555 1_555
H1 C4 1_555 1_555
C5 C4 1_555 1_555
H2 C5 1_555 1_555
C6 C5 1_555 1_555
H3 C6 1_555 1_555
C7 C2 1_555 1_555
H4 C7 1_555 1_555
C8 N2 1_555 1_555
H5 C8 1_555 1_555
C9 N2 1_555 1_555
H6 C9 1_555 1_555
H7 C9 1_555 1_555
C10 C9 1_555 1_555
H8 C10 1_555 1_555
H9 C10 1_555 1_555
C11 N3 1_555 1_555
H10 C11 1_555 1_555
H11 C11 1_555 1_555
C12 N3 1_555 1_555
H12 C12 1_555 1_555
C13 C12 1_555 1_555
C14 N4 1_555 1_555
C15 C14 1_555 1_555
H13 C15 1_555 1_555
C16 C15 1_555 1_555
H14 C16 1_555 1_555
C17 C16 1_555 1_555
H15 C17 1_555 1_555
C18 C13 1_555 1_555
H16 C18 1_555 1_555
C19 O2 1_555 1_555
C20 O4 1_555 1_555
C21 N5 1_555 1_555
C22 C21 1_555 1_555
C23 C22 1_555 1_555
H17 C23 1_555 1_555
C24 C23 1_555 1_555
H18 C24 1_555 1_555
C25 C24 1_555 1_555
H19 C25 1_555 1_555
C26 C21 1_555 1_555
H20 C26 1_555 1_555
C27 N6 1_555 1_555
H21 C27 1_555 1_555
C28 N6 1_555 1_555
H22 C28 1_555 1_555
H23 C28 1_555 1_555
C29 C28 1_555 1_555
H24 C29 1_555 1_555
H25 C29 1_555 1_555
C30 N7 1_555 1_555
H26 C30 1_555 1_555
H27 C30 1_555 1_555
C31 N7 1_555 1_555
H28 C31 1_555 1_555
C32 C31 1_555 1_555
C33 N8 1_555 1_555
C34 C33 1_555 1_555
H29 C34 1_555 1_555
C35 C34 1_555 1_555
H30 C35 1_555 1_555
C36 C35 1_555 1_555
H31 C36 1_555 1_555
C37 C32 1_555 1_555
H32 C37 1_555 1_555
C38 N8 1_555 1_555
C39 O5 1_555 1_555
C40 O7 1_555 1_555
C41 O9 1_555 1_555
C42 O11 1_555 1_555
Co2_2 O10 1_555 1_555
O10_2 Co2 1_555 1_555
O12_2 Co2 1_555 1_555
O6 C39 1_555 1_555
O8 C40 1_555 1_555
O12 Co2_2 1_555 1_555
N4 C19 1_555 1_555
C3 C8 1_555 1_555
C6 C7 1_555 1_555
C10 C11 1_555 1_555
C13 C14 1_555 1_555
C17 C18 1_555 1_555
C20 C38 1_555 1_555
C22 C27 1_555 1_555
C25 C26 1_555 1_555
C29 C30 1_555 1_555
C32 C33 1_555 1_555
C36 C37 1_555 1_555
C39 C40 1_555 1_555
C41 C42 1_555 1_555

#END
