
#######################################################################
#
#                 Cambridge Crystallographic Data Centre
#                                CCDC 
#
#######################################################################
#
# If this CIF has been generated from an entry in the Cambridge 
# Structural Database, then it will include bibliographic, chemical, 
# crystal, experimental, refinement or atomic coordinate data resulting 
# from the CCDC's data processing and validation procedures.
#
#######################################################################

data_COBNUE
_symmetry_cell_setting           triclinic
_symmetry_space_group_name_H-M   'P -1'
_symmetry_Int_Tables_number      2
_space_group_name_Hall           '-P 1'
loop_
_symmetry_equiv_pos_site_id
_symmetry_equiv_pos_as_xyz
1 x,y,z
2 -x,-y,-z
_cell_length_a                   9.9613(8)
_cell_length_b                   12.0095(10)
_cell_length_c                   12.2172(11)
_cell_angle_alpha                68.5910(10)
_cell_angle_beta                 85.854(2)
_cell_angle_gamma                67.7730(10)
_cell_volume                     1255.91
loop_
_atom_site_label
_atom_site_type_symbol
_atom_site_fract_x
_atom_site_fract_y
_atom_site_fract_z
Co1 Co 0.08242(4) 0.32655(3) 0.65992(3)
Cu1 Cu 0.29390(3) 0.23564(3) 1.09089(3)
O1 O 0.02022(18) 0.34330(18) 0.82171(15)
O2 O 0.28425(19) 0.22654(18) 0.77082(16)
O3 O 0.1259(2) 0.2407(2) 0.5256(2)
O4 O 0.0665(2) 0.1414(2) 0.69961(18)
O5 O -0.13085(19) 0.4218(2) 0.60307(16)
O6 O -0.15286(19) 0.52603(18) 0.40760(16)
N1 N 0.1060(2) 0.2933(2) 1.01108(18)
N2 N 0.2135(3) 0.3267(2) 1.1987(2)
N3 N 0.4720(3) 0.1293(2) 1.1919(2)
N4 N 0.3774(2) 0.2001(2) 0.95236(19)
C1 C 0.1177(3) 0.2968(2) 0.9018(2)
C2 C -0.0306(3) 0.3357(2) 1.0562(2)
C3 C -0.0412(3) 0.3744(3) 1.1534(2)
C4 C -0.1769(3) 0.4171(3) 1.1980(3)
H1 H -0.1845 0.4450 1.2607
C5 C -0.2993(4) 0.4187(4) 1.1508(3)
H2 H -0.3890 0.4482 1.1807
C6 C -0.2873(3) 0.3761(4) 1.0593(3)
H3 H -0.3693 0.3747 1.0288
C7 C -0.1555(3) 0.3352(3) 1.0114(3)
H4 H -0.1501 0.3073 0.9489
C8 C 0.0785(3) 0.3755(3) 1.2136(2)
H5 H 0.0545 0.4159 1.2683
C9 C 0.3194(4) 0.3436(3) 1.2635(3)
H6 H 0.2670 0.4014 1.3042
H7 H 0.3768 0.3839 1.2075
C10 C 0.4205(4) 0.2176(4) 1.3524(3)
H8 H 0.3759 0.2018 1.4269
H9 H 0.5100 0.2272 1.3647
C11 C 0.4586(4) 0.0997(3) 1.3190(3)
H10 H 0.5497 0.0344 1.3614
H11 H 0.3838 0.0641 1.3431
C12 C 0.5951(3) 0.0770(3) 1.1553(3)
H12 H 0.6720 0.0246 1.2126
C13 C 0.6283(3) 0.0897(3) 1.0356(3)
C14 C 0.5269(3) 0.1454(2) 0.9366(2)
C15 C 0.5809(3) 0.1444(3) 0.8294(3)
H13 H 0.5159 0.1792 0.7637
C16 C 0.7281(3) 0.0936(3) 0.8168(3)
H14 H 0.7607 0.0968 0.7429
C17 C 0.8275(3) 0.0378(3) 0.9138(3)
H15 H 0.9267 0.0028 0.9058
C18 C 0.7773(3) 0.0354(3) 1.0200(3)
H16 H 0.8438 -0.0038 1.0855
C19 C 0.2738(3) 0.2359(2) 0.8688(2)
C20 C 0.0837(3) 0.1548(3) 0.5934(3)
C21 C 0.0450(3) 0.0717(3) 0.5459(2)
C22 C 0.0122(4) -0.0310(3) 0.6197(3)
H17 H 0.0207 -0.0532 0.7010
C23 C 0.0333(4) 0.1015(3) 0.4262(3)
H18 H 0.0563 0.1701 0.3755
C24 C -0.2007(3) 0.4788(2) 0.5039(2)
C25 C -0.3559(3) 0.4891(2) 0.5025(2)
C26 C -0.4419(3) 0.5505(3) 0.3967(2)
H19 H -0.4027 0.5845 0.3268
C27 C -0.4153(3) 0.4386(3) 0.6055(2)
H20 H -0.3587 0.3970 0.6767
O3A O -0.1259(2) -0.2407(2) 0.4744(2)
O4A O -0.0665(2) -0.1414(2) 0.30039(18)
C20A C -0.0837(3) -0.1548(3) 0.4066(3)
C21A C -0.0450(3) -0.0717(3) 0.4541(2)
C22A C -0.0122(4) 0.0310(3) 0.3803(3)
H17A H -0.0207 0.0532 0.2990
C23A C -0.0333(4) -0.1015(3) 0.5738(3)
H18A H -0.0563 -0.1701 0.6245
O5A O -0.86915(19) 0.5782(2) 0.39693(16)
O6A O -0.84714(19) 0.47397(18) 0.59240(16)
C24A C -0.7993(3) 0.5212(2) 0.4961(2)
C25A C -0.6441(3) 0.5109(2) 0.4975(2)
C26A C -0.5581(3) 0.4495(3) 0.6033(2)
H19A H -0.5973 0.4155 0.6732
C27A C -0.5847(3) 0.5614(3) 0.3945(2)
H20A H -0.6413 0.6030 0.3233
Co1A Co -1.08242(4) 0.67345(3) 0.34008(3)
Cu1A Cu -1.29390(3) 0.76436(3) -0.09089(3)
O1A O -1.02022(18) 0.65670(18) 0.17829(15)
O2A O -1.28425(19) 0.77346(18) 0.22918(16)
N1A N -1.1060(2) 0.7067(2) -0.01108(18)
N2A N -1.2135(3) 0.6733(2) -0.1987(2)
N3A N -1.4720(3) 0.8707(2) -0.1919(2)
N4A N -1.3774(2) 0.7999(2) 0.04764(19)
C1A C -1.1177(3) 0.7032(2) 0.0982(2)
C2A C -0.9694(3) 0.6643(2) -0.0562(2)
C3A C -0.9588(3) 0.6256(3) -0.1534(2)
C4A C -0.8231(3) 0.5829(3) -0.1980(3)
H1A H -0.8155 0.5550 -0.2607
C5A C -0.7007(4) 0.5813(4) -0.1508(3)
H2A H -0.6110 0.5518 -0.1807
C6A C -0.7127(3) 0.6239(4) -0.0593(3)
H3A H -0.6307 0.6253 -0.0288
C7A C -0.8445(3) 0.6648(3) -0.0114(3)
H4A H -0.8499 0.6927 0.0511
C8A C -1.0785(3) 0.6245(3) -0.2136(2)
H5A H -1.0545 0.5841 -0.2683
C9A C -1.3194(4) 0.6564(3) -0.2635(3)
H6A H -1.2670 0.5986 -0.3042
H7A H -1.3768 0.6161 -0.2075
C10A C -1.4205(4) 0.7824(4) -0.3524(3)
H8A H -1.3759 0.7982 -0.4269
H9A H -1.5100 0.7728 -0.3647
C11A C -1.4586(4) 0.9003(3) -0.3190(3)
H10A H -1.5497 0.9656 -0.3614
H11A H -1.3838 0.9359 -0.3431
C12A C -1.5951(3) 0.9230(3) -0.1553(3)
H12A H -1.6720 0.9754 -0.2126
C13A C -1.6283(3) 0.9103(3) -0.0356(3)
C14A C -1.5269(3) 0.8546(2) 0.0634(2)
C15A C -1.5809(3) 0.8556(3) 0.1706(3)
H13A H -1.5159 0.8208 0.2363
C16A C -1.7281(3) 0.9064(3) 0.1832(3)
H14A H -1.7607 0.9032 0.2571
C17A C -1.8275(3) 0.9622(3) 0.0862(3)
H15A H -1.9267 0.9972 0.0942
C18A C -1.7773(3) 0.9646(3) -0.0200(3)
H16A H -1.8438 1.0038 -0.0855
C19A C -1.2738(3) 0.7641(2) 0.1312(2)
Co1_2 Co -0.91758(4) 0.32655(3) 0.65992(3)
Co1A_2 Co -0.08242(4) -0.32655(3) 0.34008(3)
Co1A_3 Co -0.08242(4) 0.67345(3) 0.34008(3)
O3A_2 O -1.1259(2) 0.7593(2) 0.4744(2)
O4A_2 O -1.0665(2) 0.8586(2) 0.30039(18)
O6_2 O -1.15286(19) 0.52603(18) 0.40760(16)
O6A_2 O 0.15286(19) 0.47397(18) 0.59240(16)
loop_
_geom_bond_atom_site_label_1
_geom_bond_atom_site_label_2
_geom_bond_site_symmetry_1
_geom_bond_site_symmetry_2
Co1 O1 1_555 1_555
Cu1 N1 1_555 1_555
O1 C1 1_555 1_555
O2 Co1 1_555 1_555
O3 Co1 1_555 1_555
O4 Co1 1_555 1_555
O5 Co1 1_555 1_555
O6 C24 1_555 1_555
N1 C1 1_555 1_555
N2 Cu1 1_555 1_555
N3 Cu1 1_555 1_555
N4 Cu1 1_555 1_555
C1 C19 1_555 1_555
C2 N1 1_555 1_555
C3 C2 1_555 1_555
C4 C3 1_555 1_555
H1 C4 1_555 1_555
C5 C4 1_555 1_555
H2 C5 1_555 1_555
C6 C5 1_555 1_555
H3 C6 1_555 1_555
C7 C2 1_555 1_555
H4 C7 1_555 1_555
C8 N2 1_555 1_555
H5 C8 1_555 1_555
C9 N2 1_555 1_555
H6 C9 1_555 1_555
H7 C9 1_555 1_555
C10 C9 1_555 1_555
H8 C10 1_555 1_555
H9 C10 1_555 1_555
C11 N3 1_555 1_555
H10 C11 1_555 1_555
H11 C11 1_555 1_555
C12 N3 1_555 1_555
H12 C12 1_555 1_555
C13 C12 1_555 1_555
C14 N4 1_555 1_555
C15 C14 1_555 1_555
H13 C15 1_555 1_555
C16 C15 1_555 1_555
H14 C16 1_555 1_555
C17 C16 1_555 1_555
H15 C17 1_555 1_555
C18 C13 1_555 1_555
H16 C18 1_555 1_555
C19 O2 1_555 1_555
C20 O3 1_555 1_555
C21 C20 1_555 1_555
C22 C21 1_555 1_555
H17 C22 1_555 1_555
C23 C21 1_555 1_555
H18 C23 1_555 1_555
C24 O5 1_555 1_555
C25 C24 1_555 1_555
C26 C25 1_555 1_555
H19 C26 1_555 1_555
C27 C25 1_555 1_555
H20 C27 1_555 1_555
O3A C20A 1_555 1_555
O4A C20A 1_555 1_555
C20A C21A 1_555 1_555
C21A C22A 1_555 1_555
C22A C23 1_555 1_555
H17A C22A 1_555 1_555
C23A C22 1_555 1_555
H18A C23A 1_555 1_555
O5A C24A 1_555 1_555
O6A C24A 1_555 1_555
C24A C25A 1_555 1_555
C25A C26A 1_555 1_555
C26A C27 1_555 1_555
H19A C26A 1_555 1_555
C27A C26 1_555 1_555
H20A C27A 1_555 1_555
Co1A O5A 1_555 1_555
Cu1A N1A 1_555 1_555
O1A Co1A 1_555 1_555
O2A Co1A 1_555 1_555
N1A C1A 1_555 1_555
N2A Cu1A 1_555 1_555
N3A Cu1A 1_555 1_555
N4A Cu1A 1_555 1_555
C1A O1A 1_555 1_555
C2A N1A 1_555 1_555
C3A C2A 1_555 1_555
C4A C3A 1_555 1_555
H1A C4A 1_555 1_555
C5A C4A 1_555 1_555
H2A C5A 1_555 1_555
C6A C5A 1_555 1_555
H3A C6A 1_555 1_555
C7A C2A 1_555 1_555
H4A C7A 1_555 1_555
C8A N2A 1_555 1_555
H5A C8A 1_555 1_555
C9A N2A 1_555 1_555
H6A C9A 1_555 1_555
H7A C9A 1_555 1_555
C10A C9A 1_555 1_555
H8A C10A 1_555 1_555
H9A C10A 1_555 1_555
C11A N3A 1_555 1_555
H10A C11A 1_555 1_555
H11A C11A 1_555 1_555
C12A N3A 1_555 1_555
H12A C12A 1_555 1_555
C13A C12A 1_555 1_555
C14A N4A 1_555 1_555
C15A C14A 1_555 1_555
H13A C15A 1_555 1_555
C16A C15A 1_555 1_555
H14A C16A 1_555 1_555
C17A C16A 1_555 1_555
H15A C17A 1_555 1_555
C18A C13A 1_555 1_555
H16A C18A 1_555 1_555
C19A O2A 1_555 1_555
Co1_2 O6A 1_555 1_555
Co1A_2 O3A 1_555 1_555
Co1A_3 O6 1_555 1_555
O3A_2 Co1A 1_555 1_555
O4A_2 Co1A 1_555 1_555
O6_2 Co1A 1_555 1_555
O6A_2 Co1 1_555 1_555
O4 C20 1_555 1_555
N4 C19 1_555 1_555
C3 C8 1_555 1_555
C6 C7 1_555 1_555
C10 C11 1_555 1_555
C13 C14 1_555 1_555
C17 C18 1_555 1_555
O4A Co1A_2 1_555 1_555
C21A C23A 1_555 1_555
C25A C27A 1_555 1_555
N4A C19A 1_555 1_555
C1A C19A 1_555 1_555
C3A C8A 1_555 1_555
C6A C7A 1_555 1_555
C10A C11A 1_555 1_555
C13A C14A 1_555 1_555
C17A C18A 1_555 1_555

#END
