
#######################################################################
#
#                 Cambridge Crystallographic Data Centre
#                                CCDC 
#
#######################################################################
#
# If this CIF has been generated from an entry in the Cambridge 
# Structural Database, then it will include bibliographic, chemical, 
# crystal, experimental, refinement or atomic coordinate data resulting 
# from the CCDC's data processing and validation procedures.
#
#######################################################################

data_COBNOY
_symmetry_cell_setting           triclinic
_symmetry_space_group_name_H-M   'P -1'
_symmetry_Int_Tables_number      2
_space_group_name_Hall           '-P 1'
loop_
_symmetry_equiv_pos_site_id
_symmetry_equiv_pos_as_xyz
1 x,y,z
2 -x,-y,-z
_cell_length_a                   13.9971(6)
_cell_length_b                   17.0166(8)
_cell_length_c                   22.1463(10)
_cell_angle_alpha                82.0440(10)
_cell_angle_beta                 73.2060(10)
_cell_angle_gamma                86.3070(10)
_cell_volume                     4999.63
loop_
_atom_site_label
_atom_site_type_symbol
_atom_site_fract_x
_atom_site_fract_y
_atom_site_fract_z
Ni1 Ni 0.18935(3) 1.06179(3) 0.53737(2)
Ni2 Ni 0.74522(4) 0.48279(3) 0.52498(2)
Ni3 Ni 0.74733(4) 0.52128(3) -0.04184(2)
Ni4 Ni 0.31481(4) -0.05635(3) -0.04276(2)
Co1 Co 0.30382(4) 0.89617(3) 0.34255(2)
Co2 Co 0.82427(4) 0.51139(3) 0.27317(2)
Co3 Co 0.63784(4) 0.46791(3) 0.21296(2)
Co4 Co 0.19211(4) 0.09095(3) 0.16163(2)
O1 O 0.17258(18) 0.95967(16) 0.39191(12)
O2 O 0.32324(19) 0.89767(16) 0.43138(12)
O3 O 0.8719(2) 0.45014(16) 0.34883(12)
O4 O 0.71842(18) 0.54965(16) 0.35330(12)
O5 O 0.58949(19) 0.52525(17) 0.13517(12)
O6 O 0.75487(18) 0.44110(16) 0.13215(12)
O7 O 0.1743(2) 0.09672(17) 0.07200(12)
O8 O 0.32429(18) 0.03067(16) 0.11072(12)
O9 O 0.2564(2) 0.88160(16) 0.26254(13)
O10 O 0.2201(2) 0.78748(17) 0.34342(13)
O11 O -0.0642(2) 0.61804(19) 0.33565(13)
O12 O -0.0589(2) 0.58077(16) 0.24199(12)
O13 O 0.44020(19) 0.84249(16) 0.31101(13)
O14 O 0.5313(2) 0.94968(17) 0.26714(14)
O15 O 0.5901(2) 0.58075(16) 0.24719(13)
O16 O 0.7525(2) 0.56818(15) 0.20888(11)
O17 O 0.72088(18) 0.41137(15) 0.27466(11)
O18 O 0.88343(18) 0.40790(15) 0.22954(11)
O19 O 1.05549(19) 0.14362(16) 0.19251(13)
O20 O 0.9692(2) 0.03451(17) 0.23934(14)
O21 O 0.5569(2) 0.36650(18) 0.19931(15)
O22 O 0.5069(2) 0.42089(18) 0.28687(15)
O23 O 0.2738(2) 0.20503(17) 0.16477(13)
O24 O 0.2431(2) 0.10245(16) 0.23869(13)
O25 O 0.35418(18) 1.01129(15) 0.31079(12)
H1 H 0.3248 1.0345 0.2843
H2 H 0.4130 1.0008 0.2886
O26 O 0.14521(19) -0.02566(15) 0.19065(12)
H3 H 0.1781 -0.0526 0.2136
H4 H 0.0872 -0.0192 0.2156
N1 N 0.2865(2) 0.98227(18) 0.50987(14)
N2 N 0.2639(2) 1.1041(2) 0.58323(15)
N3 N 0.0753(2) 1.11630(19) 0.57976(14)
N4 N 0.1347(2) 1.04304(18) 0.47141(14)
N5 N 0.8535(2) 0.45634(18) 0.45594(14)
N6 N 0.8153(2) 0.4574(2) 0.58567(14)
N7 N 0.6237(2) 0.4759(2) 0.58850(15)
N8 N 0.6873(2) 0.53792(19) 0.46381(14)
N9 N 0.6359(2) 0.54597(19) 0.02496(14)
N10 N 0.6783(3) 0.5439(2) -0.10370(15)
N11 N 0.8699(2) 0.5293(2) -0.10447(15)
N12 N 0.8030(2) 0.46697(19) 0.02093(14)
N13 N 0.2138(2) 0.02002(19) -0.01103(14)
N14 N 0.2458(3) -0.0919(2) -0.09483(15)
N15 N 0.4333(2) -0.10545(19) -0.08648(14)
N16 N 0.3638(2) -0.04633(19) 0.02697(14)
C1 C 0.2738(3) 0.9505(2) 0.46121(17)
C2 C 0.3643(3) 0.9538(2) 0.53704(17)
C3 C 0.4139(3) 0.8810(2) 0.52811(18)
H5 H 0.3945 0.8476 0.5042
C4 C 0.4915(3) 0.8572(3) 0.55414(19)
H6 H 0.5228 0.8079 0.5477
C5 C 0.5229(3) 0.9054(3) 0.58940(19)
H7 H 0.5765 0.8900 0.6056
C6 C 0.4738(3) 0.9762(3) 0.59992(18)
H8 H 0.4944 1.0091 0.6238
C7 C 0.3939(3) 1.0007(2) 0.57587(18)
C8 C 0.3468(3) 1.0751(2) 0.59195(19)
H9 H 0.3798 1.1060 0.6108
C9 C 0.2296(4) 1.1830(3) 0.6034(2)
H10 H 0.2201 1.2187 0.5674
H11 H 0.2806 1.2047 0.6178
C10 C 0.1335(4) 1.1782(3) 0.6562(2)
H12 H 0.1009 1.2302 0.6576
H13 H 0.1481 1.1625 0.6965
C11 C 0.0637(3) 1.1196(3) 0.64758(19)
H14 H 0.0774 1.0673 0.6675
H15 H -0.0046 1.1349 0.6683
C12 C 0.0019(3) 1.1433(2) 0.55810(19)
H16 H -0.0511 1.1681 0.5854
C13 C -0.0051(3) 1.1382(2) 0.49543(18)
C14 C 0.0562(3) 1.0882(2) 0.45331(18)
C15 C 0.0364(3) 1.0864(3) 0.39594(19)
H17 H 0.0753 1.0540 0.3671
C16 C -0.0406(4) 1.1320(3) 0.3809(2)
H18 H -0.0518 1.1301 0.3417
C17 C -0.1009(4) 1.1799(3) 0.4216(2)
H19 H -0.1530 1.2096 0.4108
C18 C -0.0828(3) 1.1831(3) 0.4782(2)
H20 H -0.1230 1.2158 0.5062
C19 C 0.1857(3) 0.9871(2) 0.43835(18)
C20 C 0.8303(3) 0.4722(2) 0.40108(18)
C21 C 0.9417(3) 0.4136(2) 0.45957(18)
C22 C 1.0080(3) 0.3818(3) 0.4081(2)
H21 H 0.9923 0.3855 0.3697
C23 C 1.0961(3) 0.3450(3) 0.4133(2)
H22 H 1.1389 0.3243 0.3782
C24 C 1.1228(3) 0.3381(3) 0.4694(2)
H23 H 1.1834 0.3142 0.4720
C25 C 1.0579(3) 0.3671(3) 0.5205(2)
H24 H 1.0744 0.3621 0.5587
C26 C 0.9669(3) 0.4043(2) 0.51721(18)
C27 C 0.9057(3) 0.4308(2) 0.57532(18)
H25 H 0.9343 0.4283 0.6086
C28 C 0.7658(3) 0.4810(3) 0.64940(18)
H26 H 0.7433 0.5360 0.6450
H27 H 0.8135 0.4765 0.6740
C29 C 0.6773(3) 0.4294(3) 0.6845(2)
H28 H 0.7008 0.3803 0.7041
H29 H 0.6333 0.4567 0.7180
C30 C 0.6195(3) 0.4104(3) 0.64049(19)
H30 H 0.6471 0.3622 0.6226
H31 H 0.5505 0.4012 0.6645
C31 C 0.5417(3) 0.5131(2) 0.58725(18)
H32 H 0.4851 0.4993 0.6206
C32 C 0.5308(3) 0.5755(2) 0.53721(19)
C33 C 0.4420(3) 0.6211(3) 0.5501(2)
H33 H 0.3953 0.6120 0.5897
C34 C 0.4226(3) 0.6787(3) 0.5055(2)
H34 H 0.3633 0.7086 0.5147
C35 C 0.4913(3) 0.6923(3) 0.4467(2)
H35 H 0.4787 0.7320 0.4164
C36 C 0.5789(3) 0.6476(2) 0.4325(2)
H36 H 0.6248 0.6579 0.3927
C37 C 0.5998(3) 0.5872(2) 0.47669(18)
C38 C 0.7375(3) 0.5256(2) 0.40461(18)
C39 C 0.6474(3) 0.5184(2) 0.08164(19)
C40 C 0.5516(3) 0.5925(2) 0.01929(19)
C41 C 0.4875(3) 0.6293(3) 0.0692(2)
H37 H 0.5021 0.6253 0.1080
C42 C 0.4031(3) 0.6712(3) 0.0619(2)
H38 H 0.3613 0.6942 0.0960
C43 C 0.3794(3) 0.6797(3) 0.0053(2)
H39 H 0.3217 0.7075 0.0012
C44 C 0.4419(3) 0.6470(3) -0.0449(2)
H40 H 0.4267 0.6530 -0.0835
C45 C 0.5290(3) 0.6043(2) -0.03937(19)
C46 C 0.5899(3) 0.5727(2) -0.0955(2)
H41 H 0.5620 0.5735 -0.1290
C47 C 0.7272(4) 0.5139(3) -0.1648(2)
H42 H 0.6800 0.5167 -0.1897
H43 H 0.7471 0.4587 -0.1569
C48 C 0.8182(4) 0.5614(3) -0.2022(2)
H44 H 0.7976 0.6068 -0.2276
H45 H 0.8637 0.5287 -0.2310
C49 C 0.8723(3) 0.5902(3) -0.1593(2)
H46 H 0.9410 0.6012 -0.1831
H47 H 0.8406 0.6390 -0.1443
C50 C 0.9530(3) 0.4963(3) -0.10044(19)
H48 H 1.0098 0.5113 -0.1332
C51 C 0.9664(3) 0.4376(3) -0.04959(19)
C52 C 1.0577(3) 0.3962(3) -0.0598(2)
H49 H 1.1062 0.4077 -0.0985
C53 C 1.0785(3) 0.3396(3) -0.0155(2)
H50 H 1.1400 0.3127 -0.0238
C54 C 1.0069(3) 0.3224(3) 0.0423(2)
H51 H 1.0200 0.2830 0.0726
C55 C 0.9163(3) 0.3633(3) 0.0550(2)
H52 H 0.8693 0.3516 0.0942
C56 C 0.8940(3) 0.4221(2) 0.00983(19)
C57 C 0.7431(3) 0.4706(2) 0.07995(19)
C58 C 0.2254(3) 0.0460(2) 0.04000(18)
C59 C 0.1364(3) 0.0504(2) -0.03766(18)
C60 C 0.0840(3) 0.1217(3) -0.02476(19)
H53 H 0.1019 0.1531 0.0013
C61 C 0.0062(3) 0.1464(3) -0.0500(2)
H54 H -0.0274 0.1941 -0.0405
C62 C -0.0226(3) 0.1024(3) -0.0885(2)
H55 H -0.0764 0.1189 -0.1043
C63 C 0.0295(3) 0.0335(3) -0.1034(2)
H56 H 0.0109 0.0031 -0.1298
C64 C 0.1102(3) 0.0081(2) -0.07979(19)
C65 C 0.1614(3) -0.0637(3) -0.1016(2)
H57 H 0.1301 -0.0925 -0.1228
C66 C 0.2862(4) -0.1657(3) -0.1227(2)
H58 H 0.2386 -0.1846 -0.1414
H59 H 0.2951 -0.2063 -0.0893
C67 C 0.3846(4) -0.1526(4) -0.1730(3)
H60 H 0.4189 -0.2034 -0.1796
H61 H 0.3722 -0.1296 -0.2127
C68 C 0.4505(4) -0.0993(3) -0.1556(2)
H62 H 0.5197 -0.1131 -0.1755
H63 H 0.4382 -0.0449 -0.1719
C69 C 0.5052(3) -0.1340(2) -0.06455(19)
H64 H 0.5605 -0.1549 -0.0929
C70 C 0.5080(3) -0.1367(2) 0.00015(19)
C71 C 0.5866(3) -0.1812(3) 0.0159(2)
H65 H 0.6321 -0.2074 -0.0149
C72 C 0.5982(4) -0.1871(3) 0.0750(3)
H66 H 0.6500 -0.2176 0.0854
C73 C 0.5311(4) -0.1467(3) 0.1189(3)
H67 H 0.5382 -0.1505 0.1596
C74 C 0.4527(3) -0.1002(3) 0.1051(2)
H68 H 0.4082 -0.0742 0.1364
C75 C 0.4417(3) -0.0929(2) 0.04435(19)
C76 C 0.3121(3) 0.0076(2) 0.06248(18)
C77 C 0.1766(3) 0.7679(2) 0.24919(18)
C78 C 0.1025(3) 0.7147(2) 0.27889(18)
H69 H 0.0819 0.7054 0.3231
C79 C 0.0573(3) 0.6742(2) 0.24411(18)
C80 C 0.0910(3) 0.6878(2) 0.17798(19)
H70 H 0.0630 0.6607 0.1538
C81 C 0.1650(3) 0.7408(2) 0.14825(19)
H71 H 0.1866 0.7496 0.1041
C82 C 0.2077(3) 0.7812(2) 0.18334(19)
H72 H 0.2574 0.8174 0.1628
C83 C 0.2208(3) 0.8144(2) 0.2878(2)
C84 C -0.0284(3) 0.6202(2) 0.2779(2)
C85 C 0.6119(3) 0.8248(2) 0.25649(17)
C86 C 0.6028(3) 0.7438(2) 0.25770(16)
H73 H 0.5408 0.7210 0.2760
C87 C 0.6849(3) 0.6965(2) 0.23198(17)
C88 C 0.7776(3) 0.7312(2) 0.20504(18)
H74 H 0.8336 0.7001 0.1882
C89 C 0.7863(3) 0.8121(3) 0.20341(19)
H75 H 0.8480 0.8354 0.1849
C90 C 0.7043(3) 0.8580(2) 0.22896(18)
H76 H 0.7109 0.9122 0.2277
C91 C 0.5212(3) 0.8766(2) 0.28040(17)
C92 C 0.6736(3) 0.6107(2) 0.23022(17)
C93 C 0.7987(3) 0.2847(2) 0.25720(16)
C94 C 0.8847(3) 0.2397(2) 0.23394(16)
H77 H 0.9440 0.2648 0.2118
C95 C 0.8821(3) 0.1571(2) 0.24368(17)
C96 C 0.7938(3) 0.1211(2) 0.27630(18)
H78 H 0.7918 0.0659 0.2829
C97 C 0.7079(3) 0.1652(2) 0.29956(18)
H79 H 0.6486 0.1399 0.3216
C98 C 0.7103(3) 0.2473(2) 0.28987(17)
H80 H 0.6527 0.2772 0.3053
C99 C 0.8022(3) 0.3727(2) 0.25171(17)
C100 C 0.9766(3) 0.1074(3) 0.22307(18)
C101 C 0.4180(3) 0.3099(2) 0.27940(19)
C102 C 0.3824(3) 0.2721(2) 0.23853(19)
H81 H 0.4072 0.2854 0.1948
C103 C 0.3104(3) 0.2150(2) 0.26243(18)
C104 C 0.2756(3) 0.1945(2) 0.32751(18)
H82 H 0.2293 0.1546 0.3438
C105 C 0.3087(3) 0.2328(2) 0.36856(19)
H83 H 0.2837 0.2195 0.4123
C106 C 0.3789(3) 0.2906(2) 0.34446(19)
H84 H 0.4002 0.3170 0.3721
C107 C 0.4986(3) 0.3691(3) 0.2539(2)
C108 C 0.2740(3) 0.1730(3) 0.2186(2)
Co2_2 Co -0.17573(4) 0.51139(3) 0.27317(2)
Co4_2 Co 1.19211(4) 0.09095(3) 0.16163(2)
O12_2 O 0.9411(2) 0.58077(16) 0.24199(12)
O19_2 O 0.05549(19) 0.14362(16) 0.19251(13)
loop_
_geom_bond_atom_site_label_1
_geom_bond_atom_site_label_2
_geom_bond_site_symmetry_1
_geom_bond_site_symmetry_2
Ni1 N1 1_555 1_555
Ni2 N5 1_555 1_555
Ni3 N9 1_555 1_555
Ni4 N13 1_555 1_555
Co1 O1 1_555 1_555
Co2 O3 1_555 1_555
Co3 O5 1_555 1_555
Co4 O7 1_555 1_555
O1 C19 1_555 1_555
O2 Co1 1_555 1_555
O3 C20 1_555 1_555
O4 Co2 1_555 1_555
O5 C39 1_555 1_555
O6 Co3 1_555 1_555
O7 C58 1_555 1_555
O8 Co4 1_555 1_555
O9 Co1 1_555 1_555
O10 Co1 1_555 1_555
O11 C84 1_555 1_555
O12 C84 1_555 1_555
O13 Co1 1_555 1_555
O14 C91 1_555 1_555
O15 Co3 1_555 1_555
O16 Co2 1_555 1_555
O17 Co2 1_555 1_555
O18 Co2 1_555 1_555
O19 C100 1_555 1_555
O20 C100 1_555 1_555
O21 Co3 1_555 1_555
O22 Co3 1_555 1_555
O23 Co4 1_555 1_555
O24 Co4 1_555 1_555
O25 Co1 1_555 1_555
H1 O25 1_555 1_555
H2 O25 1_555 1_555
O26 Co4 1_555 1_555
H3 O26 1_555 1_555
H4 O26 1_555 1_555
N1 C1 1_555 1_555
N2 Ni1 1_555 1_555
N3 Ni1 1_555 1_555
N4 Ni1 1_555 1_555
N5 C20 1_555 1_555
N6 Ni2 1_555 1_555
N7 Ni2 1_555 1_555
N8 Ni2 1_555 1_555
N9 C39 1_555 1_555
N10 Ni3 1_555 1_555
N11 Ni3 1_555 1_555
N12 Ni3 1_555 1_555
N13 C58 1_555 1_555
N14 Ni4 1_555 1_555
N15 Ni4 1_555 1_555
N16 Ni4 1_555 1_555
C1 O2 1_555 1_555
C2 N1 1_555 1_555
C3 C2 1_555 1_555
H5 C3 1_555 1_555
C4 C3 1_555 1_555
H6 C4 1_555 1_555
C5 C4 1_555 1_555
H7 C5 1_555 1_555
C6 C5 1_555 1_555
H8 C6 1_555 1_555
C7 C2 1_555 1_555
C8 N2 1_555 1_555
H9 C8 1_555 1_555
C9 N2 1_555 1_555
H10 C9 1_555 1_555
H11 C9 1_555 1_555
C10 C9 1_555 1_555
H12 C10 1_555 1_555
H13 C10 1_555 1_555
C11 N3 1_555 1_555
H14 C11 1_555 1_555
H15 C11 1_555 1_555
C12 N3 1_555 1_555
H16 C12 1_555 1_555
C13 C12 1_555 1_555
C14 N4 1_555 1_555
C15 C14 1_555 1_555
H17 C15 1_555 1_555
C16 C15 1_555 1_555
H18 C16 1_555 1_555
C17 C16 1_555 1_555
H19 C17 1_555 1_555
C18 C13 1_555 1_555
H20 C18 1_555 1_555
C19 N4 1_555 1_555
C20 C38 1_555 1_555
C21 N5 1_555 1_555
C22 C21 1_555 1_555
H21 C22 1_555 1_555
C23 C22 1_555 1_555
H22 C23 1_555 1_555
C24 C23 1_555 1_555
H23 C24 1_555 1_555
C25 C24 1_555 1_555
H24 C25 1_555 1_555
C26 C21 1_555 1_555
C27 N6 1_555 1_555
H25 C27 1_555 1_555
C28 N6 1_555 1_555
H26 C28 1_555 1_555
H27 C28 1_555 1_555
C29 C28 1_555 1_555
H28 C29 1_555 1_555
H29 C29 1_555 1_555
C30 N7 1_555 1_555
H30 C30 1_555 1_555
H31 C30 1_555 1_555
C31 N7 1_555 1_555
H32 C31 1_555 1_555
C32 C31 1_555 1_555
C33 C32 1_555 1_555
H33 C33 1_555 1_555
C34 C33 1_555 1_555
H34 C34 1_555 1_555
C35 C34 1_555 1_555
H35 C35 1_555 1_555
C36 C35 1_555 1_555
H36 C36 1_555 1_555
C37 N8 1_555 1_555
C38 O4 1_555 1_555
C39 C57 1_555 1_555
C40 N9 1_555 1_555
C41 C40 1_555 1_555
H37 C41 1_555 1_555
C42 C41 1_555 1_555
H38 C42 1_555 1_555
C43 C42 1_555 1_555
H39 C43 1_555 1_555
C44 C43 1_555 1_555
H40 C44 1_555 1_555
C45 C40 1_555 1_555
C46 N10 1_555 1_555
H41 C46 1_555 1_555
C47 N10 1_555 1_555
H42 C47 1_555 1_555
H43 C47 1_555 1_555
C48 C47 1_555 1_555
H44 C48 1_555 1_555
H45 C48 1_555 1_555
C49 N11 1_555 1_555
H46 C49 1_555 1_555
H47 C49 1_555 1_555
C50 N11 1_555 1_555
H48 C50 1_555 1_555
C51 C50 1_555 1_555
C52 C51 1_555 1_555
H49 C52 1_555 1_555
C53 C52 1_555 1_555
H50 C53 1_555 1_555
C54 C53 1_555 1_555
H51 C54 1_555 1_555
C55 C54 1_555 1_555
H52 C55 1_555 1_555
C56 N12 1_555 1_555
C57 O6 1_555 1_555
C58 C76 1_555 1_555
C59 N13 1_555 1_555
C60 C59 1_555 1_555
H53 C60 1_555 1_555
C61 C60 1_555 1_555
H54 C61 1_555 1_555
C62 C61 1_555 1_555
H55 C62 1_555 1_555
C63 C62 1_555 1_555
H56 C63 1_555 1_555
C64 C59 1_555 1_555
C65 N14 1_555 1_555
H57 C65 1_555 1_555
C66 N14 1_555 1_555
H58 C66 1_555 1_555
H59 C66 1_555 1_555
C67 C66 1_555 1_555
H60 C67 1_555 1_555
H61 C67 1_555 1_555
C68 N15 1_555 1_555
H62 C68 1_555 1_555
H63 C68 1_555 1_555
C69 N15 1_555 1_555
H64 C69 1_555 1_555
C70 C69 1_555 1_555
C71 C70 1_555 1_555
H65 C71 1_555 1_555
C72 C71 1_555 1_555
H66 C72 1_555 1_555
C73 C72 1_555 1_555
H67 C73 1_555 1_555
C74 C73 1_555 1_555
H68 C74 1_555 1_555
C75 N16 1_555 1_555
C76 O8 1_555 1_555
C77 C78 1_555 1_555
C78 H69 1_555 1_555
C79 C78 1_555 1_555
C80 C79 1_555 1_555
H70 C80 1_555 1_555
C81 C80 1_555 1_555
H71 C81 1_555 1_555
C82 C77 1_555 1_555
H72 C82 1_555 1_555
C83 O9 1_555 1_555
C84 C79 1_555 1_555
C85 C86 1_555 1_555
C86 H73 1_555 1_555
C87 C86 1_555 1_555
C88 C87 1_555 1_555
H74 C88 1_555 1_555
C89 C88 1_555 1_555
H75 C89 1_555 1_555
C90 C85 1_555 1_555
H76 C90 1_555 1_555
C91 O13 1_555 1_555
C92 O15 1_555 1_555
C93 C94 1_555 1_555
C94 H77 1_555 1_555
C95 C94 1_555 1_555
C96 C95 1_555 1_555
H78 C96 1_555 1_555
C97 C96 1_555 1_555
H79 C97 1_555 1_555
C98 C93 1_555 1_555
H80 C98 1_555 1_555
C99 O17 1_555 1_555
C100 C95 1_555 1_555
C101 C102 1_555 1_555
C102 H81 1_555 1_555
C103 C102 1_555 1_555
C104 C103 1_555 1_555
H82 C104 1_555 1_555
C105 C104 1_555 1_555
H83 C105 1_555 1_555
C106 C101 1_555 1_555
H84 C106 1_555 1_555
C107 O21 1_555 1_555
C108 O23 1_555 1_555
Co2_2 O12 1_555 1_555
Co4_2 O19 1_555 1_555
O12_2 Co2 1_555 1_555
O19_2 Co4 1_555 1_555
Co3 O16 1_555 1_555
Co3 O17 1_555 1_555
O10 C83 1_555 1_555
O16 C92 1_555 1_555
O18 C99 1_555 1_555
O22 C107 1_555 1_555
O24 C108 1_555 1_555
N8 C38 1_555 1_555
N12 C57 1_555 1_555
N16 C76 1_555 1_555
C1 C19 1_555 1_555
C6 C7 1_555 1_555
C7 C8 1_555 1_555
C10 C11 1_555 1_555
C13 C14 1_555 1_555
C17 C18 1_555 1_555
C25 C26 1_555 1_555
C26 C27 1_555 1_555
C29 C30 1_555 1_555
C32 C37 1_555 1_555
C36 C37 1_555 1_555
C44 C45 1_555 1_555
C45 C46 1_555 1_555
C48 C49 1_555 1_555
C51 C56 1_555 1_555
C55 C56 1_555 1_555
C63 C64 1_555 1_555
C64 C65 1_555 1_555
C67 C68 1_555 1_555
C70 C75 1_555 1_555
C74 C75 1_555 1_555
C77 C83 1_555 1_555
C81 C82 1_555 1_555
C85 C91 1_555 1_555
C87 C92 1_555 1_555
C89 C90 1_555 1_555
C93 C99 1_555 1_555
C97 C98 1_555 1_555
C101 C107 1_555 1_555
C103 C108 1_555 1_555
C105 C106 1_555 1_555

#END
