
#######################################################################
#
#                 Cambridge Crystallographic Data Centre
#                                CCDC 
#
#######################################################################
#
# If this CIF has been generated from an entry in the Cambridge 
# Structural Database, then it will include bibliographic, chemical, 
# crystal, experimental, refinement or atomic coordinate data resulting 
# from the CCDC's data processing and validation procedures.
#
#######################################################################

data_COBWIZ
_symmetry_cell_setting           orthorhombic
_symmetry_space_group_name_H-M   'P 21 21 21'
_symmetry_Int_Tables_number      19
_space_group_name_Hall           'P 2ac 2ab'
loop_
_symmetry_equiv_pos_site_id
_symmetry_equiv_pos_as_xyz
1 x,y,z
2 1/2+x,1/2-y,-z
3 -x,1/2+y,1/2-z
4 1/2-x,-y,1/2+z
_cell_length_a                   8.422(2)
_cell_length_b                   24.248(8)
_cell_length_c                   7.292(2)
_cell_angle_alpha                90
_cell_angle_beta                 90
_cell_angle_gamma                90
_cell_volume                     1489.15
loop_
_atom_site_label
_atom_site_type_symbol
_atom_site_fract_x
_atom_site_fract_y
_atom_site_fract_z
Cd1 Cd 0.0777(2) 0.0635 0.3127(2)
O1 O 0.1586(14) 0.3126(4) 0.1821(19)
P1 P -0.0509(6) 0.4551(2) 0.4937(6)
O2 O -0.0362(20) 0.3416(5) -0.1748(17)
O3 O 0.0034(16) 0.4027(4) 0.3709(15)
C1 C 0.1263(24) 0.4111(6) 0.2370(22)
O4 O -0.1572(14) 0.4289(4) 0.6380(15)
O5 O -0.1747(14) 0.0542(4) 0.2002(17)
O6 O 0.0969(14) 0.4820(4) 0.5738(15)
O7 O 0.0490(16) 0.0198(5) 0.5987(17)
O8 O -0.1396(15) 0.4952(4) 0.3668(16)
H1 H 0.003(14) 0.166(4) 0.880(14)
N1 N 0.0354(19) 0.2379(5) 0.3085(19)
H2 H 0.041(29) 0.111(7) 0.727(31)
C2 C 0.0456(21) 0.1802(6) 0.2892(23)
H3 H -0.037(18) 0.242(5) 0.762(16)
O9 O 0.0589(20) 0.1584(4) 0.1362(14)
H4 H 0.071(15) 0.301(3) 0.478(13)
N2 N 0.0407(19) 0.1486(5) 0.4436(17)
H5 H 0.067(17) 0.241(4) 0.037(16)
C3 C 0.0262(24) 0.1695(7) 0.6115(24)
N3 N 0.0296(19) 0.1357(5) 0.7562(18)
H6 H -0.231(24) 0.274(6) 0.056(22)
C4 C 0.0148(25) 0.2283(6) 0.6357(22)
H7 H -0.162(28) 0.391(7) 0.047(29)
C5 C 0.0192(27) 0.2603(7) 0.4822(25)
H8 H -0.036(29) 0.313(7) -0.215(27)
C6 C 0.0440(27) 0.2721(6) 0.1448(23)
H9 H 0.169(20) 0.379(5) -0.017(20)
C7 C -0.1211(25) 0.3034(7) 0.1165(25)
H10 H 0.124(24) 0.450(5) 0.148(22)
C8 C -0.0518(28) 0.3557(7) 0.0098(25)
H11 H 0.235(24) 0.413(6) 0.316(28)
C9 C 0.1178(24) 0.3647(6) 0.0930(25)
O4A O 0.3428(14) 0.0711(4) 0.3620(15)
O8B O 0.1396(15) -0.0048(4) 0.1332(16)
Cd1A Cd -0.4223(2) 0.4365 0.6873(2)
Cd1B Cd -0.0777(2) 0.5635 0.1873(2)
loop_
_geom_bond_atom_site_label_1
_geom_bond_atom_site_label_2
_geom_bond_site_symmetry_1
_geom_bond_site_symmetry_2
Cd1 O5 1_555 1_555
O1 C6 1_555 1_555
P1 O3 1_555 1_555
O2 H8 1_555 1_555
O3 C1 1_555 1_555
C1 H10 1_555 1_555
O4 P1 1_555 1_555
O6 P1 1_555 1_555
O7 Cd1 1_555 1_555
O8 P1 1_555 1_555
H1 N3 1_555 1_555
N1 C2 1_555 1_555
H2 N3 1_555 1_555
C2 O9 1_555 1_555
H3 C4 1_555 1_555
O9 Cd1 1_555 1_555
H4 C5 1_555 1_555
N2 Cd1 1_555 1_555
H5 C6 1_555 1_555
C3 N2 1_555 1_555
N3 C3 1_555 1_555
H6 C7 1_555 1_555
C4 C3 1_555 1_555
H7 C8 1_555 1_555
C5 N1 1_555 1_555
C6 N1 1_555 1_555
H9 C9 1_555 1_555
C7 C6 1_555 1_555
C8 O2 1_555 1_555
H11 C1 1_555 1_555
C9 O1 1_555 1_555
O4A Cd1 1_555 1_555
O8B Cd1 1_555 1_555
Cd1A O4 1_555 1_555
Cd1B O8 1_555 1_555
C1 C9 1_555 1_555
C2 N2 1_555 1_555
C4 C5 1_555 1_555
C7 C8 1_555 1_555
C8 C9 1_555 1_555

#END
