
#######################################################################
#
#                 Cambridge Crystallographic Data Centre
#                                CCDC 
#
#######################################################################
#
# If this CIF has been generated from an entry in the Cambridge 
# Structural Database, then it will include bibliographic, chemical, 
# crystal, experimental, refinement or atomic coordinate data resulting 
# from the CCDC's data processing and validation procedures.
#
#######################################################################

data_COBZAU
_symmetry_cell_setting           triclinic
_symmetry_space_group_name_H-M   'P -1'
_symmetry_Int_Tables_number      2
_space_group_name_Hall           '-P 1'
loop_
_symmetry_equiv_pos_site_id
_symmetry_equiv_pos_as_xyz
1 x,y,z
2 -x,-y,-z
_cell_length_a                   9.800(3)
_cell_length_b                   12.336(6)
_cell_length_c                   13.352(8)
_cell_angle_alpha                88.53(3)
_cell_angle_beta                 74.02(4)
_cell_angle_gamma                82.33(3)
_cell_volume                     1537.8
loop_
_atom_site_label
_atom_site_type_symbol
_atom_site_fract_x
_atom_site_fract_y
_atom_site_fract_z
Cu1 Cu 0.25661(5) 0.48080(4) 0.48964(4)
P1 P 0.03754(11) 0.55705(10) 0.35525(10)
P2 P 0.47367(10) 0.41029(9) 0.62447(10)
O1 O 0.1297(3) 0.4768(2) 0.4045(2)
O2 O -0.1194(3) 0.5415(3) 0.3819(2)
O3 O 0.4140(2) 0.4029(2) 0.5320(2)
O4 O 0.6325(2) 0.4192(2) 0.5973(2)
C1 C 0.0532(5) 0.6936(4) 0.3863(4)
C2 C -0.0361(6) 0.7827(4) 0.3400(5)
C3 C -0.0182(7) 0.8966(5) 0.3650(6)
C4 C -0.1035(8) 0.9888(6) 0.3246(7)
C5 C -0.0841(11) 1.1021(6) 0.3519
C6 C -0.1726(13) 1.1886(8) 0.3312(9)
C7 C 0.1043(5) 0.5385(4) 0.2157(4)
C8 C 0.0976(6) 0.4272(6) 0.1784(6)
C9 C 0.1534(8) 0.4035(9) 0.0656(7)
C10 C 0.1387(21) 0.2922(19) 0.0332(17)
C11 C 0.1796(22) 0.2358(17) -0.0192(23)
C12 C 0.1580(14) 0.1233(12) -0.0416(11)
C13 C 0.4485(5) 0.2866(4) 0.6980(4)
C14 C 0.5263(6) 0.1849(4) 0.6367(5)
C15 C 0.5157(7) 0.0810(4) 0.6975(5)
C16 C 0.5961(8) -0.0205(5) 0.6396(6)
C17 C 0.5930(9) -0.1212(6) 0.6995(7)
C18 C 0.6681(10) -0.2194(6) 0.6427(7)
C19 C 0.3772(4) 0.5221(4) 0.7065(4)
C20 C 0.4298(5) 0.5428(4) 0.8024(5)
C21 C 0.3480(7) 0.6422(5) 0.8639(5)
C22 C 0.3951(9) 0.6710(7) 0.9557(6)
C23 C 0.3035(13) 0.7744(11) 1.0122(8)
C24 C 0.3328(16) 0.8108(16) 1.0869(13)
H1 H 0.0227 0.7017 0.4623
H2 H 0.1539 0.7058 0.3603
H3 H -0.0076 0.7738 0.2641
H4 H -0.1372 0.7721 0.3674
H5 H -0.0444 0.9036 0.4411
H6 H 0.0831 0.9062 0.3365
H7 H -0.0768 0.9827 0.2485
H8 H -0.2049 0.9794 0.3525
H9 H -0.0942 1.1033 0.4270
H10 H 0.0137 1.1148 0.3141
H11 H -0.2029 1.2383 0.3915
H12 H -0.1213 1.2271 0.2699
H13 H -0.2564 1.1619 0.3182
H14 H 0.0477 0.5910 0.1825
H15 H 0.2042 0.5536 0.1944
H16 H 0.1516 0.3755 0.2143
H17 H -0.0030 0.4139 0.1992
H18 H 0.1021 0.4562 0.0288
H19 H 0.2551 0.4135 0.0446
H20 H 0.1430 0.2524 0.0962
H21 H 0.0405 0.3038 0.0283
H22 H 0.1696 0.2733 -0.0825
H23 H 0.2790 0.2264 -0.0182
H24 H 0.0693 0.1038 0.0066
H25 H 0.1518 0.1196 -0.1134
H26 H 0.2389 0.0733 -0.0330
H27 H 0.4836 0.2922 0.7595
H28 H 0.3461 0.2790 0.7204
H29 H 0.4865 0.1771 0.5778
H30 H 0.6276 0.1952 0.6102
H31 H 0.5522 0.0901 0.7577
H32 H 0.4145 0.0697 0.7218
H33 H 0.5557 -0.0318 0.5817
H34 H 0.6962 -0.0074 0.6118
H35 H 0.6355 -0.1106 0.7564
H36 H 0.4928 -0.1335 0.7286
H37 H 0.6596 -0.2814 0.6905
H38 H 0.6258 -0.2329 0.5864
H39 H 0.7691 -0.2094 0.6135
H40 H 0.3835 0.5884 0.6642
H41 H 0.2770 0.5081 0.7314
H42 H 0.4183 0.4789 0.8477
H43 H 0.5312 0.5536 0.7787
H44 H 0.3565 0.7047 0.8167
H45 H 0.2474 0.6293 0.8889
H46 H 0.3861 0.6098 1.0044
H47 H 0.4955 0.6850 0.9322
H48 H 0.3094 0.8324 0.9602
H49 H 0.2046 0.7569 1.0364
H50 H 0.3843 0.7522 1.1177
H51 H 0.3933 0.8695 1.0633
H52 H 0.2447 0.8392 1.1382
O2A O 0.1194(3) 0.4585(3) 0.6181(2)
O4A O 0.3675(2) 0.5808(2) 0.4027(2)
Cu1A Cu -0.25661(5) 0.51920(4) 0.51036(4)
Cu1A_2 Cu 0.74339(5) 0.51920(4) 0.51036(4)
loop_
_geom_bond_atom_site_label_1
_geom_bond_atom_site_label_2
_geom_bond_site_symmetry_1
_geom_bond_site_symmetry_2
Cu1 O1 1_555 1_555
P1 O1 1_555 1_555
P2 O3 1_555 1_555
O2 P1 1_555 1_555
O3 Cu1 1_555 1_555
O4 P2 1_555 1_555
C1 P1 1_555 1_555
C2 C1 1_555 1_555
C3 C2 1_555 1_555
C4 C3 1_555 1_555
C5 C4 1_555 1_555
C6 C5 1_555 1_555
C7 P1 1_555 1_555
C8 C7 1_555 1_555
C9 C8 1_555 1_555
C10 C9 1_555 1_555
C11 C10 1_555 1_555
C12 C11 1_555 1_555
C13 P2 1_555 1_555
C14 C13 1_555 1_555
C15 C14 1_555 1_555
C16 C15 1_555 1_555
C17 C16 1_555 1_555
C18 C17 1_555 1_555
C19 P2 1_555 1_555
C20 C19 1_555 1_555
C21 C20 1_555 1_555
C22 C21 1_555 1_555
C23 C22 1_555 1_555
C24 C23 1_555 1_555
H1 C1 1_555 1_555
H2 C1 1_555 1_555
H3 C2 1_555 1_555
H4 C2 1_555 1_555
H5 C3 1_555 1_555
H6 C3 1_555 1_555
H7 C4 1_555 1_555
H8 C4 1_555 1_555
H9 C5 1_555 1_555
H10 C5 1_555 1_555
H11 C6 1_555 1_555
H12 C6 1_555 1_555
H13 C6 1_555 1_555
H14 C7 1_555 1_555
H15 C7 1_555 1_555
H16 C8 1_555 1_555
H17 C8 1_555 1_555
H18 C9 1_555 1_555
H19 C9 1_555 1_555
H20 C10 1_555 1_555
H21 C10 1_555 1_555
H22 C11 1_555 1_555
H23 C11 1_555 1_555
H24 C12 1_555 1_555
H25 C12 1_555 1_555
H26 C12 1_555 1_555
H27 C13 1_555 1_555
H28 C13 1_555 1_555
H29 C14 1_555 1_555
H30 C14 1_555 1_555
H31 C15 1_555 1_555
H32 C15 1_555 1_555
H33 C16 1_555 1_555
H34 C16 1_555 1_555
H35 C17 1_555 1_555
H36 C17 1_555 1_555
H37 C18 1_555 1_555
H38 C18 1_555 1_555
H39 C18 1_555 1_555
H40 C19 1_555 1_555
H41 C19 1_555 1_555
H42 C20 1_555 1_555
H43 C20 1_555 1_555
H44 C21 1_555 1_555
H45 C21 1_555 1_555
H46 C22 1_555 1_555
H47 C22 1_555 1_555
H48 C23 1_555 1_555
H49 C23 1_555 1_555
H50 C24 1_555 1_555
H51 C24 1_555 1_555
H52 C24 1_555 1_555
O2A Cu1 1_555 1_555
O4A Cu1 1_555 1_555
Cu1A O2 1_555 1_555
Cu1A_2 O4 1_555 1_555

#END
