
#######################################################################
#
#                 Cambridge Crystallographic Data Centre
#                                CCDC 
#
#######################################################################
#
# If this CIF has been generated from an entry in the Cambridge 
# Structural Database, then it will include bibliographic, chemical, 
# crystal, experimental, refinement or atomic coordinate data resulting 
# from the CCDC's data processing and validation procedures.
#
#######################################################################

data_COCDEF
_symmetry_cell_setting           monoclinic
_symmetry_space_group_name_H-M   'C 2/c'
_symmetry_Int_Tables_number      15
_space_group_name_Hall           '-C 2yn'
loop_
_symmetry_equiv_pos_site_id
_symmetry_equiv_pos_as_xyz
1 x,y,z
2 -x,y,1/2-z
3 1/2+x,1/2+y,z
4 1/2-x,1/2+y,1/2-z
5 -x,-y,-z
6 x,-y,1/2+z
7 1/2-x,1/2-y,-z
8 1/2+x,1/2-y,1/2+z
_cell_length_a                   13.7574(9)
_cell_length_b                   11.2371(8)
_cell_length_c                   19.0368(12)
_cell_angle_alpha                90
_cell_angle_beta                 95.529(2)
_cell_angle_gamma                90
_cell_volume                     2929.27
loop_
_atom_site_label
_atom_site_type_symbol
_atom_site_fract_x
_atom_site_fract_y
_atom_site_fract_z
C1 C 0.80830(15) 0.20098(18) 0.17557(10)
H1 H 0.8264 0.2765 0.1617
C2 C 0.86015(14) 0.14950(17) 0.23347(10)
H2 H 0.9118 0.1898 0.2581
C3 C 0.83376(14) 0.03624(17) 0.25431(10)
C4 C 0.75595(15) -0.01973(19) 0.21554(11)
H3 H 0.7369 -0.0957 0.2279
C5 C 0.70720(15) 0.03769(19) 0.15876(11)
H4 H 0.6547 -0.0003 0.1337
C6 C 0.89038(14) -0.02852(18) 0.31384(10)
C7 C 0.95047(14) 0.04095(17) 0.36988(10)
C8 C 0.92339(14) 0.15216(17) 0.39358(10)
H5 H 0.8653 0.1873 0.3751
C9 C 0.98398(15) 0.20971(18) 0.44489(10)
H6 H 0.9656 0.2842 0.4603
C10 C 1.09367(15) 0.05352(18) 0.45166(10)
H7 H 1.1512 0.0192 0.4719
C11 C 1.03719(15) -0.00873(17) 0.40035(10)
H8 H 1.0569 -0.0834 0.3862
N1 N 0.73306(12) 0.14718(15) 0.13835(9)
N2 N 1.06854(12) 0.16226(15) 0.47353(8)
O1 O 0.89121(11) -0.13650(13) 0.31526(8)
Ag1 Ag 0.655652(11) 0.244144(14) 0.054178(8)
N2G N 0.56854(12) 0.33774(15) -0.02647(8)
Ag1G Ag 1.155652(11) 0.255856(14) 0.554178(8)
C12 C 0.63149(16) 0.15156(18) 0.38942(13)
S1 S 0.64405(4) 0.00370(5) 0.42645(3)
O2 O 0.6399(12) 0.0241(8) 0.5005(3)
O3 O 0.5618(8) -0.0578(6) 0.3915(7)
O4 O 0.7379(6) -0.0363(9) 0.4072(8)
F1 F 0.6951(5) 0.2312(7) 0.4153(11)
F2 F 0.6382(13) 0.1447(13) 0.3193(4)
F3 F 0.5417(5) 0.1918(15) 0.3967(8)
O8 O 0.5000 -0.1299(2) 0.2500
H9 H 0.518(4) -0.077(3) 0.2839(17)
H9A H 0.482(4) -0.077(3) 0.2161(17)
O5? O 0.5708(15) -0.0612(10) 0.3815(12)
O6? O 0.622(2) 0.0164(12) 0.4975(5)
O7? O 0.7426(9) -0.0288(15) 0.4160(14)
F4? F 0.5420(7) 0.197(3) 0.3882(12)
F5? F 0.6616(10) 0.1631(13) 0.3266(5)
F6? F 0.6892(9) 0.2201(12) 0.4349(6)
loop_
_geom_bond_atom_site_label_1
_geom_bond_atom_site_label_2
_geom_bond_site_symmetry_1
_geom_bond_site_symmetry_2
C1 H1 1_555 1_555
C2 C1 1_555 1_555
H2 C2 1_555 1_555
C3 C2 1_555 1_555
C4 C3 1_555 1_555
H3 C4 1_555 1_555
C5 C4 1_555 1_555
H4 C5 1_555 1_555
C6 C3 1_555 1_555
C7 C6 1_555 1_555
C8 C7 1_555 1_555
H5 C8 1_555 1_555
C9 C8 1_555 1_555
H6 C9 1_555 1_555
C10 H7 1_555 1_555
C11 C7 1_555 1_555
H8 C11 1_555 1_555
N1 C1 1_555 1_555
N2 C9 1_555 1_555
O1 C6 1_555 1_555
Ag1 N1 1_555 1_555
C12 S1 1_555 1_555
S1 O2 1_555 1_555
O3 S1 1_555 1_555
O4 S1 1_555 1_555
F1 C12 1_555 1_555
F2 C12 1_555 1_555
F3 C12 1_555 1_555
O8 H9 1_555 1_555
N2G Ag1 1_555 1_555
Ag1G N2 1_555 1_555
H9A O8 1_555 1_555
C5 N1 1_555 1_555
C10 C11 1_555 1_555
C10 N2 1_555 1_555

#END
