
#######################################################################
#
#                 Cambridge Crystallographic Data Centre
#                                CCDC 
#
#######################################################################
#
# If this CIF has been generated from an entry in the Cambridge 
# Structural Database, then it will include bibliographic, chemical, 
# crystal, experimental, refinement or atomic coordinate data resulting 
# from the CCDC's data processing and validation procedures.
#
#######################################################################

data_COCDIJ
_symmetry_cell_setting           monoclinic
_symmetry_space_group_name_H-M   'C 2/c'
_symmetry_Int_Tables_number      15
_space_group_name_Hall           '-C 2yn'
loop_
_symmetry_equiv_pos_site_id
_symmetry_equiv_pos_as_xyz
1 x,y,z
2 -x,y,1/2-z
3 1/2+x,1/2+y,z
4 1/2-x,1/2+y,1/2-z
5 -x,-y,-z
6 x,-y,1/2+z
7 1/2-x,1/2-y,-z
8 1/2+x,1/2-y,1/2+z
_cell_length_a                   12.4586(5)
_cell_length_b                   9.8846(4)
_cell_length_c                   21.2874(9)
_cell_angle_alpha                90
_cell_angle_beta                 102.7935(18)
_cell_angle_gamma                90
_cell_volume                     2556.43
loop_
_atom_site_label
_atom_site_type_symbol
_atom_site_fract_x
_atom_site_fract_y
_atom_site_fract_z
C1 C 0.70164(14) -0.27034(18) 0.35442(8)
H1 H 0.6713 -0.1858 0.3587
C2 C 0.65774(13) -0.34730(17) 0.30045(8)
H2 H 0.5987 -0.3151 0.2693
C3 C 0.70342(13) -0.47375(17) 0.29352(8)
C4 C 0.79217(15) -0.51716(19) 0.34125(9)
H3 H 0.8251 -0.6004 0.3377
C5 C 0.83074(15) -0.43467(19) 0.39397(9)
H4 H 0.8896 -0.4645 0.4259
C6 C 0.65559(14) -0.56951(17) 0.23975(8)
C7 C 0.59383(13) -0.51376(17) 0.17670(8)
C8 C 0.50548(14) -0.58722(17) 0.14074(8)
H5 H 0.4874 -0.6718 0.1545
C9 C 0.44537(15) -0.53120(18) 0.08405(8)
H6 H 0.3855 -0.5789 0.0604
C10 C 0.55996(15) -0.34327(18) 0.09464(8)
H7 H 0.5800 -0.2624 0.0780
C11 C 0.62328(14) -0.39132(18) 0.15233(8)
H8 H 0.6841 -0.3430 0.1743
N1 N 0.78631(14) -0.31315(15) 0.40076(8)
N2 N 0.47053(13) -0.40964(16) 0.06182(7)
O1 O 0.66436(15) -0.69122(13) 0.24847(8)
Ag1 Ag 0.865966(12) -0.191435(14) 0.481217(6)
N2G N 0.97053(13) -0.09036(16) 0.56182(7)
Ag1G Ag 0.365966(12) -0.308565(14) -0.018783(6)
O2 O 1.0000 -0.4264(3) 0.7500
H9 H 0.972(4) -0.450(4) 0.720(2)
H9A H 1.028(4) -0.450(4) 0.780(2)
O3 O 0.75247(13) -0.54273(19) 0.53887(9)
O4 O 0.92374(14) -0.43143(15) 0.56026(9)
O5 O 0.88380(15) -0.59105(19) 0.63429(8)
O6 O 0.91312(15) -0.66341(17) 0.53377(9)
Cl1 Cl 0.86827(3) -0.55823(4) 0.56664(2)
loop_
_geom_bond_atom_site_label_1
_geom_bond_atom_site_label_2
_geom_bond_site_symmetry_1
_geom_bond_site_symmetry_2
C1 H1 1_555 1_555
C2 C1 1_555 1_555
H2 C2 1_555 1_555
C3 C2 1_555 1_555
C4 C3 1_555 1_555
H3 C4 1_555 1_555
C5 C4 1_555 1_555
H4 C5 1_555 1_555
C6 C3 1_555 1_555
C7 C6 1_555 1_555
C8 C7 1_555 1_555
H5 C8 1_555 1_555
C9 C8 1_555 1_555
H6 C9 1_555 1_555
C10 H7 1_555 1_555
C11 C7 1_555 1_555
H8 C11 1_555 1_555
N1 C1 1_555 1_555
N2 C9 1_555 1_555
O1 C6 1_555 1_555
Ag1 N1 1_555 1_555
O2 H9 1_555 1_555
O3 Cl1 1_555 1_555
O4 Cl1 1_555 1_555
O5 Cl1 1_555 1_555
O6 Cl1 1_555 1_555
N2G Ag1 1_555 1_555
Ag1G N2 1_555 1_555
H9A O2 1_555 1_555
C5 N1 1_555 1_555
C10 C11 1_555 1_555
C10 N2 1_555 1_555

#END
