
#######################################################################
#
#                 Cambridge Crystallographic Data Centre
#                                CCDC 
#
#######################################################################
#
# If this CIF has been generated from an entry in the Cambridge 
# Structural Database, then it will include bibliographic, chemical, 
# crystal, experimental, refinement or atomic coordinate data resulting 
# from the CCDC's data processing and validation procedures.
#
#######################################################################

data_COCDSN
_symmetry_cell_setting           monoclinic
_symmetry_space_group_name_H-M   'P 21/c'
_symmetry_Int_Tables_number      14
_space_group_name_Hall           '-P 2ybc'
loop_
_symmetry_equiv_pos_site_id
_symmetry_equiv_pos_as_xyz
1 x,y,z
2 -x,1/2+y,1/2-z
3 -x,-y,-z
4 x,1/2-y,1/2+z
_cell_length_a                   10.9
_cell_length_b                   7.4
_cell_length_c                   18.1
_cell_angle_alpha                90
_cell_angle_beta                 114.5
_cell_angle_gamma                90
_cell_volume                     1328.49
loop_
_atom_site_label
_atom_site_type_symbol
_atom_site_fract_x
_atom_site_fract_y
_atom_site_fract_z
C1 C 0.21300 0.46600 -0.05400
C2 C 0.32100 0.42600 -0.07200
C3 C 0.15100 0.14200 -0.03300
C4 C 0.29800 0.10800 -0.02500
C5 C 0.16000 0.33800 -0.00800
C6 C 0.39000 0.27700 -0.00600
C7 C 0.18900 0.00700 0.03400
C8 C 0.33900 -0.01400 0.05200
C9 C 0.22600 0.38500 0.08100
C10 C 0.35000 0.30400 0.06900
C11 C 0.19100 0.06800 0.11600
C12 C 0.17400 0.27000 0.13100
C13 C 0.33900 0.03400 0.18200
C14 C 0.26400 0.32400 0.21900
C15 C 0.35800 0.19600 0.23200
C16 C 0.39000 0.12800 0.12400
Ag1 Ag 0.17600 0.34400 -0.19600
N1 N -0.16100 0.32400 -0.30700
O1 O -0.09600 0.26000 -0.24100
O2 O -0.27400 0.37600 -0.32500
O3 O -0.11300 0.33800 -0.35500
Ag1C Ag 0.17600 0.15600 0.30400
C14C C 0.26400 0.17600 -0.28100
C15C C 0.35800 0.30400 -0.26800
loop_
_geom_bond_atom_site_label_1
_geom_bond_atom_site_label_2
_geom_bond_site_symmetry_1
_geom_bond_site_symmetry_2
C1 C2 1_555 1_555
C2 C6 1_555 1_555
C3 C4 1_555 1_555
C4 C6 1_555 1_555
C5 C1 1_555 1_555
C6 C10 1_555 1_555
C7 C3 1_555 1_555
C8 C4 1_555 1_555
C9 C5 1_555 1_555
C10 C9 1_555 1_555
C11 C7 1_555 1_555
C12 C9 1_555 1_555
C13 C11 1_555 1_555
C14 C12 1_555 1_555
C15 C13 1_555 1_555
C16 C8 1_555 1_555
Ag1 C1 1_555 1_555
N1 O1 1_555 1_555
O1 Ag1 1_555 1_555
O2 N1 1_555 1_555
O3 N1 1_555 1_555
Ag1C C14 1_555 1_555
C14C Ag1 1_555 1_555
C15C Ag1 1_555 1_555
C2 Ag1 1_555 1_555
C3 C5 1_555 1_555
C7 C8 1_555 1_555
C10 C16 1_555 1_555
C11 C12 1_555 1_555
C13 C16 1_555 1_555
C14 C15 1_555 1_555
C15 Ag1C 1_555 1_555
C14C C15C 1_555 1_555

#END
