
#######################################################################
#
#                 Cambridge Crystallographic Data Centre
#                                CCDC 
#
#######################################################################
#
# If this CIF has been generated from an entry in the Cambridge 
# Structural Database, then it will include bibliographic, chemical, 
# crystal, experimental, refinement or atomic coordinate data resulting 
# from the CCDC's data processing and validation procedures.
#
#######################################################################

data_COCDOP
_symmetry_cell_setting           monoclinic
_symmetry_space_group_name_H-M   'P 21/c'
_symmetry_Int_Tables_number      14
_space_group_name_Hall           '-P 2ybc'
loop_
_symmetry_equiv_pos_site_id
_symmetry_equiv_pos_as_xyz
1 x,y,z
2 -x,1/2+y,1/2-z
3 -x,-y,-z
4 x,1/2-y,1/2+z
_cell_length_a                   7.5345(3)
_cell_length_b                   19.1191(10)
_cell_length_c                   23.0434(11)
_cell_angle_alpha                90
_cell_angle_beta                 92.045(1)
_cell_angle_gamma                90
_cell_volume                     3317.35
loop_
_atom_site_label
_atom_site_type_symbol
_atom_site_fract_x
_atom_site_fract_y
_atom_site_fract_z
C1 C 1.0258(6) 0.7708(2) 0.05181(19)
H1 H 1.0782 0.7270 0.0561
C2 C 1.0077(6) 0.7986(2) -0.00332(17)
H2 H 1.0469 0.7740 -0.0353
C3 C 0.9292(5) 0.8644(2) -0.01004(17)
C4 C 0.8764(6) 0.8995(2) 0.03956(18)
H3 H 0.8267 0.9440 0.0367
C5 C 0.8989(6) 0.8673(2) 0.09287(19)
H4 H 0.8620 0.8908 0.1256
C6 C 0.9030(6) 0.9004(2) -0.06767(18)
C7 C 0.9286(6) 0.8619(2) -0.12347(18)
C8 C 0.8719(6) 0.7936(2) -0.13345(18)
H5 H 0.8203 0.7681 -0.1041
C9 C 0.8933(6) 0.7642(2) -0.18736(19)
H6 H 0.8537 0.7187 -0.1937
C10 C 1.0223(6) 0.8647(2) -0.22134(18)
H7 H 1.0737 0.8890 -0.2514
C11 C 1.0045(6) 0.8982(2) -0.16895(18)
H8 H 1.0424 0.9442 -0.1639
C12 C 1.1795(7) 0.9051(3) 0.2572(2)
C13 C 1.1784(8) 0.9681(3) 0.2922(3)
H9 H 1.2773 0.9673 0.3196
H10 H 1.0697 0.9704 0.3127
H11 H 1.1874 1.0083 0.2676
N1 N 0.9719(5) 0.80353(19) 0.09967(15)
N2 N 0.9682(5) 0.79788(19) -0.23106(15)
N3 N 1.1830(6) 0.8549(2) 0.23059(19)
O1 O 0.8624(5) 0.96199(17) -0.06979(14)
Ag1 Ag 1.01056(6) 0.75530(2) 0.186003(14)
N2C N 0.9682(5) 0.70212(19) 0.26894(15)
Ag1C Ag 1.01056(6) 0.74470(2) -0.313997(14)
C14 C 0.3974(6) 0.7627(2) -0.18064(19)
H12 H 0.3661 0.7160 -0.1857
C15 C 0.3807(6) 0.7925(2) -0.12648(18)
H13 H 0.3379 0.7663 -0.0960
C16 C 0.4285(6) 0.8620(2) -0.11810(17)
C17 C 0.4872(6) 0.8996(2) -0.16567(18)
H14 H 0.5170 0.9467 -0.1619
C18 C 0.5004(6) 0.8660(2) -0.21843(18)
H15 H 0.5411 0.8910 -0.2499
C19 C 0.4079(6) 0.9008(2) -0.06207(19)
C20 C 0.4329(6) 0.8645(2) -0.00433(17)
C21 C 0.5096(6) 0.7988(2) 0.00266(18)
H16 H 0.5526 0.7747 -0.0290
C22 C 0.5206(6) 0.7698(2) 0.05808(18)
H17 H 0.5701 0.7255 0.0626
C23 C 0.3948(6) 0.8670(2) 0.09828(19)
H18 H 0.3582 0.8909 0.1309
C24 C 0.3765(6) 0.8990(2) 0.04497(18)
H19 H 0.3267 0.9435 0.0419
N4 N 0.4564(5) 0.7980(2) -0.22597(15)
N5 N 0.4634(5) 0.80262(19) 0.10511(15)
O2 O 0.3688(5) 0.96229(17) -0.06365(14)
Ag2 Ag 0.47336(5) 0.75143(2) 0.189536(14)
N4C N 0.4564(5) 0.7020(2) 0.27403(15)
Ag2C Ag 0.47336(5) 0.74857(2) -0.310464(14)
C25 C 0.2508(6) 0.5966(3) 0.1220(2)
C26 C 0.3120(8) 0.5342(3) 0.0929(2)
H20 H 0.2118 0.5093 0.0763
H21 H 0.3746 0.5047 0.1204
H22 H 0.3900 0.5473 0.0627
N6 N 0.2038(6) 0.6452(2) 0.14527(18)
C27 C 0.2597(7) 0.1186(3) 0.3888(3)
C28 C 0.1981(10) 0.0934(3) 0.4451(3)
H23 H 0.2737 0.1117 0.4758
H24 H 0.2020 0.0432 0.4459
H25 H 0.0784 0.1088 0.4501
N7 N 0.3068(6) 0.1393(3) 0.34691(19)
O3 O 0.6817(6) 0.6619(2) 0.9281(2)
H26 H 0.763(5) 0.639(3) 0.915(3)
H27 H 0.600(5) 0.634(3) 0.931(3)
O4 O 0.1323(7) 0.6580(2) 0.89350(18)
O5 O 0.3512(5) 0.5776(2) 0.9214(2)
O6 O 0.0673(6) 0.5667(2) 0.9553(2)
O7 O 0.2530(6) 0.6585(2) 0.98815(17)
Cl1 Cl 0.19998(17) 0.61520(6) 0.93941(5)
O8 O 0.4731(8) 0.4557(3) 0.2590(4)
O9 O 0.2618(12) 0.4143(3) 0.1919(2)
O10 O 0.3021(7) 0.3584(2) 0.27781(19)
O11 O 0.1819(6) 0.4696(2) 0.2775(2)
Cl2 Cl 0.30709(18) 0.42545(6) 0.24996(5)
loop_
_geom_bond_atom_site_label_1
_geom_bond_atom_site_label_2
_geom_bond_site_symmetry_1
_geom_bond_site_symmetry_2
C1 H1 1_555 1_555
C2 C1 1_555 1_555
H2 C2 1_555 1_555
C3 C2 1_555 1_555
C4 C3 1_555 1_555
H3 C4 1_555 1_555
C5 C4 1_555 1_555
H4 C5 1_555 1_555
C6 C3 1_555 1_555
C7 C6 1_555 1_555
C8 C7 1_555 1_555
H5 C8 1_555 1_555
C9 C8 1_555 1_555
H6 C9 1_555 1_555
C10 H7 1_555 1_555
C11 C7 1_555 1_555
H8 C11 1_555 1_555
C12 C13 1_555 1_555
C13 H9 1_555 1_555
H10 C13 1_555 1_555
H11 C13 1_555 1_555
N1 C1 1_555 1_555
N2 C9 1_555 1_555
N3 C12 1_555 1_555
O1 C6 1_555 1_555
Ag1 N1 1_555 1_555
C14 H12 1_555 1_555
C15 C14 1_555 1_555
H13 C15 1_555 1_555
C16 C15 1_555 1_555
C17 C16 1_555 1_555
H14 C17 1_555 1_555
C18 C17 1_555 1_555
H15 C18 1_555 1_555
C19 C16 1_555 1_555
C20 C19 1_555 1_555
C21 C20 1_555 1_555
H16 C21 1_555 1_555
C22 C21 1_555 1_555
H17 C22 1_555 1_555
C23 H18 1_555 1_555
C24 C20 1_555 1_555
H19 C24 1_555 1_555
N4 C14 1_555 1_555
N5 C22 1_555 1_555
O2 C19 1_555 1_555
Ag2 N5 1_555 1_555
C25 C26 1_555 1_555
C26 H20 1_555 1_555
H21 C26 1_555 1_555
H22 C26 1_555 1_555
N6 C25 1_555 1_555
C27 C28 1_555 1_555
C28 H23 1_555 1_555
H24 C28 1_555 1_555
H25 C28 1_555 1_555
N7 C27 1_555 1_555
O3 H26 1_555 1_555
H27 O3 1_555 1_555
O4 Cl1 1_555 1_555
O5 Cl1 1_555 1_555
O6 Cl1 1_555 1_555
O7 Cl1 1_555 1_555
O8 Cl2 1_555 1_555
O9 Cl2 1_555 1_555
O10 Cl2 1_555 1_555
O11 Cl2 1_555 1_555
N2C Ag1 1_555 1_555
Ag1C N2 1_555 1_555
N4C Ag2 1_555 1_555
Ag2C N4 1_555 1_555
C5 N1 1_555 1_555
C10 C11 1_555 1_555
C10 N2 1_555 1_555
N3 Ag1 1_555 1_555
C18 N4 1_555 1_555
C23 C24 1_555 1_555
C23 N5 1_555 1_555

#END
