
#######################################################################
#
#                 Cambridge Crystallographic Data Centre
#                                CCDC 
#
#######################################################################
#
# If this CIF has been generated from an entry in the Cambridge 
# Structural Database, then it will include bibliographic, chemical, 
# crystal, experimental, refinement or atomic coordinate data resulting 
# from the CCDC's data processing and validation procedures.
#
#######################################################################

data_COCFIL
_symmetry_cell_setting           monoclinic
_symmetry_space_group_name_H-M   'P 21/c'
_symmetry_Int_Tables_number      14
_space_group_name_Hall           '-P 2ybc'
loop_
_symmetry_equiv_pos_site_id
_symmetry_equiv_pos_as_xyz
1 x,y,z
2 -x,1/2+y,1/2-z
3 -x,-y,-z
4 x,1/2-y,1/2+z
_cell_length_a                   11.020(11)
_cell_length_b                   18.3216(17)
_cell_length_c                   10.7558(10)
_cell_angle_alpha                90
_cell_angle_beta                 93.782(4)
_cell_angle_gamma                90
_cell_volume                     2166.91
loop_
_atom_site_label
_atom_site_type_symbol
_atom_site_fract_x
_atom_site_fract_y
_atom_site_fract_z
C1 C 0.51912(19) 0.83013(11) 0.59284(19)
H1 H 0.4950 0.8616 0.6545
C2 C 0.45882(19) 0.76406(11) 0.57597(19)
H2 H 0.3976 0.7508 0.6271
C3 C 0.49168(19) 0.71806(11) 0.48114(19)
C4 C 0.5854(2) 0.73950(12) 0.40934(19)
H3 H 0.6089 0.7100 0.3449
C5 C 0.6436(2) 0.80522(12) 0.43443(19)
H4 H 0.7081 0.8185 0.3874
C6 C 0.42267(18) 0.64886(11) 0.44944(19)
C7 C 0.41788(18) 0.58979(11) 0.54535(19)
C8 C 0.34055(19) 0.53056(11) 0.5207(2)
H5 H 0.2935 0.5274 0.4458
C9 C 0.33529(19) 0.47672(11) 0.6098(2)
H6 H 0.2830 0.4375 0.5930
C10 C 0.47842(19) 0.53343(12) 0.7400(2)
H7 H 0.5271 0.5340 0.8141
C11 C 0.48976(19) 0.59077(11) 0.65676(19)
H8 H 0.5440 0.6288 0.6751
C12 C 0.7987(2) 1.09081(11) 0.44162(19)
H9 H 0.7927 1.0602 0.3726
C13 C 0.8351(2) 1.16204(11) 0.42594(19)
H10 H 0.8521 1.1790 0.3474
C14 C 0.84629(17) 1.20833(11) 0.52865(18)
C15 C 0.81821(19) 1.18070(11) 0.64316(18)
H11 H 0.8240 1.2101 0.7138
C16 C 0.78148(19) 1.10888(11) 0.65097(19)
H12 H 0.7628 1.0909 0.7283
C17 C 0.87843(18) 1.28752(11) 0.51408(18)
C18 C 0.96483(18) 1.32263(11) 0.60977(18)
C19 C 0.96401(18) 1.39812(11) 0.62304(19)
H13 H 0.9116 1.4268 0.5723
C20 C 1.04274(19) 1.42984(11) 0.7133(2)
H14 H 1.0401 1.4802 0.7237
C21 C 1.12438(19) 1.31878(11) 0.7707(2)
H15 H 1.1802 1.2916 0.8201
C22 C 1.04723(18) 1.28215(11) 0.68484(19)
H16 H 1.0506 1.2316 0.6777
N1 N 0.61066(16) 0.85070(9) 0.52423(15)
N2 N 0.40143(16) 0.47759(10) 0.71961(17)
N3 N 0.77140(16) 1.06380(9) 0.55291(16)
N4 N 1.12279(16) 1.39118(9) 0.78642(17)
O1 O 0.37114(14) 0.64257(8) 0.34662(14)
O2 O 0.83148(14) 1.32229(8) 0.42709(13)
Ag1 Ag 0.722039(14) 0.948316(8) 0.582069(15)
N2A N 0.59857(16) 0.97759(10) 0.78039(17)
N4A N 0.87721(16) 0.89118(9) 0.71358(17)
Ag1A Ag 0.277961(14) 0.448316(8) 0.917931(15)
Ag1A_2 Ag 1.277961(14) 1.448316(8) 0.917931(15)
B1 B 0.1639(2) 0.09518(13) 0.7918(2)
F1 F 0.07112(15) 0.10789(8) 0.70263(16)
F2 F 0.12013(14) 0.06472(8) 0.89749(14)
F3 F 0.22477(12) 0.16052(7) 0.82317(12)
F4 F 0.24677(12) 0.04652(7) 0.74433(13)
loop_
_geom_bond_atom_site_label_1
_geom_bond_atom_site_label_2
_geom_bond_site_symmetry_1
_geom_bond_site_symmetry_2
C1 H1 1_555 1_555
C2 C1 1_555 1_555
H2 C2 1_555 1_555
C3 C2 1_555 1_555
C4 C3 1_555 1_555
H3 C4 1_555 1_555
C5 C4 1_555 1_555
H4 C5 1_555 1_555
C6 C3 1_555 1_555
C7 C6 1_555 1_555
C8 C7 1_555 1_555
H5 C8 1_555 1_555
C9 C8 1_555 1_555
H6 C9 1_555 1_555
C10 H7 1_555 1_555
C11 C7 1_555 1_555
H8 C11 1_555 1_555
C12 H9 1_555 1_555
C13 C12 1_555 1_555
H10 C13 1_555 1_555
C14 C13 1_555 1_555
C15 C14 1_555 1_555
H11 C15 1_555 1_555
C16 C15 1_555 1_555
H12 C16 1_555 1_555
C17 C14 1_555 1_555
C18 C17 1_555 1_555
C19 C18 1_555 1_555
H13 C19 1_555 1_555
C20 C19 1_555 1_555
H14 C20 1_555 1_555
C21 H15 1_555 1_555
C22 C18 1_555 1_555
H16 C22 1_555 1_555
N1 C1 1_555 1_555
N2 C9 1_555 1_555
N3 C12 1_555 1_555
N4 C20 1_555 1_555
O1 C6 1_555 1_555
O2 C17 1_555 1_555
Ag1 N1 1_555 1_555
B1 F1 1_555 1_555
F2 B1 1_555 1_555
F3 B1 1_555 1_555
F4 B1 1_555 1_555
N2A Ag1 1_555 1_555
N4A Ag1 1_555 1_555
Ag1A N2 1_555 1_555
Ag1A_2 N4 1_555 1_555
C5 N1 1_555 1_555
C10 C11 1_555 1_555
C10 N2 1_555 1_555
C16 N3 1_555 1_555
C21 C22 1_555 1_555
C21 N4 1_555 1_555
N3 Ag1 1_555 1_555

#END
