
#######################################################################
#
#                 Cambridge Crystallographic Data Centre
#                                CCDC 
#
#######################################################################
#
# If this CIF has been generated from an entry in the Cambridge 
# Structural Database, then it will include bibliographic, chemical, 
# crystal, experimental, refinement or atomic coordinate data resulting 
# from the CCDC's data processing and validation procedures.
#
#######################################################################

data_COCFOR
_symmetry_cell_setting           monoclinic
_symmetry_space_group_name_H-M   'P 21/n'
_symmetry_Int_Tables_number      14
_space_group_name_Hall           '-P 2yn'
loop_
_symmetry_equiv_pos_site_id
_symmetry_equiv_pos_as_xyz
1 x,y,z
2 1/2-x,1/2+y,1/2-z
3 -x,-y,-z
4 1/2+x,1/2-y,1/2+z
_cell_length_a                   11.0709(7)
_cell_length_b                   18.5174(12)
_cell_length_c                   11.6388(8)
_cell_angle_alpha                90
_cell_angle_beta                 96.473(3)
_cell_angle_gamma                90
_cell_volume                     2370.79
loop_
_atom_site_label
_atom_site_type_symbol
_atom_site_fract_x
_atom_site_fract_y
_atom_site_fract_z
C1 C 0.2966(3) -0.11334(18) 0.6558(3)
H1 H 0.3685 -0.1350 0.6393
C2 C 0.1894(3) -0.15063(18) 0.6295(3)
H2 H 0.1891 -0.1963 0.5963
C3 C 0.0812(3) -0.11835(17) 0.6539(3)
C4 C 0.0861(3) -0.05027(17) 0.7028(3)
H3 H 0.0155 -0.0273 0.7195
C5 C 0.1983(3) -0.01682(18) 0.7267(3)
H4 H 0.2011 0.0289 0.7602
C6 C -0.0335(3) -0.16212(18) 0.6348(3)
C7 C -0.1546(3) -0.12613(17) 0.6333(3)
C8 C -0.2438(3) -0.16115(17) 0.6865(3)
H5 H -0.2288 -0.2063 0.7201
C9 C -0.3553(3) -0.12823(18) 0.6889(3)
H6 H -0.4136 -0.1514 0.7272
C10 C -0.2983(3) -0.03224(18) 0.5836(3)
H7 H -0.3176 0.0113 0.5462
C11 C -0.1835(3) -0.06006(17) 0.5794(3)
H8 H -0.1264 -0.0353 0.5416
C12 C 0.7213(3) 0.00662(19) 0.9233(4)
H9 H 0.7218 -0.0431 0.9116
C13 C 0.8223(3) 0.03831(18) 0.9820(3)
H10 H 0.8881 0.0100 1.0112
C14 C 0.8257(3) 0.11278(17) 0.9978(3)
C15 C 0.7232(3) 0.15162(19) 0.9553(3)
H11 H 0.7214 0.2016 0.9635
C16 C 0.6242(4) 0.1154(2) 0.9010(4)
H12 H 0.5551 0.1420 0.8760
C17 C 0.9399(3) 0.14739(18) 1.0532(3)
C18 C 0.9429(3) 0.22619(17) 1.0838(3)
C19 C 1.0506(3) 0.26412(18) 1.0762(3)
H13 H 1.1167 0.2415 1.0488
C20 C 1.0578(3) 0.33557(18) 1.1099(3)
H14 H 1.1308 0.3599 1.1062
C21 C 0.8624(3) 0.33479(18) 1.1555(3)
H15 H 0.7974 0.3589 1.1824
C22 C 0.8475(3) 0.26260(18) 1.1258(3)
H16 H 0.7748 0.2390 1.1338
N1 N 0.3025(2) -0.04724(15) 0.7040(2)
N2 N -0.3835(3) -0.06436(15) 0.6384(3)
N3 N 0.6215(3) 0.04427(16) 0.8819(3)
N4 N 0.9647(3) 0.37178(15) 1.1477(3)
O1 O -0.0274(2) -0.22726(12) 0.6273(2)
O2 O 1.0323(2) 0.11189(12) 1.0735(2)
Ag1 Ag 0.48147(2) 0.010777(13) 0.73049(3)
N2_2 N 0.6165(3) -0.06436(15) 0.6384(3)
N4C N 0.4647(3) 0.12822(15) 0.6477(3)
Ag1_2 Ag -0.51853(2) 0.010777(13) 0.73049(3)
Ag1C Ag 0.98147(2) 0.489223(13) 1.23049(3)
F1 F 0.0411(3) 0.13234(16) 0.6083(2)
F2 F -0.0655(2) 0.21056(13) 0.8191(2)
P1 P -0.01406(9) 0.17115(6) 0.71330(9)
F3 F -0.0683(16) 0.1002(3) 0.7495(12)
F4 F -0.1273(7) 0.1959(7) 0.6364(9)
F5 F 0.0511(9) 0.2448(5) 0.6794(11)
F6 F 0.1120(11) 0.1517(9) 0.7925(6)
F7? F 0.0453(17) 0.1143(7) 0.7993(8)
F8? F -0.097(2) 0.2192(11) 0.6224(16)
F9? F -0.1294(11) 0.1149(9) 0.6936(17)
F10? F 0.0886(19) 0.2244(14) 0.728(3)
loop_
_geom_bond_atom_site_label_1
_geom_bond_atom_site_label_2
_geom_bond_site_symmetry_1
_geom_bond_site_symmetry_2
C1 H1 1_555 1_555
C2 C1 1_555 1_555
H2 C2 1_555 1_555
C3 C2 1_555 1_555
C4 C3 1_555 1_555
H3 C4 1_555 1_555
C5 C4 1_555 1_555
H4 C5 1_555 1_555
C6 C3 1_555 1_555
C7 C6 1_555 1_555
C8 C7 1_555 1_555
H5 C8 1_555 1_555
C9 C8 1_555 1_555
H6 C9 1_555 1_555
C10 H7 1_555 1_555
C11 C7 1_555 1_555
H8 C11 1_555 1_555
C12 H9 1_555 1_555
C13 C12 1_555 1_555
H10 C13 1_555 1_555
C14 C13 1_555 1_555
C15 C14 1_555 1_555
H11 C15 1_555 1_555
C16 C15 1_555 1_555
H12 C16 1_555 1_555
C17 C14 1_555 1_555
C18 C17 1_555 1_555
C19 C18 1_555 1_555
H13 C19 1_555 1_555
C20 C19 1_555 1_555
H14 C20 1_555 1_555
C21 H15 1_555 1_555
C22 C18 1_555 1_555
H16 C22 1_555 1_555
N1 C1 1_555 1_555
N2 C9 1_555 1_555
N3 C12 1_555 1_555
N4 C20 1_555 1_555
O1 C6 1_555 1_555
O2 C17 1_555 1_555
Ag1 N1 1_555 1_555
F1 P1 1_555 1_555
F2 P1 1_555 1_555
P1 F3 1_555 1_555
F4 P1 1_555 1_555
F5 P1 1_555 1_555
F6 P1 1_555 1_555
N2_2 Ag1 1_555 1_555
N4C Ag1 1_555 1_555
Ag1_2 N2 1_555 1_555
Ag1C N4 1_555 1_555
C5 N1 1_555 1_555
C10 C11 1_555 1_555
C10 N2 1_555 1_555
C16 N3 1_555 1_555
C21 C22 1_555 1_555
C21 N4 1_555 1_555
N3 Ag1 1_555 1_555

#END
