
#######################################################################
#
#                 Cambridge Crystallographic Data Centre
#                                CCDC 
#
#######################################################################
#
# If this CIF has been generated from an entry in the Cambridge 
# Structural Database, then it will include bibliographic, chemical, 
# crystal, experimental, refinement or atomic coordinate data resulting 
# from the CCDC's data processing and validation procedures.
#
#######################################################################

data_COCFAD
_symmetry_cell_setting           monoclinic
_symmetry_space_group_name_H-M   'P 21/c'
_symmetry_Int_Tables_number      14
_space_group_name_Hall           '-P 2ybc'
loop_
_symmetry_equiv_pos_site_id
_symmetry_equiv_pos_as_xyz
1 x,y,z
2 -x,1/2+y,1/2-z
3 -x,-y,-z
4 x,1/2-y,1/2+z
_cell_length_a                   7.9890(5)
_cell_length_b                   22.9536(15)
_cell_length_c                   20.1547(15)
_cell_angle_alpha                90
_cell_angle_beta                 91.046(3)
_cell_angle_gamma                90
_cell_volume                     3695.28
loop_
_atom_site_label
_atom_site_type_symbol
_atom_site_fract_x
_atom_site_fract_y
_atom_site_fract_z
Ag1 Ag 0.22253(3) 0.504417(10) -0.001717(15)
Ag2 Ag 0.28338(3) 1.002754(10) -0.007451(16)
C1 C 0.3467(4) 0.37813(13) -0.01434(18)
H1 H 0.3850 0.3860 0.0297
C2 C 0.3768(4) 0.32383(14) -0.04011(18)
H2 H 0.4328 0.2949 -0.0144
C3 C 0.3234(4) 0.31229(13) -0.10489(18)
C4 C 0.2376(4) 0.35585(13) -0.14063(17)
H3 H 0.1984 0.3490 -0.1847
C5 C 0.2115(4) 0.40879(13) -0.11027(17)
H4 H 0.1525 0.4382 -0.1341
C6 C 0.3626(5) 0.25689(16) -0.1413(2)
C7 C 0.3303(4) 0.19802(13) -0.10957(18)
C8 C 0.3732(4) 0.14861(13) -0.14445(17)
H5 H 0.4201 0.1520 -0.1872
C9 C 0.3483(4) 0.09527(14) -0.11752(18)
H6 H 0.3767 0.0618 -0.1426
C10 C 0.2397(4) 0.13581(13) -0.02277(16)
H7 H 0.1930 0.1315 0.0200
C11 C 0.2586(4) 0.19113(13) -0.04794(16)
H8 H 0.2231 0.2241 -0.0234
N1 N 0.2842(3) 0.08780(11) -0.05588(14)
C12 C 0.2564(4) 0.59932(14) 0.10778(17)
H9 H 0.3007 0.5678 0.1331
C13 C 0.2331(4) 0.65234(13) 0.13920(17)
H10 H 0.2593 0.6568 0.1851
C14 C 0.1698(4) 0.69961(13) 0.10169(17)
C15 C 0.1307(4) 0.69028(14) 0.03449(17)
H11 H 0.0873 0.7210 0.0077
C16 C 0.1564(4) 0.63585(13) 0.00789(18)
H12 H 0.1287 0.6298 -0.0376
C17 C 0.1338(4) 0.75650(14) 0.13611(19)
C18 C 0.1729(4) 0.81276(13) 0.10095(17)
C19 C 0.1131(4) 0.86463(13) 0.12780(18)
H13 H 0.0495 0.8638 0.1672
C20 C 0.1460(4) 0.91683(14) 0.09742(18)
H14 H 0.1057 0.9517 0.1168
C21 C 0.2939(4) 0.87038(13) 0.01604(16)
H15 H 0.3586 0.8724 -0.0230
C22 C 0.2672(4) 0.81634(13) 0.04392(17)
H16 H 0.3124 0.7822 0.0245
N2 N 0.0277(3) 0.46558(12) 0.09247(16)
C23 C 0.0325(3) 0.44793(14) 0.14510(18)
C24 C 0.0356(4) 0.42545(16) 0.21300(17)
H17 H 0.0091 0.4570 0.2439
H18 H 0.1472 0.4100 0.2237
H19 H -0.0475 0.3943 0.2169
N3 N 0.4803(3) 1.04287(12) 0.09036(15)
C25 C 0.4798(3) 1.06308(14) 0.14155(18)
C26 C 0.4846(4) 1.08901(15) 0.20751(18)
H20 H 0.4117 1.0669 0.2369
H21 H 0.4459 1.1295 0.2048
H22 H 0.5997 1.0881 0.2252
N4 N 0.2670(3) 0.42057(11) -0.04727(14)
N5 N 0.2195(3) 0.59036(11) 0.04352(14)
N6 N 0.2338(3) 0.92016(11) 0.04100(14)
O1 O 0.4289(5) 0.25926(11) -0.19407(18)
O2 O 0.0693(3) 0.75630(10) 0.18999(13)
Ag2_2 Ag 0.28338(3) 0.002754(10) -0.007451(16)
N1_2 N 0.2842(3) 1.08780(11) -0.05588(14)
N7 N 0.4699(4) 0.73139(16) 0.41931(19)
C27 C 0.3905(5) 0.74366(17) 0.3747(2)
C28 C 0.2897(5) 0.75789(17) 0.3176(2)
H23 H 0.2047 0.7276 0.3105
H24 H 0.3607 0.7604 0.2786
H25 H 0.2345 0.7955 0.3246
N8 N 0.0897(8) 0.2836(3) 0.0862(4)
C29 C 0.1475(5) 0.2731(2) 0.1337(2)
C30 C 0.2218(7) 0.2576(3) 0.1939(3)
P1 P 0.46245(9) 0.56849(4) -0.17616(5)
F1 F 0.3406(2) 0.60015(8) -0.12512(10)
F2 F 0.3774(2) 0.60376(10) -0.23633(11)
F3 F 0.5973(2) 0.61951(9) -0.16507(12)
F4 F 0.5463(2) 0.53276(9) -0.11597(13)
F5 F 0.3282(2) 0.51771(8) -0.18646(11)
F6 F 0.5841(2) 0.53716(10) -0.22705(13)
P2 P 0.02055(9) 0.92082(4) -0.16680(5)
F7 F 0.0755(3) 0.90731(15) -0.23976(13)
F8 F 0.1619(2) 0.87803(9) -0.13885(14)
F9 F -0.1106(3) 0.86901(9) -0.16793(17)
F10 F -0.1207(2) 0.96400(8) -0.19423(11)
F11 F 0.1507(2) 0.97302(9) -0.16365(12)
F12 F -0.0328(3) 0.93543(11) -0.09274(12)
N9? N 0.0458(6) 0.2333(2) 0.0853(3)
C31? C 0.1176(11) 0.2419(5) 0.1308(6)
loop_
_geom_bond_atom_site_label_1
_geom_bond_atom_site_label_2
_geom_bond_site_symmetry_1
_geom_bond_site_symmetry_2
Ag1 N2 1_555 1_555
Ag2 N3 1_555 1_555
C1 H1 1_555 1_555
C2 C1 1_555 1_555
H2 C2 1_555 1_555
C3 C2 1_555 1_555
C4 C3 1_555 1_555
H3 C4 1_555 1_555
C5 C4 1_555 1_555
H4 C5 1_555 1_555
C6 C3 1_555 1_555
C7 C6 1_555 1_555
C8 C7 1_555 1_555
H5 C8 1_555 1_555
C9 C8 1_555 1_555
H6 C9 1_555 1_555
C10 H7 1_555 1_555
C11 C7 1_555 1_555
H8 C11 1_555 1_555
N1 C9 1_555 1_555
C12 H9 1_555 1_555
C13 C12 1_555 1_555
H10 C13 1_555 1_555
C14 C13 1_555 1_555
C15 C14 1_555 1_555
H11 C15 1_555 1_555
C16 C15 1_555 1_555
H12 C16 1_555 1_555
C17 C14 1_555 1_555
C18 C17 1_555 1_555
C19 C18 1_555 1_555
H13 C19 1_555 1_555
C20 C19 1_555 1_555
H14 C20 1_555 1_555
C21 H15 1_555 1_555
C22 C18 1_555 1_555
H16 C22 1_555 1_555
N2 C23 1_555 1_555
C23 C24 1_555 1_555
C24 H17 1_555 1_555
H18 C24 1_555 1_555
H19 C24 1_555 1_555
N3 C25 1_555 1_555
C25 C26 1_555 1_555
C26 H20 1_555 1_555
H21 C26 1_555 1_555
H22 C26 1_555 1_555
N4 Ag1 1_555 1_555
N5 Ag1 1_555 1_555
N6 Ag2 1_555 1_555
O1 C6 1_555 1_555
O2 C17 1_555 1_555
N7 C27 1_555 1_555
C27 C28 1_555 1_555
C28 H23 1_555 1_555
H24 C28 1_555 1_555
H25 C28 1_555 1_555
N8 C29 1_555 1_555
C29 C30 1_555 1_555
P1 F1 1_555 1_555
F2 P1 1_555 1_555
F3 P1 1_555 1_555
F4 P1 1_555 1_555
F5 P1 1_555 1_555
F6 P1 1_555 1_555
P2 F7 1_555 1_555
F8 P2 1_555 1_555
F9 P2 1_555 1_555
F10 P2 1_555 1_555
F11 P2 1_555 1_555
F12 P2 1_555 1_555
Ag2_2 N1 1_555 1_555
N1_2 Ag2 1_555 1_555
C1 N4 1_555 1_555
C5 N4 1_555 1_555
C10 C11 1_555 1_555
C10 N1 1_555 1_555
C12 N5 1_555 1_555
C16 N5 1_555 1_555
C20 N6 1_555 1_555
C21 C22 1_555 1_555
C21 N6 1_555 1_555

#END
