
#######################################################################
#
#                 Cambridge Crystallographic Data Centre
#                                CCDC 
#
#######################################################################
#
# If this CIF has been generated from an entry in the Cambridge 
# Structural Database, then it will include bibliographic, chemical, 
# crystal, experimental, refinement or atomic coordinate data resulting 
# from the CCDC's data processing and validation procedures.
#
#######################################################################

data_COCFUX
_symmetry_cell_setting           triclinic
_symmetry_space_group_name_H-M   'P -1'
_symmetry_Int_Tables_number      2
_space_group_name_Hall           '-P 1'
loop_
_symmetry_equiv_pos_site_id
_symmetry_equiv_pos_as_xyz
1 x,y,z
2 -x,-y,-z
_cell_length_a                   10.950(7)
_cell_length_b                   11.1081(7)
_cell_length_c                   12.1273(9)
_cell_angle_alpha                85.248(2)
_cell_angle_beta                 86.205(3)
_cell_angle_gamma                83.680(3)
_cell_volume                     1458.66
loop_
_atom_site_label
_atom_site_type_symbol
_atom_site_fract_x
_atom_site_fract_y
_atom_site_fract_z
C1 C 0.8345(4) 0.2728(4) 0.5621(3)
H1 H 0.7659 0.2592 0.5255
C2 C 0.9378(4) 0.3025(4) 0.4998(3)
H2 H 0.9378 0.3109 0.4228
C3 C 1.0427(3) 0.3199(3) 0.5533(3)
C4 C 1.0372(3) 0.3071(4) 0.6690(3)
H3 H 1.1057 0.3162 0.7078
C5 C 0.9285(3) 0.2806(4) 0.7246(3)
H4 H 0.9246 0.2750 0.8017
C6 C 1.1543(4) 0.3613(4) 0.4894(3)
C7 C 1.2741(3) 0.3321(4) 0.5451(3)
C8 C 1.3393(4) 0.4249(4) 0.5712(3)
H5 H 1.3135 0.5055 0.5495
C9 C 1.4440(3) 0.3948(4) 0.6305(3)
H6 H 1.4864 0.4574 0.6495
C10 C 1.4264(4) 0.1919(4) 0.6303(3)
H7 H 1.4583 0.1118 0.6469
C11 C 1.3191(4) 0.2131(4) 0.5746(4)
H8 H 1.2780 0.1488 0.5573
C12 C 0.5843(4) 0.9835(3) 0.8765(3)
H9 H 0.5219 1.0022 0.8275
C13 C 0.6012(3) 0.8667(3) 0.9260(3)
H10 H 0.5520 0.8081 0.9095
C14 C 0.6927(3) 0.8380(3) 1.0007(3)
C15 C 0.7621(4) 0.9296(3) 1.0238(3)
H11 H 0.8218 0.9145 1.0757
C16 C 0.7415(4) 1.0425(3) 0.9690(3)
H12 H 0.7905 1.1021 0.9831
C17 C 0.7159(3) 0.7135(3) 1.0574(3)
C18 C 0.6966(3) 0.6072(3) 0.9953(3)
C19 C 0.7144(3) 0.6091(3) 0.8804(3)
H13 H 0.7367 0.6784 0.8391
C20 C 0.6982(4) 0.5059(3) 0.8288(3)
H14 H 0.7108 0.5072 0.7521
C21 C 0.6493(3) 0.4027(3) 0.9955(3)
H15 H 0.6274 0.3321 1.0349
C22 C 0.6638(3) 0.5013(3) 1.0540(3)
H16 H 0.6519 0.4971 1.1308
N1 N 0.8280(3) 0.2624(3) 0.6738(3)
N2 N 1.4871(3) 0.2806(3) 0.6617(3)
N3 N 0.6535(3) 1.0709(3) 0.8958(3)
N4 N 0.6652(3) 0.4037(3) 0.8847(2)
O1 O 1.1478(3) 0.4187(3) 0.4007(2)
O2 O 0.7499(3) 0.6995(3) 1.1512(2)
Ag1 Ag 0.64207(3) 0.24236(2) 0.77899(2)
N2_2 N 0.4871(3) 0.2806(3) 0.6617(3)
N3_2 N 0.6535(3) 0.0709(3) 0.8958(3)
Ag1_2 Ag 0.64207(3) 1.24236(2) 0.77899(2)
Ag1_3 Ag 1.64207(3) 0.24236(2) 0.77899(2)
C23 C 0.9267(9) 0.8958(9) 0.7237(8)
C24 C 1.0365(11) 0.9672(11) 0.7549(9)
H17 H 1.0049 1.0293 0.8029
H18 H 1.0741 1.0038 0.6885
H19 H 1.0966 0.9116 0.7920
N5 N 0.8488(7) 0.8402(7) 0.7101(7)
C25 C 0.0346(4) 0.6533(4) 0.9177(3)
C26 C 0.0434(4) 0.5711(4) 0.8293(4)
H20 H 0.1221 0.5729 0.7895
H21 H -0.0207 0.5962 0.7795
H22 H 0.0348 0.4900 0.8606
N6 N 0.0282(4) 0.7166(4) 0.9876(4)
F1 F 0.4537(3) 0.6837(3) 0.7648(2)
F2 F 0.3415(3) 0.8583(3) 0.7962(3)
F3 F 0.5013(3) 0.8546(3) 0.6683(2)
F4 F 0.3050(4) 0.8881(3) 0.6134(3)
F5 F 0.4194(3) 0.7117(3) 0.5831(2)
F6 F 0.2597(3) 0.7177(3) 0.7086(3)
P1 P 0.38044(10) 0.78707(10) 0.68812(8)
loop_
_geom_bond_atom_site_label_1
_geom_bond_atom_site_label_2
_geom_bond_site_symmetry_1
_geom_bond_site_symmetry_2
C1 H1 1_555 1_555
C2 C1 1_555 1_555
H2 C2 1_555 1_555
C3 C2 1_555 1_555
C4 C3 1_555 1_555
H3 C4 1_555 1_555
C5 C4 1_555 1_555
H4 C5 1_555 1_555
C6 C3 1_555 1_555
C7 C6 1_555 1_555
C8 C7 1_555 1_555
H5 C8 1_555 1_555
C9 C8 1_555 1_555
H6 C9 1_555 1_555
C10 H7 1_555 1_555
C11 C7 1_555 1_555
H8 C11 1_555 1_555
C12 H9 1_555 1_555
C13 C12 1_555 1_555
H10 C13 1_555 1_555
C14 C13 1_555 1_555
C15 C14 1_555 1_555
H11 C15 1_555 1_555
C16 C15 1_555 1_555
H12 C16 1_555 1_555
C17 C14 1_555 1_555
C18 C17 1_555 1_555
C19 C18 1_555 1_555
H13 C19 1_555 1_555
C20 C19 1_555 1_555
H14 C20 1_555 1_555
C21 H15 1_555 1_555
C22 C18 1_555 1_555
H16 C22 1_555 1_555
N1 C1 1_555 1_555
N2 C9 1_555 1_555
N3 C12 1_555 1_555
N4 C20 1_555 1_555
O1 C6 1_555 1_555
O2 C17 1_555 1_555
Ag1 N1 1_555 1_555
C23 C24 1_555 1_555
C24 H17 1_555 1_555
H18 C24 1_555 1_555
H19 C24 1_555 1_555
N5 C23 1_555 1_555
C25 C26 1_555 1_555
C26 H20 1_555 1_555
H21 C26 1_555 1_555
H22 C26 1_555 1_555
N6 C25 1_555 1_555
F1 P1 1_555 1_555
F2 P1 1_555 1_555
F3 P1 1_555 1_555
F4 P1 1_555 1_555
F5 P1 1_555 1_555
F6 P1 1_555 1_555
N2_2 Ag1 1_555 1_555
N3_2 Ag1 1_555 1_555
Ag1_2 N3 1_555 1_555
Ag1_3 N2 1_555 1_555
C5 N1 1_555 1_555
C10 C11 1_555 1_555
C10 N2 1_555 1_555
C16 N3 1_555 1_555
C21 C22 1_555 1_555
C21 N4 1_555 1_555
N4 Ag1 1_555 1_555

#END
