
#######################################################################
#
#                 Cambridge Crystallographic Data Centre
#                                CCDC 
#
#######################################################################
#
# If this CIF has been generated from an entry in the Cambridge 
# Structural Database, then it will include bibliographic, chemical, 
# crystal, experimental, refinement or atomic coordinate data resulting 
# from the CCDC's data processing and validation procedures.
#
#######################################################################

data_COCLUC
_symmetry_cell_setting           orthorhombic
_symmetry_space_group_name_H-M   'P 21 21 21'
_symmetry_Int_Tables_number      19
_space_group_name_Hall           'P 2ac 2ab'
loop_
_symmetry_equiv_pos_site_id
_symmetry_equiv_pos_as_xyz
1 x,y,z
2 1/2-x,-y,1/2+z
3 -x,1/2+y,1/2-z
4 1/2+x,1/2-y,-z
_cell_length_a                   8.6831(18)
_cell_length_b                   12.128(3)
_cell_length_c                   15.999(3)
_cell_angle_alpha                90
_cell_angle_beta                 90
_cell_angle_gamma                90
_cell_volume                     1684.83
loop_
_atom_site_label
_atom_site_type_symbol
_atom_site_fract_x
_atom_site_fract_y
_atom_site_fract_z
Mn1 Mn 0.76153(5) 0.86904(3) 0.80123(3)
Mn2 Mn 1.27045(5) 0.98953(3) 0.92741(2)
O1 O 0.5382(3) 0.81593(18) 0.75792(13)
H1 H 0.5349 0.8173 0.7048
H2 H 0.4663 0.8552 0.7782
O2 O 1.0471(3) 1.0549(2) 0.95954(15)
H3 H 1.0477 1.0857 1.0073
H4 H 0.9755 1.0074 0.9556
O3 O 0.8179(3) 0.70561(19) 0.84930(13)
O4 O 1.0017(3) 0.57984(18) 0.84536(14)
O5 O 1.2595(3) 0.90223(18) 0.81285(12)
O6 O 1.0080(2) 0.90644(18) 0.81420(14)
O7 O 0.8657(2) 0.77383(17) 0.69588(13)
H5 H 0.7973 0.7376 0.6695
C1 C 0.9304(3) 0.6590(2) 0.81476(17)
C2 C 0.9804(4) 0.7019(2) 0.72933(18)
H6 H 0.9938 0.6379 0.6906
C3 C 1.1315(3) 0.7658(2) 0.73396(18)
H7 H 1.2132 0.7151 0.7535
H8 H 1.1594 0.7901 0.6769
C4 C 1.1293(3) 0.8658(2) 0.79056(17)
O8 O 0.5175(3) 0.96356(18) 0.90628(14)
O9 O 0.7681(3) 0.96085(18) 0.91515(14)
O10 O 0.4937(3) 1.28932(18) 0.91463(13)
O11 O 0.3205(3) 1.15696(17) 0.89640(13)
O12 O 0.3739(2) 1.06914(18) 1.04282(13)
H9 H 0.4143 1.0210 1.0746
C5 C 0.6400(3) 0.9994(2) 0.93607(18)
C6 C 0.6421(3) 1.0919(3) 0.99881(19)
H10 H 0.7151 1.1490 0.9792
H11 H 0.6818 1.0628 1.0525
C7 C 0.4859(3) 1.1464(2) 1.01474(17)
H12 H 0.4994 1.2037 1.0590
C8 C 0.4290(4) 1.2028(2) 0.93576(17)
O13 O 0.7374(3) 1.00945(19) 0.72092(15)
H13 H 0.8180 1.0174 0.6914
C9 C 0.6053(5) 1.0535(4) 0.6772(3)
H14 H 0.6360 1.1193 0.6459
H15 H 0.5252 1.0731 0.7177
H16 H 0.5653 0.9979 0.6385
O14 O 1.2281(3) 0.8460(2) 1.00035(14)
H17 H 1.2585 0.8548 1.0504
C10 C 1.0913(5) 0.7809(3) 0.9970(3)
H18 H 1.0999 0.7194 1.0365
H19 H 1.0778 0.7519 0.9403
H20 H 1.0024 0.8266 1.0119
Mn2_2 Mn 0.27045(5) 0.98953(3) 0.92741(2)
O8_2 O 1.5175(3) 0.96356(18) 0.90628(14)
O11_2 O 1.3205(3) 1.15696(17) 0.89640(13)
O12_2 O 1.3739(2) 1.06914(18) 1.04282(13)
H9_2 H 1.4143 1.0210 1.0746
loop_
_geom_bond_atom_site_label_1
_geom_bond_atom_site_label_2
_geom_bond_site_symmetry_1
_geom_bond_site_symmetry_2
Mn1 O1 1_555 1_555
Mn2 O2 1_555 1_555
O1 H1 1_555 1_555
H2 O1 1_555 1_555
O2 H3 1_555 1_555
H4 O2 1_555 1_555
O3 Mn1 1_555 1_555
O4 C1 1_555 1_555
O5 Mn2 1_555 1_555
O6 Mn1 1_555 1_555
O7 Mn1 1_555 1_555
H5 O7 1_555 1_555
C1 O3 1_555 1_555
C2 O7 1_555 1_555
H6 C2 1_555 1_555
C3 C2 1_555 1_555
H7 C3 1_555 1_555
H8 C3 1_555 1_555
C4 O5 1_555 1_555
O8 C5 1_555 1_555
O9 Mn1 1_555 1_555
O10 C8 1_555 1_555
O11 C8 1_555 1_555
O12 H9 1_555 1_555
C5 O9 1_555 1_555
C6 C5 1_555 1_555
H10 C6 1_555 1_555
H11 C6 1_555 1_555
C7 O12 1_555 1_555
H12 C7 1_555 1_555
C8 C7 1_555 1_555
O13 Mn1 1_555 1_555
H13 O13 1_555 1_555
C9 O13 1_555 1_555
H14 C9 1_555 1_555
H15 C9 1_555 1_555
H16 C9 1_555 1_555
O14 Mn2 1_555 1_555
H17 O14 1_555 1_555
C10 O14 1_555 1_555
H18 C10 1_555 1_555
H19 C10 1_555 1_555
H20 C10 1_555 1_555
Mn2_2 O8 1_555 1_555
O8_2 Mn2 1_555 1_555
O11_2 Mn2 1_555 1_555
O12_2 Mn2 1_555 1_555
H9_2 O12_2 1_555 1_555
O6 C4 1_555 1_555
C1 C2 1_555 1_555
C3 C4 1_555 1_555
O11 Mn2_2 1_555 1_555
O12 Mn2_2 1_555 1_555
C6 C7 1_555 1_555

#END
