
#######################################################################
#
#                 Cambridge Crystallographic Data Centre
#                                CCDC 
#
#######################################################################
#
# If this CIF has been generated from an entry in the Cambridge 
# Structural Database, then it will include bibliographic, chemical, 
# crystal, experimental, refinement or atomic coordinate data resulting 
# from the CCDC's data processing and validation procedures.
#
#######################################################################

data_COCLIR
_symmetry_cell_setting           trigonal
_symmetry_space_group_name_H-M   'P -3 1 c'
_symmetry_Int_Tables_number      163
_space_group_name_Hall           "-P 3 2'c"
loop_
_symmetry_equiv_pos_site_id
_symmetry_equiv_pos_as_xyz
1 x,y,z
2 -y,x-y,z
3 -x+y,-x,z
4 -y,-x,1/2-z
5 x,x-y,1/2-z
6 -x+y,y,1/2-z
7 -x,-y,-z
8 y,-x+y,-z
9 x-y,x,-z
10 y,x,1/2+z
11 -x,-x+y,1/2+z
12 x-y,-y,1/2+z
_cell_length_a                   16.3472(8)
_cell_length_b                   16.3472(8)
_cell_length_c                   28.0214(16)
_cell_angle_alpha                90
_cell_angle_beta                 90
_cell_angle_gamma                120
_cell_volume                     6484.96
loop_
_atom_site_label
_atom_site_type_symbol
_atom_site_fract_x
_atom_site_fract_y
_atom_site_fract_z
C1 C 0.7756(9) 0.7679(10) 0.1676(5)
C2 C 0.7128(8) 0.6723(9) 0.1629(5)
C3 C 0.7438(7) 0.6081(8) 0.16814(33)
C4 C 0.8372(9) 0.6398(10) 0.1801(5)
C5 C 0.8995(9) 0.7358(10) 0.1853(5)
C6 C 0.8681(6) 0.7994(8) 0.1788(4)
P1 P 0.6608(4) 0.4825(5) 0.16252(22)
O1 O 0.68535(35) 0.4427(5) 0.11823(34)
O2 O 0.5626(10) 0.4675(13) 0.1570(4)
C7 C 0.9345(4) 0.9018(8) 0.1838(6)
C8 C 0.9006(12) 0.9640(11) 0.1832(20)
O3 O 0.66647(30) 0.4339(5) 0.20732(18)
Zr1 Zr 0.66667 0.33333 0.25000
C9 C 1.0160(13) 0.7801(12) 0.0513(6)
C10 C 0.9946(12) 0.6865(11) 0.0529(9)
C11 C 0.9044(9) 0.6162(9) 0.0412(4)
C12 C 0.8299(11) 0.6348(10) 0.0451(4)
C13 C 0.8501(14) 0.7284(10) 0.0532(5)
C14 C 0.9435(14) 0.8009(9) 0.0554(4)
P2 P 0.8810(6) 0.4966(6) 0.02788(28)
O4 O 0.9363(10) 0.4718(12) 0.0617(7)
O5 O 0.9117(11) 0.4934(11) -0.0230(5)
C15 C 0.9661(20) 0.9009(11) 0.0637(5)
C16 C 0.8943(30) 0.9300(30) 0.0512(18)
O6 O 0.7761(5) 0.4261(4) 0.03282(35)
Zr2 Zr 0.66667 0.33333 0.0744(4)
C1A C 1.2321(10) 1.0077(13) 0.1676(5)
C2A C 1.3277(9) 1.0405(12) 0.1629(5)
C3A C 1.3919(8) 1.1357(11) 0.16814(33)
C4A C 1.3602(10) 1.1974(13) 0.1801(5)
C5A C 1.2642(10) 1.1637(13) 0.1853(5)
C6A C 1.2006(8) 1.0687(10) 0.1788(4)
P1A P 1.5175(5) 1.1783(6) 0.16252(22)
O1A O 1.5573(5) 1.24265(61) 0.11823(34)
O2A O 1.5325(13) 1.0951(16) 0.1570(4)
C7A C 1.0982(8) 1.0327(9) 0.1838(6)
C8A C 1.0360(11) 0.9366(16) 0.1832(20)
O3A O 1.5661(5) 1.23257(58) 0.20732(18)
C1B C 0.9923(13) 1.2244(9) 0.1676(5)
C2B C 0.9595(12) 1.2872(8) 0.1629(5)
C3B C 0.8643(11) 1.2562(7) 0.16814(33)
C4B C 0.8026(13) 1.1628(9) 0.1801(5)
C5B C 0.8363(13) 1.1005(9) 0.1853(5)
C6B C 0.9313(10) 1.1319(6) 0.1788(4)
P1B P 0.8217(6) 1.3392(4) 0.16252(22)
O1B O 0.75735(61) 1.31465(35) 0.11823(34)
O2B O 0.9049(16) 1.4374(10) 0.1570(4)
C7B C 0.9673(9) 1.0655(4) 0.1838(6)
C8B C 1.0634(16) 1.0994(12) 0.1832(20)
O3B O 0.76743(58) 1.33353(30) 0.20732(18)
C9A C 1.2199(12) 1.2359(18) 0.0513(6)
C10A C 1.3135(11) 1.3081(16) 0.0529(9)
C11A C 1.3838(9) 1.2882(13) 0.0412(4)
C12A C 1.3652(10) 1.1951(15) 0.0451(4)
C13A C 1.2716(10) 1.1217(17) 0.0532(5)
C14A C 1.1991(9) 1.1426(17) 0.0554(4)
P2A P 1.5034(6) 1.3844(8) 0.02788(28)
O4A O 1.5282(12) 1.4645(16) 0.0617(7)
O5A O 1.5066(11) 1.4183(16) -0.0230(5)
C15A C 1.0991(11) 1.0652(23) 0.0637(5)
C16A C 1.0700(30) 0.9643(42) 0.0512(18)
O6A O 1.5739(4) 1.3500(6) 0.03282(35)
C9B C 0.7641(18) 0.9840(13) 0.0513(6)
C10B C 0.6919(16) 1.0054(12) 0.0529(9)
C11B C 0.7118(13) 1.0956(9) 0.0412(4)
C12B C 0.8049(15) 1.1701(11) 0.0451(4)
C13B C 0.8783(17) 1.1499(14) 0.0532(5)
C14B C 0.8574(17) 1.0565(14) 0.0554(4)
P2B P 0.6156(8) 1.1190(6) 0.02788(28)
O4B O 0.5355(16) 1.0637(10) 0.0617(7)
O5B O 0.5817(16) 1.0883(11) -0.0230(5)
C15B C 0.9348(23) 1.0339(20) 0.0637(5)
C16B C 1.0357(42) 1.1057(30) 0.0512(18)
O6B O 0.6500(6) 1.2239(5) 0.03282(35)
C1A_2 C 0.2321(10) 0.0077(13) 0.1676(5)
C2A_2 C 0.3277(9) 0.0405(12) 0.1629(5)
C3A_2 C 0.3919(8) 0.1357(11) 0.16814(33)
C4A_2 C 0.3602(10) 0.1974(13) 0.1801(5)
C5A_2 C 0.2642(10) 0.1637(13) 0.1853(5)
C6A_2 C 0.2006(8) 0.0687(10) 0.1788(4)
P1A_2 P 0.5175(5) 0.1783(6) 0.16252(22)
O1A_2 O 0.5573(5) 0.24265(61) 0.11823(34)
O2A_2 O 0.5325(13) 0.0951(16) 0.1570(4)
C7A_2 C 0.0982(8) 0.0327(9) 0.1838(6)
C8A_2 C 0.0360(11) -0.0634(16) 0.1832(20)
O3A_2 O 0.5661(5) 0.23257(58) 0.20732(18)
C9A_2 C 0.2199(12) 0.2359(18) 0.0513(6)
C10A_2 C 0.3135(11) 0.3081(16) 0.0529(9)
C11A_2 C 0.3838(9) 0.2882(13) 0.0412(4)
C12A_2 C 0.3652(10) 0.1951(15) 0.0451(4)
C13A_2 C 0.2716(10) 0.1217(17) 0.0532(5)
C14A_2 C 0.1991(9) 0.1426(17) 0.0554(4)
P2A_2 P 0.5034(6) 0.3844(8) 0.02788(28)
O4A_2 O 0.5282(12) 0.4645(16) 0.0617(7)
O5A_2 O 0.5066(11) 0.4183(16) -0.0230(5)
C15A_2 C 0.0991(11) 0.0652(23) 0.0637(5)
C16A_2 C 0.0700(30) -0.0357(42) 0.0512(18)
O6A_2 O 0.5739(4) 0.3500(6) 0.03282(35)
C1B_2 C -0.0077(13) 0.2244(9) 0.1676(5)
C2B_2 C -0.0405(12) 0.2872(8) 0.1629(5)
C3B_2 C -0.1357(11) 0.2562(7) 0.16814(33)
C4B_2 C -0.1974(13) 0.1628(9) 0.1801(5)
C5B_2 C -0.1637(13) 0.1005(9) 0.1853(5)
C6B_2 C -0.0687(10) 0.1319(6) 0.1788(4)
P1B_2 P -0.1783(6) 0.3392(4) 0.16252(22)
O1B_2 O -0.24265(61) 0.31465(35) 0.11823(34)
O2B_2 O -0.0951(16) 0.4374(10) 0.1570(4)
C7B_2 C -0.0327(9) 0.0655(4) 0.1838(6)
C8B_2 C 0.0634(16) 0.0994(12) 0.1832(20)
O3B_2 O -0.23257(58) 0.33353(30) 0.20732(18)
C1_2 C -0.2244(9) -0.2321(10) 0.1676(5)
C2_2 C -0.2872(8) -0.3277(9) 0.1629(5)
C3_2 C -0.2562(7) -0.3919(8) 0.16814(33)
C4_2 C -0.1628(9) -0.3602(10) 0.1801(5)
C5_2 C -0.1005(9) -0.2642(10) 0.1853(5)
C6_2 C -0.1319(6) -0.2006(8) 0.1788(4)
P1_2 P -0.3392(4) -0.5175(5) 0.16252(22)
O1_2 O -0.31465(35) -0.5573(5) 0.11823(34)
O2_2 O -0.4374(10) -0.5325(13) 0.1570(4)
C7_2 C -0.0655(4) -0.0982(8) 0.1838(6)
C8_2 C -0.0994(12) -0.0360(11) 0.1832(20)
O3_2 O -0.33353(30) -0.5661(5) 0.20732(18)
C9B_2 C -0.2359(18) -0.0160(13) 0.0513(6)
C10B_2 C -0.3081(16) 0.0054(12) 0.0529(9)
C11B_2 C -0.2882(13) 0.0956(9) 0.0412(4)
C12B_2 C -0.1951(15) 0.1701(11) 0.0451(4)
C13B_2 C -0.1217(17) 0.1499(14) 0.0532(5)
C14B_2 C -0.1426(17) 0.0565(14) 0.0554(4)
P2B_2 P -0.3844(8) 0.1190(6) 0.02788(28)
O4B_2 O -0.4645(16) 0.0637(10) 0.0617(7)
O5B_2 O -0.4183(16) 0.0883(11) -0.0230(5)
C15B_2 C -0.0652(23) 0.0339(20) 0.0637(5)
C16B_2 C 0.0357(42) 0.1057(30) 0.0512(18)
O6B_2 O -0.3500(6) 0.2239(5) 0.03282(35)
C9_2 C 0.0160(13) -0.2199(12) 0.0513(6)
C10_2 C -0.0054(12) -0.3135(11) 0.0529(9)
C11_2 C -0.0956(9) -0.3838(9) 0.0412(4)
C12_2 C -0.1701(11) -0.3652(10) 0.0451(4)
C13_2 C -0.1499(14) -0.2716(10) 0.0532(5)
C14_2 C -0.0565(14) -0.1991(9) 0.0554(4)
P2_2 P -0.1190(6) -0.5034(6) 0.02788(28)
O4_2 O -0.0637(10) -0.5282(12) 0.0617(7)
O5_2 O -0.0883(11) -0.5066(11) -0.0230(5)
C15_2 C -0.0339(20) -0.0991(11) 0.0637(5)
C16_2 C -0.1057(30) -0.0700(30) 0.0512(18)
O6_2 O -0.2239(5) -0.5739(4) 0.03282(35)
Zr2_2 Zr 1.66667 1.33333 0.0744(4)
O1_3 O 1.68535(35) 1.4427(5) 0.11823(34)
O1B_3 O 0.75735(61) 0.31465(35) 0.11823(34)
O1B_4 O 1.75735(61) 1.31465(35) 0.11823(34)
O3B_3 O 0.76743(58) 0.33353(30) 0.20732(18)
O3C O 0.5661(5) 0.33353(30) 0.29268(18)
O3D O 0.66647(30) 0.23257(58) 0.29268(18)
O3E O 0.76743(58) 0.4339(5) 0.29268(18)
Zr1_2 Zr -0.33333 -0.66667 0.25000
Zr1_3 Zr -0.33333 0.33333 0.25000
Zr1_4 Zr 0.66667 1.33333 0.25000
Zr1_5 Zr 1.66667 1.33333 0.25000
O6_3 O 1.7761(5) 1.4261(4) 0.03282(35)
O6B_3 O 0.6500(6) 0.2239(5) 0.03282(35)
O6B_4 O 1.6500(6) 1.2239(5) 0.03282(35)
Zr2_3 Zr -0.33333 -0.66667 0.0744(4)
Zr2_4 Zr -0.33333 0.33333 0.0744(4)
Zr2_5 Zr 0.66667 1.33333 0.0744(4)
loop_
_geom_bond_atom_site_label_1
_geom_bond_atom_site_label_2
_geom_bond_site_symmetry_1
_geom_bond_site_symmetry_2
C1 C2 1_555 1_555
C2 C3 1_555 1_555
C3 C4 1_555 1_555
C4 C5 1_555 1_555
C5 C6 1_555 1_555
C6 C1 1_555 1_555
P1 C3 1_555 1_555
O1 P1 1_555 1_555
O2 P1 1_555 1_555
C7 C6 1_555 1_555
C8 C7 1_555 1_555
O3 P1 1_555 1_555
Zr1 O3 1_555 1_555
C9 C10 1_555 1_555
C10 C11 1_555 1_555
C11 C12 1_555 1_555
C12 C13 1_555 1_555
C13 C14 1_555 1_555
C14 C9 1_555 1_555
P2 C11 1_555 1_555
O4 P2 1_555 1_555
O5 P2 1_555 1_555
C15 C14 1_555 1_555
C16 C15 1_555 1_555
O6 P2 1_555 1_555
Zr2 O1 1_555 1_555
C1A C2A 1_555 1_555
C2A C3A 1_555 1_555
C3A C4A 1_555 1_555
C4A C5A 1_555 1_555
C5A C6A 1_555 1_555
C6A C1A 1_555 1_555
P1A C3A 1_555 1_555
O1A P1A 1_555 1_555
O2A P1A 1_555 1_555
C7A C6A 1_555 1_555
C8A C7 1_555 1_555
O3A P1A 1_555 1_555
C1B C2B 1_555 1_555
C2B C3B 1_555 1_555
C3B C4B 1_555 1_555
C4B C5B 1_555 1_555
C5B C6B 1_555 1_555
C6B C1B 1_555 1_555
P1B C3B 1_555 1_555
O1B P1B 1_555 1_555
O2B P1B 1_555 1_555
C7B C8 1_555 1_555
C8B C7A 1_555 1_555
O3B P1B 1_555 1_555
C9A C10A 1_555 1_555
C10A C11A 1_555 1_555
C11A C12A 1_555 1_555
C12A C13A 1_555 1_555
C13A C14A 1_555 1_555
C14A C9A 1_555 1_555
P2A C11A 1_555 1_555
O4A P2A 1_555 1_555
O5A P2A 1_555 1_555
C15A C14A 1_555 1_555
C16A C15 1_555 1_555
O6A P2A 1_555 1_555
C9B C10B 1_555 1_555
C10B C11B 1_555 1_555
C11B C12B 1_555 1_555
C12B C13B 1_555 1_555
C13B C14B 1_555 1_555
C14B C9B 1_555 1_555
P2B C11B 1_555 1_555
O4B P2B 1_555 1_555
O5B P2B 1_555 1_555
C15B C16 1_555 1_555
C16B C15A 1_555 1_555
O6B P2B 1_555 1_555
C1A_2 C2A_2 1_555 1_555
C2A_2 C3A_2 1_555 1_555
C3A_2 C4A_2 1_555 1_555
C4A_2 C5A_2 1_555 1_555
C5A_2 C6A_2 1_555 1_555
C6A_2 C1A_2 1_555 1_555
P1A_2 C3A_2 1_555 1_555
O1A_2 Zr2 1_555 1_555
O2A_2 P1A_2 1_555 1_555
C7A_2 C6A_2 1_555 1_555
C8A_2 C7A_2 1_555 1_555
O3A_2 Zr1 1_555 1_555
C9A_2 C10A_2 1_555 1_555
C10A_2 C11A_2 1_555 1_555
C11A_2 C12A_2 1_555 1_555
C12A_2 C13A_2 1_555 1_555
C13A_2 C14A_2 1_555 1_555
C14A_2 C9A_2 1_555 1_555
P2A_2 C11A_2 1_555 1_555
O4A_2 P2A_2 1_555 1_555
O5A_2 P2A_2 1_555 1_555
C15A_2 C14A_2 1_555 1_555
C16A_2 C15A_2 1_555 1_555
O6A_2 Zr2 1_555 1_555
C1B_2 C2B_2 1_555 1_555
C2B_2 C3B_2 1_555 1_555
C3B_2 C4B_2 1_555 1_555
C4B_2 C5B_2 1_555 1_555
C5B_2 C6B_2 1_555 1_555
C6B_2 C1B_2 1_555 1_555
P1B_2 C3B_2 1_555 1_555
O1B_2 P1B_2 1_555 1_555
O2B_2 P1B_2 1_555 1_555
C7B_2 C6B_2 1_555 1_555
C8B_2 C7A_2 1_555 1_555
O3B_2 P1B_2 1_555 1_555
C1_2 C2_2 1_555 1_555
C2_2 C3_2 1_555 1_555
C3_2 C4_2 1_555 1_555
C4_2 C5_2 1_555 1_555
C5_2 C6_2 1_555 1_555
C6_2 C1_2 1_555 1_555
P1_2 C3_2 1_555 1_555
O1_2 P1_2 1_555 1_555
O2_2 P1_2 1_555 1_555
C7_2 C8A_2 1_555 1_555
C8_2 C7B_2 1_555 1_555
O3_2 P1_2 1_555 1_555
C9B_2 C10B_2 1_555 1_555
C10B_2 C11B_2 1_555 1_555
C11B_2 C12B_2 1_555 1_555
C12B_2 C13B_2 1_555 1_555
C13B_2 C14B_2 1_555 1_555
C14B_2 C9B_2 1_555 1_555
P2B_2 C11B_2 1_555 1_555
O4B_2 P2B_2 1_555 1_555
O5B_2 P2B_2 1_555 1_555
C15B_2 C14B_2 1_555 1_555
C16B_2 C15A_2 1_555 1_555
O6B_2 P2B_2 1_555 1_555
C9_2 C10_2 1_555 1_555
C10_2 C11_2 1_555 1_555
C11_2 C12_2 1_555 1_555
C12_2 C13_2 1_555 1_555
C13_2 C14_2 1_555 1_555
C14_2 C9_2 1_555 1_555
P2_2 C11_2 1_555 1_555
O4_2 P2_2 1_555 1_555
O5_2 P2_2 1_555 1_555
C15_2 C16A_2 1_555 1_555
C16_2 C15B_2 1_555 1_555
O6_2 P2_2 1_555 1_555
Zr2_2 O1A 1_555 1_555
O1_3 Zr2_2 1_555 1_555
O1B_3 Zr2 1_555 1_555
O1B_4 Zr2_2 1_555 1_555
O3B_3 Zr1 1_555 1_555
O3C Zr1 1_555 1_555
O3D Zr1 1_555 1_555
O3E Zr1 1_555 1_555
Zr1_2 O3_2 1_555 1_555
Zr1_3 O3B_2 1_555 1_555
Zr1_4 O3B 1_555 1_555
Zr1_5 O3A 1_555 1_555
O6_3 Zr2_2 1_555 1_555
O6B_3 Zr2 1_555 1_555
O6B_4 Zr2_2 1_555 1_555
Zr2_3 O1_2 1_555 1_555
Zr2_4 O1B_2 1_555 1_555
Zr2_5 O1B 1_555 1_555
O6 Zr2 1_555 1_555
C7A C8A 1_555 1_555
C6B C7B 1_555 1_555
C7B C8B 1_555 1_555
C15A C16A 1_555 1_555
O6A Zr2_2 1_555 1_555
C14B C15B 1_555 1_555
C15B C16B 1_555 1_555
O6B Zr2_5 1_555 1_555
P1A_2 O1A_2 1_555 1_555
P1A_2 O3A_2 1_555 1_555
P2A_2 O6A_2 1_555 1_555
C7B_2 C8B_2 1_555 1_555
C6_2 C7_2 1_555 1_555
C7_2 C8_2 1_555 1_555
C15B_2 C16B_2 1_555 1_555
O6B_2 Zr2_4 1_555 1_555
C14_2 C15_2 1_555 1_555
C15_2 C16_2 1_555 1_555
O6_2 Zr2_3 1_555 1_555

#END
