
#######################################################################
#
#                 Cambridge Crystallographic Data Centre
#                                CCDC 
#
#######################################################################
#
# If this CIF has been generated from an entry in the Cambridge 
# Structural Database, then it will include bibliographic, chemical, 
# crystal, experimental, refinement or atomic coordinate data resulting 
# from the CCDC's data processing and validation procedures.
#
#######################################################################

data_COCPOZ
_symmetry_cell_setting           monoclinic
_symmetry_space_group_name_H-M   'C 2/c'
_symmetry_Int_Tables_number      15
_space_group_name_Hall           '-C 2yn'
loop_
_symmetry_equiv_pos_site_id
_symmetry_equiv_pos_as_xyz
1 x,y,z
2 1/2+x,1/2+y,z
3 -x,y,1/2-z
4 1/2-x,1/2+y,1/2-z
5 -x,-y,-z
6 1/2-x,1/2-y,-z
7 x,-y,1/2+z
8 1/2+x,1/2-y,1/2+z
_cell_length_a                   27.23(2)
_cell_length_b                   6.094(1)
_cell_length_c                   7.736(3)
_cell_angle_alpha                90
_cell_angle_beta                 97.20(3)
_cell_angle_gamma                90
_cell_volume                     1273.59
loop_
_atom_site_label
_atom_site_type_symbol
_atom_site_fract_x
_atom_site_fract_y
_atom_site_fract_z
Ba1 Ba 0.0000 0.17052(6) -0.7500
O1 O 0.0590(1) -0.0193(6) -0.4832(4)
O2 O 0.0344(2) 0.3845(8) -0.3929(6)
O3 O 0.0890(2) 0.5648(6) -0.2308(5)
N1 N 0.0780(2) 0.4099(7) -0.3292(5)
C1 C 0.1033(2) 0.0541(7) -0.4417(5)
C2 C 0.1155(2) 0.2648(8) -0.3693(6)
C3 C 0.1647(2) 0.3402(9) -0.3303(7)
C4 C 0.2026(2) 0.2095(10) -0.3627(7)
C5 C 0.1923(3) -0.0017(11) -0.4292(6)
C6 C 0.1451(2) -0.0769(9) -0.4635(6)
H1 H 0.170(2) 0.51(1) -0.312(8)
H2 H 0.235(2) 0.28(1) -0.336(8)
H3 H 0.222(3) -0.09(1) -0.442(8)
H4 H 0.138(2) -0.22(1) -0.488(8)
O2D O -0.0344(2) 0.6155(8) -0.6071(6)
Ba1_2 Ba 0.0000 1.17052(6) -0.7500
Ba1D Ba 0.0000 0.82948(6) -0.2500
Ba1D_2 Ba 0.0000 -0.17052(6) -0.2500
O1B O -0.0590(1) -0.0193(6) -1.0168(4)
O1D O -0.0590(1) 0.0193(6) -0.5168(4)
O1F O 0.0590(1) 0.0193(6) -0.9832(4)
O2B O -0.0344(2) 0.3845(8) -1.1071(6)
O2F O 0.0344(2) 0.6155(8) -0.8929(6)
O3D O -0.0890(2) 0.4352(6) -0.7692(5)
O3F O 0.0890(2) 0.4352(6) -0.7308(5)
N1F N 0.0780(2) 0.5901(7) -0.8292(5)
Ba1D_3 Ba 0.0000 0.82948(6) -1.2500
C2F C 0.1155(2) 0.7352(8) -0.8693(6)
C1F C 0.1033(2) 0.9459(7) -0.9417(5)
C3F C 0.1647(2) 0.6598(9) -0.8303(7)
O1F_2 O 0.0590(1) 1.0193(6) -0.9832(4)
C6F C 0.1451(2) 1.0769(9) -0.9635(6)
C4F C 0.2026(2) 0.7905(10) -0.8627(7)
H1F H 0.170(2) 0.49(1) -0.812(8)
C5F C 0.1923(3) 1.0017(11) -0.9292(6)
H4F H 0.138(2) 1.22(1) -0.988(8)
H2F H 0.235(2) 0.72(1) -0.836(8)
H3F H 0.222(3) 1.09(1) -0.942(8)
loop_
_geom_bond_atom_site_label_1
_geom_bond_atom_site_label_2
_geom_bond_site_symmetry_1
_geom_bond_site_symmetry_2
Ba1 O1 1_555 1_555
O1 C1 1_555 1_555
O2 Ba1 1_555 1_555
O3 N1 1_555 1_555
N1 O2 1_555 1_555
C1 C2 1_555 1_555
C2 N1 1_555 1_555
C3 C2 1_555 1_555
C4 C3 1_555 1_555
C5 C4 1_555 1_555
C6 C1 1_555 1_555
H1 C3 1_555 1_555
H2 C4 1_555 1_555
H3 C5 1_555 1_555
H4 C6 1_555 1_555
O2D Ba1 1_555 1_555
Ba1_2 O1F_2 1_555 1_555
Ba1D O2 1_555 1_555
Ba1D_2 O1 1_555 1_555
O1B Ba1 1_555 1_555
O1D Ba1 1_555 1_555
O1F Ba1 1_555 1_555
O2B Ba1 1_555 1_555
O2F Ba1 1_555 1_555
O3D Ba1 1_555 1_555
O3F Ba1 1_555 1_555
N1F O2F 1_555 1_555
Ba1D_3 O2B 1_555 1_555
C2F N1F 1_555 1_555
C1F C2F 1_555 1_555
C3F C2F 1_555 1_555
O1F_2 Ba1D_3 1_555 1_555
C6F C1F 1_555 1_555
C4F C3F 1_555 1_555
H1F C3F 1_555 1_555
C5F C6F 1_555 1_555
H4F C6F 1_555 1_555
H2F C4F 1_555 1_555
H3F C5F 1_555 1_555
O3 Ba1D 1_555 1_555
C5 C6 1_555 1_555
O2D Ba1D 1_555 1_555
Ba1D_2 O1D 1_555 1_555
O2F Ba1D_3 1_555 1_555
O3F N1F 1_555 1_555
C1F O1F_2 1_555 1_555
C4F C5F 1_555 1_555

#END
