
#######################################################################
#
#                 Cambridge Crystallographic Data Centre
#                                CCDC 
#
#######################################################################
#
# If this CIF has been generated from an entry in the Cambridge 
# Structural Database, then it will include bibliographic, chemical, 
# crystal, experimental, refinement or atomic coordinate data resulting 
# from the CCDC's data processing and validation procedures.
#
#######################################################################

data_COCTOE
_symmetry_cell_setting           monoclinic
_symmetry_space_group_name_H-M   'P 21/n'
_symmetry_Int_Tables_number      14
_space_group_name_Hall           '-P 2yn'
loop_
_symmetry_equiv_pos_site_id
_symmetry_equiv_pos_as_xyz
1 x,y,z
2 1/2-x,1/2+y,1/2-z
3 -x,-y,-z
4 1/2+x,1/2-y,1/2+z
_cell_length_a                   9.152(3)
_cell_length_b                   15.389(5)
_cell_length_c                   19.910(7)
_cell_angle_alpha                90
_cell_angle_beta                 92.134(7)
_cell_angle_gamma                90
_cell_volume                     2802.18
loop_
_atom_site_label
_atom_site_type_symbol
_atom_site_fract_x
_atom_site_fract_y
_atom_site_fract_z
Zn1 Zn 0.95734(3) 0.262231(15) 0.174087(11)
C1 C 1.1982(2) 0.41968(13) 0.31086(10)
C2 C 1.2759(2) 0.49738(13) 0.31339(10)
H1 H 1.2750 0.5338 0.2761
C3 C 1.3549(2) 0.52046(14) 0.37172(10)
C4 C 1.3553(3) 0.46573(15) 0.42714(10)
H2 H 1.4077 0.4812 0.4662
C5 C 1.2782(3) 0.38829(14) 0.42465(10)
C6 C 1.1983(2) 0.36608(14) 0.36687(10)
H3 H 1.1443 0.3149 0.3656
C7 C 1.1166(2) 0.39213(14) 0.24695(10)
C8 C 1.4444(3) 0.60204(14) 0.37459(11)
C9 C 0.6657(3) 0.24465(14) 0.24255(11)
C10 C 0.6548(3) 0.19320(19) 0.14140(13)
H4 H 0.6816 0.1762 0.0988
C11 C 0.5198(3) 0.1860(2) 0.16500(12)
H5 H 0.4378 0.1632 0.1424
C12 C 0.7192(3) 0.28003(18) 0.30766(12)
C13 C 0.6625(3) 0.3555(2) 0.33363(16)
H6 H 0.5893 0.3851 0.3094
C14 C 0.7127(5) 0.3879(3) 0.3950(2)
H7 H 0.6753 0.4397 0.4112
C15 C 0.8156(5) 0.3446(4) 0.4314(2)
H8 H 0.8488 0.3666 0.4726
C16 C 0.8719(4) 0.2684(3) 0.40828(18)
H9 H 0.9417 0.2382 0.4341
C17 C 0.8236(3) 0.2360(2) 0.34503(14)
H10 H 0.8627 0.1847 0.3287
C18 C 0.3825(2) 0.13084(13) 0.54835(10)
C19 C 0.5754(3) 0.14720(18) 0.48765(11)
H11 H 0.6408 0.1439 0.4531
C20 C 0.5967(3) 0.18904(17) 0.54642(11)
H12 H 0.6803 0.2201 0.5592
C21 C 0.2410(3) 0.10170(14) 0.57267(11)
C22 C 0.1119(3) 0.1186(2) 0.53754(16)
H13 H 0.1136 0.1451 0.4956
C23 C -0.0202(4) 0.0963(3) 0.5641(2)
H14 H -0.1067 0.1079 0.5397
C24 C -0.0252(4) 0.0583(3) 0.6243(2)
H15 H -0.1151 0.0458 0.6424
C25 C 0.1031(5) 0.0373(2) 0.65984(18)
H16 H 0.0992 0.0086 0.7009
C26 C 0.2386(3) 0.05921(17) 0.63408(13)
H17 H 0.3252 0.0456 0.6577
C27 C 0.3650(3) 0.06384(15) 0.43218(10)
H18 H 0.2793 0.0345 0.4484
H19 H 0.4302 0.0200 0.4152
C28 C 0.3185(2) 0.12561(16) 0.37491(10)
H20 H 0.2359 0.1006 0.3498
H21 H 0.2869 0.1802 0.3939
C29 C 0.4400(3) 0.14297(17) 0.32757(12)
H22 H 0.4616 0.0895 0.3041
H23 H 0.5271 0.1593 0.3539
C30 C 0.4077(3) 0.21314(17) 0.27604(12)
H24 H 0.3166 0.2002 0.2516
H25 H 0.3968 0.2686 0.2985
N1 N 0.7480(2) 0.22962(12) 0.18973(9)
N2 N 0.5269(2) 0.21868(13) 0.22875(9)
N3 N 0.43932(19) 0.11032(12) 0.48833(8)
N4 N 0.47664(19) 0.17904(11) 0.58463(8)
O1 O 1.04847(18) 0.32069(10) 0.25031(7)
O2 O 1.1238(3) 0.43718(12) 0.19639(9)
O3 O 1.41888(18) 0.65765(10) 0.32793(8)
O4 O 1.5382(2) 0.61162(11) 0.42050(8)
O5 O 1.2795(2) 0.33118(11) 0.47755(8)
H26 H 1.3300 0.3510 0.5088
Zn1C Zn 0.45734(3) 0.237769(15) 0.674087(11)
Zn1A Zn 1.54266(3) 0.762231(15) 0.325913(11)
N4C N 0.97664(19) 0.32096(11) 0.08463(8)
O3A O 1.08112(18) 0.15765(10) 0.17207(8)
loop_
_geom_bond_atom_site_label_1
_geom_bond_atom_site_label_2
_geom_bond_site_symmetry_1
_geom_bond_site_symmetry_2
Zn1 N1 1_555 1_555
C1 C2 1_555 1_555
C2 H1 1_555 1_555
C3 C2 1_555 1_555
C4 C3 1_555 1_555
H2 C4 1_555 1_555
C5 C4 1_555 1_555
C6 C1 1_555 1_555
H3 C6 1_555 1_555
C7 C1 1_555 1_555
C8 C3 1_555 1_555
C9 C12 1_555 1_555
C10 H4 1_555 1_555
C11 C10 1_555 1_555
H5 C11 1_555 1_555
C12 C13 1_555 1_555
C13 H6 1_555 1_555
C14 C13 1_555 1_555
H7 C14 1_555 1_555
C15 C14 1_555 1_555
H8 C15 1_555 1_555
C16 C15 1_555 1_555
H9 C16 1_555 1_555
C17 C12 1_555 1_555
H10 C17 1_555 1_555
C18 C21 1_555 1_555
C19 H11 1_555 1_555
C20 C19 1_555 1_555
H12 C20 1_555 1_555
C21 C22 1_555 1_555
C22 H13 1_555 1_555
C23 C22 1_555 1_555
H14 C23 1_555 1_555
C24 C23 1_555 1_555
H15 C24 1_555 1_555
C25 C24 1_555 1_555
H16 C25 1_555 1_555
C26 C21 1_555 1_555
H17 C26 1_555 1_555
C27 H18 1_555 1_555
H19 C27 1_555 1_555
C28 C27 1_555 1_555
H20 C28 1_555 1_555
H21 C28 1_555 1_555
C29 C28 1_555 1_555
H22 C29 1_555 1_555
H23 C29 1_555 1_555
C30 C29 1_555 1_555
H24 C30 1_555 1_555
H25 C30 1_555 1_555
N1 C9 1_555 1_555
N2 C9 1_555 1_555
N3 C18 1_555 1_555
N4 C18 1_555 1_555
O1 Zn1 1_555 1_555
O2 C7 1_555 1_555
O3 C8 1_555 1_555
O4 C8 1_555 1_555
O5 C5 1_555 1_555
H26 O5 1_555 1_555
Zn1C N4 1_555 1_555
Zn1A O3 1_555 1_555
N4C Zn1 1_555 1_555
O3A Zn1 1_555 1_555
C5 C6 1_555 1_555
C7 O1 1_555 1_555
C10 N1 1_555 1_555
C11 N2 1_555 1_555
C16 C17 1_555 1_555
C19 N3 1_555 1_555
C20 N4 1_555 1_555
C25 C26 1_555 1_555
C27 N3 1_555 1_555
C30 N2 1_555 1_555

#END
