
#######################################################################
#
#                 Cambridge Crystallographic Data Centre
#                                CCDC 
#
#######################################################################
#
# If this CIF has been generated from an entry in the Cambridge 
# Structural Database, then it will include bibliographic, chemical, 
# crystal, experimental, refinement or atomic coordinate data resulting 
# from the CCDC's data processing and validation procedures.
#
#######################################################################

data_COCTUK
_symmetry_cell_setting           orthorhombic
_symmetry_space_group_name_H-M   'P 21 21 21'
_symmetry_Int_Tables_number      19
_space_group_name_Hall           'P 2ac 2ab'
loop_
_symmetry_equiv_pos_site_id
_symmetry_equiv_pos_as_xyz
1 x,y,z
2 1/2-x,-y,1/2+z
3 1/2+x,1/2-y,-z
4 -x,1/2+y,1/2-z
_cell_length_a                   10.121(6)
_cell_length_b                   15.470(9)
_cell_length_c                   17.597(1)
_cell_angle_alpha                90
_cell_angle_beta                 90
_cell_angle_gamma                90
_cell_volume                     2755.2
loop_
_atom_site_label
_atom_site_type_symbol
_atom_site_fract_x
_atom_site_fract_y
_atom_site_fract_z
Cd1 Cd 0.69444(5) 0.05247(3) -0.21193(3)
C1 C 0.8883(6) -0.1331(4) -0.3441(4)
C2 C 0.9782(6) -0.1919(4) -0.3157(4)
H1 H 0.9966 -0.1923 -0.2640
C3 C 1.0419(6) -0.2504(4) -0.3632(4)
C4 C 1.0156(7) -0.2485(4) -0.4415(4)
H2 H 1.0594 -0.2860 -0.4742
C5 C 0.9243(7) -0.1906(4) -0.4695(4)
C6 C 0.8600(7) -0.1335(4) -0.4224(4)
H3 H 0.7980 -0.0953 -0.4422
C7 C 0.8225(7) -0.0695(4) -0.2937(4)
C8 C 1.1313(7) -0.3180(5) -0.3307(5)
C9 C 0.5127(7) -0.0387(5) -0.0695(4)
C10 C 0.7236(6) -0.0490(5) -0.0590(4)
H4 H 0.8133 -0.0459 -0.0700
C11 C 0.6722(8) -0.0793(4) 0.0059(5)
H5 H 0.7186 -0.1003 0.0476
C12 C 0.3797(8) -0.0186(6) -0.1007(4)
C13 C 0.3417(7) 0.0655(6) -0.1138(4)
H6 H 0.3994 0.1100 -0.1012
C14 C 0.2204(9) 0.0856(7) -0.1451(5)
H7 H 0.1985 0.1427 -0.1559
C15 C 0.1343(10) 0.0214(9) -0.1598(5)
H8 H 0.0518 0.0348 -0.1798
C16 C 0.1650(8) -0.0624(9) -0.1461(5)
H9 H 0.1040 -0.1057 -0.1567
C17 C 0.2896(9) -0.0840(6) -0.1156(5)
H10 H 0.3110 -0.1413 -0.1057
C18 C 0.0409(7) -0.1320(5) 0.1868(4)
C19 C -0.0228(9) -0.2265(5) 0.2664(5)
H11 H -0.0654 -0.2519 0.3076
C20 C 0.0630(8) -0.2687(5) 0.2197(5)
H12 H 0.0885 -0.3264 0.2220
C21 C 0.0683(6) -0.0498(5) 0.1457(4)
C22 C 0.0219(8) -0.0364(6) 0.0742(5)
H13 H -0.0326 -0.0773 0.0514
C23 C 0.0556(11) 0.0378(7) 0.0357(5)
H14 H 0.0217 0.0477 -0.0127
C24 C 0.1364(10) 0.0956(6) 0.0671(6)
H15 H 0.1589 0.1450 0.0398
C25 C 0.1867(12) 0.0843(5) 0.1380(6)
H16 H 0.2448 0.1242 0.1590
C26 C 0.1483(9) 0.0112(5) 0.1777(5)
H17 H 0.1777 0.0035 0.2274
C27 C 0.2048(9) -0.2162(5) 0.1092(5)
H18 H 0.1960 -0.2725 0.0856
H19 H 0.1915 -0.1726 0.0703
C28 C 0.3378(8) -0.2074(8) 0.1408(6)
H20 H 0.3611 -0.2606 0.1666
H21 H 0.3374 -0.1615 0.1783
C29 C 0.4428(10) -0.1876(7) 0.0814(6)
H22 H 0.4268 -0.2223 0.0364
H23 H 0.5291 -0.2029 0.1013
C30 C 0.4415(8) -0.0920(6) 0.0600(5)
H24 H 0.3535 -0.0759 0.0434
H25 H 0.4632 -0.0576 0.1044
N1 N 0.6237(5) -0.0230(4) -0.1069(3)
N2 N 0.5373(6) -0.0732(4) -0.0014(4)
N3 N 0.1037(7) -0.2066(4) 0.1681(4)
N4 N -0.0383(6) -0.1418(4) 0.2450(3)
O1 O 0.7432(5) -0.0160(3) -0.3219(3)
O2 O 0.8464(5) -0.0703(3) -0.2251(3)
O3 O 1.1424(5) -0.3284(4) -0.2613(3)
O4 O 1.1951(5) -0.3666(3) -0.3771(2)
O5 O 0.9032(5) -0.1932(3) -0.5467(3)
H26 H 0.8259 -0.1812 -0.5558
Cd1A Cd -0.19444(5) -0.05247(3) 0.28807(3)
Cd1C Cd 1.30556(5) -0.44753(3) -0.28807(3)
N4A N 0.5383(6) 0.1418(4) -0.2550(3)
O3C O 0.8576(5) 0.1716(4) -0.2387(3)
O4C O 0.8049(5) 0.1334(3) -0.1229(2)
loop_
_geom_bond_atom_site_label_1
_geom_bond_atom_site_label_2
_geom_bond_site_symmetry_1
_geom_bond_site_symmetry_2
Cd1 N1 1_555 1_555
C1 C2 1_555 1_555
C2 H1 1_555 1_555
C3 C2 1_555 1_555
C4 C3 1_555 1_555
H2 C4 1_555 1_555
C5 C4 1_555 1_555
C6 C1 1_555 1_555
H3 C6 1_555 1_555
C7 C1 1_555 1_555
C8 C3 1_555 1_555
C9 C12 1_555 1_555
C10 H4 1_555 1_555
C11 C10 1_555 1_555
H5 C11 1_555 1_555
C12 C13 1_555 1_555
C13 H6 1_555 1_555
C14 C13 1_555 1_555
H7 C14 1_555 1_555
C15 C14 1_555 1_555
H8 C15 1_555 1_555
C16 C15 1_555 1_555
H9 C16 1_555 1_555
C17 C12 1_555 1_555
H10 C17 1_555 1_555
C18 C21 1_555 1_555
C19 H11 1_555 1_555
C20 C19 1_555 1_555
H12 C20 1_555 1_555
C21 C22 1_555 1_555
C22 H13 1_555 1_555
C23 C22 1_555 1_555
H14 C23 1_555 1_555
C24 C23 1_555 1_555
H15 C24 1_555 1_555
C25 C24 1_555 1_555
H16 C25 1_555 1_555
C26 C21 1_555 1_555
H17 C26 1_555 1_555
C27 H18 1_555 1_555
H19 C27 1_555 1_555
C28 C27 1_555 1_555
H20 C28 1_555 1_555
H21 C28 1_555 1_555
C29 C28 1_555 1_555
H22 C29 1_555 1_555
H23 C29 1_555 1_555
C30 C29 1_555 1_555
H24 C30 1_555 1_555
H25 C30 1_555 1_555
N1 C9 1_555 1_555
N2 C9 1_555 1_555
N3 C18 1_555 1_555
N4 C18 1_555 1_555
O1 Cd1 1_555 1_555
O2 Cd1 1_555 1_555
O3 C8 1_555 1_555
O4 C8 1_555 1_555
O5 C5 1_555 1_555
H26 O5 1_555 1_555
Cd1A N4 1_555 1_555
Cd1C O3 1_555 1_555
N4A Cd1 1_555 1_555
O3C Cd1 1_555 1_555
O4C Cd1 1_555 1_555
C5 C6 1_555 1_555
C7 O1 1_555 1_555
C7 O2 1_555 1_555
C10 N1 1_555 1_555
C11 N2 1_555 1_555
C16 C17 1_555 1_555
C19 N4 1_555 1_555
C20 N3 1_555 1_555
C25 C26 1_555 1_555
C27 N3 1_555 1_555
C30 N2 1_555 1_555
O4 Cd1C 1_555 1_555

#END
