
#######################################################################
#
#                 Cambridge Crystallographic Data Centre
#                                CCDC 
#
#######################################################################
#
# If this CIF has been generated from an entry in the Cambridge 
# Structural Database, then it will include bibliographic, chemical, 
# crystal, experimental, refinement or atomic coordinate data resulting 
# from the CCDC's data processing and validation procedures.
#
#######################################################################

data_COCTIY
_symmetry_cell_setting           orthorhombic
_symmetry_space_group_name_H-M   'P 21 21 21'
_symmetry_Int_Tables_number      19
_space_group_name_Hall           'P 2ac 2ab'
loop_
_symmetry_equiv_pos_site_id
_symmetry_equiv_pos_as_xyz
1 x,y,z
2 1/2-x,-y,1/2+z
3 1/2+x,1/2-y,-z
4 -x,1/2+y,1/2-z
_cell_length_a                   10.3356(3)
_cell_length_b                   15.3573(3)
_cell_length_c                   17.2719(6)
_cell_angle_alpha                90
_cell_angle_beta                 90
_cell_angle_gamma                90
_cell_volume                     2741.52
loop_
_atom_site_label
_atom_site_type_symbol
_atom_site_fract_x
_atom_site_fract_y
_atom_site_fract_z
Cd1 Cd 0.69187(3) 0.93430(2) 0.20665(2)
C1 C 0.4543(5) 0.8659(3) 0.3145(4)
C2 C 0.5229(7) 0.7614(4) 0.2408(5)
H1 H 0.5680 0.7311 0.2028
C3 C 0.4328(6) 0.7259(4) 0.2904(5)
H2 H 0.4059 0.6681 0.2919
C4 C 0.4298(4) 0.9505(3) 0.3517(3)
C5 C 0.4864(7) 0.9733(4) 0.4179(4)
H3 H 0.5465 0.9358 0.4401
C6 C 0.4594(8) 1.0489(5) 0.4535(4)
H4 H 0.5044 1.0644 0.4980
C7 C 0.3663(7) 1.1032(4) 0.4248(5)
H5 H 0.3436 1.1538 0.4511
C8 C 0.3079(8) 1.0819(4) 0.3575(5)
H6 H 0.2453 1.1187 0.3369
C9 C 0.3397(6) 1.0068(4) 0.3192(4)
H7 H 0.3014 0.9937 0.2719
C10 C -0.0109(5) 0.9711(4) 0.5656(4)
C11 C -0.2187(5) 0.9553(3) 0.5559(4)
H8 H -0.3065 0.9575 0.5673
C12 C -0.1676(6) 0.9204(3) 0.4912(4)
H9 H -0.2123 0.8948 0.4504
C13 C 0.1202(5) 0.9968(4) 0.5937(4)
C14 C 0.1506(6) 1.0831(5) 0.6107(4)
H10 H 0.0883 1.1258 0.6029
C15 C 0.2687(6) 1.1067(6) 0.6385(4)
H11 H 0.2879 1.1648 0.6480
C16 C 0.3590(7) 1.0427(7) 0.6520(4)
H12 H 0.4395 1.0579 0.6720
C17 C 0.3325(7) 0.9580(7) 0.6368(4)
H13 H 0.3952 0.9157 0.6459
C18 C 0.2122(6) 0.9337(6) 0.6076(4)
H14 H 0.1942 0.8755 0.5975
C19 C 0.2933(7) 0.7876(4) 0.3978(4)
H15 H 0.3005 0.8378 0.4316
H16 H 0.3075 0.7357 0.4286
C20 C 0.1625(6) 0.7849(5) 0.3635(5)
H17 H 0.1456 0.7272 0.3431
H18 H 0.1569 0.8262 0.3212
C21 C 0.0620(7) 0.8073(5) 0.4254(5)
H19 H 0.0849 0.7794 0.4738
H20 H -0.0223 0.7859 0.4096
C22 C 0.0561(7) 0.9073(4) 0.4369(4)
H21 H 0.1411 0.9288 0.4511
H22 H 0.0310 0.9350 0.3887
C23 C 0.9570(4) 0.7396(3) 0.1388(3)
C24 C 1.0186(4) 0.6819(3) 0.1891(3)
H23 H 0.9964 0.6814 0.2413
C25 C 1.1126(4) 0.6253(3) 0.1619(3)
C26 C 1.1467(5) 0.6281(3) 0.0859(3)
H24 H 1.2131 0.5923 0.0684
C27 C 1.0856(5) 0.6824(3) 0.0341(3)
H25 H 1.1079 0.6817 -0.0181
C28 C 0.9899(5) 0.7386(3) 0.0612(3)
H26 H 0.9478 0.7757 0.0269
C29 C 0.8613(5) 0.8036(3) 0.1688(3)
C30 C 1.1762(4) 0.5613(3) 0.2163(3)
N1 N 0.5355(4) 0.8499(3) 0.2565(3)
N2 N 0.3905(5) 0.7929(3) 0.3374(4)
N3 N -0.1228(4) 0.9870(3) 0.6023(3)
N4 N -0.0373(4) 0.9301(3) 0.4977(3)
O1 O 0.8510(4) 0.8158(3) 0.2401(3)
O2 O 0.7961(4) 0.8461(2) 0.1215(2)
O3 O 1.1413(3) 0.5580(3) 0.2851(2)
O4 O 1.2610(4) 0.5128(3) 0.1885(2)
Cd1A Cd -0.19187(3) 1.06570(2) 0.70665(2)
Cd1C Cd 1.30813(3) 0.43430(2) 0.29335(2)
N3A N 0.6228(4) 1.0130(3) 0.1023(3)
O3C O 0.8587(3) 1.0580(3) 0.2149(2)
O4C O 0.7390(4) 1.0128(3) 0.3115(2)
loop_
_geom_bond_atom_site_label_1
_geom_bond_atom_site_label_2
_geom_bond_site_symmetry_1
_geom_bond_site_symmetry_2
Cd1 N1 1_555 1_555
C1 C4 1_555 1_555
C2 H1 1_555 1_555
C3 C2 1_555 1_555
H2 C3 1_555 1_555
C4 C5 1_555 1_555
C5 H3 1_555 1_555
C6 C5 1_555 1_555
H4 C6 1_555 1_555
C7 C6 1_555 1_555
H5 C7 1_555 1_555
C8 C7 1_555 1_555
H6 C8 1_555 1_555
C9 C4 1_555 1_555
H7 C9 1_555 1_555
C10 C13 1_555 1_555
C11 H8 1_555 1_555
C12 C11 1_555 1_555
H9 C12 1_555 1_555
C13 C14 1_555 1_555
C14 H10 1_555 1_555
C15 C14 1_555 1_555
H11 C15 1_555 1_555
C16 C15 1_555 1_555
H12 C16 1_555 1_555
C17 C16 1_555 1_555
H13 C17 1_555 1_555
C18 C13 1_555 1_555
H14 C18 1_555 1_555
C19 H15 1_555 1_555
H16 C19 1_555 1_555
C20 C19 1_555 1_555
H17 C20 1_555 1_555
H18 C20 1_555 1_555
C21 C20 1_555 1_555
H19 C21 1_555 1_555
H20 C21 1_555 1_555
C22 C21 1_555 1_555
H21 C22 1_555 1_555
H22 C22 1_555 1_555
C23 C24 1_555 1_555
C24 H23 1_555 1_555
C25 C24 1_555 1_555
C26 C25 1_555 1_555
H24 C26 1_555 1_555
C27 C26 1_555 1_555
H25 C27 1_555 1_555
C28 C23 1_555 1_555
H26 C28 1_555 1_555
C29 C23 1_555 1_555
C30 C25 1_555 1_555
N1 C1 1_555 1_555
N2 C1 1_555 1_555
N3 C10 1_555 1_555
N4 C10 1_555 1_555
O1 Cd1 1_555 1_555
O2 Cd1 1_555 1_555
O3 C30 1_555 1_555
O4 C30 1_555 1_555
Cd1A N3 1_555 1_555
Cd1C O3 1_555 1_555
N3A Cd1 1_555 1_555
O3C Cd1 1_555 1_555
O4C Cd1 1_555 1_555
C2 N1 1_555 1_555
C3 N2 1_555 1_555
C8 C9 1_555 1_555
C11 N3 1_555 1_555
C12 N4 1_555 1_555
C17 C18 1_555 1_555
C19 N2 1_555 1_555
C22 N4 1_555 1_555
C27 C28 1_555 1_555
C29 O1 1_555 1_555
C29 O2 1_555 1_555
O4 Cd1C 1_555 1_555

#END
