
#######################################################################
#
#                 Cambridge Crystallographic Data Centre
#                                CCDC 
#
#######################################################################
#
# If this CIF has been generated from an entry in the Cambridge 
# Structural Database, then it will include bibliographic, chemical, 
# crystal, experimental, refinement or atomic coordinate data resulting 
# from the CCDC's data processing and validation procedures.
#
#######################################################################

data_COCTAQ
_symmetry_cell_setting           triclinic
_symmetry_space_group_name_H-M   'P -1'
_symmetry_Int_Tables_number      2
_space_group_name_Hall           '-P 1'
loop_
_symmetry_equiv_pos_site_id
_symmetry_equiv_pos_as_xyz
1 x,y,z
2 -x,-y,-z
_cell_length_a                   10.049(5)
_cell_length_b                   12.328(7)
_cell_length_c                   12.493(7)
_cell_angle_alpha                61.25(2)
_cell_angle_beta                 85.985(19)
_cell_angle_gamma                88.86(2)
_cell_volume                     1353.4
loop_
_atom_site_label
_atom_site_type_symbol
_atom_site_fract_x
_atom_site_fract_y
_atom_site_fract_z
Zn1 Zn 0.68216(4) 0.29246(3) 0.00419(4)
C1 C 0.9529(3) 0.2957(3) 0.0974(3)
C2 C 1.0819(4) 0.4117(3) -0.0670(3)
H1 H 1.1545 0.4564 -0.1193
C3 C 0.9619(4) 0.3951(3) -0.0998(4)
H2 H 0.9376 0.4273 -0.1798
C4 C 0.9084(4) 0.2148(3) 0.2262(4)
C5 C 0.9100(5) 0.2528(4) 0.3140(4)
H3 H 0.9378 0.3328 0.2917
C6 C 0.8705(6) 0.1724(6) 0.4342(5)
H4 H 0.8707 0.1980 0.4931
C7 C 0.8308(6) 0.0536(6) 0.4664(5)
H5 H 0.8054 -0.0011 0.5478
C8 C 0.8279(5) 0.0150(5) 0.3818(5)
H6 H 0.7993 -0.0649 0.4047
C9 C 0.8677(4) 0.0951(4) 0.2615(4)
H7 H 0.8673 0.0683 0.2035
C10 C 1.2476(4) -0.0853(3) 0.0569(4)
C11 C 1.3789(4) -0.0178(3) -0.1076(4)
H8 H 1.4359 -0.0162 -0.1703
C12 C 1.3427(4) 0.0824(3) -0.0957(4)
H9 H 1.3695 0.1641 -0.1476
C13 C 1.1666(4) -0.1662(3) 0.1697(4)
C14 C 1.0310(5) -0.1527(4) 0.1802(4)
H10 H 0.9896 -0.0897 0.1151
C15 C 0.9556(6) -0.2297(5) 0.2843(5)
H11 H 0.8641 -0.2189 0.2904
C16 C 1.0169(7) -0.3229(5) 0.3795(5)
H12 H 0.9660 -0.3763 0.4501
C17 C 1.1506(7) -0.3386(5) 0.3725(5)
H13 H 1.1909 -0.4018 0.4383
C18 C 1.2271(5) -0.2600(4) 0.2670(4)
H14 H 1.3188 -0.2704 0.2618
C19 C 1.1899(4) 0.3369(3) 0.1315(4)
H15 H 1.1636 0.3645 0.1906
H16 H 1.2622 0.3907 0.0777
C20 C 1.2400(4) 0.2066(4) 0.1984(4)
H17 H 1.1664 0.1534 0.2502
H18 H 1.3070 0.2044 0.2516
C21 C 1.2998(4) 0.1522(4) 0.1196(5)
H19 H 1.3617 0.2124 0.0569
H20 H 1.3504 0.0798 0.1704
C22 C 1.1996(4) 0.1161(4) 0.0587(5)
H21 H 1.1266 0.0705 0.1179
H22 H 1.1635 0.1901 -0.0064
C23 C 0.5275(4) 0.5769(3) -0.3157(3)
C24 C 0.4792(3) 0.6758(3) -0.2997(3)
C25 C 0.4789(4) 0.7923(3) -0.4011(4)
H23 H 0.4490 0.8590 -0.3911
C26 C 0.5220(5) 0.8120(4) -0.5164(4)
H24 H 0.5208 0.8910 -0.5833
C27 C 0.5667(5) 0.7135(5) -0.5315(4)
H25 H 0.5943 0.7256 -0.6091
C28 C 0.5707(5) 0.5973(4) -0.4320(4)
H26 H 0.6028 0.5317 -0.4428
C29 C 0.5401(4) 0.4475(3) -0.2104(3)
C30 C 0.4176(3) 0.6550(3) -0.1788(3)
N1 N 0.8813(3) 0.3232(2) 0.0033(3)
N2 N 1.0758(3) 0.3496(2) 0.0584(3)
N3 N 1.2590(3) 0.0394(3) 0.0077(3)
N4 N 1.3188(3) -0.1222(3) -0.0131(3)
O1 O 0.6355(3) 0.4352(2) -0.1445(2)
O2 O 0.4661(3) 0.3640(2) -0.2001(3)
O3 O 0.4218(3) 0.7466(2) -0.1569(3)
O4 O 0.3604(3) 0.5562(2) -0.1095(3)
Zn1A Zn 1.31784(4) -0.29246(3) -0.00419(4)
Zn1A_2 Zn 0.31784(4) 0.70754(3) -0.00419(4)
N4A N 0.6812(3) 0.1222(3) 0.0131(3)
O3A O 0.5782(3) 0.2534(2) 0.1569(3)
O5 O 0.2429(5) 0.4736(7) -0.3398(5)
H27 H 0.305(8) 0.428(8) -0.275(6)
H28 H 0.311(8) 0.527(8) -0.399(6)
loop_
_geom_bond_atom_site_label_1
_geom_bond_atom_site_label_2
_geom_bond_site_symmetry_1
_geom_bond_site_symmetry_2
Zn1 N1 1_555 1_555
C1 C4 1_555 1_555
C2 H1 1_555 1_555
C3 C2 1_555 1_555
H2 C3 1_555 1_555
C4 C5 1_555 1_555
C5 H3 1_555 1_555
C6 C5 1_555 1_555
H4 C6 1_555 1_555
C7 C6 1_555 1_555
H5 C7 1_555 1_555
C8 C7 1_555 1_555
H6 C8 1_555 1_555
C9 C4 1_555 1_555
H7 C9 1_555 1_555
C10 C13 1_555 1_555
C11 H8 1_555 1_555
C12 C11 1_555 1_555
H9 C12 1_555 1_555
C13 C14 1_555 1_555
C14 H10 1_555 1_555
C15 C14 1_555 1_555
H11 C15 1_555 1_555
C16 C15 1_555 1_555
H12 C16 1_555 1_555
C17 C16 1_555 1_555
H13 C17 1_555 1_555
C18 C13 1_555 1_555
H14 C18 1_555 1_555
C19 H15 1_555 1_555
H16 C19 1_555 1_555
C20 C19 1_555 1_555
H17 C20 1_555 1_555
H18 C20 1_555 1_555
C21 C20 1_555 1_555
H19 C21 1_555 1_555
H20 C21 1_555 1_555
C22 C21 1_555 1_555
H21 C22 1_555 1_555
H22 C22 1_555 1_555
C23 C24 1_555 1_555
C24 C25 1_555 1_555
C25 H23 1_555 1_555
C26 C25 1_555 1_555
H24 C26 1_555 1_555
C27 C26 1_555 1_555
H25 C27 1_555 1_555
C28 C23 1_555 1_555
H26 C28 1_555 1_555
C29 C23 1_555 1_555
C30 C24 1_555 1_555
N1 C1 1_555 1_555
N2 C1 1_555 1_555
N3 C10 1_555 1_555
N4 C10 1_555 1_555
O1 Zn1 1_555 1_555
O2 C29 1_555 1_555
O3 C30 1_555 1_555
O4 C30 1_555 1_555
O5 H27 1_555 1_555
H28 O5 1_555 1_555
Zn1A N4 1_555 1_555
Zn1A_2 O3 1_555 1_555
N4A Zn1 1_555 1_555
O3A Zn1 1_555 1_555
C2 N2 1_555 1_555
C3 N1 1_555 1_555
C8 C9 1_555 1_555
C11 N4 1_555 1_555
C12 N3 1_555 1_555
C17 C18 1_555 1_555
C19 N2 1_555 1_555
C22 N3 1_555 1_555
C27 C28 1_555 1_555
C29 O1 1_555 1_555

#END
