
#######################################################################
#
#                 Cambridge Crystallographic Data Centre
#                                CCDC 
#
#######################################################################
#
# If this CIF has been generated from an entry in the Cambridge 
# Structural Database, then it will include bibliographic, chemical, 
# crystal, experimental, refinement or atomic coordinate data resulting 
# from the CCDC's data processing and validation procedures.
#
#######################################################################

data_COCVUM
_symmetry_cell_setting           triclinic
_symmetry_space_group_name_H-M   'P -1'
_symmetry_Int_Tables_number      2
_space_group_name_Hall           '-P 1'
loop_
_symmetry_equiv_pos_site_id
_symmetry_equiv_pos_as_xyz
1 x,y,z
2 -x,-y,-z
_cell_length_a                   12.7209(6)
_cell_length_b                   13.0515(6)
_cell_length_c                   16.7648(8)
_cell_angle_alpha                68.6550(10)
_cell_angle_beta                 70.3970(10)
_cell_angle_gamma                68.1900(10)
_cell_volume                     2341.47
loop_
_atom_site_label
_atom_site_type_symbol
_atom_site_fract_x
_atom_site_fract_y
_atom_site_fract_z
I1 I 0.70459(4) 0.05255(3) 0.75795(3)
I2 I 0.94533(4) 0.22001(5) 0.76438(3)
Cu1 Cu 0.81235(7) 0.21578(6) 0.67539(4)
Cu2 Cu 0.74806(6) 0.16163(6) 0.84408(4)
S1 S 1.01158(14) 0.28133(15) 0.25213(9)
S2 S 1.0930(2) 0.2204(2) -0.03473(13)
S3 S 0.69354(17) 0.37923(15) 0.10505(14)
S4 S 0.33430(14) 1.01787(14) 0.72743(9)
S5 S 0.25208(16) 1.10743(15) 0.44317(11)
S6 S 0.40030(15) 0.70790(14) 0.58941(14)
N1 N 0.8961(4) 0.2083(4) 0.5495(3)
N2 N 0.3933(4) 0.6964(4) 0.1404(3)
N3 N 0.2538(4) 0.9199(4) 1.0253(3)
N4 N 0.6901(4) 0.3772(4) 0.6457(3)
C1 C 0.8859(5) 0.1421(5) 0.5102(4)
H1 H 0.8545 0.0817 0.5451
C2 C 0.9196(5) 0.1577(5) 0.4200(4)
H2 H 0.9105 0.1090 0.3954
C3 C 0.9671(4) 0.2473(5) 0.3667(4)
C4 C 0.9822(5) 0.3125(5) 0.4086(4)
H3 H 1.0181 0.3703 0.3760
C5 C 0.9446(5) 0.2925(5) 0.4978(4)
H4 H 0.9531 0.3398 0.5240
C6 C 0.9604(5) 0.1945(6) 0.2203(4)
H5 H 0.9983 0.1139 0.2435
H6 H 0.8771 0.2079 0.2437
C7 C 0.9873(5) 0.2254(6) 0.1238(4)
C8 C 1.0797(6) 0.1616(6) 0.0751(5)
H7 H 1.1301 0.0929 0.0997
C9 C 0.9753(7) 0.3342(7) -0.0183(5)
H8 H 0.9469 0.3944 -0.0636
C10 C 0.9280(6) 0.3275(6) 0.0674(5)
C11 C 0.8210(6) 0.4150(7) 0.1002(6)
H9 H 0.8205 0.4910 0.0609
H10 H 0.8205 0.4148 0.1583
C12 C 0.5798(5) 0.5030(5) 0.1223(4)
C13 C 0.4755(5) 0.5181(5) 0.1053(4)
H11 H 0.4660 0.4631 0.0875
C14 C 0.3862(5) 0.6148(5) 0.1149(4)
H12 H 0.3166 0.6238 0.1028
C15 C 0.4927(5) 0.6807(5) 0.1570(4)
H13 H 0.4995 0.7368 0.1753
C16 C 0.5890(5) 0.5853(6) 0.1488(4)
H14 H 0.6577 0.5783 0.1612
C17 C 0.1875(6) 0.9077(5) 0.9844(4)
H15 H 0.1249 0.8789 1.0189
C18 C 0.2056(5) 0.9348(5) 0.8947(4)
H16 H 0.1571 0.9239 0.8695
C19 C 0.2976(5) 0.9786(4) 0.8428(3)
C20 C 0.3656(5) 0.9943(5) 0.8844(4)
H17 H 0.4273 1.0253 0.8518
C21 C 0.3400(5) 0.9632(5) 0.9753(4)
H18 H 0.3866 0.9734 1.0026
C22 C 0.2466(5) 0.9615(5) 0.6985(4)
H19 H 0.1647 0.9937 0.7226
H20 H 0.2661 0.8787 0.7221
C23 C 0.2714(5) 0.9938(4) 0.5997(4)
C24 C 0.2033(5) 1.0885(5) 0.5543(4)
H21 H 0.1376 1.1378 0.5804
C25 C 0.3656(5) 0.9858(6) 0.4585(4)
H22 H 0.4203 0.9580 0.4126
C26 C 0.3677(5) 0.9349(5) 0.5431(4)
C27 C 0.4558(5) 0.8250(5) 0.5748(5)
H23 H 0.5298 0.8196 0.5320
H24 H 0.4672 0.8218 0.6301
C28 C 0.6943(5) 0.4720(5) 0.6545(4)
H25 H 0.7567 0.4680 0.6738
C29 C 0.6105(6) 0.5780(5) 0.6366(4)
H26 H 0.6194 0.6431 0.6412
C30 C 0.5159(5) 0.5844(5) 0.6123(4)
C31 C 0.5111(5) 0.4833(5) 0.6045(4)
H27 H 0.4481 0.4833 0.5882
C32 C 0.5990(6) 0.3848(5) 0.6208(4)
H28 H 0.5944 0.3192 0.6138
Cu2A Cu 0.25194(6) 0.83837(6) 0.15592(4)
Cu2A_2 Cu 0.25194(6) 0.83837(6) 1.15592(4)
N2A N 0.6067(4) 0.3036(4) 0.8596(3)
N3A N 0.7462(4) 0.0801(4) 0.9747(3)
Cl1 Cl 0.6753(4) 0.7086(3) -0.0723(2)
Cl2 Cl 0.7753(2) 0.5906(2) -0.2076(3)
Cl3 Cl 0.5734(3) 0.7849(3) -0.2199(3)
C33 C 0.7025(6) 0.7230(5) -0.1844(4)
H29 H 0.7524 0.7740 -0.2166
Cl4 Cl 0.6340(3) 0.7339(3) 0.2825(3)
Cl5 Cl 0.7617(4) 0.6350(3) 0.4183(2)
Cl6 Cl 0.8543(6) 0.5635(5) 0.2587(4)
C34 C 0.7724(6) 0.6768(7) 0.3049(5)
H30 H 0.8120 0.7371 0.2777
Cl7? Cl 0.6365(19) 0.7645(19) -0.0448(13)
Cl8? Cl 0.7616(13) 0.5892(12) -0.1345(16)
Cl9? Cl 0.5543(16) 0.7575(19) -0.1813(16)
Cl10? Cl 0.6362(8) 0.7033(9) 0.3845(9)
Cl11? Cl 0.8567(10) 0.5996(8) 0.4313(7)
Cl12? Cl 0.8272(15) 0.573(2) 0.2776(13)
C35? C 0.6781(16) 0.7322(14) -0.1452(14)
H31? H 0.7249 0.7820 -0.1888
C36? C 0.7869(10) 0.6635(17) 0.3448(9)
H32? H 0.8104 0.7332 0.3090
loop_
_geom_bond_atom_site_label_1
_geom_bond_atom_site_label_2
_geom_bond_site_symmetry_1
_geom_bond_site_symmetry_2
I1 Cu1 1_555 1_555
I2 Cu1 1_555 1_555
Cu1 N1 1_555 1_555
Cu2 I1 1_555 1_555
Cl1 C33 1_555 1_555
Cl2 C33 1_555 1_555
Cl3 C33 1_555 1_555
Cl4 C34 1_555 1_555
Cl5 C34 1_555 1_555
Cl6 C34 1_555 1_555
S1 C3 1_555 1_555
S2 C8 1_555 1_555
S3 C11 1_555 1_555
S4 C19 1_555 1_555
S5 C24 1_555 1_555
S6 C27 1_555 1_555
N1 C1 1_555 1_555
N2 C14 1_555 1_555
N3 C17 1_555 1_555
N4 Cu1 1_555 1_555
C1 H1 1_555 1_555
C2 C1 1_555 1_555
H2 C2 1_555 1_555
C3 C2 1_555 1_555
C4 C3 1_555 1_555
H3 C4 1_555 1_555
C5 N1 1_555 1_555
H4 C5 1_555 1_555
C6 S1 1_555 1_555
H5 C6 1_555 1_555
H6 C6 1_555 1_555
C7 C6 1_555 1_555
C8 C7 1_555 1_555
H7 C8 1_555 1_555
C9 S2 1_555 1_555
H8 C9 1_555 1_555
C10 C7 1_555 1_555
C11 C10 1_555 1_555
H9 C11 1_555 1_555
H10 C11 1_555 1_555
C12 S3 1_555 1_555
C13 C12 1_555 1_555
H11 C13 1_555 1_555
C14 C13 1_555 1_555
H12 C14 1_555 1_555
C15 N2 1_555 1_555
H13 C15 1_555 1_555
C16 C12 1_555 1_555
H14 C16 1_555 1_555
C17 H15 1_555 1_555
C18 C17 1_555 1_555
H16 C18 1_555 1_555
C19 C18 1_555 1_555
C20 C19 1_555 1_555
H17 C20 1_555 1_555
C21 N3 1_555 1_555
H18 C21 1_555 1_555
C22 S4 1_555 1_555
H19 C22 1_555 1_555
H20 C22 1_555 1_555
C23 C22 1_555 1_555
C24 C23 1_555 1_555
H21 C24 1_555 1_555
C25 S5 1_555 1_555
H22 C25 1_555 1_555
C26 C23 1_555 1_555
C27 C26 1_555 1_555
H23 C27 1_555 1_555
H24 C27 1_555 1_555
C28 N4 1_555 1_555
H25 C28 1_555 1_555
C29 C28 1_555 1_555
H26 C29 1_555 1_555
C30 S6 1_555 1_555
C31 C30 1_555 1_555
H27 C31 1_555 1_555
C32 N4 1_555 1_555
H28 C32 1_555 1_555
C33 H29 1_555 1_555
C34 H30 1_555 1_555
Cu2A N2 1_555 1_555
Cu2A_2 N3 1_555 1_555
N2A Cu2 1_555 1_555
N3A Cu2 1_555 1_555
I2 Cu2 1_555 1_555
C4 C5 1_555 1_555
C9 C10 1_555 1_555
C15 C16 1_555 1_555
C20 C21 1_555 1_555
C25 C26 1_555 1_555
C29 C30 1_555 1_555
C31 C32 1_555 1_555

#END
