
#######################################################################
#
#                 Cambridge Crystallographic Data Centre
#                                CCDC 
#
#######################################################################
#
# If this CIF has been generated from an entry in the Cambridge 
# Structural Database, then it will include bibliographic, chemical, 
# crystal, experimental, refinement or atomic coordinate data resulting 
# from the CCDC's data processing and validation procedures.
#
#######################################################################

data_COCVIA
_symmetry_cell_setting           triclinic
_symmetry_space_group_name_H-M   'P -1'
_symmetry_Int_Tables_number      2
_space_group_name_Hall           '-P 1'
loop_
_symmetry_equiv_pos_site_id
_symmetry_equiv_pos_as_xyz
1 x,y,z
2 -x,-y,-z
_cell_length_a                   8.3397(7)
_cell_length_b                   10.5367(9)
_cell_length_c                   11.5415(10)
_cell_angle_alpha                71.781(2)
_cell_angle_beta                 72.749(2)
_cell_angle_gamma                78.765(2)
_cell_volume                     914.159
loop_
_atom_site_label
_atom_site_type_symbol
_atom_site_fract_x
_atom_site_fract_y
_atom_site_fract_z
I1 I 0.37425(5) 0.84865(4) 0.44614(4)
Cu1 Cu 0.50249(10) 0.92100(9) 0.63017(9)
S1 S -0.28937(18) 0.95095(15) 0.95075(14)
S2 S -0.0487(2) 0.62060(16) 1.32159(17)
S3 S -0.2352(3) 0.47492(18) 1.01046(17)
N1 N 0.2688(6) 0.9397(5) 0.7459(4)
C1 C 0.0400(7) 0.3426(6) 1.3590(5)
H1 H -0.0729 0.3315 1.3735
C2 C -0.0220(7) 1.0228(5) 0.7569(5)
H2 H -0.1015 1.0795 0.7168
N2 N 0.3230(6) 0.2396(5) 1.3489(4)
C3 C -0.0723(6) 0.9412(5) 0.8789(5)
C4 C 0.2191(7) 0.8652(5) 0.8645(5)
H3 H 0.3019 0.8117 0.9030
C5 C 0.1594(7) 0.2335(6) 1.3656(5)
H4 H 0.1242 0.1495 1.3829
C6 C -0.2760(6) 0.6819(6) 1.0913(5)
C7 C -0.3048(7) 0.8241(6) 1.1008(5)
H5 H -0.4161 0.8386 1.1554
H6 H -0.2226 0.8356 1.1400
C8 C 0.0544(7) 0.8622(5) 0.9333(5)
H7 H 0.0276 0.8078 1.0157
C9 C -0.2501(6) 0.5681(6) 1.1935(5)
C10 C -0.2475(7) 0.5773(6) 1.3191(5)
H8 H -0.3376 0.6446 1.3440
H9 H -0.2700 0.4917 1.3807
C11 C 0.3649(8) 0.3633(7) 1.3235(7)
H10 H 0.4776 0.3718 1.3131
C12 C 0.0877(7) 0.4700(5) 1.3305(5)
C13 C 0.1463(8) 1.0185(6) 0.6966(6)
H11 H 0.1775 1.0745 0.6154
C14 C -0.2270(8) 0.4507(6) 1.1617(5)
H12 H -0.2088 0.3664 1.2165
C15 C 0.2550(8) 0.4782(6) 1.3116(6)
H13 H 0.2940 0.5614 1.2908
C16 C -0.2734(8) 0.6444(6) 0.9890(6)
H14 H -0.2907 0.7050 0.9143
I1A I 0.62575(5) 1.15135(4) 0.55386(4)
Cu1A Cu 0.49751(10) 1.07900(9) 0.36983(9)
Cu1A_2 Cu 0.49751(10) 0.07900(9) 1.36983(9)
N2A N 0.6770(6) 0.7604(5) 0.6511(4)
loop_
_geom_bond_atom_site_label_1
_geom_bond_atom_site_label_2
_geom_bond_site_symmetry_1
_geom_bond_site_symmetry_2
I1 Cu1 1_555 1_555
Cu1 N1 1_555 1_555
S1 C3 1_555 1_555
S2 C10 1_555 1_555
S3 C14 1_555 1_555
N1 C4 1_555 1_555
C1 H1 1_555 1_555
C2 H2 1_555 1_555
N2 C5 1_555 1_555
C3 C2 1_555 1_555
C4 H3 1_555 1_555
C5 C1 1_555 1_555
H4 C5 1_555 1_555
C6 C7 1_555 1_555
C7 S1 1_555 1_555
H5 C7 1_555 1_555
H6 C7 1_555 1_555
C8 C3 1_555 1_555
H7 C8 1_555 1_555
C9 C6 1_555 1_555
C10 C9 1_555 1_555
H8 C10 1_555 1_555
H9 C10 1_555 1_555
C11 N2 1_555 1_555
H10 C11 1_555 1_555
C12 S2 1_555 1_555
C13 N1 1_555 1_555
H11 C13 1_555 1_555
C14 C9 1_555 1_555
H12 C14 1_555 1_555
C15 C11 1_555 1_555
H13 C15 1_555 1_555
C16 S3 1_555 1_555
H14 C16 1_555 1_555
I1A Cu1 1_555 1_555
Cu1A I1 1_555 1_555
Cu1A_2 N2 1_555 1_555
N2A Cu1 1_555 1_555
C1 C12 1_555 1_555
C2 C13 1_555 1_555
C4 C8 1_555 1_555
C6 C16 1_555 1_555
C12 C15 1_555 1_555
I1A Cu1A 1_555 1_555

#END
