
#######################################################################
#
#                 Cambridge Crystallographic Data Centre
#                                CCDC 
#
#######################################################################
#
# If this CIF has been generated from an entry in the Cambridge 
# Structural Database, then it will include bibliographic, chemical, 
# crystal, experimental, refinement or atomic coordinate data resulting 
# from the CCDC's data processing and validation procedures.
#
#######################################################################

data_COCVAS
_symmetry_cell_setting           orthorhombic
_symmetry_space_group_name_H-M   'P n a 21'
_symmetry_Int_Tables_number      33
_space_group_name_Hall           'P 2c -2n'
loop_
_symmetry_equiv_pos_site_id
_symmetry_equiv_pos_as_xyz
1 x,y,z
2 -x,-y,1/2+z
3 1/2-x,1/2+y,1/2+z
4 1/2+x,1/2-y,z
_cell_length_a                   17.042(5)
_cell_length_b                   10.357(4)
_cell_length_c                   14.270(4)
_cell_angle_alpha                90
_cell_angle_beta                 90
_cell_angle_gamma                90
_cell_volume                     2518.71
loop_
_atom_site_label
_atom_site_type_symbol
_atom_site_fract_x
_atom_site_fract_y
_atom_site_fract_z
Zn1 Zn 1.086111(13) 0.77905(2) 0.89419(4)
C1 C 1.23049(14) 0.6247(3) 0.8524(2)
C2 C 1.25540(15) 0.7749(3) 0.9539(3)
H1 H 1.2491 0.8457 0.9933
C3 C 1.32125(16) 0.7037(3) 0.9459(3)
H2 H 1.3681 0.7160 0.9782
C4 C 1.18955(15) 0.5416(3) 0.7850(2)
C5 C 1.19104(18) 0.4078(3) 0.7928(2)
H3 H 1.2221 0.3689 0.8383
C6 C 1.1464(3) 0.3320(4) 0.7330(3)
H4 H 1.1484 0.2426 0.7382
C7 C 1.0998(2) 0.3866(4) 0.6670(3)
H5 H 1.0700 0.3352 0.6271
C8 C 1.0971(3) 0.5178(4) 0.6600(3)
H6 H 1.0639 0.5555 0.6162
C9 C 1.1422(2) 0.5952(4) 0.7158(2)
H7 H 1.1412 0.6842 0.7075
C10 C 1.36299(16) 0.5135(3) 0.8486(2)
H8 H 1.4123 0.5564 0.8351
H9 H 1.3443 0.4743 0.7910
C11 C 1.37657(16) 0.4095(3) 0.9207(2)
H10 H 1.3264 0.3752 0.9409
H11 H 1.4025 0.4466 0.9749
C12 C 1.42655(16) 0.3003(3) 0.8819(4)
H12 H 1.4788 0.3320 0.8677
H13 H 1.4035 0.2677 0.8245
C13 C 1.43155(19) 0.1924(3) 0.9541(3)
H14 H 1.4663 0.2190 1.0044
H15 H 1.3799 0.1783 0.9808
C14 C 1.52311(15) -0.0038(3) 0.9392(2)
C15 C 1.41825(17) 0.0037(4) 0.8489(3)
H16 H 1.3723 0.0308 0.8196
C16 C 1.45554(17) -0.1080(3) 0.8348(2)
H17 H 1.4402 -0.1717 0.7928
C17 C 1.58361(15) 0.0318(3) 1.0073(2)
C18 C 1.6137(2) -0.0626(4) 1.0668(2)
H18 H 1.5928 -0.1455 1.0650
C19 C 1.6738(2) -0.0355(4) 1.1281(3)
H19 H 1.6943 -0.1002 1.1661
C20 C 1.7036(2) 0.0888(4) 1.1330(3)
H20 H 1.7436 0.1083 1.1750
C21 C 1.6735(2) 0.1841(5) 1.0748(3)
H21 H 1.6926 0.2681 1.0787
C22 C 1.6155(2) 0.1544(4) 1.0116(3)
H22 H 1.5974 0.2178 0.9709
C23 C 1.0717(3) 0.9576(5) 1.0422(3)
C24 C 1.0316(2) 1.0229(4) 1.1229(2)
H23 H 1.0554 1.0960 1.1479
C25 C 0.9664(2) 0.9847(4) 1.1605(2)
H24 H 0.9427 0.9120 1.1349
C26 C 0.9260(2) 1.0476(4) 1.2412(3)
N1 N 1.19904(10) 0.72629(17) 0.8947(3)
N2 N 1.30561(11) 0.60942(19) 0.8808(2)
N3 N 1.46035(14) 0.0707(2) 0.91433(18)
N4 N 1.52035(10) -0.11416(19) 0.8924(3)
O1 O 1.03793(17) 0.8630(3) 1.0040(2)
O2 O 1.1346(2) 1.0002(4) 1.0174(3)
O3 O 0.96095(14) 1.1377(3) 1.28344(19)
O4 O 0.8594(2) 1.0126(4) 1.2601(3)
Zn1C Zn 1.586111(13) -0.27905(2) 0.89419(4)
Zn1A Zn 0.913889(13) 1.22095(2) 1.39419(4)
N4C N 1.02035(10) 0.61416(19) 0.8924(3)
O3A O 1.03905(14) 0.8623(3) 0.78344(19)
O5 O 0.75967(13) 0.8841(2) 1.3861(3)
H25 H 0.784(3) 0.906(5) 1.447(2)
H26 H 0.790(3) 0.930(5) 1.348(3)
loop_
_geom_bond_atom_site_label_1
_geom_bond_atom_site_label_2
_geom_bond_site_symmetry_1
_geom_bond_site_symmetry_2
Zn1 N1 1_555 1_555
C1 C4 1_555 1_555
C2 H1 1_555 1_555
C3 C2 1_555 1_555
H2 C3 1_555 1_555
C4 C5 1_555 1_555
C5 H3 1_555 1_555
C6 C5 1_555 1_555
H4 C6 1_555 1_555
C7 C6 1_555 1_555
H5 C7 1_555 1_555
C8 C7 1_555 1_555
H6 C8 1_555 1_555
C9 C4 1_555 1_555
H7 C9 1_555 1_555
C10 H8 1_555 1_555
H9 C10 1_555 1_555
C11 C10 1_555 1_555
H10 C11 1_555 1_555
H11 C11 1_555 1_555
C12 C11 1_555 1_555
H12 C12 1_555 1_555
H13 C12 1_555 1_555
C13 C12 1_555 1_555
H14 C13 1_555 1_555
H15 C13 1_555 1_555
C14 C17 1_555 1_555
C15 H16 1_555 1_555
C16 C15 1_555 1_555
H17 C16 1_555 1_555
C17 C18 1_555 1_555
C18 H18 1_555 1_555
C19 C18 1_555 1_555
H19 C19 1_555 1_555
C20 C19 1_555 1_555
H20 C20 1_555 1_555
C21 C20 1_555 1_555
H21 C21 1_555 1_555
C22 C17 1_555 1_555
H22 C22 1_555 1_555
C23 C24 1_555 1_555
C24 H23 1_555 1_555
C25 C24 1_555 1_555
H24 C25 1_555 1_555
C26 C25 1_555 1_555
N1 C1 1_555 1_555
N2 C1 1_555 1_555
N3 C13 1_555 1_555
N4 C14 1_555 1_555
O1 Zn1 1_555 1_555
O2 C23 1_555 1_555
O3 C26 1_555 1_555
O4 C26 1_555 1_555
O5 H25 1_555 1_555
H26 O5 1_555 1_555
Zn1C N4 1_555 1_555
Zn1A O3 1_555 1_555
N4C Zn1 1_555 1_555
O3A Zn1 1_555 1_555
C2 N1 1_555 1_555
C3 N2 1_555 1_555
C8 C9 1_555 1_555
C10 N2 1_555 1_555
C14 N3 1_555 1_555
C15 N3 1_555 1_555
C16 N4 1_555 1_555
C21 C22 1_555 1_555
C23 O1 1_555 1_555

#END
