
#######################################################################
#
#                 Cambridge Crystallographic Data Centre
#                                CCDC 
#
#######################################################################
#
# If this CIF has been generated from an entry in the Cambridge 
# Structural Database, then it will include bibliographic, chemical, 
# crystal, experimental, refinement or atomic coordinate data resulting 
# from the CCDC's data processing and validation procedures.
#
#######################################################################

data_COCWAS
_symmetry_cell_setting           monoclinic
_symmetry_space_group_name_H-M   'C 2/c'
_symmetry_Int_Tables_number      15
_space_group_name_Hall           '-C 2yn'
loop_
_symmetry_equiv_pos_site_id
_symmetry_equiv_pos_as_xyz
1 x,y,z
2 1/2+x,1/2+y,z
3 -x,y,1/2-z
4 1/2-x,1/2+y,1/2-z
5 -x,-y,-z
6 1/2-x,1/2-y,-z
7 x,-y,1/2+z
8 1/2+x,1/2-y,1/2+z
_cell_length_a                   12.259(2)
_cell_length_b                   15.222(3)
_cell_length_c                   14.597(3)
_cell_angle_alpha                90
_cell_angle_beta                 97.82(2)
_cell_angle_gamma                90
_cell_volume                     2698.56
loop_
_atom_site_label
_atom_site_type_symbol
_atom_site_fract_x
_atom_site_fract_y
_atom_site_fract_z
Au1 Au 0.0000 0.1019(2) 0.2500
Au2 Au 0.2554(2) 0.1030(2) 0.3567(1)
Au3 Au 0.5000 0.1065(2) 0.2500
Br1 Br 0.0463(5) 0.1009(4) 0.0962(3)
Br2 Br 0.4352(5) 0.1060(5) 0.0881(3)
N1 N 0.249(4) 0.230(3) 0.371(3)
N2 N 0.259(3) -0.032(3) 0.358(3)
C1 C 0.339(4) 0.285(3) 0.353(3)
C2 C 0.344(5) 0.372(4) 0.366(4)
C3 C 0.256(4) 0.413(3) 0.394(3)
C4 C 0.159(5) 0.365(4) 0.409(4)
C5 C 0.168(4) 0.279(3) 0.397(3)
C6 C 0.178(5) -0.073(4) 0.388(4)
C7 C 0.171(4) -0.160(3) 0.395(3)
C8 C 0.259(4) -0.211(3) 0.374(3)
C9 C 0.350(4) -0.167(3) 0.346(4)
C10 C 0.344(5) -0.075(3) 0.339(4)
Au2B Au -0.2554(2) 0.1030(2) 0.1433(1)
Br1B Br -0.0463(5) 0.1009(4) 0.4038(3)
Au2B_2 Au 0.7446(2) 0.1030(2) 0.1433(1)
Br2B Br 0.5648(5) 0.1060(5) 0.4119(3)
Au3_2 Au -0.5000 0.1065(2) 0.2500
N1B N -0.249(4) 0.230(3) 0.129(3)
N2B N -0.259(3) -0.032(3) 0.142(3)
C1B C -0.339(4) 0.285(3) 0.147(3)
C5B C -0.168(4) 0.279(3) 0.103(3)
C6B C -0.178(5) -0.073(4) 0.112(4)
C10B C -0.344(5) -0.075(3) 0.161(4)
C2B C -0.344(5) 0.372(4) 0.134(4)
C4B C -0.159(5) 0.365(4) 0.091(4)
C7B C -0.171(4) -0.160(3) 0.105(3)
C9B C -0.350(4) -0.167(3) 0.154(4)
C3B C -0.256(4) 0.413(3) 0.106(3)
C8B C -0.259(4) -0.211(3) 0.126(3)
loop_
_geom_bond_atom_site_label_1
_geom_bond_atom_site_label_2
_geom_bond_site_symmetry_1
_geom_bond_site_symmetry_2
Au1 Au2 1_555 1_555
Au2 Au3 1_555 1_555
Au3 Br2 1_555 1_555
Br1 Au1 1_555 1_555
N1 Au2 1_555 1_555
N2 Au2 1_555 1_555
C1 N1 1_555 1_555
C2 C1 1_555 1_555
C3 C2 1_555 1_555
C4 C3 1_555 1_555
C5 N1 1_555 1_555
C6 N2 1_555 1_555
C7 C6 1_555 1_555
C8 C7 1_555 1_555
C9 C8 1_555 1_555
C10 N2 1_555 1_555
Au2B Au1 1_555 1_555
Br1B Au1 1_555 1_555
Au2B_2 Au3 1_555 1_555
Br2B Au3 1_555 1_555
Au3_2 Au2B 1_555 1_555
N1B Au2B 1_555 1_555
N2B Au2B 1_555 1_555
C1B N1B 1_555 1_555
C5B N1B 1_555 1_555
C6B N2B 1_555 1_555
C10B N2B 1_555 1_555
C2B C1B 1_555 1_555
C4B C5B 1_555 1_555
C7B C6B 1_555 1_555
C9B C10B 1_555 1_555
C3B C2B 1_555 1_555
C8B C7B 1_555 1_555
C4 C5 1_555 1_555
C9 C10 1_555 1_555
C4B C3B 1_555 1_555
C9B C8B 1_555 1_555

#END
