
#######################################################################
#
#                 Cambridge Crystallographic Data Centre
#                                CCDC 
#
#######################################################################
#
# If this CIF has been generated from an entry in the Cambridge 
# Structural Database, then it will include bibliographic, chemical, 
# crystal, experimental, refinement or atomic coordinate data resulting 
# from the CCDC's data processing and validation procedures.
#
#######################################################################

data_COCWAT
_symmetry_cell_setting           monoclinic
_symmetry_space_group_name_H-M   'P 21/n'
_symmetry_Int_Tables_number      14
_space_group_name_Hall           '-P 2yn'
loop_
_symmetry_equiv_pos_site_id
_symmetry_equiv_pos_as_xyz
1 x,y,z
2 1/2-x,1/2+y,1/2-z
3 -x,-y,-z
4 1/2+x,1/2-y,1/2+z
_cell_length_a                   9.2520(15)
_cell_length_b                   16.453(3)
_cell_length_c                   14.991(3)
_cell_angle_alpha                90
_cell_angle_beta                 104.904(3)
_cell_angle_gamma                90
_cell_volume                     2205.21
loop_
_atom_site_label
_atom_site_type_symbol
_atom_site_fract_x
_atom_site_fract_y
_atom_site_fract_z
I1 I 1.18141(4) 0.05369(2) 1.11751(3)
Cu1 Cu 1.02629(7) 0.05823(4) 0.94473(5)
S1 S 1.82955(14) -0.08937(8) 0.58575(11)
S2 S 1.43012(15) 0.11126(11) 0.64751(10)
S3 S 1.8503(2) 0.19292(10) 0.52831(14)
C1 C 1.7337(5) -0.1818(3) 0.5855(3)
N1 N 1.1655(5) 0.0652(3) 0.8585(3)
C2 C 1.7410(5) 0.0681(3) 0.5872(4)
C3 C 1.6222(5) 0.1304(3) 0.7100(4)
H1 H 1.6296 0.1808 0.7444
H2 H 1.6597 0.0865 0.7529
N2 N 1.5898(4) -0.3328(2) 0.5751(3)
C4 C 1.6927(5) -0.0166(3) 0.6015(4)
H3 H 1.5974 -0.0278 0.5580
H4 H 1.6795 -0.0217 0.6634
C5 C 1.7619(7) 0.2065(3) 0.6126(5)
H5 H 1.7502 0.2569 0.6381
C6 C 1.3105(6) 0.0779(4) 0.8853(4)
H6 H 1.3556 0.0780 0.9484
C7 C 1.7098(5) 0.1359(3) 0.6392(3)
C8 C 1.7876(6) -0.2499(3) 0.5503(4)
H7 H 1.8741 -0.2466 0.5297
C9 C 1.7122(6) -0.3224(3) 0.5458(4)
H8 H 1.7493 -0.3671 0.5207
C10 C 1.1061(6) 0.0654(4) 0.7672(4)
H9 H 1.0036 0.0569 0.7460
C11 C 1.8157(6) 0.0913(3) 0.5250(4)
H10 H 1.8450 0.0556 0.4848
C12 C 1.6095(6) -0.1921(3) 0.6175(4)
H11 H 1.5710 -0.1487 0.6438
C13 C 1.3368(5) 0.0920(3) 0.7326(4)
C14 C 1.5411(6) -0.2672(3) 0.6109(4)
H12 H 1.4560 -0.2723 0.6326
C15 C 1.1847(6) 0.0773(4) 0.7032(4)
H13 H 1.1370 0.0754 0.6405
C16 C 1.4002(5) 0.0912(4) 0.8261(4)
H14 H 1.5025 0.0995 0.8493
I1B I 0.81859(4) -0.05369(2) 0.88249(3)
Cu1B Cu 0.97371(7) -0.05823(4) 1.05527(5)
Cu1A Cu 1.47371(7) -0.44177(4) 0.55527(5)
N2A N 0.9102(4) 0.1672(2) 0.9249(3)
Cl1 Cl 0.9053(3) 0.63109(17) 0.3533(3)
C17 C 0.696(2) 0.6635(8) 0.3071(9)
H15 H 0.6301 0.6178 0.3074
H16 H 0.6715 0.7069 0.3444
Cl2 Cl 0.6831(5) 0.6939(3) 0.2040(3)
loop_
_geom_bond_atom_site_label_1
_geom_bond_atom_site_label_2
_geom_bond_site_symmetry_1
_geom_bond_site_symmetry_2
I1 Cu1 1_555 1_555
Cu1 N1 1_555 1_555
S1 C1 1_555 1_555
S2 C3 1_555 1_555
S3 C5 1_555 1_555
C1 C8 1_555 1_555
N1 C6 1_555 1_555
C2 C4 1_555 1_555
C3 H1 1_555 1_555
H2 C3 1_555 1_555
N2 C9 1_555 1_555
C4 S1 1_555 1_555
H3 C4 1_555 1_555
H4 C4 1_555 1_555
C5 H5 1_555 1_555
C6 H6 1_555 1_555
C7 C2 1_555 1_555
C8 H7 1_555 1_555
C9 C8 1_555 1_555
H8 C9 1_555 1_555
C10 N1 1_555 1_555
H9 C10 1_555 1_555
C11 S3 1_555 1_555
H10 C11 1_555 1_555
C12 C1 1_555 1_555
H11 C12 1_555 1_555
C13 S2 1_555 1_555
C14 N2 1_555 1_555
H12 C14 1_555 1_555
C15 C10 1_555 1_555
H13 C15 1_555 1_555
C16 C6 1_555 1_555
H14 C16 1_555 1_555
Cl1 C17 1_555 1_555
C17 H15 1_555 1_555
H16 C17 1_555 1_555
Cl2 C17 1_555 1_555
I1B Cu1 1_555 1_555
Cu1B I1 1_555 1_555
Cu1A N2 1_555 1_555
N2A Cu1 1_555 1_555
C2 C11 1_555 1_555
C3 C7 1_555 1_555
C5 C7 1_555 1_555
C12 C14 1_555 1_555
C13 C15 1_555 1_555
C13 C16 1_555 1_555
I1B Cu1B 1_555 1_555

#END
