
#######################################################################
#
#                 Cambridge Crystallographic Data Centre
#                                CCDC 
#
#######################################################################
#
# If this CIF has been generated from an entry in the Cambridge 
# Structural Database, then it will include bibliographic, chemical, 
# crystal, experimental, refinement or atomic coordinate data resulting 
# from the CCDC's data processing and validation procedures.
#
#######################################################################

data_COCYUP
_symmetry_cell_setting           monoclinic
_symmetry_space_group_name_H-M   'P 21/c'
_symmetry_Int_Tables_number      14
_space_group_name_Hall           '-P 2ybc'
loop_
_symmetry_equiv_pos_site_id
_symmetry_equiv_pos_as_xyz
1 x,y,z
2 -x,1/2+y,1/2-z
3 -x,-y,-z
4 x,1/2-y,1/2+z
_cell_length_a                   12.287(3)
_cell_length_b                   9.6705(19)
_cell_length_c                   10.764(2)
_cell_angle_alpha                90
_cell_angle_beta                 109.93(3)
_cell_angle_gamma                90
_cell_volume                     1202.39
loop_
_atom_site_label
_atom_site_type_symbol
_atom_site_fract_x
_atom_site_fract_y
_atom_site_fract_z
Cu1 Cu 0.0000 0.0000 0.5000
O1 O 0.20145(14) 0.17587(19) 0.45118(16)
O2 O 0.16136(12) 0.04308(17) 0.59940(14)
O3 O 0.03408(14) 0.04555(17) 0.28355(14)
H1 H 0.0911(17) 0.092(3) 0.334(2)
N1 N -0.04506(14) 0.30343(17) 0.02394(15)
C1 C 0.22416(18) 0.1275(2) 0.5645(2)
C2 C 0.3321(2) 0.1758(4) 0.6742(3)
H2 H 0.3184 0.2680 0.7011
H3 H 0.3455 0.1152 0.7498
C3 C 0.43977(19) 0.1787(3) 0.6373(2)
C4 C 0.5153(2) 0.0667(3) 0.6683(2)
H4 H 0.4986 -0.0084 0.7127
C5 C 0.6133(3) 0.0639(4) 0.6354(3)
H5 H 0.6612 -0.0134 0.6550
C6 C 0.6402(3) 0.1727(5) 0.5749(3)
H6 H 0.7086 0.1722 0.5560
C7 C 0.5684(4) 0.2847(4) 0.5406(4)
H7 H 0.5870 0.3587 0.4965
C8 C 0.4659(3) 0.2879(3) 0.5722(3)
H8 H 0.4167 0.3638 0.5488
C9 C 0.00711(16) 0.24018(19) 0.14004(17)
H9 H 0.0649 0.2873 0.2053
C10 C -0.02152(17) 0.10803(19) 0.16670(18)
C11 C -0.1085(2) 0.0387(2) 0.0697(2)
H10 H -0.1310 -0.0498 0.0847
C12 C -0.1609(2) 0.1044(2) -0.0494(2)
H11 H -0.2189 0.0595 -0.1163
C13 C -0.12801(19) 0.2354(2) -0.07007(19)
H12 H -0.1642 0.2780 -0.1512
Cu1C Cu 0.0000 0.5000 0.0000
Cu1C_2 Cu 0.0000 -0.5000 1.0000
O1B O -0.20145(14) -0.17587(19) 0.54882(16)
O2B O -0.16136(12) -0.04308(17) 0.40060(14)
O3B O -0.03408(14) -0.04555(17) 0.71645(14)
H1B H -0.0911(17) -0.092(3) 0.666(2)
N1B N 0.04506(14) -0.30343(17) 0.97606(15)
N1C N -0.04506(14) 0.19657(17) 0.52394(15)
N1A N 0.04506(14) -0.19657(17) 0.47606(15)
C1B C -0.22416(18) -0.1275(2) 0.4355(2)
C2B C -0.3321(2) -0.1758(4) 0.3258(3)
H2B H -0.3184 -0.2680 0.2989
H3B H -0.3455 -0.1152 0.2502
C3B C -0.43977(19) -0.1787(3) 0.3627(2)
C4B C -0.5153(2) -0.0667(3) 0.3317(2)
H4B H -0.4986 0.0084 0.2873
C5B C -0.6133(3) -0.0639(4) 0.3646(3)
H5B H -0.6612 0.0134 0.3450
C6B C -0.6402(3) -0.1727(5) 0.4251(3)
H6B H -0.7086 -0.1722 0.4440
C7B C -0.5684(4) -0.2847(4) 0.4594(4)
H7B H -0.5870 -0.3587 0.5035
C8B C -0.4659(3) -0.2879(3) 0.4278(3)
H8B H -0.4167 -0.3638 0.4512
C9B C -0.00711(16) -0.24018(19) 0.85996(17)
H9B H -0.0649 -0.2873 0.7947
C10B C 0.02152(17) -0.10803(19) 0.83330(18)
C11B C 0.1085(2) -0.0387(2) 0.9303(2)
H10B H 0.1310 0.0498 0.9153
C12B C 0.1609(2) -0.1044(2) 1.0494(2)
H11B H 0.2189 -0.0595 1.1163
C13B C 0.12801(19) -0.2354(2) 1.07007(19)
H12B H 0.1642 -0.2780 1.1512
loop_
_geom_bond_atom_site_label_1
_geom_bond_atom_site_label_2
_geom_bond_site_symmetry_1
_geom_bond_site_symmetry_2
Cu1 O2 1_555 1_555
O1 C1 1_555 1_555
O2 C1 1_555 1_555
O3 Cu1 1_555 1_555
H1 O3 1_555 1_555
N1 C9 1_555 1_555
C1 C2 1_555 1_555
C2 H2 1_555 1_555
H3 C2 1_555 1_555
C3 C2 1_555 1_555
C4 C3 1_555 1_555
H4 C4 1_555 1_555
C5 C4 1_555 1_555
H5 C5 1_555 1_555
C6 C5 1_555 1_555
H6 C6 1_555 1_555
C7 C6 1_555 1_555
H7 C7 1_555 1_555
C8 C3 1_555 1_555
H8 C8 1_555 1_555
C9 H9 1_555 1_555
C10 O3 1_555 1_555
C11 C10 1_555 1_555
H10 C11 1_555 1_555
C12 C11 1_555 1_555
H11 C12 1_555 1_555
C13 N1 1_555 1_555
H12 C13 1_555 1_555
Cu1C N1 1_555 1_555
Cu1C_2 N1B 1_555 1_555
O1B C1B 1_555 1_555
O2B Cu1 1_555 1_555
O3B Cu1 1_555 1_555
H1B O3B 1_555 1_555
N1B C9B 1_555 1_555
N1C Cu1 1_555 1_555
N1A Cu1 1_555 1_555
C1B O2B 1_555 1_555
C2B C1B 1_555 1_555
H2B C2B 1_555 1_555
H3B C2B 1_555 1_555
C3B C2B 1_555 1_555
C4B C3B 1_555 1_555
H4B C4B 1_555 1_555
C5B C4B 1_555 1_555
H5B C5B 1_555 1_555
C6B C5B 1_555 1_555
H6B C6B 1_555 1_555
C7B C6B 1_555 1_555
H7B C7B 1_555 1_555
C8B C3B 1_555 1_555
H8B C8B 1_555 1_555
C9B H9B 1_555 1_555
C10B O3B 1_555 1_555
C11B C10B 1_555 1_555
H10B C11B 1_555 1_555
C12B C11B 1_555 1_555
H11B C12B 1_555 1_555
C13B N1B 1_555 1_555
H12B C13B 1_555 1_555
C7 C8 1_555 1_555
C9 C10 1_555 1_555
C12 C13 1_555 1_555
C7B C8B 1_555 1_555
C9B C10B 1_555 1_555
C12B C13B 1_555 1_555

#END
