
#######################################################################
#
#                 Cambridge Crystallographic Data Centre
#                                CCDC 
#
#######################################################################
#
# If this CIF has been generated from an entry in the Cambridge 
# Structural Database, then it will include bibliographic, chemical, 
# crystal, experimental, refinement or atomic coordinate data resulting 
# from the CCDC's data processing and validation procedures.
#
#######################################################################

data_COCZIE
_symmetry_cell_setting           monoclinic
_symmetry_space_group_name_H-M   'C 2/c'
_symmetry_Int_Tables_number      15
_space_group_name_Hall           '-C 2yn'
loop_
_symmetry_equiv_pos_site_id
_symmetry_equiv_pos_as_xyz
1 x,y,z
2 1/2+x,1/2+y,z
3 -x,y,1/2-z
4 1/2-x,1/2+y,1/2-z
5 -x,-y,-z
6 1/2-x,1/2-y,-z
7 x,-y,1/2+z
8 1/2+x,1/2-y,1/2+z
_cell_length_a                   20.885(4)
_cell_length_b                   8.3905(17)
_cell_length_c                   16.835(3)
_cell_angle_alpha                90
_cell_angle_beta                 105.45(3)
_cell_angle_gamma                90
_cell_volume                     2843.48
loop_
_atom_site_label
_atom_site_type_symbol
_atom_site_fract_x
_atom_site_fract_y
_atom_site_fract_z
Cd1 Cd 0.5000 0.654778(18) 0.7500
O1 O 0.5000 0.9414(2) 0.7500
H1 H 0.4982(14) 1.012(2) 0.7840(12)
O4 O 0.43713(8) 0.69136(17) 0.84864(9)
O5 O 0.45657(7) 0.44434(16) 0.82164(9)
N1 N 0.59623(7) 0.67354(15) 0.85430(8)
C1 C 0.43151(9) 0.5448(2) 0.85924(11)
C2 C 0.39102(11) 0.4911(3) 0.91719(14)
H6 H 0.4001 0.3797 0.9311
H7 H 0.4039 0.5526 0.9677
C3 C 0.31728(10) 0.5131(2) 0.87745(12)
C4 C 0.28425(16) 0.4162(4) 0.81389(16)
H8 H 0.3073 0.3359 0.7953
C5 C 0.2181(2) 0.4362(6) 0.7777(2)
H9 H 0.1966 0.3705 0.7343
C6 C 0.18334(15) 0.5526(6) 0.8050(3)
H10 H 0.1382 0.5654 0.7805
C7 C 0.21499(18) 0.6502(4) 0.8684(3)
H11 H 0.1915 0.7293 0.8873
C8 C 0.28234(13) 0.6301(3) 0.90417(17)
H12 H 0.3041 0.6970 0.9469
C9 C 0.60214(8) 0.7848(2) 0.91188(10)
H13 H 0.5646 0.8430 0.9134
C10 C 0.66116(8) 0.8186(2) 0.96963(10)
H14 H 0.6628 0.8985 1.0084
C11 C 0.71771(7) 0.73333(18) 0.96968(8)
C12 C 0.71131(9) 0.6154(2) 0.91015(12)
H15 H 0.7479 0.5542 0.9077
C13 C 0.65039(9) 0.5897(2) 0.85456(11)
H16 H 0.6470 0.5098 0.8154
Cd1G Cd 1.0000 0.845222(18) 1.2500
H1B H 0.5018(14) 1.012(2) 0.7160(12)
O4B O 0.56287(8) 0.69136(17) 0.65136(9)
O5B O 0.54343(7) 0.44434(16) 0.67836(9)
N1E N 0.90377(7) 0.82646(15) 1.14570(8)
N1B N 0.40377(7) 0.67354(15) 0.64570(8)
C1B C 0.56849(9) 0.5448(2) 0.64076(11)
C2B C 0.60898(11) 0.4911(3) 0.58281(14)
H6B H 0.5999 0.3797 0.5689
H7B H 0.5961 0.5526 0.5323
C3B C 0.68272(10) 0.5131(2) 0.62255(12)
C4B C 0.71575(16) 0.4162(4) 0.68611(16)
H8B H 0.6927 0.3359 0.7047
C5B C 0.7819(2) 0.4362(6) 0.7223(2)
H9B H 0.8034 0.3705 0.7657
C6B C 0.81666(15) 0.5526(6) 0.6950(3)
H10B H 0.8618 0.5654 0.7195
C7B C 0.78501(18) 0.6502(4) 0.6316(3)
H11B H 0.8085 0.7293 0.6127
C8B C 0.71766(13) 0.6301(3) 0.59583(17)
H12B H 0.6959 0.6970 0.5531
C9E C 0.89786(8) 0.7152(2) 1.08812(10)
H13E H 0.9354 0.6570 1.0866
C10E C 0.83884(8) 0.6814(2) 1.03037(10)
H14E H 0.8372 0.6015 0.9916
C11E C 0.78229(7) 0.76667(18) 1.03032(8)
C12E C 0.78869(9) 0.8846(2) 1.08985(12)
H15E H 0.7521 0.9458 1.0923
C13E C 0.84961(9) 0.9103(2) 1.14544(11)
H16E H 0.8530 0.9902 1.1846
O2 O 0.49298(13) 0.13748(18) 0.88329(13)
H2 H 0.4783(15) 0.229(2) 0.8664(19)
H3 H 0.5278(13) 0.148(3) 0.9232(18)
O3 O 0.41856(11) 0.9214(2) 0.95426(13)
H4 H 0.425(2) 0.838(2) 0.930(2)
H5 H 0.4359(17) 1.000(2) 0.937(2)
loop_
_geom_bond_atom_site_label_1
_geom_bond_atom_site_label_2
_geom_bond_site_symmetry_1
_geom_bond_site_symmetry_2
Cd1 O1 1_555 1_555
O1 H1 1_555 1_555
O2 H2 1_555 1_555
H3 O2 1_555 1_555
O3 H4 1_555 1_555
H5 O3 1_555 1_555
O4 Cd1 1_555 1_555
O5 Cd1 1_555 1_555
N1 Cd1 1_555 1_555
C1 O4 1_555 1_555
C2 C1 1_555 1_555
H6 C2 1_555 1_555
H7 C2 1_555 1_555
C3 C2 1_555 1_555
C4 C3 1_555 1_555
H8 C4 1_555 1_555
C5 C4 1_555 1_555
H9 C5 1_555 1_555
C6 C5 1_555 1_555
H10 C6 1_555 1_555
C7 C6 1_555 1_555
H11 C7 1_555 1_555
C8 C3 1_555 1_555
H12 C8 1_555 1_555
C9 N1 1_555 1_555
H13 C9 1_555 1_555
C10 C9 1_555 1_555
H14 C10 1_555 1_555
C11 C10 1_555 1_555
C12 C11 1_555 1_555
H15 C12 1_555 1_555
C13 N1 1_555 1_555
H16 C13 1_555 1_555
Cd1G N1E 1_555 1_555
H1B O1 1_555 1_555
O4B Cd1 1_555 1_555
O5B Cd1 1_555 1_555
N1E C9E 1_555 1_555
N1B Cd1 1_555 1_555
C1B O4B 1_555 1_555
C2B C1B 1_555 1_555
H6B C2B 1_555 1_555
H7B C2B 1_555 1_555
C3B C2B 1_555 1_555
C4B C3B 1_555 1_555
H8B C4B 1_555 1_555
C5B C4B 1_555 1_555
H9B C5B 1_555 1_555
C6B C5B 1_555 1_555
H10B C6B 1_555 1_555
C7B C6B 1_555 1_555
H11B C7B 1_555 1_555
C8B C3B 1_555 1_555
H12B C8B 1_555 1_555
C9E H13E 1_555 1_555
C10E C9E 1_555 1_555
H14E C10E 1_555 1_555
C11E C11 1_555 1_555
C12E C11E 1_555 1_555
H15E C12E 1_555 1_555
C13E N1E 1_555 1_555
H16E C13E 1_555 1_555
O5 C1 1_555 1_555
C7 C8 1_555 1_555
C12 C13 1_555 1_555
O5B C1B 1_555 1_555
C7B C8B 1_555 1_555
C10E C11E 1_555 1_555
C12E C13E 1_555 1_555

#END
