
#######################################################################
#
#                 Cambridge Crystallographic Data Centre
#                                CCDC 
#
#######################################################################
#
# If this CIF has been generated from an entry in the Cambridge 
# Structural Database, then it will include bibliographic, chemical, 
# crystal, experimental, refinement or atomic coordinate data resulting 
# from the CCDC's data processing and validation procedures.
#
#######################################################################

data_COCZEA
_symmetry_cell_setting           monoclinic
_symmetry_space_group_name_H-M   'P 21/c'
_symmetry_Int_Tables_number      14
_space_group_name_Hall           '-P 2ybc'
loop_
_symmetry_equiv_pos_site_id
_symmetry_equiv_pos_as_xyz
1 x,y,z
2 -x,1/2+y,1/2-z
3 -x,-y,-z
4 x,1/2-y,1/2+z
_cell_length_a                   4.6166(9)
_cell_length_b                   17.166(3)
_cell_length_c                   16.475(3)
_cell_angle_alpha                90
_cell_angle_beta                 91.48(3)
_cell_angle_gamma                90
_cell_volume                     1305.18
loop_
_atom_site_label
_atom_site_type_symbol
_atom_site_fract_x
_atom_site_fract_y
_atom_site_fract_z
Mn1 Mn 0.5000 0.5000 0.5000
I1 I -0.18860(6) 0.652013(16) 0.745595(16)
I2 I 0.11437(8) 0.610884(19) 0.949061(17)
I3 I 0.66751(6) 0.323585(16) 0.818263(17)
O1 O 0.1601(5) 0.55316(16) 0.57427(14)
O2 O -0.2335(5) 0.48533(18) 0.60604(15)
O3 O 0.2882(6) 0.38730(17) 0.52182(18)
H1 H 0.128(6) 0.390(3) 0.495(3)
C1 C 0.0073(7) 0.5152(2) 0.6226(2)
C2 C 0.1256(7) 0.5025(2) 0.7085(2)
C3 C 0.0678(7) 0.5535(2) 0.7715(2)
C4 C 0.1835(8) 0.5382(2) 0.8488(2)
C5 C 0.3571(8) 0.4738(2) 0.8635(2)
H2 H 0.4359 0.4645 0.9151
C6 C 0.4117(7) 0.4232(2) 0.7998(2)
C7 C 0.2970(7) 0.4371(2) 0.7232(2)
H3 H 0.3342 0.4026 0.6811
C8 C 0.4101(16) 0.3116(4) 0.5174(5)
H4 H 0.4124 0.2951 0.4617
H5 H 0.2959 0.2759 0.5480
H6 H 0.6046 0.3125 0.5394
Mn1_2 Mn -0.5000 0.5000 0.5000
Mn1_3 Mn 1.5000 0.5000 0.5000
I1B I 1.18860(6) 0.347987(16) 0.254405(16)
I2B I 0.88563(8) 0.389116(19) 0.050939(17)
I3B I 0.33249(6) 0.676415(16) 0.181737(17)
O1B O 0.8399(5) 0.44684(16) 0.42573(14)
O2B O 1.2335(5) 0.51467(18) 0.39396(15)
O2_2 O 0.7665(5) 0.48533(18) 0.60604(15)
O2B_2 O 0.2335(5) 0.51467(18) 0.39396(15)
O3B O 0.7118(6) 0.61270(17) 0.47818(18)
H1B H 0.872(6) 0.610(3) 0.505(3)
C1B C 0.9927(7) 0.4848(2) 0.3774(2)
C2B C 0.8744(7) 0.4975(2) 0.2915(2)
C3B C 0.9322(7) 0.4465(2) 0.2285(2)
C4B C 0.8165(8) 0.4618(2) 0.1512(2)
C5B C 0.6429(8) 0.5262(2) 0.1365(2)
H2B H 0.5641 0.5355 0.0849
C6B C 0.5883(7) 0.5768(2) 0.2002(2)
C7B C 0.7030(7) 0.5629(2) 0.2768(2)
H3B H 0.6658 0.5974 0.3189
C8B C 0.5899(16) 0.6884(4) 0.4826(5)
H4B H 0.5876 0.7049 0.5383
H5B H 0.7041 0.7241 0.4520
H6B H 0.3954 0.6875 0.4606
loop_
_geom_bond_atom_site_label_1
_geom_bond_atom_site_label_2
_geom_bond_site_symmetry_1
_geom_bond_site_symmetry_2
Mn1 O1 1_555 1_555
I1 C3 1_555 1_555
I2 C4 1_555 1_555
I3 C6 1_555 1_555
O1 C1 1_555 1_555
O2 C1 1_555 1_555
O3 Mn1 1_555 1_555
H1 O3 1_555 1_555
C1 C2 1_555 1_555
C2 C3 1_555 1_555
C3 C4 1_555 1_555
C4 C5 1_555 1_555
C5 H2 1_555 1_555
C6 C5 1_555 1_555
C7 C2 1_555 1_555
H3 C7 1_555 1_555
C8 O3 1_555 1_555
H4 C8 1_555 1_555
H5 C8 1_555 1_555
H6 C8 1_555 1_555
Mn1_2 O2 1_555 1_555
Mn1_3 O2B 1_555 1_555
I1B C3B 1_555 1_555
I2B C4B 1_555 1_555
I3B C6B 1_555 1_555
O1B Mn1 1_555 1_555
O2B C1B 1_555 1_555
O2_2 Mn1 1_555 1_555
O2B_2 Mn1 1_555 1_555
O3B Mn1 1_555 1_555
H1B O3B 1_555 1_555
C1B O1B 1_555 1_555
C2B C1B 1_555 1_555
C3B C2B 1_555 1_555
C4B C3B 1_555 1_555
C5B C4B 1_555 1_555
H2B C5B 1_555 1_555
C6B C5B 1_555 1_555
C7B C2B 1_555 1_555
H3B C7B 1_555 1_555
C8B O3B 1_555 1_555
H4B C8B 1_555 1_555
H5B C8B 1_555 1_555
H6B C8B 1_555 1_555
C6 C7 1_555 1_555
C6B C7B 1_555 1_555

#END
