
#######################################################################
#
#                 Cambridge Crystallographic Data Centre
#                                CCDC 
#
#######################################################################
#
# If this CIF has been generated from an entry in the Cambridge 
# Structural Database, then it will include bibliographic, chemical, 
# crystal, experimental, refinement or atomic coordinate data resulting 
# from the CCDC's data processing and validation procedures.
#
#######################################################################

data_COCZAW
_symmetry_cell_setting           monoclinic
_symmetry_space_group_name_H-M   'P 21/n'
_symmetry_Int_Tables_number      14
_space_group_name_Hall           '-P 2yn'
loop_
_symmetry_equiv_pos_site_id
_symmetry_equiv_pos_as_xyz
1 x,y,z
2 1/2-x,1/2+y,1/2-z
3 -x,-y,-z
4 1/2+x,1/2-y,1/2+z
_cell_length_a                   9.835
_cell_length_b                   25.670
_cell_length_c                   11.334
_cell_angle_alpha                90
_cell_angle_beta                 94.46
_cell_angle_gamma                90
_cell_volume                     2852.77
loop_
_atom_site_label
_atom_site_type_symbol
_atom_site_fract_x
_atom_site_fract_y
_atom_site_fract_z
Zn1 Zn 0.38401(4) 0.218212(18) 0.02584(4)
Cl1 Cl 0.50934(12) 0.26401(5) 0.16342(12)
Cl2 Cl 0.37283(11) 0.13269(4) 0.06304(13)
N1 N 0.1856(4) 0.24052(13) 0.0543(4)
C1 C 0.0242(4) 0.25743(15) 0.1982(4)
C2 C -0.0800(4) 0.24463(15) 0.1179(4)
H1 H -0.1691 0.2447 0.1400
C7 C 0.1578(4) 0.25507(16) 0.1646(4)
H2 H 0.2295 0.2637 0.2195
C9 C 0.0829(5) 0.22915(17) -0.0230(5)
H5 H 0.1028 0.2191 -0.0986
C18 C -0.0541(4) 0.23123(16) 0.0015(4)
H13 H -0.1243 0.2241 -0.0561
O1 O 0.0968(4) 0.29304(18) 0.3850(4)
C27 C 0.0055(5) 0.27205(18) 0.3259(5)
O2 O -0.1111(3) 0.26034(13) 0.3599(3)
Zn1C Zn -0.11599(4) 0.281788(18) 0.52584(4)
O2C O 0.3889(3) 0.23966(13) -0.1401(3)
P1 P 0.13092(10) 0.40470(4) -0.12497(11)
C3 C -0.0156(4) 0.38181(14) -0.0551(4)
C4 C 0.2975(4) 0.37030(15) -0.2971(5)
C5 C 0.2561(4) 0.42636(16) -0.0126(4)
C6 C 0.0805(4) 0.45795(14) -0.2192(4)
C8 C 0.2001(4) 0.35154(15) -0.2079(4)
H3 H 0.2480 0.3276 -0.1530
H4 H 0.1255 0.3327 -0.2494
C10 C 0.4333(4) 0.38122(17) -0.2603(5)
H6 H 0.4660 0.3761 -0.1819
C11 C 0.1765(4) 0.48549(16) -0.2806(4)
H7 H 0.2682 0.4764 -0.2709
C12 C 0.1354(5) 0.52588(18) -0.3549(5)
H8 H 0.1997 0.5439 -0.3950
C13 C -0.2353(5) 0.34096(18) -0.0721(6)
H9 H -0.3033 0.3231 -0.1171
C14 C -0.0327(5) 0.39428(16) 0.0623(5)
H10 H 0.0346 0.4122 0.1080
F1 F 0.5530(3) 0.42573(17) -0.5361(4)
C15 C 0.5190(5) 0.3999(2) -0.3431(6)
H11 H 0.6098 0.4076 -0.3206
C16 C 0.2524(4) 0.37643(18) -0.4125(5)
H12 H 0.1629 0.3678 -0.4372
C17 C 0.4696(5) 0.4067(2) -0.4552(6)
C19 C -0.0547(4) 0.47296(17) -0.2360(4)
H14 H -0.1201 0.4553 -0.1964
C20 C -0.1157(4) 0.35468(17) -0.1220(5)
H15 H -0.1030 0.3457 -0.1999
C21 C -0.2534(5) 0.35343(18) 0.0418(6)
H16 H -0.3341 0.3445 0.0744
C22 C 0.3267(5) 0.39011(19) 0.0613(5)
H17 H 0.3125 0.3547 0.0483
C23 C 0.3383(5) 0.3954(2) -0.4944(5)
H18 H 0.3072 0.4003 -0.5732
C24 C 0.0008(5) 0.53967(19) -0.3703(5)
H19 H -0.0265 0.5667 -0.4213
C25 C -0.1525(6) 0.37931(19) 0.1095(6)
H20 H -0.1649 0.3869 0.1882
C26 C -0.0940(5) 0.51337(19) -0.3099(5)
H21 H -0.1853 0.5231 -0.3193
C28 C 0.2805(5) 0.47909(17) 0.0078(5)
H22 H 0.2354 0.5038 -0.0407
C29 C 0.4162(6) 0.4062(2) 0.1524(6)
H23 H 0.4617 0.3817 0.2013
C30 C 0.4387(5) 0.4579(3) 0.1715(5)
H24 H 0.4999 0.4685 0.2335
C31 C 0.3719(5) 0.4948(2) 0.1000(5)
H25 H 0.3882 0.5301 0.1136
loop_
_geom_bond_atom_site_label_1
_geom_bond_atom_site_label_2
_geom_bond_site_symmetry_1
_geom_bond_site_symmetry_2
Zn1 Cl1 1_555 1_555
P1 C3 1_555 1_555
Cl2 Zn1 1_555 1_555
N1 Zn1 1_555 1_555
C1 C2 1_555 1_555
C2 H1 1_555 1_555
C3 C14 1_555 1_555
C4 C8 1_555 1_555
C5 P1 1_555 1_555
C6 P1 1_555 1_555
C7 N1 1_555 1_555
H2 C7 1_555 1_555
C8 P1 1_555 1_555
H3 C8 1_555 1_555
H4 C8 1_555 1_555
C9 N1 1_555 1_555
H5 C9 1_555 1_555
C10 C4 1_555 1_555
H6 C10 1_555 1_555
C11 C6 1_555 1_555
H7 C11 1_555 1_555
C12 C11 1_555 1_555
H8 C12 1_555 1_555
C13 H9 1_555 1_555
C14 H10 1_555 1_555
F1 C17 1_555 1_555
C15 C10 1_555 1_555
H11 C15 1_555 1_555
C16 C4 1_555 1_555
H12 C16 1_555 1_555
C17 C15 1_555 1_555
C18 C2 1_555 1_555
H13 C18 1_555 1_555
C19 C6 1_555 1_555
H14 C19 1_555 1_555
C20 C3 1_555 1_555
H15 C20 1_555 1_555
C21 C13 1_555 1_555
H16 C21 1_555 1_555
C22 C5 1_555 1_555
H17 C22 1_555 1_555
C23 C16 1_555 1_555
H18 C23 1_555 1_555
C24 C12 1_555 1_555
H19 C24 1_555 1_555
C25 C14 1_555 1_555
H20 C25 1_555 1_555
C26 C19 1_555 1_555
H21 C26 1_555 1_555
O1 C27 1_555 1_555
C27 C1 1_555 1_555
C28 C5 1_555 1_555
H22 C28 1_555 1_555
C29 C22 1_555 1_555
H23 C29 1_555 1_555
C30 C29 1_555 1_555
H24 C30 1_555 1_555
C31 C28 1_555 1_555
H25 C31 1_555 1_555
O2 C27 1_555 1_555
Zn1C O2 1_555 1_555
O2C Zn1 1_555 1_555
C1 C7 1_555 1_555
C9 C18 1_555 1_555
C13 C20 1_555 1_555
C17 C23 1_555 1_555
C21 C25 1_555 1_555
C24 C26 1_555 1_555
C30 C31 1_555 1_555

#END
