
#######################################################################
#
#                 Cambridge Crystallographic Data Centre
#                                CCDC 
#
#######################################################################
#
# If this CIF has been generated from an entry in the Cambridge 
# Structural Database, then it will include bibliographic, chemical, 
# crystal, experimental, refinement or atomic coordinate data resulting 
# from the CCDC's data processing and validation procedures.
#
#######################################################################

data_CODCAB
_symmetry_cell_setting           monoclinic
_symmetry_space_group_name_H-M   'C 2/c'
_symmetry_Int_Tables_number      15
_space_group_name_Hall           '-C 2yn'
loop_
_symmetry_equiv_pos_site_id
_symmetry_equiv_pos_as_xyz
1 x,y,z
2 -x,y,1/2-z
3 1/2+x,1/2+y,z
4 1/2-x,1/2+y,1/2-z
5 -x,-y,-z
6 x,-y,1/2+z
7 1/2-x,1/2-y,-z
8 1/2+x,1/2-y,1/2+z
_cell_length_a                   23.065(13)
_cell_length_b                   29.487(16)
_cell_length_c                   27.410(15)
_cell_angle_alpha                90
_cell_angle_beta                 100.372(13)
_cell_angle_gamma                90
_cell_volume                     18337.4
loop_
_atom_site_label
_atom_site_type_symbol
_atom_site_fract_x
_atom_site_fract_y
_atom_site_fract_z
Mn1 Mn 0.55419(4) 0.75520(3) 0.71163(3)
Mn2 Mn 0.19736(4) 0.50085(3) 0.53970(3)
Mn3 Mn 0.31191(4) 0.49880(3) 0.46975(3)
Mn4 Mn 0.05783(4) 0.25473(3) 0.21731(3)
C1 C 0.3533(3) 0.5878(2) 0.6483(2)
C2 C 0.3378(2) 0.59793(18) 0.5969(2)
C3 C 0.4355(3) 0.5011(2) 0.4358(2)
C4 C 0.1866(3) 0.2469(2) 0.1925(2)
C5 C 0.3945(3) 0.6175(2) 0.6791(2)
C6 C 0.1732(3) 0.5905(2) 0.4011(2)
C7 C 0.4124(3) 0.4585(2) 0.4161(2)
C8 C 0.3507(3) 0.4063(2) 0.5960(2)
C9 C 0.2958(3) 0.5667(2) 0.5628(2)
C10 C 0.4224(3) 0.3406(2) 0.6525(3)
C11 C 0.4241(3) 0.5662(2) 0.4805(3)
H1 H 0.4012 0.5841 0.4976
C12 C 0.4937(3) 0.5140(2) 0.4313(2)
C13 C 0.1221(3) 0.3719(2) 0.4278(2)
H2 H 0.1194 0.3668 0.4609
C14 C 0.3589(3) 0.3636(2) 0.5746(2)
C15 C 0.2103(3) 0.5552(2) 0.4329(2)
C16 C 0.1563(2) 0.40686(19) 0.4165(2)
C17 C 0.3947(3) 0.3307(2) 0.6027(3)
C18 C 0.4553(2) 0.6916(2) 0.6876(2)
C19 C 0.1640(3) 0.2874(2) 0.1664(2)
C20 C 0.0942(2) 0.3500(2) 0.3433(2)
C21 C 0.4141(3) 0.6054(2) 0.7294(2)
H3 H 0.4407 0.6241 0.7495
C22 C 0.4163(3) 0.6563(2) 0.6566(2)
C23 C 0.1535(3) 0.5806(2) 0.3527(2)
H4 H 0.1628 0.5530 0.3396
C24 C 0.3173(3) 0.4427(2) 0.5651(2)
C25 C 0.4812(3) 0.5815(2) 0.4768(3)
H5 H 0.4952 0.6090 0.4909
C26 C 0.1880(2) 0.43674(19) 0.4585(2)
C27 C 0.4009(3) 0.66318(19) 0.6067(2)
H6 H 0.4165 0.6878 0.5923
C28 C 0.1274(3) 0.3869(2) 0.3283(2)
C29 C 0.2020(3) 0.3135(3) 0.1421(3)
C30 C 0.1613(3) 0.6329(2) 0.4205(2)
C31 C 0.1713(3) 0.1874(2) 0.2433(3)
H7 H 0.1469 0.1716 0.2610
C32 C 0.4468(3) 0.4292(2) 0.3939(2)
C33 C 0.2659(3) 0.1945(3) 0.2202(3)
H8 H 0.3042 0.1845 0.2209
C34 C 0.6777(3) 0.7460(3) 0.6747(2)
C35 C 0.6523(3) 0.7858(3) 0.6487(3)
C36 C 0.1594(2) 0.4151(2) 0.3650(3)
C37 C 0.4122(3) 0.3812(2) 0.6717(2)
H9 H 0.4302 0.3879 0.7041
C38 C 0.6679(3) 0.6873(3) 0.7277(3)
H10 H 0.6455 0.6716 0.7473
C39 C 0.4234(3) 0.3862(3) 0.3783(3)
H11 H 0.4455 0.3655 0.3637
C40 C 0.3620(3) 0.6337(2) 0.5770(2)
H12 H 0.3526 0.6389 0.5431
C41 C 0.2620(4) 0.2976(3) 0.1439(3)
H13 H 0.2875 0.3146 0.1285
C42 C 0.0914(3) 0.3439(2) 0.3919(2)
H14 H 0.0686 0.3205 0.4011
C43 C 0.7362(4) 0.7314(4) 0.6708(4)
C44 C 0.0752(3) 0.5184(3) 0.5736(3)
C45 C 0.2454(3) 0.2333(3) 0.1932(3)
C46 C 0.1930(3) 0.4515(2) 0.3497(3)
H15 H 0.2139 0.4708 0.3734
C47 C 0.5054(3) 0.4439(2) 0.3887(2)
H16 H 0.5285 0.4253 0.3725
C48 C 0.5155(3) 0.5554(3) 0.4523(3)
H17 H 0.5531 0.5650 0.4495
C49 C 0.0750(3) 0.5553(3) 0.5002(3)
H18 H 0.0950 0.5640 0.4752
C50 C 0.3352(3) 0.4074(2) 0.4068(2)
H19 H 0.2971 0.3996 0.4105
C51 C 0.2298(3) 0.1715(3) 0.2454(3)
H20 H 0.2432 0.1458 0.2638
C52 C 0.0880(3) 0.3378(2) 0.1450(3)
H21 H 0.0492 0.3463 0.1455
C53 C 0.0619(3) 0.3152(2) 0.3059(2)
C54 C 0.1949(4) 0.4581(3) 0.3011(3)
H22 H 0.2184 0.4812 0.2922
C55 C 0.3751(3) 0.4139(2) 0.6447(2)
H23 H 0.3672 0.4408 0.6599
C56 C 0.7255(4) 0.6709(4) 0.7251(4)
H24 H 0.7407 0.6453 0.7427
C57 C 0.2815(4) 0.2589(3) 0.1672(3)
H25 H 0.3195 0.2488 0.1661
C58 C 0.3530(4) 0.5393(3) 0.7195(3)
H26 H 0.3386 0.5140 0.7335
C59 C 0.3687(3) 0.3756(3) 0.3852(3)
H27 H 0.3529 0.3473 0.3756
C60 C -0.0120(4) 0.5568(4) 0.5330(4)
H28 H -0.0508 0.5664 0.5313
C61 C 0.3948(4) 0.5671(3) 0.7488(3)
H29 H 0.4093 0.5593 0.7816
C62 C 0.7574(4) 0.6937(4) 0.6962(4)
H30 H 0.7948 0.6832 0.6936
C63 C 0.6866(4) 0.8109(4) 0.6196(4)
C64 C 0.0140(4) 0.5303(4) 0.5731(4)
C65 C 0.3297(4) 0.3523(2) 0.5256(2)
H31 H 0.3073 0.3742 0.5063
C66 C 0.4623(3) 0.3062(2) 0.6842(2)
C67 C 0.1292(4) 0.3963(3) 0.2772(3)
H32 H 0.1072 0.3784 0.2526
C68 C 0.3331(4) 0.5489(2) 0.6710(3)
H33 H 0.3059 0.5297 0.6522
C69 C 0.1874(5) 0.6454(3) 0.4697(3)
H34 H 0.2108 0.6247 0.4901
C70 C 0.1623(4) 0.4310(3) 0.2637(3)
H35 H 0.1633 0.4365 0.2305
C71 C 0.7434(4) 0.7940(4) 0.6154(4)
H36 H 0.7648 0.8092 0.5947
C72 C 0.5266(3) 0.4838(3) 0.4067(3)
H37 H 0.5644 0.4921 0.4029
C73 C 0.1798(4) 0.3536(3) 0.1209(3)
H38 H 0.2039 0.3724 0.1060
C74 C 0.1951(4) 0.4612(3) 0.6534(3)
H39 H 0.2337 0.4530 0.6523
C75 C 0.4001(4) 0.2870(3) 0.5815(3)
H40 H 0.4247 0.2653 0.5991
C76 C 0.0804(4) 0.4842(4) 0.6568(4)
C77 C 0.0164(4) 0.5691(4) 0.4968(4)
H41 H -0.0021 0.5864 0.4701
C78 C 0.1226(4) 0.3663(3) 0.1213(3)
H42 H 0.1074 0.3930 0.1063
C79 C 0.7677(4) 0.7571(4) 0.6400(4)
H43 H 0.8055 0.7482 0.6368
C80 C 0.6604(4) 0.8505(4) 0.5970(4)
H44 H 0.6807 0.8678 0.5772
C81 C 0.3341(4) 0.3103(3) 0.5070(3)
H45 H 0.3140 0.3033 0.4753
C82 C 0.5754(4) 0.8362(3) 0.6335(3)
H46 H 0.5382 0.8455 0.6382
C83 C -0.0120(4) 0.5189(3) 0.6138(4)
H47 H -0.0510 0.5272 0.6135
C84 C 0.1784(5) 0.6871(3) 0.4868(3)
H48 H 0.1953 0.6947 0.5192
C85 C 0.3689(5) 0.2770(3) 0.5352(4)
H49 H 0.3708 0.2480 0.5223
C86 C 0.6053(4) 0.8639(4) 0.6036(4)
H50 H 0.5881 0.8902 0.5889
C87 C 0.1142(4) 0.4624(4) 0.6961(4)
H51 H 0.0974 0.4546 0.7234
C88 C 0.1729(4) 0.4516(4) 0.6965(4)
H52 H 0.1964 0.4386 0.7241
C89 C 0.1061(4) 0.4939(3) 0.6148(3)
C90 C 0.0185(4) 0.4958(4) 0.6546(4)
H53 H -0.0005 0.4877 0.6805
C91 C 0.1183(3) 0.6132(2) 0.3223(3)
H54 H 0.1047 0.6061 0.2891
C92 C 0.1040(3) 0.6537(2) 0.3396(2)
C93 C 0.1254(3) 0.6641(2) 0.3897(2)
C94 C 0.1166(5) 0.7078(3) 0.4092(3)
H55 H 0.0923 0.7285 0.3897
C95 C 0.1436(5) 0.7199(3) 0.4566(3)
H56 H 0.1391 0.7490 0.4686
C96 C 0.0661(3) 0.6857(2) 0.3040(2)
N1 N 0.4016(2) 0.52760(17) 0.46060(19)
N2 N 0.1497(2) 0.22345(17) 0.2174(2)
N3 N 0.3561(2) 0.44808(17) 0.42213(19)
N4 N 0.1079(2) 0.29884(19) 0.1670(2)
N5 N 0.5967(2) 0.79821(19) 0.6552(2)
N6 N 0.6445(2) 0.72423(18) 0.7032(2)
N7 N 0.1036(2) 0.53018(19) 0.5374(2)
N8 N 0.1634(3) 0.4818(2) 0.6133(2)
O1 O 0.25758(19) 0.54192(15) 0.41962(16)
O2 O 0.24780(18) 0.55606(15) 0.57491(16)
O3 O 0.2683(2) 0.45562(16) 0.57391(16)
O4 O 0.1904(2) 0.54086(15) 0.46952(16)
O5 O 0.16073(19) 0.44619(15) 0.49235(16)
O6 O 0.34362(19) 0.45900(16) 0.53208(16)
O7 O 0.31367(19) 0.55452(15) 0.52440(17)
O8 O 0.0909(2) 0.30189(15) 0.27421(17)
O9 O 0.23992(18) 0.44780(14) 0.45620(16)
O10 O 0.50221(18) 0.70173(15) 0.67256(16)
O11 O 0.5078(2) 0.29382(18) 0.66995(18)
O12 O 0.4415(2) 0.29301(17) 0.72037(18)
O13 O 0.0131(2) 0.30193(18) 0.3118(2)
O14 O 0.4365(2) 0.70800(16) 0.72323(17)
O15 O 0.08556(19) 0.69458(16) 0.26539(16)
O16 O 0.02048(19) 0.70083(16) 0.31603(17)
Mn1A Mn 0.44581(4) 0.75520(3) 0.78837(3)
Mn1F Mn -0.05419(4) 0.74480(3) 0.28837(3)
Mn1G Mn 0.05419(4) 0.74480(3) 0.21163(3)
Mn4A Mn -0.05783(4) 0.25473(3) 0.28269(3)
Mn4F Mn 0.44217(4) 0.24527(3) 0.78269(3)
Mn4G Mn 0.55783(4) 0.24527(3) 0.71731(3)
O11G O 0.0078(2) 0.20618(18) 0.16995(18)
O12F O 0.0585(2) 0.20699(17) 0.27963(18)
O13A O -0.0131(2) 0.30193(18) 0.1882(2)
O14A O 0.5635(2) 0.70800(16) 0.77677(17)
O15G O 0.58556(19) 0.80542(16) 0.76539(16)
O16F O 0.47952(19) 0.79917(16) 0.68397(17)
loop_
_geom_bond_atom_site_label_1
_geom_bond_atom_site_label_2
_geom_bond_site_symmetry_1
_geom_bond_site_symmetry_2
Mn1 N5 1_555 1_555
Mn2 N7 1_555 1_555
Mn3 N1 1_555 1_555
Mn4 N2 1_555 1_555
C1 C2 1_555 1_555
C2 C9 1_555 1_555
C3 C7 1_555 1_555
C4 C19 1_555 1_555
C5 C1 1_555 1_555
C6 C15 1_555 1_555
C7 C32 1_555 1_555
C8 C14 1_555 1_555
C9 O2 1_555 1_555
C10 C17 1_555 1_555
C11 H1 1_555 1_555
C12 C3 1_555 1_555
C13 H2 1_555 1_555
C14 C17 1_555 1_555
C15 O1 1_555 1_555
C16 C13 1_555 1_555
C17 C75 1_555 1_555
C18 C22 1_555 1_555
C19 C29 1_555 1_555
C20 C28 1_555 1_555
C21 C5 1_555 1_555
H3 C21 1_555 1_555
C22 C5 1_555 1_555
C23 C6 1_555 1_555
H4 C23 1_555 1_555
C24 C8 1_555 1_555
C25 C11 1_555 1_555
H5 C25 1_555 1_555
C26 C16 1_555 1_555
C27 C22 1_555 1_555
H6 C27 1_555 1_555
C28 C36 1_555 1_555
C29 C41 1_555 1_555
C30 C6 1_555 1_555
C31 H7 1_555 1_555
C32 C39 1_555 1_555
C33 H8 1_555 1_555
C34 C35 1_555 1_555
C35 C63 1_555 1_555
C36 C16 1_555 1_555
C37 C10 1_555 1_555
H9 C37 1_555 1_555
C38 H10 1_555 1_555
C39 H11 1_555 1_555
C40 C2 1_555 1_555
H12 C40 1_555 1_555
C41 H13 1_555 1_555
C42 C13 1_555 1_555
H14 C42 1_555 1_555
C43 C34 1_555 1_555
C44 C64 1_555 1_555
C45 C4 1_555 1_555
C46 C36 1_555 1_555
H15 C46 1_555 1_555
C47 C32 1_555 1_555
H16 C47 1_555 1_555
C48 C12 1_555 1_555
H17 C48 1_555 1_555
C49 H18 1_555 1_555
C50 H19 1_555 1_555
C51 C31 1_555 1_555
H20 C51 1_555 1_555
C52 H21 1_555 1_555
C53 C20 1_555 1_555
C54 C46 1_555 1_555
H22 C54 1_555 1_555
C55 C8 1_555 1_555
H23 C55 1_555 1_555
C56 C38 1_555 1_555
H24 C56 1_555 1_555
C57 C41 1_555 1_555
H25 C57 1_555 1_555
C58 H26 1_555 1_555
C59 C39 1_555 1_555
H27 C59 1_555 1_555
C60 H28 1_555 1_555
C61 C21 1_555 1_555
H29 C61 1_555 1_555
C62 C43 1_555 1_555
H30 C62 1_555 1_555
C63 C71 1_555 1_555
C64 C60 1_555 1_555
C65 C14 1_555 1_555
H31 C65 1_555 1_555
C66 C10 1_555 1_555
C67 C28 1_555 1_555
H32 C67 1_555 1_555
C68 C1 1_555 1_555
H33 C68 1_555 1_555
C69 C30 1_555 1_555
H34 C69 1_555 1_555
C70 C54 1_555 1_555
H35 C70 1_555 1_555
C71 H36 1_555 1_555
C72 C12 1_555 1_555
H37 C72 1_555 1_555
C73 C29 1_555 1_555
H38 C73 1_555 1_555
C74 H39 1_555 1_555
C75 H40 1_555 1_555
C76 C87 1_555 1_555
C77 C49 1_555 1_555
H41 C77 1_555 1_555
C78 C52 1_555 1_555
H42 C78 1_555 1_555
C79 C43 1_555 1_555
H43 C79 1_555 1_555
C80 C63 1_555 1_555
H44 C80 1_555 1_555
C81 C65 1_555 1_555
H45 C81 1_555 1_555
C82 H46 1_555 1_555
C83 C64 1_555 1_555
H47 C83 1_555 1_555
C84 C69 1_555 1_555
H48 C84 1_555 1_555
C85 C75 1_555 1_555
H49 C85 1_555 1_555
C86 C80 1_555 1_555
H50 C86 1_555 1_555
C87 H51 1_555 1_555
C88 C74 1_555 1_555
H52 C88 1_555 1_555
C89 C44 1_555 1_555
C90 C76 1_555 1_555
H53 C90 1_555 1_555
C91 C23 1_555 1_555
H54 C91 1_555 1_555
C92 C91 1_555 1_555
C93 C30 1_555 1_555
C94 C93 1_555 1_555
H55 C94 1_555 1_555
C95 C84 1_555 1_555
H56 C95 1_555 1_555
C96 C92 1_555 1_555
N1 C3 1_555 1_555
N2 C4 1_555 1_555
N3 Mn3 1_555 1_555
N4 Mn4 1_555 1_555
N5 C35 1_555 1_555
N6 Mn1 1_555 1_555
N7 C44 1_555 1_555
N8 Mn2 1_555 1_555
O1 Mn3 1_555 1_555
O2 Mn2 1_555 1_555
O3 Mn2 1_555 1_555
O4 Mn2 1_555 1_555
O5 Mn2 1_555 1_555
O6 Mn3 1_555 1_555
O7 Mn3 1_555 1_555
O8 Mn4 1_555 1_555
O9 Mn3 1_555 1_555
O10 Mn1 1_555 1_555
O11 C66 1_555 1_555
O12 C66 1_555 1_555
O13 C53 1_555 1_555
O14 C18 1_555 1_555
O15 C96 1_555 1_555
O16 C96 1_555 1_555
Mn1A O14 1_555 1_555
Mn1F O16 1_555 1_555
Mn1G O15 1_555 1_555
Mn4A O13 1_555 1_555
Mn4F O12 1_555 1_555
Mn4G O11 1_555 1_555
O11G Mn4 1_555 1_555
O12F Mn4 1_555 1_555
O13A Mn4 1_555 1_555
O14A Mn1 1_555 1_555
O15G Mn1 1_555 1_555
O16F Mn1 1_555 1_555
C7 N3 1_555 1_555
C9 O7 1_555 1_555
C11 N1 1_555 1_555
C15 O4 1_555 1_555
C18 O10 1_555 1_555
C19 N4 1_555 1_555
C20 C42 1_555 1_555
C24 O3 1_555 1_555
C24 O6 1_555 1_555
C25 C48 1_555 1_555
C26 O5 1_555 1_555
C26 O9 1_555 1_555
C27 C40 1_555 1_555
C31 N2 1_555 1_555
C33 C45 1_555 1_555
C33 C51 1_555 1_555
C34 N6 1_555 1_555
C37 C55 1_555 1_555
C38 N6 1_555 1_555
C45 C57 1_555 1_555
C47 C72 1_555 1_555
C49 N7 1_555 1_555
C50 C59 1_555 1_555
C50 N3 1_555 1_555
C52 N4 1_555 1_555
C53 O8 1_555 1_555
C56 C62 1_555 1_555
C58 C61 1_555 1_555
C58 C68 1_555 1_555
C60 C77 1_555 1_555
C67 C70 1_555 1_555
C71 C79 1_555 1_555
C73 C78 1_555 1_555
C74 N8 1_555 1_555
C76 C89 1_555 1_555
C81 C85 1_555 1_555
C82 C86 1_555 1_555
C82 N5 1_555 1_555
C83 C90 1_555 1_555
C87 C88 1_555 1_555
C89 N8 1_555 1_555
C92 C93 1_555 1_555
C94 C95 1_555 1_555

#END
