
#######################################################################
#
#                 Cambridge Crystallographic Data Centre
#                                CCDC 
#
#######################################################################
#
# If this CIF has been generated from an entry in the Cambridge 
# Structural Database, then it will include bibliographic, chemical, 
# crystal, experimental, refinement or atomic coordinate data resulting 
# from the CCDC's data processing and validation procedures.
#
#######################################################################

data_CODFEH
_symmetry_cell_setting           tetragonal
_symmetry_space_group_name_H-M   'P 43'
_symmetry_Int_Tables_number      78
_space_group_name_Hall           'P 4cw'
loop_
_symmetry_equiv_pos_site_id
_symmetry_equiv_pos_as_xyz
1 x,y,z
2 -x,-y,1/2+z
3 -y,x,3/4+z
4 y,-x,1/4+z
_cell_length_a                   7.9539(9)
_cell_length_b                   7.9539(9)
_cell_length_c                   13.189(3)
_cell_angle_alpha                90
_cell_angle_beta                 90
_cell_angle_gamma                90
_cell_volume                     834.396
loop_
_atom_site_label
_atom_site_type_symbol
_atom_site_fract_x
_atom_site_fract_y
_atom_site_fract_z
Mn1 Mn -0.53510(6) 0.86462(6) 0.15777(3)
O1 O -0.7919(4) 1.3197(4) 0.2084(2)
O2 O -0.6826(3) 1.0957(3) 0.13568(17)
O3 O -0.3216(3) 1.3791(4) 0.47059(19)
O4 O -0.4837(3) 1.1631(3) 0.5006(2)
O5 O -0.5590(3) 0.9796(3) 0.30836(16)
H1 H -0.6110 0.9155 0.3493
O6 O -0.3102(4) 1.0197(4) 0.1397(2)
H2 H -0.2249 0.9564 0.1324
H3 H -0.3197 1.0795 0.0866
O7 O -0.7644(4) 0.7169(4) 0.1881(3)
H4 H -0.7803 0.7094 0.2517
H5 H -0.8490 0.7657 0.1619
C1 C -0.7074(4) 1.1899(4) 0.2096(3)
C2 C -0.6236(4) 1.1470(4) 0.3113(2)
H6 H -0.7084 1.1540 0.3650
C3 C -0.4837(4) 1.2718(4) 0.3346(2)
H7 H -0.3890 1.2478 0.2906
H8 H -0.5232 1.3840 0.3184
C4 C -0.4237(4) 1.2701(4) 0.4428(2)
Mn1C Mn -0.13538(6) 1.53510(6) 0.40777(3)
Mn1A Mn -0.46490(6) 1.13538(6) 0.65777(3)
O3B O -0.3791(4) 0.6784(3) 0.22059(19)
O4A O -0.5163(3) 0.8369(3) 0.0006(2)
O8 O 0.0041(9) 0.9128(9) 0.0584(9)
H9 H 0.0565 1.0004 0.0394
H10 H -0.0159 0.8547 0.0057
loop_
_geom_bond_atom_site_label_1
_geom_bond_atom_site_label_2
_geom_bond_site_symmetry_1
_geom_bond_site_symmetry_2
Mn1 O2 1_555 1_555
O1 C1 1_555 1_555
O2 C1 1_555 1_555
O3 C4 1_555 1_555
O4 C4 1_555 1_555
O5 Mn1 1_555 1_555
H1 O5 1_555 1_555
O6 Mn1 1_555 1_555
H2 O6 1_555 1_555
H3 O6 1_555 1_555
O7 Mn1 1_555 1_555
H4 O7 1_555 1_555
H5 O7 1_555 1_555
C1 C2 1_555 1_555
C2 O5 1_555 1_555
H6 C2 1_555 1_555
C3 C2 1_555 1_555
H7 C3 1_555 1_555
H8 C3 1_555 1_555
C4 C3 1_555 1_555
O8 H9 1_555 1_555
H10 O8 1_555 1_555
Mn1C O3 1_555 1_555
Mn1A O4 1_555 1_555
O3B Mn1 1_555 1_555
O4A Mn1 1_555 1_555

#END
