
#######################################################################
#
#                 Cambridge Crystallographic Data Centre
#                                CCDC 
#
#######################################################################
#
# If this CIF has been generated from an entry in the Cambridge 
# Structural Database, then it will include bibliographic, chemical, 
# crystal, experimental, refinement or atomic coordinate data resulting 
# from the CCDC's data processing and validation procedures.
#
#######################################################################

data_CODJOW
_symmetry_cell_setting           triclinic
_symmetry_space_group_name_H-M   'P -1'
_symmetry_Int_Tables_number      2
_space_group_name_Hall           '-P 1'
loop_
_symmetry_equiv_pos_site_id
_symmetry_equiv_pos_as_xyz
1 x,y,z
2 -x,-y,-z
_cell_length_a                   11.1208(9)
_cell_length_b                   11.5078(10)
_cell_length_c                   13.8841(13)
_cell_angle_alpha                83.981(6)
_cell_angle_beta                 67.507(6)
_cell_angle_gamma                62.065(5)
_cell_volume                     1444.34
loop_
_atom_site_label
_atom_site_type_symbol
_atom_site_fract_x
_atom_site_fract_y
_atom_site_fract_z
O10 O 0.464(2) 0.5628(16) 0.5225(17)
O10A O 0.536(2) 0.4372(16) 0.4775(17)
Cu1 Cu 0.31127(5) 0.93994(5) 0.32959(4)
Cu2 Cu 0.07996(5) 0.84025(5) 0.48897(4)
O1 O 0.1110(3) 0.9677(2) 0.3899(2)
H1 H 0.1000 0.9400 0.3416
O2 O 0.5233(3) 0.8747(3) 0.2809(2)
O3 O 0.5766(4) 0.7028(3) 0.1868(3)
O4 O 0.7588(4) 0.4593(3) 0.5238(3)
O5 O 0.9411(3) 0.2879(3) 0.4107(2)
O6 O 0.9582(3) 0.8049(3) 0.4384(2)
O7 O 1.0086(3) 0.8714(3) 0.2782(2)
N1 N 0.3172(3) 0.8923(3) 0.4761(3)
N2 N 0.2207(3) 0.8536(3) 0.5398(3)
N3 N 0.2998(4) 1.1092(3) 1.1584(3)
N4 N 0.3052(3) 0.9921(3) 1.1869(3)
C1 C 0.4087(4) 0.9015(4) 0.5090(3)
H2 H 0.4740 0.9303 0.4637
C2 C 0.4141(5) 0.8711(4) 0.6063(3)
H3 H 0.4819 0.8784 0.6255
C3 C 0.3172(4) 0.8298(4) 0.6746(3)
C4 C 0.2206(4) 0.8249(3) 0.6347(3)
H4 H 0.1513 0.7994 0.6785
C5 C 0.3008(5) 1.1398(4) 1.0646(3)
H5 H 0.2953 1.2215 1.0455
C6 C 0.3096(5) 1.0590(4) 0.9908(4)
H6 H 0.3123 1.0851 0.9246
C7 C 0.3140(4) 0.9397(4) 1.0199(3)
C8 C 0.3108(4) 0.9130(4) 1.1211(3)
H7 H 0.3126 0.8334 1.1439
C9 C 0.3171(4) 0.7863(4) 0.7811(3)
C10 C 0.3128(4) 0.8889(4) 0.8455(3)
H8 H 0.2231 0.9709 0.8565
H9 H 0.3954 0.9060 0.8070
C11 C 0.3190(4) 0.8420(3) 0.9516(3)
C12 C 0.4632(4) 0.7097(4) 0.9311(4)
H10 H 0.5475 0.7240 0.8916
H11 H 0.4702 0.6780 0.9972
C13 C 0.4641(5) 0.6063(4) 0.8697(4)
H12 H 0.5544 0.5231 0.8587
C14 C 0.4609(4) 0.6546(4) 0.7636(3)
H13 H 0.4646 0.5887 0.7228
H14 H 0.5459 0.6686 0.7253
C15 C 0.1851(4) 0.7604(4) 0.8429(3)
H15 H 0.0941 0.8412 0.8542
H16 H 0.1869 0.6948 0.8031
C16 C 0.1917(5) 0.7115(4) 0.9478(4)
H17 H 0.1066 0.6964 0.9867
C17 C 0.1865(4) 0.8171(4) 1.0107(3)
H18 H 0.0961 0.8985 1.0219
H19 H 0.1876 0.7877 1.0786
C18 C 0.3313(5) 0.5837(4) 0.9321(4)
H20 H 0.3332 0.5160 0.8946
H21 H 0.3346 0.5541 0.9995
C19 C 0.6115(5) 0.7561(4) 0.2355(4)
C20 C 0.8576(5) 0.4123(4) 0.4370(4)
C21 C 0.9717(4) 0.7993(4) 0.3432(3)
C22 C 0.7576(4) 0.6832(3) 0.2493(3)
C23 C 0.7396(4) 0.5861(3) 0.3338(3)
H22 H 0.6605 0.6357 0.3986
H23 H 0.7137 0.5273 0.3109
C24 C 0.8840(4) 0.5037(3) 0.3533(3)
C25 C 0.9187(4) 0.6009(4) 0.3923(3)
H24 H 0.8393 0.6495 0.4573
H25 H 1.0082 0.5519 0.4059
C26 C 0.9378(4) 0.6985(4) 0.3104(3)
C27 C 0.7954(4) 0.7760(3) 0.2901(3)
H26 H 0.8063 0.8384 0.2392
H27 H 0.7153 0.8257 0.3546
C28 C 0.8829(4) 0.6037(4) 0.1480(3)
H28 H 0.8601 0.5432 0.1237
H29 H 0.8952 0.6627 0.0942
C29 C 1.0243(4) 0.5264(4) 0.1687(3)
H30 H 1.1050 0.4772 0.1031
C30 C 1.0093(4) 0.4288(4) 0.2495(4)
H31 H 1.1008 0.3787 0.2604
H32 H 0.9886 0.3673 0.2243
C31 C 1.0628(4) 0.6185(4) 0.2090(3)
H33 H 1.1528 0.5667 0.2216
H34 H 1.0790 0.6780 0.1566
O8 O 0.2768(3) 1.1495(3) 0.3718(2)
H35 H 0.2709 1.1873 0.3166
H36 H 0.2027 1.1994 0.4241
O9 O 0.3185(4) 0.6818(3) 0.3117(3)
H37 H 0.4029 0.6776 0.2928
H38 H 0.3243 0.6081 0.3333
Cu1_2 Cu 0.31127(5) 0.93994(5) 1.32959(4)
Cu2_2 Cu 1.07996(5) 0.84025(5) 0.48897(4)
Cu2A Cu -0.07996(5) 1.15975(5) 0.51103(4)
Cu2A_2 Cu 0.92004(5) 0.15975(5) 0.51103(4)
O1A O -0.1110(3) 1.0323(2) 0.6101(2)
O5A O 0.0589(3) 0.7121(3) 0.5893(2)
O6_2 O -0.0418(3) 0.8049(3) 0.4384(2)
N4_2 N 0.3052(3) 0.9921(3) 0.1869(3)
loop_
_geom_bond_atom_site_label_1
_geom_bond_atom_site_label_2
_geom_bond_site_symmetry_1
_geom_bond_site_symmetry_2
Cu1 O1 1_555 1_555
Cu2 O1 1_555 1_555
O1 H1 1_555 1_555
O2 Cu1 1_555 1_555
O3 C19 1_555 1_555
O4 C20 1_555 1_555
O5 C20 1_555 1_555
O6 C21 1_555 1_555
O7 C21 1_555 1_555
N1 Cu1 1_555 1_555
N2 Cu2 1_555 1_555
N3 N4 1_555 1_555
N4 C8 1_555 1_555
C1 N1 1_555 1_555
H2 C1 1_555 1_555
C2 C1 1_555 1_555
H3 C2 1_555 1_555
C3 C2 1_555 1_555
C4 N2 1_555 1_555
H4 C4 1_555 1_555
C5 N3 1_555 1_555
H5 C5 1_555 1_555
C6 C5 1_555 1_555
H6 C6 1_555 1_555
C7 C6 1_555 1_555
C8 C7 1_555 1_555
H7 C8 1_555 1_555
C9 C3 1_555 1_555
C10 C9 1_555 1_555
H8 C10 1_555 1_555
H9 C10 1_555 1_555
C11 C7 1_555 1_555
C12 C11 1_555 1_555
H10 C12 1_555 1_555
H11 C12 1_555 1_555
C13 C12 1_555 1_555
H12 C13 1_555 1_555
C14 C9 1_555 1_555
H13 C14 1_555 1_555
H14 C14 1_555 1_555
C15 C9 1_555 1_555
H15 C15 1_555 1_555
H16 C15 1_555 1_555
C16 C15 1_555 1_555
H17 C16 1_555 1_555
C17 C11 1_555 1_555
H18 C17 1_555 1_555
H19 C17 1_555 1_555
C18 C13 1_555 1_555
H20 C18 1_555 1_555
H21 C18 1_555 1_555
C19 O2 1_555 1_555
C20 C24 1_555 1_555
C21 C26 1_555 1_555
C22 C19 1_555 1_555
C23 C22 1_555 1_555
H22 C23 1_555 1_555
H23 C23 1_555 1_555
C24 C23 1_555 1_555
C25 C24 1_555 1_555
H24 C25 1_555 1_555
H25 C25 1_555 1_555
C26 C25 1_555 1_555
C27 C22 1_555 1_555
H26 C27 1_555 1_555
H27 C27 1_555 1_555
C28 C22 1_555 1_555
H28 C28 1_555 1_555
H29 C28 1_555 1_555
C29 C28 1_555 1_555
H30 C29 1_555 1_555
C30 C24 1_555 1_555
H31 C30 1_555 1_555
H32 C30 1_555 1_555
C31 C26 1_555 1_555
H33 C31 1_555 1_555
H34 C31 1_555 1_555
O8 Cu1 1_555 1_555
H35 O8 1_555 1_555
H36 O8 1_555 1_555
O9 Cu2 1_555 1_555
H37 O9 1_555 1_555
H38 O9 1_555 1_555
O10 O10A 1_555 1_555
Cu1_2 N4 1_555 1_555
Cu2_2 O6 1_555 1_555
Cu2A O1 1_555 1_555
Cu2A_2 O5 1_555 1_555
O1A Cu2 1_555 1_555
O5A Cu2 1_555 1_555
O6_2 Cu2 1_555 1_555
N4_2 Cu1 1_555 1_555
N1 N2 1_555 1_555
C3 C4 1_555 1_555
C10 C11 1_555 1_555
C13 C14 1_555 1_555
C16 C17 1_555 1_555
C16 C18 1_555 1_555
C26 C27 1_555 1_555
C29 C30 1_555 1_555
C29 C31 1_555 1_555
Cu2A O1A 1_555 1_555

#END
