
#######################################################################
#
#                 Cambridge Crystallographic Data Centre
#                                CCDC 
#
#######################################################################
#
# If this CIF has been generated from an entry in the Cambridge 
# Structural Database, then it will include bibliographic, chemical, 
# crystal, experimental, refinement or atomic coordinate data resulting 
# from the CCDC's data processing and validation procedures.
#
#######################################################################

data_CODKOX
_symmetry_cell_setting           monoclinic
_symmetry_space_group_name_H-M   'P 21/c'
_symmetry_Int_Tables_number      14
_space_group_name_Hall           '-P 2ybc'
loop_
_symmetry_equiv_pos_site_id
_symmetry_equiv_pos_as_xyz
1 x,y,z
2 -x,1/2+y,1/2-z
3 -x,-y,-z
4 x,1/2-y,1/2+z
_cell_length_a                   12.0700(9)
_cell_length_b                   16.6000(12)
_cell_length_c                   8.8690(6)
_cell_angle_alpha                90
_cell_angle_beta                 109.3410(10)
_cell_angle_gamma                90
_cell_volume                     1676.72
loop_
_atom_site_label
_atom_site_type_symbol
_atom_site_fract_x
_atom_site_fract_y
_atom_site_fract_z
Gd1 Gd 0.54733(2) 0.11787(2) 0.56700(2)
O1 O 0.8023(2) 0.02227(17) 0.2335(3)
O2 O 0.5580(2) -0.01378(15) 0.3685(3)
O3 O 0.6715(2) 0.09079(13) 0.4003(3)
O4 O 0.32034(18) -0.01703(12) 0.3030(3)
O5 O 0.3703(2) 0.11366(11) 0.3405(3)
O6 O 0.15172(17) 0.15065(12) 0.1264(2)
O7 O -0.27406(17) 0.21740(11) -0.3417(2)
O8 O -0.39939(19) 0.35584(12) -0.6498(2)
O9 O -0.45523(19) 0.23494(13) -0.5949(3)
O10 O 0.4073(2) 0.21069(17) 0.6160(3)
H1 H 0.4340 0.2405 0.6980
H2 H 0.3494 0.2368 0.5545
C1 C 0.9003(3) -0.0437(2) 0.4913(5)
H3 H 0.8337 -0.0732 0.4866
C2 C 0.8973(3) 0.0094(2) 0.3694(4)
C3 C 0.9974(3) 0.0529(2) 0.3798(4)
H4 H 0.9960 0.0889 0.2989
C4 C 0.6933(3) -0.0128(2) 0.2256(5)
H5 H 0.7049 -0.0701 0.2473
H6 H 0.6387 -0.0067 0.1179
C5 C 0.6398(2) 0.02352(18) 0.3411(4)
C6 C 0.3061(2) 0.05629(17) 0.2703(3)
C7 C 0.1989(3) 0.07252(17) 0.1258(4)
H7 H 0.2199 0.0661 0.0299
H8 H 0.1391 0.0329 0.1223
C8 C 0.0471(2) 0.16613(17) 0.0049(3)
C9 C -0.0021(3) 0.11405(17) -0.1214(4)
H9 H 0.0358 0.0662 -0.1289
C10 C -0.1080(3) 0.13341(17) -0.2365(4)
H10 H -0.1410 0.0987 -0.3219
C11 C -0.1645(2) 0.20400(17) -0.2248(3)
C12 C -0.1152(3) 0.25721(18) -0.1022(4)
H11 H -0.1529 0.3054 -0.0965
C13 C -0.0086(3) 0.23826(18) 0.0131(4)
H12 H 0.0256 0.2741 0.0961
C14 C -0.2962(3) 0.29875(17) -0.4003(3)
H13 H -0.2251 0.3222 -0.4096
H14 H -0.3214 0.3314 -0.3271
C15 C -0.3905(2) 0.29627(17) -0.5612(3)
O1B O 1.1977(2) -0.02227(17) 0.7665(3)
O2B O 1.4420(2) 0.01378(15) 0.6315(3)
O3B O 1.3285(2) -0.09079(13) 0.5997(3)
C1B C 1.0997(3) 0.0437(2) 0.5087(5)
H3B H 1.1663 0.0732 0.5134
C2B C 1.1027(3) -0.0094(2) 0.6306(4)
C3B C 1.0026(3) -0.0529(2) 0.6202(4)
H4B H 1.0040 -0.0889 0.7011
C4B C 1.3067(3) 0.0128(2) 0.7744(5)
H5B H 1.2951 0.0701 0.7527
H6B H 1.3613 0.0067 0.8821
C5B C 1.3602(2) -0.02352(18) 0.6589(4)
Gd1B Gd 0.45267(2) -0.11787(2) 0.43300(2)
O4B O 0.67966(18) 0.01703(12) 0.6970(3)
O5B O 0.6297(2) -0.11366(11) 0.6595(3)
O6B O 0.84828(17) -0.15065(12) 0.8736(2)
O7B O 1.27406(17) -0.21740(11) 1.3417(2)
O8B O 1.39939(19) -0.35584(12) 1.6498(2)
O9B O 1.45523(19) -0.23494(13) 1.5949(3)
O10B O 0.5927(2) -0.21069(17) 0.3840(3)
H1B H 0.5660 -0.2405 0.3020
H2B H 0.6506 -0.2368 0.4455
C6B C 0.6939(2) -0.05629(17) 0.7297(3)
C7B C 0.8011(3) -0.07252(17) 0.8742(4)
H7B H 0.7801 -0.0661 0.9701
H8B H 0.8609 -0.0329 0.8777
C8B C 0.9529(2) -0.16613(17) 0.9951(3)
C9B C 1.0021(3) -0.11405(17) 1.1214(4)
H9B H 0.9642 -0.0662 1.1289
C10B C 1.1080(3) -0.13341(17) 1.2365(4)
H10B H 1.1410 -0.0987 1.3219
C11B C 1.1645(2) -0.20400(17) 1.2248(3)
C12B C 1.1152(3) -0.25721(18) 1.1022(4)
H11B H 1.1529 -0.3054 1.0965
C13B C 1.0086(3) -0.23826(18) 0.9869(4)
H12B H 0.9744 -0.2741 0.9039
C14B C 1.2962(3) -0.29875(17) 1.4003(3)
H13B H 1.2251 -0.3222 1.4096
H14B H 1.3214 -0.3314 1.3271
C15B C 1.3905(2) -0.29627(17) 1.5612(3)
Gd1_2 Gd -0.45267(2) 0.11787(2) -0.43300(2)
Gd1_3 Gd 1.54733(2) 0.11787(2) 0.56700(2)
Gd1A Gd 1.45267(2) -0.38213(2) 1.93300(2)
Gd1B_2 Gd 1.45267(2) -0.11787(2) 0.43300(2)
Gd1B_3 Gd 1.45267(2) -0.11787(2) 1.43300(2)
Gd1C Gd -0.45267(2) 0.38213(2) -0.93300(2)
O2B_2 O 0.4420(2) 0.01378(15) 0.6315(3)
O3B_2 O 0.3285(2) -0.09079(13) 0.5997(3)
O7_2 O 0.72594(17) 0.21740(11) 0.6583(2)
O7B_2 O 0.27406(17) -0.21740(11) 0.3417(2)
O8A O 0.39939(19) -0.14416(12) 0.1498(2)
O8C O 0.60061(19) 0.14416(12) 0.8502(2)
O9_2 O 0.54477(19) 0.23494(13) 0.4051(3)
O9B_2 O 0.45523(19) -0.23494(13) 0.5949(3)
O11 O 0.2565(3) 0.28356(18) 0.3498(4)
H15 H 0.2475 0.2389 0.3003
H16 H 0.1916 0.2913 0.3656
loop_
_geom_bond_atom_site_label_1
_geom_bond_atom_site_label_2
_geom_bond_site_symmetry_1
_geom_bond_site_symmetry_2
Gd1 O2 1_555 1_555
O1 C2 1_555 1_555
O2 C5 1_555 1_555
O3 Gd1 1_555 1_555
O4 C6 1_555 1_555
O5 Gd1 1_555 1_555
O6 C7 1_555 1_555
O7 C11 1_555 1_555
O8 C15 1_555 1_555
O9 C15 1_555 1_555
O10 Gd1 1_555 1_555
H1 O10 1_555 1_555
H2 O10 1_555 1_555
C1 H3 1_555 1_555
C2 C1 1_555 1_555
C3 C2 1_555 1_555
H4 C3 1_555 1_555
C4 O1 1_555 1_555
H5 C4 1_555 1_555
H6 C4 1_555 1_555
C5 O3 1_555 1_555
C6 O5 1_555 1_555
C7 C6 1_555 1_555
H7 C7 1_555 1_555
H8 C7 1_555 1_555
C8 O6 1_555 1_555
C9 C8 1_555 1_555
H9 C9 1_555 1_555
C10 C9 1_555 1_555
H10 C10 1_555 1_555
C11 C10 1_555 1_555
C12 C11 1_555 1_555
H11 C12 1_555 1_555
C13 C8 1_555 1_555
H12 C13 1_555 1_555
C14 O7 1_555 1_555
H13 C14 1_555 1_555
H14 C14 1_555 1_555
C15 C14 1_555 1_555
O11 H15 1_555 1_555
H16 O11 1_555 1_555
O1B C2B 1_555 1_555
O2B C5B 1_555 1_555
O3B C5B 1_555 1_555
C1B C3 1_555 1_555
H3B C1B 1_555 1_555
C2B C1B 1_555 1_555
C3B C1 1_555 1_555
H4B C3B 1_555 1_555
C4B O1B 1_555 1_555
H5B C4B 1_555 1_555
H6B C4B 1_555 1_555
C5B C4B 1_555 1_555
Gd1B O2 1_555 1_555
O4B Gd1 1_555 1_555
O5B Gd1B 1_555 1_555
O6B C7B 1_555 1_555
O7B C11B 1_555 1_555
O8B C15B 1_555 1_555
O9B C15B 1_555 1_555
O10B Gd1B 1_555 1_555
H1B O10B 1_555 1_555
H2B O10B 1_555 1_555
C6B O4B 1_555 1_555
C7B C6B 1_555 1_555
H7B C7B 1_555 1_555
H8B C7B 1_555 1_555
C8B O6B 1_555 1_555
C9B C8B 1_555 1_555
H9B C9B 1_555 1_555
C10B C9B 1_555 1_555
H10B C10B 1_555 1_555
C11B C10B 1_555 1_555
C12B C11B 1_555 1_555
H11B C12B 1_555 1_555
C13B C8B 1_555 1_555
H12B C13B 1_555 1_555
C14B O7B 1_555 1_555
H13B C14B 1_555 1_555
H14B C14B 1_555 1_555
C15B C14B 1_555 1_555
Gd1_2 O7 1_555 1_555
Gd1_3 O2B 1_555 1_555
Gd1A O8B 1_555 1_555
Gd1B_2 O2B 1_555 1_555
Gd1B_3 O7B 1_555 1_555
Gd1C O8 1_555 1_555
O2B_2 Gd1 1_555 1_555
O3B_2 Gd1B 1_555 1_555
O7_2 Gd1 1_555 1_555
O7B_2 Gd1B 1_555 1_555
O8A Gd1B 1_555 1_555
O8C Gd1 1_555 1_555
O9_2 Gd1 1_555 1_555
O9B_2 Gd1B 1_555 1_555
O4 Gd1B 1_555 1_555
O9 Gd1_2 1_555 1_555
C4 C5 1_555 1_555
C12 C13 1_555 1_555
O3B Gd1B_2 1_555 1_555
C2B C3B 1_555 1_555
Gd1B O2B_2 1_555 1_555
O5B C6B 1_555 1_555
O9B Gd1B_3 1_555 1_555
C12B C13B 1_555 1_555

#END
