
#######################################################################
#
#                 Cambridge Crystallographic Data Centre
#                                CCDC 
#
#######################################################################
#
# If this CIF has been generated from an entry in the Cambridge 
# Structural Database, then it will include bibliographic, chemical, 
# crystal, experimental, refinement or atomic coordinate data resulting 
# from the CCDC's data processing and validation procedures.
#
#######################################################################

data_CODKAJ01
_symmetry_cell_setting           monoclinic
_symmetry_space_group_name_H-M   'P 21/n'
_symmetry_Int_Tables_number      14
_space_group_name_Hall           '-P 2yn'
loop_
_symmetry_equiv_pos_site_id
_symmetry_equiv_pos_as_xyz
1 x,y,z
2 1/2-x,1/2+y,1/2-z
3 -x,-y,-z
4 1/2+x,1/2-y,1/2+z
_cell_length_a                   10.0322(6)
_cell_length_b                   18.4439(9)
_cell_length_c                   19.0354(12)
_cell_angle_alpha                90
_cell_angle_beta                 104.897(5)
_cell_angle_gamma                90
_cell_volume                     3403.79
loop_
_atom_site_label
_atom_site_type_symbol
_atom_site_fract_x
_atom_site_fract_y
_atom_site_fract_z
Cu1 Cu 0.5000 0.5000 0.5000
Cu2 Cu 0.70003(3) 0.410473(15) 0.426112(15)
Cu3 Cu 0.69691(2) 0.380100(15) 0.254123(15)
O1 O 0.59573(15) 0.49525(8) 0.42504(8)
H1 H 0.6275 0.5357 0.4151
O2 O 0.82966(16) 0.45509(9) 0.37358(9)
H2 H 0.7898 0.4889 0.3457
H3 H 0.9042 0.4447 0.3622
O3 O 0.80430(15) 0.32189(8) 0.43446(8)
O4 O 0.74838(15) 0.29334(9) 0.31562(9)
O5 O 0.75309(17) 0.04497(9) 0.23703(9)
O6 O 0.85056(15) -0.04112(8) 0.31717(9)
O7 O 0.50646(14) 0.37624(9) 0.26292(9)
O8 O 0.51829(16) 0.30668(10) 0.16962(10)
O9 O 0.03425(17) 0.38254(10) 0.33392(11)
O10 O -0.13022(16) 0.37256(11) 0.22953(10)
N1 N 0.42663(18) 0.38652(11) 0.45674(10)
N2 N 0.51858(18) 0.34861(10) 0.43032(10)
N3 N 0.27679(18) 0.07720(10) 0.04615(10)
N4 N 0.17881(18) 0.04879(10) 0.07429(10)
C1 C 0.3096(2) 0.35456(14) 0.45892(13)
H4 H 0.2445 0.3820 0.4763
C2 C 0.2759(2) 0.28315(14) 0.43729(12)
H5 H 0.1909 0.2625 0.4405
C3 C 0.3692(2) 0.24316(13) 0.41115(12)
C4 C 0.4901(2) 0.28125(12) 0.40833(12)
H6 H 0.5558 0.2564 0.3891
C5 C 0.3915(2) 0.10241(13) 0.09148(13)
H7 H 0.4623 0.1207 0.0715
C6 C 0.4128(2) 0.10328(13) 0.16675(13)
H8 H 0.4969 0.1208 0.1973
C7 C 0.3085(2) 0.07799(12) 0.19595(12)
C8 C 0.1928(2) 0.04904(12) 0.14535(12)
H9 H 0.1210 0.0286 0.1632
C9 C 0.3483(2) 0.16446(13) 0.38674(12)
C10 C 0.3362(2) 0.16007(12) 0.30397(12)
H10 H 0.4206 0.1803 0.2937
H11 H 0.2567 0.1895 0.2774
C11 C 0.3166(2) 0.08040(12) 0.27676(12)
C12 C 0.4419(2) 0.03562(13) 0.31892(12)
H12 H 0.4314 -0.0154 0.3023
H13 H 0.5273 0.0551 0.3092
C13 C 0.4528(2) 0.03889(13) 0.40079(13)
H14 H 0.5338 0.0094 0.4274
C14 C 0.4725(2) 0.11763(13) 0.42720(13)
H15 H 0.5585 0.1373 0.4183
H16 H 0.4810 0.1194 0.4802
C15 C 0.2156(2) 0.13234(14) 0.40086(13)
H17 H 0.2209 0.1347 0.4535
H18 H 0.1350 0.1612 0.3746
C16 C 0.1974(2) 0.05361(14) 0.37526(13)
H19 H 0.1114 0.0337 0.3853
C17 C 0.1845(2) 0.05012(13) 0.29353(12)
H20 H 0.1037 0.0788 0.2672
H21 H 0.1703 -0.0008 0.2767
C18 C 0.3208(3) 0.00787(14) 0.41574(13)
H22 H 0.3081 -0.0431 0.3990
H23 H 0.3281 0.0088 0.4686
C19 C 0.7953(2) 0.27889(12) 0.38179(12)
C20 C 0.8109(2) 0.02340(12) 0.30026(12)
C21 C 0.8334(2) 0.20144(12) 0.40044(12)
C22 C 0.8127(2) 0.15035(12) 0.34518(12)
H24 H 0.7836 0.1656 0.2959
C23 C 0.8341(2) 0.07716(12) 0.36131(13)
C24 C 0.8761(2) 0.05559(13) 0.43398(13)
H25 H 0.8894 0.0056 0.4455
C25 C 0.8986(2) 0.10623(13) 0.48939(13)
H26 H 0.9283 0.0910 0.5386
C26 C 0.8778(2) 0.17956(13) 0.47285(12)
H27 H 0.8937 0.2146 0.5107
C27 C 0.4521(2) 0.33401(12) 0.21043(12)
C28 C -0.0083(2) 0.36300(13) 0.27007(15)
C29 C 0.3019(2) 0.31638(12) 0.19796(12)
C30 C 0.2236(2) 0.34499(12) 0.24236(13)
H28 H 0.2648 0.3768 0.2811
C31 C 0.0846(2) 0.32664(13) 0.22944(14)
C32 C 0.0279(2) 0.27613(14) 0.17552(15)
H29 H -0.0653 0.2614 0.1687
C33 C 0.1054(2) 0.24726(14) 0.13187(15)
H30 H 0.0657 0.2131 0.0951
C34 C 0.2413(2) 0.26844(13) 0.14225(13)
H31 H 0.2939 0.2502 0.1112
Cu2B Cu 0.29997(3) 0.589527(15) 0.573888(15)
Cu3B Cu 0.30309(2) 0.619900(15) 0.745877(15)
O1B O 0.40427(15) 0.50475(8) 0.57496(8)
H1B H 0.3725 0.4643 0.5849
O2B O 0.17034(16) 0.54491(9) 0.62642(9)
H2B H 0.2102 0.5111 0.6543
H3B H 0.0958 0.5553 0.6378
O3B O 0.19570(15) 0.67811(8) 0.56554(8)
O4B O 0.25162(15) 0.70666(9) 0.68438(9)
O5B O 0.24691(17) 0.95503(9) 0.76297(9)
O6B O 0.14944(15) 1.04112(8) 0.68283(9)
O7B O 0.49354(14) 0.62376(9) 0.73708(9)
O8B O 0.48171(16) 0.69332(10) 0.83038(10)
O9B O 0.96575(17) 0.61746(10) 0.66608(11)
O10B O 1.13022(16) 0.62744(11) 0.77047(10)
N1B N 0.57337(18) 0.61348(11) 0.54326(10)
N2B N 0.48142(18) 0.65139(10) 0.56968(10)
N3B N 0.72321(18) 0.92280(10) 0.95385(10)
N4B N 0.82119(18) 0.95121(10) 0.92571(10)
C1B C 0.6904(2) 0.64544(14) 0.54108(13)
H4B H 0.7555 0.6180 0.5237
C2B C 0.7241(2) 0.71685(14) 0.56271(12)
H5B H 0.8091 0.7375 0.5595
C3B C 0.6308(2) 0.75684(13) 0.58885(12)
C4B C 0.5099(2) 0.71875(12) 0.59167(12)
H6B H 0.4442 0.7436 0.6109
C5B C 0.6085(2) 0.89759(13) 0.90852(13)
H7B H 0.5377 0.8793 0.9285
C6B C 0.5872(2) 0.89672(13) 0.83325(13)
H8B H 0.5031 0.8792 0.8027
C7B C 0.6915(2) 0.92201(12) 0.80405(12)
C8B C 0.8072(2) 0.95096(12) 0.85465(12)
H9B H 0.8790 0.9714 0.8368
C9B C 0.6517(2) 0.83554(13) 0.61326(12)
C10B C 0.6638(2) 0.83993(12) 0.69603(12)
H10B H 0.5794 0.8197 0.7063
H11B H 0.7433 0.8105 0.7226
C11B C 0.6834(2) 0.91960(12) 0.72324(12)
C12B C 0.5581(2) 0.96438(13) 0.68108(12)
H12B H 0.5686 1.0154 0.6977
H13B H 0.4727 0.9449 0.6908
C13B C 0.5472(2) 0.96111(13) 0.59921(13)
H14B H 0.4662 0.9906 0.5726
C14B C 0.5275(2) 0.88237(13) 0.57280(13)
H15B H 0.4415 0.8627 0.5817
H16B H 0.5190 0.8806 0.5198
C15B C 0.7844(2) 0.86766(14) 0.59914(13)
H17B H 0.7791 0.8653 0.5465
H18B H 0.8650 0.8388 0.6254
C16B C 0.8026(2) 0.94639(14) 0.62474(13)
H19B H 0.8886 0.9663 0.6147
C17B C 0.8155(2) 0.94988(13) 0.70647(12)
H20B H 0.8963 0.9212 0.7328
H21B H 0.8297 1.0008 0.7233
C18B C 0.6792(3) 0.99213(14) 0.58426(13)
H22B H 0.6919 1.0431 0.6010
H23B H 0.6719 0.9912 0.5314
C19B C 0.2047(2) 0.72111(12) 0.61821(12)
C20B C 0.1891(2) 0.97660(12) 0.69974(12)
C21B C 0.1666(2) 0.79856(12) 0.59956(12)
C22B C 0.1873(2) 0.84965(12) 0.65482(12)
H24B H 0.2164 0.8344 0.7041
C23B C 0.1659(2) 0.92284(12) 0.63869(13)
C24B C 0.1239(2) 0.94441(13) 0.56602(13)
H25B H 0.1106 0.9944 0.5545
C25B C 0.1014(2) 0.89377(13) 0.51061(13)
H26B H 0.0717 0.9090 0.4614
C26B C 0.1222(2) 0.82044(13) 0.52715(12)
H27B H 0.1063 0.7854 0.4893
C27B C 0.5479(2) 0.66599(12) 0.78957(12)
C28B C 1.0083(2) 0.63700(13) 0.72993(15)
C29B C 0.6981(2) 0.68362(12) 0.80204(12)
C30B C 0.7764(2) 0.65501(12) 0.75764(13)
H28B H 0.7352 0.6232 0.7189
C31B C 0.9154(2) 0.67336(13) 0.77056(14)
C32B C 0.9721(2) 0.72387(14) 0.82448(15)
H29B H 1.0653 0.7386 0.8313
C33B C 0.8946(2) 0.75274(14) 0.86813(15)
H30B H 0.9343 0.7869 0.9049
C34B C 0.7587(2) 0.73156(13) 0.85775(13)
H31B H 0.7061 0.7498 0.8888
Cu1A Cu 0.0000 0.0000 0.0000
Cu1A_2 Cu 1.0000 1.0000 1.0000
Cu2A Cu 0.79997(3) 0.910473(15) 1.073888(15)
Cu2C Cu 0.20003(3) 0.089527(15) -0.073888(15)
Cu3_2 Cu -0.30309(2) 0.380100(15) 0.254123(15)
Cu3A Cu 0.80309(2) -0.119900(15) 0.245877(15)
Cu3B_2 Cu 1.30309(2) 0.619900(15) 0.745877(15)
Cu3C Cu 0.19691(2) 1.119900(15) 0.754123(15)
O6A O 0.64944(15) 0.45888(8) 0.18283(9)
O6C O 0.35056(15) 0.54112(8) 0.81717(9)
O10_2 O 0.86978(16) 0.37256(11) 0.22953(10)
O10B_2 O 0.13022(16) 0.62744(11) 0.77047(10)
N3A N 0.22321(18) 0.57720(10) 0.45385(10)
N3C N 0.77679(18) 0.42280(10) 0.54615(10)
N4A N 0.32119(18) 0.54879(10) 0.42571(10)
N4C N 0.67881(18) 0.45121(10) 0.57429(10)
O11 O 0.6575(4) 0.2352(2) 0.08348(19)
O12 O 0.7688(8) 0.1304(4) 0.1140(4)
O13 O 0.7700(4) 0.3770(2) 0.08232(17)
O14? O 0.8385(4) 0.1224(2) 0.1330(2)
O15? O 0.6980(5) 0.2784(4) 0.0868(3)
loop_
_geom_bond_atom_site_label_1
_geom_bond_atom_site_label_2
_geom_bond_site_symmetry_1
_geom_bond_site_symmetry_2
Cu1 O1 1_555 1_555
Cu2 O1 1_555 1_555
Cu3 O2 1_555 1_555
O1 H1 1_555 1_555
O2 Cu2 1_555 1_555
H2 O2 1_555 1_555
H3 O2 1_555 1_555
O3 Cu2 1_555 1_555
O4 Cu3 1_555 1_555
O5 C20 1_555 1_555
O6 C20 1_555 1_555
O7 Cu3 1_555 1_555
O8 Cu3 1_555 1_555
O9 C28 1_555 1_555
O10 C28 1_555 1_555
N1 Cu1 1_555 1_555
N2 Cu2 1_555 1_555
N3 N4 1_555 1_555
N4 C8 1_555 1_555
C1 N1 1_555 1_555
H4 C1 1_555 1_555
C2 C1 1_555 1_555
H5 C2 1_555 1_555
C3 C2 1_555 1_555
C4 N2 1_555 1_555
H6 C4 1_555 1_555
C5 N3 1_555 1_555
H7 C5 1_555 1_555
C6 C5 1_555 1_555
H8 C6 1_555 1_555
C7 C6 1_555 1_555
C8 C7 1_555 1_555
H9 C8 1_555 1_555
C9 C3 1_555 1_555
C10 C9 1_555 1_555
H10 C10 1_555 1_555
H11 C10 1_555 1_555
C11 C7 1_555 1_555
C12 C11 1_555 1_555
H12 C12 1_555 1_555
H13 C12 1_555 1_555
C13 C12 1_555 1_555
H14 C13 1_555 1_555
C14 C9 1_555 1_555
H15 C14 1_555 1_555
H16 C14 1_555 1_555
C15 C9 1_555 1_555
H17 C15 1_555 1_555
H18 C15 1_555 1_555
C16 C15 1_555 1_555
H19 C16 1_555 1_555
C17 C11 1_555 1_555
H20 C17 1_555 1_555
H21 C17 1_555 1_555
C18 C13 1_555 1_555
H22 C18 1_555 1_555
H23 C18 1_555 1_555
C19 O3 1_555 1_555
C20 C23 1_555 1_555
C21 C19 1_555 1_555
C22 C21 1_555 1_555
H24 C22 1_555 1_555
C23 C22 1_555 1_555
C24 C23 1_555 1_555
H25 C24 1_555 1_555
C25 C24 1_555 1_555
H26 C25 1_555 1_555
C26 C21 1_555 1_555
H27 C26 1_555 1_555
C27 O7 1_555 1_555
C28 C31 1_555 1_555
C29 C27 1_555 1_555
C30 C29 1_555 1_555
H28 C30 1_555 1_555
C31 C30 1_555 1_555
C32 C31 1_555 1_555
H29 C32 1_555 1_555
C33 C32 1_555 1_555
H30 C33 1_555 1_555
C34 C29 1_555 1_555
H31 C34 1_555 1_555
Cu2B O1B 1_555 1_555
Cu3B O2B 1_555 1_555
O1B Cu1 1_555 1_555
H1B O1B 1_555 1_555
O2B Cu2B 1_555 1_555
H2B O2B 1_555 1_555
H3B O2B 1_555 1_555
O3B Cu2B 1_555 1_555
O4B Cu3B 1_555 1_555
O5B C20B 1_555 1_555
O6B C20B 1_555 1_555
O7B Cu3B 1_555 1_555
O8B Cu3B 1_555 1_555
O9B C28B 1_555 1_555
O10B C28B 1_555 1_555
N1B Cu1 1_555 1_555
N2B Cu2B 1_555 1_555
N3B N4B 1_555 1_555
N4B C8B 1_555 1_555
C1B N1B 1_555 1_555
H4B C1B 1_555 1_555
C2B C1B 1_555 1_555
H5B C2B 1_555 1_555
C3B C2B 1_555 1_555
C4B N2B 1_555 1_555
H6B C4B 1_555 1_555
C5B N3B 1_555 1_555
H7B C5B 1_555 1_555
C6B C5B 1_555 1_555
H8B C6B 1_555 1_555
C7B C6B 1_555 1_555
C8B C7B 1_555 1_555
H9B C8B 1_555 1_555
C9B C3B 1_555 1_555
C10B C9B 1_555 1_555
H10B C10B 1_555 1_555
H11B C10B 1_555 1_555
C11B C7B 1_555 1_555
C12B C11B 1_555 1_555
H12B C12B 1_555 1_555
H13B C12B 1_555 1_555
C13B C12B 1_555 1_555
H14B C13B 1_555 1_555
C14B C9B 1_555 1_555
H15B C14B 1_555 1_555
H16B C14B 1_555 1_555
C15B C9B 1_555 1_555
H17B C15B 1_555 1_555
H18B C15B 1_555 1_555
C16B C15B 1_555 1_555
H19B C16B 1_555 1_555
C17B C11B 1_555 1_555
H20B C17B 1_555 1_555
H21B C17B 1_555 1_555
C18B C13B 1_555 1_555
H22B C18B 1_555 1_555
H23B C18B 1_555 1_555
C19B O3B 1_555 1_555
C20B C23B 1_555 1_555
C21B C19B 1_555 1_555
C22B C21B 1_555 1_555
H24B C22B 1_555 1_555
C23B C22B 1_555 1_555
C24B C23B 1_555 1_555
H25B C24B 1_555 1_555
C25B C24B 1_555 1_555
H26B C25B 1_555 1_555
C26B C21B 1_555 1_555
H27B C26B 1_555 1_555
C27B O7B 1_555 1_555
C28B C31B 1_555 1_555
C29B C27B 1_555 1_555
C30B C29B 1_555 1_555
H28B C30B 1_555 1_555
C31B C30B 1_555 1_555
C32B C31B 1_555 1_555
H29B C32B 1_555 1_555
C33B C32B 1_555 1_555
H30B C33B 1_555 1_555
C34B C29B 1_555 1_555
H31B C34B 1_555 1_555
Cu1A N4 1_555 1_555
Cu1A_2 N4B 1_555 1_555
Cu2A N3B 1_555 1_555
Cu2C N3 1_555 1_555
Cu3_2 O10 1_555 1_555
Cu3A O6 1_555 1_555
Cu3B_2 O10B 1_555 1_555
Cu3C O6B 1_555 1_555
O6A Cu3 1_555 1_555
O6C Cu3B 1_555 1_555
O10_2 Cu3 1_555 1_555
O10B_2 Cu3B 1_555 1_555
N3A Cu2B 1_555 1_555
N3C Cu2 1_555 1_555
N4A Cu1 1_555 1_555
N4C Cu1 1_555 1_555
O4 C19 1_555 1_555
O8 C27 1_555 1_555
N1 N2 1_555 1_555
C3 C4 1_555 1_555
C10 C11 1_555 1_555
C13 C14 1_555 1_555
C16 C17 1_555 1_555
C16 C18 1_555 1_555
C25 C26 1_555 1_555
C33 C34 1_555 1_555
O4B C19B 1_555 1_555
O8B C27B 1_555 1_555
N1B N2B 1_555 1_555
C3B C4B 1_555 1_555
C10B C11B 1_555 1_555
C13B C14B 1_555 1_555
C16B C17B 1_555 1_555
C16B C18B 1_555 1_555
C25B C26B 1_555 1_555
C33B C34B 1_555 1_555
N3A N4A 1_555 1_555
N3C N4C 1_555 1_555

#END
