
#######################################################################
#
#                 Cambridge Crystallographic Data Centre
#                                CCDC 
#
#######################################################################
#
# If this CIF has been generated from an entry in the Cambridge 
# Structural Database, then it will include bibliographic, chemical, 
# crystal, experimental, refinement or atomic coordinate data resulting 
# from the CCDC's data processing and validation procedures.
#
#######################################################################

data_CODKAJ
_symmetry_cell_setting           monoclinic
_symmetry_space_group_name_H-M   'P 21/n'
_symmetry_Int_Tables_number      14
_space_group_name_Hall           '-P 2yn'
loop_
_symmetry_equiv_pos_site_id
_symmetry_equiv_pos_as_xyz
1 x,y,z
2 1/2-x,1/2+y,1/2-z
3 -x,-y,-z
4 1/2+x,1/2-y,1/2+z
_cell_length_a                   10.0517(7)
_cell_length_b                   18.4855(9)
_cell_length_c                   19.1143(13)
_cell_angle_alpha                90
_cell_angle_beta                 104.721(5)
_cell_angle_gamma                90
_cell_volume                     3435.06
loop_
_atom_site_label
_atom_site_type_symbol
_atom_site_fract_x
_atom_site_fract_y
_atom_site_fract_z
Cu1 Cu 0.5000 0.5000 0.5000
Cu2 Cu 0.70771(4) 0.413612(17) 0.428978(18)
Cu3 Cu 0.69635(3) 0.383357(16) 0.254732(17)
O1 O 0.60294(19) 0.49790(9) 0.42876(10)
H1 H 0.6347 0.5384 0.4188
O2 O 0.8324(2) 0.45887(11) 0.37453(12)
H2 H 0.7926 0.4927 0.3467
H3 H 0.9070 0.4485 0.3632
O3 O 0.8084(2) 0.32416(10) 0.43387(11)
O4 O 0.74672(19) 0.29708(10) 0.31613(11)
O5 O 0.7563(2) 0.04920(12) 0.23490(12)
O6 O 0.84936(19) -0.03679(10) 0.31464(11)
O7 O 0.50603(16) 0.37932(10) 0.26312(10)
O8 O 0.5175(2) 0.31059(13) 0.17053(12)
O9 O 0.0342(2) 0.38922(13) 0.33084(14)
O10 O -0.13221(18) 0.37531(14) 0.22963(12)
N1 N 0.4292(2) 0.39128(12) 0.45669(12)
N2 N 0.5213(2) 0.35292(12) 0.43162(12)
N3 N 0.2802(2) 0.07989(12) 0.04887(12)
N4 N 0.1813(2) 0.05260(12) 0.07701(12)
C1 C 0.3107(3) 0.36046(16) 0.45686(16)
H4 H 0.2463 0.3879 0.4726
C2 C 0.2762(3) 0.28974(17) 0.43507(16)
H5 H 0.1914 0.2706 0.4366
C3 C 0.3699(3) 0.24850(15) 0.41117(14)
C4 C 0.4920(3) 0.28566(14) 0.40989(15)
H6 H 0.5570 0.2607 0.3923
C5 C 0.3933(3) 0.10580(16) 0.09387(16)
H7 H 0.4630 0.1233 0.0745
C6 C 0.4124(3) 0.10809(16) 0.16783(15)
H8 H 0.4938 0.1262 0.1973
C7 C 0.3095(2) 0.08328(14) 0.19762(14)
C8 C 0.1953(3) 0.05422(15) 0.14756(14)
H9 H 0.1249 0.0348 0.1652
C9 C 0.3496(2) 0.17030(14) 0.38691(14)
C10 C 0.3368(2) 0.16530(13) 0.30467(13)
H10 H 0.2588 0.1939 0.2789
H11 H 0.4190 0.1852 0.2942
C11 C 0.3178(2) 0.08605(14) 0.27806(14)
C12 C 0.4435(3) 0.04205(15) 0.31961(15)
H12 H 0.4341 -0.0079 0.3036
H13 H 0.5266 0.0615 0.3098
C13 C 0.4544(3) 0.04558(16) 0.40109(16)
H14 H 0.5340 0.0171 0.4269
C14 C 0.4740(3) 0.12384(15) 0.42668(15)
H15 H 0.5576 0.1430 0.4173
H16 H 0.4833 0.1259 0.4784
C15 C 0.2182(3) 0.13750(17) 0.40196(15)
H17 H 0.2241 0.1399 0.4533
H18 H 0.1386 0.1653 0.3767
C16 C 0.2013(3) 0.05898(17) 0.37687(15)
H19 H 0.1178 0.0392 0.3871
C17 C 0.1874(3) 0.05534(15) 0.29551(14)
H20 H 0.1077 0.0830 0.2701
H21 H 0.1740 0.0055 0.2793
C18 C 0.3246(3) 0.01406(17) 0.41654(17)
H22 H 0.3128 -0.0358 0.4002
H23 H 0.3321 0.0149 0.4681
C19 C 0.7960(2) 0.28176(13) 0.38106(14)
C20 C 0.8111(3) 0.02754(14) 0.29750(16)
C21 C 0.8331(2) 0.20435(13) 0.39889(14)
C22 C 0.8129(2) 0.15400(13) 0.34314(14)
H24 H 0.7846 0.1693 0.2953
C23 C 0.8347(2) 0.08077(14) 0.35864(15)
C24 C 0.8759(3) 0.05863(15) 0.43029(16)
H25 H 0.8889 0.0097 0.4410
C25 C 0.8977(3) 0.10855(16) 0.48576(16)
H26 H 0.9261 0.0932 0.5336
C26 C 0.8772(3) 0.18158(14) 0.47004(15)
H27 H 0.8932 0.2153 0.5074
C27 C 0.4515(3) 0.33818(14) 0.21060(15)
C28 C -0.0094(3) 0.36845(16) 0.26848(18)
C29 C 0.3008(2) 0.32168(14) 0.19693(14)
C30 C 0.2223(2) 0.35026(14) 0.24087(15)
H28 H 0.2626 0.3807 0.2792
C31 C 0.0834(3) 0.33297(15) 0.22697(16)
C32 C 0.0272(3) 0.28452(19) 0.1722(2)
H29 H -0.0648 0.2715 0.1641
C33 C 0.1051(3) 0.25518(19) 0.1295(2)
H30 H 0.0662 0.2224 0.0931
C34 C 0.2412(3) 0.27497(16) 0.14111(17)
H31 H 0.2933 0.2568 0.1113
Cu2B Cu 0.29229(4) 0.586388(17) 0.571022(18)
Cu3B Cu 0.30365(3) 0.616643(16) 0.745268(17)
O1B O 0.39706(19) 0.50210(9) 0.57124(10)
H1B H 0.3653 0.4616 0.5812
O2B O 0.1676(2) 0.54113(11) 0.62547(12)
H2B H 0.2074 0.5073 0.6533
H3B H 0.0930 0.5515 0.6368
O3B O 0.1916(2) 0.67584(10) 0.56613(11)
O4B O 0.25328(19) 0.70292(10) 0.68387(11)
O5B O 0.2437(2) 0.95080(12) 0.76510(12)
O6B O 0.15064(19) 1.03679(10) 0.68536(11)
O7B O 0.49397(16) 0.62068(10) 0.73688(10)
O8B O 0.4825(2) 0.68941(13) 0.82947(12)
O9B O 0.9658(2) 0.61078(13) 0.66916(14)
O10B O 1.13221(18) 0.62469(14) 0.77037(12)
N1B N 0.5708(2) 0.60872(12) 0.54331(12)
N2B N 0.4787(2) 0.64708(12) 0.56838(12)
N3B N 0.7198(2) 0.92011(12) 0.95113(12)
N4B N 0.8187(2) 0.94740(12) 0.92299(12)
C1B C 0.6893(3) 0.63954(16) 0.54314(16)
H4B H 0.7537 0.6121 0.5274
C2B C 0.7238(3) 0.71026(17) 0.56493(16)
H5B H 0.8086 0.7294 0.5634
C3B C 0.6301(3) 0.75150(15) 0.58883(14)
C4B C 0.5080(3) 0.71434(14) 0.59011(15)
H6B H 0.4430 0.7393 0.6077
C5B C 0.6067(3) 0.89420(16) 0.90613(16)
H7B H 0.5370 0.8767 0.9255
C6B C 0.5876(3) 0.89191(16) 0.83217(15)
H8B H 0.5062 0.8738 0.8027
C7B C 0.6905(2) 0.91672(14) 0.80238(14)
C8B C 0.8047(3) 0.94578(15) 0.85244(14)
H9B H 0.8751 0.9652 0.8348
C9B C 0.6504(2) 0.82970(14) 0.61309(14)
C10B C 0.6632(2) 0.83470(13) 0.69533(13)
H10B H 0.7412 0.8061 0.7211
H11B H 0.5810 0.8148 0.7058
C11B C 0.6822(2) 0.91395(14) 0.72194(14)
C12B C 0.5565(3) 0.95795(15) 0.68039(15)
H12B H 0.5659 1.0079 0.6964
H13B H 0.4734 0.9385 0.6902
C13B C 0.5456(3) 0.95442(16) 0.59891(16)
H14B H 0.4660 0.9829 0.5731
C14B C 0.5260(3) 0.87616(15) 0.57332(15)
H15B H 0.4424 0.8570 0.5827
H16B H 0.5167 0.8741 0.5216
C15B C 0.7818(3) 0.86250(17) 0.59804(15)
H17B H 0.7759 0.8601 0.5467
H18B H 0.8614 0.8347 0.6233
C16B C 0.7987(3) 0.94102(17) 0.62313(15)
H19B H 0.8822 0.9608 0.6129
C17B C 0.8126(3) 0.94466(15) 0.70449(14)
H20B H 0.8923 0.9170 0.7299
H21B H 0.8260 0.9945 0.7207
C18B C 0.6754(3) 0.98594(17) 0.58346(17)
H22B H 0.6872 1.0358 0.5998
H23B H 0.6679 0.9851 0.5319
C19B C 0.2040(2) 0.71824(13) 0.61894(14)
C20B C 0.1889(3) 0.97246(14) 0.70250(16)
C21B C 0.1669(2) 0.79565(13) 0.60111(14)
C22B C 0.1871(2) 0.84600(13) 0.65686(14)
H24B H 0.2154 0.8307 0.7047
C23B C 0.1653(2) 0.91923(14) 0.64136(15)
C24B C 0.1241(3) 0.94137(15) 0.56971(16)
H25B H 0.1111 0.9903 0.5590
C25B C 0.1023(3) 0.89145(16) 0.51424(16)
H26B H 0.0739 0.9068 0.4664
C26B C 0.1228(3) 0.81842(14) 0.52996(15)
H27B H 0.1068 0.7847 0.4926
C27B C 0.5485(3) 0.66182(14) 0.78940(15)
C28B C 1.0094(3) 0.63155(16) 0.73152(18)
C29B C 0.6992(2) 0.67832(14) 0.80307(14)
C30B C 0.7777(2) 0.64974(14) 0.75913(15)
H28B H 0.7374 0.6193 0.7208
C31B C 0.9166(3) 0.66703(15) 0.77303(16)
C32B C 0.9728(3) 0.71548(19) 0.8278(2)
H29B H 1.0648 0.7285 0.8359
C33B C 0.8949(3) 0.74482(19) 0.8705(2)
H30B H 0.9338 0.7776 0.9069
C34B C 0.7588(3) 0.72503(16) 0.85889(17)
H31B H 0.7067 0.7432 0.8887
Cu1A Cu 0.0000 0.0000 0.0000
Cu1A_2 Cu 1.0000 1.0000 1.0000
Cu2A Cu 0.79229(4) 0.913612(17) 1.071022(18)
Cu2C Cu 0.20771(4) 0.086388(17) -0.071022(18)
Cu3_2 Cu -0.30365(3) 0.383357(16) 0.254732(17)
Cu3A Cu 0.80365(3) -0.116643(16) 0.245268(17)
Cu3B_2 Cu 1.30365(3) 0.616643(16) 0.745268(17)
Cu3C Cu 0.19635(3) 1.116643(16) 0.754732(17)
O6A O 0.65064(19) 0.46321(10) 0.18536(11)
O6C O 0.34936(19) 0.53679(10) 0.81464(11)
O10_2 O 0.86779(18) 0.37531(14) 0.22963(12)
O10B_2 O 0.13221(18) 0.62469(14) 0.77037(12)
N3A N 0.2198(2) 0.57989(12) 0.45113(12)
N3C N 0.7802(2) 0.42011(12) 0.54887(12)
N4A N 0.3187(2) 0.55260(12) 0.42299(12)
N4C N 0.6813(2) 0.44740(12) 0.57701(12)
O11 O 0.6570(12) 0.2411(7) 0.0856(8)
O12 O 0.7699(12) 0.1329(8) 0.1129(7)
O13 O 0.7770(8) 0.3847(4) 0.0818(3)
O14? O 0.6914(16) 0.2745(11) 0.0849(10)
O15? O 0.8415(6) 0.1275(3) 0.1324(4)
loop_
_geom_bond_atom_site_label_1
_geom_bond_atom_site_label_2
_geom_bond_site_symmetry_1
_geom_bond_site_symmetry_2
Cu1 O1 1_555 1_555
Cu2 O1 1_555 1_555
Cu3 O2 1_555 1_555
O1 H1 1_555 1_555
O2 Cu2 1_555 1_555
H2 O2 1_555 1_555
H3 O2 1_555 1_555
O3 Cu2 1_555 1_555
O4 Cu3 1_555 1_555
O5 C20 1_555 1_555
O6 C20 1_555 1_555
O7 Cu3 1_555 1_555
O8 Cu3 1_555 1_555
O9 C28 1_555 1_555
O10 C28 1_555 1_555
N1 Cu1 1_555 1_555
N2 Cu2 1_555 1_555
N3 N4 1_555 1_555
N4 C8 1_555 1_555
C1 N1 1_555 1_555
H4 C1 1_555 1_555
C2 C1 1_555 1_555
H5 C2 1_555 1_555
C3 C2 1_555 1_555
C4 N2 1_555 1_555
H6 C4 1_555 1_555
C5 N3 1_555 1_555
H7 C5 1_555 1_555
C6 C5 1_555 1_555
H8 C6 1_555 1_555
C7 C6 1_555 1_555
C8 C7 1_555 1_555
H9 C8 1_555 1_555
C9 C3 1_555 1_555
C10 C9 1_555 1_555
H10 C10 1_555 1_555
H11 C10 1_555 1_555
C11 C7 1_555 1_555
C12 C11 1_555 1_555
H12 C12 1_555 1_555
H13 C12 1_555 1_555
C13 C12 1_555 1_555
H14 C13 1_555 1_555
C14 C9 1_555 1_555
H15 C14 1_555 1_555
H16 C14 1_555 1_555
C15 C9 1_555 1_555
H17 C15 1_555 1_555
H18 C15 1_555 1_555
C16 C15 1_555 1_555
H19 C16 1_555 1_555
C17 C11 1_555 1_555
H20 C17 1_555 1_555
H21 C17 1_555 1_555
C18 C13 1_555 1_555
H22 C18 1_555 1_555
H23 C18 1_555 1_555
C19 O3 1_555 1_555
C20 C23 1_555 1_555
C21 C19 1_555 1_555
C22 C21 1_555 1_555
H24 C22 1_555 1_555
C23 C22 1_555 1_555
C24 C23 1_555 1_555
H25 C24 1_555 1_555
C25 C24 1_555 1_555
H26 C25 1_555 1_555
C26 C21 1_555 1_555
H27 C26 1_555 1_555
C27 O7 1_555 1_555
C28 C31 1_555 1_555
C29 C27 1_555 1_555
C30 C29 1_555 1_555
H28 C30 1_555 1_555
C31 C30 1_555 1_555
C32 C31 1_555 1_555
H29 C32 1_555 1_555
C33 C32 1_555 1_555
H30 C33 1_555 1_555
C34 C29 1_555 1_555
H31 C34 1_555 1_555
Cu2B O1B 1_555 1_555
Cu3B O2B 1_555 1_555
O1B Cu1 1_555 1_555
H1B O1B 1_555 1_555
O2B Cu2B 1_555 1_555
H2B O2B 1_555 1_555
H3B O2B 1_555 1_555
O3B Cu2B 1_555 1_555
O4B Cu3B 1_555 1_555
O5B C20B 1_555 1_555
O6B C20B 1_555 1_555
O7B Cu3B 1_555 1_555
O8B Cu3B 1_555 1_555
O9B C28B 1_555 1_555
O10B C28B 1_555 1_555
N1B Cu1 1_555 1_555
N2B Cu2B 1_555 1_555
N3B N4B 1_555 1_555
N4B C8B 1_555 1_555
C1B N1B 1_555 1_555
H4B C1B 1_555 1_555
C2B C1B 1_555 1_555
H5B C2B 1_555 1_555
C3B C2B 1_555 1_555
C4B N2B 1_555 1_555
H6B C4B 1_555 1_555
C5B N3B 1_555 1_555
H7B C5B 1_555 1_555
C6B C5B 1_555 1_555
H8B C6B 1_555 1_555
C7B C6B 1_555 1_555
C8B C7B 1_555 1_555
H9B C8B 1_555 1_555
C9B C3B 1_555 1_555
C10B C9B 1_555 1_555
H10B C10B 1_555 1_555
H11B C10B 1_555 1_555
C11B C7B 1_555 1_555
C12B C11B 1_555 1_555
H12B C12B 1_555 1_555
H13B C12B 1_555 1_555
C13B C12B 1_555 1_555
H14B C13B 1_555 1_555
C14B C9B 1_555 1_555
H15B C14B 1_555 1_555
H16B C14B 1_555 1_555
C15B C9B 1_555 1_555
H17B C15B 1_555 1_555
H18B C15B 1_555 1_555
C16B C15B 1_555 1_555
H19B C16B 1_555 1_555
C17B C11B 1_555 1_555
H20B C17B 1_555 1_555
H21B C17B 1_555 1_555
C18B C13B 1_555 1_555
H22B C18B 1_555 1_555
H23B C18B 1_555 1_555
C19B O3B 1_555 1_555
C20B C23B 1_555 1_555
C21B C19B 1_555 1_555
C22B C21B 1_555 1_555
H24B C22B 1_555 1_555
C23B C22B 1_555 1_555
C24B C23B 1_555 1_555
H25B C24B 1_555 1_555
C25B C24B 1_555 1_555
H26B C25B 1_555 1_555
C26B C21B 1_555 1_555
H27B C26B 1_555 1_555
C27B O7B 1_555 1_555
C28B C31B 1_555 1_555
C29B C27B 1_555 1_555
C30B C29B 1_555 1_555
H28B C30B 1_555 1_555
C31B C30B 1_555 1_555
C32B C31B 1_555 1_555
H29B C32B 1_555 1_555
C33B C32B 1_555 1_555
H30B C33B 1_555 1_555
C34B C29B 1_555 1_555
H31B C34B 1_555 1_555
Cu1A N4 1_555 1_555
Cu1A_2 N4B 1_555 1_555
Cu2A N3B 1_555 1_555
Cu2C N3 1_555 1_555
Cu3_2 O10 1_555 1_555
Cu3A O6 1_555 1_555
Cu3B_2 O10B 1_555 1_555
Cu3C O6B 1_555 1_555
O6A Cu3 1_555 1_555
O6C Cu3B 1_555 1_555
O10_2 Cu3 1_555 1_555
O10B_2 Cu3B 1_555 1_555
N3A Cu2B 1_555 1_555
N3C Cu2 1_555 1_555
N4A Cu1 1_555 1_555
N4C Cu1 1_555 1_555
O4 C19 1_555 1_555
O8 C27 1_555 1_555
N1 N2 1_555 1_555
C3 C4 1_555 1_555
C10 C11 1_555 1_555
C13 C14 1_555 1_555
C16 C17 1_555 1_555
C16 C18 1_555 1_555
C25 C26 1_555 1_555
C33 C34 1_555 1_555
O4B C19B 1_555 1_555
O8B C27B 1_555 1_555
N1B N2B 1_555 1_555
C3B C4B 1_555 1_555
C10B C11B 1_555 1_555
C13B C14B 1_555 1_555
C16B C17B 1_555 1_555
C16B C18B 1_555 1_555
C25B C26B 1_555 1_555
C33B C34B 1_555 1_555
N3A N4A 1_555 1_555
N3C N4C 1_555 1_555

#END
