
#######################################################################
#
#                 Cambridge Crystallographic Data Centre
#                                CCDC 
#
#######################################################################
#
# If this CIF has been generated from an entry in the Cambridge 
# Structural Database, then it will include bibliographic, chemical, 
# crystal, experimental, refinement or atomic coordinate data resulting 
# from the CCDC's data processing and validation procedures.
#
#######################################################################

data_CODKOX01
_symmetry_cell_setting           monoclinic
_symmetry_space_group_name_H-M   'P 21/c'
_symmetry_Int_Tables_number      14
_space_group_name_Hall           '-P 2ybc'
loop_
_symmetry_equiv_pos_site_id
_symmetry_equiv_pos_as_xyz
1 x,y,z
2 -x,1/2+y,1/2-z
3 -x,-y,-z
4 x,1/2-y,1/2+z
_cell_length_a                   12.123(2)
_cell_length_b                   16.700(3)
_cell_length_c                   8.9385(18)
_cell_angle_alpha                90
_cell_angle_beta                 109.25(3)
_cell_angle_gamma                90
_cell_volume                     1708.46
loop_
_atom_site_label
_atom_site_type_symbol
_atom_site_fract_x
_atom_site_fract_y
_atom_site_fract_z
Gd1 Gd 0.951930(13) 0.383169(9) 0.933032(18)
O1 O 0.8647(2) 0.61526(14) 0.8403(3)
O2 O 0.8167(2) 0.48531(14) 0.7999(3)
O3 O 0.6493(2) 0.65235(14) 0.6251(3)
O4 O 0.2263(2) 0.71978(13) 0.1592(3)
O5 O 0.0995(2) 0.85767(14) -0.1468(3)
O6 O 0.0454(2) 0.73689(15) -0.0938(3)
O7 O 1.0577(2) 0.49233(15) 0.8695(3)
O8 O 1.1809(2) 0.59187(15) 0.9028(3)
O9 O 1.3034(3) 0.5172(2) 0.7341(3)
O10 O 1.0969(3) 0.2909(2) 0.8785(4)
H1 H 1.046(3) 0.259(3) 0.870(7)
H2 H 1.160(2) 0.277(3) 0.939(5)
C1 C 0.8017(3) 0.5582(2) 0.7683(4)
C2 C 0.6959(3) 0.5742(2) 0.6237(4)
H3 H 0.7176 0.5680 0.5292
H4 H 0.6360 0.5349 0.6192
C3 C 0.5454(3) 0.6681(2) 0.5039(4)
C4 C 0.4958(3) 0.6158(2) 0.3784(4)
H5 H 0.5331 0.5680 0.3716
C5 C 0.3903(3) 0.63545(19) 0.2635(4)
H6 H 0.3571 0.6009 0.1789
C6 C 0.3350(3) 0.70604(19) 0.2750(4)
C7 C 0.4911(3) 0.7401(2) 0.5108(4)
H7 H 0.5258 0.7759 0.5925
C8 C 0.3850(3) 0.7596(2) 0.3968(4)
H8 H 0.3482 0.8078 0.4022
C9 C 0.2056(3) 0.80024(19) 0.0987(4)
H9 H 0.2763 0.8222 0.0869
H10 H 0.1824 0.8340 0.1716
C10 C 0.1093(3) 0.79766(19) -0.0606(4)
C11 C 1.1428(3) 0.5259(2) 0.8439(4)
C12 C 1.1945(4) 0.4845(3) 0.7309(5)
H11 H 1.2050 0.4281 0.7581
H12 H 1.1397 0.4885 0.6240
C13 C 1.3979(3) 0.5069(2) 0.8697(5)
C14 C 1.4966(4) 0.5507(2) 0.8772(5)
H13 H 1.4947 0.5852 0.7948
C15 C 1.4022(4) 0.4563(2) 0.9944(5)
H14 H 1.3365 0.4268 0.9916
O7B O 1.9423(2) 0.50767(15) 1.1305(3)
O8B O 1.8191(2) 0.40813(15) 1.0972(3)
O9B O 1.6966(3) 0.4828(2) 1.2659(3)
C11B C 1.8572(3) 0.4741(2) 1.1561(4)
C12B C 1.8055(4) 0.5155(3) 1.2691(5)
H11B H 1.7950 0.5719 1.2419
H12B H 1.8603 0.5115 1.3760
C13B C 1.6021(3) 0.4931(2) 1.1303(5)
C14B C 1.5034(4) 0.4493(2) 1.1228(5)
H13B H 1.5053 0.4148 1.2052
C15B C 1.5978(4) 0.5437(2) 1.0056(5)
H14B H 1.6635 0.5732 1.0084
Gd1B Gd 0.048070(13) 0.616831(9) 0.066968(18)
O1B O 0.1353(2) 0.38474(14) 0.1597(3)
O2B O 0.1833(2) 0.51469(14) 0.2001(3)
O3B O 0.3507(2) 0.34765(14) 0.3749(3)
O4B O 0.7737(2) 0.28022(13) 0.8408(3)
O5B O 0.9005(2) 0.14233(14) 1.1468(3)
O6B O 0.9546(2) 0.26311(15) 1.0938(3)
O10B O -0.0969(3) 0.7091(2) 0.1215(4)
H1B H -0.046(3) 0.741(3) 0.130(7)
H2B H -0.160(2) 0.723(3) 0.061(5)
C1B C 0.1983(3) 0.4418(2) 0.2317(4)
C2B C 0.3041(3) 0.4258(2) 0.3763(4)
H3B H 0.2824 0.4320 0.4708
H4B H 0.3640 0.4651 0.3808
C3B C 0.4546(3) 0.3319(2) 0.4961(4)
C4B C 0.5042(3) 0.3842(2) 0.6216(4)
H5B H 0.4669 0.4320 0.6284
C5B C 0.6097(3) 0.36455(19) 0.7365(4)
H6B H 0.6429 0.3991 0.8211
C6B C 0.6650(3) 0.29396(19) 0.7250(4)
C7B C 0.5089(3) 0.2599(2) 0.4892(4)
H7B H 0.4742 0.2241 0.4075
C8B C 0.6150(3) 0.2404(2) 0.6032(4)
H8B H 0.6518 0.1922 0.5978
C9B C 0.7944(3) 0.19976(19) 0.9013(4)
H9B H 0.7237 0.1778 0.9131
H10B H 0.8176 0.1660 0.8284
C10B C 0.8907(3) 0.20234(19) 1.0606(4)
Gd1_2 Gd -0.048070(13) 0.383169(9) -0.066968(18)
Gd1_3 Gd 1.951930(13) 0.383169(9) 0.933032(18)
Gd1A Gd 0.048070(13) 0.883169(9) -0.433032(18)
Gd1B_2 Gd 1.048070(13) 0.616831(9) 1.066968(18)
Gd1B_3 Gd 2.048070(13) 0.616831(9) 1.066968(18)
Gd1C Gd 0.951930(13) 0.116831(9) 1.433032(18)
O1_2 O -0.1353(2) 0.61526(14) -0.1597(3)
O1B_2 O 1.1353(2) 0.38474(14) 1.1597(3)
O5A O 0.9005(2) 0.35767(14) 0.6468(3)
O5C O 0.0995(2) 0.64233(14) 0.3532(3)
O7_2 O 0.0577(2) 0.49233(15) -0.1305(3)
O7B_2 O -0.0577(2) 0.50767(15) 0.1305(3)
O7B_3 O 0.9423(2) 0.50767(15) 1.1305(3)
O8_2 O 0.1809(2) 0.59187(15) -0.0972(3)
O8B_2 O 0.8191(2) 0.40813(15) 1.0972(3)
O11 O 0.7525(4) 0.7175(2) 0.3561(5)
H15 H 0.782(5) 0.739(3) 0.297(6)
H16 H 0.697(4) 0.746(3) 0.353(8)
loop_
_geom_bond_atom_site_label_1
_geom_bond_atom_site_label_2
_geom_bond_site_symmetry_1
_geom_bond_site_symmetry_2
Gd1 O2 1_555 1_555
O1 C1 1_555 1_555
O2 C1 1_555 1_555
O3 C2 1_555 1_555
O4 C6 1_555 1_555
O5 C10 1_555 1_555
O6 C10 1_555 1_555
O7 Gd1 1_555 1_555
O8 C11 1_555 1_555
O9 C12 1_555 1_555
O10 Gd1 1_555 1_555
H1 O10 1_555 1_555
H2 O10 1_555 1_555
C1 C2 1_555 1_555
C2 H3 1_555 1_555
H4 C2 1_555 1_555
C3 O3 1_555 1_555
C4 C3 1_555 1_555
H5 C4 1_555 1_555
C5 C4 1_555 1_555
H6 C5 1_555 1_555
C6 C5 1_555 1_555
C7 C3 1_555 1_555
H7 C7 1_555 1_555
C8 C6 1_555 1_555
H8 C8 1_555 1_555
C9 O4 1_555 1_555
H9 C9 1_555 1_555
H10 C9 1_555 1_555
C10 C9 1_555 1_555
C11 O7 1_555 1_555
C12 C11 1_555 1_555
H11 C12 1_555 1_555
H12 C12 1_555 1_555
C13 O9 1_555 1_555
C14 C13 1_555 1_555
H13 C14 1_555 1_555
C15 C13 1_555 1_555
H14 C15 1_555 1_555
O11 H15 1_555 1_555
H16 O11 1_555 1_555
O7B C11B 1_555 1_555
O8B C11B 1_555 1_555
O9B C12B 1_555 1_555
C11B C12B 1_555 1_555
C12B H11B 1_555 1_555
H12B C12B 1_555 1_555
C13B O9B 1_555 1_555
C14B C15 1_555 1_555
H13B C14B 1_555 1_555
C15B C14 1_555 1_555
H14B C15B 1_555 1_555
Gd1B O4 1_555 1_555
O1B C1B 1_555 1_555
O2B Gd1B 1_555 1_555
O3B C2B 1_555 1_555
O4B Gd1 1_555 1_555
O5B C10B 1_555 1_555
O6B Gd1 1_555 1_555
O10B Gd1B 1_555 1_555
H1B O10B 1_555 1_555
H2B O10B 1_555 1_555
C1B O2B 1_555 1_555
C2B C1B 1_555 1_555
H3B C2B 1_555 1_555
H4B C2B 1_555 1_555
C3B O3B 1_555 1_555
C4B C3B 1_555 1_555
H5B C4B 1_555 1_555
C5B C4B 1_555 1_555
H6B C5B 1_555 1_555
C6B O4B 1_555 1_555
C7B C3B 1_555 1_555
H7B C7B 1_555 1_555
C8B C6B 1_555 1_555
H8B C8B 1_555 1_555
C9B O4B 1_555 1_555
H9B C9B 1_555 1_555
H10B C9B 1_555 1_555
C10B O6B 1_555 1_555
Gd1_2 O1B 1_555 1_555
Gd1_3 O7B 1_555 1_555
Gd1A O5 1_555 1_555
Gd1B_2 O1 1_555 1_555
Gd1B_3 O7B 1_555 1_555
Gd1C O5B 1_555 1_555
O1_2 Gd1B 1_555 1_555
O1B_2 Gd1 1_555 1_555
O5A Gd1 1_555 1_555
O5C Gd1B 1_555 1_555
O7_2 Gd1B 1_555 1_555
O7B_2 Gd1B 1_555 1_555
O7B_3 Gd1 1_555 1_555
O8_2 Gd1B 1_555 1_555
O8B_2 Gd1 1_555 1_555
O6 Gd1B 1_555 1_555
O7 Gd1B_2 1_555 1_555
O8 Gd1B_2 1_555 1_555
C7 C8 1_555 1_555
O8B Gd1_3 1_555 1_555
C13B C14B 1_555 1_555
C13B C15B 1_555 1_555
C5B C6B 1_555 1_555
C7B C8B 1_555 1_555
C9B C10B 1_555 1_555
Gd1_2 O7_2 1_555 1_555
Gd1_2 O7B_2 1_555 1_555
Gd1B_2 O7B_3 1_555 1_555

#END
