
#######################################################################
#
#                 Cambridge Crystallographic Data Centre
#                                CCDC 
#
#######################################################################
#
# If this CIF has been generated from an entry in the Cambridge 
# Structural Database, then it will include bibliographic, chemical, 
# crystal, experimental, refinement or atomic coordinate data resulting 
# from the CCDC's data processing and validation procedures.
#
#######################################################################

data_CODNUG
_symmetry_cell_setting           monoclinic
_symmetry_space_group_name_H-M   'C 2/c'
_symmetry_Int_Tables_number      15
_space_group_name_Hall           '-C 2yn'
loop_
_symmetry_equiv_pos_site_id
_symmetry_equiv_pos_as_xyz
1 x,y,z
2 -x,y,1/2-z
3 1/2+x,1/2+y,z
4 1/2-x,1/2+y,1/2-z
5 -x,-y,-z
6 x,-y,1/2+z
7 1/2-x,1/2-y,-z
8 1/2+x,1/2-y,1/2+z
_cell_length_a                   41.903(15)
_cell_length_b                   13.478(5)
_cell_length_c                   15.042(6)
_cell_angle_alpha                90
_cell_angle_beta                 108.495(4)
_cell_angle_gamma                90
_cell_volume                     8056.48
loop_
_atom_site_label
_atom_site_type_symbol
_atom_site_fract_x
_atom_site_fract_y
_atom_site_fract_z
Mn1 Mn 0.172144(8) 0.21975(2) 0.65117(2)
Mn2 Mn 0.082590(8) 0.22502(2) 0.58476(2)
N1 N 0.22452(5) 0.28133(14) 0.70175(13)
N2 N 0.20193(5) 0.13514(13) 0.57447(13)
N3 N 0.03831(5) 0.31488(14) 0.59504(12)
N4 N 0.04390(4) 0.11620(13) 0.59946(12)
O1 O 0.17296(4) 0.08680(12) 0.73997(12)
O2 O 0.12710(4) 0.10921(10) 0.62020(11)
O3 O 0.05361(4) -0.27524(13) 0.82195(12)
O4 O 0.07409(5) -0.18210(13) 0.94797(11)
O5 O 0.15414(4) 0.32392(12) 0.54661(12)
O6 O 0.10347(4) 0.36266(12) 0.55464(12)
O7 O 0.15998(4) 0.69603(12) 0.25364(12)
O8 O 0.10666(4) 0.74011(11) 0.23226(10)
C1 C 0.23463(7) 0.35758(19) 0.75922(18)
H1 H 0.2197 0.3848 0.7869
C2 C 0.26639(8) 0.3985(2) 0.7799(2)
H2 H 0.2723 0.4535 0.8190
C3 C 0.28873(8) 0.3577(3) 0.7427(2)
H3 H 0.3103 0.3840 0.7570
C4 C 0.27950(6) 0.2759(2) 0.6825(2)
C5 C 0.30134(7) 0.2284(3) 0.6403(3)
H4 H 0.3234 0.2505 0.6545
C6 C 0.29095(8) 0.1527(3) 0.5808(3)
H5 H 0.3060 0.1223 0.5553
C7 C 0.25692(7) 0.1177(2) 0.5557(2)
C8 C 0.24378(9) 0.0423(2) 0.4911(2)
H6 H 0.2578 0.0096 0.4637
C9 C 0.21085(9) 0.0157(2) 0.4674(2)
H7 H 0.2021 -0.0334 0.4230
C10 C 0.19061(7) 0.06423(18) 0.51167(17)
H8 H 0.1681 0.0458 0.4963
C11 C 0.23468(6) 0.16193(17) 0.59639(16)
C12 C 0.24644(5) 0.24159(17) 0.66224(16)
C13 C 0.14303(6) 0.06541(16) 0.69596(17)
C14 C 0.12587(5) -0.01046(16) 0.73725(15)
C15 C 0.11754(5) -0.10608(16) 0.69668(15)
C16 C 0.12538(6) -0.13431(18) 0.61559(17)
H9 H 0.1355 -0.0885 0.5869
C17 C 0.11849(7) -0.2261(2) 0.5788(2)
H10 H 0.1237 -0.2432 0.5252
C18 C 0.10338(7) -0.29547(19) 0.6222(2)
H11 H 0.0992 -0.3593 0.5979
C19 C 0.09474(6) -0.27136(18) 0.69879(18)
H12 H 0.0844 -0.3187 0.7255
C20 C 0.10105(5) -0.17561(16) 0.73916(15)
C21 C 0.09248(5) -0.14546(16) 0.81992(15)
C22 C 0.10179(6) -0.05355(17) 0.85696(16)
H13 H 0.0969 -0.0351 0.9108
C23 C 0.11842(6) 0.01354(17) 0.81667(16)
H14 H 0.1245 0.0754 0.8442
C24 C 0.07198(6) -0.20763(17) 0.86631(17)
C25 C 0.12865(6) 0.37913(17) 0.53074(16)
C26 C 0.12891(5) 0.47071(15) 0.47328(16)
C27 C 0.15578(5) 0.54002(15) 0.50013(15)
C28 C 0.18017(6) 0.53956(18) 0.59058(17)
H15 H 0.1790 0.4913 0.6336
C29 C 0.20506(7) 0.6080(2) 0.61543(19)
H16 H 0.2207 0.6069 0.6753
C30 C 0.20734(7) 0.6807(2) 0.5510(2)
H17 H 0.2248 0.7267 0.5681
C31 C 0.18445(6) 0.68455(17) 0.46415(18)
H18 H 0.1864 0.7334 0.4225
C32 C 0.15760(5) 0.61537(15) 0.43566(15)
C33 C 0.13175(5) 0.62074(15) 0.34766(15)
C34 C 0.10518(6) 0.55702(16) 0.32828(16)
H19 H 0.0876 0.5641 0.2725
C35 C 0.10380(6) 0.48113(16) 0.39053(16)
H20 H 0.0856 0.4377 0.3752
C36 C 0.13297(6) 0.69223(16) 0.27226(16)
C37 C 0.03607(7) 0.41296(18) 0.59474(17)
H21 H 0.0531 0.4498 0.5831
C38 C 0.00955(8) 0.4635(2) 0.61092(19)
H22 H 0.0091 0.5325 0.6115
C39 C -0.01559(8) 0.4105(3) 0.6258(2)
H23 H -0.0337 0.4434 0.6358
C40 C -0.01487(6) 0.3066(2) 0.62642(17)
C41 C -0.03998(7) 0.2459(3) 0.6427(2)
H24 H -0.0586 0.2754 0.6529
C42 C -0.03760(7) 0.1475(3) 0.6436(2)
H25 H -0.0546 0.1097 0.6544
C43 C -0.00951(6) 0.0986(2) 0.62840(17)
C44 C -0.00561(8) -0.0044(2) 0.62845(19)
H26 H -0.0219 -0.0453 0.6389
C45 C 0.02182(8) -0.0450(2) 0.61341(18)
H27 H 0.0245 -0.1135 0.6131
C46 C 0.04599(6) 0.01828(18) 0.59846(16)
H28 H 0.0646 -0.0099 0.5872
C47 C 0.01622(5) 0.15624(18) 0.61311(15)
C48 C 0.01316(5) 0.26205(18) 0.61102(15)
Mn1E Mn 0.172144(8) 0.78025(2) 0.15117(2)
Mn2E Mn 0.082590(8) -0.22502(2) 1.08476(2)
Mn2E_2 Mn 0.082590(8) 0.77498(2) 0.08476(2)
O4E O 0.07409(5) 0.18210(13) 0.44797(11)
O7E O 0.15998(4) 0.30397(12) 0.75364(12)
O8E O 0.10666(4) 0.25989(11) 0.73226(10)
O9 O 0.00798(6) 0.28992(15) 0.12998(17)
H29 H -0.0123(5) 0.288(2) 0.135(2)
H30 H 0.0218(8) 0.286(2) 0.188(2)
loop_
_geom_bond_atom_site_label_1
_geom_bond_atom_site_label_2
_geom_bond_site_symmetry_1
_geom_bond_site_symmetry_2
Mn1 N1 1_555 1_555
Mn2 N3 1_555 1_555
N1 C1 1_555 1_555
N2 Mn1 1_555 1_555
N3 C37 1_555 1_555
N4 Mn2 1_555 1_555
O1 Mn1 1_555 1_555
O2 Mn1 1_555 1_555
O3 C24 1_555 1_555
O4 C24 1_555 1_555
O5 Mn1 1_555 1_555
O6 Mn2 1_555 1_555
O7 C36 1_555 1_555
O8 C36 1_555 1_555
C1 H1 1_555 1_555
C2 C1 1_555 1_555
H2 C2 1_555 1_555
C3 C2 1_555 1_555
H3 C3 1_555 1_555
C4 C3 1_555 1_555
C5 C4 1_555 1_555
H4 C5 1_555 1_555
C6 C5 1_555 1_555
H5 C6 1_555 1_555
C7 C6 1_555 1_555
C8 C7 1_555 1_555
H6 C8 1_555 1_555
C9 C8 1_555 1_555
H7 C9 1_555 1_555
C10 N2 1_555 1_555
H8 C10 1_555 1_555
C11 N2 1_555 1_555
C12 N1 1_555 1_555
C13 O1 1_555 1_555
C14 C13 1_555 1_555
C15 C14 1_555 1_555
C16 C15 1_555 1_555
H9 C16 1_555 1_555
C17 C16 1_555 1_555
H10 C17 1_555 1_555
C18 C17 1_555 1_555
H11 C18 1_555 1_555
C19 C18 1_555 1_555
H12 C19 1_555 1_555
C20 C15 1_555 1_555
C21 C20 1_555 1_555
C22 C21 1_555 1_555
H13 C22 1_555 1_555
C23 C14 1_555 1_555
H14 C23 1_555 1_555
C24 C21 1_555 1_555
C25 O5 1_555 1_555
C26 C25 1_555 1_555
C27 C26 1_555 1_555
C28 C27 1_555 1_555
H15 C28 1_555 1_555
C29 C28 1_555 1_555
H16 C29 1_555 1_555
C30 C29 1_555 1_555
H17 C30 1_555 1_555
C31 C30 1_555 1_555
H18 C31 1_555 1_555
C32 C27 1_555 1_555
C33 C32 1_555 1_555
C34 C33 1_555 1_555
H19 C34 1_555 1_555
C35 C26 1_555 1_555
H20 C35 1_555 1_555
C36 C33 1_555 1_555
C37 H21 1_555 1_555
C38 C37 1_555 1_555
H22 C38 1_555 1_555
C39 C38 1_555 1_555
H23 C39 1_555 1_555
C40 C39 1_555 1_555
C41 C40 1_555 1_555
H24 C41 1_555 1_555
C42 C41 1_555 1_555
H25 C42 1_555 1_555
C43 C42 1_555 1_555
C44 C43 1_555 1_555
H26 C44 1_555 1_555
C45 C44 1_555 1_555
H27 C45 1_555 1_555
C46 N4 1_555 1_555
H28 C46 1_555 1_555
C47 N4 1_555 1_555
C48 N3 1_555 1_555
O9 H29 1_555 1_555
H30 O9 1_555 1_555
Mn1E O7 1_555 1_555
Mn2E O4 1_555 1_555
Mn2E_2 O8 1_555 1_555
O4E Mn2 1_555 1_555
O7E Mn1 1_555 1_555
O8E Mn2 1_555 1_555
Mn2 O2 1_555 1_555
O2 C13 1_555 1_555
O6 C25 1_555 1_555
C4 C12 1_555 1_555
C7 C11 1_555 1_555
C9 C10 1_555 1_555
C11 C12 1_555 1_555
C19 C20 1_555 1_555
C22 C23 1_555 1_555
C31 C32 1_555 1_555
C34 C35 1_555 1_555
C40 C48 1_555 1_555
C43 C47 1_555 1_555
C45 C46 1_555 1_555
C47 C48 1_555 1_555

#END
