
#######################################################################
#
#                 Cambridge Crystallographic Data Centre
#                                CCDC 
#
#######################################################################
#
# If this CIF has been generated from an entry in the Cambridge 
# Structural Database, then it will include bibliographic, chemical, 
# crystal, experimental, refinement or atomic coordinate data resulting 
# from the CCDC's data processing and validation procedures.
#
#######################################################################

data_CODPUH
_symmetry_cell_setting           monoclinic
_symmetry_space_group_name_H-M   'P 21/n'
_symmetry_Int_Tables_number      14
_space_group_name_Hall           '-P 2yn'
loop_
_symmetry_equiv_pos_site_id
_symmetry_equiv_pos_as_xyz
1 x,y,z
2 1/2-x,1/2+y,1/2-z
3 -x,-y,-z
4 1/2+x,1/2-y,1/2+z
_cell_length_a                   12.8255(17)
_cell_length_b                   8.8331(12)
_cell_length_c                   16.222(2)
_cell_angle_alpha                90
_cell_angle_beta                 108.733(2)
_cell_angle_gamma                90
_cell_volume                     1740.42
loop_
_atom_site_label
_atom_site_type_symbol
_atom_site_fract_x
_atom_site_fract_y
_atom_site_fract_z
Co1 Co 0.5000 0.0000 0.0000
O1 O 0.61878(15) 0.0989(2) 0.10986(12)
N1 N 0.39006(15) -0.0228(2) 0.07470(12)
N2 N 0.32266(17) -0.0870(2) 0.17886(13)
N3 N 0.13761(16) -0.0554(2) 0.51650(13)
N4 N 0.07693(16) -0.2804(2) 0.53787(13)
C1 C 0.2865(2) 0.0386(3) 0.05775(17)
H1 H 0.2507 0.0980 0.0096
C2 C 0.2448(2) 0.0001(3) 0.12108(17)
H2 H 0.1764 0.0274 0.1248
C3 C 0.40811(19) -0.0977(3) 0.14825(16)
H3 H 0.4723 -0.1514 0.1757
C4 C 0.3137(2) -0.1600(3) 0.25739(17)
H4 H 0.3716 -0.2351 0.2775
H5 H 0.2436 -0.2121 0.2432
C5 C 0.3227(2) -0.0477(3) 0.32974(15)
C6 C 0.23783(19) -0.0333(3) 0.36449(15)
H6 H 0.1741 -0.0905 0.3420
C7 C 0.24734(19) 0.0667(3) 0.43321(15)
C8 C 0.3414(2) 0.1536(3) 0.46454(16)
H7 H 0.3478 0.2204 0.5102
C9 C 0.4267(2) 0.1435(3) 0.42937(16)
C10 C 0.4167(2) 0.0410(3) 0.36272(16)
H8 H 0.4738 0.0312 0.3395
C11 C 0.1539(2) 0.0816(3) 0.47028(18)
H9 H 0.1686 0.1666 0.5102
H10 H 0.0866 0.1032 0.4233
C12 C 0.5280(2) 0.2423(4) 0.4635(2)
H11 H 0.5918 0.1866 0.4623
H12 H 0.5367 0.2721 0.5223
H13 H 0.5198 0.3308 0.4277
C13 C 0.1892(2) -0.0912(3) 0.60199(17)
H14 H 0.2402 -0.0325 0.6433
C14 C 0.1508(2) -0.2296(3) 0.61425(17)
H15 H 0.1715 -0.2823 0.6667
C15 C 0.07180(19) -0.1718(3) 0.48106(16)
H16 H 0.0276 -0.1756 0.4231
H17 H 0.6887(10) 0.080(4) 0.1214(18)
H20 H 0.601(2) 0.139(3) 0.1525(14)
Co1C Co 0.0000 -0.5000 0.5000
Co1C_2 Co 1.0000 0.5000 -0.5000
O1B O 0.38122(15) -0.0989(2) -0.10986(12)
N1B N 0.60994(15) 0.0228(2) -0.07470(12)
N2B N 0.67734(17) 0.0870(2) -0.17886(13)
N3B N 0.86239(16) 0.0554(2) -0.51650(13)
N4B N 0.92307(16) 0.2804(2) -0.53787(13)
N4C N 0.57693(16) -0.2196(2) 0.03787(13)
N4A N 0.42307(16) 0.2196(2) -0.03787(13)
C1B C 0.7135(2) -0.0386(3) -0.05775(17)
H1B H 0.7493 -0.0980 -0.0096
C2B C 0.7552(2) -0.0001(3) -0.12108(17)
H2B H 0.8236 -0.0274 -0.1248
C3B C 0.59189(19) 0.0977(3) -0.14825(16)
H3B H 0.5277 0.1514 -0.1757
C4B C 0.6863(2) 0.1600(3) -0.25739(17)
H4B H 0.6284 0.2351 -0.2775
H5B H 0.7564 0.2121 -0.2432
C5B C 0.6773(2) 0.0477(3) -0.32974(15)
C6B C 0.76217(19) 0.0333(3) -0.36449(15)
H6B H 0.8259 0.0905 -0.3420
C7B C 0.75266(19) -0.0667(3) -0.43321(15)
C8B C 0.6586(2) -0.1536(3) -0.46454(16)
H7B H 0.6522 -0.2204 -0.5102
C9B C 0.5733(2) -0.1435(3) -0.42937(16)
C10B C 0.5833(2) -0.0410(3) -0.36272(16)
H8B H 0.5262 -0.0312 -0.3395
C11B C 0.8461(2) -0.0816(3) -0.47028(18)
H9B H 0.8314 -0.1666 -0.5102
H10B H 0.9134 -0.1032 -0.4233
C12B C 0.4720(2) -0.2423(4) -0.4635(2)
H11B H 0.4082 -0.1866 -0.4623
H12B H 0.4633 -0.2721 -0.5223
H13B H 0.4802 -0.3308 -0.4277
C13B C 0.8108(2) 0.0912(3) -0.60199(17)
H14B H 0.7598 0.0325 -0.6433
C14B C 0.8492(2) 0.2296(3) -0.61425(17)
H15B H 0.8285 0.2823 -0.6667
C15B C 0.92820(19) 0.1718(3) -0.48106(16)
H16B H 0.9724 0.1756 -0.4231
H17B H 0.3113(10) -0.080(4) -0.1214(18)
H20B H 0.399(2) -0.139(3) -0.1525(14)
O2 O 0.8810(2) 0.2429(3) 0.18013(16)
O3 O 1.0007(2) 0.0657(4) 0.2183(3)
O4 O 0.83416(19) 0.0068(3) 0.17352(18)
N5 N 0.9055(2) 0.1075(4) 0.18899(18)
O5 O 0.5584(3) 0.2447(3) 0.23815(17)
H18 H 0.580(4) 0.336(2) 0.256(3)
H19 H 0.506(8) 0.209(8) 0.256(8)
loop_
_geom_bond_atom_site_label_1
_geom_bond_atom_site_label_2
_geom_bond_site_symmetry_1
_geom_bond_site_symmetry_2
Co1 O1 1_555 1_555
O1 H17 1_555 1_555
O2 N5 1_555 1_555
O3 N5 1_555 1_555
O4 N5 1_555 1_555
O5 H18 1_555 1_555
N1 Co1 1_555 1_555
N2 C2 1_555 1_555
N3 C11 1_555 1_555
N4 C14 1_555 1_555
C1 N1 1_555 1_555
H1 C1 1_555 1_555
C2 C1 1_555 1_555
H2 C2 1_555 1_555
C3 N1 1_555 1_555
H3 C3 1_555 1_555
C4 N2 1_555 1_555
H4 C4 1_555 1_555
H5 C4 1_555 1_555
C5 C4 1_555 1_555
C6 C5 1_555 1_555
H6 C6 1_555 1_555
C7 C6 1_555 1_555
C8 C7 1_555 1_555
H7 C8 1_555 1_555
C9 C8 1_555 1_555
C10 C5 1_555 1_555
H8 C10 1_555 1_555
C11 C7 1_555 1_555
H9 C11 1_555 1_555
H10 C11 1_555 1_555
C12 C9 1_555 1_555
H11 C12 1_555 1_555
H12 C12 1_555 1_555
H13 C12 1_555 1_555
C13 N3 1_555 1_555
H14 C13 1_555 1_555
C14 C13 1_555 1_555
H15 C14 1_555 1_555
C15 N3 1_555 1_555
H16 C15 1_555 1_555
H19 O5 1_555 1_555
H20 O1 1_555 1_555
Co1C N4 1_555 1_555
Co1C_2 N4B 1_555 1_555
O1B Co1 1_555 1_555
N1B Co1 1_555 1_555
N2B C2B 1_555 1_555
N3B C11B 1_555 1_555
N4B C14B 1_555 1_555
N4C Co1 1_555 1_555
N4A Co1 1_555 1_555
C1B N1B 1_555 1_555
H1B C1B 1_555 1_555
C2B C1B 1_555 1_555
H2B C2B 1_555 1_555
C3B N1B 1_555 1_555
H3B C3B 1_555 1_555
C4B N2B 1_555 1_555
H4B C4B 1_555 1_555
H5B C4B 1_555 1_555
C5B C4B 1_555 1_555
C6B C5B 1_555 1_555
H6B C6B 1_555 1_555
C7B C6B 1_555 1_555
C8B C7B 1_555 1_555
H7B C8B 1_555 1_555
C9B C8B 1_555 1_555
C10B C5B 1_555 1_555
H8B C10B 1_555 1_555
C11B C7B 1_555 1_555
H9B C11B 1_555 1_555
H10B C11B 1_555 1_555
C12B C9B 1_555 1_555
H11B C12B 1_555 1_555
H12B C12B 1_555 1_555
H13B C12B 1_555 1_555
C13B N3B 1_555 1_555
H14B C13B 1_555 1_555
C14B C13B 1_555 1_555
H15B C14B 1_555 1_555
C15B N3B 1_555 1_555
H16B C15B 1_555 1_555
H17B O1B 1_555 1_555
H20B O1B 1_555 1_555
N2 C3 1_555 1_555
N4 C15 1_555 1_555
C9 C10 1_555 1_555
N2B C3B 1_555 1_555
N4B C15B 1_555 1_555
C9B C10B 1_555 1_555

#END
