
#######################################################################
#
#                 Cambridge Crystallographic Data Centre
#                                CCDC 
#
#######################################################################
#
# If this CIF has been generated from an entry in the Cambridge 
# Structural Database, then it will include bibliographic, chemical, 
# crystal, experimental, refinement or atomic coordinate data resulting 
# from the CCDC's data processing and validation procedures.
#
#######################################################################

data_CODSAR
_symmetry_cell_setting           monoclinic
_symmetry_space_group_name_H-M   'P 21/c'
_symmetry_Int_Tables_number      14
_space_group_name_Hall           '-P 2ybc'
loop_
_symmetry_equiv_pos_site_id
_symmetry_equiv_pos_as_xyz
1 x,y,z
2 -x,1/2+y,1/2-z
3 -x,-y,-z
4 x,1/2-y,1/2+z
_cell_length_a                   12.0280(4)
_cell_length_b                   16.7363(6)
_cell_length_c                   8.7519(3)
_cell_angle_alpha                90
_cell_angle_beta                 108.9320(10)
_cell_angle_gamma                90
_cell_volume                     1666.49
loop_
_atom_site_label
_atom_site_type_symbol
_atom_site_fract_x
_atom_site_fract_y
_atom_site_fract_z
Tb1 Tb -0.047595(11) 0.119012(7) 0.428714(15)
C1 C 0.8876(2) 0.29411(16) 1.5578(3)
C2 C 0.7942(3) 0.29622(16) 1.3944(3)
H1 H 0.7232 0.3208 1.4022
H2 H 0.8211 0.3271 1.3194
C3 C 0.6623(2) 0.20155(17) 1.2217(3)
C4 C 0.6069(3) 0.13093(17) 1.2318(4)
H3 H 0.6407 0.0958 1.3166
C5 C 0.5009(3) 0.11194(17) 1.1159(4)
H4 H 0.4637 0.0639 1.1222
C6 C 0.4504(2) 0.16465(17) 0.9904(3)
C7 C 0.5049(3) 0.23630(19) 0.9827(4)
H5 H 0.4702 0.2720 0.8996
C8 C 0.6116(3) 0.25539(18) 1.0984(4)
H6 H 0.6485 0.3037 1.0932
C9 C 0.2983(3) 0.07194(18) 0.8689(4)
H7 H 0.2803 0.0645 0.9683
H8 H 0.3573 0.0328 0.8671
C10 C 0.1883(3) 0.05718(17) 0.7270(3)
C11 C -0.1384(3) 0.0198(2) 0.6667(4)
C12 C -0.1975(3) -0.0060(2) 0.7860(5)
H9 H -0.2105 -0.0633 0.7760
H10 H -0.1447 0.0044 0.8943
C13 C -0.3981(3) -0.0426(2) 0.5157(5)
H11 H -0.3298 -0.0712 0.5255
C14 C -0.3997(3) 0.0138(2) 0.6314(5)
C15 C -0.5014(3) 0.0560(2) 0.6142(5)
H12 H -0.5025 0.0941 0.6911
O1 O 0.9499(2) 0.23250(13) 1.5944(3)
O2 O 0.89734(19) 0.35418(12) 1.6453(2)
O3 O 0.77103(17) 0.21492(11) 1.3390(2)
O4 O 0.34513(18) 0.14954(12) 0.8683(2)
O5 O 0.1247(2) 0.11407(12) 0.6584(3)
O6 O 0.1718(2) -0.01564(12) 0.6950(3)
O7 O -0.0659(2) -0.0263(2) 0.6422(3)
O8 O -0.1602(2) 0.08661(15) 0.6036(3)
O9 O -0.3063(2) 0.03220(18) 0.7671(3)
O10 O 0.0877(2) 0.21577(18) 0.3837(3)
H13 H 0.1401 0.2469 0.4623
H14 H 0.0590 0.2581 0.3007
C11B C -0.8616(3) -0.0198(2) 0.3333(4)
C12B C -0.8025(3) 0.0060(2) 0.2140(5)
H9B H -0.7895 0.0633 0.2240
H10B H -0.8553 -0.0044 0.1057
C13B C -0.6019(3) 0.0426(2) 0.4843(5)
H11B H -0.6702 0.0712 0.4745
C14B C -0.6003(3) -0.0138(2) 0.3686(5)
C15B C -0.4986(3) -0.0560(2) 0.3858(5)
H12B H -0.4975 -0.0941 0.3089
O7B O -0.9341(2) 0.0263(2) 0.3578(3)
O8B O -0.8398(2) -0.08661(15) 0.3964(3)
O9B O -0.6937(2) -0.03220(18) 0.2329(3)
Tb1B Tb -0.952405(11) -0.119012(7) 0.571286(15)
C1B C -1.8876(2) -0.29411(16) -0.5578(3)
C2B C -1.7942(3) -0.29622(16) -0.3944(3)
H1B H -1.7232 -0.3208 -0.4022
H2B H -1.8211 -0.3271 -0.3194
C3B C -1.6623(2) -0.20155(17) -0.2217(3)
C4B C -1.6069(3) -0.13093(17) -0.2318(4)
H3B H -1.6407 -0.0958 -0.3166
C5B C -1.5009(3) -0.11194(17) -0.1159(4)
H4B H -1.4637 -0.0639 -0.1222
C6B C -1.4504(2) -0.16465(17) 0.0096(3)
C7B C -1.5049(3) -0.23630(19) 0.0173(4)
H5B H -1.4702 -0.2720 0.1004
C8B C -1.6116(3) -0.25539(18) -0.0984(4)
H6B H -1.6485 -0.3037 -0.0932
C9B C -1.2983(3) -0.07194(18) 0.1311(4)
H7B H -1.2803 -0.0645 0.0317
H8B H -1.3573 -0.0328 0.1329
C10B C -1.1883(3) -0.05718(17) 0.2730(3)
O1B O -1.9499(2) -0.23250(13) -0.5944(3)
O2B O -1.89734(19) -0.35418(12) -0.6453(2)
O3B O -1.77103(17) -0.21492(11) -0.3390(2)
O4B O -1.34513(18) -0.14954(12) 0.1317(2)
O5B O -1.1247(2) -0.11407(12) 0.3416(3)
O6B O -1.1718(2) 0.01564(12) 0.3050(3)
O10B O -1.0877(2) -0.21577(18) 0.6163(3)
H13B H -1.1401 -0.2469 0.5377
H14B H -1.0590 -0.2581 0.6993
Tb1_2 Tb -1.047595(11) 0.119012(7) 0.428714(15)
Tb1_3 Tb 0.952405(11) 0.119012(7) 1.428714(15)
Tb1A Tb -1.952405(11) -0.380988(7) -0.928714(15)
Tb1B_2 Tb -1.952405(11) -0.119012(7) -0.428714(15)
Tb1B_3 Tb 0.047595(11) -0.119012(7) 0.571286(15)
Tb1C Tb 0.952405(11) 0.380988(7) 1.928714(15)
O1_2 O -0.0501(2) 0.23250(13) 0.5944(3)
O1B_2 O -0.9499(2) -0.23250(13) 0.4056(3)
O2A O -0.89734(19) -0.14582(12) 0.8547(2)
O2C O -0.10266(19) 0.14582(12) 0.1453(2)
O3_2 O -0.22897(17) 0.21492(11) 0.3390(2)
O3B_2 O -0.77103(17) -0.21492(11) 0.6610(2)
O6_2 O -0.8282(2) -0.01564(12) 0.6950(3)
O6B_2 O -0.1718(2) 0.01564(12) 0.3050(3)
O7_2 O -1.0659(2) -0.0263(2) 0.6422(3)
O7B_2 O 0.0659(2) 0.0263(2) 0.3578(3)
O11 O 0.2362(3) 0.28671(18) 0.6560(4)
H15 H 0.2261 0.2514 0.7184
H16 H 0.3134 0.2889 0.6761
loop_
_geom_bond_atom_site_label_1
_geom_bond_atom_site_label_2
_geom_bond_site_symmetry_1
_geom_bond_site_symmetry_2
Tb1 O5 1_555 1_555
C1 C2 1_555 1_555
C2 H1 1_555 1_555
H2 C2 1_555 1_555
C3 C4 1_555 1_555
C4 H3 1_555 1_555
C5 C4 1_555 1_555
H4 C5 1_555 1_555
C6 C5 1_555 1_555
C7 C6 1_555 1_555
H5 C7 1_555 1_555
C8 C3 1_555 1_555
H6 C8 1_555 1_555
C9 H7 1_555 1_555
H8 C9 1_555 1_555
C10 C9 1_555 1_555
C11 C12 1_555 1_555
C12 H9 1_555 1_555
H10 C12 1_555 1_555
C13 H11 1_555 1_555
C14 C13 1_555 1_555
C15 C14 1_555 1_555
H12 C15 1_555 1_555
O1 C1 1_555 1_555
O2 C1 1_555 1_555
O3 C2 1_555 1_555
O4 C6 1_555 1_555
O5 C10 1_555 1_555
O6 C10 1_555 1_555
O7 C11 1_555 1_555
O8 Tb1 1_555 1_555
O9 C12 1_555 1_555
O10 Tb1 1_555 1_555
H13 O10 1_555 1_555
H14 O10 1_555 1_555
O11 H15 1_555 1_555
H16 O11 1_555 1_555
C11B C12B 1_555 1_555
C12B H9B 1_555 1_555
H10B C12B 1_555 1_555
C13B C15 1_555 1_555
H11B C13B 1_555 1_555
C14B C13B 1_555 1_555
C15B C13 1_555 1_555
H12B C15B 1_555 1_555
O7B C11B 1_555 1_555
O8B C11B 1_555 1_555
O9B C12B 1_555 1_555
Tb1B O8B 1_555 1_555
C1B C2B 1_555 1_555
C2B H1B 1_555 1_555
H2B C2B 1_555 1_555
C3B C4B 1_555 1_555
C4B H3B 1_555 1_555
C5B C4B 1_555 1_555
H4B C5B 1_555 1_555
C6B C5B 1_555 1_555
C7B C6B 1_555 1_555
H5B C7B 1_555 1_555
C8B C3B 1_555 1_555
H6B C8B 1_555 1_555
C9B H7B 1_555 1_555
H8B C9B 1_555 1_555
C10B C9B 1_555 1_555
O1B C1B 1_555 1_555
O2B C1B 1_555 1_555
O3B C2B 1_555 1_555
O4B C6B 1_555 1_555
O5B Tb1B 1_555 1_555
O6B C10B 1_555 1_555
O10B Tb1B 1_555 1_555
H13B O10B 1_555 1_555
H14B O10B 1_555 1_555
Tb1_2 O7B 1_555 1_555
Tb1_3 O1 1_555 1_555
Tb1A O2B 1_555 1_555
Tb1B_2 O1B 1_555 1_555
Tb1B_3 O6 1_555 1_555
Tb1C O2 1_555 1_555
O1_2 Tb1 1_555 1_555
O1B_2 Tb1B 1_555 1_555
O2A Tb1B 1_555 1_555
O2C Tb1 1_555 1_555
O3_2 Tb1 1_555 1_555
O3B_2 Tb1B 1_555 1_555
O6_2 Tb1B 1_555 1_555
O6B_2 Tb1 1_555 1_555
O7_2 Tb1B 1_555 1_555
O7B_2 Tb1 1_555 1_555
C3 O3 1_555 1_555
C7 C8 1_555 1_555
C9 O4 1_555 1_555
C11 O8 1_555 1_555
C14 O9 1_555 1_555
O3 Tb1_3 1_555 1_555
O7 Tb1B_3 1_555 1_555
C14B C15B 1_555 1_555
C14B O9B 1_555 1_555
C3B O3B 1_555 1_555
C7B C8B 1_555 1_555
C9B O4B 1_555 1_555
C10B O5B 1_555 1_555
O3B Tb1B_2 1_555 1_555
O6B Tb1_2 1_555 1_555

#END
