
#######################################################################
#
#                 Cambridge Crystallographic Data Centre
#                                CCDC 
#
#######################################################################
#
# If this CIF has been generated from an entry in the Cambridge 
# Structural Database, then it will include bibliographic, chemical, 
# crystal, experimental, refinement or atomic coordinate data resulting 
# from the CCDC's data processing and validation procedures.
#
#######################################################################

data_CODSOE
_symmetry_cell_setting           monoclinic
_symmetry_space_group_name_H-M   'P 21/c'
_symmetry_Int_Tables_number      14
_space_group_name_Hall           '-P 2ybc'
loop_
_symmetry_equiv_pos_site_id
_symmetry_equiv_pos_as_xyz
1 x,y,z
2 -x,1/2+y,1/2-z
3 -x,-y,-z
4 x,1/2-y,1/2+z
_cell_length_a                   14.2378(7)
_cell_length_b                   10.8114(8)
_cell_length_c                   28.5382(14)
_cell_angle_alpha                90
_cell_angle_beta                 101.954(4)
_cell_angle_gamma                90
_cell_volume                     4297.64
loop_
_atom_site_label
_atom_site_type_symbol
_atom_site_fract_x
_atom_site_fract_y
_atom_site_fract_z
Cu1 Cu 0.22931(4) 0.30910(6) 0.303400(17)
Cu2 Cu 0.27230(4) 0.46297(6) 0.214796(18)
P1 P 0.25048(8) 0.32088(12) 0.38065(4)
P2 P 0.22975(8) 0.39031(12) 0.14255(4)
O1 O 0.3501(2) 0.3697(3) 0.27534(11)
O2 O 0.1623(2) 0.4283(4) 0.25226(11)
N1 N 0.6933(3) 0.1451(4) 0.26443(13)
N2 N -0.1975(3) 0.6411(4) 0.23269(13)
C1 C 0.7428(3) 0.1903(5) 0.23369(17)
H1 H 0.7984 0.1465 0.2296
C2 C 0.7185(4) 0.2975(5) 0.20708(16)
H2 H 0.7578 0.3261 0.1862
C3 C 0.6374(4) 0.3617(5) 0.21122(16)
H3 H 0.6185 0.4337 0.1926
C4 C 0.5825(3) 0.3178(5) 0.24404(15)
C5 C 0.4957(3) 0.3755(5) 0.24828(16)
H4 H 0.4766 0.4493 0.2308
C6 C 0.4372(3) 0.3268(5) 0.27742(15)
C7 C 0.4743(3) 0.2271(5) 0.30772(16)
H5 H 0.4397 0.1989 0.3308
C8 C 0.5590(3) 0.1699(5) 0.30467(15)
H6 H 0.5814 0.1018 0.3250
C9 C 0.6139(3) 0.2124(5) 0.27097(15)
C10 C -0.2525(3) 0.6070(5) 0.26258(16)
H7 H -0.3124 0.6479 0.2602
C11 C -0.2284(4) 0.5146(5) 0.29754(17)
H8 H -0.2719 0.4925 0.3173
C12 C -0.1413(3) 0.4570(5) 0.30273(16)
H9 H -0.1232 0.3948 0.3264
C13 C -0.0780(3) 0.4914(5) 0.27222(15)
C14 C 0.0137(3) 0.4379(5) 0.27677(15)
H10 H 0.0340 0.3768 0.3006
C15 C 0.0751(3) 0.4728(5) 0.24694(15)
C16 C 0.0385(3) 0.5589(5) 0.20957(16)
H11 H 0.0772 0.5790 0.1872
C17 C -0.0497(3) 0.6136(5) 0.20451(15)
H12 H -0.0702 0.6728 0.1799
C18 C -0.1107(3) 0.5813(5) 0.23644(14)
C19 C 0.1510(3) 0.3185(6) 0.41259(16)
C20 C 0.0905(4) 0.4206(6) 0.40608(19)
H13 H 0.0994 0.4836 0.3842
C21 C 0.0167(4) 0.4316(8) 0.4312(2)
H14 H -0.0238 0.5023 0.4271
C22 C 0.0033(4) 0.3360(7) 0.4629(2)
H15 H -0.0462 0.3427 0.4805
C23 C 0.0609(4) 0.2340(7) 0.4682(2)
H16 H 0.0498 0.1689 0.4888
C24 C 0.1363(4) 0.2241(6) 0.44371(18)
H17 H 0.1771 0.1537 0.4482
C25 C 0.3160(3) 0.4524(5) 0.40984(15)
C26 C 0.3329(4) 0.4703(5) 0.45973(17)
H18 H 0.3079 0.4124 0.4790
C27 C 0.3845(4) 0.5690(6) 0.48097(18)
H19 H 0.3965 0.5782 0.5148
C28 C 0.4199(4) 0.6568(6) 0.45294(19)
H20 H 0.4555 0.7260 0.4676
C29 C 0.4027(4) 0.6420(5) 0.40382(18)
H21 H 0.4261 0.7019 0.3847
C30 C 0.3517(4) 0.5409(5) 0.38203(16)
H22 H 0.3410 0.5314 0.3482
C31 C 0.3262(3) 0.1909(5) 0.40457(15)
C32 C 0.2951(4) 0.0718(5) 0.39097(16)
H23 H 0.2316 0.0601 0.3730
C33 C 0.3547(4) -0.0312(5) 0.40305(16)
H24 H 0.3313 -0.1122 0.3947
C34 C 0.4477(4) -0.0130(6) 0.4272(2)
H25 H 0.4897 -0.0818 0.4345
C35 C 0.4808(4) 0.1047(7) 0.4408(2)
H26 H 0.5452 0.1164 0.4574
C36 C 0.4204(4) 0.2052(5) 0.43027(19)
H27 H 0.4431 0.2853 0.4407
C37 C 0.2803(3) 0.2450(5) 0.12560(15)
C38 C 0.2307(4) 0.1699(6) 0.08886(17)
H28 H 0.1699 0.1946 0.0707
C39 C 0.2719(4) 0.0579(6) 0.07919(18)
H29 H 0.2393 0.0066 0.0540
C40 C 0.3596(4) 0.0212(6) 0.10595(19)
H30 H 0.3866 -0.0554 0.0990
C41 C 0.4082(4) 0.0939(6) 0.14242(19)
H31 H 0.4679 0.0673 0.1611
C42 C 0.3690(4) 0.2079(5) 0.15178(17)
H32 H 0.4034 0.2600 0.1762
C43 C 0.2450(4) 0.4981(5) 0.09546(17)
C44 C 0.2317(4) 0.6219(6) 0.1039(2)
H33 H 0.2199 0.6469 0.1340
C45 C 0.2353(5) 0.7111(8) 0.0690(2)
H34 H 0.2253 0.7960 0.0750
C46 C 0.2539(5) 0.6730(8) 0.0252(2)
H35 H 0.2556 0.7327 0.0010
C47 C 0.2698(4) 0.5513(7) 0.01646(18)
H36 H 0.2839 0.5277 -0.0134
C48 C 0.2653(4) 0.4603(6) 0.05149(17)
H37 H 0.2758 0.3756 0.0454
C49 C 0.1005(3) 0.3581(5) 0.12675(16)
C50 C 0.0388(4) 0.4115(6) 0.08862(18)
H38 H 0.0627 0.4684 0.0686
C51 C -0.0595(4) 0.3824(7) 0.0792(2)
H39 H -0.1019 0.4187 0.0527
C52 C -0.0943(4) 0.2999(7) 0.1089(2)
H40 H -0.1606 0.2797 0.1026
C53 C -0.0331(4) 0.2473(6) 0.1475(2)
H41 H -0.0573 0.1911 0.1677
C54 C 0.0640(4) 0.2765(5) 0.15692(17)
H42 H 0.1059 0.2412 0.1838
Cu1A Cu -0.22931(4) 0.80910(6) 0.196600(17)
Cu2A Cu 0.72770(4) -0.03703(6) 0.285204(18)
N1A N 0.3067(3) 0.6451(4) 0.23557(13)
N2A N 0.1975(3) 0.1411(4) 0.26731(13)
loop_
_geom_bond_atom_site_label_1
_geom_bond_atom_site_label_2
_geom_bond_site_symmetry_1
_geom_bond_site_symmetry_2
Cu1 P1 1_555 1_555
Cu2 P2 1_555 1_555
P1 C19 1_555 1_555
P2 C37 1_555 1_555
O1 Cu1 1_555 1_555
O2 Cu1 1_555 1_555
N1 C1 1_555 1_555
N2 C10 1_555 1_555
C1 H1 1_555 1_555
C2 C1 1_555 1_555
H2 C2 1_555 1_555
C3 C2 1_555 1_555
H3 C3 1_555 1_555
C4 C3 1_555 1_555
C5 C4 1_555 1_555
H4 C5 1_555 1_555
C6 O1 1_555 1_555
C7 C6 1_555 1_555
H5 C7 1_555 1_555
C8 C7 1_555 1_555
H6 C8 1_555 1_555
C9 N1 1_555 1_555
C10 H7 1_555 1_555
C11 C10 1_555 1_555
H8 C11 1_555 1_555
C12 C11 1_555 1_555
H9 C12 1_555 1_555
C13 C12 1_555 1_555
C14 C13 1_555 1_555
H10 C14 1_555 1_555
C15 O2 1_555 1_555
C16 C15 1_555 1_555
H11 C16 1_555 1_555
C17 C16 1_555 1_555
H12 C17 1_555 1_555
C18 N2 1_555 1_555
C19 C20 1_555 1_555
C20 H13 1_555 1_555
C21 C20 1_555 1_555
H14 C21 1_555 1_555
C22 C21 1_555 1_555
H15 C22 1_555 1_555
C23 C22 1_555 1_555
H16 C23 1_555 1_555
C24 C19 1_555 1_555
H17 C24 1_555 1_555
C25 P1 1_555 1_555
C26 C25 1_555 1_555
H18 C26 1_555 1_555
C27 C26 1_555 1_555
H19 C27 1_555 1_555
C28 C27 1_555 1_555
H20 C28 1_555 1_555
C29 C28 1_555 1_555
H21 C29 1_555 1_555
C30 C25 1_555 1_555
H22 C30 1_555 1_555
C31 P1 1_555 1_555
C32 C31 1_555 1_555
H23 C32 1_555 1_555
C33 C32 1_555 1_555
H24 C33 1_555 1_555
C34 C33 1_555 1_555
H25 C34 1_555 1_555
C35 C34 1_555 1_555
H26 C35 1_555 1_555
C36 C31 1_555 1_555
H27 C36 1_555 1_555
C37 C38 1_555 1_555
C38 H28 1_555 1_555
C39 C38 1_555 1_555
H29 C39 1_555 1_555
C40 C39 1_555 1_555
H30 C40 1_555 1_555
C41 C40 1_555 1_555
H31 C41 1_555 1_555
C42 C37 1_555 1_555
H32 C42 1_555 1_555
C43 P2 1_555 1_555
C44 C43 1_555 1_555
H33 C44 1_555 1_555
C45 C44 1_555 1_555
H34 C45 1_555 1_555
C46 C45 1_555 1_555
H35 C46 1_555 1_555
C47 C46 1_555 1_555
H36 C47 1_555 1_555
C48 C43 1_555 1_555
H37 C48 1_555 1_555
C49 P2 1_555 1_555
C50 C49 1_555 1_555
H38 C50 1_555 1_555
C51 C50 1_555 1_555
H39 C51 1_555 1_555
C52 C51 1_555 1_555
H40 C52 1_555 1_555
C53 C52 1_555 1_555
H41 C53 1_555 1_555
C54 C49 1_555 1_555
H42 C54 1_555 1_555
Cu1A N2 1_555 1_555
Cu2A N1 1_555 1_555
N1A Cu2 1_555 1_555
N2A Cu1 1_555 1_555
Cu2 O1 1_555 1_555
Cu2 O2 1_555 1_555
C4 C9 1_555 1_555
C5 C6 1_555 1_555
C8 C9 1_555 1_555
C13 C18 1_555 1_555
C14 C15 1_555 1_555
C17 C18 1_555 1_555
C23 C24 1_555 1_555
C29 C30 1_555 1_555
C35 C36 1_555 1_555
C41 C42 1_555 1_555
C47 C48 1_555 1_555
C53 C54 1_555 1_555

#END
