
#######################################################################
#
#                 Cambridge Crystallographic Data Centre
#                                CCDC 
#
#######################################################################
#
# If this CIF has been generated from an entry in the Cambridge 
# Structural Database, then it will include bibliographic, chemical, 
# crystal, experimental, refinement or atomic coordinate data resulting 
# from the CCDC's data processing and validation procedures.
#
#######################################################################

data_CODTEW
_symmetry_cell_setting           triclinic
_symmetry_space_group_name_H-M   'P -1'
_symmetry_Int_Tables_number      2
_space_group_name_Hall           '-P 1'
loop_
_symmetry_equiv_pos_site_id
_symmetry_equiv_pos_as_xyz
1 x,y,z
2 -x,-y,-z
_cell_length_a                   9.4698(19)
_cell_length_b                   11.079(2)
_cell_length_c                   11.161(2)
_cell_angle_alpha                77.45(3)
_cell_angle_beta                 78.01(3)
_cell_angle_gamma                85.11(3)
_cell_volume                     1117.07
loop_
_atom_site_label
_atom_site_type_symbol
_atom_site_fract_x
_atom_site_fract_y
_atom_site_fract_z
Cd1 Cd -0.05417(4) 0.19849(3) 0.15290(3)
O1 O 0.1085(4) 0.0490(4) 0.0849(4)
O2 O 0.2023(4) 0.2261(4) 0.0727(4)
O3 O 0.1980(4) -0.2032(4) 0.0184(4)
O4 O 0.2330(4) -0.0683(4) -0.1616(4)
N1 N -0.0546(5) 0.1603(4) 0.3659(4)
N2 N -0.0059(5) 0.1573(4) 0.5533(4)
N3 N 0.1551(5) 0.4108(4) 0.8103(4)
N4 N 0.1341(5) 0.6025(4) 0.8431(5)
C1 C -0.0940(6) 0.5094(5) 0.8354(6)
H1 H -0.1420 0.5684 0.8834
H2 H -0.1290 0.4285 0.8743
H3 H -0.1133 0.5319 0.7521
C2 C 0.0649(6) 0.5082(5) 0.8299(5)
C3 C 0.2802(6) 0.5632(5) 0.8305(6)
C4 C 0.3998(6) 0.6219(6) 0.8375(7)
H4 H 0.3922 0.7034 0.8478
C5 C 0.5306(7) 0.5572(7) 0.8290(9)
H5 H 0.6119 0.5944 0.8364
C6 C 0.5427(7) 0.4350(7) 0.8092(9)
H6 H 0.6327 0.3936 0.8017
C7 C 0.4252(7) 0.3764(6) 0.8009(7)
H7 H 0.4329 0.2955 0.7888
C8 C 0.2928(6) 0.4430(5) 0.8115(6)
C9 C 0.2041(6) 0.1815(6) 0.3744(6)
H8 H 0.2196 0.1856 0.2859
H9 H 0.2594 0.1123 0.4121
H10 H 0.2341 0.2565 0.3897
C10 C 0.0483(6) 0.1662(5) 0.4295(5)
C11 C -0.1536(6) 0.1467(5) 0.5709(5)
C12 C -0.2611(7) 0.1345(6) 0.6798(6)
H11 H -0.2407 0.1346 0.7578
C13 C -0.3981(7) 0.1223(6) 0.6631(7)
H12 H -0.4730 0.1141 0.7326
C14 C -0.4305(7) 0.1217(6) 0.5483(7)
H13 H -0.5253 0.1117 0.5428
C15 C -0.3247(7) 0.1358(6) 0.4417(6)
H14 H -0.3465 0.1370 0.3640
C16 C -0.1831(6) 0.1481(5) 0.4547(5)
C17 C 0.0726(7) 0.1616(5) 0.6519(6)
H15 H 0.1681 0.1227 0.6330
H16 H 0.0222 0.1147 0.7307
C18 C 0.1169(6) 0.2893(5) 0.7946(6)
H17 H 0.0318 0.2619 0.8567
H18 H 0.1954 0.2294 0.8096
C19 C 0.0874(8) 0.2927(5) 0.6655(6)
H19 H -0.0008 0.3414 0.6546
H20 H 0.1662 0.3307 0.6020
C20 C 0.2146(5) 0.1159(5) 0.0618(5)
C21 C 0.4838(5) 0.1091(5) 0.0422(5)
H21 H 0.4723 0.1834 0.0699
C22 C 0.3624(5) 0.0563(5) 0.0246(5)
C23 C 0.3793(5) -0.0534(5) -0.0194(5)
C24 C 0.2588(5) -0.1124(5) -0.0533(5)
O1A O 0.8915(4) -0.0490(4) -0.0849(4)
O2A O 0.7977(4) -0.2261(4) -0.0727(4)
O3A O 0.8020(4) 0.2032(4) -0.0184(4)
O4A O 0.7670(4) 0.0683(4) 0.1616(4)
C20A C 0.7854(5) -0.1159(5) -0.0618(5)
C21A C 0.5162(5) -0.1091(5) -0.0422(5)
H21A H 0.5277 -0.1834 -0.0699
C22A C 0.6376(5) -0.0563(5) -0.0246(5)
C23A C 0.6207(5) 0.0534(5) 0.0194(5)
C24A C 0.7412(5) 0.1124(5) 0.0533(5)
Cd1A Cd 0.05417(4) -0.19849(3) -0.15290(3)
N1A N 0.0546(5) -0.1603(4) -0.3659(4)
N2A N 0.0059(5) -0.1573(4) -0.5533(4)
N3A N -0.1551(5) -0.4108(4) -0.8103(4)
N4A N -0.1341(5) -0.6025(4) -0.8431(5)
C1A C 0.0940(6) -0.5094(5) -0.8354(6)
H1A H 0.1420 -0.5684 -0.8834
H2A H 0.1290 -0.4285 -0.8743
H3A H 0.1133 -0.5319 -0.7521
C2A C -0.0649(6) -0.5082(5) -0.8299(5)
C3A C -0.2802(6) -0.5632(5) -0.8305(6)
C4A C -0.3998(6) -0.6219(6) -0.8375(7)
H4A H -0.3922 -0.7034 -0.8478
C5A C -0.5306(7) -0.5572(7) -0.8290(9)
H5A H -0.6119 -0.5944 -0.8364
C6A C -0.5427(7) -0.4350(7) -0.8092(9)
H6A H -0.6327 -0.3936 -0.8017
C7A C -0.4252(7) -0.3764(6) -0.8009(7)
H7A H -0.4329 -0.2955 -0.7888
C8A C -0.2928(6) -0.4430(5) -0.8115(6)
C9A C -0.2041(6) -0.1815(6) -0.3744(6)
H8A H -0.2196 -0.1856 -0.2859
H9A H -0.2594 -0.1123 -0.4121
H10A H -0.2341 -0.2565 -0.3897
C10A C -0.0483(6) -0.1662(5) -0.4295(5)
C11A C 0.1536(6) -0.1467(5) -0.5709(5)
C12A C 0.2611(7) -0.1345(6) -0.6798(6)
H11A H 0.2407 -0.1346 -0.7578
C13A C 0.3981(7) -0.1223(6) -0.6631(7)
H12A H 0.4730 -0.1141 -0.7326
C14A C 0.4305(7) -0.1217(6) -0.5483(7)
H13A H 0.5253 -0.1117 -0.5428
C15A C 0.3247(7) -0.1358(6) -0.4417(6)
H14A H 0.3465 -0.1370 -0.3640
C16A C 0.1831(6) -0.1481(5) -0.4547(5)
C17A C -0.0726(7) -0.1616(5) -0.6519(6)
H15A H -0.1681 -0.1227 -0.6330
H16A H -0.0222 -0.1147 -0.7307
C18A C -0.1169(6) -0.2893(5) -0.7946(6)
H17A H -0.0318 -0.2619 -0.8567
H18A H -0.1954 -0.2294 -0.8096
C19A C -0.0874(8) -0.2927(5) -0.6655(6)
H19A H 0.0008 -0.3414 -0.6546
H20A H -0.1662 -0.3307 -0.6020
Cd1_2 Cd -0.05417(4) -0.80151(3) -0.84710(3)
Cd1_3 Cd 0.94583(4) 0.19849(3) 0.15290(3)
Cd1A_2 Cd 0.05417(4) 0.80151(3) 0.84710(3)
Cd1A_3 Cd 1.05417(4) -0.19849(3) -0.15290(3)
O1A_2 O -0.1085(4) -0.0490(4) -0.0849(4)
O2A_2 O -0.2023(4) -0.2261(4) -0.0727(4)
O3A_2 O -0.1980(4) 0.2032(4) -0.0184(4)
O4A_2 O -0.2330(4) 0.0683(4) 0.1616(4)
N4_2 N 0.1341(5) -0.3975(4) -0.1569(5)
N4A_2 N -0.1341(5) 0.3975(4) 0.1569(5)
loop_
_geom_bond_atom_site_label_1
_geom_bond_atom_site_label_2
_geom_bond_site_symmetry_1
_geom_bond_site_symmetry_2
Cd1 O1 1_555 1_555
O1 C20 1_555 1_555
O2 Cd1 1_555 1_555
O3 C24 1_555 1_555
O4 C24 1_555 1_555
N1 Cd1 1_555 1_555
N2 C10 1_555 1_555
N3 C2 1_555 1_555
N4 C2 1_555 1_555
C1 H1 1_555 1_555
H2 C1 1_555 1_555
H3 C1 1_555 1_555
C2 C1 1_555 1_555
C3 N4 1_555 1_555
C4 C3 1_555 1_555
H4 C4 1_555 1_555
C5 C4 1_555 1_555
H5 C5 1_555 1_555
C6 C5 1_555 1_555
H6 C6 1_555 1_555
C7 C6 1_555 1_555
H7 C7 1_555 1_555
C8 N3 1_555 1_555
C9 H8 1_555 1_555
H9 C9 1_555 1_555
H10 C9 1_555 1_555
C10 N1 1_555 1_555
C11 N2 1_555 1_555
C12 C11 1_555 1_555
H11 C12 1_555 1_555
C13 C12 1_555 1_555
H12 C13 1_555 1_555
C14 C13 1_555 1_555
H13 C14 1_555 1_555
C15 C14 1_555 1_555
H14 C15 1_555 1_555
C16 N1 1_555 1_555
C17 N2 1_555 1_555
H15 C17 1_555 1_555
H16 C17 1_555 1_555
C18 N3 1_555 1_555
H17 C18 1_555 1_555
H18 C18 1_555 1_555
C19 C17 1_555 1_555
H19 C19 1_555 1_555
H20 C19 1_555 1_555
C20 O2 1_555 1_555
C21 H21 1_555 1_555
C22 C20 1_555 1_555
C23 C22 1_555 1_555
C24 C23 1_555 1_555
O1A C20A 1_555 1_555
O2A C20A 1_555 1_555
O3A C24A 1_555 1_555
O4A C24A 1_555 1_555
C20A C22A 1_555 1_555
C21A C23 1_555 1_555
H21A C21A 1_555 1_555
C22A C21A 1_555 1_555
C23A C21 1_555 1_555
C24A C23A 1_555 1_555
Cd1A O3 1_555 1_555
N1A Cd1A 1_555 1_555
N2A C10A 1_555 1_555
N3A C2A 1_555 1_555
N4A C2A 1_555 1_555
C1A H1A 1_555 1_555
H2A C1A 1_555 1_555
H3A C1A 1_555 1_555
C2A C1A 1_555 1_555
C3A N4A 1_555 1_555
C4A C3A 1_555 1_555
H4A C4A 1_555 1_555
C5A C4A 1_555 1_555
H5A C5A 1_555 1_555
C6A C5A 1_555 1_555
H6A C6A 1_555 1_555
C7A C6A 1_555 1_555
H7A C7A 1_555 1_555
C8A N3A 1_555 1_555
C9A H8A 1_555 1_555
H9A C9A 1_555 1_555
H10A C9A 1_555 1_555
C10A N1A 1_555 1_555
C11A N2A 1_555 1_555
C12A C11A 1_555 1_555
H11A C12A 1_555 1_555
C13A C12A 1_555 1_555
H12A C13A 1_555 1_555
C14A C13A 1_555 1_555
H13A C14A 1_555 1_555
C15A C14A 1_555 1_555
H14A C15A 1_555 1_555
C16A N1A 1_555 1_555
C17A N2A 1_555 1_555
H15A C17A 1_555 1_555
H16A C17A 1_555 1_555
C18A N3A 1_555 1_555
H17A C18A 1_555 1_555
H18A C18A 1_555 1_555
C19A C17A 1_555 1_555
H19A C19A 1_555 1_555
H20A C19A 1_555 1_555
Cd1_2 N4A 1_555 1_555
Cd1_3 O3A 1_555 1_555
Cd1A_2 N4 1_555 1_555
Cd1A_3 O1A 1_555 1_555
O1A_2 Cd1A 1_555 1_555
O2A_2 Cd1A 1_555 1_555
O3A_2 Cd1 1_555 1_555
O4A_2 Cd1 1_555 1_555
N4_2 Cd1A 1_555 1_555
N4A_2 Cd1 1_555 1_555
O4 Cd1A 1_555 1_555
C3 C8 1_555 1_555
C7 C8 1_555 1_555
C9 C10 1_555 1_555
C11 C16 1_555 1_555
C15 C16 1_555 1_555
C18 C19 1_555 1_555
C21 C22 1_555 1_555
O2A Cd1A_3 1_555 1_555
O4A Cd1_3 1_555 1_555
C22A C23A 1_555 1_555
C3A C8A 1_555 1_555
C7A C8A 1_555 1_555
C9A C10A 1_555 1_555
C11A C16A 1_555 1_555
C15A C16A 1_555 1_555
C18A C19A 1_555 1_555

#END
