
#######################################################################
#
#                 Cambridge Crystallographic Data Centre
#                                CCDC 
#
#######################################################################
#
# If this CIF has been generated from an entry in the Cambridge 
# Structural Database, then it will include bibliographic, chemical, 
# crystal, experimental, refinement or atomic coordinate data resulting 
# from the CCDC's data processing and validation procedures.
#
#######################################################################

data_CODTIA
_symmetry_cell_setting           monoclinic
_symmetry_space_group_name_H-M   'P 21/c'
_symmetry_Int_Tables_number      14
_space_group_name_Hall           '-P 2ybc'
loop_
_symmetry_equiv_pos_site_id
_symmetry_equiv_pos_as_xyz
1 x,y,z
2 -x,1/2+y,1/2-z
3 -x,-y,-z
4 x,1/2-y,1/2+z
_cell_length_a                   12.005(2)
_cell_length_b                   18.834(4)
_cell_length_c                   16.723(6)
_cell_angle_alpha                90
_cell_angle_beta                 123.27(2)
_cell_angle_gamma                90
_cell_volume                     3161.36
loop_
_atom_site_label
_atom_site_type_symbol
_atom_site_fract_x
_atom_site_fract_y
_atom_site_fract_z
Cd1 Cd 0.75371(2) 1.149784(13) 0.386003(16)
S1 S 0.64949(8) 0.98687(5) -0.14053(6)
O1 O 0.6792(3) 1.17150(17) 0.2170(2)
O2 O 0.7685(2) 1.07010(16) 0.29056(16)
O3 O 0.6954(3) 1.03951(14) -0.17828(18)
O4 O 0.5158(3) 0.96019(17) -0.1999(2)
O5 O 1.0120(3) 0.69073(15) 0.0452(2)
O6 O 1.1633(3) 0.76024(15) 0.0523(2)
N1 N 0.4508(3) 0.82992(16) 0.6415(2)
N2 N 0.6293(4) 0.8371(2) 0.6330(3)
N3 N 0.9042(3) 0.99271(17) 0.6259(2)
N4 N 0.8371(3) 1.07989(15) 0.51922(19)
C1 C 0.8326(5) 0.9584(2) 0.4591(3)
H1 H 0.7491 0.9350 0.4357
H2 H 0.9029 0.9238 0.4859
H3 H 0.8294 0.9826 0.4074
C2 C 0.8581(3) 1.01050(18) 0.5340(2)
C3 C 0.8713(4) 1.1090(2) 0.6069(3)
C4 C 0.8672(5) 1.1780(3) 0.6327(3)
H4 H 0.8372 1.2146 0.5883
C5 C 0.9086(7) 1.1910(3) 0.7257(4)
H5 H 0.9070 1.2373 0.7446
C6 C 0.9526(9) 1.1369(4) 0.7916(4)
H6 H 0.9789 1.1474 0.8540
C7 C 0.9586(7) 1.0688(4) 0.7684(3)
H7 H 0.9909 1.0329 0.8140
C8 C 0.9147(4) 1.0543(2) 0.6738(3)
C9 C 0.9421(4) 0.9232(2) 0.6714(3)
H8 H 1.0301 0.9264 0.7298
H9 H 0.9473 0.8900 0.6291
C10 C 0.8430(4) 0.8939(2) 0.6956(3)
H10 H 0.8866 0.8577 0.7446
H11 H 0.8158 0.9320 0.7204
C11 C 0.7238(5) 0.8632(3) 0.6089(3)
H12 H 0.6810 0.8991 0.5594
H13 H 0.7505 0.8243 0.5849
C12 C 0.4820(4) 0.9439(2) 0.5823(3)
H14 H 0.4243 0.9430 0.5138
H15 H 0.5609 0.9705 0.6009
H16 H 0.4366 0.9659 0.6085
C13 C 0.5192(4) 0.8708(2) 0.6188(3)
C14 C 0.6368(4) 0.7718(2) 0.6745(3)
C15 C 0.7314(5) 0.7179(3) 0.7065(4)
H17 H 0.8050 0.7206 0.7019
C16 C 0.7073(5) 0.6596(2) 0.7460(4)
H18 H 0.7688 0.6227 0.7706
C17 C 0.5969(5) 0.6543(2) 0.7501(4)
H19 H 0.5850 0.6138 0.7764
C18 C 0.5026(4) 0.7078(2) 0.7163(3)
H20 H 0.4274 0.7038 0.7188
C19 C 0.5245(3) 0.76752(18) 0.6784(2)
C20 C 0.7148(3) 1.1079(2) 0.2179(3)
C21 C 0.6965(3) 1.07816(19) 0.1277(2)
C22 C 0.6972(4) 1.1221(2) 0.0613(3)
H21 H 0.7054 1.1709 0.0712
C23 C 0.6857(4) 1.09402(19) -0.0197(2)
H22 H 0.6881 1.1235 -0.0634
C24 C 0.6707(3) 1.02153(18) -0.0341(2)
C25 C 0.6676(4) 0.9779(2) 0.0309(3)
H23 H 0.6558 0.9292 0.0200
C26 C 0.6821(4) 1.0063(2) 0.1124(3)
H24 H 0.6821 0.9767 0.1568
C27 C 0.7603(3) 0.9144(2) -0.1007(2)
C28 C 0.8917(3) 0.92703(19) -0.0700(2)
H25 H 0.9185 0.9722 -0.0750
C29 C 0.9828(3) 0.8719(2) -0.0317(3)
H26 H 1.0710 0.8799 -0.0115
C30 C 0.9425(3) 0.80459(19) -0.0235(2)
C31 C 0.8097(4) 0.7921(2) -0.0575(3)
H27 H 0.7823 0.7468 -0.0535
C32 C 0.7174(4) 0.84716(18) -0.0974(3)
H28 H 0.6279 0.8387 -0.1216
C33 C 1.0456(4) 0.7474(2) 0.0275(3)
Cd1A Cd 1.24629(2) 0.649784(13) 0.113997(16)
Cd1B Cd 0.24629(2) 0.850216(13) 0.613997(16)
O5A O 0.9880(3) 1.19073(15) 0.4548(2)
O6A O 0.8367(3) 1.26024(15) 0.4477(2)
N1B N 0.5492(3) 1.17008(16) 0.3585(2)
O7 O 0.4407(10) 0.8924(4) 0.3761(5)
O8 O 0.4983(7) 0.7548(4) 0.4316(4)
loop_
_geom_bond_atom_site_label_1
_geom_bond_atom_site_label_2
_geom_bond_site_symmetry_1
_geom_bond_site_symmetry_2
Cd1 O1 1_555 1_555
S1 O3 1_555 1_555
O1 C20 1_555 1_555
O2 Cd1 1_555 1_555
O4 S1 1_555 1_555
O5 C33 1_555 1_555
O6 C33 1_555 1_555
N1 C13 1_555 1_555
N2 C11 1_555 1_555
N3 C2 1_555 1_555
N4 Cd1 1_555 1_555
C1 H1 1_555 1_555
H2 C1 1_555 1_555
H3 C1 1_555 1_555
C2 N4 1_555 1_555
C3 N4 1_555 1_555
C4 C3 1_555 1_555
H4 C4 1_555 1_555
C5 C4 1_555 1_555
H5 C5 1_555 1_555
C6 C5 1_555 1_555
H6 C6 1_555 1_555
C7 C6 1_555 1_555
H7 C7 1_555 1_555
C8 N3 1_555 1_555
C9 N3 1_555 1_555
H8 C9 1_555 1_555
H9 C9 1_555 1_555
C10 C9 1_555 1_555
H10 C10 1_555 1_555
H11 C10 1_555 1_555
C11 C10 1_555 1_555
H12 C11 1_555 1_555
H13 C11 1_555 1_555
C12 H14 1_555 1_555
H15 C12 1_555 1_555
H16 C12 1_555 1_555
C13 N2 1_555 1_555
C14 N2 1_555 1_555
C15 C14 1_555 1_555
H17 C15 1_555 1_555
C16 C15 1_555 1_555
H18 C16 1_555 1_555
C17 C16 1_555 1_555
H19 C17 1_555 1_555
C18 C17 1_555 1_555
H20 C18 1_555 1_555
C19 N1 1_555 1_555
C20 O2 1_555 1_555
C21 C20 1_555 1_555
C22 C21 1_555 1_555
H21 C22 1_555 1_555
C23 C22 1_555 1_555
H22 C23 1_555 1_555
C24 S1 1_555 1_555
C25 C24 1_555 1_555
H23 C25 1_555 1_555
C26 C21 1_555 1_555
H24 C26 1_555 1_555
C27 S1 1_555 1_555
C28 C27 1_555 1_555
H25 C28 1_555 1_555
C29 C28 1_555 1_555
H26 C29 1_555 1_555
C30 C29 1_555 1_555
C31 C30 1_555 1_555
H27 C31 1_555 1_555
C32 C27 1_555 1_555
H28 C32 1_555 1_555
C33 C30 1_555 1_555
Cd1A O5 1_555 1_555
Cd1B N1 1_555 1_555
O5A Cd1 1_555 1_555
O6A Cd1 1_555 1_555
N1B Cd1 1_555 1_555
O6 Cd1A 1_555 1_555
C1 C2 1_555 1_555
C3 C8 1_555 1_555
C7 C8 1_555 1_555
C12 C13 1_555 1_555
C14 C19 1_555 1_555
C18 C19 1_555 1_555
C23 C24 1_555 1_555
C25 C26 1_555 1_555
C31 C32 1_555 1_555

#END
