
#######################################################################
#
#                 Cambridge Crystallographic Data Centre
#                                CCDC 
#
#######################################################################
#
# If this CIF has been generated from an entry in the Cambridge 
# Structural Database, then it will include bibliographic, chemical, 
# crystal, experimental, refinement or atomic coordinate data resulting 
# from the CCDC's data processing and validation procedures.
#
#######################################################################

data_CODVIC
_symmetry_cell_setting           monoclinic
_symmetry_space_group_name_H-M   'P 21/n'
_symmetry_Int_Tables_number      14
_space_group_name_Hall           '-P 2yn'
loop_
_symmetry_equiv_pos_site_id
_symmetry_equiv_pos_as_xyz
1 x,y,z
2 1/2-x,1/2+y,1/2-z
3 -x,-y,-z
4 1/2+x,1/2-y,1/2+z
_cell_length_a                   10.04326(7)
_cell_length_b                   10.83074(8)
_cell_length_c                   18.51589(14)
_cell_angle_alpha                90
_cell_angle_beta                 93.7794(6)
_cell_angle_gamma                90
_cell_volume                     2009.7
loop_
_atom_site_label
_atom_site_type_symbol
_atom_site_fract_x
_atom_site_fract_y
_atom_site_fract_z
Mn1 Mn 0.27665(3) 0.82104(3) 0.524674(17)
Mn2 Mn 0.46630(3) 1.01549(3) 0.410430(17)
O1 O 0.47246(14) 0.87349(15) 0.49191(8)
O2 O 0.68852(16) 0.54384(16) 0.94855(9)
O3 O 0.19505(17) 0.48099(19) 0.90579(10)
O4 O 0.79428(15) 0.54255(18) 0.84685(9)
O5 O 0.54481(16) 0.81209(17) 0.64933(9)
O6 O 0.35623(18) 0.7128(2) 0.61297(10)
O7 O 0.08756(16) 0.6023(2) 0.82918(11)
C1 C 0.56513(19) 0.59167(19) 0.83820(11)
C2 C 0.3288(2) 0.6471(2) 0.75864(12)
C3 C 0.4513(2) 0.7382(2) 0.65824(12)
C4 C 0.56869(19) 0.6457(2) 0.77024(11)
C5 C 0.6919(2) 0.5571(2) 0.88112(12)
C6 C 0.4434(2) 0.5687(2) 0.86727(11)
C7 C 0.4498(2) 0.67472(19) 0.73042(11)
C8 C 0.3248(2) 0.5938(2) 0.82670(11)
C9 C 0.1947(2) 0.5586(2) 0.85519(12)
N1 N 0.2034(6) 0.6768(4) 0.4373(2)
N2 N 0.0702(5) 0.7492(5) 0.5524(3)
C10 C 0.0089(6) 0.5842(5) 0.3793(3)
C11 C 0.0010(5) 0.6872(4) 0.4984(3)
C12 C 0.0719(6) 0.6498(4) 0.4381(3)
C13 C -0.1973(6) 0.5898(6) 0.4401(4)
H1 H -0.2876 0.5708 0.4400
C14 C -0.1346(5) 0.6545(5) 0.4990(3)
C15 C -0.1256(6) 0.5541(5) 0.3821(4)
H2 H -0.1680 0.5092 0.3444
C16 C 0.0088(5) 0.7761(5) 0.6107(4)
H3 H 0.0570 0.8137 0.6493
C17 C 0.2725(6) 0.6438(5) 0.3807(3)
H4 H 0.3623 0.6650 0.3816
C18 C -0.1268(5) 0.7503(5) 0.6172(4)
H5 H -0.1686 0.7720 0.6587
C19 C 0.2167(7) 0.5784(5) 0.3196(3)
H6 H 0.2671 0.5561 0.2813
C20 C 0.0824(7) 0.5498(5) 0.3206(3)
H7 H 0.0403 0.5073 0.2819
C21 C -0.1969(5) 0.6915(5) 0.5598(4)
H8 H -0.2877 0.6767 0.5624
H9 H 0.652(3) 0.662(2) 0.7502(14)
H10 H 0.441(2) 0.533(2) 0.9118(14)
H11 H 0.245(3) 0.663(3) 0.7297(16)
Mn1A Mn 0.22335(3) 0.32104(3) 0.975326(17)
Mn1C Mn 0.77665(3) 0.67896(3) 1.024674(17)
Mn2B Mn 0.53370(3) 0.98451(3) 0.589570(17)
Mn2C Mn -0.03370(3) 0.48451(3) 0.910430(17)
Mn2C_2 Mn 0.96630(3) 0.48451(3) 0.910430(17)
O1B O 0.52754(14) 1.12651(15) 0.50809(8)
O2C O 0.18852(16) 0.95616(16) 0.44855(9)
O3A O 0.30495(17) 0.98099(19) 0.59421(10)
O3C O 0.69505(17) 1.01901(19) 0.40579(10)
O4C O 0.29428(15) 0.95745(18) 0.34685(9)
O5B O 0.45519(16) 1.18791(17) 0.35067(9)
O7C O 0.58756(16) 0.8977(2) 0.32918(11)
O8 O 0.5472(8) 0.6541(8) 0.2834(5)
O9 O 0.0000 0.0000 0.0000
N3? N 0.2389(7) 0.6862(5) 0.4348(3)
N4? N 0.0695(6) 0.7451(7) 0.5381(4)
C22? C 0.0575(7) 0.5783(6) 0.3652(3)
C23? C 0.0234(6) 0.6748(5) 0.4796(4)
C24? C 0.1103(7) 0.6460(5) 0.4253(3)
C25? C -0.1634(7) 0.5673(6) 0.4128(4)
H12? H -0.2521 0.5421 0.4082
C26? C -0.1124(6) 0.6355(6) 0.4743(4)
C27? C -0.0763(8) 0.5397(7) 0.3600(5)
H13? H -0.1075 0.4941 0.3199
C28? C -0.0137(7) 0.7710(6) 0.5900(4)
H14? H 0.0204 0.8172 0.6293
C29? C 0.3196(9) 0.6606(7) 0.3826(3)
H15? H 0.4074 0.6883 0.3874
C30? C -0.1491(7) 0.7338(7) 0.5897(5)
H16? H -0.2033 0.7528 0.6270
C31? C 0.2771(9) 0.5936(7) 0.3209(4)
H17? H 0.3357 0.5758 0.2855
C32? C 0.1451(9) 0.5540(6) 0.3135(3)
H18? H 0.1157 0.5099 0.2724
C33? C -0.1931(7) 0.6672(7) 0.5297(5)
H19? H -0.2818 0.6420 0.5258
loop_
_geom_bond_atom_site_label_1
_geom_bond_atom_site_label_2
_geom_bond_site_symmetry_1
_geom_bond_site_symmetry_2
Mn1 O1 1_555 1_555
Mn2 O1 1_555 1_555
O1 Mn2B 1_555 1_555
O2 C5 1_555 1_555
O3 C9 1_555 1_555
O4 C5 1_555 1_555
O5 C3 1_555 1_555
O6 Mn1 1_555 1_555
O7 C9 1_555 1_555
C1 C4 1_555 1_555
C2 C7 1_555 1_555
C3 O6 1_555 1_555
C4 C7 1_555 1_555
C5 C1 1_555 1_555
C6 C1 1_555 1_555
C7 C3 1_555 1_555
C8 C2 1_555 1_555
C9 C8 1_555 1_555
N1 Mn1 1_555 1_555
N2 Mn1 1_555 1_555
C10 C12 1_555 1_555
C11 N2 1_555 1_555
C12 N1 1_555 1_555
C13 H1 1_555 1_555
C14 C11 1_555 1_555
C15 C10 1_555 1_555
H2 C15 1_555 1_555
C16 N2 1_555 1_555
H3 C16 1_555 1_555
C17 N1 1_555 1_555
H4 C17 1_555 1_555
C18 C16 1_555 1_555
H5 C18 1_555 1_555
C19 C17 1_555 1_555
H6 C19 1_555 1_555
C20 C10 1_555 1_555
H7 C20 1_555 1_555
C21 C14 1_555 1_555
H8 C21 1_555 1_555
H9 C4 1_555 1_555
H10 C6 1_555 1_555
H11 C2 1_555 1_555
Mn1A O3 1_555 1_555
Mn1C O2 1_555 1_555
Mn2B O5 1_555 1_555
Mn2C O3 1_555 1_555
Mn2C_2 O4 1_555 1_555
O1B Mn2 1_555 1_555
O2C Mn1 1_555 1_555
O3A Mn1 1_555 1_555
O3C Mn2 1_555 1_555
O4C Mn2 1_555 1_555
O5B Mn2 1_555 1_555
O7C Mn2 1_555 1_555
O7 Mn2C 1_555 1_555
C6 C8 1_555 1_555
C11 C12 1_555 1_555
C13 C14 1_555 1_555
C13 C15 1_555 1_555
C18 C21 1_555 1_555
C19 C20 1_555 1_555
Mn2B O1B 1_555 1_555
Mn2B O3A 1_555 1_555

#END
