
#######################################################################
#
#                 Cambridge Crystallographic Data Centre
#                                CCDC 
#
#######################################################################
#
# If this CIF has been generated from an entry in the Cambridge 
# Structural Database, then it will include bibliographic, chemical, 
# crystal, experimental, refinement or atomic coordinate data resulting 
# from the CCDC's data processing and validation procedures.
#
#######################################################################

data_CODWUP
_symmetry_cell_setting           triclinic
_symmetry_space_group_name_H-M   'P -1'
_symmetry_Int_Tables_number      2
_space_group_name_Hall           '-P 1'
loop_
_symmetry_equiv_pos_site_id
_symmetry_equiv_pos_as_xyz
1 x,y,z
2 -x,-y,-z
_cell_length_a                   14.0686(18)
_cell_length_b                   22.314(3)
_cell_length_c                   29.223(4)
_cell_angle_alpha                93.991(2)
_cell_angle_beta                 103.354(2)
_cell_angle_gamma                108.295(2)
_cell_volume                     8373.79
loop_
_atom_site_label
_atom_site_type_symbol
_atom_site_fract_x
_atom_site_fract_y
_atom_site_fract_z
Ni1 Ni 0.73055(5) 0.10343(3) 0.37289(3)
Ni2 Ni 0.56079(6) 0.02295(3) 0.27370(3)
Ni3 Ni 0.63743(5) 0.18057(3) 0.27744(3)
Ni4 Ni 0.88093(6) 0.26934(4) 0.15091(3)
Ni5 Ni 0.63671(6) 0.14247(4) 0.10626(3)
Ni6 Ni 0.70131(8) 0.26778(4) 0.05397(3)
Ni7 Ni 0.94539(8) 0.50336(4) 0.19140(3)
Ni8 Ni 1.12344(8) 0.57862(4) 0.28923(3)
Ni9 Ni 0.93195(6) 0.45677(3) 0.30489(3)
Ni10 Ni 1.21199(5) 0.40969(3) 0.42309(3)
Ni11 Ni 1.13809(5) 0.28765(4) 0.47806(3)
Ni12 Ni 1.06265(5) 0.25176(3) 0.36008(3)
Ni13 Ni 1.40925(5) 0.20251(4) 0.38926(3)
S1 S 0.78240(11) 0.15938(7) 0.21087(5)
S2 S 0.79598(12) 0.36803(7) 0.20350(6)
S3 S 0.82138(14) 0.16777(8) 0.06005(6)
S4 S 0.89103(16) 0.57902(8) 0.26908(7)
S5 S 1.09892(11) 0.38139(7) 0.31228(5)
S6 S 1.50889(10) 0.11192(7) 0.34668(5)
S7 S 0.83608(10) 0.25020(6) 0.36746(5)
S8 S 1.29966(11) 0.29945(7) 0.41573(5)
Na1 Na 0.87440(18) 0.29136(11) 0.27418(8)
Na2 Na 0.9989(4) 0.1677(2) 0.01985(19)
O1 O 0.6065(3) -0.02924(18) 0.32186(15)
O2 O 0.5202(3) 0.12474(17) 0.22048(13)
O3 O 0.6787(3) 0.10689(17) 0.30226(13)
H1 H 0.729(3) 0.108(2) 0.2862(14)
O4 O 0.5591(4) 0.2032(2) 0.02454(16)
O5 O 0.7265(3) 0.23668(19) 0.11814(14)
H2 H 0.704(4) 0.261(2) 0.1378(17)
O6 O 1.1491(4) 0.6093(2) 0.22843(18)
O7 O 1.0132(3) 0.49257(19) 0.25827(15)
H3 H 1.048(4) 0.463(2) 0.260(2)
O8 O 1.0431(3) 0.51218(17) 0.36441(14)
O9 O 1.1004(3) 0.32153(18) 0.41567(13)
H4 H 1.0305(14) 0.319(3) 0.4112(19)
O10 O 1.2180(3) 0.3725(2) 0.51975(14)
O11 O 1.0377(3) 0.17742(17) 0.39977(13)
O12 O 0.7021(3) 0.11869(17) 0.16902(13)
O13 O 0.8725(3) 0.20241(18) 0.19785(13)
O14 O 0.7396(3) 0.20050(17) 0.23584(13)
O15 O 0.8161(3) 0.11674(16) 0.24297(12)
O16 O 0.8686(3) 0.33215(18) 0.20288(14)
O17 O 0.8190(3) 0.42123(19) 0.17595(15)
O18 O 0.9955(3) 0.28434(19) 0.48991(13)
H5 H 0.957(4) 0.291(3) 0.4616(11)
O19 O 0.8066(3) 0.39004(17) 0.25355(13)
O20 O 0.6884(3) 0.32465(18) 0.18125(13)
O21 O 0.7407(3) 0.1200(2) 0.07577(14)
O22 O 0.9033(3) 0.2090(2) 0.10231(14)
O23 O 0.8690(4) 0.1352(2) 0.03207(15)
O24 O 0.7742(4) 0.2074(2) 0.03033(15)
O25 O 0.8652(3) 0.52602(19) 0.29666(15)
O26 O 0.8625(4) 0.5525(2) 0.21753(16)
O27 O 1.0043(4) 0.6166(2) 0.28472(17)
O28 O 0.8327(5) 0.6216(2) 0.27551(19)
O29 O 1.1806(3) 0.42235(17) 0.35348(13)
O30 O 1.0922(3) 0.31390(17) 0.31045(13)
O31 O 1.1237(3) 0.40406(17) 0.26889(13)
O32 O 0.9972(3) 0.38465(17) 0.31505(13)
O33 O 1.4254(3) 0.11711(18) 0.36679(15)
O34 O 1.5360(3) 0.16422(17) 0.31879(13)
O35 O 1.4737(3) 0.04940(17) 0.31678(14)
O36 O 1.6004(3) 0.11822(18) 0.38633(14)
O37 O 0.9086(3) 0.24175(16) 0.33971(12)
O38 O 0.7429(3) 0.25104(17) 0.33312(13)
O39 O 0.8844(3) 0.31164(16) 0.39951(12)
O40 O 0.8123(3) 0.19826(17) 0.39552(13)
O41 O 1.2737(3) 0.28601(19) 0.46085(14)
O42 O 1.3944(3) 0.28613(19) 0.41411(14)
O43 O 1.2139(3) 0.25726(18) 0.37489(13)
O44 O 1.3163(3) 0.36691(18) 0.41097(14)
O45 O 1.0376(3) 0.3092(2) 0.18601(15)
H6 H 1.060(4) 0.340(2) 0.2130(13)
O46 O 1.0964(3) 0.44566(18) 0.42994(14)
H7 H 1.082(4) 0.473(2) 0.4094(14)
O47 O 0.8568(3) 0.41823(18) 0.35464(14)
H8 H 0.866(5) 0.3832(18) 0.3687(19)
O48 O 1.0284(4) 0.4514(2) 0.16767(16)
H9 H 0.984(4) 0.4218(10) 0.1430(13)
O49 O 0.5408(3) 0.1720(2) 0.14088(14)
O50 O 0.5927(3) 0.25358(18) 0.24753(14)
H10 H 0.625(4) 0.274(2) 0.2251(15)
O51 O 0.6410(4) 0.3335(2) 0.08307(16)
H11 H 0.652(5) 0.333(3) 0.1152(6)
O52 O 1.2399(4) 0.5359(2) 0.29455(18)
H12 H 1.208(4) 0.4930(8) 0.283(2)
O53 O 1.0195(3) 0.17636(18) 0.30481(14)
H13 H 0.9516(17) 0.158(2) 0.2865(15)
O54 O 1.5622(3) 0.2559(2) 0.39362(14)
H14 H 1.565(4) 0.2294(18) 0.3678(14)
O55 O 1.4514(4) 0.1849(3) 0.45735(17)
O56 O 1.3680(3) 0.2221(2) 0.32149(14)
O57 O 1.2559(3) 0.1507(2) 0.3828(2)
H15 H 1.234(5) 0.1857(17) 0.380(3)
O58 O 0.9168(4) 0.3419(2) 0.11089(15)
O59 O 0.8579(3) 0.09047(17) 0.35540(14)
H16 H 0.920(2) 0.119(2) 0.3731(16)
O60 O 0.6510(3) 0.00278(17) 0.22987(14)
H17 H 0.6992 0.0354 0.2304
N1 N 0.7740(4) 0.0846(2) 0.44227(17)
N2 N 0.6610(4) 0.0068(2) 0.36258(18)
N3 N 0.6051(5) -0.1415(3) 0.3973(2)
N4 N 0.4355(4) -0.0552(2) 0.2381(2)
N5 N 0.4894(4) 0.0638(2) 0.22295(17)
N6 N 0.2969(5) 0.0595(3) 0.1227(2)
N7 N 0.5323(4) 0.0507(2) 0.08610(18)
N8 N 0.5468(4) 0.1509(3) 0.04296(18)
N9 N 0.3363(7) 0.1000(4) -0.0545(3)
N10 N 0.8970(6) 0.5255(3) 0.1246(2)
N11 N 1.0651(5) 0.5844(3) 0.1929(2)
N12 N 1.2171(7) 0.7003(3) 0.1443(3)
N13 N 1.2332(5) 0.6619(3) 0.3300(2)
N14 N 1.1125(4) 0.5633(2) 0.35550(19)
N15 N 1.1825(5) 0.6031(3) 0.4793(2)
N16 N 1.3284(4) 0.4981(2) 0.44054(19)
N17 N 1.2593(3) 0.4158(2) 0.49508(17)
N18 N 1.3962(5) 0.4929(3) 0.6092(2)
N19 N 1.1651(4) 0.2410(2) 0.53617(17)
N20 N 1.0737(3) 0.1948(2) 0.44575(17)
N21 N 0.9990(5) 0.0315(3) 0.4448(2)
N22 N 0.6927(5) 0.3114(3) -0.0063(2)
N23 N 0.8424(5) 0.3355(3) 0.0718(2)
N24 N 1.0384(6) 0.4636(3) 0.0514(2)
C1 C 0.8300(5) 0.1271(3) 0.4815(2)
H18 H 0.8528 0.1702 0.4787
C2 C 0.8551(6) 0.1098(4) 0.5254(2)
H19 H 0.8943 0.1402 0.5520
C3 C 0.8199(6) 0.0448(4) 0.5289(3)
H20 H 0.8346 0.0315 0.5584
C4 C 0.7634(5) 0.0004(4) 0.4889(3)
H21 H 0.7409 -0.0430 0.4908
C5 C 0.7410(5) 0.0220(3) 0.4458(2)
C6 C 0.6784(5) -0.0192(3) 0.4012(2)
C7 C 0.6376(5) -0.0878(3) 0.3994(3)
C8 C 0.4115(6) -0.1150(3) 0.2480(3)
H22 H 0.4551 -0.1241 0.2736
C9 C 0.3251(6) -0.1626(3) 0.2217(3)
H23 H 0.3102 -0.2035 0.2298
C10 C 0.2588(6) -0.1509(3) 0.1830(3)
H24 H 0.1992 -0.1834 0.1651
C11 C 0.2832(6) -0.0898(3) 0.1715(3)
H25 H 0.2411 -0.0802 0.1455
C12 C 0.3736(6) -0.0426(3) 0.2003(3)
C13 C 0.4058(4) 0.0245(3) 0.1919(2)
C14 C 0.3478(5) 0.0454(3) 0.1545(3)
C15 C 0.5324(5) 0.0010(3) 0.1089(2)
H26 H 0.5826 0.0072 0.1375
C16 C 0.4582(6) -0.0611(3) 0.0910(2)
H27 H 0.4594 -0.0954 0.1072
C17 C 0.3841(6) -0.0687(4) 0.0486(3)
H28 H 0.3339 -0.1086 0.0360
C18 C 0.3844(6) -0.0166(3) 0.0244(2)
H29 H 0.3357 -0.0217 -0.0045
C19 C 0.4587(5) 0.0428(3) 0.0444(2)
C20 C 0.4675(6) 0.0995(3) 0.0225(2)
C21 C 0.3930(7) 0.1000(4) -0.0201(3)
C22 C 0.8077(7) 0.4966(4) 0.0923(3)
H30 H 0.7594 0.4618 0.0995
C23 C 0.7827(8) 0.5154(4) 0.0487(3)
H31 H 0.7195 0.4939 0.0264
C24 C 0.8574(9) 0.5690(4) 0.0389(3)
H32 H 0.8429 0.5839 0.0100
C25 C 0.9483(8) 0.5982(4) 0.0709(3)
H33 H 0.9986 0.6323 0.0643
C26 C 0.9667(7) 0.5762(3) 0.1152(3)
C27 C 1.0640(7) 0.6069(3) 0.1543(3)
C28 C 1.1473(8) 0.6588(4) 0.1485(3)
C29 C 1.2881(7) 0.7122(4) 0.3144(3)
H34 H 1.2808 0.7109 0.2818
C30 C 1.3562(7) 0.7668(4) 0.3451(3)
H35 H 1.3957 0.8011 0.3336
C31 C 1.3639(7) 0.7691(4) 0.3923(3)
H36 H 1.4054 0.8062 0.4134
C32 C 1.3101(7) 0.7164(4) 0.4083(3)
H37 H 1.3190 0.7161 0.4408
C33 C 1.2436(8) 0.6645(4) 0.3769(3)
C34 C 1.1745(5) 0.6072(3) 0.3904(2)
C35 C 1.1766(5) 0.6038(3) 0.4396(3)
C36 C 1.3632(5) 0.5371(3) 0.4112(2)
H38 H 1.3316 0.5252 0.3787
C37 C 1.4444(5) 0.5947(3) 0.4268(3)
H39 H 1.4687 0.6207 0.4055
C38 C 1.4878(5) 0.6117(3) 0.4756(3)
H40 H 1.5412 0.6505 0.4875
C39 C 1.4535(5) 0.5729(3) 0.5056(2)
H41 H 1.4837 0.5844 0.5382
C40 C 1.3729(4) 0.5156(3) 0.4878(2)
C41 C 1.3301(4) 0.4697(3) 0.5176(2)
C42 C 1.3669(5) 0.4821(3) 0.5687(3)
C43 C 1.2127(5) 0.2676(4) 0.5809(2)
H42 H 1.2426 0.3118 0.5884
C44 C 1.2186(6) 0.2311(4) 0.6161(3)
H43 H 1.2510 0.2506 0.6475
C45 C 1.1765(6) 0.1649(4) 0.6055(3)
H44 H 1.1831 0.1399 0.6294
C46 C 1.1259(5) 0.1374(4) 0.5601(2)
H45 H 1.0941 0.0933 0.5525
C47 C 1.1219(5) 0.1759(3) 0.5249(2)
C48 C 1.0738(4) 0.1524(3) 0.4745(2)
C49 C 1.0320(5) 0.0851(3) 0.4572(2)
C50 C 1.1200(8) 0.2882(5) 0.1855(4)
H46 H 1.1033 0.2451 0.1922
H47 H 1.1808 0.3153 0.2092
H48 H 1.1330 0.2894 0.1547
C51 C 1.0531(5) 0.4492(3) 0.4702(2)
H49 H 1.0840 0.4916 0.4880
H50 H 1.0673 0.4192 0.4904
H51 H 0.9793 0.4393 0.4589
C52 C 0.7860(5) 0.4390(3) 0.3740(3)
H52 H 0.7765 0.4752 0.3602
H53 H 0.8135 0.4508 0.4079
H54 H 0.7204 0.4050 0.3669
C53 C 1.1357(6) 0.4690(4) 0.1679(3)
H55 H 1.1432 0.4789 0.1372
H56 H 1.1599 0.4342 0.1751
H57 H 1.1758 0.5058 0.1917
C54 C 0.5791(5) 0.3060(3) 0.2745(2)
H58 H 0.5348 0.3235 0.2537
H59 H 0.6454 0.3385 0.2883
H60 H 0.5480 0.2905 0.2993
C55 C 0.4680(6) 0.2039(3) 0.1239(3)
H61 H 0.4899 0.2291 0.1005
H62 H 0.4651 0.2312 0.1501
H63 H 0.4004 0.1728 0.1099
C56 C 0.5515(9) 0.3502(5) 0.0634(4)
H64 H 0.5612 0.3714 0.0364
H65 H 0.5420 0.3783 0.0870
H66 H 0.4913 0.3122 0.0534
C57 C 1.3336(7) 0.5609(5) 0.2812(4)
H67 H 1.3192 0.5538 0.2471
H68 H 1.3811 0.5400 0.2948
H69 H 1.3639 0.6060 0.2927
C58 C 1.0767(5) 0.1706(4) 0.2724(2)
H70 H 1.0662 0.1263 0.2635
H71 H 1.1492 0.1932 0.2870
H72 H 1.0541 0.1883 0.2446
C59 C 1.6407(6) 0.2906(4) 0.4354(3)
H73 H 1.6924 0.3243 0.4269
H74 H 1.6725 0.2624 0.4509
H75 H 1.6104 0.3085 0.4566
C60 C 1.4070(6) 0.1920(4) 0.4952(3)
H76 H 1.3509 0.2079 0.4848
H77 H 1.4588 0.2215 0.5214
H78 H 1.3810 0.1513 0.5053
C61 C 1.3364(7) 0.1806(4) 0.2737(3)
H79 H 1.2902 0.1949 0.2511
H80 H 1.3019 0.1371 0.2766
H81 H 1.3971 0.1835 0.2630
C62 C 1.2052(6) 0.0867(3) 0.3797(3)
H82 H 1.2533 0.0642 0.3797
H83 H 1.1502 0.0719 0.3507
H84 H 1.1766 0.0791 0.4064
C63 C 0.6134(7) 0.2968(4) -0.0453(3)
H85 H 0.5552 0.2610 -0.0480
C64 C 0.6151(8) 0.3329(5) -0.0814(3)
H86 H 0.5588 0.3217 -0.1082
C65 C 0.7011(8) 0.3858(5) -0.0776(3)
H87 H 0.7021 0.4115 -0.1014
C66 C 0.7860(8) 0.4009(4) -0.0385(3)
H88 H 0.8466 0.4348 -0.0363
C67 C 0.7773(7) 0.3633(4) -0.0026(3)
C68 C 0.8605(6) 0.3743(3) 0.0405(2)
C69 C 0.9612(7) 0.4243(4) 0.0472(3)
C70 C 0.8696(5) 0.0345(3) 0.3332(2)
H89 H 0.8053 0.0092 0.3108
H90 H 0.8883 0.0097 0.3571
H91 H 0.9231 0.0472 0.3170
Ni1_2 Ni 1.73055(5) 0.10343(3) 0.37289(3)
Ni2_2 Ni 1.56079(6) 0.02295(3) 0.27370(3)
Ni3_2 Ni 1.63743(5) 0.18057(3) 0.27744(3)
O34_2 O 0.5360(3) 0.16422(17) 0.31879(13)
O35_2 O 0.4737(3) 0.04940(17) 0.31678(14)
O36_2 O 0.6004(3) 0.11822(18) 0.38633(14)
loop_
_geom_bond_atom_site_label_1
_geom_bond_atom_site_label_2
_geom_bond_site_symmetry_1
_geom_bond_site_symmetry_2
Ni1 O3 1_555 1_555
Ni2 O1 1_555 1_555
Ni3 O2 1_555 1_555
Ni4 O5 1_555 1_555
Ni5 O5 1_555 1_555
Ni6 O4 1_555 1_555
Ni7 O7 1_555 1_555
Ni8 O6 1_555 1_555
Ni9 O7 1_555 1_555
Ni10 O9 1_555 1_555
Ni11 O9 1_555 1_555
Ni12 O9 1_555 1_555
Ni13 O33 1_555 1_555
S1 O12 1_555 1_555
S2 O16 1_555 1_555
S3 O21 1_555 1_555
S4 O25 1_555 1_555
S5 O29 1_555 1_555
S6 O33 1_555 1_555
S7 O37 1_555 1_555
S8 O41 1_555 1_555
Na1 O13 1_555 1_555
Na2 O23 1_555 1_555
O1 N2 1_555 1_555
O2 N5 1_555 1_555
O3 Ni2 1_555 1_555
H1 O3 1_555 1_555
O4 N8 1_555 1_555
O5 Ni6 1_555 1_555
H2 O5 1_555 1_555
O6 N11 1_555 1_555
O7 Ni8 1_555 1_555
H3 O7 1_555 1_555
O8 Ni9 1_555 1_555
O9 H4 1_555 1_555
O10 Ni11 1_555 1_555
O11 Ni12 1_555 1_555
O12 Ni5 1_555 1_555
O13 Ni4 1_555 1_555
O14 Ni3 1_555 1_555
O15 S1 1_555 1_555
O16 Ni4 1_555 1_555
O17 Ni7 1_555 1_555
O18 Ni11 1_555 1_555
H5 O18 1_555 1_555
O19 Ni9 1_555 1_555
O20 S2 1_555 1_555
O21 Ni5 1_555 1_555
O22 Ni4 1_555 1_555
O23 S3 1_555 1_555
O24 Ni6 1_555 1_555
O25 Ni9 1_555 1_555
O26 Ni7 1_555 1_555
O27 Ni8 1_555 1_555
O28 S4 1_555 1_555
O29 Ni10 1_555 1_555
O30 Ni12 1_555 1_555
O31 S5 1_555 1_555
O32 Ni9 1_555 1_555
O34 S6 1_555 1_555
O35 S6 1_555 1_555
O36 S6 1_555 1_555
O37 Ni12 1_555 1_555
O38 Ni3 1_555 1_555
O39 S7 1_555 1_555
O40 Ni1 1_555 1_555
O41 Ni11 1_555 1_555
O42 Ni13 1_555 1_555
O43 Ni12 1_555 1_555
O44 Ni10 1_555 1_555
O45 Ni4 1_555 1_555
H6 O45 1_555 1_555
O46 Ni10 1_555 1_555
H7 O46 1_555 1_555
O47 Ni9 1_555 1_555
H8 O47 1_555 1_555
O48 Ni7 1_555 1_555
H9 O48 1_555 1_555
O49 Ni5 1_555 1_555
O50 Ni3 1_555 1_555
H10 O50 1_555 1_555
O51 Ni6 1_555 1_555
H11 O51 1_555 1_555
O52 Ni8 1_555 1_555
H12 O52 1_555 1_555
O53 Ni12 1_555 1_555
H13 O53 1_555 1_555
O54 Ni13 1_555 1_555
H14 O54 1_555 1_555
O55 Ni13 1_555 1_555
O56 Ni13 1_555 1_555
O57 Ni13 1_555 1_555
H15 O57 1_555 1_555
O58 Ni4 1_555 1_555
O59 Ni1 1_555 1_555
H16 O59 1_555 1_555
O60 Ni2 1_555 1_555
H17 O60 1_555 1_555
N1 Ni1 1_555 1_555
N2 Ni1 1_555 1_555
N3 C7 1_555 1_555
N4 Ni2 1_555 1_555
N5 Ni2 1_555 1_555
N6 C14 1_555 1_555
N7 Ni5 1_555 1_555
N8 Ni5 1_555 1_555
N9 C21 1_555 1_555
N10 Ni7 1_555 1_555
N11 Ni7 1_555 1_555
N12 C28 1_555 1_555
N13 Ni8 1_555 1_555
N14 Ni8 1_555 1_555
N15 C35 1_555 1_555
N16 Ni10 1_555 1_555
N17 Ni10 1_555 1_555
N18 C42 1_555 1_555
N19 Ni11 1_555 1_555
N20 Ni11 1_555 1_555
N21 C49 1_555 1_555
N22 Ni6 1_555 1_555
N23 Ni6 1_555 1_555
N24 C69 1_555 1_555
C1 N1 1_555 1_555
H18 C1 1_555 1_555
C2 C1 1_555 1_555
H19 C2 1_555 1_555
C3 C2 1_555 1_555
H20 C3 1_555 1_555
C4 C3 1_555 1_555
H21 C4 1_555 1_555
C5 N1 1_555 1_555
C6 N2 1_555 1_555
C7 C6 1_555 1_555
C8 N4 1_555 1_555
H22 C8 1_555 1_555
C9 C8 1_555 1_555
H23 C9 1_555 1_555
C10 C9 1_555 1_555
H24 C10 1_555 1_555
C11 C10 1_555 1_555
H25 C11 1_555 1_555
C12 N4 1_555 1_555
C13 N5 1_555 1_555
C14 C13 1_555 1_555
C15 N7 1_555 1_555
H26 C15 1_555 1_555
C16 C15 1_555 1_555
H27 C16 1_555 1_555
C17 C16 1_555 1_555
H28 C17 1_555 1_555
C18 C17 1_555 1_555
H29 C18 1_555 1_555
C19 N7 1_555 1_555
C20 N8 1_555 1_555
C21 C20 1_555 1_555
C22 N10 1_555 1_555
H30 C22 1_555 1_555
C23 C22 1_555 1_555
H31 C23 1_555 1_555
C24 C23 1_555 1_555
H32 C24 1_555 1_555
C25 C24 1_555 1_555
H33 C25 1_555 1_555
C26 N10 1_555 1_555
C27 N11 1_555 1_555
C28 C27 1_555 1_555
C29 N13 1_555 1_555
H34 C29 1_555 1_555
C30 C29 1_555 1_555
H35 C30 1_555 1_555
C31 C30 1_555 1_555
H36 C31 1_555 1_555
C32 C31 1_555 1_555
H37 C32 1_555 1_555
C33 N13 1_555 1_555
C34 N14 1_555 1_555
C35 C34 1_555 1_555
C36 N16 1_555 1_555
H38 C36 1_555 1_555
C37 C36 1_555 1_555
H39 C37 1_555 1_555
C38 C37 1_555 1_555
H40 C38 1_555 1_555
C39 C38 1_555 1_555
H41 C39 1_555 1_555
C40 N16 1_555 1_555
C41 N17 1_555 1_555
C42 C41 1_555 1_555
C43 N19 1_555 1_555
H42 C43 1_555 1_555
C44 C43 1_555 1_555
H43 C44 1_555 1_555
C45 C44 1_555 1_555
H44 C45 1_555 1_555
C46 C45 1_555 1_555
H45 C46 1_555 1_555
C47 N19 1_555 1_555
C48 N20 1_555 1_555
C49 C48 1_555 1_555
C50 O45 1_555 1_555
H46 C50 1_555 1_555
H47 C50 1_555 1_555
H48 C50 1_555 1_555
C51 O46 1_555 1_555
H49 C51 1_555 1_555
H50 C51 1_555 1_555
H51 C51 1_555 1_555
C52 O47 1_555 1_555
H52 C52 1_555 1_555
H53 C52 1_555 1_555
H54 C52 1_555 1_555
C53 O48 1_555 1_555
H55 C53 1_555 1_555
H56 C53 1_555 1_555
H57 C53 1_555 1_555
C54 O50 1_555 1_555
H58 C54 1_555 1_555
H59 C54 1_555 1_555
H60 C54 1_555 1_555
C55 O49 1_555 1_555
H61 C55 1_555 1_555
H62 C55 1_555 1_555
H63 C55 1_555 1_555
C56 O51 1_555 1_555
H64 C56 1_555 1_555
H65 C56 1_555 1_555
H66 C56 1_555 1_555
C57 O52 1_555 1_555
H67 C57 1_555 1_555
H68 C57 1_555 1_555
H69 C57 1_555 1_555
C58 O53 1_555 1_555
H70 C58 1_555 1_555
H71 C58 1_555 1_555
H72 C58 1_555 1_555
C59 O54 1_555 1_555
H73 C59 1_555 1_555
H74 C59 1_555 1_555
H75 C59 1_555 1_555
C60 O55 1_555 1_555
H76 C60 1_555 1_555
H77 C60 1_555 1_555
H78 C60 1_555 1_555
C61 O56 1_555 1_555
H79 C61 1_555 1_555
H80 C61 1_555 1_555
H81 C61 1_555 1_555
C62 O57 1_555 1_555
H82 C62 1_555 1_555
H83 C62 1_555 1_555
H84 C62 1_555 1_555
C63 N22 1_555 1_555
H85 C63 1_555 1_555
C64 C63 1_555 1_555
H86 C64 1_555 1_555
C65 C64 1_555 1_555
H87 C65 1_555 1_555
C66 C65 1_555 1_555
H88 C66 1_555 1_555
C67 N22 1_555 1_555
C68 N23 1_555 1_555
C69 C68 1_555 1_555
C70 O59 1_555 1_555
H89 C70 1_555 1_555
H90 C70 1_555 1_555
H91 C70 1_555 1_555
Ni1_2 O36 1_555 1_555
Ni2_2 O35 1_555 1_555
Ni3_2 O34 1_555 1_555
O34_2 Ni3 1_555 1_555
O35_2 Ni2 1_555 1_555
O36_2 Ni1 1_555 1_555
Ni3 O3 1_555 1_555
S1 O13 1_555 1_555
S1 O14 1_555 1_555
S2 O17 1_555 1_555
S2 O19 1_555 1_555
S3 O22 1_555 1_555
S3 O24 1_555 1_555
S4 O26 1_555 1_555
S4 O27 1_555 1_555
S5 O30 1_555 1_555
S5 O32 1_555 1_555
S7 O38 1_555 1_555
S7 O40 1_555 1_555
S8 O42 1_555 1_555
S8 O43 1_555 1_555
S8 O44 1_555 1_555
Na1 O14 1_555 1_555
Na1 O16 1_555 1_555
Na1 O19 1_555 1_555
Na1 O30 1_555 1_555
Na1 O32 1_555 1_555
Na1 O37 1_555 1_555
Na1 O38 1_555 1_555
O8 N14 1_555 1_555
O10 N17 1_555 1_555
O11 N20 1_555 1_555
O58 N23 1_555 1_555
C4 C5 1_555 1_555
C5 C6 1_555 1_555
C11 C12 1_555 1_555
C12 C13 1_555 1_555
C18 C19 1_555 1_555
C19 C20 1_555 1_555
C25 C26 1_555 1_555
C26 C27 1_555 1_555
C32 C33 1_555 1_555
C33 C34 1_555 1_555
C39 C40 1_555 1_555
C40 C41 1_555 1_555
C46 C47 1_555 1_555
C47 C48 1_555 1_555
C66 C67 1_555 1_555
C67 C68 1_555 1_555

#END
