
#######################################################################
#
#                 Cambridge Crystallographic Data Centre
#                                CCDC 
#
#######################################################################
#
# If this CIF has been generated from an entry in the Cambridge 
# Structural Database, then it will include bibliographic, chemical, 
# crystal, experimental, refinement or atomic coordinate data resulting 
# from the CCDC's data processing and validation procedures.
#
#######################################################################

data_CODYIF
_symmetry_cell_setting           triclinic
_symmetry_space_group_name_H-M   'P -1'
_symmetry_Int_Tables_number      2
_space_group_name_Hall           '-P 1'
loop_
_symmetry_equiv_pos_site_id
_symmetry_equiv_pos_as_xyz
1 x,y,z
2 -x,-y,-z
_cell_length_a                   7.2123(5)
_cell_length_b                   13.0205(8)
_cell_length_c                   17.0317(11)
_cell_angle_alpha                77.185(6)
_cell_angle_beta                 80.933(5)
_cell_angle_gamma                83.401(5)
_cell_volume                     1534.76
loop_
_atom_site_label
_atom_site_type_symbol
_atom_site_fract_x
_atom_site_fract_y
_atom_site_fract_z
Na1 Na 0.29209(14) 0.54778(7) 0.04310(5)
Na2 Na 0.12688(15) 0.81138(8) -0.01809(6)
O1 O -0.0003(2) 0.63987(14) 0.01501(10)
H1 H -0.085(2) 0.651(2) 0.0511(11)
H2 H -0.055(3) 0.630(2) -0.0212(11)
O2 O 0.5998(3) 0.48619(14) 0.09144(10)
H3 H 0.597(4) 0.4339(14) 0.1286(12)
H4 H 0.681(3) 0.5201(19) 0.0997(17)
O3 O 0.4292(3) 0.71079(14) -0.00868(10)
H5 H 0.478(3) 0.742(2) 0.0187(13)
H6 H 0.503(3) 0.713(2) -0.0508(9)
O4 O 0.0461(4) 0.90808(16) 0.08695(13)
H7 H 0.106(5) 0.9606(18) 0.072(2)
H8 H 0.086(5) 0.876(2) 0.1289(13)
O5 O -0.1860(3) 0.88960(16) -0.05485(12)
H9 H -0.257(4) 0.870(3) -0.0806(15)
H10 H -0.210(5) 0.856(2) -0.0083(7)
O6 O 0.2955(5) 0.9520(2) -0.0899(2)
H11 H 0.236(7) 1.010(2) -0.100(3)
H12 H 0.360(7) 0.946(4) -0.1331(16)
O7 O -0.0793(3) 0.46163(13) 0.22701(10)
H13 H -0.018(3) 0.4605(14) 0.1823(4)
O8 O 0.1590(3) 0.39434(13) 0.11992(9)
O9 O 0.3135(3) 0.23308(14) 0.15024(10)
O10 O 0.1739(3) -0.22444(16) 0.84208(10)
O11 O 0.3900(3) -0.29157(14) 0.76258(11)
N1 N 0.1704(3) 0.12249(15) 0.45539(11)
N2 N 0.1011(3) 0.12523(16) 0.52805(11)
N3 N 0.2706(3) -0.21953(15) 0.77658(11)
C1 C 0.1194(3) 0.30052(17) 0.25700(12)
C2 C -0.0165(3) 0.37726(17) 0.28110(14)
C3 C -0.0952(4) 0.36977(18) 0.36155(14)
H14 H -0.1871 0.4210 0.3761
C4 C -0.0366(4) 0.28584(18) 0.42029(14)
H15 H -0.0902 0.2800 0.4743
C5 C 0.1029(3) 0.21024(17) 0.39831(13)
C6 C 0.1779(3) 0.21715(17) 0.31709(13)
H16 H 0.2685 0.1653 0.3027
C7 C 0.1589(3) 0.03711(17) 0.58710(13)
C8 C 0.2876(4) -0.04755(19) 0.57064(14)
H17 H 0.3462 -0.0474 0.5179
C9 C 0.3263(3) -0.13020(18) 0.63268(13)
H18 H 0.4103 -0.1870 0.6224
C10 C 0.2389(3) -0.12844(18) 0.71104(13)
C11 C 0.1150(4) -0.0458(2) 0.72882(14)
H19 H 0.0575 -0.0465 0.7818
C12 C 0.0773(4) 0.0385(2) 0.66638(15)
H20 H -0.0029 0.0963 0.6775
C13 C 0.2054(3) 0.30891(18) 0.16969(13)
O12 O 0.6032(3) 0.07174(15) 0.80581(11)
H21 H 0.560(4) 0.0856(15) 0.85009(16)
O13 O 0.4361(3) 0.18204(14) 0.90509(10)
O14 O 0.2881(3) 0.33815(14) 0.86157(10)
O15 O 0.2033(3) 0.66000(15) 0.15994(10)
O16 O 0.0646(3) 0.75726(14) 0.24188(11)
N4 N 0.3363(3) 0.38085(16) 0.55961(11)
N5 N 0.3935(3) 0.36973(16) 0.48885(11)
N6 N 0.1545(3) 0.67607(16) 0.22755(12)
C14 C 0.4205(3) 0.23760(17) 0.76376(13)
C15 C 0.5323(4) 0.14575(18) 0.74698(14)
C16 C 0.5708(4) 0.1304(2) 0.66745(16)
H22 H 0.6399 0.0691 0.6567
C17 C 0.5078(4) 0.2049(2) 0.60525(15)
H23 H 0.5349 0.1939 0.5524
C18 C 0.4012(3) 0.29899(17) 0.62036(13)
C19 C 0.3575(3) 0.31237(18) 0.70010(14)
H24 H 0.2846 0.3727 0.7109
C20 C 0.3266(3) 0.45134(18) 0.42707(13)
C21 C 0.2047(4) 0.53881(19) 0.44037(13)
H25 H 0.1622 0.5473 0.4932
C22 C 0.1465(4) 0.61303(19) 0.37529(14)
H26 H 0.0645 0.6714 0.3835
C23 C 0.2138(3) 0.59775(17) 0.29782(12)
C24 C 0.3370(3) 0.51270(18) 0.28285(13)
H27 H 0.3811 0.5049 0.2300
C25 C 0.3923(4) 0.43972(19) 0.34866(14)
H28 H 0.4752 0.3818 0.3401
C26 C 0.3759(4) 0.2550(2) 0.84887(14)
Na1A Na 0.70791(14) 0.45222(7) -0.04310(5)
Na2_2 Na 0.12688(15) -0.18862(8) 0.98191(6)
O2A O 0.4002(3) 0.51381(14) -0.09144(10)
O10_2 O 0.1739(3) 0.77556(16) -0.15792(10)
loop_
_geom_bond_atom_site_label_1
_geom_bond_atom_site_label_2
_geom_bond_site_symmetry_1
_geom_bond_site_symmetry_2
Na1 O1 1_555 1_555
Na2 O1 1_555 1_555
O1 H1 1_555 1_555
H2 O1 1_555 1_555
O2 Na1 1_555 1_555
H3 O2 1_555 1_555
H4 O2 1_555 1_555
O3 Na1 1_555 1_555
H5 O3 1_555 1_555
H6 O3 1_555 1_555
O4 Na2 1_555 1_555
H7 O4 1_555 1_555
H8 O4 1_555 1_555
O5 Na2 1_555 1_555
H9 O5 1_555 1_555
H10 O5 1_555 1_555
O6 Na2 1_555 1_555
H11 O6 1_555 1_555
H12 O6 1_555 1_555
O7 H13 1_555 1_555
O8 Na1 1_555 1_555
O9 C13 1_555 1_555
O10 N3 1_555 1_555
O11 N3 1_555 1_555
N1 N2 1_555 1_555
N2 C7 1_555 1_555
N3 C10 1_555 1_555
C1 C2 1_555 1_555
C2 O7 1_555 1_555
C3 C2 1_555 1_555
H14 C3 1_555 1_555
C4 C3 1_555 1_555
H15 C4 1_555 1_555
C5 N1 1_555 1_555
C6 C1 1_555 1_555
H16 C6 1_555 1_555
C7 C8 1_555 1_555
C8 H17 1_555 1_555
C9 C8 1_555 1_555
H18 C9 1_555 1_555
C10 C9 1_555 1_555
C11 C10 1_555 1_555
H19 C11 1_555 1_555
C12 C7 1_555 1_555
H20 C12 1_555 1_555
C13 O8 1_555 1_555
O12 H21 1_555 1_555
O13 C26 1_555 1_555
O14 C26 1_555 1_555
O15 Na1 1_555 1_555
O16 N6 1_555 1_555
N4 N5 1_555 1_555
N5 C20 1_555 1_555
N6 O15 1_555 1_555
C14 C15 1_555 1_555
C15 O12 1_555 1_555
C16 C15 1_555 1_555
H22 C16 1_555 1_555
C17 C16 1_555 1_555
H23 C17 1_555 1_555
C18 N4 1_555 1_555
C19 C14 1_555 1_555
H24 C19 1_555 1_555
C20 C21 1_555 1_555
C21 H25 1_555 1_555
C22 C21 1_555 1_555
H26 C22 1_555 1_555
C23 N6 1_555 1_555
C24 C23 1_555 1_555
H27 C24 1_555 1_555
C25 C20 1_555 1_555
H28 C25 1_555 1_555
C26 C14 1_555 1_555
Na1A O2 1_555 1_555
Na2_2 O10 1_555 1_555
O2A Na1 1_555 1_555
O10_2 Na2 1_555 1_555
Na2 O3 1_555 1_555
C1 C13 1_555 1_555
C4 C5 1_555 1_555
C5 C6 1_555 1_555
C11 C12 1_555 1_555
C17 C18 1_555 1_555
C18 C19 1_555 1_555
C22 C23 1_555 1_555
C24 C25 1_555 1_555
Na1A O2A 1_555 1_555

#END
