
#######################################################################
#
#                 Cambridge Crystallographic Data Centre
#                                CCDC 
#
#######################################################################
#
# If this CIF has been generated from an entry in the Cambridge 
# Structural Database, then it will include bibliographic, chemical, 
# crystal, experimental, refinement or atomic coordinate data resulting 
# from the CCDC's data processing and validation procedures.
#
#######################################################################

data_CODZIG
_symmetry_cell_setting           monoclinic
_symmetry_space_group_name_H-M   'P 21/n'
_symmetry_Int_Tables_number      14
_space_group_name_Hall           '-P 2yn'
loop_
_symmetry_equiv_pos_site_id
_symmetry_equiv_pos_as_xyz
1 x,y,z
2 1/2-x,1/2+y,1/2-z
3 -x,-y,-z
4 1/2+x,1/2-y,1/2+z
_cell_length_a                   13.409(4)
_cell_length_b                   8.564(2)
_cell_length_c                   15.535(4)
_cell_angle_alpha                90
_cell_angle_beta                 93.842(5)
_cell_angle_gamma                90
_cell_volume                     1779.95
loop_
_atom_site_label
_atom_site_type_symbol
_atom_site_fract_x
_atom_site_fract_y
_atom_site_fract_z
Cd1 Cd 0.293891(11) 0.558154(16) 0.767509(9)
O1 O 0.19962(14) 0.53836(19) 0.63920(12)
O2 O 0.18640(13) 0.32610(18) 0.71750(10)
O3 O -0.18044(13) 0.05478(17) 0.40634(11)
O4 O -0.07850(13) 0.1307(2) 0.30955(10)
O5 O 0.14237(15) 0.6517(2) 0.82000(15)
H1 H 0.119(3) 0.711(4) 0.7807(18)
H2 H 0.092(2) 0.626(4) 0.848(2)
N1 N 0.42025(15) 0.6116(2) 0.66474(13)
N2 N 0.46000(15) 0.8901(2) 0.39671(12)
N3 N 0.31936(16) 0.9232(2) 0.46375(14)
H3 H 0.2771 0.9156 0.5028
C1 C 0.5124(2) 0.5528(3) 0.66422(18)
H4 H 0.5338 0.4836 0.7077
C2 C 0.5778(2) 0.5901(3) 0.60192(18)
H5 H 0.6418 0.5479 0.6044
C3 C 0.54633(19) 0.6909(3) 0.53603(16)
H6 H 0.5886 0.7168 0.4931
C4 C 0.45020(17) 0.7529(2) 0.53518(14)
C5 C 0.39073(18) 0.7102(3) 0.60128(15)
H7 H 0.3269 0.7525 0.6014
C6 C 0.41171(17) 0.8564(3) 0.46564(14)
C7 C 0.39494(18) 0.9845(3) 0.34650(15)
C8 C 0.4063(2) 1.0528(3) 0.26649(18)
H8 H 0.4651 1.0408 0.2386
C9 C 0.3275(2) 1.1389(3) 0.22991(18)
H9 H 0.3331 1.1843 0.1761
C10 C 0.2399(2) 1.1592(3) 0.2718(2)
H10 H 0.1885 1.2189 0.2456
C11 C 0.2273(2) 1.0932(3) 0.35119(19)
H11 H 0.1686 1.1068 0.3791
C12 C 0.30651(18) 1.0051(3) 0.38776(15)
C13 C 0.16496(17) 0.4043(3) 0.64969(14)
C14 C 0.09375(16) 0.3380(2) 0.58105(13)
C15 C 0.10050(18) 0.3789(3) 0.49481(14)
H12 H 0.1486 0.4503 0.4796
C16 C 0.03572(17) 0.3135(3) 0.43177(14)
H13 H 0.0418 0.3384 0.3741
C17 C -0.03891(16) 0.2100(2) 0.45426(13)
C18 C -0.04719(17) 0.1737(2) 0.54035(14)
H14 H -0.0980 0.1077 0.5560
C19 C 0.01980(16) 0.2350(2) 0.60334(13)
H15 H 0.0152 0.2070 0.6608
C20 C -0.10392(17) 0.1298(2) 0.38590(14)
Cd1A Cd 0.206109(11) 0.058154(16) 0.732491(9)
Cd1C Cd -0.206109(11) -0.058154(16) 0.267509(9)
O2A O 0.31360(13) 0.82610(18) 0.78250(10)
O3C O 0.31956(13) 0.44522(17) 0.90634(11)
O4C O 0.42150(13) 0.3693(2) 0.80955(10)
loop_
_geom_bond_atom_site_label_1
_geom_bond_atom_site_label_2
_geom_bond_site_symmetry_1
_geom_bond_site_symmetry_2
Cd1 O1 1_555 1_555
O1 C13 1_555 1_555
O2 Cd1 1_555 1_555
O3 C20 1_555 1_555
O4 C20 1_555 1_555
O5 Cd1 1_555 1_555
H1 O5 1_555 1_555
H2 O5 1_555 1_555
N1 Cd1 1_555 1_555
N2 C6 1_555 1_555
N3 H3 1_555 1_555
C1 N1 1_555 1_555
H4 C1 1_555 1_555
C2 C1 1_555 1_555
H5 C2 1_555 1_555
C3 C2 1_555 1_555
H6 C3 1_555 1_555
C4 C3 1_555 1_555
C5 N1 1_555 1_555
H7 C5 1_555 1_555
C6 N3 1_555 1_555
C7 N2 1_555 1_555
C8 C7 1_555 1_555
H8 C8 1_555 1_555
C9 C8 1_555 1_555
H9 C9 1_555 1_555
C10 C9 1_555 1_555
H10 C10 1_555 1_555
C11 C10 1_555 1_555
H11 C11 1_555 1_555
C12 N3 1_555 1_555
C13 O2 1_555 1_555
C14 C13 1_555 1_555
C15 C14 1_555 1_555
H12 C15 1_555 1_555
C16 C15 1_555 1_555
H13 C16 1_555 1_555
C17 C16 1_555 1_555
C18 C17 1_555 1_555
H14 C18 1_555 1_555
C19 C14 1_555 1_555
H15 C19 1_555 1_555
C20 C17 1_555 1_555
Cd1A O2 1_555 1_555
Cd1C O3 1_555 1_555
O2A Cd1 1_555 1_555
O3C Cd1 1_555 1_555
O4C Cd1 1_555 1_555
O4 Cd1C 1_555 1_555
C4 C5 1_555 1_555
C4 C6 1_555 1_555
C7 C12 1_555 1_555
C11 C12 1_555 1_555
C18 C19 1_555 1_555

#END
