
#######################################################################
#
#                 Cambridge Crystallographic Data Centre
#                                CCDC 
#
#######################################################################
#
# If this CIF has been generated from an entry in the Cambridge 
# Structural Database, then it will include bibliographic, chemical, 
# crystal, experimental, refinement or atomic coordinate data resulting 
# from the CCDC's data processing and validation procedures.
#
#######################################################################

data_CODZOM
_symmetry_cell_setting           orthorhombic
_symmetry_space_group_name_H-M   'P c a 21'
_symmetry_Int_Tables_number      29
_space_group_name_Hall           'P 2c -2ac'
loop_
_symmetry_equiv_pos_site_id
_symmetry_equiv_pos_as_xyz
1 x,y,z
2 -x,-y,1/2+z
3 1/2+x,-y,z
4 1/2-x,y,1/2+z
_cell_length_a                   11.460(2)
_cell_length_b                   16.543(3)
_cell_length_c                   14.674(3)
_cell_angle_alpha                90
_cell_angle_beta                 90
_cell_angle_gamma                90
_cell_volume                     2781.94
loop_
_atom_site_label
_atom_site_type_symbol
_atom_site_fract_x
_atom_site_fract_y
_atom_site_fract_z
Co1 Co 0.37578(3) 0.247502(18) 0.05591(5)
O1 O 0.19514(17) 0.26074(11) 0.04590(18)
O2 O 0.13928(16) 0.28549(11) 0.18895(15)
O3 O -0.38912(16) 0.20764(12) -0.08089(15)
O4 O -0.44361(15) 0.23364(11) 0.06295(17)
O5 O 0.39669(19) 0.27651(15) -0.08729(17)
H1 H 0.463(2) 0.2525(19) -0.094(3)
H2 H 0.401(3) 0.3183(16) -0.118(3)
O6 O 0.35977(17) 0.22207(13) 0.19963(16)
H3 H 0.294(2) 0.2378(19) 0.214(3)
H4 H 0.379(3) 0.1805(16) 0.228(2)
N1 N 0.39575(17) 0.37103(12) 0.09581(16)
N2 N 0.6711(2) 0.41882(13) 0.27347(16)
N3 N 0.6602(2) 0.55340(12) 0.25715(16)
H5 H 0.6351 0.5996 0.2389
N4 N 0.35393(17) 0.12535(12) 0.00794(16)
N5 N 0.0801(2) 0.08563(13) -0.17704(17)
N6 N 0.0903(2) -0.04919(13) -0.16259(16)
H6 H 0.1155 -0.0958 -0.1456
C1 C 0.3278(2) 0.43201(15) 0.06715(19)
H7 H 0.2639 0.4202 0.0305
C2 C 0.3491(2) 0.51198(16) 0.0900(2)
H8 H 0.3006 0.5530 0.0690
C3 C 0.4436(2) 0.52935(15) 0.1446(2)
H9 H 0.4598 0.5826 0.1606
C4 C 0.5143(2) 0.46758(14) 0.17559(18)
C5 C 0.4863(2) 0.38928(14) 0.14976(18)
H10 H 0.5329 0.3472 0.1710
C6 C 0.6149(2) 0.47899(15) 0.23550(19)
C7 C 0.7597(3) 0.45526(15) 0.3237(2)
C8 C 0.8472(3) 0.41988(19) 0.3757(2)
H11 H 0.8518 0.3641 0.3826
C9 C 0.9270(3) 0.4707(2) 0.4168(2)
H12 H 0.9855 0.4486 0.4529
C10 C 0.9221(3) 0.55431(19) 0.4055(2)
H13 H 0.9780 0.5865 0.4338
C11 C 0.8363(3) 0.59075(18) 0.3533(2)
H14 H 0.8335 0.6464 0.3449
C12 C 0.7546(3) 0.53920(13) 0.3142(2)
C13 C 0.4221(2) 0.06349(16) 0.03238(19)
H15 H 0.4856 0.0736 0.0701
C14 C 0.4018(2) -0.01511(16) 0.0037(2)
H16 H 0.4506 -0.0569 0.0223
C15 C 0.3079(3) -0.03039(15) -0.05285(18)
H17 H 0.2921 -0.0827 -0.0724
C16 C 0.2376(2) 0.03326(13) -0.08005(18)
C17 C 0.2634(2) 0.11051(14) -0.04695(19)
H18 H 0.2156 0.1534 -0.0639
C18 C 0.1360(2) 0.02430(15) -0.14014(18)
C19 C -0.0102(3) 0.05031(15) -0.2256(2)
C20 C -0.1006(3) 0.08685(19) -0.2747(2)
H19 H -0.1064 0.1428 -0.2789
C21 C -0.1802(3) 0.0372(2) -0.3164(2)
H20 H -0.2409 0.0600 -0.3497
C22 C -0.1719(3) -0.0475(2) -0.3098(2)
H21 H -0.2271 -0.0793 -0.3392
C23 C -0.0846(3) -0.08463(19) -0.2611(2)
H22 H -0.0794 -0.1406 -0.2571
C24 C -0.0041(3) -0.03392(15) -0.2179(2)
C25 C 0.1188(2) 0.26930(16) 0.1072(2)
C26 C -0.0078(3) 0.25828(13) 0.0784(2)
C27 C -0.0948(3) 0.25822(15) 0.1446(2)
H23 H -0.0754 0.2644 0.2057
C28 C -0.2114(3) 0.24890(14) 0.1187(3)
H24 H -0.2695 0.2501 0.1630
C29 C -0.2416(3) 0.23791(14) 0.0284(2)
C30 C -0.1533(3) 0.23882(16) -0.0377(3)
H25 H -0.1724 0.2330 -0.0989
C31 C -0.0376(3) 0.24845(15) -0.0121(3)
H26 H 0.0205 0.2483 -0.0563
C32 C -0.3676(2) 0.22548(15) 0.0005(2)
Co1_2 Co -0.62422(3) 0.247502(18) 0.05591(5)
O4_2 O 0.55639(15) 0.23364(11) 0.06295(17)
loop_
_geom_bond_atom_site_label_1
_geom_bond_atom_site_label_2
_geom_bond_site_symmetry_1
_geom_bond_site_symmetry_2
Co1 O1 1_555 1_555
O1 C25 1_555 1_555
O2 C25 1_555 1_555
O3 C32 1_555 1_555
O4 C32 1_555 1_555
O5 Co1 1_555 1_555
H1 O5 1_555 1_555
H2 O5 1_555 1_555
O6 Co1 1_555 1_555
H3 O6 1_555 1_555
H4 O6 1_555 1_555
N1 Co1 1_555 1_555
N2 C6 1_555 1_555
N3 H5 1_555 1_555
N4 Co1 1_555 1_555
N5 C18 1_555 1_555
N6 H6 1_555 1_555
C1 N1 1_555 1_555
H7 C1 1_555 1_555
C2 C1 1_555 1_555
H8 C2 1_555 1_555
C3 C2 1_555 1_555
H9 C3 1_555 1_555
C4 C3 1_555 1_555
C5 N1 1_555 1_555
H10 C5 1_555 1_555
C6 N3 1_555 1_555
C7 N2 1_555 1_555
C8 C7 1_555 1_555
H11 C8 1_555 1_555
C9 C8 1_555 1_555
H12 C9 1_555 1_555
C10 C9 1_555 1_555
H13 C10 1_555 1_555
C11 C10 1_555 1_555
H14 C11 1_555 1_555
C12 N3 1_555 1_555
C13 N4 1_555 1_555
H15 C13 1_555 1_555
C14 C13 1_555 1_555
H16 C14 1_555 1_555
C15 C14 1_555 1_555
H17 C15 1_555 1_555
C16 C15 1_555 1_555
C17 N4 1_555 1_555
H18 C17 1_555 1_555
C18 N6 1_555 1_555
C19 N5 1_555 1_555
C20 C19 1_555 1_555
H19 C20 1_555 1_555
C21 C20 1_555 1_555
H20 C21 1_555 1_555
C22 C21 1_555 1_555
H21 C22 1_555 1_555
C23 C22 1_555 1_555
H22 C23 1_555 1_555
C24 N6 1_555 1_555
C25 C26 1_555 1_555
C26 C27 1_555 1_555
C27 H23 1_555 1_555
C28 C27 1_555 1_555
H24 C28 1_555 1_555
C29 C28 1_555 1_555
C30 C29 1_555 1_555
H25 C30 1_555 1_555
C31 C26 1_555 1_555
H26 C31 1_555 1_555
C32 C29 1_555 1_555
Co1_2 O4 1_555 1_555
O4_2 Co1 1_555 1_555
C4 C5 1_555 1_555
C4 C6 1_555 1_555
C7 C12 1_555 1_555
C11 C12 1_555 1_555
C16 C17 1_555 1_555
C16 C18 1_555 1_555
C19 C24 1_555 1_555
C23 C24 1_555 1_555
C30 C31 1_555 1_555

#END
