
#######################################################################
#
#                 Cambridge Crystallographic Data Centre
#                                CCDC 
#
#######################################################################
#
# If this CIF has been generated from an entry in the Cambridge 
# Structural Database, then it will include bibliographic, chemical, 
# crystal, experimental, refinement or atomic coordinate data resulting 
# from the CCDC's data processing and validation procedures.
#
#######################################################################

data_COFCUX
_symmetry_cell_setting           monoclinic
_symmetry_space_group_name_H-M   'P 21/c'
_symmetry_Int_Tables_number      14
_space_group_name_Hall           '-P 2ybc'
loop_
_symmetry_equiv_pos_site_id
_symmetry_equiv_pos_as_xyz
1 x,y,z
2 -x,1/2+y,1/2-z
3 -x,-y,-z
4 x,1/2-y,1/2+z
_cell_length_a                   10.9276(6)
_cell_length_b                   11.7495(6)
_cell_length_c                   18.1519(10)
_cell_angle_alpha                90
_cell_angle_beta                 97.7840(10)
_cell_angle_gamma                90
_cell_volume                     2309.12
loop_
_atom_site_label
_atom_site_type_symbol
_atom_site_fract_x
_atom_site_fract_y
_atom_site_fract_z
Zn1 Zn 0.85169(2) 0.85270(2) 0.11159(2)
Cl1 Cl 0.38793(6) 0.95017(5) 0.33019(4)
Cl2 Cl 0.27830(5) 0.75653(4) 0.22169(3)
O1 O 1.00826(14) 0.95394(11) 0.13265(9)
O2 O 1.13802(14) 1.08358(11) 0.19168(9)
O3 O 0.88610(14) 0.77020(11) 0.01461(9)
O4 O 0.86170(14) 0.63481(12) -0.07414(9)
N1 N 0.78493(16) 0.92703(13) 0.20317(10)
N2 N 0.68858(16) 0.76527(13) 0.10880(10)
N3 N 1.03903(17) 1.21457(14) 0.32827(11)
N4 N 0.63968(18) 0.44870(15) -0.05319(12)
C1 C 0.6649(2) 0.88903(16) 0.21178(13)
C2 C 0.6140(2) 0.80277(15) 0.16182(12)
C3 C 0.4953(2) 0.76310(15) 0.16639(13)
H1 H 0.4606 0.7056 0.1332
C4 C 0.4273(2) 0.80661(16) 0.21877(13)
C5 C 0.4756(2) 0.89226(16) 0.26689(13)
C6 C 0.5935(2) 0.93321(16) 0.26320(13)
H2 H 0.6261 0.9920 0.2961
C7 C 0.8428(2) 1.00194(15) 0.24849(12)
H3 H 0.8041 1.0251 0.2899
C8 C 0.9581(2) 1.05104(16) 0.24069(13)
C9 C 1.0328(2) 1.02389(16) 0.18429(12)
C10 C 1.0030(2) 1.14003(16) 0.29045(13)
C11 C 1.2222(2) 1.06158(17) 0.13761(13)
H4 H 1.1793 1.0720 0.0864
H5 H 1.2539 0.9826 0.1427
C12 C 1.3266(2) 1.14533(18) 0.15332(15)
H6 H 1.2932 1.2228 0.1526
H7 H 1.3818 1.1382 0.1153
H8 H 1.3729 1.1296 0.2024
C13 C 0.6557(2) 0.67815(15) 0.06581(13)
H9 H 0.5817 0.6399 0.0731
C14 C 0.7204(2) 0.63606(15) 0.00969(13)
C15 C 0.8282(2) 0.68694(16) -0.01387(12)
C16 C 0.6753(2) 0.53338(16) -0.02615(13)
C17 C 0.9724(2) 0.67372(17) -0.10287(14)
H10 H 0.9957 0.7503 -0.0830
H11 H 0.9567 0.6787 -0.1578
C18 C 1.0757(2) 0.59047(19) -0.07955(15)
H12 H 1.0950 0.5904 -0.0252
H13 H 1.1492 0.6130 -0.1015
H14 H 1.0500 0.5140 -0.0968
S1 S 0.77198(5) 1.10783(4) 0.05891(3)
O5 O 0.76505(14) 0.98289(11) 0.03771(9)
C19 C 0.6192(3) 1.1447(2) 0.07441(17)
H15 H 0.5606 1.1228 0.0310
H16 H 0.6143 1.2270 0.0822
H17 H 0.5988 1.1046 0.1185
C20 C 0.7737(2) 1.18101(17) -0.02662(14)
H18 H 0.8531 1.1682 -0.0447
H19 H 0.7624 1.2627 -0.0190
H20 H 0.7067 1.1526 -0.0633
Zn1A Zn 1.14831(2) 1.35270(2) 0.38841(2)
N3A N 0.96097(17) 0.71457(14) 0.17173(11)
loop_
_geom_bond_atom_site_label_1
_geom_bond_atom_site_label_2
_geom_bond_site_symmetry_1
_geom_bond_site_symmetry_2
Zn1 O1 1_555 1_555
Cl1 C5 1_555 1_555
Cl2 C4 1_555 1_555
O1 C9 1_555 1_555
O2 C9 1_555 1_555
O3 Zn1 1_555 1_555
O4 C15 1_555 1_555
N1 Zn1 1_555 1_555
N2 Zn1 1_555 1_555
N3 C10 1_555 1_555
N4 C16 1_555 1_555
C1 N1 1_555 1_555
C2 N2 1_555 1_555
C3 C2 1_555 1_555
H1 C3 1_555 1_555
C4 C3 1_555 1_555
C5 C4 1_555 1_555
C6 C1 1_555 1_555
H2 C6 1_555 1_555
C7 N1 1_555 1_555
H3 C7 1_555 1_555
C8 C7 1_555 1_555
C9 C8 1_555 1_555
C10 C8 1_555 1_555
C11 O2 1_555 1_555
H4 C11 1_555 1_555
H5 C11 1_555 1_555
C12 C11 1_555 1_555
H6 C12 1_555 1_555
H7 C12 1_555 1_555
H8 C12 1_555 1_555
C13 N2 1_555 1_555
H9 C13 1_555 1_555
C14 C13 1_555 1_555
C15 O3 1_555 1_555
C16 C14 1_555 1_555
C17 O4 1_555 1_555
H10 C17 1_555 1_555
H11 C17 1_555 1_555
C18 C17 1_555 1_555
H12 C18 1_555 1_555
H13 C18 1_555 1_555
H14 C18 1_555 1_555
S1 O5 1_555 1_555
O5 Zn1 1_555 1_555
C19 S1 1_555 1_555
H15 C19 1_555 1_555
H16 C19 1_555 1_555
H17 C19 1_555 1_555
C20 S1 1_555 1_555
H18 C20 1_555 1_555
H19 C20 1_555 1_555
H20 C20 1_555 1_555
Zn1A N3 1_555 1_555
N3A Zn1 1_555 1_555
C1 C2 1_555 1_555
C5 C6 1_555 1_555
C14 C15 1_555 1_555

#END
