
#######################################################################
#
#                 Cambridge Crystallographic Data Centre
#                                CCDC 
#
#######################################################################
#
# If this CIF has been generated from an entry in the Cambridge 
# Structural Database, then it will include bibliographic, chemical, 
# crystal, experimental, refinement or atomic coordinate data resulting 
# from the CCDC's data processing and validation procedures.
#
#######################################################################

data_COFCAD
_symmetry_cell_setting           trigonal
_symmetry_space_group_name_H-M   'P -3'
_symmetry_Int_Tables_number      147
_space_group_name_Hall           '-P 3'
loop_
_symmetry_equiv_pos_site_id
_symmetry_equiv_pos_as_xyz
1 x,y,z
2 -y,x-y,z
3 -x+y,-x,z
4 -x,-y,-z
5 y,-x+y,-z
6 x-y,x,-z
_cell_length_a                   14.304(4)
_cell_length_b                   14.304(4)
_cell_length_c                   24.223(7)
_cell_angle_alpha                90
_cell_angle_beta                 90
_cell_angle_gamma                120
_cell_volume                     4292.14
loop_
_atom_site_label
_atom_site_type_symbol
_atom_site_fract_x
_atom_site_fract_y
_atom_site_fract_z
P1 P 0.6667 1.3333 0.8596(4)
P2 P 0.6667 1.3333 0.6401(3)
S1 S 0.6667 1.3333 0.9369(5)
S2 S 0.6667 1.3333 0.5627(6)
Cu1 Cu 0.43388(16) 0.78741(15) 0.81254(11)
Cu2 Cu 0.43394(16) 0.78749(15) 0.68738(11)
I1 I 0.52234(7) 0.69826(7) 0.74995(5)
I2 I 0.3333 0.6667 0.60283(10)
I3 I 0.3333 0.6667 0.89725(10)
N1 N 0.6112(9) 1.2120(9) 0.8306(6)
H1 H 0.5687 1.2005 0.8021
C1 C 0.6254(11) 1.1275(11) 0.8471(7)
C2 C 0.5487(11) 1.0213(11) 0.8283(7)
H2 H 0.4889 1.0122 0.8071
N2 N 0.5573(10) 0.9357(10) 0.8392(7)
C3 C 0.6400(12) 0.9454(11) 0.8738(7)
C4 C 0.6484(13) 0.8546(13) 0.8880(8)
H3 H 0.5976 0.7852 0.8743
C5 C 0.7325(14) 0.8679(16) 0.9225(10)
H4 H 0.7364 0.8061 0.9333
C6 C 0.8077(15) 0.9653(14) 0.9407(9)
H5 H 0.8663 0.9719 0.9622
C7 C 0.8012(13) 1.0563(14) 0.9285(9)
H6 H 0.8542 1.1247 0.9422
C8 C 0.7148(12) 1.0473(11) 0.8953(7)
C9 C 0.7088(11) 1.1391(12) 0.8823(8)
H7 H 0.7596 1.2077 0.8969
N3 N 0.6100(9) 1.2118(9) 0.6696(6)
H8 H 0.5667 1.1998 0.6979
C10 C 0.6266(11) 1.1270(12) 0.6524(7)
C11 C 0.5481(12) 1.0208(11) 0.6719(7)
H9 H 0.4889 1.0123 0.6935
N4 N 0.5567(10) 0.9347(10) 0.6603(6)
C12 C 0.6409(12) 0.9444(13) 0.6255(8)
C13 C 0.6471(14) 0.8561(14) 0.6117(8)
H10 H 0.5936 0.7876 0.6252
C14 C 0.7267(15) 0.8618(14) 0.5794(9)
H11 H 0.7291 0.7984 0.5703
C15 C 0.8056(14) 0.9624(14) 0.5595(9)
H12 H 0.8643 0.9685 0.5384
C16 C 0.7980(13) 1.0525(14) 0.5706(9)
H13 H 0.8497 1.1196 0.5549
C17 C 0.7154(11) 1.0485(12) 0.6048(7)
C18 C 0.7104(12) 1.1378(11) 0.6182(7)
H14 H 0.7628 1.2067 0.6046
N1A N 0.7880(9) 1.3992(13) 0.8306(6)
H1A H 0.7995 1.3682 0.8021
C1A C 0.8725(11) 1.4979(16) 0.8471(7)
C2A C 0.9787(11) 1.5274(16) 0.8283(7)
H2A H 0.9878 1.4767 0.8071
N2A N 1.0643(10) 1.6216(14) 0.8392(7)
C3A C 1.0546(11) 1.6946(16) 0.8738(7)
C4A C 1.1454(13) 1.7938(18) 0.8880(8)
H3A H 1.2148 1.8124 0.8743
C5A C 1.1321(16) 1.8646(21) 0.9225(10)
H4A H 1.1939 1.9303 0.9333
C6A C 1.0347(14) 1.8424(21) 0.9407(9)
H5A H 1.0281 1.8944 0.9622
C7A C 0.9437(14) 1.7449(19) 0.9285(9)
H6A H 0.8753 1.7295 0.9422
C8A C 0.9527(11) 1.6675(16) 0.8953(7)
C9A C 0.8609(12) 1.5697(16) 0.8823(8)
H7A H 0.7923 1.5519 0.8969
N1B N 0.6008(13) 1.3888(9) 0.8306(6)
H1B H 0.6318 1.4313 0.8021
C1B C 0.5021(16) 1.3746(11) 0.8471(7)
C2B C 0.4726(16) 1.4513(11) 0.8283(7)
H2B H 0.5233 1.5111 0.8071
N2B N 0.3784(14) 1.4427(10) 0.8392(7)
C3B C 0.3054(16) 1.3600(12) 0.8738(7)
C4B C 0.2062(18) 1.3516(13) 0.8880(8)
H3B H 0.1876 1.4024 0.8743
C5B C 0.1354(21) 1.2675(14) 0.9225(10)
H4B H 0.0697 1.2636 0.9333
C6B C 0.1576(21) 1.1923(15) 0.9407(9)
H5B H 0.1056 1.1337 0.9622
C7B C 0.2551(19) 1.1988(13) 0.9285(9)
H6B H 0.2705 1.1458 0.9422
C8B C 0.3325(16) 1.2852(12) 0.8953(7)
C9B C 0.4303(16) 1.2912(11) 0.8823(8)
H7B H 0.4481 1.2404 0.8969
N3A N 0.7882(9) 1.3982(13) 0.6696(6)
H8A H 0.8002 1.3669 0.6979
C10A C 0.8730(12) 1.4996(16) 0.6524(7)
C11A C 0.9792(11) 1.5273(16) 0.6719(7)
H9A H 0.9877 1.4766 0.6935
N4A N 1.0653(10) 1.6220(14) 0.6603(6)
C12A C 1.0556(13) 1.6965(18) 0.6255(8)
C13A C 1.1439(14) 1.7910(20) 0.6117(8)
H10A H 1.2124 1.8060 0.6252
C14A C 1.1382(14) 1.8649(21) 0.5794(9)
H11A H 1.2016 1.9307 0.5703
C15A C 1.0376(14) 1.8432(20) 0.5595(9)
H12A H 1.0315 1.8958 0.5384
C16A C 0.9475(14) 1.7455(19) 0.5706(9)
H13A H 0.8804 1.7301 0.5549
C17A C 0.9515(12) 1.6669(16) 0.6048(7)
C18A C 0.8622(11) 1.5726(16) 0.6182(7)
H14A H 0.7933 1.5561 0.6046
N3B N 0.6018(13) 1.3900(9) 0.6696(6)
H8B H 0.6331 1.4333 0.6979
C10B C 0.5004(16) 1.3734(11) 0.6524(7)
C11B C 0.4727(16) 1.4519(12) 0.6719(7)
H9B H 0.5234 1.5111 0.6935
N4B N 0.3780(14) 1.4433(10) 0.6603(6)
C12B C 0.3035(18) 1.3591(12) 0.6255(8)
C13B C 0.2090(20) 1.3529(14) 0.6117(8)
H10B H 0.1940 1.4064 0.6252
C14B C 0.1351(21) 1.2733(15) 0.5794(9)
H11B H 0.0693 1.2709 0.5703
C15B C 0.1568(20) 1.1944(14) 0.5595(9)
H12B H 0.1042 1.1357 0.5384
C16B C 0.2545(19) 1.2020(13) 0.5706(9)
H13B H 0.2699 1.1503 0.5549
C17B C 0.3331(16) 1.2846(11) 0.6048(7)
C18B C 0.4274(16) 1.2896(12) 0.6182(7)
H14B H 0.4439 1.2372 0.6046
Cu1A Cu 0.21259(15) 0.64647(22) 0.81254(11)
Cu2A Cu 0.21251(15) 0.64645(22) 0.68738(11)
I1A I 0.30174(7) 0.82408(10) 0.74995(5)
Cu1B Cu 0.35353(22) 0.56612(16) 0.81254(11)
Cu2B Cu 0.35355(22) 0.56606(16) 0.68738(11)
I1B I 0.17592(10) 0.47766(7) 0.74995(5)
Cu1A_2 Cu 1.21259(15) 1.64647(22) 0.81254(11)
Cu1B_2 Cu 0.35353(22) 1.56612(16) 0.81254(11)
Cu2A_2 Cu 1.21251(15) 1.64645(22) 0.68738(11)
Cu2B_2 Cu 0.35355(22) 1.56606(16) 0.68738(11)
N2A_2 N 0.0643(10) 0.6216(14) 0.8392(7)
N2B_2 N 0.3784(14) 0.4427(10) 0.8392(7)
N4A_2 N 0.0653(10) 0.6220(14) 0.6603(6)
N4B_2 N 0.3780(14) 0.4433(10) 0.6603(6)
O1 O 0.4415(16) 0.149(2) 0.7533(12)
C19 C 0.358(3) 0.101(3) 0.7833(18)
H15 H 0.3652 0.0684 0.8162
N5 N 0.255(3) 0.090(3) 0.7723(18)
C20 C 0.168(3) 0.029(4) 0.805(2)
H16 H 0.1637 -0.0407 0.8129
H17 H 0.1019 0.0159 0.7865
H18 H 0.1757 0.0667 0.8401
C21 C 0.254(5) 0.185(4) 0.767(4)
H19 H 0.3131 0.2341 0.7429
H20 H 0.2641 0.2183 0.8038
H21 H 0.1851 0.1706 0.7518
C22 C 0.466(9) 1.068(7) 0.979(3)
O2 O 0.397(4) 1.064(3) 0.9325(16)
O3 O 0.395(3) 0.068(3) 0.5673(16)
O4? O 0.447(3) 0.161(4) 0.741(2)
C23? C 0.361(3) 0.104(3) 0.714(2)
H22? H 0.3662 0.0671 0.6830
N6? N 0.256(3) 0.090(3) 0.7259(18)
C24? C 0.169(3) 0.028(4) 0.693(2)
H23? H 0.1672 -0.0394 0.6842
H24? H 0.1747 0.0675 0.6590
H25? H 0.1027 0.0124 0.7127
C25? C 0.253(5) 0.183(4) 0.732(5)
H26? H 0.3121 0.2330 0.7564
H27? H 0.1838 0.1670 0.7488
H28? H 0.2605 0.2174 0.6961
O5? O 0.5000 1.0000 1.0000
C26? C 0.427(5) 0.899(4) 0.529(3)
O6? O 0.5000 1.0000 0.5000
C27? C 0.423(4) 0.907(4) 0.967(3)
loop_
_geom_bond_atom_site_label_1
_geom_bond_atom_site_label_2
_geom_bond_site_symmetry_1
_geom_bond_site_symmetry_2
P1 S1 1_555 1_555
P2 S2 1_555 1_555
Cu1 I1 1_555 1_555
Cu2 I1 1_555 1_555
I1 Cu1B 1_555 1_555
I2 Cu2 1_555 1_555
I3 Cu1 1_555 1_555
N1 P1 1_555 1_555
H1 N1 1_555 1_555
C1 N1 1_555 1_555
C2 C1 1_555 1_555
H2 C2 1_555 1_555
N2 Cu1 1_555 1_555
C3 N2 1_555 1_555
C4 C3 1_555 1_555
H3 C4 1_555 1_555
C5 C4 1_555 1_555
H4 C5 1_555 1_555
C6 C5 1_555 1_555
H5 C6 1_555 1_555
C7 C6 1_555 1_555
H6 C7 1_555 1_555
C8 C3 1_555 1_555
C9 C1 1_555 1_555
H7 C9 1_555 1_555
N3 P2 1_555 1_555
H8 N3 1_555 1_555
C10 N3 1_555 1_555
C11 C10 1_555 1_555
H9 C11 1_555 1_555
N4 Cu2 1_555 1_555
C12 N4 1_555 1_555
C13 C12 1_555 1_555
H10 C13 1_555 1_555
C14 C13 1_555 1_555
H11 C14 1_555 1_555
C15 C14 1_555 1_555
H12 C15 1_555 1_555
C16 C15 1_555 1_555
H13 C16 1_555 1_555
C17 C12 1_555 1_555
C18 C10 1_555 1_555
H14 C18 1_555 1_555
O1 C19 1_555 1_555
C19 H15 1_555 1_555
N5 C19 1_555 1_555
C20 N5 1_555 1_555
H16 C20 1_555 1_555
H17 C20 1_555 1_555
H18 C20 1_555 1_555
C21 N5 1_555 1_555
H19 C21 1_555 1_555
H20 C21 1_555 1_555
H21 C21 1_555 1_555
C22 O2 1_555 1_555
N1A P1 1_555 1_555
H1A N1A 1_555 1_555
C1A N1A 1_555 1_555
C2A C1A 1_555 1_555
H2A C2A 1_555 1_555
N2A C2A 1_555 1_555
C3A N2A 1_555 1_555
C4A C3A 1_555 1_555
H3A C4A 1_555 1_555
C5A C4A 1_555 1_555
H4A C5A 1_555 1_555
C6A C5A 1_555 1_555
H5A C6A 1_555 1_555
C7A C6A 1_555 1_555
H6A C7A 1_555 1_555
C8A C3A 1_555 1_555
C9A C1A 1_555 1_555
H7A C9A 1_555 1_555
N1B P1 1_555 1_555
H1B N1B 1_555 1_555
C1B N1B 1_555 1_555
C2B C1B 1_555 1_555
H2B C2B 1_555 1_555
N2B C2B 1_555 1_555
C3B N2B 1_555 1_555
C4B C3B 1_555 1_555
H3B C4B 1_555 1_555
C5B C4B 1_555 1_555
H4B C5B 1_555 1_555
C6B C5B 1_555 1_555
H5B C6B 1_555 1_555
C7B C6B 1_555 1_555
H6B C7B 1_555 1_555
C8B C3B 1_555 1_555
C9B C1B 1_555 1_555
H7B C9B 1_555 1_555
N3A P2 1_555 1_555
H8A N3A 1_555 1_555
C10A N3A 1_555 1_555
C11A C10A 1_555 1_555
H9A C11A 1_555 1_555
N4A C11A 1_555 1_555
C12A N4A 1_555 1_555
C13A C12A 1_555 1_555
H10A C13A 1_555 1_555
C14A C13A 1_555 1_555
H11A C14A 1_555 1_555
C15A C14A 1_555 1_555
H12A C15A 1_555 1_555
C16A C15A 1_555 1_555
H13A C16A 1_555 1_555
C17A C12A 1_555 1_555
C18A C10A 1_555 1_555
H14A C18A 1_555 1_555
N3B P2 1_555 1_555
H8B N3B 1_555 1_555
C10B N3B 1_555 1_555
C11B C10B 1_555 1_555
H9B C11B 1_555 1_555
N4B C11B 1_555 1_555
C12B N4B 1_555 1_555
C13B C12B 1_555 1_555
H10B C13B 1_555 1_555
C14B C13B 1_555 1_555
H11B C14B 1_555 1_555
C15B C14B 1_555 1_555
H12B C15B 1_555 1_555
C16B C15B 1_555 1_555
H13B C16B 1_555 1_555
C17B C12B 1_555 1_555
C18B C10B 1_555 1_555
H14B C18B 1_555 1_555
Cu1A I3 1_555 1_555
Cu2A I2 1_555 1_555
I1A Cu1 1_555 1_555
Cu1B I3 1_555 1_555
Cu2B I1 1_555 1_555
I1B Cu1A 1_555 1_555
Cu1A_2 N2A 1_555 1_555
Cu1B_2 N2B 1_555 1_555
Cu2A_2 N4A 1_555 1_555
Cu2B_2 N4B 1_555 1_555
N2A_2 Cu1A 1_555 1_555
N2B_2 Cu1B 1_555 1_555
N4A_2 Cu2A 1_555 1_555
N4B_2 Cu2B 1_555 1_555
Cu2 I1A 1_555 1_555
I2 Cu2B 1_555 1_555
C2 N2 1_555 1_555
C7 C8 1_555 1_555
C8 C9 1_555 1_555
C11 N4 1_555 1_555
C16 C17 1_555 1_555
C17 C18 1_555 1_555
C7A C8A 1_555 1_555
C8A C9A 1_555 1_555
C7B C8B 1_555 1_555
C8B C9B 1_555 1_555
C16A C17A 1_555 1_555
C17A C18A 1_555 1_555
C16B C17B 1_555 1_555
C17B C18B 1_555 1_555
Cu1A I1A 1_555 1_555
Cu2A I1A 1_555 1_555
Cu2A I1B 1_555 1_555
Cu1B I1B 1_555 1_555
Cu2B I1B 1_555 1_555

#END
