
#######################################################################
#
#                 Cambridge Crystallographic Data Centre
#                                CCDC 
#
#######################################################################
#
# If this CIF has been generated from an entry in the Cambridge 
# Structural Database, then it will include bibliographic, chemical, 
# crystal, experimental, refinement or atomic coordinate data resulting 
# from the CCDC's data processing and validation procedures.
#
#######################################################################

data_COFCOR
_symmetry_cell_setting           monoclinic
_symmetry_space_group_name_H-M   'P 21/c'
_symmetry_Int_Tables_number      14
_space_group_name_Hall           '-P 2ybc'
loop_
_symmetry_equiv_pos_site_id
_symmetry_equiv_pos_as_xyz
1 x,y,z
2 -x,1/2+y,1/2-z
3 -x,-y,-z
4 x,1/2-y,1/2+z
_cell_length_a                   10.7526(5)
_cell_length_b                   11.5952(5)
_cell_length_c                   19.6353(9)
_cell_angle_alpha                90
_cell_angle_beta                 100.7200(10)
_cell_angle_gamma                90
_cell_volume                     2405.38
loop_
_atom_site_label
_atom_site_type_symbol
_atom_site_fract_x
_atom_site_fract_y
_atom_site_fract_z
Zn1 Zn 0.14509(2) 0.13893(2) 0.88617(2)
O1 O 0.09629(8) 0.23959(8) 0.96343(5)
O2 O 0.11047(9) 0.38827(8) 1.03772(5)
O3 O -0.00977(8) 0.02369(8) 0.87233(5)
O4 O -0.13370(8) -0.12164(8) 0.82270(5)
N1 N 0.30949(9) 0.23156(9) 0.88913(5)
N2 N 0.35729(12) 0.55900(11) 1.03560(8)
N3 N 0.21667(9) 0.05179(9) 0.80995(5)
N4 N -0.03479(10) -0.24176(10) 0.68876(6)
C1 C 0.38616(11) 0.18779(10) 0.84378(6)
C2 C 0.50674(11) 0.22893(10) 0.83902(6)
H1 H 0.5414 0.2911 0.8679
C3 C 0.57723(11) 0.18169(11) 0.79337(7)
C4 C 0.52696(12) 0.08987(11) 0.75018(7)
C5 C 0.40818(12) 0.04712(11) 0.75549(7)
H2 H 0.3748 -0.0162 0.7272
C6 C 0.33645(11) 0.09418(11) 0.80112(6)
C7 C 0.70733(12) 0.22793(12) 0.79081(7)
H3 H 0.7290 0.2886 0.8258
H4 H 0.7082 0.2599 0.7447
H5 H 0.7694 0.1653 0.8003
C8 C 0.59938(14) 0.03780(13) 0.69880(8)
H6 H 0.5470 -0.0208 0.6711
H7 H 0.6772 0.0020 0.7238
H8 H 0.6210 0.0984 0.6682
C9 C 0.34167(11) 0.32253(11) 0.92734(6)
H9 H 0.4190 0.3592 0.9234
C10 C 0.27079(12) 0.37123(11) 0.97430(7)
C11 C 0.15499(12) 0.32615(11) 0.98931(6)
C12 C 0.31870(12) 0.47459(12) 1.00880(7)
C13 C -0.01010(13) 0.35223(12) 1.05389(7)
H10 H -0.0115 0.2675 1.0599
H11 H -0.0802 0.3741 1.0159
C14 C -0.02474(15) 0.41188(15) 1.12004(8)
H12 H 0.0408 0.3845 1.1581
H13 H -0.1084 0.3946 1.1304
H14 H -0.0162 0.4954 1.1146
C15 C 0.15664(11) -0.02556(10) 0.76849(6)
H15 H 0.1933 -0.0481 0.7301
C16 C 0.04142(11) -0.07924(11) 0.77553(6)
C17 C -0.03206(11) -0.05264(11) 0.82742(6)
C18 C -0.00286(11) -0.16870(11) 0.72778(6)
C19 C -0.21859(12) -0.10172(12) 0.87106(7)
H16 H -0.2584 -0.0247 0.8634
H17 H -0.1717 -0.1060 0.9194
C20 C -0.31794(13) -0.19522(13) 0.85753(8)
H18 H -0.3678 -0.1861 0.8107
H19 H -0.3739 -0.1893 0.8915
H20 H -0.2766 -0.2709 0.8616
S1 S 0.24012(3) -0.10286(3) 0.95438(2)
O5 O 0.24244(9) 0.02613(8) 0.96710(5)
C21 C 0.23063(14) -0.16501(12) 1.03599(7)
H21 H 0.2950 -0.1303 1.0720
H22 H 0.2452 -0.2483 1.0343
H23 H 0.1465 -0.1507 1.0466
C22 C 0.39963(16) -0.14212(15) 0.95158(11)
H24 H 0.4247 -0.1075 0.9106
H25 H 0.4061 -0.2263 0.9491
H26 H 0.4556 -0.1141 0.9935
Zn1A Zn -0.14509(2) -0.36107(2) 0.61383(2)
N4A N 0.03479(10) 0.25824(10) 0.81124(6)
loop_
_geom_bond_atom_site_label_1
_geom_bond_atom_site_label_2
_geom_bond_site_symmetry_1
_geom_bond_site_symmetry_2
Zn1 O1 1_555 1_555
O1 C11 1_555 1_555
O2 C11 1_555 1_555
O3 Zn1 1_555 1_555
O4 C17 1_555 1_555
N1 Zn1 1_555 1_555
N2 C12 1_555 1_555
N3 Zn1 1_555 1_555
N4 C18 1_555 1_555
C1 N1 1_555 1_555
C2 C1 1_555 1_555
H1 C2 1_555 1_555
C3 C2 1_555 1_555
C4 C3 1_555 1_555
C5 C4 1_555 1_555
H2 C5 1_555 1_555
C6 N3 1_555 1_555
C7 C3 1_555 1_555
H3 C7 1_555 1_555
H4 C7 1_555 1_555
H5 C7 1_555 1_555
C8 C4 1_555 1_555
H6 C8 1_555 1_555
H7 C8 1_555 1_555
H8 C8 1_555 1_555
C9 N1 1_555 1_555
H9 C9 1_555 1_555
C10 C9 1_555 1_555
C11 C10 1_555 1_555
C12 C10 1_555 1_555
C13 O2 1_555 1_555
H10 C13 1_555 1_555
H11 C13 1_555 1_555
C14 C13 1_555 1_555
H12 C14 1_555 1_555
H13 C14 1_555 1_555
H14 C14 1_555 1_555
C15 N3 1_555 1_555
H15 C15 1_555 1_555
C16 C15 1_555 1_555
C17 O3 1_555 1_555
C18 C16 1_555 1_555
C19 O4 1_555 1_555
H16 C19 1_555 1_555
H17 C19 1_555 1_555
C20 C19 1_555 1_555
H18 C20 1_555 1_555
H19 C20 1_555 1_555
H20 C20 1_555 1_555
S1 O5 1_555 1_555
O5 Zn1 1_555 1_555
C21 S1 1_555 1_555
H21 C21 1_555 1_555
H22 C21 1_555 1_555
H23 C21 1_555 1_555
C22 S1 1_555 1_555
H24 C22 1_555 1_555
H25 C22 1_555 1_555
H26 C22 1_555 1_555
Zn1A N4 1_555 1_555
N4A Zn1 1_555 1_555
C1 C6 1_555 1_555
C5 C6 1_555 1_555
C16 C17 1_555 1_555

#END
