
#######################################################################
#
#                 Cambridge Crystallographic Data Centre
#                                CCDC 
#
#######################################################################
#
# If this CIF has been generated from an entry in the Cambridge 
# Structural Database, then it will include bibliographic, chemical, 
# crystal, experimental, refinement or atomic coordinate data resulting 
# from the CCDC's data processing and validation procedures.
#
#######################################################################

data_COFKEN10
_symmetry_cell_setting           orthorhombic
_symmetry_space_group_name_H-M   'I m a 2'
_symmetry_Int_Tables_number      46
_space_group_name_Hall           'I 2 -2a'
loop_
_symmetry_equiv_pos_site_id
_symmetry_equiv_pos_as_xyz
1 x,y,z
2 1/2+x,1/2+y,1/2+z
3 1/2-x,y,z
4 -x,1/2+y,1/2+z
5 1/2+x,-y,z
6 x,1/2-y,1/2+z
7 -x,-y,z
8 1/2-x,1/2-y,1/2+z
_cell_length_a                   12.490(3)
_cell_length_b                   14.238(8)
_cell_length_c                   7.705(5)
_cell_angle_alpha                90
_cell_angle_beta                 90
_cell_angle_gamma                90
_cell_volume                     1370.2
loop_
_atom_site_label
_atom_site_type_symbol
_atom_site_fract_x
_atom_site_fract_y
_atom_site_fract_z
Cd1 Cd 0.250 0.1058(1) 0.715(1)
Ni1 Ni 0.000 0.0000 0.223(2)
Cl1 Cl 0.250 -0.3746(4) 0.718(5)
N1 N 0.250 0.265(1) 0.709(8)
N2 N 0.250 -0.059(1) 0.716(7)
N3 N 0.115(5) 0.110(2) 0.503(4)
N4 N 0.121(5) 0.092(3) 0.940(5)
C1 C 0.075(5) 0.060(3) 0.374(4)
C2 C 0.067(5) 0.070(3) 1.028(3)
C3 C 0.157(1) -0.108(1) 0.717(9)
C4 C 0.154(2) -0.204(1) 0.726(7)
C5 C 0.250 -0.251(2) 0.70(2)
H1 H 0.082 -0.068 0.708
H2 H 0.081 -0.247 0.722
C3B C 0.343(1) -0.108(1) 0.717(9)
C4B C 0.346(2) -0.204(1) 0.726(7)
H2B H 0.419 -0.247 0.722
H1B H 0.418 -0.068 0.708
N3B N 0.385(5) 0.110(2) 0.503(4)
C1B C 0.425(5) 0.060(3) 0.374(4)
N4B N 0.379(5) 0.092(3) 0.940(5)
C2B C 0.433(5) 0.070(3) 1.028(3)
C1F C -0.075(5) -0.060(3) 0.374(4)
C2_2 C 0.067(5) 0.070(3) 0.028(3)
C2F C -0.067(5) -0.070(3) 0.028(3)
Ni1_2 Ni 0.000 0.0000 1.223(2)
Ni1B Ni 0.500 0.0000 0.223(2)
Ni1B_2 Ni 0.500 0.0000 1.223(2)
loop_
_geom_bond_atom_site_label_1
_geom_bond_atom_site_label_2
_geom_bond_site_symmetry_1
_geom_bond_site_symmetry_2
Cd1 N1 1_555 1_555
Ni1 C1 1_555 1_555
Cl1 C5 1_555 1_555
N2 Cd1 1_555 1_555
N3 Cd1 1_555 1_555
N4 Cd1 1_555 1_555
C1 N3 1_555 1_555
C2 N4 1_555 1_555
C3 N2 1_555 1_555
C4 C3 1_555 1_555
C5 C4 1_555 1_555
H1 C3 1_555 1_555
H2 C4 1_555 1_555
C3B N2 1_555 1_555
C4B C5 1_555 1_555
H2B C4B 1_555 1_555
H1B C3B 1_555 1_555
N3B Cd1 1_555 1_555
C1B N3B 1_555 1_555
N4B Cd1 1_555 1_555
C2B N4B 1_555 1_555
C1F Ni1 1_555 1_555
C2_2 Ni1 1_555 1_555
C2F Ni1 1_555 1_555
Ni1_2 C2 1_555 1_555
Ni1B C1B 1_555 1_555
Ni1B_2 C2B 1_555 1_555
C3B C4B 1_555 1_555

#END
