
#######################################################################
#
#                 Cambridge Crystallographic Data Centre
#                                CCDC 
#
#######################################################################
#
# If this CIF has been generated from an entry in the Cambridge 
# Structural Database, then it will include bibliographic, chemical, 
# crystal, experimental, refinement or atomic coordinate data resulting 
# from the CCDC's data processing and validation procedures.
#
#######################################################################

data_COFMUG
_symmetry_cell_setting           monoclinic
_symmetry_space_group_name_H-M   'P 21/c'
_symmetry_Int_Tables_number      14
_space_group_name_Hall           '-P 2ybc'
loop_
_symmetry_equiv_pos_site_id
_symmetry_equiv_pos_as_xyz
1 x,y,z
2 -x,1/2+y,1/2-z
3 -x,-y,-z
4 x,1/2-y,1/2+z
_cell_length_a                   10.547(4)
_cell_length_b                   19.808(7)
_cell_length_c                   18.804(7)
_cell_angle_alpha                90
_cell_angle_beta                 97.198(6)
_cell_angle_gamma                90
_cell_volume                     3897.48
loop_
_atom_site_label
_atom_site_type_symbol
_atom_site_fract_x
_atom_site_fract_y
_atom_site_fract_z
Sn1 Sn 0.47963(7) 0.90091(3) 0.79732(4)
Sn2 Sn 0.96545(7) 0.85281(4) 0.74416(5)
S1 S 0.6304(3) 0.68712(16) 0.6299(2)
S2 S 0.7960(3) 0.58220(14) 0.61106(18)
S3 S 0.7624(4) 0.61916(19) 0.7606(2)
O1 O 0.6620(7) 0.8437(4) 0.7602(5)
O2 O 0.8021(6) 0.7885(3) 0.7058(4)
O3 O 0.6683(6) 0.4653(3) 0.6653(4)
O4 O 0.8367(7) 0.4117(4) 0.7186(5)
C1 C 0.7315(10) 0.6290(5) 0.6758(6)
C2 C 0.6927(11) 0.7962(6) 0.7239(7)
C3 C 0.5943(11) 0.7440(6) 0.6992(7)
H1 H 0.5153 0.7671 0.6822
H2 H 0.5788 0.7172 0.7404
C4 C 0.7853(11) 0.4578(5) 0.6820(7)
C5 C 0.8724(10) 0.5135(5) 0.6604(7)
H3 H 0.9332 0.4935 0.6320
H4 H 0.9206 0.5315 0.7036
C6 C 0.4444(15) 0.8126(6) 0.8513(8)
H5 H 0.3836 0.7869 0.8191
H6 H 0.5236 0.7872 0.8564
C7 C 0.400(2) 0.8107(7) 0.9190(10)
H7 H 0.3157 0.8315 0.9148
H8 H 0.4563 0.8376 0.9524
C8 C 0.390(2) 0.7390(9) 0.9506(11)
H9 H 0.3512 0.7085 0.9139
H10 H 0.4748 0.7223 0.9679
C9 C 0.313(2) 0.7425(11) 1.0094(12)
H11 H 0.3078 0.6986 1.0304
H12 H 0.2282 0.7578 0.9915
H13 H 0.3509 0.7736 1.0450
C10 C 0.6156(11) 0.9727(7) 0.8438(7)
H14 H 0.6995 0.9601 0.8322
H15 H 0.5948 1.0165 0.8224
C11 C 0.6211(15) 0.9786(9) 0.9207(8)
H16 H 0.6587 0.9377 0.9423
H17 H 0.5344 0.9815 0.9326
C12 C 0.6994(14) 1.0413(7) 0.9558(8)
H18 H 0.6701 1.0825 0.9312
H19 H 0.6868 1.0455 1.0058
C13 C 0.8339(14) 1.0306(9) 0.9498(9)
H20 H 0.8827 1.0680 0.9710
H21 H 0.8457 1.0269 0.9002
H22 H 0.8622 0.9898 0.9743
C14 C 0.4146(13) 0.9132(6) 0.6865(8)
H23 H 0.4531 0.8790 0.6592
H24 H 0.3226 0.9074 0.6784
C15 C 0.4499(17) 0.9836(8) 0.6610(9)
H25 H 0.4237 1.0172 0.6938
H26 H 0.5420 0.9864 0.6625
C16 C 0.391(2) 0.9991(10) 0.5886(10)
H27 H 0.2992 0.9916 0.5849
H28 H 0.4253 0.9699 0.5544
C17 C 0.417(2) 1.0717(10) 0.5725(14)
H29 H 0.3768 1.0828 0.5254
H30 H 0.5078 1.0784 0.5747
H31 H 0.3842 1.1002 0.6071
C18 C 0.9588(13) 0.8408(7) 0.8530(8)
H32 H 1.0452 0.8467 0.8766
H33 H 0.9087 0.8780 0.8682
C19 C 0.9078(16) 0.7775(7) 0.8826(7)
H34 H 0.9622 0.7402 0.8723
H35 H 0.8234 0.7690 0.8574
C20 C 0.8981(19) 0.7776(9) 0.9634(8)
H36 H 0.9836 0.7796 0.9892
H37 H 0.8530 0.8180 0.9752
C21 C 0.831(2) 0.7175(10) 0.9879(11)
H38 H 0.8301 0.7200 1.0388
H39 H 0.8754 0.6773 0.9764
H40 H 0.7452 0.7163 0.9642
C22 C 0.8870(14) 0.9413(6) 0.6953(8)
H41 H 0.7982 0.9322 0.6777
H42 H 0.8877 0.9756 0.7322
C23 C 0.9472(17) 0.9705(8) 0.6356(10)
H43 H 0.9508 0.9366 0.5987
H44 H 1.0340 0.9840 0.6529
C24 C 0.8701(19) 1.0336(9) 0.6027(11)
H45 H 0.7950 1.0177 0.5722
H46 H 0.8409 1.0593 0.6414
C25 C 0.940(2) 1.0776(10) 0.5617(13)
H47 H 0.8872 1.1154 0.5452
H48 H 0.9647 1.0536 0.5214
H49 H 1.0149 1.0936 0.5912
C26 C 1.0816(15) 0.7914(7) 0.6857(9)
H50 H 1.0402 0.7855 0.6370
H51 H 1.1632 0.8134 0.6835
C27 C 1.1039(19) 0.7211(9) 0.7225(10)
H52 H 1.1394 0.7277 0.7722
H53 H 1.0223 0.6984 0.7221
C28 C 1.188(2) 0.6789(11) 0.6881(12)
H54 H 1.1387 0.6466 0.6572
H55 H 1.2372 0.7063 0.6586
C29 C 1.273(2) 0.6439(11) 0.7407(13)
H56 H 1.3269 0.6145 0.7173
H57 H 1.2238 0.6176 0.7704
H58 H 1.3242 0.6759 0.7697
Sn1A Sn 0.52037(7) 0.40091(3) 0.70268(4)
Sn2A Sn 1.03455(7) 0.35281(4) 0.75584(5)
O3A O 0.3317(6) 0.9653(3) 0.8347(4)
O4A O 1.1633(7) 0.9117(4) 0.7814(5)
loop_
_geom_bond_atom_site_label_1
_geom_bond_atom_site_label_2
_geom_bond_site_symmetry_1
_geom_bond_site_symmetry_2
Sn1 O1 1_555 1_555
Sn2 O2 1_555 1_555
S1 C1 1_555 1_555
S2 C1 1_555 1_555
S3 C1 1_555 1_555
O1 C2 1_555 1_555
O2 C2 1_555 1_555
O3 C4 1_555 1_555
O4 C4 1_555 1_555
C2 C3 1_555 1_555
C3 S1 1_555 1_555
H1 C3 1_555 1_555
H2 C3 1_555 1_555
C4 C5 1_555 1_555
C5 S2 1_555 1_555
H3 C5 1_555 1_555
H4 C5 1_555 1_555
C6 Sn1 1_555 1_555
H5 C6 1_555 1_555
H6 C6 1_555 1_555
C7 C6 1_555 1_555
H7 C7 1_555 1_555
H8 C7 1_555 1_555
C8 C7 1_555 1_555
H9 C8 1_555 1_555
H10 C8 1_555 1_555
C9 C8 1_555 1_555
H11 C9 1_555 1_555
H12 C9 1_555 1_555
H13 C9 1_555 1_555
C10 Sn1 1_555 1_555
H14 C10 1_555 1_555
H15 C10 1_555 1_555
C11 C10 1_555 1_555
H16 C11 1_555 1_555
H17 C11 1_555 1_555
C12 C11 1_555 1_555
H18 C12 1_555 1_555
H19 C12 1_555 1_555
C13 C12 1_555 1_555
H20 C13 1_555 1_555
H21 C13 1_555 1_555
H22 C13 1_555 1_555
C14 Sn1 1_555 1_555
H23 C14 1_555 1_555
H24 C14 1_555 1_555
C15 C14 1_555 1_555
H25 C15 1_555 1_555
H26 C15 1_555 1_555
C16 C15 1_555 1_555
H27 C16 1_555 1_555
H28 C16 1_555 1_555
C17 C16 1_555 1_555
H29 C17 1_555 1_555
H30 C17 1_555 1_555
H31 C17 1_555 1_555
C18 Sn2 1_555 1_555
H32 C18 1_555 1_555
H33 C18 1_555 1_555
C19 C18 1_555 1_555
H34 C19 1_555 1_555
H35 C19 1_555 1_555
C20 C19 1_555 1_555
H36 C20 1_555 1_555
H37 C20 1_555 1_555
C21 C20 1_555 1_555
H38 C21 1_555 1_555
H39 C21 1_555 1_555
H40 C21 1_555 1_555
C22 Sn2 1_555 1_555
H41 C22 1_555 1_555
H42 C22 1_555 1_555
C23 C22 1_555 1_555
H43 C23 1_555 1_555
H44 C23 1_555 1_555
C24 C23 1_555 1_555
H45 C24 1_555 1_555
H46 C24 1_555 1_555
C25 C24 1_555 1_555
H47 C25 1_555 1_555
H48 C25 1_555 1_555
H49 C25 1_555 1_555
C26 Sn2 1_555 1_555
H50 C26 1_555 1_555
H51 C26 1_555 1_555
C27 C26 1_555 1_555
H52 C27 1_555 1_555
H53 C27 1_555 1_555
C28 C27 1_555 1_555
H54 C28 1_555 1_555
H55 C28 1_555 1_555
C29 C28 1_555 1_555
H56 C29 1_555 1_555
H57 C29 1_555 1_555
H58 C29 1_555 1_555
Sn1A O3 1_555 1_555
Sn2A O4 1_555 1_555
O3A Sn1 1_555 1_555
O4A Sn2 1_555 1_555

#END
