
#######################################################################
#
#                 Cambridge Crystallographic Data Centre
#                                CCDC 
#
#######################################################################
#
# If this CIF has been generated from an entry in the Cambridge 
# Structural Database, then it will include bibliographic, chemical, 
# crystal, experimental, refinement or atomic coordinate data resulting 
# from the CCDC's data processing and validation procedures.
#
#######################################################################

data_COFNOB
_symmetry_cell_setting           monoclinic
_symmetry_space_group_name_H-M   'P 21/c'
_symmetry_Int_Tables_number      14
_space_group_name_Hall           '-P 2ybc'
loop_
_symmetry_equiv_pos_site_id
_symmetry_equiv_pos_as_xyz
1 x,y,z
2 -x,1/2+y,1/2-z
3 -x,-y,-z
4 x,1/2-y,1/2+z
_cell_length_a                   9.892(8)
_cell_length_b                   12.351(10)
_cell_length_c                   8.964(8)
_cell_angle_alpha                90
_cell_angle_beta                 96.197(13)
_cell_angle_gamma                90
_cell_volume                     1088.79
loop_
_atom_site_label
_atom_site_type_symbol
_atom_site_fract_x
_atom_site_fract_y
_atom_site_fract_z
Co1 Co 0.0000 0.0000 0.0000
O1 O 0.02979(9) -0.01981(7) 0.22964(9)
O2 O -0.07242(11) -0.17596(7) 0.27727(10)
O3 O 0.10957(9) 0.15179(7) 0.02444(10)
H1 H 0.0960(16) 0.2044(11) 0.0799(16)
H2 H 0.1039(16) 0.1742(12) -0.0657(15)
N1 N -0.18973(10) 0.07454(8) 0.02611(11)
N2 N -0.50521(10) 0.38773(9) 0.03782(13)
C1 C -0.30178(13) 0.05211(10) -0.06664(14)
H3 H -0.3000 -0.0067 -0.1312
C2 C -0.42015(13) 0.11259(10) -0.07061(14)
H4 H -0.4960 0.0938 -0.1360
C3 C -0.42486(13) 0.20136(10) 0.02347(14)
C4 C -0.30960(13) 0.22284(10) 0.12328(14)
H5 H -0.3094 0.2803 0.1903
C5 C -0.19582(13) 0.15805(10) 0.12168(13)
H6 H -0.1202 0.1728 0.1896
C6 C -0.54764(14) 0.27517(11) 0.01555(17)
H7 H -0.6004 0.2675 -0.0815
H8 H -0.6048 0.2545 0.0922
C7 C -0.42911(13) 0.42639(11) -0.08309(15)
H9 H -0.4873 0.4250 -0.1774
H10 H -0.3524 0.3789 -0.0923
C8 C -0.62142(13) 0.45919(11) 0.05089(16)
H11 H -0.6717 0.4343 0.1314
H12 H -0.6819 0.4579 -0.0417
C9 C -0.01508(12) -0.08794(9) 0.31713(12)
C10 C 0.00478(12) -0.06066(9) 0.48395(12)
H13 H 0.0932 -0.0868 0.5261
H14 H -0.0636 -0.0984 0.5339
Co1_2 Co 0.0000 0.0000 1.0000
Co1_3 Co -1.0000 1.0000 0.0000
O1B O -0.02979(9) 0.01981(7) 0.77036(9)
O1B_2 O -0.02979(9) 0.01981(7) -0.22964(9)
O2B O 0.07242(11) 0.17596(7) 0.72273(10)
O3B O -0.10957(9) -0.15179(7) -0.02444(10)
H1B H -0.0960(16) -0.2044(11) -0.0799(16)
H2B H -0.1039(16) -0.1742(12) 0.0657(15)
N1B N -0.81027(10) 0.92546(8) -0.02611(11)
N1B_2 N 0.18973(10) -0.07454(8) -0.02611(11)
N2B N -0.49479(10) 0.61227(9) -0.03782(13)
C1B C -0.69822(13) 0.94789(10) 0.06664(14)
H3B H -0.7000 1.0067 0.1312
C2B C -0.57985(13) 0.88741(10) 0.07061(14)
H4B H -0.5040 0.9062 0.1360
C3B C -0.57514(13) 0.79864(10) -0.02347(14)
C4B C -0.69040(13) 0.77716(10) -0.12328(14)
H5B H -0.6906 0.7197 -0.1903
C5B C -0.80418(13) 0.84195(10) -0.12168(13)
H6B H -0.8798 0.8272 -0.1896
C6B C -0.45236(14) 0.72483(11) -0.01555(17)
H7B H -0.3996 0.7325 0.0815
H8B H -0.3952 0.7455 -0.0922
C7B C -0.57089(13) 0.57361(11) 0.08309(15)
H9B H -0.5127 0.5750 0.1774
H10B H -0.6476 0.6211 0.0923
C8B C -0.37858(13) 0.54081(11) -0.05089(16)
H11B H -0.3283 0.5657 -0.1314
H12B H -0.3181 0.5421 0.0417
C9B C 0.01508(12) 0.08794(9) 0.68287(12)
C10B C -0.00478(12) 0.06066(9) 0.51605(12)
H13B H -0.0932 0.0868 0.4739
H14B H 0.0636 0.0984 0.4661
loop_
_geom_bond_atom_site_label_1
_geom_bond_atom_site_label_2
_geom_bond_site_symmetry_1
_geom_bond_site_symmetry_2
Co1 O1 1_555 1_555
O1 C9 1_555 1_555
O2 C9 1_555 1_555
O3 Co1 1_555 1_555
H1 O3 1_555 1_555
H2 O3 1_555 1_555
N1 Co1 1_555 1_555
N2 C6 1_555 1_555
C1 N1 1_555 1_555
H3 C1 1_555 1_555
C2 C1 1_555 1_555
H4 C2 1_555 1_555
C3 C2 1_555 1_555
C4 C3 1_555 1_555
H5 C4 1_555 1_555
C5 N1 1_555 1_555
H6 C5 1_555 1_555
C6 C3 1_555 1_555
H7 C6 1_555 1_555
H8 C6 1_555 1_555
C7 N2 1_555 1_555
H9 C7 1_555 1_555
H10 C7 1_555 1_555
C8 N2 1_555 1_555
H11 C8 1_555 1_555
H12 C8 1_555 1_555
C9 C10 1_555 1_555
C10 H13 1_555 1_555
H14 C10 1_555 1_555
Co1_2 O1B 1_555 1_555
Co1_3 N1B 1_555 1_555
O1B C9B 1_555 1_555
O1B_2 Co1 1_555 1_555
O2B C9B 1_555 1_555
O3B Co1 1_555 1_555
H1B O3B 1_555 1_555
H2B O3B 1_555 1_555
N1B C1B 1_555 1_555
N1B_2 Co1 1_555 1_555
N2B C6B 1_555 1_555
C1B H3B 1_555 1_555
C2B C1B 1_555 1_555
H4B C2B 1_555 1_555
C3B C2B 1_555 1_555
C4B C3B 1_555 1_555
H5B C4B 1_555 1_555
C5B N1B 1_555 1_555
H6B C5B 1_555 1_555
C6B C3B 1_555 1_555
H7B C6B 1_555 1_555
H8B C6B 1_555 1_555
C7B C8 1_555 1_555
H9B C7B 1_555 1_555
H10B C7B 1_555 1_555
C8B C7 1_555 1_555
H11B C8B 1_555 1_555
H12B C8B 1_555 1_555
C9B C10B 1_555 1_555
C10B C10 1_555 1_555
H13B C10B 1_555 1_555
H14B C10B 1_555 1_555
C4 C5 1_555 1_555
N2B C7B 1_555 1_555
N2B C8B 1_555 1_555
C4B C5B 1_555 1_555

#END
