
#######################################################################
#
#                 Cambridge Crystallographic Data Centre
#                                CCDC 
#
#######################################################################
#
# If this CIF has been generated from an entry in the Cambridge 
# Structural Database, then it will include bibliographic, chemical, 
# crystal, experimental, refinement or atomic coordinate data resulting 
# from the CCDC's data processing and validation procedures.
#
#######################################################################

data_COFNUH
_symmetry_cell_setting           monoclinic
_symmetry_space_group_name_H-M   'P 21/c'
_symmetry_Int_Tables_number      14
_space_group_name_Hall           '-P 2ybc'
loop_
_symmetry_equiv_pos_site_id
_symmetry_equiv_pos_as_xyz
1 x,y,z
2 -x,1/2+y,1/2-z
3 -x,-y,-z
4 x,1/2-y,1/2+z
_cell_length_a                   9.88420(10)
_cell_length_b                   12.2451(2)
_cell_length_c                   8.95330(10)
_cell_angle_alpha                90
_cell_angle_beta                 93.0820(10)
_cell_angle_gamma                90
_cell_volume                     1082.08
loop_
_atom_site_label
_atom_site_type_symbol
_atom_site_fract_x
_atom_site_fract_y
_atom_site_fract_z
Ni1 Ni 0.0000 0.0000 0.0000
O1 O 0.01911(16) -0.01280(11) 0.22704(17)
O2 O -0.06346(17) -0.17834(12) 0.27810(16)
O3 O 0.10597(17) 0.15039(13) 0.01741(19)
H1 H 0.095(2) 0.198(2) 0.064(3)
H2 H 0.096(2) 0.172(2) -0.073(3)
N1 N -0.18552(17) 0.07440(14) 0.0205(2)
N2 N -0.50505(17) 0.38675(16) 0.0351(2)
C1 C -0.2933(2) 0.05095(19) -0.0716(3)
H3 H -0.2877 -0.0083 -0.1359
C2 C -0.4114(2) 0.11035(18) -0.0754(3)
H4 H -0.4840 0.0903 -0.1400
C3 C -0.4217(2) 0.20012(18) 0.0172(3)
C4 C -0.3112(2) 0.22219(18) 0.1151(3)
H5 H -0.3144 0.2806 0.1811
C5 C -0.1973(2) 0.15795(17) 0.1146(3)
H6 H -0.1255 0.1733 0.1826
C6 C -0.5448(3) 0.27330(19) 0.0104(3)
H7 H -0.5924 0.2663 -0.0867
H8 H -0.6058 0.2510 0.0860
C7 C -0.6220(2) 0.4574(2) 0.0525(3)
H9 H -0.6741 0.4309 0.1338
H10 H -0.6799 0.4565 -0.0384
C8 C -0.4253(2) 0.42777(18) -0.0854(3)
H11 H -0.4798 0.4266 -0.1787
H12 H -0.3474 0.3808 -0.0964
C9 C -0.0155(2) -0.08601(17) 0.3163(2)
C10 C 0.0035(2) -0.06064(17) 0.4817(2)
H13 H 0.0907 -0.0887 0.5187
H14 H -0.0659 -0.0986 0.5342
Ni1_2 Ni 0.0000 0.0000 1.0000
Ni1_3 Ni -1.0000 1.0000 0.0000
O1B O -0.01911(16) 0.01280(11) 0.77296(17)
O1B_2 O -0.01911(16) 0.01280(11) -0.22704(17)
O2B O 0.06346(17) 0.17834(12) 0.72190(16)
O3B O -0.10597(17) -0.15039(13) -0.01741(19)
H1B H -0.095(2) -0.198(2) -0.064(3)
H2B H -0.096(2) -0.172(2) 0.073(3)
N1B N -0.81448(17) 0.92560(14) -0.0205(2)
N1B_2 N 0.18552(17) -0.07440(14) -0.0205(2)
N2B N -0.49495(17) 0.61325(16) -0.0351(2)
C1B C -0.7067(2) 0.94905(19) 0.0716(3)
H3B H -0.7123 1.0083 0.1359
C2B C -0.5886(2) 0.88965(18) 0.0754(3)
H4B H -0.5160 0.9097 0.1400
C3B C -0.5783(2) 0.79988(18) -0.0172(3)
C4B C -0.6888(2) 0.77781(18) -0.1151(3)
H5B H -0.6856 0.7194 -0.1811
C5B C -0.8027(2) 0.84205(17) -0.1146(3)
H6B H -0.8745 0.8267 -0.1826
C6B C -0.4552(3) 0.72670(19) -0.0104(3)
H7B H -0.4076 0.7337 0.0867
H8B H -0.3942 0.7490 -0.0860
C7B C -0.3780(2) 0.5426(2) -0.0525(3)
H9B H -0.3259 0.5691 -0.1338
H10B H -0.3201 0.5435 0.0384
C8B C -0.5747(2) 0.57223(18) 0.0854(3)
H11B H -0.5202 0.5734 0.1787
H12B H -0.6526 0.6192 0.0964
C9B C 0.0155(2) 0.08601(17) 0.6837(2)
C10B C -0.0035(2) 0.06064(17) 0.5183(2)
H13B H -0.0907 0.0887 0.4813
H14B H 0.0659 0.0986 0.4658
loop_
_geom_bond_atom_site_label_1
_geom_bond_atom_site_label_2
_geom_bond_site_symmetry_1
_geom_bond_site_symmetry_2
Ni1 O1 1_555 1_555
O1 C9 1_555 1_555
O2 C9 1_555 1_555
O3 Ni1 1_555 1_555
H1 O3 1_555 1_555
H2 O3 1_555 1_555
N1 Ni1 1_555 1_555
N2 C6 1_555 1_555
C1 N1 1_555 1_555
H3 C1 1_555 1_555
C2 C1 1_555 1_555
H4 C2 1_555 1_555
C3 C2 1_555 1_555
C4 C3 1_555 1_555
H5 C4 1_555 1_555
C5 N1 1_555 1_555
H6 C5 1_555 1_555
C6 C3 1_555 1_555
H7 C6 1_555 1_555
H8 C6 1_555 1_555
C7 N2 1_555 1_555
H9 C7 1_555 1_555
H10 C7 1_555 1_555
C8 N2 1_555 1_555
H11 C8 1_555 1_555
H12 C8 1_555 1_555
C9 C10 1_555 1_555
C10 H13 1_555 1_555
H14 C10 1_555 1_555
Ni1_2 O1B 1_555 1_555
Ni1_3 N1B 1_555 1_555
O1B C9B 1_555 1_555
O1B_2 Ni1 1_555 1_555
O2B C9B 1_555 1_555
O3B Ni1 1_555 1_555
H1B O3B 1_555 1_555
H2B O3B 1_555 1_555
N1B C1B 1_555 1_555
N1B_2 Ni1 1_555 1_555
N2B C6B 1_555 1_555
C1B H3B 1_555 1_555
C2B C1B 1_555 1_555
H4B C2B 1_555 1_555
C3B C2B 1_555 1_555
C4B C3B 1_555 1_555
H5B C4B 1_555 1_555
C5B N1B 1_555 1_555
H6B C5B 1_555 1_555
C6B C3B 1_555 1_555
H7B C6B 1_555 1_555
H8B C6B 1_555 1_555
C7B C8 1_555 1_555
H9B C7B 1_555 1_555
H10B C7B 1_555 1_555
C8B C7 1_555 1_555
H11B C8B 1_555 1_555
H12B C8B 1_555 1_555
C9B C10B 1_555 1_555
C10B C10 1_555 1_555
H13B C10B 1_555 1_555
H14B C10B 1_555 1_555
C4 C5 1_555 1_555
N2B C7B 1_555 1_555
N2B C8B 1_555 1_555
C4B C5B 1_555 1_555

#END
