
#######################################################################
#
#                 Cambridge Crystallographic Data Centre
#                                CCDC 
#
#######################################################################
#
# If this CIF has been generated from an entry in the Cambridge 
# Structural Database, then it will include bibliographic, chemical, 
# crystal, experimental, refinement or atomic coordinate data resulting 
# from the CCDC's data processing and validation procedures.
#
#######################################################################

data_COFPAP
_symmetry_cell_setting           monoclinic
_symmetry_space_group_name_H-M   'P 21/c'
_symmetry_Int_Tables_number      14
_space_group_name_Hall           '-P 2ybc'
loop_
_symmetry_equiv_pos_site_id
_symmetry_equiv_pos_as_xyz
1 x,y,z
2 -x,1/2+y,1/2-z
3 -x,-y,-z
4 x,1/2-y,1/2+z
_cell_length_a                   9.8505(6)
_cell_length_b                   12.6846(7)
_cell_length_c                   8.7731(5)
_cell_angle_alpha                90.00
_cell_angle_beta                 95.127(3)
_cell_angle_gamma                90.00
_cell_volume                     1091.81
loop_
_atom_site_label
_atom_site_type_symbol
_atom_site_fract_x
_atom_site_fract_y
_atom_site_fract_z
Cu1 Cu 0.0000 0.0000 0.5000
O1 O 0.00845(12) 0.00150(6) 0.72288(11)
O2 O 0.05487(12) 0.17087(7) 0.77636(11)
O3 O 0.14432(11) 0.16663(8) 0.48891(12)
N1 N -0.17612(11) 0.08025(7) 0.48699(12)
N2 N -0.49758(11) 0.38896(9) 0.47225(15)
C1 C -0.18767(14) 0.17033(9) 0.40835(15)
H1 H -0.1179 0.1895 0.3492
C2 C -0.29901(14) 0.23629(10) 0.41125(16)
H2 H -0.3026 0.2989 0.3558
C3 C -0.40551(14) 0.20905(9) 0.49699(16)
C4 C -0.39463(15) 0.11356(10) 0.57469(17)
H3 H -0.4646 0.0912 0.6314
C5 C -0.28022(15) 0.05213(10) 0.56769(16)
H4 H -0.2746 -0.0114 0.6209
C6 C -0.52805(16) 0.27922(11) 0.5048(2)
H5 H -0.6008 0.2548 0.4316
H6 H -0.5597 0.2744 0.6061
C7 C -0.41212(15) 0.43752(11) 0.59734(18)
H7 H -0.3289 0.3970 0.6171
H8 H -0.4597 0.4368 0.6894
C8 C -0.62269(15) 0.45062(10) 0.4412(2)
H9 H -0.6743 0.4498 0.5303
H10 H -0.6787 0.4195 0.3563
C9 C 0.02390(13) 0.07950(9) 0.81299(14)
C10 C -0.00012(13) 0.05793(10) 0.97862(13)
H11 H 0.0700 0.0936 1.0441
H12 H -0.0872 0.0881 0.9988
H13 H 0.1190(17) 0.2164(11) 0.4347(18)
H14 H 0.123(2) 0.1808(17) 0.5796(18)
Cu1_2 Cu 0.0000 0.0000 1.5000
Cu1_3 Cu -1.0000 1.0000 0.5000
O1B O -0.00845(12) -0.00150(6) 1.27712(11)
O1B_2 O -0.00845(12) -0.00150(6) 0.27712(11)
O2B O -0.05487(12) -0.17087(7) 1.22364(11)
O3B O -0.14432(11) -0.16663(8) 0.51109(12)
N1B N -0.82388(11) 0.91975(7) 0.51301(12)
N1B_2 N 0.17612(11) -0.08025(7) 0.51301(12)
N2B N -0.50242(11) 0.61104(9) 0.52775(15)
C1B C -0.81233(14) 0.82967(9) 0.59165(15)
H1B H -0.8821 0.8105 0.6508
C2B C -0.70099(14) 0.76371(10) 0.58875(16)
H2B H -0.6974 0.7011 0.6442
C3B C -0.59449(14) 0.79095(9) 0.50301(16)
C4B C -0.60537(15) 0.88644(10) 0.42531(17)
H3B H -0.5354 0.9088 0.3686
C5B C -0.71978(15) 0.94787(10) 0.43231(16)
H4B H -0.7254 1.0114 0.3791
C6B C -0.47195(16) 0.72078(11) 0.4952(2)
H5B H -0.3992 0.7452 0.5684
H6B H -0.4403 0.7256 0.3939
C7B C -0.58788(15) 0.56248(11) 0.40266(18)
H7B H -0.6711 0.6030 0.3829
H8B H -0.5403 0.5632 0.3106
C8B C -0.37731(15) 0.54938(10) 0.5588(2)
H9B H -0.3257 0.5502 0.4697
H10B H -0.3213 0.5805 0.6437
C9B C -0.02390(13) -0.07950(9) 1.18701(14)
C10B C 0.00012(13) -0.05793(10) 1.02138(13)
H11B H -0.0700 -0.0936 0.9559
H12B H 0.0872 -0.0881 1.0012
H13B H -0.1190(17) -0.2164(11) 0.5653(18)
H14B H -0.123(2) -0.1808(17) 0.4204(18)
loop_
_geom_bond_atom_site_label_1
_geom_bond_atom_site_label_2
_geom_bond_site_symmetry_1
_geom_bond_site_symmetry_2
Cu1 O1 1_555 1_555
O1 C9 1_555 1_555
O2 C9 1_555 1_555
O3 Cu1 1_555 1_555
N1 Cu1 1_555 1_555
N2 C6 1_555 1_555
C1 N1 1_555 1_555
H1 C1 1_555 1_555
C2 C1 1_555 1_555
H2 C2 1_555 1_555
C3 C2 1_555 1_555
C4 C3 1_555 1_555
H3 C4 1_555 1_555
C5 N1 1_555 1_555
H4 C5 1_555 1_555
C6 C3 1_555 1_555
H5 C6 1_555 1_555
H6 C6 1_555 1_555
C7 N2 1_555 1_555
H7 C7 1_555 1_555
H8 C7 1_555 1_555
C8 N2 1_555 1_555
H9 C8 1_555 1_555
H10 C8 1_555 1_555
C9 C10 1_555 1_555
C10 H11 1_555 1_555
H12 C10 1_555 1_555
H13 O3 1_555 1_555
H14 O3 1_555 1_555
Cu1_2 O1B 1_555 1_555
Cu1_3 N1B 1_555 1_555
O1B C9B 1_555 1_555
O1B_2 Cu1 1_555 1_555
O2B C9B 1_555 1_555
O3B Cu1 1_555 1_555
N1B C1B 1_555 1_555
N1B_2 Cu1 1_555 1_555
N2B C6B 1_555 1_555
C1B H1B 1_555 1_555
C2B C1B 1_555 1_555
H2B C2B 1_555 1_555
C3B C2B 1_555 1_555
C4B C3B 1_555 1_555
H3B C4B 1_555 1_555
C5B N1B 1_555 1_555
H4B C5B 1_555 1_555
C6B C3B 1_555 1_555
H5B C6B 1_555 1_555
H6B C6B 1_555 1_555
C7B C8 1_555 1_555
H7B C7B 1_555 1_555
H8B C7B 1_555 1_555
C8B C7 1_555 1_555
H9B C8B 1_555 1_555
H10B C8B 1_555 1_555
C9B C10B 1_555 1_555
C10B C10 1_555 1_555
H11B C10B 1_555 1_555
H12B C10B 1_555 1_555
H13B O3B 1_555 1_555
H14B O3B 1_555 1_555
C4 C5 1_555 1_555
N2B C7B 1_555 1_555
N2B C8B 1_555 1_555
C4B C5B 1_555 1_555

#END
