
#######################################################################
#
#                 Cambridge Crystallographic Data Centre
#                                CCDC 
#
#######################################################################
#
# If this CIF has been generated from an entry in the Cambridge 
# Structural Database, then it will include bibliographic, chemical, 
# crystal, experimental, refinement or atomic coordinate data resulting 
# from the CCDC's data processing and validation procedures.
#
#######################################################################

data_COFQOF
_symmetry_cell_setting           monoclinic
_symmetry_space_group_name_H-M   'P 21/c'
_symmetry_Int_Tables_number      14
_space_group_name_Hall           '-P 2ybc'
loop_
_symmetry_equiv_pos_site_id
_symmetry_equiv_pos_as_xyz
1 x,y,z
2 -x,1/2+y,1/2-z
3 -x,-y,-z
4 x,1/2-y,1/2+z
_cell_length_a                   14.337(3)
_cell_length_b                   29.013(6)
_cell_length_c                   10.568(2)
_cell_angle_alpha                90
_cell_angle_beta                 100.72(3)
_cell_angle_gamma                90
_cell_volume                     4319.14
loop_
_atom_site_label
_atom_site_type_symbol
_atom_site_fract_x
_atom_site_fract_y
_atom_site_fract_z
Ag1 Ag 0.61228(4) 0.367299(18) 1.03857(5)
Ag2 Ag 0.45749(4) 0.441692(19) 0.82208(6)
Ag3 Ag 0.38707(4) 0.333194(18) 0.90759(5)
N1 N 0.6611(4) 0.4258(2) 0.9575(6)
N2 N 0.5995(4) 0.45674(19) 0.8896(6)
N3 N 0.3174(4) 0.42085(19) 0.7633(5)
N4 N 0.2890(4) 0.37998(19) 0.8090(5)
N5 N 0.4810(4) 0.28812(18) 1.0215(5)
N6 N 0.5606(4) 0.30525(18) 1.0995(5)
C1 C 0.7480(5) 0.4443(3) 0.9804(7)
C2 C 0.7422(5) 0.4883(3) 0.9293(7)
C3 C 0.6478(5) 0.4948(2) 0.8694(7)
C4 C 0.2408(5) 0.4417(2) 0.6930(7)
C5 C 0.1635(4) 0.4139(2) 0.6914(6)
C6 C 0.1961(4) 0.3754(2) 0.7668(6)
C7 C 0.4710(4) 0.2437(2) 1.0533(6)
C8 C 0.5454(5) 0.2326(2) 1.1535(6)
C9 C 0.6002(4) 0.2722(2) 1.1813(6)
C10 C 0.2491(5) 0.4866(2) 0.6299(7)
C11 C 0.1456(4) 0.3347(2) 0.8014(6)
C12 C 0.0802(5) 0.3105(3) 0.7093(7)
H1 H 0.0655 0.3212 0.6249
C13 C 0.3922(5) 0.2169(2) 0.9792(6)
C14 C 0.6842(4) 0.2821(2) 1.2819(6)
C15 C 0.7580(5) 0.3075(2) 1.2547(7)
H2 H 0.7588 0.3158 1.1699
C16 C 0.6039(5) 0.5336(2) 0.7904(7)
C17 C 0.6859(5) 0.2700(3) 1.4083(6)
H3 H 0.6361 0.2528 1.4294
C18 C 0.7613(6) 0.2831(3) 1.5050(7)
H4 H 0.7624 0.2739 1.5897
C19 C 0.8330(5) 0.3091(3) 1.4760(8)
H5 H 0.8823 0.3186 1.5407
C20 C 0.3669(5) 0.2223(3) 0.8449(7)
H6 H 0.4010 0.2427 0.8031
C21 C 0.3409(5) 0.1862(3) 1.0381(7)
H7 H 0.3552 0.1824 1.1270
C22 C 0.1663(5) 0.3176(3) 0.9279(7)
H8 H 0.2082 0.3334 0.9908
C23 C 0.0381(6) 0.2710(3) 0.7441(8)
H9 H -0.0052 0.2551 0.6831
C24 C 0.8307(5) 0.4164(3) 1.0380(7)
C25 C 0.8321(5) 0.3211(3) 1.3516(8)
H10 H 0.8816 0.3385 1.3311
C26 C 0.1247(6) 0.2772(3) 0.9590(8)
H11 H 0.1405 0.2651 1.0416
C27 C 0.0595(6) 0.2552(3) 0.8667(9)
H12 H 0.0294 0.2288 0.8891
C28 C 0.2162(6) 0.4920(3) 0.4989(8)
H13 H 0.1885 0.4672 0.4502
C29 C 0.5972(7) 0.5767(3) 0.8408(8)
H14 H 0.6196 0.5815 0.9282
C30 C 0.8958(5) 0.4306(3) 1.1452(8)
H15 H 0.8869 0.4583 1.1857
C31 C 0.9744(6) 0.4032(4) 1.1919(10)
H16 H 1.0181 0.4130 1.2632
C32 C 0.8444(6) 0.3746(3) 0.9813(10)
H17 H 0.8004 0.3644 0.9108
C33 C 0.9885(7) 0.3622(5) 1.1347(12)
H18 H 1.0414 0.3443 1.1672
C34 C 0.9245(7) 0.3474(4) 1.0292(14)
H19 H 0.9340 0.3196 0.9897
C35 C 0.5582(8) 0.6131(3) 0.7655(10)
H20 H 0.5538 0.6420 0.8022
C36 C 0.5259(7) 0.6068(4) 0.6370(11)
H21 H 0.4980 0.6310 0.5861
C37 C 0.5344(9) 0.5652(4) 0.5843(10)
H22 H 0.5153 0.5611 0.4960
C38 C 0.5715(8) 0.5287(3) 0.6606(9)
H23 H 0.5746 0.4999 0.6231
C39 C 0.2625(8) 0.5705(3) 0.5109(13)
H24 H 0.2662 0.5989 0.4714
C40 C 0.2909(7) 0.5236(3) 0.7000(9)
H25 H 0.3155 0.5200 0.7872
C41 C 0.2968(8) 0.5657(3) 0.6429(12)
H26 H 0.3232 0.5908 0.6915
C42 C 0.2241(7) 0.5340(3) 0.4401(10)
H27 H 0.2029 0.5372 0.3519
C43 C 0.2675(6) 0.1608(3) 0.9654(10)
H28 H 0.2341 0.1396 1.0058
C44 C 0.2441(7) 0.1669(4) 0.8339(11)
H29 H 0.1952 0.1498 0.7855
C45 C 0.2935(7) 0.1983(3) 0.7749(8)
H30 H 0.2767 0.2032 0.6866
I1 I 0.85300(4) 0.53386(2) 0.92753(7)
I2 I 0.57924(4) 0.166485(16) 1.22643(5)
I3 I 0.02361(4) 0.43084(2) 0.61471(7)
Ag1C Ag 0.61228(4) 0.132701(18) 1.53857(5)
I2C I 0.57924(4) 0.333515(16) 0.72643(5)
loop_
_geom_bond_atom_site_label_1
_geom_bond_atom_site_label_2
_geom_bond_site_symmetry_1
_geom_bond_site_symmetry_2
Ag1 N1 1_555 1_555
Ag2 N2 1_555 1_555
Ag3 N4 1_555 1_555
N1 N2 1_555 1_555
N2 C3 1_555 1_555
N3 Ag2 1_555 1_555
N4 N3 1_555 1_555
N5 Ag3 1_555 1_555
N6 Ag1 1_555 1_555
C1 N1 1_555 1_555
C2 C1 1_555 1_555
C3 C2 1_555 1_555
C4 N3 1_555 1_555
C5 C4 1_555 1_555
C6 N4 1_555 1_555
C7 N5 1_555 1_555
C8 C7 1_555 1_555
C9 N6 1_555 1_555
C10 C4 1_555 1_555
C11 C6 1_555 1_555
C12 C11 1_555 1_555
H1 C12 1_555 1_555
C13 C7 1_555 1_555
C14 C9 1_555 1_555
C15 C14 1_555 1_555
H2 C15 1_555 1_555
C16 C3 1_555 1_555
C17 C14 1_555 1_555
H3 C17 1_555 1_555
C18 C17 1_555 1_555
H4 C18 1_555 1_555
C19 C18 1_555 1_555
H5 C19 1_555 1_555
C20 C13 1_555 1_555
H6 C20 1_555 1_555
C21 C13 1_555 1_555
H7 C21 1_555 1_555
C22 C11 1_555 1_555
H8 C22 1_555 1_555
C23 C12 1_555 1_555
H9 C23 1_555 1_555
C24 C1 1_555 1_555
C25 C15 1_555 1_555
H10 C25 1_555 1_555
C26 C22 1_555 1_555
H11 C26 1_555 1_555
C27 C23 1_555 1_555
H12 C27 1_555 1_555
C28 C10 1_555 1_555
H13 C28 1_555 1_555
C29 C16 1_555 1_555
H14 C29 1_555 1_555
C30 C24 1_555 1_555
H15 C30 1_555 1_555
C31 C30 1_555 1_555
H16 C31 1_555 1_555
C32 C24 1_555 1_555
H17 C32 1_555 1_555
C33 C31 1_555 1_555
H18 C33 1_555 1_555
C34 C32 1_555 1_555
H19 C34 1_555 1_555
C35 C29 1_555 1_555
H20 C35 1_555 1_555
C36 C35 1_555 1_555
H21 C36 1_555 1_555
C37 C36 1_555 1_555
H22 C37 1_555 1_555
C38 C16 1_555 1_555
H23 C38 1_555 1_555
C39 H24 1_555 1_555
C40 C10 1_555 1_555
H25 C40 1_555 1_555
C41 C39 1_555 1_555
H26 C41 1_555 1_555
C42 C28 1_555 1_555
H27 C42 1_555 1_555
C43 C21 1_555 1_555
H28 C43 1_555 1_555
C44 C43 1_555 1_555
H29 C44 1_555 1_555
C45 C20 1_555 1_555
H30 C45 1_555 1_555
I1 C2 1_555 1_555
I2 C8 1_555 1_555
I3 C5 1_555 1_555
Ag1C I2 1_555 1_555
I2C Ag1 1_555 1_555
N5 N6 1_555 1_555
C5 C6 1_555 1_555
C8 C9 1_555 1_555
C19 C25 1_555 1_555
C26 C27 1_555 1_555
C33 C34 1_555 1_555
C37 C38 1_555 1_555
C39 C42 1_555 1_555
C40 C41 1_555 1_555
C44 C45 1_555 1_555

#END
