
#######################################################################
#
#                 Cambridge Crystallographic Data Centre
#                                CCDC 
#
#######################################################################
#
# If this CIF has been generated from an entry in the Cambridge 
# Structural Database, then it will include bibliographic, chemical, 
# crystal, experimental, refinement or atomic coordinate data resulting 
# from the CCDC's data processing and validation procedures.
#
#######################################################################

data_COFSIB
_symmetry_cell_setting           triclinic
_symmetry_space_group_name_H-M   'P -1'
_symmetry_Int_Tables_number      2
_space_group_name_Hall           '-P 1'
loop_
_symmetry_equiv_pos_site_id
_symmetry_equiv_pos_as_xyz
1 x,y,z
2 -x,-y,-z
_cell_length_a                   9.4261(2)
_cell_length_b                   13.4558(2)
_cell_length_c                   13.9409(2)
_cell_angle_alpha                106.5700(10)
_cell_angle_beta                 106.7170(10)
_cell_angle_gamma                98.3020(10)
_cell_volume                     1573
loop_
_atom_site_label
_atom_site_type_symbol
_atom_site_fract_x
_atom_site_fract_y
_atom_site_fract_z
C1 C 0.6761(2) 0.12626(17) 0.63325(16)
H1 H 0.7114 0.1309 0.7043
C2 C 0.7020(2) 0.05145(18) 0.55011(17)
H2 H 0.7566 -0.0001 0.5560
C3 C 0.6297(2) 0.07014(18) 0.45825(17)
H3 H 0.6256 0.0329 0.3897
C4 C 0.5631(2) 0.15626(16) 0.48734(15)
C5 C 0.4788(2) 0.20407(17) 0.42117(15)
C6 C 0.4237(2) 0.29234(18) 0.45587(16)
C7 C 0.3409(3) 0.3463(2) 0.39222(18)
H4 H 0.3101 0.3267 0.3184
C8 C 0.3159(3) 0.4312(2) 0.4597(2)
H5 H 0.2643 0.4806 0.4411
C9 C 0.3835(3) 0.42993(19) 0.56383(19)
H6 H 0.3838 0.4804 0.6255
C10 C 0.4478(2) 0.15595(18) 0.30442(15)
C11 C 0.5648(3) 0.1597(2) 0.26242(18)
H7 H 0.6658 0.1909 0.3072
C12 C 0.5292(3) 0.1163(2) 0.15337(18)
H8 H 0.6058 0.1181 0.1237
C13 C 0.3784(3) 0.07046(19) 0.08905(16)
H9 H 0.3554 0.0426 0.0156
C14 C 0.2991(2) 0.10721(17) 0.23339(15)
H10 H 0.2203 0.1043 0.2609
C15 C 0.8316(2) 0.37764(18) 0.65002(16)
H11 H 0.8081 0.3178 0.5894
C16 C 0.9700(2) 0.45793(19) 0.69520(18)
H12 H 1.0510 0.4607 0.6698
C17 C 0.9617(2) 0.53077(18) 0.78367(17)
H13 H 1.0368 0.5920 0.8305
C18 C 0.8160(2) 0.49470(16) 0.79020(15)
C19 C 0.7516(2) 0.54705(16) 0.86172(15)
C20 C 0.6004(2) 0.51683(17) 0.85480(16)
C21 C 0.5222(3) 0.57602(19) 0.91420(18)
H14 H 0.5644 0.6411 0.9702
C22 C 0.3735(3) 0.5195(2) 0.8736(2)
H15 H 0.2946 0.5391 0.8962
C23 C 0.3617(2) 0.42661(19) 0.79172(19)
H16 H 0.2720 0.3735 0.7516
C24 C 0.8491(2) 0.64486(17) 0.95395(15)
C25 C 0.9064(3) 0.63885(18) 1.05522(17)
H17 H 0.8912 0.5731 1.0651
C26 C 0.9859(3) 0.73107(19) 1.14102(17)
H18 H 1.0263 0.7285 1.2092
C27 C 1.0042(2) 0.82707(18) 1.12359(16)
H19 H 1.0530 0.8897 1.1820
C28 C 0.8800(2) 0.74379(17) 0.94339(16)
H20 H 0.8473 0.7482 0.8754
C29 C 0.4244(3) 0.17021(19) 0.80858(18)
H21 H 0.3881 0.1328 0.8469
C30 C 0.3223(3) 0.16608(17) 0.71203(18)
C31 C 0.1621(3) 0.0970(2) 0.6701(2)
H22 H 0.0909 0.1413 0.6683
H23 H 0.1520 0.0570 0.7159
H24 H 0.1411 0.0484 0.5993
C32 C 0.5771(3) 0.22664(17) 0.85157(16)
C33 C 0.6766(3) 0.2241(2) 0.95639(18)
H25 H 0.7039 0.1568 0.9454
H26 H 0.6219 0.2329 1.0054
H27 H 0.7677 0.2811 0.9852
N1 N 0.59450(19) 0.18985(14) 0.59722(13)
N2 N 0.44669(19) 0.34754(14) 0.56253(13)
N3 N 0.26353(19) 0.06415(14) 0.12733(13)
N4 N 0.73857(18) 0.39887(14) 0.70584(13)
N5 N 0.49618(19) 0.42401(14) 0.77860(13)
N6 N 0.9552(2) 0.83411(14) 1.02690(13)
O1 O 0.64499(16) 0.28072(12) 0.80906(11)
O2 O 0.35114(16) 0.21755(12) 0.65336(12)
Cl1 Cl -0.09046(6) 0.08481(5) 0.15281(4)
Co1 Co 0.54463(3) 0.30941(2) 0.683645(19)
Cd1 Cd 0.0000 0.0000 0.0000
C1A C -0.6761(2) -0.12626(17) -0.63325(16)
H1A H -0.7114 -0.1309 -0.7043
C2A C -0.7020(2) -0.05145(18) -0.55011(17)
H2A H -0.7566 0.0001 -0.5560
C3A C -0.6297(2) -0.07014(18) -0.45825(17)
H3A H -0.6256 -0.0329 -0.3897
C4A C -0.5631(2) -0.15626(16) -0.48734(15)
C5A C -0.4788(2) -0.20407(17) -0.42117(15)
C6A C -0.4237(2) -0.29234(18) -0.45587(16)
C7A C -0.3409(3) -0.3463(2) -0.39222(18)
H4A H -0.3101 -0.3267 -0.3184
C8A C -0.3159(3) -0.4312(2) -0.4597(2)
H5A H -0.2643 -0.4806 -0.4411
C9A C -0.3835(3) -0.42993(19) -0.56383(19)
H6A H -0.3838 -0.4804 -0.6255
C10A C -0.4478(2) -0.15595(18) -0.30442(15)
C11A C -0.5648(3) -0.1597(2) -0.26242(18)
H7A H -0.6658 -0.1909 -0.3072
C12A C -0.5292(3) -0.1163(2) -0.15337(18)
H8A H -0.6058 -0.1181 -0.1237
C13A C -0.3784(3) -0.07046(19) -0.08905(16)
H9A H -0.3554 -0.0426 -0.0156
C14A C -0.2991(2) -0.10721(17) -0.23339(15)
H10A H -0.2203 -0.1043 -0.2609
C15A C -0.8316(2) -0.37764(18) -0.65002(16)
H11A H -0.8081 -0.3178 -0.5894
C16A C -0.9700(2) -0.45793(19) -0.69520(18)
H12A H -1.0510 -0.4607 -0.6698
C17A C -0.9617(2) -0.53077(18) -0.78367(17)
H13A H -1.0368 -0.5920 -0.8305
C18A C -0.8160(2) -0.49470(16) -0.79020(15)
C19A C -0.7516(2) -0.54705(16) -0.86172(15)
C20A C -0.6004(2) -0.51683(17) -0.85480(16)
C21A C -0.5222(3) -0.57602(19) -0.91420(18)
H14A H -0.5644 -0.6411 -0.9702
C22A C -0.3735(3) -0.5195(2) -0.8736(2)
H15A H -0.2946 -0.5391 -0.8962
C23A C -0.3617(2) -0.42661(19) -0.79172(19)
H16A H -0.2720 -0.3735 -0.7516
C24A C -0.8491(2) -0.64486(17) -0.95395(15)
C25A C -0.9064(3) -0.63885(18) -1.05522(17)
H17A H -0.8912 -0.5731 -1.0651
C26A C -0.9859(3) -0.73107(19) -1.14102(17)
H18A H -1.0263 -0.7285 -1.2092
C27A C -1.0042(2) -0.82707(18) -1.12359(16)
H19A H -1.0530 -0.8897 -1.1820
C28A C -0.8800(2) -0.74379(17) -0.94339(16)
H20A H -0.8473 -0.7482 -0.8754
C29A C -0.4244(3) -0.17021(19) -0.80858(18)
H21A H -0.3881 -0.1328 -0.8469
C30A C -0.3223(3) -0.16608(17) -0.71203(18)
C31A C -0.1621(3) -0.0970(2) -0.6701(2)
H22A H -0.0909 -0.1413 -0.6683
H23A H -0.1520 -0.0570 -0.7159
H24A H -0.1411 -0.0484 -0.5993
C32A C -0.5771(3) -0.22664(17) -0.85157(16)
C33A C -0.6766(3) -0.2241(2) -0.95639(18)
H25A H -0.7039 -0.1568 -0.9454
H26A H -0.6219 -0.2329 -1.0054
H27A H -0.7677 -0.2811 -0.9852
N1A N -0.59450(19) -0.18985(14) -0.59722(13)
N2A N -0.44669(19) -0.34754(14) -0.56253(13)
N3A N -0.26353(19) -0.06415(14) -0.12733(13)
N4A N -0.73857(18) -0.39887(14) -0.70584(13)
N5A N -0.49618(19) -0.42401(14) -0.77860(13)
N6A N -0.9552(2) -0.83411(14) -1.02690(13)
O1A O -0.64499(16) -0.28072(12) -0.80906(11)
O2A O -0.35114(16) -0.21755(12) -0.65336(12)
Cl1A Cl 0.09046(6) -0.08481(5) -0.15281(4)
Co1A Co -0.54463(3) -0.30941(2) -0.683645(19)
N6_2 N -0.0448(2) -0.16589(14) 0.02690(13)
N6A_2 N 0.0448(2) 0.16589(14) -0.02690(13)
Cd1_2 Cd -1.0000 -1.0000 -1.0000
Cd1_3 Cd 1.0000 1.0000 1.0000
C34 C 1.0187(4) 0.2171(4) 0.4541(3)
H28 H 1.0759 0.1823 0.4139
H29 H 0.9507 0.1645 0.4650
H30 H 1.0878 0.2665 0.5219
O3 O 0.9363(6) 0.2710(9) 0.3995(9)
H31 H 0.9941 0.3142 0.3879
loop_
_geom_bond_atom_site_label_1
_geom_bond_atom_site_label_2
_geom_bond_site_symmetry_1
_geom_bond_site_symmetry_2
C1 H1 1_555 1_555
C2 C1 1_555 1_555
H2 C2 1_555 1_555
C3 C2 1_555 1_555
H3 C3 1_555 1_555
C4 C3 1_555 1_555
C5 C4 1_555 1_555
C6 C5 1_555 1_555
C7 C6 1_555 1_555
H4 C7 1_555 1_555
C8 C7 1_555 1_555
H5 C8 1_555 1_555
C9 C8 1_555 1_555
H6 C9 1_555 1_555
C10 C5 1_555 1_555
C11 C10 1_555 1_555
H7 C11 1_555 1_555
C12 C11 1_555 1_555
H8 C12 1_555 1_555
C13 C12 1_555 1_555
H9 C13 1_555 1_555
C14 C10 1_555 1_555
H10 C14 1_555 1_555
C15 H11 1_555 1_555
C16 C15 1_555 1_555
H12 C16 1_555 1_555
C17 C16 1_555 1_555
H13 C17 1_555 1_555
C18 C17 1_555 1_555
C19 C18 1_555 1_555
C20 C19 1_555 1_555
C21 C20 1_555 1_555
H14 C21 1_555 1_555
C22 C21 1_555 1_555
H15 C22 1_555 1_555
C23 C22 1_555 1_555
H16 C23 1_555 1_555
C24 C19 1_555 1_555
C25 C24 1_555 1_555
H17 C25 1_555 1_555
C26 C25 1_555 1_555
H18 C26 1_555 1_555
C27 C26 1_555 1_555
H19 C27 1_555 1_555
C28 C24 1_555 1_555
H20 C28 1_555 1_555
C29 H21 1_555 1_555
C30 C29 1_555 1_555
C31 C30 1_555 1_555
H22 C31 1_555 1_555
H23 C31 1_555 1_555
H24 C31 1_555 1_555
C32 C29 1_555 1_555
C33 C32 1_555 1_555
H25 C33 1_555 1_555
H26 C33 1_555 1_555
H27 C33 1_555 1_555
N1 C1 1_555 1_555
N2 C6 1_555 1_555
N3 C13 1_555 1_555
N4 C15 1_555 1_555
N5 C20 1_555 1_555
N6 C27 1_555 1_555
O1 C32 1_555 1_555
O2 C30 1_555 1_555
Cl1 Cd1 1_555 1_555
Co1 N1 1_555 1_555
Cd1 N3 1_555 1_555
C34 H28 1_555 1_555
H29 C34 1_555 1_555
H30 C34 1_555 1_555
O3 C34 1_555 1_555
H31 O3 1_555 1_555
C1A H1A 1_555 1_555
C2A C1A 1_555 1_555
H2A C2A 1_555 1_555
C3A C2A 1_555 1_555
H3A C3A 1_555 1_555
C4A C3A 1_555 1_555
C5A C4A 1_555 1_555
C6A C5A 1_555 1_555
C7A C6A 1_555 1_555
H4A C7A 1_555 1_555
C8A C7A 1_555 1_555
H5A C8A 1_555 1_555
C9A C8A 1_555 1_555
H6A C9A 1_555 1_555
C10A C5A 1_555 1_555
C11A C10A 1_555 1_555
H7A C11A 1_555 1_555
C12A C11A 1_555 1_555
H8A C12A 1_555 1_555
C13A C12A 1_555 1_555
H9A C13A 1_555 1_555
C14A C10A 1_555 1_555
H10A C14A 1_555 1_555
C15A H11A 1_555 1_555
C16A C15A 1_555 1_555
H12A C16A 1_555 1_555
C17A C16A 1_555 1_555
H13A C17A 1_555 1_555
C18A C17A 1_555 1_555
C19A C18A 1_555 1_555
C20A C19A 1_555 1_555
C21A C20A 1_555 1_555
H14A C21A 1_555 1_555
C22A C21A 1_555 1_555
H15A C22A 1_555 1_555
C23A C22A 1_555 1_555
H16A C23A 1_555 1_555
C24A C19A 1_555 1_555
C25A C24A 1_555 1_555
H17A C25A 1_555 1_555
C26A C25A 1_555 1_555
H18A C26A 1_555 1_555
C27A C26A 1_555 1_555
H19A C27A 1_555 1_555
C28A C24A 1_555 1_555
H20A C28A 1_555 1_555
C29A H21A 1_555 1_555
C30A C29A 1_555 1_555
C31A C30A 1_555 1_555
H22A C31A 1_555 1_555
H23A C31A 1_555 1_555
H24A C31A 1_555 1_555
C32A C29A 1_555 1_555
C33A C32A 1_555 1_555
H25A C33A 1_555 1_555
H26A C33A 1_555 1_555
H27A C33A 1_555 1_555
N1A C1A 1_555 1_555
N2A C6A 1_555 1_555
N3A Cd1 1_555 1_555
N4A C15A 1_555 1_555
N5A C20A 1_555 1_555
N6A C27A 1_555 1_555
O1A C32A 1_555 1_555
O2A C30A 1_555 1_555
Cl1A Cd1 1_555 1_555
Co1A N1A 1_555 1_555
N6_2 Cd1 1_555 1_555
N6A_2 Cd1 1_555 1_555
Cd1_2 N6A 1_555 1_555
Cd1_3 N6 1_555 1_555
C4 N1 1_555 1_555
C9 N2 1_555 1_555
C14 N3 1_555 1_555
C18 N4 1_555 1_555
C23 N5 1_555 1_555
C28 N6 1_555 1_555
N2 Co1 1_555 1_555
N4 Co1 1_555 1_555
N5 Co1 1_555 1_555
O1 Co1 1_555 1_555
O2 Co1 1_555 1_555
C4A N1A 1_555 1_555
C9A N2A 1_555 1_555
C13A N3A 1_555 1_555
C14A N3A 1_555 1_555
C18A N4A 1_555 1_555
C23A N5A 1_555 1_555
C28A N6A 1_555 1_555
N2A Co1A 1_555 1_555
N4A Co1A 1_555 1_555
N5A Co1A 1_555 1_555
O1A Co1A 1_555 1_555
O2A Co1A 1_555 1_555

#END
