
#######################################################################
#
#                 Cambridge Crystallographic Data Centre
#                                CCDC 
#
#######################################################################
#
# If this CIF has been generated from an entry in the Cambridge 
# Structural Database, then it will include bibliographic, chemical, 
# crystal, experimental, refinement or atomic coordinate data resulting 
# from the CCDC's data processing and validation procedures.
#
#######################################################################

data_COFSOH
_symmetry_cell_setting           triclinic
_symmetry_space_group_name_H-M   'P -1'
_symmetry_Int_Tables_number      2
_space_group_name_Hall           '-P 1'
loop_
_symmetry_equiv_pos_site_id
_symmetry_equiv_pos_as_xyz
1 x,y,z
2 -x,-y,-z
_cell_length_a                   8.7796(4)
_cell_length_b                   16.0109(7)
_cell_length_c                   25.1541(11)
_cell_angle_alpha                83.011(2)
_cell_angle_beta                 82.318(2)
_cell_angle_gamma                79.518(2)
_cell_volume                     3428.44
loop_
_atom_site_label
_atom_site_type_symbol
_atom_site_fract_x
_atom_site_fract_y
_atom_site_fract_z
C1 C -0.0626(8) 1.1092(4) 1.4261(3)
H1 H -0.0229 1.1447 1.4454
C2 C -0.0060(8) 1.0212(4) 1.4251(3)
H2 H 0.0782 0.9902 1.4417
C3 C -0.0985(8) 0.9895(4) 1.3950(3)
H3 H -0.0914 0.9331 1.3879
C4 C -0.2080(7) 1.0617(3) 1.3770(2)
C5 C -0.3168(7) 1.0673(3) 1.3403(2)
C6 C -0.3902(6) 1.1448(3) 1.3147(2)
C7 C -0.4534(7) 1.1564(3) 1.2652(2)
H4 H -0.4743 1.1138 1.2465
C8 C -0.4783(8) 1.2425(4) 1.2499(3)
H5 H -0.5216 1.2696 1.2192
C9 C -0.4260(9) 1.2822(4) 1.2891(3)
H6 H -0.4283 1.3406 1.2883
C10 C -0.3616(7) 0.9882(4) 1.3254(3)
C11 C -0.5157(8) 0.9784(4) 1.3342(3)
H7 H -0.5911 1.0205 1.3491
C12 C -0.5578(9) 0.9034(4) 1.3203(3)
H8 H -0.6607 0.8945 1.3262
C13 C -0.4428(8) 0.8444(4) 1.2982(3)
H9 H -0.4696 0.7951 1.2887
C14 C -0.2536(8) 0.9254(4) 1.3026(2)
H10 H -0.1497 0.9325 1.2961
C15 C -0.6116(7) 1.3627(4) 1.4053(2)
H11 H -0.6715 1.3202 1.4059
C16 C -0.6717(8) 1.4484(4) 1.4136(3)
H12 H -0.7764 1.4720 1.4206
C17 C -0.5479(8) 1.4904(4) 1.4094(2)
H13 H -0.5525 1.5479 1.4132
C18 C -0.4101(7) 1.4296(3) 1.3982(2)
C19 C -0.2578(7) 1.4435(3) 1.3842(2)
C20 C -0.1357(7) 1.3837(3) 1.3639(2)
C21 C 0.0158(8) 1.3956(4) 1.3409(3)
H14 H 0.0582 1.4450 1.3397
C22 C 0.0884(8) 1.3214(4) 1.3207(3)
H15 H 0.1884 1.3108 1.3026
C23 C -0.0191(7) 1.2635(4) 1.3328(3)
H16 H 0.0009 1.2074 1.3243
C24 C -0.2265(8) 1.5315(4) 1.3881(2)
C25 C -0.2265(10) 1.5615(4) 1.4370(3)
H17 H -0.2517 1.5285 1.4689
C26 C -0.1886(11) 1.6419(4) 1.4383(3)
H18 H -0.1875 1.6632 1.4710
C27 C -0.1528(9) 1.6889(4) 1.3904(3)
H19 H -0.1265 1.7423 1.3913
C28 C -0.1912(8) 1.5838(4) 1.3421(2)
H20 H -0.1933 1.5641 1.3090
C29 C -0.2347(10) 1.2662(5) 1.5520(3)
C30 C -0.3114(8) 1.2439(4) 1.5064(3)
C31 C -0.4367(10) 1.2004(5) 1.5193(3)
H21 H -0.4730 1.1881 1.5554
C32 C -0.5107(8) 1.1743(4) 1.4791(3)
C33 C -0.6376(11) 1.1253(7) 1.4962(3)
C34 C 0.0832(7) 0.5871(4) 0.9737(2)
H22 H 0.0876 0.5475 0.9492
C35 C 0.1534(8) 0.5697(4) 1.0222(3)
H23 H 0.2099 0.5178 1.0349
C36 C 0.1228(7) 0.6427(4) 1.0466(2)
H24 H 0.1560 0.6508 1.0789
C37 C 0.0295(7) 0.7052(3) 1.0134(2)
C38 C -0.0439(7) 0.7877(3) 1.0235(2)
C39 C -0.1461(7) 0.8396(3) 0.9905(2)
C40 C -0.2473(8) 0.9165(4) 1.0023(2)
H25 H -0.2514 0.9456 1.0324
C41 C -0.3386(8) 0.9396(4) 0.9604(3)
H26 H -0.4155 0.9876 0.9567
C42 C -0.2933(7) 0.8776(4) 0.9250(2)
H27 H -0.3373 0.8773 0.8933
C43 C -0.0145(8) 0.8224(4) 1.0729(2)
C44 C 0.0564(9) 0.8936(4) 1.0684(3)
H28 H 0.0869 0.9201 1.0347
C45 C 0.0813(10) 0.9249(4) 1.1148(3)
H29 H 0.1254 0.9739 1.1128
C46 C 0.0399(8) 0.8825(4) 1.1642(3)
H30 H 0.0615 0.9021 1.1952
C47 C -0.0572(7) 0.7855(4) 1.1240(2)
H31 H -0.1071 0.7384 1.1273
C48 C -0.3516(7) 0.6768(4) 0.9431(2)
H32 H -0.3682 0.7122 0.9707
C49 C -0.4564(7) 0.6243(4) 0.9339(2)
H33 H -0.5517 0.6189 0.9540
C50 C -0.3906(6) 0.5829(3) 0.8899(2)
H34 H -0.4334 0.5443 0.8741
C51 C -0.2439(6) 0.6099(3) 0.8725(2)
C52 C -0.1279(6) 0.5770(3) 0.8338(2)
C53 C 0.0245(6) 0.5935(3) 0.8280(2)
C54 C 0.1564(7) 0.5546(4) 0.7956(2)
H35 H 0.1567 0.5178 0.7697
C55 C 0.2840(7) 0.5815(4) 0.8098(3)
H36 H 0.3874 0.5650 0.7961
C56 C 0.2291(7) 0.6380(4) 0.8486(3)
H37 H 0.2917 0.6663 0.8647
C57 C -0.3161(7) 0.4814(4) 0.7348(2)
H38 H -0.3990 0.4950 0.7141
C58 C -0.2883(7) 0.5390(4) 0.7678(2)
H39 H -0.3515 0.5922 0.7691
C59 C -0.1650(6) 0.5163(3) 0.7990(2)
C60 C -0.0744(7) 0.4352(3) 0.7955(2)
H40 H 0.0066 0.4188 0.8169
C61 C -0.2194(7) 0.4042(4) 0.7333(3)
H41 H -0.2378 0.3663 0.7106
C62 C 0.2858(7) 0.8846(4) 0.8804(3)
C63 C 0.1454(7) 0.8482(3) 0.8689(2)
C64 C 0.0679(8) 0.8838(4) 0.8250(3)
H42 H 0.1014 0.9297 0.8033
C65 C -0.0582(7) 0.8524(3) 0.8130(2)
C66 C -0.1464(8) 0.9022(4) 0.7670(3)
N1 N -0.1798(5) 1.1354(3) 1.39620(19)
N2 N -0.3731(5) 1.2243(3) 1.32762(18)
N3 N -0.2932(7) 0.8541(3) 1.2894(2)
N4 N -0.4549(6) 1.3511(3) 1.39638(19)
N5 N -0.1527(6) 1.3010(3) 1.35813(19)
N6 N -0.1541(7) 1.6613(3) 1.3423(2)
N7 N 0.0103(5) 0.6672(3) 0.96781(18)
N8 N -0.1772(5) 0.8176(3) 0.94231(19)
N9 N -0.0303(6) 0.8143(3) 1.1690(2)
N10 N -0.2260(5) 0.6686(3) 0.90700(18)
N11 N 0.0743(5) 0.6463(3) 0.85953(19)
N12 N -0.0991(6) 0.3801(3) 0.7629(2)
O1 O -0.2503(5) 1.2653(2) 1.46058(17)
O2 O -0.4789(5) 1.1853(2) 1.42914(16)
O3 O 0.1183(4) 0.7869(2) 0.90233(16)
O4 O -0.1212(4) 0.7916(2) 0.83724(16)
F1 F -0.1079(7) 1.2105(4) 1.5613(2)
F2 F -0.3289(7) 1.2722(4) 1.5967(2)
F3 F -0.1880(7) 1.3411(3) 1.5398(2)
F4 F -0.6596(9) 1.1033(5) 1.5477(3)
F5 F -0.7764(9) 1.1805(5) 1.4889(3)
F6 F -0.6424(9) 1.0637(5) 1.4687(3)
F7 F 0.2698(6) 0.9039(4) 0.9306(2)
F8 F 0.3073(6) 0.9558(3) 0.8485(2)
F9 F 0.4150(5) 0.8296(3) 0.8728(2)
F10 F -0.2626(7) 0.9584(3) 0.78711(19)
F11 F -0.0572(6) 0.9419(3) 0.73026(19)
F12 F -0.2101(5) 0.8517(3) 0.74185(16)
Cl1 Cl 0.1051(2) 0.80733(10) 1.29623(7)
Cl2 Cl -0.29640(18) 0.67610(9) 1.22039(6)
Co1 Co -0.31490(9) 1.24421(4) 1.39373(3)
Co2 Co -0.05540(8) 0.72807(4) 0.90316(3)
Cd1 Cd -0.09261(6) 0.74327(3) 1.256286(17)
N6_2 N -0.1541(7) 0.6613(3) 1.3423(2)
N12A N 0.0991(6) 0.6199(3) 1.2371(2)
Cd1_2 Cd -0.09261(6) 1.74327(3) 1.256286(17)
Cd1A Cd 0.09261(6) 0.25673(3) 0.743714(17)
C67 C 0.461(2) 0.7904(12) 1.0697(7)
H43 H 0.5714 0.7839 1.0598
H44 H 0.4112 0.8434 1.0525
H45 H 0.4219 0.7439 1.0584
C68 C 0.479(2) 0.8600(12) 1.1541(7)
H46 H 0.4286 0.8641 1.1903
H47 H 0.4522 0.9134 1.1328
H48 H 0.5897 0.8471 1.1547
C69 C 0.370(2) 0.7247(12) 1.1597(8)
H49 H 0.3453 0.7267 1.1967
N13 N 0.425(2) 0.7906(10) 1.1302(6)
O5 O 0.3508(16) 0.6569(8) 1.1377(5)
loop_
_geom_bond_atom_site_label_1
_geom_bond_atom_site_label_2
_geom_bond_site_symmetry_1
_geom_bond_site_symmetry_2
C1 H1 1_555 1_555
C2 C1 1_555 1_555
H2 C2 1_555 1_555
C3 C2 1_555 1_555
H3 C3 1_555 1_555
C4 C3 1_555 1_555
C5 C4 1_555 1_555
C6 C5 1_555 1_555
C7 C6 1_555 1_555
H4 C7 1_555 1_555
C8 C7 1_555 1_555
H5 C8 1_555 1_555
C9 C8 1_555 1_555
H6 C9 1_555 1_555
C10 C5 1_555 1_555
C11 C10 1_555 1_555
H7 C11 1_555 1_555
C12 C11 1_555 1_555
H8 C12 1_555 1_555
C13 C12 1_555 1_555
H9 C13 1_555 1_555
C14 C10 1_555 1_555
H10 C14 1_555 1_555
C15 H11 1_555 1_555
C16 C15 1_555 1_555
H12 C16 1_555 1_555
C17 C16 1_555 1_555
H13 C17 1_555 1_555
C18 C17 1_555 1_555
C19 C18 1_555 1_555
C20 C19 1_555 1_555
C21 C20 1_555 1_555
H14 C21 1_555 1_555
C22 C21 1_555 1_555
H15 C22 1_555 1_555
C23 C22 1_555 1_555
H16 C23 1_555 1_555
C24 C19 1_555 1_555
C25 C24 1_555 1_555
H17 C25 1_555 1_555
C26 C25 1_555 1_555
H18 C26 1_555 1_555
C27 C26 1_555 1_555
H19 C27 1_555 1_555
C28 C24 1_555 1_555
H20 C28 1_555 1_555
C29 C30 1_555 1_555
C30 C31 1_555 1_555
C31 H21 1_555 1_555
C32 C31 1_555 1_555
C33 C32 1_555 1_555
C34 H22 1_555 1_555
C35 C34 1_555 1_555
H23 C35 1_555 1_555
C36 C35 1_555 1_555
H24 C36 1_555 1_555
C37 C36 1_555 1_555
C38 C37 1_555 1_555
C39 C38 1_555 1_555
C40 C39 1_555 1_555
H25 C40 1_555 1_555
C41 C40 1_555 1_555
H26 C41 1_555 1_555
C42 C41 1_555 1_555
H27 C42 1_555 1_555
C43 C38 1_555 1_555
C44 C43 1_555 1_555
H28 C44 1_555 1_555
C45 C44 1_555 1_555
H29 C45 1_555 1_555
C46 C45 1_555 1_555
H30 C46 1_555 1_555
C47 C43 1_555 1_555
H31 C47 1_555 1_555
C48 H32 1_555 1_555
C49 C48 1_555 1_555
H33 C49 1_555 1_555
C50 C49 1_555 1_555
H34 C50 1_555 1_555
C51 C50 1_555 1_555
C52 C51 1_555 1_555
C53 C52 1_555 1_555
C54 C53 1_555 1_555
H35 C54 1_555 1_555
C55 C54 1_555 1_555
H36 C55 1_555 1_555
C56 C55 1_555 1_555
H37 C56 1_555 1_555
C57 H38 1_555 1_555
C58 C57 1_555 1_555
H39 C58 1_555 1_555
C59 C52 1_555 1_555
C60 C59 1_555 1_555
H40 C60 1_555 1_555
C61 C57 1_555 1_555
H41 C61 1_555 1_555
C62 C63 1_555 1_555
C63 C64 1_555 1_555
C64 H42 1_555 1_555
C65 C64 1_555 1_555
C66 C65 1_555 1_555
N1 C1 1_555 1_555
N2 C6 1_555 1_555
N3 C13 1_555 1_555
N4 C15 1_555 1_555
N5 C20 1_555 1_555
N6 C27 1_555 1_555
N7 C34 1_555 1_555
N8 C39 1_555 1_555
N9 C46 1_555 1_555
N10 C48 1_555 1_555
N11 C53 1_555 1_555
N12 C60 1_555 1_555
O1 C30 1_555 1_555
O2 C32 1_555 1_555
O3 C63 1_555 1_555
O4 C65 1_555 1_555
F1 C29 1_555 1_555
F2 C29 1_555 1_555
F3 C29 1_555 1_555
F4 C33 1_555 1_555
F5 C33 1_555 1_555
F6 C33 1_555 1_555
F7 C62 1_555 1_555
F8 C62 1_555 1_555
F9 C62 1_555 1_555
F10 C66 1_555 1_555
F11 C66 1_555 1_555
F12 C66 1_555 1_555
Cl1 Cd1 1_555 1_555
Cl2 Cd1 1_555 1_555
Co1 N1 1_555 1_555
Co2 N7 1_555 1_555
Cd1 N3 1_555 1_555
C67 H43 1_555 1_555
H44 C67 1_555 1_555
H45 C67 1_555 1_555
C68 H46 1_555 1_555
H47 C68 1_555 1_555
H48 C68 1_555 1_555
C69 H49 1_555 1_555
N13 C67 1_555 1_555
O5 C69 1_555 1_555
N6_2 Cd1 1_555 1_555
N12A Cd1 1_555 1_555
Cd1_2 N6 1_555 1_555
Cd1A N12 1_555 1_555
C4 N1 1_555 1_555
C9 N2 1_555 1_555
C14 N3 1_555 1_555
C18 N4 1_555 1_555
C23 N5 1_555 1_555
C28 N6 1_555 1_555
C37 N7 1_555 1_555
C42 N8 1_555 1_555
C47 N9 1_555 1_555
C51 N10 1_555 1_555
C56 N11 1_555 1_555
C58 C59 1_555 1_555
C61 N12 1_555 1_555
N2 Co1 1_555 1_555
N4 Co1 1_555 1_555
N5 Co1 1_555 1_555
N8 Co2 1_555 1_555
N9 Cd1 1_555 1_555
N10 Co2 1_555 1_555
N11 Co2 1_555 1_555
O1 Co1 1_555 1_555
O2 Co1 1_555 1_555
O3 Co2 1_555 1_555
O4 Co2 1_555 1_555
C68 N13 1_555 1_555
C69 N13 1_555 1_555

#END
