
#######################################################################
#
#                 Cambridge Crystallographic Data Centre
#                                CCDC 
#
#######################################################################
#
# If this CIF has been generated from an entry in the Cambridge 
# Structural Database, then it will include bibliographic, chemical, 
# crystal, experimental, refinement or atomic coordinate data resulting 
# from the CCDC's data processing and validation procedures.
#
#######################################################################

data_COFTAU
_symmetry_cell_setting           monoclinic
_symmetry_space_group_name_H-M   'C 2/c'
_symmetry_Int_Tables_number      15
_space_group_name_Hall           '-C 2yn'
loop_
_symmetry_equiv_pos_site_id
_symmetry_equiv_pos_as_xyz
1 x,y,z
2 -x,y,1/2-z
3 1/2+x,1/2+y,z
4 1/2-x,1/2+y,1/2-z
5 -x,-y,-z
6 x,-y,1/2+z
7 1/2-x,1/2-y,-z
8 1/2+x,1/2-y,1/2+z
_cell_length_a                   23.1158(7)
_cell_length_b                   25.2786(8)
_cell_length_c                   15.2033(5)
_cell_angle_alpha                90
_cell_angle_beta                 100.6850(10)
_cell_angle_gamma                90
_cell_volume                     8729.79
loop_
_atom_site_label
_atom_site_type_symbol
_atom_site_fract_x
_atom_site_fract_y
_atom_site_fract_z
C1 C 0.22165(13) 0.24543(13) 0.12253(19)
H1 H 0.1921 0.2694 0.1283
C2 C 0.21620(14) 0.20509(13) 0.0582(2)
H2 H 0.1832 0.1974 0.0150
C3 C 0.26910(13) 0.17920(12) 0.07186(19)
H3 H 0.2788 0.1508 0.0386
C4 C 0.30590(12) 0.20294(11) 0.14436(17)
C5 C 0.36144(12) 0.18620(11) 0.18883(18)
C6 C 0.38906(12) 0.20415(11) 0.27230(19)
C7 C 0.44215(14) 0.18605(13) 0.3284(2)
H4 H 0.4679 0.1607 0.3137
C8 C 0.44781(15) 0.21284(14) 0.4071(2)
H5 H 0.4773 0.2084 0.4571
C9 C 0.40060(13) 0.24835(13) 0.39809(19)
H6 H 0.3948 0.2724 0.4419
C10 C 0.39035(12) 0.14385(11) 0.14437(18)
C11 C 0.40037(12) 0.15053(10) 0.05735(18)
H7 H 0.3887 0.1815 0.0260
C12 C 0.42796(11) 0.11060(10) 0.01779(18)
H8 H 0.4344 0.1154 -0.0403
C13 C 0.43556(12) 0.05960(11) 0.14361(17)
H9 H 0.4478 0.0283 0.1736
C14 C 0.40813(12) 0.09716(11) 0.18726(18)
H10 H 0.4017 0.0910 0.2450
C15 C 0.24921(14) 0.21655(12) 0.3703(2)
H11 H 0.2744 0.1892 0.3614
C16 C 0.20471(15) 0.21230(13) 0.4212(2)
H12 H 0.1952 0.1823 0.4510
C17 C 0.17765(14) 0.26123(13) 0.4186(2)
H13 H 0.1466 0.2705 0.4467
C18 C 0.20598(13) 0.29459(11) 0.36512(18)
C19 C 0.18766(12) 0.34408(11) 0.33181(17)
C20 C 0.20734(13) 0.36842(11) 0.26025(19)
C21 C 0.18534(14) 0.41435(13) 0.2121(2)
H14 H 0.1575 0.4377 0.2267
C22 C 0.21281(15) 0.41796(14) 0.1401(2)
H15 H 0.2060 0.4435 0.0953
C23 C 0.25252(14) 0.37671(12) 0.14613(19)
H16 H 0.2777 0.3708 0.1060
C24 C 0.14275(12) 0.37248(11) 0.37299(18)
C25 C 0.08631(13) 0.38214(12) 0.32570(19)
H17 H 0.0745 0.3688 0.2681
C26 C 0.04801(12) 0.41178(11) 0.36541(19)
H18 H 0.0101 0.4173 0.3334
C27 C 0.11612(13) 0.42234(13) 0.4930(2)
H19 H 0.1266 0.4358 0.5507
C28 C 0.15706(13) 0.39219(13) 0.45816(19)
H20 H 0.1939 0.3855 0.4926
C29 C 0.4269(2) 0.3707(2) 0.1427(3)
C30 C 0.39104(15) 0.35699(17) 0.2137(2)
C31 C 0.39661(18) 0.38981(18) 0.2892(3)
H21 H 0.4205 0.4196 0.2929
C32 C 0.36705(16) 0.37846(15) 0.3588(2)
C33 C 0.3795(2) 0.41187(18) 0.4408(3)
N1 N 0.27496(10) 0.24468(9) 0.17419(14)
N2 N 0.36502(10) 0.24339(10) 0.31895(15)
N3 N 0.44546(9) 0.06581(8) 0.06026(14)
N4 N 0.25049(10) 0.26556(9) 0.33615(14)
N5 N 0.24989(10) 0.34636(9) 0.21764(14)
N6 N 0.06209(9) 0.43276(8) 0.44642(14)
O1 O 0.35941(9) 0.31752(9) 0.19491(13)
O2 O 0.33093(9) 0.34093(8) 0.36308(13)
F1 F 0.46373(17) 0.33339(17) 0.1342(3)
F2 F 0.39225(14) 0.37915(16) 0.0646(2)
F3 F 0.45829(14) 0.41534(15) 0.1586(2)
F4 F 0.33039(16) 0.42495(13) 0.4691(2)
F5 F 0.40755(18) 0.38458(13) 0.5099(2)
F6 F 0.4079(2) 0.45518(14) 0.4350(2)
Cl1 Cl 0.43073(3) 0.00306(2) -0.14980(4)
Co1 Co 0.304224(16) 0.291986(15) 0.26734(2)
Cd1 Cd 0.5000 0.0000 0.0000
C1D C 0.77835(13) -0.24543(13) -0.12253(19)
H1D H 0.8079 -0.2694 -0.1283
C2D C 0.78380(14) -0.20509(13) -0.0582(2)
H2D H 0.8168 -0.1974 -0.0150
C3D C 0.73090(13) -0.17920(12) -0.07186(19)
H3D H 0.7212 -0.1508 -0.0386
C4D C 0.69410(12) -0.20294(11) -0.14436(17)
C5D C 0.63856(12) -0.18620(11) -0.18883(18)
C6D C 0.61094(12) -0.20415(11) -0.27230(19)
C7D C 0.55785(14) -0.18605(13) -0.3284(2)
H4D H 0.5321 -0.1607 -0.3137
C8D C 0.55219(15) -0.21284(14) -0.4071(2)
H5D H 0.5227 -0.2084 -0.4571
C9D C 0.59940(13) -0.24835(13) -0.39809(19)
H6D H 0.6052 -0.2724 -0.4419
C10D C 0.60965(12) -0.14385(11) -0.14437(18)
C11D C 0.59963(12) -0.15053(10) -0.05735(18)
H7D H 0.6113 -0.1815 -0.0260
C12D C 0.57204(11) -0.11060(10) -0.01779(18)
H8D H 0.5656 -0.1154 0.0403
C13D C 0.56444(12) -0.05960(11) -0.14361(17)
H9D H 0.5522 -0.0283 -0.1736
C14D C 0.59187(12) -0.09716(11) -0.18726(18)
H10D H 0.5983 -0.0910 -0.2450
C15D C 0.75079(14) -0.21655(12) -0.3703(2)
H11D H 0.7256 -0.1892 -0.3614
C16D C 0.79529(15) -0.21230(13) -0.4212(2)
H12D H 0.8048 -0.1823 -0.4510
C17D C 0.82235(14) -0.26123(13) -0.4186(2)
H13D H 0.8534 -0.2705 -0.4467
C18D C 0.79402(13) -0.29459(11) -0.36512(18)
C19D C 0.81234(12) -0.34408(11) -0.33181(17)
C20D C 0.79266(13) -0.36842(11) -0.26025(19)
C21D C 0.81466(14) -0.41435(13) -0.2121(2)
H14D H 0.8425 -0.4377 -0.2267
C22D C 0.78719(15) -0.41796(14) -0.1401(2)
H15D H 0.7940 -0.4435 -0.0953
C23D C 0.74748(14) -0.37671(12) -0.14613(19)
H16D H 0.7223 -0.3708 -0.1060
C24D C 0.85725(12) -0.37248(11) -0.37299(18)
C25D C 0.91369(13) -0.38214(12) -0.32570(19)
H17D H 0.9255 -0.3688 -0.2681
C26D C 0.95199(12) -0.41178(11) -0.36541(19)
H18D H 0.9899 -0.4173 -0.3334
C27D C 0.88388(13) -0.42234(13) -0.4930(2)
H19D H 0.8734 -0.4358 -0.5507
C28D C 0.84294(13) -0.39219(13) -0.45816(19)
H20D H 0.8061 -0.3855 -0.4926
C29D C 0.5731(2) -0.3707(2) -0.1427(3)
C30D C 0.60896(15) -0.35699(17) -0.2137(2)
C31D C 0.60339(18) -0.38981(18) -0.2892(3)
H21D H 0.5795 -0.4196 -0.2929
C32D C 0.63295(16) -0.37846(15) -0.3588(2)
C33D C 0.6205(2) -0.41187(18) -0.4408(3)
N1D N 0.72504(10) -0.24468(9) -0.17419(14)
N2D N 0.63498(10) -0.24339(10) -0.31895(15)
N3D N 0.55454(9) -0.06581(8) -0.06026(14)
N4D N 0.74951(10) -0.26556(9) -0.33615(14)
N5D N 0.75011(10) -0.34636(9) -0.21764(14)
N6D N 0.93791(9) -0.43276(8) -0.44642(14)
O1D O 0.64059(9) -0.31752(9) -0.19491(13)
O2D O 0.66907(9) -0.34093(8) -0.36308(13)
F1D F 0.53627(17) -0.33339(17) -0.1342(3)
F2D F 0.60775(14) -0.37915(16) -0.0646(2)
F3D F 0.54171(14) -0.41534(15) -0.1586(2)
F4D F 0.66961(16) -0.42495(13) -0.4691(2)
F5D F 0.59245(18) -0.38458(13) -0.5099(2)
F6D F 0.5921(2) -0.45518(14) -0.4350(2)
Cl1D Cl 0.56927(3) -0.00306(2) 0.14980(4)
Co1D Co 0.695776(16) -0.291986(15) -0.26734(2)
N6C N 0.43791(9) -0.06724(8) 0.05358(14)
N6G N 0.56209(9) 0.06724(8) -0.05358(14)
Cd1C Cd 0.0000 0.5000 0.5000
Cd1C_2 Cd 1.0000 -0.5000 -0.5000
loop_
_geom_bond_atom_site_label_1
_geom_bond_atom_site_label_2
_geom_bond_site_symmetry_1
_geom_bond_site_symmetry_2
C1 H1 1_555 1_555
C2 C1 1_555 1_555
H2 C2 1_555 1_555
C3 C2 1_555 1_555
H3 C3 1_555 1_555
C4 C3 1_555 1_555
C5 C4 1_555 1_555
C6 C5 1_555 1_555
C7 C6 1_555 1_555
H4 C7 1_555 1_555
C8 C7 1_555 1_555
H5 C8 1_555 1_555
C9 C8 1_555 1_555
H6 C9 1_555 1_555
C10 C5 1_555 1_555
C11 C10 1_555 1_555
H7 C11 1_555 1_555
C12 C11 1_555 1_555
H8 C12 1_555 1_555
C13 H9 1_555 1_555
C14 C10 1_555 1_555
H10 C14 1_555 1_555
C15 H11 1_555 1_555
C16 C15 1_555 1_555
H12 C16 1_555 1_555
C17 C16 1_555 1_555
H13 C17 1_555 1_555
C18 C17 1_555 1_555
C19 C18 1_555 1_555
C20 C19 1_555 1_555
C21 C20 1_555 1_555
H14 C21 1_555 1_555
C22 C21 1_555 1_555
H15 C22 1_555 1_555
C23 C22 1_555 1_555
H16 C23 1_555 1_555
C24 C19 1_555 1_555
C25 C24 1_555 1_555
H17 C25 1_555 1_555
C26 C25 1_555 1_555
H18 C26 1_555 1_555
C27 H19 1_555 1_555
C28 C24 1_555 1_555
H20 C28 1_555 1_555
C29 C30 1_555 1_555
C30 C31 1_555 1_555
C31 H21 1_555 1_555
C32 C31 1_555 1_555
C33 C32 1_555 1_555
N1 C1 1_555 1_555
N2 C6 1_555 1_555
N3 C12 1_555 1_555
N4 C15 1_555 1_555
N5 C20 1_555 1_555
N6 C26 1_555 1_555
O1 C30 1_555 1_555
O2 C32 1_555 1_555
F1 C29 1_555 1_555
F2 C29 1_555 1_555
F3 C29 1_555 1_555
F4 C33 1_555 1_555
F5 C33 1_555 1_555
F6 C33 1_555 1_555
Cl1 Cd1 1_555 1_555
Co1 N1 1_555 1_555
Cd1 N3 1_555 1_555
C1D H1D 1_555 1_555
C2D C1D 1_555 1_555
H2D C2D 1_555 1_555
C3D C2D 1_555 1_555
H3D C3D 1_555 1_555
C4D C3D 1_555 1_555
C5D C4D 1_555 1_555
C6D C5D 1_555 1_555
C7D C6D 1_555 1_555
H4D C7D 1_555 1_555
C8D C7D 1_555 1_555
H5D C8D 1_555 1_555
C9D C8D 1_555 1_555
H6D C9D 1_555 1_555
C10D C5D 1_555 1_555
C11D C10D 1_555 1_555
H7D C11D 1_555 1_555
C12D C11D 1_555 1_555
H8D C12D 1_555 1_555
C13D H9D 1_555 1_555
C14D C10D 1_555 1_555
H10D C14D 1_555 1_555
C15D H11D 1_555 1_555
C16D C15D 1_555 1_555
H12D C16D 1_555 1_555
C17D C16D 1_555 1_555
H13D C17D 1_555 1_555
C18D C17D 1_555 1_555
C19D C18D 1_555 1_555
C20D C19D 1_555 1_555
C21D C20D 1_555 1_555
H14D C21D 1_555 1_555
C22D C21D 1_555 1_555
H15D C22D 1_555 1_555
C23D C22D 1_555 1_555
H16D C23D 1_555 1_555
C24D C19D 1_555 1_555
C25D C24D 1_555 1_555
H17D C25D 1_555 1_555
C26D C25D 1_555 1_555
H18D C26D 1_555 1_555
C27D H19D 1_555 1_555
C28D C24D 1_555 1_555
H20D C28D 1_555 1_555
C29D C30D 1_555 1_555
C30D C31D 1_555 1_555
C31D H21D 1_555 1_555
C32D C31D 1_555 1_555
C33D C32D 1_555 1_555
N1D C1D 1_555 1_555
N2D C6D 1_555 1_555
N3D Cd1 1_555 1_555
N4D C15D 1_555 1_555
N5D C20D 1_555 1_555
N6D C26D 1_555 1_555
O1D C30D 1_555 1_555
O2D C32D 1_555 1_555
F1D C29D 1_555 1_555
F2D C29D 1_555 1_555
F3D C29D 1_555 1_555
F4D C33D 1_555 1_555
F5D C33D 1_555 1_555
F6D C33D 1_555 1_555
Cl1D Cd1 1_555 1_555
Co1D N1D 1_555 1_555
N6C Cd1 1_555 1_555
N6G Cd1 1_555 1_555
Cd1C N6 1_555 1_555
Cd1C_2 N6D 1_555 1_555
C4 N1 1_555 1_555
C9 N2 1_555 1_555
C13 C14 1_555 1_555
C13 N3 1_555 1_555
C18 N4 1_555 1_555
C23 N5 1_555 1_555
C27 C28 1_555 1_555
C27 N6 1_555 1_555
N2 Co1 1_555 1_555
N4 Co1 1_555 1_555
N5 Co1 1_555 1_555
O1 Co1 1_555 1_555
O2 Co1 1_555 1_555
C4D N1D 1_555 1_555
C9D N2D 1_555 1_555
C12D N3D 1_555 1_555
C13D C14D 1_555 1_555
C13D N3D 1_555 1_555
C18D N4D 1_555 1_555
C23D N5D 1_555 1_555
C27D C28D 1_555 1_555
C27D N6D 1_555 1_555
N2D Co1D 1_555 1_555
N4D Co1D 1_555 1_555
N5D Co1D 1_555 1_555
O1D Co1D 1_555 1_555
O2D Co1D 1_555 1_555

#END
