
#######################################################################
#
#                 Cambridge Crystallographic Data Centre
#                                CCDC 
#
#######################################################################
#
# If this CIF has been generated from an entry in the Cambridge 
# Structural Database, then it will include bibliographic, chemical, 
# crystal, experimental, refinement or atomic coordinate data resulting 
# from the CCDC's data processing and validation procedures.
#
#######################################################################

data_COFTEY
_symmetry_cell_setting           triclinic
_symmetry_space_group_name_H-M   'P -1'
_symmetry_Int_Tables_number      2
_space_group_name_Hall           '-P 1'
loop_
_symmetry_equiv_pos_site_id
_symmetry_equiv_pos_as_xyz
1 x,y,z
2 -x,-y,-z
_cell_length_a                   12.1312(6)
_cell_length_b                   17.8056(8)
_cell_length_c                   22.2981(10)
_cell_angle_alpha                102.464(2)
_cell_angle_beta                 105.322(2)
_cell_angle_gamma                94.702(2)
_cell_volume                     4486.1
loop_
_atom_site_label
_atom_site_type_symbol
_atom_site_fract_x
_atom_site_fract_y
_atom_site_fract_z
C1 C -0.2957(4) 0.3404(3) 1.2620(2)
H1 H -0.3247 0.3812 1.2837
C2 C -0.2587(5) 0.3416(3) 1.2073(3)
H2 H -0.2588 0.3823 1.1873
C3 C -0.2227(5) 0.2719(3) 1.1895(2)
H3 H -0.1940 0.2558 1.1548
C4 C -0.2375(4) 0.2289(3) 1.2339(2)
C5 C -0.2052(4) 0.1567(3) 1.2380(2)
C6 C -0.2146(4) 0.1186(3) 1.2854(2)
C7 C -0.1795(5) 0.0465(3) 1.2933(3)
H4 H -0.1445 0.0145 1.2674
C8 C -0.2068(4) 0.0327(3) 1.3458(3)
H5 H -0.1934 -0.0103 1.3627
C9 C -0.2586(4) 0.0954(3) 1.3695(2)
H6 H -0.2862 0.1001 1.4051
C10 C -0.1564(5) 0.1179(3) 1.1865(2)
C11 C -0.0412(5) 0.1348(3) 1.1906(2)
H7 H 0.0091 0.1692 1.2268
C12 C -0.0014(5) 0.0997(3) 1.1401(2)
H8 H 0.0762 0.1121 1.1432
C13 C -0.2246(5) 0.0636(4) 1.1334(3)
H9 H -0.3018 0.0486 1.1298
C14 C -0.1780(5) 0.0312(4) 1.0851(3)
H10 H -0.2261 -0.0050 1.0492
C15 C -0.3998(4) 0.3888(3) 1.3942(2)
H11 H -0.3389 0.3963 1.4314
C16 C -0.4706(5) 0.4450(3) 1.3797(3)
H12 H -0.4655 0.4948 1.4048
C17 C -0.5485(4) 0.4117(3) 1.3212(3)
H13 H -0.6065 0.4350 1.2991
C18 C -0.5251(4) 0.3351(3) 1.3002(2)
C19 C -0.5822(4) 0.2808(3) 1.2429(2)
C20 C -0.5586(4) 0.2049(3) 1.2273(2)
C21 C -0.6227(5) 0.1428(3) 1.1754(3)
H14 H -0.6850 0.1462 1.1417
C22 C -0.5772(5) 0.0775(3) 1.1836(3)
H15 H -0.6020 0.0277 1.1568
C23 C -0.4855(5) 0.0993(3) 1.2401(3)
H16 H -0.4392 0.0653 1.2569
C24 C -0.6744(4) 0.3060(3) 1.1965(2)
C25 C -0.6495(4) 0.3407(3) 1.1510(2)
H17 H -0.5752 0.3445 1.1466
C26 C -0.7350(4) 0.3696(3) 1.1119(2)
H18 H -0.7158 0.3934 1.0821
C27 C -0.8692(5) 0.3290(4) 1.1572(3)
H19 H -0.9449 0.3234 1.1593
C28 C -0.7877(5) 0.2994(4) 1.1983(3)
H20 H -0.8092 0.2750 1.2273
C29 C -0.0925(5) 0.3436(4) 1.5102(3)
H21 H -0.0287 0.3273 1.4955
H22 H -0.0827 0.3368 1.5528
H23 H -0.0954 0.3974 1.5107
C30 C -0.2034(4) 0.2954(3) 1.4658(2)
C31 C -0.2810(5) 0.2607(3) 1.4906(2)
H24 H -0.2618 0.2689 1.5350
C32 C -0.3858(5) 0.2144(3) 1.4547(2)
C33 C -0.4642(5) 0.1792(4) 1.4872(3)
H25 H -0.5433 0.1803 1.4650
H26 H -0.4468 0.2087 1.5309
H27 H -0.4522 0.1264 1.4864
C34 C -0.8063(4) 0.4298(3) 0.5878(2)
H28 H -0.7798 0.4236 0.5517
C35 C -0.8605(4) 0.4927(3) 0.6098(3)
H29 H -0.8763 0.5343 0.5914
C36 C -0.8854(5) 0.4809(3) 0.6637(3)
H30 H -0.9215 0.5129 0.6889
C37 C -0.8461(4) 0.4108(3) 0.6741(2)
C38 C -0.8461(4) 0.3782(3) 0.7253(2)
C39 C -0.8064(4) 0.3087(3) 0.7331(2)
C40 C -0.8137(5) 0.2683(3) 0.7814(3)
H31 H -0.8394 0.2860 0.8170
C41 C -0.7756(5) 0.1992(3) 0.7649(3)
H32 H -0.7715 0.1602 0.7870
C42 C -0.7437(5) 0.1975(3) 0.7084(3)
H33 H -0.7138 0.1566 0.6876
C43 C -0.8868(4) 0.4238(3) 0.7782(2)
C44 C -0.8079(5) 0.4669(3) 0.8343(2)
H34 H -0.7291 0.4663 0.8403
C45 C -0.8462(4) 0.5107(3) 0.8811(2)
H35 H -0.7914 0.5389 0.9187
C46 C -1.0330(5) 0.4744(4) 0.8216(3)
H36 H -1.1111 0.4768 0.8167
C47 C -1.0020(5) 0.4284(4) 0.7720(3)
H37 H -1.0583 0.4008 0.7349
C48 C -0.6506(5) 0.1404(3) 0.5742(2)
H38 H -0.7151 0.1287 0.5384
C49 C -0.5731(5) 0.0883(3) 0.5898(3)
H39 H -0.5768 0.0374 0.5671
C50 C -0.4919(5) 0.1275(3) 0.6447(3)
H40 H -0.4290 0.1080 0.6669
C51 C -0.5197(4) 0.2031(3) 0.6625(2)
C52 C -0.4631(4) 0.2626(3) 0.7171(2)
C53 C -0.4910(4) 0.3360(3) 0.7313(2)
C54 C -0.4333(5) 0.4003(3) 0.7851(2)
H41 H -0.3698 0.3994 0.8191
C55 C -0.4882(5) 0.4624(3) 0.7773(3)
H42 H -0.4696 0.5120 0.8045
C56 C -0.5790(5) 0.4368(3) 0.7199(2)
H43 H -0.6303 0.4684 0.7034
C57 C -0.3630(4) 0.2445(3) 0.7654(2)
C58 C -0.2502(5) 0.2663(4) 0.7688(3)
H44 H -0.2328 0.2910 0.7390
C59 C -0.1620(5) 0.2514(4) 0.8168(3)
H45 H -0.0860 0.2667 0.8184
C60 C -0.2907(5) 0.1949(4) 0.8562(3)
H46 H -0.3062 0.1698 0.8863
C61 C -0.3826(5) 0.2076(4) 0.8102(3)
H47 H -0.4579 0.1911 0.8095
C62 C -0.6150(5) 0.3418(4) 0.4652(3)
H48 H -0.6344 0.3924 0.4621
H49 H -0.6327 0.3082 0.4229
H50 H -0.5340 0.3463 0.4864
C63 C -0.6842(5) 0.3081(3) 0.5032(2)
C64 C -0.7879(5) 0.2595(3) 0.4708(2)
H51 H -0.8111 0.2492 0.4262
C65 C -0.8598(4) 0.2248(3) 0.4996(2)
C66 C -0.9707(5) 0.1739(4) 0.4600(3)
H52 H -0.9578 0.1207 0.4511
H53 H -0.9982 0.1887 0.4204
H54 H -1.0272 0.1796 0.4832
C67 C 0.0003(7) 0.0855(4) 0.8073(3)
H55 H -0.0791 0.0707 0.8046
H56 H 0.0405 0.0414 0.8088
H57 H 0.0042 0.1039 0.7704
N1 N -0.2839(3) 0.2733(2) 1.27857(18)
N2 N -0.2633(3) 0.1478(2) 1.33399(18)
N3 N -0.0686(4) 0.0490(2) 1.08735(19)
N4 N -0.4316(3) 0.3231(2) 1.34723(18)
N5 N -0.4729(3) 0.1750(2) 1.26695(19)
N6 N -0.8446(4) 0.3650(2) 1.1147(2)
N7 N -0.7977(3) 0.3800(2) 0.62539(18)
N8 N -0.7619(3) 0.2622(2) 0.68864(18)
N9 N -0.9574(4) 0.5153(2) 0.87585(19)
N10 N -0.6195(3) 0.2093(2) 0.61751(19)
N11 N -0.5829(3) 0.3620(2) 0.69193(18)
N12 N -0.1815(4) 0.2164(3) 0.8604(2)
O1 O -0.4233(3) 0.19702(19) 1.39363(16)
O2 O -0.2172(3) 0.29332(19) 1.40674(15)
O3 O -0.8384(3) 0.23182(19) 0.56010(16)
O4 O -0.6406(3) 0.32986(19) 0.56372(15)
O5 O 0.0522(4) 0.1452(3) 0.8634(2)
H58 H 0.1215 0.1430 0.8759
Co1 Co -0.34777(5) 0.23532(4) 1.33901(3)
Co2 Co -0.70732(5) 0.29546(4) 0.62327(3)
Br1 Br -0.17182(5) 0.05434(3) 0.92300(3)
Br2 Br 0.13363(4) 0.14512(3) 1.02636(2)
Br3 Br 0.09779(4) 0.32805(3) 0.94653(2)
Br4 Br -0.13558(4) 0.27766(3) 1.03150(2)
Br5 Br -0.83848(4) 0.54359(3) 1.04967(2)
Cd1 Cd 0.0000 0.0000 1.0000
Cd2 Cd -0.03449(3) 0.19609(2) 0.945882(17)
Cd3 Cd -0.98638(3) 0.411052(19) 1.038479(16)
C1A C -1.7043(4) 0.6596(3) 0.7380(2)
H1A H -1.6753 0.6188 0.7163
C2A C -1.7413(5) 0.6584(3) 0.7927(3)
H2A H -1.7412 0.6177 0.8127
C3A C -1.7773(5) 0.7281(3) 0.8105(2)
H3A H -1.8060 0.7442 0.8452
C4A C -1.7625(4) 0.7711(3) 0.7661(2)
C5A C -1.7948(4) 0.8433(3) 0.7620(2)
C6A C -1.7854(4) 0.8814(3) 0.7146(2)
C7A C -1.8205(5) 0.9535(3) 0.7067(3)
H4A H -1.8555 0.9855 0.7326
C8A C -1.7932(4) 0.9673(3) 0.6542(3)
H5A H -1.8066 1.0103 0.6373
C9A C -1.7414(4) 0.9046(3) 0.6305(2)
H6A H -1.7138 0.8999 0.5949
C10A C -1.8436(5) 0.8821(3) 0.8135(2)
C11A C -1.9588(5) 0.8652(3) 0.8094(2)
H7A H -2.0091 0.8308 0.7732
C12A C -1.9986(5) 0.9003(3) 0.8599(2)
H8A H -2.0762 0.8879 0.8568
C13A C -1.7754(5) 0.9364(4) 0.8666(3)
H9A H -1.6982 0.9514 0.8702
C14A C -1.8220(5) 0.9688(4) 0.9149(3)
H10A H -1.7739 1.0050 0.9508
C15A C -1.6002(4) 0.6112(3) 0.6058(2)
H11A H -1.6611 0.6037 0.5686
C16A C -1.5294(5) 0.5550(3) 0.6203(3)
H12A H -1.5345 0.5052 0.5952
C17A C -1.4515(4) 0.5883(3) 0.6788(3)
H13A H -1.3935 0.5650 0.7009
C18A C -1.4749(4) 0.6649(3) 0.6998(2)
C19A C -1.4178(4) 0.7192(3) 0.7571(2)
C20A C -1.4414(4) 0.7951(3) 0.7727(2)
C21A C -1.3773(5) 0.8572(3) 0.8246(3)
H14A H -1.3150 0.8538 0.8583
C22A C -1.4228(5) 0.9225(3) 0.8164(3)
H15A H -1.3980 0.9723 0.8432
C23A C -1.5145(5) 0.9007(3) 0.7599(3)
H16A H -1.5608 0.9347 0.7431
C24A C -1.3256(4) 0.6940(3) 0.8035(2)
C25A C -1.3505(4) 0.6593(3) 0.8490(2)
H17A H -1.4248 0.6555 0.8534
C26A C -1.2650(4) 0.6304(3) 0.8881(2)
H18A H -1.2842 0.6066 0.9179
C27A C -1.1308(5) 0.6710(4) 0.8428(3)
H19A H -1.0551 0.6766 0.8407
C28A C -1.2123(5) 0.7006(4) 0.8017(3)
H20A H -1.1908 0.7250 0.7727
C29A C -1.9075(5) 0.6564(4) 0.4898(3)
H21A H -1.9713 0.6727 0.5045
H22A H -1.9173 0.6632 0.4472
H23A H -1.9046 0.6026 0.4893
C30A C -1.7966(4) 0.7046(3) 0.5342(2)
C31A C -1.7190(5) 0.7393(3) 0.5094(2)
H24A H -1.7382 0.7311 0.4650
C32A C -1.6142(5) 0.7856(3) 0.5453(2)
C33A C -1.5358(5) 0.8208(4) 0.5128(3)
H25A H -1.4567 0.8197 0.5350
H26A H -1.5532 0.7913 0.4691
H27A H -1.5478 0.8736 0.5136
C34A C -1.1937(4) 0.5702(3) 1.4122(2)
H28A H -1.2202 0.5764 1.4483
C35A C -1.1395(4) 0.5073(3) 1.3902(3)
H29A H -1.1237 0.4657 1.4086
C36A C -1.1146(5) 0.5191(3) 1.3363(3)
H30A H -1.0785 0.4871 1.3111
C37A C -1.1539(4) 0.5892(3) 1.3259(2)
C38A C -1.1539(4) 0.6218(3) 1.2747(2)
C39A C -1.1936(4) 0.6913(3) 1.2669(2)
C40A C -1.1863(5) 0.7317(3) 1.2186(3)
H31A H -1.1606 0.7140 1.1830
C41A C -1.2244(5) 0.8008(3) 1.2351(3)
H32A H -1.2285 0.8398 1.2130
C42A C -1.2563(5) 0.8025(3) 1.2916(3)
H33A H -1.2862 0.8434 1.3124
C43A C -1.1132(4) 0.5762(3) 1.2218(2)
C44A C -1.1921(5) 0.5331(3) 1.1657(2)
H34A H -1.2709 0.5337 1.1597
C45A C -1.1538(4) 0.4893(3) 1.1189(2)
H35A H -1.2086 0.4611 1.0813
C46A C -0.9670(5) 0.5256(4) 1.1784(3)
H36A H -0.8889 0.5232 1.1833
C47A C -0.9980(5) 0.5716(4) 1.2280(3)
H37A H -0.9417 0.5992 1.2651
C48A C -1.3494(5) 0.8596(3) 1.4258(2)
H38A H -1.2849 0.8713 1.4616
C49A C -1.4269(5) 0.9117(3) 1.4102(3)
H39A H -1.4232 0.9626 1.4329
C50A C -1.5081(5) 0.8725(3) 1.3553(3)
H40A H -1.5710 0.8920 1.3331
C51A C -1.4803(4) 0.7969(3) 1.3375(2)
C52A C -1.5369(4) 0.7374(3) 1.2829(2)
C53A C -1.5090(4) 0.6640(3) 1.2687(2)
C54A C -1.5667(5) 0.5997(3) 1.2149(2)
H41A H -1.6302 0.6006 1.1809
C55A C -1.5118(5) 0.5376(3) 1.2227(3)
H42A H -1.5304 0.4880 1.1955
C56A C -1.4210(5) 0.5632(3) 1.2801(2)
H43A H -1.3697 0.5316 1.2966
C57A C -1.6370(4) 0.7555(3) 1.2346(2)
C58A C -1.7498(5) 0.7337(4) 1.2312(3)
H44A H -1.7672 0.7090 1.2610
C59A C -1.8380(5) 0.7486(4) 1.1832(3)
H45A H -1.9140 0.7333 1.1816
C60A C -1.7093(5) 0.8051(4) 1.1438(3)
H46A H -1.6938 0.8302 1.1137
C61A C -1.6174(5) 0.7924(4) 1.1898(3)
H47A H -1.5421 0.8089 1.1905
C62A C -1.3850(5) 0.6582(4) 1.5348(3)
H48A H -1.3656 0.6076 1.5379
H49A H -1.3673 0.6918 1.5771
H50A H -1.4660 0.6537 1.5136
C63A C -1.3158(5) 0.6919(3) 1.4968(2)
C64A C -1.2121(5) 0.7405(3) 1.5292(2)
H51A H -1.1889 0.7508 1.5738
C65A C -1.1402(4) 0.7752(3) 1.5004(2)
C66A C -1.0293(5) 0.8261(4) 1.5400(3)
H52A H -1.0422 0.8793 1.5489
H53A H -1.0018 0.8113 1.5796
H54A H -0.9728 0.8204 1.5168
C67A C -2.0003(7) 0.9145(4) 1.1927(3)
H55A H -1.9209 0.9293 1.1954
H56A H -2.0405 0.9586 1.1912
H57A H -2.0042 0.8961 1.2296
N1A N -1.7161(3) 0.7267(2) 0.72143(18)
N2A N -1.7367(3) 0.8522(2) 0.66601(18)
N3A N -1.9314(4) 0.9510(2) 0.91265(19)
N4A N -1.5684(3) 0.6769(2) 0.65277(18)
N5A N -1.5271(3) 0.8250(2) 0.73305(19)
N6A N -1.1554(4) 0.6350(2) 0.8853(2)
N7A N -1.2023(3) 0.6200(2) 1.37461(18)
N8A N -1.2381(3) 0.7378(2) 1.31136(18)
N9A N -1.0426(4) 0.4847(2) 1.12415(19)
N10A N -1.3805(3) 0.7907(2) 1.38249(19)
N11A N -1.4171(3) 0.6380(2) 1.30807(18)
N12A N -1.8185(4) 0.7836(3) 1.1396(2)
O1A O -1.5767(3) 0.80298(19) 0.60637(16)
O2A O -1.7828(3) 0.70668(19) 0.59326(15)
O3A O -1.1616(3) 0.76818(19) 1.43990(16)
O4A O -1.3594(3) 0.67014(19) 1.43628(15)
O5A O -2.0522(4) 0.8548(3) 1.1366(2)
H58A H -2.1215 0.8570 1.1241
Co1A Co -1.65223(5) 0.76468(4) 0.66099(3)
Co2A Co -1.29268(5) 0.70454(4) 1.37673(3)
Br1A Br -1.82818(5) 0.94566(3) 1.07700(3)
Br2A Br -2.13363(4) 0.85488(3) 0.97364(2)
Br3A Br -2.09779(4) 0.67195(3) 1.05347(2)
Br4A Br -1.86442(4) 0.72234(3) 0.96850(2)
Br5A Br -1.16152(4) 0.45641(3) 0.95033(2)
Cd2A Cd -1.96551(3) 0.80391(2) 1.054118(17)
Cd3A Cd -1.01362(3) 0.588948(19) 0.961521(16)
N3A_2 N 0.0686(4) -0.0490(2) 0.91265(19)
Br1A_2 Br 0.17182(5) -0.05434(3) 1.07700(3)
Br2A_2 Br -0.13363(4) -0.14512(3) 0.97364(2)
Br3_2 Br -0.90221(4) 0.32805(3) 0.94653(2)
Br3A_2 Br -1.09779(4) 0.67195(3) 1.05347(2)
Br4_2 Br -1.13558(4) 0.27766(3) 1.03150(2)
Br4A_2 Br -0.86442(4) 0.72234(3) 0.96850(2)
Cd1_2 Cd -2.0000 1.0000 1.0000
Cd3_2 Cd 0.01362(3) 0.411052(19) 1.038479(16)
Cd3A_2 Cd -2.01362(3) 0.588948(19) 0.961521(16)
C68 C 0.3494(6) 0.1732(4) 0.9545(4)
H59 H 0.3208 0.2121 0.9786
C69 C 0.5023(8) 0.0971(5) 0.9476(5)
H60 H 0.4873 0.0482 0.9577
H61 H 0.5843 0.1127 0.9587
H62 H 0.4688 0.0917 0.9025
C70 C 0.5096(9) 0.1887(6) 1.0510(4)
H63 H 0.4771 0.2344 1.0649
H64 H 0.5909 0.2027 1.0576
H65 H 0.4983 0.1518 1.0752
N13 N 0.4530(5) 0.1543(4) 0.9830(3)
O6 O 0.2908(4) 0.1428(3) 0.8993(2)
C71 C 0.2767(7) 0.1589(4) 0.3203(4)
H66 H 0.3505 0.1747 0.3185
C72 C 0.3431(8) 0.0410(6) 0.3358(6)
H67 H 0.3154 -0.0067 0.3030
H68 H 0.3614 0.0298 0.3772
H69 H 0.4111 0.0667 0.3302
C73 C 0.1473(8) 0.0588(6) 0.3356(6)
H70 H 0.0969 0.0976 0.3359
H71 H 0.1594 0.0417 0.3746
H72 H 0.1127 0.0154 0.2995
N14 N 0.2549(5) 0.0908(4) 0.3310(3)
O7 O 0.2024(5) 0.2044(3) 0.3123(2)
C74 C 0.7826(10) 0.1026(6) 0.5753(7)
H73 H 0.7265 0.1291 0.5881
C75 C 0.9766(8) 0.0841(6) 0.5901(6)
H74 H 1.0009 0.0598 0.6249
H75 H 1.0420 0.1155 0.5869
H76 H 0.9441 0.0447 0.5508
C76 C 0.9179(11) 0.2133(8) 0.6403(4)
H77 H 0.8493 0.2374 0.6329
H78 H 0.9762 0.2412 0.6282
H79 H 0.9457 0.2140 0.6850
N15 N 0.8912(5) 0.1321(4) 0.6016(3)
O8 O 0.7512(12) 0.0384(7) 0.5324(6)
C77 C 0.5657(9) 0.3807(6) 1.0430(5)
H80 H 0.6322 0.3572 1.0496
C78 C 0.4050(8) 0.4118(6) 0.9680(5)
H81 H 0.3391 0.3757 0.9399
H82 H 0.4214 0.4520 0.9477
H83 H 0.3889 0.4345 1.0073
C79 C 0.5450(8) 0.3295(6) 0.9347(5)
H84 H 0.4852 0.2900 0.9049
H85 H 0.6073 0.3055 0.9555
H86 H 0.5730 0.3633 0.9121
N16 N 0.5001(7) 0.3729(5) 0.9810(4)
O9 O 0.5422(6) 0.4161(4) 1.0894(3)
C80 C 0.8715(10) 0.5556(8) 0.5738(6)
H87 H 0.9199 0.5619 0.5486
C81 C 0.9862(9) 0.6683(8) 0.6560(6)
H88 H 1.0382 0.6636 0.6953
H89 H 0.9547 0.7160 0.6635
H90 H 1.0274 0.6684 0.6246
C82 C 0.8287(9) 0.5726(8) 0.6642(5)
H91 H 0.8125 0.5173 0.6467
H92 H 0.7575 0.5939 0.6584
H93 H 0.8688 0.5837 0.7091
N17 N 0.8964(8) 0.6054(7) 0.6332(5)
O10 O 0.7850(6) 0.5008(5) 0.5508(4)
C83 C 0.6612(11) 0.3947(9) 0.6325(6)
H94 H 0.6549 0.4246 0.6724
H95 H 0.6322 0.3410 0.6268
H96 H 0.6170 0.4136 0.5978
O11 O 0.7691(7) 0.4012(6) 0.6330(4)
H97 H 0.7731 0.3865 0.5962
loop_
_geom_bond_atom_site_label_1
_geom_bond_atom_site_label_2
_geom_bond_site_symmetry_1
_geom_bond_site_symmetry_2
C1 H1 1_555 1_555
C2 C1 1_555 1_555
H2 C2 1_555 1_555
C3 C2 1_555 1_555
H3 C3 1_555 1_555
C4 C3 1_555 1_555
C5 C4 1_555 1_555
C6 C5 1_555 1_555
C7 C6 1_555 1_555
H4 C7 1_555 1_555
C8 C7 1_555 1_555
H5 C8 1_555 1_555
C9 C8 1_555 1_555
H6 C9 1_555 1_555
C10 C5 1_555 1_555
C11 C10 1_555 1_555
H7 C11 1_555 1_555
C12 C11 1_555 1_555
H8 C12 1_555 1_555
C13 C10 1_555 1_555
H9 C13 1_555 1_555
C14 C13 1_555 1_555
H10 C14 1_555 1_555
C15 H11 1_555 1_555
C16 C15 1_555 1_555
H12 C16 1_555 1_555
C17 C16 1_555 1_555
H13 C17 1_555 1_555
C18 C17 1_555 1_555
C19 C18 1_555 1_555
C20 C19 1_555 1_555
C21 C20 1_555 1_555
H14 C21 1_555 1_555
C22 C21 1_555 1_555
H15 C22 1_555 1_555
C23 C22 1_555 1_555
H16 C23 1_555 1_555
C24 C19 1_555 1_555
C25 C24 1_555 1_555
H17 C25 1_555 1_555
C26 C25 1_555 1_555
H18 C26 1_555 1_555
C27 H19 1_555 1_555
C28 C24 1_555 1_555
H20 C28 1_555 1_555
C29 H21 1_555 1_555
H22 C29 1_555 1_555
H23 C29 1_555 1_555
C30 C29 1_555 1_555
C31 C30 1_555 1_555
H24 C31 1_555 1_555
C32 C31 1_555 1_555
C33 C32 1_555 1_555
H25 C33 1_555 1_555
H26 C33 1_555 1_555
H27 C33 1_555 1_555
C34 H28 1_555 1_555
C35 C34 1_555 1_555
H29 C35 1_555 1_555
C36 C35 1_555 1_555
H30 C36 1_555 1_555
C37 C36 1_555 1_555
C38 C37 1_555 1_555
C39 C38 1_555 1_555
C40 C39 1_555 1_555
H31 C40 1_555 1_555
C41 C40 1_555 1_555
H32 C41 1_555 1_555
C42 C41 1_555 1_555
H33 C42 1_555 1_555
C43 C38 1_555 1_555
C44 C43 1_555 1_555
H34 C44 1_555 1_555
C45 C44 1_555 1_555
H35 C45 1_555 1_555
C46 H36 1_555 1_555
C47 C43 1_555 1_555
H37 C47 1_555 1_555
C48 H38 1_555 1_555
C49 C48 1_555 1_555
H39 C49 1_555 1_555
C50 C49 1_555 1_555
H40 C50 1_555 1_555
C51 C50 1_555 1_555
C52 C51 1_555 1_555
C53 C52 1_555 1_555
C54 C53 1_555 1_555
H41 C54 1_555 1_555
C55 C54 1_555 1_555
H42 C55 1_555 1_555
C56 C55 1_555 1_555
H43 C56 1_555 1_555
C57 C52 1_555 1_555
C58 C57 1_555 1_555
H44 C58 1_555 1_555
C59 C58 1_555 1_555
H45 C59 1_555 1_555
C60 H46 1_555 1_555
C61 C57 1_555 1_555
H47 C61 1_555 1_555
C62 H48 1_555 1_555
H49 C62 1_555 1_555
H50 C62 1_555 1_555
C63 C62 1_555 1_555
C64 C63 1_555 1_555
H51 C64 1_555 1_555
C65 C64 1_555 1_555
C66 C65 1_555 1_555
H52 C66 1_555 1_555
H53 C66 1_555 1_555
H54 C66 1_555 1_555
C67 H55 1_555 1_555
H56 C67 1_555 1_555
H57 C67 1_555 1_555
N1 C1 1_555 1_555
N2 C6 1_555 1_555
N3 C12 1_555 1_555
N4 C15 1_555 1_555
N5 C20 1_555 1_555
N6 C26 1_555 1_555
N7 C34 1_555 1_555
N8 C39 1_555 1_555
N9 C45 1_555 1_555
N10 C48 1_555 1_555
N11 C53 1_555 1_555
N12 C59 1_555 1_555
O1 C32 1_555 1_555
O2 C30 1_555 1_555
O3 C65 1_555 1_555
O4 C63 1_555 1_555
O5 C67 1_555 1_555
H58 O5 1_555 1_555
Co1 N1 1_555 1_555
Co2 N7 1_555 1_555
Br1 Cd1 1_555 1_555
Br2 Cd1 1_555 1_555
Br3 Cd2 1_555 1_555
Br4 Cd2 1_555 1_555
Br5 Cd3 1_555 1_555
Cd1 N3 1_555 1_555
Cd2 N12 1_555 1_555
Cd3 N6 1_555 1_555
C68 H59 1_555 1_555
C69 H60 1_555 1_555
H61 C69 1_555 1_555
H62 C69 1_555 1_555
C70 H63 1_555 1_555
H64 C70 1_555 1_555
H65 C70 1_555 1_555
N13 C68 1_555 1_555
O6 C68 1_555 1_555
C71 H66 1_555 1_555
C72 H67 1_555 1_555
H68 C72 1_555 1_555
H69 C72 1_555 1_555
C73 H70 1_555 1_555
H71 C73 1_555 1_555
H72 C73 1_555 1_555
N14 C71 1_555 1_555
O7 C71 1_555 1_555
C74 H73 1_555 1_555
C75 H74 1_555 1_555
H75 C75 1_555 1_555
H76 C75 1_555 1_555
C76 H77 1_555 1_555
H78 C76 1_555 1_555
H79 C76 1_555 1_555
N15 C74 1_555 1_555
O8 C74 1_555 1_555
C77 H80 1_555 1_555
C78 H81 1_555 1_555
H82 C78 1_555 1_555
H83 C78 1_555 1_555
C79 H84 1_555 1_555
H85 C79 1_555 1_555
H86 C79 1_555 1_555
N16 C77 1_555 1_555
O9 C77 1_555 1_555
C80 H87 1_555 1_555
C81 H88 1_555 1_555
H89 C81 1_555 1_555
H90 C81 1_555 1_555
C82 H91 1_555 1_555
H92 C82 1_555 1_555
H93 C82 1_555 1_555
N17 C80 1_555 1_555
O10 C80 1_555 1_555
C83 H94 1_555 1_555
H95 C83 1_555 1_555
H96 C83 1_555 1_555
O11 C83 1_555 1_555
H97 O11 1_555 1_555
C1A H1A 1_555 1_555
C2A C1A 1_555 1_555
H2A C2A 1_555 1_555
C3A C2A 1_555 1_555
H3A C3A 1_555 1_555
C4A C3A 1_555 1_555
C5A C4A 1_555 1_555
C6A C5A 1_555 1_555
C7A C6A 1_555 1_555
H4A C7A 1_555 1_555
C8A C7A 1_555 1_555
H5A C8A 1_555 1_555
C9A C8A 1_555 1_555
H6A C9A 1_555 1_555
C10A C5A 1_555 1_555
C11A C10A 1_555 1_555
H7A C11A 1_555 1_555
C12A C11A 1_555 1_555
H8A C12A 1_555 1_555
C13A C10A 1_555 1_555
H9A C13A 1_555 1_555
C14A C13A 1_555 1_555
H10A C14A 1_555 1_555
C15A H11A 1_555 1_555
C16A C15A 1_555 1_555
H12A C16A 1_555 1_555
C17A C16A 1_555 1_555
H13A C17A 1_555 1_555
C18A C17A 1_555 1_555
C19A C18A 1_555 1_555
C20A C19A 1_555 1_555
C21A C20A 1_555 1_555
H14A C21A 1_555 1_555
C22A C21A 1_555 1_555
H15A C22A 1_555 1_555
C23A C22A 1_555 1_555
H16A C23A 1_555 1_555
C24A C19A 1_555 1_555
C25A C24A 1_555 1_555
H17A C25A 1_555 1_555
C26A C25A 1_555 1_555
H18A C26A 1_555 1_555
C27A H19A 1_555 1_555
C28A C24A 1_555 1_555
H20A C28A 1_555 1_555
C29A H21A 1_555 1_555
H22A C29A 1_555 1_555
H23A C29A 1_555 1_555
C30A C29A 1_555 1_555
C31A C30A 1_555 1_555
H24A C31A 1_555 1_555
C32A C31A 1_555 1_555
C33A C32A 1_555 1_555
H25A C33A 1_555 1_555
H26A C33A 1_555 1_555
H27A C33A 1_555 1_555
C34A H28A 1_555 1_555
C35A C34A 1_555 1_555
H29A C35A 1_555 1_555
C36A C35A 1_555 1_555
H30A C36A 1_555 1_555
C37A C36A 1_555 1_555
C38A C37A 1_555 1_555
C39A C38A 1_555 1_555
C40A C39A 1_555 1_555
H31A C40A 1_555 1_555
C41A C40A 1_555 1_555
H32A C41A 1_555 1_555
C42A C41A 1_555 1_555
H33A C42A 1_555 1_555
C43A C38A 1_555 1_555
C44A C43A 1_555 1_555
H34A C44A 1_555 1_555
C45A C44A 1_555 1_555
H35A C45A 1_555 1_555
C46A H36A 1_555 1_555
C47A C43A 1_555 1_555
H37A C47A 1_555 1_555
C48A H38A 1_555 1_555
C49A C48A 1_555 1_555
H39A C49A 1_555 1_555
C50A C49A 1_555 1_555
H40A C50A 1_555 1_555
C51A C50A 1_555 1_555
C52A C51A 1_555 1_555
C53A C52A 1_555 1_555
C54A C53A 1_555 1_555
H41A C54A 1_555 1_555
C55A C54A 1_555 1_555
H42A C55A 1_555 1_555
C56A C55A 1_555 1_555
H43A C56A 1_555 1_555
C57A C52A 1_555 1_555
C58A C57A 1_555 1_555
H44A C58A 1_555 1_555
C59A C58A 1_555 1_555
H45A C59A 1_555 1_555
C60A H46A 1_555 1_555
C61A C57A 1_555 1_555
H47A C61A 1_555 1_555
C62A H48A 1_555 1_555
H49A C62A 1_555 1_555
H50A C62A 1_555 1_555
C63A C62A 1_555 1_555
C64A C63A 1_555 1_555
H51A C64A 1_555 1_555
C65A C64A 1_555 1_555
C66A C65A 1_555 1_555
H52A C66A 1_555 1_555
H53A C66A 1_555 1_555
H54A C66A 1_555 1_555
C67A H55A 1_555 1_555
H56A C67A 1_555 1_555
H57A C67A 1_555 1_555
N1A C1A 1_555 1_555
N2A C6A 1_555 1_555
N3A C12A 1_555 1_555
N4A C15A 1_555 1_555
N5A C20A 1_555 1_555
N6A C26A 1_555 1_555
N7A C34A 1_555 1_555
N8A C39A 1_555 1_555
N9A Cd3 1_555 1_555
N10A C48A 1_555 1_555
N11A C53A 1_555 1_555
N12A C59A 1_555 1_555
O1A C32A 1_555 1_555
O2A C30A 1_555 1_555
O3A C65A 1_555 1_555
O4A C63A 1_555 1_555
O5A C67A 1_555 1_555
H58A O5A 1_555 1_555
Co1A N1A 1_555 1_555
Co2A N7A 1_555 1_555
Br1A Cd2A 1_555 1_555
Br2A Cd2A 1_555 1_555
Br3A Cd2A 1_555 1_555
Br4A Cd2A 1_555 1_555
Br5A Cd3 1_555 1_555
Cd2A N12A 1_555 1_555
Cd3A N9 1_555 1_555
N3A_2 Cd1 1_555 1_555
Br1A_2 Cd1 1_555 1_555
Br2A_2 Cd1 1_555 1_555
Br3_2 Cd3 1_555 1_555
Br3A_2 Cd3A 1_555 1_555
Br4_2 Cd3 1_555 1_555
Br4A_2 Cd3A 1_555 1_555
Cd1_2 N3A 1_555 1_555
Cd3_2 Br3 1_555 1_555
Cd3A_2 Br3A 1_555 1_555
C4 N1 1_555 1_555
C9 N2 1_555 1_555
C14 N3 1_555 1_555
C18 N4 1_555 1_555
C23 N5 1_555 1_555
C27 C28 1_555 1_555
C27 N6 1_555 1_555
C37 N7 1_555 1_555
C42 N8 1_555 1_555
C46 C47 1_555 1_555
C46 N9 1_555 1_555
C51 N10 1_555 1_555
C56 N11 1_555 1_555
C60 C61 1_555 1_555
C60 N12 1_555 1_555
N2 Co1 1_555 1_555
N4 Co1 1_555 1_555
N5 Co1 1_555 1_555
N8 Co2 1_555 1_555
N10 Co2 1_555 1_555
N11 Co2 1_555 1_555
O1 Co1 1_555 1_555
O2 Co1 1_555 1_555
O3 Co2 1_555 1_555
O4 Co2 1_555 1_555
O5 Cd2 1_555 1_555
Br1 Cd2 1_555 1_555
Br2 Cd2 1_555 1_555
Br4 Cd3_2 1_555 1_555
Br5 Cd3A 1_555 1_555
C69 N13 1_555 1_555
C70 N13 1_555 1_555
C72 N14 1_555 1_555
C73 N14 1_555 1_555
C75 N15 1_555 1_555
C76 N15 1_555 1_555
C78 N16 1_555 1_555
C79 N16 1_555 1_555
C81 N17 1_555 1_555
C82 N17 1_555 1_555
C4A N1A 1_555 1_555
C9A N2A 1_555 1_555
C14A N3A 1_555 1_555
C18A N4A 1_555 1_555
C23A N5A 1_555 1_555
C27A C28A 1_555 1_555
C27A N6A 1_555 1_555
C37A N7A 1_555 1_555
C42A N8A 1_555 1_555
C45A N9A 1_555 1_555
C46A C47A 1_555 1_555
C46A N9A 1_555 1_555
C51A N10A 1_555 1_555
C56A N11A 1_555 1_555
C60A C61A 1_555 1_555
C60A N12A 1_555 1_555
N2A Co1A 1_555 1_555
N4A Co1A 1_555 1_555
N5A Co1A 1_555 1_555
N6A Cd3A 1_555 1_555
N8A Co2A 1_555 1_555
N10A Co2A 1_555 1_555
N11A Co2A 1_555 1_555
O1A Co1A 1_555 1_555
O2A Co1A 1_555 1_555
O3A Co2A 1_555 1_555
O4A Co2A 1_555 1_555
O5A Cd2A 1_555 1_555
Br1A Cd1_2 1_555 1_555
Br2A Cd1_2 1_555 1_555
Br4A Cd3A_2 1_555 1_555
Br5A Cd3A 1_555 1_555

#END
