
#######################################################################
#
#                 Cambridge Crystallographic Data Centre
#                                CCDC 
#
#######################################################################
#
# If this CIF has been generated from an entry in the Cambridge 
# Structural Database, then it will include bibliographic, chemical, 
# crystal, experimental, refinement or atomic coordinate data resulting 
# from the CCDC's data processing and validation procedures.
#
#######################################################################

data_COFTIC
_symmetry_cell_setting           triclinic
_symmetry_space_group_name_H-M   'P -1'
_symmetry_Int_Tables_number      2
_space_group_name_Hall           '-P 1'
loop_
_symmetry_equiv_pos_site_id
_symmetry_equiv_pos_as_xyz
1 x,y,z
2 -x,-y,-z
_cell_length_a                   11.3197(5)
_cell_length_b                   16.7537(9)
_cell_length_c                   24.2708(13)
_cell_angle_alpha                99.224(2)
_cell_angle_beta                 102.917(2)
_cell_angle_gamma                94.544(2)
_cell_volume                     4396.61
loop_
_atom_site_label
_atom_site_type_symbol
_atom_site_fract_x
_atom_site_fract_y
_atom_site_fract_z
C68 C 0.2440(11) 1.3385(6) 0.1358(3)
H47 H 0.1664 1.3044 0.1210
H48 H 0.2772 1.3465 0.1032
C69 C 0.2233(7) 1.4165(5) 0.1647(3)
H49 H 0.1965 1.4097 0.1986
H50 H 0.1618 1.4387 0.1394
H51 H 0.2978 1.4529 0.1751
C70 C 0.3520(11) 1.2249(6) 0.1437(3)
H52 H 0.3970 1.2363 0.1157
H53 H 0.2768 1.1908 0.1233
C71 C 0.4256(7) 1.1799(5) 0.1844(3)
H54 H 0.4952 1.2156 0.2081
H55 H 0.4526 1.1345 0.1631
H56 H 0.3766 1.1606 0.2082
O6 O 0.3238(4) 1.2980(3) 0.17130(17)
C72 C 1.5872(12) 1.2590(6) 0.8446(3)
H57 H 1.6522 1.2806 0.8785
H58 H 1.5226 1.2305 0.8569
C73 C 1.5401(7) 1.3263(5) 0.8192(3)
H59 H 1.6059 1.3594 0.8117
H60 H 1.5025 1.3587 0.8452
H61 H 1.4807 1.3054 0.7837
C74 C 1.6892(13) 1.1424(6) 0.8326(4)
H62 H 1.6368 1.1186 0.8538
H63 H 1.7646 1.1670 0.8599
C75 C 1.7168(8) 1.0778(5) 0.7912(4)
H64 H 1.6425 1.0522 0.7645
H65 H 1.7554 1.0381 0.8111
H66 H 1.7706 1.1005 0.7708
O7 O 1.6320(4) 1.2034(3) 0.80746(18)
C76 C 0.8665(7) 1.1811(5) 0.4619(3)
H67 H 0.8310 1.2228 0.4798
C77 C 1.0306(10) 1.1005(9) 0.4653(5)
H68 H 1.0153 1.0525 0.4807
H69 H 1.1170 1.1167 0.4738
H70 H 0.9986 1.0891 0.4243
C78 C 1.0322(10) 1.2058(9) 0.5476(5)
H71 H 1.0141 1.1738 0.5747
H72 H 1.0038 1.2580 0.5549
H73 H 1.1188 1.2130 0.5513
O8 O 0.8121(4) 1.1470(3) 0.41490(19)
N13 N 0.9725(6) 1.1648(6) 0.4904(3)
N1 N 1.4232(4) 1.0486(3) 0.57976(17)
Cl1 Cl 0.37874(12) 1.27728(8) 0.54059(5)
Cl2 Cl 0.62629(12) 1.33372(7) 0.46587(5)
Cd1 Cd 0.51763(4) 1.41127(2) 0.537479(14)
N2 N 0.6590(4) 1.3612(3) 0.61273(17)
Cl3 Cl 0.34548(12) 1.45431(8) 0.45908(5)
N3 N 0.4482(4) 1.4846(3) 0.61346(17)
C1 C 0.7736(5) 1.3534(4) 0.6091(2)
C2 C 0.6211(5) 1.3312(4) 0.6541(2)
C3 C 0.5286(5) 1.5241(4) 0.6613(2)
C4 C 0.3309(5) 1.4903(3) 0.6094(2)
C5 C 0.8538(5) 1.3179(3) 0.6470(2)
H1 H 0.8008 1.3727 0.5797
H2 H 0.5401 1.3333 0.6558
C6 C 0.6964(5) 1.2967(3) 0.6951(2)
C7 C 0.4932(5) 1.5687(3) 0.7067(2)
H3 H 0.6114 1.5213 0.6640
H4 H 0.2747 1.4633 0.5763
C8 C 0.2886(5) 1.5350(3) 0.6525(2)
C9 C 0.8164(5) 1.2902(3) 0.69176(19)
H5 H 0.9324 1.3127 0.6425
H6 H 0.6670 1.2783 0.7242
C10 C 0.3712(5) 1.5744(3) 0.7022(2)
H7 H 0.5510 1.5944 0.7396
H8 H 0.2055 1.5385 0.6481
C11 C 0.9033(5) 1.2584(3) 0.73618(19)
C12 C 0.3298(5) 1.6221(3) 0.7500(2)
C13 C 0.9358(5) 1.1807(3) 0.7227(2)
C14 C 0.9447(5) 1.3090(3) 0.7896(2)
C15 C 0.2802(5) 1.6937(3) 0.74079(19)
C16 C 0.3460(5) 1.5945(3) 0.8021(2)
N4 N 0.2383(4) 1.7442(2) 0.78205(16)
N5 N 0.3046(4) 1.6324(3) 0.84911(17)
C17 C 0.8782(5) 1.1183(3) 0.6749(2)
N6 N 1.0172(4) 1.1463(2) 0.76182(16)
C18 C 0.9076(5) 1.3849(3) 0.8098(2)
N7 N 1.0366(4) 1.2912(2) 0.83348(16)
C19 C 0.2781(5) 1.7352(3) 0.6936(2)
C20 C 0.4036(5) 1.5273(3) 0.8178(2)
C21 C 0.2174(5) 1.8125(3) 0.7627(2)
C22 C 0.3369(5) 1.5893(3) 0.8907(2)
C23 C 0.9224(5) 1.0474(3) 0.6862(2)
H9 H 0.8212 1.1246 0.6422
C24 C 1.0084(5) 1.0670(3) 0.7398(2)
Co1 Co 1.14063(6) 1.20703(4) 0.82465(2)
H10 H 0.8489 1.4117 0.7892
C25 C 0.9744(5) 1.4116(3) 0.8656(2)
C26 C 1.0528(5) 1.3534(3) 0.8778(2)
C27 C 0.2404(5) 1.8094(3) 0.7078(2)
H11 H 0.2987 1.7152 0.6594
H12 H 0.4391 1.4914 0.7948
C28 C 0.3977(6) 1.5246(4) 0.8737(2)
H13 H 0.1908 1.8568 0.7828
H14 H 0.3206 1.6013 0.9269
H15 H 0.9002 0.9962 0.6630
H16 H 1.0529 1.0298 0.7574
N8 N 1.2032(4) 1.2588(2) 0.77094(15)
N9 N 1.2464(4) 1.1231(2) 0.81718(16)
O1 O 1.0709(3) 1.1538(2) 0.87735(13)
O2 O 1.2713(3) 1.2706(2) 0.88497(13)
H17 H 0.9683 1.4590 0.8902
H18 H 1.1098 1.3571 0.9125
H19 H 0.2316 1.8499 0.6856
H20 H 0.4284 1.4868 0.8957
C29 C 1.1943(5) 1.3351(3) 0.7627(2)
C30 C 1.2439(5) 1.2184(3) 0.72501(18)
C31 C 1.2901(5) 1.0976(3) 0.76857(19)
C32 C 1.2763(5) 1.0708(3) 0.8522(2)
C33 C 1.1109(5) 1.1692(3) 0.9308(2)
C34 C 1.2852(5) 1.2664(3) 0.9376(2)
H21 H 1.1699 1.3754 0.7873
C35 C 1.2270(5) 1.3464(3) 0.7116(2)
C36 C 1.2575(5) 1.2737(3) 0.6875(2)
C37 C 1.2840(5) 1.1415(3) 0.72410(19)
C38 C 1.3476(5) 1.0272(3) 0.7759(2)
C39 C 1.3399(6) 1.0112(3) 0.8288(2)
H22 H 1.2574 1.0735 0.8877
C40 C 1.0422(6) 1.1190(4) 0.9634(2)
C41 C 1.2140(5) 1.2212(4) 0.9629(2)
C42 C 1.3935(6) 1.3255(4) 0.9763(2)
H23 H 1.2277 1.3943 0.6969
H24 H 1.2822 1.2627 0.6533
C43 C 1.3324(5) 1.1085(3) 0.67418(19)
H25 H 1.3838 0.9973 0.7499
H26 H 1.3710 0.9689 0.8458
F1 F 0.9266(4) 1.0962(3) 0.93607(17)
F2 F 1.0434(4) 1.1595(3) 1.01588(16)
F3 F 1.0928(4) 1.0516(3) 0.97103(19)
H27 H 1.2350 1.2254 1.0026
F4 F 1.4350(4) 1.3026(3) 1.02575(17)
F5 F 1.3608(5) 1.3984(3) 0.9881(2)
F6 F 1.4850(4) 1.3346(4) 0.95273(18)
C44 C 1.4530(5) 1.1264(4) 0.6747(2)
C45 C 1.2579(5) 1.0589(4) 0.6260(2)
H28 H 1.5065 1.1586 0.7068
C46 C 1.4938(5) 1.0958(4) 0.6268(2)
C47 C 1.3056(5) 1.0310(4) 0.5798(2)
H29 H 1.1762 1.0443 0.6247
H30 H 1.5755 1.1089 0.6275
H31 H 1.2538 0.9986 0.5473
N10 N -0.3377(4) 1.7558(3) 0.60545(17)
C48 C -0.2226(5) 1.7651(4) 0.6038(2)
C49 C -0.3647(5) 1.7325(4) 0.6514(2)
C50 C -0.1284(5) 1.7535(4) 0.6480(2)
H32 H -0.2033 1.7802 0.5713
H33 H -0.4464 1.7243 0.6524
C51 C -0.2769(5) 1.7201(4) 0.6975(2)
C52 C -0.1569(5) 1.7318(3) 0.6967(2)
H34 H -0.0478 1.7601 0.6451
H35 H -0.2993 1.7039 0.7290
C53 C -0.0596(4) 1.7213(3) 0.74598(19)
C54 C -0.0156(5) 1.6466(3) 0.74512(19)
C55 C -0.0233(5) 1.7874(3) 0.7916(2)
C56 C -0.0606(5) 1.5731(3) 0.7052(2)
N11 N 0.0723(4) 1.6292(2) 0.79098(16)
C57 C -0.0714(5) 1.8631(4) 0.7975(2)
N12 N 0.0687(4) 1.7880(3) 0.84038(17)
C58 C -0.0030(5) 1.5124(3) 0.7274(2)
H36 H -0.1185 1.5672 0.6705
C59 C 0.0774(5) 1.5504(3) 0.7797(2)
Co2 Co 0.18741(6) 1.70992(4) 0.84488(3)
H37 H -0.1332 1.8792 0.7708
C60 C -0.0095(6) 1.9080(4) 0.8498(3)
C61 C 0.0761(6) 1.8609(4) 0.8746(2)
H38 H -0.0147 1.4574 0.7112
H39 H 0.1285 1.5227 0.8036
O3 O 0.3096(3) 1.7917(2) 0.89639(14)
O4 O 0.1269(3) 1.6729(2) 0.90557(14)
H40 H -0.0224 1.9599 0.8657
H41 H 0.1313 1.8776 0.9101
C62 C 0.3239(5) 1.8050(3) 0.9505(2)
C63 C 0.1661(5) 1.7045(4) 0.9579(2)
C64 C 0.4224(6) 1.8750(4) 0.9806(3)
C65 C 0.2593(5) 1.7671(4) 0.9829(2)
C66 C 0.1038(6) 1.6636(4) 0.9975(2)
F7 F 0.3792(5) 1.9450(3) 0.9757(3)
F8 F 0.4653(5) 1.8752(4) 1.03480(19)
F9 F 0.5164(4) 1.8774(3) 0.9576(2)
H42 H 0.2789 1.7840 1.0226
F10 F 0.1109(5) 1.7110(3) 1.04695(17)
F11 F -0.0143(4) 1.6415(4) 0.97440(19)
F12 F 0.1533(6) 1.5984(4) 1.0082(3)
Cd2 Cd 1.5000 1.0000 0.5000
Cl4 Cl 1.35278(12) 0.86080(7) 0.47260(5)
Cl5 Cl 1.33381(12) 1.06592(7) 0.43720(5)
Cd3 Cd 1.51712(4) 0.79682(2) 0.535721(14)
O5 O 1.4342(4) 0.8459(2) 0.61560(16)
C67 C 1.4940(6) 0.9018(4) 0.6657(2)
H43 H 1.4001 0.8706 0.5912
H44 H 1.5785 0.9135 0.6657
H45 H 1.4564 0.9512 0.6667
H46 H 1.4881 0.8789 0.6989
N1A N -0.4232(4) 1.9514(3) 0.42024(17)
Cl1A Cl 0.62126(12) 1.72272(8) 0.45941(5)
Cl2A Cl 0.37371(12) 1.66628(7) 0.53413(5)
Cd1A Cd 0.48237(4) 1.58873(2) 0.462521(14)
N2A N 0.3410(4) 1.6388(3) 0.38727(17)
Cl3A Cl 0.65452(12) 1.54569(8) 0.54092(5)
N3A N 0.5518(4) 1.5154(3) 0.38654(17)
C1A C 0.2264(5) 1.6466(4) 0.3909(2)
C2A C 0.3789(5) 1.6688(4) 0.3459(2)
C3A C 0.4714(5) 1.4759(4) 0.3387(2)
C4A C 0.6691(5) 1.5097(3) 0.3906(2)
C5A C 0.1462(5) 1.6821(3) 0.3530(2)
H1A H 0.1992 1.6273 0.4203
H2A H 0.4599 1.6667 0.3442
C6A C 0.3036(5) 1.7033(3) 0.3049(2)
C7A C 0.5068(5) 1.4313(3) 0.2933(2)
H3A H 0.3886 1.4787 0.3360
H4A H 0.7253 1.5367 0.4237
C8A C 0.7114(5) 1.4650(3) 0.3475(2)
C9A C 0.1836(5) 1.7098(3) 0.30824(19)
H5A H 0.0676 1.6873 0.3575
H6A H 0.3330 1.7217 0.2758
C10A C 0.6288(5) 1.4256(3) 0.2978(2)
H7A H 0.4490 1.4056 0.2604
H8A H 0.7945 1.4615 0.3519
C11A C 0.0967(5) 1.7416(3) 0.26382(19)
C12A C 0.6702(5) 1.3779(3) 0.2500(2)
C13A C 0.0642(5) 1.8193(3) 0.2773(2)
C14A C 0.0553(5) 1.6910(3) 0.2104(2)
C15A C 0.7198(5) 1.3063(3) 0.25921(19)
C16A C 0.6540(5) 1.4055(3) 0.1979(2)
N4A N 0.7617(4) 1.2558(2) 0.21795(16)
N5A N 0.6954(4) 1.3676(3) 0.15089(17)
C17A C 0.1218(5) 1.8817(3) 0.3251(2)
N6A N -0.0172(4) 1.8537(2) 0.23818(16)
C18A C 0.0924(5) 1.6151(3) 0.1902(2)
N7A N -0.0366(4) 1.7088(2) 0.16652(16)
C19A C 0.7219(5) 1.2648(3) 0.3064(2)
C20A C 0.5964(5) 1.4727(3) 0.1822(2)
C21A C 0.7826(5) 1.1875(3) 0.2373(2)
C22A C 0.6631(5) 1.4107(3) 0.1093(2)
C23A C 0.0776(5) 1.9526(3) 0.3138(2)
H9A H 0.1788 1.8754 0.3578
C24A C -0.0084(5) 1.9330(3) 0.2602(2)
Co1A Co -0.14063(6) 1.79297(4) 0.17535(2)
H10A H 0.1511 1.5883 0.2108
C25A C 0.0256(5) 1.5884(3) 0.1344(2)
C26A C -0.0528(5) 1.6466(3) 0.1222(2)
C27A C 0.7596(5) 1.1906(3) 0.2922(2)
H11A H 0.7013 1.2848 0.3406
H12A H 0.5609 1.5086 0.2052
C28A C 0.6023(6) 1.4754(4) 0.1263(2)
H13A H 0.8092 1.1432 0.2172
H14A H 0.6794 1.3987 0.0731
H15A H 0.0998 2.0038 0.3370
H16A H -0.0529 1.9702 0.2426
N8A N -0.2032(4) 1.7412(2) 0.22906(15)
N9A N -0.2464(4) 1.8769(2) 0.18282(16)
O1A O -0.0709(3) 1.8462(2) 0.12265(13)
O2A O -0.2713(3) 1.7294(2) 0.11503(13)
H17A H 0.0317 1.5410 0.1098
H18A H -0.1098 1.6429 0.0875
H19A H 0.7684 1.1501 0.3144
H20A H 0.5716 1.5132 0.1043
C29A C -0.1943(5) 1.6649(3) 0.2373(2)
C30A C -0.2439(5) 1.7816(3) 0.27499(18)
C31A C -0.2901(5) 1.9024(3) 0.23143(19)
C32A C -0.2763(5) 1.9292(3) 0.1478(2)
C33A C -0.1109(5) 1.8308(3) 0.0692(2)
C34A C -0.2852(5) 1.7336(3) 0.0624(2)
H21A H -0.1699 1.6246 0.2127
C35A C -0.2270(5) 1.6536(3) 0.2884(2)
C36A C -0.2575(5) 1.7263(3) 0.3125(2)
C37A C -0.2840(5) 1.8585(3) 0.27590(19)
C38A C -0.3476(5) 1.9728(3) 0.2241(2)
C39A C -0.3399(6) 1.9888(3) 0.1712(2)
H22A H -0.2574 1.9265 0.1123
C40A C -0.0422(6) 1.8810(4) 0.0366(2)
C41A C -0.2140(5) 1.7788(4) 0.0371(2)
C42A C -0.3935(6) 1.6745(4) 0.0237(2)
H23A H -0.2277 1.6057 0.3031
H24A H -0.2822 1.7373 0.3467
C43A C -0.3324(5) 1.8915(3) 0.32582(19)
H25A H -0.3838 2.0027 0.2501
H26A H -0.3710 2.0311 0.1542
F1A F 0.0734(4) 1.9038(3) 0.06393(17)
F2A F -0.0434(4) 1.8405(3) -0.01588(16)
F3A F -0.0928(4) 1.9484(3) 0.02897(19)
H27A H -0.2350 1.7746 -0.0026
F4A F -0.4350(4) 1.6974(3) -0.02575(17)
F5A F -0.3608(5) 1.6016(3) 0.0119(2)
F6A F -0.4850(4) 1.6654(4) 0.04727(18)
C44A C -0.4530(5) 1.8736(4) 0.3253(2)
C45A C -0.2579(5) 1.9411(4) 0.3740(2)
H28A H -0.5065 1.8414 0.2932
C46A C -0.4938(5) 1.9042(4) 0.3732(2)
C47A C -0.3056(5) 1.9690(4) 0.4202(2)
H29A H -0.1762 1.9557 0.3753
H30A H -0.5755 1.8911 0.3725
H31A H -0.2538 2.0014 0.4527
N10A N 1.3377(4) 1.2442(3) 0.39455(17)
C48A C 1.2226(5) 1.2349(4) 0.3962(2)
C49A C 1.3647(5) 1.2675(4) 0.3486(2)
C50A C 1.1284(5) 1.2465(4) 0.3520(2)
H32A H 1.2033 1.2198 0.4287
H33A H 1.4464 1.2757 0.3476
C51A C 1.2769(5) 1.2799(4) 0.3025(2)
C52A C 1.1569(5) 1.2682(3) 0.3033(2)
H34A H 1.0478 1.2399 0.3549
H35A H 1.2993 1.2961 0.2710
C53A C 1.0596(4) 1.2787(3) 0.25402(19)
C54A C 1.0156(5) 1.3534(3) 0.25488(19)
C55A C 1.0233(5) 1.2126(3) 0.2084(2)
C56A C 1.0606(5) 1.4269(3) 0.2948(2)
N11A N 0.9277(4) 1.3708(2) 0.20902(16)
C57A C 1.0714(5) 1.1369(4) 0.2025(2)
N12A N 0.9313(4) 1.2120(3) 0.15962(17)
C58A C 1.0030(5) 1.4876(3) 0.2726(2)
H36A H 1.1185 1.4328 0.3295
C59A C 0.9226(5) 1.4496(3) 0.2203(2)
Co2A Co 0.81259(6) 1.29008(4) 0.15512(3)
H37A H 1.1332 1.1208 0.2292
C60A C 1.0095(6) 1.0920(4) 0.1502(3)
C61A C 0.9239(6) 1.1391(4) 0.1254(2)
H38A H 1.0147 1.5426 0.2888
H39A H 0.8715 1.4773 0.1964
O3A O 0.6904(3) 1.2083(2) 0.10361(14)
O4A O 0.8731(3) 1.3271(2) 0.09443(14)
H40A H 1.0224 1.0401 0.1343
H41A H 0.8687 1.1224 0.0899
C62A C 0.6761(5) 1.1950(3) 0.0495(2)
C63A C 0.8339(5) 1.2955(4) 0.0421(2)
C64A C 0.5776(6) 1.1250(4) 0.0194(3)
C65A C 0.7407(5) 1.2329(4) 0.0171(2)
C66A C 0.8962(6) 1.3364(4) 0.0025(2)
F7A F 0.6208(5) 1.0550(3) 0.0243(3)
F8A F 0.5347(5) 1.1248(4) -0.03480(19)
F9A F 0.4836(4) 1.1226(3) 0.0424(2)
H42A H 0.7211 1.2160 -0.0226
F10A F 0.8891(5) 1.2890(3) -0.04695(17)
F11A F 1.0143(4) 1.3585(4) 0.02560(19)
F12A F 0.8467(6) 1.4016(4) -0.0082(3)
Cl4A Cl 0.64722(12) 1.13920(7) 0.52740(5)
Cd3A Cd 0.48288(4) 1.20318(2) 0.464279(14)
O5A O 0.5658(4) 1.1541(2) 0.38440(16)
C67A C 0.5060(6) 1.0982(4) 0.3343(2)
H43A H 0.5999 1.1294 0.4088
H44A H 0.4215 1.0865 0.3343
H45A H 0.5436 1.0488 0.3333
H46A H 0.5119 1.1211 0.3011
Cl5A Cl 1.66619(12) 0.93408(7) 0.56280(5)
N1A_2 N 1.5768(4) 0.9514(3) 0.42024(17)
Cl1A_2 Cl 1.62126(12) 0.72272(8) 0.45941(5)
Cl2A_2 Cl 1.37371(12) 0.66628(7) 0.53413(5)
N10_2 N 1.6623(4) 0.7558(3) 0.60545(17)
N10A_2 N 0.3377(4) 1.2442(3) 0.39455(17)
Cd2_2 Cd -0.5000 2.0000 0.5000
Cd2_3 Cd 0.5000 1.0000 0.5000
Cl4A_2 Cl 1.64722(12) 1.13920(7) 0.52740(5)
Cl5_2 Cl 0.33381(12) 1.06592(7) 0.43720(5)
Cd3_2 Cd -0.48288(4) 1.79682(2) 0.535721(14)
Cd3_3 Cd 0.51712(4) 1.79682(2) 0.535721(14)
Cd3A_2 Cd 1.48288(4) 1.20318(2) 0.464279(14)
loop_
_geom_bond_atom_site_label_1
_geom_bond_atom_site_label_2
_geom_bond_site_symmetry_1
_geom_bond_site_symmetry_2
N1 C46 1_555 1_555
Cl1 Cd1 1_555 1_555
Cl2 Cd1 1_555 1_555
Cd1 N2 1_555 1_555
N2 C1 1_555 1_555
Cl3 Cd1 1_555 1_555
N3 Cd1 1_555 1_555
C1 C5 1_555 1_555
C2 N2 1_555 1_555
C3 N3 1_555 1_555
C4 N3 1_555 1_555
C5 C9 1_555 1_555
H1 C1 1_555 1_555
H2 C2 1_555 1_555
C6 C2 1_555 1_555
C7 C3 1_555 1_555
H3 C3 1_555 1_555
H4 C4 1_555 1_555
C8 C4 1_555 1_555
C9 C6 1_555 1_555
H5 C5 1_555 1_555
H6 C6 1_555 1_555
C10 C7 1_555 1_555
H7 C7 1_555 1_555
H8 C8 1_555 1_555
C11 C9 1_555 1_555
C12 C10 1_555 1_555
C13 C11 1_555 1_555
C14 C11 1_555 1_555
C15 C12 1_555 1_555
C16 C12 1_555 1_555
N4 C15 1_555 1_555
N5 C16 1_555 1_555
C17 C13 1_555 1_555
N6 C13 1_555 1_555
C18 C14 1_555 1_555
N7 C14 1_555 1_555
C19 C15 1_555 1_555
C20 C16 1_555 1_555
C21 N4 1_555 1_555
C22 N5 1_555 1_555
C23 C17 1_555 1_555
H9 C17 1_555 1_555
C24 N6 1_555 1_555
Co1 N6 1_555 1_555
H10 C18 1_555 1_555
C25 C18 1_555 1_555
C26 N7 1_555 1_555
C27 C19 1_555 1_555
H11 C19 1_555 1_555
H12 C20 1_555 1_555
C28 C20 1_555 1_555
H13 C21 1_555 1_555
H14 C22 1_555 1_555
H15 C23 1_555 1_555
H16 C24 1_555 1_555
N8 Co1 1_555 1_555
N9 Co1 1_555 1_555
O1 Co1 1_555 1_555
O2 Co1 1_555 1_555
H17 C25 1_555 1_555
H18 C26 1_555 1_555
H19 C27 1_555 1_555
H20 C28 1_555 1_555
C29 N8 1_555 1_555
C30 N8 1_555 1_555
C31 N9 1_555 1_555
C32 N9 1_555 1_555
C33 O1 1_555 1_555
C34 O2 1_555 1_555
H21 C29 1_555 1_555
C35 C29 1_555 1_555
C36 C30 1_555 1_555
C37 C30 1_555 1_555
C38 C31 1_555 1_555
C39 C32 1_555 1_555
H22 C32 1_555 1_555
C40 C33 1_555 1_555
C41 C33 1_555 1_555
C42 C34 1_555 1_555
H23 C35 1_555 1_555
H24 C36 1_555 1_555
C43 C37 1_555 1_555
H25 C38 1_555 1_555
H26 C39 1_555 1_555
F1 C40 1_555 1_555
F2 C40 1_555 1_555
F3 C40 1_555 1_555
H27 C41 1_555 1_555
F4 C42 1_555 1_555
F5 C42 1_555 1_555
F6 C42 1_555 1_555
C44 C43 1_555 1_555
C45 C43 1_555 1_555
H28 C44 1_555 1_555
C46 C44 1_555 1_555
C47 N1 1_555 1_555
H29 C45 1_555 1_555
H30 C46 1_555 1_555
H31 C47 1_555 1_555
N10 C48 1_555 1_555
C48 C50 1_555 1_555
C49 N10 1_555 1_555
C50 C52 1_555 1_555
H32 C48 1_555 1_555
H33 C49 1_555 1_555
C51 C49 1_555 1_555
C52 C51 1_555 1_555
H34 C50 1_555 1_555
H35 C51 1_555 1_555
C53 C52 1_555 1_555
C54 C53 1_555 1_555
C55 C53 1_555 1_555
C56 C54 1_555 1_555
N11 C54 1_555 1_555
C57 C55 1_555 1_555
N12 C55 1_555 1_555
C58 C56 1_555 1_555
H36 C56 1_555 1_555
C59 N11 1_555 1_555
Co2 N4 1_555 1_555
H37 C57 1_555 1_555
C60 C57 1_555 1_555
C61 N12 1_555 1_555
H38 C58 1_555 1_555
H39 C59 1_555 1_555
O3 Co2 1_555 1_555
O4 Co2 1_555 1_555
H40 C60 1_555 1_555
H41 C61 1_555 1_555
C62 O3 1_555 1_555
C63 O4 1_555 1_555
C64 C62 1_555 1_555
C65 C62 1_555 1_555
C66 C63 1_555 1_555
F7 C64 1_555 1_555
F8 C64 1_555 1_555
F9 C64 1_555 1_555
H42 C65 1_555 1_555
F10 C66 1_555 1_555
F11 C66 1_555 1_555
F12 C66 1_555 1_555
Cd2 N1 1_555 1_555
Cl4 Cd2 1_555 1_555
Cl5 Cd2 1_555 1_555
Cd3 Cl4 1_555 1_555
O5 Cd3 1_555 1_555
C67 O5 1_555 1_555
H43 O5 1_555 1_555
H44 C67 1_555 1_555
H45 C67 1_555 1_555
H46 C67 1_555 1_555
C68 H47 1_555 1_555
H48 C68 1_555 1_555
C69 C68 1_555 1_555
H49 C69 1_555 1_555
H50 C69 1_555 1_555
H51 C69 1_555 1_555
C70 H52 1_555 1_555
H53 C70 1_555 1_555
C71 C70 1_555 1_555
H54 C71 1_555 1_555
H55 C71 1_555 1_555
H56 C71 1_555 1_555
O6 C68 1_555 1_555
C72 H57 1_555 1_555
H58 C72 1_555 1_555
C73 C72 1_555 1_555
H59 C73 1_555 1_555
H60 C73 1_555 1_555
H61 C73 1_555 1_555
C74 H62 1_555 1_555
H63 C74 1_555 1_555
C75 C74 1_555 1_555
H64 C75 1_555 1_555
H65 C75 1_555 1_555
H66 C75 1_555 1_555
O7 C72 1_555 1_555
C76 H67 1_555 1_555
C77 H68 1_555 1_555
H69 C77 1_555 1_555
H70 C77 1_555 1_555
C78 H71 1_555 1_555
H72 C78 1_555 1_555
H73 C78 1_555 1_555
O8 C76 1_555 1_555
N13 C76 1_555 1_555
N1A C46A 1_555 1_555
Cl1A Cd1A 1_555 1_555
Cl2A Cd1A 1_555 1_555
Cd1A Cl3 1_555 1_555
N2A Cd1A 1_555 1_555
Cl3A Cd1 1_555 1_555
N3A Cd1A 1_555 1_555
C1A N2A 1_555 1_555
C2A N2A 1_555 1_555
C3A N3A 1_555 1_555
C4A N3A 1_555 1_555
C5A C1A 1_555 1_555
H1A C1A 1_555 1_555
H2A C2A 1_555 1_555
C6A C2A 1_555 1_555
C7A C3A 1_555 1_555
H3A C3A 1_555 1_555
H4A C4A 1_555 1_555
C8A C4A 1_555 1_555
C9A C5A 1_555 1_555
H5A C5A 1_555 1_555
H6A C6A 1_555 1_555
C10A C7A 1_555 1_555
H7A C7A 1_555 1_555
H8A C8A 1_555 1_555
C11A C9A 1_555 1_555
C12A C10A 1_555 1_555
C13A C11A 1_555 1_555
C14A C11A 1_555 1_555
C15A C12A 1_555 1_555
C16A C12A 1_555 1_555
N4A C15A 1_555 1_555
N5A C16A 1_555 1_555
C17A C13A 1_555 1_555
N6A C13A 1_555 1_555
C18A C14A 1_555 1_555
N7A C14A 1_555 1_555
C19A C15A 1_555 1_555
C20A C16A 1_555 1_555
C21A N4A 1_555 1_555
C22A N5A 1_555 1_555
C23A C17A 1_555 1_555
H9A C17A 1_555 1_555
C24A N6A 1_555 1_555
Co1A N6A 1_555 1_555
H10A C18A 1_555 1_555
C25A C18A 1_555 1_555
C26A N7A 1_555 1_555
C27A C19A 1_555 1_555
H11A C19A 1_555 1_555
H12A C20A 1_555 1_555
C28A C20A 1_555 1_555
H13A C21A 1_555 1_555
H14A C22A 1_555 1_555
H15A C23A 1_555 1_555
H16A C24A 1_555 1_555
N8A Co1A 1_555 1_555
N9A Co1A 1_555 1_555
O1A Co1A 1_555 1_555
O2A Co1A 1_555 1_555
H17A C25A 1_555 1_555
H18A C26A 1_555 1_555
H19A C27A 1_555 1_555
H20A C28A 1_555 1_555
C29A N8A 1_555 1_555
C30A N8A 1_555 1_555
C31A N9A 1_555 1_555
C32A N9A 1_555 1_555
C33A O1A 1_555 1_555
C34A O2A 1_555 1_555
H21A C29A 1_555 1_555
C35A C29A 1_555 1_555
C36A C30A 1_555 1_555
C37A C30A 1_555 1_555
C38A C31A 1_555 1_555
C39A C32A 1_555 1_555
H22A C32A 1_555 1_555
C40A C33A 1_555 1_555
C41A C33A 1_555 1_555
C42A C34A 1_555 1_555
H23A C35A 1_555 1_555
H24A C36A 1_555 1_555
C43A C37A 1_555 1_555
H25A C38A 1_555 1_555
H26A C39A 1_555 1_555
F1A C40A 1_555 1_555
F2A C40A 1_555 1_555
F3A C40A 1_555 1_555
H27A C41A 1_555 1_555
F4A C42A 1_555 1_555
F5A C42A 1_555 1_555
F6A C42A 1_555 1_555
C44A C43A 1_555 1_555
C45A C43A 1_555 1_555
H28A C44A 1_555 1_555
C46A C44A 1_555 1_555
C47A N1A 1_555 1_555
H29A C45A 1_555 1_555
H30A C46A 1_555 1_555
H31A C47A 1_555 1_555
N10A C48A 1_555 1_555
C48A C50A 1_555 1_555
C49A N10A 1_555 1_555
C50A C52A 1_555 1_555
H32A C48A 1_555 1_555
H33A C49A 1_555 1_555
C51A C49A 1_555 1_555
C52A C51A 1_555 1_555
H34A C50A 1_555 1_555
H35A C51A 1_555 1_555
C53A C52A 1_555 1_555
C54A C53A 1_555 1_555
C55A C53A 1_555 1_555
C56A C54A 1_555 1_555
N11A C54A 1_555 1_555
C57A C55A 1_555 1_555
N12A C55A 1_555 1_555
C58A C56A 1_555 1_555
H36A C56A 1_555 1_555
C59A N11A 1_555 1_555
Co2A N4A 1_555 1_555
H37A C57A 1_555 1_555
C60A C57A 1_555 1_555
C61A N12A 1_555 1_555
H38A C58A 1_555 1_555
H39A C59A 1_555 1_555
O3A Co2A 1_555 1_555
O4A Co2A 1_555 1_555
H40A C60A 1_555 1_555
H41A C61A 1_555 1_555
C62A O3A 1_555 1_555
C63A O4A 1_555 1_555
C64A C62A 1_555 1_555
C65A C62A 1_555 1_555
C66A C63A 1_555 1_555
F7A C64A 1_555 1_555
F8A C64A 1_555 1_555
F9A C64A 1_555 1_555
H42A C65A 1_555 1_555
F10A C66A 1_555 1_555
F11A C66A 1_555 1_555
F12A C66A 1_555 1_555
Cl4A Cd3A 1_555 1_555
Cd3A Cl1 1_555 1_555
O5A Cd3A 1_555 1_555
C67A O5A 1_555 1_555
H43A O5A 1_555 1_555
H44A C67A 1_555 1_555
H45A C67A 1_555 1_555
H46A C67A 1_555 1_555
Cl5A Cd2 1_555 1_555
N1A_2 Cd2 1_555 1_555
Cl1A_2 Cd3 1_555 1_555
Cl2A_2 Cd3 1_555 1_555
N10_2 Cd3 1_555 1_555
N10A_2 Cd3A 1_555 1_555
Cd2_2 N1A 1_555 1_555
Cd2_3 Cl4A 1_555 1_555
Cl4A_2 Cd2 1_555 1_555
Cl5_2 Cd3A 1_555 1_555
Cd3_2 N10 1_555 1_555
Cd3_3 Cl1A 1_555 1_555
Cd3A_2 Cl5 1_555 1_555
Cl2 Cd3A 1_555 1_555
C8 C10 1_555 1_555
N5 Co2 1_555 1_555
N7 Co1 1_555 1_555
C21 C27 1_555 1_555
C22 C28 1_555 1_555
C23 C24 1_555 1_555
C25 C26 1_555 1_555
C31 C37 1_555 1_555
C34 C41 1_555 1_555
C35 C36 1_555 1_555
C38 C39 1_555 1_555
C45 C47 1_555 1_555
N11 Co2 1_555 1_555
N12 Co2 1_555 1_555
C58 C59 1_555 1_555
C60 C61 1_555 1_555
C63 C65 1_555 1_555
Cd3 Cl5A 1_555 1_555
C70 O6 1_555 1_555
C74 O7 1_555 1_555
C77 N13 1_555 1_555
C78 N13 1_555 1_555
Cl2A Cd3_3 1_555 1_555
Cd1A Cl3A 1_555 1_555
C6A C9A 1_555 1_555
C8A C10A 1_555 1_555
N5A Co2A 1_555 1_555
N7A Co1A 1_555 1_555
C21A C27A 1_555 1_555
C22A C28A 1_555 1_555
C23A C24A 1_555 1_555
C25A C26A 1_555 1_555
C31A C37A 1_555 1_555
C34A C41A 1_555 1_555
C35A C36A 1_555 1_555
C38A C39A 1_555 1_555
C45A C47A 1_555 1_555
N10A Cd3A_2 1_555 1_555
N11A Co2A 1_555 1_555
N12A Co2A 1_555 1_555
C58A C59A 1_555 1_555
C60A C61A 1_555 1_555
C63A C65A 1_555 1_555
Cd2_3 Cl5_2 1_555 1_555
Cl4A_2 Cd3A_2 1_555 1_555

#END
