
#######################################################################
#
#                 Cambridge Crystallographic Data Centre
#                                CCDC 
#
#######################################################################
#
# If this CIF has been generated from an entry in the Cambridge 
# Structural Database, then it will include bibliographic, chemical, 
# crystal, experimental, refinement or atomic coordinate data resulting 
# from the CCDC's data processing and validation procedures.
#
#######################################################################

data_COFZUT
_symmetry_cell_setting           monoclinic
_symmetry_space_group_name_H-M   'P 21/c'
_symmetry_Int_Tables_number      14
_space_group_name_Hall           '-P 2ybc'
loop_
_symmetry_equiv_pos_site_id
_symmetry_equiv_pos_as_xyz
1 x,y,z
2 -x,1/2+y,1/2-z
3 -x,-y,-z
4 x,1/2-y,1/2+z
_cell_length_a                   11.816(4)
_cell_length_b                   16.736(5)
_cell_length_c                   18.701(6)
_cell_angle_alpha                90
_cell_angle_beta                 98.545(6)
_cell_angle_gamma                90
_cell_volume                     3657.12
loop_
_atom_site_label
_atom_site_type_symbol
_atom_site_fract_x
_atom_site_fract_y
_atom_site_fract_z
Fe1 Fe 0.38597(4) 0.01770(3) 0.20296(2)
Na1 Na 0.65087(17) 0.20227(12) 0.24684(10)
N1 N 0.5309(2) -0.02673(15) 0.19231(13)
N2 N 0.3385(2) -0.08530(14) 0.17282(13)
N3 N 0.2266(2) 0.03033(14) 0.20293(14)
N4 N 0.4312(2) 0.11494(19) 0.22697(17)
N5 N 0.4595(4) 0.1760(3) 0.2392(3)
C1 C 0.6332(3) -0.1489(2) 0.1595(2)
H1 H 0.6999 -0.1151 0.1718
H2 H 0.6276 -0.1655 0.1094
H3 H 0.6405 -0.1957 0.1905
C2 C 0.5315(3) -0.10496(18) 0.16964(17)
C3 C 0.4184(3) -0.13855(17) 0.15655(16)
C4 C 0.3823(3) -0.21392(19) 0.12854(19)
H4 H 0.4357 -0.2512 0.1162
C5 C 0.2664(3) -0.2323(2) 0.1194(2)
H5 H 0.2416 -0.2822 0.1001
C6 C 0.1863(3) -0.17812(19) 0.13836(18)
H6 H 0.1084 -0.1919 0.1337
C7 C 0.2242(3) -0.10270(19) 0.16449(17)
C8 C 0.1591(3) -0.03504(18) 0.18338(17)
C9 C 0.0380(3) -0.0379(2) 0.1810(2)
H7 H -0.0016 0.0075 0.1935
H8 H -0.0022 -0.0852 0.1670
C10 C 0.6783(3) 0.0547(2) 0.14721(17)
C11 C 0.7780(3) 0.1004(2) 0.1628(2)
H9 H 0.8058 0.1275 0.1249
C12 C 0.8371(3) 0.1069(2) 0.2322(2)
H10 H 0.9037 0.1383 0.2414
C13 C 0.7968(3) 0.0667(2) 0.2878(2)
H11 H 0.8373 0.0705 0.3349
C14 C 0.6978(3) 0.0206(2) 0.27583(18)
C15 C 0.6372(3) 0.01533(19) 0.20508(17)
C16 C 0.6160(3) 0.0493(2) 0.07023(18)
H12 H 0.5593 0.0056 0.0685
C17 C 0.6972(4) 0.0294(3) 0.0161(2)
H13 H 0.7372 -0.0200 0.0303
H14 H 0.7522 0.0723 0.0156
H15 H 0.6535 0.0234 -0.0317
C18 C 0.5511(4) 0.1262(3) 0.0492(2)
H16 H 0.4999 0.1376 0.0839
H17 H 0.5070 0.1203 0.0014
H18 H 0.6051 0.1699 0.0488
C19 C 0.6565(4) -0.0243(2) 0.3378(2)
H19 H 0.5861 -0.0534 0.3176
C20 C 0.7427(6) -0.0857(4) 0.3712(3)
H20 H 0.7599 -0.1223 0.3341
H21 H 0.7112 -0.1151 0.4083
H22 H 0.8124 -0.0588 0.3925
C21 C 0.6259(5) 0.0315(3) 0.3948(3)
H23 H 0.5694 0.0697 0.3728
H24 H 0.6939 0.0597 0.4169
H25 H 0.5945 0.0012 0.4314
C22 C 0.1334(3) 0.15506(19) 0.15681(19)
C23 C 0.0886(3) 0.2290(2) 0.1710(2)
H26 H 0.0611 0.2626 0.1320
C24 C 0.0831(3) 0.2548(2) 0.2404(2)
H27 H 0.0529 0.3054 0.2484
C25 C 0.1221(3) 0.2057(2) 0.2978(2)
H28 H 0.1185 0.2234 0.3451
C26 C 0.1672(3) 0.1299(2) 0.28719(18)
C27 C 0.1726(3) 0.10466(18) 0.21611(17)
C28 C 0.1432(3) 0.1311(2) 0.07898(19)
H29 H 0.1799 0.0778 0.0806
C29 C 0.0267(4) 0.1241(4) 0.0321(2)
H30 H 0.0369 0.1089 -0.0166
H31 H -0.0124 0.1752 0.0308
H32 H -0.0186 0.0839 0.0522
C30 C 0.2213(5) 0.1897(3) 0.0466(3)
H33 H 0.2947 0.1926 0.0775
H34 H 0.1862 0.2422 0.0427
H35 H 0.2325 0.1714 -0.0011
C31 C 0.2094(3) 0.0782(2) 0.35204(19)
H36 H 0.2398 0.0284 0.3337
C32 C 0.1126(4) 0.0545(3) 0.3940(3)
H37 H 0.0515 0.0292 0.3614
H38 H 0.0833 0.1019 0.4149
H39 H 0.1417 0.0175 0.4323
C33 C 0.3072(4) 0.1177(3) 0.4022(2)
H40 H 0.3678 0.1320 0.3748
H41 H 0.3367 0.0807 0.4404
H42 H 0.2793 0.1654 0.4232
O1 O 0.6800(3) 0.29805(19) 0.17087(17)
C34 C 0.5890(6) 0.3454(4) 0.1361(3)
H43 H 0.5791 0.3933 0.1646
H44 H 0.5172 0.3150 0.1296
C35 C 0.6214(8) 0.3676(4) 0.0646(4)
H45 H 0.6141 0.4254 0.0567
H46 H 0.5723 0.3401 0.0254
C36 C 0.7446(8) 0.3416(4) 0.0677(3)
H47 H 0.7504 0.2939 0.0381
H48 H 0.7912 0.3843 0.0511
C37 C 0.7809(5) 0.3241(3) 0.1461(3)
H49 H 0.8396 0.2823 0.1527
H50 H 0.8112 0.3722 0.1721
Na1A Na 0.34913(17) -0.29773(12) 0.25316(10)
C4A C 0.6177(3) 0.28608(19) 0.37146(19)
H4A H 0.5643 0.2488 0.3838
C5A C 0.7336(3) 0.2677(2) 0.3806(2)
H5A H 0.7584 0.2178 0.3999
loop_
_geom_bond_atom_site_label_1
_geom_bond_atom_site_label_2
_geom_bond_site_symmetry_1
_geom_bond_site_symmetry_2
Fe1 N1 1_555 1_555
Na1 N4 1_555 1_555
N1 C2 1_555 1_555
N2 Fe1 1_555 1_555
N3 Fe1 1_555 1_555
N4 Fe1 1_555 1_555
N5 Na1 1_555 1_555
C1 H1 1_555 1_555
H2 C1 1_555 1_555
H3 C1 1_555 1_555
C2 C1 1_555 1_555
C3 N2 1_555 1_555
C4 C3 1_555 1_555
H4 C4 1_555 1_555
C5 C4 1_555 1_555
H5 C5 1_555 1_555
C6 C5 1_555 1_555
H6 C6 1_555 1_555
C7 N2 1_555 1_555
C8 N3 1_555 1_555
C9 C8 1_555 1_555
H7 C9 1_555 1_555
H8 C9 1_555 1_555
C10 C11 1_555 1_555
C11 Na1 1_555 1_555
H9 C11 1_555 1_555
C12 Na1 1_555 1_555
H10 C12 1_555 1_555
C13 Na1 1_555 1_555
H11 C13 1_555 1_555
C14 Na1 1_555 1_555
C15 N1 1_555 1_555
C16 C10 1_555 1_555
H12 C16 1_555 1_555
C17 C16 1_555 1_555
H13 C17 1_555 1_555
H14 C17 1_555 1_555
H15 C17 1_555 1_555
C18 C16 1_555 1_555
H16 C18 1_555 1_555
H17 C18 1_555 1_555
H18 C18 1_555 1_555
C19 C14 1_555 1_555
H19 C19 1_555 1_555
C20 C19 1_555 1_555
H20 C20 1_555 1_555
H21 C20 1_555 1_555
H22 C20 1_555 1_555
C21 C19 1_555 1_555
H23 C21 1_555 1_555
H24 C21 1_555 1_555
H25 C21 1_555 1_555
C22 C23 1_555 1_555
C23 H26 1_555 1_555
C24 C23 1_555 1_555
H27 C24 1_555 1_555
C25 C24 1_555 1_555
H28 C25 1_555 1_555
C26 C25 1_555 1_555
C27 N3 1_555 1_555
C28 C22 1_555 1_555
H29 C28 1_555 1_555
C29 C28 1_555 1_555
H30 C29 1_555 1_555
H31 C29 1_555 1_555
H32 C29 1_555 1_555
C30 C28 1_555 1_555
H33 C30 1_555 1_555
H34 C30 1_555 1_555
H35 C30 1_555 1_555
C31 C26 1_555 1_555
H36 C31 1_555 1_555
C32 C31 1_555 1_555
H37 C32 1_555 1_555
H38 C32 1_555 1_555
H39 C32 1_555 1_555
C33 C31 1_555 1_555
H40 C33 1_555 1_555
H41 C33 1_555 1_555
H42 C33 1_555 1_555
O1 Na1 1_555 1_555
C34 O1 1_555 1_555
H43 C34 1_555 1_555
H44 C34 1_555 1_555
C35 C34 1_555 1_555
H45 C35 1_555 1_555
H46 C35 1_555 1_555
C36 C35 1_555 1_555
H47 C36 1_555 1_555
H48 C36 1_555 1_555
C37 O1 1_555 1_555
H49 C37 1_555 1_555
H50 C37 1_555 1_555
Na1A C4 1_555 1_555
C4A Na1 1_555 1_555
H4A C4A 1_555 1_555
C5A Na1 1_555 1_555
H5A C5A 1_555 1_555
N4 N5 1_555 1_555
C2 C3 1_555 1_555
C5 Na1A 1_555 1_555
C6 C7 1_555 1_555
C7 C8 1_555 1_555
C10 C15 1_555 1_555
C11 C12 1_555 1_555
C12 C13 1_555 1_555
C13 C14 1_555 1_555
C14 C15 1_555 1_555
C22 C27 1_555 1_555
C26 C27 1_555 1_555
C36 C37 1_555 1_555
C4A C5A 1_555 1_555

#END
