
#######################################################################
#
#                 Cambridge Crystallographic Data Centre
#                                CCDC 
#
#######################################################################
#
# If this CIF has been generated from an entry in the Cambridge 
# Structural Database, then it will include bibliographic, chemical, 
# crystal, experimental, refinement or atomic coordinate data resulting 
# from the CCDC's data processing and validation procedures.
#
#######################################################################

data_COGLOA
_symmetry_cell_setting           monoclinic
_symmetry_space_group_name_H-M   'C 2/c'
_symmetry_Int_Tables_number      15
_space_group_name_Hall           '-C 2yn'
loop_
_symmetry_equiv_pos_site_id
_symmetry_equiv_pos_as_xyz
1 x,y,z
2 1/2+x,1/2+y,z
3 -x,y,1/2-z
4 1/2-x,1/2+y,1/2-z
5 -x,-y,-z
6 1/2-x,1/2-y,-z
7 x,-y,1/2+z
8 1/2+x,1/2-y,1/2+z
_cell_length_a                   20.7315(16)
_cell_length_b                   8.8557(7)
_cell_length_c                   12.0833(10)
_cell_angle_alpha                90
_cell_angle_beta                 110.7310(10)
_cell_angle_gamma                90
_cell_volume                     2074.76
loop_
_atom_site_label
_atom_site_type_symbol
_atom_site_fract_x
_atom_site_fract_y
_atom_site_fract_z
Cu1 Cu 0.15626(3) 0.50272(6) -0.25847(5)
Cu2 Cu 0.25244(3) 0.66443(6) 0.09491(5)
C1 C 0.14400(19) 0.1705(4) -0.0667(3)
C2 C 0.1549(2) 0.0774(5) 0.0308(4)
H1 H 0.1933 0.0146 0.0564
C3 C 0.1083(2) 0.0781(6) 0.0902(4)
H2 H 0.1160 0.0146 0.1550
C4 C 0.0517(2) 0.1699(5) 0.0556(4)
H3 H 0.0213 0.1704 0.0966
C5 C 0.0406(2) 0.2628(5) -0.0426(4)
C6 C 0.0866(2) 0.2638(5) -0.1029(4)
H4 H 0.0788 0.3273 -0.1676
C7 C 0.19110(19) 0.1716(4) -0.1339(3)
C8 C -0.0186(2) 0.3607(5) -0.0872(4)
I1 I 0.138040(13) 0.68540(3) -0.09594(2)
N1 N 0.19388(17) 0.2834(4) -0.2067(3)
N2 N 0.24022(16) 0.2385(4) -0.2540(3)
N3 N 0.26482(17) 0.1082(4) -0.2094(3)
N4 N 0.23487(16) 0.0615(4) -0.1346(3)
N5 N -0.06520(18) 0.4374(4) -0.1287(3)
Cu1B Cu -0.15626(3) 0.50272(6) -0.24153(5)
Cu1C Cu 0.34374(3) 0.00272(6) -0.24153(5)
Cu2E Cu 0.24756(3) 0.83557(6) -0.09491(5)
Cu2E_2 Cu 0.24756(3) -0.16443(6) -0.09491(5)
Cu2F Cu 0.25244(3) 0.33557(6) -0.40509(5)
I1E I 0.361960(13) 0.81460(3) 0.09594(2)
N2F N 0.24022(16) 0.7615(4) 0.2460(3)
N3C N 0.23518(17) 0.6082(4) -0.2906(3)
N4E N 0.26513(16) 0.4385(4) 0.1346(3)
N5B N 0.06520(18) 0.4374(4) -0.3713(3)
loop_
_geom_bond_atom_site_label_1
_geom_bond_atom_site_label_2
_geom_bond_site_symmetry_1
_geom_bond_site_symmetry_2
Cu1 I1 1_555 1_555
Cu2 I1 1_555 1_555
C1 C2 1_555 1_555
C2 H1 1_555 1_555
C3 C2 1_555 1_555
H2 C3 1_555 1_555
C4 C3 1_555 1_555
H3 C4 1_555 1_555
C5 C4 1_555 1_555
C6 C1 1_555 1_555
H4 C6 1_555 1_555
C7 C1 1_555 1_555
C8 C5 1_555 1_555
I1 Cu2E 1_555 1_555
N1 Cu1 1_555 1_555
N2 N1 1_555 1_555
N3 N2 1_555 1_555
N4 C7 1_555 1_555
N5 C8 1_555 1_555
Cu1B N5 1_555 1_555
Cu1C N3 1_555 1_555
Cu2E I1E 1_555 1_555
Cu2E_2 N4 1_555 1_555
Cu2F N2 1_555 1_555
I1E Cu2 1_555 1_555
N2F Cu2 1_555 1_555
N3C Cu1 1_555 1_555
N4E Cu2 1_555 1_555
N5B Cu1 1_555 1_555
C5 C6 1_555 1_555
C7 N1 1_555 1_555
N3 N4 1_555 1_555

#END
