
#######################################################################
#
#                 Cambridge Crystallographic Data Centre
#                                CCDC 
#
#######################################################################
#
# If this CIF has been generated from an entry in the Cambridge 
# Structural Database, then it will include bibliographic, chemical, 
# crystal, experimental, refinement or atomic coordinate data resulting 
# from the CCDC's data processing and validation procedures.
#
#######################################################################

data_COGLOB
_symmetry_cell_setting           triclinic
_symmetry_space_group_name_H-M   'P -1'
_symmetry_Int_Tables_number      2
_space_group_name_Hall           '-P 1'
loop_
_symmetry_equiv_pos_site_id
_symmetry_equiv_pos_as_xyz
1 x,y,z
2 -x,-y,-z
_cell_length_a                   9.0362(3)
_cell_length_b                   10.8215(4)
_cell_length_c                   11.7411(3)
_cell_angle_alpha                80.775(3)
_cell_angle_beta                 80.888(2)
_cell_angle_gamma                76.343(3)
_cell_volume                     1092.49
loop_
_atom_site_label
_atom_site_type_symbol
_atom_site_fract_x
_atom_site_fract_y
_atom_site_fract_z
La1 La 0.911770(15) 0.671887(14) 0.584766(13)
K1 K 0.75731(7) 1.07023(6) 0.50559(6)
C1 C 0.5087(3) 0.6772(3) 0.6850(3)
H1 H 0.4392 0.6686 0.7586
H2 H 0.4552 0.6647 0.6218
C2 C 0.5366(3) 0.8123(3) 0.6625(3)
C3 C 0.6368(3) 0.4665(3) 0.6324(3)
H3 H 0.5648 0.5001 0.5737
H4 H 0.5932 0.4028 0.6898
C4 C 0.7881(3) 0.3997(3) 0.5727(3)
C5 C 0.8621(3) 0.8385(3) 0.8294(3)
H5 H 0.9033 0.8582 0.8960
H6 H 0.7488 0.8557 0.8467
C6 C 0.9067(3) 0.9249(3) 0.7211(3)
C7 C 1.0873(3) 0.6674(3) 0.8278(3)
H7 H 1.1006 0.6602 0.9108
H8 H 1.1365 0.7366 0.7848
C8 C 1.1657(3) 0.5423(3) 0.7818(3)
C9 C 0.6637(3) 0.5218(3) 0.8163(3)
H9 H 0.7546 0.4498 0.8182
H10 H 0.5726 0.4861 0.8495
C10 C 0.6801(3) 0.6156(3) 0.8952(3)
H11 H 0.6261 0.5934 0.9733
H12 H 0.6268 0.7026 0.8646
C11 C 0.8434(3) 0.6209(3) 0.9092(3)
H13 H 0.8409 0.6530 0.9840
H14 H 0.9065 0.5325 0.9143
N1 N 0.6482(2) 0.5739(2) 0.6928(2)
N2 N 0.9208(2) 0.7017(2) 0.8158(2)
O1 O 0.6706(2) 0.83007(19) 0.63353(18)
O2 O 0.4181(2) 0.9008(2) 0.67119(19)
O3 O 0.9082(2) 0.43917(18) 0.58105(18)
O4 O 0.7920(2) 0.3132(2) 0.5138(2)
O5 O 0.9757(2) 0.87439(19) 0.63222(18)
O6 O 0.8695(2) 1.04333(19) 0.72481(19)
O7 O 1.1063(2) 0.5129(2) 0.7015(2)
O8 O 1.2832(2) 0.4783(2) 0.8218(2)
O9 O 0.9082(2) 0.8465(2) 0.40364(18)
H15 H 0.986(2) 0.878(3) 0.378(2)
H16 H 0.877(3) 0.821(3) 0.3489(19)
O10 O 0.7329(2) 0.6578(2) 0.44080(19)
H17 H 0.768(3) 0.612(2) 0.386(2)
H18 H 0.667(3) 0.723(2) 0.417(2)
O11 O 0.4814(2) 1.1425(2) 0.6388(2)
H19 H 0.458(4) 1.0702(18) 0.648(3)
H20 H 0.497(4) 1.160(3) 0.7031(17)
La1A La 1.088230(15) 0.328113(14) 0.415234(13)
K1_2 K 0.75731(7) 0.07023(6) 0.50559(6)
K1A K 0.24269(7) 0.92977(6) 0.49441(6)
K1A_2 K 1.24269(7) 0.92977(6) 0.49441(6)
O2A O 0.5819(2) 1.0992(2) 0.32881(19)
O3A O 1.0918(2) 0.56083(18) 0.41895(18)
O4_2 O 0.7920(2) 1.3132(2) 0.5138(2)
O4A O 1.2080(2) 0.6868(2) 0.4862(2)
O5A O 1.0243(2) 1.12561(19) 0.36778(18)
O12 O 0.4717(5) 1.2276(3) 0.8500(4)
H21 H 0.377(2) 1.227(5) 0.845(5)
H22 H 0.472(5) 1.297(3) 0.876(5)
O13 O 0.9018(5) 0.7726(4) 0.1810(3)
H23 H 0.851(5) 0.850(2) 0.174(5)
H24 H 0.995(2) 0.771(5) 0.152(5)
O14 O 0.7962(5) 1.1930(3) 0.9048(3)
H25 H 0.850(6) 1.165(5) 0.961(3)
H26 H 0.812(6) 1.135(4) 0.860(4)
O15 O 0.7810(5) 1.0464(5) 0.1263(3)
H27 H 0.737(6) 1.064(7) 0.193(3)
H28 H 0.717(5) 1.029(7) 0.089(4)
O16 O 0.4971(12) 0.9560(8) 0.9736(9)
H29 H 0.521(8) 0.877(2) 0.999(6)
loop_
_geom_bond_atom_site_label_1
_geom_bond_atom_site_label_2
_geom_bond_site_symmetry_1
_geom_bond_site_symmetry_2
La1 N1 1_555 1_555
K1 O1 1_555 1_555
C1 H1 1_555 1_555
H2 C1 1_555 1_555
C2 C1 1_555 1_555
C3 H3 1_555 1_555
H4 C3 1_555 1_555
C4 C3 1_555 1_555
C5 H5 1_555 1_555
H6 C5 1_555 1_555
C6 C5 1_555 1_555
C7 H7 1_555 1_555
H8 C7 1_555 1_555
C8 C7 1_555 1_555
C9 H9 1_555 1_555
H10 C9 1_555 1_555
C10 C9 1_555 1_555
H11 C10 1_555 1_555
H12 C10 1_555 1_555
C11 C10 1_555 1_555
H13 C11 1_555 1_555
H14 C11 1_555 1_555
N1 C1 1_555 1_555
N2 La1 1_555 1_555
O1 La1 1_555 1_555
O2 C2 1_555 1_555
O3 La1 1_555 1_555
O4 C4 1_555 1_555
O5 La1 1_555 1_555
O6 K1 1_555 1_555
O7 La1 1_555 1_555
O8 C8 1_555 1_555
O9 La1 1_555 1_555
H15 O9 1_555 1_555
H16 O9 1_555 1_555
O10 La1 1_555 1_555
H17 O10 1_555 1_555
H18 O10 1_555 1_555
O11 K1 1_555 1_555
H19 O11 1_555 1_555
H20 O11 1_555 1_555
O12 H21 1_555 1_555
H22 O12 1_555 1_555
O13 H23 1_555 1_555
H24 O13 1_555 1_555
O14 H25 1_555 1_555
H26 O14 1_555 1_555
O15 H27 1_555 1_555
H28 O15 1_555 1_555
O16 H29 1_555 1_555
La1A O3 1_555 1_555
K1_2 O4 1_555 1_555
K1A O2 1_555 1_555
K1A_2 O5 1_555 1_555
O2A K1 1_555 1_555
O3A La1 1_555 1_555
O4_2 K1 1_555 1_555
O4A La1 1_555 1_555
O5A K1 1_555 1_555
K1 O5 1_555 1_555
K1 O9 1_555 1_555
C2 O1 1_555 1_555
C3 N1 1_555 1_555
C4 O3 1_555 1_555
C5 N2 1_555 1_555
C6 O5 1_555 1_555
C6 O6 1_555 1_555
C7 N2 1_555 1_555
C8 O7 1_555 1_555
C9 N1 1_555 1_555
C11 N2 1_555 1_555
O4 La1A 1_555 1_555
La1A O3A 1_555 1_555
K1A_2 O4A 1_555 1_555
K1A_2 O5A 1_555 1_555

#END
