
#######################################################################
#
#                 Cambridge Crystallographic Data Centre
#                                CCDC 
#
#######################################################################
#
# If this CIF has been generated from an entry in the Cambridge 
# Structural Database, then it will include bibliographic, chemical, 
# crystal, experimental, refinement or atomic coordinate data resulting 
# from the CCDC's data processing and validation procedures.
#
#######################################################################

data_COGWIG
_symmetry_cell_setting           monoclinic
_symmetry_space_group_name_H-M   'C 2/c'
_symmetry_Int_Tables_number      15
_space_group_name_Hall           '-C 2yn'
loop_
_symmetry_equiv_pos_site_id
_symmetry_equiv_pos_as_xyz
1 x,y,z
2 -x,y,1/2-z
3 1/2+x,1/2+y,z
4 1/2-x,1/2+y,1/2-z
5 -x,-y,-z
6 x,-y,1/2+z
7 1/2-x,1/2-y,-z
8 1/2+x,1/2-y,1/2+z
_cell_length_a                   24.665(2)
_cell_length_b                   11.9542(11)
_cell_length_c                   17.8777(18)
_cell_angle_alpha                90
_cell_angle_beta                 112.764(4)
_cell_angle_gamma                90
_cell_volume                     4860.65
loop_
_atom_site_label
_atom_site_type_symbol
_atom_site_fract_x
_atom_site_fract_y
_atom_site_fract_z
Cd1 Cd 0.0000 0.5000 0.0000
Br1 Br -0.046642(15) 0.33036(4) 0.05594(2)
N1 N 0.05727(12) 0.5569(3) 0.14186(16)
N2 N 0.23755(12) 0.6438(2) 0.39450(16)
C1 C 0.25521(14) 0.3822(3) 0.56778(18)
C2 C 0.24855(15) 0.4755(3) 0.51000(19)
C3 C 0.26791(16) 0.2059(3) 0.67694(19)
C4 C 0.28421(14) 0.6394(3) 0.46473(19)
C5 C 0.29096(14) 0.5579(3) 0.52408(19)
H1 H 0.3237 0.5591 0.5727
C6 C 0.31709(15) 0.2691(3) 0.68219(19)
C7 C 0.20718(15) 0.3178(3) 0.5635(2)
H2 H 0.1703 0.3340 0.5242
C8 C 0.19980(15) 0.4804(3) 0.43645(19)
H3 H 0.1702 0.4270 0.4247
C9 C 0.31090(15) 0.3570(3) 0.62834(19)
H4 H 0.3435 0.3993 0.6322
C10 C 0.33066(13) 0.7252(3) 0.47596(19)
C11 C 0.10593(15) 0.6196(3) 0.1594(2)
H5 H 0.1099 0.6606 0.1176
C12 C 0.21334(15) 0.2292(3) 0.61700(19)
H6 H 0.1809 0.1858 0.6124
C13 C 0.15026(14) 0.6269(3) 0.2355(2)
H7 H 0.1831 0.6711 0.2438
C14 C 0.19548(14) 0.5645(3) 0.38108(19)
C15 C 0.14550(14) 0.5675(3) 0.30006(19)
C16 C 0.05193(15) 0.5033(3) 0.2050(2)
H8 H 0.0181 0.4616 0.1954
C17 C 0.22999(18) 0.0576(4) 0.7335(3)
H9 H 0.2009 0.1076 0.7381
H10 H 0.2429 0.0073 0.7789
H11 H 0.2132 0.0155 0.6841
C18 C 0.09406(16) 0.5072(3) 0.2833(2)
H12 H 0.0879 0.4692 0.3248
C19 C 0.42152(17) 0.2905(5) 0.7423(3)
H13 H 0.4237 0.2802 0.6903
H14 H 0.4552 0.2570 0.7836
H15 H 0.4207 0.3691 0.7531
N3 N 0.42032(12) 0.8795(3) 0.48982(17)
C20 C 0.41606(17) 0.8309(3) 0.5545(2)
H16 H 0.4434 0.8503 0.6055
C21 C 0.37868(17) 0.8515(4) 0.4177(2)
H17 H 0.3803 0.8840 0.3713
C22 C 0.37412(17) 0.7549(3) 0.5503(2)
H18 H 0.3744 0.7222 0.5976
C23 C 0.33352(17) 0.7771(4) 0.4083(2)
H19 H 0.3053 0.7622 0.3570
O1 O 0.36925(11) 0.2389(2) 0.74231(14)
O2 O 0.27871(11) 0.1205(2) 0.73276(15)
Br1D Br 0.046642(15) 0.66964(4) -0.05594(2)
N1D N -0.05727(12) 0.4431(3) -0.14186(16)
N2D N -0.23755(12) 0.3562(2) -0.39450(16)
C1D C -0.25521(14) 0.6178(3) -0.56778(18)
C2D C -0.24855(15) 0.5245(3) -0.51000(19)
C3D C -0.26791(16) 0.7941(3) -0.67694(19)
C4D C -0.28421(14) 0.3606(3) -0.46473(19)
C5D C -0.29096(14) 0.4421(3) -0.52408(19)
H1D H -0.3237 0.4409 -0.5727
C6D C -0.31709(15) 0.7309(3) -0.68219(19)
C7D C -0.20718(15) 0.6822(3) -0.5635(2)
H2D H -0.1703 0.6660 -0.5242
C8D C -0.19980(15) 0.5196(3) -0.43645(19)
H3D H -0.1702 0.5730 -0.4247
C9D C -0.31090(15) 0.6430(3) -0.62834(19)
H4D H -0.3435 0.6007 -0.6322
C10D C -0.33066(13) 0.2748(3) -0.47596(19)
C11D C -0.10593(15) 0.3804(3) -0.1594(2)
H5D H -0.1099 0.3394 -0.1176
C12D C -0.21334(15) 0.7708(3) -0.61700(19)
H6D H -0.1809 0.8142 -0.6124
C13D C -0.15026(14) 0.3731(3) -0.2355(2)
H7D H -0.1831 0.3289 -0.2438
C14D C -0.19548(14) 0.4355(3) -0.38108(19)
C15D C -0.14550(14) 0.4325(3) -0.30006(19)
C16D C -0.05193(15) 0.4967(3) -0.2050(2)
H8D H -0.0181 0.5384 -0.1954
C17D C -0.22999(18) 0.9424(4) -0.7335(3)
H9D H -0.2009 0.8924 -0.7381
H10D H -0.2429 0.9927 -0.7789
H11D H -0.2132 0.9845 -0.6841
C18D C -0.09406(16) 0.4928(3) -0.2833(2)
H12D H -0.0879 0.5308 -0.3248
C19D C -0.42152(17) 0.7095(5) -0.7423(3)
H13D H -0.4237 0.7198 -0.6903
H14D H -0.4552 0.7430 -0.7836
H15D H -0.4207 0.6309 -0.7531
N3D N -0.42032(12) 0.1205(3) -0.48982(17)
C20D C -0.41606(17) 0.1691(3) -0.5545(2)
H16D H -0.4434 0.1497 -0.6055
C21D C -0.37868(17) 0.1485(4) -0.4177(2)
H17D H -0.3803 0.1160 -0.3713
C22D C -0.37412(17) 0.2451(3) -0.5503(2)
H18D H -0.3744 0.2778 -0.5976
C23D C -0.33352(17) 0.2229(4) -0.4083(2)
H19D H -0.3053 0.2378 -0.3570
O1D O -0.36925(11) 0.7611(2) -0.74231(14)
O2D O -0.27871(11) 0.8795(2) -0.73276(15)
Cd1C Cd -0.5000 0.0000 -0.5000
Cd1C_2 Cd 0.5000 1.0000 0.5000
N3C N 0.07968(12) 0.3795(3) 0.01018(17)
N3G N -0.07968(12) 0.6205(3) -0.01018(17)
loop_
_geom_bond_atom_site_label_1
_geom_bond_atom_site_label_2
_geom_bond_site_symmetry_1
_geom_bond_site_symmetry_2
Cd1 Br1 1_555 1_555
N1 Cd1 1_555 1_555
N2 C4 1_555 1_555
C1 C2 1_555 1_555
C2 C5 1_555 1_555
C3 C6 1_555 1_555
C4 C5 1_555 1_555
C5 H1 1_555 1_555
C6 C9 1_555 1_555
C7 C1 1_555 1_555
H2 C7 1_555 1_555
C8 C2 1_555 1_555
H3 C8 1_555 1_555
C9 C1 1_555 1_555
H4 C9 1_555 1_555
C10 C4 1_555 1_555
C11 N1 1_555 1_555
H5 C11 1_555 1_555
C12 C3 1_555 1_555
H6 C12 1_555 1_555
C13 C11 1_555 1_555
H7 C13 1_555 1_555
C14 N2 1_555 1_555
C15 C13 1_555 1_555
C16 N1 1_555 1_555
H8 C16 1_555 1_555
C17 H9 1_555 1_555
H10 C17 1_555 1_555
H11 C17 1_555 1_555
C18 C15 1_555 1_555
H12 C18 1_555 1_555
C19 H13 1_555 1_555
H14 C19 1_555 1_555
H15 C19 1_555 1_555
N3 C20 1_555 1_555
C20 H16 1_555 1_555
C21 N3 1_555 1_555
H17 C21 1_555 1_555
C22 C10 1_555 1_555
H18 C22 1_555 1_555
C23 C10 1_555 1_555
H19 C23 1_555 1_555
O1 C6 1_555 1_555
O2 C3 1_555 1_555
Br1D Cd1 1_555 1_555
N1D Cd1 1_555 1_555
N2D C4D 1_555 1_555
C1D C2D 1_555 1_555
C2D C5D 1_555 1_555
C3D C6D 1_555 1_555
C4D C5D 1_555 1_555
C5D H1D 1_555 1_555
C6D C9D 1_555 1_555
C7D C1D 1_555 1_555
H2D C7D 1_555 1_555
C8D C2D 1_555 1_555
H3D C8D 1_555 1_555
C9D C1D 1_555 1_555
H4D C9D 1_555 1_555
C10D C4D 1_555 1_555
C11D N1D 1_555 1_555
H5D C11D 1_555 1_555
C12D C3D 1_555 1_555
H6D C12D 1_555 1_555
C13D C11D 1_555 1_555
H7D C13D 1_555 1_555
C14D N2D 1_555 1_555
C15D C13D 1_555 1_555
C16D N1D 1_555 1_555
H8D C16D 1_555 1_555
C17D H9D 1_555 1_555
H10D C17D 1_555 1_555
H11D C17D 1_555 1_555
C18D C15D 1_555 1_555
H12D C18D 1_555 1_555
C19D H13D 1_555 1_555
H14D C19D 1_555 1_555
H15D C19D 1_555 1_555
N3D C20D 1_555 1_555
C20D H16D 1_555 1_555
C21D N3D 1_555 1_555
H17D C21D 1_555 1_555
C22D C10D 1_555 1_555
H18D C22D 1_555 1_555
C23D C10D 1_555 1_555
H19D C23D 1_555 1_555
O1D C6D 1_555 1_555
O2D C3D 1_555 1_555
Cd1C N3D 1_555 1_555
Cd1C_2 N3 1_555 1_555
N3C Cd1 1_555 1_555
N3G Cd1 1_555 1_555
C7 C12 1_555 1_555
C8 C14 1_555 1_555
C14 C15 1_555 1_555
C16 C18 1_555 1_555
C17 O2 1_555 1_555
C19 O1 1_555 1_555
C20 C22 1_555 1_555
C21 C23 1_555 1_555
C7D C12D 1_555 1_555
C8D C14D 1_555 1_555
C14D C15D 1_555 1_555
C16D C18D 1_555 1_555
C17D O2D 1_555 1_555
C19D O1D 1_555 1_555
C20D C22D 1_555 1_555
C21D C23D 1_555 1_555

#END
