
#######################################################################
#
#                 Cambridge Crystallographic Data Centre
#                                CCDC 
#
#######################################################################
#
# If this CIF has been generated from an entry in the Cambridge 
# Structural Database, then it will include bibliographic, chemical, 
# crystal, experimental, refinement or atomic coordinate data resulting 
# from the CCDC's data processing and validation procedures.
#
#######################################################################

data_COGWEC
_symmetry_cell_setting           monoclinic
_symmetry_space_group_name_H-M   'C 2/c'
_symmetry_Int_Tables_number      15
_space_group_name_Hall           '-C 2yn'
loop_
_symmetry_equiv_pos_site_id
_symmetry_equiv_pos_as_xyz
1 x,y,z
2 -x,y,1/2-z
3 1/2+x,1/2+y,z
4 1/2-x,1/2+y,1/2-z
5 -x,-y,-z
6 x,-y,1/2+z
7 1/2-x,1/2-y,-z
8 1/2+x,1/2-y,1/2+z
_cell_length_a                   24.6035(5)
_cell_length_b                   11.9649(3)
_cell_length_c                   18.4269(4)
_cell_angle_alpha                90
_cell_angle_beta                 114.5710(10)
_cell_angle_gamma                90
_cell_volume                     4933.28
loop_
_atom_site_label
_atom_site_type_symbol
_atom_site_fract_x
_atom_site_fract_y
_atom_site_fract_z
Cd1 Cd 0.0000 0.0000 0.5000
C1 C 0.33228(19) -0.2747(4) 0.9089(2)
H1 H 0.3037 -0.2577 0.8581
N1 N 0.05702(12) -0.0480(3) 0.63685(17)
C2 C 0.28934(15) -0.0613(3) 1.0204(2)
H2 H 0.3219 -0.0654 1.0696
C3 C 0.19892(17) 0.0219(3) 0.9307(2)
H3 H 0.1693 0.0761 0.9178
C4 C 0.14571(15) -0.0594(3) 0.79396(19)
C5 C 0.09441(18) 0.0034(3) 0.7744(2)
H4 H 0.0885 0.0436 0.8137
C6 C 0.05198(18) 0.0066(3) 0.6966(2)
H5 H 0.0179 0.0495 0.6852
C7 C 0.10537(18) -0.1107(4) 0.6559(2)
H6 H 0.1093 -0.1519 0.6156
C8 C 0.15043(17) -0.1186(4) 0.7322(2)
H7 H 0.1836 -0.1634 0.7419
C9 C 0.3770(2) -0.3504(6) 0.9176(3)
H8 H 0.3768 -0.3833 0.8717
C10 C 0.32951(19) -0.2252(4) 0.9730(2)
C11 C 0.19515(15) -0.0598(3) 0.87569(19)
N2 N 0.42013(14) -0.3790(3) 0.98724(18)
C12 C 0.4158(2) -0.3332(4) 1.0504(2)
H9 H 0.4438 -0.3540 1.1008
N3 N 0.23694(12) -0.1393(3) 0.88992(17)
C13 C 0.25238(15) 0.1133(3) 1.0639(2)
C14 C 0.30600(17) 0.1330(3) 1.1305(2)
H10 H 0.3392 0.0888 1.1390
C15 C 0.28293(15) -0.1391(3) 0.9618(2)
C16 C 0.24714(17) 0.0233(3) 1.0058(2)
O1 O 0.27039(15) 0.3660(3) 1.22774(18)
O2 O 0.36129(17) 0.2422(3) 1.2498(2)
C17 C 0.26127(18) 0.2841(3) 1.1719(2)
C18 C 0.20452(17) 0.1820(4) 1.0524(2)
H11 H 0.1688 0.1713 1.0078
C19 C 0.20834(19) 0.2664(4) 1.1056(3)
H12 H 0.1753 0.3112 1.0968
C20 C 0.31031(18) 0.2168(3) 1.1835(2)
O3 O -0.05817(18) 0.1030(3) 0.5547(3)
N4 N -0.05264(16) 0.2058(4) 0.5598(2)
C21 C 0.3726(2) -0.2575(4) 1.0463(2)
H13 H 0.3725 -0.2279 1.0929
C22 C 0.2210(3) 0.4328(5) 1.2209(4)
H14 H 0.2073 0.4749 1.1722
H15 H 0.2328 0.4831 1.2655
H16 H 0.1893 0.3856 1.2205
C23 C 0.4112(3) 0.1750(6) 1.2683(4)
H17 H 0.4018 0.0999 1.2775
H18 H 0.4434 0.2029 1.3155
H19 H 0.4229 0.1758 1.2247
O4 O -0.0680(2) 0.2614(6) 0.5982(5)
O5 O -0.0299(3) 0.2370(7) 0.5191(4)
C1D C -0.33228(19) 0.2747(4) 0.0911(2)
H1D H -0.3037 0.2577 0.1419
N1D N -0.05702(12) 0.0480(3) 0.36315(17)
C2D C -0.28934(15) 0.0613(3) -0.0204(2)
H2D H -0.3219 0.0654 -0.0696
C3D C -0.19892(17) -0.0219(3) 0.0693(2)
H3D H -0.1693 -0.0761 0.0822
C4D C -0.14571(15) 0.0594(3) 0.20604(19)
C5D C -0.09441(18) -0.0034(3) 0.2256(2)
H4D H -0.0885 -0.0436 0.1863
C6D C -0.05198(18) -0.0066(3) 0.3034(2)
H5D H -0.0179 -0.0495 0.3148
C7D C -0.10537(18) 0.1107(4) 0.3441(2)
H6D H -0.1093 0.1519 0.3844
C8D C -0.15043(17) 0.1186(4) 0.2678(2)
H7D H -0.1836 0.1634 0.2581
C9D C -0.3770(2) 0.3504(6) 0.0824(3)
H8D H -0.3768 0.3833 0.1283
C10D C -0.32951(19) 0.2252(4) 0.0270(2)
C11D C -0.19515(15) 0.0598(3) 0.12431(19)
N2D N -0.42013(14) 0.3790(3) 0.01276(18)
C12D C -0.4158(2) 0.3332(4) -0.0504(2)
H9D H -0.4438 0.3540 -0.1008
N3D N -0.23694(12) 0.1393(3) 0.11008(17)
C13D C -0.25238(15) -0.1133(3) -0.0639(2)
C14D C -0.30600(17) -0.1330(3) -0.1305(2)
H10D H -0.3392 -0.0888 -0.1390
C15D C -0.28293(15) 0.1391(3) 0.0382(2)
C16D C -0.24714(17) -0.0233(3) -0.0058(2)
O1D O -0.27039(15) -0.3660(3) -0.22774(18)
O2D O -0.36129(17) -0.2422(3) -0.2498(2)
C17D C -0.26127(18) -0.2841(3) -0.1719(2)
C18D C -0.20452(17) -0.1820(4) -0.0524(2)
H11D H -0.1688 -0.1713 -0.0078
C19D C -0.20834(19) -0.2664(4) -0.1056(3)
H12D H -0.1753 -0.3112 -0.0968
C20D C -0.31031(18) -0.2168(3) -0.1835(2)
O3D O 0.05817(18) -0.1030(3) 0.4453(3)
N4D N 0.05264(16) -0.2058(4) 0.4402(2)
C21D C -0.3726(2) 0.2575(4) -0.0463(2)
H13D H -0.3725 0.2279 -0.0929
C22D C -0.2210(3) -0.4328(5) -0.2209(4)
H14D H -0.2073 -0.4749 -0.1722
H15D H -0.2328 -0.4831 -0.2655
H16D H -0.1893 -0.3856 -0.2205
C23D C -0.4112(3) -0.1750(6) -0.2683(4)
H17D H -0.4018 -0.0999 -0.2775
H18D H -0.4434 -0.2029 -0.3155
H19D H -0.4229 -0.1758 -0.2247
O4D O 0.0680(2) -0.2614(6) 0.4018(5)
O5D O 0.0299(3) -0.2370(7) 0.4809(4)
Cd1C Cd -0.5000 0.5000 0.0000
Cd1C_2 Cd 0.5000 -0.5000 1.0000
N2C N 0.07987(14) 0.1210(3) 0.51276(18)
N2G N -0.07987(14) -0.1210(3) 0.48724(18)
loop_
_geom_bond_atom_site_label_1
_geom_bond_atom_site_label_2
_geom_bond_site_symmetry_1
_geom_bond_site_symmetry_2
Cd1 N1 1_555 1_555
C1 H1 1_555 1_555
N1 C6 1_555 1_555
C2 H2 1_555 1_555
C3 H3 1_555 1_555
C4 C5 1_555 1_555
C5 H4 1_555 1_555
C6 C5 1_555 1_555
H5 C6 1_555 1_555
C7 N1 1_555 1_555
H6 C7 1_555 1_555
C8 C4 1_555 1_555
H7 C8 1_555 1_555
C9 C1 1_555 1_555
H8 C9 1_555 1_555
C10 C1 1_555 1_555
C11 C3 1_555 1_555
N2 C9 1_555 1_555
C12 N2 1_555 1_555
H9 C12 1_555 1_555
N3 C11 1_555 1_555
C13 C14 1_555 1_555
C14 H10 1_555 1_555
C15 C2 1_555 1_555
C16 C2 1_555 1_555
O1 C17 1_555 1_555
O2 C20 1_555 1_555
C17 C19 1_555 1_555
C18 C13 1_555 1_555
H11 C18 1_555 1_555
C19 C18 1_555 1_555
H12 C19 1_555 1_555
C20 C14 1_555 1_555
O3 Cd1 1_555 1_555
N4 O3 1_555 1_555
C21 C10 1_555 1_555
H13 C21 1_555 1_555
C22 O1 1_555 1_555
H14 C22 1_555 1_555
H15 C22 1_555 1_555
H16 C22 1_555 1_555
C23 O2 1_555 1_555
H17 C23 1_555 1_555
H18 C23 1_555 1_555
H19 C23 1_555 1_555
O4 N4 1_555 1_555
O5 N4 1_555 1_555
C1D H1D 1_555 1_555
N1D Cd1 1_555 1_555
C2D H2D 1_555 1_555
C3D H3D 1_555 1_555
C4D C5D 1_555 1_555
C5D H4D 1_555 1_555
C6D N1D 1_555 1_555
H5D C6D 1_555 1_555
C7D N1D 1_555 1_555
H6D C7D 1_555 1_555
C8D C4D 1_555 1_555
H7D C8D 1_555 1_555
C9D C1D 1_555 1_555
H8D C9D 1_555 1_555
C10D C1D 1_555 1_555
C11D C3D 1_555 1_555
N2D C9D 1_555 1_555
C12D N2D 1_555 1_555
H9D C12D 1_555 1_555
N3D C11D 1_555 1_555
C13D C14D 1_555 1_555
C14D H10D 1_555 1_555
C15D C2D 1_555 1_555
C16D C2D 1_555 1_555
O1D C17D 1_555 1_555
O2D C20D 1_555 1_555
C17D C19D 1_555 1_555
C18D C13D 1_555 1_555
H11D C18D 1_555 1_555
C19D C18D 1_555 1_555
H12D C19D 1_555 1_555
C20D C14D 1_555 1_555
O3D Cd1 1_555 1_555
N4D O3D 1_555 1_555
C21D C10D 1_555 1_555
H13D C21D 1_555 1_555
C22D O1D 1_555 1_555
H14D C22D 1_555 1_555
H15D C22D 1_555 1_555
H16D C22D 1_555 1_555
C23D O2D 1_555 1_555
H17D C23D 1_555 1_555
H18D C23D 1_555 1_555
H19D C23D 1_555 1_555
O4D N4D 1_555 1_555
O5D N4D 1_555 1_555
Cd1C N2D 1_555 1_555
Cd1C_2 N2 1_555 1_555
N2C Cd1 1_555 1_555
N2G Cd1 1_555 1_555
C3 C16 1_555 1_555
C4 C11 1_555 1_555
C7 C8 1_555 1_555
C10 C15 1_555 1_555
C12 C21 1_555 1_555
N3 C15 1_555 1_555
C13 C16 1_555 1_555
C17 C20 1_555 1_555
C3D C16D 1_555 1_555
C4D C11D 1_555 1_555
C5D C6D 1_555 1_555
C7D C8D 1_555 1_555
C10D C15D 1_555 1_555
C12D C21D 1_555 1_555
N3D C15D 1_555 1_555
C13D C16D 1_555 1_555
C17D C20D 1_555 1_555

#END
