
#######################################################################
#
#                 Cambridge Crystallographic Data Centre
#                                CCDC 
#
#######################################################################
#
# If this CIF has been generated from an entry in the Cambridge 
# Structural Database, then it will include bibliographic, chemical, 
# crystal, experimental, refinement or atomic coordinate data resulting 
# from the CCDC's data processing and validation procedures.
#
#######################################################################

data_COGWUS
_symmetry_cell_setting           monoclinic
_symmetry_space_group_name_H-M   'C 2/c'
_symmetry_Int_Tables_number      15
_space_group_name_Hall           '-C 2yn'
loop_
_symmetry_equiv_pos_site_id
_symmetry_equiv_pos_as_xyz
1 x,y,z
2 -x,y,1/2-z
3 1/2+x,1/2+y,z
4 1/2-x,1/2+y,1/2-z
5 -x,-y,-z
6 x,-y,1/2+z
7 1/2-x,1/2-y,-z
8 1/2+x,1/2-y,1/2+z
_cell_length_a                   24.4845(18)
_cell_length_b                   11.8901(8)
_cell_length_c                   18.1106(13)
_cell_angle_alpha                90
_cell_angle_beta                 114.564(4)
_cell_angle_gamma                90
_cell_volume                     4795.25
loop_
_atom_site_label
_atom_site_type_symbol
_atom_site_fract_x
_atom_site_fract_y
_atom_site_fract_z
Co1 Co 0.0000 0.0000 0.0000
Cl1 Cl -0.04574(5) 0.14386(10) 0.05122(7)
C1 C 0.28791(18) -0.1441(3) 0.4601(2)
C2 C 0.29351(18) -0.0647(4) 0.5193(2)
H1 H 0.3266 -0.0672 0.5692
C3 C 0.25039(19) 0.0180(4) 0.5049(2)
C4 C 0.3352(2) -0.2281(4) 0.4719(3)
C5 C 0.2658(2) 0.2854(4) 0.6714(3)
C6 C 0.25549(19) 0.1106(4) 0.5628(2)
C7 C 0.3167(2) 0.2235(4) 0.6780(3)
C8 C 0.14582(18) -0.0690(3) 0.2908(2)
C9 C 0.19711(17) -0.0689(3) 0.3737(2)
C10 C 0.20069(19) 0.0137(3) 0.4299(2)
H2 H 0.1700 0.0661 0.4175
C11 C 0.3116(2) 0.1364(4) 0.6246(3)
H3 H 0.3454 0.0953 0.6298
C12 C 0.0935(2) -0.0132(4) 0.2746(3)
H4 H 0.0868 0.0206 0.3164
C13 C 0.1508(2) -0.1225(4) 0.2273(3)
H5 H 0.1848 -0.1652 0.2363
C14 C 0.2069(2) 0.1744(4) 0.5552(3)
H6 H 0.1698 0.1601 0.5129
C15 C 0.1059(2) -0.1140(4) 0.1497(3)
H7 H 0.1107 -0.1517 0.1077
C16 C 0.0502(2) -0.0072(4) 0.1949(3)
H8 H 0.0151 0.0322 0.1854
C17 C 0.3750(2) -0.2660(5) 0.5458(3)
H9 H 0.3729 -0.2399 0.5929
C18 C 0.3424(2) -0.2694(4) 0.4054(3)
H10 H 0.3172 -0.2456 0.3534
C19 C 0.4184(2) -0.3428(4) 0.5508(3)
H11 H 0.4437 -0.3687 0.6021
C20 C 0.2123(2) 0.2597(4) 0.6095(3)
H12 H 0.1783 0.3007 0.6035
C21 C 0.2266(3) 0.4271(5) 0.7270(4)
H13 H 0.2058 0.4651 0.6762
H14 H 0.2403 0.4811 0.7703
H15 H 0.1998 0.3748 0.7355
C22 C 0.3868(3) -0.3457(5) 0.4165(3)
H16 H 0.3893 -0.3742 0.3702
C23 C 0.4237(3) 0.2036(6) 0.7433(4)
H17 H 0.4225 0.1252 0.7554
H18 H 0.4580 0.2381 0.7854
H19 H 0.4265 0.2114 0.6923
N1 N 0.24002(15) -0.1467(3) 0.3875(2)
N2 N 0.42677(16) -0.3829(3) 0.4876(2)
N3 N 0.05538(14) -0.0533(3) 0.1322(2)
O1 O 0.27600(16) 0.3689(3) 0.7257(2)
O2 O 0.36988(17) 0.2576(3) 0.7387(3)
Cl1D Cl 0.04574(5) -0.14386(10) -0.05122(7)
C1D C -0.28791(18) 0.1441(3) -0.4601(2)
C2D C -0.29351(18) 0.0647(4) -0.5193(2)
H1D H -0.3266 0.0672 -0.5692
C3D C -0.25039(19) -0.0180(4) -0.5049(2)
C4D C -0.3352(2) 0.2281(4) -0.4719(3)
C5D C -0.2658(2) -0.2854(4) -0.6714(3)
C6D C -0.25549(19) -0.1106(4) -0.5628(2)
C7D C -0.3167(2) -0.2235(4) -0.6780(3)
C8D C -0.14582(18) 0.0690(3) -0.2908(2)
C9D C -0.19711(17) 0.0689(3) -0.3737(2)
C10D C -0.20069(19) -0.0137(3) -0.4299(2)
H2D H -0.1700 -0.0661 -0.4175
C11D C -0.3116(2) -0.1364(4) -0.6246(3)
H3D H -0.3454 -0.0953 -0.6298
C12D C -0.0935(2) 0.0132(4) -0.2746(3)
H4D H -0.0868 -0.0206 -0.3164
C13D C -0.1508(2) 0.1225(4) -0.2273(3)
H5D H -0.1848 0.1652 -0.2363
C14D C -0.2069(2) -0.1744(4) -0.5552(3)
H6D H -0.1698 -0.1601 -0.5129
C15D C -0.1059(2) 0.1140(4) -0.1497(3)
H7D H -0.1107 0.1517 -0.1077
C16D C -0.0502(2) 0.0072(4) -0.1949(3)
H8D H -0.0151 -0.0322 -0.1854
C17D C -0.3750(2) 0.2660(5) -0.5458(3)
H9D H -0.3729 0.2399 -0.5929
C18D C -0.3424(2) 0.2694(4) -0.4054(3)
H10D H -0.3172 0.2456 -0.3534
C19D C -0.4184(2) 0.3428(4) -0.5508(3)
H11D H -0.4437 0.3687 -0.6021
C20D C -0.2123(2) -0.2597(4) -0.6095(3)
H12D H -0.1783 -0.3007 -0.6035
C21D C -0.2266(3) -0.4271(5) -0.7270(4)
H13D H -0.2058 -0.4651 -0.6762
H14D H -0.2403 -0.4811 -0.7703
H15D H -0.1998 -0.3748 -0.7355
C22D C -0.3868(3) 0.3457(5) -0.4165(3)
H16D H -0.3893 0.3742 -0.3702
C23D C -0.4237(3) -0.2036(6) -0.7433(4)
H17D H -0.4225 -0.1252 -0.7554
H18D H -0.4580 -0.2381 -0.7854
H19D H -0.4265 -0.2114 -0.6923
N1D N -0.24002(15) 0.1467(3) -0.3875(2)
N2D N -0.42677(16) 0.3829(3) -0.4876(2)
N3D N -0.05538(14) 0.0533(3) -0.1322(2)
O1D O -0.27600(16) -0.3689(3) -0.7257(2)
O2D O -0.36988(17) -0.2576(3) -0.7387(3)
Co1C Co -0.5000 0.5000 -0.5000
Co1C_2 Co 0.5000 -0.5000 0.5000
N2C N 0.07323(16) 0.1171(3) 0.0124(2)
N2G N -0.07323(16) -0.1171(3) -0.0124(2)
loop_
_geom_bond_atom_site_label_1
_geom_bond_atom_site_label_2
_geom_bond_site_symmetry_1
_geom_bond_site_symmetry_2
Co1 Cl1 1_555 1_555
C1 C2 1_555 1_555
C2 H1 1_555 1_555
C3 C2 1_555 1_555
C4 C1 1_555 1_555
C5 C7 1_555 1_555
C6 C3 1_555 1_555
C7 C11 1_555 1_555
C8 C9 1_555 1_555
C9 C10 1_555 1_555
C10 C3 1_555 1_555
H2 C10 1_555 1_555
C11 C6 1_555 1_555
H3 C11 1_555 1_555
C12 C8 1_555 1_555
H4 C12 1_555 1_555
C13 C8 1_555 1_555
H5 C13 1_555 1_555
C14 C6 1_555 1_555
H6 C14 1_555 1_555
C15 C13 1_555 1_555
H7 C15 1_555 1_555
C16 C12 1_555 1_555
H8 C16 1_555 1_555
C17 C4 1_555 1_555
H9 C17 1_555 1_555
C18 C4 1_555 1_555
H10 C18 1_555 1_555
C19 C17 1_555 1_555
H11 C19 1_555 1_555
C20 C5 1_555 1_555
H12 C20 1_555 1_555
C21 H13 1_555 1_555
H14 C21 1_555 1_555
H15 C21 1_555 1_555
C22 C18 1_555 1_555
H16 C22 1_555 1_555
C23 H17 1_555 1_555
H18 C23 1_555 1_555
H19 C23 1_555 1_555
N1 C1 1_555 1_555
N2 C19 1_555 1_555
N3 Co1 1_555 1_555
O1 C5 1_555 1_555
O2 C7 1_555 1_555
Cl1D Co1 1_555 1_555
C1D C2D 1_555 1_555
C2D H1D 1_555 1_555
C3D C2D 1_555 1_555
C4D C1D 1_555 1_555
C5D C7D 1_555 1_555
C6D C3D 1_555 1_555
C7D C11D 1_555 1_555
C8D C9D 1_555 1_555
C9D C10D 1_555 1_555
C10D C3D 1_555 1_555
H2D C10D 1_555 1_555
C11D C6D 1_555 1_555
H3D C11D 1_555 1_555
C12D C8D 1_555 1_555
H4D C12D 1_555 1_555
C13D C8D 1_555 1_555
H5D C13D 1_555 1_555
C14D C6D 1_555 1_555
H6D C14D 1_555 1_555
C15D C13D 1_555 1_555
H7D C15D 1_555 1_555
C16D C12D 1_555 1_555
H8D C16D 1_555 1_555
C17D C4D 1_555 1_555
H9D C17D 1_555 1_555
C18D C4D 1_555 1_555
H10D C18D 1_555 1_555
C19D C17D 1_555 1_555
H11D C19D 1_555 1_555
C20D C5D 1_555 1_555
H12D C20D 1_555 1_555
C21D H13D 1_555 1_555
H14D C21D 1_555 1_555
H15D C21D 1_555 1_555
C22D C18D 1_555 1_555
H16D C22D 1_555 1_555
C23D H17D 1_555 1_555
H18D C23D 1_555 1_555
H19D C23D 1_555 1_555
N1D C1D 1_555 1_555
N2D C19D 1_555 1_555
N3D Co1 1_555 1_555
O1D C5D 1_555 1_555
O2D C7D 1_555 1_555
Co1C N2D 1_555 1_555
Co1C_2 N2 1_555 1_555
N2C Co1 1_555 1_555
N2G Co1 1_555 1_555
C9 N1 1_555 1_555
C14 C20 1_555 1_555
C15 N3 1_555 1_555
C16 N3 1_555 1_555
C21 O1 1_555 1_555
C22 N2 1_555 1_555
C23 O2 1_555 1_555
C9D N1D 1_555 1_555
C14D C20D 1_555 1_555
C15D N3D 1_555 1_555
C16D N3D 1_555 1_555
C21D O1D 1_555 1_555
C22D N2D 1_555 1_555
C23D O2D 1_555 1_555

#END
