
#######################################################################
#
#                 Cambridge Crystallographic Data Centre
#                                CCDC 
#
#######################################################################
#
# If this CIF has been generated from an entry in the Cambridge 
# Structural Database, then it will include bibliographic, chemical, 
# crystal, experimental, refinement or atomic coordinate data resulting 
# from the CCDC's data processing and validation procedures.
#
#######################################################################

data_COHBOS
_symmetry_cell_setting           monoclinic
_symmetry_space_group_name_H-M   'C 2/c'
_symmetry_Int_Tables_number      15
_space_group_name_Hall           '-C 2yn'
loop_
_symmetry_equiv_pos_site_id
_symmetry_equiv_pos_as_xyz
1 x,y,z
2 -x,y,1/2-z
3 1/2+x,1/2+y,z
4 1/2-x,1/2+y,1/2-z
5 -x,-y,-z
6 x,-y,1/2+z
7 1/2-x,1/2-y,-z
8 1/2+x,1/2-y,1/2+z
_cell_length_a                   9.3459(19)
_cell_length_b                   21.924(4)
_cell_length_c                   7.0573(14)
_cell_angle_alpha                90
_cell_angle_beta                 106.11(3)
_cell_angle_gamma                90
_cell_volume                     1389.25
loop_
_atom_site_label
_atom_site_type_symbol
_atom_site_fract_x
_atom_site_fract_y
_atom_site_fract_z
Ag1 Ag 0.81964(2) 0.274532(9) 0.19772(3)
O1 O 0.8448(3) 0.17470(9) 0.2470(3)
C1 C 0.8452(3) 0.13569(10) 0.1174(4)
C2 C 0.8581(3) 0.02172(10) 0.1219(4)
H1 H 0.7627 0.0215 0.0356
C3 C 0.9288(3) -0.03311(10) 0.1857(4)
H2 H 0.8810 -0.0698 0.1424
C4 C 0.9282(3) 0.07717(10) 0.1854(3)
N1 N 0.9407(2) 0.28732(11) 0.5453(4)
C5 C 0.9709(3) 0.23517(12) 0.6502(5)
H3 H 0.9513 0.1981 0.5842
C6 C 0.9710(3) 0.33970(12) 0.6471(4)
C7 C 0.9401(3) 0.39781(12) 0.5337(4)
H4 H 0.8729 0.4223 0.5826
H5 H 0.8959 0.3890 0.3967
H6 H 1.0316 0.4196 0.5487
O2 O 0.7800(2) 0.13976(8) -0.0648(3)
O1A O 1.1552(3) 0.17470(9) 0.2530(3)
C1A C 1.1548(3) 0.13569(10) 0.3826(4)
C2A C 1.1419(3) 0.02172(10) 0.3781(4)
H1A H 1.2373 0.0215 0.4644
C3A C 1.0712(3) -0.03311(10) 0.3143(4)
H2A H 1.1190 -0.0698 0.3576
C4A C 1.0718(3) 0.07717(10) 0.3146(3)
O2A O 1.2200(2) 0.13976(8) 0.5648(3)
N1A N 1.0593(2) 0.28732(11) 0.9547(4)
C5A C 1.0291(3) 0.23517(12) 0.8498(5)
H3A H 1.0487 0.1981 0.9158
C6A C 1.0290(3) 0.33970(12) 0.8529(4)
C7A C 1.0599(3) 0.39781(12) 0.9663(4)
H4A H 1.1271 0.4223 0.9174
H5A H 1.1041 0.3890 1.1033
H6A H 0.9684 0.4196 0.9513
Ag1A Ag 1.18036(2) 0.274532(9) 0.30228(3)
Ag1A_2 Ag 1.18036(2) 0.274532(9) 1.30228(3)
Ag1F Ag 0.68036(2) 0.225468(9) -0.19772(3)
Ag1G Ag 1.31964(2) 0.225468(9) 0.69772(3)
N1A_2 N 1.0593(2) 0.28732(11) -0.0453(4)
O2F O 0.7200(2) 0.36024(8) 0.0648(3)
O2G O 1.2800(2) 0.36024(8) 0.4352(3)
loop_
_geom_bond_atom_site_label_1
_geom_bond_atom_site_label_2
_geom_bond_site_symmetry_1
_geom_bond_site_symmetry_2
Ag1 O1 1_555 1_555
O1 C1 1_555 1_555
C1 C4 1_555 1_555
C2 H1 1_555 1_555
C3 C2 1_555 1_555
H2 C3 1_555 1_555
C4 C2 1_555 1_555
N1 Ag1 1_555 1_555
C5 N1 1_555 1_555
H3 C5 1_555 1_555
C6 N1 1_555 1_555
C7 C6 1_555 1_555
H4 C7 1_555 1_555
H5 C7 1_555 1_555
H6 C7 1_555 1_555
O2 C1 1_555 1_555
O1A C1A 1_555 1_555
C1A C4A 1_555 1_555
C2A H1A 1_555 1_555
C3A C3 1_555 1_555
H2A C3A 1_555 1_555
C4A C4 1_555 1_555
O2A C1A 1_555 1_555
N1A C5A 1_555 1_555
C5A C5 1_555 1_555
H3A C5A 1_555 1_555
C6A C6 1_555 1_555
C7A C6A 1_555 1_555
H4A C7A 1_555 1_555
H5A C7A 1_555 1_555
H6A C7A 1_555 1_555
Ag1A O1A 1_555 1_555
Ag1A_2 N1A 1_555 1_555
Ag1F O2 1_555 1_555
Ag1G O2A 1_555 1_555
N1A_2 Ag1A 1_555 1_555
O2F Ag1 1_555 1_555
O2G Ag1A 1_555 1_555
C2A C3A 1_555 1_555
C2A C4A 1_555 1_555
N1A C6A 1_555 1_555

#END
