
#######################################################################
#
#                 Cambridge Crystallographic Data Centre
#                                CCDC 
#
#######################################################################
#
# If this CIF has been generated from an entry in the Cambridge 
# Structural Database, then it will include bibliographic, chemical, 
# crystal, experimental, refinement or atomic coordinate data resulting 
# from the CCDC's data processing and validation procedures.
#
#######################################################################

data_COHBEH
_symmetry_cell_setting           triclinic
_symmetry_space_group_name_H-M   'P -1'
_symmetry_Int_Tables_number      2
_space_group_name_Hall           '-P 1'
loop_
_symmetry_equiv_pos_site_id
_symmetry_equiv_pos_as_xyz
1 x,y,z
2 -x,-y,-z
_cell_length_a                   12.145(3)
_cell_length_b                   13.565(3)
_cell_length_c                   22.695(6)
_cell_angle_alpha                106.235(4)
_cell_angle_beta                 91.068(4)
_cell_angle_gamma                94.536(4)
_cell_volume                     3575.35
loop_
_atom_site_label
_atom_site_type_symbol
_atom_site_fract_x
_atom_site_fract_y
_atom_site_fract_z
C71 C 0.8098(9) -0.0957(11) 0.2247(7)
H101 H 0.8845 -0.1006 0.2359
C72 C 0.7383(11) -0.1845(8) 0.2034(7)
H102 H 0.7641 -0.2500 0.2000
C73 C 0.6290(10) -0.1773(7) 0.1870(6)
H103 H 0.5801 -0.2380 0.1724
C74 C 0.5912(8) -0.0814(9) 0.1919(6)
H104 H 0.5165 -0.0765 0.1807
C75 C 0.6627(11) 0.0074(7) 0.2132(6)
H105 H 0.6368 0.0730 0.2166
C76 C 0.7720(10) 0.0003(8) 0.2296(6)
H106 H 0.8208 0.0609 0.2442
C77 C 0.2481(16) 0.0963(16) 0.6310(8)
H107 H 0.2017 0.1035 0.6649
C78 C 0.2939(17) 0.0037(13) 0.6060(9)
H108 H 0.2789 -0.0523 0.6229
C79 C 0.3616(17) -0.0069(12) 0.5563(9)
H109 H 0.3930 -0.0701 0.5393
C80 C 0.3836(15) 0.0752(16) 0.5316(7)
H110 H 0.4299 0.0679 0.4977
C81 C 0.3378(16) 0.1677(13) 0.5565(8)
H111 H 0.3528 0.2238 0.5396
C82 C 0.2700(16) 0.1783(12) 0.6062(8)
H112 H 0.2387 0.2416 0.6233
W1 W 0.44767(3) 0.33080(3) 0.406785(15)
Nb1 Nb 0.24432(5) 0.36460(6) 0.20884(3)
P1 P 0.25631(17) 0.48466(17) 0.31856(10)
N1 N 0.1219(5) 0.4228(5) 0.1723(3)
Na1 Na 0.2443(3) 0.6603(3) 0.43419(16)
W2 W 0.00824(3) 0.30760(3) 0.380927(15)
P2 P 0.16122(17) 0.33840(17) 0.30758(9)
N2 N 0.2371(7) 0.2121(6) 0.1707(3)
P3 P 0.34070(17) 0.34528(18) 0.31101(10)
N3 N 0.3829(5) 0.4405(5) 0.1880(3)
C1 C 0.0388(6) 0.3649(6) 0.1282(3)
C2 C -0.0342(6) 0.2917(6) 0.1419(4)
H1 H -0.0293 0.2798 0.1812
C3 C -0.1159(7) 0.2344(7) 0.0979(4)
C4 C -0.1948(8) 0.1554(7) 0.1138(5)
H2 H -0.2697 0.1779 0.1154
H3 H -0.1724 0.1478 0.1539
H4 H -0.1937 0.0891 0.0824
C5 C -0.1196(7) 0.2527(7) 0.0417(4)
H5 H -0.1740 0.2138 0.0118
C6 C -0.0480(7) 0.3251(7) 0.0262(4)
C7 C -0.0535(9) 0.3429(8) -0.0368(4)
H6 H 0.0095 0.3902 -0.0406
H7 H -0.1225 0.3728 -0.0422
H8 H -0.0511 0.2770 -0.0685
C8 C 0.0324(6) 0.3803(6) 0.0701(3)
H9 H 0.0838 0.4292 0.0603
C9 C 0.1262(6) 0.5356(6) 0.1847(4)
H10 H 0.1353 0.5521 0.1451
H11 H 0.1933 0.5661 0.2109
C10 C 0.0258(6) 0.5906(6) 0.2161(4)
C11 C 0.0618(9) 0.7053(6) 0.2329(5)
H12 H 0.0020 0.7443 0.2535
H13 H 0.0787 0.7251 0.1955
H14 H 0.1278 0.7204 0.2605
C12 C -0.0751(6) 0.5714(7) 0.1721(4)
H15 H -0.1016 0.4981 0.1609
H16 H -0.0548 0.5908 0.1350
H17 H -0.1337 0.6128 0.1921
C13 C -0.0027(7) 0.5578(7) 0.2729(4)
H18 H 0.0587 0.5807 0.3036
H19 H -0.0158 0.4825 0.2619
H20 H -0.0695 0.5888 0.2900
C14 C 0.2760(10) 0.1830(13) 0.1073(5)
C15 C 0.1959(10) 0.1719(11) 0.0607(5)
H21 H 0.1217 0.1844 0.0708
C16 C 0.2242(10) 0.1421(10) -0.0014(5)
C17 C 0.1352(11) 0.1259(12) -0.0516(6)
H22 H 0.1695 0.1276 -0.0901
H23 H 0.0851 0.1807 -0.0401
H24 H 0.0934 0.0589 -0.0572
C18 C 0.3330(9) 0.1244(11) -0.0137(5)
H25 H 0.3530 0.1045 -0.0554
C19 C 0.4148(9) 0.1341(10) 0.0316(5)
C20 C 0.5350(10) 0.1233(12) 0.0175(7)
H26 H 0.5414 0.0921 -0.0266
H27 H 0.5656 0.0792 0.0402
H28 H 0.5762 0.1915 0.0298
C21 C 0.3837(10) 0.1626(10) 0.0926(5)
H29 H 0.4374 0.1681 0.1246
C22 C 0.2606(10) 0.1299(9) 0.2017(6)
H30 H 0.2585 0.1597 0.2467
H31 H 0.3362 0.1096 0.1923
C23 C 0.1789(10) 0.0329(9) 0.1820(6)
C24 C 0.0614(9) 0.0644(10) 0.1868(6)
H32 H 0.0096 0.0033 0.1824
H33 H 0.0452 0.0962 0.1542
H34 H 0.0535 0.1139 0.2269
C25 C 0.1998(14) -0.0290(17) 0.2281(11)
H35 H 0.1925 0.0148 0.2700
H36 H 0.2746 -0.0518 0.2238
H37 H 0.1457 -0.0892 0.2199
C26 C 0.196(2) -0.038(2) 0.1171(9)
H38 H 0.2728 -0.0555 0.1141
H39 H 0.1790 -0.0028 0.0863
H40 H 0.1465 -0.1017 0.1098
C40 C 0.3692(6) 0.4820(6) 0.1364(4)
C41 C 0.3442(7) 0.4182(6) 0.0777(3)
H61 H 0.3365 0.3457 0.0711
C42 C 0.3301(8) 0.4582(7) 0.0276(4)
C43 C 0.3072(12) 0.3866(9) -0.0364(4)
H62 H 0.2577 0.4173 -0.0595
H63 H 0.2723 0.3204 -0.0339
H64 H 0.3769 0.3757 -0.0574
C44 C 0.3410(8) 0.5616(7) 0.0364(4)
H65 H 0.3330 0.5885 0.0022
C45 C 0.3638(10) 0.6286(7) 0.0946(5)
C46 C 0.3666(17) 0.7419(8) 0.1041(6)
H66 H 0.4407 0.7685 0.0964
H67 H 0.3485 0.7755 0.1465
H68 H 0.3125 0.7563 0.0757
C47 C 0.3782(8) 0.5876(7) 0.1438(4)
H69 H 0.3948 0.6333 0.1836
C48 C 0.4840(6) 0.4847(7) 0.2266(4)
H70 H 0.4692 0.4846 0.2694
H71 H 0.4984 0.5575 0.2265
C49 C 0.5902(6) 0.4299(7) 0.2078(4)
C50 C 0.6836(7) 0.4997(9) 0.2479(4)
H72 H 0.6647 0.5148 0.2911
H73 H 0.6941 0.5642 0.2364
H74 H 0.7520 0.4650 0.2419
C51 C 0.5800(8) 0.3252(8) 0.2194(5)
H75 H 0.5116 0.2863 0.1993
H76 H 0.5785 0.3339 0.2637
H77 H 0.6435 0.2877 0.2028
C52 C 0.6126(7) 0.4189(9) 0.1402(4)
H78 H 0.6829 0.3885 0.1302
H79 H 0.6167 0.4870 0.1329
H80 H 0.5527 0.3742 0.1141
O1 O 0.5726(5) 0.3162(5) 0.5257(3)
C53 C 0.5247(7) 0.3202(7) 0.4810(4)
O2 O 0.2815(5) 0.4912(5) 0.4749(3)
C54 C 0.3405(7) 0.4305(7) 0.4527(4)
O3 O 0.2842(6) 0.1313(6) 0.3972(3)
C55 C 0.3421(8) 0.2046(7) 0.4020(4)
O4 O 0.6227(7) 0.1894(7) 0.3318(4)
C56 C 0.5572(9) 0.2399(8) 0.3576(4)
O5 O 0.6071(6) 0.5269(6) 0.4025(3)
C57 C 0.5502(7) 0.4570(8) 0.4042(4)
O6 O 0.1922(5) 0.7080(5) 0.5369(3)
C58 C 0.1149(8) 0.7019(8) 0.5671(4)
O7 O 0.1531(5) 0.2970(6) 0.4972(3)
C59 C 0.1061(8) 0.3034(8) 0.4546(5)
O8 O 0.0370(6) 0.5507(6) 0.4310(3)
C60 C 0.0217(7) 0.4625(8) 0.4122(4)
C61 C -0.1025(8) 0.3031(9) 0.3128(5)
O9 O -0.1702(6) 0.2947(7) 0.2746(3)
O10 O 0.0064(7) 0.0628(6) 0.3419(4)
C62 C 0.0088(9) 0.1514(9) 0.3544(5)
C63 C 0.4082(18) 0.7591(15) 0.3337(9)
H81 H 0.4700 0.7836 0.3128
H82 H 0.3650 0.7011 0.3046
H83 H 0.4370 0.7365 0.3680
C64 C 0.3280(17) 0.8539(15) 0.3603(11)
H84 H 0.3678 0.9129 0.3913
H85 H 0.2961 0.8781 0.3269
O11 O 0.2369(11) 0.7948(11) 0.3900(7)
C65 C 0.1553(17) 0.8838(15) 0.4079(11)
H86 H 0.1292 0.9043 0.3718
H87 H 0.1881 0.9452 0.4400
C66 C 0.0589(18) 0.8182(18) 0.4338(11)
H88 H -0.0016 0.8615 0.4482
H89 H 0.0897 0.7965 0.4679
H90 H 0.0307 0.7573 0.4008
Na1A Na 0.7557(3) 0.3397(3) 0.56581(16)
Na1A_2 Na -0.2443(3) 0.3397(3) 0.56581(16)
W2A W -0.00824(3) 0.69240(3) 0.619073(15)
O1A O 0.4274(5) 0.6838(5) 0.4743(3)
C53A C 0.4753(7) 0.6798(7) 0.5190(4)
O6A O -0.1922(5) 0.2920(5) 0.4631(3)
C58A C -0.1149(8) 0.2981(8) 0.4329(4)
C27? C 0.239(2) 0.187(4) 0.1060(11)
C28? C 0.347(2) 0.184(3) 0.0874(11)
H41? H 0.4063 0.2003 0.1171
C29? C 0.3678(19) 0.157(3) 0.0240(12)
C30? C 0.485(2) 0.168(4) 0.0037(17)
H42? H 0.4837 0.1786 -0.0373
H43? H 0.5213 0.1055 0.0024
H44? H 0.5261 0.2275 0.0328
C31? C 0.2785(19) 0.126(3) -0.0169(11)
H45? H 0.2921 0.1073 -0.0595
C32? C 0.1702(19) 0.120(3) 0.0002(11)
C33? C 0.072(2) 0.087(3) -0.0446(13)
H46? H 0.0962 0.0773 -0.0866
H47? H 0.0195 0.1405 -0.0354
H48? H 0.0348 0.0222 -0.0409
C34? C 0.152(2) 0.151(3) 0.0629(11)
H49? H 0.0782 0.1463 0.0763
C35? C 0.160(2) 0.1261(19) 0.1887(13)
H50? H 0.1344 0.1538 0.2308
H51? H 0.0945 0.1052 0.1601
C36? C 0.226(2) 0.0317(19) 0.1856(14)
C37? C 0.166(3) -0.025(4) 0.226(3)
H52? H 0.2073 -0.0829 0.2294
H53? H 0.0916 -0.0519 0.2084
H54? H 0.1599 0.0220 0.2673
C38? C 0.226(4) -0.039(4) 0.120(2)
H55? H 0.2093 -0.1112 0.1201
H56? H 0.2982 -0.0314 0.1028
H57? H 0.1689 -0.0211 0.0943
C39? C 0.3460(19) 0.062(2) 0.2088(14)
H58? H 0.3484 0.1056 0.2513
H59? H 0.3841 0.0990 0.1829
H60? H 0.3827 -0.0009 0.2073
C67? C 0.330(3) 0.787(3) 0.3689(19)
H91? H 0.3845 0.8221 0.3482
H92? H 0.3007 0.7217 0.3404
H93? H 0.3662 0.7745 0.4047
C68? C 0.228(3) 0.862(3) 0.391(2)
H94? H 0.2530 0.9264 0.4232
H95? H 0.1896 0.8772 0.3567
O12? O 0.156(2) 0.7837(19) 0.4183(12)
C69? C 0.037(2) 0.817(3) 0.4130(18)
H96? H -0.0207 0.7625 0.4146
H97? H 0.0251 0.8395 0.3756
C70? C 0.046(4) 0.914(3) 0.4760(17)
H98? H -0.0254 0.9431 0.4829
H99? H 0.1022 0.9678 0.4716
H100? H 0.0677 0.8902 0.5111
loop_
_geom_bond_atom_site_label_1
_geom_bond_atom_site_label_2
_geom_bond_site_symmetry_1
_geom_bond_site_symmetry_2
W1 P3 1_555 1_555
Nb1 P1 1_555 1_555
P1 Na1 1_555 1_555
N1 Nb1 1_555 1_555
Na1 O2 1_555 1_555
W2 P2 1_555 1_555
P2 Nb1 1_555 1_555
N2 Nb1 1_555 1_555
P3 Nb1 1_555 1_555
N3 Nb1 1_555 1_555
C1 N1 1_555 1_555
C2 C1 1_555 1_555
H1 C2 1_555 1_555
C3 C2 1_555 1_555
C4 C3 1_555 1_555
H2 C4 1_555 1_555
H3 C4 1_555 1_555
H4 C4 1_555 1_555
C5 C3 1_555 1_555
H5 C5 1_555 1_555
C6 C5 1_555 1_555
C7 C6 1_555 1_555
H6 C7 1_555 1_555
H7 C7 1_555 1_555
H8 C7 1_555 1_555
C8 C1 1_555 1_555
H9 C8 1_555 1_555
C9 N1 1_555 1_555
H10 C9 1_555 1_555
H11 C9 1_555 1_555
C10 C9 1_555 1_555
C11 C10 1_555 1_555
H12 C11 1_555 1_555
H13 C11 1_555 1_555
H14 C11 1_555 1_555
C12 C10 1_555 1_555
H15 C12 1_555 1_555
H16 C12 1_555 1_555
H17 C12 1_555 1_555
C13 C10 1_555 1_555
H18 C13 1_555 1_555
H19 C13 1_555 1_555
H20 C13 1_555 1_555
C14 N2 1_555 1_555
C15 C14 1_555 1_555
H21 C15 1_555 1_555
C16 C15 1_555 1_555
C17 C16 1_555 1_555
H22 C17 1_555 1_555
H23 C17 1_555 1_555
H24 C17 1_555 1_555
C18 C16 1_555 1_555
H25 C18 1_555 1_555
C19 C18 1_555 1_555
C20 C19 1_555 1_555
H26 C20 1_555 1_555
H27 C20 1_555 1_555
H28 C20 1_555 1_555
C21 C14 1_555 1_555
H29 C21 1_555 1_555
C22 N2 1_555 1_555
H30 C22 1_555 1_555
H31 C22 1_555 1_555
C23 C22 1_555 1_555
C24 C23 1_555 1_555
H32 C24 1_555 1_555
H33 C24 1_555 1_555
H34 C24 1_555 1_555
C25 C23 1_555 1_555
H35 C25 1_555 1_555
H36 C25 1_555 1_555
H37 C25 1_555 1_555
C26 C23 1_555 1_555
H38 C26 1_555 1_555
H39 C26 1_555 1_555
H40 C26 1_555 1_555
C40 N3 1_555 1_555
C41 C40 1_555 1_555
H61 C41 1_555 1_555
C42 C41 1_555 1_555
C43 C42 1_555 1_555
H62 C43 1_555 1_555
H63 C43 1_555 1_555
H64 C43 1_555 1_555
C44 C42 1_555 1_555
H65 C44 1_555 1_555
C45 C44 1_555 1_555
C46 C45 1_555 1_555
H66 C46 1_555 1_555
H67 C46 1_555 1_555
H68 C46 1_555 1_555
C47 C40 1_555 1_555
H69 C47 1_555 1_555
C48 N3 1_555 1_555
H70 C48 1_555 1_555
H71 C48 1_555 1_555
C49 C48 1_555 1_555
C50 C49 1_555 1_555
H72 C50 1_555 1_555
H73 C50 1_555 1_555
H74 C50 1_555 1_555
C51 C49 1_555 1_555
H75 C51 1_555 1_555
H76 C51 1_555 1_555
H77 C51 1_555 1_555
C52 C49 1_555 1_555
H78 C52 1_555 1_555
H79 C52 1_555 1_555
H80 C52 1_555 1_555
O1 C53 1_555 1_555
C53 W1 1_555 1_555
O2 C54 1_555 1_555
C54 W1 1_555 1_555
O3 C55 1_555 1_555
C55 W1 1_555 1_555
O4 C56 1_555 1_555
C56 W1 1_555 1_555
O5 C57 1_555 1_555
C57 W1 1_555 1_555
O6 Na1 1_555 1_555
C58 O6 1_555 1_555
O7 C59 1_555 1_555
C59 W2 1_555 1_555
O8 Na1 1_555 1_555
C60 W2 1_555 1_555
C61 W2 1_555 1_555
O9 C61 1_555 1_555
O10 C62 1_555 1_555
C62 W2 1_555 1_555
C63 H81 1_555 1_555
H82 C63 1_555 1_555
H83 C63 1_555 1_555
C64 C63 1_555 1_555
H84 C64 1_555 1_555
H85 C64 1_555 1_555
O11 Na1 1_555 1_555
C65 O11 1_555 1_555
H86 C65 1_555 1_555
H87 C65 1_555 1_555
C66 C65 1_555 1_555
H88 C66 1_555 1_555
H89 C66 1_555 1_555
H90 C66 1_555 1_555
C71 H101 1_555 1_555
C72 C71 1_555 1_555
H102 C72 1_555 1_555
C73 C72 1_555 1_555
H103 C73 1_555 1_555
C74 C73 1_555 1_555
H104 C74 1_555 1_555
C75 C74 1_555 1_555
H105 C75 1_555 1_555
C76 C71 1_555 1_555
H106 C76 1_555 1_555
C77 H107 1_555 1_555
C78 C77 1_555 1_555
H108 C78 1_555 1_555
C79 C78 1_555 1_555
H109 C79 1_555 1_555
C80 C79 1_555 1_555
H110 C80 1_555 1_555
C81 C80 1_555 1_555
H111 C81 1_555 1_555
C82 C77 1_555 1_555
H112 C82 1_555 1_555
Na1A O1 1_555 1_555
Na1A_2 O6A 1_555 1_555
W2A C58 1_555 1_555
O1A Na1 1_555 1_555
C53A O1A 1_555 1_555
O6A C58A 1_555 1_555
C58A W2 1_555 1_555
P1 P2 1_555 1_555
P1 P3 1_555 1_555
P2 P3 1_555 1_555
C6 C8 1_555 1_555
C19 C21 1_555 1_555
C45 C47 1_555 1_555
O8 C60 1_555 1_555
C64 O11 1_555 1_555
C75 C76 1_555 1_555
C81 C82 1_555 1_555

#END
