
#######################################################################
#
#                 Cambridge Crystallographic Data Centre
#                                CCDC 
#
#######################################################################
#
# If this CIF has been generated from an entry in the Cambridge 
# Structural Database, then it will include bibliographic, chemical, 
# crystal, experimental, refinement or atomic coordinate data resulting 
# from the CCDC's data processing and validation procedures.
#
#######################################################################

data_COHBEI
_symmetry_cell_setting           triclinic
_symmetry_space_group_name_H-M   'P -1'
_symmetry_Int_Tables_number      2
_space_group_name_Hall           '-P 1'
loop_
_symmetry_equiv_pos_site_id
_symmetry_equiv_pos_as_xyz
1 x,y,z
2 -x,-y,-z
_cell_length_a                   6.483(2)
_cell_length_b                   9.222(4)
_cell_length_c                   10.555(3)
_cell_angle_alpha                64.50
_cell_angle_beta                 81.417(4)
_cell_angle_gamma                80.98
_cell_volume                     560.157
loop_
_atom_site_label
_atom_site_type_symbol
_atom_site_fract_x
_atom_site_fract_y
_atom_site_fract_z
Ag1 Ag 0.26728(5) 1.00963(4) 0.12617(3)
Ag2 Ag -0.16790(5) 0.86067(4) 0.23142(3)
O1 O 0.1529(4) 0.7656(3) 0.1371(3)
O2 O 0.0999(5) 0.8447(3) -0.0903(3)
O3 O 0.6967(5) 0.5897(3) 0.2624(3)
O4 O 0.5923(4) 0.8266(3) 0.0949(3)
N1 N -0.2726(5) 0.9503(4) 0.6783(3)
N2 N -0.2222(5) 0.8924(4) 0.4373(3)
C1 C -0.2039(7) 0.5985(5) 0.5802(4)
H1 H -0.1904 0.5990 0.4882
H2 H -0.3253 0.5467 0.6340
H3 H -0.0811 0.5408 0.6273
C2 C 0.6151(6) 0.6724(4) 0.1511(4)
C3 C -0.2522(6) 0.8008(5) 0.6849(4)
H4 H -0.2550 0.7141 0.7731
C4 C -0.2981(6) 1.2420(4) 0.5428(4)
H5 H -0.4315 1.2598 0.5901
H6 H -0.2919 1.3194 0.4461
H7 H -0.1881 1.2538 0.5881
C5 C 0.1910(6) 0.7586(4) 0.0189(4)
C6 C 0.3178(6) 0.5431(4) -0.0651(4)
H8 H 0.1946 0.5726 -0.1094
C7 C 0.3580(6) 0.6280(4) 0.0085(4)
C8 C 0.5443(6) 0.5848(4) 0.0750(4)
C9 C -0.2447(6) 1.0434(5) 0.4305(4)
H9 H -0.2419 1.1300 0.3422
C10 C -0.2716(5) 1.0752(5) 0.5490(4)
C11 C -0.2271(6) 0.7690(5) 0.5663(4)
O1A O 0.8471(4) 0.2344(3) -0.1371(3)
O2A O 0.9001(5) 0.1553(3) 0.0903(3)
O3A O 0.3033(5) 0.4103(3) -0.2624(3)
O4A O 0.4077(4) 0.1734(3) -0.0949(3)
C2A C 0.3849(6) 0.3276(4) -0.1511(4)
C5A C 0.8090(6) 0.2414(4) -0.0189(4)
C6A C 0.6822(6) 0.4569(4) 0.0651(4)
H8A H 0.8054 0.4274 0.1094
C7A C 0.6420(6) 0.3720(4) -0.0085(4)
C8A C 0.4557(6) 0.4152(4) -0.0750(4)
Ag2A Ag 0.16790(5) 0.13933(4) -0.23142(3)
N1A N 0.2726(5) 0.0497(4) -0.6783(3)
N2A N 0.2222(5) 0.1076(4) -0.4373(3)
C1A C 0.2039(7) 0.4015(5) -0.5802(4)
H1A H 0.1904 0.4010 -0.4882
H2A H 0.3253 0.4533 -0.6340
H3A H 0.0811 0.4592 -0.6273
C3A C 0.2522(6) 0.1992(5) -0.6849(4)
H4A H 0.2550 0.2859 -0.7731
C4A C 0.2981(6) -0.2420(4) -0.5428(4)
H5A H 0.4315 -0.2598 -0.5901
H6A H 0.2919 -0.3194 -0.4461
H7A H 0.1881 -0.2538 -0.5881
C9A C 0.2447(6) -0.0434(5) -0.4305(4)
H9A H 0.2419 -0.1300 -0.3422
C10A C 0.2716(5) -0.0752(5) -0.5490(4)
C11A C 0.2271(6) 0.2310(5) -0.5663(4)
Ag1A Ag -0.26728(5) 0.99037(4) -0.12617(3)
Ag1_2 Ag 0.26728(5) 0.00963(4) -0.87383(3)
Ag1_3 Ag 0.26728(5) 0.00963(4) 0.12617(3)
Ag1_4 Ag 1.26728(5) 0.00963(4) 0.12617(3)
Ag1A_2 Ag -0.26728(5) 0.99037(4) 0.87383(3)
Ag1A_3 Ag 0.73272(5) -0.00963(4) -0.12617(3)
Ag1A_4 Ag 0.73272(5) 0.99037(4) -0.12617(3)
Ag2_2 Ag 0.83210(5) -0.13933(4) 0.23142(3)
Ag2_3 Ag 0.83210(5) 0.86067(4) 0.23142(3)
Ag2A_2 Ag 0.16790(5) 1.13933(4) -0.23142(3)
Ag2A_3 Ag 1.16790(5) 0.13933(4) -0.23142(3)
O1A_2 O -0.1529(4) 0.2344(3) -0.1371(3)
O1A_3 O -0.1529(4) 1.2344(3) -0.1371(3)
O2_2 O 0.0999(5) -0.1553(3) -0.0903(3)
O2A_2 O -0.0999(5) 1.1553(3) 0.0903(3)
O3_2 O -0.3033(5) 0.5897(3) 0.2624(3)
O4_2 O -0.4077(4) 0.8266(3) 0.0949(3)
O4A_2 O -0.5923(4) 1.1734(3) -0.0949(3)
O4A_3 O 0.4077(4) 1.1734(3) -0.0949(3)
N1_2 N -0.2726(5) 0.9503(4) -0.3217(3)
N1A_2 N 0.2726(5) 1.0497(4) 0.3217(3)
loop_
_geom_bond_atom_site_label_1
_geom_bond_atom_site_label_2
_geom_bond_site_symmetry_1
_geom_bond_site_symmetry_2
Ag1 O1 1_555 1_555
Ag2 O1 1_555 1_555
O1 C5 1_555 1_555
O2 C5 1_555 1_555
O3 C2 1_555 1_555
O4 Ag1 1_555 1_555
N1 C3 1_555 1_555
N2 Ag2 1_555 1_555
C1 H1 1_555 1_555
H2 C1 1_555 1_555
H3 C1 1_555 1_555
C2 O4 1_555 1_555
C3 H4 1_555 1_555
C4 H5 1_555 1_555
H6 C4 1_555 1_555
H7 C4 1_555 1_555
C5 C7 1_555 1_555
C6 H8 1_555 1_555
C7 C6 1_555 1_555
C8 C2 1_555 1_555
C9 N2 1_555 1_555
H9 C9 1_555 1_555
C10 N1 1_555 1_555
C11 N2 1_555 1_555
O1A C5A 1_555 1_555
O2A C5A 1_555 1_555
O3A C2A 1_555 1_555
O4A C2A 1_555 1_555
C2A C8A 1_555 1_555
C5A C7A 1_555 1_555
C6A C8 1_555 1_555
H8A C6A 1_555 1_555
C7A C6A 1_555 1_555
C8A C6 1_555 1_555
Ag2A O3A 1_555 1_555
N1A C3A 1_555 1_555
N2A Ag2A 1_555 1_555
C1A H1A 1_555 1_555
H2A C1A 1_555 1_555
H3A C1A 1_555 1_555
C3A H4A 1_555 1_555
C4A H5A 1_555 1_555
H6A C4A 1_555 1_555
H7A C4A 1_555 1_555
C9A N2A 1_555 1_555
H9A C9A 1_555 1_555
C10A N1A 1_555 1_555
C11A N2A 1_555 1_555
Ag1A O2 1_555 1_555
Ag1_2 N1A 1_555 1_555
Ag1_3 O4A 1_555 1_555
Ag1_4 O2A 1_555 1_555
Ag1A_2 N1 1_555 1_555
Ag1A_3 O1A 1_555 1_555
Ag1A_4 O4 1_555 1_555
Ag2_2 O2A 1_555 1_555
Ag2_3 O3 1_555 1_555
Ag2A_2 O2 1_555 1_555
Ag2A_3 O1A 1_555 1_555
O1A_2 Ag2A 1_555 1_555
O1A_3 Ag1A 1_555 1_555
O2_2 Ag2A 1_555 1_555
O2A_2 Ag1 1_555 1_555
O3_2 Ag2 1_555 1_555
O4_2 Ag2 1_555 1_555
O4A_2 Ag1A 1_555 1_555
O4A_3 Ag1 1_555 1_555
N1_2 Ag1A 1_555 1_555
N1A_2 Ag1 1_555 1_555
Ag2 O2A_2 1_555 1_555
O4 Ag2_3 1_555 1_555
C1 C11 1_555 1_555
C3 C11 1_555 1_555
C4 C10 1_555 1_555
C7 C8 1_555 1_555
C9 C10 1_555 1_555
O4A Ag2A 1_555 1_555
O4A Ag1A_3 1_555 1_555
C7A C8A 1_555 1_555
C1A C11A 1_555 1_555
C3A C11A 1_555 1_555
C4A C10A 1_555 1_555
C9A C10A 1_555 1_555
Ag1A O4_2 1_555 1_555
Ag1A_4 O4A_3 1_555 1_555
Ag2A_2 O1A_3 1_555 1_555
Ag2A_2 O4A_3 1_555 1_555

#END
