
#######################################################################
#
#                 Cambridge Crystallographic Data Centre
#                                CCDC 
#
#######################################################################
#
# If this CIF has been generated from an entry in the Cambridge 
# Structural Database, then it will include bibliographic, chemical, 
# crystal, experimental, refinement or atomic coordinate data resulting 
# from the CCDC's data processing and validation procedures.
#
#######################################################################

data_COHCAF
_symmetry_cell_setting           monoclinic
_symmetry_space_group_name_H-M   'P 21/c'
_symmetry_Int_Tables_number      14
_space_group_name_Hall           '-P 2ybc'
loop_
_symmetry_equiv_pos_site_id
_symmetry_equiv_pos_as_xyz
1 x,y,z
2 -x,1/2+y,1/2-z
3 -x,-y,-z
4 x,1/2-y,1/2+z
_cell_length_a                   14.757(3)
_cell_length_b                   20.578(4)
_cell_length_c                   13.995(2)
_cell_angle_alpha                90
_cell_angle_beta                 90.040(4)
_cell_angle_gamma                90
_cell_volume                     4249.85
loop_
_atom_site_label
_atom_site_type_symbol
_atom_site_fract_x
_atom_site_fract_y
_atom_site_fract_z
Ag1 Ag -0.56461(7) -0.13931(4) -0.38749(6)
Ag2 Ag 0.06173(7) -0.13104(5) -0.01512(6)
Ag3 Ag -0.49456(6) -0.14822(5) -0.58451(6)
Ag4 Ag 0.03240(7) -0.00728(5) -0.89875(7)
Ag5 Ag -0.11818(7) -0.16904(5) 0.05794(7)
Ag6 Ag -0.59132(7) -0.01640(4) -0.53326(6)
O1 O -0.0326(6) -0.1217(4) -0.1407(6)
O2 O 0.1063(6) -0.1586(4) 0.1309(5)
O3 O -0.3705(6) 0.0171(4) -0.6221(5)
O4 O -0.5019(6) -0.0313(4) -0.6628(5)
O5 O -0.3810(6) -0.1172(4) -0.4858(5)
O6 O -0.1107(6) -0.0232(4) -0.8550(6)
O7 O 0.3247(6) -0.1741(5) 0.5196(6)
O8 O -0.4220(6) -0.1406(4) -0.3354(6)
O9 O -0.1648(6) -0.1654(5) -0.0906(6)
O10 O 0.3671(5) -0.1745(4) 0.3675(5)
O11 O -0.0311(6) -0.1889(5) 0.1818(6)
O12 O -0.1518(6) -0.0004(5) -1.0063(6)
N1 N -0.3907(6) -0.1872(5) 0.2930(6)
N2 N -0.2502(7) -0.1902(4) 0.1587(7)
N3 N -0.8596(7) -0.0236(5) -0.7695(8)
N4 N 0.1943(7) -0.1369(4) -0.1169(7)
N5 N -0.7230(7) -0.0279(4) -0.6324(6)
N6 N 0.3290(7) -0.1496(4) -0.2549(6)
C1 C -0.3023(8) -0.1826(6) 0.3186(8)
H1 H -0.2872 -0.1787 0.3829
C2 C -0.5053(9) -0.2009(6) 0.1716(9)
H2 H -0.5422 -0.1949 0.2274
H3 H -0.5157 -0.2434 0.1455
H4 H -0.5206 -0.1686 0.1248
C3 C 0.0308(8) -0.2156(5) 0.3624(8)
H5 H -0.0298 -0.2229 0.3476
C4 C -0.8805(8) -0.0262(5) -0.6737(8)
C5 C -0.2369(9) -0.1405(5) -0.2767(8)
H6 H -0.2798 -0.1428 -0.2282
C6 C -0.3385(8) -0.1977(5) 0.1325(7)
C7 C -0.3555(9) -0.2067(6) 0.0277(7)
H7 H -0.3895 -0.1704 0.0037
H8 H -0.3893 -0.2460 0.0176
H9 H -0.2987 -0.2094 -0.0054
C8 C -0.1674(8) -0.0158(5) -0.9205(8)
C9 C -0.1452(8) -0.1427(5) -0.2549(8)
C10 C -0.1988(8) -0.1333(5) -0.4452(7)
H10 H -0.2160 -0.1292 -0.5089
C11 C -0.2346(8) -0.1836(6) 0.2512(8)
H11 H -0.1749 -0.1794 0.2718
C12 C -0.4237(8) -0.0111(5) -0.6789(8)
C13 C 0.4467(8) -0.1632(6) -0.1352(9)
H12 H 0.4534 -0.2049 -0.1052
H13 H 0.4658 -0.1298 -0.0919
H14 H 0.4833 -0.1617 -0.1919
C14 C -0.3866(8) -0.0202(5) -0.7820(8)
C15 C -0.4073(8) -0.1942(5) 0.1984(7)
C16 C -0.4503(9) -0.0348(5) -0.8529(8)
H15 H -0.5116 -0.0384 -0.8385
C17 C -0.1106(9) -0.1377(6) -0.4224(9)
H16 H -0.0676 -0.1371 -0.4710
C18 C -0.0819(9) -0.1431(5) -0.3289(7)
H17 H -0.0205 -0.1469 -0.3152
C19 C -0.1106(9) -0.1428(5) -0.1549(8)
C20 C -0.2648(8) -0.1348(5) -0.3737(8)
C21 C -0.4191(8) -0.0437(5) -0.9456(8)
H18 H -0.4599 -0.0536 -0.9942
C22 C 0.1816(8) -0.1856(5) 0.3118(7)
H19 H 0.2209 -0.1734 0.2631
C23 C -0.8086(9) -0.0288(5) -0.6061(9)
C24 C 0.3021(9) -0.1474(6) 0.0119(8)
H20 H 0.2490 -0.1372 0.0485
H21 H 0.3487 -0.1162 0.0254
H22 H 0.3230 -0.1901 0.0287
C25 C -0.2649(9) -0.0242(5) -0.8950(9)
C26 C 0.3481(9) -0.1527(5) -0.1618(9)
C27 C -0.2965(9) -0.0171(5) -0.8007(9)
H23 H -0.2555 -0.0103 -0.7512
C28 C -0.8316(9) -0.0311(6) -0.5004(8)
H24 H -0.7767 -0.0335 -0.4637
H25 H -0.8682 -0.0686 -0.4875
H26 H -0.8645 0.0074 -0.4831
C29 C 0.1739(10) -0.1339(5) -0.2132(9)
H27 H 0.1147 -0.1269 -0.2334
C30 C 0.2442(8) -0.1415(5) -0.2800(8)
H28 H 0.2299 -0.1408 -0.3448
C31 C -0.3282(9) -0.0381(5) -0.9661(8)
H29 H -0.3087 -0.0437 -1.0287
C32 C -0.3652(8) -0.1303(5) -0.3987(8)
C33 C -0.7053(8) -0.0281(6) -0.7254(8)
H30 H -0.6454 -0.0293 -0.7456
C34 C 0.2794(9) -0.1456(5) -0.0930(8)
C35 C 0.0523(8) -0.1800(5) 0.1925(8)
C36 C 0.3083(8) -0.1804(5) 0.4325(8)
C37 C 0.0603(9) -0.2257(6) 0.4552(8)
H31 H 0.0198 -0.2397 0.5017
C38 C -0.7745(8) -0.0264(6) -0.7937(8)
H32 H -0.7592 -0.0272 -0.8582
C39 C 0.2148(8) -0.1944(5) 0.4045(9)
C40 C 0.1512(8) -0.2147(5) 0.4786(9)
H33 H 0.1711 -0.2202 0.5412
C41 C -0.9756(9) -0.0262(6) -0.6460(10)
H34 H -0.9897 0.0138 -0.6140
H35 H -0.9870 -0.0620 -0.6037
H36 H -1.0128 -0.0304 -0.7019
C42 C 0.0887(8) -0.1952(5) 0.2914(8)
Ag1_2 Ag 0.43539(7) -0.13931(4) -0.38749(6)
Ag1_3 Ag 0.43539(7) -0.13931(4) 0.61251(6)
Ag1B Ag -0.43539(7) 0.13931(4) -0.61251(6)
Ag3_2 Ag -0.49456(6) -0.14822(5) 0.41549(6)
Ag3_3 Ag 0.50544(6) -0.14822(5) 0.41549(6)
Ag4_2 Ag -0.96760(7) -0.00728(5) -0.89875(7)
Ag4B Ag -0.03240(7) 0.00728(5) -1.10125(7)
Ag4B_2 Ag -0.03240(7) 0.00728(5) -0.10125(7)
Ag6B Ag -0.40868(7) 0.01640(4) -0.46674(6)
O1B O 0.0326(6) 0.1217(4) -0.8593(6)
O3B O -0.6295(6) -0.0171(4) -0.3779(5)
O7_2 O -0.6753(6) -0.1741(5) -0.4804(6)
O10_2 O -0.6329(5) -0.1745(4) -0.6325(5)
O12B O 0.1518(6) 0.0004(5) -0.9937(6)
N1_2 N -0.3907(6) -0.1872(5) -0.7070(6)
N3_2 N 0.1404(7) -0.0236(5) -0.7695(8)
N6_2 N -0.6710(7) -0.1496(4) -0.2549(6)
loop_
_geom_bond_atom_site_label_1
_geom_bond_atom_site_label_2
_geom_bond_site_symmetry_1
_geom_bond_site_symmetry_2
Ag1 O8 1_555 1_555
Ag2 O1 1_555 1_555
Ag3 O4 1_555 1_555
Ag4 O6 1_555 1_555
Ag5 O9 1_555 1_555
Ag6 O4 1_555 1_555
O1 C19 1_555 1_555
O2 Ag2 1_555 1_555
O3 C12 1_555 1_555
O4 C12 1_555 1_555
O5 Ag3 1_555 1_555
O6 C8 1_555 1_555
O7 C36 1_555 1_555
O8 C32 1_555 1_555
O9 C19 1_555 1_555
O10 C36 1_555 1_555
O11 Ag5 1_555 1_555
O12 C8 1_555 1_555
N1 C1 1_555 1_555
N2 Ag5 1_555 1_555
N3 C4 1_555 1_555
N4 Ag2 1_555 1_555
N5 Ag6 1_555 1_555
N6 C26 1_555 1_555
C1 H1 1_555 1_555
C2 H2 1_555 1_555
H3 C2 1_555 1_555
H4 C2 1_555 1_555
C3 H5 1_555 1_555
C4 C23 1_555 1_555
C5 H6 1_555 1_555
C6 N2 1_555 1_555
C7 C6 1_555 1_555
H7 C7 1_555 1_555
H8 C7 1_555 1_555
H9 C7 1_555 1_555
C8 C25 1_555 1_555
C9 C5 1_555 1_555
C10 H10 1_555 1_555
C11 N2 1_555 1_555
H11 C11 1_555 1_555
C12 C14 1_555 1_555
C13 H12 1_555 1_555
H13 C13 1_555 1_555
H14 C13 1_555 1_555
C14 C16 1_555 1_555
C15 N1 1_555 1_555
C16 H15 1_555 1_555
C17 C10 1_555 1_555
H16 C17 1_555 1_555
C18 C9 1_555 1_555
H17 C18 1_555 1_555
C19 C9 1_555 1_555
C20 C5 1_555 1_555
C21 C16 1_555 1_555
H18 C21 1_555 1_555
C22 H19 1_555 1_555
C23 N5 1_555 1_555
C24 H20 1_555 1_555
H21 C24 1_555 1_555
H22 C24 1_555 1_555
C25 C27 1_555 1_555
C26 C13 1_555 1_555
C27 C14 1_555 1_555
H23 C27 1_555 1_555
C28 C23 1_555 1_555
H24 C28 1_555 1_555
H25 C28 1_555 1_555
H26 C28 1_555 1_555
C29 N4 1_555 1_555
H27 C29 1_555 1_555
C30 N6 1_555 1_555
H28 C30 1_555 1_555
C31 C21 1_555 1_555
H29 C31 1_555 1_555
C32 O5 1_555 1_555
C33 N5 1_555 1_555
H30 C33 1_555 1_555
C34 N4 1_555 1_555
C35 O2 1_555 1_555
C36 C39 1_555 1_555
C37 C3 1_555 1_555
H31 C37 1_555 1_555
C38 N3 1_555 1_555
H32 C38 1_555 1_555
C39 C22 1_555 1_555
C40 C37 1_555 1_555
H33 C40 1_555 1_555
C41 C4 1_555 1_555
H34 C41 1_555 1_555
H35 C41 1_555 1_555
H36 C41 1_555 1_555
C42 C3 1_555 1_555
Ag1_2 N6 1_555 1_555
Ag1_3 O7 1_555 1_555
Ag1B O3 1_555 1_555
Ag3_2 N1 1_555 1_555
Ag3_3 O10 1_555 1_555
Ag4_2 N3 1_555 1_555
Ag4B O12 1_555 1_555
Ag4B_2 O1 1_555 1_555
Ag6B O3 1_555 1_555
O1B Ag4 1_555 1_555
O3B Ag1 1_555 1_555
O7_2 Ag1 1_555 1_555
O10_2 Ag3 1_555 1_555
O12B Ag4 1_555 1_555
N1_2 Ag3 1_555 1_555
N3_2 Ag4 1_555 1_555
N6_2 Ag1 1_555 1_555
Ag6 O3B 1_555 1_555
O11 C35 1_555 1_555
C1 C11 1_555 1_555
C2 C15 1_555 1_555
C6 C15 1_555 1_555
C10 C20 1_555 1_555
C17 C18 1_555 1_555
C20 C32 1_555 1_555
C22 C42 1_555 1_555
C24 C34 1_555 1_555
C25 C31 1_555 1_555
C26 C34 1_555 1_555
C29 C30 1_555 1_555
C33 C38 1_555 1_555
C35 C42 1_555 1_555
C39 C40 1_555 1_555

#END
