
#######################################################################
#
#                 Cambridge Crystallographic Data Centre
#                                CCDC 
#
#######################################################################
#
# If this CIF has been generated from an entry in the Cambridge 
# Structural Database, then it will include bibliographic, chemical, 
# crystal, experimental, refinement or atomic coordinate data resulting 
# from the CCDC's data processing and validation procedures.
#
#######################################################################

data_COHDUA
_symmetry_cell_setting           monoclinic
_symmetry_space_group_name_H-M   'P 21/c'
_symmetry_Int_Tables_number      14
_space_group_name_Hall           '-P 2ybc'
loop_
_symmetry_equiv_pos_site_id
_symmetry_equiv_pos_as_xyz
1 x,y,z
2 -x,1/2+y,1/2-z
3 -x,-y,-z
4 x,1/2-y,1/2+z
_cell_length_a                   10.0896(5)
_cell_length_b                   23.7561(10)
_cell_length_c                   14.7146(7)
_cell_angle_alpha                90
_cell_angle_beta                 108.4190(10)
_cell_angle_gamma                90
_cell_volume                     3346.26
loop_
_atom_site_label
_atom_site_type_symbol
_atom_site_fract_x
_atom_site_fract_y
_atom_site_fract_z
C1 C 0.5668(4) 0.98196(16) 0.6622(3)
C2 C 0.6543(4) 0.96371(17) 0.7624(3)
C3 C 0.5911(4) 0.9486(2) 0.8290(3)
H1 H 0.4949 0.9513 0.8161
C4 C 0.6777(5) 0.9294(2) 0.9162(3)
H2 H 0.6373 0.9175 0.9617
C5 C 0.8679(4) 0.94495(18) 0.8704(3)
C6 C 1.0230(4) 0.9455(2) 0.8951(3)
C7 C 1.1052(5) 0.9151(3) 0.9715(4)
H3 H 1.0643 0.8942 1.0089
C8 C 1.2492(6) 0.9155(3) 0.9930(5)
H4 H 1.3042 0.8938 1.0435
C9 C 1.3104(5) 0.9472(3) 0.9413(4)
H5 H 1.4073 0.9484 0.9580
C10 C 1.2312(5) 0.9774(3) 0.8649(4)
H6 H 1.2733 0.9982 0.8280
C11 C 1.0877(5) 0.9767(2) 0.8426(3)
H7 H 1.0335 0.9979 0.7911
C12 C 0.9481(4) 0.93775(16) 0.3765(3)
C13 C 0.8624(4) 0.90096(17) 0.2944(3)
C14 C 0.9174(5) 0.8811(2) 0.2265(3)
H8 H 1.0090 0.8892 0.2299
C15 C 0.8333(5) 0.8491(2) 0.1533(4)
H9 H 0.8696 0.8351 0.1071
C16 C 0.6545(4) 0.85834(18) 0.2155(3)
C17 C 0.5062(4) 0.84652(18) 0.2067(3)
C18 C 0.4396(5) 0.7997(2) 0.1571(4)
H10 H 0.4880 0.7753 0.1296
C19 C 0.3015(5) 0.7891(2) 0.1483(4)
H11 H 0.2569 0.7577 0.1146
C20 C 0.2304(5) 0.8249(2) 0.1893(4)
H12 H 0.1373 0.8179 0.1833
C21 C 0.2961(5) 0.8711(2) 0.2391(4)
H13 H 0.2481 0.8953 0.2674
C22 C 0.4333(4) 0.8816(2) 0.2473(3)
H14 H 0.4774 0.9131 0.2810
Y1 Y 0.75069(4) 1.005766(15) 0.49858(3)
N1 N 0.7929(3) 0.96173(14) 0.7822(2)
N2 N 0.8160(4) 0.92699(19) 0.9382(3)
N3 N 0.7301(3) 0.88942(14) 0.2898(2)
N4 N 0.7011(4) 0.83730(19) 0.1465(3)
O1 O 0.6298(3) 0.99259(13) 0.60357(19)
O2 O 0.4377(3) 0.98527(11) 0.64575(19)
O3 O 0.8891(3) 0.95605(13) 0.4328(2)
O4 O 1.0718(3) 0.94694(12) 0.3816(2)
O5 O 0.6393(3) 1.09224(12) 0.5128(2)
O6 O 0.8299(3) 1.06988(14) 0.4066(2)
O7 O 0.8894(3) 0.93743(13) 0.6224(2)
O8 O 0.6400(3) 0.91368(12) 0.4561(2)
H15 H 0.668(6) 0.902(2) 0.404(2)
H16 H 0.855(5) 0.9003(11) 0.613(3)
H17 H 0.598(5) 1.1170(19) 0.461(3)
H18 H 0.581(5) 1.091(2) 0.551(3)
H19 H 0.772(4) 1.0968(18) 0.365(3)
H20 H 0.879(6) 0.9501(19) 0.681(2)
H21 H 0.665(6) 0.8849(17) 0.503(3)
H22 H 0.907(4) 1.064(2) 0.385(4)
Y1B Y 0.24931(4) 0.994234(15) 0.50142(3)
Y1B_2 Y 1.24931(4) 0.994234(15) 0.50142(3)
O2B O 0.5623(3) 1.01473(11) 0.35425(19)
O4B O 0.9282(3) 1.05306(12) 0.6184(2)
O9 O 0.7432(3) 0.83499(13) 0.5976(2)
H23 H 0.678(5) 0.835(2) 0.632(4)
H24 H 0.734(5) 0.8000(14) 0.566(4)
C23 C 0.5540(5) 0.15982(19) 0.2956(4)
C24 C 0.4645(4) 0.19101(19) 0.2061(3)
C25 C 0.5204(5) 0.2059(2) 0.1350(4)
H25 H 0.6104 0.1953 0.1379
C26 C 0.4376(5) 0.2367(2) 0.0604(4)
H26 H 0.4737 0.2483 0.0127
C27 C 0.2585(4) 0.23249(18) 0.1235(3)
C28 C 0.1124(5) 0.2462(2) 0.1165(3)
C29 C 0.0390(5) 0.2875(2) 0.0535(4)
H27 H 0.0811 0.3060 0.0141
C30 C -0.0966(5) 0.3011(2) 0.0491(4)
H28 H -0.1450 0.3289 0.0071
C31 C -0.1589(5) 0.2737(2) 0.1064(4)
H29 H -0.2494 0.2831 0.1040
C32 C -0.0881(6) 0.2323(3) 0.1673(5)
H30 H -0.1319 0.2130 0.2049
C33 C 0.0482(5) 0.2189(2) 0.1735(4)
H31 H 0.0963 0.1914 0.2164
N5 N 0.3335(4) 0.20368(15) 0.2009(3)
N6 N 0.3063(4) 0.25087(17) 0.0534(3)
O10 O 0.5060(3) 0.15420(14) 0.3631(3)
O11 O 0.6694(3) 0.14318(15) 0.2919(3)
loop_
_geom_bond_atom_site_label_1
_geom_bond_atom_site_label_2
_geom_bond_site_symmetry_1
_geom_bond_site_symmetry_2
C1 C2 1_555 1_555
C2 C3 1_555 1_555
C3 H1 1_555 1_555
C4 C3 1_555 1_555
H2 C4 1_555 1_555
C5 C6 1_555 1_555
C6 C7 1_555 1_555
C7 H3 1_555 1_555
C8 C7 1_555 1_555
H4 C8 1_555 1_555
C9 C8 1_555 1_555
H5 C9 1_555 1_555
C10 C9 1_555 1_555
H6 C10 1_555 1_555
C11 C6 1_555 1_555
H7 C11 1_555 1_555
C12 C13 1_555 1_555
C13 C14 1_555 1_555
C14 H8 1_555 1_555
C15 C14 1_555 1_555
H9 C15 1_555 1_555
C16 C17 1_555 1_555
C17 C18 1_555 1_555
C18 H10 1_555 1_555
C19 C18 1_555 1_555
H11 C19 1_555 1_555
C20 C19 1_555 1_555
H12 C20 1_555 1_555
C21 C20 1_555 1_555
H13 C21 1_555 1_555
C22 C17 1_555 1_555
H14 C22 1_555 1_555
Y1 O1 1_555 1_555
N1 C2 1_555 1_555
N2 C4 1_555 1_555
N3 C13 1_555 1_555
N4 C15 1_555 1_555
O1 C1 1_555 1_555
O2 C1 1_555 1_555
O3 C12 1_555 1_555
O4 C12 1_555 1_555
O5 Y1 1_555 1_555
O6 Y1 1_555 1_555
O7 Y1 1_555 1_555
O8 Y1 1_555 1_555
H15 O8 1_555 1_555
H16 O7 1_555 1_555
H17 O5 1_555 1_555
H18 O5 1_555 1_555
H19 O6 1_555 1_555
H20 O7 1_555 1_555
H21 O8 1_555 1_555
H22 O6 1_555 1_555
O9 H23 1_555 1_555
H24 O9 1_555 1_555
C23 C24 1_555 1_555
C24 C25 1_555 1_555
C25 H25 1_555 1_555
C26 C25 1_555 1_555
H26 C26 1_555 1_555
C27 C28 1_555 1_555
C28 C29 1_555 1_555
C29 H27 1_555 1_555
C30 C29 1_555 1_555
H28 C30 1_555 1_555
C31 C30 1_555 1_555
H29 C31 1_555 1_555
C32 C31 1_555 1_555
H30 C32 1_555 1_555
C33 C28 1_555 1_555
H31 C33 1_555 1_555
N5 C24 1_555 1_555
N6 C26 1_555 1_555
O10 C23 1_555 1_555
O11 C23 1_555 1_555
Y1B O2 1_555 1_555
Y1B_2 O4 1_555 1_555
O2B Y1 1_555 1_555
O4B Y1 1_555 1_555
C5 N1 1_555 1_555
C5 N2 1_555 1_555
C10 C11 1_555 1_555
C16 N3 1_555 1_555
C16 N4 1_555 1_555
C21 C22 1_555 1_555
Y1 O3 1_555 1_555
C27 N5 1_555 1_555
C27 N6 1_555 1_555
C32 C33 1_555 1_555

#END
