
#######################################################################
#
#                 Cambridge Crystallographic Data Centre
#                                CCDC 
#
#######################################################################
#
# If this CIF has been generated from an entry in the Cambridge 
# Structural Database, then it will include bibliographic, chemical, 
# crystal, experimental, refinement or atomic coordinate data resulting 
# from the CCDC's data processing and validation procedures.
#
#######################################################################

data_COHDOU
_symmetry_cell_setting           monoclinic
_symmetry_space_group_name_H-M   'P 21/c'
_symmetry_Int_Tables_number      14
_space_group_name_Hall           '-P 2ybc'
loop_
_symmetry_equiv_pos_site_id
_symmetry_equiv_pos_as_xyz
1 x,y,z
2 -x,1/2+y,1/2-z
3 -x,-y,-z
4 x,1/2-y,1/2+z
_cell_length_a                   10.1030(9)
_cell_length_b                   23.756(2)
_cell_length_c                   14.7387(13)
_cell_angle_alpha                90
_cell_angle_beta                 108.4240(10)
_cell_angle_gamma                90
_cell_volume                     3356.08
loop_
_atom_site_label
_atom_site_type_symbol
_atom_site_fract_x
_atom_site_fract_y
_atom_site_fract_z
C1 C 0.5669(6) 0.9817(2) 0.6630(4)
C2 C 0.6539(6) 0.9635(2) 0.7628(4)
C3 C 0.5914(7) 0.9483(3) 0.8306(5)
H1 H 0.4955 0.9508 0.8182
C4 C 0.6787(8) 0.9293(3) 0.9172(5)
H2 H 0.6388 0.9172 0.9627
C5 C 0.8687(6) 0.9449(3) 0.8711(4)
C6 C 1.0220(7) 0.9460(3) 0.8952(4)
C7 C 1.1032(8) 0.9150(4) 0.9716(6)
H3 H 1.0616 0.8940 1.0084
C8 C 1.2474(9) 0.9152(5) 0.9934(7)
H4 H 1.3017 0.8934 1.0439
C9 C 1.3110(8) 0.9472(4) 0.9413(6)
H5 H 1.4077 0.9487 0.9584
C10 C 1.2303(8) 0.9767(4) 0.8644(6)
H6 H 1.2720 0.9970 0.8269
C11 C 1.0866(7) 0.9765(3) 0.8420(5)
H7 H 1.0327 0.9973 0.7900
C12 C 0.9488(6) 0.9375(2) 0.3760(4)
C13 C 0.8621(6) 0.9002(2) 0.2938(4)
C14 C 0.9159(7) 0.8804(3) 0.2246(5)
H8 H 1.0067 0.8889 0.2267
C15 C 0.8318(8) 0.8482(4) 0.1537(5)
H9 H 0.8680 0.8334 0.1080
C16 C 0.6548(6) 0.8579(3) 0.2146(4)
C17 C 0.5073(6) 0.8462(3) 0.2073(4)
C18 C 0.4398(8) 0.7993(3) 0.1569(5)
H10 H 0.4875 0.7750 0.1285
C19 C 0.3028(7) 0.7887(3) 0.1490(5)
H11 H 0.2588 0.7571 0.1157
C20 C 0.2302(7) 0.8240(3) 0.1894(5)
H12 H 0.1374 0.8164 0.1832
C21 C 0.2949(8) 0.8711(4) 0.2396(6)
H13 H 0.2460 0.8951 0.2674
C22 C 0.4326(7) 0.8822(3) 0.2481(5)
H14 H 0.4759 0.9140 0.2813
Dy1 Dy 0.75077(3) 1.005868(10) 0.49874(2)
N1 N 0.7928(5) 0.9619(2) 0.7822(3)
N2 N 0.8162(6) 0.9273(3) 0.9391(4)
N3 N 0.7304(5) 0.8891(2) 0.2893(3)
N4 N 0.7002(6) 0.8369(3) 0.1464(4)
O1 O 0.6293(5) 0.99225(18) 0.6045(3)
O2 O 0.4382(4) 0.98469(18) 0.6472(3)
O3 O 0.8911(4) 0.95577(19) 0.4325(3)
O4 O 1.0714(4) 0.94603(17) 0.3805(3)
O5 O 0.6375(4) 1.09268(18) 0.5126(3)
O6 O 0.8298(4) 1.0705(2) 0.4052(3)
O7 O 0.8892(4) 0.93746(18) 0.6225(3)
O8 O 0.6404(4) 0.91323(17) 0.4554(3)
H15 H 0.674(9) 0.902(3) 0.405(4)
H16 H 0.872(9) 0.8979(12) 0.610(6)
H17 H 0.590(8) 1.115(3) 0.459(4)
H18 H 0.580(7) 1.095(4) 0.553(5)
H19 H 0.777(7) 1.100(3) 0.368(6)
H20 H 0.850(9) 0.945(3) 0.673(5)
H21 H 0.663(9) 0.883(2) 0.501(4)
H22 H 0.916(5) 1.069(3) 0.392(6)
Dy1B Dy 0.24923(3) 0.994132(10) 0.50126(2)
Dy1B_2 Dy 1.24923(3) 0.994132(10) 0.50126(2)
O2B O 0.5618(4) 1.01531(18) 0.3528(3)
O4B O 0.9286(4) 1.05397(17) 0.6195(3)
O9 O 0.7438(5) 0.83492(19) 0.5984(4)
H23 H 0.689(8) 0.835(3) 0.641(5)
H24 H 0.736(9) 0.7976(16) 0.573(6)
C23 C 0.5529(7) 0.1594(3) 0.2944(5)
C24 C 0.4649(7) 0.1912(3) 0.2060(5)
C25 C 0.5205(8) 0.2060(3) 0.1355(6)
H25 H 0.6101 0.1952 0.1380
C26 C 0.4362(9) 0.2377(4) 0.0606(6)
H26 H 0.4727 0.2501 0.0135
C27 C 0.2575(7) 0.2332(3) 0.1227(5)
C28 C 0.1111(7) 0.2463(3) 0.1160(5)
C29 C 0.0375(7) 0.2879(3) 0.0539(5)
H27 H 0.0794 0.3067 0.0149
C30 C -0.0972(8) 0.3014(3) 0.0498(6)
H28 H -0.1457 0.3293 0.0081
C31 C -0.1592(8) 0.2739(4) 0.1067(6)
H29 H -0.2498 0.2832 0.1039
C32 C -0.0888(9) 0.2324(4) 0.1684(6)
H30 H -0.1318 0.2133 0.2066
C33 C 0.0476(8) 0.2193(4) 0.1728(6)
H31 H 0.0961 0.1917 0.2152
N5 N 0.3332(6) 0.2034(2) 0.2003(4)
N6 N 0.3049(6) 0.2514(3) 0.0529(4)
O10 O 0.5052(5) 0.1543(2) 0.3627(4)
O11 O 0.6687(5) 0.1431(2) 0.2917(4)
loop_
_geom_bond_atom_site_label_1
_geom_bond_atom_site_label_2
_geom_bond_site_symmetry_1
_geom_bond_site_symmetry_2
C1 C2 1_555 1_555
C2 C3 1_555 1_555
C3 H1 1_555 1_555
C4 C3 1_555 1_555
H2 C4 1_555 1_555
C5 C6 1_555 1_555
C6 C7 1_555 1_555
C7 H3 1_555 1_555
C8 C7 1_555 1_555
H4 C8 1_555 1_555
C9 C8 1_555 1_555
H5 C9 1_555 1_555
C10 C9 1_555 1_555
H6 C10 1_555 1_555
C11 C6 1_555 1_555
H7 C11 1_555 1_555
C12 C13 1_555 1_555
C13 C14 1_555 1_555
C14 H8 1_555 1_555
C15 C14 1_555 1_555
H9 C15 1_555 1_555
C16 C17 1_555 1_555
C17 C18 1_555 1_555
C18 H10 1_555 1_555
C19 C18 1_555 1_555
H11 C19 1_555 1_555
C20 C19 1_555 1_555
H12 C20 1_555 1_555
C21 C20 1_555 1_555
H13 C21 1_555 1_555
C22 C17 1_555 1_555
H14 C22 1_555 1_555
Dy1 O1 1_555 1_555
N1 C2 1_555 1_555
N2 C4 1_555 1_555
N3 C13 1_555 1_555
N4 C15 1_555 1_555
O1 C1 1_555 1_555
O2 C1 1_555 1_555
O3 C12 1_555 1_555
O4 C12 1_555 1_555
O5 Dy1 1_555 1_555
O6 Dy1 1_555 1_555
O7 Dy1 1_555 1_555
O8 Dy1 1_555 1_555
H15 O8 1_555 1_555
H16 O7 1_555 1_555
H17 O5 1_555 1_555
H18 O5 1_555 1_555
H19 O6 1_555 1_555
H20 O7 1_555 1_555
H21 O8 1_555 1_555
H22 O6 1_555 1_555
O9 H23 1_555 1_555
H24 O9 1_555 1_555
C23 C24 1_555 1_555
C24 C25 1_555 1_555
C25 H25 1_555 1_555
C26 C25 1_555 1_555
H26 C26 1_555 1_555
C27 C28 1_555 1_555
C28 C29 1_555 1_555
C29 H27 1_555 1_555
C30 C29 1_555 1_555
H28 C30 1_555 1_555
C31 C30 1_555 1_555
H29 C31 1_555 1_555
C32 C31 1_555 1_555
H30 C32 1_555 1_555
C33 C28 1_555 1_555
H31 C33 1_555 1_555
N5 C24 1_555 1_555
N6 C26 1_555 1_555
O10 C23 1_555 1_555
O11 C23 1_555 1_555
Dy1B O2 1_555 1_555
Dy1B_2 O4 1_555 1_555
O2B Dy1 1_555 1_555
O4B Dy1 1_555 1_555
C5 N1 1_555 1_555
C5 N2 1_555 1_555
C10 C11 1_555 1_555
C16 N3 1_555 1_555
C16 N4 1_555 1_555
C21 C22 1_555 1_555
Dy1 O3 1_555 1_555
C27 N5 1_555 1_555
C27 N6 1_555 1_555
C32 C33 1_555 1_555

#END
