
#######################################################################
#
#                 Cambridge Crystallographic Data Centre
#                                CCDC 
#
#######################################################################
#
# If this CIF has been generated from an entry in the Cambridge 
# Structural Database, then it will include bibliographic, chemical, 
# crystal, experimental, refinement or atomic coordinate data resulting 
# from the CCDC's data processing and validation procedures.
#
#######################################################################

data_COHGUC
_symmetry_cell_setting           orthorhombic
_symmetry_space_group_name_H-M   'P n n m'
_symmetry_Int_Tables_number      58
_space_group_name_Hall           '-P 2 2n'
loop_
_symmetry_equiv_pos_site_id
_symmetry_equiv_pos_as_xyz
1 x,y,z
2 -x,-y,z
3 1/2-x,1/2+y,1/2-z
4 1/2+x,1/2-y,1/2-z
5 -x,-y,-z
6 x,y,-z
7 1/2+x,1/2-y,1/2+z
8 1/2-x,1/2+y,1/2+z
_cell_length_a                   16.390(3)
_cell_length_b                   18.683(4)
_cell_length_c                   20.069(4)
_cell_angle_alpha                90
_cell_angle_beta                 90
_cell_angle_gamma                90
_cell_volume                     6145.42
loop_
_atom_site_label
_atom_site_type_symbol
_atom_site_fract_x
_atom_site_fract_y
_atom_site_fract_z
Ni1 Ni 0.34266(2) 0.02463(2) 0.229072(17)
O1 O 0.35650(15) -0.00610(15) 0.32371(11)
O2 O 0.44058(14) 0.09411(12) 0.23805(11)
O3 O 0.34765(12) 0.02768(11) 0.12354(11)
O4 O 0.41543(12) -0.05367(11) 0.17910(9)
O5 O 0.43391(17) 0.07697(15) 0.37097(11)
O6 O 0.2036(3) -0.1793(2) 0.55550(15)
O7 O 0.5940(2) -0.22185(18) -0.05514(13)
N1 N 0.26478(18) 0.10983(18) 0.24501(18)
N2 N 0.24233(16) -0.04515(16) 0.22184(13)
C1 C 0.3654(2) -0.00811(19) 0.43964(15)
C2 C 0.3122(2) -0.0652(2) 0.44042(17)
H1 H 0.2933 -0.0843 0.4005
C3 C 0.2868(4) -0.0944(3) 0.5000
C4 C 0.3930(3) 0.0201(2) 0.5000
H2 H 0.4299 0.0578 0.5000
C5 C 0.38875(19) 0.02408(17) 0.37363(15)
C6 C 0.2261(5) -0.1537(4) 0.5000
C7 C 0.42313(16) -0.05751(14) 0.06027(13)
C8 C 0.47880(18) -0.11292(15) 0.06027(14)
H3 H 0.4977 -0.1317 0.1003
C9 C 0.5065(3) -0.1405(2) 0.0000
C10 C 0.3950(2) -0.0296(2) 0.0000
H4 H 0.3574 0.0077 0.0000
C11 C 0.39367(16) -0.02589(15) 0.12441(14)
C12 C 0.5688(4) -0.1989(3) 0.0000
C13 C 0.2515(2) 0.1570(2) 0.1979(3)
H5 H 0.2843 0.1563 0.1601
C14 C 0.1900(3) 0.2080(2) 0.2025(4)
H6 H 0.1829 0.2404 0.1679
C15 C 0.1405(3) 0.2114(3) 0.2559(4)
C16 C 0.1575(3) 0.1671(5) 0.3046(4)
H7 H 0.1291 0.1721 0.3445
C17 C 0.2177(3) 0.1111(4) 0.3000(3)
H8 H 0.2238 0.0773 0.3336
C18 C 0.0704(3) 0.2646(3) 0.2593(5)
H9 H 0.0682 0.2919 0.2182
H10 H 0.0795 0.2977 0.2957
C19 C -0.0115(3) 0.2252(3) 0.2698(4)
H11 H -0.0074 0.1935 0.3079
H12 H -0.0544 0.2598 0.2786
C20 C -0.0321(3) 0.1832(3) 0.2094(4)
H13 H 0.0144 0.1536 0.1980
H14 H -0.0408 0.2162 0.1728
C21 C 0.1774(3) -0.0290(3) 0.1865(3)
H15 H 0.1772 0.0141 0.1634
C22 C 0.1094(3) -0.0723(3) 0.1818(3)
H16 H 0.0655 -0.0581 0.1557
C23 C -0.1064(2) 0.1356(2) 0.2153(3)
C24 C -0.1739(3) 0.1528(3) 0.2525(3)
H17 H -0.1749 0.1953 0.2766
C25 C 0.2411(2) -0.1072(2) 0.2543(2)
H18 H 0.2866 -0.1206 0.2790
H19 H 0.4885(13) 0.087(3) 0.223(2)
H20 H 0.429(17) 0.065(13) 0.269(10)
Ni1E Ni 0.34266(2) 0.02463(2) 0.770928(17)
Ni1A Ni -0.34266(2) -0.02463(2) 0.229072(17)
Ni1E_2 Ni 0.34266(2) 0.02463(2) -0.229072(17)
O1E O 0.35650(15) -0.00610(15) 0.67629(11)
O2E O 0.44058(14) 0.09411(12) 0.76195(11)
O3E O 0.34765(12) 0.02768(11) 0.87646(11)
O3E_2 O 0.34765(12) 0.02768(11) -0.12354(11)
O4E O 0.41543(12) -0.05367(11) 0.82090(9)
O4E_2 O 0.41543(12) -0.05367(11) -0.17910(9)
O5E O 0.43391(17) 0.07697(15) 0.62903(11)
O6E O 0.2036(3) -0.1793(2) 0.44450(15)
O7E O 0.5940(2) -0.22185(18) 0.05514(13)
N1E N 0.26478(18) 0.10983(18) 0.75499(18)
N1A N -0.26478(18) -0.10983(18) 0.24501(18)
N2A N -0.24233(16) 0.04515(16) 0.22184(13)
N2E N 0.24233(16) -0.04515(16) 0.77816(13)
C1E C 0.3654(2) -0.00811(19) 0.56036(15)
C2E C 0.3122(2) -0.0652(2) 0.55958(17)
H1E H 0.2933 -0.0843 0.5995
C5E C 0.38875(19) 0.02408(17) 0.62637(15)
C7E C 0.42313(16) -0.05751(14) -0.06027(13)
C8E C 0.47880(18) -0.11292(15) -0.06027(14)
H3E H 0.4977 -0.1317 -0.1003
C11E C 0.39367(16) -0.02589(15) -0.12441(14)
C13A C -0.2515(2) -0.1570(2) 0.1979(3)
H5A H -0.2843 -0.1563 0.1601
C14A C -0.1900(3) -0.2080(2) 0.2025(4)
H6A H -0.1829 -0.2404 0.1679
C15A C -0.1405(3) -0.2114(3) 0.2559(4)
C16A C -0.1575(3) -0.1671(5) 0.3046(4)
H7A H -0.1291 -0.1721 0.3445
C17A C -0.2177(3) -0.1111(4) 0.3000(3)
H8A H -0.2238 -0.0773 0.3336
C18A C -0.0704(3) -0.2646(3) 0.2593(5)
H9A H -0.0682 -0.2919 0.2182
H10A H -0.0795 -0.2977 0.2957
C19A C 0.0115(3) -0.2252(3) 0.2698(4)
H11A H 0.0074 -0.1935 0.3079
H12A H 0.0544 -0.2598 0.2786
C20A C 0.0321(3) -0.1832(3) 0.2094(4)
H13A H -0.0144 -0.1536 0.1980
H14A H 0.0408 -0.2162 0.1728
C21A C -0.1774(3) 0.0290(3) 0.1865(3)
H15A H -0.1772 -0.0141 0.1634
C22A C -0.1094(3) 0.0723(3) 0.1818(3)
H16A H -0.0655 0.0581 0.1557
C23A C 0.1064(2) -0.1356(2) 0.2153(3)
C24A C 0.1739(3) -0.1528(3) 0.2525(3)
H17A H 0.1749 -0.1953 0.2766
C25A C -0.2411(2) 0.1072(2) 0.2543(2)
H18A H -0.2866 0.1206 0.2790
H19E H 0.4885(13) 0.087(3) 0.777(2)
H20E H 0.429(17) 0.065(13) 0.731(10)
loop_
_geom_bond_atom_site_label_1
_geom_bond_atom_site_label_2
_geom_bond_site_symmetry_1
_geom_bond_site_symmetry_2
Ni1 O1 1_555 1_555
O1 C5 1_555 1_555
O2 Ni1 1_555 1_555
O3 Ni1 1_555 1_555
O4 Ni1 1_555 1_555
O5 C5 1_555 1_555
O6 C6 1_555 1_555
O7 C12 1_555 1_555
N1 Ni1 1_555 1_555
N2 Ni1 1_555 1_555
C1 C2 1_555 1_555
C2 H1 1_555 1_555
C3 C2 1_555 1_555
C4 C1 1_555 1_555
H2 C4 1_555 1_555
C5 C1 1_555 1_555
C6 C3 1_555 1_555
C7 C8 1_555 1_555
C8 H3 1_555 1_555
C9 C8 1_555 1_555
C10 C7 1_555 1_555
H4 C10 1_555 1_555
C11 O3 1_555 1_555
C12 C9 1_555 1_555
C13 N1 1_555 1_555
H5 C13 1_555 1_555
C14 C13 1_555 1_555
H6 C14 1_555 1_555
C15 C14 1_555 1_555
C16 C15 1_555 1_555
H7 C16 1_555 1_555
C17 N1 1_555 1_555
H8 C17 1_555 1_555
C18 C15 1_555 1_555
H9 C18 1_555 1_555
H10 C18 1_555 1_555
C19 C18 1_555 1_555
H11 C19 1_555 1_555
H12 C19 1_555 1_555
C20 C19 1_555 1_555
H13 C20 1_555 1_555
H14 C20 1_555 1_555
C21 N2 1_555 1_555
H15 C21 1_555 1_555
C22 C21 1_555 1_555
H16 C22 1_555 1_555
C23 C20 1_555 1_555
C24 C23 1_555 1_555
H17 C24 1_555 1_555
C25 N2 1_555 1_555
H18 C25 1_555 1_555
H19 O2 1_555 1_555
H20 O2 1_555 1_555
Ni1E O1E 1_555 1_555
Ni1A N1A 1_555 1_555
Ni1E_2 O3E_2 1_555 1_555
O1E C5E 1_555 1_555
O2E Ni1E 1_555 1_555
O3E Ni1E 1_555 1_555
O3E_2 C11E 1_555 1_555
O4E Ni1E 1_555 1_555
O4E_2 Ni1E_2 1_555 1_555
O5E C5E 1_555 1_555
O6E C6 1_555 1_555
O7E C12 1_555 1_555
N1E Ni1E 1_555 1_555
N1A C13A 1_555 1_555
N2A Ni1A 1_555 1_555
N2E Ni1E 1_555 1_555
C1E C4 1_555 1_555
C2E C3 1_555 1_555
H1E C2E 1_555 1_555
C5E C1E 1_555 1_555
C7E C10 1_555 1_555
C8E C9 1_555 1_555
H3E C8E 1_555 1_555
C11E O4E_2 1_555 1_555
C13A H5A 1_555 1_555
C14A C13A 1_555 1_555
H6A C14A 1_555 1_555
C15A C14A 1_555 1_555
C16A C15A 1_555 1_555
H7A C16A 1_555 1_555
C17A N1A 1_555 1_555
H8A C17A 1_555 1_555
C18A C15A 1_555 1_555
H9A C18A 1_555 1_555
H10A C18A 1_555 1_555
C19A C18A 1_555 1_555
H11A C19A 1_555 1_555
H12A C19A 1_555 1_555
C20A C19A 1_555 1_555
H13A C20A 1_555 1_555
H14A C20A 1_555 1_555
C21A N2A 1_555 1_555
H15A C21A 1_555 1_555
C22A C23 1_555 1_555
H16A C22A 1_555 1_555
C23A C22 1_555 1_555
C24A C25 1_555 1_555
H17A C24A 1_555 1_555
C25A C24 1_555 1_555
H18A C25A 1_555 1_555
H19E O2E 1_555 1_555
H20E O2E 1_555 1_555
O4 C11 1_555 1_555
C7 C11 1_555 1_555
C16 C17 1_555 1_555
N2A C25A 1_555 1_555
C1E C2E 1_555 1_555
C7E C8E 1_555 1_555
C7E C11E 1_555 1_555
C16A C17A 1_555 1_555
C20A C23A 1_555 1_555
C21A C22A 1_555 1_555
C23A C24A 1_555 1_555

#END
