
#######################################################################
#
#                 Cambridge Crystallographic Data Centre
#                                CCDC 
#
#######################################################################
#
# If this CIF has been generated from an entry in the Cambridge 
# Structural Database, then it will include bibliographic, chemical, 
# crystal, experimental, refinement or atomic coordinate data resulting 
# from the CCDC's data processing and validation procedures.
#
#######################################################################

data_COHHAJ
_symmetry_cell_setting           triclinic
_symmetry_space_group_name_H-M   'P -1'
_symmetry_Int_Tables_number      2
_space_group_name_Hall           '-P 1'
loop_
_symmetry_equiv_pos_site_id
_symmetry_equiv_pos_as_xyz
1 x,y,z
2 -x,-y,-z
_cell_length_a                   7.140(5)
_cell_length_b                   9.244(7)
_cell_length_c                   10.316(7)
_cell_angle_alpha                78.091(11)
_cell_angle_beta                 88.694(10)
_cell_angle_gamma                79.426(11)
_cell_volume                     654.83
loop_
_atom_site_label
_atom_site_type_symbol
_atom_site_fract_x
_atom_site_fract_y
_atom_site_fract_z
H1 H 0.228(11) 0.555(8) 0.305(7)
H2 H 0.046(11) 0.568(10) 0.374(12)
Co1 Co 0.20693(9) 0.26907(8) 0.42992(7)
O1 O 0.2309(6) 0.1802(5) 0.2669(4)
O2 O 0.1524(6) 0.4945(5) 0.3608(4)
O3 O 0.2478(5) 0.0867(4) -0.4023(4)
O4 O 0.1809(6) 0.3145(5) -0.3645(4)
O5 O 0.2443(10) 0.3785(6) 0.1068(5)
O6 O 0.3144(7) -0.3172(5) 0.1759(4)
H3 H 0.3189 -0.4084 0.1915
O7 O 0.2464(8) -0.3503(5) -0.0241(5)
N1 N -0.0971(6) 0.2630(5) 0.4317(4)
N2 N -0.4868(6) 0.2677(5) 0.4318(5)
C1 C 0.2407(7) 0.1452(6) 0.0478(5)
C2 C 0.2280(7) 0.2045(6) -0.0878(5)
H4 H 0.2180 0.3075 -0.1189
C3 C 0.2302(7) 0.1095(6) -0.1769(5)
C4 C 0.2464(8) -0.0460(6) -0.1317(6)
H5 H 0.2482 -0.1092 -0.1912
C5 C 0.2598(7) -0.1036(6) 0.0034(5)
C6 C 0.2588(7) -0.0090(6) 0.0923(5)
H6 H 0.2705 -0.0497 0.1826
C7 C 0.2398(8) 0.2434(6) 0.1459(6)
C8 C 0.2202(7) 0.1730(6) -0.3213(5)
C9 C 0.2770(8) -0.2664(6) 0.0593(6)
C10 C -0.2109(7) 0.3484(7) 0.3341(5)
H7 H -0.1584 0.4080 0.2641
C11 C -0.4048(8) 0.3508(7) 0.3342(6)
H8 H -0.4798 0.4120 0.2643
C12 C -0.3731(8) 0.1803(7) 0.5277(6)
H9 H -0.4253 0.1190 0.5967
C13 C -0.1785(8) 0.1780(7) 0.5277(6)
H10 H -0.1031 0.1153 0.5967
Co1_2 Co 0.20693(9) 0.26907(8) -0.57008(7)
Co1_3 Co -0.79307(9) 0.26907(8) 0.42992(7)
O3_2 O 0.2478(5) 0.0867(4) 0.5977(4)
O4_2 O 0.1809(6) 0.3145(5) 0.6355(4)
N2_2 N 0.5132(6) 0.2677(5) 0.4318(5)
loop_
_geom_bond_atom_site_label_1
_geom_bond_atom_site_label_2
_geom_bond_site_symmetry_1
_geom_bond_site_symmetry_2
H1 O2 1_555 1_555
H2 O2 1_555 1_555
Co1 O1 1_555 1_555
O1 C7 1_555 1_555
O2 Co1 1_555 1_555
O3 C8 1_555 1_555
O4 C8 1_555 1_555
O5 C7 1_555 1_555
O6 H3 1_555 1_555
O7 C9 1_555 1_555
N1 Co1 1_555 1_555
N2 C11 1_555 1_555
C1 C2 1_555 1_555
C2 H4 1_555 1_555
C3 C2 1_555 1_555
C4 C3 1_555 1_555
H5 C4 1_555 1_555
C5 C4 1_555 1_555
C6 C1 1_555 1_555
H6 C6 1_555 1_555
C7 C1 1_555 1_555
C8 C3 1_555 1_555
C9 O6 1_555 1_555
C10 N1 1_555 1_555
H7 C10 1_555 1_555
C11 C10 1_555 1_555
H8 C11 1_555 1_555
C12 N2 1_555 1_555
H9 C12 1_555 1_555
C13 N1 1_555 1_555
H10 C13 1_555 1_555
Co1_2 O3 1_555 1_555
Co1_3 N2 1_555 1_555
O3_2 Co1 1_555 1_555
O4_2 Co1 1_555 1_555
N2_2 Co1 1_555 1_555
O4 Co1_2 1_555 1_555
C5 C6 1_555 1_555
C5 C9 1_555 1_555
C12 C13 1_555 1_555

#END
