
#######################################################################
#
#                 Cambridge Crystallographic Data Centre
#                                CCDC 
#
#######################################################################
#
# If this CIF has been generated from an entry in the Cambridge 
# Structural Database, then it will include bibliographic, chemical, 
# crystal, experimental, refinement or atomic coordinate data resulting 
# from the CCDC's data processing and validation procedures.
#
#######################################################################

data_COHHUD
_symmetry_cell_setting           monoclinic
_symmetry_space_group_name_H-M   'C 2/c'
_symmetry_Int_Tables_number      15
_space_group_name_Hall           '-C 2yn'
loop_
_symmetry_equiv_pos_site_id
_symmetry_equiv_pos_as_xyz
1 x,y,z
2 1/2+x,1/2+y,z
3 -x,y,1/2-z
4 1/2-x,1/2+y,1/2-z
5 -x,-y,-z
6 1/2-x,1/2-y,-z
7 x,-y,1/2+z
8 1/2+x,1/2-y,1/2+z
_cell_length_a                   25.654(5)
_cell_length_b                   14.893(3)
_cell_length_c                   14.821(3)
_cell_angle_alpha                90
_cell_angle_beta                 123.78(3)
_cell_angle_gamma                90
_cell_volume                     4706.62
loop_
_atom_site_label
_atom_site_type_symbol
_atom_site_fract_x
_atom_site_fract_y
_atom_site_fract_z
Co1 Co 0.0000 0.95211(8) 0.2500
Co2 Co -0.35101(4) 0.89900(5) -0.45207(6)
Cr1 Cr -0.17429(4) 0.75002(6) -0.07574(7)
O1 O -0.04764(19) 0.9388(3) 0.0806(3)
O2 O -0.3171(2) 0.9013(3) -0.2850(3)
O3 O -0.10801(17) 0.6606(3) -0.0329(3)
O4 O -0.28356(19) 0.7974(3) -0.3914(3)
O5 O -0.3754(2) 0.8908(3) -0.6071(3)
O6 O -0.4199(2) 0.8139(3) -0.4839(3)
O7 O -0.20709(18) 0.7399(3) -0.2305(3)
O8 O -0.1176(2) 0.8496(3) -0.0521(3)
O9 O -0.22430(17) 0.6456(3) -0.0891(3)
O10 O -0.0611(2) 1.0458(3) 0.2338(4)
O11 O -0.13987(18) 0.7703(3) 0.0792(3)
O12 O -0.24455(19) 0.8344(3) -0.1305(3)
C1 C -0.0862(3) 0.8774(4) 0.0440(4)
C2 C -0.2736(3) 0.8469(4) -0.2307(4)
C3 C -0.2540(3) 0.7907(4) -0.2913(4)
C4 C -0.0491(5) 1.1045(5) 0.3180(7)
H1 H -0.0845 1.1432 0.2928
H2 H -0.0127 1.1401 0.3398
H3 H -0.0418 1.0702 0.3788
C5 C -0.4852(3) 0.8335(6) -0.5521(7)
H4 H -0.5089 0.7826 -0.5544
H5 H -0.4961 0.8466 -0.6241
H6 H -0.4946 0.8846 -0.5239
C6 C -0.3679(4) 0.8143(6) -0.6531(6)
H7 H -0.3824 0.8265 -0.7272
H8 H -0.3917 0.7657 -0.6508
H9 H -0.3243 0.7981 -0.6130
O16 O -0.09442(18) 0.5142(3) -0.0140(3)
O17 O -0.21675(18) 0.4976(3) -0.0841(3)
C10 C -0.1945(3) 0.5742(4) -0.0724(4)
C11 C -0.1269(3) 0.5821(4) -0.0366(4)
O18 O -0.06523(19) 0.8503(3) 0.2182(3)
C12 C -0.0975(3) 0.8292(4) 0.1204(4)
Co2B Co 0.35101(4) 0.89900(5) 0.95207(6)
Co2C Co -0.14899(4) 0.39900(5) -0.04793(6)
Co2A Co 0.14899(4) 0.39900(5) 0.54793(6)
Cr1B Cr 0.17429(4) 0.75002(6) 0.57574(7)
O1B O 0.04764(19) 0.9388(3) 0.4194(3)
O2B O 0.3171(2) 0.9013(3) 0.7850(3)
O3B O 0.10801(17) 0.6606(3) 0.5329(3)
O4B O 0.28356(19) 0.7974(3) 0.8914(3)
O5B O 0.3754(2) 0.8908(3) 1.1071(3)
O6B O 0.4199(2) 0.8139(3) 0.9839(3)
O7B O 0.20709(18) 0.7399(3) 0.7305(3)
O8B O 0.1176(2) 0.8496(3) 0.5521(3)
O9B O 0.22430(17) 0.6456(3) 0.5891(3)
O10B O 0.0611(2) 1.0458(3) 0.2662(4)
O11B O 0.13987(18) 0.7703(3) 0.4208(3)
O12B O 0.24455(19) 0.8344(3) 0.6305(3)
C1B C 0.0862(3) 0.8774(4) 0.4560(4)
C2B C 0.2736(3) 0.8469(4) 0.7307(4)
C3B C 0.2540(3) 0.7907(4) 0.7913(4)
C4B C 0.0491(5) 1.1045(5) 0.1820(7)
H1B H 0.0845 1.1432 0.2072
H2B H 0.0127 1.1401 0.1602
H3B H 0.0418 1.0702 0.1212
C5B C 0.4852(3) 0.8335(6) 1.0521(7)
H4B H 0.5089 0.7826 1.0544
H5B H 0.4961 0.8466 1.1241
H6B H 0.4946 0.8846 1.0239
C6B C 0.3679(4) 0.8143(6) 1.1531(6)
H7B H 0.3824 0.8265 1.2272
H8B H 0.3917 0.7657 1.1508
H9B H 0.3243 0.7981 1.1130
O16B O 0.09442(18) 0.5142(3) 0.5140(3)
O16C O -0.40558(18) 1.0142(3) -0.4860(3)
O16A O 0.40558(18) 1.0142(3) 0.9860(3)
O17B O 0.21675(18) 0.4976(3) 0.5841(3)
O17C O -0.28325(18) 0.9976(3) -0.4159(3)
O17A O 0.28325(18) 0.9976(3) 0.9159(3)
C10B C 0.1945(3) 0.5742(4) 0.5724(4)
C11B C 0.1269(3) 0.5821(4) 0.5366(4)
O18B O 0.06523(19) 0.8503(3) 0.2818(3)
C12B C 0.0975(3) 0.8292(4) 0.3796(4)
O13 O -0.1775(3) 1.0173(5) 0.0809(5)
C8 C -0.2070(5) 1.0638(11) -0.0176(10)
O14 O -0.3788(3) 1.0385(5) -0.6958(5)
C9 C -0.4364(5) 1.0797(9) -0.7689(10)
C7 C 0.1223(8) 0.8922(7) 0.1426(12)
O15 O 0.1118(4) 0.8071(4) 0.1599(5)
loop_
_geom_bond_atom_site_label_1
_geom_bond_atom_site_label_2
_geom_bond_site_symmetry_1
_geom_bond_site_symmetry_2
Co1 O1 1_555 1_555
Co2 O2 1_555 1_555
Cr1 O3 1_555 1_555
O1 C1 1_555 1_555
O2 C2 1_555 1_555
O3 C11 1_555 1_555
O4 Co2 1_555 1_555
O5 Co2 1_555 1_555
O6 Co2 1_555 1_555
O7 Cr1 1_555 1_555
O8 Cr1 1_555 1_555
O9 Cr1 1_555 1_555
O10 Co1 1_555 1_555
O11 Cr1 1_555 1_555
O12 Cr1 1_555 1_555
C1 O8 1_555 1_555
C2 O12 1_555 1_555
C3 O4 1_555 1_555
C4 O10 1_555 1_555
H1 C4 1_555 1_555
H2 C4 1_555 1_555
H3 C4 1_555 1_555
C5 O6 1_555 1_555
H4 C5 1_555 1_555
H5 C5 1_555 1_555
H6 C5 1_555 1_555
O13 C8 1_555 1_555
O14 C9 1_555 1_555
C6 O5 1_555 1_555
H7 C6 1_555 1_555
H8 C6 1_555 1_555
H9 C6 1_555 1_555
C7 O15 1_555 1_555
O16 C11 1_555 1_555
O17 C10 1_555 1_555
C10 O9 1_555 1_555
C11 C10 1_555 1_555
O18 Co1 1_555 1_555
C12 O11 1_555 1_555
Co2B O2B 1_555 1_555
Co2C O16 1_555 1_555
Co2A O16B 1_555 1_555
Cr1B O3B 1_555 1_555
O1B Co1 1_555 1_555
O2B C2B 1_555 1_555
O3B C11B 1_555 1_555
O4B Co2B 1_555 1_555
O5B Co2B 1_555 1_555
O6B Co2B 1_555 1_555
O7B Cr1B 1_555 1_555
O8B Cr1B 1_555 1_555
O9B Cr1B 1_555 1_555
O10B Co1 1_555 1_555
O11B Cr1B 1_555 1_555
O12B Cr1B 1_555 1_555
C1B O1B 1_555 1_555
C2B O12B 1_555 1_555
C3B O4B 1_555 1_555
C4B O10B 1_555 1_555
H1B C4B 1_555 1_555
H2B C4B 1_555 1_555
H3B C4B 1_555 1_555
C5B O6B 1_555 1_555
H4B C5B 1_555 1_555
H5B C5B 1_555 1_555
H6B C5B 1_555 1_555
C6B O5B 1_555 1_555
H7B C6B 1_555 1_555
H8B C6B 1_555 1_555
H9B C6B 1_555 1_555
O16B C11B 1_555 1_555
O16C Co2 1_555 1_555
O16A Co2B 1_555 1_555
O17B Co2A 1_555 1_555
O17C Co2 1_555 1_555
O17A Co2B 1_555 1_555
C10B O9B 1_555 1_555
C11B C10B 1_555 1_555
O18B Co1 1_555 1_555
C12B O11B 1_555 1_555
O7 C3 1_555 1_555
C1 C12 1_555 1_555
C2 C3 1_555 1_555
O17 Co2C 1_555 1_555
O18 C12 1_555 1_555
O7B C3B 1_555 1_555
O8B C1B 1_555 1_555
C1B C12B 1_555 1_555
C2B C3B 1_555 1_555
O17B C10B 1_555 1_555
O18B C12B 1_555 1_555

#END
