
#######################################################################
#
#                 Cambridge Crystallographic Data Centre
#                                CCDC 
#
#######################################################################
#
# If this CIF has been generated from an entry in the Cambridge 
# Structural Database, then it will include bibliographic, chemical, 
# crystal, experimental, refinement or atomic coordinate data resulting 
# from the CCDC's data processing and validation procedures.
#
#######################################################################

data_COHIPP10
_symmetry_cell_setting           monoclinic
_symmetry_space_group_name_H-M   'C 2/c'
_symmetry_Int_Tables_number      15
_space_group_name_Hall           '-C 2yn'
loop_
_symmetry_equiv_pos_site_id
_symmetry_equiv_pos_as_xyz
1 x,y,z
2 1/2+x,1/2+y,z
3 -x,y,1/2-z
4 1/2-x,1/2+y,1/2-z
5 -x,-y,-z
6 1/2-x,1/2-y,-z
7 x,-y,1/2+z
8 1/2+x,1/2-y,1/2+z
_cell_length_a                   40.823(7)
_cell_length_b                   6.903(1)
_cell_length_c                   7.992(2)
_cell_angle_alpha                90
_cell_angle_beta                 91.88(1)
_cell_angle_gamma                90
_cell_volume                     2250.94
loop_
_atom_site_label
_atom_site_type_symbol
_atom_site_fract_x
_atom_site_fract_y
_atom_site_fract_z
Co1 Co 0.50000 0.50000 0.50000
O1 O 0.46330 0.32230 0.57540
O2 O 0.50000 0.64020 0.75000
O3 O 0.44230 0.23100 0.32780
O4 O 0.36690 0.37360 0.42120
O5 O 0.46500 0.69300 0.41150
N1 N 0.38700 0.08000 0.47980
C1 C 0.44050 0.23600 0.48750
C2 C 0.41360 0.15440 0.58560
C3 C 0.36490 0.19630 0.40750
C4 C 0.33650 0.11390 0.31410
C5 C 0.31260 0.24060 0.23910
C6 C 0.28260 0.16900 0.16070
C7 C 0.27750 -0.02770 0.14060
C8 C 0.30100 -0.14990 0.20260
C9 C 0.33070 -0.08090 0.29410
O1D O 0.53670 0.67770 0.42460
O2D O 0.50000 0.35980 0.25000
O5D O 0.53500 0.30700 0.58850
Co1B Co 0.50000 0.50000 1.00000
C1D C 0.55950 0.76400 0.51250
O3D O 0.55770 0.76900 0.67220
C2D C 0.58640 0.84560 0.41440
N1D N 0.61300 0.92000 0.52020
C3D C 0.63510 0.80370 0.59250
O4D O 0.63310 0.62640 0.57880
C4D C 0.66350 0.88610 0.68590
C5D C 0.68740 0.75940 0.76090
C9D C 0.66930 1.08090 0.70590
C6D C 0.71740 0.83100 0.83930
C8D C 0.69900 1.14990 0.79740
C7D C 0.72250 1.02770 0.85940
O6 O 0.40240 0.32660 0.04170
loop_
_geom_bond_atom_site_label_1
_geom_bond_atom_site_label_2
_geom_bond_site_symmetry_1
_geom_bond_site_symmetry_2
Co1 O1 1_555 1_555
O1 C1 1_555 1_555
O2 Co1 1_555 1_555
O3 C1 1_555 1_555
O4 C3 1_555 1_555
O5 Co1 1_555 1_555
N1 C2 1_555 1_555
C1 C2 1_555 1_555
C3 N1 1_555 1_555
C4 C3 1_555 1_555
C5 C4 1_555 1_555
C6 C5 1_555 1_555
C7 C6 1_555 1_555
C8 C7 1_555 1_555
C9 C4 1_555 1_555
O1D Co1 1_555 1_555
O2D Co1 1_555 1_555
O5D Co1 1_555 1_555
Co1B O2 1_555 1_555
C1D O1D 1_555 1_555
O3D C1D 1_555 1_555
C2D C1D 1_555 1_555
N1D C2D 1_555 1_555
C3D N1D 1_555 1_555
O4D C3D 1_555 1_555
C4D C3D 1_555 1_555
C5D C4D 1_555 1_555
C9D C4D 1_555 1_555
C6D C5D 1_555 1_555
C8D C9D 1_555 1_555
C7D C6D 1_555 1_555
C8 C9 1_555 1_555
C8D C7D 1_555 1_555

#END
