
#######################################################################
#
#                 Cambridge Crystallographic Data Centre
#                                CCDC 
#
#######################################################################
#
# If this CIF has been generated from an entry in the Cambridge 
# Structural Database, then it will include bibliographic, chemical, 
# crystal, experimental, refinement or atomic coordinate data resulting 
# from the CCDC's data processing and validation procedures.
#
#######################################################################

data_COHJEP
_symmetry_cell_setting           orthorhombic
_symmetry_space_group_name_H-M   'F d d 2'
_symmetry_Int_Tables_number      43
_space_group_name_Hall           'F 2 -2d'
loop_
_symmetry_equiv_pos_site_id
_symmetry_equiv_pos_as_xyz
1 x,y,z
2 -x,-y,z
3 1/4+x,1/4-y,1/4+z
4 1/4-x,1/4+y,1/4+z
5 x,1/2+y,1/2+z
6 -x,1/2-y,1/2+z
7 1/4+x,3/4-y,3/4+z
8 1/4-x,3/4+y,3/4+z
9 1/2+x,y,1/2+z
10 1/2-x,-y,1/2+z
11 3/4+x,1/4-y,3/4+z
12 3/4-x,1/4+y,3/4+z
13 1/2+x,1/2+y,z
14 1/2-x,1/2-y,z
15 3/4+x,3/4-y,1/4+z
16 3/4-x,3/4+y,1/4+z
_cell_length_a                   23.8317(12)
_cell_length_b                   12.7975(7)
_cell_length_c                   20.1510(11)
_cell_angle_alpha                90
_cell_angle_beta                 90
_cell_angle_gamma                90
_cell_volume                     6145.78
loop_
_atom_site_label
_atom_site_type_symbol
_atom_site_fract_x
_atom_site_fract_y
_atom_site_fract_z
C1 C 0.1498(2) 0.3848(3) 0.8944(3)
H1 H 0.1729 0.4375 0.9105
C2 C 0.0988(2) 0.4132(4) 0.8681(3)
C3 C 0.06402(19) 0.3328(4) 0.8472(3)
H2 H 0.0288 0.3493 0.8304
C4 C 0.08009(18) 0.2274(3) 0.8504(2)
C5 C 0.13448(16) 0.2098(3) 0.8759(2)
C6 C 0.16054(17) 0.1060(3) 0.8863(2)
C7 C 0.17745(19) -0.0689(4) 0.8810(3)
C8 C 0.2203(2) -0.0087(3) 0.9235(3)
C9 C 0.0822(2) 0.5280(4) 0.8661(4)
H3 H 0.1104 0.5663 0.8414
H4 H 0.0469 0.5346 0.8425
C10 C 0.0762(3) 0.5759(4) 0.9324(3)
H5 H 0.0495 0.5367 0.9580
H6 H 0.0632 0.6466 0.9277
H7 H 0.1118 0.5757 0.9546
C11 C 0.03891(19) 0.1525(3) 0.8266(2)
C12 C 0.1456(2) -0.1504(4) 0.9227(3)
H8 H 0.1353 -0.1202 0.9645
H9 H 0.1694 -0.2099 0.9302
H10 H 0.1125 -0.1720 0.8994
C13 C 0.2078(2) -0.1157(4) 0.8209(3)
H11 H 0.2370 -0.1621 0.8383
C14 C 0.2371(3) -0.0344(6) 0.7795(4)
H12 H 0.2599 -0.0683 0.7466
H13 H 0.2605 0.0079 0.8075
H14 H 0.2098 0.0089 0.7580
C15 C 0.1681(3) -0.1840(5) 0.7794(4)
H15 H 0.1381 -0.1418 0.7623
H16 H 0.1528 -0.2384 0.8069
H17 H 0.1885 -0.2147 0.7433
Cd1 Cd 0.2500 0.2500 0.96506(3)
N1 N 0.16801(15) 0.2879(3) 0.8983(2)
N2 N 0.20736(14) 0.0969(3) 0.92347(19)
N3 N 0.14107(18) 0.0179(3) 0.8613(2)
O1 O 0.25946(14) -0.0505(2) 0.9521(2)
O2 O 0.05681(12) 0.0790(2) 0.78864(17)
O3 O -0.01111(15) 0.1640(3) 0.8416(2)
C1M C 0.3502(2) 0.1152(3) 0.8944(3)
H1M H 0.3271 0.0625 0.9105
C2M C 0.4012(2) 0.0868(4) 0.8681(3)
C3M C 0.43598(19) 0.1672(4) 0.8472(3)
H2M H 0.4712 0.1507 0.8304
C4M C 0.41991(18) 0.2726(3) 0.8504(2)
C5M C 0.36552(16) 0.2902(3) 0.8759(2)
C6M C 0.33946(17) 0.3940(3) 0.8863(2)
C7M C 0.32255(19) 0.5689(4) 0.8810(3)
C8M C 0.2797(2) 0.5087(3) 0.9235(3)
C9M C 0.4178(2) -0.0280(4) 0.8661(4)
H3M H 0.3896 -0.0663 0.8414
H4M H 0.4531 -0.0346 0.8425
C10M C 0.4238(3) -0.0759(4) 0.9324(3)
H5M H 0.4505 -0.0367 0.9580
H6M H 0.4368 -0.1466 0.9277
H7M H 0.3882 -0.0757 0.9546
C11M C 0.46109(19) 0.3475(3) 0.8266(2)
C12M C 0.3544(2) 0.6504(4) 0.9227(3)
H8M H 0.3647 0.6202 0.9645
H9M H 0.3306 0.7099 0.9302
H10M H 0.3875 0.6720 0.8994
C13M C 0.2922(2) 0.6157(4) 0.8209(3)
H11M H 0.2630 0.6621 0.8383
C14M C 0.2629(3) 0.5344(6) 0.7795(4)
H12M H 0.2401 0.5683 0.7466
H13M H 0.2395 0.4921 0.8075
H14M H 0.2902 0.4911 0.7580
C15M C 0.3319(3) 0.6840(5) 0.7794(4)
H15M H 0.3619 0.6418 0.7623
H16M H 0.3472 0.7384 0.8069
H17M H 0.3115 0.7147 0.7433
Cd1G Cd 0.0000 0.0000 0.71506(3)
Cd1F Cd 0.5000 0.5000 0.71506(3)
N1M N 0.33199(15) 0.2121(3) 0.8983(2)
N2M N 0.29264(14) 0.4031(3) 0.92347(19)
N3M N 0.35893(18) 0.4821(3) 0.8613(2)
O1M O 0.24054(14) 0.5505(2) 0.9521(2)
O2M O 0.44319(12) 0.4210(2) 0.78864(17)
O2B O 0.30681(12) 0.1710(2) 1.03864(17)
O2C O 0.19319(12) 0.3290(2) 1.03864(17)
O3M O 0.51111(15) 0.3360(3) 0.8416(2)
loop_
_geom_bond_atom_site_label_1
_geom_bond_atom_site_label_2
_geom_bond_site_symmetry_1
_geom_bond_site_symmetry_2
C1 H1 1_555 1_555
C2 C1 1_555 1_555
C3 C2 1_555 1_555
H2 C3 1_555 1_555
C4 C3 1_555 1_555
C5 C4 1_555 1_555
C6 C5 1_555 1_555
C7 C8 1_555 1_555
C8 N2 1_555 1_555
C9 C2 1_555 1_555
H3 C9 1_555 1_555
H4 C9 1_555 1_555
C10 C9 1_555 1_555
H5 C10 1_555 1_555
H6 C10 1_555 1_555
H7 C10 1_555 1_555
C11 C4 1_555 1_555
C12 C7 1_555 1_555
H8 C12 1_555 1_555
H9 C12 1_555 1_555
H10 C12 1_555 1_555
C13 C7 1_555 1_555
H11 C13 1_555 1_555
C14 C13 1_555 1_555
H12 C14 1_555 1_555
H13 C14 1_555 1_555
H14 C14 1_555 1_555
C15 C13 1_555 1_555
H15 C15 1_555 1_555
H16 C15 1_555 1_555
H17 C15 1_555 1_555
Cd1 N1 1_555 1_555
N1 C1 1_555 1_555
N2 C6 1_555 1_555
N3 C6 1_555 1_555
O1 C8 1_555 1_555
O2 C11 1_555 1_555
O3 C11 1_555 1_555
C1M H1M 1_555 1_555
C2M C1M 1_555 1_555
C3M C2M 1_555 1_555
H2M C3M 1_555 1_555
C4M C3M 1_555 1_555
C5M C4M 1_555 1_555
C6M C5M 1_555 1_555
C7M C8M 1_555 1_555
C8M N2M 1_555 1_555
C9M C2M 1_555 1_555
H3M C9M 1_555 1_555
H4M C9M 1_555 1_555
C10M C9M 1_555 1_555
H5M C10M 1_555 1_555
H6M C10M 1_555 1_555
H7M C10M 1_555 1_555
C11M C4M 1_555 1_555
C12M C7M 1_555 1_555
H8M C12M 1_555 1_555
H9M C12M 1_555 1_555
H10M C12M 1_555 1_555
C13M C7M 1_555 1_555
H11M C13M 1_555 1_555
C14M C13M 1_555 1_555
H12M C14M 1_555 1_555
H13M C14M 1_555 1_555
H14M C14M 1_555 1_555
C15M C13M 1_555 1_555
H15M C15M 1_555 1_555
H16M C15M 1_555 1_555
H17M C15M 1_555 1_555
Cd1G O2 1_555 1_555
Cd1F O2M 1_555 1_555
N1M Cd1 1_555 1_555
N2M Cd1 1_555 1_555
N3M C6M 1_555 1_555
O1M C8M 1_555 1_555
O2M C11M 1_555 1_555
O2B Cd1 1_555 1_555
O2C Cd1 1_555 1_555
O3M C11M 1_555 1_555
C5 N1 1_555 1_555
C7 N3 1_555 1_555
Cd1 N2 1_555 1_555
C1M N1M 1_555 1_555
C5M N1M 1_555 1_555
C6M N2M 1_555 1_555
C7M N3M 1_555 1_555

#END
