
#######################################################################
#
#                 Cambridge Crystallographic Data Centre
#                                CCDC 
#
#######################################################################
#
# If this CIF has been generated from an entry in the Cambridge 
# Structural Database, then it will include bibliographic, chemical, 
# crystal, experimental, refinement or atomic coordinate data resulting 
# from the CCDC's data processing and validation procedures.
#
#######################################################################

data_COHKEQ
_symmetry_cell_setting           monoclinic
_symmetry_space_group_name_H-M   'P 21/n'
_symmetry_Int_Tables_number      14
_space_group_name_Hall           '-P 2yn'
loop_
_symmetry_equiv_pos_site_id
_symmetry_equiv_pos_as_xyz
1 x,y,z
2 1/2-x,1/2+y,1/2-z
3 -x,-y,-z
4 1/2+x,1/2-y,1/2+z
_cell_length_a                   14.6300(16)
_cell_length_b                   29.024(3)
_cell_length_c                   15.4370(17)
_cell_angle_alpha                90
_cell_angle_beta                 95.507(2)
_cell_angle_gamma                90
_cell_volume                     6524.62
loop_
_atom_site_label
_atom_site_type_symbol
_atom_site_fract_x
_atom_site_fract_y
_atom_site_fract_z
C61 C 0.0280(3) 0.09665(14) 0.5621(3)
H33 H 0.0599 0.0679 0.5705
H34 H 0.0307 0.1069 0.5033
H35 H -0.0350 0.0926 0.5731
O21 O 0.0703(2) 0.13042(11) 0.6210(2)
H36 H 0.0702 0.1211 0.6711
C64 C -0.269400 -0.115590 -0.294000
H45 H -0.225900 -0.100400 -0.327000
H47 H -0.237200 -0.134300 -0.249700
K2 K -0.212040 0.465450 -0.325330
Co1 Co -0.35077(2) 0.126980(12) 0.10027(2)
N1 N -0.53346(16) 0.03004(8) -0.16751(14)
N2 N -0.76851(15) 0.13052(8) -0.06394(15)
N3 N -0.47603(15) 0.10266(8) 0.11388(13)
N4 N -0.35441(15) 0.12919(7) 0.21768(13)
N5 N -0.22304(15) 0.14939(8) 0.14037(13)
N6 N -0.09686(15) 0.16651(8) -0.13676(14)
N7 N 0.07786(17) 0.08238(9) 0.09900(17)
O1 O -0.46735(14) 0.00465(7) -0.14790(12)
O2 O -0.57107(14) 0.03378(8) -0.24148(12)
O3 O -0.78590(14) 0.16135(7) -0.01352(14)
O4 O -0.82166(13) 0.11821(7) -0.12583(13)
O5 O -0.58537(12) 0.09728(7) 0.21271(12)
O6 O -0.12854(13) 0.16519(7) 0.26659(12)
O7 O -0.16434(14) 0.19042(7) -0.16062(12)
O8 O -0.03803(14) 0.15660(7) -0.18519(12)
O9 O 0.13722(14) 0.07515(8) 0.05067(15)
O10 O 0.08112(17) 0.06795(10) 0.17374(15)
C1 C -0.51399(18) 0.06249(9) -0.02056(16)
H1 H -0.4608 0.0450 -0.0100
C2 C -0.56871(18) 0.05834(9) -0.09822(16)
C3 C -0.65269(18) 0.07952(10) -0.11490(16)
H2 H -0.6892 0.0754 -0.1670
C4 C -0.67896(18) 0.10706(9) -0.04969(17)
C5 C -0.62464(18) 0.11594(9) 0.02770(17)
H3 H -0.6444 0.1362 0.0687
C6 C -0.54031(18) 0.09377(9) 0.04228(16)
C7 C -0.50457(18) 0.10501(9) 0.19478(16)
C8 C -0.42813(18) 0.11825(9) 0.25894(16)
C9 C -0.40756(18) 0.12761(9) 0.34908(17)
C10 C -0.31670(18) 0.14625(10) 0.35770(16)
C11 C -0.28693(17) 0.14652(9) 0.27334(16)
C12 C -0.20485(18) 0.15463(9) 0.22821(17)
C13 C -0.14857(18) 0.14279(9) 0.09036(16)
C14 C -0.15510(18) 0.15923(10) 0.00526(17)
H4 H -0.2056 0.1767 -0.0161
C15 C -0.08628(18) 0.14955(10) -0.04722(16)
C16 C -0.00803(19) 0.12498(10) -0.01936(19)
H5 H 0.0383 0.1193 -0.0552
C17 C -0.00363(19) 0.10963(10) 0.06461(18)
C18 C -0.07142(19) 0.11732(9) 0.11992(17)
H6 H -0.0653 0.1055 0.1762
C19 C -0.46649(18) 0.11699(9) 0.41816(16)
C20 C -0.51788(19) 0.07668(10) 0.41660(17)
H7 H -0.5150 0.0563 0.3705
C21 C -0.5727(2) 0.06610(10) 0.48104(17)
H8 H -0.6063 0.0389 0.4783
C22 C -0.57800(19) 0.09662(11) 0.55165(17)
H9 H -0.6149 0.0896 0.5957
C23 C -0.52796(19) 0.13679(10) 0.55438(16)
H10 H -0.5309 0.1572 0.6005
C24 C -0.47295(18) 0.14706(10) 0.48843(16)
H11 H -0.4397 0.1744 0.4909
C25 C -0.26021(17) 0.16231(9) 0.43663(16)
C26 C -0.24286(19) 0.13408(10) 0.50907(18)
H12 H -0.2690 0.1049 0.5089
C27 C -0.1873(2) 0.14876(12) 0.58145(19)
H13 H -0.1765 0.1293 0.6293
C28 C -0.1479(2) 0.19173(13) 0.58334(19)
H14 H -0.1109 0.2017 0.6321
C29 C -0.1642(2) 0.22014(13) 0.5108(2)
H15 H -0.1374 0.2492 0.5112
C30 C -0.2193(2) 0.20598(11) 0.43881(18)
H16 H -0.2295 0.2255 0.3911
N8 N -0.25926(17) -0.00112(9) 0.36369(15)
N9 N -0.03244(16) -0.03275(8) 0.15948(16)
N10 N -0.29526(15) 0.06589(8) 0.07284(13)
N11 N -0.35468(14) 0.12990(8) -0.01821(13)
N12 N -0.40040(15) 0.19053(8) 0.07480(13)
N13 N -0.23160(18) 0.30918(10) 0.24600(18)
N14 N -0.50680(17) 0.23901(8) 0.34684(15)
O11 O -0.31877(15) 0.02389(8) 0.38478(12)
O12 O -0.22410(17) -0.03163(9) 0.41154(14)
O13 O 0.00447(14) -0.05992(8) 0.21382(14)
O14 O 0.00013(15) -0.02338(9) 0.09125(14)
O15 O -0.26041(13) 0.02105(6) -0.04493(11)
O16 O -0.41686(13) 0.24544(7) -0.03469(12)
O17 O -0.20490(17) 0.32764(9) 0.18266(18)
O18 O -0.19506(15) 0.31215(9) 0.32002(16)
O19 O -0.57809(14) 0.21740(8) 0.32646(14)
O20 O -0.48692(16) 0.25579(7) 0.41898(12)
C31 C -0.27553(19) 0.03166(9) 0.21730(16)
H17 H -0.3284 0.0465 0.2317
C32 C -0.2267(2) 0.00464(10) 0.27702(17)
C33 C -0.1479(2) -0.01925(10) 0.26091(18)
H18 H -0.1171 -0.0388 0.3017
C34 C -0.11867(18) -0.01173(10) 0.17921(17)
C35 C -0.16490(18) 0.01510(9) 0.11596(17)
H19 H -0.1424 0.0185 0.0620
C36 C -0.24632(18) 0.03734(9) 0.13358(17)
C37 C -0.28844(17) 0.05701(9) -0.01485(16)
C38 C -0.32367(17) 0.09662(9) -0.06799(16)
C39 C -0.33644(18) 0.11106(10) -0.15572(16)
C40 C -0.37766(18) 0.15540(9) -0.15421(16)
C41 C -0.38655(18) 0.16574(9) -0.06577(16)
C42 C -0.40469(18) 0.20445(9) -0.00935(16)
C43 C -0.39547(18) 0.22276(9) 0.14208(17)
C44 C -0.32301(19) 0.25380(10) 0.15339(17)
H20 H -0.2827 0.2576 0.1109
C45 C -0.3126(2) 0.27931(10) 0.2311(2)
C46 C -0.3691(2) 0.27518(10) 0.29681(19)
H21 H -0.3589 0.2914 0.3488
C47 C -0.44194(19) 0.24536(10) 0.28023(17)
C48 C -0.45837(18) 0.21990(9) 0.20419(17)
H22 H -0.5102 0.2013 0.1949
C49 C -0.31313(18) 0.08344(9) -0.23164(16)
C50 C -0.22561(18) 0.06473(10) -0.23254(17)
H23 H -0.1810 0.0708 -0.1870
C51 C -0.2049(2) 0.03723(10) -0.30059(18)
H24 H -0.1467 0.0242 -0.3000
C52 C -0.2704(2) 0.02866(10) -0.37057(18)
H25 H -0.2562 0.0100 -0.4164
C53 C -0.3562(2) 0.04812(10) -0.37080(17)
H26 H -0.4000 0.0431 -0.4176
C54 C -0.3777(2) 0.07528(10) -0.30143(16)
H27 H -0.4360 0.0881 -0.3019
C55 C -0.40519(19) 0.18704(9) -0.22754(16)
C56 C -0.3480(2) 0.19521(10) -0.29377(17)
H28 H -0.2929 0.1793 -0.2939
C57 C -0.3729(2) 0.22675(10) -0.35904(17)
H29 H -0.3345 0.2317 -0.4028
C58 C -0.4538(2) 0.25086(10) -0.35977(18)
H30 H -0.4700 0.2720 -0.4039
C59 C -0.5108(2) 0.24377(11) -0.29511(18)
H31 H -0.5653 0.2603 -0.2954
C60 C -0.4869(2) 0.21172(10) -0.22888(17)
H32 H -0.5259 0.2069 -0.1856
C62 C -0.2991(5) 0.39863(16) -0.0515(7)
H37 H -0.3222 0.4097 0.0008
H38 H -0.2547 0.4201 -0.0698
H39 H -0.3488 0.3957 -0.0964
O22 O -0.2578(4) 0.35606(15) -0.0359(4)
H40 H -0.2791 0.3437 0.0055
O24 O -0.1738(2) 0.35695(11) -0.1516(2)
H48 H -0.1930 0.3561 -0.1034
O25 O -0.1633(3) 0.27178(10) 0.0109(2)
H49 H -0.1484(8) 0.24787(12) 0.0397(5)
H50 H -0.1255(4) 0.29358(14) 0.0226(10)
O26 O 0.1069(2) 0.16540(13) 0.2885(2)
K1 K -0.27234(8) 0.26911(4) -0.13648(8)
K3 K -0.01351(7) 0.18696(3) 0.39724(7)
O5B O -0.41463(12) -0.09728(7) -0.21271(12)
O9B O -0.13722(14) -0.07515(8) -0.05067(15)
O10B O -0.08112(17) -0.06795(10) -0.17374(15)
O16C O 0.08314(13) 0.25456(7) 0.46531(12)
O19C O -0.07809(14) 0.28260(8) -0.17354(14)
C64A C -0.230600 0.384410 -0.206000
H45A H -0.274100 0.399600 -0.173000
H47A H -0.262800 0.365700 -0.250300
O26C O -0.3931(2) 0.33460(13) -0.2115(2)
K1C K -0.77234(8) 0.23089(4) 0.36352(8)
K1C_2 K 0.22766(8) 0.23089(4) 0.36352(8)
K2A K -0.287960 -0.034550 -0.174670
K2C K -0.712040 0.034550 0.174670
K2C_2 K 0.287960 0.034550 0.174670
K3C K -0.51351(7) 0.31304(3) -0.10276(7)
O23? O -0.9370(5) 0.16144(13) 0.4935(4)
H41? H -0.9891 0.1721 0.4904
C63? C -0.9415(8) 0.11301(15) 0.4710(6)
H42? H -0.9232 0.1089 0.4134
H43? H -1.0032 0.1021 0.4729
H44? H -0.9010 0.0959 0.5118
H46? H -0.6945 0.0930 0.2672
H51? H -0.4498(2) 0.3319(4) 0.7892(6)
H52? H -0.3689(3) 0.3164(2) 0.7558(4)
loop_
_geom_bond_atom_site_label_1
_geom_bond_atom_site_label_2
_geom_bond_site_symmetry_1
_geom_bond_site_symmetry_2
Co1 N3 1_555 1_555
N1 O1 1_555 1_555
N2 O3 1_555 1_555
N3 C6 1_555 1_555
N4 Co1 1_555 1_555
N5 Co1 1_555 1_555
N6 O7 1_555 1_555
N7 O9 1_555 1_555
O1 K2A 1_555 1_555
O2 N1 1_555 1_555
O4 N2 1_555 1_555
O5 C7 1_555 1_555
O6 C12 1_555 1_555
O7 K1 1_555 1_555
O8 N6 1_555 1_555
O9 K2C_2 1_555 1_555
O10 N7 1_555 1_555
C1 H1 1_555 1_555
C2 N1 1_555 1_555
C3 C2 1_555 1_555
H2 C3 1_555 1_555
C4 N2 1_555 1_555
C5 C4 1_555 1_555
H3 C5 1_555 1_555
C6 C1 1_555 1_555
C7 N3 1_555 1_555
C8 N4 1_555 1_555
C9 C8 1_555 1_555
C10 C9 1_555 1_555
C11 N4 1_555 1_555
C12 N5 1_555 1_555
C13 N5 1_555 1_555
C14 C13 1_555 1_555
H4 C14 1_555 1_555
C15 N6 1_555 1_555
C16 C15 1_555 1_555
H5 C16 1_555 1_555
C17 N7 1_555 1_555
C18 C13 1_555 1_555
H6 C18 1_555 1_555
C19 C9 1_555 1_555
C20 C19 1_555 1_555
H7 C20 1_555 1_555
C21 C20 1_555 1_555
H8 C21 1_555 1_555
C22 C21 1_555 1_555
H9 C22 1_555 1_555
C23 C22 1_555 1_555
H10 C23 1_555 1_555
C24 C19 1_555 1_555
H11 C24 1_555 1_555
C25 C10 1_555 1_555
C26 C25 1_555 1_555
H12 C26 1_555 1_555
C27 C26 1_555 1_555
H13 C27 1_555 1_555
C28 C27 1_555 1_555
H14 C28 1_555 1_555
C29 C28 1_555 1_555
H15 C29 1_555 1_555
C30 C25 1_555 1_555
H16 C30 1_555 1_555
N8 O11 1_555 1_555
N9 O13 1_555 1_555
N10 Co1 1_555 1_555
N11 Co1 1_555 1_555
N12 Co1 1_555 1_555
N13 O17 1_555 1_555
N14 O19 1_555 1_555
O12 N8 1_555 1_555
O14 N9 1_555 1_555
O15 C37 1_555 1_555
O16 C42 1_555 1_555
O18 N13 1_555 1_555
O19 K1C 1_555 1_555
O20 N14 1_555 1_555
C31 H17 1_555 1_555
C32 N8 1_555 1_555
C33 C32 1_555 1_555
H18 C33 1_555 1_555
C34 N9 1_555 1_555
C35 C34 1_555 1_555
H19 C35 1_555 1_555
C36 N10 1_555 1_555
C37 N10 1_555 1_555
C38 N11 1_555 1_555
C39 C38 1_555 1_555
C40 C39 1_555 1_555
C41 N11 1_555 1_555
C42 N12 1_555 1_555
C43 N12 1_555 1_555
C44 C43 1_555 1_555
H20 C44 1_555 1_555
C45 N13 1_555 1_555
C46 C45 1_555 1_555
H21 C46 1_555 1_555
C47 N14 1_555 1_555
C48 C43 1_555 1_555
H22 C48 1_555 1_555
C49 C39 1_555 1_555
C50 C49 1_555 1_555
H23 C50 1_555 1_555
C51 C50 1_555 1_555
H24 C51 1_555 1_555
C52 C51 1_555 1_555
H25 C52 1_555 1_555
C53 C52 1_555 1_555
H26 C53 1_555 1_555
C54 C49 1_555 1_555
H27 C54 1_555 1_555
C55 C40 1_555 1_555
C56 C55 1_555 1_555
H28 C56 1_555 1_555
C57 C56 1_555 1_555
H29 C57 1_555 1_555
C58 C57 1_555 1_555
H30 C58 1_555 1_555
C59 C58 1_555 1_555
H31 C59 1_555 1_555
C60 C55 1_555 1_555
H32 C60 1_555 1_555
C61 H33 1_555 1_555
H34 C61 1_555 1_555
H35 C61 1_555 1_555
O21 C61 1_555 1_555
H36 O21 1_555 1_555
C62 H37 1_555 1_555
H38 C62 1_555 1_555
H39 C62 1_555 1_555
O22 C62 1_555 1_555
H40 O22 1_555 1_555
C64 H45 1_555 1_555
H47 C64 1_555 1_555
O24 H48 1_555 1_555
O25 H49 1_555 1_555
H50 O25 1_555 1_555
O26 K3 1_555 1_555
K1 O16 1_555 1_555
K3 O6 1_555 1_555
O5B K2A 1_555 1_555
O9B K2A 1_555 1_555
O10B K2A 1_555 1_555
O16C K3 1_555 1_555
O19C K1 1_555 1_555
C64A O24 1_555 1_555
H45A C64A 1_555 1_555
H47A C64A 1_555 1_555
O26C K1 1_555 1_555
K1C_2 O26 1_555 1_555
K2A O15 1_555 1_555
K2C O5 1_555 1_555
K2C_2 O10 1_555 1_555
K3C O16 1_555 1_555
C1 C2 1_555 1_555
C3 C4 1_555 1_555
C5 C6 1_555 1_555
C7 C8 1_555 1_555
C10 C11 1_555 1_555
C11 C12 1_555 1_555
C14 C15 1_555 1_555
C16 C17 1_555 1_555
C17 C18 1_555 1_555
C23 C24 1_555 1_555
C29 C30 1_555 1_555
C29 K3 1_555 1_555
C30 K3 1_555 1_555
C31 C32 1_555 1_555
C31 C36 1_555 1_555
C33 C34 1_555 1_555
C35 C36 1_555 1_555
C37 C38 1_555 1_555
C40 C41 1_555 1_555
C41 C42 1_555 1_555
C44 C45 1_555 1_555
C46 C47 1_555 1_555
C47 C48 1_555 1_555
C50 K2A 1_555 1_555
C51 K2A 1_555 1_555
C53 C54 1_555 1_555
C55 K1 1_555 1_555
C56 K1 1_555 1_555
C59 C60 1_555 1_555
O22 K1 1_555 1_555
O24 K1 1_555 1_555
O25 K1 1_555 1_555
O16C K1C_2 1_555 1_555
O26C K3C 1_555 1_555

#END
