
#######################################################################
#
#                 Cambridge Crystallographic Data Centre
#                                CCDC 
#
#######################################################################
#
# If this CIF has been generated from an entry in the Cambridge 
# Structural Database, then it will include bibliographic, chemical, 
# crystal, experimental, refinement or atomic coordinate data resulting 
# from the CCDC's data processing and validation procedures.
#
#######################################################################

data_COHKOB
_symmetry_cell_setting           monoclinic
_symmetry_space_group_name_H-M   'P c'
_symmetry_Int_Tables_number      7
_space_group_name_Hall           'P -2yc'
loop_
_symmetry_equiv_pos_site_id
_symmetry_equiv_pos_as_xyz
1 x,y,z
2 x,-y,1/2+z
_cell_length_a                   11.020(2)
_cell_length_b                   9.7200(19)
_cell_length_c                   21.600(4)
_cell_angle_alpha                90
_cell_angle_beta                 96.00(3)
_cell_angle_gamma                90
_cell_volume                     2301
loop_
_atom_site_label
_atom_site_type_symbol
_atom_site_fract_x
_atom_site_fract_y
_atom_site_fract_z
Co1 Co 0.02447(3) 0.92504(4) 0.81869(2)
Co2 Co -0.19966(3) 0.79806(4) 0.91646(2)
O1 O -0.2526(2) 0.9882(2) 0.88005(11)
O2 O -0.1200(2) 1.0662(2) 0.81824(12)
O3 O -0.8724(2) 1.0781(2) 0.86872(12)
O4 O -0.8481(2) 0.9992(3) 0.96593(12)
O5 O -0.00615(18) 0.8287(2) 0.90608(10)
H1 H 0.0253 0.8785 0.9359
H2 H 0.0298 0.7512 0.9086
O6 O -0.2187(2) 0.6962(3) 0.83206(11)
O7 O -0.0787(2) 0.7728(2) 0.77274(10)
O8 O -0.1560(2) 0.3892(2) 0.46133(11)
O9 O 0.0169(2) 0.4429(2) 0.42203(11)
N1 N 0.0615(3) 1.0112(3) 0.73254(13)
N2 N 0.0752(3) 1.1528(3) 0.65458(14)
N3 N 0.4426(2) 1.3328(3) 0.45221(13)
N4 N 0.6143(3) 1.2405(3) 0.42947(14)
N5 N 0.1840(2) 0.7980(3) 0.81587(13)
N6 N 0.3697(3) 0.7443(3) 0.79427(15)
N7 N 0.7826(3) 1.0689(3) 0.60181(13)
N8 N 0.8207(3) 1.1081(3) 0.50596(13)
C1 C -0.2141(3) 1.0758(3) 0.84549(15)
C2 C -0.2865(3) 1.2086(3) 0.83404(18)
H3 H -0.2359 1.2844 0.8507
H4 H -0.3021 1.2223 0.7894
C3 C -0.4058(3) 1.2160(3) 0.86126(17)
C4 C -0.5171(3) 1.2139(4) 0.82439(17)
H5 H -0.5174 1.2126 0.7813
C5 C -0.6276(3) 1.2138(4) 0.84965(19)
H6 H -0.7002 1.2141 0.8235
C6 C -0.6307(3) 1.2133(3) 0.91427(17)
C7 C -0.5206(3) 1.2162(3) 0.95089(17)
H7 H -0.5199 1.2165 0.9940
C8 C -0.4110(3) 1.2187(3) 0.92488(17)
H8 H -0.3385 1.2223 0.9511
C9 C -0.7504(3) 1.2105(3) 0.94300(19)
H9 H -0.7963 1.2928 0.9304
H10 H -0.7331 1.2131 0.9879
C10 C -0.8299(3) 1.0846(4) 0.92515(18)
C11 C -0.1593(3) 0.6921(3) 0.78550(15)
C12 C -0.1903(4) 0.5702(4) 0.74142(16)
H11 H -0.1480 0.4897 0.7593
H12 H -0.2771 0.5522 0.7402
C13 C -0.1599(3) 0.5851(3) 0.67572(16)
C14 C -0.2498(4) 0.5783(4) 0.62626(18)
H13 H -0.3307 0.5683 0.6340
C15 C -0.2217(4) 0.5860(4) 0.56517(17)
H14 H -0.2841 0.5792 0.5328
C16 C -0.1033(3) 0.6035(3) 0.55152(16)
C17 C -0.0138(3) 0.6152(4) 0.60072(17)
H15 H 0.0664 0.6307 0.5928
C18 C -0.0407(3) 0.6044(4) 0.66166(16)
H16 H 0.0221 0.6102 0.6939
C19 C -0.0712(4) 0.6094(3) 0.48517(16)
H17 H 0.0085 0.6516 0.4850
H18 H -0.1299 0.6678 0.4611
C20 C -0.0694(3) 0.4689(3) 0.45343(14)
C21 C 0.0465(3) 1.1376(4) 0.71309(17)
H19 H 0.0193 1.2087 0.7369
C22 C 0.1013(4) 0.9423(4) 0.68312(18)
H20 H 0.1206 0.8492 0.6829
C23 C 0.1084(4) 1.0285(4) 0.63526(18)
H21 H 0.1317 1.0065 0.5963
C24 C 0.0663(4) 1.2789(5) 0.6183(2)
H22 H 0.0219 1.3470 0.6398
H23 H 0.0200 1.2608 0.5784
C25 C 0.1894(4) 1.3373(4) 0.6073(2)
C26 C 0.2166(3) 1.3595(4) 0.54759(18)
H24 H 0.1594 1.3354 0.5146
C27 C 0.3253(4) 1.4162(4) 0.53476(17)
C28 C 0.4088(5) 1.4492(6) 0.5840(2)
H25 H 0.4832 1.4876 0.5766
C29 C 0.3845(6) 1.4265(8) 0.6438(3)
H26 H 0.4423 1.4489 0.6768
C30 C 0.2742(6) 1.3704(6) 0.6552(2)
H27 H 0.2577 1.3552 0.6960
C31 C 0.3544(3) 1.4356(4) 0.46916(18)
H28 H 0.2800 1.4280 0.4411
H29 H 0.3876 1.5270 0.4646
C32 C 0.5579(3) 1.3549(4) 0.43781(16)
H30 H 0.5923 1.4416 0.4343
C33 C 0.4261(3) 1.1946(4) 0.45287(19)
H31 H 0.3564 1.1477 0.4617
C34 C 0.5312(3) 1.1392(4) 0.43817(19)
H32 H 0.5455 1.0454 0.4344
C35 C 0.2926(3) 0.8466(4) 0.80577(18)
H33 H 0.3130 0.9394 0.8065
C36 C 0.1935(4) 0.6595(4) 0.81041(18)
H34 H 0.1313 0.5970 0.8152
C37 C 0.3060(4) 0.6260(4) 0.79705(18)
H35 H 0.3349 0.5377 0.7908
C38 C 0.4951(4) 0.7612(6) 0.7795(2)
H36 H 0.5308 0.6712 0.7746
H37 H 0.5421 0.8070 0.8140
C39 C 0.5033(3) 0.8441(5) 0.72063(18)
C40 C 0.4128(4) 0.8436(7) 0.6718(2)
H38 H 0.3440 0.7889 0.6736
C41 C 0.4241(5) 0.9250(9) 0.6195(2)
H39 H 0.3619 0.9267 0.5869
C42 C 0.5276(4) 1.0028(8) 0.6165(2)
H40 H 0.5354 1.0558 0.5813
C43 C 0.6198(4) 1.0034(5) 0.66476(17)
C44 C 0.6075(3) 0.9219(4) 0.71645(17)
H41 H 0.6702 0.9195 0.7488
C45 C 0.7332(4) 1.0882(5) 0.66161(18)
H42 H 0.7142 1.1847 0.6669
H43 H 0.7941 1.0616 0.6952
C46 C 0.7781(4) 1.1610(4) 0.55515(17)
H44 H 0.7487 1.2504 0.5575
C47 C 0.8303(4) 0.9518(4) 0.58101(19)
H45 H 0.8444 0.8703 0.6032
C48 C 0.8533(3) 0.9755(4) 0.52228(18)
H46 H 0.8863 0.9120 0.4965
Co1_2 Co -0.97553(3) 0.92504(4) 0.81869(2)
Co2A Co -0.19966(3) 0.20194(4) 0.41646(2)
Co2A_2 Co 0.80034(3) 1.20194(4) 0.41646(2)
O3_2 O 0.1276(2) 1.0781(2) 0.86872(12)
O8A O -0.1560(2) 0.6108(2) 0.96133(11)
N4A N -0.3857(3) 0.7595(3) 0.92947(14)
N8A N -0.1793(3) 0.8919(3) 1.00596(13)
O10 O 0.0315(4) 0.3572(3) 0.82518(15)
H47 H 0.0453 0.4123 0.8557
H48 H 0.0581 0.2777 0.8358
loop_
_geom_bond_atom_site_label_1
_geom_bond_atom_site_label_2
_geom_bond_site_symmetry_1
_geom_bond_site_symmetry_2
Co1 O2 1_555 1_555
Co2 O1 1_555 1_555
O1 C1 1_555 1_555
O2 C1 1_555 1_555
O3 C10 1_555 1_555
O4 C10 1_555 1_555
O5 Co1 1_555 1_555
H1 O5 1_555 1_555
H2 O5 1_555 1_555
O6 Co2 1_555 1_555
O7 Co1 1_555 1_555
O8 C20 1_555 1_555
O9 C20 1_555 1_555
N1 Co1 1_555 1_555
N2 C21 1_555 1_555
N3 C31 1_555 1_555
N4 C32 1_555 1_555
N5 Co1 1_555 1_555
N6 C35 1_555 1_555
N7 C45 1_555 1_555
N8 C46 1_555 1_555
C1 C2 1_555 1_555
C2 H3 1_555 1_555
H4 C2 1_555 1_555
C3 C2 1_555 1_555
C4 C3 1_555 1_555
H5 C4 1_555 1_555
C5 C4 1_555 1_555
H6 C5 1_555 1_555
C6 C5 1_555 1_555
C7 C6 1_555 1_555
H7 C7 1_555 1_555
C8 C3 1_555 1_555
H8 C8 1_555 1_555
C9 C6 1_555 1_555
H9 C9 1_555 1_555
H10 C9 1_555 1_555
C10 C9 1_555 1_555
C11 O6 1_555 1_555
C12 C11 1_555 1_555
H11 C12 1_555 1_555
H12 C12 1_555 1_555
C13 C12 1_555 1_555
C14 C13 1_555 1_555
H13 C14 1_555 1_555
C15 C14 1_555 1_555
H14 C15 1_555 1_555
C16 C15 1_555 1_555
C17 C16 1_555 1_555
H15 C17 1_555 1_555
C18 C13 1_555 1_555
H16 C18 1_555 1_555
C19 C16 1_555 1_555
H17 C19 1_555 1_555
H18 C19 1_555 1_555
C20 C19 1_555 1_555
C21 N1 1_555 1_555
H19 C21 1_555 1_555
C22 N1 1_555 1_555
H20 C22 1_555 1_555
C23 N2 1_555 1_555
H21 C23 1_555 1_555
C24 N2 1_555 1_555
H22 C24 1_555 1_555
H23 C24 1_555 1_555
C25 C24 1_555 1_555
C26 C25 1_555 1_555
H24 C26 1_555 1_555
C27 C26 1_555 1_555
C28 C27 1_555 1_555
H25 C28 1_555 1_555
C29 C28 1_555 1_555
H26 C29 1_555 1_555
C30 C25 1_555 1_555
H27 C30 1_555 1_555
C31 C27 1_555 1_555
H28 C31 1_555 1_555
H29 C31 1_555 1_555
C32 N3 1_555 1_555
H30 C32 1_555 1_555
C33 N3 1_555 1_555
H31 C33 1_555 1_555
C34 N4 1_555 1_555
H32 C34 1_555 1_555
C35 N5 1_555 1_555
H33 C35 1_555 1_555
C36 N5 1_555 1_555
H34 C36 1_555 1_555
C37 N6 1_555 1_555
H35 C37 1_555 1_555
C38 N6 1_555 1_555
H36 C38 1_555 1_555
H37 C38 1_555 1_555
C39 C38 1_555 1_555
C40 C39 1_555 1_555
H38 C40 1_555 1_555
C41 C40 1_555 1_555
H39 C41 1_555 1_555
C42 C41 1_555 1_555
H40 C42 1_555 1_555
C43 C42 1_555 1_555
C44 C39 1_555 1_555
H41 C44 1_555 1_555
C45 C43 1_555 1_555
H42 C45 1_555 1_555
H43 C45 1_555 1_555
C46 N7 1_555 1_555
H44 C46 1_555 1_555
C47 N7 1_555 1_555
H45 C47 1_555 1_555
C48 N8 1_555 1_555
H46 C48 1_555 1_555
O10 H47 1_555 1_555
H48 O10 1_555 1_555
Co1_2 O3 1_555 1_555
Co2A O8 1_555 1_555
Co2A_2 N4 1_555 1_555
O3_2 Co1 1_555 1_555
O8A Co2 1_555 1_555
N4A Co2 1_555 1_555
N8A Co2 1_555 1_555
Co2 O5 1_555 1_555
O7 C11 1_555 1_555
N8 Co2A_2 1_555 1_555
C7 C8 1_555 1_555
C17 C18 1_555 1_555
C22 C23 1_555 1_555
C29 C30 1_555 1_555
C33 C34 1_555 1_555
C36 C37 1_555 1_555
C43 C44 1_555 1_555
C47 C48 1_555 1_555

#END
