
#######################################################################
#
#                 Cambridge Crystallographic Data Centre
#                                CCDC 
#
#######################################################################
#
# If this CIF has been generated from an entry in the Cambridge 
# Structural Database, then it will include bibliographic, chemical, 
# crystal, experimental, refinement or atomic coordinate data resulting 
# from the CCDC's data processing and validation procedures.
#
#######################################################################

data_COHLES
_symmetry_cell_setting           orthorhombic
_symmetry_space_group_name_H-M   'P b c m'
_symmetry_Int_Tables_number      57
_space_group_name_Hall           '-P 2c 2b'
loop_
_symmetry_equiv_pos_site_id
_symmetry_equiv_pos_as_xyz
1 x,y,z
2 -x,-y,1/2+z
3 -x,1/2+y,1/2-z
4 x,1/2-y,-z
5 -x,-y,-z
6 x,y,1/2-z
7 x,1/2-y,1/2+z
8 -x,1/2+y,z
_cell_length_a                   8.8089(18)
_cell_length_b                   22.436(5)
_cell_length_c                   31.193(6)
_cell_angle_alpha                90
_cell_angle_beta                 90
_cell_angle_gamma                90
_cell_volume                     6164.87
loop_
_atom_site_label
_atom_site_type_symbol
_atom_site_fract_x
_atom_site_fract_y
_atom_site_fract_z
Ni1 Ni 0.42815(6) 0.11901(2) 0.078027(16)
N1 N 0.3557(4) 0.07780(14) 0.01936(11)
H1 H 0.3941 0.0982 -0.0030
H2 H 0.3923 0.0404 0.0182
N2 N 0.1917(4) 0.11521(16) 0.08806(13)
H3 H 0.1678 0.0790 0.0994
N3 N 0.4251(5) 0.15253(16) 0.14247(12)
H4 H 0.4705 0.1884 0.1440
N4 N 0.4809(4) 0.03783(14) 0.10924(11)
H5 H 0.4089 0.0106 0.1019
N5 N 0.6672(4) 0.11867(14) 0.06636(11)
H6 H 0.6845 0.1163 0.0380
H7 H 0.7081 0.1529 0.0760
N6 N 0.4262(4) 0.20879(14) 0.05325(10)
H8 H 0.3409 0.2266 0.0627
H9 H 0.5050 0.2284 0.0650
C1 C 0.1895(5) 0.0761(2) 0.01583(16)
H10 H 0.1531 0.0364 0.0227
H11 H 0.1595 0.0853 -0.0134
C2 C 0.1203(5) 0.1205(2) 0.04596(19)
H12 H 0.1349 0.1605 0.0349
H13 H 0.0121 0.1133 0.0484
C3 C 0.1549(7) 0.1612(2) 0.1191(2)
H14 H 0.0523 0.1553 0.1295
H15 H 0.1599 0.2000 0.1055
C4 C 0.2641(8) 0.1589(2) 0.15584(19)
H16 H 0.2537 0.1951 0.1726
H17 H 0.2375 0.1256 0.1742
C5 C 0.5106(6) 0.1101(2) 0.16867(15)
H18 H 0.4861 0.1162 0.1987
H19 H 0.6185 0.1171 0.1650
C6 C 0.4733(6) 0.0466(2) 0.15616(16)
H20 H 0.5443 0.0197 0.1700
H21 H 0.3721 0.0368 0.1662
C7 C 0.6281(5) 0.01682(19) 0.09244(17)
H22 H 0.6129 -0.0017 0.0647
H23 H 0.6699 -0.0129 0.1117
C8 C 0.7389(5) 0.0680(2) 0.08805(16)
H24 H 0.7733 0.0802 0.1163
H25 H 0.8267 0.0551 0.0718
C9 C 0.4341(5) 0.21742(17) 0.00661(13)
H26 H 0.3481 0.1977 -0.0066
H27 H 0.5257 0.1986 -0.0041
N6C N 0.4262(4) 0.29121(14) -0.05325(10)
H8C H 0.3409 0.2734 -0.0627
H9C H 0.5050 0.2716 -0.0650
C9C C 0.4341(5) 0.28258(17) -0.00661(13)
H26C H 0.3481 0.3023 0.0066
H27C H 0.5257 0.3014 0.0041
Ni1C Ni 0.42815(6) 0.38099(2) -0.078027(16)
N1C N 0.3557(4) 0.42220(14) -0.01936(11)
H1C H 0.3941 0.4018 0.0030
H2C H 0.3923 0.4596 -0.0182
N2C N 0.1917(4) 0.38479(16) -0.08806(13)
H3C H 0.1678 0.4210 -0.0994
N3C N 0.4251(5) 0.34747(16) -0.14247(12)
H4C H 0.4705 0.3116 -0.1440
N4C N 0.4809(4) 0.46217(14) -0.10924(11)
H5C H 0.4089 0.4894 -0.1019
N5C N 0.6672(4) 0.38133(14) -0.06636(11)
H6C H 0.6845 0.3837 -0.0380
H7C H 0.7081 0.3471 -0.0760
C1C C 0.1895(5) 0.4239(2) -0.01583(16)
H10C H 0.1531 0.4636 -0.0227
H11C H 0.1595 0.4147 0.0134
C2C C 0.1203(5) 0.3795(2) -0.04596(19)
H12C H 0.1349 0.3395 -0.0349
H13C H 0.0121 0.3867 -0.0484
C3C C 0.1549(7) 0.3388(2) -0.1191(2)
H14C H 0.0523 0.3447 -0.1295
H15C H 0.1599 0.3000 -0.1055
C4C C 0.2641(8) 0.3411(2) -0.15584(19)
H16C H 0.2537 0.3049 -0.1726
H17C H 0.2375 0.3744 -0.1742
C5C C 0.5106(6) 0.3899(2) -0.16867(15)
H18C H 0.4861 0.3838 -0.1987
H19C H 0.6185 0.3829 -0.1650
C6C C 0.4733(6) 0.4534(2) -0.15616(16)
H20C H 0.5443 0.4803 -0.1700
H21C H 0.3721 0.4632 -0.1662
C7C C 0.6281(5) 0.48318(19) -0.09244(17)
H22C H 0.6129 0.5017 -0.0647
H23C H 0.6699 0.5129 -0.1117
C8C C 0.7389(5) 0.4320(2) -0.08805(16)
H24C H 0.7733 0.4198 -0.1163
H25C H 0.8267 0.4449 -0.0718
O16 O 0.5416(9) 0.2348(3) 0.2500
Ge1 Ge 0.79203(4) 0.276623(15) 0.138325(11)
Ge2 Ge 0.89786(4) 0.439075(17) 0.133540(12)
Ge3 Ge 0.70421(4) 0.396307(16) 0.065121(12)
Ge4 Ge 1.10559(4) 0.331642(15) 0.118233(11)
Ge5 Ge 0.68131(4) 0.378696(16) 0.198302(11)
Ge6 Ge 0.47955(4) 0.337812(16) 0.125979(11)
Ge7 Ge 0.90703(4) 0.289311(15) 0.044945(11)
F1 F 0.7906(2) 0.20284(9) 0.16062(7)
F2 F 0.9654(3) 0.51322(10) 0.14301(8)
F3 F 0.6376(2) 0.44260(9) 0.02176(7)
O1 O 0.7951(2) 0.35901(10) 0.11524(7)
O2 O 0.7939(3) 0.46053(11) 0.08761(8)
O3 O 1.0806(2) 0.40716(11) 0.13036(8)
O4 O 0.8080(3) 0.43548(11) 0.18437(8)
O5 O 0.5139(3) 0.37731(11) 0.07866(8)
O6 O 0.7914(3) 0.34798(11) 0.02744(8)
O7 O 0.9990(2) 0.28384(10) 0.14949(8)
O8 O 1.0803(3) 0.31858(11) 0.06324(8)
O9 O 0.7566(3) 0.30791(10) 0.19482(7)
O10 O 0.5109(3) 0.38572(10) 0.16948(7)
O11 O 0.6245(4) 0.39743(15) 0.2500
O12 O 0.5828(2) 0.27254(10) 0.12977(8)
O13 O 0.2937(2) 0.31383(12) 0.12872(8)
O14 O 0.8218(3) 0.24508(10) 0.08301(8)
O15 O 0.9640(4) 0.2500 0.0000
Ge1C Ge 0.79203(4) 0.223377(15) -0.138325(11)
Ge2C Ge 0.89786(4) 0.060925(17) -0.133540(12)
Ge3C Ge 0.70421(4) 0.103693(16) -0.065121(12)
Ge4C Ge 1.10559(4) 0.168358(15) -0.118233(11)
Ge5C Ge 0.68131(4) 0.121304(16) -0.198302(11)
Ge6C Ge 0.47955(4) 0.162188(16) -0.125979(11)
Ge7C Ge 0.90703(4) 0.210689(15) -0.044945(11)
F1C F 0.7906(2) 0.29716(9) -0.16062(7)
F2C F 0.9654(3) -0.01322(10) -0.14301(8)
F3C F 0.6376(2) 0.05740(9) -0.02176(7)
O1C O 0.7951(2) 0.14099(10) -0.11524(7)
O2C O 0.7939(3) 0.03947(11) -0.08761(8)
O3C O 1.0806(2) 0.09284(11) -0.13036(8)
O4C O 0.8080(3) 0.06452(11) -0.18437(8)
O5C O 0.5139(3) 0.12269(11) -0.07866(8)
O6C O 0.7914(3) 0.15202(11) -0.02744(8)
O7C O 0.9990(2) 0.21616(10) -0.14949(8)
O8C O 1.0803(3) 0.18142(11) -0.06324(8)
O9C O 0.7566(3) 0.19209(10) -0.19482(7)
O10C O 0.5109(3) 0.11428(10) -0.16948(7)
O12C O 0.5828(2) 0.22746(10) -0.12977(8)
O13C O 0.2937(2) 0.18617(12) -0.12872(8)
O14C O 0.8218(3) 0.25492(10) -0.08301(8)
Ge4_2 Ge 0.10559(4) 0.331642(15) 0.118233(11)
Ge4C_2 Ge 0.10559(4) 0.168358(15) -0.118233(11)
Ge5E Ge 0.68131(4) 0.378696(16) 0.301698(11)
O11C O 0.6245(4) 0.10257(15) -0.2500
O13_2 O 1.2937(2) 0.31383(12) 0.12872(8)
O13C_2 O 1.2937(2) 0.18617(12) -0.12872(8)
H28? H 0.4280 0.1405 0.1150
loop_
_geom_bond_atom_site_label_1
_geom_bond_atom_site_label_2
_geom_bond_site_symmetry_1
_geom_bond_site_symmetry_2
Ge1 F1 1_555 1_555
Ge2 F2 1_555 1_555
Ge3 F3 1_555 1_555
Ge4 O3 1_555 1_555
Ge5 O4 1_555 1_555
Ge6 O5 1_555 1_555
Ge7 O6 1_555 1_555
O1 Ge1 1_555 1_555
O2 Ge2 1_555 1_555
O3 Ge2 1_555 1_555
O4 Ge2 1_555 1_555
O5 Ge3 1_555 1_555
O6 Ge3 1_555 1_555
O7 Ge1 1_555 1_555
O8 Ge4 1_555 1_555
O9 Ge1 1_555 1_555
O10 Ge5 1_555 1_555
O11 Ge5 1_555 1_555
O12 Ge1 1_555 1_555
O13 Ge6 1_555 1_555
O14 Ge1 1_555 1_555
O15 Ge7 1_555 1_555
Ni1 N1 1_555 1_555
N1 H1 1_555 1_555
H2 N1 1_555 1_555
N2 Ni1 1_555 1_555
H3 N2 1_555 1_555
N3 Ni1 1_555 1_555
H4 N3 1_555 1_555
N4 Ni1 1_555 1_555
H5 N4 1_555 1_555
N5 Ni1 1_555 1_555
H6 N5 1_555 1_555
H7 N5 1_555 1_555
N6 Ni1 1_555 1_555
H8 N6 1_555 1_555
H9 N6 1_555 1_555
C1 N1 1_555 1_555
H10 C1 1_555 1_555
H11 C1 1_555 1_555
C2 N2 1_555 1_555
H12 C2 1_555 1_555
H13 C2 1_555 1_555
C3 N2 1_555 1_555
H14 C3 1_555 1_555
H15 C3 1_555 1_555
C4 N3 1_555 1_555
H16 C4 1_555 1_555
H17 C4 1_555 1_555
C5 N3 1_555 1_555
H18 C5 1_555 1_555
H19 C5 1_555 1_555
C6 N4 1_555 1_555
H20 C6 1_555 1_555
H21 C6 1_555 1_555
C7 N4 1_555 1_555
H22 C7 1_555 1_555
H23 C7 1_555 1_555
C8 N5 1_555 1_555
H24 C8 1_555 1_555
H25 C8 1_555 1_555
C9 N6 1_555 1_555
H26 C9 1_555 1_555
H27 C9 1_555 1_555
Ge1C F1C 1_555 1_555
Ge2C F2C 1_555 1_555
Ge3C F3C 1_555 1_555
Ge4C O3C 1_555 1_555
Ge5C O4C 1_555 1_555
Ge6C O5C 1_555 1_555
Ge7C O15 1_555 1_555
O1C Ge1C 1_555 1_555
O2C Ge2C 1_555 1_555
O3C Ge2C 1_555 1_555
O4C Ge2C 1_555 1_555
O5C Ge3C 1_555 1_555
O6C Ge3C 1_555 1_555
O7C Ge1C 1_555 1_555
O8C Ge4C 1_555 1_555
O9C Ge1C 1_555 1_555
O10C Ge5C 1_555 1_555
O12C Ge1C 1_555 1_555
O13C Ge6C 1_555 1_555
O14C Ge1C 1_555 1_555
Ge4_2 O13 1_555 1_555
Ge4C_2 O13C 1_555 1_555
Ge5E O11 1_555 1_555
O11C Ge5C 1_555 1_555
O13_2 Ge4 1_555 1_555
O13C_2 Ge4C 1_555 1_555
N6C H8C 1_555 1_555
H9C N6C 1_555 1_555
C9C C9 1_555 1_555
H26C C9C 1_555 1_555
H27C C9C 1_555 1_555
Ni1C N6C 1_555 1_555
N1C Ni1C 1_555 1_555
H1C N1C 1_555 1_555
H2C N1C 1_555 1_555
N2C Ni1C 1_555 1_555
H3C N2C 1_555 1_555
N3C Ni1C 1_555 1_555
H4C N3C 1_555 1_555
N4C Ni1C 1_555 1_555
H5C N4C 1_555 1_555
N5C Ni1C 1_555 1_555
H6C N5C 1_555 1_555
H7C N5C 1_555 1_555
C1C N1C 1_555 1_555
H10C C1C 1_555 1_555
H11C C1C 1_555 1_555
C2C N2C 1_555 1_555
H12C C2C 1_555 1_555
H13C C2C 1_555 1_555
C3C N2C 1_555 1_555
H14C C3C 1_555 1_555
H15C C3C 1_555 1_555
C4C N3C 1_555 1_555
H16C C4C 1_555 1_555
H17C C4C 1_555 1_555
C5C N3C 1_555 1_555
H18C C5C 1_555 1_555
H19C C5C 1_555 1_555
C6C N4C 1_555 1_555
H20C C6C 1_555 1_555
H21C C6C 1_555 1_555
C7C N4C 1_555 1_555
H22C C7C 1_555 1_555
H23C C7C 1_555 1_555
C8C N5C 1_555 1_555
H24C C8C 1_555 1_555
H25C C8C 1_555 1_555
Ge2 O1 1_555 1_555
Ge3 O1 1_555 1_555
Ge3 O2 1_555 1_555
Ge4 O7 1_555 1_555
Ge5 O9 1_555 1_555
Ge6 O10 1_555 1_555
Ge6 O12 1_555 1_555
Ge7 O8 1_555 1_555
Ge7 O14 1_555 1_555
C1 C2 1_555 1_555
C3 C4 1_555 1_555
C5 C6 1_555 1_555
C7 C8 1_555 1_555
Ge2C O1C 1_555 1_555
Ge3C O1C 1_555 1_555
Ge3C O2C 1_555 1_555
Ge4C O7C 1_555 1_555
Ge5C O9C 1_555 1_555
Ge6C O10C 1_555 1_555
Ge6C O12C 1_555 1_555
Ge7C O6C 1_555 1_555
Ge7C O8C 1_555 1_555
Ge7C O14C 1_555 1_555
N6C C9C 1_555 1_555
C1C C2C 1_555 1_555
C3C C4C 1_555 1_555
C5C C6C 1_555 1_555
C7C C8C 1_555 1_555

#END
