
#######################################################################
#
#                 Cambridge Crystallographic Data Centre
#                                CCDC 
#
#######################################################################
#
# If this CIF has been generated from an entry in the Cambridge 
# Structural Database, then it will include bibliographic, chemical, 
# crystal, experimental, refinement or atomic coordinate data resulting 
# from the CCDC's data processing and validation procedures.
#
#######################################################################

data_COHPEU01
_symmetry_cell_setting           monoclinic
_symmetry_space_group_name_H-M   'C 2/c'
_symmetry_Int_Tables_number      15
_space_group_name_Hall           '-C 2yn'
loop_
_symmetry_equiv_pos_site_id
_symmetry_equiv_pos_as_xyz
1 x,y,z
2 x,-y,1/2+z
3 1/2+x,1/2+y,z
4 1/2+x,1/2-y,1/2+z
5 -x,-y,-z
6 -x,y,1/2-z
7 1/2-x,1/2-y,-z
8 1/2-x,1/2+y,1/2-z
_cell_length_a                   11.361(2)
_cell_length_b                   6.4043(9)
_cell_length_c                   12.474(2)
_cell_angle_alpha                90
_cell_angle_beta                 106.343(5)
_cell_angle_gamma                90
_cell_volume                     870.927
loop_
_atom_site_label
_atom_site_type_symbol
_atom_site_fract_x
_atom_site_fract_y
_atom_site_fract_z
Ga1 Ga 0.5000 0.70340(6) 0.2500
Cl1 Cl 0.39599(5) 0.85994(10) 0.34736(4)
Cl2 Cl 0.5000 0.36712(14) 0.2500
O1 O 0.66189(14) 0.7161(2) 0.39476(12)
C1 C 0.6560(2) 0.6072(4) 0.49546(16)
H1 H 0.6176 0.4686 0.4753
H2 H 0.6047 0.6878 0.5330
C2 C 0.7179(2) 0.9197(4) 0.42641(17)
H3 H 0.6669 1.0026 0.4633
H4 H 0.7230 0.9961 0.3588
Cl1E Cl 0.60401(5) 0.85994(10) 0.15264(4)
O1E O 0.33811(14) 0.7161(2) 0.10524(12)
C2F C 0.7821(2) 0.5803(4) 0.57359(17)
C1F C 0.8440(2) 0.8928(4) 0.50454(16)
O1F O 0.83811(14) 0.7839(2) 0.60524(12)
H3F H 0.8331 0.4974 0.5367
H4F H 0.7770 0.5039 0.6412
H1F H 0.8824 1.0314 0.5247
H2F H 0.8953 0.8122 0.4670
Ga1C Ga 1.0000 0.79660(6) 0.7500
loop_
_geom_bond_atom_site_label_1
_geom_bond_atom_site_label_2
_geom_bond_site_symmetry_1
_geom_bond_site_symmetry_2
Ga1 Cl1 1_555 1_555
Cl2 Ga1 1_555 1_555
O1 Ga1 1_555 1_555
C1 O1 1_555 1_555
H1 C1 1_555 1_555
H2 C1 1_555 1_555
C2 O1 1_555 1_555
H3 C2 1_555 1_555
H4 C2 1_555 1_555
Cl1E Ga1 1_555 1_555
O1E Ga1 1_555 1_555
C2F C1 1_555 1_555
C1F C2 1_555 1_555
O1F C2F 1_555 1_555
H3F C2F 1_555 1_555
H4F C2F 1_555 1_555
H1F C1F 1_555 1_555
H2F C1F 1_555 1_555
Ga1C O1F 1_555 1_555
C1F O1F 1_555 1_555

#END
