
#######################################################################
#
#                 Cambridge Crystallographic Data Centre
#                                CCDC 
#
#######################################################################
#
# If this CIF has been generated from an entry in the Cambridge 
# Structural Database, then it will include bibliographic, chemical, 
# crystal, experimental, refinement or atomic coordinate data resulting 
# from the CCDC's data processing and validation procedures.
#
#######################################################################

data_COHQEW01
_symmetry_cell_setting           monoclinic
_symmetry_space_group_name_H-M   'P 2/c'
_symmetry_Int_Tables_number      13
_space_group_name_Hall           '-P 2yc'
loop_
_symmetry_equiv_pos_site_id
_symmetry_equiv_pos_as_xyz
1 x,y,z
2 -x,y,1/2-z
3 -x,-y,-z
4 x,-y,1/2+z
_cell_length_a                   9.7737(5)
_cell_length_b                   7.9812(4)
_cell_length_c                   12.9258(6)
_cell_angle_alpha                90
_cell_angle_beta                 90.0211(4)
_cell_angle_gamma                90
_cell_volume                     1008.29
loop_
_atom_site_label
_atom_site_type_symbol
_atom_site_fract_x
_atom_site_fract_y
_atom_site_fract_z
C1 C 0.2857(3) 0.5651(3) 0.1473(2)
C2 C 0.3744(2) 0.6453(3) 0.06486(19)
C3 C 0.3596(3) 0.6208(3) -0.0411(2)
H1 H 0.2891 0.5548 -0.0670
C4 C 0.4517(3) 0.6963(4) -0.1068(2)
H2 H 0.4439 0.6805 -0.1779
C5 C 0.5572(3) 0.7969(4) -0.0673(2)
H3 H 0.6203 0.8476 -0.1111
C6 C 0.5644(3) 0.8186(3) 0.0394(2)
C7 C 0.6693(3) 0.9269(3) 0.0950(2)
Cu1 Cu 0.5000 0.75555(4) 0.2500
H4 H -0.017(4) 0.749(4) 0.130(4)
H5 H 0.025(3) 0.183(5) 0.128(3)
H6 H -0.161(4) 0.658(7) 0.187(3)
H7 H -0.131(3) 0.177(5) 0.100(3)
N1 N 0.4742(2) 0.7431(2) 0.1020(2)
Na1 Na 0.0000 0.43831(17) 0.2500
Na2 Na 0.0000 0.5000 0.0000
O1 O 0.3273(2) 0.5828(2) 0.23873(15)
O2 O 0.1813(2) 0.4883(2) 0.11969(15)
O3 O 0.6575(2) 0.9307(2) 0.19196(15)
O4 O 0.7540(2) 1.0035(2) 0.04177(17)
O5 O -0.0860(3) 0.6649(3) 0.14004(18)
O6 O -0.0553(3) 0.2444(2) 0.1140(3)
C1A C 0.7143(3) 0.5651(3) 0.3527(2)
C2A C 0.6256(2) 0.6453(3) 0.43514(19)
C3A C 0.6404(3) 0.6208(3) 0.5411(2)
H1A H 0.7109 0.5548 0.5670
C4A C 0.5483(3) 0.6963(4) 0.6068(2)
H2A H 0.5561 0.6805 0.6779
C5A C 0.4428(3) 0.7969(4) 0.5673(2)
H3A H 0.3797 0.8476 0.6111
C6A C 0.4356(3) 0.8186(3) 0.4606(2)
C7A C 0.3307(3) 0.9269(3) 0.4050(2)
H4A H 0.017(4) 0.749(4) 0.370(4)
H4B H 0.017(4) 0.251(4) -0.130(4)
H5A H -0.025(3) 0.183(5) 0.372(3)
H5B H -0.025(3) 0.817(5) -0.128(3)
H6A H 0.161(4) 0.658(7) 0.313(3)
H6B H 0.161(4) 0.342(7) -0.187(3)
H7A H 0.131(3) 0.177(5) 0.400(3)
H7B H 0.131(3) 0.823(5) -0.100(3)
N1A N 0.5258(2) 0.7431(2) 0.3980(2)
Na1_2 Na 1.0000 0.43831(17) 0.2500
Na2A Na 1.0000 0.5000 0.5000
Na2A_2 Na 0.0000 0.5000 0.5000
O1A O 0.6727(2) 0.5828(2) 0.26127(15)
O2A O 0.8187(2) 0.4883(2) 0.38031(15)
O2A_2 O -0.1813(2) 0.4883(2) 0.38031(15)
O2B O -0.1813(2) 0.5117(2) -0.11969(15)
O3A O 0.3425(2) 0.9307(2) 0.30804(15)
O4A O 0.2460(2) 1.0035(2) 0.45823(17)
O5A O 0.0860(3) 0.6649(3) 0.35996(18)
O5B O 0.0860(3) 0.3351(3) -0.14004(18)
O6A O 0.0553(3) 0.2444(2) 0.3860(3)
O6B O 0.0553(3) 0.7556(2) -0.1140(3)
H8 H 0.835(6) 0.076(7) 0.910(3)
H9 H 0.803(4) 0.029(6) 0.800(3)
O7 O 0.8768(3) 0.0441(4) 0.8479(2)
loop_
_geom_bond_atom_site_label_1
_geom_bond_atom_site_label_2
_geom_bond_site_symmetry_1
_geom_bond_site_symmetry_2
C1 C2 1_555 1_555
C2 C3 1_555 1_555
C3 H1 1_555 1_555
C4 C3 1_555 1_555
H2 C4 1_555 1_555
C5 C4 1_555 1_555
H3 C5 1_555 1_555
C6 C5 1_555 1_555
C7 C6 1_555 1_555
Cu1 N1 1_555 1_555
H4 O5 1_555 1_555
H5 O6 1_555 1_555
H6 O5 1_555 1_555
H7 O6 1_555 1_555
N1 C2 1_555 1_555
Na1 O2 1_555 1_555
Na2 O2 1_555 1_555
O1 C1 1_555 1_555
O2 C1 1_555 1_555
O3 C7 1_555 1_555
O4 C7 1_555 1_555
O5 Na1 1_555 1_555
O6 Na1 1_555 1_555
H8 O7 1_555 1_555
H9 O7 1_555 1_555
C1A C2A 1_555 1_555
C2A C3A 1_555 1_555
C3A H1A 1_555 1_555
C4A C3A 1_555 1_555
H2A C4A 1_555 1_555
C5A C4A 1_555 1_555
H3A C5A 1_555 1_555
C6A C5A 1_555 1_555
C7A C6A 1_555 1_555
H4A O5A 1_555 1_555
H4B O5B 1_555 1_555
H5A O6A 1_555 1_555
H5B O6B 1_555 1_555
H6A O5A 1_555 1_555
H6B O5B 1_555 1_555
H7A O6A 1_555 1_555
H7B O6B 1_555 1_555
N1A Cu1 1_555 1_555
Na1_2 O2A 1_555 1_555
Na2A O2A 1_555 1_555
Na2A_2 O2A_2 1_555 1_555
O1A Cu1 1_555 1_555
O2A C1A 1_555 1_555
O2A_2 Na1 1_555 1_555
O2B Na2 1_555 1_555
O3A Cu1 1_555 1_555
O4A C7A 1_555 1_555
O5A Na1 1_555 1_555
O5B Na2 1_555 1_555
O6A Na1 1_555 1_555
O6B Na2 1_555 1_555
C6 N1 1_555 1_555
Cu1 O1 1_555 1_555
Cu1 O3 1_555 1_555
Na2 O5 1_555 1_555
Na2 O6 1_555 1_555
C1A O1A 1_555 1_555
C2A N1A 1_555 1_555
C6A N1A 1_555 1_555
C7A O3A 1_555 1_555
Na2A_2 O5A 1_555 1_555
Na2A_2 O6A 1_555 1_555

#END
