
#######################################################################
#
#                 Cambridge Crystallographic Data Centre
#                                CCDC 
#
#######################################################################
#
# If this CIF has been generated from an entry in the Cambridge 
# Structural Database, then it will include bibliographic, chemical, 
# crystal, experimental, refinement or atomic coordinate data resulting 
# from the CCDC's data processing and validation procedures.
#
#######################################################################

data_COHQEW
_symmetry_cell_setting           monoclinic
_symmetry_space_group_name_H-M   'P 2/c'
_symmetry_Int_Tables_number      13
_space_group_name_Hall           '-P 2yc'
loop_
_symmetry_equiv_pos_site_id
_symmetry_equiv_pos_as_xyz
1 x,y,z
2 -x,y,1/2-z
3 -x,-y,-z
4 x,-y,1/2+z
_cell_length_a                   9.7626(12)
_cell_length_b                   7.9756(10)
_cell_length_c                   12.9066(13)
_cell_angle_alpha                90
_cell_angle_beta                 90.066(9)
_cell_angle_gamma                90
_cell_volume                     1004.94
loop_
_atom_site_label
_atom_site_type_symbol
_atom_site_fract_x
_atom_site_fract_y
_atom_site_fract_z
C1 C 0.71474(19) 0.0644(3) -0.35294(15)
C2 C 0.3310(2) 0.4267(3) -0.40516(16)
C3 C 0.43581(19) 0.3185(2) -0.46097(15)
C4 C 0.4432(2) 0.2959(3) -0.56710(16)
C5 C 0.5480(2) 0.1971(3) -0.60654(16)
C6 C 0.6398(2) 0.1211(3) -0.54064(16)
C7 C 0.62575(19) 0.1453(2) -0.43544(15)
N1 N 0.52545(17) 0.2431(2) -0.39790(13)
O1 O 1.0860(2) 0.1634(3) -0.36028(14)
O2 O 1.0551(2) -0.2551(2) -0.38548(17)
O4 O 0.67285(15) 0.0825(2) -0.26096(10)
O5 O 0.81861(15) -0.0115(2) -0.38021(11)
O6 O 0.34195(16) 0.4305(2) -0.30765(11)
O7 O 0.24580(16) 0.5030(2) -0.45804(12)
Cu1 Cu 0.5000 0.25541(4) -0.2500
Na1 Na 1.0000 0.0000 -0.5000
Na2 Na 1.0000 -0.06175(16) -0.2500
H1 H 1.151(3) 0.172(4) -0.331(2)
H2 H 1.041(3) 0.239(4) -0.366(3)
H3 H 1.111(3) -0.314(4) -0.399(2)
H4 H 0.996(3) -0.319(4) -0.376(2)
H5 H 0.381(3) 0.348(3) -0.610(2)
H8 H 0.559(3) 0.182(3) -0.676(2)
H9 H 0.705(3) 0.057(4) -0.568(2)
C1A C 0.28526(19) 0.0644(3) -0.14706(15)
C2A C 0.6690(2) 0.4267(3) -0.09484(16)
C3A C 0.56419(19) 0.3185(2) -0.03903(15)
C4A C 0.5568(2) 0.2959(3) 0.06710(16)
C5A C 0.4520(2) 0.1971(3) 0.10654(16)
C6A C 0.3602(2) 0.1211(3) 0.04064(16)
C7A C 0.37425(19) 0.1453(2) -0.06456(15)
N1A N 0.47455(17) 0.2431(2) -0.10210(13)
O1B O 0.9140(2) -0.1634(3) -0.63972(14)
O1A O 0.9140(2) 0.1634(3) -0.13972(14)
O2B O 0.9449(2) 0.2551(2) -0.61452(17)
O2A O 0.9449(2) -0.2551(2) -0.11452(17)
O4A O 0.32715(15) 0.0825(2) -0.23904(10)
O5A O 0.18139(15) -0.0115(2) -0.11979(11)
O5B O 1.18139(15) 0.0115(2) -0.61979(11)
O5A_2 O 1.18139(15) -0.0115(2) -0.11979(11)
O6A O 0.65805(16) 0.4305(2) -0.19235(11)
O7A O 0.75420(16) 0.5030(2) -0.04196(12)
Na1C Na 0.0000 0.0000 0.0000
Na2_2 Na 0.0000 -0.06175(16) -0.2500
Na2C Na 1.0000 0.06175(16) -0.7500
H1B H 0.849(3) -0.172(4) -0.669(2)
H1A H 0.849(3) 0.172(4) -0.169(2)
H2B H 0.959(3) -0.239(4) -0.634(3)
H2A H 0.959(3) 0.239(4) -0.134(3)
H3B H 0.889(3) 0.314(4) -0.601(2)
H3A H 0.889(3) -0.314(4) -0.101(2)
H4B H 1.004(3) 0.319(4) -0.624(2)
H4A H 1.004(3) -0.319(4) -0.124(2)
H5A H 0.619(3) 0.348(3) 0.110(2)
H8A H 0.441(3) 0.182(3) 0.176(2)
H9A H 0.295(3) 0.057(4) 0.068(2)
O3 O 0.8777(2) -0.5448(3) -0.34795(16)
H6 H 0.823(3) -0.538(4) -0.303(2)
H7 H 0.836(3) -0.537(4) -0.397(2)
loop_
_geom_bond_atom_site_label_1
_geom_bond_atom_site_label_2
_geom_bond_site_symmetry_1
_geom_bond_site_symmetry_2
C1 C7 1_555 1_555
C2 C3 1_555 1_555
C3 C4 1_555 1_555
C4 C5 1_555 1_555
C5 C6 1_555 1_555
C6 C7 1_555 1_555
C7 N1 1_555 1_555
N1 C3 1_555 1_555
O1 Na1 1_555 1_555
O2 Na1 1_555 1_555
O3 H6 1_555 1_555
O4 C1 1_555 1_555
O5 C1 1_555 1_555
O6 C2 1_555 1_555
O7 C2 1_555 1_555
Cu1 N1 1_555 1_555
Na1 O5 1_555 1_555
Na2 O1 1_555 1_555
H1 O1 1_555 1_555
H2 O1 1_555 1_555
H3 O2 1_555 1_555
H4 O2 1_555 1_555
H5 C4 1_555 1_555
H7 O3 1_555 1_555
H8 C5 1_555 1_555
H9 C6 1_555 1_555
C1A C7A 1_555 1_555
C2A C3A 1_555 1_555
C3A C4A 1_555 1_555
C4A C5A 1_555 1_555
C5A C6A 1_555 1_555
C6A C7A 1_555 1_555
C7A N1A 1_555 1_555
N1A Cu1 1_555 1_555
O1B Na1 1_555 1_555
O1A Na2 1_555 1_555
O2B Na1 1_555 1_555
O2A Na2 1_555 1_555
O4A Cu1 1_555 1_555
O5A C1A 1_555 1_555
O5B Na1 1_555 1_555
O5A_2 Na2 1_555 1_555
O6A Cu1 1_555 1_555
O7A C2A 1_555 1_555
Na1C O5A 1_555 1_555
Na2_2 O5A 1_555 1_555
Na2C O1B 1_555 1_555
H1B O1B 1_555 1_555
H1A O1A 1_555 1_555
H2B O1B 1_555 1_555
H2A O1A 1_555 1_555
H3B O2B 1_555 1_555
H3A O2A 1_555 1_555
H4B O2B 1_555 1_555
H4A O2A 1_555 1_555
H5A C4A 1_555 1_555
H8A C5A 1_555 1_555
H9A C6A 1_555 1_555
O2 Na2 1_555 1_555
O4 Cu1 1_555 1_555
O5 Na2 1_555 1_555
O6 Cu1 1_555 1_555
C1A O4A 1_555 1_555
C2A O6A 1_555 1_555
C3A N1A 1_555 1_555
O2B Na2C 1_555 1_555
O5B Na2C 1_555 1_555

#END
