
#######################################################################
#
#                 Cambridge Crystallographic Data Centre
#                                CCDC 
#
#######################################################################
#
# If this CIF has been generated from an entry in the Cambridge 
# Structural Database, then it will include bibliographic, chemical, 
# crystal, experimental, refinement or atomic coordinate data resulting 
# from the CCDC's data processing and validation procedures.
#
#######################################################################

data_COHREW
_symmetry_cell_setting           monoclinic
_symmetry_space_group_name_H-M   'C 2'
_symmetry_Int_Tables_number      5
_space_group_name_Hall           'C 2y'
loop_
_symmetry_equiv_pos_site_id
_symmetry_equiv_pos_as_xyz
1 x,y,z
2 1/2+x,1/2+y,z
3 -x,y,-z
4 1/2-x,1/2+y,-z
_cell_length_a                   7.219(4)
_cell_length_b                   5.894(2)
_cell_length_c                   19.272(2)
_cell_angle_alpha                90
_cell_angle_beta                 91.57(4)
_cell_angle_gamma                90
_cell_volume                     819.692
loop_
_atom_site_label
_atom_site_type_symbol
_atom_site_fract_x
_atom_site_fract_y
_atom_site_fract_z
Ba1 Ba 0.0000 0.0000 0.0000
C1 C 0.5535(16) 0.2801(22) 0.2910(6)
C2 C 0.6481(37) 0.4640(37) 0.3151(13)
C3 C 0.7058(39) 0.4650(47) 0.3850(12)
C4 C 0.6672(20) 0.2759(28) 0.4287(7)
C5 C 0.5756(47) 0.1017(53) 0.4026(13)
C6 C 0.5166(42) 0.0935(48) 0.3336(12)
S1 S 0.4658(5) 0.3061(6) 0.2032(2)
C7 C 0.4616(18) 0.0223(66) 0.1724(5)
C8 C 0.3617(11) 0.0187(64) 0.1010(5)
O1 O 0.3107(30) 0.1953(40) 0.0734(8)
O2 O 0.3330(38) -0.1787(44) 0.0753(12)
H1 H 0.7101 0.5008 0.2628
H2 H 0.7646 0.4981 0.4302
H3 H 0.6978 0.2474 0.4799
H4 H 0.4068 -0.0009 0.2988
H5 H 0.3879 0.0180 0.2146
O1A O -0.1893(30) -0.3047(40) 0.0734(8)
O1B O -0.3107(30) 0.1953(40) -0.0734(8)
O1C O 0.1893(30) -0.3047(40) -0.0734(8)
O2A O -0.1670(38) 0.3213(44) 0.0753(12)
O2B O -0.3330(38) -0.1787(44) -0.0753(12)
O2C O 0.1670(38) 0.3213(44) -0.0753(12)
Ba1A Ba 0.5000 0.5000 0.0000
Ba1A_2 Ba 0.5000 -0.5000 0.0000
Ba1A_3 Ba -0.5000 -0.5000 0.0000
C8B C -0.3617(11) 0.0187(64) -0.1010(5)
Ba1A_4 Ba -0.5000 0.5000 0.0000
C7B C -0.4616(18) 0.0223(66) -0.1724(5)
S1B S -0.4658(5) 0.3061(6) -0.2032(2)
H5B H -0.3879 0.0180 -0.2146
C1B C -0.5535(16) 0.2801(22) -0.2910(6)
C2B C -0.6481(37) 0.4640(37) -0.3151(13)
C6B C -0.5166(42) 0.0935(48) -0.3336(12)
C3B C -0.7058(39) 0.4650(47) -0.3850(12)
H1B H -0.7101 0.5008 -0.2628
C5B C -0.5756(47) 0.1017(53) -0.4026(13)
H4B H -0.4068 -0.0009 -0.2988
C4B C -0.6672(20) 0.2759(28) -0.4287(7)
H2B H -0.7646 0.4981 -0.4302
H3B H -0.6978 0.2474 -0.4799
loop_
_geom_bond_atom_site_label_1
_geom_bond_atom_site_label_2
_geom_bond_site_symmetry_1
_geom_bond_site_symmetry_2
Ba1 O1 1_555 1_555
C1 C2 1_555 1_555
C2 C3 1_555 1_555
C3 C4 1_555 1_555
C4 C5 1_555 1_555
C5 C6 1_555 1_555
C6 C1 1_555 1_555
S1 C1 1_555 1_555
C7 S1 1_555 1_555
C8 C7 1_555 1_555
O1 C8 1_555 1_555
O2 Ba1 1_555 1_555
H1 C2 1_555 1_555
H2 C3 1_555 1_555
H3 C4 1_555 1_555
H4 C6 1_555 1_555
H5 C7 1_555 1_555
O1A Ba1 1_555 1_555
O1B Ba1 1_555 1_555
O1C Ba1 1_555 1_555
O2A Ba1 1_555 1_555
O2B Ba1 1_555 1_555
O2C Ba1 1_555 1_555
Ba1A O1 1_555 1_555
Ba1A_2 O2 1_555 1_555
Ba1A_3 O1A 1_555 1_555
C8B O1B 1_555 1_555
Ba1A_4 O1B 1_555 1_555
C7B C8B 1_555 1_555
S1B C7B 1_555 1_555
H5B C7B 1_555 1_555
C1B S1B 1_555 1_555
C2B C1B 1_555 1_555
C6B C1B 1_555 1_555
C3B C2B 1_555 1_555
H1B C2B 1_555 1_555
C5B C6B 1_555 1_555
H4B C6B 1_555 1_555
C4B C3B 1_555 1_555
H2B C3B 1_555 1_555
H3B C4B 1_555 1_555
C8 O2 1_555 1_555
O1C Ba1A_2 1_555 1_555
O2A Ba1A_4 1_555 1_555
O2B Ba1A_3 1_555 1_555
O2B C8B 1_555 1_555
O2C Ba1A 1_555 1_555
C5B C4B 1_555 1_555

#END
