
#######################################################################
#
#                 Cambridge Crystallographic Data Centre
#                                CCDC 
#
#######################################################################
#
# If this CIF has been generated from an entry in the Cambridge 
# Structural Database, then it will include bibliographic, chemical, 
# crystal, experimental, refinement or atomic coordinate data resulting 
# from the CCDC's data processing and validation procedures.
#
#######################################################################

data_COHRIA
_symmetry_cell_setting           triclinic
_symmetry_space_group_name_H-M   'P -1'
_symmetry_Int_Tables_number      2
_space_group_name_Hall           '-P 1'
loop_
_symmetry_equiv_pos_site_id
_symmetry_equiv_pos_as_xyz
1 x,y,z
2 -x,-y,-z
_cell_length_a                   6.272(1)
_cell_length_b                   7.222(1)
_cell_length_c                   18.459(3)
_cell_angle_alpha                97.23(1)
_cell_angle_beta                 93.64(1)
_cell_angle_gamma                97.31(1)
_cell_volume                     820.046
loop_
_atom_site_label
_atom_site_type_symbol
_atom_site_fract_x
_atom_site_fract_y
_atom_site_fract_z
K1 K 0.7834(1) -0.2969(1) -0.0243
C1 C 0.0186(7) 0.0387(6) 0.2457(2)
C2 C -0.1657(8) 0.1144(7) 0.2660(3)
C3 C -0.1983(9) 0.1602(8) 0.3392(3)
C4 C -0.0488(10) 0.1271(8) 0.3933(2)
C5 C 0.1311(10) 0.0496(8) 0.3738(3)
C6 C 0.1679(8) 0.0056(8) 0.3001(3)
S1 S 0.0462(2) -0.0059(2) 0.1507(1)
C7 C 0.2795(7) -0.1260(6) 0.1477(2)
C8 C 0.3285(7) -0.1944(6) 0.0701(2)
O1 O 0.4443(5) -0.3181(4) 0.0613(1)
O2 O 0.2450(5) -0.1154(4) 0.0185(2)
H1 H -0.2676 0.1296 0.2284
H2 H -0.3422 0.1950 0.3470
H3 H -0.0744 0.1753 0.4534
H4 H 0.2565 0.0244 0.4052
H5 H 0.3128 -0.0370 0.2846
H6 H 0.4004 -0.0383 0.1705
H7 H 0.2530 -0.2111 0.1772
C9 C 0.5356(5) -0.5540(4) -0.3138(2)
C10 C 0.7280(6) -0.5205(5) -0.3465(2)
C11 C 0.7397(6) -0.5919(5) -0.4193(2)
C12 C 0.5652(7) -0.6960(5) -0.4592(2)
C13 C 0.3800(7) -0.7323(6) -0.4260(2)
C14 C 0.3622(6) -0.6620(5) -0.3533(2)
S2 S 0.5394(1) -0.4407(1) -0.2225
C15 C 0.2801(5) -0.5304(5) -0.1941(2)
C16 C 0.2351(5) -0.4264(4) -0.1212(2)
O3 O 0.0847(4) -0.4944(3) -0.0892(1)
O4 O 0.3531(4) -0.2674(3) -0.1000(1)
H8 H 0.8561 -0.4816 -0.3188
H9 H 0.9099 -0.5889 -0.4382
H10 H 0.5549 -0.7373 -0.5185
H11 H 0.2513 -0.7636 -0.4518
H12 H 0.2051 -0.6728 -0.3352
H13 H 0.2850 -0.6572 -0.1868
H14 H 0.1702 -0.5143 -0.2274
H15 H 0.2932 -0.2058 -0.0453
O1A O 0.5557(5) -0.6819(4) -0.0613(1)
K1A K 0.2166(1) -0.7031(1) 0.0243
K1_2 K -0.2166(1) -0.2969(1) -0.0243
O2_2 O 1.2450(5) -0.1154(4) 0.0185(2)
O2A O 0.7550(5) 0.1154(4) -0.0185(2)
O3_2 O 1.0847(4) -0.4944(3) -0.0892(1)
O3A O 0.9153(4) -0.5056(3) 0.0892(1)
K1A_2 K 0.2166(1) 0.2969(1) 0.0243
loop_
_geom_bond_atom_site_label_1
_geom_bond_atom_site_label_2
_geom_bond_site_symmetry_1
_geom_bond_site_symmetry_2
K1 O1 1_555 1_555
C1 C2 1_555 1_555
C2 C3 1_555 1_555
C3 C4 1_555 1_555
C4 C5 1_555 1_555
C5 C6 1_555 1_555
C6 C1 1_555 1_555
S1 C1 1_555 1_555
C7 S1 1_555 1_555
C8 C7 1_555 1_555
O1 C8 1_555 1_555
O2 C8 1_555 1_555
H1 C2 1_555 1_555
H2 C3 1_555 1_555
H3 C4 1_555 1_555
H4 C5 1_555 1_555
H5 C6 1_555 1_555
H6 C7 1_555 1_555
H7 C7 1_555 1_555
C9 C10 1_555 1_555
C10 C11 1_555 1_555
C11 C12 1_555 1_555
C12 C13 1_555 1_555
C13 C14 1_555 1_555
C14 C9 1_555 1_555
S2 C9 1_555 1_555
C15 S2 1_555 1_555
C16 C15 1_555 1_555
O3 C16 1_555 1_555
O4 K1 1_555 1_555
H8 C10 1_555 1_555
H9 C11 1_555 1_555
H10 C12 1_555 1_555
H11 C13 1_555 1_555
H12 C14 1_555 1_555
H13 C15 1_555 1_555
H14 C15 1_555 1_555
H15 O4 1_555 1_555
O1A K1 1_555 1_555
K1A O1 1_555 1_555
K1_2 O2 1_555 1_555
O2_2 K1 1_555 1_555
O2A K1 1_555 1_555
O3_2 K1 1_555 1_555
O3A K1 1_555 1_555
K1A_2 O2 1_555 1_555
C16 O4 1_555 1_555
O3 K1A 1_555 1_555
O3 K1_2 1_555 1_555
O1A K1A 1_555 1_555

#END
