
#######################################################################
#
#                 Cambridge Crystallographic Data Centre
#                                CCDC 
#
#######################################################################
#
# If this CIF has been generated from an entry in the Cambridge 
# Structural Database, then it will include bibliographic, chemical, 
# crystal, experimental, refinement or atomic coordinate data resulting 
# from the CCDC's data processing and validation procedures.
#
#######################################################################

data_COHSOJ
_symmetry_cell_setting           monoclinic
_symmetry_space_group_name_H-M   'P 21/c'
_symmetry_Int_Tables_number      14
_space_group_name_Hall           '-P 2ybc'
loop_
_symmetry_equiv_pos_site_id
_symmetry_equiv_pos_as_xyz
1 x,y,z
2 -x,1/2+y,1/2-z
3 -x,-y,-z
4 x,1/2-y,1/2+z
_cell_length_a                   10.1547(7)
_cell_length_b                   24.5829(18)
_cell_length_c                   12.6606(10)
_cell_angle_alpha                90
_cell_angle_beta                 93.707(3)
_cell_angle_gamma                90
_cell_volume                     3153.88
loop_
_atom_site_label
_atom_site_type_symbol
_atom_site_fract_x
_atom_site_fract_y
_atom_site_fract_z
Mn1 Mn 0.02151(3) 0.178636(12) -0.19075(2)
Mn2 Mn 0.12502(3) 0.240857(12) 0.08474(2)
Cl1 Cl -0.36996(6) 0.24002(2) -0.42422(5)
Cl2 Cl -0.07131(6) 0.06973(3) -0.53059(5)
Cl3 Cl 0.28605(6) 0.05527(2) -0.45242(4)
Cl4 Cl 0.49642(6) 0.20359(3) -0.17731(5)
Cl5 Cl 0.17029(8) 0.04309(3) 0.13514(6)
Cl6 Cl -0.31674(6) 0.12083(3) 0.02230(5)
O1 O -0.14738(15) 0.22398(7) -0.13662(12)
H1 H -0.166(3) 0.2511(8) -0.1728(19)
H2 H -0.129(3) 0.2368(11) -0.0774(12)
O2 O 0.09234(14) 0.25845(6) -0.25006(10)
O3 O 0.14385(14) 0.24250(6) -0.08325(11)
C1 C 0.13991(19) 0.27523(8) -0.16068(14)
C2 C 0.1843(2) 0.33281(9) -0.14880(17)
H3 H 0.2209 0.3389 -0.0762
H4 H 0.1090 0.3572 -0.1638
H5 H 0.2521 0.3403 -0.1985
O4 O -0.09187(14) 0.15317(6) -0.32695(11)
O5 O -0.05825(15) 0.21658(6) -0.45016(11)
C3 C -0.11638(19) 0.17609(8) -0.41449(15)
C4 C -0.2294(2) 0.15379(9) -0.48521(15)
C5 C -0.3496(2) 0.18104(9) -0.49681(16)
C6 C -0.4540(2) 0.16264(10) -0.56351(19)
H6 H -0.5351 0.1820 -0.5694
C7 C -0.4376(3) 0.11557(11) -0.62136(19)
H7 H -0.5078 0.1028 -0.6681
C8 C -0.3202(2) 0.08706(10) -0.61177(18)
H8 H -0.3096 0.0548 -0.6515
C9 C -0.2176(2) 0.10604(9) -0.54336(16)
O6 O 0.20237(14) 0.14447(6) -0.23703(11)
O7 O 0.24705(16) 0.18812(6) -0.38707(11)
C10 C 0.27287(19) 0.15541(8) -0.31295(15)
C11 C 0.40268(19) 0.12572(8) -0.31219(15)
C12 C 0.4185(2) 0.07876(9) -0.37107(16)
C13 C 0.5370(2) 0.05036(10) -0.36700(19)
H9 H 0.5451 0.0178 -0.4064
C14 C 0.6432(2) 0.07028(11) -0.3046(2)
H10 H 0.7248 0.0513 -0.3019
C15 C 0.6321(2) 0.11747(12) -0.24629(19)
H11 H 0.7055 0.1313 -0.2042
C16 C 0.5117(2) 0.14421(9) -0.25038(16)
O8 O -0.00245(16) 0.11957(6) -0.07304(11)
O9 O 0.01029(16) 0.16582(6) 0.07949(12)
C17 C -0.0178(2) 0.12498(9) 0.02378(16)
C18 C -0.0781(2) 0.07709(8) 0.07895(16)
C19 C -0.0005(3) 0.03771(10) 0.13143(19)
C20 C -0.0548(4) -0.00621(10) 0.1828(2)
H12 H 0.0005 -0.0323 0.2189
C21 C -0.1901(4) -0.01112(11) 0.1804(2)
H13 H -0.2281 -0.0413 0.2141
C22 C -0.2716(3) 0.02712(11) 0.1299(2)
H14 H -0.3648 0.0235 0.1288
C23 C -0.2141(3) 0.07118(10) 0.08048(18)
O10 O 0.31309(17) 0.19636(7) 0.10473(13)
H15 H 0.319(3) 0.1721(9) 0.0596(18)
H16 H 0.378(2) 0.2160(10) 0.096(2)
Mn2C Mn 0.12502(3) 0.259143(12) -0.41526(2)
O2C O 0.09234(14) 0.24155(6) 0.24994(10)
O5C O -0.05825(15) 0.28342(6) 0.04984(11)
O7C O 0.24705(16) 0.31188(6) 0.11293(11)
O11 O 0.32667(19) 0.11594(8) -0.03607(14)
H17 H 0.285(3) 0.0880(8) -0.022(3)
H18 H 0.291(3) 0.1253(13) -0.0944(14)
O12 O -0.1670(2) 0.31725(8) -0.25050(14)
H19 H -0.114(2) 0.3211(12) -0.3053(17)
H20 H -0.230(2) 0.3404(11) -0.277(2)
loop_
_geom_bond_atom_site_label_1
_geom_bond_atom_site_label_2
_geom_bond_site_symmetry_1
_geom_bond_site_symmetry_2
Mn1 O1 1_555 1_555
Mn2 O3 1_555 1_555
Cl1 C5 1_555 1_555
Cl2 C9 1_555 1_555
Cl3 C12 1_555 1_555
Cl4 C16 1_555 1_555
Cl5 C19 1_555 1_555
Cl6 C23 1_555 1_555
O1 H1 1_555 1_555
H2 O1 1_555 1_555
O2 Mn1 1_555 1_555
O3 Mn1 1_555 1_555
C1 O2 1_555 1_555
C2 C1 1_555 1_555
H3 C2 1_555 1_555
H4 C2 1_555 1_555
H5 C2 1_555 1_555
O4 Mn1 1_555 1_555
O5 C3 1_555 1_555
C3 O4 1_555 1_555
C4 C3 1_555 1_555
C5 C4 1_555 1_555
C6 C5 1_555 1_555
H6 C6 1_555 1_555
C7 C6 1_555 1_555
H7 C7 1_555 1_555
C8 C7 1_555 1_555
H8 C8 1_555 1_555
C9 C4 1_555 1_555
O6 Mn1 1_555 1_555
O7 C10 1_555 1_555
C10 O6 1_555 1_555
C11 C10 1_555 1_555
C12 C11 1_555 1_555
C13 C12 1_555 1_555
H9 C13 1_555 1_555
C14 C13 1_555 1_555
H10 C14 1_555 1_555
C15 C14 1_555 1_555
H11 C15 1_555 1_555
C16 C11 1_555 1_555
O8 Mn1 1_555 1_555
O9 Mn2 1_555 1_555
C17 O8 1_555 1_555
C18 C17 1_555 1_555
C19 C18 1_555 1_555
C20 C19 1_555 1_555
H12 C20 1_555 1_555
C21 C20 1_555 1_555
H13 C21 1_555 1_555
C22 C21 1_555 1_555
H14 C22 1_555 1_555
C23 C18 1_555 1_555
O10 Mn2 1_555 1_555
H15 O10 1_555 1_555
H16 O10 1_555 1_555
O11 H17 1_555 1_555
H18 O11 1_555 1_555
O12 H19 1_555 1_555
H20 O12 1_555 1_555
Mn2C O2 1_555 1_555
O2C Mn2 1_555 1_555
O5C Mn2 1_555 1_555
O7C Mn2 1_555 1_555
O3 C1 1_555 1_555
O5 Mn2C 1_555 1_555
C8 C9 1_555 1_555
O7 Mn2C 1_555 1_555
C15 C16 1_555 1_555
O9 C17 1_555 1_555
C22 C23 1_555 1_555

#END
