
#######################################################################
#
#                 Cambridge Crystallographic Data Centre
#                                CCDC 
#
#######################################################################
#
# If this CIF has been generated from an entry in the Cambridge 
# Structural Database, then it will include bibliographic, chemical, 
# crystal, experimental, refinement or atomic coordinate data resulting 
# from the CCDC's data processing and validation procedures.
#
#######################################################################

data_COHTID
_symmetry_cell_setting           monoclinic
_symmetry_space_group_name_H-M   'C 2/c'
_symmetry_Int_Tables_number      15
_space_group_name_Hall           '-C 2yn'
loop_
_symmetry_equiv_pos_site_id
_symmetry_equiv_pos_as_xyz
1 x,y,z
2 1/2+x,1/2+y,z
3 -x,y,1/2-z
4 1/2-x,1/2+y,1/2-z
5 -x,-y,-z
6 1/2-x,1/2-y,-z
7 x,-y,1/2+z
8 1/2+x,1/2-y,1/2+z
_cell_length_a                   23.201(5)
_cell_length_b                   14.156(3)
_cell_length_c                   18.799(4)
_cell_angle_alpha                90.00
_cell_angle_beta                 117.79(3)
_cell_angle_gamma                90.00
_cell_volume                     5462.1
loop_
_atom_site_label
_atom_site_type_symbol
_atom_site_fract_x
_atom_site_fract_y
_atom_site_fract_z
Ni1 Ni 0.5000 0.43929(7) 0.7500
Ni2 Ni 0.2500 0.2500 0.5000
S1 S 0.36531(6) 0.41098(10) 0.57890(7)
C1 C 0.4790(3) 0.5990(4) 0.6360(3)
H1 H 0.4418 0.6087 0.6419
C2 C 0.4860(3) 0.6493(5) 0.5778(4)
C3 C 0.5425(4) 0.6372(7) 0.5715(5)
H2 H 0.5494 0.6719 0.5342
C4 C 0.5875(4) 0.5745(7) 0.6198(5)
H3 H 0.6252 0.5637 0.6152
C5 C 0.5765(3) 0.5271(6) 0.6756(4)
H4 H 0.6084 0.4853 0.7097
C6 C 0.4353(4) 0.7175(5) 0.5229(4)
C7 C 0.3162(3) 0.7503(4) 0.4594(3)
C8 C 0.3189(4) 0.8478(4) 0.4685(4)
H5 H 0.3581 0.8772 0.5025
C9 C 0.2627(4) 0.9016(5) 0.4263(4)
H6 H 0.2645 0.9669 0.4326
C10 C 0.2057(4) 0.8599(5) 0.3765(4)
H7 H 0.1688 0.8967 0.3478
C11 C 0.2020(3) 0.7636(5) 0.3680(4)
H8 H 0.1622 0.7351 0.3352
C12 C 0.2573(3) 0.7085(4) 0.4078(3)
C13 C 0.2260(3) 0.5677(4) 0.3240(3)
C14 C 0.2296(2) 0.4097(4) 0.3890(3)
H9 H 0.2292 0.4425 0.4316
C15 C 0.2256(3) 0.4609(4) 0.3236(3)
C16 C 0.2239(3) 0.4116(5) 0.2593(3)
H10 H 0.2210 0.4436 0.2146
C17 C 0.2263(3) 0.3153(5) 0.2622(3)
H11 H 0.2235 0.2810 0.2184
C18 C 0.2330(3) 0.2689(4) 0.3303(3)
H12 H 0.2370 0.2035 0.3328
C19 C 0.5625(5) 0.2640(8) 0.7070(6)
H13 H 0.5577 0.2331 0.6590
H14 H 0.5539 0.2197 0.7395
H15 H 0.6062 0.2874 0.7367
N1 N 0.5232(2) 0.5371(4) 0.6841(2)
N2 N 0.3724(3) 0.6943(4) 0.5045(3)
N3 N 0.2540(2) 0.6082(3) 0.3968(3)
N4 N 0.23397(19) 0.3156(3) 0.3933(2)
O1 O 0.4486(3) 0.7879(4) 0.4965(4)
O2 O 0.2020(3) 0.6109(3) 0.2608(2)
O3 O 0.5200(2) 0.3367(3) 0.6868(3)
O4 O 0.40248(16) 0.4397(2) 0.66421(18)
O5 O 0.30399(16) 0.3658(2) 0.56734(19)
O6 O 0.40396(17) 0.3420(3) 0.5595(2)
O7 O 0.35118(18) 0.4946(3) 0.5276(2)
O8 O 0.33326(18) 0.1827(3) 0.5116(2)
H20 H 0.357(3) 0.234(4) 0.520(3)
H21 H 0.271(3) 0.571(4) 0.430(3)
H22 H 0.340(2) 0.151(3) 0.472(2)
H23 H 0.364(2) 0.6349(15) 0.513(3)
H24 H 0.485(2) 0.333(6) 0.638(2)
Ni2G Ni 0.7500 0.2500 1.0000
S1B S 0.63469(6) 0.41098(10) 0.92110(7)
C1B C 0.5210(3) 0.5990(4) 0.8640(3)
H1B H 0.5582 0.6087 0.8581
C2B C 0.5140(3) 0.6493(5) 0.9222(4)
C3B C 0.4575(4) 0.6372(7) 0.9285(5)
H2B H 0.4506 0.6719 0.9658
C4B C 0.4125(4) 0.5745(7) 0.8802(5)
H3B H 0.3748 0.5637 0.8848
C5B C 0.4235(3) 0.5271(6) 0.8244(4)
H4B H 0.3916 0.4853 0.7903
C6B C 0.5647(4) 0.7175(5) 0.9771(4)
C7B C 0.6838(3) 0.7503(4) 1.0406(3)
C8B C 0.6811(4) 0.8478(4) 1.0315(4)
H5B H 0.6419 0.8772 0.9975
C9B C 0.7373(4) 0.9016(5) 1.0737(4)
H6B H 0.7355 0.9669 1.0674
C10B C 0.7943(4) 0.8599(5) 1.1235(4)
H7B H 0.8312 0.8967 1.1522
C11B C 0.7980(3) 0.7636(5) 1.1320(4)
H8B H 0.8378 0.7351 1.1648
C12B C 0.7427(3) 0.7085(4) 1.0922(3)
C13B C 0.7740(3) 0.5677(4) 1.1760(3)
C14B C 0.7704(2) 0.4097(4) 1.1110(3)
H9B H 0.7708 0.4425 1.0684
C15B C 0.7744(3) 0.4609(4) 1.1764(3)
C16B C 0.7761(3) 0.4116(5) 1.2407(3)
H10B H 0.7790 0.4436 1.2854
C17B C 0.7737(3) 0.3153(5) 1.2378(3)
H11B H 0.7765 0.2810 1.2816
C18B C 0.7670(3) 0.2689(4) 1.1697(3)
H12B H 0.7630 0.2035 1.1672
C19B C 0.4375(5) 0.2640(8) 0.7930(6)
H13B H 0.4423 0.2331 0.8410
H14B H 0.4461 0.2197 0.7605
H15B H 0.3938 0.2874 0.7633
N1B N 0.4768(2) 0.5371(4) 0.8159(2)
N2B N 0.6276(3) 0.6943(4) 0.9955(3)
N3B N 0.7460(2) 0.6082(3) 1.1032(3)
N4B N 0.76603(19) 0.3156(3) 1.1067(2)
N4E N 0.26603(19) 0.1844(3) 0.6067(2)
O1B O 0.5514(3) 0.7879(4) 1.0035(4)
O2B O 0.7980(3) 0.6109(3) 1.2392(2)
O3B O 0.4800(2) 0.3367(3) 0.8132(3)
O4B O 0.59752(16) 0.4397(2) 0.83579(18)
O5B O 0.69601(16) 0.3658(2) 0.93266(19)
O5E O 0.19601(16) 0.1342(2) 0.43266(19)
O6B O 0.59604(17) 0.3420(3) 0.9405(2)
O7B O 0.64882(18) 0.4946(3) 0.9724(2)
O8E O 0.16674(18) 0.3173(3) 0.4884(2)
H20E H 0.143(3) 0.266(4) 0.480(3)
H21B H 0.729(3) 0.571(4) 1.070(3)
H22E H 0.160(2) 0.349(3) 0.528(2)
H23B H 0.636(2) 0.6349(15) 0.987(3)
H24B H 0.515(2) 0.333(6) 0.862(2)
C20 C 0.5829(6) -0.0511(13) 0.5714(11)
H16 H 0.5600 -0.0839 0.5954
H17 H 0.5592 -0.0572 0.5140
H18 H 0.5867 0.0145 0.5858
O9 O 0.6444(3) -0.0897(5) 0.5989(4)
H19 H 0.6434 -0.1457 0.6095
loop_
_geom_bond_atom_site_label_1
_geom_bond_atom_site_label_2
_geom_bond_site_symmetry_1
_geom_bond_site_symmetry_2
Ni1 N1 1_555 1_555
Ni2 N4 1_555 1_555
S1 O4 1_555 1_555
C1 H1 1_555 1_555
C2 C1 1_555 1_555
C3 C2 1_555 1_555
H2 C3 1_555 1_555
C4 C3 1_555 1_555
H3 C4 1_555 1_555
C5 C4 1_555 1_555
H4 C5 1_555 1_555
C6 C2 1_555 1_555
C7 C8 1_555 1_555
C8 H5 1_555 1_555
C9 C8 1_555 1_555
H6 C9 1_555 1_555
C10 C9 1_555 1_555
H7 C10 1_555 1_555
C11 C10 1_555 1_555
H8 C11 1_555 1_555
C12 C7 1_555 1_555
C13 C15 1_555 1_555
C14 H9 1_555 1_555
C15 C14 1_555 1_555
C16 C15 1_555 1_555
H10 C16 1_555 1_555
C17 C16 1_555 1_555
H11 C17 1_555 1_555
C18 C17 1_555 1_555
H12 C18 1_555 1_555
C19 H13 1_555 1_555
H14 C19 1_555 1_555
H15 C19 1_555 1_555
C20 H16 1_555 1_555
H17 C20 1_555 1_555
H18 C20 1_555 1_555
N1 C1 1_555 1_555
N2 C6 1_555 1_555
N3 C12 1_555 1_555
N4 C14 1_555 1_555
O1 C6 1_555 1_555
O2 C13 1_555 1_555
O3 Ni1 1_555 1_555
O4 Ni1 1_555 1_555
O5 Ni2 1_555 1_555
O6 S1 1_555 1_555
O7 S1 1_555 1_555
O8 Ni2 1_555 1_555
O9 C20 1_555 1_555
H19 O9 1_555 1_555
H20 O8 1_555 1_555
H21 N3 1_555 1_555
H22 O8 1_555 1_555
H23 N2 1_555 1_555
H24 O3 1_555 1_555
Ni2G N4B 1_555 1_555
S1B O4B 1_555 1_555
C1B H1B 1_555 1_555
C2B C1B 1_555 1_555
C3B C2B 1_555 1_555
H2B C3B 1_555 1_555
C4B C3B 1_555 1_555
H3B C4B 1_555 1_555
C5B C4B 1_555 1_555
H4B C5B 1_555 1_555
C6B C2B 1_555 1_555
C7B C8B 1_555 1_555
C8B H5B 1_555 1_555
C9B C8B 1_555 1_555
H6B C9B 1_555 1_555
C10B C9B 1_555 1_555
H7B C10B 1_555 1_555
C11B C10B 1_555 1_555
H8B C11B 1_555 1_555
C12B C7B 1_555 1_555
C13B C15B 1_555 1_555
C14B H9B 1_555 1_555
C15B C14B 1_555 1_555
C16B C15B 1_555 1_555
H10B C16B 1_555 1_555
C17B C16B 1_555 1_555
H11B C17B 1_555 1_555
C18B C17B 1_555 1_555
H12B C18B 1_555 1_555
C19B H13B 1_555 1_555
H14B C19B 1_555 1_555
H15B C19B 1_555 1_555
N1B Ni1 1_555 1_555
N2B C6B 1_555 1_555
N3B C12B 1_555 1_555
N4B C14B 1_555 1_555
N4E Ni2 1_555 1_555
O1B C6B 1_555 1_555
O2B C13B 1_555 1_555
O3B Ni1 1_555 1_555
O4B Ni1 1_555 1_555
O5B Ni2G 1_555 1_555
O5E Ni2 1_555 1_555
O6B S1B 1_555 1_555
O7B S1B 1_555 1_555
O8E Ni2 1_555 1_555
H20E O8E 1_555 1_555
H21B N3B 1_555 1_555
H22E O8E 1_555 1_555
H23B N2B 1_555 1_555
H24B O3B 1_555 1_555
S1 O5 1_555 1_555
C5 N1 1_555 1_555
C7 N2 1_555 1_555
C11 C12 1_555 1_555
C13 N3 1_555 1_555
C18 N4 1_555 1_555
C19 O3 1_555 1_555
S1B O5B 1_555 1_555
C1B N1B 1_555 1_555
C5B N1B 1_555 1_555
C7B N2B 1_555 1_555
C11B C12B 1_555 1_555
C13B N3B 1_555 1_555
C18B N4B 1_555 1_555
C19B O3B 1_555 1_555

#END
