
#######################################################################
#
#                 Cambridge Crystallographic Data Centre
#                                CCDC 
#
#######################################################################
#
# If this CIF has been generated from an entry in the Cambridge 
# Structural Database, then it will include bibliographic, chemical, 
# crystal, experimental, refinement or atomic coordinate data resulting 
# from the CCDC's data processing and validation procedures.
#
#######################################################################

data_COHTOJ
_symmetry_cell_setting           monoclinic
_symmetry_space_group_name_H-M   'C 2/c'
_symmetry_Int_Tables_number      15
_space_group_name_Hall           '-C 2yn'
loop_
_symmetry_equiv_pos_site_id
_symmetry_equiv_pos_as_xyz
1 x,y,z
2 1/2+x,1/2+y,z
3 -x,y,1/2-z
4 1/2-x,1/2+y,1/2-z
5 -x,-y,-z
6 1/2-x,1/2-y,-z
7 x,-y,1/2+z
8 1/2+x,1/2-y,1/2+z
_cell_length_a                   23.951(5)
_cell_length_b                   13.997(3)
_cell_length_c                   18.913(4)
_cell_angle_alpha                90.00
_cell_angle_beta                 117.85(3)
_cell_angle_gamma                90.00
_cell_volume                     5606.05
loop_
_atom_site_label
_atom_site_type_symbol
_atom_site_fract_x
_atom_site_fract_y
_atom_site_fract_z
Co1 Co 1.0000 -0.05906(8) 0.7500
Co2 Co 0.7500 -0.2500 0.5000
S1 S 0.86956(7) -0.08899(10) 0.57776(7)
O1 O 0.9479(3) 0.3035(4) 0.5046(4)
O2 O 0.7057(3) 0.1183(4) 0.2622(3)
O3 O 0.90542(17) -0.0601(3) 0.66314(18)
O4 O 0.9083(2) -0.1550(3) 0.5583(2)
O5 O 0.85316(19) -0.0041(3) 0.5277(2)
O6 O 0.81072(18) -0.1369(3) 0.56709(19)
O7 O 0.8199(2) -0.3296(3) 0.4911(3)
O8 O 1.0190(2) -0.1657(4) 0.6851(3)
N1 N 1.0238(2) 0.0430(4) 0.6838(3)
N2 N 0.8743(3) 0.2009(4) 0.5072(3)
N3 N 0.7600(3) 0.1138(4) 0.3979(3)
N4 N 0.7321(2) -0.1821(3) 0.3904(2)
N5 N 0.9107(4) -0.3992(6) 0.5114(5)
C1 C 0.9800(3) 0.1049(5) 0.6356(3)
H1 H 0.9435 0.1110 0.6410
C2 C 0.9851(3) 0.1607(5) 0.5783(4)
C3 C 1.0404(4) 0.1520(7) 0.5720(4)
H2 H 1.0465 0.1897 0.5358
C4 C 1.0868(4) 0.0866(8) 0.6201(5)
H3 H 1.1232 0.0777 0.6150
C5 C 1.0764(3) 0.0356(6) 0.6757(4)
H4 H 1.1077 -0.0062 0.7094
C6 C 0.9349(4) 0.2294(5) 0.5273(4)
C7 C 0.8196(3) 0.2578(4) 0.4634(3)
C8 C 0.8201(3) 0.3557(5) 0.4745(4)
H5 H 0.8575 0.3854 0.5102
C9 C 0.7659(4) 0.4106(5) 0.4334(4)
H6 H 0.7675 0.4765 0.4408
C10 C 0.7104(4) 0.3675(5) 0.3821(4)
H7 H 0.6741 0.4040 0.3542
C11 C 0.7081(3) 0.2700(5) 0.3718(3)
H8 H 0.6698 0.2410 0.3384
C12 C 0.7622(3) 0.2141(4) 0.4106(3)
C13 C 0.7312(3) 0.0724(5) 0.3245(4)
C14 C 0.7316(3) -0.0871(4) 0.3881(3)
H9 H 0.7333 -0.0541 0.4317
C15 C 0.7286(3) -0.0344(4) 0.3239(3)
C16 C 0.7236(3) -0.0841(5) 0.2586(4)
H10 H 0.7202 -0.0518 0.2137
C17 C 0.7238(4) -0.1815(5) 0.2606(4)
H11 H 0.7208 -0.2161 0.2170
C18 C 0.7283(3) -0.2284(4) 0.3262(3)
H12 H 0.7287 -0.2948 0.3265
C19 C 0.8716(4) -0.3550(7) 0.5328(5)
H13 H 0.8872 -0.3429 0.5871
C20 C 0.8867(7) -0.4167(8) 0.4208(6)
H14 H 0.9158 -0.4575 0.4135
H15 H 0.8834 -0.3568 0.3945
H16 H 0.8459 -0.4467 0.3983
C21 C 0.9732(5) -0.4275(9) 0.5735(7)
H17 H 0.9751 -0.4209 0.6251
H18 H 1.0046 -0.3874 0.5707
H19 H 0.9810 -0.4929 0.5654
C22 C 1.0657(6) -0.2288(10) 0.7009(8)
H20 H 1.0567 -0.2643 0.6533
H21 H 1.0688 -0.2719 0.7420
H22 H 1.1050 -0.1953 0.7185
H23 H 0.855(6) 0.155(8) 0.515(9)
H24 H 0.777(8) 0.079(10) 0.427(9)
H25 H 0.985(7) -0.180(11) 0.631(8)
Co2G Co 1.2500 -0.2500 1.0000
S1B S 1.13044(7) -0.08899(10) 0.92224(7)
O1B O 1.0521(3) 0.3035(4) 0.9954(4)
O2B O 1.2943(3) 0.1183(4) 1.2378(3)
O3B O 1.09458(17) -0.0601(3) 0.83686(18)
O4B O 1.0917(2) -0.1550(3) 0.9417(2)
O5B O 1.14684(19) -0.0041(3) 0.9723(2)
O6B O 1.18928(18) -0.1369(3) 0.93291(19)
O6E O 0.68928(18) -0.3631(3) 0.43291(19)
O7E O 0.6801(2) -0.1704(3) 0.5089(3)
O8B O 0.9810(2) -0.1657(4) 0.8149(3)
N1B N 0.9762(2) 0.0430(4) 0.8162(3)
N2B N 1.1257(3) 0.2009(4) 0.9928(3)
N3B N 1.2400(3) 0.1138(4) 1.1021(3)
N4B N 1.2679(2) -0.1821(3) 1.1096(2)
N4E N 0.7679(2) -0.3179(3) 0.6096(2)
N5E N 0.5893(4) -0.1008(6) 0.4886(5)
C1B C 1.0200(3) 0.1049(5) 0.8644(3)
H1B H 1.0565 0.1110 0.8590
C2B C 1.0149(3) 0.1607(5) 0.9217(4)
C3B C 0.9596(4) 0.1520(7) 0.9280(4)
H2B H 0.9535 0.1897 0.9642
C4B C 0.9132(4) 0.0866(8) 0.8799(5)
H3B H 0.8768 0.0777 0.8850
C5B C 0.9236(3) 0.0356(6) 0.8243(4)
H4B H 0.8923 -0.0062 0.7906
C6B C 1.0651(4) 0.2294(5) 0.9727(4)
C7B C 1.1804(3) 0.2578(4) 1.0366(3)
C8B C 1.1799(3) 0.3557(5) 1.0255(4)
H5B H 1.1425 0.3854 0.9898
C9B C 1.2341(4) 0.4106(5) 1.0666(4)
H6B H 1.2325 0.4765 1.0592
C10B C 1.2896(4) 0.3675(5) 1.1179(4)
H7B H 1.3259 0.4040 1.1458
C11B C 1.2919(3) 0.2700(5) 1.1282(3)
H8B H 1.3302 0.2410 1.1616
C12B C 1.2378(3) 0.2141(4) 1.0894(3)
C13B C 1.2688(3) 0.0724(5) 1.1755(4)
C14B C 1.2684(3) -0.0871(4) 1.1119(3)
H9B H 1.2667 -0.0541 1.0683
C15B C 1.2714(3) -0.0344(4) 1.1761(3)
C16B C 1.2764(3) -0.0841(5) 1.2414(4)
H10B H 1.2798 -0.0518 1.2863
C17B C 1.2762(4) -0.1815(5) 1.2394(4)
H11B H 1.2792 -0.2161 1.2830
C18B C 1.2717(3) -0.2284(4) 1.1738(3)
H12B H 1.2713 -0.2948 1.1735
C19E C 0.6284(4) -0.1450(7) 0.4672(5)
H13E H 0.6128 -0.1571 0.4129
C20E C 0.6133(7) -0.0833(8) 0.5792(6)
H14E H 0.5842 -0.0425 0.5865
H15E H 0.6166 -0.1432 0.6055
H16E H 0.6541 -0.0533 0.6017
C21E C 0.5268(5) -0.0725(9) 0.4265(7)
H17E H 0.5249 -0.0791 0.3749
H18E H 0.4954 -0.1126 0.4293
H19E H 0.5190 -0.0071 0.4346
C22B C 0.9343(6) -0.2288(10) 0.7991(8)
H20B H 0.9433 -0.2643 0.8467
H21B H 0.9312 -0.2719 0.7580
H22B H 0.8950 -0.1953 0.7815
H23B H 1.145(6) 0.155(8) 0.985(9)
H24B H 1.223(8) 0.079(10) 1.073(9)
H25B H 1.015(7) -0.180(11) 0.869(8)
O9 O 1.0000 -0.5776(15) 0.7500
loop_
_geom_bond_atom_site_label_1
_geom_bond_atom_site_label_2
_geom_bond_site_symmetry_1
_geom_bond_site_symmetry_2
Co1 O3 1_555 1_555
Co2 O6 1_555 1_555
S1 O3 1_555 1_555
O1 C6 1_555 1_555
O2 C13 1_555 1_555
O4 S1 1_555 1_555
O5 S1 1_555 1_555
O6 S1 1_555 1_555
O7 Co2 1_555 1_555
O8 Co1 1_555 1_555
N1 Co1 1_555 1_555
N2 C6 1_555 1_555
N3 C12 1_555 1_555
N4 Co2 1_555 1_555
N5 C19 1_555 1_555
C1 N1 1_555 1_555
H1 C1 1_555 1_555
C2 C1 1_555 1_555
C3 C2 1_555 1_555
H2 C3 1_555 1_555
C4 C3 1_555 1_555
H3 C4 1_555 1_555
C5 N1 1_555 1_555
H4 C5 1_555 1_555
C6 C2 1_555 1_555
C7 N2 1_555 1_555
C8 C7 1_555 1_555
H5 C8 1_555 1_555
C9 C8 1_555 1_555
H6 C9 1_555 1_555
C10 C9 1_555 1_555
H7 C10 1_555 1_555
C11 C10 1_555 1_555
H8 C11 1_555 1_555
C12 C7 1_555 1_555
C13 N3 1_555 1_555
C14 N4 1_555 1_555
H9 C14 1_555 1_555
C15 C13 1_555 1_555
C16 C15 1_555 1_555
H10 C16 1_555 1_555
C17 C16 1_555 1_555
H11 C17 1_555 1_555
C18 N4 1_555 1_555
H12 C18 1_555 1_555
C19 O7 1_555 1_555
H13 C19 1_555 1_555
C20 N5 1_555 1_555
H14 C20 1_555 1_555
H15 C20 1_555 1_555
H16 C20 1_555 1_555
C21 N5 1_555 1_555
H17 C21 1_555 1_555
H18 C21 1_555 1_555
H19 C21 1_555 1_555
C22 O8 1_555 1_555
H20 C22 1_555 1_555
H21 C22 1_555 1_555
H22 C22 1_555 1_555
H23 N2 1_555 1_555
H24 N3 1_555 1_555
H25 O8 1_555 1_555
Co2G O6B 1_555 1_555
S1B O3B 1_555 1_555
O1B C6B 1_555 1_555
O2B C13B 1_555 1_555
O3B Co1 1_555 1_555
O4B S1B 1_555 1_555
O5B S1B 1_555 1_555
O6B S1B 1_555 1_555
O6E Co2 1_555 1_555
O7E Co2 1_555 1_555
O8B Co1 1_555 1_555
N1B Co1 1_555 1_555
N2B C6B 1_555 1_555
N3B C12B 1_555 1_555
N4B Co2G 1_555 1_555
N4E Co2 1_555 1_555
N5E C19E 1_555 1_555
C1B N1B 1_555 1_555
H1B C1B 1_555 1_555
C2B C1B 1_555 1_555
C3B C2B 1_555 1_555
H2B C3B 1_555 1_555
C4B C3B 1_555 1_555
H3B C4B 1_555 1_555
C5B N1B 1_555 1_555
H4B C5B 1_555 1_555
C6B C2B 1_555 1_555
C7B N2B 1_555 1_555
C8B C7B 1_555 1_555
H5B C8B 1_555 1_555
C9B C8B 1_555 1_555
H6B C9B 1_555 1_555
C10B C9B 1_555 1_555
H7B C10B 1_555 1_555
C11B C10B 1_555 1_555
H8B C11B 1_555 1_555
C12B C7B 1_555 1_555
C13B N3B 1_555 1_555
C14B N4B 1_555 1_555
H9B C14B 1_555 1_555
C15B C13B 1_555 1_555
C16B C15B 1_555 1_555
H10B C16B 1_555 1_555
C17B C16B 1_555 1_555
H11B C17B 1_555 1_555
C18B N4B 1_555 1_555
H12B C18B 1_555 1_555
C19E O7E 1_555 1_555
H13E C19E 1_555 1_555
C20E N5E 1_555 1_555
H14E C20E 1_555 1_555
H15E C20E 1_555 1_555
H16E C20E 1_555 1_555
C21E N5E 1_555 1_555
H17E C21E 1_555 1_555
H18E C21E 1_555 1_555
H19E C21E 1_555 1_555
C22B O8B 1_555 1_555
H20B C22B 1_555 1_555
H21B C22B 1_555 1_555
H22B C22B 1_555 1_555
H23B N2B 1_555 1_555
H24B N3B 1_555 1_555
H25B O8B 1_555 1_555
C4 C5 1_555 1_555
C11 C12 1_555 1_555
C14 C15 1_555 1_555
C17 C18 1_555 1_555
C4B C5B 1_555 1_555
C11B C12B 1_555 1_555
C14B C15B 1_555 1_555
C17B C18B 1_555 1_555

#END
