
#######################################################################
#
#                 Cambridge Crystallographic Data Centre
#                                CCDC 
#
#######################################################################
#
# If this CIF has been generated from an entry in the Cambridge 
# Structural Database, then it will include bibliographic, chemical, 
# crystal, experimental, refinement or atomic coordinate data resulting 
# from the CCDC's data processing and validation procedures.
#
#######################################################################

data_COHVOM
_symmetry_cell_setting           monoclinic
_symmetry_space_group_name_H-M   'C c'
_symmetry_Int_Tables_number      9
_space_group_name_Hall           'C -2yc'
loop_
_symmetry_equiv_pos_site_id
_symmetry_equiv_pos_as_xyz
1 x,y,z
2 x,-y,1/2+z
3 1/2+x,1/2+y,z
4 1/2+x,1/2-y,1/2+z
_cell_length_a                   20.698(2)
_cell_length_b                   10.7386(7)
_cell_length_c                   7.8871(6)
_cell_angle_alpha                90
_cell_angle_beta                 98.440(6)
_cell_angle_gamma                90
_cell_volume                     1734.06
loop_
_atom_site_label
_atom_site_type_symbol
_atom_site_fract_x
_atom_site_fract_y
_atom_site_fract_z
Zn1 Zn 0.15199(3) 0.29431(5) -0.82868(6)
Br1 Br 0.13454(4) 0.09530(6) -0.95613(8)
Br2 Br 0.23062(3) 0.42658(6) -0.91921(8)
C1 C 0.0089(3) 0.3253(5) -0.9587(10)
H1 H 0.0099 0.2388 -0.9531
C2 C -0.0489(3) 0.3828(6) -1.0172(11)
H2 H -0.0860 0.3351 -1.0517
C3 C 0.0606(3) 0.5106(6) -0.9126(10)
H3 H 0.0981 0.5556 -0.8720
C4 C 0.0041(3) 0.5762(5) -0.9736(11)
H4 H 0.0045 0.6627 -0.9792
C5 C -0.0527(2) 0.5106(4) -1.0257(7)
C6 C -0.1153(2) 0.5753(4) -1.0917(7)
C7 C -0.1190(3) 0.7015(5) -1.1208(9)
H5 H -0.0819 0.7509 -1.0962
C8 C -0.1789(3) 0.7548(5) -1.1877(9)
H6 H -0.1817 0.8402 -1.2068
C9 C -0.1723(3) 0.5060(5) -1.1325(10)
H7 H -0.1715 0.4203 -1.1152
C10 C -0.2305(3) 0.5644(5) -1.1990(9)
H8 H -0.2685 0.5178 -1.2255
C11 C -0.2935(2) 0.7425(5) -1.3100(7)
H9 H -0.2968 0.8265 -1.2669
H10 H -0.3305 0.6954 -1.2821
C12 C -0.2962(3) 0.7467(5) -1.5002(7)
N1 N 0.0639(2) 0.3875(4) -0.9093(6)
N2 N -0.23199(19) 0.6844(4) -1.2245(5)
O1 O -0.35149(18) 0.7773(4) -1.5795(5)
O2 O -0.2468(2) 0.7246(4) -1.5655(6)
Zn1B Zn -0.34801(3) 0.79431(5) -1.82868(6)
O1B O 0.14851(18) 0.2773(4) -0.5795(5)
O3 O 0.0160(3) -0.1234(6) -0.0979(10)
O4 O -0.1291(3) -0.1293(8) -0.6400(12)
O5 O -0.0585(4) -0.0007(9) -0.3643(11)
loop_
_geom_bond_atom_site_label_1
_geom_bond_atom_site_label_2
_geom_bond_site_symmetry_1
_geom_bond_site_symmetry_2
Zn1 Br1 1_555 1_555
Br2 Zn1 1_555 1_555
C1 H1 1_555 1_555
C2 C1 1_555 1_555
H2 C2 1_555 1_555
C3 H3 1_555 1_555
C4 C3 1_555 1_555
H4 C4 1_555 1_555
C5 C2 1_555 1_555
C6 C5 1_555 1_555
C7 C6 1_555 1_555
H5 C7 1_555 1_555
C8 C7 1_555 1_555
H6 C8 1_555 1_555
C9 C6 1_555 1_555
H7 C9 1_555 1_555
C10 C9 1_555 1_555
H8 C10 1_555 1_555
C11 H9 1_555 1_555
H10 C11 1_555 1_555
C12 C11 1_555 1_555
N1 Zn1 1_555 1_555
N2 C8 1_555 1_555
O1 C12 1_555 1_555
O2 C12 1_555 1_555
Zn1B O1 1_555 1_555
O1B Zn1 1_555 1_555
C1 N1 1_555 1_555
C3 N1 1_555 1_555
C4 C5 1_555 1_555
C10 N2 1_555 1_555
C11 N2 1_555 1_555

#END
