
#######################################################################
#
#                 Cambridge Crystallographic Data Centre
#                                CCDC 
#
#######################################################################
#
# If this CIF has been generated from an entry in the Cambridge 
# Structural Database, then it will include bibliographic, chemical, 
# crystal, experimental, refinement or atomic coordinate data resulting 
# from the CCDC's data processing and validation procedures.
#
#######################################################################

data_COHVOM01
_symmetry_cell_setting           monoclinic
_symmetry_space_group_name_H-M   'C c'
_symmetry_Int_Tables_number      9
_space_group_name_Hall           'C -2yc'
loop_
_symmetry_equiv_pos_site_id
_symmetry_equiv_pos_as_xyz
1 x,y,z
2 x,-y,1/2+z
3 1/2+x,1/2+y,z
4 1/2+x,1/2-y,1/2+z
_cell_length_a                   20.694(2)
_cell_length_b                   10.7472(8)
_cell_length_c                   7.8883(6)
_cell_angle_alpha                90
_cell_angle_beta                 98.456(7)
_cell_angle_gamma                90
_cell_volume                     1735.31
loop_
_atom_site_label
_atom_site_type_symbol
_atom_site_fract_x
_atom_site_fract_y
_atom_site_fract_z
Zn1 Zn 0.24236(3) 0.29437(5) 1.03314(6)
Br1 Br 0.16370(4) 0.42662(6) 1.12365(8)
Br2 Br 0.25986(4) 0.09542(6) 1.16049(9)
C1 C 0.3853(3) 0.3252(6) 1.1640(10)
H1 H 0.3841 0.2387 1.1602
C2 C 0.4432(3) 0.3827(6) 1.2214(11)
H2 H 0.4804 0.3351 1.2551
C3 C 0.3340(3) 0.5103(6) 1.1162(10)
H3 H 0.2964 0.5551 1.0757
C4 C 0.3906(3) 0.5762(5) 1.1763(11)
H4 H 0.3903 0.6627 1.1802
C5 C 0.4470(2) 0.5108(5) 1.2298(7)
C6 C 0.5099(2) 0.5756(4) 1.2957(7)
C7 C 0.5133(3) 0.7018(5) 1.3247(9)
H5 H 0.4763 0.7513 1.2998
C8 C 0.5734(3) 0.7544(5) 1.3921(9)
H6 H 0.5762 0.8397 1.4117
C9 C 0.5668(3) 0.5059(5) 1.3375(10)
H7 H 0.5658 0.4201 1.3214
C10 C 0.6250(3) 0.5641(5) 1.4030(9)
H8 H 0.6630 0.5175 1.4287
C11 C 0.6881(2) 0.7424(5) 1.5143(7)
H9 H 0.6915 0.8264 1.4712
H10 H 0.7252 0.6952 1.4868
C12 C 0.6903(3) 0.7465(5) 1.7045(7)
N1 N 0.3305(2) 0.3877(4) 1.1133(6)
N2 N 0.6265(2) 0.6844(4) 1.4287(5)
O1 O 0.74584(18) 0.7776(4) 1.7836(5)
O2 O 0.6413(2) 0.7243(4) 1.7696(6)
Zn1B Zn 0.74236(3) 0.79437(5) 2.03314(6)
O1B O 0.24584(18) 0.2776(4) 0.7836(5)
O3 O 0.3785(3) -0.1233(6) 0.3021(9)
O4 O 0.0232(3) 0.3712(7) -0.1552(12)
O5 O 0.4523(4) -0.0006(8) 0.5684(11)
loop_
_geom_bond_atom_site_label_1
_geom_bond_atom_site_label_2
_geom_bond_site_symmetry_1
_geom_bond_site_symmetry_2
Zn1 Br1 1_555 1_555
Br2 Zn1 1_555 1_555
C1 H1 1_555 1_555
C2 C1 1_555 1_555
H2 C2 1_555 1_555
C3 H3 1_555 1_555
C4 C3 1_555 1_555
H4 C4 1_555 1_555
C5 C2 1_555 1_555
C6 C5 1_555 1_555
C7 C6 1_555 1_555
H5 C7 1_555 1_555
C8 C7 1_555 1_555
H6 C8 1_555 1_555
C9 C6 1_555 1_555
H7 C9 1_555 1_555
C10 C9 1_555 1_555
H8 C10 1_555 1_555
C11 H9 1_555 1_555
H10 C11 1_555 1_555
C12 C11 1_555 1_555
N1 Zn1 1_555 1_555
N2 C8 1_555 1_555
O1 C12 1_555 1_555
O2 C12 1_555 1_555
Zn1B O1 1_555 1_555
O1B Zn1 1_555 1_555
C1 N1 1_555 1_555
C3 N1 1_555 1_555
C4 C5 1_555 1_555
C10 N2 1_555 1_555
C11 N2 1_555 1_555

#END
