
#######################################################################
#
#                 Cambridge Crystallographic Data Centre
#                                CCDC 
#
#######################################################################
#
# If this CIF has been generated from an entry in the Cambridge 
# Structural Database, then it will include bibliographic, chemical, 
# crystal, experimental, refinement or atomic coordinate data resulting 
# from the CCDC's data processing and validation procedures.
#
#######################################################################

data_COHZZN
_symmetry_cell_setting           monoclinic
_symmetry_space_group_name_H-M   'P 1 1 21/b'
_symmetry_Int_Tables_number      14
_space_group_name_Hall           '-P 2bc'
loop_
_symmetry_equiv_pos_site_id
_symmetry_equiv_pos_as_xyz
1 x,y,z
2 -x,1/2-y,1/2+z
3 -x,-y,-z
4 x,1/2+y,1/2-z
_cell_length_a                   11.63(2)
_cell_length_b                   11.78(2)
_cell_length_c                   11.99(2)
_cell_angle_alpha                90
_cell_angle_beta                 90
_cell_angle_gamma                130.5(5)
_cell_volume                     1249.08
loop_
_atom_site_label
_atom_site_type_symbol
_atom_site_fract_x
_atom_site_fract_y
_atom_site_fract_z
Zn1 Zn 0.39330 0.22490 0.14150
O1 O 0.46300 0.42700 0.11200
O2 O 0.32800 0.01200 0.15400
O3 O 0.62100 0.31400 0.16700
O4 O 0.36900 0.25300 0.31400
N1 N 0.37900 0.15700 -0.03300
N2 N 0.31800 0.00900 -0.03900
N3 N 0.15200 0.13400 0.15200
N4 N 0.13300 0.17300 0.26200
C1 C 0.29200 -0.06000 0.05900
C2 C 0.25200 0.23600 0.33800
C3 C 0.22700 -0.21500 0.05400
C3C C 0.22700 0.28500 0.44600
C2C C 0.25200 -0.26400 0.16200
C1C C 0.29200 0.44000 0.44100
O4C O 0.36900 -0.24700 0.18600
N4C N 0.13300 -0.32700 0.23800
O2C O 0.32800 0.51200 0.34600
N2C N 0.31800 0.50900 0.53900
Zn1C Zn 0.39330 -0.27510 0.35850
N3C N 0.15200 -0.36600 0.34800
Zn1C_2 Zn 0.39330 0.72490 0.35850
N1C N 0.37900 0.65700 0.53300
O1C O 0.46300 -0.07300 0.38800
O2C_2 O 0.32800 -0.48800 0.34600
O3C O 0.62100 -0.18600 0.33300
N1C_2 N 0.37900 -0.34300 0.53300
S1 S 0.85070 0.22640 0.29300
O6 O 0.97100 0.31400 0.20500
O7 O 0.69400 0.14800 0.23600
O8 O 0.86400 0.11800 0.34000
O9 O 0.86000 0.32700 0.38400
O5 O 0.22800 0.44100 0.07200
loop_
_geom_bond_atom_site_label_1
_geom_bond_atom_site_label_2
_geom_bond_site_symmetry_1
_geom_bond_site_symmetry_2
Zn1 O1 1_555 1_555
S1 O6 1_555 1_555
O2 Zn1 1_555 1_555
O3 Zn1 1_555 1_555
O4 Zn1 1_555 1_555
O7 S1 1_555 1_555
O8 S1 1_555 1_555
O9 S1 1_555 1_555
N1 Zn1 1_555 1_555
N2 N1 1_555 1_555
N3 Zn1 1_555 1_555
N4 N3 1_555 1_555
C1 O2 1_555 1_555
C2 O4 1_555 1_555
C3 C1 1_555 1_555
C3C C2 1_555 1_555
C2C C3 1_555 1_555
C1C C3C 1_555 1_555
O4C C2C 1_555 1_555
N4C C2C 1_555 1_555
O2C C1C 1_555 1_555
N2C C1C 1_555 1_555
Zn1C O4C 1_555 1_555
N3C N4C 1_555 1_555
Zn1C_2 O2C 1_555 1_555
N1C N2C 1_555 1_555
O1C Zn1C 1_555 1_555
O2C_2 Zn1C 1_555 1_555
O3C Zn1C 1_555 1_555
N1C_2 Zn1C 1_555 1_555
N2 C1 1_555 1_555
N4 C2 1_555 1_555
Zn1C N3C 1_555 1_555
Zn1C_2 N1C 1_555 1_555

#END
