
#######################################################################
#
#                 Cambridge Crystallographic Data Centre
#                                CCDC 
#
#######################################################################
#
# If this CIF has been generated from an entry in the Cambridge 
# Structural Database, then it will include bibliographic, chemical, 
# crystal, experimental, refinement or atomic coordinate data resulting 
# from the CCDC's data processing and validation procedures.
#
#######################################################################

data_COJGAJ03
_symmetry_cell_setting           monoclinic
_symmetry_space_group_name_H-M   'P 21/c'
_symmetry_Int_Tables_number      14
_space_group_name_Hall           '-P 2ybc'
loop_
_symmetry_equiv_pos_site_id
_symmetry_equiv_pos_as_xyz
1 x,y,z
2 -x,1/2+y,1/2-z
3 -x,-y,-z
4 x,1/2-y,1/2+z
_cell_length_a                   11.2453(11)
_cell_length_b                   7.1554(7)
_cell_length_c                   17.3387(16)
_cell_angle_alpha                90
_cell_angle_beta                 101.1060(10)
_cell_angle_gamma                90
_cell_volume                     1369.02
loop_
_atom_site_label
_atom_site_type_symbol
_atom_site_fract_x
_atom_site_fract_y
_atom_site_fract_z
Cu1 Cu 0.96874(2) 0.68095(4) 0.128521(14)
O1 O 0.87304(13) 0.5971(2) 0.20647(9)
O2 O 1.06480(14) 0.5457(3) 0.21986(9)
O3 O 0.97156(15) 0.4679(2) 0.31889(9)
N1 N 0.83443(16) 0.7603(3) 0.04449(10)
N2 N 1.08875(16) 0.6869(2) 0.05906(10)
N3 N 0.95466(17) 0.8088(3) -0.05174(10)
H1 H 0.9528 0.8558 -0.0976
C1 C 0.9699(2) 0.5332(3) 0.25128(12)
C2 C 0.7217(2) 0.7661(3) 0.06218(14)
H2 H 0.7135 0.7341 0.1129
C3 C 0.6208(2) 0.8160(4) 0.00992(15)
H3 H 0.5455 0.8172 0.0246
C4 C 0.6316(2) 0.8651(4) -0.06572(15)
H4 H 0.5637 0.9001 -0.1025
C5 C 0.7434(2) 0.8615(4) -0.08550(14)
H5 H 0.7524 0.8937 -0.1360
C6 C 0.8442(2) 0.8092(3) -0.02932(12)
C7 C 1.0676(2) 0.7485(3) -0.01580(13)
C8 C 1.1594(2) 0.7546(3) -0.05994(14)
H6 H 1.1425 0.7968 -0.1116
C9 C 1.2732(2) 0.6985(3) -0.02699(15)
H7 H 1.3348 0.7021 -0.0558
C10 C 1.2968(2) 0.6351(3) 0.05100(15)
H8 H 1.3741 0.5968 0.0750
C11 C 1.2039(2) 0.6312(3) 0.09040(14)
H9 H 1.2196 0.5879 0.1419
Cu1A Cu 1.03126(2) 0.18095(4) 0.371479(14)
O3A O 1.02844(15) 0.9679(2) 0.18111(9)
O4 O 0.69171(17) 0.0455(3) 0.20438(11)
H10 H 0.6706 0.1561 0.2068
H11 H 0.7650 0.0321 0.2228
O5 O 0.65236(18) 0.4323(3) 0.21899(13)
H12 H 0.6066 0.5232 0.2073
H13 H 0.7237 0.4605 0.2183
O6 O 0.52628(19) 0.7632(3) 0.19878(14)
H14 H 0.5789 0.8459 0.2034
H15 H 0.4675 0.7968 0.2179
loop_
_geom_bond_atom_site_label_1
_geom_bond_atom_site_label_2
_geom_bond_site_symmetry_1
_geom_bond_site_symmetry_2
Cu1 O1 1_555 1_555
O1 C1 1_555 1_555
O2 Cu1 1_555 1_555
O3 C1 1_555 1_555
N1 Cu1 1_555 1_555
N2 Cu1 1_555 1_555
N3 H1 1_555 1_555
C1 O2 1_555 1_555
C2 N1 1_555 1_555
H2 C2 1_555 1_555
C3 C2 1_555 1_555
H3 C3 1_555 1_555
C4 C3 1_555 1_555
H4 C4 1_555 1_555
C5 C4 1_555 1_555
H5 C5 1_555 1_555
C6 N1 1_555 1_555
C7 N2 1_555 1_555
C8 C7 1_555 1_555
H6 C8 1_555 1_555
C9 C8 1_555 1_555
H7 C9 1_555 1_555
C10 C9 1_555 1_555
H8 C10 1_555 1_555
C11 N2 1_555 1_555
H9 C11 1_555 1_555
O4 H10 1_555 1_555
H11 O4 1_555 1_555
O5 H12 1_555 1_555
H13 O5 1_555 1_555
O6 H14 1_555 1_555
H15 O6 1_555 1_555
Cu1A O3 1_555 1_555
O3A Cu1 1_555 1_555
N3 C6 1_555 1_555
N3 C7 1_555 1_555
C5 C6 1_555 1_555
C10 C11 1_555 1_555

#END
