
#######################################################################
#
#                 Cambridge Crystallographic Data Centre
#                                CCDC 
#
#######################################################################
#
# If this CIF has been generated from an entry in the Cambridge 
# Structural Database, then it will include bibliographic, chemical, 
# crystal, experimental, refinement or atomic coordinate data resulting 
# from the CCDC's data processing and validation procedures.
#
#######################################################################

data_COJGAJ01
_symmetry_cell_setting           monoclinic
_symmetry_space_group_name_H-M   'P 21/c'
_symmetry_Int_Tables_number      14
_space_group_name_Hall           '-P 2ybc'
loop_
_symmetry_equiv_pos_site_id
_symmetry_equiv_pos_as_xyz
1 x,y,z
2 x,1/2-y,1/2+z
3 -x,-y,-z
4 -x,1/2+y,1/2-z
_cell_length_a                   11.2088(5)
_cell_length_b                   7.1069(3)
_cell_length_c                   17.3393(8)
_cell_angle_alpha                90
_cell_angle_beta                 100.891(1)
_cell_angle_gamma                90
_cell_volume                     1356.37
loop_
_atom_site_label
_atom_site_type_symbol
_atom_site_fract_x
_atom_site_fract_y
_atom_site_fract_z
Cu1 Cu -0.46859(2) 0.17889(3) 0.371920(12)
O1 O -0.37242(12) 0.0951(2) 0.29329(8)
O2 O -0.56503(12) 0.0421(2) 0.28097(8)
O3 O -0.47152(13) -0.03384(19) 0.18113(7)
N1 N -0.33377(14) 0.2600(2) 0.45546(9)
N2 N -0.58948(15) 0.1856(2) 0.44165(9)
N3 N -0.45472(16) 0.3088(2) 0.55215(10)
H7 H -0.454(2) 0.358(3) 0.5901(15)
C1 C -0.22126(18) 0.2649(3) 0.43734(12)
H8 H -0.2133 0.2311 0.3862
C2 C -0.11900(19) 0.3162(3) 0.48907(13)
H9 H -0.0429 0.3183 0.4738
C3 C -0.13038(19) 0.3654(3) 0.56541(13)
H10 H -0.0616 0.4004 0.6026
C4 C -0.24240(19) 0.3622(3) 0.58547(12)
H11 H -0.2514 0.3954 0.6365
C5 C -0.34395(18) 0.3089(3) 0.52933(11)
C6 C -0.56806(17) 0.2484(3) 0.51630(11)
C7 C -0.66049(19) 0.2555(3) 0.56057(12)
H12 H -0.6434 0.2988 0.6127
C8 C -0.77535(19) 0.1994(3) 0.52782(13)
H13 H -0.8379 0.2037 0.5570
C9 C -0.79862(19) 0.1354(3) 0.45019(12)
H14 H -0.8770 0.0968 0.4261
C10 C -0.70478(18) 0.1305(3) 0.41029(12)
H15 H -0.7206 0.0866 0.3582
C11 C -0.47008(17) 0.0306(3) 0.24888(11)
O3C O -0.52848(13) 0.46616(19) 0.31887(7)
Cu1C Cu -0.53141(2) -0.32111(3) 0.128080(12)
O4 O -0.80767(15) 0.0467(3) 0.20442(11)
H1 H -0.8300 0.1750 0.2078
H2 H -0.7249 0.0228 0.2266
O5 O -0.15157(15) -0.0663(2) 0.27893(12)
H3 H -0.0925 0.0308 0.2897
H4 H -0.2317 -0.0243 0.2800
O6 O -0.02445(16) 0.2654(3) 0.30445(12)
H5 H 0.0427 0.2898 0.2797
H6 H -0.0834 0.3630 0.2967
loop_
_geom_bond_atom_site_label_1
_geom_bond_atom_site_label_2
_geom_bond_site_symmetry_1
_geom_bond_site_symmetry_2
Cu1 O1 1_555 1_555
O1 C11 1_555 1_555
O2 Cu1 1_555 1_555
O3 C11 1_555 1_555
O4 H1 1_555 1_555
H2 O4 1_555 1_555
O5 H3 1_555 1_555
H4 O5 1_555 1_555
O6 H5 1_555 1_555
H6 O6 1_555 1_555
N1 Cu1 1_555 1_555
N2 Cu1 1_555 1_555
N3 H7 1_555 1_555
C1 N1 1_555 1_555
H8 C1 1_555 1_555
C2 C1 1_555 1_555
H9 C2 1_555 1_555
C3 C2 1_555 1_555
H10 C3 1_555 1_555
C4 C3 1_555 1_555
H11 C4 1_555 1_555
C5 N1 1_555 1_555
C6 N2 1_555 1_555
C7 C6 1_555 1_555
H12 C7 1_555 1_555
C8 C7 1_555 1_555
H13 C8 1_555 1_555
C9 C8 1_555 1_555
H14 C9 1_555 1_555
C10 N2 1_555 1_555
H15 C10 1_555 1_555
C11 O2 1_555 1_555
O3C Cu1 1_555 1_555
Cu1C O3 1_555 1_555
N3 C5 1_555 1_555
N3 C6 1_555 1_555
C4 C5 1_555 1_555
C9 C10 1_555 1_555

#END
