
#######################################################################
#
#                 Cambridge Crystallographic Data Centre
#                                CCDC 
#
#######################################################################
#
# If this CIF has been generated from an entry in the Cambridge 
# Structural Database, then it will include bibliographic, chemical, 
# crystal, experimental, refinement or atomic coordinate data resulting 
# from the CCDC's data processing and validation procedures.
#
#######################################################################

data_COJGEN
_symmetry_cell_setting           orthorhombic
_symmetry_space_group_name_H-M   'P 21 21 21'
_symmetry_Int_Tables_number      19
_space_group_name_Hall           'P 2ac 2ab'
loop_
_symmetry_equiv_pos_site_id
_symmetry_equiv_pos_as_xyz
1 x,y,z
2 1/2-x,-y,1/2+z
3 1/2+x,1/2-y,-z
4 -x,1/2+y,1/2-z
_cell_length_a                   7.497(2)
_cell_length_b                   11.432(3)
_cell_length_c                   15.249(3)
_cell_angle_alpha                90
_cell_angle_beta                 90
_cell_angle_gamma                90
_cell_volume                     1306.93
loop_
_atom_site_label
_atom_site_type_symbol
_atom_site_fract_x
_atom_site_fract_y
_atom_site_fract_z
Ag1 Ag 0.3948(1) 0.2709(1) 0.0821(1)
S1 S 0.4883(4) 0.3311(2) 0.2289(1)
C1 C 0.6375(11) 0.2223(11) 0.2742(5)
C2 C 0.5278(20) 0.1577(10) 0.3413(7)
C3 C 0.4041(20) 0.2351(12) 0.3750(6)
C4 C 0.3167(14) 0.2960(13) 0.3053(5)
S2 S 0.0897(2) 0.3363(1) 0.0259(1)
C5 C 0.1083(14) 0.4918(6) -0.0019(5)
C6 C -0.0004(13) 0.5566(8) 0.0656(7)
C7 C -0.0024(14) 0.4884(9) 0.1460(6)
C8 C -0.0437(10) 0.3626(8) 0.1221(5)
S2B S 0.5897(2) 0.1637(1) -0.0259(1)
Ag1B Ag -0.1052(1) 0.2291(1) -0.0821(1)
Ag1B_2 Ag 0.8948(1) 0.2291(1) -0.0821(1)
C5B C 0.6083(14) 0.0082(6) 0.0019(5)
C8B C 0.4563(10) 0.1374(8) -0.1221(5)
S1B S -0.0117(4) 0.1689(2) -0.2289(1)
S2B_2 S -0.4103(2) 0.1637(1) -0.0259(1)
C6B C 0.4996(13) -0.0566(8) -0.0656(7)
C7B C 0.4976(14) 0.0116(9) -0.1460(6)
C1B C 0.1375(11) 0.2777(11) -0.2742(5)
C4B C -0.1833(14) 0.2040(13) -0.3053(5)
C2B C 0.0278(20) 0.3423(10) -0.3413(7)
C3B C -0.0959(20) 0.2649(12) -0.3750(6)
B1 B 0.0798(13) 0.0193(7) 0.0963(5)
F1 F -0.0643(9) 0.0763(6) 0.1347(4)
F2 F 0.2361(7) 0.0602(5) 0.1333(3)
F3 F 0.0771(9) 0.0465(4) 0.0080(3)
F4 F 0.0654(9) -0.0971(4) 0.1070(4)
loop_
_geom_bond_atom_site_label_1
_geom_bond_atom_site_label_2
_geom_bond_site_symmetry_1
_geom_bond_site_symmetry_2
Ag1 S1 1_555 1_555
S1 C1 1_555 1_555
C1 C2 1_555 1_555
C2 C3 1_555 1_555
C3 C4 1_555 1_555
C4 S1 1_555 1_555
S2 Ag1 1_555 1_555
C5 S2 1_555 1_555
C6 C5 1_555 1_555
C7 C6 1_555 1_555
C8 S2 1_555 1_555
B1 F1 1_555 1_555
F2 B1 1_555 1_555
F3 B1 1_555 1_555
F4 B1 1_555 1_555
S2B Ag1 1_555 1_555
Ag1B S2 1_555 1_555
Ag1B_2 S2B 1_555 1_555
C5B S2B 1_555 1_555
C8B S2B 1_555 1_555
S1B Ag1B 1_555 1_555
S2B_2 Ag1B 1_555 1_555
C6B C5B 1_555 1_555
C7B C8B 1_555 1_555
C1B S1B 1_555 1_555
C4B S1B 1_555 1_555
C2B C1B 1_555 1_555
C3B C4B 1_555 1_555
C7 C8 1_555 1_555
C6B C7B 1_555 1_555
C2B C3B 1_555 1_555

#END
