
#######################################################################
#
#                 Cambridge Crystallographic Data Centre
#                                CCDC 
#
#######################################################################
#
# If this CIF has been generated from an entry in the Cambridge 
# Structural Database, then it will include bibliographic, chemical, 
# crystal, experimental, refinement or atomic coordinate data resulting 
# from the CCDC's data processing and validation procedures.
#
#######################################################################

data_COJLIX
_symmetry_cell_setting           orthorhombic
_symmetry_space_group_name_H-M   'P c c n'
_symmetry_Int_Tables_number      56
_space_group_name_Hall           '-P 2ab 2ac'
loop_
_symmetry_equiv_pos_site_id
_symmetry_equiv_pos_as_xyz
1 x,y,z
2 1/2-x,1/2-y,z
3 -x,1/2+y,1/2-z
4 1/2+x,-y,1/2-z
5 -x,-y,-z
6 1/2+x,1/2+y,-z
7 x,1/2-y,1/2+z
8 1/2-x,y,1/2+z
_cell_length_a                   22.667(4)
_cell_length_b                   23.716(4)
_cell_length_c                   9.2454(15)
_cell_angle_alpha                90
_cell_angle_beta                 90
_cell_angle_gamma                90
_cell_volume                     4970.05
loop_
_atom_site_label
_atom_site_type_symbol
_atom_site_fract_x
_atom_site_fract_y
_atom_site_fract_z
Zn1 Zn 0.01124(3) -0.29212(2) 0.29043(7)
S1 S 0.00398(7) -0.18071(6) 0.12666(16)
O1 O 0.21994(19) -0.4370(2) -0.1187(4)
O2 O 0.21438(18) -0.5897(2) 0.1204(4)
O3 O 0.0290(3) -0.21512(17) 0.2418(5)
O4 O 0.0099(3) -0.2158(2) -0.0021(6)
O5 O 0.0341(3) -0.1289(2) 0.1122(7)
O6 O -0.0589(2) -0.1740(3) 0.1553(8)
N1 N 0.07734(19) -0.34025(18) 0.2060(5)
N2 N 0.25187(17) -0.46608(18) 0.0993(5)
H1 H 0.2436 -0.4681 0.1899
N3 N 0.25035(17) -0.56328(17) -0.0968(5)
H2 H 0.2432 -0.5614 -0.1880
N4 N 0.06206(19) -0.67276(19) -0.2043(5)
C1 C 0.1011(3) -0.3828(2) 0.2792(6)
H3 H 0.0872 -0.3909 0.3714
C2 C 0.1463(3) -0.4153(2) 0.2211(6)
H4 H 0.1628 -0.4444 0.2751
C3 C 0.1661(2) -0.4047(2) 0.0858(6)
C4 C 0.1406(3) -0.3614(3) 0.0096(6)
H5 H 0.1526 -0.3536 -0.0845
C5 C 0.0975(3) -0.3302(3) 0.0737(7)
H6 H 0.0814 -0.3003 0.0221
C6 C 0.2152(2) -0.4379(2) 0.0133(6)
C7 C 0.3043(2) -0.4931(2) 0.0491(5)
C8 C 0.3581(2) -0.4721(2) 0.0983(6)
H7 H 0.3586 -0.4419 0.1625
C9 C 0.4107(2) -0.4958(2) 0.0526(7)
H8 H 0.4465 -0.4815 0.0858
C10 C 0.4099(2) -0.5406(2) -0.0423(6)
H9 H 0.4451 -0.5566 -0.0736
C11 C 0.3569(2) -0.5616(2) -0.0905(6)
H10 H 0.3567 -0.5915 -0.1557
C12 C 0.3038(2) -0.5392(2) -0.0437(5)
C13 C 0.2107(2) -0.5886(2) -0.0114(6)
C14 C 0.1592(2) -0.6177(2) -0.0851(5)
C15 C 0.1526(3) -0.6236(3) -0.2306(6)
H11 H 0.1810 -0.6089 -0.2927
C16 C 0.1041(3) -0.6512(3) -0.2869(6)
H12 H 0.1008 -0.6549 -0.3867
C17 C 0.0685(3) -0.6681(3) -0.0607(7)
H13 H 0.0393 -0.6827 -0.0007
C18 C 0.1166(3) -0.6423(3) 0.0008(7)
H14 H 0.1204 -0.6414 0.1009
Zn1D Zn -0.01124(3) -0.70788(2) -0.29043(7)
Zn1F Zn 0.01124(3) -0.20788(2) -0.20957(7)
O4F O 0.0099(3) -0.2842(2) 0.4979(6)
N4D N -0.06206(19) -0.32724(19) 0.2043(5)
O7 O 0.5000 -0.5000 0.5000
O8 O 0.2500 -0.7500 0.836(4)
O9 O 0.1938(17) -0.3031(11) 0.548(3)
loop_
_geom_bond_atom_site_label_1
_geom_bond_atom_site_label_2
_geom_bond_site_symmetry_1
_geom_bond_site_symmetry_2
Zn1 O3 1_555 1_555
S1 O3 1_555 1_555
O1 C6 1_555 1_555
O2 C13 1_555 1_555
O4 S1 1_555 1_555
O5 S1 1_555 1_555
O6 S1 1_555 1_555
N1 Zn1 1_555 1_555
N2 H1 1_555 1_555
N3 H2 1_555 1_555
N4 C16 1_555 1_555
C1 N1 1_555 1_555
H3 C1 1_555 1_555
C2 C1 1_555 1_555
H4 C2 1_555 1_555
C3 C2 1_555 1_555
C4 C3 1_555 1_555
H5 C4 1_555 1_555
C5 N1 1_555 1_555
H6 C5 1_555 1_555
C6 N2 1_555 1_555
C7 N2 1_555 1_555
C8 C7 1_555 1_555
H7 C8 1_555 1_555
C9 C8 1_555 1_555
H8 C9 1_555 1_555
C10 C9 1_555 1_555
H9 C10 1_555 1_555
C11 C10 1_555 1_555
H10 C11 1_555 1_555
C12 N3 1_555 1_555
C13 N3 1_555 1_555
C14 C13 1_555 1_555
C15 C14 1_555 1_555
H11 C15 1_555 1_555
C16 C15 1_555 1_555
H12 C16 1_555 1_555
C17 N4 1_555 1_555
H13 C17 1_555 1_555
C18 C14 1_555 1_555
H14 C18 1_555 1_555
Zn1D N4 1_555 1_555
Zn1F O4 1_555 1_555
O4F Zn1 1_555 1_555
N4D Zn1 1_555 1_555
C3 C6 1_555 1_555
C4 C5 1_555 1_555
C7 C12 1_555 1_555
C11 C12 1_555 1_555
C17 C18 1_555 1_555

#END
