
#######################################################################
#
#                 Cambridge Crystallographic Data Centre
#                                CCDC 
#
#######################################################################
#
# If this CIF has been generated from an entry in the Cambridge 
# Structural Database, then it will include bibliographic, chemical, 
# crystal, experimental, refinement or atomic coordinate data resulting 
# from the CCDC's data processing and validation procedures.
#
#######################################################################

data_COJLET
_symmetry_cell_setting           monoclinic
_symmetry_space_group_name_H-M   'P 21/c'
_symmetry_Int_Tables_number      14
_space_group_name_Hall           '-P 2ybc'
loop_
_symmetry_equiv_pos_site_id
_symmetry_equiv_pos_as_xyz
1 x,y,z
2 -x,1/2+y,1/2-z
3 -x,-y,-z
4 x,1/2-y,1/2+z
_cell_length_a                   11.2034(18)
_cell_length_b                   12.026(2)
_cell_length_c                   18.078(3)
_cell_angle_alpha                90
_cell_angle_beta                 101.872(2)
_cell_angle_gamma                90
_cell_volume                     2383.59
loop_
_atom_site_label
_atom_site_type_symbol
_atom_site_fract_x
_atom_site_fract_y
_atom_site_fract_z
Cu1 Cu 0.57527(3) 0.33383(2) 0.545549(17)
S1 S 0.61681(6) 0.44849(5) 0.43231(4)
O1 O 0.99613(18) 0.38904(18) 0.87861(11)
O2 O 0.71091(18) 0.32725(14) 0.99508(13)
O3 O 0.68361(17) 0.44910(15) 0.51352(11)
O4 O 0.51937(17) 0.36292(15) 0.43422(11)
O5 O 0.56353(18) 0.55660(15) 0.40952(12)
O6 O 0.69703(19) 0.41409(16) 0.38253(12)
N1 N 0.6770(2) 0.31932(17) 0.64910(13)
N2 N 0.88886(19) 0.25067(18) 0.92042(12)
H3 H 0.8280 0.2058 0.9093
N3 N 0.88563(18) 0.42834(17) 1.02659(12)
H4 H 0.9164 0.4941 1.0306
N4 N 0.53931(19) 0.70730(17) 0.95372(12)
C1 C 0.6296(2) 0.3075(2) 0.71063(16)
H5 H 0.5455 0.3008 0.7046
C2 C 0.7006(2) 0.3050(2) 0.78298(15)
H6 H 0.6648 0.2949 0.8246
C3 C 0.8255(2) 0.3177(2) 0.79245(15)
C4 C 0.8747(3) 0.3310(3) 0.72835(17)
H7 H 0.9583 0.3403 0.7328
C5 C 0.7982(3) 0.3302(3) 0.65822(17)
H8 H 0.8319 0.3376 0.6156
C6 C 0.9110(2) 0.3220(2) 0.86826(14)
C7 C 0.9644(2) 0.2476(2) 0.99439(15)
C8 C 1.0402(3) 0.1564(2) 1.01548(19)
H9 H 1.0372 0.0965 0.9826
C9 C 1.1198(3) 0.1542(3) 1.0848(2)
H10 H 1.1698 0.0927 1.0987
C10 C 1.1250(3) 0.2435(3) 1.1333(2)
H11 H 1.1806 0.2430 1.1792
C11 C 1.0483(3) 0.3337(3) 1.11420(17)
H12 H 1.0520 0.3932 1.1474
C12 C 0.9654(2) 0.3354(2) 1.04506(15)
C13 C 0.7637(2) 0.4172(2) 1.00300(15)
C14 C 0.6921(2) 0.5233(2) 0.98388(15)
C15 C 0.7274(2) 0.6258(2) 1.01673(17)
H13 H 0.8026 0.6341 1.0494
C16 C 0.6492(2) 0.7149(2) 1.00015(17)
H14 H 0.6735 0.7834 1.0221
C17 C 0.5082(2) 0.6099(2) 0.91957(16)
H15 H 0.4343 0.6048 0.8851
C18 C 0.5809(2) 0.5167(2) 0.93329(16)
H16 H 0.5557 0.4500 0.9089
Cu1B Cu 0.42473(3) 0.66617(2) 0.454451(17)
Cu1A Cu 0.42473(3) 0.83383(2) 0.954451(17)
O5B O 0.43647(18) 0.44340(15) 0.59048(12)
N4A N 0.46069(19) 0.20730(17) 0.54628(12)
O7 O 0.6647(6) 0.5205(7) 0.2334(3)
H1 H 0.6384 0.5762 0.2093
C19 C 0.7990(10) 0.4926(9) 0.2198(6)
H17 H 0.8307 0.5561 0.1980
H18 H 0.7946 0.4305 0.1860
H19 H 0.8517 0.4746 0.2671
O8 O 0.3837(7) 0.2650(7) 0.2991(4)
H2 H 0.3279 0.2404 0.3174
C20 C 0.3505(18) 0.3862(13) 0.2681(11)
H20 H 0.2866 0.4157 0.2905
H21 H 0.3236 0.3837 0.2142
H22 H 0.4213 0.4329 0.2808
O9 O 0.154(2) 0.3810(17) 0.3392(13)
H23 H 0.134(5) 0.313(3) 0.330(4)
H24 H 0.228(3) 0.395(4) 0.335(3)
loop_
_geom_bond_atom_site_label_1
_geom_bond_atom_site_label_2
_geom_bond_site_symmetry_1
_geom_bond_site_symmetry_2
Cu1 O3 1_555 1_555
S1 O3 1_555 1_555
O1 C6 1_555 1_555
O2 C13 1_555 1_555
O4 Cu1 1_555 1_555
O5 S1 1_555 1_555
O6 S1 1_555 1_555
O7 H1 1_555 1_555
O8 H2 1_555 1_555
O9 H23 1_555 1_555
N1 Cu1 1_555 1_555
N2 H3 1_555 1_555
N3 H4 1_555 1_555
N4 C16 1_555 1_555
C1 N1 1_555 1_555
H5 C1 1_555 1_555
C2 C1 1_555 1_555
H6 C2 1_555 1_555
C3 C2 1_555 1_555
C4 C3 1_555 1_555
H7 C4 1_555 1_555
C5 N1 1_555 1_555
H8 C5 1_555 1_555
C6 N2 1_555 1_555
C7 N2 1_555 1_555
C8 C7 1_555 1_555
H9 C8 1_555 1_555
C9 C8 1_555 1_555
H10 C9 1_555 1_555
C10 C9 1_555 1_555
H11 C10 1_555 1_555
C11 C10 1_555 1_555
H12 C11 1_555 1_555
C12 N3 1_555 1_555
C13 N3 1_555 1_555
C14 C13 1_555 1_555
C15 C14 1_555 1_555
H13 C15 1_555 1_555
C16 C15 1_555 1_555
H14 C16 1_555 1_555
C17 N4 1_555 1_555
H15 C17 1_555 1_555
C18 C14 1_555 1_555
H16 C18 1_555 1_555
C19 O7 1_555 1_555
H17 C19 1_555 1_555
H18 C19 1_555 1_555
H19 C19 1_555 1_555
C20 O8 1_555 1_555
H20 C20 1_555 1_555
H21 C20 1_555 1_555
H22 C20 1_555 1_555
H24 O9 1_555 1_555
Cu1B O5 1_555 1_555
Cu1A N4 1_555 1_555
O5B Cu1 1_555 1_555
N4A Cu1 1_555 1_555
S1 O4 1_555 1_555
C3 C6 1_555 1_555
C4 C5 1_555 1_555
C7 C12 1_555 1_555
C11 C12 1_555 1_555
C17 C18 1_555 1_555

#END
