
#######################################################################
#
#                 Cambridge Crystallographic Data Centre
#                                CCDC 
#
#######################################################################
#
# If this CIF has been generated from an entry in the Cambridge 
# Structural Database, then it will include bibliographic, chemical, 
# crystal, experimental, refinement or atomic coordinate data resulting 
# from the CCDC's data processing and validation procedures.
#
#######################################################################

data_COJRUP
_symmetry_cell_setting           triclinic
_symmetry_space_group_name_H-M   'P -1'
_symmetry_Int_Tables_number      2
_space_group_name_Hall           '-P 1'
loop_
_symmetry_equiv_pos_site_id
_symmetry_equiv_pos_as_xyz
1 x,y,z
2 -x,-y,-z
_cell_length_a                   5.2003(11)
_cell_length_b                   7.5427(17)
_cell_length_c                   8.9943(19)
_cell_angle_alpha                66.624(2)
_cell_angle_beta                 77.794(2)
_cell_angle_gamma                74.287(3)
_cell_volume                     309.571
loop_
_atom_site_label
_atom_site_type_symbol
_atom_site_fract_x
_atom_site_fract_y
_atom_site_fract_z
C1 C 0.0943(19) -0.3211(14) 0.2879(13)
C2 C 0.1281(18) -0.3015(13) 0.4364(12)
C3 C -0.1330(18) -0.1728(13) 0.4375(13)
C4 C -0.1744(18) -0.1859(13) 0.2855(12)
Cd1 Cd 0.5000 -0.5000 0.0000
O1 O 0.2232(17) -0.4184(13) 0.2043(11)
O2 O 0.3091(14) -0.3757(10) 0.5327(9)
H1 H 0.5000 -0.5000 0.5000
O3 O -0.2697(14) -0.0899(11) 0.5353(10)
H2 H 1.5000 -1.0000 -0.5000
O4 O -0.3551(15) -0.1229(11) 0.1979(10)
O5 O 0.3104(14) -0.7679(10) 0.0612(10)
H3 H 0.3889 -0.8560 0.1259
H4 H 0.3264 -0.7999 -0.0273
O6 O 0.2225(15) -0.2991(12) -0.1841(10)
H5 H 0.0594 -0.2870 -0.1653
H6 H 0.2458 -0.3412 -0.2626
C1A C 0.9057(19) -0.6789(14) -0.2879(13)
C2A C 0.8719(18) -0.6985(13) -0.4364(12)
C3A C 1.1330(18) -0.8272(13) -0.4375(13)
C4A C 1.1744(18) -0.8141(13) -0.2855(12)
O1A O 0.7768(17) -0.5816(13) -0.2043(11)
O2A O 0.6909(14) -0.6243(10) 0.4673(9)
O2A_2 O 0.6909(14) -0.6243(10) -0.5327(9)
H1_2 H 0.5000 -0.5000 -0.5000
O3A O 1.2697(14) -0.9101(11) -0.5353(10)
O3_2 O 1.7303(14) -1.0899(11) -0.4647(10)
H2_2 H -0.5000 0.0000 0.5000
O4A O 1.3551(15) -0.8771(11) -0.1979(10)
O5A O 0.6896(14) -0.2321(10) -0.0612(10)
H3A H 0.6111 -0.1440 -0.1259
H4A H 0.6736 -0.2001 0.0273
O6A O 0.7775(15) -0.7009(12) 0.1841(10)
H5A H 0.9406 -0.7130 0.1653
H6A H 0.7542 -0.6588 0.2626
loop_
_geom_bond_atom_site_label_1
_geom_bond_atom_site_label_2
_geom_bond_site_symmetry_1
_geom_bond_site_symmetry_2
C1 C2 1_555 1_555
C2 C3 1_555 1_555
C3 C4 1_555 1_555
C4 C1 1_555 1_555
Cd1 O1 1_555 1_555
O1 C1 1_555 1_555
O2 C2 1_555 1_555
H1 O2 1_555 1_555
O3 C3 1_555 1_555
H2 O3A 1_555 1_555
O4 C4 1_555 1_555
O5 Cd1 1_555 1_555
H3 O5 1_555 1_555
H4 O5 1_555 1_555
O6 Cd1 1_555 1_555
H5 O6 1_555 1_555
H6 O6 1_555 1_555
C1A C2A 1_555 1_555
C2A C3A 1_555 1_555
C3A C4A 1_555 1_555
C4A C1A 1_555 1_555
O1A Cd1 1_555 1_555
O2A H1 1_555 1_555
O2A_2 C2A 1_555 1_555
H1_2 O2A_2 1_555 1_555
O3A C3A 1_555 1_555
O3_2 H2 1_555 1_555
H2_2 O3 1_555 1_555
O4A C4A 1_555 1_555
O5A Cd1 1_555 1_555
H3A O5A 1_555 1_555
H4A O5A 1_555 1_555
O6A Cd1 1_555 1_555
H5A O6A 1_555 1_555
H6A O6A 1_555 1_555
C1A O1A 1_555 1_555

#END
