
#######################################################################
#
#                 Cambridge Crystallographic Data Centre
#                                CCDC 
#
#######################################################################
#
# If this CIF has been generated from an entry in the Cambridge 
# Structural Database, then it will include bibliographic, chemical, 
# crystal, experimental, refinement or atomic coordinate data resulting 
# from the CCDC's data processing and validation procedures.
#
#######################################################################

data_COKCOW
_symmetry_cell_setting           monoclinic
_symmetry_space_group_name_H-M   'C 2/c'
_symmetry_Int_Tables_number      15
_space_group_name_Hall           '-C 2yn'
loop_
_symmetry_equiv_pos_site_id
_symmetry_equiv_pos_as_xyz
1 x,y,z
2 -x,y,1/2-z
3 1/2+x,1/2+y,z
4 1/2-x,1/2+y,1/2-z
5 -x,-y,-z
6 x,-y,1/2+z
7 1/2-x,1/2-y,-z
8 1/2+x,1/2-y,1/2+z
_cell_length_a                   15.456(10)
_cell_length_b                   14.414(10)
_cell_length_c                   26.684(17)
_cell_angle_alpha                90
_cell_angle_beta                 104.126(12)
_cell_angle_gamma                90
_cell_volume                     5764.98
loop_
_atom_site_label
_atom_site_type_symbol
_atom_site_fract_x
_atom_site_fract_y
_atom_site_fract_z
Mn1 Mn 0.7500 0.2500 0.5000
Mn2 Mn 0.52262(2) 0.30621(3) 0.476720(14)
O1 O 0.57488(11) 0.38838(14) 0.54221(7)
O2 O 0.71748(11) 0.36078(12) 0.54461(7)
O3 O 0.76846(13) 0.63033(15) 0.73709(7)
O4 O 0.63078(10) 0.72753(11) 0.93674(6)
O5 O 0.56148(11) 0.59448(12) 0.91694(7)
O6 O 0.53209(11) 0.18097(13) 0.52264(7)
O7 O 0.67597(11) 0.14674(13) 0.53217(7)
N1 N 0.38495(12) 0.35065(14) 0.48099(8)
N2 N 0.42278(13) 0.23722(15) 0.40862(8)
N3 N 0.09621(16) 0.18758(18) 0.34197(11)
N4 N 0.06703(14) 0.27507(17) 0.40579(10)
H1 H 0.0365 0.3023 0.4244
C1 C 0.36795(16) 0.41005(17) 0.51578(10)
H2 H 0.4158 0.4377 0.5390
C2 C 0.28146(17) 0.43262(19) 0.51894(10)
H3 H 0.2722 0.4763 0.5428
C3 C 0.21072(17) 0.38964(19) 0.48657(11)
H4 H 0.1529 0.4015 0.4894
C4 C 0.22559(15) 0.32747(17) 0.44904(10)
C5 C 0.31428(15) 0.31059(16) 0.44670(9)
C6 C 0.33453(15) 0.25103(17) 0.40728(9)
C7 C 0.44235(19) 0.1868(2) 0.37118(12)
H5 H 0.5021 0.1770 0.3720
C8 C 0.3783(2) 0.1478(2) 0.33086(12)
H6 H 0.3953 0.1141 0.3051
C9 C 0.28985(19) 0.1597(2) 0.32947(12)
H7 H 0.2462 0.1342 0.3027
C10 C 0.26552(17) 0.21072(18) 0.36860(10)
C11 C 0.17577(17) 0.22547(19) 0.37301(11)
C12 C 0.15834(15) 0.27949(18) 0.41191(10)
C13 C 0.0359(2) 0.2203(3) 0.36523(13)
H8 H -0.0244 0.2058 0.3539
C14 C 0.65746(16) 0.39837(17) 0.56144(9)
C15 C 0.68590(15) 0.45943(16) 0.60831(9)
C16 C 0.62291(16) 0.50328(18) 0.62911(10)
H9 H 0.5626 0.4945 0.6139
C17 C 0.64801(18) 0.55985(19) 0.67211(10)
H10 H 0.6051 0.5895 0.6854
C18 C 0.73747(19) 0.57175(19) 0.69496(10)
C19 C 0.80176(17) 0.5296(2) 0.67450(10)
H11 H 0.8620 0.5385 0.6898
C20 C 0.77580(16) 0.47433(19) 0.63114(10)
H12 H 0.8189 0.4467 0.6171
C21 C 0.72705(17) 0.6319(2) 0.77770(10)
C22 C 0.74243(19) 0.7109(2) 0.80839(10)
H13 H 0.7768 0.7591 0.8004
C23 C 0.70646(18) 0.71751(18) 0.85084(10)
H14 H 0.7168 0.7704 0.8714
C24 C 0.65492(15) 0.64604(17) 0.86313(9)
C25 C 0.61400(14) 0.65439(18) 0.90802(9)
C26 C 0.63922(18) 0.56799(18) 0.83168(10)
H15 H 0.6040 0.5203 0.8393
C27 C 0.67521(18) 0.56012(19) 0.78922(10)
H16 H 0.6648 0.5073 0.7686
C28 C 0.60167(17) 0.13209(18) 0.54030(10)
C29 C 0.5925(2) 0.0506(2) 0.57458(14)
H17 H 0.5608 0.0013 0.5537
H18 H 0.5601 0.0697 0.5993
H19 H 0.6507 0.0292 0.5924
Mn2F Mn 0.97738(2) 0.19379(3) 0.523280(14)
O1F O 0.92512(11) 0.11162(14) 0.45779(7)
O2F O 0.78252(11) 0.13922(12) 0.45539(7)
O3F O 0.73154(13) -0.13033(15) 0.26291(7)
O4F O 0.86922(10) -0.22753(11) 0.06326(6)
O5F O 0.93852(11) -0.09448(12) 0.08306(7)
O6F O 0.96791(11) 0.31903(13) 0.47736(7)
O7F O 0.82403(11) 0.35326(13) 0.46783(7)
N1F N 1.11505(12) 0.14935(14) 0.51901(8)
N2F N 1.07722(13) 0.26278(15) 0.59138(8)
N3F N 1.40379(16) 0.31242(18) 0.65803(11)
N4F N 1.43297(14) 0.22493(17) 0.59421(10)
H1F H 1.4635 0.1977 0.5756
C1F C 1.13205(16) 0.08995(17) 0.48422(10)
H2F H 1.0842 0.0623 0.4610
C2F C 1.21854(17) 0.06738(19) 0.48106(10)
H3F H 1.2278 0.0237 0.4572
C3F C 1.28928(17) 0.11036(19) 0.51343(11)
H4F H 1.3471 0.0985 0.5106
C4F C 1.27441(15) 0.17253(17) 0.55096(10)
C5F C 1.18572(15) 0.18941(16) 0.55330(9)
C6F C 1.16547(15) 0.24897(17) 0.59272(9)
C7F C 1.05765(19) 0.3132(2) 0.62882(12)
H5F H 0.9979 0.3230 0.6280
C8F C 1.1217(2) 0.3522(2) 0.66914(12)
H6F H 1.1047 0.3859 0.6949
C9F C 1.21015(19) 0.3403(2) 0.67053(12)
H7F H 1.2538 0.3658 0.6973
C10F C 1.23448(17) 0.28928(18) 0.63140(10)
C11F C 1.32423(17) 0.27453(19) 0.62699(11)
C12F C 1.34166(15) 0.22051(18) 0.58809(10)
C13F C 1.4641(2) 0.2797(3) 0.63477(13)
H8F H 1.5244 0.2942 0.6461
C14F C 0.84254(16) 0.10163(17) 0.43856(9)
C15F C 0.81410(15) 0.04057(16) 0.39169(9)
C16F C 0.87709(16) -0.00328(18) 0.37089(10)
H9F H 0.9374 0.0055 0.3861
C17F C 0.85199(18) -0.05985(19) 0.32789(10)
H10F H 0.8949 -0.0895 0.3146
C18F C 0.76253(19) -0.07175(19) 0.30504(10)
C19F C 0.69824(17) -0.0296(2) 0.32550(10)
H11F H 0.6380 -0.0385 0.3102
C20F C 0.72420(16) 0.02567(19) 0.36886(10)
H12F H 0.6811 0.0533 0.3829
C21F C 0.77295(17) -0.1319(2) 0.22230(10)
C22F C 0.75757(19) -0.2109(2) 0.19161(10)
H13F H 0.7232 -0.2591 0.1996
C23F C 0.79354(18) -0.21751(18) 0.14916(10)
H14F H 0.7832 -0.2704 0.1286
C24F C 0.84508(15) -0.14604(17) 0.13687(9)
C25F C 0.88600(14) -0.15439(18) 0.09198(9)
C26F C 0.86078(18) -0.06799(18) 0.16832(10)
H15F H 0.8960 -0.0203 0.1607
C27F C 0.82479(18) -0.06012(19) 0.21078(10)
H16F H 0.8352 -0.0073 0.2314
C28F C 0.89833(17) 0.36791(18) 0.45970(10)
C29F C 0.9075(2) 0.4494(2) 0.42542(14)
H17F H 0.9392 0.4987 0.4463
H18F H 0.9399 0.4303 0.4007
H19F H 0.8493 0.4708 0.4076
Mn1C Mn 0.7500 -0.2500 0.0000
Mn1C_2 Mn 0.7500 0.7500 1.0000
Mn2C Mn 0.97738(2) -0.19379(3) 0.023280(14)
Mn2E Mn 0.52262(2) 0.69379(3) 0.976720(14)
O4C O 0.86922(10) 0.22753(11) 0.56326(6)
O4E O 0.63078(10) 0.27247(11) 0.43674(6)
O5C O 0.93852(11) 0.09448(12) 0.58306(7)
O5E O 0.56148(11) 0.40552(12) 0.41694(7)
O8 O 0.0402(6) 0.1081(5) 0.2428(4)
H20 H 0.0596 0.1458 0.2668
H21 H -0.0002 0.1449 0.2295
O8A O -0.0402(6) 0.1081(5) 0.2572(4)
H20A H -0.0596 0.1458 0.2332
H21A H 0.0002 0.1449 0.2705
loop_
_geom_bond_atom_site_label_1
_geom_bond_atom_site_label_2
_geom_bond_site_symmetry_1
_geom_bond_site_symmetry_2
Mn1 O2 1_555 1_555
Mn2 O1 1_555 1_555
O1 C14 1_555 1_555
O2 C14 1_555 1_555
O3 C18 1_555 1_555
O4 C25 1_555 1_555
O5 C25 1_555 1_555
O6 Mn2 1_555 1_555
O7 Mn1 1_555 1_555
N1 Mn2 1_555 1_555
N2 Mn2 1_555 1_555
N3 C11 1_555 1_555
N4 H1 1_555 1_555
C1 N1 1_555 1_555
H2 C1 1_555 1_555
C2 C1 1_555 1_555
H3 C2 1_555 1_555
C3 C2 1_555 1_555
H4 C3 1_555 1_555
C4 C3 1_555 1_555
C5 N1 1_555 1_555
C6 N2 1_555 1_555
C7 N2 1_555 1_555
H5 C7 1_555 1_555
C8 C7 1_555 1_555
H6 C8 1_555 1_555
C9 C8 1_555 1_555
H7 C9 1_555 1_555
C10 C6 1_555 1_555
C11 C10 1_555 1_555
C12 N4 1_555 1_555
C13 N3 1_555 1_555
H8 C13 1_555 1_555
C14 C15 1_555 1_555
C15 C16 1_555 1_555
C16 H9 1_555 1_555
C17 C16 1_555 1_555
H10 C17 1_555 1_555
C18 C17 1_555 1_555
C19 C18 1_555 1_555
H11 C19 1_555 1_555
C20 C15 1_555 1_555
H12 C20 1_555 1_555
C21 O3 1_555 1_555
C22 C21 1_555 1_555
H13 C22 1_555 1_555
C23 C22 1_555 1_555
H14 C23 1_555 1_555
C24 C23 1_555 1_555
C25 C24 1_555 1_555
C26 C24 1_555 1_555
H15 C26 1_555 1_555
C27 C21 1_555 1_555
H16 C27 1_555 1_555
C28 O6 1_555 1_555
C29 C28 1_555 1_555
H17 C29 1_555 1_555
H18 C29 1_555 1_555
H19 C29 1_555 1_555
O8 H20 1_555 1_555
H21 O8 1_555 1_555
Mn2F O1F 1_555 1_555
O1F C14F 1_555 1_555
O2F Mn1 1_555 1_555
O3F C18F 1_555 1_555
O4F C25F 1_555 1_555
O5F C25F 1_555 1_555
O6F Mn2F 1_555 1_555
O7F Mn1 1_555 1_555
N1F Mn2F 1_555 1_555
N2F Mn2F 1_555 1_555
N3F C11F 1_555 1_555
N4F H1F 1_555 1_555
C1F N1F 1_555 1_555
H2F C1F 1_555 1_555
C2F C1F 1_555 1_555
H3F C2F 1_555 1_555
C3F C2F 1_555 1_555
H4F C3F 1_555 1_555
C4F C3F 1_555 1_555
C5F N1F 1_555 1_555
C6F N2F 1_555 1_555
C7F N2F 1_555 1_555
H5F C7F 1_555 1_555
C8F C7F 1_555 1_555
H6F C8F 1_555 1_555
C9F C8F 1_555 1_555
H7F C9F 1_555 1_555
C10F C6F 1_555 1_555
C11F C10F 1_555 1_555
C12F N4F 1_555 1_555
C13F N3F 1_555 1_555
H8F C13F 1_555 1_555
C14F O2F 1_555 1_555
C15F C14F 1_555 1_555
C16F C15F 1_555 1_555
H9F C16F 1_555 1_555
C17F C16F 1_555 1_555
H10F C17F 1_555 1_555
C18F C17F 1_555 1_555
C19F C18F 1_555 1_555
H11F C19F 1_555 1_555
C20F C15F 1_555 1_555
H12F C20F 1_555 1_555
C21F O3F 1_555 1_555
C22F C21F 1_555 1_555
H13F C22F 1_555 1_555
C23F C22F 1_555 1_555
H14F C23F 1_555 1_555
C24F C23F 1_555 1_555
C25F C24F 1_555 1_555
C26F C24F 1_555 1_555
H15F C26F 1_555 1_555
C27F C21F 1_555 1_555
H16F C27F 1_555 1_555
C28F O6F 1_555 1_555
C29F C28F 1_555 1_555
H17F C29F 1_555 1_555
H18F C29F 1_555 1_555
H19F C29F 1_555 1_555
Mn1C O4F 1_555 1_555
Mn1C_2 O4 1_555 1_555
Mn2C O4F 1_555 1_555
Mn2E O4 1_555 1_555
O4C Mn1 1_555 1_555
O4E Mn1 1_555 1_555
O5C Mn2F 1_555 1_555
O5E Mn2 1_555 1_555
O8A H20A 1_555 1_555
H21A O8A 1_555 1_555
Mn2 O4E 1_555 1_555
O5 Mn2E 1_555 1_555
O7 C28 1_555 1_555
N4 C13 1_555 1_555
C4 C5 1_555 1_555
C4 C12 1_555 1_555
C5 C6 1_555 1_555
C9 C10 1_555 1_555
C11 C12 1_555 1_555
C19 C20 1_555 1_555
C26 C27 1_555 1_555
Mn2F O4C 1_555 1_555
O5F Mn2C 1_555 1_555
O7F C28F 1_555 1_555
N4F C13F 1_555 1_555
C4F C5F 1_555 1_555
C4F C12F 1_555 1_555
C5F C6F 1_555 1_555
C9F C10F 1_555 1_555
C11F C12F 1_555 1_555
C19F C20F 1_555 1_555
C26F C27F 1_555 1_555

#END
