
#######################################################################
#
#                 Cambridge Crystallographic Data Centre
#                                CCDC 
#
#######################################################################
#
# If this CIF has been generated from an entry in the Cambridge 
# Structural Database, then it will include bibliographic, chemical, 
# crystal, experimental, refinement or atomic coordinate data resulting 
# from the CCDC's data processing and validation procedures.
#
#######################################################################

data_COKDUB01
_symmetry_cell_setting           monoclinic
_symmetry_space_group_name_H-M   'P 2/n'
_symmetry_Int_Tables_number      13
_space_group_name_Hall           '-P 2yac'
loop_
_symmetry_equiv_pos_site_id
_symmetry_equiv_pos_as_xyz
1 x,y,z
2 1/2-x,y,1/2-z
3 -x,-y,-z
4 1/2+x,-y,1/2+z
_cell_length_a                   13.830
_cell_length_b                   6.023
_cell_length_c                   8.250
_cell_angle_alpha                90
_cell_angle_beta                 97.45
_cell_angle_gamma                90
_cell_volume                     681.408
loop_
_atom_site_label
_atom_site_type_symbol
_atom_site_fract_x
_atom_site_fract_y
_atom_site_fract_z
Hg1 Hg 0.2500 0.4801(1) 0.2500
N1 N 0.1286(4) -0.2532(11) 0.1520(8)
N2 N 0.1711(5) 0.3476(11) 0.4451(8)
C1 C 0.1228(5) -0.0950(13) 0.2884(9)
C2 C 0.0622(6) 0.1141(13) 0.2433(9)
C3 C 0.0689(6) 0.2729(13) 0.3894(10)
Hg1_2 Hg 0.2500 -0.5199(1) 0.2500
N1_2 N 0.1286(4) 0.7468(11) 0.1520(8)
N1A N 0.3714(4) 0.7468(11) 0.3480(8)
C1A C 0.3772(5) 0.9050(13) 0.2116(9)
C2A C 0.4378(6) 1.1141(13) 0.2567(9)
C3A C 0.4311(6) 1.2729(13) 0.1106(10)
N2A N 0.3289(5) 1.3476(11) 0.0549(8)
Hg1_3 Hg 0.2500 1.4801(1) 0.2500
N2A_2 N 0.3289(5) 0.3476(11) 0.0549(8)
S1 S 0.2500 -0.1468(4) 0.7500
O1 O 0.2138(4) -0.0049(10) 0.8771(7)
O2 O 0.3310(4) -0.2867(10) 0.8261(7)
O1A O 0.2862(4) -0.0049(10) 0.6229(7)
O2A O 0.1690(4) -0.2867(10) 0.6739(7)
O3 O 0.0916(5) -0.6248(12) -0.1442(8)
loop_
_geom_bond_atom_site_label_1
_geom_bond_atom_site_label_2
_geom_bond_site_symmetry_1
_geom_bond_site_symmetry_2
Hg1 N2 1_555 1_555
N1 C1 1_555 1_555
N2 C3 1_555 1_555
C1 C2 1_555 1_555
C2 C3 1_555 1_555
S1 O1 1_555 1_555
O2 S1 1_555 1_555
Hg1_2 N1 1_555 1_555
N1_2 Hg1 1_555 1_555
N1A Hg1 1_555 1_555
C1A N1A 1_555 1_555
C2A C1A 1_555 1_555
C3A C2A 1_555 1_555
N2A C3A 1_555 1_555
Hg1_3 N2A 1_555 1_555
N2A_2 Hg1 1_555 1_555
O1A S1 1_555 1_555
O2A S1 1_555 1_555

#END
