
#######################################################################
#
#                 Cambridge Crystallographic Data Centre
#                                CCDC 
#
#######################################################################
#
# If this CIF has been generated from an entry in the Cambridge 
# Structural Database, then it will include bibliographic, chemical, 
# crystal, experimental, refinement or atomic coordinate data resulting 
# from the CCDC's data processing and validation procedures.
#
#######################################################################

data_COKDAI
_symmetry_cell_setting           orthorhombic
_symmetry_space_group_name_H-M   'P n m a'
_symmetry_Int_Tables_number      62
_space_group_name_Hall           '-P 2ac 2n'
loop_
_symmetry_equiv_pos_site_id
_symmetry_equiv_pos_as_xyz
1 x,y,z
2 1/2-x,-y,1/2+z
3 1/2+x,1/2-y,1/2-z
4 -x,1/2+y,-z
5 -x,-y,-z
6 1/2+x,y,1/2-z
7 1/2-x,1/2+y,1/2+z
8 x,1/2-y,z
_cell_length_a                   7.6483(4)
_cell_length_b                   30.7546(16)
_cell_length_c                   11.2156(6)
_cell_angle_alpha                90
_cell_angle_beta                 90
_cell_angle_gamma                90
_cell_volume                     2638.14
loop_
_atom_site_label
_atom_site_type_symbol
_atom_site_fract_x
_atom_site_fract_y
_atom_site_fract_z
C1 C -0.4054(9) 0.3477(2) -0.3766(6)
H1 H -0.3798 0.3384 -0.4536
C2 C -0.4601(9) 0.3484(2) -0.1884(6)
H2 H -0.4806 0.3391 -0.1107
C3 C -0.4588(11) 0.3898(3) -0.2250(7)
H3 H -0.4767 0.4143 -0.1780
C4 C -0.4115(10) 0.4271(3) -0.4233(8)
H4 H -0.3624 0.4183 -0.4993
H5 H -0.3333 0.4483 -0.3877
C5 C -0.5910(11) 0.4478(3) -0.4434(7)
C6 C -0.6451(10) 0.4828(2) -0.3753(8)
H6 H -0.5737 0.4932 -0.3145
C7 C -0.8072(9) 0.5028(2) -0.3972(6)
H7 H -0.8426 0.5258 -0.3491
C8 C -0.9144(11) 0.4893(2) -0.4876(7)
C9 C -0.8572(13) 0.4531(3) -0.5530(8)
H8 H -0.9278 0.4423 -0.6135
C10 C -0.6995(13) 0.4334(3) -0.5299(8)
H9 H -0.6667 0.4093 -0.5750
N1 N -0.4258(7) 0.32166(17) -0.2845(5)
N2 N -0.4262(7) 0.38920(18) -0.3448(5)
O1 O -0.1934(8) 0.2500 -0.1231(5)
H10 H -0.2075 0.2244 -0.0735
H11 H -0.2075 0.2756 -0.0735
O2 O -0.5820(8) 0.2886(3) 0.0645(6)
O3 O -0.6148(8) 0.2500 -0.1199(5)
O4 O -0.8502(9) 0.2500 0.0159(6)
S1 S -0.6551(3) 0.2500 0.0077(2)
Cd1 Cd -0.40477(9) 0.2500 -0.28167(5)
C1D C -1.5946(9) 0.6523(2) -0.6234(6)
H1D H -1.6202 0.6616 -0.5464
C2D C -1.5399(9) 0.6516(2) -0.8116(6)
H2D H -1.5194 0.6609 -0.8893
C3D C -1.5412(11) 0.6102(3) -0.7750(7)
H3D H -1.5233 0.5857 -0.8220
C4D C -1.5885(10) 0.5729(3) -0.5767(8)
H4D H -1.6376 0.5817 -0.5007
H5D H -1.6667 0.5517 -0.6123
C5D C -1.4090(11) 0.5522(3) -0.5566(7)
C6D C -1.3549(10) 0.5172(2) -0.6247(8)
H6D H -1.4263 0.5068 -0.6855
C7D C -1.1928(9) 0.4972(2) -0.6028(6)
H7D H -1.1574 0.4742 -0.6509
C8D C -1.0856(11) 0.5107(2) -0.5124(7)
C9D C -1.1428(13) 0.5469(3) -0.4470(8)
H8D H -1.0722 0.5577 -0.3865
C10D C -1.3005(13) 0.5666(3) -0.4701(8)
H9D H -1.3333 0.5907 -0.4250
N1D N -1.5742(7) 0.67834(17) -0.7155(5)
N1G N -0.4258(7) 0.17834(17) -0.2845(5)
N2D N -1.5738(7) 0.61080(18) -0.6552(5)
O1E O -0.6934(8) 0.2500 -0.3769(5)
H10E H -0.7075 0.2244 -0.4265
H10B H -0.7075 0.2756 -0.4265
O2G O -0.5820(8) 0.2114(3) 0.0645(6)
O3E O -0.1148(8) 0.2500 -0.3801(5)
O4E O -0.3502(9) 0.2500 -0.5159(6)
Cd1E Cd 0.09523(9) 0.2500 -0.21833(5)
Cd1E_2 Cd -0.90477(9) 0.2500 -0.21833(5)
Cd1D Cd -1.59523(9) 0.7500 -0.71833(5)
loop_
_geom_bond_atom_site_label_1
_geom_bond_atom_site_label_2
_geom_bond_site_symmetry_1
_geom_bond_site_symmetry_2
C1 H1 1_555 1_555
C2 H2 1_555 1_555
C3 C2 1_555 1_555
H3 C3 1_555 1_555
C4 H4 1_555 1_555
H5 C4 1_555 1_555
C5 C4 1_555 1_555
C6 C5 1_555 1_555
H6 C6 1_555 1_555
C7 C6 1_555 1_555
H7 C7 1_555 1_555
C8 C7 1_555 1_555
C9 C8 1_555 1_555
H8 C9 1_555 1_555
C10 C5 1_555 1_555
H9 C10 1_555 1_555
N1 C1 1_555 1_555
N2 C1 1_555 1_555
O1 H10 1_555 1_555
H11 O1 1_555 1_555
O2 S1 1_555 1_555
O3 S1 1_555 1_555
O4 S1 1_555 1_555
S1 O2G 1_555 1_555
Cd1 N1 1_555 1_555
C1D H1D 1_555 1_555
C2D H2D 1_555 1_555
C3D C2D 1_555 1_555
H3D C3D 1_555 1_555
C4D H4D 1_555 1_555
H5D C4D 1_555 1_555
C5D C4D 1_555 1_555
C6D C5D 1_555 1_555
H6D C6D 1_555 1_555
C7D C6D 1_555 1_555
H7D C7D 1_555 1_555
C8D C8 1_555 1_555
C9D C8D 1_555 1_555
H8D C9D 1_555 1_555
C10D C5D 1_555 1_555
H9D C10D 1_555 1_555
N1D C1D 1_555 1_555
N1G Cd1 1_555 1_555
N2D C1D 1_555 1_555
O1E Cd1 1_555 1_555
H10E O1E 1_555 1_555
H10B O1E 1_555 1_555
O3E Cd1 1_555 1_555
O4E Cd1 1_555 1_555
Cd1E O1 1_555 1_555
Cd1E_2 O3 1_555 1_555
Cd1D N1D 1_555 1_555
C2 N1 1_555 1_555
C3 N2 1_555 1_555
C4 N2 1_555 1_555
C9 C10 1_555 1_555
O1 Cd1 1_555 1_555
O3 Cd1 1_555 1_555
O4 Cd1E_2 1_555 1_555
C2D N1D 1_555 1_555
C3D N2D 1_555 1_555
C4D N2D 1_555 1_555
C7D C8D 1_555 1_555
C9D C10D 1_555 1_555
O1E Cd1E_2 1_555 1_555
O3E Cd1E 1_555 1_555

#END
