
#######################################################################
#
#                 Cambridge Crystallographic Data Centre
#                                CCDC 
#
#######################################################################
#
# If this CIF has been generated from an entry in the Cambridge 
# Structural Database, then it will include bibliographic, chemical, 
# crystal, experimental, refinement or atomic coordinate data resulting 
# from the CCDC's data processing and validation procedures.
#
#######################################################################

data_COKDIQ
_symmetry_cell_setting           triclinic
_symmetry_space_group_name_H-M   'P -1'
_symmetry_Int_Tables_number      2
_space_group_name_Hall           '-P 1'
loop_
_symmetry_equiv_pos_site_id
_symmetry_equiv_pos_as_xyz
1 x,y,z
2 -x,-y,-z
_cell_length_a                   7.7149(7)
_cell_length_b                   9.1923(9)
_cell_length_c                   12.6485(12)
_cell_angle_alpha                91.8400(10)
_cell_angle_beta                 92.2170(10)
_cell_angle_gamma                110.6680(10)
_cell_volume                     837.639
loop_
_atom_site_label
_atom_site_type_symbol
_atom_site_fract_x
_atom_site_fract_y
_atom_site_fract_z
Cd1 Cd 0.5000 0.5000 0.5000
S1 S 0.20705(8) 0.56091(7) 0.68970(4)
O1 O 0.3887(2) 0.5993(2) 0.64573(12)
O2 O 0.1322(3) 0.6829(2) 0.67598(15)
N1 N 0.5004(3) 0.7111(2) 0.41582(14)
O3 O 0.0799(2) 0.4092(2) 0.65077(13)
N2 N 0.4197(3) 0.9086(2) 0.37497(14)
C1 C 0.0452(3) 0.9998(3) 0.05299(17)
O4 O 0.1864(3) 0.3567(2) 0.45143(17)
C2 C 0.3674(3) 0.7681(3) 0.41485(17)
H1 H 0.2502 0.7167 0.4391
C3 C 0.2174(3) 0.9985(3) 0.25378(18)
C4 C 0.1895(4) 0.9451(3) 0.06599(19)
H2 H 0.2318 0.9082 0.0066
C5 C 0.6471(3) 0.8212(3) 0.37228(19)
H3 H 0.7616 0.8125 0.3613
C6 C 0.0752(4) 1.0553(3) 0.2422(2)
H4 H 0.0355 1.0942 0.3017
C7 C 0.3004(4) 0.5457(3) 1.04523(19)
C8 C 0.5986(4) 0.9439(3) 0.3479(2)
H5 H 0.6728 1.0349 0.3184
C9 C 0.2732(4) 0.9432(3) 0.1644(2)
H6 H 0.3687 0.9038 0.1699
C10 C 0.1443(4) 0.4240(3) 0.8794(2)
H7 H 0.0579 0.3385 0.8423
C11 C 0.3750(4) 0.6758(3) 0.8828(2)
H8 H 0.4442 0.7629 0.8475
C12 C 0.1730(4) 0.4232(3) 0.9880(2)
H9 H 0.1031 0.3364 1.0233
C13 C 0.3072(4) 1.0068(3) 0.3632(2)
H10 H 0.3851 1.1139 0.3812
H11 H 0.2106 0.9767 0.4136
C14 C 0.4033(4) 0.6714(3) 0.9902(2)
H12 H 0.4939 0.7550 1.0267
C15 C -0.0096(4) 1.0556(4) 0.1444(2)
H13 H -0.1058 1.0941 0.1394
C16 C 0.2443(3) 0.5518(3) 0.82734(17)
C17 C 0.3272(5) 0.5430(4) 1.1634(2)
H14 H 0.2487 0.4444 1.1870
H15 H 0.2955 0.6248 1.1968
H16 H 0.4544 0.5581 1.1818
H17 H 0.122(5) 0.366(4) 0.404(3)
H18 H 0.132(5) 0.369(4) 0.511(3)
Cd1_2 Cd -0.5000 1.5000 -0.5000
S1A S 0.79295(8) 0.43909(7) 0.31030(4)
O1A O 0.6113(2) 0.4007(2) 0.35427(12)
O2A O 0.8678(3) 0.3171(2) 0.32402(15)
N1A N -0.5004(3) 1.2889(2) -0.41582(14)
N1A_2 N 0.4996(3) 0.2889(2) 0.58418(14)
O3A O 0.9201(2) 0.5908(2) 0.34923(13)
N2A N -0.4197(3) 1.0914(2) -0.37497(14)
C1A C -0.0452(3) 1.0002(3) -0.05299(17)
O4A O 0.8136(3) 0.6433(2) 0.54857(17)
C2A C -0.3674(3) 1.2319(3) -0.41485(17)
H1A H -0.2502 1.2833 -0.4391
C3A C -0.2174(3) 1.0015(3) -0.25378(18)
C4A C -0.1895(4) 1.0549(3) -0.06599(19)
H2A H -0.2318 1.0918 -0.0066
C5A C -0.6471(3) 1.1788(3) -0.37228(19)
H3A H -0.7616 1.1875 -0.3613
C6A C -0.0752(4) 0.9447(3) -0.2422(2)
H4A H -0.0355 0.9058 -0.3017
C7A C 0.6996(4) 0.4543(3) -0.04523(19)
C8A C -0.5986(4) 1.0561(3) -0.3479(2)
H5A H -0.6728 0.9651 -0.3184
C9A C -0.2732(4) 1.0568(3) -0.1644(2)
H6A H -0.3687 1.0962 -0.1699
C10A C 0.8557(4) 0.5760(3) 0.1206(2)
H7A H 0.9421 0.6615 0.1577
C11A C 0.6250(4) 0.3242(3) 0.1172(2)
H8A H 0.5558 0.2371 0.1525
C12A C 0.8270(4) 0.5768(3) 0.0120(2)
H9A H 0.8969 0.6636 -0.0233
C13A C -0.3072(4) 0.9932(3) -0.3632(2)
H10A H -0.3851 0.8861 -0.3812
H11A H -0.2106 1.0233 -0.4136
C14A C 0.5967(4) 0.3286(3) 0.0098(2)
H12A H 0.5061 0.2450 -0.0267
C15A C 0.0096(4) 0.9444(4) -0.1444(2)
H13A H 0.1058 0.9059 -0.1394
C16A C 0.7557(3) 0.4482(3) 0.17266(17)
C17A C 0.6728(5) 0.4570(4) -0.1634(2)
H14A H 0.7513 0.5556 -0.1870
H15A H 0.7045 0.3752 -0.1968
H16A H 0.5456 0.4419 -0.1818
H17A H 0.878(5) 0.634(4) 0.596(3)
H18A H 0.868(5) 0.631(4) 0.489(3)
loop_
_geom_bond_atom_site_label_1
_geom_bond_atom_site_label_2
_geom_bond_site_symmetry_1
_geom_bond_site_symmetry_2
Cd1 O1 1_555 1_555
S1 O1 1_555 1_555
O2 S1 1_555 1_555
N1 Cd1 1_555 1_555
O3 S1 1_555 1_555
N2 C2 1_555 1_555
C1 C4 1_555 1_555
O4 Cd1 1_555 1_555
C2 N1 1_555 1_555
H1 C2 1_555 1_555
C3 C6 1_555 1_555
C4 H2 1_555 1_555
C5 N1 1_555 1_555
H3 C5 1_555 1_555
C6 H4 1_555 1_555
C7 C12 1_555 1_555
C8 N2 1_555 1_555
H5 C8 1_555 1_555
C9 C3 1_555 1_555
H6 C9 1_555 1_555
C10 H7 1_555 1_555
C11 H8 1_555 1_555
C12 C10 1_555 1_555
H9 C12 1_555 1_555
C13 N2 1_555 1_555
H10 C13 1_555 1_555
H11 C13 1_555 1_555
C14 C7 1_555 1_555
H12 C14 1_555 1_555
C15 C1 1_555 1_555
H13 C15 1_555 1_555
C16 S1 1_555 1_555
C17 C7 1_555 1_555
H14 C17 1_555 1_555
H15 C17 1_555 1_555
H16 C17 1_555 1_555
H17 O4 1_555 1_555
H18 O4 1_555 1_555
Cd1_2 N1A 1_555 1_555
S1A O1A 1_555 1_555
O1A Cd1 1_555 1_555
O2A S1A 1_555 1_555
N1A C2A 1_555 1_555
N1A_2 Cd1 1_555 1_555
O3A S1A 1_555 1_555
N2A C2A 1_555 1_555
C1A C1 1_555 1_555
O4A Cd1 1_555 1_555
C2A H1A 1_555 1_555
C3A C6A 1_555 1_555
C4A C1A 1_555 1_555
H2A C4A 1_555 1_555
C5A N1A 1_555 1_555
H3A C5A 1_555 1_555
C6A H4A 1_555 1_555
C7A C12A 1_555 1_555
C8A N2A 1_555 1_555
H5A C8A 1_555 1_555
C9A C3A 1_555 1_555
H6A C9A 1_555 1_555
C10A H7A 1_555 1_555
C11A H8A 1_555 1_555
C12A C10A 1_555 1_555
H9A C12A 1_555 1_555
C13A N2A 1_555 1_555
H10A C13A 1_555 1_555
H11A C13A 1_555 1_555
C14A C7A 1_555 1_555
H12A C14A 1_555 1_555
C15A C1A 1_555 1_555
H13A C15A 1_555 1_555
C16A S1A 1_555 1_555
C17A C7A 1_555 1_555
H14A C17A 1_555 1_555
H15A C17A 1_555 1_555
H16A C17A 1_555 1_555
H17A O4A 1_555 1_555
H18A O4A 1_555 1_555
C3 C13 1_555 1_555
C4 C9 1_555 1_555
C5 C8 1_555 1_555
C6 C15 1_555 1_555
C10 C16 1_555 1_555
C11 C14 1_555 1_555
C11 C16 1_555 1_555
C3A C13A 1_555 1_555
C4A C9A 1_555 1_555
C5A C8A 1_555 1_555
C6A C15A 1_555 1_555
C10A C16A 1_555 1_555
C11A C14A 1_555 1_555
C11A C16A 1_555 1_555

#END
