
#######################################################################
#
#                 Cambridge Crystallographic Data Centre
#                                CCDC 
#
#######################################################################
#
# If this CIF has been generated from an entry in the Cambridge 
# Structural Database, then it will include bibliographic, chemical, 
# crystal, experimental, refinement or atomic coordinate data resulting 
# from the CCDC's data processing and validation procedures.
#
#######################################################################

data_COKDEM
_symmetry_cell_setting           triclinic
_symmetry_space_group_name_H-M   'P -1'
_symmetry_Int_Tables_number      2
_space_group_name_Hall           '-P 1'
loop_
_symmetry_equiv_pos_site_id
_symmetry_equiv_pos_as_xyz
1 x,y,z
2 -x,-y,-z
_cell_length_a                   9.9460(8)
_cell_length_b                   13.3417(11)
_cell_length_c                   14.7986(12)
_cell_angle_alpha                75.8580(10)
_cell_angle_beta                 87.6710(10)
_cell_angle_gamma                81.2440(10)
_cell_volume                     1882
loop_
_atom_site_label
_atom_site_type_symbol
_atom_site_fract_x
_atom_site_fract_y
_atom_site_fract_z
Cd1 Cd 0.23660(2) 0.014076(17) 0.249811(15)
C1 C 1.0710(3) -0.8704(2) 0.3937(2)
H1 H 1.0153 -0.8325 0.3443
C2 C 0.7476(4) -0.2909(3) 0.1023(3)
H2 H 0.8047 -0.2442 0.0718
N1 N 0.3001(3) -0.0431(2) 0.11883(18)
N2 N 0.1062(3) 0.16377(19) 0.16651(17)
C3 C 0.7032(4) -0.6209(3) 0.3303(3)
H3 H 0.6199 -0.6208 0.3040
O1 O 0.0352(3) -0.06569(19) 0.27269(17)
C4 C -0.3029(3) 0.6523(2) -0.4873(2)
N3 N -0.0101(3) -0.1215(2) 0.2268(2)
C5 C 0.6138(3) -0.2747(2) 0.0772(2)
N4 N 0.4371(3) -0.12189(19) 0.02908(18)
N5 N 1.1799(3) -0.93599(19) 0.38487(18)
O2 O 0.5377(3) 0.0856(2) 0.3473(2)
C6 C -0.1738(3) 0.3968(2) -0.1708(2)
H4 H -0.1279 0.3672 -0.2162
C7 C 0.1462(3) 0.2603(2) 0.1434(2)
H5 H 0.2350 0.2732 0.1467
C8 C 0.7730(3) -0.5366(2) 0.2965(2)
O3 O 0.4319(3) 0.1038(3) 0.22149(19)
N6 N -0.0708(3) 0.28221(19) 0.11929(17)
N7 N -0.6319(3) 0.86403(19) -0.66856(17)
O4 O -0.0490(4) -0.0812(3) 0.1471(2)
C9 C -0.2233(3) 0.3873(2) -0.0087(2)
N8 N -0.4497(2) 0.75081(18) -0.62012(16)
C10 C 0.2384(3) -0.0277(3) 0.0335(2)
H6 H 0.1525 0.0096 0.0170
C11 C -0.2574(3) 0.4934(2) -0.1977(2)
C12 C -0.3100(3) 0.7084(3) -0.5890(2)
H7 H -0.2561 0.7650 -0.5996
H8 H -0.2707 0.6602 -0.6259
C13 C -0.1579(3) 0.3445(2) -0.0778(2)
H9 H -0.1029 0.2799 -0.0618
C14 C 0.3229(3) -0.0753(3) -0.0221(2)
H10 H 0.3067 -0.0762 -0.0834
O5 O -0.0082(4) -0.2142(2) 0.2607(2)
C15 C -0.2644(3) 0.5448(2) -0.4603(2)
H11 H -0.2485 0.5064 -0.5054
C16 C -0.2755(3) 0.5482(2) -0.2974(2)
C17 C -0.5488(3) 0.6946(2) -0.6309(2)
H12 H -0.5413 0.6223 -0.6196
C18 C 0.7529(4) -0.7041(3) 0.4010(3)
H13 H 0.7022 -0.7584 0.4224
O6 O 0.5759(4) 0.2010(3) 0.2201(2)
C19 C 0.0380(3) 0.3341(2) 0.1152(2)
H14 H 0.0377 0.4060 0.0966
C20 C -0.2495(3) 0.4943(2) -0.3673(2)
H15 H -0.2214 0.4225 -0.3508
C21 C 0.5577(3) -0.1841(2) -0.0013(2)
H16 H 0.6271 -0.1399 -0.0228
H17 H 0.5334 -0.2105 -0.0530
C22 C 0.8763(3) -0.7082(2) 0.4406(2)
C23 C -0.3311(3) 0.7066(2) -0.4193(2)
H18 H -0.3596 0.7783 -0.4362
N9 N 0.5208(3) 0.1275(2) 0.2619(2)
C24 C -0.0254(3) 0.1804(2) 0.1504(2)
H19 H -0.0799 0.1280 0.1596
C25 C -0.3235(3) 0.5347(2) -0.1273(2)
H20 H -0.3810 0.5982 -0.1431
C26 C -0.5035(3) 0.8517(2) -0.6427(2)
H21 H -0.4567 0.9063 -0.6405
C27 C 0.7190(3) -0.4459(2) 0.2206(2)
C28 C -0.2101(3) 0.3302(3) 0.0934(2)
H22 H -0.2411 0.3792 0.1313
H23 H -0.2686 0.2765 0.1064
C29 C 0.8986(3) -0.5424(3) 0.3364(2)
H24 H 0.9502 -0.4886 0.3150
C30 C 0.9338(3) -0.8003(2) 0.5166(2)
H25 H 0.9642 -0.7757 0.5677
H26 H 0.8633 -0.8429 0.5401
C31 C -0.3177(3) 0.6556(2) -0.3255(2)
H27 H -0.3373 0.6939 -0.2806
C32 C 0.7991(4) -0.3755(3) 0.1720(3)
H28 H 0.8909 -0.3851 0.1866
C33 C -0.3055(3) 0.4832(2) -0.0343(2)
H29 H -0.3491 0.5133 0.0115
C34 C 0.5324(3) -0.3450(2) 0.1249(2)
H30 H 0.4411 -0.3359 0.1089
N10 N 1.0490(3) -0.86417(19) 0.48163(17)
C35 C 1.1495(3) -0.9319(2) 0.5341(2)
H31 H 1.1599 -0.9455 0.5983
C36 C 1.2308(3) -0.9753(2) 0.4743(2)
H32 H 1.3088 -1.0239 0.4906
C37 C -0.6601(3) 0.7648(2) -0.6615(2)
H33 H -0.7432 0.7484 -0.6755
C38 C 0.4190(3) -0.0997(2) 0.1123(2)
H34 H 0.4828 -0.1216 0.1600
C39 C 0.5833(3) -0.4284(2) 0.1957(2)
H35 H 0.5254 -0.4738 0.2275
C40 C 0.9484(3) -0.6265(3) 0.4074(3)
H36 H 1.0324 -0.6279 0.4334
Cd1_2 Cd 1.23660(2) -0.985924(17) 0.249811(15)
Cd1_3 Cd -0.76340(2) 1.014076(17) -0.750189(15)
N5_2 N 0.1799(3) 0.06401(19) 0.38487(18)
N7_2 N 0.3681(3) -0.13597(19) 0.33144(17)
loop_
_geom_bond_atom_site_label_1
_geom_bond_atom_site_label_2
_geom_bond_site_symmetry_1
_geom_bond_site_symmetry_2
Cd1 N1 1_555 1_555
C1 H1 1_555 1_555
C2 H2 1_555 1_555
N1 C10 1_555 1_555
N2 Cd1 1_555 1_555
C3 H3 1_555 1_555
O1 Cd1 1_555 1_555
C4 C12 1_555 1_555
N3 O1 1_555 1_555
C5 C2 1_555 1_555
N4 C14 1_555 1_555
N5 C1 1_555 1_555
O2 N9 1_555 1_555
C6 H4 1_555 1_555
C7 N2 1_555 1_555
H5 C7 1_555 1_555
C8 C3 1_555 1_555
O3 Cd1 1_555 1_555
N6 C19 1_555 1_555
N7 C26 1_555 1_555
O4 N3 1_555 1_555
C9 C13 1_555 1_555
N8 C12 1_555 1_555
C10 H6 1_555 1_555
C11 C6 1_555 1_555
C12 H7 1_555 1_555
H8 C12 1_555 1_555
C13 C6 1_555 1_555
H9 C13 1_555 1_555
C14 C10 1_555 1_555
H10 C14 1_555 1_555
O5 N3 1_555 1_555
C15 C4 1_555 1_555
H11 C15 1_555 1_555
C16 C11 1_555 1_555
C17 N8 1_555 1_555
H12 C17 1_555 1_555
C18 C3 1_555 1_555
H13 C18 1_555 1_555
O6 N9 1_555 1_555
C19 C7 1_555 1_555
H14 C19 1_555 1_555
C20 C15 1_555 1_555
H15 C20 1_555 1_555
C21 C5 1_555 1_555
H16 C21 1_555 1_555
H17 C21 1_555 1_555
C22 C18 1_555 1_555
C23 C4 1_555 1_555
H18 C23 1_555 1_555
N9 O3 1_555 1_555
C24 N2 1_555 1_555
H19 C24 1_555 1_555
C25 C11 1_555 1_555
H20 C25 1_555 1_555
C26 N8 1_555 1_555
H21 C26 1_555 1_555
C27 C8 1_555 1_555
C28 N6 1_555 1_555
H22 C28 1_555 1_555
H23 C28 1_555 1_555
C29 C8 1_555 1_555
H24 C29 1_555 1_555
C30 C22 1_555 1_555
H25 C30 1_555 1_555
H26 C30 1_555 1_555
C31 C16 1_555 1_555
H27 C31 1_555 1_555
C32 C2 1_555 1_555
H28 C32 1_555 1_555
C33 C9 1_555 1_555
H29 C33 1_555 1_555
C34 C5 1_555 1_555
H30 C34 1_555 1_555
N10 C1 1_555 1_555
C35 N10 1_555 1_555
H31 C35 1_555 1_555
C36 N5 1_555 1_555
H32 C36 1_555 1_555
C37 N7 1_555 1_555
H33 C37 1_555 1_555
C38 N1 1_555 1_555
H34 C38 1_555 1_555
C39 C27 1_555 1_555
H35 C39 1_555 1_555
C40 C22 1_555 1_555
H36 C40 1_555 1_555
Cd1_2 N5 1_555 1_555
Cd1_3 N7 1_555 1_555
N5_2 Cd1 1_555 1_555
N7_2 Cd1 1_555 1_555
N4 C21 1_555 1_555
N4 C38 1_555 1_555
N6 C24 1_555 1_555
C9 C28 1_555 1_555
C16 C20 1_555 1_555
C17 C37 1_555 1_555
C23 C31 1_555 1_555
C25 C33 1_555 1_555
C27 C32 1_555 1_555
C29 C40 1_555 1_555
C30 N10 1_555 1_555
C34 C39 1_555 1_555
C35 C36 1_555 1_555

#END
