
#######################################################################
#
#                 Cambridge Crystallographic Data Centre
#                                CCDC 
#
#######################################################################
#
# If this CIF has been generated from an entry in the Cambridge 
# Structural Database, then it will include bibliographic, chemical, 
# crystal, experimental, refinement or atomic coordinate data resulting 
# from the CCDC's data processing and validation procedures.
#
#######################################################################

data_COKFEO
_symmetry_cell_setting           monoclinic
_symmetry_space_group_name_H-M   'P 2/c'
_symmetry_Int_Tables_number      13
_space_group_name_Hall           '-P 2yc'
loop_
_symmetry_equiv_pos_site_id
_symmetry_equiv_pos_as_xyz
1 x,y,z
2 -x,y,1/2-z
3 -x,-y,-z
4 x,-y,1/2+z
_cell_length_a                   14.1572(17)
_cell_length_b                   9.6534(12)
_cell_length_c                   17.317(2)
_cell_angle_alpha                90
_cell_angle_beta                 91.729(2)
_cell_angle_gamma                90
_cell_volume                     2365.55
loop_
_atom_site_label
_atom_site_type_symbol
_atom_site_fract_x
_atom_site_fract_y
_atom_site_fract_z
C1 C -0.0802(4) 0.0462(6) 0.6545(3)
H1 H -0.0873 -0.0486 0.6619
C2 C -0.0472(4) 0.2437(6) 0.6049(3)
H2 H -0.0264 0.3108 0.5709
C3 C -0.0820(4) 0.2696(6) 0.6748(3)
H3 H -0.0908 0.3560 0.6972
C4 C -0.1443(4) 0.1150(6) 0.7817(3)
H4 H -0.1255 0.1870 0.8181
H5 H -0.1212 0.0271 0.8018
C5 C -0.2503(4) 0.1108(5) 0.7737(3)
C6 C -0.2965(4) -0.0101(6) 0.7514(3)
H6 H -0.2615 -0.0899 0.7426
C7 C -0.3037(4) 0.2283(6) 0.7871(3)
H7 H -0.2737 0.3100 0.8024
C8 C -0.3932(4) -0.0137(5) 0.7422(3)
H8 H -0.4228 -0.0959 0.7273
C9 C -0.4005(4) 0.2250(6) 0.7780(3)
H9 H -0.4350 0.3049 0.7875
C10 C -0.4483(4) 0.1050(5) 0.7548(3)
C11 C -0.1152(4) -0.2467(6) 0.5448(3)
H10 H -0.0654 -0.2842 0.5741
C12 C -0.2533(4) -0.2208(6) 0.4898(3)
H11 H -0.3159 -0.2347 0.4738
C13 C -0.1976(4) -0.1127(6) 0.4710(3)
H12 H -0.2155 -0.0388 0.4393
C14 C -0.2268(4) -0.4396(6) 0.5680(4)
H13 H -0.1728 -0.4792 0.5958
H14 H -0.2438 -0.5014 0.5257
C15 C -0.3089(4) -0.4295(6) 0.6219(3)
C16 C -0.4002(4) -0.4588(6) 0.5964(4)
H15 H -0.4116 -0.4841 0.5451
C17 C -0.2928(4) -0.3916(5) 0.6989(3)
H16 H -0.2319 -0.3708 0.7171
C18 C -0.4749(4) -0.4511(6) 0.6459(3)
H17 H -0.5358 -0.4701 0.6273
C19 C -0.3678(4) -0.3849(6) 0.7481(3)
H18 H -0.3564 -0.3593 0.7993
C20 C -0.4602(4) -0.4154(5) 0.7234(3)
N1 N -0.0470(3) 0.1028(4) 0.5911(2)
N2 N -0.1021(3) 0.1426(4) 0.7064(2)
N3 N -0.1103(3) -0.1302(4) 0.5063(2)
N4 N -0.2002(3) -0.3050(5) 0.5367(2)
O4 O 0.0985(3) -0.1635(4) 0.5846(2)
Cu1 Cu 0.0000 0.0000 0.5000
C1A C -0.9198(4) 0.0462(6) 0.8455(3)
H1A H -0.9127 -0.0486 0.8381
C2A C -0.9528(4) 0.2437(6) 0.8951(3)
H2A H -0.9736 0.3108 0.9291
C3A C -0.9180(4) 0.2696(6) 0.8252(3)
H3A H -0.9092 0.3560 0.8028
C4A C -0.8557(4) 0.1150(6) 0.7183(3)
H4A H -0.8745 0.1870 0.6819
H5A H -0.8788 0.0271 0.6982
C5A C -0.7497(4) 0.1108(5) 0.7263(3)
C6A C -0.7035(4) -0.0101(6) 0.7486(3)
H6A H -0.7385 -0.0899 0.7574
C7A C -0.6963(4) 0.2283(6) 0.7129(3)
H7A H -0.7263 0.3100 0.6976
C8A C -0.6068(4) -0.0137(5) 0.7578(3)
H8A H -0.5772 -0.0959 0.7727
C9A C -0.5995(4) 0.2250(6) 0.7220(3)
H9A H -0.5650 0.3049 0.7125
C10A C -0.5517(4) 0.1050(5) 0.7452(3)
C11A C -0.8848(4) -0.2467(6) 0.9552(3)
H10A H -0.9346 -0.2842 0.9259
C12A C -0.7467(4) -0.2208(6) 1.0102(3)
H11A H -0.6841 -0.2347 1.0262
C13A C -0.8024(4) -0.1127(6) 1.0290(3)
H12A H -0.7845 -0.0388 1.0607
C14A C -0.7732(4) -0.4396(6) 0.9320(4)
H13A H -0.8272 -0.4792 0.9042
H14A H -0.7562 -0.5014 0.9743
C15A C -0.6911(4) -0.4295(6) 0.8781(3)
C16A C -0.5998(4) -0.4588(6) 0.9036(4)
H15A H -0.5884 -0.4841 0.9549
C17A C -0.7072(4) -0.3916(5) 0.8011(3)
H16A H -0.7681 -0.3708 0.7829
C18A C -0.5251(4) -0.4511(6) 0.8541(3)
H17A H -0.4642 -0.4701 0.8727
C19A C -0.6322(4) -0.3849(6) 0.7519(3)
H18A H -0.6436 -0.3593 0.7007
C20A C -0.5398(4) -0.4154(5) 0.7766(3)
N1A N -0.9530(3) 0.1028(4) 0.9089(2)
N1B N 0.0470(3) -0.1028(4) 0.4089(2)
N2A N -0.8979(3) 0.1426(4) 0.7936(2)
N3A N -0.8897(3) -0.1302(4) 0.9937(2)
N3B N 0.1103(3) 0.1302(4) 0.4937(2)
N4A N -0.7998(3) -0.3050(5) 0.9633(2)
O4B O -0.0985(3) 0.1635(4) 0.4154(2)
Cu1C Cu -1.0000 0.0000 1.0000
C21 C 0.4244(7) -0.1383(10) 0.5498(7)
H19 H 0.4374 -0.1763 0.6003
H20 H 0.4116 -0.0410 0.5542
H21 H 0.4782 -0.1519 0.5182
C22 C 0.3435(6) -0.2069(8) 0.5151(5)
C23 C 0.3139(6) -0.1781(8) 0.4343(4)
H22 H 0.2558 -0.2258 0.4223
H23 H 0.3619 -0.2096 0.4005
H24 H 0.3047 -0.0803 0.4276
O3 O 0.2986(5) -0.2850(7) 0.5552(3)
O1 O -0.0216(3) -0.4141(4) 0.6824(2)
O2 O 0.0820(3) -0.2391(4) 0.7344(2)
S1 S 0.0000 -0.32695(18) 0.7500
O1A O 0.0216(3) -0.4141(4) 0.8176(2)
O2A O -0.0820(3) -0.2391(4) 0.7656(2)
O5 O 0.1327(9) -0.5045(9) 0.6062(8)
loop_
_geom_bond_atom_site_label_1
_geom_bond_atom_site_label_2
_geom_bond_site_symmetry_1
_geom_bond_site_symmetry_2
C1 H1 1_555 1_555
C2 H2 1_555 1_555
C3 C2 1_555 1_555
H3 C3 1_555 1_555
C4 H4 1_555 1_555
H5 C4 1_555 1_555
C5 C4 1_555 1_555
C6 C5 1_555 1_555
H6 C6 1_555 1_555
C7 C5 1_555 1_555
H7 C7 1_555 1_555
C8 C6 1_555 1_555
H8 C8 1_555 1_555
C9 C7 1_555 1_555
H9 C9 1_555 1_555
C10 C8 1_555 1_555
C11 H10 1_555 1_555
C12 H11 1_555 1_555
C13 C12 1_555 1_555
H12 C13 1_555 1_555
C14 H13 1_555 1_555
H14 C14 1_555 1_555
C15 C14 1_555 1_555
C16 C15 1_555 1_555
H15 C16 1_555 1_555
C17 C15 1_555 1_555
H16 C17 1_555 1_555
C18 C16 1_555 1_555
H17 C18 1_555 1_555
C19 C17 1_555 1_555
H18 C19 1_555 1_555
C20 C18 1_555 1_555
C21 H19 1_555 1_555
H20 C21 1_555 1_555
H21 C21 1_555 1_555
C22 C21 1_555 1_555
C23 C22 1_555 1_555
H22 C23 1_555 1_555
H23 C23 1_555 1_555
H24 C23 1_555 1_555
N1 C1 1_555 1_555
N2 C1 1_555 1_555
N3 C11 1_555 1_555
N4 C11 1_555 1_555
O1 S1 1_555 1_555
O2 S1 1_555 1_555
O3 C22 1_555 1_555
O4 Cu1 1_555 1_555
S1 O1A 1_555 1_555
Cu1 N1 1_555 1_555
C1A H1A 1_555 1_555
C2A H2A 1_555 1_555
C3A C2A 1_555 1_555
H3A C3A 1_555 1_555
C4A H4A 1_555 1_555
H5A C4A 1_555 1_555
C5A C4A 1_555 1_555
C6A C5A 1_555 1_555
H6A C6A 1_555 1_555
C7A C5A 1_555 1_555
H7A C7A 1_555 1_555
C8A C6A 1_555 1_555
H8A C8A 1_555 1_555
C9A C7A 1_555 1_555
H9A C9A 1_555 1_555
C10A C10 1_555 1_555
C11A H10A 1_555 1_555
C12A H11A 1_555 1_555
C13A C12A 1_555 1_555
H12A C13A 1_555 1_555
C14A H13A 1_555 1_555
H14A C14A 1_555 1_555
C15A C14A 1_555 1_555
C16A C15A 1_555 1_555
H15A C16A 1_555 1_555
C17A C15A 1_555 1_555
H16A C17A 1_555 1_555
C18A C16A 1_555 1_555
H17A C18A 1_555 1_555
C19A C17A 1_555 1_555
H18A C19A 1_555 1_555
C20A C20 1_555 1_555
N1A C1A 1_555 1_555
N1B Cu1 1_555 1_555
N2A C1A 1_555 1_555
N3A C11A 1_555 1_555
N3B Cu1 1_555 1_555
N4A C11A 1_555 1_555
O2A S1 1_555 1_555
O4B Cu1 1_555 1_555
Cu1C N1A 1_555 1_555
C2 N1 1_555 1_555
C3 N2 1_555 1_555
C4 N2 1_555 1_555
C9 C10 1_555 1_555
C12 N4 1_555 1_555
C13 N3 1_555 1_555
C14 N4 1_555 1_555
C19 C20 1_555 1_555
N3 Cu1 1_555 1_555
C2A N1A 1_555 1_555
C3A N2A 1_555 1_555
C4A N2A 1_555 1_555
C8A C10A 1_555 1_555
C9A C10A 1_555 1_555
C12A N4A 1_555 1_555
C13A N3A 1_555 1_555
C14A N4A 1_555 1_555
C18A C20A 1_555 1_555
C19A C20A 1_555 1_555
N3A Cu1C 1_555 1_555

#END
