
#######################################################################
#
#                 Cambridge Crystallographic Data Centre
#                                CCDC 
#
#######################################################################
#
# If this CIF has been generated from an entry in the Cambridge 
# Structural Database, then it will include bibliographic, chemical, 
# crystal, experimental, refinement or atomic coordinate data resulting 
# from the CCDC's data processing and validation procedures.
#
#######################################################################

data_COKKUJ
_symmetry_cell_setting           monoclinic
_symmetry_space_group_name_H-M   'P 21/n'
_symmetry_Int_Tables_number      14
_space_group_name_Hall           '-P 2yn'
loop_
_symmetry_equiv_pos_site_id
_symmetry_equiv_pos_as_xyz
1 x,y,z
2 1/2-x,1/2+y,1/2-z
3 -x,-y,-z
4 1/2+x,1/2-y,1/2+z
_cell_length_a                   6.8414(14)
_cell_length_b                   30.770(6)
_cell_length_c                   13.349(3)
_cell_angle_alpha                90
_cell_angle_beta                 103.68(3)
_cell_angle_gamma                90
_cell_volume                     2730.38
loop_
_atom_site_label
_atom_site_type_symbol
_atom_site_fract_x
_atom_site_fract_y
_atom_site_fract_z
C1 C 0.4168(6) 0.13300(12) 0.7363(3)
C2 C 1.0838(5) 0.13261(12) 0.7818(3)
C3 C 0.0724(6) 0.08779(12) 0.6216(3)
C4 C 0.4322(6) 0.08451(12) 0.8874(3)
C5 C 0.5449(5) 0.04289(11) 0.6536(3)
H1 H 0.5918 0.0703 0.6412
C6 C 0.6274(5) 0.00586(11) 0.6209(3)
H2 H 0.7303 0.0084 0.5865
C7 C 0.5565(5) -0.03515(11) 0.6394(3)
C8 C 0.4046(5) -0.03892(11) 0.6908(3)
H3 H 0.3578 -0.0663 0.7031
C9 C 0.3212(5) -0.00233(12) 0.7241(3)
C10 C 0.1692(6) -0.00253(12) 0.7788(3)
C11 C 0.0860(5) -0.04004(11) 0.8082(3)
H4 H 0.1327 -0.0670 0.7928
C12 C -0.0659(5) -0.03761(12) 0.8602(3)
C13 C -0.1339(5) 0.00289(11) 0.8848(3)
H5 H -0.2352 0.0046 0.9203
C14 C -0.0499(5) 0.04067(11) 0.8560(3)
H6 H -0.0952 0.0677 0.8721
C15 C 0.6419(6) -0.07100(11) 0.5877(3)
H7 H 0.6585 -0.0965 0.6303
H8 H 0.7702 -0.0623 0.5770
H9 H 0.5521 -0.0773 0.5224
C16 C -0.1552(6) -0.07461(11) 0.9073(3)
H10 H -0.2534 -0.0636 0.9416
H11 H -0.0509 -0.0893 0.9563
H12 H -0.2185 -0.0946 0.8542
C17 C 0.7437(5) 0.17164(11) 1.0032(2)
H13 H 0.7397 0.1435 0.9771
C18 C 0.7475(5) 0.17839(12) 1.1067(3)
H14 H 0.7440 0.1548 1.1497
C19 C 0.7565(6) 0.22059(11) 1.1459(3)
H15 H 0.7604 0.2252 1.2152
C20 C 0.7596(5) 0.25576(12) 1.0807(3)
H16 H 0.7651 0.2839 1.1065
C21 C 0.7546(5) 0.24908(11) 0.9773(3)
C22 C 0.7541(6) 0.28279(13) 0.9082(3)
C23 C 0.7447(5) 0.29664(12) 0.7108(3)
C24 C 0.7476(6) 0.27697(12) 0.6098(3)
C25 C 0.7412(6) 0.29670(11) 0.5160(3)
H17 H 0.7398 0.3269 0.5110
C26 C 0.7370(6) 0.27152(11) 0.4295(3)
H18 H 0.7318 0.2848 0.3663
C27 C 0.7404(5) 0.22673(12) 0.4368(3)
H19 H 0.7374 0.2099 0.3786
C28 C 0.7483(6) 0.20676(12) 0.5310(3)
H20 H 0.7521 0.1766 0.5359
Cu1 Cu 0.75603(7) 0.206037(14) 0.77473(4)
Fe1 Fe 0.24984(7) 0.086780(19) 0.75522(3)
N1 N 0.5238(4) 0.16161(9) 0.7265(2)
N2 N 0.9820(4) 0.16140(10) 0.7983(2)
N3 N -0.0375(5) 0.08872(9) 0.5391(2)
N4 N 0.5475(5) 0.08299(9) 0.9681(2)
N5 N 0.3912(4) 0.03872(9) 0.7053(2)
N6 N 0.1020(4) 0.03788(9) 0.8033(2)
N7 N 0.7460(5) 0.20717(9) 0.9386(2)
N8 N 0.7506(5) 0.23185(9) 0.6177(2)
N9 N 0.7546(4) 0.27333(9) 0.8009(2)
O1 O 0.7413(4) 0.32087(8) 0.93344(18)
O2 O 0.7495(3) 0.33633(8) 0.72348(18)
C2_2 C 0.0838(5) 0.13261(12) 0.7818(3)
Fe1_2 Fe 1.24984(7) 0.086780(19) 0.75522(3)
loop_
_geom_bond_atom_site_label_1
_geom_bond_atom_site_label_2
_geom_bond_site_symmetry_1
_geom_bond_site_symmetry_2
C1 Fe1 1_555 1_555
C2 N2 1_555 1_555
C3 Fe1 1_555 1_555
C4 Fe1 1_555 1_555
C5 H1 1_555 1_555
C6 C5 1_555 1_555
H2 C6 1_555 1_555
C7 C6 1_555 1_555
C8 C7 1_555 1_555
H3 C8 1_555 1_555
C9 C8 1_555 1_555
C10 C9 1_555 1_555
C11 C10 1_555 1_555
H4 C11 1_555 1_555
C12 C11 1_555 1_555
C13 C12 1_555 1_555
H5 C13 1_555 1_555
C14 C13 1_555 1_555
H6 C14 1_555 1_555
C15 C7 1_555 1_555
H7 C15 1_555 1_555
H8 C15 1_555 1_555
H9 C15 1_555 1_555
C16 C12 1_555 1_555
H10 C16 1_555 1_555
H11 C16 1_555 1_555
H12 C16 1_555 1_555
C17 H13 1_555 1_555
C18 C17 1_555 1_555
H14 C18 1_555 1_555
C19 C18 1_555 1_555
H15 C19 1_555 1_555
C20 C19 1_555 1_555
H16 C20 1_555 1_555
C21 C20 1_555 1_555
C22 C21 1_555 1_555
C23 C24 1_555 1_555
C24 C25 1_555 1_555
C25 H17 1_555 1_555
C26 C25 1_555 1_555
H18 C26 1_555 1_555
C27 C26 1_555 1_555
H19 C27 1_555 1_555
C28 C27 1_555 1_555
H20 C28 1_555 1_555
Cu1 N1 1_555 1_555
Fe1 N5 1_555 1_555
N1 C1 1_555 1_555
N2 Cu1 1_555 1_555
N3 C3 1_555 1_555
N4 C4 1_555 1_555
N5 C5 1_555 1_555
N6 C10 1_555 1_555
N7 C17 1_555 1_555
N8 C24 1_555 1_555
N9 C22 1_555 1_555
O1 C22 1_555 1_555
O2 C23 1_555 1_555
C2_2 Fe1 1_555 1_555
Fe1_2 C2 1_555 1_555
C9 N5 1_555 1_555
C14 N6 1_555 1_555
C21 N7 1_555 1_555
C23 N9 1_555 1_555
C28 N8 1_555 1_555
Cu1 N7 1_555 1_555
Cu1 N8 1_555 1_555
Cu1 N9 1_555 1_555
Fe1 N6 1_555 1_555

#END
