
#######################################################################
#
#                 Cambridge Crystallographic Data Centre
#                                CCDC 
#
#######################################################################
#
# If this CIF has been generated from an entry in the Cambridge 
# Structural Database, then it will include bibliographic, chemical, 
# crystal, experimental, refinement or atomic coordinate data resulting 
# from the CCDC's data processing and validation procedures.
#
#######################################################################

data_COKLEV
_symmetry_cell_setting           triclinic
_symmetry_space_group_name_H-M   'P -1'
_symmetry_Int_Tables_number      2
_space_group_name_Hall           '-P 1'
loop_
_symmetry_equiv_pos_site_id
_symmetry_equiv_pos_as_xyz
1 x,y,z
2 -x,-y,-z
_cell_length_a                   8.3536(9)
_cell_length_b                   10.0782(10)
_cell_length_c                   11.2967(12)
_cell_angle_alpha                74.969(2)
_cell_angle_beta                 74.612(2)
_cell_angle_gamma                68.4250(10)
_cell_volume                     838.727
loop_
_atom_site_label
_atom_site_type_symbol
_atom_site_fract_x
_atom_site_fract_y
_atom_site_fract_z
O1 O 0.2040(4) 0.7825(3) 0.6028(3)
O2 O 0.3389(5) 0.6874(4) 0.4353(4)
C1 C 0.2456(6) 0.6848(5) 0.5390(5)
Cd1 Cd 0.34914(3) -0.07457(3) 0.44144(3)
N1 N 0.5233(4) -0.0820(4) 0.2501(3)
N2 N 0.6853(5) -0.0429(5) 0.0652(3)
O3 O 0.1593(5) 0.1052(4) 0.5533(4)
O4 O 0.3993(4) 0.1609(3) 0.4667(3)
O5 O 0.1080(4) 0.0082(4) 0.3382(3)
H1 H 0.0470 0.0939 0.3497
H2 H 0.0438 -0.0457 0.3705
Br1 Br -0.20576(11) 0.46268(7) 0.89138(7)
C2 C 0.2475(6) 0.1894(4) 0.5333(4)
C3 C 0.1694(5) 0.3245(4) 0.5872(4)
C4 C 0.0318(6) 0.3348(5) 0.6892(4)
H3 H -0.0200 0.2621 0.7189
C5 C -0.0265(6) 0.4539(5) 0.7454(5)
C6 C 0.0414(7) 0.5672(5) 0.7010(5)
H4 H 0.0001 0.6465 0.7411
C7 C 0.1728(5) 0.5601(4) 0.5952(4)
C8 C 0.2378(5) 0.4377(4) 0.5403(4)
H5 H 0.3286 0.4318 0.4712
C9 C 0.5634(7) 0.1628(6) 0.1832(5)
H6 H 0.4520 0.1980 0.2361
H7 H 0.5659 0.2257 0.1032
H8 H 0.6551 0.1608 0.2206
C10 C 0.5899(5) 0.0144(5) 0.1671(4)
C11 C 0.5790(6) -0.2047(6) 0.1968(4)
H9 H 0.5519 -0.2896 0.2337
C12 C 0.6787(6) -0.1815(6) 0.0833(5)
H10 H 0.7324 -0.2462 0.0280
C13 C 0.7810(6) 0.0264(7) -0.0488(4)
H11 H 0.7349 0.1308 -0.0543
H12 H 0.7621 0.0039 -0.1214
C14 C 0.9771(6) -0.0249(6) -0.0496(4)
H13 H 1.0205 -0.1300 -0.0367
H14 H 1.0364 0.0111 -0.1311
N1A N 1.4767(4) 0.0820(4) -0.2501(3)
N2A N 1.3147(5) 0.0429(5) -0.0652(3)
C9A C 1.4366(7) -0.1628(6) -0.1832(5)
H6A H 1.5480 -0.1980 -0.2361
H7A H 1.4341 -0.2257 -0.1032
H8A H 1.3449 -0.1608 -0.2206
C10A C 1.4101(5) -0.0144(5) -0.1671(4)
C11A C 1.4210(6) 0.2047(6) -0.1968(4)
H9A H 1.4481 0.2896 -0.2337
C12A C 1.3213(6) 0.1815(6) -0.0833(5)
H10A H 1.2676 0.2462 -0.0280
C13A C 1.2190(6) -0.0264(7) 0.0488(4)
H11A H 1.2651 -0.1308 0.0543
H12A H 1.2379 -0.0039 0.1214
C14A C 1.0229(6) 0.0249(6) 0.0496(4)
H13A H 0.9795 0.1300 0.0367
H14A H 0.9636 -0.0111 0.1311
O1A O 0.7960(4) -0.7825(3) 0.3972(3)
O2A O 0.6611(5) -0.6874(4) 0.5647(4)
C1A C 0.7544(6) -0.6848(5) 0.4610(5)
Cd1A Cd 0.65086(3) 0.07457(3) 0.55856(3)
O3A O 0.8407(5) -0.1052(4) 0.4467(4)
O4A O 0.6007(4) -0.1609(3) 0.5333(3)
O5A O 0.8920(4) -0.0082(4) 0.6618(3)
H1A H 0.9530 -0.0939 0.6503
H2A H 0.9562 0.0457 0.6295
Br1A Br 1.20576(11) -0.46268(7) 0.10862(7)
C2A C 0.7525(6) -0.1894(4) 0.4667(4)
C3A C 0.8306(5) -0.3245(4) 0.4128(4)
C4A C 0.9682(6) -0.3348(5) 0.3108(4)
H3A H 1.0200 -0.2621 0.2811
C5A C 1.0265(6) -0.4539(5) 0.2546(5)
C6A C 0.9586(7) -0.5672(5) 0.2990(5)
H4A H 0.9999 -0.6465 0.2589
C7A C 0.8272(5) -0.5601(4) 0.4048(4)
C8A C 0.7622(5) -0.4377(4) 0.4597(4)
H5A H 0.6714 -0.4318 0.5288
O1_2 O 0.2040(4) -0.2175(3) 0.6028(3)
O1A_2 O 0.7960(4) 0.2175(3) 0.3972(3)
O2_2 O 0.3389(5) -0.3126(4) 0.4353(4)
O2A_2 O 0.6611(5) 0.3126(4) 0.5647(4)
Cd1_2 Cd 0.34914(3) 0.92543(3) 0.44144(3)
Cd1A_2 Cd 0.65086(3) -0.92543(3) 0.55856(3)
Cd1A_3 Cd 1.65086(3) 0.07457(3) -0.44144(3)
N1A_2 N 0.4767(4) 0.0820(4) 0.7499(3)
loop_
_geom_bond_atom_site_label_1
_geom_bond_atom_site_label_2
_geom_bond_site_symmetry_1
_geom_bond_site_symmetry_2
O1 C1 1_555 1_555
O2 C1 1_555 1_555
C1 C7 1_555 1_555
Cd1 N1 1_555 1_555
N1 C10 1_555 1_555
N2 C10 1_555 1_555
O3 Cd1 1_555 1_555
O4 Cd1 1_555 1_555
O5 Cd1 1_555 1_555
H1 O5 1_555 1_555
H2 O5 1_555 1_555
Br1 C5 1_555 1_555
C2 O3 1_555 1_555
C3 C2 1_555 1_555
C4 C3 1_555 1_555
H3 C4 1_555 1_555
C5 C4 1_555 1_555
C6 C5 1_555 1_555
H4 C6 1_555 1_555
C7 C6 1_555 1_555
C8 C3 1_555 1_555
H5 C8 1_555 1_555
C9 H6 1_555 1_555
H7 C9 1_555 1_555
H8 C9 1_555 1_555
C10 C9 1_555 1_555
C11 N1 1_555 1_555
H9 C11 1_555 1_555
C12 N2 1_555 1_555
H10 C12 1_555 1_555
C13 N2 1_555 1_555
H11 C13 1_555 1_555
H12 C13 1_555 1_555
C14 C13 1_555 1_555
H13 C14 1_555 1_555
H14 C14 1_555 1_555
N1A C10A 1_555 1_555
N2A C10A 1_555 1_555
C9A H6A 1_555 1_555
H7A C9A 1_555 1_555
H8A C9A 1_555 1_555
C10A C9A 1_555 1_555
C11A N1A 1_555 1_555
H9A C11A 1_555 1_555
C12A N2A 1_555 1_555
H10A C12A 1_555 1_555
C13A N2A 1_555 1_555
H11A C13A 1_555 1_555
H12A C13A 1_555 1_555
C14A C14 1_555 1_555
H13A C14A 1_555 1_555
H14A C14A 1_555 1_555
O1A C1A 1_555 1_555
O2A C1A 1_555 1_555
C1A C7A 1_555 1_555
Cd1A O4 1_555 1_555
O3A Cd1A 1_555 1_555
O4A Cd1 1_555 1_555
O5A Cd1A 1_555 1_555
H1A O5A 1_555 1_555
H2A O5A 1_555 1_555
Br1A C5A 1_555 1_555
C2A O3A 1_555 1_555
C3A C2A 1_555 1_555
C4A C3A 1_555 1_555
H3A C4A 1_555 1_555
C5A C4A 1_555 1_555
C6A C5A 1_555 1_555
H4A C6A 1_555 1_555
C7A C6A 1_555 1_555
C8A C3A 1_555 1_555
H5A C8A 1_555 1_555
O1_2 Cd1 1_555 1_555
O1A_2 Cd1A 1_555 1_555
O2_2 Cd1 1_555 1_555
O2A_2 Cd1A 1_555 1_555
Cd1_2 O1 1_555 1_555
Cd1A_2 O1A 1_555 1_555
Cd1A_3 N1A 1_555 1_555
N1A_2 Cd1A 1_555 1_555
O2 Cd1_2 1_555 1_555
O4 C2 1_555 1_555
C7 C8 1_555 1_555
C11 C12 1_555 1_555
C11A C12A 1_555 1_555
C13A C14A 1_555 1_555
O2A Cd1A_2 1_555 1_555
Cd1A O4A 1_555 1_555
O4A C2A 1_555 1_555
C7A C8A 1_555 1_555

#END
