
#######################################################################
#
#                 Cambridge Crystallographic Data Centre
#                                CCDC 
#
#######################################################################
#
# If this CIF has been generated from an entry in the Cambridge 
# Structural Database, then it will include bibliographic, chemical, 
# crystal, experimental, refinement or atomic coordinate data resulting 
# from the CCDC's data processing and validation procedures.
#
#######################################################################

data_COKNUL
_symmetry_cell_setting           monoclinic
_symmetry_space_group_name_H-M   'C 2/c'
_symmetry_Int_Tables_number      15
_space_group_name_Hall           '-C 2yn'
loop_
_symmetry_equiv_pos_site_id
_symmetry_equiv_pos_as_xyz
1 x,y,z
2 1/2+x,1/2+y,z
3 -x,y,1/2-z
4 1/2-x,1/2+y,1/2-z
5 -x,-y,-z
6 1/2-x,1/2-y,-z
7 x,-y,1/2+z
8 1/2+x,1/2-y,1/2+z
_cell_length_a                   23.120(9)
_cell_length_b                   13.751(4)
_cell_length_c                   6.663(2)
_cell_angle_alpha                90
_cell_angle_beta                 100.43(2)
_cell_angle_gamma                90
_cell_volume                     2083.32
loop_
_atom_site_label
_atom_site_type_symbol
_atom_site_fract_x
_atom_site_fract_y
_atom_site_fract_z
Cu1 Cu 0.06619(6) 0.06371(10) 0.35205(21)
N1 N 0.0000 -0.0298(11) 0.2500
N2 N 0.0000 -0.1167(14) 0.2500
N3 N 0.0000 -0.1986(14) 0.2500
N4 N 0.0000 0.1502(11) 0.2500
N5 N 0.0000 0.2398(18) 0.2500
N6 N 0.0000 0.3319(15) 0.2500
N7 N 0.1100(4) -0.0293(7) 0.5535(14)
N8 N 0.1608(4) -0.0450(7) 0.5642(13)
N9 N 0.2089(5) -0.0634(10) 0.5783(17)
N10 N 0.1230(4) 0.1729(7) 0.4281(14)
C1 C 0.1292(5) 0.2400(9) 0.2899(21)
C2 C 0.1631(6) 0.3244(10) 0.3326(23)
C3 C 0.1941(6) 0.3321(11) 0.5353(23)
C4 C 0.1885(6) 0.2652(11) 0.6739(23)
C5 C 0.1529(5) 0.1854(11) 0.6183(19)
C6 C 0.1650(8) 0.3996(11) 0.1696(28)
H1 H 0.1091 0.2301 0.1523
H2 H 0.2197 0.3867 0.5730
H3 H 0.2090 0.2723 0.8119
H4 H 0.1495 0.1372 0.7197
H5 H 0.1711 0.4470 0.2812
H6 H 0.1283 0.4147 0.0758
H7 H 0.1980 0.4026 0.0958
N7F N 0.1100(4) 0.0293(7) 0.0535(14)
Cu1B Cu -0.06619(6) 0.06371(10) 0.14795(21)
Cu1F Cu 0.06619(6) -0.06371(10) 0.85205(21)
N7B N -0.1100(4) -0.0293(7) -0.0535(14)
N7D N -0.1100(4) 0.0293(7) 0.4465(14)
N10B N -0.1230(4) 0.1729(7) 0.0719(14)
C1B C -0.1292(5) 0.2400(9) 0.2101(21)
C5B C -0.1529(5) 0.1854(11) -0.1183(19)
C2B C -0.1631(6) 0.3244(10) 0.1674(23)
H1B H -0.1091 0.2301 0.3477
C4B C -0.1885(6) 0.2652(11) -0.1739(23)
H4B H -0.1495 0.1372 -0.2197
C3B C -0.1941(6) 0.3321(11) -0.0353(23)
C6B C -0.1650(8) 0.3996(11) 0.3304(28)
H3B H -0.2090 0.2723 -0.3119
H2B H -0.2197 0.3867 -0.0730
H5B H -0.1711 0.4470 0.2188
H6B H -0.1283 0.4147 0.4242
H7B H -0.1980 0.4026 0.4042
Cu1D Cu -0.06619(6) -0.06371(10) 0.64795(21)
N8D N -0.1608(4) 0.0450(7) 0.4358(13)
N9D N -0.2089(5) 0.0634(10) 0.4217(17)
loop_
_geom_bond_atom_site_label_1
_geom_bond_atom_site_label_2
_geom_bond_site_symmetry_1
_geom_bond_site_symmetry_2
Cu1 N1 1_555 1_555
N1 N2 1_555 1_555
N2 N3 1_555 1_555
N4 Cu1 1_555 1_555
N5 N4 1_555 1_555
N6 N5 1_555 1_555
N7 Cu1 1_555 1_555
N8 N7 1_555 1_555
N9 N8 1_555 1_555
N10 Cu1 1_555 1_555
C1 N10 1_555 1_555
C2 C1 1_555 1_555
C3 C2 1_555 1_555
C4 C3 1_555 1_555
C5 N10 1_555 1_555
C6 C2 1_555 1_555
H1 C1 1_555 1_555
H2 C3 1_555 1_555
H3 C4 1_555 1_555
H4 C5 1_555 1_555
H5 C6 1_555 1_555
H6 C6 1_555 1_555
H7 C6 1_555 1_555
N7F Cu1 1_555 1_555
Cu1B N1 1_555 1_555
Cu1F N7 1_555 1_555
N7B Cu1B 1_555 1_555
N7D Cu1B 1_555 1_555
N10B Cu1B 1_555 1_555
C1B N10B 1_555 1_555
C5B N10B 1_555 1_555
C2B C1B 1_555 1_555
H1B C1B 1_555 1_555
C4B C5B 1_555 1_555
H4B C5B 1_555 1_555
C3B C2B 1_555 1_555
C6B C2B 1_555 1_555
H3B C4B 1_555 1_555
H2B C3B 1_555 1_555
H5B C6B 1_555 1_555
H6B C6B 1_555 1_555
H7B C6B 1_555 1_555
Cu1D N7D 1_555 1_555
N8D N7D 1_555 1_555
N9D N8D 1_555 1_555
N4 Cu1B 1_555 1_555
C4 C5 1_555 1_555
C4B C3B 1_555 1_555

#END
