
#######################################################################
#
#                 Cambridge Crystallographic Data Centre
#                                CCDC 
#
#######################################################################
#
# If this CIF has been generated from an entry in the Cambridge 
# Structural Database, then it will include bibliographic, chemical, 
# crystal, experimental, refinement or atomic coordinate data resulting 
# from the CCDC's data processing and validation procedures.
#
#######################################################################

data_COKNIA
_symmetry_cell_setting           triclinic
_symmetry_space_group_name_H-M   'P -1'
_symmetry_Int_Tables_number      2
_space_group_name_Hall           '-P 1'
loop_
_symmetry_equiv_pos_site_id
_symmetry_equiv_pos_as_xyz
1 x,y,z
2 -x,-y,-z
_cell_length_a                   14.501(3)
_cell_length_b                   15.205(4)
_cell_length_c                   16.228(4)
_cell_angle_alpha                80.506(3)
_cell_angle_beta                 89.984(3)
_cell_angle_gamma                75.230(3)
_cell_volume                     3409.18
loop_
_atom_site_label
_atom_site_type_symbol
_atom_site_fract_x
_atom_site_fract_y
_atom_site_fract_z
C27 C 1.077(3) 0.883(3) 0.744(3)
H23 H 1.1147 0.8893 0.6957
H24 H 1.0843 0.8175 0.7644
C28 C 1.1083(19) 0.9257(18) 0.8101(16)
H25 H 1.1739 0.8955 0.8263
H26 H 1.0696 0.9197 0.8577
H27 H 1.1021 0.9899 0.7893
C29 C 0.914(2) 0.893(2) 0.7886(19)
H28 H 0.8663 0.8722 0.7599
H29 H 0.9507 0.8397 0.8273
C30 C 0.866(2) 0.961(2) 0.8346(19)
H30 H 0.8251 0.9364 0.8729
H31 H 0.8294 1.0134 0.7969
H32 H 0.9128 0.9794 0.8653
C31 C 0.984(3) 0.886(3) 0.579(3)
H33 H 0.9553 0.8643 0.5365
H34 H 1.0447 0.8441 0.5977
H35 H 0.9936 0.9460 0.5574
C32 C 0.934(3) 0.893(2) 0.636(2)
H36 H 0.9202 0.8334 0.6543
H37 H 0.8741 0.9371 0.6171
N13 N 0.9813(19) 0.9261(16) 0.7233(15)
H40 H 0.958(12) 0.984(3) 0.708(10)
O1 O -0.2435(5) 0.3193(5) 0.1280(4)
O2 O -0.2440(5) 0.4271(6) -0.1966(5)
O4 O -0.2117(7) 0.4142(8) -0.0229(5)
O5 O 0.2332(6) 0.4277(6) 0.1158(5)
O6 O 0.0954(6) 0.4950(6) 0.2111(5)
O7 O 0.0209(6) 0.3697(6) 0.3190(5)
O8 O -0.0730(6) 0.3546(5) 0.1791(8)
O9 O 0.1179(6) 0.3269(6) 0.1804(5)
O10 O -0.2352(7) 0.6500(7) 0.0239(4)
O11 O -0.2177(7) 0.4921(6) 0.1143(8)
O12 O 0.2983(5) 0.2403(6) 0.1276(7)
O13 O 0.1222(7) 0.2531(7) 0.0476(5)
O14 O -0.0699(7) 0.2799(8) 0.0479(6)
O15 O 0.0363(7) 0.1611(6) -0.0461(6)
O16 O -0.0734(6) 0.3390(8) -0.1134(6)
O17 O -0.1084(6) 0.6896(6) 0.1142(4)
O18 O -0.0867(7) 0.5207(6) 0.2097(9)
O19 O -0.2600(5) 0.6470(6) 0.1929(4)
O20 O -0.0578(8) 0.4843(8) 0.0820(7)
O21 O 0.0536(8) 0.5750(7) 0.0188(7)
O22 O 0.0682(7) 0.4580(8) 0.0713(6)
O23 O -0.0705(8) 0.5855(8) 0.0081(7)
Mo1 Mo -0.16909(6) 0.37990(7) 0.08554(7)
Mo2 Mo -0.17341(5) 0.60177(6) 0.13395(6)
Mo3 Mo 0.02382(6) 0.26707(6) -0.02754(6)
Mo4 Mo 0.01582(6) 0.40595(6) 0.21779(5)
Mo5 Mo 0.20540(5) 0.32472(5) 0.08753(5)
Mo6 Mo -0.16515(6) 0.44903(7) -0.13585(5)
P2 P 0.0000 0.5000 0.0000
O1A O 0.2435(5) 0.6807(5) -0.1280(4)
O2A O 0.2440(5) 0.5729(6) 0.1966(5)
O4A O 0.2117(7) 0.5858(8) 0.0229(5)
O5A O -0.2332(6) 0.5723(6) -0.1158(5)
O6A O -0.0954(6) 0.5050(6) -0.2111(5)
O7A O -0.0209(6) 0.6303(6) -0.3190(5)
O8A O 0.0730(6) 0.6454(5) -0.1791(8)
O9A O -0.1179(6) 0.6731(6) -0.1804(5)
O10A O 0.2352(7) 0.3500(7) -0.0239(4)
O11A O 0.2177(7) 0.5079(6) -0.1143(8)
O12A O -0.2983(5) 0.7597(6) -0.1276(7)
O13A O -0.1222(7) 0.7469(7) -0.0476(5)
O14A O 0.0699(7) 0.7201(8) -0.0479(6)
O15A O -0.0363(7) 0.8389(6) 0.0461(6)
O16A O 0.0734(6) 0.6610(8) 0.1134(6)
O17A O 0.1084(6) 0.3104(6) -0.1142(4)
O18A O 0.0867(7) 0.4793(6) -0.2097(9)
O19A O 0.2600(5) 0.3530(6) -0.1929(4)
O20A O 0.0578(8) 0.5157(8) -0.0820(7)
O21A O -0.0536(8) 0.4250(7) -0.0188(7)
O22A O -0.0682(7) 0.5420(8) -0.0713(6)
O23A O 0.0705(8) 0.4145(8) -0.0081(7)
Mo1A Mo 0.16909(6) 0.62010(7) -0.08554(7)
Mo2A Mo 0.17341(5) 0.39823(6) -0.13395(6)
Mo3A Mo -0.02382(6) 0.73293(6) 0.02754(6)
Mo4A Mo -0.01582(6) 0.59405(6) -0.21779(5)
Mo5A Mo -0.20540(5) 0.67528(5) -0.08753(5)
Mo6A Mo 0.16515(6) 0.55097(7) 0.13585(5)
O3 O 0.9667(10) 0.1112(10) 0.6734(12)
O24 O 0.2616(6) -0.1875(6) 0.4377(5)
O25 O 0.3280(6) -0.0459(8) 0.3563(7)
O26 O 0.3592(6) 0.0403(5) 0.1970(4)
O27 O 0.4861(8) 0.1052(9) 0.2758(7)
O28 O 0.4989(6) -0.0778(8) 0.2988(7)
O29 O 0.5690(6) 0.2545(6) 0.2680(5)
O30 O 0.3433(10) -0.0685(6) 0.6606(6)
O31 O 0.3280(5) 0.1136(5) 0.6435(4)
O32 O 0.6060(10) -0.2631(8) 0.3236(6)
O33 O 0.4574(6) -0.2005(9) 0.4152(7)
O34 O 0.3916(10) -0.1940(6) 0.5649(6)
O35 O 0.2612(11) -0.0407(6) 0.5119(7)
O36 O 0.1662(7) 0.0533(10) 0.6330(6)
O37 O 0.2478(5) 0.1309(5) 0.4926(5)
O38 O 0.3631(5) 0.2320(5) 0.5183(4)
O39 O 0.2299(8) 0.2929(7) 0.3824(7)
O40 O 0.3168(9) 0.1258(10) 0.3378(7)
O41 O 0.4246(9) 0.2330(10) 0.3694(7)
O42 O 0.4142(8) -0.0373(8) 0.5385(6)
O43 O 0.4779(11) -0.0587(10) 0.4327(9)
O44 O 0.4231(8) 0.0639(8) 0.5218(8)
O45 O 0.4472(10) 0.0801(8) 0.4222(8)
Mo7 Mo 0.31104(7) 0.19784(7) 0.41886(6)
Mo8 Mo 0.27486(7) 0.03606(7) 0.59455(6)
Mo9 Mo 0.54469(10) 0.17603(8) 0.34278(6)
Mo10 Mo 0.57130(7) -0.18168(7) 0.38208(6)
Mo11 Mo 0.33560(9) -0.12566(8) 0.45542(7)
Mo12 Mo 0.40504(8) 0.02894(9) 0.29174(6)
P1 P 0.5000 0.0000 0.5000
O24A O 0.7384(6) 0.1875(6) 0.5623(5)
O25A O 0.6720(6) 0.0459(8) 0.6437(7)
O26A O 0.6408(6) -0.0403(5) 0.8030(4)
O27A O 0.5139(8) -0.1052(9) 0.7242(7)
O28A O 0.5011(6) 0.0778(8) 0.7012(7)
O29A O 0.4310(6) -0.2545(6) 0.7320(5)
O30A O 0.6567(10) 0.0685(6) 0.3394(6)
O31A O 0.6720(5) -0.1136(5) 0.3565(4)
O32A O 0.3940(10) 0.2631(8) 0.6764(6)
O33A O 0.5426(6) 0.2005(9) 0.5848(7)
O34A O 0.6084(10) 0.1940(6) 0.4351(6)
O35A O 0.7388(11) 0.0407(6) 0.4881(7)
O36A O 0.8338(7) -0.0533(10) 0.3670(6)
O37A O 0.7522(5) -0.1309(5) 0.5074(5)
O38A O 0.6369(5) -0.2320(5) 0.4817(4)
O39A O 0.7701(8) -0.2929(7) 0.6176(7)
O40A O 0.6832(9) -0.1258(10) 0.6622(7)
O41A O 0.5754(9) -0.2330(10) 0.6306(7)
O42A O 0.5858(8) 0.0373(8) 0.4615(6)
O43A O 0.5221(11) 0.0587(10) 0.5673(9)
O44A O 0.5769(8) -0.0639(8) 0.4782(8)
O45A O 0.5528(10) -0.0801(8) 0.5778(8)
Mo7A Mo 0.68896(7) -0.19784(7) 0.58114(6)
Mo8A Mo 0.72514(7) -0.03606(7) 0.40545(6)
Mo9A Mo 0.45531(10) -0.17603(8) 0.65722(6)
Mo10A Mo 0.42870(7) 0.18168(7) 0.61792(6)
Mo11A Mo 0.66440(9) 0.12566(8) 0.54458(7)
Mo12A Mo 0.59496(8) -0.02894(9) 0.70826(6)
C1 C 0.5610(8) -0.3977(9) 1.0789(8)
H1 H 0.6177 -0.3812 1.0855
C2 C 0.4498(7) -0.4644(8) 1.0914(7)
H2 H 0.4145 -0.5059 1.1116
C3 C 0.5007(10) -0.2806(8) 0.9563(9)
H3 H 0.5024 -0.3002 0.9023
H4 H 0.5603 -0.2648 0.9651
C4 C 0.4190(8) -0.1936(8) 0.9530(7)
C5 C 0.3684(8) -0.1881(7) 1.0350(6)
C6 C 0.4125(9) -0.1934(9) 1.1108(8)
C7 C 0.3706(13) -0.1940(10) 1.1873(8)
H5 H 0.4045 -0.1977 1.2369
C8 C 0.2757(12) -0.1887(9) 1.1839(8)
C9 C 0.2238(10) -0.1847(9) 1.1134(8)
H6 H 0.1592 -0.1824 1.1144
C10 C 0.2732(8) -0.1841(8) 1.0380(7)
H7 H 0.2394 -0.1809 0.9884
C11 C 0.4626(7) -0.1119(7) 0.9265(7)
H8 H 0.5080 -0.1111 0.9701
H9 H 0.4974 -0.1208 0.8762
C12 C 0.2991(9) 0.0964(8) 0.9335(7)
H10 H 0.2651 0.1431 0.9606
C13 C 0.3467(8) 0.0191(7) 0.8391(7)
H11 H 0.3557 -0.0021 0.7884
C14 C 0.0293(7) 0.3167(7) 0.7002(6)
H12 H -0.0050 0.3056 0.7475
C15 C 0.1352(7) 0.3123(7) 0.6123(7)
H13 H 0.1933 0.2943 0.5876
C16 C -0.1013(6) 0.4335(7) 0.6145(6)
H14 H -0.1003 0.4956 0.5889
H15 H -0.1335 0.4372 0.6667
C17 C -0.1580(6) 0.3934(6) 0.5554(5)
C18 C -0.2643(6) 0.4377(6) 0.5643(5)
C19 C -0.3195(7) 0.3872(8) 0.6132(7)
H16 H -0.2926 0.3260 0.6370
C20 C -0.4130(8) 0.4282(9) 0.6258(9)
H17 H -0.4491 0.3950 0.6590
C21 C -0.4530(7) 0.5171(9) 0.5901(8)
C22 C -0.4037(8) 0.5705(8) 0.5418(8)
H18 H -0.4316 0.6316 0.5182
C23 C -0.3108(7) 0.5281(7) 0.5305(7)
C24 C -0.1242(6) 0.4103(7) 0.4648(5)
H19 H -0.1205 0.4738 0.4508
H20 H -0.0606 0.3707 0.4622
C25 C -0.2446(8) 0.4508(9) 0.3448(7)
H21 H -0.2532 0.5145 0.3351
C26 C -0.2526(9) 0.3173(10) 0.3364(7)
H22 H -0.2709 0.2688 0.3188
N1 N 0.5350(6) -0.4648(7) 1.1280(6)
N2 N 0.4226(7) -0.4002(7) 1.0255(6)
N3 N 0.4961(6) -0.3583(7) 1.0203(6)
N4 N 0.3922(6) -0.0234(5) 0.9108(5)
N5 N 0.3624(7) 0.0257(7) 0.9725(6)
N6 N 0.2855(6) 0.0980(6) 0.8511(6)
N7 N 0.1190(6) 0.2742(6) 0.6906(5)
N8 N -0.0047(5) 0.3779(5) 0.6318(5)
N9 N 0.0643(6) 0.3752(6) 0.5744(6)
N10 N -0.1864(6) 0.3928(6) 0.4033(5)
N11 N -0.1881(7) 0.3053(7) 0.3983(6)
N12 N -0.2889(6) 0.4059(8) 0.3019(5)
O46 O 0.3497(6) -0.1837(6) 0.8858(5)
H38 H 0.3227 -0.2254 0.8953
O47 O -0.1352(4) 0.2969(4) 0.5847(4)
H39 H -0.1667 0.2731 0.5574
Cu1 Cu 0.20553(10) 0.18652(10) 0.76987(9)
Cu2 Cu 0.61833(11) -0.54003(14) 1.21509(9)
F1 F 0.5085(6) -0.1976(6) 1.1089(5)
F2 F 0.2301(8) -0.1892(7) 1.2579(5)
F3 F -0.5462(5) 0.5553(6) 0.6019(6)
F4 F -0.2595(5) 0.5780(4) 0.4819(5)
C1_2 C -0.4390(8) 0.6023(9) 0.0789(8)
H1_2 H -0.3823 0.6188 0.0855
C2_2 C -0.5502(7) 0.5356(8) 0.0914(7)
H2_2 H -0.5855 0.4941 0.1116
C3_2 C -0.4993(10) 0.7194(8) -0.0437(9)
H3_2 H -0.4976 0.6998 -0.0977
H4_2 H -0.4397 0.7352 -0.0349
C4_2 C -0.5810(8) 0.8064(8) -0.0470(7)
C5_2 C -0.6316(8) 0.8119(7) 0.0350(6)
C6_2 C -0.5875(9) 0.8066(9) 0.1108(8)
C7_2 C -0.6294(13) 0.8060(10) 0.1873(8)
H5_2 H -0.5955 0.8023 0.2369
C8_2 C -0.7243(12) 0.8113(9) 0.1839(8)
C9_2 C -0.7762(10) 0.8153(9) 0.1134(8)
H6_2 H -0.8408 0.8176 0.1144
C10_2 C -0.7268(8) 0.8159(8) 0.0380(7)
H7_2 H -0.7606 0.8191 -0.0116
C11_2 C -0.5374(7) 0.8881(7) -0.0735(7)
H8_2 H -0.4920 0.8889 -0.0299
H9_2 H -0.5026 0.8792 -0.1238
C12_2 C -0.7009(9) 1.0964(8) -0.0665(7)
H10_2 H -0.7349 1.1431 -0.0394
C13_2 C -0.6533(8) 1.0191(7) -0.1609(7)
H11_2 H -0.6443 0.9979 -0.2116
C14_2 C 1.0293(7) -0.6833(7) 1.7002(6)
H12_2 H 0.9950 -0.6944 1.7475
C15_2 C 1.1352(7) -0.6877(7) 1.6123(7)
H13_2 H 1.1933 -0.7057 1.5876
C16_2 C 0.8987(6) -0.5665(7) 1.6145(6)
H14_2 H 0.8997 -0.5044 1.5889
H15_2 H 0.8665 -0.5628 1.6667
C17_2 C 0.8420(6) -0.6066(6) 1.5554(5)
C18_2 C 0.7357(6) -0.5623(6) 1.5643(5)
C19_2 C 0.6805(7) -0.6128(8) 1.6132(7)
H16_2 H 0.7074 -0.6740 1.6370
C20_2 C 0.5870(8) -0.5718(9) 1.6258(9)
H17_2 H 0.5509 -0.6050 1.6590
C21_2 C 0.5470(7) -0.4829(9) 1.5901(8)
C22_2 C 0.5963(8) -0.4295(8) 1.5418(8)
H18_2 H 0.5684 -0.3684 1.5182
C23_2 C 0.6892(7) -0.4719(7) 1.5305(7)
C24_2 C 0.8758(6) -0.5897(7) 1.4648(5)
H19_2 H 0.8795 -0.5262 1.4508
H20_2 H 0.9394 -0.6293 1.4622
C25_2 C 0.7554(8) -0.5492(9) 1.3448(7)
H21_2 H 0.7468 -0.4855 1.3351
C26_2 C 0.7474(9) -0.6827(10) 1.3364(7)
H22_2 H 0.7291 -0.7312 1.3188
N1_2 N -0.4650(6) 0.5352(7) 0.1280(6)
N2_2 N -0.5774(7) 0.5998(7) 0.0255(6)
N3_2 N -0.5039(6) 0.6417(7) 0.0203(6)
N4_2 N -0.6078(6) 0.9766(5) -0.0892(5)
N5_2 N -0.6376(7) 1.0257(7) -0.0275(6)
N6_2 N -0.7145(6) 1.0980(6) -0.1489(6)
N7_2 N 1.1190(6) -0.7258(6) 1.6906(5)
N7_3 N -0.8810(6) 1.2742(6) -0.3094(5)
N8_2 N 0.9953(5) -0.6221(5) 1.6318(5)
N9_2 N 1.0643(6) -0.6248(6) 1.5744(6)
N10_2 N 0.8136(6) -0.6072(6) 1.4033(5)
N11_2 N 0.8119(7) -0.6947(7) 1.3983(6)
N12_2 N 0.7111(6) -0.5941(8) 1.3019(5)
O46_2 O -0.6503(6) 0.8163(6) -0.1142(5)
H38_2 H -0.6773 0.7746 -0.1047
O47_2 O 0.8648(4) -0.7031(4) 1.5847(4)
H39_2 H 0.8333 -0.7269 1.5574
Cu1_2 Cu -0.79447(10) 1.18652(10) -0.23013(9)
Cu1_3 Cu 1.20553(10) -0.81348(10) 1.76987(9)
Cu2_2 Cu -0.38167(11) 0.45997(14) 0.21509(9)
F1_2 F -0.4915(6) 0.8024(6) 0.1089(5)
F2_2 F -0.7699(8) 0.8108(7) 0.2579(5)
F3_2 F 0.4538(5) -0.4447(6) 1.6019(6)
F4_2 F 0.7405(5) -0.4220(4) 1.4819(5)
loop_
_geom_bond_atom_site_label_1
_geom_bond_atom_site_label_2
_geom_bond_site_symmetry_1
_geom_bond_site_symmetry_2
C1 H1 1_555 1_555
C2 H2 1_555 1_555
C3 H3 1_555 1_555
H4 C3 1_555 1_555
C4 C3 1_555 1_555
C5 C4 1_555 1_555
C6 C5 1_555 1_555
C7 C6 1_555 1_555
H5 C7 1_555 1_555
C8 C7 1_555 1_555
C9 C8 1_555 1_555
H6 C9 1_555 1_555
C10 C5 1_555 1_555
H7 C10 1_555 1_555
C11 C4 1_555 1_555
H8 C11 1_555 1_555
H9 C11 1_555 1_555
C12 H10 1_555 1_555
C13 H11 1_555 1_555
C14 H12 1_555 1_555
C15 H13 1_555 1_555
C16 H14 1_555 1_555
H15 C16 1_555 1_555
C17 C16 1_555 1_555
C18 C17 1_555 1_555
C19 C18 1_555 1_555
H16 C19 1_555 1_555
C20 C19 1_555 1_555
H17 C20 1_555 1_555
C21 C20 1_555 1_555
C22 C21 1_555 1_555
H18 C22 1_555 1_555
C23 C18 1_555 1_555
C24 C17 1_555 1_555
H19 C24 1_555 1_555
H20 C24 1_555 1_555
C25 H21 1_555 1_555
C26 H22 1_555 1_555
C27 H23 1_555 1_555
H24 C27 1_555 1_555
C28 C27 1_555 1_555
H25 C28 1_555 1_555
H26 C28 1_555 1_555
H27 C28 1_555 1_555
C29 H28 1_555 1_555
H29 C29 1_555 1_555
C30 C29 1_555 1_555
H30 C30 1_555 1_555
H31 C30 1_555 1_555
H32 C30 1_555 1_555
C31 H33 1_555 1_555
H34 C31 1_555 1_555
H35 C31 1_555 1_555
C32 C31 1_555 1_555
H36 C32 1_555 1_555
H37 C32 1_555 1_555
N1 C1 1_555 1_555
N2 C2 1_555 1_555
N3 C1 1_555 1_555
N4 C11 1_555 1_555
N5 C12 1_555 1_555
N6 C12 1_555 1_555
N7 C14 1_555 1_555
N8 C14 1_555 1_555
N9 C15 1_555 1_555
N10 C24 1_555 1_555
N11 C26 1_555 1_555
N12 C25 1_555 1_555
N13 C27 1_555 1_555
O1 Mo1 1_555 1_555
O2 Mo6 1_555 1_555
O4 Mo1 1_555 1_555
O5 Mo5 1_555 1_555
O6 Mo4 1_555 1_555
O7 Mo4 1_555 1_555
O8 Mo1 1_555 1_555
O9 Mo4 1_555 1_555
O10 Mo2 1_555 1_555
O11 Mo1 1_555 1_555
O12 Mo5 1_555 1_555
O13 Mo3 1_555 1_555
O14 Mo1 1_555 1_555
O15 Mo3 1_555 1_555
O16 Mo3 1_555 1_555
O17 Mo2 1_555 1_555
O18 Mo2 1_555 1_555
O19 Mo2 1_555 1_555
O20 O22 1_555 1_555
O21 O22 1_555 1_555
O22 Mo5 1_555 1_555
O23 O20 1_555 1_555
O24 Mo11 1_555 1_555
O25 Mo11 1_555 1_555
O26 Mo12 1_555 1_555
O27 Mo9 1_555 1_555
O28 Mo10 1_555 1_555
O29 Mo9 1_555 1_555
O30 Mo8 1_555 1_555
O31 Mo8 1_555 1_555
O32 Mo10 1_555 1_555
O33 Mo10 1_555 1_555
O34 Mo11 1_555 1_555
O35 Mo8 1_555 1_555
O36 Mo8 1_555 1_555
O37 Mo7 1_555 1_555
O38 Mo7 1_555 1_555
O39 Mo7 1_555 1_555
O40 Mo7 1_555 1_555
O41 Mo7 1_555 1_555
O42 O44 1_555 1_555
O43 Mo10 1_555 1_555
O44 O45 1_555 1_555
O45 Mo7 1_555 1_555
O46 C4 1_555 1_555
H38 O46 1_555 1_555
O47 C17 1_555 1_555
H39 O47 1_555 1_555
Cu1 N6 1_555 1_555
Cu2 N1 1_555 1_555
Mo1 O20 1_555 1_555
Mo2 O11 1_555 1_555
Mo3 O14 1_555 1_555
Mo4 O8 1_555 1_555
Mo5 O9 1_555 1_555
Mo6 O4 1_555 1_555
Mo8 O37 1_555 1_555
Mo9 O41 1_555 1_555
Mo10 O31A 1_555 1_555
Mo11 O33 1_555 1_555
Mo12 O25 1_555 1_555
P1 O42 1_555 1_555
P2 O20 1_555 1_555
F1 C6 1_555 1_555
F2 C8 1_555 1_555
F3 C21 1_555 1_555
F4 C23 1_555 1_555
H40 N13 1_555 1_555
C1_2 H1_2 1_555 1_555
C2_2 H2_2 1_555 1_555
C3_2 H3_2 1_555 1_555
H4_2 C3_2 1_555 1_555
C4_2 C3_2 1_555 1_555
C5_2 C4_2 1_555 1_555
C6_2 C5_2 1_555 1_555
C7_2 C6_2 1_555 1_555
H5_2 C7_2 1_555 1_555
C8_2 C7_2 1_555 1_555
C9_2 C8_2 1_555 1_555
H6_2 C9_2 1_555 1_555
C10_2 C5_2 1_555 1_555
H7_2 C10_2 1_555 1_555
C11_2 C4_2 1_555 1_555
H8_2 C11_2 1_555 1_555
H9_2 C11_2 1_555 1_555
C12_2 H10_2 1_555 1_555
C13_2 H11_2 1_555 1_555
C14_2 H12_2 1_555 1_555
C15_2 H13_2 1_555 1_555
C16_2 H14_2 1_555 1_555
H15_2 C16_2 1_555 1_555
C17_2 C16_2 1_555 1_555
C18_2 C17_2 1_555 1_555
C19_2 C18_2 1_555 1_555
H16_2 C19_2 1_555 1_555
C20_2 C19_2 1_555 1_555
H17_2 C20_2 1_555 1_555
C21_2 C20_2 1_555 1_555
C22_2 C21_2 1_555 1_555
H18_2 C22_2 1_555 1_555
C23_2 C18_2 1_555 1_555
C24_2 C17_2 1_555 1_555
H19_2 C24_2 1_555 1_555
H20_2 C24_2 1_555 1_555
C25_2 H21_2 1_555 1_555
C26_2 H22_2 1_555 1_555
N1_2 C1_2 1_555 1_555
N2_2 C2_2 1_555 1_555
N3_2 C1_2 1_555 1_555
N4_2 C11_2 1_555 1_555
N5_2 C12_2 1_555 1_555
N6_2 C12_2 1_555 1_555
N7_2 C14_2 1_555 1_555
N7_3 Cu1_2 1_555 1_555
N8_2 C14_2 1_555 1_555
N9_2 C15_2 1_555 1_555
N10_2 C24_2 1_555 1_555
N11_2 C26_2 1_555 1_555
N12_2 Cu2 1_555 1_555
O1A Mo1A 1_555 1_555
O2A Mo6A 1_555 1_555
O4A Mo1A 1_555 1_555
O5A Mo6 1_555 1_555
O6A Mo6 1_555 1_555
O7A Mo4A 1_555 1_555
O8A Mo1A 1_555 1_555
O9A Mo4A 1_555 1_555
O10A Mo5 1_555 1_555
O11A Mo1A 1_555 1_555
O12A Mo5A 1_555 1_555
O13A Mo3A 1_555 1_555
O14A Mo1A 1_555 1_555
O15A Mo3A 1_555 1_555
O16A Mo3A 1_555 1_555
O17A Mo3 1_555 1_555
O18A Mo2A 1_555 1_555
O19A Mo2A 1_555 1_555
O20A P2 1_555 1_555
O21A Mo1 1_555 1_555
O22A O23 1_555 1_555
O23A O22 1_555 1_555
O24A Mo11A 1_555 1_555
O25A Mo11A 1_555 1_555
O26A Mo12A 1_555 1_555
O27A Mo9A 1_555 1_555
O28A Mo10A 1_555 1_555
O29A Mo9A 1_555 1_555
O30A Mo9 1_555 1_555
O31A Mo8A 1_555 1_555
O32A Mo10A 1_555 1_555
O33A Mo10A 1_555 1_555
O34A Mo9 1_555 1_555
O35A Mo8A 1_555 1_555
O36A Mo8A 1_555 1_555
O37A Mo7A 1_555 1_555
O38A Mo10 1_555 1_555
O39A Mo7A 1_555 1_555
O40A Mo7A 1_555 1_555
O41A Mo7A 1_555 1_555
O42A P1 1_555 1_555
O43A O44 1_555 1_555
O44A O43 1_555 1_555
O45A P1 1_555 1_555
O46_2 C4_2 1_555 1_555
H38_2 O46_2 1_555 1_555
O47_2 C17_2 1_555 1_555
H39_2 O47_2 1_555 1_555
Cu1_2 N6_2 1_555 1_555
Cu1_3 N7_2 1_555 1_555
Cu2_2 N12 1_555 1_555
Mo1A O21 1_555 1_555
Mo2A O10A 1_555 1_555
Mo3A O17 1_555 1_555
Mo4A O6A 1_555 1_555
Mo5A O10 1_555 1_555
Mo6A O5 1_555 1_555
Mo7A O38A 1_555 1_555
Mo8A O30A 1_555 1_555
Mo9A O30 1_555 1_555
Mo10A O31 1_555 1_555
Mo11A O33A 1_555 1_555
Mo12A O25A 1_555 1_555
F1_2 C6_2 1_555 1_555
F2_2 C8_2 1_555 1_555
F3_2 C21_2 1_555 1_555
F4_2 C23_2 1_555 1_555
C2 N1 1_555 1_555
C3 N3 1_555 1_555
C9 C10 1_555 1_555
C13 N4 1_555 1_555
C13 N6 1_555 1_555
C15 N7 1_555 1_555
C16 N8 1_555 1_555
C22 C23 1_555 1_555
C25 N10 1_555 1_555
C26 N12 1_555 1_555
C29 N13 1_555 1_555
C32 N13 1_555 1_555
N2 N3 1_555 1_555
N4 N5 1_555 1_555
N7 Cu1 1_555 1_555
N8 N9 1_555 1_555
N10 N11 1_555 1_555
O6 Mo6A 1_555 1_555
O13 Mo5 1_555 1_555
O16 Mo6 1_555 1_555
O18 Mo4 1_555 1_555
O20 Mo2 1_555 1_555
O20 Mo4 1_555 1_555
O21 O23 1_555 1_555
O21 P2 1_555 1_555
O21 Mo3A 1_555 1_555
O21 Mo6A 1_555 1_555
O22 P2 1_555 1_555
O23 Mo2 1_555 1_555
O23 P2 1_555 1_555
O23 Mo5A 1_555 1_555
O27 Mo12 1_555 1_555
O28 Mo12 1_555 1_555
O34 Mo9A 1_555 1_555
O35 Mo11 1_555 1_555
O38 Mo10A 1_555 1_555
O40 Mo12 1_555 1_555
O42 Mo8 1_555 1_555
O42 Mo11 1_555 1_555
O43 Mo11 1_555 1_555
O43 Mo12 1_555 1_555
O43 P1 1_555 1_555
O44 Mo8 1_555 1_555
O44 P1 1_555 1_555
O45 Mo9 1_555 1_555
O45 Mo12 1_555 1_555
O45 P1 1_555 1_555
Mo3 O21A 1_555 1_555
Mo5 O23A 1_555 1_555
Mo6 O21A 1_555 1_555
P1 O43A 1_555 1_555
P1 O44A 1_555 1_555
P2 O21A 1_555 1_555
P2 O22A 1_555 1_555
P2 O23A 1_555 1_555
C2_2 N1_2 1_555 1_555
C3_2 N3_2 1_555 1_555
C9_2 C10_2 1_555 1_555
C13_2 N4_2 1_555 1_555
C13_2 N6_2 1_555 1_555
C15_2 N7_2 1_555 1_555
C16_2 N8_2 1_555 1_555
C22_2 C23_2 1_555 1_555
C25_2 N10_2 1_555 1_555
C25_2 N12_2 1_555 1_555
C26_2 N12_2 1_555 1_555
N1_2 Cu2_2 1_555 1_555
N2_2 N3_2 1_555 1_555
N4_2 N5_2 1_555 1_555
N8_2 N9_2 1_555 1_555
N10_2 N11_2 1_555 1_555
O4A Mo6A 1_555 1_555
O5A Mo5A 1_555 1_555
O8A Mo4A 1_555 1_555
O9A Mo5A 1_555 1_555
O11A Mo2A 1_555 1_555
O13A Mo5A 1_555 1_555
O14A Mo3A 1_555 1_555
O16A Mo6A 1_555 1_555
O17A Mo2A 1_555 1_555
O18A Mo4A 1_555 1_555
O20A O22A 1_555 1_555
O20A O23A 1_555 1_555
O20A Mo1A 1_555 1_555
O20A Mo2A 1_555 1_555
O20A Mo4A 1_555 1_555
O21A O22A 1_555 1_555
O21A O23A 1_555 1_555
O22A Mo5A 1_555 1_555
O23A Mo2A 1_555 1_555
O27A Mo12A 1_555 1_555
O28A Mo12A 1_555 1_555
O34A Mo11A 1_555 1_555
O35A Mo11A 1_555 1_555
O37A Mo8A 1_555 1_555
O40A Mo12A 1_555 1_555
O41A Mo9A 1_555 1_555
O42A O44A 1_555 1_555
O42A Mo8A 1_555 1_555
O42A Mo11A 1_555 1_555
O43A Mo10A 1_555 1_555
O43A Mo11A 1_555 1_555
O43A Mo12A 1_555 1_555
O44A O45A 1_555 1_555
O44A Mo8A 1_555 1_555
O45A Mo7A 1_555 1_555
O45A Mo9A 1_555 1_555
O45A Mo12A 1_555 1_555

#END
