
#######################################################################
#
#                 Cambridge Crystallographic Data Centre
#                                CCDC 
#
#######################################################################
#
# If this CIF has been generated from an entry in the Cambridge 
# Structural Database, then it will include bibliographic, chemical, 
# crystal, experimental, refinement or atomic coordinate data resulting 
# from the CCDC's data processing and validation procedures.
#
#######################################################################

data_COKNAS
_symmetry_cell_setting           triclinic
_symmetry_space_group_name_H-M   'P -1'
_symmetry_Int_Tables_number      2
_space_group_name_Hall           '-P 1'
loop_
_symmetry_equiv_pos_site_id
_symmetry_equiv_pos_as_xyz
1 x,y,z
2 -x,-y,-z
_cell_length_a                   8.1894(8)
_cell_length_b                   12.3511(10)
_cell_length_c                   15.9186(16)
_cell_angle_alpha                73.824(6)
_cell_angle_beta                 83.730(5)
_cell_angle_gamma                83.882(6)
_cell_volume                     1532.24
loop_
_atom_site_label
_atom_site_type_symbol
_atom_site_fract_x
_atom_site_fract_y
_atom_site_fract_z
U1 U 0.86645(4) 0.23806(2) -0.122218(17)
U2 U 0.90282(4) -0.24737(2) 0.385220(17)
Eu1 Eu 0.46097(5) 0.23837(3) 0.23998(2)
O1 O 0.6677(6) 0.2725(4) 0.1215(3)
O2 O 0.7587(6) 0.3374(4) -0.0182(3)
O3 O 0.6610(6) 0.0977(4) 0.3164(3)
O4 O 0.8354(6) -0.0540(4) 0.3243(3)
O5 O 0.3832(6) 0.2615(4) 0.3825(3)
O6 O 0.3263(6) 0.1948(4) 0.5268(3)
O7 O 0.3874(7) 0.4356(4) 0.1848(3)
O8 O 0.2320(8) 0.5855(4) 0.2047(3)
O9 O 1.0676(6) 0.2831(4) -0.1312(3)
O10 O 0.6684(6) 0.1864(4) -0.1084(3)
O11 O 0.7633(7) -0.2846(4) 0.3223(3)
O12 O 1.0382(7) -0.2082(4) 0.4502(3)
O13 O 0.6640(7) 0.3509(4) 0.2748(3)
H1 H 0.6587 0.4305 0.2398
H2 H 0.6913 0.3439 0.3315
O14 O 0.9708(6) 0.0403(4) -0.1114(3)
O15 O 1.0744(6) -0.1244(4) -0.0263(3)
O16 O 1.0886(7) -0.4232(4) 0.4000(3)
O17 O 1.1631(7) -0.5950(4) 0.4851(3)
O18 O 0.9024(7) 0.2201(4) -0.2659(3)
H3 H 0.8042 0.1999 -0.2811
N1 N 0.3483(8) 0.2719(5) 0.0836(4)
N2 N 0.4996(7) 0.0531(4) 0.1868(4)
N3 N 0.2925(8) 0.0721(5) 0.3467(4)
N4 N 0.1379(8) 0.2935(5) 0.2437(4)
C1 C 0.3333(10) 0.1625(6) 0.0633(5)
H4 H 0.3253 0.1765 0.0008
H5 H 0.2330 0.1305 0.0937
C2 C 0.4789(10) 0.0783(6) 0.0905(5)
H6 H 0.4640 0.0086 0.0765
H7 H 0.5784 0.1083 0.0573
C3 C 0.3827(10) -0.0328(6) 0.2353(5)
H8 H 0.4257 -0.1065 0.2286
H9 H 0.2776 -0.0140 0.2097
C4 C 0.3558(10) -0.0389(6) 0.3325(5)
H10 H 0.2779 -0.0945 0.3609
H11 H 0.4592 -0.0633 0.3592
C5 C 0.1142(10) 0.0935(6) 0.3312(5)
H12 H 0.0509 0.0464 0.3803
H13 H 0.0971 0.0720 0.2788
C6 C 0.0517(10) 0.2155(6) 0.3202(5)
H14 H -0.0654 0.2239 0.3127
H15 H 0.0663 0.2365 0.3731
C7 C 0.0686(9) 0.2910(6) 0.1617(5)
H16 H -0.0365 0.3357 0.1568
H17 H 0.0488 0.2137 0.1653
C8 C 0.1812(9) 0.3361(6) 0.0806(5)
H18 H 0.1307 0.3315 0.0294
H19 H 0.1942 0.4152 0.0744
C9 C 0.4656(9) 0.3396(6) 0.0177(5)
H20 H 0.4342 0.4193 0.0112
H21 H 0.4588 0.3249 -0.0386
C10 C 0.6443(10) 0.3132(5) 0.0424(5)
C11 C 0.6710(9) 0.0042(6) 0.2026(5)
H22 H 0.7455 0.0419 0.1542
H23 H 0.6790 -0.0753 0.2043
C12 C 0.7241(9) 0.0160(6) 0.2877(5)
C13 C 0.3122(10) 0.0702(6) 0.4388(4)
H24 H 0.4041 0.0167 0.4598
H25 H 0.2137 0.0439 0.4752
C14 C 0.3417(9) 0.1846(6) 0.4487(5)
C15 C 0.1158(10) 0.4105(6) 0.2542(5)
H26 H 0.1061 0.4065 0.3163
H27 H 0.0139 0.4475 0.2303
C16 C 0.2553(10) 0.4801(6) 0.2095(5)
C17 C 1.0141(9) -0.0244(6) -0.0402(5)
C18 C 1.0733(11) -0.5046(6) 0.4665(5)
U1A U 0.13355(4) 0.76194(2) 0.122218(17)
U1A_2 U 1.13355(4) -0.23806(2) 0.122218(17)
U2A U 0.09718(4) 1.24737(2) -0.385220(17)
U2A_2 U 0.09718(4) 0.24737(2) 0.614780(17)
U2A_3 U 1.09718(4) -0.75263(2) 0.614780(17)
U2A_4 U 1.09718(4) 0.24737(2) -0.385220(17)
U2_2 U 0.90282(4) 0.75263(2) -0.614780(17)
Eu1A Eu 0.53903(5) 0.76163(3) -0.23998(2)
O1A O 0.3323(6) 0.7275(4) -0.1215(3)
O2A O 0.2413(6) 0.6626(4) 0.0182(3)
O3A O 0.3390(6) 0.9023(4) -0.3164(3)
O4A O 0.1646(6) 1.0540(4) -0.3243(3)
O5A O 0.6168(6) 0.7385(4) -0.3825(3)
O6A O 0.6737(6) 0.8052(4) -0.5268(3)
O6A_2 O 0.6737(6) -0.1948(4) 0.4732(3)
O6_2 O 0.3263(6) 1.1948(4) -0.4732(3)
O7A O 0.6126(7) 0.5644(4) -0.1848(3)
O8A O 0.7680(8) 0.4145(4) -0.2047(3)
O9A O -0.0676(6) 0.7169(4) 0.1312(3)
O10A O 0.3316(6) 0.8136(4) 0.1084(3)
O11A O 0.2367(7) 1.2846(4) -0.3223(3)
O12A O -0.0382(7) 1.2082(4) -0.4502(3)
O13A O 0.3360(7) 0.6491(4) -0.2748(3)
H1A H 0.3413 0.5695 -0.2398
H2A H 0.3087 0.6561 -0.3315
O14A O 1.0292(6) -0.0403(4) 0.1114(3)
O14A_2 O 0.0292(6) 0.9597(4) 0.1114(3)
O15A O 0.9256(6) 0.1244(4) 0.0263(3)
O15_2 O 0.0744(6) 0.8756(4) -0.0263(3)
O16A O 0.9114(7) -0.5768(4) 0.6000(3)
O16A_2 O -0.0886(7) 1.4232(4) -0.4000(3)
O17A O 0.8369(7) -0.4050(4) 0.5149(3)
O17_2 O 0.1631(7) 1.4050(4) -0.5149(3)
O18A O 1.0976(7) -0.2201(4) 0.2659(3)
O18A_2 O 0.0976(7) 0.7799(4) 0.2659(3)
O18_2 O -0.0976(7) 1.2201(4) -0.2659(3)
H3A H 1.1958 -0.1999 0.2811
H3A_2 H 0.1958 0.8001 0.2811
H3_2 H -0.1958 1.1999 -0.2811
N1A N 0.6517(8) 0.7281(5) -0.0836(4)
N2A N 0.5004(7) 0.9469(4) -0.1868(4)
N3A N 0.7075(8) 0.9279(5) -0.3467(4)
N4A N 0.8621(8) 0.7065(5) -0.2437(4)
C1A C 0.6667(10) 0.8375(6) -0.0633(5)
H4A H 0.6747 0.8235 -0.0008
H5A H 0.7670 0.8695 -0.0937
C2A C 0.5211(10) 0.9217(6) -0.0905(5)
H6A H 0.5360 0.9914 -0.0765
H7A H 0.4216 0.8917 -0.0573
C3A C 0.6173(10) 1.0328(6) -0.2353(5)
H8A H 0.5743 1.1065 -0.2286
H9A H 0.7224 1.0140 -0.2097
C4A C 0.6442(10) 1.0389(6) -0.3325(5)
H10A H 0.7221 1.0945 -0.3609
H11A H 0.5408 1.0633 -0.3592
C5A C 0.8858(10) 0.9065(6) -0.3312(5)
H12A H 0.9491 0.9536 -0.3803
H13A H 0.9029 0.9280 -0.2788
C6A C 0.9483(10) 0.7845(6) -0.3202(5)
H14A H 1.0654 0.7761 -0.3127
H15A H 0.9337 0.7635 -0.3731
C7A C 0.9314(9) 0.7090(6) -0.1617(5)
H16A H 1.0365 0.6643 -0.1568
H17A H 0.9512 0.7863 -0.1653
C8A C 0.8188(9) 0.6639(6) -0.0806(5)
H18A H 0.8693 0.6685 -0.0294
H19A H 0.8058 0.5848 -0.0744
C9A C 0.5344(9) 0.6604(6) -0.0177(5)
H20A H 0.5658 0.5807 -0.0112
H21A H 0.5412 0.6751 0.0386
C10A C 0.3557(10) 0.6868(5) -0.0424(5)
C11A C 0.3290(9) 0.9958(6) -0.2026(5)
H22A H 0.2545 0.9581 -0.1542
H23A H 0.3210 1.0753 -0.2043
C12A C 0.2759(9) 0.9840(6) -0.2877(5)
C13A C 0.6878(10) 0.9298(6) -0.4388(4)
H24A H 0.5959 0.9833 -0.4598
H25A H 0.7863 0.9561 -0.4752
C14A C 0.6583(9) 0.8154(6) -0.4487(5)
C15A C 0.8842(10) 0.5895(6) -0.2542(5)
H26A H 0.8939 0.5935 -0.3163
H27A H 0.9861 0.5525 -0.2303
C16A C 0.7447(10) 0.5199(6) -0.2095(5)
C17A C 0.9859(9) 0.0244(6) 0.0402(5)
C18A C 0.9267(11) -0.4954(6) 0.5335(5)
O19 O 0.6003(9) 0.3262(6) -0.3319(5)
O20 O 0.3559(11) 0.4169(6) -0.2082(5)
O21 O 0.7730(16) 0.3697(10) -0.5797(7)
O23 O 0.4922(15) 0.4145(10) -0.4897(8)
O22? O 0.5904(16) 0.3720(10) -0.5383(8)
loop_
_geom_bond_atom_site_label_1
_geom_bond_atom_site_label_2
_geom_bond_site_symmetry_1
_geom_bond_site_symmetry_2
U1 O2 1_555 1_555
U2 O4 1_555 1_555
Eu1 O1 1_555 1_555
O1 C10 1_555 1_555
O2 C10 1_555 1_555
O3 Eu1 1_555 1_555
O4 C12 1_555 1_555
O5 Eu1 1_555 1_555
O6 C14 1_555 1_555
O7 Eu1 1_555 1_555
O8 C16 1_555 1_555
O9 U1 1_555 1_555
O10 U1 1_555 1_555
O11 U2 1_555 1_555
O12 U2 1_555 1_555
O13 Eu1 1_555 1_555
H1 O13 1_555 1_555
H2 O13 1_555 1_555
O14 U1 1_555 1_555
O15 C17 1_555 1_555
O16 U2 1_555 1_555
O17 C18 1_555 1_555
O18 U1 1_555 1_555
H3 O18 1_555 1_555
N1 Eu1 1_555 1_555
N2 Eu1 1_555 1_555
N3 Eu1 1_555 1_555
N4 Eu1 1_555 1_555
C1 N1 1_555 1_555
H4 C1 1_555 1_555
H5 C1 1_555 1_555
C2 N2 1_555 1_555
H6 C2 1_555 1_555
H7 C2 1_555 1_555
C3 N2 1_555 1_555
H8 C3 1_555 1_555
H9 C3 1_555 1_555
C4 N3 1_555 1_555
H10 C4 1_555 1_555
H11 C4 1_555 1_555
C5 N3 1_555 1_555
H12 C5 1_555 1_555
H13 C5 1_555 1_555
C6 N4 1_555 1_555
H14 C6 1_555 1_555
H15 C6 1_555 1_555
C7 N4 1_555 1_555
H16 C7 1_555 1_555
H17 C7 1_555 1_555
C8 N1 1_555 1_555
H18 C8 1_555 1_555
H19 C8 1_555 1_555
C9 N1 1_555 1_555
H20 C9 1_555 1_555
H21 C9 1_555 1_555
C10 C9 1_555 1_555
C11 N2 1_555 1_555
H22 C11 1_555 1_555
H23 C11 1_555 1_555
C12 O3 1_555 1_555
C13 N3 1_555 1_555
H24 C13 1_555 1_555
H25 C13 1_555 1_555
C14 O5 1_555 1_555
C15 N4 1_555 1_555
H26 C15 1_555 1_555
H27 C15 1_555 1_555
C16 O7 1_555 1_555
C17 O14 1_555 1_555
C18 O16 1_555 1_555
U1A O8 1_555 1_555
U1A_2 O15 1_555 1_555
U2A O4A 1_555 1_555
U2A_2 O6 1_555 1_555
U2A_3 O17 1_555 1_555
U2A_4 O18 1_555 1_555
U2_2 O6A 1_555 1_555
Eu1A O1A 1_555 1_555
O1A C10A 1_555 1_555
O2A U1A 1_555 1_555
O3A Eu1A 1_555 1_555
O4A C12A 1_555 1_555
O5A Eu1A 1_555 1_555
O6A C14A 1_555 1_555
O6A_2 U2 1_555 1_555
O6_2 U2A 1_555 1_555
O7A Eu1A 1_555 1_555
O8A U1 1_555 1_555
O9A U1A 1_555 1_555
O10A U1A 1_555 1_555
O11A U2A 1_555 1_555
O12A U2A 1_555 1_555
O13A Eu1A 1_555 1_555
H1A O13A 1_555 1_555
H2A O13A 1_555 1_555
O14A U1A_2 1_555 1_555
O14A_2 U1A 1_555 1_555
O15A U1 1_555 1_555
O15_2 U1A 1_555 1_555
O16A U2A_3 1_555 1_555
O16A_2 U2A 1_555 1_555
O17A U2 1_555 1_555
O17_2 U2A 1_555 1_555
O18A U2 1_555 1_555
O18A_2 U1A 1_555 1_555
O18_2 U2A 1_555 1_555
H3A O18A 1_555 1_555
H3A_2 O18A_2 1_555 1_555
H3_2 O18_2 1_555 1_555
N1A Eu1A 1_555 1_555
N2A Eu1A 1_555 1_555
N3A Eu1A 1_555 1_555
N4A Eu1A 1_555 1_555
C1A N1A 1_555 1_555
H4A C1A 1_555 1_555
H5A C1A 1_555 1_555
C2A N2A 1_555 1_555
H6A C2A 1_555 1_555
H7A C2A 1_555 1_555
C3A N2A 1_555 1_555
H8A C3A 1_555 1_555
H9A C3A 1_555 1_555
C4A N3A 1_555 1_555
H10A C4A 1_555 1_555
H11A C4A 1_555 1_555
C5A N3A 1_555 1_555
H12A C5A 1_555 1_555
H13A C5A 1_555 1_555
C6A N4A 1_555 1_555
H14A C6A 1_555 1_555
H15A C6A 1_555 1_555
C7A N4A 1_555 1_555
H16A C7A 1_555 1_555
H17A C7A 1_555 1_555
C8A N1A 1_555 1_555
H18A C8A 1_555 1_555
H19A C8A 1_555 1_555
C9A N1A 1_555 1_555
H20A C9A 1_555 1_555
H21A C9A 1_555 1_555
C10A O2A 1_555 1_555
C11A N2A 1_555 1_555
H22A C11A 1_555 1_555
H23A C11A 1_555 1_555
C12A O3A 1_555 1_555
C13A N3A 1_555 1_555
H24A C13A 1_555 1_555
H25A C13A 1_555 1_555
C14A O5A 1_555 1_555
C15A N4A 1_555 1_555
H26A C15A 1_555 1_555
H27A C15A 1_555 1_555
C16A O7A 1_555 1_555
C17A C17 1_555 1_555
C18A C18 1_555 1_555
C1 C2 1_555 1_555
C3 C4 1_555 1_555
C5 C6 1_555 1_555
C7 C8 1_555 1_555
C11 C12 1_555 1_555
C13 C14 1_555 1_555
C15 C16 1_555 1_555
U1A_2 O18A 1_555 1_555
O8A C16A 1_555 1_555
O14A C17A 1_555 1_555
O15A C17A 1_555 1_555
O16A C18A 1_555 1_555
O17A C18A 1_555 1_555
C1A C2A 1_555 1_555
C3A C4A 1_555 1_555
C5A C6A 1_555 1_555
C7A C8A 1_555 1_555
C9A C10A 1_555 1_555
C11A C12A 1_555 1_555
C13A C14A 1_555 1_555
C15A C16A 1_555 1_555

#END
