
#######################################################################
#
#                 Cambridge Crystallographic Data Centre
#                                CCDC 
#
#######################################################################
#
# If this CIF has been generated from an entry in the Cambridge 
# Structural Database, then it will include bibliographic, chemical, 
# crystal, experimental, refinement or atomic coordinate data resulting 
# from the CCDC's data processing and validation procedures.
#
#######################################################################

data_COKPIC
_symmetry_cell_setting           orthorhombic
_symmetry_space_group_name_H-M   'F d d d'
_symmetry_Int_Tables_number      70
_space_group_name_Hall           '-F 2uv 2vw'
loop_
_symmetry_equiv_pos_site_id
_symmetry_equiv_pos_as_xyz
1 x,y,z
2 1/4-x,1/4-y,z
3 x,1/4-y,1/4-z
4 1/4-x,y,1/4-z
5 x,1/2+y,1/2+z
6 1/2+x,y,1/2+z
7 1/2+x,1/2+y,z
8 1/4-x,3/4-y,1/2+z
9 x,3/4-y,3/4-z
10 1/4-x,1/2+y,3/4-z
11 3/4-x,1/4-y,1/2+z
12 1/2+x,1/4-y,3/4-z
13 3/4-x,y,3/4-z
14 3/4-x,3/4-y,z
15 1/2+x,3/4-y,1/4-z
16 3/4-x,1/2+y,1/4-z
17 -x,-y,-z
18 3/4+x,3/4+y,-z
19 -x,3/4+y,3/4+z
20 3/4+x,-y,3/4+z
21 -x,1/2-y,1/2-z
22 1/2-x,-y,1/2-z
23 1/2-x,1/2-y,-z
24 3/4+x,1/4+y,1/2-z
25 -x,1/4+y,1/4+z
26 3/4+x,1/2-y,1/4+z
27 1/4+x,3/4+y,1/2-z
28 1/2-x,3/4+y,1/4+z
29 1/4+x,-y,1/4+z
30 1/4+x,1/4+y,-z
31 1/2-x,1/4+y,3/4+z
32 1/4+x,1/2-y,3/4+z
_cell_length_a                   19.511(6)
_cell_length_b                   13.973(5)
_cell_length_c                   36.231(16)
_cell_angle_alpha                90
_cell_angle_beta                 90
_cell_angle_gamma                90
_cell_volume                     9877.56
loop_
_atom_site_label
_atom_site_type_symbol
_atom_site_fract_x
_atom_site_fract_y
_atom_site_fract_z
Cu1 Cu 0.3750 -0.1250 0.16807(3)
O1 O 0.3277(3) -0.0378(3) 0.21045(12)
O2 O 0.4194(2) 0.0066(3) 0.17894(13)
O3 O 0.3750 0.3750 0.28029(18)
N1 N 0.3066(3) -0.0775(4) 0.12904(14)
C1 C 0.3737(4) 0.0230(5) 0.2041(2)
C2 C 0.3749(4) 0.1139(5) 0.22566(19)
C3 C 0.4234(4) 0.1863(5) 0.21574(19)
H2 H 0.4567 0.1742 0.1979
C4 C 0.4203(4) 0.2740(5) 0.2329(2)
H3 H 0.4496 0.3227 0.2254
C5 C 0.3750(4) 0.2903(5) 0.2606(2)
C6 C 0.3286(4) 0.2194(6) 0.27085(18)
H4 H 0.2982 0.2297 0.2902
C7 C 0.3282(4) 0.1355(5) 0.2523(2)
H5 H 0.2947 0.0906 0.2581
C8 C 0.3155(4) 0.0051(7) 0.1131(2)
H6 H 0.3552 0.0391 0.1185
C9 C 0.2695(5) 0.0454(7) 0.0887(3)
H7 H 0.2798 0.1046 0.0783
C10 C 0.2128(5) 0.0039(6) 0.0798(2)
C11 C 0.2016(5) -0.0814(7) 0.0968(3)
H8 H 0.1610 -0.1142 0.0922
C12 C 0.2483(5) -0.1196(6) 0.1202(3)
H9 H 0.2387 -0.1790 0.1306
C13 C 0.1635(5) 0.0541(6) 0.0523(3)
H10 H 0.1896 0.0832 0.0325
H11 H 0.1327 0.0072 0.0416
C14 C 0.1250 0.1250 0.0709(4)
H12 H 0.0932 0.0914 0.0869
H13 H 0.1568 0.1586 0.0869
Cu1_2 Cu 0.3750 0.8750 0.16807(3)
Cu1A Cu -0.1250 0.3750 0.16807(3)
O1M O 0.4223(3) 0.7878(3) 0.21045(12)
O1M_2 O 0.4223(3) -0.2122(3) 0.21045(12)
O2M O 0.3306(2) 0.7434(3) 0.17894(13)
O2M_2 O 0.3306(2) -0.2566(3) 0.17894(13)
N1A N -0.0566(3) 0.3275(4) 0.12904(14)
N1M N 0.4434(3) -0.1725(4) 0.12904(14)
C1M C 0.3763(4) 0.7270(5) 0.2041(2)
C2M C 0.3751(4) 0.6361(5) 0.22566(19)
C3M C 0.3266(4) 0.5637(5) 0.21574(19)
H2M H 0.2933 0.5758 0.1979
C4M C 0.3297(4) 0.4760(5) 0.2329(2)
H3M H 0.3004 0.4273 0.2254
C5M C 0.3750(4) 0.4597(5) 0.2606(2)
C6M C 0.4214(4) 0.5306(6) 0.27085(18)
H4M H 0.4518 0.5203 0.2902
C7M C 0.4218(4) 0.6145(5) 0.2523(2)
H5M H 0.4553 0.6594 0.2581
C8A C -0.0655(4) 0.2449(7) 0.1131(2)
H6A H -0.1052 0.2109 0.1185
C9A C -0.0195(5) 0.2046(7) 0.0887(3)
H7A H -0.0298 0.1454 0.0783
C10A C 0.0372(5) 0.2461(6) 0.0798(2)
C11A C 0.0484(5) 0.3314(7) 0.0968(3)
H8A H 0.0890 0.3642 0.0922
C12A C 0.0017(5) 0.3696(6) 0.1202(3)
H9A H 0.0113 0.4290 0.1306
C13A C 0.0865(5) 0.1959(6) 0.0523(3)
H10A H 0.0604 0.1668 0.0325
H11A H 0.1173 0.2428 0.0416
O4 O 0.4940(6) 0.1250 0.1250
H1 H 0.4799 0.0722 0.1315
H1B H 0.4799 0.1778 0.1185
loop_
_geom_bond_atom_site_label_1
_geom_bond_atom_site_label_2
_geom_bond_site_symmetry_1
_geom_bond_site_symmetry_2
Cu1 O1 1_555 1_555
O1 C1 1_555 1_555
O2 Cu1 1_555 1_555
O3 C5 1_555 1_555
O4 H1 1_555 1_555
N1 Cu1 1_555 1_555
C1 O2 1_555 1_555
C2 C1 1_555 1_555
C3 C2 1_555 1_555
H2 C3 1_555 1_555
C4 C3 1_555 1_555
H3 C4 1_555 1_555
C5 C4 1_555 1_555
C6 C5 1_555 1_555
H4 C6 1_555 1_555
C7 C2 1_555 1_555
H5 C7 1_555 1_555
C8 N1 1_555 1_555
H6 C8 1_555 1_555
C9 C8 1_555 1_555
H7 C9 1_555 1_555
C10 C9 1_555 1_555
C11 C10 1_555 1_555
H8 C11 1_555 1_555
C12 N1 1_555 1_555
H9 C12 1_555 1_555
C13 C10 1_555 1_555
H10 C13 1_555 1_555
H11 C13 1_555 1_555
C14 C13 1_555 1_555
H12 C14 1_555 1_555
H13 C14 1_555 1_555
Cu1_2 O1M 1_555 1_555
Cu1A N1A 1_555 1_555
O1M C1M 1_555 1_555
O1M_2 Cu1 1_555 1_555
O2M Cu1_2 1_555 1_555
O2M_2 Cu1 1_555 1_555
H1B O4 1_555 1_555
N1A C8A 1_555 1_555
N1M Cu1 1_555 1_555
C1M O2M 1_555 1_555
C2M C1M 1_555 1_555
C3M C2M 1_555 1_555
H2M C3M 1_555 1_555
C4M C3M 1_555 1_555
H3M C4M 1_555 1_555
C5M O3 1_555 1_555
C6M C5M 1_555 1_555
H4M C6M 1_555 1_555
C7M C2M 1_555 1_555
H5M C7M 1_555 1_555
C8A H6A 1_555 1_555
C9A C8A 1_555 1_555
H7A C9A 1_555 1_555
C10A C9A 1_555 1_555
C11A C10A 1_555 1_555
H8A C11A 1_555 1_555
C12A N1A 1_555 1_555
H9A C12A 1_555 1_555
C13A C14 1_555 1_555
H10A C13A 1_555 1_555
H11A C13A 1_555 1_555
C6 C7 1_555 1_555
C11 C12 1_555 1_555
C4M C5M 1_555 1_555
C6M C7M 1_555 1_555
C10A C13A 1_555 1_555
C11A C12A 1_555 1_555

#END
