
#######################################################################
#
#                 Cambridge Crystallographic Data Centre
#                                CCDC 
#
#######################################################################
#
# If this CIF has been generated from an entry in the Cambridge 
# Structural Database, then it will include bibliographic, chemical, 
# crystal, experimental, refinement or atomic coordinate data resulting 
# from the CCDC's data processing and validation procedures.
#
#######################################################################

data_COKPEY
_symmetry_cell_setting           monoclinic
_symmetry_space_group_name_H-M   'P 2/c'
_symmetry_Int_Tables_number      13
_space_group_name_Hall           '-P 2yc'
loop_
_symmetry_equiv_pos_site_id
_symmetry_equiv_pos_as_xyz
1 x,y,z
2 -x,y,1/2-z
3 -x,-y,-z
4 x,-y,1/2+z
_cell_length_a                   8.794(2)
_cell_length_b                   9.856(2)
_cell_length_c                   15.258(3)
_cell_angle_alpha                90
_cell_angle_beta                 113.000(11)
_cell_angle_gamma                90
_cell_volume                     1217.34
loop_
_atom_site_label
_atom_site_type_symbol
_atom_site_fract_x
_atom_site_fract_y
_atom_site_fract_z
Er1 Er 0.5000 0.12267(4) 0.7500
Ag1 Ag 0.0000 0.38493(14) 0.7500
Ag2 Ag 0.88511(8) -0.02308(8) 0.55919(5)
O1 O 0.6315(6) 0.0615(5) 0.6461(3)
O2 O 0.6775(7) 0.1038(6) 0.5162(4)
O3 O 0.2955(6) 0.2904(5) 0.7323(3)
O4 O 0.0849(6) 0.4093(6) 0.6377(4)
O5 O 0.7550(6) 0.0192(4) 0.8484(3)
O6 O 0.9160(6) -0.1608(5) 0.8890(4)
N1 N 0.3995(6) 0.2444(6) 0.6000(4)
N2 N 0.5000 -0.1250(7) 0.7500
C1 C 0.6023(8) 0.1208(7) 0.5692(5)
C2 C 0.4681(9) 0.2205(8) 0.5379(5)
C3 C 0.4138(12) 0.2854(12) 0.4530(6)
H1 H 0.4639 0.2701 0.4103
C4 C 0.2857(14) 0.3729(13) 0.4310(7)
H2 H 0.2458 0.4166 0.3723
C5 C 0.2139(11) 0.3976(10) 0.4955(6)
H3 H 0.1269 0.4584 0.4824
C6 C 0.2767(8) 0.3288(7) 0.5783(5)
C7 C 0.2123(8) 0.3435(7) 0.6558(5)
C8 C 0.7804(8) -0.1043(7) 0.8492(5)
C9 C 0.6374(7) -0.1920(6) 0.7974(4)
C10 C 0.6422(9) -0.3298(7) 0.7987(5)
H4 H 0.7407 -0.3752 0.8323
C11 C 0.5000 -0.4016(11) 0.7500
H5 H 0.5000 -0.4960 0.7500
O7 O 0.0000 0.1141(12) 0.7500
Ag1_2 Ag 1.0000 0.38493(14) 0.7500
Ag2A Ag 0.11489(8) -0.02308(8) 0.94081(5)
Ag2A_2 Ag 1.11489(8) -0.02308(8) 0.94081(5)
Ag2_2 Ag -0.11489(8) -0.02308(8) 0.55919(5)
O1A O 0.3685(6) 0.0615(5) 0.8539(3)
O2A O 0.3225(7) 0.1038(6) 0.9838(4)
O3A O 0.7045(6) 0.2904(5) 0.7677(3)
O4A O 0.9151(6) 0.4093(6) 0.8623(4)
O4A_2 O -0.0849(6) 0.4093(6) 0.8623(4)
O5A O 0.2450(6) 0.0192(4) 0.6516(3)
O6A O 0.0840(6) -0.1608(5) 0.6110(4)
O6A_2 O 1.0840(6) -0.1608(5) 0.6110(4)
O6_2 O -0.0840(6) -0.1608(5) 0.8890(4)
N1A N 0.6005(6) 0.2444(6) 0.9000(4)
C1A C 0.3977(8) 0.1208(7) 0.9308(5)
C2A C 0.5319(9) 0.2205(8) 0.9621(5)
C3A C 0.5862(12) 0.2854(12) 1.0470(6)
H1A H 0.5361 0.2701 1.0897
C4A C 0.7143(14) 0.3729(13) 1.0690(7)
H2A H 0.7542 0.4166 1.1277
C5A C 0.7861(11) 0.3976(10) 1.0045(6)
H3A H 0.8731 0.4584 1.0176
C6A C 0.7233(8) 0.3288(7) 0.9217(5)
C7A C 0.7877(8) 0.3435(7) 0.8442(5)
C8A C 0.2196(8) -0.1043(7) 0.6508(5)
C9A C 0.3626(7) -0.1920(6) 0.7026(4)
C10A C 0.3578(9) -0.3298(7) 0.7013(5)
H4A H 0.2593 -0.3752 0.6677
loop_
_geom_bond_atom_site_label_1
_geom_bond_atom_site_label_2
_geom_bond_site_symmetry_1
_geom_bond_site_symmetry_2
Er1 O1 1_555 1_555
Ag1 O4 1_555 1_555
Ag2 O2 1_555 1_555
O1 C1 1_555 1_555
O2 C1 1_555 1_555
O3 Er1 1_555 1_555
O4 C7 1_555 1_555
O5 Er1 1_555 1_555
O6 C8 1_555 1_555
N1 Er1 1_555 1_555
N2 Er1 1_555 1_555
C1 C2 1_555 1_555
C2 N1 1_555 1_555
C3 C2 1_555 1_555
H1 C3 1_555 1_555
C4 C3 1_555 1_555
H2 C4 1_555 1_555
C5 C4 1_555 1_555
H3 C5 1_555 1_555
C6 N1 1_555 1_555
C7 O3 1_555 1_555
C8 O5 1_555 1_555
C9 N2 1_555 1_555
C10 C9 1_555 1_555
H4 C10 1_555 1_555
C11 C10 1_555 1_555
H5 C11 1_555 1_555
O7 Ag1 1_555 1_555
Ag1_2 O4A 1_555 1_555
Ag2A O2A 1_555 1_555
Ag2A_2 O6 1_555 1_555
Ag2_2 O6A 1_555 1_555
O1A Er1 1_555 1_555
O2A C1A 1_555 1_555
O3A Er1 1_555 1_555
O4A C7A 1_555 1_555
O4A_2 Ag1 1_555 1_555
O5A Er1 1_555 1_555
O6A C8A 1_555 1_555
O6A_2 Ag2 1_555 1_555
O6_2 Ag2A 1_555 1_555
N1A Er1 1_555 1_555
C1A O1A 1_555 1_555
C2A N1A 1_555 1_555
C3A C2A 1_555 1_555
H1A C3A 1_555 1_555
C4A C3A 1_555 1_555
H2A C4A 1_555 1_555
C5A C4A 1_555 1_555
H3A C5A 1_555 1_555
C6A N1A 1_555 1_555
C7A O3A 1_555 1_555
C8A O5A 1_555 1_555
C9A N2 1_555 1_555
C10A C11 1_555 1_555
H4A C10A 1_555 1_555
C5 C6 1_555 1_555
C6 C7 1_555 1_555
C8 C9 1_555 1_555
C1A C2A 1_555 1_555
C5A C6A 1_555 1_555
C6A C7A 1_555 1_555
C8A C9A 1_555 1_555
C9A C10A 1_555 1_555

#END
