
#######################################################################
#
#                 Cambridge Crystallographic Data Centre
#                                CCDC 
#
#######################################################################
#
# If this CIF has been generated from an entry in the Cambridge 
# Structural Database, then it will include bibliographic, chemical, 
# crystal, experimental, refinement or atomic coordinate data resulting 
# from the CCDC's data processing and validation procedures.
#
#######################################################################

data_COKQUQ
_symmetry_cell_setting           triclinic
_symmetry_space_group_name_H-M   'P -1'
_symmetry_Int_Tables_number      2
_space_group_name_Hall           '-P 1'
loop_
_symmetry_equiv_pos_site_id
_symmetry_equiv_pos_as_xyz
1 x,y,z
2 -x,-y,-z
_cell_length_a                   8.0800(4)
_cell_length_b                   11.3850(6)
_cell_length_c                   12.2820(6)
_cell_angle_alpha                97.402(4)
_cell_angle_beta                 106.530(4)
_cell_angle_gamma                110.445(5)
_cell_volume                     981.607
loop_
_atom_site_label
_atom_site_type_symbol
_atom_site_fract_x
_atom_site_fract_y
_atom_site_fract_z
Zn1 Zn 0.000 0.000 0.000
K1 K 0.19507(10) 0.45523(8) -0.04382(6)
S1 S 0.47760(10) 0.41851(7) 0.19795(6)
S2 S -0.23274(10) 0.18607(7) -0.06294(6)
O1 O -0.9385(4) -0.1347(3) -0.5783(3)
O2 O -0.8015(4) 0.0489(3) -0.6239(2)
O3 O -0.1610(3) 0.3257(2) -0.0395(2)
O4 O -0.3259(3) 0.1332(2) 0.01577(18)
O5 O -0.0857(3) 0.1404(2) -0.06763(18)
O6 O 1.0802(3) 0.6982(2) 0.7475(2)
O7 O 1.0024(3) 0.4919(2) 0.7582(2)
O8 O 0.2815(3) 0.3656(2) 0.1884(2)
O9 O 0.5261(3) 0.5353(2) 0.1565(2)
O10 O 0.5286(3) 0.3232(3) 0.1414(2)
O11 O 0.1846(3) 0.2256(2) -0.2062(2)
H1 H 0.2845 0.2754 -0.2089
H2 H 0.1915 0.1657 -0.1745
O12 O 0.0881(3) 0.1067(2) 0.16582(19)
H3 H 0.1255 0.0813 0.2272
H4 H 0.1318 0.1855 0.1809
O13 O 0.2629(3) 0.1002(2) -0.02037(18)
H5 H 0.3083 0.046 -0.0332
H6 H 0.3451 0.164 0.0344
C1 C -0.8103(5) -0.0169(3) -0.5544(3)
C2 C -0.6708(4) 0.0291(3) -0.4316(3)
C3 C -0.6874(4) -0.0424(3) -0.3498(3)
H7 H -0.7886 -0.1225 -0.3705
C4 C -0.5550(4) 0.0039(3) -0.2373(3)
H8 H -0.5659 -0.0448 -0.1825
C5 C -0.4056(4) 0.1241(3) -0.2071(2)
C6 C -0.3878(4) 0.1972(3) -0.2878(3)
H9 H -0.2878 0.2778 -0.2668
C7 C -0.5209(4) 0.1486(3) -0.4002(3)
H10 H -0.5096 0.1968 -0.4553
C8 C 0.9820(4) 0.5703(3) 0.7047(3)
C9 C 0.8480(4) 0.5347(3) 0.5821(2)
C10 C 0.7765(4) 0.4071(3) 0.5170(3)
H11 H 0.8065 0.3459 0.5519
C11 C 0.6606(4) 0.3711(3) 0.4000(3)
H12 H 0.6126 0.2859 0.3561
C12 C 0.6174(4) 0.4634(3) 0.3496(3)
C13 C 0.6846(5) 0.5902(3) 0.4143(3)
H13 H 0.6522 0.6508 0.3795
C14 C 0.8004(4) 0.6259(3) 0.5312(3)
H14 H 0.8461 0.7108 0.5753
H15 H -0.997(6) -0.148(4) -0.636(4)
H16 H 1.168(7) 0.725(5) 0.816(5)
K1A K -0.19507(10) -0.45523(8) 0.04382(6)
S1A S -0.47760(10) -0.41851(7) -0.19795(6)
S2A S 0.23274(10) -0.18607(7) 0.06294(6)
O1A O 0.9385(4) 0.1347(3) 0.5783(3)
O2A O 0.8015(4) -0.0489(3) 0.6239(2)
O3A O 0.1610(3) -0.3257(2) 0.0395(2)
O4A O 0.3259(3) -0.1332(2) -0.01577(18)
O5A O 0.0857(3) -0.1404(2) 0.06763(18)
O6A O -1.0802(3) -0.6982(2) -0.7475(2)
O7A O -1.0024(3) -0.4919(2) -0.7582(2)
O8A O -0.2815(3) -0.3656(2) -0.1884(2)
O9A O -0.5261(3) -0.5353(2) -0.1565(2)
O10A O -0.5286(3) -0.3232(3) -0.1414(2)
O11A O -0.1846(3) -0.2256(2) 0.2062(2)
H1A H -0.2845 -0.2754 0.2089
H2A H -0.1915 -0.1657 0.1745
O12A O -0.0881(3) -0.1067(2) -0.16582(19)
H3A H -0.1255 -0.0813 -0.2272
H4A H -0.1318 -0.1855 -0.1809
O13A O -0.2629(3) -0.1002(2) 0.02037(18)
H5A H -0.3083 -0.046 0.0332
H6A H -0.3451 -0.164 -0.0344
C1A C 0.8103(5) 0.0169(3) 0.5544(3)
C2A C 0.6708(4) -0.0291(3) 0.4316(3)
C3A C 0.6874(4) 0.0424(3) 0.3498(3)
H7A H 0.7886 0.1225 0.3705
C4A C 0.5550(4) -0.0039(3) 0.2373(3)
H8A H 0.5659 0.0448 0.1825
C5A C 0.4056(4) -0.1241(3) 0.2071(2)
C6A C 0.3878(4) -0.1972(3) 0.2878(3)
H9A H 0.2878 -0.2778 0.2668
C7A C 0.5209(4) -0.1486(3) 0.4002(3)
H10A H 0.5096 -0.1968 0.4553
C8A C -0.9820(4) -0.5703(3) -0.7047(3)
C9A C -0.8480(4) -0.5347(3) -0.5821(2)
C10A C -0.7765(4) -0.4071(3) -0.5170(3)
H11A H -0.8065 -0.3459 -0.5519
C11A C -0.6606(4) -0.3711(3) -0.4000(3)
H12A H -0.6126 -0.2859 -0.3561
C12A C -0.6174(4) -0.4634(3) -0.3496(3)
C13A C -0.6846(5) -0.5902(3) -0.4143(3)
H13A H -0.6522 -0.6508 -0.3795
C14A C -0.8004(4) -0.6259(3) -0.5312(3)
H14A H -0.8461 -0.7108 -0.5753
H15A H 0.997(6) 0.148(4) 0.636(4)
H16A H -1.168(7) -0.725(5) -0.816(5)
K1_2 K -0.80493(10) -0.54477(8) -0.04382(6)
K1_3 K 0.19507(10) -0.54477(8) -0.04382(6)
K1_4 K 1.19507(10) 0.45523(8) 0.95618(6)
K1A_2 K -1.19507(10) -0.45523(8) -0.95618(6)
K1A_3 K -0.19507(10) 0.54477(8) 0.04382(6)
K1A_4 K 0.80493(10) 0.54477(8) 0.04382(6)
O3_2 O -0.1610(3) -0.6743(2) -0.0395(2)
O3A_2 O 0.1610(3) 0.6743(2) 0.0395(2)
O7_2 O 0.0024(3) 0.4919(2) -0.2418(2)
O7A_2 O -0.0024(3) -0.4919(2) 0.2418(2)
O9_2 O -0.4739(3) -0.4647(2) 0.1565(2)
O9A_2 O 0.4739(3) 0.4647(2) -0.1565(2)
O10_2 O -0.4714(3) -0.6768(3) 0.1414(2)
O10A_2 O 0.4714(3) 0.6768(3) -0.1414(2)
loop_
_geom_bond_atom_site_label_1
_geom_bond_atom_site_label_2
_geom_bond_site_symmetry_1
_geom_bond_site_symmetry_2
Zn1 O5 1_555 1_555
K1 O3 1_555 1_555
S1 O8 1_555 1_555
S2 O3 1_555 1_555
O1 C1 1_555 1_555
O2 C1 1_555 1_555
O3 K1A_3 1_555 1_555
O4 S2 1_555 1_555
O5 S2 1_555 1_555
O6 C8 1_555 1_555
O7 C8 1_555 1_555
O8 K1 1_555 1_555
O9 K1 1_555 1_555
O10 S1 1_555 1_555
O11 K1 1_555 1_555
H1 O11 1_555 1_555
H2 O11 1_555 1_555
O12 Zn1 1_555 1_555
H3 O12 1_555 1_555
H4 O12 1_555 1_555
O13 Zn1 1_555 1_555
H5 O13 1_555 1_555
H6 O13 1_555 1_555
C1 C2 1_555 1_555
C2 C3 1_555 1_555
C3 H7 1_555 1_555
C4 C3 1_555 1_555
H8 C4 1_555 1_555
C5 S2 1_555 1_555
C6 C5 1_555 1_555
H9 C6 1_555 1_555
C7 C2 1_555 1_555
H10 C7 1_555 1_555
C8 C9 1_555 1_555
C9 C10 1_555 1_555
C10 H11 1_555 1_555
C11 C10 1_555 1_555
H12 C11 1_555 1_555
C12 S1 1_555 1_555
C13 C12 1_555 1_555
H13 C13 1_555 1_555
C14 C9 1_555 1_555
H14 C14 1_555 1_555
H15 O1 1_555 1_555
H16 O6 1_555 1_555
K1A O3A 1_555 1_555
S1A O8A 1_555 1_555
S2A O3A 1_555 1_555
O1A C1A 1_555 1_555
O2A C1A 1_555 1_555
O3A K1_3 1_555 1_555
O4A S2A 1_555 1_555
O5A Zn1 1_555 1_555
O6A C8A 1_555 1_555
O7A C8A 1_555 1_555
O8A K1A 1_555 1_555
O9A K1A 1_555 1_555
O10A S1A 1_555 1_555
O11A K1A 1_555 1_555
H1A O11A 1_555 1_555
H2A O11A 1_555 1_555
O12A Zn1 1_555 1_555
H3A O12A 1_555 1_555
H4A O12A 1_555 1_555
O13A Zn1 1_555 1_555
H5A O13A 1_555 1_555
H6A O13A 1_555 1_555
C1A C2A 1_555 1_555
C2A C3A 1_555 1_555
C3A H7A 1_555 1_555
C4A C3A 1_555 1_555
H8A C4A 1_555 1_555
C5A S2A 1_555 1_555
C6A C5A 1_555 1_555
H9A C6A 1_555 1_555
C7A C2A 1_555 1_555
H10A C7A 1_555 1_555
C8A C9A 1_555 1_555
C9A C10A 1_555 1_555
C10A H11A 1_555 1_555
C11A C10A 1_555 1_555
H12A C11A 1_555 1_555
C12A S1A 1_555 1_555
C13A C12A 1_555 1_555
H13A C13A 1_555 1_555
C14A C9A 1_555 1_555
H14A C14A 1_555 1_555
H15A O1A 1_555 1_555
H16A O6A 1_555 1_555
K1_2 O9A 1_555 1_555
K1_3 O3_2 1_555 1_555
K1_4 O7 1_555 1_555
K1A_2 O7A 1_555 1_555
K1A_3 O3A_2 1_555 1_555
K1A_4 O9 1_555 1_555
O3_2 K1A 1_555 1_555
O3A_2 K1 1_555 1_555
O7_2 K1 1_555 1_555
O7A_2 K1A 1_555 1_555
O9_2 K1A 1_555 1_555
O9A_2 K1 1_555 1_555
O10_2 K1A 1_555 1_555
O10A_2 K1 1_555 1_555
S1 O9 1_555 1_555
O10 K1A_4 1_555 1_555
C4 C5 1_555 1_555
C6 C7 1_555 1_555
C11 C12 1_555 1_555
C13 C14 1_555 1_555
S1A O9A 1_555 1_555
S2A O5A 1_555 1_555
O10A K1_2 1_555 1_555
C4A C5A 1_555 1_555
C6A C7A 1_555 1_555
C11A C12A 1_555 1_555
C13A C14A 1_555 1_555
K1_2 O9_2 1_555 1_555
K1A_4 O9A_2 1_555 1_555

#END
