
#######################################################################
#
#                 Cambridge Crystallographic Data Centre
#                                CCDC 
#
#######################################################################
#
# If this CIF has been generated from an entry in the Cambridge 
# Structural Database, then it will include bibliographic, chemical, 
# crystal, experimental, refinement or atomic coordinate data resulting 
# from the CCDC's data processing and validation procedures.
#
#######################################################################

data_COKRAX
_symmetry_cell_setting           triclinic
_symmetry_space_group_name_H-M   'P -1'
_symmetry_Int_Tables_number      2
_space_group_name_Hall           '-P 1'
loop_
_symmetry_equiv_pos_site_id
_symmetry_equiv_pos_as_xyz
1 x,y,z
2 -x,-y,-z
_cell_length_a                   8.0550(5)
_cell_length_b                   10.1520(7)
_cell_length_c                   12.5410(8)
_cell_angle_alpha                99.084(6)
_cell_angle_beta                 95.358(5)
_cell_angle_gamma                106.090(6)
_cell_volume                     962.784
loop_
_atom_site_label
_atom_site_type_symbol
_atom_site_fract_x
_atom_site_fract_y
_atom_site_fract_z
Mn1 Mn 1 0.500 1
K1 K 0.37321(13) 0.07616(10) 0.09614(7)
S1 S 0.58666(12) 0.29752(10) 0.87153(7)
S2 S 0.96326(14) 0.22353(10) 1.12957(8)
O1 O 0.4101(4) 0.1066(3) 0.3225(2)
O2 O 0.1578(4) -0.0053(3) 0.3720(3)
O3 O 0.5651(4) 0.1771(3) 0.9220(2)
O4 O 0.4787(4) 0.3833(3) 0.9099(2)
O5 O 0.7683(3) 0.3816(3) 0.8794(2)
O6 O 1.0921(4) 0.3910(3) 1.6795(2)
O7 O 1.3437(4) 0.5181(4) 1.6388(3)
O8 O 0.9125(3) 0.3403(3) 1.0961(2)
O9 O 1.1150(5) 0.2060(4) 1.0820(2)
O10 O 0.8177(5) 0.0985(3) 1.1124(2)
O11 O 1.1313(3) 0.3819(3) 0.8967(2)
H1 H 1.2295 0.3798 0.9202
H2 H 1.1212 0.3854 0.8305
O12 O 0.0571(4) -0.0878(3) 0.1588(2)
H3 H 0.0256 -0.1719 0.1365
H4 H -0.0083 -0.0444 0.1343
O13 O 0.5742(4) 0.3603(3) 0.1552(2)
H5 H 0.5238 0.4038 0.1199
H6 H 0.662 0.3478 0.129
C1 C 0.3199(5) 0.0781(4) 0.3926(3)
C2 C 0.3824(5) 0.1314(4) 0.5115(3)
C3 C 0.5516(5) 0.2148(5) 0.5436(3)
H7 H 0.6224 0.2382 0.4908
C4 C 0.6189(5) 0.2646(4) 0.6526(3)
H8 H 0.7349 0.3184 0.673
C5 C 0.5122(5) 0.2337(4) 0.7306(3)
C6 C 0.3403(5) 0.1500(4) 0.6993(3)
H9 H 0.2686 0.1279 0.7519
C7 C 0.2763(5) 0.1000(4) 0.5901(3)
H10 H 0.161 0.0448 0.5692
C8 C 1.1879(5) 0.4268(4) 1.6130(3)
C9 C 1.1368(5) 0.3735(4) 1.4934(3)
C10 C 1.2482(5) 0.4151(5) 1.4198(3)
H11 H 1.3594 0.4764 1.4447
C11 C 1.1952(6) 0.3664(5) 1.3093(3)
H12 H 1.2712 0.3936 1.26
C12 C 1.0296(5) 0.2774(4) 1.2722(3)
C13 C 0.9167(5) 0.2330(5) 1.3447(3)
H13 H 0.805 0.1727 1.3194
C14 C 0.9727(5) 0.2798(5) 1.4555(3)
H14 H 0.8995 0.2479 1.505
H15 H 0.133(6) -0.030(5) 0.308(4)
H16 H 1.365(7) 0.544(5) 1.706(4)
K1A K 0.62679(13) -0.07616(10) 0.90386(7)
S1A S 0.41334(12) -0.29752(10) 0.12847(7)
S2A S 0.03674(14) -0.22353(10) -0.12957(8)
O1A O 0.5899(4) -0.1066(3) 0.6775(2)
O2A O 0.8422(4) 0.0053(3) 0.6280(3)
O3A O 0.4349(4) -0.1771(3) 0.0780(2)
O4A O 0.5213(4) -0.3833(3) 0.0901(2)
O5A O 0.2317(3) -0.3816(3) 0.1206(2)
O6A O -0.0921(4) -0.3910(3) -0.6795(2)
O7A O -0.3437(4) -0.5181(4) -0.6388(3)
O8A O 0.0875(3) -0.3403(3) -0.0961(2)
O9A O -0.1150(5) -0.2060(4) -0.0820(2)
O10A O 0.1823(5) -0.0985(3) -0.1124(2)
O12A O 0.9429(4) 0.0878(3) 0.8412(2)
H3A H 0.9744 0.1719 0.8635
H4A H 1.0083 0.0444 0.8657
O13A O 0.4258(4) -0.3603(3) 0.8448(2)
H5A H 0.4762 -0.4038 0.8801
H6A H 0.338 -0.3478 0.871
C1A C 0.6801(5) -0.0781(4) 0.6074(3)
C2A C 0.6176(5) -0.1314(4) 0.4885(3)
C3A C 0.4484(5) -0.2148(5) 0.4564(3)
H7A H 0.3776 -0.2382 0.5092
C4A C 0.3811(5) -0.2646(4) 0.3474(3)
H8A H 0.2651 -0.3184 0.327
C5A C 0.4878(5) -0.2337(4) 0.2694(3)
C6A C 0.6597(5) -0.1500(4) 0.3007(3)
H9A H 0.7314 -0.1279 0.2481
C7A C 0.7237(5) -0.1000(4) 0.4099(3)
H10A H 0.839 -0.0448 0.4308
C8A C -0.1879(5) -0.4268(4) -0.6130(3)
C9A C -0.1368(5) -0.3735(4) -0.4934(3)
C10A C -0.2482(5) -0.4151(5) -0.4198(3)
H11A H -0.3594 -0.4764 -0.4447
C11A C -0.1952(6) -0.3664(5) -0.3093(3)
H12A H -0.2712 -0.3936 -0.26
C12A C -0.0296(5) -0.2774(4) -0.2722(3)
C13A C 0.0833(5) -0.2330(5) -0.3447(3)
H13A H 0.195 -0.1727 -0.3194
C14A C 0.0273(5) -0.2798(5) -0.4555(3)
H14A H 0.1005 -0.2479 -0.505
H15A H 0.867(6) 0.030(5) 0.692(4)
H16A H -0.365(7) -0.544(5) -0.706(4)
O11A O 0.8687(3) 0.6181(3) 1.1033(2)
H1A H 0.7705 0.6202 1.0798
H2A H 0.8788 0.6146 1.1695
Mn1_2 Mn 0 -0.500 0
K1_2 K 0.37321(13) 0.07616(10) 1.09614(7)
K1_3 K 1.37321(13) 0.07616(10) 1.09614(7)
K1A_2 K -0.37321(13) -0.07616(10) -0.09614(7)
K1A_3 K 0.62679(13) -0.07616(10) -0.09614(7)
O3_2 O 0.5651(4) 0.1771(3) -0.0780(2)
O3A_2 O 0.4349(4) -0.1771(3) 1.0780(2)
O5A_2 O 1.2317(3) 0.6184(3) 1.1206(2)
O8A_2 O 1.0875(3) 0.6597(3) 0.9039(2)
O9_2 O 0.1150(5) 0.2060(4) 0.0820(2)
O9A_2 O 0.8850(5) -0.2060(4) 0.9180(2)
loop_
_geom_bond_atom_site_label_1
_geom_bond_atom_site_label_2
_geom_bond_site_symmetry_1
_geom_bond_site_symmetry_2
Mn1 O5 1_555 1_555
K1 O1 1_555 1_555
S1 O3 1_555 1_555
S2 O8 1_555 1_555
O1 C1 1_555 1_555
O2 C1 1_555 1_555
O3 K1A 1_555 1_555
O4 S1 1_555 1_555
O5 S1 1_555 1_555
O6 C8 1_555 1_555
O7 C8 1_555 1_555
O8 Mn1 1_555 1_555
O9 S2 1_555 1_555
O10 S2 1_555 1_555
O11 Mn1 1_555 1_555
H1 O11 1_555 1_555
H2 O11 1_555 1_555
O12 K1 1_555 1_555
H3 O12 1_555 1_555
H4 O12 1_555 1_555
O13 K1 1_555 1_555
H5 O13 1_555 1_555
H6 O13 1_555 1_555
C1 C2 1_555 1_555
C2 C3 1_555 1_555
C3 H7 1_555 1_555
C4 C3 1_555 1_555
H8 C4 1_555 1_555
C5 S1 1_555 1_555
C6 C5 1_555 1_555
H9 C6 1_555 1_555
C7 C2 1_555 1_555
H10 C7 1_555 1_555
C8 C9 1_555 1_555
C9 C10 1_555 1_555
C10 H11 1_555 1_555
C11 C10 1_555 1_555
H12 C11 1_555 1_555
C12 S2 1_555 1_555
C13 C12 1_555 1_555
H13 C13 1_555 1_555
C14 C9 1_555 1_555
H14 C14 1_555 1_555
H15 O2 1_555 1_555
H16 O7 1_555 1_555
K1A O10 1_555 1_555
S1A O3A 1_555 1_555
S2A O8A 1_555 1_555
O1A K1A 1_555 1_555
O2A C1A 1_555 1_555
O3A K1 1_555 1_555
O4A S1A 1_555 1_555
O5A S1A 1_555 1_555
O6A C8A 1_555 1_555
O7A C8A 1_555 1_555
O8A Mn1_2 1_555 1_555
O9A S2A 1_555 1_555
O10A K1 1_555 1_555
O12A K1A 1_555 1_555
H3A O12A 1_555 1_555
H4A O12A 1_555 1_555
O13A K1A 1_555 1_555
H5A O13A 1_555 1_555
H6A O13A 1_555 1_555
C1A O1A 1_555 1_555
C2A C1A 1_555 1_555
C3A C2A 1_555 1_555
H7A C3A 1_555 1_555
C4A C3A 1_555 1_555
H8A C4A 1_555 1_555
C5A S1A 1_555 1_555
C6A C5A 1_555 1_555
H9A C6A 1_555 1_555
C7A C2A 1_555 1_555
H10A C7A 1_555 1_555
C8A C9A 1_555 1_555
C9A C10A 1_555 1_555
C10A H11A 1_555 1_555
C11A C10A 1_555 1_555
H12A C11A 1_555 1_555
C12A S2A 1_555 1_555
C13A C12A 1_555 1_555
H13A C13A 1_555 1_555
C14A C9A 1_555 1_555
H14A C14A 1_555 1_555
H15A O2A 1_555 1_555
H16A O7A 1_555 1_555
O11A Mn1 1_555 1_555
H1A O11A 1_555 1_555
H2A O11A 1_555 1_555
Mn1_2 O5A 1_555 1_555
K1_2 O3 1_555 1_555
K1_3 O9 1_555 1_555
K1A_2 O9A 1_555 1_555
K1A_3 O3A 1_555 1_555
O3_2 K1 1_555 1_555
O3A_2 K1A 1_555 1_555
O5A_2 Mn1 1_555 1_555
O8A_2 Mn1 1_555 1_555
O9_2 K1 1_555 1_555
O9A_2 K1A 1_555 1_555
C4 C5 1_555 1_555
C6 C7 1_555 1_555
C11 C12 1_555 1_555
C13 C14 1_555 1_555
S2A O10A 1_555 1_555
C4A C5A 1_555 1_555
C6A C7A 1_555 1_555
C11A C12A 1_555 1_555
C13A C14A 1_555 1_555
K1_2 O3A_2 1_555 1_555
K1A_3 O3_2 1_555 1_555

#END
