
#######################################################################
#
#                 Cambridge Crystallographic Data Centre
#                                CCDC 
#
#######################################################################
#
# If this CIF has been generated from an entry in the Cambridge 
# Structural Database, then it will include bibliographic, chemical, 
# crystal, experimental, refinement or atomic coordinate data resulting 
# from the CCDC's data processing and validation procedures.
#
#######################################################################

data_COKRUR
_symmetry_cell_setting           monoclinic
_symmetry_space_group_name_H-M   'C c'
_symmetry_Int_Tables_number      9
_space_group_name_Hall           'C -2yc'
loop_
_symmetry_equiv_pos_site_id
_symmetry_equiv_pos_as_xyz
1 x,y,z
2 x,-y,1/2+z
3 1/2+x,1/2+y,z
4 1/2+x,1/2-y,1/2+z
_cell_length_a                   41.982(2)
_cell_length_b                   21.5588(12)
_cell_length_c                   43.755(2)
_cell_angle_alpha                90
_cell_angle_beta                 92.6350(10)
_cell_angle_gamma                90
_cell_volume                     39560
loop_
_atom_site_label
_atom_site_type_symbol
_atom_site_fract_x
_atom_site_fract_y
_atom_site_fract_z
In1 In 0.70749(3) 1.05183(5) 0.50499(2)
In2 In 0.46020(3) 0.74095(8) 0.25595(3)
O1 O 0.2470(3) 0.4344(5) 0.0442(3)
O2 O 0.6713(3) 0.9535(6) 0.0397(2)
N1 N 0.4625(3) 0.7304(5) 0.2095(2)
O3 O 0.6679(2) 1.0656(5) 0.4661(2)
N2 N 0.4600(3) 0.7539(5) 0.3031(3)
C1 C 0.6657(4) 0.8947(8) 0.0396(3)
N3 N 0.4144(2) 0.7064(4) 0.2558(2)
O4 O 0.2461(3) 0.5448(6) 0.4733(3)
O5 O 0.6810(3) 0.8578(5) 0.0260(3)
C2 C 0.5238(4) 0.7854(7) 0.2290(3)
C3 C 0.2490(4) 0.5992(9) 0.4693(3)
C4 C 0.5504(4) 0.8227(9) 0.2395(3)
H1 H 0.5651 0.8416 0.2265
C5 C 0.3968(3) 0.6842(6) 0.2314(3)
C6 C 0.4857(3) 0.7445(6) 0.1903(3)
C7 C 0.4044(3) 0.6853(6) 0.2006(3)
C8 C 0.6241(2) 0.8822(3) 0.4173(2)
H2 H 0.6243 0.8383 0.4158
C9 C 0.64508(19) 0.9121(4) 0.43798(18)
H3 H 0.6596 0.8886 0.4506
C10 C 0.64477(19) 0.9764(4) 0.44021(17)
C11 C 0.6235(2) 1.0108(3) 0.4218(2)
H4 H 0.6233 1.0548 0.4233
C12 C 0.6025(2) 0.9810(5) 0.40115(18)
H5 H 0.5880 1.0045 0.3886
C13 C 0.6028(2) 0.9167(5) 0.39892(18)
C14 C 0.4351(3) 0.7059(8) 0.1906(3)
C15 C 0.3820(2) 0.6588(4) 0.17723(18)
C16 C 0.3526(2) 0.6866(3) 0.1706(2)
H6 H 0.3470 0.7238 0.1807
C17 C 0.33130(18) 0.6600(4) 0.1491(2)
H7 H 0.3112 0.6790 0.1446
C18 C 0.3394(2) 0.6057(4) 0.13428(19)
C19 C 0.3688(2) 0.5778(4) 0.1409(2)
H8 H 0.3743 0.5407 0.1308
C20 C 0.39005(18) 0.6044(5) 0.1624(2)
H9 H 0.4101 0.5854 0.1669
C21 C 0.3158(2) 0.5761(5) 0.1112(2)
C22 C 0.2950(2) 0.6138(4) 0.0939(2)
H10 H 0.2959 0.6576 0.0963
C23 C 0.2729(2) 0.5875(5) 0.0732(2)
H11 H 0.2587 0.6132 0.0613
C24 C 0.2716(2) 0.5234(5) 0.0697(2)
C25 C 0.2923(3) 0.4857(4) 0.0869(2)
H12 H 0.2914 0.4419 0.0846
C26 C 0.3145(2) 0.5120(5) 0.1077(2)
H13 H 0.3287 0.4863 0.1195
O6 O 0.6845(2) 0.9756(4) 0.4811(2)
O7 O 0.2311(3) 0.6333(6) 0.4796(3)
N4 N 0.5059(3) 0.7725(6) 0.2566(3)
C27 C 0.3667(3) 0.6677(6) 0.2720(3)
H14 H 0.3502 0.6560 0.2850
C28 C 0.4837(4) 0.7838(7) 0.3196(3)
C29 C 0.6667(3) 1.0112(6) 0.4638(3)
C30 C 0.3664(3) 0.6605(6) 0.2411(3)
H15 H 0.3497 0.6433 0.2284
C31 C 0.4746(3) 0.7772(7) 0.3517(3)
H16 H 0.4871 0.7906 0.3691
C32 C 0.5132(3) 0.7717(7) 0.2002(3)
C33 C 0.4363(3) 0.7367(6) 0.3221(3)
C34 C 0.3819(3) 0.6977(6) 0.3342(2)
C35 C 0.3557(3) 0.7347(5) 0.3400(3)
H17 H 0.3516 0.7710 0.3282
C36 C 0.3356(2) 0.7185(6) 0.3631(3)
H18 H 0.3177 0.7438 0.3670
C37 C 0.3416(2) 0.6654(6) 0.3804(2)
C38 C 0.3678(3) 0.6284(5) 0.3746(3)
H19 H 0.3719 0.5921 0.3864
C39 C 0.3879(2) 0.6445(6) 0.3515(3)
H20 H 0.4058 0.6192 0.3475
C40 C 0.4076(3) 0.7114(6) 0.3111(3)
C41 C 0.5216(4) 0.7972(8) 0.2788(3)
C42 C 0.5763(3) 0.8238(6) 0.1305(2)
C43 C 0.5506(3) 0.8619(5) 0.1367(3)
H21 H 0.5472 0.8993 0.1256
C44 C 0.5300(2) 0.8452(5) 0.1592(3)
H22 H 0.5124 0.8712 0.1634
C45 C 0.5349(2) 0.7904(5) 0.1755(2)
C46 C 0.5605(3) 0.7523(4) 0.1693(2)
H23 H 0.5639 0.7149 0.1804
C47 C 0.5812(2) 0.7691(5) 0.1468(3)
H24 H 0.5987 0.7430 0.1425
C48 C 0.5517(4) 0.8272(8) 0.2713(3)
H25 H 0.5677 0.8450 0.2846
C49 C 0.3973(3) 0.6972(5) 0.2818(3)
C50 C 0.4454(3) 0.7093(7) 0.1593(3)
H26 H 0.4334 0.6959 0.1416
C51 C 0.4453(3) 0.7490(7) 0.3527(3)
H27 H 0.4337 0.7398 0.3703
C52 C 0.5793(2) 0.8831(5) 0.37647(19)
C53 C 0.5494(2) 0.9090(4) 0.3704(2)
H28 H 0.5435 0.9460 0.3805
C54 C 0.52809(17) 0.8810(4) 0.3494(2)
H29 H 0.5076 0.8987 0.3453
C55 C 0.5367(2) 0.8269(4) 0.33456(18)
C56 C 0.5666(2) 0.8010(4) 0.3407(2)
H30 H 0.5725 0.7641 0.3305
C57 C 0.58795(17) 0.8291(5) 0.3616(2)
H31 H 0.6084 0.8113 0.3658
C58 C 0.5147(3) 0.7975(6) 0.3105(3)
C59 C 0.6272(3) 0.9199(4) 0.0806(2)
H32 H 0.6307 0.9628 0.0770
C60 C 0.6438(2) 0.8756(6) 0.0648(2)
C61 C 0.6387(3) 0.8129(5) 0.0701(2)
H33 H 0.6501 0.7826 0.0592
C62 C 0.6169(3) 0.7945(4) 0.0912(3)
H34 H 0.6134 0.7517 0.0948
C63 C 0.6002(3) 0.8389(6) 0.1071(3)
C64 C 0.6053(3) 0.9016(5) 0.1018(2)
H35 H 0.5939 0.9319 0.1126
C65 C 0.2975(3) 0.6970(4) 0.4165(2)
H36 H 0.2985 0.7385 0.4095
C66 C 0.3175(2) 0.6522(5) 0.4050(2)
C67 C 0.3160(2) 0.5913(5) 0.4153(2)
H37 H 0.3297 0.5607 0.4075
C68 C 0.2944(2) 0.5752(4) 0.4371(2)
H38 H 0.2934 0.5336 0.4442
C69 C 0.2744(2) 0.6200(5) 0.4486(2)
C70 C 0.2759(2) 0.6809(4) 0.4383(2)
H39 H 0.2622 0.7115 0.4462
C71 C 0.4741(3) 0.7340(6) 0.1597(3)
H40 H 0.4854 0.7434 0.1420
C72 C 0.2476(3) 0.4946(7) 0.0477(3)
O8 O 0.2297(2) 0.5306(5) 0.0323(2)
O9 O 0.4424(3) 0.8574(5) 0.2462(3)
O10 O 0.4792(3) 0.6300(5) 0.2689(2)
In1A In 0.70749(3) 0.94817(5) 0.00499(2)
In1B In 0.20749(3) 0.55183(5) 0.50499(2)
In1C In 0.20749(3) 0.44817(5) 0.00499(2)
O1C O 0.7470(3) 1.0656(5) 0.5442(3)
O2A O 0.6713(3) 1.0465(6) 0.5397(2)
O4B O 0.7461(3) 1.0448(6) 0.4733(3)
O5A O 0.6810(3) 1.1422(5) 0.5260(3)
O7B O 0.7311(3) 1.1333(6) 0.4796(3)
O8C O 0.7297(2) 0.9694(5) 0.5323(2)
In3 In 0.45741(2) 0.54375(5) 0.63047(2)
In4 In 0.20736(3) 0.24726(7) 0.38160(3)
O11 O 0.4181(2) 0.5596(5) 0.5913(2)
N5 N 0.1610(3) 0.2160(5) 0.3827(2)
O12 O -0.0024(2) 0.0304(5) 0.5979(2)
O13 O 0.4186(2) 0.4704(5) 0.1623(2)
C73 C 0.2269(3) 0.3051(5) 0.4457(2)
O14 O -0.0217(2) 0.0440(4) 0.1569(2)
O15 O 0.4338(2) 0.4689(4) 0.6038(2)
C74 C 0.2300(3) 0.2607(7) 0.3152(3)
O16 O -0.0177(2) 0.1237(4) 0.6076(2)
C75 C 0.12875(19) 0.2103(4) 0.46121(17)
C76 C 0.13888(17) 0.1769(4) 0.4871(2)
H41 H 0.1605 0.1643 0.4897
C77 C 0.1173(2) 0.1620(4) 0.50909(16)
H42 H 0.1243 0.1392 0.5268
C78 C 0.0857(2) 0.1803(4) 0.50528(19)
C79 C 0.07554(16) 0.2137(4) 0.4794(2)
H43 H 0.0539 0.2263 0.4768
C80 C 0.0971(2) 0.2286(4) 0.45740(18)
H44 H 0.0902 0.2514 0.4397
N6 N 0.2055(2) 0.2740(5) 0.4291(2)
C81 C 0.1802(3) 0.2576(5) 0.4469(3)
N7 N 0.2482(3) 0.2990(5) 0.3806(2)
N8 N 0.2054(3) 0.2457(5) 0.3340(2)
O17 O -0.0057(2) -0.0483(5) 0.1689(2)
O18 O 0.4342(2) 0.3706(5) 0.1590(2)
C82 C -0.0047(3) 0.0101(8) 0.1721(3)
C83 C 0.1512(3) 0.2267(7) 0.4369(3)
C84 C 0.2669(3) 0.3250(7) 0.4051(3)
C85 C 0.2939(3) 0.3503(6) 0.3638(3)
H45 H 0.3097 0.3645 0.3506
C86 C 0.2936(3) 0.3590(6) 0.3945(3)
H46 H 0.3082 0.3832 0.4066
C87 C 0.1424(3) 0.2022(6) 0.4071(3)
C88 C 0.2659(3) 0.3155(7) 0.3549(3)
C89 C 0.3735(2) 0.5172(3) 0.5478(2)
H47 H 0.3763 0.5608 0.5496
C90 C 0.3509(2) 0.4933(4) 0.5268(2)
H48 H 0.3383 0.5205 0.5142
C91 C 0.3468(2) 0.4295(5) 0.52413(18)
C92 C 0.3653(2) 0.3896(3) 0.5426(2)
H49 H 0.3625 0.3460 0.5408
C93 C 0.3878(2) 0.4135(4) 0.56363(18)
H50 H 0.4004 0.3863 0.5762
C94 C 0.39193(19) 0.4773(5) 0.56627(18)
C95 C 0.1152(3) 0.1604(6) 0.3682(3)
H51 H 0.0993 0.1400 0.3557
C96 C 0.2562(3) 0.3240(5) 0.4353(3)
C97 C 0.1438(3) 0.1882(6) 0.3571(3)
C98 C 0.2157(3) 0.3124(5) 0.4767(2)
H52 H 0.2268 0.3307 0.4938
C99 C 0.1861(3) 0.2873(6) 0.4756(3)
H53 H 0.1716 0.2893 0.4916
C100 C 0.0645(2) 0.0190(5) 0.2301(3)
H54 H 0.0806 -0.0066 0.2393
C101 C 0.0634(2) 0.0818(5) 0.2372(2)
C102 C 0.0397(2) 0.1192(4) 0.2237(2)
H55 H 0.0390 0.1621 0.2286
C103 C 0.0172(2) 0.0940(4) 0.2031(2)
H56 H 0.0011 0.1196 0.1938
C104 C 0.0183(2) 0.0312(5) 0.1959(2)
C105 C 0.0419(3) -0.0063(4) 0.2094(3)
H57 H 0.0427 -0.0491 0.2045
C106 C 0.0655(2) 0.1564(5) 0.52981(18)
C107 C 0.0423(2) 0.1961(3) 0.5404(2)
H58 H 0.0412 0.2378 0.5335
C108 C 0.02084(19) 0.1747(4) 0.5613(2)
H59 H 0.0050 0.2018 0.5685
C109 C 0.0225(2) 0.1137(4) 0.57144(19)
C110 C 0.0456(2) 0.0740(4) 0.5608(2)
H60 H 0.0467 0.0323 0.5678
C111 C 0.0671(2) 0.0954(4) 0.5400(2)
H61 H 0.0829 0.0683 0.5327
C112 C 0.1815(3) 0.2184(7) 0.3153(3)
C113 C 0.2584(3) 0.2902(7) 0.3238(3)
C114 C 0.32388(17) 0.4029(4) 0.50116(16)
C115 C 0.2955(2) 0.4344(3) 0.49434(17)
H62 H 0.2915 0.4728 0.5041
C116 C 0.27320(15) 0.4097(4) 0.47329(18)
H63 H 0.2538 0.4312 0.4686
C117 C 0.27919(18) 0.3535(4) 0.45907(16)
C118 C 0.3075(2) 0.3220(3) 0.46589(19)
H64 H 0.3116 0.2836 0.4562
C119 C 0.32987(16) 0.3467(4) 0.4869(2)
H65 H 0.3492 0.3252 0.4916
C120 C 0.33245(17) 0.2995(4) 0.2787(2)
H66 H 0.3531 0.2816 0.2794
C121 C 0.3108(2) 0.2834(4) 0.30042(18)
H67 H 0.3167 0.2545 0.3160
C122 C 0.2805(2) 0.3096(4) 0.29933(17)
C123 C 0.27190(17) 0.3520(4) 0.2765(2)
H68 H 0.2512 0.3699 0.2757
C124 C 0.2935(2) 0.3681(4) 0.25472(17)
H69 H 0.2876 0.3971 0.2391
C125 C 0.3238(2) 0.3419(4) 0.25580(18)
C126 C 0.1142(3) 0.1675(6) 0.3985(3)
H70 H 0.0983 0.1529 0.4115
C127 C 0.1540(3) 0.1857(7) 0.3256(3)
C128 C 0.1906(4) 0.2187(8) 0.2845(3)
H71 H 0.1785 0.2040 0.2671
C129 C 0.3485(2) 0.3628(5) 0.23507(19)
C130 C 0.3733(2) 0.3230(4) 0.2285(2)
H72 H 0.3750 0.2836 0.2382
C131 C 0.39570(19) 0.3407(4) 0.2078(2)
H73 H 0.4127 0.3135 0.2033
C132 C 0.3933(2) 0.3983(4) 0.19359(19)
C133 C 0.3684(2) 0.4381(4) 0.2001(2)
H74 H 0.3668 0.4775 0.1904
C134 C 0.3461(2) 0.4204(4) 0.2209(2)
H75 H 0.3291 0.4476 0.2253
C135 C 0.1306(2) 0.1549(5) 0.3040(2)
C136 C 0.1243(2) 0.0917(5) 0.3031(2)
H76 H 0.1344 0.0647 0.3177
C137 C 0.1031(3) 0.0678(4) 0.2808(3)
H77 H 0.0987 0.0245 0.2801
C138 C 0.0882(2) 0.1071(5) 0.25938(19)
C139 C 0.0946(2) 0.1704(5) 0.2603(2)
H78 H 0.0844 0.1973 0.2457
C140 C 0.1158(2) 0.1943(4) 0.2826(2)
H79 H 0.1201 0.2375 0.2833
C141 C 0.2204(4) 0.2443(7) 0.2851(3)
H80 H 0.2328 0.2502 0.2677
O19 O 0.22917(17) 0.1410(3) 0.38916(15)
O20 O 0.1838(3) 0.3540(5) 0.3685(2)
C142 C 0.4170(3) 0.4176(9) 0.1693(3)
C143 C 0.4165(3) 0.5031(7) 0.5872(3)
C144 C 0.0001(3) 0.0848(7) 0.5943(3)
In3A In 0.45741(2) 0.45625(5) 0.13047(2)
In3B In -0.04259(2) 0.04375(5) 0.63047(2)
In3C In -0.04259(2) -0.04375(5) 0.13047(2)
O12B O 0.4976(2) 0.5304(5) 0.5979(2)
O13A O 0.4186(2) 0.5296(5) 0.6623(2)
O14C O 0.4783(2) 0.4560(4) 0.6569(2)
O16B O 0.4823(2) 0.6237(4) 0.6076(2)
O17C O 0.4943(2) 0.5483(5) 0.6689(2)
O18A O 0.4342(2) 0.6294(5) 0.6590(2)
In5 In 0.73933(3) 1.27178(6) 0.15932(2)
In6 In 0.99522(2) 1.44839(6) -0.08868(2)
O21 O 0.5375(3) 0.9438(6) -0.0528(3)
O22 O 0.9706(3) 1.4697(5) 0.3853(2)
O23 O 0.5181(3) 1.1378(5) 0.3885(2)
N9 N 0.7413(3) 1.2591(5) 0.1125(2)
O24 O 0.9731(2) 1.3732(5) -0.0597(2)
N10 N 0.7863(3) 1.3103(5) 0.1600(3)
O25 O 0.9564(2) 1.4702(5) -0.0555(2)
N11 N 0.6947(3) 1.2338(6) 0.1597(3)
O26 O 0.5193(3) 1.0374(6) -0.0674(3)
C145 C 0.7135(3) 1.2774(7) 0.2246(3)
C146 C 0.92761(19) 1.4836(4) 0.34832(18)
C147 C 0.92752(19) 1.4202(4) 0.34239(19)
H81 H 0.9429 1.3941 0.3524
C148 C 0.9049(2) 1.3951(3) 0.3217(2)
H82 H 0.9049 1.3518 0.3177
C149 C 0.88238(19) 1.4333(4) 0.30702(19)
C150 C 0.8825(2) 1.4967(4) 0.3130(2)
H83 H 0.8671 1.5228 0.3029
C151 C 0.9051(2) 1.5218(3) 0.3336(2)
H84 H 0.9051 1.5651 0.3377
N12 N 0.7387(3) 1.2907(5) 0.2083(2)
C152 C 0.5373(4) 1.0012(8) -0.0511(3)
C153 C 0.7188(3) 1.2351(5) 0.0948(2)
C154 C 0.8309(3) 1.3587(6) 0.1767(3)
H85 H 0.8458 1.3812 0.1894
C155 C 0.7652(3) 1.2731(6) 0.0941(3)
C156 C 0.7618(3) 1.3114(6) 0.2256(3)
C157 C 0.6500(4) 1.1839(8) 0.1746(3)
H86 H 0.6349 1.1668 0.1878
C158 C 0.6022(2) 1.0927(4) 0.01394(18)
C159 C 0.5810(2) 1.1276(4) -0.0044(2)
H87 H 0.5807 1.1715 -0.0025
C160 C 0.5603(2) 1.0983(5) -0.0255(2)
H88 H 0.5459 1.1221 -0.0380
C161 C 0.5608(2) 1.0341(5) -0.0283(2)
C162 C 0.5820(2) 0.9992(4) -0.0099(2)
H89 H 0.5823 0.9553 -0.0118
C163 C 0.6026(2) 1.0285(4) 0.01117(19)
H90 H 0.6171 1.0047 0.0237
C164 C 0.9571(3) 1.4136(8) -0.0480(3)
C165 C 0.85882(19) 1.4070(4) 0.28244(17)
C166 C 0.86541(17) 1.3521(4) 0.26728(19)
H91 H 0.8851 1.3313 0.2715
C167 C 0.8432(2) 1.3277(3) 0.24597(19)
H92 H 0.8478 1.2902 0.2356
C168 C 0.81449(18) 1.3582(4) 0.23981(17)
C169 C 0.80789(16) 1.4131(4) 0.2550(2)
H93 H 0.7882 1.4339 0.2508
C170 C 0.8301(2) 1.4374(3) 0.27628(19)
H94 H 0.8256 1.4749 0.2866
C171 C 0.93306(19) 1.3962(5) -0.02480(18)
C172 C 0.9127(2) 1.4399(4) -0.0129(2)
H95 H 0.9138 1.4820 -0.0193
C173 C 0.8907(2) 1.4222(4) 0.0082(2)
H96 H 0.8768 1.4521 0.0163
C174 C 0.88911(19) 1.3606(5) 0.01749(17)
C175 C 0.9095(2) 1.3169(4) 0.0056(2)
H97 H 0.9084 1.2748 0.0119
C176 C 0.9314(2) 1.3346(4) -0.0155(2)
H98 H 0.9453 1.3047 -0.0237
C177 C 0.86369(19) 1.3388(4) 0.03818(18)
C178 C 0.87048(16) 1.2946(4) 0.06064(19)
H99 H 0.8904 1.2738 0.0614
C179 C 0.8481(2) 1.2808(4) 0.08204(16)
H100 H 0.8527 1.2505 0.0974
C180 C 0.81885(18) 1.3112(4) 0.08097(17)
C181 C 0.81206(17) 1.3555(4) 0.0585(2)
H101 H 0.7921 1.3763 0.0578
C182 C 0.8345(2) 1.3693(4) 0.03711(17)
H102 H 0.8298 1.3995 0.0218
C183 C 0.8023(3) 1.3313(6) 0.1844(3)
C184 C 0.6778(3) 1.2183(7) 0.1843(3)
C185 C 0.7574(3) 1.2550(6) 0.0625(3)
H103 H 0.7712 1.2553 0.0458
C186 C 0.8320(3) 1.3452(6) 0.1464(3)
H104 H 0.8496 1.3544 0.1343
C187 C 0.7908(3) 1.3315(6) 0.2155(2)
C188 C 0.7260(3) 1.2373(7) 0.0620(3)
H105 H 0.7121 1.2286 0.0447
C189 C 0.6872(3) 1.2168(8) 0.1026(3)
C190 C 0.8040(3) 1.3163(7) 0.1354(3)
C191 C 0.6777(4) 1.2087(8) 0.1346(3)
C192 C 0.7955(3) 1.2978(7) 0.1047(3)
C193 C 0.7232(3) 1.2875(7) 0.2569(3)
H106 H 0.7111 1.2786 0.2742
C194 C 0.5988(2) 1.1646(5) 0.3068(2)
C195 C 0.5981(2) 1.1023(5) 0.3149(2)
H107 H 0.6116 1.0734 0.3054
C196 C 0.5775(3) 1.0822(5) 0.33688(19)
H108 H 0.5770 1.0396 0.3424
C197 C 0.5577(3) 1.1244(5) 0.3507(2)
C198 C 0.5585(3) 1.1867(5) 0.3426(2)
H109 H 0.5450 1.2156 0.3521
C199 C 0.5791(2) 1.2068(4) 0.3207(2)
H110 H 0.5796 1.2494 0.3151
C200 C 0.7523(4) 1.3116(8) 0.2570(3)
H111 H 0.7646 1.3261 0.2743
C201 C 0.6847(3) 1.2453(8) 0.2129(3)
O27 O 0.9535(2) 1.5653(4) 0.37567(18)
C202 C 0.9509(3) 1.5111(7) 0.3702(3)
C203 C 0.6485(4) 1.1795(8) 0.1431(3)
H112 H 0.6322 1.1616 0.1302
O28 O 0.7167(3) 1.3670(5) 0.1487(2)
O29 O 0.7562(2) 1.1739(5) 0.1705(2)
O30 O 0.5303(3) 1.0465(6) 0.3753(3)
C204 C 0.5341(4) 1.1030(9) 0.3743(3)
C205 C 0.66045(19) 1.2265(5) 0.23635(17)
C206 C 0.6458(2) 1.2697(4) 0.2546(2)
H113 H 0.6490 1.3128 0.2514
C207 C 0.6263(2) 1.2500(4) 0.27753(18)
H114 H 0.6163 1.2796 0.2900
C208 C 0.6215(2) 1.1870(5) 0.28225(17)
C209 C 0.6362(2) 1.1437(4) 0.2640(2)
H115 H 0.6329 1.1007 0.2672
C210 C 0.6557(2) 1.1635(4) 0.24107(19)
H116 H 0.6657 1.1339 0.2286
C211 C 0.6665(2) 1.1820(5) 0.07795(19)
C212 C 0.67578(18) 1.1272(5) 0.0642(2)
H117 H 0.6959 1.1092 0.0697
C213 C 0.6557(2) 1.0988(4) 0.0422(2)
H118 H 0.6620 1.0614 0.0328
C214 C 0.6263(2) 1.1252(4) 0.03408(17)
C215 C 0.61702(18) 1.1800(5) 0.0479(2)
H119 H 0.5969 1.1981 0.0423
C216 C 0.6371(2) 1.2084(4) 0.0698(2)
H120 H 0.6308 1.2458 0.0792
In6A In 0.99522(2) 1.55161(6) 0.41132(2)
In6B In 0.49522(2) 0.94839(6) -0.08868(2)
In6C In 0.49522(2) 1.05161(6) 0.41132(2)
O21B O 1.0375(3) 1.4438(6) -0.0528(3)
O22A O 0.9706(3) 1.5303(5) -0.1147(2)
O23C O 1.0181(3) 1.3622(5) -0.1115(2)
O26B O 1.0193(3) 1.5374(6) -0.0674(3)
O27A O 0.9535(2) 1.4347(4) -0.12433(18)
O30C O 1.0303(3) 1.4535(6) -0.1247(3)
In7 In 0.18052(3) -0.04412(7) 0.06147(3)
In8 In -0.06530(3) -0.26896(8) 0.31204(3)
C217 C -0.0129(4) -0.2340(7) 0.2541(4)
C218 C -0.0869(4) -0.2837(8) 0.3792(4)
N13 N -0.0615(3) -0.2859(6) 0.2644(3)
O31 O -0.2960(3) -0.4673(6) 0.0881(3)
C219 C -0.0390(4) -0.2681(8) 0.2461(4)
N14 N -0.0629(3) -0.2642(6) 0.3595(3)
O32 O 0.1415(4) -0.0360(7) 0.0956(4)
N15 N -0.0196(3) -0.2310(6) 0.3109(3)
C220 C 0.1392(5) -0.0938(11) 0.1004(5)
O33 O 0.1548(3) -0.1201(6) 0.0816(3)
C221 C -0.0019(4) -0.2199(9) 0.2851(4)
C222 C -0.0837(4) -0.3243(9) 0.2482(4)
C223 C -0.1554(4) -0.3571(7) 0.3284(4)
H121 H -0.1717 -0.3723 0.3407
C224 C -0.1536(4) -0.3612(8) 0.2980(4)
H122 H -0.1709 -0.3774 0.2858
C225 C -0.2760(4) -0.5047(10) 0.0998(4)
C226 C 0.0249(4) -0.1847(9) 0.2938(4)
H123 H 0.0429 -0.1754 0.2822
C227 C 0.0713(3) -0.1607(8) 0.1615(3)
C228 C 0.0671(3) -0.1025(7) 0.1483(3)
H124 H 0.0492 -0.0780 0.1530
C229 C 0.0892(4) -0.0800(5) 0.1283(3)
H125 H 0.0863 -0.0402 0.1193
C230 C 0.1154(3) -0.1158(7) 0.1215(3)
C231 C 0.1197(3) -0.1741(7) 0.1347(3)
H126 H 0.1376 -0.1985 0.1300
C232 C 0.0976(4) -0.1965(6) 0.1547(3)
H127 H 0.1005 -0.2363 0.1637
C233 C -0.0053(4) -0.1999(8) 0.3373(4)
C234 C -0.1163(3) -0.3113(6) 0.3680(3)
C235 C -0.0402(4) -0.2391(8) 0.3780(4)
C236 C -0.1335(3) -0.3715(6) 0.2294(3)
C237 C -0.1465(4) -0.3322(5) 0.2069(3)
H128 H -0.1401 -0.2900 0.2064
C238 C -0.1688(3) -0.3548(7) 0.1853(3)
H129 H -0.1777 -0.3280 0.1699
C239 C -0.1781(3) -0.4167(7) 0.1861(2)
C240 C -0.1651(3) -0.4559(5) 0.2086(3)
H130 H -0.1714 -0.4982 0.2091
C241 C -0.1428(3) -0.4333(6) 0.2302(3)
H131 H -0.1339 -0.4601 0.2456
C242 C -0.0699(4) -0.3240(8) 0.2187(4)
H132 H -0.0799 -0.3437 0.2014
O34 O -0.2786(3) -0.5636(6) 0.0958(2)
C243 C -0.1261(4) -0.3414(7) 0.2848(3)
N16 N -0.1110(3) -0.3167(7) 0.3114(3)
C244 C -0.0425(4) -0.2946(8) 0.2173(4)
H133 H -0.0287 -0.2922 0.2008
C245 C -0.0530(4) -0.2338(9) 0.4073(4)
H134 H -0.0440 -0.2082 0.4231
C246 C -0.1147(4) -0.3446(7) 0.2557(4)
C247 C 0.0628(2) -0.2205(5) 0.2101(3)
H135 H 0.0848 -0.2309 0.2122
C248 C 0.0513(3) -0.1874(5) 0.1847(2)
C249 C 0.0191(3) -0.1722(5) 0.1816(2)
H136 H 0.0112 -0.1495 0.1643
C250 C -0.0015(2) -0.1901(5) 0.2040(3)
H137 H -0.0235 -0.1797 0.2019
C251 C 0.0101(2) -0.2233(5) 0.2294(2)
C252 C 0.0422(3) -0.2385(5) 0.2324(2)
H138 H 0.0501 -0.2611 0.2498
C253 C -0.0784(4) -0.2678(8) 0.4102(4)
H139 H -0.0886 -0.2790 0.4283
C254 C -0.0155(4) -0.2059(8) 0.3669(3)
C255 C -0.1391(3) -0.3300(5) 0.3921(2)
C256 C -0.1690(3) -0.3024(4) 0.3921(2)
H140 H -0.1749 -0.2720 0.3772
C257 C -0.1904(2) -0.3194(5) 0.4139(3)
H141 H -0.2108 -0.3005 0.4140
C258 C -0.1818(2) -0.3639(5) 0.4358(2)
C259 C -0.1519(3) -0.3915(4) 0.4358(2)
H142 H -0.1461 -0.4219 0.4507
C260 C -0.1306(2) -0.3746(5) 0.4139(3)
H143 H -0.1101 -0.3934 0.4139
C261 C -0.2531(3) -0.4223(6) 0.1350(3)
H144 H -0.2704 -0.3963 0.1284
C262 C -0.2299(3) -0.4002(5) 0.1559(3)
H145 H -0.2313 -0.3592 0.1636
C263 C -0.2046(3) -0.4383(6) 0.1655(2)
C264 C -0.2027(2) -0.4984(6) 0.1542(3)
H146 H -0.1854 -0.5244 0.1608
C265 C -0.2259(3) -0.5204(5) 0.1333(3)
H147 H -0.2245 -0.5615 0.1256
C266 C -0.2511(3) -0.4824(7) 0.1237(3)
C267 C -0.1272(4) -0.3247(8) 0.3379(4)
O35 O -0.0400(3) -0.3650(5) 0.3209(2)
C268 C 0.0513(3) -0.1232(7) 0.4331(3)
C269 C 0.0305(4) -0.0869(5) 0.4151(3)
H148 H 0.0308 -0.0430 0.4173
C270 C 0.0093(3) -0.1147(7) 0.3939(3)
H149 H -0.0049 -0.0899 0.3816
C271 C 0.0089(3) -0.1788(7) 0.3908(3)
C272 C 0.0297(4) -0.2152(5) 0.4088(3)
H150 H 0.0295 -0.2590 0.4066
C273 C 0.0509(3) -0.1873(7) 0.4299(3)
H151 H 0.0651 -0.2122 0.4422
C274 C -0.2044(2) -0.3804(6) 0.4596(2)
C275 C -0.2261(3) -0.3353(4) 0.4676(3)
H152 H -0.2250 -0.2948 0.4591
C276 C -0.2493(3) -0.3493(5) 0.4882(3)
H153 H -0.2641 -0.3184 0.4937
C277 C -0.2508(3) -0.4084(6) 0.5007(2)
C278 C -0.2291(3) -0.4536(5) 0.4926(3)
H154 H -0.2302 -0.4940 0.5011
C279 C -0.2059(3) -0.4396(5) 0.4720(3)
H155 H -0.1911 -0.4704 0.4665
O36 O 0.1447(4) 0.0418(8) 0.5233(3)
C280 C 0.1377(6) -0.0122(10) 0.5216(5)
O37 O -0.2777(3) -0.4863(6) 0.5306(3)
O38 O 0.1508(4) -0.0370(8) 0.5419(4)
O39 O -0.2966(3) -0.3897(6) 0.5322(3)
C281 C -0.2751(5) -0.4283(9) 0.5230(5)
C282 C 0.1038(4) -0.1003(8) 0.5030(3)
H156 H 0.1114 -0.1251 0.5197
C283 C 0.1139(3) -0.0391(9) 0.5006(3)
C284 C 0.1029(4) -0.0028(6) 0.4761(4)
H157 H 0.1098 0.0389 0.4744
C285 C 0.0818(4) -0.0277(8) 0.4540(3)
H158 H 0.0742 -0.0029 0.4372
C286 C 0.0717(3) -0.0888(8) 0.4564(3)
C287 C 0.0827(4) -0.1251(6) 0.4809(4)
H159 H 0.0758 -0.1669 0.4825
C288 C 0.0193(4) -0.1673(9) 0.3223(4)
H160 H 0.0311 -0.1348 0.3321
O40 O -0.0904(2) -0.1632(5) 0.3061(2)
In7A In 0.18052(3) 0.04412(7) 0.56147(3)
In7B In -0.31948(3) -0.54412(7) 0.06147(3)
In7C In -0.31948(3) -0.45588(7) 0.56147(3)
O31B O 0.2040(3) 0.0327(6) 0.0881(3)
O34B O 0.2214(3) -0.0636(6) 0.0958(2)
O36A O 0.1447(4) -0.0418(8) 0.0233(3)
O37C O 0.2223(3) -0.0137(6) 0.0306(3)
O38A O 0.1508(4) 0.0370(8) 0.0419(4)
O39C O 0.2034(3) -0.1103(6) 0.0322(3)
loop_
_geom_bond_atom_site_label_1
_geom_bond_atom_site_label_2
_geom_bond_site_symmetry_1
_geom_bond_site_symmetry_2
In1 O3 1_555 1_555
In2 N1 1_555 1_555
O1 C72 1_555 1_555
O2 C1 1_555 1_555
N1 C6 1_555 1_555
O3 C29 1_555 1_555
N2 In2 1_555 1_555
C1 O5 1_555 1_555
N3 In2 1_555 1_555
O4 C3 1_555 1_555
O5 In1A 1_555 1_555
C2 C4 1_555 1_555
C3 O7 1_555 1_555
C4 H1 1_555 1_555
C5 N3 1_555 1_555
C6 C32 1_555 1_555
C7 C5 1_555 1_555
C8 H2 1_555 1_555
C9 C8 1_555 1_555
H3 C9 1_555 1_555
C10 C9 1_555 1_555
C11 C10 1_555 1_555
H4 C11 1_555 1_555
C12 C11 1_555 1_555
H5 C12 1_555 1_555
C13 C8 1_555 1_555
C14 N1 1_555 1_555
C15 C7 1_555 1_555
C16 C15 1_555 1_555
H6 C16 1_555 1_555
C17 C16 1_555 1_555
H7 C17 1_555 1_555
C18 C17 1_555 1_555
C19 C18 1_555 1_555
H8 C19 1_555 1_555
C20 C15 1_555 1_555
H9 C20 1_555 1_555
C21 C18 1_555 1_555
C22 C21 1_555 1_555
H10 C22 1_555 1_555
C23 C22 1_555 1_555
H11 C23 1_555 1_555
C24 C23 1_555 1_555
C25 C24 1_555 1_555
H12 C25 1_555 1_555
C26 C21 1_555 1_555
H13 C26 1_555 1_555
O6 In1 1_555 1_555
O7 In1B 1_555 1_555
N4 In2 1_555 1_555
C27 H14 1_555 1_555
C28 N2 1_555 1_555
C29 C10 1_555 1_555
C30 C5 1_555 1_555
H15 C30 1_555 1_555
C31 C28 1_555 1_555
H16 C31 1_555 1_555
C32 C2 1_555 1_555
C33 N2 1_555 1_555
C34 C35 1_555 1_555
C35 H17 1_555 1_555
C36 C35 1_555 1_555
H18 C36 1_555 1_555
C37 C36 1_555 1_555
C38 C37 1_555 1_555
H19 C38 1_555 1_555
C39 C34 1_555 1_555
H20 C39 1_555 1_555
C40 C33 1_555 1_555
C41 N4 1_555 1_555
C42 C43 1_555 1_555
C43 H21 1_555 1_555
C44 C43 1_555 1_555
H22 C44 1_555 1_555
C45 C32 1_555 1_555
C46 C45 1_555 1_555
H23 C46 1_555 1_555
C47 C42 1_555 1_555
H24 C47 1_555 1_555
C48 C4 1_555 1_555
H25 C48 1_555 1_555
C49 N3 1_555 1_555
C50 C14 1_555 1_555
H26 C50 1_555 1_555
C51 C31 1_555 1_555
H27 C51 1_555 1_555
C52 C13 1_555 1_555
C53 C52 1_555 1_555
H28 C53 1_555 1_555
C54 C53 1_555 1_555
H29 C54 1_555 1_555
C55 C54 1_555 1_555
C56 C55 1_555 1_555
H30 C56 1_555 1_555
C57 C52 1_555 1_555
H31 C57 1_555 1_555
C58 C28 1_555 1_555
C59 H32 1_555 1_555
C60 C1 1_555 1_555
C61 C60 1_555 1_555
H33 C61 1_555 1_555
C62 C61 1_555 1_555
H34 C62 1_555 1_555
C63 C42 1_555 1_555
C64 C59 1_555 1_555
H35 C64 1_555 1_555
C65 H36 1_555 1_555
C66 C37 1_555 1_555
C67 C66 1_555 1_555
H37 C67 1_555 1_555
C68 C67 1_555 1_555
H38 C68 1_555 1_555
C69 C3 1_555 1_555
C70 C65 1_555 1_555
H39 C70 1_555 1_555
C71 C6 1_555 1_555
H40 C71 1_555 1_555
C72 C24 1_555 1_555
O8 C72 1_555 1_555
O9 In2 1_555 1_555
O10 In2 1_555 1_555
In3 O11 1_555 1_555
In4 N5 1_555 1_555
O11 C143 1_555 1_555
N5 C87 1_555 1_555
O12 C144 1_555 1_555
O13 C142 1_555 1_555
C73 N6 1_555 1_555
O14 C82 1_555 1_555
O15 In3 1_555 1_555
C74 N8 1_555 1_555
O16 C144 1_555 1_555
C75 C76 1_555 1_555
C76 H41 1_555 1_555
C77 C76 1_555 1_555
H42 C77 1_555 1_555
C78 C77 1_555 1_555
C79 C78 1_555 1_555
H43 C79 1_555 1_555
C80 C75 1_555 1_555
H44 C80 1_555 1_555
N6 In4 1_555 1_555
C81 N6 1_555 1_555
N7 In4 1_555 1_555
N8 In4 1_555 1_555
O17 C82 1_555 1_555
O18 C142 1_555 1_555
C82 C104 1_555 1_555
C83 C75 1_555 1_555
C84 N7 1_555 1_555
C85 H45 1_555 1_555
C86 C84 1_555 1_555
H46 C86 1_555 1_555
C87 C83 1_555 1_555
C88 N7 1_555 1_555
C89 H47 1_555 1_555
C90 C89 1_555 1_555
H48 C90 1_555 1_555
C91 C90 1_555 1_555
C92 C91 1_555 1_555
H49 C92 1_555 1_555
C93 C92 1_555 1_555
H50 C93 1_555 1_555
C94 C89 1_555 1_555
C95 H51 1_555 1_555
C96 C73 1_555 1_555
C97 N5 1_555 1_555
C98 C73 1_555 1_555
H52 C98 1_555 1_555
C99 C81 1_555 1_555
H53 C99 1_555 1_555
C100 H54 1_555 1_555
C101 C100 1_555 1_555
C102 C101 1_555 1_555
H55 C102 1_555 1_555
C103 C102 1_555 1_555
H56 C103 1_555 1_555
C104 C103 1_555 1_555
C105 C100 1_555 1_555
H57 C105 1_555 1_555
C106 C78 1_555 1_555
C107 C106 1_555 1_555
H58 C107 1_555 1_555
C108 C107 1_555 1_555
H59 C108 1_555 1_555
C109 C108 1_555 1_555
C110 C109 1_555 1_555
H60 C110 1_555 1_555
C111 C106 1_555 1_555
H61 C111 1_555 1_555
C112 N8 1_555 1_555
C113 C74 1_555 1_555
C114 C91 1_555 1_555
C115 C114 1_555 1_555
H62 C115 1_555 1_555
C116 C115 1_555 1_555
H63 C116 1_555 1_555
C117 C96 1_555 1_555
C118 C117 1_555 1_555
H64 C118 1_555 1_555
C119 C114 1_555 1_555
H65 C119 1_555 1_555
C120 H66 1_555 1_555
C121 C120 1_555 1_555
H67 C121 1_555 1_555
C122 C113 1_555 1_555
C123 C122 1_555 1_555
H68 C123 1_555 1_555
C124 C123 1_555 1_555
H69 C124 1_555 1_555
C125 C120 1_555 1_555
C126 C87 1_555 1_555
H70 C126 1_555 1_555
C127 C97 1_555 1_555
C128 C112 1_555 1_555
H71 C128 1_555 1_555
C129 C125 1_555 1_555
C130 C129 1_555 1_555
H72 C130 1_555 1_555
C131 C130 1_555 1_555
H73 C131 1_555 1_555
C132 C131 1_555 1_555
C133 C132 1_555 1_555
H74 C133 1_555 1_555
C134 C129 1_555 1_555
H75 C134 1_555 1_555
C135 C127 1_555 1_555
C136 C135 1_555 1_555
H76 C136 1_555 1_555
C137 C136 1_555 1_555
H77 C137 1_555 1_555
C138 C101 1_555 1_555
C139 C138 1_555 1_555
H78 C139 1_555 1_555
C140 C135 1_555 1_555
H79 C140 1_555 1_555
C141 C74 1_555 1_555
H80 C141 1_555 1_555
O19 In4 1_555 1_555
O20 In4 1_555 1_555
C142 C132 1_555 1_555
C143 O15 1_555 1_555
C144 C109 1_555 1_555
In5 N9 1_555 1_555
In6 O24 1_555 1_555
O21 C152 1_555 1_555
O22 C202 1_555 1_555
O23 C204 1_555 1_555
N9 C153 1_555 1_555
O24 C164 1_555 1_555
N10 In5 1_555 1_555
O25 In6 1_555 1_555
N11 In5 1_555 1_555
O26 C152 1_555 1_555
C145 N12 1_555 1_555
C146 C147 1_555 1_555
C147 H81 1_555 1_555
C148 C147 1_555 1_555
H82 C148 1_555 1_555
C149 C148 1_555 1_555
C150 C149 1_555 1_555
H83 C150 1_555 1_555
C151 C146 1_555 1_555
H84 C151 1_555 1_555
N12 In5 1_555 1_555
C152 C161 1_555 1_555
C153 C188 1_555 1_555
C154 H85 1_555 1_555
C155 N9 1_555 1_555
C156 N12 1_555 1_555
C157 H86 1_555 1_555
C158 C159 1_555 1_555
C159 H87 1_555 1_555
C160 C159 1_555 1_555
H88 C160 1_555 1_555
C161 C160 1_555 1_555
C162 C161 1_555 1_555
H89 C162 1_555 1_555
C163 C158 1_555 1_555
H90 C163 1_555 1_555
C164 O25 1_555 1_555
C165 C149 1_555 1_555
C166 C165 1_555 1_555
H91 C166 1_555 1_555
C167 C166 1_555 1_555
H92 C167 1_555 1_555
C168 C167 1_555 1_555
C169 C168 1_555 1_555
H93 C169 1_555 1_555
C170 C165 1_555 1_555
H94 C170 1_555 1_555
C171 C164 1_555 1_555
C172 C171 1_555 1_555
H95 C172 1_555 1_555
C173 C172 1_555 1_555
H96 C173 1_555 1_555
C174 C173 1_555 1_555
C175 C174 1_555 1_555
H97 C175 1_555 1_555
C176 C171 1_555 1_555
H98 C176 1_555 1_555
C177 C174 1_555 1_555
C178 C177 1_555 1_555
H99 C178 1_555 1_555
C179 C178 1_555 1_555
H100 C179 1_555 1_555
C180 C179 1_555 1_555
C181 C180 1_555 1_555
H101 C181 1_555 1_555
C182 C177 1_555 1_555
H102 C182 1_555 1_555
C183 N10 1_555 1_555
C184 N11 1_555 1_555
C185 C155 1_555 1_555
H103 C185 1_555 1_555
C186 C154 1_555 1_555
H104 C186 1_555 1_555
C187 C156 1_555 1_555
C188 C185 1_555 1_555
H105 C188 1_555 1_555
C189 C153 1_555 1_555
C190 N10 1_555 1_555
C191 N11 1_555 1_555
C192 C155 1_555 1_555
C193 C145 1_555 1_555
H106 C193 1_555 1_555
C194 C195 1_555 1_555
C195 H107 1_555 1_555
C196 C195 1_555 1_555
H108 C196 1_555 1_555
C197 C196 1_555 1_555
C198 C197 1_555 1_555
H109 C198 1_555 1_555
C199 C194 1_555 1_555
H110 C199 1_555 1_555
C200 C156 1_555 1_555
H111 C200 1_555 1_555
C201 C145 1_555 1_555
O27 C202 1_555 1_555
C202 C146 1_555 1_555
C203 C157 1_555 1_555
H112 C203 1_555 1_555
O28 In5 1_555 1_555
O29 In5 1_555 1_555
O30 C204 1_555 1_555
C204 C197 1_555 1_555
C205 C201 1_555 1_555
C206 C205 1_555 1_555
H113 C206 1_555 1_555
C207 C206 1_555 1_555
H114 C207 1_555 1_555
C208 C194 1_555 1_555
C209 C208 1_555 1_555
H115 C209 1_555 1_555
C210 C205 1_555 1_555
H116 C210 1_555 1_555
C211 C189 1_555 1_555
C212 C211 1_555 1_555
H117 C212 1_555 1_555
C213 C212 1_555 1_555
H118 C213 1_555 1_555
C214 C158 1_555 1_555
C215 C214 1_555 1_555
H119 C215 1_555 1_555
C216 C211 1_555 1_555
H120 C216 1_555 1_555
In7 O32 1_555 1_555
In8 N13 1_555 1_555
C217 C219 1_555 1_555
C218 N14 1_555 1_555
N13 C219 1_555 1_555
O31 C225 1_555 1_555
C219 C244 1_555 1_555
N14 In8 1_555 1_555
O32 C220 1_555 1_555
N15 In8 1_555 1_555
C220 O33 1_555 1_555
O33 In7 1_555 1_555
C221 C217 1_555 1_555
C222 N13 1_555 1_555
C223 H121 1_555 1_555
C224 C223 1_555 1_555
H122 C224 1_555 1_555
C225 O34 1_555 1_555
C226 C221 1_555 1_555
H123 C226 1_555 1_555
C227 C228 1_555 1_555
C228 H124 1_555 1_555
C229 C228 1_555 1_555
H125 C229 1_555 1_555
C230 C220 1_555 1_555
C231 C230 1_555 1_555
H126 C231 1_555 1_555
C232 C227 1_555 1_555
H127 C232 1_555 1_555
C233 N15 1_555 1_555
C234 C218 1_555 1_555
C235 N14 1_555 1_555
C236 C237 1_555 1_555
C237 H128 1_555 1_555
C238 C237 1_555 1_555
H129 C238 1_555 1_555
C239 C238 1_555 1_555
C240 C239 1_555 1_555
H130 C240 1_555 1_555
C241 C236 1_555 1_555
H131 C241 1_555 1_555
C242 C222 1_555 1_555
H132 C242 1_555 1_555
O34 In7B 1_555 1_555
C243 C224 1_555 1_555
N16 In8 1_555 1_555
C244 C242 1_555 1_555
H133 C244 1_555 1_555
C245 C235 1_555 1_555
H134 C245 1_555 1_555
C246 C222 1_555 1_555
C247 H135 1_555 1_555
C248 C227 1_555 1_555
C249 C248 1_555 1_555
H136 C249 1_555 1_555
C250 C249 1_555 1_555
H137 C250 1_555 1_555
C251 C217 1_555 1_555
C252 C247 1_555 1_555
H138 C252 1_555 1_555
C253 C218 1_555 1_555
H139 C253 1_555 1_555
C254 C233 1_555 1_555
C255 C234 1_555 1_555
C256 C255 1_555 1_555
H140 C256 1_555 1_555
C257 C256 1_555 1_555
H141 C257 1_555 1_555
C258 C257 1_555 1_555
C259 C258 1_555 1_555
H142 C259 1_555 1_555
C260 C255 1_555 1_555
H143 C260 1_555 1_555
C261 H144 1_555 1_555
C262 C261 1_555 1_555
H145 C262 1_555 1_555
C263 C239 1_555 1_555
C264 C263 1_555 1_555
H146 C264 1_555 1_555
C265 C264 1_555 1_555
H147 C265 1_555 1_555
C266 C225 1_555 1_555
C267 C223 1_555 1_555
O35 In8 1_555 1_555
C268 C269 1_555 1_555
C269 H148 1_555 1_555
C270 C269 1_555 1_555
H149 C270 1_555 1_555
C271 C254 1_555 1_555
C272 C271 1_555 1_555
H150 C272 1_555 1_555
C273 C268 1_555 1_555
H151 C273 1_555 1_555
C274 C258 1_555 1_555
C275 C274 1_555 1_555
H152 C275 1_555 1_555
C276 C275 1_555 1_555
H153 C276 1_555 1_555
C277 C276 1_555 1_555
C278 C277 1_555 1_555
H154 C278 1_555 1_555
C279 C274 1_555 1_555
H155 C279 1_555 1_555
O36 C280 1_555 1_555
C280 O38 1_555 1_555
O37 C281 1_555 1_555
O38 In7A 1_555 1_555
O39 C281 1_555 1_555
C281 C277 1_555 1_555
C282 H156 1_555 1_555
C283 C280 1_555 1_555
C284 C283 1_555 1_555
H157 C284 1_555 1_555
C285 C284 1_555 1_555
H158 C285 1_555 1_555
C286 C268 1_555 1_555
C287 C282 1_555 1_555
H159 C287 1_555 1_555
C288 C226 1_555 1_555
H160 C288 1_555 1_555
O40 In8 1_555 1_555
In1A O2 1_555 1_555
In1B O4 1_555 1_555
In1C O1 1_555 1_555
O1C In1 1_555 1_555
O2A In1 1_555 1_555
O4B In1 1_555 1_555
O5A In1 1_555 1_555
O7B In1 1_555 1_555
O8C In1 1_555 1_555
In3A O13 1_555 1_555
In3B O12 1_555 1_555
In3C O14 1_555 1_555
O12B In3 1_555 1_555
O13A In3 1_555 1_555
O14C In3 1_555 1_555
O16B In3 1_555 1_555
O17C In3 1_555 1_555
O18A In3 1_555 1_555
In6A O22 1_555 1_555
In6B O21 1_555 1_555
In6C O23 1_555 1_555
O21B In6 1_555 1_555
O22A In6 1_555 1_555
O23C In6 1_555 1_555
O26B In6 1_555 1_555
O27A In6 1_555 1_555
O30C In6 1_555 1_555
In7A O36 1_555 1_555
In7B O31 1_555 1_555
In7C O37 1_555 1_555
O31B In7 1_555 1_555
O34B In7 1_555 1_555
O36A In7 1_555 1_555
O37C In7 1_555 1_555
O38A In7 1_555 1_555
O39C In7 1_555 1_555
C2 N4 1_555 1_555
C7 C14 1_555 1_555
C12 C13 1_555 1_555
C19 C20 1_555 1_555
C25 C26 1_555 1_555
O6 C29 1_555 1_555
C27 C30 1_555 1_555
C27 C49 1_555 1_555
C33 C51 1_555 1_555
C34 C40 1_555 1_555
C38 C39 1_555 1_555
C40 C49 1_555 1_555
C41 C48 1_555 1_555
C41 C58 1_555 1_555
C44 C45 1_555 1_555
C46 C47 1_555 1_555
C50 C71 1_555 1_555
C55 C58 1_555 1_555
C56 C57 1_555 1_555
C59 C60 1_555 1_555
C62 C63 1_555 1_555
C63 C64 1_555 1_555
C65 C66 1_555 1_555
C68 C69 1_555 1_555
C69 C70 1_555 1_555
O8 In1C 1_555 1_555
O16 In3B 1_555 1_555
C79 C80 1_555 1_555
C81 C83 1_555 1_555
O17 In3C 1_555 1_555
O18 In3A 1_555 1_555
C84 C96 1_555 1_555
C85 C86 1_555 1_555
C85 C88 1_555 1_555
C88 C113 1_555 1_555
C93 C94 1_555 1_555
C94 C143 1_555 1_555
C95 C97 1_555 1_555
C95 C126 1_555 1_555
C98 C99 1_555 1_555
C104 C105 1_555 1_555
C110 C111 1_555 1_555
C112 C127 1_555 1_555
C116 C117 1_555 1_555
C118 C119 1_555 1_555
C121 C122 1_555 1_555
C124 C125 1_555 1_555
C128 C141 1_555 1_555
C133 C134 1_555 1_555
C137 C138 1_555 1_555
C139 C140 1_555 1_555
O26 In6B 1_555 1_555
C150 C151 1_555 1_555
C154 C183 1_555 1_555
C157 C184 1_555 1_555
C162 C163 1_555 1_555
C168 C187 1_555 1_555
C169 C170 1_555 1_555
C175 C176 1_555 1_555
C180 C192 1_555 1_555
C181 C182 1_555 1_555
C183 C187 1_555 1_555
C184 C201 1_555 1_555
C186 C190 1_555 1_555
C189 C191 1_555 1_555
C190 C192 1_555 1_555
C191 C203 1_555 1_555
C193 C200 1_555 1_555
C198 C199 1_555 1_555
O27 In6A 1_555 1_555
O30 In6C 1_555 1_555
C207 C208 1_555 1_555
C209 C210 1_555 1_555
C213 C214 1_555 1_555
C215 C216 1_555 1_555
N15 C221 1_555 1_555
C229 C230 1_555 1_555
C231 C232 1_555 1_555
C233 C288 1_555 1_555
C234 C267 1_555 1_555
C235 C254 1_555 1_555
C236 C246 1_555 1_555
C240 C241 1_555 1_555
C243 N16 1_555 1_555
C243 C246 1_555 1_555
N16 C267 1_555 1_555
C245 C253 1_555 1_555
C247 C248 1_555 1_555
C250 C251 1_555 1_555
C251 C252 1_555 1_555
C259 C260 1_555 1_555
C261 C266 1_555 1_555
C262 C263 1_555 1_555
C265 C266 1_555 1_555
C270 C271 1_555 1_555
C272 C273 1_555 1_555
C278 C279 1_555 1_555
O39 In7C 1_555 1_555
C282 C283 1_555 1_555
C285 C286 1_555 1_555
C286 C287 1_555 1_555

#END
