
#######################################################################
#
#                 Cambridge Crystallographic Data Centre
#                                CCDC 
#
#######################################################################
#
# If this CIF has been generated from an entry in the Cambridge 
# Structural Database, then it will include bibliographic, chemical, 
# crystal, experimental, refinement or atomic coordinate data resulting 
# from the CCDC's data processing and validation procedures.
#
#######################################################################

data_COKXIL
_symmetry_cell_setting           orthorhombic
_symmetry_space_group_name_H-M   'P n n a'
_symmetry_Int_Tables_number      52
_space_group_name_Hall           '-P 2a 2bc'
loop_
_symmetry_equiv_pos_site_id
_symmetry_equiv_pos_as_xyz
1 x,y,z
2 1/2-x,-y,z
3 1/2-x,1/2+y,1/2-z
4 x,1/2-y,1/2-z
5 -x,-y,-z
6 1/2+x,y,-z
7 1/2+x,1/2-y,1/2+z
8 -x,1/2+y,1/2+z
_cell_length_a                   21.2969(15)
_cell_length_b                   26.3582(19)
_cell_length_c                   8.7744(6)
_cell_angle_alpha                90
_cell_angle_beta                 90
_cell_angle_gamma                90
_cell_volume                     4925.49
loop_
_atom_site_label
_atom_site_type_symbol
_atom_site_fract_x
_atom_site_fract_y
_atom_site_fract_z
Cd1 Cd 0.08430(3) 0.7500 1.2500
Cd2 Cd -0.2500 1.0000 1.13919(6)
N1 N 0.1493(2) 0.78496(16) 1.0748(5)
N2 N 0.1789(3) 0.8215(2) 0.8620(5)
N3 N 0.1910(4) 0.9128(3) 0.2578(7)
N4 N 0.2062(2) 0.94753(17) 0.0340(5)
O1 O -0.1725(2) 0.93947(18) 1.1893(6)
O2 O -0.1707(2) 1.00598(19) 1.3303(5)
O3 O 0.0014(2) 0.81229(16) 1.2322(6)
O4 O 0.0597(2) 0.81219(16) 1.4352(5)
Br1 Br -0.01210(4) 0.96571(3) 1.80350(9)
C1 C -0.0810(3) 0.9614(2) 1.5262(7)
H1 H -0.1013 0.9902 1.5630
C2 C -0.0336(3) 0.9391(2) 1.6096(6)
C3 C -0.0024(3) 0.8966(2) 1.5547(7)
H2 H 0.0296 0.8819 1.6120
C4 C -0.0183(2) 0.8763(2) 1.4175(7)
C5 C -0.0669(3) 0.8983(2) 1.3335(6)
H3 H -0.0784 0.8843 1.2404
C6 C -0.0981(2) 0.9408(2) 1.3871(6)
C7 C -0.1503(3) 0.9633(3) 1.2965(7)
C8 C 0.0159(3) 0.8303(2) 1.3591(8)
C9 C 0.2130(3) 0.7898(2) 1.0751(7)
H4 H 0.2395 0.7793 1.1534
C10 C 0.2319(4) 0.8120(3) 0.9451(8)
H5 H 0.2729 0.8195 0.9171
C11 C 0.1298(3) 0.8049(2) 0.9442(6)
C12 C 0.0651(3) 0.8096(3) 0.8924(8)
H6 H 0.0384 0.7890 0.9550
H7 H 0.0621 0.7987 0.7884
H8 H 0.0521 0.8444 0.8998
C13 C 0.1746(4) 0.8480(4) 0.7145(8)
H9 H 0.1394 0.8343 0.6576
H10 H 0.1662 0.8836 0.7330
C14 C 0.2315(5) 0.8435(5) 0.6216(9)
H11 H 0.2496 0.8101 0.6361
H12 H 0.2620 0.8684 0.6558
C15 C 0.2179(5) 0.8521(4) 0.4442(11)
H13 H 0.2551 0.8453 0.3839
H14 H 0.1842 0.8302 0.4094
C16 C 0.1997(6) 0.9057(4) 0.4332(10)
H15 H 0.2323 0.9277 0.4725
H16 H 0.1609 0.9122 0.4877
C17 C 0.1342(4) 0.9180(3) 0.1884(10)
H17 H 0.0956 0.9077 0.2278
C18 C 0.1433(3) 0.9400(2) 0.0560(8)
H18 H 0.1119 0.9490 -0.0124
C19 C 0.2342(3) 0.9300(3) 0.1575(8)
C20 C 0.3027(4) 0.9278(5) 0.1795(11)
H19 H 0.3233 0.9417 0.0916
H20 H 0.3154 0.8932 0.1930
H21 H 0.3139 0.9471 0.2681
O1A O -0.3275(2) 1.06053(18) 1.1893(6)
O2A O -0.3293(2) 0.99402(19) 1.3303(5)
O3A O -0.5014(2) 1.18771(16) 1.2322(6)
O4A O -0.5597(2) 1.18781(16) 1.4352(5)
Br1A Br -0.48790(4) 1.03429(3) 1.80350(9)
C1A C -0.4190(3) 1.0386(2) 1.5262(7)
H1A H -0.3987 1.0098 1.5630
C2A C -0.4664(3) 1.0609(2) 1.6096(6)
C3A C -0.4976(3) 1.1034(2) 1.5547(7)
H2A H -0.5296 1.1181 1.6120
C4A C -0.4817(2) 1.1237(2) 1.4175(7)
C5A C -0.4331(3) 1.1017(2) 1.3335(6)
H3A H -0.4216 1.1157 1.2404
C6A C -0.4019(2) 1.0592(2) 1.3871(6)
C7A C -0.3497(3) 1.0367(3) 1.2965(7)
C8A C -0.5159(3) 1.1697(2) 1.3591(8)
N1C N 0.1493(2) 0.71504(16) 1.4252(5)
N2C N 0.1789(3) 0.6785(2) 1.6380(5)
N3C N 0.1910(4) 0.5872(3) 2.2422(7)
N4C N 0.2062(2) 0.55247(17) 2.4660(5)
C9C C 0.2130(3) 0.7102(2) 1.4249(7)
H4C H 0.2395 0.7207 1.3466
C10C C 0.2319(4) 0.6880(3) 1.5549(8)
H5C H 0.2729 0.6805 1.5829
C11C C 0.1298(3) 0.6951(2) 1.5558(6)
C12C C 0.0651(3) 0.6904(3) 1.6076(8)
H6C H 0.0384 0.7110 1.5450
H7C H 0.0621 0.7013 1.7116
H8C H 0.0521 0.6556 1.6002
C13C C 0.1746(4) 0.6520(4) 1.7855(8)
H9C H 0.1394 0.6657 1.8424
H10C H 0.1662 0.6164 1.7670
C14C C 0.2315(5) 0.6565(5) 1.8784(9)
H11C H 0.2496 0.6899 1.8639
H12C H 0.2620 0.6316 1.8442
C15C C 0.2179(5) 0.6479(4) 2.0558(11)
H13C H 0.2551 0.6547 2.1161
H14C H 0.1842 0.6698 2.0906
C16C C 0.1997(6) 0.5943(4) 2.0668(10)
H15C H 0.2323 0.5723 2.0275
H16C H 0.1609 0.5878 2.0123
C17C C 0.1342(4) 0.5820(3) 2.3116(10)
H17C H 0.0956 0.5923 2.2722
C18C C 0.1433(3) 0.5600(2) 2.4440(8)
H18C H 0.1119 0.5510 2.5124
C19C C 0.2342(3) 0.5700(3) 2.3425(8)
C20C C 0.3027(4) 0.5722(5) 2.3205(11)
H19C H 0.3233 0.5583 2.4084
H20C H 0.3154 0.6068 2.3070
H21C H 0.3139 0.5529 2.2319
Cd1A Cd -0.58430(3) 1.2500 1.2500
Cd2D Cd 0.2500 1.0000 -0.13919(6)
Cd2F Cd 0.2500 0.5000 2.63919(6)
N4D N -0.2062(2) 1.05247(17) 0.9660(5)
N4E N -0.2938(2) 0.94753(17) 0.9660(5)
O3C O 0.0014(2) 0.68771(16) 1.2678(6)
O4C O 0.0597(2) 0.68781(16) 1.0648(5)
loop_
_geom_bond_atom_site_label_1
_geom_bond_atom_site_label_2
_geom_bond_site_symmetry_1
_geom_bond_site_symmetry_2
Cd1 N1 1_555 1_555
Cd2 O1 1_555 1_555
N1 C9 1_555 1_555
N2 C10 1_555 1_555
N3 C16 1_555 1_555
N4 C18 1_555 1_555
O1 C7 1_555 1_555
O2 Cd2 1_555 1_555
O3 Cd1 1_555 1_555
O4 Cd1 1_555 1_555
Br1 C2 1_555 1_555
C1 H1 1_555 1_555
C2 C1 1_555 1_555
C3 C2 1_555 1_555
H2 C3 1_555 1_555
C4 C3 1_555 1_555
C5 C4 1_555 1_555
H3 C5 1_555 1_555
C6 C1 1_555 1_555
C7 O2 1_555 1_555
C8 O3 1_555 1_555
C9 H4 1_555 1_555
C10 C9 1_555 1_555
H5 C10 1_555 1_555
C11 N1 1_555 1_555
C12 C11 1_555 1_555
H6 C12 1_555 1_555
H7 C12 1_555 1_555
H8 C12 1_555 1_555
C13 N2 1_555 1_555
H9 C13 1_555 1_555
H10 C13 1_555 1_555
C14 C13 1_555 1_555
H11 C14 1_555 1_555
H12 C14 1_555 1_555
C15 C14 1_555 1_555
H13 C15 1_555 1_555
H14 C15 1_555 1_555
C16 C15 1_555 1_555
H15 C16 1_555 1_555
H16 C16 1_555 1_555
C17 N3 1_555 1_555
H17 C17 1_555 1_555
C18 C17 1_555 1_555
H18 C18 1_555 1_555
C19 N3 1_555 1_555
C20 C19 1_555 1_555
H19 C20 1_555 1_555
H20 C20 1_555 1_555
H21 C20 1_555 1_555
O1A Cd2 1_555 1_555
O2A Cd2 1_555 1_555
O3A C8A 1_555 1_555
O4A C8A 1_555 1_555
Br1A C2A 1_555 1_555
C1A H1A 1_555 1_555
C2A C1A 1_555 1_555
C3A C2A 1_555 1_555
H2A C3A 1_555 1_555
C4A C3A 1_555 1_555
C5A C4A 1_555 1_555
H3A C5A 1_555 1_555
C6A C1A 1_555 1_555
C7A O1A 1_555 1_555
C8A C4A 1_555 1_555
N1C Cd1 1_555 1_555
N2C C10C 1_555 1_555
N3C C16C 1_555 1_555
N4C C18C 1_555 1_555
C9C N1C 1_555 1_555
H4C C9C 1_555 1_555
C10C C9C 1_555 1_555
H5C C10C 1_555 1_555
C11C N1C 1_555 1_555
C12C C11C 1_555 1_555
H6C C12C 1_555 1_555
H7C C12C 1_555 1_555
H8C C12C 1_555 1_555
C13C N2C 1_555 1_555
H9C C13C 1_555 1_555
H10C C13C 1_555 1_555
C14C C13C 1_555 1_555
H11C C14C 1_555 1_555
H12C C14C 1_555 1_555
C15C C14C 1_555 1_555
H13C C15C 1_555 1_555
H14C C15C 1_555 1_555
C16C C15C 1_555 1_555
H15C C16C 1_555 1_555
H16C C16C 1_555 1_555
C17C N3C 1_555 1_555
H17C C17C 1_555 1_555
C18C C17C 1_555 1_555
H18C C18C 1_555 1_555
C19C N3C 1_555 1_555
C20C C19C 1_555 1_555
H19C C20C 1_555 1_555
H20C C20C 1_555 1_555
H21C C20C 1_555 1_555
Cd1A O3A 1_555 1_555
Cd2D N4 1_555 1_555
Cd2F N4C 1_555 1_555
N4D Cd2 1_555 1_555
N4E Cd2 1_555 1_555
O3C Cd1 1_555 1_555
O4C Cd1 1_555 1_555
N2 C11 1_555 1_555
N4 C19 1_555 1_555
O4 C8 1_555 1_555
C4 C8 1_555 1_555
C5 C6 1_555 1_555
C6 C7 1_555 1_555
O2A C7A 1_555 1_555
O4A Cd1A 1_555 1_555
C5A C6A 1_555 1_555
C6A C7A 1_555 1_555
N2C C11C 1_555 1_555
N4C C19C 1_555 1_555

#END
