
#######################################################################
#
#                 Cambridge Crystallographic Data Centre
#                                CCDC 
#
#######################################################################
#
# If this CIF has been generated from an entry in the Cambridge 
# Structural Database, then it will include bibliographic, chemical, 
# crystal, experimental, refinement or atomic coordinate data resulting 
# from the CCDC's data processing and validation procedures.
#
#######################################################################

data_COKXOR
_symmetry_cell_setting           triclinic
_symmetry_space_group_name_H-M   'P -1'
_symmetry_Int_Tables_number      2
_space_group_name_Hall           '-P 1'
loop_
_symmetry_equiv_pos_site_id
_symmetry_equiv_pos_as_xyz
1 x,y,z
2 -x,-y,-z
_cell_length_a                   9.449(3)
_cell_length_b                   10.386(4)
_cell_length_c                   17.553(6)
_cell_angle_alpha                76.519(8)
_cell_angle_beta                 89.167(7)
_cell_angle_gamma                79.774(8)
_cell_volume                     1647.88
loop_
_atom_site_label
_atom_site_type_symbol
_atom_site_fract_x
_atom_site_fract_y
_atom_site_fract_z
Cd1 Cd 0.82281(8) 0.58782(8) 0.29964(5)
Cd2 Cd 0.78836(9) 0.41965(9) 0.14193(5)
Br1 Br 0.11540(14) 1.02191(13) 0.19873(9)
Br2 Br 0.6513(2) 0.01449(15) 0.60777(8)
O1 O 0.6027(7) 0.6498(8) 0.2303(4)
O2 O 0.5631(7) 0.4975(8) 0.1666(5)
O3 O -0.1098(7) 0.5889(7) 0.1691(4)
O4 O 0.0507(8) 0.4680(8) 0.1079(4)
O5 O 0.7594(8) 0.3940(8) 0.3588(4)
O6 O 0.8464(8) 0.2928(8) 0.2646(5)
O7 O 0.7590(9) -0.3026(8) 0.3997(5)
O8 O 0.8056(8) -0.1781(7) 0.2865(4)
O9 O 0.7562(9) 0.5474(9) 0.0114(4)
H1 H 0.8186 0.5488 -0.0215
N1 N 1.0620(10) 0.5054(10) 0.3365(5)
N2 N 1.2891(10) 0.4896(10) 0.3678(5)
N3 N 0.7686(9) 0.2392(10) 0.0975(5)
N4 N 0.7116(10) 0.0508(10) 0.0793(6)
C1 C 0.5228(12) 0.5955(13) 0.1949(6)
C2 C 0.3682(11) 0.6566(12) 0.1855(6)
C3 C 0.2680(10) 0.5886(11) 0.1646(6)
H2 H 0.2985 0.5044 0.1542
C4 C 0.1227(11) 0.6432(10) 0.1589(5)
C5 C 0.0782(12) 0.7722(11) 0.1688(6)
H3 H -0.0187 0.8113 0.1625
C6 C 0.1773(12) 0.8430(11) 0.1880(6)
C7 C 0.3247(11) 0.7870(12) 0.1970(6)
H4 H 0.3912 0.8348 0.2102
C8 C 0.0161(11) 0.5585(11) 0.1445(6)
C9 C 0.7956(12) 0.2926(12) 0.3301(8)
C10 C 0.7714(11) 0.1619(11) 0.3789(6)
C11 C 0.7909(12) 0.0465(11) 0.3492(7)
H5 H 0.8238 0.0516 0.2986
C12 C 0.7625(12) -0.0767(11) 0.3935(6)
C13 C 0.7207(14) -0.0840(12) 0.4715(7)
H6 H 0.7025 -0.1649 0.5022
C14 C 0.7069(15) 0.0243(12) 0.5017(6)
C15 C 0.7276(11) 0.1493(11) 0.4579(6)
H7 H 0.7129 0.2237 0.4799
C16 C 0.7734(13) -0.1929(11) 0.3572(7)
C17 C 1.1357(13) 0.3852(13) 0.3243(6)
H8 H 1.0974 0.3216 0.3057
C18 C 1.2780(13) 0.3778(13) 0.3454(7)
H9 H 1.3529 0.3070 0.3441
C19 C 1.1537(13) 0.5652(12) 0.3635(7)
C20 C 1.4202(11) 0.5179(13) 0.3969(7)
H10 H 1.4222 0.6132 0.3789
H11 H 1.5022 0.4689 0.3755
C21 C 1.4331(10) 0.4787(12) 0.4858(6)
H12 H 1.4401 0.3821 0.5039
H13 H 1.3478 0.5220 0.5076
C22 C 1.1259(12) 0.6924(11) 0.3885(7)
H14 H 1.0637 0.7590 0.3504
H15 H 1.2152 0.7224 0.3930
H16 H 1.0807 0.6792 0.4383
C23 C 0.8483(12) 0.2004(12) 0.0365(6)
H17 H 0.9139 0.2480 0.0079
C24 C 0.8176(13) 0.0850(12) 0.0245(7)
C25 C 0.6871(13) 0.1501(13) 0.1208(7)
C26 C 0.6408(12) -0.0647(12) 0.0866(7)
H18 H 0.6258 -0.1015 0.1416
H19 H 0.7031 -0.1337 0.0669
C27 C 0.4996(13) -0.0301(14) 0.0431(6)
H20 H 0.4356 0.0325 0.0668
H21 H 0.4587 -0.1113 0.0507
C28 C 0.5803(12) 0.1454(13) 0.1851(7)
H22 H 0.5656 0.2289 0.2011
H23 H 0.6164 0.0729 0.2289
H24 H 0.4907 0.1313 0.1664
C29 C 0.6293(18) 0.6314(18) -0.0220(9)
H25 H 0.6514 0.7143 -0.0528
H26 H 0.5656 0.6498 0.0188
H27 H 0.5838 0.5878 -0.0548
N1A N 1.9380(10) 0.4946(10) 0.6635(5)
N2A N 1.7109(10) 0.5104(10) 0.6322(5)
C17A C 1.8643(13) 0.6148(13) 0.6757(6)
H8A H 1.9026 0.6784 0.6943
C18A C 1.7220(13) 0.6222(13) 0.6546(7)
H9A H 1.6471 0.6930 0.6559
C19A C 1.8463(13) 0.4348(12) 0.6365(7)
C20A C 1.5798(11) 0.4821(13) 0.6031(7)
H10A H 1.5778 0.3868 0.6211
H11A H 1.4978 0.5311 0.6245
C21A C 1.5669(10) 0.5213(12) 0.5142(6)
H12A H 1.5599 0.6179 0.4961
H13A H 1.6522 0.4780 0.4924
C22A C 1.8741(12) 0.3076(11) 0.6115(7)
H14A H 1.9363 0.2410 0.6496
H15A H 1.7848 0.2776 0.6070
H16A H 1.9193 0.3208 0.5617
N3A N 0.2314(9) -0.2392(10) -0.0975(5)
N4A N 0.2884(10) -0.0508(10) -0.0793(6)
C23A C 0.1517(12) -0.2004(12) -0.0365(6)
H17A H 0.0861 -0.2480 -0.0079
C24A C 0.1824(13) -0.0850(12) -0.0245(7)
C25A C 0.3129(13) -0.1501(13) -0.1208(7)
C26A C 0.3592(12) 0.0647(12) -0.0866(7)
H18A H 0.3742 0.1015 -0.1416
H19A H 0.2969 0.1337 -0.0669
C27A C 0.5004(13) 0.0301(14) -0.0431(6)
H20A H 0.5644 -0.0325 -0.0668
H21A H 0.5413 0.1113 -0.0507
C28A C 0.4197(12) -0.1454(13) -0.1851(7)
H22A H 0.4344 -0.2289 -0.2011
H23A H 0.3836 -0.0729 -0.2289
H24A H 0.5093 -0.1313 -0.1664
Cd1A Cd 0.17719(8) -0.58782(8) -0.29964(5)
Cd2A Cd 0.21164(9) -0.41965(9) -0.14193(5)
Br1A Br 0.88460(14) -1.02191(13) -0.19873(9)
Br2A Br 0.3487(2) -0.01449(15) -0.60777(8)
O1A O 0.3973(7) -0.6498(8) -0.2303(4)
O2A O 0.4369(7) -0.4975(8) -0.1666(5)
O3A O 1.1098(7) -0.5889(7) -0.1691(4)
O4A O 0.9493(8) -0.4680(8) -0.1079(4)
O5A O 0.2406(8) -0.3940(8) -0.3588(4)
O6A O 0.1536(8) -0.2928(8) -0.2646(5)
O7A O 0.2410(9) 0.3026(8) -0.3997(5)
O8A O 0.1944(8) 0.1781(7) -0.2865(4)
O9A O 0.2438(9) -0.5474(9) -0.0114(4)
H1A H 0.1814 -0.5488 0.0215
C1A C 0.4772(12) -0.5955(13) -0.1949(6)
C2A C 0.6318(11) -0.6566(12) -0.1855(6)
C3A C 0.7320(10) -0.5886(11) -0.1646(6)
H2A H 0.7015 -0.5044 -0.1542
C4A C 0.8773(11) -0.6432(10) -0.1589(5)
C5A C 0.9218(12) -0.7722(11) -0.1688(6)
H3A H 1.0187 -0.8113 -0.1625
C6A C 0.8227(12) -0.8430(11) -0.1880(6)
C7A C 0.6753(11) -0.7870(12) -0.1970(6)
H4A H 0.6088 -0.8348 -0.2102
C8A C 0.9839(11) -0.5585(11) -0.1445(6)
C9A C 0.2044(12) -0.2926(12) -0.3301(8)
C10A C 0.2286(11) -0.1619(11) -0.3789(6)
C11A C 0.2091(12) -0.0465(11) -0.3492(7)
H5A H 0.1762 -0.0516 -0.2986
C12A C 0.2375(12) 0.0767(11) -0.3935(6)
C13A C 0.2793(14) 0.0840(12) -0.4715(7)
H6A H 0.2975 0.1649 -0.5022
C14A C 0.2931(15) -0.0243(12) -0.5017(6)
C15A C 0.2724(11) -0.1493(11) -0.4579(6)
H7A H 0.2871 -0.2237 -0.4799
C16A C 0.2266(13) 0.1929(11) -0.3572(7)
C29A C 0.3707(18) -0.6314(18) 0.0220(9)
H25A H 0.3486 -0.7143 0.0528
H26A H 0.4344 -0.6498 -0.0188
H27A H 0.4162 -0.5878 0.0548
Cd1_2 Cd -0.17719(8) 0.58782(8) 0.29964(5)
Cd1_3 Cd 0.82281(8) -0.41218(8) 0.29964(5)
Cd1A_2 Cd 0.17719(8) 0.41218(8) -0.29964(5)
Cd1A_3 Cd 1.17719(8) -0.58782(8) -0.29964(5)
Cd1A_4 Cd 2.17719(8) 0.41218(8) 0.70036(5)
Cd2_2 Cd -0.21164(9) 0.41965(9) 0.14193(5)
Cd2A_2 Cd 1.21164(9) -0.41965(9) -0.14193(5)
O3_2 O 0.8902(7) 0.5889(7) 0.1691(4)
O3A_2 O 0.1098(7) -0.5889(7) -0.1691(4)
O4_2 O 1.0507(8) 0.4680(8) 0.1079(4)
O4A_2 O -0.0507(8) -0.4680(8) -0.1079(4)
O7_2 O 0.7590(9) 0.6974(8) 0.3997(5)
O7A_2 O 0.2410(9) -0.6974(8) -0.3997(5)
O8_2 O 0.8056(8) 0.8219(7) 0.2865(4)
O8A_2 O 0.1944(8) -0.8219(7) -0.2865(4)
N1A_2 N -0.0620(10) -0.5054(10) -0.3365(5)
loop_
_geom_bond_atom_site_label_1
_geom_bond_atom_site_label_2
_geom_bond_site_symmetry_1
_geom_bond_site_symmetry_2
Cd1 O1 1_555 1_555
Cd2 O2 1_555 1_555
Br1 C6 1_555 1_555
Br2 C14 1_555 1_555
O1 C1 1_555 1_555
O2 C1 1_555 1_555
O3 C8 1_555 1_555
O4 C8 1_555 1_555
O5 Cd1 1_555 1_555
O6 Cd2 1_555 1_555
O7 C16 1_555 1_555
O8 C16 1_555 1_555
O9 Cd2 1_555 1_555
H1 O9 1_555 1_555
N1 Cd1 1_555 1_555
N2 C18 1_555 1_555
N3 Cd2 1_555 1_555
N4 C24 1_555 1_555
C1 C2 1_555 1_555
C2 C3 1_555 1_555
C3 H2 1_555 1_555
C4 C3 1_555 1_555
C5 C4 1_555 1_555
H3 C5 1_555 1_555
C6 C5 1_555 1_555
C7 C2 1_555 1_555
H4 C7 1_555 1_555
C8 C4 1_555 1_555
C9 O5 1_555 1_555
C10 C9 1_555 1_555
C11 C10 1_555 1_555
H5 C11 1_555 1_555
C12 C11 1_555 1_555
C13 C12 1_555 1_555
H6 C13 1_555 1_555
C14 C13 1_555 1_555
C15 C10 1_555 1_555
H7 C15 1_555 1_555
C16 C12 1_555 1_555
C17 N1 1_555 1_555
H8 C17 1_555 1_555
C18 C17 1_555 1_555
H9 C18 1_555 1_555
C19 N1 1_555 1_555
C20 N2 1_555 1_555
H10 C20 1_555 1_555
H11 C20 1_555 1_555
C21 C20 1_555 1_555
H12 C21 1_555 1_555
H13 C21 1_555 1_555
C22 C19 1_555 1_555
H14 C22 1_555 1_555
H15 C22 1_555 1_555
H16 C22 1_555 1_555
C23 N3 1_555 1_555
H17 C23 1_555 1_555
C24 C23 1_555 1_555
C25 N3 1_555 1_555
C26 N4 1_555 1_555
H18 C26 1_555 1_555
H19 C26 1_555 1_555
C27 C26 1_555 1_555
H20 C27 1_555 1_555
H21 C27 1_555 1_555
C28 C25 1_555 1_555
H22 C28 1_555 1_555
H23 C28 1_555 1_555
H24 C28 1_555 1_555
C29 O9 1_555 1_555
H25 C29 1_555 1_555
H26 C29 1_555 1_555
H27 C29 1_555 1_555
N1A C17A 1_555 1_555
N2A C18A 1_555 1_555
C17A H8A 1_555 1_555
C18A C17A 1_555 1_555
H9A C18A 1_555 1_555
C19A N1A 1_555 1_555
C20A N2A 1_555 1_555
H10A C20A 1_555 1_555
H11A C20A 1_555 1_555
C21A C21 1_555 1_555
H12A C21A 1_555 1_555
H13A C21A 1_555 1_555
C22A C19A 1_555 1_555
H14A C22A 1_555 1_555
H15A C22A 1_555 1_555
H16A C22A 1_555 1_555
N3A C23A 1_555 1_555
N4A C24A 1_555 1_555
C23A H17A 1_555 1_555
C24A C23A 1_555 1_555
C25A N3A 1_555 1_555
C26A N4A 1_555 1_555
H18A C26A 1_555 1_555
H19A C26A 1_555 1_555
C27A C27 1_555 1_555
H20A C27A 1_555 1_555
H21A C27A 1_555 1_555
C28A C25A 1_555 1_555
H22A C28A 1_555 1_555
H23A C28A 1_555 1_555
H24A C28A 1_555 1_555
Cd1A O1A 1_555 1_555
Cd2A N3A 1_555 1_555
Br1A C6A 1_555 1_555
Br2A C14A 1_555 1_555
O1A C1A 1_555 1_555
O2A Cd2A 1_555 1_555
O3A C8A 1_555 1_555
O4A C8A 1_555 1_555
O5A Cd1A 1_555 1_555
O6A Cd2A 1_555 1_555
O7A C16A 1_555 1_555
O8A C16A 1_555 1_555
O9A Cd2A 1_555 1_555
H1A O9A 1_555 1_555
C1A O2A 1_555 1_555
C2A C1A 1_555 1_555
C3A C2A 1_555 1_555
H2A C3A 1_555 1_555
C4A C3A 1_555 1_555
C5A C4A 1_555 1_555
H3A C5A 1_555 1_555
C6A C5A 1_555 1_555
C7A C2A 1_555 1_555
H4A C7A 1_555 1_555
C8A C4A 1_555 1_555
C9A O5A 1_555 1_555
C10A C9A 1_555 1_555
C11A C10A 1_555 1_555
H5A C11A 1_555 1_555
C12A C11A 1_555 1_555
C13A C12A 1_555 1_555
H6A C13A 1_555 1_555
C14A C13A 1_555 1_555
C15A C10A 1_555 1_555
H7A C15A 1_555 1_555
C16A C12A 1_555 1_555
C29A O9A 1_555 1_555
H25A C29A 1_555 1_555
H26A C29A 1_555 1_555
H27A C29A 1_555 1_555
Cd1_2 O3 1_555 1_555
Cd1_3 O7 1_555 1_555
Cd1A_2 O7A 1_555 1_555
Cd1A_3 O3A 1_555 1_555
Cd1A_4 N1A 1_555 1_555
Cd2_2 O3 1_555 1_555
Cd2A_2 O3A 1_555 1_555
O3_2 Cd1 1_555 1_555
O3A_2 Cd1A 1_555 1_555
O4_2 Cd2 1_555 1_555
O4A_2 Cd2A 1_555 1_555
O7_2 Cd1 1_555 1_555
O7A_2 Cd1A 1_555 1_555
O8_2 Cd1 1_555 1_555
O8A_2 Cd1A 1_555 1_555
N1A_2 Cd1A 1_555 1_555
Cd2 O3_2 1_555 1_555
O4 Cd2_2 1_555 1_555
O6 C9 1_555 1_555
O8 Cd1_3 1_555 1_555
N2 C19 1_555 1_555
N4 C25 1_555 1_555
C6 C7 1_555 1_555
C14 C15 1_555 1_555
N2A C19A 1_555 1_555
C20A C21A 1_555 1_555
N4A C25A 1_555 1_555
C26A C27A 1_555 1_555
Cd2A O3A_2 1_555 1_555
O4A Cd2A_2 1_555 1_555
O6A C9A 1_555 1_555
O8A Cd1A_2 1_555 1_555
C6A C7A 1_555 1_555
C14A C15A 1_555 1_555

#END
