
#######################################################################
#
#                 Cambridge Crystallographic Data Centre
#                                CCDC 
#
#######################################################################
#
# If this CIF has been generated from an entry in the Cambridge 
# Structural Database, then it will include bibliographic, chemical, 
# crystal, experimental, refinement or atomic coordinate data resulting 
# from the CCDC's data processing and validation procedures.
#
#######################################################################

data_COKYUW
_symmetry_cell_setting           monoclinic
_symmetry_space_group_name_H-M   'P 1 1 21/b'
_symmetry_Int_Tables_number      14
_space_group_name_Hall           '-P 2bc'
loop_
_symmetry_equiv_pos_site_id
_symmetry_equiv_pos_as_xyz
1 x,y,z
2 -x,1/2-y,1/2+z
3 -x,-y,-z
4 x,1/2+y,1/2-z
_cell_length_a                   6.834(1)
_cell_length_b                   13.717(4)
_cell_length_c                   7.450(2)
_cell_angle_alpha                90
_cell_angle_beta                 90
_cell_angle_gamma                111.62(2)
_cell_volume                     649.245
loop_
_atom_site_label
_atom_site_type_symbol
_atom_site_fract_x
_atom_site_fract_y
_atom_site_fract_z
Cu1 Cu 0.4681(2) 0.4100(1) 0.1332(2)
Cl1 Cl 0.6198(5) 0.4453(2) -0.1678(4)
N1 N 0.1986(15) 0.2853(7) 0.1125(14)
C1 C 0.0605(17) 0.2069(9) 0.0991(15)
C2 C -0.1034(18) 0.1104(9) 0.0721(16)
C3 C -0.1435(16) 0.0306(9) 0.1871(14)
C4 C -0.3022(17) -0.0706(9) 0.1598(14)
C5 C -0.3189(20) -0.1559(9) 0.2626(18)
H1 H -0.169(15) 0.111(8) -0.030(14)
H2 H -0.035(16) 0.046(8) 0.286(14)
H3 H -0.376(16) -0.063(8) 0.064(14)
H4 H -0.420(15) -0.231(8) 0.231(14)
H5 H -0.198(15) -0.144(8) 0.352(13)
Cu1B Cu 0.5319(2) 0.5900(1) -0.1332(2)
Cl1B Cl 0.3802(5) 0.5547(2) 0.1678(4)
C4C C 0.6978(17) 0.4294(9) 0.3402(14)
C5C C 0.6811(20) 0.3441(9) 0.2374(18)
Cu1C Cu -0.5319(2) -0.0900(1) 0.3668(2)
H3C H 0.624(16) 0.437(8) 0.436(14)
H4C H 0.580(15) 0.269(8) 0.269(14)
H5C H 0.802(15) 0.356(8) 0.148(13)
loop_
_geom_bond_atom_site_label_1
_geom_bond_atom_site_label_2
_geom_bond_site_symmetry_1
_geom_bond_site_symmetry_2
Cu1 Cl1 1_555 1_555
Cl1 Cu1B 1_555 1_555
N1 Cu1 1_555 1_555
C1 N1 1_555 1_555
C2 C1 1_555 1_555
C3 C2 1_555 1_555
C4 C3 1_555 1_555
C5 C4 1_555 1_555
H1 C2 1_555 1_555
H2 C3 1_555 1_555
H3 C4 1_555 1_555
H4 C5 1_555 1_555
H5 C5 1_555 1_555
Cu1B Cu1 1_555 1_555
Cl1B Cu1 1_555 1_555
C4C Cu1 1_555 1_555
C5C Cu1 1_555 1_555
Cu1C C4 1_555 1_555
H3C C4C 1_555 1_555
H4C C5C 1_555 1_555
H5C C5C 1_555 1_555
C5 Cu1C 1_555 1_555
Cu1B Cl1B 1_555 1_555
C4C C5C 1_555 1_555

#END
