
#######################################################################
#
#                 Cambridge Crystallographic Data Centre
#                                CCDC 
#
#######################################################################
#
# If this CIF has been generated from an entry in the Cambridge 
# Structural Database, then it will include bibliographic, chemical, 
# crystal, experimental, refinement or atomic coordinate data resulting 
# from the CCDC's data processing and validation procedures.
#
#######################################################################

data_COLBIP
_symmetry_cell_setting           trigonal
_symmetry_space_group_name_H-M   'P -3 c 1'
_symmetry_Int_Tables_number      165
_space_group_name_Hall           '-P 3 2"c'
loop_
_symmetry_equiv_pos_site_id
_symmetry_equiv_pos_as_xyz
1 x,y,z
2 -y,x-y,z
3 -x+y,-x,z
4 y,x,1/2-z
5 x-y,-y,1/2-z
6 -x,-x+y,1/2-z
7 -x,-y,-z
8 y,-x+y,-z
9 x-y,x,-z
10 -y,-x,1/2+z
11 -x+y,y,1/2+z
12 x,x-y,1/2+z
_cell_length_a                   14.289(3)
_cell_length_b                   14.289(3)
_cell_length_c                   13.738(4)
_cell_angle_alpha                90
_cell_angle_beta                 90
_cell_angle_gamma                120
_cell_volume                     2429.17
loop_
_atom_site_label
_atom_site_type_symbol
_atom_site_fract_x
_atom_site_fract_y
_atom_site_fract_z
Mn1 Mn 0.49789(3) 0.79755(3) 0.35026(3)
Mn2 Mn 1.0000 1.0000 0.5000
C1 C 0.6453(2) 0.6839(2) 0.37832(19)
C2 C 0.7570(2) 0.8791(2) 0.38827(18)
N1 N 0.55004(16) 0.67656(16) 0.36327(15)
N2 N 0.47949(17) 0.56800(17) 0.36009(15)
N3 N 0.53172(17) 0.51666(16) 0.37196(16)
N4 N 0.63829(17) 0.58741(17) 0.38340(16)
N5 N 0.74144(18) 0.77638(19) 0.38764(18)
H1 H 0.7938(14) 0.7701(17) 0.3913(17)
N6 N 0.85328(15) 0.96500(16) 0.40640(15)
N7 N 0.83651(17) 1.04977(17) 0.39431(16)
N8 N 0.73629(17) 1.01546(17) 0.37288(16)
N9 N 0.68127(16) 0.90488(16) 0.36869(15)
O1 O 0.3333 0.6667 0.3185(2)
H2 H 0.3333 0.6667 0.2611(14)
O2 O 0.51626(15) 0.82888(16) 0.19326(16)
H3 H 0.573(2) 0.855(2) 0.182(2)
H4 H 0.497(2) 0.872(2) 0.176(2)
O3 O 0.45891(16) 0.77140(15) 0.50796(15)
H5 H 0.445(2) 0.712(2) 0.521(2)
H6 H 0.507(2) 0.823(2) 0.540(2)
Mn1A Mn 1.20245(3) 0.70034(4) 0.35026(3)
Mn1B Mn 1.29966(4) 1.50211(3) 0.35026(3)
Mn1F Mn 1.50211(3) 1.20245(3) 0.64974(3)
Mn1G Mn 0.79755(3) 1.29966(4) 0.64974(3)
Mn1H Mn 0.70034(4) 0.49789(3) 0.64974(3)
Mn1B_2 Mn 0.29966(4) 0.50211(3) 0.35026(3)
Mn1A_2 Mn 0.20245(3) 0.70034(4) 0.35026(3)
Mn1_2 Mn 1.49789(3) 0.79755(3) 0.35026(3)
Mn1A_3 Mn 1.20245(3) 1.70034(4) 0.35026(3)
Mn1H_2 Mn 1.70034(4) 1.49789(3) 0.64974(3)
Mn1F_2 Mn 0.50211(3) 1.20245(3) 0.64974(3)
Mn1G_2 Mn 0.79755(3) 0.29966(4) 0.64974(3)
Mn1B_3 Mn 1.29966(4) 0.50211(3) 0.35026(3)
C1A C 1.3161(2) 0.9614(3) 0.37832(19)
C1B C 1.0386(3) 1.3547(2) 0.37832(19)
C1F C 1.3547(2) 1.3161(2) 0.62168(19)
C1G C 0.6839(2) 1.0386(3) 0.62168(19)
C1H C 0.9614(3) 0.6453(2) 0.62168(19)
C2A C 1.1209(2) 0.8779(3) 0.38827(18)
C2B C 1.1221(3) 1.2430(2) 0.38827(18)
C2F C 1.2430(2) 1.1209(2) 0.61173(18)
C2G C 0.8791(2) 1.1221(3) 0.61173(18)
C2H C 0.8779(3) 0.7570(2) 0.61173(18)
N1A N 1.32344(16) 0.87348(23) 0.36327(15)
N1B N 1.12652(23) 1.44996(16) 0.36327(15)
N1F N 1.44996(16) 1.32344(16) 0.63673(15)
N1G N 0.67656(16) 1.12652(23) 0.63673(15)
N1H N 0.87348(23) 0.55004(16) 0.63673(15)
N2A N 1.43200(17) 0.91149(24) 0.36009(15)
N2B N 1.08851(24) 1.52051(17) 0.36009(15)
N2F N 1.52051(17) 1.43200(17) 0.63991(15)
N2G N 0.56800(17) 1.08851(24) 0.63991(15)
N2H N 0.91149(24) 0.47949(17) 0.63991(15)
N2A_2 N 0.43200(17) 0.91149(24) 0.36009(15)
N2B_2 N 1.08851(24) 0.52051(17) 0.36009(15)
N2_2 N 1.47949(17) 1.56800(17) 0.36009(15)
N2G_2 N 1.56800(17) 1.08851(24) 0.63991(15)
N2H_2 N 0.91149(24) 1.47949(17) 0.63991(15)
N2F_2 N 0.52051(17) 0.43200(17) 0.63991(15)
N3A N 1.48334(16) 1.01506(23) 0.37196(16)
N3B N 0.98494(23) 1.46828(17) 0.37196(16)
N3F N 1.46828(17) 1.48334(16) 0.62804(16)
N3G N 0.51666(16) 0.98494(23) 0.62804(16)
N3H N 1.01506(23) 0.53172(17) 0.62804(16)
N4A N 1.41259(17) 1.05088(24) 0.38340(16)
N4B N 0.94912(24) 1.36171(17) 0.38340(16)
N4F N 1.36171(17) 1.41259(17) 0.61660(16)
N4G N 0.58741(17) 0.94912(24) 0.61660(16)
N4H N 1.05088(24) 0.63829(17) 0.61660(16)
N5A N 1.22362(19) 0.96506(26) 0.38764(18)
N5B N 1.03494(26) 1.25856(18) 0.38764(18)
N5F N 1.25856(18) 1.22362(19) 0.61236(18)
N5G N 0.77638(19) 1.03494(26) 0.61236(18)
N5H N 0.96506(26) 0.74144(18) 0.61236(18)
H1A H 1.2299(17) 1.0237(22) 0.3913(17)
H1B H 0.9763(22) 1.2062(14) 0.3913(17)
H1F H 1.2062(14) 1.2299(17) 0.6087(17)
H1G H 0.7701(17) 0.9763(22) 0.6087(17)
H1H H 1.0237(22) 0.7938(14) 0.6087(17)
N6A N 1.03500(16) 0.88828(22) 0.40640(15)
N6B N 1.11172(22) 1.14672(15) 0.40640(15)
N6F N 1.14672(15) 1.03500(16) 0.59360(15)
N6G N 0.96500(16) 1.11172(22) 0.59360(15)
N6H N 0.88828(22) 0.85328(15) 0.59360(15)
N7A N 0.95023(17) 0.78674(24) 0.39431(16)
N7B N 1.21326(24) 1.16349(17) 0.39431(16)
N7F N 1.16349(17) 0.95023(17) 0.60569(16)
N7G N 1.04977(17) 1.21326(24) 0.60569(16)
N7H N 0.78674(24) 0.83651(17) 0.60569(16)
N8A N 0.98454(17) 0.72083(24) 0.37288(16)
N8B N 1.27917(24) 1.26371(17) 0.37288(16)
N8F N 1.26371(17) 0.98454(17) 0.62712(16)
N8G N 1.01546(17) 1.27917(24) 0.62712(16)
N8H N 0.72083(24) 0.73629(17) 0.62712(16)
N9A N 1.09512(16) 0.77639(23) 0.36869(15)
N9B N 1.22361(23) 1.31873(16) 0.36869(15)
N9F N 1.31873(16) 1.09512(16) 0.63131(15)
N9G N 0.90488(16) 1.22361(23) 0.63131(15)
N9H N 0.77639(23) 0.68127(16) 0.63131(15)
O1A O 1.3333 0.6666 0.3185(2)
O1_2 O 1.3333 1.6667 0.3185(2)
O1F O 1.6667 1.3333 0.6815(2)
O1F_2 O 0.6667 1.3333 0.6815(2)
O1F_3 O 0.6667 0.3333 0.6815(2)
H2A H 1.3333 0.6666 0.2611(14)
H2_2 H 1.3333 1.6667 0.2611(14)
H2F H 1.6667 1.3333 0.7389(14)
H2F_2 H 0.6667 1.3333 0.7389(14)
H2F_3 H 0.6667 0.3333 0.7389(14)
O2A O 1.17112(16) 0.68738(22) 0.19326(16)
O2B O 1.31262(22) 1.48374(15) 0.19326(16)
O2F O 1.48374(15) 1.17112(16) 0.80674(16)
O2G O 0.82888(16) 1.31262(22) 0.80674(16)
O2H O 0.68738(22) 0.51626(15) 0.80674(16)
H3A H 1.145(2) 0.718(3) 0.182(2)
H3B H 1.282(3) 1.427(2) 0.182(2)
H3F H 1.427(2) 1.145(2) 0.818(2)
H3G H 0.855(2) 1.282(3) 0.818(2)
H3H H 0.718(3) 0.573(2) 0.818(2)
H4A H 1.128(2) 0.625(3) 0.176(2)
H4B H 1.375(3) 1.503(2) 0.176(2)
H4F H 1.503(2) 1.128(2) 0.824(2)
H4G H 0.872(2) 1.375(3) 0.824(2)
H4H H 0.625(3) 0.497(2) 0.824(2)
O3A O 1.22860(15) 0.68751(22) 0.50796(15)
O3B O 1.31249(22) 1.54109(16) 0.50796(15)
O3F O 1.54109(16) 1.22860(15) 0.49204(15)
O3G O 0.77140(15) 1.31249(22) 0.49204(15)
O3H O 0.68751(22) 0.45891(16) 0.49204(15)
H5A H 1.288(2) 0.733(3) 0.521(2)
H5B H 1.267(3) 1.555(2) 0.521(2)
H5F H 1.555(2) 1.288(2) 0.479(2)
H5G H 0.712(2) 1.267(3) 0.479(2)
H5H H 0.733(3) 0.445(2) 0.479(2)
H6A H 1.177(2) 0.684(3) 0.540(2)
H6B H 1.316(3) 1.493(2) 0.540(2)
H6F H 1.493(2) 1.177(2) 0.460(2)
H6G H 0.823(2) 1.316(3) 0.460(2)
H6H H 0.684(3) 0.507(2) 0.460(2)
loop_
_geom_bond_atom_site_label_1
_geom_bond_atom_site_label_2
_geom_bond_site_symmetry_1
_geom_bond_site_symmetry_2
Mn1 N1 1_555 1_555
Mn2 N6 1_555 1_555
C1 N1 1_555 1_555
C2 N5 1_555 1_555
N1 N2 1_555 1_555
N2 N3 1_555 1_555
N3 N4 1_555 1_555
N4 C1 1_555 1_555
N5 C1 1_555 1_555
H1 N5 1_555 1_555
N6 C2 1_555 1_555
N7 N6 1_555 1_555
N8 N7 1_555 1_555
N9 Mn1 1_555 1_555
O1 Mn1 1_555 1_555
H2 O1 1_555 1_555
O2 Mn1 1_555 1_555
H3 O2 1_555 1_555
H4 O2 1_555 1_555
O3 Mn1 1_555 1_555
H5 O3 1_555 1_555
H6 O3 1_555 1_555
Mn1A N1A 1_555 1_555
Mn1B N1B 1_555 1_555
Mn1F N1F 1_555 1_555
Mn1G N1G 1_555 1_555
Mn1H N1H 1_555 1_555
Mn1B_2 N2 1_555 1_555
Mn1A_2 O1 1_555 1_555
Mn1_2 N2A 1_555 1_555
Mn1A_3 N2B 1_555 1_555
Mn1H_2 N2F 1_555 1_555
Mn1F_2 N2G 1_555 1_555
Mn1G_2 N2H 1_555 1_555
Mn1B_3 O1A 1_555 1_555
C1A N1A 1_555 1_555
C1B N1B 1_555 1_555
C1F N1F 1_555 1_555
C1G N1G 1_555 1_555
C1H N1H 1_555 1_555
C2A N5A 1_555 1_555
C2B N5B 1_555 1_555
C2F N5F 1_555 1_555
C2G N5G 1_555 1_555
C2H N5H 1_555 1_555
N1A N2A 1_555 1_555
N1B N2B 1_555 1_555
N1F N2F 1_555 1_555
N1G N2G 1_555 1_555
N1H N2H 1_555 1_555
N2A N3A 1_555 1_555
N2B N3B 1_555 1_555
N2F N3F 1_555 1_555
N2G N3G 1_555 1_555
N2H N3H 1_555 1_555
N2A_2 Mn1 1_555 1_555
N2B_2 Mn1A 1_555 1_555
N2_2 Mn1B 1_555 1_555
N2G_2 Mn1F 1_555 1_555
N2H_2 Mn1G 1_555 1_555
N2F_2 Mn1H 1_555 1_555
N3A N4A 1_555 1_555
N3B N4B 1_555 1_555
N3F N4F 1_555 1_555
N3G N4G 1_555 1_555
N3H N4H 1_555 1_555
N4A C1A 1_555 1_555
N4B C1B 1_555 1_555
N4F C1F 1_555 1_555
N4G C1G 1_555 1_555
N4H C1H 1_555 1_555
N5A C1A 1_555 1_555
N5B C1B 1_555 1_555
N5F C1F 1_555 1_555
N5G C1G 1_555 1_555
N5H C1H 1_555 1_555
H1A N5A 1_555 1_555
H1B N5B 1_555 1_555
H1F N5F 1_555 1_555
H1G N5G 1_555 1_555
H1H N5H 1_555 1_555
N6A Mn2 1_555 1_555
N6B Mn2 1_555 1_555
N6F Mn2 1_555 1_555
N6G Mn2 1_555 1_555
N6H Mn2 1_555 1_555
N7A N6A 1_555 1_555
N7B N6B 1_555 1_555
N7F N6F 1_555 1_555
N7G N6G 1_555 1_555
N7H N6H 1_555 1_555
N8A N7A 1_555 1_555
N8B N7B 1_555 1_555
N8F N7F 1_555 1_555
N8G N7G 1_555 1_555
N8H N7H 1_555 1_555
N9A Mn1A 1_555 1_555
N9B Mn1B 1_555 1_555
N9F Mn1F 1_555 1_555
N9G Mn1G 1_555 1_555
N9H Mn1H 1_555 1_555
O1A Mn1A 1_555 1_555
O1_2 Mn1B 1_555 1_555
O1F Mn1F 1_555 1_555
O1F_2 Mn1G 1_555 1_555
O1F_3 Mn1H 1_555 1_555
H2A O1A 1_555 1_555
H2_2 O1_2 1_555 1_555
H2F O1F 1_555 1_555
H2F_2 O1F_2 1_555 1_555
H2F_3 O1F_3 1_555 1_555
O2A Mn1A 1_555 1_555
O2B Mn1B 1_555 1_555
O2F Mn1F 1_555 1_555
O2G Mn1G 1_555 1_555
O2H Mn1H 1_555 1_555
H3A O2A 1_555 1_555
H3B O2B 1_555 1_555
H3F O2F 1_555 1_555
H3G O2G 1_555 1_555
H3H O2H 1_555 1_555
H4A O2A 1_555 1_555
H4B O2B 1_555 1_555
H4F O2F 1_555 1_555
H4G O2G 1_555 1_555
H4H O2H 1_555 1_555
O3A Mn1A 1_555 1_555
O3B Mn1B 1_555 1_555
O3F Mn1F 1_555 1_555
O3G Mn1G 1_555 1_555
O3H Mn1H 1_555 1_555
H5A O3A 1_555 1_555
H5B O3B 1_555 1_555
H5F O3F 1_555 1_555
H5G O3G 1_555 1_555
H5H O3H 1_555 1_555
H6A O3A 1_555 1_555
H6B O3B 1_555 1_555
H6F O3F 1_555 1_555
H6G O3G 1_555 1_555
H6H O3H 1_555 1_555
C2 N9 1_555 1_555
N8 N9 1_555 1_555
O1 Mn1B_2 1_555 1_555
Mn1_2 O1A 1_555 1_555
Mn1A_3 O1_2 1_555 1_555
Mn1H_2 O1F 1_555 1_555
Mn1F_2 O1F_2 1_555 1_555
Mn1G_2 O1F_3 1_555 1_555
C2A N6A 1_555 1_555
C2A N9A 1_555 1_555
C2B N6B 1_555 1_555
C2B N9B 1_555 1_555
C2F N6F 1_555 1_555
C2F N9F 1_555 1_555
C2G N6G 1_555 1_555
C2G N9G 1_555 1_555
C2H N6H 1_555 1_555
C2H N9H 1_555 1_555
N8A N9A 1_555 1_555
N8B N9B 1_555 1_555
N8F N9F 1_555 1_555
N8G N9G 1_555 1_555
N8H N9H 1_555 1_555

#END
