
#######################################################################
#
#                 Cambridge Crystallographic Data Centre
#                                CCDC 
#
#######################################################################
#
# If this CIF has been generated from an entry in the Cambridge 
# Structural Database, then it will include bibliographic, chemical, 
# crystal, experimental, refinement or atomic coordinate data resulting 
# from the CCDC's data processing and validation procedures.
#
#######################################################################

data_COLBUB
_symmetry_cell_setting           orthorhombic
_symmetry_space_group_name_H-M   'P b a m'
_symmetry_Int_Tables_number      55
_space_group_name_Hall           '-P 2 2ab'
loop_
_symmetry_equiv_pos_site_id
_symmetry_equiv_pos_as_xyz
1 x,y,z
2 -x,-y,z
3 1/2+x,1/2-y,-z
4 1/2-x,1/2+y,-z
5 -x,-y,-z
6 x,y,-z
7 1/2-x,1/2+y,z
8 1/2+x,1/2-y,z
_cell_length_a                   10.2897(16)
_cell_length_b                   23.812(4)
_cell_length_c                   7.0825(11)
_cell_angle_alpha                90
_cell_angle_beta                 90
_cell_angle_gamma                90
_cell_volume                     1735.34
loop_
_atom_site_label
_atom_site_type_symbol
_atom_site_fract_x
_atom_site_fract_y
_atom_site_fract_z
Zn1 Zn 0.56496(7) 0.82928(3) 0.0000
C1 C 0.8284(6) 0.7693(3) 0.0000
C2 C 0.8563(6) 0.8707(3) 0.0000
N1 N 0.7007(5) 0.7665(2) 0.0000
N2 N 0.6720(6) 0.7112(2) 0.0000
N3 N 0.7769(6) 0.6831(2) 0.0000
N4 N 0.8814(5) 0.7179(2) 0.0000
N5 N 0.9034(6) 0.8165(2) 0.0000
H1 H 0.9864 0.8122 0.0000
N6 N 0.7318(5) 0.8837(2) 0.0000
N7 N 0.7317(6) 0.9404(2) 0.0000
N8 N 0.8488(7) 0.9587(3) 0.0000
N9 N 0.9333(6) 0.9144(2) 0.0000
N20 N 0.5118(4) 0.85806(19) 0.2587(6)
H6 H 0.4391 0.8409 0.2951
H7 H 0.4982 0.8949 0.2529
H8 H 0.5748 0.8509 0.3414
Zn1G Zn 1.06496(7) 0.67072(3) 0.0000
N4G N 0.3814(5) 0.7821(2) 0.0000
N20E N 0.5118(4) 0.85806(19) -0.2587(6)
H6E H 0.4391 0.8409 -0.2951
H7E H 0.4982 0.8949 -0.2529
H8E H 0.5748 0.8509 -0.3414
Zn2 Zn 0.63711(8) 0.56778(3) -0.5000
C3 C 0.3681(7) 0.6196(3) -0.5000
C4 C 0.5351(7) 0.6907(3) -0.5000
N10 N 0.4425(5) 0.5745(2) -0.5000
N11 N 0.3578(5) 0.5302(2) -0.5000
N12 N 0.2426(6) 0.5504(3) -0.5000
N13 N 0.2415(6) 0.6064(2) -0.5000
N14 N 0.4088(6) 0.6744(2) -0.5000
H2 H 0.3504 0.7002 -0.5000
N15 N 0.6356(5) 0.6568(2) -0.5000
N16 N 0.7433(6) 0.6899(3) -0.5000
N17 N 0.7039(6) 0.7421(3) -0.5000
N18 N 0.5726(7) 0.7450(3) -0.5000
N19 N 0.7161(5) 0.56195(18) -0.7579(7)
H3 H 0.7260 0.5259 -0.7883
H4 H 0.7932 0.5789 -0.7584
H5 H 0.6641 0.5785 -0.8417
Zn2D Zn 0.36289(8) 0.43222(3) -0.5000
N11D N 0.6422(5) 0.4698(2) -0.5000
N19E N 0.7161(5) 0.56195(18) -0.2421(7)
H3E H 0.7260 0.5259 -0.2117
H4E H 0.7932 0.5789 -0.2416
H5E H 0.6641 0.5785 -0.1583
O1 O 0.5000 1.0000 -0.125(2)
H9 H 0.543(13) 0.978(5) -0.054(6)
H9A H 0.457(13) 1.022(5) -0.054(6)
O2 O 0.0000 0.5000 -0.375(2)
H10 H 0.038(14) 0.524(4) -0.445(6)
H10A H -0.038(14) 0.476(4) -0.445(6)
loop_
_geom_bond_atom_site_label_1
_geom_bond_atom_site_label_2
_geom_bond_site_symmetry_1
_geom_bond_site_symmetry_2
Zn1 N1 1_555 1_555
Zn2 N10 1_555 1_555
C1 N1 1_555 1_555
C2 N5 1_555 1_555
C3 N10 1_555 1_555
C4 N14 1_555 1_555
N1 N2 1_555 1_555
N2 N3 1_555 1_555
N3 N4 1_555 1_555
N4 C1 1_555 1_555
N5 C1 1_555 1_555
H1 N5 1_555 1_555
N6 Zn1 1_555 1_555
N7 N6 1_555 1_555
N8 N7 1_555 1_555
N9 C2 1_555 1_555
N10 N11 1_555 1_555
N11 N12 1_555 1_555
N12 N13 1_555 1_555
N13 C3 1_555 1_555
N14 C3 1_555 1_555
H2 N14 1_555 1_555
N15 Zn2 1_555 1_555
N16 N15 1_555 1_555
N17 N16 1_555 1_555
N18 C4 1_555 1_555
N19 Zn2 1_555 1_555
H3 N19 1_555 1_555
H4 N19 1_555 1_555
H5 N19 1_555 1_555
N20 Zn1 1_555 1_555
H6 N20 1_555 1_555
H7 N20 1_555 1_555
H8 N20 1_555 1_555
O1 H9 1_555 1_555
O2 H10 1_555 1_555
Zn1G N4 1_555 1_555
Zn2D N11 1_555 1_555
N4G Zn1 1_555 1_555
N11D Zn2 1_555 1_555
N19E Zn2 1_555 1_555
H3E N19E 1_555 1_555
H4E N19E 1_555 1_555
H5E N19E 1_555 1_555
N20E Zn1 1_555 1_555
H6E N20E 1_555 1_555
H7E N20E 1_555 1_555
H8E N20E 1_555 1_555
H9A O1 1_555 1_555
H10A O2 1_555 1_555
C2 N6 1_555 1_555
C4 N15 1_555 1_555
N8 N9 1_555 1_555
N17 N18 1_555 1_555

#END
