
#######################################################################
#
#                 Cambridge Crystallographic Data Centre
#                                CCDC 
#
#######################################################################
#
# If this CIF has been generated from an entry in the Cambridge 
# Structural Database, then it will include bibliographic, chemical, 
# crystal, experimental, refinement or atomic coordinate data resulting 
# from the CCDC's data processing and validation procedures.
#
#######################################################################

data_COLBOV01
_symmetry_cell_setting           orthorhombic
_symmetry_space_group_name_H-M   'P 21 21 2'
_symmetry_Int_Tables_number      18
_space_group_name_Hall           'P 2 2ab'
loop_
_symmetry_equiv_pos_site_id
_symmetry_equiv_pos_as_xyz
1 x,y,z
2 -x,-y,z
3 1/2+x,1/2-y,-z
4 1/2-x,1/2+y,-z
_cell_length_a                   23.9993(19)
_cell_length_b                   10.2755(8)
_cell_length_c                   7.4265(7)
_cell_angle_alpha                90
_cell_angle_beta                 90
_cell_angle_gamma                90
_cell_volume                     1831.41
loop_
_atom_site_label
_atom_site_type_symbol
_atom_site_fract_x
_atom_site_fract_y
_atom_site_fract_z
Mn1 Mn 0.162850(10) 0.00311(2) 0.02610(4)
N1 N 0.11741(6) -0.18411(14) 0.0653(2)
N2 N 0.06243(7) -0.19455(16) 0.1040(3)
N3 N 0.04781(7) -0.31515(16) 0.0901(3)
N4 N 0.09192(6) -0.39042(14) 0.0444(3)
N5 N 0.18684(6) -0.34381(14) -0.0101(3)
N6 N 0.28443(6) -0.31679(13) 0.0254(3)
N7 N 0.18287(6) -0.71113(14) -0.0518(3)
N8 N 0.21350(6) -0.60765(15) -0.0589(3)
N9 N 0.23245(6) -0.13983(13) 0.0347(2)
O4 O 0.17026(7) 0.04096(16) 0.3083(2)
H6 H 0.1697(12) 0.114(3) 0.340(4)
O5 O 0.15417(6) -0.00450(15) -0.27095(18)
H7 H 0.1863(13) 0.006(3) -0.311(4)
H8 H 0.1437(13) -0.072(3) -0.320(5)
O6 O 0.08380(6) 0.10697(15) 0.0273(3)
H9 H 0.0759(14) 0.169(4) 0.072(5)
H10 H 0.0589(12) 0.071(3) -0.025(4)
C1 C 0.13369(7) -0.30572(15) 0.0320(3)
C2 C 0.23280(7) -0.26858(15) 0.0170(3)
H13 H 0.1901(10) -0.423(3) -0.026(4)
H15 H 0.1952(13) 0.009(4) 0.349(4)
Mn1C Mn 0.337150(10) -0.49689(2) -0.02610(4)
Mn1_2 Mn 0.162850(10) -0.99689(2) 0.02610(4)
N1C N 0.38259(6) -0.68411(14) -0.0653(2)
N2C N 0.43757(7) -0.69455(16) -0.1040(3)
N3C N 0.45219(7) -0.81515(16) -0.0901(3)
N4C N 0.40808(6) -0.89042(14) -0.0444(3)
N5C N 0.31316(6) -0.84381(14) 0.0101(3)
N6C N 0.21557(6) 0.18321(13) -0.0254(3)
N6C_2 N 0.21557(6) -0.81679(13) -0.0254(3)
N7C N 0.31713(6) -0.21113(14) 0.0518(3)
N8C N 0.28650(6) -0.10765(15) 0.0589(3)
N9C N 0.26755(6) -0.63983(13) -0.0347(2)
O4C O 0.32974(7) -0.45904(16) -0.3083(2)
H6C H 0.3303(12) -0.386(3) -0.340(4)
O5C O 0.34583(6) -0.50450(15) 0.27095(18)
H7C H 0.3137(13) -0.494(3) 0.311(4)
H8C H 0.3563(13) -0.572(3) 0.320(5)
O6C O 0.41620(6) -0.39303(15) -0.0273(3)
H9C H 0.4241(14) -0.331(4) -0.072(5)
H10C H 0.4411(12) -0.429(3) 0.025(4)
C1C C 0.36631(7) -0.80572(15) -0.0320(3)
C2C C 0.26720(7) -0.76858(15) -0.0170(3)
H13C H 0.3099(10) -0.923(3) 0.026(4)
H15C H 0.3048(13) -0.491(4) -0.349(4)
Mn2 Mn 0.063790(10) -0.63573(2) 0.52345(4)
N10 N 0.15426(6) -0.61003(14) 0.4721(3)
N11 N 0.18903(6) -0.71164(16) 0.4412(3)
N12 N 0.23983(6) -0.67104(16) 0.4380(3)
N13 N 0.24107(6) -0.54077(15) 0.4654(3)
N14 N 0.17074(6) -0.38285(15) 0.5173(3)
N15 N -0.10427(6) -0.77621(15) 0.5991(3)
N16 N -0.04846(6) -0.77825(16) 0.6095(2)
N17 N -0.02874(6) -0.66451(14) 0.5669(2)
N18 N 0.07121(6) -0.41738(13) 0.5254(2)
O1 O 0.05423(6) -0.63868(17) 0.2294(2)
H1 H 0.0228(11) -0.640(3) 0.177(4)
H2 H 0.070(2) -0.559(5) 0.190(7)
O2 O 0.07797(7) -0.62661(17) 0.8142(2)
H3 H 0.0786(18) -0.539(5) 0.859(6)
O3 O 0.07291(6) -0.84518(13) 0.5296(3)
H4 H 0.0966(12) -0.887(3) 0.592(4)
H5 H 0.0536(11) -0.889(3) 0.472(4)
C3 C 0.18775(7) -0.50784(17) 0.4852(2)
C4 C -0.11671(7) -0.65491(16) 0.5461(3)
H14 H 0.1904(10) -0.340(2) 0.529(3)
H16 H 0.1111(19) -0.648(5) 0.862(7)
Mn2A Mn -0.063790(10) -0.36427(2) 0.52345(4)
N10A N -0.15426(6) -0.38997(14) 0.4721(3)
N11A N -0.18903(6) -0.28836(16) 0.4412(3)
N12A N -0.23983(6) -0.32896(16) 0.4380(3)
N13A N -0.24107(6) -0.45923(15) 0.4654(3)
N14A N -0.17074(6) -0.61715(15) 0.5173(3)
N15A N 0.10427(6) -0.22379(15) 0.5991(3)
N16A N 0.04846(6) -0.22175(16) 0.6095(2)
N17A N 0.02874(6) -0.33549(14) 0.5669(2)
N18A N -0.07121(6) -0.58262(13) 0.5254(2)
O1A O -0.05423(6) -0.36132(17) 0.2294(2)
H1A H -0.0228(11) -0.360(3) 0.177(4)
H2A H -0.070(2) -0.441(5) 0.190(7)
O2A O -0.07797(7) -0.37339(17) 0.8142(2)
H3A H -0.0786(18) -0.461(5) 0.859(6)
O3A O -0.07291(6) -0.15482(13) 0.5296(3)
H4A H -0.0966(12) -0.113(3) 0.592(4)
H5A H -0.0536(11) -0.111(3) 0.472(4)
C3A C -0.18775(7) -0.49216(17) 0.4852(2)
C4A C 0.11671(7) -0.34509(16) 0.5461(3)
H14A H -0.1904(10) -0.660(2) 0.529(3)
H16A H -0.1111(19) -0.352(5) 0.862(7)
O7 O 0.0000 -1.0000 0.8174(3)
H11 H -0.0126(12) -0.951(3) 0.751(4)
H11A H 0.0126(12) -1.049(3) 0.751(4)
H12 H 0.0139(11) -1.048(3) 0.272(4)
O8 O 0.0000 -1.0000 0.3269(3)
H12A H -0.0139(11) -0.952(3) 0.272(4)
loop_
_geom_bond_atom_site_label_1
_geom_bond_atom_site_label_2
_geom_bond_site_symmetry_1
_geom_bond_site_symmetry_2
Mn1 N1 1_555 1_555
Mn2 N10 1_555 1_555
N1 N2 1_555 1_555
N2 N3 1_555 1_555
N3 N4 1_555 1_555
N4 C1 1_555 1_555
N5 C1 1_555 1_555
N6 C2 1_555 1_555
N7 N8 1_555 1_555
N8 N9C 1_555 1_555
N9 Mn1 1_555 1_555
N10 N11 1_555 1_555
N11 N12 1_555 1_555
N12 N13 1_555 1_555
N13 C3 1_555 1_555
N14 C3 1_555 1_555
N15 N16 1_555 1_555
N16 N17 1_555 1_555
N17 Mn2 1_555 1_555
N18 Mn2 1_555 1_555
O1 Mn2 1_555 1_555
H1 O1 1_555 1_555
H2 O1 1_555 1_555
O2 Mn2 1_555 1_555
H3 O2 1_555 1_555
O3 Mn2 1_555 1_555
H4 O3 1_555 1_555
H5 O3 1_555 1_555
O4 Mn1 1_555 1_555
H6 O4 1_555 1_555
O5 Mn1 1_555 1_555
H7 O5 1_555 1_555
H8 O5 1_555 1_555
O6 Mn1 1_555 1_555
H9 O6 1_555 1_555
H10 O6 1_555 1_555
O7 H11 1_555 1_555
H12 O8 1_555 1_555
O8 H12A 1_555 1_555
C1 N1 1_555 1_555
C2 N5 1_555 1_555
C3 N10 1_555 1_555
C4 N15 1_555 1_555
H13 N5 1_555 1_555
H14 N14 1_555 1_555
H15 O4 1_555 1_555
H16 O2 1_555 1_555
Mn1C N6 1_555 1_555
Mn1_2 N6C_2 1_555 1_555
Mn2A N10A 1_555 1_555
N1C Mn1C 1_555 1_555
N2C N1C 1_555 1_555
N3C N2C 1_555 1_555
N4C N3C 1_555 1_555
N5C C1C 1_555 1_555
N6C Mn1 1_555 1_555
N6C_2 N7 1_555 1_555
N7C N6 1_555 1_555
N8C N9 1_555 1_555
N9C Mn1C 1_555 1_555
N10A N11A 1_555 1_555
N11A N12A 1_555 1_555
N12A N13A 1_555 1_555
N13A C3A 1_555 1_555
N14A C4 1_555 1_555
N15A N16A 1_555 1_555
N16A N17A 1_555 1_555
N17A N18 1_555 1_555
N18A N17 1_555 1_555
O1A Mn2A 1_555 1_555
H1A O1A 1_555 1_555
H2A O1A 1_555 1_555
O2A Mn2A 1_555 1_555
H3A O2A 1_555 1_555
O3A Mn2A 1_555 1_555
H4A O3A 1_555 1_555
H5A O3A 1_555 1_555
O4C Mn1C 1_555 1_555
H6C O4C 1_555 1_555
O5C Mn1C 1_555 1_555
H7C O5C 1_555 1_555
H8C O5C 1_555 1_555
O6C Mn1C 1_555 1_555
H9C O6C 1_555 1_555
H10C O6C 1_555 1_555
H11A O7 1_555 1_555
C1C N1C 1_555 1_555
C2C N5C 1_555 1_555
C3A N10A 1_555 1_555
C4A N14 1_555 1_555
H13C N5C 1_555 1_555
H14A N14A 1_555 1_555
H15C O4C 1_555 1_555
H16A O2A 1_555 1_555
N9 C2 1_555 1_555
N18 C4A 1_555 1_555
C4 N18A 1_555 1_555
Mn2A N17A 1_555 1_555
Mn2A N18A 1_555 1_555
N4C C1C 1_555 1_555
N6C_2 C2C 1_555 1_555
N7C N8C 1_555 1_555
N9C C2C 1_555 1_555
N14A C3A 1_555 1_555
N15A C4A 1_555 1_555

#END
