
#######################################################################
#
#                 Cambridge Crystallographic Data Centre
#                                CCDC 
#
#######################################################################
#
# If this CIF has been generated from an entry in the Cambridge 
# Structural Database, then it will include bibliographic, chemical, 
# crystal, experimental, refinement or atomic coordinate data resulting 
# from the CCDC's data processing and validation procedures.
#
#######################################################################

data_COLDUC
_symmetry_cell_setting           monoclinic
_symmetry_space_group_name_H-M   'P 21/a'
_symmetry_Int_Tables_number      14
_space_group_name_Hall           '-P 2yab'
loop_
_symmetry_equiv_pos_site_id
_symmetry_equiv_pos_as_xyz
1 x,y,z
2 1/2-x,1/2+y,-z
3 -x,-y,-z
4 1/2+x,1/2-y,z
_cell_length_a                   17.2850(7)
_cell_length_b                   9.5248(6)
_cell_length_c                   14.5520(7)
_cell_angle_alpha                90
_cell_angle_beta                 117.198(3)
_cell_angle_gamma                90
_cell_volume                     2130.89
loop_
_atom_site_label
_atom_site_type_symbol
_atom_site_fract_x
_atom_site_fract_y
_atom_site_fract_z
Cu1 Cu 0.15383(3) 0.24089(6) 0.44746(4)
Cu2 Cu 0.16374(3) 0.25671(6) 0.23266(4)
S1 S 0.23850(6) 0.51948(10) 0.40058(7)
Cl1 Cl 0.28373(7) 0.19230(12) 0.21324(8)
O1 O 0.2088(2) 0.1803(3) 0.3673(2)
O2 O 0.1986(2) 0.4561(1) 0.4608(2)
O3 O 0.1858(2) 0.4900(3) 0.2908(2)
O4 O 0.2423(2) 0.6758(3) 0.4175(2)
O5 O 0.3275(2) 0.4702(3) 0.4385(2)
N1 N 0.0818(2) 0.2906(4) 0.5149(2)
N2 N -0.0302(2) 0.1338(3) 0.4112(2)
N3 N 0.0417(2) 0.1989(4) 0.3170(2)
N4 N 0.0449(2) 0.2096(3) 0.2236(2)
N5 N -0.0199(2) 0.1774(4) 0.0456(2)
N6 N 0.1020(2) 0.3250(3) 0.0890(2)
C1 C 0.1118(3) 0.3889(4) 0.5917(3)
C2 C 0.0672(3) 0.4283(5) 0.6437(3)
C3 C -0.0124(3) 0.3650(5) 0.6191(3)
C4 C -0.0435(3) 0.2650(5) 0.5428(3)
C5 C 0.0049(2) 0.2321(4) 0.4904(3)
C6 C -0.0195(2) 0.1252(4) 0.3242(3)
C7 C -0.0761(2) 0.0330(4) 0.2420(3)
C8 C -0.1296(3) -0.0681(4) 0.2539(3)
C9 C -0.1795(3) -0.1552(4) 0.1728(3)
C10 C -0.1781(3) -0.1414(4) 0.0790(3)
C11 C -0.1260(3) -0.0435(5) 0.0657(3)
C12 C -0.0745(2) 0.0463(4) 0.1467(3)
C13 C -0.0147(2) 0.1476(4) 0.1410(3)
C14 C 0.0238(2) 0.2794(4) 0.0194(3)
C15 C -0.0154(3) 0.3313(5) -0.0822(3)
C16 C 0.0279(3) 0.4315(5) -0.1090(3)
C17 C 0.1091(3) 0.4759(5) -0.0385(3)
C18 C 0.1436(3) 0.4221(5) 0.0592(3)
H1 H 0.250(2) 0.186(4) 0.398(3)
H6 H -0.075(2) 0.102(3) 0.404(2)
H7 H -0.065(2) 0.151(4) -0.006(3)
H8 H 0.166(3) 0.432(5) 0.603(3)
H9 H 0.096(2) 0.506(4) 0.701(3)
H10 H -0.048(2) 0.387(4) 0.653(3)
H11 H -0.096(2) 0.224(4) 0.518(3)
H12 H -0.131(2) -0.083(4) 0.317(3)
H13 H -0.215(2) -0.217(4) 0.179(3)
H14 H -0.207(2) -0.199(4) 0.024(3)
H15 H -0.130(2) -0.038(4) 0.003(3)
H16 H -0.072(2) 0.299(4) -0.127(3)
H17 H 0.001(3) 0.456(5) -0.170(3)
H18 H 0.137(2) 0.541(4) -0.065(2)
H19 H 0.190(2) 0.440(4) 0.100(3)
O4A O 0.2577(2) 0.1758(3) 0.5825(2)
Cu1A Cu 0.34617(3) 0.74089(6) 0.55254(4)
O6 O 0.3675(2) 0.3934(3) 0.6882(2)
H2 H 0.339(2) 0.333(4) 0.664(3)
H3 H 0.341(3) 0.464(5) 0.652(3)
O7 O 0.3384(2) 0.4149(4) 0.8524(3)
H4 H 0.305(3) 0.470(5) 0.839(4)
H5 H 0.357(4) 0.408(7) 0.823(5)
loop_
_geom_bond_atom_site_label_1
_geom_bond_atom_site_label_2
_geom_bond_site_symmetry_1
_geom_bond_site_symmetry_2
Cu1 O1 1_555 1_555
Cu2 Cl1 1_555 1_555
S1 O2 1_555 1_555
O1 Cu2 1_555 1_555
O2 Cu1 1_555 1_555
O3 Cu2 1_555 1_555
O4 S1 1_555 1_555
O5 S1 1_555 1_555
O6 H2 1_555 1_555
O7 H4 1_555 1_555
N1 Cu1 1_555 1_555
N2 C5 1_555 1_555
N3 Cu1 1_555 1_555
N4 Cu2 1_555 1_555
N5 C13 1_555 1_555
N6 Cu2 1_555 1_555
C1 N1 1_555 1_555
C2 C1 1_555 1_555
C3 C2 1_555 1_555
C4 C3 1_555 1_555
C5 N1 1_555 1_555
C6 N2 1_555 1_555
C7 C6 1_555 1_555
C8 C7 1_555 1_555
C9 C8 1_555 1_555
C10 C9 1_555 1_555
C11 C10 1_555 1_555
C12 C7 1_555 1_555
C13 N4 1_555 1_555
C14 N5 1_555 1_555
C15 C14 1_555 1_555
C16 C15 1_555 1_555
C17 C16 1_555 1_555
C18 N6 1_555 1_555
H1 O1 1_555 1_555
H3 O6 1_555 1_555
H5 O7 1_555 1_555
H6 N2 1_555 1_555
H7 N5 1_555 1_555
H8 C1 1_555 1_555
H9 C2 1_555 1_555
H10 C3 1_555 1_555
H11 C4 1_555 1_555
H12 C8 1_555 1_555
H13 C9 1_555 1_555
H14 C10 1_555 1_555
H15 C11 1_555 1_555
H16 C15 1_555 1_555
H17 C16 1_555 1_555
H18 C17 1_555 1_555
H19 C18 1_555 1_555
O4A Cu1 1_555 1_555
Cu1A O4 1_555 1_555
S1 O3 1_555 1_555
N3 N4 1_555 1_555
N3 C6 1_555 1_555
N6 C14 1_555 1_555
C4 C5 1_555 1_555
C11 C12 1_555 1_555
C12 C13 1_555 1_555
C17 C18 1_555 1_555

#END
