
#######################################################################
#
#                 Cambridge Crystallographic Data Centre
#                                CCDC 
#
#######################################################################
#
# If this CIF has been generated from an entry in the Cambridge 
# Structural Database, then it will include bibliographic, chemical, 
# crystal, experimental, refinement or atomic coordinate data resulting 
# from the CCDC's data processing and validation procedures.
#
#######################################################################

data_COLMUM
_symmetry_cell_setting           monoclinic
_symmetry_space_group_name_H-M   'P 21'
_symmetry_Int_Tables_number      4
_space_group_name_Hall           'P 2yb'
loop_
_symmetry_equiv_pos_site_id
_symmetry_equiv_pos_as_xyz
1 x,y,z
2 -x,1/2+y,-z
_cell_length_a                   3.623(2)
_cell_length_b                   15.872(6)
_cell_length_c                   15.650(5)
_cell_angle_alpha                90
_cell_angle_beta                 93.13(4)
_cell_angle_gamma                90
_cell_volume                     898.599
loop_
_atom_site_label
_atom_site_type_symbol
_atom_site_fract_x
_atom_site_fract_y
_atom_site_fract_z
Na1 Na 0.3120(3) 0.24293(7) 0.55489(7)
O1 O 0.9250(7) 0.47526(13) 0.51992(12)
H1 H 0.908(14) 0.453(3) 0.464(3)
O2 O 0.8169(6) 0.34582(12) 0.56746(12)
C1 C 0.8229(8) 0.42299(17) 0.57714(16)
C2 C 0.7107(8) 0.46402(16) 0.65767(15)
C3 C 0.6873(8) 0.55073(18) 0.66204(15)
H2 H 0.7394 0.5838 0.6151
C4 C 0.5844(8) 0.58794(17) 0.73777(17)
O3 O 0.5580(8) 0.67367(12) 0.74343(14)
H3 H 0.6118 0.6950 0.6980
C5 C 0.5082(8) 0.53999(18) 0.80705(16)
H4 H 0.4423 0.5655 0.8575
C6 C 0.5298(8) 0.45271(17) 0.80164(16)
O4 O 0.4475(8) 0.40256(14) 0.86915(12)
H5 H 0.3879 0.4321 0.9091
C7 C 0.6320(8) 0.41372(17) 0.72718(15)
H6 H 0.6475 0.3553 0.7238
O9 O 0.7968(7) 0.14348(13) 0.53355(13)
H12 H 0.8484 0.1152 0.5867
H13 H 0.8620 0.1134 0.4999
O10 O 0.3479(13) 0.26529(16) 0.40127(16)
H14 H 0.4726 0.2868 0.4447
H15 H 0.2439 0.3138 0.3932
O11 O 0.3604(11) 0.1879(2) 0.70006(17)
H16 H 0.2850 0.1409 0.7065
H17 H 0.2921 0.2099 0.7463
Na1_2 Na 1.3120(3) 0.24293(7) 0.55489(7)
O2_2 O -0.1831(6) 0.34582(12) 0.56746(12)
O9_2 O -0.2032(7) 0.14348(13) 0.53355(13)
O5 O 1.0092(7) 0.41821(14) 0.37506(12)
O6 O 1.1215(8) 0.54539(15) 0.32489(14)
C8 C 1.0542(9) 0.47006(18) 0.31472(17)
C9 C 1.0219(8) 0.43457(16) 0.22528(15)
C10 C 0.8992(8) 0.35278(17) 0.21259(15)
H7 H 0.8385 0.3197 0.2588
C11 C 0.8676(9) 0.32058(17) 0.13008(16)
O7 O 0.7438(7) 0.24032(14) 0.11646(12)
H8 H 0.7002 0.2186 0.1624
C12 C 0.9625(9) 0.36906(18) 0.06098(16)
H9 H 0.9439 0.3471 0.0058
C13 C 1.0856(8) 0.45086(17) 0.07528(17)
O8 O 1.1753(7) 0.49568(14) 0.00423(12)
H10 H 1.2455 0.5429 0.0187
C14 C 1.1146(8) 0.48450(17) 0.15654(16)
H11 H 1.1948 0.5396 0.1653
O12 O 0.7035(16) 0.1627(2) -0.03755(19)
H18 H 0.6989 0.1874 0.0100
H19 H 0.6029 0.1930 -0.0746
O13 O 0.185(2) 0.2376(3) 0.8570(3)
H20 H 0.1790 0.2989 0.8601
H21 H 0.0300 0.2142 0.8905
loop_
_geom_bond_atom_site_label_1
_geom_bond_atom_site_label_2
_geom_bond_site_symmetry_1
_geom_bond_site_symmetry_2
Na1 O2 1_555 1_555
O1 H1 1_555 1_555
O2 C1 1_555 1_555
C1 O1 1_555 1_555
C2 C1 1_555 1_555
C3 C2 1_555 1_555
H2 C3 1_555 1_555
C4 C3 1_555 1_555
O3 C4 1_555 1_555
H3 O3 1_555 1_555
C5 C4 1_555 1_555
H4 C5 1_555 1_555
C6 C5 1_555 1_555
O4 C6 1_555 1_555
H5 O4 1_555 1_555
C7 C2 1_555 1_555
H6 C7 1_555 1_555
O5 C8 1_555 1_555
O6 C8 1_555 1_555
C8 C9 1_555 1_555
C9 C10 1_555 1_555
C10 H7 1_555 1_555
C11 C10 1_555 1_555
O7 C11 1_555 1_555
H8 O7 1_555 1_555
C12 C11 1_555 1_555
H9 C12 1_555 1_555
C13 C12 1_555 1_555
O8 C13 1_555 1_555
H10 O8 1_555 1_555
C14 C9 1_555 1_555
H11 C14 1_555 1_555
O9 Na1 1_555 1_555
H12 O9 1_555 1_555
H13 O9 1_555 1_555
O10 Na1 1_555 1_555
H14 O10 1_555 1_555
H15 O10 1_555 1_555
O11 Na1 1_555 1_555
H16 O11 1_555 1_555
H17 O11 1_555 1_555
O12 H18 1_555 1_555
H19 O12 1_555 1_555
O13 H20 1_555 1_555
H21 O13 1_555 1_555
Na1_2 O2 1_555 1_555
O2_2 Na1 1_555 1_555
O9_2 Na1 1_555 1_555
C6 C7 1_555 1_555
C13 C14 1_555 1_555
O9 Na1_2 1_555 1_555

#END
