
#######################################################################
#
#                 Cambridge Crystallographic Data Centre
#                                CCDC 
#
#######################################################################
#
# If this CIF has been generated from an entry in the Cambridge 
# Structural Database, then it will include bibliographic, chemical, 
# crystal, experimental, refinement or atomic coordinate data resulting 
# from the CCDC's data processing and validation procedures.
#
#######################################################################

data_COLMEX
_symmetry_cell_setting           monoclinic
_symmetry_space_group_name_H-M   'P 21/c'
_symmetry_Int_Tables_number      14
_space_group_name_Hall           '-P 2ybc'
loop_
_symmetry_equiv_pos_site_id
_symmetry_equiv_pos_as_xyz
1 x,y,z
2 -x,1/2+y,1/2-z
3 -x,-y,-z
4 x,1/2-y,1/2+z
_cell_length_a                   14.9131(2)
_cell_length_b                   17.6978(3)
_cell_length_c                   11.61820(10)
_cell_angle_alpha                90
_cell_angle_beta                 99.0690(10)
_cell_angle_gamma                90
_cell_volume                     3028.05
loop_
_atom_site_label
_atom_site_type_symbol
_atom_site_fract_x
_atom_site_fract_y
_atom_site_fract_z
Zn1 Zn 0.5000 0.0000 0.0000
Zn2 Zn 0.0000 0.5000 0.5000
F1 F 0.75571(11) 0.10969(9) 0.33482(13)
F2 F 0.76708(10) 0.13323(9) 0.15768(13)
F3 F 0.66474(10) 0.18654(7) 0.23801(13)
F4 F 0.26615(9) 0.65535(8) 0.61933(12)
F5 F 0.21666(10) 0.68448(8) 0.77655(11)
F6 F 0.14457(10) 0.72080(7) 0.61199(13)
O1 O 0.51386(9) -0.06796(7) 0.15177(10)
O2 O 0.61612(9) 0.05776(7) 0.07800(11)
O3 O 0.02508(9) 0.45443(7) 0.66883(10)
O4 O 0.10595(9) 0.57438(7) 0.54782(10)
N1 N 0.41740(10) 0.07440(8) 0.08055(12)
N2 N 0.09176(10) 0.41874(9) 0.44592(12)
C1 C 0.45184(14) -0.13850(12) 0.33538(17)
H1 H 0.4208 -0.1462 0.2584
C2 C 0.42351(16) -0.17720(13) 0.42754(18)
H2 H 0.3733 -0.2108 0.4134
C3 C 0.46877(15) -0.16660(13) 0.54011(17)
H3 H 0.4496 -0.1929 0.6033
C4 C 0.54161(16) -0.11785(13) 0.55997(17)
H4 H 0.5729 -0.1109 0.6370
C5 C 0.56944(14) -0.07900(12) 0.46856(17)
H5 H 0.6195 -0.0452 0.4834
C6 C 0.52467(13) -0.08891(11) 0.35435(16)
C7 C 0.55033(13) -0.04707(11) 0.25184(15)
C8 C 0.61282(13) 0.01410(11) 0.27286(17)
H6 H 0.6376 0.0250 0.3515
C9 C 0.64001(13) 0.05870(11) 0.18729(16)
C10 C 0.70808(14) 0.12192(12) 0.22887(17)
C11 C 0.43212(13) 0.14935(10) 0.08147(15)
H7 H 0.4837 0.1679 0.0516
C12 C 0.37566(13) 0.20055(11) 0.12381(15)
H8 H 0.3885 0.2531 0.1231
C13 C 0.29913(12) 0.17430(11) 0.16791(14)
C14 C 0.28512(13) 0.09675(11) 0.16826(15)
H9 H 0.2347 0.0765 0.1986
C15 C 0.34491(13) 0.04924(11) 0.12427(15)
H10 H 0.3342 -0.0037 0.1250
C16 C 0.23667(13) 0.22850(12) 0.21469(16)
H11 H 0.1776 0.2034 0.2170
H12 H 0.2257 0.2725 0.1617
C17 C 0.27607(13) 0.25618(11) 0.33769(15)
H13 H 0.2838 0.2128 0.3922
H14 H 0.3365 0.2791 0.3368
C18 C 0.21367(12) 0.31353(11) 0.37869(14)
C19 C 0.22797(12) 0.39041(11) 0.36932(14)
H15 H 0.2800 0.4084 0.3400
C20 C 0.16608(12) 0.44103(11) 0.40286(14)
H16 H 0.1766 0.4936 0.3951
C21 C 0.07815(12) 0.34395(10) 0.45623(15)
H17 H 0.0264 0.3274 0.4876
C22 C 0.13639(13) 0.29033(10) 0.42299(15)
H18 H 0.1239 0.2381 0.4302
C23 C -0.00402(14) 0.40263(11) 0.88751(17)
H19 H -0.0520 0.3950 0.8244
C24 C -0.00777(15) 0.36899(13) 0.99516(18)
H20 H -0.0587 0.3391 1.0059
C25 C 0.06301(16) 0.37929(12) 1.08650(17)
H21 H 0.0600 0.3570 1.1602
C26 C 0.13751(16) 0.42158(13) 1.07112(17)
H22 H 0.1866 0.4271 1.1335
C27 C 0.14127(15) 0.45620(12) 0.96468(17)
H23 H 0.1925 0.4860 0.9547
C28 C 0.06985(13) 0.44729(11) 0.87233(15)
C29 C 0.07060(13) 0.48523(11) 0.75686(15)
C30 C 0.12118(13) 0.55321(11) 0.75378(16)
H24 H 0.1482 0.5744 0.8261
C31 C 0.13385(12) 0.59063(11) 0.65334(16)
C32 C 0.19051(15) 0.66309(12) 0.66688(18)
F4B F -0.26615(9) 0.34465(8) 0.38067(12)
F5B F -0.21666(10) 0.31552(8) 0.22345(11)
F6B F -0.14457(10) 0.27920(7) 0.38801(13)
O3B O -0.02508(9) 0.54557(7) 0.33117(10)
O4B O -0.10595(9) 0.42562(7) 0.45218(10)
N1B N -0.41740(10) 0.92560(8) 0.91945(12)
N2B N -0.09176(10) 0.58126(9) 0.55408(12)
C11B C -0.43212(13) 0.85065(10) 0.91853(15)
H7B H -0.4837 0.8321 0.9484
C12B C -0.37566(13) 0.79945(11) 0.87619(15)
H8B H -0.3885 0.7469 0.8769
C13B C -0.29913(12) 0.82570(11) 0.83209(14)
C14B C -0.28512(13) 0.90325(11) 0.83174(15)
H9B H -0.2347 0.9235 0.8014
C15B C -0.34491(13) 0.95076(11) 0.87573(15)
H10B H -0.3342 1.0037 0.8750
C16B C -0.23667(13) 0.77150(12) 0.78531(16)
H11B H -0.1776 0.7966 0.7830
H12B H -0.2257 0.7275 0.8383
C17B C -0.27607(13) 0.74382(11) 0.66231(15)
H13B H -0.2838 0.7872 0.6078
H14B H -0.3365 0.7209 0.6632
C18B C -0.21367(12) 0.68647(11) 0.62131(14)
C19B C -0.22797(12) 0.60959(11) 0.63068(14)
H15B H -0.2800 0.5916 0.6600
C20B C -0.16608(12) 0.55897(11) 0.59714(14)
H16B H -0.1766 0.5064 0.6049
C21B C -0.07815(12) 0.65605(10) 0.54377(15)
H17B H -0.0264 0.6726 0.5124
C22B C -0.13639(13) 0.70967(10) 0.57701(15)
H18B H -0.1239 0.7619 0.5698
C23B C 0.00402(14) 0.59737(11) 0.11249(17)
H19B H 0.0520 0.6050 0.1756
C24B C 0.00777(15) 0.63101(13) 0.00484(18)
H20B H 0.0587 0.6609 -0.0059
C25B C -0.06301(16) 0.62071(12) -0.08650(17)
H21B H -0.0600 0.6430 -0.1602
C26B C -0.13751(16) 0.57842(13) -0.07112(17)
H22B H -0.1866 0.5729 -0.1335
C27B C -0.14127(15) 0.54380(12) 0.03532(17)
H23B H -0.1925 0.5140 0.0453
C28B C -0.06985(13) 0.55271(11) 0.12767(15)
C29B C -0.07060(13) 0.51477(11) 0.24314(15)
C30B C -0.12118(13) 0.44679(11) 0.24622(16)
H24B H -0.1482 0.4256 0.1739
C31B C -0.13385(12) 0.40937(11) 0.34666(16)
C32B C -0.19051(15) 0.33691(12) 0.33312(18)
F1B F 0.24429(11) -0.10969(9) -0.33482(13)
F2B F 0.23292(10) -0.13323(9) -0.15768(13)
F3B F 0.33526(10) -0.18654(7) -0.23801(13)
O1B O 0.48614(9) 0.06796(7) -0.15177(10)
O2B O 0.38388(9) -0.05776(7) -0.07800(11)
C1B C 0.54816(14) 0.13850(12) -0.33538(17)
H1B H 0.5792 0.1462 -0.2584
C2B C 0.57649(16) 0.17720(13) -0.42754(18)
H2B H 0.6267 0.2108 -0.4134
C3B C 0.53123(15) 0.16660(13) -0.54011(17)
H3B H 0.5504 0.1929 -0.6033
C4B C 0.45839(16) 0.11785(13) -0.55997(17)
H4B H 0.4271 0.1109 -0.6370
C5B C 0.43056(14) 0.07900(12) -0.46856(17)
H5B H 0.3805 0.0452 -0.4834
C6B C 0.47533(13) 0.08891(11) -0.35435(16)
C7B C 0.44967(13) 0.04707(11) -0.25184(15)
C8B C 0.38718(13) -0.01410(11) -0.27286(17)
H6B H 0.3624 -0.0250 -0.3515
C9B C 0.35999(13) -0.05870(11) -0.18729(16)
C10B C 0.29192(14) -0.12192(12) -0.22887(17)
Zn1_2 Zn -0.5000 1.0000 1.0000
N1B_2 N 0.58260(10) -0.07440(8) -0.08055(12)
loop_
_geom_bond_atom_site_label_1
_geom_bond_atom_site_label_2
_geom_bond_site_symmetry_1
_geom_bond_site_symmetry_2
Zn1 O1 1_555 1_555
Zn2 O3 1_555 1_555
F1 C10 1_555 1_555
F2 C10 1_555 1_555
F3 C10 1_555 1_555
F4 C32 1_555 1_555
F5 C32 1_555 1_555
F6 C32 1_555 1_555
O1 C7 1_555 1_555
O2 Zn1 1_555 1_555
O3 C29 1_555 1_555
O4 Zn2 1_555 1_555
N1 Zn1 1_555 1_555
N2 Zn2 1_555 1_555
C1 H1 1_555 1_555
C2 C1 1_555 1_555
H2 C2 1_555 1_555
C3 C2 1_555 1_555
H3 C3 1_555 1_555
C4 C3 1_555 1_555
H4 C4 1_555 1_555
C5 C4 1_555 1_555
H5 C5 1_555 1_555
C6 C1 1_555 1_555
C7 C6 1_555 1_555
C8 C7 1_555 1_555
H6 C8 1_555 1_555
C9 O2 1_555 1_555
C10 C9 1_555 1_555
C11 N1 1_555 1_555
H7 C11 1_555 1_555
C12 C11 1_555 1_555
H8 C12 1_555 1_555
C13 C12 1_555 1_555
C14 C13 1_555 1_555
H9 C14 1_555 1_555
C15 N1 1_555 1_555
H10 C15 1_555 1_555
C16 C13 1_555 1_555
H11 C16 1_555 1_555
H12 C16 1_555 1_555
C17 C16 1_555 1_555
H13 C17 1_555 1_555
H14 C17 1_555 1_555
C18 C17 1_555 1_555
C19 C18 1_555 1_555
H15 C19 1_555 1_555
C20 N2 1_555 1_555
H16 C20 1_555 1_555
C21 N2 1_555 1_555
H17 C21 1_555 1_555
C22 C18 1_555 1_555
H18 C22 1_555 1_555
C23 H19 1_555 1_555
C24 C23 1_555 1_555
H20 C24 1_555 1_555
C25 C24 1_555 1_555
H21 C25 1_555 1_555
C26 C25 1_555 1_555
H22 C26 1_555 1_555
C27 C26 1_555 1_555
H23 C27 1_555 1_555
C28 C23 1_555 1_555
C29 C28 1_555 1_555
C30 C29 1_555 1_555
H24 C30 1_555 1_555
C31 O4 1_555 1_555
C32 C31 1_555 1_555
F4B C32B 1_555 1_555
F5B C32B 1_555 1_555
F6B C32B 1_555 1_555
O3B Zn2 1_555 1_555
O4B Zn2 1_555 1_555
N1B C11B 1_555 1_555
N2B Zn2 1_555 1_555
C11B H7B 1_555 1_555
C12B C11B 1_555 1_555
H8B C12B 1_555 1_555
C13B C12B 1_555 1_555
C14B C13B 1_555 1_555
H9B C14B 1_555 1_555
C15B N1B 1_555 1_555
H10B C15B 1_555 1_555
C16B C13B 1_555 1_555
H11B C16B 1_555 1_555
H12B C16B 1_555 1_555
C17B C16B 1_555 1_555
H13B C17B 1_555 1_555
H14B C17B 1_555 1_555
C18B C17B 1_555 1_555
C19B C18B 1_555 1_555
H15B C19B 1_555 1_555
C20B N2B 1_555 1_555
H16B C20B 1_555 1_555
C21B N2B 1_555 1_555
H17B C21B 1_555 1_555
C22B C18B 1_555 1_555
H18B C22B 1_555 1_555
C23B H19B 1_555 1_555
C24B C23B 1_555 1_555
H20B C24B 1_555 1_555
C25B C24B 1_555 1_555
H21B C25B 1_555 1_555
C26B C25B 1_555 1_555
H22B C26B 1_555 1_555
C27B C26B 1_555 1_555
H23B C27B 1_555 1_555
C28B C23B 1_555 1_555
C29B O3B 1_555 1_555
C30B C29B 1_555 1_555
H24B C30B 1_555 1_555
C31B O4B 1_555 1_555
C32B C31B 1_555 1_555
F1B C10B 1_555 1_555
F2B C10B 1_555 1_555
F3B C10B 1_555 1_555
O1B Zn1 1_555 1_555
O2B Zn1 1_555 1_555
C1B H1B 1_555 1_555
C2B C1B 1_555 1_555
H2B C2B 1_555 1_555
C3B C2B 1_555 1_555
H3B C3B 1_555 1_555
C4B C3B 1_555 1_555
H4B C4B 1_555 1_555
C5B C4B 1_555 1_555
H5B C5B 1_555 1_555
C6B C1B 1_555 1_555
C7B O1B 1_555 1_555
C8B C7B 1_555 1_555
H6B C8B 1_555 1_555
C9B O2B 1_555 1_555
C10B C9B 1_555 1_555
Zn1_2 N1B 1_555 1_555
N1B_2 Zn1 1_555 1_555
C5 C6 1_555 1_555
C8 C9 1_555 1_555
C14 C15 1_555 1_555
C19 C20 1_555 1_555
C21 C22 1_555 1_555
C27 C28 1_555 1_555
C30 C31 1_555 1_555
C14B C15B 1_555 1_555
C19B C20B 1_555 1_555
C21B C22B 1_555 1_555
C27B C28B 1_555 1_555
C28B C29B 1_555 1_555
C30B C31B 1_555 1_555
C5B C6B 1_555 1_555
C6B C7B 1_555 1_555
C8B C9B 1_555 1_555

#END
