
#######################################################################
#
#                 Cambridge Crystallographic Data Centre
#                                CCDC 
#
#######################################################################
#
# If this CIF has been generated from an entry in the Cambridge 
# Structural Database, then it will include bibliographic, chemical, 
# crystal, experimental, refinement or atomic coordinate data resulting 
# from the CCDC's data processing and validation procedures.
#
#######################################################################

data_COLQUR
_symmetry_cell_setting           triclinic
_symmetry_space_group_name_H-M   'P -1'
_symmetry_Int_Tables_number      2
_space_group_name_Hall           '-P 1'
loop_
_symmetry_equiv_pos_site_id
_symmetry_equiv_pos_as_xyz
1 x,y,z
2 -x,-y,-z
_cell_length_a                   8.7523(7)
_cell_length_b                   10.0617(8)
_cell_length_c                   14.9084(12)
_cell_angle_alpha                74.5590(10)
_cell_angle_beta                 89.2950(10)
_cell_angle_gamma                72.4410(10)
_cell_volume                     1203.22
loop_
_atom_site_label
_atom_site_type_symbol
_atom_site_fract_x
_atom_site_fract_y
_atom_site_fract_z
Cd1 Cd 0.5000 0.0000 1.0000
Cd2 Cd 0.13609(2) 0.55486(2) 0.900559(15)
Cl1 Cl -0.0064(2) 1.27902(12) 0.57035(10)
Cl2 Cl 0.22738(17) 0.36203(14) 1.38275(9)
O1 O 0.5548(3) 0.1667(3) 0.69008(18)
H1 H 0.5149 0.1696 0.7411
O2 O 0.5453(4) 0.3322(3) 0.55765(19)
O3 O 0.3155(2) 0.3301(2) 0.92095(14)
O4 O 0.9617(3) 0.4210(2) 0.94422(16)
O5 O 1.0141(3) 0.2563(3) 0.86415(16)
O6 O 0.4356(3) 0.1667(2) 0.84716(15)
O7 O 0.7432(2) -0.0550(2) 0.92185(16)
O8 O 0.9248(3) 0.0467(3) 0.85980(17)
H2 H 0.9539 0.1167 0.8621
O9 O -0.1151(3) 0.7172(3) 0.85752(19)
N1 N 0.7470(3) 0.3092(3) 1.04584(17)
N2 N 0.2328(3) 0.5498(3) 0.75507(17)
N3 N 0.3395(3) 0.5530(3) 0.61982(18)
N4 N 0.6507(3) 0.1311(3) 1.03385(17)
C1 C 0.5118(4) 0.1524(4) 1.2212(2)
H3 H 0.5594 0.0568 1.2202
C2 C 0.4170(5) 0.1815(4) 1.2930(2)
H4 H 0.4009 0.1064 1.3402
C3 C 0.3471(4) 0.3241(4) 1.2932(2)
C4 C 0.3677(4) 0.4369(4) 1.2238(2)
H5 H 0.3184 0.5323 1.2247
C5 C 0.4626(4) 0.4068(3) 1.1526(2)
H6 H 0.4773 0.4826 1.1054
C6 C 0.5365(3) 0.2644(3) 1.1506(2)
C7 C 0.6432(3) 0.2343(3) 1.0768(2)
C8 C 0.8121(3) 0.0387(3) 0.9145(2)
C9 C -0.0150(6) 1.0114(4) 0.6564(3)
H7 H -0.1051 1.0575 0.6831
C10 C 0.0424(5) 0.8614(4) 0.6789(3)
H8 H -0.0095 0.8067 0.7212
C11 C 0.1754(4) 0.7921(3) 0.6395(2)
C12 C 0.2479(5) 0.8745(4) 0.5747(3)
H9 H 0.3349 0.8287 0.5457
C13 C 0.0617(6) 1.0896(4) 0.5952(3)
C14 C 0.2436(4) 0.6336(3) 0.6713(2)
C15 C 0.3938(4) 0.4118(3) 0.6743(2)
C16 C 0.3264(3) 0.4113(3) 0.7579(2)
C17 C 0.3589(3) 0.2949(3) 0.8486(2)
C18 C 0.5033(5) 0.3002(4) 0.6355(2)
C19 C 0.1930(6) 1.0245(4) 0.5521(3)
H10 H 0.2431 1.0800 0.5091
C20 C 0.7658(3) 0.1408(3) 0.9717(2)
C21 C 0.8244(3) 0.2507(3) 0.9786(2)
C22 C 0.9425(4) 0.3121(3) 0.9253(2)
H11 H -0.154(6) 0.786(6) 0.879(4)
H12 H -0.169(5) 0.677(5) 0.862(3)
Cd2A Cd 0.86391(2) -0.55486(2) 1.099441(15)
Cl1A Cl 1.0064(2) -1.27902(12) 1.42965(10)
Cl2A Cl 0.77262(17) -0.36203(14) 0.61725(9)
O1A O 0.4452(3) -0.1667(3) 1.30992(18)
H1A H 0.4851 -0.1696 1.2589
O2A O 0.4547(4) -0.3322(3) 1.44235(19)
O3A O 0.6845(2) -0.3301(2) 1.07905(14)
O4A O 0.0383(3) -0.4210(2) 1.05578(16)
O5A O -0.0141(3) -0.2563(3) 1.13585(16)
O6A O 0.5644(3) -0.1667(2) 1.15284(15)
O7A O 0.2568(2) 0.0550(2) 1.07815(16)
O8A O 0.0752(3) -0.0467(3) 1.14020(17)
H2A H 0.0461 -0.1167 1.1379
O9A O 1.1151(3) -0.7172(3) 1.14248(19)
N1A N 0.2530(3) -0.3092(3) 0.95416(17)
N2A N 0.7672(3) -0.5498(3) 1.24493(17)
N3A N 0.6605(3) -0.5530(3) 1.38018(18)
N4A N 0.3493(3) -0.1311(3) 0.96615(17)
C1A C 0.4882(4) -0.1524(4) 0.7788(2)
H3A H 0.4406 -0.0568 0.7798
C2A C 0.5830(5) -0.1815(4) 0.7070(2)
H4A H 0.5991 -0.1064 0.6598
C3A C 0.6529(4) -0.3241(4) 0.7068(2)
C4A C 0.6323(4) -0.4369(4) 0.7762(2)
H5A H 0.6816 -0.5323 0.7753
C5A C 0.5374(4) -0.4068(3) 0.8474(2)
H6A H 0.5227 -0.4826 0.8946
C6A C 0.4635(3) -0.2644(3) 0.8494(2)
C7A C 0.3568(3) -0.2343(3) 0.9232(2)
C8A C 0.1879(3) -0.0387(3) 1.0855(2)
C9A C 1.0150(6) -1.0114(4) 1.3436(3)
H7A H 1.1051 -1.0575 1.3169
C10A C 0.9576(5) -0.8614(4) 1.3211(3)
H8A H 1.0095 -0.8067 1.2788
C11A C 0.8246(4) -0.7921(3) 1.3605(2)
C12A C 0.7521(5) -0.8745(4) 1.4253(3)
H9A H 0.6651 -0.8287 1.4543
C13A C 0.9383(6) -1.0896(4) 1.4048(3)
C14A C 0.7564(4) -0.6336(3) 1.3287(2)
C15A C 0.6062(4) -0.4118(3) 1.3257(2)
C16A C 0.6736(3) -0.4113(3) 1.2421(2)
C17A C 0.6411(3) -0.2949(3) 1.1514(2)
C18A C 0.4967(5) -0.3002(4) 1.3645(2)
C19A C 0.8070(6) -1.0245(4) 1.4479(3)
H10A H 0.7569 -1.0800 1.4909
C20A C 0.2342(3) -0.1408(3) 1.0283(2)
C21A C 0.1756(3) -0.2507(3) 1.0214(2)
C22A C 0.0575(4) -0.3121(3) 1.0747(2)
H11A H 1.154(6) -0.786(6) 1.121(4)
H12A H 1.169(5) -0.677(5) 1.138(3)
Cd2_2 Cd 0.13609(2) -0.44514(2) 0.900559(15)
Cd2_3 Cd 1.13609(2) 0.55486(2) 0.900559(15)
Cd2A_2 Cd -0.13609(2) -0.55486(2) 1.099441(15)
Cd2A_3 Cd 0.86391(2) 0.44514(2) 1.099441(15)
O4_2 O -0.0383(3) 0.4210(2) 0.94422(16)
O4_3 O 0.9617(3) -0.5790(2) 0.94422(16)
O4A_2 O 0.0383(3) 0.5790(2) 1.05578(16)
O4A_3 O 1.0383(3) -0.4210(2) 1.05578(16)
N1_2 N 0.7470(3) -0.6908(3) 1.04584(17)
N1A_2 N 0.2530(3) 0.6908(3) 0.95416(17)
loop_
_geom_bond_atom_site_label_1
_geom_bond_atom_site_label_2
_geom_bond_site_symmetry_1
_geom_bond_site_symmetry_2
Cd1 O6 1_555 1_555
Cd2 O3 1_555 1_555
Cl1 C13 1_555 1_555
Cl2 C3 1_555 1_555
O1 H1 1_555 1_555
O2 C18 1_555 1_555
O3 C17 1_555 1_555
O4 C22 1_555 1_555
O5 C22 1_555 1_555
O6 C17 1_555 1_555
O7 Cd1 1_555 1_555
O8 H2 1_555 1_555
O9 Cd2 1_555 1_555
N1 C7 1_555 1_555
N2 Cd2 1_555 1_555
N3 C14 1_555 1_555
N4 Cd1 1_555 1_555
C1 H3 1_555 1_555
C2 C1 1_555 1_555
H4 C2 1_555 1_555
C3 C2 1_555 1_555
C4 C3 1_555 1_555
H5 C4 1_555 1_555
C5 C4 1_555 1_555
H6 C5 1_555 1_555
C6 C1 1_555 1_555
C7 N4 1_555 1_555
C8 O7 1_555 1_555
C9 H7 1_555 1_555
C10 C9 1_555 1_555
H8 C10 1_555 1_555
C11 C10 1_555 1_555
C12 C11 1_555 1_555
H9 C12 1_555 1_555
C13 C9 1_555 1_555
C14 N2 1_555 1_555
C15 N3 1_555 1_555
C16 N2 1_555 1_555
C17 C16 1_555 1_555
C18 O1 1_555 1_555
C19 C12 1_555 1_555
H10 C19 1_555 1_555
C20 N4 1_555 1_555
C21 N1 1_555 1_555
C22 C21 1_555 1_555
H11 O9 1_555 1_555
H12 O9 1_555 1_555
Cd2A O3A 1_555 1_555
Cl1A C13A 1_555 1_555
Cl2A C3A 1_555 1_555
O1A H1A 1_555 1_555
O2A C18A 1_555 1_555
O3A C17A 1_555 1_555
O4A C22A 1_555 1_555
O5A C22A 1_555 1_555
O6A Cd1 1_555 1_555
O7A Cd1 1_555 1_555
O8A H2A 1_555 1_555
O9A Cd2A 1_555 1_555
N1A C7A 1_555 1_555
N2A Cd2A 1_555 1_555
N3A C14A 1_555 1_555
N4A Cd1 1_555 1_555
C1A H3A 1_555 1_555
C2A C1A 1_555 1_555
H4A C2A 1_555 1_555
C3A C2A 1_555 1_555
C4A C3A 1_555 1_555
H5A C4A 1_555 1_555
C5A C4A 1_555 1_555
H6A C5A 1_555 1_555
C6A C1A 1_555 1_555
C7A N4A 1_555 1_555
C8A O7A 1_555 1_555
C9A H7A 1_555 1_555
C10A C9A 1_555 1_555
H8A C10A 1_555 1_555
C11A C10A 1_555 1_555
C12A C11A 1_555 1_555
H9A C12A 1_555 1_555
C13A C9A 1_555 1_555
C14A N2A 1_555 1_555
C15A N3A 1_555 1_555
C16A N2A 1_555 1_555
C17A O6A 1_555 1_555
C18A O1A 1_555 1_555
C19A C12A 1_555 1_555
H10A C19A 1_555 1_555
C20A N4A 1_555 1_555
C21A N1A 1_555 1_555
C22A C21A 1_555 1_555
H11A O9A 1_555 1_555
H12A O9A 1_555 1_555
Cd2_2 O4A 1_555 1_555
Cd2_3 O4 1_555 1_555
Cd2A_2 O4A 1_555 1_555
Cd2A_3 O4 1_555 1_555
O4_2 Cd2 1_555 1_555
O4_3 Cd2A 1_555 1_555
O4A_2 Cd2 1_555 1_555
O4A_3 Cd2A 1_555 1_555
N1_2 Cd2A 1_555 1_555
N1A_2 Cd2 1_555 1_555
O8 C8 1_555 1_555
N1 Cd2A_3 1_555 1_555
C5 C6 1_555 1_555
C6 C7 1_555 1_555
C8 C20 1_555 1_555
C11 C14 1_555 1_555
C13 C19 1_555 1_555
C15 C16 1_555 1_555
C15 C18 1_555 1_555
C20 C21 1_555 1_555
O8A C8A 1_555 1_555
N1A Cd2_2 1_555 1_555
C5A C6A 1_555 1_555
C6A C7A 1_555 1_555
C8A C20A 1_555 1_555
C11A C14A 1_555 1_555
C13A C19A 1_555 1_555
C15A C16A 1_555 1_555
C15A C18A 1_555 1_555
C16A C17A 1_555 1_555
C20A C21A 1_555 1_555

#END
