
#######################################################################
#
#                 Cambridge Crystallographic Data Centre
#                                CCDC 
#
#######################################################################
#
# If this CIF has been generated from an entry in the Cambridge 
# Structural Database, then it will include bibliographic, chemical, 
# crystal, experimental, refinement or atomic coordinate data resulting 
# from the CCDC's data processing and validation procedures.
#
#######################################################################

data_COLREC
_symmetry_cell_setting           monoclinic
_symmetry_space_group_name_H-M   'P 21/c'
_symmetry_Int_Tables_number      14
_space_group_name_Hall           '-P 2ybc'
loop_
_symmetry_equiv_pos_site_id
_symmetry_equiv_pos_as_xyz
1 x,y,z
2 -x,1/2+y,1/2-z
3 -x,-y,-z
4 x,1/2-y,1/2+z
_cell_length_a                   14.588(3)
_cell_length_b                   6.6614(14)
_cell_length_c                   12.687(3)
_cell_angle_alpha                90
_cell_angle_beta                 104.571(4)
_cell_angle_gamma                90
_cell_volume                     1193.22
loop_
_atom_site_label
_atom_site_type_symbol
_atom_site_fract_x
_atom_site_fract_y
_atom_site_fract_z
Sr1 Sr 0.52644(4) 0.06446(7) 0.17691(4)
Cl1 Cl 0.02985(14) 0.8632(3) 0.65747(17)
O1 O 0.4745(3) -0.0678(5) 0.3575(4)
O2 O 0.4040(3) 0.2143(6) 0.2844(3)
C1 C 0.3465(5) 0.0611(8) 0.4232(6)
N1 N 0.2740(4) 0.0324(7) 0.5598(4)
N2 N 0.2906(4) 0.2289(7) 0.4247(4)
C2 C 0.2494(4) 0.2075(9) 0.5091(5)
C3 C 0.4128(5) 0.0662(8) 0.3501(5)
C4 C 0.3341(5) -0.0570(8) 0.5060(5)
C5 C 0.1901(5) 0.3633(9) 0.5409(5)
C6 C 0.1279(5) 0.5171(11) 0.6810(6)
H1 H 0.1198 0.5166 0.7514
C7 C 0.1783(5) 0.3624(10) 0.6462(5)
H2 H 0.2038 0.2588 0.6937
C8 C 0.1002(5) 0.6718(10) 0.5055(6)
H3 H 0.0744 0.7759 0.4585
C9 C 0.0905(5) 0.6699(10) 0.6102(6)
C10 C 0.1486(5) 0.5177(10) 0.4704(6)
H4 H 0.1537 0.5167 0.3987
O3 O 0.7198(3) 0.0715(6) 0.2231(4)
H5 H 0.7417 0.0545 0.2886
O4 O 0.3871(3) -0.2860(6) 0.6507(3)
O5 O 0.4179(3) -0.3685(6) 0.4945(3)
C11 C 0.3824(4) -0.2524(8) 0.5525(5)
Sr1A Sr 0.47356(4) -0.43554(7) 0.32309(4)
Sr1A_2 Sr 0.47356(4) 0.56446(7) 0.32309(4)
Sr1B Sr 0.47356(4) -0.06446(7) 0.82309(4)
Sr1C Sr 0.52644(4) -0.56446(7) 0.67691(4)
O1A O 0.5255(3) 0.4322(5) 0.1425(4)
O2A O 0.5960(3) -0.2857(6) 0.2156(3)
O4B O 0.6129(3) 0.2860(6) 0.3493(3)
O4C O 0.3871(3) -0.2140(6) 0.1507(3)
O5A O 0.5821(3) 0.1315(6) 0.0055(3)
O5C O 0.4179(3) -0.1315(6) -0.0055(3)
loop_
_geom_bond_atom_site_label_1
_geom_bond_atom_site_label_2
_geom_bond_site_symmetry_1
_geom_bond_site_symmetry_2
Sr1 O1 1_555 1_555
Cl1 C9 1_555 1_555
O1 C3 1_555 1_555
O2 Sr1 1_555 1_555
C1 N2 1_555 1_555
N1 C2 1_555 1_555
N2 C2 1_555 1_555
C2 C5 1_555 1_555
C3 O2 1_555 1_555
C4 C1 1_555 1_555
C5 C7 1_555 1_555
C6 H1 1_555 1_555
C7 C6 1_555 1_555
H2 C7 1_555 1_555
C8 H3 1_555 1_555
C9 C6 1_555 1_555
C10 C5 1_555 1_555
H4 C10 1_555 1_555
O3 Sr1 1_555 1_555
H5 O3 1_555 1_555
O4 C11 1_555 1_555
O5 C11 1_555 1_555
C11 C4 1_555 1_555
Sr1A O1 1_555 1_555
Sr1A_2 O2 1_555 1_555
Sr1B O4 1_555 1_555
Sr1C O4 1_555 1_555
O1A Sr1 1_555 1_555
O2A Sr1 1_555 1_555
O4B Sr1 1_555 1_555
O4C Sr1 1_555 1_555
O5A Sr1 1_555 1_555
O5C Sr1 1_555 1_555
C1 C3 1_555 1_555
N1 C4 1_555 1_555
C8 C9 1_555 1_555
C8 C10 1_555 1_555
O5 Sr1A 1_555 1_555
O5 Sr1C 1_555 1_555
Sr1A O2A 1_555 1_555
Sr1A O4C 1_555 1_555
Sr1A_2 O1A 1_555 1_555
Sr1A_2 O4B 1_555 1_555

#END
