
#######################################################################
#
#                 Cambridge Crystallographic Data Centre
#                                CCDC 
#
#######################################################################
#
# If this CIF has been generated from an entry in the Cambridge 
# Structural Database, then it will include bibliographic, chemical, 
# crystal, experimental, refinement or atomic coordinate data resulting 
# from the CCDC's data processing and validation procedures.
#
#######################################################################

data_COLRUR
_symmetry_cell_setting           tetragonal
_symmetry_space_group_name_H-M   'P 42/n'
_symmetry_Int_Tables_number      86
_space_group_name_Hall           '-P 4bc'
loop_
_symmetry_equiv_pos_site_id
_symmetry_equiv_pos_as_xyz
1 x,y,z
2 -y,1/2+x,1/2+z
3 1/2+y,-x,1/2+z
4 1/2-x,1/2-y,z
5 -x,-y,-z
6 y,1/2-x,1/2-z
7 1/2-y,x,1/2-z
8 1/2+x,1/2+y,-z
_cell_length_a                   11.8496(8)
_cell_length_b                   11.8496(8)
_cell_length_c                   13.1334(19)
_cell_angle_alpha                90
_cell_angle_beta                 90
_cell_angle_gamma                90
_cell_volume                     1844.1
loop_
_atom_site_label
_atom_site_type_symbol
_atom_site_fract_x
_atom_site_fract_y
_atom_site_fract_z
C1 C 0.5846(5) 0.8933(5) 0.9363(4)
H1 H 0.6130 0.9553 0.9743
C2 C 0.5120(5) 0.9148(5) 0.8542(4)
H2 H 0.4899 0.9898 0.8381
C3 C 0.4731(5) 0.8240(5) 0.7968(4)
C4 C 0.5057(5) 0.7175(5) 0.8260(4)
H3 H 0.4795 0.6539 0.7889
C5 C 0.5758(5) 0.7018(5) 0.9083(4)
H4 H 0.5967 0.6272 0.9269
C6 C 0.3986(5) 0.8442(5) 0.7079(4)
H5 H 0.3700 0.9178 0.6952
C7 C 0.2999(5) 0.7889(5) 0.5622(4)
H6 H 0.3427 0.7796 0.4981
H7 H 0.2738 0.8681 0.5664
Hg1 Hg 0.7500 0.7500 1.09887(2)
I1 I 0.68756(3) 0.54371(3) 1.15334(3)
N1 N 0.6154(4) 0.7885(4) 0.9632(3)
N2 N 0.3731(4) 0.7637(4) 0.6489(3)
C1C C -0.0846(5) 0.6067(5) 0.9363(4)
H1C H -0.1130 0.5447 0.9743
C2C C -0.0120(5) 0.5852(5) 0.8542(4)
H2C H 0.0101 0.5102 0.8381
C3C C 0.0269(5) 0.6760(5) 0.7968(4)
C4C C -0.0057(5) 0.7825(5) 0.8260(4)
H3C H 0.0205 0.8461 0.7889
C5C C -0.0758(5) 0.7982(5) 0.9083(4)
H4C H -0.0967 0.8728 0.9269
C6C C 0.1014(5) 0.6558(5) 0.7079(4)
H5C H 0.1300 0.5822 0.6952
C7C C 0.2001(5) 0.7111(5) 0.5622(4)
H6C H 0.1573 0.7204 0.4981
H7C H 0.2262 0.6319 0.5664
Hg1_2 Hg -0.2500 0.7500 1.09887(2)
I1C I 0.81244(3) 0.95629(3) 1.15334(3)
N1C N -0.1154(4) 0.7115(4) 0.9632(3)
N1C_2 N 0.8846(4) 0.7115(4) 0.9632(3)
N2C N 0.1269(4) 0.7363(4) 0.6489(3)
loop_
_geom_bond_atom_site_label_1
_geom_bond_atom_site_label_2
_geom_bond_site_symmetry_1
_geom_bond_site_symmetry_2
C1 H1 1_555 1_555
C2 C1 1_555 1_555
H2 C2 1_555 1_555
C3 C2 1_555 1_555
C4 C3 1_555 1_555
H3 C4 1_555 1_555
C5 C4 1_555 1_555
H4 C5 1_555 1_555
C6 C3 1_555 1_555
H5 C6 1_555 1_555
C7 H6 1_555 1_555
H7 C7 1_555 1_555
Hg1 I1 1_555 1_555
N1 C1 1_555 1_555
N2 C6 1_555 1_555
C1C H1C 1_555 1_555
C2C C1C 1_555 1_555
H2C C2C 1_555 1_555
C3C C2C 1_555 1_555
C4C C3C 1_555 1_555
H3C C4C 1_555 1_555
C5C C4C 1_555 1_555
H4C C5C 1_555 1_555
C6C C3C 1_555 1_555
H5C C6C 1_555 1_555
C7C C7 1_555 1_555
H6C C7C 1_555 1_555
H7C C7C 1_555 1_555
Hg1_2 N1C 1_555 1_555
I1C Hg1 1_555 1_555
N1C C1C 1_555 1_555
N1C_2 Hg1 1_555 1_555
N2C C6C 1_555 1_555
C5 N1 1_555 1_555
C7 N2 1_555 1_555
Hg1 N1 1_555 1_555
C5C N1C 1_555 1_555
C7C N2C 1_555 1_555

#END
