
#######################################################################
#
#                 Cambridge Crystallographic Data Centre
#                                CCDC 
#
#######################################################################
#
# If this CIF has been generated from an entry in the Cambridge 
# Structural Database, then it will include bibliographic, chemical, 
# crystal, experimental, refinement or atomic coordinate data resulting 
# from the CCDC's data processing and validation procedures.
#
#######################################################################

data_COLSAY
_symmetry_cell_setting           tetragonal
_symmetry_space_group_name_H-M   'P 42/n'
_symmetry_Int_Tables_number      86
_space_group_name_Hall           '-P 4bc'
loop_
_symmetry_equiv_pos_site_id
_symmetry_equiv_pos_as_xyz
1 x,y,z
2 -y,1/2+x,1/2+z
3 1/2+y,-x,1/2+z
4 1/2-x,1/2-y,z
5 -x,-y,-z
6 y,1/2-x,1/2-z
7 1/2-y,x,1/2-z
8 1/2+x,1/2+y,-z
_cell_length_a                   11.4966(12)
_cell_length_b                   11.4966(12)
_cell_length_c                   12.990(3)
_cell_angle_alpha                90
_cell_angle_beta                 90
_cell_angle_gamma                90
_cell_volume                     1716.91
loop_
_atom_site_label
_atom_site_type_symbol
_atom_site_fract_x
_atom_site_fract_y
_atom_site_fract_z
Br1 Br 0.04840(3) 0.30793(3) 1.15789(3)
C1 C 0.3957(3) 0.4117(3) 0.9400(3)
H1 H 0.4597 0.3796 0.9766
C2 C 0.4180(4) 0.4828(4) 0.8563(3)
H2 H 0.4958 0.5005 0.8371
C3 C 0.3255(3) 0.5276(3) 0.8011(3)
C4 C 0.2136(3) 0.5011(3) 0.8339(3)
H3 H 0.1481 0.5312 0.7981
C5 C 0.1984(4) 0.4310(4) 0.9186(3)
H4 H 0.1215 0.4134 0.9406
C6 C 0.3460(4) 0.6012(3) 0.7086(3)
H5 H 0.4215 0.6313 0.6955
C7 C 0.2908(4) 0.6976(3) 0.5590(3)
H6 H 0.2809 0.6528 0.4945
H7 H 0.3726 0.7243 0.5629
Hg1 Hg 0.2500 0.2500 1.109184(15)
N1 N 0.2887(3) 0.3866(3) 0.9715(2)
N2 N 0.2642(3) 0.6238(3) 0.6474(2)
Br1C Br 0.45160(3) 0.19207(3) 1.15789(3)
C1C C 0.1043(3) 1.0883(3) 0.9400(3)
H1C H 0.0403 1.1204 0.9766
C2C C 0.0820(4) 1.0172(4) 0.8563(3)
H2C H 0.0042 0.9995 0.8371
C3C C 0.1745(3) 0.9724(3) 0.8011(3)
C4C C 0.2864(3) 0.9989(3) 0.8339(3)
H3C H 0.3519 0.9688 0.7981
C5C C 0.3016(4) 1.0690(4) 0.9186(3)
H4C H 0.3785 1.0866 0.9406
C6C C 0.1540(4) 0.8988(3) 0.7086(3)
H5C H 0.0785 0.8687 0.6955
C7C C 0.2092(4) 0.8024(3) 0.5590(3)
H6C H 0.2191 0.8472 0.4945
H7C H 0.1274 0.7757 0.5629
Hg1_2 Hg 0.2500 1.2500 1.109184(15)
N1C N 0.2113(3) 1.1134(3) 0.9715(2)
N1C_2 N 0.2113(3) 0.1134(3) 0.9715(2)
N2C N 0.2358(3) 0.8762(3) 0.6474(2)
loop_
_geom_bond_atom_site_label_1
_geom_bond_atom_site_label_2
_geom_bond_site_symmetry_1
_geom_bond_site_symmetry_2
Br1 Hg1 1_555 1_555
C1 H1 1_555 1_555
C2 C1 1_555 1_555
H2 C2 1_555 1_555
C3 C2 1_555 1_555
C4 C3 1_555 1_555
H3 C4 1_555 1_555
C5 C4 1_555 1_555
H4 C5 1_555 1_555
C6 C3 1_555 1_555
H5 C6 1_555 1_555
C7 H6 1_555 1_555
H7 C7 1_555 1_555
Hg1 N1 1_555 1_555
N1 C1 1_555 1_555
N2 C6 1_555 1_555
Br1C Hg1 1_555 1_555
C1C H1C 1_555 1_555
C2C C1C 1_555 1_555
H2C C2C 1_555 1_555
C3C C2C 1_555 1_555
C4C C3C 1_555 1_555
H3C C4C 1_555 1_555
C5C C4C 1_555 1_555
H4C C5C 1_555 1_555
C6C C3C 1_555 1_555
H5C C6C 1_555 1_555
C7C C7 1_555 1_555
H6C C7C 1_555 1_555
H7C C7C 1_555 1_555
Hg1_2 N1C 1_555 1_555
N1C C1C 1_555 1_555
N1C_2 Hg1 1_555 1_555
N2C C6C 1_555 1_555
C5 N1 1_555 1_555
C7 N2 1_555 1_555
C5C N1C 1_555 1_555
C7C N2C 1_555 1_555

#END
