
#######################################################################
#
#                 Cambridge Crystallographic Data Centre
#                                CCDC 
#
#######################################################################
#
# If this CIF has been generated from an entry in the Cambridge 
# Structural Database, then it will include bibliographic, chemical, 
# crystal, experimental, refinement or atomic coordinate data resulting 
# from the CCDC's data processing and validation procedures.
#
#######################################################################

data_COLVEE
_symmetry_cell_setting           orthorhombic
_symmetry_space_group_name_H-M   'P b c n'
_symmetry_Int_Tables_number      60
_space_group_name_Hall           '-P 2n 2ab'
loop_
_symmetry_equiv_pos_site_id
_symmetry_equiv_pos_as_xyz
1 x,y,z
2 1/2-x,1/2-y,1/2+z
3 1/2+x,1/2-y,-z
4 -x,y,1/2-z
5 -x,-y,-z
6 1/2+x,1/2+y,1/2-z
7 1/2-x,1/2+y,z
8 x,-y,1/2+z
_cell_length_a                   13.382(2)
_cell_length_b                   19.925(4)
_cell_length_c                   6.901(1)
_cell_angle_alpha                90
_cell_angle_beta                 90
_cell_angle_gamma                90
_cell_volume                     1840.06
loop_
_atom_site_label
_atom_site_type_symbol
_atom_site_fract_x
_atom_site_fract_y
_atom_site_fract_z
Cu1 Cu 0.0(1) 0.0298(1) 0.2500(1)
Cl1 Cl 0.1069(2) -0.0433(1) 0.1140(3)
N1 N 0.0800(5) 0.1079(4) 0.1587(8)
O1 O 0.1693(4) 0.1035(3) 0.0638(7)
C1 C 0.0475(5) 0.1683(5) 0.1933(9)
C2 C 0.0957(6) 0.2306(4) 0.1255(12)
C3 C 0.1238(7) 0.2796(5) 0.2542(14)
C4 C 0.1703(8) 0.3353(6) 0.1834(17)
C5 C 0.1842(8) 0.3461(6) -0.0116(20)
C6 C 0.1548(8) 0.2979(7) -0.1339(15)
C7 C 0.1115(7) 0.2383(5) -0.0708(13)
H1 H 0.110 0.271 0.402
H2 H 0.198 0.374 0.274
H3 H 0.213 0.397 -0.073
H4 H 0.168 0.299 -0.287
H5 H 0.088 0.198 -0.164
H6 H 0.190 0.056 0.055
Cl1D Cl -0.1069(2) 0.0433(1) -0.1140(3)
Cl1C Cl -0.1069(2) -0.0433(1) 0.3860(3)
Cl1G Cl 0.1069(2) 0.0433(1) 0.6140(3)
N1C N -0.0800(5) 0.1079(4) 0.3413(8)
Cu1D Cu 0.0(1) -0.0298(1) -0.2500(1)
C1C C -0.0475(5) 0.1683(5) 0.3067(9)
Cu1D_2 Cu 0.0(1) -0.0298(1) 0.7500(1)
O1C O -0.1693(4) 0.1035(3) 0.4362(7)
Cl1C_2 Cl -0.1069(2) -0.0433(1) -0.6140(3)
Cl1G_2 Cl 0.1069(2) 0.0433(1) -0.3860(3)
N1D N -0.0800(5) -0.1079(4) -0.1587(8)
N1G N 0.0800(5) -0.1079(4) -0.3413(8)
C2C C -0.0957(6) 0.2306(4) 0.3745(12)
H6C H -0.190 0.056 0.445
O1D O -0.1693(4) -0.1035(3) -0.0638(7)
C1D C -0.0475(5) -0.1683(5) -0.1933(9)
O1G O 0.1693(4) -0.1035(3) -0.4362(7)
C1G C 0.0475(5) -0.1683(5) -0.3067(9)
C3C C -0.1238(7) 0.2796(5) 0.2458(14)
C7C C -0.1115(7) 0.2383(5) 0.5708(13)
H6D H -0.190 -0.056 -0.055
C2D C -0.0957(6) -0.2306(4) -0.1255(12)
H6G H 0.190 -0.056 -0.445
C2G C 0.0957(6) -0.2306(4) -0.3745(12)
C4C C -0.1703(8) 0.3353(6) 0.3166(17)
H1C H -0.110 0.271 0.098
C6C C -0.1548(8) 0.2979(7) 0.6339(15)
H5C H -0.088 0.198 0.664
C3D C -0.1238(7) -0.2796(5) -0.2542(14)
C7D C -0.1115(7) -0.2383(5) 0.0708(13)
C3G C 0.1238(7) -0.2796(5) -0.2458(14)
C7G C 0.1115(7) -0.2383(5) -0.5708(13)
C5C C -0.1842(8) 0.3461(6) 0.5116(20)
H2C H -0.198 0.374 0.226
H4C H -0.168 0.299 0.787
C4D C -0.1703(8) -0.3353(6) -0.1834(17)
H1D H -0.110 -0.271 -0.402
C6D C -0.1548(8) -0.2979(7) 0.1339(15)
H5D H -0.088 -0.198 0.164
C4G C 0.1703(8) -0.3353(6) -0.3166(17)
H1G H 0.110 -0.271 -0.098
C6G C 0.1548(8) -0.2979(7) -0.6339(15)
H5G H 0.088 -0.198 -0.664
H3C H -0.213 0.397 0.573
C5D C -0.1842(8) -0.3461(6) 0.0116(20)
H2D H -0.198 -0.374 -0.274
H4D H -0.168 -0.299 0.287
C5G C 0.1842(8) -0.3461(6) -0.5116(20)
H2G H 0.198 -0.374 -0.226
H4G H 0.168 -0.299 -0.787
H3D H -0.213 -0.397 0.073
H3G H 0.213 -0.397 -0.573
loop_
_geom_bond_atom_site_label_1
_geom_bond_atom_site_label_2
_geom_bond_site_symmetry_1
_geom_bond_site_symmetry_2
Cu1 Cl1 1_555 1_555
Cl1 Cu1D 1_555 1_555
N1 Cu1 1_555 1_555
O1 N1 1_555 1_555
C1 N1 1_555 1_555
C2 C1 1_555 1_555
C3 C2 1_555 1_555
C4 C3 1_555 1_555
C5 C4 1_555 1_555
C6 C5 1_555 1_555
C7 C2 1_555 1_555
H1 C3 1_555 1_555
H2 C4 1_555 1_555
H3 C5 1_555 1_555
H4 C6 1_555 1_555
H5 C7 1_555 1_555
H6 O1 1_555 1_555
Cl1D Cu1 1_555 1_555
Cl1C Cu1 1_555 1_555
Cl1G Cu1 1_555 1_555
N1C Cu1 1_555 1_555
Cu1D Cl1D 1_555 1_555
C1C C1 1_555 1_555
Cu1D_2 Cl1C 1_555 1_555
O1C N1C 1_555 1_555
Cl1C_2 Cu1D 1_555 1_555
Cl1G_2 Cu1D 1_555 1_555
N1D Cu1D 1_555 1_555
N1G Cu1D 1_555 1_555
C2C C1C 1_555 1_555
H6C O1C 1_555 1_555
O1D N1D 1_555 1_555
C1D N1D 1_555 1_555
O1G N1G 1_555 1_555
C1G N1G 1_555 1_555
C3C C2C 1_555 1_555
C7C C2C 1_555 1_555
H6D O1D 1_555 1_555
C2D C1D 1_555 1_555
H6G O1G 1_555 1_555
C2G C1G 1_555 1_555
C4C C3C 1_555 1_555
H1C C3C 1_555 1_555
C6C C7C 1_555 1_555
H5C C7C 1_555 1_555
C3D C2D 1_555 1_555
C7D C2D 1_555 1_555
C3G C2G 1_555 1_555
C7G C2G 1_555 1_555
C5C C4C 1_555 1_555
H2C C4C 1_555 1_555
H4C C6C 1_555 1_555
C4D C3D 1_555 1_555
H1D C3D 1_555 1_555
C6D C7D 1_555 1_555
H5D C7D 1_555 1_555
C4G C3G 1_555 1_555
H1G C3G 1_555 1_555
C6G C7G 1_555 1_555
H5G C7G 1_555 1_555
H3C C5C 1_555 1_555
C5D C4D 1_555 1_555
H2D C4D 1_555 1_555
H4D C6D 1_555 1_555
C5G C4G 1_555 1_555
H2G C4G 1_555 1_555
H4G C6G 1_555 1_555
H3D C5D 1_555 1_555
H3G C5G 1_555 1_555
C6 C7 1_555 1_555
Cl1G Cu1D_2 1_555 1_555
N1C C1C 1_555 1_555
C1D C1G 1_555 1_555
C6C C5C 1_555 1_555
C6D C5D 1_555 1_555
C6G C5G 1_555 1_555

#END
