
#######################################################################
#
#                 Cambridge Crystallographic Data Centre
#                                CCDC 
#
#######################################################################
#
# If this CIF has been generated from an entry in the Cambridge 
# Structural Database, then it will include bibliographic, chemical, 
# crystal, experimental, refinement or atomic coordinate data resulting 
# from the CCDC's data processing and validation procedures.
#
#######################################################################

data_COLWUW
_symmetry_cell_setting           orthorhombic
_symmetry_space_group_name_H-M   'P b c n'
_symmetry_Int_Tables_number      60
_space_group_name_Hall           '-P 2n 2ab'
loop_
_symmetry_equiv_pos_site_id
_symmetry_equiv_pos_as_xyz
1 x,y,z
2 1/2-x,1/2-y,1/2+z
3 -x,y,1/2-z
4 1/2+x,1/2-y,-z
5 -x,-y,-z
6 1/2+x,1/2+y,1/2-z
7 x,-y,1/2+z
8 1/2-x,1/2+y,z
_cell_length_a                   8.2003(16)
_cell_length_b                   16.234(3)
_cell_length_c                   13.708(3)
_cell_angle_alpha                90
_cell_angle_beta                 90
_cell_angle_gamma                90
_cell_volume                     1824.86
loop_
_atom_site_label
_atom_site_type_symbol
_atom_site_fract_x
_atom_site_fract_y
_atom_site_fract_z
C1 C 0.1149(2) 0.35544(11) 0.53558(13)
C2 C 0.1113(2) 0.33765(12) 0.43628(14)
C3 C 0.1706(3) 0.39606(12) 0.37198(13)
H1 H 0.1677 0.3849 0.3055
C4 C 0.2345(3) 0.47081(12) 0.40328(13)
C5 C 0.2407(3) 0.48643(11) 0.50282(13)
C6 C 0.0406(3) 0.25909(13) 0.39516(15)
C7 C 0.2938(3) 0.53108(12) 0.32739(14)
C8 C 0.3043(3) 0.56351(13) 0.54895(15)
H2 H 0.2941 0.5595 0.6186
H3 H 0.2427 0.6099 0.5259
H4 H 0.4170 0.5706 0.5320
C9 C 0.0530(3) 0.30107(14) 0.61494(15)
H5 H 0.1078 0.3142 0.6749
H6 H 0.0736 0.2446 0.5984
H7 H -0.0621 0.3094 0.6227
Cu1 Cu 0.0000 0.148168(18) 0.2500
H8 H 0.186(3) 0.4388(17) 0.621(2)
N1 N 0.1800(2) 0.42800(10) 0.56291(12)
O1 O -0.0813(2) 0.22887(11) 0.43090(13)
O2 O 0.1169(2) 0.23282(9) 0.32017(10)
O3 O 0.2050(3) 0.54134(12) 0.25578(11)
O4 O 0.4295(2) 0.56494(9) 0.34300(11)
C1B C -0.1149(2) 0.35544(11) -0.03558(13)
C2B C -0.1113(2) 0.33765(12) 0.06372(14)
C3B C -0.1706(3) 0.39606(12) 0.12802(13)
H1B H -0.1677 0.3849 0.1945
C4B C -0.2345(3) 0.47081(12) 0.09672(13)
C5B C -0.2407(3) 0.48643(11) -0.00282(13)
C6B C -0.0406(3) 0.25909(13) 0.10484(15)
C7B C -0.2938(3) 0.53108(12) 0.17261(14)
C8B C -0.3043(3) 0.56351(13) -0.04895(15)
H2B H -0.2941 0.5595 -0.1186
H3B H -0.2427 0.6099 -0.0259
H4B H -0.4170 0.5706 -0.0320
C9B C -0.0530(3) 0.30107(14) -0.11494(15)
H5B H -0.1078 0.3142 -0.1749
H6B H -0.0736 0.2446 -0.0984
H7B H 0.0621 0.3094 -0.1227
Cu1E Cu 0.5000 0.648168(18) 0.2500
Cu1E_2 Cu -0.5000 0.648168(18) 0.2500
H8B H -0.186(3) 0.4388(17) -0.121(2)
N1B N -0.1800(2) 0.42800(10) -0.06291(12)
O1B O 0.0813(2) 0.22887(11) 0.06910(13)
O2B O -0.1169(2) 0.23282(9) 0.17983(10)
O3B O -0.2050(3) 0.54134(12) 0.24422(11)
O4B O -0.4295(2) 0.56494(9) 0.15700(11)
O4E O -0.0705(2) 0.06494(9) 0.15700(11)
O4G O 0.0705(2) 0.06494(9) 0.34300(11)
loop_
_geom_bond_atom_site_label_1
_geom_bond_atom_site_label_2
_geom_bond_site_symmetry_1
_geom_bond_site_symmetry_2
C1 C2 1_555 1_555
C2 C3 1_555 1_555
C3 H1 1_555 1_555
C4 C3 1_555 1_555
C5 C4 1_555 1_555
C6 C2 1_555 1_555
C7 C4 1_555 1_555
C8 C5 1_555 1_555
H2 C8 1_555 1_555
H3 C8 1_555 1_555
H4 C8 1_555 1_555
C9 C1 1_555 1_555
H5 C9 1_555 1_555
H6 C9 1_555 1_555
H7 C9 1_555 1_555
Cu1 O2 1_555 1_555
H8 N1 1_555 1_555
N1 C1 1_555 1_555
O1 C6 1_555 1_555
O2 C6 1_555 1_555
O3 C7 1_555 1_555
O4 C7 1_555 1_555
C1B C2B 1_555 1_555
C2B C3B 1_555 1_555
C3B H1B 1_555 1_555
C4B C3B 1_555 1_555
C5B C4B 1_555 1_555
C6B C2B 1_555 1_555
C7B C4B 1_555 1_555
C8B C5B 1_555 1_555
H2B C8B 1_555 1_555
H3B C8B 1_555 1_555
H4B C8B 1_555 1_555
C9B C1B 1_555 1_555
H5B C9B 1_555 1_555
H6B C9B 1_555 1_555
H7B C9B 1_555 1_555
Cu1E O4 1_555 1_555
Cu1E_2 O4B 1_555 1_555
H8B N1B 1_555 1_555
N1B C1B 1_555 1_555
O1B C6B 1_555 1_555
O2B Cu1 1_555 1_555
O3B C7B 1_555 1_555
O4B C7B 1_555 1_555
O4E Cu1 1_555 1_555
O4G Cu1 1_555 1_555
C5 N1 1_555 1_555
C5B N1B 1_555 1_555
C6B O2B 1_555 1_555

#END
