
#######################################################################
#
#                 Cambridge Crystallographic Data Centre
#                                CCDC 
#
#######################################################################
#
# If this CIF has been generated from an entry in the Cambridge 
# Structural Database, then it will include bibliographic, chemical, 
# crystal, experimental, refinement or atomic coordinate data resulting 
# from the CCDC's data processing and validation procedures.
#
#######################################################################

data_COLWUW01
_symmetry_cell_setting           orthorhombic
_symmetry_space_group_name_H-M   'P b c n'
_symmetry_Int_Tables_number      60
_space_group_name_Hall           '-P 2n 2ab'
loop_
_symmetry_equiv_pos_site_id
_symmetry_equiv_pos_as_xyz
1 x,y,z
2 1/2-x,1/2-y,1/2+z
3 -x,y,1/2-z
4 1/2+x,1/2-y,-z
5 -x,-y,-z
6 1/2+x,1/2+y,1/2-z
7 x,-y,1/2+z
8 1/2-x,1/2+y,z
_cell_length_a                   8.2051(5)
_cell_length_b                   16.2579(8)
_cell_length_c                   13.7181(6)
_cell_angle_alpha                90
_cell_angle_beta                 90
_cell_angle_gamma                90
_cell_volume                     1829.96
loop_
_atom_site_label
_atom_site_type_symbol
_atom_site_fract_x
_atom_site_fract_y
_atom_site_fract_z
Cu1 Cu 0.0000 0.351635(19) 0.2500
O1 O 0.1166(2) 0.26681(9) 0.17987(11)
O2 O -0.0813(2) 0.27075(11) 0.06936(14)
O3 O 0.4289(2) -0.06519(10) 0.15728(11)
O4 O 0.2057(3) -0.04135(12) 0.24457(11)
N1 N 0.1802(2) 0.07190(10) -0.06241(11)
H1 H 0.1840 0.0619 -0.1239
C1 C 0.0404(3) 0.24094(13) 0.10522(16)
C2 C 0.1110(3) 0.16179(12) 0.06405(14)
C3 C 0.1145(3) 0.14408(12) -0.03537(14)
C4 C 0.0532(3) 0.19871(15) -0.11450(16)
H2 H 0.1123 0.1878 -0.1735
H3 H 0.0684 0.2551 -0.0960
H4 H -0.0607 0.1884 -0.1250
C5 C 0.2411(3) 0.01341(12) -0.00262(13)
C6 C 0.3048(3) -0.06381(13) -0.04856(15)
H5 H 0.2776 -0.0642 -0.1166
H6 H 0.2565 -0.1107 -0.0173
H7 H 0.4211 -0.0660 -0.0412
C7 C 0.2348(3) 0.02915(13) 0.09699(14)
C8 C 0.2941(3) -0.03135(13) 0.17288(14)
C9 C 0.1704(3) 0.10376(13) 0.12810(14)
H8 H 0.1674 0.1149 0.1946
Cu1E Cu -0.5000 -0.148365(19) 0.2500
Cu1E_2 Cu 0.5000 -0.148365(19) 0.2500
O1B O -0.1166(2) 0.26681(9) 0.32013(11)
O2B O 0.0813(2) 0.27075(11) 0.43064(14)
O3B O -0.4289(2) -0.06519(10) 0.34272(11)
O3E O -0.0711(2) 0.43481(10) 0.34272(11)
O3G O 0.0711(2) 0.43481(10) 0.15728(11)
O4B O -0.2057(3) -0.04135(12) 0.25543(11)
N1B N -0.1802(2) 0.07190(10) 0.56241(11)
H1B H -0.1840 0.0619 0.6239
C1B C -0.0404(3) 0.24094(13) 0.39478(16)
C2B C -0.1110(3) 0.16179(12) 0.43595(14)
C3B C -0.1145(3) 0.14408(12) 0.53537(14)
C4B C -0.0532(3) 0.19871(15) 0.61450(16)
H2B H -0.1123 0.1878 0.6735
H3B H -0.0684 0.2551 0.5960
H4B H 0.0607 0.1884 0.6250
C5B C -0.2411(3) 0.01341(12) 0.50262(13)
C6B C -0.3048(3) -0.06381(13) 0.54856(15)
H5B H -0.2776 -0.0642 0.6166
H6B H -0.2565 -0.1107 0.5173
H7B H -0.4211 -0.0660 0.5412
C7B C -0.2348(3) 0.02915(13) 0.40301(14)
C8B C -0.2941(3) -0.03135(13) 0.32712(14)
C9B C -0.1704(3) 0.10376(13) 0.37190(14)
H8B H -0.1674 0.1149 0.3054
loop_
_geom_bond_atom_site_label_1
_geom_bond_atom_site_label_2
_geom_bond_site_symmetry_1
_geom_bond_site_symmetry_2
Cu1 O1 1_555 1_555
O1 C1 1_555 1_555
O2 C1 1_555 1_555
O3 C8 1_555 1_555
O4 C8 1_555 1_555
N1 H1 1_555 1_555
C1 C2 1_555 1_555
C2 C3 1_555 1_555
C3 N1 1_555 1_555
C4 C3 1_555 1_555
H2 C4 1_555 1_555
H3 C4 1_555 1_555
H4 C4 1_555 1_555
C5 N1 1_555 1_555
C6 C5 1_555 1_555
H5 C6 1_555 1_555
H6 C6 1_555 1_555
H7 C6 1_555 1_555
C7 C5 1_555 1_555
C8 C7 1_555 1_555
C9 C2 1_555 1_555
H8 C9 1_555 1_555
Cu1E O3B 1_555 1_555
Cu1E_2 O3 1_555 1_555
O1B Cu1 1_555 1_555
O2B C1B 1_555 1_555
O3B C8B 1_555 1_555
O3E Cu1 1_555 1_555
O3G Cu1 1_555 1_555
O4B C8B 1_555 1_555
N1B H1B 1_555 1_555
C1B O1B 1_555 1_555
C2B C1B 1_555 1_555
C3B N1B 1_555 1_555
C4B C3B 1_555 1_555
H2B C4B 1_555 1_555
H3B C4B 1_555 1_555
H4B C4B 1_555 1_555
C5B N1B 1_555 1_555
C6B C5B 1_555 1_555
H5B C6B 1_555 1_555
H6B C6B 1_555 1_555
H7B C6B 1_555 1_555
C7B C5B 1_555 1_555
C8B C7B 1_555 1_555
C9B C2B 1_555 1_555
H8B C9B 1_555 1_555
C7 C9 1_555 1_555
C2B C3B 1_555 1_555
C7B C9B 1_555 1_555

#END
