
#######################################################################
#
#                 Cambridge Crystallographic Data Centre
#                                CCDC 
#
#######################################################################
#
# If this CIF has been generated from an entry in the Cambridge 
# Structural Database, then it will include bibliographic, chemical, 
# crystal, experimental, refinement or atomic coordinate data resulting 
# from the CCDC's data processing and validation procedures.
#
#######################################################################

data_COLXAC
_symmetry_cell_setting           monoclinic
_symmetry_space_group_name_H-M   'A 2/a'
_symmetry_Int_Tables_number      15
_space_group_name_Hall           '-A 2yn'
loop_
_symmetry_equiv_pos_site_id
_symmetry_equiv_pos_as_xyz
1 x,y,z
2 x,1/2+y,1/2+z
3 1/2-x,y,-z
4 1/2-x,1/2+y,1/2-z
5 -x,-y,-z
6 -x,1/2-y,1/2-z
7 1/2+x,-y,z
8 1/2+x,1/2-y,1/2+z
_cell_length_a                   7.332(6)
_cell_length_b                   6.645(6)
_cell_length_c                   32.69(4)
_cell_angle_alpha                90
_cell_angle_beta                 94.32(9)
_cell_angle_gamma                90
_cell_volume                     1588.17
loop_
_atom_site_label
_atom_site_type_symbol
_atom_site_fract_x
_atom_site_fract_y
_atom_site_fract_z
Mn1 Mn 0.0000 0.2500 0.2500
O1 O 0.2316(9) 0.1646(11) 0.2170(2)
O2 O 0.3052(10) -0.1574(10) 0.2011(2)
O3 O 0.0196(22) 0.1637(25) 0.0254(3)
O4 O 0.0009(9) -0.0407(11) 0.2832(2)
C1 C 0.2401(12) 0.0199(14) 0.1904(3)
C2 C 0.1800(14) 0.0563(14) 0.1478(3)
C3 C 0.1417(18) 0.2534(17) 0.1339(3)
C4 C 0.0861(21) 0.2901(14) 0.0932(4)
C5 C 0.0752(24) 0.1290(23) 0.0653(4)
C6 C 0.1032(23) -0.0715(24) 0.0798(3)
C7 C 0.1622(18) -0.1058(21) 0.1199(3)
H1 H 0.1540 0.3700 0.1540
H2 H 0.0720 0.4380 0.0820
H3 H 0.0910 -0.1940 0.0600
H4 H 0.1720 -0.2550 0.1320
H5 H 0.0970 -0.1470 0.2830
H6 H -0.0910 -0.0820 0.2610
O1E O -0.2316(9) 0.3354(11) 0.2830(2)
O2E O -0.3052(10) 0.6574(10) 0.2989(2)
O3E O -0.0196(22) 0.3363(25) 0.4746(3)
C1E C -0.2401(12) 0.4801(14) 0.3096(3)
C2E C -0.1800(14) 0.4437(14) 0.3522(3)
C3E C -0.1417(18) 0.2466(17) 0.3661(3)
C4E C -0.0861(21) 0.2099(14) 0.4068(4)
C5E C -0.0752(24) 0.3710(23) 0.4347(4)
C6E C -0.1032(23) 0.5715(24) 0.4202(3)
C7E C -0.1622(18) 0.6058(21) 0.3801(3)
H1E H -0.1540 0.1300 0.3460
H2E H -0.0720 0.0620 0.4180
H3E H -0.0910 0.6940 0.4400
H4E H -0.1720 0.7550 0.3680
O4E O -0.0009(9) 0.5407(11) 0.2168(2)
H5E H -0.0970 0.6470 0.2170
H6E H 0.0910 0.5820 0.2390
O2C O 0.1948(10) 0.3426(10) 0.2989(2)
O2F O -0.1948(10) 0.1574(10) 0.2011(2)
Mn1C Mn 0.5000 -0.2500 0.2500
Mn1C_2 Mn -0.5000 0.7500 0.2500
O5 O 0.2500 0.5680(24) 0.0000
loop_
_geom_bond_atom_site_label_1
_geom_bond_atom_site_label_2
_geom_bond_site_symmetry_1
_geom_bond_site_symmetry_2
Mn1 O1 1_555 1_555
O1 C1 1_555 1_555
O2 C1 1_555 1_555
O3 C5 1_555 1_555
O4 Mn1 1_555 1_555
C1 C2 1_555 1_555
C2 C3 1_555 1_555
C3 C4 1_555 1_555
C4 C5 1_555 1_555
C5 C6 1_555 1_555
C6 C7 1_555 1_555
C7 C2 1_555 1_555
H1 C3 1_555 1_555
H2 C4 1_555 1_555
H3 C6 1_555 1_555
H4 C7 1_555 1_555
H5 O4 1_555 1_555
H6 O4 1_555 1_555
O1E Mn1 1_555 1_555
O2E C1E 1_555 1_555
O3E C5E 1_555 1_555
C1E O1E 1_555 1_555
C2E C1E 1_555 1_555
C3E C2E 1_555 1_555
C4E C3E 1_555 1_555
C5E C4E 1_555 1_555
C6E C5E 1_555 1_555
C7E C2E 1_555 1_555
H1E C3E 1_555 1_555
H2E C4E 1_555 1_555
H3E C6E 1_555 1_555
H4E C7E 1_555 1_555
O4E Mn1 1_555 1_555
H5E O4E 1_555 1_555
H6E O4E 1_555 1_555
O2C Mn1 1_555 1_555
O2F Mn1 1_555 1_555
Mn1C O2 1_555 1_555
Mn1C_2 O2E 1_555 1_555
C6E C7E 1_555 1_555

#END
