
#######################################################################
#
#                 Cambridge Crystallographic Data Centre
#                                CCDC 
#
#######################################################################
#
# If this CIF has been generated from an entry in the Cambridge 
# Structural Database, then it will include bibliographic, chemical, 
# crystal, experimental, refinement or atomic coordinate data resulting 
# from the CCDC's data processing and validation procedures.
#
#######################################################################

data_COLYAE
_symmetry_cell_setting           triclinic
_symmetry_space_group_name_H-M   'P -1'
_symmetry_Int_Tables_number      2
_space_group_name_Hall           '-P 1'
loop_
_symmetry_equiv_pos_site_id
_symmetry_equiv_pos_as_xyz
1 x,y,z
2 -x,-y,-z
_cell_length_a                   9.0485(2)
_cell_length_b                   9.7321(2)
_cell_length_c                   10.6676(3)
_cell_angle_alpha                71.518(2)
_cell_angle_beta                 77.444(2)
_cell_angle_gamma                80.732(2)
_cell_volume                     865.322
loop_
_atom_site_label
_atom_site_type_symbol
_atom_site_fract_x
_atom_site_fract_y
_atom_site_fract_z
Cd1 Cd 0.16960(2) 0.06238(2) 0.54427(2)
Cl1 Cl 0.05869(9) 0.10606(10) 0.33628(8)
O1 O -0.0129(2) 0.2707(2) 0.5970(2)
N1 N 0.2771(3) -0.0247(3) 0.9681(2)
H1 H 0.2767 -0.0267 0.8882
C1 C 0.6806(5) -0.4746(4) 1.2474(5)
H2 H 0.6777 -0.4648 1.3347
H3 H 0.7825 -0.4685 1.1977
H4 H 0.6482 -0.5672 1.2569
S1 S 0.35777(10) 0.27344(10) 0.41266(12)
O2 O 0.1735(2) 0.0798(2) 0.7460(2)
C2 C 0.5752(4) -0.3537(4) 1.1732(4)
N2 N 0.6403(3) 0.1180(3) 0.4414(3)
C3 C 0.4944(4) -0.2504(4) 1.2320(4)
H5 H 0.5066 -0.2555 1.3178
C4 C 0.3960(4) -0.1396(4) 1.1679(3)
H6 H 0.3428 -0.0712 1.2097
C5 C 0.3782(3) -0.1326(3) 1.0407(3)
C6 C 0.4605(4) -0.2321(4) 0.9780(4)
H7 H 0.4510 -0.2254 0.8911
C7 C 0.5572(4) -0.3416(4) 1.0452(4)
H8 H 0.6116 -0.4091 1.0029
C8 C 0.1852(3) 0.0767(3) 1.0080(3)
H9 H 0.1835 0.0824 1.0937
C9 C 0.0880(3) 0.1784(3) 0.9282(3)
C10 C -0.0067(4) 0.2857(4) 0.9810(3)
H10 H -0.0047 0.2876 1.0673
C11 C -0.0998(4) 0.3851(4) 0.9058(4)
H11 H -0.1604 0.4560 0.9404
C12 C -0.1062(3) 0.3829(3) 0.7766(3)
H12 H -0.1718 0.4514 0.7267
C13 C -0.0171(3) 0.2811(3) 0.7232(3)
C14 C 0.0858(3) 0.1752(3) 0.7971(3)
C15 C -0.1276(4) 0.3549(4) 0.5233(3)
H13 H -0.1801 0.4271 0.5654
H14 H -0.1987 0.2921 0.5221
H15 H -0.0812 0.4019 0.4330
C16 C 0.5223(4) 0.1803(3) 0.4304(3)
Cd1A Cd -0.16960(2) -0.06238(2) 0.45573(2)
Cd1A_2 Cd 0.83040(2) -0.06238(2) 0.45573(2)
Cl1A Cl -0.05869(9) -0.10606(10) 0.66372(8)
N2A N 0.3597(3) -0.1180(3) 0.5586(3)
loop_
_geom_bond_atom_site_label_1
_geom_bond_atom_site_label_2
_geom_bond_site_symmetry_1
_geom_bond_site_symmetry_2
Cd1 Cl1 1_555 1_555
Cl1 Cd1A 1_555 1_555
O1 Cd1 1_555 1_555
N1 H1 1_555 1_555
C1 H2 1_555 1_555
H3 C1 1_555 1_555
H4 C1 1_555 1_555
S1 Cd1 1_555 1_555
O2 Cd1 1_555 1_555
C2 C1 1_555 1_555
N2 C16 1_555 1_555
C3 C2 1_555 1_555
H5 C3 1_555 1_555
C4 C3 1_555 1_555
H6 C4 1_555 1_555
C5 N1 1_555 1_555
C6 C5 1_555 1_555
H7 C6 1_555 1_555
C7 C2 1_555 1_555
H8 C7 1_555 1_555
C8 N1 1_555 1_555
H9 C8 1_555 1_555
C9 C8 1_555 1_555
C10 C9 1_555 1_555
H10 C10 1_555 1_555
C11 C10 1_555 1_555
H11 C11 1_555 1_555
C12 C11 1_555 1_555
H12 C12 1_555 1_555
C13 O1 1_555 1_555
C14 O2 1_555 1_555
C15 O1 1_555 1_555
H13 C15 1_555 1_555
H14 C15 1_555 1_555
H15 C15 1_555 1_555
C16 S1 1_555 1_555
Cd1A Cl1A 1_555 1_555
Cd1A_2 N2 1_555 1_555
Cl1A Cd1 1_555 1_555
N2A Cd1 1_555 1_555
C4 C5 1_555 1_555
C6 C7 1_555 1_555
C9 C14 1_555 1_555
C12 C13 1_555 1_555
C13 C14 1_555 1_555

#END
