
#######################################################################
#
#                 Cambridge Crystallographic Data Centre
#                                CCDC 
#
#######################################################################
#
# If this CIF has been generated from an entry in the Cambridge 
# Structural Database, then it will include bibliographic, chemical, 
# crystal, experimental, refinement or atomic coordinate data resulting 
# from the CCDC's data processing and validation procedures.
#
#######################################################################

data_COLYUY
_symmetry_cell_setting           monoclinic
_symmetry_space_group_name_H-M   'P 21/c'
_symmetry_Int_Tables_number      14
_space_group_name_Hall           '-P 2ybc'
loop_
_symmetry_equiv_pos_site_id
_symmetry_equiv_pos_as_xyz
1 x,y,z
2 -x,1/2+y,1/2-z
3 -x,-y,-z
4 x,1/2-y,1/2+z
_cell_length_a                   3.7765(7)
_cell_length_b                   25.935(5)
_cell_length_c                   12.339(2)
_cell_angle_alpha                90
_cell_angle_beta                 94.462(3)
_cell_angle_gamma                90
_cell_volume                     1204.86
loop_
_atom_site_label
_atom_site_type_symbol
_atom_site_fract_x
_atom_site_fract_y
_atom_site_fract_z
Cu1 Cu 0.30817(14) 0.633401(18) 0.12987(4)
Cu2 Cu 0.90754(14) 0.576020(18) 0.27566(4)
Cl1 Cl 0.4078(2) 0.62217(3) 0.33820(6)
Cl2 Cl -0.2276(2) 0.58732(3) 0.07265(7)
N1 N 0.1879(8) 0.70719(11) 0.0999(2)
C1 C 0.2012(9) 0.79762(13) 0.1460(3)
N2 N 0.1356(8) 0.99919(11) 0.2175(2)
C2 C 0.2454(9) 0.89246(12) 0.2191(3)
C3 C 0.1332(10) 0.91779(14) 0.3097(3)
H1 H 0.0973 0.8995 0.3728
C4 C 0.2845(9) 0.74576(13) 0.1677(3)
H2 H 0.4139 0.7378 0.2327
O1 O 0.4939(9) 0.82138(10) 0.3137(2)
C5 C 0.2995(9) 0.92152(14) 0.1272(3)
H3 H 0.3696 0.9058 0.0646
C6 C -0.0002(10) 0.71977(14) 0.0055(3)
H4 H -0.0729 0.6934 -0.0423
C7 C -0.0885(10) 0.76977(14) -0.0230(3)
H5 H -0.2124 0.7768 -0.0895
C8 C 0.0094(9) 0.80956(13) 0.0486(3)
H6 H -0.0523 0.8435 0.0316
C9 C 0.2469(9) 0.97448(13) 0.1308(3)
H7 H 0.2911 0.9939 0.0699
C10 C 0.0756(10) 0.97045(14) 0.3052(3)
H8 H -0.0083 0.9867 0.3653
C11 C 0.3264(10) 0.83580(13) 0.2312(3)
Cu1_2 Cu -0.69183(14) 0.633401(18) 0.12987(4)
Cu2_2 Cu -0.09246(14) 0.576020(18) 0.27566(4)
Cu2A Cu 0.09246(14) 1.076020(18) 0.22434(4)
Cl1_2 Cl 1.4078(2) 0.62217(3) 0.33820(6)
Cl2_2 Cl 0.7724(2) 0.58732(3) 0.07265(7)
N2A N 0.8644(8) 0.49919(11) 0.2825(2)
loop_
_geom_bond_atom_site_label_1
_geom_bond_atom_site_label_2
_geom_bond_site_symmetry_1
_geom_bond_site_symmetry_2
Cu1 Cl1 1_555 1_555
Cu2 Cl1 1_555 1_555
Cl1 Cu2_2 1_555 1_555
Cl2 Cu1 1_555 1_555
N1 Cu1 1_555 1_555
C1 C4 1_555 1_555
N2 C9 1_555 1_555
C2 C3 1_555 1_555
C3 H1 1_555 1_555
C4 N1 1_555 1_555
H2 C4 1_555 1_555
O1 C11 1_555 1_555
C5 C2 1_555 1_555
H3 C5 1_555 1_555
C6 N1 1_555 1_555
H4 C6 1_555 1_555
C7 C6 1_555 1_555
H5 C7 1_555 1_555
C8 C1 1_555 1_555
H6 C8 1_555 1_555
C9 C5 1_555 1_555
H7 C9 1_555 1_555
C10 N2 1_555 1_555
H8 C10 1_555 1_555
C11 C1 1_555 1_555
Cu1_2 Cl2 1_555 1_555
Cu2_2 Cl2 1_555 1_555
Cu2A N2 1_555 1_555
Cl1_2 Cu2 1_555 1_555
Cl2_2 Cu1 1_555 1_555
N2A Cu2 1_555 1_555
Cu2 Cl2_2 1_555 1_555
C2 C11 1_555 1_555
C3 C10 1_555 1_555
C7 C8 1_555 1_555

#END
