
#######################################################################
#
#                 Cambridge Crystallographic Data Centre
#                                CCDC 
#
#######################################################################
#
# If this CIF has been generated from an entry in the Cambridge 
# Structural Database, then it will include bibliographic, chemical, 
# crystal, experimental, refinement or atomic coordinate data resulting 
# from the CCDC's data processing and validation procedures.
#
#######################################################################

data_COMALT02
_symmetry_cell_setting           monoclinic
_symmetry_space_group_name_H-M   'P 21'
_symmetry_Int_Tables_number      4
_space_group_name_Hall           'P 2yb'
loop_
_symmetry_equiv_pos_site_id
_symmetry_equiv_pos_as_xyz
1 x,y,z
2 -x,1/2+y,-z
_cell_length_a                   5.785(3)
_cell_length_b                   9.080(2)
_cell_length_c                   8.442(5)
_cell_angle_alpha                90
_cell_angle_beta                 105.38(3)
_cell_angle_gamma                90
_cell_volume                     427.559
loop_
_atom_site_label
_atom_site_type_symbol
_atom_site_fract_x
_atom_site_fract_y
_atom_site_fract_z
Co1 Co 0.02504(5) 0.56806(3) 0.66849(3)
C1 C 0.4133(4) 0.4153(3) 0.8853(3)
C2 C 0.1917(4) 0.3570(3) 0.9306(3)
H1 H 0.2345 0.3344 1.0483
C3 C 0.0964(5) 0.2184(3) 0.8353(3)
H2 H -0.0315 0.1800 0.8780
H3 H 0.2240 0.1458 0.8583
C4 C 0.0017(4) 0.2317(3) 0.6502(3)
O1 O 0.3794(3) 0.5141(2) 0.7753(2)
O2 O 0.6120(3) 0.3631(3) 0.9532(3)
O3 O 0.0149(3) 0.4731(2) 0.8978(2)
O4 O -0.0337(4) 0.1122(2) 0.5723(2)
O5 O -0.0432(4) 0.3545(2) 0.5810(2)
O6 O -0.3318(3) 0.6298(2) 0.6128(2)
H4 H -0.4122 0.5800 0.6647
H5 H -0.3445 0.7229 0.6037
O7 O 0.1070(3) 0.7852(2) 0.7446(2)
H6 H 0.2241 0.7950 0.8295
H7 H 0.1802 0.8145 0.6754
Co1A Co -0.02504(5) 0.06806(3) 0.33151(3)
O4A O 0.0337(4) 0.6122(2) 0.4277(2)
O8 O -0.4055(4) -0.0757(3) 0.6469(3)
H8 H -0.2893 -0.0276 0.6284
H9 H -0.5032 -0.0262 0.5732
loop_
_geom_bond_atom_site_label_1
_geom_bond_atom_site_label_2
_geom_bond_site_symmetry_1
_geom_bond_site_symmetry_2
Co1 O1 1_555 1_555
C1 C2 1_555 1_555
C2 H1 1_555 1_555
C3 C2 1_555 1_555
H2 C3 1_555 1_555
H3 C3 1_555 1_555
C4 C3 1_555 1_555
O1 C1 1_555 1_555
O2 C1 1_555 1_555
O3 Co1 1_555 1_555
O4 C4 1_555 1_555
O5 Co1 1_555 1_555
O6 Co1 1_555 1_555
H4 O6 1_555 1_555
H5 O6 1_555 1_555
O7 Co1 1_555 1_555
H6 O7 1_555 1_555
H7 O7 1_555 1_555
O8 H8 1_555 1_555
H9 O8 1_555 1_555
Co1A O4 1_555 1_555
O4A Co1 1_555 1_555
C2 O3 1_555 1_555
C4 O5 1_555 1_555

#END
