
#######################################################################
#
#                 Cambridge Crystallographic Data Centre
#                                CCDC 
#
#######################################################################
#
# If this CIF has been generated from an entry in the Cambridge 
# Structural Database, then it will include bibliographic, chemical, 
# crystal, experimental, refinement or atomic coordinate data resulting 
# from the CCDC's data processing and validation procedures.
#
#######################################################################

data_COMALT
_symmetry_cell_setting           monoclinic
_symmetry_space_group_name_H-M   'P 21'
_symmetry_Int_Tables_number      4
_space_group_name_Hall           'P 2yb'
loop_
_symmetry_equiv_pos_site_id
_symmetry_equiv_pos_as_xyz
1 x,y,z
2 -x,1/2+y,-z
_cell_length_a                   8.450(6)
_cell_length_b                   9.062(10)
_cell_length_c                   5.789(2)
_cell_angle_alpha                90
_cell_angle_beta                 105.42(4)
_cell_angle_gamma                90
_cell_volume                     427.329
loop_
_atom_site_label
_atom_site_type_symbol
_atom_site_fract_x
_atom_site_fract_y
_atom_site_fract_z
Co1 Co 0.16850 0.00000 0.02520
C1 C 0.38500 0.15260 0.41420
C2 C 0.43090 0.21030 0.19120
C3 C 0.14960 0.33620 0.00010
C4 C 0.33530 0.34910 0.09640
H1 H 0.37500 0.39260 -0.01510
H2 H 0.11080 -0.13060 -0.35000
H3 H 0.35490 0.42190 0.20460
H4 H 0.18010 -0.01330 -0.44020
H5 H 0.53550 0.22500 0.23780
H6 H 0.32770 -0.22250 0.21930
H7 H 0.41470 0.12810 -0.08880
H8 H 0.17750 -0.25160 0.12700
O1 O 0.27520 0.05440 0.37930
O2 O 0.39790 0.09470 0.01530
O3 O 0.08040 0.21330 -0.04050
O4 O 0.07250 0.45610 -0.03400
O5 O 0.24500 -0.21700 0.10860
O6 O 0.11230 -0.06080 -0.33240
O7 O 0.45320 0.20580 0.61220
O4A O -0.07250 -0.04390 0.03400
Co1A Co -0.16850 0.50000 -0.02520
H9 H 0.14070 0.60590 0.71100
H10 H 0.08980 0.62030 0.51710
O8 O 0.14630 0.64310 0.59690
loop_
_geom_bond_atom_site_label_1
_geom_bond_atom_site_label_2
_geom_bond_site_symmetry_1
_geom_bond_site_symmetry_2
Co1 O1 1_555 1_555
C1 C2 1_555 1_555
C2 C4 1_555 1_555
C3 C4 1_555 1_555
C4 H1 1_555 1_555
H2 O6 1_555 1_555
H3 C4 1_555 1_555
H4 O6 1_555 1_555
H5 C2 1_555 1_555
H6 O5 1_555 1_555
H7 O2 1_555 1_555
H8 O5 1_555 1_555
O1 C1 1_555 1_555
O2 Co1 1_555 1_555
O3 Co1 1_555 1_555
O4 C3 1_555 1_555
O5 Co1 1_555 1_555
O6 Co1 1_555 1_555
O7 C1 1_555 1_555
H9 O8 1_555 1_555
H10 O8 1_555 1_555
O4A Co1 1_555 1_555
Co1A O4 1_555 1_555
C2 O2 1_555 1_555
C3 O3 1_555 1_555

#END
