
#######################################################################
#
#                 Cambridge Crystallographic Data Centre
#                                CCDC 
#
#######################################################################
#
# If this CIF has been generated from an entry in the Cambridge 
# Structural Database, then it will include bibliographic, chemical, 
# crystal, experimental, refinement or atomic coordinate data resulting 
# from the CCDC's data processing and validation procedures.
#
#######################################################################

data_COMBUC
_symmetry_cell_setting           monoclinic
_symmetry_space_group_name_H-M   'C 2/c'
_symmetry_Int_Tables_number      15
_space_group_name_Hall           '-C 2yn'
loop_
_symmetry_equiv_pos_site_id
_symmetry_equiv_pos_as_xyz
1 x,y,z
2 1/2+x,1/2+y,z
3 -x,y,1/2-z
4 1/2-x,1/2+y,1/2-z
5 -x,-y,-z
6 1/2-x,1/2-y,-z
7 x,-y,1/2+z
8 1/2+x,1/2-y,1/2+z
_cell_length_a                   22.3252(17)
_cell_length_b                   13.6939(11)
_cell_length_c                   19.8523(16)
_cell_angle_alpha                90
_cell_angle_beta                 99.9770(10)
_cell_angle_gamma                90
_cell_volume                     5977.44
loop_
_atom_site_label
_atom_site_type_symbol
_atom_site_fract_x
_atom_site_fract_y
_atom_site_fract_z
N1 N 0.11351(13) 0.7332(2) 0.26486(14)
C1 C 0.07801(14) 0.7345(3) 0.29936(15)
C2 C 0.03188(13) 0.7408(2) 0.34166(14)
C3 C 0.00609(14) 0.8314(2) 0.35013(15)
H1 H 0.0184 0.8872 0.3276
C4 C 0.01433(15) 0.6589(3) 0.37354(17)
H2 H 0.0315 0.5969 0.3670
C5 C -0.02886(15) 0.6690(2) 0.41538(18)
H3 H -0.0408 0.6132 0.4382
C6 C -0.03718(14) 0.8398(2) 0.39119(15)
H4 H -0.0551 0.9015 0.3968
C7 C -0.05487(13) 0.7582(2) 0.42456(14)
C8 C -0.09862(14) 0.7666(2) 0.47140(15)
H5 H -0.1040 0.7136 0.5006
N2 N -0.12939(11) 0.8444(2) 0.47316(12)
N3 N -0.16747(11) 0.8446(2) 0.52109(12)
Ag1 Ag 0.182725(12) 0.812121(16) 0.197931(13)
C9 C 0.44862(16) 1.2299(3) -0.09411(17)
H6 H 0.4699 1.1967 -0.1248
C10 C -0.25943(13) 0.83239(18) 0.60608(13)
H7 H -0.2491 0.7730 0.5862
C11 C -0.30815(13) 0.9124(2) 0.68284(14)
H8 H -0.3327 0.9103 0.7174
C12 C 0.24333(13) 1.19804(19) 0.14358(14)
C13 C -0.23891(12) 0.91884(18) 0.58291(12)
C14 C 0.38638(14) 1.3271(2) -0.00520(16)
H9 H 0.3651 1.3608 0.0253
C15 C 0.33364(14) 1.1743(2) 0.01789(15)
H10 H 0.3256 1.1073 0.0076
C16 C 0.20356(12) 1.13009(19) 0.17502(13)
C17 C -0.25413(13) 1.00554(19) 0.61196(14)
H11 H -0.2406 1.0664 0.5971
C18 C -0.28918(14) 1.0021(2) 0.66270(14)
H12 H -0.3001 1.0604 0.6834
C19 C 0.13502(14) 1.0108(2) 0.24051(14)
H13 H 0.1108 0.9695 0.2634
C20 C 0.16615(14) 1.1703(2) 0.21661(15)
H14 H 0.1647 1.2390 0.2226
C21 C 0.20473(13) 1.02969(19) 0.16908(13)
H15 H 0.2304 1.0018 0.1408
C22 C 0.40755(16) 1.1802(2) -0.06192(17)
H16 H 0.4006 1.1126 -0.0708
C23 C 0.45847(15) 1.3286(3) -0.08112(17)
C24 C 0.37610(13) 1.2281(2) -0.01660(14)
C25 C 0.50138(17) 1.3823(3) -0.1134(2)
C26 C 0.13130(14) 1.1097(2) 0.24891(16)
H17 H 0.1048 1.1361 0.2769
C27 C 0.42664(15) 1.3771(2) -0.03712(17)
H18 H 0.4328 1.4450 -0.0291
N4 N 0.26781(11) 1.16107(18) 0.09093(12)
N5 N -0.29342(11) 0.82821(15) 0.65560(11)
N6 N 0.30732(11) 1.21732(18) 0.06194(12)
N7 N 0.17155(11) 0.96955(16) 0.20120(11)
N8 N 0.53463(17) 1.4260(3) -0.1381(2)
O1 O -0.20458(10) 0.99487(15) 0.48948(10)
O2 O 0.25284(10) 1.28063(15) 0.16533(11)
C28 C -0.20221(12) 0.92396(19) 0.52673(13)
H19 H 0.2574(13) 1.1069(16) 0.0696(14)
H20 H -0.1627(14) 0.7980(18) 0.5501(13)
Ag1G Ag -0.317275(12) 0.687879(16) 0.697931(13)
N5G N 0.20658(11) 0.67179(15) 0.15560(11)
P1 P 0.37466(4) 0.89969(6) 0.14663(5)
F1 F 0.38656(13) 0.78661(16) 0.13688(14)
F2 F 0.35972(14) 1.01041(16) 0.15169(18)
F3 F 0.3229(3) 0.8764(3) 0.1891(3)
F4 F 0.4206(3) 0.9026(5) 0.2114(4)
F5 F 0.4237(2) 0.9205(3) 0.1009(4)
F6 F 0.3249(2) 0.8894(4) 0.0790(2)
F7? F 0.3816(8) 0.8806(8) 0.2243(5)
F8? F 0.4440(4) 0.9236(7) 0.1569(9)
F9? F 0.3702(9) 0.9217(9) 0.0687(5)
F10? F 0.3055(4) 0.8774(9) 0.1384(11)
loop_
_geom_bond_atom_site_label_1
_geom_bond_atom_site_label_2
_geom_bond_site_symmetry_1
_geom_bond_site_symmetry_2
N1 C1 1_555 1_555
C1 C2 1_555 1_555
C2 C3 1_555 1_555
C3 H1 1_555 1_555
C4 C2 1_555 1_555
H2 C4 1_555 1_555
C5 C4 1_555 1_555
H3 C5 1_555 1_555
C6 C3 1_555 1_555
H4 C6 1_555 1_555
C7 C5 1_555 1_555
C8 C7 1_555 1_555
H5 C8 1_555 1_555
N2 C8 1_555 1_555
N3 N2 1_555 1_555
Ag1 N1 1_555 1_555
C9 H6 1_555 1_555
C10 H7 1_555 1_555
C11 H8 1_555 1_555
C12 C16 1_555 1_555
C13 C10 1_555 1_555
C14 H9 1_555 1_555
C15 H10 1_555 1_555
C16 C20 1_555 1_555
C17 C13 1_555 1_555
H11 C17 1_555 1_555
C18 C11 1_555 1_555
H12 C18 1_555 1_555
C19 H13 1_555 1_555
C20 H14 1_555 1_555
C21 C16 1_555 1_555
H15 C21 1_555 1_555
C22 C9 1_555 1_555
H16 C22 1_555 1_555
C23 C9 1_555 1_555
C24 C14 1_555 1_555
C25 C23 1_555 1_555
C26 C19 1_555 1_555
H17 C26 1_555 1_555
C27 C14 1_555 1_555
H18 C27 1_555 1_555
N4 C12 1_555 1_555
N5 C10 1_555 1_555
N6 C15 1_555 1_555
N7 Ag1 1_555 1_555
N8 C25 1_555 1_555
O1 C28 1_555 1_555
O2 C12 1_555 1_555
C28 N3 1_555 1_555
H19 N4 1_555 1_555
H20 N3 1_555 1_555
P1 F1 1_555 1_555
F2 P1 1_555 1_555
F3 P1 1_555 1_555
F4 P1 1_555 1_555
F5 P1 1_555 1_555
F6 P1 1_555 1_555
Ag1G N5 1_555 1_555
N5G Ag1 1_555 1_555
C6 C7 1_555 1_555
C11 N5 1_555 1_555
C13 C28 1_555 1_555
C15 C24 1_555 1_555
C17 C18 1_555 1_555
C19 N7 1_555 1_555
C20 C26 1_555 1_555
C21 N7 1_555 1_555
C22 C24 1_555 1_555
C23 C27 1_555 1_555
N4 N6 1_555 1_555

#END
