
#######################################################################
#
#                 Cambridge Crystallographic Data Centre
#                                CCDC 
#
#######################################################################
#
# If this CIF has been generated from an entry in the Cambridge 
# Structural Database, then it will include bibliographic, chemical, 
# crystal, experimental, refinement or atomic coordinate data resulting 
# from the CCDC's data processing and validation procedures.
#
#######################################################################

data_COMDEO
_symmetry_cell_setting           monoclinic
_symmetry_space_group_name_H-M   'P 21/c'
_symmetry_Int_Tables_number      14
_space_group_name_Hall           '-P 2ybc'
loop_
_symmetry_equiv_pos_site_id
_symmetry_equiv_pos_as_xyz
1 x,y,z
2 -x,1/2+y,1/2-z
3 -x,-y,-z
4 x,1/2-y,1/2+z
_cell_length_a                   8.1132(16)
_cell_length_b                   6.1342(12)
_cell_length_c                   15.786(3)
_cell_angle_alpha                90
_cell_angle_beta                 101.19(3)
_cell_angle_gamma                90
_cell_volume                     770.702
loop_
_atom_site_label
_atom_site_type_symbol
_atom_site_fract_x
_atom_site_fract_y
_atom_site_fract_z
Zn1 Zn 0.92049(8) 1.07685(11) 0.77114(4)
N1 N 1.2498(6) 0.9185(8) 0.8332(3)
O1 O 1.0150(5) 1.1907(6) 0.8951(2)
O2 O 1.1588(5) 1.4724(7) 0.8587(3)
O3 O 1.2827(5) 1.0662(8) 1.2022(2)
N2 N 1.2850(5) 1.2254(8) 1.1442(3)
C1 C 1.1977(7) 1.2089(9) 1.0633(3)
H1 H 1.1284 1.0890 1.0474
N3 N 1.1263(6) 0.8822(7) 0.7773(3)
C2 C 1.3859(6) 1.3969(10) 1.1690(3)
H2 H 1.4457 1.4047 1.2255
C3 C 1.4013(7) 1.5579(10) 1.1128(4)
H3 H 1.4724 1.6753 1.1300
C4 C 1.2099(7) 1.3671(9) 1.0042(3)
N4 N 1.3654(6) 0.9564(8) 0.8842(3)
C5 C 1.3094(7) 1.5462(10) 1.0288(4)
H4 H 1.3153 1.6582 0.9897
C6 C 1.1193(7) 1.3436(9) 0.9106(4)
Zn1A Zn 1.07951(8) 1.57685(11) 0.72886(4)
Zn1B Zn 1.07951(8) 0.92315(11) 1.22886(4)
Zn1A_2 Zn 1.07951(8) 0.57685(11) 0.72886(4)
O2A O 0.8412(5) 0.9724(7) 0.6413(3)
O3B O 0.7173(5) 0.9338(8) 0.7978(2)
N3A N 0.8737(6) 1.3822(7) 0.7227(3)
loop_
_geom_bond_atom_site_label_1
_geom_bond_atom_site_label_2
_geom_bond_site_symmetry_1
_geom_bond_site_symmetry_2
Zn1 O1 1_555 1_555
N1 N3 1_555 1_555
O1 C6 1_555 1_555
O2 C6 1_555 1_555
O3 N2 1_555 1_555
N2 C1 1_555 1_555
C1 H1 1_555 1_555
N3 Zn1 1_555 1_555
C2 N2 1_555 1_555
H2 C2 1_555 1_555
C3 C2 1_555 1_555
H3 C3 1_555 1_555
C4 C1 1_555 1_555
N4 N1 1_555 1_555
C5 C3 1_555 1_555
H4 C5 1_555 1_555
C6 C4 1_555 1_555
Zn1A O2 1_555 1_555
Zn1B O3 1_555 1_555
Zn1A_2 N3 1_555 1_555
O2A Zn1 1_555 1_555
O3B Zn1 1_555 1_555
N3A Zn1 1_555 1_555
C4 C5 1_555 1_555
Zn1A N3A 1_555 1_555

#END
