
#######################################################################
#
#                 Cambridge Crystallographic Data Centre
#                                CCDC 
#
#######################################################################
#
# If this CIF has been generated from an entry in the Cambridge 
# Structural Database, then it will include bibliographic, chemical, 
# crystal, experimental, refinement or atomic coordinate data resulting 
# from the CCDC's data processing and validation procedures.
#
#######################################################################

data_COMDOY
_symmetry_cell_setting           orthorhombic
_symmetry_space_group_name_H-M   'I m m a'
_symmetry_Int_Tables_number      74
_space_group_name_Hall           '-I 2b 2'
loop_
_symmetry_equiv_pos_site_id
_symmetry_equiv_pos_as_xyz
1 x,y,z
2 -x,1/2-y,z
3 -x,1/2+y,-z
4 x,-y,-z
5 1/2+x,1/2+y,1/2+z
6 1/2-x,-y,1/2+z
7 1/2-x,y,1/2-z
8 1/2+x,1/2-y,1/2-z
9 -x,-y,-z
10 x,1/2+y,-z
11 x,1/2-y,z
12 -x,y,z
13 1/2-x,1/2-y,1/2-z
14 1/2+x,y,1/2-z
15 1/2+x,-y,1/2+z
16 1/2-x,1/2+y,1/2+z
_cell_length_a                   18.23(2)
_cell_length_b                   6.734(8)
_cell_length_c                   11.062(12)
_cell_angle_alpha                90
_cell_angle_beta                 90
_cell_angle_gamma                90
_cell_volume                     1357.98
loop_
_atom_site_label
_atom_site_type_symbol
_atom_site_fract_x
_atom_site_fract_y
_atom_site_fract_z
Ga1 Ga 0.0000 0.0000 0.5000
O1 O 0.0000 0.2500 0.5792(6)
H1 H 0.0000 0.2500 0.653(2)
O2 O 0.0790(3) 0.0892(10) 0.3885(5)
C1 C 0.1813(4) 0.2500 0.3052(8)
C2 C 0.1058(4) 0.2500 0.3661(7)
C3 C 0.2153(4) 0.0791(17) 0.2776(9)
H2 H 0.1926 -0.0411 0.2952
Ga1A Ga 0.0000 0.5000 0.5000
Ga1E Ga 0.5000 0.0000 0.0000
Ga1D Ga 0.5000 0.5000 0.0000
O1B O 0.0000 -0.2500 0.4208(6)
H1B H 0.0000 -0.2500 0.347(2)
O2J O 0.0790(3) 0.4108(10) 0.3885(5)
O2F O 0.4210(3) 0.0892(10) 0.1115(5)
O2L O 0.4210(3) 0.4108(10) 0.1115(5)
O2C O 0.0790(3) -0.0892(10) 0.6115(5)
O2H O -0.0790(3) -0.0892(10) 0.6115(5)
O2K O -0.0790(3) 0.0892(10) 0.3885(5)
C1F C 0.3187(4) 0.2500 0.1948(8)
C2F C 0.3942(4) 0.2500 0.1339(7)
C3F C 0.2847(4) 0.0791(17) 0.2224(9)
C3L C 0.2847(4) 0.4209(17) 0.2224(9)
C3J C 0.2153(4) 0.4209(17) 0.2776(9)
H2J H 0.1926 0.5411 0.2952
H2L H 0.3074 0.5411 0.2048
H2F H 0.3074 -0.0411 0.2048
N1 N 0.0000 0.2500 0.827(2)
C4 C 0.057(2) 0.2500 0.887(3)
H3 H 0.1018 0.2500 0.8473
C5 C 0.056(3) 0.2500 1.017(4)
H4 H 0.1010 0.2500 1.0578
C6 C 0.0000 0.2500 1.077(5)
H5 H 0.0000 0.2500 1.1608
C4A C -0.057(2) 0.2500 0.887(3)
H3A H -0.1018 0.2500 0.8473
C5A C -0.056(3) 0.2500 1.017(4)
H4A H -0.1010 0.2500 1.0578
loop_
_geom_bond_atom_site_label_1
_geom_bond_atom_site_label_2
_geom_bond_site_symmetry_1
_geom_bond_site_symmetry_2
Ga1 O1 1_555 1_555
O1 H1 1_555 1_555
O2 Ga1 1_555 1_555
C1 C2 1_555 1_555
C2 O2 1_555 1_555
C3 C1 1_555 1_555
H2 C3 1_555 1_555
N1 C4 1_555 1_555
C4 H3 1_555 1_555
C5 C4 1_555 1_555
H4 C5 1_555 1_555
C6 C5 1_555 1_555
H5 C6 1_555 1_555
Ga1A O1 1_555 1_555
Ga1E O2F 1_555 1_555
Ga1D O2L 1_555 1_555
O1B Ga1 1_555 1_555
H1B O1B 1_555 1_555
O2J C2 1_555 1_555
O2F C2F 1_555 1_555
O2L C2F 1_555 1_555
O2C Ga1 1_555 1_555
O2H Ga1 1_555 1_555
O2K Ga1 1_555 1_555
C1F C2F 1_555 1_555
C3F C3 1_555 1_555
C3L C1F 1_555 1_555
C3J C1 1_555 1_555
H2J C3J 1_555 1_555
H2L C3L 1_555 1_555
H2F C3F 1_555 1_555
C4A N1 1_555 1_555
H3A C4A 1_555 1_555
C5A C6 1_555 1_555
H4A C5A 1_555 1_555
Ga1A O2J 1_555 1_555
C1F C3F 1_555 1_555
C3L C3J 1_555 1_555
C4A C5A 1_555 1_555

#END
