
#######################################################################
#
#                 Cambridge Crystallographic Data Centre
#                                CCDC 
#
#######################################################################
#
# If this CIF has been generated from an entry in the Cambridge 
# Structural Database, then it will include bibliographic, chemical, 
# crystal, experimental, refinement or atomic coordinate data resulting 
# from the CCDC's data processing and validation procedures.
#
#######################################################################

data_COMFIU
_symmetry_cell_setting           tetragonal
_symmetry_space_group_name_H-M   'P 42/n b c'
_symmetry_Int_Tables_number      133
_space_group_name_Hall           '-P 4ac 2b'
loop_
_symmetry_equiv_pos_site_id
_symmetry_equiv_pos_as_xyz
1 x,y,z
2 1/2-y,x,1/2+z
3 y,1/2-x,1/2+z
4 y,x,1/2-z
5 1/2-x,1/2-y,z
6 1/2-x,y,-z
7 x,1/2-y,-z
8 1/2-y,1/2-x,1/2-z
9 -x,-y,-z
10 1/2+y,-x,1/2-z
11 -y,1/2+x,1/2-z
12 -y,-x,1/2+z
13 1/2+x,1/2+y,-z
14 1/2+x,-y,z
15 -x,1/2+y,z
16 1/2+y,1/2+x,1/2+z
_cell_length_a                   11.4580(16)
_cell_length_b                   11.4580(16)
_cell_length_c                   12.781(3)
_cell_angle_alpha                90
_cell_angle_beta                 90
_cell_angle_gamma                90
_cell_volume                     1677.96
loop_
_atom_site_label
_atom_site_type_symbol
_atom_site_fract_x
_atom_site_fract_y
_atom_site_fract_z
C1 C 0.5643(17) 0.9004(14) 0.358(2)
H1 H 0.5715 0.9363 0.2892
H2 H 0.5014 0.9392 0.3947
C2 C 0.5358(12) 0.7772(13) 0.3451(13)
C3 C 0.1880(15) 0.7500 0.0000
O1 O 0.6673(14) 0.9152(11) 0.4123(13)
O2 O 0.6023(16) 0.6997(12) 0.3872(13)
O3 O 0.4420(9) 0.7509(15) 0.2938(9)
O4 O 0.1322(9) 0.7404(11) 0.0903(7)
Tb1 Tb 0.2500 0.7500 0.2500
Tb2 Tb 0.7500 0.7500 0.5000
C1D C 0.9357(17) 0.5996(14) 0.358(2)
C1E C 0.9357(17) 0.9004(14) 0.642(2)
C1F C 0.5643(17) 0.5996(14) 0.642(2)
H1D H 0.9285 0.5637 0.2892
H1E H 0.9285 0.9363 0.7108
H1F H 0.5715 0.5637 0.7108
H2D H 0.9986 0.5608 0.3947
H2E H 0.9986 0.9392 0.6053
H2F H 0.5014 0.5608 0.6053
C2D C 0.9642(12) 0.7228(13) 0.3451(13)
C2E C 0.9642(12) 0.7772(13) 0.6549(13)
C2F C 0.5358(12) 0.7228(13) 0.6549(13)
C3D C 0.3120(15) 0.7500 0.0000
O1D O 0.8327(14) 0.5848(11) 0.4123(13)
O1E O 0.8327(14) 0.9152(11) 0.5877(13)
O1F O 0.6673(14) 0.5848(11) 0.5877(13)
O2D O 0.8977(16) 0.8003(12) 0.3872(13)
O2E O 0.8977(16) 0.6997(12) 0.6128(13)
O2F O 0.6023(16) 0.8003(12) 0.6128(13)
O3I O 0.2509(15) 0.5580(9) 0.2062(9)
O3J O 0.2491(15) 0.9420(9) 0.2062(9)
O3D O 0.0580(9) 0.7491(15) 0.2938(9)
O3D_2 O 1.0580(9) 0.7491(15) 0.2938(9)
O3E O 1.0580(9) 0.7509(15) 0.7062(9)
O3F O 0.4420(9) 0.7491(15) 0.7062(9)
O4D O 0.3678(9) 0.7596(11) 0.0903(7)
O4E O 0.3678(9) 0.7404(11) -0.0903(7)
O4F O 0.1322(9) 0.7596(11) -0.0903(7)
O4I O 0.2404(11) 0.8678(9) 0.4097(7)
O4J O 0.2596(11) 0.6322(9) 0.4097(7)
Tb1O Tb 0.2500 0.7500 -0.2500
Tb1O_2 Tb 0.2500 0.7500 0.7500
Tb1_2 Tb 1.2500 0.7500 0.2500
Tb1O_3 Tb 1.2500 0.7500 0.7500
loop_
_geom_bond_atom_site_label_1
_geom_bond_atom_site_label_2
_geom_bond_site_symmetry_1
_geom_bond_site_symmetry_2
C1 H1 1_555 1_555
H2 C1 1_555 1_555
C2 C1 1_555 1_555
C3 O4 1_555 1_555
O1 C1 1_555 1_555
O2 C2 1_555 1_555
O3 C2 1_555 1_555
O4 Tb1 1_555 1_555
Tb1 O3 1_555 1_555
Tb2 O1 1_555 1_555
C1D H1D 1_555 1_555
C1E H1E 1_555 1_555
C1F H1F 1_555 1_555
H2D C1D 1_555 1_555
H2E C1E 1_555 1_555
H2F C1F 1_555 1_555
C2D C1D 1_555 1_555
C2E C1E 1_555 1_555
C2F C1F 1_555 1_555
C3D C3 1_555 1_555
O1D Tb2 1_555 1_555
O1E Tb2 1_555 1_555
O1F Tb2 1_555 1_555
O2D Tb2 1_555 1_555
O2E Tb2 1_555 1_555
O2F Tb2 1_555 1_555
O3I Tb1 1_555 1_555
O3J Tb1 1_555 1_555
O3D Tb1 1_555 1_555
O3D_2 C2D 1_555 1_555
O3E C2E 1_555 1_555
O3F C2F 1_555 1_555
O4D Tb1 1_555 1_555
O4E C3D 1_555 1_555
O4F C3 1_555 1_555
O4I Tb1 1_555 1_555
O4J Tb1 1_555 1_555
Tb1O O4E 1_555 1_555
Tb1O_2 O3F 1_555 1_555
Tb1_2 O3D_2 1_555 1_555
Tb1O_3 O3E 1_555 1_555
O2 Tb2 1_555 1_555
C1D O1D 1_555 1_555
C1E O1E 1_555 1_555
C1F O1F 1_555 1_555
C2D O2D 1_555 1_555
C2E O2E 1_555 1_555
C2F O2F 1_555 1_555
C3D O4D 1_555 1_555
O4F Tb1O 1_555 1_555

#END
