
#######################################################################
#
#                 Cambridge Crystallographic Data Centre
#                                CCDC 
#
#######################################################################
#
# If this CIF has been generated from an entry in the Cambridge 
# Structural Database, then it will include bibliographic, chemical, 
# crystal, experimental, refinement or atomic coordinate data resulting 
# from the CCDC's data processing and validation procedures.
#
#######################################################################

data_COMFEQ
_symmetry_cell_setting           tetragonal
_symmetry_space_group_name_H-M   'P 42/n b c'
_symmetry_Int_Tables_number      133
_space_group_name_Hall           '-P 4ac 2b'
loop_
_symmetry_equiv_pos_site_id
_symmetry_equiv_pos_as_xyz
1 x,y,z
2 1/2-y,x,1/2+z
3 y,1/2-x,1/2+z
4 y,x,1/2-z
5 1/2-x,1/2-y,z
6 1/2-x,y,-z
7 x,1/2-y,-z
8 1/2-y,1/2-x,1/2-z
9 -x,-y,-z
10 1/2+y,-x,1/2-z
11 -y,1/2+x,1/2-z
12 -y,-x,1/2+z
13 1/2+x,1/2+y,-z
14 1/2+x,-y,z
15 -x,1/2+y,z
16 1/2+y,1/2+x,1/2+z
_cell_length_a                   11.4893(16)
_cell_length_b                   11.4893(16)
_cell_length_c                   12.845(3)
_cell_angle_alpha                90
_cell_angle_beta                 90
_cell_angle_gamma                90
_cell_volume                     1695.59
loop_
_atom_site_label
_atom_site_type_symbol
_atom_site_fract_x
_atom_site_fract_y
_atom_site_fract_z
C1 C 0.03186(14) 0.72281(17) 0.15540(13)
C2 C -0.3169(2) 0.7500 0.5000
C3 C 0.06159(16) 0.59643(17) 0.14433(15)
H1 H 0.0712 0.5616 0.2126
H2 H -0.0009 0.5560 0.1086
Gd1 Gd 0.2500 0.7500 0.0000
Gd2 Gd -0.2500 0.7500 0.2500
H3 H 0.193(2) 0.522(2) 0.0929(18)
O1 O 0.09765(12) 0.79685(11) 0.11493(10)
O2 O -0.05733(11) 0.74817(12) 0.20636(10)
O3 O 0.16676(11) 0.58586(12) 0.08643(10)
O4 O -0.36545(10) 0.74859(11) 0.41315(8)
C1D C 0.46814(14) 0.77719(17) 0.15540(13)
C1E C 0.46814(14) 0.72281(17) -0.15540(13)
C1F C 0.03186(14) 0.77719(17) -0.15540(13)
C2D C -0.1831(2) 0.7500 0.5000
C3D C 0.43841(16) 0.90357(17) 0.14433(15)
C3E C 0.43841(16) 0.59643(17) -0.14433(15)
C3F C 0.06159(16) 0.90357(17) -0.14433(15)
H1D H 0.4288 0.9384 0.2126
H1E H 0.4288 0.5616 -0.2126
H1F H 0.0712 0.9384 -0.2126
H2D H 0.5009 0.9440 0.1086
H2E H 0.5009 0.5560 -0.1086
H2F H -0.0009 0.9440 -0.1086
Gd2A Gd -0.2500 0.7500 0.7500
Gd2_2 Gd 0.7500 0.7500 0.2500
Gd2A_2 Gd 0.7500 0.7500 -0.2500
Gd2A_3 Gd -0.2500 0.7500 -0.2500
H3D H 0.307(2) 0.978(2) 0.0929(18)
H3E H 0.307(2) 0.522(2) -0.0929(18)
H3F H 0.193(2) 0.978(2) -0.0929(18)
O1D O 0.40235(12) 0.70315(11) 0.11493(10)
O1E O 0.40235(12) 0.79685(11) -0.11493(10)
O1F O 0.09765(12) 0.70315(11) -0.11493(10)
O2D O 0.55733(11) 0.75183(12) 0.20636(10)
O2E O 0.55733(11) 0.74817(12) -0.20636(10)
O2F O -0.05733(11) 0.75183(12) -0.20636(10)
O2C O -0.25183(12) 0.94267(11) 0.29364(10)
O2D_2 O -0.44267(11) 0.75183(12) 0.20636(10)
O2G O -0.24817(12) 0.55733(11) 0.29364(10)
O3D O 0.33324(11) 0.91414(12) 0.08643(10)
O3E O 0.33324(11) 0.58586(12) -0.08643(10)
O3F O 0.16676(11) 0.91414(12) -0.08643(10)
O4D O -0.13455(10) 0.75141(11) 0.41315(8)
O4E O -0.13455(10) 0.74859(11) 0.58685(8)
O4F O -0.36545(10) 0.75141(11) 0.58685(8)
O4C O -0.25141(11) 0.63455(10) 0.08685(8)
O4G O -0.24859(11) 0.86545(10) 0.08685(8)
loop_
_geom_bond_atom_site_label_1
_geom_bond_atom_site_label_2
_geom_bond_site_symmetry_1
_geom_bond_site_symmetry_2
C1 C3 1_555 1_555
C2 O4 1_555 1_555
C3 H1 1_555 1_555
H2 C3 1_555 1_555
Gd1 O1 1_555 1_555
Gd2 O2 1_555 1_555
H3 O3 1_555 1_555
O1 C1 1_555 1_555
O2 C1 1_555 1_555
O3 C3 1_555 1_555
O4 Gd2 1_555 1_555
C1D C3D 1_555 1_555
C1E C3E 1_555 1_555
C1F C3F 1_555 1_555
C2D C2 1_555 1_555
C3D H1D 1_555 1_555
C3E H1E 1_555 1_555
C3F H1F 1_555 1_555
H2D C3D 1_555 1_555
H2E C3E 1_555 1_555
H2F C3F 1_555 1_555
Gd2A O4E 1_555 1_555
Gd2_2 O2D 1_555 1_555
Gd2A_2 O2E 1_555 1_555
Gd2A_3 O2F 1_555 1_555
H3D O3D 1_555 1_555
H3E O3E 1_555 1_555
H3F O3F 1_555 1_555
O1D Gd1 1_555 1_555
O1E Gd1 1_555 1_555
O1F Gd1 1_555 1_555
O2D C1D 1_555 1_555
O2E C1E 1_555 1_555
O2F C1F 1_555 1_555
O2C Gd2 1_555 1_555
O2D_2 Gd2 1_555 1_555
O2G Gd2 1_555 1_555
O3D Gd1 1_555 1_555
O3E Gd1 1_555 1_555
O3F Gd1 1_555 1_555
O4D Gd2 1_555 1_555
O4E C2D 1_555 1_555
O4F C2 1_555 1_555
O4C Gd2 1_555 1_555
O4G Gd2 1_555 1_555
Gd1 O3 1_555 1_555
C1D O1D 1_555 1_555
C1E O1E 1_555 1_555
C1F O1F 1_555 1_555
C2D O4D 1_555 1_555
C3D O3D 1_555 1_555
C3E O3E 1_555 1_555
C3F O3F 1_555 1_555
Gd2A O4F 1_555 1_555

#END
