
#######################################################################
#
#                 Cambridge Crystallographic Data Centre
#                                CCDC 
#
#######################################################################
#
# If this CIF has been generated from an entry in the Cambridge 
# Structural Database, then it will include bibliographic, chemical, 
# crystal, experimental, refinement or atomic coordinate data resulting 
# from the CCDC's data processing and validation procedures.
#
#######################################################################

data_COMFUG
_symmetry_cell_setting           monoclinic
_symmetry_space_group_name_H-M   'P 21/c'
_symmetry_Int_Tables_number      14
_space_group_name_Hall           '-P 2ybc'
loop_
_symmetry_equiv_pos_site_id
_symmetry_equiv_pos_as_xyz
1 x,y,z
2 -x,1/2+y,1/2-z
3 -x,-y,-z
4 x,1/2-y,1/2+z
_cell_length_a                   13.472(2)
_cell_length_b                   18.490(3)
_cell_length_c                   25.763(4)
_cell_angle_alpha                90
_cell_angle_beta                 103.212(3)
_cell_angle_gamma                90
_cell_volume                     6247.63
loop_
_atom_site_label
_atom_site_type_symbol
_atom_site_fract_x
_atom_site_fract_y
_atom_site_fract_z
Cu1 Cu 0.46556(5) 0.83402(3) 1.01739(2)
Cu2 Cu 0.32606(5) 0.95568(3) 1.31988(2)
S1 S -0.07149(12) 0.90145(7) 1.27415(7)
S2 S -0.08174(10) 0.81775(8) 0.98834(6)
S3 S 0.44889(14) 0.77843(8) 1.13195(5)
S4 S 0.40987(9) 0.78187(6) 1.41205(5)
N1 N 0.3397(3) 0.8931(2) 0.98955(16)
N2 N 0.5228(3) 0.8999(2) 0.96979(15)
N3 N 0.4654(3) 0.9195(2) 1.31543(16)
N4 N 0.4087(4) 1.0094(2) 1.38321(17)
N5 N 0.2488(3) 0.8980(2) 1.25698(16)
N6 N 0.2939(3) 1.0407(2) 1.25694(18)
C1 C 0.1784(3) 0.6534(2) 1.34172(17)
C2 C 0.0654(3) 0.6454(3) 1.34080(19)
H1 H 0.0529 0.6611 1.3746
H2 H 0.0459 0.5949 1.3358
C3 C 0.0016(3) 0.6900(2) 1.29611(18)
C4 C -0.0052(4) 0.7641(3) 1.3032(2)
H3 H 0.0285 0.7853 1.3351
C5 C -0.0619(4) 0.8068(2) 1.2629(2)
C6 C -0.1110(4) 0.7776(2) 1.2152(2)
H4 H -0.1483 0.8072 1.1886
C7 C -0.1053(3) 0.7038(2) 1.20627(18)
C8 C -0.1575(4) 0.6730(2) 1.15231(19)
H5 H -0.2229 0.6967 1.1398
H6 H -0.1702 0.6219 1.1561
C9 C -0.0938(3) 0.6831(2) 1.11139(18)
C10 C -0.1126(4) 0.7396(3) 1.07484(19)
H7 H -0.1663 0.7712 1.0749
C11 C -0.0520(4) 0.7496(3) 1.0381(2)
C12 C 0.0303(4) 0.7053(3) 1.03956(19)
H8 H 0.0725 0.7139 1.0163
C13 C 0.0518(4) 0.6479(3) 1.07513(19)
C14 C 0.1421(4) 0.5995(3) 1.07587(19)
H9 H 0.1245 0.5502 1.0829
H10 H 0.1587 0.6007 1.0412
C15 C 0.2346(4) 0.6232(2) 1.11831(18)
C16 C 0.2925(4) 0.6803(3) 1.10759(19)
H11 H 0.2761 0.7022 1.0742
C17 C 0.3745(4) 0.7053(2) 1.14557(19)
C18 C 0.3996(4) 0.6736(3) 1.19591(19)
H12 H 0.4542 0.6914 1.2216
C19 C 0.3434(4) 0.6156(2) 1.20798(18)
C20 C 0.3699(4) 0.5822(3) 1.26325(18)
H13 H 0.4434 0.5812 1.2759
H14 H 0.3456 0.5326 1.2610
C21 C 0.3240(3) 0.6229(2) 1.30318(17)
C22 C 0.3812(3) 0.6741(2) 1.33675(18)
H15 H 0.4488 0.6819 1.3354
C23 C 0.3393(3) 0.7138(2) 1.37213(17)
C24 C 0.2380(4) 0.7031(2) 1.37451(17)
H16 H 0.2105 0.7298 1.3985
C25 C -0.0500(3) 0.6608(2) 1.24717(19)
C26 C -0.0119(4) 0.6372(2) 1.11051(19)
C27 C 0.2621(4) 0.5903(2) 1.16850(19)
C28 C 0.2221(4) 0.6132(2) 1.30688(18)
C29 C 0.2485(4) 0.8890(3) 1.0010(2)
H17 H 0.2379 0.8546 1.0254
C30 C 0.1683(5) 0.9344(4) 0.9777(3)
H18 H 0.1059 0.9306 0.9872
C31 C 0.1814(5) 0.9844(3) 0.9410(3)
H19 H 0.1280 1.0149 0.9253
C32 C 0.2991(5) 1.0398(3) 0.8887(2)
H20 H 0.2483 1.0707 0.8707
C33 C 0.3919(6) 1.0429(3) 0.8784(2)
H21 H 0.4041 1.0757 0.8532
C34 C 0.5737(5) 0.9977(3) 0.8982(2)
H22 H 0.5920 1.0300 0.8744
C35 C 0.6449(5) 0.9505(3) 0.9266(3)
H23 H 0.7113 0.9506 0.9219
C36 C 0.6169(4) 0.9028(3) 0.9621(2)
H24 H 0.6658 0.8715 0.9813
C37 C 0.4520(4) 0.9472(2) 0.94222(18)
C38 C 0.4724(5) 0.9970(3) 0.9055(2)
C39 C 0.2762(4) 0.9896(3) 0.9269(2)
C40 C 0.3526(4) 0.9429(2) 0.95315(18)
C41 C 0.4935(5) 0.8770(3) 1.2798(2)
H25 H 0.4442 0.8613 1.2506
C42 C 0.5935(6) 0.8551(4) 1.2846(3)
H26 H 0.6106 0.8278 1.2576
C43 C 0.6669(5) 0.8730(4) 1.3281(3)
H27 H 0.7332 0.8561 1.3320
C44 C 0.7115(5) 0.9409(4) 1.4144(3)
H28 H 0.7780 0.9234 1.4219
C45 C 0.6827(5) 0.9884(4) 1.4485(3)
H29 H 0.7300 1.0029 1.4789
C46 C 0.5479(6) 1.0691(3) 1.4698(2)
H30 H 0.5932 1.0900 1.4985
C47 C 0.4480(6) 1.0893(3) 1.4576(2)
H31 H 0.4253 1.1242 1.4782
C48 C 0.3798(6) 1.0583(3) 1.4146(2)
H32 H 0.3117 1.0723 1.4076
C49 C 0.5091(4) 0.9901(3) 1.3942(2)
C50 C 0.5819(5) 1.0164(3) 1.4385(2)
C51 C 0.6412(4) 0.9177(3) 1.3675(2)
C52 C 0.5397(4) 0.9412(3) 1.3583(2)
C53 C 0.2285(5) 0.8274(3) 1.2575(2)
H33 H 0.2540 0.8013 1.2885
C54 C 0.1709(5) 0.7911(3) 1.2136(2)
H34 H 0.1597 0.7416 1.2150
C55 C 0.1313(5) 0.8291(3) 1.1687(2)
H35 H 0.0920 0.8056 1.1391
C56 C 0.1083(4) 0.9482(4) 1.1213(2)
H36 H 0.0673 0.9272 1.0911
C57 C 0.1273(4) 1.0186(4) 1.1213(2)
H37 H 0.0984 1.0459 1.0914
C58 C 0.2169(5) 1.1273(3) 1.1685(3)
H38 H 0.1916 1.1571 1.1394
C59 C 0.2791(5) 1.1547(3) 1.2135(3)
H39 H 0.2974 1.2032 1.2147
C60 C 0.3151(5) 1.1111(3) 1.2572(2)
H40 H 0.3554 1.1316 1.2879
C61 C 0.2331(4) 1.0128(3) 1.21212(19)
C62 C 0.1917(4) 1.0537(3) 1.1665(2)
C63 C 0.1492(4) 0.9041(3) 1.1665(2)
C64 C 0.2103(4) 0.9357(3) 1.21218(19)
O1 O -0.0487(2) 0.58742(16) 1.23956(13)
H41 H -0.0319 0.5788 1.2115
O2 O 0.0098(3) 0.57879(18) 1.14394(14)
H42 H -0.0105 0.5866 1.1711
O3 O 0.2117(3) 0.53057(18) 1.17907(15)
H43 H 0.1936 0.5364 1.2071
O4 O 0.1596(3) 0.5659(2) 1.27488(16)
H44 H 0.1843 0.5252 1.2792
O5 O -0.1677(4) 0.9226(2) 1.2416(2)
O6 O -0.0802(5) 0.9094(3) 1.3302(2)
O7 O 0.0182(5) 0.9324(3) 1.2683(3)
O8 O -0.0566(6) 0.8855(3) 1.0127(2)
O9 O -0.1840(4) 0.8081(4) 0.9631(3)
O10 O -0.0183(4) 0.8042(3) 0.9517(2)
O11 O 0.4310(6) 0.8377(3) 1.16424(19)
O12 O 0.4077(3) 0.7947(2) 1.07533(14)
O13 O 0.5534(4) 0.7547(3) 1.14240(19)
O14 O 0.3519(3) 0.84826(17) 1.39801(15)
O15 O 0.5089(3) 0.7831(2) 1.39936(15)
O16 O 0.4144(3) 0.76218(17) 1.46743(13)
O17 O 0.6005(3) 0.7932(2) 1.04932(14)
O18 O 0.1947(3) 0.9738(2) 1.34343(15)
H45 H 0.1929 0.9606 1.3747
H46 H 0.1406 0.9544 1.3248
H47 H 0.6264 0.7634 1.0308
H48 H 0.6199 0.7903 1.0831
Cu1C Cu 0.46556(5) 0.66598(3) 1.51739(2)
O16C O 0.4144(3) 0.73782(17) 0.96743(13)
O19 O 0.6749(3) 0.7149(2) 0.98391(16)
H49 H 0.7105 0.7394 0.9673
H50 H 0.6409 0.7172 0.9517
O20 O 0.1924(4) 0.5889(3) 0.9371(2)
H51 H 0.1278 0.5951 0.9316
H52 H 0.1979 0.6318 0.9492
O21 O -0.0059(6) 0.6446(4) 0.9240(3)
H53 H 0.0451 0.6710 0.9226
H54 H -0.0295 0.6189 0.8965
loop_
_geom_bond_atom_site_label_1
_geom_bond_atom_site_label_2
_geom_bond_site_symmetry_1
_geom_bond_site_symmetry_2
Cu1 N1 1_555 1_555
Cu2 N3 1_555 1_555
S1 C5 1_555 1_555
S2 C11 1_555 1_555
S3 C17 1_555 1_555
S4 C23 1_555 1_555
N1 C29 1_555 1_555
N2 Cu1 1_555 1_555
N3 C41 1_555 1_555
N4 Cu2 1_555 1_555
N5 Cu2 1_555 1_555
N6 Cu2 1_555 1_555
C1 C2 1_555 1_555
C2 H1 1_555 1_555
H2 C2 1_555 1_555
C3 C2 1_555 1_555
C4 C3 1_555 1_555
H3 C4 1_555 1_555
C5 C4 1_555 1_555
C6 C5 1_555 1_555
H4 C6 1_555 1_555
C7 C6 1_555 1_555
C8 C7 1_555 1_555
H5 C8 1_555 1_555
H6 C8 1_555 1_555
C9 C8 1_555 1_555
C10 C9 1_555 1_555
H7 C10 1_555 1_555
C11 C10 1_555 1_555
C12 C11 1_555 1_555
H8 C12 1_555 1_555
C13 C12 1_555 1_555
C14 C13 1_555 1_555
H9 C14 1_555 1_555
H10 C14 1_555 1_555
C15 C14 1_555 1_555
C16 C15 1_555 1_555
H11 C16 1_555 1_555
C17 C16 1_555 1_555
C18 C17 1_555 1_555
H12 C18 1_555 1_555
C19 C18 1_555 1_555
C20 C19 1_555 1_555
H13 C20 1_555 1_555
H14 C20 1_555 1_555
C21 C20 1_555 1_555
C22 C21 1_555 1_555
H15 C22 1_555 1_555
C23 C22 1_555 1_555
C24 C1 1_555 1_555
H16 C24 1_555 1_555
C25 C3 1_555 1_555
C26 C9 1_555 1_555
C27 C15 1_555 1_555
C28 C1 1_555 1_555
C29 H17 1_555 1_555
C30 C29 1_555 1_555
H18 C30 1_555 1_555
C31 C30 1_555 1_555
H19 C31 1_555 1_555
C32 H20 1_555 1_555
C33 C32 1_555 1_555
H21 C33 1_555 1_555
C34 H22 1_555 1_555
C35 C34 1_555 1_555
H23 C35 1_555 1_555
C36 N2 1_555 1_555
H24 C36 1_555 1_555
C37 N2 1_555 1_555
C38 C33 1_555 1_555
C39 C31 1_555 1_555
C40 N1 1_555 1_555
C41 H25 1_555 1_555
C42 C41 1_555 1_555
H26 C42 1_555 1_555
C43 C42 1_555 1_555
H27 C43 1_555 1_555
C44 H28 1_555 1_555
C45 C44 1_555 1_555
H29 C45 1_555 1_555
C46 H30 1_555 1_555
C47 C46 1_555 1_555
H31 C47 1_555 1_555
C48 N4 1_555 1_555
H32 C48 1_555 1_555
C49 N4 1_555 1_555
C50 C45 1_555 1_555
C51 C43 1_555 1_555
C52 N3 1_555 1_555
C53 N5 1_555 1_555
H33 C53 1_555 1_555
C54 C53 1_555 1_555
H34 C54 1_555 1_555
C55 C54 1_555 1_555
H35 C55 1_555 1_555
C56 H36 1_555 1_555
C57 C56 1_555 1_555
H37 C57 1_555 1_555
C58 H38 1_555 1_555
C59 C58 1_555 1_555
H39 C59 1_555 1_555
C60 N6 1_555 1_555
H40 C60 1_555 1_555
C61 N6 1_555 1_555
C62 C57 1_555 1_555
C63 C55 1_555 1_555
C64 N5 1_555 1_555
O1 C25 1_555 1_555
H41 O1 1_555 1_555
O2 C26 1_555 1_555
H42 O2 1_555 1_555
O3 C27 1_555 1_555
H43 O3 1_555 1_555
O4 C28 1_555 1_555
H44 O4 1_555 1_555
O5 S1 1_555 1_555
O6 S1 1_555 1_555
O7 S1 1_555 1_555
O8 S2 1_555 1_555
O9 S2 1_555 1_555
O10 S2 1_555 1_555
O11 S3 1_555 1_555
O12 Cu1 1_555 1_555
O13 S3 1_555 1_555
O14 Cu2 1_555 1_555
O15 S4 1_555 1_555
O16 S4 1_555 1_555
O17 Cu1 1_555 1_555
O18 Cu2 1_555 1_555
H45 O18 1_555 1_555
H46 O18 1_555 1_555
H47 O17 1_555 1_555
H48 O17 1_555 1_555
O19 H49 1_555 1_555
H50 O19 1_555 1_555
O20 H51 1_555 1_555
H52 O20 1_555 1_555
O21 H53 1_555 1_555
H54 O21 1_555 1_555
Cu1C O16 1_555 1_555
O16C Cu1 1_555 1_555
S3 O12 1_555 1_555
S4 O14 1_555 1_555
C7 C25 1_555 1_555
C13 C26 1_555 1_555
C19 C27 1_555 1_555
C21 C28 1_555 1_555
C23 C24 1_555 1_555
C32 C39 1_555 1_555
C34 C38 1_555 1_555
C35 C36 1_555 1_555
C37 C38 1_555 1_555
C37 C40 1_555 1_555
C39 C40 1_555 1_555
C44 C51 1_555 1_555
C46 C50 1_555 1_555
C47 C48 1_555 1_555
C49 C50 1_555 1_555
C49 C52 1_555 1_555
C51 C52 1_555 1_555
C56 C63 1_555 1_555
C58 C62 1_555 1_555
C59 C60 1_555 1_555
C61 C62 1_555 1_555
C61 C64 1_555 1_555
C63 C64 1_555 1_555

#END
