
#######################################################################
#
#                 Cambridge Crystallographic Data Centre
#                                CCDC 
#
#######################################################################
#
# If this CIF has been generated from an entry in the Cambridge 
# Structural Database, then it will include bibliographic, chemical, 
# crystal, experimental, refinement or atomic coordinate data resulting 
# from the CCDC's data processing and validation procedures.
#
#######################################################################

data_COMGOB
_symmetry_cell_setting           triclinic
_symmetry_space_group_name_H-M   'P -1'
_symmetry_Int_Tables_number      2
_space_group_name_Hall           '-P 1'
loop_
_symmetry_equiv_pos_site_id
_symmetry_equiv_pos_as_xyz
1 x,y,z
2 -x,-y,-z
_cell_length_a                   6.5498(17)
_cell_length_b                   11.441(3)
_cell_length_c                   11.598(3)
_cell_angle_alpha                77.490(3)
_cell_angle_beta                 76.549(3)
_cell_angle_gamma                76.164(3)
_cell_volume                     808.731
loop_
_atom_site_label
_atom_site_type_symbol
_atom_site_fract_x
_atom_site_fract_y
_atom_site_fract_z
Zn1 Zn 0.13940(10) 0.15553(6) 0.84159(6)
Na1 Na 0.1139(7) 0.6368(4) 0.9626(4)
Na2 Na 0.5701(6) 0.1525(3) 0.9707(3)
O1 O 0.3691(10) 0.2827(6) 0.8329(6)
O2 O 0.1944(13) 0.4412(7) 0.9199(7)
O3 O 0.7599(11) 0.3252(7) 0.8822(6)
O4 O 0.9829(11) 0.3043(7) 0.7094(7)
O5 O 0.2933(11) 0.7507(6) 0.5184(6)
O6 O -0.0837(12) 0.8371(6) 0.9546(6)
O7 O -0.1104(10) 1.0367(5) 0.8850(6)
O8 O -0.5261(10) 1.0030(6) 0.8664(6)
O9 O -0.6251(11) 1.0628(7) 0.6911(6)
O10 O 0.5127(16) 0.6927(9) 0.8829(8)
C1 C 0.3257(15) 0.3942(8) 0.8391(8)
C2 C 0.4392(14) 0.4763(8) 0.7396(8)
C3 C 0.3157(14) 0.5745(8) 0.6779(8)
H1 H 0.1672 0.5878 0.7001
C4 C 0.4115(14) 0.6538(8) 0.5826(8)
C5 C 0.6304(15) 0.6329(9) 0.5461(9)
H2 H 0.6936 0.6841 0.4808
C6 C 0.7571(15) 0.5346(9) 0.6076(8)
H3 H 0.9053 0.5218 0.5834
C7 C 0.6670(14) 0.4549(8) 0.7047(8)
C8 C 0.8095(14) 0.3548(8) 0.7710(8)
C9 C -0.0982(13) 0.9299(8) 0.8703(8)
C10 C -0.0981(14) 0.9040(7) 0.7503(8)
C11 C 0.0918(14) 0.8408(8) 0.6922(8)
H4 H 0.2110 0.8168 0.7287
C12 C 0.1051(14) 0.8131(8) 0.5790(8)
C13 C -0.0700(15) 0.8510(8) 0.5214(8)
H5 H -0.0609 0.8335 0.4454
C14 C -0.2556(15) 0.9147(9) 0.5795(9)
H6 H -0.3726 0.9407 0.5412
C15 C -0.2773(14) 0.9425(8) 0.6947(8)
C16 C -0.4867(14) 1.0062(8) 0.7544(8)
Zn1_2 Zn 1.13940(10) 0.15553(6) 0.84159(6)
Zn1A Zn -0.13940(10) 0.84447(6) 1.15841(6)
Zn1_3 Zn 0.13940(10) 1.15553(6) 0.84159(6)
Zn1_4 Zn -0.86060(10) 1.15553(6) 0.84159(6)
Na1A Na -0.1139(7) 0.3632(4) 1.0374(4)
Na1A_2 Na 0.8861(7) 0.3632(4) 1.0374(4)
Na2_2 Na -0.4299(6) 1.1525(3) 0.9707(3)
Na2A Na -0.5701(6) 0.8475(3) 1.0293(3)
Na2A_2 Na 0.4299(6) 0.8475(3) 1.0293(3)
O2A O -0.1944(13) 0.5588(7) 1.0801(7)
O3A O 0.2401(11) 0.6748(7) 1.1178(6)
O4_2 O -0.0171(11) 0.3043(7) 0.7094(7)
O6A O 0.0837(12) 0.1629(6) 1.0454(6)
O7_2 O -0.1104(10) 0.0367(5) 0.8850(6)
O7_3 O 0.8896(10) 0.0367(5) 0.8850(6)
O8_2 O 0.4739(10) 0.0030(6) 0.8664(6)
O8A O 0.5261(10) -0.0030(6) 1.1336(6)
O9_2 O 0.3749(11) 0.0628(7) 0.6911(6)
O10A O 0.4873(16) 0.3073(9) 1.1171(8)
loop_
_geom_bond_atom_site_label_1
_geom_bond_atom_site_label_2
_geom_bond_site_symmetry_1
_geom_bond_site_symmetry_2
Zn1 O1 1_555 1_555
Na1 O2 1_555 1_555
Na2 O1 1_555 1_555
O1 C1 1_555 1_555
O2 C1 1_555 1_555
O3 Na2 1_555 1_555
O4 C8 1_555 1_555
O5 C4 1_555 1_555
O6 Na1 1_555 1_555
O7 C9 1_555 1_555
O8 C16 1_555 1_555
O9 C16 1_555 1_555
O10 Na1 1_555 1_555
C1 C2 1_555 1_555
C2 C3 1_555 1_555
C3 H1 1_555 1_555
C4 C3 1_555 1_555
C5 C4 1_555 1_555
H2 C5 1_555 1_555
C6 C5 1_555 1_555
H3 C6 1_555 1_555
C7 C2 1_555 1_555
C8 O3 1_555 1_555
C9 O6 1_555 1_555
C10 C9 1_555 1_555
C11 C10 1_555 1_555
H4 C11 1_555 1_555
C12 O5 1_555 1_555
C13 C12 1_555 1_555
H5 C13 1_555 1_555
C14 C13 1_555 1_555
H6 C14 1_555 1_555
C15 C10 1_555 1_555
C16 C15 1_555 1_555
Zn1_2 O4 1_555 1_555
Zn1A O6 1_555 1_555
Zn1_3 O7 1_555 1_555
Zn1_4 O8 1_555 1_555
Na1A O2 1_555 1_555
Na1A_2 O3 1_555 1_555
Na2_2 O7 1_555 1_555
Na2A O8 1_555 1_555
Na2A_2 O10 1_555 1_555
O2A Na1 1_555 1_555
O3A Na1 1_555 1_555
O4_2 Zn1 1_555 1_555
O6A Zn1 1_555 1_555
O7_2 Zn1 1_555 1_555
O7_3 Na2 1_555 1_555
O8_2 Zn1 1_555 1_555
O8A Na2 1_555 1_555
O9_2 Zn1 1_555 1_555
O10A Na2 1_555 1_555
Na2 O8_2 1_555 1_555
O8 Na2_2 1_555 1_555
O9 Zn1_4 1_555 1_555
C6 C7 1_555 1_555
C7 C8 1_555 1_555
C11 C12 1_555 1_555
C14 C15 1_555 1_555
Zn1_2 O7_3 1_555 1_555
Na1A O2A 1_555 1_555
Na1A O6A 1_555 1_555
Na1A_2 O10A 1_555 1_555
Na2A_2 O3A 1_555 1_555

#END
