
#######################################################################
#
#                 Cambridge Crystallographic Data Centre
#                                CCDC 
#
#######################################################################
#
# If this CIF has been generated from an entry in the Cambridge 
# Structural Database, then it will include bibliographic, chemical, 
# crystal, experimental, refinement or atomic coordinate data resulting 
# from the CCDC's data processing and validation procedures.
#
#######################################################################

data_COMHUI
_symmetry_cell_setting           tetragonal
_symmetry_space_group_name_H-M   'P 42/n'
_symmetry_Int_Tables_number      86
_space_group_name_Hall           '-P 4bc'
loop_
_symmetry_equiv_pos_site_id
_symmetry_equiv_pos_as_xyz
1 x,y,z
2 -y,1/2+x,1/2+z
3 1/2+y,-x,1/2+z
4 1/2-x,1/2-y,z
5 -x,-y,-z
6 y,1/2-x,1/2-z
7 1/2-y,x,1/2-z
8 1/2+x,1/2+y,-z
_cell_length_a                   14.1589(8)
_cell_length_b                   14.1589(8)
_cell_length_c                   4.4486(4)
_cell_angle_alpha                90
_cell_angle_beta                 90
_cell_angle_gamma                90
_cell_volume                     891.831
loop_
_atom_site_label
_atom_site_type_symbol
_atom_site_fract_x
_atom_site_fract_y
_atom_site_fract_z
Cu1 Cu 0.39795(2) 0.51176(2) 0.78466(8)
C1 C 0.55444(18) 0.69572(17) 1.2702(6)
N1 N 0.45844(14) 0.62231(13) 0.9670(5)
N2 N 0.53440(15) 0.61017(14) 1.1689(6)
N3 N 0.62411(16) 0.71358(16) 1.4795(6)
H1 H 0.6571 0.6678 1.5509
H2 H 0.6345 0.7705 1.5384
C2 C 0.44112(15) 0.71483(16) 0.9655(6)
N4 N 0.49890(14) 0.76458(14) 1.1505(5)
N5 N 0.36857(15) 0.75692(15) 0.8121(5)
H3 H 0.3303 0.7231 0.7074
H4 H 0.3613 0.8172 0.8205
Cu1D Cu 0.60205(2) 0.48824(2) 1.21534(8)
Cu1A Cu 0.48824(2) 0.89795(2) 1.28466(8)
N2D N 0.46560(15) 0.38983(14) 0.8311(6)
N4B N 0.26458(14) 0.50110(14) 0.6505(5)
loop_
_geom_bond_atom_site_label_1
_geom_bond_atom_site_label_2
_geom_bond_site_symmetry_1
_geom_bond_site_symmetry_2
Cu1 N1 1_555 1_555
C1 N2 1_555 1_555
N1 N2 1_555 1_555
N2 Cu1D 1_555 1_555
N3 C1 1_555 1_555
H1 N3 1_555 1_555
H2 N3 1_555 1_555
C2 N1 1_555 1_555
N4 C1 1_555 1_555
N5 C2 1_555 1_555
H3 N5 1_555 1_555
H4 N5 1_555 1_555
Cu1A N4 1_555 1_555
N2D Cu1 1_555 1_555
N4B Cu1 1_555 1_555
C2 N4 1_555 1_555

#END
