
#######################################################################
#
#                 Cambridge Crystallographic Data Centre
#                                CCDC 
#
#######################################################################
#
# If this CIF has been generated from an entry in the Cambridge 
# Structural Database, then it will include bibliographic, chemical, 
# crystal, experimental, refinement or atomic coordinate data resulting 
# from the CCDC's data processing and validation procedures.
#
#######################################################################

data_COMHOC
_symmetry_cell_setting           orthorhombic
_symmetry_space_group_name_H-M   'P n m a'
_symmetry_Int_Tables_number      62
_space_group_name_Hall           '-P 2ac 2n'
loop_
_symmetry_equiv_pos_site_id
_symmetry_equiv_pos_as_xyz
1 x,y,z
2 1/2-x,-y,1/2+z
3 1/2+x,1/2-y,1/2-z
4 -x,1/2+y,-z
5 -x,-y,-z
6 1/2+x,y,1/2-z
7 1/2-x,1/2+y,1/2+z
8 x,1/2-y,z
_cell_length_a                   28.6184(17)
_cell_length_b                   7.9221(5)
_cell_length_c                   9.0751(6)
_cell_angle_alpha                90
_cell_angle_beta                 90
_cell_angle_gamma                90
_cell_volume                     2057.49
loop_
_atom_site_label
_atom_site_type_symbol
_atom_site_fract_x
_atom_site_fract_y
_atom_site_fract_z
Cu1 Cu 0.0000 -0.5000 0.0000
Cu2 Cu -0.21342(6) -0.7500 -0.0050(2)
Cu3 Cu -0.08745(4) -0.49374(11) 0.24442(9)
Cu4 Cu -0.03964(5) -0.7500 -0.40875(15)
Cu5 Cu -0.17669(4) -0.53238(16) -0.34752(10)
Cu6 Cu -0.30907(8) -0.7500 -0.0615(3)
Br1 Br -0.03940(3) -0.7500 0.31550(9)
Br2 Br -0.27184(3) -0.7500 0.19943(9)
Br3 Br -0.16174(2) -0.52264(8) 0.39164(7)
Br4 Br -0.23782(3) -0.7500 -0.28785(9)
Br5 Br -0.04812(3) -0.2500 0.35296(11)
C1 C -0.1372(2) -0.5067(7) -0.0476(7)
C2 C -0.0822(2) -0.5089(7) -0.2014(7)
H1 H -0.179(3) -0.491(8) 0.102(3)
H2 H -0.199(2) -0.439(7) -0.035(6)
H3 H -0.033(3) -0.449(9) -0.321(7)
H4 H -0.078(3) -0.459(11) -0.396(9)
N1 N -0.09878(19) -0.4990(7) 0.0322(5)
N2 N -0.06148(18) -0.5026(7) -0.0689(6)
N3 N -0.12876(19) -0.5129(6) -0.1934(6)
N4 N -0.18216(19) -0.5142(7) 0.0106(6)
N5 N -0.0577(2) -0.5144(7) -0.3342(6)
Cu2D Cu 0.21342(6) -0.2500 0.0050(2)
Cu3D Cu 0.08745(4) -0.50626(11) -0.24442(9)
Cu3G Cu -0.08745(4) -1.00626(11) 0.24442(9)
Cu3G_2 Cu -0.08745(4) -0.00626(11) 0.24442(9)
Cu3_2 Cu -0.08745(4) -0.49374(11) -0.75558(9)
Cu4_2 Cu -0.03964(5) -0.7500 0.59125(15)
Cu4D Cu 0.03964(5) -0.2500 0.40875(15)
Cu5D Cu 0.17669(4) -0.46762(16) 0.34752(10)
Cu5F Cu -0.32331(4) -1.03238(16) 0.15248(10)
Cu5A Cu -0.32331(4) -0.46762(16) 0.15248(10)
Cu5_2 Cu -0.17669(4) -0.53238(16) 0.65248(10)
Cu5G Cu -0.17669(4) -0.96762(16) -0.34752(10)
Cu6F Cu -0.19093(8) -0.2500 0.4385(3)
Cu6F_2 Cu -0.19093(8) -0.2500 -0.5615(3)
Br1_2 Br -0.03940(3) -0.7500 -0.68450(9)
Br1D Br 0.03940(3) -0.2500 -0.31550(9)
Br2F Br -0.22816(3) -0.2500 -0.30057(9)
Br2E Br 0.22816(3) -0.7500 0.30057(9)
Br3_2 Br -0.16174(2) -0.52264(8) -0.60836(7)
Br3A Br -0.33826(2) -0.47736(8) -0.10836(7)
Br3F Br -0.33826(2) -1.02264(8) -0.10836(7)
Br3D Br 0.16174(2) -0.47736(8) -0.39164(7)
Br3D_2 Br 0.16174(2) -0.47736(8) 0.60836(7)
Br4D Br 0.23782(3) -0.2500 0.28785(9)
Br5D Br 0.04812(3) -0.7500 -0.35296(11)
C1D C 0.1372(2) -0.4933(7) 0.0476(7)
C2D C 0.0822(2) -0.4911(7) 0.2014(7)
H1D H 0.179(3) -0.509(8) -0.102(3)
H1G H -0.179(3) -1.009(8) 0.102(3)
H2D H 0.199(2) -0.561(7) 0.035(6)
H2G H -0.199(2) -1.061(7) -0.035(6)
H3D H 0.033(3) -0.551(9) 0.321(7)
H3G H -0.033(3) -1.051(9) -0.321(7)
H4D H 0.078(3) -0.541(11) 0.396(9)
H4G H -0.078(3) -1.041(11) -0.396(9)
N1D N 0.09878(19) -0.5010(7) -0.0322(5)
N2D N 0.06148(18) -0.4974(7) 0.0689(6)
N3D N 0.12876(19) -0.4871(6) 0.1934(6)
N4D N 0.18216(19) -0.4858(7) -0.0106(6)
N4G N -0.18216(19) -0.9858(7) 0.0106(6)
N5D N 0.0577(2) -0.4856(7) 0.3342(6)
N5G N -0.0577(2) -0.9856(7) -0.3342(6)
loop_
_geom_bond_atom_site_label_1
_geom_bond_atom_site_label_2
_geom_bond_site_symmetry_1
_geom_bond_site_symmetry_2
Cu1 N2 1_555 1_555
Cu2 Br2 1_555 1_555
Cu3 Br1 1_555 1_555
Cu4 N5 1_555 1_555
Cu5 Br4 1_555 1_555
Cu6 Br2 1_555 1_555
Br1 Cu3G 1_555 1_555
Br2 Cu5F 1_555 1_555
Br3 Cu3 1_555 1_555
Br4 Cu2 1_555 1_555
Br5 Cu3 1_555 1_555
C1 N1 1_555 1_555
C2 N2 1_555 1_555
H1 N4 1_555 1_555
H2 N4 1_555 1_555
H3 N5 1_555 1_555
H4 N5 1_555 1_555
N1 Cu3 1_555 1_555
N2 N1 1_555 1_555
N3 Cu5 1_555 1_555
N4 Cu2 1_555 1_555
N5 C2 1_555 1_555
Cu2D Br4D 1_555 1_555
Cu3D Br1D 1_555 1_555
Cu3G_2 Br5 1_555 1_555
Cu3_2 Br1_2 1_555 1_555
Cu4_2 Br1 1_555 1_555
Cu4D Br5 1_555 1_555
Cu5D Br2E 1_555 1_555
Cu5F Br3F 1_555 1_555
Cu5A Br2 1_555 1_555
Cu5_2 Br3 1_555 1_555
Cu5G Br4 1_555 1_555
Cu6F Br3 1_555 1_555
Cu6F_2 Br2F 1_555 1_555
Br1_2 Cu4 1_555 1_555
Br2F Cu5 1_555 1_555
Br3_2 Cu5 1_555 1_555
Br3A Cu6 1_555 1_555
Br3F Cu6 1_555 1_555
Br3D Cu3D 1_555 1_555
Br3D_2 Cu5D 1_555 1_555
Br4D Cu5D 1_555 1_555
Br5D Cu4 1_555 1_555
C1D N1D 1_555 1_555
C2D N2D 1_555 1_555
H1D N4D 1_555 1_555
H1G N4G 1_555 1_555
H2D N4D 1_555 1_555
H2G N4G 1_555 1_555
H3D N5D 1_555 1_555
H3G N5G 1_555 1_555
H4D N5D 1_555 1_555
H4G N5G 1_555 1_555
N1D Cu3D 1_555 1_555
N2D Cu1 1_555 1_555
N3D Cu5D 1_555 1_555
N4D Cu2D 1_555 1_555
N4G Cu2 1_555 1_555
N5D Cu4D 1_555 1_555
N5G Cu4 1_555 1_555
Cu6 Br4 1_555 1_555
C1 N3 1_555 1_555
C1 N4 1_555 1_555
C2 N3 1_555 1_555
Cu3D Br5D 1_555 1_555
Cu3_2 Br3_2 1_555 1_555
Cu5A Br3A 1_555 1_555
Cu6F_2 Br3_2 1_555 1_555
C1D N3D 1_555 1_555
C1D N4D 1_555 1_555
C2D N3D 1_555 1_555
C2D N5D 1_555 1_555
N1D N2D 1_555 1_555

#END
