
#######################################################################
#
#                 Cambridge Crystallographic Data Centre
#                                CCDC 
#
#######################################################################
#
# If this CIF has been generated from an entry in the Cambridge 
# Structural Database, then it will include bibliographic, chemical, 
# crystal, experimental, refinement or atomic coordinate data resulting 
# from the CCDC's data processing and validation procedures.
#
#######################################################################

data_COMHIW
_symmetry_cell_setting           monoclinic
_symmetry_space_group_name_H-M   'P 21/c'
_symmetry_Int_Tables_number      14
_space_group_name_Hall           '-P 2ybc'
loop_
_symmetry_equiv_pos_site_id
_symmetry_equiv_pos_as_xyz
1 x,y,z
2 -x,1/2+y,1/2-z
3 -x,-y,-z
4 x,1/2-y,1/2+z
_cell_length_a                   13.569(3)
_cell_length_b                   24.746(5)
_cell_length_c                   11.501(3)
_cell_angle_alpha                90
_cell_angle_beta                 97.175(3)
_cell_angle_gamma                90
_cell_volume                     3831.55
loop_
_atom_site_label
_atom_site_type_symbol
_atom_site_fract_x
_atom_site_fract_y
_atom_site_fract_z
P1 P -1.5000 0.0000 1.0000
Mo1 Mo -1.74971(6) 0.00671(4) 0.86485(8)
Mo2 Mo -1.69521(6) -0.02604(4) 1.16798(7)
Mo3 Mo -1.56112(6) 0.09636(3) 1.20832(6)
Mo4 Mo -1.35663(6) 0.12005(3) 1.04947(7)
Mo5 Mo -1.60545(6) 0.12573(3) 0.90377(7)
Mo6 Mo -1.44635(7) -0.02665(4) 1.30540(7)
O1 O -1.5368(8) 0.0129(4) 1.1183(8)
O2 O -1.5030(7) 0.0558(4) 1.0277(9)
O3 O -1.5723(8) 0.0326(4) 0.9047(9)
O4 O -1.6023(7) -0.0290(4) 0.9981(9)
O5 O -1.6207(5) 0.1263(3) 1.0668(5)
O6 O -1.4365(5) 0.1237(3) 1.1708(6)
O7 O -1.4189(6) -0.0402(3) 1.4472(6)
O8 O -1.8673(5) 0.0101(3) 0.8035(7)
O9 O -1.4718(5) 0.1458(3) 0.9457(5)
O10 O -1.2914(6) 0.1765(3) 1.0689(6)
O11 O -1.6550(6) 0.1850(4) 0.8635(7)
O12 O -1.5843(6) -0.0450(3) 1.2757(9)
O13 O -1.6860(8) -0.0927(4) 1.0930(7)
O14 O -1.4261(7) -0.0961(4) 1.2336(9)
O15 O -1.7884(6) -0.0381(3) 1.2457(7)
O16 O -1.2730(7) 0.0694(4) 1.1307(6)
O17 O -1.4841(6) 0.0456(3) 1.3056(8)
O18 O -1.3190(7) -0.0084(4) 1.2674(9)
O19 O -1.6680(6) 0.0474(3) 1.2042(10)
O20 O -1.7679(8) -0.0015(4) 1.0252(7)
O21 O -1.5880(6) 0.1423(4) 1.3038(7)
O22 O -1.7194(7) 0.0802(4) 0.8911(9)
Cu1 Cu -1.46231(13) 0.24254(6) 0.88507(11)
Cu2 Cu -2.03036(13) 0.04294(6) 0.72276(16)
Cu3 Cu -2.0000 -0.5000 0.5000
C1 C -1.4741(9) 0.2476(4) 1.1308(8)
H1 H -1.4989 0.2126 1.1310
C2 C -1.4239(7) 0.3240(4) 1.1893(8)
H2 H -1.4057 0.3538 1.2366
C3 C -1.3988(8) 0.3656(4) 0.9943(8)
H3 H -1.4370 0.3976 1.0077
H4 H -1.4189 0.3539 0.9143
C4 C -1.2925(9) 0.3802(5) 1.0068(13)
H5 H -1.2750 0.3961 1.0836
H6 H -1.2834 0.4078 0.9493
C5 C -1.2201(11) 0.3346(8) 0.9927(14)
H7 H -1.1544 0.3461 1.0270
H8 H -1.2385 0.3038 1.0374
C6 C -1.2142(14) 0.3178(6) 0.8788(15)
H9 H -1.1898 0.3466 0.8328
H10 H -1.2785 0.3060 0.8410
C7 C -1.1371(15) 0.2684(10) 0.895(2)
H11 H -1.0728 0.2807 0.9318
H12 H -1.1611 0.2404 0.9435
C8 C -1.1298(19) 0.2480(10) 0.778(2)
H13 H -1.0984 0.2744 0.7324
H14 H -1.1950 0.2394 0.7379
C9 C -1.0968(10) 0.1466(5) 0.7799(14)
H15 H -1.1630 0.1360 0.7709
C10 C -0.9447(9) 0.1488(5) 0.7999(11)
H16 H -0.8791 0.1375 0.8027
C11 C -2.1355(10) -0.0371(5) 0.5717(12)
H17 H -2.1954 -0.0185 0.5665
C12 C -1.9882(12) -0.0600(7) 0.6143(15)
H18 H -1.9218 -0.0593 0.6465
C13 C -2.1909(13) -0.1166(6) 0.4475(14)
H19 H -2.1600 -0.1327 0.3842
H20 H -2.2476 -0.0954 0.4139
C14 C -2.2240(12) -0.1604(8) 0.5268(13)
H21 H -2.1661 -0.1807 0.5598
H22 H -2.2518 -0.1433 0.5912
C15 C -2.2942(16) -0.1966(7) 0.4716(18)
H23 H -2.3504 -0.1759 0.4350
H24 H -2.3180 -0.2190 0.5315
C16 C -2.2592(11) -0.2337(6) 0.3791(14)
H25 H -2.2307 -0.2118 0.3218
H26 H -2.3162 -0.2525 0.3388
C17 C -2.1818(10) -0.2757(5) 0.4296(10)
H27 H -2.1213 -0.2576 0.4624
H28 H -2.2071 -0.2959 0.4918
C18 C -2.1597(10) -0.3138(5) 0.3337(11)
H29 H -2.2214 -0.3302 0.2988
H30 H -2.1329 -0.2933 0.2731
C19 C -2.1066(10) -0.4062(5) 0.4090(10)
H31 H -2.1688 -0.4220 0.4089
C20 C -1.9544(10) -0.3920(6) 0.4268(14)
H32 H -1.8866 -0.3987 0.4419
N1 N -1.4239(6) 0.3228(3) 1.0743(6)
N2 N -1.4559(7) 0.2733(3) 1.0362(6)
N3 N -1.4530(7) 0.2222(3) 0.7271(6)
N4 N -1.0660(9) 0.1970(5) 0.7971(13)
N5 N -0.9684(9) 0.1979(5) 0.8170(12)
N6 N -2.0226(7) 0.1143(4) 0.7775(8)
N7 N -2.0517(8) -0.0220(4) 0.6333(9)
N8 N -2.1201(9) -0.0825(5) 0.5192(10)
N9 N -2.0257(10) -0.0984(5) 0.5473(12)
N10 N -2.0902(7) -0.3563(4) 0.3742(9)
N11 N -1.9886(8) -0.3465(4) 0.3890(11)
N12 N -2.0220(8) -0.4298(4) 0.4433(9)
P1C P -1.5000 0.5000 1.5000
P1_2 P -0.5000 0.0000 1.0000
P1C_2 P -0.5000 0.5000 1.5000
Mo1B Mo -1.25029(6) -0.00671(4) 1.13515(8)
Mo1B_2 Mo -0.25029(6) -0.00671(4) 1.13515(8)
Mo1_2 Mo -0.74971(6) 0.00671(4) 0.86485(8)
Mo1A Mo -1.25029(6) 0.50671(4) 1.63515(8)
Mo1C Mo -1.74971(6) 0.49329(4) 1.36485(8)
Mo1A_2 Mo -0.25029(6) 0.50671(4) 1.63515(8)
Mo1C_2 Mo -0.74971(6) 0.49329(4) 1.36485(8)
Mo2B Mo -1.30479(6) 0.02604(4) 0.83202(7)
Mo2_2 Mo -0.69521(6) -0.02604(4) 1.16798(7)
Mo2C Mo -1.69521(6) 0.52604(4) 1.66798(7)
Mo2A Mo -1.30479(6) 0.47396(4) 1.33202(7)
Mo2C_2 Mo -0.69521(6) 0.52604(4) 1.66798(7)
Mo2B_2 Mo -0.30479(6) 0.02604(4) 0.83202(7)
Mo2A_2 Mo -0.30479(6) 0.47396(4) 1.33202(7)
Mo3B Mo -1.43888(6) -0.09636(3) 0.79168(6)
Mo3B_2 Mo -0.43888(6) -0.09636(3) 0.79168(6)
Mo3_2 Mo -0.56112(6) 0.09636(3) 1.20832(6)
Mo3A Mo -1.43888(6) 0.59636(3) 1.29168(6)
Mo3C Mo -1.56112(6) 0.40364(3) 1.70832(6)
Mo3A_2 Mo -0.43888(6) 0.59636(3) 1.29168(6)
Mo3C_2 Mo -0.56112(6) 0.40364(3) 1.70832(6)
Mo4B Mo -1.64337(6) -0.12005(3) 0.95053(7)
Mo4B_2 Mo -0.64337(6) -0.12005(3) 0.95053(7)
Mo4C Mo -1.35663(6) 0.37995(3) 1.54947(7)
Mo4A Mo -1.64337(6) 0.62005(3) 1.45053(7)
Mo4A_2 Mo -0.64337(6) 0.62005(3) 1.45053(7)
Mo4_2 Mo -1.35663(6) 0.12005(3) 2.04947(7)
Mo4B_3 Mo -0.64337(6) 1.87995(3) -0.04947(7)
Mo4A_3 Mo -0.64337(6) 1.62005(3) -0.54947(7)
Mo4_3 Mo -0.35663(6) 0.12005(3) 1.04947(7)
Mo4C_2 Mo -0.35663(6) 0.37995(3) 1.54947(7)
Mo5B Mo -1.39455(6) -0.12573(3) 1.09623(7)
Mo5B_2 Mo -0.39455(6) -0.12573(3) 1.09623(7)
Mo5A Mo -1.39455(6) 0.62573(3) 1.59623(7)
Mo5C Mo -1.60545(6) 0.37427(3) 1.40377(7)
Mo5A_2 Mo -0.39455(6) 0.62573(3) 1.59623(7)
Mo5_2 Mo -1.60545(6) 0.12573(3) 1.90377(7)
Mo5B_3 Mo -0.39455(6) 1.87427(3) 0.09623(7)
Mo5A_3 Mo -0.39455(6) 1.62573(3) -0.40377(7)
Mo5_3 Mo -0.60545(6) 0.12573(3) 0.90377(7)
Mo5C_2 Mo -0.60545(6) 0.37427(3) 1.40377(7)
Mo6B Mo -1.55365(7) 0.02665(4) 0.69460(7)
Mo6_2 Mo -0.44635(7) -0.02665(4) 1.30540(7)
Mo6A Mo -1.55365(7) 0.47335(4) 1.19460(7)
Mo6C Mo -1.44635(7) 0.52665(4) 1.80540(7)
Mo6C_2 Mo -0.44635(7) 0.52665(4) 1.80540(7)
Mo6B_2 Mo -0.55365(7) 0.02665(4) 0.69460(7)
Mo6A_2 Mo -0.55365(7) 0.47335(4) 1.19460(7)
O1B O -1.4632(8) -0.0129(4) 0.8817(8)
O1_2 O -0.5368(8) 0.0129(4) 1.1183(8)
O1B_2 O -0.4632(8) -0.0129(4) 0.8817(8)
O1C O -1.5368(8) 0.4871(4) 1.6183(8)
O1A O -1.4632(8) 0.5129(4) 1.3817(8)
O1C_2 O -0.5368(8) 0.4871(4) 1.6183(8)
O1A_2 O -0.4632(8) 0.5129(4) 1.3817(8)
O2B O -1.4970(7) -0.0558(4) 0.9723(9)
O2B_2 O -0.4970(7) -0.0558(4) 0.9723(9)
O2_2 O -0.5030(7) 0.0558(4) 1.0277(9)
O2C O -1.5030(7) 0.4442(4) 1.5277(9)
O2A O -1.4970(7) 0.5558(4) 1.4723(9)
O2A_2 O -0.4970(7) 0.5558(4) 1.4723(9)
O2C_2 O -0.5030(7) 0.4442(4) 1.5277(9)
O3B O -1.4277(8) -0.0326(4) 1.0953(9)
O3B_2 O -0.4277(8) -0.0326(4) 1.0953(9)
O3_2 O -0.5723(8) 0.0326(4) 0.9047(9)
O3C O -1.5723(8) 0.4674(4) 1.4047(9)
O3A O -1.4277(8) 0.5326(4) 1.5953(9)
O3A_2 O -0.4277(8) 0.5326(4) 1.5953(9)
O3C_2 O -0.5723(8) 0.4674(4) 1.4047(9)
O4B O -1.3977(7) 0.0290(4) 1.0019(9)
O4_2 O -0.6023(7) -0.0290(4) 0.9981(9)
O4B_2 O -0.3977(7) 0.0290(4) 1.0019(9)
O4C O -1.6023(7) 0.5290(4) 1.4981(9)
O4A O -1.3977(7) 0.4710(4) 1.5019(9)
O4C_2 O -0.6023(7) 0.5290(4) 1.4981(9)
O4A_2 O -0.3977(7) 0.4710(4) 1.5019(9)
O5B O -0.3793(5) -0.1263(3) 0.9332(5)
O5_2 O -0.6207(5) 0.1263(3) 1.0668(5)
O5B_2 O -1.3793(5) -0.1263(3) 0.9332(5)
O5C O -1.6207(5) 0.3737(3) 1.5668(5)
O5A O -0.3793(5) 0.6263(3) 1.4332(5)
O5C_2 O -0.6207(5) 0.3737(3) 1.5668(5)
O5A_2 O -1.3793(5) 0.6263(3) 1.4332(5)
O6B O -0.5635(5) -0.1237(3) 0.8292(6)
O6_2 O -0.4365(5) 0.1237(3) 1.1708(6)
O6B_2 O -1.5635(5) -0.1237(3) 0.8292(6)
O6C O -1.4365(5) 0.3763(3) 1.6708(6)
O6A O -0.5635(5) 0.6237(3) 1.3292(6)
O6C_2 O -0.4365(5) 0.3763(3) 1.6708(6)
O6A_2 O -1.5635(5) 0.6237(3) 1.3292(6)
O7B O -1.5811(6) 0.0402(3) 0.5528(6)
O7_2 O -0.4189(6) -0.0402(3) 1.4472(6)
O7A O -1.5811(6) 0.4598(3) 1.0528(6)
O7C O -0.4189(6) 0.5402(3) 1.9472(6)
O7C_2 O -1.4189(6) 0.5402(3) 1.9472(6)
O7A_2 O -0.5811(6) 0.4598(3) 1.0528(6)
O7B_2 O -0.5811(6) 0.0402(3) 0.5528(6)
O8B O -1.1327(5) -0.0101(3) 1.1965(7)
O8B_2 O -0.1327(5) -0.0101(3) 1.1965(7)
O8_2 O -0.8673(5) 0.0101(3) 0.8035(7)
O8A O -1.1327(5) 0.5101(3) 1.6965(7)
O8A_2 O -0.1327(5) 0.5101(3) 1.6965(7)
O8C O -0.8673(5) 0.4899(3) 1.3035(7)
O8C_2 O -1.8673(5) 0.4899(3) 1.3035(7)
O8A_3 O -1.1327(5) 1.5101(3) 0.6965(7)
O8B_3 O -1.1327(5) 1.9899(3) 0.1965(7)
O8_3 O -0.8673(5) 3.0101(3) 0.8035(7)
O9B O -0.5282(5) -0.1458(3) 1.0543(5)
O9C O -1.4718(5) 0.3542(3) 1.4457(5)
O9A O -0.5282(5) 0.6458(3) 1.5543(5)
O9_2 O -1.4718(5) 0.1458(3) 1.9457(5)
O9B_2 O -0.5282(5) 1.8542(3) 0.0543(5)
O9A_2 O -0.5282(5) 1.6458(3) -0.4457(5)
O9A_3 O -1.5282(5) 0.6458(3) 1.5543(5)
O9B_3 O -1.5282(5) -0.1458(3) 1.0543(5)
O9_3 O -0.4718(5) 0.1458(3) 0.9457(5)
O9C_2 O -0.4718(5) 0.3542(3) 1.4457(5)
O10B O -0.7086(6) -0.1765(3) 0.9311(6)
O10C O -1.2914(6) 0.3235(3) 1.5689(6)
O10A O -0.7086(6) 0.6765(3) 1.4311(6)
O10A_2 O -1.7086(6) 0.6765(3) 1.4311(6)
O10B_2 O -1.7086(6) -0.1765(3) 0.9311(6)
O10_2 O -0.2914(6) 0.1765(3) 1.0689(6)
O10C_2 O -0.2914(6) 0.3235(3) 1.5689(6)
O11B O -0.3450(6) -0.1850(4) 1.1365(7)
O11C O -1.6550(6) 0.3150(4) 1.3635(7)
O11A O -0.3450(6) 0.6850(4) 1.6365(7)
O11A_2 O -1.3450(6) 0.6850(4) 1.6365(7)
O11B_2 O -1.3450(6) -0.1850(4) 1.1365(7)
O11_2 O -0.6550(6) 0.1850(4) 0.8635(7)
O11C_2 O -0.6550(6) 0.3150(4) 1.3635(7)
O12B O -1.4157(6) 0.0450(3) 0.7243(9)
O12_2 O -0.5843(6) -0.0450(3) 1.2757(9)
O12A O -1.4157(6) 0.4550(3) 1.2243(9)
O12C O -0.5843(6) 0.5450(3) 1.7757(9)
O12C_2 O -1.5843(6) 0.5450(3) 1.7757(9)
O12A_2 O -0.4157(6) 0.4550(3) 1.2243(9)
O12B_2 O -0.4157(6) 0.0450(3) 0.7243(9)
O13B O -1.3140(8) 0.0927(4) 0.9070(7)
O13_2 O -0.6860(8) -0.0927(4) 1.0930(7)
O13A O -1.3140(8) 0.4073(4) 1.4070(7)
O13C O -0.6860(8) 0.5927(4) 1.5930(7)
O13C_2 O -1.6860(8) 0.5927(4) 1.5930(7)
O13B_2 O -0.3140(8) 0.0927(4) 0.9070(7)
O13A_2 O -0.3140(8) 0.4073(4) 1.4070(7)
O14B O -1.5739(7) 0.0961(4) 0.7664(9)
O14_2 O -0.4261(7) -0.0961(4) 1.2336(9)
O14A O -1.5739(7) 0.4039(4) 1.2664(9)
O14C O -0.4261(7) 0.5961(4) 1.7336(9)
O14C_2 O -1.4261(7) 0.5961(4) 1.7336(9)
O14B_2 O -0.5739(7) 0.0961(4) 0.7664(9)
O14A_2 O -0.5739(7) 0.4039(4) 1.2664(9)
O15_2 O -0.7884(6) -0.0381(3) 1.2457(7)
O15B O -1.2116(6) 0.0381(3) 0.7543(7)
O15C O -0.7884(6) 0.5381(3) 1.7457(7)
O15A O -1.2116(6) 0.4619(3) 1.2543(7)
O15C_2 O -1.7884(6) 0.5381(3) 1.7457(7)
O15C_3 O -0.7884(6) 1.5381(3) 0.7457(7)
O15_3 O -0.7884(6) 1.9619(3) 0.2457(7)
O15B_2 O -1.2116(6) 3.0381(3) 0.7543(7)
O15B_3 O -2.2116(6) 0.0381(3) 0.7543(7)
O15A_2 O -0.2116(6) 0.4619(3) 1.2543(7)
O15B_4 O -0.2116(6) 0.0381(3) 0.7543(7)
O16_2 O -0.2730(7) 0.0694(4) 1.1307(6)
O16B O -0.7270(7) -0.0694(4) 0.8693(6)
O16B_2 O -1.7270(7) -0.0694(4) 0.8693(6)
O16C O -1.2730(7) 0.4306(4) 1.6307(6)
O16C_2 O -0.2730(7) 0.4306(4) 1.6307(6)
O16A O -0.7270(7) 0.5694(4) 1.3693(6)
O16A_2 O -1.7270(7) 0.5694(4) 1.3693(6)
O17_2 O -0.4841(6) 0.0456(3) 1.3056(8)
O17B O -1.5159(6) -0.0456(3) 0.6944(8)
O17C O -0.4841(6) 0.4544(3) 1.8056(8)
O17A O -1.5159(6) 0.5456(3) 1.1944(8)
O17A_2 O -0.5159(6) 0.5456(3) 1.1944(8)
O17C_2 O -1.4841(6) 0.4544(3) 1.8056(8)
O17B_2 O -0.5159(6) -0.0456(3) 0.6944(8)
O18_2 O -0.3190(7) -0.0084(4) 1.2674(9)
O18B O -1.6810(7) 0.0084(4) 0.7326(9)
O18C O -0.3190(7) 0.5084(4) 1.7674(9)
O18A O -1.6810(7) 0.4916(4) 1.2326(9)
O18C_2 O -1.3190(7) 0.5084(4) 1.7674(9)
O18A_2 O -0.6810(7) 0.4916(4) 1.2326(9)
O18B_2 O -0.6810(7) 0.0084(4) 0.7326(9)
O19_2 O -0.6680(6) 0.0474(3) 1.2042(10)
O19B O -1.3320(6) -0.0474(3) 0.7958(10)
O19C O -0.6680(6) 0.4526(3) 1.7042(10)
O19A O -1.3320(6) 0.5474(3) 1.2958(10)
O19C_2 O -1.6680(6) 0.4526(3) 1.7042(10)
O19A_2 O -0.3320(6) 0.5474(3) 1.2958(10)
O19B_2 O -0.3320(6) -0.0474(3) 0.7958(10)
O20B O -1.2321(8) 0.0015(4) 0.9748(7)
O20C O -1.7679(8) 0.5015(4) 1.5252(7)
O20A O -1.2321(8) 0.4985(4) 1.4748(7)
O20C_2 O -0.7679(8) 0.5015(4) 1.5252(7)
O20A_2 O -0.2321(8) 0.4985(4) 1.4748(7)
O20_2 O -0.7679(8) -0.0015(4) 1.0252(7)
O20B_2 O -0.2321(8) 0.0015(4) 0.9748(7)
O21B O -1.4120(6) -0.1423(4) 0.6962(7)
O21A O -1.4120(6) 0.6423(4) 1.1962(7)
O21C O -0.5880(6) 0.3577(4) 1.8038(7)
O21A_2 O -0.4120(6) 0.6423(4) 1.1962(7)
O21C_2 O -1.5880(6) 0.3577(4) 1.8038(7)
O21_2 O -0.5880(6) 0.1423(4) 1.3038(7)
O21B_2 O -0.4120(6) -0.1423(4) 0.6962(7)
O22B O -0.2806(7) -0.0802(4) 1.1089(9)
O22B_2 O -1.2806(7) -0.0802(4) 1.1089(9)
O22A O -0.2806(7) 0.5802(4) 1.6089(9)
O22C O -1.7194(7) 0.4198(4) 1.3911(9)
O22A_2 O -1.2806(7) 0.5802(4) 1.6089(9)
O22C_2 O -0.7194(7) 0.4198(4) 1.3911(9)
O22_2 O -0.7194(7) 0.0802(4) 0.8911(9)
Cu1C Cu -1.46231(13) 0.25746(6) 1.38507(11)
Cu1_2 Cu -1.46231(13) 0.24254(6) 1.88507(11)
Cu1C_2 Cu -1.46231(13) 0.25746(6) 2.38507(11)
Cu1B Cu -0.53769(13) 1.75746(6) 0.11493(11)
Cu1A Cu -0.53769(13) 1.74254(6) -0.38507(11)
Cu1B_2 Cu -0.53769(13) 1.75746(6) -0.88507(11)
Cu1A_2 Cu -0.53769(13) 0.74254(6) 1.61493(11)
Cu1B_3 Cu -0.53769(13) -0.24254(6) 1.11493(11)
Cu1A_3 Cu -0.53769(13) 1.74254(6) 0.61493(11)
Cu2B Cu -0.96964(13) -0.04294(6) 1.27724(16)
Cu2_2 Cu -1.03036(13) 0.04294(6) 0.72276(16)
Cu2A Cu -0.96964(13) 0.54294(6) 1.77724(16)
Cu2C Cu -1.03036(13) 0.45706(6) 1.22276(16)
Cu2A_2 Cu -0.96964(13) 1.54294(6) 0.77724(16)
Cu2B_2 Cu -0.96964(13) 1.95706(6) 0.27724(16)
Cu2_3 Cu -1.03036(13) 3.04294(6) 0.72276(16)
Cu2B_3 Cu -1.96964(13) -0.04294(6) 1.27724(16)
Cu3C Cu -1.0000 1.0000 1.0000
Cu3_2 Cu -1.0000 2.5000 0.5000
C1_2 C -1.4741(9) 0.2476(4) 2.1308(8)
C1C C -1.4741(9) 0.2524(4) 1.6308(8)
C1B C -0.5259(9) 1.7524(4) -0.1308(8)
C1A C -0.5259(9) 1.7476(4) -0.6308(8)
C1A_2 C -0.5259(9) 1.7476(4) 0.3692(8)
C1C_2 C -1.4741(9) 0.2524(4) 0.6308(8)
H1_2 H -1.4989 0.2126 2.1310
H1C H -1.4989 0.2874 1.6310
H1B H -0.5011 1.7874 -0.1310
H1A H -0.5011 1.7126 -0.6310
H1A_2 H -0.5011 1.7126 0.3690
C2C C -1.4239(7) 0.1760(4) 1.6893(8)
C2_2 C -1.4239(7) 0.3240(4) 2.1893(8)
C2A C -0.5761(7) 1.8240(4) 0.3107(8)
C2A_2 C -0.5761(7) 1.8240(4) -0.6893(8)
C2B C -0.5761(7) 1.6760(4) -0.1893(8)
C2C_2 C -1.4239(7) 0.1760(4) 0.6893(8)
H2C H -1.4057 0.1462 1.7366
H2A H -0.5943 1.8538 0.2634
H2B H -0.5943 1.6462 -0.2366
C3C C -1.3988(8) 0.1344(4) 1.4943(8)
C3_2 C -1.3988(8) 0.3656(4) 1.9943(8)
C3A C -0.6012(8) 1.8656(4) 0.5057(8)
C3A_2 C -0.6012(8) 1.8656(4) -0.4943(8)
C3B C -0.6012(8) 1.6344(4) 0.0057(8)
H3C H -1.4370 0.1024 1.5077
H3A H -0.5630 1.8976 0.4923
H3B H -0.5630 1.6024 -0.0077
H4C H -1.4189 0.1461 1.4143
H4A H -0.5811 1.8539 0.5857
H4B H -0.5811 1.6461 0.0857
C4C C -1.2925(9) 0.1198(5) 1.5068(13)
C4A C -0.7075(9) 1.8802(5) 0.4932(13)
C4B C -0.7075(9) 1.6198(5) -0.0068(13)
H5C H -1.2750 0.1039 1.5836
H5B H -0.7250 1.6039 -0.0836
H5A H -0.7250 1.8961 0.4164
H6C H -1.2834 0.0922 1.4493
H6B H -0.7166 1.5922 0.0507
H6A H -0.7166 1.9078 0.5507
C5C C -1.2201(11) 0.1654(8) 1.4927(14)
C5A C -0.7799(11) 1.8346(8) 0.5073(14)
C5B C -0.7799(11) 1.6654(8) 0.0073(14)
H7C H -1.1544 0.1539 1.5270
H7B H -0.8456 1.6539 -0.0270
H7A H -0.8456 1.8461 0.4730
H8C H -1.2385 0.1962 1.5374
H8B H -0.7615 1.6962 -0.0374
H8A H -0.7615 1.8038 0.4626
C6C C -1.2142(14) 0.1822(6) 1.3788(15)
C6A C -0.7858(14) 1.8178(6) 0.6212(15)
C6B C -0.7858(14) 1.6822(6) 0.1212(15)
H9C H -1.1898 0.1534 1.3328
H9B H -0.8102 1.6534 0.1672
H9A H -0.8102 1.8466 0.6672
H10C H -1.2785 0.1940 1.3410
H10B H -0.7215 1.6940 0.1590
H10A H -0.7215 1.8060 0.6590
C7C C -1.1371(15) 0.2316(10) 1.395(2)
C7A C -0.8629(15) 1.7684(10) 0.605(2)
C7B C -0.8629(15) 1.7316(10) 0.105(2)
H11C H -1.0728 0.2193 1.4318
H11B H -0.9272 1.7193 0.0682
H11A H -0.9272 1.7807 0.5682
H12C H -1.1611 0.2596 1.4435
H12B H -0.8389 1.7596 0.0565
H12A H -0.8389 1.7404 0.5565
C8C C -1.1298(19) 0.2520(10) 1.278(2)
C8A C -0.8702(19) 1.7480(10) 0.722(2)
C8B C -0.8702(19) 1.7520(10) 0.222(2)
H13C H -1.0984 0.2256 1.2324
H13B H -0.9016 1.7256 0.2676
H13A H -0.9016 1.7744 0.7676
H14C H -1.1950 0.2606 1.2379
H14B H -0.8050 1.7606 0.2621
H14A H -0.8050 1.7394 0.7621
C9C C -1.0968(10) 0.3534(5) 1.2799(14)
C9A C -0.9032(10) 1.6466(5) 0.7201(14)
C9B C -0.9032(10) 1.8534(5) 0.2201(14)
C9_2 C -2.0968(10) 0.1466(5) 0.7799(14)
H15C H -1.1630 0.3640 1.2709
H15A H -0.8370 1.6360 0.7291
H15B H -0.8370 1.8640 0.2291
C10C C -0.9447(9) 0.3512(5) 1.2999(11)
C10B C -1.0553(9) 1.8512(5) 0.2001(11)
C10A C -1.0553(9) 1.6488(5) 0.7001(11)
C10_2 C -1.9447(9) 0.1488(5) 0.7999(11)
H16C H -0.8791 0.3625 1.3027
H16B H -1.1209 1.8625 0.1973
H16A H -1.1209 1.6375 0.6973
C11C C -1.1355(10) 0.5371(5) 1.0717(12)
C11A C -0.8645(10) 1.4629(5) 0.9283(12)
C11B C -0.8645(10) 2.0371(5) 0.4283(12)
C11_2 C -1.1355(10) 2.9629(5) 0.5717(12)
H17C H -1.1954 0.5185 1.0665
H17A H -0.8046 1.4815 0.9335
H17B H -0.8046 2.0185 0.4335
H17_2 H -1.1954 2.9815 0.5665
C12_2 C -0.9882(12) 2.9400(7) 0.6143(15)
C12B C -1.0118(12) 2.0600(7) 0.3857(15)
C12A C -1.0118(12) 1.4400(7) 0.8857(15)
C12C C -0.9882(12) 0.5600(7) 1.1143(15)
H18_2 H -0.9218 2.9407 0.6465
H18B H -1.0782 2.0593 0.3535
H18A H -1.0782 1.4407 0.8535
H18C H -0.9218 0.5593 1.1465
C13C C -1.1909(13) 0.6166(6) 0.9475(14)
C13A C -0.8091(13) 1.3834(6) 1.0525(14)
C13B C -0.8091(13) 2.1166(6) 0.5525(14)
C13_2 C -1.1909(13) 2.8834(6) 0.4475(14)
H19C H -1.1600 0.6327 0.8842
H19A H -0.8400 1.3673 1.1158
H19B H -0.8400 2.1327 0.6158
H19_2 H -1.1600 2.8673 0.3842
H20C H -1.2476 0.5954 0.9139
H20A H -0.7524 1.4046 1.0861
H20B H -0.7524 2.0954 0.5861
H20_2 H -1.2476 2.9046 0.4139
C14C C -1.2240(12) 0.6604(8) 1.0268(13)
C14A C -0.7760(12) 1.3396(8) 0.9732(13)
C14B C -0.7760(12) 2.1604(8) 0.4732(13)
C14_2 C -1.2240(12) 2.8396(8) 0.5268(13)
H21C H -1.1661 0.6807 1.0598
H21B H -0.8339 2.1807 0.4402
H21_2 H -1.1661 2.8193 0.5598
H21A H -0.8339 1.3193 0.9402
H22C H -1.2518 0.6433 1.0912
H22B H -0.7482 2.1433 0.4088
H22_2 H -1.2518 2.8567 0.5912
H22A H -0.7482 1.3567 0.9088
C15C C -1.2942(16) 0.6966(7) 0.9716(18)
C15A C -0.7058(16) 1.3034(7) 1.0284(18)
C15B C -0.7058(16) 2.1966(7) 0.5284(18)
C15_2 C -1.2942(16) 2.8034(7) 0.4716(18)
H23C H -1.3504 0.6759 0.9350
H23B H -0.6496 2.1759 0.5650
H23_2 H -1.3504 2.8241 0.4350
H23A H -0.6496 1.3241 1.0650
H24C H -1.3180 0.7190 1.0315
H24B H -0.6820 2.2190 0.4685
H24_2 H -1.3180 2.7810 0.5315
H24A H -0.6820 1.2810 0.9685
C16C C -1.2592(11) 0.7337(6) 0.8791(14)
C16A C -0.7408(11) 1.2663(6) 1.1209(14)
C16B C -0.7408(11) 2.2337(6) 0.6209(14)
C16_2 C -1.2592(11) 2.7663(6) 0.3791(14)
H25C H -1.2307 0.7118 0.8218
H25B H -0.7693 2.2118 0.6782
H25_2 H -1.2307 2.7882 0.3218
H25A H -0.7693 1.2882 1.1782
H26C H -1.3162 0.7525 0.8388
H26B H -0.6838 2.2525 0.6612
H26_2 H -1.3162 2.7475 0.3388
H26A H -0.6838 1.2475 1.1612
C17C C -1.1818(10) 0.7757(5) 0.9296(10)
C17A C -0.8182(10) 1.2243(5) 1.0704(10)
C17B C -0.8182(10) 2.2757(5) 0.5704(10)
C17_2 C -1.1818(10) 2.7243(5) 0.4296(10)
H27C H -1.1213 0.7576 0.9624
H27B H -0.8787 2.2576 0.5376
H27_2 H -1.1213 2.7424 0.4624
H27A H -0.8787 1.2424 1.0376
H28C H -1.2071 0.7959 0.9918
H28B H -0.7929 2.2959 0.5082
H28_2 H -1.2071 2.7041 0.4918
H28A H -0.7929 1.2041 1.0082
C18C C -1.1597(10) 0.8138(5) 0.8337(11)
C18A C -0.8403(10) 1.1862(5) 1.1663(11)
C18B C -0.8403(10) 2.3138(5) 0.6663(11)
C18_2 C -1.1597(10) 2.6862(5) 0.3337(11)
H29C H -1.2214 0.8302 0.7988
H29B H -0.7786 2.3302 0.7012
H29_2 H -1.2214 2.6698 0.2988
H29A H -0.7786 1.1698 1.2012
H30C H -1.1329 0.7933 0.7731
H30B H -0.8671 2.2933 0.7269
H30_2 H -1.1329 2.7067 0.2731
H30A H -0.8671 1.2067 1.2269
C19C C -1.1066(10) 0.9062(5) 0.9090(10)
C19A C -0.8934(10) 1.0938(5) 1.0910(10)
C19B C -0.8934(10) 2.4062(5) 0.5910(10)
C19_2 C -1.1066(10) 2.5938(5) 0.4090(10)
H31C H -1.1688 0.9220 0.9089
H31A H -0.8312 1.0780 1.0911
H31B H -0.8312 2.4220 0.5911
H31_2 H -1.1688 2.5780 0.4089
C20_2 C -0.9544(10) 2.6080(6) 0.4268(14)
C20B C -1.0456(10) 2.3920(6) 0.5732(14)
C20A C -1.0456(10) 1.1080(6) 1.0732(14)
C20C C -0.9544(10) 0.8920(6) 0.9268(14)
H32_2 H -0.8866 2.6013 0.4419
H32B H -1.1134 2.3987 0.5581
H32A H -1.1134 1.1013 1.0581
H32C H -0.8866 0.8987 0.9419
N1C N -1.4239(6) 0.1772(3) 1.5743(6)
N1_2 N -1.4239(6) 0.3228(3) 2.0743(6)
N1A N -0.5761(6) 1.8228(3) 0.4257(6)
N1A_2 N -0.5761(6) 1.8228(3) -0.5743(6)
N1B N -0.5761(6) 1.6772(3) -0.0743(6)
N2_2 N -1.4559(7) 0.2733(3) 2.0362(6)
N2C N -1.4559(7) 0.2267(3) 1.5362(6)
N2B N -0.5441(7) 1.7267(3) -0.0362(6)
N2A N -0.5441(7) 1.7733(3) -0.5362(6)
N2A_2 N -0.5441(7) 1.7733(3) 0.4638(6)
N3C N -1.4530(7) 0.2778(3) 1.2271(6)
N3_2 N -1.4530(7) 0.2222(3) 1.7271(6)
N3C_2 N -1.4530(7) 0.2778(3) 2.2271(6)
N3B N -0.5470(7) 1.7778(3) 0.2729(6)
N3A N -0.5470(7) 1.7222(3) -0.2271(6)
N3B_2 N -0.5470(7) 1.7778(3) -0.7271(6)
N4C N -1.0660(9) 0.3030(5) 1.2971(13)
N4A N -0.9340(9) 1.6970(5) 0.7029(13)
N4B N -0.9340(9) 1.8030(5) 0.2029(13)
N5C N -0.9684(9) 0.3021(5) 1.3170(12)
N5B N -1.0316(9) 1.8021(5) 0.1830(12)
N5A N -1.0316(9) 1.6979(5) 0.6830(12)
N6_2 N -1.0226(7) 0.1143(4) 0.7775(8)
N6C N -1.0226(7) 0.3857(4) 1.2775(8)
N6A N -0.9774(7) 1.6143(4) 0.7225(8)
N6B N -0.9774(7) 1.8857(4) 0.2225(8)
N6_3 N -1.0226(7) 3.1143(4) 0.7775(8)
N6A_2 N -0.9774(7) 0.6143(4) 1.7225(8)
N6B_2 N -0.9774(7) -0.1143(4) 1.2225(8)
N7C N -1.0517(8) 0.5220(4) 1.1333(9)
N7A N -0.9483(8) 1.4780(4) 0.8667(9)
N7B N -0.9483(8) 2.0220(4) 0.3667(9)
N7_2 N -1.0517(8) 2.9780(4) 0.6333(9)
N7A_2 N -0.9483(8) 0.4780(4) 1.8667(9)
N7_3 N -1.0517(8) -0.0220(4) 0.6333(9)
N7B_2 N -0.9483(8) 0.0220(4) 1.3667(9)
N8C N -1.1201(9) 0.5825(5) 1.0192(10)
N8A N -0.8799(9) 1.4175(5) 0.9808(10)
N8B N -0.8799(9) 2.0825(5) 0.4808(10)
N8_2 N -1.1201(9) 2.9175(5) 0.5192(10)
N9_2 N -1.0257(10) 2.9016(5) 0.5473(12)
N9B N -0.9743(10) 2.0984(5) 0.4527(12)
N9A N -0.9743(10) 1.4016(5) 0.9527(12)
N9C N -1.0257(10) 0.5984(5) 1.0473(12)
N10C N -1.0902(7) 0.8563(4) 0.8742(9)
N10A N -0.9098(7) 1.1437(4) 1.1258(9)
N10B N -0.9098(7) 2.3563(4) 0.6258(9)
N10_2 N -1.0902(7) 2.6437(4) 0.3742(9)
N11_2 N -0.9886(8) 2.6535(4) 0.3890(11)
N11B N -1.0114(8) 2.3465(4) 0.6110(11)
N11A N -1.0114(8) 1.1535(4) 1.1110(11)
N11C N -0.9886(8) 0.8465(4) 0.8890(11)
N12C N -1.0220(8) 0.9298(4) 0.9433(9)
N12A N -0.9780(8) 1.0702(4) 1.0567(9)
N12B N -0.9780(8) 2.4298(4) 0.5567(9)
N12_2 N -1.0220(8) 2.5702(4) 0.4433(9)
N12B_2 N -1.9780(8) -0.5702(4) 0.5567(9)
loop_
_geom_bond_atom_site_label_1
_geom_bond_atom_site_label_2
_geom_bond_site_symmetry_1
_geom_bond_site_symmetry_2
P1 O1 1_555 1_555
Mo1 O3 1_555 1_555
Mo2 O1 1_555 1_555
Mo3 O1 1_555 1_555
Mo4 O2 1_555 1_555
Mo5 O2 1_555 1_555
Mo6 O1 1_555 1_555
O1 O2 1_555 1_555
O2 P1 1_555 1_555
O3 P1 1_555 1_555
O4 P1 1_555 1_555
O5 Mo3 1_555 1_555
O6 Mo3 1_555 1_555
O7 Mo6 1_555 1_555
O8 Mo1 1_555 1_555
O9 Mo4 1_555 1_555
O10 Mo4 1_555 1_555
O11 Mo5 1_555 1_555
O12 Mo2 1_555 1_555
O13 Mo2 1_555 1_555
O14 Mo6 1_555 1_555
O15 Mo2 1_555 1_555
O16 Mo4 1_555 1_555
O17 Mo3 1_555 1_555
O18 Mo6 1_555 1_555
O19 Mo2 1_555 1_555
O20 Mo1 1_555 1_555
O21 Mo3 1_555 1_555
O22 Mo1 1_555 1_555
Cu1 O9 1_555 1_555
Cu2 O8 1_555 1_555
Cu3 N12 1_555 1_555
C1 H1 1_555 1_555
C2 H2 1_555 1_555
C3 H3 1_555 1_555
H4 C3 1_555 1_555
C4 C3 1_555 1_555
H5 C4 1_555 1_555
H6 C4 1_555 1_555
C5 C4 1_555 1_555
H7 C5 1_555 1_555
H8 C5 1_555 1_555
C6 C5 1_555 1_555
H9 C6 1_555 1_555
H10 C6 1_555 1_555
C7 C6 1_555 1_555
H11 C7 1_555 1_555
H12 C7 1_555 1_555
C8 C7 1_555 1_555
H13 C8 1_555 1_555
H14 C8 1_555 1_555
C9 H15 1_555 1_555
C10 H16 1_555 1_555
C11 H17 1_555 1_555
C12 H18 1_555 1_555
C13 H19 1_555 1_555
H20 C13 1_555 1_555
C14 C13 1_555 1_555
H21 C14 1_555 1_555
H22 C14 1_555 1_555
C15 C14 1_555 1_555
H23 C15 1_555 1_555
H24 C15 1_555 1_555
C16 C15 1_555 1_555
H25 C16 1_555 1_555
H26 C16 1_555 1_555
C17 C16 1_555 1_555
H27 C17 1_555 1_555
H28 C17 1_555 1_555
C18 C17 1_555 1_555
H29 C18 1_555 1_555
H30 C18 1_555 1_555
C19 H31 1_555 1_555
C20 H32 1_555 1_555
N1 C2 1_555 1_555
N2 Cu1 1_555 1_555
N3 Cu1 1_555 1_555
N4 C8 1_555 1_555
N5 C10 1_555 1_555
N6 Cu2 1_555 1_555
N7 Cu2 1_555 1_555
N8 C11 1_555 1_555
N9 C12 1_555 1_555
N10 C18 1_555 1_555
N11 C20 1_555 1_555
N12 C19 1_555 1_555
P1C O1C 1_555 1_555
P1_2 O1_2 1_555 1_555
P1C_2 O1C_2 1_555 1_555
Mo1B O16 1_555 1_555
Mo1B_2 O3B_2 1_555 1_555
Mo1_2 O3_2 1_555 1_555
Mo1A O3A 1_555 1_555
Mo1C O3C 1_555 1_555
Mo1A_2 O3A_2 1_555 1_555
Mo1C_2 O3C_2 1_555 1_555
Mo2B O1B 1_555 1_555
Mo2_2 O1_2 1_555 1_555
Mo2C O1C 1_555 1_555
Mo2A O1A 1_555 1_555
Mo2C_2 O1C_2 1_555 1_555
Mo2B_2 O1B_2 1_555 1_555
Mo2A_2 O1A_2 1_555 1_555
Mo3B O1B 1_555 1_555
Mo3B_2 O1B_2 1_555 1_555
Mo3_2 O1_2 1_555 1_555
Mo3A O1A 1_555 1_555
Mo3C O1C 1_555 1_555
Mo3A_2 O1A_2 1_555 1_555
Mo3C_2 O1C_2 1_555 1_555
Mo4B O4 1_555 1_555
Mo4B_2 O2B_2 1_555 1_555
Mo4C O2C 1_555 1_555
Mo4A O2A 1_555 1_555
Mo4A_2 O2A_2 1_555 1_555
Mo4_2 O9_2 1_555 1_555
Mo4B_3 O9B_2 1_555 1_555
Mo4A_3 O9A_2 1_555 1_555
Mo4_3 O2_2 1_555 1_555
Mo4C_2 O2C_2 1_555 1_555
Mo5B O14 1_555 1_555
Mo5B_2 O2B_2 1_555 1_555
Mo5A O2A 1_555 1_555
Mo5C O2C 1_555 1_555
Mo5A_2 O2A_2 1_555 1_555
Mo5_2 O9_2 1_555 1_555
Mo5B_3 O9B_2 1_555 1_555
Mo5A_3 O9A_2 1_555 1_555
Mo5_3 O2_2 1_555 1_555
Mo5C_2 O2C_2 1_555 1_555
Mo6B O3 1_555 1_555
Mo6_2 O1_2 1_555 1_555
Mo6A O1A 1_555 1_555
Mo6C O1C 1_555 1_555
Mo6C_2 O1C_2 1_555 1_555
Mo6B_2 O1B_2 1_555 1_555
Mo6A_2 O1A_2 1_555 1_555
O1B P1 1_555 1_555
O1_2 O2_2 1_555 1_555
O1B_2 P1_2 1_555 1_555
O1C O2C 1_555 1_555
O1A P1C 1_555 1_555
O1C_2 O2C_2 1_555 1_555
O1A_2 P1C_2 1_555 1_555
O2B P1 1_555 1_555
O2B_2 P1_2 1_555 1_555
O2_2 P1_2 1_555 1_555
O2C P1C 1_555 1_555
O2A P1C 1_555 1_555
O2A_2 P1C_2 1_555 1_555
O2C_2 P1C_2 1_555 1_555
O3B P1 1_555 1_555
O3B_2 P1_2 1_555 1_555
O3_2 P1_2 1_555 1_555
O3C P1C 1_555 1_555
O3A P1C 1_555 1_555
O3A_2 P1C_2 1_555 1_555
O3C_2 P1C_2 1_555 1_555
O4B P1 1_555 1_555
O4_2 P1_2 1_555 1_555
O4B_2 P1_2 1_555 1_555
O4C P1C 1_555 1_555
O4A P1C 1_555 1_555
O4C_2 P1C_2 1_555 1_555
O4A_2 P1C_2 1_555 1_555
O5B Mo3B_2 1_555 1_555
O5_2 Mo3_2 1_555 1_555
O5B_2 Mo3B 1_555 1_555
O5C Mo3C 1_555 1_555
O5A Mo3A_2 1_555 1_555
O5C_2 Mo3C_2 1_555 1_555
O5A_2 Mo3A 1_555 1_555
O6B Mo3B_2 1_555 1_555
O6_2 Mo3_2 1_555 1_555
O6B_2 Mo3B 1_555 1_555
O6C Mo3C 1_555 1_555
O6A Mo3A_2 1_555 1_555
O6C_2 Mo3C_2 1_555 1_555
O6A_2 Mo3A 1_555 1_555
O7B Mo6B 1_555 1_555
O7_2 Mo6_2 1_555 1_555
O7A Mo6A 1_555 1_555
O7C Mo6C_2 1_555 1_555
O7C_2 Mo6C 1_555 1_555
O7A_2 Mo6A_2 1_555 1_555
O7B_2 Mo6B_2 1_555 1_555
O8B Mo1B 1_555 1_555
O8B_2 Mo1B_2 1_555 1_555
O8_2 Mo1_2 1_555 1_555
O8A Mo1A 1_555 1_555
O8A_2 Mo1A_2 1_555 1_555
O8C Mo1C_2 1_555 1_555
O8C_2 Mo1C 1_555 1_555
O8A_3 Cu2A_2 1_555 1_555
O8B_3 Cu2B_2 1_555 1_555
O8_3 Cu2_3 1_555 1_555
O9B Mo4B_2 1_555 1_555
O9C Mo4C 1_555 1_555
O9A Mo4A_2 1_555 1_555
O9_2 Cu1_2 1_555 1_555
O9B_2 Cu1B 1_555 1_555
O9A_2 Cu1A 1_555 1_555
O9A_3 Mo4A 1_555 1_555
O9B_3 Mo4B 1_555 1_555
O9_3 Mo4_3 1_555 1_555
O9C_2 Mo4C_2 1_555 1_555
O10B Mo4B_2 1_555 1_555
O10C Mo4C 1_555 1_555
O10A Mo4A_2 1_555 1_555
O10A_2 Mo4A 1_555 1_555
O10B_2 Mo4B 1_555 1_555
O10_2 Mo4_3 1_555 1_555
O10C_2 Mo4C_2 1_555 1_555
O11B Mo5B_2 1_555 1_555
O11C Mo5C 1_555 1_555
O11A Mo5A_2 1_555 1_555
O11A_2 Mo5A 1_555 1_555
O11B_2 Mo5B 1_555 1_555
O11_2 Mo5_3 1_555 1_555
O11C_2 Mo5C_2 1_555 1_555
O12B Mo2B 1_555 1_555
O12_2 Mo2_2 1_555 1_555
O12A Mo2A 1_555 1_555
O12C Mo2C_2 1_555 1_555
O12C_2 Mo2C 1_555 1_555
O12A_2 Mo2A_2 1_555 1_555
O12B_2 Mo2B_2 1_555 1_555
O13B Mo4 1_555 1_555
O13_2 Mo2_2 1_555 1_555
O13A Mo2A 1_555 1_555
O13C Mo2C_2 1_555 1_555
O13C_2 Mo2C 1_555 1_555
O13B_2 Mo2B_2 1_555 1_555
O13A_2 Mo2A_2 1_555 1_555
O14B Mo5 1_555 1_555
O14_2 Mo5B_2 1_555 1_555
O14A Mo5C 1_555 1_555
O14C Mo5A_2 1_555 1_555
O14C_2 Mo5A 1_555 1_555
O14B_2 Mo5_3 1_555 1_555
O14A_2 Mo5C_2 1_555 1_555
O15_2 Mo2_2 1_555 1_555
O15B Mo2B 1_555 1_555
O15C Mo2C_2 1_555 1_555
O15A Mo2A 1_555 1_555
O15C_2 Mo2C 1_555 1_555
O15C_3 Cu2A_2 1_555 1_555
O15_3 Cu2B_2 1_555 1_555
O15B_2 Cu2_3 1_555 1_555
O15B_3 Cu2 1_555 1_555
O15A_2 Mo2A_2 1_555 1_555
O15B_4 Mo2B_2 1_555 1_555
O16_2 Mo1B_2 1_555 1_555
O16B Mo1_2 1_555 1_555
O16B_2 Mo1 1_555 1_555
O16C Mo1A 1_555 1_555
O16C_2 Mo1A_2 1_555 1_555
O16A Mo1C_2 1_555 1_555
O16A_2 Mo1C 1_555 1_555
O17_2 Mo3_2 1_555 1_555
O17B Mo3B 1_555 1_555
O17C Mo3C_2 1_555 1_555
O17A Mo3A 1_555 1_555
O17A_2 Mo3A_2 1_555 1_555
O17C_2 Mo3C 1_555 1_555
O17B_2 Mo3B_2 1_555 1_555
O18_2 Mo1B_2 1_555 1_555
O18B Mo1 1_555 1_555
O18C Mo1A_2 1_555 1_555
O18A Mo1C 1_555 1_555
O18C_2 Mo1A 1_555 1_555
O18A_2 Mo1C_2 1_555 1_555
O18B_2 Mo1_2 1_555 1_555
O19_2 Mo2_2 1_555 1_555
O19B Mo2B 1_555 1_555
O19C Mo2C_2 1_555 1_555
O19A Mo2A 1_555 1_555
O19C_2 Mo2C 1_555 1_555
O19A_2 Mo2A_2 1_555 1_555
O19B_2 Mo2B_2 1_555 1_555
O20B Mo1B 1_555 1_555
O20C Mo1C 1_555 1_555
O20A Mo1A 1_555 1_555
O20C_2 Mo1C_2 1_555 1_555
O20A_2 Mo1A_2 1_555 1_555
O20_2 Mo1_2 1_555 1_555
O20B_2 Mo1B_2 1_555 1_555
O21B Mo3B 1_555 1_555
O21A Mo3A 1_555 1_555
O21C Mo3C_2 1_555 1_555
O21A_2 Mo3A_2 1_555 1_555
O21C_2 Mo3C 1_555 1_555
O21_2 Mo3_2 1_555 1_555
O21B_2 Mo3B_2 1_555 1_555
O22B Mo1B_2 1_555 1_555
O22B_2 Mo1B 1_555 1_555
O22A Mo1A_2 1_555 1_555
O22C Mo1C 1_555 1_555
O22A_2 Mo1A 1_555 1_555
O22C_2 Mo1C_2 1_555 1_555
O22_2 Mo1_2 1_555 1_555
Cu1C O9C 1_555 1_555
Cu1_2 N2_2 1_555 1_555
Cu1C_2 N3C_2 1_555 1_555
Cu1B N2B 1_555 1_555
Cu1A N2A 1_555 1_555
Cu1B_2 N3B_2 1_555 1_555
Cu1A_2 O9A 1_555 1_555
Cu1B_3 O9B 1_555 1_555
Cu1A_3 N2A_2 1_555 1_555
Cu2B O8B 1_555 1_555
Cu2_2 O8_2 1_555 1_555
Cu2A O8A 1_555 1_555
Cu2C O8C 1_555 1_555
Cu2A_2 N6A 1_555 1_555
Cu2B_2 N6B 1_555 1_555
Cu2_3 N6_3 1_555 1_555
Cu2B_3 O15 1_555 1_555
Cu3C N12C 1_555 1_555
Cu3_2 N12B 1_555 1_555
C1_2 H1_2 1_555 1_555
C1C H1C 1_555 1_555
C1B H1B 1_555 1_555
C1A H1A 1_555 1_555
C1A_2 H1A_2 1_555 1_555
C1C_2 N3 1_555 1_555
C2C H2C 1_555 1_555
C2_2 N1_2 1_555 1_555
C2A H2A 1_555 1_555
C2A_2 N1A_2 1_555 1_555
C2B H2B 1_555 1_555
C2C_2 N3 1_555 1_555
C3C H3C 1_555 1_555
C3_2 N1_2 1_555 1_555
C3A H3A 1_555 1_555
C3A_2 N1A_2 1_555 1_555
C3B H3B 1_555 1_555
H4C C3C 1_555 1_555
H4A C3A 1_555 1_555
H4B C3B 1_555 1_555
C4C C3C 1_555 1_555
C4A C3A 1_555 1_555
C4B C3B 1_555 1_555
H5C C4C 1_555 1_555
H5B C4B 1_555 1_555
H5A C4A 1_555 1_555
H6C C4C 1_555 1_555
H6B C4B 1_555 1_555
H6A C4A 1_555 1_555
C5C C4C 1_555 1_555
C5A C4A 1_555 1_555
C5B C4B 1_555 1_555
H7C C5C 1_555 1_555
H7B C5B 1_555 1_555
H7A C5A 1_555 1_555
H8C C5C 1_555 1_555
H8B C5B 1_555 1_555
H8A C5A 1_555 1_555
C6C C5C 1_555 1_555
C6A C5A 1_555 1_555
C6B C5B 1_555 1_555
H9C C6C 1_555 1_555
H9B C6B 1_555 1_555
H9A C6A 1_555 1_555
H10C C6C 1_555 1_555
H10B C6B 1_555 1_555
H10A C6A 1_555 1_555
C7C C6C 1_555 1_555
C7A C6A 1_555 1_555
C7B C6B 1_555 1_555
H11C C7C 1_555 1_555
H11B C7B 1_555 1_555
H11A C7A 1_555 1_555
H12C C7C 1_555 1_555
H12B C7B 1_555 1_555
H12A C7A 1_555 1_555
C8C C7C 1_555 1_555
C8A C7A 1_555 1_555
C8B C7B 1_555 1_555
H13C C8C 1_555 1_555
H13B C8B 1_555 1_555
H13A C8A 1_555 1_555
H14C C8C 1_555 1_555
H14B C8B 1_555 1_555
H14A C8A 1_555 1_555
C9C H15C 1_555 1_555
C9A H15A 1_555 1_555
C9B H15B 1_555 1_555
C9_2 N6 1_555 1_555
C10C H16C 1_555 1_555
C10B H16B 1_555 1_555
C10A H16A 1_555 1_555
C10_2 N6 1_555 1_555
C11C H17C 1_555 1_555
C11A H17A 1_555 1_555
C11B H17B 1_555 1_555
C11_2 H17_2 1_555 1_555
C12_2 H18_2 1_555 1_555
C12B H18B 1_555 1_555
C12A H18A 1_555 1_555
C12C H18C 1_555 1_555
C13C H19C 1_555 1_555
C13A H19A 1_555 1_555
C13B H19B 1_555 1_555
C13_2 H19_2 1_555 1_555
H20C C13C 1_555 1_555
H20A C13A 1_555 1_555
H20B C13B 1_555 1_555
H20_2 C13_2 1_555 1_555
C14C C13C 1_555 1_555
C14A C13A 1_555 1_555
C14B C13B 1_555 1_555
C14_2 C13_2 1_555 1_555
H21C C14C 1_555 1_555
H21B C14B 1_555 1_555
H21_2 C14_2 1_555 1_555
H21A C14A 1_555 1_555
H22C C14C 1_555 1_555
H22B C14B 1_555 1_555
H22_2 C14_2 1_555 1_555
H22A C14A 1_555 1_555
C15C C14C 1_555 1_555
C15A C14A 1_555 1_555
C15B C14B 1_555 1_555
C15_2 C14_2 1_555 1_555
H23C C15C 1_555 1_555
H23B C15B 1_555 1_555
H23_2 C15_2 1_555 1_555
H23A C15A 1_555 1_555
H24C C15C 1_555 1_555
H24B C15B 1_555 1_555
H24_2 C15_2 1_555 1_555
H24A C15A 1_555 1_555
C16C C15C 1_555 1_555
C16A C15A 1_555 1_555
C16B C15B 1_555 1_555
C16_2 C15_2 1_555 1_555
H25C C16C 1_555 1_555
H25B C16B 1_555 1_555
H25_2 C16_2 1_555 1_555
H25A C16A 1_555 1_555
H26C C16C 1_555 1_555
H26B C16B 1_555 1_555
H26_2 C16_2 1_555 1_555
H26A C16A 1_555 1_555
C17C C16C 1_555 1_555
C17A C16A 1_555 1_555
C17B C16B 1_555 1_555
C17_2 C16_2 1_555 1_555
H27C C17C 1_555 1_555
H27B C17B 1_555 1_555
H27_2 C17_2 1_555 1_555
H27A C17A 1_555 1_555
H28C C17C 1_555 1_555
H28B C17B 1_555 1_555
H28_2 C17_2 1_555 1_555
H28A C17A 1_555 1_555
C18C C17C 1_555 1_555
C18A C17A 1_555 1_555
C18B C17B 1_555 1_555
C18_2 C17_2 1_555 1_555
H29C C18C 1_555 1_555
H29B C18B 1_555 1_555
H29_2 C18_2 1_555 1_555
H29A C18A 1_555 1_555
H30C C18C 1_555 1_555
H30B C18B 1_555 1_555
H30_2 C18_2 1_555 1_555
H30A C18A 1_555 1_555
C19C H31C 1_555 1_555
C19A H31A 1_555 1_555
C19B H31B 1_555 1_555
C19_2 H31_2 1_555 1_555
C20_2 H32_2 1_555 1_555
C20B H32B 1_555 1_555
C20A H32A 1_555 1_555
C20C H32C 1_555 1_555
N1C C2C 1_555 1_555
N1_2 N2_2 1_555 1_555
N1A C2A 1_555 1_555
N1A_2 N2A 1_555 1_555
N1B C2B 1_555 1_555
N2_2 C1_2 1_555 1_555
N2C Cu1C 1_555 1_555
N2B C1B 1_555 1_555
N2A C1A 1_555 1_555
N2A_2 C1A_2 1_555 1_555
N3C C1 1_555 1_555
N3_2 Cu1_2 1_555 1_555
N3C_2 C1_2 1_555 1_555
N3B Cu1B 1_555 1_555
N3A Cu1A 1_555 1_555
N3B_2 C1A 1_555 1_555
N4C C8C 1_555 1_555
N4A C8A 1_555 1_555
N4B C8B 1_555 1_555
N5C C10C 1_555 1_555
N5B C10B 1_555 1_555
N5A C10A 1_555 1_555
N6_2 C9 1_555 1_555
N6C Cu2C 1_555 1_555
N6A C9A 1_555 1_555
N6B C9B 1_555 1_555
N6A_2 Cu2A 1_555 1_555
N6B_2 Cu2B 1_555 1_555
N7C Cu2C 1_555 1_555
N7A Cu2A_2 1_555 1_555
N7B Cu2B_2 1_555 1_555
N7_2 Cu2_3 1_555 1_555
N7A_2 Cu2A 1_555 1_555
N7_3 Cu2_2 1_555 1_555
N7B_2 Cu2B 1_555 1_555
N8C C11C 1_555 1_555
N8A C11A 1_555 1_555
N8B C11B 1_555 1_555
N8_2 C11_2 1_555 1_555
N9_2 C12_2 1_555 1_555
N9B C12B 1_555 1_555
N9A C12A 1_555 1_555
N9C C12C 1_555 1_555
N10C C18C 1_555 1_555
N10A C18A 1_555 1_555
N10B C18B 1_555 1_555
N10_2 C18_2 1_555 1_555
N11_2 C20_2 1_555 1_555
N11B C20B 1_555 1_555
N11A C20A 1_555 1_555
N11C C20C 1_555 1_555
N12C C19C 1_555 1_555
N12A Cu3C 1_555 1_555
N12B C19B 1_555 1_555
N12_2 Cu3_2 1_555 1_555
N12B_2 Cu3 1_555 1_555
Mo1 O4 1_555 1_555
Mo2 O4 1_555 1_555
Mo2 O20 1_555 1_555
Mo3 O2 1_555 1_555
Mo3 O19 1_555 1_555
Mo4 O6 1_555 1_555
Mo4 O4B 1_555 1_555
Mo5 O3 1_555 1_555
Mo5 O5 1_555 1_555
Mo5 O9 1_555 1_555
Mo5 O22 1_555 1_555
Mo6 O12 1_555 1_555
Mo6 O17 1_555 1_555
Mo6 O3B 1_555 1_555
O2 O3 1_555 1_555
O2 O4B 1_555 1_555
O4 O2B 1_555 1_555
O13 Mo4B 1_555 1_555
O18 Mo1B 1_555 1_555
C1 N2 1_555 1_555
C2 N3C 1_555 1_555
C3 N1 1_555 1_555
C9 N4 1_555 1_555
C10 N6_2 1_555 1_555
C11 N7 1_555 1_555
C12 N7 1_555 1_555
C13 N8 1_555 1_555
C19 N10 1_555 1_555
C20 N12 1_555 1_555
N1 N2 1_555 1_555
N4 N5 1_555 1_555
N8 N9 1_555 1_555
N10 N11 1_555 1_555
Mo1B O3B 1_555 1_555
Mo1B O4B 1_555 1_555
Mo1B_2 O4B_2 1_555 1_555
Mo1_2 O4_2 1_555 1_555
Mo1A O4A 1_555 1_555
Mo1C O4C 1_555 1_555
Mo1A_2 O4A_2 1_555 1_555
Mo1C_2 O4C_2 1_555 1_555
Mo2B O4B 1_555 1_555
Mo2B O13B 1_555 1_555
Mo2B O20B 1_555 1_555
Mo2_2 O4_2 1_555 1_555
Mo2_2 O20_2 1_555 1_555
Mo2C O4C 1_555 1_555
Mo2C O20C 1_555 1_555
Mo2A O4A 1_555 1_555
Mo2A O20A 1_555 1_555
Mo2C_2 O4C_2 1_555 1_555
Mo2C_2 O20C_2 1_555 1_555
Mo2B_2 O4B_2 1_555 1_555
Mo2B_2 O20B_2 1_555 1_555
Mo2A_2 O4A_2 1_555 1_555
Mo2A_2 O20A_2 1_555 1_555
Mo3B O2B 1_555 1_555
Mo3B O19B 1_555 1_555
Mo3B_2 O2B_2 1_555 1_555
Mo3B_2 O19B_2 1_555 1_555
Mo3_2 O2_2 1_555 1_555
Mo3_2 O19_2 1_555 1_555
Mo3A O2A 1_555 1_555
Mo3A O19A 1_555 1_555
Mo3C O2C 1_555 1_555
Mo3C O19C_2 1_555 1_555
Mo3A_2 O2A_2 1_555 1_555
Mo3A_2 O19A_2 1_555 1_555
Mo3C_2 O2C_2 1_555 1_555
Mo3C_2 O19C 1_555 1_555
Mo4B O2B 1_555 1_555
Mo4B O6B_2 1_555 1_555
Mo4B O16B_2 1_555 1_555
Mo4B_2 O4_2 1_555 1_555
Mo4B_2 O6B 1_555 1_555
Mo4B_2 O13_2 1_555 1_555
Mo4B_2 O16B 1_555 1_555
Mo4C O4A 1_555 1_555
Mo4C O6C 1_555 1_555
Mo4C O13A 1_555 1_555
Mo4C O16C 1_555 1_555
Mo4A O4C 1_555 1_555
Mo4A O6A_2 1_555 1_555
Mo4A O13C_2 1_555 1_555
Mo4A O16A_2 1_555 1_555
Mo4A_2 O4C_2 1_555 1_555
Mo4A_2 O6A 1_555 1_555
Mo4A_2 O13C 1_555 1_555
Mo4A_2 O16A 1_555 1_555
Mo4_3 O4B_2 1_555 1_555
Mo4_3 O6_2 1_555 1_555
Mo4_3 O13B_2 1_555 1_555
Mo4_3 O16_2 1_555 1_555
Mo4C_2 O4A_2 1_555 1_555
Mo4C_2 O6C_2 1_555 1_555
Mo4C_2 O13A_2 1_555 1_555
Mo4C_2 O16C_2 1_555 1_555
Mo5B O2B 1_555 1_555
Mo5B O3B 1_555 1_555
Mo5B O5B_2 1_555 1_555
Mo5B O9B_3 1_555 1_555
Mo5B O22B_2 1_555 1_555
Mo5B_2 O3B_2 1_555 1_555
Mo5B_2 O5B 1_555 1_555
Mo5B_2 O9B 1_555 1_555
Mo5B_2 O22B 1_555 1_555
Mo5A O3A 1_555 1_555
Mo5A O5A_2 1_555 1_555
Mo5A O9A_3 1_555 1_555
Mo5A O22A_2 1_555 1_555
Mo5C O3C 1_555 1_555
Mo5C O5C 1_555 1_555
Mo5C O9C 1_555 1_555
Mo5C O22C 1_555 1_555
Mo5A_2 O3A_2 1_555 1_555
Mo5A_2 O5A 1_555 1_555
Mo5A_2 O9A 1_555 1_555
Mo5A_2 O22A 1_555 1_555
Mo5_3 O3_2 1_555 1_555
Mo5_3 O5_2 1_555 1_555
Mo5_3 O9_3 1_555 1_555
Mo5_3 O22_2 1_555 1_555
Mo5C_2 O3C_2 1_555 1_555
Mo5C_2 O5C_2 1_555 1_555
Mo5C_2 O9C_2 1_555 1_555
Mo5C_2 O22C_2 1_555 1_555
Mo6B O1B 1_555 1_555
Mo6B O12B 1_555 1_555
Mo6B O14B 1_555 1_555
Mo6B O17B 1_555 1_555
Mo6B O18B 1_555 1_555
Mo6_2 O3B_2 1_555 1_555
Mo6_2 O12_2 1_555 1_555
Mo6_2 O14_2 1_555 1_555
Mo6_2 O17_2 1_555 1_555
Mo6_2 O18_2 1_555 1_555
Mo6A O3C 1_555 1_555
Mo6A O12A 1_555 1_555
Mo6A O14A 1_555 1_555
Mo6A O17A 1_555 1_555
Mo6A O18A 1_555 1_555
Mo6C O3A 1_555 1_555
Mo6C O12C_2 1_555 1_555
Mo6C O14C_2 1_555 1_555
Mo6C O17C_2 1_555 1_555
Mo6C O18C_2 1_555 1_555
Mo6C_2 O3A_2 1_555 1_555
Mo6C_2 O12C 1_555 1_555
Mo6C_2 O14C 1_555 1_555
Mo6C_2 O17C 1_555 1_555
Mo6C_2 O18C 1_555 1_555
Mo6B_2 O3_2 1_555 1_555
Mo6B_2 O12B_2 1_555 1_555
Mo6B_2 O14B_2 1_555 1_555
Mo6B_2 O17B_2 1_555 1_555
Mo6B_2 O18B_2 1_555 1_555
Mo6A_2 O3C_2 1_555 1_555
Mo6A_2 O12A_2 1_555 1_555
Mo6A_2 O14A_2 1_555 1_555
Mo6A_2 O17A_2 1_555 1_555
Mo6A_2 O18A_2 1_555 1_555
O1B O2B 1_555 1_555
O1B_2 O2B_2 1_555 1_555
O1A O2A 1_555 1_555
O1A_2 O2A_2 1_555 1_555
O2B O3B 1_555 1_555
O2B_2 O3B_2 1_555 1_555
O2B_2 O4_2 1_555 1_555
O2_2 O3_2 1_555 1_555
O2_2 O4B_2 1_555 1_555
O2C O3C 1_555 1_555
O2C O4A 1_555 1_555
O2A O3A 1_555 1_555
O2A O4C 1_555 1_555
O2A_2 O3A_2 1_555 1_555
O2A_2 O4C_2 1_555 1_555
O2C_2 O3C_2 1_555 1_555
O2C_2 O4A_2 1_555 1_555
O15_2 Cu2B 1_555 1_555
O15B Cu2_2 1_555 1_555
O15C Cu2A 1_555 1_555
O15A Cu2C 1_555 1_555
Cu1C N3C 1_555 1_555
Cu2_2 N6_2 1_555 1_555
C1C N2C 1_555 1_555
C1C N3_2 1_555 1_555
C1B N3A 1_555 1_555
C1A_2 N3B 1_555 1_555
C2C N3_2 1_555 1_555
C2_2 N3C_2 1_555 1_555
C2A N3B 1_555 1_555
C2A_2 N3B_2 1_555 1_555
C2B N3A 1_555 1_555
C3C N1C 1_555 1_555
C3A N1A 1_555 1_555
C3B N1B 1_555 1_555
C9C N4C 1_555 1_555
C9C N6C 1_555 1_555
C9A N4A 1_555 1_555
C9B N4B 1_555 1_555
C10C N6C 1_555 1_555
C10B N6B 1_555 1_555
C10A N6A 1_555 1_555
C11C N7C 1_555 1_555
C11A N7A 1_555 1_555
C11B N7B 1_555 1_555
C11_2 N7_2 1_555 1_555
C12_2 N7_2 1_555 1_555
C12B N7B 1_555 1_555
C12A N7A 1_555 1_555
C12C N7C 1_555 1_555
C13C N8C 1_555 1_555
C13A N8A 1_555 1_555
C13B N8B 1_555 1_555
C13_2 N8_2 1_555 1_555
C19C N10C 1_555 1_555
C19A N10A 1_555 1_555
C19A N12A 1_555 1_555
C19B N10B 1_555 1_555
C19_2 N10_2 1_555 1_555
C19_2 N12_2 1_555 1_555
C20_2 N12_2 1_555 1_555
C20B N12B 1_555 1_555
C20A N12A 1_555 1_555
C20C N12C 1_555 1_555
N1C N2C 1_555 1_555
N1A N2A_2 1_555 1_555
N1B N2B 1_555 1_555
N4C N5C 1_555 1_555
N4A N5A 1_555 1_555
N4B N5B 1_555 1_555
N8C N9C 1_555 1_555
N8A N9A 1_555 1_555
N8B N9B 1_555 1_555
N8_2 N9_2 1_555 1_555
N10C N11C 1_555 1_555
N10A N11A 1_555 1_555
N10B N11B 1_555 1_555
N10_2 N11_2 1_555 1_555

#END
