
#######################################################################
#
#                 Cambridge Crystallographic Data Centre
#                                CCDC 
#
#######################################################################
#
# If this CIF has been generated from an entry in the Cambridge 
# Structural Database, then it will include bibliographic, chemical, 
# crystal, experimental, refinement or atomic coordinate data resulting 
# from the CCDC's data processing and validation procedures.
#
#######################################################################

data_COMJEV
_symmetry_cell_setting           monoclinic
_symmetry_space_group_name_H-M   'P 21/c'
_symmetry_Int_Tables_number      14
_space_group_name_Hall           '-P 2ybc'
loop_
_symmetry_equiv_pos_site_id
_symmetry_equiv_pos_as_xyz
1 x,y,z
2 -x,1/2+y,1/2-z
3 -x,-y,-z
4 x,1/2-y,1/2+z
_cell_length_a                   16.520(3)
_cell_length_b                   8.7353(10)
_cell_length_c                   9.8826(13)
_cell_angle_alpha                90
_cell_angle_beta                 90.668(9)
_cell_angle_gamma                90
_cell_volume                     1426.03
loop_
_atom_site_label
_atom_site_type_symbol
_atom_site_fract_x
_atom_site_fract_y
_atom_site_fract_z
Sr1 Sr -0.0101(7) 0.4377(11) 0.3051(11)
B1 B -0.1411(12) 0.242(3) 0.574(2)
O1 O -0.075(2) 0.253(6) 0.470(4)
O2 O -0.132(3) 0.089(4) 0.645(5)
O3 O -0.105(3) 0.353(5) 0.677(4)
C1 C -0.2279(18) 0.290(9) 0.508(3)
C2 C -0.2892(16) 0.322(9) 0.620(3)
C3 C -0.3709(13) 0.349(8) 0.547(3)
C4 C -0.443(2) 0.357(7) 0.644(5)
B2 B 0.1158(12) 0.249(3) 0.119(2)
O4 O 0.075(3) 0.198(6) 0.247(3)
O5 O 0.089(3) 0.124(5) 0.020(4)
O6 O 0.070(3) 0.389(4) 0.069(5)
C5 C 0.2124(15) 0.277(8) 0.143(3)
C6 C 0.2595(18) 0.282(9) 0.010(3)
C7 C 0.3483(18) 0.330(8) 0.034(3)
C8 C 0.389(3) 0.369(8) -0.102(4)
Sr1A Sr 0.0101(7) -0.0623(11) 0.1949(11)
Sr1B Sr 0.0101(7) 0.5623(11) 0.6949(11)
Sr1C Sr -0.0101(7) 0.0623(11) -0.1949(11)
Sr1C_2 Sr -0.0101(7) 0.0623(11) 0.8051(11)
O2C O -0.132(3) 0.411(4) 0.145(5)
O3B O 0.105(3) 0.647(5) 0.323(4)
O4A O -0.075(3) 0.698(6) 0.253(3)
O5A O -0.089(3) 0.624(5) 0.480(4)
O5C O 0.089(3) 0.376(5) 0.520(4)
loop_
_geom_bond_atom_site_label_1
_geom_bond_atom_site_label_2
_geom_bond_site_symmetry_1
_geom_bond_site_symmetry_2
Sr1 O1 1_555 1_555
B1 O1 1_555 1_555
O2 B1 1_555 1_555
O3 B1 1_555 1_555
C1 B1 1_555 1_555
C2 C1 1_555 1_555
C3 C2 1_555 1_555
C4 C3 1_555 1_555
B2 O4 1_555 1_555
O4 Sr1 1_555 1_555
O5 B2 1_555 1_555
O6 Sr1 1_555 1_555
C5 B2 1_555 1_555
C6 C5 1_555 1_555
C7 C6 1_555 1_555
C8 C7 1_555 1_555
Sr1A O4 1_555 1_555
Sr1B O3 1_555 1_555
Sr1C O5 1_555 1_555
Sr1C_2 O2 1_555 1_555
O2C Sr1 1_555 1_555
O3B Sr1 1_555 1_555
O4A Sr1 1_555 1_555
O5A Sr1 1_555 1_555
O5C Sr1 1_555 1_555
B2 O6 1_555 1_555
O5 Sr1A 1_555 1_555
Sr1B O5A 1_555 1_555
Sr1B O5C 1_555 1_555

#END
