
#######################################################################
#
#                 Cambridge Crystallographic Data Centre
#                                CCDC 
#
#######################################################################
#
# If this CIF has been generated from an entry in the Cambridge 
# Structural Database, then it will include bibliographic, chemical, 
# crystal, experimental, refinement or atomic coordinate data resulting 
# from the CCDC's data processing and validation procedures.
#
#######################################################################

data_COMJAQ
_symmetry_cell_setting           monoclinic
_symmetry_space_group_name_H-M   'P 21/n'
_symmetry_Int_Tables_number      14
_space_group_name_Hall           '-P 2yn'
loop_
_symmetry_equiv_pos_site_id
_symmetry_equiv_pos_as_xyz
1 x,y,z
2 1/2-x,1/2+y,1/2-z
3 -x,-y,-z
4 1/2+x,1/2-y,1/2+z
_cell_length_a                   8.093(4)
_cell_length_b                   12.273(6)
_cell_length_c                   8.338(5)
_cell_angle_alpha                90
_cell_angle_beta                 110.533(9)
_cell_angle_gamma                90
_cell_volume                     775.561
loop_
_atom_site_label
_atom_site_type_symbol
_atom_site_fract_x
_atom_site_fract_y
_atom_site_fract_z
Cu1 Cu 1.38518(12) 1.03450(8) 0.70877(12)
Cu2 Cu 1.02348(12) 0.89365(7) 0.59220(12)
S1 S 1.7687(3) 1.04624(16) 0.7173(2)
O1 O 1.1281(7) 1.0395(4) 0.6307(7)
H1 H 1.088(11) 1.064(7) 0.700(9)
O2 O 1.6398(7) 1.0501(5) 0.8101(7)
N1 N 1.0770(8) 1.2475(5) 0.5060(8)
O3 O 1.9204(9) 1.1135(6) 0.8075(9)
O4 O 1.8213(8) 0.9316(5) 0.7125(8)
O5 O 1.6812(9) 1.0868(5) 0.5425(8)
C1 C 1.2490(10) 1.2604(6) 0.6019(9)
C2 C 0.9986(10) 1.3321(6) 0.5566(9)
N2 N 0.8241(9) 1.3533(6) 0.4831(9)
H2 H 0.7800 1.4107 0.5117
H3 H 0.7572 1.3093 0.4079
N3 N 1.3796(9) 1.1864(5) 0.5948(9)
H4 H 1.483(6) 1.208(7) 0.659(10)
H5 H 1.371(12) 1.169(8) 0.492(5)
N4 N 1.1148(8) 1.3931(5) 0.6733(8)
N5 N 1.2802(9) 1.3443(5) 0.7022(8)
Cu1A Cu 1.11482(12) 1.53450(8) 0.79123(12)
Cu2B Cu 0.97652(12) 1.10635(7) 0.40780(12)
Cu2_2 Cu 2.02348(12) 0.89365(7) 0.59220(12)
Cu2A Cu 1.47652(12) 1.39365(7) 0.90780(12)
O1B O 0.8719(7) 0.9605(4) 0.3693(7)
H1B H 0.912(11) 0.936(7) 0.300(9)
N1B N 0.9230(8) 0.7525(5) 0.4940(8)
O4_2 O 0.8213(8) 0.9316(5) 0.7125(8)
N4A N 1.3852(8) 0.8931(5) 0.8267(8)
N5A N 1.2198(9) 0.8443(5) 0.7978(8)
loop_
_geom_bond_atom_site_label_1
_geom_bond_atom_site_label_2
_geom_bond_site_symmetry_1
_geom_bond_site_symmetry_2
Cu1 O1 1_555 1_555
Cu2 O1 1_555 1_555
S1 O2 1_555 1_555
O1 H1 1_555 1_555
O2 Cu1 1_555 1_555
N1 C1 1_555 1_555
O3 S1 1_555 1_555
O4 S1 1_555 1_555
O5 S1 1_555 1_555
C1 N3 1_555 1_555
C2 N1 1_555 1_555
N2 C2 1_555 1_555
H2 N2 1_555 1_555
H3 N2 1_555 1_555
N3 Cu1 1_555 1_555
H4 N3 1_555 1_555
H5 N3 1_555 1_555
N4 C2 1_555 1_555
N5 C1 1_555 1_555
Cu1A N4 1_555 1_555
Cu2B O1 1_555 1_555
Cu2_2 O4 1_555 1_555
Cu2A N5 1_555 1_555
O1B Cu2 1_555 1_555
H1B O1B 1_555 1_555
N1B Cu2 1_555 1_555
O4_2 Cu2 1_555 1_555
N4A Cu1 1_555 1_555
N5A Cu2 1_555 1_555
N1 Cu2B 1_555 1_555
N4 N5 1_555 1_555
Cu2B O1B 1_555 1_555
N4A N5A 1_555 1_555

#END
