
#######################################################################
#
#                 Cambridge Crystallographic Data Centre
#                                CCDC 
#
#######################################################################
#
# If this CIF has been generated from an entry in the Cambridge 
# Structural Database, then it will include bibliographic, chemical, 
# crystal, experimental, refinement or atomic coordinate data resulting 
# from the CCDC's data processing and validation procedures.
#
#######################################################################

data_COMMUN
_symmetry_cell_setting           monoclinic
_symmetry_space_group_name_H-M   'P 21/c'
_symmetry_Int_Tables_number      14
_space_group_name_Hall           '-P 2ybc'
loop_
_symmetry_equiv_pos_site_id
_symmetry_equiv_pos_as_xyz
1 x,y,z
2 -x,1/2+y,1/2-z
3 -x,-y,-z
4 x,1/2-y,1/2+z
_cell_length_a                   9.844(2)
_cell_length_b                   15.658(4)
_cell_length_c                   9.567(2)
_cell_angle_alpha                90
_cell_angle_beta                 92.187(6)
_cell_angle_gamma                90
_cell_volume                     1473.56
loop_
_atom_site_label
_atom_site_type_symbol
_atom_site_fract_x
_atom_site_fract_y
_atom_site_fract_z
C1 C 0.8145(10) 0.3712(5) -0.1179(10)
C2 C 0.9084(9) 0.4379(5) -0.0502(10)
C3 C 0.9965(9) 0.4197(5) 0.0588(10)
C4 C 0.9089(9) 0.5195(5) -0.1111(10)
C5 C 1.0769(15) 0.2489(6) 0.036(3)
H1 H 1.1504 0.2801 -0.0082
H2 H 1.1153 0.2012 0.0905
H3 H 1.0133 0.2269 -0.0368
C6 C 0.8878(13) 0.5320(7) -0.3899(11)
H4 H 0.9754 0.5603 -0.3716
H5 H 0.8422 0.5573 -0.4728
H6 H 0.9027 0.4710 -0.4062
C7 C 0.6691(9) 0.1304(5) -0.1200(10)
C8 C 0.5829(9) 0.0628(5) -0.0560(9)
C9 C 0.4909(9) 0.0844(5) 0.0479(8)
C10 C 0.5915(8) -0.0207(5) -0.1028(8)
C11 C 0.4196(13) 0.2477(6) -0.0439(18)
H7 H 0.3469 0.2149 -0.0917
H8 H 0.3843 0.3035 -0.0163
H9 H 0.4946 0.2558 -0.1071
C12 C 0.6102(13) -0.0323(7) -0.3828(11)
H10 H 0.5296 -0.0687 -0.3777
H11 H 0.6617 -0.0485 -0.4644
H12 H 0.5821 0.0275 -0.3915
Cd1 Cd 0.73979(6) 0.25161(4) 0.13540(8)
O1 O 0.7129(8) 0.3469(4) -0.0559(7)
O2 O 0.8527(8) 0.3442(4) -0.2332(7)
O3 O 0.7684(7) 0.1603(4) -0.0527(8)
O4 O 0.6304(7) 0.1520(4) -0.2434(8)
S1 S 0.9892(3) 0.31926(13) 0.1483(3)
S2 S 0.7855(3) 0.54504(14) -0.2450(3)
S3 S 0.4817(3) 0.18924(12) 0.1133(3)
S4 S 0.7129(3) -0.04535(13) -0.2302(3)
C1B C 1.1855(10) 0.6288(5) 0.1179(10)
C2B C 1.0916(9) 0.5621(5) 0.0502(10)
C3B C 1.0035(9) 0.5803(5) -0.0588(10)
C4B C 1.0911(9) 0.4805(5) 0.1111(10)
C5B C 0.9231(15) 0.7511(6) -0.036(3)
H1B H 0.8496 0.7199 0.0082
H2B H 0.8847 0.7988 -0.0905
H3B H 0.9867 0.7731 0.0368
C6B C 1.1122(13) 0.4680(7) 0.3899(11)
H4B H 1.0246 0.4397 0.3716
H5B H 1.1578 0.4427 0.4728
H6B H 1.0973 0.5290 0.4062
C7B C 0.3309(9) -0.1304(5) 0.1200(10)
C8B C 0.4171(9) -0.0628(5) 0.0560(9)
C9B C 0.5091(9) -0.0844(5) -0.0479(8)
C10B C 0.4085(8) 0.0207(5) 0.1028(8)
C11B C 0.5804(13) -0.2477(6) 0.0439(18)
H7B H 0.6531 -0.2149 0.0917
H8B H 0.6157 -0.3035 0.0163
H9B H 0.5054 -0.2558 0.1071
C12B C 0.3898(13) 0.0323(7) 0.3828(11)
H10B H 0.4704 0.0687 0.3777
H11B H 0.3383 0.0485 0.4644
H12B H 0.4179 -0.0275 0.3915
Cd1B Cd 1.26021(6) 0.74839(4) -0.13540(8)
Cd1C Cd 0.73979(6) 0.24839(4) -0.36460(8)
Cd1A Cd 1.26021(6) 0.75161(4) 0.36460(8)
Cd1B_2 Cd 0.26021(6) -0.25161(4) -0.13540(8)
Cd1A_2 Cd 0.26021(6) -0.24839(4) 0.36460(8)
O1B O 1.2871(8) 0.6531(4) 0.0559(7)
O2B O 1.1473(8) 0.6558(4) 0.2332(7)
O2C O 0.8527(8) 0.1558(4) 0.2668(7)
O2A O 1.1473(8) 0.8442(4) -0.2668(7)
O3B O 0.2316(7) -0.1603(4) 0.0527(8)
O3B_2 O 1.2316(7) 0.8397(4) 0.0527(8)
O4B O 0.3696(7) -0.1520(4) 0.2434(8)
O4C O 0.6304(7) 0.3480(4) 0.2566(8)
O4A O 1.3696(7) 0.6520(4) -0.2566(8)
S1B S 1.0108(3) 0.68074(13) -0.1483(3)
S2B S 1.2145(3) 0.45496(14) 0.2450(3)
S3B S 0.5183(3) -0.18924(12) -0.1133(3)
S3B_2 S 1.5183(3) 0.81076(12) -0.1133(3)
S4B S 0.2871(3) 0.04535(13) 0.2302(3)
loop_
_geom_bond_atom_site_label_1
_geom_bond_atom_site_label_2
_geom_bond_site_symmetry_1
_geom_bond_site_symmetry_2
C1 C2 1_555 1_555
C2 C3 1_555 1_555
C3 S1 1_555 1_555
C4 C2 1_555 1_555
C5 H1 1_555 1_555
H2 C5 1_555 1_555
H3 C5 1_555 1_555
C6 H4 1_555 1_555
H5 C6 1_555 1_555
H6 C6 1_555 1_555
C7 C8 1_555 1_555
C8 C9 1_555 1_555
C9 S3 1_555 1_555
C10 C8 1_555 1_555
C11 H7 1_555 1_555
H8 C11 1_555 1_555
H9 C11 1_555 1_555
C12 H10 1_555 1_555
H11 C12 1_555 1_555
H12 C12 1_555 1_555
Cd1 O1 1_555 1_555
O1 C1 1_555 1_555
O2 C1 1_555 1_555
O3 C7 1_555 1_555
O4 C7 1_555 1_555
S1 C5 1_555 1_555
S2 C4 1_555 1_555
S3 C11 1_555 1_555
S4 C10 1_555 1_555
C1B C2B 1_555 1_555
C2B C3B 1_555 1_555
C3B C4 1_555 1_555
C4B C3 1_555 1_555
C5B H1B 1_555 1_555
H2B C5B 1_555 1_555
H3B C5B 1_555 1_555
C6B H4B 1_555 1_555
H5B C6B 1_555 1_555
H6B C6B 1_555 1_555
C7B C8B 1_555 1_555
C8B C9B 1_555 1_555
C9B C10 1_555 1_555
C10B C9 1_555 1_555
C11B H7B 1_555 1_555
H8B C11B 1_555 1_555
H9B C11B 1_555 1_555
C12B H10B 1_555 1_555
H11B C12B 1_555 1_555
H12B C12B 1_555 1_555
Cd1B O1B 1_555 1_555
Cd1C O2 1_555 1_555
Cd1A O2B 1_555 1_555
Cd1B_2 O3B 1_555 1_555
Cd1A_2 O4B 1_555 1_555
O1B C1B 1_555 1_555
O2B C1B 1_555 1_555
O2C Cd1 1_555 1_555
O2A Cd1B 1_555 1_555
O3B C7B 1_555 1_555
O3B_2 Cd1B 1_555 1_555
O4B C7B 1_555 1_555
O4C Cd1 1_555 1_555
O4A Cd1B 1_555 1_555
S1B C3B 1_555 1_555
S2B C4B 1_555 1_555
S3B C9B 1_555 1_555
S3B_2 Cd1B 1_555 1_555
S4B C10B 1_555 1_555
C6 S2 1_555 1_555
C12 S4 1_555 1_555
Cd1 O3 1_555 1_555
Cd1 S1 1_555 1_555
Cd1 S3 1_555 1_555
O4 Cd1C 1_555 1_555
C2B C4B 1_555 1_555
C5B S1B 1_555 1_555
C6B S2B 1_555 1_555
C8B C10B 1_555 1_555
C11B S3B 1_555 1_555
C12B S4B 1_555 1_555
Cd1B S1B 1_555 1_555
Cd1B_2 S3B 1_555 1_555

#END
