
#######################################################################
#
#                 Cambridge Crystallographic Data Centre
#                                CCDC 
#
#######################################################################
#
# If this CIF has been generated from an entry in the Cambridge 
# Structural Database, then it will include bibliographic, chemical, 
# crystal, experimental, refinement or atomic coordinate data resulting 
# from the CCDC's data processing and validation procedures.
#
#######################################################################

data_COMMOH
_symmetry_cell_setting           monoclinic
_symmetry_space_group_name_H-M   'P 21/n'
_symmetry_Int_Tables_number      14
_space_group_name_Hall           '-P 2yn'
loop_
_symmetry_equiv_pos_site_id
_symmetry_equiv_pos_as_xyz
1 x,y,z
2 1/2-x,1/2+y,1/2-z
3 -x,-y,-z
4 1/2+x,1/2-y,1/2+z
_cell_length_a                   6.751(2)
_cell_length_b                   12.758(4)
_cell_length_c                   9.911(3)
_cell_angle_alpha                90
_cell_angle_beta                 107.818(5)
_cell_angle_gamma                90
_cell_volume                     812.681
loop_
_atom_site_label
_atom_site_type_symbol
_atom_site_fract_x
_atom_site_fract_y
_atom_site_fract_z
C1 C -0.3620(5) 0.1733(2) -0.1413(3)
C2 C -0.4316(4) 0.0827(2) -0.0668(3)
C3 C -0.3538(5) -0.0184(2) -0.0721(3)
C4 C -0.5772(4) 0.1014(2) 0.0053(3)
C5 C -0.3261(6) -0.0399(3) -0.3440(4)
H1 H -0.4007 0.0268 -0.3681
H2 H -0.2396 -0.0510 -0.4062
H3 H -0.4265 -0.0973 -0.3567
C6 C -0.4777(6) 0.2901(3) 0.1534(5)
H4 H -0.4775 0.2546 0.2411
H5 H -0.5088 0.3647 0.1598
H6 H -0.3407 0.2827 0.1396
Cu1 Cu 0.05392(6) 0.20039(3) 0.09783(4)
O1 O -0.2103(4) 0.22714(18) -0.0757(3)
O2 O -0.4729(4) 0.18595(17) -0.2700(2)
S1 S -0.16217(12) -0.03637(6) -0.16123(8)
S2 S -0.67465(11) 0.23158(6) 0.00422(8)
C1B C -0.6380(5) -0.1733(2) 0.1413(3)
C2B C -0.5684(4) -0.0827(2) 0.0668(3)
C3B C -0.6462(5) 0.0184(2) 0.0721(3)
C4B C -0.4228(4) -0.1014(2) -0.0053(3)
C5B C -0.6739(6) 0.0399(3) 0.3440(4)
H1B H -0.5993 -0.0268 0.3681
H2B H -0.7604 0.0510 0.4062
H3B H -0.5735 0.0973 0.3567
C6B C -0.5223(6) -0.2901(3) -0.1534(5)
H4B H -0.5225 -0.2546 -0.2411
H5B H -0.4912 -0.3647 -0.1598
H6B H -0.6593 -0.2827 -0.1396
Cu1B Cu -1.05392(6) -0.20039(3) -0.09783(4)
Cu1C Cu -0.44608(6) 0.29961(3) -0.40217(4)
Cu1B_2 Cu -0.05392(6) -0.20039(3) -0.09783(4)
Cu1_2 Cu -0.94608(6) 0.20039(3) 0.09783(4)
Cu1A Cu -0.55392(6) -0.29961(3) 0.40217(4)
O1B O -0.7897(4) -0.22714(18) 0.0757(3)
O2B O -0.5271(4) -0.18595(17) 0.2700(2)
O2C O 0.0271(4) 0.31405(17) 0.2300(2)
O2A O -1.0271(4) -0.31405(17) -0.2300(2)
S1B S -0.83783(12) 0.03637(6) 0.16123(8)
S1B_2 S 0.16217(12) 0.03637(6) 0.16123(8)
S1_2 S -1.16217(12) -0.03637(6) -0.16123(8)
S2B S -0.32535(11) -0.23158(6) -0.00422(8)
S2_2 S 0.32535(11) 0.23158(6) 0.00422(8)
S2B_2 S -1.32535(11) -0.23158(6) -0.00422(8)
loop_
_geom_bond_atom_site_label_1
_geom_bond_atom_site_label_2
_geom_bond_site_symmetry_1
_geom_bond_site_symmetry_2
C1 C2 1_555 1_555
C2 C3 1_555 1_555
C3 S1 1_555 1_555
C4 C2 1_555 1_555
C5 H1 1_555 1_555
H2 C5 1_555 1_555
H3 C5 1_555 1_555
C6 H4 1_555 1_555
H5 C6 1_555 1_555
H6 C6 1_555 1_555
Cu1 O1 1_555 1_555
O1 C1 1_555 1_555
O2 C1 1_555 1_555
S1 C5 1_555 1_555
S2 C4 1_555 1_555
C1B C2B 1_555 1_555
C2B C3B 1_555 1_555
C3B C4 1_555 1_555
C4B C3 1_555 1_555
C5B H1B 1_555 1_555
H2B C5B 1_555 1_555
H3B C5B 1_555 1_555
C6B H4B 1_555 1_555
H5B C6B 1_555 1_555
H6B C6B 1_555 1_555
Cu1B O1B 1_555 1_555
Cu1C O2 1_555 1_555
Cu1B_2 S1 1_555 1_555
Cu1_2 S2 1_555 1_555
Cu1A O2B 1_555 1_555
O1B C1B 1_555 1_555
O2B C1B 1_555 1_555
O2C Cu1 1_555 1_555
O2A Cu1B 1_555 1_555
S1B C3B 1_555 1_555
S1B_2 Cu1 1_555 1_555
S1_2 Cu1B 1_555 1_555
S2B C4B 1_555 1_555
S2_2 Cu1 1_555 1_555
S2B_2 Cu1B 1_555 1_555
C6 S2 1_555 1_555
C2B C4B 1_555 1_555
C5B S1B 1_555 1_555
C6B S2B 1_555 1_555
Cu1B_2 S2B 1_555 1_555
Cu1_2 S1B 1_555 1_555

#END
