
#######################################################################
#
#                 Cambridge Crystallographic Data Centre
#                                CCDC 
#
#######################################################################
#
# If this CIF has been generated from an entry in the Cambridge 
# Structural Database, then it will include bibliographic, chemical, 
# crystal, experimental, refinement or atomic coordinate data resulting 
# from the CCDC's data processing and validation procedures.
#
#######################################################################

data_COMMIB
_symmetry_cell_setting           trigonal
_symmetry_space_group_name_H-M   'P 3 2 1'
_symmetry_Int_Tables_number      150
_space_group_name_Hall           'P 3 2"'
loop_
_symmetry_equiv_pos_site_id
_symmetry_equiv_pos_as_xyz
1 x,y,z
2 -y,x-y,z
3 -x+y,-x,z
4 x-y,-y,-z
5 -x,-x+y,-z
6 y,x,-z
_cell_length_a                   13.7651(2)
_cell_length_b                   13.7651(2)
_cell_length_c                   19.7522(3)
_cell_angle_alpha                90
_cell_angle_beta                 90
_cell_angle_gamma                120
_cell_volume                     3241.19
loop_
_atom_site_label
_atom_site_type_symbol
_atom_site_fract_x
_atom_site_fract_y
_atom_site_fract_z
K2 K 0.6667 0.3333 0.94642(16)
Co1 Co 0.6667 0.3333 0.75036(9)
Co2 Co 0.82290(7) 0.22775(7) 0.74956(6)
Co3 Co 1.08732(8) 0.38587(8) 0.74849(5)
Co4 Co 1.19045(8) 0.64738(8) 0.75011(6)
Co5 Co 0.71536(9) -0.03449(9) 0.75162(6)
Co6 Co 0.98032(10) 0.12495(9) 0.74977(7)
Co7 Co 0.93390(8) 0.49041(8) 0.66229(5)
Co8 Co 0.93206(8) 0.49017(8) 0.83821(5)
Co9 Co 1.00000(11) 0.62580(11) 0.5000
Co10 Co 1.0000 0.41042(11) 0.5000
Co11 Co 1.0000 0.62701(11) 1.0000
Co12 Co 1.00000(11) 0.41080(11) 1.0000
O1 O 1.0917(5) 0.7774(5) 0.4469(3)
O2 O 1.2615(5) 0.9222(5) 0.4423(3)
O3 O 1.1416(5) 0.7065(5) 0.5612(3)
O4 O 1.3160(5) 0.8551(5) 0.5577(3)
O5 O 1.0917(5) 0.7784(6) 1.0540(3)
O6 O 1.2623(5) 0.9223(5) 1.0580(3)
O7 O 1.1406(5) 0.7078(5) 0.9395(3)
O8 O 1.3151(5) 0.8564(5) 0.9416(3)
O9 O 1.3333 0.6667 0.6885(12)
O10 O 1.0000 0.0000 0.8068(8)
O11 O 0.9296(4) 0.4826(4) 0.5596(2)
H1 H 0.8481 0.4419 0.5477
O12 O 1.0807(5) 0.5099(5) 0.6877(3)
H2 H 1.1219 0.5160 0.6448
O13 O 0.8016(5) 0.3448(5) 0.6905(3)
H3 H 0.7661 0.3047 0.6473
O14 O 0.9467(4) 0.3616(5) 0.8093(3)
H4 H 0.9521 0.3258 0.8521
O15 O 0.7032(5) 0.0885(5) 0.6884(3)
H5 H 0.7428 0.0921 0.6452
O16 O 0.9641(5) 0.2476(5) 0.6963(3)
H6 H 0.9638 0.2471 0.6457
O17 O 1.2334(5) 0.4035(5) 0.7005(3)
H7 H 1.2355 0.4028 0.6499
O18 O 1.1055(4) 0.2631(4) 0.8049(3)
H8 H 1.1042 0.2633 0.8556
O19 O 1.0576(4) 0.6345(4) 0.8113(3)
H9 H 1.0933 0.6748 0.8544
O20 O 1.2095(5) 0.5280(5) 0.7998(3)
H10 H 1.2084 0.5277 0.8504
O21 O 0.8590(6) -0.0161(6) 0.6896(5)
H11 H 0.8588 -0.0153 0.6390
O22 O 0.8381(4) 0.1050(4) 0.8024(3)
H12 H 0.8385 0.1060 0.8530
O23 O 0.7844(4) 0.4717(4) 0.8094(3)
H13 H 0.7442 0.4670 0.8526
O24 O 0.9293(4) 0.4832(4) 0.9412(3)
H14 H 0.8480 0.4424 0.9535
C1 C 1.1871(7) 0.8344(7) 0.4684(3)
C2 C 1.2194(8) 0.7954(7) 0.5356(4)
C3 C 1.1885(7) 0.8360(7) 1.0328(4)
C4 C 1.2195(6) 0.7974(7) 0.9646(4)
Co1D Co 1.3333 0.6666 0.24964(9)
Co1C Co 0.3334 0.6667 0.24964(9)
Co1E Co 0.3333 -0.3333 0.24964(9)
Co1D_2 Co 1.3333 0.6666 1.24964(9)
Co1C_2 Co 0.3334 0.6667 1.24964(9)
Co1E_2 Co 0.3333 -0.3333 1.24964(9)
Co2A Co 0.77225(7) 0.59515(10) 0.74956(6)
Co2B Co 0.40485(10) 0.17710(7) 0.74956(6)
Co2D Co 1.17710(7) 0.40485(10) 0.25044(6)
Co2C Co 0.59515(10) 0.77225(7) 0.25044(6)
Co2E Co 0.22775(7) -0.17710(7) 0.25044(6)
Co2B_2 Co 1.40485(10) 1.17710(7) 0.74956(6)
Co2A_2 Co 0.77225(7) -0.40485(10) 0.74956(6)
Co2_2 Co -0.17710(7) 0.22775(7) 0.74956(6)
Co2B_3 Co 1.40485(10) 0.17710(7) 0.74956(6)
Co2_3 Co 0.82290(7) 1.22775(7) 0.74956(6)
Co2A_3 Co -0.22775(7) -0.40485(10) 0.74956(6)
Co2E_2 Co 1.22775(7) 0.82290(7) 1.25044(6)
Co2D_2 Co 0.17710(7) 0.40485(10) 1.25044(6)
Co2C_2 Co 0.59515(10) -0.22775(7) 1.25044(6)
Co3A Co 0.61413(8) 0.70145(11) 0.74849(5)
Co3B Co 0.29855(11) -0.08732(8) 0.74849(5)
Co3B_2 Co 1.29855(11) 0.91268(8) 0.74849(5)
Co3A_2 Co 0.61413(8) -0.29855(11) 0.74849(5)
Co3_2 Co 0.08732(8) 0.38587(8) 0.74849(5)
Co4A Co 0.35262(8) 0.54307(11) 0.75011(6)
Co4B Co 0.45693(11) -0.19045(8) 0.75011(6)
Co4A_2 Co 1.35262(8) 0.54307(11) 0.75011(6)
Co4B_2 Co 0.45693(11) 0.80955(8) 0.75011(6)
Co4_2 Co 0.19045(8) -0.35262(8) 0.75011(6)
Co4B_3 Co 1.45693(11) 0.80955(8) 0.75011(6)
Co4_3 Co 0.19045(8) 0.64738(8) 0.75011(6)
Co4A_3 Co 0.35262(8) -0.45693(11) 0.75011(6)
Co5A Co 1.03449(9) 0.74985(13) 0.75162(6)
Co5B Co 0.25015(13) 0.28464(9) 0.75162(6)
Co5B_2 Co 1.25015(13) 0.28464(9) 0.75162(6)
Co5_2 Co 0.71536(9) 0.96551(9) 0.75162(6)
Co5A_2 Co 0.03449(9) -0.25015(13) 0.75162(6)
Co6A Co 0.87505(9) 0.85537(13) 0.74977(7)
Co6B Co 0.14463(13) 0.01968(10) 0.74977(7)
Co6B_2 Co 1.14463(13) 0.01968(10) 0.74977(7)
Co6_2 Co 0.98032(10) 1.12495(9) 0.74977(7)
Co6A_2 Co 0.87505(9) -0.14463(13) 0.74977(7)
Co6B_3 Co 1.14463(13) 1.01968(10) 0.74977(7)
Co6_3 Co -0.01968(10) 0.12495(9) 0.74977(7)
Co6A_3 Co -0.12495(9) -0.14463(13) 0.74977(7)
Co7A Co 0.50959(8) 0.44349(11) 0.66229(5)
Co7B Co 0.55651(11) 0.06610(8) 0.66229(5)
Co7D Co 1.06610(8) 0.55651(11) 0.33771(5)
Co7C Co 0.44349(11) 0.50959(8) 0.33771(5)
Co7E Co 0.49041(8) -0.06610(8) 0.33771(5)
Co7B_2 Co 1.55651(11) 1.06610(8) 0.66229(5)
Co7A_2 Co 0.50959(8) -0.55651(11) 0.66229(5)
Co7_2 Co -0.06610(8) 0.49041(8) 0.66229(5)
Co7A_3 Co 1.50959(8) 0.44349(11) 0.66229(5)
Co7B_3 Co 0.55651(11) 1.06610(8) 0.66229(5)
Co7_3 Co -0.06610(8) -0.50959(8) 0.66229(5)
Co8A Co 0.50983(8) 0.44189(11) 0.83821(5)
Co8B Co 0.55811(11) 0.06794(8) 0.83821(5)
Co8D Co 1.06794(8) 0.55811(11) 1.16179(5)
Co8C Co 0.44189(11) 0.50983(8) 1.16179(5)
Co8E Co 0.49017(8) -0.06794(8) 1.16179(5)
Co8B_2 Co 1.55811(11) 1.06794(8) 0.83821(5)
Co8A_2 Co 0.50983(8) -0.55811(11) 0.83821(5)
Co8_2 Co -0.06794(8) 0.49017(8) 0.83821(5)
Co8A_3 Co 1.50983(8) 0.44189(11) 0.83821(5)
Co8B_3 Co 0.55811(11) 1.06794(8) 0.83821(5)
Co8_3 Co -0.06794(8) -0.50983(8) 0.83821(5)
Co9A Co 0.37420(11) 0.37420(16) 0.5000
Co9B Co 0.62580(16) 0.00000(11) 0.5000
Co9A_2 Co 1.37420(11) 0.37420(16) 0.5000
Co10A Co 0.58958(11) 0.58958(11) 0.5000
Co10B Co 0.41042(11) 0.0000 0.5000
Co10B_2 Co 1.41042(11) 1.0000 0.5000
Co10_2 Co 0.0000 0.41042(11) 0.5000
Co11A Co 0.37299(11) 0.37299(11) 1.0000
Co11B Co 0.62701(11) 0.0000 1.0000
Co11A_2 Co 1.37299(11) 0.37299(11) 1.0000
Co12A Co 0.58920(11) 0.58920(16) 1.0000
Co12B Co 0.41080(16) 0.00000(11) 1.0000
Co12B_2 Co 1.41080(16) 1.00000(11) 1.0000
Co12_2 Co 0.00000(11) 0.41080(11) 1.0000
O1D O 0.9083(5) 0.6857(7) 0.5531(3)
O1A O 1.2226(5) 0.3143(7) 0.4469(3)
O1E O 0.7774(5) 0.0917(5) 0.5531(3)
O1A_2 O 0.2226(5) 0.3143(7) 0.4469(3)
O1C O 0.3143(7) 0.2226(5) 0.5531(3)
O1B O 0.6857(7) -0.0917(5) 0.4469(3)
O2D O 0.7385(5) 0.6607(7) 0.5577(3)
O2A O 1.0778(5) 0.3393(7) 0.4423(3)
O2E O 0.9222(5) 0.2615(5) 0.5577(3)
O2A_2 O 0.0778(5) 0.3393(7) 0.4423(3)
O2C O 0.3393(7) 0.0778(5) 0.5577(3)
O2B O 0.6607(7) 0.7385(5) 0.4423(3)
O2_2 O 0.2615(5) -0.0778(5) 0.4423(3)
O3D O 0.8584(5) 0.5649(7) 0.4388(3)
O3A O 1.2935(5) 0.4351(7) 0.5612(3)
O3E O 0.7065(5) 0.1416(5) 0.4388(3)
O3A_2 O 0.2935(5) 0.4351(7) 0.5612(3)
O3C O 0.4351(7) 0.2935(5) 0.4388(3)
O3B O 0.5649(7) -0.1416(5) 0.5612(3)
O4D O 0.6840(5) 0.5391(7) 0.4423(3)
O4A O 1.1449(5) 0.4609(7) 0.5577(3)
O4E O 0.8551(5) 0.3160(5) 0.4423(3)
O4A_2 O 0.1449(5) 0.4609(7) 0.5577(3)
O4C O 0.4609(7) 0.1449(5) 0.4423(3)
O4B O 0.5391(7) 0.6840(5) 0.5577(3)
O4_2 O 0.3160(5) -0.1449(5) 0.5577(3)
O5D O 0.9083(5) 0.6867(8) 0.9460(3)
O5E O 0.7784(6) 0.0917(5) 0.9460(3)
O5A O 1.2216(6) 0.3133(8) 1.0540(3)
O5A_2 O 0.2216(6) 0.3133(8) 1.0540(3)
O5C O 0.3133(8) 0.2216(6) 0.9460(3)
O5B O 0.6867(8) -0.0917(5) 1.0540(3)
O6D O 0.7377(5) 0.6600(7) 0.9420(3)
O6E O 0.9223(5) 0.2623(5) 0.9420(3)
O6A O 1.0777(5) 0.3400(7) 1.0580(3)
O6A_2 O 0.0777(5) 0.3400(7) 1.0580(3)
O6C O 0.3400(7) 0.0777(5) 0.9420(3)
O6B O 0.6600(7) 0.7377(5) 1.0580(3)
O6_2 O 0.2623(5) -0.0777(5) 1.0580(3)
O7D O 0.8594(5) 0.5672(7) 1.0605(3)
O7E O 0.7078(5) 0.1406(5) 1.0605(3)
O7A O 1.2922(5) 0.4328(7) 0.9395(3)
O7A_2 O 0.2922(5) 0.4328(7) 0.9395(3)
O7C O 0.4328(7) 0.2922(5) 1.0605(3)
O7B O 0.5672(7) -0.1406(5) 0.9395(3)
O8D O 0.6849(5) 0.5413(7) 1.0584(3)
O8E O 0.8564(5) 0.3151(5) 1.0584(3)
O8A O 1.1436(5) 0.4587(7) 0.9416(3)
O8A_2 O 0.1436(5) 0.4587(7) 0.9416(3)
O8C O 0.4587(7) 0.1436(5) 1.0584(3)
O8B O 0.5413(7) 0.6849(5) 0.9416(3)
O8_2 O 0.3151(5) -0.1436(5) 0.9416(3)
O9A O 0.3333 0.6666 0.6885(12)
O9B O 0.3334 -0.3333 0.6885(12)
O10_2 O 1.0000 1.0000 0.8068(8)
O10_3 O 0.0000 0.0000 0.8068(8)
O11A O 0.5174(4) 0.4470(6) 0.5596(2)
O11B O 0.5530(6) 0.0704(4) 0.5596(2)
O11D O 1.0704(4) 0.5530(6) 0.4404(2)
O11C O 0.4470(6) 0.5174(4) 0.4404(2)
O11E O 0.4826(4) -0.0704(4) 0.4404(2)
H1A H 0.5581 0.4062 0.5477
H1B H 0.5938 0.1519 0.5477
H1D H 1.1519 0.5938 0.4523
H1C H 0.4062 0.5581 0.4523
H1E H 0.4419 -0.1519 0.4523
O12A O 0.4901(5) 0.5708(7) 0.6877(3)
O12B O 0.4292(7) -0.0807(5) 0.6877(3)
O12B_2 O 1.4292(7) 0.9193(5) 0.6877(3)
O12A_2 O 0.4901(5) -0.4292(7) 0.6877(3)
O12_2 O 0.0807(5) 0.5099(5) 0.6877(3)
O12A_3 O 1.4901(5) 0.5708(7) 0.6877(3)
O12B_3 O 0.4292(7) 0.9193(5) 0.6877(3)
O12_3 O 0.0807(5) -0.4901(5) 0.6877(3)
O12D O 0.9193(5) 0.4292(7) 0.3123(3)
O12C O 0.5708(7) 0.4901(5) 0.3123(3)
O12E O 0.5099(5) 0.0807(5) 0.3123(3)
H2A H 0.4840 0.6059 0.6448
H2B H 0.3941 -0.1219 0.6448
H2B_2 H 1.3941 0.8781 0.6448
H2A_2 H 0.4840 -0.3941 0.6448
H2_2 H 0.1219 0.5160 0.6448
H2A_3 H 1.4840 0.6059 0.6448
H2B_3 H 0.3941 0.8781 0.6448
H2_3 H 0.1219 -0.4840 0.6448
H2D H 0.8781 0.3941 0.3552
H2C H 0.6059 0.4840 0.3552
H2E H 0.5160 0.1219 0.3552
O13A O 0.6552(5) 0.4568(7) 0.6905(3)
O13B O 0.5432(7) 0.1984(5) 0.6905(3)
O13D O 1.1984(5) 0.5432(7) 0.3095(3)
O13C O 0.4568(7) 0.6552(5) 0.3095(3)
O13E O 0.3448(5) -0.1984(5) 0.3095(3)
O13E_2 O 1.3448(5) 0.8016(5) 0.3095(3)
O13C_2 O 1.4568(7) 0.6552(5) 0.3095(3)
H3A H 0.6953 0.4614 0.6473
H3B H 0.5386 0.2339 0.6473
H3D H 1.2339 0.5386 0.3527
H3C H 0.4614 0.6953 0.3527
H3E H 0.3047 -0.2339 0.3527
H3E_2 H 1.3047 0.7661 0.3527
H3C_2 H 1.4614 0.6953 0.3527
O14A O 0.6384(5) 0.5851(6) 0.8093(3)
O14B O 0.4149(6) 0.0533(4) 0.8093(3)
O14B_2 O 1.4149(6) 1.0533(4) 0.8093(3)
O14A_2 O 0.6384(5) -0.4149(6) 0.8093(3)
O14_2 O -0.0533(4) 0.3616(5) 0.8093(3)
O14D O 1.0533(4) 0.4149(6) 1.1907(3)
O14C O 0.5851(6) 0.6384(5) 1.1907(3)
O14E O 0.3616(5) -0.0533(4) 1.1907(3)
O14D_2 O 1.0533(4) 0.4149(6) 0.1907(3)
O14C_2 O 0.5851(6) 0.6384(5) 0.1907(3)
O14E_2 O 0.3616(5) -0.0533(4) 0.1907(3)
H4A H 0.6742 0.6263 0.8521
H4B H 0.3737 0.0479 0.8521
H4B_2 H 1.3737 1.0479 0.8521
H4A_2 H 0.6742 -0.3737 0.8521
H4_2 H -0.0479 0.3258 0.8521
H4D H 1.0479 0.3737 1.1479
H4C H 0.6263 0.6742 1.1479
H4E H 0.3258 -0.0479 1.1479
H4D_2 H 1.0479 0.3737 0.1479
H4C_2 H 0.6263 0.6742 0.1479
H4E_2 H 0.3258 -0.0479 0.1479
O15A O 0.9115(5) 0.6147(7) 0.6884(3)
O15B O 0.3853(7) 0.2968(5) 0.6884(3)
O15B_2 O 1.3853(7) 0.2968(5) 0.6884(3)
O15_2 O 0.7032(5) 1.0885(5) 0.6884(3)
O15A_2 O -0.0885(5) -0.3853(7) 0.6884(3)
O15E O 1.0885(5) 0.7032(5) 0.3116(3)
O15D O 0.2968(5) 0.3853(7) 0.3116(3)
O15C O 0.6147(7) -0.0885(5) 0.3116(3)
O15D_2 O 1.2968(5) 0.3853(7) 0.3116(3)
O15C_2 O 0.6147(7) 0.9115(5) 0.3116(3)
O15E_2 O 0.0885(5) -0.2968(5) 0.3116(3)
H5A H 0.9079 0.6507 0.6452
H5B H 0.3493 0.2572 0.6452
H5B_2 H 1.3493 0.2572 0.6452
H5_2 H 0.7428 1.0921 0.6452
H5A_2 H -0.0921 -0.3493 0.6452
H5E H 1.0921 0.7428 0.3548
H5D H 0.2572 0.3493 0.3548
H5C H 0.6507 -0.0921 0.3548
H5D_2 H 1.2572 0.3493 0.3548
H5C_2 H 0.6507 0.9079 0.3548
H5E_2 H 0.0921 -0.2572 0.3548
O16A O 0.7524(5) 0.7165(7) 0.6963(3)
O16B O 0.2835(7) 0.0359(5) 0.6963(3)
O16B_2 O 1.2835(7) 1.0359(5) 0.6963(3)
O16A_2 O 0.7524(5) -0.2835(7) 0.6963(3)
O16_2 O -0.0359(5) 0.2476(5) 0.6963(3)
O16B_3 O 1.2835(7) 0.0359(5) 0.6963(3)
O16_3 O 0.9641(5) 1.2476(5) 0.6963(3)
O16D O 1.0359(5) 0.2835(7) 0.3037(3)
O16C O 0.7165(7) 0.7524(5) 0.3037(3)
O16E O 0.2476(5) -0.0359(5) 0.3037(3)
H6A H 0.7529 0.7167 0.6457
H6B H 0.2833 0.0362 0.6457
H6B_2 H 1.2833 1.0362 0.6457
H6A_2 H 0.7529 -0.2833 0.6457
H6_2 H -0.0362 0.2471 0.6457
H6B_3 H 1.2833 0.0362 0.6457
H6_3 H 0.9638 1.2471 0.6457
H6D H 1.0362 0.2833 0.3543
H6C H 0.7167 0.7529 0.3543
H6E H 0.2471 -0.0362 0.3543
O17B O 1.1701(7) 0.7666(5) 0.7005(3)
O17A O 0.5965(5) -0.1701(7) 0.7005(3)
O17A_2 O 0.5965(5) 0.8299(7) 0.7005(3)
O17B_2 O 0.1701(7) -0.2334(5) 0.7005(3)
O17_2 O 0.2334(5) 0.4035(5) 0.7005(3)
H7B H 1.1673 0.7645 0.6499
H7A H 0.5972 -0.1673 0.6499
H7A_2 H 0.5972 0.8327 0.6499
H7B_2 H 0.1673 -0.2355 0.6499
H7_2 H 0.2355 0.4028 0.6499
O18A O 0.7369(4) -0.1576(6) 0.8049(3)
O18A_2 O 0.7369(4) 0.8424(6) 0.8049(3)
O18B O 0.1576(6) -0.1055(4) 0.8049(3)
O18B_2 O 1.1576(6) 0.8945(4) 0.8049(3)
O18_2 O 0.1055(4) 0.2631(4) 0.8049(3)
O18B_3 O 1.1576(6) -0.1055(4) 0.8049(3)
O18_3 O 1.1055(4) 1.2631(4) 0.8049(3)
H8A H 0.7367 -0.1591 0.8556
H8A_2 H 0.7367 0.8409 0.8556
H8B H 0.1591 -0.1042 0.8556
H8B_2 H 1.1591 0.8958 0.8556
H8_2 H 0.1042 0.2633 0.8556
H8B_3 H 1.1591 -0.1042 0.8556
H8_3 H 1.1042 1.2633 0.8556
O19A O 0.3655(4) 0.4231(6) 0.8113(3)
O19B O 0.5769(6) -0.0576(4) 0.8113(3)
O19A_2 O 1.3655(4) 0.4231(6) 0.8113(3)
O19B_2 O 0.5769(6) 0.9424(4) 0.8113(3)
O19_2 O 0.0576(4) -0.3655(4) 0.8113(3)
O19D O 0.9424(4) 0.5769(6) 1.1887(3)
O19C O 0.4231(6) 0.3655(4) 1.1887(3)
O19E O 0.6345(4) 0.0576(4) 1.1887(3)
H9A H 0.3252 0.4185 0.8544
H9B H 0.5815 -0.0933 0.8544
H9A_2 H 1.3252 0.4185 0.8544
H9B_2 H 0.5815 0.9067 0.8544
H9_2 H 0.0933 -0.3252 0.8544
H9D H 0.9067 0.5815 1.1456
H9C H 0.4185 0.3252 1.1456
H9E H 0.6748 0.0933 1.1456
O20B O 1.3185(7) 0.7905(5) 0.7998(3)
O20A O 0.4720(5) 0.6815(7) 0.7998(3)
O20B_2 O 0.3185(7) -0.2095(5) 0.7998(3)
O20_2 O 0.2095(5) 0.5280(5) 0.7998(3)
O20A_2 O 0.4720(5) -0.3185(7) 0.7998(3)
O20A_3 O 1.4720(5) 0.6815(7) 0.7998(3)
O20B_3 O 0.3185(7) 0.7905(5) 0.7998(3)
O20_3 O 0.2095(5) -0.4720(5) 0.7998(3)
H10B H 1.3193 0.7916 0.8504
H10A H 0.4723 0.6807 0.8504
H10B_2 H 0.3193 -0.2084 0.8504
H10_2 H 0.2084 0.5277 0.8504
H10A_2 H 0.4723 -0.3193 0.8504
H10A_3 H 1.4723 0.6807 0.8504
H10B_3 H 0.3193 0.7916 0.8504
H10_3 H 0.2084 -0.4723 0.8504
O21B O 1.1249(8) 0.1410(6) 0.6896(5)
O21A O 1.0161(6) 0.8751(8) 0.6896(5)
O21B_2 O 0.1249(8) 0.1410(6) 0.6896(5)
O21_2 O 0.8590(6) 0.9839(6) 0.6896(5)
O21A_2 O 0.0161(6) -0.1249(8) 0.6896(5)
O21A_3 O 1.0161(6) -0.1249(8) 0.6896(5)
O21B_3 O 1.1249(8) 1.1410(6) 0.6896(5)
H11B H 1.1259 0.1412 0.6390
H11A H 1.0153 0.8741 0.6390
H11B_2 H 0.1259 0.1412 0.6390
H11_2 H 0.8588 0.9847 0.6390
H11A_2 H 0.0153 -0.1259 0.6390
H11A_3 H 1.0153 -0.1259 0.6390
H11B_3 H 1.1259 1.1412 0.6390
O22A O 0.8950(4) 0.7331(6) 0.8024(3)
O22B O 0.2669(6) 0.1619(4) 0.8024(3)
O22B_2 O 1.2669(6) 0.1619(4) 0.8024(3)
O22_2 O 0.8381(4) 1.1050(4) 0.8024(3)
O22A_2 O -0.1050(4) -0.2669(6) 0.8024(3)
O22A_3 O 0.8950(4) -0.2669(6) 0.8024(3)
O22D O 1.1619(4) 0.2669(6) 0.1976(3)
O22C O 0.7331(6) 0.8950(4) 0.1976(3)
O22E O 0.1050(4) -0.1619(4) 0.1976(3)
H12A H 0.8940 0.7325 0.8530
H12B H 0.2675 0.1615 0.8530
H12B_2 H 1.2675 0.1615 0.8530
H12_2 H 0.8385 1.1060 0.8530
H12A_2 H -0.1060 -0.2675 0.8530
H12A_3 H 0.8940 -0.2675 0.8530
H12D H 1.1615 0.2675 0.1470
H12C H 0.7325 0.8940 0.1470
H12E H 0.1060 -0.1615 0.1470
O23A O 0.5283(4) 0.3127(6) 0.8094(3)
O23B O 0.6873(6) 0.2156(4) 0.8094(3)
O23D O 1.2156(4) 0.6873(6) 1.1906(3)
O23C O 0.3127(6) 0.5283(4) 1.1906(3)
O23E O 0.4717(4) -0.2156(4) 1.1906(3)
O23D_2 O 1.2156(4) 0.6873(6) 0.1906(3)
O23E_2 O 1.4717(4) 0.7844(4) 0.1906(3)
O23C_2 O 1.3127(6) 0.5283(4) 0.1906(3)
O23E_3 O 0.4717(4) 0.7844(4) 0.1906(3)
O23D_3 O 0.2156(4) -0.3127(6) 0.1906(3)
H13A H 0.5330 0.2772 0.8526
H13B H 0.7228 0.2558 0.8526
H13D H 1.2558 0.7228 1.1474
H13C H 0.2772 0.5330 1.1474
H13E H 0.4670 -0.2558 1.1474
H13D_2 H 1.2558 0.7228 0.1474
H13E_2 H 1.4670 0.7442 0.1474
H13C_2 H 1.2772 0.5330 0.1474
H13E_3 H 0.4670 0.7442 0.1474
H13D_3 H 0.2558 -0.2772 0.1474
O24A O 0.5168(4) 0.4461(6) 0.9412(3)
O24B O 0.5539(6) 0.0707(4) 0.9412(3)
O24D O 1.0707(4) 0.5539(6) 1.0588(3)
O24C O 0.4461(6) 0.5168(4) 1.0588(3)
O24E O 0.4832(4) -0.0707(4) 1.0588(3)
H14A H 0.5576 0.4056 0.9535
H14B H 0.5944 0.1520 0.9535
H14D H 1.1520 0.5944 1.0465
H14C H 0.4056 0.5576 1.0465
H14E H 0.4424 -0.1520 1.0465
C1D C 0.8129(7) 0.6473(10) 0.5316(3)
C1A C 1.1656(7) 0.3527(10) 0.4684(3)
C1E C 0.8344(7) 0.1871(7) 0.5316(3)
C1A_2 C 0.1656(7) 0.3527(10) 0.4684(3)
C1C C 0.3527(10) 0.1656(7) 0.5316(3)
C2D C 0.7806(8) 0.5760(11) 0.4644(4)
C2A C 1.2046(7) 0.4240(11) 0.5356(4)
C2E C 0.7954(7) 0.2194(8) 0.4644(4)
C2A_2 C 0.2046(7) 0.4240(11) 0.5356(4)
C2C C 0.4240(11) 0.2046(7) 0.4644(4)
C3D C 0.8115(7) 0.6475(10) 0.9672(4)
C3E C 0.8360(7) 0.1885(7) 0.9672(4)
C3A C 1.1640(7) 0.3525(10) 1.0328(4)
C3A_2 C 0.1640(7) 0.3525(10) 1.0328(4)
C3C C 0.3525(10) 0.1640(7) 0.9672(4)
C4D C 0.7805(6) 0.5779(9) 1.0354(4)
C4E C 0.7974(7) 0.2195(6) 1.0354(4)
C4A C 1.2026(7) 0.4221(9) 0.9646(4)
C4A_2 C 0.2026(7) 0.4221(9) 0.9646(4)
C4C C 0.4221(9) 0.2026(7) 1.0354(4)
K1 K 0.6667 0.3333 0.55464(16)
loop_
_geom_bond_atom_site_label_1
_geom_bond_atom_site_label_2
_geom_bond_site_symmetry_1
_geom_bond_site_symmetry_2
Co1 O13 1_555 1_555
Co2 O13 1_555 1_555
Co3 O12 1_555 1_555
Co4 O9 1_555 1_555
Co5 O15 1_555 1_555
Co6 O10 1_555 1_555
Co7 O11 1_555 1_555
Co8 O14 1_555 1_555
Co9 O1 1_555 1_555
Co10 O11 1_555 1_555
Co11 O5 1_555 1_555
Co12 O24 1_555 1_555
O1 C1 1_555 1_555
O2 C1 1_555 1_555
O3 Co9 1_555 1_555
O4 C2 1_555 1_555
O5 C3 1_555 1_555
O6 C3 1_555 1_555
O7 Co11 1_555 1_555
O8 C4 1_555 1_555
O9 Co4A_2 1_555 1_555
O10 Co6B_2 1_555 1_555
O11 Co9 1_555 1_555
H1 O11 1_555 1_555
O12 Co4 1_555 1_555
H2 O12 1_555 1_555
O13 Co7 1_555 1_555
H3 O13 1_555 1_555
O14 Co2 1_555 1_555
H4 O14 1_555 1_555
O15 Co2 1_555 1_555
H5 O15 1_555 1_555
O16 Co2 1_555 1_555
H6 O16 1_555 1_555
O17 Co3 1_555 1_555
H7 O17 1_555 1_555
O18 Co3 1_555 1_555
H8 O18 1_555 1_555
O19 Co4 1_555 1_555
H9 O19 1_555 1_555
O20 Co3 1_555 1_555
H10 O20 1_555 1_555
O21 Co5 1_555 1_555
H11 O21 1_555 1_555
O22 Co2 1_555 1_555
H12 O22 1_555 1_555
O23 Co1 1_555 1_555
H13 O23 1_555 1_555
O24 Co8 1_555 1_555
H14 O24 1_555 1_555
C1 C2 1_555 1_555
C2 O3 1_555 1_555
C3 C4 1_555 1_555
C4 O7 1_555 1_555
Co1D O13D 1_555 1_555
Co1C O13C 1_555 1_555
Co1E O13E 1_555 1_555
Co1D_2 O23D 1_555 1_555
Co1C_2 O23C 1_555 1_555
Co1E_2 O23E 1_555 1_555
Co2A O23 1_555 1_555
Co2B O13B 1_555 1_555
Co2D O13D 1_555 1_555
Co2C O13C 1_555 1_555
Co2E O13E 1_555 1_555
Co2B_2 O14B_2 1_555 1_555
Co2A_2 O14A_2 1_555 1_555
Co2_2 O14_2 1_555 1_555
Co2B_3 O15B_2 1_555 1_555
Co2_3 O15_2 1_555 1_555
Co2A_3 O15A_2 1_555 1_555
Co2E_2 O23D 1_555 1_555
Co2D_2 O23C 1_555 1_555
Co2C_2 O23E 1_555 1_555
Co3A O12A 1_555 1_555
Co3B O12B 1_555 1_555
Co3B_2 O12B_2 1_555 1_555
Co3A_2 O12A_2 1_555 1_555
Co3_2 O12_2 1_555 1_555
Co4A O9A 1_555 1_555
Co4B O9B 1_555 1_555
Co4A_2 O17 1_555 1_555
Co4B_2 O9A 1_555 1_555
Co4_2 O9B 1_555 1_555
Co4B_3 O9 1_555 1_555
Co4_3 O9A 1_555 1_555
Co4A_3 O9B 1_555 1_555
Co5A O19 1_555 1_555
Co5B O15B 1_555 1_555
Co5B_2 O17 1_555 1_555
Co5_2 O15_2 1_555 1_555
Co5A_2 O15A_2 1_555 1_555
Co6A O10_2 1_555 1_555
Co6B O10_3 1_555 1_555
Co6B_2 O16B_3 1_555 1_555
Co6_2 O10_2 1_555 1_555
Co6A_2 O10 1_555 1_555
Co6B_3 O10_2 1_555 1_555
Co6_3 O10_3 1_555 1_555
Co6A_3 O10_3 1_555 1_555
Co7A O11A 1_555 1_555
Co7B O15 1_555 1_555
Co7D O11D 1_555 1_555
Co7C O11C 1_555 1_555
Co7E O11E 1_555 1_555
Co7B_2 O12B_2 1_555 1_555
Co7A_2 O12A_2 1_555 1_555
Co7_2 O12_2 1_555 1_555
Co7A_3 O12A_3 1_555 1_555
Co7B_3 O12B_3 1_555 1_555
Co7_3 O12_3 1_555 1_555
Co8A O14A 1_555 1_555
Co8B O14B 1_555 1_555
Co8D O14D 1_555 1_555
Co8C O14C 1_555 1_555
Co8E O14E 1_555 1_555
Co8B_2 O14B_2 1_555 1_555
Co8A_2 O14A_2 1_555 1_555
Co8_2 O14_2 1_555 1_555
Co8A_3 O19A_2 1_555 1_555
Co8B_3 O19B_2 1_555 1_555
Co8_3 O19_2 1_555 1_555
Co9A O1A_2 1_555 1_555
Co9B O1E 1_555 1_555
Co9A_2 O1A 1_555 1_555
Co10A O2D 1_555 1_555
Co10B O2C 1_555 1_555
Co10B_2 O2 1_555 1_555
Co10_2 O2A_2 1_555 1_555
Co11A O5A_2 1_555 1_555
Co11B O5E 1_555 1_555
Co11A_2 O5A 1_555 1_555
Co12A O6D 1_555 1_555
Co12B O6C 1_555 1_555
Co12B_2 O6 1_555 1_555
Co12_2 O6A_2 1_555 1_555
O1D Co9 1_555 1_555
O1A C1A 1_555 1_555
O1E C1E 1_555 1_555
O1A_2 C1A_2 1_555 1_555
O1C Co9A 1_555 1_555
O1B Co9B 1_555 1_555
O2D C1D 1_555 1_555
O2A Co10 1_555 1_555
O2E Co10 1_555 1_555
O2A_2 C1A_2 1_555 1_555
O2C C1C 1_555 1_555
O2B Co10A 1_555 1_555
O2_2 Co10B 1_555 1_555
O3D Co9 1_555 1_555
O3A Co9A_2 1_555 1_555
O3E Co9B 1_555 1_555
O3A_2 Co9A 1_555 1_555
O3C Co9A 1_555 1_555
O3B Co9B 1_555 1_555
O4D Co10A 1_555 1_555
O4A Co10 1_555 1_555
O4E Co10 1_555 1_555
O4A_2 Co10_2 1_555 1_555
O4C Co10B 1_555 1_555
O4B Co10A 1_555 1_555
O4_2 Co10B 1_555 1_555
O5D Co11 1_555 1_555
O5E C3E 1_555 1_555
O5A C3A 1_555 1_555
O5A_2 C3A_2 1_555 1_555
O5C Co11A 1_555 1_555
O5B Co11B 1_555 1_555
O6D C3D 1_555 1_555
O6E Co12 1_555 1_555
O6A Co12 1_555 1_555
O6A_2 C3A_2 1_555 1_555
O6C C3C 1_555 1_555
O6B Co12A 1_555 1_555
O6_2 Co12B 1_555 1_555
O7D Co11 1_555 1_555
O7E Co11B 1_555 1_555
O7A Co11A_2 1_555 1_555
O7A_2 Co11A 1_555 1_555
O7C Co11A 1_555 1_555
O7B Co11B 1_555 1_555
O8D Co12A 1_555 1_555
O8E Co12 1_555 1_555
O8A Co12 1_555 1_555
O8A_2 Co12_2 1_555 1_555
O8C Co12B 1_555 1_555
O8B Co12A 1_555 1_555
O8_2 Co12B 1_555 1_555
O11A Co9A 1_555 1_555
O11B Co7B 1_555 1_555
O11D Co9 1_555 1_555
O11C Co9A 1_555 1_555
O11E Co9B 1_555 1_555
H1A O11A 1_555 1_555
H1B O11B 1_555 1_555
H1D O11D 1_555 1_555
H1C O11C 1_555 1_555
H1E O11E 1_555 1_555
O12A Co4A 1_555 1_555
O12B Co4B 1_555 1_555
O12B_2 Co4B_3 1_555 1_555
O12A_2 Co4A_3 1_555 1_555
O12_2 Co4_3 1_555 1_555
O12A_3 Co4A_2 1_555 1_555
O12B_3 Co4B_2 1_555 1_555
O12_3 Co4_2 1_555 1_555
O12D Co7D 1_555 1_555
O12C Co7C 1_555 1_555
O12E Co7E 1_555 1_555
H2A O12A 1_555 1_555
H2B O12B 1_555 1_555
H2B_2 O12B_2 1_555 1_555
H2A_2 O12A_2 1_555 1_555
H2_2 O12_2 1_555 1_555
H2A_3 O12A_3 1_555 1_555
H2B_3 O12B_3 1_555 1_555
H2_3 O12_3 1_555 1_555
H2D O12D 1_555 1_555
H2C O12C 1_555 1_555
H2E O12E 1_555 1_555
O13A Co1 1_555 1_555
O13B Co1 1_555 1_555
O13D Co7D 1_555 1_555
O13C Co7C 1_555 1_555
O13E Co7E 1_555 1_555
O13E_2 Co1D 1_555 1_555
O13C_2 Co1D 1_555 1_555
H3A O13A 1_555 1_555
H3B O13B 1_555 1_555
H3D O13D 1_555 1_555
H3C O13C 1_555 1_555
H3E O13E 1_555 1_555
H3E_2 O13E_2 1_555 1_555
H3C_2 O13C_2 1_555 1_555
O14A Co2A 1_555 1_555
O14B Co2B 1_555 1_555
O14B_2 Co3B_2 1_555 1_555
O14A_2 Co3A_2 1_555 1_555
O14_2 Co3_2 1_555 1_555
O14D H4D 1_555 1_555
O14C H4C 1_555 1_555
O14E H4E 1_555 1_555
O14D_2 Co2D 1_555 1_555
O14C_2 Co2C 1_555 1_555
O14E_2 Co2E 1_555 1_555
H4A O14A 1_555 1_555
H4B O14B 1_555 1_555
H4B_2 O14B_2 1_555 1_555
H4A_2 O14A_2 1_555 1_555
H4_2 O14_2 1_555 1_555
H4D_2 O14D_2 1_555 1_555
H4C_2 O14C_2 1_555 1_555
H4E_2 O14E_2 1_555 1_555
O15A Co7 1_555 1_555
O15B Co2B 1_555 1_555
O15B_2 Co5B_2 1_555 1_555
O15_2 Co7B_3 1_555 1_555
O15A_2 Co7_3 1_555 1_555
O15E Co7D 1_555 1_555
O15D Co7C 1_555 1_555
O15C Co7E 1_555 1_555
O15D_2 Co2D 1_555 1_555
O15C_2 Co2C 1_555 1_555
O15E_2 Co2E 1_555 1_555
H5A O15A 1_555 1_555
H5B O15B 1_555 1_555
H5B_2 O15B_2 1_555 1_555
H5_2 O15_2 1_555 1_555
H5A_2 O15A_2 1_555 1_555
H5E O15E 1_555 1_555
H5D O15D 1_555 1_555
H5C O15C 1_555 1_555
H5D_2 O15D_2 1_555 1_555
H5C_2 O15C_2 1_555 1_555
H5E_2 O15E_2 1_555 1_555
O16A Co2A 1_555 1_555
O16B Co2B 1_555 1_555
O16B_2 Co2B_2 1_555 1_555
O16A_2 Co2A_2 1_555 1_555
O16_2 Co2_2 1_555 1_555
O16B_3 Co2B_3 1_555 1_555
O16_3 Co2_3 1_555 1_555
O16D Co2D 1_555 1_555
O16C Co2C 1_555 1_555
O16E Co2E 1_555 1_555
H6A O16A 1_555 1_555
H6B O16B 1_555 1_555
H6B_2 O16B_2 1_555 1_555
H6A_2 O16A_2 1_555 1_555
H6_2 O16_2 1_555 1_555
H6B_3 O16B_3 1_555 1_555
H6_3 O16_3 1_555 1_555
H6D O16D 1_555 1_555
H6C O16C 1_555 1_555
H6E O16E 1_555 1_555
O17B Co4 1_555 1_555
O17A Co5 1_555 1_555
O17A_2 Co3A 1_555 1_555
O17B_2 Co3B 1_555 1_555
O17_2 Co3_2 1_555 1_555
H7B O17B 1_555 1_555
H7A O17A 1_555 1_555
H7A_2 O17A_2 1_555 1_555
H7B_2 O17B_2 1_555 1_555
H7_2 O17_2 1_555 1_555
O18A Co5 1_555 1_555
O18A_2 Co3A 1_555 1_555
O18B Co3B 1_555 1_555
O18B_2 Co3B_2 1_555 1_555
O18_2 Co3_2 1_555 1_555
O18B_3 Co6B_2 1_555 1_555
O18_3 Co6_2 1_555 1_555
H8A O18A 1_555 1_555
H8A_2 O18A_2 1_555 1_555
H8B O18B 1_555 1_555
H8B_2 O18B_2 1_555 1_555
H8_2 O18_2 1_555 1_555
H8B_3 O18B_3 1_555 1_555
H8_3 O18_3 1_555 1_555
O19A Co4A 1_555 1_555
O19B Co5 1_555 1_555
O19A_2 Co4A_2 1_555 1_555
O19B_2 Co4B_2 1_555 1_555
O19_2 Co4_2 1_555 1_555
O19D Co8D 1_555 1_555
O19C Co8C 1_555 1_555
O19E Co8E 1_555 1_555
H9A O19A 1_555 1_555
H9B O19B 1_555 1_555
H9A_2 O19A_2 1_555 1_555
H9B_2 O19B_2 1_555 1_555
H9_2 O19_2 1_555 1_555
H9D O19D 1_555 1_555
H9C O19C 1_555 1_555
H9E O19E 1_555 1_555
O20B Co4 1_555 1_555
O20A Co3A 1_555 1_555
O20B_2 Co3B 1_555 1_555
O20_2 Co3_2 1_555 1_555
O20A_2 Co3A_2 1_555 1_555
O20A_3 Co4A_2 1_555 1_555
O20B_3 Co4B_2 1_555 1_555
O20_3 Co4_2 1_555 1_555
H10B O20B 1_555 1_555
H10A O20A 1_555 1_555
H10B_2 O20B_2 1_555 1_555
H10_2 O20_2 1_555 1_555
H10A_2 O20A_2 1_555 1_555
H10A_3 O20A_3 1_555 1_555
H10B_3 O20B_3 1_555 1_555
H10_3 O20_3 1_555 1_555
O21B Co6 1_555 1_555
O21A Co5A 1_555 1_555
O21B_2 Co5B 1_555 1_555
O21_2 Co5_2 1_555 1_555
O21A_2 Co5A_2 1_555 1_555
O21A_3 Co6B_2 1_555 1_555
O21B_3 Co6_2 1_555 1_555
H11B O21B 1_555 1_555
H11A O21A 1_555 1_555
H11B_2 O21B_2 1_555 1_555
H11_2 O21_2 1_555 1_555
H11A_2 O21A_2 1_555 1_555
H11A_3 O21A_3 1_555 1_555
H11B_3 O21B_3 1_555 1_555
O22A Co2A 1_555 1_555
O22B Co2B 1_555 1_555
O22B_2 Co2B_3 1_555 1_555
O22_2 Co2_3 1_555 1_555
O22A_2 Co2A_3 1_555 1_555
O22A_3 Co2A_2 1_555 1_555
O22D Co2D 1_555 1_555
O22C Co2C 1_555 1_555
O22E Co2E 1_555 1_555
H12A O22A 1_555 1_555
H12B O22B 1_555 1_555
H12B_2 O22B_2 1_555 1_555
H12_2 O22_2 1_555 1_555
H12A_2 O22A_2 1_555 1_555
H12A_3 O22A_3 1_555 1_555
H12D O22D 1_555 1_555
H12C O22C 1_555 1_555
H12E O22E 1_555 1_555
O23A Co1 1_555 1_555
O23B Co1 1_555 1_555
O23D Co8D 1_555 1_555
O23C Co8C 1_555 1_555
O23E Co8E 1_555 1_555
O23D_2 Co1D 1_555 1_555
O23E_2 Co1D 1_555 1_555
O23C_2 Co1D 1_555 1_555
O23E_3 Co1C 1_555 1_555
O23D_3 Co1E 1_555 1_555
H13A O23A 1_555 1_555
H13B O23B 1_555 1_555
H13D O23D 1_555 1_555
H13C O23C 1_555 1_555
H13E O23E 1_555 1_555
H13D_2 O23D_2 1_555 1_555
H13E_2 O23E_2 1_555 1_555
H13C_2 O23C_2 1_555 1_555
H13E_3 O23E_3 1_555 1_555
H13D_3 O23D_3 1_555 1_555
O24A Co8A 1_555 1_555
O24B Co8B 1_555 1_555
O24D Co11 1_555 1_555
O24C Co8C 1_555 1_555
O24E Co8E 1_555 1_555
H14A O24A 1_555 1_555
H14B O24B 1_555 1_555
H14D O24D 1_555 1_555
H14C O24C 1_555 1_555
H14E O24E 1_555 1_555
C1D O1D 1_555 1_555
C1A O2A 1_555 1_555
C1E O2E 1_555 1_555
C1A_2 C2A_2 1_555 1_555
C1C O1C 1_555 1_555
C2D O3D 1_555 1_555
C2A O3A 1_555 1_555
C2E O3E 1_555 1_555
C2A_2 O3A_2 1_555 1_555
C2C O3C 1_555 1_555
C3D O5D 1_555 1_555
C3E O6E 1_555 1_555
C3A O6A 1_555 1_555
C3A_2 C4A_2 1_555 1_555
C3C O5C 1_555 1_555
C4D O7D 1_555 1_555
C4E O7E 1_555 1_555
C4A O7A 1_555 1_555
C4A_2 O7A_2 1_555 1_555
C4C O7C 1_555 1_555
Co2 O23B 1_555 1_555
Co3 O14 1_555 1_555
Co3 O16 1_555 1_555
Co4 O20 1_555 1_555
Co5 O22 1_555 1_555
Co6 O16 1_555 1_555
Co6 O18 1_555 1_555
Co6 O21 1_555 1_555
Co6 O22 1_555 1_555
Co7 O12 1_555 1_555
Co8 O19 1_555 1_555
Co8 O23 1_555 1_555
Co10 O11D 1_555 1_555
Co11 O24 1_555 1_555
Co12 O24D 1_555 1_555
O4 Co10B_2 1_555 1_555
O8 Co12B_2 1_555 1_555
O18 Co5B_2 1_555 1_555
O20 Co4A_2 1_555 1_555
O21 Co6A_2 1_555 1_555
Co2A O13A 1_555 1_555
Co2A O15A 1_555 1_555
Co2B O23A 1_555 1_555
Co2D O23C_2 1_555 1_555
Co2C O23E_3 1_555 1_555
Co2E O23D_3 1_555 1_555
Co3A O14A 1_555 1_555
Co3A O16A 1_555 1_555
Co3B O14B 1_555 1_555
Co3B O16B 1_555 1_555
Co3B_2 O16B_2 1_555 1_555
Co3B_2 O17B 1_555 1_555
Co3B_2 O20B 1_555 1_555
Co3A_2 O16A_2 1_555 1_555
Co3A_2 O17A 1_555 1_555
Co3A_2 O18A 1_555 1_555
Co3_2 O16_2 1_555 1_555
Co4A O17_2 1_555 1_555
Co4A O20A 1_555 1_555
Co4A O20_2 1_555 1_555
Co4B O17A 1_555 1_555
Co4B O19B 1_555 1_555
Co4B O20B_2 1_555 1_555
Co4B O20A_2 1_555 1_555
Co4B_2 O17A_2 1_555 1_555
Co4B_2 O20A 1_555 1_555
Co4_2 O17B_2 1_555 1_555
Co4_2 O20B_2 1_555 1_555
Co4B_3 O20B 1_555 1_555
Co4B_3 O20A_3 1_555 1_555
Co4_3 O20_2 1_555 1_555
Co4_3 O20B_3 1_555 1_555
Co4A_3 O20A_2 1_555 1_555
Co4A_3 O20_3 1_555 1_555
Co5A O15A 1_555 1_555
Co5A O17B 1_555 1_555
Co5A O18B_2 1_555 1_555
Co5A O22A 1_555 1_555
Co5B O17_2 1_555 1_555
Co5B O18_2 1_555 1_555
Co5B O19A 1_555 1_555
Co5B O22B 1_555 1_555
Co5B_2 O19A_2 1_555 1_555
Co5B_2 O21B 1_555 1_555
Co5B_2 O22B_2 1_555 1_555
Co5_2 O17A_2 1_555 1_555
Co5_2 O18A_2 1_555 1_555
Co5_2 O19B_2 1_555 1_555
Co5_2 O22_2 1_555 1_555
Co5A_2 O17B_2 1_555 1_555
Co5A_2 O18B 1_555 1_555
Co5A_2 O19_2 1_555 1_555
Co5A_2 O22A_2 1_555 1_555
Co6A O16A 1_555 1_555
Co6A O18A_2 1_555 1_555
Co6A O21A 1_555 1_555
Co6A O21_2 1_555 1_555
Co6A O22A 1_555 1_555
Co6B O16B 1_555 1_555
Co6B O18B 1_555 1_555
Co6B O21B_2 1_555 1_555
Co6B O21A_2 1_555 1_555
Co6B O22B 1_555 1_555
Co6B_2 O21B 1_555 1_555
Co6B_2 O22B_2 1_555 1_555
Co6_2 O16_3 1_555 1_555
Co6_2 O21_2 1_555 1_555
Co6_2 O22_2 1_555 1_555
Co6A_2 O16A_2 1_555 1_555
Co6A_2 O18A 1_555 1_555
Co6A_2 O21A_3 1_555 1_555
Co6A_2 O22A_3 1_555 1_555
Co6B_3 O16B_2 1_555 1_555
Co6B_3 O18B_2 1_555 1_555
Co6B_3 O21A 1_555 1_555
Co6B_3 O21B_3 1_555 1_555
Co6_3 O16_2 1_555 1_555
Co6_3 O18_2 1_555 1_555
Co6_3 O21B_2 1_555 1_555
Co6A_3 O21A_2 1_555 1_555
Co6A_3 O22A_2 1_555 1_555
Co7A O12A 1_555 1_555
Co7A O13A 1_555 1_555
Co7A O15B 1_555 1_555
Co7B O12B 1_555 1_555
Co7B O13B 1_555 1_555
Co7A_3 O15B_2 1_555 1_555
Co8A O19A 1_555 1_555
Co8A O23A 1_555 1_555
Co8B O19B 1_555 1_555
Co8B O23B 1_555 1_555
Co8D O24D 1_555 1_555
Co9B O11B 1_555 1_555
Co10A O11A 1_555 1_555
Co10A O11C 1_555 1_555
Co10B O11B 1_555 1_555
Co10B O11E 1_555 1_555
Co11A O24A 1_555 1_555
Co11A O24C 1_555 1_555
Co11B O24B 1_555 1_555
Co11B O24E 1_555 1_555
Co12A O24A 1_555 1_555
Co12A O24C 1_555 1_555
Co12B O24B 1_555 1_555
Co12B O24E 1_555 1_555
O4D C2D 1_555 1_555
O4A C2A 1_555 1_555
O4E C2E 1_555 1_555
O4A_2 C2A_2 1_555 1_555
O4C C2C 1_555 1_555
O8D C4D 1_555 1_555
O8E C4E 1_555 1_555
O8A C4A 1_555 1_555
O8A_2 C4A_2 1_555 1_555
O8C C4C 1_555 1_555
C1D C2D 1_555 1_555
C1A C2A 1_555 1_555
C1E C2E 1_555 1_555
C1C C2C 1_555 1_555
C3D C4D 1_555 1_555
C3E C4E 1_555 1_555
C3A C4A 1_555 1_555
C3C C4C 1_555 1_555

#END
