
#######################################################################
#
#                 Cambridge Crystallographic Data Centre
#                                CCDC 
#
#######################################################################
#
# If this CIF has been generated from an entry in the Cambridge 
# Structural Database, then it will include bibliographic, chemical, 
# crystal, experimental, refinement or atomic coordinate data resulting 
# from the CCDC's data processing and validation procedures.
#
#######################################################################

data_COMPOK01
_symmetry_cell_setting           monoclinic
_symmetry_space_group_name_H-M   'I 2/a'
_symmetry_Int_Tables_number      15
_space_group_name_Hall           '-I 2ya'
loop_
_symmetry_equiv_pos_site_id
_symmetry_equiv_pos_as_xyz
1 x,y,z
2 1/2-x,y,-z
3 1/2+x,1/2+y,1/2+z
4 -x,1/2+y,1/2-z
5 -x,-y,-z
6 1/2+x,-y,z
7 1/2-x,1/2-y,1/2-z
8 x,1/2-y,1/2+z
_cell_length_a                   17.0942(5)
_cell_length_b                   12.1908(3)
_cell_length_c                   18.1609(8)
_cell_angle_alpha                90
_cell_angle_beta                 107.5570(10)
_cell_angle_gamma                90
_cell_volume                     3608.29
loop_
_atom_site_label
_atom_site_type_symbol
_atom_site_fract_x
_atom_site_fract_y
_atom_site_fract_z
Mn1 Mn 0.0000 0.5000 0.0000
Mn2 Mn 0.20325(2) 0.45077(4) 0.07253(3)
Mn3 Mn 0.2500 0.22027(5) 0.0000
O1 O 0.2500 0.3718(2) 0.0000
O2 O 0.03740(14) 0.5780(2) 0.10757(14)
O3 O 0.16940(14) 0.5348(2) 0.15604(15)
C1 C 0.1046(2) 0.5814(3) 0.1592(2)
C2 C 0.1083(3) 0.6475(5) 0.2304(3)
H1 H 0.0681 0.7072 0.2166
H2 H 0.1634 0.6783 0.2520
H3 H 0.0957 0.5999 0.2688
O4 O 0.29903(13) 0.56816(19) 0.09377(14)
O5 O 0.38065(12) 0.54663(17) 0.01949(12)
C3 C 0.36686(17) 0.5748(2) 0.08210(18)
C4 C 0.4370(2) 0.6210(3) 0.1463(2)
H4 H 0.4172 0.6822 0.1709
H5 H 0.4799 0.6473 0.1251
H6 H 0.4594 0.5637 0.1847
O6 O 0.08606(12) 0.36023(17) 0.04494(12)
O7 O 0.14026(13) 0.19829(18) 0.03433(15)
C5 C 0.08047(17) 0.2590(2) 0.02743(17)
C6 C -0.0033(2) 0.2072(3) -0.0019(3)
H7 H -0.0105 0.1755 -0.0530
H8 H -0.0455 0.2632 -0.0054
H9 H -0.0085 0.1494 0.0339
O8 O 0.27194(14) 0.3508(2) 0.16274(13)
O9 O 0.31702(13) 0.21002(17) 0.10700(13)
C7 C 0.31519(18) 0.2676(3) 0.16498(18)
C8 C 0.3707(3) 0.2290(4) 0.2417(2)
H10 H 0.4102 0.2868 0.2650
H11 H 0.4002 0.1631 0.2341
H12 H 0.3377 0.2118 0.2760
N1 N 0.2500 0.0479(3) 0.0000
C9 C 0.31534(18) -0.0078(3) 0.04368(19)
H13 H 0.3618 0.0315 0.0741
C10 C 0.3165(2) -0.1208(3) 0.0454(2)
H14 H 0.3628 -0.1585 0.0776
C11 C 0.2500 -0.1790(4) 0.0000
H15 H 0.2500 -0.2569 0.0000
C9A C 0.18466(18) -0.0078(3) -0.04368(19)
H13A H 0.1382 0.0315 -0.0741
C10A C 0.1835(2) -0.1208(3) -0.0454(2)
H14A H 0.1372 -0.1585 -0.0776
Mn2A Mn 0.29675(2) 0.45077(4) -0.07253(3)
O2A O 0.46260(14) 0.5780(2) -0.10757(14)
O3A O 0.33060(14) 0.5348(2) -0.15604(15)
C1A C 0.3954(2) 0.5814(3) -0.1592(2)
C2A C 0.3917(3) 0.6475(5) -0.2304(3)
H1A H 0.4319 0.7072 -0.2166
H2A H 0.3366 0.6783 -0.2520
H3A H 0.4043 0.5999 -0.2688
O4A O 0.20097(13) 0.56816(19) -0.09377(14)
O5A O 0.11935(12) 0.54663(17) -0.01949(12)
C3A C 0.13314(17) 0.5748(2) -0.08210(18)
C4A C 0.0630(2) 0.6210(3) -0.1463(2)
H4A H 0.0828 0.6822 -0.1709
H5A H 0.0201 0.6473 -0.1251
H6A H 0.0406 0.5637 -0.1847
O6A O 0.41394(12) 0.36023(17) -0.04494(12)
O7A O 0.35974(13) 0.19829(18) -0.03433(15)
C5A C 0.41953(17) 0.2590(2) -0.02743(17)
C6A C 0.5033(2) 0.2072(3) 0.0019(3)
H7A H 0.5105 0.1755 0.0530
H8A H 0.5455 0.2632 0.0054
H9A H 0.5085 0.1494 -0.0339
O8A O 0.22806(14) 0.3508(2) -0.16274(13)
O9A O 0.18298(13) 0.21002(17) -0.10700(13)
C7A C 0.18481(18) 0.2676(3) -0.16498(18)
C8A C 0.1293(3) 0.2290(4) -0.2417(2)
H10A H 0.0898 0.2868 -0.2650
H11A H 0.0998 0.1631 -0.2341
H12A H 0.1623 0.2118 -0.2760
Mn1A Mn 0.5000 0.5000 0.0000
O2D O -0.03740(14) 0.4220(2) -0.10757(14)
O5E O -0.11935(12) 0.45337(17) 0.01949(12)
O6D O -0.08606(12) 0.63977(17) -0.04494(12)
N2 N 0.0196(2) 0.0107(4) 0.1604(3)
C12 C 0.0865(3) -0.0003(4) 0.1652(2)
C13 C 0.1727(3) -0.0126(4) 0.1719(3)
H16 H 0.1902 0.0483 0.1453
H17 H 0.1812 -0.0822 0.1484
H18 H 0.2051 -0.0123 0.2266
loop_
_geom_bond_atom_site_label_1
_geom_bond_atom_site_label_2
_geom_bond_site_symmetry_1
_geom_bond_site_symmetry_2
Mn1 O2 1_555 1_555
Mn2 O1 1_555 1_555
Mn3 O1 1_555 1_555
O1 Mn2A 1_555 1_555
O2 C1 1_555 1_555
O3 Mn2 1_555 1_555
C1 O3 1_555 1_555
C2 C1 1_555 1_555
H1 C2 1_555 1_555
H2 C2 1_555 1_555
H3 C2 1_555 1_555
O4 Mn2 1_555 1_555
O5 C3 1_555 1_555
C3 O4 1_555 1_555
C4 C3 1_555 1_555
H4 C4 1_555 1_555
H5 C4 1_555 1_555
H6 C4 1_555 1_555
O6 Mn1 1_555 1_555
O7 Mn3 1_555 1_555
C5 O6 1_555 1_555
C6 C5 1_555 1_555
H7 C6 1_555 1_555
H8 C6 1_555 1_555
H9 C6 1_555 1_555
O8 Mn2 1_555 1_555
O9 Mn3 1_555 1_555
C7 O8 1_555 1_555
C8 C7 1_555 1_555
H10 C8 1_555 1_555
H11 C8 1_555 1_555
H12 C8 1_555 1_555
N1 Mn3 1_555 1_555
C9 N1 1_555 1_555
H13 C9 1_555 1_555
C10 C9 1_555 1_555
H14 C10 1_555 1_555
C11 C10 1_555 1_555
H15 C11 1_555 1_555
N2 C12 1_555 1_555
C12 C13 1_555 1_555
C13 H16 1_555 1_555
H17 C13 1_555 1_555
H18 C13 1_555 1_555
C9A N1 1_555 1_555
H13A C9A 1_555 1_555
C10A C11 1_555 1_555
H14A C10A 1_555 1_555
Mn2A O5 1_555 1_555
O2A C1A 1_555 1_555
O3A Mn2A 1_555 1_555
C1A O3A 1_555 1_555
C2A C1A 1_555 1_555
H1A C2A 1_555 1_555
H2A C2A 1_555 1_555
H3A C2A 1_555 1_555
O4A Mn2A 1_555 1_555
O5A Mn1 1_555 1_555
C3A O4A 1_555 1_555
C4A C3A 1_555 1_555
H4A C4A 1_555 1_555
H5A C4A 1_555 1_555
H6A C4A 1_555 1_555
O6A Mn2A 1_555 1_555
O7A Mn3 1_555 1_555
C5A O6A 1_555 1_555
C6A C5A 1_555 1_555
H7A C6A 1_555 1_555
H8A C6A 1_555 1_555
H9A C6A 1_555 1_555
O8A Mn2A 1_555 1_555
O9A Mn3 1_555 1_555
C7A O8A 1_555 1_555
C8A C7A 1_555 1_555
H10A C8A 1_555 1_555
H11A C8A 1_555 1_555
H12A C8A 1_555 1_555
Mn1A O5 1_555 1_555
O2D Mn1 1_555 1_555
O5E Mn1 1_555 1_555
O6D Mn1 1_555 1_555
Mn2 O6 1_555 1_555
Mn2 O5A 1_555 1_555
O7 C5 1_555 1_555
O9 C7 1_555 1_555
C9A C10A 1_555 1_555
O2A Mn1A 1_555 1_555
O5A C3A 1_555 1_555
O6A Mn1A 1_555 1_555
O7A C5A 1_555 1_555
O9A C7A 1_555 1_555

#END
