
#######################################################################
#
#                 Cambridge Crystallographic Data Centre
#                                CCDC 
#
#######################################################################
#
# If this CIF has been generated from an entry in the Cambridge 
# Structural Database, then it will include bibliographic, chemical, 
# crystal, experimental, refinement or atomic coordinate data resulting 
# from the CCDC's data processing and validation procedures.
#
#######################################################################

data_COMPOK
_symmetry_cell_setting           monoclinic
_symmetry_space_group_name_H-M   'I 2/a'
_symmetry_Int_Tables_number      15
_space_group_name_Hall           '-I 2ya'
loop_
_symmetry_equiv_pos_site_id
_symmetry_equiv_pos_as_xyz
1 x,y,z
2 1/2+x,1/2+y,1/2+z
3 1/2-x,y,-z
4 -x,1/2+y,1/2-z
5 -x,-y,-z
6 1/2-x,1/2-y,1/2-z
7 1/2+x,-y,z
8 x,1/2-y,1/2+z
_cell_length_a                   17.0557(12)
_cell_length_b                   12.1401(5)
_cell_length_c                   18.0933(9)
_cell_angle_alpha                90
_cell_angle_beta                 107.486(6)
_cell_angle_gamma                90
_cell_volume                     3573.24
loop_
_atom_site_label
_atom_site_type_symbol
_atom_site_fract_x
_atom_site_fract_y
_atom_site_fract_z
Mn1 Mn 0.2500 0.27925(5) 0.0000
Mn2 Mn 0.20340(3) 0.04889(4) 0.07232(3)
Mn3 Mn 0.0000 0.0000 0.0000
C1 C 0.1855(2) 0.5078(3) -0.04311(19)
H1 H 0.1399 0.4691 -0.0729
C2 C 0.1839(2) 0.6216(3) -0.0452(2)
H2 H 0.1384 0.6584 -0.0771
C3 C 0.2500 0.6802(4) 0.0000
H3 H 0.2500 0.7568 0.0000
C4 C 0.3156(2) 0.2325(3) 0.16503(19)
C5 C 0.3711(2) 0.2717(3) 0.2422(2)
H4 H 0.3394 0.2814 0.2776
H5 H 0.3957 0.3406 0.2355
H6 H 0.4134 0.2181 0.2628
C6 C 0.07985(19) 0.2423(3) 0.02768(18)
C7 C -0.0037(2) 0.2929(3) -0.0019(2)
H7 H -0.0097 0.3489 0.0335
H8 H -0.0448 0.2371 -0.0063
H9 H -0.0103 0.3251 -0.0518
C8 C 0.3671(2) -0.0755(2) 0.08217(19)
C9 C 0.4366(2) -0.1209(3) 0.14625(19)
H10 H 0.4619 -0.0626 0.1811
H11 H 0.4765 -0.1534 0.1250
H12 H 0.4162 -0.1760 0.1738
C10 C 0.1043(2) -0.0809(3) 0.1592(2)
C11 C 0.1075(3) -0.1482(4) 0.2302(2)
H13 H 0.0946 -0.1020 0.2680
H14 H 0.1616 -0.1783 0.2516
H15 H 0.0682 -0.2070 0.2162
N1 N 0.2500 0.4519(3) 0.0000
O1 O 0.2500 0.1283(2) 0.0000
O2 O 0.31729(14) 0.28970(17) 0.10726(12)
O3 O 0.27224(15) 0.14897(19) 0.16309(13)
O4 O 0.14038(14) 0.30261(18) 0.03482(14)
O5 O 0.08597(12) 0.14019(17) 0.04502(12)
O6 O 0.29916(14) -0.06915(19) 0.09371(14)
O7 O 0.38080(13) -0.04713(17) 0.01927(12)
O8 O 0.16918(15) -0.0348(2) 0.15599(15)
O9 O 0.03711(15) -0.0775(2) 0.10796(13)
Mn2B Mn 0.29660(3) 0.04889(4) -0.07232(3)
Mn2D Mn -0.20340(3) -0.04889(4) -0.07232(3)
Mn3F Mn 0.5000 0.0000 0.0000
C1B C 0.3145(2) 0.5078(3) 0.04311(19)
H1B H 0.3601 0.4691 0.0729
C2B C 0.3161(2) 0.6216(3) 0.0452(2)
H2B H 0.3616 0.6584 0.0771
C4B C 0.1844(2) 0.2325(3) -0.16503(19)
C5B C 0.1289(2) 0.2717(3) -0.2422(2)
H4B H 0.1606 0.2814 -0.2776
H5B H 0.1043 0.3406 -0.2355
H6B H 0.0866 0.2181 -0.2628
C6B C 0.42015(19) 0.2423(3) -0.02768(18)
C7B C 0.5037(2) 0.2929(3) 0.0019(2)
H7B H 0.5097 0.3489 -0.0335
H8B H 0.5448 0.2371 0.0063
H9B H 0.5103 0.3251 0.0518
C8B C 0.1329(2) -0.0755(2) -0.08217(19)
C9B C 0.0634(2) -0.1209(3) -0.14625(19)
H10B H 0.0381 -0.0626 -0.1811
H11B H 0.0235 -0.1534 -0.1250
H12B H 0.0838 -0.1760 -0.1738
C10D C -0.1043(2) 0.0809(3) -0.1592(2)
C11D C -0.1075(3) 0.1482(4) -0.2302(2)
H13D H -0.0946 0.1020 -0.2680
H14D H -0.1616 0.1783 -0.2516
H15D H -0.0682 0.2070 -0.2162
O2B O 0.18271(14) 0.28970(17) -0.10726(12)
O3B O 0.22776(15) 0.14897(19) -0.16309(13)
O4B O 0.35962(14) 0.30261(18) -0.03482(14)
O5B O 0.41403(12) 0.14019(17) -0.04502(12)
O5D O -0.08597(12) -0.14019(17) -0.04502(12)
O6B O 0.20084(14) -0.06915(19) -0.09371(14)
O7B O 0.11920(13) -0.04713(17) -0.01927(12)
O7F O -0.11920(13) 0.04713(17) 0.01927(12)
O8D O -0.16918(15) 0.0348(2) -0.15599(15)
O8B O 0.33082(15) -0.0348(2) -0.15599(15)
O9D O -0.03711(15) 0.0775(2) -0.10796(13)
C12 C 0.3274(3) 0.9877(4) 0.3286(2)
H16 H 0.3115 1.0460 0.3570
H17 H 0.3184 0.9179 0.3496
H18 H 0.2951 0.9917 0.2751
C13 C 0.4135(3) 0.9990(3) 0.3346(2)
N2 N 0.4802(2) 1.0103(3) 0.3389(2)
loop_
_geom_bond_atom_site_label_1
_geom_bond_atom_site_label_2
_geom_bond_site_symmetry_1
_geom_bond_site_symmetry_2
Mn1 N1 1_555 1_555
Mn2 O1 1_555 1_555
Mn3 O5 1_555 1_555
C1 H1 1_555 1_555
C2 C1 1_555 1_555
H2 C2 1_555 1_555
C3 C2 1_555 1_555
H3 C3 1_555 1_555
C4 C5 1_555 1_555
C5 H4 1_555 1_555
H5 C5 1_555 1_555
H6 C5 1_555 1_555
C6 C7 1_555 1_555
C7 H7 1_555 1_555
H8 C7 1_555 1_555
H9 C7 1_555 1_555
C8 C9 1_555 1_555
C9 H10 1_555 1_555
H11 C9 1_555 1_555
H12 C9 1_555 1_555
C10 C11 1_555 1_555
C11 H13 1_555 1_555
H14 C11 1_555 1_555
H15 C11 1_555 1_555
N1 C1 1_555 1_555
O1 Mn1 1_555 1_555
O2 Mn1 1_555 1_555
O3 Mn2 1_555 1_555
O4 Mn1 1_555 1_555
O5 Mn2 1_555 1_555
O6 Mn2 1_555 1_555
O7 C8 1_555 1_555
O8 Mn2 1_555 1_555
O9 Mn3 1_555 1_555
C12 H16 1_555 1_555
H17 C12 1_555 1_555
H18 C12 1_555 1_555
C13 C12 1_555 1_555
N2 C13 1_555 1_555
Mn2B O1 1_555 1_555
Mn2D O5D 1_555 1_555
Mn3F O7 1_555 1_555
C1B N1 1_555 1_555
H1B C1B 1_555 1_555
C2B C3 1_555 1_555
H2B C2B 1_555 1_555
C4B C5B 1_555 1_555
C5B H4B 1_555 1_555
H5B C5B 1_555 1_555
H6B C5B 1_555 1_555
C6B C7B 1_555 1_555
C7B H7B 1_555 1_555
H8B C7B 1_555 1_555
H9B C7B 1_555 1_555
C8B C9B 1_555 1_555
C9B H10B 1_555 1_555
H11B C9B 1_555 1_555
H12B C9B 1_555 1_555
C10D C11D 1_555 1_555
C11D H13D 1_555 1_555
H14D C11D 1_555 1_555
H15D C11D 1_555 1_555
O2B Mn1 1_555 1_555
O3B Mn2B 1_555 1_555
O4B Mn1 1_555 1_555
O5B Mn2B 1_555 1_555
O5D Mn3 1_555 1_555
O6B Mn2B 1_555 1_555
O7B Mn2 1_555 1_555
O7F Mn3 1_555 1_555
O8D Mn2D 1_555 1_555
O8B Mn2B 1_555 1_555
O9D Mn3 1_555 1_555
Mn3 O7B 1_555 1_555
C4 O2 1_555 1_555
C4 O3 1_555 1_555
C6 O4 1_555 1_555
C6 O5 1_555 1_555
C8 O6 1_555 1_555
C10 O8 1_555 1_555
C10 O9 1_555 1_555
O7 Mn2B 1_555 1_555
Mn2D O7F 1_555 1_555
Mn3F O5B 1_555 1_555
C1B C2B 1_555 1_555
C4B O2B 1_555 1_555
C4B O3B 1_555 1_555
C6B O4B 1_555 1_555
C6B O5B 1_555 1_555
C8B O6B 1_555 1_555
C8B O7B 1_555 1_555
C10D O8D 1_555 1_555
C10D O9D 1_555 1_555

#END
