
#######################################################################
#
#                 Cambridge Crystallographic Data Centre
#                                CCDC 
#
#######################################################################
#
# If this CIF has been generated from an entry in the Cambridge 
# Structural Database, then it will include bibliographic, chemical, 
# crystal, experimental, refinement or atomic coordinate data resulting 
# from the CCDC's data processing and validation procedures.
#
#######################################################################

data_COMSAZ
_symmetry_cell_setting           orthorhombic
_symmetry_space_group_name_H-M   'P c a 21'
_symmetry_Int_Tables_number      29
_space_group_name_Hall           'P 2c -2ac'
loop_
_symmetry_equiv_pos_site_id
_symmetry_equiv_pos_as_xyz
1 x,y,z
2 1/2-x,y,1/2+z
3 1/2+x,-y,z
4 -x,-y,1/2+z
_cell_length_a                   24.2341(9)
_cell_length_b                   10.4181(5)
_cell_length_c                   35.3851(18)
_cell_angle_alpha                90
_cell_angle_beta                 90
_cell_angle_gamma                90
_cell_volume                     8933.79
loop_
_atom_site_label
_atom_site_type_symbol
_atom_site_fract_x
_atom_site_fract_y
_atom_site_fract_z
W1 W 0.03826(3) 0.68463(7) 0.21836(5)
Y1 Y -0.12105(7) 0.23408(17) 0.24598(7)
Ni1 Ni 0.00040(9) 0.1854(2) 0.20202(8)
C1 C 0.0161(9) 0.486(2) 0.2052(6)
C2 C 0.0114(7) 0.8775(16) 0.2144(6)
C3 C -0.0514(6) 0.6733(15) 0.2141(5)
C4 C 0.0195(8) 0.717(2) 0.1597(5)
C5 C 0.1027(7) 0.8046(18) 0.2448(5)
C6 C 0.1106(7) 0.6288(16) 0.1865(5)
C7 C 0.0063(8) 0.715(2) 0.2747(6)
C8 C 0.0853(8) 0.5618(19) 0.2571(6)
C17 C -0.1275(11) 0.147(2) 0.3461(7)
C18 C -0.0387(9) 0.1166(19) 0.3148(5)
C19 C -0.0185(8) 0.057(2) 0.3470(6)
C20 C 0.0379(9) 0.0304(19) 0.3473(6)
C21 C 0.0728(8) 0.0644(19) 0.3175(5)
C22 C 0.0501(9) 0.121(2) 0.2852(6)
C23 C -0.0074(8) 0.1491(18) 0.2847(6)
C24 C 0.0892(10) 0.149(2) 0.2566(7)
C25 C 0.1236(7) 0.2184(19) 0.1971(5)
C26 C 0.1239(8) 0.160(2) 0.1569(6)
C27 C 0.0727(7) 0.213(2) 0.1337(5)
C28 C -0.0154(8) 0.1305(18) 0.1218(6)
C29 C -0.0725(8) 0.1013(19) 0.1282(6)
C30 C -0.1004(8) 0.0401(18) 0.0970(6)
C31 C -0.1584(10) 0.015(2) 0.0999(7)
C32 C -0.1874(9) 0.055(2) 0.1326(6)
C33 C -0.1593(8) 0.1176(19) 0.1604(6)
C34 C -0.1021(8) 0.1353(19) 0.1593(6)
C35 C -0.2458(8) 0.1575(19) 0.1924(6)
C36 C 0.1223(9) 0.0168(19) 0.1581(6)
C37 C 0.1744(7) 0.206(2) 0.1380(5)
N1 N 0.0064(6) 0.3823(15) 0.1990(4)
N2 N -0.0032(6) 0.9823(14) 0.2094(4)
N3 N -0.0971(6) 0.6623(14) 0.2107(4)
N4 N 0.0109(7) 0.7360(17) 0.1296(5)
N5 N 0.1387(7) 0.8590(16) 0.2555(5)
N6 N 0.1493(7) 0.5998(16) 0.1708(5)
N7 N -0.0122(7) 0.7245(18) 0.3044(5)
N8 N 0.1115(7) 0.4983(17) 0.2747(5)
N17 N 0.0784(5) 0.1802(14) 0.2237(5)
N18 N 0.0203(6) 0.1693(15) 0.1478(4)
O1 O -0.0932(6) 0.1545(13) 0.3108(4)
O2 O -0.0300(5) 0.2029(12) 0.2548(3)
O3 O -0.0797(5) 0.1943(13) 0.1892(3)
O4 O -0.1859(5) 0.1636(13) 0.1919(4)
O5 O -0.2074(5) 0.2625(13) 0.2743(4)
O6 O -0.1445(6) 0.0227(13) 0.2533(4)
O7 O -0.1507(5) 0.4193(11) 0.2145(4)
O8 O -0.0970(5) 0.4143(13) 0.2830(4)
H1 H -0.1636 0.1800 0.3409
H2 H -0.1106 0.1951 0.3662
H3 H -0.1307 0.0580 0.3536
H4 H -0.0416 0.0373 0.3671
H5 H 0.0530 -0.0118 0.3680
H6 H 0.1107 0.0487 0.3185
H7 H 0.1264 0.1414 0.2632
H8 H 0.1584 0.1963 0.2091
H9 H 0.1212 0.3108 0.1941
H10 H 0.0730 0.3058 0.1354
H11 H 0.0766 0.1857 0.1074
H12 H -0.0023 0.1216 0.0973
H13 H -0.0851 0.0519 0.0730
H14 H -0.1783 0.0084 0.0775
H15 H -0.2249 0.0379 0.1355
H16 H -0.2593 0.1993 0.2147
H17 H -0.2570 0.0692 0.1924
H18 H -0.2595 0.1996 0.1701
H19 H 0.1251 -0.0170 0.1330
H20 H 0.1525 -0.0151 0.1728
H21 H 0.0881 -0.0102 0.1693
H22 H 0.1722 0.1835 0.1116
H23 H 0.2067 0.1663 0.1490
H24 H 0.1767 0.2974 0.1406
Ni1_2 Ni 0.00040(9) 1.1854(2) 0.20202(8)
N2_2 N -0.0032(6) -0.0177(14) 0.2094(4)
W2 W 0.24751(3) 0.21012(7) 0.48834(5)
Y2 Y 0.08890(7) 0.76371(18) 0.45905(7)
Ni2 Ni 0.20842(9) 0.7102(2) 0.50529(8)
C9 C 0.2182(7) 0.4040(17) 0.4936(6)
C10 C 0.2275(8) 0.0144(18) 0.5019(5)
C11 C 0.1611(6) 0.1994(17) 0.4964(4)
C12 C 0.2146(8) 0.2525(19) 0.4327(6)
C13 C 0.3125(9) 0.333(2) 0.4684(5)
C14 C 0.3202(8) 0.1459(17) 0.5189(6)
C15 C 0.2943(8) 0.0853(19) 0.4489(6)
C16 C 0.2365(7) 0.2454(16) 0.5477(5)
C38 C -0.0357(9) 0.665(2) 0.5047(6)
C39 C 0.0464(9) 0.6375(18) 0.5426(6)
C40 C 0.0206(8) 0.5846(18) 0.5754(6)
C41 C 0.0449(9) 0.5529(18) 0.6045(6)
C42 C 0.0984(9) 0.574(2) 0.6068(6)
C43 C 0.1312(7) 0.6282(17) 0.5778(5)
C44 C 0.1036(7) 0.6612(18) 0.5454(5)
C45 C 0.1898(8) 0.6583(19) 0.5840(6)
C46 C 0.2791(8) 0.731(2) 0.5751(6)
C47 C 0.3275(7) 0.6876(19) 0.5513(5)
C48 C 0.3299(8) 0.746(2) 0.5133(6)
C49 C 0.3003(7) 0.6841(18) 0.4529(5)
C50 C 0.2630(7) 0.6601(16) 0.4223(5)
C51 C 0.2861(9) 0.610(2) 0.3876(6)
C52 C 0.2554(8) 0.5874(17) 0.3573(5)
C53 C 0.1997(8) 0.6193(19) 0.3565(6)
C54 C 0.1756(8) 0.6639(19) 0.3872(6)
C55 C 0.2069(7) 0.6854(19) 0.4225(5)
C56 C 0.0898(7) 0.703(2) 0.3589(5)
C57 C 0.3791(9) 0.738(2) 0.5756(6)
C58 C 0.3288(8) 0.5389(18) 0.5510(6)
N9 N 0.2063(6) 0.5089(14) 0.4967(4)
N10 N 0.2134(6) -0.0890(14) 0.5066(5)
N11 N 0.1156(7) 0.1781(17) 0.5026(5)
N12 N 0.2000(9) 0.277(2) 0.4018(6)
N13 N 0.3483(8) 0.3942(18) 0.4558(6)
N14 N 0.3576(7) 0.1053(16) 0.5338(5)
N15 N 0.3190(9) 0.025(2) 0.4285(7)
N16 N 0.2255(7) 0.2628(17) 0.5783(5)
N19 N 0.2232(6) 0.6911(16) 0.5604(4)
N20 N 0.2865(5) 0.7092(13) 0.4875(4)
O9 O 0.0224(5) 0.6780(13) 0.5095(3)
O10 O 0.1259(5) 0.7116(12) 0.5139(3)
O11 O 0.1788(5) 0.7302(11) 0.4513(3)
O12 O 0.1216(5) 0.7041(13) 0.3926(3)
O13 O 0.1154(5) 0.9556(13) 0.4291(4)
O14 O 0.0555(4) 0.9412(10) 0.4944(4)
O15 O 0.0671(6) 0.5494(14) 0.4457(4)
O16 O 0.0047(5) 0.8025(13) 0.4283(4)
H25 H -0.0456 0.7002 0.4805
H26 H -0.0538 0.7116 0.5246
H27 H -0.0459 0.5759 0.5059
H28 H -0.0173 0.5729 0.5744
H29 H 0.0257 0.5162 0.6244
H30 H 0.1161 0.5522 0.6292
H31 H 0.2023 0.6496 0.6086
H32 H 0.2837 0.6959 0.6003
H33 H 0.2800 0.8234 0.5760
H34 H 0.3646 0.7227 0.5018
H35 H 0.3278 0.8386 0.5164
H36 H 0.3379 0.6808 0.4473
H37 H 0.3239 0.5954 0.3864
H38 H 0.2711 0.5490 0.3363
H39 H 0.1789 0.6087 0.3346
H40 H 0.0551 0.7455 0.3633
H41 H 0.0830 0.6155 0.3517
H42 H 0.1090 0.7466 0.3387
H43 H 0.4125 0.7022 0.5655
H44 H 0.3745 0.7110 0.6014
H45 H 0.3803 0.8295 0.5743
H46 H 0.3651 0.5103 0.5440
H47 H 0.3201 0.5074 0.5759
H48 H 0.3023 0.5067 0.5332
Ni2_2 Ni 0.20842(9) -0.2898(2) 0.50529(8)
N10_2 N 0.2134(6) 0.9110(14) 0.5066(5)
O17 O 0.0120(6) 0.3633(14) 0.4826(5)
O18 O 0.0433(6) 0.1645(13) 0.4310(4)
O19 O 0.0725(8) 0.3700(18) 0.3853(5)
O20 O 0.1676(9) 0.318(2) 0.3245(6)
O21 O 0.2418(9) 0.167(2) 0.2832(6)
O22 O 0.3303(9) 0.289(2) 0.3700(6)
O23 O 0.4384(6) -0.0125(14) 0.4434(4)
O24 O 0.4426(9) 0.328(2) 0.3795(6)
O25 O 0.3834(7) 0.1483(15) 0.3055(5)
O26 O 0.3298(7) 0.3886(16) 0.2927(5)
O27 O 0.2977(8) 0.1559(18) 0.2154(7)
O28 O 0.3117(6) 0.3008(16) 0.1511(4)
O29 O 0.4838(6) 0.2274(13) 0.0519(4)
O30 O 0.7545(8) 0.4914(15) 0.1794(5)
O31 O 0.7263(6) 0.0844(14) 0.3026(4)
O32 O 0.7046(6) 0.0268(14) 0.3808(4)
O33 O 0.9286(7) 0.4229(16) 0.4315(5)
O34 O 0.0420(6) -0.0172(14) 0.0213(4)
O35 O -0.2635(6) 0.4898(14) 0.2584(4)
loop_
_geom_bond_atom_site_label_1
_geom_bond_atom_site_label_2
_geom_bond_site_symmetry_1
_geom_bond_site_symmetry_2
W1 C1 1_555 1_555
W2 C9 1_555 1_555
Y1 O1 1_555 1_555
Y2 O9 1_555 1_555
Ni1 N1 1_555 1_555
Ni2 N9 1_555 1_555
C1 N1 1_555 1_555
C2 W1 1_555 1_555
C3 W1 1_555 1_555
C4 W1 1_555 1_555
C5 W1 1_555 1_555
C6 W1 1_555 1_555
C7 W1 1_555 1_555
C8 W1 1_555 1_555
C9 N9 1_555 1_555
C10 W2 1_555 1_555
C11 W2 1_555 1_555
C12 W2 1_555 1_555
C13 W2 1_555 1_555
C14 W2 1_555 1_555
C15 W2 1_555 1_555
C16 W2 1_555 1_555
C17 O1 1_555 1_555
C18 C19 1_555 1_555
C19 C20 1_555 1_555
C20 C21 1_555 1_555
C21 C22 1_555 1_555
C22 C23 1_555 1_555
C23 C18 1_555 1_555
C24 C22 1_555 1_555
C25 C26 1_555 1_555
C26 C27 1_555 1_555
C27 N18 1_555 1_555
C28 C29 1_555 1_555
C29 C30 1_555 1_555
C30 C31 1_555 1_555
C31 C32 1_555 1_555
C32 C33 1_555 1_555
C33 C34 1_555 1_555
C34 C29 1_555 1_555
C35 O4 1_555 1_555
C36 C26 1_555 1_555
C37 C26 1_555 1_555
C38 O9 1_555 1_555
C39 C40 1_555 1_555
C40 C41 1_555 1_555
C41 C42 1_555 1_555
C42 C43 1_555 1_555
C43 C44 1_555 1_555
C44 C39 1_555 1_555
C45 C43 1_555 1_555
C46 C47 1_555 1_555
C47 C48 1_555 1_555
C48 N20 1_555 1_555
C49 C50 1_555 1_555
C50 C51 1_555 1_555
C51 C52 1_555 1_555
C52 C53 1_555 1_555
C53 C54 1_555 1_555
C54 C55 1_555 1_555
C55 C50 1_555 1_555
C56 O12 1_555 1_555
C57 C47 1_555 1_555
C58 C47 1_555 1_555
N2 C2 1_555 1_555
N3 C3 1_555 1_555
N4 C4 1_555 1_555
N5 C5 1_555 1_555
N6 C6 1_555 1_555
N7 C7 1_555 1_555
N8 C8 1_555 1_555
N10 C10 1_555 1_555
N11 C11 1_555 1_555
N12 C12 1_555 1_555
N13 C13 1_555 1_555
N14 C14 1_555 1_555
N15 C15 1_555 1_555
N16 C16 1_555 1_555
N17 Ni1 1_555 1_555
N18 Ni1 1_555 1_555
N19 Ni2 1_555 1_555
N20 Ni2 1_555 1_555
O1 C18 1_555 1_555
O2 Y1 1_555 1_555
O3 Y1 1_555 1_555
O4 Y1 1_555 1_555
O5 Y1 1_555 1_555
O6 Y1 1_555 1_555
O7 Y1 1_555 1_555
O8 Y1 1_555 1_555
O9 C39 1_555 1_555
O10 Y2 1_555 1_555
O11 Y2 1_555 1_555
O12 Y2 1_555 1_555
O13 Y2 1_555 1_555
O14 Y2 1_555 1_555
O15 Y2 1_555 1_555
O16 Y2 1_555 1_555
H1 C17 1_555 1_555
H2 C17 1_555 1_555
H3 C17 1_555 1_555
H4 C19 1_555 1_555
H5 C20 1_555 1_555
H6 C21 1_555 1_555
H7 C24 1_555 1_555
H8 C25 1_555 1_555
H9 C25 1_555 1_555
H10 C27 1_555 1_555
H11 C27 1_555 1_555
H12 C28 1_555 1_555
H13 C30 1_555 1_555
H14 C31 1_555 1_555
H15 C32 1_555 1_555
H16 C35 1_555 1_555
H17 C35 1_555 1_555
H18 C35 1_555 1_555
H19 C36 1_555 1_555
H20 C36 1_555 1_555
H21 C36 1_555 1_555
H22 C37 1_555 1_555
H23 C37 1_555 1_555
H24 C37 1_555 1_555
H25 C38 1_555 1_555
H26 C38 1_555 1_555
H27 C38 1_555 1_555
H28 C40 1_555 1_555
H29 C41 1_555 1_555
H30 C42 1_555 1_555
H31 C45 1_555 1_555
H32 C46 1_555 1_555
H33 C46 1_555 1_555
H34 C48 1_555 1_555
H35 C48 1_555 1_555
H36 C49 1_555 1_555
H37 C51 1_555 1_555
H38 C52 1_555 1_555
H39 C53 1_555 1_555
H40 C56 1_555 1_555
H41 C56 1_555 1_555
H42 C56 1_555 1_555
H43 C57 1_555 1_555
H44 C57 1_555 1_555
H45 C57 1_555 1_555
H46 C58 1_555 1_555
H47 C58 1_555 1_555
H48 C58 1_555 1_555
Ni1_2 N2 1_555 1_555
Ni2_2 N10 1_555 1_555
N2_2 Ni1 1_555 1_555
N10_2 Ni2 1_555 1_555
Ni1 O2 1_555 1_555
Ni1 O3 1_555 1_555
Ni2 O10 1_555 1_555
Ni2 O11 1_555 1_555
C23 O2 1_555 1_555
C24 N17 1_555 1_555
C25 N17 1_555 1_555
C28 N18 1_555 1_555
C33 O4 1_555 1_555
C34 O3 1_555 1_555
C44 O10 1_555 1_555
C45 N19 1_555 1_555
C46 N19 1_555 1_555
C49 N20 1_555 1_555
C54 O12 1_555 1_555
C55 O11 1_555 1_555

#END
