
#######################################################################
#
#                 Cambridge Crystallographic Data Centre
#                                CCDC 
#
#######################################################################
#
# If this CIF has been generated from an entry in the Cambridge 
# Structural Database, then it will include bibliographic, chemical, 
# crystal, experimental, refinement or atomic coordinate data resulting 
# from the CCDC's data processing and validation procedures.
#
#######################################################################

data_COMVAC
_symmetry_cell_setting           orthorhombic
_symmetry_space_group_name_H-M   'P n m a'
_symmetry_Int_Tables_number      62
_space_group_name_Hall           '-P 2ac 2n'
loop_
_symmetry_equiv_pos_site_id
_symmetry_equiv_pos_as_xyz
1 x,y,z
2 1/2-x,-y,1/2+z
3 1/2+x,1/2-y,1/2-z
4 -x,1/2+y,-z
5 -x,-y,-z
6 1/2+x,y,1/2-z
7 1/2-x,1/2+y,1/2+z
8 x,1/2-y,z
_cell_length_a                   9.5938(5)
_cell_length_b                   14.0907(8)
_cell_length_c                   7.5724(4)
_cell_angle_alpha                90
_cell_angle_beta                 90
_cell_angle_gamma                90
_cell_volume                     1023.66
loop_
_atom_site_label
_atom_site_type_symbol
_atom_site_fract_x
_atom_site_fract_y
_atom_site_fract_z
Cu1 Cu 0.60565(5) 0.37034(3) -0.00750(6)
O1 O 0.5898(5) 0.2500 -0.1190(5)
C1 C 0.7573(5) 0.4922(3) 0.2385(6)
H1 H 0.8142 0.4401 0.2724
C2 C 0.5400(11) 0.2500 0.4891(8)
H2 H 0.5274 0.2500 0.6135
N1 N 0.6516(4) 0.4879(3) 0.1298(5)
N2 N 0.5966(4) 0.5746(3) 0.1160(6)
N3 N 0.6711(5) 0.6308(3) 0.2177(6)
N4 N 0.7726(4) 0.5813(3) 0.2943(5)
N5 N 0.5507(7) 0.3254(4) 0.3833(6)
N6 N 0.5677(5) 0.2979(3) 0.2193(5)
Cu1D Cu 0.39435(5) 0.62966(3) 0.00750(6)
Cu1G Cu 0.60565(5) 0.12966(3) -0.00750(6)
Cu1A Cu 0.89435(5) 0.62966(3) 0.49250(6)
Cu1E Cu 0.10565(5) 0.37034(3) -0.49250(6)
O1D O 0.4102(5) 0.7500 0.1190(5)
C1D C 0.2427(5) 0.5078(3) -0.2385(6)
H1D H 0.1858 0.5599 -0.2724
N1D N 0.3484(4) 0.5121(3) -0.1298(5)
N2D N 0.4034(4) 0.4254(3) -0.1160(6)
N3D N 0.3289(5) 0.3692(3) -0.2177(6)
N4D N 0.2274(4) 0.4187(3) -0.2943(5)
N4A N 0.7274(4) 0.4187(3) -0.2057(5)
N4E N 0.2726(4) 0.5813(3) 0.2057(5)
N5G N 0.5507(7) 0.1746(4) 0.3833(6)
N6G N 0.5677(5) 0.2021(3) 0.2193(5)
N6D N 0.4323(5) 0.7021(3) -0.2193(5)
loop_
_geom_bond_atom_site_label_1
_geom_bond_atom_site_label_2
_geom_bond_site_symmetry_1
_geom_bond_site_symmetry_2
Cu1 O1 1_555 1_555
O1 Cu1G 1_555 1_555
C1 H1 1_555 1_555
C2 H2 1_555 1_555
N1 Cu1 1_555 1_555
N2 N1 1_555 1_555
N3 N2 1_555 1_555
N4 C1 1_555 1_555
N5 C2 1_555 1_555
N6 Cu1 1_555 1_555
Cu1D N2 1_555 1_555
Cu1G N6G 1_555 1_555
Cu1A N4 1_555 1_555
Cu1E N4D 1_555 1_555
O1D Cu1D 1_555 1_555
C1D H1D 1_555 1_555
N1D Cu1D 1_555 1_555
N2D Cu1 1_555 1_555
N3D N2D 1_555 1_555
N4D C1D 1_555 1_555
N4A Cu1 1_555 1_555
N4E Cu1D 1_555 1_555
N5G C2 1_555 1_555
N6G N6 1_555 1_555
N6D Cu1D 1_555 1_555
C1 N1 1_555 1_555
N3 N4 1_555 1_555
N5 N6 1_555 1_555
C1D N1D 1_555 1_555
N1D N2D 1_555 1_555
N3D N4D 1_555 1_555
N5G N6G 1_555 1_555

#END
