
#######################################################################
#
#                 Cambridge Crystallographic Data Centre
#                                CCDC 
#
#######################################################################
#
# If this CIF has been generated from an entry in the Cambridge 
# Structural Database, then it will include bibliographic, chemical, 
# crystal, experimental, refinement or atomic coordinate data resulting 
# from the CCDC's data processing and validation procedures.
#
#######################################################################

data_COMVEG
_symmetry_cell_setting           orthorhombic
_symmetry_space_group_name_H-M   'P b c a'
_symmetry_Int_Tables_number      61
_space_group_name_Hall           '-P 2ac 2ab'
loop_
_symmetry_equiv_pos_site_id
_symmetry_equiv_pos_as_xyz
1 x,y,z
2 1/2-x,-y,1/2+z
3 -x,1/2+y,1/2-z
4 1/2+x,1/2-y,-z
5 -x,-y,-z
6 1/2+x,y,1/2-z
7 x,1/2-y,1/2+z
8 1/2-x,1/2+y,z
_cell_length_a                   9.4470(5)
_cell_length_b                   13.6234(8)
_cell_length_c                   18.5477(11)
_cell_angle_alpha                90
_cell_angle_beta                 90
_cell_angle_gamma                90
_cell_volume                     2387.09
loop_
_atom_site_label
_atom_site_type_symbol
_atom_site_fract_x
_atom_site_fract_y
_atom_site_fract_z
Cd1 Cd 0.21404(3) 0.73618(2) 0.126094(15)
Cd2 Cd 0.36673(3) 0.89638(2) 0.439090(16)
Br1 Br 0.28894(8) 1.05085(5) 0.36974(4)
C1 C 0.4608(5) 0.6991(4) 0.2523(2)
C2 C 0.2409(6) 0.4883(4) 0.1534(3)
C3 C 0.5389(5) 0.8248(4) 0.0908(3)
N1 N 0.3377(4) 0.7375(3) 0.2331(2)
N2 N 0.2967(4) 0.7966(4) 0.2865(2)
N3 N 0.3942(4) 0.7937(3) 0.3364(2)
N4 N 0.4990(4) 0.7329(3) 0.3166(2)
N5 N 0.2591(5) 0.5677(3) 0.1121(2)
N6 N 0.3473(4) 0.5377(3) 0.0597(2)
N7 N 0.3796(4) 0.4460(3) 0.0696(2)
N8 N 0.3128(5) 0.4120(3) 0.1284(2)
N9 N 0.4321(4) 0.7698(3) 0.0676(2)
N10 N 0.4729(4) 0.7375(3) 0.0027(2)
N11 N 0.5987(4) 0.7715(3) -0.01232(19)
N12 N 0.6429(4) 0.8276(3) 0.0423(2)
Cd1E Cd 0.71404(3) 0.73618(2) 0.373906(15)
Cd1G Cd 0.28596(3) 0.23618(2) 0.126094(15)
Cd1C Cd 0.71404(3) 0.76382(2) -0.126094(15)
Cd2F Cd 0.36673(3) 0.60362(2) -0.060910(16)
Cd2B Cd 0.63327(3) 0.39638(2) 0.060910(16)
Cd2E Cd 0.86673(3) 0.89638(2) 0.060910(16)
N4E N -0.0010(4) 0.7329(3) 0.1834(2)
N6F N 0.3473(4) 0.9623(3) 0.5597(2)
N7B N 0.6204(4) 0.9460(3) 0.4304(2)
N8G N 0.1872(5) 0.9120(3) 0.1284(2)
N10F N 0.4729(4) 0.7625(3) 0.5027(2)
N11C N 0.0987(4) 0.7285(3) 0.01232(19)
N12E N 0.1429(4) 0.8276(3) 0.4577(2)
loop_
_geom_bond_atom_site_label_1
_geom_bond_atom_site_label_2
_geom_bond_site_symmetry_1
_geom_bond_site_symmetry_2
Cd1 N1 1_555 1_555
Cd2 Br1 1_555 1_555
C1 N1 1_555 1_555
C2 N5 1_555 1_555
C3 N9 1_555 1_555
N1 N2 1_555 1_555
N2 N3 1_555 1_555
N3 Cd2 1_555 1_555
N4 C1 1_555 1_555
N5 Cd1 1_555 1_555
N6 N5 1_555 1_555
N7 N6 1_555 1_555
N8 C2 1_555 1_555
N9 Cd1 1_555 1_555
N10 N9 1_555 1_555
N11 N10 1_555 1_555
N12 C3 1_555 1_555
Cd1E N4 1_555 1_555
Cd1G N8 1_555 1_555
Cd1C N11 1_555 1_555
Cd2F N6 1_555 1_555
Cd2B N7 1_555 1_555
Cd2E N12 1_555 1_555
N4E Cd1 1_555 1_555
N6F Cd2 1_555 1_555
N7B Cd2 1_555 1_555
N8G Cd1 1_555 1_555
N10F Cd2 1_555 1_555
N11C Cd1 1_555 1_555
N12E Cd2 1_555 1_555
N3 N4 1_555 1_555
N7 N8 1_555 1_555
N10 Cd2F 1_555 1_555
N11 N12 1_555 1_555

#END
