
#######################################################################
#
#                 Cambridge Crystallographic Data Centre
#                                CCDC 
#
#######################################################################
#
# If this CIF has been generated from an entry in the Cambridge 
# Structural Database, then it will include bibliographic, chemical, 
# crystal, experimental, refinement or atomic coordinate data resulting 
# from the CCDC's data processing and validation procedures.
#
#######################################################################

data_COMXUZ
_symmetry_cell_setting           triclinic
_symmetry_space_group_name_H-M   'P -1'
_symmetry_Int_Tables_number      2
_space_group_name_Hall           '-P 1'
loop_
_symmetry_equiv_pos_site_id
_symmetry_equiv_pos_as_xyz
1 x,y,z
2 -x,-y,-z
_cell_length_a                   8.6232(9)
_cell_length_b                   8.7066(9)
_cell_length_c                   13.1526(15)
_cell_angle_alpha                87.020(9)
_cell_angle_beta                 72.764(10)
_cell_angle_gamma                67.786(10)
_cell_volume                     871.119
loop_
_atom_site_label
_atom_site_type_symbol
_atom_site_fract_x
_atom_site_fract_y
_atom_site_fract_z
Cu1 Cu 0.0000 0.0000 0.5000
C1 C 0.1357(3) 0.7802(3) 0.29242(19)
C2 C 0.2033(3) 0.6399(3) 0.42067(19)
C3 C 0.2365(3) 0.1811(3) 0.40785(19)
H1 H 0.2785 0.1647 0.4683
C4 C 0.1040(3) 0.1793(3) 0.29627(19)
H2 H 0.0296 0.1564 0.2638
H3 H 0.0852 0.8704 0.2549
H4 H 0.2140 0.6066 0.4873
C5 C 0.3875(3) 0.3669(3) 0.3136(2)
H5 H 0.4553 0.3358 0.3656
H6 H 0.4719 0.3442 0.2409
N1 N 0.1242(3) 0.1217(2) 0.39230(15)
N2 N 0.1963(3) 0.2689(3) 0.25297(16)
N3 N 0.1130(3) 0.7929(2) 0.39971(16)
N4 N 0.2772(3) 0.5426(2) 0.33098(15)
N5 N 0.2349(3) 0.6304(3) 0.24722(16)
N6 N 0.2813(3) 0.2673(2) 0.32564(15)
O1 O 0.2396(2) -0.1080(2) 0.57209(14)
H7 H 0.2623 -0.0353 0.5992
H8 H 0.3311 -0.1736 0.5265
C1A C -0.1357(3) -0.7802(3) 0.70758(19)
C2A C -0.2033(3) -0.6399(3) 0.57933(19)
C3A C -0.2365(3) -0.1811(3) 0.59215(19)
H1A H -0.2785 -0.1647 0.5317
C4A C -0.1040(3) -0.1793(3) 0.70373(19)
H2A H -0.0296 -0.1564 0.7362
H3A H -0.0852 -0.8704 0.7451
H4A H -0.2140 -0.6066 0.5127
C5A C -0.3875(3) -0.3669(3) 0.6864(2)
H5A H -0.4553 -0.3358 0.6344
H6A H -0.4719 -0.3442 0.7591
N1A N -0.1242(3) -0.1217(2) 0.60770(15)
N2A N -0.1963(3) -0.2689(3) 0.74703(16)
N3A N -0.1130(3) -0.7929(2) 0.60029(16)
N4A N -0.2772(3) -0.5426(2) 0.66902(15)
N5A N -0.2349(3) -0.6304(3) 0.75278(16)
N6A N -0.2813(3) -0.2673(2) 0.67436(15)
O1A O -0.2396(2) 0.1080(2) 0.42791(14)
H7A H -0.2623 0.0353 0.4008
H8A H -0.3311 0.1736 0.4735
Cu1_2 Cu 0.0000 -1.0000 0.5000
Cu1_3 Cu 0.0000 1.0000 0.5000
N3_2 N 0.1130(3) -0.2071(2) 0.39971(16)
N3A_2 N -0.1130(3) 0.2071(2) 0.60029(16)
C6 C 0.6902(3) 0.6462(3) 0.22031(18)
C7 C 0.8161(3) 0.4978(3) 0.16819(19)
H9 H 0.9019 0.4289 0.1999
C8 C 0.8162(3) 0.4496(3) 0.06807(19)
C9 C 0.6935(3) 0.5517(3) 0.01994(18)
H10 H 0.6938 0.5185 -0.0478
C10 C 0.5701(3) 0.7031(3) 0.07208(19)
C11 C 0.4382(3) 0.8149(3) 0.02121(19)
C12 C 0.5668(3) 0.7511(3) 0.17265(19)
H11 H 0.4817 0.8539 0.2083
C13 C 0.9523(3) 0.2867(3) 0.01659(19)
O2 O 0.9382(2) 0.2400(2) -0.07190(15)
H12 H 1.0238 0.1397 -0.0994
O3 O 1.0672(2) 0.2038(2) 0.05550(15)
O4 O 0.4272(2) 0.7799(2) -0.06398(13)
O5 O 0.3356(2) 0.9549(2) 0.08022(15)
H13 H 0.2614 0.9874 0.0473
O6 O 0.5325(3) 0.6747(3) 0.42379(15)
O7 O 0.8452(2) 0.6019(2) 0.36812(15)
O8 O 0.6478(3) 0.8827(2) 0.35030(15)
S1 S 0.68043(8) 0.70416(7) 0.35067(5)
O9 O 0.8004(2) 0.0226(2) 0.17290(14)
H14 H 0.7434 -0.0184 0.2233
H15 H 0.7358 0.0761 0.1347
loop_
_geom_bond_atom_site_label_1
_geom_bond_atom_site_label_2
_geom_bond_site_symmetry_1
_geom_bond_site_symmetry_2
Cu1 N1 1_555 1_555
C1 H3 1_555 1_555
C2 H4 1_555 1_555
C3 H1 1_555 1_555
C4 H2 1_555 1_555
C5 H5 1_555 1_555
H6 C5 1_555 1_555
N1 C3 1_555 1_555
N2 C4 1_555 1_555
N3 C1 1_555 1_555
N4 C2 1_555 1_555
N5 C1 1_555 1_555
N6 C3 1_555 1_555
O1 Cu1 1_555 1_555
H7 O1 1_555 1_555
H8 O1 1_555 1_555
C6 C7 1_555 1_555
C7 H9 1_555 1_555
C8 C7 1_555 1_555
C9 C8 1_555 1_555
H10 C9 1_555 1_555
C10 C9 1_555 1_555
C11 C10 1_555 1_555
C12 C6 1_555 1_555
H11 C12 1_555 1_555
C13 C8 1_555 1_555
O2 C13 1_555 1_555
H12 O2 1_555 1_555
O3 C13 1_555 1_555
O4 C11 1_555 1_555
O5 C11 1_555 1_555
H13 O5 1_555 1_555
O6 S1 1_555 1_555
O7 S1 1_555 1_555
O8 S1 1_555 1_555
S1 C6 1_555 1_555
O9 H14 1_555 1_555
H15 O9 1_555 1_555
C1A H3A 1_555 1_555
C2A H4A 1_555 1_555
C3A H1A 1_555 1_555
C4A H2A 1_555 1_555
C5A H5A 1_555 1_555
H6A C5A 1_555 1_555
N1A Cu1 1_555 1_555
N2A C4A 1_555 1_555
N3A C1A 1_555 1_555
N4A C2A 1_555 1_555
N5A C1A 1_555 1_555
N6A C3A 1_555 1_555
O1A Cu1 1_555 1_555
H7A O1A 1_555 1_555
H8A O1A 1_555 1_555
Cu1_2 N3A 1_555 1_555
Cu1_3 N3 1_555 1_555
N3_2 Cu1 1_555 1_555
N3A_2 Cu1 1_555 1_555
C2 N3 1_555 1_555
C4 N1 1_555 1_555
C5 N4 1_555 1_555
C5 N6 1_555 1_555
N2 N6 1_555 1_555
N4 N5 1_555 1_555
C10 C12 1_555 1_555
C2A N3A 1_555 1_555
C3A N1A 1_555 1_555
C4A N1A 1_555 1_555
C5A N4A 1_555 1_555
C5A N6A 1_555 1_555
N2A N6A 1_555 1_555
N4A N5A 1_555 1_555

#END
