
#######################################################################
#
#                 Cambridge Crystallographic Data Centre
#                                CCDC 
#
#######################################################################
#
# If this CIF has been generated from an entry in the Cambridge 
# Structural Database, then it will include bibliographic, chemical, 
# crystal, experimental, refinement or atomic coordinate data resulting 
# from the CCDC's data processing and validation procedures.
#
#######################################################################

data_COMZUB
_symmetry_cell_setting           triclinic
_symmetry_space_group_name_H-M   'P -1'
_symmetry_Int_Tables_number      2
_space_group_name_Hall           '-P 1'
loop_
_symmetry_equiv_pos_site_id
_symmetry_equiv_pos_as_xyz
1 x,y,z
2 -x,-y,-z
_cell_length_a                   8.8206(3)
_cell_length_b                   8.9883(5)
_cell_length_c                   11.4370(5)
_cell_angle_alpha                112.0200(10)
_cell_angle_beta                 100.5200(10)
_cell_angle_gamma                103.6900(10)
_cell_volume                     778.792
loop_
_atom_site_label
_atom_site_type_symbol
_atom_site_fract_x
_atom_site_fract_y
_atom_site_fract_z
Na1 Na 0.89122(9) 0.29701(6) 0.03689(5)
Mn1 Mn 0.824696(11) 0.819776(10) 0.568635(9)
Mn2 Mn 0.5000 0.0000 0.0000
N1 N 0.75947(6) 0.54475(6) 0.50630(5)
C1 C 0.80549(7) 0.45149(7) 0.40669(6)
C2 C 0.77236(7) 0.27719(7) 0.36756(6)
C3 C 0.68570(7) 0.20388(7) 0.43429(6)
H1 H 0.6626 0.0882 0.4109
C4 C 0.63329(7) 0.30105(7) 0.53526(6)
C5 C 0.67713(7) 0.47533(7) 0.57085(6)
C6 C 0.90004(7) 0.55462(7) 0.34735(6)
O1 O 0.91361(6) 0.71259(5) 0.39724(4)
O2 O 0.95711(6) 0.48415(6) 0.26082(5)
C7 C 0.82458(7) 0.16400(7) 0.25799(6)
O3 O 0.94308(6) 0.12078(6) 0.29047(5)
O4 O 0.74193(6) 0.11389(7) 0.14121(5)
C8 C 0.53392(7) 0.21722(7) 0.60238(6)
O5 O 0.61069(6) 0.18355(6) 0.68684(4)
O6 O 0.38211(5) 0.18106(6) 0.56703(5)
C9 C 0.64364(8) 0.60345(7) 0.68510(6)
O7 O 0.57563(7) 0.55009(6) 0.75412(5)
O8 O 0.69001(6) 0.75584(5) 0.70092(5)
O9 O 0.88063(5) 1.09029(5) 0.67098(5)
H2 H 0.8009(3) 1.1226(6) 0.6718(6)
H3 H 0.9493(3) 1.1524(6) 0.6535(4)
O10 O 0.50821(8) -0.24964(6) -0.03845(5)
H4 H 0.5213(7) -0.3080(8) -0.1087(2)
H5 H 0.5602(7) -0.2625(6) 0.0227(3)
O11 O 0.37452(6) -0.02810(6) 0.14397(4)
H6 H 0.3960(6) -0.0733(3) 0.1937(3)
H7 H 0.3592(5) 0.0613(3) 0.1876(5)
O12 O 1.04790(14) 0.1414(2) -0.04009(13)
H8 H 1.0645(14) 0.1021(16) -0.1122(5)
H9 H 1.0952(15) 0.1096(9) 0.0122(5)
O13 O 0.80178(13) 0.47140(11) -0.04503(9)
H10 H 0.7601(15) 0.4331(7) -0.1265(3)
H11 H 0.8222(15) 0.5767(4) -0.0125(6)
Na1A Na 0.10878(9) -0.29701(6) -0.03689(5)
Mn1A Mn 0.175304(11) -0.819776(10) -0.568635(9)
N1A N 0.24053(6) -0.54475(6) -0.50630(5)
C1A C 0.19451(7) -0.45149(7) -0.40669(6)
C2A C 0.22764(7) -0.27719(7) -0.36756(6)
C3A C 0.31430(7) -0.20388(7) -0.43429(6)
H1A H 0.3374 -0.0882 -0.4109
C4A C 0.36671(7) -0.30105(7) -0.53526(6)
C5A C 0.32287(7) -0.47533(7) -0.57085(6)
C6A C 0.09996(7) -0.55462(7) -0.34735(6)
O1A O 0.08639(6) -0.71259(5) -0.39724(4)
O2A O 0.04289(6) -0.48415(6) -0.26082(5)
C7A C 0.17542(7) -0.16400(7) -0.25799(6)
O3A O 0.05692(6) -0.12078(6) -0.29047(5)
O4A O 0.25807(6) -0.11389(7) -0.14121(5)
C8A C 0.46608(7) -0.21722(7) -0.60238(6)
O5A O 0.38931(6) -0.18355(6) -0.68684(4)
O6A O 0.61789(5) -0.18106(6) -0.56703(5)
C9A C 0.35636(8) -0.60345(7) -0.68510(6)
O7A O 0.42437(7) -0.55009(6) -0.75412(5)
O8A O 0.30999(6) -0.75584(5) -0.70092(5)
O9A O 0.11937(5) -1.09029(5) -0.67098(5)
H2A H 0.1991(3) -1.1226(6) -0.6718(6)
H3A H 0.0507(3) -1.1524(6) -0.6535(4)
O10A O 0.49179(8) 0.24964(6) 0.03845(5)
H4A H 0.4787(7) 0.3080(8) 0.1087(2)
H5A H 0.4398(7) 0.2625(6) -0.0227(3)
O11A O 0.62548(6) 0.02810(6) -0.14397(4)
H6A H 0.6040(6) 0.0733(3) -0.1937(3)
H7A H 0.6408(5) -0.0613(3) -0.1876(5)
O12A O -0.04790(14) -0.1414(2) 0.04009(13)
H8A H -0.0645(14) -0.1021(16) 0.1122(5)
H9A H -0.0952(15) -0.1096(9) -0.0122(5)
O13A O 0.19822(13) -0.47140(11) 0.04503(9)
H10A H 0.2399(15) -0.4331(7) 0.1265(3)
H11A H 0.1778(15) -0.5767(4) 0.0125(6)
Na1_2 Na -0.10878(9) -0.70299(6) 0.03689(5)
Na1A_2 Na 1.10878(9) 0.70299(6) -0.03689(5)
Mn1_2 Mn -0.175304(11) -0.180224(10) -0.431365(9)
Mn1_3 Mn 0.824696(11) -0.180224(10) -0.431365(9)
Mn1A_2 Mn 0.175304(11) 0.180224(10) 0.431365(9)
Mn1A_3 Mn 1.175304(11) 0.180224(10) 0.431365(9)
O3_2 O -0.05692(6) -0.87922(6) -0.70953(5)
O3A_2 O 1.05692(6) 0.87922(6) 0.70953(5)
O6_2 O 0.38211(5) -0.81894(6) -0.43297(5)
O6A_2 O 0.61789(5) 0.81894(6) 0.43297(5)
O13_2 O -0.19822(13) -0.52860(11) -0.04503(9)
O13A_2 O 1.19822(13) 0.52860(11) 0.04503(9)
O14 O 0.66710(11) -0.30513(12) -0.84056(7)
H12 H 0.6702(5) -0.2866(10) -0.7638(3)
H13 H 0.7584(4) -0.2600(9) -0.8433(4)
loop_
_geom_bond_atom_site_label_1
_geom_bond_atom_site_label_2
_geom_bond_site_symmetry_1
_geom_bond_site_symmetry_2
Na1 O2 1_555 1_555
Mn1 N1 1_555 1_555
Mn2 O4 1_555 1_555
N1 C1 1_555 1_555
C1 C2 1_555 1_555
C2 C3 1_555 1_555
C3 H1 1_555 1_555
C4 C3 1_555 1_555
C5 N1 1_555 1_555
C6 C1 1_555 1_555
O1 Mn1 1_555 1_555
O2 C6 1_555 1_555
C7 C2 1_555 1_555
O3 C7 1_555 1_555
O4 Na1 1_555 1_555
C8 C4 1_555 1_555
O5 C8 1_555 1_555
O6 C8 1_555 1_555
C9 C5 1_555 1_555
O7 C9 1_555 1_555
O8 Mn1 1_555 1_555
O9 Mn1 1_555 1_555
H2 O9 1_555 1_555
H3 O9 1_555 1_555
O10 Mn2 1_555 1_555
H4 O10 1_555 1_555
H5 O10 1_555 1_555
O11 Mn2 1_555 1_555
H6 O11 1_555 1_555
H7 O11 1_555 1_555
O12 Na1 1_555 1_555
H8 O12 1_555 1_555
H9 O12 1_555 1_555
O13 Na1 1_555 1_555
H10 O13 1_555 1_555
H11 O13 1_555 1_555
O14 H12 1_555 1_555
H13 O14 1_555 1_555
Na1A O11 1_555 1_555
Mn1A N1A 1_555 1_555
N1A C1A 1_555 1_555
C1A C2A 1_555 1_555
C2A C3A 1_555 1_555
C3A H1A 1_555 1_555
C4A C3A 1_555 1_555
C5A N1A 1_555 1_555
C6A C1A 1_555 1_555
O1A Mn1A 1_555 1_555
O2A Na1A 1_555 1_555
C7A C2A 1_555 1_555
O3A C7A 1_555 1_555
O4A Mn2 1_555 1_555
C8A C4A 1_555 1_555
O5A C8A 1_555 1_555
O6A C8A 1_555 1_555
C9A C5A 1_555 1_555
O7A C9A 1_555 1_555
O8A Mn1A 1_555 1_555
O9A Mn1A 1_555 1_555
H2A O9A 1_555 1_555
H3A O9A 1_555 1_555
O10A Mn2 1_555 1_555
H4A O10A 1_555 1_555
H5A O10A 1_555 1_555
O11A Na1 1_555 1_555
H6A O11A 1_555 1_555
H7A O11A 1_555 1_555
O12A Na1A 1_555 1_555
H8A O12A 1_555 1_555
H9A O12A 1_555 1_555
O13A Na1A 1_555 1_555
H10A O13A 1_555 1_555
H11A O13A 1_555 1_555
Na1_2 O13A 1_555 1_555
Na1A_2 O13 1_555 1_555
Mn1_2 O3A 1_555 1_555
Mn1_3 O6A 1_555 1_555
Mn1A_2 O6 1_555 1_555
Mn1A_3 O3 1_555 1_555
O3_2 Mn1A 1_555 1_555
O3A_2 Mn1 1_555 1_555
O6_2 Mn1A 1_555 1_555
O6A_2 Mn1 1_555 1_555
O13_2 Na1A 1_555 1_555
O13A_2 Na1 1_555 1_555
Mn2 O11A 1_555 1_555
C4 C5 1_555 1_555
C6 O1 1_555 1_555
C7 O4 1_555 1_555
C9 O8 1_555 1_555
Na1A O4A 1_555 1_555
C4A C5A 1_555 1_555
C6A O1A 1_555 1_555
C6A O2A 1_555 1_555
C7A O4A 1_555 1_555
C9A O8A 1_555 1_555
Na1_2 O13_2 1_555 1_555
Na1A_2 O13A_2 1_555 1_555

#END
