
#######################################################################
#
#                 Cambridge Crystallographic Data Centre
#                                CCDC 
#
#######################################################################
#
# If this CIF has been generated from an entry in the Cambridge 
# Structural Database, then it will include bibliographic, chemical, 
# crystal, experimental, refinement or atomic coordinate data resulting 
# from the CCDC's data processing and validation procedures.
#
#######################################################################

data_COMZAH
_symmetry_cell_setting           orthorhombic
_symmetry_space_group_name_H-M   'P c c n'
_symmetry_Int_Tables_number      56
_space_group_name_Hall           '-P 2ab 2ac'
loop_
_symmetry_equiv_pos_site_id
_symmetry_equiv_pos_as_xyz
1 x,y,z
2 1/2-x,1/2-y,z
3 1/2+x,-y,1/2-z
4 -x,1/2+y,1/2-z
5 -x,-y,-z
6 1/2+x,1/2+y,-z
7 1/2-x,y,1/2+z
8 x,1/2-y,1/2+z
_cell_length_a                   23.2667(14)
_cell_length_b                   15.2352(9)
_cell_length_c                   16.8347(10)
_cell_angle_alpha                90
_cell_angle_beta                 90
_cell_angle_gamma                90
_cell_volume                     5967.44
loop_
_atom_site_label
_atom_site_type_symbol
_atom_site_fract_x
_atom_site_fract_y
_atom_site_fract_z
Zn1 Zn 0.01173(5) 0.58342(6) 0.24360(7)
O1 O -0.0472(4) 0.6689(5) 0.2657(6)
O2 O -0.0961(4) 0.6235(8) 0.1628(10)
O3 O -0.4019(4) 1.3494(6) 0.1760(7)
O4 O -0.4247(4) 1.3440(5) 0.3012(6)
O5 O -0.2119(6) 1.0257(8) 0.3602(5)
N1 N -0.2320(4) 0.9766(5) 0.2380(6)
H1 H -0.2518 0.9860 0.1957
N2 N 0.0079(4) -0.0017(5) -0.1606(5)
N3 N 0.0076(4) 0.4921(5) 0.1540(5)
C1 C -0.3539(4) 1.2457(6) 0.2578(7)
C2 C -0.3257(5) 1.2090(7) 0.1954(7)
H2 H -0.3319 1.2304 0.1444
C3 C -0.2880(5) 1.1401(6) 0.2071(7)
H3 H -0.2687 1.1161 0.1639
C4 C -0.2789(4) 1.1077(6) 0.2795(6)
C5 C -0.3048(6) 1.1458(9) 0.3435(7)
H4 H -0.2969 1.1258 0.3945
C6 C -0.3428(6) 1.2142(9) 0.3323(8)
H5 H -0.3611 1.2392 0.3760
C7 C -0.1956(5) 0.9019(7) 0.2388(9)
C8 C -0.2033(7) 0.8445(11) 0.1774(12)
H6 H -0.2317 0.8545 0.1396
C9 C -0.1677(7) 0.7699(10) 0.1719(13)
H7 H -0.1739 0.7301 0.1309
C10 C -0.1253(5) 0.7546(8) 0.2242(9)
C11 C -0.1146(5) 0.8163(7) 0.2791(7)
H8 H -0.0836 0.8097 0.3135
C12 C -0.1501(5) 0.8910(7) 0.2851(7)
H9 H -0.1414 0.9339 0.3225
C13 C -0.3962(4) 1.3196(7) 0.2409(8)
C14 C -0.0874(5) 0.6736(7) 0.2212(8)
C15 C -0.2376(5) 1.0315(7) 0.2954(7)
C16 C 0.0462(5) 0.4864(6) 0.0990(7)
H10 H 0.0757 0.5277 0.0976
C17 C 0.0451(5) 0.4202(6) 0.0416(7)
H11 H 0.0733 0.4188 0.0024
C18 C 0.0032(5) 0.3578(6) 0.0425(7)
C19 C -0.0372(6) 0.3642(7) 0.1009(9)
H12 H -0.0669 0.3234 0.1033
C20 C -0.0344(5) 0.4311(7) 0.1568(9)
H13 H -0.0619 0.4339 0.1968
C21 C 0.0018(6) 0.2841(6) -0.0177(8)
H14 H 0.0355 0.2879 -0.0514
H15 H -0.0319 0.2906 -0.0511
C22 C 0.0003(7) 0.1943(7) 0.0222(8)
H16 H 0.0331 0.1882 0.0575
H17 H -0.0344 0.1887 0.0536
C23 C 0.0020(7) 0.1226(7) -0.0409(8)
C24 C 0.0542(6) 0.0965(7) -0.0722(8)
H18 H 0.0882 0.1206 -0.0531
C25 C 0.0557(5) 0.0346(7) -0.1319(8)
H19 H 0.0910 0.0178 -0.1528
C26 C -0.0408(5) 0.0198(7) -0.1262(8)
H20 H -0.0740 -0.0089 -0.1430
C27 C -0.0464(6) 0.0815(8) -0.0673(10)
H21 H -0.0822 0.0949 -0.0459
Zn1B Zn -0.48827(5) 1.41658(6) 0.25640(7)
Zn1G Zn 0.01173(5) -0.08342(6) -0.25640(7)
O4B O 0.0753(4) 0.6560(5) 0.1988(6)
N2G N 0.0079(4) 0.5017(5) 0.3394(5)
O6 O -0.2500 1.2500 0.0206(6)
O7 O -0.1695(4) 1.1124(6) 0.4913(6)
O8 O -0.1847(4) 0.5335(6) 0.0994(6)
O9 O -0.3264(5) 1.3887(7) 0.0582(6)
N4 N -0.2274(13) 0.851(2) -0.049(2)
O10 O -0.1812(11) 0.9620(16) -0.0294(16)
C28 C -0.2177(10) 0.9364(15) -0.011(2)
C29 C -0.187(2) 0.801(4) -0.099(4)
C30 C -0.2849(16) 0.815(3) -0.031(3)
loop_
_geom_bond_atom_site_label_1
_geom_bond_atom_site_label_2
_geom_bond_site_symmetry_1
_geom_bond_site_symmetry_2
Zn1 O1 1_555 1_555
O1 C14 1_555 1_555
O2 C14 1_555 1_555
O3 C13 1_555 1_555
O4 C13 1_555 1_555
O5 C15 1_555 1_555
N1 H1 1_555 1_555
N2 C25 1_555 1_555
N3 Zn1 1_555 1_555
C1 C2 1_555 1_555
C2 H2 1_555 1_555
C3 C2 1_555 1_555
H3 C3 1_555 1_555
C4 C3 1_555 1_555
C5 C4 1_555 1_555
H4 C5 1_555 1_555
C6 C1 1_555 1_555
H5 C6 1_555 1_555
C7 N1 1_555 1_555
C8 C7 1_555 1_555
H6 C8 1_555 1_555
C9 C8 1_555 1_555
H7 C9 1_555 1_555
C10 C9 1_555 1_555
C11 C10 1_555 1_555
H8 C11 1_555 1_555
C12 C7 1_555 1_555
H9 C12 1_555 1_555
C13 C1 1_555 1_555
C14 C10 1_555 1_555
C15 N1 1_555 1_555
C16 N3 1_555 1_555
H10 C16 1_555 1_555
C17 C16 1_555 1_555
H11 C17 1_555 1_555
C18 C17 1_555 1_555
C19 C18 1_555 1_555
H12 C19 1_555 1_555
C20 N3 1_555 1_555
H13 C20 1_555 1_555
C21 C18 1_555 1_555
H14 C21 1_555 1_555
H15 C21 1_555 1_555
C22 C21 1_555 1_555
H16 C22 1_555 1_555
H17 C22 1_555 1_555
C23 C22 1_555 1_555
C24 C23 1_555 1_555
H18 C24 1_555 1_555
C25 C24 1_555 1_555
H19 C25 1_555 1_555
C26 N2 1_555 1_555
H20 C26 1_555 1_555
C27 C23 1_555 1_555
H21 C27 1_555 1_555
N4 C28 1_555 1_555
O10 C28 1_555 1_555
C29 N4 1_555 1_555
C30 N4 1_555 1_555
Zn1B O4 1_555 1_555
Zn1G N2 1_555 1_555
O4B Zn1 1_555 1_555
N2G Zn1 1_555 1_555
C4 C15 1_555 1_555
C5 C6 1_555 1_555
C11 C12 1_555 1_555
C19 C20 1_555 1_555
C26 C27 1_555 1_555

#END
