
#######################################################################
#
#                 Cambridge Crystallographic Data Centre
#                                CCDC 
#
#######################################################################
#
# If this CIF has been generated from an entry in the Cambridge 
# Structural Database, then it will include bibliographic, chemical, 
# crystal, experimental, refinement or atomic coordinate data resulting 
# from the CCDC's data processing and validation procedures.
#
#######################################################################

data_CONBOY
_symmetry_cell_setting           monoclinic
_symmetry_space_group_name_H-M   'C 2/c'
_symmetry_Int_Tables_number      15
_space_group_name_Hall           '-C 2yn'
loop_
_symmetry_equiv_pos_site_id
_symmetry_equiv_pos_as_xyz
1 x,y,z
2 -x,y,1/2-z
3 1/2+x,1/2+y,z
4 1/2-x,1/2+y,1/2-z
5 -x,-y,-z
6 x,-y,1/2+z
7 1/2-x,1/2-y,-z
8 1/2+x,1/2-y,1/2+z
_cell_length_a                   20.5490(3)
_cell_length_b                   11.4470(2)
_cell_length_c                   15.9766(2)
_cell_angle_alpha                90
_cell_angle_beta                 129.6200(10)
_cell_angle_gamma                90
_cell_volume                     2894.82
loop_
_atom_site_label
_atom_site_type_symbol
_atom_site_fract_x
_atom_site_fract_y
_atom_site_fract_z
C1 C 0.0773(2) 0.5802(3) 0.1360(3)
C2 C 0.1623(2) 0.6042(3) 0.1633(3)
H1 H 0.1894 0.6702 0.2139
C3 C 0.1551(2) 0.6333(3) 0.0639(3)
H2 H 0.1017 0.6730 0.0076
C4 C 0.2307(2) 0.7093(3) 0.1032(3)
C5 C 0.1577(2) 0.5108(3) 0.0273(3)
H3 H 0.1009 0.4776 -0.0138
C6 C 0.1803(2) 0.5084(3) -0.0467(3)
C7 C 0.2159(2) 0.4411(3) 0.1339(3)
H4 H 0.2729 0.4378 0.1568
C8 C 0.1835(2) 0.3181(3) 0.1214(3)
Co1 Co 0.2500 0.2500 0.0000
Cu1 Cu 0.16967(3) 0.39480(4) 0.28285(4)
O1 O 0.21794(15) 0.5047(2) 0.21354(19)
O2 O 0.07144(16) 0.4903(2) 0.1784(2)
O3 O 0.02020(17) 0.6519(3) 0.0802(2)
O4 O 0.22244(16) 0.8180(2) 0.1154(2)
O5 O 0.29624(17) 0.6667(2) 0.1295(2)
O6 O 0.14690(17) 0.5896(2) -0.1168(2)
O7 O 0.22518(17) 0.4298(2) -0.0404(2)
O8 O 0.18879(17) 0.2466(2) 0.0661(2)
O9 O 0.15167(17) 0.2923(2) 0.1646(2)
O10 O 0.36455(19) 0.2850(3) 0.1494(2)
H5 H 0.382(3) 0.3539(19) 0.156(4)
H6 H 0.405(2) 0.237(3) 0.179(4)
C1F C 0.4227(2) -0.0802(3) -0.1360(3)
C2F C 0.3377(2) -0.1042(3) -0.1633(3)
H1F H 0.3106 -0.1702 -0.2139
C3F C 0.3449(2) -0.1333(3) -0.0639(3)
H2F H 0.3983 -0.1730 -0.0076
C4F C 0.2693(2) -0.2093(3) -0.1032(3)
C5F C 0.3423(2) -0.0108(3) -0.0273(3)
H3F H 0.3991 0.0224 0.0138
C6F C 0.3197(2) -0.0084(3) 0.0467(3)
C7F C 0.2841(2) 0.0589(3) -0.1339(3)
H4F H 0.2271 0.0622 -0.1568
C8F C 0.3165(2) 0.1819(3) -0.1214(3)
Cu1F Cu 0.33033(3) 0.10520(4) -0.28285(4)
O1F O 0.28206(15) -0.0047(2) -0.21354(19)
O2F O 0.42856(16) 0.0097(2) -0.1784(2)
O3F O 0.47980(17) -0.1519(3) -0.0802(2)
O4F O 0.27756(16) -0.3180(2) -0.1154(2)
O5F O 0.20376(17) -0.1667(2) -0.1295(2)
O6F O 0.35310(17) -0.0896(2) 0.1168(2)
O7F O 0.27482(17) 0.0702(2) 0.0404(2)
O8F O 0.31121(17) 0.2534(2) -0.0661(2)
O9F O 0.34833(17) 0.2077(2) -0.1646(2)
O10F O 0.13545(19) 0.2150(3) -0.1494(2)
H5F H 0.118(3) 0.1461(19) -0.156(4)
H6F H 0.095(2) 0.263(3) -0.179(4)
Cu1C Cu 0.33033(3) -0.10520(4) 0.21715(4)
Cu1C_2 Cu 0.33033(3) 0.89480(4) 0.21715(4)
Cu1E Cu 0.16967(3) -0.39480(4) -0.21715(4)
Cu1E_2 Cu 0.16967(3) 0.60520(4) -0.21715(4)
O4C O 0.27756(16) 0.3180(2) 0.3846(2)
O4E O 0.22244(16) 0.1820(2) -0.3846(2)
O6C O 0.35310(17) 0.0896(2) -0.3832(2)
O6E O 0.14690(17) 0.4104(2) 0.3832(2)
Co2 Co 0.5000 0.5000 0.5000
O11 O 0.4334(4) 0.3782(4) 0.3811(4)
H7 H 0.410(6) 0.367(7) 0.409(8)
H8 H 0.453(5) 0.313(4) 0.379(7)
O12 O 0.3902(3) 0.5321(4) 0.4772(4)
H9 H 0.435(2) 0.562(6) 0.535(4)
H10 H 0.351(3) 0.584(4) 0.449(5)
O13 O 0.4664(2) 0.6313(3) 0.3880(3)
H11 H 0.486(3) 0.648(5) 0.356(4)
H12 H 0.422(2) 0.669(5) 0.362(4)
O11D O 0.5666(4) 0.6218(4) 0.6189(4)
H7D H 0.590(6) 0.633(7) 0.591(8)
H8D H 0.547(5) 0.687(4) 0.621(7)
O12D O 0.6098(3) 0.4679(4) 0.5228(4)
H9D H 0.565(2) 0.438(6) 0.465(4)
H10D H 0.649(3) 0.416(4) 0.551(5)
O13D O 0.5336(2) 0.3687(3) 0.6120(3)
H11D H 0.514(3) 0.352(5) 0.644(4)
H12D H 0.578(2) 0.331(5) 0.638(4)
O14 O 0.5000 0.7546(5) 0.2500
H13 H 0.544(3) 0.791(5) 0.300(4)
H13A H 0.456(3) 0.791(5) 0.200(4)
O15 O 0.5860(2) 0.5094(3) 0.3296(3)
H14 H 0.589(4) 0.517(5) 0.384(4)
H15 H 0.617(3) 0.559(4) 0.331(5)
O16 O 1.0000 0.6333(4) 0.2500
H16 H 0.988(3) 0.593(4) 0.282(4)
H16A H 1.012(3) 0.593(4) 0.218(4)
loop_
_geom_bond_atom_site_label_1
_geom_bond_atom_site_label_2
_geom_bond_site_symmetry_1
_geom_bond_site_symmetry_2
C1 C2 1_555 1_555
C2 H1 1_555 1_555
C3 C2 1_555 1_555
H2 C3 1_555 1_555
C4 C3 1_555 1_555
C5 C3 1_555 1_555
H3 C5 1_555 1_555
C6 C5 1_555 1_555
C7 C5 1_555 1_555
H4 C7 1_555 1_555
C8 C7 1_555 1_555
Co1 O7 1_555 1_555
Cu1 O1 1_555 1_555
O1 C2 1_555 1_555
O2 C1 1_555 1_555
O3 C1 1_555 1_555
O4 C4 1_555 1_555
O5 C4 1_555 1_555
O6 C6 1_555 1_555
O7 C6 1_555 1_555
O8 C8 1_555 1_555
O9 C8 1_555 1_555
O10 Co1 1_555 1_555
H5 O10 1_555 1_555
H6 O10 1_555 1_555
Co2 O11 1_555 1_555
O11 H7 1_555 1_555
H8 O11 1_555 1_555
O12 Co2 1_555 1_555
H9 O12 1_555 1_555
H10 O12 1_555 1_555
O13 Co2 1_555 1_555
H11 O13 1_555 1_555
H12 O13 1_555 1_555
O14 H13 1_555 1_555
O15 H14 1_555 1_555
H15 O15 1_555 1_555
O16 H16 1_555 1_555
C1F C2F 1_555 1_555
C2F H1F 1_555 1_555
C3F C2F 1_555 1_555
H2F C3F 1_555 1_555
C4F C3F 1_555 1_555
C5F C3F 1_555 1_555
H3F C5F 1_555 1_555
C6F C5F 1_555 1_555
C7F C5F 1_555 1_555
H4F C7F 1_555 1_555
C8F C7F 1_555 1_555
Cu1F O1F 1_555 1_555
O1F C2F 1_555 1_555
O2F C1F 1_555 1_555
O3F C1F 1_555 1_555
O4F C4F 1_555 1_555
O5F C4F 1_555 1_555
O6F C6F 1_555 1_555
O7F Co1 1_555 1_555
O8F Co1 1_555 1_555
O9F C8F 1_555 1_555
O10F Co1 1_555 1_555
H5F O10F 1_555 1_555
H6F O10F 1_555 1_555
Cu1C O6F 1_555 1_555
Cu1C_2 O4 1_555 1_555
Cu1E O4F 1_555 1_555
Cu1E_2 O6 1_555 1_555
O4C Cu1 1_555 1_555
O4E Cu1F 1_555 1_555
O6C Cu1F 1_555 1_555
O6E Cu1 1_555 1_555
O11D Co2 1_555 1_555
H7D O11D 1_555 1_555
H8D O11D 1_555 1_555
O12D Co2 1_555 1_555
H9D O12D 1_555 1_555
H10D O12D 1_555 1_555
O13D Co2 1_555 1_555
H11D O13D 1_555 1_555
H12D O13D 1_555 1_555
H13A O14 1_555 1_555
H16A O16 1_555 1_555
C7 O1 1_555 1_555
Co1 O8 1_555 1_555
Cu1 O2 1_555 1_555
Cu1 O9 1_555 1_555
C6F O7F 1_555 1_555
C7F O1F 1_555 1_555
C8F O8F 1_555 1_555
Cu1F O2F 1_555 1_555
Cu1F O9F 1_555 1_555

#END
