
#######################################################################
#
#                 Cambridge Crystallographic Data Centre
#                                CCDC 
#
#######################################################################
#
# If this CIF has been generated from an entry in the Cambridge 
# Structural Database, then it will include bibliographic, chemical, 
# crystal, experimental, refinement or atomic coordinate data resulting 
# from the CCDC's data processing and validation procedures.
#
#######################################################################

data_CONBAK
_symmetry_cell_setting           monoclinic
_symmetry_space_group_name_H-M   'C 2/c'
_symmetry_Int_Tables_number      15
_space_group_name_Hall           '-C 2yn'
loop_
_symmetry_equiv_pos_site_id
_symmetry_equiv_pos_as_xyz
1 x,y,z
2 -x,y,1/2-z
3 1/2+x,1/2+y,z
4 1/2-x,1/2+y,1/2-z
5 -x,-y,-z
6 x,-y,1/2+z
7 1/2-x,1/2-y,-z
8 1/2+x,1/2-y,1/2+z
_cell_length_a                   23.1880(10)
_cell_length_b                   8.2520(3)
_cell_length_c                   18.8519(8)
_cell_angle_alpha                90
_cell_angle_beta                 128.8430(10)
_cell_angle_gamma                90
_cell_volume                     2809.58
loop_
_atom_site_label
_atom_site_type_symbol
_atom_site_fract_x
_atom_site_fract_y
_atom_site_fract_z
Mn1 Mn 0.61851(2) 0.51978(6) 0.41289(3)
K1 K 1.03104(6) 0.25449(13) 0.99800(9)
K2 K 0.79266(5) 0.51697(10) 0.77993(6)
N1 N 0.73667(13) 0.4991(3) 0.49548(17)
C1 C 0.77247(16) 0.4071(4) 0.57035(19)
C2 C 0.84806(16) 0.3930(4) 0.6255(2)
C3 C 0.88457(16) 0.4748(4) 0.5985(2)
H1 H 0.9358 0.4659 0.6343
C4 C 0.84634(16) 0.5691(4) 0.5197(2)
C5 C 0.77089(15) 0.5773(4) 0.46898(19)
C6 C 0.72233(17) 0.3231(4) 0.5863(2)
O1 O 0.65455(13) 0.3430(3) 0.52351(17)
O2 O 0.75141(15) 0.2447(3) 0.65733(18)
C7 C 0.89344(17) 0.2871(4) 0.7096(2)
O3 O 0.90783(13) 0.1475(3) 0.69690(15)
O4 O 0.91643(18) 0.3436(4) 0.78443(17)
C8 C 0.88862(16) 0.6570(4) 0.4945(2)
O5 O 0.91282(13) 0.5759(3) 0.46198(17)
O6 O 0.89796(13) 0.8072(3) 0.51099(16)
C9 C 0.72023(16) 0.6705(4) 0.3795(2)
O7 O 0.74604(13) 0.7260(3) 0.34325(16)
O8 O 0.65462(12) 0.6807(3) 0.35023(15)
O9 O 0.50612(16) 0.5033(5) 0.3504(3)
H2 H 0.4752(19) 0.452(3) 0.3026(17)
H3 H 0.4860(17) 0.587(4) 0.350(3)
O10 O 0.6276(3) 0.5467(5) 0.6466(3)
H4 H 0.6394(11) 0.588(7) 0.6171(19)
H5 H 0.5815(6) 0.544(8) 0.613(2)
O11 O 0.9260(2) 0.6838(6) 0.8235(3)
H6 H 0.9166(19) 0.767(4) 0.841(2)
H7 H 0.904(3) 0.700(6) 0.7680(12)
Mn1F Mn 0.88149(2) -0.01978(6) 0.58711(3)
Mn1F_2 Mn 0.88149(2) 0.98022(6) 0.58711(3)
K1A K 0.96896(6) 0.25449(13) 0.50200(9)
K1C K 0.46896(6) 0.75449(13) 0.50200(9)
K1D K 0.96896(6) 0.74551(13) 1.00200(9)
K1E K 1.03104(6) 0.74551(13) 0.49800(9)
K1G K 0.53104(6) 0.24551(13) 0.49800(9)
K2C K 0.70734(5) 0.01697(10) 0.72007(6)
K2E K 0.79266(5) 0.48303(10) 0.27993(6)
K2F K 0.70734(5) 0.98303(10) 0.22007(6)
O1G O 1.15455(13) 0.1570(3) 1.02351(17)
O2C O 0.74859(15) 0.7447(3) 0.84267(18)
O3F O 0.59217(13) 0.3525(3) 0.30310(15)
O5A O 1.08718(13) 0.5759(3) 1.03802(17)
O5E O 0.91282(13) 0.4241(3) 0.96198(17)
O6E O 0.89796(13) 0.1928(3) 1.01099(16)
O6F O 0.60204(13) 0.6928(3) 0.48901(16)
O7E O 0.74604(13) 0.2740(3) 0.84325(16)
O7F O 0.75396(13) 0.7740(3) 0.65675(16)
O9G O 1.00612(16) -0.0033(5) 0.8504(3)
O10C O 0.8724(3) 0.0467(5) 0.8534(3)
O10G O 1.1276(3) -0.0467(5) 1.1466(3)
O11D O 1.0740(2) 0.3162(6) 1.1765(3)
loop_
_geom_bond_atom_site_label_1
_geom_bond_atom_site_label_2
_geom_bond_site_symmetry_1
_geom_bond_site_symmetry_2
Mn1 N1 1_555 1_555
K1 O4 1_555 1_555
K2 C6 1_555 1_555
N1 C1 1_555 1_555
C1 C2 1_555 1_555
C2 C3 1_555 1_555
C3 H1 1_555 1_555
C4 C3 1_555 1_555
C5 N1 1_555 1_555
C6 C1 1_555 1_555
O1 Mn1 1_555 1_555
O2 K2 1_555 1_555
C7 C2 1_555 1_555
O3 C7 1_555 1_555
O4 K2 1_555 1_555
C8 C4 1_555 1_555
O5 C8 1_555 1_555
O6 C8 1_555 1_555
C9 C5 1_555 1_555
O7 C9 1_555 1_555
O8 Mn1 1_555 1_555
O9 Mn1 1_555 1_555
H2 O9 1_555 1_555
H3 O9 1_555 1_555
O10 K2 1_555 1_555
H4 O10 1_555 1_555
H5 O10 1_555 1_555
O11 K2 1_555 1_555
H6 O11 1_555 1_555
H7 O11 1_555 1_555
Mn1F O3 1_555 1_555
Mn1F_2 O6 1_555 1_555
K1A O5 1_555 1_555
K1C O10 1_555 1_555
K1D O11 1_555 1_555
K1E O5 1_555 1_555
K1G O1 1_555 1_555
K2C O2 1_555 1_555
K2E O5 1_555 1_555
K2F O7 1_555 1_555
O1G K1 1_555 1_555
O2C K2 1_555 1_555
O3F Mn1 1_555 1_555
O5A K1 1_555 1_555
O5E K1 1_555 1_555
O6E K1 1_555 1_555
O6F Mn1 1_555 1_555
O7E K2 1_555 1_555
O7F K2 1_555 1_555
O9G K1 1_555 1_555
O10C K1 1_555 1_555
O10G K1 1_555 1_555
O11D K1 1_555 1_555
K2 O5E 1_555 1_555
C4 C5 1_555 1_555
C6 O1 1_555 1_555
C6 O2 1_555 1_555
C7 O4 1_555 1_555
O6 K1E 1_555 1_555
C9 O8 1_555 1_555
O7 K2E 1_555 1_555
O9 K1G 1_555 1_555
O10 K1G 1_555 1_555
K1C O6F 1_555 1_555
K1D O5A 1_555 1_555
K1D O5E 1_555 1_555
K2C O7E 1_555 1_555
K2C O10C 1_555 1_555

#END
