
#######################################################################
#
#                 Cambridge Crystallographic Data Centre
#                                CCDC 
#
#######################################################################
#
# If this CIF has been generated from an entry in the Cambridge 
# Structural Database, then it will include bibliographic, chemical, 
# crystal, experimental, refinement or atomic coordinate data resulting 
# from the CCDC's data processing and validation procedures.
#
#######################################################################

data_CONDOZ
_symmetry_cell_setting           triclinic
_symmetry_space_group_name_H-M   'P -1'
_symmetry_Int_Tables_number      2
_space_group_name_Hall           '-P 1'
loop_
_symmetry_equiv_pos_site_id
_symmetry_equiv_pos_as_xyz
1 x,y,z
2 -x,-y,-z
_cell_length_a                   9.4180(19)
_cell_length_b                   10.923(2)
_cell_length_c                   11.374(2)
_cell_angle_alpha                95.32(3)
_cell_angle_beta                 107.35(5)
_cell_angle_gamma                115.39(4)
_cell_volume                     975.393
loop_
_atom_site_label
_atom_site_type_symbol
_atom_site_fract_x
_atom_site_fract_y
_atom_site_fract_z
As1 As 0.59571(16) 0.64677(13) 0.13509(11)
As2 As 0.27834(16) 0.62979(13) -0.12438(12)
S1 S 0.6588(4) 0.8062(3) 0.3011(3)
S2 S 0.2978(4) 0.5435(3) 0.0507(3)
S3 S 0.6223(4) 0.4803(3) 0.2395(3)
S4 S 0.5018(4) 0.8445(3) -0.0496(3)
Mn1 Mn 0.5909(2) 0.97357(18) 0.17711(16)
N1 N 0.8749(12) 1.1267(10) 0.2222(9)
C1 C 0.9593(16) 1.1227(13) 0.1469(13)
H1 H 0.9005 1.0579 0.0679
C2 C 1.1358(17) 1.2142(15) 0.1839(14)
H2 H 1.1915 1.2100 0.1297
C3 C 1.2228(18) 1.3091(16) 0.3014(14)
H3 H 1.3390 1.3680 0.3285
C4 C 1.1365(15) 1.3166(13) 0.3791(13)
H4 H 1.1935 1.3813 0.4581
C5 C 0.9606(16) 1.2241(12) 0.3362(11)
C6 C 0.8543(14) 1.2332(11) 0.4092(10)
C7 C 0.9183(16) 1.3336(12) 0.5242(10)
H5 H 1.0337 1.3962 0.5635
C8 C 0.8035(17) 1.3369(13) 0.5784(13)
H6 H 0.8429 1.4041 0.6534
C9 C 0.6303(17) 1.2402(13) 0.5207(12)
H7 H 0.5542 1.2416 0.5566
C10 C 0.5747(14) 1.1407(11) 0.4067(9)
N2 N 0.6850(11) 1.1366(9) 0.3544(8)
C11 C 0.3976(14) 1.0311(12) 0.3371(9)
C12 C 0.2636(17) 1.0217(14) 0.3781(12)
H8 H 0.2861 1.0850 0.4505
C13 C 0.0986(17) 0.9148(14) 0.3062(13)
H9 H 0.0099 0.9057 0.3313
C14 C 0.0664(17) 0.8215(14) 0.1966(13)
H10 H -0.0433 0.7515 0.1469
C15 C 0.2034(15) 0.8365(12) 0.1641(11)
H11 H 0.1830 0.7727 0.0930
N3 N 0.3638(12) 0.9387(9) 0.2303(8)
As1A As 0.40429(16) 0.35323(13) -0.13509(11)
As2A As 0.72166(16) 0.37021(13) 0.12438(12)
S1A S 0.3412(4) 0.1938(3) -0.3011(3)
S2A S 0.7022(4) 0.4565(3) -0.0507(3)
S3A S 0.3777(4) 0.5197(3) -0.2395(3)
S4A S 0.4982(4) 0.1555(3) 0.0496(3)
S4A_2 S 0.4982(4) 1.1555(3) 0.0496(3)
S4_2 S 0.5018(4) -0.1555(3) -0.0496(3)
Mn1A Mn 0.4091(2) 0.02643(18) -0.17711(16)
Mn1A_2 Mn 0.4091(2) 1.02643(18) -0.17711(16)
Mn1_2 Mn 0.5909(2) -0.02643(18) 0.17711(16)
N1A N 0.1251(12) -0.1267(10) -0.2222(9)
C1A C 0.0407(16) -0.1227(13) -0.1469(13)
H1A H 0.0995 -0.0579 -0.0679
C2A C -0.1358(17) -0.2142(15) -0.1839(14)
H2A H -0.1915 -0.2100 -0.1297
C3A C -0.2228(18) -0.3091(16) -0.3014(14)
H3A H -0.3390 -0.3680 -0.3285
C4A C -0.1365(15) -0.3166(13) -0.3791(13)
H4A H -0.1935 -0.3813 -0.4581
C5A C 0.0394(16) -0.2241(12) -0.3362(11)
C6A C 0.1457(14) -0.2332(11) -0.4092(10)
C7A C 0.0817(16) -0.3336(12) -0.5242(10)
H5A H -0.0337 -0.3962 -0.5635
C8A C 0.1965(17) -0.3369(13) -0.5784(13)
H6A H 0.1571 -0.4041 -0.6534
C9A C 0.3697(17) -0.2402(13) -0.5207(12)
H7A H 0.4458 -0.2416 -0.5566
C10A C 0.4253(14) -0.1407(11) -0.4067(9)
N2A N 0.3150(11) -0.1366(9) -0.3544(8)
C11A C 0.6024(14) -0.0311(12) -0.3371(9)
C12A C 0.7364(17) -0.0217(14) -0.3781(12)
H8A H 0.7139 -0.0850 -0.4505
C13A C 0.9014(17) 0.0852(14) -0.3062(13)
H9A H 0.9901 0.0943 -0.3313
C14A C 0.9336(17) 0.1785(14) -0.1966(13)
H10A H 1.0433 0.2485 -0.1469
C15A C 0.7966(15) 0.1635(12) -0.1641(11)
H11A H 0.8170 0.2273 -0.0930
N3A N 0.6362(12) 0.0613(9) -0.2303(8)
loop_
_geom_bond_atom_site_label_1
_geom_bond_atom_site_label_2
_geom_bond_site_symmetry_1
_geom_bond_site_symmetry_2
As1 S1 1_555 1_555
As2 S2 1_555 1_555
S1 Mn1 1_555 1_555
S2 As1 1_555 1_555
S3 As1 1_555 1_555
S4 As2 1_555 1_555
Mn1 S4 1_555 1_555
N1 Mn1 1_555 1_555
C1 N1 1_555 1_555
H1 C1 1_555 1_555
C2 C1 1_555 1_555
H2 C2 1_555 1_555
C3 C2 1_555 1_555
H3 C3 1_555 1_555
C4 C3 1_555 1_555
H4 C4 1_555 1_555
C5 N1 1_555 1_555
C6 C5 1_555 1_555
C7 C6 1_555 1_555
H5 C7 1_555 1_555
C8 C7 1_555 1_555
H6 C8 1_555 1_555
C9 C8 1_555 1_555
H7 C9 1_555 1_555
C10 C9 1_555 1_555
N2 Mn1 1_555 1_555
C11 C10 1_555 1_555
C12 C11 1_555 1_555
H8 C12 1_555 1_555
C13 C12 1_555 1_555
H9 C13 1_555 1_555
C14 C13 1_555 1_555
H10 C14 1_555 1_555
C15 C14 1_555 1_555
H11 C15 1_555 1_555
N3 Mn1 1_555 1_555
As1A S1A 1_555 1_555
As2A S3 1_555 1_555
S1A Mn1A 1_555 1_555
S2A As1A 1_555 1_555
S3A As2 1_555 1_555
S4A As2A 1_555 1_555
S4A_2 Mn1 1_555 1_555
S4_2 Mn1A 1_555 1_555
Mn1A S4A 1_555 1_555
Mn1A_2 S4 1_555 1_555
Mn1_2 S4A 1_555 1_555
N1A Mn1A 1_555 1_555
C1A N1A 1_555 1_555
H1A C1A 1_555 1_555
C2A C1A 1_555 1_555
H2A C2A 1_555 1_555
C3A C2A 1_555 1_555
H3A C3A 1_555 1_555
C4A C3A 1_555 1_555
H4A C4A 1_555 1_555
C5A N1A 1_555 1_555
C6A C5A 1_555 1_555
C7A C6A 1_555 1_555
H5A C7A 1_555 1_555
C8A C7A 1_555 1_555
H6A C8A 1_555 1_555
C9A C8A 1_555 1_555
H7A C9A 1_555 1_555
C10A C9A 1_555 1_555
N2A Mn1A 1_555 1_555
C11A C10A 1_555 1_555
C12A C11A 1_555 1_555
H8A C12A 1_555 1_555
C13A C12A 1_555 1_555
H9A C13A 1_555 1_555
C14A C13A 1_555 1_555
H10A C14A 1_555 1_555
C15A C14A 1_555 1_555
H11A C15A 1_555 1_555
N3A Mn1A 1_555 1_555
C4 C5 1_555 1_555
C6 N2 1_555 1_555
C10 N2 1_555 1_555
C11 N3 1_555 1_555
C15 N3 1_555 1_555
As1A S3A 1_555 1_555
As2A S2A 1_555 1_555
S4A_2 Mn1A_2 1_555 1_555
S4_2 Mn1_2 1_555 1_555
C4A C5A 1_555 1_555
C6A N2A 1_555 1_555
C10A N2A 1_555 1_555
C11A N3A 1_555 1_555
C15A N3A 1_555 1_555

#END
