
#######################################################################
#
#                 Cambridge Crystallographic Data Centre
#                                CCDC 
#
#######################################################################
#
# If this CIF has been generated from an entry in the Cambridge 
# Structural Database, then it will include bibliographic, chemical, 
# crystal, experimental, refinement or atomic coordinate data resulting 
# from the CCDC's data processing and validation procedures.
#
#######################################################################

data_CONDUF
_symmetry_cell_setting           monoclinic
_symmetry_space_group_name_H-M   'C 2/c'
_symmetry_Int_Tables_number      15
_space_group_name_Hall           '-C 2yn'
loop_
_symmetry_equiv_pos_site_id
_symmetry_equiv_pos_as_xyz
1 x,y,z
2 1/2+x,1/2+y,z
3 -x,y,1/2-z
4 1/2-x,1/2+y,1/2-z
5 -x,-y,-z
6 1/2-x,1/2-y,-z
7 x,-y,1/2+z
8 1/2+x,1/2-y,1/2+z
_cell_length_a                   25.540(6)
_cell_length_b                   8.056(4)
_cell_length_c                   18.819(5)
_cell_angle_alpha                90
_cell_angle_beta                 98.028(8)
_cell_angle_gamma                90
_cell_volume                     3834.07
loop_
_atom_site_label
_atom_site_type_symbol
_atom_site_fract_x
_atom_site_fract_y
_atom_site_fract_z
As1 As 0.17656(3) 0.56321(10) 0.21281(4)
As2 As 0.18626(3) 0.99005(10) 0.23907(4)
S1 S 0.10615(7) 0.4037(3) 0.21524(10)
S2 S 0.15906(8) 0.7586(3) 0.29369(11)
S3 S 0.23383(7) 0.3951(3) 0.28417(10)
S4 S 0.14313(8) 0.9567(3) 0.13017(11)
Mn1 Mn 0.10612(4) 0.23255(15) 0.10919(5)
N1 N 0.0198(2) 0.1549(9) 0.0992(3)
N2 N 0.0652(2) 0.3159(8) 0.0035(3)
N3 N 0.1672(2) 0.3475(8) 0.0491(3)
C1 C -0.0006(4) 0.0743(14) 0.1509(5)
H1 H 0.0217 0.0442 0.1922
C2 C -0.0535(4) 0.0337(15) 0.1457(6)
H2 H -0.0667 -0.0227 0.1825
C3 C -0.0860(4) 0.0786(16) 0.0850(6)
H3 H -0.1218 0.0531 0.0804
C4 C -0.0660(3) 0.1624(12) 0.0297(5)
H4 H -0.0879 0.1941 -0.0117
C5 C -0.0120(3) 0.1968(10) 0.0388(4)
C6 C 0.0138(3) 0.2848(10) -0.0159(4)
C7 C -0.0119(3) 0.3342(12) -0.0828(4)
H5 H -0.0477 0.3127 -0.0956
C8 C 0.0159(4) 0.4143(14) -0.1294(5)
H6 H -0.0009 0.4451 -0.1746
C9 C 0.0694(4) 0.4503(12) -0.1096(4)
H7 H 0.0887 0.5064 -0.1405
C10 C 0.0931(3) 0.3988(10) -0.0413(4)
C11 C 0.1501(3) 0.4243(10) -0.0134(4)
C12 C 0.1835(4) 0.5151(12) -0.0504(5)
H8 H 0.1709 0.5657 -0.0939
C13 C 0.2360(4) 0.5287(13) -0.0209(5)
H9 H 0.2593 0.5909 -0.0440
C14 C 0.2538(3) 0.4495(13) 0.0430(5)
H10 H 0.2890 0.4572 0.0634
C15 C 0.2185(3) 0.3592(11) 0.0757(4)
H11 H 0.2306 0.3038 0.1182
As2C As 0.31374(3) 0.49005(10) 0.26093(4)
S3C S 0.26617(7) 0.8951(3) 0.21583(10)
S4_2 S 0.14313(8) -0.0433(3) 0.13017(11)
Mn1_2 Mn 0.10612(4) 1.23255(15) 0.10919(5)
loop_
_geom_bond_atom_site_label_1
_geom_bond_atom_site_label_2
_geom_bond_site_symmetry_1
_geom_bond_site_symmetry_2
As1 S1 1_555 1_555
As2 S2 1_555 1_555
S1 Mn1 1_555 1_555
S2 As1 1_555 1_555
S3 As1 1_555 1_555
S4 As2 1_555 1_555
Mn1 N1 1_555 1_555
N1 C1 1_555 1_555
N2 Mn1 1_555 1_555
N3 Mn1 1_555 1_555
C1 H1 1_555 1_555
C2 C1 1_555 1_555
H2 C2 1_555 1_555
C3 C2 1_555 1_555
H3 C3 1_555 1_555
C4 C3 1_555 1_555
H4 C4 1_555 1_555
C5 N1 1_555 1_555
C6 N2 1_555 1_555
C7 C6 1_555 1_555
H5 C7 1_555 1_555
C8 C7 1_555 1_555
H6 C8 1_555 1_555
C9 C8 1_555 1_555
H7 C9 1_555 1_555
C10 N2 1_555 1_555
C11 N3 1_555 1_555
C12 C11 1_555 1_555
H8 C12 1_555 1_555
C13 C12 1_555 1_555
H9 C13 1_555 1_555
C14 C13 1_555 1_555
H10 C14 1_555 1_555
C15 N3 1_555 1_555
H11 C15 1_555 1_555
As2C S3 1_555 1_555
S3C As2 1_555 1_555
S4_2 Mn1 1_555 1_555
Mn1_2 S4 1_555 1_555
C4 C5 1_555 1_555
C5 C6 1_555 1_555
C9 C10 1_555 1_555
C10 C11 1_555 1_555
C14 C15 1_555 1_555

#END
