
#######################################################################
#
#                 Cambridge Crystallographic Data Centre
#                                CCDC 
#
#######################################################################
#
# If this CIF has been generated from an entry in the Cambridge 
# Structural Database, then it will include bibliographic, chemical, 
# crystal, experimental, refinement or atomic coordinate data resulting 
# from the CCDC's data processing and validation procedures.
#
#######################################################################

data_CONJIA
_symmetry_cell_setting           monoclinic
_symmetry_space_group_name_H-M   'C 2/c'
_symmetry_Int_Tables_number      15
_space_group_name_Hall           '-C 2yn'
loop_
_symmetry_equiv_pos_site_id
_symmetry_equiv_pos_as_xyz
1 x,y,z
2 -x,y,1/2-z
3 1/2+x,1/2+y,z
4 1/2-x,1/2+y,1/2-z
5 -x,-y,-z
6 x,-y,1/2+z
7 1/2-x,1/2-y,-z
8 1/2+x,1/2-y,1/2+z
_cell_length_a                   12.4252(6)
_cell_length_b                   12.9640(9)
_cell_length_c                   10.3932(5)
_cell_angle_alpha                90
_cell_angle_beta                 117.276(3)
_cell_angle_gamma                90
_cell_volume                     1487.99
loop_
_atom_site_label
_atom_site_type_symbol
_atom_site_fract_x
_atom_site_fract_y
_atom_site_fract_z
Zn1 Zn 0.33550(2) 0.124511(17) 1.11015(2)
O1 O 0.16936(13) 0.17990(12) 1.02828(15)
N1 N 0.04766(15) 0.25839(13) 0.82026(18)
N2 N 0.0713(4) -0.2039(3) 0.8960(5)
H1 H 0.1177 -0.2051 0.9878
H2 H 0.0471 -0.2607 0.8486
N3 N 0.34975(17) 0.02802(14) 0.97213(19)
N4 N 0.35873(18) -0.07574(15) 1.0007(2)
N5 N 0.3584(2) -0.12476(14) 0.8931(2)
N6 N 0.34876(17) -0.05522(14) 0.78911(19)
N7 N 0.3282(2) 0.12834(15) 0.7705(2)
H3 H 0.3229 0.1849 0.8106
H4 H 0.3242 0.1295 0.6857
C1 C 0.08623(18) 0.17160(17) 0.8947(2)
C2 C 0.03913(19) 0.07332(17) 0.8252(2)
C3 C 0.0743(2) -0.02049(18) 0.8997(3)
C4 C 0.0366(2) -0.11282(18) 0.8261(3)
C5 C 0.34258(19) 0.03792(17) 0.8406(2)
H5 H 0.126(2) -0.024(2) 1.003(3)
O1A O -0.16936(13) 0.17990(12) 0.47172(15)
N1A N -0.04766(15) 0.25839(13) 0.67974(18)
N2A N -0.0713(4) -0.2039(3) 0.6040(5)
H1A H -0.1177 -0.2051 0.5122
H2A H -0.0471 -0.2607 0.6514
C1A C -0.08623(18) 0.17160(17) 0.6053(2)
C2A C -0.03913(19) 0.07332(17) 0.6748(2)
C3A C -0.0743(2) -0.02049(18) 0.6003(3)
C4A C -0.0366(2) -0.11282(18) 0.6739(3)
H5A H -0.126(2) -0.024(2) 0.497(3)
Zn1A Zn -0.33550(2) 0.124511(17) 0.38985(2)
N3A N -0.34975(17) 0.02802(14) 0.52787(19)
N4A N -0.35873(18) -0.07574(15) 0.4993(2)
N5A N -0.3584(2) -0.12476(14) 0.6069(2)
N6A N -0.34876(17) -0.05522(14) 0.71089(19)
N7A N -0.3282(2) 0.12834(15) 0.7295(2)
H3A H -0.3229 0.1849 0.6894
H4A H -0.3242 0.1295 0.8143
C5A C -0.34258(19) 0.03792(17) 0.6594(2)
Zn1D Zn -0.33550(2) -0.124511(17) 0.88985(2)
Zn1E Zn 0.33550(2) -0.124511(17) 0.61015(2)
Zn1F Zn 0.16450(2) 0.375489(17) 0.88985(2)
Zn1G Zn -0.16450(2) 0.375489(17) 0.61015(2)
N1F N 0.45234(15) 0.24161(13) 1.17974(18)
N1G N -0.45234(15) 0.24161(13) 0.32026(18)
N6D N -0.34876(17) 0.05522(14) 0.21089(19)
N6E N 0.34876(17) 0.05522(14) 1.28911(19)
loop_
_geom_bond_atom_site_label_1
_geom_bond_atom_site_label_2
_geom_bond_site_symmetry_1
_geom_bond_site_symmetry_2
Zn1 O1 1_555 1_555
O1 C1 1_555 1_555
N1 C1 1_555 1_555
N2 H1 1_555 1_555
H2 N2 1_555 1_555
N3 Zn1 1_555 1_555
N4 N3 1_555 1_555
N5 N4 1_555 1_555
N6 N5 1_555 1_555
N7 H3 1_555 1_555
H4 N7 1_555 1_555
C1 C2 1_555 1_555
C2 C3 1_555 1_555
C3 C4 1_555 1_555
C4 N2 1_555 1_555
C5 N3 1_555 1_555
H5 C3 1_555 1_555
O1A C1A 1_555 1_555
N1A N1 1_555 1_555
N2A H1A 1_555 1_555
H2A N2A 1_555 1_555
C1A N1A 1_555 1_555
C2A C2 1_555 1_555
C3A C2A 1_555 1_555
C4A C4 1_555 1_555
H5A C3A 1_555 1_555
Zn1A O1A 1_555 1_555
N3A Zn1A 1_555 1_555
N4A N3A 1_555 1_555
N5A N4A 1_555 1_555
N6A N5A 1_555 1_555
N7A H3A 1_555 1_555
H4A N7A 1_555 1_555
C5A N3A 1_555 1_555
Zn1D N6A 1_555 1_555
Zn1E N6 1_555 1_555
Zn1F N1 1_555 1_555
Zn1G N1A 1_555 1_555
N1F Zn1 1_555 1_555
N1G Zn1A 1_555 1_555
N6D Zn1A 1_555 1_555
N6E Zn1 1_555 1_555
N6 C5 1_555 1_555
N7 C5 1_555 1_555
N2A C4A 1_555 1_555
C1A C2A 1_555 1_555
C3A C4A 1_555 1_555
N6A C5A 1_555 1_555
N7A C5A 1_555 1_555

#END
