
#######################################################################
#
#                 Cambridge Crystallographic Data Centre
#                                CCDC 
#
#######################################################################
#
# If this CIF has been generated from an entry in the Cambridge 
# Structural Database, then it will include bibliographic, chemical, 
# crystal, experimental, refinement or atomic coordinate data resulting 
# from the CCDC's data processing and validation procedures.
#
#######################################################################

data_CONJEW
_symmetry_cell_setting           monoclinic
_symmetry_space_group_name_H-M   'P 21/c'
_symmetry_Int_Tables_number      14
_space_group_name_Hall           '-P 2ybc'
loop_
_symmetry_equiv_pos_site_id
_symmetry_equiv_pos_as_xyz
1 x,y,z
2 -x,1/2+y,1/2-z
3 -x,-y,-z
4 x,1/2-y,1/2+z
_cell_length_a                   8.9247(18)
_cell_length_b                   19.807(4)
_cell_length_c                   9.876(2)
_cell_angle_alpha                90
_cell_angle_beta                 104.41(3)
_cell_angle_gamma                90
_cell_volume                     1690.87
loop_
_atom_site_label
_atom_site_type_symbol
_atom_site_fract_x
_atom_site_fract_y
_atom_site_fract_z
Zn1 Zn -0.04416(5) 0.40385(2) 0.99938(5)
Zn2 Zn -0.35255(5) 0.339981(19) 1.16468(4)
O1 O 0.0720(3) 0.52744(14) 1.1486(3)
O2 O -0.3890(3) 0.43186(16) 1.3500(3)
N1 N -0.1116(4) 0.44994(15) 1.1547(3)
N2 N -0.2314(4) 0.42546(15) 1.2082(3)
N3 N -0.3426(12) 0.5342(6) 1.5322(11)
H1 H -0.3624 0.5557 1.6013
H2 H -0.3969 0.4995 1.4982
N4 N -0.1878(4) 0.32421(15) 0.9303(3)
N5 N -0.2838(4) 0.29503(15) 1.0053(3)
N6 N -0.2865(4) 0.23034(15) 0.8201(3)
N7 N -0.4330(5) 0.1947(2) 0.9783(5)
H3 H -0.4606 0.2017 1.0546
H4 H -0.4652 0.1593 0.9291
N8 N 0.4176(4) 0.34039(17) 1.1059(5)
N9 N 0.3407(5) 0.2802(2) 1.0800(9)
N10 N 0.1661(4) 0.36350(18) 1.0452(5)
N11 N 0.3401(5) 0.4538(2) 1.1119(8)
H5 H 0.4344 0.4674 1.1384
H6 H 0.2656 0.4825 1.0997
C1 C -0.0381(4) 0.50607(18) 1.2050(4)
C2 C -0.0733(5) 0.54138(18) 1.3209(4)
C3 C -0.1981(5) 0.51848(19) 1.3708(4)
C4 C -0.2760(4) 0.45744(19) 1.3097(4)
C5 C 0.0152(6) 0.5969(2) 1.3850(5)
H7 H 0.1010 0.6111 1.3552
C6 C -0.0269(7) 0.6292(2) 1.4912(6)
H8 H 0.0305 0.6663 1.5328
C7 C -0.1514(7) 0.6089(3) 1.5388(6)
H9 H -0.1790 0.6328 1.6099
C8 C -0.2354(6) 0.5532(2) 1.4815(5)
C9 C -0.1925(4) 0.28359(18) 0.8230(4)
H10 H -0.1366 0.2911 0.7566
C10 C -0.3392(5) 0.23907(19) 0.9360(4)
C11 C 0.3092(4) 0.3877(2) 1.0895(5)
C12 C 0.1923(6) 0.2966(3) 1.0424(12)
H11 H 0.1134 0.2649 1.0166
Zn1B Zn 0.04416(5) 0.59615(2) 1.00062(5)
Zn2_2 Zn 0.64745(5) 0.339981(19) 1.16468(4)
Zn2C Zn -0.35255(5) 0.160019(19) 0.66468(4)
O1B O -0.0720(3) 0.47256(14) 0.8514(3)
N6C N -0.2865(4) 0.26966(15) 1.3201(3)
N8_2 N -0.5824(4) 0.34039(17) 1.1059(5)
loop_
_geom_bond_atom_site_label_1
_geom_bond_atom_site_label_2
_geom_bond_site_symmetry_1
_geom_bond_site_symmetry_2
Zn1 N1 1_555 1_555
Zn2 N2 1_555 1_555
O1 C1 1_555 1_555
O2 C4 1_555 1_555
N1 N2 1_555 1_555
N2 C4 1_555 1_555
N3 H1 1_555 1_555
H2 N3 1_555 1_555
N4 Zn1 1_555 1_555
N5 Zn2 1_555 1_555
N6 C9 1_555 1_555
N7 H3 1_555 1_555
H4 N7 1_555 1_555
N8 N9 1_555 1_555
N9 C12 1_555 1_555
N10 Zn1 1_555 1_555
N11 H5 1_555 1_555
H6 N11 1_555 1_555
C1 N1 1_555 1_555
C2 C1 1_555 1_555
C3 C2 1_555 1_555
C4 C3 1_555 1_555
C5 C2 1_555 1_555
H7 C5 1_555 1_555
C6 C5 1_555 1_555
H8 C6 1_555 1_555
C7 C6 1_555 1_555
H9 C7 1_555 1_555
C8 N3 1_555 1_555
C9 N4 1_555 1_555
H10 C9 1_555 1_555
C10 N5 1_555 1_555
C11 N8 1_555 1_555
C12 N10 1_555 1_555
H11 C12 1_555 1_555
Zn1B O1 1_555 1_555
Zn2_2 N8 1_555 1_555
Zn2C N6 1_555 1_555
O1B Zn1 1_555 1_555
N6C Zn2 1_555 1_555
N8_2 Zn2 1_555 1_555
N4 N5 1_555 1_555
N6 C10 1_555 1_555
N7 C10 1_555 1_555
N10 C11 1_555 1_555
N11 C11 1_555 1_555
C3 C8 1_555 1_555
C7 C8 1_555 1_555

#END
