
#######################################################################
#
#                 Cambridge Crystallographic Data Centre
#                                CCDC 
#
#######################################################################
#
# If this CIF has been generated from an entry in the Cambridge 
# Structural Database, then it will include bibliographic, chemical, 
# crystal, experimental, refinement or atomic coordinate data resulting 
# from the CCDC's data processing and validation procedures.
#
#######################################################################

data_CONKIB
_symmetry_cell_setting           trigonal
_symmetry_space_group_name_H-M   'P 3 1 c'
_symmetry_Int_Tables_number      159
_space_group_name_Hall           "P 3 -2'c"
loop_
_symmetry_equiv_pos_site_id
_symmetry_equiv_pos_as_xyz
1 x,y,z
2 -y,x-y,z
3 -x+y,-x,z
4 y,x,1/2+z
5 x-y,-y,1/2+z
6 -x,-x+y,1/2+z
_cell_length_a                   27.525(4)
_cell_length_b                   27.525(4)
_cell_length_c                   24.215(5)
_cell_angle_alpha                90
_cell_angle_beta                 90
_cell_angle_gamma                120
_cell_volume                     15888
loop_
_atom_site_label
_atom_site_type_symbol
_atom_site_fract_x
_atom_site_fract_y
_atom_site_fract_z
Zn1 Zn 0.55943(10) 0.07315(7) 0.21311(7)
Ni1 Ni 0.49676(8) 0.29730(8) 0.45614(7)
Ni2 Ni 0.53483(12) -0.17943(10) 0.48189(9)
O1 O 0.6519(5) 0.1291(4) 0.2100(5)
O2 O 0.4708(6) 0.0187(4) 0.2181(4)
N1 N 0.5523(5) 0.1204(4) 0.2780(4)
C1 C 0.5878(6) 0.1431(5) 0.3182(5)
H1 H 0.6175 0.1361 0.3200
C2 C 0.5849(6) 0.1755(5) 0.3568(5)
H2 H 0.6124 0.1906 0.3839
C3 C 0.5407(6) 0.1877(5) 0.3575(5)
C4 C 0.5013(6) 0.1631(5) 0.3155(5)
H3 H 0.4711 0.1692 0.3133
C5 C 0.5076(6) 0.1292(6) 0.2770(5)
H4 H 0.4806 0.1120 0.2496
C6 C 0.5359(5) 0.2233(5) 0.3976(6)
C7 C 0.5669(6) 0.2421(6) 0.4471(5)
H5 H 0.5930 0.2309 0.4547
S1 S 0.48885(17) 0.24775(17) 0.38580(14)
S2 S 0.55962(17) 0.28287(16) 0.49264(14)
N2 N 0.4408(6) 0.4625(5) 0.6499(4)
C8 C 0.4168(8) 0.4588(7) 0.5994(5)
H6 H 0.3960 0.4767 0.5943
C9 C 0.4219(7) 0.4313(7) 0.5584(5)
H7 H 0.4063 0.4321 0.5246
C10 C 0.4504(7) 0.3996(7) 0.5627(5)
C11 C 0.4701(8) 0.3997(6) 0.6165(5)
H8 H 0.4870 0.3785 0.6245
C12 C 0.4640(8) 0.4312(7) 0.6568(5)
H9 H 0.4774 0.4305 0.6919
C13 C 0.4563(8) 0.3696(7) 0.5186(6)
C14 C 0.4311(7) 0.3587(7) 0.4684(5)
H10 H 0.4087 0.3742 0.4603
S3 S 0.5028(2) 0.34294(18) 0.52952(15)
S4 S 0.43798(19) 0.31823(18) 0.41941(14)
N3 N 0.5704(6) 0.0235(4) 0.2737(4)
C15 C 0.6084(8) 0.0082(7) 0.2696(6)
H11 H 0.6319 0.0198 0.2389
C16 C 0.6150(8) -0.0240(7) 0.3086(6)
H12 H 0.6460 -0.0290 0.3075
C17 C 0.5749(8) -0.0491(6) 0.3497(6)
C18 C 0.5379(7) -0.0290(6) 0.3566(5)
H13 H 0.5134 -0.0406 0.3864
C19 C 0.5379(7) 0.0086(6) 0.3184(6)
H14 H 0.5147 0.0237 0.3241
C20 C 0.5765(9) -0.0908(7) 0.3901(6)
C21 C 0.5997(13) -0.1238(10) 0.3826(10)
H15 H 0.6176 -0.1198 0.3489
S5 S 0.5277(3) -0.11453(18) 0.44179(16)
S6 S 0.6003(4) -0.1683(4) 0.4238(4)
N4 N 0.4510(6) -0.4241(5) 0.6565(4)
C22 C 0.4176(7) -0.3997(6) 0.6627(5)
H16 H 0.3886 -0.4150 0.6884
C23 C 0.4254(7) -0.3546(6) 0.6330(5)
H17 H 0.4010 -0.3407 0.6378
C24 C 0.4711(8) -0.3278(6) 0.5943(6)
C25 C 0.5040(7) -0.3542(6) 0.5868(5)
H18 H 0.5333 -0.3406 0.5615
C26 C 0.4903(7) -0.4015(6) 0.6193(6)
H19 H 0.5116 -0.4187 0.6137
C27 C 0.4830(8) -0.2778(7) 0.5636(6)
C28 C 0.4545(10) -0.2503(7) 0.5694(8)
H20 H 0.4237 -0.2654 0.5930
S7 S 0.5372(3) -0.2510(2) 0.5159(2)
S8 S 0.4708(3) -0.1901(2) 0.5366(2)
Zn1E Zn 0.44057(10) -0.48628(12) 0.71311(7)
Zn1E_2 Zn 0.44057(10) 0.51372(12) 0.71311(7)
N2E N 0.5592(6) 0.0217(8) 0.1499(4)
N4E N 0.5490(6) 0.1249(8) 0.1565(4)
loop_
_geom_bond_atom_site_label_1
_geom_bond_atom_site_label_2
_geom_bond_site_symmetry_1
_geom_bond_site_symmetry_2
Zn1 O1 1_555 1_555
Ni1 S1 1_555 1_555
Ni2 S5 1_555 1_555
O2 Zn1 1_555 1_555
N1 Zn1 1_555 1_555
C1 N1 1_555 1_555
H1 C1 1_555 1_555
C2 C1 1_555 1_555
H2 C2 1_555 1_555
C3 C2 1_555 1_555
C4 C3 1_555 1_555
H3 C4 1_555 1_555
C5 N1 1_555 1_555
H4 C5 1_555 1_555
C6 C3 1_555 1_555
C7 C6 1_555 1_555
H5 C7 1_555 1_555
S1 C6 1_555 1_555
S2 Ni1 1_555 1_555
N2 C8 1_555 1_555
C8 H6 1_555 1_555
C9 C8 1_555 1_555
H7 C9 1_555 1_555
C10 C9 1_555 1_555
C11 C10 1_555 1_555
H8 C11 1_555 1_555
C12 N2 1_555 1_555
H9 C12 1_555 1_555
C13 C10 1_555 1_555
C14 C13 1_555 1_555
H10 C14 1_555 1_555
S3 Ni1 1_555 1_555
S4 Ni1 1_555 1_555
N3 Zn1 1_555 1_555
C15 N3 1_555 1_555
H11 C15 1_555 1_555
C16 C15 1_555 1_555
H12 C16 1_555 1_555
C17 C16 1_555 1_555
C18 C17 1_555 1_555
H13 C18 1_555 1_555
C19 N3 1_555 1_555
H14 C19 1_555 1_555
C20 C17 1_555 1_555
C21 C20 1_555 1_555
H15 C21 1_555 1_555
S5 C20 1_555 1_555
S6 Ni2 1_555 1_555
N4 C22 1_555 1_555
C22 H16 1_555 1_555
C23 C22 1_555 1_555
H17 C23 1_555 1_555
C24 C23 1_555 1_555
C25 C24 1_555 1_555
H18 C25 1_555 1_555
C26 N4 1_555 1_555
H19 C26 1_555 1_555
C27 C24 1_555 1_555
C28 C27 1_555 1_555
H20 C28 1_555 1_555
S7 Ni2 1_555 1_555
S8 Ni2 1_555 1_555
Zn1E N4 1_555 1_555
Zn1E_2 N2 1_555 1_555
N2E Zn1 1_555 1_555
N4E Zn1 1_555 1_555
C4 C5 1_555 1_555
C7 S2 1_555 1_555
C11 C12 1_555 1_555
C13 S3 1_555 1_555
C14 S4 1_555 1_555
C18 C19 1_555 1_555
C21 S6 1_555 1_555
C25 C26 1_555 1_555
C27 S7 1_555 1_555
C28 S8 1_555 1_555

#END
