
#######################################################################
#
#                 Cambridge Crystallographic Data Centre
#                                CCDC 
#
#######################################################################
#
# If this CIF has been generated from an entry in the Cambridge 
# Structural Database, then it will include bibliographic, chemical, 
# crystal, experimental, refinement or atomic coordinate data resulting 
# from the CCDC's data processing and validation procedures.
#
#######################################################################

data_CONSAA
_symmetry_cell_setting           monoclinic
_symmetry_space_group_name_H-M   'P 21/n'
_symmetry_Int_Tables_number      14
_space_group_name_Hall           '-P 2yn'
loop_
_symmetry_equiv_pos_site_id
_symmetry_equiv_pos_as_xyz
1 x,y,z
2 1/2-x,1/2+y,1/2-z
3 -x,-y,-z
4 1/2+x,1/2-y,1/2+z
_cell_length_a                   4.996(3)
_cell_length_b                   20.072(5)
_cell_length_c                   20.034(6)
_cell_angle_alpha                90
_cell_angle_beta                 93.36(3)
_cell_angle_gamma                90
_cell_volume                     2005.55
loop_
_atom_site_label
_atom_site_type_symbol
_atom_site_fract_x
_atom_site_fract_y
_atom_site_fract_z
Fe1 Fe 0.0057(2) 0.36653(5) 0.85931(5)
Fe2 Fe 0.3048(2) 0.21006(5) 0.76360(4)
Fe3 Fe -0.5189(2) 0.36485(5) 0.75257(5)
Fe4 Fe -0.1724(2) 0.20978(5) 0.85445(5)
O1 O 0.1584(10) 0.2776(2) 0.8402(2)
O2 O -0.3628(9) 0.4103(2) 0.8459(2)
O3 O -0.7216(10) 0.4336(2) 0.9017(2)
O4 O -0.1047(10) 0.3452(2) 0.9573(2)
O5 O 0.1172(9) 0.4109(2) 0.7621(2)
O6 O -0.4090(10) 0.2457(3) 1.1840(2)
O7 O -0.0392(10) 0.6443(2) 0.7883(2)
O8 O 0.0472(9) 0.6548(2) 0.6501(2)
O9 O -0.4353(9) 0.6537(2) 0.7315(2)
O10 O 0.6470(10) 0.2767(2) 0.7763(3)
O11 O -0.2737(10) 0.4323(3) 0.7091(2)
O12 O -0.1462(11) 0.1626(2) 1.1551(2)
O13 O -0.3592(10) 0.2574(2) 0.9301(2)
O14 O 0.4142(10) 0.6432(2) 0.5935(2)
C1 C -0.0307(14) 0.4410(3) 0.7175(3)
C2 C 0.1043(14) 0.4910(3) 0.6732(3)
H1 H 0.1745(14) 0.5275(3) 0.7008(3)
H2 H 0.2548(14) 0.4695(3) 0.6536(3)
C3 C -0.0824(15) 0.5193(3) 0.6172(3)
H3 H -0.2276(15) 0.5431(3) 0.6368(3)
H4 H -0.1604(15) 0.4827(3) 0.5911(3)
C4 C 0.0575(16) 0.5665(4) 0.5707(3)
H5 H 0.1944(16) 0.5419(4) 0.5486(3)
H6 H -0.0724(16) 0.5823(4) 0.5364(3)
C5 C 0.1861(14) 0.6258(3) 0.6065(3)
C6 C -0.3337(15) 0.2024(3) 1.1426(3)
C7 C -0.4902(16) 0.1970(4) 1.0754(3)
H7 H -0.3681(16) 0.1828(4) 1.0423(3)
H8 H -0.6246(16) 0.1624(4) 1.0785(3)
C8 C -0.6287(15) 0.2600(4) 1.0504(3)
H9 H -0.7457(15) 0.2492(4) 1.0115(3)
H10 H -0.7401(15) 0.2765(4) 1.0848(3)
C9 C -0.4385(16) 0.3145(4) 1.0318(3)
H11 H -0.3078(16) 0.3206(4) 1.0691(3)
H12 H -0.5401(16) 0.3555(4) 1.0269(3)
C10 C -0.2868(15) 0.3049(4) 0.9691(3)
C11 C -0.2783(13) 0.6293(3) 0.7788(3)
C12 C -0.4001(14) 0.5790(3) 0.8234(3)
H13 H -0.4779(14) 0.5433(3) 0.7959(3)
H14 H -0.5441(14) 0.6001(3) 0.8460(3)
C13 C -0.2013(14) 0.5490(3) 0.8758(3)
H15 H -0.1155(14) 0.5846(3) 0.9018(3)
H16 H -0.0632(14) 0.5252(3) 0.8534(3)
C14 C -0.3362(14) 0.5011(3) 0.9230(3)
H17 H -0.1996(14) 0.4824(3) 0.9539(3)
H18 H -0.4588(14) 0.5263(3) 0.9490(3)
C15 C -0.4873(14) 0.4454(3) 0.8887(3)
H19 H 0.2567(36) 0.2622(33) 0.8710(33)
H20 H 0.7174(58) 0.2655(39) 0.7491(38)
Fe1_2 Fe -0.9943(2) 0.36653(5) 0.85931(5)
Fe2C Fe -0.1952(2) 0.28994(5) 1.26360(4)
Fe2A Fe 0.1952(2) 0.71006(5) 0.73640(4)
Fe2A_2 Fe -0.8048(2) 0.71006(5) 0.73640(4)
Fe3_2 Fe 0.4811(2) 0.36485(5) 0.75257(5)
Fe3C Fe -0.0189(2) 0.13515(5) 1.25257(5)
Fe4A Fe -0.3276(2) 0.70978(5) 0.64555(5)
Fe4_2 Fe 0.8276(2) 0.20978(5) 0.85445(5)
Fe4A_2 Fe 0.6724(2) 0.70978(5) 0.64555(5)
O3_2 O 0.2784(10) 0.4336(2) 0.9017(2)
O5_2 O -0.8828(9) 0.4109(2) 0.7621(2)
O6C O 0.0910(10) 0.2543(3) 0.6840(2)
O7A O 0.5392(10) 0.1443(2) 0.7117(2)
O8A O 0.4528(9) 0.1548(2) 0.8499(2)
O8A_2 O -0.5472(9) 0.1548(2) 0.8499(2)
O9A O -0.0647(9) 0.1537(2) 0.7685(2)
O10_2 O -0.3530(10) 0.2767(2) 0.7763(3)
O12C O -0.6462(11) 0.3374(2) 0.6551(2)
O14A O 0.0858(10) 0.1432(2) 0.9065(2)
H20_2 H -0.2826(58) 0.2655(39) 0.7491(38)
O15 O -0.0298(48) 0.9182(44) 0.9670(49)
loop_
_geom_bond_atom_site_label_1
_geom_bond_atom_site_label_2
_geom_bond_site_symmetry_1
_geom_bond_site_symmetry_2
Fe1 O1 1_555 1_555
Fe2 O1 1_555 1_555
Fe3 O2 1_555 1_555
Fe4 O1 1_555 1_555
O1 H19 1_555 1_555
O2 Fe1 1_555 1_555
O3 C15 1_555 1_555
O4 Fe1 1_555 1_555
O5 Fe1 1_555 1_555
O6 C6 1_555 1_555
O7 C11 1_555 1_555
O8 C5 1_555 1_555
O9 C11 1_555 1_555
O10 Fe2 1_555 1_555
O11 Fe3 1_555 1_555
O12 C6 1_555 1_555
O13 Fe4 1_555 1_555
O14 C5 1_555 1_555
C1 O5 1_555 1_555
C2 C1 1_555 1_555
H1 C2 1_555 1_555
H2 C2 1_555 1_555
C3 C2 1_555 1_555
H3 C3 1_555 1_555
H4 C3 1_555 1_555
C4 C3 1_555 1_555
H5 C4 1_555 1_555
H6 C4 1_555 1_555
C5 C4 1_555 1_555
C6 C7 1_555 1_555
C7 H7 1_555 1_555
H8 C7 1_555 1_555
C8 C7 1_555 1_555
H9 C8 1_555 1_555
H10 C8 1_555 1_555
C9 C8 1_555 1_555
H11 C9 1_555 1_555
H12 C9 1_555 1_555
C10 O4 1_555 1_555
C11 C12 1_555 1_555
C12 H13 1_555 1_555
H14 C12 1_555 1_555
C13 C12 1_555 1_555
H15 C13 1_555 1_555
H16 C13 1_555 1_555
C14 C13 1_555 1_555
H17 C14 1_555 1_555
H18 C14 1_555 1_555
C15 O2 1_555 1_555
H20 O10 1_555 1_555
Fe1_2 O3 1_555 1_555
Fe2C O6 1_555 1_555
Fe2A O7 1_555 1_555
Fe2A_2 O9 1_555 1_555
Fe3_2 O5 1_555 1_555
Fe3C O12 1_555 1_555
Fe4A O8 1_555 1_555
Fe4_2 O10 1_555 1_555
Fe4A_2 O14 1_555 1_555
O3_2 Fe1 1_555 1_555
O5_2 Fe3 1_555 1_555
O6C Fe2 1_555 1_555
O7A Fe2 1_555 1_555
O8A Fe2 1_555 1_555
O8A_2 Fe4 1_555 1_555
O9A Fe2 1_555 1_555
O10_2 Fe3 1_555 1_555
O12C Fe3 1_555 1_555
O14A Fe4 1_555 1_555
H20_2 O10_2 1_555 1_555
Fe4 O9A 1_555 1_555
Fe4 O10_2 1_555 1_555
O8 Fe2A 1_555 1_555
O9 Fe4A 1_555 1_555
O10 Fe3_2 1_555 1_555
O11 C1 1_555 1_555
O13 C10 1_555 1_555
C9 C10 1_555 1_555
C14 C15 1_555 1_555
Fe1_2 O5_2 1_555 1_555
Fe4_2 O8A 1_555 1_555

#END
