
#######################################################################
#
#                 Cambridge Crystallographic Data Centre
#                                CCDC 
#
#######################################################################
#
# If this CIF has been generated from an entry in the Cambridge 
# Structural Database, then it will include bibliographic, chemical, 
# crystal, experimental, refinement or atomic coordinate data resulting 
# from the CCDC's data processing and validation procedures.
#
#######################################################################

data_CONYUZ10
_symmetry_cell_setting           monoclinic
_symmetry_space_group_name_H-M   'P 21/c'
_symmetry_Int_Tables_number      14
_space_group_name_Hall           '-P 2ybc'
loop_
_symmetry_equiv_pos_site_id
_symmetry_equiv_pos_as_xyz
1 x,y,z
2 -x,1/2+y,1/2-z
3 -x,-y,-z
4 x,1/2-y,1/2+z
_cell_length_a                   12.306(3)
_cell_length_b                   8.576(3)
_cell_length_c                   15.995(4)
_cell_angle_alpha                90
_cell_angle_beta                 94.48(2)
_cell_angle_gamma                90
_cell_volume                     1682.89
loop_
_atom_site_label
_atom_site_type_symbol
_atom_site_fract_x
_atom_site_fract_y
_atom_site_fract_z
Cu1 Cu 0.00000 0.00000 0.00000
S1 S 0.07918(16) 0.27534(26) 0.07512(14)
C1 C -0.14423(57) 0.2262(10) 0.08336(48)
N1 N -0.13043(43) 0.07555(81) 0.05282(36)
C2 C -0.22403(55) 0.0026(12) 0.06054(44)
H1 H -0.23970 -0.11200 0.04210
N2 N -0.29464(51) 0.0962(10) 0.09465(44)
H2 H -0.37090 0.06570 0.10830
C3 C -0.24617(66) 0.2392(11) 0.10872(54)
C4 C -0.30382(80) 0.3720(13) 0.14783(69)
H3 H -0.29900 0.46270 0.10640
H4 H -0.25520 0.40170 0.19970
H5 H -0.37890 0.38500 0.16670
C5 C -0.05850(65) 0.3486(10) 0.07920(56)
H6 H -0.07750 0.42520 0.03220
H7 H -0.06170 0.42630 0.12810
C6 C 0.11171(63) 0.21156(99) 0.18197(52)
H8 H 0.16890 0.12500 0.18490
H9 H 0.05000 0.14920 0.20390
C7 C 0.14911(74) 0.3417(11) 0.24294(52)
H10 H 0.16980 0.30140 0.30170
H11 H 0.08430 0.40870 0.25710
N3 N 0.23441(52) 0.43814(89) 0.21085(42)
H12 H 0.31200 0.39560 0.21500
C8 C 0.21364(65) 0.5779(11) 0.17554(48)
N4 N 0.11443(54) 0.64082(84) 0.18338(44)
C9 C 0.08411(58) 0.7618(10) 0.13849(51)
N5 N 0.04620(51) 0.86694(85) 0.10256(44)
N6 N 0.29055(52) 0.64941(81) 0.13594(45)
H13 H 0.27440 0.75840 0.11340
C10 C 0.39811(67) 0.5849(12) 0.12133(66)
H14 H 0.38360 0.48300 0.08910
H15 H 0.43440 0.55660 0.17790
H16 H 0.45690 0.63650 0.09090
S1B S -0.07918(16) -0.27534(26) -0.07512(14)
N1B N 0.13043(43) -0.07555(81) -0.05282(36)
N5B N -0.04620(51) 0.13306(85) -0.10256(44)
N5_2 N 0.04620(51) -0.13306(85) 0.10256(44)
C5B C 0.05850(65) -0.3486(10) -0.07920(56)
C6B C -0.11171(63) -0.21156(99) -0.18197(52)
C1B C 0.14423(57) -0.2262(10) -0.08336(48)
C2B C 0.22403(55) -0.0026(12) -0.06054(44)
Cu1_2 Cu 0.00000 1.00000 0.00000
H6B H 0.07750 -0.42520 -0.03220
H7B H 0.06170 -0.42630 -0.12810
H8B H -0.16890 -0.12500 -0.18490
H9B H -0.05000 -0.14920 -0.20390
C7B C -0.14911(74) -0.3417(11) -0.24294(52)
C3B C 0.24617(66) -0.2392(11) -0.10872(54)
H1B H 0.23970 0.11200 -0.04210
N2B N 0.29464(51) -0.0962(10) -0.09465(44)
H10B H -0.16980 -0.30140 -0.30170
H11B H -0.08430 -0.40870 -0.25710
N3B N -0.23441(52) -0.43814(89) -0.21085(42)
C4B C 0.30382(80) -0.3720(13) -0.14783(69)
H2B H 0.37090 -0.06570 -0.10830
H12B H -0.31200 -0.39560 -0.21500
C8B C -0.21364(65) -0.5779(11) -0.17554(48)
H3B H 0.29900 -0.46270 -0.10640
H4B H 0.25520 -0.40170 -0.19970
H5B H 0.37890 -0.38500 -0.16670
N4B N -0.11443(54) -0.64082(84) -0.18338(44)
N6B N -0.29055(52) -0.64941(81) -0.13594(45)
C9B C -0.08411(58) -0.7618(10) -0.13849(51)
H13B H -0.27440 -0.75840 -0.11340
C10B C -0.39811(67) -0.5849(12) -0.12133(66)
N5B_2 N -0.04620(51) -0.86694(85) -0.10256(44)
H14B H -0.38360 -0.48300 -0.08910
H15B H -0.43440 -0.55660 -0.17790
H16B H -0.45690 -0.63650 -0.09090
Cu1_3 Cu 0.00000 -1.00000 0.00000
Cl1 Cl 0.58621(17) 0.58216(29) 0.35952(16)
O1 O 0.68110(44) 0.48967(84) 0.37793(40)
O2 O 0.49461(46) 0.48372(91) 0.33839(46)
O3 O 0.56738(64) 0.67287(98) 0.43064(53)
O4 O 0.60327(54) 0.67982(85) 0.28949(47)
loop_
_geom_bond_atom_site_label_1
_geom_bond_atom_site_label_2
_geom_bond_site_symmetry_1
_geom_bond_site_symmetry_2
Cu1 S1 1_555 1_555
S1 C5 1_555 1_555
C1 N1 1_555 1_555
N1 Cu1 1_555 1_555
C2 N1 1_555 1_555
H1 C2 1_555 1_555
N2 C2 1_555 1_555
H2 N2 1_555 1_555
C3 C1 1_555 1_555
C4 C3 1_555 1_555
H3 C4 1_555 1_555
H4 C4 1_555 1_555
H5 C4 1_555 1_555
C5 C1 1_555 1_555
H6 C5 1_555 1_555
H7 C5 1_555 1_555
C6 S1 1_555 1_555
H8 C6 1_555 1_555
H9 C6 1_555 1_555
C7 C6 1_555 1_555
H10 C7 1_555 1_555
H11 C7 1_555 1_555
N3 C7 1_555 1_555
H12 N3 1_555 1_555
C8 N3 1_555 1_555
N4 C8 1_555 1_555
C9 N4 1_555 1_555
N5 C9 1_555 1_555
N6 C8 1_555 1_555
H13 N6 1_555 1_555
C10 N6 1_555 1_555
H14 C10 1_555 1_555
H15 C10 1_555 1_555
H16 C10 1_555 1_555
Cl1 O1 1_555 1_555
O2 Cl1 1_555 1_555
O3 Cl1 1_555 1_555
O4 Cl1 1_555 1_555
S1B Cu1 1_555 1_555
N1B Cu1 1_555 1_555
N5B Cu1 1_555 1_555
N5_2 Cu1 1_555 1_555
C5B S1B 1_555 1_555
C6B S1B 1_555 1_555
C1B N1B 1_555 1_555
C2B N1B 1_555 1_555
Cu1_2 N5 1_555 1_555
H6B C5B 1_555 1_555
H7B C5B 1_555 1_555
H8B C6B 1_555 1_555
H9B C6B 1_555 1_555
C7B C6B 1_555 1_555
C3B C1B 1_555 1_555
H1B C2B 1_555 1_555
N2B C2B 1_555 1_555
H10B C7B 1_555 1_555
H11B C7B 1_555 1_555
N3B C7B 1_555 1_555
C4B C3B 1_555 1_555
H2B N2B 1_555 1_555
H12B N3B 1_555 1_555
C8B N3B 1_555 1_555
H3B C4B 1_555 1_555
H4B C4B 1_555 1_555
H5B C4B 1_555 1_555
N4B C8B 1_555 1_555
N6B C8B 1_555 1_555
C9B N4B 1_555 1_555
H13B N6B 1_555 1_555
C10B N6B 1_555 1_555
N5B_2 C9B 1_555 1_555
H14B C10B 1_555 1_555
H15B C10B 1_555 1_555
H16B C10B 1_555 1_555
Cu1_3 N5B_2 1_555 1_555
N2 C3 1_555 1_555
C5B C1B 1_555 1_555
C3B N2B 1_555 1_555

#END
