
#######################################################################
#
#                 Cambridge Crystallographic Data Centre
#                                CCDC 
#
#######################################################################
#
# If this CIF has been generated from an entry in the Cambridge 
# Structural Database, then it will include bibliographic, chemical, 
# crystal, experimental, refinement or atomic coordinate data resulting 
# from the CCDC's data processing and validation procedures.
#
#######################################################################

data_COPBOZ
_symmetry_cell_setting           triclinic
_symmetry_space_group_name_H-M   'P -1'
_symmetry_Int_Tables_number      2
_space_group_name_Hall           '-P 1'
loop_
_symmetry_equiv_pos_site_id
_symmetry_equiv_pos_as_xyz
1 x,y,z
2 -x,-y,-z
_cell_length_a                   9.5028(4)
_cell_length_b                   12.3130(5)
_cell_length_c                   12.7343(6)
_cell_angle_alpha                68.3800(10)
_cell_angle_beta                 73.7230(10)
_cell_angle_gamma                89.6240(10)
_cell_volume                     1321.84
loop_
_atom_site_label
_atom_site_type_symbol
_atom_site_fract_x
_atom_site_fract_y
_atom_site_fract_z
Cd1 Cd 0.40822(4) 0.10982(4) 0.55634(4)
O1 O 0.3504(5) 0.0639(4) 0.7597(4)
O2 O 0.1701(5) 0.0738(4) 0.6829(4)
Cl1 Cl 0.4577(2) 0.31778(14) 0.43801(15)
Cl2 Cl 0.64390(16) 0.00901(14) 0.55945(14)
C1 C 0.1037(6) 0.0275(4) 0.8896(5)
C2 C 0.1482(6) 0.0041(5) 0.9893(5)
H1 H 0.2482 0.0066 0.9825
C3 C -0.0465(6) 0.0230(5) 0.9014(5)
H2 H -0.0783 0.0384 0.8350
C4 C 0.2139(7) 0.0567(5) 0.7702(5)
Cd1A Cd -0.40822(4) -0.10982(4) 1.44366(4)
Cd1A_2 Cd 0.59178(4) -0.10982(4) 0.44366(4)
O1A O -0.3504(5) -0.0639(4) 1.2403(4)
O2A O -0.1701(5) -0.0738(4) 1.3171(4)
Cl1A Cl -0.4577(2) -0.31778(14) 1.56199(15)
Cl2A Cl 0.35610(16) -0.00901(14) 0.44055(14)
Cl2A_2 Cl -0.64390(16) -0.00901(14) 1.44055(14)
Cl2_2 Cl -0.35610(16) 0.00901(14) 1.55945(14)
C1A C -0.1037(6) -0.0275(4) 1.1104(5)
C2A C -0.1482(6) -0.0041(5) 1.0107(5)
H1A H -0.2482 -0.0066 1.0175
C3A C 0.0465(6) -0.0230(5) 1.0986(5)
H2A H 0.0783 -0.0384 1.1650
C4A C -0.2139(7) -0.0567(5) 1.2298(5)
P1 P -0.07943(15) 0.43740(13) 0.80051(13)
C5 C 0.0824(6) 0.3760(5) 0.8334(5)
C6 C 0.2101(8) 0.3933(7) 0.7402(7)
H3 H 0.2103 0.4338 0.6624
C7 C 0.3364(8) 0.3494(9) 0.7644(10)
H4 H 0.4215 0.3589 0.7026
C8 C 0.3370(9) 0.2929(7) 0.8774(10)
H5 H 0.4240 0.2666 0.8927
C9 C 0.2115(9) 0.2735(6) 0.9701(8)
H6 H 0.2126 0.2323 1.0475
C10 C 0.0822(7) 0.3161(5) 0.9477(6)
H7 H -0.0034 0.3038 1.0099
C11 C -0.0471(6) 0.5940(5) 0.7525(5)
C12 C -0.1504(8) 0.6658(6) 0.7172(8)
H8 H -0.2381 0.6332 0.7167
C13 C -0.1251(10) 0.7848(7) 0.6830(9)
H9 H -0.1957 0.8324 0.6588
C14 C 0.0010(9) 0.8346(6) 0.6838(7)
H10 H 0.0181 0.9157 0.6591
C15 C 0.1030(8) 0.7636(6) 0.7216(6)
H11 H 0.1887 0.7966 0.7247
C16 C 0.0801(7) 0.6450(6) 0.7547(6)
H12 H 0.1510 0.5980 0.7790
C17 C -0.2327(6) 0.3831(5) 0.9317(5)
C18 C -0.3009(7) 0.2700(6) 0.9697(6)
H13 H -0.2745 0.2263 0.9226
C19 C -0.4082(8) 0.2230(6) 1.0781(7)
H14 H -0.4527 0.1468 1.1046
C20 C -0.4493(8) 0.2878(7) 1.1467(6)
H15 H -0.5214 0.2553 1.2196
C21 C -0.3861(8) 0.3988(7) 1.1092(6)
H16 H -0.4158 0.4425 1.1560
C22 C -0.2767(7) 0.4480(6) 1.0012(6)
H17 H -0.2334 0.5244 0.9758
C23 C -0.1203(6) 0.3908(5) 0.6936(5)
C24 C -0.0538(9) 0.2980(6) 0.6695(6)
H18 H 0.0206 0.2659 0.7018
C25 C -0.0987(11) 0.2543(7) 0.5980(7)
H19 H -0.0537 0.1927 0.5814
C26 C -0.2084(10) 0.3000(8) 0.5510(6)
H20 H -0.2395 0.2682 0.5043
C27 C -0.2724(8) 0.3913(7) 0.5721(6)
H21 H -0.3453 0.4238 0.5380
C28 C -0.2298(8) 0.4361(7) 0.6440(6)
H22 H -0.2756 0.4979 0.6593
O3 O 0.5839(9) 0.0710(8) 0.8551(8)
loop_
_geom_bond_atom_site_label_1
_geom_bond_atom_site_label_2
_geom_bond_site_symmetry_1
_geom_bond_site_symmetry_2
Cd1 O1 1_555 1_555
P1 C5 1_555 1_555
O1 C4 1_555 1_555
O2 Cd1 1_555 1_555
Cl1 Cd1 1_555 1_555
Cl2 Cd1 1_555 1_555
C1 C2 1_555 1_555
C2 H1 1_555 1_555
C3 C1 1_555 1_555
H2 C3 1_555 1_555
C4 O2 1_555 1_555
C5 C6 1_555 1_555
C6 H3 1_555 1_555
C7 C6 1_555 1_555
H4 C7 1_555 1_555
C8 C7 1_555 1_555
H5 C8 1_555 1_555
C9 C8 1_555 1_555
H6 C9 1_555 1_555
C10 C5 1_555 1_555
H7 C10 1_555 1_555
C11 P1 1_555 1_555
C12 C11 1_555 1_555
H8 C12 1_555 1_555
C13 C12 1_555 1_555
H9 C13 1_555 1_555
C14 C13 1_555 1_555
H10 C14 1_555 1_555
C15 C14 1_555 1_555
H11 C15 1_555 1_555
C16 C11 1_555 1_555
H12 C16 1_555 1_555
C17 P1 1_555 1_555
C18 C17 1_555 1_555
H13 C18 1_555 1_555
C19 C18 1_555 1_555
H14 C19 1_555 1_555
C20 C19 1_555 1_555
H15 C20 1_555 1_555
C21 C20 1_555 1_555
H16 C21 1_555 1_555
C22 C17 1_555 1_555
H17 C22 1_555 1_555
C23 P1 1_555 1_555
C24 C23 1_555 1_555
H18 C24 1_555 1_555
C25 C24 1_555 1_555
H19 C25 1_555 1_555
C26 C25 1_555 1_555
H20 C26 1_555 1_555
C27 C26 1_555 1_555
H21 C27 1_555 1_555
C28 C23 1_555 1_555
H22 C28 1_555 1_555
Cd1A O1A 1_555 1_555
Cd1A_2 Cl2 1_555 1_555
O1A C4A 1_555 1_555
O2A Cd1A 1_555 1_555
Cl1A Cd1A 1_555 1_555
Cl2A Cd1 1_555 1_555
Cl2A_2 Cd1A 1_555 1_555
Cl2_2 Cd1A 1_555 1_555
C1A C2A 1_555 1_555
C2A C3 1_555 1_555
H1A C2A 1_555 1_555
C3A C2 1_555 1_555
H2A C3A 1_555 1_555
C4A O2A 1_555 1_555
C1 C4 1_555 1_555
C9 C10 1_555 1_555
C15 C16 1_555 1_555
C21 C22 1_555 1_555
C27 C28 1_555 1_555
Cd1A_2 Cl2A 1_555 1_555
C1A C3A 1_555 1_555
C1A C4A 1_555 1_555

#END
