
#######################################################################
#
#                 Cambridge Crystallographic Data Centre
#                                CCDC 
#
#######################################################################
#
# If this CIF has been generated from an entry in the Cambridge 
# Structural Database, then it will include bibliographic, chemical, 
# crystal, experimental, refinement or atomic coordinate data resulting 
# from the CCDC's data processing and validation procedures.
#
#######################################################################

data_COPFAQ
_symmetry_cell_setting           monoclinic
_symmetry_space_group_name_H-M   'P 21/c'
_symmetry_Int_Tables_number      14
_space_group_name_Hall           '-P 2ybc'
loop_
_symmetry_equiv_pos_site_id
_symmetry_equiv_pos_as_xyz
1 x,y,z
2 -x,1/2+y,1/2-z
3 -x,-y,-z
4 x,1/2-y,1/2+z
_cell_length_a                   7.352(6)
_cell_length_b                   13.933(9)
_cell_length_c                   11.460(5)
_cell_angle_alpha                90
_cell_angle_beta                 109.56(3)
_cell_angle_gamma                90
_cell_volume                     1106.17
loop_
_atom_site_label
_atom_site_type_symbol
_atom_site_fract_x
_atom_site_fract_y
_atom_site_fract_z
Mg1 Mg -1.0000 -0.5000 0.0000
O1 O -0.81645(16) -0.51795(9) 0.17864(10)
O2 O -0.51620(19) -0.49979(9) 0.17568(11)
O3 O -0.76152(19) -0.49163(10) -0.05737(12)
O4 O -0.98214(18) -0.35017(9) 0.03056(13)
N1 N -1.0118(2) -0.19491(12) -0.03199(19)
C1 C -0.53824(18) -0.41425(9) 0.42902(12)
C2 C -0.5763(2) -0.32610(11) 0.36141(14)
H1 H -0.6206 -0.3276 0.2753
C3 C -0.5490(3) -0.23990(11) 0.42075(16)
H2 H -0.5735 -0.1834 0.3749
C4 C -0.4833(3) -0.23568(11) 0.55247(16)
H3 H -0.4655 -0.1766 0.5924
C5 C -0.52818(18) -0.58977(9) 0.43808(12)
C6 C -0.4466(2) -0.31800(11) 0.61980(14)
H4 H -0.4039 -0.3143 0.7058
C7 C -0.5653(2) -0.50413(9) 0.36975(13)
C8 C -0.6377(2) -0.50762(9) 0.22951(13)
C9 C -1.0610(3) -0.12842(17) -0.1350(3)
H5 H -1.0889 -0.1635 -0.2111
H6 H -0.9544 -0.0859 -0.1258
H7 H -1.1723 -0.0918 -0.1365
C10 C -0.9586(3) -0.15622(16) 0.0930(3)
H8 H -0.9202 -0.2077 0.1518
H9 H -1.0673 -0.1234 0.1030
H10 H -0.8533 -0.1121 0.1066
C11 C -1.0171(2) -0.28881(13) -0.0511(2)
H11 H -1.0496 -0.3099 -0.1325
O1B O -0.18355(16) -0.48205(9) 0.82136(10)
O2B O -0.48380(19) -0.50021(9) 0.82432(11)
C1B C -0.46176(18) -0.58575(9) 0.57098(12)
C2B C -0.4237(2) -0.67390(11) 0.63859(14)
H1B H -0.3794 -0.6724 0.7247
C3B C -0.4510(3) -0.76010(11) 0.57925(16)
H2B H -0.4265 -0.8166 0.6251
C4B C -0.5167(3) -0.76432(11) 0.44753(16)
H3B H -0.5345 -0.8234 0.4076
C5B C -0.47182(18) -0.41023(9) 0.56192(12)
C6B C -0.5534(2) -0.68200(11) 0.38020(14)
H4B H -0.5961 -0.6857 0.2942
C7B C -0.4347(2) -0.49587(9) 0.63025(13)
C8B C -0.3623(2) -0.49238(9) 0.77049(13)
O3B O -1.23848(19) -0.50837(10) 0.05737(12)
O4B O -1.01786(18) -0.64983(9) -0.03056(13)
N1B N -0.9882(2) -0.80509(12) 0.03199(19)
C9B C -0.9390(3) -0.87158(17) 0.1350(3)
H5B H -0.9111 -0.8365 0.2111
H6B H -1.0456 -0.9141 0.1258
H7B H -0.8277 -0.9082 0.1365
C10B C -1.0414(3) -0.84378(16) -0.0930(3)
H8B H -1.0798 -0.7923 -0.1518
H9B H -0.9327 -0.8766 -0.1030
H10B H -1.1467 -0.8879 -0.1066
C11B C -0.9829(2) -0.71119(13) 0.0511(2)
H11B H -0.9504 -0.6901 0.1325
Mg1_2 Mg 0.0000 -0.5000 1.0000
O1B_2 O -1.18355(16) -0.48205(9) -0.17864(10)
loop_
_geom_bond_atom_site_label_1
_geom_bond_atom_site_label_2
_geom_bond_site_symmetry_1
_geom_bond_site_symmetry_2
Mg1 O1 1_555 1_555
O1 C8 1_555 1_555
O2 C8 1_555 1_555
O3 Mg1 1_555 1_555
O4 Mg1 1_555 1_555
N1 C9 1_555 1_555
C1 C2 1_555 1_555
C2 H1 1_555 1_555
C3 C2 1_555 1_555
H2 C3 1_555 1_555
C4 C3 1_555 1_555
H3 C4 1_555 1_555
C5 C7 1_555 1_555
C6 C4 1_555 1_555
H4 C6 1_555 1_555
C7 C1 1_555 1_555
C8 C7 1_555 1_555
C9 H5 1_555 1_555
H6 C9 1_555 1_555
H7 C9 1_555 1_555
C10 N1 1_555 1_555
H8 C10 1_555 1_555
H9 C10 1_555 1_555
H10 C10 1_555 1_555
C11 O4 1_555 1_555
H11 C11 1_555 1_555
O1B C8B 1_555 1_555
O2B C8B 1_555 1_555
C1B C5 1_555 1_555
C2B C1B 1_555 1_555
H1B C2B 1_555 1_555
C3B C2B 1_555 1_555
H2B C3B 1_555 1_555
C4B C3B 1_555 1_555
H3B C4B 1_555 1_555
C5B C1 1_555 1_555
C6B C5 1_555 1_555
H4B C6B 1_555 1_555
C7B C1B 1_555 1_555
C8B C7B 1_555 1_555
O3B Mg1 1_555 1_555
O4B Mg1 1_555 1_555
N1B C9B 1_555 1_555
C9B H5B 1_555 1_555
H6B C9B 1_555 1_555
H7B C9B 1_555 1_555
C10B N1B 1_555 1_555
H8B C10B 1_555 1_555
H9B C10B 1_555 1_555
H10B C10B 1_555 1_555
C11B O4B 1_555 1_555
H11B C11B 1_555 1_555
Mg1_2 O1B 1_555 1_555
O1B_2 Mg1 1_555 1_555
N1 C11 1_555 1_555
C6 C5B 1_555 1_555
C4B C6B 1_555 1_555
C5B C7B 1_555 1_555
N1B C11B 1_555 1_555

#END
