
#######################################################################
#
#                 Cambridge Crystallographic Data Centre
#                                CCDC 
#
#######################################################################
#
# If this CIF has been generated from an entry in the Cambridge 
# Structural Database, then it will include bibliographic, chemical, 
# crystal, experimental, refinement or atomic coordinate data resulting 
# from the CCDC's data processing and validation procedures.
#
#######################################################################

data_COPHSP10
_symmetry_cell_setting           monoclinic
_symmetry_space_group_name_H-M   'P 21/c'
_symmetry_Int_Tables_number      14
_space_group_name_Hall           '-P 2ybc'
loop_
_symmetry_equiv_pos_site_id
_symmetry_equiv_pos_as_xyz
1 x,y,z
2 -x,1/2+y,1/2-z
3 -x,-y,-z
4 x,1/2-y,1/2+z
_cell_length_a                   14.96(3)
_cell_length_b                   23.38(4)
_cell_length_c                   17.58(3)
_cell_angle_alpha                90
_cell_angle_beta                 127.8(3)
_cell_angle_gamma                90
_cell_volume                     4858.56
loop_
_atom_site_label
_atom_site_type_symbol
_atom_site_fract_x
_atom_site_fract_y
_atom_site_fract_z
Co1 Co 0.29750 0.24490 0.01590
Co2 Co 0.26930 0.33310 -0.18150
C1 C 0.28200 0.17340 -0.19770
C2 C 0.36050 0.14130 -0.11540
C3 C 0.45620 0.11480 -0.10060
C4 C 0.46470 0.12060 -0.17570
C5 C 0.39280 0.15330 -0.25310
C6 C 0.29320 0.18240 -0.26770
C7 C 0.04940 0.15270 -0.27370
C8 C 0.04110 0.11290 -0.33540
C9 C -0.06570 0.08560 -0.39850
C10 C -0.1246 0.0738 -0.3704
C11 C -0.1081 0.1046 -0.3017
C12 C -0.0128 0.1466 -0.2461
C13 C 0.60400 0.26360 0.01820
C14 C 0.71590 0.24950 0.10560
C15 C 0.80430 0.23650 0.09790
C16 C 0.77070 0.23600 0.00650
C17 C 0.67210 0.24770 -0.07260
C18 C 0.57520 0.26270 -0.07370
C19 C 0.55230 0.35680 0.08870
C20 C 0.58220 0.36490 0.18240
C21 C 0.62120 0.42390 0.22030
C22 C 0.63140 0.46500 0.17020
C23 C 0.61010 0.45500 0.08990
C24 C 0.56500 0.39800 0.03790
C25 C 0.22770 0.43600 0.03680
C26 C 0.15510 0.45070 0.05990
C27 C 0.19070 0.49790 0.12510
C28 C 0.29210 0.52270 0.17100
C29 C 0.36510 0.50900 0.14860
C30 C 0.33050 0.46270 0.08090
C31 C 0.04510 0.36350 -0.10910
C32 C -0.03590 0.39230 -0.20270
C33 C -0.15560 0.38150 -0.24940
C34 C -0.18140 0.34640 -0.20720
C35 C -0.10310 0.31380 -0.11550
C36 C 0.01940 0.32410 -0.06760
C37 C 0.28990 0.40990 -0.43600
C38 C 0.40030 0.42680 -0.38770
C39 C 0.42430 0.47090 -0.43310
C40 C 0.33850 0.48960 -0.51950
C41 C 0.23310 0.47400 -0.57010
C42 C 0.20860 0.43220 -0.52840
C43 C 0.10750 0.37760 -0.43390
C44 C 0.02170 0.34510 -0.51240
C45 C -0.10030 0.37200 -0.55760
C46 C -0.10360 0.41370 -0.51250
C47 C -0.01960 0.44170 -0.43720
C48 C 0.08840 0.42180 -0.39720
O1 O 0.19440 0.20660 -0.10830
O2 O 0.38800 0.29120 -0.06730
O3 O 0.25810 0.32550 0.01050
O4 O 0.24900 0.29760 -0.41740
P1 P 0.16630 0.20270 -0.20670
P2 P 0.50190 0.28650 0.03200
P3 P 0.19170 0.37830 -0.04630
P4 P 0.24920 0.35770 -0.38570
S1 S 0.11410 0.27470 -0.28630
S2 S 0.49510 0.23200 0.11580
S3 S 0.21860 0.41180 -0.13540
S4 S 0.35560 0.37160 -0.24320
O4C O 0.24900 0.20240 0.08260
Co1C Co 0.29750 0.25510 -0.48410
loop_
_geom_bond_atom_site_label_1
_geom_bond_atom_site_label_2
_geom_bond_site_symmetry_1
_geom_bond_site_symmetry_2
Co1 O1 1_555 1_555
Co2 O2 1_555 1_555
C1 C2 1_555 1_555
C2 C3 1_555 1_555
C3 C4 1_555 1_555
C4 C5 1_555 1_555
C5 C6 1_555 1_555
C6 C1 1_555 1_555
C7 C8 1_555 1_555
C8 C9 1_555 1_555
C9 C10 1_555 1_555
C10 C11 1_555 1_555
C11 C12 1_555 1_555
C12 C7 1_555 1_555
C13 C14 1_555 1_555
C14 C15 1_555 1_555
C15 C16 1_555 1_555
C16 C17 1_555 1_555
C17 C18 1_555 1_555
C18 C13 1_555 1_555
C19 C20 1_555 1_555
C20 C21 1_555 1_555
C21 C22 1_555 1_555
C22 C23 1_555 1_555
C23 C24 1_555 1_555
C24 C19 1_555 1_555
C25 C26 1_555 1_555
C26 C27 1_555 1_555
C27 C28 1_555 1_555
C28 C29 1_555 1_555
C29 C30 1_555 1_555
C30 C25 1_555 1_555
C31 C32 1_555 1_555
C32 C33 1_555 1_555
C33 C34 1_555 1_555
C34 C35 1_555 1_555
C35 C36 1_555 1_555
C36 C31 1_555 1_555
C37 C38 1_555 1_555
C38 C39 1_555 1_555
C39 C40 1_555 1_555
C40 C41 1_555 1_555
C41 C42 1_555 1_555
C42 C37 1_555 1_555
C43 C44 1_555 1_555
C44 C45 1_555 1_555
C45 C46 1_555 1_555
C46 C47 1_555 1_555
C47 C48 1_555 1_555
C48 C43 1_555 1_555
O1 P1 1_555 1_555
O2 P2 1_555 1_555
O3 Co1 1_555 1_555
O4 P4 1_555 1_555
P1 C1 1_555 1_555
P2 C13 1_555 1_555
P3 C25 1_555 1_555
P4 C37 1_555 1_555
S1 Co2 1_555 1_555
S2 Co1 1_555 1_555
S3 Co2 1_555 1_555
S4 Co2 1_555 1_555
O4C Co1 1_555 1_555
Co1C O4 1_555 1_555
C7 P1 1_555 1_555
C19 P2 1_555 1_555
C31 P3 1_555 1_555
C43 P4 1_555 1_555
O3 P3 1_555 1_555
P1 S1 1_555 1_555
P2 S2 1_555 1_555
P3 S3 1_555 1_555
P4 S4 1_555 1_555

#END
