
#######################################################################
#
#                 Cambridge Crystallographic Data Centre
#                                CCDC 
#
#######################################################################
#
# If this CIF has been generated from an entry in the Cambridge 
# Structural Database, then it will include bibliographic, chemical, 
# crystal, experimental, refinement or atomic coordinate data resulting 
# from the CCDC's data processing and validation procedures.
#
#######################################################################

data_COPVIO
_symmetry_cell_setting           monoclinic
_symmetry_space_group_name_H-M   'C 2/c'
_symmetry_Int_Tables_number      15
_space_group_name_Hall           '-C 2yn'
loop_
_symmetry_equiv_pos_site_id
_symmetry_equiv_pos_as_xyz
1 x,y,z
2 -x,y,1/2-z
3 1/2+x,1/2+y,z
4 1/2-x,1/2+y,1/2-z
5 -x,-y,-z
6 x,-y,1/2+z
7 1/2-x,1/2-y,-z
8 1/2+x,1/2-y,1/2+z
_cell_length_a                   20.1333(8)
_cell_length_b                   20.1906(6)
_cell_length_c                   24.8738(8)
_cell_angle_alpha                90
_cell_angle_beta                 98.952(4)
_cell_angle_gamma                90
_cell_volume                     9988.12
loop_
_atom_site_label
_atom_site_type_symbol
_atom_site_fract_x
_atom_site_fract_y
_atom_site_fract_z
W1 W 0.09522(4) 0.16512(3) 0.46093(3)
W2 W 0.11265(4) 0.33226(4) 0.42038(3)
W3 W 0.14710(4) 0.21026(4) 0.59989(3)
W4 W 0.16392(4) 0.37791(3) 0.55862(3)
W5 W 0.23366(4) 0.08249(3) 0.54065(3)
W6 W 0.19754(4) 0.20356(3) 0.36156(3)
P1 P 0.2500 0.2500 0.5000
O3 O 0.1266(8) 0.2996(9) 0.5836(7)
O4 O 0.1542(7) 0.0942(7) 0.4909(5)
O5 O 0.0892(6) 0.1897(7) 0.5331(5)
O6 O 0.1078(6) 0.3656(8) 0.4914(5)
O7 O 0.2377(7) 0.3638(6) 0.6133(6)
O8 O 0.2183(7) 0.4262(8) 0.5190(5)
O9 O 0.2260(9) 0.0038(6) 0.5605(6)
O10 O 0.0219(8) 0.1254(7) 0.4429(6)
O11 O 0.1455(10) 0.2805(6) 0.3666(7)
O12 O 0.1011(7) 0.1913(8) 0.6482(5)
O13 O 0.1249(8) 0.4383(7) 0.5875(6)
O14 O 0.1755(6) 0.1813(5) 0.2966(5)
O15 O 0.1921(7) 0.1293(7) 0.5929(5)
O16 O 0.1827(7) 0.3927(9) 0.4170(5)
O17 O 0.1346(9) 0.1585(6) 0.3971(6)
O18 O 0.2832(9) 0.1826(9) 0.5103(7)
O19 O 0.1861(9) 0.2408(8) 0.4562(7)
O20 O 0.0744(11) 0.2516(8) 0.4420(8)
O21 O 0.2341(11) 0.2497(11) 0.6404(6)
O22 O 0.0464(8) 0.3675(7) 0.3816(5)
O23 O 0.2231(11) 0.2738(10) 0.5512(8)
O24 O 0.2070(10) 0.2002(9) 0.5169(8)
O18F O 0.2168(9) 0.3174(9) 0.4897(7)
O19F O 0.3139(9) 0.2592(8) 0.5438(7)
O23F O 0.2769(11) 0.2262(10) 0.4488(8)
O24F O 0.2930(10) 0.2998(9) 0.4831(8)
W1F W 0.40478(4) 0.33488(3) 0.53907(3)
W2F W 0.38735(4) 0.16774(4) 0.57962(3)
W3F W 0.35290(4) 0.28974(4) 0.40011(3)
W4F W 0.33608(4) 0.12209(3) 0.44138(3)
W5F W 0.26634(4) 0.41751(3) 0.45935(3)
W6F W 0.30246(4) 0.29644(3) 0.63844(3)
O3F O 0.3734(8) 0.2004(9) 0.4164(7)
O4F O 0.3458(7) 0.4058(7) 0.5091(5)
O5F O 0.4108(6) 0.3103(7) 0.4669(5)
O6F O 0.3922(6) 0.1344(8) 0.5086(5)
O7F O 0.2623(7) 0.1362(6) 0.3867(6)
O8F O 0.2817(7) 0.0738(8) 0.4810(5)
O9F O 0.2740(9) 0.4962(6) 0.4395(6)
O10F O 0.4781(8) 0.3746(7) 0.5571(6)
O11F O 0.3545(10) 0.2195(6) 0.6334(7)
O12F O 0.3989(7) 0.3087(8) 0.3518(5)
O13F O 0.3751(8) 0.0617(7) 0.4125(6)
O14F O 0.3245(6) 0.3187(5) 0.7034(5)
O15F O 0.3079(7) 0.3707(7) 0.4071(5)
O16F O 0.3173(7) 0.1073(9) 0.5830(5)
O17F O 0.3654(9) 0.3415(6) 0.6029(6)
O20F O 0.4256(11) 0.2484(8) 0.5580(8)
O21F O 0.2659(11) 0.2503(11) 0.3596(6)
O22F O 0.4536(8) 0.1325(7) 0.6184(5)
Cd1 Cd 0.0000 0.00028(6) 0.2500
Mn1 Mn 0.0000 0.50095(11) 0.2500
O1 O 0.0192(6) -0.0019(6) 0.3425(3)
O2 O -0.0211(6) 0.5097(5) 0.1604(4)
N1 N 0.0712(4) 0.5714(4) 0.2485(4)
N2 N 0.0695(4) 0.4306(4) 0.2497(4)
N3 N 0.0000 0.8842(7) 0.2500
N4 N 0.0000 0.1171(7) 0.2500
N5 N 0.3841(5) 0.4992(5) 0.2507(5)
N6 N -0.0498(14) 0.5790(15) 0.0881(12)
N7 N 0.0358(18) -0.042(2) 0.4234(9)
C1 C 0.0446(7) 0.8500(7) 0.2851(7)
H1 H 0.0762 0.8732 0.3093
C2 C 0.0454(7) 0.7813(6) 0.2867(6)
H2 H 0.0763 0.7595 0.3123
C3 C 0.0000 0.7447(8) 0.2500
C4 C 0.0000 0.6714(8) 0.2500
C5 C 0.0613(6) 0.6389(5) 0.2451(5)
C6 C 0.1214(6) 0.6707(7) 0.2377(6)
H3 H 0.1269 0.7159 0.2326
C7 C 0.1692(6) 0.6242(6) 0.2395(6)
H4 H 0.2143 0.6312 0.2372
C8 C 0.1382(6) 0.5625(6) 0.2453(5)
C9 C 0.1698(5) 0.5007(6) 0.2474(6)
C10 C 0.1386(6) 0.4398(6) 0.2492(6)
C11 C 0.1702(6) 0.3759(6) 0.2507(6)
H5 H 0.2160 0.3682 0.2526
C12 C 0.1236(6) 0.3303(6) 0.2489(6)
H6 H 0.1306 0.2848 0.2481
C13 C 0.0612(5) 0.3620(5) 0.2484(5)
C14 C 0.0000 0.3302(8) 0.2500
C15 C 0.0000 0.2540(8) 0.2500
C16 C -0.0047(7) 0.2205(6) 0.2962(6)
H7 H -0.0076 0.2429 0.3284
C17 C -0.0052(7) 0.1509(6) 0.2944(6)
H8 H -0.0094 0.1277 0.3260
C18 C 0.3561(7) 0.4736(8) 0.2922(7)
H9 H 0.3842 0.4547 0.3214
C19 C 0.2883(7) 0.4743(7) 0.2929(7)
H10 H 0.2712 0.4580 0.3229
C20 C 0.2445(6) 0.4998(6) 0.2479(6)
C21 C 0.2726(6) 0.5248(7) 0.2063(6)
H11 H 0.2454 0.5422 0.1760
C22 C 0.3424(6) 0.5247(7) 0.2088(7)
H12 H 0.3606 0.5431 0.1801
C23 C -0.0106(18) 0.5593(19) 0.1351(15)
H13 H 0.0264 0.5852 0.1487
C24 C -0.045(2) 0.649(2) 0.0691(19)
H14 H -0.0009 0.6660 0.0812
H15 H -0.0775 0.6760 0.0840
H16 H -0.0547 0.6507 0.0301
C25 C -0.1062(19) 0.540(2) 0.0628(15)
H17 H -0.0980 0.4941 0.0715
H18 H -0.1120 0.5457 0.0241
H19 H -0.1462 0.5541 0.0761
C26 C 0.049(3) -0.040(2) 0.3711(11)
H20 H 0.0801 -0.0679 0.3593
C27 C 0.077(3) -0.056(6) 0.4759(13)
H21 H 0.1229 -0.0620 0.4708
H22 H 0.0608 -0.0948 0.4913
H23 H 0.0744 -0.0188 0.5000
C28 C -0.023(3) -0.020(4) 0.4475(19)
H24 H -0.0122 0.0190 0.4686
H25 H -0.0355 -0.0550 0.4706
H26 H -0.0599 -0.0116 0.4190
N1A N -0.0712(4) 0.5714(4) 0.2515(4)
N2A N -0.0695(4) 0.4306(4) 0.2503(4)
N5A N -0.3841(5) 0.4992(5) 0.2493(5)
C1A C -0.0446(7) 0.8500(7) 0.2149(7)
H1A H -0.0762 0.8732 0.1907
C2A C -0.0454(7) 0.7813(6) 0.2133(6)
H2A H -0.0763 0.7595 0.1877
C5A C -0.0613(6) 0.6389(5) 0.2549(5)
C6A C -0.1214(6) 0.6707(7) 0.2623(6)
H3A H -0.1269 0.7159 0.2674
C7A C -0.1692(6) 0.6242(6) 0.2605(6)
H4A H -0.2143 0.6312 0.2628
C8A C -0.1382(6) 0.5625(6) 0.2547(5)
C9A C -0.1698(5) 0.5007(6) 0.2526(6)
C10A C -0.1386(6) 0.4398(6) 0.2508(6)
C11A C -0.1702(6) 0.3759(6) 0.2493(6)
H5A H -0.2160 0.3682 0.2474
C12A C -0.1236(6) 0.3303(6) 0.2511(6)
H6A H -0.1306 0.2848 0.2519
C13A C -0.0612(5) 0.3620(5) 0.2516(5)
C16A C 0.0047(7) 0.2205(6) 0.2038(6)
H7A H 0.0076 0.2429 0.1716
C17A C 0.0052(7) 0.1509(6) 0.2056(6)
H8A H 0.0094 0.1277 0.1740
C18A C -0.3561(7) 0.4736(8) 0.2078(7)
H9A H -0.3842 0.4547 0.1786
C19A C -0.2883(7) 0.4743(7) 0.2071(7)
H10A H -0.2712 0.4580 0.1771
C20A C -0.2445(6) 0.4998(6) 0.2521(6)
C21A C -0.2726(6) 0.5248(7) 0.2937(6)
H11A H -0.2454 0.5422 0.3240
C22A C -0.3424(6) 0.5247(7) 0.2912(7)
H12A H -0.3606 0.5431 0.3199
O1A O -0.0192(6) -0.0019(6) 0.1575(3)
O2A O 0.0211(6) 0.5097(5) 0.3396(4)
N6A N 0.0498(14) 0.5790(15) 0.4119(12)
N7A N -0.0358(18) -0.042(2) 0.0766(9)
C23A C 0.0106(18) 0.5593(19) 0.3649(15)
H13A H -0.0264 0.5852 0.3513
C24A C 0.045(2) 0.649(2) 0.4309(19)
H14A H 0.0009 0.6660 0.4188
H15A H 0.0775 0.6760 0.4160
H16A H 0.0547 0.6507 0.4699
C25A C 0.1062(19) 0.540(2) 0.4372(15)
H17A H 0.0980 0.4941 0.4285
H18A H 0.1120 0.5457 0.4759
H19A H 0.1462 0.5541 0.4239
C26A C -0.049(3) -0.040(2) 0.1289(11)
H20A H -0.0801 -0.0679 0.1407
C27A C -0.077(3) -0.056(6) 0.0241(13)
H21A H -0.1229 -0.0620 0.0292
H22A H -0.0608 -0.0948 0.0087
H23A H -0.0744 -0.0188 0.0000
C28A C 0.023(3) -0.020(4) 0.0525(19)
H24A H 0.0122 0.0190 0.0314
H25A H 0.0355 -0.0550 0.0294
H26A H 0.0599 -0.0116 0.0810
Cd1_2 Cd 0.0000 1.00028(6) 0.2500
Cd1B Cd -0.5000 0.50028(6) 0.2500
Cd1B_2 Cd 0.5000 0.50028(6) 0.2500
N3_2 N 0.0000 -0.1158(7) 0.2500
N5B N -0.1159(5) -0.0008(5) 0.2507(5)
N5C N 0.1159(5) -0.0008(5) 0.2493(5)
loop_
_geom_bond_atom_site_label_1
_geom_bond_atom_site_label_2
_geom_bond_site_symmetry_1
_geom_bond_site_symmetry_2
Cd1 O1 1_555 1_555
Mn1 O2 1_555 1_555
O1 C26 1_555 1_555
O2 C23 1_555 1_555
N1 Mn1 1_555 1_555
N2 Mn1 1_555 1_555
N3 C1 1_555 1_555
N4 Cd1 1_555 1_555
N5 C18 1_555 1_555
N6 C23 1_555 1_555
N7 C26 1_555 1_555
C1 H1 1_555 1_555
C2 C1 1_555 1_555
H2 C2 1_555 1_555
C3 C2 1_555 1_555
C4 C3 1_555 1_555
C5 N1 1_555 1_555
C6 C5 1_555 1_555
H3 C6 1_555 1_555
C7 C6 1_555 1_555
H4 C7 1_555 1_555
C8 N1 1_555 1_555
C9 C8 1_555 1_555
C10 N2 1_555 1_555
C11 C10 1_555 1_555
H5 C11 1_555 1_555
C12 C11 1_555 1_555
H6 C12 1_555 1_555
C13 N2 1_555 1_555
C14 C13 1_555 1_555
C15 C14 1_555 1_555
C16 C15 1_555 1_555
H7 C16 1_555 1_555
C17 N4 1_555 1_555
H8 C17 1_555 1_555
C18 H9 1_555 1_555
C19 C18 1_555 1_555
H10 C19 1_555 1_555
C20 C9 1_555 1_555
C21 C20 1_555 1_555
H11 C21 1_555 1_555
C22 N5 1_555 1_555
H12 C22 1_555 1_555
C23 H13 1_555 1_555
C24 N6 1_555 1_555
H14 C24 1_555 1_555
H15 C24 1_555 1_555
H16 C24 1_555 1_555
C25 N6 1_555 1_555
H17 C25 1_555 1_555
H18 C25 1_555 1_555
H19 C25 1_555 1_555
C26 H20 1_555 1_555
C27 N7 1_555 1_555
H21 C27 1_555 1_555
H22 C27 1_555 1_555
H23 C27 1_555 1_555
C28 N7 1_555 1_555
H24 C28 1_555 1_555
H25 C28 1_555 1_555
H26 C28 1_555 1_555
W1 O4 1_555 1_555
W2 O6 1_555 1_555
W3 O3 1_555 1_555
W4 O3 1_555 1_555
W5 O4 1_555 1_555
W6 O11 1_555 1_555
P1 O18 1_555 1_555
O5 W1 1_555 1_555
O6 W4 1_555 1_555
O7 W4 1_555 1_555
O8 W4 1_555 1_555
O9 W5 1_555 1_555
O10 W1 1_555 1_555
O11 W2 1_555 1_555
O12 W3 1_555 1_555
O13 W4 1_555 1_555
O14 W6 1_555 1_555
O15 W3 1_555 1_555
O16 W2 1_555 1_555
O17 W1 1_555 1_555
O18 W5 1_555 1_555
O19 W1 1_555 1_555
O20 W1 1_555 1_555
O21 W3 1_555 1_555
O22 W2 1_555 1_555
O23 W3 1_555 1_555
O24 W5 1_555 1_555
N1A Mn1 1_555 1_555
N2A Mn1 1_555 1_555
N5A C18A 1_555 1_555
C1A N3 1_555 1_555
H1A C1A 1_555 1_555
C2A C3 1_555 1_555
H2A C2A 1_555 1_555
C5A C4 1_555 1_555
C6A C5A 1_555 1_555
H3A C6A 1_555 1_555
C7A C6A 1_555 1_555
H4A C7A 1_555 1_555
C8A N1A 1_555 1_555
C9A C8A 1_555 1_555
C10A N2A 1_555 1_555
C11A C10A 1_555 1_555
H5A C11A 1_555 1_555
C12A C11A 1_555 1_555
H6A C12A 1_555 1_555
C13A C14 1_555 1_555
C16A C15 1_555 1_555
H7A C16A 1_555 1_555
C17A N4 1_555 1_555
H8A C17A 1_555 1_555
C18A H9A 1_555 1_555
C19A C18A 1_555 1_555
H10A C19A 1_555 1_555
C20A C9A 1_555 1_555
C21A C20A 1_555 1_555
H11A C21A 1_555 1_555
C22A N5A 1_555 1_555
H12A C22A 1_555 1_555
O1A Cd1 1_555 1_555
O2A Mn1 1_555 1_555
N6A C23A 1_555 1_555
N7A C26A 1_555 1_555
C23A O2A 1_555 1_555
H13A C23A 1_555 1_555
C24A N6A 1_555 1_555
H14A C24A 1_555 1_555
H15A C24A 1_555 1_555
H16A C24A 1_555 1_555
C25A N6A 1_555 1_555
H17A C25A 1_555 1_555
H18A C25A 1_555 1_555
H19A C25A 1_555 1_555
C26A O1A 1_555 1_555
H20A C26A 1_555 1_555
C27A N7A 1_555 1_555
H21A C27A 1_555 1_555
H22A C27A 1_555 1_555
H23A C27A 1_555 1_555
C28A N7A 1_555 1_555
H24A C28A 1_555 1_555
H25A C28A 1_555 1_555
H26A C28A 1_555 1_555
Cd1_2 N3 1_555 1_555
Cd1B N5A 1_555 1_555
Cd1B_2 N5 1_555 1_555
N3_2 Cd1 1_555 1_555
N5B Cd1 1_555 1_555
N5C Cd1 1_555 1_555
O18F W4 1_555 1_555
O19F P1 1_555 1_555
O23F P1 1_555 1_555
O24F P1 1_555 1_555
W1F O19F 1_555 1_555
W2F O19F 1_555 1_555
W3F O23F 1_555 1_555
W4F O18 1_555 1_555
W5F O8 1_555 1_555
W6F O7 1_555 1_555
O3F W3F 1_555 1_555
O4F W1F 1_555 1_555
O5F W1F 1_555 1_555
O6F W2F 1_555 1_555
O7F W6 1_555 1_555
O8F W5 1_555 1_555
O9F W5F 1_555 1_555
O10F W1F 1_555 1_555
O11F W2F 1_555 1_555
O12F W3F 1_555 1_555
O13F W4F 1_555 1_555
O14F W6F 1_555 1_555
O15F W3F 1_555 1_555
O16F W5 1_555 1_555
O17F W1F 1_555 1_555
O20F W1F 1_555 1_555
O21F W6 1_555 1_555
O22F W2F 1_555 1_555
C4 C5 1_555 1_555
C7 C8 1_555 1_555
C9 C10 1_555 1_555
C12 C13 1_555 1_555
C16 C17 1_555 1_555
C19 C20 1_555 1_555
C21 C22 1_555 1_555
W2 O19 1_555 1_555
W2 O20 1_555 1_555
W3 O5 1_555 1_555
W4 O23 1_555 1_555
W5 O15 1_555 1_555
W6 O17 1_555 1_555
P1 O19 1_555 1_555
P1 O23 1_555 1_555
P1 O24 1_555 1_555
P1 O18F 1_555 1_555
O16 W5F 1_555 1_555
O18 O24 1_555 1_555
O18 O23F 1_555 1_555
O19 O24 1_555 1_555
O21 W6F 1_555 1_555
O23 O24 1_555 1_555
O23 O18F 1_555 1_555
N1A C5A 1_555 1_555
N2A C13A 1_555 1_555
C1A C2A 1_555 1_555
C7A C8A 1_555 1_555
C9A C10A 1_555 1_555
C12A C13A 1_555 1_555
C16A C17A 1_555 1_555
C19A C20A 1_555 1_555
C21A C22A 1_555 1_555
O18F O24F 1_555 1_555
O18F W5F 1_555 1_555
O19F O24F 1_555 1_555
O23F O24F 1_555 1_555
O23F W4F 1_555 1_555
O24F W5F 1_555 1_555
W2F O16F 1_555 1_555
W2F O20F 1_555 1_555
W3F O5F 1_555 1_555
W3F O21F 1_555 1_555
W4F O3F 1_555 1_555
W4F O6F 1_555 1_555
W4F O7F 1_555 1_555
W4F O8F 1_555 1_555
W5F O4F 1_555 1_555
W5F O15F 1_555 1_555
W6F O11F 1_555 1_555
W6F O17F 1_555 1_555

#END
