
#######################################################################
#
#                 Cambridge Crystallographic Data Centre
#                                CCDC 
#
#######################################################################
#
# If this CIF has been generated from an entry in the Cambridge 
# Structural Database, then it will include bibliographic, chemical, 
# crystal, experimental, refinement or atomic coordinate data resulting 
# from the CCDC's data processing and validation procedures.
#
#######################################################################

data_COPVOU
_symmetry_cell_setting           tetragonal
_symmetry_space_group_name_H-M   'P 42/m m c'
_symmetry_Int_Tables_number      131
_space_group_name_Hall           '-P 4c 2'
loop_
_symmetry_equiv_pos_site_id
_symmetry_equiv_pos_as_xyz
1 x,y,z
2 -x,-y,z
3 -y,x,1/2+z
4 y,-x,1/2+z
5 -x,y,-z
6 x,-y,-z
7 y,x,1/2-z
8 -y,-x,1/2-z
9 -x,-y,-z
10 x,y,-z
11 y,-x,1/2-z
12 -y,x,1/2-z
13 x,-y,z
14 -x,y,z
15 -y,-x,1/2+z
16 y,x,1/2+z
_cell_length_a                   14.1159(6)
_cell_length_b                   14.1159(6)
_cell_length_c                   23.636(4)
_cell_angle_alpha                90
_cell_angle_beta                 90
_cell_angle_gamma                90
_cell_volume                     4709.68
loop_
_atom_site_label
_atom_site_type_symbol
_atom_site_fract_x
_atom_site_fract_y
_atom_site_fract_z
Cd1 Cd 1.0000 0.0000 0.2500
Mn1 Mn 0.5000 0.5000 0.2500
O12 O 0.5000 0.5000 0.3469(12)
O13 O 1.0000 0.0000 0.1502(18)
N1 N 0.6415(16) 0.5000 0.2494(10)
N2 N 0.8833(12) 0.1167(12) 0.2500
C1 C 0.790(2) 0.4533(17) 0.2485(14)
H1 H 0.8435 0.4144 0.2481
C2 C 0.6995(16) 0.4244(15) 0.2492(11)
C3 C 0.6701(13) 0.3299(13) 0.2500
C4 C 0.7490(16) 0.2510(16) 0.2500
C5 C 0.778(3) 0.209(3) 0.304(2)
H2 H 0.7522 0.2266 0.3387
C6 C 0.842(4) 0.147(4) 0.298(2)
H3 H 0.8626 0.1181 0.3313
N1G N 0.5000 0.3585(16) 0.2506(10)
C1G C 0.5467(17) 0.210(2) 0.2515(14)
H1G H 0.5856 0.1565 0.2519
C2G C 0.5756(15) 0.3005(16) 0.2508(11)
C5G C 0.791(3) 0.222(3) 0.196(2)
H2G H 0.7734 0.2478 0.1613
C6G C 0.853(4) 0.158(4) 0.202(2)
H3G H 0.8819 0.1374 0.1687
N2K N 0.8833(12) 0.8833(12) 0.2500
C1L C 0.790(2) 0.5467(17) 0.2485(14)
H1L H 0.8435 0.5856 0.2481
C2L C 0.6995(16) 0.5756(15) 0.2492(11)
C3K C 0.6701(13) 0.6701(13) 0.2500
C4K C 0.7490(16) 0.7490(16) 0.2500
C5L C 0.778(3) 0.791(3) 0.304(2)
H2L H 0.7522 0.7734 0.3387
C6L C 0.842(4) 0.853(4) 0.298(2)
H3L H 0.8626 0.8819 0.3313
N2J N 0.1167(12) 0.1167(12) 0.2500
C1J C 0.4533(17) 0.210(2) 0.2515(14)
H1J H 0.4144 0.1565 0.2519
C2J C 0.4244(15) 0.3005(16) 0.2508(11)
C3J C 0.3299(13) 0.3299(13) 0.2500
C4J C 0.2510(16) 0.2510(16) 0.2500
C5J C 0.209(3) 0.222(3) 0.196(2)
H2J H 0.2266 0.2478 0.1613
C6J C 0.147(4) 0.158(4) 0.202(2)
H3J H 0.1181 0.1374 0.1687
N1F N 0.5000 0.6415(16) 0.2506(10)
C1K C 0.5467(17) 0.790(2) 0.2515(14)
H1K H 0.5856 0.8435 0.2519
C2K C 0.5756(15) 0.6995(16) 0.2508(11)
C5K C 0.791(3) 0.778(3) 0.196(2)
H2K H 0.7734 0.7522 0.1613
C6K C 0.853(4) 0.842(4) 0.202(2)
H3K H 0.8819 0.8626 0.1687
N2A N 0.1167(12) 0.8833(12) 0.2500
C1F C 0.4533(17) 0.790(2) 0.2515(14)
H1F H 0.4144 0.8435 0.2519
C2F C 0.4244(15) 0.6995(16) 0.2508(11)
C3A C 0.3299(13) 0.6701(13) 0.2500
C4A C 0.2510(16) 0.7490(16) 0.2500
C5F C 0.209(3) 0.778(3) 0.196(2)
H2F H 0.2266 0.7522 0.1613
C6F C 0.147(4) 0.842(4) 0.202(2)
H3F H 0.1181 0.8626 0.1687
N1A N 0.3585(16) 0.5000 0.2494(10)
C1M C 0.210(2) 0.4533(17) 0.2485(14)
H1M H 0.1565 0.4144 0.2481
C2M C 0.3005(16) 0.4244(15) 0.2492(11)
C5M C 0.222(3) 0.209(3) 0.304(2)
H2M H 0.2478 0.2266 0.3387
C6M C 0.158(4) 0.147(4) 0.298(2)
H3M H 0.1374 0.1181 0.3313
C1A C 0.210(2) 0.5467(17) 0.2485(14)
H1A H 0.1565 0.5856 0.2481
C2A C 0.3005(16) 0.5756(15) 0.2492(11)
C5A C 0.222(3) 0.791(3) 0.304(2)
H2A H 0.2478 0.7734 0.3387
C6A C 0.158(4) 0.853(4) 0.298(2)
H3A H 0.1374 0.8819 0.3313
O12F O 0.5000 0.5000 0.1531(12)
O13F O 1.0000 0.0000 0.3498(18)
Cd1_2 Cd 0.0000 0.0000 0.2500
Cd1_3 Cd 0.0000 1.0000 0.2500
Cd1_4 Cd 1.0000 1.0000 0.2500
N2A_2 N 1.1167(12) -0.1167(12) 0.2500
N2J_2 N 1.1167(12) 0.1167(12) 0.2500
N2K_2 N 0.8833(12) -0.1167(12) 0.2500
W1 W 0.96429(19) 0.2841(2) 0.42573(13)
W2 W 0.8181(4) 0.3220(4) 0.5000
O1 O 1.0000 0.3918(7) 0.5000
O2 O 1.0000 0.3824(19) 0.3686(11)
O3 O 1.067(2) 0.257(2) 0.5000
O4 O 1.0000 0.2105(7) 0.3781(5)
W3 W 0.78348(15) 0.46198(18) 0.42515(11)
O5 O 0.759(3) 0.224(3) 0.5000
O6 O 0.7728(18) 0.4161(18) 0.4574(12)
P1 P 1.0000 0.5000 0.5000
W4 W 1.0000 0.5000 0.35147(10)
O7 O 0.8916(7) 0.5000 0.5000
O8 O 0.688(3) 0.434(2) 0.3946(18)
O9 O 0.871(3) 0.5000 0.3714(15)
O10 O 1.0000 0.5000 0.4353(4)
O11 O 1.0000 0.5000 0.2825(16)
O3D O 0.933(2) 0.257(2) 0.5000
W1M W 1.03571(19) 0.2841(2) 0.42573(13)
W1I W 0.96429(19) 0.2841(2) 0.57427(13)
W3I W 0.78348(15) 0.46198(18) 0.57485(11)
O6I O 0.7728(18) 0.4161(18) 0.5426(12)
W1D W 1.03571(19) 0.2841(2) 0.57427(13)
W2D W 1.1819(4) 0.3220(4) 0.5000
W3L W 0.78348(15) 0.53802(18) 0.42515(11)
O8L O 0.688(3) 0.566(2) 0.3946(18)
O6L O 0.7728(18) 0.5839(18) 0.4574(12)
O2D O 1.0000 0.3824(19) 0.6314(11)
O4D O 1.0000 0.2105(7) 0.6219(5)
W3E W 0.78348(15) 0.53802(18) 0.57485(11)
O8E O 0.688(3) 0.566(2) 0.6054(18)
O6E O 0.7728(18) 0.5839(18) 0.5426(12)
O9E O 0.871(3) 0.5000 0.6286(15)
O8I O 0.688(3) 0.434(2) 0.6054(18)
O7A O 1.1084(7) 0.5000 0.5000
O1A O 1.0000 0.6082(7) 0.5000
O10D O 1.0000 0.5000 0.5647(4)
O2A O 1.0000 0.6176(19) 0.3686(11)
O9A O 1.129(3) 0.5000 0.3714(15)
W3D W 1.21652(15) 0.46198(18) 0.57485(11)
O5D O 1.241(3) 0.224(3) 0.5000
O6D O 1.2272(18) 0.4161(18) 0.5426(12)
W3M W 1.21652(15) 0.46198(18) 0.42515(11)
O6M O 1.2272(18) 0.4161(18) 0.4574(12)
W2E W 0.8181(4) 0.6780(4) 0.5000
W4D W 1.0000 0.5000 0.64853(10)
W3A W 1.21652(15) 0.53802(18) 0.42515(11)
W3H W 1.21652(15) 0.53802(18) 0.57485(11)
W1A W 1.03571(19) 0.7159(2) 0.42573(13)
W1E W 0.96429(19) 0.7159(2) 0.57427(13)
W1H W 1.03571(19) 0.7159(2) 0.57427(13)
W1L W 0.96429(19) 0.7159(2) 0.42573(13)
O8D O 1.312(3) 0.434(2) 0.6054(18)
O9D O 1.129(3) 0.5000 0.6286(15)
O8H O 1.312(3) 0.566(2) 0.6054(18)
O6H O 1.2272(18) 0.5839(18) 0.5426(12)
O8A O 1.312(3) 0.566(2) 0.3946(18)
O6A O 1.2272(18) 0.5839(18) 0.4574(12)
O8M O 1.312(3) 0.434(2) 0.3946(18)
O3A O 0.933(2) 0.743(2) 0.5000
O5E O 0.759(3) 0.776(3) 0.5000
O11D O 1.0000 0.5000 0.7175(16)
O2E O 1.0000 0.6176(19) 0.6314(11)
W2A W 1.1819(4) 0.6780(4) 0.5000
O4A O 1.0000 0.7895(7) 0.3781(5)
O3E O 1.067(2) 0.743(2) 0.5000
O4E O 1.0000 0.7895(7) 0.6219(5)
O5A O 1.241(3) 0.776(3) 0.5000
loop_
_geom_bond_atom_site_label_1
_geom_bond_atom_site_label_2
_geom_bond_site_symmetry_1
_geom_bond_site_symmetry_2
W1 W2 1_555 1_555
W2 W3 1_555 1_555
O1 W1 1_555 1_555
O2 W1 1_555 1_555
O3 W1 1_555 1_555
O4 W1 1_555 1_555
W3 O6 1_555 1_555
O5 W2 1_555 1_555
O6 W2 1_555 1_555
P1 O1 1_555 1_555
W4 O2 1_555 1_555
O7 W3 1_555 1_555
O8 W3 1_555 1_555
O9 W3 1_555 1_555
O10 P1 1_555 1_555
O11 W4 1_555 1_555
Cd1 O13 1_555 1_555
Mn1 O12 1_555 1_555
N1 Mn1 1_555 1_555
N2 Cd1 1_555 1_555
C1 H1 1_555 1_555
C2 N1 1_555 1_555
C3 C2 1_555 1_555
C4 C3 1_555 1_555
C5 C4 1_555 1_555
H2 C5 1_555 1_555
C6 N2 1_555 1_555
H3 C6 1_555 1_555
O3D W1 1_555 1_555
W1M W1 1_555 1_555
W1I W2 1_555 1_555
W3I W2 1_555 1_555
O6I W2 1_555 1_555
W1D O1 1_555 1_555
W2D O3 1_555 1_555
W3L W3 1_555 1_555
O8L W3 1_555 1_555
O6L W3 1_555 1_555
O2D W1I 1_555 1_555
O4D W1I 1_555 1_555
W3E O7 1_555 1_555
O8E W3I 1_555 1_555
O6E W3I 1_555 1_555
O9E W3I 1_555 1_555
O8I W3I 1_555 1_555
O7A P1 1_555 1_555
O1A P1 1_555 1_555
O10D P1 1_555 1_555
O2A W4 1_555 1_555
O9A W4 1_555 1_555
W3D W2D 1_555 1_555
O5D W2D 1_555 1_555
O6D W2D 1_555 1_555
W3M W2D 1_555 1_555
O6M W2D 1_555 1_555
W2E W3L 1_555 1_555
W4D O2D 1_555 1_555
W3A O7A 1_555 1_555
W3H O7A 1_555 1_555
W1A O1A 1_555 1_555
W1E O1A 1_555 1_555
W1H O1A 1_555 1_555
W1L O1A 1_555 1_555
O8D W3D 1_555 1_555
O9D W3D 1_555 1_555
O8H W3D 1_555 1_555
O6H W3D 1_555 1_555
O8A W3M 1_555 1_555
O6A W3M 1_555 1_555
O8M W3M 1_555 1_555
O3A W2E 1_555 1_555
O5E W2E 1_555 1_555
O11D W4D 1_555 1_555
O2E W4D 1_555 1_555
W2A W3A 1_555 1_555
O4A W1A 1_555 1_555
O3E W1A 1_555 1_555
O4E W1E 1_555 1_555
O5A W2A 1_555 1_555
N1G Mn1 1_555 1_555
C1G H1G 1_555 1_555
C2G C3 1_555 1_555
C5G C4 1_555 1_555
H2G C5G 1_555 1_555
C6G N2 1_555 1_555
H3G C6G 1_555 1_555
N2K C6L 1_555 1_555
C1L C1 1_555 1_555
H1L C1L 1_555 1_555
C2L N1 1_555 1_555
C3K C2L 1_555 1_555
C4K C3K 1_555 1_555
C5L C4K 1_555 1_555
H2L C5L 1_555 1_555
C6L C5L 1_555 1_555
H3L C6L 1_555 1_555
N2J C6J 1_555 1_555
C1J C1G 1_555 1_555
H1J C1J 1_555 1_555
C2J N1G 1_555 1_555
C3J C2J 1_555 1_555
C4J C3J 1_555 1_555
C5J C4J 1_555 1_555
H2J C5J 1_555 1_555
C6J C5J 1_555 1_555
H3J C6J 1_555 1_555
N1F Mn1 1_555 1_555
C1K H1K 1_555 1_555
C2K C3K 1_555 1_555
C5K C4K 1_555 1_555
H2K C5K 1_555 1_555
C6K N2K 1_555 1_555
H3K C6K 1_555 1_555
N2A C6F 1_555 1_555
C1F C1K 1_555 1_555
H1F C1F 1_555 1_555
C2F N1F 1_555 1_555
C3A C2F 1_555 1_555
C4A C3A 1_555 1_555
C5F C4A 1_555 1_555
H2F C5F 1_555 1_555
C6F C5F 1_555 1_555
H3F C6F 1_555 1_555
N1A Mn1 1_555 1_555
C1M H1M 1_555 1_555
C2M C3J 1_555 1_555
C5M C4J 1_555 1_555
H2M C5M 1_555 1_555
C6M N2J 1_555 1_555
H3M C6M 1_555 1_555
C1A C1M 1_555 1_555
H1A C1A 1_555 1_555
C2A C3A 1_555 1_555
C5A C4A 1_555 1_555
H2A C5A 1_555 1_555
C6A N2A 1_555 1_555
H3A C6A 1_555 1_555
O12F Mn1 1_555 1_555
O13F Cd1 1_555 1_555
Cd1_2 N2J 1_555 1_555
Cd1_3 N2A 1_555 1_555
Cd1_4 N2K 1_555 1_555
N2A_2 Cd1 1_555 1_555
N2J_2 Cd1 1_555 1_555
N2K_2 Cd1 1_555 1_555
W2 O3D 1_555 1_555
O1 W1M 1_555 1_555
O1 W1I 1_555 1_555
O2 W1M 1_555 1_555
O3 W1M 1_555 1_555
O3 W1I 1_555 1_555
O3 W1D 1_555 1_555
O4 W1M 1_555 1_555
O6 W3L 1_555 1_555
P1 O7 1_555 1_555
W4 O9 1_555 1_555
W4 O10 1_555 1_555
O7 W3I 1_555 1_555
O7 W3L 1_555 1_555
O8 W3L 1_555 1_555
O9 W3L 1_555 1_555
C1 C2 1_555 1_555
C5 C6 1_555 1_555
O3D W1M 1_555 1_555
O3D W1I 1_555 1_555
O3D W1D 1_555 1_555
W1M W2D 1_555 1_555
W1I W1D 1_555 1_555
W3I O6I 1_555 1_555
W3I W3E 1_555 1_555
O6I W3E 1_555 1_555
W1D W2D 1_555 1_555
W1D O2D 1_555 1_555
W1D O4D 1_555 1_555
W3L O8L 1_555 1_555
W3L O6L 1_555 1_555
O6L W2E 1_555 1_555
W3E O8E 1_555 1_555
W3E O6E 1_555 1_555
W3E O9E 1_555 1_555
W3E O8I 1_555 1_555
W3E W2E 1_555 1_555
O6E W2E 1_555 1_555
O9E W4D 1_555 1_555
O7A W3D 1_555 1_555
O7A W3M 1_555 1_555
O10D W4D 1_555 1_555
O2A W1A 1_555 1_555
O2A W1L 1_555 1_555
O9A W3M 1_555 1_555
O9A W3A 1_555 1_555
W3D O6D 1_555 1_555
W3D W3H 1_555 1_555
O6D W3H 1_555 1_555
W3M O6M 1_555 1_555
W3M W3A 1_555 1_555
O6M W3A 1_555 1_555
W2E W1E 1_555 1_555
W2E W1L 1_555 1_555
W4D O9D 1_555 1_555
W3A O8A 1_555 1_555
W3A O6A 1_555 1_555
W3A O8M 1_555 1_555
W3H O8D 1_555 1_555
W3H O9D 1_555 1_555
W3H O8H 1_555 1_555
W3H O6H 1_555 1_555
W3H W2A 1_555 1_555
W1A W1L 1_555 1_555
W1A O3A 1_555 1_555
W1A W2A 1_555 1_555
W1E W1H 1_555 1_555
W1E O3A 1_555 1_555
W1E O2E 1_555 1_555
W1E O3E 1_555 1_555
W1H O3A 1_555 1_555
W1H O2E 1_555 1_555
W1H W2A 1_555 1_555
W1H O3E 1_555 1_555
W1H O4E 1_555 1_555
W1L O3A 1_555 1_555
W1L O4A 1_555 1_555
W1L O3E 1_555 1_555
O6H W2A 1_555 1_555
O6A W2A 1_555 1_555
W2A O3E 1_555 1_555
N1G C2G 1_555 1_555
C1G C2G 1_555 1_555
C5G C6G 1_555 1_555
C1L C2L 1_555 1_555
C1J C2J 1_555 1_555
N1F C2K 1_555 1_555
C1K C2K 1_555 1_555
C5K C6K 1_555 1_555
C1F C2F 1_555 1_555
N1A C2M 1_555 1_555
N1A C2A 1_555 1_555
C1M C2M 1_555 1_555
C5M C6M 1_555 1_555
C1A C2A 1_555 1_555
C5A C6A 1_555 1_555

#END
