
#######################################################################
#
#                 Cambridge Crystallographic Data Centre
#                                CCDC 
#
#######################################################################
#
# If this CIF has been generated from an entry in the Cambridge 
# Structural Database, then it will include bibliographic, chemical, 
# crystal, experimental, refinement or atomic coordinate data resulting 
# from the CCDC's data processing and validation procedures.
#
#######################################################################

data_COPVUA
_symmetry_cell_setting           tetragonal
_symmetry_space_group_name_H-M   'P 42/m m c'
_symmetry_Int_Tables_number      131
_space_group_name_Hall           '-P 4c 2'
loop_
_symmetry_equiv_pos_site_id
_symmetry_equiv_pos_as_xyz
1 x,y,z
2 -x,-y,z
3 -y,x,1/2+z
4 y,-x,1/2+z
5 -x,y,-z
6 x,-y,-z
7 y,x,1/2-z
8 -y,-x,1/2-z
9 -x,-y,-z
10 x,y,-z
11 y,-x,1/2-z
12 -y,x,1/2-z
13 x,-y,z
14 -x,y,z
15 -y,-x,1/2+z
16 y,x,1/2+z
_cell_length_a                   14.1967(7)
_cell_length_b                   14.1967(7)
_cell_length_c                   22.8003(18)
_cell_angle_alpha                90
_cell_angle_beta                 90
_cell_angle_gamma                90
_cell_volume                     4595.32
loop_
_atom_site_label
_atom_site_type_symbol
_atom_site_fract_x
_atom_site_fract_y
_atom_site_fract_z
W1 W 0.3753(2) 0.0000 0.13471(16)
W2 W 0.2509(3) 0.0000 0.0000
W3 W 0.3775(4) 0.2017(2) 0.0481(2)
W4 W 0.5000 0.2114(2) 0.0844(2)
P1 P 0.5000 0.0000 0.0000
O3 O 0.417(3) 0.0000 0.043(3)
O4 O 0.5000 0.1076(7) 0.0000
O5 O 0.301(4) 0.286(4) 0.064(3)
O6 O 0.1345(8) 0.0000 0.0000
O7 O 0.5000 0.300(3) 0.1307(19)
O8 O 0.297(7) 0.0000 0.084(4)
O9 O 0.327(3) 0.0000 0.199(2)
O10 O 0.404(2) 0.130(2) 0.1140(15)
O11 O 0.276(4) 0.123(4) 0.0000
O12 O 0.5000 0.0000 0.1690(18)
O13 O 0.400(16) 0.285(4) 0.0000
O3A O 0.583(3) 0.0000 0.043(3)
O4A O 0.5000 -0.1076(7) 0.0000
O3D O 0.583(3) 0.0000 -0.043(3)
O3E O 0.417(3) 0.0000 -0.043(3)
W1A W 0.6247(2) 0.0000 0.13471(16)
W2A W 0.7491(3) 0.0000 0.0000
W3A W 0.6225(4) -0.2017(2) 0.0481(2)
W4A W 0.5000 -0.2114(2) 0.0844(2)
O5A O 0.699(4) -0.286(4) 0.064(3)
O6A O 0.8655(8) 0.0000 0.0000
O7A O 0.5000 -0.300(3) 0.1307(19)
O8A O 0.703(7) 0.0000 0.084(4)
O9A O 0.673(3) 0.0000 0.199(2)
O10A O 0.596(2) -0.130(2) 0.1140(15)
O11A O 0.724(4) -0.123(4) 0.0000
O13A O 0.600(16) -0.285(4) 0.0000
W1D W 0.6247(2) 0.0000 -0.13471(16)
W3D W 0.6225(4) 0.2017(2) -0.0481(2)
W4D W 0.5000 0.2114(2) -0.0844(2)
O5D O 0.699(4) 0.286(4) -0.064(3)
O7D O 0.5000 0.300(3) -0.1307(19)
O8D O 0.703(7) 0.0000 -0.084(4)
O9D O 0.673(3) 0.0000 -0.199(2)
O10D O 0.596(2) 0.130(2) -0.1140(15)
O11D O 0.724(4) 0.123(4) 0.0000
O12D O 0.5000 0.0000 -0.1690(18)
O13D O 0.600(16) 0.285(4) 0.0000
W1E W 0.3753(2) 0.0000 -0.13471(16)
W3E W 0.3775(4) -0.2017(2) -0.0481(2)
W4E W 0.5000 -0.2114(2) -0.0844(2)
O5E O 0.301(4) -0.286(4) -0.064(3)
O7E O 0.5000 -0.300(3) -0.1307(19)
O8E O 0.297(7) 0.0000 -0.084(4)
O9E O 0.327(3) 0.0000 -0.199(2)
O10E O 0.404(2) -0.130(2) -0.1140(15)
O11E O 0.276(4) -0.123(4) 0.0000
O13E O 0.400(16) -0.285(4) 0.0000
W3H W 0.6225(4) -0.2017(2) -0.0481(2)
O5H O 0.699(4) -0.286(4) -0.064(3)
O10H O 0.596(2) -0.130(2) -0.1140(15)
W3I W 0.3775(4) 0.2017(2) -0.0481(2)
O5I O 0.301(4) 0.286(4) -0.064(3)
O10I O 0.404(2) 0.130(2) -0.1140(15)
W3L W 0.3775(4) -0.2017(2) 0.0481(2)
O5L O 0.301(4) -0.286(4) 0.064(3)
O10L O 0.404(2) -0.130(2) 0.1140(15)
W3M W 0.6225(4) 0.2017(2) 0.0481(2)
O5M O 0.699(4) 0.286(4) 0.064(3)
O10M O 0.596(2) 0.130(2) 0.1140(15)
Cd1 Cd 0.0000 0.0000 0.2500
Mn1 Mn 0.5000 0.5000 0.2500
O1 O 0.5000 0.5000 0.151(2)
O2 O 0.0000 0.0000 0.1467(18)
N1 N 0.5000 0.3583(14) 0.2557(9)
N2 N 0.1145(11) 0.1145(11) 0.2500
C1 C 0.4521(14) 0.2061(16) 0.2562(10)
H1 H 0.4134 0.1534 0.2581
C2 C 0.4223(12) 0.2998(12) 0.2528(8)
C3 C 0.3308(14) 0.3308(14) 0.2500
C4 C 0.2555(13) 0.2555(13) 0.2500
C5 C 0.218(2) 0.235(2) 0.2009(13)
H2 H 0.2371 0.2643 0.1666
C6 C 0.1394(19) 0.1599(18) 0.1991(9)
H3 H 0.1094 0.1455 0.1640
N1F N 0.3583(14) 0.5000 0.2443(9)
C1F C 0.2061(16) 0.4521(14) 0.2438(10)
H1F H 0.1534 0.4134 0.2419
C2F C 0.2998(12) 0.4223(12) 0.2472(8)
C5F C 0.235(2) 0.218(2) 0.2991(13)
H2F H 0.2643 0.2371 0.3334
C6F C 0.1599(18) 0.1394(19) 0.3009(9)
H3F H 0.1455 0.1094 0.3360
N2K N 0.8855(11) 0.1145(11) 0.2500
C1M C 0.5479(14) 0.2061(16) 0.2562(10)
H1M H 0.5866 0.1534 0.2581
C2M C 0.5777(12) 0.2998(12) 0.2528(8)
C3K C 0.6692(14) 0.3308(14) 0.2500
C4K C 0.7445(13) 0.2555(13) 0.2500
C5M C 0.782(2) 0.235(2) 0.2009(13)
H2M H 0.7629 0.2643 0.1666
C6M C 0.8606(19) 0.1599(18) 0.1991(9)
H3M H 0.8906 0.1455 0.1640
N2J N 0.1145(11) 0.8855(11) 0.2500
C1J C 0.2061(16) 0.5479(14) 0.2438(10)
H1J H 0.1534 0.5866 0.2419
C2J C 0.2998(12) 0.5777(12) 0.2472(8)
C3J C 0.3308(14) 0.6692(14) 0.2500
C4J C 0.2555(13) 0.7445(13) 0.2500
C5J C 0.235(2) 0.782(2) 0.2991(13)
H2J H 0.2643 0.7629 0.3334
C6J C 0.1599(18) 0.8606(19) 0.3009(9)
H3J H 0.1455 0.8906 0.3360
N1G N 0.6417(14) 0.5000 0.2443(9)
C1K C 0.7939(16) 0.4521(14) 0.2438(10)
H1K H 0.8466 0.4134 0.2419
C2K C 0.7002(12) 0.4223(12) 0.2472(8)
C5K C 0.765(2) 0.218(2) 0.2991(13)
H2K H 0.7357 0.2371 0.3334
C6K C 0.8401(18) 0.1394(19) 0.3009(9)
H3K H 0.8545 0.1094 0.3360
N2A N 0.8855(11) 0.8855(11) 0.2500
C1G C 0.7939(16) 0.5479(14) 0.2438(10)
H1G H 0.8466 0.5866 0.2419
C2G C 0.7002(12) 0.5777(12) 0.2472(8)
C3A C 0.6692(14) 0.6692(14) 0.2500
C4A C 0.7445(13) 0.7445(13) 0.2500
C5G C 0.765(2) 0.782(2) 0.2991(13)
H2G H 0.7357 0.7629 0.3334
C6G C 0.8401(18) 0.8606(19) 0.3009(9)
H3G H 0.8545 0.8906 0.3360
N1A N 0.5000 0.6417(14) 0.2557(9)
C1L C 0.4521(14) 0.7939(16) 0.2562(10)
H1L H 0.4134 0.8466 0.2581
C2L C 0.4223(12) 0.7002(12) 0.2528(8)
C5L C 0.218(2) 0.765(2) 0.2009(13)
H2L H 0.2371 0.7357 0.1666
C6L C 0.1394(19) 0.8401(18) 0.1991(9)
H3L H 0.1094 0.8545 0.1640
C1A C 0.5479(14) 0.7939(16) 0.2562(10)
H1A H 0.5866 0.8466 0.2581
C2A C 0.5777(12) 0.7002(12) 0.2528(8)
C5A C 0.782(2) 0.765(2) 0.2009(13)
H2A H 0.7629 0.7357 0.1666
C6A C 0.8606(19) 0.8401(18) 0.1991(9)
H3A H 0.8906 0.8545 0.1640
O1F O 0.5000 0.5000 0.349(2)
O2F O 0.0000 0.0000 0.3533(18)
Cd1_2 Cd 0.0000 1.0000 0.2500
Cd1_3 Cd 1.0000 0.0000 0.2500
Cd1_4 Cd 1.0000 1.0000 0.2500
N2A_2 N -0.1145(11) -0.1145(11) 0.2500
N2J_2 N 0.1145(11) -0.1145(11) 0.2500
N2K_2 N -0.1145(11) 0.1145(11) 0.2500
loop_
_geom_bond_atom_site_label_1
_geom_bond_atom_site_label_2
_geom_bond_site_symmetry_1
_geom_bond_site_symmetry_2
Cd1 O2 1_555 1_555
Mn1 O1 1_555 1_555
N1 Mn1 1_555 1_555
N2 Cd1 1_555 1_555
C1 H1 1_555 1_555
C2 N1 1_555 1_555
C3 C2 1_555 1_555
C4 C3 1_555 1_555
C5 C4 1_555 1_555
H2 C5 1_555 1_555
C6 N2 1_555 1_555
H3 C6 1_555 1_555
W1 O3 1_555 1_555
W2 O6 1_555 1_555
W3 W4 1_555 1_555
W4 O4 1_555 1_555
P1 O3 1_555 1_555
O4 W3 1_555 1_555
O5 W3 1_555 1_555
O7 W4 1_555 1_555
O8 W1 1_555 1_555
O9 W1 1_555 1_555
O10 W1 1_555 1_555
O11 W2 1_555 1_555
O12 W1 1_555 1_555
O13 W3 1_555 1_555
N1F Mn1 1_555 1_555
C1F H1F 1_555 1_555
C2F C3 1_555 1_555
C5F C4 1_555 1_555
H2F C5F 1_555 1_555
C6F N2 1_555 1_555
H3F C6F 1_555 1_555
N2K C6M 1_555 1_555
C1M C1 1_555 1_555
H1M C1M 1_555 1_555
C2M N1 1_555 1_555
C3K C2M 1_555 1_555
C4K C3K 1_555 1_555
C5M C4K 1_555 1_555
H2M C5M 1_555 1_555
C6M C5M 1_555 1_555
H3M C6M 1_555 1_555
N2J C6J 1_555 1_555
C1J C1F 1_555 1_555
H1J C1J 1_555 1_555
C2J N1F 1_555 1_555
C3J C2J 1_555 1_555
C4J C3J 1_555 1_555
C5J C4J 1_555 1_555
H2J C5J 1_555 1_555
C6J C5J 1_555 1_555
H3J C6J 1_555 1_555
N1G Mn1 1_555 1_555
C1K H1K 1_555 1_555
C2K C3K 1_555 1_555
C5K C4K 1_555 1_555
H2K C5K 1_555 1_555
C6K N2K 1_555 1_555
H3K C6K 1_555 1_555
N2A C6G 1_555 1_555
C1G C1K 1_555 1_555
H1G C1G 1_555 1_555
C2G N1G 1_555 1_555
C3A C2G 1_555 1_555
C4A C3A 1_555 1_555
C5G C4A 1_555 1_555
H2G C5G 1_555 1_555
C6G C5G 1_555 1_555
H3G C6G 1_555 1_555
N1A Mn1 1_555 1_555
C1L H1L 1_555 1_555
C2L C3J 1_555 1_555
C5L C4J 1_555 1_555
H2L C5L 1_555 1_555
C6L N2J 1_555 1_555
H3L C6L 1_555 1_555
C1A C1L 1_555 1_555
H1A C1A 1_555 1_555
C2A C3A 1_555 1_555
C5A C4A 1_555 1_555
H2A C5A 1_555 1_555
C6A N2A 1_555 1_555
H3A C6A 1_555 1_555
O1F Mn1 1_555 1_555
O2F Cd1 1_555 1_555
Cd1_2 N2J 1_555 1_555
Cd1_3 N2K 1_555 1_555
Cd1_4 N2A 1_555 1_555
N2A_2 Cd1 1_555 1_555
N2J_2 Cd1 1_555 1_555
N2K_2 Cd1 1_555 1_555
O3A P1 1_555 1_555
O4A P1 1_555 1_555
O3D P1 1_555 1_555
O3E P1 1_555 1_555
W1A O12 1_555 1_555
W2A O6A 1_555 1_555
W3A O4A 1_555 1_555
W4A O4A 1_555 1_555
O5A W3A 1_555 1_555
O7A W4A 1_555 1_555
O8A W1A 1_555 1_555
O9A W1A 1_555 1_555
O10A W1A 1_555 1_555
O11A W2A 1_555 1_555
O13A W3A 1_555 1_555
W1D O3D 1_555 1_555
W3D O4 1_555 1_555
W4D O4 1_555 1_555
O5D W3D 1_555 1_555
O7D W4D 1_555 1_555
O8D W2A 1_555 1_555
O9D W1D 1_555 1_555
O10D W1D 1_555 1_555
O11D W2A 1_555 1_555
O12D W1D 1_555 1_555
O13D W3D 1_555 1_555
W1E O3E 1_555 1_555
W3E O4A 1_555 1_555
W4E O4A 1_555 1_555
O5E W3E 1_555 1_555
O7E W4E 1_555 1_555
O8E W2 1_555 1_555
O9E W1E 1_555 1_555
O10E W1E 1_555 1_555
O11E W2 1_555 1_555
O13E W3E 1_555 1_555
W3H O4A 1_555 1_555
O5H W3H 1_555 1_555
O10H W1D 1_555 1_555
W3I W3 1_555 1_555
O5I W3I 1_555 1_555
O10I W4D 1_555 1_555
W3L O4A 1_555 1_555
O5L W3L 1_555 1_555
O10L W1 1_555 1_555
W3M W4 1_555 1_555
O5M W3M 1_555 1_555
O10M W4 1_555 1_555
C1 C2 1_555 1_555
C5 C6 1_555 1_555
W2 O8 1_555 1_555
W3 O10 1_555 1_555
W3 O11 1_555 1_555
W4 O10 1_555 1_555
P1 O4 1_555 1_555
O4 W3I 1_555 1_555
O4 W3M 1_555 1_555
O11 W3I 1_555 1_555
O13 W3I 1_555 1_555
N1F C2F 1_555 1_555
C1F C2F 1_555 1_555
C5F C6F 1_555 1_555
C1M C2M 1_555 1_555
C1J C2J 1_555 1_555
N1G C2K 1_555 1_555
C1K C2K 1_555 1_555
C5K C6K 1_555 1_555
C1G C2G 1_555 1_555
N1A C2L 1_555 1_555
N1A C2A 1_555 1_555
C1L C2L 1_555 1_555
C5L C6L 1_555 1_555
C1A C2A 1_555 1_555
C5A C6A 1_555 1_555
O3A W1A 1_555 1_555
W1A O10M 1_555 1_555
W2A O8A 1_555 1_555
W3A W4A 1_555 1_555
W3A O10A 1_555 1_555
W3A O11A 1_555 1_555
W3A W3H 1_555 1_555
W4A O10A 1_555 1_555
W4A W3L 1_555 1_555
W4A O10L 1_555 1_555
O11A W3H 1_555 1_555
O13A W3H 1_555 1_555
W1D O8D 1_555 1_555
W3D W4D 1_555 1_555
W3D O10D 1_555 1_555
W3D O11D 1_555 1_555
W3D W3M 1_555 1_555
W4D O10D 1_555 1_555
W4D W3I 1_555 1_555
O11D W3M 1_555 1_555
O12D W1E 1_555 1_555
O13D W3M 1_555 1_555
W1E O8E 1_555 1_555
W1E O10I 1_555 1_555
W3E W4E 1_555 1_555
W3E O10E 1_555 1_555
W3E O11E 1_555 1_555
W3E W3L 1_555 1_555
W4E O10E 1_555 1_555
W4E W3H 1_555 1_555
W4E O10H 1_555 1_555
O11E W3L 1_555 1_555
O13E W3L 1_555 1_555
W3H O10H 1_555 1_555
W3I O10I 1_555 1_555
W3L O10L 1_555 1_555
W3M O10M 1_555 1_555

#END
