
#######################################################################
#
#                 Cambridge Crystallographic Data Centre
#                                CCDC 
#
#######################################################################
#
# If this CIF has been generated from an entry in the Cambridge 
# Structural Database, then it will include bibliographic, chemical, 
# crystal, experimental, refinement or atomic coordinate data resulting 
# from the CCDC's data processing and validation procedures.
#
#######################################################################

data_COPWAH
_symmetry_cell_setting           triclinic
_symmetry_space_group_name_H-M   'P -1'
_symmetry_Int_Tables_number      2
_space_group_name_Hall           '-P 1'
loop_
_symmetry_equiv_pos_site_id
_symmetry_equiv_pos_as_xyz
1 x,y,z
2 -x,-y,-z
_cell_length_a                   12.0348(4)
_cell_length_b                   12.8584(4)
_cell_length_c                   13.6481(4)
_cell_angle_alpha                89.712(2)
_cell_angle_beta                 66.6440(10)
_cell_angle_gamma                75.3380(10)
_cell_volume                     1864.98
loop_
_atom_site_label
_atom_site_type_symbol
_atom_site_fract_x
_atom_site_fract_y
_atom_site_fract_z
Zn1 Zn 0.92367(4) 0.42191(3) 0.22102(3)
Zn2 Zn 0.58506(4) 0.05394(4) -0.22681(3)
O1 O 0.7185(2) 0.2500(2) 0.0159(2)
O2 O 0.7596(2) 0.7351(2) 0.45217(19)
O3 O 0.6314(3) -0.0976(3) -0.1457(3)
O4 O 0.8316(3) 0.5437(2) 0.3338(2)
N1 N 1.1050(3) 0.4320(3) 0.1486(2)
O5 O 0.9103(3) 0.3622(2) 0.0983(2)
O6 O 0.6685(3) 0.9656(2) 0.6335(2)
O7 O 0.8453(3) 0.6245(3) 0.1874(2)
N2 N 0.4018(3) 0.0526(3) -0.1551(2)
O8 O 0.7075(3) 0.1091(2) -0.2000(2)
O9 O 0.5568(3) 0.1624(3) -0.0368(3)
O10 O 0.6879(4) 0.7932(3) 0.6647(2)
N3 N 0.9362(3) 0.3001(3) 0.3156(3)
N4 N 0.5420(3) 0.1972(3) -0.3105(3)
C1 C 0.7503(4) 0.2061(3) -0.0853(3)
C2 C 0.7904(4) 0.7326(3) 0.3446(3)
C3 C 0.8164(3) 0.2886(3) 0.0107(3)
C4 C 0.6617(4) 0.1562(3) -0.1051(3)
C5 C 0.1549(4) 0.0411(4) -0.0519(4)
C6 C 0.9507(4) 0.1311(4) 0.4418(4)
C7 C 0.9056(4) 0.2713(3) -0.0895(3)
H1 H 0.9807 0.2907 -0.1134
C8 C 0.8226(3) 0.6269(3) 0.2842(3)
C9 C 0.8630(4) 0.2177(3) -0.1516(3)
H2 H 0.9048 0.1948 -0.2247
C10 C 0.1896(4) 0.1306(4) -0.0324(3)
H3 H 0.1302 0.1889 0.0156
C11 C 1.2787(4) 0.4451(4) -0.0092(4)
H4 H 1.3143 0.4421 -0.0837
C12 C 1.1620(4) 0.4285(3) 0.0423(3)
H5 H 1.1208 0.4142 0.0011
C13 C 0.2466(4) -0.0407(3) -0.1282(4)
H6 H 0.2261 -0.1009 -0.1460
C14 C 0.9556(4) 0.0446(4) 0.5116(4)
H7 H 0.8888 0.0547 0.5787
C15 C 0.3121(4) 0.1329(4) -0.0840(3)
H8 H 0.3341 0.1933 -0.0689
C16 C 0.6939(4) 0.8661(3) 0.6057(3)
C17 C 0.7509(5) 0.9018(3) 0.4066(3)
H9 H 0.7402 0.9761 0.4106
C18 C 0.7863(4) 0.8325(3) 0.3141(3)
H10 H 0.8036 0.8519 0.2449
C19 C 0.7352(4) 0.8402(3) 0.4891(3)
C20 C 1.0384(4) 0.1232(4) 0.3376(4)
H11 H 1.1038 0.0604 0.3078
C21 C 0.5353(5) 0.2967(4) -0.2786(4)
H12 H 0.5410 0.3088 -0.2139
C22 C 1.3418(4) 0.4657(4) 0.0467(5)
C23 C 0.8521(4) 0.3074(4) 0.4152(4)
H13 H 0.7873 0.3710 0.4430
C24 C 0.3684(4) -0.0327(3) -0.1777(4)
H14 H 0.4291 -0.0884 -0.2285
C25 C 0.5180(5) 0.2670(5) -0.4652(5)
H15 H 0.5131 0.2527 -0.5298
C26 C 0.0240(4) 0.0366(4) 0.0079(4)
H16 H -0.0287 0.0921 0.0622
C27 C 1.0286(4) 0.2082(4) 0.2787(3)
H17 H 1.0895 0.2019 0.2091
C28 C 0.5318(5) 0.1856(4) -0.4027(4)
H18 H 0.5342 0.1171 -0.4266
C29 C 0.8559(5) 0.2257(4) 0.4793(4)
H19 H 0.7940 0.2343 0.5487
C30 C 0.5114(4) 0.3691(5) -0.4326(5)
C31 C 1.4645(5) 0.4901(5) -0.0081(8)
H20 H 1.4860 0.4866 -0.0816
C32 C 1.2845(5) 0.4676(5) 0.1581(5)
H21 H 1.3256 0.4802 0.2001
C33 C 1.1660(4) 0.4507(5) 0.2059(4)
H22 H 1.1283 0.4525 0.2802
C34 C 0.5201(5) 0.3834(4) -0.3370(5)
H23 H 0.5159 0.4517 -0.3111
C35 C 0.4999(6) 0.4543(4) -0.5059(6)
H24 H 0.4917 0.4335 -0.5673
C36 C 0.8113(4) 0.3359(3) 0.1109(3)
O11 O 0.7201(3) 0.3476(4) 0.1956(3)
H25 H 0.651(8) -0.157(7) -0.191(7)
H26 H 0.586(5) -0.118(5) -0.091(5)
N1A N 1.8950(3) 0.5680(3) -0.1486(2)
C11A C 1.7213(4) 0.5549(4) 0.0092(4)
H4A H 1.6857 0.5579 0.0837
C12A C 1.8380(4) 0.5715(3) -0.0423(3)
H5A H 1.8792 0.5858 -0.0011
C22A C 1.6582(4) 0.5343(4) -0.0467(5)
C31A C 1.5355(5) 0.5099(5) 0.0081(8)
H20A H 1.5140 0.5134 0.0816
C32A C 1.7155(5) 0.5324(5) -0.1581(5)
H21A H 1.6744 0.5198 -0.2001
C33A C 1.8340(4) 0.5493(5) -0.2059(4)
H22A H 1.8717 0.5475 -0.2802
N2A N -0.4018(3) -0.0526(3) 0.1551(2)
C5A C -0.1549(4) -0.0411(4) 0.0519(4)
C10A C -0.1896(4) -0.1306(4) 0.0324(3)
H3A H -0.1302 -0.1889 -0.0156
C13A C -0.2466(4) 0.0407(3) 0.1282(4)
H6A H -0.2261 0.1009 0.1460
C15A C -0.3121(4) -0.1329(4) 0.0840(3)
H8A H -0.3341 -0.1933 0.0689
C24A C -0.3684(4) 0.0327(3) 0.1777(4)
H14A H -0.4291 0.0884 0.2285
C26A C -0.0240(4) -0.0366(4) -0.0079(4)
H16A H 0.0287 -0.0921 -0.0622
N3A N 1.0638(3) -0.3001(3) 0.6844(3)
C6A C 1.0493(4) -0.1311(4) 0.5582(4)
C14A C 1.0444(4) -0.0446(4) 0.4884(4)
H7A H 1.1112 -0.0547 0.4213
C20A C 0.9616(4) -0.1232(4) 0.6624(4)
H11A H 0.8962 -0.0604 0.6922
C23A C 1.1479(4) -0.3074(4) 0.5848(4)
H13A H 1.2127 -0.3710 0.5570
C27A C 0.9714(4) -0.2082(4) 0.7213(3)
H17A H 0.9105 -0.2019 0.7909
C29A C 1.1441(5) -0.2257(4) 0.5207(4)
H19A H 1.2060 -0.2343 0.4513
N4A N 0.4580(3) 0.8028(3) -0.6895(3)
C21A C 0.4647(5) 0.7033(4) -0.7214(4)
H12A H 0.4590 0.6912 -0.7861
C25A C 0.4820(5) 0.7330(5) -0.5348(5)
H15A H 0.4869 0.7473 -0.4702
C28A C 0.4682(5) 0.8144(4) -0.5973(4)
H18A H 0.4658 0.8829 -0.5734
C30A C 0.4886(4) 0.6309(5) -0.5674(5)
C34A C 0.4799(5) 0.6166(4) -0.6630(5)
H23A H 0.4841 0.5483 -0.6889
C35A C 0.5001(6) 0.5457(4) -0.4941(6)
H24A H 0.5083 0.5665 -0.4327
Zn1A Zn -0.92367(4) -0.42191(3) -0.22102(3)
Zn2A Zn -0.58506(4) -0.05394(4) 0.22681(3)
O1A O -0.7185(2) -0.2500(2) -0.0159(2)
O2A O -0.7596(2) -0.7351(2) -0.45217(19)
O3A O -0.6314(3) 0.0976(3) 0.1457(3)
O4A O -0.8316(3) -0.5437(2) -0.3338(2)
O5A O -0.9103(3) -0.3622(2) -0.0983(2)
O6A O -0.6685(3) -0.9656(2) -0.6335(2)
O7A O -0.8453(3) -0.6245(3) -0.1874(2)
O8A O -0.7075(3) -0.1091(2) 0.2000(2)
O9A O -0.5568(3) -0.1624(3) 0.0368(3)
O10A O -0.6879(4) -0.7932(3) -0.6647(2)
C1A C -0.7503(4) -0.2061(3) 0.0853(3)
C2A C -0.7904(4) -0.7326(3) -0.3446(3)
C3A C -0.8164(3) -0.2886(3) -0.0107(3)
C4A C -0.6617(4) -0.1562(3) 0.1051(3)
C7A C -0.9056(4) -0.2713(3) 0.0895(3)
H1A H -0.9807 -0.2907 0.1134
C8A C -0.8226(3) -0.6269(3) -0.2842(3)
C9A C -0.8630(4) -0.2177(3) 0.1516(3)
H2A H -0.9048 -0.1948 0.2247
C16A C -0.6939(4) -0.8661(3) -0.6057(3)
C17A C -0.7509(5) -0.9018(3) -0.4066(3)
H9A H -0.7402 -0.9761 -0.4106
C18A C -0.7863(4) -0.8325(3) -0.3141(3)
H10A H -0.8036 -0.8519 -0.2449
C19A C -0.7352(4) -0.8402(3) -0.4891(3)
C36A C -0.8113(4) -0.3359(3) -0.1109(3)
O11A O -0.7201(3) -0.3476(4) -0.1956(3)
H25A H -0.651(8) 0.157(7) 0.191(7)
H26A H -0.586(5) 0.118(5) 0.091(5)
Zn1A_2 Zn 1.07633(4) -0.42191(3) 0.77898(3)
Zn1A_3 Zn 2.07633(4) 0.57809(3) -0.22102(3)
Zn2_2 Zn 0.58506(4) 1.05394(4) 0.77319(3)
Zn2A_2 Zn -0.58506(4) -1.05394(4) -0.77319(3)
Zn2A_3 Zn 0.41494(4) 0.94606(4) -0.77319(3)
N1A_2 N -1.1050(3) -0.4320(3) -0.1486(2)
O6_2 O 0.6685(3) -0.0344(2) -0.3665(2)
O6A_2 O -0.6685(3) 0.0344(2) 0.3665(2)
N3A_2 N -0.9362(3) -0.3001(3) -0.3156(3)
N4A_2 N -0.5420(3) -0.1972(3) 0.3105(3)
O12 O 0.4839(7) 0.3382(8) 0.2753(6)
O13 O 0.7911(12) 0.5454(7) 0.5687(6)
loop_
_geom_bond_atom_site_label_1
_geom_bond_atom_site_label_2
_geom_bond_site_symmetry_1
_geom_bond_site_symmetry_2
Zn1 O4 1_555 1_555
Zn2 O3 1_555 1_555
O1 C1 1_555 1_555
O2 C2 1_555 1_555
O3 H25 1_555 1_555
O4 C8 1_555 1_555
N1 Zn1 1_555 1_555
O5 Zn1 1_555 1_555
O6 C16 1_555 1_555
O7 C8 1_555 1_555
N2 Zn2 1_555 1_555
O8 Zn2 1_555 1_555
O9 C4 1_555 1_555
O10 C16 1_555 1_555
N3 Zn1 1_555 1_555
N4 Zn2 1_555 1_555
C1 C4 1_555 1_555
C2 C8 1_555 1_555
C3 O1 1_555 1_555
C4 O8 1_555 1_555
C5 C10 1_555 1_555
C6 C14 1_555 1_555
C7 C3 1_555 1_555
H1 C7 1_555 1_555
C9 C1 1_555 1_555
H2 C9 1_555 1_555
C10 H3 1_555 1_555
C11 H4 1_555 1_555
C12 N1 1_555 1_555
H5 C12 1_555 1_555
C13 C5 1_555 1_555
H6 C13 1_555 1_555
C14 H7 1_555 1_555
C15 N2 1_555 1_555
H8 C15 1_555 1_555
C16 C19 1_555 1_555
C17 H9 1_555 1_555
C18 C2 1_555 1_555
H10 C18 1_555 1_555
C19 O2 1_555 1_555
C20 C6 1_555 1_555
H11 C20 1_555 1_555
C21 N4 1_555 1_555
H12 C21 1_555 1_555
C22 C11 1_555 1_555
C23 N3 1_555 1_555
H13 C23 1_555 1_555
C24 N2 1_555 1_555
H14 C24 1_555 1_555
C25 H15 1_555 1_555
C26 C5 1_555 1_555
H16 C26 1_555 1_555
C27 N3 1_555 1_555
H17 C27 1_555 1_555
C28 N4 1_555 1_555
H18 C28 1_555 1_555
C29 C6 1_555 1_555
H19 C29 1_555 1_555
C30 C25 1_555 1_555
C31 C22 1_555 1_555
H20 C31 1_555 1_555
C32 C22 1_555 1_555
H21 C32 1_555 1_555
C33 N1 1_555 1_555
H22 C33 1_555 1_555
C34 C21 1_555 1_555
H23 C34 1_555 1_555
C35 C30 1_555 1_555
H24 C35 1_555 1_555
C36 O5 1_555 1_555
O11 C36 1_555 1_555
H26 O3 1_555 1_555
N1A C12A 1_555 1_555
C11A H4A 1_555 1_555
C12A C11A 1_555 1_555
H5A C12A 1_555 1_555
C22A C11A 1_555 1_555
C31A C31 1_555 1_555
H20A C31A 1_555 1_555
C32A C22A 1_555 1_555
H21A C32A 1_555 1_555
C33A N1A 1_555 1_555
H22A C33A 1_555 1_555
N2A C15A 1_555 1_555
C5A C10A 1_555 1_555
C10A H3A 1_555 1_555
C13A C5A 1_555 1_555
H6A C13A 1_555 1_555
C15A C10A 1_555 1_555
H8A C15A 1_555 1_555
C24A N2A 1_555 1_555
H14A C24A 1_555 1_555
C26A C26 1_555 1_555
H16A C26A 1_555 1_555
N3A C23A 1_555 1_555
C6A C14A 1_555 1_555
C14A C14 1_555 1_555
H7A C14A 1_555 1_555
C20A C6A 1_555 1_555
H11A C20A 1_555 1_555
C23A H13A 1_555 1_555
C27A N3A 1_555 1_555
H17A C27A 1_555 1_555
C29A C6A 1_555 1_555
H19A C29A 1_555 1_555
N4A C21A 1_555 1_555
C21A H12A 1_555 1_555
C25A H15A 1_555 1_555
C28A N4A 1_555 1_555
H18A C28A 1_555 1_555
C30A C25A 1_555 1_555
C34A C21A 1_555 1_555
H23A C34A 1_555 1_555
C35A C35 1_555 1_555
H24A C35A 1_555 1_555
Zn1A O4A 1_555 1_555
Zn2A N2A 1_555 1_555
O1A C1A 1_555 1_555
O2A C2A 1_555 1_555
O3A Zn2A 1_555 1_555
O4A C8A 1_555 1_555
O5A Zn1A 1_555 1_555
O6A C16A 1_555 1_555
O7A C8A 1_555 1_555
O8A Zn2A 1_555 1_555
O9A C4A 1_555 1_555
O10A C16A 1_555 1_555
C1A C4A 1_555 1_555
C2A C8A 1_555 1_555
C3A O1A 1_555 1_555
C4A O8A 1_555 1_555
C7A C3A 1_555 1_555
H1A C7A 1_555 1_555
C9A C1A 1_555 1_555
H2A C9A 1_555 1_555
C16A C19A 1_555 1_555
C17A H9A 1_555 1_555
C18A C2A 1_555 1_555
H10A C18A 1_555 1_555
C19A O2A 1_555 1_555
C36A O5A 1_555 1_555
O11A C36A 1_555 1_555
H25A O3A 1_555 1_555
H26A O3A 1_555 1_555
Zn1A_2 N3A 1_555 1_555
Zn1A_3 N1A 1_555 1_555
Zn2_2 O6 1_555 1_555
Zn2A_2 O6A 1_555 1_555
Zn2A_3 N4A 1_555 1_555
N1A_2 Zn1A 1_555 1_555
O6_2 Zn2 1_555 1_555
O6A_2 Zn2A 1_555 1_555
N3A_2 Zn1A 1_555 1_555
N4A_2 Zn2A 1_555 1_555
C3 C36 1_555 1_555
C7 C9 1_555 1_555
C10 C15 1_555 1_555
C11 C12 1_555 1_555
C13 C24 1_555 1_555
C17 C18 1_555 1_555
C17 C19 1_555 1_555
C20 C27 1_555 1_555
C23 C29 1_555 1_555
C25 C28 1_555 1_555
C30 C34 1_555 1_555
C32 C33 1_555 1_555
C22A C31A 1_555 1_555
C32A C33A 1_555 1_555
C5A C26A 1_555 1_555
C13A C24A 1_555 1_555
C20A C27A 1_555 1_555
C23A C29A 1_555 1_555
C25A C28A 1_555 1_555
C30A C34A 1_555 1_555
C30A C35A 1_555 1_555
C3A C36A 1_555 1_555
C7A C9A 1_555 1_555
C17A C18A 1_555 1_555
C17A C19A 1_555 1_555

#END
