
#######################################################################
#
#                 Cambridge Crystallographic Data Centre
#                                CCDC 
#
#######################################################################
#
# If this CIF has been generated from an entry in the Cambridge 
# Structural Database, then it will include bibliographic, chemical, 
# crystal, experimental, refinement or atomic coordinate data resulting 
# from the CCDC's data processing and validation procedures.
#
#######################################################################

data_COPZEO
_symmetry_cell_setting           orthorhombic
_symmetry_space_group_name_H-M   'P 21 21 21'
_symmetry_Int_Tables_number      19
_space_group_name_Hall           'P 2ac 2ab'
loop_
_symmetry_equiv_pos_site_id
_symmetry_equiv_pos_as_xyz
1 x,y,z
2 1/2-x,-y,1/2+z
3 -x,1/2+y,1/2-z
4 1/2+x,1/2-y,-z
_cell_length_a                   10.253(2)
_cell_length_b                   10.435(3)
_cell_length_c                   20.210(5)
_cell_angle_alpha                90
_cell_angle_beta                 90
_cell_angle_gamma                90
_cell_volume                     2162.27
loop_
_atom_site_label
_atom_site_type_symbol
_atom_site_fract_x
_atom_site_fract_y
_atom_site_fract_z
Fe1 Fe 0.52070(11) 0.23962(11) 0.25309(7)
Br1 Br 1.13967(11) 0.49411(12) 0.29573(8)
Br2 Br 1.00983(13) 0.49455(15) 0.45023(8)
O1 O 0.8145(7) 0.3154(8) 0.1271(4)
O2 O 0.5439(9) 0.3230(9) 0.4471(4)
N1 N 0.5474(9) -0.0658(10) 0.2630(4)
N2 N 0.5934(7) 0.2848(7) 0.3365(4)
N3 N 0.6907(7) 0.2839(7) 0.2220(4)
N4 N 0.3613(7) 0.2092(7) 0.3107(4)
N5 N 0.4917(7) 0.2054(6) 0.1557(4)
C1 C 0.5490(9) 0.0387(9) 0.2599(5)
C2 C 0.7227(9) 0.3351(8) 0.3336(5)
C3 C 0.7733(8) 0.3324(8) 0.2711(5)
C4 C 0.9031(8) 0.3769(8) 0.2617(5)
H1 H 0.9417 0.3725 0.2201
C5 C 0.9711(10) 0.4266(9) 0.3145(7)
C6 C 0.9158(10) 0.4281(10) 0.3749(6)
C7 C 0.7937(9) 0.3796(9) 0.3865(6)
H2 H 0.7598 0.3768 0.4292
C8 C 0.5164(10) 0.2857(10) 0.3901(5)
C9 C 0.3800(9) 0.2366(9) 0.3758(5)
C10 C 0.2904(12) 0.2257(11) 0.4225(6)
H3 H 0.3073 0.2490 0.4661
C11 C 0.1660(11) 0.1763(11) 0.4029(7)
H4 H 0.1006 0.1636 0.4341
C12 C 0.1450(11) 0.1483(9) 0.3390(6)
H5 H 0.0644 0.1168 0.3255
C13 C 0.2395(9) 0.1658(9) 0.2949(6)
H6 H 0.2217 0.1474 0.2508
C14 C 0.7140(10) 0.2813(9) 0.1562(5)
C15 C 0.5983(9) 0.2314(9) 0.1205(5)
C16 C 0.6014(12) 0.2110(11) 0.0530(6)
H7 H 0.6779 0.2258 0.0294
C17 C 0.4922(15) 0.1691(12) 0.0207(6)
H8 H 0.4919 0.1604 -0.0251
C18 C 0.3834(12) 0.1404(10) 0.0570(5)
H9 H 0.3095 0.1077 0.0363
C19 C 0.3838(10) 0.1604(10) 0.1252(6)
H10 H 0.3094 0.1425 0.1498
Fe1B Fe 0.47930(11) -0.26038(11) 0.24691(7)
N1B N 0.4526(9) 0.4342(10) 0.2370(4)
O3 O 0.759(3) 1.016(3) 0.4135(14)
H11 H 0.6896 0.9806 0.4216
C20 C 0.842(2) 0.929(6) 0.3746(11)
H12 H 0.8138 0.9302 0.3292
H13 H 0.8338 0.8435 0.3917
H14 H 0.9308 0.9563 0.3774
loop_
_geom_bond_atom_site_label_1
_geom_bond_atom_site_label_2
_geom_bond_site_symmetry_1
_geom_bond_site_symmetry_2
Fe1 N2 1_555 1_555
Br1 C5 1_555 1_555
Br2 C6 1_555 1_555
O1 C14 1_555 1_555
O2 C8 1_555 1_555
N1 C1 1_555 1_555
N2 C2 1_555 1_555
N3 Fe1 1_555 1_555
N4 Fe1 1_555 1_555
N5 Fe1 1_555 1_555
C1 Fe1 1_555 1_555
C2 C3 1_555 1_555
C3 N3 1_555 1_555
C4 C3 1_555 1_555
H1 C4 1_555 1_555
C5 C4 1_555 1_555
C6 C5 1_555 1_555
C7 C2 1_555 1_555
H2 C7 1_555 1_555
C8 N2 1_555 1_555
C9 N4 1_555 1_555
C10 C9 1_555 1_555
H3 C10 1_555 1_555
C11 C10 1_555 1_555
H4 C11 1_555 1_555
C12 C11 1_555 1_555
H5 C12 1_555 1_555
C13 N4 1_555 1_555
H6 C13 1_555 1_555
C14 N3 1_555 1_555
C15 N5 1_555 1_555
C16 C15 1_555 1_555
H7 C16 1_555 1_555
C17 C16 1_555 1_555
H8 C17 1_555 1_555
C18 C17 1_555 1_555
H9 C18 1_555 1_555
C19 N5 1_555 1_555
H10 C19 1_555 1_555
O3 H11 1_555 1_555
C20 O3 1_555 1_555
H12 C20 1_555 1_555
H13 C20 1_555 1_555
H14 C20 1_555 1_555
Fe1B N1 1_555 1_555
N1B Fe1 1_555 1_555
C6 C7 1_555 1_555
C8 C9 1_555 1_555
C12 C13 1_555 1_555
C14 C15 1_555 1_555
C18 C19 1_555 1_555

#END
