
#######################################################################
#
#                 Cambridge Crystallographic Data Centre
#                                CCDC 
#
#######################################################################
#
# If this CIF has been generated from an entry in the Cambridge 
# Structural Database, then it will include bibliographic, chemical, 
# crystal, experimental, refinement or atomic coordinate data resulting 
# from the CCDC's data processing and validation procedures.
#
#######################################################################

data_COPZOY
_symmetry_cell_setting           triclinic
_symmetry_space_group_name_H-M   'P -1'
_symmetry_Int_Tables_number      2
_space_group_name_Hall           '-P 1'
loop_
_symmetry_equiv_pos_site_id
_symmetry_equiv_pos_as_xyz
1 x,y,z
2 -x,-y,-z
_cell_length_a                   10.3171(7)
_cell_length_b                   11.5913(7)
_cell_length_c                   17.7730(16)
_cell_angle_alpha                102.5200(10)
_cell_angle_beta                 102.0700(10)
_cell_angle_gamma                104.9780(10)
_cell_volume                     1923.56
loop_
_atom_site_label
_atom_site_type_symbol
_atom_site_fract_x
_atom_site_fract_y
_atom_site_fract_z
Fe1 Fe -0.00367(4) 0.47850(4) 0.22989(3)
Mn1 Mn 0.48752(4) 0.45909(4) 0.20928(3)
Br1 Br 0.25133(4) 0.75628(5) 0.63924(2)
Br2 Br 0.16158(6) 0.97773(5) 0.56585(3)
Cl1 Cl 0.26635(11) -0.19657(9) 0.17367(8)
Cl2 Cl 0.63403(11) 1.05229(9) 0.12703(8)
O1 O 0.1287(3) 0.3523(2) 0.41489(15)
O2 O -0.0338(3) 0.8227(2) 0.25913(15)
O3 O 0.3669(2) 0.30607(19) 0.13598(12)
O4 O 0.5117(2) 0.52800(19) 0.12462(12)
N1 N 0.3009(3) 0.5368(3) 0.21566(17)
N2 N -0.3239(3) 0.3876(3) 0.21101(17)
N3 N 0.4494(3) 0.3930(2) 0.30133(15)
N4 N 0.6252(3) 0.6163(2) 0.29028(15)
N5 N 0.0601(3) 0.4741(2) 0.33657(15)
N6 N 0.0075(3) 0.6437(2) 0.28051(15)
N7 N 0.0028(3) 0.3030(2) 0.20550(16)
N8 N -0.0731(3) 0.5273(2) 0.13068(15)
C1 C 0.1887(3) 0.5225(3) 0.21882(18)
C2 C -0.2061(3) 0.4125(3) 0.21902(18)
C3 C 0.4098(3) 0.2765(3) 0.2961(2)
H1 H 0.4047 0.2551 0.3432
C4 C 0.3725(3) 0.1758(3) 0.2237(2)
C5 C 0.3462(3) 0.1951(3) 0.14728(19)
C6 C 0.2910(3) 0.0899(3) 0.0802(2)
H2 H 0.2698 0.1002 0.0291
C7 C 0.2675(4) -0.0285(3) 0.0885(2)
H3 H 0.2322 -0.0971 0.0431
C8 C 0.2962(4) -0.0462(3) 0.1641(2)
C9 C 0.3456(4) 0.0534(3) 0.2309(2)
H4 H 0.3617 0.0409 0.2816
C10 C 0.6582(3) 0.7206(3) 0.2742(2)
H5 H 0.7212 0.7884 0.3155
C11 C 0.6085(3) 0.7444(3) 0.1992(2)
C12 C 0.5400(3) 0.6470(3) 0.12695(19)
C13 C 0.5060(3) 0.6793(3) 0.0554(2)
H6 H 0.4643 0.6166 0.0070
C14 C 0.5332(3) 0.8016(3) 0.0553(2)
H7 H 0.5071 0.8210 0.0075
C15 C 0.5997(4) 0.8966(3) 0.1269(2)
C16 C 0.6398(4) 0.8700(3) 0.1974(2)
H8 H 0.6879 0.9343 0.2444
C17 C 0.4624(4) 0.4839(4) 0.3763(2)
H9 H 0.4275 0.4393 0.4120
H10 H 0.4036 0.5345 0.3645
C18 C 0.6074(4) 0.5676(4) 0.4188(2)
H11 H 0.6523 0.5263 0.4532
H12 H 0.6018 0.6423 0.4535
C19 C 0.7000(4) 0.6069(4) 0.3683(2)
H13 H 0.7687 0.6873 0.3983
H14 H 0.7500 0.5475 0.3583
C20 C 0.0890(3) 0.5861(3) 0.39563(19)
C21 C 0.1439(4) 0.6101(4) 0.4780(2)
H15 H 0.1640 0.5478 0.4990
C22 C 0.1683(4) 0.7268(4) 0.52823(19)
C23 C 0.1359(4) 0.8188(3) 0.4975(2)
C24 C 0.0809(3) 0.7980(3) 0.4164(2)
H16 H 0.0587 0.8607 0.3968
C25 C 0.0589(3) 0.6816(3) 0.36415(19)
C26 C 0.0812(3) 0.3688(3) 0.3504(2)
C27 C 0.0406(3) 0.2688(3) 0.2732(2)
C28 C 0.0452(4) 0.1504(3) 0.2703(3)
H17 H 0.0685 0.1286 0.3175
C29 C 0.0151(4) 0.0647(3) 0.1974(3)
H18 H 0.0168 -0.0160 0.1944
C30 C -0.0175(4) 0.1001(3) 0.1286(2)
H19 H -0.0355 0.0443 0.0785
C31 C -0.0230(4) 0.2185(3) 0.1347(2)
H20 H -0.0457 0.2414 0.0878
C32 C -0.0323(3) 0.7149(3) 0.23560(19)
C33 C -0.0818(3) 0.6446(3) 0.14876(19)
C34 C -0.1380(4) 0.6931(3) 0.0904(2)
H21 H -0.1431 0.7736 0.1046
C35 C -0.1864(4) 0.6233(4) 0.0114(2)
H22 H -0.2239 0.6554 -0.0284
C36 C -0.1781(4) 0.5050(4) -0.0072(2)
H23 H -0.2106 0.4552 -0.0602
C37 C -0.1210(4) 0.4604(3) 0.05324(19)
H24 H -0.1156 0.3800 0.0396
Mn1_2 Mn -0.51248(4) 0.45909(4) 0.20928(3)
N2_2 N 0.6761(3) 0.3876(3) 0.21101(17)
N9 N 0.5417(8) 0.8464(7) 0.5341(5)
C38 C 0.4295(7) 0.8455(6) 0.3890(4)
H25 H 0.5034 0.8841 0.3686
H26 H 0.3660 0.8931 0.3904
H27 H 0.3803 0.7623 0.3548
C39 C 0.4870(8) 0.8412(7) 0.4677(6)
loop_
_geom_bond_atom_site_label_1
_geom_bond_atom_site_label_2
_geom_bond_site_symmetry_1
_geom_bond_site_symmetry_2
Fe1 N5 1_555 1_555
Mn1 O3 1_555 1_555
Br1 C22 1_555 1_555
Br2 C23 1_555 1_555
Cl1 C8 1_555 1_555
Cl2 C15 1_555 1_555
O1 C26 1_555 1_555
O2 C32 1_555 1_555
O3 C5 1_555 1_555
O4 Mn1 1_555 1_555
N1 Mn1 1_555 1_555
N2 C2 1_555 1_555
N3 Mn1 1_555 1_555
N4 Mn1 1_555 1_555
N5 C20 1_555 1_555
N6 Fe1 1_555 1_555
N7 Fe1 1_555 1_555
N8 Fe1 1_555 1_555
C1 Fe1 1_555 1_555
C2 Fe1 1_555 1_555
C3 N3 1_555 1_555
H1 C3 1_555 1_555
C4 C3 1_555 1_555
C5 C4 1_555 1_555
C6 C5 1_555 1_555
H2 C6 1_555 1_555
C7 C6 1_555 1_555
H3 C7 1_555 1_555
C8 C7 1_555 1_555
C9 C4 1_555 1_555
H4 C9 1_555 1_555
C10 N4 1_555 1_555
H5 C10 1_555 1_555
C11 C10 1_555 1_555
C12 O4 1_555 1_555
C13 C12 1_555 1_555
H6 C13 1_555 1_555
C14 C13 1_555 1_555
H7 C14 1_555 1_555
C15 C14 1_555 1_555
C16 C11 1_555 1_555
H8 C16 1_555 1_555
C17 N3 1_555 1_555
H9 C17 1_555 1_555
H10 C17 1_555 1_555
C18 C17 1_555 1_555
H11 C18 1_555 1_555
H12 C18 1_555 1_555
C19 N4 1_555 1_555
H13 C19 1_555 1_555
H14 C19 1_555 1_555
C20 C21 1_555 1_555
C21 H15 1_555 1_555
C22 C21 1_555 1_555
C23 C22 1_555 1_555
C24 C23 1_555 1_555
H16 C24 1_555 1_555
C25 N6 1_555 1_555
C26 N5 1_555 1_555
C27 N7 1_555 1_555
C28 C27 1_555 1_555
H17 C28 1_555 1_555
C29 C28 1_555 1_555
H18 C29 1_555 1_555
C30 C29 1_555 1_555
H19 C30 1_555 1_555
C31 N7 1_555 1_555
H20 C31 1_555 1_555
C32 N6 1_555 1_555
C33 N8 1_555 1_555
C34 C33 1_555 1_555
H21 C34 1_555 1_555
C35 C34 1_555 1_555
H22 C35 1_555 1_555
C36 C35 1_555 1_555
H23 C36 1_555 1_555
C37 N8 1_555 1_555
H24 C37 1_555 1_555
N9 C39 1_555 1_555
C38 H25 1_555 1_555
H26 C38 1_555 1_555
H27 C38 1_555 1_555
C39 C38 1_555 1_555
Mn1_2 N2 1_555 1_555
N2_2 Mn1 1_555 1_555
N1 C1 1_555 1_555
C8 C9 1_555 1_555
C11 C12 1_555 1_555
C15 C16 1_555 1_555
C18 C19 1_555 1_555
C20 C25 1_555 1_555
C24 C25 1_555 1_555
C26 C27 1_555 1_555
C30 C31 1_555 1_555
C32 C33 1_555 1_555
C36 C37 1_555 1_555

#END
