
#######################################################################
#
#                 Cambridge Crystallographic Data Centre
#                                CCDC 
#
#######################################################################
#
# If this CIF has been generated from an entry in the Cambridge 
# Structural Database, then it will include bibliographic, chemical, 
# crystal, experimental, refinement or atomic coordinate data resulting 
# from the CCDC's data processing and validation procedures.
#
#######################################################################

data_COPZUE
_symmetry_cell_setting           triclinic
_symmetry_space_group_name_H-M   'P -1'
_symmetry_Int_Tables_number      2
_space_group_name_Hall           '-P 1'
loop_
_symmetry_equiv_pos_site_id
_symmetry_equiv_pos_as_xyz
1 x,y,z
2 -x,-y,-z
_cell_length_a                   10.8178(14)
_cell_length_b                   13.1598(17)
_cell_length_c                   14.3844(18)
_cell_angle_alpha                78.246(2)
_cell_angle_beta                 71.433(2)
_cell_angle_gamma                86.186(2)
_cell_volume                     1900.48
loop_
_atom_site_label
_atom_site_type_symbol
_atom_site_fract_x
_atom_site_fract_y
_atom_site_fract_z
Fe1 Fe 0.24425(5) 0.30358(4) 0.19455(4)
Cu1 Cu 0.5000 0.0000 0.0000
Cu2 Cu 0.0000 0.5000 0.5000
Br1 Br 0.63535(5) 0.12333(5) 0.49063(4)
Br2 Br 0.78277(4) 0.34407(4) 0.33923(4)
O1 O 0.1933(3) 0.0727(2) 0.4330(2)
O2 O 0.4791(3) 0.5426(2) 0.1508(2)
N1 N 0.4375(4) 0.1805(3) 0.0447(3)
N2 N 0.0466(3) 0.4237(3) 0.3449(3)
N3 N 0.2772(3) 0.2110(2) 0.3035(2)
N4 N 0.3823(3) 0.3800(2) 0.1998(2)
N5 N 0.2428(3) 0.4233(2) 0.0833(2)
N6 N 0.1009(3) 0.2018(2) 0.2225(2)
N7 N 0.3121(3) -0.0462(3) 0.0556(3)
H1 H 0.3118 -0.1148 0.0534
N8 N 0.5404(4) -0.0539(3) 0.1288(2)
H2 H 0.5542 -0.1233 0.1318
N9 N 0.0423(3) 0.3654(3) 0.5811(2)
H3 H 0.0358 0.3789 0.6421
N10 N 0.1804(3) 0.5579(3) 0.4601(2)
H4 H 0.1836 0.5838 0.5133
C1 C 0.3642(4) 0.2267(3) 0.0964(3)
C2 C 0.1150(3) 0.3817(3) 0.2860(3)
C3 C 0.3887(3) 0.2351(3) 0.3244(3)
C4 C 0.4473(3) 0.3298(3) 0.2661(3)
C5 C 0.5602(4) 0.3628(3) 0.2762(3)
H5 H 0.5968 0.4264 0.2399
C6 C 0.6182(4) 0.3014(3) 0.3401(3)
C7 C 0.5589(4) 0.2084(3) 0.4000(3)
C8 C 0.4450(4) 0.1758(3) 0.3922(3)
H6 H 0.4057 0.1144 0.4321
C9 C 0.4025(4) 0.4790(3) 0.1473(3)
C10 C 0.3203(4) 0.5020(3) 0.0802(3)
C11 C 0.3233(4) 0.5968(3) 0.0176(3)
H7 H 0.3752 0.6501 0.0182
C12 C 0.2485(5) 0.6122(4) -0.0462(3)
H8 H 0.2471 0.6763 -0.0875
C13 C 0.1768(5) 0.5311(4) -0.0471(3)
H9 H 0.1289 0.5385 -0.0916
C14 C 0.1753(4) 0.4369(4) 0.0187(3)
H10 H 0.1259 0.3823 0.0175
C15 C 0.1912(4) 0.1346(3) 0.3571(3)
C16 C 0.0883(4) 0.1309(3) 0.3078(3)
C17 C -0.0077(4) 0.0559(3) 0.3451(3)
H11 H -0.0154 0.0100 0.4050
C18 C -0.0923(4) 0.0503(4) 0.2918(4)
H12 H -0.1583 0.0008 0.3152
C19 C -0.0766(5) 0.1194(4) 0.2032(4)
H13 H -0.1303 0.1155 0.1647
C20 C 0.0189(4) 0.1947(3) 0.1713(3)
H14 H 0.0264 0.2422 0.1122
C21 C 0.6653(5) -0.0100(4) 0.1198(4)
H15 H 0.7030 -0.0518 0.1679
H16 H 0.6528 0.0600 0.1329
C22 C 0.4372(5) -0.0431(4) 0.2235(3)
H17 H 0.4230 0.0299 0.2262
H18 H 0.4664 -0.0760 0.2797
C23 C 0.3106(5) -0.0917(4) 0.2323(3)
H19 H 0.2522 -0.0943 0.2998
H20 H 0.3279 -0.1626 0.2223
C24 C 0.2421(5) -0.0363(4) 0.1599(3)
H21 H 0.1550 -0.0646 0.1792
H22 H 0.2336 0.0366 0.1639
C25 C 0.2452(4) 0.0090(4) -0.0152(4)
H23 H 0.2246 0.0794 -0.0047
H24 H 0.1644 -0.0261 -0.0048
C26 C -0.0637(5) 0.2920(3) 0.5978(4)
H25 H -0.0644 0.2354 0.6529
H26 H -0.0508 0.2632 0.5384
C27 C 0.1729(4) 0.3196(4) 0.5439(3)
H27 H 0.1809 0.2972 0.4820
H28 H 0.1825 0.2590 0.5923
C28 C 0.2812(5) 0.3966(4) 0.5255(4)
H29 H 0.2668 0.4240 0.5858
H30 H 0.3636 0.3595 0.5135
C29 C 0.2927(4) 0.4864(4) 0.4394(3)
H31 H 0.3723 0.5242 0.4262
H32 H 0.2982 0.4600 0.3799
C30 C 0.1912(5) 0.6493(4) 0.3787(4)
H33 H 0.2088 0.6271 0.3153
H34 H 0.2621 0.6935 0.3738
N7A N 0.6879(3) 0.0462(3) -0.0556(3)
H1A H 0.6882 0.1148 -0.0534
N8A N 0.4596(4) 0.0539(3) -0.1288(2)
H2A H 0.4458 0.1233 -0.1318
C21A C 0.3347(5) 0.0100(4) -0.1198(4)
H15A H 0.2970 0.0518 -0.1679
H16A H 0.3472 -0.0600 -0.1329
C22A C 0.5628(5) 0.0431(4) -0.2235(3)
H17A H 0.5770 -0.0299 -0.2262
H18A H 0.5336 0.0760 -0.2797
C23A C 0.6894(5) 0.0917(4) -0.2323(3)
H19A H 0.7478 0.0943 -0.2998
H20A H 0.6721 0.1626 -0.2223
C24A C 0.7579(5) 0.0363(4) -0.1599(3)
H21A H 0.8450 0.0646 -0.1792
H22A H 0.7664 -0.0366 -0.1639
C25A C 0.7548(4) -0.0090(4) 0.0152(4)
H23A H 0.7754 -0.0794 0.0047
H24A H 0.8356 0.0261 0.0048
N9A N -0.0423(3) 0.6346(3) 0.4189(2)
H3A H -0.0358 0.6211 0.3579
N10A N -0.1804(3) 0.4421(3) 0.5399(2)
H4A H -0.1836 0.4162 0.4867
C26A C 0.0637(5) 0.7080(3) 0.4022(4)
H25A H 0.0644 0.7646 0.3471
H26A H 0.0508 0.7368 0.4616
C27A C -0.1729(4) 0.6804(4) 0.4561(3)
H27A H -0.1809 0.7028 0.5180
H28A H -0.1825 0.7410 0.4077
C28A C -0.2812(5) 0.6034(4) 0.4745(4)
H29A H -0.2668 0.5760 0.4142
H30A H -0.3636 0.6405 0.4865
C29A C -0.2927(4) 0.5136(4) 0.5606(3)
H31A H -0.3723 0.4758 0.5738
H32A H -0.2982 0.5400 0.6201
C30A C -0.1912(5) 0.3507(4) 0.6213(4)
H33A H -0.2088 0.3729 0.6847
H34A H -0.2621 0.3065 0.6262
Fe1A Fe -0.24425(5) 0.69642(4) 0.80545(4)
Br1A Br -0.63535(5) 0.87667(5) 0.50937(4)
Br2A Br -0.78277(4) 0.65593(4) 0.66077(4)
O1A O -0.1933(3) 0.9273(2) 0.5670(2)
O2A O -0.4791(3) 0.4574(2) 0.8492(2)
N1A N -0.4375(4) 0.8195(3) 0.9553(3)
N2A N -0.0466(3) 0.5763(3) 0.6551(3)
N3A N -0.2772(3) 0.7890(2) 0.6965(2)
N4A N -0.3823(3) 0.6200(2) 0.8002(2)
N5A N -0.2428(3) 0.5767(2) 0.9167(2)
N6A N -0.1009(3) 0.7982(2) 0.7775(2)
C1A C -0.3642(4) 0.7733(3) 0.9036(3)
C2A C -0.1150(3) 0.6183(3) 0.7140(3)
C3A C -0.3887(3) 0.7649(3) 0.6756(3)
C4A C -0.4473(3) 0.6702(3) 0.7339(3)
C5A C -0.5602(4) 0.6372(3) 0.7238(3)
H5A H -0.5968 0.5736 0.7601
C6A C -0.6182(4) 0.6986(3) 0.6599(3)
C7A C -0.5589(4) 0.7916(3) 0.6000(3)
C8A C -0.4450(4) 0.8242(3) 0.6078(3)
H6A H -0.4057 0.8856 0.5679
C9A C -0.4025(4) 0.5210(3) 0.8527(3)
C10A C -0.3203(4) 0.4980(3) 0.9198(3)
C11A C -0.3233(4) 0.4032(3) 0.9824(3)
H7A H -0.3752 0.3499 0.9818
C12A C -0.2485(5) 0.3878(4) 1.0462(3)
H8A H -0.2471 0.3237 1.0875
C13A C -0.1768(5) 0.4689(4) 1.0471(3)
H9A H -0.1289 0.4615 1.0916
C14A C -0.1753(4) 0.5631(4) 0.9813(3)
H10A H -0.1259 0.6177 0.9825
C15A C -0.1912(4) 0.8654(3) 0.6429(3)
C16A C -0.0883(4) 0.8691(3) 0.6922(3)
C17A C 0.0077(4) 0.9441(3) 0.6549(3)
H11A H 0.0154 0.9900 0.5950
C18A C 0.0923(4) 0.9497(4) 0.7082(4)
H12A H 0.1583 0.9992 0.6848
C19A C 0.0766(5) 0.8806(4) 0.7968(4)
H13A H 0.1303 0.8845 0.8353
C20A C -0.0189(4) 0.8053(3) 0.8287(3)
H14A H -0.0264 0.7578 0.8878
Cu1_2 Cu -0.5000 1.0000 1.0000
N1A_2 N 0.5625(4) -0.1805(3) -0.0447(3)
Cl1 Cl 0.00099(14) 0.75225(10) 0.13741(9)
O3 O -0.0331(8) 0.6530(5) 0.1881(5)
O4 O -0.0099(8) 0.7670(6) 0.0472(4)
O5 O 0.1339(6) 0.7585(5) 0.1301(6)
O6 O -0.0700(5) 0.8241(4) 0.1945(4)
O7 O 0.5405(6) 0.7200(3) 0.1984(4)
H35 H 0.5588 0.6956 0.1476
C31 C 0.6197(8) 0.6835(6) 0.2482(7)
H36 H 0.6254 0.7311 0.2891
H37 H 0.7045 0.6744 0.2025
H38 H 0.5880 0.6178 0.2899
loop_
_geom_bond_atom_site_label_1
_geom_bond_atom_site_label_2
_geom_bond_site_symmetry_1
_geom_bond_site_symmetry_2
Fe1 N3 1_555 1_555
Cu1 N1 1_555 1_555
Cu2 N2 1_555 1_555
Br1 C7 1_555 1_555
Br2 C6 1_555 1_555
O1 C15 1_555 1_555
O2 C9 1_555 1_555
N1 C1 1_555 1_555
N2 C2 1_555 1_555
N3 C3 1_555 1_555
N4 Fe1 1_555 1_555
N5 Fe1 1_555 1_555
N6 Fe1 1_555 1_555
N7 Cu1 1_555 1_555
H1 N7 1_555 1_555
N8 Cu1 1_555 1_555
H2 N8 1_555 1_555
N9 Cu2 1_555 1_555
H3 N9 1_555 1_555
N10 Cu2 1_555 1_555
H4 N10 1_555 1_555
C1 Fe1 1_555 1_555
C2 Fe1 1_555 1_555
C3 C4 1_555 1_555
C4 N4 1_555 1_555
C5 C4 1_555 1_555
H5 C5 1_555 1_555
C6 C5 1_555 1_555
C7 C6 1_555 1_555
C8 C3 1_555 1_555
H6 C8 1_555 1_555
C9 N4 1_555 1_555
C10 N5 1_555 1_555
C11 C10 1_555 1_555
H7 C11 1_555 1_555
C12 C11 1_555 1_555
H8 C12 1_555 1_555
C13 C12 1_555 1_555
H9 C13 1_555 1_555
C14 N5 1_555 1_555
H10 C14 1_555 1_555
C15 N3 1_555 1_555
C16 N6 1_555 1_555
C17 C16 1_555 1_555
H11 C17 1_555 1_555
C18 C17 1_555 1_555
H12 C18 1_555 1_555
C19 C18 1_555 1_555
H13 C19 1_555 1_555
C20 N6 1_555 1_555
H14 C20 1_555 1_555
C21 N8 1_555 1_555
H15 C21 1_555 1_555
H16 C21 1_555 1_555
C22 N8 1_555 1_555
H17 C22 1_555 1_555
H18 C22 1_555 1_555
C23 C22 1_555 1_555
H19 C23 1_555 1_555
H20 C23 1_555 1_555
C24 N7 1_555 1_555
H21 C24 1_555 1_555
H22 C24 1_555 1_555
C25 N7 1_555 1_555
H23 C25 1_555 1_555
H24 C25 1_555 1_555
C26 N9 1_555 1_555
H25 C26 1_555 1_555
H26 C26 1_555 1_555
C27 N9 1_555 1_555
H27 C27 1_555 1_555
H28 C27 1_555 1_555
C28 C27 1_555 1_555
H29 C28 1_555 1_555
H30 C28 1_555 1_555
C29 N10 1_555 1_555
H31 C29 1_555 1_555
H32 C29 1_555 1_555
C30 N10 1_555 1_555
H33 C30 1_555 1_555
H34 C30 1_555 1_555
Cl1 O3 1_555 1_555
O4 Cl1 1_555 1_555
O5 Cl1 1_555 1_555
O6 Cl1 1_555 1_555
O7 H35 1_555 1_555
C31 O7 1_555 1_555
H36 C31 1_555 1_555
H37 C31 1_555 1_555
H38 C31 1_555 1_555
N7A Cu1 1_555 1_555
H1A N7A 1_555 1_555
N8A Cu1 1_555 1_555
H2A N8A 1_555 1_555
C21A C25 1_555 1_555
H15A C21A 1_555 1_555
H16A C21A 1_555 1_555
C22A N8A 1_555 1_555
H17A C22A 1_555 1_555
H18A C22A 1_555 1_555
C23A C22A 1_555 1_555
H19A C23A 1_555 1_555
H20A C23A 1_555 1_555
C24A N7A 1_555 1_555
H21A C24A 1_555 1_555
H22A C24A 1_555 1_555
C25A C21 1_555 1_555
H23A C25A 1_555 1_555
H24A C25A 1_555 1_555
N9A Cu2 1_555 1_555
H3A N9A 1_555 1_555
N10A Cu2 1_555 1_555
H4A N10A 1_555 1_555
C26A C30 1_555 1_555
H25A C26A 1_555 1_555
H26A C26A 1_555 1_555
C27A N9A 1_555 1_555
H27A C27A 1_555 1_555
H28A C27A 1_555 1_555
C28A C27A 1_555 1_555
H29A C28A 1_555 1_555
H30A C28A 1_555 1_555
C29A N10A 1_555 1_555
H31A C29A 1_555 1_555
H32A C29A 1_555 1_555
C30A C26 1_555 1_555
H33A C30A 1_555 1_555
H34A C30A 1_555 1_555
Fe1A N3A 1_555 1_555
Br1A C7A 1_555 1_555
Br2A C6A 1_555 1_555
O1A C15A 1_555 1_555
O2A C9A 1_555 1_555
N1A C1A 1_555 1_555
N2A Cu2 1_555 1_555
N3A C3A 1_555 1_555
N4A Fe1A 1_555 1_555
N5A Fe1A 1_555 1_555
N6A Fe1A 1_555 1_555
C1A Fe1A 1_555 1_555
C2A Fe1A 1_555 1_555
C3A C4A 1_555 1_555
C4A N4A 1_555 1_555
C5A C4A 1_555 1_555
H5A C5A 1_555 1_555
C6A C5A 1_555 1_555
C7A C6A 1_555 1_555
C8A C3A 1_555 1_555
H6A C8A 1_555 1_555
C9A N4A 1_555 1_555
C10A N5A 1_555 1_555
C11A C10A 1_555 1_555
H7A C11A 1_555 1_555
C12A C11A 1_555 1_555
H8A C12A 1_555 1_555
C13A C12A 1_555 1_555
H9A C13A 1_555 1_555
C14A N5A 1_555 1_555
H10A C14A 1_555 1_555
C15A N3A 1_555 1_555
C16A N6A 1_555 1_555
C17A C16A 1_555 1_555
H11A C17A 1_555 1_555
C18A C17A 1_555 1_555
H12A C18A 1_555 1_555
C19A C18A 1_555 1_555
H13A C19A 1_555 1_555
C20A N6A 1_555 1_555
H14A C20A 1_555 1_555
Cu1_2 N1A 1_555 1_555
N1A_2 Cu1 1_555 1_555
C7 C8 1_555 1_555
C9 C10 1_555 1_555
C13 C14 1_555 1_555
C15 C16 1_555 1_555
C19 C20 1_555 1_555
C23 C24 1_555 1_555
C28 C29 1_555 1_555
N7A C25A 1_555 1_555
N8A C21A 1_555 1_555
C23A C24A 1_555 1_555
N9A C26A 1_555 1_555
N10A C30A 1_555 1_555
C28A C29A 1_555 1_555
N2A C2A 1_555 1_555
C7A C8A 1_555 1_555
C9A C10A 1_555 1_555
C13A C14A 1_555 1_555
C15A C16A 1_555 1_555
C19A C20A 1_555 1_555

#END
