
#######################################################################
#
#                 Cambridge Crystallographic Data Centre
#                                CCDC 
#
#######################################################################
#
# If this CIF has been generated from an entry in the Cambridge 
# Structural Database, then it will include bibliographic, chemical, 
# crystal, experimental, refinement or atomic coordinate data resulting 
# from the CCDC's data processing and validation procedures.
#
#######################################################################

data_COQGAS
_symmetry_cell_setting           monoclinic
_symmetry_space_group_name_H-M   'C 2/c'
_symmetry_Int_Tables_number      15
_space_group_name_Hall           '-C 2yn'
loop_
_symmetry_equiv_pos_site_id
_symmetry_equiv_pos_as_xyz
1 x,y,z
2 -x,y,1/2-z
3 1/2+x,1/2+y,z
4 1/2-x,1/2+y,1/2-z
5 -x,-y,-z
6 x,-y,1/2+z
7 1/2-x,1/2-y,-z
8 1/2+x,1/2-y,1/2+z
_cell_length_a                   14.900(4)
_cell_length_b                   24.324(6)
_cell_length_c                   16.253(6)
_cell_angle_alpha                90
_cell_angle_beta                 113.233(4)
_cell_angle_gamma                90
_cell_volume                     5412.86
loop_
_atom_site_label
_atom_site_type_symbol
_atom_site_fract_x
_atom_site_fract_y
_atom_site_fract_z
Zn1 Zn 0.41865(3) 0.013454(19) 0.63776(4)
O1 O 0.4048(2) -0.32009(12) 0.6314(2)
O2 O 0.4768(2) -0.06168(11) 0.6429(2)
O3 O 0.3299(2) -0.06232(12) 0.6447(2)
O4 O 0.0343(2) -0.44166(12) 0.6461(2)
O5 O 0.1375(2) -0.44491(13) 0.7904(2)
N1 N 0.3320(2) 0.02875(14) 0.5067(3)
N2 N 0.0887(3) 0.00793(15) 0.1884(3)
C1 C 0.4036(3) -0.14930(17) 0.6431(3)
C2 C 0.4770(3) -0.17764(17) 0.6286(4)
H1 H 0.5285 -0.1577 0.6218
C3 C 0.4762(3) -0.23436(18) 0.6241(4)
H2 H 0.5259 -0.2535 0.6129
C4 C 0.4012(3) -0.26317(17) 0.6363(3)
C5 C 0.3270(3) -0.23553(18) 0.6511(4)
H3 H 0.2760 -0.2554 0.6588
C6 C 0.3288(3) -0.17824(18) 0.6544(3)
H4 H 0.2787 -0.1589 0.6645
C7 C 0.4022(3) -0.08827(17) 0.6442(3)
C8 C 0.3340(3) -0.34841(16) 0.6510(3)
C9 C 0.3527(3) -0.36286(19) 0.7391(4)
H5 H 0.4131 -0.3536 0.7861
C10 C 0.2820(3) -0.39078(19) 0.7568(4)
H6 H 0.2946 -0.4019 0.8164
C11 C 0.1918(3) -0.40299(15) 0.6884(3)
C12 C 0.1752(3) -0.38961(19) 0.6005(3)
H7 H 0.1151 -0.3992 0.5533
C13 C 0.2466(3) -0.3622(2) 0.5818(4)
H8 H 0.2357 -0.3529 0.5218
C14 C 0.1153(3) -0.43221(15) 0.7102(3)
C15 C 0.3690(3) 0.04884(16) 0.4498(3)
H9 H 0.4347 0.0614 0.4741
C16 C 0.3185(3) 0.05240(18) 0.3595(3)
H10 H 0.3485 0.0669 0.3223
C17 C 0.2221(3) 0.03434(17) 0.3230(3)
C18 C 0.1812(3) 0.01413(18) 0.3798(3)
H11 H 0.1154 0.0017 0.3566
C19 C 0.2371(3) 0.01222(18) 0.4707(3)
H12 H 0.2082 -0.0011 0.5095
C20 C 0.1698(3) 0.03223(18) 0.2239(3)
H13 H 0.1977 0.0494 0.1870
C21 C 0.0449(3) 0.00599(18) 0.0932(3)
C22 C 0.0002(3) -0.04431(19) 0.0541(3)
H14 H 0.0002 -0.0744 0.0914
C23 C 0.0434(3) 0.04976(18) 0.0382(3)
H15 H 0.0725 0.0837 0.0639
N1D N -0.3320(2) -0.02875(14) -0.5067(3)
N2D N -0.0887(3) -0.00793(15) -0.1884(3)
C15D C -0.3690(3) -0.04884(16) -0.4498(3)
H9D H -0.4347 -0.0614 -0.4741
C16D C -0.3185(3) -0.05240(18) -0.3595(3)
H10D H -0.3485 -0.0669 -0.3223
C17D C -0.2221(3) -0.03434(17) -0.3230(3)
C18D C -0.1812(3) -0.01413(18) -0.3798(3)
H11D H -0.1154 -0.0017 -0.3566
C19D C -0.2371(3) -0.01222(18) -0.4707(3)
H12D H -0.2082 0.0011 -0.5095
C20D C -0.1698(3) -0.03223(18) -0.2239(3)
H13D H -0.1977 -0.0494 -0.1870
C21D C -0.0449(3) -0.00599(18) -0.0932(3)
C22D C -0.0002(3) 0.04431(19) -0.0541(3)
H14D H -0.0002 0.0744 -0.0914
C23D C -0.0434(3) -0.04976(18) -0.0382(3)
H15D H -0.0725 -0.0837 -0.0639
Zn1D Zn -0.41865(3) -0.013454(19) -0.63776(4)
O1D O -0.4048(2) 0.32009(12) -0.6314(2)
O2D O -0.4768(2) 0.06168(11) -0.6429(2)
O3D O -0.3299(2) 0.06232(12) -0.6447(2)
O4D O -0.0343(2) 0.44166(12) -0.6461(2)
O5D O -0.1375(2) 0.44491(13) -0.7904(2)
C1D C -0.4036(3) 0.14930(17) -0.6431(3)
C2D C -0.4770(3) 0.17764(17) -0.6286(4)
H1D H -0.5285 0.1577 -0.6218
C3D C -0.4762(3) 0.23436(18) -0.6241(4)
H2D H -0.5259 0.2535 -0.6129
C4D C -0.4012(3) 0.26317(17) -0.6363(3)
C5D C -0.3270(3) 0.23553(18) -0.6511(4)
H3D H -0.2760 0.2554 -0.6588
C6D C -0.3288(3) 0.17824(18) -0.6544(3)
H4D H -0.2787 0.1589 -0.6645
C7D C -0.4022(3) 0.08827(17) -0.6442(3)
C8D C -0.3340(3) 0.34841(16) -0.6510(3)
C9D C -0.3527(3) 0.36286(19) -0.7391(4)
H5D H -0.4131 0.3536 -0.7861
C10D C -0.2820(3) 0.39078(19) -0.7568(4)
H6D H -0.2946 0.4019 -0.8164
C11D C -0.1918(3) 0.40299(15) -0.6884(3)
C12D C -0.1752(3) 0.38961(19) -0.6005(3)
H7D H -0.1151 0.3992 -0.5533
C13D C -0.2466(3) 0.3622(2) -0.5818(4)
H8D H -0.2357 0.3529 -0.5218
C14D C -0.1153(3) 0.43221(15) -0.7102(3)
Zn1B Zn -0.08135(3) -0.486546(19) 0.63776(4)
Zn1C Zn 0.08135(3) -0.486546(19) 0.86224(4)
Zn1F Zn 0.08135(3) 0.486546(19) -0.63776(4)
Zn1G Zn -0.08135(3) 0.486546(19) -0.86224(4)
O4B O 0.5343(2) 0.05834(12) 0.6461(2)
O4F O -0.5343(2) -0.05834(12) -0.6461(2)
O5C O 0.3625(2) 0.05509(13) 0.7096(2)
O5G O -0.3625(2) -0.05509(13) -0.7096(2)
O6 O 0.0347(13) -0.1589(7) 0.6914(12)
N3 N 0.1405(11) -0.1716(6) 0.8420(9)
C24 C 0.0601(16) -0.1482(9) 0.7728(15)
H16 H 0.0221 -0.1217 0.7889
C25 C 0.1580(14) -0.1592(8) 0.9352(9)
H17 H 0.2171 -0.1783 0.9750
H18 H 0.1021 -0.1715 0.9477
H19 H 0.1667 -0.1195 0.9452
C26 C 0.2064(16) -0.2060(9) 0.8162(16)
H20 H 0.2592 -0.2200 0.8702
H21 H 0.2342 -0.1839 0.7816
H22 H 0.1698 -0.2369 0.7797
O6A O -0.0347(13) -0.1589(7) 0.8086(12)
N3A N -0.1405(11) -0.1716(6) 0.6580(9)
C24A C -0.0601(16) -0.1482(9) 0.7272(15)
H16A H -0.0221 -0.1217 0.7111
C25A C -0.1580(14) -0.1592(8) 0.5648(9)
H17A H -0.2171 -0.1783 0.5250
H18A H -0.1021 -0.1715 0.5523
H19A H -0.1667 -0.1195 0.5548
C26A C -0.2064(16) -0.2060(9) 0.6838(16)
H20A H -0.2592 -0.2200 0.6298
H21A H -0.2342 -0.1839 0.7184
H22A H -0.1698 -0.2369 0.7203
O7? O 0.2659(13) -0.1977(6) 0.8369(11)
N4? N 0.2632(9) -0.1765(5) 0.9706(8)
C27? C 0.2188(16) -0.1812(9) 0.8848(14)
H23? H 0.1513 -0.1725 0.8564
C28? C 0.2148(14) -0.1593(8) 1.0290(12)
H24? H 0.1465 -0.1501 0.9925
H25? H 0.2482 -0.1270 1.0636
H26? H 0.2172 -0.1894 1.0700
C29? C 0.3672(12) -0.1900(13) 1.012(2)
H27? H 0.3900 -0.2003 0.9647
H28? H 0.3773 -0.2209 1.0531
H29? H 0.4040 -0.1580 1.0443
H30? H 0.4910 -0.1712 1.2580
C30? C 0.5336(12) -0.1978(7) 1.2484(14)
H31? H 0.5310 -0.2315 1.2780
H32? H 0.5993 -0.1840 1.2723
O8? O 0.3959(11) -0.1929(7) 1.0076(11)
N5? N 0.5019(11) -0.2076(6) 1.1553(10)
C31? C 0.4315(12) -0.1845(7) 1.0895(11)
H33? H 0.4009 -0.1553 1.1076
C32? C 0.5573(14) -0.2456(8) 1.1307(13)
H34? H 0.5292 -0.2500 1.0655
H35? H 0.5570 -0.2811 1.1591
H36? H 0.6246 -0.2323 1.1502
loop_
_geom_bond_atom_site_label_1
_geom_bond_atom_site_label_2
_geom_bond_site_symmetry_1
_geom_bond_site_symmetry_2
Zn1 O2 1_555 1_555
O1 C4 1_555 1_555
O2 C7 1_555 1_555
O3 Zn1 1_555 1_555
O4 C14 1_555 1_555
O5 C14 1_555 1_555
N1 Zn1 1_555 1_555
N2 C20 1_555 1_555
C1 C2 1_555 1_555
C2 H1 1_555 1_555
C3 C2 1_555 1_555
H2 C3 1_555 1_555
C4 C3 1_555 1_555
C5 C4 1_555 1_555
H3 C5 1_555 1_555
C6 C1 1_555 1_555
H4 C6 1_555 1_555
C7 O3 1_555 1_555
C8 O1 1_555 1_555
C9 C8 1_555 1_555
H5 C9 1_555 1_555
C10 C9 1_555 1_555
H6 C10 1_555 1_555
C11 C10 1_555 1_555
C12 C11 1_555 1_555
H7 C12 1_555 1_555
C13 C8 1_555 1_555
H8 C13 1_555 1_555
C14 C11 1_555 1_555
C15 N1 1_555 1_555
H9 C15 1_555 1_555
C16 C15 1_555 1_555
H10 C16 1_555 1_555
C17 C16 1_555 1_555
C18 C17 1_555 1_555
H11 C18 1_555 1_555
C19 N1 1_555 1_555
H12 C19 1_555 1_555
C20 C17 1_555 1_555
H13 C20 1_555 1_555
C21 N2 1_555 1_555
C22 C21 1_555 1_555
H14 C22 1_555 1_555
C23 C21 1_555 1_555
H15 C23 1_555 1_555
O6 C24 1_555 1_555
N3 C24 1_555 1_555
C24 H16 1_555 1_555
C25 N3 1_555 1_555
H17 C25 1_555 1_555
H18 C25 1_555 1_555
H19 C25 1_555 1_555
C26 N3 1_555 1_555
H20 C26 1_555 1_555
H21 C26 1_555 1_555
H22 C26 1_555 1_555
N1D C15D 1_555 1_555
N2D C20D 1_555 1_555
C15D H9D 1_555 1_555
C16D C15D 1_555 1_555
H10D C16D 1_555 1_555
C17D C16D 1_555 1_555
C18D C17D 1_555 1_555
H11D C18D 1_555 1_555
C19D N1D 1_555 1_555
H12D C19D 1_555 1_555
C20D C17D 1_555 1_555
H13D C20D 1_555 1_555
C21D N2D 1_555 1_555
C22D C23 1_555 1_555
H14D C22D 1_555 1_555
C23D C22 1_555 1_555
H15D C23D 1_555 1_555
Zn1D N1D 1_555 1_555
O1D C4D 1_555 1_555
O2D Zn1D 1_555 1_555
O3D Zn1D 1_555 1_555
O4D C14D 1_555 1_555
O5D C14D 1_555 1_555
C1D C2D 1_555 1_555
C2D H1D 1_555 1_555
C3D C2D 1_555 1_555
H2D C3D 1_555 1_555
C4D C3D 1_555 1_555
C5D C4D 1_555 1_555
H3D C5D 1_555 1_555
C6D C1D 1_555 1_555
H4D C6D 1_555 1_555
C7D O2D 1_555 1_555
C8D O1D 1_555 1_555
C9D C8D 1_555 1_555
H5D C9D 1_555 1_555
C10D C9D 1_555 1_555
H6D C10D 1_555 1_555
C11D C10D 1_555 1_555
C12D C11D 1_555 1_555
H7D C12D 1_555 1_555
C13D C8D 1_555 1_555
H8D C13D 1_555 1_555
C14D C11D 1_555 1_555
Zn1B O4 1_555 1_555
Zn1C O5 1_555 1_555
Zn1F O4D 1_555 1_555
Zn1G O5D 1_555 1_555
O4B Zn1 1_555 1_555
O4F Zn1D 1_555 1_555
O5C Zn1 1_555 1_555
O5G Zn1D 1_555 1_555
O6A C24A 1_555 1_555
N3A C24A 1_555 1_555
C24A H16A 1_555 1_555
C25A N3A 1_555 1_555
H17A C25A 1_555 1_555
H18A C25A 1_555 1_555
H19A C25A 1_555 1_555
C26A N3A 1_555 1_555
H20A C26A 1_555 1_555
H21A C26A 1_555 1_555
H22A C26A 1_555 1_555
C1 C7 1_555 1_555
C5 C6 1_555 1_555
C12 C13 1_555 1_555
C18 C19 1_555 1_555
C18D C19D 1_555 1_555
C21D C22D 1_555 1_555
C21D C23D 1_555 1_555
O3D C7D 1_555 1_555
C1D C7D 1_555 1_555
C5D C6D 1_555 1_555
C12D C13D 1_555 1_555

#END
