
#######################################################################
#
#                 Cambridge Crystallographic Data Centre
#                                CCDC 
#
#######################################################################
#
# If this CIF has been generated from an entry in the Cambridge 
# Structural Database, then it will include bibliographic, chemical, 
# crystal, experimental, refinement or atomic coordinate data resulting 
# from the CCDC's data processing and validation procedures.
#
#######################################################################

data_COQKIE
_symmetry_cell_setting           monoclinic
_symmetry_space_group_name_H-M   'P 21/n'
_symmetry_Int_Tables_number      14
_space_group_name_Hall           '-P 2yn'
loop_
_symmetry_equiv_pos_site_id
_symmetry_equiv_pos_as_xyz
1 x,y,z
2 1/2-x,1/2+y,1/2-z
3 -x,-y,-z
4 1/2+x,1/2-y,1/2+z
_cell_length_a                   13.526(5)
_cell_length_b                   11.743(5)
_cell_length_c                   13.885(5)
_cell_angle_alpha                90
_cell_angle_beta                 107.129(5)
_cell_angle_gamma                90
_cell_volume                     2107.61
loop_
_atom_site_label
_atom_site_type_symbol
_atom_site_fract_x
_atom_site_fract_y
_atom_site_fract_z
Mo1 Mo 0.389561(14) -0.021164(16) 0.209854(13)
Mo2 Mo 0.351977(14) 0.154496(15) 0.023100(13)
Mo3 Mo 0.625209(14) -0.051201(16) 0.198656(13)
Mo4 Mo 0.581935(13) 0.123820(15) 0.010412(13)
O1 O 0.65481(12) 0.07071(14) 0.27244(11)
O2 O 0.61975(13) 0.23614(14) 0.08819(12)
O3 O 0.24699(12) 0.21841(14) -0.05812(12)
O4 O 0.48417(11) 0.03785(12) 0.08809(11)
O5 O 0.44022(13) 0.09240(15) 0.28665(12)
O6 O 0.35782(12) -0.14491(13) 0.08400(11)
O7 O 0.40754(12) 0.26052(14) 0.10573(12)
O8 O 0.29249(12) 0.06256(14) 0.10357(11)
O9 O 0.51677(12) -0.10790(13) 0.24349(11)
O10 O 0.31390(14) -0.09060(16) 0.26816(13)
O11 O 0.44358(11) 0.17030(12) -0.06676(11)
O12 O 0.67256(11) 0.00331(13) 0.08294(10)
O13 O 0.72310(13) -0.14296(15) 0.24877(12)
N1 N 0.96283(15) -0.23926(17) 1.04428(14)
C1 C 1.06903(19) -0.1165(2) 1.00186(18)
H1 H 1.1222 -0.0650 1.0053
N2 N 0.78530(15) -0.05156(16) 0.57894(14)
C2 C 0.7617(2) 0.0434(2) 0.52373(18)
H2 H 0.8090 0.1005 0.5228
C3 C 0.98848(18) -0.12522(19) 0.81389(17)
C4 C 0.89140(18) -0.1047(2) 0.74732(17)
H3 H 0.8323 -0.1097 0.7683
N3 N 0.99673(15) -0.15608(17) 0.91572(14)
C5 C 1.0683(2) -0.0885(3) 0.6849(2)
H4 H 1.1273 -0.0825 0.6639
C6 C 1.04667(19) -0.1679(2) 1.07980(18)
H5 H 1.0825 -0.1568 1.1474
C7 C 0.6971(2) -0.1139(3) 0.5599(2)
H6 H 0.6894 -0.1844 0.5875
C8 C 0.93460(18) -0.2293(2) 0.94528(16)
H7 H 0.8792 -0.2677 0.9017
C9 C 0.6225(2) -0.0537(3) 0.4929(2)
H8 H 0.5541 -0.0767 0.4659
C10 C 0.88458(18) -0.07642(19) 0.64849(17)
N4 N 0.66329(15) 0.04636(16) 0.47089(14)
C11 C 1.07730(19) -0.1165(2) 0.78407(19)
H9 H 1.1420 -0.1292 0.8299
C12 C 0.9718(2) -0.0694(2) 0.61707(19)
H10 H 0.9660 -0.0520 0.5503
O14 O 0.57538(12) 0.29394(14) 0.27112(11)
Cu1 Cu 0.60397(2) 0.16770(2) 0.371127(18)
Mo2B Mo 0.648023(14) -0.154496(15) -0.023100(13)
Mo3B Mo 0.374791(14) 0.051201(16) -0.198656(13)
Mo4B Mo 0.418065(13) -0.123820(15) -0.010412(13)
O3C O 0.74699(12) 0.28159(14) 0.44188(12)
O4B O 0.51583(11) -0.03785(12) -0.08809(11)
O6B O 0.64218(12) 0.14491(13) -0.08400(11)
O11B O 0.55642(11) -0.17030(12) 0.06676(11)
O12B O 0.32744(11) -0.00331(13) -0.08294(10)
N1A N 0.53717(15) 0.26074(17) 0.45572(14)
Cu1A Cu 0.89603(2) -0.33230(2) 1.128873(18)
Cu1C Cu 0.10397(2) 0.33230(2) -0.128873(18)
loop_
_geom_bond_atom_site_label_1
_geom_bond_atom_site_label_2
_geom_bond_site_symmetry_1
_geom_bond_site_symmetry_2
Mo1 O4 1_555 1_555
Mo2 O3 1_555 1_555
Mo3 O1 1_555 1_555
Mo4 O2 1_555 1_555
O1 Cu1 1_555 1_555
O3 Cu1C 1_555 1_555
O4 Mo2 1_555 1_555
O5 Mo1 1_555 1_555
O6 Mo1 1_555 1_555
O7 Mo2 1_555 1_555
O8 Mo1 1_555 1_555
O9 Mo1 1_555 1_555
O10 Mo1 1_555 1_555
O11 Mo2 1_555 1_555
O12 Mo3 1_555 1_555
O13 Mo3 1_555 1_555
N1 C6 1_555 1_555
C1 H1 1_555 1_555
N2 C2 1_555 1_555
C2 H2 1_555 1_555
C3 C4 1_555 1_555
C4 H3 1_555 1_555
N3 C1 1_555 1_555
C5 H4 1_555 1_555
C6 C1 1_555 1_555
H5 C6 1_555 1_555
C7 N2 1_555 1_555
H6 C7 1_555 1_555
C8 N1 1_555 1_555
H7 C8 1_555 1_555
C9 C7 1_555 1_555
H8 C9 1_555 1_555
C10 N2 1_555 1_555
N4 C2 1_555 1_555
C11 C3 1_555 1_555
H9 C11 1_555 1_555
C12 C5 1_555 1_555
H10 C12 1_555 1_555
O14 Cu1 1_555 1_555
Cu1 O5 1_555 1_555
Mo2B O12 1_555 1_555
Mo3B O11 1_555 1_555
Mo4B O4 1_555 1_555
O3C Cu1 1_555 1_555
O4B Mo4 1_555 1_555
O6B Mo4 1_555 1_555
O11B Mo3 1_555 1_555
O12B Mo2 1_555 1_555
N1A Cu1 1_555 1_555
Cu1A N1 1_555 1_555
Mo2 O8 1_555 1_555
Mo3 O4 1_555 1_555
Mo3 O9 1_555 1_555
Mo4 O4 1_555 1_555
Mo4 O11 1_555 1_555
Mo4 O12 1_555 1_555
O6 Mo4B 1_555 1_555
C3 N3 1_555 1_555
C4 C10 1_555 1_555
N3 C8 1_555 1_555
C5 C11 1_555 1_555
C9 N4 1_555 1_555
C10 C12 1_555 1_555
N4 Cu1 1_555 1_555
Mo2B O4B 1_555 1_555
Mo2B O11B 1_555 1_555
Mo3B O4B 1_555 1_555
Mo3B O12B 1_555 1_555
Mo4B O4B 1_555 1_555
Mo4B O11B 1_555 1_555
Mo4B O12B 1_555 1_555

#END
