
#######################################################################
#
#                 Cambridge Crystallographic Data Centre
#                                CCDC 
#
#######################################################################
#
# If this CIF has been generated from an entry in the Cambridge 
# Structural Database, then it will include bibliographic, chemical, 
# crystal, experimental, refinement or atomic coordinate data resulting 
# from the CCDC's data processing and validation procedures.
#
#######################################################################

data_COQMAX
_symmetry_cell_setting           monoclinic
_symmetry_space_group_name_H-M   'P 21/c'
_symmetry_Int_Tables_number      14
_space_group_name_Hall           '-P 2ybc'
loop_
_symmetry_equiv_pos_site_id
_symmetry_equiv_pos_as_xyz
1 x,y,z
2 -x,1/2+y,1/2-z
3 -x,-y,-z
4 x,1/2-y,1/2+z
_cell_length_a                   10.1805(7)
_cell_length_b                   9.3692(7)
_cell_length_c                   10.2303(7)
_cell_angle_alpha                90
_cell_angle_beta                 107.727(1)
_cell_angle_gamma                90
_cell_volume                     929.465
loop_
_atom_site_label
_atom_site_type_symbol
_atom_site_fract_x
_atom_site_fract_y
_atom_site_fract_z
V1 V 0.50071(3) 1.07317(3) 0.75429(3)
P1 P 0.72596(5) 0.82406(5) 0.88968(5)
P2 P 1.35031(5) 0.82652(5) 0.88538(5)
O1 O 0.73524(16) 0.76852(18) 1.03666(16)
O2 O 0.66785(14) 0.97304(15) 0.86572(15)
O3 O 1.37142(15) 0.71230(15) 0.79030(15)
O4 O 0.45691(15) 0.97820(15) 0.61814(14)
O5 O 0.64934(15) 0.71559(15) 0.78429(14)
O6 O 1.38639(14) 0.97665(14) 0.85622(14)
O7 O 1.44044(15) 0.78990(17) 1.03823(15)
C1 C 0.9467(2) 0.9314(2) 0.8166(2)
C2 C 0.9013(2) 0.8261(2) 0.8887(2)
C3 C 0.9925(2) 0.7201(2) 0.9586(2)
C4 C 1.0831(2) 0.9308(2) 0.8147(2)
C5 C 1.1743(2) 0.8255(2) 0.8849(2)
C6 C 1.1282(2) 0.7196(2) 0.9570(2)
H1 H 0.889(3) 1.006(3) 0.770(3)
H2 H 0.962(3) 0.649(3) 1.012(3)
H3 H 1.111(3) 1.002(3) 0.766(3)
H4 H 1.189(3) 0.649(3) 1.005(3)
H5 H 1.442(3) 0.721(4) 1.045(3)
H6 H 0.702(4) 0.816(4) 1.077(4)
V1A V 1.49929(3) 0.57317(3) 0.74571(3)
V1A_2 V 0.49929(3) 0.57317(3) 0.74571(3)
V1_2 V 1.50071(3) 1.07317(3) 0.75429(3)
V1B V 1.49929(3) 0.92683(3) 1.24571(3)
O3A O 0.62858(15) 1.21230(15) 0.70970(15)
O5A O 0.35066(15) 1.21559(15) 0.71571(14)
O6_2 O 0.38639(14) 0.97665(14) 0.85622(14)
O7B O 0.55956(15) 1.21010(17) 0.96177(15)
H5B H 0.558(3) 1.279(4) 0.955(3)
loop_
_geom_bond_atom_site_label_1
_geom_bond_atom_site_label_2
_geom_bond_site_symmetry_1
_geom_bond_site_symmetry_2
V1 O2 1_555 1_555
P1 O1 1_555 1_555
P2 O3 1_555 1_555
O1 H6 1_555 1_555
O2 P1 1_555 1_555
O3 V1A 1_555 1_555
O4 V1 1_555 1_555
O5 P1 1_555 1_555
O6 P2 1_555 1_555
O7 P2 1_555 1_555
C1 C2 1_555 1_555
C2 P1 1_555 1_555
C3 C2 1_555 1_555
C4 C1 1_555 1_555
C5 P2 1_555 1_555
C6 C3 1_555 1_555
H1 C1 1_555 1_555
H2 C3 1_555 1_555
H3 C4 1_555 1_555
H4 C6 1_555 1_555
H5 O7 1_555 1_555
V1A_2 O5 1_555 1_555
V1_2 O6 1_555 1_555
V1B O7 1_555 1_555
O3A V1 1_555 1_555
O5A V1 1_555 1_555
O6_2 V1 1_555 1_555
O7B V1 1_555 1_555
H5B O7B 1_555 1_555
C4 C5 1_555 1_555
C5 C6 1_555 1_555

#END
