
#######################################################################
#
#                 Cambridge Crystallographic Data Centre
#                                CCDC 
#
#######################################################################
#
# If this CIF has been generated from an entry in the Cambridge 
# Structural Database, then it will include bibliographic, chemical, 
# crystal, experimental, refinement or atomic coordinate data resulting 
# from the CCDC's data processing and validation procedures.
#
#######################################################################

data_COQMEB
_symmetry_cell_setting           monoclinic
_symmetry_space_group_name_H-M   'P 21/c'
_symmetry_Int_Tables_number      14
_space_group_name_Hall           '-P 2ybc'
loop_
_symmetry_equiv_pos_site_id
_symmetry_equiv_pos_as_xyz
1 x,y,z
2 -x,1/2+y,1/2-z
3 -x,-y,-z
4 x,1/2-y,1/2+z
_cell_length_a                   14.5304(18)
_cell_length_b                   9.3432(11)
_cell_length_c                   10.2272(12)
_cell_angle_alpha                90
_cell_angle_beta                 108.144(2)
_cell_angle_gamma                90
_cell_volume                     1319.41
loop_
_atom_site_label
_atom_site_type_symbol
_atom_site_fract_x
_atom_site_fract_y
_atom_site_fract_z
V1 V 0.50006(5) 0.57356(7) 0.25520(7)
P1 P 0.39463(7) 0.32610(10) 0.38439(9)
P2 P -0.34114(7) 0.32441(11) 0.39164(10)
O1 O 0.41934(19) 0.4768(3) 0.3555(3)
O2 O 0.4692(2) 0.4785(3) 0.1184(3)
O3 O -0.39480(19) 0.2164(3) 0.2852(3)
O4 O 0.4096(2) 0.2119(3) 0.2892(3)
O5 O -0.3824(2) 0.4735(3) 0.3684(3)
O6 O -0.3348(2) 0.2669(3) 0.5388(3)
O7 O 0.4581(2) 0.2889(3) 0.5375(3)
C1 C 0.2715(3) 0.3242(4) 0.3833(4)
C2 C 0.2069(3) 0.4294(5) 0.3133(5)
C3 C 0.1115(3) 0.4300(5) 0.3151(5)
C4 C 0.0778(3) 0.3257(4) 0.3857(4)
C5 C -0.0244(3) 0.3267(4) 0.3892(4)
C6 C -0.0903(4) 0.4307(6) 0.3203(6)
C7 C -0.0581(4) 0.2259(6) 0.4616(7)
C8 C 0.1427(3) 0.2200(5) 0.4542(5)
C9 C 0.2378(3) 0.2184(5) 0.4535(5)
C10 C -0.1526(4) 0.2264(6) 0.4643(7)
C11 C -0.2183(3) 0.3285(4) 0.3926(4)
C12 C -0.1859(3) 0.4324(6) 0.3219(6)
H1 H 0.229(5) 0.498(7) 0.274(6)
H2 H 0.069(4) 0.505(6) 0.276(5)
H3 H -0.064(5) 0.511(7) 0.287(6)
H4 H -0.015(5) 0.167(8) 0.516(7)
H5 H 0.122(5) 0.153(8) 0.507(8)
H6 H 0.285(4) 0.149(6) 0.504(6)
H7 H -0.173(5) 0.161(8) 0.507(7)
H8 H -0.229(5) 0.503(8) 0.273(7)
H9 H -0.357(5) 0.302(8) 0.577(7)
H10 H 0.460(5) 0.213(8) 0.549(7)
V1A V -0.50006(5) 0.07356(7) 0.24480(7)
V1A_2 V 0.49994(5) 0.07356(7) 0.24480(7)
V1_2 V -0.49994(5) 0.57356(7) 0.25520(7)
V1B V 0.49994(5) 0.42644(7) 0.74480(7)
O3A O 0.39480(19) 0.7164(3) 0.2148(3)
O4A O 0.5904(2) 0.7119(3) 0.2108(3)
O5_2 O 0.6176(2) 0.4735(3) 0.3684(3)
O7B O 0.5419(2) 0.7111(3) 0.4625(3)
H10B H 0.540(5) 0.787(8) 0.451(7)
loop_
_geom_bond_atom_site_label_1
_geom_bond_atom_site_label_2
_geom_bond_site_symmetry_1
_geom_bond_site_symmetry_2
V1 O1 1_555 1_555
P1 O1 1_555 1_555
P2 O3 1_555 1_555
O2 V1 1_555 1_555
O3 V1A 1_555 1_555
O4 P1 1_555 1_555
O5 P2 1_555 1_555
O6 P2 1_555 1_555
O7 P1 1_555 1_555
C1 P1 1_555 1_555
C2 C1 1_555 1_555
C3 C2 1_555 1_555
C4 C3 1_555 1_555
C5 C4 1_555 1_555
C6 C5 1_555 1_555
C7 C5 1_555 1_555
C8 C4 1_555 1_555
C9 C1 1_555 1_555
C10 C7 1_555 1_555
C11 P2 1_555 1_555
C12 C6 1_555 1_555
H1 C2 1_555 1_555
H2 C3 1_555 1_555
H3 C6 1_555 1_555
H4 C7 1_555 1_555
H5 C8 1_555 1_555
H6 C9 1_555 1_555
H7 C10 1_555 1_555
H8 C12 1_555 1_555
H9 O6 1_555 1_555
H10 O7 1_555 1_555
V1A_2 O4 1_555 1_555
V1_2 O5 1_555 1_555
V1B O7 1_555 1_555
O3A V1 1_555 1_555
O4A V1 1_555 1_555
O5_2 V1 1_555 1_555
O7B V1 1_555 1_555
H10B O7B 1_555 1_555
C8 C9 1_555 1_555
C10 C11 1_555 1_555
C11 C12 1_555 1_555

#END
