
#######################################################################
#
#                 Cambridge Crystallographic Data Centre
#                                CCDC 
#
#######################################################################
#
# If this CIF has been generated from an entry in the Cambridge 
# Structural Database, then it will include bibliographic, chemical, 
# crystal, experimental, refinement or atomic coordinate data resulting 
# from the CCDC's data processing and validation procedures.
#
#######################################################################

data_COQMOL
_symmetry_cell_setting           orthorhombic
_symmetry_space_group_name_H-M   'P c a 21'
_symmetry_Int_Tables_number      29
_space_group_name_Hall           'P 2c -2ac'
loop_
_symmetry_equiv_pos_site_id
_symmetry_equiv_pos_as_xyz
1 x,y,z
2 -x,-y,1/2+z
3 1/2+x,-y,z
4 1/2-x,y,1/2+z
_cell_length_a                   20.3400(12)
_cell_length_b                   9.0486(5)
_cell_length_c                   7.4146(5)
_cell_angle_alpha                90
_cell_angle_beta                 90
_cell_angle_gamma                90
_cell_volume                     1364.65
loop_
_atom_site_label
_atom_site_type_symbol
_atom_site_fract_x
_atom_site_fract_y
_atom_site_fract_z
V1 V 0.37843(2) 0.48705(5) 0.28808(8)
V2 V 0.51233(2) 1.00106(5) 0.28448(8)
P1 P 0.40708(3) 0.79493(7) 0.07787(12)
P2 P 0.39626(3) 1.17028(8) 0.08730(11)
O1 O 0.30255(12) 0.5098(2) 0.3301(3)
O2 O 0.39321(10) 0.6300(2) 0.0905(3)
O3 O 0.44806(11) 0.8421(2) 0.2424(3)
O4 O 0.44369(11) 0.8286(2) -0.0972(3)
O5 O 0.54315(11) 1.00624(19) 0.0841(3)
O6 O 0.43925(11) 1.1385(2) 0.2526(3)
O7 O 0.37293(10) 1.3307(2) 0.0998(3)
O8 O 0.43300(11) 1.1456(2) -0.0890(3)
O9 O 0.40063(14) 0.3415(3) 0.4865(3)
O10 O 0.41876(13) 0.6318(3) 0.4622(4)
C1 C 0.33013(13) 0.8939(3) 0.0830(4)
C2 C 0.32557(14) 1.0502(3) 0.0933(4)
C3 C 0.26380(14) 1.1149(3) 0.1053(4)
H1 H 0.2603 1.2194 0.1119
C4 C 0.20729(16) 1.0301(4) 0.1077(5)
H2 H 0.1656 1.0762 0.1210
C5 C 0.21135(14) 0.8783(3) 0.0908(5)
H3 H 0.1725 0.8201 0.0877
C6 C 0.27260(14) 0.8113(3) 0.0784(5)
H4 H 0.2752 0.7069 0.0665
H7 H 0.4089(18) 0.264(4) 0.461(5)
H9 H 0.4300(19) 0.695(4) 0.427(5)
H10 H 0.4441(19) 0.613(4) 0.525(5)
H12 H 0.382(2) 0.359(6) 0.561(9)
V1_2 V 0.37843(2) 1.48705(5) 0.28808(8)
V2A V 0.48767(2) 0.99894(5) -0.21552(8)
O4A O 0.55631(11) 1.1714(2) 0.4028(3)
O5A O 0.45685(11) 0.99376(19) 0.5841(3)
O7_2 O 0.37293(10) 0.3307(2) 0.0998(3)
O8A O 0.56700(11) 0.8544(2) 0.4110(3)
O11 O 0.50311(12) 0.4380(3) 0.2520(3)
H5 H 0.523(2) 0.516(4) 0.292(8)
H6 H 0.513(2) 0.363(4) 0.305(6)
O12 O 0.33307(14) 0.4205(3) 0.7616(4)
H8 H 0.297(4) 0.458(7) 0.733(13)
H11 H 0.342(2) 0.396(6) 0.865(7)
loop_
_geom_bond_atom_site_label_1
_geom_bond_atom_site_label_2
_geom_bond_site_symmetry_1
_geom_bond_site_symmetry_2
V1 O1 1_555 1_555
V2 O3 1_555 1_555
P1 O2 1_555 1_555
P2 O6 1_555 1_555
O2 V1 1_555 1_555
O3 P1 1_555 1_555
O4 P1 1_555 1_555
O5 V2 1_555 1_555
O6 V2 1_555 1_555
O7 P2 1_555 1_555
O8 P2 1_555 1_555
O9 V1 1_555 1_555
O10 V1 1_555 1_555
O11 H5 1_555 1_555
O12 H8 1_555 1_555
C1 P1 1_555 1_555
C2 P2 1_555 1_555
C3 C2 1_555 1_555
H1 C3 1_555 1_555
C4 C3 1_555 1_555
H2 C4 1_555 1_555
C5 C4 1_555 1_555
H3 C5 1_555 1_555
C6 C1 1_555 1_555
H4 C6 1_555 1_555
H6 O11 1_555 1_555
H7 O9 1_555 1_555
H9 O10 1_555 1_555
H10 O10 1_555 1_555
H11 O12 1_555 1_555
H12 O9 1_555 1_555
V1_2 O7 1_555 1_555
V2A O4 1_555 1_555
O4A V2 1_555 1_555
O5A V2 1_555 1_555
O7_2 V1 1_555 1_555
O8A V2 1_555 1_555
O5 V2A 1_555 1_555
O8 V2A 1_555 1_555
C1 C2 1_555 1_555
C5 C6 1_555 1_555

#END
