
#######################################################################
#
#                 Cambridge Crystallographic Data Centre
#                                CCDC 
#
#######################################################################
#
# If this CIF has been generated from an entry in the Cambridge 
# Structural Database, then it will include bibliographic, chemical, 
# crystal, experimental, refinement or atomic coordinate data resulting 
# from the CCDC's data processing and validation procedures.
#
#######################################################################

data_COQMUR
_symmetry_cell_setting           orthorhombic
_symmetry_space_group_name_H-M   'P m m a'
_symmetry_Int_Tables_number      51
_space_group_name_Hall           '-P 2a 2a'
loop_
_symmetry_equiv_pos_site_id
_symmetry_equiv_pos_as_xyz
1 x,y,z
2 1/2-x,-y,z
3 -x,y,-z
4 1/2+x,-y,-z
5 -x,-y,-z
6 1/2+x,y,-z
7 x,-y,z
8 1/2-x,y,z
_cell_length_a                   7.0716(7)
_cell_length_b                   10.1515(10)
_cell_length_c                   10.0344(10)
_cell_angle_alpha                90
_cell_angle_beta                 90
_cell_angle_gamma                90
_cell_volume                     720.343
loop_
_atom_site_label
_atom_site_type_symbol
_atom_site_fract_x
_atom_site_fract_y
_atom_site_fract_z
V1 V 0.0000 0.5000 0.5000
V2 V 0.2500 0.0000 0.77294(15)
P1 P 0.2500 0.33014(12) 0.70933(12)
F1 F 0.2500 0.5000 0.4260(4)
O1 O 0.0707(4) 0.3601(2) 0.6282(2)
O2 O 0.2500 0.1884(3) 0.7553(3)
O3 O 0.2500 0.0000 0.5687(6)
O4 O -0.0306(7) 0.0000 0.7836(7)
O5 O 0.2500 0.0000 0.9629(7)
C1 C 0.2500 0.4300(5) 0.8571(4)
C2 C 0.2500 0.3633(5) 0.9791(5)
C3 C 0.2500 0.4321(6) 1.0984(5)
H1 H 0.2500 0.270(6) 0.973(6)
H2 H 0.2500 0.381(6) 1.175(6)
V1A V 0.5000 0.5000 0.5000
V2_2 V 0.2500 1.0000 0.77294(15)
P1A P 0.2500 0.66986(12) 0.70933(12)
F1B F -0.2500 0.5000 0.5740(4)
O1A O 0.4293(4) 0.6399(2) 0.6282(2)
O1F O 0.0707(4) 0.6399(2) 0.6282(2)
O1G O 0.4293(4) 0.3601(2) 0.6282(2)
O1B O -0.0707(4) 0.3601(2) 0.3718(2)
O1D O -0.0707(4) 0.6399(2) 0.3718(2)
O2A O 0.2500 0.8116(3) 0.7553(3)
O2A_2 O 0.2500 -0.1884(3) 0.7553(3)
O4A O 0.5306(7) 0.0000 0.7836(7)
C1A C 0.2500 0.5700(5) 0.8571(4)
C2A C 0.2500 0.6367(5) 0.9791(5)
C3A C 0.2500 0.5679(6) 1.0984(5)
H1A H 0.2500 0.730(6) 0.973(6)
H2A H 0.2500 0.619(6) 1.175(6)
O6 O 0.2500 0.1899(4) 0.3771(4)
O7 O 0.2500 0.0000 0.376(2)
loop_
_geom_bond_atom_site_label_1
_geom_bond_atom_site_label_2
_geom_bond_site_symmetry_1
_geom_bond_site_symmetry_2
V1 F1 1_555 1_555
V2 O2 1_555 1_555
P1 O1 1_555 1_555
F1 V1A 1_555 1_555
O1 V1 1_555 1_555
O2 P1 1_555 1_555
O3 V2 1_555 1_555
O4 V2 1_555 1_555
O5 V2 1_555 1_555
C1 P1 1_555 1_555
C2 C1 1_555 1_555
C3 C2 1_555 1_555
H1 C2 1_555 1_555
H2 C3 1_555 1_555
V1A O1A 1_555 1_555
V2_2 O2A 1_555 1_555
P1A O1A 1_555 1_555
F1B V1 1_555 1_555
O1F V1 1_555 1_555
O1G P1 1_555 1_555
O1B V1 1_555 1_555
O1D V1 1_555 1_555
O2A P1A 1_555 1_555
O2A_2 V2 1_555 1_555
O4A V2 1_555 1_555
C1A C1 1_555 1_555
C2A C1A 1_555 1_555
C3A C3 1_555 1_555
H1A C2A 1_555 1_555
H2A C3A 1_555 1_555
V1A O1G 1_555 1_555
P1A O1F 1_555 1_555
P1A C1A 1_555 1_555
C2A C3A 1_555 1_555

#END
