
#######################################################################
#
#                 Cambridge Crystallographic Data Centre
#                                CCDC 
#
#######################################################################
#
# If this CIF has been generated from an entry in the Cambridge 
# Structural Database, then it will include bibliographic, chemical, 
# crystal, experimental, refinement or atomic coordinate data resulting 
# from the CCDC's data processing and validation procedures.
#
#######################################################################

data_COQPAZ
_symmetry_cell_setting           triclinic
_symmetry_space_group_name_H-M   'P -1'
_symmetry_Int_Tables_number      2
_space_group_name_Hall           '-P 1'
loop_
_symmetry_equiv_pos_site_id
_symmetry_equiv_pos_as_xyz
1 x,y,z
2 -x,-y,-z
_cell_length_a                   8.6182(8)
_cell_length_b                   9.3085(9)
_cell_length_c                   9.7959(9)
_cell_angle_alpha                90.059(1)
_cell_angle_beta                 112.297(1)
_cell_angle_gamma                115.467(1)
_cell_volume                     643.641
loop_
_atom_site_label
_atom_site_type_symbol
_atom_site_fract_x
_atom_site_fract_y
_atom_site_fract_z
C1 C -0.1037(3) -0.0754(2) 0.6407(2)
C2 C -0.0364(3) -0.0266(2) 0.5525(2)
N1 N -0.2342(2) -0.2788(2) 0.7697(2)
C3 C -0.1795(3) -0.1237(2) 0.7505(2)
C4 C -0.1954(3) -0.0122(3) 0.8331(2)
C5 C -0.2635(3) -0.0607(3) 0.9409(2)
C6 C -0.3114(3) -0.2168(3) 0.9659(2)
C7 C -0.2968(3) -0.3213(3) 0.8780(2)
C8 C -0.4475(3) -0.9345(2) 0.4773(2)
C9 C -0.3585(3) -0.8183(2) 0.4351(2)
N2 N -0.2383(2) -0.5417(2) 0.4113(2)
C10 C -0.2699(2) -0.6930(2) 0.3654(2)
C11 C -0.2277(3) -0.7311(3) 0.2508(2)
C12 C -0.1514(3) -0.6091(3) 0.1790(2)
C13 C -0.1206(3) -0.4556(3) 0.2239(2)
C14 C -0.1656(3) -0.4255(2) 0.3390(2)
N3 N -0.4264(2) -0.7371(2) 0.7767(2)
O1 O -0.2517(2) -0.6656(2) 0.8089(2)
O2 O -0.5322(2) -0.6908(2) 0.6801(2)
O3 O -0.4913(3) -0.8489(2) 0.8390(2)
H1 H -0.1598 0.0953 0.8154
H2 H -0.2772 0.0126 0.9972
H3 H -0.3537 -0.2514 1.0422
H4 H -0.3328 -0.4293 0.8942
H5 H -0.2506 -0.8384 0.2223
H6 H -0.1211 -0.6313 0.1004
H7 H -0.0685 -0.3703 0.1763
H8 H -0.1445 -0.3189 0.3680
Ag1 Ag -0.2802(1) -0.4792(1) 0.6072(1)
C2A C 0.0364(3) 0.0266(2) 0.4475(2)
C1A C 0.1037(3) 0.0754(2) 0.3593(2)
C3A C 0.1795(3) 0.1237(2) 0.2495(2)
N1A N 0.2342(2) 0.2788(2) 0.2303(2)
C7A C 0.2968(3) 0.3213(3) 0.1220(2)
C6A C 0.3114(3) 0.2168(3) 0.0341(2)
C5A C 0.2635(3) 0.0607(3) 0.0591(2)
C4A C 0.1954(3) 0.0122(3) 0.1669(2)
H1A H 0.1598 -0.0953 0.1846
H2A H 0.2772 -0.0126 0.0028
H3A H 0.3537 0.2514 -0.0422
H4A H 0.3328 0.4293 0.1058
C8A C -0.5525(3) -1.0655(2) 0.5227(2)
C9A C -0.6415(3) -1.1817(2) 0.5649(2)
C10A C -0.7301(2) -1.3070(2) 0.6346(2)
N2A N -0.7617(2) -1.4583(2) 0.5887(2)
C14A C -0.8344(3) -1.5745(2) 0.6610(2)
C13A C -0.8794(3) -1.5444(3) 0.7761(2)
C12A C -0.8486(3) -1.3909(3) 0.8210(2)
C11A C -0.7723(3) -1.2689(3) 0.7492(2)
H5A H -0.7494 -1.1616 0.7777
H6A H -0.8789 -1.3687 0.8996
H7A H -0.9315 -1.6297 0.8237
H8A H -0.8555 -1.6811 0.6320
Ag1A Ag 0.2802(1) 0.4792(1) 0.3928(1)
N3A N 0.4264(2) 0.7371(2) 0.2233(2)
O1A O 0.2517(2) 0.6656(2) 0.1911(2)
O2A O 0.5322(2) 0.6908(2) 0.3199(2)
O3A O 0.4913(3) 0.8489(2) 0.1610(2)
Ag1A_2 Ag -0.7198(1) -1.5208(1) 0.3928(1)
N2A_2 N 0.2383(2) 0.5417(2) 0.5887(2)
loop_
_geom_bond_atom_site_label_1
_geom_bond_atom_site_label_2
_geom_bond_site_symmetry_1
_geom_bond_site_symmetry_2
C1 C2 1_555 1_555
C2 C2A 1_555 1_555
N1 C3 1_555 1_555
C3 C1 1_555 1_555
C4 C3 1_555 1_555
C5 C4 1_555 1_555
C6 C5 1_555 1_555
C7 N1 1_555 1_555
C8 C9 1_555 1_555
C9 C10 1_555 1_555
N2 C10 1_555 1_555
C10 C11 1_555 1_555
C11 C12 1_555 1_555
C12 C13 1_555 1_555
C13 C14 1_555 1_555
C14 N2 1_555 1_555
N3 O1 1_555 1_555
O1 Ag1 1_555 1_555
O2 N3 1_555 1_555
O3 N3 1_555 1_555
H1 C4 1_555 1_555
H2 C5 1_555 1_555
H3 C6 1_555 1_555
H4 C7 1_555 1_555
H5 C11 1_555 1_555
H6 C12 1_555 1_555
H7 C13 1_555 1_555
H8 C14 1_555 1_555
Ag1 N1 1_555 1_555
C2A C1A 1_555 1_555
C1A C3A 1_555 1_555
C3A N1A 1_555 1_555
N1A C7A 1_555 1_555
C7A C6A 1_555 1_555
C6A C5A 1_555 1_555
C5A C4A 1_555 1_555
C4A C3A 1_555 1_555
H1A C4A 1_555 1_555
H2A C5A 1_555 1_555
H3A C6A 1_555 1_555
H4A C7A 1_555 1_555
C8A C8 1_555 1_555
C9A C8A 1_555 1_555
C10A C9A 1_555 1_555
N2A C10A 1_555 1_555
C14A N2A 1_555 1_555
C13A C14A 1_555 1_555
C12A C13A 1_555 1_555
C11A C10A 1_555 1_555
H5A C11A 1_555 1_555
H6A C12A 1_555 1_555
H7A C13A 1_555 1_555
H8A C14A 1_555 1_555
Ag1A N1A 1_555 1_555
N3A O1A 1_555 1_555
O1A Ag1A 1_555 1_555
O2A Ag1A 1_555 1_555
O3A N3A 1_555 1_555
Ag1A_2 N2A 1_555 1_555
N2A_2 Ag1A 1_555 1_555
C6 C7 1_555 1_555
N2 Ag1 1_555 1_555
O2 Ag1 1_555 1_555
C12A C11A 1_555 1_555
N3A O2A 1_555 1_555

#END
