
#######################################################################
#
#                 Cambridge Crystallographic Data Centre
#                                CCDC 
#
#######################################################################
#
# If this CIF has been generated from an entry in the Cambridge 
# Structural Database, then it will include bibliographic, chemical, 
# crystal, experimental, refinement or atomic coordinate data resulting 
# from the CCDC's data processing and validation procedures.
#
#######################################################################

data_COQPAZ01
_symmetry_cell_setting           triclinic
_symmetry_space_group_name_H-M   'P -1'
_symmetry_Int_Tables_number      2
_space_group_name_Hall           '-P 1'
loop_
_symmetry_equiv_pos_site_id
_symmetry_equiv_pos_as_xyz
1 x,y,z
2 -x,-y,-z
_cell_length_a                   9.918(3)
_cell_length_b                   10.625(2)
_cell_length_c                   7.398(3)
_cell_angle_alpha                95.33(2)
_cell_angle_beta                 102.96(3)
_cell_angle_gamma                113.84(2)
_cell_volume                     680.021
loop_
_atom_site_label
_atom_site_type_symbol
_atom_site_fract_x
_atom_site_fract_y
_atom_site_fract_z
O1 O 0.6580(2) 0.5543(2) 0.9258(3)
O2 O 0.7253(3) 0.4001(2) 1.0074(4)
O3 O 0.8872(2) 0.6186(3) 1.0895(3)
N1 N 0.3216(2) 0.1149(2) 0.9110(2)
N2 N 0.3144(2) 0.4124(2) 0.5974(2)
N3 N 0.7605(2) 0.5242(2) 1.0103(3)
C1 C 0.2458(3) 0.1034(2) 1.0412(3)
C2 C 0.1828(3) -0.0178(3) 1.1062(3)
C3 C 0.1994(3) -0.1333(2) 1.0391(3)
C4 C 0.2778(2) -0.1244(2) 0.9064(3)
C5 C 0.3344(2) 0.0000(2) 0.8414(3)
C6 C 0.4087(2) 0.0080(2) 0.6952(3)
C7 C 0.4659(2) 0.0029(2) 0.5704(3)
C8 C 0.0335(2) 0.0701(2) 0.4971(3)
C9 C 0.0943(2) 0.1925(2) 0.4944(3)
C10 C 0.1672(2) 0.3396(2) 0.4889(3)
C11 C 0.0894(3) 0.4015(3) 0.3796(3)
C12 C 0.1637(3) 0.5426(3) 0.3795(4)
C13 C 0.3130(3) 0.6165(2) 0.4879(4)
C14 C 0.3834(3) 0.5487(2) 0.5948(3)
H1 H 0.236(3) 0.180(3) 1.082(4)
H2 H 0.130(3) -0.024(3) 1.186(4)
H3 H 0.162(3) -0.216(3) 1.084(4)
H4 H 0.293(2) -0.197(2) 0.855(3)
H5 H -0.018(3) 0.349(3) 0.298(4)
H6 H 0.113(3) 0.584(3) 0.300(4)
H7 H 0.364(3) 0.706(3) 0.494(4)
H8 H 0.481(2) 0.594(2) 0.664(3)
Ag1 Ag 0.42306(2) 0.31864(2) 0.81676(3)
C7A C 0.5341(2) -0.0029(2) 0.4296(3)
C6A C 0.5913(2) -0.0080(2) 0.3048(3)
C5A C 0.6656(2) 0.0000(2) 0.1586(3)
N1A N 0.6784(2) -0.1149(2) 0.0890(2)
C1A C 0.7542(3) -0.1034(2) -0.0412(3)
C2A C 0.8172(3) 0.0178(3) -0.1062(3)
C3A C 0.8006(3) 0.1333(2) -0.0391(3)
C4A C 0.7222(2) 0.1244(2) 0.0936(3)
H4A H 0.707(2) 0.197(2) 0.145(3)
H3A H 0.838(3) 0.216(3) -0.084(4)
H2A H 0.870(3) 0.024(3) -0.186(4)
H1A H 0.764(3) -0.180(3) -0.082(4)
C8A C -0.0335(2) -0.0701(2) 0.5029(3)
C9A C -0.0943(2) -0.1925(2) 0.5056(3)
C10A C -0.1672(2) -0.3396(2) 0.5111(3)
N2A N -0.3144(2) -0.4124(2) 0.4026(2)
C14A C -0.3834(3) -0.5487(2) 0.4052(3)
C13A C -0.3130(3) -0.6165(2) 0.5121(4)
C12A C -0.1637(3) -0.5426(3) 0.6205(4)
C11A C -0.0894(3) -0.4015(3) 0.6204(3)
H5A H 0.018(3) -0.349(3) 0.702(4)
H6A H -0.113(3) -0.584(3) 0.700(4)
H7A H -0.364(3) -0.706(3) 0.506(4)
H8A H -0.481(2) -0.594(2) 0.336(3)
Ag1A Ag 0.57694(2) -0.31864(2) 0.18324(3)
O1A O 0.3420(2) -0.5543(2) 0.0742(3)
O2A O 0.2747(3) -0.4001(2) -0.0074(4)
O3A O 0.1128(2) -0.6186(3) -0.0895(3)
N3A N 0.2395(2) -0.5242(2) -0.0103(3)
Ag1A_2 Ag -0.42306(2) -0.31864(2) 0.18324(3)
N2A_2 N 0.6856(2) -0.4124(2) 0.4026(2)
loop_
_geom_bond_atom_site_label_1
_geom_bond_atom_site_label_2
_geom_bond_site_symmetry_1
_geom_bond_site_symmetry_2
O1 N3 1_555 1_555
O2 N3 1_555 1_555
O3 N3 1_555 1_555
N1 C1 1_555 1_555
N2 C10 1_555 1_555
C1 C2 1_555 1_555
C2 C3 1_555 1_555
C3 C4 1_555 1_555
C4 C5 1_555 1_555
C5 N1 1_555 1_555
C6 C5 1_555 1_555
C7 C6 1_555 1_555
C8 C9 1_555 1_555
C9 C10 1_555 1_555
C10 C11 1_555 1_555
C11 C12 1_555 1_555
C12 C13 1_555 1_555
C13 C14 1_555 1_555
C14 N2 1_555 1_555
H1 C1 1_555 1_555
H2 C2 1_555 1_555
H3 C3 1_555 1_555
H4 C4 1_555 1_555
H5 C11 1_555 1_555
H6 C12 1_555 1_555
H7 C13 1_555 1_555
H8 C14 1_555 1_555
Ag1 O1 1_555 1_555
C7A C7 1_555 1_555
C6A C7A 1_555 1_555
C5A C6A 1_555 1_555
N1A C5A 1_555 1_555
C1A N1A 1_555 1_555
C2A C1A 1_555 1_555
C3A C2A 1_555 1_555
C4A C5A 1_555 1_555
H4A C4A 1_555 1_555
H3A C3A 1_555 1_555
H2A C2A 1_555 1_555
H1A C1A 1_555 1_555
C8A C8 1_555 1_555
C9A C8A 1_555 1_555
C10A C9A 1_555 1_555
N2A C10A 1_555 1_555
C14A N2A 1_555 1_555
C13A C14A 1_555 1_555
C12A C13A 1_555 1_555
C11A C10A 1_555 1_555
H5A C11A 1_555 1_555
H6A C12A 1_555 1_555
H7A C13A 1_555 1_555
H8A C14A 1_555 1_555
Ag1A N1A 1_555 1_555
O1A Ag1A 1_555 1_555
O2A N3A 1_555 1_555
O3A N3A 1_555 1_555
N3A O1A 1_555 1_555
Ag1A_2 N2A 1_555 1_555
N2A_2 Ag1A 1_555 1_555
N1 Ag1 1_555 1_555
N2 Ag1 1_555 1_555
C3A C4A 1_555 1_555
C12A C11A 1_555 1_555

#END
