
#######################################################################
#
#                 Cambridge Crystallographic Data Centre
#                                CCDC 
#
#######################################################################
#
# If this CIF has been generated from an entry in the Cambridge 
# Structural Database, then it will include bibliographic, chemical, 
# crystal, experimental, refinement or atomic coordinate data resulting 
# from the CCDC's data processing and validation procedures.
#
#######################################################################

data_COQSOS
_symmetry_cell_setting           triclinic
_symmetry_space_group_name_H-M   'P -1'
_symmetry_Int_Tables_number      2
_space_group_name_Hall           '-P 1'
loop_
_symmetry_equiv_pos_site_id
_symmetry_equiv_pos_as_xyz
1 x,y,z
2 -x,-y,-z
_cell_length_a                   11.3449(9)
_cell_length_b                   12.9172(9)
_cell_length_c                   18.7498(12)
_cell_angle_alpha                90.424(2)
_cell_angle_beta                 101.207(2)
_cell_angle_gamma                102.820(2)
_cell_volume                     2624.43
loop_
_atom_site_label
_atom_site_type_symbol
_atom_site_fract_x
_atom_site_fract_y
_atom_site_fract_z
C1 C 0.8408(5) 0.4398(3) 0.4242(3)
C2 C 1.0729(5) 0.5842(4) 0.4192(3)
C3 C 0.9311(5) 0.6305(4) 0.5213(3)
C4 C 0.6576(5) 1.0480(4) 0.0809(3)
C5 C 0.5793(6) 0.8851(5) -0.0364(3)
C6 C 0.4265(5) 0.8909(5) 0.0684(3)
C7 C 0.4968(4) 0.2395(3) 0.2524(3)
C8 C 0.4323(4) 0.2726(4) 0.3024(3)
C9 C 0.3381(5) 0.2002(4) 0.3244(3)
H1 H 0.2949 0.2219 0.3583
C10 C 0.3076(5) 0.0966(4) 0.2965(3)
H2 H 0.2421 0.0471 0.3109
C11 C 0.3711(5) 0.0638(4) 0.2481(3)
H3 H 0.3490 -0.0080 0.2295
C12 C 0.4657(5) 0.1341(4) 0.2265(3)
H4 H 0.5099 0.1106 0.1939
C13 C 0.6450(5) 0.3060(4) 0.1797(3)
H5 H 0.6186 0.2386 0.1539
C14 C 0.7918(5) 0.4845(4) 0.1903(3)
C15 C 0.7408(5) 0.3809(4) 0.1572(3)
C16 C 0.7900(7) 0.3500(4) 0.0995(4)
H6 H 0.7564 0.2811 0.0767
C17 C 0.8835(7) 0.4147(5) 0.0753(4)
H7 H 0.9141 0.3918 0.0357
C18 C 0.9348(7) 0.5161(5) 0.1095(4)
H8 H 1.0009 0.5620 0.0931
C19 C 0.8905(5) 0.5491(4) 0.1656(3)
H9 H 0.9273 0.6175 0.1887
C20 C 0.4170(5) 0.4265(4) 0.3682(3)
H10 H 0.3435 0.3843 0.3792
C21 C 0.5642(5) 0.6057(4) 0.3871(3)
C22 C 0.4566(5) 0.5328(4) 0.3988(3)
C23 C 0.3901(5) 0.5627(4) 0.4480(3)
H11 H 0.3179 0.5143 0.4557
C24 C 0.4264(6) 0.6594(4) 0.4851(3)
H12 H 0.3785 0.6793 0.5170
C25 C 0.5356(6) 0.7290(4) 0.4756(3)
H13 H 0.5637 0.7951 0.5030
C26 C 0.6028(5) 0.7027(4) 0.4269(3)
H14 H 0.6758 0.7513 0.4206
C27 C 0.9940(4) 1.2386(4) 0.2559(3)
C28 C 1.0582(4) 1.2076(4) 0.2055(3)
C29 C 1.1503(5) 1.2814(4) 0.1830(3)
H15 H 1.1939 1.2604 0.1491
C30 C 1.1786(5) 1.3859(4) 0.2100(3)
H16 H 1.2421 1.4367 0.1948
C31 C 1.1146(5) 1.4162(4) 0.2589(3)
H17 H 1.1345 1.4882 0.2770
C32 C 1.0230(5) 1.3446(4) 0.2820(3)
H18 H 0.9795 1.3669 0.3155
C33 C 0.8416(5) 1.1708(4) 0.3251(3)
H19 H 0.8672 1.2377 0.3515
C34 C 0.6924(4) 0.9912(3) 0.3109(3)
C35 C 0.7414(4) 1.0949(3) 0.3450(3)
C36 C 0.6858(5) 1.1280(4) 0.3994(3)
H20 H 0.7186 1.1967 0.4227
C37 C 0.5867(5) 1.0643(4) 0.4191(3)
H21 H 0.5516 1.0873 0.4568
C38 C 0.5369(5) 0.9648(4) 0.3836(3)
H22 H 0.4657 0.9208 0.3960
C39 C 0.5890(4) 0.9292(4) 0.3310(3)
H23 H 0.5535 0.8607 0.3078
C40 C 1.0742(5) 1.0573(4) 0.1366(3)
H24 H 1.1474 1.1010 0.1262
C41 C 0.9299(5) 0.8773(4) 0.1153(3)
C42 C 1.0344(5) 0.9527(4) 0.1028(3)
C43 C 1.1007(5) 0.9271(4) 0.0506(3)
H25 H 1.1731 0.9763 0.0439
C44 C 1.0629(5) 0.8344(4) 0.0105(3)
H26 H 1.1084 0.8186 -0.0241
C45 C 0.9570(5) 0.7621(4) 0.0199(3)
H27 H 0.9289 0.6976 -0.0092
C46 C 0.8926(5) 0.7835(4) 0.0714(3)
H28 H 0.8207 0.7329 0.0771
Cr1 Cr 1.0000 0.5000 0.5000
Cr2 Cr 0.5000 1.0000 0.0000
K1 K 0.70341(13) 0.73303(9) 0.23151(8)
Mn1 Mn 0.61927(7) 0.45884(5) 0.28802(4)
Mn2 Mn 0.87456(7) 1.01875(5) 0.21805(4)
N1 N 0.7548(4) 0.4099(3) 0.3799(2)
N2 N 1.1098(4) 0.6359(4) 0.3755(3)
N3 N 0.8974(5) 0.7061(4) 0.5314(3)
N4 N 0.7435(4) 1.0702(3) 0.1263(2)
N5 N 0.6215(6) 0.8187(5) -0.0540(3)
N6 N 0.3923(5) 0.8253(5) 0.1059(3)
N7 N 0.5900(3) 0.3207(3) 0.2323(2)
N8 N 0.4736(4) 0.3823(3) 0.3263(2)
N9 N 0.9005(3) 1.1560(3) 0.2740(2)
N10 N 1.0188(4) 1.0977(3) 0.1804(2)
O1 O 0.7500(3) 0.5232(2) 0.24363(18)
O2 O 0.6297(3) 0.5867(2) 0.33920(18)
O3 O 0.7409(3) 0.9521(2) 0.26039(17)
O4 O 0.8672(3) 0.8922(2) 0.16597(17)
O5 O 0.4884(3) 0.5080(2) 0.19633(19)
H29 H 0.4674 0.4747 0.1549
H30 H 0.4613 0.5620 0.2054
O6 O 1.0029(3) 0.9674(2) 0.31145(18)
H31 H 1.0139 1.0116 0.3473
H32 H 0.9812 0.9053 0.3262
O7 O 0.4350(4) 0.6923(3) 0.2205(2)
H33 H 0.4074 0.7286 0.1862
H34 H 0.4157 0.7131 0.2589
O8 O 0.9079(4) 0.7593(3) 0.3507(2)
H35 H 0.8968 0.7481 0.4009
H36 H 0.9650 0.7225 0.3385
O9 O 0.5925(5) 0.6778(5) 0.0887(3)
H37 H 0.6226 0.6959 0.0498
H38 H 0.5256 0.7019 0.0883
C1A C 0.1592(5) 1.5602(3) -0.4242(3)
C4A C 0.3424(5) 0.9520(4) -0.0809(3)
C5A C 0.4207(6) 1.1149(5) 0.0364(3)
C6A C 0.5735(5) 1.1091(5) -0.0684(3)
C7A C 0.5032(4) 1.7605(3) -0.2524(3)
C8A C 0.5677(4) 1.7274(4) -0.3024(3)
C9A C 0.6619(5) 1.7998(4) -0.3244(3)
H1A H 0.7051 1.7781 -0.3583
C10A C 0.6924(5) 1.9034(4) -0.2965(3)
H2A H 0.7579 1.9529 -0.3109
C11A C 0.6289(5) 1.9362(4) -0.2481(3)
H3A H 0.6510 2.0080 -0.2295
C12A C 0.5343(5) 1.8659(4) -0.2265(3)
H4A H 0.4901 1.8894 -0.1939
C13A C 0.3550(5) 1.6940(4) -0.1797(3)
H5A H 0.3814 1.7614 -0.1539
C14A C 0.2082(5) 1.5155(4) -0.1903(3)
C15A C 0.2592(5) 1.6191(4) -0.1572(3)
C16A C 0.2100(7) 1.6500(4) -0.0995(4)
H6A H 0.2436 1.7189 -0.0767
C17A C 0.1165(7) 1.5853(5) -0.0753(4)
H7A H 0.0859 1.6082 -0.0357
C18A C 0.0652(7) 1.4839(5) -0.1095(4)
H8A H -0.0009 1.4380 -0.0931
C19A C 0.1095(5) 1.4509(4) -0.1656(3)
H9A H 0.0727 1.3825 -0.1887
C20A C 0.5830(5) 1.5735(4) -0.3682(3)
H10A H 0.6565 1.6157 -0.3792
C21A C 0.4358(5) 1.3943(4) -0.3871(3)
C22A C 0.5434(5) 1.4672(4) -0.3988(3)
C23A C 0.6099(5) 1.4373(4) -0.4480(3)
H11A H 0.6821 1.4857 -0.4557
C24A C 0.5736(6) 1.3406(4) -0.4851(3)
H12A H 0.6215 1.3207 -0.5170
C25A C 0.4644(6) 1.2710(4) -0.4756(3)
H13A H 0.4363 1.2049 -0.5030
C26A C 0.3972(5) 1.2973(4) -0.4269(3)
H14A H 0.3242 1.2487 -0.4206
C27A C 0.0060(4) 0.7614(4) -0.2559(3)
C28A C -0.0582(4) 0.7924(4) -0.2055(3)
C29A C -0.1503(5) 0.7186(4) -0.1830(3)
H15A H -0.1939 0.7396 -0.1491
C30A C -0.1786(5) 0.6141(4) -0.2100(3)
H16A H -0.2421 0.5633 -0.1948
C31A C -0.1146(5) 0.5838(4) -0.2589(3)
H17A H -0.1345 0.5118 -0.2770
C32A C -0.0230(5) 0.6554(4) -0.2820(3)
H18A H 0.0205 0.6331 -0.3155
C33A C 0.1584(5) 0.8292(4) -0.3251(3)
H19A H 0.1328 0.7623 -0.3515
C34A C 0.3076(4) 1.0088(3) -0.3109(3)
C35A C 0.2586(4) 0.9051(3) -0.3450(3)
C36A C 0.3142(5) 0.8720(4) -0.3994(3)
H20A H 0.2814 0.8033 -0.4227
C37A C 0.4133(5) 0.9357(4) -0.4191(3)
H21A H 0.4484 0.9127 -0.4568
C38A C 0.4631(5) 1.0352(4) -0.3836(3)
H22A H 0.5343 1.0792 -0.3960
C39A C 0.4110(4) 1.0708(4) -0.3310(3)
H23A H 0.4465 1.1393 -0.3078
C40A C -0.0742(5) 0.9427(4) -0.1366(3)
H24A H -0.1474 0.8990 -0.1262
C41A C 0.0701(5) 1.1227(4) -0.1153(3)
C42A C -0.0344(5) 1.0473(4) -0.1028(3)
C43A C -0.1007(5) 1.0729(4) -0.0506(3)
H25A H -0.1731 1.0237 -0.0439
C44A C -0.0629(5) 1.1656(4) -0.0105(3)
H26A H -0.1084 1.1814 0.0241
C45A C 0.0430(5) 1.2379(4) -0.0199(3)
H27A H 0.0711 1.3024 0.0092
C46A C 0.1074(5) 1.2165(4) -0.0714(3)
H28A H 0.1793 1.2671 -0.0771
K1A K 0.29659(13) 1.26697(9) -0.23151(8)
Mn1A Mn 0.38073(7) 1.54116(5) -0.28802(4)
Mn2A Mn 0.12544(7) 0.98125(5) -0.21805(4)
N1A N 0.2452(4) 1.5901(3) -0.3799(2)
N4A N 0.2565(4) 0.9298(3) -0.1263(2)
N5A N 0.3785(6) 1.1813(5) 0.0540(3)
N6A N 0.6077(5) 1.1747(5) -0.1059(3)
N7A N 0.4100(3) 1.6793(3) -0.2323(2)
N8A N 0.5264(4) 1.6177(3) -0.3263(2)
N9A N 0.0995(3) 0.8440(3) -0.2740(2)
N10A N -0.0188(4) 0.9023(3) -0.1804(2)
O1A O 0.2500(3) 1.4768(2) -0.24363(18)
O2A O 0.3703(3) 1.4133(2) -0.33920(18)
O3A O 0.2591(3) 1.0479(2) -0.26039(17)
O4A O 0.1328(3) 1.1078(2) -0.16597(17)
O5A O 0.5116(3) 1.4920(2) -0.19633(19)
H29A H 0.5326 1.5253 -0.1549
H30A H 0.5387 1.4380 -0.2054
O6A O -0.0029(3) 1.0326(2) -0.31145(18)
H31A H -0.0139 0.9884 -0.3473
H32A H 0.0188 1.0947 -0.3262
O7A O 0.5650(4) 1.3077(3) -0.2205(2)
H33A H 0.5926 1.2714 -0.1862
H34A H 0.5843 1.2869 -0.2589
O8A O 0.0921(4) 1.2407(3) -0.3507(2)
H35A H 0.1032 1.2519 -0.4009
H36A H 0.0350 1.2775 -0.3385
O9A O 0.4075(5) 1.3222(5) -0.0887(3)
H37A H 0.3774 1.3041 -0.0498
H38A H 0.4744 1.2981 -0.0883
C2A C 0.9271(5) 0.4158(4) 0.5808(3)
N2A N 0.8902(4) 0.3641(4) 0.6245(3)
C3A C 1.0689(5) 0.3695(4) 0.4787(3)
N3A N 1.1026(5) 0.2939(4) 0.4686(3)
C1A_2 C 1.1592(5) 0.5602(3) 0.5758(3)
Cr1_2 Cr 0.0000 1.5000 -0.5000
C47 C 0.1643(8) 0.0401(5) 0.4857(4)
H39 H 0.2546 0.0580 0.4937
H40 H 0.1336 -0.0366 0.4748
H41 H 0.1381 0.0605 0.5295
O10 O 0.1180(4) 0.0932(3) 0.4290(2)
H42 H 0.1106 0.1560 0.4373
C48 C 0.1817(6) 0.7800(5) 0.2372(4)
H43 H 0.1410 0.8285 0.2584
H44 H 0.1202 0.7160 0.2158
H45 H 0.2217 0.8154 0.1992
O11 O 0.2710(4) 0.7515(4) 0.2918(3)
H46 H 0.2408 0.7144 0.3240
loop_
_geom_bond_atom_site_label_1
_geom_bond_atom_site_label_2
_geom_bond_site_symmetry_1
_geom_bond_site_symmetry_2
C1 Cr1 1_555 1_555
C2 Cr1 1_555 1_555
C3 Cr1 1_555 1_555
C4 Cr2 1_555 1_555
C5 Cr2 1_555 1_555
C6 Cr2 1_555 1_555
C7 C8 1_555 1_555
C8 C9 1_555 1_555
C9 H1 1_555 1_555
C10 C9 1_555 1_555
H2 C10 1_555 1_555
C11 C10 1_555 1_555
H3 C11 1_555 1_555
C12 C7 1_555 1_555
H4 C12 1_555 1_555
C13 H5 1_555 1_555
C14 C15 1_555 1_555
C15 C13 1_555 1_555
C16 C15 1_555 1_555
H6 C16 1_555 1_555
C17 C16 1_555 1_555
H7 C17 1_555 1_555
C18 C17 1_555 1_555
H8 C18 1_555 1_555
C19 C14 1_555 1_555
H9 C19 1_555 1_555
C20 H10 1_555 1_555
C21 C22 1_555 1_555
C22 C20 1_555 1_555
C23 C22 1_555 1_555
H11 C23 1_555 1_555
C24 C23 1_555 1_555
H12 C24 1_555 1_555
C25 C24 1_555 1_555
H13 C25 1_555 1_555
C26 C21 1_555 1_555
H14 C26 1_555 1_555
C27 C28 1_555 1_555
C28 C29 1_555 1_555
C29 H15 1_555 1_555
C30 C29 1_555 1_555
H16 C30 1_555 1_555
C31 C30 1_555 1_555
H17 C31 1_555 1_555
C32 C27 1_555 1_555
H18 C32 1_555 1_555
C33 H19 1_555 1_555
C34 C35 1_555 1_555
C35 C33 1_555 1_555
C36 C35 1_555 1_555
H20 C36 1_555 1_555
C37 C36 1_555 1_555
H21 C37 1_555 1_555
C38 C37 1_555 1_555
H22 C38 1_555 1_555
C39 C34 1_555 1_555
H23 C39 1_555 1_555
C40 H24 1_555 1_555
C41 C42 1_555 1_555
C42 C40 1_555 1_555
C43 C42 1_555 1_555
H25 C43 1_555 1_555
C44 C43 1_555 1_555
H26 C44 1_555 1_555
C45 C44 1_555 1_555
H27 C45 1_555 1_555
C46 C41 1_555 1_555
H28 C46 1_555 1_555
Cr1 C2A 1_555 1_555
Cr2 C4A 1_555 1_555
K1 O1 1_555 1_555
Mn1 N1 1_555 1_555
Mn2 N4 1_555 1_555
N1 C1 1_555 1_555
N2 C2 1_555 1_555
N3 C3 1_555 1_555
N4 C4 1_555 1_555
N5 C5 1_555 1_555
N6 C6 1_555 1_555
N7 C7 1_555 1_555
N8 C8 1_555 1_555
N9 C27 1_555 1_555
N10 C28 1_555 1_555
O1 C14 1_555 1_555
O2 C21 1_555 1_555
O3 C34 1_555 1_555
O4 C41 1_555 1_555
O5 K1 1_555 1_555
H29 O5 1_555 1_555
H30 O5 1_555 1_555
O6 Mn2 1_555 1_555
H31 O6 1_555 1_555
H32 O6 1_555 1_555
O7 K1 1_555 1_555
H33 O7 1_555 1_555
H34 O7 1_555 1_555
O8 K1 1_555 1_555
H35 O8 1_555 1_555
H36 O8 1_555 1_555
O9 K1 1_555 1_555
H37 O9 1_555 1_555
H38 O9 1_555 1_555
C47 H39 1_555 1_555
H40 C47 1_555 1_555
H41 C47 1_555 1_555
O10 C47 1_555 1_555
H42 O10 1_555 1_555
C48 H43 1_555 1_555
H44 C48 1_555 1_555
H45 C48 1_555 1_555
O11 C48 1_555 1_555
H46 O11 1_555 1_555
C1A N1A 1_555 1_555
C4A N4A 1_555 1_555
C5A Cr2 1_555 1_555
C6A Cr2 1_555 1_555
C7A C8A 1_555 1_555
C8A C9A 1_555 1_555
C9A H1A 1_555 1_555
C10A C9A 1_555 1_555
H2A C10A 1_555 1_555
C11A C10A 1_555 1_555
H3A C11A 1_555 1_555
C12A C7A 1_555 1_555
H4A C12A 1_555 1_555
C13A H5A 1_555 1_555
C14A C15A 1_555 1_555
C15A C13A 1_555 1_555
C16A C15A 1_555 1_555
H6A C16A 1_555 1_555
C17A C16A 1_555 1_555
H7A C17A 1_555 1_555
C18A C17A 1_555 1_555
H8A C18A 1_555 1_555
C19A C14A 1_555 1_555
H9A C19A 1_555 1_555
C20A H10A 1_555 1_555
C21A C22A 1_555 1_555
C22A C20A 1_555 1_555
C23A C22A 1_555 1_555
H11A C23A 1_555 1_555
C24A C23A 1_555 1_555
H12A C24A 1_555 1_555
C25A C24A 1_555 1_555
H13A C25A 1_555 1_555
C26A C21A 1_555 1_555
H14A C26A 1_555 1_555
C27A C28A 1_555 1_555
C28A C29A 1_555 1_555
C29A H15A 1_555 1_555
C30A C29A 1_555 1_555
H16A C30A 1_555 1_555
C31A C30A 1_555 1_555
H17A C31A 1_555 1_555
C32A C27A 1_555 1_555
H18A C32A 1_555 1_555
C33A H19A 1_555 1_555
C34A C35A 1_555 1_555
C35A C33A 1_555 1_555
C36A C35A 1_555 1_555
H20A C36A 1_555 1_555
C37A C36A 1_555 1_555
H21A C37A 1_555 1_555
C38A C37A 1_555 1_555
H22A C38A 1_555 1_555
C39A C34A 1_555 1_555
H23A C39A 1_555 1_555
C40A H24A 1_555 1_555
C41A C42A 1_555 1_555
C42A C40A 1_555 1_555
C43A C42A 1_555 1_555
H25A C43A 1_555 1_555
C44A C43A 1_555 1_555
H26A C44A 1_555 1_555
C45A C44A 1_555 1_555
H27A C45A 1_555 1_555
C46A C41A 1_555 1_555
H28A C46A 1_555 1_555
K1A O1A 1_555 1_555
Mn1A N1A 1_555 1_555
Mn2A N4A 1_555 1_555
N5A C5A 1_555 1_555
N6A C6A 1_555 1_555
N7A C7A 1_555 1_555
N8A C8A 1_555 1_555
N9A C27A 1_555 1_555
N10A C28A 1_555 1_555
O1A C14A 1_555 1_555
O2A C21A 1_555 1_555
O3A C34A 1_555 1_555
O4A C41A 1_555 1_555
O5A K1A 1_555 1_555
H29A O5A 1_555 1_555
H30A O5A 1_555 1_555
O6A Mn2A 1_555 1_555
H31A O6A 1_555 1_555
H32A O6A 1_555 1_555
O7A K1A 1_555 1_555
H33A O7A 1_555 1_555
H34A O7A 1_555 1_555
O8A K1A 1_555 1_555
H35A O8A 1_555 1_555
H36A O8A 1_555 1_555
O9A K1A 1_555 1_555
H37A O9A 1_555 1_555
H38A O9A 1_555 1_555
C2A N2A 1_555 1_555
C3A Cr1 1_555 1_555
N3A C3A 1_555 1_555
C1A_2 Cr1 1_555 1_555
Cr1_2 C1A 1_555 1_555
C11 C12 1_555 1_555
C13 N7 1_555 1_555
C18 C19 1_555 1_555
C20 N8 1_555 1_555
C25 C26 1_555 1_555
C31 C32 1_555 1_555
C33 N9 1_555 1_555
C38 C39 1_555 1_555
C40 N10 1_555 1_555
C45 C46 1_555 1_555
K1 O2 1_555 1_555
K1 O3 1_555 1_555
K1 O4 1_555 1_555
Mn1 N7 1_555 1_555
Mn1 N8 1_555 1_555
Mn1 O1 1_555 1_555
Mn1 O2 1_555 1_555
Mn1 O5 1_555 1_555
Mn2 N9 1_555 1_555
Mn2 N10 1_555 1_555
Mn2 O3 1_555 1_555
Mn2 O4 1_555 1_555
C11A C12A 1_555 1_555
C13A N7A 1_555 1_555
C18A C19A 1_555 1_555
C20A N8A 1_555 1_555
C25A C26A 1_555 1_555
C31A C32A 1_555 1_555
C33A N9A 1_555 1_555
C38A C39A 1_555 1_555
C40A N10A 1_555 1_555
C45A C46A 1_555 1_555
K1A O2A 1_555 1_555
K1A O3A 1_555 1_555
K1A O4A 1_555 1_555
Mn1A N7A 1_555 1_555
Mn1A N8A 1_555 1_555
Mn1A O1A 1_555 1_555
Mn1A O2A 1_555 1_555
Mn1A O5A 1_555 1_555
Mn2A N9A 1_555 1_555
Mn2A N10A 1_555 1_555
Mn2A O3A 1_555 1_555
Mn2A O4A 1_555 1_555

#END
