
#######################################################################
#
#                 Cambridge Crystallographic Data Centre
#                                CCDC 
#
#######################################################################
#
# If this CIF has been generated from an entry in the Cambridge 
# Structural Database, then it will include bibliographic, chemical, 
# crystal, experimental, refinement or atomic coordinate data resulting 
# from the CCDC's data processing and validation procedures.
#
#######################################################################

data_COQTAE
_symmetry_cell_setting           monoclinic
_symmetry_space_group_name_H-M   'P 2/c'
_symmetry_Int_Tables_number      13
_space_group_name_Hall           '-P 2yc'
loop_
_symmetry_equiv_pos_site_id
_symmetry_equiv_pos_as_xyz
1 x,y,z
2 -x,y,1/2-z
3 -x,-y,-z
4 x,-y,1/2+z
_cell_length_a                   12.0493(15)
_cell_length_b                   6.4555(9)
_cell_length_c                   14.9149(17)
_cell_angle_alpha                90
_cell_angle_beta                 96.733(14)
_cell_angle_gamma                90
_cell_volume                     1152.14
loop_
_atom_site_label
_atom_site_type_symbol
_atom_site_fract_x
_atom_site_fract_y
_atom_site_fract_z
K1 K 0.0000 0.02273(12) 0.2500
K2 K 0.0000 0.0000 0.5000
S1 S 0.01549(6) 0.46840(9) 0.37788(6)
N1 N -0.0956(2) 0.3129(3) 0.37359(18)
N2 N -0.0480(2) 0.6958(3) 0.36615(18)
C1 C -0.1872(3) 0.4404(4) 0.3632(2)
C2 C -0.2988(3) 0.3819(4) 0.3568(3)
H1 H -0.3178 0.2426 0.3596
C3 C -0.3822(3) 0.5326(5) 0.3463(3)
H2 H -0.4569 0.4935 0.3424
C4 C -0.3544(3) 0.7402(4) 0.3415(3)
H3 H -0.4110 0.8389 0.3343
C5 C -0.2453(3) 0.8031(4) 0.3472(3)
H4 H -0.2284 0.9431 0.3434
C6 C -0.1591(3) 0.6565(4) 0.3588(2)
O1 O 0.18084(18) 0.0359(3) 0.38952(16)
C7 C 0.2370(3) -0.1598(5) 0.4037(3)
H5 H 0.2237 -0.2452 0.3501
H6 H 0.2101 -0.2331 0.4537
C8 C 0.3580(3) -0.1134(7) 0.4243(4)
H7 H 0.4025 -0.2163 0.3974
H8 H 0.3799 -0.1113 0.4890
C9 C 0.3731(3) 0.0945(6) 0.3844(4)
H9 H 0.3882 0.0834 0.3222
H10 H 0.4336 0.1698 0.4187
C10 C 0.2635(3) 0.1974(5) 0.3908(3)
H11 H 0.2662 0.2766 0.4462
H12 H 0.2454 0.2906 0.3402
K1_2 K 0.0000 1.02273(12) 0.2500
K2_2 K 0.0000 1.0000 0.5000
K2A K 0.0000 0.0000 0.0000
K2A_2 K 0.0000 1.0000 0.0000
S1A S -0.01549(6) 0.46840(9) 0.12212(6)
S1B S -0.01549(6) -0.46840(9) 0.62212(6)
N1A N 0.0956(2) 0.3129(3) 0.12641(18)
N1B N 0.0956(2) -0.3129(3) 0.62641(18)
N2A N 0.0480(2) 0.6958(3) 0.13385(18)
N2_2 N -0.0480(2) -0.3042(3) 0.36615(18)
N2A_2 N 0.0480(2) -0.3042(3) 0.13385(18)
N2B N 0.0480(2) 0.3042(3) 0.63385(18)
C1A C 0.1872(3) 0.4404(4) 0.1368(2)
C2A C 0.2988(3) 0.3819(4) 0.1432(3)
H1A H 0.3178 0.2426 0.1404
C3A C 0.3822(3) 0.5326(5) 0.1537(3)
H2A H 0.4569 0.4935 0.1576
C4A C 0.3544(3) 0.7402(4) 0.1585(3)
H3A H 0.4110 0.8389 0.1657
C5A C 0.2453(3) 0.8031(4) 0.1528(3)
H4A H 0.2284 0.9431 0.1566
C6A C 0.1591(3) 0.6565(4) 0.1412(2)
O1A O -0.18084(18) 0.0359(3) 0.11048(16)
O1B O -0.18084(18) -0.0359(3) 0.61048(16)
C7A C -0.2370(3) -0.1598(5) 0.0963(3)
H5A H -0.2237 -0.2452 0.1499
H6A H -0.2101 -0.2331 0.0463
C8A C -0.3580(3) -0.1134(7) 0.0757(4)
H7A H -0.4025 -0.2163 0.1026
H8A H -0.3799 -0.1113 0.0110
C9A C -0.3731(3) 0.0945(6) 0.1156(4)
H9A H -0.3882 0.0834 0.1778
H10A H -0.4336 0.1698 0.0813
C10A C -0.2635(3) 0.1974(5) 0.1092(3)
H11A H -0.2662 0.2766 0.0538
H12A H -0.2454 0.2906 0.1598
loop_
_geom_bond_atom_site_label_1
_geom_bond_atom_site_label_2
_geom_bond_site_symmetry_1
_geom_bond_site_symmetry_2
K1 S1 1_555 1_555
K2 S1 1_555 1_555
S1 N1 1_555 1_555
N1 K1 1_555 1_555
N2 S1 1_555 1_555
C1 N1 1_555 1_555
C2 C1 1_555 1_555
H1 C2 1_555 1_555
C3 C2 1_555 1_555
H2 C3 1_555 1_555
C4 C3 1_555 1_555
H3 C4 1_555 1_555
C5 C4 1_555 1_555
H4 C5 1_555 1_555
C6 N2 1_555 1_555
O1 K1 1_555 1_555
C7 O1 1_555 1_555
H5 C7 1_555 1_555
H6 C7 1_555 1_555
C8 C7 1_555 1_555
H7 C8 1_555 1_555
H8 C8 1_555 1_555
C9 C8 1_555 1_555
H9 C9 1_555 1_555
H10 C9 1_555 1_555
C10 O1 1_555 1_555
H11 C10 1_555 1_555
H12 C10 1_555 1_555
K1_2 N2 1_555 1_555
K2_2 N2 1_555 1_555
K2A S1A 1_555 1_555
K2A_2 N2A 1_555 1_555
S1A K1 1_555 1_555
S1B K2 1_555 1_555
N1A K1 1_555 1_555
N1B K2 1_555 1_555
N2A K1_2 1_555 1_555
N2_2 K1 1_555 1_555
N2A_2 K1 1_555 1_555
N2B K2 1_555 1_555
C1A N1A 1_555 1_555
C2A C1A 1_555 1_555
H1A C2A 1_555 1_555
C3A C2A 1_555 1_555
H2A C3A 1_555 1_555
C4A C3A 1_555 1_555
H3A C4A 1_555 1_555
C5A C4A 1_555 1_555
H4A C5A 1_555 1_555
C6A N2A 1_555 1_555
O1A K1 1_555 1_555
O1B K2 1_555 1_555
C7A O1A 1_555 1_555
H5A C7A 1_555 1_555
H6A C7A 1_555 1_555
C8A C7A 1_555 1_555
H7A C8A 1_555 1_555
H8A C8A 1_555 1_555
C9A C8A 1_555 1_555
H9A C9A 1_555 1_555
H10A C9A 1_555 1_555
C10A O1A 1_555 1_555
H11A C10A 1_555 1_555
H12A C10A 1_555 1_555
K2 N1 1_555 1_555
K2 O1 1_555 1_555
K2 N2_2 1_555 1_555
C1 C6 1_555 1_555
C5 C6 1_555 1_555
C9 C10 1_555 1_555
K2A N1A 1_555 1_555
K2A N2A_2 1_555 1_555
K2A O1A 1_555 1_555
S1A N1A 1_555 1_555
S1A N2A 1_555 1_555
S1B N1B 1_555 1_555
C1A C6A 1_555 1_555
C5A C6A 1_555 1_555
C9A C10A 1_555 1_555

#END
