
#######################################################################
#
#                 Cambridge Crystallographic Data Centre
#                                CCDC 
#
#######################################################################
#
# If this CIF has been generated from an entry in the Cambridge 
# Structural Database, then it will include bibliographic, chemical, 
# crystal, experimental, refinement or atomic coordinate data resulting 
# from the CCDC's data processing and validation procedures.
#
#######################################################################

data_COQWUC
_symmetry_cell_setting           triclinic
_symmetry_space_group_name_H-M   'P -1'
_symmetry_Int_Tables_number      2
_space_group_name_Hall           '-P 1'
loop_
_symmetry_equiv_pos_site_id
_symmetry_equiv_pos_as_xyz
1 x,y,z
2 -x,-y,-z
_cell_length_a                   9.3213(6)
_cell_length_b                   9.5366(7)
_cell_length_c                   11.0391(10)
_cell_angle_alpha                98.656(7)
_cell_angle_beta                 113.153(7)
_cell_angle_gamma                92.342(6)
_cell_volume                     886.573
loop_
_atom_site_label
_atom_site_type_symbol
_atom_site_fract_x
_atom_site_fract_y
_atom_site_fract_z
Zn1 Zn 0.5000 0.5000 0.5000
Zn2 Zn 0.5000 0.0000 0.5000
S1 S 0.45087(8) 0.71119(8) 0.26836(7)
S2 S 0.23186(8) 0.21402(8) 0.34868(7)
F1 F 0.1714(2) 0.5661(2) 0.16792(19)
F2 F 0.26656(19) 0.0662(2) 0.14329(18)
F3 F 0.2035(2) 0.7147(2) 0.04990(19)
F4 F 0.0431(2) 0.0204(2) 0.15022(19)
F5 F 0.3079(2) 0.5183(2) 0.05256(19)
F6 F 0.0954(2) 0.2154(2) 0.09300(19)
O1 O 0.5132(2) 0.5962(2) 0.3397(2)
O2 O 0.3553(2) 0.3176(2) 0.3556(2)
O3 O 0.3898(2) 0.8158(2) 0.3397(2)
O4 O 0.2894(2) 0.1003(2) 0.4228(2)
O5 O 0.5455(2) 0.7656(2) 0.2071(2)
O6 O 0.0992(2) 0.2706(2) 0.3644(2)
N1 N 0.3017(3) 0.5868(3) 0.4896(3)
N2 N 0.5926(3) 0.0831(3) 0.3867(3)
N3 N 0.0394(3) 0.6657(3) 0.3937(3)
N4 N 0.6088(3) 0.1518(3) 0.1872(3)
C1 C 0.1799(3) 0.6245(3) 0.4432(3)
C2 C 0.6005(3) 0.1149(3) 0.2939(3)
C3 C 0.0180(4) 0.8149(4) 0.3836(4)
H1 H 0.1172 0.8724 0.4310
H2 H -0.0540 0.8460 0.4221
H3 H -0.0232 0.8245 0.2911
C4 C 0.7016(4) 0.0764(4) 0.1254(4)
H4 H 0.8016 0.1311 0.1532
H5 H 0.6476 0.0631 0.0297
H6 H 0.7172 -0.0149 0.1524
C5 C -0.0981(3) 0.5600(3) 0.3258(3)
H7 H -0.1382 0.5581 0.2310
H8 H -0.1776 0.5850 0.3576
H9 H -0.0691 0.4676 0.3441
C6 C 0.5524(4) 0.2854(3) 0.1458(3)
H10 H 0.4950 0.3240 0.1963
H11 H 0.4850 0.2671 0.0521
H12 H 0.6403 0.3526 0.1620
C7 C 0.2726(4) 0.6227(3) 0.1280(3)
C8 C 0.1551(3) 0.1238(3) 0.1744(3)
S2A S 0.76814(8) -0.21402(8) 0.65132(7)
F2A F 0.73344(19) -0.0662(2) 0.85671(18)
F4A F 0.9569(2) -0.0204(2) 0.84978(19)
F6A F 0.9046(2) -0.2154(2) 0.90700(19)
O2A O 0.6447(2) -0.3176(2) 0.6444(2)
O4A O 0.7106(2) -0.1003(2) 0.5772(2)
O6A O 0.9008(2) -0.2706(2) 0.6356(2)
N2A N 0.4074(3) -0.0831(3) 0.6133(3)
N4A N 0.3912(3) -0.1518(3) 0.8128(3)
C2A C 0.3995(3) -0.1149(3) 0.7061(3)
C4A C 0.2984(4) -0.0764(4) 0.8746(4)
H4A H 0.1984 -0.1311 0.8468
H5A H 0.3524 -0.0631 0.9703
H6A H 0.2828 0.0149 0.8476
C6A C 0.4476(4) -0.2854(3) 0.8542(3)
H10A H 0.5050 -0.3240 0.8037
H11A H 0.5150 -0.2671 0.9479
H12A H 0.3597 -0.3526 0.8380
C8A C 0.8449(3) -0.1238(3) 0.8256(3)
N1A N 0.6983(3) 0.4132(3) 0.5104(3)
N3A N 0.9606(3) 0.3343(3) 0.6063(3)
C1A C 0.8201(3) 0.3755(3) 0.5568(3)
C3A C 0.9820(4) 0.1851(4) 0.6164(4)
H1A H 0.8828 0.1276 0.5690
H2A H 1.0540 0.1540 0.5779
H3A H 1.0232 0.1755 0.7089
C5A C 1.0981(3) 0.4400(3) 0.6742(3)
H7A H 1.1382 0.4419 0.7690
H8A H 1.1776 0.4150 0.6424
H9A H 1.0691 0.5324 0.6559
S1A S 0.54913(8) 0.28881(8) 0.73164(7)
F1A F 0.8286(2) 0.4339(2) 0.83208(19)
F3A F 0.7965(2) 0.2853(2) 0.95010(19)
F5A F 0.6921(2) 0.4817(2) 0.94744(19)
O1A O 0.4868(2) 0.4038(2) 0.6603(2)
O3A O 0.6102(2) 0.1842(2) 0.6603(2)
O5A O 0.4545(2) 0.2344(2) 0.7929(2)
C7A C 0.7274(4) 0.3773(3) 0.8720(3)
Zn1_2 Zn 0.5000 -0.5000 0.5000
Zn2_2 Zn 0.5000 1.0000 0.5000
O2A_2 O 0.6447(2) 0.6824(2) 0.6444(2)
O3_2 O 0.3898(2) -0.1842(2) 0.3397(2)
loop_
_geom_bond_atom_site_label_1
_geom_bond_atom_site_label_2
_geom_bond_site_symmetry_1
_geom_bond_site_symmetry_2
Zn1 O1 1_555 1_555
Zn2 O4 1_555 1_555
S1 O1 1_555 1_555
S2 O2 1_555 1_555
F1 C7 1_555 1_555
F2 C8 1_555 1_555
F3 C7 1_555 1_555
F4 C8 1_555 1_555
F5 C7 1_555 1_555
F6 C8 1_555 1_555
O2 Zn1 1_555 1_555
O3 S1 1_555 1_555
O4 S2 1_555 1_555
O5 S1 1_555 1_555
O6 S2 1_555 1_555
N1 Zn1 1_555 1_555
N2 Zn2 1_555 1_555
N3 C1 1_555 1_555
N4 C2 1_555 1_555
C1 N1 1_555 1_555
C2 N2 1_555 1_555
C3 N3 1_555 1_555
H1 C3 1_555 1_555
H2 C3 1_555 1_555
H3 C3 1_555 1_555
C4 N4 1_555 1_555
H4 C4 1_555 1_555
H5 C4 1_555 1_555
H6 C4 1_555 1_555
C5 N3 1_555 1_555
H7 C5 1_555 1_555
H8 C5 1_555 1_555
H9 C5 1_555 1_555
C6 N4 1_555 1_555
H10 C6 1_555 1_555
H11 C6 1_555 1_555
H12 C6 1_555 1_555
C7 S1 1_555 1_555
C8 S2 1_555 1_555
S2A O2A 1_555 1_555
F2A C8A 1_555 1_555
F4A C8A 1_555 1_555
F6A C8A 1_555 1_555
O2A Zn1_2 1_555 1_555
O4A Zn2 1_555 1_555
O6A S2A 1_555 1_555
N2A Zn2 1_555 1_555
N4A C2A 1_555 1_555
C2A N2A 1_555 1_555
C4A N4A 1_555 1_555
H4A C4A 1_555 1_555
H5A C4A 1_555 1_555
H6A C4A 1_555 1_555
C6A N4A 1_555 1_555
H10A C6A 1_555 1_555
H11A C6A 1_555 1_555
H12A C6A 1_555 1_555
C8A S2A 1_555 1_555
N1A Zn1 1_555 1_555
N3A C1A 1_555 1_555
C1A N1A 1_555 1_555
C3A N3A 1_555 1_555
H1A C3A 1_555 1_555
H2A C3A 1_555 1_555
H3A C3A 1_555 1_555
C5A N3A 1_555 1_555
H7A C5A 1_555 1_555
H8A C5A 1_555 1_555
H9A C5A 1_555 1_555
S1A O1A 1_555 1_555
F1A C7A 1_555 1_555
F3A C7A 1_555 1_555
F5A C7A 1_555 1_555
O1A Zn1 1_555 1_555
O3A Zn2 1_555 1_555
O5A S1A 1_555 1_555
C7A S1A 1_555 1_555
Zn2_2 O3 1_555 1_555
O2A_2 Zn1 1_555 1_555
O3_2 Zn2 1_555 1_555
S2A O4A 1_555 1_555
S1A O3A 1_555 1_555

#END
