
#######################################################################
#
#                 Cambridge Crystallographic Data Centre
#                                CCDC 
#
#######################################################################
#
# If this CIF has been generated from an entry in the Cambridge 
# Structural Database, then it will include bibliographic, chemical, 
# crystal, experimental, refinement or atomic coordinate data resulting 
# from the CCDC's data processing and validation procedures.
#
#######################################################################

data_COQYUD
_symmetry_cell_setting           monoclinic
_symmetry_space_group_name_H-M   'C c'
_symmetry_Int_Tables_number      9
_space_group_name_Hall           'C -2yc'
loop_
_symmetry_equiv_pos_site_id
_symmetry_equiv_pos_as_xyz
1 x,y,z
2 x,-y,1/2+z
3 1/2+x,1/2+y,z
4 1/2+x,1/2-y,1/2+z
_cell_length_a                   15.402(4)
_cell_length_b                   8.6206(15)
_cell_length_c                   12.500(3)
_cell_angle_alpha                90
_cell_angle_beta                 97.22(2)
_cell_angle_gamma                90
_cell_volume                     1646.52
loop_
_atom_site_label
_atom_site_type_symbol
_atom_site_fract_x
_atom_site_fract_y
_atom_site_fract_z
P1 P 0.62308(5) 0.05718(9) 0.44658(6)
Na1 Na 0.63498(8) 0.18074(12) 0.17442(8)
N1 N 0.68029(18) 0.0689(3) 0.3442(2)
N2 N 0.68883(16) -0.0530(3) 0.52865(19)
O1 O 0.48484(17) 0.1777(3) 0.1228(2)
C1 C 0.9000(2) -0.1938(4) 0.4521(3)
H1 H 0.9497 -0.2542 0.4785
C2 C 0.8337(2) -0.1730(4) 0.5160(3)
H2 H 0.8377 -0.2189 0.5856
O2 O 0.6529(2) 0.4472(3) 0.2004(2)
C3 C 0.76072(19) -0.0838(3) 0.4770(2)
C4 C 0.8236(2) -0.0395(4) 0.3081(3)
H3 H 0.8205 0.0039 0.2379
C5 C 0.75543(19) -0.0154(3) 0.3718(2)
C6 C 0.8951(2) -0.1273(4) 0.3497(3)
H4 H 0.9417 -0.1428 0.3078
C7 C 0.4239(3) 0.0657(5) 0.1535(4)
H5 H 0.4171 0.0751 0.2309
H6 H 0.4429 -0.0411 0.1388
C8 C 0.6018(4) 0.5706(5) 0.1507(4)
H7 H 0.5461 0.5300 0.1131
H8 H 0.6338 0.6233 0.0972
C9 C 0.3707(4) 0.1636(7) -0.0180(7)
H9 H 0.3870 0.0767 -0.0633
H10 H 0.3263 0.2292 -0.0606
C10 C 0.4475(3) 0.2542(7) 0.0262(5)
H11 H 0.4905 0.2590 -0.0264
H12 H 0.4300 0.3614 0.0424
C11 C 0.3393(3) 0.1067(7) 0.0829(7)
H13 H 0.3013 0.0145 0.0688
H14 H 0.3067 0.1885 0.1166
C12 C 0.6873(4) 0.4994(6) 0.3054(4)
H15 H 0.7441 0.5524 0.3040
H16 H 0.6954 0.4115 0.3566
C13 C 0.5844(5) 0.6801(7) 0.2352(6)
H17 H 0.6129 0.7811 0.2254
H18 H 0.5206 0.6971 0.2337
C14 C 0.6207(4) 0.6084(8) 0.3359(5)
H19 H 0.5748 0.5526 0.3693
H20 H 0.6477 0.6872 0.3873
Na1A Na 0.63498(8) -0.18074(12) 0.67442(8)
N2A N 0.68883(16) 0.0530(3) 0.02865(19)
loop_
_geom_bond_atom_site_label_1
_geom_bond_atom_site_label_2
_geom_bond_site_symmetry_1
_geom_bond_site_symmetry_2
P1 N1 1_555 1_555
Na1 N1 1_555 1_555
N1 C5 1_555 1_555
N2 P1 1_555 1_555
O1 Na1 1_555 1_555
C1 H1 1_555 1_555
C2 C1 1_555 1_555
H2 C2 1_555 1_555
O2 Na1 1_555 1_555
C3 N2 1_555 1_555
C4 H3 1_555 1_555
C5 C3 1_555 1_555
C6 C1 1_555 1_555
H4 C6 1_555 1_555
C7 O1 1_555 1_555
H5 C7 1_555 1_555
H6 C7 1_555 1_555
C8 O2 1_555 1_555
H7 C8 1_555 1_555
H8 C8 1_555 1_555
C9 H9 1_555 1_555
H10 C9 1_555 1_555
C10 O1 1_555 1_555
H11 C10 1_555 1_555
H12 C10 1_555 1_555
C11 C7 1_555 1_555
H13 C11 1_555 1_555
H14 C11 1_555 1_555
C12 O2 1_555 1_555
H15 C12 1_555 1_555
H16 C12 1_555 1_555
C13 C8 1_555 1_555
H17 C13 1_555 1_555
H18 C13 1_555 1_555
C14 C12 1_555 1_555
H19 C14 1_555 1_555
H20 C14 1_555 1_555
Na1A N2 1_555 1_555
N2A Na1 1_555 1_555
C2 C3 1_555 1_555
C4 C5 1_555 1_555
C4 C6 1_555 1_555
C9 C10 1_555 1_555
C9 C11 1_555 1_555
C13 C14 1_555 1_555

#END
