
#######################################################################
#
#                 Cambridge Crystallographic Data Centre
#                                CCDC 
#
#######################################################################
#
# If this CIF has been generated from an entry in the Cambridge 
# Structural Database, then it will include bibliographic, chemical, 
# crystal, experimental, refinement or atomic coordinate data resulting 
# from the CCDC's data processing and validation procedures.
#
#######################################################################

data_CORBAN
_symmetry_cell_setting           monoclinic
_symmetry_space_group_name_H-M   'C 2/c'
_symmetry_Int_Tables_number      15
_space_group_name_Hall           '-C 2yn'
loop_
_symmetry_equiv_pos_site_id
_symmetry_equiv_pos_as_xyz
1 x,y,z
2 -x,y,1/2-z
3 1/2+x,1/2+y,z
4 1/2-x,1/2+y,1/2-z
5 -x,-y,-z
6 x,-y,1/2+z
7 1/2-x,1/2-y,-z
8 1/2+x,1/2-y,1/2+z
_cell_length_a                   19.960(4)
_cell_length_b                   8.6785(17)
_cell_length_c                   18.633(4)
_cell_angle_alpha                90
_cell_angle_beta                 121.34(3)
_cell_angle_gamma                90
_cell_volume                     2756.73
loop_
_atom_site_label
_atom_site_type_symbol
_atom_site_fract_x
_atom_site_fract_y
_atom_site_fract_z
Ag1 Ag 0.51807(3) -1.52664(6) -0.11931(3)
C1 C 0.6846(3) -1.1398(6) -0.2024(3)
H1 H 0.6768 -1.2183 -0.2432
H2 H 0.7399 -1.1139 -0.1703
C2 C 0.6371(3) -0.9982(6) -0.2474(3)
C3 C 0.5605(3) -1.0098(7) -0.3118(4)
H3 H 0.5372 -1.1059 -0.3306
C4 C 0.5186(3) -0.8772(8) -0.3484(4)
H4 H 0.4666 -0.8863 -0.3919
C5 C 0.6230(4) -0.7278(7) -0.2632(4)
H5 H 0.6451 -0.6304 -0.2459
C6 C 0.6688(3) -0.8535(7) -0.2242(3)
H6 H 0.7212 -0.8411 -0.1822
C7 C 0.6721(2) -1.1359(6) -0.0732(3)
C8 C 0.7170(3) -1.0132(6) -0.0245(3)
H7 H 0.7476 -0.9543 -0.0383
C9 C 0.7130(4) -0.9847(7) 0.0457(4)
H8 H 0.7418 -0.9030 0.0805
C10 C 0.6670(4) -1.0744(9) 0.0669(4)
H9 H 0.6659 -1.0496 0.1147
C11 C 0.6243(3) -1.1964(7) 0.0192(3)
H10 H 0.5946 -1.2567 0.0338
C12 C 0.6272(3) -1.2266(6) -0.0525(3)
N1 N 0.5487(3) -0.7379(6) -0.3247(3)
N2 N 0.5908(2) -1.3366(5) -0.1136(3)
N3 N 0.6103(3) -1.3203(5) -0.1705(3)
N4 N 0.6600(2) -1.1986(5) -0.1463(2)
Ag1A Ag 0.48193(3) -0.52664(6) -0.38069(3)
N1A N 0.4513(3) -1.7379(6) -0.1753(3)
N5 N 0.3925(3) 0.6242(7) -0.0771(4)
O1 O 0.4603(6) 0.6324(17) -0.0392(7)
O2 O 0.3616(3) 0.6298(9) -0.0378(4)
O3 O 0.3650(4) 0.5888(9) -0.1489(4)
loop_
_geom_bond_atom_site_label_1
_geom_bond_atom_site_label_2
_geom_bond_site_symmetry_1
_geom_bond_site_symmetry_2
Ag1 N2 1_555 1_555
C1 H1 1_555 1_555
H2 C1 1_555 1_555
C2 C1 1_555 1_555
C3 C2 1_555 1_555
H3 C3 1_555 1_555
C4 C3 1_555 1_555
H4 C4 1_555 1_555
C5 H5 1_555 1_555
C6 C2 1_555 1_555
H6 C6 1_555 1_555
C7 C8 1_555 1_555
C8 H7 1_555 1_555
C9 C8 1_555 1_555
H8 C9 1_555 1_555
C10 C9 1_555 1_555
H9 C10 1_555 1_555
C11 C10 1_555 1_555
H10 C11 1_555 1_555
C12 C7 1_555 1_555
N1 C4 1_555 1_555
N2 C12 1_555 1_555
N3 N2 1_555 1_555
N4 C1 1_555 1_555
N5 O1 1_555 1_555
O2 N5 1_555 1_555
O3 N5 1_555 1_555
Ag1A N1 1_555 1_555
N1A Ag1 1_555 1_555
C5 C6 1_555 1_555
C5 N1 1_555 1_555
C7 N4 1_555 1_555
C11 C12 1_555 1_555
N3 N4 1_555 1_555

#END
