
#######################################################################
#
#                 Cambridge Crystallographic Data Centre
#                                CCDC 
#
#######################################################################
#
# If this CIF has been generated from an entry in the Cambridge 
# Structural Database, then it will include bibliographic, chemical, 
# crystal, experimental, refinement or atomic coordinate data resulting 
# from the CCDC's data processing and validation procedures.
#
#######################################################################

data_CORDIY
_symmetry_cell_setting           triclinic
_symmetry_space_group_name_H-M   'P -1'
_symmetry_Int_Tables_number      2
_space_group_name_Hall           '-P 1'
loop_
_symmetry_equiv_pos_site_id
_symmetry_equiv_pos_as_xyz
1 x,y,z
2 -x,-y,-z
_cell_length_a                   9.6458(2)
_cell_length_b                   10.0989(3)
_cell_length_c                   12.4871(4)
_cell_angle_alpha                95.430(2)
_cell_angle_beta                 104.581(3)
_cell_angle_gamma                97.247(2)
_cell_volume                     1157.65
loop_
_atom_site_label
_atom_site_type_symbol
_atom_site_fract_x
_atom_site_fract_y
_atom_site_fract_z
Dy1 Dy 0.75213(2) 0.48209(2) 0.010864(18)
O1 O 0.8729(3) 0.4358(4) -0.1186(3)
O2 O 0.8557(3) 0.2768(4) 0.0472(3)
O3 O 1.0701(3) 0.4537(4) -0.1770(3)
O4 O 0.6290(4) 0.6125(4) 0.0959(3)
O5 O 0.8605(3) 0.7038(3) -0.0248(3)
O6 O 0.6487(3) 0.3497(4) 0.1349(3)
O7 O 0.4249(3) 0.6766(3) 0.1101(3)
O8 O 0.6413(3) 0.6188(3) -0.1308(3)
C1 C 0.5598(4) 0.6886(4) 0.1373(3)
C2 C 0.9344(4) 0.4348(4) -0.1948(3)
C3 C 0.6415(5) 0.8038(5) 0.2248(4)
C4 C 0.8453(5) 0.4085(4) -0.3143(3)
C5 C 0.7594(5) 0.8193(5) -0.1771(4)
C6 C 0.6139(6) 0.3713(7) -0.4491(5)
H1 H 0.5133 0.3609 -0.4655
C7 C 0.5691(5) 0.8894(5) 0.2753(4)
H2 H 0.4682 0.8763 0.2540
C8 C 0.6431(7) 0.9941(6) 0.3567(5)
H3 H 0.5923 1.0502 0.3901
C9 C 0.6955(5) 0.3918(5) -0.3389(4)
H4 H 0.6499 0.3943 -0.2816
C10 C 0.6687(7) 0.2110(6) 0.1319(6)
H5 H 0.6078 0.1586 0.0633
H6 H 0.6445 0.1732 0.1946
C11 C 0.8289(6) 0.2106(6) 0.1382(5)
H7 H 0.8895 0.2584 0.2088
H8 H 0.8494 0.1190 0.1312
C12 C 0.6802(8) 0.3663(7) -0.5346(5)
H9 H 0.6250 0.3553 -0.6084
C13 C 0.7005(6) 0.7928(6) -0.2912(5)
H10 H 0.6556 0.7063 -0.3236
C14 C 0.7917(6) 0.8292(8) 0.2558(6)
H11 H 0.8439 0.7754 0.2215
C15 C 0.9109(6) 0.3968(7) -0.3993(5)
H12 H 1.0111 0.4017 -0.3828
C16 C 0.8243(7) 0.9494(5) -0.1305(5)
H13 H 0.8663 0.9684 -0.0540
C17 C 0.7080(8) 0.8934(7) -0.3571(6)
H14 H 0.6707 0.8743 -0.4341
C18 C 0.7921(8) 1.0153(7) 0.3885(6)
H15 H 0.8427 1.0847 0.4443
C19 C 0.7526(5) 0.7085(5) -0.1070(4)
C20 C 0.7711(7) 1.0235(6) -0.3088(6)
H16 H 0.7750 1.0921 -0.3532
C21 C 0.8297(9) 0.3778(9) -0.5097(5)
H17 H 0.8755 0.3728 -0.5668
C22 C 0.8641(7) 0.9345(10) 0.3378(7)
H18 H 0.9650 0.9500 0.3584
C23 C 0.8271(8) 1.0499(6) -0.1963(7)
H19 H 0.8678 1.1375 -0.1637
H20 H 0.940(4) 0.270(9) 0.038(7)
H21 H 0.562(4) 0.356(9) 0.140(7)
Dy1A Dy 0.24787(2) 0.51791(2) -0.010864(18)
Dy1A_2 Dy 1.24787(2) 0.51791(2) -0.010864(18)
O3A O 0.9299(3) 0.5463(4) 0.1770(3)
O7A O 0.5751(3) 0.3234(3) -0.1101(3)
loop_
_geom_bond_atom_site_label_1
_geom_bond_atom_site_label_2
_geom_bond_site_symmetry_1
_geom_bond_site_symmetry_2
Dy1 O1 1_555 1_555
O1 C2 1_555 1_555
O2 Dy1 1_555 1_555
O3 C2 1_555 1_555
O4 Dy1 1_555 1_555
O5 Dy1 1_555 1_555
O6 Dy1 1_555 1_555
O7 C1 1_555 1_555
O8 Dy1 1_555 1_555
C1 O4 1_555 1_555
C2 C4 1_555 1_555
C3 C1 1_555 1_555
C4 C9 1_555 1_555
C5 C13 1_555 1_555
C6 H1 1_555 1_555
C7 C3 1_555 1_555
H2 C7 1_555 1_555
C8 C7 1_555 1_555
H3 C8 1_555 1_555
C9 C6 1_555 1_555
H4 C9 1_555 1_555
C10 O6 1_555 1_555
H5 C10 1_555 1_555
H6 C10 1_555 1_555
C11 O2 1_555 1_555
H7 C11 1_555 1_555
H8 C11 1_555 1_555
C12 C6 1_555 1_555
H9 C12 1_555 1_555
C13 H10 1_555 1_555
C14 C3 1_555 1_555
H11 C14 1_555 1_555
C15 C4 1_555 1_555
H12 C15 1_555 1_555
C16 C5 1_555 1_555
H13 C16 1_555 1_555
C17 C13 1_555 1_555
H14 C17 1_555 1_555
C18 C8 1_555 1_555
H15 C18 1_555 1_555
C19 O5 1_555 1_555
C20 C17 1_555 1_555
H16 C20 1_555 1_555
C21 C12 1_555 1_555
H17 C21 1_555 1_555
C22 C14 1_555 1_555
H18 C22 1_555 1_555
C23 C16 1_555 1_555
H19 C23 1_555 1_555
H20 O2 1_555 1_555
H21 O6 1_555 1_555
Dy1A O7 1_555 1_555
Dy1A_2 O3 1_555 1_555
O3A Dy1 1_555 1_555
O7A Dy1 1_555 1_555
O8 C19 1_555 1_555
C5 C19 1_555 1_555
C10 C11 1_555 1_555
C15 C21 1_555 1_555
C18 C22 1_555 1_555
C20 C23 1_555 1_555

#END
