
#######################################################################
#
#                 Cambridge Crystallographic Data Centre
#                                CCDC 
#
#######################################################################
#
# If this CIF has been generated from an entry in the Cambridge 
# Structural Database, then it will include bibliographic, chemical, 
# crystal, experimental, refinement or atomic coordinate data resulting 
# from the CCDC's data processing and validation procedures.
#
#######################################################################

data_CORHAS07
_symmetry_cell_setting           monoclinic
_symmetry_space_group_name_H-M   'C 2/c'
_symmetry_Int_Tables_number      15
_space_group_name_Hall           '-C 2yn'
loop_
_symmetry_equiv_pos_site_id
_symmetry_equiv_pos_as_xyz
1 x,y,z
2 -x,y,1/2-z
3 1/2+x,1/2+y,z
4 1/2-x,1/2+y,1/2-z
5 -x,-y,-z
6 x,-y,1/2+z
7 1/2-x,1/2-y,-z
8 1/2+x,1/2-y,1/2+z
_cell_length_a                   14.8626(17)
_cell_length_b                   13.8218(13)
_cell_length_c                   7.0103(7)
_cell_angle_alpha                90
_cell_angle_beta                 109.032(2)
_cell_angle_gamma                90
_cell_volume                     1361.39
loop_
_atom_site_label
_atom_site_type_symbol
_atom_site_fract_x
_atom_site_fract_y
_atom_site_fract_z
Cu1 Cu 0.0000 0.20102(4) 0.2500
N1 N 0.09070(19) 0.31069(18) 0.2634(4)
C1 C 0.0491(2) 0.3986(2) 0.2576(5)
C2 C 0.0969(3) 0.4860(2) 0.2627(5)
C3 C 0.1936(3) 0.4792(3) 0.2744(6)
H1 H 0.2293 0.5357 0.2787
C4 C 0.1811(3) 0.3079(2) 0.2728(6)
H2 H 0.2103 0.2474 0.2750
C5 C 0.2348(3) 0.3915(3) 0.2795(6)
H3 H 0.2991 0.3870 0.2874
S1 S 0.0000 0.13926(8) -0.2500
O1 O -0.03698(18) 0.19818(14) -0.1188(4)
O2 O 0.07710(16) 0.07521(16) -0.1211(3)
O3 O -0.09804(17) 0.10375(17) 0.2411(3)
H4 H -0.0969 0.0913 0.3577
C6 C 0.0462(3) 0.5744(2) 0.2566(5)
H5 H 0.0779 0.6337 0.2618
H6 H -0.086(3) 0.049(3) 0.198(7)
N1A N -0.09070(19) 0.31069(18) 0.2366(4)
C1A C -0.0491(2) 0.3986(2) 0.2424(5)
C2A C -0.0969(3) 0.4860(2) 0.2373(5)
C3A C -0.1936(3) 0.4792(3) 0.2256(6)
H1A H -0.2293 0.5357 0.2213
C4A C -0.1811(3) 0.3079(2) 0.2272(6)
H2A H -0.2103 0.2474 0.2250
C5A C -0.2348(3) 0.3915(3) 0.2205(6)
H3A H -0.2991 0.3870 0.2126
C6A C -0.0462(3) 0.5744(2) 0.2434(5)
H5A H -0.0779 0.6337 0.2382
O1A O 0.03698(18) 0.19818(14) -0.3812(4)
O2A O -0.07710(16) 0.07521(16) -0.3789(3)
O3A O 0.09804(17) 0.10375(17) 0.2589(3)
H4A H 0.0969 0.0913 0.1423
H6A H 0.086(3) 0.049(3) 0.302(7)
Cu1_2 Cu 0.0000 0.20102(4) -0.7500
O1A_2 O 0.03698(18) 0.19818(14) 0.6188(4)
loop_
_geom_bond_atom_site_label_1
_geom_bond_atom_site_label_2
_geom_bond_site_symmetry_1
_geom_bond_site_symmetry_2
Cu1 N1 1_555 1_555
N1 C1 1_555 1_555
C1 C2 1_555 1_555
C2 C3 1_555 1_555
C3 H1 1_555 1_555
C4 N1 1_555 1_555
H2 C4 1_555 1_555
C5 C3 1_555 1_555
H3 C5 1_555 1_555
S1 O1 1_555 1_555
O1 Cu1 1_555 1_555
O2 S1 1_555 1_555
O3 Cu1 1_555 1_555
H4 O3 1_555 1_555
C6 C2 1_555 1_555
H5 C6 1_555 1_555
H6 O3 1_555 1_555
N1A Cu1 1_555 1_555
C1A C1 1_555 1_555
C2A C1A 1_555 1_555
C3A C2A 1_555 1_555
H1A C3A 1_555 1_555
C4A N1A 1_555 1_555
H2A C4A 1_555 1_555
C5A C3A 1_555 1_555
H3A C5A 1_555 1_555
C6A C6 1_555 1_555
H5A C6A 1_555 1_555
O1A S1 1_555 1_555
O2A S1 1_555 1_555
O3A Cu1 1_555 1_555
H4A O3A 1_555 1_555
H6A O3A 1_555 1_555
Cu1_2 O1A 1_555 1_555
O1A_2 Cu1 1_555 1_555
C4 C5 1_555 1_555
N1A C1A 1_555 1_555
C2A C6A 1_555 1_555
C4A C5A 1_555 1_555

#END
