
#######################################################################
#
#                 Cambridge Crystallographic Data Centre
#                                CCDC 
#
#######################################################################
#
# If this CIF has been generated from an entry in the Cambridge 
# Structural Database, then it will include bibliographic, chemical, 
# crystal, experimental, refinement or atomic coordinate data resulting 
# from the CCDC's data processing and validation procedures.
#
#######################################################################

data_CORHAS03
_symmetry_cell_setting           monoclinic
_symmetry_space_group_name_H-M   'C 2/c'
_symmetry_Int_Tables_number      15
_space_group_name_Hall           '-C 2yn'
loop_
_symmetry_equiv_pos_site_id
_symmetry_equiv_pos_as_xyz
1 x,y,z
2 -x,y,1/2-z
3 1/2+x,1/2+y,z
4 1/2-x,1/2+y,1/2-z
5 -x,-y,-z
6 x,-y,1/2+z
7 1/2-x,1/2-y,-z
8 1/2+x,1/2-y,1/2+z
_cell_length_a                   14.8320(10)
_cell_length_b                   13.7910(9)
_cell_length_c                   6.9914(3)
_cell_angle_alpha                90
_cell_angle_beta                 109.525(5)
_cell_angle_gamma                90
_cell_volume                     1347.84
loop_
_atom_site_label
_atom_site_type_symbol
_atom_site_fract_x
_atom_site_fract_y
_atom_site_fract_z
Cu1 Cu 0.0000 0.20155(3) 0.2500
S1 S 0.0000 0.13900(5) -0.2500
O1 O 0.09886(11) 0.10438(11) 0.2610(2)
H1 H 0.091(2) 0.0487(15) 0.302(4)
H2 H 0.091(2) 0.097(2) 0.136(3)
O2 O -0.03728(11) 0.19805(10) -0.1193(2)
O3 O -0.07758(10) 0.07497(11) -0.3803(2)
N1 N -0.09105(13) 0.31098(13) 0.2364(3)
C1 C -0.04917(16) 0.39936(15) 0.2429(3)
C2 C -0.18174(16) 0.30811(16) 0.2268(3)
H3 H -0.2113 0.2467 0.2235
C3 C -0.23567(17) 0.39201(18) 0.2214(3)
H4 H -0.3006 0.3873 0.2146
C4 C -0.19400(17) 0.48071(17) 0.2260(3)
H5 H -0.2301 0.5381 0.2211
C5 C -0.09748(17) 0.48689(16) 0.2380(3)
C6 C -0.04644(17) 0.57579(16) 0.2449(3)
H6 H -0.0783 0.6358 0.2422
Cu1_2 Cu 0.0000 0.20155(3) -0.7500
O1A O -0.09886(11) 0.10438(11) 0.2390(2)
H1A H -0.091(2) 0.0487(15) 0.198(4)
H2A H -0.091(2) 0.097(2) 0.364(3)
O2A O 0.03728(11) 0.19805(10) -0.3807(2)
O2A_2 O 0.03728(11) 0.19805(10) 0.6193(2)
O3A O 0.07758(10) 0.07497(11) -0.1197(2)
N1A N 0.09105(13) 0.31098(13) 0.2636(3)
C1A C 0.04917(16) 0.39936(15) 0.2571(3)
C2A C 0.18174(16) 0.30811(16) 0.2732(3)
H3A H 0.2113 0.2467 0.2765
C3A C 0.23567(17) 0.39201(18) 0.2786(3)
H4A H 0.3006 0.3873 0.2854
C4A C 0.19400(17) 0.48071(17) 0.2740(3)
H5A H 0.2301 0.5381 0.2789
C5A C 0.09748(17) 0.48689(16) 0.2620(3)
C6A C 0.04644(17) 0.57579(16) 0.2551(3)
H6A H 0.0783 0.6358 0.2578
loop_
_geom_bond_atom_site_label_1
_geom_bond_atom_site_label_2
_geom_bond_site_symmetry_1
_geom_bond_site_symmetry_2
Cu1 O1 1_555 1_555
S1 O2 1_555 1_555
O1 H1 1_555 1_555
H2 O1 1_555 1_555
O2 Cu1 1_555 1_555
O3 S1 1_555 1_555
N1 Cu1 1_555 1_555
C1 N1 1_555 1_555
C2 N1 1_555 1_555
H3 C2 1_555 1_555
C3 C2 1_555 1_555
H4 C3 1_555 1_555
C4 C3 1_555 1_555
H5 C4 1_555 1_555
C5 C1 1_555 1_555
C6 C5 1_555 1_555
H6 C6 1_555 1_555
Cu1_2 O2A 1_555 1_555
O1A Cu1 1_555 1_555
H1A O1A 1_555 1_555
H2A O1A 1_555 1_555
O2A S1 1_555 1_555
O2A_2 Cu1 1_555 1_555
O3A S1 1_555 1_555
N1A Cu1 1_555 1_555
C1A C1 1_555 1_555
C2A N1A 1_555 1_555
H3A C2A 1_555 1_555
C3A C2A 1_555 1_555
H4A C3A 1_555 1_555
C4A C3A 1_555 1_555
H5A C4A 1_555 1_555
C5A C1A 1_555 1_555
C6A C6 1_555 1_555
H6A C6A 1_555 1_555
C4 C5 1_555 1_555
N1A C1A 1_555 1_555
C4A C5A 1_555 1_555
C5A C6A 1_555 1_555

#END
