
#######################################################################
#
#                 Cambridge Crystallographic Data Centre
#                                CCDC 
#
#######################################################################
#
# If this CIF has been generated from an entry in the Cambridge 
# Structural Database, then it will include bibliographic, chemical, 
# crystal, experimental, refinement or atomic coordinate data resulting 
# from the CCDC's data processing and validation procedures.
#
#######################################################################

data_CORHAS
_symmetry_cell_setting           monoclinic
_symmetry_space_group_name_H-M   'C 2/c'
_symmetry_Int_Tables_number      15
_space_group_name_Hall           '-C 2yn'
loop_
_symmetry_equiv_pos_site_id
_symmetry_equiv_pos_as_xyz
1 x,y,z
2 1/2+x,1/2+y,z
3 -x,y,1/2-z
4 1/2-x,1/2+y,1/2-z
5 -x,-y,-z
6 1/2-x,1/2-y,-z
7 x,-y,1/2+z
8 1/2+x,1/2-y,1/2+z
_cell_length_a                   14.883(8)
_cell_length_b                   13.843(9)
_cell_length_c                   7.019(4)
_cell_angle_alpha                90
_cell_angle_beta                 108.60(4)
_cell_angle_gamma                90
_cell_volume                     1370.56
loop_
_atom_site_label
_atom_site_type_symbol
_atom_site_fract_x
_atom_site_fract_y
_atom_site_fract_z
S1 S 0.0000 0.13935(6) 0.7500
Cu1 Cu 0.0000 0.20066(3) 0.2500
C1 C 0.0487(2) 0.3982(2) 0.2576(4)
N1 N 0.0904(2) 0.3102(1) 0.2629(3)
C2 C 0.0462(2) 0.5741(2) 0.2561(5)
C3 C 0.1811(2) 0.3075(2) 0.2737(5)
H1 H 0.078(2) 0.635(3) 0.258(5)
H2 H 0.205(2) 0.245(3) 0.269(5)
C4 C 0.2347(3) 0.3914(3) 0.2801(5)
O1 O 0.0371(2) 0.1984(1) 0.6187(3)
H3 H 0.292(3) 0.388(3) 0.291(6)
O2 O 0.0768(1) 0.0757(1) 0.8771(3)
C5 C 0.1933(2) 0.4792(3) 0.2755(5)
O3 O -0.0979(1) 0.1038(1) 0.2436(3)
H4 H 0.231(3) 0.534(3) 0.285(6)
H5 H -0.087(3) 0.091(3) 0.375(7)
C6 C 0.0973(2) 0.4855(2) 0.2633(4)
H6 H -0.085(3) 0.052(3) 0.197(6)
O1B O -0.0371(2) 0.1984(1) 0.8813(3)
O2B O -0.0768(1) 0.0757(1) 0.6229(3)
N1B N -0.0904(2) 0.3102(1) 0.2371(3)
O1B_2 O -0.0371(2) 0.1984(1) -0.1187(3)
O3B O 0.0979(1) 0.1038(1) 0.2564(3)
C1B C -0.0487(2) 0.3982(2) 0.2424(4)
C2B C -0.0462(2) 0.5741(2) 0.2439(5)
Cu1_2 Cu 0.0000 0.20066(3) 1.2500
C3B C -0.1811(2) 0.3075(2) 0.2263(5)
H5B H 0.087(3) 0.091(3) 0.125(7)
H6B H 0.085(3) 0.052(3) 0.303(6)
C6B C -0.0973(2) 0.4855(2) 0.2367(4)
H1B H -0.078(2) 0.635(3) 0.242(5)
H2B H -0.205(2) 0.245(3) 0.231(5)
C4B C -0.2347(3) 0.3914(3) 0.2199(5)
C5B C -0.1933(2) 0.4792(3) 0.2245(5)
H3B H -0.292(3) 0.388(3) 0.209(6)
H4B H -0.231(3) 0.534(3) 0.215(6)
loop_
_geom_bond_atom_site_label_1
_geom_bond_atom_site_label_2
_geom_bond_site_symmetry_1
_geom_bond_site_symmetry_2
S1 O1 1_555 1_555
Cu1 N1 1_555 1_555
C1 N1 1_555 1_555
N1 C3 1_555 1_555
C2 H1 1_555 1_555
C3 H2 1_555 1_555
C4 C3 1_555 1_555
O1 Cu1 1_555 1_555
H3 C4 1_555 1_555
O2 S1 1_555 1_555
C5 C4 1_555 1_555
O3 Cu1 1_555 1_555
H4 C5 1_555 1_555
H5 O3 1_555 1_555
C6 C1 1_555 1_555
H6 O3 1_555 1_555
O1B S1 1_555 1_555
O2B S1 1_555 1_555
N1B Cu1 1_555 1_555
O1B_2 Cu1 1_555 1_555
O3B Cu1 1_555 1_555
C1B C1 1_555 1_555
C2B C2 1_555 1_555
Cu1_2 O1B 1_555 1_555
C3B N1B 1_555 1_555
H5B O3B 1_555 1_555
H6B O3B 1_555 1_555
C6B C1B 1_555 1_555
H1B C2B 1_555 1_555
H2B C3B 1_555 1_555
C4B C3B 1_555 1_555
C5B C6B 1_555 1_555
H3B C4B 1_555 1_555
H4B C5B 1_555 1_555
C2 C6 1_555 1_555
C5 C6 1_555 1_555
N1B C1B 1_555 1_555
C2B C6B 1_555 1_555
C4B C5B 1_555 1_555

#END
