
#######################################################################
#
#                 Cambridge Crystallographic Data Centre
#                                CCDC 
#
#######################################################################
#
# If this CIF has been generated from an entry in the Cambridge 
# Structural Database, then it will include bibliographic, chemical, 
# crystal, experimental, refinement or atomic coordinate data resulting 
# from the CCDC's data processing and validation procedures.
#
#######################################################################

data_CORHAS01
_symmetry_cell_setting           monoclinic
_symmetry_space_group_name_H-M   'C c'
_symmetry_Int_Tables_number      9
_space_group_name_Hall           'C -2yc'
loop_
_symmetry_equiv_pos_site_id
_symmetry_equiv_pos_as_xyz
1 x,y,z
2 x,-y,1/2+z
3 1/2+x,1/2+y,z
4 1/2+x,1/2-y,1/2+z
_cell_length_a                   14.900(3)
_cell_length_b                   13.852(3)
_cell_length_c                   7.0230(14)
_cell_angle_alpha                90
_cell_angle_beta                 108.64(3)
_cell_angle_gamma                90
_cell_volume                     1373.48
loop_
_atom_site_label
_atom_site_type_symbol
_atom_site_fract_x
_atom_site_fract_y
_atom_site_fract_z
Cu1 Cu 0.3094(2) 0.29937(3) 0.4238(4)
S1 S 0.3122(4) 0.36042(8) 0.9236(9)
O1 O 0.2325(7) 0.4225(6) 0.7975(12)
O2 O 0.3870(6) 0.4258(6) 1.0520(12)
O3 O 0.3457(8) 0.3038(6) 0.7900(15)
O4 O 0.2723(8) 0.2995(6) 1.0538(16)
O5 O 0.4072(7) 0.3946(5) 0.4294(13)
O6 O 0.2116(7) 0.4001(6) 0.4163(12)
N1 N 0.2199(10) 0.1856(8) 0.4126(17)
N2 N 0.3998(10) 0.1938(6) 0.4394(18)
C1 C 0.1255(10) 0.1887(11) 0.4010(23)
H1 H 0.0967(10) 0.2484(11) 0.3994(23)
C2 C 0.0736(10) 0.1072(10) 0.3917(24)
H2 H 0.0095(10) 0.1110(10) 0.3781(24)
C3 C 0.1143(12) 0.0248(12) 0.4021(28)
H3 H 0.0787(12) -0.0305(12) 0.4002(28)
C4 C 0.2143(15) 0.0135(10) 0.4169(22)
C5 C 0.2624(9) -0.0783(8) 0.4179(17)
H4 H 0.2336(9) -0.1383(8) 0.4121(17)
C6 C 0.3549(14) -0.0657(13) 0.4282(22)
H5 H 0.3872(14) -0.1228(13) 0.4245(22)
C7 C 0.4083(11) 0.0161(8) 0.4429(23)
C8 C 0.5006(12) 0.0184(10) 0.4529(25)
H6 H 0.5353(12) -0.0380(10) 0.4607(25)
C9 C 0.5421(11) 0.1106(10) 0.4508(22)
H7 H 0.6045(11) 0.1155(10) 0.4517(22)
C10 C 0.4874(12) 0.1956(10) 0.4472(25)
H8 H 0.5164(12) 0.2553(10) 0.4507(25)
C11 C 0.3648(11) 0.1013(10) 0.4288(20)
C12 C 0.2682(10) 0.1005(10) 0.4150(19)
O4_2 O 0.2723(8) 0.2995(6) 0.0538(16)
Cu1_2 Cu 0.3094(2) 0.29937(3) 1.4238(4)
loop_
_geom_bond_atom_site_label_1
_geom_bond_atom_site_label_2
_geom_bond_site_symmetry_1
_geom_bond_site_symmetry_2
Cu1 O3 1_555 1_555
S1 O1 1_555 1_555
O2 S1 1_555 1_555
O3 S1 1_555 1_555
O4 S1 1_555 1_555
O5 Cu1 1_555 1_555
O6 Cu1 1_555 1_555
N1 Cu1 1_555 1_555
N2 Cu1 1_555 1_555
C1 N1 1_555 1_555
H1 C1 1_555 1_555
C2 C1 1_555 1_555
H2 C2 1_555 1_555
C3 C2 1_555 1_555
H3 C3 1_555 1_555
C4 C3 1_555 1_555
C5 C4 1_555 1_555
H4 C5 1_555 1_555
C6 C5 1_555 1_555
H5 C6 1_555 1_555
C7 C6 1_555 1_555
C8 C7 1_555 1_555
H6 C8 1_555 1_555
C9 C8 1_555 1_555
H7 C9 1_555 1_555
C10 N2 1_555 1_555
H8 C10 1_555 1_555
C11 N2 1_555 1_555
C12 N1 1_555 1_555
O4_2 Cu1 1_555 1_555
Cu1_2 O4 1_555 1_555
C4 C12 1_555 1_555
C7 C11 1_555 1_555
C9 C10 1_555 1_555
C11 C12 1_555 1_555

#END
