
#######################################################################
#
#                 Cambridge Crystallographic Data Centre
#                                CCDC 
#
#######################################################################
#
# If this CIF has been generated from an entry in the Cambridge 
# Structural Database, then it will include bibliographic, chemical, 
# crystal, experimental, refinement or atomic coordinate data resulting 
# from the CCDC's data processing and validation procedures.
#
#######################################################################

data_CORJEZ
_symmetry_cell_setting           orthorhombic
_symmetry_space_group_name_H-M   'P b c a'
_symmetry_Int_Tables_number      61
_space_group_name_Hall           '-P 2ac 2ab'
loop_
_symmetry_equiv_pos_site_id
_symmetry_equiv_pos_as_xyz
1 x,y,z
2 1/2-x,-y,1/2+z
3 -x,1/2+y,1/2-z
4 1/2+x,1/2-y,-z
5 -x,-y,-z
6 1/2+x,y,1/2-z
7 x,1/2-y,1/2+z
8 1/2-x,1/2+y,z
_cell_length_a                   14.102(3)
_cell_length_b                   6.9727(14)
_cell_length_c                   21.982(4)
_cell_angle_alpha                90
_cell_angle_beta                 90
_cell_angle_gamma                90
_cell_volume                     2161.47
loop_
_atom_site_label
_atom_site_type_symbol
_atom_site_fract_x
_atom_site_fract_y
_atom_site_fract_z
H1 H 0.267(4) 0.468(7) 0.146(2)
H2 H 0.216(4) 0.547(6) 0.252(2)
H3 H 0.480(3) 0.763(6) 0.2725(19)
H4 H 0.524(2) 0.694(5) 0.1738(15)
H5 H -0.013(3) 0.339(7) -0.0290(19)
H6 H -0.005(3) 0.508(4) -0.0643(17)
Pr1 Pr 0.332645(13) 0.47907(3) -0.054498(8)
C1 C 0.4233(2) 0.5339(4) 0.08633(14)
C2 C 0.3976(2) 0.5749(5) 0.15132(13)
C3 C 0.3098(3) 0.5229(6) 0.17248(19)
C4 C 0.2840(3) 0.5644(6) 0.23287(15)
C5 C 0.3486(2) 0.6534(5) 0.27086(14)
C6 C 0.4373(3) 0.7034(6) 0.24942(15)
C7 C 0.4618(2) 0.6639(6) 0.18969(14)
C8 C 0.1243(2) 0.4677(4) -0.03000(18)
C9 C 0.0163(3) 0.4578(6) -0.0306(2)
C10 C 0.3223(2) 0.7036(5) 0.33553(14)
O1 O 0.50513(15) 0.5800(4) 0.06844(10)
O2 O 0.3795(2) 0.8049(4) 0.36532(11)
O3 O 0.24391(18) 0.6439(4) 0.35581(10)
O4 O 0.3625(2) 0.4568(4) 0.05255(9)
O5 O 0.16474(14) 0.6221(4) -0.04435(12)
O6 O 0.17261(13) 0.3223(3) -0.01657(11)
H1D H 0.733(4) 0.532(7) -0.146(2)
H2D H 0.784(4) 0.453(6) -0.252(2)
H3D H 0.520(3) 0.237(6) -0.2725(19)
H4D H 0.476(2) 0.306(5) -0.1738(15)
H5D H 0.013(3) 0.661(7) 0.0290(19)
H6D H 0.005(3) 0.492(4) 0.0643(17)
Pr1D Pr 0.667355(13) 0.52093(3) 0.054498(8)
Pr1F Pr 0.332645(13) 1.02093(3) 0.445502(8)
Pr1A Pr 0.167355(13) 0.52093(3) 0.445502(8)
Pr1G Pr 0.167355(13) 0.97907(3) -0.054498(8)
Pr1G_2 Pr 0.167355(13) -0.02093(3) -0.054498(8)
Pr1D_2 Pr -0.332645(13) 0.52093(3) 0.054498(8)
Pr1C Pr -0.167355(13) 0.02093(3) 0.054498(8)
Pr1C_2 Pr -0.167355(13) 1.02093(3) 0.054498(8)
Pr1B Pr 0.667355(13) -0.02093(3) -0.445502(8)
Pr1E Pr 0.832645(13) 0.47907(3) -0.445502(8)
C1D C 0.5767(2) 0.4661(4) -0.08633(14)
C2D C 0.6024(2) 0.4251(5) -0.15132(13)
C3D C 0.6902(3) 0.4771(6) -0.17248(19)
C4D C 0.7160(3) 0.4356(6) -0.23287(15)
C5D C 0.6514(2) 0.3466(5) -0.27086(14)
C6D C 0.5627(3) 0.2966(6) -0.24942(15)
C7D C 0.5382(2) 0.3361(6) -0.18969(14)
C8D C -0.1243(2) 0.5323(4) 0.03000(18)
C9D C -0.0163(3) 0.5422(6) 0.0306(2)
C10D C 0.6777(2) 0.2964(5) -0.33553(14)
O1D O 0.49487(15) 0.4200(4) -0.06844(10)
O2D O 0.6205(2) 0.1951(4) -0.36532(11)
O2F O 0.3795(2) 0.6951(4) -0.13468(11)
O2B O 0.6205(2) 0.3049(4) 0.13468(11)
O3D O 0.75609(18) 0.3561(4) -0.35581(10)
O3A O 0.25609(18) 0.3561(4) -0.14419(10)
O3E O 0.74391(18) 0.6439(4) 0.14419(10)
O4D O 0.6375(2) 0.5432(4) -0.05255(9)
O5D O -0.16474(14) 0.3779(4) 0.04435(12)
O5G O 0.33526(14) 0.1221(4) -0.04435(12)
O5D_2 O 0.83526(14) 0.3779(4) 0.04435(12)
O5C O 0.66474(14) 0.8779(4) 0.04435(12)
O6D O -0.17261(13) 0.6777(3) 0.01657(11)
O6G O 0.32739(13) 0.8223(3) -0.01657(11)
O6D_2 O 0.82739(13) 0.6777(3) 0.01657(11)
O6C O 0.67261(13) 0.1777(3) 0.01657(11)
loop_
_geom_bond_atom_site_label_1
_geom_bond_atom_site_label_2
_geom_bond_site_symmetry_1
_geom_bond_site_symmetry_2
H1 C3 1_555 1_555
H2 C4 1_555 1_555
H3 C6 1_555 1_555
H4 C7 1_555 1_555
H5 C9 1_555 1_555
H6 C9 1_555 1_555
Pr1 O4 1_555 1_555
C1 C2 1_555 1_555
C2 C3 1_555 1_555
C3 C4 1_555 1_555
C4 C5 1_555 1_555
C5 C6 1_555 1_555
C6 C7 1_555 1_555
C7 C2 1_555 1_555
C8 C9 1_555 1_555
C9 C9D 1_555 1_555
C10 C5 1_555 1_555
O1 C1 1_555 1_555
O2 C10 1_555 1_555
O3 C10 1_555 1_555
O4 C1 1_555 1_555
O5 Pr1 1_555 1_555
O6 Pr1 1_555 1_555
H1D C3D 1_555 1_555
H2D C4D 1_555 1_555
H3D C6D 1_555 1_555
H4D C7D 1_555 1_555
H5D C9D 1_555 1_555
H6D C9D 1_555 1_555
Pr1D O1 1_555 1_555
Pr1F O2 1_555 1_555
Pr1A O3 1_555 1_555
Pr1G O5 1_555 1_555
Pr1G_2 O6 1_555 1_555
Pr1D_2 O5D 1_555 1_555
Pr1C O5D 1_555 1_555
Pr1C_2 O6D 1_555 1_555
Pr1B O2D 1_555 1_555
Pr1E O3D 1_555 1_555
C1D C2D 1_555 1_555
C2D C3D 1_555 1_555
C3D C4D 1_555 1_555
C4D C5D 1_555 1_555
C5D C6D 1_555 1_555
C6D C7D 1_555 1_555
C7D C2D 1_555 1_555
C8D C9D 1_555 1_555
C10D C5D 1_555 1_555
O1D Pr1 1_555 1_555
O2D C10D 1_555 1_555
O2F Pr1 1_555 1_555
O2B Pr1D 1_555 1_555
O3D C10D 1_555 1_555
O3A Pr1 1_555 1_555
O3E Pr1D 1_555 1_555
O4D Pr1D 1_555 1_555
O5D C8D 1_555 1_555
O5G Pr1 1_555 1_555
O5D_2 Pr1D 1_555 1_555
O5C Pr1D 1_555 1_555
O6D Pr1D_2 1_555 1_555
O6G Pr1 1_555 1_555
O6D_2 Pr1D 1_555 1_555
O6C Pr1D 1_555 1_555
C8 O5 1_555 1_555
C8 O6 1_555 1_555
Pr1G O6G 1_555 1_555
Pr1G_2 O5G 1_555 1_555
C1D O1D 1_555 1_555
C1D O4D 1_555 1_555
C8D O6D 1_555 1_555

#END
