
#######################################################################
#
#                 Cambridge Crystallographic Data Centre
#                                CCDC 
#
#######################################################################
#
# If this CIF has been generated from an entry in the Cambridge 
# Structural Database, then it will include bibliographic, chemical, 
# crystal, experimental, refinement or atomic coordinate data resulting 
# from the CCDC's data processing and validation procedures.
#
#######################################################################

data_CORJIC
_symmetry_cell_setting           monoclinic
_symmetry_space_group_name_H-M   'P 21'
_symmetry_Int_Tables_number      4
_space_group_name_Hall           'P 2yb'
loop_
_symmetry_equiv_pos_site_id
_symmetry_equiv_pos_as_xyz
1 x,y,z
2 -x,1/2+y,-z
_cell_length_a                   5.757(2)
_cell_length_b                   10.467(3)
_cell_length_c                   5.864(2)
_cell_angle_alpha                90
_cell_angle_beta                 97.91(3)
_cell_angle_gamma                90
_cell_volume                     349.994
loop_
_atom_site_label
_atom_site_type_symbol
_atom_site_fract_x
_atom_site_fract_y
_atom_site_fract_z
Cu1 Cu 0.38698(8) -0.3968(3) -0.05357(7)
S1 S 0.6954(2) -0.4000(5) -0.7582(2)
C1 C 0.5602(6) -0.3982(13) -0.5271(6)
N1 N 0.4744(6) -0.3924(13) -0.3626(5)
N2 N 0.1561(14) -0.2413(6) -0.0373(15)
C2 C 0.0048(20) -0.2128(8) -0.1872(19)
H1 H 0.0027(20) -0.2533(8) -0.3286(19)
C3 C -0.1681(19) -0.1239(9) -0.1665(16)
H2 H -0.2885(19) -0.1162(9) -0.2889(16)
N3 N -0.1757(14) -0.0524(7) 0.0052(15)
C4 C 0.0260(20) -0.0722(8) 0.1891(21)
H3 H 0.0458(20) -0.0204(8) 0.3191(21)
C5 C 0.1834(22) -0.1688(8) 0.1639(22)
H4 H 0.3067(22) -0.1854(8) 0.2801(22)
Cu1_2 Cu 0.38698(8) -0.3968(3) -1.05357(7)
S1_2 S 0.6954(2) -0.4000(5) 0.2418(2)
Cu1A Cu -0.38698(8) 0.1032(3) 0.05357(7)
N3A N 0.1757(14) -0.5524(7) -0.0052(15)
loop_
_geom_bond_atom_site_label_1
_geom_bond_atom_site_label_2
_geom_bond_site_symmetry_1
_geom_bond_site_symmetry_2
Cu1 N1 1_555 1_555
S1 C1 1_555 1_555
C1 N1 1_555 1_555
N2 Cu1 1_555 1_555
C2 N2 1_555 1_555
H1 C2 1_555 1_555
C3 C2 1_555 1_555
H2 C3 1_555 1_555
N3 C3 1_555 1_555
C4 N3 1_555 1_555
H3 C4 1_555 1_555
C5 N2 1_555 1_555
H4 C5 1_555 1_555
Cu1_2 S1 1_555 1_555
S1_2 Cu1 1_555 1_555
Cu1A N3 1_555 1_555
N3A Cu1 1_555 1_555
C4 C5 1_555 1_555

#END
