
#######################################################################
#
#                 Cambridge Crystallographic Data Centre
#                                CCDC 
#
#######################################################################
#
# If this CIF has been generated from an entry in the Cambridge 
# Structural Database, then it will include bibliographic, chemical, 
# crystal, experimental, refinement or atomic coordinate data resulting 
# from the CCDC's data processing and validation procedures.
#
#######################################################################

data_CORJAV
_symmetry_cell_setting           monoclinic
_symmetry_space_group_name_H-M   'P 21/c'
_symmetry_Int_Tables_number      14
_space_group_name_Hall           '-P 2ybc'
loop_
_symmetry_equiv_pos_site_id
_symmetry_equiv_pos_as_xyz
1 x,y,z
2 -x,1/2+y,1/2-z
3 -x,-y,-z
4 x,1/2-y,1/2+z
_cell_length_a                   9.4749(7)
_cell_length_b                   21.2029(15)
_cell_length_c                   13.6263(10)
_cell_angle_alpha                90
_cell_angle_beta                 92.2620(10)
_cell_angle_gamma                90
_cell_volume                     2735.33
loop_
_atom_site_label
_atom_site_type_symbol
_atom_site_fract_x
_atom_site_fract_y
_atom_site_fract_z
C1 C 0.6726(3) 0.44031(9) 0.95008(16)
H1 H 0.5960 0.4450 0.9901
C2 C 0.8053(3) 0.43586(11) 0.99314(19)
H2 H 0.8180 0.4371 1.0611
C3 C 0.9202(3) 0.42949(11) 0.9345(2)
H3 H 1.0111 0.4260 0.9623
C4 C 0.8976(3) 0.42836(10) 0.83378(19)
H4 H 0.9732 0.4247 0.7927
C5 C 0.7610(2) 0.43269(9) 0.79487(16)
C6 C 0.7232(2) 0.43084(9) 0.68893(16)
C7 C 0.8179(2) 0.42185(10) 0.61570(18)
H5 H 0.9141 0.4184 0.6310
C8 C 0.7673(3) 0.41806(11) 0.51886(18)
H6 H 0.8292 0.4113 0.4686
C9 C 0.6267(3) 0.42428(11) 0.49829(18)
H7 H 0.5911 0.4213 0.4339
C10 C 0.5378(3) 0.43503(10) 0.57346(17)
H8 H 0.4420 0.4409 0.5585
C11 C 0.8176(2) 0.22065(10) 0.80020(17)
C12 C 0.9220(3) 0.22484(11) 0.87502(19)
H9 H 0.9064 0.2062 0.9354
C13 C 1.0472(3) 0.25567(13) 0.8618(2)
H10 H 1.1136 0.2581 0.9138
C14 C 1.0767(3) 0.28309(12) 0.7733(3)
H11 H 1.1613 0.3044 0.7653
C15 C 0.9790(3) 0.27824(12) 0.6978(2)
H12 H 0.9990 0.2959 0.6374
C16 C 0.8486(2) 0.24740(10) 0.70799(19)
C17 C 0.7544(3) 0.24267(11) 0.62445(18)
H13 H 0.7857 0.2592 0.5659
C18 C 0.5465(3) 0.21510(12) 0.52875(16)
H14 H 0.5566 0.1740 0.4984
H15 H 0.5782 0.2470 0.4836
C19 C 0.3949(3) 0.22646(11) 0.55188(16)
H16 H 0.3783 0.2711 0.5620
H17 H 0.3328 0.2120 0.4982
C20 C 0.2515(2) 0.16171(11) 0.65148(17)
H18 H 0.1875 0.1615 0.5979
C21 C 0.2114(2) 0.12925(10) 0.73836(17)
C22 C 0.0830(3) 0.09609(12) 0.7354(2)
H19 H 0.0309 0.0934 0.6762
C23 C 0.0321(3) 0.06764(11) 0.8168(2)
H20 H -0.0517 0.0448 0.8128
C24 C 0.1075(3) 0.07355(11) 0.9052(2)
H21 H 0.0733 0.0551 0.9614
C25 C 0.2323(3) 0.10633(11) 0.91099(19)
H22 H 0.2800 0.1104 0.9716
C26 C 0.2896(2) 0.13378(9) 0.82827(17)
C27 C 0.3491(2) 0.42698(9) 0.89573(16)
C28 C 0.2854(2) 0.43451(9) 0.70698(16)
C29 C 0.4731(2) 0.34545(10) 0.77689(14)
C30 C 0.4468(2) 0.52915(10) 0.79078(14)
Fe1 Fe 0.46099(3) 0.437039(12) 0.78263(2)
Mn1 Mn 0.52970(3) 0.188992(13) 0.73855(2)
N1 N 0.64886(18) 0.43815(7) 0.85268(13)
N2 N 0.58380(18) 0.43743(7) 0.66777(13)
N3 N 0.6311(2) 0.21801(8) 0.62149(13)
N4 N 0.36831(19) 0.19101(8) 0.64173(12)
N5 N 0.2811(2) 0.41784(10) 0.96144(16)
N6 N 0.1824(2) 0.43204(9) 0.66086(16)
N7 N 0.4865(2) 0.29258(8) 0.77144(13)
N8 N 0.4376(2) 0.58261(8) 0.79663(14)
O1 O 0.69842(15) 0.19131(6) 0.81787(10)
O2 O 0.41165(15) 0.16419(7) 0.83933(10)
Mn1A Mn 0.47030(3) 0.688992(13) 0.76145(2)
N8A N 0.5624(2) 0.08261(8) 0.70337(14)
loop_
_geom_bond_atom_site_label_1
_geom_bond_atom_site_label_2
_geom_bond_site_symmetry_1
_geom_bond_site_symmetry_2
C1 H1 1_555 1_555
C2 C1 1_555 1_555
H2 C2 1_555 1_555
C3 C2 1_555 1_555
H3 C3 1_555 1_555
C4 C3 1_555 1_555
H4 C4 1_555 1_555
C5 C4 1_555 1_555
C6 C5 1_555 1_555
C7 C6 1_555 1_555
H5 C7 1_555 1_555
C8 C7 1_555 1_555
H6 C8 1_555 1_555
C9 C8 1_555 1_555
H7 C9 1_555 1_555
C10 C9 1_555 1_555
H8 C10 1_555 1_555
C11 C12 1_555 1_555
C12 H9 1_555 1_555
C13 C12 1_555 1_555
H10 C13 1_555 1_555
C14 C13 1_555 1_555
H11 C14 1_555 1_555
C15 C14 1_555 1_555
H12 C15 1_555 1_555
C16 C11 1_555 1_555
C17 C16 1_555 1_555
H13 C17 1_555 1_555
C18 H14 1_555 1_555
H15 C18 1_555 1_555
C19 C18 1_555 1_555
H16 C19 1_555 1_555
H17 C19 1_555 1_555
C20 H18 1_555 1_555
C21 C20 1_555 1_555
C22 C21 1_555 1_555
H19 C22 1_555 1_555
C23 C22 1_555 1_555
H20 C23 1_555 1_555
C24 C23 1_555 1_555
H21 C24 1_555 1_555
C25 C24 1_555 1_555
H22 C25 1_555 1_555
C26 C21 1_555 1_555
C27 Fe1 1_555 1_555
C28 Fe1 1_555 1_555
C29 Fe1 1_555 1_555
C30 Fe1 1_555 1_555
Fe1 N1 1_555 1_555
Mn1 N3 1_555 1_555
N1 C1 1_555 1_555
N2 C6 1_555 1_555
N3 C17 1_555 1_555
N4 C19 1_555 1_555
N5 C27 1_555 1_555
N6 C28 1_555 1_555
N7 C29 1_555 1_555
N8 C30 1_555 1_555
O1 C11 1_555 1_555
O2 C26 1_555 1_555
Mn1A N8 1_555 1_555
N8A Mn1 1_555 1_555
C5 N1 1_555 1_555
C10 N2 1_555 1_555
C15 C16 1_555 1_555
C18 N3 1_555 1_555
C20 N4 1_555 1_555
C25 C26 1_555 1_555
Fe1 N2 1_555 1_555
Mn1 N4 1_555 1_555
Mn1 N7 1_555 1_555
Mn1 O1 1_555 1_555
Mn1 O2 1_555 1_555

#END
