
#######################################################################
#
#                 Cambridge Crystallographic Data Centre
#                                CCDC 
#
#######################################################################
#
# If this CIF has been generated from an entry in the Cambridge 
# Structural Database, then it will include bibliographic, chemical, 
# crystal, experimental, refinement or atomic coordinate data resulting 
# from the CCDC's data processing and validation procedures.
#
#######################################################################

data_CORMIF
_symmetry_cell_setting           orthorhombic
_symmetry_space_group_name_H-M   'P b a m'
_symmetry_Int_Tables_number      55
_space_group_name_Hall           '-P 2 2ab'
loop_
_symmetry_equiv_pos_site_id
_symmetry_equiv_pos_as_xyz
1 x,y,z
2 -x,-y,z
3 1/2+x,1/2-y,-z
4 1/2-x,1/2+y,-z
5 -x,-y,-z
6 x,y,-z
7 1/2-x,1/2+y,z
8 1/2+x,1/2-y,z
_cell_length_a                   14.935(2)
_cell_length_b                   13.409(3)
_cell_length_c                   15.959(3)
_cell_angle_alpha                90
_cell_angle_beta                 90
_cell_angle_gamma                90
_cell_volume                     3196
loop_
_atom_site_label
_atom_site_type_symbol
_atom_site_fract_x
_atom_site_fract_y
_atom_site_fract_z
Sn1 Sn 0.2438(1) 0.1522(1) 0.0000
Cl1 Cl 0.3570(3) 0.2795(3) 0.0000
Cl2 Cl 0.1284(3) 0.2751(3) 0.0000
C1 C 0.2513(5) 0.0964(5) 0.1226(3)
C2 C 0.2508(5) -0.0056(5) 0.1400(3)
C3 C 0.2573(5) -0.0387(5) 0.2227(3)
C4 C 0.2644(5) 0.0301(5) 0.2879(3)
C5 C 0.2649(5) 0.1321(5) 0.2705(3)
C6 C 0.2584(5) 0.1652(5) 0.1878(3)
H1 H 0.2453(5) -0.0588(5) 0.0895(3)
H2 H 0.2569(5) -0.1176(5) 0.2361(3)
H3 H 0.2694(5) 0.0045(5) 0.3519(3)
H4 H 0.2704(5) 0.1853(5) 0.3210(3)
H5 H 0.2588(5) 0.2441(5) 0.1744(3)
N1 N 0.0861(7) 0.0417(8) 0.0000
C7 C 0.0427(7) 0.0199(8) 0.0700(7)
H6 H 0.0755(7) 0.0333(8) 0.1293(7)
N2 N 0.4158(8) 0.0419(8) 0.0000
C8 C 0.4585(7) 0.0212(7) 0.0696(7)
H7 H 0.4271(7) 0.0384(7) 0.1288(7)
C1E C 0.2513(5) 0.0964(5) -0.1226(3)
C7E C 0.0427(7) 0.0199(8) -0.0700(7)
C7A C -0.0427(7) -0.0199(8) 0.0700(7)
C8E C 0.4585(7) 0.0212(7) -0.0696(7)
C8A C 0.5415(7) -0.0212(7) 0.0696(7)
C2E C 0.2508(5) -0.0056(5) -0.1400(3)
C6E C 0.2584(5) 0.1652(5) -0.1878(3)
C7D C -0.0427(7) -0.0199(8) -0.0700(7)
H6E H 0.0755(7) 0.0333(8) -0.1293(7)
N1A N -0.0861(7) -0.0417(8) 0.0000
H6A H -0.0755(7) -0.0333(8) 0.1293(7)
C8D C 0.5415(7) -0.0212(7) -0.0696(7)
H7E H 0.4271(7) 0.0384(7) -0.1288(7)
N2A N 0.5842(8) -0.0419(8) 0.0000
H7A H 0.5729(7) -0.0384(7) 0.1288(7)
C3E C 0.2573(5) -0.0387(5) -0.2227(3)
H1E H 0.2453(5) -0.0588(5) -0.0895(3)
C5E C 0.2649(5) 0.1321(5) -0.2705(3)
H5E H 0.2588(5) 0.2441(5) -0.1744(3)
H6D H -0.0755(7) -0.0333(8) -0.1293(7)
Sn1A Sn -0.2438(1) -0.1522(1) 0.0000
H7D H 0.5729(7) -0.0384(7) -0.1288(7)
Sn1A_2 Sn 0.7562(1) -0.1522(1) 0.0000
C4E C 0.2644(5) 0.0301(5) -0.2879(3)
H2E H 0.2569(5) -0.1176(5) -0.2361(3)
H4E H 0.2704(5) 0.1853(5) -0.3210(3)
Cl1A Cl -0.3570(3) -0.2795(3) 0.0000
Cl2A Cl -0.1284(3) -0.2751(3) 0.0000
C1D C -0.2513(5) -0.0964(5) -0.1226(3)
C1A C -0.2513(5) -0.0964(5) 0.1226(3)
N2A_2 N -0.4158(8) -0.0419(8) 0.0000
H3E H 0.2694(5) 0.0045(5) -0.3519(3)
C2D C -0.2508(5) 0.0056(5) -0.1400(3)
C6D C -0.2584(5) -0.1652(5) -0.1878(3)
C2A C -0.2508(5) 0.0056(5) 0.1400(3)
C6A C -0.2584(5) -0.1652(5) 0.1878(3)
C3D C -0.2573(5) 0.0387(5) -0.2227(3)
H1D H -0.2453(5) 0.0588(5) -0.0895(3)
C5D C -0.2649(5) -0.1321(5) -0.2705(3)
H5D H -0.2588(5) -0.2441(5) -0.1744(3)
C3A C -0.2573(5) 0.0387(5) 0.2227(3)
H1A H -0.2453(5) 0.0588(5) 0.0895(3)
C5A C -0.2649(5) -0.1321(5) 0.2705(3)
H5A H -0.2588(5) -0.2441(5) 0.1744(3)
C4D C -0.2644(5) -0.0301(5) -0.2879(3)
H2D H -0.2569(5) 0.1176(5) -0.2361(3)
H4D H -0.2704(5) -0.1853(5) -0.3210(3)
C4A C -0.2644(5) -0.0301(5) 0.2879(3)
H2A H -0.2569(5) 0.1176(5) 0.2361(3)
H4A H -0.2704(5) -0.1853(5) 0.3210(3)
H3D H -0.2694(5) -0.0045(5) -0.3519(3)
H3A H -0.2694(5) -0.0045(5) 0.3519(3)
Sn2 Sn 0.1022(1) 0.2188(1) 0.5000
Cl3 Cl 0.2427(3) 0.2960(4) 0.5000
Cl4 Cl 0.1530(4) 0.0489(3) 0.5000
C9 C 0.0463(5) 0.2226(6) 0.3789(4)
C10 C 0.0712(5) 0.2970(6) 0.3224(4)
C11 C 0.0395(5) 0.2945(6) 0.2403(4)
C12 C -0.0172(5) 0.2177(6) 0.2145(4)
C13 C -0.0421(5) 0.1433(6) 0.2710(4)
C14 C -0.0104(5) 0.1458(6) 0.3532(4)
H8 H 0.1150(5) 0.3565(6) 0.3423(4)
H9 H 0.0588(5) 0.3521(6) 0.1965(4)
H10 H -0.0417(5) 0.2158(6) 0.1509(4)
H11 H -0.0860(5) 0.0838(6) 0.2511(4)
H12 H -0.0297(5) 0.0882(6) 0.3969(4)
N3 N 0.0407(9) 0.4078(9) 0.5000
C15 C -0.0459(12) 0.4167(12) 0.5000
H13 H -0.0863(12) 0.3499(12) 0.5000
C16 C 0.0884(12) 0.4925(13) 0.5000
H14 H 0.1607(12) 0.4893(13) 0.5000
C9E C 0.0463(5) 0.2226(6) 0.6211(4)
C16A C -0.0884(12) 0.5075(13) 0.5000
C15A C 0.0459(12) 0.5833(12) 0.5000
C10E C 0.0712(5) 0.2970(6) 0.6776(4)
C14E C -0.0104(5) 0.1458(6) 0.6468(4)
N3A N -0.0407(9) 0.5922(9) 0.5000
H14A H -0.1607(12) 0.5107(13) 0.5000
H13A H 0.0863(12) 0.6501(12) 0.5000
C11E C 0.0395(5) 0.2945(6) 0.7597(4)
H8E H 0.1150(5) 0.3565(6) 0.6577(4)
C13E C -0.0421(5) 0.1433(6) 0.7290(4)
H12E H -0.0297(5) 0.0882(6) 0.6031(4)
Sn2A Sn -0.1022(1) 0.7812(1) 0.5000
C12E C -0.0172(5) 0.2177(6) 0.7855(4)
H9E H 0.0588(5) 0.3521(6) 0.8035(4)
H11E H -0.0860(5) 0.0838(6) 0.7489(4)
Cl3A Cl -0.2427(3) 0.7040(4) 0.5000
Cl4A Cl -0.1530(4) 0.9511(3) 0.5000
C9D C -0.0463(5) 0.7774(6) 0.6211(4)
C9A C -0.0463(5) 0.7774(6) 0.3789(4)
H10E H -0.0417(5) 0.2158(6) 0.8491(4)
C10D C -0.0712(5) 0.7030(6) 0.6776(4)
C14D C 0.0104(5) 0.8542(6) 0.6468(4)
C10A C -0.0712(5) 0.7030(6) 0.3224(4)
C14A C 0.0104(5) 0.8542(6) 0.3532(4)
C11D C -0.0395(5) 0.7055(6) 0.7597(4)
H8D H -0.1150(5) 0.6435(6) 0.6577(4)
C13D C 0.0421(5) 0.8567(6) 0.7290(4)
H12D H 0.0297(5) 0.9118(6) 0.6031(4)
C11A C -0.0395(5) 0.7055(6) 0.2403(4)
H8A H -0.1150(5) 0.6435(6) 0.3423(4)
C13A C 0.0421(5) 0.8567(6) 0.2710(4)
H12A H 0.0297(5) 0.9118(6) 0.3969(4)
C12D C 0.0172(5) 0.7823(6) 0.7855(4)
H9D H -0.0588(5) 0.6479(6) 0.8035(4)
H11D H 0.0860(5) 0.9162(6) 0.7489(4)
C12A C 0.0172(5) 0.7823(6) 0.2145(4)
H9A H -0.0588(5) 0.6479(6) 0.1965(4)
H11A H 0.0860(5) 0.9162(6) 0.2511(4)
H10D H 0.0417(5) 0.7842(6) 0.8491(4)
H10A H 0.0417(5) 0.7842(6) 0.1509(4)
loop_
_geom_bond_atom_site_label_1
_geom_bond_atom_site_label_2
_geom_bond_site_symmetry_1
_geom_bond_site_symmetry_2
Sn1 Cl1 1_555 1_555
Cl2 Sn1 1_555 1_555
C1 Sn1 1_555 1_555
C2 C1 1_555 1_555
C3 C2 1_555 1_555
C4 C3 1_555 1_555
C5 C4 1_555 1_555
C6 C1 1_555 1_555
H1 C2 1_555 1_555
H2 C3 1_555 1_555
H3 C4 1_555 1_555
H4 C5 1_555 1_555
H5 C6 1_555 1_555
N1 Sn1 1_555 1_555
C7 N1 1_555 1_555
H6 C7 1_555 1_555
N2 Sn1 1_555 1_555
C8 N2 1_555 1_555
H7 C8 1_555 1_555
Sn2 Cl3 1_555 1_555
Cl4 Sn2 1_555 1_555
C9 Sn2 1_555 1_555
C10 C9 1_555 1_555
C11 C10 1_555 1_555
C12 C11 1_555 1_555
C13 C12 1_555 1_555
C14 C9 1_555 1_555
H8 C10 1_555 1_555
H9 C11 1_555 1_555
H10 C12 1_555 1_555
H11 C13 1_555 1_555
H12 C14 1_555 1_555
N3 Sn2 1_555 1_555
C15 N3 1_555 1_555
H13 C15 1_555 1_555
C16 N3 1_555 1_555
H14 C16 1_555 1_555
C1E Sn1 1_555 1_555
C7E N1 1_555 1_555
C7A C7 1_555 1_555
C8E N2 1_555 1_555
C8A C8 1_555 1_555
C2E C1E 1_555 1_555
C6E C1E 1_555 1_555
C7D C7E 1_555 1_555
H6E C7E 1_555 1_555
N1A C7A 1_555 1_555
H6A C7A 1_555 1_555
C8D C8E 1_555 1_555
H7E C8E 1_555 1_555
N2A C8A 1_555 1_555
H7A C8A 1_555 1_555
C3E C2E 1_555 1_555
H1E C2E 1_555 1_555
C5E C6E 1_555 1_555
H5E C6E 1_555 1_555
H6D C7D 1_555 1_555
Sn1A N1A 1_555 1_555
H7D C8D 1_555 1_555
Sn1A_2 N2A 1_555 1_555
C4E C3E 1_555 1_555
H2E C3E 1_555 1_555
H4E C5E 1_555 1_555
Cl1A Sn1A 1_555 1_555
Cl2A Sn1A 1_555 1_555
C1D Sn1A 1_555 1_555
C1A Sn1A 1_555 1_555
N2A_2 Sn1A 1_555 1_555
H3E C4E 1_555 1_555
C2D C1D 1_555 1_555
C6D C1D 1_555 1_555
C2A C1A 1_555 1_555
C6A C1A 1_555 1_555
C3D C2D 1_555 1_555
H1D C2D 1_555 1_555
C5D C6D 1_555 1_555
H5D C6D 1_555 1_555
C3A C2A 1_555 1_555
H1A C2A 1_555 1_555
C5A C6A 1_555 1_555
H5A C6A 1_555 1_555
C4D C3D 1_555 1_555
H2D C3D 1_555 1_555
H4D C5D 1_555 1_555
C4A C3A 1_555 1_555
H2A C3A 1_555 1_555
H4A C5A 1_555 1_555
H3D C4D 1_555 1_555
H3A C4A 1_555 1_555
C9E Sn2 1_555 1_555
C16A C15 1_555 1_555
C15A C16 1_555 1_555
C10E C9E 1_555 1_555
C14E C9E 1_555 1_555
N3A C16A 1_555 1_555
H14A C16A 1_555 1_555
H13A C15A 1_555 1_555
C11E C10E 1_555 1_555
H8E C10E 1_555 1_555
C13E C14E 1_555 1_555
H12E C14E 1_555 1_555
Sn2A N3A 1_555 1_555
C12E C11E 1_555 1_555
H9E C11E 1_555 1_555
H11E C13E 1_555 1_555
Cl3A Sn2A 1_555 1_555
Cl4A Sn2A 1_555 1_555
C9D Sn2A 1_555 1_555
C9A Sn2A 1_555 1_555
H10E C12E 1_555 1_555
C10D C9D 1_555 1_555
C14D C9D 1_555 1_555
C10A C9A 1_555 1_555
C14A C9A 1_555 1_555
C11D C10D 1_555 1_555
H8D C10D 1_555 1_555
C13D C14D 1_555 1_555
H12D C14D 1_555 1_555
C11A C10A 1_555 1_555
H8A C10A 1_555 1_555
C13A C14A 1_555 1_555
H12A C14A 1_555 1_555
C12D C11D 1_555 1_555
H9D C11D 1_555 1_555
H11D C13D 1_555 1_555
C12A C11A 1_555 1_555
H9A C11A 1_555 1_555
H11A C13A 1_555 1_555
H10D C12D 1_555 1_555
H10A C12A 1_555 1_555
C5 C6 1_555 1_555
C13 C14 1_555 1_555
C7D N1A 1_555 1_555
C8D N2A 1_555 1_555
C5E C4E 1_555 1_555
C5D C4D 1_555 1_555
C5A C4A 1_555 1_555
C15A N3A 1_555 1_555
C13E C12E 1_555 1_555
C13D C12D 1_555 1_555
C13A C12A 1_555 1_555

#END
