
#######################################################################
#
#                 Cambridge Crystallographic Data Centre
#                                CCDC 
#
#######################################################################
#
# If this CIF has been generated from an entry in the Cambridge 
# Structural Database, then it will include bibliographic, chemical, 
# crystal, experimental, refinement or atomic coordinate data resulting 
# from the CCDC's data processing and validation procedures.
#
#######################################################################

data_CORNEE
_symmetry_cell_setting           triclinic
_symmetry_space_group_name_H-M   'P -1'
_symmetry_Int_Tables_number      2
_space_group_name_Hall           '-P 1'
loop_
_symmetry_equiv_pos_site_id
_symmetry_equiv_pos_as_xyz
1 x,y,z
2 -x,-y,-z
_cell_length_a                   8.9930(18)
_cell_length_b                   13.214(3)
_cell_length_c                   14.518(3)
_cell_angle_alpha                86.89(3)
_cell_angle_beta                 87.01(3)
_cell_angle_gamma                86.08(3)
_cell_volume                     1716.62
loop_
_atom_site_label
_atom_site_type_symbol
_atom_site_fract_x
_atom_site_fract_y
_atom_site_fract_z
N1 N 0.7024(7) 0.4743(5) 0.6584(3)
C1 C 0.6379(7) 0.5499(4) 0.6000(4)
N2 N 0.6818(7) 0.5559(4) 0.5068(4)
C2 C 0.7902(7) 0.4862(5) 0.4718(3)
N3 N 0.8547(6) 0.4105(4) 0.5301(4)
C3 C 0.8108(7) 0.4046(4) 0.6234(4)
La1 La 0.25529(6) 1.00837(4) 0.49629(4)
La2 La 0.25178(6) 0.49831(4) -0.00503(4)
S1 S 0.4420(3) 0.8472(2) -0.20202(18)
S2 S 0.8563(3) 0.4860(2) 0.36387(19)
S3 S 0.8868(3) 0.3190(2) 0.69667(18)
S4 S 0.0684(3) 1.1547(2) -0.1417(2)
S5 S 0.3257(3) 0.9456(2) 0.14060(19)
S6 S 0.5091(3) 0.6292(2) 0.64754(19)
O1 O 0.3520(9) 0.9985(6) 0.3237(5)
O2 O 0.1228(8) 1.0683(6) 0.3498(5)
O3 O 1.0096(8) 0.0949(6) 0.5360(5)
O4 O 0.4884(8) 0.8951(5) 0.5207(5)
O5 O 0.1695(8) 0.9006(6) 0.6369(5)
O6 O 0.3112(9) 1.0874(6) 0.6487(5)
O7 O 0.7884(8) 0.1649(6) 0.5732(5)
O8 O -0.0118(8) 1.3960(5) -0.0135(5)
O9 O 0.2035(8) 1.3089(6) -0.0215(6)
C4 C 0.4605(12) 0.7186(8) 0.5533(8)
H1 H 0.4701 0.6833 0.4962
H2 H 0.3566 0.7424 0.5626
O10 O 0.3029(9) 0.6715(6) -0.0921(5)
O11 O 0.3220(9) 0.6102(6) 0.1229(5)
O12 O 0.8531(9) 0.5022(6) 0.1712(6)
O13 O 0.6927(8) 0.8006(5) 0.5531(5)
O14 O 0.6195(8) 0.5657(7) 0.1580(5)
O15 O 0.5123(8) 0.5931(6) -0.0484(5)
O16 O 0.1460(8) 0.4449(6) 0.1570(5)
N4 N 0.3691(10) 0.9053(7) -0.0312(6)
N5 N 0.2614(10) 1.0021(7) -0.1577(6)
N6 N 0.1993(10) 1.0484(7) -0.0025(7)
C5 C 0.2083(13) 1.0381(8) 0.1937(8)
H3 H 0.2298 1.1049 0.1675
H4 H 0.1051 1.0272 0.1832
C6 C 0.2318(11) 1.0323(7) 0.2935(7)
C7 C -0.0150(12) 1.2200(8) -0.0447(7)
H5 H -0.1182 1.2402 -0.0566
H6 H -0.0144 1.1736 0.0094
C8 C 0.5339(11) 0.7513(8) -0.1303(8)
H7 H 0.6172 0.7207 -0.1665
H8 H 0.5752 0.7843 -0.0803
C9 C 0.4446(12) 0.6682(8) -0.0890(7)
C10 C 0.0647(11) 1.3134(8) -0.0246(7)
C11 C 1.0046(11) 0.2419(8) 0.6205(8)
H9 H 1.0513 0.2861 0.5736
H10 H 1.0833 0.2072 0.6556
C12 C 0.3489(11) 0.9242(8) -0.1203(7)
C13 C 0.7274(12) 0.5744(9) 0.3030(7)
H11 H 0.6275 0.5712 0.3311
H12 H 0.7574 0.6432 0.3058
C14 C 0.2929(12) 0.9666(9) 0.0258(8)
C15 C 0.5543(12) 0.8100(8) 0.5426(7)
C16 C 0.1898(11) 1.0582(8) -0.0933(7)
C17 C 0.9256(11) 0.1645(8) 0.5736(7)
C18 C 0.7296(12) 0.5455(9) 0.2056(8)
La1_2 La 1.25529(6) 0.00837(4) 0.49629(4)
La1A La 0.74471(6) -0.00837(4) 0.50371(4)
La1A_2 La 0.74471(6) 0.99163(4) 0.50371(4)
La2_2 La 0.25178(6) 1.49831(4) -0.00503(4)
La2A La -0.25178(6) 1.50169(4) 0.00503(4)
La2A_2 La 0.74822(6) 0.50169(4) 0.00503(4)
O3_2 O 0.0096(8) 1.0949(6) 0.5360(5)
O3A O -0.0096(8) 0.9051(6) 0.4640(5)
O4A O 0.5116(8) 1.1049(5) 0.4793(5)
O7A O 0.2116(8) 0.8351(6) 0.4268(5)
O8_2 O -0.0118(8) 0.3960(5) -0.0135(5)
O8A O 0.0118(8) 0.6040(5) 0.0135(5)
O9_2 O 0.2035(8) 0.3089(6) -0.0215(6)
O12A O 0.1469(9) 0.4978(6) -0.1712(6)
O13A O 0.3073(8) 1.1994(5) 0.4469(5)
O14A O 0.3805(8) 0.4343(7) -0.1580(5)
O15A O 0.4877(8) 0.4069(6) 0.0484(5)
O17 O 0.5155(9) 0.2277(7) 0.6789(6)
O18 O 0.1712(10) 0.2884(7) 0.2828(6)
O19 O 0.8568(11) 0.2719(7) 0.2510(8)
O20 O 0.5259(16) 0.7628(13) 0.1091(12)
loop_
_geom_bond_atom_site_label_1
_geom_bond_atom_site_label_2
_geom_bond_site_symmetry_1
_geom_bond_site_symmetry_2
N1 C1 1_555 1_555
C1 N2 1_555 1_555
N2 C2 1_555 1_555
C2 N3 1_555 1_555
N3 C3 1_555 1_555
C3 N1 1_555 1_555
La1 O1 1_555 1_555
La2 O10 1_555 1_555
S1 C8 1_555 1_555
S2 C2 1_555 1_555
S3 C3 1_555 1_555
S4 C7 1_555 1_555
S5 C5 1_555 1_555
S6 C1 1_555 1_555
O1 C6 1_555 1_555
O2 La1 1_555 1_555
O3 C17 1_555 1_555
O4 La1 1_555 1_555
O5 La1 1_555 1_555
O6 La1 1_555 1_555
O7 C17 1_555 1_555
O8 C10 1_555 1_555
O9 C10 1_555 1_555
C4 S6 1_555 1_555
H1 C4 1_555 1_555
H2 C4 1_555 1_555
O10 C9 1_555 1_555
O11 La2 1_555 1_555
O12 C18 1_555 1_555
O13 C15 1_555 1_555
O14 C18 1_555 1_555
O15 La2 1_555 1_555
O16 La2 1_555 1_555
N4 C12 1_555 1_555
N5 C12 1_555 1_555
N6 C14 1_555 1_555
C5 H3 1_555 1_555
H4 C5 1_555 1_555
C6 O2 1_555 1_555
C7 H5 1_555 1_555
H6 C7 1_555 1_555
C8 H7 1_555 1_555
H8 C8 1_555 1_555
C9 O15 1_555 1_555
C10 C7 1_555 1_555
C11 S3 1_555 1_555
H9 C11 1_555 1_555
H10 C11 1_555 1_555
C12 S1 1_555 1_555
C13 S2 1_555 1_555
H11 C13 1_555 1_555
H12 C13 1_555 1_555
C14 S5 1_555 1_555
C15 O4 1_555 1_555
C16 S4 1_555 1_555
C17 C11 1_555 1_555
C18 C13 1_555 1_555
La1_2 O3 1_555 1_555
La1A O3 1_555 1_555
La1A_2 O4 1_555 1_555
La2_2 O8 1_555 1_555
La2A O8 1_555 1_555
La2A_2 O12 1_555 1_555
O3_2 La1 1_555 1_555
O3A La1 1_555 1_555
O4A La1 1_555 1_555
O7A La1 1_555 1_555
O8_2 La2 1_555 1_555
O8A La2 1_555 1_555
O9_2 La2 1_555 1_555
O12A La2 1_555 1_555
O13A La1 1_555 1_555
O14A La2 1_555 1_555
O15A La2 1_555 1_555
O7 La1A 1_555 1_555
O9 La2_2 1_555 1_555
C4 C15 1_555 1_555
O13 La1A_2 1_555 1_555
O14 La2A_2 1_555 1_555
O15 La2A_2 1_555 1_555
N4 C14 1_555 1_555
N5 C16 1_555 1_555
N6 C16 1_555 1_555
C5 C6 1_555 1_555
C8 C9 1_555 1_555
La1A_2 O4A 1_555 1_555
La2A_2 O15A 1_555 1_555

#END
