
#######################################################################
#
#                 Cambridge Crystallographic Data Centre
#                                CCDC 
#
#######################################################################
#
# If this CIF has been generated from an entry in the Cambridge 
# Structural Database, then it will include bibliographic, chemical, 
# crystal, experimental, refinement or atomic coordinate data resulting 
# from the CCDC's data processing and validation procedures.
#
#######################################################################

data_CORSOR10
_symmetry_cell_setting           orthorhombic
_symmetry_space_group_name_H-M   'P 21 21 21'
_symmetry_Int_Tables_number      19
_space_group_name_Hall           'P 2ac 2ab'
loop_
_symmetry_equiv_pos_site_id
_symmetry_equiv_pos_as_xyz
1 x,y,z
2 1/2+x,1/2-y,-z
3 -x,1/2+y,1/2-z
4 1/2-x,-y,1/2+z
_cell_length_a                   10.863(3)
_cell_length_b                   12.074(4)
_cell_length_c                   14.802(6)
_cell_angle_alpha                90
_cell_angle_beta                 90
_cell_angle_gamma                90
_cell_volume                     1941.43
loop_
_atom_site_label
_atom_site_type_symbol
_atom_site_fract_x
_atom_site_fract_y
_atom_site_fract_z
Cu1 Cu 0.3525(1) 0.3964(1) -0.2917(1)
Cu2 Cu 0.8604(1) 0.4654(1) -0.3296(1)
N1 N 0.3997(6) 0.3856(6) -0.4218(5)
N2 N 0.3408(7) 0.5637(6) -0.3042(5)
O1 O 0.9036(6) 0.4786(7) -0.4586(5)
O2 O 0.7402(7) 0.6256(6) -0.3492(5)
O3 O 0.7950(6) 0.4492(6) -0.2045(5)
O5 O 0.3213(6) 0.2364(5) -0.3048(4)
O6 O 0.2577(6) 0.1195(6) -0.4098(4)
O7 O 0.3456(7) 0.4228(5) -0.1616(4)
O8 O 0.4032(6) 0.5560(6) -0.0650(4)
O9 O 0.5729(6) 0.4026(6) -0.2790(4)
O10 O 0.7271(6) 0.3756(6) -0.3778(4)
O11 O 0.1412(7) 0.4180(5) -0.3256(5)
O12 O 0.0051(6) 0.5511(6) -0.2937(5)
C1 C 0.3824(9) 0.5014(7) -0.4620(6)
C2 C 0.3160(8) 0.3002(8) -0.4592(6)
C3 C 0.2974(8) 0.2101(7) -0.3864(6)
C4 C 0.4143(8) 0.5881(8) -0.3894(6)
C5 C 0.4055(8) 0.5999(8) -0.2201(7)
C6 C 0.3829(8) 0.5213(8) -0.1421(6)
C7 C 0.4056(10) 0.7080(8) -0.4230(7)
C8 C 0.5290(8) 0.3413(8) -0.4310(6)
C9 C 0.6137(7) 0.3789(7) -0.3566(6)
C10 C 0.4804(11) 0.7234(9) -0.5087(8)
C11 C 0.2118(9) 0.6036(8) -0.3058(8)
C12 C 0.1146(8) 0.5157(8) -0.3070(6)
C13 C 0.4385(10) 0.6436(8) -0.5791(7)
C14 C 0.4505(10) 0.5209(8) -0.5485(6)
H1 H 0.285(5) 0.499(6) -0.467(5)
H2 H 0.332(5) 0.277(5) -0.511(4)
H3 H 0.244(5) 0.320(4) -0.463(5)
H4 H 0.508(6) 0.567(5) -0.382(4)
H5 H 0.352(4) 0.685(5) -0.206(6)
H6 H 0.487(5) 0.598(4) -0.229(5)
H7 H 0.307(4) 0.718(6) -0.434(5)
H8 H 0.433(4) 0.756(5) -0.366(6)
H9 H 0.560(6) 0.342(5) -0.499(4)
H10 H 0.527(4) 0.272(5) -0.426(5)
H11 H 0.582(4) 0.700(5) -0.498(4)
H12 H 0.477(5) 0.794(6) -0.529(5)
H13 H 0.197(4) 0.654(6) -0.248(4)
H14 H 0.201(6) 0.652(4) -0.367(5)
H15 H 0.465(5) 0.669(5) -0.635(5)
H16 H 0.341(4) 0.656(5) -0.586(6)
H17 H 0.554(5) 0.517(4) -0.538(6)
H18 H 0.416(4) 0.456(6) -0.600(5)
O12_2 O 1.0051(6) 0.5511(6) -0.2937(5)
Cu2_2 Cu -0.1396(1) 0.4654(1) -0.3296(1)
O4 O 0.9811(7) 0.2443(7) -0.3292(6)
loop_
_geom_bond_atom_site_label_1
_geom_bond_atom_site_label_2
_geom_bond_site_symmetry_1
_geom_bond_site_symmetry_2
Cu1 N1 1_555 1_555
Cu2 O1 1_555 1_555
N1 C1 1_555 1_555
N2 Cu1 1_555 1_555
O2 Cu2 1_555 1_555
O3 Cu2 1_555 1_555
O5 Cu1 1_555 1_555
O6 C3 1_555 1_555
O7 Cu1 1_555 1_555
O8 C6 1_555 1_555
O9 Cu1 1_555 1_555
O10 Cu2 1_555 1_555
O11 Cu1 1_555 1_555
O12 C12 1_555 1_555
C1 C4 1_555 1_555
C2 N1 1_555 1_555
C3 O5 1_555 1_555
C4 N2 1_555 1_555
C5 N2 1_555 1_555
C6 O7 1_555 1_555
C7 C4 1_555 1_555
C8 N1 1_555 1_555
C9 O9 1_555 1_555
C10 C7 1_555 1_555
C11 N2 1_555 1_555
C12 O11 1_555 1_555
C13 C10 1_555 1_555
C14 C1 1_555 1_555
H1 C1 1_555 1_555
H2 C2 1_555 1_555
H3 C2 1_555 1_555
H4 C4 1_555 1_555
H5 C5 1_555 1_555
H6 C5 1_555 1_555
H7 C7 1_555 1_555
H8 C7 1_555 1_555
H9 C8 1_555 1_555
H10 C8 1_555 1_555
H11 C10 1_555 1_555
H12 C10 1_555 1_555
H13 C11 1_555 1_555
H14 C11 1_555 1_555
H15 C13 1_555 1_555
H16 C13 1_555 1_555
H17 C14 1_555 1_555
H18 C14 1_555 1_555
O12_2 Cu2 1_555 1_555
Cu2_2 O12 1_555 1_555
O10 C9 1_555 1_555
C2 C3 1_555 1_555
C5 C6 1_555 1_555
C8 C9 1_555 1_555
C11 C12 1_555 1_555
C13 C14 1_555 1_555

#END
