
#######################################################################
#
#                 Cambridge Crystallographic Data Centre
#                                CCDC 
#
#######################################################################
#
# If this CIF has been generated from an entry in the Cambridge 
# Structural Database, then it will include bibliographic, chemical, 
# crystal, experimental, refinement or atomic coordinate data resulting 
# from the CCDC's data processing and validation procedures.
#
#######################################################################

data_CORXEO
_symmetry_cell_setting           triclinic
_symmetry_space_group_name_H-M   'P -1'
_symmetry_Int_Tables_number      2
_space_group_name_Hall           '-P 1'
loop_
_symmetry_equiv_pos_site_id
_symmetry_equiv_pos_as_xyz
1 x,y,z
2 -x,-y,-z
_cell_length_a                   8.9416(7)
_cell_length_b                   11.0128(9)
_cell_length_c                   18.4635(15)
_cell_angle_alpha                81.4410(10)
_cell_angle_beta                 83.4280(10)
_cell_angle_gamma                86.9770(10)
_cell_volume                     1784.9
loop_
_atom_site_label
_atom_site_type_symbol
_atom_site_fract_x
_atom_site_fract_y
_atom_site_fract_z
C1 C 0.4236(5) 0.3466(4) 0.4463(2)
H1 H 0.4364 0.3241 0.4992
H2 H 0.5133 0.3912 0.4219
C2 C 0.2843(5) 0.4287(4) 0.4379(2)
C3 C 0.0696(5) 0.5385(4) 0.4953(2)
H3 H 0.0736 0.5935 0.4476
H4 H 0.0629 0.5904 0.5350
C4 C 0.6269(6) 0.0574(5) 0.3611(3)
H5 H 0.6609 -0.0172 0.3928
H6 H 0.5479 0.0343 0.3327
C5 C 0.7535(9) 0.1088(6) 0.3109(4)
H7 H 0.7214 0.1874 0.2837
H8 H 0.7881 0.0516 0.2761
H9 H 0.8360 0.1220 0.3392
C6 C 0.0825(5) 0.3555(4) 0.0759(2)
H10 H 0.0697 0.3371 0.0262
H11 H -0.0102 0.3995 0.0945
C7 C 0.2156(5) 0.4353(4) 0.0718(2)
C8 C 0.4285(5) 0.5407(4) -0.0025(2)
H12 H 0.4205 0.5951 0.0361
H13 H 0.4340 0.5932 -0.0511
C9 C 0.3455(6) 0.0601(5) 0.1246(3)
H14 H 0.3993 0.1039 0.1563
H15 H 0.4202 0.0350 0.0853
C10 C 0.2811(8) -0.0504(6) 0.1690(4)
H16 H 0.2300 -0.0957 0.1378
H17 H 0.2085 -0.0266 0.2088
H18 H 0.3619 -0.1029 0.1902
C11 C -0.0892(6) 0.0737(5) 0.0967(3)
H19 H -0.0879 -0.0146 0.1173
H20 H -0.0212 0.0841 0.0502
C12 C -0.2433(6) 0.1154(6) 0.0820(3)
H21 H -0.2797 0.0649 0.0486
H22 H -0.2432 0.2016 0.0590
H23 H -0.3096 0.1075 0.1284
N1 N 0.2069(4) 0.4607(4) 0.49749(18)
H24 H 0.2392 0.4342 0.5405
N2 N 0.2952(4) 0.4660(3) 0.00718(17)
H25 H 0.2666 0.4402 -0.0318
N3 N 0.5773(4) 0.4028(3) 0.20518(17)
N4 N -0.0810(4) 0.4035(3) 0.30951(18)
N5 N -0.1376(4) 0.7647(3) 0.34168(19)
N6 N -0.5159(4) 0.6838(3) 0.3522(2)
N7 N -0.0156(4) 0.6943(3) 0.11928(19)
N8 N -0.4015(4) 0.7661(3) 0.11347(19)
O1 O 0.3540(3) 0.2348(3) 0.33183(15)
O2 O 0.2458(3) 0.4644(3) 0.37532(14)
O3 O 0.5669(5) 0.1506(4) 0.4063(2)
O4 O 0.1545(3) 0.2391(3) 0.20820(15)
O5 O 0.2338(3) 0.1437(3) 0.09119(16)
O6 O -0.0363(3) 0.1451(3) 0.14912(17)
O7 O 0.2492(3) 0.4708(3) 0.12877(14)
O8 O 0.4987(3) 0.3265(3) 0.18599(15)
O9 O 0.5160(3) 0.4694(2) 0.25338(14)
O10 O 0.7097(3) 0.4201(3) 0.18052(15)
O11 O -0.0270(3) 0.4703(2) 0.24983(13)
O12 O 0.0052(3) 0.3276(3) 0.34151(15)
O13 O -0.2148(3) 0.4198(3) 0.33178(15)
O14 O -0.0976(3) 0.6526(3) 0.33775(15)
O15 O -0.2292(3) 0.8130(3) 0.29682(16)
O16 O -0.0955(5) 0.8200(4) 0.3872(2)
O17 O -0.4056(3) 0.6115(3) 0.36950(15)
O18 O -0.5180(3) 0.7205(3) 0.28354(15)
O19 O -0.6118(4) 0.7143(4) 0.39827(18)
O20 O -0.0206(3) 0.7294(3) 0.18220(15)
O21 O -0.1142(3) 0.6189(3) 0.11303(15)
O22 O 0.0773(4) 0.7313(3) 0.06865(17)
O23 O -0.4267(3) 0.6527(3) 0.13518(15)
O24 O -0.3199(3) 0.8163(3) 0.15244(16)
O25 O -0.4522(4) 0.8224(3) 0.05930(17)
O26 O 0.2340(3) 0.6220(2) 0.24155(15)
H26 H 0.1968 0.6525 0.1996
H27 H 0.3253 0.6510 0.2404
P1 P 0.40754(14) 0.21020(11) 0.40584(6)
P2 P 0.11133(12) 0.21522(10) 0.13643(6)
Sm1 Sm -0.26393(2) 0.62766(2) 0.23940(2)
Sm2 Sm 0.24755(2) 0.40037(2) 0.25726(2)
O27 O 0.3060(5) 0.1299(4) 0.4626(2)
C13 C 0.1675(5) 0.0766(4) 0.4490(4)
H28 H 0.1224 0.1261 0.4071
H29 H 0.0928 0.0707 0.4932
C14 C 0.2205(12) -0.0518(5) 0.4307(6)
H30 H 0.2050 -0.0574 0.3796
H31 H 0.1625 -0.1145 0.4640
H32 H 0.3278 -0.0654 0.4370
C1A C -0.4236(5) 0.6534(4) 0.5537(2)
H1A H -0.4364 0.6759 0.5008
H2A H -0.5133 0.6088 0.5781
C2A C -0.2843(5) 0.5713(4) 0.5621(2)
C3A C -0.0696(5) 0.4615(4) 0.5047(2)
H3A H -0.0736 0.4065 0.5524
H4A H -0.0629 0.4096 0.4650
C4A C -0.6269(6) 0.9426(5) 0.6389(3)
H5A H -0.6609 1.0172 0.6072
H6A H -0.5479 0.9657 0.6673
C5A C -0.7535(9) 0.8912(6) 0.6891(4)
H7A H -0.7214 0.8126 0.7163
H8A H -0.7881 0.9484 0.7239
H9A H -0.8360 0.8780 0.6608
N1A N -0.2069(4) 0.5393(4) 0.50251(18)
H24A H -0.2392 0.5658 0.4595
O1A O -0.3540(3) 0.7652(3) 0.66817(15)
O2A O -0.2458(3) 0.5356(3) 0.62468(14)
O3A O -0.5669(5) 0.8494(4) 0.5937(2)
P1A P -0.40754(14) 0.78980(11) 0.59416(6)
O27A O -0.3060(5) 0.8701(4) 0.5374(2)
C13A C -0.1675(5) 0.9234(4) 0.5510(4)
H28A H -0.1224 0.8739 0.5929
H29A H -0.0928 0.9293 0.5068
C14A C -0.2205(12) 1.0518(5) 0.5693(6)
H30A H -0.2050 1.0574 0.6204
H31A H -0.1625 1.1145 0.5360
H32A H -0.3278 1.0654 0.5630
C6A C 0.9175(5) 0.6445(4) -0.0759(2)
H10A H 0.9303 0.6629 -0.0262
H11A H 1.0102 0.6005 -0.0945
C7A C 0.7844(5) 0.5647(4) -0.0718(2)
C8A C 0.5715(5) 0.4593(4) 0.0025(2)
H12A H 0.5795 0.4049 -0.0361
H13A H 0.5660 0.4068 0.0511
C9A C 0.6545(6) 0.9399(5) -0.1246(3)
H14A H 0.6007 0.8961 -0.1563
H15A H 0.5798 0.9650 -0.0853
C10A C 0.7189(8) 1.0504(6) -0.1690(4)
H16A H 0.7700 1.0957 -0.1378
H17A H 0.7915 1.0266 -0.2088
H18A H 0.6381 1.1029 -0.1902
C11A C 1.0892(6) 0.9263(5) -0.0967(3)
H19A H 1.0879 1.0146 -0.1173
H20A H 1.0212 0.9159 -0.0502
C12A C 1.2433(6) 0.8846(6) -0.0820(3)
H21A H 1.2797 0.9351 -0.0486
H22A H 1.2432 0.7984 -0.0590
H23A H 1.3096 0.8925 -0.1284
N2A N 0.7048(4) 0.5340(3) -0.00718(17)
H25A H 0.7334 0.5598 0.0318
O4A O 0.8455(3) 0.7609(3) -0.20820(15)
O5A O 0.7662(3) 0.8563(3) -0.09119(16)
O6A O 1.0363(3) 0.8549(3) -0.14912(17)
O7A O 0.7508(3) 0.5292(3) -0.12877(14)
P2A P 0.88867(12) 0.78478(10) -0.13643(6)
N3A N -0.5773(4) 0.5972(3) 0.79482(17)
N4A N 0.0810(4) 0.5965(3) 0.69049(18)
N5A N 0.1376(4) 0.2353(3) 0.65832(19)
N6A N 0.5159(4) 0.3162(3) 0.6478(2)
N7A N 0.0156(4) 0.3057(3) 0.88072(19)
N8A N 0.4015(4) 0.2339(3) 0.88653(19)
O8A O -0.4987(3) 0.6735(3) 0.81401(15)
O9A O -0.5160(3) 0.5306(2) 0.74662(14)
O10A O -0.7097(3) 0.5799(3) 0.81948(15)
O11A O 0.0270(3) 0.5297(2) 0.75017(13)
O12A O -0.0052(3) 0.6724(3) 0.65849(15)
O13A O 0.2148(3) 0.5802(3) 0.66822(15)
O14A O 0.0976(3) 0.3474(3) 0.66225(15)
O15A O 0.2292(3) 0.1870(3) 0.70318(16)
O16A O 0.0955(5) 0.1800(4) 0.6128(2)
O17A O 0.4056(3) 0.3885(3) 0.63050(15)
O18A O 0.5180(3) 0.2795(3) 0.71646(15)
O19A O 0.6118(4) 0.2857(4) 0.60173(18)
O20A O 0.0206(3) 0.2706(3) 0.81780(15)
O21A O 0.1142(3) 0.3811(3) 0.88697(15)
O22A O -0.0773(4) 0.2687(3) 0.93135(17)
O23A O 0.4267(3) 0.3473(3) 0.86482(15)
O24A O 0.3199(3) 0.1837(3) 0.84756(16)
O25A O 0.4522(4) 0.1776(3) 0.94070(17)
O26A O -0.2340(3) 0.3780(2) 0.75845(15)
H26A H -0.1968 0.3475 0.8004
H27A H -0.3253 0.3490 0.7596
Sm1A Sm 0.26393(2) 0.37234(2) 0.76060(2)
Sm2A Sm -0.24755(2) 0.59963(2) 0.74274(2)
O4A_2 O -0.1545(3) 0.7609(3) 0.79180(15)
O7A_2 O -0.2492(3) 0.5292(3) 0.87123(14)
O9_2 O -0.4840(3) 0.4694(2) 0.25338(14)
O9A_2 O 0.4840(3) 0.5306(2) 0.74662(14)
O10_2 O -0.2903(3) 0.4201(3) 0.18052(15)
O10A_2 O 0.2903(3) 0.5799(3) 0.81948(15)
Sm1_2 Sm 0.73607(2) 0.62766(2) 0.23940(2)
Sm1A_2 Sm -0.73607(2) 0.37234(2) 0.76060(2)
Sm2A_2 Sm 0.75245(2) 0.59963(2) -0.25726(2)
loop_
_geom_bond_atom_site_label_1
_geom_bond_atom_site_label_2
_geom_bond_site_symmetry_1
_geom_bond_site_symmetry_2
C1 H1 1_555 1_555
H2 C1 1_555 1_555
C2 C1 1_555 1_555
C3 H3 1_555 1_555
H4 C3 1_555 1_555
C4 H5 1_555 1_555
H6 C4 1_555 1_555
C5 C4 1_555 1_555
H7 C5 1_555 1_555
H8 C5 1_555 1_555
H9 C5 1_555 1_555
C6 H10 1_555 1_555
H11 C6 1_555 1_555
C7 C6 1_555 1_555
C8 H12 1_555 1_555
H13 C8 1_555 1_555
C9 H14 1_555 1_555
H15 C9 1_555 1_555
C10 C9 1_555 1_555
H16 C10 1_555 1_555
H17 C10 1_555 1_555
H18 C10 1_555 1_555
C11 H19 1_555 1_555
H20 C11 1_555 1_555
C12 C11 1_555 1_555
H21 C12 1_555 1_555
H22 C12 1_555 1_555
H23 C12 1_555 1_555
N1 C2 1_555 1_555
H24 N1 1_555 1_555
N2 C7 1_555 1_555
H25 N2 1_555 1_555
N3 O8 1_555 1_555
N4 O11 1_555 1_555
N5 O14 1_555 1_555
N6 O17 1_555 1_555
N7 O20 1_555 1_555
N8 O23 1_555 1_555
O1 P1 1_555 1_555
O2 C2 1_555 1_555
O3 C4 1_555 1_555
O4 P2 1_555 1_555
O5 C9 1_555 1_555
O6 C11 1_555 1_555
O7 C7 1_555 1_555
O8 Sm2 1_555 1_555
O9 N3 1_555 1_555
O10 N3 1_555 1_555
O11 Sm1 1_555 1_555
O12 N4 1_555 1_555
O13 N4 1_555 1_555
O14 Sm1 1_555 1_555
O15 N5 1_555 1_555
O16 N5 1_555 1_555
O17 Sm1 1_555 1_555
O18 N6 1_555 1_555
O19 N6 1_555 1_555
O20 Sm1 1_555 1_555
O21 N7 1_555 1_555
O22 N7 1_555 1_555
O23 Sm1 1_555 1_555
O24 N8 1_555 1_555
O25 N8 1_555 1_555
O26 H26 1_555 1_555
H27 O26 1_555 1_555
P1 C1 1_555 1_555
P2 C6 1_555 1_555
Sm1 O13 1_555 1_555
Sm2 O1 1_555 1_555
O27 P1 1_555 1_555
C13 O27 1_555 1_555
H28 C13 1_555 1_555
H29 C13 1_555 1_555
C14 C13 1_555 1_555
H30 C14 1_555 1_555
H31 C14 1_555 1_555
H32 C14 1_555 1_555
C1A H1A 1_555 1_555
H2A C1A 1_555 1_555
C2A C1A 1_555 1_555
C3A C3 1_555 1_555
H3A C3A 1_555 1_555
H4A C3A 1_555 1_555
C4A H5A 1_555 1_555
H6A C4A 1_555 1_555
C5A C4A 1_555 1_555
H7A C5A 1_555 1_555
H8A C5A 1_555 1_555
H9A C5A 1_555 1_555
N1A C2A 1_555 1_555
H24A N1A 1_555 1_555
O1A P1A 1_555 1_555
O2A C2A 1_555 1_555
O3A C4A 1_555 1_555
P1A C1A 1_555 1_555
O27A P1A 1_555 1_555
C13A O27A 1_555 1_555
H28A C13A 1_555 1_555
H29A C13A 1_555 1_555
C14A C13A 1_555 1_555
H30A C14A 1_555 1_555
H31A C14A 1_555 1_555
H32A C14A 1_555 1_555
C6A H10A 1_555 1_555
H11A C6A 1_555 1_555
C7A C6A 1_555 1_555
C8A C8 1_555 1_555
H12A C8A 1_555 1_555
H13A C8A 1_555 1_555
C9A H14A 1_555 1_555
H15A C9A 1_555 1_555
C10A C9A 1_555 1_555
H16A C10A 1_555 1_555
H17A C10A 1_555 1_555
H18A C10A 1_555 1_555
C11A H19A 1_555 1_555
H20A C11A 1_555 1_555
C12A C11A 1_555 1_555
H21A C12A 1_555 1_555
H22A C12A 1_555 1_555
H23A C12A 1_555 1_555
N2A C7A 1_555 1_555
H25A N2A 1_555 1_555
O4A P2A 1_555 1_555
O5A C9A 1_555 1_555
O6A C11A 1_555 1_555
O7A C7A 1_555 1_555
P2A C6A 1_555 1_555
N3A O8A 1_555 1_555
N4A O11A 1_555 1_555
N5A O14A 1_555 1_555
N6A O17A 1_555 1_555
N7A O20A 1_555 1_555
N8A O23A 1_555 1_555
O8A Sm2A 1_555 1_555
O9A N3A 1_555 1_555
O10A N3A 1_555 1_555
O11A Sm1A 1_555 1_555
O12A N4A 1_555 1_555
O13A N4A 1_555 1_555
O14A Sm1A 1_555 1_555
O15A N5A 1_555 1_555
O16A N5A 1_555 1_555
O17A Sm1A 1_555 1_555
O18A N6A 1_555 1_555
O19A N6A 1_555 1_555
O20A Sm1A 1_555 1_555
O21A N7A 1_555 1_555
O22A N7A 1_555 1_555
O23A Sm1A 1_555 1_555
O24A N8A 1_555 1_555
O25A N8A 1_555 1_555
O26A H26A 1_555 1_555
H27A O26A 1_555 1_555
Sm1A O13A 1_555 1_555
Sm2A O1A 1_555 1_555
O4A_2 Sm2A 1_555 1_555
O7A_2 Sm2A 1_555 1_555
O9_2 Sm1 1_555 1_555
O9A_2 Sm1A 1_555 1_555
O10_2 Sm1 1_555 1_555
O10A_2 Sm1A 1_555 1_555
Sm1_2 O9 1_555 1_555
Sm1A_2 O9A 1_555 1_555
Sm2A_2 O4A 1_555 1_555
C3 N1 1_555 1_555
C8 N2 1_555 1_555
O2 Sm2 1_555 1_555
O3 P1 1_555 1_555
O4 Sm2 1_555 1_555
O5 P2 1_555 1_555
O6 P2 1_555 1_555
O7 Sm2 1_555 1_555
O9 Sm2 1_555 1_555
O10 Sm1_2 1_555 1_555
O11 Sm2 1_555 1_555
O12 Sm2 1_555 1_555
O15 Sm1 1_555 1_555
O18 Sm1 1_555 1_555
O21 Sm1 1_555 1_555
O24 Sm1 1_555 1_555
O26 Sm2 1_555 1_555
C3A N1A 1_555 1_555
O2A Sm2A 1_555 1_555
O3A P1A 1_555 1_555
C8A N2A 1_555 1_555
O5A P2A 1_555 1_555
O6A P2A 1_555 1_555
O7A Sm2A_2 1_555 1_555
O9A Sm2A 1_555 1_555
O10A Sm1A_2 1_555 1_555
O11A Sm2A 1_555 1_555
O12A Sm2A 1_555 1_555
O15A Sm1A 1_555 1_555
O18A Sm1A 1_555 1_555
O21A Sm1A 1_555 1_555
O24A Sm1A 1_555 1_555
O26A Sm2A 1_555 1_555

#END
