
#######################################################################
#
#                 Cambridge Crystallographic Data Centre
#                                CCDC 
#
#######################################################################
#
# If this CIF has been generated from an entry in the Cambridge 
# Structural Database, then it will include bibliographic, chemical, 
# crystal, experimental, refinement or atomic coordinate data resulting 
# from the CCDC's data processing and validation procedures.
#
#######################################################################

data_CORYUE
_symmetry_cell_setting           trigonal
_symmetry_space_group_name_H-M   'P -3'
_symmetry_Int_Tables_number      147
_space_group_name_Hall           '-P 3'
loop_
_symmetry_equiv_pos_site_id
_symmetry_equiv_pos_as_xyz
1 x,y,z
2 -y,x-y,z
3 -x+y,-x,z
4 -x,-y,-z
5 y,-x+y,-z
6 x-y,x,-z
_cell_length_a                   16.895(2)
_cell_length_b                   16.895(2)
_cell_length_c                   7.0151(14)
_cell_angle_alpha                90
_cell_angle_beta                 90
_cell_angle_gamma                120
_cell_volume                     1734.13
loop_
_atom_site_label
_atom_site_type_symbol
_atom_site_fract_x
_atom_site_fract_y
_atom_site_fract_z
Cu1 Cu 0.3333 0.6667 0.91199(10)
Cu2 Cu 0.44141(3) 0.75307(3) 0.21854(6)
I1 I 0.3333 0.6667 0.52020(5)
I2 I 0.369062(15) 0.832376(14) 1.00753(3)
S1 S 0.58078(6) 0.85822(6) 0.33875(11)
C1 C 0.4982(2) 0.9544(2) 0.4915(5)
H1 H 0.4981 0.9311 0.6180
H2 H 0.4419 0.9109 0.4284
C2 C 0.5790(2) 0.9631(2) 0.3798(5)
H3 H 0.6345 1.0053 0.4469
H4 H 0.5803 0.9902 0.2570
C3 C 0.5863(2) 0.8225(2) 0.5820(5)
H5 H 0.5360 0.8188 0.6557
H6 H 0.5797 0.7621 0.5793
C4 C 0.6750(2) 0.8880(2) 0.6768(5)
C5 C 0.6797(3) 0.9521(3) 0.8042(6)
H7 H 0.6267 0.9524 0.8390
C6 C 0.7639(4) 1.0168(4) 0.8816(7)
H8 H 0.7671 1.0607 0.9662
C7 C 0.8405(4) 1.0153(3) 0.8333(8)
H9 H 0.8964 1.0585 0.8843
C8 C 0.8363(3) 0.9508(4) 0.7101(7)
H10 H 0.8893 0.9498 0.6791
C9 C 0.7540(3) 0.8872(3) 0.6314(6)
H11 H 0.7517 0.8436 0.5473
Cu1_2 Cu 0.3333 0.6667 1.91199(10)
Cu1_3 Cu 0.3333 0.6667 -0.08801(10)
Cu2B Cu 0.31166(4) 0.55859(3) 0.21854(6)
Cu2A Cu 0.24693(3) 0.68834(4) 0.21854(6)
Cu2_2 Cu 0.44141(3) 0.75307(3) 1.21854(6)
Cu2A_2 Cu 0.24693(3) 0.68834(4) 1.21854(6)
Cu2B_2 Cu 0.31166(4) 0.55859(3) 1.21854(6)
Cu2C Cu 0.55859(3) 1.24693(3) 0.78146(6)
Cu2E Cu 0.68834(4) 0.44141(3) 0.78146(6)
Cu2D Cu -0.24693(3) 0.31166(4) 0.78146(6)
I1_2 I 0.3333 0.6667 1.52020(5)
I1_3 I 0.3333 0.6667 -0.47980(5)
I2A I 0.167624(14) 0.536686(21) 1.00753(3)
I2B I 0.463314(21) 0.630938(15) 1.00753(3)
I2_2 I 0.369062(15) 0.832376(14) 0.00753(3)
I2B_2 I 0.463314(21) 0.630938(15) 0.00753(3)
I2A_2 I 0.167624(14) 0.536686(21) 0.00753(3)
S1C S 0.41922(6) 1.14178(6) 0.66125(11)
S1B S 0.27744(8) 0.41922(6) 0.33875(11)
S1E S 0.72256(8) 0.58078(6) 0.66125(11)
S1A S 0.14178(6) 0.72256(8) 0.33875(11)
S1D S -0.14178(6) 0.27744(8) 0.66125(11)
S1_2 S 0.58078(6) 0.85822(6) 1.33875(11)
S1A_2 S 0.14178(6) 0.72256(8) 1.33875(11)
S1B_2 S 0.27744(8) 0.41922(6) 1.33875(11)
C1C C 0.5018(2) 1.0456(2) 0.5085(5)
C1B C 0.4562(3) 0.5018(2) 0.4915(5)
C1E C 0.5438(3) 0.4982(2) 0.5085(5)
C1A C 0.0456(2) 0.5438(3) 0.4915(5)
C1D C -0.0456(2) 0.4562(3) 0.5085(5)
H1C H 0.5019 1.0689 0.3820
H1B H 0.4330 0.5019 0.6180
H1E H 0.5670 0.4981 0.3820
H1A H 0.0689 0.5670 0.6180
H1D H -0.0689 0.4330 0.3820
H2C H 0.5581 1.0891 0.5716
H2B H 0.4690 0.5581 0.4284
H2E H 0.5310 0.4419 0.5716
H2A H 0.0891 0.5310 0.4284
H2D H -0.0891 0.4690 0.5716
C2C C 0.4210(2) 1.0369(2) 0.6202(5)
C2B C 0.3841(3) 0.4210(2) 0.3798(5)
C2E C 0.6159(3) 0.5790(2) 0.6202(5)
C2A C 0.0369(2) 0.6159(3) 0.3798(5)
C2D C -0.0369(2) 0.3841(3) 0.6202(5)
H3C H 0.3655 0.9947 0.5531
H3B H 0.3708 0.3655 0.4469
H3E H 0.6292 0.6345 0.5531
H3A H -0.0053 0.6292 0.4469
H3D H 0.0053 0.3708 0.5531
H4C H 0.4197 1.0098 0.7430
H4B H 0.4099 0.4197 0.2570
H4E H 0.5901 0.5803 0.7430
H4A H 0.0098 0.5901 0.2570
H4D H -0.0098 0.4099 0.7430
C3C C 0.4137(2) 1.1775(2) 0.4180(5)
C3B C 0.2362(3) 0.4137(2) 0.5820(5)
C3E C 0.7638(3) 0.5863(2) 0.4180(5)
C3A C 0.1775(2) 0.7638(3) 0.5820(5)
C3D C -0.1775(2) 0.2362(3) 0.4180(5)
H5C H 0.4640 1.1812 0.3443
H5B H 0.2828 0.4640 0.6557
H5E H 0.7172 0.5360 0.3443
H5A H 0.1812 0.7172 0.6557
H5D H -0.1812 0.2828 0.3443
H6C H 0.4203 1.2379 0.4207
H6B H 0.1824 0.4203 0.5793
H6E H 0.8176 0.5797 0.4207
H6A H 0.2379 0.8176 0.5793
H6D H -0.2379 0.1824 0.4207
C4C C 0.3250(2) 1.1120(2) 0.3232(5)
C4B C 0.2130(3) 0.3250(2) 0.6768(5)
C4E C 0.7870(3) 0.6750(2) 0.3232(5)
C4A C 0.1120(2) 0.7870(3) 0.6768(5)
C4D C -0.1120(2) 0.2130(3) 0.3232(5)
C5C C 0.3203(3) 1.0479(3) 0.1958(6)
C5B C 0.2724(4) 0.3203(3) 0.8042(6)
C5E C 0.7276(4) 0.6797(3) 0.1958(6)
C5A C 0.0479(3) 0.7276(4) 0.8042(6)
C5D C -0.0479(3) 0.2724(4) 0.1958(6)
H7C H 0.3733 1.0476 0.1610
H7B H 0.3257 0.3733 0.8390
H7E H 0.6743 0.6267 0.1610
H7A H 0.0476 0.6743 0.8390
H7D H -0.0476 0.3257 0.1610
C6C C 0.2361(4) 0.9832(4) 0.1184(7)
C6B C 0.2529(6) 0.2361(4) 0.8816(7)
C6E C 0.7471(6) 0.7639(4) 0.1184(7)
C6A C -0.0168(4) 0.7471(6) 0.8816(7)
C6D C 0.0168(4) 0.2529(6) 0.1184(7)
H8C H 0.2329 0.9393 0.0338
H8B H 0.2936 0.2329 0.9662
H8E H 0.7064 0.7671 0.0338
H8A H -0.0607 0.7064 0.9662
H8D H 0.0607 0.2936 0.0338
C7C C 0.1595(4) 0.9847(3) 0.1667(8)
C7B C 0.1748(5) 0.1595(4) 0.8333(8)
C7E C 0.8252(5) 0.8405(4) 0.1667(8)
C7A C -0.0153(3) 0.8252(5) 0.8333(8)
C7D C 0.0153(3) 0.1748(5) 0.1667(8)
H9C H 0.1036 0.9415 0.1157
H9B H 0.1621 0.1036 0.8843
H9E H 0.8379 0.8964 0.1157
H9A H -0.0585 0.8379 0.8843
H9D H 0.0585 0.1621 0.1157
C8C C 0.1637(3) 1.0492(4) 0.2899(7)
C8B C 0.1145(5) 0.1637(3) 0.7101(7)
C8E C 0.8855(5) 0.8363(3) 0.2899(7)
C8A C 0.0492(4) 0.8855(5) 0.7101(7)
C8D C -0.0492(4) 0.1145(5) 0.2899(7)
H10C H 0.1107 1.0502 0.3209
H10B H 0.0605 0.1107 0.6791
H10E H 0.9395 0.8893 0.3209
H10A H 0.0502 0.9395 0.6791
H10D H -0.0502 0.0605 0.3209
C9C C 0.2460(3) 1.1128(3) 0.3686(6)
C9B C 0.1332(4) 0.2460(3) 0.6314(6)
C9E C 0.8668(4) 0.7540(3) 0.3686(6)
C9A C 0.1128(3) 0.8668(4) 0.6314(6)
C9D C -0.1128(3) 0.1332(4) 0.3686(6)
H11C H 0.2483 1.1564 0.4527
H11B H 0.0919 0.2483 0.5473
H11E H 0.9081 0.7517 0.4527
H11A H 0.1564 0.9081 0.5473
H11D H -0.1564 0.0919 0.4527
loop_
_geom_bond_atom_site_label_1
_geom_bond_atom_site_label_2
_geom_bond_site_symmetry_1
_geom_bond_site_symmetry_2
Cu1 I1 1_555 1_555
Cu2 I1 1_555 1_555
I1 Cu2B 1_555 1_555
I2 Cu1 1_555 1_555
S1 Cu2 1_555 1_555
C1 H1 1_555 1_555
H2 C1 1_555 1_555
C2 S1 1_555 1_555
H3 C2 1_555 1_555
H4 C2 1_555 1_555
C3 S1 1_555 1_555
H5 C3 1_555 1_555
H6 C3 1_555 1_555
C4 C3 1_555 1_555
C5 C4 1_555 1_555
H7 C5 1_555 1_555
C6 C5 1_555 1_555
H8 C6 1_555 1_555
C7 C6 1_555 1_555
H9 C7 1_555 1_555
C8 C7 1_555 1_555
H10 C8 1_555 1_555
C9 C4 1_555 1_555
H11 C9 1_555 1_555
Cu1_2 I1_2 1_555 1_555
Cu1_3 Cu2 1_555 1_555
Cu2B Cu2 1_555 1_555
Cu2A Cu2 1_555 1_555
Cu2_2 Cu1 1_555 1_555
Cu2A_2 Cu1 1_555 1_555
Cu2B_2 Cu1 1_555 1_555
Cu2C S1C 1_555 1_555
Cu2E S1E 1_555 1_555
Cu2D S1D 1_555 1_555
I1_2 Cu2_2 1_555 1_555
I1_3 Cu1_3 1_555 1_555
I2A Cu1 1_555 1_555
I2B Cu1 1_555 1_555
I2_2 Cu2 1_555 1_555
I2B_2 Cu2 1_555 1_555
I2A_2 Cu1_3 1_555 1_555
S1C C2C 1_555 1_555
S1B Cu2B 1_555 1_555
S1E C2E 1_555 1_555
S1A Cu2A 1_555 1_555
S1D C2D 1_555 1_555
S1_2 Cu2_2 1_555 1_555
S1A_2 Cu2A_2 1_555 1_555
S1B_2 Cu2B_2 1_555 1_555
C1C C1 1_555 1_555
C1B C1E 1_555 1_555
C1E H1E 1_555 1_555
C1A C1D 1_555 1_555
C1D H1D 1_555 1_555
H1C C1C 1_555 1_555
H1B C1B 1_555 1_555
H1A C1A 1_555 1_555
H2C C1C 1_555 1_555
H2B C1B 1_555 1_555
H2E C1E 1_555 1_555
H2A C1A 1_555 1_555
H2D C1D 1_555 1_555
C2C C1C 1_555 1_555
C2B S1B 1_555 1_555
C2E C1E 1_555 1_555
C2A S1A 1_555 1_555
C2D C1D 1_555 1_555
H3C C2C 1_555 1_555
H3B C2B 1_555 1_555
H3E C2E 1_555 1_555
H3A C2A 1_555 1_555
H3D C2D 1_555 1_555
H4C C2C 1_555 1_555
H4B C2B 1_555 1_555
H4E C2E 1_555 1_555
H4A C2A 1_555 1_555
H4D C2D 1_555 1_555
C3C S1C 1_555 1_555
C3B S1B 1_555 1_555
C3E S1E 1_555 1_555
C3A S1A 1_555 1_555
C3D S1D 1_555 1_555
H5C C3C 1_555 1_555
H5B C3B 1_555 1_555
H5E C3E 1_555 1_555
H5A C3A 1_555 1_555
H5D C3D 1_555 1_555
H6C C3C 1_555 1_555
H6B C3B 1_555 1_555
H6E C3E 1_555 1_555
H6A C3A 1_555 1_555
H6D C3D 1_555 1_555
C4C C3C 1_555 1_555
C4B C3B 1_555 1_555
C4E C3E 1_555 1_555
C4A C3A 1_555 1_555
C4D C3D 1_555 1_555
C5C C4C 1_555 1_555
C5B C4B 1_555 1_555
C5E C4E 1_555 1_555
C5A C4A 1_555 1_555
C5D C4D 1_555 1_555
H7C C5C 1_555 1_555
H7B C5B 1_555 1_555
H7E C5E 1_555 1_555
H7A C5A 1_555 1_555
H7D C5D 1_555 1_555
C6C C5C 1_555 1_555
C6B C5B 1_555 1_555
C6E C5E 1_555 1_555
C6A C5A 1_555 1_555
C6D C5D 1_555 1_555
H8C C6C 1_555 1_555
H8B C6B 1_555 1_555
H8E C6E 1_555 1_555
H8A C6A 1_555 1_555
H8D C6D 1_555 1_555
C7C C6C 1_555 1_555
C7B C6B 1_555 1_555
C7E C6E 1_555 1_555
C7A C6A 1_555 1_555
C7D C6D 1_555 1_555
H9C C7C 1_555 1_555
H9B C7B 1_555 1_555
H9E C7E 1_555 1_555
H9A C7A 1_555 1_555
H9D C7D 1_555 1_555
C8C C7C 1_555 1_555
C8B C7B 1_555 1_555
C8E C7E 1_555 1_555
C8A C7A 1_555 1_555
C8D C7D 1_555 1_555
H10C C8C 1_555 1_555
H10B C8B 1_555 1_555
H10E C8E 1_555 1_555
H10A C8A 1_555 1_555
H10D C8D 1_555 1_555
C9C C4C 1_555 1_555
C9B C4B 1_555 1_555
C9E C4E 1_555 1_555
C9A C4A 1_555 1_555
C9D C4D 1_555 1_555
H11C C9C 1_555 1_555
H11B C9B 1_555 1_555
H11E C9E 1_555 1_555
H11A C9A 1_555 1_555
H11D C9D 1_555 1_555
I1 Cu2A 1_555 1_555
I2 Cu2_2 1_555 1_555
I2 Cu2A_2 1_555 1_555
C1 C2 1_555 1_555
C8 C9 1_555 1_555
Cu1_3 Cu2B 1_555 1_555
Cu1_3 Cu2A 1_555 1_555
Cu1_3 I2_2 1_555 1_555
Cu1_3 I2B_2 1_555 1_555
Cu2B Cu2A 1_555 1_555
Cu2B I2B_2 1_555 1_555
Cu2B I2A_2 1_555 1_555
Cu2A I2_2 1_555 1_555
Cu2A I2A_2 1_555 1_555
Cu2_2 Cu2A_2 1_555 1_555
Cu2_2 Cu2B_2 1_555 1_555
Cu2_2 I2B 1_555 1_555
Cu2A_2 Cu2B_2 1_555 1_555
Cu2A_2 I1_2 1_555 1_555
Cu2A_2 I2A 1_555 1_555
Cu2B_2 I1_2 1_555 1_555
Cu2B_2 I2A 1_555 1_555
Cu2B_2 I2B 1_555 1_555
C1B C2B 1_555 1_555
C1A C2A 1_555 1_555
C8C C9C 1_555 1_555
C8B C9B 1_555 1_555
C8E C9E 1_555 1_555
C8A C9A 1_555 1_555
C8D C9D 1_555 1_555

#END
