
#######################################################################
#
#                 Cambridge Crystallographic Data Centre
#                                CCDC 
#
#######################################################################
#
# If this CIF has been generated from an entry in the Cambridge 
# Structural Database, then it will include bibliographic, chemical, 
# crystal, experimental, refinement or atomic coordinate data resulting 
# from the CCDC's data processing and validation procedures.
#
#######################################################################

data_CORZOA
_symmetry_cell_setting           cubic
_symmetry_space_group_name_H-M   'P a -3'
_symmetry_Int_Tables_number      205
_space_group_name_Hall           '-P 2ac 2ab 3'
loop_
_symmetry_equiv_pos_site_id
_symmetry_equiv_pos_as_xyz
1 x,y,z
2 1/2-x,-y,1/2+z
3 -x,1/2+y,1/2-z
4 1/2+x,1/2-y,-z
5 z,x,y
6 1/2+z,1/2-x,-y
7 1/2-z,-x,1/2+y
8 -z,1/2+x,1/2-y
9 y,z,x
10 -y,1/2+z,1/2-x
11 1/2+y,1/2-z,-x
12 1/2-y,-z,1/2+x
13 -x,-y,-z
14 1/2+x,y,1/2-z
15 x,1/2-y,1/2+z
16 1/2-x,1/2+y,z
17 -z,-x,-y
18 1/2-z,1/2+x,y
19 1/2+z,x,1/2-y
20 z,1/2-x,1/2+y
21 -y,-z,-x
22 y,1/2-z,1/2+x
23 1/2-y,1/2+z,x
24 1/2+y,z,1/2-x
_cell_length_a                   27.590(3)
_cell_length_b                   27.590(3)
_cell_length_c                   27.590(3)
_cell_angle_alpha                90
_cell_angle_beta                 90
_cell_angle_gamma                90
_cell_volume                     21001.7
loop_
_atom_site_label
_atom_site_type_symbol
_atom_site_fract_x
_atom_site_fract_y
_atom_site_fract_z
In1 In 0.663140(10) 0.364947(9) 0.339871(9)
Cl1 Cl 0.58293(5) 0.39591(5) 0.34074(5)
O1 O 0.62784(11) 0.57148(10) 0.33106(11)
O2 O 0.69609(11) 0.61035(10) 0.34514(12)
O3 O 0.80521(11) 0.21468(9) 0.34167(11)
O4 O 0.87677(13) 0.24423(12) 0.32993(11)
N1 N 0.69979(12) 0.43842(11) 0.34190(10)
N2 N 0.74353(13) 0.35199(11) 0.34154(11)
C1 C 0.67644(16) 0.47993(13) 0.34085(13)
H1 H 0.6428 0.4793 0.3390
C2 C 0.69958(17) 0.52513(14) 0.34234(16)
C3 C 0.7490(2) 0.5249(2) 0.34651(19)
H2 H 0.7660 0.5539 0.3484
C4 C 0.7739(2) 0.4805(2) 0.3480(2)
H3 H 0.8075 0.4797 0.3509
C5 C 0.74782(17) 0.43860(15) 0.34501(18)
C6 C 0.77295(18) 0.39023(15) 0.34283(19)
C7 C 0.8218(2) 0.3847(3) 0.3414(2)
H4 H 0.8412 0.4123 0.3427
C8 C 0.8437(2) 0.3408(2) 0.3383(2)
H5 H 0.8772 0.3377 0.3360
C9 C 0.81280(17) 0.30009(14) 0.33855(17)
C10 C 0.76383(16) 0.30728(15) 0.33960(13)
H6 H 0.7436 0.2804 0.3390
C11 C 0.67231(17) 0.57050(15) 0.33925(15)
C12 C 0.83239(17) 0.24990(14) 0.33667(18)
In1J In 0.864947(9) 0.160129(9) 0.336860(10)
In1T In 0.635053(9) 0.660129(9) 0.336860(10)
O1P O 0.66894(11) 0.37216(11) 0.42852(10)
O2P O 0.65486(12) 0.30391(11) 0.38965(10)
O3G O 0.65833(11) 0.30521(11) 0.28532(9)
O4G O 0.67007(11) 0.37677(13) 0.25577(12)
loop_
_geom_bond_atom_site_label_1
_geom_bond_atom_site_label_2
_geom_bond_site_symmetry_1
_geom_bond_site_symmetry_2
In1 Cl1 1_555 1_555
O1 C11 1_555 1_555
O2 C11 1_555 1_555
O3 C12 1_555 1_555
O4 C12 1_555 1_555
N1 In1 1_555 1_555
N2 In1 1_555 1_555
C1 N1 1_555 1_555
H1 C1 1_555 1_555
C2 C1 1_555 1_555
C3 C2 1_555 1_555
H2 C3 1_555 1_555
C4 C3 1_555 1_555
H3 C4 1_555 1_555
C5 N1 1_555 1_555
C6 N2 1_555 1_555
C7 C6 1_555 1_555
H4 C7 1_555 1_555
C8 C7 1_555 1_555
H5 C8 1_555 1_555
C9 C8 1_555 1_555
C10 N2 1_555 1_555
H6 C10 1_555 1_555
C11 C2 1_555 1_555
C12 C9 1_555 1_555
In1J O3 1_555 1_555
In1T O1 1_555 1_555
O1P In1 1_555 1_555
O2P In1 1_555 1_555
O3G In1 1_555 1_555
O4G In1 1_555 1_555
O2 In1T 1_555 1_555
O4 In1J 1_555 1_555
C4 C5 1_555 1_555
C5 C6 1_555 1_555
C9 C10 1_555 1_555

#END
