
#######################################################################
#
#                 Cambridge Crystallographic Data Centre
#                                CCDC 
#
#######################################################################
#
# If this CIF has been generated from an entry in the Cambridge 
# Structural Database, then it will include bibliographic, chemical, 
# crystal, experimental, refinement or atomic coordinate data resulting 
# from the CCDC's data processing and validation procedures.
#
#######################################################################

data_CORZEP
_symmetry_cell_setting           triclinic
_symmetry_space_group_name_H-M   'P -1'
_symmetry_Int_Tables_number      2
_space_group_name_Hall           '-P 1'
loop_
_symmetry_equiv_pos_site_id
_symmetry_equiv_pos_as_xyz
1 x,y,z
2 -x,-y,-z
_cell_length_a                   7.7928(5)
_cell_length_b                   9.7436(6)
_cell_length_c                   12.4764(8)
_cell_angle_alpha                98.904(1)
_cell_angle_beta                 107.211(1)
_cell_angle_gamma                102.192(1)
_cell_volume                     860.221
loop_
_atom_site_label
_atom_site_type_symbol
_atom_site_fract_x
_atom_site_fract_y
_atom_site_fract_z
Ni1 Ni 0.52791(10) -0.31426(7) -0.31202(6)
Mo1 Mo 0.36276(7) -1.05081(5) -0.15674(4)
Mo2 Mo 0.28822(6) -0.25220(5) 0.02863(4)
Te1 Te 0.24249(5) -0.79112(4) 0.01634(3)
Mo3 Mo 0.37100(7) -0.55385(5) -0.14935(4)
O1 O 0.2705(5) -0.4018(4) -0.0897(3)
O2 O 0.5328(5) -0.6755(4) -0.1335(3)
O3 O 0.3663(5) -0.6023(4) 0.0147(3)
O4 O 0.4477(5) -0.8715(4) 0.0134(3)
O5 O 0.0938(6) -0.3104(4) 0.0607(4)
O6 O 0.3353(6) -1.1938(4) -0.2658(3)
O7 O 0.4054(5) -0.0706(4) 0.1456(3)
O8 O 0.2027(5) -0.1436(4) -0.0777(3)
O9 O 0.2137(6) -0.9592(4) -0.2193(4)
O10 O 0.4268(6) -0.4765(4) -0.2559(3)
O11 O 0.1632(6) -0.6772(4) -0.2216(3)
N1 N 0.6325(7) -0.1734(5) -0.3910(4)
O12 O 0.2689(6) -0.7682(4) 0.1688(3)
N2 N 0.3576(7) -0.4071(5) -0.4734(4)
C1 C 0.7736(9) -0.0553(7) -0.3402(5)
H1 H 0.8299 -0.0343 -0.2605
C2 C 0.8406(10) 0.0382(7) -0.4011(6)
H2 H 0.9376 0.1216 -0.3633
C3 C 0.3897(9) -0.3365(7) -0.5528(5)
C4 C 0.5486(8) -0.2054(7) -0.5071(5)
C5 C 0.2152(9) -0.5273(7) -0.5062(6)
H3 H 0.1933 -0.5758 -0.4509
C6 C 0.6100(9) -0.1190(7) -0.5738(5)
H4 H 0.5527 -0.1425 -0.6535
C7 C 0.7582(10) 0.0030(8) -0.5198(6)
H5 H 0.8024 0.0615 -0.5634
C8 C 0.2771(9) -0.3856(7) -0.6687(5)
H6 H 0.2997 -0.3358 -0.7231
C9 C 0.1006(9) -0.5805(7) -0.6197(6)
H7 H 0.0029 -0.6641 -0.6407
C10 C 0.1322(9) -0.5090(8) -0.7011(6)
H8 H 0.0560 -0.5436 -0.7780
Ni1A Ni 0.47209(10) -0.68574(7) 0.31202(6)
Ni1_2 Ni 0.52791(10) -1.31426(7) -0.31202(6)
Mo1A Mo 0.63724(7) 0.05081(5) 0.15674(4)
Mo1_2 Mo 0.36276(7) -0.05081(5) -0.15674(4)
Mo1A_2 Mo 0.63724(7) -0.94919(5) 0.15674(4)
Mo2A Mo 0.71178(6) -0.74780(5) -0.02863(4)
Mo3A Mo 0.62900(7) -0.44615(5) 0.14935(4)
O2A O 0.4672(5) -0.3245(4) 0.1335(3)
O3A O 0.6337(5) -0.3977(4) -0.0147(3)
O4A O 0.5523(5) -0.1285(4) -0.0134(3)
O4A_2 O 0.5523(5) -1.1285(4) -0.0134(3)
O6_2 O 0.3353(6) -0.1938(4) -0.2658(3)
O7A O 0.5946(5) -0.9294(4) -0.1456(3)
O8_2 O 0.2027(5) -1.1436(4) -0.0777(3)
O12A O 0.7311(6) -0.2318(4) -0.1688(3)
loop_
_geom_bond_atom_site_label_1
_geom_bond_atom_site_label_2
_geom_bond_site_symmetry_1
_geom_bond_site_symmetry_2
Ni1 O10 1_555 1_555
Mo1 O4 1_555 1_555
Mo2 O1 1_555 1_555
Te1 O3 1_555 1_555
Mo3 O1 1_555 1_555
O2 Mo3 1_555 1_555
O3 Mo3 1_555 1_555
O4 Te1 1_555 1_555
O5 Mo2 1_555 1_555
O6 Mo1 1_555 1_555
O7 Mo2 1_555 1_555
O8 Mo2 1_555 1_555
O9 Mo1 1_555 1_555
O10 Mo3 1_555 1_555
O11 Mo3 1_555 1_555
N1 Ni1 1_555 1_555
O12 Te1 1_555 1_555
N2 Ni1 1_555 1_555
C1 N1 1_555 1_555
H1 C1 1_555 1_555
C2 C1 1_555 1_555
H2 C2 1_555 1_555
C3 N2 1_555 1_555
C4 N1 1_555 1_555
C5 N2 1_555 1_555
H3 C5 1_555 1_555
C6 C4 1_555 1_555
H4 C6 1_555 1_555
C7 C2 1_555 1_555
H5 C7 1_555 1_555
C8 C3 1_555 1_555
H6 C8 1_555 1_555
C9 C5 1_555 1_555
H7 C9 1_555 1_555
C10 C8 1_555 1_555
H8 C10 1_555 1_555
Ni1A O12 1_555 1_555
Ni1_2 O6 1_555 1_555
Mo1A O7 1_555 1_555
Mo1_2 O8 1_555 1_555
Mo1A_2 O4 1_555 1_555
Mo2A O2 1_555 1_555
Mo3A O3 1_555 1_555
O2A Mo2 1_555 1_555
O3A Mo3 1_555 1_555
O4A Mo2 1_555 1_555
O4A_2 Mo1 1_555 1_555
O6_2 Ni1 1_555 1_555
O7A Mo1 1_555 1_555
O8_2 Mo1 1_555 1_555
O12A Ni1 1_555 1_555
O4 Mo2A 1_555 1_555
C3 C4 1_555 1_555
C6 C7 1_555 1_555
C9 C10 1_555 1_555
Mo1A O4A 1_555 1_555
Mo1_2 O4A 1_555 1_555
Mo1_2 O6_2 1_555 1_555
Mo1A_2 O4A_2 1_555 1_555
Mo2A O7A 1_555 1_555
Mo3A O2A 1_555 1_555
Mo3A O3A 1_555 1_555

#END
