
#######################################################################
#
#                 Cambridge Crystallographic Data Centre
#                                CCDC 
#
#######################################################################
#
# If this CIF has been generated from an entry in the Cambridge 
# Structural Database, then it will include bibliographic, chemical, 
# crystal, experimental, refinement or atomic coordinate data resulting 
# from the CCDC's data processing and validation procedures.
#
#######################################################################

data_CORZAL
_symmetry_cell_setting           triclinic
_symmetry_space_group_name_H-M   'P -1'
_symmetry_Int_Tables_number      2
_space_group_name_Hall           '-P 1'
loop_
_symmetry_equiv_pos_site_id
_symmetry_equiv_pos_as_xyz
1 x,y,z
2 -x,-y,-z
_cell_length_a                   7.7824(5)
_cell_length_b                   9.7506(6)
_cell_length_c                   12.4885(8)
_cell_angle_alpha                98.867(1)
_cell_angle_beta                 107.027(1)
_cell_angle_gamma                102.425(1)
_cell_volume                     860.644
loop_
_atom_site_label
_atom_site_type_symbol
_atom_site_fract_x
_atom_site_fract_y
_atom_site_fract_z
Mo1 Mo 0.62946(7) 0.55382(5) 1.14904(4)
Mo2 Mo 0.71098(6) 0.25257(5) 0.97105(4)
Te1 Te 0.75835(5) 0.79157(4) 0.98320(3)
Mo3 Mo 0.63753(7) 1.05109(5) 1.15635(4)
Cu1 Cu 0.47202(10) 0.31416(8) 1.31192(6)
O1 O 0.7974(6) 0.1448(4) 1.0774(3)
O2 O 0.7300(6) 0.4025(4) 1.0900(3)
O3 O 0.5523(5) 0.8716(4) 0.9867(3)
O4 O 0.4667(6) 0.6754(4) 1.1337(3)
N1 N 0.3681(7) 0.1741(6) 1.3916(4)
O5 O 0.6334(5) 0.6028(4) 0.9854(3)
O6 O 0.5735(6) 0.4767(4) 1.2554(4)
O7 O 0.6647(6) 1.1941(4) 1.2652(4)
O8 O 0.7871(6) 0.9603(5) 1.2186(4)
O9 O 0.5948(6) 0.0711(4) 0.8544(3)
O10 O 0.9071(6) 0.3113(5) 0.9388(4)
O11 O 0.7325(6) 0.7694(5) 0.8312(3)
N2 N 0.6419(7) 0.4082(6) 1.4730(4)
O12 O 0.8373(6) 0.6773(4) 1.2211(4)
C1 C 0.2260(9) 0.0538(7) 1.3405(6)
H1 H 0.1696 0.0317 1.2609
C2 C 0.4518(9) 0.2051(7) 1.5069(5)
C3 C 0.1606(10) -0.0384(8) 1.4028(6)
H2 H 0.0638 -0.1223 1.3658
C4 C 0.2422(10) -0.0027(8) 1.5201(6)
H3 H 0.1972 -0.0608 1.5639
C5 C 0.3904(10) 0.1187(8) 1.5737(6)
H4 H 0.4481 0.1421 1.6533
C6 C 0.6118(9) 0.3371(7) 1.5532(5)
C7 C 0.8989(10) 0.5820(8) 1.6177(7)
H5 H 0.9964 0.6659 1.6380
C8 C 0.7841(9) 0.5286(7) 1.5053(6)
H6 H 0.8055 0.5771 1.4499
C9 C 0.7230(10) 0.3862(8) 1.6674(6)
H7 H 0.7004 0.3363 1.7219
C10 C 0.8690(10) 0.5111(8) 1.6998(6)
H8 H 0.9457 0.5462 1.7763
Mo1A Mo 0.37054(7) 0.44618(5) 0.85096(4)
Mo2A Mo 0.28902(6) 0.74743(5) 1.02895(4)
Mo3_2 Mo 0.63753(7) 0.05109(5) 1.15635(4)
Mo3A Mo 0.36247(7) 0.94891(5) 0.84365(4)
Mo3A_2 Mo 0.36247(7) -0.05109(5) 0.84365(4)
Cu1_2 Cu 0.47202(10) 1.31416(8) 1.31192(6)
Cu1A Cu 0.52798(10) 0.68584(8) 0.68808(6)
O1_2 O 0.7974(6) 1.1448(4) 1.0774(3)
O3A O 0.4477(5) 0.1284(4) 1.0133(3)
O3A_2 O 0.4477(5) 1.1284(4) 1.0133(3)
O4A O 0.5333(6) 0.3246(4) 0.8663(3)
O5A O 0.3666(5) 0.3972(4) 1.0146(3)
O7_2 O 0.6647(6) 0.1941(4) 1.2652(4)
O9A O 0.4052(6) 0.9289(4) 1.1456(3)
O11A O 0.2675(6) 0.2306(5) 1.1688(3)
loop_
_geom_bond_atom_site_label_1
_geom_bond_atom_site_label_2
_geom_bond_site_symmetry_1
_geom_bond_site_symmetry_2
Mo1 O2 1_555 1_555
Mo2 O1 1_555 1_555
Te1 O3 1_555 1_555
Mo3 O3 1_555 1_555
Cu1 N1 1_555 1_555
O1 Mo3_2 1_555 1_555
O2 Mo2 1_555 1_555
O3 Mo2A 1_555 1_555
O4 Mo1 1_555 1_555
N1 C1 1_555 1_555
O5 Mo1 1_555 1_555
O6 Mo1 1_555 1_555
O7 Mo3 1_555 1_555
O8 Mo3 1_555 1_555
O9 Mo2 1_555 1_555
O10 Mo2 1_555 1_555
O11 Te1 1_555 1_555
N2 Cu1 1_555 1_555
O12 Mo1 1_555 1_555
C1 H1 1_555 1_555
C2 N1 1_555 1_555
C3 C1 1_555 1_555
H2 C3 1_555 1_555
C4 C3 1_555 1_555
H3 C4 1_555 1_555
C5 C2 1_555 1_555
H4 C5 1_555 1_555
C6 N2 1_555 1_555
C7 H5 1_555 1_555
C8 N2 1_555 1_555
H6 C8 1_555 1_555
C9 C6 1_555 1_555
H7 C9 1_555 1_555
C10 C7 1_555 1_555
H8 C10 1_555 1_555
Mo1A O5 1_555 1_555
Mo2A O4 1_555 1_555
Mo3_2 O3A 1_555 1_555
Mo3A O3 1_555 1_555
Mo3A_2 O9 1_555 1_555
Cu1_2 O7 1_555 1_555
Cu1A O11 1_555 1_555
O1_2 Mo3 1_555 1_555
O3A Mo2 1_555 1_555
O3A_2 Mo3 1_555 1_555
O4A Mo2 1_555 1_555
O5A Mo1 1_555 1_555
O7_2 Cu1 1_555 1_555
O9A Mo3 1_555 1_555
O11A Cu1 1_555 1_555
Te1 O5 1_555 1_555
Cu1 O6 1_555 1_555
C2 C6 1_555 1_555
C4 C5 1_555 1_555
C7 C8 1_555 1_555
C9 C10 1_555 1_555
Mo1A O4A 1_555 1_555
Mo1A O5A 1_555 1_555
Mo2A O9A 1_555 1_555
Mo3_2 O7_2 1_555 1_555
Mo3A O3A_2 1_555 1_555
Mo3A_2 O3A 1_555 1_555

#END
