
#######################################################################
#
#                 Cambridge Crystallographic Data Centre
#                                CCDC 
#
#######################################################################
#
# If this CIF has been generated from an entry in the Cambridge 
# Structural Database, then it will include bibliographic, chemical, 
# crystal, experimental, refinement or atomic coordinate data resulting 
# from the CCDC's data processing and validation procedures.
#
#######################################################################

data_COSBES
_symmetry_cell_setting           monoclinic
_symmetry_space_group_name_H-M   'P 21/c'
_symmetry_Int_Tables_number      14
_space_group_name_Hall           '-P 2ybc'
loop_
_symmetry_equiv_pos_site_id
_symmetry_equiv_pos_as_xyz
1 x,y,z
2 -x,1/2+y,1/2-z
3 -x,-y,-z
4 x,1/2-y,1/2+z
_cell_length_a                   15.1442(19)
_cell_length_b                   11.2753(14)
_cell_length_c                   15.372(2)
_cell_angle_alpha                90
_cell_angle_beta                 91.063(2)
_cell_angle_gamma                90
_cell_volume                     2624.4
loop_
_atom_site_label
_atom_site_type_symbol
_atom_site_fract_x
_atom_site_fract_y
_atom_site_fract_z
Ag1 Ag 0.82308(5) 0.60340(7) 0.21971(5)
Ag2 Ag 0.67265(5) 0.08539(7) -0.27305(5)
C1 C 0.8580(8) 0.5879(10) 0.0190(7)
H1 H 0.8427 0.6667 0.0090
C2 C 0.8851(7) 0.4232(9) 0.0833(6)
H2 H 0.8925 0.3656 0.1261
C3 C 0.8800(7) 0.5080(9) -0.0422(6)
H3 H 0.8832 0.5220 -0.1017
C4 C 0.9165(6) 0.2920(9) -0.0425(6)
H4 H 0.9482 0.2421 -0.0011
H5 H 0.9547 0.3058 -0.0915
C5 C 0.8101(7) 0.2193(9) -0.1568(6)
H6 H 0.8407 0.2480 -0.2043
N1 N 0.7344(6) 0.1617(7) -0.1610(5)
C6 C 0.7755(7) 0.1787(9) -0.0229(7)
H7 H 0.7767 0.1736 0.0375
C7 C 0.6849(7) 0.7267(8) 0.3393(6)
H8 H 0.6549 0.7634 0.2933
C8 C 0.7819(7) 0.6323(9) 0.4143(7)
H9 H 0.8328 0.5908 0.4300
C9 C 0.7193(7) 0.6663(8) 0.4698(6)
H10 H 0.7179 0.6517 0.5293
C10 C 0.5788(6) 0.7830(9) 0.4538(6)
H11 H 0.5498 0.7293 0.4934
H12 H 0.5382 0.7997 0.4058
C11 C 0.6158(7) 0.9972(10) 0.4609(7)
H13 H 0.6130 1.0136 0.4017
C12 C 0.6362(7) 1.0745(10) 0.5262(7)
H14 H 0.6483 1.1547 0.5189
C13 C 0.6128(6) 0.9037(8) 0.5850(6)
H15 H 0.6060 0.8429 0.6252
N2 N 0.8622(5) 0.5329(7) 0.0982(5)
N3 N 0.8964(5) 0.4046(7) -0.0016(5)
N4 N 0.8363(5) 0.2303(6) -0.0729(5)
C16 C 0.7133(7) 0.1365(8) -0.0765(7)
H16 H 0.6631 0.0960 -0.0593
N5 N 0.7602(6) 0.6671(7) 0.3317(5)
N6 N 0.6583(5) 0.7268(7) 0.4206(5)
N7 N 0.6008(5) 0.8933(7) 0.4992(5)
N8 N 0.6361(5) 1.0160(7) 0.6043(5)
Ag1C Ag 0.82308(5) -0.10340(7) -0.28029(5)
Ag2C Ag 0.67265(5) 0.41461(7) 0.22695(5)
Ag2_2 Ag 0.67265(5) 1.08539(7) 0.72695(5)
N8_2 N 0.6361(5) 0.0160(7) -0.3957(5)
S1 S 0.46085(18) 0.4510(3) 0.31783(18)
C14 C 0.3952(9) 0.5850(14) 0.3082(12)
F1 F 0.3252(7) 0.5663(11) 0.2631(10)
F2 F 0.3789(12) 0.6283(13) 0.3808(10)
F3 F 0.4387(9) 0.6663(8) 0.2641(11)
O1 O 0.4733(8) 0.4214(9) 0.2317(6)
O2 O 0.4051(11) 0.3708(10) 0.3595(9)
O3 O 0.5385(9) 0.4929(15) 0.3573(12)
S2 S 0.0403(2) 0.5668(3) 0.3137(2)
C15 C 0.0955(12) 0.4262(15) 0.3220(17)
F4 F 0.1687(11) 0.4317(16) 0.298(2)
F5 F 0.1014(15) 0.3975(18) 0.4048(13)
F6 F 0.0468(12) 0.3462(11) 0.2977(15)
O4 O 0.0323(9) 0.5850(10) 0.2256(7)
O5 O -0.0386(12) 0.552(3) 0.3464(17)
O6 O 0.0957(15) 0.6499(12) 0.3499(11)
loop_
_geom_bond_atom_site_label_1
_geom_bond_atom_site_label_2
_geom_bond_site_symmetry_1
_geom_bond_site_symmetry_2
Ag1 N2 1_555 1_555
Ag2 N1 1_555 1_555
S1 C14 1_555 1_555
S2 C15 1_555 1_555
C1 H1 1_555 1_555
C2 H2 1_555 1_555
C3 C1 1_555 1_555
H3 C3 1_555 1_555
C4 H4 1_555 1_555
H5 C4 1_555 1_555
C5 H6 1_555 1_555
N1 C5 1_555 1_555
C6 H7 1_555 1_555
C7 H8 1_555 1_555
C8 H9 1_555 1_555
C9 C8 1_555 1_555
H10 C9 1_555 1_555
C10 H11 1_555 1_555
H12 C10 1_555 1_555
C11 H13 1_555 1_555
C12 C11 1_555 1_555
H14 C12 1_555 1_555
C13 H15 1_555 1_555
C14 F1 1_555 1_555
C15 F4 1_555 1_555
F2 C14 1_555 1_555
F3 C14 1_555 1_555
F5 C15 1_555 1_555
F6 C15 1_555 1_555
N2 C1 1_555 1_555
N3 C2 1_555 1_555
N4 C4 1_555 1_555
C16 N1 1_555 1_555
H16 C16 1_555 1_555
N5 Ag1 1_555 1_555
N6 C7 1_555 1_555
N7 C10 1_555 1_555
N8 C12 1_555 1_555
O1 S1 1_555 1_555
O2 S1 1_555 1_555
O3 S1 1_555 1_555
O4 S2 1_555 1_555
O5 S2 1_555 1_555
O6 S2 1_555 1_555
Ag1C Ag2 1_555 1_555
Ag2C Ag1 1_555 1_555
Ag2_2 N8 1_555 1_555
N8_2 Ag2 1_555 1_555
C2 N2 1_555 1_555
C3 N3 1_555 1_555
C4 N3 1_555 1_555
C5 N4 1_555 1_555
C6 N4 1_555 1_555
C6 C16 1_555 1_555
C7 N5 1_555 1_555
C8 N5 1_555 1_555
C9 N6 1_555 1_555
C10 N6 1_555 1_555
C11 N7 1_555 1_555
C13 N7 1_555 1_555
C13 N8 1_555 1_555

#END
