
#######################################################################
#
#                 Cambridge Crystallographic Data Centre
#                                CCDC 
#
#######################################################################
#
# If this CIF has been generated from an entry in the Cambridge 
# Structural Database, then it will include bibliographic, chemical, 
# crystal, experimental, refinement or atomic coordinate data resulting 
# from the CCDC's data processing and validation procedures.
#
#######################################################################

data_COSBIW
_symmetry_cell_setting           orthorhombic
_symmetry_space_group_name_H-M   'P c c n'
_symmetry_Int_Tables_number      56
_space_group_name_Hall           '-P 2ab 2ac'
loop_
_symmetry_equiv_pos_site_id
_symmetry_equiv_pos_as_xyz
1 x,y,z
2 1/2-x,1/2-y,z
3 -x,1/2+y,1/2-z
4 1/2+x,-y,1/2-z
5 -x,-y,-z
6 1/2+x,1/2+y,-z
7 x,1/2-y,1/2+z
8 1/2-x,y,1/2+z
_cell_length_a                   9.9322(13)
_cell_length_b                   35.363(5)
_cell_length_c                   7.142(1)
_cell_angle_alpha                90
_cell_angle_beta                 90
_cell_angle_gamma                90
_cell_volume                     2508.5
loop_
_atom_site_label
_atom_site_type_symbol
_atom_site_fract_x
_atom_site_fract_y
_atom_site_fract_z
Zn1 Zn 0.48079(7) 0.38872(2) 0.02400(11)
C1 C 0.5168(7) 0.30648(19) 0.0976(11)
H1 H 0.4250 0.3079 0.1220
C2 C 0.5775(7) 0.27162(19) 0.1047(10)
H2 H 0.5267 0.2501 0.1300
C3 C 0.7163(6) 0.26860(17) 0.0739(9)
C4 C 0.7845(6) 0.30194(18) 0.0402(10)
H3 H 0.8773 0.3015 0.0235
C5 C 0.7160(6) 0.33609(18) 0.0311(10)
H4 H 0.7641 0.3581 0.0059
C6 C 0.2067(5) 0.41852(16) 0.0614(8)
C7 C 0.0977(6) 0.43906(17) 0.1252(8)
C8 C 0.2365(7) 0.48737(17) 0.2057(9)
H5 H 0.2492 0.5121 0.2468
C9 C 0.3487(6) 0.46623(18) 0.1576(9)
H6 H 0.4347 0.4760 0.1752
C10 C 0.1950(6) 0.38138(17) -0.0458(9)
C11 C -0.0461(6) 0.42315(17) 0.1398(9)
N1 N 0.5824(5) 0.33830(14) 0.0575(8)
N2 N 0.3321(5) 0.43118(14) 0.0849(7)
N3 N 0.1111(5) 0.47410(14) 0.1959(8)
O1 O 0.3045(4) 0.36351(12) -0.0671(7)
O2 O 0.0843(5) 0.37258(14) -0.1090(8)
O3 O -0.0687(4) 0.40197(13) 0.2754(7)
O4 O -0.1305(4) 0.43379(14) 0.0242(6)
O5 O 0.6184(4) 0.42309(12) 0.1511(6)
H7 H 0.6187 0.4271 0.2684
H9 H 0.7011 0.4228 0.1204
Zn1A Zn 1.01921(7) 0.11128(2) 0.02400(11)
Zn1G Zn 0.01921(7) 0.38872(2) 0.52400(11)
Zn1G_2 Zn 0.01921(7) 0.38872(2) -0.47600(11)
C1A C 0.9832(7) 0.19352(19) 0.0976(11)
H1A H 1.0750 0.1921 0.1220
C2A C 0.9225(7) 0.22838(19) 0.1047(10)
H2A H 0.9733 0.2499 0.1300
C3A C 0.7837(6) 0.23140(17) 0.0739(9)
C4A C 0.7155(6) 0.19806(18) 0.0402(10)
H3A H 0.6227 0.1985 0.0235
C5A C 0.7840(6) 0.16391(18) 0.0311(10)
H4A H 0.7359 0.1419 0.0059
C6G C 0.2933(5) 0.41852(16) -0.4386(8)
C7G C 0.4023(6) 0.43906(17) -0.3748(8)
C8G C 0.2635(7) 0.48737(17) -0.2943(9)
H5G H 0.2508 0.5121 -0.2532
C9G C 0.1513(6) 0.46623(18) -0.3424(9)
H6G H 0.0653 0.4760 -0.3248
C10G C 0.3050(6) 0.38138(17) -0.5458(9)
C11G C 0.5461(6) 0.42315(17) -0.3602(9)
N1A N 0.9176(5) 0.16170(14) 0.0575(8)
N2G N 0.1679(5) 0.43118(14) -0.4151(7)
N2A N 1.1679(5) 0.06882(14) 0.0849(7)
N3G N 0.3889(5) 0.47410(14) -0.3041(8)
O1G O 0.1955(4) 0.36351(12) -0.5671(7)
O1A O 1.1955(4) 0.13649(12) -0.0671(7)
O2G O 0.4157(5) 0.37258(14) -0.6090(8)
O3G O 0.5687(4) 0.40197(13) -0.2246(7)
O3F O 0.9313(4) 0.09803(13) -0.2246(7)
O4G O 0.6305(4) 0.43379(14) -0.4758(6)
O5A O 0.8816(4) 0.07691(12) 0.1511(6)
H7A H 0.8813 0.0729 0.2684
H9A H 0.7989 0.0772 0.1204
O6 O 0.3562(11) 0.2991(3) 0.666(2)
H8 H 0.3552 0.2899 0.5563
H12 H 0.4209 0.3146 0.6506
O7 O 0.2500 0.2500 0.891(3)
H11 H 0.3207 0.2510 0.8239
H11A H 0.1793 0.2490 0.8239
H10? H 0.2715 0.2696 0.8287
loop_
_geom_bond_atom_site_label_1
_geom_bond_atom_site_label_2
_geom_bond_site_symmetry_1
_geom_bond_site_symmetry_2
Zn1 N1 1_555 1_555
C1 H1 1_555 1_555
C2 C1 1_555 1_555
H2 C2 1_555 1_555
C3 C2 1_555 1_555
C4 C3 1_555 1_555
H3 C4 1_555 1_555
C5 C4 1_555 1_555
H4 C5 1_555 1_555
C6 C7 1_555 1_555
C7 C11 1_555 1_555
C8 H5 1_555 1_555
C9 C8 1_555 1_555
H6 C9 1_555 1_555
C10 C6 1_555 1_555
C11 O3 1_555 1_555
N1 C1 1_555 1_555
N2 Zn1 1_555 1_555
N3 C7 1_555 1_555
O1 Zn1 1_555 1_555
O2 C10 1_555 1_555
O3 Zn1G 1_555 1_555
O4 C11 1_555 1_555
O5 Zn1 1_555 1_555
O6 H8 1_555 1_555
O7 H11 1_555 1_555
H7 O5 1_555 1_555
H9 O5 1_555 1_555
H12 O6 1_555 1_555
Zn1A N1A 1_555 1_555
Zn1G_2 N2G 1_555 1_555
C1A H1A 1_555 1_555
C2A C1A 1_555 1_555
H2A C2A 1_555 1_555
C3A C3 1_555 1_555
C4A C3A 1_555 1_555
H3A C4A 1_555 1_555
C5A C4A 1_555 1_555
H4A C5A 1_555 1_555
C6G C7G 1_555 1_555
C7G C11G 1_555 1_555
C8G H5G 1_555 1_555
C9G C8G 1_555 1_555
H6G C9G 1_555 1_555
C10G C6G 1_555 1_555
C11G O3G 1_555 1_555
N1A C1A 1_555 1_555
N2G C6G 1_555 1_555
N2A Zn1A 1_555 1_555
N3G C7G 1_555 1_555
O1G Zn1G_2 1_555 1_555
O1A Zn1A 1_555 1_555
O2G C10G 1_555 1_555
O3G Zn1 1_555 1_555
O3F Zn1A 1_555 1_555
O4G C11G 1_555 1_555
O5A Zn1A 1_555 1_555
H7A O5A 1_555 1_555
H9A O5A 1_555 1_555
H11A O7 1_555 1_555
C5 N1 1_555 1_555
C6 N2 1_555 1_555
C8 N3 1_555 1_555
C9 N2 1_555 1_555
C10 O1 1_555 1_555
C2A C3A 1_555 1_555
C5A N1A 1_555 1_555
C8G N3G 1_555 1_555
C9G N2G 1_555 1_555
C10G O1G 1_555 1_555

#END
