
#######################################################################
#
#                 Cambridge Crystallographic Data Centre
#                                CCDC 
#
#######################################################################
#
# If this CIF has been generated from an entry in the Cambridge 
# Structural Database, then it will include bibliographic, chemical, 
# crystal, experimental, refinement or atomic coordinate data resulting 
# from the CCDC's data processing and validation procedures.
#
#######################################################################

data_COSBAO
_symmetry_cell_setting           monoclinic
_symmetry_space_group_name_H-M   'P 21/c'
_symmetry_Int_Tables_number      14
_space_group_name_Hall           '-P 2ybc'
loop_
_symmetry_equiv_pos_site_id
_symmetry_equiv_pos_as_xyz
1 x,y,z
2 -x,1/2+y,1/2-z
3 -x,-y,-z
4 x,1/2-y,1/2+z
_cell_length_a                   7.4178(6)
_cell_length_b                   18.6745(15)
_cell_length_c                   8.7223(7)
_cell_angle_alpha                90
_cell_angle_beta                 105.614(1)
_cell_angle_gamma                90
_cell_volume                     1163.66
loop_
_atom_site_label
_atom_site_type_symbol
_atom_site_fract_x
_atom_site_fract_y
_atom_site_fract_z
Ag1 Ag 0.54883(3) 0.433622(11) 0.58990(3)
N1 N 0.4689(3) 0.52794(12) 0.7208(3)
N2 N 0.5060(3) 0.59804(12) 0.9296(3)
N3 N 0.6304(3) 0.71363(11) 1.0369(3)
N4 N 0.5925(3) 0.82841(13) 0.9830(3)
N5 N 0.9523(3) 0.39844(16) 0.7441(3)
O1 O 0.8899(4) 0.43034(12) 0.6148(3)
O2 O 0.8345(3) 0.38005(14) 0.8130(3)
C1 C 0.7937(5) 0.57172(17) 0.8416(5)
H1 H 0.8262 0.5388 0.7688
H2 H 0.8650 0.5608 0.9482
H3 H 0.8209 0.6197 0.8154
C2 C 0.5933(4) 0.56538(13) 0.8300(4)
C3 C 0.2978(4) 0.53735(16) 0.7515(3)
H4 H 0.1857 0.5174 0.6925
C4 C 0.3172(4) 0.57999(16) 0.8807(4)
H5 H 0.2237 0.5942 0.9269
C5 C 0.5933(4) 0.64004(14) 1.0716(3)
H6 H 0.5120 0.6397 1.1420
H7 H 0.7103 0.6174 1.1273
C6 C 0.8002(4) 0.73977(15) 1.0236(4)
H8 H 0.9104 0.7140 1.0359
C7 C 0.7743(4) 0.80971(16) 0.9896(4)
H9 H 0.8650 0.8408 0.9729
C8 C 0.5095(4) 0.76960(15) 1.0124(4)
C9 C 0.3129(4) 0.76455(19) 1.0220(5)
H10 H 0.2688 0.8113 1.0398
H11 H 0.3072 0.7335 1.1083
H12 H 0.2356 0.7455 0.9240
Ag1B Ag 0.45117(3) 0.566378(11) 0.41010(3)
Ag1A Ag 0.45117(3) 0.933622(11) 0.91010(3)
N4A N 0.4075(3) 0.32841(13) 0.5170(3)
loop_
_geom_bond_atom_site_label_1
_geom_bond_atom_site_label_2
_geom_bond_site_symmetry_1
_geom_bond_site_symmetry_2
Ag1 N1 1_555 1_555
N1 C2 1_555 1_555
N2 C2 1_555 1_555
N3 C5 1_555 1_555
N4 C7 1_555 1_555
N5 O1 1_555 1_555
O1 Ag1 1_555 1_555
O2 N5 1_555 1_555
C1 H1 1_555 1_555
H2 C1 1_555 1_555
H3 C1 1_555 1_555
C2 C1 1_555 1_555
C3 N1 1_555 1_555
H4 C3 1_555 1_555
C4 N2 1_555 1_555
H5 C4 1_555 1_555
C5 N2 1_555 1_555
H6 C5 1_555 1_555
H7 C5 1_555 1_555
C6 N3 1_555 1_555
H8 C6 1_555 1_555
C7 C6 1_555 1_555
H9 C7 1_555 1_555
C8 N3 1_555 1_555
C9 C8 1_555 1_555
H10 C9 1_555 1_555
H11 C9 1_555 1_555
H12 C9 1_555 1_555
Ag1B Ag1 1_555 1_555
Ag1A N4 1_555 1_555
N4A Ag1 1_555 1_555
N4 C8 1_555 1_555
C3 C4 1_555 1_555

#END
