
#######################################################################
#
#                 Cambridge Crystallographic Data Centre
#                                CCDC 
#
#######################################################################
#
# If this CIF has been generated from an entry in the Cambridge 
# Structural Database, then it will include bibliographic, chemical, 
# crystal, experimental, refinement or atomic coordinate data resulting 
# from the CCDC's data processing and validation procedures.
#
#######################################################################

data_COSBOC
_symmetry_cell_setting           monoclinic
_symmetry_space_group_name_H-M   'C 2/c'
_symmetry_Int_Tables_number      15
_space_group_name_Hall           '-C 2yn'
loop_
_symmetry_equiv_pos_site_id
_symmetry_equiv_pos_as_xyz
1 x,y,z
2 -x,y,1/2-z
3 1/2+x,1/2+y,z
4 1/2-x,1/2+y,1/2-z
5 -x,-y,-z
6 x,-y,1/2+z
7 1/2-x,1/2-y,-z
8 1/2+x,1/2-y,1/2+z
_cell_length_a                   35.093(7)
_cell_length_b                   10.042(2)
_cell_length_c                   7.5775(16)
_cell_angle_alpha                90
_cell_angle_beta                 101.257(3)
_cell_angle_gamma                90
_cell_volume                     2618.97
loop_
_atom_site_label
_atom_site_type_symbol
_atom_site_fract_x
_atom_site_fract_y
_atom_site_fract_z
Co1 Co 0.143791(15) 0.22842(5) 1.06298(7)
C1 C 0.17358(11) -0.0345(4) 0.9800(5)
C2 C 0.19271(11) -0.1550(4) 1.0201(5)
C3 C 0.24360(12) -0.0443(4) 1.1931(6)
H1 H 0.2688 -0.0445 1.2606
C4 C 0.22432(11) 0.0749(4) 1.1619(6)
H2 H 0.2360 0.1528 1.2122
C5 C 0.13505(11) -0.0119(4) 0.8514(5)
C6 C 0.17829(11) -0.2941(4) 0.9549(6)
C7 C 0.08835(12) 0.4691(4) 1.0491(7)
H3 H 0.1111 0.5191 1.0652
C8 C 0.05346(13) 0.5356(5) 1.0335(7)
H4 H 0.0532 0.6280 1.0398
C9 C 0.01912(11) 0.4665(4) 1.0088(6)
C10 C 0.02206(13) 0.3298(5) 1.0025(8)
H5 H -0.0002 0.2775 0.9871
C11 C 0.05826(13) 0.2703(5) 1.0189(8)
H6 H 0.0593 0.1779 1.0133
N1 N 0.18867(9) 0.0790(3) 1.0592(4)
N2 N 0.22782(9) -0.1594(3) 1.1308(5)
N3 N 0.09117(9) 0.3369(3) 1.0421(5)
O1 O 0.11985(8) 0.1006(3) 0.8578(4)
O2 O 0.12126(8) -0.1011(3) 0.7444(4)
O3 O 0.17227(8) -0.3201(3) 0.7898(4)
O4 O 0.17635(9) -0.3772(3) 1.0743(4)
O5 O 0.17131(9) 0.3648(3) 0.9256(2)
H7 H 0.1718 0.3619 0.8141
H8 H 0.1722 0.4446 0.9632
Co1E Co 0.143791(15) -0.22842(5) 1.56298(7)
Co1E_2 Co 0.143791(15) -0.22842(5) 0.56298(7)
Co1D Co -0.143791(15) 0.77158(5) 0.93702(7)
C1E C 0.17358(11) 0.0345(4) 1.4800(5)
C2E C 0.19271(11) 0.1550(4) 1.5201(5)
C3E C 0.24360(12) 0.0443(4) 1.6931(6)
H1E H 0.2688 0.0445 1.7606
C4E C 0.22432(11) -0.0749(4) 1.6619(6)
H2E H 0.2360 -0.1528 1.7122
C5E C 0.13505(11) 0.0119(4) 1.3514(5)
C6E C 0.17829(11) 0.2941(4) 1.4549(6)
C7D C -0.08835(12) 0.5309(4) 0.9509(7)
H3D H -0.1111 0.4809 0.9348
C8D C -0.05346(13) 0.4644(5) 0.9665(7)
H4D H -0.0532 0.3720 0.9602
C9D C -0.01912(11) 0.5335(4) 0.9912(6)
C10D C -0.02206(13) 0.6702(5) 0.9975(8)
H5D H 0.0002 0.7225 1.0129
C11D C -0.05826(13) 0.7297(5) 0.9811(8)
H6D H -0.0593 0.8221 0.9867
N1E N 0.18867(9) -0.0790(3) 1.5592(4)
N2E N 0.22782(9) 0.1594(3) 1.6308(5)
N3D N -0.09117(9) 0.6631(3) 0.9579(5)
N3E N 0.09117(9) -0.3369(3) 1.5421(5)
O1E O 0.11985(8) -0.1006(3) 1.3578(4)
O2E O 0.12126(8) 0.1011(3) 1.2444(4)
O2_2 O 0.12126(8) -0.1011(3) 1.7444(4)
O3E O 0.17227(8) 0.3201(3) 1.2898(4)
O3_2 O 0.17227(8) -0.3201(3) 1.7898(4)
O4E O 0.17635(9) 0.3772(3) 1.5743(4)
O5E O 0.17131(9) -0.3648(3) 1.4256(2)
H7E H 0.1718 -0.3619 1.3141
H8E H 0.1722 -0.4446 1.4632
O6 O 0.94901(7) 0.1135(5) 0.9304(3)
H9 H 0.9557 0.0967 1.0421
H10 H 0.9263 0.1104 0.8655
O7 O 0.0000 1.0165(3) 0.2500
H11 H 0.0173 0.9808 0.2017
H11A H -0.0173 0.9808 0.2983
loop_
_geom_bond_atom_site_label_1
_geom_bond_atom_site_label_2
_geom_bond_site_symmetry_1
_geom_bond_site_symmetry_2
Co1 N1 1_555 1_555
C1 C2 1_555 1_555
C2 C6 1_555 1_555
C3 H1 1_555 1_555
C4 C3 1_555 1_555
H2 C4 1_555 1_555
C5 C1 1_555 1_555
C6 O3 1_555 1_555
C7 H3 1_555 1_555
C8 C7 1_555 1_555
H4 C8 1_555 1_555
C9 C8 1_555 1_555
C10 C9 1_555 1_555
H5 C10 1_555 1_555
C11 C10 1_555 1_555
H6 C11 1_555 1_555
N1 C1 1_555 1_555
N2 C2 1_555 1_555
N3 Co1 1_555 1_555
O1 Co1 1_555 1_555
O2 C5 1_555 1_555
O3 Co1E_2 1_555 1_555
O4 C6 1_555 1_555
O5 Co1 1_555 1_555
O6 H9 1_555 1_555
O7 H11 1_555 1_555
H7 O5 1_555 1_555
H8 O5 1_555 1_555
H10 O6 1_555 1_555
Co1E N1E 1_555 1_555
Co1E_2 O2 1_555 1_555
Co1D N3D 1_555 1_555
C1E C2E 1_555 1_555
C2E C6E 1_555 1_555
C3E H1E 1_555 1_555
C4E C3E 1_555 1_555
H2E C4E 1_555 1_555
C5E C1E 1_555 1_555
C6E O3E 1_555 1_555
C7D H3D 1_555 1_555
C8D C7D 1_555 1_555
H4D C8D 1_555 1_555
C9D C9 1_555 1_555
C10D C9D 1_555 1_555
H5D C10D 1_555 1_555
C11D C10D 1_555 1_555
H6D C11D 1_555 1_555
N1E C1E 1_555 1_555
N2E C2E 1_555 1_555
N3D C7D 1_555 1_555
N3E Co1E 1_555 1_555
O1E Co1E 1_555 1_555
O2E Co1 1_555 1_555
O2_2 Co1E 1_555 1_555
O3E Co1 1_555 1_555
O3_2 Co1E 1_555 1_555
O4E C6E 1_555 1_555
O5E Co1E 1_555 1_555
H7E O5E 1_555 1_555
H8E O5E 1_555 1_555
H11A O7 1_555 1_555
C3 N2 1_555 1_555
C4 N1 1_555 1_555
C5 O1 1_555 1_555
C7 N3 1_555 1_555
C11 N3 1_555 1_555
C3E N2E 1_555 1_555
C4E N1E 1_555 1_555
C5E O1E 1_555 1_555
C5E O2E 1_555 1_555
C8D C9D 1_555 1_555
C11D N3D 1_555 1_555

#END
