
#######################################################################
#
#                 Cambridge Crystallographic Data Centre
#                                CCDC 
#
#######################################################################
#
# If this CIF has been generated from an entry in the Cambridge 
# Structural Database, then it will include bibliographic, chemical, 
# crystal, experimental, refinement or atomic coordinate data resulting 
# from the CCDC's data processing and validation procedures.
#
#######################################################################

data_COSCPY
_symmetry_cell_setting           monoclinic
_symmetry_space_group_name_H-M   'C 2/m'
_symmetry_Int_Tables_number      12
_space_group_name_Hall           '-C 2y'
loop_
_symmetry_equiv_pos_site_id
_symmetry_equiv_pos_as_xyz
1 x,y,z
2 1/2+x,1/2+y,z
3 -x,y,-z
4 1/2-x,1/2+y,-z
5 -x,-y,-z
6 1/2-x,1/2-y,-z
7 x,-y,z
8 1/2+x,1/2-y,z
_cell_length_a                   9.090
_cell_length_b                   14.600
_cell_length_c                   5.660
_cell_angle_alpha                90
_cell_angle_beta                 112.0
_cell_angle_gamma                90
_cell_volume                     696.465
loop_
_atom_site_label
_atom_site_type_symbol
_atom_site_fract_x
_atom_site_fract_y
_atom_site_fract_z
Co1 Co 0.00000 0.00000 0.00000
C1 C -0.20200 0.00000 0.36000
C2 C -0.04600 0.19500 0.17500
C3 C -0.04600 0.29400 0.17500
C4 C 0.00000 0.34500 0.00000
N1 N -0.15900 0.00000 0.18700
N2 N 0.00000 0.14500 0.00000
S1 S 0.26400 0.00000 0.40100
N1D N 0.15900 0.00000 -0.18700
N2D N 0.00000 -0.14500 0.00000
S1B S -0.26400 0.00000 -0.40100
S1B_2 S -0.26400 0.00000 0.59900
C2B C 0.04600 0.19500 -0.17500
C3B C 0.04600 0.29400 -0.17500
C2D C 0.04600 -0.19500 -0.17500
C2F C -0.04600 -0.19500 0.17500
C1D C 0.20200 0.00000 0.64000
C3D C 0.04600 -0.29400 -0.17500
C3F C -0.04600 -0.29400 0.17500
C4D C 0.00000 -0.34500 0.00000
Co1_2 Co 0.00000 0.00000 1.00000
N1B N 0.15900 0.00000 0.81300
loop_
_geom_bond_atom_site_label_1
_geom_bond_atom_site_label_2
_geom_bond_site_symmetry_1
_geom_bond_site_symmetry_2
Co1 N1 1_555 1_555
C1 N1 1_555 1_555
C2 C3 1_555 1_555
C3 C4 1_555 1_555
C4 C3B 1_555 1_555
N2 Co1 1_555 1_555
S1 Co1 1_555 1_555
N1D Co1 1_555 1_555
N2D Co1 1_555 1_555
S1B Co1 1_555 1_555
S1B_2 C1 1_555 1_555
C2B N2 1_555 1_555
C3B C2B 1_555 1_555
C2D N2D 1_555 1_555
C2F N2D 1_555 1_555
C1D S1 1_555 1_555
C3D C2D 1_555 1_555
C3F C2F 1_555 1_555
C4D C3D 1_555 1_555
Co1_2 S1B_2 1_555 1_555
N1B C1D 1_555 1_555
C2 N2 1_555 1_555
C3F C4D 1_555 1_555
Co1_2 N1B 1_555 1_555

#END
