
#######################################################################
#
#                 Cambridge Crystallographic Data Centre
#                                CCDC 
#
#######################################################################
#
# If this CIF has been generated from an entry in the Cambridge 
# Structural Database, then it will include bibliographic, chemical, 
# crystal, experimental, refinement or atomic coordinate data resulting 
# from the CCDC's data processing and validation procedures.
#
#######################################################################

data_COSFOG
_symmetry_cell_setting           monoclinic
_symmetry_space_group_name_H-M   'C 2/c'
_symmetry_Int_Tables_number      15
_space_group_name_Hall           '-C 2yn'
loop_
_symmetry_equiv_pos_site_id
_symmetry_equiv_pos_as_xyz
1 x,y,z
2 -x,y,1/2-z
3 1/2+x,1/2+y,z
4 1/2-x,1/2+y,1/2-z
5 -x,-y,-z
6 x,-y,1/2+z
7 1/2-x,1/2-y,-z
8 1/2+x,1/2-y,1/2+z
_cell_length_a                   23.418(2)
_cell_length_b                   21.834(2)
_cell_length_c                   17.6496(17)
_cell_angle_alpha                90
_cell_angle_beta                 95.381(2)
_cell_angle_gamma                90
_cell_volume                     8984.62
loop_
_atom_site_label
_atom_site_type_symbol
_atom_site_fract_x
_atom_site_fract_y
_atom_site_fract_z
P1 P 0.00181(12) 0.22547(14) 0.36294(17)
W1 W 0.00300(2) 0.13474(3) 0.52847(3)
W2 W 0.07697(2) 0.26847(3) 0.53573(3)
W3 W -0.06675(2) 0.27017(3) 0.52428(3)
W4 W 0.07067(2) 0.36630(2) 0.14984(3)
W5 W 0.15117(2) 0.22038(2) 0.36916(3)
W6 W 0.07294(2) 0.36646(2) 0.36374(3)
W7 W -0.14707(2) 0.21987(2) 0.34415(3)
W8 W -0.07717(2) 0.08616(2) 0.34729(3)
W9 W 0.08020(2) 0.08693(2) 0.36581(3)
Ag1 Ag -0.31929(8) 0.23955(8) 0.29943(18)
Ag2 Ag -0.2500 0.2500 0.5000
O1 O 0.0635(4) 0.3782(4) 0.2565(5)
O2 O 0.1242(4) 0.2958(5) 0.6055(6)
O3 O -0.0519(3) 0.1924(4) 0.3317(5)
O4 O 0.0017(4) 0.0721(4) 0.3379(5)
O5 O 0.0617(4) 0.1899(5) 0.5755(5)
O6 O -0.0910(4) 0.0893(4) 0.2404(5)
O7 O -0.0518(4) 0.1907(5) 0.5658(6)
O8 O 0.0057(4) 0.2948(4) 0.5712(5)
O9 O 0.0708(4) 0.3350(4) 0.4644(5)
O10 O -0.2173(4) 0.2323(5) 0.3566(6)
O11 O 0.1271(4) 0.2332(4) 0.4698(6)
O12 O -0.1446(3) 0.1341(4) 0.3572(5)
O13 O -0.0656(4) 0.3360(4) 0.4536(5)
O14 O -0.1186(4) 0.2332(4) 0.4476(5)
O15 O 0.0020(4) 0.4075(4) 0.3709(6)
O16 O 0.1073(4) 0.0166(5) 0.3856(6)
O17 O 0.2231(4) 0.2339(4) 0.3940(6)
O18 O 0.1496(4) 0.1337(4) 0.3845(5)
O19 O -0.0525(4) 0.1072(4) 0.4518(5)
O20 O -0.1028(4) 0.0155(5) 0.3624(6)
O21 O 0.1178(4) 0.4250(5) 0.3862(6)
O22 O 0.1248(4) 0.3013(4) 0.3493(6)
O23 O 0.0562(3) 0.1929(4) 0.3428(5)
O24 O -0.1213(4) 0.3015(4) 0.3260(5)
O25 O 0.0031(4) 0.2249(4) 0.4529(5)
O26 O 0.0014(3) 0.2929(4) 0.3376(5)
O27 O 0.0034(4) 0.0803(5) 0.5965(6)
O28 O -0.1548(4) 0.2096(4) 0.2368(5)
O29 O 0.1160(4) 0.4245(5) 0.1380(6)
O30 O -0.1127(4) 0.2971(5) 0.5865(6)
O31 O 0.0589(3) 0.1080(4) 0.4644(5)
N2 N -0.2689(5) 0.6603(6) 0.5468(8)
N3 N -0.2003(6) -0.1616(6) 0.2272(9)
N5 N -0.3086(7) 0.1387(7) 0.2727(11)
N6 N -0.2583(7) 0.3466(6) 0.4779(9)
C1 C -0.3040(8) 0.0340(8) 0.3120(10)
H1 H -0.3162 0.0035 0.3435
C2 C -0.2659(6) 0.0199(7) 0.2584(9)
C4 C -0.2122(8) 0.3810(8) 0.4739(12)
H3 H -0.1777 0.3619 0.4664
C5 C -0.2243(6) 0.5792(7) 0.4890(10)
H4 H -0.1945 0.5647 0.4627
C6 C -0.2129(8) 0.4441(10) 0.4804(13)
H5 H -0.1798 0.4671 0.4776
C7 C -0.2656(6) 0.4725(7) 0.4913(9)
C8 C -0.2674(6) 0.5404(6) 0.5076(8)
C9 C -0.2263(7) 0.6399(7) 0.5100(10)
H6 H -0.1974 0.6665 0.4983
C10 C -0.2518(7) -0.1521(8) 0.2542(10)
H7 H -0.2729 -0.1863 0.2664
C11 C -0.3096(8) 0.3737(7) 0.4861(9)
H8 H -0.3424 0.3497 0.4870
C12 C -0.2501(7) 0.0679(9) 0.2141(10)
H9 H -0.2241 0.0606 0.1784
C13 C -0.2715(7) 0.1264(8) 0.2207(12)
H10 H -0.2604 0.1574 0.1891
C14 C -0.3116(6) 0.6243(7) 0.5644(10)
H11 H -0.3417 0.6403 0.5891
C15 C -0.3237(9) 0.0934(10) 0.3182(11)
H12 H -0.3483 0.1023 0.3552
C16 C -0.2425(6) -0.0445(7) 0.2488(9)
C18 C -0.2746(7) -0.0961(8) 0.2646(11)
H14 H -0.3108 -0.0920 0.2818
C19 C -0.1700(7) -0.1131(9) 0.2108(13)
H15 H -0.1348 -0.1185 0.1911
C20 C -0.3106(6) 0.5633(7) 0.5455(8)
H16 H -0.3397 0.5375 0.5588
C23 C -0.3135(6) 0.4360(7) 0.4931(10)
H18 H -0.3489 0.4539 0.4990
C26 C -0.1903(7) -0.0529(8) 0.2227(11)
H20 H -0.1679 -0.0192 0.2128
P1A P -0.00181(12) 0.22547(14) 0.13706(17)
W1A W -0.00300(2) 0.13474(3) -0.02847(3)
W2A W -0.07697(2) 0.26847(3) -0.03573(3)
W3A W 0.06675(2) 0.27017(3) -0.02428(3)
W4A W -0.07067(2) 0.36630(2) 0.35016(3)
W5A W -0.15117(2) 0.22038(2) 0.13084(3)
W6A W -0.07294(2) 0.36646(2) 0.13626(3)
W7A W 0.14707(2) 0.21987(2) 0.15585(3)
W8A W 0.07717(2) 0.08616(2) 0.15271(3)
W9A W -0.08020(2) 0.08693(2) 0.13419(3)
Ag1A Ag 0.31929(8) 0.23955(8) 0.20057(18)
Ag1F Ag -0.18071(8) 0.26045(8) 0.70057(18)
Ag1C Ag -0.18071(8) -0.26045(8) 0.20057(18)
Ag1G Ag 0.18071(8) 0.26045(8) -0.20057(18)
Ag1C_2 Ag -0.18071(8) 0.73955(8) 0.20057(18)
Ag2A Ag 0.2500 0.2500 0.0000
O1A O -0.0635(4) 0.3782(4) 0.2435(5)
O2A O -0.1242(4) 0.2958(5) -0.1055(6)
O3A O 0.0519(3) 0.1924(4) 0.1683(5)
O4A O -0.0017(4) 0.0721(4) 0.1621(5)
O5A O -0.0617(4) 0.1899(5) -0.0755(5)
O6A O 0.0910(4) 0.0893(4) 0.2596(5)
O7A O 0.0518(4) 0.1907(5) -0.0658(6)
O8A O -0.0057(4) 0.2948(4) -0.0712(5)
O9A O -0.0708(4) 0.3350(4) 0.0356(5)
O10A O 0.2173(4) 0.2323(5) 0.1434(6)
O10F O -0.2827(4) 0.2677(5) 0.6434(6)
O11A O -0.1271(4) 0.2332(4) 0.0302(6)
O12A O 0.1446(3) 0.1341(4) 0.1428(5)
O13A O 0.0656(4) 0.3360(4) 0.0464(5)
O14A O 0.1186(4) 0.2332(4) 0.0524(5)
O15A O -0.0020(4) 0.4075(4) 0.1291(6)
O16A O -0.1073(4) 0.0166(5) 0.1144(6)
O17A O -0.2231(4) 0.2339(4) 0.1060(6)
O18A O -0.1496(4) 0.1337(4) 0.1155(5)
O19A O 0.0525(4) 0.1072(4) 0.0482(5)
O20A O 0.1028(4) 0.0155(5) 0.1376(6)
O21A O -0.1178(4) 0.4250(5) 0.1138(6)
O22A O -0.1248(4) 0.3013(4) 0.1507(6)
O23A O -0.0562(3) 0.1929(4) 0.1572(5)
O24A O 0.1213(4) 0.3015(4) 0.1740(5)
O25A O -0.0031(4) 0.2249(4) 0.0471(5)
O26A O -0.0014(3) 0.2929(4) 0.1624(5)
O27A O -0.0034(4) 0.0803(5) -0.0965(6)
O28A O 0.1548(4) 0.2096(4) 0.2632(5)
O29A O -0.1160(4) 0.4245(5) 0.3620(6)
O30A O 0.1127(4) 0.2971(5) -0.0865(6)
O30F O -0.3873(4) 0.2029(5) 0.4135(6)
O30G O 0.3873(4) 0.2029(5) 0.0865(6)
O31A O -0.0589(3) 0.1080(4) 0.0356(5)
N2F N -0.2311(5) -0.1603(6) 0.4532(8)
N3C N -0.2997(6) 0.3384(6) 0.2728(9)
N3B N 0.2997(6) 0.3384(6) 0.2272(9)
N5C N -0.1914(7) 0.6387(7) 0.2273(11)
N5A N 0.3086(7) 0.1387(7) 0.2273(11)
N6F N -0.2417(7) 0.1534(6) 0.5221(9)
C1C C -0.1960(8) 0.5340(8) 0.1880(10)
H1C H -0.1838 0.5035 0.1565
C2C C -0.2341(6) 0.5199(7) 0.2416(9)
C4F C -0.2878(8) 0.1190(8) 0.5261(12)
H3F H -0.3223 0.1381 0.5336
C5F C -0.2757(6) -0.0792(7) 0.5110(10)
H4F H -0.3055 -0.0647 0.5373
C6F C -0.2871(8) 0.0559(10) 0.5196(13)
H5F H -0.3202 0.0329 0.5224
C7F C -0.2344(6) 0.0275(7) 0.5087(9)
C8F C -0.2326(6) -0.0404(6) 0.4924(8)
C9F C -0.2737(7) -0.1399(7) 0.4900(10)
H6F H -0.3026 -0.1665 0.5017
C10C C -0.2482(7) 0.3479(8) 0.2458(10)
H7C H -0.2271 0.3137 0.2336
C11F C -0.1904(8) 0.1263(7) 0.5139(9)
H8F H -0.1576 0.1503 0.5130
C12C C -0.2499(7) 0.5679(9) 0.2859(10)
H9C H -0.2759 0.5606 0.3216
C13C C -0.2285(7) 0.6264(8) 0.2793(12)
H10C H -0.2396 0.6574 0.3109
C14F C -0.1884(6) -0.1243(7) 0.4356(10)
H11F H -0.1583 -0.1403 0.4109
C15C C -0.1763(9) 0.5934(10) 0.1818(11)
H12C H -0.1517 0.6023 0.1448
C16C C -0.2575(6) 0.4555(7) 0.2512(9)
C18C C -0.2254(7) 0.4039(8) 0.2354(11)
H14C H -0.1892 0.4080 0.2182
C19C C -0.3300(7) 0.3869(9) 0.2892(13)
H15C H -0.3652 0.3815 0.3089
C20F C -0.1894(6) -0.0633(7) 0.4545(8)
H16F H -0.1603 -0.0375 0.4412
C23F C -0.1865(6) 0.0640(7) 0.5069(10)
H18F H -0.1511 0.0461 0.5010
C26C C -0.3097(7) 0.4471(8) 0.2773(11)
H20C H -0.3321 0.4808 0.2872
N1 N 0.0000 0.4962(12) 0.7500
N4 N 0.0000 0.1721(12) 0.7500
C3 C 0.0372(17) 0.4649(14) 0.709(2)
H2 H 0.0616 0.4874 0.6807
C17 C 0.0478(12) 0.2082(13) 0.7392(14)
H13 H 0.0816 0.1877 0.7316
C21 C 0.0496(9) 0.2680(10) 0.7388(12)
H17 H 0.0835 0.2885 0.7312
C22 C 0.0000 0.3695(12) 0.7500
C24 C 0.0000 0.3005(12) 0.7500
C25 C 0.0407(11) 0.3973(11) 0.7062(14)
H19 H 0.0664 0.3757 0.6792
C3A C -0.0372(17) 0.4649(14) 0.791(2)
H2A H -0.0616 0.4874 0.8193
C17A C -0.0478(12) 0.2082(13) 0.7608(14)
H13A H -0.0816 0.1877 0.7684
C21A C -0.0496(9) 0.2680(10) 0.7612(12)
H17A H -0.0835 0.2885 0.7688
C25A C -0.0407(11) 0.3973(11) 0.7938(14)
H19A H -0.0664 0.3757 0.8208
loop_
_geom_bond_atom_site_label_1
_geom_bond_atom_site_label_2
_geom_bond_site_symmetry_1
_geom_bond_site_symmetry_2
P1 O3 1_555 1_555
W1 O5 1_555 1_555
W2 O2 1_555 1_555
W3 O7 1_555 1_555
W4 O1 1_555 1_555
W5 O11 1_555 1_555
W6 O1 1_555 1_555
W7 O3 1_555 1_555
W8 O3 1_555 1_555
W9 O4 1_555 1_555
Ag1 O10 1_555 1_555
Ag2 O10 1_555 1_555
O4 W8 1_555 1_555
O5 W2 1_555 1_555
O6 W8 1_555 1_555
O7 W1 1_555 1_555
O8 W2 1_555 1_555
O9 W2 1_555 1_555
O10 W7 1_555 1_555
O11 W2 1_555 1_555
O12 W7 1_555 1_555
O13 W3 1_555 1_555
O14 W3 1_555 1_555
O15 W6 1_555 1_555
O16 W9 1_555 1_555
O17 W5 1_555 1_555
O18 W5 1_555 1_555
O19 W1 1_555 1_555
O20 W8 1_555 1_555
O21 W6 1_555 1_555
O22 W5 1_555 1_555
O23 P1 1_555 1_555
O24 W7 1_555 1_555
O25 P1 1_555 1_555
O26 P1 1_555 1_555
O27 W1 1_555 1_555
O28 W7 1_555 1_555
O29 W4 1_555 1_555
O30 W3 1_555 1_555
O31 W1 1_555 1_555
N1 C3 1_555 1_555
N2 C9 1_555 1_555
N3 C10 1_555 1_555
N4 C17 1_555 1_555
N5 Ag1 1_555 1_555
N6 Ag2 1_555 1_555
C1 H1 1_555 1_555
C2 C1 1_555 1_555
C3 H2 1_555 1_555
C4 N6 1_555 1_555
H3 C4 1_555 1_555
C5 H4 1_555 1_555
C6 C4 1_555 1_555
H5 C6 1_555 1_555
C7 C6 1_555 1_555
C8 C5 1_555 1_555
C9 C5 1_555 1_555
H6 C9 1_555 1_555
C10 H7 1_555 1_555
C11 N6 1_555 1_555
H8 C11 1_555 1_555
C12 C2 1_555 1_555
H9 C12 1_555 1_555
C13 N5 1_555 1_555
H10 C13 1_555 1_555
C14 N2 1_555 1_555
H11 C14 1_555 1_555
C15 N5 1_555 1_555
H12 C15 1_555 1_555
C16 C2 1_555 1_555
C17 H13 1_555 1_555
C18 C10 1_555 1_555
H14 C18 1_555 1_555
C19 N3 1_555 1_555
H15 C19 1_555 1_555
C20 C8 1_555 1_555
H16 C20 1_555 1_555
C21 C17 1_555 1_555
H17 C21 1_555 1_555
C22 C24 1_555 1_555
C23 C7 1_555 1_555
H18 C23 1_555 1_555
C24 C21 1_555 1_555
C25 C3 1_555 1_555
H19 C25 1_555 1_555
C26 C16 1_555 1_555
H20 C26 1_555 1_555
P1A O3A 1_555 1_555
W1A O5A 1_555 1_555
W2A O2A 1_555 1_555
W3A O7A 1_555 1_555
W4A O13 1_555 1_555
W5A O28 1_555 1_555
W6A O1A 1_555 1_555
W7A O3A 1_555 1_555
W8A O3A 1_555 1_555
W9A O6 1_555 1_555
Ag1A O10A 1_555 1_555
Ag1F O30 1_555 1_555
Ag1C N3 1_555 1_555
Ag1G O30A 1_555 1_555
Ag1C_2 N5C 1_555 1_555
Ag2A O10A 1_555 1_555
O1A W4A 1_555 1_555
O4A W8A 1_555 1_555
O5A W2A 1_555 1_555
O6A W9 1_555 1_555
O7A W1A 1_555 1_555
O8A W2A 1_555 1_555
O9A W2A 1_555 1_555
O10A W7A 1_555 1_555
O10F Ag2 1_555 1_555
O11A W2A 1_555 1_555
O12A W7A 1_555 1_555
O13A W4 1_555 1_555
O14A W3A 1_555 1_555
O15A W4 1_555 1_555
O16A W9A 1_555 1_555
O17A W5A 1_555 1_555
O18A W5A 1_555 1_555
O19A W1A 1_555 1_555
O20A W8A 1_555 1_555
O21A W6A 1_555 1_555
O22A W5A 1_555 1_555
O23A P1A 1_555 1_555
O24A W4 1_555 1_555
O25A P1A 1_555 1_555
O26A W4 1_555 1_555
O27A W1A 1_555 1_555
O28A W5 1_555 1_555
O29A W4A 1_555 1_555
O30A W3A 1_555 1_555
O30F Ag1 1_555 1_555
O30G Ag1A 1_555 1_555
O31A W1A 1_555 1_555
N2F C9F 1_555 1_555
N3C Ag1 1_555 1_555
N3B Ag1A 1_555 1_555
N5C C13C 1_555 1_555
N5A Ag1A 1_555 1_555
N6F Ag2 1_555 1_555
C1C H1C 1_555 1_555
C2C C1C 1_555 1_555
C3A N1 1_555 1_555
H2A C3A 1_555 1_555
C4F N6F 1_555 1_555
H3F C4F 1_555 1_555
C5F H4F 1_555 1_555
C6F C4F 1_555 1_555
H5F C6F 1_555 1_555
C7F C6F 1_555 1_555
C8F C5F 1_555 1_555
C9F C5F 1_555 1_555
H6F C9F 1_555 1_555
C10C N3C 1_555 1_555
H7C C10C 1_555 1_555
C11F N6F 1_555 1_555
H8F C11F 1_555 1_555
C12C C2C 1_555 1_555
H9C C12C 1_555 1_555
C13C C12C 1_555 1_555
H10C C13C 1_555 1_555
C14F N2F 1_555 1_555
H11F C14F 1_555 1_555
C15C N5C 1_555 1_555
H12C C15C 1_555 1_555
C16C C2C 1_555 1_555
C17A N4 1_555 1_555
H13A C17A 1_555 1_555
C18C C10C 1_555 1_555
H14C C18C 1_555 1_555
C19C N3C 1_555 1_555
H15C C19C 1_555 1_555
C20F C8F 1_555 1_555
H16F C20F 1_555 1_555
C21A C24 1_555 1_555
H17A C21A 1_555 1_555
C23F C7F 1_555 1_555
H18F C23F 1_555 1_555
C25A C22 1_555 1_555
H19A C25A 1_555 1_555
C26C C16C 1_555 1_555
H20C C26C 1_555 1_555
W1 O25 1_555 1_555
W2 O25 1_555 1_555
W3 O8 1_555 1_555
W3 O25 1_555 1_555
W5 O23 1_555 1_555
W6 O9 1_555 1_555
W6 O22 1_555 1_555
W6 O26 1_555 1_555
W7 O14 1_555 1_555
W8 O12 1_555 1_555
W8 O19 1_555 1_555
W9 O18 1_555 1_555
W9 O23 1_555 1_555
W9 O31 1_555 1_555
O15 W4A 1_555 1_555
O24 W4A 1_555 1_555
O26 W4A 1_555 1_555
C1 C15 1_555 1_555
C7 C8 1_555 1_555
C11 C23 1_555 1_555
C12 C13 1_555 1_555
C14 C20 1_555 1_555
C16 C18 1_555 1_555
C19 C26 1_555 1_555
C22 C25 1_555 1_555
P1A O26A 1_555 1_555
W1A O25A 1_555 1_555
W2A O25A 1_555 1_555
W3A O8A 1_555 1_555
W3A O13A 1_555 1_555
W3A O25A 1_555 1_555
W5A O11A 1_555 1_555
W5A O23A 1_555 1_555
W6A O9A 1_555 1_555
W6A O15A 1_555 1_555
W6A O22A 1_555 1_555
W6A O26A 1_555 1_555
W7A O14A 1_555 1_555
W7A O24A 1_555 1_555
W7A O28A 1_555 1_555
W8A O6A 1_555 1_555
W8A O12A 1_555 1_555
W8A O19A 1_555 1_555
W9A O4A 1_555 1_555
W9A O18A 1_555 1_555
W9A O23A 1_555 1_555
W9A O31A 1_555 1_555
Ag1F O10F 1_555 1_555
C1C C15C 1_555 1_555
C3A C25A 1_555 1_555
C7F C8F 1_555 1_555
C11F C23F 1_555 1_555
C14F C20F 1_555 1_555
C16C C18C 1_555 1_555
C17A C21A 1_555 1_555
C19C C26C 1_555 1_555

#END
