
#######################################################################
#
#                 Cambridge Crystallographic Data Centre
#                                CCDC 
#
#######################################################################
#
# If this CIF has been generated from an entry in the Cambridge 
# Structural Database, then it will include bibliographic, chemical, 
# crystal, experimental, refinement or atomic coordinate data resulting 
# from the CCDC's data processing and validation procedures.
#
#######################################################################

data_COSGIC
_symmetry_cell_setting           monoclinic
_symmetry_space_group_name_H-M   'C 2/c'
_symmetry_Int_Tables_number      15
_space_group_name_Hall           '-C 2yn'
loop_
_symmetry_equiv_pos_site_id
_symmetry_equiv_pos_as_xyz
1 x,y,z
2 -x,y,1/2-z
3 1/2+x,1/2+y,z
4 1/2-x,1/2+y,1/2-z
5 -x,-y,-z
6 x,-y,1/2+z
7 1/2-x,1/2-y,-z
8 1/2+x,1/2-y,1/2+z
_cell_length_a                   39.586(3)
_cell_length_b                   9.0348(5)
_cell_length_c                   18.2097(11)
_cell_angle_alpha                90
_cell_angle_beta                 116.851(4)
_cell_angle_gamma                90
_cell_volume                     5810.55
loop_
_atom_site_label
_atom_site_type_symbol
_atom_site_fract_x
_atom_site_fract_y
_atom_site_fract_z
Dy1 Dy 0.414390(7) 1.03731(3) 0.383752(14)
O1 O 0.35147(12) 1.0778(5) 0.3003(2)
O2 O 0.29078(19) 1.3426(13) 0.0057(4)
O3 O 0.45315(12) 0.9956(5) 0.5269(2)
O4 O 0.40740(14) 1.0771(6) 0.7596(3)
O5 O 0.41400(13) 1.2721(4) 0.4317(3)
O6 O 0.45719(12) 1.8252(4) 0.4115(3)
O7 O 0.47495(11) 1.1299(4) 0.4016(2)
N1 N 0.30057(15) 1.1304(7) 0.1804(3)
N2 N 0.28752(18) 1.2036(10) 0.1056(4)
H1 H 0.2637 1.1947 0.0738
N3 N 0.39880(15) 1.2308(6) 0.2587(3)
N4 N 0.46727(15) 1.0169(7) 0.6612(3)
N5 N 0.45297(16) 1.0377(7) 0.7176(3)
H2 H 0.4693 1.0333 0.7686
N6 N 0.37885(14) 1.0447(6) 0.4764(3)
N7 N 0.45850(16) 1.4315(5) 0.4361(4)
N8 N 0.46689(16) 1.5780(5) 0.4261(4)
H3 H 0.4893 1.5934 0.4310
N9 N 0.38191(14) 1.7806(5) 0.3706(3)
C1 C 0.4213(2) 1.3053(10) 0.2361(4)
H4 H 0.4470 1.3056 0.2724
C2 C 0.4098(3) 1.3839(15) 0.1623(6)
C3 C 0.3709(3) 1.3736(15) 0.1072(6)
H5 H 0.3616 1.4167 0.0553
C4 C 0.3468(2) 1.2997(11) 0.1301(5)
C5 C 0.36159(18) 1.2294(8) 0.2060(4)
C6 C 0.33664(17) 1.1426(7) 0.2296(4)
C7 C 0.3063(2) 1.2853(14) 0.0754(5)
C8 C 0.4318(5) 1.5117(16) 0.1528(13)
H6 H 0.4470 1.5639 0.2037
H7 H 0.4166 1.5800 0.1092
C9 C 0.4537(5) 1.4012(17) 0.1285(8)
H8 H 0.4722 1.4524 0.1176
H9 H 0.4366 1.3490 0.0800
H10 H 0.4662 1.3320 0.1726
C10 C 0.34284(18) 1.0723(8) 0.4538(4)
H11 H 0.3266 1.0739 0.3977
C11 C 0.32694(15) 1.0997(10) 0.5081(4)
C12 C 0.35178(19) 1.0985(9) 0.5913(4)
H12 H 0.3430 1.1164 0.6300
C13 C 0.38978(18) 1.0705(7) 0.6164(4)
C14 C 0.40288(17) 1.0456(7) 0.5580(3)
C15 C 0.44250(17) 1.0185(7) 0.5827(3)
C16 C 0.41714(19) 1.0638(7) 0.7031(4)
C17 C 0.28502(17) 1.1201(15) 0.4760(5)
H13 H 0.2794 1.1339 0.5222
H14 H 0.2723 1.0306 0.4475
C18 C 0.2692(5) 1.2501(19) 0.4180(12)
H15 H 0.2425 1.2570 0.3999
H16 H 0.2740 1.2361 0.3712
H17 H 0.2813 1.3396 0.4460
C19 C 0.34560(18) 1.7511(7) 0.3492(4)
H18 H 0.3287 1.8300 0.3335
C20 C 0.33124(14) 1.6092(8) 0.3488(4)
C21 C 0.35640(19) 1.4942(7) 0.3719(4)
H19 H 0.3481 1.3984 0.3731
C22 C 0.39466(18) 1.5200(6) 0.3939(4)
C23 C 0.40549(17) 1.6655(6) 0.3905(3)
C24 C 0.44477(17) 1.6977(6) 0.4100(3)
C25 C 0.42356(18) 1.4036(7) 0.4216(4)
C26 C 0.28962(15) 1.5897(8) 0.3214(5)
H20 H 0.2771 1.6835 0.3000
H21 H 0.2859 1.5656 0.3692
C27 C 0.2704(4) 1.4719(16) 0.2567(10)
H22 H 0.2441 1.4672 0.2434
H23 H 0.2821 1.3777 0.2775
H24 H 0.2730 1.4960 0.2081
Dy1_2 Dy 0.414390(7) 2.03731(3) 0.383752(14)
Dy1E Dy 0.414390(7) 0.96269(3) 0.883752(14)
O4E O 0.40740(14) 0.9229(6) 0.2596(3)
O6_2 O 0.45719(12) 0.8252(4) 0.4115(3)
N9_2 N 0.38191(14) 0.7806(5) 0.3706(3)
loop_
_geom_bond_atom_site_label_1
_geom_bond_atom_site_label_2
_geom_bond_site_symmetry_1
_geom_bond_site_symmetry_2
Dy1 O1 1_555 1_555
O1 C6 1_555 1_555
O2 C7 1_555 1_555
O3 Dy1 1_555 1_555
O4 C16 1_555 1_555
O5 Dy1 1_555 1_555
O6 C24 1_555 1_555
O7 Dy1 1_555 1_555
N1 N2 1_555 1_555
N2 H1 1_555 1_555
N3 Dy1 1_555 1_555
N4 N5 1_555 1_555
N5 H2 1_555 1_555
N6 Dy1 1_555 1_555
N7 N8 1_555 1_555
N8 H3 1_555 1_555
N9 C19 1_555 1_555
C1 N3 1_555 1_555
H4 C1 1_555 1_555
C2 C1 1_555 1_555
C3 C2 1_555 1_555
H5 C3 1_555 1_555
C4 C3 1_555 1_555
C5 N3 1_555 1_555
C6 N1 1_555 1_555
C7 N2 1_555 1_555
C8 C2 1_555 1_555
H6 C8 1_555 1_555
H7 C8 1_555 1_555
C9 C8 1_555 1_555
H8 C9 1_555 1_555
H9 C9 1_555 1_555
H10 C9 1_555 1_555
C10 N6 1_555 1_555
H11 C10 1_555 1_555
C11 C10 1_555 1_555
C12 C11 1_555 1_555
H12 C12 1_555 1_555
C13 C12 1_555 1_555
C14 N6 1_555 1_555
C15 O3 1_555 1_555
C16 N5 1_555 1_555
C17 C11 1_555 1_555
H13 C17 1_555 1_555
H14 C17 1_555 1_555
C18 C17 1_555 1_555
H15 C18 1_555 1_555
H16 C18 1_555 1_555
H17 C18 1_555 1_555
C19 H18 1_555 1_555
C20 C19 1_555 1_555
C21 C20 1_555 1_555
H19 C21 1_555 1_555
C22 C21 1_555 1_555
C23 N9 1_555 1_555
C24 N8 1_555 1_555
C25 O5 1_555 1_555
C26 C20 1_555 1_555
H20 C26 1_555 1_555
H21 C26 1_555 1_555
C27 C26 1_555 1_555
H22 C27 1_555 1_555
H23 C27 1_555 1_555
H24 C27 1_555 1_555
Dy1_2 O6 1_555 1_555
Dy1E O4 1_555 1_555
O4E Dy1 1_555 1_555
O6_2 Dy1 1_555 1_555
N9_2 Dy1 1_555 1_555
N4 C15 1_555 1_555
N7 C25 1_555 1_555
N9 Dy1_2 1_555 1_555
C4 C5 1_555 1_555
C4 C7 1_555 1_555
C5 C6 1_555 1_555
C13 C14 1_555 1_555
C13 C16 1_555 1_555
C14 C15 1_555 1_555
C22 C23 1_555 1_555
C22 C25 1_555 1_555
C23 C24 1_555 1_555

#END
