
#######################################################################
#
#                 Cambridge Crystallographic Data Centre
#                                CCDC 
#
#######################################################################
#
# If this CIF has been generated from an entry in the Cambridge 
# Structural Database, then it will include bibliographic, chemical, 
# crystal, experimental, refinement or atomic coordinate data resulting 
# from the CCDC's data processing and validation procedures.
#
#######################################################################

data_COSGOI
_symmetry_cell_setting           triclinic
_symmetry_space_group_name_H-M   'P -1'
_symmetry_Int_Tables_number      2
_space_group_name_Hall           '-P 1'
loop_
_symmetry_equiv_pos_site_id
_symmetry_equiv_pos_as_xyz
1 x,y,z
2 -x,-y,-z
_cell_length_a                   7.1376(4)
_cell_length_b                   7.8130(4)
_cell_length_c                   10.3661(7)
_cell_angle_alpha                90.681(4)
_cell_angle_beta                 103.088(4)
_cell_angle_gamma                101.710(3)
_cell_volume                     550.326
loop_
_atom_site_label
_atom_site_type_symbol
_atom_site_fract_x
_atom_site_fract_y
_atom_site_fract_z
Dy1 Dy -0.71407(2) -1.20223(2) 0.926532(15)
N1 N -0.7295(5) -1.1698(5) 0.6776(3)
N2 N -0.5016(6) -0.7131(5) 0.7500(4)
N3 N -0.5509(6) -0.6564(5) 0.6238(4)
H1 H -0.5156 -0.5456 0.6164
O1 O -1.0263(5) -1.3849(5) 0.8103(4)
O2 O -0.5137(4) -0.9414(4) 0.8822(3)
O3 O -0.6753(6) -0.6816(5) 0.4016(3)
O4 O -0.9150(5) -1.0002(4) 0.8550(3)
O5 O -1.1007(5) -0.8327(4) 0.9199(3)
O6 O -0.7394(4) -1.4861(4) 1.0052(3)
O7 O -0.5636(5) -1.6824(4) 1.0880(3)
C1 C -0.8200(8) -1.2813(6) 0.5739(4)
H2 H -0.8609 -1.3985 0.5892
C2 C -0.8569(8) -1.2314(7) 0.4426(5)
H3 H -0.9170 -1.3145 0.3727
C3 C -0.8031(7) -1.0582(7) 0.4187(4)
H4 H -0.8283 -1.0212 0.3327
C4 C -0.7099(6) -0.9386(6) 0.5263(4)
C5 C -0.6694(6) -1.0010(5) 0.6536(4)
C6 C -0.5582(6) -0.8796(6) 0.7650(4)
C7 C -0.6463(7) -0.7512(6) 0.5115(4)
C8 C -1.0055(6) -0.9508(6) 0.9352(4)
C9 C -0.5882(6) -1.5492(5) 1.0269(4)
H5 H -1.110(13) -1.357(11) 0.758(8)
H6 H -1.079(10) -1.449(9) 0.837(7)
O4A O -1.0850(5) -0.9998(4) 1.1450(3)
O5A O -0.8993(5) -1.1673(4) 1.0801(3)
C8A C -0.9945(6) -1.0492(6) 1.0648(4)
O6A O -0.2606(4) -1.5139(4) 0.9948(3)
O7A O -0.4364(5) -1.3176(4) 0.9120(3)
C9A C -0.4118(6) -1.4508(5) 0.9731(4)
Dy1A Dy -1.28593(2) -0.79777(2) 1.073468(15)
N1A N -1.2705(5) -0.8302(5) 1.3224(3)
N2A N -1.4984(6) -1.2869(5) 1.2500(4)
N3A N -1.4491(6) -1.3436(5) 1.3762(4)
H1A H -1.4844 -1.4544 1.3836
O1A O -0.9737(5) -0.6151(5) 1.1897(4)
O2A O -1.4863(4) -1.0586(4) 1.1178(3)
O3A O -1.3247(6) -1.3184(5) 1.5984(3)
C1A C -1.1800(8) -0.7187(6) 1.4261(4)
H2A H -1.1391 -0.6015 1.4108
C2A C -1.1431(8) -0.7686(7) 1.5574(5)
H3A H -1.0830 -0.6855 1.6273
C3A C -1.1969(7) -0.9418(7) 1.5813(4)
H4A H -1.1717 -0.9788 1.6673
C4A C -1.2901(6) -1.0614(6) 1.4737(4)
C5A C -1.3306(6) -0.9990(5) 1.3464(4)
C6A C -1.4418(6) -1.1204(6) 1.2350(4)
C7A C -1.3537(7) -1.2488(6) 1.4885(4)
H5A H -0.890(13) -0.643(11) 1.242(8)
H6A H -0.921(10) -0.551(9) 1.163(7)
Dy1_2 Dy -1.71407(2) -1.20223(2) 0.926532(15)
Dy1A_2 Dy -0.28593(2) -1.79777(2) 1.073468(15)
Dy1A_3 Dy -0.28593(2) -0.79777(2) 1.073468(15)
O2_2 O -1.5137(4) -0.9414(4) 0.8822(3)
O2A_2 O -0.4863(4) -1.0586(4) 1.1178(3)
O6A_2 O -1.2606(4) -0.5139(4) 0.9948(3)
O7_2 O -1.5636(5) -0.6824(4) 1.0880(3)
loop_
_geom_bond_atom_site_label_1
_geom_bond_atom_site_label_2
_geom_bond_site_symmetry_1
_geom_bond_site_symmetry_2
Dy1 N1 1_555 1_555
N1 C1 1_555 1_555
N2 N3 1_555 1_555
N3 H1 1_555 1_555
O1 Dy1 1_555 1_555
O2 Dy1 1_555 1_555
O3 C7 1_555 1_555
O4 Dy1 1_555 1_555
O5 C8 1_555 1_555
O6 Dy1 1_555 1_555
O7 C9 1_555 1_555
C1 H2 1_555 1_555
C2 C1 1_555 1_555
H3 C2 1_555 1_555
C3 C2 1_555 1_555
H4 C3 1_555 1_555
C4 C3 1_555 1_555
C5 N1 1_555 1_555
C6 N2 1_555 1_555
C7 N3 1_555 1_555
C8 O4 1_555 1_555
C9 O6 1_555 1_555
H5 O1 1_555 1_555
H6 O1 1_555 1_555
O4A C8A 1_555 1_555
O5A Dy1 1_555 1_555
C8A C8 1_555 1_555
O6A C9A 1_555 1_555
O7A Dy1 1_555 1_555
C9A C9 1_555 1_555
Dy1A O5 1_555 1_555
N1A Dy1A 1_555 1_555
N2A N3A 1_555 1_555
N3A H1A 1_555 1_555
O1A Dy1A 1_555 1_555
O2A Dy1A 1_555 1_555
O3A C7A 1_555 1_555
C1A N1A 1_555 1_555
H2A C1A 1_555 1_555
C2A C1A 1_555 1_555
H3A C2A 1_555 1_555
C3A C2A 1_555 1_555
H4A C3A 1_555 1_555
C4A C3A 1_555 1_555
C5A N1A 1_555 1_555
C6A N2A 1_555 1_555
C7A N3A 1_555 1_555
H5A O1A 1_555 1_555
H6A O1A 1_555 1_555
Dy1_2 O2A 1_555 1_555
Dy1A_2 O7 1_555 1_555
Dy1A_3 O2 1_555 1_555
O2_2 Dy1A 1_555 1_555
O2A_2 Dy1 1_555 1_555
O6A_2 Dy1A 1_555 1_555
O7_2 Dy1A 1_555 1_555
O2 C6 1_555 1_555
C4 C5 1_555 1_555
C4 C7 1_555 1_555
C5 C6 1_555 1_555
O4A Dy1A 1_555 1_555
O5A C8A 1_555 1_555
O6A Dy1A_2 1_555 1_555
O7A C9A 1_555 1_555
O2A C6A 1_555 1_555
C4A C5A 1_555 1_555
C4A C7A 1_555 1_555
C5A C6A 1_555 1_555
Dy1_2 O2_2 1_555 1_555
Dy1A_3 O2A_2 1_555 1_555

#END
