
#######################################################################
#
#                 Cambridge Crystallographic Data Centre
#                                CCDC 
#
#######################################################################
#
# If this CIF has been generated from an entry in the Cambridge 
# Structural Database, then it will include bibliographic, chemical, 
# crystal, experimental, refinement or atomic coordinate data resulting 
# from the CCDC's data processing and validation procedures.
#
#######################################################################

data_COSLEB
_symmetry_cell_setting           triclinic
_symmetry_space_group_name_H-M   'P -1'
_symmetry_Int_Tables_number      2
_space_group_name_Hall           '-P 1'
loop_
_symmetry_equiv_pos_site_id
_symmetry_equiv_pos_as_xyz
1 x,y,z
2 -x,-y,-z
_cell_length_a                   10.580(1)
_cell_length_b                   12.006(5)
_cell_length_c                   10.105(2)
_cell_angle_alpha                111.14(2)
_cell_angle_beta                 90.27(1)
_cell_angle_gamma                97.16(2)
_cell_volume                     1186.14
loop_
_atom_site_label
_atom_site_type_symbol
_atom_site_fract_x
_atom_site_fract_y
_atom_site_fract_z
Sm1 Sm 0.49345(3) 0.42970(2) 0.25442(3)
O1 O 0.2147(4) 0.3593(4) -0.0908(5)
O2 O 0.3341(4) 0.3486(4) 0.0819(5)
O3 O 0.2329(5) -0.0687(5) 0.0712(8)
O4 O 0.6852(4) 0.3910(4) 0.3401(4)
O5 O 0.6341(4) 0.4772(4) 0.5628(5)
O6 O 0.9842(4) 0.3977(5) 0.8448(5)
O7 O 0.6119(4) 0.6343(3) 0.3640(4)
O8 O 0.4594(4) 0.6163(4) 0.2069(4)
O9 O 0.4472(5) 1.0410(4) 0.2217(6)
C1 C 0.2484(5) 0.3024(5) -0.0190(6)
C2 C 0.1934(5) 0.1735(5) -0.0535(7)
C3 C 0.1046(7) 0.1174(6) -0.1669(7)
C4 C 0.0592(8) -0.0045(7) -0.2009(8)
C5 C 0.1011(7) -0.0690(6) -0.1240(8)
C6 C 0.1884(7) -0.0101(6) -0.0106(9)
C7 C 0.2339(6) 0.1111(6) 0.0278(8)
C8 C 0.7075(5) 0.4224(5) 0.4726(7)
C9 C 0.8297(5) 0.3912(5) 0.5197(6)
C10 C 0.9207(6) 0.3530(5) 0.4217(7)
C11 C 1.0360(6) 0.3302(6) 0.4766(7)
C12 C 1.0591(6) 0.3443(6) 0.6085(7)
C13 C 0.9654(6) 0.3820(6) 0.7041(7)
C14 C 0.8499(6) 0.4064(6) 0.6622(7)
C15 C 0.5478(5) 0.6828(5) 0.2978(6)
C16 C 0.5735(6) 0.8125(5) 0.3257(6)
C17 C 0.6774(6) 0.8817(6) 0.4173(7)
C18 C 0.7000(7) 1.0046(6) 0.4423(8)
C19 C 0.6233(7) 1.0567(6) 0.3754(8)
C20 C 0.5221(7) 0.9855(6) 0.2854(7)
C21 C 0.4943(6) 0.8633(5) 0.2581(7)
O10 O 0.3988(4) 0.2805(4) 0.3519(4)
O11 O 0.5505(4) 0.2189(4) 0.1013(5)
O12 O 0.6335(4) 0.4406(4) 0.0653(4)
O5A O 0.3659(4) 0.5228(4) 0.4372(5)
Sm1A Sm 0.50655(3) 0.57030(2) 0.74558(3)
O13 O 0.8425(5) 0.2999(5) 0.0163(8)
loop_
_geom_bond_atom_site_label_1
_geom_bond_atom_site_label_2
_geom_bond_site_symmetry_1
_geom_bond_site_symmetry_2
Sm1 O2 1_555 1_555
O1 C1 1_555 1_555
O2 C1 1_555 1_555
O3 C6 1_555 1_555
O4 Sm1 1_555 1_555
O5 C8 1_555 1_555
O6 C13 1_555 1_555
O7 Sm1 1_555 1_555
O8 Sm1 1_555 1_555
O9 C20 1_555 1_555
C1 C2 1_555 1_555
C2 C3 1_555 1_555
C3 C4 1_555 1_555
C4 C5 1_555 1_555
C5 C6 1_555 1_555
C6 C7 1_555 1_555
C7 C2 1_555 1_555
C8 O4 1_555 1_555
C9 C8 1_555 1_555
C10 C9 1_555 1_555
C11 C10 1_555 1_555
C12 C11 1_555 1_555
C13 C12 1_555 1_555
C14 C9 1_555 1_555
C15 O7 1_555 1_555
C16 C15 1_555 1_555
C17 C16 1_555 1_555
C18 C17 1_555 1_555
C19 C18 1_555 1_555
C20 C19 1_555 1_555
C21 C16 1_555 1_555
O10 Sm1 1_555 1_555
O11 Sm1 1_555 1_555
O12 Sm1 1_555 1_555
O5A Sm1 1_555 1_555
Sm1A O5 1_555 1_555
O8 C15 1_555 1_555
C13 C14 1_555 1_555
C20 C21 1_555 1_555

#END
