
#######################################################################
#
#                 Cambridge Crystallographic Data Centre
#                                CCDC 
#
#######################################################################
#
# If this CIF has been generated from an entry in the Cambridge 
# Structural Database, then it will include bibliographic, chemical, 
# crystal, experimental, refinement or atomic coordinate data resulting 
# from the CCDC's data processing and validation procedures.
#
#######################################################################

data_COSLAX
_symmetry_cell_setting           triclinic
_symmetry_space_group_name_H-M   'P -1'
_symmetry_Int_Tables_number      2
_space_group_name_Hall           '-P 1'
loop_
_symmetry_equiv_pos_site_id
_symmetry_equiv_pos_as_xyz
1 x,y,z
2 -x,-y,-z
_cell_length_a                   12.287(4)
_cell_length_b                   15.542(7)
_cell_length_c                   9.194(3)
_cell_angle_alpha                109.64(3)
_cell_angle_beta                 101.46(3)
_cell_angle_gamma                62.83(3)
_cell_volume                     1468.98
loop_
_atom_site_label
_atom_site_type_symbol
_atom_site_fract_x
_atom_site_fract_y
_atom_site_fract_z
Nd1 Nd 0.49347(4) 0.46368(3) 0.21289(5)
O1 O 0.3621(5) 0.4160(4) 0.3107(6)
O2 O 0.4019(5) 0.4780(4) 0.5603(6)
O3 O 0.0695(5) 0.4959(5) 0.8235(7)
O4 O 0.5486(5) 0.6706(4) -0.0047(6)
O5 O 0.5137(5) 0.5858(4) 0.1150(6)
O6 O 0.4303(6) 0.8310(5) 0.6554(7)
O7 O 0.3226(4) 0.6249(4) 0.3592(6)
O8 O 0.2799(4) 0.5604(4) 0.1159(6)
O9 O -0.1784(5) 0.7610(4) 0.0399(7)
C1 C 0.3429(7) 0.4387(6) 0.4522(9)
C2 C 0.2459(7) 0.4180(6) 0.4924(9)
C3 C 0.2022(7) 0.3519(6) 0.3804(10)
C4 C 0.1086(8) 0.3377(7) 0.4200(11)
C5 C 0.0623(7) 0.3849(6) 0.5681(10)
C6 C 0.1108(7) 0.4481(6) 0.6752(9)
C7 C 0.2021(7) 0.4649(6) 0.6391(9)
C8 C 0.5353(7) 0.6586(6) 0.1195(9)
C9 C 0.5447(7) 0.7327(5) 0.2710(9)
C10 C 0.6206(8) 0.7809(6) 0.2858(10)
C11 C 0.6288(9) 0.8488(7) 0.4270(11)
C12 C 0.5639(8) 0.8681(7) 0.5533(10)
C13 C 0.4923(7) 0.8167(6) 0.5339(10)
C14 C 0.4799(7) 0.7501(6) 0.3938(9)
C15 C 0.2470(7) 0.6269(6) 0.2439(9)
C16 C 0.1190(7) 0.7078(6) 0.2562(9)
C17 C 0.0895(8) 0.7942(6) 0.3845(10)
C18 C -0.0304(8) 0.8700(7) 0.3888(11)
C19 C -0.1198(8) 0.8597(6) 0.2739(11)
C20 C -0.0886(7) 0.7706(6) 0.1516(10)
C21 C 0.0311(7) 0.6960(6) 0.1360(9)
O10 O 0.6957(5) 0.3696(4) 0.1021(6)
O11 O 0.6339(4) 0.3117(4) 0.3255(6)
O5A O 0.4863(5) 0.4142(4) -0.1150(6)
Nd1A Nd 0.50653(4) 0.53632(3) -0.21289(5)
O2A O 0.5981(5) 0.5220(4) 0.4397(6)
O4A O 0.4514(5) 0.3294(4) 0.0047(6)
Nd1A_2 Nd 0.50653(4) 0.53632(3) 0.78711(5)
O12 O 0.8544(5) 0.1371(5) 0.2337(7)
O13 O 0.9153(5) 0.2366(5) 0.1797(8)
O14 O 1.3534(5) 0.0174(5) 0.0492(8)
C22 C 0.9382(8) 0.1552(7) 0.1946(10)
C23 C 1.0610(7) 0.0698(6) 0.1702(10)
C24 C 1.0826(8) -0.0209(7) 0.1940(11)
C25 C 1.1999(9) -0.0993(7) 0.1708(12)
C26 C 1.2923(8) -0.0884(7) 0.1218(11)
C27 C 1.2654(8) 0.0039(7) 0.0977(10)
C28 C 1.1506(8) 0.0845(7) 0.1228(10)
O15 O 0.5546(5) 0.8397(4) 0.9376(7)
O16 O 0.1615(5) 0.4276(4) 0.0880(7)
loop_
_geom_bond_atom_site_label_1
_geom_bond_atom_site_label_2
_geom_bond_site_symmetry_1
_geom_bond_site_symmetry_2
Nd1 O1 1_555 1_555
O1 C1 1_555 1_555
O2 C1 1_555 1_555
O3 C6 1_555 1_555
O4 C8 1_555 1_555
O5 Nd1 1_555 1_555
O6 C13 1_555 1_555
O7 Nd1 1_555 1_555
O8 Nd1 1_555 1_555
O9 C20 1_555 1_555
C1 C2 1_555 1_555
C2 C3 1_555 1_555
C3 C4 1_555 1_555
C4 C5 1_555 1_555
C5 C6 1_555 1_555
C6 C7 1_555 1_555
C7 C2 1_555 1_555
C8 O5 1_555 1_555
C9 C8 1_555 1_555
C10 C9 1_555 1_555
C11 C10 1_555 1_555
C12 C11 1_555 1_555
C13 C12 1_555 1_555
C14 C9 1_555 1_555
C15 O7 1_555 1_555
C16 C15 1_555 1_555
C17 C16 1_555 1_555
C18 C17 1_555 1_555
C19 C18 1_555 1_555
C20 C19 1_555 1_555
C21 C16 1_555 1_555
O10 Nd1 1_555 1_555
O11 Nd1 1_555 1_555
O12 C22 1_555 1_555
O13 C22 1_555 1_555
O14 C27 1_555 1_555
C22 C23 1_555 1_555
C23 C24 1_555 1_555
C24 C25 1_555 1_555
C25 C26 1_555 1_555
C26 C27 1_555 1_555
C27 C28 1_555 1_555
C28 C23 1_555 1_555
O5A Nd1 1_555 1_555
Nd1A O4 1_555 1_555
O2A Nd1 1_555 1_555
O4A Nd1 1_555 1_555
Nd1A_2 O2 1_555 1_555
O5 Nd1A 1_555 1_555
O8 C15 1_555 1_555
C13 C14 1_555 1_555
C20 C21 1_555 1_555
O5A Nd1A 1_555 1_555

#END
