
#######################################################################
#
#                 Cambridge Crystallographic Data Centre
#                                CCDC 
#
#######################################################################
#
# If this CIF has been generated from an entry in the Cambridge 
# Structural Database, then it will include bibliographic, chemical, 
# crystal, experimental, refinement or atomic coordinate data resulting 
# from the CCDC's data processing and validation procedures.
#
#######################################################################

data_COTBOC
_symmetry_cell_setting           monoclinic
_symmetry_space_group_name_H-M   'C 2/c'
_symmetry_Int_Tables_number      15
_space_group_name_Hall           '-C 2yn'
loop_
_symmetry_equiv_pos_site_id
_symmetry_equiv_pos_as_xyz
1 x,y,z
2 1/2+x,1/2+y,z
3 -x,y,1/2-z
4 1/2-x,1/2+y,1/2-z
5 -x,-y,-z
6 1/2-x,1/2-y,-z
7 x,-y,1/2+z
8 1/2+x,1/2-y,1/2+z
_cell_length_a                   13.497(3)
_cell_length_b                   9.503(2)
_cell_length_c                   9.600(4)
_cell_angle_alpha                90
_cell_angle_beta                 92.30(3)
_cell_angle_gamma                90
_cell_volume                     1230.32
loop_
_atom_site_label
_atom_site_type_symbol
_atom_site_fract_x
_atom_site_fract_y
_atom_site_fract_z
Ag1 Ag 0.50000 0.50000 0.50000
Ag2 Ag 0.50000 0.67023(8) 0.25000
O1 O 0.3693(3) 0.4946(4) 0.2347(4)
O2 O 0.5523(4) 0.8188(4) 0.4255(4)
N1 N 0.4151(4) 0.3392(5) 0.4027(5)
C1 C 0.3658(4) 0.3732(6) 0.2803(6)
C2 C 0.3071(5) 0.2630(8) 0.2001(7)
C3 C 0.3494(5) 0.1180(7) 0.2225(6)
C4 C 0.3606(5) 0.0891(7) 0.3763(7)
C5 C 0.5891(5) 0.7928(6) 0.5433(6)
H1 H 0.298(6) 0.292(8) 0.115(8)
H2 H 0.237(5) 0.275(7) 0.234(7)
H3 H 0.408(5) 0.104(7) 0.188(7)
H4 H 0.315(4) 0.037(5) 0.171(5)
H5 H 0.397(5) 0.004(7) 0.393(7)
H6 H 0.298(5) 0.084(6) 0.396(6)
Ag2D Ag 0.50000 0.32977(8) 0.75000
N1D N 0.5849(4) 0.6608(5) 0.5973(5)
O1B O 0.6307(3) 0.4946(4) 0.2653(4)
O2B O 0.4477(4) 0.8188(4) 0.0745(4)
C5D C 0.4109(5) 0.2072(6) 0.4567(6)
C4D C 0.6394(5) 0.9109(7) 0.6237(7)
O1D O 0.6307(3) 0.5054(4) 0.7653(4)
O2D O 0.4477(4) 0.1812(4) 0.5745(4)
C1D C 0.6342(4) 0.6268(6) 0.7197(6)
C3D C 0.6506(5) 0.8820(7) 0.7775(6)
H5D H 0.603(5) 0.996(7) 0.607(7)
H6D H 0.702(5) 0.916(6) 0.604(6)
C2D C 0.6929(5) 0.7370(8) 0.7999(7)
H3D H 0.592(5) 0.896(7) 0.812(7)
H4D H 0.685(4) 0.963(5) 0.829(5)
H1D H 0.702(6) 0.708(8) 0.885(8)
H2D H 0.763(5) 0.725(7) 0.766(7)
loop_
_geom_bond_atom_site_label_1
_geom_bond_atom_site_label_2
_geom_bond_site_symmetry_1
_geom_bond_site_symmetry_2
Ag1 N1 1_555 1_555
Ag2 O1 1_555 1_555
O1 C1 1_555 1_555
O2 Ag2 1_555 1_555
N1 C1 1_555 1_555
C1 C2 1_555 1_555
C2 C3 1_555 1_555
C3 C4 1_555 1_555
C4 H5 1_555 1_555
C5 O2 1_555 1_555
H1 C2 1_555 1_555
H2 C2 1_555 1_555
H3 C3 1_555 1_555
H4 C3 1_555 1_555
H6 C4 1_555 1_555
Ag2D O1D 1_555 1_555
N1D Ag1 1_555 1_555
O1B Ag2 1_555 1_555
O2B Ag2 1_555 1_555
C5D N1 1_555 1_555
C4D C5 1_555 1_555
O1D C1D 1_555 1_555
O2D Ag2D 1_555 1_555
C1D N1D 1_555 1_555
C3D C4D 1_555 1_555
H5D C4D 1_555 1_555
H6D C4D 1_555 1_555
C2D C1D 1_555 1_555
H3D C3D 1_555 1_555
H4D C3D 1_555 1_555
H1D C2D 1_555 1_555
H2D C2D 1_555 1_555
C4 C5D 1_555 1_555
C5 N1D 1_555 1_555
C5D O2D 1_555 1_555
C3D C2D 1_555 1_555

#END
