
#######################################################################
#
#                 Cambridge Crystallographic Data Centre
#                                CCDC 
#
#######################################################################
#
# If this CIF has been generated from an entry in the Cambridge 
# Structural Database, then it will include bibliographic, chemical, 
# crystal, experimental, refinement or atomic coordinate data resulting 
# from the CCDC's data processing and validation procedures.
#
#######################################################################

data_COTFOH
_symmetry_cell_setting           monoclinic
_symmetry_space_group_name_H-M   'P 21/c'
_symmetry_Int_Tables_number      14
_space_group_name_Hall           '-P 2ybc'
loop_
_symmetry_equiv_pos_site_id
_symmetry_equiv_pos_as_xyz
1 x,y,z
2 -x,1/2+y,1/2-z
3 -x,-y,-z
4 x,1/2-y,1/2+z
_cell_length_a                   17.836(3)
_cell_length_b                   11.7949(12)
_cell_length_c                   9.4298(10)
_cell_angle_alpha                90
_cell_angle_beta                 90.652(10)
_cell_angle_gamma                90
_cell_volume                     1983.65
loop_
_atom_site_label
_atom_site_type_symbol
_atom_site_fract_x
_atom_site_fract_y
_atom_site_fract_z
Mn1 Mn 0.23522(2) 0.49732(3) 0.43325(4)
O1 O 0.29511(9) 0.61875(13) 0.49498(17)
O2 O 0.27235(9) 0.13076(13) 0.08623(17)
O3 O 0.30624(11) 0.03046(14) 0.2773(2)
O4 O 0.15345(9) 0.53489(14) 0.55262(17)
O5 O 0.20363(9) 0.59403(14) 0.24107(18)
O6 O 0.15541(10) 0.62783(15) 0.02787(18)
N1 N 0.31464(11) 0.43803(16) 0.3067(2)
N2 N 0.17388(10) 0.37911(16) 0.3375(2)
C1 C 0.36767(13) 0.6347(2) 0.4757(2)
C2 C 0.40320(14) 0.7214(2) 0.5520(3)
C3 C 0.47858(14) 0.7428(2) 0.5371(3)
C4 C 0.52189(14) 0.6791(2) 0.4451(3)
C5 C 0.48838(14) 0.5935(2) 0.3681(3)
C6 C 0.41182(13) 0.56939(19) 0.3817(2)
C7 C 0.38182(13) 0.47695(19) 0.2985(2)
C8 C 0.29030(13) 0.34019(19) 0.2174(2)
C9 C 0.31201(14) 0.23035(19) 0.2942(3)
C10 C 0.29519(13) 0.12124(19) 0.2128(3)
C11 C 0.09875(12) 0.4656(2) 0.5908(3)
C12 C 0.05998(13) 0.4891(2) 0.7173(3)
C13 C -0.00028(14) 0.4241(2) 0.7573(3)
C14 C -0.02574(14) 0.3347(2) 0.6739(3)
C15 C 0.01174(13) 0.3081(2) 0.5517(3)
C16 C 0.07522(13) 0.3710(2) 0.5099(3)
C17 C 0.11161(13) 0.3381(2) 0.3807(3)
C18 C 0.20478(13) 0.3488(2) 0.1971(2)
C19 C 0.17911(14) 0.4353(2) 0.0849(3)
C20 C 0.18048(13) 0.5623(2) 0.1199(3)
H1 H 0.37480 0.76640 0.61540
H2 H 0.50130 0.80210 0.59050
H3 H 0.57390 0.69430 0.43550
H4 H 0.51770 0.54990 0.30460
H5 H 0.41430 0.44200 0.23230
H6 H 0.31540 0.34360 0.12320
H7 H 0.36640 0.23280 0.31620
H8 H 0.28520 0.22770 0.38550
H9 H 0.07570 0.55060 0.77550
H10 H -0.02490 0.44070 0.84360
H11 H -0.06860 0.29230 0.70100
H12 H -0.00530 0.24670 0.49450
H13 H 0.08780 0.28210 0.32350
H14 H 0.18510 0.27240 0.16940
H15 H 0.21050 0.42390 0.00020
H16 H 0.12700 0.41560 0.05710
Mn1C Mn 0.23522(2) 0.00268(3) -0.06675(4)
O2C O 0.27235(9) 0.36924(13) 0.58623(17)
N3 N 0.22204(14) 0.82718(19) 0.2674(2)
H17 H 0.1892(16) 0.851(2) 0.199(3)
H18 H 0.1990(15) 0.841(2) 0.346(3)
H19 H 0.2251(15) 0.749(3) 0.257(3)
H20 H 0.2649(17) 0.861(2) 0.267(3)
O7 O 0.41763(14) 0.0204(2) 0.4740(3)
H21 H 0.376(2) 0.016(3) 0.407(4)
H22 H 0.433(2) -0.039(4) 0.459(5)
loop_
_geom_bond_atom_site_label_1
_geom_bond_atom_site_label_2
_geom_bond_site_symmetry_1
_geom_bond_site_symmetry_2
Mn1 O1 1_555 1_555
O1 C1 1_555 1_555
O2 C10 1_555 1_555
O3 C10 1_555 1_555
O4 Mn1 1_555 1_555
O5 Mn1 1_555 1_555
O6 C20 1_555 1_555
N1 Mn1 1_555 1_555
N2 Mn1 1_555 1_555
C1 C2 1_555 1_555
C2 C3 1_555 1_555
C3 C4 1_555 1_555
C4 C5 1_555 1_555
C5 C6 1_555 1_555
C6 C1 1_555 1_555
C7 N1 1_555 1_555
C8 N1 1_555 1_555
C9 C8 1_555 1_555
C10 C9 1_555 1_555
C11 O4 1_555 1_555
C12 C11 1_555 1_555
C13 C12 1_555 1_555
C14 C13 1_555 1_555
C15 C14 1_555 1_555
C16 C11 1_555 1_555
C17 N2 1_555 1_555
C18 N2 1_555 1_555
C19 C18 1_555 1_555
C20 O5 1_555 1_555
N3 H17 1_555 1_555
O7 H21 1_555 1_555
H1 C2 1_555 1_555
H2 C3 1_555 1_555
H3 C4 1_555 1_555
H4 C5 1_555 1_555
H5 C7 1_555 1_555
H6 C8 1_555 1_555
H7 C9 1_555 1_555
H8 C9 1_555 1_555
H9 C12 1_555 1_555
H10 C13 1_555 1_555
H11 C14 1_555 1_555
H12 C15 1_555 1_555
H13 C17 1_555 1_555
H14 C18 1_555 1_555
H15 C19 1_555 1_555
H16 C19 1_555 1_555
H18 N3 1_555 1_555
H19 N3 1_555 1_555
H20 N3 1_555 1_555
H22 O7 1_555 1_555
Mn1C O2 1_555 1_555
O2C Mn1 1_555 1_555
C6 C7 1_555 1_555
C8 C18 1_555 1_555
C15 C16 1_555 1_555
C16 C17 1_555 1_555
C19 C20 1_555 1_555

#END
