
#######################################################################
#
#                 Cambridge Crystallographic Data Centre
#                                CCDC 
#
#######################################################################
#
# If this CIF has been generated from an entry in the Cambridge 
# Structural Database, then it will include bibliographic, chemical, 
# crystal, experimental, refinement or atomic coordinate data resulting 
# from the CCDC's data processing and validation procedures.
#
#######################################################################

data_COTPUY
_symmetry_cell_setting           monoclinic
_symmetry_space_group_name_H-M   'P 21/n'
_symmetry_Int_Tables_number      14
_space_group_name_Hall           '-P 2yn'
loop_
_symmetry_equiv_pos_site_id
_symmetry_equiv_pos_as_xyz
1 x,y,z
2 1/2-x,1/2+y,1/2-z
3 -x,-y,-z
4 1/2+x,1/2-y,1/2+z
_cell_length_a                   8.6254(4)
_cell_length_b                   17.4097(7)
_cell_length_c                   11.9174(5)
_cell_angle_alpha                90
_cell_angle_beta                 103.3050(16)
_cell_angle_gamma                90
_cell_volume                     1741.55
loop_
_atom_site_label
_atom_site_type_symbol
_atom_site_fract_x
_atom_site_fract_y
_atom_site_fract_z
Cu1 Cu 0.66472(3) 0.21831(2) 0.96145(2)
Cl1 Cl 0.31234(5) 0.14221(3) 0.97224(4)
O1 O 0.43689(17) 0.19625(8) 1.02714(12)
O2 O 0.18484(17) 0.14584(9) 1.03118(13)
O3 O 0.3800(2) 0.06631(9) 0.98193(15)
O4 O 0.25751(19) 0.16254(11) 0.85291(13)
N1 N 0.54013(19) 0.25599(9) 0.81319(13)
N2 N 0.33355(19) 0.28593(9) 0.60074(14)
C1 C 0.5443(2) 0.21361(11) 0.72138(16)
C2 C 0.4377(2) 0.22861(11) 0.61301(16)
C3 C 0.3381(2) 0.33477(11) 0.69216(16)
C4 C 0.2421(2) 0.40110(11) 0.67845(17)
H1 H 0.1738 0.4126 0.6058
C5 C 0.2482(2) 0.44887(12) 0.77081(17)
H2 H 0.1858 0.4944 0.7612
C6 C 0.3462(2) 0.43131(12) 0.88016(17)
H3 H 0.3465 0.4642 0.9438
C7 C 0.4408(2) 0.36718(11) 0.89495(16)
H4 H 0.5066 0.3558 0.9686
C8 C 0.4402(2) 0.31802(11) 0.80058(16)
C9 C 0.6665(2) 0.15206(11) 0.73983(16)
C10 C 0.6761(2) 0.10066(11) 0.83114(16)
H5 H 0.592(3) 0.0960(14) 0.868(2)
C11 C 0.8062(2) 0.05162(11) 0.86225(17)
H6 H 0.8132 0.0169 0.9247
C12 C 0.9256(2) 0.05353(12) 0.80186(18)
H7 H 1.0156 0.0208 0.8240
C13 C 0.9142(2) 0.10320(12) 0.70886(17)
H8 H 0.9956 0.1036 0.6671
C14 C 0.7844(2) 0.15217(11) 0.67669(17)
H9 H 0.7759 0.1854 0.6124
C15 C 0.4308(2) 0.18046(11) 0.50918(16)
C16 C 0.4526(2) 0.21588(11) 0.40878(17)
H10 H 0.4803 0.2687 0.4096
C17 C 0.4336(2) 0.17372(12) 0.30809(17)
H11 H 0.4509 0.1973 0.2401
C18 C 0.3894(3) 0.09716(12) 0.30651(18)
H12 H 0.3730 0.0688 0.2367
C19 C 0.3692(3) 0.06184(12) 0.40581(18)
H13 H 0.3397 0.0092 0.4041
C20 C 0.3917(2) 0.10285(12) 0.50822(17)
H14 H 0.3806 0.0782 0.5770
Cu1C Cu 0.16472(3) 0.28169(2) 0.46145(2)
N2C N 0.83355(19) 0.21407(9) 1.10074(14)
loop_
_geom_bond_atom_site_label_1
_geom_bond_atom_site_label_2
_geom_bond_site_symmetry_1
_geom_bond_site_symmetry_2
Cu1 O1 1_555 1_555
Cl1 O1 1_555 1_555
O2 Cl1 1_555 1_555
O3 Cl1 1_555 1_555
O4 Cl1 1_555 1_555
N1 Cu1 1_555 1_555
N2 C2 1_555 1_555
C1 N1 1_555 1_555
C2 C1 1_555 1_555
C3 N2 1_555 1_555
C4 C3 1_555 1_555
H1 C4 1_555 1_555
C5 C4 1_555 1_555
H2 C5 1_555 1_555
C6 C5 1_555 1_555
H3 C6 1_555 1_555
C7 C6 1_555 1_555
H4 C7 1_555 1_555
C8 N1 1_555 1_555
C9 C1 1_555 1_555
C10 Cu1 1_555 1_555
H5 C10 1_555 1_555
C11 C10 1_555 1_555
H6 C11 1_555 1_555
C12 C11 1_555 1_555
H7 C12 1_555 1_555
C13 C12 1_555 1_555
H8 C13 1_555 1_555
C14 C9 1_555 1_555
H9 C14 1_555 1_555
C15 C2 1_555 1_555
C16 C15 1_555 1_555
H10 C16 1_555 1_555
C17 C16 1_555 1_555
H11 C17 1_555 1_555
C18 C17 1_555 1_555
H12 C18 1_555 1_555
C19 C18 1_555 1_555
H13 C19 1_555 1_555
C20 C15 1_555 1_555
H14 C20 1_555 1_555
Cu1C N2 1_555 1_555
N2C Cu1 1_555 1_555
C3 C8 1_555 1_555
C7 C8 1_555 1_555
C9 C10 1_555 1_555
C13 C14 1_555 1_555
C19 C20 1_555 1_555

#END
