
#######################################################################
#
#                 Cambridge Crystallographic Data Centre
#                                CCDC 
#
#######################################################################
#
# If this CIF has been generated from an entry in the Cambridge 
# Structural Database, then it will include bibliographic, chemical, 
# crystal, experimental, refinement or atomic coordinate data resulting 
# from the CCDC's data processing and validation procedures.
#
#######################################################################

data_COTROU
_symmetry_cell_setting           monoclinic
_symmetry_space_group_name_H-M   'P 21'
_symmetry_Int_Tables_number      4
_space_group_name_Hall           'P 2yb'
loop_
_symmetry_equiv_pos_site_id
_symmetry_equiv_pos_as_xyz
1 x,y,z
2 -x,1/2+y,-z
_cell_length_a                   9.685(3)
_cell_length_b                   9.707(3)
_cell_length_c                   11.757(3)
_cell_angle_alpha                90
_cell_angle_beta                 95.312(4)
_cell_angle_gamma                90
_cell_volume                     1100.56
loop_
_atom_site_label
_atom_site_type_symbol
_atom_site_fract_x
_atom_site_fract_y
_atom_site_fract_z
C1 C 0.6821(8) 0.8011(9) 0.7571(7)
H1 H 0.7366 0.7436 0.7165
C2 C 0.7248(9) 0.9346(10) 0.7840(7)
H2 H 0.8095 0.9665 0.7635
C3 C 0.6412(12) 1.0189(10) 0.8411(8)
C4 C 0.5164(11) 0.9736(11) 0.8726(8)
H3 H 0.4604 1.0320 0.9110
C5 C 0.4738(9) 0.8378(9) 0.8464(7)
H4 H 0.3892 0.8052 0.8667
C6 C 0.5588(7) 0.7554(8) 0.7910(6)
C7 C 0.6904(12) 1.1638(16) 0.8729(8)
H5 H 0.6143 1.2165 0.8966
H6 H 0.7251 1.2070 0.8078
H7 H 0.7628 1.1593 0.9343
C8 C 0.3135(6) 0.5842(7) 0.5853(5)
H8 H 0.2673 0.6468 0.6351
C9 C 0.2357(7) 0.4449(8) 0.5793(5)
C10 C 0.3076(6) 0.6473(9) 0.4652(5)
H9 H 0.3609 0.5899 0.4178
H10 H 0.2121 0.6469 0.4319
C11 C 0.3629(7) 0.7934(7) 0.4638(6)
H11 H 0.4550 0.7944 0.5040
H12 H 0.3724 0.8188 0.3851
C12 C 0.2769(7) 0.9018(7) 0.5156(5)
C13 C 0.2321(8) 0.2449(8) 0.8193(6)
H13 H 0.2716 0.3223 0.7888
C14 C 0.2187(9) 0.2388(10) 0.9351(7)
H14 H 0.2487 0.3120 0.9821
C15 C 0.1621(7) 0.1269(9) 0.9802(6)
H15 H 0.1508 0.1238 1.0578
C16 C 0.1207(7) 0.0164(8) 0.9106(6)
C17 C 0.1347(7) 0.0301(8) 0.7953(6)
H16 H 0.1048 -0.0420 0.7470
N1 N 0.1885(5) 0.1402(7) 0.7500(4)
N2 N 0.0646(7) -0.0994(9) 0.9546(6)
H17 H 0.0369 -0.1661 0.9100
H18 H 0.0570 -0.1054 1.0267
N3 N 0.4585(5) 0.5714(6) 0.6287(4)
H19 H 0.5206 0.5533 0.5830
O1 O 0.6370(5) 0.5006(6) 0.7789(5)
O2 O 0.3965(5) 0.5493(6) 0.8251(4)
O3 O 0.3056(5) 0.3390(5) 0.5715(4)
O4 O 0.1081(4) 0.4501(5) 0.5832(5)
O5 O 0.3294(4) 1.0251(5) 0.5187(4)
O6 O 0.1609(5) 0.8784(5) 0.5488(5)
O7 O 0.0410(4) 0.1746(7) 0.4767(4)
H20 H -0.0213 0.2272 0.4443
H21 H -0.0009 0.0987 0.4629
S1 S 0.51093(18) 0.58164(19) 0.76101(15)
Zn1 Zn 0.20944(7) 0.16138(9) 0.58152(6)
O5_2 O 0.3294(4) 0.0251(5) 0.5187(4)
Zn1_2 Zn 0.20944(7) 1.16138(9) 0.58152(6)
O8 O 0.0778(6) 0.9275(10) 0.2345(6)
H22 H 0.0555 0.9183 0.3024
H23 H 0.1578 0.9627 0.2478
O9 O 0.1057(7) 0.6493(12) 0.8287(6)
H24 H 0.1868 0.6250 0.8151
H25 H 0.0352 0.5969 0.8204
loop_
_geom_bond_atom_site_label_1
_geom_bond_atom_site_label_2
_geom_bond_site_symmetry_1
_geom_bond_site_symmetry_2
C1 H1 1_555 1_555
C2 C1 1_555 1_555
H2 C2 1_555 1_555
C3 C2 1_555 1_555
C4 C3 1_555 1_555
H3 C4 1_555 1_555
C5 C4 1_555 1_555
H4 C5 1_555 1_555
C6 C1 1_555 1_555
C7 C3 1_555 1_555
H5 C7 1_555 1_555
H6 C7 1_555 1_555
H7 C7 1_555 1_555
C8 H8 1_555 1_555
C9 C8 1_555 1_555
C10 C8 1_555 1_555
H9 C10 1_555 1_555
H10 C10 1_555 1_555
C11 C10 1_555 1_555
H11 C11 1_555 1_555
H12 C11 1_555 1_555
C12 C11 1_555 1_555
C13 H13 1_555 1_555
C14 C13 1_555 1_555
H14 C14 1_555 1_555
C15 C14 1_555 1_555
H15 C15 1_555 1_555
C16 C15 1_555 1_555
C17 C16 1_555 1_555
H16 C17 1_555 1_555
N1 C13 1_555 1_555
N2 C16 1_555 1_555
H17 N2 1_555 1_555
H18 N2 1_555 1_555
N3 C8 1_555 1_555
H19 N3 1_555 1_555
O1 S1 1_555 1_555
O2 S1 1_555 1_555
O3 C9 1_555 1_555
O4 C9 1_555 1_555
O5 C12 1_555 1_555
O6 C12 1_555 1_555
O7 H20 1_555 1_555
H21 O7 1_555 1_555
S1 C6 1_555 1_555
Zn1 N1 1_555 1_555
O8 H22 1_555 1_555
H23 O8 1_555 1_555
O9 H24 1_555 1_555
H25 O9 1_555 1_555
O5_2 Zn1 1_555 1_555
Zn1_2 O5 1_555 1_555
C5 C6 1_555 1_555
C17 N1 1_555 1_555
N3 S1 1_555 1_555
O3 Zn1 1_555 1_555
O7 Zn1 1_555 1_555

#END
