
#######################################################################
#
#                 Cambridge Crystallographic Data Centre
#                                CCDC 
#
#######################################################################
#
# If this CIF has been generated from an entry in the Cambridge 
# Structural Database, then it will include bibliographic, chemical, 
# crystal, experimental, refinement or atomic coordinate data resulting 
# from the CCDC's data processing and validation procedures.
#
#######################################################################

data_COTREK
_symmetry_cell_setting           monoclinic
_symmetry_space_group_name_H-M   'P 21/n'
_symmetry_Int_Tables_number      14
_space_group_name_Hall           '-P 2yn'
loop_
_symmetry_equiv_pos_site_id
_symmetry_equiv_pos_as_xyz
1 x,y,z
2 1/2-x,1/2+y,1/2-z
3 -x,-y,-z
4 1/2+x,1/2-y,1/2+z
_cell_length_a                   18.868(4)
_cell_length_b                   7.2111(14)
_cell_length_c                   19.464(4)
_cell_angle_alpha                90
_cell_angle_beta                 95.75(3)
_cell_angle_gamma                90
_cell_volume                     2634.93
loop_
_atom_site_label
_atom_site_type_symbol
_atom_site_fract_x
_atom_site_fract_y
_atom_site_fract_z
C1 C 0.6375(3) -0.0760(7) 0.5395(2)
H1 H 0.6212 -0.1064 0.5816
C2 C 0.5915(2) -0.0971(7) 0.4796(3)
H2 H 0.5453 -0.1399 0.4819
C3 C 0.6150(2) -0.0543(7) 0.4168(2)
H3 H 0.5851 -0.0675 0.3761
C4 C 0.6855(2) 0.0101(6) 0.4155(2)
C5 C 0.7283(2) 0.0285(6) 0.4780(2)
C6 C 0.8025(2) 0.0919(6) 0.4792(2)
C7 C 0.9084(2) 0.1680(9) 0.5437(3)
H4 H 0.9344 0.1830 0.5865
C8 C 0.9411(3) 0.2060(9) 0.4845(3)
H5 H 0.9884 0.2441 0.4880
C9 C 0.9037(2) 0.1874(7) 0.4208(3)
H6 H 0.9253 0.2117 0.3809
C10 C 0.8324(2) 0.1312(7) 0.4168(2)
C11 C 0.7865(2) 0.1065(6) 0.3542(2)
C12 C 0.7164(2) 0.0510(6) 0.3531(2)
C13 C 0.7358(2) 0.0908(6) 0.2478(2)
C14 C 0.7258(2) 0.0959(6) 0.1715(2)
C15 C 0.6633(2) 0.1520(7) 0.1328(3)
C16 C 0.6563(3) 0.1462(8) 0.0612(3)
H7 H 0.6138 0.1831 0.0367
C17 C 0.7117(3) 0.0863(8) 0.0263(3)
H8 H 0.7067 0.0834 -0.0218
C18 C 0.7737(3) 0.0314(8) 0.0615(3)
H9 H 0.8112 -0.0102 0.0381
C19 C 0.7803(3) 0.0382(7) 0.1328(3)
C20 C 0.6764(2) 0.3229(6) 0.6462(2)
C21 C 0.6092(2) 0.4359(6) 0.6282(2)
C22 C 0.5784(2) 0.4175(6) 0.5608(2)
H10 H 0.6005 0.3417 0.5306
C23 C 0.5154(2) 0.5090(6) 0.5364(2)
C24 C 0.4835(2) 0.6177(7) 0.5842(2)
H11 H 0.4411 0.6788 0.5704
C25 C 0.5136(2) 0.6365(8) 0.6513(2)
H12 H 0.4905 0.7078 0.6820
C26 C 0.5776(2) 0.5514(7) 0.6741(2)
C27 C 0.6121(2) 0.5836(7) 0.7462(2)
N1 N 0.84079(19) 0.1107(6) 0.5414(2)
N2 N 0.70414(19) -0.0137(5) 0.53902(19)
N3 N 0.68487(18) 0.0415(5) 0.28634(18)
N4 N 0.79834(19) 0.1303(5) 0.28637(18)
H13 H 0.8376 0.1638 0.2711
O1 O 0.73205(16) 0.3732(5) 0.62082(18)
O2 O 0.67118(17) 0.1723(5) 0.67743(18)
O3 O 0.7778(3) -0.2673(7) 0.6606(3)
O4 O 0.67505(18) 0.5328(6) 0.75762(18)
O5 O 0.5805(3) 0.6660(9) 0.7887(2)
F1 F 0.84355(15) -0.0206(4) 0.16598(16)
Cl1 Cl 0.59118(7) 0.2347(2) 0.17159(8)
Cd1 Cd 0.780759(17) 0.05958(5) 0.637189(16)
C20B C 0.3236(2) 0.6771(6) 0.3538(2)
C21B C 0.3908(2) 0.5641(6) 0.3718(2)
C22B C 0.4216(2) 0.5825(6) 0.4392(2)
H10B H 0.3995 0.6583 0.4694
C23B C 0.4846(2) 0.4910(6) 0.4636(2)
C24B C 0.5165(2) 0.3823(7) 0.4158(2)
H11B H 0.5589 0.3212 0.4296
C25B C 0.4864(2) 0.3635(8) 0.3487(2)
H12B H 0.5095 0.2922 0.3180
C26B C 0.4224(2) 0.4486(7) 0.3259(2)
C27B C 0.3879(2) 0.4164(7) 0.2538(2)
O1B O 0.26795(16) 0.6268(5) 0.37918(18)
O2B O 0.32882(17) 0.8277(5) 0.32257(18)
O4B O 0.32495(18) 0.4672(6) 0.24238(18)
O5B O 0.4195(3) 0.3340(9) 0.2113(2)
C1B C 0.3625(3) 1.0760(7) 0.4605(2)
H1B H 0.3788 1.1064 0.4184
C2B C 0.4085(2) 1.0971(7) 0.5204(3)
H2B H 0.4547 1.1399 0.5181
C3B C 0.3850(2) 1.0543(7) 0.5832(2)
H3B H 0.4149 1.0675 0.6239
C4B C 0.3145(2) 0.9899(6) 0.5845(2)
C5B C 0.2717(2) 0.9715(6) 0.5220(2)
C6B C 0.1975(2) 0.9081(6) 0.5208(2)
C7B C 0.0916(2) 0.8320(9) 0.4563(3)
H4B H 0.0656 0.8170 0.4135
C8B C 0.0589(3) 0.7940(9) 0.5155(3)
H5B H 0.0116 0.7559 0.5120
C9B C 0.0963(2) 0.8126(7) 0.5792(3)
H6B H 0.0747 0.7883 0.6191
C10B C 0.1676(2) 0.8688(7) 0.5832(2)
C11B C 0.2135(2) 0.8935(6) 0.6458(2)
C12B C 0.2836(2) 0.9490(6) 0.6469(2)
C13B C 0.2642(2) 0.9092(6) 0.7522(2)
C14B C 0.2742(2) 0.9041(6) 0.8285(2)
C15B C 0.3367(2) 0.8480(7) 0.8672(3)
C16B C 0.3437(3) 0.8538(8) 0.9388(3)
H7B H 0.3862 0.8169 0.9633
C17B C 0.2883(3) 0.9137(8) 0.9737(3)
H8B H 0.2933 0.9166 1.0218
C18B C 0.2263(3) 0.9686(8) 0.9385(3)
H9B H 0.1888 1.0102 0.9619
C19B C 0.2197(3) 0.9618(7) 0.8672(3)
N1B N 0.15921(19) 0.8893(6) 0.4586(2)
N2B N 0.29586(19) 1.0137(5) 0.46098(19)
N3B N 0.31513(18) 0.9585(5) 0.71366(18)
N4B N 0.20166(19) 0.8697(5) 0.71363(18)
H13B H 0.1624 0.8362 0.7289
O3B O 0.2222(3) 1.2673(7) 0.3394(3)
F1B F 0.15645(15) 1.0206(4) 0.83402(16)
Cl1B Cl 0.40882(7) 0.7653(2) 0.82841(8)
Cd1B Cd 0.219241(17) 0.94042(5) 0.362811(16)
O4A O 0.82495(18) 0.0328(6) 0.74238(18)
O4C O 0.17505(18) 0.9672(6) 0.25762(18)
Cd1A Cd 0.719241(17) 0.55958(5) 0.862811(16)
Cd1C Cd 0.280759(17) 0.44042(5) 0.137189(16)
O6 O 0.5604(3) 0.0607(9) 0.7515(5)
O7 O 0.9315(3) 0.2766(10) 0.2575(3)
O8 O 0.5783(7) 0.211(3) 0.8920(7)
loop_
_geom_bond_atom_site_label_1
_geom_bond_atom_site_label_2
_geom_bond_site_symmetry_1
_geom_bond_site_symmetry_2
C1 H1 1_555 1_555
C2 C1 1_555 1_555
H2 C2 1_555 1_555
C3 C2 1_555 1_555
H3 C3 1_555 1_555
C4 C3 1_555 1_555
C5 C4 1_555 1_555
C6 C5 1_555 1_555
C7 H4 1_555 1_555
C8 C7 1_555 1_555
H5 C8 1_555 1_555
C9 C8 1_555 1_555
H6 C9 1_555 1_555
C10 C6 1_555 1_555
C11 C10 1_555 1_555
C12 C4 1_555 1_555
C13 C14 1_555 1_555
C14 C15 1_555 1_555
C15 C16 1_555 1_555
C16 H7 1_555 1_555
C17 C16 1_555 1_555
H8 C17 1_555 1_555
C18 C17 1_555 1_555
H9 C18 1_555 1_555
C19 C14 1_555 1_555
C20 C21 1_555 1_555
C21 C22 1_555 1_555
C22 H10 1_555 1_555
C23 C22 1_555 1_555
C24 C23 1_555 1_555
H11 C24 1_555 1_555
C25 C24 1_555 1_555
H12 C25 1_555 1_555
C26 C21 1_555 1_555
C27 C26 1_555 1_555
N1 C6 1_555 1_555
N2 C1 1_555 1_555
N3 C12 1_555 1_555
N4 C11 1_555 1_555
H13 N4 1_555 1_555
O1 C20 1_555 1_555
O2 C20 1_555 1_555
O3 Cd1 1_555 1_555
O4 C27 1_555 1_555
O5 C27 1_555 1_555
F1 C19 1_555 1_555
Cl1 C15 1_555 1_555
Cd1 N1 1_555 1_555
C20B C21B 1_555 1_555
C21B C22B 1_555 1_555
C22B H10B 1_555 1_555
C23B C23 1_555 1_555
C24B C23B 1_555 1_555
H11B C24B 1_555 1_555
C25B C24B 1_555 1_555
H12B C25B 1_555 1_555
C26B C21B 1_555 1_555
C27B C26B 1_555 1_555
O1B C20B 1_555 1_555
O2B C20B 1_555 1_555
O4B C27B 1_555 1_555
O5B C27B 1_555 1_555
C1B H1B 1_555 1_555
C2B C1B 1_555 1_555
H2B C2B 1_555 1_555
C3B C2B 1_555 1_555
H3B C3B 1_555 1_555
C4B C3B 1_555 1_555
C5B C4B 1_555 1_555
C6B C5B 1_555 1_555
C7B H4B 1_555 1_555
C8B C7B 1_555 1_555
H5B C8B 1_555 1_555
C9B C8B 1_555 1_555
H6B C9B 1_555 1_555
C10B C6B 1_555 1_555
C11B C10B 1_555 1_555
C12B C4B 1_555 1_555
C13B C14B 1_555 1_555
C14B C15B 1_555 1_555
C15B C16B 1_555 1_555
C16B H7B 1_555 1_555
C17B C16B 1_555 1_555
H8B C17B 1_555 1_555
C18B C17B 1_555 1_555
H9B C18B 1_555 1_555
C19B C14B 1_555 1_555
N1B C6B 1_555 1_555
N2B C1B 1_555 1_555
N3B C12B 1_555 1_555
N4B C11B 1_555 1_555
H13B N4B 1_555 1_555
O3B Cd1B 1_555 1_555
F1B C19B 1_555 1_555
Cl1B C15B 1_555 1_555
Cd1B O1B 1_555 1_555
O4A Cd1 1_555 1_555
O4C Cd1B 1_555 1_555
Cd1A O4 1_555 1_555
Cd1C O4B 1_555 1_555
C5 N2 1_555 1_555
C7 N1 1_555 1_555
C9 C10 1_555 1_555
C11 C12 1_555 1_555
C13 N3 1_555 1_555
C13 N4 1_555 1_555
C18 C19 1_555 1_555
C25 C26 1_555 1_555
N2 Cd1 1_555 1_555
O1 Cd1 1_555 1_555
O2 Cd1 1_555 1_555
C22B C23B 1_555 1_555
C25B C26B 1_555 1_555
O2B Cd1B 1_555 1_555
C5B N2B 1_555 1_555
C7B N1B 1_555 1_555
C9B C10B 1_555 1_555
C11B C12B 1_555 1_555
C13B N3B 1_555 1_555
C13B N4B 1_555 1_555
C18B C19B 1_555 1_555
N1B Cd1B 1_555 1_555
N2B Cd1B 1_555 1_555

#END
