
#######################################################################
#
#                 Cambridge Crystallographic Data Centre
#                                CCDC 
#
#######################################################################
#
# If this CIF has been generated from an entry in the Cambridge 
# Structural Database, then it will include bibliographic, chemical, 
# crystal, experimental, refinement or atomic coordinate data resulting 
# from the CCDC's data processing and validation procedures.
#
#######################################################################

data_COTSIO
_symmetry_cell_setting           triclinic
_symmetry_space_group_name_H-M   'P -1'
_symmetry_Int_Tables_number      2
_space_group_name_Hall           '-P 1'
loop_
_symmetry_equiv_pos_site_id
_symmetry_equiv_pos_as_xyz
1 x,y,z
2 -x,-y,-z
_cell_length_a                   7.733(2)
_cell_length_b                   8.504(2)
_cell_length_c                   12.416(2)
_cell_angle_alpha                96.48(3)
_cell_angle_beta                 92.54(3)
_cell_angle_gamma                112.93(3)
_cell_volume                     743.686
loop_
_atom_site_label
_atom_site_type_symbol
_atom_site_fract_x
_atom_site_fract_y
_atom_site_fract_z
Co1 Co 0.5000 0.0000 0.0000
Co2 Co 1.0000 0.5000 0.5000
Na1 Na 0.44092(18) 0.43737(17) 0.26942(11)
N1 N 0.2531(3) -0.1490(3) 0.02639(19)
O1 O 0.5842(3) -0.1097(3) 0.10198(17)
N2 N 0.4976(4) 0.1700(3) 0.1179(2)
C1 C 0.2562(4) -0.2464(4) 0.1041(2)
O2 O 0.5180(4) 0.3159(3) 0.0995(2)
O3 O 0.7974(4) 0.5586(4) 0.3303(2)
O4 O 0.6191(3) 0.4157(4) 0.4398(2)
C2 C 0.4518(4) -0.2230(4) 0.1446(2)
C3 C 0.0918(5) -0.3539(4) 0.1415(3)
C4 C 0.0887(4) -0.1598(4) -0.0191(3)
C5 C -0.0771(5) -0.3596(5) 0.0966(3)
O5 O 0.4663(5) 0.1340(4) 0.2094(2)
C6 C -0.0799(5) -0.2641(5) 0.0151(3)
O6 O 0.4764(3) -0.3083(3) 0.2127(2)
N3 N 0.7800(4) 0.4884(3) 0.4123(2)
N4 N -0.1158(3) 0.2545(3) 0.4953(2)
C7 C -0.2789(5) -0.0986(5) 0.4577(3)
C8 C -0.0821(4) 0.1690(4) 0.4059(2)
C9 C -0.3062(5) -0.0105(4) 0.5510(3)
C10 C -0.2250(5) 0.1680(4) 0.5671(3)
C11 C -0.1653(5) -0.0083(4) 0.3837(3)
O7 O 0.1068(3) 0.4485(3) 0.37370(17)
O8 O 0.1175(3) 0.2299(3) 0.2619(2)
C12 C 0.0550(4) 0.2850(4) 0.3389(3)
H1 H 0.097(4) -0.100(4) -0.074(3)
H2 H -0.140(4) -0.063(4) 0.320(2)
H3 H -0.184(5) -0.429(4) 0.121(3)
H4 H -0.380(4) -0.066(4) 0.602(3)
H5 H -0.245(4) 0.238(4) 0.628(3)
H6 H -0.190(5) -0.268(5) -0.019(3)
H7 H -0.332(5) -0.213(5) 0.449(3)
H8 H 0.108(5) -0.420(5) 0.191(3)
Co2_2 Co 0.0000 0.5000 0.5000
Co2_3 Co 0.0000 -0.5000 -0.5000
Co2_4 Co 1.0000 -0.5000 -0.5000
Na1A Na 0.55908(18) -0.43737(17) -0.26942(11)
Na1_2 Na 0.44092(18) -0.56263(17) 0.26942(11)
Na1A_2 Na 0.55908(18) 0.56263(17) -0.26942(11)
N1A N 0.7469(3) 0.1490(3) -0.02639(19)
O1A O 0.4158(3) 0.1097(3) -0.10198(17)
N2A N 0.5024(4) -0.1700(3) -0.1179(2)
C1A C 0.7438(4) 0.2464(4) -0.1041(2)
O2A O 0.4820(4) -0.3159(3) -0.0995(2)
O3A O 0.2026(4) -0.5586(4) -0.3303(2)
O4A O 0.3809(3) -0.4157(4) -0.4398(2)
C2A C 0.5482(4) 0.2230(4) -0.1446(2)
C3A C 0.9082(5) 0.3539(4) -0.1415(3)
C4A C 0.9113(4) 0.1598(4) 0.0191(3)
C5A C 1.0771(5) 0.3596(5) -0.0966(3)
O5A O 0.5337(5) -0.1340(4) -0.2094(2)
C6A C 1.0799(5) 0.2641(5) -0.0151(3)
O6A O 0.5236(3) 0.3083(3) -0.2127(2)
O6_2 O 0.4764(3) 0.6917(3) 0.2127(2)
O6A_2 O 0.5236(3) -0.6917(3) -0.2127(2)
N3A N 0.2200(4) -0.4884(3) -0.4123(2)
N3A_2 N 1.2200(4) 0.5116(3) 0.5877(2)
N4A N 1.1158(3) -0.2545(3) -0.4953(2)
N4_2 N 0.8842(3) 0.2545(3) 0.4953(2)
N4A_2 N 1.1158(3) 0.7455(3) 0.5047(2)
C7A C 1.2789(5) 0.0986(5) -0.4577(3)
C8A C 1.0821(4) -0.1690(4) -0.4059(2)
C9A C 1.3062(5) 0.0105(4) -0.5510(3)
C10A C 1.2250(5) -0.1680(4) -0.5671(3)
C11A C 1.1653(5) 0.0083(4) -0.3837(3)
O7A O 0.8932(3) -0.4485(3) -0.37370(17)
O7_2 O 1.1068(3) 0.4485(3) 0.37370(17)
O7A_2 O 0.8932(3) 0.5515(3) 0.62630(17)
O8A O 0.8825(3) -0.2299(3) -0.2619(2)
C12A C 0.9450(4) -0.2850(4) -0.3389(3)
H1A H 0.903(4) 0.100(4) 0.074(3)
H2A H 1.140(4) 0.063(4) -0.320(2)
H3A H 1.184(5) 0.429(4) -0.121(3)
H4A H 1.380(4) 0.066(4) -0.602(3)
H5A H 1.245(4) -0.238(4) -0.628(3)
H6A H 1.190(5) 0.268(5) 0.019(3)
H7A H 1.332(5) 0.213(5) -0.449(3)
H8A H 0.892(5) 0.420(5) -0.191(3)
loop_
_geom_bond_atom_site_label_1
_geom_bond_atom_site_label_2
_geom_bond_site_symmetry_1
_geom_bond_site_symmetry_2
Co1 N1 1_555 1_555
Co2 N3 1_555 1_555
Na1 O2 1_555 1_555
N1 C1 1_555 1_555
O1 Co1 1_555 1_555
N2 Co1 1_555 1_555
C1 C2 1_555 1_555
O2 N2 1_555 1_555
O3 Na1 1_555 1_555
O4 Na1 1_555 1_555
C2 O1 1_555 1_555
C3 C1 1_555 1_555
C4 N1 1_555 1_555
C5 C3 1_555 1_555
O5 Na1 1_555 1_555
C6 C4 1_555 1_555
O6 C2 1_555 1_555
N3 O3 1_555 1_555
N4 C8 1_555 1_555
C7 C9 1_555 1_555
C8 C11 1_555 1_555
C9 C10 1_555 1_555
C10 N4 1_555 1_555
C11 C7 1_555 1_555
O7 Na1 1_555 1_555
O8 Na1 1_555 1_555
C12 C8 1_555 1_555
H1 C4 1_555 1_555
H2 C11 1_555 1_555
H3 C5 1_555 1_555
H4 C9 1_555 1_555
H5 C10 1_555 1_555
H6 C6 1_555 1_555
H7 C7 1_555 1_555
H8 C3 1_555 1_555
Co2_2 N4 1_555 1_555
Co2_3 N3A 1_555 1_555
Co2_4 N4A 1_555 1_555
Na1A O2A 1_555 1_555
Na1_2 O6 1_555 1_555
Na1A_2 O6A 1_555 1_555
N1A Co1 1_555 1_555
O1A Co1 1_555 1_555
N2A Co1 1_555 1_555
C1A N1A 1_555 1_555
O2A N2A 1_555 1_555
O3A Na1A 1_555 1_555
O4A Na1A 1_555 1_555
C2A O1A 1_555 1_555
C3A C1A 1_555 1_555
C4A N1A 1_555 1_555
C5A C3A 1_555 1_555
O5A Na1A 1_555 1_555
C6A C4A 1_555 1_555
O6A C2A 1_555 1_555
O6_2 Na1 1_555 1_555
O6A_2 Na1A 1_555 1_555
N3A O3A 1_555 1_555
N3A_2 Co2 1_555 1_555
N4A C8A 1_555 1_555
N4_2 Co2 1_555 1_555
N4A_2 Co2 1_555 1_555
C7A C9A 1_555 1_555
C8A C11A 1_555 1_555
C9A C10A 1_555 1_555
C10A N4A 1_555 1_555
C11A C7A 1_555 1_555
O7A Co2_4 1_555 1_555
O7_2 Co2 1_555 1_555
O7A_2 Co2 1_555 1_555
O8A Na1A 1_555 1_555
C12A C8A 1_555 1_555
H1A C4A 1_555 1_555
H2A C11A 1_555 1_555
H3A C5A 1_555 1_555
H4A C9A 1_555 1_555
H5A C10A 1_555 1_555
H6A C6A 1_555 1_555
H7A C7A 1_555 1_555
H8A C3A 1_555 1_555
N2 O5 1_555 1_555
O4 N3 1_555 1_555
C5 C6 1_555 1_555
O7 C12 1_555 1_555
O7 Co2_2 1_555 1_555
O8 C12 1_555 1_555
Na1A O7A 1_555 1_555
N2A O5A 1_555 1_555
C1A C2A 1_555 1_555
O4A N3A 1_555 1_555
C5A C6A 1_555 1_555
O7A C12A 1_555 1_555
O8A C12A 1_555 1_555

#END
