
#######################################################################
#
#                 Cambridge Crystallographic Data Centre
#                                CCDC 
#
#######################################################################
#
# If this CIF has been generated from an entry in the Cambridge 
# Structural Database, then it will include bibliographic, chemical, 
# crystal, experimental, refinement or atomic coordinate data resulting 
# from the CCDC's data processing and validation procedures.
#
#######################################################################

data_COTTEM
_symmetry_cell_setting           monoclinic
_symmetry_space_group_name_H-M   'P 21/c'
_symmetry_Int_Tables_number      14
_space_group_name_Hall           '-P 2ybc'
loop_
_symmetry_equiv_pos_site_id
_symmetry_equiv_pos_as_xyz
1 x,y,z
2 -x,1/2+y,1/2-z
3 -x,-y,-z
4 x,1/2-y,1/2+z
_cell_length_a                   4.7692(2)
_cell_length_b                   10.4912(7)
_cell_length_c                   17.9695(10)
_cell_angle_alpha                90
_cell_angle_beta                 104.874(5)
_cell_angle_gamma                90
_cell_volume                     868.971
loop_
_atom_site_label
_atom_site_type_symbol
_atom_site_fract_x
_atom_site_fract_y
_atom_site_fract_z
Zn1 Zn 0.02275(8) -0.25079(3) 0.17986(2)
O1 O 0.7212(4) -0.3209(2) 0.09260(13)
O2 O 0.4078(4) -0.2943(2) 0.16269(12)
O3 O 0.2837(5) -0.0900(3) 0.04542(14)
N1 N 0.0144(5) -0.0633(2) 0.18470(14)
C1 C 0.1410(6) 0.0229(3) 0.14548(16)
N2 N 0.2364(7) 0.2543(2) 0.1539(2)
N3 N -0.0152(5) 0.1327(2) 0.23339(13)
C2 C 0.1257(5) 0.1421(3) 0.17601(16)
C3 C -0.0749(6) 0.0077(3) 0.23608(17)
H1 H -0.1700 -0.0264 0.2707
N4 N 0.3900(6) 0.1215(3) 0.06538(15)
H2 H 0.4848 0.1201 0.0306
C4 C 0.2684(6) 0.0058(3) 0.08240(17)
C5 C 0.3678(8) 0.2345(3) 0.1000(2)
H3 H 0.4552 0.3046 0.0836
C6 C 0.4683(6) -0.3314(3) 0.10316(18)
C7 C 0.2450(7) -0.3969(4) 0.0411(2)
H4 H 0.1338 -0.4541 0.0639
H5 H 0.3396 -0.4441 0.0087
H6 H 0.1185 -0.3345 0.0107
Zn1_2 Zn 1.02275(8) -0.25079(3) 0.17986(2)
Zn1A Zn -0.02275(8) 0.24921(3) 0.32014(2)
O1_2 O -0.2788(4) -0.3209(2) 0.09260(13)
N3A N 0.0152(5) -0.3673(2) 0.26661(13)
loop_
_geom_bond_atom_site_label_1
_geom_bond_atom_site_label_2
_geom_bond_site_symmetry_1
_geom_bond_site_symmetry_2
Zn1 O2 1_555 1_555
O1 C6 1_555 1_555
O2 C6 1_555 1_555
O3 C4 1_555 1_555
N1 Zn1 1_555 1_555
C1 N1 1_555 1_555
N2 C2 1_555 1_555
N3 C2 1_555 1_555
C2 C1 1_555 1_555
C3 N1 1_555 1_555
H1 C3 1_555 1_555
N4 H2 1_555 1_555
C4 C1 1_555 1_555
C5 N2 1_555 1_555
H3 C5 1_555 1_555
C6 C7 1_555 1_555
C7 H4 1_555 1_555
H5 C7 1_555 1_555
H6 C7 1_555 1_555
Zn1_2 O1 1_555 1_555
Zn1A N3 1_555 1_555
O1_2 Zn1 1_555 1_555
N3A Zn1 1_555 1_555
N3 C3 1_555 1_555
N4 C4 1_555 1_555
N4 C5 1_555 1_555

#END
