
#######################################################################
#
#                 Cambridge Crystallographic Data Centre
#                                CCDC 
#
#######################################################################
#
# If this CIF has been generated from an entry in the Cambridge 
# Structural Database, then it will include bibliographic, chemical, 
# crystal, experimental, refinement or atomic coordinate data resulting 
# from the CCDC's data processing and validation procedures.
#
#######################################################################

data_COTXEP
_symmetry_cell_setting           tetragonal
_symmetry_space_group_name_H-M   'I 41/a'
_symmetry_Int_Tables_number      88
_space_group_name_Hall           '-I 4ad'
loop_
_symmetry_equiv_pos_site_id
_symmetry_equiv_pos_as_xyz
1 x,y,z
2 3/4-y,1/4+x,1/4+z
3 1/2-x,-y,1/2+z
4 3/4+y,3/4-x,3/4+z
5 1/2+x,1/2+y,1/2+z
6 1/4-y,3/4+x,3/4+z
7 -x,1/2-y,z
8 1/4+y,1/4-x,1/4+z
9 -x,-y,-z
10 1/4+y,3/4-x,3/4-z
11 1/2+x,y,1/2-z
12 1/4-y,1/4+x,1/4-z
13 1/2-x,1/2-y,1/2-z
14 3/4+y,1/4-x,1/4-z
15 x,1/2+y,-z
16 3/4-y,3/4+x,3/4-z
_cell_length_a                   25.39(8)
_cell_length_b                   25.39(8)
_cell_length_c                   10.14(6)
_cell_angle_alpha                90
_cell_angle_beta                 90
_cell_angle_gamma                90
_cell_volume                     6536.77
loop_
_atom_site_label
_atom_site_type_symbol
_atom_site_fract_x
_atom_site_fract_y
_atom_site_fract_z
Cu1 Cu 0.00000 0.00000 1.00000
Cu2 Cu 0.00951(3) 0.16546(3) 0.20313(8)
Cl1 Cl -0.06298(6) 0.21300(6) 0.25183(15)
Cl2 Cl -0.03777(7) 0.06457(6) 1.11866(17)
O1 O -0.05552(14) 0.04091(14) 0.7643(4)
O2 O 0.06494(15) 0.15391(14) 0.5941(4)
O3 O 0.09882(14) 0.06127(13) 0.9571(4)
N1 N 0.00105(15) 0.09846(16) 0.6654(4)
N2 N 0.08411(15) 0.10799(16) 0.7660(4)
N3 N 0.02047(17) 0.05158(16) 0.8620(4)
C1 C -0.0098(2) 0.0660(2) 0.7591(6)
C2 C 0.0472(2) 0.1179(2) 0.6763(5)
C3 C 0.0676(2) 0.0754(2) 0.8545(5)
C4 C -0.0932(3) 0.0538(2) 0.6627(6)
C5 C -0.0888(3) 0.0190(3) 0.5540(9)
C6 C -0.1131(4) -0.0079(4) 0.4989(13)
C7 C 0.0312(2) 0.1693(2) 0.4843(6)
C8 C 0.0330(2) 0.1307(2) 0.3756(6)
C9 C 0.0731(2) 0.1295(3) 0.2863(6)
C10 C 0.1473(2) 0.0900(2) 0.9712(6)
C11 C 0.1817(3) 0.0626(3) 1.0600(8)
C12 C 0.1762(3) 0.0228(4) 1.1171(9)
H1 H -0.130 0.048 0.696
H2 H -0.091 0.088 0.633
H3 H -0.052 0.015 0.509
H4 H -0.153 -0.013 0.515
H5 H -0.105 -0.032 0.415
H6 H -0.006 0.173 0.513
H7 H 0.040 0.203 0.448
H8 H 0.005 0.102 0.369
H9 H 0.100 0.154 0.285
H10 H 0.074 0.101 0.215
H11 H 0.163 0.096 0.887
H12 H 0.138 0.125 1.006
H13 H 0.215 0.079 1.092
H14 H 0.142 -0.002 1.086
H15 H 0.197 -0.001 1.170
Cu2H Cu -0.00951(3) -0.16546(3) 1.79687(8)
Cu2M Cu -0.08454(3) 0.24049(3) 0.04687(8)
Cu2K Cu 0.08454(3) 0.25951(3) 0.04687(8)
Cl1K Cl 0.03700(6) 0.18702(6) -0.00183(15)
Cl1H Cl 0.06298(6) -0.21300(6) 1.74817(15)
Cl1C Cl -0.03700(6) -0.18702(6) 2.00183(15)
Cl2H Cl 0.03777(7) -0.06457(6) 0.88134(17)
O1H O 0.05552(14) -0.04091(14) 1.2357(4)
O2H O -0.06494(15) -0.15391(14) 1.4059(4)
O3H O -0.09882(14) -0.06127(13) 1.0429(4)
N1H N -0.00105(15) -0.09846(16) 1.3346(4)
N2H N -0.08411(15) -0.10799(16) 1.2340(4)
N3H N -0.02047(17) -0.05158(16) 1.1380(4)
C1H C 0.0098(2) -0.0660(2) 1.2409(6)
C2H C -0.0472(2) -0.1179(2) 1.3237(5)
C3H C -0.0676(2) -0.0754(2) 1.1455(5)
C4H C 0.0932(3) -0.0538(2) 1.3373(6)
C5H C 0.0888(3) -0.0190(3) 1.4460(9)
C6H C 0.1131(4) 0.0079(4) 1.5011(13)
C7H C -0.0312(2) -0.1693(2) 1.5157(6)
C8H C -0.0330(2) -0.1307(2) 1.6244(6)
C9H C -0.0731(2) -0.1295(3) 1.7137(6)
C10H C -0.1473(2) -0.0900(2) 1.0288(6)
C11H C -0.1817(3) -0.0626(3) 0.9400(8)
C12H C -0.1762(3) -0.0228(4) 0.8829(9)
H1H H 0.130 -0.048 1.304
H2H H 0.091 -0.088 1.367
H3H H 0.052 -0.015 1.491
H4H H 0.153 0.013 1.485
H5H H 0.105 0.032 1.585
H6H H 0.006 -0.173 1.487
H7H H -0.040 -0.203 1.552
H8H H -0.005 -0.102 1.631
H9H H -0.100 -0.154 1.715
H10H H -0.074 -0.101 1.785
H11H H -0.163 -0.096 1.113
H12H H -0.138 -0.125 0.994
H13H H -0.215 -0.079 0.908
H14H H -0.142 0.002 0.914
H15H H -0.197 0.001 0.830
loop_
_geom_bond_atom_site_label_1
_geom_bond_atom_site_label_2
_geom_bond_site_symmetry_1
_geom_bond_site_symmetry_2
Cu1 Cl2 1_555 1_555
Cu2 Cl1 1_555 1_555
Cl1 Cu2M 1_555 1_555
O1 C1 1_555 1_555
O2 C2 1_555 1_555
O3 C3 1_555 1_555
N1 C1 1_555 1_555
N2 C2 1_555 1_555
N3 Cu1 1_555 1_555
C1 N3 1_555 1_555
C2 N1 1_555 1_555
C3 N2 1_555 1_555
C4 O1 1_555 1_555
C5 C4 1_555 1_555
C6 C5 1_555 1_555
C7 O2 1_555 1_555
C8 Cu2 1_555 1_555
C9 Cu2 1_555 1_555
C10 O3 1_555 1_555
C11 C10 1_555 1_555
C12 C11 1_555 1_555
H1 C4 1_555 1_555
H2 C4 1_555 1_555
H3 C5 1_555 1_555
H4 C6 1_555 1_555
H5 C6 1_555 1_555
H6 C7 1_555 1_555
H7 C7 1_555 1_555
H8 C8 1_555 1_555
H9 C9 1_555 1_555
H10 C9 1_555 1_555
H11 C10 1_555 1_555
H12 C10 1_555 1_555
H13 C11 1_555 1_555
H14 C12 1_555 1_555
H15 C12 1_555 1_555
Cu2H Cl1H 1_555 1_555
Cu2K Cl1K 1_555 1_555
Cl1K Cu2 1_555 1_555
Cl1C Cu2H 1_555 1_555
Cl2H Cu1 1_555 1_555
O1H C1H 1_555 1_555
O2H C2H 1_555 1_555
O3H C3H 1_555 1_555
N1H C1H 1_555 1_555
N2H C2H 1_555 1_555
N3H Cu1 1_555 1_555
C1H N3H 1_555 1_555
C2H N1H 1_555 1_555
C3H N2H 1_555 1_555
C4H O1H 1_555 1_555
C5H C4H 1_555 1_555
C6H C5H 1_555 1_555
C7H O2H 1_555 1_555
C8H Cu2H 1_555 1_555
C9H Cu2H 1_555 1_555
C10H O3H 1_555 1_555
C11H C10H 1_555 1_555
C12H C11H 1_555 1_555
H1H C4H 1_555 1_555
H2H C4H 1_555 1_555
H3H C5H 1_555 1_555
H4H C6H 1_555 1_555
H5H C6H 1_555 1_555
H6H C7H 1_555 1_555
H7H C7H 1_555 1_555
H8H C8H 1_555 1_555
H9H C9H 1_555 1_555
H10H C9H 1_555 1_555
H11H C10H 1_555 1_555
H12H C10H 1_555 1_555
H13H C11H 1_555 1_555
H14H C12H 1_555 1_555
H15H C12H 1_555 1_555
N3 C3 1_555 1_555
C7 C8 1_555 1_555
C8 C9 1_555 1_555
N3H C3H 1_555 1_555
C7H C8H 1_555 1_555
C8H C9H 1_555 1_555

#END
