
#######################################################################
#
#                 Cambridge Crystallographic Data Centre
#                                CCDC 
#
#######################################################################
#
# If this CIF has been generated from an entry in the Cambridge 
# Structural Database, then it will include bibliographic, chemical, 
# crystal, experimental, refinement or atomic coordinate data resulting 
# from the CCDC's data processing and validation procedures.
#
#######################################################################

data_COTYER
_symmetry_cell_setting           monoclinic
_symmetry_space_group_name_H-M   'P 21/n'
_symmetry_Int_Tables_number      14
_space_group_name_Hall           '-P 2yn'
loop_
_symmetry_equiv_pos_site_id
_symmetry_equiv_pos_as_xyz
1 x,y,z
2 1/2-x,1/2+y,1/2-z
3 -x,-y,-z
4 1/2+x,1/2-y,1/2+z
_cell_length_a                   9.3725(2)
_cell_length_b                   14.7643(3)
_cell_length_c                   14.7153(3)
_cell_angle_alpha                90
_cell_angle_beta                 101.058(2)
_cell_angle_gamma                90
_cell_volume                     1998.47
loop_
_atom_site_label
_atom_site_type_symbol
_atom_site_fract_x
_atom_site_fract_y
_atom_site_fract_z
Zn1 Zn 0.01743(5) 0.10873(3) 0.22316(3)
O1 O 0.1515(3) 0.13661(18) 0.34495(17)
O2 O 0.2035(3) 0.25974(19) 0.26981(19)
O3 O 0.0818(3) 0.00248(17) 0.74799(18)
O4 O 0.1573(3) 0.02713(18) 0.8993(2)
O5 O 0.1860(3) 0.04976(17) 0.16786(18)
N1 N 0.4376(3) 0.3265(2) 0.5966(2)
N2 N 0.3724(3) 0.2880(2) 0.7589(2)
C1 C 0.2099(4) 0.2139(3) 0.3405(3)
C2 C 0.2939(4) 0.2513(2) 0.4309(3)
C3 C 0.3937(4) 0.3204(3) 0.4316(3)
H1 H 0.4141 0.3432 0.3751
C4 C 0.4636(4) 0.3561(3) 0.5153(3)
H2 H 0.5325 0.4033 0.5151
C5 C 0.2672(4) 0.2203(3) 0.5153(3)
H3 H 0.1992 0.1729 0.5170
C6 C 0.3405(4) 0.2590(2) 0.5972(3)
C7 C 0.3141(4) 0.2320(2) 0.6897(2)
C8 C 0.2377(4) 0.1543(2) 0.7053(3)
H4 H 0.1977 0.1156 0.6553
C9 C 0.2206(4) 0.1339(2) 0.7948(3)
C10 C 0.2798(4) 0.1934(3) 0.8656(3)
H5 H 0.2690 0.1821 0.9275
C11 C 0.3539(4) 0.2685(3) 0.8450(3)
H6 H 0.3939 0.3085 0.8939
C12 C 0.1475(4) 0.0479(3) 0.8177(3)
C13 C 0.3011(6) 0.0896(3) 0.1688(4)
C14 C 0.4125(6) -0.0360(3) 0.1084(4)
H7 H 0.4074 -0.0802 0.1574
H8 H 0.4999 -0.0472 0.0827
H9 H 0.3262 -0.0419 0.0593
C15 C 0.5538(7) 0.1056(4) 0.1550(7)
H10 H 0.5350 0.1699 0.1642
H11 H 0.5929 0.0982 0.0982
H12 H 0.6244 0.0829 0.2079
N3 N 0.4185(4) 0.0548(3) 0.1467(3)
H13 H 0.316(5) 0.149(3) 0.187(3)
Zn1B Zn -0.01743(5) -0.10873(3) 0.77684(3)
Zn1C Zn 0.51743(5) 0.39127(3) 0.72316(3)
O3B O -0.0818(3) -0.00248(17) 0.25201(18)
N1C N -0.0624(3) 0.1735(2) 0.0966(2)
N2C N -0.1276(3) 0.2120(2) 0.2589(2)
O6 O 0.0578(5) 0.8163(5) 0.4394(3)
N4 N 0.2451(8) 0.9097(3) 0.4314(3)
C16 C 0.1526(7) 0.8462(7) 0.4035(4)
H14 H 0.1606 0.8190 0.3461
C17 C 0.3572(8) 0.9378(5) 0.3780(6)
H15 H 0.4533 0.9184 0.4109
H16 H 0.3558 1.0039 0.3714
H17 H 0.3364 0.9097 0.3166
C18 C 0.2887(18) 0.9519(8) 0.5211(7)
H18 H 0.2025 0.9633 0.5480
H19 H 0.3379 1.0093 0.5141
H20 H 0.3552 0.9115 0.5619
C19? C 0.124(2) 0.9601(9) 0.4873(10)
H21? H 0.0980 1.0198 0.4599
H22? H 0.1679 0.9673 0.5529
H23? H 0.0368 0.9225 0.4813
loop_
_geom_bond_atom_site_label_1
_geom_bond_atom_site_label_2
_geom_bond_site_symmetry_1
_geom_bond_site_symmetry_2
Zn1 O1 1_555 1_555
O1 C1 1_555 1_555
O2 C1 1_555 1_555
O3 C12 1_555 1_555
O4 C12 1_555 1_555
O5 Zn1 1_555 1_555
N1 C4 1_555 1_555
N2 C7 1_555 1_555
C1 C2 1_555 1_555
C2 C3 1_555 1_555
C3 H1 1_555 1_555
C4 C3 1_555 1_555
H2 C4 1_555 1_555
C5 C2 1_555 1_555
H3 C5 1_555 1_555
C6 N1 1_555 1_555
C7 C6 1_555 1_555
C8 C7 1_555 1_555
H4 C8 1_555 1_555
C9 C8 1_555 1_555
C10 C9 1_555 1_555
H5 C10 1_555 1_555
C11 N2 1_555 1_555
H6 C11 1_555 1_555
C12 C9 1_555 1_555
C13 O5 1_555 1_555
C14 H7 1_555 1_555
H8 C14 1_555 1_555
H9 C14 1_555 1_555
C15 H10 1_555 1_555
H11 C15 1_555 1_555
H12 C15 1_555 1_555
N3 C13 1_555 1_555
H13 C13 1_555 1_555
O6 C16 1_555 1_555
N4 C16 1_555 1_555
C16 H14 1_555 1_555
C17 N4 1_555 1_555
H15 C17 1_555 1_555
H16 C17 1_555 1_555
H17 C17 1_555 1_555
C18 N4 1_555 1_555
H18 C18 1_555 1_555
H19 C18 1_555 1_555
H20 C18 1_555 1_555
Zn1B O3 1_555 1_555
Zn1C N1 1_555 1_555
O3B Zn1 1_555 1_555
N1C Zn1 1_555 1_555
N2C Zn1 1_555 1_555
N2 Zn1C 1_555 1_555
C5 C6 1_555 1_555
C10 C11 1_555 1_555
C14 N3 1_555 1_555
C15 N3 1_555 1_555

#END
