
#######################################################################
#
#                 Cambridge Crystallographic Data Centre
#                                CCDC 
#
#######################################################################
#
# If this CIF has been generated from an entry in the Cambridge 
# Structural Database, then it will include bibliographic, chemical, 
# crystal, experimental, refinement or atomic coordinate data resulting 
# from the CCDC's data processing and validation procedures.
#
#######################################################################

data_COVBIY
_symmetry_cell_setting           monoclinic
_symmetry_space_group_name_H-M   'P 21/c'
_symmetry_Int_Tables_number      14
_space_group_name_Hall           '-P 2ybc'
loop_
_symmetry_equiv_pos_site_id
_symmetry_equiv_pos_as_xyz
1 x,y,z
2 -x,1/2+y,1/2-z
3 -x,-y,-z
4 x,1/2-y,1/2+z
_cell_length_a                   8.031(4)
_cell_length_b                   13.306(7)
_cell_length_c                   10.345(2)
_cell_angle_alpha                90
_cell_angle_beta                 97.16(3)
_cell_angle_gamma                90
_cell_volume                     1096.85
loop_
_atom_site_label
_atom_site_type_symbol
_atom_site_fract_x
_atom_site_fract_y
_atom_site_fract_z
Ag1 Ag 0.04061(5) 0.39731(4) -0.07745(4)
Ag2 Ag -0.26721(6) 0.41400(4) 0.05299(5)
O1 O -0.3258(6) 0.5258(4) 0.2195(5)
O2 O -0.3574(5) 0.3815(4) -0.1687(4)
O3 O 0.0873(6) 0.3895(4) -0.3964(5)
O4 O -0.0564(5) 0.3554(4) 0.2169(4)
O5 O 0.4359(6) 0.3709(5) 0.0493(4)
N1 N -0.1106(6) 0.3935(4) -0.2558(5)
N2 N 0.1704(6) 0.3748(4) 0.1057(5)
C1 C -0.2762(7) 0.3809(5) -0.2632(6)
C2 C -0.3563(8) 0.3667(6) -0.4042(7)
C3 C -0.2055(9) 0.3678(6) -0.4789(6)
C4 C -0.0586(8) 0.3847(5) -0.3758(6)
C5 C 0.0944(8) 0.3550(5) 0.2125(6)
C6 C 0.2219(8) 0.3329(6) 0.3277(6)
C7 C 0.3899(8) 0.3401(5) 0.2739(6)
C8 C 0.3394(7) 0.3629(5) 0.1326(6)
H1 H 0.215 0.380 0.395
H2 H 0.206 0.267 0.360
H3 H 0.456 0.394 0.315
H4 H 0.452 0.280 0.286
H5 H -0.412 0.303 -0.415
H6 H -0.433 0.418 -0.431
H7 H -0.195 0.307 -0.524
H8 H -0.215 0.422 -0.541
H9 H -0.412(10) 0.564(7) 0.225(8)
H10 H -0.261(14) 0.546(9) 0.262(11)
O5_2 O -0.5641(6) 0.3709(5) 0.0493(4)
Ag2_2 Ag 0.73279(6) 0.41400(4) 0.05299(5)
loop_
_geom_bond_atom_site_label_1
_geom_bond_atom_site_label_2
_geom_bond_site_symmetry_1
_geom_bond_site_symmetry_2
Ag1 N1 1_555 1_555
Ag2 O1 1_555 1_555
O1 H9 1_555 1_555
O2 Ag2 1_555 1_555
O3 C4 1_555 1_555
O4 Ag2 1_555 1_555
O5 C8 1_555 1_555
N1 C1 1_555 1_555
N2 Ag1 1_555 1_555
C1 O2 1_555 1_555
C2 C1 1_555 1_555
C3 C2 1_555 1_555
C4 N1 1_555 1_555
C5 O4 1_555 1_555
C6 C5 1_555 1_555
C7 C6 1_555 1_555
C8 N2 1_555 1_555
H1 C6 1_555 1_555
H2 C6 1_555 1_555
H3 C7 1_555 1_555
H4 C7 1_555 1_555
H5 C2 1_555 1_555
H6 C2 1_555 1_555
H7 C3 1_555 1_555
H8 C3 1_555 1_555
H10 O1 1_555 1_555
O5_2 Ag2 1_555 1_555
Ag2_2 O5 1_555 1_555
N2 C5 1_555 1_555
C3 C4 1_555 1_555
C7 C8 1_555 1_555

#END
