
#######################################################################
#
#                 Cambridge Crystallographic Data Centre
#                                CCDC 
#
#######################################################################
#
# If this CIF has been generated from an entry in the Cambridge 
# Structural Database, then it will include bibliographic, chemical, 
# crystal, experimental, refinement or atomic coordinate data resulting 
# from the CCDC's data processing and validation procedures.
#
#######################################################################

data_COVBOG
_symmetry_cell_setting           monoclinic
_symmetry_space_group_name_H-M   'P 21'
_symmetry_Int_Tables_number      4
_space_group_name_Hall           'P 2yb'
loop_
_symmetry_equiv_pos_site_id
_symmetry_equiv_pos_as_xyz
1 x,y,z
2 -x,1/2+y,-z
_cell_length_a                   10.496(5)
_cell_length_b                   5.045(2)
_cell_length_c                   17.513(8)
_cell_angle_alpha                90
_cell_angle_beta                 94.530(5)
_cell_angle_gamma                90
_cell_volume                     924.457
loop_
_atom_site_label
_atom_site_type_symbol
_atom_site_fract_x
_atom_site_fract_y
_atom_site_fract_z
Cd1 Cd 0.21629(4) 0.72575(10) 0.63300(2)
C1 C 0.3829(7) 0.5585(16) 0.8516(4)
H1 H 0.3917 0.6914 0.8156
C2 C 0.2726(7) 0.5416(18) 0.8890(5)
H2 H 0.2065 0.6615 0.8777
C3 C 0.2602(7) 0.3451(17) 0.9436(4)
C4 C 0.3574(8) 0.1642(15) 0.9578(4)
H3 H 0.3485 0.0312 0.9937
C5 C 0.4679(7) 0.1757(13) 0.9197(4)
H4 H 0.5325 0.0508 0.9289
C6 C 0.4793(6) 0.3803(16) 0.8673(4)
C7 C 0.1413(9) 0.330(2) 0.9872(6)
H5 H 0.1283 0.1500 1.0028
H6 H 0.0687 0.3878 0.9547
H7 H 0.1516 0.4415 1.0316
C8 C 0.5127(6) 0.3252(14) 0.6816(4)
H8 H 0.4993 0.5156 0.6886
C9 C 0.3846(6) 0.1894(17) 0.6839(3)
C10 C 0.5609(6) 0.2850(11) 0.6020(3)
H9 H 0.5720 0.0965 0.5939
H10 H 0.4953 0.3464 0.5640
C11 C 0.6823(7) 0.421(2) 0.5885(4)
H11 H 0.7481 0.3597 0.6264
H12 H 0.6713 0.6095 0.5963
C12 C 0.7282(6) 0.3779(16) 0.5096(4)
C13 C 0.0813(8) 1.0423(19) 0.7656(5)
H13 H 0.1495 1.1590 0.7741
C14 C -0.0249(9) 1.049(2) 0.8018(5)
H14 H -0.0449 1.1693 0.8394
C15 C -0.0353(7) 0.736(3) 0.7217(5)
H15 H -0.0675 0.5932 0.6927
N1 N 0.6052(5) 0.238(2) 0.7414(3)
H16 H 0.6510 0.1000 0.7345
N2 N 0.0760(5) 0.8366(13) 0.7135(4)
N3 N -0.0982(7) 0.8476(17) 0.7729(5)
H17 H -0.1723 0.8026 0.7862
O1 O 0.2861(5) 0.3116(10) 0.6666(3)
O2 O 0.3875(4) -0.0572(10) 0.6992(3)
O3 O 0.6630(5) 0.222(2) 0.4650(3)
O4 O 0.8289(4) 0.4803(12) 0.4917(3)
O5 O 0.6429(5) 0.6663(12) 0.8048(3)
O6 O 0.7178(5) 0.2656(16) 0.8661(3)
O7 O 0.0590(5) 0.4346(12) 0.5772(4)
H18 H 0.0879 0.3577 0.5390
H19 H -0.0074 0.5228 0.5623
S1 S 0.62301(16) 0.3972(4) 0.82107(10)
Cd1_2 Cd 0.21629(4) -0.27425(10) 0.63300(2)
Cd1A Cd 0.78371(4) 0.22575(10) 0.36700(2)
O2_2 O 0.3875(4) 0.9428(10) 0.6992(3)
O3A O 0.3370(5) 0.722(2) 0.5350(3)
O4A O 0.1711(4) 0.9803(12) 0.5083(3)
loop_
_geom_bond_atom_site_label_1
_geom_bond_atom_site_label_2
_geom_bond_site_symmetry_1
_geom_bond_site_symmetry_2
Cd1 N2 1_555 1_555
C1 H1 1_555 1_555
C2 C1 1_555 1_555
H2 C2 1_555 1_555
C3 C2 1_555 1_555
C4 C3 1_555 1_555
H3 C4 1_555 1_555
C5 C4 1_555 1_555
H4 C5 1_555 1_555
C6 C1 1_555 1_555
C7 C3 1_555 1_555
H5 C7 1_555 1_555
H6 C7 1_555 1_555
H7 C7 1_555 1_555
C8 H8 1_555 1_555
C9 C8 1_555 1_555
C10 C8 1_555 1_555
H9 C10 1_555 1_555
H10 C10 1_555 1_555
C11 C10 1_555 1_555
H11 C11 1_555 1_555
H12 C11 1_555 1_555
C12 C11 1_555 1_555
C13 H13 1_555 1_555
C14 C13 1_555 1_555
H14 C14 1_555 1_555
C15 H15 1_555 1_555
N1 C8 1_555 1_555
H16 N1 1_555 1_555
N2 C13 1_555 1_555
N3 C14 1_555 1_555
H17 N3 1_555 1_555
O1 Cd1 1_555 1_555
O2 C9 1_555 1_555
O3 C12 1_555 1_555
O4 C12 1_555 1_555
O5 S1 1_555 1_555
O6 S1 1_555 1_555
O7 Cd1 1_555 1_555
H18 O7 1_555 1_555
H19 O7 1_555 1_555
S1 C6 1_555 1_555
Cd1_2 O2 1_555 1_555
Cd1A O3 1_555 1_555
O2_2 Cd1 1_555 1_555
O3A Cd1 1_555 1_555
O4A Cd1 1_555 1_555
C5 C6 1_555 1_555
C9 O1 1_555 1_555
C15 N2 1_555 1_555
C15 N3 1_555 1_555
N1 S1 1_555 1_555
O4 Cd1A 1_555 1_555

#END
