
#######################################################################
#
#                 Cambridge Crystallographic Data Centre
#                                CCDC 
#
#######################################################################
#
# If this CIF has been generated from an entry in the Cambridge 
# Structural Database, then it will include bibliographic, chemical, 
# crystal, experimental, refinement or atomic coordinate data resulting 
# from the CCDC's data processing and validation procedures.
#
#######################################################################

data_COVBIY01
_symmetry_cell_setting           monoclinic
_symmetry_space_group_name_H-M   'P 21/n'
_symmetry_Int_Tables_number      14
_space_group_name_Hall           '-P 2yn'
loop_
_symmetry_equiv_pos_site_id
_symmetry_equiv_pos_as_xyz
1 x,y,z
2 1/2-x,1/2+y,1/2-z
3 -x,-y,-z
4 1/2+x,1/2-y,1/2+z
_cell_length_a                   7.6776(2)
_cell_length_b                   8.0431(2)
_cell_length_c                   17.8184(5)
_cell_angle_alpha                90
_cell_angle_beta                 97.9160(10)
_cell_angle_gamma                90
_cell_volume                     1089.83
loop_
_atom_site_label
_atom_site_type_symbol
_atom_site_fract_x
_atom_site_fract_y
_atom_site_fract_z
Ag1 Ag 0.87381(5) -0.03959(4) 0.921975(19)
Ag2 Ag 0.84483(5) -0.70935(5) 0.99945(2)
O1 O 0.7851(6) -0.4117(4) 0.9834(2)
O2 O 0.6696(5) 0.1070(4) 1.06085(18)
O3 O 1.0294(6) -0.1202(4) 0.75477(18)
O4 O 0.8721(5) 0.3471(4) 0.87045(17)
O5 O 0.9515(6) -0.6523(5) 1.1305(2)
N1 N 0.7557(5) -0.1366(4) 1.01049(18)
N2 N 0.9383(5) 0.0905(4) 0.8278(2)
C1 C 0.7264(7) -0.3015(6) 1.0210(3)
C2 C 0.6175(7) -0.3305(6) 1.0832(3)
H1 H 0.6805 -0.3977 1.1233
H2 H 0.5075 -0.3850 1.0642
C3 C 0.5858(6) -0.1564(6) 1.1110(3)
H3 H 0.4610 -0.1331 1.1071
H4 H 0.6386 -0.1423 1.1633
C4 C 0.6724(6) -0.0453(6) 1.0594(2)
C5 C 0.9951(7) 0.0267(6) 0.7630(3)
C6 C 1.0046(8) 0.1605(6) 0.7052(3)
H5 H 0.9190 0.1418 0.6607
H6 H 1.1210 0.1661 0.6900
C7 C 0.9632(8) 0.3171(6) 0.7460(3)
H7 H 0.8646 0.3756 0.7178
H8 H 1.0641 0.3908 0.7533
C8 C 0.9177(6) 0.2555(6) 0.8211(3)
Ag2_2 Ag 0.84483(5) 0.29065(5) 0.99945(2)
O2_2 O 0.6696(5) -0.8930(4) 1.06085(18)
O4_2 O 0.8721(5) -0.6529(4) 0.87045(17)
loop_
_geom_bond_atom_site_label_1
_geom_bond_atom_site_label_2
_geom_bond_site_symmetry_1
_geom_bond_site_symmetry_2
Ag1 N1 1_555 1_555
Ag2 O1 1_555 1_555
O1 C1 1_555 1_555
O2 C4 1_555 1_555
O3 C5 1_555 1_555
O4 C8 1_555 1_555
O5 Ag2 1_555 1_555
N1 C1 1_555 1_555
N2 Ag1 1_555 1_555
C1 C2 1_555 1_555
C2 H1 1_555 1_555
H2 C2 1_555 1_555
C3 C2 1_555 1_555
H3 C3 1_555 1_555
H4 C3 1_555 1_555
C4 N1 1_555 1_555
C5 N2 1_555 1_555
C6 C5 1_555 1_555
H5 C6 1_555 1_555
H6 C6 1_555 1_555
C7 C6 1_555 1_555
H7 C7 1_555 1_555
H8 C7 1_555 1_555
C8 N2 1_555 1_555
Ag2_2 O2 1_555 1_555
O2_2 Ag2 1_555 1_555
O4_2 Ag2 1_555 1_555
O4 Ag2_2 1_555 1_555
C3 C4 1_555 1_555
C7 C8 1_555 1_555

#END
