
#######################################################################
#
#                 Cambridge Crystallographic Data Centre
#                                CCDC 
#
#######################################################################
#
# If this CIF has been generated from an entry in the Cambridge 
# Structural Database, then it will include bibliographic, chemical, 
# crystal, experimental, refinement or atomic coordinate data resulting 
# from the CCDC's data processing and validation procedures.
#
#######################################################################

data_COVFIE
_symmetry_cell_setting           triclinic
_symmetry_space_group_name_H-M   'P -1'
_symmetry_Int_Tables_number      2
_space_group_name_Hall           '-P 1'
loop_
_symmetry_equiv_pos_site_id
_symmetry_equiv_pos_as_xyz
1 x,y,z
2 -x,-y,-z
_cell_length_a                   12.1133(4)
_cell_length_b                   12.7626(5)
_cell_length_c                   12.9724(5)
_cell_angle_alpha                83.839(3)
_cell_angle_beta                 67.379(3)
_cell_angle_gamma                81.747(3)
_cell_volume                     1829.06
loop_
_atom_site_label
_atom_site_type_symbol
_atom_site_fract_x
_atom_site_fract_y
_atom_site_fract_z
Cu1 Cu 0.13170(8) 0.89667(8) 0.91504(9)
N1 N 0.1718(6) 0.7982(5) 0.7950(6)
N2 N 0.2133(6) 0.8263(5) 0.6799(6)
N3 N 0.1914(6) 0.6566(5) 0.7059(6)
N4 N -0.0052(6) 0.1914(5) 0.9900(6)
N5 N 0.0793(6) 0.2210(5) 1.0285(6)
N6 N 0.1065(6) 0.2963(5) 0.8615(6)
N7 N 0.2801(6) 0.9657(5) 0.8271(6)
N8 N 0.2899(6) 1.0697(5) 0.8372(6)
N9 N 0.4699(6) 0.9834(5) 0.7562(6)
N10 N 0.8817(5) 1.0371(5) 0.9469(5)
N11 N 0.9931(5) 1.0032(5) 0.8661(6)
N12 N 0.8488(5) 0.9900(5) 0.8085(6)
C1 C 0.1593(7) 0.6968(6) 0.8065(7)
H1 H 0.1319 0.6575 0.8754
C2 C 0.2240(7) 0.7407(7) 0.6295(8)
H2 H 0.2504 0.7369 0.5516
C3 C 0.0144(7) 0.2378(6) 0.8890(8)
H3 H -0.0290 0.2308 0.8441
C4 C 0.1439(7) 0.2825(6) 0.9489(8)
H4 H 0.2085 0.3137 0.9512
C5 C 0.2018(7) 0.5451(6) 0.6778(7)
C6 C 0.3332(7) 0.5082(6) 0.6172(7)
H5 H 0.3781 0.5139 0.6647
H6 H 0.3663 0.5528 0.5485
C7 C 0.3461(7) 0.3903(6) 0.5879(7)
H7 H 0.4320 0.3648 0.5488
C8 C 0.2929(7) 0.3222(7) 0.6957(7)
H8 H 0.3366 0.3261 0.7447
H9 H 0.3006 0.2480 0.6783
C9 C 0.1589(7) 0.3630(6) 0.7552(7)
C10 C 0.1480(7) 0.4771(6) 0.7857(7)
H10 H 0.1913 0.4808 0.8351
H11 H 0.0632 0.5031 0.8250
C11 C 0.1310(7) 0.5417(6) 0.6017(7)
H12 H 0.1634 0.5870 0.5335
H13 H 0.0459 0.5670 0.6407
C12 C 0.1445(7) 0.4246(6) 0.5722(7)
H14 H 0.1014 0.4199 0.5220
C13 C 0.0905(7) 0.3551(6) 0.6793(7)
H15 H 0.0050 0.3794 0.7175
H16 H 0.0977 0.2812 0.6610
C14 C 0.2779(7) 0.3853(7) 0.5130(7)
H17 H 0.2858 0.3120 0.4926
H18 H 0.3123 0.4292 0.4440
C15 C 0.3874(7) 0.9162(7) 0.7783(7)
H19 H 0.4041 0.8445 0.7613
C16 C 0.4061(7) 1.0781(7) 0.7930(7)
H20 H 0.4405 1.1410 0.7875
C17 C 0.7986(7) 1.0295(6) 0.9084(7)
H21 H 0.7158 1.0491 0.9458
C18 C 0.9703(7) 0.9760(6) 0.7848(7)
H22 H 1.0287 0.9501 0.7181
C19 C 0.6021(7) 0.9602(6) 0.7018(7)
C20 C 0.6484(7) 1.0303(7) 0.5934(7)
H23 H 0.6269 1.1054 0.6098
H24 H 0.6123 1.0156 0.5414
C21 C 0.7876(7) 1.0046(7) 0.5408(7)
H25 H 0.8194 1.0482 0.4701
C22 C 0.8406(7) 1.0325(7) 0.6217(7)
H26 H 0.8182 1.1078 0.6367
H27 H 0.9286 1.0197 0.5885
C23 C 0.7932(7) 0.9646(6) 0.7313(7)
C24 C 0.6557(6) 0.9876(7) 0.7843(7)
H28 H 0.6330 1.0626 0.8006
H29 H 0.6246 0.9448 0.8546
C25 C 0.6367(7) 0.8445(7) 0.6788(7)
H30 H 0.6011 0.8261 0.6279
H31 H 0.6055 0.8013 0.7488
C26 C 0.7745(7) 0.8206(7) 0.6261(7)
H32 H 0.7961 0.7445 0.6105
C27 C 0.8283(7) 0.8462(6) 0.7059(7)
H33 H 0.9161 0.8311 0.6728
H34 H 0.7987 0.8020 0.7754
C28 C 0.8206(7) 0.8881(7) 0.5162(7)
H35 H 0.9082 0.8728 0.4802
H36 H 0.7844 0.8711 0.4651
Cu1_2 Cu 1.13170(8) 0.89667(8) 0.91504(9)
Cu1A Cu -0.13170(8) 0.10333(8) 1.08496(9)
Cu1A_2 Cu 0.86830(8) 1.10333(8) 1.08496(9)
N4A N 0.0052(6) 0.8086(5) 1.0100(6)
N10A N 0.1183(5) 0.9629(5) 1.0531(5)
N11_2 N -0.0069(5) 1.0032(5) 0.8661(6)
Mo1 Mo 0.46749(6) 0.54314(6) 0.87800(6)
Mo2 Mo 0.52981(6) 0.71656(6) 1.00315(6)
Mo3 Mo 0.30997(6) 0.66321(6) 1.23756(6)
Mo4 Mo 0.24740(6) 0.48742(6) 1.10638(6)
O1 O 0.5494(4) 0.4742(4) 0.7575(5)
O2 O 0.3779(5) 0.6383(4) 0.8369(5)
O3 O 0.5872(4) 0.4196(4) 0.9504(5)
O4 O 0.5929(4) 0.6263(4) 0.8711(5)
O5 O 0.3578(4) 0.4368(4) 0.9561(5)
O6 O 0.4332(5) 0.8054(4) 0.9618(5)
O7 O 0.6514(5) 0.7824(4) 0.9761(5)
O8 O 0.4590(4) 0.7242(4) 1.1614(4)
O9 O 0.2182(4) 0.7556(4) 1.1949(5)
O10 O 0.2783(5) 0.6879(4) 1.3734(5)
O11 O 0.2314(4) 0.5432(4) 1.2436(4)
O12 O 0.1605(5) 0.3867(4) 1.1569(5)
O13 O 0.1636(5) 0.5806(4) 1.0555(5)
Mo1A Mo 0.53251(6) 0.45686(6) 1.12200(6)
Mo2A Mo 0.47019(6) 0.28344(6) 0.99685(6)
Mo3A Mo 0.69003(6) 0.33679(6) 0.76244(6)
Mo4A Mo 0.75260(6) 0.51258(6) 0.89362(6)
O1A O 0.4506(4) 0.5258(4) 1.2425(5)
O2A O 0.6221(5) 0.3617(4) 1.1631(5)
O3A O 0.4128(4) 0.5804(4) 1.0496(5)
O4A O 0.4071(4) 0.3737(4) 1.1289(5)
O5A O 0.6422(4) 0.5632(4) 1.0439(5)
O6A O 0.5668(5) 0.1946(4) 1.0382(5)
O7A O 0.3486(5) 0.2176(4) 1.0239(5)
O8A O 0.5410(4) 0.2758(4) 0.8386(4)
O9A O 0.7818(4) 0.2444(4) 0.8051(5)
O10A O 0.7217(5) 0.3121(4) 0.6266(5)
O11A O 0.7686(4) 0.4568(4) 0.7564(4)
O12A O 0.8395(5) 0.6133(4) 0.8431(5)
O13A O 0.8364(5) 0.4194(4) 0.9445(5)
loop_
_geom_bond_atom_site_label_1
_geom_bond_atom_site_label_2
_geom_bond_site_symmetry_1
_geom_bond_site_symmetry_2
Cu1 N1 1_555 1_555
N1 N2 1_555 1_555
N2 C2 1_555 1_555
N3 C1 1_555 1_555
N4 N5 1_555 1_555
N5 C4 1_555 1_555
N6 C3 1_555 1_555
N7 Cu1 1_555 1_555
N8 N7 1_555 1_555
N9 C15 1_555 1_555
N10 N11 1_555 1_555
N11 C18 1_555 1_555
N12 C17 1_555 1_555
C1 N1 1_555 1_555
H1 C1 1_555 1_555
C2 N3 1_555 1_555
H2 C2 1_555 1_555
C3 N4 1_555 1_555
H3 C3 1_555 1_555
C4 N6 1_555 1_555
H4 C4 1_555 1_555
C5 N3 1_555 1_555
C6 C5 1_555 1_555
H5 C6 1_555 1_555
H6 C6 1_555 1_555
C7 C6 1_555 1_555
H7 C7 1_555 1_555
C8 C7 1_555 1_555
H8 C8 1_555 1_555
H9 C8 1_555 1_555
C9 N6 1_555 1_555
C10 C5 1_555 1_555
H10 C10 1_555 1_555
H11 C10 1_555 1_555
C11 C5 1_555 1_555
H12 C11 1_555 1_555
H13 C11 1_555 1_555
C12 C11 1_555 1_555
H14 C12 1_555 1_555
C13 C9 1_555 1_555
H15 C13 1_555 1_555
H16 C13 1_555 1_555
C14 C7 1_555 1_555
H17 C14 1_555 1_555
H18 C14 1_555 1_555
C15 N7 1_555 1_555
H19 C15 1_555 1_555
C16 N8 1_555 1_555
H20 C16 1_555 1_555
C17 N10 1_555 1_555
H21 C17 1_555 1_555
C18 N12 1_555 1_555
H22 C18 1_555 1_555
C19 N9 1_555 1_555
C20 C19 1_555 1_555
H23 C20 1_555 1_555
H24 C20 1_555 1_555
C21 C20 1_555 1_555
H25 C21 1_555 1_555
C22 C21 1_555 1_555
H26 C22 1_555 1_555
H27 C22 1_555 1_555
C23 N12 1_555 1_555
C24 C19 1_555 1_555
H28 C24 1_555 1_555
H29 C24 1_555 1_555
C25 C19 1_555 1_555
H30 C25 1_555 1_555
H31 C25 1_555 1_555
C26 C25 1_555 1_555
H32 C26 1_555 1_555
C27 C23 1_555 1_555
H33 C27 1_555 1_555
H34 C27 1_555 1_555
C28 C21 1_555 1_555
H35 C28 1_555 1_555
H36 C28 1_555 1_555
Mo1 O1 1_555 1_555
Mo2 O4 1_555 1_555
Mo3 O8 1_555 1_555
Mo4 O5 1_555 1_555
O1 Mo3A 1_555 1_555
O2 Mo1 1_555 1_555
O3 Mo1 1_555 1_555
O4 Mo1 1_555 1_555
O5 Mo1 1_555 1_555
O6 Mo2 1_555 1_555
O7 Mo2 1_555 1_555
O8 Mo2 1_555 1_555
O9 Mo3 1_555 1_555
O10 Mo3 1_555 1_555
O11 Mo3 1_555 1_555
O12 Mo4 1_555 1_555
O13 Mo4 1_555 1_555
Cu1_2 N11 1_555 1_555
Cu1A N4 1_555 1_555
Cu1A_2 N10 1_555 1_555
N4A Cu1 1_555 1_555
N10A Cu1 1_555 1_555
N11_2 Cu1 1_555 1_555
Mo1A O3 1_555 1_555
Mo2A O3 1_555 1_555
Mo3A O3 1_555 1_555
Mo4A O3 1_555 1_555
O1A Mo3 1_555 1_555
O2A Mo1A 1_555 1_555
O3A Mo1 1_555 1_555
O4A Mo4 1_555 1_555
O5A Mo2 1_555 1_555
O6A Mo2A 1_555 1_555
O7A Mo2A 1_555 1_555
O8A Mo2A 1_555 1_555
O9A Mo3A 1_555 1_555
O10A Mo3A 1_555 1_555
O11A Mo3A 1_555 1_555
O12A Mo4A 1_555 1_555
O13A Mo4A 1_555 1_555
N9 C16 1_555 1_555
C8 C9 1_555 1_555
C9 C10 1_555 1_555
C12 C13 1_555 1_555
C12 C14 1_555 1_555
C22 C23 1_555 1_555
C23 C24 1_555 1_555
C26 C27 1_555 1_555
C26 C28 1_555 1_555
Mo2 O3A 1_555 1_555
Mo3 O3A 1_555 1_555
Mo4 O11 1_555 1_555
Mo4 O3A 1_555 1_555
O4 Mo4A 1_555 1_555
O5 Mo2A 1_555 1_555
Mo1A O1A 1_555 1_555
Mo1A O3A 1_555 1_555
Mo1A O4A 1_555 1_555
Mo1A O5A 1_555 1_555
Mo2A O4A 1_555 1_555
Mo3A O8A 1_555 1_555
Mo4A O5A 1_555 1_555
Mo4A O11A 1_555 1_555

#END
