
#######################################################################
#
#                 Cambridge Crystallographic Data Centre
#                                CCDC 
#
#######################################################################
#
# If this CIF has been generated from an entry in the Cambridge 
# Structural Database, then it will include bibliographic, chemical, 
# crystal, experimental, refinement or atomic coordinate data resulting 
# from the CCDC's data processing and validation procedures.
#
#######################################################################

data_COVFUQ
_symmetry_cell_setting           orthorhombic
_symmetry_space_group_name_H-M   'P 21 21 21'
_symmetry_Int_Tables_number      19
_space_group_name_Hall           'P 2ac 2ab'
loop_
_symmetry_equiv_pos_site_id
_symmetry_equiv_pos_as_xyz
1 x,y,z
2 1/2-x,-y,1/2+z
3 1/2+x,1/2-y,-z
4 -x,1/2+y,1/2-z
_cell_length_a                   9.3560(7)
_cell_length_b                   11.5131(7)
_cell_length_c                   31.1479(17)
_cell_angle_alpha                90
_cell_angle_beta                 90
_cell_angle_gamma                90
_cell_volume                     3355.14
loop_
_atom_site_label
_atom_site_type_symbol
_atom_site_fract_x
_atom_site_fract_y
_atom_site_fract_z
Cu1 Cu 0.17036(5) -0.26807(3) 0.311203(14)
Cu2 Cu 0.23601(6) 0.50675(4) 0.386048(15)
N1 N 0.1863(3) -0.2373(2) 0.37308(9)
N2 N 0.2178(4) -0.3252(2) 0.40166(9)
N3 N 0.2413(3) -0.1581(2) 0.43486(9)
N4 N 0.2834(3) 0.4046(2) 0.43297(9)
N5 N 0.3156(3) 0.4435(2) 0.47406(9)
N6 N 0.3040(3) 0.2517(2) 0.47404(8)
N7 N 0.1674(3) -0.1563(2) 0.26485(8)
N8 N 0.1090(3) -0.1809(3) 0.22524(9)
N9 N 0.2078(3) -0.0086(2) 0.22305(8)
N10 N 0.2147(3) 0.4798(2) 0.32496(9)
N11 N 0.1893(4) 0.5647(2) 0.29472(9)
N12 N 0.2355(3) 0.4022(2) 0.26102(9)
C1 C 0.2006(4) -0.1390(3) 0.39381(10)
H1 H 0.1848 -0.0652 0.3818
C2 C 0.2496(5) -0.2748(3) 0.43789(12)
H2 H 0.2751 -0.3148 0.4631
C3 C 0.2779(4) 0.2911(3) 0.43396(11)
H3 H 0.2585 0.2436 0.4101
C4 C 0.3273(4) 0.3489(3) 0.49737(11)
H4 H 0.3493 0.3488 0.5268
C5 C 0.2771(4) -0.0768(3) 0.47044(11)
C6 C 0.2698(4) 0.0470(3) 0.45360(11)
H5 H 0.1727 0.0645 0.4437
H6 H 0.3354 0.0565 0.4293
C7 C 0.3115(4) 0.1294(3) 0.48984(10)
C8 C 0.4625(4) 0.1041(3) 0.50504(12)
H7 H 0.4887 0.1576 0.5282
H8 H 0.5301 0.1148 0.4813
C9 C 0.4688(4) -0.0218(3) 0.52122(11)
H9 H 0.5669 -0.0392 0.5312
C10 C 0.4296(4) -0.1044(3) 0.48523(11)
H10 H 0.4350 -0.1849 0.4954
H11 H 0.4964 -0.0952 0.4612
C11 C 0.1717(4) -0.0933(3) 0.50726(11)
H12 H 0.1746 -0.1737 0.5175
H13 H 0.0743 -0.0762 0.4976
C12 C 0.2149(5) -0.0094(3) 0.54367(12)
H14 H 0.1480 -0.0189 0.5681
C13 C 0.2068(4) 0.1156(3) 0.52736(12)
H15 H 0.2318 0.1696 0.5505
H16 H 0.1093 0.1331 0.5178
C14 C 0.3649(5) -0.0364(3) 0.55857(12)
H17 H 0.3694 -0.1163 0.5694
H18 H 0.3916 0.0161 0.5820
C15 C 0.2251(4) -0.0539(3) 0.26275(11)
H19 H 0.2722 -0.0166 0.2856
C16 C 0.1361(4) -0.0912(3) 0.20119(12)
H20 H 0.1090 -0.0848 0.1722
C17 C 0.2433(5) 0.3841(3) 0.30394(12)
H21 H 0.2662 0.3126 0.3168
C18 C 0.2026(4) 0.5156(3) 0.25715(11)
H22 H 0.1907 0.5543 0.2308
C19 C 0.2599(4) 0.1069(3) 0.20796(11)
C20 C 0.2196(4) 0.1963(3) 0.24201(10)
H23 H 0.2642 0.1762 0.2695
H24 H 0.1157 0.1976 0.2460
C21 C 0.2724(4) 0.3165(3) 0.22694(11)
C22 C 0.1984(4) 0.3475(3) 0.18502(10)
H25 H 0.2286 0.4250 0.1756
H26 H 0.0946 0.3486 0.1892
C23 C 0.2378(4) 0.2573(3) 0.15077(11)
H27 H 0.1904 0.2774 0.1233
C24 C 0.1882(4) 0.1361(3) 0.16542(10)
H28 H 0.0841 0.1353 0.1689
H29 H 0.2141 0.0780 0.1438
C25 C 0.4212(4) 0.1030(3) 0.20188(12)
H30 H 0.4462 0.0446 0.1803
H31 H 0.4679 0.0820 0.2289
C26 C 0.4716(4) 0.2232(3) 0.18723(12)
H32 H 0.5766 0.2219 0.1832
C27 C 0.4336(4) 0.3137(3) 0.22077(11)
H33 H 0.4674 0.3903 0.2114
H34 H 0.4805 0.2948 0.2480
C28 C 0.3994(4) 0.2558(3) 0.14438(12)
H35 H 0.4323 0.3325 0.1350
H36 H 0.4249 0.1990 0.1222
Cu1_2 Cu 0.17036(5) 0.73193(3) 0.311203(14)
Cu2_2 Cu 0.23601(6) -0.49325(4) 0.386048(15)
N2_2 N 0.2178(4) 0.6748(2) 0.40166(9)
N11_2 N 0.1893(4) -0.4353(2) 0.29472(9)
Mo1 Mo 0.94632(3) 0.14045(3) 0.367849(10)
Mo2 Mo 0.57839(4) 0.17624(3) 0.349799(12)
O1 O 0.7708(3) 0.1347(2) 0.33823(7)
O2 O 0.9383(4) 0.0510(3) 0.41143(9)
O3 O 1.0843(3) 0.0950(3) 0.33641(10)
O4 O 0.9804(4) 0.2784(3) 0.38502(14)
O5 O 0.5445(4) 0.1587(4) 0.40270(11)
O6 O 0.4696(4) 0.0951(4) 0.31811(15)
O7 O 0.5504(5) 0.3197(3) 0.33699(16)
O8 O 0.3040(4) 0.6277(3) 0.54061(11)
H37 H 0.2671 0.5816 0.5224
H38 H 0.3505 0.5878 0.5588
loop_
_geom_bond_atom_site_label_1
_geom_bond_atom_site_label_2
_geom_bond_site_symmetry_1
_geom_bond_site_symmetry_2
Cu1 N1 1_555 1_555
Cu2 N4 1_555 1_555
N1 N2 1_555 1_555
N2 C2 1_555 1_555
N3 C1 1_555 1_555
N4 N5 1_555 1_555
N5 C4 1_555 1_555
N6 C3 1_555 1_555
N7 Cu1 1_555 1_555
N8 N7 1_555 1_555
N9 C15 1_555 1_555
N10 Cu2 1_555 1_555
N11 N10 1_555 1_555
N12 C17 1_555 1_555
C1 N1 1_555 1_555
H1 C1 1_555 1_555
C2 N3 1_555 1_555
H2 C2 1_555 1_555
C3 N4 1_555 1_555
H3 C3 1_555 1_555
C4 N6 1_555 1_555
H4 C4 1_555 1_555
C5 N3 1_555 1_555
C6 C5 1_555 1_555
H5 C6 1_555 1_555
H6 C6 1_555 1_555
C7 N6 1_555 1_555
C8 C7 1_555 1_555
H7 C8 1_555 1_555
H8 C8 1_555 1_555
C9 C8 1_555 1_555
H9 C9 1_555 1_555
C10 C5 1_555 1_555
H10 C10 1_555 1_555
H11 C10 1_555 1_555
C11 C5 1_555 1_555
H12 C11 1_555 1_555
H13 C11 1_555 1_555
C12 C11 1_555 1_555
H14 C12 1_555 1_555
C13 C7 1_555 1_555
H15 C13 1_555 1_555
H16 C13 1_555 1_555
C14 C9 1_555 1_555
H17 C14 1_555 1_555
H18 C14 1_555 1_555
C15 N7 1_555 1_555
H19 C15 1_555 1_555
C16 N8 1_555 1_555
H20 C16 1_555 1_555
C17 N10 1_555 1_555
H21 C17 1_555 1_555
C18 N11 1_555 1_555
H22 C18 1_555 1_555
C19 N9 1_555 1_555
C20 C19 1_555 1_555
H23 C20 1_555 1_555
H24 C20 1_555 1_555
C21 N12 1_555 1_555
C22 C21 1_555 1_555
H25 C22 1_555 1_555
H26 C22 1_555 1_555
C23 C22 1_555 1_555
H27 C23 1_555 1_555
C24 C19 1_555 1_555
H28 C24 1_555 1_555
H29 C24 1_555 1_555
C25 C19 1_555 1_555
H30 C25 1_555 1_555
H31 C25 1_555 1_555
C26 C25 1_555 1_555
H32 C26 1_555 1_555
C27 C21 1_555 1_555
H33 C27 1_555 1_555
H34 C27 1_555 1_555
C28 C23 1_555 1_555
H35 C28 1_555 1_555
H36 C28 1_555 1_555
Mo1 O1 1_555 1_555
Mo2 O1 1_555 1_555
O2 Mo1 1_555 1_555
O3 Mo1 1_555 1_555
O4 Mo1 1_555 1_555
O5 Mo2 1_555 1_555
O6 Mo2 1_555 1_555
O7 Mo2 1_555 1_555
O8 H37 1_555 1_555
H38 O8 1_555 1_555
Cu1_2 N11 1_555 1_555
Cu2_2 N2 1_555 1_555
N2_2 Cu2 1_555 1_555
N11_2 Cu1 1_555 1_555
N9 C16 1_555 1_555
N12 C18 1_555 1_555
C6 C7 1_555 1_555
C9 C10 1_555 1_555
C12 C13 1_555 1_555
C12 C14 1_555 1_555
C20 C21 1_555 1_555
C23 C24 1_555 1_555
C26 C27 1_555 1_555
C26 C28 1_555 1_555

#END
