
#######################################################################
#
#                 Cambridge Crystallographic Data Centre
#                                CCDC 
#
#######################################################################
#
# If this CIF has been generated from an entry in the Cambridge 
# Structural Database, then it will include bibliographic, chemical, 
# crystal, experimental, refinement or atomic coordinate data resulting 
# from the CCDC's data processing and validation procedures.
#
#######################################################################

data_COVHEB
_symmetry_cell_setting           tetragonal
_symmetry_space_group_name_H-M   'P 4/n'
_symmetry_Int_Tables_number      85
_space_group_name_Hall           '-P 4a'
loop_
_symmetry_equiv_pos_site_id
_symmetry_equiv_pos_as_xyz
1 x,y,z
2 1/2-y,x,z
3 1/2-x,1/2-y,z
4 y,1/2-x,z
5 -x,-y,-z
6 1/2+y,-x,-z
7 1/2+x,1/2+y,-z
8 -y,1/2+x,-z
_cell_length_a                   22.5368(19)
_cell_length_b                   22.5368(19)
_cell_length_c                   12.143(2)
_cell_angle_alpha                90
_cell_angle_beta                 90
_cell_angle_gamma                90
_cell_volume                     6167.52
loop_
_atom_site_label
_atom_site_type_symbol
_atom_site_fract_x
_atom_site_fract_y
_atom_site_fract_z
Ag1 Ag 0.83599(3) 0.60748(3) 0.14356(7)
Ag2 Ag 1.18846(4) 0.40135(3) -0.64338(7)
Ni1 Ni 1.21626(6) 0.68282(6) 0.07134(10)
N1 N 1.1926(6) 0.6831(5) -0.1438(10)
N2 N 1.2507(6) 0.6694(5) -0.1764(10)
N3 N 1.3140(3) 0.4858(3) -0.5417(5)
N4 N 0.9800(3) 0.6564(3) 0.0313(5)
C1 C 1.2531(6) 0.6119(4) -0.2304(8)
C2 C 1.2980(4) 0.5861(4) -0.3004(7)
C3 C 1.3578(4) 0.5997(3) -0.2800(7)
H1 H 1.3679 0.6244 -0.2216
C4 C 1.4007(4) 0.5768(4) -0.3452(7)
H2 H 1.4402 0.5857 -0.3311
C5 C 1.3860(4) 0.5401(3) -0.4335(7)
H3 H 1.4155 0.5250 -0.4792
C6 C 1.3272(3) 0.5263(3) -0.4522(6)
C7 C 1.2836(4) 0.5480(3) -0.3852(6)
H4 H 1.2443 0.5371 -0.3968
C8 C 1.2763(3) 0.4953(3) -0.6225(6)
C9 C 1.2448(4) 0.5533(4) -0.6349(7)
H5 H 1.2720 0.5852 -0.6207
H6 H 1.2297 0.5567 -0.7085
H7 H 1.2126 0.5552 -0.5834
C10 C 1.2674(3) 0.4519(3) -0.7050(7)
H8 H 1.2588 0.4705 -0.7762
C11 C 1.3051(3) 0.4016(3) -0.7186(7)
C12 C 1.2983(4) 0.3639(4) -0.8208(8)
H9 H 1.2836 0.3254 -0.8007
H10 H 1.2709 0.3826 -0.8704
H11 H 1.3362 0.3598 -0.8563
C13 C 0.8805(3) 0.7256(4) 0.3126(7)
H12 H 0.9010 0.7591 0.3433
H13 H 0.8805 0.6937 0.3649
H14 H 0.8404 0.7366 0.2958
C14 C 0.9107(3) 0.7064(3) 0.2110(6)
C15 C 0.9248(3) 0.6441(3) 0.1976(6)
H15 H 0.9363 0.6268 0.2685
C16 C 0.9610(3) 0.6216(3) 0.1129(6)
C17 C 0.9792(4) 0.5592(3) 0.1158(7)
H16 H 0.9624 0.5386 0.0540
H17 H 0.9655 0.5413 0.1829
H18 H 1.0217 0.5567 0.1125
C18 C 1.0118(3) 0.6342(3) -0.0633(6)
C19 C 0.9821(3) 0.6024(3) -0.1433(7)
H19 H 0.9418 0.5944 -0.1358
C20 C 1.0126(3) 0.5826(3) -0.2345(6)
H20 H 0.9925 0.5616 -0.2888
C21 C 1.0709(3) 0.5931(3) -0.2463(7)
H21 H 1.0908 0.5796 -0.3086
C22 C 1.1013(4) 0.6240(4) -0.1656(7)
C23 C 1.0716(4) 0.6471(4) -0.0736(7)
H22 H 1.0913 0.6702 -0.0216
C24 C 1.1667(6) 0.6296(5) -0.1710(10)
O1 O 1.1954(3) 0.5993(2) -0.2487(4)
O2 O 1.3429(3) 0.3886(2) -0.6472(5)
O3 O 0.9242(2) 0.7435(3) 0.1395(5)
Ag1C Ag 0.60748(3) 0.66401(3) 0.14356(7)
Ag1A Ag 0.89252(3) 0.83599(3) 0.14356(7)
Ag1A_2 Ag 0.89252(3) -0.16401(3) 0.14356(7)
Ag1B Ag 0.66401(3) -0.10748(3) 0.14356(7)
Ag1G Ag 1.39252(3) 0.33599(3) -0.14356(7)
Ag1D Ag 1.16401(3) 0.39252(3) -0.14356(7)
Ag2C Ag 0.40135(3) 0.31154(4) -0.64338(7)
Ag2C_2 Ag 1.40135(3) 0.31154(4) -0.64338(7)
Ag2B Ag 0.31154(4) 0.09865(3) -0.64338(7)
Ag2A Ag 1.09865(3) 0.18846(4) -0.64338(7)
Ag2G Ag 1.59865(3) 0.68846(4) 0.64338(7)
Ag2F Ag 1.68846(4) 0.90135(3) 0.64338(7)
Ni1C Ni 0.68282(6) 0.28374(6) 0.07134(10)
Ni1E Ni 1.18282(6) 0.78374(6) -0.07134(10)
Ni1D Ni 0.78374(6) 0.31718(6) -0.07134(10)
Ni1B Ni 1.28374(6) 0.81718(6) 0.07134(10)
Ni1G Ni 1.31718(6) 0.71626(6) -0.07134(10)
Ni1F Ni 0.71626(6) 0.18282(6) -0.07134(10)
Ni1A Ni 0.81718(6) 0.21626(6) 0.07134(10)
N1C N 0.6831(5) 0.3074(6) -0.1438(10)
N1A N 0.8169(5) 0.1926(6) -0.1438(10)
N1G N 1.3169(5) 0.6926(6) 0.1438(10)
N1F N 0.6926(6) 0.1831(5) 0.1438(10)
N1E N 1.1831(5) 0.8074(6) 0.1438(10)
N1D N 0.8074(6) 0.3169(5) 0.1438(10)
N2C N 0.6694(5) 0.2493(6) -0.1764(10)
N2A N 0.8306(5) 0.2507(6) -0.1764(10)
N2G N 1.3306(5) 0.7507(6) 0.1764(10)
N2E N 1.1694(5) 0.7493(6) 0.1764(10)
N2D N 0.7493(6) 0.3306(5) 0.1764(10)
N2B N 1.2493(6) 0.8306(5) -0.1764(10)
N3C N 0.4858(3) 0.1860(3) -0.5417(5)
N3A N 1.0142(3) 0.3140(3) -0.5417(5)
N3G N 1.5142(3) 0.8140(3) 0.5417(5)
N4C N 0.6564(3) 0.5200(3) 0.0313(5)
N4A N 0.8436(3) -0.0200(3) 0.0313(5)
N4G N 1.3436(3) 0.4800(3) -0.0313(5)
C1C C 0.6119(4) 0.2469(6) -0.2304(8)
C1A C 0.8881(4) 0.2531(6) -0.2304(8)
C1G C 1.3881(4) 0.7531(6) 0.2304(8)
C2C C 0.5861(4) 0.2020(4) -0.3004(7)
C2A C 0.9139(4) 0.2980(4) -0.3004(7)
C2G C 1.4139(4) 0.7980(4) 0.3004(7)
C3C C 0.5997(3) 0.1422(4) -0.2800(7)
C3A C 0.9003(3) 0.3578(4) -0.2800(7)
C3G C 1.4003(3) 0.8578(4) 0.2800(7)
H1C H 0.6244 0.1321 -0.2216
H1A H 0.8756 0.3679 -0.2216
H1G H 1.3756 0.8679 0.2216
C4C C 0.5768(4) 0.0993(4) -0.3452(7)
C4A C 0.9232(4) 0.4007(4) -0.3452(7)
C4G C 1.4232(4) 0.9007(4) 0.3452(7)
H2C H 0.5857 0.0598 -0.3311
H2A H 0.9143 0.4402 -0.3311
H2G H 1.4143 0.9402 0.3311
C5C C 0.5401(3) 0.1140(4) -0.4335(7)
C5A C 0.9599(3) 0.3860(4) -0.4335(7)
C5G C 1.4599(3) 0.8860(4) 0.4335(7)
H3C H 0.5250 0.0845 -0.4792
H3A H 0.9750 0.4155 -0.4792
H3G H 1.4750 0.9155 0.4792
C6C C 0.5263(3) 0.1728(3) -0.4522(6)
C6A C 0.9737(3) 0.3272(3) -0.4522(6)
C6G C 1.4737(3) 0.8272(3) 0.4522(6)
C7C C 0.5480(3) 0.2164(4) -0.3852(6)
C7A C 0.9520(3) 0.2836(4) -0.3852(6)
C7G C 1.4520(3) 0.7836(4) 0.3852(6)
H4C H 0.5371 0.2557 -0.3968
H4A H 0.9629 0.2443 -0.3968
H4G H 1.4629 0.7443 0.3968
C8C C 0.4953(3) 0.2237(3) -0.6225(6)
C8A C 1.0047(3) 0.2763(3) -0.6225(6)
C8G C 1.5047(3) 0.7763(3) 0.6225(6)
C9C C 0.5533(4) 0.2552(4) -0.6349(7)
C9A C 0.9467(4) 0.2448(4) -0.6349(7)
C9G C 1.4467(4) 0.7448(4) 0.6349(7)
H5C H 0.5852 0.2280 -0.6207
H5A H 0.9148 0.2720 -0.6207
H5G H 1.4148 0.7720 0.6207
H6C H 0.5567 0.2703 -0.7085
H6A H 0.9433 0.2297 -0.7085
H6G H 1.4433 0.7297 0.7085
H7C H 0.5552 0.2874 -0.5834
H7A H 0.9448 0.2126 -0.5834
H7G H 1.4448 0.7126 0.5834
C10C C 0.4519(3) 0.2326(3) -0.7050(7)
C10A C 1.0481(3) 0.2674(3) -0.7050(7)
C10G C 1.5481(3) 0.7674(3) 0.7050(7)
C10C_2 C 1.4519(3) 0.2326(3) -0.7050(7)
C10B C 0.2326(3) 0.0481(3) -0.7050(7)
H8C H 0.4705 0.2412 -0.7762
H8A H 1.0295 0.2588 -0.7762
H8G H 1.5295 0.7588 0.7762
H8C_2 H 1.4705 0.2412 -0.7762
H8B H 0.2412 0.0295 -0.7762
C11C C 0.4016(3) 0.1949(3) -0.7186(7)
C11A C 1.0984(3) 0.3051(3) -0.7186(7)
C11G C 1.5984(3) 0.8051(3) 0.7186(7)
C12C C 0.3639(4) 0.2017(4) -0.8208(8)
C12A C 1.1361(4) 0.2983(4) -0.8208(8)
C12G C 1.6361(4) 0.7983(4) 0.8208(8)
H9C H 0.3254 0.2164 -0.8007
H9A H 1.1746 0.2836 -0.8007
H9G H 1.6746 0.7836 0.8007
H10C H 0.3826 0.2291 -0.8704
H10A H 1.1174 0.2709 -0.8704
H10G H 1.6174 0.7709 0.8704
H11C H 0.3598 0.1638 -0.8563
H11A H 1.1402 0.3362 -0.8563
H11G H 1.6402 0.8362 0.8563
C13C C 0.7256(4) 0.6195(3) 0.3126(7)
C13A C 0.7744(4) -0.1195(3) 0.3126(7)
C13G C 1.2744(4) 0.3805(3) -0.3126(7)
H12C H 0.7591 0.5990 0.3433
H12A H 0.7409 -0.0990 0.3433
H12G H 1.2409 0.4010 -0.3433
H13C H 0.6937 0.6195 0.3649
H13A H 0.8063 -0.1195 0.3649
H13G H 1.3063 0.3805 -0.3649
H14C H 0.7366 0.6596 0.2958
H14A H 0.7634 -0.1596 0.2958
H14G H 1.2634 0.3404 -0.2958
C14C C 0.7064(3) 0.5893(3) 0.2110(6)
C14A C 0.7936(3) -0.0893(3) 0.2110(6)
C14G C 1.2936(3) 0.4107(3) -0.2110(6)
C15C C 0.6441(3) 0.5752(3) 0.1976(6)
C15A C 0.8559(3) -0.0752(3) 0.1976(6)
C15G C 1.3559(3) 0.4248(3) -0.1976(6)
C15A_2 C 0.8559(3) 0.9248(3) 0.1976(6)
H15C H 0.6268 0.5637 0.2685
H15A H 0.8732 -0.0637 0.2685
H15G H 1.3732 0.4363 -0.2685
H15A_2 H 0.8732 0.9363 0.2685
C16C C 0.6216(3) 0.5390(3) 0.1129(6)
C16A C 0.8784(3) -0.0390(3) 0.1129(6)
C16G C 1.3784(3) 0.4610(3) -0.1129(6)
C17C C 0.5592(3) 0.5208(4) 0.1158(7)
C17A C 0.9408(3) -0.0208(4) 0.1158(7)
C17G C 1.4408(3) 0.4792(4) -0.1158(7)
H16C H 0.5386 0.5376 0.0540
H16A H 0.9614 -0.0376 0.0540
H16G H 1.4614 0.4624 -0.0540
H17C H 0.5413 0.5345 0.1829
H17A H 0.9587 -0.0345 0.1829
H17G H 1.4587 0.4655 -0.1829
H18C H 0.5567 0.4783 0.1125
H18A H 0.9433 0.0217 0.1125
H18G H 1.4433 0.5217 -0.1125
C18C C 0.6342(3) 0.4882(3) -0.0633(6)
C18A C 0.8658(3) 0.0118(3) -0.0633(6)
C18G C 1.3658(3) 0.5118(3) 0.0633(6)
C19C C 0.6024(3) 0.5179(3) -0.1433(7)
C19A C 0.8976(3) -0.0179(3) -0.1433(7)
C19G C 1.3976(3) 0.4821(3) 0.1433(7)
H19C H 0.5944 0.5582 -0.1358
H19A H 0.9056 -0.0582 -0.1358
H19G H 1.4056 0.4418 0.1358
C20C C 0.5826(3) 0.4874(3) -0.2345(6)
C20A C 0.9174(3) 0.0126(3) -0.2345(6)
C20G C 1.4174(3) 0.5126(3) 0.2345(6)
H20C H 0.5616 0.5075 -0.2888
H20A H 0.9384 -0.0075 -0.2888
H20G H 1.4384 0.4925 0.2888
C21C C 0.5931(3) 0.4291(3) -0.2463(7)
C21A C 0.9069(3) 0.0709(3) -0.2463(7)
C21G C 1.4069(3) 0.5709(3) 0.2463(7)
H21C H 0.5796 0.4092 -0.3086
H21A H 0.9204 0.0908 -0.3086
H21G H 1.4204 0.5908 0.3086
C22C C 0.6240(4) 0.3987(4) -0.1656(7)
C22A C 0.8760(4) 0.1013(4) -0.1656(7)
C22G C 1.3760(4) 0.6013(4) 0.1656(7)
C23C C 0.6471(4) 0.4284(4) -0.0736(7)
C23A C 0.8529(4) 0.0716(4) -0.0736(7)
C23G C 1.3529(4) 0.5716(4) 0.0736(7)
H22C H 0.6702 0.4087 -0.0216
H22A H 0.8298 0.0913 -0.0216
H22G H 1.3298 0.5913 0.0216
C24C C 0.6296(5) 0.3333(6) -0.1710(10)
C24A C 0.8704(5) 0.1667(6) -0.1710(10)
C24G C 1.3704(5) 0.6667(6) 0.1710(10)
O1C O 0.5993(2) 0.3046(3) -0.2487(4)
O1A O 0.9007(2) 0.1954(3) -0.2487(4)
O1G O 1.4007(2) 0.6954(3) 0.2487(4)
O2C O 0.3886(2) 0.1571(3) -0.6472(5)
O2A O 1.1114(2) 0.3429(3) -0.6472(5)
O2G O 1.6114(2) 0.8429(3) 0.6472(5)
O2_2 O 0.3429(3) 0.3886(2) -0.6472(5)
O3C O 0.7435(3) 0.5758(2) 0.1395(5)
O3A O 0.7565(3) -0.0758(2) 0.1395(5)
O3G O 1.2565(3) 0.4242(2) -0.1395(5)
O3B O 0.5758(2) 0.7565(3) 0.1395(5)
O3_2 O 0.9242(2) -0.2565(3) 0.1395(5)
F1 F 0.1454(5) 0.5072(4) -0.0503(8)
F2 F 0.1361(5) 0.5295(7) 0.1242(11)
F3 F 0.1632(4) 0.4448(4) 0.0731(9)
F4 F 0.2238(3) 0.5170(5) 0.0584(7)
B1 B 0.1660(5) 0.5034(5) 0.0543(11)
F6 F 0.2347(9) 0.3046(7) 0.4746(13)
B2 B 0.2500 0.2500 0.4423(18)
F6C F 0.3046(7) 0.2653(9) 0.4746(13)
F6B F 0.2653(9) 0.1954(7) 0.4746(13)
F6A F 0.1954(7) 0.2347(9) 0.4746(13)
F7 F 1.0146(7) 0.8541(5) 0.4621(11)
F8 F 0.9784(4) 0.9353(3) 0.3968(8)
F9 F 0.9669(4) 0.9054(5) 0.5645(7)
F10 F 0.9078(4) 0.8756(7) 0.4406(7)
B4 B 0.9663(5) 0.8874(5) 0.4507(11)
F13 F 0.7855(9) 0.7050(8) 0.0374(14)
B3 B 0.7500 0.7500 0.067(2)
F13C F 0.7050(8) 0.7145(9) 0.0374(14)
F13B F 0.7145(9) 0.7950(8) 0.0374(14)
F13A F 0.7950(8) 0.7855(9) 0.0374(14)
N5? N 0.1389(5) 0.7892(5) 0.0871(10)
N6? N 0.1262(6) 0.7323(5) 0.1278(11)
F5? F 0.2500 0.2500 0.3369(15)
F11? F 0.9683(11) 0.8500(9) 0.364(4)
F12? F 0.7500 0.7500 0.172(2)
loop_
_geom_bond_atom_site_label_1
_geom_bond_atom_site_label_2
_geom_bond_site_symmetry_1
_geom_bond_site_symmetry_2
Ag1 C15 1_555 1_555
Ag2 C10 1_555 1_555
Ni1 N1 1_555 1_555
N1 N2 1_555 1_555
N2 C1 1_555 1_555
N3 C6 1_555 1_555
N4 C16 1_555 1_555
C1 C2 1_555 1_555
C2 C3 1_555 1_555
C3 H1 1_555 1_555
C4 C3 1_555 1_555
H2 C4 1_555 1_555
C5 C4 1_555 1_555
H3 C5 1_555 1_555
C6 C5 1_555 1_555
C7 C2 1_555 1_555
H4 C7 1_555 1_555
C8 N3 1_555 1_555
C9 C8 1_555 1_555
H5 C9 1_555 1_555
H6 C9 1_555 1_555
H7 C9 1_555 1_555
C10 C8 1_555 1_555
H8 C10 1_555 1_555
C11 C10 1_555 1_555
C12 C11 1_555 1_555
H9 C12 1_555 1_555
H10 C12 1_555 1_555
H11 C12 1_555 1_555
C13 H12 1_555 1_555
H13 C13 1_555 1_555
H14 C13 1_555 1_555
C14 C13 1_555 1_555
C15 C14 1_555 1_555
H15 C15 1_555 1_555
C16 C15 1_555 1_555
C17 C16 1_555 1_555
H16 C17 1_555 1_555
H17 C17 1_555 1_555
H18 C17 1_555 1_555
C18 N4 1_555 1_555
C19 C18 1_555 1_555
H19 C19 1_555 1_555
C20 C19 1_555 1_555
H20 C20 1_555 1_555
C21 C20 1_555 1_555
H21 C21 1_555 1_555
C22 C21 1_555 1_555
C23 C18 1_555 1_555
H22 C23 1_555 1_555
C24 N1 1_555 1_555
F1 B1 1_555 1_555
F2 B1 1_555 1_555
F3 B1 1_555 1_555
F4 B1 1_555 1_555
F6 B2 1_555 1_555
F7 B4 1_555 1_555
F8 B4 1_555 1_555
F9 B4 1_555 1_555
F10 B4 1_555 1_555
F13 B3 1_555 1_555
O1 C1 1_555 1_555
O2 C11 1_555 1_555
O3 C14 1_555 1_555
B2 F6C 1_555 1_555
B3 F13C 1_555 1_555
Ag1C C15C 1_555 1_555
Ag1A O3 1_555 1_555
Ag1A_2 C15A 1_555 1_555
Ag1B O3A 1_555 1_555
Ag1G C15G 1_555 1_555
Ag1D O3G 1_555 1_555
Ag2C C10C 1_555 1_555
Ag2C_2 O2 1_555 1_555
Ag2B C10B 1_555 1_555
Ag2A C10A 1_555 1_555
Ag2G C10G 1_555 1_555
Ag2F O2G 1_555 1_555
Ni1C Ni1D 1_555 1_555
Ni1E Ni1 1_555 1_555
Ni1D Ni1F 1_555 1_555
Ni1B Ni1 1_555 1_555
Ni1G Ni1 1_555 1_555
Ni1F Ni1C 1_555 1_555
Ni1A Ni1C 1_555 1_555
N1C Ni1C 1_555 1_555
N1A Ni1F 1_555 1_555
N1G Ni1 1_555 1_555
N1F Ni1C 1_555 1_555
N1E Ni1E 1_555 1_555
N1D Ni1D 1_555 1_555
N2C Ni1F 1_555 1_555
N2A Ni1D 1_555 1_555
N2G Ni1B 1_555 1_555
N2E Ni1 1_555 1_555
N2D Ni1C 1_555 1_555
N2B Ni1E 1_555 1_555
N3C C6C 1_555 1_555
N3A C6A 1_555 1_555
N3G C6G 1_555 1_555
N4C C16C 1_555 1_555
N4A C16A 1_555 1_555
N4G C16G 1_555 1_555
C1C N2C 1_555 1_555
C1A N2A 1_555 1_555
C1G N2G 1_555 1_555
C2C C1C 1_555 1_555
C2A C1A 1_555 1_555
C2G C1G 1_555 1_555
C3C C2C 1_555 1_555
C3A C2A 1_555 1_555
C3G C2G 1_555 1_555
H1C C3C 1_555 1_555
H1A C3A 1_555 1_555
H1G C3G 1_555 1_555
C4C C3C 1_555 1_555
C4A C3A 1_555 1_555
C4G C3G 1_555 1_555
H2C C4C 1_555 1_555
H2A C4A 1_555 1_555
H2G C4G 1_555 1_555
C5C C4C 1_555 1_555
C5A C4A 1_555 1_555
C5G C4G 1_555 1_555
H3C C5C 1_555 1_555
H3A C5A 1_555 1_555
H3G C5G 1_555 1_555
C6C C5C 1_555 1_555
C6A C5A 1_555 1_555
C6G C5G 1_555 1_555
C7C C2C 1_555 1_555
C7A C2A 1_555 1_555
C7G C2G 1_555 1_555
H4C C7C 1_555 1_555
H4A C7A 1_555 1_555
H4G C7G 1_555 1_555
C8C N3C 1_555 1_555
C8A N3A 1_555 1_555
C8G N3G 1_555 1_555
C9C C8C 1_555 1_555
C9A C8A 1_555 1_555
C9G C8G 1_555 1_555
H5C C9C 1_555 1_555
H5A C9A 1_555 1_555
H5G C9G 1_555 1_555
H6C C9C 1_555 1_555
H6A C9A 1_555 1_555
H6G C9G 1_555 1_555
H7C C9C 1_555 1_555
H7A C9A 1_555 1_555
H7G C9G 1_555 1_555
C10C C8C 1_555 1_555
C10A C8A 1_555 1_555
C10G C8G 1_555 1_555
C10C_2 Ag2C_2 1_555 1_555
C10B H8B 1_555 1_555
H8C C10C 1_555 1_555
H8A C10A 1_555 1_555
H8G C10G 1_555 1_555
H8C_2 C10C_2 1_555 1_555
C11C C10C 1_555 1_555
C11A C10A 1_555 1_555
C11G C10G 1_555 1_555
C12C C11C 1_555 1_555
C12A C11A 1_555 1_555
C12G C11G 1_555 1_555
H9C C12C 1_555 1_555
H9A C12A 1_555 1_555
H9G C12G 1_555 1_555
H10C C12C 1_555 1_555
H10A C12A 1_555 1_555
H10G C12G 1_555 1_555
H11C C12C 1_555 1_555
H11A C12A 1_555 1_555
H11G C12G 1_555 1_555
C13C H12C 1_555 1_555
C13A H12A 1_555 1_555
C13G H12G 1_555 1_555
H13C C13C 1_555 1_555
H13A C13A 1_555 1_555
H13G C13G 1_555 1_555
H14C C13C 1_555 1_555
H14A C13A 1_555 1_555
H14G C13G 1_555 1_555
C14C C13C 1_555 1_555
C14A C13A 1_555 1_555
C14G C13G 1_555 1_555
C15C C14C 1_555 1_555
C15A C14A 1_555 1_555
C15G C14G 1_555 1_555
C15A_2 Ag1A 1_555 1_555
H15C C15C 1_555 1_555
H15A C15A 1_555 1_555
H15G C15G 1_555 1_555
H15A_2 C15A_2 1_555 1_555
C16C C15C 1_555 1_555
C16A C15A 1_555 1_555
C16G C15G 1_555 1_555
C17C C16C 1_555 1_555
C17A C16A 1_555 1_555
C17G C16G 1_555 1_555
H16C C17C 1_555 1_555
H16A C17A 1_555 1_555
H16G C17G 1_555 1_555
H17C C17C 1_555 1_555
H17A C17A 1_555 1_555
H17G C17G 1_555 1_555
H18C C17C 1_555 1_555
H18A C17A 1_555 1_555
H18G C17G 1_555 1_555
C18C N4C 1_555 1_555
C18A N4A 1_555 1_555
C18G N4G 1_555 1_555
C19C C18C 1_555 1_555
C19A C18A 1_555 1_555
C19G C18G 1_555 1_555
H19C C19C 1_555 1_555
H19A C19A 1_555 1_555
H19G C19G 1_555 1_555
C20C C19C 1_555 1_555
C20A C19A 1_555 1_555
C20G C19G 1_555 1_555
H20C C20C 1_555 1_555
H20A C20A 1_555 1_555
H20G C20G 1_555 1_555
C21C C20C 1_555 1_555
C21A C20A 1_555 1_555
C21G C20G 1_555 1_555
H21C C21C 1_555 1_555
H21A C21A 1_555 1_555
H21G C21G 1_555 1_555
C22C C21C 1_555 1_555
C22A C21A 1_555 1_555
C22G C21G 1_555 1_555
C23C C18C 1_555 1_555
C23A C18A 1_555 1_555
C23G C18G 1_555 1_555
H22C C23C 1_555 1_555
H22A C23A 1_555 1_555
H22G C23G 1_555 1_555
C24C N1C 1_555 1_555
C24A N1A 1_555 1_555
C24G N1G 1_555 1_555
F6B B2 1_555 1_555
F6A B2 1_555 1_555
F13B B3 1_555 1_555
F13A B3 1_555 1_555
O1C C1C 1_555 1_555
O1A C1A 1_555 1_555
O1G C1G 1_555 1_555
O2C Ag2B 1_555 1_555
O2A Ag2 1_555 1_555
O2G C11G 1_555 1_555
O2_2 Ag2C 1_555 1_555
O3C Ag1 1_555 1_555
O3A C14A 1_555 1_555
O3G C14G 1_555 1_555
O3B Ag1C 1_555 1_555
O3_2 Ag1A_2 1_555 1_555
N1 Ni1E 1_555 1_555
N2 Ni1G 1_555 1_555
C6 C7 1_555 1_555
C22 C23 1_555 1_555
C22 C24 1_555 1_555
C24 O1 1_555 1_555
Ni1E Ni1B 1_555 1_555
Ni1E Ni1G 1_555 1_555
Ni1D Ni1A 1_555 1_555
Ni1D N1C 1_555 1_555
Ni1B Ni1G 1_555 1_555
Ni1B N1E 1_555 1_555
Ni1G N1G 1_555 1_555
Ni1F Ni1A 1_555 1_555
Ni1F N1F 1_555 1_555
Ni1A N1A 1_555 1_555
Ni1A N1D 1_555 1_555
N1C N2C 1_555 1_555
N1A N2A 1_555 1_555
N1G N2G 1_555 1_555
N1E N2E 1_555 1_555
N1D N2D 1_555 1_555
C6C C7C 1_555 1_555
C6A C7A 1_555 1_555
C6G C7G 1_555 1_555
C11C O2C 1_555 1_555
C11A O2A 1_555 1_555
C14C O3C 1_555 1_555
C22C C23C 1_555 1_555
C22C C24C 1_555 1_555
C22A C23A 1_555 1_555
C22A C24A 1_555 1_555
C22G C23G 1_555 1_555
C22G C24G 1_555 1_555
C24C O1C 1_555 1_555
C24A O1A 1_555 1_555
C24G O1G 1_555 1_555

#END
