
#######################################################################
#
#                 Cambridge Crystallographic Data Centre
#                                CCDC 
#
#######################################################################
#
# If this CIF has been generated from an entry in the Cambridge 
# Structural Database, then it will include bibliographic, chemical, 
# crystal, experimental, refinement or atomic coordinate data resulting 
# from the CCDC's data processing and validation procedures.
#
#######################################################################

data_COVHAY
_symmetry_cell_setting           orthorhombic
_symmetry_space_group_name_H-M   'P 21 21 21'
_symmetry_Int_Tables_number      19
_space_group_name_Hall           'P 2ac 2ab'
loop_
_symmetry_equiv_pos_site_id
_symmetry_equiv_pos_as_xyz
1 x,y,z
2 1/2-x,-y,1/2+z
3 1/2+x,1/2-y,-z
4 -x,1/2+y,1/2-z
_cell_length_a                   10.005(3)
_cell_length_b                   18.631(6)
_cell_length_c                   19.444(6)
_cell_angle_alpha                90
_cell_angle_beta                 90
_cell_angle_gamma                90
_cell_volume                     3624.42
loop_
_atom_site_label
_atom_site_type_symbol
_atom_site_fract_x
_atom_site_fract_y
_atom_site_fract_z
O1 O 0.1430(2) 0.14844(12) 0.60260(13)
O2 O 0.0504(2) 0.13751(14) 0.70569(12)
C1 C 0.1501(4) 0.1372(2) 0.6639(2)
C2 C 1.0631(4) 0.6620(2) 0.15766(19)
C3 C 1.1819(4) 0.68130(19) 0.12638(19)
H1 H 1.2562 0.6935 0.1526
C4 C 0.9521(4) 0.6445(2) 0.1162(2)
H2 H 0.8702 0.6320 0.1354
C5 C 0.9226(5) 0.85410(18) 0.55191(19)
C6 C 0.8755(5) 0.8448(2) 0.4876(2)
H3 H 0.8290 0.8819 0.4664
C7 C 0.9914(6) 0.7970(2) 0.5833(2)
H4 H 1.0231 0.8023 0.6279
C8 C 1.0123(6) 0.7344(2) 0.5493(2)
H5 H 1.0606 0.6977 0.5701
C9 C 0.8950(7) 0.7809(2) 0.4526(2)
H6 H 0.8628 0.7760 0.4079
Cd1 Cd 0.90932(2) 0.160913(12) 0.603795(12)
O3 O 0.7498(2) 0.16132(14) 0.68659(12)
O4 O 0.6439(2) 0.16560(13) 0.58598(11)
N1 N 0.9225(3) 0.28413(14) 0.61262(15)
N2 N 0.8846(3) 1.03523(13) 0.60599(16)
N3 N 1.0826(3) 0.66441(15) 0.01539(13)
N4 N 0.9345(4) 0.39784(15) 0.59123(15)
C10 C 0.3956(3) 0.14005(16) 0.65861(16)
H7 H 0.3873 0.1576 0.6140
C11 C 0.6432(3) 0.1550(2) 0.65106(19)
C12 C 0.2827(4) 0.12191(19) 0.6950(2)
C13 C 0.5242(3) 0.13243(17) 0.68807(18)
N5 N 0.9042(4) 0.91870(15) 0.58802(15)
C14 C 0.9125(5) 0.98524(18) 0.56104(18)
H8 H 0.9355 0.9945 0.5156
C15 C 0.9099(5) 0.3210(2) 0.67354(19)
H9 H 0.8979 0.3003 0.7166
C16 C 0.9429(4) 0.46533(18) 0.5541(2)
O5 O 0.4322(3) 0.04955(18) 0.85252(15)
H10 H 0.5135 0.0455 0.8645
C17 C 0.5287(3) 0.10177(18) 0.75168(19)
H11 H 0.6127 0.0945 0.7709
C18 C 0.4245(4) 0.08143(19) 0.78843(19)
C19 C 0.9178(6) 0.3924(2) 0.66069(19)
H12 H 0.9128 0.4296 0.6924
C20 C 1.0900(7) 0.70945(19) 0.34461(19)
H13 H 1.1337 0.7434 0.3716
N6 N 0.9828(5) 0.65925(18) 0.44788(17)
C21 C 0.8662(6) 0.5836(2) 0.5318(2)
H14 H 0.8074 0.6209 0.5414
C22 C 0.9383(3) 0.33315(17) 0.56381(18)
H15 H 0.9502 0.3234 0.5173
C23 C 0.2958(4) 0.0923(2) 0.7607(2)
H16 H 0.2203 0.0798 0.7859
C24 C 1.0428(4) 0.4734(2) 0.50198(19)
H17 H 1.0990 0.4352 0.4913
C25 C 1.1881(4) 0.68215(19) 0.0536(2)
H18 H 1.2674 0.6953 0.0321
C26 C 1.0033(6) 0.6587(2) 0.3766(2)
C27 C 0.8662(5) 0.9281(2) 0.6562(2)
H19 H 0.8508 0.8925 0.6887
C28 C 0.8534(5) 0.5184(2) 0.5662(2)
H20 H 0.7839 0.5114 0.5973
C29 C 1.1098(6) 0.7092(2) 0.2764(2)
H21 H 1.1667 0.7431 0.2570
C30 C 0.9639(5) 0.6103(2) 0.2631(2)
H22 H 0.9200 0.5766 0.2361
C31 C 0.9610(6) 0.7251(2) 0.4828(2)
C32 C 0.9678(5) 0.5933(2) 0.4824(2)
C33 C 0.9697(4) 0.6466(2) 0.0467(2)
H23 H 0.8971 0.6345 0.0191
C34 C 0.9444(7) 0.6110(3) 0.3348(2)
H24 H 0.8879 0.5768 0.3541
C35 C 1.0554(5) 0.5361(2) 0.4687(2)
H25 H 1.1228 0.5417 0.4361
C36 C 0.8563(5) 0.9993(2) 0.6654(2)
H26 H 0.8332 1.0212 0.7067
C37 C 1.0468(5) 0.6588(2) 0.23336(19)
O1_2 O 1.1430(2) 0.14844(12) 0.60260(13)
O2_2 O 1.0504(2) 0.13751(14) 0.70569(12)
Cd1_2 Cd -0.09068(2) 0.160913(12) 0.603795(12)
Cd1_3 Cd 0.90932(2) 1.160913(12) 0.603795(12)
Cd1C Cd 1.09068(2) 0.660913(12) -0.103795(12)
N2_2 N 0.8846(3) 0.03523(13) 0.60599(16)
N3C N 0.9174(3) 0.16441(15) 0.48461(13)
O6 O 0.3810(4) 0.3721(3) 0.18260(19)
H27 H 0.4254 0.3565 0.2167
H28 H 0.2985 0.3632 0.1886
loop_
_geom_bond_atom_site_label_1
_geom_bond_atom_site_label_2
_geom_bond_site_symmetry_1
_geom_bond_site_symmetry_2
O1 C1 1_555 1_555
O2 C1 1_555 1_555
C1 C12 1_555 1_555
C2 C3 1_555 1_555
C3 H1 1_555 1_555
C4 C2 1_555 1_555
H2 C4 1_555 1_555
C5 C6 1_555 1_555
C6 H3 1_555 1_555
C7 C5 1_555 1_555
H4 C7 1_555 1_555
C8 C7 1_555 1_555
H5 C8 1_555 1_555
C9 C6 1_555 1_555
H6 C9 1_555 1_555
Cd1 O3 1_555 1_555
O3 C11 1_555 1_555
O4 Cd1 1_555 1_555
N1 Cd1 1_555 1_555
N2 C14 1_555 1_555
N3 C25 1_555 1_555
N4 C16 1_555 1_555
C10 H7 1_555 1_555
C11 O4 1_555 1_555
C12 C10 1_555 1_555
C13 C10 1_555 1_555
N5 C5 1_555 1_555
C14 N5 1_555 1_555
H8 C14 1_555 1_555
C15 N1 1_555 1_555
H9 C15 1_555 1_555
C16 C24 1_555 1_555
O5 H10 1_555 1_555
C17 C13 1_555 1_555
H11 C17 1_555 1_555
C18 O5 1_555 1_555
C19 N4 1_555 1_555
H12 C19 1_555 1_555
C20 H13 1_555 1_555
N6 C26 1_555 1_555
C21 H14 1_555 1_555
C22 N1 1_555 1_555
H15 C22 1_555 1_555
C23 C12 1_555 1_555
H16 C23 1_555 1_555
C24 H17 1_555 1_555
C25 C3 1_555 1_555
H18 C25 1_555 1_555
C26 C20 1_555 1_555
C27 N5 1_555 1_555
H19 C27 1_555 1_555
C28 C16 1_555 1_555
H20 C28 1_555 1_555
C29 C20 1_555 1_555
H21 C29 1_555 1_555
C30 H22 1_555 1_555
C31 C8 1_555 1_555
C32 N6 1_555 1_555
C33 C4 1_555 1_555
H23 C33 1_555 1_555
C34 C26 1_555 1_555
H24 C34 1_555 1_555
C35 C24 1_555 1_555
H25 C35 1_555 1_555
C36 N2 1_555 1_555
H26 C36 1_555 1_555
C37 C2 1_555 1_555
O6 H27 1_555 1_555
H28 O6 1_555 1_555
O1_2 Cd1 1_555 1_555
O2_2 Cd1 1_555 1_555
Cd1_2 O1 1_555 1_555
Cd1_3 N2 1_555 1_555
Cd1C N3 1_555 1_555
N2_2 Cd1 1_555 1_555
N3C Cd1 1_555 1_555
O2 Cd1_2 1_555 1_555
C9 C31 1_555 1_555
N3 C33 1_555 1_555
N4 C22 1_555 1_555
C11 C13 1_555 1_555
C15 C19 1_555 1_555
C17 C18 1_555 1_555
C18 C23 1_555 1_555
N6 C31 1_555 1_555
C21 C28 1_555 1_555
C21 C32 1_555 1_555
C27 C36 1_555 1_555
C29 C37 1_555 1_555
C30 C34 1_555 1_555
C30 C37 1_555 1_555
C32 C35 1_555 1_555

#END
