
#######################################################################
#
#                 Cambridge Crystallographic Data Centre
#                                CCDC 
#
#######################################################################
#
# If this CIF has been generated from an entry in the Cambridge 
# Structural Database, then it will include bibliographic, chemical, 
# crystal, experimental, refinement or atomic coordinate data resulting 
# from the CCDC's data processing and validation procedures.
#
#######################################################################

data_COVJEE
_symmetry_cell_setting           monoclinic
_symmetry_space_group_name_H-M   'P 21/c'
_symmetry_Int_Tables_number      14
_space_group_name_Hall           '-P 2ybc'
loop_
_symmetry_equiv_pos_site_id
_symmetry_equiv_pos_as_xyz
1 x,y,z
2 -x,1/2+y,1/2-z
3 -x,-y,-z
4 x,1/2-y,1/2+z
_cell_length_a                   9.1709(4)
_cell_length_b                   11.7306(4)
_cell_length_c                   12.9958(4)
_cell_angle_alpha                90
_cell_angle_beta                 96.400(3)
_cell_angle_gamma                90
_cell_volume                     1389.38
loop_
_atom_site_label
_atom_site_type_symbol
_atom_site_fract_x
_atom_site_fract_y
_atom_site_fract_z
Zn1 Zn 0.5000 0.5000 0.5000
Zn2 Zn 0.63816(7) 0.38220(6) 0.29479(5)
N1 N 0.8790(5) 0.3837(4) -0.0416(4)
C1 C 0.8238(6) 0.3021(5) -0.1052(4)
H1 H 0.8563 0.3017 -0.1705
N2 N 0.7285(5) 0.2210(4) -0.0881(3)
C2 C 0.6873(6) 0.2258(5) 0.0092(4)
C3 C 0.7317(6) 0.3096(5) 0.0805(4)
C4 C 0.8340(6) 0.3927(5) 0.0544(4)
N3 N 0.8908(6) 0.4741(4) 0.1163(4)
H2 H 0.9547 0.5199 0.0956
H3 H 0.8640 0.4814 0.1773
N4 N 0.6640(5) 0.2902(4) 0.1690(3)
C5 C 0.5875(6) 0.1939(5) 0.1469(4)
H4 H 0.5325 0.1595 0.1942
N5 N 0.5957(5) 0.1505(4) 0.0519(4)
O1 O 0.7011(4) 0.5673(4) 0.4550(3)
O2 O 0.7759(5) 0.5102(4) 0.3068(3)
C6 C 0.7857(7) 0.5728(5) 0.3867(5)
C7 C 0.9095(7) 0.6588(6) 0.3981(6)
H5 H 0.9648 0.6530 0.3398
H6 H 0.9725 0.6436 0.4606
H7 H 0.8696 0.7342 0.4010
O3 O 0.4520(4) 0.4274(3) 0.3442(3)
O4 O 0.347(2) 0.3153(15) 0.2256(13)
C8 C 0.3357(11) 0.3933(9) 0.2904(8)
C9 C 0.1910(13) 0.4412(14) 0.3010(12)
H8 H 0.1249 0.3809 0.3147
H9 H 0.1543 0.4793 0.2380
H10 H 0.1986 0.4946 0.3573
Zn2B Zn 0.36184(7) 0.61780(6) 0.70521(5)
N1B N 0.1210(5) 0.6163(4) 1.0416(4)
C1B C 0.1762(6) 0.6979(5) 1.1052(4)
H1B H 0.1437 0.6983 1.1705
N2B N 0.2715(5) 0.7790(4) 1.0881(3)
C2B C 0.3127(6) 0.7742(5) 0.9908(4)
C3B C 0.2683(6) 0.6904(5) 0.9195(4)
C4B C 0.1660(6) 0.6073(5) 0.9456(4)
N3B N 0.1092(6) 0.5259(4) 0.8837(4)
H2B H 0.0453 0.4801 0.9044
H3B H 0.1360 0.5186 0.8227
N4B N 0.3360(5) 0.7098(4) 0.8310(3)
C5B C 0.4125(6) 0.8061(5) 0.8531(4)
H4B H 0.4675 0.8405 0.8058
N5B N 0.4043(5) 0.8495(4) 0.9481(4)
O1B O 0.2989(4) 0.4327(4) 0.5450(3)
O2B O 0.2241(5) 0.4898(4) 0.6932(3)
C6B C 0.2143(7) 0.4272(5) 0.6133(5)
C7B C 0.0905(7) 0.3412(6) 0.6019(6)
H5B H 0.0352 0.3470 0.6602
H6B H 0.0275 0.3564 0.5394
H7B H 0.1304 0.2658 0.5990
O3B O 0.5480(4) 0.5726(3) 0.6558(3)
O4B O 0.653(2) 0.6847(15) 0.7744(13)
C8B C 0.6643(11) 0.6067(9) 0.7096(8)
C9B C 0.8090(13) 0.5588(14) 0.6990(12)
H8B H 0.8751 0.6191 0.6853
H9B H 0.8457 0.5207 0.7620
H10B H 0.8014 0.5054 0.6427
Zn1A Zn 0.5000 0.0000 0.0000
Zn1A_2 Zn 0.5000 1.0000 1.0000
Zn2A Zn 0.36184(7) 0.88220(6) 1.20521(5)
Zn2C Zn 0.63816(7) 0.11780(6) -0.20521(5)
N2A N 0.2715(5) 0.7210(4) 0.5881(3)
N2C N 0.7285(5) 0.2790(4) 0.4119(3)
N5A N 0.4043(5) 0.6505(4) 0.4481(4)
N5C N 0.5957(5) 0.3495(4) 0.5519(4)
O5 O 0.5297(14) 0.5236(10) 0.1504(10)
O6 O 0.342(2) 0.1533(16) 0.4916(14)
O7? O 0.3625(10) 0.2571(8) 0.3030(7)
C10? C 0.3436(10) 0.3609(8) 0.3210(4)
C11? C 0.1927(12) 0.4026(13) 0.3145(11)
H11? H 0.1579 0.4189 0.2436
H12? H 0.1896 0.4709 0.3550
H13? H 0.1314 0.3456 0.3407
O8? O 0.526(2) 0.5388(18) 0.0513(16)
loop_
_geom_bond_atom_site_label_1
_geom_bond_atom_site_label_2
_geom_bond_site_symmetry_1
_geom_bond_site_symmetry_2
Zn1 O1 1_555 1_555
Zn2 N4 1_555 1_555
N1 C1 1_555 1_555
C1 H1 1_555 1_555
N2 C1 1_555 1_555
C2 N2 1_555 1_555
C3 C2 1_555 1_555
C4 N1 1_555 1_555
N3 C4 1_555 1_555
H2 N3 1_555 1_555
H3 N3 1_555 1_555
N4 C3 1_555 1_555
C5 N4 1_555 1_555
H4 C5 1_555 1_555
N5 C2 1_555 1_555
O1 C6 1_555 1_555
O2 Zn2 1_555 1_555
C6 O2 1_555 1_555
C7 C6 1_555 1_555
H5 C7 1_555 1_555
H6 C7 1_555 1_555
H7 C7 1_555 1_555
O3 Zn1 1_555 1_555
O4 C8 1_555 1_555
C8 O3 1_555 1_555
C9 C8 1_555 1_555
H8 C9 1_555 1_555
H9 C9 1_555 1_555
H10 C9 1_555 1_555
Zn2B N4B 1_555 1_555
N1B C1B 1_555 1_555
C1B H1B 1_555 1_555
N2B C1B 1_555 1_555
C2B N2B 1_555 1_555
C3B C2B 1_555 1_555
C4B N1B 1_555 1_555
N3B C4B 1_555 1_555
H2B N3B 1_555 1_555
H3B N3B 1_555 1_555
N4B C3B 1_555 1_555
C5B N4B 1_555 1_555
H4B C5B 1_555 1_555
N5B C2B 1_555 1_555
O1B Zn1 1_555 1_555
O2B Zn2B 1_555 1_555
C6B O1B 1_555 1_555
C7B C6B 1_555 1_555
H5B C7B 1_555 1_555
H6B C7B 1_555 1_555
H7B C7B 1_555 1_555
O3B Zn1 1_555 1_555
O4B C8B 1_555 1_555
C8B O3B 1_555 1_555
C9B C8B 1_555 1_555
H8B C9B 1_555 1_555
H9B C9B 1_555 1_555
H10B C9B 1_555 1_555
Zn1A N5 1_555 1_555
Zn1A_2 N5B 1_555 1_555
Zn2A N2B 1_555 1_555
Zn2C N2 1_555 1_555
N2A Zn2B 1_555 1_555
N2C Zn2 1_555 1_555
N5A Zn1 1_555 1_555
N5C Zn1 1_555 1_555
Zn2 O3 1_555 1_555
C3 C4 1_555 1_555
C5 N5 1_555 1_555
Zn2B O3B 1_555 1_555
C3B C4B 1_555 1_555
C5B N5B 1_555 1_555
O2B C6B 1_555 1_555

#END
