
#######################################################################
#
#                 Cambridge Crystallographic Data Centre
#                                CCDC 
#
#######################################################################
#
# If this CIF has been generated from an entry in the Cambridge 
# Structural Database, then it will include bibliographic, chemical, 
# crystal, experimental, refinement or atomic coordinate data resulting 
# from the CCDC's data processing and validation procedures.
#
#######################################################################

data_COVJII
_symmetry_cell_setting           triclinic
_symmetry_space_group_name_H-M   'P -1'
_symmetry_Int_Tables_number      2
_space_group_name_Hall           '-P 1'
loop_
_symmetry_equiv_pos_site_id
_symmetry_equiv_pos_as_xyz
1 x,y,z
2 -x,-y,-z
_cell_length_a                   10.187(2)
_cell_length_b                   10.273(2)
_cell_length_c                   13.401(3)
_cell_angle_alpha                69.65(3)
_cell_angle_beta                 69.66(3)
_cell_angle_gamma                70.61(3)
_cell_volume                     1196.83
loop_
_atom_site_label
_atom_site_type_symbol
_atom_site_fract_x
_atom_site_fract_y
_atom_site_fract_z
Ni1 Ni 0.18022(16) 0.67625(16) 0.20375(12)
O1 O 0.9843(7) 0.6451(7) 0.2996(6)
O2 O 0.4245(7) 0.6625(8) 0.1826(6)
N1 N 0.2318(8) 0.7564(9) 0.0291(7)
N2 N 0.3681(9) 0.3952(9) -0.0010(8)
H1 H 0.4014 0.3924 -0.0689
N3 N 0.1093(9) 0.9091(9) 0.1742(7)
O3 O 0.2559(8) 0.6532(8) 0.3400(6)
N4 N 0.2620(9) 0.4837(9) 0.1465(8)
N5 N 0.0999(9) 1.1253(9) 0.0472(8)
H2 H 0.1126 1.1885 -0.0152
C1 C 0.7385(11) 0.6634(11) 0.3178(9)
C2 C 0.4936(11) 0.6615(11) 0.3348(9)
C3 C 0.6367(11) 0.6567(10) 0.2727(9)
H3 H 0.6645 0.6489 0.2008
C4 C 0.2922(11) 0.3366(12) 0.1827(10)
C5 C 0.3864(12) 0.6549(11) 0.2837(9)
C6 C 0.0399(11) 1.0171(12) 0.2291(9)
C7 C 0.4524(12) 0.6744(11) 0.4420(9)
H4 H 0.3568 0.6798 0.4827
O4 O 0.5121(9) 0.6899(11) 0.5947(7)
H5 H 0.4408 0.7564 0.6027
C8 C 0.2944(11) 0.6621(12) -0.0314(9)
C9 C 0.2086(11) 0.9006(12) -0.0152(9)
C10 C 0.3634(11) 0.2807(12) 0.0903(10)
C11 C 0.3092(11) 0.5140(11) 0.0373(9)
C12 C 0.3383(11) 0.7079(12) -0.1467(9)
H6 H 0.3819 0.6425 -0.1892
C13 C 0.1396(11) 0.9793(12) 0.0641(9)
C14 C -0.0269(11) 1.2833(13) 0.1795(10)
H7 H -0.0285 1.3722 0.1285
C15 C 0.2473(11) 0.9521(12) -0.1299(9)
H8 H 0.2296 1.0498 -0.1637
C16 C 0.3825(13) 0.0528(14) 0.2030(12)
H9 H 0.4180 -0.0453 0.2118
C17 C 0.6954(12) 0.6751(12) 0.4268(9)
H10 H 0.7623 0.6801 0.4573
C18 C 0.4070(12) 0.1324(13) 0.1004(11)
H11 H 0.4494 0.0940 0.0400
C19 C -0.0850(12) 1.2647(12) 0.2931(10)
H12 H -0.1295 1.3459 0.3192
C20 C 0.3151(11) 0.8500(12) -0.1941(9)
H13 H 0.3440 0.8825 -0.2705
C21 C 0.0353(11) 1.1506(12) 0.1504(10)
C22 C -0.0203(11) 1.0042(13) 0.3449(10)
H14 H -0.0178 0.9163 0.3973
C23 C -0.0801(12) 1.1285(12) 0.3715(10)
H15 H -0.1211 1.1262 0.4457
C24 C 0.2661(11) 0.2439(12) 0.2914(10)
H16 H 0.2222 0.2792 0.3533
C25 C 0.3106(13) 0.0957(14) 0.2998(11)
H17 H 0.2926 0.0290 0.3677
C26 C 0.5520(12) 0.6794(12) 0.4898(9)
O5 O 0.9200(7) 0.6759(8) 0.1485(6)
C27 C 0.8927(12) 0.6615(11) 0.2484(10)
Ni1_2 Ni 1.18022(16) 0.67625(16) 0.20375(12)
O1_2 O -0.0157(7) 0.6451(7) 0.2996(6)
O6 O 1.0051(14) 0.3678(14) 0.4725(11)
H18 H 0.9280 0.3662 0.5244
H19 H 0.9937 0.4484 0.4252
loop_
_geom_bond_atom_site_label_1
_geom_bond_atom_site_label_2
_geom_bond_site_symmetry_1
_geom_bond_site_symmetry_2
Ni1 O2 1_555 1_555
O1 C27 1_555 1_555
O2 C5 1_555 1_555
N1 Ni1 1_555 1_555
N2 H1 1_555 1_555
N3 Ni1 1_555 1_555
O3 Ni1 1_555 1_555
N4 Ni1 1_555 1_555
N5 H2 1_555 1_555
C1 C3 1_555 1_555
C2 C3 1_555 1_555
C3 H3 1_555 1_555
C4 N4 1_555 1_555
C5 O3 1_555 1_555
C6 N3 1_555 1_555
C7 C2 1_555 1_555
H4 C7 1_555 1_555
O4 H5 1_555 1_555
C8 N1 1_555 1_555
C9 N1 1_555 1_555
C10 N2 1_555 1_555
C11 N2 1_555 1_555
C12 C8 1_555 1_555
H6 C12 1_555 1_555
C13 N3 1_555 1_555
C14 H7 1_555 1_555
C15 C9 1_555 1_555
H8 C15 1_555 1_555
C16 H9 1_555 1_555
C17 C1 1_555 1_555
H10 C17 1_555 1_555
C18 C10 1_555 1_555
H11 C18 1_555 1_555
C19 C14 1_555 1_555
H12 C19 1_555 1_555
C20 C12 1_555 1_555
H13 C20 1_555 1_555
C21 N5 1_555 1_555
C22 C6 1_555 1_555
H14 C22 1_555 1_555
C23 C19 1_555 1_555
H15 C23 1_555 1_555
C24 C4 1_555 1_555
H16 C24 1_555 1_555
C25 C16 1_555 1_555
H17 C25 1_555 1_555
C26 C7 1_555 1_555
O5 C27 1_555 1_555
C27 C1 1_555 1_555
O6 H18 1_555 1_555
H19 O6 1_555 1_555
Ni1_2 O1 1_555 1_555
O1_2 Ni1 1_555 1_555
N4 C11 1_555 1_555
N5 C13 1_555 1_555
C2 C5 1_555 1_555
C4 C10 1_555 1_555
C6 C21 1_555 1_555
O4 C26 1_555 1_555
C8 C11 1_555 1_555
C9 C13 1_555 1_555
C14 C21 1_555 1_555
C15 C20 1_555 1_555
C16 C18 1_555 1_555
C17 C26 1_555 1_555
C22 C23 1_555 1_555
C24 C25 1_555 1_555

#END
