
#######################################################################
#
#                 Cambridge Crystallographic Data Centre
#                                CCDC 
#
#######################################################################
#
# If this CIF has been generated from an entry in the Cambridge 
# Structural Database, then it will include bibliographic, chemical, 
# crystal, experimental, refinement or atomic coordinate data resulting 
# from the CCDC's data processing and validation procedures.
#
#######################################################################

data_COVJAA
_symmetry_cell_setting           tetragonal
_symmetry_space_group_name_H-M   'I 41/a'
_symmetry_Int_Tables_number      88
_space_group_name_Hall           '-I 4ad'
loop_
_symmetry_equiv_pos_site_id
_symmetry_equiv_pos_as_xyz
1 x,y,z
2 -x,1/2-y,z
3 3/4-y,1/4+x,1/4+z
4 1/4+y,1/4-x,1/4+z
5 1/2+x,1/2+y,1/2+z
6 1/2-x,-y,1/2+z
7 1/4-y,3/4+x,3/4+z
8 3/4+y,3/4-x,3/4+z
9 -x,-y,-z
10 x,1/2+y,-z
11 1/4+y,3/4-x,3/4-z
12 3/4-y,3/4+x,3/4-z
13 1/2-x,1/2-y,1/2-z
14 1/2+x,y,1/2-z
15 3/4+y,1/4-x,1/4-z
16 1/4-y,1/4+x,1/4-z
_cell_length_a                   15.1973(5)
_cell_length_b                   15.1973(5)
_cell_length_c                   22.1529(8)
_cell_angle_alpha                90
_cell_angle_beta                 90
_cell_angle_gamma                90
_cell_volume                     5116.39
loop_
_atom_site_label
_atom_site_type_symbol
_atom_site_fract_x
_atom_site_fract_y
_atom_site_fract_z
Ni1 Ni 0.96096(9) 0.01341(10) 0.05785(6)
N1 N 0.8800(7) -0.0342(6) 0.2846(4)
C1 C 0.8343(7) 0.0325(7) 0.3064(4)
H1 H 0.8183 0.0288 0.3468
N2 N 0.8079(5) 0.1060(5) 0.2763(3)
C2 C 0.8368(5) 0.1070(5) 0.2179(3)
C3 C 0.8834(5) 0.0373(5) 0.1900(3)
C4 C 0.9048(8) -0.0344(7) 0.2255(5)
N3 N 0.9501(10) -0.1037(7) 0.2046(5)
H2 H 0.9628 -0.1466 0.2283
H3 H 0.9664 -0.1052 0.1674
N4 N 0.9011(4) 0.0639(4) 0.1320(3)
C5 C 0.8668(6) 0.1430(6) 0.1288(4)
H4 H 0.8692 0.1764 0.0937
N5 N 0.8283(4) 0.1729(4) 0.1791(3)
O1 O 0.9235(5) 0.1098(5) -0.0001(3)
O2 O 0.9832(4) 0.0982(4) -0.0892(3)
C6 C 0.9330(5) 0.1334(5) -0.0531(4)
C7 C 0.8766(7) 0.2073(6) -0.0766(6)
H5 H 0.9133 0.2505 -0.0968
H6 H 0.8470 0.2361 -0.0433
C8 C 0.8039(11) 0.1689(11) -0.1240(12)
H7 H 0.8287 0.1252 -0.1510
H8 H 0.7760 0.2152 -0.1472
C9 C 0.7318(15) 0.1220(12) -0.0707(10)
H9 H 0.7136 0.0649 -0.0844
H10 H 0.6812 0.1591 -0.0660
H11 H 0.7615 0.1164 -0.0326
Ni1B Ni 0.73659(10) 0.21096(9) 0.30785(6)
Ni1H Ni 1.03904(9) -0.01341(10) -0.05785(6)
Ni1N Ni 0.76341(10) 0.28904(9) 0.19215(6)
N2G N 0.8560(5) -0.0579(5) 0.0263(3)
N5O N 1.0771(4) 0.0783(4) 0.0709(3)
O2H O 1.0168(4) -0.0982(4) 0.0892(3)
loop_
_geom_bond_atom_site_label_1
_geom_bond_atom_site_label_2
_geom_bond_site_symmetry_1
_geom_bond_site_symmetry_2
Ni1 N4 1_555 1_555
N1 C1 1_555 1_555
C1 H1 1_555 1_555
N2 C1 1_555 1_555
C2 N2 1_555 1_555
C3 C2 1_555 1_555
C4 N1 1_555 1_555
N3 C4 1_555 1_555
H2 N3 1_555 1_555
H3 N3 1_555 1_555
N4 C3 1_555 1_555
C5 N4 1_555 1_555
H4 C5 1_555 1_555
N5 C2 1_555 1_555
O1 Ni1 1_555 1_555
O2 C6 1_555 1_555
C6 O1 1_555 1_555
C7 C6 1_555 1_555
H5 C7 1_555 1_555
H6 C7 1_555 1_555
C8 C7 1_555 1_555
H7 C8 1_555 1_555
H8 C8 1_555 1_555
C9 C8 1_555 1_555
H9 C9 1_555 1_555
H10 C9 1_555 1_555
H11 C9 1_555 1_555
Ni1B N2 1_555 1_555
Ni1H Ni1 1_555 1_555
Ni1N N5 1_555 1_555
N2G Ni1 1_555 1_555
N5O Ni1 1_555 1_555
O2H Ni1 1_555 1_555
C3 C4 1_555 1_555
C5 N5 1_555 1_555
O2 Ni1H 1_555 1_555
Ni1B Ni1N 1_555 1_555

#END
