
#######################################################################
#
#                 Cambridge Crystallographic Data Centre
#                                CCDC 
#
#######################################################################
#
# If this CIF has been generated from an entry in the Cambridge 
# Structural Database, then it will include bibliographic, chemical, 
# crystal, experimental, refinement or atomic coordinate data resulting 
# from the CCDC's data processing and validation procedures.
#
#######################################################################

data_COVLOP
_symmetry_cell_setting           monoclinic
_symmetry_space_group_name_H-M   'P 21/a'
_symmetry_Int_Tables_number      14
_space_group_name_Hall           '-P 2yab'
loop_
_symmetry_equiv_pos_site_id
_symmetry_equiv_pos_as_xyz
1 x,y,z
2 1/2-x,1/2+y,-z
3 -x,-y,-z
4 1/2+x,1/2-y,z
_cell_length_a                   15.1261(10)
_cell_length_b                   13.8609(14)
_cell_length_c                   16.2413(19)
_cell_angle_alpha                90
_cell_angle_beta                 96.761(8)
_cell_angle_gamma                90
_cell_volume                     3381.49
loop_
_atom_site_label
_atom_site_type_symbol
_atom_site_fract_x
_atom_site_fract_y
_atom_site_fract_z
C1 C 0.4517(2) 0.0536(2) 0.72213(19)
C2 C 0.5545(2) 0.0623(3) 0.8823(2)
C3 C 0.6956(2) -0.0533(3) 0.8249(3)
C4 C 0.6296(2) 0.1251(3) 0.7376(2)
C5 C 0.3493(2) 0.3605(3) 0.6415(2)
H1 H 0.4100 0.3643 0.6279
C6 C 0.4114(2) 0.3137(3) 0.7808(2)
H3 H 0.4569 0.2631 0.7827
C7 C 0.4591(3) 0.4102(3) 0.7912(2)
H4 H 0.4160 0.4623 0.7853
H5 H 0.4986 0.4177 0.7487
C8 C 0.5126(3) 0.4146(4) 0.8767(3)
H6 H 0.5597 0.3668 0.8801
H7 H 0.5400 0.4777 0.8848
C9 C 0.4540(3) 0.3961(3) 0.9450(3)
H8 H 0.4901 0.3981 0.9984
H9 H 0.4094 0.4465 0.9442
C10 C 0.4081(3) 0.2987(3) 0.9341(2)
H10 H 0.4522 0.2477 0.9393
H11 H 0.3693 0.2897 0.9770
C11 C 0.3542(2) 0.2937(3) 0.8497(2)
H12 H 0.3084 0.3439 0.8475
C12 C 0.3039(2) 0.1320(3) 0.8792(2)
H13 H 0.2746 0.1589 0.9240
C13 C 0.2630(2) 0.0401(3) 0.8610(2)
C14 C 0.2757(3) -0.0321(3) 0.9213(3)
H15 H 0.3081 -0.0181 0.9721
C15 C 0.2417(3) -0.1232(3) 0.9073(3)
H16 H 0.2525 -0.1712 0.9473
C16 C 0.1911(3) -0.1422(3) 0.8325(3)
H17 H 0.1673 -0.2036 0.8228
C17 C 0.1748(2) -0.0727(3) 0.7721(3)
H18 H 0.1396 -0.0874 0.7229
C18 C 0.2108(2) 0.0196(2) 0.7842(2)
N1 N 0.38564(19) 0.0879(2) 0.69703(18)
N2 N 0.5439(3) 0.0988(3) 0.9431(2)
N3 N 0.7611(3) -0.0822(3) 0.8548(3)
N4 N 0.6604(2) 0.1965(2) 0.7212(2)
C19 C 0.6129(3) -0.0449(3) 0.5931(2)
H19 H 0.6398 0.0154 0.5926
C20 C 0.6062(3) -0.1014(3) 0.5231(3)
H20 H 0.6280 -0.0801 0.4751
C21 C 0.5666(3) -0.1895(3) 0.5261(3)
H21 H 0.5606 -0.2279 0.4788
C22 C 0.5446(2) -0.1638(2) 0.6597(2)
C23 C 0.5078(2) -0.1954(2) 0.7363(2)
C24 C 0.4367(3) -0.3039(3) 0.8081(3)
H22 H 0.4096 -0.3637 0.8119
C25 C 0.4388(3) -0.2417(3) 0.8735(3)
H23 H 0.4141 -0.2587 0.9213
C26 C 0.4780(2) -0.1543(3) 0.8669(2)
H24 H 0.4806 -0.1110 0.9108
C27 C 0.2413(2) 0.2683(3) 0.5411(2)
C28 C 0.1957(2) 0.2642(3) 0.4609(2)
H25 H 0.1615 0.2104 0.4441
C29 C 0.2013(3) 0.3398(4) 0.4069(2)
H26 H 0.1707 0.3357 0.3539
C30 C 0.2509(3) 0.4216(3) 0.4285(3)
H27 H 0.2527 0.4723 0.3913
C31 C 0.2970(2) 0.4263(3) 0.5059(2)
H28 H 0.3313 0.4806 0.5208
C32 C 0.2938(2) 0.3511(3) 0.5637(2)
Cr1 Cr 0.57368(3) -0.00038(4) 0.77274(3)
Mn1 Mn 0.26719(3) 0.19107(3) 0.70702(3)
N5 N 0.58111(17) -0.0759(2) 0.66252(17)
N6 N 0.5359(2) -0.2224(2) 0.59485(19)
N7 N 0.51349(17) -0.12950(19) 0.79700(16)
N8 N 0.4722(2) -0.2819(2) 0.7386(2)
N9 N 0.35099(17) 0.3016(2) 0.70232(17)
N10 N 0.30907(17) 0.2010(2) 0.82776(17)
O3 O 0.23507(15) 0.19332(17) 0.59143(14)
O4 O 0.19477(14) 0.08450(16) 0.72415(14)
N4C N 0.1604(2) 0.3035(2) 0.7212(2)
Mn1C Mn 0.76719(3) 0.30893(3) 0.70702(3)
O1 O 0.04646(18) 0.1141(2) 0.56713(19)
O2 O -0.0288(2) -0.0642(2) 0.60259(19)
H2? H 0.3358 0.4233 0.6633
H14? H 0.3646 0.1183 0.9025
loop_
_geom_bond_atom_site_label_1
_geom_bond_atom_site_label_2
_geom_bond_site_symmetry_1
_geom_bond_site_symmetry_2
C1 N1 1_555 1_555
C2 N2 1_555 1_555
C3 N3 1_555 1_555
C4 N4 1_555 1_555
C5 H1 1_555 1_555
C6 H3 1_555 1_555
C7 C6 1_555 1_555
H4 C7 1_555 1_555
H5 C7 1_555 1_555
C8 C7 1_555 1_555
H6 C8 1_555 1_555
H7 C8 1_555 1_555
C9 C8 1_555 1_555
H8 C9 1_555 1_555
H9 C9 1_555 1_555
C10 C9 1_555 1_555
H10 C10 1_555 1_555
H11 C10 1_555 1_555
C11 C6 1_555 1_555
H12 C11 1_555 1_555
C12 H13 1_555 1_555
C13 C12 1_555 1_555
C14 C13 1_555 1_555
H15 C14 1_555 1_555
C15 C14 1_555 1_555
H16 C15 1_555 1_555
C16 C15 1_555 1_555
H17 C16 1_555 1_555
C17 C16 1_555 1_555
H18 C17 1_555 1_555
C18 C13 1_555 1_555
N1 Mn1 1_555 1_555
N4 Mn1C 1_555 1_555
C19 H19 1_555 1_555
C20 C19 1_555 1_555
H20 C20 1_555 1_555
C21 C20 1_555 1_555
H21 C21 1_555 1_555
C22 C23 1_555 1_555
C23 N7 1_555 1_555
C24 H22 1_555 1_555
C25 C24 1_555 1_555
H23 C25 1_555 1_555
C26 C25 1_555 1_555
H24 C26 1_555 1_555
C27 C28 1_555 1_555
C28 H25 1_555 1_555
C29 C28 1_555 1_555
H26 C29 1_555 1_555
C30 C29 1_555 1_555
H27 C30 1_555 1_555
C31 C30 1_555 1_555
H28 C31 1_555 1_555
C32 C5 1_555 1_555
Cr1 C1 1_555 1_555
Mn1 N9 1_555 1_555
N5 C19 1_555 1_555
N6 C21 1_555 1_555
N7 C26 1_555 1_555
N8 C23 1_555 1_555
N9 C5 1_555 1_555
N10 C11 1_555 1_555
O3 C27 1_555 1_555
O4 C18 1_555 1_555
N4C Mn1 1_555 1_555
C2 Cr1 1_555 1_555
C3 Cr1 1_555 1_555
C4 Cr1 1_555 1_555
C6 N9 1_555 1_555
C10 C11 1_555 1_555
C12 N10 1_555 1_555
C17 C18 1_555 1_555
C22 N5 1_555 1_555
C22 N6 1_555 1_555
C24 N8 1_555 1_555
C27 C32 1_555 1_555
C31 C32 1_555 1_555
Cr1 N5 1_555 1_555
Cr1 N7 1_555 1_555
Mn1 N10 1_555 1_555
Mn1 O3 1_555 1_555
Mn1 O4 1_555 1_555

#END
