
#######################################################################
#
#                 Cambridge Crystallographic Data Centre
#                                CCDC 
#
#######################################################################
#
# If this CIF has been generated from an entry in the Cambridge 
# Structural Database, then it will include bibliographic, chemical, 
# crystal, experimental, refinement or atomic coordinate data resulting 
# from the CCDC's data processing and validation procedures.
#
#######################################################################

data_COVNUY
_symmetry_cell_setting           triclinic
_symmetry_space_group_name_H-M   'P -1'
_symmetry_Int_Tables_number      2
_space_group_name_Hall           '-P 1'
loop_
_symmetry_equiv_pos_site_id
_symmetry_equiv_pos_as_xyz
1 x,y,z
2 -x,-y,-z
_cell_length_a                   9.435(5)
_cell_length_b                   12.241(6)
_cell_length_c                   13.666(6)
_cell_angle_alpha                93.547(8)
_cell_angle_beta                 94.396(8)
_cell_angle_gamma                94.366(9)
_cell_volume                     1565.49
loop_
_atom_site_label
_atom_site_type_symbol
_atom_site_fract_x
_atom_site_fract_y
_atom_site_fract_z
Cu1 Cu 0.39427(4) 0.55187(3) 1.04150(3)
Cu2 Cu 1.08645(4) 0.93950(3) 0.60200(3)
O1 O 0.5371(3) 0.5914(2) 1.15485(18)
N1 N 0.2299(3) 0.6368(2) 1.1045(2)
O2 O 0.4768(3) 0.6778(2) 0.9755(2)
O3 O 0.9242(3) 0.9767(3) 0.6717(2)
N2 N 1.2573(4) 0.8801(3) 0.5545(3)
C1 C 0.6590(4) 0.5601(3) 1.1534(2)
C2 C 0.7769(4) 0.8805(3) 0.7755(3)
C3 C 0.7636(3) 0.5919(3) 1.2408(2)
C4 C 0.7435(4) 0.7857(3) 0.8225(2)
H1 H 0.8021 0.7280 0.8196
N3 N 0.0583(3) 0.7435(3) 1.1307(2)
C5 C 0.7629(3) 0.6931(3) 1.2916(2)
H2 H 0.6937 0.7404 1.2749
C6 C 0.6217(4) 0.7774(3) 0.8741(3)
C7 C 0.6884(4) 0.9651(3) 0.7786(3)
H3 H 0.7106 1.0272 0.7451
C8 C 0.8669(4) 0.7230(3) 1.3680(2)
C9 C 0.9072(4) 0.8917(3) 0.7190(3)
C10 C 0.8673(4) 0.5220(3) 1.2662(3)
H4 H 0.8691 0.4556 1.2296
C11 C -0.0266(4) 0.9078(3) 1.0528(3)
C12 C 0.5792(4) 0.6742(3) 0.9224(2)
C13 C 0.1100(4) 0.6712(3) 1.0665(3)
C14 C 0.5361(4) 0.8643(3) 0.8780(3)
H5 H 0.4558 0.8589 0.9133
C15 C 0.1495(4) 0.7551(3) 1.2133(3)
H6 H 0.1417 0.7999 1.2698
N4 N 1.4530(4) 0.7980(3) 0.5414(3)
C16 C 1.3378(4) 0.8082(3) 0.5942(3)
C17 C 1.5321(4) 0.6101(3) 0.5301(3)
C18 C 0.9652(4) 0.6495(4) 1.3943(3)
H7 H 1.0315 0.6689 1.4476
C19 C 0.2536(4) 0.6883(3) 1.1966(3)
H8 H 0.3304 0.6787 1.2412
C20 C 0.9681(4) 0.5489(4) 1.3445(3)
C21 C 0.1013(4) 0.9284(4) 1.0132(4)
H9 H 0.1721 0.8801 1.0214
C22 C -0.0629(4) 0.8081(3) 1.1099(3)
H10 H -0.0986 0.8325 1.1716
H11 H -0.1386 0.7616 1.0726
C23 C 0.5673(4) 0.9601(4) 0.8300(3)
C24 C -0.1255(4) 0.9807(4) 1.0381(4)
H12 H -0.2133 0.9684 1.0638
C25 C 1.5692(5) 0.7285(4) 0.5618(4)
H13 H 1.5969 0.7350 0.6319
H14 H 1.6509 0.7550 0.5284
C26 C 1.5307(5) 0.5311(4) 0.5981(3)
H15 H 1.5516 0.5517 0.6646
C27 C 0.4746(6) 1.0556(5) 0.8317(5)
H16 H 0.3779 1.0296 0.8106
H17 H 0.5083 1.1086 0.7881
H18 H 0.4789 1.0892 0.8973
C28 C 1.5014(4) 0.5780(4) 0.4321(3)
H19 H 1.5023 0.6305 0.3857
C29 C 1.4406(6) 0.8646(5) 0.4648(4)
H20 H 1.5038 0.8739 0.4164
C30 C 1.0819(5) 0.4740(5) 1.3690(4)
H21 H 1.0394 0.4004 1.3709
H22 H 1.1301 0.4976 1.4320
H23 H 1.1492 0.4758 1.3197
C31 C 1.3194(6) 0.9137(4) 0.4730(4)
H24 H 1.2833 0.9628 0.4301
O4 O 0.9930(3) 0.8215(3) 0.7175(3)
C32 C 0.0384(5) 0.6387(5) 0.9665(3)
H25 H 0.0447 0.7003 0.9264
H26 H -0.0601 0.6157 0.9720
H27 H 0.0845 0.5793 0.9368
C33 C 1.3067(6) 0.7418(5) 0.6786(4)
H28 H 1.2358 0.7747 0.7149
H29 H 1.3923 0.7393 0.7209
H30 H 1.2717 0.6686 0.6546
C34 C 0.8846(5) 0.8368(4) 1.4152(3)
O5 O 0.8218(3) 0.9099(3) 1.3731(3)
O6 O 0.9628(5) 0.8518(4) 1.4923(3)
O7 O 0.7045(3) 0.5038(3) 1.08490(19)
O8 O 0.6475(3) 0.5928(2) 0.9052(2)
N1A N -0.2299(3) 1.3632(2) 0.8955(2)
N3A N -0.0583(3) 1.2565(3) 0.8693(2)
C11A C 0.0266(4) 1.0922(3) 0.9472(3)
C13A C -0.1100(4) 1.3288(3) 0.9335(3)
C15A C -0.1495(4) 1.2449(3) 0.7867(3)
H6A H -0.1417 1.2001 0.7302
C19A C -0.2536(4) 1.3117(3) 0.8034(3)
H8A H -0.3304 1.3213 0.7588
C21A C -0.1013(4) 1.0716(4) 0.9868(4)
H9A H -0.1721 1.1199 0.9786
C22A C 0.0629(4) 1.1919(3) 0.8901(3)
H10A H 0.0986 1.1675 0.8284
H11A H 0.1386 1.2384 0.9274
C24A C 0.1255(4) 1.0193(4) 0.9619(4)
H12A H 0.2133 1.0316 0.9362
C32A C -0.0384(5) 1.3613(5) 1.0335(3)
H25A H -0.0447 1.2997 1.0736
H26A H 0.0601 1.3843 1.0280
H27A H -0.0845 1.4207 1.0632
N2A N 1.7427(4) 0.1199(3) 0.4455(3)
N4A N 1.5470(4) 0.2020(3) 0.4586(3)
C16A C 1.6622(4) 0.1918(3) 0.4058(3)
C17A C 1.4679(4) 0.3899(3) 0.4699(3)
C25A C 1.4308(5) 0.2715(4) 0.4382(4)
H13A H 1.4031 0.2650 0.3681
H14A H 1.3491 0.2450 0.4716
C26A C 1.4693(5) 0.4689(4) 0.4019(3)
H15A H 1.4484 0.4483 0.3354
C28A C 1.4986(4) 0.4220(4) 0.5679(3)
H19A H 1.4977 0.3695 0.6143
C29A C 1.5594(6) 0.1354(5) 0.5352(4)
H20A H 1.4962 0.1261 0.5836
C31A C 1.6806(6) 0.0863(4) 0.5270(4)
H24A H 1.7167 0.0372 0.5699
C33A C 1.6933(6) 0.2582(5) 0.3214(4)
H28A H 1.7642 0.2253 0.2851
H29A H 1.6077 0.2607 0.2791
H30A H 1.7283 0.3314 0.3454
Cu1A Cu -0.39427(4) 1.44813(3) 0.95850(3)
Cu2A Cu -1.08645(4) 1.06050(3) 1.39800(3)
O1A O -0.5371(3) 1.4086(2) 0.84515(18)
O2A O -0.4768(3) 1.3222(2) 1.0245(2)
O3A O -0.9242(3) 1.0233(3) 1.3283(2)
C1A C -0.6590(4) 1.4399(3) 0.8466(2)
C2A C -0.7769(4) 1.1195(3) 1.2245(3)
C3A C -0.7636(3) 1.4081(3) 0.7592(2)
C4A C -0.7435(4) 1.2143(3) 1.1775(2)
H1A H -0.8021 1.2720 1.1804
C5A C -0.7629(3) 1.3069(3) 0.7084(2)
H2A H -0.6937 1.2596 0.7251
C6A C -0.6217(4) 1.2226(3) 1.1259(3)
C7A C -0.6884(4) 1.0349(3) 1.2214(3)
H3A H -0.7106 0.9728 1.2549
C8A C -0.8669(4) 1.2770(3) 0.6320(2)
C9A C -0.9072(4) 1.1083(3) 1.2810(3)
C10A C -0.8673(4) 1.4780(3) 0.7338(3)
H4A H -0.8691 1.5444 0.7704
C12A C -0.5792(4) 1.3258(3) 1.0776(2)
C14A C -0.5361(4) 1.1357(3) 1.1220(3)
H5A H -0.4558 1.1411 1.0867
C18A C -0.9652(4) 1.3505(4) 0.6057(3)
H7A H -1.0315 1.3311 0.5524
C20A C -0.9681(4) 1.4511(4) 0.6555(3)
C23A C -0.5673(4) 1.0399(4) 1.1700(3)
C27A C -0.4746(6) 0.9444(5) 1.1683(5)
H16A H -0.3779 0.9704 1.1894
H17A H -0.5083 0.8914 1.2119
H18A H -0.4789 0.9108 1.1027
C30A C -1.0819(5) 1.5260(5) 0.6310(4)
H21A H -1.0394 1.5996 0.6291
H22A H -1.1301 1.5024 0.5680
H23A H -1.1492 1.5242 0.6803
O4A O -0.9930(3) 1.1785(3) 1.2825(3)
C34A C -0.8846(5) 1.1632(4) 0.5848(3)
O5A O -0.8218(3) 1.0901(3) 0.6269(3)
O6A O -0.9628(5) 1.1482(4) 0.5077(3)
O7A O -0.7045(3) 1.4962(3) 0.91510(19)
O8A O -0.6475(3) 1.4072(2) 1.0948(2)
Cu1_2 Cu -0.60573(4) 1.55187(3) 1.04150(3)
Cu1A_2 Cu 0.60573(4) 0.44813(3) 0.95850(3)
Cu2_2 Cu -0.91355(4) 0.93950(3) 0.60200(3)
Cu2_3 Cu 1.08645(4) 0.93950(3) 1.60200(3)
Cu2A_2 Cu -1.08645(4) 1.06050(3) 0.39800(3)
Cu2A_3 Cu 0.91355(4) 1.06050(3) 1.39800(3)
Cu2A_4 Cu 1.91355(4) 0.06050(3) 0.39800(3)
N2A_2 N -1.2573(4) 1.1199(3) 1.4455(3)
O5_2 O -1.1782(3) 0.9099(3) 1.3731(3)
O5A_2 O 1.1782(3) 1.0901(3) 0.6269(3)
O6_2 O 0.9628(5) 0.8518(4) 0.4923(3)
O6A_2 O -0.9628(5) 1.1482(4) 1.5077(3)
O7_2 O -0.2955(3) 1.5038(3) 1.08490(19)
O7A_2 O 0.2955(3) 0.4962(3) 0.91510(19)
O8_2 O -0.3525(3) 1.5928(2) 0.9052(2)
O8A_2 O 0.3525(3) 0.4072(2) 1.0948(2)
loop_
_geom_bond_atom_site_label_1
_geom_bond_atom_site_label_2
_geom_bond_site_symmetry_1
_geom_bond_site_symmetry_2
Cu1 O1 1_555 1_555
Cu2 O3 1_555 1_555
O1 C1 1_555 1_555
N1 Cu1 1_555 1_555
O2 Cu1 1_555 1_555
O3 C9 1_555 1_555
N2 Cu2 1_555 1_555
C1 C3 1_555 1_555
C2 C4 1_555 1_555
C3 C5 1_555 1_555
C4 H1 1_555 1_555
N3 C13 1_555 1_555
C5 H2 1_555 1_555
C6 C4 1_555 1_555
C7 C2 1_555 1_555
H3 C7 1_555 1_555
C8 C5 1_555 1_555
C9 C2 1_555 1_555
C10 C3 1_555 1_555
H4 C10 1_555 1_555
C11 C21 1_555 1_555
C12 O2 1_555 1_555
C13 N1 1_555 1_555
C14 C6 1_555 1_555
H5 C14 1_555 1_555
C15 N3 1_555 1_555
H6 C15 1_555 1_555
N4 C16 1_555 1_555
C16 N2 1_555 1_555
C17 C25 1_555 1_555
C18 C8 1_555 1_555
H7 C18 1_555 1_555
C19 N1 1_555 1_555
H8 C19 1_555 1_555
C20 C10 1_555 1_555
C21 H9 1_555 1_555
C22 N3 1_555 1_555
H10 C22 1_555 1_555
H11 C22 1_555 1_555
C23 C7 1_555 1_555
C24 C11 1_555 1_555
H12 C24 1_555 1_555
C25 N4 1_555 1_555
H13 C25 1_555 1_555
H14 C25 1_555 1_555
C26 C17 1_555 1_555
H15 C26 1_555 1_555
C27 C23 1_555 1_555
H16 C27 1_555 1_555
H17 C27 1_555 1_555
H18 C27 1_555 1_555
C28 C17 1_555 1_555
H19 C28 1_555 1_555
C29 N4 1_555 1_555
H20 C29 1_555 1_555
C30 C20 1_555 1_555
H21 C30 1_555 1_555
H22 C30 1_555 1_555
H23 C30 1_555 1_555
C31 N2 1_555 1_555
H24 C31 1_555 1_555
O4 Cu2 1_555 1_555
C32 C13 1_555 1_555
H25 C32 1_555 1_555
H26 C32 1_555 1_555
H27 C32 1_555 1_555
C33 C16 1_555 1_555
H28 C33 1_555 1_555
H29 C33 1_555 1_555
H30 C33 1_555 1_555
C34 C8 1_555 1_555
O5 C34 1_555 1_555
O6 C34 1_555 1_555
O7 C1 1_555 1_555
O8 C12 1_555 1_555
N1A C13A 1_555 1_555
N3A C13A 1_555 1_555
C11A C21A 1_555 1_555
C13A C32A 1_555 1_555
C15A N3A 1_555 1_555
H6A C15A 1_555 1_555
C19A N1A 1_555 1_555
H8A C19A 1_555 1_555
C21A C24 1_555 1_555
H9A C21A 1_555 1_555
C22A N3A 1_555 1_555
H10A C22A 1_555 1_555
H11A C22A 1_555 1_555
C24A C21 1_555 1_555
H12A C24A 1_555 1_555
C32A H25A 1_555 1_555
H26A C32A 1_555 1_555
H27A C32A 1_555 1_555
N2A C16A 1_555 1_555
N4A C16A 1_555 1_555
C16A C33A 1_555 1_555
C17A C25A 1_555 1_555
C25A N4A 1_555 1_555
H13A C25A 1_555 1_555
H14A C25A 1_555 1_555
C26A C28 1_555 1_555
H15A C26A 1_555 1_555
C28A C26 1_555 1_555
H19A C28A 1_555 1_555
C29A N4A 1_555 1_555
H20A C29A 1_555 1_555
C31A N2A 1_555 1_555
H24A C31A 1_555 1_555
C33A H28A 1_555 1_555
H29A C33A 1_555 1_555
H30A C33A 1_555 1_555
Cu1A N1A 1_555 1_555
Cu2A O3A 1_555 1_555
O1A Cu1A 1_555 1_555
O2A Cu1A 1_555 1_555
O3A C9A 1_555 1_555
C1A O1A 1_555 1_555
C2A C4A 1_555 1_555
C3A C1A 1_555 1_555
C4A H1A 1_555 1_555
C5A C3A 1_555 1_555
H2A C5A 1_555 1_555
C6A C4A 1_555 1_555
C7A C2A 1_555 1_555
H3A C7A 1_555 1_555
C8A C5A 1_555 1_555
C9A C2A 1_555 1_555
C10A C3A 1_555 1_555
H4A C10A 1_555 1_555
C12A O2A 1_555 1_555
C14A C6A 1_555 1_555
H5A C14A 1_555 1_555
C18A C8A 1_555 1_555
H7A C18A 1_555 1_555
C20A C10A 1_555 1_555
C23A C7A 1_555 1_555
C27A C23A 1_555 1_555
H16A C27A 1_555 1_555
H17A C27A 1_555 1_555
H18A C27A 1_555 1_555
C30A C20A 1_555 1_555
H21A C30A 1_555 1_555
H22A C30A 1_555 1_555
H23A C30A 1_555 1_555
O4A Cu2A 1_555 1_555
C34A C8A 1_555 1_555
O5A C34A 1_555 1_555
O6A C34A 1_555 1_555
O7A C1A 1_555 1_555
O8A C12A 1_555 1_555
Cu1_2 Cu1A 1_555 1_555
Cu1A_2 Cu1 1_555 1_555
Cu2_2 O5A 1_555 1_555
Cu2_3 O6 1_555 1_555
Cu2A_2 O6A 1_555 1_555
Cu2A_3 O5 1_555 1_555
Cu2A_4 N2A 1_555 1_555
N2A_2 Cu2A 1_555 1_555
O5_2 Cu2A 1_555 1_555
O5A_2 Cu2 1_555 1_555
O6_2 Cu2 1_555 1_555
O6A_2 Cu2A 1_555 1_555
O7_2 Cu1A 1_555 1_555
O7A_2 Cu1 1_555 1_555
O8_2 Cu1A 1_555 1_555
O8A_2 Cu1 1_555 1_555
C6 C12 1_555 1_555
C9 O4 1_555 1_555
C11 C22 1_555 1_555
C14 C23 1_555 1_555
C15 C19 1_555 1_555
C18 C20 1_555 1_555
C29 C31 1_555 1_555
O7 Cu1A_2 1_555 1_555
O8 Cu1A_2 1_555 1_555
C11A C22A 1_555 1_555
C11A C24A 1_555 1_555
C15A C19A 1_555 1_555
C17A C26A 1_555 1_555
C17A C28A 1_555 1_555
C29A C31A 1_555 1_555
C6A C12A 1_555 1_555
C9A O4A 1_555 1_555
C14A C23A 1_555 1_555
C18A C20A 1_555 1_555
O7A Cu1_2 1_555 1_555
O8A Cu1_2 1_555 1_555

#END
