
#######################################################################
#
#                 Cambridge Crystallographic Data Centre
#                                CCDC 
#
#######################################################################
#
# If this CIF has been generated from an entry in the Cambridge 
# Structural Database, then it will include bibliographic, chemical, 
# crystal, experimental, refinement or atomic coordinate data resulting 
# from the CCDC's data processing and validation procedures.
#
#######################################################################

data_COVPUA
_symmetry_cell_setting           monoclinic
_symmetry_space_group_name_H-M   'P 21/c'
_symmetry_Int_Tables_number      14
_space_group_name_Hall           '-P 2ybc'
loop_
_symmetry_equiv_pos_site_id
_symmetry_equiv_pos_as_xyz
1 x,y,z
2 -x,1/2+y,1/2-z
3 -x,-y,-z
4 x,1/2-y,1/2+z
_cell_length_a                   8.625(5)
_cell_length_b                   14.242(9)
_cell_length_c                   14.814(9)
_cell_angle_alpha                90
_cell_angle_beta                 96.518(11)
_cell_angle_gamma                90
_cell_volume                     1807.95
loop_
_atom_site_label
_atom_site_type_symbol
_atom_site_fract_x
_atom_site_fract_y
_atom_site_fract_z
C1 C 0.4667(5) 0.4123(3) 0.2534(2)
H1 H 0.5275 0.4607 0.2344
C2 C 0.2958(5) 0.3053(3) 0.2561(3)
H2 H 0.2124 0.2658 0.2377
C3 C 0.3767(5) 0.3040(3) 0.3372(3)
H3 H 0.3624 0.2637 0.3850
C4 C 0.5896(4) 0.4044(2) 0.4117(2)
C5 C 0.6505(4) 0.4931(3) 0.4106(2)
H4 H 0.6293 0.5313 0.3597
C6 C 0.7434(4) 0.5249(3) 0.4857(2)
C7 C 0.7751(4) 0.4697(3) 0.5622(2)
H5 H 0.8370 0.4918 0.6133
C8 C 0.7125(5) 0.3812(3) 0.5603(2)
C9 C 0.6227(4) 0.3461(3) 0.4861(2)
H6 H 0.5850 0.2849 0.4856
C10 C 0.9315(5) 0.6517(3) 0.5382(3)
H7 H 1.0014 0.6177 0.5780
C11 C 0.9362(5) 0.7433(3) 0.5212(3)
H8 H 1.0122 0.7845 0.5474
C12 C 0.7367(4) 0.6911(3) 0.4398(2)
H9 H 0.6469 0.6876 0.3988
C13 C 0.7365(7) 0.3581(4) 0.7278(3)
H10 H 0.7189 0.4197 0.7450
C14 C 0.7633(7) 0.2849(4) 0.7821(3)
H11 H 0.7684 0.2865 0.8451
C15 C 0.7633(6) 0.2344(3) 0.6475(3)
H12 H 0.7658 0.1949 0.5977
C16 C 0.5268(4) 0.4534(2) -0.0208(2)
C17 C -0.0237(4) 0.5037(2) 0.0485(2)
N1 N 0.3518(4) 0.3729(2) 0.2028(2)
N2 N 0.4863(4) 0.3739(2) 0.33699(19)
N3 N 0.8028(4) 0.6172(2) 0.4854(2)
N4 N 0.8133(4) 0.7678(2) 0.4599(2)
N5 N 0.7397(4) 0.3252(2) 0.6411(2)
N6 N 0.7827(6) 0.2060(3) 0.7313(3)
O1 O 0.4595(3) 0.38071(17) -0.00052(18)
O2 O 0.6307(3) 0.45961(19) -0.07177(18)
O3 O -0.1407(3) 0.5499(2) 0.05866(17)
O4 O 0.0626(3) 0.46254(19) 0.10920(16)
Zn1 Zn 0.26640(5) 0.40549(3) 0.07003(3)
C16B C 0.4732(4) 0.5466(2) 0.0208(2)
O1B O 0.5405(3) 0.61929(17) 0.00052(18)
O2B O 0.3693(3) 0.54039(19) 0.07177(18)
C17B C 0.0237(4) 0.4963(2) -0.0485(2)
O4B O -0.0626(3) 0.53746(19) -0.10920(16)
O3B O 0.1407(3) 0.4501(2) -0.05866(17)
C1B C -0.4667(5) 0.5877(3) -0.2534(2)
H1B H -0.5275 0.5393 -0.2344
C2B C -0.2958(5) 0.6947(3) -0.2561(3)
H2B H -0.2124 0.7342 -0.2377
C3B C -0.3767(5) 0.6960(3) -0.3372(3)
H3B H -0.3624 0.7363 -0.3850
C4B C -0.5896(4) 0.5956(2) -0.4117(2)
C5B C -0.6505(4) 0.5069(3) -0.4106(2)
H4B H -0.6293 0.4687 -0.3597
C6B C -0.7434(4) 0.4751(3) -0.4857(2)
C7B C -0.7751(4) 0.5303(3) -0.5622(2)
H5B H -0.8370 0.5082 -0.6133
C8B C -0.7125(5) 0.6188(3) -0.5603(2)
C9B C -0.6227(4) 0.6539(3) -0.4861(2)
H6B H -0.5850 0.7151 -0.4856
C10B C -0.9315(5) 0.3483(3) -0.5382(3)
H7B H -1.0014 0.3823 -0.5780
C11B C -0.9362(5) 0.2567(3) -0.5212(3)
H8B H -1.0122 0.2155 -0.5474
C12B C -0.7367(4) 0.3089(3) -0.4398(2)
H9B H -0.6469 0.3124 -0.3988
C13B C -0.7365(7) 0.6419(4) -0.7278(3)
H10B H -0.7189 0.5803 -0.7450
C14B C -0.7633(7) 0.7151(4) -0.7821(3)
H11B H -0.7684 0.7135 -0.8451
C15B C -0.7633(6) 0.7656(3) -0.6475(3)
H12B H -0.7658 0.8051 -0.5977
N1B N -0.3518(4) 0.6271(2) -0.2028(2)
N2B N -0.4863(4) 0.6261(2) -0.33699(19)
N3B N -0.8028(4) 0.3828(2) -0.4854(2)
N4B N -0.8133(4) 0.2322(2) -0.4599(2)
N5B N -0.7397(4) 0.6748(2) -0.6411(2)
N6B N -0.7827(6) 0.7940(3) -0.7313(3)
Zn1B Zn -0.26640(5) 0.59451(3) -0.07003(3)
N4A N 0.1867(4) 0.2678(2) 0.0401(2)
N4C N -0.1867(4) 0.7322(2) -0.0401(2)
O1B_2 O -0.4595(3) 0.61929(17) 0.00052(18)
O2_2 O -0.3693(3) 0.45961(19) -0.07177(18)
Zn1A Zn 0.73360(5) 0.90549(3) 0.42997(3)
Zn1B_2 Zn 0.73360(5) 0.59451(3) -0.07003(3)
Zn1C Zn -0.73360(5) 0.09451(3) -0.42997(3)
O5 O 0.2915(7) 0.4139(3) 0.7753(3)
H13 H 0.223(5) 0.448(3) 0.751(3)
H14 H 0.295(6) 0.410(4) 0.8307(5)
O6 O 0.0512(5) 0.9607(3) 0.2231(2)
H15 H 0.007(4) 0.970(3) 0.2684(16)
H16 H 0.111(5) 0.916(3) 0.227(3)
loop_
_geom_bond_atom_site_label_1
_geom_bond_atom_site_label_2
_geom_bond_site_symmetry_1
_geom_bond_site_symmetry_2
C1 H1 1_555 1_555
C2 H2 1_555 1_555
C3 C2 1_555 1_555
H3 C3 1_555 1_555
C4 C5 1_555 1_555
C5 H4 1_555 1_555
C6 C5 1_555 1_555
C7 C6 1_555 1_555
H5 C7 1_555 1_555
C8 C7 1_555 1_555
C9 C4 1_555 1_555
H6 C9 1_555 1_555
C10 H7 1_555 1_555
C11 C10 1_555 1_555
H8 C11 1_555 1_555
C12 H9 1_555 1_555
C13 H10 1_555 1_555
C14 C13 1_555 1_555
H11 C14 1_555 1_555
C15 H12 1_555 1_555
C16 O1 1_555 1_555
C17 O3 1_555 1_555
N1 C1 1_555 1_555
N2 C1 1_555 1_555
N3 C6 1_555 1_555
N4 C11 1_555 1_555
N5 C8 1_555 1_555
N6 C14 1_555 1_555
O1 Zn1 1_555 1_555
O2 C16 1_555 1_555
O3 Zn1B 1_555 1_555
O4 C17 1_555 1_555
Zn1 N1 1_555 1_555
O5 H13 1_555 1_555
H14 O5 1_555 1_555
O6 H15 1_555 1_555
H16 O6 1_555 1_555
C16B C16 1_555 1_555
O1B C16B 1_555 1_555
O2B Zn1 1_555 1_555
C17B C17 1_555 1_555
O4B C17B 1_555 1_555
O3B Zn1 1_555 1_555
C1B H1B 1_555 1_555
C2B H2B 1_555 1_555
C3B C2B 1_555 1_555
H3B C3B 1_555 1_555
C4B C5B 1_555 1_555
C5B H4B 1_555 1_555
C6B C5B 1_555 1_555
C7B C6B 1_555 1_555
H5B C7B 1_555 1_555
C8B C7B 1_555 1_555
C9B C4B 1_555 1_555
H6B C9B 1_555 1_555
C10B H7B 1_555 1_555
C11B C10B 1_555 1_555
H8B C11B 1_555 1_555
C12B H9B 1_555 1_555
C13B H10B 1_555 1_555
C14B C13B 1_555 1_555
H11B C14B 1_555 1_555
C15B H12B 1_555 1_555
N1B C1B 1_555 1_555
N2B C1B 1_555 1_555
N3B C6B 1_555 1_555
N4B C11B 1_555 1_555
N5B C8B 1_555 1_555
N6B C14B 1_555 1_555
Zn1B O4B 1_555 1_555
N4A Zn1 1_555 1_555
N4C Zn1B 1_555 1_555
O1B_2 Zn1B 1_555 1_555
O2_2 Zn1B 1_555 1_555
Zn1A N4 1_555 1_555
Zn1B_2 O2 1_555 1_555
Zn1C N4B 1_555 1_555
C2 N1 1_555 1_555
C3 N2 1_555 1_555
C4 N2 1_555 1_555
C8 C9 1_555 1_555
C10 N3 1_555 1_555
C12 N3 1_555 1_555
C12 N4 1_555 1_555
C13 N5 1_555 1_555
C15 N5 1_555 1_555
C15 N6 1_555 1_555
O4 Zn1 1_555 1_555
C16B O2B 1_555 1_555
O1B Zn1B_2 1_555 1_555
C17B O3B 1_555 1_555
C2B N1B 1_555 1_555
C3B N2B 1_555 1_555
C4B N2B 1_555 1_555
C8B C9B 1_555 1_555
C10B N3B 1_555 1_555
C12B N3B 1_555 1_555
C12B N4B 1_555 1_555
C13B N5B 1_555 1_555
C15B N5B 1_555 1_555
C15B N6B 1_555 1_555
N1B Zn1B 1_555 1_555

#END
