
#######################################################################
#
#                 Cambridge Crystallographic Data Centre
#                                CCDC 
#
#######################################################################
#
# If this CIF has been generated from an entry in the Cambridge 
# Structural Database, then it will include bibliographic, chemical, 
# crystal, experimental, refinement or atomic coordinate data resulting 
# from the CCDC's data processing and validation procedures.
#
#######################################################################

data_COVPOU01
_symmetry_cell_setting           monoclinic
_symmetry_space_group_name_H-M   'C 2/c'
_symmetry_Int_Tables_number      15
_space_group_name_Hall           '-C 2yn'
loop_
_symmetry_equiv_pos_site_id
_symmetry_equiv_pos_as_xyz
1 x,y,z
2 -x,y,1/2-z
3 1/2+x,1/2+y,z
4 1/2-x,1/2+y,1/2-z
5 -x,-y,-z
6 x,-y,1/2+z
7 1/2-x,1/2-y,-z
8 1/2+x,1/2-y,1/2+z
_cell_length_a                   23.6238(19)
_cell_length_b                   15.6998(11)
_cell_length_c                   13.1677(8)
_cell_angle_alpha                90
_cell_angle_beta                 93.053(5)
_cell_angle_gamma                90
_cell_volume                     4876.82
loop_
_atom_site_label
_atom_site_type_symbol
_atom_site_fract_x
_atom_site_fract_y
_atom_site_fract_z
Zn1 Zn 0.327869(13) -0.15018(2) -0.09043(2)
Zn2 Zn 0.5000 -0.33603(3) -0.2500
C1 C 0.40909(11) -0.21922(16) -0.2213(2)
C2 C 0.41701(11) -0.27133(16) -0.1200(2)
C3 C 0.24488(11) -0.27612(16) -0.0500(2)
C4 C 0.45289(14) -0.46403(19) -0.4155(2)
H1 H 0.4738 -0.4393 -0.4657
C5 C 0.42356(14) -0.53804(19) -0.4265(3)
H2 H 0.4211 -0.5733 -0.4833
C6 C 0.41375(12) -0.48435(17) -0.2748(2)
H3 H 0.4022 -0.4776 -0.2089
C7 C 0.36401(13) -0.62398(19) -0.3099(3)
H4 H 0.3479 -0.6496 -0.3719
H5 H 0.3329 -0.6050 -0.2703
C8 C 0.39788(12) -0.69049(18) -0.2500(2)
C9 C 0.43425(18) -0.6703(2) -0.1687(3)
H6 H 0.4406 -0.6134 -0.1522
C10 C 0.46178(16) -0.7332(2) -0.1107(3)
H7 H 0.4863 -0.7179 -0.0562
C11 C 0.45317(12) -0.81694(18) -0.1328(2)
C12 C 0.41771(15) -0.83756(19) -0.2169(3)
H8 H 0.4121 -0.8945 -0.2344
C13 C 0.39058(13) -0.7749(2) -0.2749(3)
H9 H 0.3673 -0.7899 -0.3312
C14 C 0.37695(12) -1.00814(19) 0.0580(2)
H10 H 0.3523 -1.0205 0.1088
C15 C 0.41244(13) -0.93950(19) 0.0573(3)
H11 H 0.4161 -0.8966 0.1059
C16 C 0.42236(11) -1.01682(17) -0.0784(2)
H12 H 0.4351 -1.0354 -0.1402
C17 C 0.48190(12) -0.88513(18) -0.0684(3)
H13 H 0.5088 -0.9152 -0.1085
H14 H 0.5029 -0.8586 -0.0114
C18 C 0.27046(14) -0.0377(2) -0.2607(3)
H15 H 0.2842 -0.0720 -0.3114
C19 C 0.24297(14) 0.0375(2) -0.2768(3)
H16 H 0.2345 0.0638 -0.3391
C20 C 0.25014(12) 0.00852(19) -0.1144(2)
H17 H 0.2467 0.0132 -0.0446
C21 C 0.19889(14) 0.14551(19) -0.1627(3)
H18 H 0.1607 0.1307 -0.1454
H19 H 0.1960 0.1796 -0.2242
C22 C 0.22618(12) 0.19849(18) -0.0776(3)
C23 C 0.28349(16) 0.2159(3) -0.0706(3)
H20 H 0.3069 0.1928 -0.1182
C24 C 0.19341(15) 0.2330(3) -0.0060(3)
H21 H 0.1547 0.2218 -0.0089
N1 N 0.44751(10) -0.43074(14) -0.32030(19)
N2 N 0.39834(10) -0.54992(15) -0.3363(2)
N3 N 0.38332(9) -1.05610(14) -0.02794(19)
N4 N 0.44146(10) -0.94663(15) -0.0295(2)
N5 N 0.27500(10) -0.05565(14) -0.1587(2)
N6 N 0.23025(10) 0.06673(15) -0.1831(2)
O1 O 0.45398(9) -0.32932(12) -0.11877(16)
O2 O 0.44086(8) -0.23683(12) -0.29103(15)
O3 O 0.38631(9) -0.25258(12) -0.04990(16)
O4 O 0.37155(8) -0.16266(11) -0.22411(16)
O5 O 0.26895(9) -0.25109(12) -0.12629(16)
O6 O 0.21265(8) -0.33979(11) -0.04554(16)
C3F C 0.25512(11) -0.22388(16) 0.0500(2)
O5F O 0.23105(9) -0.24891(12) 0.12629(16)
O6F O 0.28735(8) -0.16021(11) 0.04554(16)
C18F C 0.22954(14) 0.5377(2) 0.2607(3)
H15F H 0.2158 0.5720 0.3114
C19F C 0.25703(14) 0.4625(2) 0.2768(3)
H16F H 0.2655 0.4362 0.3391
C20F C 0.24986(12) 0.49148(19) 0.1144(2)
H17F H 0.2533 0.4868 0.0446
C21F C 0.30111(14) 0.35449(19) 0.1627(3)
H18F H 0.3393 0.3693 0.1454
H19F H 0.3040 0.3204 0.2242
C22F C 0.27382(12) 0.30151(18) 0.0776(3)
C23F C 0.21651(16) 0.2841(3) 0.0706(3)
H20F H 0.1931 0.3072 0.1182
C24F C 0.30659(15) 0.2670(3) 0.0060(3)
H21F H 0.3453 0.2782 0.0089
N5F N 0.22500(10) 0.55565(14) 0.1587(2)
N6F N 0.26975(10) 0.43327(15) 0.1831(2)
Zn1A Zn 0.672131(13) -0.15018(2) -0.40957(2)
C1A C 0.59091(11) -0.21922(16) -0.2787(2)
C2A C 0.58299(11) -0.27133(16) -0.3800(2)
C4A C 0.54711(14) -0.46403(19) -0.0845(2)
H1A H 0.5262 -0.4393 -0.0343
C5A C 0.57644(14) -0.53804(19) -0.0735(3)
H2A H 0.5789 -0.5733 -0.0167
C6A C 0.58625(12) -0.48435(17) -0.2252(2)
H3A H 0.5978 -0.4776 -0.2911
C7A C 0.63599(13) -0.62398(19) -0.1901(3)
H4A H 0.6521 -0.6496 -0.1281
H5A H 0.6671 -0.6050 -0.2297
C8A C 0.60212(12) -0.69049(18) -0.2500(2)
C9A C 0.56575(18) -0.6703(2) -0.3313(3)
H6A H 0.5594 -0.6134 -0.3478
C10A C 0.53822(16) -0.7332(2) -0.3893(3)
H7A H 0.5137 -0.7179 -0.4438
C11A C 0.54683(12) -0.81694(18) -0.3672(2)
C12A C 0.58229(15) -0.83756(19) -0.2831(3)
H8A H 0.5879 -0.8945 -0.2656
C13A C 0.60942(13) -0.7749(2) -0.2251(3)
H9A H 0.6327 -0.7899 -0.1688
C14A C 0.62305(12) -1.00814(19) -0.5580(2)
H10A H 0.6477 -1.0205 -0.6088
C15A C 0.58756(13) -0.93950(19) -0.5573(3)
H11A H 0.5839 -0.8966 -0.6059
C16A C 0.57764(11) -1.01682(17) -0.4216(2)
H12A H 0.5649 -1.0354 -0.3598
C17A C 0.51810(12) -0.88513(18) -0.4316(3)
H13A H 0.4912 -0.9152 -0.3915
H14A H 0.4971 -0.8586 -0.4886
N1A N 0.55249(10) -0.43074(14) -0.17970(19)
N2A N 0.60166(10) -0.54992(15) -0.1637(2)
N3A N 0.61668(9) -1.05610(14) -0.47206(19)
N4A N 0.55854(10) -0.94663(15) -0.4705(2)
O1A O 0.54602(9) -0.32932(12) -0.38123(16)
O2A O 0.55914(8) -0.23683(12) -0.20897(15)
O3A O 0.61369(9) -0.25258(12) -0.45010(16)
O4A O 0.62845(8) -0.16266(11) -0.27589(16)
Zn1_2 Zn 0.327869(13) -1.15018(2) -0.09043(2)
Zn1A_2 Zn 0.672131(13) -1.15018(2) -0.40957(2)
Zn1F Zn 0.172131(13) -0.34982(2) 0.09043(2)
Zn1F_2 Zn 0.172131(13) 0.65018(2) 0.09043(2)
N3_2 N 0.38332(9) -0.05610(14) -0.02794(19)
N3A_2 N 0.61668(9) -0.05610(14) -0.47206(19)
N5A N 0.72500(10) -0.05565(14) -0.3413(2)
O5A O 0.73105(9) -0.25109(12) -0.37371(16)
O6G O 0.71265(8) -0.16021(11) -0.54554(16)
loop_
_geom_bond_atom_site_label_1
_geom_bond_atom_site_label_2
_geom_bond_site_symmetry_1
_geom_bond_site_symmetry_2
Zn1 N5 1_555 1_555
Zn2 N1 1_555 1_555
C1 C2 1_555 1_555
C2 O1 1_555 1_555
C3 O5 1_555 1_555
C4 H1 1_555 1_555
C5 C4 1_555 1_555
H2 C5 1_555 1_555
C6 H3 1_555 1_555
C7 H4 1_555 1_555
H5 C7 1_555 1_555
C8 C7 1_555 1_555
C9 C8 1_555 1_555
H6 C9 1_555 1_555
C10 C9 1_555 1_555
H7 C10 1_555 1_555
C11 C10 1_555 1_555
C12 C11 1_555 1_555
H8 C12 1_555 1_555
C13 C8 1_555 1_555
H9 C13 1_555 1_555
C14 H10 1_555 1_555
C15 C14 1_555 1_555
H11 C15 1_555 1_555
C16 H12 1_555 1_555
C17 C11 1_555 1_555
H13 C17 1_555 1_555
H14 C17 1_555 1_555
C18 H15 1_555 1_555
C19 C18 1_555 1_555
H16 C19 1_555 1_555
C20 H17 1_555 1_555
C21 H18 1_555 1_555
H19 C21 1_555 1_555
C22 C21 1_555 1_555
C23 C22 1_555 1_555
H20 C23 1_555 1_555
C24 C22 1_555 1_555
H21 C24 1_555 1_555
N1 C4 1_555 1_555
N2 C5 1_555 1_555
N3 C14 1_555 1_555
N4 C15 1_555 1_555
N5 C18 1_555 1_555
N6 C19 1_555 1_555
O1 Zn2 1_555 1_555
O2 Zn2 1_555 1_555
O3 Zn1 1_555 1_555
O4 Zn1 1_555 1_555
O5 Zn1 1_555 1_555
O6 C3 1_555 1_555
C3F C3 1_555 1_555
O5F C3F 1_555 1_555
O6F Zn1 1_555 1_555
C18F H15F 1_555 1_555
C19F C18F 1_555 1_555
H16F C19F 1_555 1_555
C20F H17F 1_555 1_555
C21F H18F 1_555 1_555
H19F C21F 1_555 1_555
C22F C21F 1_555 1_555
C23F C24 1_555 1_555
H20F C23F 1_555 1_555
C24F C23 1_555 1_555
H21F C24F 1_555 1_555
N5F C18F 1_555 1_555
N6F C19F 1_555 1_555
Zn1A O3A 1_555 1_555
C1A C2A 1_555 1_555
C2A O1A 1_555 1_555
C4A H1A 1_555 1_555
C5A C4A 1_555 1_555
H2A C5A 1_555 1_555
C6A H3A 1_555 1_555
C7A H4A 1_555 1_555
H5A C7A 1_555 1_555
C8A C7A 1_555 1_555
C9A C8A 1_555 1_555
H6A C9A 1_555 1_555
C10A C9A 1_555 1_555
H7A C10A 1_555 1_555
C11A C10A 1_555 1_555
C12A C11A 1_555 1_555
H8A C12A 1_555 1_555
C13A C8A 1_555 1_555
H9A C13A 1_555 1_555
C14A H10A 1_555 1_555
C15A C14A 1_555 1_555
H11A C15A 1_555 1_555
C16A H12A 1_555 1_555
C17A C11A 1_555 1_555
H13A C17A 1_555 1_555
H14A C17A 1_555 1_555
N1A Zn2 1_555 1_555
N2A C5A 1_555 1_555
N3A C14A 1_555 1_555
N4A C15A 1_555 1_555
O1A Zn2 1_555 1_555
O2A Zn2 1_555 1_555
O3A C2A 1_555 1_555
O4A Zn1A 1_555 1_555
Zn1_2 N3 1_555 1_555
Zn1A_2 N3A 1_555 1_555
Zn1F O6 1_555 1_555
Zn1F_2 N5F 1_555 1_555
N3_2 Zn1 1_555 1_555
N3A_2 Zn1A 1_555 1_555
N5A Zn1A 1_555 1_555
O5A Zn1A 1_555 1_555
O6G Zn1A 1_555 1_555
C1 O2 1_555 1_555
C1 O4 1_555 1_555
C2 O3 1_555 1_555
C6 N1 1_555 1_555
C6 N2 1_555 1_555
C7 N2 1_555 1_555
C12 C13 1_555 1_555
C16 N3 1_555 1_555
C16 N4 1_555 1_555
C17 N4 1_555 1_555
C20 N5 1_555 1_555
C20 N6 1_555 1_555
C21 N6 1_555 1_555
C3F O6F 1_555 1_555
O5F Zn1F 1_555 1_555
C20F N5F 1_555 1_555
C20F N6F 1_555 1_555
C21F N6F 1_555 1_555
C22F C23F 1_555 1_555
C22F C24F 1_555 1_555
C1A O2A 1_555 1_555
C1A O4A 1_555 1_555
C4A N1A 1_555 1_555
C6A N1A 1_555 1_555
C6A N2A 1_555 1_555
C7A N2A 1_555 1_555
C12A C13A 1_555 1_555
C16A N3A 1_555 1_555
C16A N4A 1_555 1_555
C17A N4A 1_555 1_555

#END
