
#######################################################################
#
#                 Cambridge Crystallographic Data Centre
#                                CCDC 
#
#######################################################################
#
# If this CIF has been generated from an entry in the Cambridge 
# Structural Database, then it will include bibliographic, chemical, 
# crystal, experimental, refinement or atomic coordinate data resulting 
# from the CCDC's data processing and validation procedures.
#
#######################################################################

data_COVQEL
_symmetry_cell_setting           monoclinic
_symmetry_space_group_name_H-M   'P 21/c'
_symmetry_Int_Tables_number      14
_space_group_name_Hall           '-P 2ybc'
loop_
_symmetry_equiv_pos_site_id
_symmetry_equiv_pos_as_xyz
1 x,y,z
2 -x,1/2+y,1/2-z
3 -x,-y,-z
4 x,1/2-y,1/2+z
_cell_length_a                   11.481(2)
_cell_length_b                   18.094(4)
_cell_length_c                   8.5198(17)
_cell_angle_alpha                90
_cell_angle_beta                 102.26(3)
_cell_angle_gamma                90
_cell_volume                     1729.52
loop_
_atom_site_label
_atom_site_type_symbol
_atom_site_fract_x
_atom_site_fract_y
_atom_site_fract_z
Cu1 Cu 0.32990(3) 0.865596(18) 0.59364(4)
S1 S 0.09052(7) 0.86883(4) 0.34250(9)
C1 C 0.3556(3) 0.76040(15) 0.3731(3)
C2 C 0.2263(3) 0.75272(16) 0.3865(4)
H1 H 0.1766 0.7446 0.2808
H2 H 0.2180 0.7103 0.4530
C3 C -0.0515(3) 0.83563(16) 0.3619(3)
C4 C -0.0990(3) 0.77132(17) 0.2861(4)
H3 H -0.0566 0.7437 0.2250
C5 C -0.2111(3) 0.74898(17) 0.3032(4)
H4 H -0.2451 0.7057 0.2550
C6 C -0.2712(3) 0.79229(18) 0.3934(4)
H5 H -0.3469 0.7773 0.4029
C7 C -0.1186(3) 0.87565(16) 0.4512(4)
H6 H -0.0865 0.9189 0.5013
C8 C 0.1470(3) 0.92963(17) 0.7670(4)
H7 H 0.0975 0.8901 0.7280
C9 C 0.1062(3) 0.98319(19) 0.8602(4)
H8 H 0.0306 0.9789 0.8826
C10 C 0.1770(3) 1.04186(19) 0.9187(4)
H9 H 0.1499 1.0778 0.9802
C11 C 0.2910(3) 1.04736(16) 0.8849(3)
C12 C 0.3741(3) 1.10588(17) 0.9393(4)
H10 H 0.3528 1.1436 1.0019
C13 C 0.4823(3) 1.10743(17) 0.9015(4)
H11 H 0.5332 1.1468 0.9366
C14 C 0.5207(3) 1.05003(16) 0.8088(3)
C15 C 0.6336(3) 1.04593(17) 0.7706(4)
H12 H 0.6898 1.0827 0.8047
C16 C 0.6602(3) 0.98717(17) 0.6825(4)
H13 H 0.7350 0.9837 0.6577
C17 C 0.5748(3) 0.93274(16) 0.6304(3)
H14 H 0.5939 0.8935 0.5699
C18 C 0.4407(3) 0.99257(15) 0.7531(3)
C19 C 0.3254(3) 0.99134(15) 0.7909(3)
N1 N 0.1868(2) 0.82020(13) 0.4581(3)
N2 N 0.2539(2) 0.93324(13) 0.7322(3)
N3 N 0.4669(2) 0.93507(12) 0.6643(3)
N4 N -0.2269(2) 0.85472(14) 0.4682(3)
O1 O 0.41566(18) 0.81176(11) 0.4552(2)
O2 O 0.39812(19) 0.71648(11) 0.2879(2)
O3 O 0.0922(2) 0.85927(12) 0.1746(3)
O4 O 0.09800(19) 0.94354(11) 0.4035(3)
Cu1C Cu 0.32990(3) 0.634404(18) 0.09364(4)
O2C O 0.39812(19) 0.78352(11) 0.7879(2)
loop_
_geom_bond_atom_site_label_1
_geom_bond_atom_site_label_2
_geom_bond_site_symmetry_1
_geom_bond_site_symmetry_2
Cu1 N1 1_555 1_555
S1 C3 1_555 1_555
C1 C2 1_555 1_555
C2 H1 1_555 1_555
H2 C2 1_555 1_555
C3 C4 1_555 1_555
C4 H3 1_555 1_555
C5 C4 1_555 1_555
H4 C5 1_555 1_555
C6 C5 1_555 1_555
H5 C6 1_555 1_555
C7 C3 1_555 1_555
H6 C7 1_555 1_555
C8 H7 1_555 1_555
C9 C8 1_555 1_555
H8 C9 1_555 1_555
C10 C9 1_555 1_555
H9 C10 1_555 1_555
C11 C10 1_555 1_555
C12 C11 1_555 1_555
H10 C12 1_555 1_555
C13 C12 1_555 1_555
H11 C13 1_555 1_555
C14 C13 1_555 1_555
C15 C14 1_555 1_555
H12 C15 1_555 1_555
C16 C15 1_555 1_555
H13 C16 1_555 1_555
C17 C16 1_555 1_555
H14 C17 1_555 1_555
C18 C14 1_555 1_555
C19 C11 1_555 1_555
N1 S1 1_555 1_555
N2 Cu1 1_555 1_555
N3 Cu1 1_555 1_555
N4 C6 1_555 1_555
O1 Cu1 1_555 1_555
O2 C1 1_555 1_555
O3 S1 1_555 1_555
O4 S1 1_555 1_555
Cu1C O2 1_555 1_555
O2C Cu1 1_555 1_555
C1 O1 1_555 1_555
C2 N1 1_555 1_555
C7 N4 1_555 1_555
C8 N2 1_555 1_555
C17 N3 1_555 1_555
C18 C19 1_555 1_555
C18 N3 1_555 1_555
C19 N2 1_555 1_555

#END
