
#######################################################################
#
#                 Cambridge Crystallographic Data Centre
#                                CCDC 
#
#######################################################################
#
# If this CIF has been generated from an entry in the Cambridge 
# Structural Database, then it will include bibliographic, chemical, 
# crystal, experimental, refinement or atomic coordinate data resulting 
# from the CCDC's data processing and validation procedures.
#
#######################################################################

data_COVRUC
_symmetry_cell_setting           monoclinic
_symmetry_space_group_name_H-M   'C 2/c'
_symmetry_Int_Tables_number      15
_space_group_name_Hall           '-C 2yn'
loop_
_symmetry_equiv_pos_site_id
_symmetry_equiv_pos_as_xyz
1 x,y,z
2 -x,y,1/2-z
3 1/2+x,1/2+y,z
4 1/2-x,1/2+y,1/2-z
5 -x,-y,-z
6 x,-y,1/2+z
7 1/2-x,1/2-y,-z
8 1/2+x,1/2-y,1/2+z
_cell_length_a                   17.342(3)
_cell_length_b                   12.6943(17)
_cell_length_c                   8.0972(11)
_cell_angle_alpha                90
_cell_angle_beta                 110.630(2)
_cell_angle_gamma                90
_cell_volume                     1668.25
loop_
_atom_site_label
_atom_site_type_symbol
_atom_site_fract_x
_atom_site_fract_y
_atom_site_fract_z
K1 K 0.18820(6) 0.58338(6) 0.04738(10)
N1 N 0.14129(18) 0.7009(2) 0.3649(4)
N2 N 0.16751(17) 0.7078(2) 0.6776(4)
N3 N 0.1779(2) 0.9401(3) 0.5973(4)
N4 N 0.0684(2) 1.0231(2) 0.3936(4)
O1 O 0.0199(5) 0.5596(12) -0.0779(18)
O2 O 0.13766(18) 0.7551(2) 0.2339(3)
O3 O 0.1413(2) 0.6044(2) 0.3572(4)
O4 O 0.17938(19) 0.6118(2) 0.6962(3)
O5 O 0.17635(18) 0.7649(2) 0.8082(3)
O6 O 0.14080(19) 1.0360(2) 0.5372(4)
C1 C 0.1464(2) 0.7569(3) 0.5148(4)
C2 C 0.1301(2) 0.8686(3) 0.4956(4)
C3 C 0.0628(2) 0.9220(2) 0.3706(5)
O7 O 0.0000 0.8702(2) 0.2500
N1A N -0.14129(18) 0.7009(2) 0.1351(4)
N2A N -0.16751(17) 0.7078(2) -0.1776(4)
N3A N -0.1779(2) 0.9401(3) -0.0973(4)
N4A N -0.0684(2) 1.0231(2) 0.1064(4)
O2A O -0.13766(18) 0.7551(2) 0.2661(3)
O3A O -0.1413(2) 0.6044(2) 0.1428(4)
O4A O -0.17938(19) 0.6118(2) -0.1962(3)
O5A O -0.17635(18) 0.7649(2) -0.3082(3)
O6A O -0.14080(19) 1.0360(2) -0.0372(4)
C1A C -0.1464(2) 0.7569(3) -0.0148(4)
C2A C -0.1301(2) 0.8686(3) 0.0044(4)
C3A C -0.0628(2) 0.9220(2) 0.1294(5)
K1A K -0.18820(6) 0.58338(6) -0.54738(10)
O1A O -0.0199(5) 0.5596(12) -0.4221(18)
K1_2 K 0.18820(6) 0.58338(6) 1.04738(10)
K1A_2 K -0.18820(6) 0.58338(6) 0.45262(10)
K1B K -0.31180(6) 1.08338(6) 0.04738(10)
K1C K 0.31180(6) 1.08338(6) 0.45262(10)
K1D K -0.18820(6) 0.41662(6) -0.04738(10)
K1E K 0.18820(6) 0.41662(6) 0.54738(10)
K1F K 0.31180(6) 0.91662(6) 0.95262(10)
K1G K -0.31180(6) 0.91662(6) -0.45262(10)
N3F N 0.3221(2) 0.5599(3) 0.4027(4)
N3G N -0.3221(2) 0.5599(3) -0.9027(4)
O2A_2 O -0.13766(18) 0.7551(2) -0.7339(3)
O3A_2 O -0.1413(2) 0.6044(2) -0.8572(4)
O3D O -0.1413(2) 0.3956(2) -0.3572(4)
O3E O 0.1413(2) 0.3956(2) -0.1428(4)
O4_2 O 0.17938(19) 0.6118(2) -0.3038(3)
O4D O -0.17938(19) 0.3882(2) -0.6962(3)
O4E O 0.17938(19) 0.3882(2) 0.1962(3)
O5_2 O 0.17635(18) 0.7649(2) -0.1918(3)
O5F O 0.32365(18) 0.7351(2) 0.1918(3)
O5G O -0.32365(18) 0.7351(2) -0.6918(3)
O6B O -0.35920(19) 0.5360(2) -0.4628(4)
O6C O 0.35920(19) 0.5360(2) -0.0372(4)
O8 O 0.5086(13) 0.7530(16) 0.298(6)
O8A O 0.4914(13) 0.7530(16) 0.202(6)
loop_
_geom_bond_atom_site_label_1
_geom_bond_atom_site_label_2
_geom_bond_site_symmetry_1
_geom_bond_site_symmetry_2
K1 O1 1_555 1_555
N1 O2 1_555 1_555
N2 O4 1_555 1_555
N3 O6 1_555 1_555
N4 O6 1_555 1_555
O2 K1 1_555 1_555
O3 K1 1_555 1_555
O4 K1_2 1_555 1_555
O5 N2 1_555 1_555
O6 K1C 1_555 1_555
C1 N1 1_555 1_555
C2 N3 1_555 1_555
C3 N4 1_555 1_555
O7 C3 1_555 1_555
N1A O2A 1_555 1_555
N2A O4A 1_555 1_555
N3A O6A 1_555 1_555
N4A O6A 1_555 1_555
O2A K1A_2 1_555 1_555
O3A N1A 1_555 1_555
O4A K1A 1_555 1_555
O5A N2A 1_555 1_555
O6A K1B 1_555 1_555
C1A N1A 1_555 1_555
C2A N3A 1_555 1_555
C3A O7 1_555 1_555
K1A O5A 1_555 1_555
O1A K1A 1_555 1_555
K1_2 O5 1_555 1_555
K1A_2 O3A 1_555 1_555
K1D O3A 1_555 1_555
K1E O3 1_555 1_555
K1F N3 1_555 1_555
K1G N3A 1_555 1_555
N3F K1 1_555 1_555
N3G K1A 1_555 1_555
O2A_2 K1A 1_555 1_555
O3A_2 K1A 1_555 1_555
O3D K1A 1_555 1_555
O3E K1 1_555 1_555
O4_2 K1 1_555 1_555
O4D K1A 1_555 1_555
O4E K1 1_555 1_555
O5_2 K1 1_555 1_555
O5F K1 1_555 1_555
O5G K1A 1_555 1_555
O6B K1A 1_555 1_555
O6C K1 1_555 1_555
N1 O3 1_555 1_555
N2 C1 1_555 1_555
O4 K1E 1_555 1_555
O5 K1F 1_555 1_555
C1 C2 1_555 1_555
C2 C3 1_555 1_555
N2A C1A 1_555 1_555
N4A C3A 1_555 1_555
O4A K1D 1_555 1_555
O5A K1G 1_555 1_555
C1A C2A 1_555 1_555
C2A C3A 1_555 1_555
K1D O3D 1_555 1_555
K1E O4E 1_555 1_555
K1G O5G 1_555 1_555

#END
