
#######################################################################
#
#                 Cambridge Crystallographic Data Centre
#                                CCDC 
#
#######################################################################
#
# If this CIF has been generated from an entry in the Cambridge 
# Structural Database, then it will include bibliographic, chemical, 
# crystal, experimental, refinement or atomic coordinate data resulting 
# from the CCDC's data processing and validation procedures.
#
#######################################################################

data_COVSAJ
_symmetry_cell_setting           monoclinic
_symmetry_space_group_name_H-M   'P 21/c'
_symmetry_Int_Tables_number      14
_space_group_name_Hall           '-P 2ybc'
loop_
_symmetry_equiv_pos_site_id
_symmetry_equiv_pos_as_xyz
1 x,y,z
2 -x,1/2+y,1/2-z
3 -x,-y,-z
4 x,1/2-y,1/2+z
_cell_length_a                   13.575(3)
_cell_length_b                   14.130(3)
_cell_length_c                   9.485(2)
_cell_angle_alpha                90
_cell_angle_beta                 107.908(3)
_cell_angle_gamma                90
_cell_volume                     1731.22
loop_
_atom_site_label
_atom_site_type_symbol
_atom_site_fract_x
_atom_site_fract_y
_atom_site_fract_z
C17 C 0.6071(4) 0.0880(3) 0.1230(5)
H12 H 0.6496 0.1182 0.0689
H13 H 0.5748 0.0309 0.0701
H14 H 0.6508 0.0709 0.2227
O3 O 0.5295(2) 0.1512(2) 0.1334(3)
H15 H 0.4878 0.1229 0.1682
C18 C 0.0077(10) 0.5373(8) 0.9007(13)
H16 H -0.0132 0.6035 0.8727
H17 H 0.0392 0.5105 0.8281
Cl1 Cl 0.09990(17) 0.53129(17) 1.0920(3)
C18B C -0.0077(10) 0.4627(8) 1.0993(13)
H16B H 0.0132 0.3965 1.1273
H17B H -0.0392 0.4895 1.1719
Cl1B Cl -0.09990(17) 0.46871(17) 0.9080(3)
C1 C 0.6539(3) 0.3383(2) -0.0076(4)
H1 H 0.6070 0.3214 -0.1011
C2 C 0.7460(3) 0.2882(3) 0.0467(4)
H2 H 0.7617 0.2388 -0.0109
C3 C 0.8138(3) 0.3094(3) 0.1816(4)
H3 H 0.8761 0.2743 0.2191
C4 C 0.7907(2) 0.3845(2) 0.2662(3)
C5 C 0.6966(2) 0.4327(2) 0.2025(3)
C6 C 0.6638(3) 0.5110(2) 0.2755(4)
C7 C 0.7285(3) 0.5364(2) 0.4137(4)
H4 H 0.7098 0.5872 0.4659
C8 C 0.8213(3) 0.4879(2) 0.4775(4)
H5 H 0.8635 0.5074 0.5728
C9 C 0.8556(2) 0.4135(2) 0.4104(4)
C10 C 1.4484(3) 0.1385(3) 0.7333(4)
H6 H 1.5172 0.1216 0.7882
C11 C 1.3971(3) 0.2022(2) 0.7959(4)
H7 H 1.4292 0.2269 0.8923
C12 C 1.2983(3) 0.2290(2) 0.7154(4)
H8 H 1.2617 0.2743 0.7540
C13 C 1.2529(2) 0.1889(2) 0.5768(4)
C14 C 1.3102(3) 0.1246(2) 0.5264(4)
H9 H 1.2786 0.0962 0.4325
C15 C 1.1479(3) 0.2151(2) 0.4748(4)
C16 C 0.9538(3) 0.3693(2) 0.4920(4)
H10 H 0.9865 0.3890 0.5912
N1 N 1.0905(2) 0.2718(2) 0.5302(3)
H11 H 1.1113 0.2873 0.6247
N2 N 0.9980(2) 0.3061(2) 0.4377(3)
N3 N 0.6295(2) 0.40887(18) 0.0670(3)
N4 N 1.4072(2) 0.09910(19) 0.6002(3)
O1 O 1.11987(18) 0.18717(18) 0.3454(2)
O2 O 0.57566(16) 0.55325(15) 0.2099(2)
Zn1 Zn 0.5000 0.5000 0.0000
C1B C 0.3461(3) 0.6617(2) 0.0076(4)
H1B H 0.3930 0.6786 0.1011
C2B C 0.2540(3) 0.7118(3) -0.0467(4)
H2B H 0.2383 0.7612 0.0109
C3B C 0.1862(3) 0.6906(3) -0.1816(4)
H3B H 0.1239 0.7257 -0.2191
C4B C 0.2093(2) 0.6155(2) -0.2662(3)
C5B C 0.3034(2) 0.5673(2) -0.2025(3)
C6B C 0.3362(3) 0.4890(2) -0.2755(4)
C7B C 0.2715(3) 0.4636(2) -0.4137(4)
H4B H 0.2902 0.4128 -0.4659
C8B C 0.1787(3) 0.5121(2) -0.4775(4)
H5B H 0.1365 0.4926 -0.5728
C9B C 0.1444(2) 0.5865(2) -0.4104(4)
C10B C -0.4484(3) 0.8615(3) -0.7333(4)
H6B H -0.5172 0.8784 -0.7882
C11B C -0.3971(3) 0.7978(2) -0.7959(4)
H7B H -0.4292 0.7731 -0.8923
C12B C -0.2983(3) 0.7710(2) -0.7154(4)
H8B H -0.2617 0.7257 -0.7540
C13B C -0.2529(2) 0.8111(2) -0.5768(4)
C14B C -0.3102(3) 0.8754(2) -0.5264(4)
H9B H -0.2786 0.9038 -0.4325
C15B C -0.1479(3) 0.7849(2) -0.4748(4)
C16B C 0.0462(3) 0.6307(2) -0.4920(4)
H10B H 0.0135 0.6110 -0.5912
N1B N -0.0905(2) 0.7282(2) -0.5302(3)
H11B H -0.1113 0.7127 -0.6247
N2B N 0.0020(2) 0.6939(2) -0.4377(3)
N3B N 0.3705(2) 0.59113(18) -0.0670(3)
N4B N -0.4072(2) 0.90090(19) -0.6002(3)
O1B O -0.11987(18) 0.81283(18) -0.3454(2)
O2B O 0.42434(16) 0.44675(15) -0.2099(2)
N4A N 0.5928(2) 0.59910(19) -0.1002(3)
N4C N 0.4072(2) 0.40090(19) 0.1002(3)
Zn1A Zn -0.5000 1.0000 -0.5000
Zn1A_2 Zn 1.5000 0.0000 0.5000
loop_
_geom_bond_atom_site_label_1
_geom_bond_atom_site_label_2
_geom_bond_site_symmetry_1
_geom_bond_site_symmetry_2
C1 H1 1_555 1_555
C2 C1 1_555 1_555
H2 C2 1_555 1_555
C3 C2 1_555 1_555
H3 C3 1_555 1_555
C4 C3 1_555 1_555
C5 C4 1_555 1_555
C6 C5 1_555 1_555
C7 C6 1_555 1_555
H4 C7 1_555 1_555
C8 C7 1_555 1_555
H5 C8 1_555 1_555
C9 C4 1_555 1_555
C10 H6 1_555 1_555
C11 C10 1_555 1_555
H7 C11 1_555 1_555
C12 C11 1_555 1_555
H8 C12 1_555 1_555
C13 C12 1_555 1_555
C14 C13 1_555 1_555
H9 C14 1_555 1_555
C15 C13 1_555 1_555
C16 C9 1_555 1_555
H10 C16 1_555 1_555
N1 C15 1_555 1_555
H11 N1 1_555 1_555
N2 C16 1_555 1_555
N3 C1 1_555 1_555
N4 C10 1_555 1_555
O1 C15 1_555 1_555
O2 C6 1_555 1_555
Zn1 N3 1_555 1_555
C17 H12 1_555 1_555
H13 C17 1_555 1_555
H14 C17 1_555 1_555
O3 C17 1_555 1_555
H15 O3 1_555 1_555
C18 H16 1_555 1_555
H17 C18 1_555 1_555
Cl1 C18 1_555 1_555
C1B H1B 1_555 1_555
C2B C1B 1_555 1_555
H2B C2B 1_555 1_555
C3B C2B 1_555 1_555
H3B C3B 1_555 1_555
C4B C3B 1_555 1_555
C5B C4B 1_555 1_555
C6B C5B 1_555 1_555
C7B C6B 1_555 1_555
H4B C7B 1_555 1_555
C8B C7B 1_555 1_555
H5B C8B 1_555 1_555
C9B C4B 1_555 1_555
C10B H6B 1_555 1_555
C11B C10B 1_555 1_555
H7B C11B 1_555 1_555
C12B C11B 1_555 1_555
H8B C12B 1_555 1_555
C13B C12B 1_555 1_555
C14B C13B 1_555 1_555
H9B C14B 1_555 1_555
C15B C13B 1_555 1_555
C16B C9B 1_555 1_555
H10B C16B 1_555 1_555
N1B C15B 1_555 1_555
H11B N1B 1_555 1_555
N2B C16B 1_555 1_555
N3B Zn1 1_555 1_555
N4B C10B 1_555 1_555
O1B C15B 1_555 1_555
O2B Zn1 1_555 1_555
N4A Zn1 1_555 1_555
N4C Zn1 1_555 1_555
Zn1A N4B 1_555 1_555
Zn1A_2 N4 1_555 1_555
C18B Cl1 1_555 1_555
H16B C18B 1_555 1_555
H17B C18B 1_555 1_555
Cl1B C18 1_555 1_555
C5 N3 1_555 1_555
C8 C9 1_555 1_555
C14 N4 1_555 1_555
N1 N2 1_555 1_555
O2 Zn1 1_555 1_555
C1B N3B 1_555 1_555
C5B N3B 1_555 1_555
C6B O2B 1_555 1_555
C8B C9B 1_555 1_555
C14B N4B 1_555 1_555
N1B N2B 1_555 1_555
C18B Cl1B 1_555 1_555

#END
