
#######################################################################
#
#                 Cambridge Crystallographic Data Centre
#                                CCDC 
#
#######################################################################
#
# If this CIF has been generated from an entry in the Cambridge 
# Structural Database, then it will include bibliographic, chemical, 
# crystal, experimental, refinement or atomic coordinate data resulting 
# from the CCDC's data processing and validation procedures.
#
#######################################################################

data_COVVAM
_symmetry_cell_setting           triclinic
_symmetry_space_group_name_H-M   'P -1'
_symmetry_Int_Tables_number      2
_space_group_name_Hall           '-P 1'
loop_
_symmetry_equiv_pos_site_id
_symmetry_equiv_pos_as_xyz
1 x,y,z
2 -x,-y,-z
_cell_length_a                   7.7444(7)
_cell_length_b                   8.2359(8)
_cell_length_c                   8.8697(8)
_cell_angle_alpha                66.620(9)
_cell_angle_beta                 71.005(8)
_cell_angle_gamma                82.957(8)
_cell_volume                     490.988
loop_
_atom_site_label
_atom_site_type_symbol
_atom_site_fract_x
_atom_site_fract_y
_atom_site_fract_z
Cu1 Cu 0.5000 0.0000 0.0000
O1 O 1.4186(3) 0.6312(3) -0.3653(3)
H1 H 1.4538 0.7061 -0.4634
O2 O 0.4658(3) -0.1107(3) 0.3209(2)
O3 O 0.3293(2) 0.1041(3) 0.1580(2)
N1 N 0.7001(3) 0.1669(3) -0.0500(3)
N2 N 1.2523(3) 0.5627(3) -0.3398(3)
C1 C 0.8039(4) 0.1246(4) 0.0540(3)
H2 H 0.7685 0.0287 0.1585
C2 C 0.9608(4) 0.2152(4) 0.0154(3)
H3 H 1.0277 0.1816 0.0930
C3 C 1.0176(4) 0.3572(3) -0.1410(3)
C4 C 0.9047(4) 0.4065(3) -0.2451(3)
H4 H 0.9342 0.5051 -0.3479
C5 C 0.7505(4) 0.3109(4) -0.1974(3)
H5 H 0.6772 0.3465 -0.2696
C6 C 1.1922(4) 0.4458(4) -0.1893(4)
H6 H 1.2575 0.4167 -0.1109
C7 C 0.3554(4) 0.0141(4) 0.3024(3)
C8 C 0.2507(4) 0.0664(5) 0.4532(4)
H7 H 0.2984 0.1786 0.4347
H8 H 0.2717 -0.0214 0.5573
C9 C 0.0462(4) 0.0836(4) 0.4802(4)
H9 H -0.0095 0.1238 0.5742
H10 H 0.0254 0.1734 0.3770
O2A O -0.4658(3) 0.1107(3) 0.6791(2)
O3A O -0.3293(2) -0.1041(3) 0.8420(2)
C7A C -0.3554(4) -0.0141(4) 0.6976(3)
C8A C -0.2507(4) -0.0664(5) 0.5468(4)
H7A H -0.2984 -0.1786 0.5653
H8A H -0.2717 0.0214 0.4427
C9A C -0.0462(4) -0.0836(4) 0.5198(4)
H9A H 0.0095 -0.1238 0.4258
H10A H -0.0254 -0.1734 0.6230
O1A O -0.4186(3) -0.6312(3) 0.3653(3)
H1A H -0.4538 -0.7061 0.4634
N1A N 0.2999(3) -0.1669(3) 0.0500(3)
N2A N -0.2523(3) -0.5627(3) 0.3398(3)
C1A C 0.1961(4) -0.1246(4) -0.0540(3)
H2A H 0.2315 -0.0287 -0.1585
C2A C 0.0392(4) -0.2152(4) -0.0154(3)
H3A H -0.0277 -0.1816 -0.0930
C3A C -0.0176(4) -0.3572(3) 0.1410(3)
C4A C 0.0953(4) -0.4065(3) 0.2451(3)
H4A H 0.0658 -0.5051 0.3479
C5A C 0.2495(4) -0.3109(4) 0.1974(3)
H5A H 0.3228 -0.3465 0.2696
C6A C -0.1922(4) -0.4458(4) 0.1893(4)
H6A H -0.2575 -0.4167 0.1109
Cu1_2 Cu -0.5000 0.0000 1.0000
O2A_2 O 0.5342(3) 0.1107(3) -0.3209(2)
O3A_2 O 0.6707(2) -0.1041(3) -0.1580(2)
loop_
_geom_bond_atom_site_label_1
_geom_bond_atom_site_label_2
_geom_bond_site_symmetry_1
_geom_bond_site_symmetry_2
Cu1 O2 1_555 1_555
O1 H1 1_555 1_555
O2 C7 1_555 1_555
O3 Cu1 1_555 1_555
N1 Cu1 1_555 1_555
N2 O1 1_555 1_555
C1 N1 1_555 1_555
H2 C1 1_555 1_555
C2 C1 1_555 1_555
H3 C2 1_555 1_555
C3 C2 1_555 1_555
C4 C3 1_555 1_555
H4 C4 1_555 1_555
C5 N1 1_555 1_555
H5 C5 1_555 1_555
C6 N2 1_555 1_555
H6 C6 1_555 1_555
C7 O3 1_555 1_555
C8 C7 1_555 1_555
H7 C8 1_555 1_555
H8 C8 1_555 1_555
C9 C8 1_555 1_555
H9 C9 1_555 1_555
H10 C9 1_555 1_555
O2A C7A 1_555 1_555
O3A C7A 1_555 1_555
C7A C8A 1_555 1_555
C8A H7A 1_555 1_555
H8A C8A 1_555 1_555
C9A C9 1_555 1_555
H9A C9A 1_555 1_555
H10A C9A 1_555 1_555
O1A H1A 1_555 1_555
N1A Cu1 1_555 1_555
N2A O1A 1_555 1_555
C1A N1A 1_555 1_555
H2A C1A 1_555 1_555
C2A C1A 1_555 1_555
H3A C2A 1_555 1_555
C3A C2A 1_555 1_555
C4A C3A 1_555 1_555
H4A C4A 1_555 1_555
C5A N1A 1_555 1_555
H5A C5A 1_555 1_555
C6A N2A 1_555 1_555
H6A C6A 1_555 1_555
Cu1_2 O2A 1_555 1_555
O2A_2 Cu1 1_555 1_555
O3A_2 Cu1 1_555 1_555
C3 C6 1_555 1_555
C4 C5 1_555 1_555
O3A Cu1_2 1_555 1_555
C8A C9A 1_555 1_555
C3A C6A 1_555 1_555
C4A C5A 1_555 1_555

#END
