
#######################################################################
#
#                 Cambridge Crystallographic Data Centre
#                                CCDC 
#
#######################################################################
#
# If this CIF has been generated from an entry in the Cambridge 
# Structural Database, then it will include bibliographic, chemical, 
# crystal, experimental, refinement or atomic coordinate data resulting 
# from the CCDC's data processing and validation procedures.
#
#######################################################################

data_COVYET
_symmetry_cell_setting           triclinic
_symmetry_space_group_name_H-M   'P -1'
_symmetry_Int_Tables_number      2
_space_group_name_Hall           '-P 1'
loop_
_symmetry_equiv_pos_site_id
_symmetry_equiv_pos_as_xyz
1 x,y,z
2 -x,-y,-z
_cell_length_a                   8.6725(9)
_cell_length_b                   8.8145(9)
_cell_length_c                   13.3980(13)
_cell_angle_alpha                78.991(2)
_cell_angle_beta                 73.520(2)
_cell_angle_gamma                82.909(2)
_cell_volume                     961.43
loop_
_atom_site_label
_atom_site_type_symbol
_atom_site_fract_x
_atom_site_fract_y
_atom_site_fract_z
Cu1 Cu 0.27201(7) 0.52948(9) 0.24032(5)
Cu2 Cu 0.14176(7) 0.36953(8) 0.07062(5)
Cu3 Cu 0.5000 0.5000 0.0000
Cu4 Cu 0.0000 0.5000 0.5000
O1 O 0.3289(4) 0.4080(4) 0.1188(3)
H1 H 0.3743 0.3059 0.1451
N1 N 0.4838(5) 0.6202(6) 0.1891(4)
N2 N 0.5673(5) 0.6057(5) 0.0915(3)
N3 N 0.7087(5) 0.6657(6) 0.0692(3)
N4 N -0.0445(5) 0.4278(6) 0.3780(3)
N5 N 0.0613(5) 0.4379(6) 0.2832(3)
N6 N 0.0043(5) 0.3764(6) 0.2188(3)
N7 N 0.0278(3) 0.7163(4) -0.0386(3)
N8 N 0.1403(5) 0.6142(3) 0.0054(4)
N9 N 0.2747(5) 0.6980(5) -0.0038(5)
C1 C 0.2453(5) 0.8520(4) -0.0535(5)
H2 H 0.3139 0.9314 -0.0693
C2 C 0.0928(5) 0.8633(3) -0.0751(3)
H3 H 0.0440 0.9515 -0.1074
N10 N 0.1972(6) 0.8542(6) 0.2703(4)
N11 N 0.1751(5) 0.7076(6) 0.3142(3)
N12 N 0.0668(5) 0.6984(6) 0.4090(3)
O2 O 0.4351(10) 0.1920(10) 0.2472(6)
O3 O 0.3485(10) 0.3575(9) 0.3559(7)
C3 C 0.4098(7) 0.2298(9) 0.3342(6)
C4 C 0.4572(5) 0.1093(7) 0.4210(5)
C5 C 0.4148(11) 0.1379(7) 0.5241(4)
H4 H 0.3576 0.2304 0.5404
C6 C 0.5423(11) -0.0287(7) 0.3973(4)
H5 H 0.5708 -0.0481 0.3284
C7 C 0.7165(7) 0.7184(9) 0.1543(5)
H6 H 0.8027 0.7645 0.1616
C8 C 0.5727(8) 0.6914(10) 0.2295(5)
H7 H 0.5431 0.7182 0.2966
C9 C -0.1429(7) 0.3280(8) 0.2737(4)
H8 H -0.2118 0.2817 0.2485
C10 C -0.1708(7) 0.3604(8) 0.3732(4)
H9 H -0.2625 0.3389 0.4284
C11 C 0.0179(7) 0.8431(8) 0.4249(5)
H10 H -0.0575 0.8725 0.4840
C12 C 0.0986(9) 0.9412(8) 0.3384(6)
H11 H 0.0872 1.0489 0.3286
O2A O 0.5649(10) -0.1920(10) 0.7528(6)
O3A O 0.6515(10) -0.3575(9) 0.6441(7)
C3A C 0.5902(7) -0.2298(9) 0.6658(6)
C4A C 0.5428(5) -0.1093(7) 0.5790(5)
C5A C 0.5852(11) -0.1379(7) 0.4759(4)
H4A H 0.6424 -0.2304 0.4596
C6A C 0.4577(11) 0.0287(7) 0.6027(4)
H5A H 0.4292 0.0481 0.6716
Cu1A Cu -0.27201(7) 0.47052(9) -0.24032(5)
Cu2A Cu -0.14176(7) 0.63047(8) -0.07062(5)
O1A O -0.3289(4) 0.5920(4) -0.1188(3)
H1A H -0.3743 0.6941 -0.1451
N1A N -0.4838(5) 0.3798(6) -0.1891(4)
N2A N -0.5673(5) 0.3943(5) -0.0915(3)
N3A N -0.7087(5) 0.3343(6) -0.0692(3)
N4A N 0.0445(5) 0.5722(6) -0.3780(3)
N5A N -0.0613(5) 0.5621(6) -0.2832(3)
N6A N -0.0043(5) 0.6236(6) -0.2188(3)
N7A N -0.0278(3) 0.2837(4) 0.0386(3)
N8A N -0.1403(5) 0.3858(3) -0.0054(4)
N9A N -0.2747(5) 0.3020(5) 0.0038(5)
C1A C -0.2453(5) 0.1480(4) 0.0535(5)
H2A H -0.3139 0.0686 0.0693
C2A C -0.0928(5) 0.1367(3) 0.0751(3)
H3A H -0.0440 0.0485 0.1074
N10A N -0.1972(6) 0.1458(6) -0.2703(4)
N11A N -0.1751(5) 0.2924(6) -0.3142(3)
N12A N -0.0668(5) 0.3016(6) -0.4090(3)
C7A C -0.7165(7) 0.2816(9) -0.1543(5)
H6A H -0.8027 0.2355 -0.1616
C8A C -0.5727(8) 0.3086(10) -0.2295(5)
H7A H -0.5431 0.2818 -0.2966
C9A C 0.1429(7) 0.6720(8) -0.2737(4)
H8A H 0.2118 0.7183 -0.2485
C10A C 0.1708(7) 0.6396(8) -0.3732(4)
H9A H 0.2625 0.6611 -0.4284
C11A C -0.0179(7) 0.1569(8) -0.4249(5)
H10A H 0.0575 0.1275 -0.4840
C12A C -0.0986(9) 0.0588(8) -0.3384(6)
H11A H -0.0872 -0.0489 -0.3286
Cu1A_2 Cu 0.72799(7) -0.52948(9) 0.75968(5)
Cu2_2 Cu -0.85824(7) 0.36953(8) 0.07062(5)
Cu2A_2 Cu 0.85824(7) 0.63047(8) -0.07062(5)
Cu3_2 Cu -0.5000 0.5000 0.0000
Cu4_2 Cu 0.0000 0.5000 -0.5000
O1A_2 O 0.6711(4) 0.5920(4) -0.1188(3)
N2A_2 N 0.4327(5) 0.3943(5) -0.0915(3)
N3_2 N -0.2913(5) 0.6657(6) 0.0692(3)
N3A_2 N 0.2913(5) 0.3343(6) -0.0692(3)
N4A_2 N 0.0445(5) 0.5722(6) 0.6220(3)
N9A_2 N 0.7253(5) 0.3020(5) 0.0038(5)
N12A_2 N -0.0668(5) 0.3016(6) 0.5910(3)
O3A_2 O -0.3485(10) 0.6425(9) -0.3559(7)
O4 O 0.3629(12) 0.0839(12) 0.1063(7)
N13? N 0.0246(3) 0.7139(4) -0.0389(3)
N14? N 0.1092(5) 0.6227(4) 0.0309(3)
N15? N 0.2097(7) 0.7200(5) 0.0533(4)
C13? C 0.1872(7) 0.8714(4) -0.0027(5)
H12? H 0.2384 0.9578 -0.0021
C14? C 0.0728(5) 0.8676(3) -0.0596(3)
H13? H 0.0359 0.9510 -0.1030
O5? O 0.3855(12) 0.3190(12) 0.3144(6)
O6? O 0.2695(9) 0.3746(9) 0.4708(5)
C15? C 0.3559(7) 0.2893(9) 0.4112(6)
C16? C 0.4310(5) 0.1383(5) 0.4577(6)
C17? C 0.3943(11) 0.0926(7) 0.5661(4)
H14? H 0.3233 0.1549 0.6104
C18? C 0.5369(11) 0.0456(7) 0.3914(4)
H15? H 0.5615 0.0764 0.3186
O7? O 0.4338(12) -0.0047(12) 0.0901(8)
O8? O 0.461(2) 0.532(2) 0.4748(14)
loop_
_geom_bond_atom_site_label_1
_geom_bond_atom_site_label_2
_geom_bond_site_symmetry_1
_geom_bond_site_symmetry_2
Cu1 O1 1_555 1_555
Cu2 O1 1_555 1_555
Cu3 O1 1_555 1_555
Cu4 N4 1_555 1_555
O1 H1 1_555 1_555
N1 Cu1 1_555 1_555
N2 Cu3 1_555 1_555
N3 N2 1_555 1_555
N4 N5 1_555 1_555
N5 Cu1 1_555 1_555
N6 Cu2 1_555 1_555
N7 N8 1_555 1_555
N8 Cu2 1_555 1_555
N9 Cu3 1_555 1_555
C1 N9 1_555 1_555
H2 C1 1_555 1_555
C2 N7 1_555 1_555
H3 C2 1_555 1_555
N10 N11 1_555 1_555
N11 Cu1 1_555 1_555
N12 Cu4 1_555 1_555
O2 C3 1_555 1_555
O3 Cu1 1_555 1_555
C3 O3 1_555 1_555
C4 C3 1_555 1_555
C5 C4 1_555 1_555
H4 C5 1_555 1_555
C6 C4 1_555 1_555
H5 C6 1_555 1_555
C7 N3 1_555 1_555
H6 C7 1_555 1_555
C8 N1 1_555 1_555
H7 C8 1_555 1_555
C9 N6 1_555 1_555
H8 C9 1_555 1_555
C10 N4 1_555 1_555
H9 C10 1_555 1_555
C11 N12 1_555 1_555
H10 C11 1_555 1_555
C12 N10 1_555 1_555
H11 C12 1_555 1_555
O2A C3A 1_555 1_555
O3A C3A 1_555 1_555
C3A C4A 1_555 1_555
C4A C5A 1_555 1_555
C5A C6 1_555 1_555
H4A C5A 1_555 1_555
C6A C5 1_555 1_555
H5A C6A 1_555 1_555
Cu1A O1A 1_555 1_555
Cu2A N7 1_555 1_555
O1A Cu2A 1_555 1_555
H1A O1A 1_555 1_555
N1A Cu1A 1_555 1_555
N2A N1A 1_555 1_555
N3A N2A 1_555 1_555
N4A N5A 1_555 1_555
N5A Cu1A 1_555 1_555
N6A Cu2A 1_555 1_555
N7A Cu2 1_555 1_555
N8A Cu2A 1_555 1_555
N9A N8A 1_555 1_555
C1A N9A 1_555 1_555
H2A C1A 1_555 1_555
C2A N7A 1_555 1_555
H3A C2A 1_555 1_555
N10A N11A 1_555 1_555
N11A Cu1A 1_555 1_555
N12A N11A 1_555 1_555
C7A N3A 1_555 1_555
H6A C7A 1_555 1_555
C8A N1A 1_555 1_555
H7A C8A 1_555 1_555
C9A N6A 1_555 1_555
H8A C9A 1_555 1_555
C10A N4A 1_555 1_555
H9A C10A 1_555 1_555
C11A N12A 1_555 1_555
H10A C11A 1_555 1_555
C12A N10A 1_555 1_555
H11A C12A 1_555 1_555
Cu1A_2 O3A 1_555 1_555
Cu2_2 N3A 1_555 1_555
Cu2A_2 N3 1_555 1_555
Cu3_2 O1A 1_555 1_555
Cu4_2 N4A 1_555 1_555
O1A_2 Cu3 1_555 1_555
N2A_2 Cu3 1_555 1_555
N3_2 Cu2A 1_555 1_555
N3A_2 Cu2 1_555 1_555
N4A_2 Cu4 1_555 1_555
N9A_2 Cu3 1_555 1_555
N12A_2 Cu4 1_555 1_555
O3A_2 Cu1A 1_555 1_555
N1 N2 1_555 1_555
N5 N6 1_555 1_555
N8 N9 1_555 1_555
C1 C2 1_555 1_555
N11 N12 1_555 1_555
C7 C8 1_555 1_555
C9 C10 1_555 1_555
C11 C12 1_555 1_555
C4A C6A 1_555 1_555
N2A Cu3_2 1_555 1_555
N5A N6A 1_555 1_555
N7A N8A 1_555 1_555
N9A Cu3_2 1_555 1_555
C1A C2A 1_555 1_555
N12A Cu4_2 1_555 1_555
C7A C8A 1_555 1_555
C9A C10A 1_555 1_555
C11A C12A 1_555 1_555
Cu2A_2 O1A_2 1_555 1_555
N2A_2 N3A_2 1_555 1_555

#END
