
#######################################################################
#
#                 Cambridge Crystallographic Data Centre
#                                CCDC 
#
#######################################################################
#
# If this CIF has been generated from an entry in the Cambridge 
# Structural Database, then it will include bibliographic, chemical, 
# crystal, experimental, refinement or atomic coordinate data resulting 
# from the CCDC's data processing and validation procedures.
#
#######################################################################

data_COVYOD
_symmetry_cell_setting           triclinic
_symmetry_space_group_name_H-M   'P -1'
_symmetry_Int_Tables_number      2
_space_group_name_Hall           '-P 1'
loop_
_symmetry_equiv_pos_site_id
_symmetry_equiv_pos_as_xyz
1 x,y,z
2 -x,-y,-z
_cell_length_a                   8.3870(6)
_cell_length_b                   8.4427(7)
_cell_length_c                   10.0939(8)
_cell_angle_alpha                113.9400(10)
_cell_angle_beta                 94.1230(10)
_cell_angle_gamma                95.5090(10)
_cell_volume                     645.387
loop_
_atom_site_label
_atom_site_type_symbol
_atom_site_fract_x
_atom_site_fract_y
_atom_site_fract_z
Cu1 Cu 0.29259(4) 0.23314(4) 0.61551(3)
Cu2 Cu 0.11009(3) -0.14677(4) 0.49238(3)
Cu3 Cu 0.5000 0.5000 0.5000
O1 O 0.2919(2) -0.1598(2) 0.6178(2)
O2 O 0.4136(2) 0.1198(2) 0.71387(19)
O3 O 0.7382(2) 0.0653(2) 0.61454(19)
O4 O 0.8413(2) 0.2689(3) 0.8338(2)
O5 O 0.4870(2) 0.3591(2) 0.6066(2)
H1 H 0.5609 0.2975 0.6031
O6 O 0.0789(2) 0.1340(2) 0.62684(19)
H2 H 0.0627 0.1637 0.7143
N1 N 0.2652(3) 0.4208(3) 0.4298(2)
N2 N 0.1873(2) 0.3268(3) 0.4889(2)
N3 N 0.0340(3) 0.2792(3) 0.4291(2)
C1 C 0.0143(3) 0.3455(3) 0.3290(3)
H3 H -0.0827 0.3326 0.2687
C2 C 0.1598(3) 0.4348(3) 0.3302(3)
H4 H 0.1820 0.4958 0.2711
C3 C 0.5299(3) -0.0823(3) 0.7814(3)
C4 C 0.6874(3) 0.0105(3) 0.8218(3)
C5 C 0.7913(3) -0.0170(4) 0.9209(3)
H5 H 0.8962 0.0483 0.9515
C6 C 0.7452(3) -0.1382(4) 0.9768(3)
H6 H 0.8182 -0.1551 1.0448
C7 C 0.5923(3) -0.2343(4) 0.9327(3)
H7 H 0.5608 -0.3192 0.9686
C8 C 0.4863(3) -0.2054(3) 0.8361(3)
H8 H 0.3815 -0.2708 0.8064
C9 C 0.4031(3) -0.0371(3) 0.6960(3)
C10 C 0.7575(3) 0.1276(3) 0.7541(3)
Cu1A Cu -0.29259(4) -0.23314(4) 0.38449(3)
Cu2A Cu -0.11009(3) 0.14677(4) 0.50762(3)
O1A O -0.2919(2) 0.1598(2) 0.3822(2)
O2A O -0.4136(2) -0.1198(2) 0.28613(19)
O3A O -0.7382(2) -0.0653(2) 0.38546(19)
O4A O -0.8413(2) -0.2689(3) 0.1662(2)
O5A O -0.4870(2) -0.3591(2) 0.3934(2)
H1A H -0.5609 -0.2975 0.3969
O6A O -0.0789(2) -0.1340(2) 0.37316(19)
H2A H -0.0627 -0.1637 0.2857
N1A N -0.2652(3) -0.4208(3) 0.5702(2)
N2A N -0.1873(2) -0.3268(3) 0.5111(2)
N3A N -0.0340(3) -0.2792(3) 0.5709(2)
C1A C -0.0143(3) -0.3455(3) 0.6710(3)
H3A H 0.0827 -0.3326 0.7313
C2A C -0.1598(3) -0.4348(3) 0.6698(3)
H4A H -0.1820 -0.4958 0.7289
C3A C -0.5299(3) 0.0823(3) 0.2186(3)
C4A C -0.6874(3) -0.0105(3) 0.1782(3)
C5A C -0.7913(3) 0.0170(4) 0.0791(3)
H5A H -0.8962 -0.0483 0.0485
C6A C -0.7452(3) 0.1382(4) 0.0232(3)
H6A H -0.8182 0.1551 -0.0448
C7A C -0.5923(3) 0.2343(4) 0.0673(3)
H7A H -0.5608 0.3192 0.0314
C8A C -0.4863(3) 0.2054(3) 0.1639(3)
H8A H -0.3815 0.2708 0.1936
C9A C -0.4031(3) 0.0371(3) 0.3040(3)
C10A C -0.7575(3) -0.1276(3) 0.2459(3)
Cu1_2 Cu -0.70741(4) 0.23314(4) 0.61551(3)
Cu1A_2 Cu 0.70741(4) -0.23314(4) 0.38449(3)
Cu2_2 Cu -0.88991(3) -0.14677(4) 0.49238(3)
Cu2A_2 Cu 0.88991(3) 0.14677(4) 0.50762(3)
Cu3_2 Cu -0.5000 -0.5000 0.5000
O3_2 O -0.2618(2) 0.0653(2) 0.61454(19)
O3A_2 O 0.2618(2) -0.0653(2) 0.38546(19)
O5A_2 O 0.5130(2) 0.6409(2) 0.3934(2)
N1A_2 N 0.7348(3) 0.5792(3) 0.5702(2)
O7 O 0.8311(3) 0.5149(3) 0.1250(2)
H9 H 0.8122 0.4349 0.0401
H10 H 0.9257 0.5658 0.1376
loop_
_geom_bond_atom_site_label_1
_geom_bond_atom_site_label_2
_geom_bond_site_symmetry_1
_geom_bond_site_symmetry_2
Cu1 O2 1_555 1_555
Cu2 O1 1_555 1_555
Cu3 O5 1_555 1_555
O1 C9 1_555 1_555
O2 C9 1_555 1_555
O3 C10 1_555 1_555
O4 C10 1_555 1_555
O5 Cu1 1_555 1_555
H1 O5 1_555 1_555
O6 Cu1 1_555 1_555
H2 O6 1_555 1_555
N1 Cu3 1_555 1_555
N2 Cu1 1_555 1_555
N3 N2 1_555 1_555
C1 N3 1_555 1_555
H3 C1 1_555 1_555
C2 N1 1_555 1_555
H4 C2 1_555 1_555
C3 C4 1_555 1_555
C4 C5 1_555 1_555
C5 H5 1_555 1_555
C6 C5 1_555 1_555
H6 C6 1_555 1_555
C7 C6 1_555 1_555
H7 C7 1_555 1_555
C8 C3 1_555 1_555
H8 C8 1_555 1_555
C9 C3 1_555 1_555
C10 C4 1_555 1_555
O7 H9 1_555 1_555
H10 O7 1_555 1_555
Cu1A O2A 1_555 1_555
Cu2A O6 1_555 1_555
O1A Cu2A 1_555 1_555
O2A C9A 1_555 1_555
O3A C10A 1_555 1_555
O4A C10A 1_555 1_555
O5A Cu1A 1_555 1_555
H1A O5A 1_555 1_555
O6A Cu2 1_555 1_555
H2A O6A 1_555 1_555
N1A N2A 1_555 1_555
N2A Cu1A 1_555 1_555
N3A Cu2 1_555 1_555
C1A N3A 1_555 1_555
H3A C1A 1_555 1_555
C2A N1A 1_555 1_555
H4A C2A 1_555 1_555
C3A C4A 1_555 1_555
C4A C5A 1_555 1_555
C5A H5A 1_555 1_555
C6A C5A 1_555 1_555
H6A C6A 1_555 1_555
C7A C6A 1_555 1_555
H7A C7A 1_555 1_555
C8A C3A 1_555 1_555
H8A C8A 1_555 1_555
C9A O1A 1_555 1_555
C10A C4A 1_555 1_555
Cu1_2 O3A 1_555 1_555
Cu1A_2 O3 1_555 1_555
Cu2_2 O3A 1_555 1_555
Cu2A_2 O3 1_555 1_555
Cu3_2 O5A 1_555 1_555
O3_2 Cu1A 1_555 1_555
O3A_2 Cu1 1_555 1_555
O5A_2 Cu3 1_555 1_555
N1A_2 Cu3 1_555 1_555
Cu2 O6 1_555 1_555
Cu2 O3A_2 1_555 1_555
N1 N2 1_555 1_555
N3 Cu2A 1_555 1_555
C1 C2 1_555 1_555
C7 C8 1_555 1_555
Cu1A O6A 1_555 1_555
Cu2A O6A 1_555 1_555
Cu2A O3_2 1_555 1_555
N1A Cu3_2 1_555 1_555
N2A N3A 1_555 1_555
C1A C2A 1_555 1_555
C3A C9A 1_555 1_555
C7A C8A 1_555 1_555

#END
