
#######################################################################
#
#                 Cambridge Crystallographic Data Centre
#                                CCDC 
#
#######################################################################
#
# If this CIF has been generated from an entry in the Cambridge 
# Structural Database, then it will include bibliographic, chemical, 
# crystal, experimental, refinement or atomic coordinate data resulting 
# from the CCDC's data processing and validation procedures.
#
#######################################################################

data_COWBAT
_symmetry_cell_setting           triclinic
_symmetry_space_group_name_H-M   'P -1'
_symmetry_Int_Tables_number      2
_space_group_name_Hall           '-P 1'
loop_
_symmetry_equiv_pos_site_id
_symmetry_equiv_pos_as_xyz
1 x,y,z
2 -x,-y,-z
_cell_length_a                   14.4722(8)
_cell_length_b                   15.3230(8)
_cell_length_c                   18.8669(10)
_cell_angle_alpha                94.3300(10)
_cell_angle_beta                 94.5840(10)
_cell_angle_gamma                102.5330(10)
_cell_volume                     4052.54
loop_
_atom_site_label
_atom_site_type_symbol
_atom_site_fract_x
_atom_site_fract_y
_atom_site_fract_z
Zn1 Zn 0.50242(3) 0.51571(3) 0.23894(2)
Zn2 Zn -0.08802(3) 0.74925(3) 0.46239(2)
Zn3 Zn -0.38627(3) 0.87356(3) 0.15091(2)
Zn4 Zn 0.58376(3) 1.19407(4) 0.37243(3)
O1 O 0.3971(2) 0.5804(2) 0.26230(17)
O2 O 0.4594(2) 0.6868(2) 0.35040(16)
O3 O 0.4693(2) 0.8892(2) 0.33279(16)
O4 O 0.3812(2) 0.8536(2) 0.42183(15)
O5 O -0.0736(2) 0.76256(19) 0.35977(13)
O6 O -0.1877(2) 0.6388(2) 0.34425(16)
O7 O -0.29882(19) 0.78440(19) 0.14813(14)
O8 O -0.2915(2) 0.7493(3) 0.25985(16)
O9 O 0.5919(2) 0.5912(2) 0.32288(18)
H1 H 0.567(3) 0.637(2) 0.333(3)
H2 H 0.6525(11) 0.608(3) 0.318(3)
O10 O -0.4490(2) 0.8081(2) 0.22918(16)
H3 H -0.405(2) 0.787(3) 0.252(2)
H4 H -0.474(3) 0.836(3) 0.2617(17)
O11 O -0.2847(2) 0.98163(19) 0.16274(15)
O12 O -0.3178(3) 1.0115(2) 0.27250(19)
O13 O -0.2565(3) 1.1957(3) 0.3849(2)
O14 O -0.3363(2) 1.2049(2) 0.2858(2)
O15 O 0.3859(2) 1.3915(2) 0.17351(16)
O16 O 0.44249(19) 1.4010(2) 0.28589(16)
O17 O 0.4672(2) 1.2107(3) 0.32245(16)
O18 O 0.4041(2) 1.2651(3) 0.41565(16)
O19 O 0.5729(3) 1.0581(3) 0.3717(2)
H5 H 0.533(4) 1.062(5) 0.335(2)
H6 H 0.534(4) 1.005(2) 0.363(3)
O20 O 0.5717(3) 1.2340(3) 0.47191(19)
H7 H 0.551(4) 1.1783(17) 0.453(3)
H8 H 0.585(4) 1.200(3) 0.505(2)
O21 O 0.6036(6) 1.3562(6) 0.3773(5)
N1 N 0.6230(2) 0.4718(2) 0.19995(19)
N2 N 0.5162(2) 0.5741(2) 0.14070(18)
N3 N 0.0342(2) 0.6900(2) 0.47575(17)
N4 N -0.1319(2) 0.6547(2) 0.53438(17)
N5 N -0.0219(2) 0.8636(2) 0.53515(15)
N6 N -0.1994(2) 0.8192(2) 0.46805(16)
N7 N -0.4069(2) 0.8572(2) 0.03715(17)
N8 N -0.5188(2) 0.9169(2) 0.12619(19)
F1 F 0.08314(18) 0.63613(17) 0.01616(11)
F2 F 0.13286(18) 0.76706(16) 0.07186(12)
F3 F 0.22216(17) 0.67326(19) 0.07096(13)
F4 F -0.00009(17) 0.50615(16) 0.09364(13)
F5 F 0.06129(17) 0.51144(15) 0.20124(12)
F6 F 0.14877(17) 0.51264(16) 0.11461(13)
F7 F 0.0643(2) 1.3182(2) 0.12748(18)
F8 F 0.1171(2) 1.2336(3) 0.05348(14)
F9 F -0.0328(2) 1.2139(3) 0.06127(16)
F10 F -0.0147(2) 1.0507(3) 0.06493(16)
F11 F 0.0414(2) 1.01185(19) 0.1624(2)
F12 F 0.1363(2) 1.0753(2) 0.0903(2)
C1 C 0.3984(3) 0.6519(3) 0.3001(2)
C2 C 0.3189(2) 0.6977(3) 0.27997(19)
C3 C 0.3216(3) 0.7868(3) 0.30633(18)
C4 C 0.2488(3) 0.8268(3) 0.2805(2)
H9 H 0.2499 0.8858 0.2970
C5 C 0.1757(3) 0.7807(3) 0.2314(2)
H10 H 0.1283 0.8088 0.2153
C6 C 0.1722(2) 0.6921(2) 0.20570(19)
C7 C 0.2447(2) 0.6532(3) 0.23037(19)
H11 H 0.2436 0.5946 0.2129
C8 C 0.3985(3) 0.8460(3) 0.3585(2)
C9 C 0.0942(3) 0.6471(2) 0.14529(19)
C10 C 0.1328(3) 0.6802(3) 0.0753(2)
C11 C 0.0765(3) 0.5436(3) 0.1386(2)
C12 C -0.0016(3) 0.6717(2) 0.15771(19)
C13 C -0.0298(2) 0.6728(2) 0.22637(18)
H12 H 0.0091 0.6574 0.2628
C14 C -0.1138(2) 0.6961(2) 0.24277(18)
C15 C -0.1720(3) 0.7206(2) 0.18800(19)
C16 C -0.1440(3) 0.7173(3) 0.1194(2)
H13 H -0.1820 0.7329 0.0825
C17 C -0.0614(3) 0.6917(3) 0.10406(19)
H14 H -0.0462 0.6880 0.0571
C18 C -0.1301(3) 0.6991(3) 0.32091(19)
C19 C -0.2605(3) 0.7545(3) 0.2011(2)
C20 C 0.6736(4) 0.4191(4) 0.2294(3)
H15 H 0.6580 0.3965 0.2724
C21 C 0.7506(5) 0.3968(5) 0.1967(4)
H16 H 0.7871 0.3619 0.2192
C22 C 0.7721(4) 0.4258(4) 0.1323(4)
H17 H 0.8216 0.4092 0.1102
C23 C 0.7205(4) 0.4796(3) 0.1003(3)
C24 C 0.7341(5) 0.5127(4) 0.0314(3)
H18 H 0.7841 0.5002 0.0073
C25 C 0.6784(5) 0.5599(4) 0.0012(3)
H19 H 0.6896 0.5793 -0.0435
C26 C 0.6017(4) 0.5815(3) 0.0360(2)
C27 C 0.5371(5) 0.6281(4) 0.0051(3)
H20 H 0.5437 0.6464 -0.0404
C28 C 0.4662(5) 0.6461(3) 0.0414(3)
H21 H 0.4222 0.6751 0.0206
C29 C 0.4592(4) 0.6207(3) 0.1105(3)
H22 H 0.4127 0.6372 0.1365
C30 C 0.5861(3) 0.5545(3) 0.1039(2)
C31 C 0.6448(3) 0.5014(3) 0.1361(2)
C32 C 0.1150(3) 0.7066(3) 0.4455(2)
H23 H 0.1204 0.7454 0.4097
C33 C 0.1918(3) 0.6699(3) 0.4639(2)
H24 H 0.2474 0.6842 0.4416
C34 C 0.1837(3) 0.6124(3) 0.5155(3)
H25 H 0.2343 0.5868 0.5288
C35 C 0.0998(3) 0.5913(3) 0.5488(2)
C36 C 0.0837(4) 0.5305(3) 0.6032(2)
H26 H 0.1316 0.5022 0.6180
C37 C 0.0013(4) 0.5135(3) 0.6333(2)
H27 H -0.0064 0.4742 0.6688
C38 C -0.0743(4) 0.5545(3) 0.6120(2)
C39 C -0.1630(5) 0.5380(3) 0.6401(3)
H28 H -0.1741 0.4995 0.6758
C40 C -0.2327(4) 0.5784(3) 0.6153(3)
H29 H -0.2918 0.5666 0.6331
C41 C -0.2145(3) 0.6373(3) 0.5630(2)
H30 H -0.2619 0.6658 0.5474
C42 C -0.0625(3) 0.6140(2) 0.55869(19)
C43 C 0.0261(3) 0.6322(2) 0.52692(19)
C44 C 0.0655(3) 0.8849(3) 0.5679(2)
H31 H 0.1062 0.8468 0.5592
C45 C 0.0992(3) 0.9627(3) 0.6150(2)
H32 H 0.1610 0.9755 0.6370
C46 C 0.0412(3) 1.0184(3) 0.6281(2)
H33 H 0.0626 1.0696 0.6599
C47 C -0.0510(3) 0.9996(3) 0.5942(2)
C48 C -0.1174(3) 1.0559(3) 0.6029(2)
H34 H -0.0998 1.1079 0.6343
C49 C -0.2047(3) 1.0355(3) 0.5669(2)
H35 H -0.2454 1.0741 0.5730
C50 C -0.2352(3) 0.9562(3) 0.5201(2)
C51 C -0.3245(3) 0.9322(4) 0.4812(2)
H36 H -0.3673 0.9692 0.4853
C52 C -0.3490(4) 0.8533(4) 0.4366(3)
H37 H -0.4082 0.8365 0.4102
C53 C -0.2839(3) 0.8000(4) 0.4319(2)
H38 H -0.3007 0.7473 0.4014
C54 C -0.1747(3) 0.8971(3) 0.51112(18)
C55 C -0.0803(3) 0.9199(2) 0.54787(18)
C56 C -0.3482(4) 0.8330(3) -0.0065(2)
H39 H -0.2888 0.8270 0.0125
C57 C -0.3720(5) 0.8162(3) -0.0797(3)
H40 H -0.3284 0.7996 -0.1087
C58 C -0.4551(5) 0.8233(3) -0.1085(3)
H41 H -0.4705 0.8111 -0.1576
C59 C -0.5208(4) 0.8493(3) -0.0654(3)
C60 C -0.6145(5) 0.8606(4) -0.0898(3)
H42 H -0.6359 0.8478 -0.1380
C61 C -0.6711(4) 0.8889(4) -0.0450(4)
H43 H -0.7314 0.8941 -0.0625
C62 C -0.6410(3) 0.9112(3) 0.0289(3)
C63 C -0.6943(4) 0.9456(4) 0.0776(4)
H44 H -0.7534 0.9552 0.0618
C64 C -0.6619(4) 0.9652(4) 0.1472(4)
H45 H -0.6981 0.9885 0.1791
C65 C -0.5719(4) 0.9496(4) 0.1710(3)
H46 H -0.5495 0.9626 0.2191
C66 C -0.5520(3) 0.8995(3) 0.0567(2)
C67 C -0.4919(3) 0.8673(3) 0.0088(2)
C68 C -0.2717(3) 1.0290(3) 0.2217(2)
C69 C -0.1882(2) 1.1088(2) 0.22971(19)
C70 C -0.1826(3) 1.1831(3) 0.2784(2)
C71 C -0.0986(3) 1.2486(3) 0.2881(2)
H47 H -0.0934 1.2982 0.3210
C72 C -0.0238(3) 1.2419(3) 0.2506(2)
H48 H 0.0319 1.2864 0.2588
C73 C -0.0290(3) 1.1695(2) 0.20002(19)
C74 C -0.1124(3) 1.1032(3) 0.19025(19)
H49 H -0.1176 1.0542 0.1567
C75 C -0.2623(3) 1.1942(3) 0.3206(3)
C76 C 0.0568(3) 1.1691(3) 0.1575(2)
C77 C 0.0531(3) 1.0762(4) 0.1177(3)
C78 C 0.0521(3) 1.2351(4) 0.0998(3)
C79 C 0.1482(3) 1.1957(3) 0.20763(19)
C80 C 0.2246(2) 1.2648(2) 0.19835(19)
H50 H 0.2206 1.2990 0.1600
C81 C 0.3078(2) 1.2842(2) 0.24584(18)
C82 C 0.3147(3) 1.2323(3) 0.3027(2)
C83 C 0.2365(3) 1.1653(3) 0.3121(2)
H51 H 0.2397 1.1312 0.3506
C84 C 0.1544(3) 1.1473(3) 0.2664(2)
H52 H 0.1028 1.1026 0.2749
C85 C 0.3845(3) 1.3632(3) 0.2333(2)
C86 C 0.4031(3) 1.2399(3) 0.3519(2)
Zn1_2 Zn 0.50242(3) 1.51571(3) 0.23894(2)
Zn4_2 Zn -0.41624(3) 1.19407(4) 0.37243(3)
O13_2 O 0.7435(3) 1.1957(3) 0.3849(2)
O14_2 O 0.6637(2) 1.2049(2) 0.2858(2)
O15_2 O 0.3859(2) 0.3915(2) 0.17351(16)
O16_2 O 0.44249(19) 0.4010(2) 0.28589(16)
loop_
_geom_bond_atom_site_label_1
_geom_bond_atom_site_label_2
_geom_bond_site_symmetry_1
_geom_bond_site_symmetry_2
Zn1 O1 1_555 1_555
Zn2 O5 1_555 1_555
Zn3 O7 1_555 1_555
Zn4 O17 1_555 1_555
O1 C1 1_555 1_555
O2 C1 1_555 1_555
O3 C8 1_555 1_555
O4 C8 1_555 1_555
O5 C18 1_555 1_555
O6 C18 1_555 1_555
O7 C19 1_555 1_555
O8 C19 1_555 1_555
O9 Zn1 1_555 1_555
H1 O9 1_555 1_555
H2 O9 1_555 1_555
O10 Zn3 1_555 1_555
H3 O10 1_555 1_555
H4 O10 1_555 1_555
O11 Zn3 1_555 1_555
O12 C68 1_555 1_555
O13 C75 1_555 1_555
O14 C75 1_555 1_555
O15 C85 1_555 1_555
O16 C85 1_555 1_555
O17 C86 1_555 1_555
O18 C86 1_555 1_555
O19 Zn4 1_555 1_555
H5 O19 1_555 1_555
H6 O19 1_555 1_555
O20 Zn4 1_555 1_555
H7 O20 1_555 1_555
H8 O20 1_555 1_555
O21 Zn4 1_555 1_555
N1 Zn1 1_555 1_555
N2 Zn1 1_555 1_555
N3 Zn2 1_555 1_555
N4 Zn2 1_555 1_555
N5 Zn2 1_555 1_555
N6 Zn2 1_555 1_555
N7 Zn3 1_555 1_555
N8 Zn3 1_555 1_555
F1 C10 1_555 1_555
F2 C10 1_555 1_555
F3 C10 1_555 1_555
F4 C11 1_555 1_555
F5 C11 1_555 1_555
F6 C11 1_555 1_555
F7 C78 1_555 1_555
F8 C78 1_555 1_555
F9 C78 1_555 1_555
F10 C77 1_555 1_555
F11 C77 1_555 1_555
F12 C77 1_555 1_555
C1 C2 1_555 1_555
C2 C3 1_555 1_555
C3 C4 1_555 1_555
C4 H9 1_555 1_555
C5 C4 1_555 1_555
H10 C5 1_555 1_555
C6 C5 1_555 1_555
C7 C2 1_555 1_555
H11 C7 1_555 1_555
C8 C3 1_555 1_555
C9 C6 1_555 1_555
C10 C9 1_555 1_555
C11 C9 1_555 1_555
C12 C9 1_555 1_555
C13 C12 1_555 1_555
H12 C13 1_555 1_555
C14 C13 1_555 1_555
C15 C14 1_555 1_555
C16 C15 1_555 1_555
H13 C16 1_555 1_555
C17 C12 1_555 1_555
H14 C17 1_555 1_555
C18 C14 1_555 1_555
C19 C15 1_555 1_555
C20 N1 1_555 1_555
H15 C20 1_555 1_555
C21 C20 1_555 1_555
H16 C21 1_555 1_555
C22 C21 1_555 1_555
H17 C22 1_555 1_555
C23 C22 1_555 1_555
C24 C23 1_555 1_555
H18 C24 1_555 1_555
C25 C24 1_555 1_555
H19 C25 1_555 1_555
C26 C25 1_555 1_555
C27 C26 1_555 1_555
H20 C27 1_555 1_555
C28 C27 1_555 1_555
H21 C28 1_555 1_555
C29 N2 1_555 1_555
H22 C29 1_555 1_555
C30 N2 1_555 1_555
C31 N1 1_555 1_555
C32 N3 1_555 1_555
H23 C32 1_555 1_555
C33 C32 1_555 1_555
H24 C33 1_555 1_555
C34 C33 1_555 1_555
H25 C34 1_555 1_555
C35 C34 1_555 1_555
C36 C35 1_555 1_555
H26 C36 1_555 1_555
C37 C36 1_555 1_555
H27 C37 1_555 1_555
C38 C37 1_555 1_555
C39 C38 1_555 1_555
H28 C39 1_555 1_555
C40 C39 1_555 1_555
H29 C40 1_555 1_555
C41 N4 1_555 1_555
H30 C41 1_555 1_555
C42 N4 1_555 1_555
C43 N3 1_555 1_555
C44 N5 1_555 1_555
H31 C44 1_555 1_555
C45 C44 1_555 1_555
H32 C45 1_555 1_555
C46 C45 1_555 1_555
H33 C46 1_555 1_555
C47 C46 1_555 1_555
C48 C47 1_555 1_555
H34 C48 1_555 1_555
C49 C48 1_555 1_555
H35 C49 1_555 1_555
C50 C49 1_555 1_555
C51 C50 1_555 1_555
H36 C51 1_555 1_555
C52 C51 1_555 1_555
H37 C52 1_555 1_555
C53 N6 1_555 1_555
H38 C53 1_555 1_555
C54 N6 1_555 1_555
C55 N5 1_555 1_555
C56 N7 1_555 1_555
H39 C56 1_555 1_555
C57 C56 1_555 1_555
H40 C57 1_555 1_555
C58 C57 1_555 1_555
H41 C58 1_555 1_555
C59 C58 1_555 1_555
C60 C59 1_555 1_555
H42 C60 1_555 1_555
C61 C60 1_555 1_555
H43 C61 1_555 1_555
C62 C61 1_555 1_555
C63 C62 1_555 1_555
H44 C63 1_555 1_555
C64 C63 1_555 1_555
H45 C64 1_555 1_555
C65 N8 1_555 1_555
H46 C65 1_555 1_555
C66 N8 1_555 1_555
C67 N7 1_555 1_555
C68 O11 1_555 1_555
C69 C68 1_555 1_555
C70 C69 1_555 1_555
C71 C70 1_555 1_555
H47 C71 1_555 1_555
C72 C71 1_555 1_555
H48 C72 1_555 1_555
C73 C72 1_555 1_555
C74 C69 1_555 1_555
H49 C74 1_555 1_555
C75 C70 1_555 1_555
C76 C73 1_555 1_555
C77 C76 1_555 1_555
C78 C76 1_555 1_555
C79 C76 1_555 1_555
C80 C79 1_555 1_555
H50 C80 1_555 1_555
C81 C80 1_555 1_555
C82 C81 1_555 1_555
C83 C82 1_555 1_555
H51 C83 1_555 1_555
C84 C79 1_555 1_555
H52 C84 1_555 1_555
C85 C81 1_555 1_555
C86 C82 1_555 1_555
Zn1_2 O15 1_555 1_555
Zn4_2 O13 1_555 1_555
O13_2 Zn4 1_555 1_555
O14_2 Zn4 1_555 1_555
O15_2 Zn1 1_555 1_555
O16_2 Zn1 1_555 1_555
O14 Zn4_2 1_555 1_555
O16 Zn1_2 1_555 1_555
C6 C7 1_555 1_555
C16 C17 1_555 1_555
C23 C31 1_555 1_555
C26 C30 1_555 1_555
C28 C29 1_555 1_555
C30 C31 1_555 1_555
C35 C43 1_555 1_555
C38 C42 1_555 1_555
C40 C41 1_555 1_555
C42 C43 1_555 1_555
C47 C55 1_555 1_555
C50 C54 1_555 1_555
C52 C53 1_555 1_555
C54 C55 1_555 1_555
C59 C67 1_555 1_555
C62 C66 1_555 1_555
C64 C65 1_555 1_555
C66 C67 1_555 1_555
C73 C74 1_555 1_555
C83 C84 1_555 1_555

#END
