
#######################################################################
#
#                 Cambridge Crystallographic Data Centre
#                                CCDC 
#
#######################################################################
#
# If this CIF has been generated from an entry in the Cambridge 
# Structural Database, then it will include bibliographic, chemical, 
# crystal, experimental, refinement or atomic coordinate data resulting 
# from the CCDC's data processing and validation procedures.
#
#######################################################################

data_COWBOG
_symmetry_cell_setting           orthorhombic
_symmetry_space_group_name_H-M   'P n a 21'
_symmetry_Int_Tables_number      33
_space_group_name_Hall           'P 2c -2n'
loop_
_symmetry_equiv_pos_site_id
_symmetry_equiv_pos_as_xyz
1 x,y,z
2 -x,-y,1/2+z
3 1/2+x,1/2-y,z
4 1/2-x,1/2+y,1/2+z
_cell_length_a                   16.578(3)
_cell_length_b                   15.421(3)
_cell_length_c                   11.988(2)
_cell_angle_alpha                90
_cell_angle_beta                 90
_cell_angle_gamma                90
_cell_volume                     3064.72
loop_
_atom_site_label
_atom_site_type_symbol
_atom_site_fract_x
_atom_site_fract_y
_atom_site_fract_z
Cu1 Cu 0.76481(3) 0.84915(3) 0.45679(4)
Cu2 Cu 0.75795(3) 0.86990(3) 0.94236(4)
O1 O 0.9220(2) 0.8775(2) 0.9561(3)
O2 O 0.83401(18) 0.8789(2) 0.8188(3)
C1 C 0.9051(3) 0.8841(3) 0.8568(4)
C2 C 0.9695(3) 0.9033(3) 0.7724(4)
C3 C 1.0488(3) 0.9095(4) 0.8090(4)
H1 H 1.0608 0.9000 0.8838
C4 C 1.1093(3) 0.9294(4) 0.7355(5)
H2 H 1.1623 0.9322 0.7606
C5 C 1.0924(3) 0.9453(4) 0.6253(5)
H3 H 1.1336 0.9594 0.5758
C6 C 1.0143(3) 0.9401(3) 0.5892(4)
H4 H 1.0028 0.9516 0.5147
C7 C 0.9518(3) 0.9184(3) 0.6605(4)
C8 C 0.8690(3) 0.9112(3) 0.6090(3)
O3 O 0.8289(2) 0.9772(2) 0.5945(3)
O4 O 0.8500(2) 0.8364(2) 0.5730(3)
O5 O 0.65590(18) 0.7695(2) 0.2757(3)
O6 O 0.68704(18) 0.8973(2) 0.3510(2)
C9 C 0.6456(3) 0.8473(3) 0.2909(3)
C10 C 0.5703(2) 0.8896(3) 0.2409(4)
C11 C 0.5163(3) 0.9272(3) 0.3139(4)
H5 H 0.5294 0.9311 0.3891
C12 C 0.4431(3) 0.9593(4) 0.2776(5)
H6 H 0.4073 0.9842 0.3281
C13 C 0.4235(3) 0.9541(4) 0.1667(5)
H7 H 0.3738 0.9744 0.1417
C14 C 0.4776(3) 0.9186(4) 0.0922(4)
H8 H 0.4643 0.9157 0.0169
C15 C 0.5511(3) 0.8874(3) 0.1276(4)
C16 C 0.6108(3) 0.8613(3) 0.0400(4)
O7 O 0.5889(2) 0.8437(3) -0.0548(3)
O8 O 0.68504(18) 0.8680(2) 0.0693(3)
N1 N 0.7685(2) 0.7421(2) 0.9419(4)
C17 C 0.8115(3) 0.6910(3) 0.8706(5)
H9 H 0.8442 0.7106 0.8128
C18 C 0.7986(4) 0.6076(3) 0.8978(5)
H10 H 0.8203 0.5593 0.8625
C19 C 0.7309(3) 0.6892(3) 1.0100(5)
H11 H 0.6968 0.7065 1.0674
N2 N 0.7486(3) 0.6074(3) 0.9854(5)
H12 H 0.7310 0.5622 1.0197
N3 N 0.74325(18) 0.9985(2) 0.9364(4)
C20 C 0.7042(3) 1.0506(3) 1.0117(4)
H13 H 0.6764 1.0313 1.0742
C21 C 0.7124(4) 1.1326(3) 0.9814(5)
H14 H 0.6910 1.1806 1.0177
C22 C 0.7754(3) 1.0516(3) 0.8615(4)
H15 H 0.8056 1.0343 0.8001
N4 N 0.7579(3) 1.1333(3) 0.8873(4)
H16 H 0.7728 1.1786 0.8509
N5 N 0.8490(2) 0.8365(3) 0.3423(3)
C23 C 0.8403(3) 0.8493(4) 0.2337(4)
H17 H 0.7924 0.8658 0.1993
C24 C 0.9647(3) 0.8128(4) 0.2563(4)
H18 H 1.0184 0.7992 0.2424
N6 N 0.9092(3) 0.8352(3) 0.1806(4)
H19 H 0.9169 0.8397 0.1099
N7 N 0.6771(2) 0.8210(3) 0.5629(3)
C25 C 0.9281(3) 0.8136(4) 0.3554(4)
H20 H 0.9527 0.8005 0.4231
C26 C 0.6005(3) 0.7934(4) 0.5438(4)
H21 H 0.5791 0.7802 0.4741
C27 C 0.5607(3) 0.7883(4) 0.6404(4)
H22 H 0.5074 0.7711 0.6505
C28 C 0.6816(3) 0.8317(4) 0.6712(4)
H23 H 0.7276 0.8502 0.7087
N8 N 0.6129(3) 0.8132(3) 0.7198(3)
H24 H 0.6030 0.8163 0.7901
Cu2_2 Cu 0.75795(3) 0.86990(3) -0.05764(4)
O8_2 O 0.68504(18) 0.8680(2) 1.0693(3)
loop_
_geom_bond_atom_site_label_1
_geom_bond_atom_site_label_2
_geom_bond_site_symmetry_1
_geom_bond_site_symmetry_2
Cu1 O4 1_555 1_555
Cu2 O2 1_555 1_555
O1 C1 1_555 1_555
O2 C1 1_555 1_555
C1 C2 1_555 1_555
C2 C3 1_555 1_555
C3 H1 1_555 1_555
C4 C3 1_555 1_555
H2 C4 1_555 1_555
C5 C4 1_555 1_555
H3 C5 1_555 1_555
C6 C5 1_555 1_555
H4 C6 1_555 1_555
C7 C2 1_555 1_555
C8 C7 1_555 1_555
O3 C8 1_555 1_555
O4 C8 1_555 1_555
O5 C9 1_555 1_555
O6 Cu1 1_555 1_555
C9 O6 1_555 1_555
C10 C9 1_555 1_555
C11 C10 1_555 1_555
H5 C11 1_555 1_555
C12 C11 1_555 1_555
H6 C12 1_555 1_555
C13 C12 1_555 1_555
H7 C13 1_555 1_555
C14 C13 1_555 1_555
H8 C14 1_555 1_555
C15 C10 1_555 1_555
C16 C15 1_555 1_555
O7 C16 1_555 1_555
O8 C16 1_555 1_555
N1 Cu2 1_555 1_555
C17 N1 1_555 1_555
H9 C17 1_555 1_555
C18 C17 1_555 1_555
H10 C18 1_555 1_555
C19 N1 1_555 1_555
H11 C19 1_555 1_555
N2 C18 1_555 1_555
H12 N2 1_555 1_555
N3 Cu2 1_555 1_555
C20 N3 1_555 1_555
H13 C20 1_555 1_555
C21 C20 1_555 1_555
H14 C21 1_555 1_555
C22 N3 1_555 1_555
H15 C22 1_555 1_555
N4 C21 1_555 1_555
H16 N4 1_555 1_555
N5 Cu1 1_555 1_555
C23 N5 1_555 1_555
H17 C23 1_555 1_555
C24 H18 1_555 1_555
N6 C23 1_555 1_555
H19 N6 1_555 1_555
N7 Cu1 1_555 1_555
C25 N5 1_555 1_555
H20 C25 1_555 1_555
C26 N7 1_555 1_555
H21 C26 1_555 1_555
C27 C26 1_555 1_555
H22 C27 1_555 1_555
C28 N7 1_555 1_555
H23 C28 1_555 1_555
N8 C27 1_555 1_555
H24 N8 1_555 1_555
Cu2_2 O8 1_555 1_555
O8_2 Cu2 1_555 1_555
C6 C7 1_555 1_555
C14 C15 1_555 1_555
C19 N2 1_555 1_555
C22 N4 1_555 1_555
C24 N6 1_555 1_555
C24 C25 1_555 1_555
C28 N8 1_555 1_555

#END
