
#######################################################################
#
#                 Cambridge Crystallographic Data Centre
#                                CCDC 
#
#######################################################################
#
# If this CIF has been generated from an entry in the Cambridge 
# Structural Database, then it will include bibliographic, chemical, 
# crystal, experimental, refinement or atomic coordinate data resulting 
# from the CCDC's data processing and validation procedures.
#
#######################################################################

data_COWBUN
_symmetry_cell_setting           triclinic
_symmetry_space_group_name_H-M   'P -1'
_symmetry_Int_Tables_number      2
_space_group_name_Hall           '-P 1'
loop_
_symmetry_equiv_pos_site_id
_symmetry_equiv_pos_as_xyz
1 x,y,z
2 -x,-y,-z
_cell_length_a                   11.8125(5)
_cell_length_b                   12.5220(6)
_cell_length_c                   14.0907(7)
_cell_angle_alpha                67.483(5)
_cell_angle_beta                 72.082(4)
_cell_angle_gamma                79.773(4)
_cell_volume                     1827.73
loop_
_atom_site_label
_atom_site_type_symbol
_atom_site_fract_x
_atom_site_fract_y
_atom_site_fract_z
Co1 Co 0.65574(4) 0.30814(5) 0.23942(4)
C1 C -0.1183(3) -0.0799(3) 0.7617(3)
C2 C -0.2315(3) -0.1185(3) 0.7883(3)
H1 H -0.2924 -0.0669 0.7645
C3 C -0.2538(3) -0.2322(3) 0.8494(3)
H2 H -0.3297 -0.2571 0.8676
C4 C -0.1631(3) -0.3091(3) 0.8835(3)
C5 C -0.0517(3) -0.2724(3) 0.8573(3)
H3 H 0.0094 -0.3250 0.8795
C6 C -0.0290(3) -0.1586(3) 0.7984(3)
H4 H 0.0465 -0.1340 0.7831
C7 C -0.1226(3) -0.5234(3) 0.9210(3)
H5 H -0.0636 -0.5219 0.8591
C8 C -0.1653(3) -0.6194(3) 1.0047(3)
H6 H -0.1413 -0.6955 1.0087
C9 C -0.2567(3) -0.4729(3) 1.0432(3)
H7 H -0.3079 -0.4275 1.0798
C10 C -0.1815(3) 0.1253(3) 0.7238(3)
C11 C -0.2294(3) 0.1215(3) 0.8267(3)
H8 H -0.2120 0.0569 0.8823
C12 C -0.3031(3) 0.2122(4) 0.8488(3)
H9 H -0.3365 0.2082 0.9190
C13 C -0.3269(3) 0.3086(3) 0.7666(3)
C14 C -0.2822(3) 0.3124(3) 0.6628(3)
H10 H -0.3008 0.3765 0.6075
C15 C -0.2097(3) 0.2206(3) 0.6416(3)
H11 H -0.1796 0.2228 0.5717
C16 C -0.4730(3) 0.4825(4) 0.7416(3)
H12 H -0.4953 0.4769 0.6859
C17 C -0.4599(4) 0.5422(4) 0.8598(3)
H13 H -0.4712 0.5866 0.9023
C18 C -0.3865(4) 0.4464(4) 0.8657(4)
H14 H -0.3392 0.4127 0.9130
C19 C 0.0247(3) 0.0673(3) 0.6478(3)
C20 C 0.0698(3) 0.1459(3) 0.6690(3)
H15 H 0.0202 0.1826 0.7146
C21 C 0.1875(3) 0.1724(3) 0.6242(3)
H16 H 0.2172 0.2266 0.6390
C22 C 0.2601(3) 0.1176(3) 0.5575(3)
C23 C 0.2170(3) 0.0396(3) 0.5337(3)
H17 H 0.2670 0.0033 0.4879
C24 C 0.0979(3) 0.0144(3) 0.5782(3)
H18 H 0.0675 -0.0378 0.5614
C25 C 0.4591(3) 0.1535(4) 0.5641(3)
H19 H 0.4443 0.1347 0.6372
C26 C 0.5600(3) 0.1942(4) 0.4893(3)
H20 H 0.6271 0.2082 0.5029
C27 C 0.4408(3) 0.1805(3) 0.4077(3)
H21 H 0.4093 0.1824 0.3541
C28 C 0.7866(4) 0.4149(5) 0.3163(3)
C29 C 0.8986(3) 0.4240(4) 0.3430(3)
C30 C 0.9784(4) 0.3286(4) 0.3647(3)
H22 H 0.9609 0.2585 0.3659
C31 C 1.0829(4) 0.3353(5) 0.3846(3)
H23 H 1.1360 0.2705 0.3991
C32 C 1.1083(4) 0.4395(5) 0.3829(3)
H24 H 1.1791 0.4450 0.3961
C33 C 1.0302(4) 0.5349(5) 0.3620(4)
H25 H 1.0478 0.6047 0.3613
C34 C 0.9252(4) 0.5273(4) 0.3420(3)
H26 H 0.8721 0.5921 0.3278
C35 C 0.6550(5) 0.1401(4) 0.1682(3)
C36 C 0.6826(4) 0.0353(4) 0.1362(3)
C37 C 0.7972(5) -0.0133(5) 0.1198(3)
H27 H 0.8561 0.0209 0.1273
C38 C 0.8275(8) -0.1099(7) 0.0929(5)
H28 H 0.9061 -0.1404 0.0798
C39 C 0.7393(11) -0.1602(7) 0.0859(6)
H29 H 0.7581 -0.2286 0.0713
C40 C 0.6226(9) -0.1141(9) 0.0995(6)
H30 H 0.5639 -0.1487 0.0921
C41 C 0.5969(5) -0.0143(6) 0.1247(4)
H31 H 0.5193 0.0194 0.1339
N1 N -0.0969(2) 0.0369(3) 0.6971(2)
N2 N 0.3830(2) 0.1454(3) 0.5119(2)
N3 N 0.5487(2) 0.2118(3) 0.3913(2)
N4 N -0.3939(2) 0.4073(3) 0.7898(2)
N5 N -0.5151(2) 0.5646(3) 0.7818(2)
N6 N -0.1832(2) -0.4293(3) 0.9458(2)
N7 N -0.2484(2) -0.5867(3) 1.0812(2)
O1 O 0.7766(3) 0.3248(3) 0.3045(2)
O2 O 0.7155(3) 0.5012(4) 0.3019(4)
O3 O 0.7321(3) 0.1666(3) 0.1987(2)
O4 O 0.5605(3) 0.1973(3) 0.1639(3)
Co1_2 Co -0.34426(4) -0.69186(5) 1.23942(4)
Co1A Co -0.65574(4) 0.69186(5) 0.76058(4)
N5A N 0.5151(2) 0.4354(3) 0.2182(2)
N7_2 N 0.7516(2) 0.4133(3) 0.0812(2)
O5 O 0.6181(5) 0.5657(6) 0.4759(5)
loop_
_geom_bond_atom_site_label_1
_geom_bond_atom_site_label_2
_geom_bond_site_symmetry_1
_geom_bond_site_symmetry_2
Co1 N3 1_555 1_555
C1 C2 1_555 1_555
C2 H1 1_555 1_555
C3 C2 1_555 1_555
H2 C3 1_555 1_555
C4 C3 1_555 1_555
C5 C4 1_555 1_555
H3 C5 1_555 1_555
C6 C1 1_555 1_555
H4 C6 1_555 1_555
C7 H5 1_555 1_555
C8 C7 1_555 1_555
H6 C8 1_555 1_555
C9 H7 1_555 1_555
C10 C11 1_555 1_555
C11 H8 1_555 1_555
C12 C11 1_555 1_555
H9 C12 1_555 1_555
C13 C12 1_555 1_555
C14 C13 1_555 1_555
H10 C14 1_555 1_555
C15 C10 1_555 1_555
H11 C15 1_555 1_555
C16 H12 1_555 1_555
C17 H13 1_555 1_555
C18 C17 1_555 1_555
H14 C18 1_555 1_555
C19 C20 1_555 1_555
C20 H15 1_555 1_555
C21 C20 1_555 1_555
H16 C21 1_555 1_555
C22 C21 1_555 1_555
C23 C22 1_555 1_555
H17 C23 1_555 1_555
C24 C19 1_555 1_555
H18 C24 1_555 1_555
C25 H19 1_555 1_555
C26 C25 1_555 1_555
H20 C26 1_555 1_555
C27 H21 1_555 1_555
C28 C29 1_555 1_555
C29 C30 1_555 1_555
C30 H22 1_555 1_555
C31 C30 1_555 1_555
H23 C31 1_555 1_555
C32 C31 1_555 1_555
H24 C32 1_555 1_555
C33 C32 1_555 1_555
H25 C33 1_555 1_555
C34 C29 1_555 1_555
H26 C34 1_555 1_555
C35 C36 1_555 1_555
C36 C37 1_555 1_555
C37 H27 1_555 1_555
C38 C37 1_555 1_555
H28 C38 1_555 1_555
C39 C38 1_555 1_555
H29 C39 1_555 1_555
C40 C39 1_555 1_555
H30 C40 1_555 1_555
C41 C36 1_555 1_555
H31 C41 1_555 1_555
N1 C1 1_555 1_555
N2 C22 1_555 1_555
N3 C26 1_555 1_555
N4 C13 1_555 1_555
N5 C16 1_555 1_555
N6 C4 1_555 1_555
N7 C8 1_555 1_555
O1 Co1 1_555 1_555
O2 C28 1_555 1_555
O3 Co1 1_555 1_555
O4 C35 1_555 1_555
Co1_2 N7 1_555 1_555
Co1A N5 1_555 1_555
N5A Co1 1_555 1_555
N7_2 Co1 1_555 1_555
C5 C6 1_555 1_555
C7 N6 1_555 1_555
C9 N6 1_555 1_555
C9 N7 1_555 1_555
C10 N1 1_555 1_555
C14 C15 1_555 1_555
C16 N4 1_555 1_555
C17 N5 1_555 1_555
C18 N4 1_555 1_555
C19 N1 1_555 1_555
C23 C24 1_555 1_555
C25 N2 1_555 1_555
C27 N2 1_555 1_555
C27 N3 1_555 1_555
C28 O1 1_555 1_555
C33 C34 1_555 1_555
C35 O3 1_555 1_555
C40 C41 1_555 1_555

#END
