
#######################################################################
#
#                 Cambridge Crystallographic Data Centre
#                                CCDC 
#
#######################################################################
#
# If this CIF has been generated from an entry in the Cambridge 
# Structural Database, then it will include bibliographic, chemical, 
# crystal, experimental, refinement or atomic coordinate data resulting 
# from the CCDC's data processing and validation procedures.
#
#######################################################################

data_COWCAU
_symmetry_cell_setting           monoclinic
_symmetry_space_group_name_H-M   'P 21/c'
_symmetry_Int_Tables_number      14
_space_group_name_Hall           '-P 2ybc'
loop_
_symmetry_equiv_pos_site_id
_symmetry_equiv_pos_as_xyz
1 x,y,z
2 -x,1/2+y,1/2-z
3 -x,-y,-z
4 x,1/2-y,1/2+z
_cell_length_a                   9.9792(3)
_cell_length_b                   25.5403(11)
_cell_length_c                   20.7685(7)
_cell_angle_alpha                90
_cell_angle_beta                 94.337(3)
_cell_angle_gamma                90
_cell_volume                     5278.15
loop_
_atom_site_label
_atom_site_type_symbol
_atom_site_fract_x
_atom_site_fract_y
_atom_site_fract_z
Zn1 Zn 1.10235(5) 0.19910(2) 0.26717(2)
Zn2 Zn 0.49739(5) 0.63217(2) 0.72588(3)
C1 C 1.4614(5) 0.1687(2) 0.3657(2)
C2 C 1.4707(5) 0.1190(3) 0.3878(3)
H1 H 1.4059 0.0945 0.3741
C3 C 1.5770(7) 0.1049(3) 0.4310(4)
H2 H 1.5827 0.0708 0.4470
C4 C 1.6738(7) 0.1406(4) 0.4503(4)
H3 H 1.7445 0.1311 0.4797
C5 C 1.6668(7) 0.1895(4) 0.4269(3)
H4 H 1.7347 0.2133 0.4389
C6 C 1.5608(5) 0.2046(3) 0.3856(3)
H5 H 1.5551 0.2389 0.3707
C7 C 1.3451(5) 0.1862(2) 0.3223(2)
C8 C 1.0510(5) 0.2435(2) 0.1460(2)
C9 C 1.0927(5) 0.2713(2) 0.0860(2)
C10 C 1.2258(5) 0.2778(3) 0.0774(3)
H6 H 1.2907 0.2643 0.1074
C11 C 1.2636(6) 0.3046(3) 0.0238(3)
H7 H 1.3543 0.3101 0.0186
C12 C 1.1700(7) 0.3230(2) -0.0213(3)
H8 H 1.1959 0.3405 -0.0576
C13 C 1.0392(6) 0.3156(3) -0.0128(3)
H9 H 0.9741 0.3279 -0.0434
C14 C 1.0016(5) 0.2902(2) 0.0405(3)
H10 H 0.9106 0.2858 0.0458
C15 C 0.3334(8) 0.5958(3) 0.8086(3)
C16 C 0.2717(6) 0.5664(3) 0.8620(3)
C17 C 0.3221(8) 0.5205(3) 0.8850(4)
H11 H 0.3982 0.5064 0.8683
C18 C 0.2625(11) 0.4950(4) 0.9321(6)
H12 H 0.2996 0.4640 0.9488
C19 C 0.1513(12) 0.5138(5) 0.9549(6)
H13 H 0.1093 0.4950 0.9861
C20 C 0.0994(8) 0.5590(5) 0.9337(4)
H14 H 0.0231 0.5722 0.9511
C21 C 0.1583(6) 0.5868(3) 0.8858(3)
H15 H 0.1220 0.6183 0.8703
C22 C 1.1984(4) 0.39568(18) 0.5742(2)
C23 C 1.2856(4) 0.38477(19) 0.5269(2)
H16 H 1.3749 0.3954 0.5324
C24 C 1.2400(4) 0.3581(2) 0.4715(2)
H17 H 1.2985 0.3513 0.4397
C25 C 1.1096(4) 0.34172(19) 0.4632(2)
C26 C 1.0231(4) 0.3513(2) 0.5108(2)
H18 H 0.9347 0.3396 0.5057
C27 C 1.0679(4) 0.3780(2) 0.5657(2)
H19 H 1.0091 0.3843 0.5975
C28 C 0.9282(5) 0.3135(2) 0.3796(2)
H20 H 0.8568 0.3332 0.3926
C29 C 0.9242(5) 0.2788(2) 0.3307(2)
H21 H 0.8482 0.2707 0.3038
C30 C 1.1269(5) 0.2793(2) 0.3729(2)
H22 H 1.2176 0.2717 0.3815
C31 C 1.3643(4) 0.41527(19) 0.6657(2)
C32 C 1.4125(4) 0.3639(2) 0.6718(2)
H23 H 1.3616 0.3363 0.6539
C33 C 1.5351(5) 0.35434(19) 0.7042(2)
H24 H 1.5674 0.3202 0.7079
C34 C 1.6110(4) 0.3953(2) 0.7314(2)
C35 C 1.5613(4) 0.4454(2) 0.7277(2)
H25 H 1.6103 0.4728 0.7473
C36 C 1.4380(4) 0.4551(2) 0.6947(2)
H26 H 1.4049 0.4891 0.6921
C37 C 1.8287(5) 0.3489(2) 0.7405(2)
H27 H 1.8062 0.3249 0.7078
C38 C 1.9363(5) 0.3916(2) 0.8156(2)
H28 H 2.0047 0.4026 0.8454
C39 C 1.8132(5) 0.4134(2) 0.8079(2)
H29 H 1.7814 0.4416 0.8307
C40 C 1.1523(4) 0.4641(2) 0.6506(2)
C41 C 1.1345(5) 0.4712(2) 0.7157(2)
H30 H 1.1808 0.4501 0.7464
C42 C 1.0486(5) 0.5094(2) 0.7353(2)
H31 H 1.0383 0.5145 0.7790
C43 C 0.9785(4) 0.53969(19) 0.6899(2)
C44 C 0.9945(4) 0.5334(2) 0.6258(2)
H32 H 0.9462 0.5541 0.5953
C45 C 1.0822(4) 0.4963(2) 0.6066(2)
H33 H 1.0948 0.4927 0.5629
C46 C 0.8018(5) 0.6471(2) 0.7562(2)
H34 H 0.7935 0.6776 0.7799
C47 C 0.9184(5) 0.6219(2) 0.7483(2)
H35 H 1.0036 0.6318 0.7652
C48 C 0.7542(5) 0.5797(2) 0.6977(2)
H36 H 0.7067 0.5545 0.6731
C49 C 0.4221(5) 0.6082(3) 0.6123(3)
C50 C 0.3744(5) 0.5975(3) 0.5433(3)
C51 C 0.3582(5) 0.5470(3) 0.5225(3)
H37 H 0.3798 0.5198 0.5513
C52 C 0.3467(5) 0.6374(3) 0.5002(3)
H38 H 0.3596 0.6720 0.5130
C53 C 0.2999(6) 0.6261(4) 0.4379(3)
H39 H 0.2799 0.6533 0.4089
C54 C 0.2822(6) 0.5755(5) 0.4179(3)
H40 H 0.2507 0.5685 0.3755
C55 C 0.3105(6) 0.5350(3) 0.4599(4)
H41 H 0.2981 0.5005 0.4468
N1 N 1.2399(3) 0.42571(16) 0.62998(17)
N2 N 1.0593(4) 0.31403(15) 0.40682(17)
N3 N 1.0503(4) 0.25725(16) 0.32632(17)
N4 N 0.8874(4) 0.57931(16) 0.71079(18)
N5 N 0.6985(4) 0.62076(16) 0.72431(17)
N6 N 1.7447(3) 0.38581(16) 0.76011(17)
N7 N 1.9462(4) 0.35114(17) 0.77322(18)
O1 O 1.2439(3) 0.15575(14) 0.31480(14)
O2 O 1.3452(3) 0.23021(15) 0.29691(16)
O3 O 0.5098(4) 0.70437(15) 0.7651(2)
O4 O 1.1411(3) 0.22199(15) 0.18171(14)
O5 O 0.9314(4) 0.2430(2) 0.15704(19)
O6 O 0.4522(4) 0.58416(19) 0.79829(19)
O7 O 0.2686(5) 0.6298(2) 0.7781(2)
O8 O 0.4600(4) 0.57162(19) 0.6485(2)
O9 O 0.4238(4) 0.6539(2) 0.6330(2)
H42 H 0.539(6) 0.728(2) 0.744(3)
H43 H 0.444(5) 0.712(2) 0.784(3)
Zn1C Zn 2.10235(5) 0.30090(2) 0.76717(2)
N7C N 0.9462(4) 0.14886(17) 0.27322(18)
O10 O 0.6829(8) 0.5341(3) 0.8588(4)
O11 O 0.6127(11) 0.2760(5) 0.0921(6)
O12? O 0.6721(4) 0.26343(18) 0.1543(2)
loop_
_geom_bond_atom_site_label_1
_geom_bond_atom_site_label_2
_geom_bond_site_symmetry_1
_geom_bond_site_symmetry_2
Zn1 N3 1_555 1_555
Zn2 N5 1_555 1_555
C1 C2 1_555 1_555
C2 H1 1_555 1_555
C3 C2 1_555 1_555
H2 C3 1_555 1_555
C4 C3 1_555 1_555
H3 C4 1_555 1_555
C5 C4 1_555 1_555
H4 C5 1_555 1_555
C6 C1 1_555 1_555
H5 C6 1_555 1_555
C7 C1 1_555 1_555
C8 C9 1_555 1_555
C9 C10 1_555 1_555
C10 H6 1_555 1_555
C11 C10 1_555 1_555
H7 C11 1_555 1_555
C12 C11 1_555 1_555
H8 C12 1_555 1_555
C13 C12 1_555 1_555
H9 C13 1_555 1_555
C14 C9 1_555 1_555
H10 C14 1_555 1_555
C15 C16 1_555 1_555
C16 C17 1_555 1_555
C17 H11 1_555 1_555
C18 C17 1_555 1_555
H12 C18 1_555 1_555
C19 C18 1_555 1_555
H13 C19 1_555 1_555
C20 C19 1_555 1_555
H14 C20 1_555 1_555
C21 C16 1_555 1_555
H15 C21 1_555 1_555
C22 C23 1_555 1_555
C23 H16 1_555 1_555
C24 C23 1_555 1_555
H17 C24 1_555 1_555
C25 C24 1_555 1_555
C26 C25 1_555 1_555
H18 C26 1_555 1_555
C27 C22 1_555 1_555
H19 C27 1_555 1_555
C28 H20 1_555 1_555
C29 C28 1_555 1_555
H21 C29 1_555 1_555
C30 H22 1_555 1_555
C31 C32 1_555 1_555
C32 H23 1_555 1_555
C33 C32 1_555 1_555
H24 C33 1_555 1_555
C34 C33 1_555 1_555
C35 C34 1_555 1_555
H25 C35 1_555 1_555
C36 C31 1_555 1_555
H26 C36 1_555 1_555
C37 H27 1_555 1_555
C38 H28 1_555 1_555
C39 C38 1_555 1_555
H29 C39 1_555 1_555
C40 C41 1_555 1_555
C41 H30 1_555 1_555
C42 C41 1_555 1_555
H31 C42 1_555 1_555
C43 C42 1_555 1_555
C44 C43 1_555 1_555
H32 C44 1_555 1_555
C45 C40 1_555 1_555
H33 C45 1_555 1_555
C46 H34 1_555 1_555
C47 C46 1_555 1_555
H35 C47 1_555 1_555
C48 H36 1_555 1_555
C49 C50 1_555 1_555
C50 C51 1_555 1_555
C51 H37 1_555 1_555
C52 C50 1_555 1_555
H38 C52 1_555 1_555
C53 C52 1_555 1_555
H39 C53 1_555 1_555
C54 C53 1_555 1_555
H40 C54 1_555 1_555
C55 C51 1_555 1_555
H41 C55 1_555 1_555
N1 C22 1_555 1_555
N2 C25 1_555 1_555
N3 C29 1_555 1_555
N4 C43 1_555 1_555
N5 C46 1_555 1_555
N6 C34 1_555 1_555
N7 C37 1_555 1_555
O1 Zn1 1_555 1_555
O2 C7 1_555 1_555
O3 Zn2 1_555 1_555
O4 Zn1 1_555 1_555
O5 C8 1_555 1_555
O6 Zn2 1_555 1_555
O7 C15 1_555 1_555
O8 Zn2 1_555 1_555
O9 Zn2 1_555 1_555
H42 O3 1_555 1_555
H43 O3 1_555 1_555
Zn1C N7 1_555 1_555
N7C Zn1 1_555 1_555
C5 C6 1_555 1_555
C7 O1 1_555 1_555
C8 O4 1_555 1_555
C13 C14 1_555 1_555
C15 O6 1_555 1_555
C20 C21 1_555 1_555
C26 C27 1_555 1_555
C28 N2 1_555 1_555
C30 N2 1_555 1_555
C30 N3 1_555 1_555
C31 N1 1_555 1_555
C35 C36 1_555 1_555
C37 N6 1_555 1_555
C38 N7 1_555 1_555
C39 N6 1_555 1_555
C40 N1 1_555 1_555
C44 C45 1_555 1_555
C47 N4 1_555 1_555
C48 N4 1_555 1_555
C48 N5 1_555 1_555
C49 O8 1_555 1_555
C49 O9 1_555 1_555
C54 C55 1_555 1_555

#END
