
#######################################################################
#
#                 Cambridge Crystallographic Data Centre
#                                CCDC 
#
#######################################################################
#
# If this CIF has been generated from an entry in the Cambridge 
# Structural Database, then it will include bibliographic, chemical, 
# crystal, experimental, refinement or atomic coordinate data resulting 
# from the CCDC's data processing and validation procedures.
#
#######################################################################

data_COWCIC
_symmetry_cell_setting           orthorhombic
_symmetry_space_group_name_H-M   'C 2 2 21'
_symmetry_Int_Tables_number      20
_space_group_name_Hall           'C 2n 2'
loop_
_symmetry_equiv_pos_site_id
_symmetry_equiv_pos_as_xyz
1 x,y,z
2 -x,-y,1/2+z
3 x,-y,-z
4 -x,y,1/2-z
5 1/2+x,1/2+y,z
6 1/2-x,1/2-y,1/2+z
7 1/2+x,1/2-y,-z
8 1/2-x,1/2+y,1/2-z
_cell_length_a                   15.9057(10)
_cell_length_b                   15.8824(11)
_cell_length_c                   16.6277(11)
_cell_angle_alpha                90
_cell_angle_beta                 90
_cell_angle_gamma                90
_cell_volume                     4200.5
loop_
_atom_site_label
_atom_site_type_symbol
_atom_site_fract_x
_atom_site_fract_y
_atom_site_fract_z
C1 C 0.7196(3) 0.7846(3) 0.6213(3)
N1 N 0.6402(4) 0.6171(3) 0.7162(3)
C2 C 0.6871(3) 0.7067(3) 0.5956(3)
C3 C 0.6604(3) 0.6563(3) 0.6611(3)
O1 O 0.55535(18) 0.5253(2) 0.40976(19)
N2 N 0.7432(4) 0.8468(3) 0.6489(3)
N3 N 0.62339(19) 0.6134(2) 0.5032(2)
C4 C 0.6681(2) 0.6801(3) 0.5165(2)
C5 C 0.7444(3) 0.8041(3) 0.4537(3)
N4 N 0.7873(3) 0.8616(3) 0.4609(3)
C6 C 0.8327(3) 0.6572(3) 0.3982(3)
C7 C 0.6063(3) 0.5976(3) 0.4185(3)
C8 C 0.6054(3) 0.7549(3) 0.4013(3)
H1 H 0.5737 0.7843 0.4433
C9 C 0.6924(3) 0.7296(3) 0.4405(3)
C10 C 0.8595(3) 0.6171(3) 0.4668(3)
H2 H 0.8203 0.5977 0.5040
C11 C 0.5571(3) 0.6731(3) 0.3841(3)
H3 H 0.5499 0.6662 0.3266
H4 H 0.5019 0.6757 0.4086
C12 C 0.6143(3) 0.9017(4) 0.3467(4)
H5 H 0.6113 0.9208 0.3995
C13 C 0.6892(3) 0.5872(3) 0.3748(3)
H6 H 0.6789 0.5725 0.3190
H7 H 0.7213 0.5420 0.3992
C14 C 0.6129(3) 0.8162(3) 0.3317(3)
C15 C 1.0029(3) 0.6318(4) 0.4265(3)
H8 H 1.0599 0.6246 0.4370
C16 C 0.9439(3) 0.6055(4) 0.4808(3)
H9 H 0.9611 0.5792 0.5280
C17 C 0.6165(3) 0.7885(3) 0.2515(3)
H10 H 0.6154 0.7313 0.2398
C18 C 0.6220(3) 0.8479(4) 0.1892(4)
H11 H 0.6237 0.8296 0.1360
C19 C 0.7396(3) 0.6704(3) 0.3793(3)
H12 H 0.7363 0.6971 0.3263
C20 C 0.8923(3) 0.6832(5) 0.3452(3)
H13 H 0.8755 0.7120 0.2992
C21 C 0.6247(3) 0.9326(4) 0.2057(4)
H14 H 0.6295 0.9716 0.1641
C22 C 0.6203(3) 0.9594(4) 0.2848(4)
H15 H 0.6213 1.0167 0.2964
C23 C 0.9770(4) 0.6684(6) 0.3575(4)
H16 H 1.0160 0.6836 0.3184
Na1 Na 0.89970(9) 1.0000 0.5000
O2 O 0.8561(2) 0.9805(3) 0.6621(3)
Na2 Na 0.5000 0.51960(11) 0.7500
H17 H 0.837(3) 0.9300(15) 0.669(4)
H18 H 0.814(2) 1.010(3) 0.647(4)
H19 H 0.942(4) 0.863(5) 0.359(2)
O3 O 0.9704(6) 0.8669(8) 0.4027(9)
C1B C 0.7196(3) 0.2154(3) 0.3787(3)
N1B N 0.6402(4) 0.3829(3) 0.2838(3)
C2B C 0.6871(3) 0.2933(3) 0.4044(3)
C3B C 0.6604(3) 0.3437(3) 0.3389(3)
O1B O 0.55535(18) 0.4747(2) 0.59024(19)
N2B N 0.7432(4) 0.1532(3) 0.3511(3)
N3B N 0.62339(19) 0.3866(2) 0.4968(2)
C4B C 0.6681(2) 0.3199(3) 0.4835(2)
C5B C 0.7444(3) 0.1959(3) 0.5463(3)
N4B N 0.7873(3) 0.1384(3) 0.5391(3)
C6B C 0.8327(3) 0.3428(3) 0.6018(3)
C7B C 0.6063(3) 0.4024(3) 0.5815(3)
C8B C 0.6054(3) 0.2451(3) 0.5987(3)
H1B H 0.5737 0.2157 0.5567
C9B C 0.6924(3) 0.2704(3) 0.5595(3)
C10B C 0.8595(3) 0.3829(3) 0.5332(3)
H2B H 0.8203 0.4023 0.4960
C11B C 0.5571(3) 0.3269(3) 0.6159(3)
H3B H 0.5499 0.3338 0.6734
H4B H 0.5019 0.3243 0.5914
C12B C 0.6143(3) 0.0983(4) 0.6533(4)
H5B H 0.6113 0.0792 0.6005
C13B C 0.6892(3) 0.4128(3) 0.6252(3)
H6B H 0.6789 0.4275 0.6810
H7B H 0.7213 0.4580 0.6008
C14B C 0.6129(3) 0.1838(3) 0.6683(3)
C15B C 1.0029(3) 0.3682(4) 0.5735(3)
H8B H 1.0599 0.3754 0.5630
C16B C 0.9439(3) 0.3945(4) 0.5192(3)
H9B H 0.9611 0.4208 0.4720
C17B C 0.6165(3) 0.2115(3) 0.7485(3)
H10B H 0.6154 0.2687 0.7602
C18B C 0.6220(3) 0.1521(4) 0.8108(4)
H11B H 0.6237 0.1704 0.8640
C19B C 0.7396(3) 0.3296(3) 0.6207(3)
H12B H 0.7363 0.3029 0.6737
C20B C 0.8923(3) 0.3168(5) 0.6548(3)
H13B H 0.8755 0.2880 0.7008
C21B C 0.6247(3) 0.0674(4) 0.7943(4)
H14B H 0.6295 0.0284 0.8359
C22B C 0.6203(3) 0.0406(4) 0.7152(4)
H15B H 0.6213 -0.0167 0.7036
C23B C 0.9770(4) 0.3316(6) 0.6425(4)
H16B H 1.0160 0.3164 0.6816
O2B O 0.8561(2) 1.0195(3) 0.3379(3)
H17B H 0.837(3) 1.0700(15) 0.331(4)
H18B H 0.814(2) 0.990(3) 0.353(4)
H19B H 0.942(4) 1.137(5) 0.641(2)
O3B O 0.9704(6) 1.1331(8) 0.5973(9)
N1C N 0.3598(4) 0.6171(3) 0.7838(3)
O1A O 0.44465(18) 0.4747(2) 0.90976(19)
O1D O 1.05535(18) 1.0253(2) 0.40976(19)
O1F O 1.05535(18) 0.9747(2) 0.59024(19)
N4B_2 N 0.7873(3) 1.1384(3) 0.5391(3)
Na1_2 Na 0.89970(9) 0.0000 0.5000
Na1D Na 0.39970(9) 0.5000 0.5000
O2D O 0.3561(2) 0.4805(3) 0.6621(3)
O2G O 0.6439(2) 0.4805(3) 0.8379(3)
Na2A Na 0.5000 0.48040(11) 0.2500
Na2D Na 1.0000 1.01960(11) 0.7500
Na2E Na 1.0000 0.98040(11) 0.2500
loop_
_geom_bond_atom_site_label_1
_geom_bond_atom_site_label_2
_geom_bond_site_symmetry_1
_geom_bond_site_symmetry_2
C1 C2 1_555 1_555
N1 C3 1_555 1_555
C2 C3 1_555 1_555
O1 C7 1_555 1_555
N2 C1 1_555 1_555
N3 C4 1_555 1_555
C4 C2 1_555 1_555
C5 N4 1_555 1_555
N4 Na1 1_555 1_555
C6 C10 1_555 1_555
C7 N3 1_555 1_555
C8 H1 1_555 1_555
C9 C4 1_555 1_555
C10 H2 1_555 1_555
C11 C7 1_555 1_555
H3 C11 1_555 1_555
H4 C11 1_555 1_555
C12 H5 1_555 1_555
C13 C7 1_555 1_555
H6 C13 1_555 1_555
H7 C13 1_555 1_555
C14 C8 1_555 1_555
C15 H8 1_555 1_555
C16 C10 1_555 1_555
H9 C16 1_555 1_555
C17 C14 1_555 1_555
H10 C17 1_555 1_555
C18 C17 1_555 1_555
H11 C18 1_555 1_555
C19 C6 1_555 1_555
H12 C19 1_555 1_555
C20 C6 1_555 1_555
H13 C20 1_555 1_555
C21 C18 1_555 1_555
H14 C21 1_555 1_555
C22 C12 1_555 1_555
H15 C22 1_555 1_555
C23 C15 1_555 1_555
H16 C23 1_555 1_555
Na1 O2 1_555 1_555
O2 H17 1_555 1_555
Na2 N1 1_555 1_555
H18 O2 1_555 1_555
H19 O3 1_555 1_555
O3 Na1 1_555 1_555
C1B C2B 1_555 1_555
N1B C3B 1_555 1_555
C2B C3B 1_555 1_555
O1B Na2 1_555 1_555
N2B C1B 1_555 1_555
N3B C4B 1_555 1_555
C4B C2B 1_555 1_555
C5B N4B 1_555 1_555
N4B Na1_2 1_555 1_555
C6B C10B 1_555 1_555
C7B O1B 1_555 1_555
C8B H1B 1_555 1_555
C9B C4B 1_555 1_555
C10B H2B 1_555 1_555
C11B C7B 1_555 1_555
H3B C11B 1_555 1_555
H4B C11B 1_555 1_555
C12B H5B 1_555 1_555
C13B C7B 1_555 1_555
H6B C13B 1_555 1_555
H7B C13B 1_555 1_555
C14B C8B 1_555 1_555
C15B H8B 1_555 1_555
C16B C10B 1_555 1_555
H9B C16B 1_555 1_555
C17B C14B 1_555 1_555
H10B C17B 1_555 1_555
C18B C17B 1_555 1_555
H11B C18B 1_555 1_555
C19B C6B 1_555 1_555
H12B C19B 1_555 1_555
C20B C6B 1_555 1_555
H13B C20B 1_555 1_555
C21B C18B 1_555 1_555
H14B C21B 1_555 1_555
C22B C12B 1_555 1_555
H15B C22B 1_555 1_555
C23B C15B 1_555 1_555
H16B C23B 1_555 1_555
O2B Na1 1_555 1_555
H17B O2B 1_555 1_555
H18B O2B 1_555 1_555
H19B O3B 1_555 1_555
O3B Na1 1_555 1_555
N1C Na2 1_555 1_555
O1A Na2 1_555 1_555
O1D Na1 1_555 1_555
O1F Na1 1_555 1_555
N4B_2 Na1 1_555 1_555
Na1D O1 1_555 1_555
O2D Na2 1_555 1_555
O2G Na2 1_555 1_555
Na2A O1 1_555 1_555
Na2D O2 1_555 1_555
Na2E O2B 1_555 1_555
C5 C9 1_555 1_555
C8 C9 1_555 1_555
C8 C11 1_555 1_555
C9 C19 1_555 1_555
C12 C14 1_555 1_555
C13 C19 1_555 1_555
C15 C16 1_555 1_555
C20 C23 1_555 1_555
C21 C22 1_555 1_555
N1B Na2A 1_555 1_555
O1B Na1D 1_555 1_555
N3B C7B 1_555 1_555
C5B C9B 1_555 1_555
C8B C9B 1_555 1_555
C8B C11B 1_555 1_555
C9B C19B 1_555 1_555
C12B C14B 1_555 1_555
C13B C19B 1_555 1_555
C15B C16B 1_555 1_555
C20B C23B 1_555 1_555
C21B C22B 1_555 1_555
O1D Na2E 1_555 1_555
O1F Na2D 1_555 1_555
Na1D O2D 1_555 1_555

#END
