
#######################################################################
#
#                 Cambridge Crystallographic Data Centre
#                                CCDC 
#
#######################################################################
#
# If this CIF has been generated from an entry in the Cambridge 
# Structural Database, then it will include bibliographic, chemical, 
# crystal, experimental, refinement or atomic coordinate data resulting 
# from the CCDC's data processing and validation procedures.
#
#######################################################################

data_COWFUP01
_symmetry_cell_setting           orthorhombic
_symmetry_space_group_name_H-M   'P c a 21'
_symmetry_Int_Tables_number      29
_space_group_name_Hall           'P 2c -2ac'
loop_
_symmetry_equiv_pos_site_id
_symmetry_equiv_pos_as_xyz
1 x,y,z
2 -x,-y,1/2+z
3 1/2+x,-y,z
4 1/2-x,y,1/2+z
_cell_length_a                   11.14770(10)
_cell_length_b                   11.63650(10)
_cell_length_c                   14.03150(10)
_cell_angle_alpha                90
_cell_angle_beta                 90
_cell_angle_gamma                90
_cell_volume                     1820.17
loop_
_atom_site_label
_atom_site_type_symbol
_atom_site_fract_x
_atom_site_fract_y
_atom_site_fract_z
Cu1 Cu 0.11345(4) 0.02332(4) 0.20721(15)
N1 N 0.0963(6) -0.1054(5) 0.3039(5)
N2 N 0.0970(6) -0.1059(8) 0.1158(5)
C1 C 0.0999(6) -0.1026(6) 0.3940(5)
H1 H 0.1237 -0.0354 0.4245
C2 C 0.0674(8) -0.2027(10) 0.4506(7)
H2 H 0.0658 -0.2001 0.5169
C3 C 0.0390(8) -0.3022(6) 0.4007(6)
H3 H 0.0188 -0.3677 0.4352
C4 C 0.0393(7) -0.3078(7) 0.3119(7)
C5 C 0.0087(8) -0.4042(6) 0.2555(7)
H4 H -0.0146 -0.4700 0.2882
C6 C 0.0097(8) -0.4112(7) 0.1586(8)
H5 H -0.0074 -0.4789 0.1261
C7 C 0.0397(9) -0.3039(7) 0.1092(6)
C8 C 0.0456(9) -0.2961(9) -0.0018(6)
H6 H 0.0265 -0.3583 -0.0405
C9 C 0.0794(9) -0.1961(8) -0.0376(5)
H7 H 0.0914 -0.1903 -0.1030
C10 C 0.0964(9) -0.1056(11) 0.0149(8)
H8 H 0.1092 -0.0359 -0.0159
C11 C 0.0663(7) -0.2118(6) 0.1568(6)
C12 C 0.0686(8) -0.2012(6) 0.2587(5)
C13 C 0.2256(6) 0.1513(6) 0.0633(5)
C14 C 0.2350(7) 0.2611(7) 0.0048(6)
C15 C 0.2275(7) 0.3667(6) 0.0553(6)
H9 H 0.2120 0.3665 0.1204
C16 C 0.2428(9) 0.4680(7) 0.0089(7)
H10 H 0.2395 0.5367 0.0425
C17 C 0.2632(9) 0.4694(5) -0.0873(8)
H11 H 0.2692 0.5387 -0.1200
C18 C 0.2750(8) 0.3633(9) -0.1366(6)
H12 H 0.2935 0.3640 -0.2013
C19 C 0.2600(7) 0.2615(6) -0.0920(5)
C20 C 0.2640(8) 0.1537(8) -0.1480(6)
O1 O 0.1355(6) 0.1441(6) 0.1124(4)
O2 O 0.3116(5) 0.0826(5) 0.0571(4)
O3 O 0.3653(6) 0.1404(5) -0.1989(5)
O4 O 0.1850(5) 0.0828(6) -0.1453(4)
O5 O -0.1005(3) 0.0505(3) 0.2017(7)
H13 H -0.141(5) 0.029(5) 0.258(3)
H14 H -0.113(5) -0.021(3) 0.170(4)
Cu1C Cu 0.38655(4) 0.02332(4) -0.29279(15)
O3C O 0.1347(6) 0.1404(5) 0.3011(5)
O6 O -0.0641(7) -0.6950(5) 0.1967(13)
loop_
_geom_bond_atom_site_label_1
_geom_bond_atom_site_label_2
_geom_bond_site_symmetry_1
_geom_bond_site_symmetry_2
Cu1 N1 1_555 1_555
N1 C1 1_555 1_555
N2 Cu1 1_555 1_555
C1 H1 1_555 1_555
C2 C1 1_555 1_555
H2 C2 1_555 1_555
C3 C2 1_555 1_555
H3 C3 1_555 1_555
C4 C3 1_555 1_555
C5 C4 1_555 1_555
H4 C5 1_555 1_555
C6 C5 1_555 1_555
H5 C6 1_555 1_555
C7 C6 1_555 1_555
C8 C7 1_555 1_555
H6 C8 1_555 1_555
C9 C8 1_555 1_555
H7 C9 1_555 1_555
C10 N2 1_555 1_555
H8 C10 1_555 1_555
C11 N2 1_555 1_555
C12 N1 1_555 1_555
C13 C14 1_555 1_555
C14 C15 1_555 1_555
C15 H9 1_555 1_555
C16 C15 1_555 1_555
H10 C16 1_555 1_555
C17 C16 1_555 1_555
H11 C17 1_555 1_555
C18 C17 1_555 1_555
H12 C18 1_555 1_555
C19 C14 1_555 1_555
C20 C19 1_555 1_555
O1 Cu1 1_555 1_555
O2 C13 1_555 1_555
O3 C20 1_555 1_555
O4 C20 1_555 1_555
O5 Cu1 1_555 1_555
H13 O5 1_555 1_555
H14 O5 1_555 1_555
Cu1C O3 1_555 1_555
O3C Cu1 1_555 1_555
C4 C12 1_555 1_555
C7 C11 1_555 1_555
C9 C10 1_555 1_555
C11 C12 1_555 1_555
C13 O1 1_555 1_555
C18 C19 1_555 1_555

#END
