
#######################################################################
#
#                 Cambridge Crystallographic Data Centre
#                                CCDC 
#
#######################################################################
#
# If this CIF has been generated from an entry in the Cambridge 
# Structural Database, then it will include bibliographic, chemical, 
# crystal, experimental, refinement or atomic coordinate data resulting 
# from the CCDC's data processing and validation procedures.
#
#######################################################################

data_COWKEF
_symmetry_cell_setting           monoclinic
_symmetry_space_group_name_H-M   'P 21/c'
_symmetry_Int_Tables_number      14
_space_group_name_Hall           '-P 2ybc'
loop_
_symmetry_equiv_pos_site_id
_symmetry_equiv_pos_as_xyz
1 x,y,z
2 -x,1/2+y,1/2-z
3 -x,-y,-z
4 x,1/2-y,1/2+z
_cell_length_a                   12.065(2)
_cell_length_b                   8.3587(13)
_cell_length_c                   25.861(4)
_cell_angle_alpha                90
_cell_angle_beta                 99.548(3)
_cell_angle_gamma                90
_cell_volume                     2571.89
loop_
_atom_site_label
_atom_site_type_symbol
_atom_site_fract_x
_atom_site_fract_y
_atom_site_fract_z
Cu1 Cu 0.5000 0.0000 0.0000
O1 O 0.5150(3) -0.0506(3) 0.09270(10)
H1 H 0.4606(18) -0.092(5) 0.1053(13)
H2 H 0.5789(13) -0.054(5) 0.1124(12)
N1 N 0.5503(2) 0.2277(3) 0.02000(12)
N2 N 0.6422(3) 0.4596(4) 0.01661(15)
N3 N 0.6131(2) 0.4389(4) 0.06425(14)
N4 N 1.0429(3) 0.0416(4) 0.19117(13)
N5 N 0.9628(3) -0.0647(4) 0.17035(13)
N6 N 1.1269(3) -0.1178(5) 0.14356(15)
N7 N 0.3364(2) 0.0566(3) -0.00183(11)
N8 N 0.1504(2) 0.0674(4) -0.02920(12)
N9 N 0.1785(2) 0.1345(3) 0.01913(11)
C1 C 0.6021(3) 0.3302(5) -0.00853(16)
H3 H 0.6089 0.3107 -0.0433
C2 C 0.5594(3) 0.3003(4) 0.06586(15)
H4 H 0.5323 0.2605 0.0949
C3 C 0.6573(3) 0.5439(5) 0.10865(17)
H5 H 0.5989 0.5657 0.1293
H6 H 0.6815 0.6448 0.0957
C4 C 0.7552(3) 0.4621(4) 0.14216(16)
C5 C 0.8592(3) 0.4518(5) 0.12640(16)
H7 H 0.8712 0.5051 0.0962
C6 C 0.9450(4) 0.3642(5) 0.15449(16)
H8 H 1.0153 0.3631 0.1442
C7 C 0.9276(4) 0.2776(5) 0.19816(16)
C8 C 0.8247(4) 0.2899(5) 0.21434(17)
H9 H 0.8124 0.2356 0.2442
C9 C 0.7398(4) 0.3816(5) 0.18689(18)
H10 H 0.6713 0.3892 0.1987
C10 C 1.0188(5) 0.1713(6) 0.22578(17)
H11 H 1.0864 0.2338 0.2367
H12 H 0.9957 0.1265 0.2569
C11 C 1.1383(3) 0.0073(6) 0.17493(18)
H13 H 1.2049 0.0641 0.1844
C12 C 1.0191(4) -0.1551(5) 0.14221(17)
H14 H 0.9855 -0.2404 0.1224
C13 C 0.2879(3) 0.1270(4) 0.03453(14)
H15 H 0.3257 0.1656 0.0664
C14 C 0.2481(3) 0.0225(5) -0.03955(14)
H16 H 0.2562 -0.0291 -0.0706
C15 C 0.0914(3) 0.2017(4) 0.04609(14)
H17 H 0.1230 0.2203 0.0826
H18 H 0.0310 0.1245 0.0451
C16 C 0.0441(3) 0.3556(4) 0.02201(14)
C17 C 0.0986(3) 0.4986(5) 0.03483(14)
H19 H 0.1656 0.4993 0.0585
C18 C -0.0552(3) 0.3591(4) -0.01316(14)
H20 H -0.0936 0.2641 -0.0224
Cu1_2 Cu -0.5000 1.0000 0.0000
O1B O 0.4850(3) 0.0506(3) -0.09270(10)
H1B H 0.5394(18) 0.092(5) -0.1053(13)
H2B H 0.4211(13) 0.054(5) -0.1124(12)
N1B N 0.4497(2) -0.2277(3) -0.02000(12)
N2B N 0.3578(3) -0.4596(4) -0.01661(15)
N3B N 0.3869(2) -0.4389(4) -0.06425(14)
N4B N -0.0429(3) -0.0416(4) -0.19117(13)
N5B N 0.0372(3) 0.0647(4) -0.17035(13)
N6B N -0.1269(3) 0.1178(5) -0.14356(15)
N7B N -0.3364(2) 0.9434(3) 0.00183(11)
N7B_2 N 0.6636(2) -0.0566(3) 0.00183(11)
N8B N -0.1504(2) 0.9326(4) 0.02920(12)
N9B N -0.1785(2) 0.8655(3) -0.01913(11)
C1B C 0.3979(3) -0.3302(5) 0.00853(16)
H3B H 0.3911 -0.3107 0.0433
C2B C 0.4406(3) -0.3003(4) -0.06586(15)
H4B H 0.4677 -0.2605 -0.0949
C3B C 0.3427(3) -0.5439(5) -0.10865(17)
H5B H 0.4011 -0.5657 -0.1293
H6B H 0.3185 -0.6448 -0.0957
C4B C 0.2448(3) -0.4621(4) -0.14216(16)
C5B C 0.1408(3) -0.4518(5) -0.12640(16)
H7B H 0.1288 -0.5051 -0.0962
C6B C 0.0550(4) -0.3642(5) -0.15449(16)
H8B H -0.0153 -0.3631 -0.1442
C7B C 0.0724(4) -0.2776(5) -0.19816(16)
C8B C 0.1753(4) -0.2899(5) -0.21434(17)
H9B H 0.1876 -0.2356 -0.2442
C9B C 0.2602(4) -0.3816(5) -0.18689(18)
H10B H 0.3287 -0.3892 -0.1987
C10B C -0.0188(5) -0.1713(6) -0.22578(17)
H11B H -0.0864 -0.2338 -0.2367
H12B H 0.0043 -0.1265 -0.2569
C11B C -0.1383(3) -0.0073(6) -0.17493(18)
H13B H -0.2049 -0.0641 -0.1844
C12B C -0.0191(4) 0.1551(5) -0.14221(17)
H14B H 0.0145 0.2404 -0.1224
C13B C -0.2879(3) 0.8730(4) -0.03453(14)
H15B H -0.3257 0.8344 -0.0664
C14B C -0.2481(3) 0.9775(5) 0.03955(14)
H16B H -0.2562 1.0291 0.0706
C15B C -0.0914(3) 0.7983(4) -0.04609(14)
H17B H -0.1230 0.7797 -0.0826
H18B H -0.0310 0.8755 -0.0451
C16B C -0.0441(3) 0.6444(4) -0.02201(14)
C17B C -0.0986(3) 0.5014(5) -0.03483(14)
H19B H -0.1656 0.5007 -0.0585
C18B C 0.0552(3) 0.6409(4) 0.01316(14)
H20B H 0.0936 0.7359 0.0224
F1 F 0.5008(3) 0.1740(4) 0.19926(13)
F2 F 0.3752(2) 0.1457(3) 0.24710(12)
F3 F 0.4996(3) 0.3216(3) 0.26476(12)
C19 C 0.4342(4) 0.2523(5) 0.22634(18)
S1 S 0.34551(9) 0.39176(13) 0.18554(4)
O2 O 0.4233(3) 0.4971(4) 0.16760(15)
O3 O 0.2864(3) 0.2948(4) 0.14577(12)
O4 O 0.2802(3) 0.4587(5) 0.21954(13)
O5 O 0.3364(3) 0.7876(4) 0.12025(13)
H21 H 0.272(2) 0.823(5) 0.1235(18)
H22 H 0.361(3) 0.709(4) 0.1400(17)
O6 O 0.7155(3) 0.9227(5) 0.16606(13)
H23 H 0.697(4) 0.929(7) 0.1965(9)
H24 H 0.7855(13) 0.916(7) 0.1652(18)
loop_
_geom_bond_atom_site_label_1
_geom_bond_atom_site_label_2
_geom_bond_site_symmetry_1
_geom_bond_site_symmetry_2
Cu1 O1 1_555 1_555
F1 C19 1_555 1_555
F2 C19 1_555 1_555
F3 C19 1_555 1_555
O1 H1 1_555 1_555
H2 O1 1_555 1_555
N1 Cu1 1_555 1_555
N2 N3 1_555 1_555
N3 C2 1_555 1_555
N4 N5 1_555 1_555
N5 C12 1_555 1_555
N6 C11 1_555 1_555
N7 Cu1 1_555 1_555
N8 N9 1_555 1_555
N9 C13 1_555 1_555
C1 N1 1_555 1_555
H3 C1 1_555 1_555
C2 N1 1_555 1_555
H4 C2 1_555 1_555
C3 N3 1_555 1_555
H5 C3 1_555 1_555
H6 C3 1_555 1_555
C4 C3 1_555 1_555
C5 C4 1_555 1_555
H7 C5 1_555 1_555
C6 C5 1_555 1_555
H8 C6 1_555 1_555
C7 C6 1_555 1_555
C8 C7 1_555 1_555
H9 C8 1_555 1_555
C9 C4 1_555 1_555
H10 C9 1_555 1_555
C10 N4 1_555 1_555
H11 C10 1_555 1_555
H12 C10 1_555 1_555
C11 N4 1_555 1_555
H13 C11 1_555 1_555
C12 N6 1_555 1_555
H14 C12 1_555 1_555
C13 N7 1_555 1_555
H15 C13 1_555 1_555
C14 N7 1_555 1_555
H16 C14 1_555 1_555
C15 N9 1_555 1_555
H17 C15 1_555 1_555
H18 C15 1_555 1_555
C16 C15 1_555 1_555
C17 C16 1_555 1_555
H19 C17 1_555 1_555
C18 C16 1_555 1_555
H20 C18 1_555 1_555
C19 S1 1_555 1_555
S1 O2 1_555 1_555
O3 S1 1_555 1_555
O4 S1 1_555 1_555
O5 H21 1_555 1_555
H22 O5 1_555 1_555
O6 H23 1_555 1_555
H24 O6 1_555 1_555
Cu1_2 N7B 1_555 1_555
O1B Cu1 1_555 1_555
H1B O1B 1_555 1_555
H2B O1B 1_555 1_555
N1B Cu1 1_555 1_555
N2B N3B 1_555 1_555
N3B C2B 1_555 1_555
N4B N5B 1_555 1_555
N5B C12B 1_555 1_555
N6B C11B 1_555 1_555
N7B C13B 1_555 1_555
N7B_2 Cu1 1_555 1_555
N8B N9B 1_555 1_555
N9B C13B 1_555 1_555
C1B N1B 1_555 1_555
H3B C1B 1_555 1_555
C2B N1B 1_555 1_555
H4B C2B 1_555 1_555
C3B N3B 1_555 1_555
H5B C3B 1_555 1_555
H6B C3B 1_555 1_555
C4B C3B 1_555 1_555
C5B C4B 1_555 1_555
H7B C5B 1_555 1_555
C6B C5B 1_555 1_555
H8B C6B 1_555 1_555
C7B C6B 1_555 1_555
C8B C7B 1_555 1_555
H9B C8B 1_555 1_555
C9B C4B 1_555 1_555
H10B C9B 1_555 1_555
C10B N4B 1_555 1_555
H11B C10B 1_555 1_555
H12B C10B 1_555 1_555
C11B N4B 1_555 1_555
H13B C11B 1_555 1_555
C12B N6B 1_555 1_555
H14B C12B 1_555 1_555
C13B H15B 1_555 1_555
C14B N7B 1_555 1_555
H16B C14B 1_555 1_555
C15B N9B 1_555 1_555
H17B C15B 1_555 1_555
H18B C15B 1_555 1_555
C16B C15B 1_555 1_555
C17B C18 1_555 1_555
H19B C17B 1_555 1_555
C18B C17 1_555 1_555
H20B C18B 1_555 1_555
N2 C1 1_555 1_555
N8 C14 1_555 1_555
C7 C10 1_555 1_555
C8 C9 1_555 1_555
N2B C1B 1_555 1_555
N8B C14B 1_555 1_555
C7B C10B 1_555 1_555
C8B C9B 1_555 1_555
C16B C17B 1_555 1_555
C16B C18B 1_555 1_555

#END
