
#######################################################################
#
#                 Cambridge Crystallographic Data Centre
#                                CCDC 
#
#######################################################################
#
# If this CIF has been generated from an entry in the Cambridge 
# Structural Database, then it will include bibliographic, chemical, 
# crystal, experimental, refinement or atomic coordinate data resulting 
# from the CCDC's data processing and validation procedures.
#
#######################################################################

data_COWKOP
_symmetry_cell_setting           monoclinic
_symmetry_space_group_name_H-M   'C 2/c'
_symmetry_Int_Tables_number      15
_space_group_name_Hall           '-C 2yn'
loop_
_symmetry_equiv_pos_site_id
_symmetry_equiv_pos_as_xyz
1 x,y,z
2 -x,y,1/2-z
3 1/2+x,1/2+y,z
4 1/2-x,1/2+y,1/2-z
5 -x,-y,-z
6 x,-y,1/2+z
7 1/2-x,1/2-y,-z
8 1/2+x,1/2-y,1/2+z
_cell_length_a                   22.296(12)
_cell_length_b                   9.268(5)
_cell_length_c                   20.969(11)
_cell_angle_alpha                90
_cell_angle_beta                 119.640(5)
_cell_angle_gamma                90
_cell_volume                     3766.04
loop_
_atom_site_label
_atom_site_type_symbol
_atom_site_fract_x
_atom_site_fract_y
_atom_site_fract_z
Cu1 Cu 0.5000 0.87347(8) 0.7500
O1 O 0.5000 1.1337(5) 0.7500
H1 H 0.4669 1.1876 0.7442
O2 O 0.5000 0.6155(5) 0.7500
H2 H 0.4736 0.5555 0.7547
N1 N 0.52585(18) 0.8074(4) 0.57053(19)
N2 N 0.5667(2) 0.9257(5) 0.5964(2)
N3 N 0.52518(17) 0.8645(4) 0.67014(18)
N4 N 0.80539(18) 0.4394(4) 0.57359(19)
N5 N 0.7894(2) 0.3209(5) 0.6000(2)
N6 N 0.89924(17) 0.3831(4) 0.67238(18)
C1 C 0.5647(2) 0.9557(5) 0.6564(3)
H3 H 0.5884 1.0329 0.6869
C2 C 0.5017(2) 0.7735(5) 0.6146(2)
H4 H 0.4722 0.6966 0.6075
C3 C 0.5116(2) 0.7372(6) 0.5022(3)
H5 H 0.4898 0.8060 0.4622
H6 H 0.4795 0.6584 0.4922
C4 C 0.5764(2) 0.6792(5) 0.5050(2)
C5 C 0.5774(3) 0.6554(7) 0.4411(3)
H7 H 0.5387 0.6780 0.3965
C6 C 0.6350(3) 0.5983(7) 0.4417(3)
H8 H 0.6345 0.5831 0.3976
C7 C 0.6928(2) 0.5641(5) 0.5064(2)
C8 C 0.6917(3) 0.5894(8) 0.5698(3)
H9 H 0.7308 0.5695 0.6145
C9 C 0.6339(3) 0.6438(8) 0.5692(3)
H10 H 0.6342 0.6566 0.6133
C10 C 0.7553(2) 0.5071(6) 0.5044(2)
H11 H 0.7405 0.4369 0.4651
H12 H 0.7775 0.5860 0.4936
C11 C 0.8478(2) 0.2915(5) 0.6594(3)
H13 H 0.8531 0.2140 0.6900
C12 C 0.8707(2) 0.4744(5) 0.6170(2)
H14 H 0.8931 0.5518 0.6097
Cu1B Cu 1.0000 0.37347(8) 0.7500
Cu1B_2 Cu 1.0000 1.37347(8) 0.7500
H1A H 0.5331 1.1876 0.7558
H2A H 0.5264 0.5555 0.7453
N1C N 0.97415(18) 1.3074(4) 0.92947(19)
N2C N 0.9333(2) 1.4257(5) 0.9036(2)
N3C N 0.97482(17) 1.3645(4) 0.82986(18)
N3A N 0.47482(17) 0.8645(4) 0.82986(18)
N4C N 0.69461(18) 0.9394(4) 0.92641(19)
N5C N 0.7106(2) 0.8209(5) 0.9000(2)
N6C N 0.60076(17) 0.8831(4) 0.82762(18)
N6B N 0.39924(17) 0.8831(4) 0.67238(18)
C1C C 0.9353(2) 1.4557(5) 0.8436(3)
H3C H 0.9116 1.5329 0.8131
C2C C 0.9983(2) 1.2735(5) 0.8854(2)
H4C H 1.0278 1.1966 0.8925
C3C C 0.9884(2) 1.2372(6) 0.9978(3)
H5C H 1.0102 1.3060 1.0378
H6C H 1.0205 1.1584 1.0078
C4C C 0.9236(2) 1.1792(5) 0.9950(2)
C5C C 0.9226(3) 1.1554(7) 1.0589(3)
H7C H 0.9613 1.1780 1.1035
C6C C 0.8650(3) 1.0983(7) 1.0583(3)
H8C H 0.8655 1.0831 1.1024
C7C C 0.8072(2) 1.0641(5) 0.9936(2)
C8C C 0.8083(3) 1.0894(8) 0.9302(3)
H9C H 0.7692 1.0695 0.8855
C9C C 0.8661(3) 1.1438(8) 0.9308(3)
H10C H 0.8658 1.1566 0.8867
C10C C 0.7447(2) 1.0071(6) 0.9956(2)
H11C H 0.7595 0.9369 1.0349
H12C H 0.7225 1.0860 1.0064
C11C C 0.6522(2) 0.7915(5) 0.8406(3)
H13C H 0.6469 0.7140 0.8100
C12C C 0.6293(2) 0.9744(5) 0.8830(2)
H14C H 0.6069 1.0518 0.8903
S1 S 0.12836(7) 0.86826(17) 0.72578(9)
F1 F 0.2548(3) 0.7924(7) 0.7765(4)
F2 F 0.2400(3) 0.9479(7) 0.8406(2)
F3 F 0.2360(3) 0.9974(7) 0.7399(3)
O3 O 0.1209(3) 0.7649(8) 0.7724(3)
O4 O 0.0999(3) 1.0042(7) 0.7213(4)
O5 O 0.1157(3) 0.8074(6) 0.6586(3)
C13 C 0.2194(3) 0.9018(7) 0.7745(3)
O6 O 0.1386(3) 0.3504(9) 0.0319(3)
H15 H 0.1443 0.2632 0.0464
H16 H 0.1385 0.3888 0.0698
loop_
_geom_bond_atom_site_label_1
_geom_bond_atom_site_label_2
_geom_bond_site_symmetry_1
_geom_bond_site_symmetry_2
Cu1 O1 1_555 1_555
S1 O3 1_555 1_555
F1 C13 1_555 1_555
F2 C13 1_555 1_555
F3 C13 1_555 1_555
O1 H1 1_555 1_555
O2 Cu1 1_555 1_555
H2 O2 1_555 1_555
O4 S1 1_555 1_555
O5 S1 1_555 1_555
N1 N2 1_555 1_555
N2 C1 1_555 1_555
N3 Cu1 1_555 1_555
N4 N5 1_555 1_555
N5 C11 1_555 1_555
N6 C11 1_555 1_555
C1 N3 1_555 1_555
H3 C1 1_555 1_555
C2 N1 1_555 1_555
H4 C2 1_555 1_555
C3 N1 1_555 1_555
H5 C3 1_555 1_555
H6 C3 1_555 1_555
C4 C3 1_555 1_555
C5 C4 1_555 1_555
H7 C5 1_555 1_555
C6 C5 1_555 1_555
H8 C6 1_555 1_555
C7 C6 1_555 1_555
C8 C7 1_555 1_555
H9 C8 1_555 1_555
C9 C4 1_555 1_555
H10 C9 1_555 1_555
C10 N4 1_555 1_555
H11 C10 1_555 1_555
H12 C10 1_555 1_555
C11 H13 1_555 1_555
C12 N4 1_555 1_555
H14 C12 1_555 1_555
C13 S1 1_555 1_555
O6 H15 1_555 1_555
H16 O6 1_555 1_555
Cu1B N6 1_555 1_555
Cu1B_2 N3C 1_555 1_555
H1A O1 1_555 1_555
H2A O2 1_555 1_555
N1C N2C 1_555 1_555
N2C C1C 1_555 1_555
N3C C1C 1_555 1_555
N3A Cu1 1_555 1_555
N4C N5C 1_555 1_555
N5C C11C 1_555 1_555
N6C Cu1 1_555 1_555
N6B Cu1 1_555 1_555
C1C H3C 1_555 1_555
C2C N1C 1_555 1_555
H4C C2C 1_555 1_555
C3C N1C 1_555 1_555
H5C C3C 1_555 1_555
H6C C3C 1_555 1_555
C4C C3C 1_555 1_555
C5C C4C 1_555 1_555
H7C C5C 1_555 1_555
C6C C5C 1_555 1_555
H8C C6C 1_555 1_555
C7C C6C 1_555 1_555
C8C C7C 1_555 1_555
H9C C8C 1_555 1_555
C9C C4C 1_555 1_555
H10C C9C 1_555 1_555
C10C N4C 1_555 1_555
H11C C10C 1_555 1_555
H12C C10C 1_555 1_555
C11C N6C 1_555 1_555
H13C C11C 1_555 1_555
C12C N4C 1_555 1_555
H14C C12C 1_555 1_555
N3 C2 1_555 1_555
N6 C12 1_555 1_555
C7 C10 1_555 1_555
C8 C9 1_555 1_555
N3C C2C 1_555 1_555
N6C C12C 1_555 1_555
C7C C10C 1_555 1_555
C8C C9C 1_555 1_555

#END
