
#######################################################################
#
#                 Cambridge Crystallographic Data Centre
#                                CCDC 
#
#######################################################################
#
# If this CIF has been generated from an entry in the Cambridge 
# Structural Database, then it will include bibliographic, chemical, 
# crystal, experimental, refinement or atomic coordinate data resulting 
# from the CCDC's data processing and validation procedures.
#
#######################################################################

data_COWLEG
_symmetry_cell_setting           monoclinic
_symmetry_space_group_name_H-M   'P 21/n'
_symmetry_Int_Tables_number      14
_space_group_name_Hall           '-P 2yn'
loop_
_symmetry_equiv_pos_site_id
_symmetry_equiv_pos_as_xyz
1 x,y,z
2 1/2-x,1/2+y,1/2-z
3 -x,-y,-z
4 1/2+x,1/2-y,1/2+z
_cell_length_a                   3.7527(8)
_cell_length_b                   16.473(3)
_cell_length_c                   8.0342(16)
_cell_angle_alpha                90
_cell_angle_beta                 94.71(3)
_cell_angle_gamma                90
_cell_volume                     494.983
loop_
_atom_site_label
_atom_site_type_symbol
_atom_site_fract_x
_atom_site_fract_y
_atom_site_fract_z
C1 C 1.0935(7) -0.15348(17) -0.2845(3)
Cd1 Cd 1.0000 0.0000 0.0000
Cl1 Cl 1.46307(18) 0.05498(4) -0.19980(8)
H1 H 1.164(16) -0.059(4) -0.394(7)
H2 H 1.240(13) -0.129(3) -0.499(6)
N1 N 1.1987(9) -0.1088(2) -0.4092(4)
N2 N 1.0682(7) -0.23434(15) -0.2825(3)
H3 H 1.1243 -0.2664 -0.3607
N3 N 0.9404(8) -0.25759(15) -0.1376(3)
N4 N 0.8926(8) -0.19256(15) -0.0554(3)
N5 N 0.9852(7) -0.12606(13) -0.1413(3)
C1B C 0.9065(7) 0.15348(17) 0.2845(3)
Cd1_2 Cd 2.0000 0.0000 0.0000
Cd1_3 Cd 0.0000 0.0000 0.0000
Cl1_2 Cl 0.46307(18) 0.05498(4) -0.19980(8)
Cl1B Cl 1.53693(18) -0.05498(4) 0.19980(8)
Cl1B_2 Cl 0.53693(18) -0.05498(4) 0.19980(8)
H1B H 0.836(16) 0.059(4) 0.394(7)
H2B H 0.760(13) 0.129(3) 0.499(6)
N1B N 0.8013(9) 0.1088(2) 0.4092(4)
N2B N 0.9318(7) 0.23434(15) 0.2825(3)
H3B H 0.8757 0.2664 0.3607
N3B N 1.0596(8) 0.25759(15) 0.1376(3)
N4B N 1.1074(8) 0.19256(15) 0.0554(3)
N5B N 1.0148(7) 0.12606(13) 0.1413(3)
loop_
_geom_bond_atom_site_label_1
_geom_bond_atom_site_label_2
_geom_bond_site_symmetry_1
_geom_bond_site_symmetry_2
C1 N1 1_555 1_555
Cd1 Cl1 1_555 1_555
Cl1 Cd1_2 1_555 1_555
H1 N1 1_555 1_555
H2 N1 1_555 1_555
N2 C1 1_555 1_555
H3 N2 1_555 1_555
N3 N2 1_555 1_555
N4 N3 1_555 1_555
N5 C1 1_555 1_555
C1B N1B 1_555 1_555
Cd1_2 Cl1B 1_555 1_555
Cd1_3 Cl1_2 1_555 1_555
Cl1_2 Cd1 1_555 1_555
Cl1B Cd1 1_555 1_555
Cl1B_2 Cd1 1_555 1_555
H1B N1B 1_555 1_555
H2B N1B 1_555 1_555
N2B C1B 1_555 1_555
H3B N2B 1_555 1_555
N3B N2B 1_555 1_555
N4B N3B 1_555 1_555
N5B Cd1 1_555 1_555
Cd1 N5 1_555 1_555
N4 N5 1_555 1_555
C1B N5B 1_555 1_555
Cd1_3 Cl1B_2 1_555 1_555
N4B N5B 1_555 1_555

#END
