
#######################################################################
#
#                 Cambridge Crystallographic Data Centre
#                                CCDC 
#
#######################################################################
#
# If this CIF has been generated from an entry in the Cambridge 
# Structural Database, then it will include bibliographic, chemical, 
# crystal, experimental, refinement or atomic coordinate data resulting 
# from the CCDC's data processing and validation procedures.
#
#######################################################################

data_COWLOQ
_symmetry_cell_setting           monoclinic
_symmetry_space_group_name_H-M   'C 2/c'
_symmetry_Int_Tables_number      15
_space_group_name_Hall           '-C 2yn'
loop_
_symmetry_equiv_pos_site_id
_symmetry_equiv_pos_as_xyz
1 x,y,z
2 -x,y,1/2-z
3 1/2+x,1/2+y,z
4 1/2-x,1/2+y,1/2-z
5 -x,-y,-z
6 x,-y,1/2+z
7 1/2-x,1/2-y,-z
8 1/2+x,1/2-y,1/2+z
_cell_length_a                   30.102(6)
_cell_length_b                   7.6184(15)
_cell_length_c                   23.820(5)
_cell_angle_alpha                90
_cell_angle_beta                 122.29(3)
_cell_angle_gamma                90
_cell_volume                     4617.85
loop_
_atom_site_label
_atom_site_type_symbol
_atom_site_fract_x
_atom_site_fract_y
_atom_site_fract_z
Co1 Co 0.034602(14) -0.14422(4) 0.024400(16)
F1 F 0.23447(8) 0.5133(3) -0.01880(8)
F2 F 0.18454(8) 0.7269(3) -0.07538(9)
F3 F 0.25205(7) 0.6666(3) -0.07999(9)
F4 F 0.25343(7) 0.2758(3) -0.08522(9)
F5 F 0.18954(8) 0.2091(3) -0.18275(9)
F6 F 0.23958(8) 0.4255(3) -0.16911(10)
O1 O 0.06468(8) 0.0066(3) -0.01799(10)
O2 O 0.00974(8) 0.7269(3) -0.43754(9)
O3 O 0.00988(8) 0.2343(3) -0.05846(10)
O4 O 0.06371(9) 0.9575(3) -0.40078(10)
N1 N 0.10124(9) -0.2974(3) 0.07538(11)
C1 C 0.04919(11) 0.1492(4) -0.04869(13)
C2 C 0.12313(13) 0.8139(4) -0.27462(14)
H1 H 0.1295 0.9295 -0.2808
C3 C 0.15433(12) 0.7361(4) -0.21282(14)
H2 H 0.1815 0.7996 -0.1781
C4 C 0.08076(11) 0.2247(4) -0.07473(14)
C5 C 0.17839(10) 0.4684(4) -0.13559(13)
C6 C 0.21287(12) 0.5956(5) -0.07704(14)
C7 C 0.21553(12) 0.3445(5) -0.14272(15)
C8 C 0.04938(12) 0.8081(4) -0.39387(13)
C9 C 0.12324(12) 0.1341(4) -0.06778(15)
H3 H 0.1311 0.0227 -0.0489
C10 C 0.14519(11) 0.5649(4) -0.20262(13)
C11 C 0.14296(11) 0.3724(4) -0.11690(13)
C12 C 0.10022(12) 0.4625(4) -0.12414(15)
H4 H 0.0920 0.5733 -0.1435
C13 C 0.10490(11) 0.4727(4) -0.25584(13)
H5 H 0.0985 0.3570 -0.2498
C14 C 0.07419(11) 0.5493(4) -0.31755(13)
H6 H 0.0477 0.4849 -0.3527
C15 C 0.08283(11) 0.7223(4) -0.32702(13)
C16 C 0.06977(12) 0.3904(4) -0.10308(16)
H7 H 0.0415 0.4534 -0.1079
C17 C 0.15407(12) 0.2073(4) -0.08851(15)
H8 H 0.1826 0.1449 -0.0833
C18 C 0.19107(15) -0.3308(6) 0.1615(2)
H9 H 0.2216 -0.2816 0.1967
C19 C 0.14623(13) -0.2323(5) 0.12581(17)
H10 H 0.1472 -0.1150 0.1372
C20 C 0.10087(13) -0.4643(4) 0.05970(17)
H11 H 0.0699 -0.5119 0.0246
C21 C 0.14440(17) -0.5697(5) 0.0933(2)
H12 H 0.1427 -0.6866 0.0810
C22 C 0.18986(17) -0.5025(6) 0.1443(2)
H13 H 0.2197 -0.5722 0.1673
Co1D Co -0.034602(14) 0.14422(4) -0.024400(16)
Co1A Co -0.034602(14) 0.85578(4) -0.524400(16)
Co1E Co 0.034602(14) 1.14422(4) -0.475600(16)
O2A O -0.00974(8) -0.2731(3) -0.06246(9)
O3D O -0.00988(8) -0.2343(3) 0.05846(10)
O4E O 0.06371(9) 0.0425(3) 0.09922(10)
loop_
_geom_bond_atom_site_label_1
_geom_bond_atom_site_label_2
_geom_bond_site_symmetry_1
_geom_bond_site_symmetry_2
Co1 O1 1_555 1_555
F1 C6 1_555 1_555
F2 C6 1_555 1_555
F3 C6 1_555 1_555
F4 C7 1_555 1_555
F5 C7 1_555 1_555
F6 C7 1_555 1_555
O1 C1 1_555 1_555
O2 C8 1_555 1_555
O3 C1 1_555 1_555
O4 C8 1_555 1_555
N1 Co1 1_555 1_555
C1 C4 1_555 1_555
C2 H1 1_555 1_555
C3 C2 1_555 1_555
H2 C3 1_555 1_555
C4 C9 1_555 1_555
C5 C6 1_555 1_555
C7 C5 1_555 1_555
C8 C15 1_555 1_555
C9 H3 1_555 1_555
C10 C3 1_555 1_555
C11 C5 1_555 1_555
C12 C11 1_555 1_555
H4 C12 1_555 1_555
C13 C10 1_555 1_555
H5 C13 1_555 1_555
C14 C13 1_555 1_555
H6 C14 1_555 1_555
C15 C2 1_555 1_555
C16 C4 1_555 1_555
H7 C16 1_555 1_555
C17 C9 1_555 1_555
H8 C17 1_555 1_555
C18 H9 1_555 1_555
C19 N1 1_555 1_555
H10 C19 1_555 1_555
C20 N1 1_555 1_555
H11 C20 1_555 1_555
C21 C20 1_555 1_555
H12 C21 1_555 1_555
C22 C18 1_555 1_555
H13 C22 1_555 1_555
Co1D Co1 1_555 1_555
Co1A O2 1_555 1_555
Co1E O4 1_555 1_555
O2A Co1 1_555 1_555
O3D Co1 1_555 1_555
O4E Co1 1_555 1_555
O3 Co1D 1_555 1_555
C5 C10 1_555 1_555
C11 C17 1_555 1_555
C12 C16 1_555 1_555
C14 C15 1_555 1_555
C18 C19 1_555 1_555
C21 C22 1_555 1_555
Co1A Co1E 1_555 1_555

#END
