
#######################################################################
#
#                 Cambridge Crystallographic Data Centre
#                                CCDC 
#
#######################################################################
#
# If this CIF has been generated from an entry in the Cambridge 
# Structural Database, then it will include bibliographic, chemical, 
# crystal, experimental, refinement or atomic coordinate data resulting 
# from the CCDC's data processing and validation procedures.
#
#######################################################################

data_COWLAC02
_symmetry_cell_setting           monoclinic
_symmetry_space_group_name_H-M   'P 21/c'
_symmetry_Int_Tables_number      14
_space_group_name_Hall           '-P 2ybc'
loop_
_symmetry_equiv_pos_site_id
_symmetry_equiv_pos_as_xyz
1 x,y,z
2 -x,1/2+y,1/2-z
3 -x,-y,-z
4 x,1/2-y,1/2+z
_cell_length_a                   8.8562(6)
_cell_length_b                   9.5734(7)
_cell_length_c                   13.3383(9)
_cell_angle_alpha                90
_cell_angle_beta                 102.9140(10)
_cell_angle_gamma                90
_cell_volume                     1102.27
loop_
_atom_site_label
_atom_site_type_symbol
_atom_site_fract_x
_atom_site_fract_y
_atom_site_fract_z
Cd1 Cd 0.39097(4) 0.89269(4) 0.59146(3)
Cd2 Cd 1.0000 1.0000 0.5000
Cd3 Cd 0.75434(4) 0.74019(4) 0.80442(3)
S1 S 0.73158(15) 0.78653(13) 0.55114(9)
O1 O 0.6163(4) 0.8989(4) 0.5188(3)
O2 O 0.8862(4) 0.8449(5) 0.5903(3)
O3 O 0.6843(5) 0.7052(4) 0.6332(3)
O4 O 0.7302(5) 0.6922(4) 0.4643(3)
O5 O 1.1969(4) 1.0143(4) 0.6412(3)
N1 N 1.2530(5) 0.7836(5) 0.4491(4)
N2 N 1.1045(5) 0.8222(5) 0.4197(4)
N3 N 1.0279(5) 0.7325(5) 0.3516(4)
N4 N 1.1246(5) 0.6323(5) 0.3346(4)
N5 N 1.3923(6) 0.5892(5) 0.4035(4)
H1 H 1.3911 0.5150 0.3669
H2 H 1.4768 0.6153 0.4446
N6 N 0.6941(5) 0.9775(5) 0.7729(3)
N7 N 0.5515(5) 1.0150(5) 0.7186(3)
N8 N 0.5217(5) 1.1431(5) 0.7405(3)
N9 N 0.6440(5) 1.1950(5) 0.8105(3)
N10 N 0.8900(5) 1.0998(5) 0.8916(4)
H3 H 0.9515 1.0292 0.8995
H4 H 0.9183 1.1761 0.9245
C1 C 1.2625(6) 0.6641(6) 0.3964(4)
C2 C 0.7488(6) 1.0910(6) 0.8274(4)
Cd1B Cd 1.60903(4) 1.10731(4) 0.40854(3)
Cd1B_2 Cd 0.60903(4) 1.10731(4) 0.40854(3)
Cd1_2 Cd 1.39097(4) 0.89269(4) 0.59146(3)
Cd1A Cd 0.60903(4) 1.39269(4) 0.90854(3)
Cd1A_2 Cd 0.60903(4) 0.39269(4) 0.90854(3)
Cd3B Cd 1.24566(4) 1.25981(4) 0.19558(3)
Cd3C Cd 0.75434(4) 0.75981(4) 0.30442(3)
Cd3A Cd 1.24566(4) 1.24019(4) 0.69558(3)
Cd3A_2 Cd 0.24566(4) 1.24019(4) 0.69558(3)
Cd3A_3 Cd 0.24566(4) 0.24019(4) 0.69558(3)
S1B S 1.26842(15) 1.21347(13) 0.44886(9)
O1B O 1.3837(4) 1.1011(4) 0.4812(3)
O1B_2 O 0.3837(4) 1.1011(4) 0.4812(3)
O1_2 O 1.6163(4) 0.8989(4) 0.5188(3)
O2B O 1.1138(4) 1.1551(5) 0.4097(3)
O3B O 1.3157(5) 1.2948(4) 0.3668(3)
O4B O 1.2698(5) 1.3078(4) 0.5357(3)
O4C O 0.7302(5) 0.8078(4) 0.9643(3)
O4A O 1.2698(5) 1.1922(4) 0.0357(3)
O5B O 0.8031(4) 0.9857(4) 0.3588(3)
O5_2 O 0.1969(4) 1.0143(4) 0.6412(3)
O5A O 0.8031(4) 0.5143(4) 0.8588(3)
O5B_2 O 1.8031(4) 0.9857(4) 0.3588(3)
O5C O 1.1969(4) 1.4857(4) 0.1412(3)
N1B N 0.7470(5) 1.2164(5) 0.5509(4)
N1_2 N 0.2530(5) 0.7836(5) 0.4491(4)
N1B_2 N 1.7470(5) 1.2164(5) 0.5509(4)
N2B N 0.8955(5) 1.1778(5) 0.5803(4)
N3B N 0.9721(5) 1.2675(5) 0.6484(4)
N3C N 1.0279(5) 0.7675(5) 0.8516(4)
N3A N 0.9721(5) 1.2325(5) 0.1484(4)
N4B N 0.8754(5) 1.3677(5) 0.6654(4)
N5B N 0.6077(6) 1.4108(5) 0.5965(4)
H1B H 0.6089 1.4850 0.6331
H2B H 0.5232 1.3847 0.5554
N6A N 0.3059(5) 0.4775(5) 0.7271(3)
N6B N 1.3059(5) 1.0225(5) 0.2271(3)
N7A N 0.4485(5) 0.5150(5) 0.7814(3)
N7B N 1.4485(5) 0.9850(5) 0.2814(3)
N8A N 0.4783(5) 0.6431(5) 0.7595(3)
N8C N 1.5217(5) 1.3569(5) 0.2405(3)
N9A N 0.3560(5) 0.6950(5) 0.6895(3)
N9C N 1.6440(5) 1.3050(5) 0.3105(3)
N10A N 0.1100(5) 0.5998(5) 0.6084(4)
H3A H 0.0485 0.5292 0.6005
H4A H 0.0817 0.6761 0.5755
C1B C 0.7375(6) 1.3359(6) 0.6036(4)
C2A C 0.2512(6) 0.5910(6) 0.6726(4)
loop_
_geom_bond_atom_site_label_1
_geom_bond_atom_site_label_2
_geom_bond_site_symmetry_1
_geom_bond_site_symmetry_2
Cd1 O1 1_555 1_555
Cd2 O2 1_555 1_555
Cd3 O3 1_555 1_555
S1 O1 1_555 1_555
O1 Cd1B_2 1_555 1_555
O2 S1 1_555 1_555
O3 S1 1_555 1_555
O4 S1 1_555 1_555
O5 Cd2 1_555 1_555
N1 N2 1_555 1_555
N2 Cd2 1_555 1_555
N3 N2 1_555 1_555
N4 N3 1_555 1_555
N5 H1 1_555 1_555
H2 N5 1_555 1_555
N6 Cd3 1_555 1_555
N7 Cd1 1_555 1_555
N8 N7 1_555 1_555
N9 N8 1_555 1_555
N10 H3 1_555 1_555
H4 N10 1_555 1_555
C1 N1 1_555 1_555
C2 N6 1_555 1_555
Cd1B O1B 1_555 1_555
Cd1B_2 O1B_2 1_555 1_555
Cd1_2 O5 1_555 1_555
Cd1A N9 1_555 1_555
Cd1A_2 O5A 1_555 1_555
Cd3B O3B 1_555 1_555
Cd3C O4 1_555 1_555
Cd3A O5 1_555 1_555
Cd3A_2 N8 1_555 1_555
Cd3A_3 N6A 1_555 1_555
S1B O1B 1_555 1_555
O1B Cd1_2 1_555 1_555
O1B_2 Cd1 1_555 1_555
O1_2 Cd1B 1_555 1_555
O2B Cd2 1_555 1_555
O3B S1B 1_555 1_555
O4B Cd3A 1_555 1_555
O4C Cd3 1_555 1_555
O4A Cd3B 1_555 1_555
O5B Cd2 1_555 1_555
O5_2 Cd1 1_555 1_555
O5A Cd3 1_555 1_555
O5B_2 Cd1B 1_555 1_555
O5C Cd3B 1_555 1_555
N1B Cd1B_2 1_555 1_555
N1_2 Cd1 1_555 1_555
N1B_2 Cd1B 1_555 1_555
N2B Cd2 1_555 1_555
N3B Cd3A 1_555 1_555
N3C Cd3 1_555 1_555
N3A Cd3B 1_555 1_555
N4B N3B 1_555 1_555
N5B H1B 1_555 1_555
H2B N5B 1_555 1_555
N6A N7A 1_555 1_555
N6B Cd3B 1_555 1_555
N7A Cd1A_2 1_555 1_555
N7B Cd1B 1_555 1_555
N8A Cd3 1_555 1_555
N8C Cd3B 1_555 1_555
N9A Cd1 1_555 1_555
N9C Cd1B 1_555 1_555
N10A H3A 1_555 1_555
H4A N10A 1_555 1_555
C1B N1B 1_555 1_555
C2A N6A 1_555 1_555
N1 Cd1_2 1_555 1_555
N3 Cd3C 1_555 1_555
N4 C1 1_555 1_555
N5 C1 1_555 1_555
N6 N7 1_555 1_555
N9 C2 1_555 1_555
N10 C2 1_555 1_555
Cd1B_2 O5B 1_555 1_555
Cd1_2 O1_2 1_555 1_555
Cd3C O5B 1_555 1_555
Cd3A_2 O5_2 1_555 1_555
S1B O2B 1_555 1_555
S1B O4B 1_555 1_555
N1B N2B 1_555 1_555
N2B N3B 1_555 1_555
N4B C1B 1_555 1_555
N5B C1B 1_555 1_555
N6B N7B 1_555 1_555
N7A N8A 1_555 1_555
N8A N9A 1_555 1_555
N8C N9C 1_555 1_555
N9A C2A 1_555 1_555
N10A C2A 1_555 1_555

#END
