
#######################################################################
#
#                 Cambridge Crystallographic Data Centre
#                                CCDC 
#
#######################################################################
#
# If this CIF has been generated from an entry in the Cambridge 
# Structural Database, then it will include bibliographic, chemical, 
# crystal, experimental, refinement or atomic coordinate data resulting 
# from the CCDC's data processing and validation procedures.
#
#######################################################################

data_COWLAC03
_symmetry_cell_setting           monoclinic
_symmetry_space_group_name_H-M   'P 21/c'
_symmetry_Int_Tables_number      14
_space_group_name_Hall           '-P 2ybc'
loop_
_symmetry_equiv_pos_site_id
_symmetry_equiv_pos_as_xyz
1 x,y,z
2 -x,1/2+y,1/2-z
3 -x,-y,-z
4 x,1/2-y,1/2+z
_cell_length_a                   8.8682(3)
_cell_length_b                   9.5764(4)
_cell_length_c                   13.3436(5)
_cell_angle_alpha                90
_cell_angle_beta                 102.9460(10)
_cell_angle_gamma                90
_cell_volume                     1104.41
loop_
_atom_site_label
_atom_site_type_symbol
_atom_site_fract_x
_atom_site_fract_y
_atom_site_fract_z
Cd1 Cd 0.39153(4) 0.60723(4) 1.09213(3)
Cd2 Cd 1.0000 0.5000 1.0000
Cd3 Cd 0.75378(4) 0.73928(4) 0.80503(3)
S1 S 0.73092(14) 0.71413(13) 1.05148(9)
O1 O 0.6157(4) 0.6020(3) 1.0190(3)
O2 O 0.7295(4) 0.8082(4) 0.9645(3)
O3 O 0.8845(4) 0.6553(4) 1.0902(3)
O4 O 0.6830(4) 0.7949(4) 1.1338(3)
O5 O 0.8018(4) 0.5153(3) 0.8603(3)
H1 H 0.8280 0.4700 0.8120
N1 N 1.2526(4) 0.7167(4) 0.9494(3)
N2 N 1.1042(5) 0.6778(4) 0.9206(3)
N3 N 1.0286(5) 0.7664(4) 0.8538(3)
N4 N 1.1235(5) 0.8670(4) 0.8344(3)
N5 N 1.3920(5) 0.9101(5) 0.9037(4)
H2 H 1.3909 0.9849 0.8678
H3 H 1.4763 0.8834 0.9446
N6 N 0.3566(5) 0.6946(4) 0.6892(3)
N7 N 0.4779(5) 0.6428(4) 0.7592(3)
N8 N 0.4467(5) 0.5147(4) 0.7802(3)
N9 N 0.3055(5) 0.4766(4) 0.7267(3)
N10 N 0.1091(5) 0.5991(5) 0.6078(4)
H4 H 0.0471 0.5288 0.6002
H5 H 0.0812 0.6752 0.5747
C1 C 1.2618(6) 0.8350(5) 0.8959(4)
C2 C 0.2512(6) 0.5897(5) 0.6720(4)
Cd1B Cd 0.60847(4) 0.39277(4) 0.90787(3)
Cd3B Cd 0.24622(4) 0.26072(4) 1.19497(3)
S1B S 0.26908(14) 0.28587(13) 0.94852(9)
O1B O 0.3843(4) 0.3980(3) 0.9810(3)
O2B O 0.2705(4) 0.1918(4) 1.0355(3)
O3B O 0.1155(4) 0.3447(4) 0.9098(3)
O4B O 0.3170(4) 0.2051(4) 0.8662(3)
O5B O 0.1982(4) 0.4847(3) 1.1397(3)
H1B H 0.1720 0.5300 1.1880
N1B N -0.2526(4) 0.2833(4) 1.0506(3)
N2B N -0.1042(5) 0.3222(4) 1.0794(3)
N3B N -0.0286(5) 0.2336(4) 1.1462(3)
N4B N -0.1235(5) 0.1330(4) 1.1656(3)
N5B N -0.3920(5) 0.0899(5) 1.0963(4)
H2B H -0.3909 0.0151 1.1322
H3B H -0.4763 0.1166 1.0554
N6B N 0.6434(5) 0.3054(4) 1.3108(3)
N7B N 0.5221(5) 0.3572(4) 1.2408(3)
N8B N 0.5533(5) 0.4853(4) 1.2198(3)
N9B N 0.6945(5) 0.5234(4) 1.2733(3)
N10B N 0.8909(5) 0.4009(5) 1.3922(4)
H4B H 0.9529 0.4712 1.3998
H5B H 0.9188 0.3248 1.4253
C1B C -0.2618(6) 0.1650(5) 1.1041(4)
C2B C 0.7488(6) 0.4103(5) 1.3280(4)
Cd1_2 Cd 1.39153(4) 0.60723(4) 1.09213(3)
Cd1A Cd 0.60847(4) 0.10723(4) 1.40787(3)
Cd1B_2 Cd -0.39153(4) 0.39277(4) 0.90787(3)
Cd1C Cd 0.39153(4) 0.89277(4) 0.59213(3)
Cd2_2 Cd 0.0000 0.5000 1.0000
Cd3A Cd 0.24622(4) 0.23928(4) 0.69497(3)
Cd3C Cd 0.75378(4) 0.76072(4) 1.30503(3)
O3B_2 O 1.1155(4) 0.3447(4) 0.9098(3)
O4A O 0.3170(4) 0.2949(4) 1.3662(3)
O4C O 0.6830(4) 0.7051(4) 0.6338(3)
O5B_2 O 1.1982(4) 0.4847(3) 1.1397(3)
N1_2 N 0.2526(4) 0.7167(4) 0.9494(3)
N1B_2 N 0.7474(4) 0.2833(4) 1.0506(3)
N2B_2 N 0.8958(5) 0.3222(4) 1.0794(3)
N6A N 0.6434(5) 0.1946(4) 0.8108(3)
N6C N 0.3566(5) 0.8054(4) 1.1892(3)
N9A N 0.6945(5) 0.9766(4) 0.7733(3)
N9C N 0.3055(5) 0.0234(4) 1.2267(3)
loop_
_geom_bond_atom_site_label_1
_geom_bond_atom_site_label_2
_geom_bond_site_symmetry_1
_geom_bond_site_symmetry_2
Cd1 O1 1_555 1_555
Cd2 O3 1_555 1_555
Cd3 O2 1_555 1_555
S1 O1 1_555 1_555
O1 Cd1B 1_555 1_555
O2 S1 1_555 1_555
O3 S1 1_555 1_555
O4 S1 1_555 1_555
O5 Cd2 1_555 1_555
H1 O5 1_555 1_555
N1 N2 1_555 1_555
N2 Cd2 1_555 1_555
N3 Cd3 1_555 1_555
N4 N3 1_555 1_555
N5 H2 1_555 1_555
H3 N5 1_555 1_555
N6 N7 1_555 1_555
N7 Cd3 1_555 1_555
N8 N7 1_555 1_555
N9 N8 1_555 1_555
N10 H4 1_555 1_555
H5 N10 1_555 1_555
C1 N1 1_555 1_555
C2 N6 1_555 1_555
Cd1B O5 1_555 1_555
Cd3B O2B 1_555 1_555
S1B O1B 1_555 1_555
O1B Cd1 1_555 1_555
O2B S1B 1_555 1_555
O3B S1B 1_555 1_555
O4B S1B 1_555 1_555
O5B Cd1 1_555 1_555
H1B O5B 1_555 1_555
N1B N2B 1_555 1_555
N2B N3B 1_555 1_555
N3B Cd3B 1_555 1_555
N4B N3B 1_555 1_555
N5B H2B 1_555 1_555
H3B N5B 1_555 1_555
N6B N7B 1_555 1_555
N7B Cd3B 1_555 1_555
N8B Cd1 1_555 1_555
N9B N8B 1_555 1_555
N10B H4B 1_555 1_555
H5B N10B 1_555 1_555
C1B N1B 1_555 1_555
C2B N6B 1_555 1_555
Cd1_2 N1 1_555 1_555
Cd1A N6B 1_555 1_555
Cd1B_2 N1B 1_555 1_555
Cd1C N6 1_555 1_555
Cd2_2 O3B 1_555 1_555
Cd3A N9 1_555 1_555
Cd3C O4 1_555 1_555
O3B_2 Cd2 1_555 1_555
O4A Cd3B 1_555 1_555
O4C Cd3 1_555 1_555
O5B_2 Cd2 1_555 1_555
N1_2 Cd1 1_555 1_555
N1B_2 Cd1B 1_555 1_555
N2B_2 Cd2 1_555 1_555
N6A Cd1B 1_555 1_555
N6C Cd1 1_555 1_555
N9A Cd3 1_555 1_555
N9C Cd3B 1_555 1_555
Cd3 O5 1_555 1_555
N2 N3 1_555 1_555
N4 C1 1_555 1_555
N5 C1 1_555 1_555
N8 Cd1B 1_555 1_555
N9 C2 1_555 1_555
N10 C2 1_555 1_555
Cd1B O1B 1_555 1_555
Cd3B O5B 1_555 1_555
O4B Cd3A 1_555 1_555
O5B Cd2_2 1_555 1_555
N2B Cd2_2 1_555 1_555
N4B C1B 1_555 1_555
N5B C1B 1_555 1_555
N7B N8B 1_555 1_555
N9B C2B 1_555 1_555
N9B Cd3C 1_555 1_555
N10B C2B 1_555 1_555
Cd1_2 O5B_2 1_555 1_555
N1B_2 N2B_2 1_555 1_555

#END
