
#######################################################################
#
#                 Cambridge Crystallographic Data Centre
#                                CCDC 
#
#######################################################################
#
# If this CIF has been generated from an entry in the Cambridge 
# Structural Database, then it will include bibliographic, chemical, 
# crystal, experimental, refinement or atomic coordinate data resulting 
# from the CCDC's data processing and validation procedures.
#
#######################################################################

data_COWQOW
_symmetry_cell_setting           triclinic
_symmetry_space_group_name_H-M   'P -1'
_symmetry_Int_Tables_number      2
_space_group_name_Hall           '-P 1'
loop_
_symmetry_equiv_pos_site_id
_symmetry_equiv_pos_as_xyz
1 x,y,z
2 -x,-y,-z
_cell_length_a                   10.3239(4)
_cell_length_b                   17.4296(7)
_cell_length_c                   26.0275(9)
_cell_angle_alpha                77.315(3)
_cell_angle_beta                 84.354(2)
_cell_angle_gamma                85.199(2)
_cell_volume                     4537.64
loop_
_atom_site_label
_atom_site_type_symbol
_atom_site_fract_x
_atom_site_fract_y
_atom_site_fract_z
Fe1 Fe 0.49473(7) 0.76616(4) 0.96700(3)
Mn1 Mn -0.00131(7) 0.74449(4) 0.95917(3)
O1 O 0.0047(3) 0.73071(19) 1.04582(13)
O2 O -0.0584(3) 0.87514(19) 0.95297(13)
O3 O 0.5030(4) 0.9104(2) 0.99709(14)
N1 N 0.0838(4) 0.6187(2) 0.99922(16)
N2 N -0.0675(4) 0.8034(2) 0.87625(16)
N3 N -0.1270(4) 0.8782(2) 0.87209(17)
N4 N 0.0317(4) 0.6605(2) 0.90173(16)
N5 N 0.1001(4) 0.6076(3) 1.05207(17)
N6 N 0.4948(4) 0.8503(3) 0.98647(17)
N7 N 0.2039(4) 0.7734(2) 0.94766(17)
N8 N 0.7885(4) 0.7267(2) 0.97709(17)
N9 N 0.5329(4) 0.8536(2) 0.84979(17)
N10 N 0.4320(5) 0.6587(2) 1.07691(18)
N11 N 0.5126(4) 0.6058(3) 0.93323(17)
C1 C 0.3124(5) 0.7720(3) 0.9550(2)
C2 C -0.0804(5) 0.7627(3) 0.8419(2)
C3 C -0.0069(5) 0.6842(3) 0.8530(2)
C4 C 0.0363(5) 0.6603(3) 1.1324(2)
C5 C -0.1153(5) 0.9114(3) 0.9139(2)
C6 C -0.1740(5) 0.9921(3) 0.91115(19)
C7 C 0.0479(5) 0.6694(3) 1.0746(2)
C8 C 0.5245(5) 0.8176(3) 0.8932(2)
C9 C -0.1605(5) 0.7855(3) 0.79535(19)
H1 H -0.2280 0.8245 0.8017
H2 H -0.1992 0.7399 0.7901
H3 H -0.1057 0.8067 0.7644
C10 C 0.0999(5) 0.5910(3) 0.9152(2)
C11 C 0.1328(5) 0.5425(3) 0.8792(2)
H4 H 0.1791 0.4942 0.8890
C12 C -0.0197(5) 0.7242(3) 1.1529(2)
H5 H -0.0408 0.7713 1.1297
C13 C 0.6787(5) 0.7414(3) 0.9743(2)
C14 C 0.5053(5) 0.6673(3) 0.9450(2)
C15 C -0.2900(5) 1.0183(3) 0.88738(19)
H6 H -0.3321 0.9845 0.8724
C16 C -0.1135(5) 1.0427(3) 0.9339(2)
H7 H -0.0381 1.0247 0.9508
C17 C 0.1334(5) 0.5690(3) 0.9718(2)
C18 C 0.0226(5) 0.6390(3) 0.8151(2)
H8 H -0.0055 0.6562 0.7814
C19 C 0.0944(5) 0.5682(3) 0.8285(2)
H9 H 0.1171 0.5377 0.8034
C20 C -0.3422(5) 1.0944(3) 0.8861(2)
H10 H -0.4202 1.1115 0.8708
C21 C 0.0676(5) 0.5911(3) 1.1675(2)
H11 H 0.1049 0.5477 1.1548
C22 C 0.4562(5) 0.7001(3) 1.0363(2)
C23 C -0.2780(6) 1.1453(3) 0.9077(2)
H12 H -0.3119 1.1968 0.9060
C24 C -0.0142(5) 0.6491(3) 1.2415(2)
H13 H -0.0328 0.6445 1.2777
C25 C -0.0447(6) 0.7194(3) 1.2070(2)
H14 H -0.0814 0.7628 1.2198
C26 C -0.1622(6) 1.1192(3) 0.9321(2)
H15 H -0.1192 1.1529 0.9468
C27 C 0.0439(5) 0.5856(3) 1.2220(2)
H16 H 0.0673 0.5390 1.2453
C28 C 0.2198(6) 0.4973(3) 0.9904(2)
H17 H 0.2928 0.5118 1.0056
H18 H 0.2506 0.4738 0.9610
H19 H 0.1716 0.4603 1.0165
H20 H 0.145(6) 0.561(4) 1.075(2)
H21 H -0.161(6) 0.911(3) 0.839(2)
Mn1_2 Mn 0.99869(7) 0.74449(4) 0.95917(3)
N8_2 N -0.2115(4) 0.7267(2) 0.97709(17)
Fe2 Fe 0.82849(7) 0.10630(4) 0.66542(3)
Mn2 Mn 0.32958(7) 0.09520(4) 0.66097(3)
O4 O 0.2601(3) 0.22096(19) 0.64544(14)
O5 O 0.3123(3) 0.1034(2) 0.74569(13)
N12 N 0.3839(4) 0.0005(2) 0.61327(16)
N13 N 0.2770(4) 0.1360(2) 0.57447(16)
N14 N 0.4094(4) -0.0208(2) 0.71306(16)
N15 N 0.4087(4) -0.0202(3) 0.76566(18)
O6 O 0.8468(4) 0.2476(2) 0.69825(16)
N16 N 0.2119(4) 0.2098(3) 0.56426(18)
N17 N 0.5324(4) 0.1289(2) 0.65408(17)
N18 N 0.8390(4) 0.1880(3) 0.68672(16)
N19 N 0.7963(4) -0.0143(3) 0.77233(17)
N20 N 1.1236(4) 0.0641(2) 0.67186(16)
N21 N 0.8768(4) 0.1879(3) 0.54735(18)
C29 C 0.3504(5) 0.0111(3) 0.5637(2)
C30 C 0.1458(5) 0.3310(3) 0.59384(19)
N22 N 0.7950(5) -0.0316(3) 0.61210(18)
C31 C 0.2780(5) 0.0881(3) 0.5433(2)
C32 C 0.3474(5) 0.0461(3) 0.7795(2)
C33 C 0.2107(5) 0.2498(3) 0.6033(2)
C34 C 0.1984(5) 0.3856(3) 0.6158(2)
H22 H 0.2699 0.3709 0.6357
C35 C 0.8608(5) 0.1590(3) 0.5918(2)
C36 C 0.0369(5) 0.3516(3) 0.56471(19)
H23 H 0.0010 0.3147 0.5503
C37 C 0.3194(5) 0.0466(3) 0.8365(2)
C38 C 0.8031(5) 0.0321(3) 0.7327(2)
C39 C 0.4489(5) -0.0679(3) 0.6356(2)
C40 C 0.3116(5) 0.1198(3) 0.8505(2)
H24 H 0.3294 0.1648 0.8248
C41 C 0.8105(5) 0.0168(3) 0.6336(2)
C42 C 0.6425(5) 0.1217(3) 0.6598(2)
C43 C 0.4467(5) -0.1160(3) 0.5567(2)
H25 H 0.4680 -0.1551 0.5375
C44 C 1.0121(5) 0.0769(3) 0.6682(2)
C45 C 0.3781(5) -0.0474(3) 0.5342(2)
H26 H 0.3509 -0.0402 0.5003
C46 C 0.4840(5) -0.1268(3) 0.6074(2)
H27 H 0.5317 -0.1725 0.6224
C47 C 0.4728(5) -0.0748(3) 0.6921(2)
C48 C 0.2896(5) -0.0207(3) 0.8748(2)
H28 H 0.2944 -0.0697 0.8658
C49 C 0.2525(5) -0.0137(3) 0.9265(2)
H29 H 0.2319 -0.0583 0.9520
C50 C 0.1446(6) 0.4614(3) 0.6081(2)
H30 H 0.1806 0.4983 0.6224
C51 C 0.2459(5) 0.0588(3) 0.9404(2)
H31 H 0.2205 0.0626 0.9751
C52 C 0.2772(5) 0.1261(3) 0.9027(2)
H32 H 0.2752 0.1746 0.9122
C53 C -0.0163(5) 0.4285(3) 0.5579(2)
H33 H -0.0891 0.4433 0.5387
C54 C 0.0368(6) 0.4835(3) 0.5790(2)
H34 H 0.0007 0.5351 0.5738
C55 C 0.5604(5) -0.1419(3) 0.7187(2)
H35 H 0.5648 -0.1387 0.7548
H36 H 0.6462 -0.1389 0.7007
H37 H 0.5262 -0.1910 0.7175
C56 C 0.2104(5) 0.1034(3) 0.4931(2)
H38 H 0.1180 0.1009 0.5015
H39 H 0.2412 0.0642 0.4732
H40 H 0.2289 0.1547 0.4725
H41 H 0.186(4) 0.235(3) 0.5337(18)
H42 H 0.448(4) -0.054(2) 0.7892(17)
Mn2_2 Mn 1.32958(7) 0.09520(4) 0.66097(3)
N20_2 N 0.1236(4) 0.0641(2) 0.67186(16)
Fe3 Fe 1.19746(7) 0.37994(4) 0.33985(3)
Mn3 Mn 0.69647(7) 0.36259(4) 0.33900(3)
O7 O 0.6674(3) 0.39542(19) 0.41613(14)
O8 O 0.6317(3) 0.48767(19) 0.30748(13)
N23 N 0.5900(4) 0.4517(2) 0.23231(17)
O9 O 1.2181(4) 0.5397(2) 0.33892(14)
N24 N 0.6499(4) 0.3804(2) 0.25273(15)
N25 N 0.9031(4) 0.3945(2) 0.32302(16)
N26 N 0.7753(4) 0.2617(2) 0.40324(16)
N27 N 0.7579(4) 0.2533(2) 0.30682(16)
N28 N 1.2093(4) 0.4738(2) 0.34158(16)
N29 N 0.7631(4) 0.2772(3) 0.45326(18)
N30 N 1.4880(4) 0.3322(2) 0.35407(16)
N31 N 1.1492(4) 0.3024(3) 0.45861(17)
N32 N 1.2662(4) 0.4106(3) 0.21912(18)
N33 N 1.1524(4) 0.2112(3) 0.32905(17)
C57 C 0.6605(5) 0.3661(3) 0.5094(2)
C58 C 0.6595(5) 0.3227(3) 0.22884(19)
C59 C 0.8290(5) 0.1939(3) 0.3360(2)
C60 C 0.7835(5) 0.1885(3) 0.2342(2)
H43 H 0.7654 0.1869 0.2002
C61 C 0.5850(5) 0.5050(3) 0.2639(2)
C62 C 1.0134(5) 0.3910(3) 0.32907(19)
C63 C 0.7352(5) 0.2514(3) 0.25757(19)
C64 C 0.6984(5) 0.3479(3) 0.4565(2)
C65 C 1.1629(5) 0.3346(3) 0.4150(2)
C66 C 0.4162(5) 0.6012(3) 0.21654(19)
H44 H 0.3828 0.5610 0.2045
C67 C 0.5250(5) 0.5854(3) 0.24554(19)
C68 C 1.2402(5) 0.3987(3) 0.2642(2)
C69 C 1.3793(5) 0.3480(3) 0.3488(2)
C70 C 0.8593(5) 0.1287(3) 0.2638(2)
H45 H 0.8946 0.0867 0.2491
C71 C 1.1758(5) 0.2737(3) 0.3328(2)
C72 C 0.8411(5) 0.2010(3) 0.3915(2)
C73 C 0.6490(5) 0.4447(3) 0.5126(2)
H46 H 0.6734 0.4830 0.4830
C74 C 0.5767(5) 0.6473(3) 0.2613(2)
H47 H 0.6512 0.6375 0.2797
C75 C 0.6211(5) 0.3087(3) 0.5536(2)
H48 H 0.6288 0.2558 0.5519
C76 C 0.8832(5) 0.1307(3) 0.3151(2)
H49 H 0.9343 0.0907 0.3349
C77 C 0.9217(5) 0.1404(3) 0.4264(2)
H50 H 0.9244 0.1552 0.4597
H51 H 1.0086 0.1365 0.4099
H52 H 0.8841 0.0904 0.4320
C78 C 0.6014(5) 0.4672(3) 0.5593(2)
H53 H 0.5962 0.5199 0.5614
C79 C 0.6036(5) 0.3222(3) 0.17835(19)
H54 H 0.5258 0.3565 0.1751
H55 H 0.5829 0.2696 0.1781
H56 H 0.6661 0.3402 0.1492
C80 C 0.5617(5) 0.4098(3) 0.6028(2)
H57 H 0.5286 0.4243 0.6341
C81 C 0.5196(6) 0.7227(3) 0.2501(2)
H58 H 0.5550 0.7633 0.2609
C82 C 0.3570(5) 0.6773(3) 0.2054(2)
H59 H 0.2831 0.6877 0.1866
C83 C 0.4088(6) 0.7375(3) 0.2225(2)
H60 H 0.3688 0.7881 0.2154
C84 C 0.5711(5) 0.3305(3) 0.5999(2)
H61 H 0.5437 0.2924 0.6290
H62 H 0.567(4) 0.467(2) 0.1961(16)
H63 H 0.804(5) 0.251(3) 0.4775(19)
Mn3_2 Mn 1.69647(7) 0.36259(4) 0.33900(3)
N30_2 N 0.4880(4) 0.3322(2) 0.35407(16)
O10 O 0.5474(4) 0.5089(2) 0.12593(15)
H64 H 0.509(6) 0.5557(17) 0.118(2)
H65 H 0.542(6) 0.470(2) 0.110(2)
O11 O 0.2291(5) 0.4595(3) 0.10945(19)
H66 H 0.240(5) 0.446(3) 0.140(2)
H67 H 0.297(8) 0.443(5) 0.094(3)
O12 O 0.745(2) 0.6496(11) 0.1018(9)
loop_
_geom_bond_atom_site_label_1
_geom_bond_atom_site_label_2
_geom_bond_site_symmetry_1
_geom_bond_site_symmetry_2
Fe1 N6 1_555 1_555
Mn1 O1 1_555 1_555
O1 C7 1_555 1_555
O2 Mn1 1_555 1_555
O3 N6 1_555 1_555
N1 Mn1 1_555 1_555
N2 Mn1 1_555 1_555
N3 N2 1_555 1_555
N4 Mn1 1_555 1_555
N5 N1 1_555 1_555
N7 Mn1 1_555 1_555
N8 C13 1_555 1_555
N9 C8 1_555 1_555
N10 C22 1_555 1_555
N11 C14 1_555 1_555
C1 Fe1 1_555 1_555
C2 N2 1_555 1_555
C3 N4 1_555 1_555
C4 C7 1_555 1_555
C5 O2 1_555 1_555
C6 C5 1_555 1_555
C7 N5 1_555 1_555
C8 Fe1 1_555 1_555
C9 C2 1_555 1_555
H1 C9 1_555 1_555
H2 C9 1_555 1_555
H3 C9 1_555 1_555
C10 N4 1_555 1_555
C11 C10 1_555 1_555
H4 C11 1_555 1_555
C12 C4 1_555 1_555
H5 C12 1_555 1_555
C13 Fe1 1_555 1_555
C14 Fe1 1_555 1_555
C15 C6 1_555 1_555
H6 C15 1_555 1_555
C16 C6 1_555 1_555
H7 C16 1_555 1_555
C17 N1 1_555 1_555
C18 C3 1_555 1_555
H8 C18 1_555 1_555
C19 C11 1_555 1_555
H9 C19 1_555 1_555
C20 C15 1_555 1_555
H10 C20 1_555 1_555
C21 C4 1_555 1_555
H11 C21 1_555 1_555
C22 Fe1 1_555 1_555
C23 C20 1_555 1_555
H12 C23 1_555 1_555
C24 H13 1_555 1_555
C25 C12 1_555 1_555
H14 C25 1_555 1_555
C26 C16 1_555 1_555
H15 C26 1_555 1_555
C27 C21 1_555 1_555
H16 C27 1_555 1_555
C28 C17 1_555 1_555
H17 C28 1_555 1_555
H18 C28 1_555 1_555
H19 C28 1_555 1_555
H20 N5 1_555 1_555
H21 N3 1_555 1_555
Fe2 N18 1_555 1_555
Mn2 O4 1_555 1_555
O4 C33 1_555 1_555
O5 Mn2 1_555 1_555
N12 Mn2 1_555 1_555
N13 Mn2 1_555 1_555
N14 Mn2 1_555 1_555
N15 N14 1_555 1_555
O6 N18 1_555 1_555
N16 N13 1_555 1_555
N17 Mn2 1_555 1_555
N19 C38 1_555 1_555
N20 C44 1_555 1_555
N21 C35 1_555 1_555
C29 N12 1_555 1_555
C30 C33 1_555 1_555
N22 C41 1_555 1_555
C31 N13 1_555 1_555
C32 O5 1_555 1_555
C33 N16 1_555 1_555
C34 C30 1_555 1_555
H22 C34 1_555 1_555
C35 Fe2 1_555 1_555
C36 C30 1_555 1_555
H23 C36 1_555 1_555
C37 C32 1_555 1_555
C38 Fe2 1_555 1_555
C39 N12 1_555 1_555
C40 C37 1_555 1_555
H24 C40 1_555 1_555
C41 Fe2 1_555 1_555
C42 Fe2 1_555 1_555
C43 H25 1_555 1_555
C44 Fe2 1_555 1_555
C45 C29 1_555 1_555
H26 C45 1_555 1_555
C46 C39 1_555 1_555
H27 C46 1_555 1_555
C47 N14 1_555 1_555
C48 C37 1_555 1_555
H28 C48 1_555 1_555
C49 C48 1_555 1_555
H29 C49 1_555 1_555
C50 C34 1_555 1_555
H30 C50 1_555 1_555
C51 C49 1_555 1_555
H31 C51 1_555 1_555
C52 C40 1_555 1_555
H32 C52 1_555 1_555
C53 C36 1_555 1_555
H33 C53 1_555 1_555
C54 C50 1_555 1_555
H34 C54 1_555 1_555
C55 C47 1_555 1_555
H35 C55 1_555 1_555
H36 C55 1_555 1_555
H37 C55 1_555 1_555
C56 C31 1_555 1_555
H38 C56 1_555 1_555
H39 C56 1_555 1_555
H40 C56 1_555 1_555
H41 N16 1_555 1_555
H42 N15 1_555 1_555
Fe3 N28 1_555 1_555
Mn3 O7 1_555 1_555
O7 C64 1_555 1_555
O8 Mn3 1_555 1_555
N23 N24 1_555 1_555
O9 N28 1_555 1_555
N24 Mn3 1_555 1_555
N25 Mn3 1_555 1_555
N26 Mn3 1_555 1_555
N27 Mn3 1_555 1_555
N29 N26 1_555 1_555
N30 C69 1_555 1_555
N31 C65 1_555 1_555
N32 C68 1_555 1_555
N33 C71 1_555 1_555
C57 C64 1_555 1_555
C58 N24 1_555 1_555
C59 N27 1_555 1_555
C60 H43 1_555 1_555
C61 O8 1_555 1_555
C62 Fe3 1_555 1_555
C63 N27 1_555 1_555
C64 N29 1_555 1_555
C65 Fe3 1_555 1_555
C66 H44 1_555 1_555
C67 C61 1_555 1_555
C68 Fe3 1_555 1_555
C69 Fe3 1_555 1_555
C70 C60 1_555 1_555
H45 C70 1_555 1_555
C71 Fe3 1_555 1_555
C72 N26 1_555 1_555
C73 C57 1_555 1_555
H46 C73 1_555 1_555
C74 C67 1_555 1_555
H47 C74 1_555 1_555
C75 C57 1_555 1_555
H48 C75 1_555 1_555
C76 C59 1_555 1_555
H49 C76 1_555 1_555
C77 C72 1_555 1_555
H50 C77 1_555 1_555
H51 C77 1_555 1_555
H52 C77 1_555 1_555
C78 C73 1_555 1_555
H53 C78 1_555 1_555
C79 C58 1_555 1_555
H54 C79 1_555 1_555
H55 C79 1_555 1_555
H56 C79 1_555 1_555
C80 C78 1_555 1_555
H57 C80 1_555 1_555
C81 C74 1_555 1_555
H58 C81 1_555 1_555
C82 C66 1_555 1_555
H59 C82 1_555 1_555
C83 C81 1_555 1_555
H60 C83 1_555 1_555
C84 C75 1_555 1_555
H61 C84 1_555 1_555
H62 N23 1_555 1_555
H63 N29 1_555 1_555
O10 H64 1_555 1_555
H65 O10 1_555 1_555
O11 H66 1_555 1_555
H67 O11 1_555 1_555
Mn1_2 N8 1_555 1_555
N8_2 Mn1 1_555 1_555
Mn2_2 N20 1_555 1_555
N20_2 Mn2 1_555 1_555
Mn3_2 N30 1_555 1_555
N30_2 Mn3 1_555 1_555
N3 C5 1_555 1_555
N7 C1 1_555 1_555
C2 C3 1_555 1_555
C10 C17 1_555 1_555
C18 C19 1_555 1_555
C23 C26 1_555 1_555
C24 C25 1_555 1_555
C24 C27 1_555 1_555
N15 C32 1_555 1_555
N17 C42 1_555 1_555
C29 C31 1_555 1_555
C39 C47 1_555 1_555
C43 C45 1_555 1_555
C43 C46 1_555 1_555
C51 C52 1_555 1_555
C53 C54 1_555 1_555
N23 C61 1_555 1_555
N25 C62 1_555 1_555
C58 C63 1_555 1_555
C59 C72 1_555 1_555
C60 C63 1_555 1_555
C66 C67 1_555 1_555
C70 C76 1_555 1_555
C80 C84 1_555 1_555
C82 C83 1_555 1_555

#END
