
#######################################################################
#
#                 Cambridge Crystallographic Data Centre
#                                CCDC 
#
#######################################################################
#
# If this CIF has been generated from an entry in the Cambridge 
# Structural Database, then it will include bibliographic, chemical, 
# crystal, experimental, refinement or atomic coordinate data resulting 
# from the CCDC's data processing and validation procedures.
#
#######################################################################

data_COWQUC
_symmetry_cell_setting           monoclinic
_symmetry_space_group_name_H-M   'P 21/n'
_symmetry_Int_Tables_number      14
_space_group_name_Hall           '-P 2yn'
loop_
_symmetry_equiv_pos_site_id
_symmetry_equiv_pos_as_xyz
1 x,y,z
2 1/2-x,1/2+y,1/2-z
3 -x,-y,-z
4 1/2+x,1/2-y,1/2+z
_cell_length_a                   16.7033(9)
_cell_length_b                   20.0195(11)
_cell_length_c                   17.4602(12)
_cell_angle_alpha                90
_cell_angle_beta                 100.423(6)
_cell_angle_gamma                90
_cell_volume                     5742.2
loop_
_atom_site_label
_atom_site_type_symbol
_atom_site_fract_x
_atom_site_fract_y
_atom_site_fract_z
Co1 Co 0.46047(6) 0.16399(5) 0.74507(6)
Co2 Co 0.35093(7) 0.12329(6) 0.55739(7)
Co3 Co 0.58808(6) 0.14431(5) 0.94173(6)
S1 S -0.05644(12) 0.27478(10) 0.73371(12)
S2 S 0.94934(13) 0.06884(10) 0.66037(13)
S3 S 0.10095(11) 0.01731(10) 0.95904(11)
N1 N 0.2541(4) 0.1543(3) 0.3193(4)
N2 N 0.7500(5) 0.1195(4) 1.1485(5)
O1 O -0.0212(3) 0.2674(3) 1.1625(3)
O2 O 0.4437(3) 0.0992(3) 0.8345(3)
O3 O 0.5823(3) 0.1351(3) 0.7495(3)
O4 O 1.0058(4) -0.2612(3) 0.6709(3)
O5 O 0.0746(3) 0.5847(3) 0.8341(3)
O6 O 0.3375(3) 0.1930(3) 0.7375(3)
O7 O 0.2971(4) 0.1417(4) 0.4473(4)
O8 O 0.2834(3) 0.1854(3) 0.6097(3)
O9 O -0.0612(3) 0.3091(3) 1.0418(3)
O10 O 0.0727(4) 0.5397(3) 0.9475(3)
O11 O 0.2590(4) 0.0460(3) 0.5687(4)
O12 O 0.6513(3) 0.1070(3) 0.8690(3)
O13 O 0.4876(3) 0.1051(3) 0.9633(4)
O14 O 0.6528(4) 0.1240(3) 1.0441(4)
O15 O 0.9126(3) -0.2574(3) 0.5619(3)
O16 O -0.0776(3) 0.2319(3) 0.7931(3)
O17 O -0.1102(3) 0.2784(3) 0.6597(3)
O18 O 0.9372(4) 0.1000(3) 0.5852(4)
O19 O 1.0185(3) 0.0856(3) 0.7187(4)
O20 O 0.1096(3) -0.0312(2) 1.0204(3)
O21 O 0.0501(3) 0.0026(3) 0.8851(3)
C1 C 0.2798(5) 0.1976(4) 0.6799(5)
C2 C 0.1959(5) 0.2188(4) 0.6945(5)
C3 C 0.1817(5) 0.2248(4) 0.7686(5)
H1 H 0.2239 0.2182 0.8105
C4 C 0.1049(4) 0.2408(4) 0.7816(5)
H2 H 0.0949 0.2439 0.8322
C5 C 0.0420(4) 0.2522(4) 0.7176(5)
C6 C 0.0567(5) 0.2474(4) 0.6434(5)
H3 H 0.0154 0.2556 0.6011
C7 C 0.1349(5) 0.2298(4) 0.6319(5)
H4 H 0.1454 0.2255 0.5816
C8 C -0.0398(4) 0.3564(4) 0.7733(5)
C9 C -0.0338(6) 0.3655(5) 0.8511(6)
H5 H -0.0463 0.3308 0.8823
C10 C -0.0089(5) 0.4267(4) 0.8837(5)
H6 H -0.0048 0.4333 0.9370
C11 C 0.0098(5) 0.4775(4) 0.8376(5)
C12 C -0.0036(5) 0.4689(4) 0.7558(5)
H7 H 0.0042 0.5045 0.7237
C13 C -0.0276(5) 0.4092(4) 0.7244(5)
H8 H -0.0359 0.4031 0.6708
C14 C 0.0517(5) 0.5374(4) 0.8748(5)
C15 C 0.6451(5) 0.1161(4) 0.7956(5)
C16 C 0.7210(5) 0.1022(4) 0.7624(4)
C17 C 0.7211(5) 0.1157(5) 0.6847(5)
H9 H 0.6738 0.1311 0.6533
C18 C 0.7909(6) 0.1066(5) 0.6526(5)
H10 H 0.7910 0.1161 0.6005
C19 C 0.8605(5) 0.0828(4) 0.7010(5)
C20 C 0.8614(4) 0.0699(3) 0.7790(4)
H11 H 0.9085 0.0541 0.8105
C21 C 0.7916(4) 0.0806(4) 0.8099(4)
H12 H 0.7924 0.0733 0.8626
C22 C 0.9497(4) -0.0191(4) 0.6465(4)
C23 C 0.9138(5) -0.0463(4) 0.5769(5)
H13 H 0.8896 -0.0188 0.5362
C24 C 0.9137(5) -0.1148(4) 0.5675(5)
H14 H 0.8887 -0.1339 0.5207
C25 C 0.9515(4) -0.1555(4) 0.6288(5)
C26 C 0.9880(4) -0.1269(4) 0.6990(4)
H15 H 1.0136 -0.1539 0.7396
C27 C 0.9864(5) -0.0587(4) 0.7086(5)
H16 H 1.0095 -0.0393 0.7558
C28 C 0.9579(5) -0.2303(4) 0.6197(5)
C29 C 0.4334(5) 0.0942(4) 0.9032(5)
C30 C 0.3506(4) 0.0730(4) 0.9171(4)
C31 C 0.3416(5) 0.0496(4) 0.9897(5)
H17 H 0.3864 0.0467 1.0299
C32 C 0.2659(4) 0.0309(4) 1.0019(5)
H18 H 0.2590 0.0140 1.0498
C33 C 0.1992(4) 0.0375(4) 0.9410(4)
C34 C 0.2080(5) 0.0595(4) 0.8682(5)
H19 H 0.1631 0.0630 0.8282
C35 C 0.2855(4) 0.0764(4) 0.8560(5)
H20 H 0.2934 0.0899 0.8069
C36 C 0.0677(4) 0.0923(4) 0.9956(4)
C37 C 0.0826(4) 0.1033(4) 1.0748(5)
H21 H 0.1127 0.0726 1.1082
C38 C 0.0527(4) 0.1600(4) 1.1040(5)
H22 H 0.0631 0.1674 1.1574
C39 C 0.0077(4) 0.2062(4) 1.0558(4)
C40 C -0.0074(4) 0.1944(4) 0.9761(5)
H23 H -0.0383 0.2249 0.9430
C41 C 0.0229(5) 0.1377(4) 0.9448(5)
H24 H 0.0133 0.1304 0.8914
C42 C -0.0263(5) 0.2667(4) 1.0905(5)
C43 C 0.2016(8) 0.0473(6) 0.6283(7)
H25 H 0.1674 0.0085 0.6216
H26 H 0.1684 0.0867 0.6206
H27 H 0.2331 0.0476 0.6801
C44 C 0.2955(8) 0.0458(5) 0.3788(7)
C45 C 0.2806(8) 0.1197(5) 0.3817(5)
C46 C 0.2348(8) 0.2254(5) 0.3212(9)
C47 C 0.2380(8) 0.1127(9) 0.2498(9)
C48 C 0.7196(7) 0.1316(5) 1.0781(8)
C49 C 0.7828(7) 0.1628(6) 1.0294(8)
C50 C 0.8291(9) 0.1291(7) 1.1927(9)
C51 C 0.6900(10) 0.0940(7) 1.1953(9)
Co1A Co 0.03953(6) 0.66399(5) 0.75493(6)
Co1A_2 Co 1.03953(6) -0.33601(5) 0.75493(6)
Co1C Co -0.03953(6) 0.33601(5) 1.24507(6)
Co2A Co 0.14907(7) 0.62329(6) 0.94261(7)
Co2C Co -0.14907(7) 0.37671(6) 1.05739(7)
Co3A Co 0.91192(6) -0.35569(5) 0.55827(6)
O1C O 0.4788(3) 0.2326(3) 0.6625(3)
O4A O 0.4942(4) 0.2388(3) 0.8291(3)
O5A O 0.4254(3) 0.0847(3) 0.6659(3)
O9C O 0.4388(3) 0.1909(3) 0.5418(3)
O10A O 0.4273(4) 0.0397(3) 0.5525(3)
O15A O 0.5874(3) 0.2426(3) 0.9381(3)
N3 N 0.2597(9) 0.8033(7) 0.5295(6)
O22 O 0.2564(6) 0.9064(5) 0.5715(6)
C52 C 0.2247(8) 0.8505(7) 0.5602(10)
C53 C 0.1439(8) 0.8284(11) 0.5783(11)
C54 C 0.2327(14) 0.7336(8) 0.5132(12)
C55 C 0.3422(9) 0.8186(10) 0.5086(11)
loop_
_geom_bond_atom_site_label_1
_geom_bond_atom_site_label_2
_geom_bond_site_symmetry_1
_geom_bond_site_symmetry_2
Co1 O2 1_555 1_555
Co2 O7 1_555 1_555
Co3 O12 1_555 1_555
S1 O16 1_555 1_555
S2 O18 1_555 1_555
S3 O20 1_555 1_555
N1 C45 1_555 1_555
N2 C48 1_555 1_555
O1 C42 1_555 1_555
O2 C29 1_555 1_555
O3 Co1 1_555 1_555
O4 C28 1_555 1_555
O5 C14 1_555 1_555
O6 Co1 1_555 1_555
O7 C45 1_555 1_555
O8 Co2 1_555 1_555
O9 C42 1_555 1_555
O10 C14 1_555 1_555
O11 Co2 1_555 1_555
O12 C15 1_555 1_555
O13 Co3 1_555 1_555
O14 Co3 1_555 1_555
O15 C28 1_555 1_555
O17 S1 1_555 1_555
O19 S2 1_555 1_555
O21 S3 1_555 1_555
C1 O6 1_555 1_555
C2 C1 1_555 1_555
C3 C2 1_555 1_555
H1 C3 1_555 1_555
C4 C3 1_555 1_555
H2 C4 1_555 1_555
C5 S1 1_555 1_555
C6 C5 1_555 1_555
H3 C6 1_555 1_555
C7 C2 1_555 1_555
H4 C7 1_555 1_555
C8 S1 1_555 1_555
C9 C8 1_555 1_555
H5 C9 1_555 1_555
C10 C9 1_555 1_555
H6 C10 1_555 1_555
C11 C10 1_555 1_555
C12 C11 1_555 1_555
H7 C12 1_555 1_555
C13 C8 1_555 1_555
H8 C13 1_555 1_555
C14 C11 1_555 1_555
C15 O3 1_555 1_555
C16 C15 1_555 1_555
C17 C16 1_555 1_555
H9 C17 1_555 1_555
C18 C17 1_555 1_555
H10 C18 1_555 1_555
C19 S2 1_555 1_555
C20 C19 1_555 1_555
H11 C20 1_555 1_555
C21 C16 1_555 1_555
H12 C21 1_555 1_555
C22 S2 1_555 1_555
C23 C22 1_555 1_555
H13 C23 1_555 1_555
C24 C23 1_555 1_555
H14 C24 1_555 1_555
C25 C24 1_555 1_555
C26 C25 1_555 1_555
H15 C26 1_555 1_555
C27 C22 1_555 1_555
H16 C27 1_555 1_555
C28 C25 1_555 1_555
C29 O13 1_555 1_555
C30 C29 1_555 1_555
C31 C30 1_555 1_555
H17 C31 1_555 1_555
C32 C31 1_555 1_555
H18 C32 1_555 1_555
C33 S3 1_555 1_555
C34 C33 1_555 1_555
H19 C34 1_555 1_555
C35 C30 1_555 1_555
H20 C35 1_555 1_555
C36 S3 1_555 1_555
C37 C36 1_555 1_555
H21 C37 1_555 1_555
C38 C37 1_555 1_555
H22 C38 1_555 1_555
C39 C38 1_555 1_555
C40 C39 1_555 1_555
H23 C40 1_555 1_555
C41 C36 1_555 1_555
H24 C41 1_555 1_555
C42 C39 1_555 1_555
C43 O11 1_555 1_555
H25 C43 1_555 1_555
H26 C43 1_555 1_555
H27 C43 1_555 1_555
C44 C45 1_555 1_555
C46 N1 1_555 1_555
C47 N1 1_555 1_555
C48 O14 1_555 1_555
C49 C48 1_555 1_555
C50 N2 1_555 1_555
C51 N2 1_555 1_555
N3 C52 1_555 1_555
O22 C52 1_555 1_555
C52 C53 1_555 1_555
C54 N3 1_555 1_555
C55 N3 1_555 1_555
Co1A O5 1_555 1_555
Co1A_2 O4 1_555 1_555
Co1C O1 1_555 1_555
Co2A O5 1_555 1_555
Co2C O9 1_555 1_555
Co3A O15 1_555 1_555
O1C Co1 1_555 1_555
O4A Co1 1_555 1_555
O5A Co1 1_555 1_555
O9C Co2 1_555 1_555
O10A Co2 1_555 1_555
O15A Co3 1_555 1_555
Co2 O5A 1_555 1_555
O8 C1 1_555 1_555
O10 Co2A 1_555 1_555
C4 C5 1_555 1_555
C6 C7 1_555 1_555
C12 C13 1_555 1_555
C18 C19 1_555 1_555
C20 C21 1_555 1_555
C26 C27 1_555 1_555
C32 C33 1_555 1_555
C34 C35 1_555 1_555
C40 C41 1_555 1_555

#END
