
#######################################################################
#
#                 Cambridge Crystallographic Data Centre
#                                CCDC 
#
#######################################################################
#
# If this CIF has been generated from an entry in the Cambridge 
# Structural Database, then it will include bibliographic, chemical, 
# crystal, experimental, refinement or atomic coordinate data resulting 
# from the CCDC's data processing and validation procedures.
#
#######################################################################

data_COWRIR
_symmetry_cell_setting           monoclinic
_symmetry_space_group_name_H-M   'P 21/n'
_symmetry_Int_Tables_number      14
_space_group_name_Hall           '-P 2yn'
loop_
_symmetry_equiv_pos_site_id
_symmetry_equiv_pos_as_xyz
1 x,y,z
2 1/2-x,1/2+y,1/2-z
3 -x,-y,-z
4 1/2+x,1/2-y,1/2+z
_cell_length_a                   16.7033(9)
_cell_length_b                   20.0195(11)
_cell_length_c                   17.4602(12)
_cell_angle_alpha                90
_cell_angle_beta                 100.423(6)
_cell_angle_gamma                90
_cell_volume                     5742.2
loop_
_atom_site_label
_atom_site_type_symbol
_atom_site_fract_x
_atom_site_fract_y
_atom_site_fract_z
Co1 Co 0.96851(5) 0.33096(4) 0.74136(5)
Co2 Co 0.86543(5) 0.36639(5) 0.54754(5)
Co3 Co 1.09065(5) 0.35220(4) 0.93744(5)
S1 S 0.45430(9) 0.22236(8) 0.73844(10)
S2 S 0.60746(9) 0.48977(8) 0.95545(9)
S3 S 1.45469(10) 0.43097(9) 0.65249(11)
N1 N 0.7591(3) 0.3484(3) 0.3111(3)
N2 N 1.2499(4) 0.3756(3) 1.1463(3)
O1 O 0.4859(3) 0.2391(2) 1.1589(2)
O2 O 1.0909(3) 0.3558(3) 0.7467(3)
O3 O 0.9489(3) 0.3974(2) 0.8283(3)
O4 O 1.5026(3) 0.7575(2) 0.6728(3)
O5 O 0.5604(3) -0.0920(2) 0.8397(3)
O6 O 0.8441(2) 0.3066(2) 0.7306(2)
O7 O 0.5909(4) -0.0425(3) 0.9505(3)
O8 O 0.4485(3) 0.2007(2) 1.0358(3)
O9 O 0.7857(3) 0.3272(3) 0.6054(2)
O10 O 0.8029(3) 0.3509(3) 0.4393(3)
O11 O 1.4098(3) 0.7552(2) 0.5646(3)
O12 O 0.9904(3) 0.3931(3) 0.9577(3)
O13 O 1.1555(2) 0.3891(2) 0.8642(2)
O14 O 1.1536(3) 0.3717(2) 1.0419(3)
O15 O 0.4011(3) 0.2152(3) 0.6639(3)
O16 O 0.4306(3) 0.2648(2) 0.7975(3)
O17 O 0.5574(2) 0.5044(2) 0.8809(2)
O18 O 0.6162(2) 0.5383(2) 1.0174(2)
O19 O 1.5246(3) 0.4149(2) 0.7108(3)
O20 O 1.4443(3) 0.4015(3) 0.5761(3)
C1 C 0.7847(4) 0.3087(3) 0.6760(4)
C2 C 0.7030(4) 0.2869(3) 0.6922(3)
C3 C 0.6400(4) 0.2754(3) 0.6296(4)
H1 H 0.6486 0.2814 0.5789
C4 C 0.5640(4) 0.2548(3) 0.6431(4)
H2 H 0.5223 0.2458 0.6014
C5 C 0.5508(4) 0.2479(3) 0.7196(4)
C6 C 0.6131(4) 0.2600(3) 0.7831(4)
H3 H 0.6039 0.2560 0.8339
C7 C 0.6884(4) 0.2779(3) 0.7684(4)
H4 H 0.7310 0.2842 0.8102
C8 C 0.4742(4) 0.1427(3) 0.7802(4)
C9 C 0.4765(4) 0.0886(4) 0.7309(4)
H5 H 0.4625 0.0934 0.6771
C10 C 0.5001(4) 0.0279(3) 0.7639(4)
H6 H 0.5006 -0.0095 0.7324
C11 C 0.5231(4) 0.0222(4) 0.8441(4)
C12 C 0.5210(6) 0.0757(4) 0.8930(4)
H7 H 0.5366 0.0709 0.9466
C13 C 0.4956(5) 0.1367(4) 0.8610(4)
H8 H 0.4927 0.1735 0.8929
C14 C 0.5573(4) -0.0415(4) 0.8788(4)
C15 C 0.9375(4) 0.4044(3) 0.8975(4)
C16 C 0.8564(4) 0.4293(3) 0.9119(3)
C17 C 0.7899(4) 0.4251(3) 0.8510(4)
H9 H 0.7965 0.4099 0.8021
C18 C 0.7138(4) 0.4438(3) 0.8646(3)
H10 H 0.6684 0.4398 0.8254
C19 C 0.7058(3) 0.4687(3) 0.9374(3)
C20 C 0.7713(4) 0.4754(4) 0.9977(4)
H11 H 0.7650 0.4933 1.0454
C21 C 0.8472(4) 0.4546(4) 0.9845(4)
H12 H 0.8922 0.4575 1.0244
C22 C 0.5727(3) 0.4161(3) 0.9923(3)
C23 C 0.5321(4) 0.3698(3) 0.9415(3)
H13 H 0.5243 0.3767 0.8880
C24 C 0.5031(4) 0.3130(3) 0.9715(3)
H14 H 0.4754 0.2812 0.9380
C25 C 0.5151(4) 0.3027(3) 1.0524(4)
C26 C 0.5561(4) 0.3495(4) 1.1021(4)
H15 H 0.5642 0.3426 1.1556
C27 C 0.5852(4) 0.4067(4) 1.0728(3)
H16 H 0.6128 0.4386 1.1063
C28 C 0.4815(4) 0.2419(3) 1.0858(4)
C29 C 1.1505(4) 0.3777(3) 0.7914(4)
C30 C 1.2267(4) 0.3924(3) 0.7566(4)
C31 C 1.2962(4) 0.4155(3) 0.8037(4)
H17 H 1.2966 0.4230 0.8564
C32 C 1.3660(4) 0.4279(3) 0.7726(4)
H18 H 1.4124 0.4449 0.8041
C33 C 1.3662(4) 0.4146(3) 0.6938(4)
C34 C 1.2979(4) 0.3891(4) 0.6468(4)
H19 H 1.2982 0.3797 0.5947
C35 C 1.2285(4) 0.3778(4) 0.6785(4)
H20 H 1.1824 0.3601 0.6472
C36 C 1.4522(4) 0.5185(3) 0.6411(4)
C37 C 1.4887(4) 0.5565(3) 0.7041(4)
H21 H 1.5126 0.5363 0.7505
C38 C 1.4887(4) 0.6240(3) 0.6965(4)
H22 H 1.5132 0.6504 0.7380
C39 C 1.4523(3) 0.6536(3) 0.6268(4)
C40 C 1.4133(5) 0.6148(4) 0.5655(4)
H23 H 1.3864 0.6349 0.5200
C41 C 1.4147(5) 0.5469(4) 0.5725(4)
H24 H 1.3904 0.5202 0.5312
C42 C 1.4549(4) 0.7275(3) 0.6218(3)
C43 C 0.8035(5) 0.4533(4) 0.3727(5)
H25 H 0.7896 0.4680 0.3196
H26 H 0.8598 0.4628 0.3923
H27 H 0.7703 0.4764 0.4037
C44 C 0.7891(5) 0.3793(5) 0.3767(5)
C45 C 0.7427(5) 0.3833(5) 0.2356(5)
H28 H 0.7213 0.3522 0.1953
H29 H 0.7924 0.4022 0.2250
H30 H 0.7038 0.4183 0.2375
C46 C 0.7410(5) 0.2793(5) 0.3102(6)
H31 H 0.7200 0.2654 0.2578
H32 H 0.7011 0.2709 0.3424
H33 H 0.7897 0.2546 0.3300
C47 C 1.2829(4) 0.3282(4) 1.0252(5)
H34 H 1.3356 0.3230 1.0574
H35 H 1.2874 0.3561 0.9814
H36 H 1.2622 0.2852 1.0070
C48 C 1.2243(4) 0.3609(4) 1.0730(5)
C49 C 1.3313(5) 0.3651(5) 1.1893(5)
H37 H 1.3343 0.3802 1.2419
H38 H 1.3694 0.3897 1.1653
H39 H 1.3442 0.3184 1.1894
C50 C 1.1905(5) 0.4022(4) 1.1923(4)
H40 H 1.2177 0.4108 1.2447
H41 H 1.1480 0.3700 1.1929
H42 H 1.1674 0.4429 1.1692
Co1A Co 0.53149(5) -0.16904(4) 0.75864(5)
Co1A_2 Co 1.53149(5) 0.83096(4) 0.75864(5)
Co1C Co 0.46851(5) 0.16904(4) 1.24136(5)
Co2A Co 0.63457(5) -0.13361(5) 0.95246(5)
Co2C Co 0.36543(5) 0.13361(5) 1.04754(5)
Co3A Co 1.40935(5) 0.85220(4) 0.56256(5)
O1C O 0.9859(3) 0.2609(2) 0.6589(2)
O4A O 0.9974(3) 0.2575(2) 0.8272(3)
O5A O 0.9396(3) 0.4080(2) 0.6603(3)
O7A O 0.9091(4) 0.4575(3) 0.5495(3)
O8C O 0.9485(3) 0.2993(2) 0.5358(3)
O11A O 1.0902(3) 0.2552(2) 0.9354(3)
N3 N 0.7141(6) 0.6985(10) 0.5439(7)
O21 O 0.8339(6) 0.6833(6) 0.5220(6)
C51 C 0.7599(7) 0.7865(6) 0.4837(7)
H43 H 0.8088 0.7975 0.4647
H44 H 0.7515 0.8184 0.5225
H45 H 0.7144 0.7875 0.4414
C52 C 0.7687(8) 0.7105(11) 0.5227(8)
C53 C 0.6369(7) 0.7315(8) 0.5449(7)
H46 H 0.6032 0.7032 0.5701
H47 H 0.6100 0.7402 0.4924
H48 H 0.6463 0.7729 0.5727
C54 C 0.7261(12) 0.6201(8) 0.5804(8)
H49 H 0.6782 0.6073 0.6001
H50 H 0.7725 0.6188 0.6218
H51 H 0.7343 0.5898 0.5400
O22 O 0.7599(13) 0.4606(11) 0.5635(14)
loop_
_geom_bond_atom_site_label_1
_geom_bond_atom_site_label_2
_geom_bond_site_symmetry_1
_geom_bond_site_symmetry_2
Co1 O2 1_555 1_555
Co2 O9 1_555 1_555
Co3 O12 1_555 1_555
S1 O15 1_555 1_555
S2 O17 1_555 1_555
S3 O19 1_555 1_555
N1 C44 1_555 1_555
N2 C48 1_555 1_555
O1 C28 1_555 1_555
O2 C29 1_555 1_555
O3 Co1 1_555 1_555
O4 C42 1_555 1_555
O5 C14 1_555 1_555
O6 Co1 1_555 1_555
O7 C14 1_555 1_555
O8 C28 1_555 1_555
O9 C1 1_555 1_555
O10 Co2 1_555 1_555
O11 C42 1_555 1_555
O12 C15 1_555 1_555
O13 Co3 1_555 1_555
O14 Co3 1_555 1_555
O16 S1 1_555 1_555
O18 S2 1_555 1_555
O20 S3 1_555 1_555
C1 O6 1_555 1_555
C2 C1 1_555 1_555
C3 C2 1_555 1_555
H1 C3 1_555 1_555
C4 C3 1_555 1_555
H2 C4 1_555 1_555
C5 S1 1_555 1_555
C6 C5 1_555 1_555
H3 C6 1_555 1_555
C7 C2 1_555 1_555
H4 C7 1_555 1_555
C8 S1 1_555 1_555
C9 C8 1_555 1_555
H5 C9 1_555 1_555
C10 C9 1_555 1_555
H6 C10 1_555 1_555
C11 C10 1_555 1_555
C12 C11 1_555 1_555
H7 C12 1_555 1_555
C13 C8 1_555 1_555
H8 C13 1_555 1_555
C14 C11 1_555 1_555
C15 O3 1_555 1_555
C16 C15 1_555 1_555
C17 C16 1_555 1_555
H9 C17 1_555 1_555
C18 C17 1_555 1_555
H10 C18 1_555 1_555
C19 S2 1_555 1_555
C20 C19 1_555 1_555
H11 C20 1_555 1_555
C21 C16 1_555 1_555
H12 C21 1_555 1_555
C22 S2 1_555 1_555
C23 C22 1_555 1_555
H13 C23 1_555 1_555
C24 C23 1_555 1_555
H14 C24 1_555 1_555
C25 C24 1_555 1_555
C26 C25 1_555 1_555
H15 C26 1_555 1_555
C27 C22 1_555 1_555
H16 C27 1_555 1_555
C28 C25 1_555 1_555
C29 O13 1_555 1_555
C30 C29 1_555 1_555
C31 C30 1_555 1_555
H17 C31 1_555 1_555
C32 C31 1_555 1_555
H18 C32 1_555 1_555
C33 S3 1_555 1_555
C34 C33 1_555 1_555
H19 C34 1_555 1_555
C35 C30 1_555 1_555
H20 C35 1_555 1_555
C36 S3 1_555 1_555
C37 C36 1_555 1_555
H21 C37 1_555 1_555
C38 C37 1_555 1_555
H22 C38 1_555 1_555
C39 C38 1_555 1_555
C40 C39 1_555 1_555
H23 C40 1_555 1_555
C41 C36 1_555 1_555
H24 C41 1_555 1_555
C42 C39 1_555 1_555
C43 H25 1_555 1_555
H26 C43 1_555 1_555
H27 C43 1_555 1_555
C44 O10 1_555 1_555
C45 N1 1_555 1_555
H28 C45 1_555 1_555
H29 C45 1_555 1_555
H30 C45 1_555 1_555
C46 N1 1_555 1_555
H31 C46 1_555 1_555
H32 C46 1_555 1_555
H33 C46 1_555 1_555
C47 H34 1_555 1_555
H35 C47 1_555 1_555
H36 C47 1_555 1_555
C48 O14 1_555 1_555
C49 N2 1_555 1_555
H37 C49 1_555 1_555
H38 C49 1_555 1_555
H39 C49 1_555 1_555
C50 N2 1_555 1_555
H40 C50 1_555 1_555
H41 C50 1_555 1_555
H42 C50 1_555 1_555
N3 C52 1_555 1_555
O21 C52 1_555 1_555
C51 H43 1_555 1_555
H44 C51 1_555 1_555
H45 C51 1_555 1_555
C52 C51 1_555 1_555
C53 N3 1_555 1_555
H46 C53 1_555 1_555
H47 C53 1_555 1_555
H48 C53 1_555 1_555
C54 N3 1_555 1_555
H49 C54 1_555 1_555
H50 C54 1_555 1_555
H51 C54 1_555 1_555
Co1A O5 1_555 1_555
Co1A_2 O4 1_555 1_555
Co1C O1 1_555 1_555
Co2A O5 1_555 1_555
Co2C O8 1_555 1_555
Co3A O11 1_555 1_555
O1C Co1 1_555 1_555
O4A Co1 1_555 1_555
O5A Co1 1_555 1_555
O7A Co2 1_555 1_555
O8C Co2 1_555 1_555
O11A Co3 1_555 1_555
Co2 O5A 1_555 1_555
O7 Co2A 1_555 1_555
C4 C5 1_555 1_555
C6 C7 1_555 1_555
C12 C13 1_555 1_555
C18 C19 1_555 1_555
C20 C21 1_555 1_555
C26 C27 1_555 1_555
C32 C33 1_555 1_555
C34 C35 1_555 1_555
C40 C41 1_555 1_555
C43 C44 1_555 1_555
C47 C48 1_555 1_555

#END
