
#######################################################################
#
#                 Cambridge Crystallographic Data Centre
#                                CCDC 
#
#######################################################################
#
# If this CIF has been generated from an entry in the Cambridge 
# Structural Database, then it will include bibliographic, chemical, 
# crystal, experimental, refinement or atomic coordinate data resulting 
# from the CCDC's data processing and validation procedures.
#
#######################################################################

data_COWREN
_symmetry_cell_setting           monoclinic
_symmetry_space_group_name_H-M   'P 21/n'
_symmetry_Int_Tables_number      14
_space_group_name_Hall           '-P 2yn'
loop_
_symmetry_equiv_pos_site_id
_symmetry_equiv_pos_as_xyz
1 x,y,z
2 1/2-x,1/2+y,1/2-z
3 -x,-y,-z
4 1/2+x,1/2-y,1/2+z
_cell_length_a                   16.7033(9)
_cell_length_b                   20.0195(11)
_cell_length_c                   17.4602(12)
_cell_angle_alpha                90
_cell_angle_beta                 100.423(6)
_cell_angle_gamma                90
_cell_volume                     5742.2
loop_
_atom_site_label
_atom_site_type_symbol
_atom_site_fract_x
_atom_site_fract_y
_atom_site_fract_z
Co1 Co 1.03884(5) 0.16495(4) 1.25465(4)
Co2 Co 1.14356(5) 0.12542(4) 1.44473(5)
Co3 Co 0.91311(5) 0.14345(4) 1.05737(4)
S1 S 1.55103(9) 0.27362(7) 1.26788(9)
S2 S 1.39628(8) 0.01533(7) 1.04112(8)
S3 S 0.55563(10) 0.06881(7) 1.34144(10)
N1 N 1.2334(4) 0.0492(3) 1.4343(4)
N2 N 1.2425(3) 0.1543(3) 1.6850(3)
N3 N 0.7501(4) 0.1220(3) 0.8494(3)
O1 O 1.5215(3) 0.2659(2) 0.8380(2)
O2 O 0.9176(2) 0.1373(2) 1.2510(2)
O3 O 1.1614(2) 0.1914(2) 1.2625(2)
O4 O 1.0548(2) 0.0993(2) 1.1642(2)
O5 O 0.4944(3) -0.2603(2) 1.3302(3)
O6 O 1.4279(3) 0.58590(19) 1.1657(2)
O7 O 1.2136(3) 0.1834(2) 1.3913(3)
O8 O 1.5575(3) 0.3073(2) 0.9604(2)
O9 O 1.1987(3) 0.1462(3) 1.5557(3)
O10 O 1.4282(3) 0.5398(2) 1.0513(3)
O11 O 1.0139(3) 0.1065(2) 1.0350(3)
O12 O 0.8512(2) 0.1054(2) 1.1322(2)
O13 O 0.5894(3) -0.2582(2) 1.4375(2)
O14 O 0.8483(3) 0.1233(2) 0.9540(3)
O15 O 1.6030(3) 0.2787(2) 1.3434(3)
O16 O 1.5736(3) 0.2308(2) 1.2087(3)
O17 O 1.4451(2) 0.0003(2) 1.1162(2)
O18 O 1.3876(2) -0.03340(19) 0.9790(2)
O19 O 0.4863(3) 0.0860(2) 1.2839(3)
O20 O 0.5663(3) 0.0990(2) 1.4180(3)
C1 C 1.2176(4) 0.1953(3) 1.3203(3)
C2 C 1.3011(3) 0.2155(3) 1.3062(3)
C3 C 1.3617(4) 0.2273(3) 1.3709(3)
H1 H 1.3507 0.2228 1.4210
C4 C 1.4383(4) 0.2457(3) 1.3594(3)
H2 H 1.4792 0.2551 1.4017
C5 C 1.4534(3) 0.2499(3) 1.2836(3)
C6 C 1.3938(4) 0.2379(3) 1.2187(3)
H3 H 1.4056 0.2410 1.1687
C7 C 1.3165(4) 0.2212(3) 1.2300(3)
H4 H 1.2751 0.2137 1.1875
C8 C 1.5342(4) 0.3549(3) 1.2274(4)
C9 C 1.5225(4) 0.4076(3) 1.2761(4)
H5 H 1.5310 0.4019 1.3298
C10 C 1.4979(4) 0.4693(3) 1.2429(4)
H6 H 1.4892 0.5050 1.2744
C11 C 1.4864(4) 0.4772(3) 1.1625(4)
C12 C 1.5041(6) 0.4248(3) 1.1152(4)
H7 H 1.4997 0.4312 1.0619
C13 C 1.5283(5) 0.3634(3) 1.1483(4)
H8 H 1.5404 0.3283 1.1174
C14 C 1.4470(4) 0.5386(3) 1.1240(4)
C15 C 1.0663(4) 0.0940(3) 1.0950(4)
C16 C 1.1474(3) 0.0724(3) 1.0822(3)
C17 C 1.2127(4) 0.0743(3) 1.1438(3)
H9 H 1.2048 0.0871 1.1931
C18 C 1.2892(3) 0.0571(3) 1.1317(3)
H10 H 1.3338 0.0599 1.1720
C19 C 1.2987(3) 0.0354(3) 1.0577(3)
C20 C 1.2335(4) 0.0310(3) 0.9961(3)
H11 H 1.2409 0.0154 0.9477
C21 C 1.1588(4) 0.0501(3) 1.0081(3)
H12 H 1.1147 0.0485 0.9672
C22 C 1.4312(3) 0.0900(3) 1.0057(3)
C23 C 1.4743(3) 0.1353(3) 1.0562(3)
H13 H 1.4833 0.1278 1.1097
C24 C 1.5045(3) 0.1927(3) 1.0258(3)
H14 H 1.5340 0.2237 1.0592
C25 C 1.4903(3) 0.2039(3) 0.9449(3)
C26 C 1.4455(3) 0.1574(3) 0.8950(3)
H15 H 1.4355 0.1650 0.8416
C27 C 1.4162(3) 0.1007(3) 0.9242(3)
H16 H 1.3868 0.0695 0.8908
C28 C 1.5255(3) 0.2640(3) 0.9113(3)
C29 C 0.8571(3) 0.1165(3) 1.2051(3)
C30 C 0.7817(3) 0.1040(3) 1.2394(3)
C31 C 0.7118(4) 0.0814(3) 1.1919(3)
H17 H 0.7116 0.0731 1.1394
C32 C 0.6421(4) 0.0711(3) 1.2224(3)
H18 H 0.5949 0.0557 1.1907
C33 C 0.6430(4) 0.0839(3) 1.3006(4)
C34 C 0.7114(4) 0.1081(4) 1.3484(4)
H19 H 0.7110 0.1173 1.4006
C35 C 0.7806(4) 0.1184(4) 1.3174(4)
H20 H 0.8272 0.1352 1.3489
C36 C 0.5555(4) -0.0190(3) 1.3538(4)
C37 C 0.5159(4) -0.0577(3) 1.2924(4)
H21 H 0.4915 -0.0381 1.2458
C38 C 0.5138(4) -0.1267(3) 1.3023(3)
H22 H 0.4873 -0.1533 1.2619
C39 C 0.5509(3) -0.1564(3) 1.3721(3)
C40 C 0.5918(4) -0.1162(3) 1.4323(4)
H23 H 0.6178 -0.1358 1.4785
C41 C 0.5938(4) -0.0479(3) 1.4235(4)
H24 H 0.6205 -0.0213 1.4638
C42 C 0.5440(3) -0.2311(3) 1.3798(3)
C43 C 1.2775(10) 0.0374(7) 1.4026(14)
C44 C 1.3439(7) 0.0278(9) 1.3433(9)
H25 H 1.3153 0.0182 1.2917
H26 H 1.3800 -0.0084 1.3614
H27 H 1.3747 0.0682 1.3425
C45 C 1.2000(6) 0.0473(4) 1.6247(6)
H28 H 1.2150 0.0349 1.6785
H29 H 1.2328 0.0230 1.5944
H30 H 1.1436 0.0370 1.6067
C46 C 1.2135(5) 0.1223(4) 1.6161(6)
C47 C 1.2600(9) 0.2247(7) 1.6844(12)
H31 H 1.2797 0.2397 1.7367
H32 H 1.2113 0.2487 1.6631
H33 H 1.3007 0.2327 1.6531
C48 C 1.2586(6) 0.1194(6) 1.7582(6)
H34 H 1.2784 0.1504 1.7992
H35 H 1.2987 0.0854 1.7564
H36 H 1.2093 0.0991 1.7679
C49 C 0.7206(4) 0.1633(4) 0.9717(5)
H37 H 0.6679 0.1692 0.9398
H38 H 0.7408 0.2057 0.9925
H39 H 0.7163 0.1333 1.0137
C50 C 0.7785(4) 0.1343(3) 0.9231(5)
C51 C 0.8074(5) 0.0967(4) 0.8011(5)
H40 H 0.7790 0.0899 0.7487
H41 H 0.8302 0.0552 0.8220
H42 H 0.8502 0.1287 0.8010
C52 C 0.6708(5) 0.1340(5) 0.8068(6)
H43 H 0.6680 0.1199 0.7538
H44 H 0.6588 0.1809 0.8079
H45 H 0.6318 0.1094 0.8298
Co1A Co 0.46116(5) -0.33505(4) 1.24535(4)
Co1A_2 Co 1.46116(5) 0.66495(4) 1.24535(4)
Co1C Co 1.53884(5) 0.33505(4) 0.75465(4)
Co2A Co 1.35644(5) 0.62542(4) 1.05527(5)
Co2C Co 1.64356(5) 0.37458(4) 0.94473(5)
Co3A Co 0.58689(5) -0.35655(4) 1.44263(4)
O1C O 1.0215(3) 0.2341(2) 1.3380(2)
O5A O 1.0056(3) 0.2397(2) 1.1698(3)
O6A O 1.0721(3) 0.08590(19) 1.3343(2)
O8C O 1.0575(3) 0.1927(2) 1.4604(2)
O10A O 1.0718(3) 0.0398(2) 1.4487(3)
O13A O 0.9106(3) 0.2418(2) 1.0625(2)
N4 N 0.7695(7) 0.1999(6) 0.5288(8)
O21 O 0.7204(9) 0.1147(7) 0.5841(7)
C53 C 0.6375(7) 0.2150(9) 0.5539(8)
C54 C 0.7135(8) 0.1737(7) 0.5575(11)
C55 C 0.7630(8) 0.2667(7) 0.4936(8)
C56 C 0.8456(6) 0.1617(8) 0.5298(8)
loop_
_geom_bond_atom_site_label_1
_geom_bond_atom_site_label_2
_geom_bond_site_symmetry_1
_geom_bond_site_symmetry_2
Co1 O2 1_555 1_555
Co2 N1 1_555 1_555
Co3 O11 1_555 1_555
S1 O15 1_555 1_555
S2 O17 1_555 1_555
S3 O19 1_555 1_555
N1 C43 1_555 1_555
N2 C46 1_555 1_555
N3 C50 1_555 1_555
O1 C28 1_555 1_555
O2 C29 1_555 1_555
O3 Co1 1_555 1_555
O4 Co1 1_555 1_555
O5 C42 1_555 1_555
O6 C14 1_555 1_555
O7 Co2 1_555 1_555
O8 C28 1_555 1_555
O9 Co2 1_555 1_555
O10 C14 1_555 1_555
O11 C15 1_555 1_555
O12 Co3 1_555 1_555
O13 C42 1_555 1_555
O14 Co3 1_555 1_555
O16 S1 1_555 1_555
O18 S2 1_555 1_555
O20 S3 1_555 1_555
C1 O3 1_555 1_555
C2 C1 1_555 1_555
C3 C2 1_555 1_555
H1 C3 1_555 1_555
C4 C3 1_555 1_555
H2 C4 1_555 1_555
C5 S1 1_555 1_555
C6 C5 1_555 1_555
H3 C6 1_555 1_555
C7 C2 1_555 1_555
H4 C7 1_555 1_555
C8 S1 1_555 1_555
C9 C8 1_555 1_555
H5 C9 1_555 1_555
C10 C9 1_555 1_555
H6 C10 1_555 1_555
C11 C10 1_555 1_555
C12 C11 1_555 1_555
H7 C12 1_555 1_555
C13 C8 1_555 1_555
H8 C13 1_555 1_555
C14 C11 1_555 1_555
C15 O4 1_555 1_555
C16 C15 1_555 1_555
C17 C16 1_555 1_555
H9 C17 1_555 1_555
C18 C17 1_555 1_555
H10 C18 1_555 1_555
C19 S2 1_555 1_555
C20 C19 1_555 1_555
H11 C20 1_555 1_555
C21 C16 1_555 1_555
H12 C21 1_555 1_555
C22 S2 1_555 1_555
C23 C22 1_555 1_555
H13 C23 1_555 1_555
C24 C23 1_555 1_555
H14 C24 1_555 1_555
C25 C24 1_555 1_555
C26 C25 1_555 1_555
H15 C26 1_555 1_555
C27 C22 1_555 1_555
H16 C27 1_555 1_555
C28 C25 1_555 1_555
C29 O12 1_555 1_555
C30 C29 1_555 1_555
C31 C30 1_555 1_555
H17 C31 1_555 1_555
C32 C31 1_555 1_555
H18 C32 1_555 1_555
C33 S3 1_555 1_555
C34 C33 1_555 1_555
H19 C34 1_555 1_555
C35 C30 1_555 1_555
H20 C35 1_555 1_555
C36 S3 1_555 1_555
C37 C36 1_555 1_555
H21 C37 1_555 1_555
C38 C37 1_555 1_555
H22 C38 1_555 1_555
C39 C38 1_555 1_555
C40 C39 1_555 1_555
H23 C40 1_555 1_555
C41 C36 1_555 1_555
H24 C41 1_555 1_555
C42 C39 1_555 1_555
C43 C44 1_555 1_555
C44 H25 1_555 1_555
H26 C44 1_555 1_555
H27 C44 1_555 1_555
C45 H28 1_555 1_555
H29 C45 1_555 1_555
H30 C45 1_555 1_555
C46 O9 1_555 1_555
C47 N2 1_555 1_555
H31 C47 1_555 1_555
H32 C47 1_555 1_555
H33 C47 1_555 1_555
C48 N2 1_555 1_555
H34 C48 1_555 1_555
H35 C48 1_555 1_555
H36 C48 1_555 1_555
C49 H37 1_555 1_555
H38 C49 1_555 1_555
H39 C49 1_555 1_555
C50 O14 1_555 1_555
C51 N3 1_555 1_555
H40 C51 1_555 1_555
H41 C51 1_555 1_555
H42 C51 1_555 1_555
C52 N3 1_555 1_555
H43 C52 1_555 1_555
H44 C52 1_555 1_555
H45 C52 1_555 1_555
N4 C54 1_555 1_555
O21 C54 1_555 1_555
C53 C54 1_555 1_555
C55 N4 1_555 1_555
C56 N4 1_555 1_555
Co1A O5 1_555 1_555
Co1A_2 O6 1_555 1_555
Co1C O1 1_555 1_555
Co2A O6 1_555 1_555
Co2C O8 1_555 1_555
Co3A O13 1_555 1_555
O1C Co1 1_555 1_555
O5A Co1 1_555 1_555
O6A Co1 1_555 1_555
O8C Co2 1_555 1_555
O10A Co2 1_555 1_555
O13A Co3 1_555 1_555
Co2 O6A 1_555 1_555
O7 C1 1_555 1_555
O10 Co2A 1_555 1_555
C4 C5 1_555 1_555
C6 C7 1_555 1_555
C12 C13 1_555 1_555
C18 C19 1_555 1_555
C20 C21 1_555 1_555
C26 C27 1_555 1_555
C32 C33 1_555 1_555
C34 C35 1_555 1_555
C40 C41 1_555 1_555
C45 C46 1_555 1_555
C49 C50 1_555 1_555

#END
