
#######################################################################
#
#                 Cambridge Crystallographic Data Centre
#                                CCDC 
#
#######################################################################
#
# If this CIF has been generated from an entry in the Cambridge 
# Structural Database, then it will include bibliographic, chemical, 
# crystal, experimental, refinement or atomic coordinate data resulting 
# from the CCDC's data processing and validation procedures.
#
#######################################################################

data_COWRUC
_symmetry_cell_setting           tetragonal
_symmetry_space_group_name_H-M   'I -4 2 d'
_symmetry_Int_Tables_number      122
_space_group_name_Hall           'I -4 2bw'
loop_
_symmetry_equiv_pos_site_id
_symmetry_equiv_pos_as_xyz
1 x,y,z
2 -x,-y,z
3 y,-x,-z
4 -y,x,-z
5 1/2-x,y,3/4-z
6 1/2+x,-y,3/4-z
7 1/2-y,-x,3/4+z
8 1/2+y,x,3/4+z
9 1/2+x,1/2+y,1/2+z
10 1/2-x,1/2-y,1/2+z
11 1/2+y,1/2-x,1/2-z
12 1/2-y,1/2+x,1/2-z
13 -x,1/2+y,1/4-z
14 x,1/2-y,1/4-z
15 -y,1/2-x,1/4+z
16 y,1/2+x,1/4+z
_cell_length_a                   14.726(2)
_cell_length_b                   14.726(2)
_cell_length_c                   35.593(10)
_cell_angle_alpha                90
_cell_angle_beta                 90
_cell_angle_gamma                90
_cell_volume                     7718.52
loop_
_atom_site_label
_atom_site_type_symbol
_atom_site_fract_x
_atom_site_fract_y
_atom_site_fract_z
Ag1 Ag 0.0000 0.5000 0.420303(17)
Ag2 Ag 0.11059(3) 0.37573(3) 0.255997(12)
N1 N 0.0000 0.5000 0.3564(2)
N2 N -0.0089(3) 0.4541(3) 0.29627(13)
N3 N -0.1343(3) 0.5055(3) 0.45143(13)
N4 N -0.2594(3) 0.4627(3) 0.48332(14)
N5 N -0.2703(3) 0.5521(3) 0.47284(14)
C1 C -0.0131(4) 0.4306(4) 0.33204(16)
C2 C -0.0309(4) 0.3348(4) 0.34371(16)
C3 C -0.1791(4) 0.4386(4) 0.47022(17)
C4 C -0.1959(4) 0.5732(4) 0.45342(18)
C5 C -0.1813(5) 0.6649(5) 0.4369(2)
C6 C -0.1409(4) 0.3455(4) 0.4762(2)
F1 F -0.0983(3) 0.2986(3) 0.32359(12)
F2 F -0.0520(3) 0.3279(2) 0.37958(11)
F3 F 0.0421(3) 0.2827(3) 0.33739(13)
F4 F -0.2553(3) 0.7111(3) 0.43347(16)
F5 F -0.1281(5) 0.7151(4) 0.4571(3)
F6 F -0.1431(7) 0.6593(4) 0.4047(3)
F7 F -0.1847(6) 0.2868(4) 0.4570(4)
F8 F -0.0593(3) 0.3366(3) 0.46486(19)
F9 F -0.1517(7) 0.3175(5) 0.5089(2)
Ag2A Ag -0.11059(3) 0.62427(3) 0.255997(12)
Ag2J Ag -0.12427(3) 0.38941(3) 0.244003(12)
Ag2N Ag -0.37573(3) 0.38941(3) 0.505997(12)
Ag2E Ag -0.38941(3) 0.62427(3) 0.494003(12)
Ag2K Ag 0.12427(3) 0.61059(3) 0.244003(12)
Ag2O Ag 0.37573(3) 0.61059(3) 0.505997(12)
Ag2D Ag 0.38941(3) 0.37573(3) 0.494003(12)
N2A N 0.0089(3) 0.5459(3) 0.29627(13)
N2K N 0.0459(3) 0.4911(3) 0.20373(13)
N2J N -0.0459(3) 0.5089(3) 0.20373(13)
N3A N 0.1343(3) 0.4945(3) 0.45143(13)
N4A N 0.2594(3) 0.5373(3) 0.48332(14)
N4F N 0.0373(3) 0.2594(3) 0.23332(14)
N4G N -0.0373(3) 0.7406(3) 0.23332(14)
N5A N 0.2703(3) 0.4479(3) 0.47284(14)
N5E N 0.2297(3) 0.4479(3) 0.27716(14)
N5D N -0.2297(3) 0.5521(3) 0.27716(14)
C1A C 0.0131(4) 0.5694(4) 0.33204(16)
C2A C 0.0309(4) 0.6652(4) 0.34371(16)
C3A C 0.1791(4) 0.5614(4) 0.47022(17)
C4A C 0.1959(4) 0.4268(4) 0.45342(18)
C5A C 0.1813(5) 0.3351(5) 0.4369(2)
C6A C 0.1409(4) 0.6545(4) 0.4762(2)
F1A F 0.0983(3) 0.7014(3) 0.32359(12)
F2A F 0.0520(3) 0.6721(2) 0.37958(11)
F3A F -0.0421(3) 0.7173(3) 0.33739(13)
F4A F 0.2553(3) 0.2889(3) 0.43347(16)
F5A F 0.1281(5) 0.2849(4) 0.4571(3)
F6A F 0.1431(7) 0.3407(4) 0.4047(3)
F7A F 0.1847(6) 0.7132(4) 0.4570(4)
F8A F 0.0593(3) 0.6634(3) 0.46486(19)
F9A F 0.1517(7) 0.6825(5) 0.5089(2)
N6 N -0.0553(6) 0.7287(5) 0.1370(2)
N6M N -0.0553(6) 0.7713(5) 0.1130(2)
N11 N -0.397(3) 1.446(3) 0.1009(11)
N12 N -0.378(2) 1.510(3) 0.0872(9)
N15 N -0.489(3) 0.835(3) 0.2182(11)
N16 N -0.441(3) 0.871(3) 0.2352(12)
N7? N -0.4246(18) 0.885(3) 0.0546(9)
N8? N -0.4018(10) 0.9244(13) 0.0391(4)
N9? N -0.314(2) 0.7500 0.1250
N10? N -0.369(2) 0.704(3) 0.1184(18)
N13? N -0.392(4) 1.351(3) 0.1291(14)
N14? N -0.393(3) 1.278(3) 0.1371(11)
loop_
_geom_bond_atom_site_label_1
_geom_bond_atom_site_label_2
_geom_bond_site_symmetry_1
_geom_bond_site_symmetry_2
Ag1 N1 1_555 1_555
Ag2 N2 1_555 1_555
N1 C1 1_555 1_555
N2 C1 1_555 1_555
N3 Ag1 1_555 1_555
N4 N5 1_555 1_555
N5 C4 1_555 1_555
C1 C2 1_555 1_555
C2 F1 1_555 1_555
C3 N3 1_555 1_555
C4 N3 1_555 1_555
C5 C4 1_555 1_555
C6 C3 1_555 1_555
F2 C2 1_555 1_555
F3 C2 1_555 1_555
F4 C5 1_555 1_555
F5 C5 1_555 1_555
F6 C5 1_555 1_555
F7 C6 1_555 1_555
F8 C6 1_555 1_555
F9 C6 1_555 1_555
N6 N6M 1_555 1_555
N11 N12 1_555 1_555
N15 N16 1_555 1_555
Ag2A N2A 1_555 1_555
Ag2J N2 1_555 1_555
Ag2N N4 1_555 1_555
Ag2E N5 1_555 1_555
Ag2K N2A 1_555 1_555
Ag2O N4A 1_555 1_555
Ag2D N5A 1_555 1_555
N2A N2 1_555 1_555
N2K Ag2 1_555 1_555
N2J Ag2A 1_555 1_555
N3A Ag1 1_555 1_555
N4A N5A 1_555 1_555
N4F Ag2 1_555 1_555
N4G Ag2A 1_555 1_555
N5A C4A 1_555 1_555
N5E Ag2 1_555 1_555
N5D Ag2A 1_555 1_555
C1A N1 1_555 1_555
C2A C1A 1_555 1_555
C3A N3A 1_555 1_555
C4A N3A 1_555 1_555
C5A C4A 1_555 1_555
C6A C3A 1_555 1_555
F1A C2A 1_555 1_555
F2A C2A 1_555 1_555
F3A C2A 1_555 1_555
F4A C5A 1_555 1_555
F5A C5A 1_555 1_555
F6A C5A 1_555 1_555
F7A C6A 1_555 1_555
F8A C6A 1_555 1_555
F9A C6A 1_555 1_555
N4 C3 1_555 1_555
Ag2J N2J 1_555 1_555
Ag2K N2K 1_555 1_555
N2A C1A 1_555 1_555
N2K N2J 1_555 1_555
N4A C3A 1_555 1_555

#END
