
#######################################################################
#
#                 Cambridge Crystallographic Data Centre
#                                CCDC 
#
#######################################################################
#
# If this CIF has been generated from an entry in the Cambridge 
# Structural Database, then it will include bibliographic, chemical, 
# crystal, experimental, refinement or atomic coordinate data resulting 
# from the CCDC's data processing and validation procedures.
#
#######################################################################

data_COWROX
_symmetry_cell_setting           monoclinic
_symmetry_space_group_name_H-M   'P 21/n'
_symmetry_Int_Tables_number      14
_space_group_name_Hall           '-P 2yn'
loop_
_symmetry_equiv_pos_site_id
_symmetry_equiv_pos_as_xyz
1 x,y,z
2 1/2-x,1/2+y,1/2-z
3 -x,-y,-z
4 1/2+x,1/2-y,1/2+z
_cell_length_a                   16.7033(9)
_cell_length_b                   20.0195(11)
_cell_length_c                   17.4602(12)
_cell_angle_alpha                90
_cell_angle_beta                 100.423(6)
_cell_angle_gamma                90
_cell_volume                     5742.2
loop_
_atom_site_label
_atom_site_type_symbol
_atom_site_fract_x
_atom_site_fract_y
_atom_site_fract_z
Co1 Co 0.97583(4) 0.33010(4) 0.74861(4)
Co2 Co 0.87669(5) 0.37450(4) 0.55576(5)
Co3 Co 1.09087(5) 0.34918(4) 0.94262(5)
S1 S 1.03806(8) 0.72495(7) 0.76686(8)
S2 S 1.04208(9) -0.06691(7) 0.84508(10)
S3 S 0.61128(8) 0.48469(7) 0.95687(8)
N1 N 0.7658(4) 0.3635(5) 0.3181(4)
N2 N 1.2588(5) 0.3760(3) 1.1447(5)
O1 O 1.0152(3) 0.2546(2) 0.8283(3)
O2 O 0.9433(2) 0.41535(19) 0.6810(2)
O3 O 0.4940(3) 0.2349(2) 1.1558(2)
O4 O 1.4018(2) -0.1379(2) 0.7476(2)
O5 O 0.6497(2) 0.80494(19) 0.7587(2)
O6 O 0.9649(3) 0.3864(2) 0.8591(3)
O7 O 0.8208(3) 0.3740(3) 0.4422(3)
O8 O 0.4544(3) 0.1995(2) 1.0355(2)
O9 O 0.6960(2) 0.8196(2) 0.8837(2)
O10 O 0.8018(4) 0.4612(3) 0.5646(3)
O11 O 0.9757(4) 0.4479(2) 0.5703(3)
O12 O 1.1661(3) 0.3661(2) 1.0434(3)
O13 O 1.0864(3) 0.24868(19) 0.9432(2)
O14 O 1.3355(2) -0.1170(2) 0.6314(2)
O15 O 0.9956(3) 0.3976(3) 0.9836(3)
O16 O 0.6684(5) 0.4878(6) 0.6994(6)
O17 O 1.0870(2) 0.7235(2) 0.8411(2)
O18 O 1.0614(2) 0.76414(19) 0.7059(2)
O19 O 0.9732(3) -0.0814(2) 0.7890(3)
O20 O 1.0501(3) -0.0958(2) 0.9204(3)
O21 O 0.6141(2) 0.53295(18) 1.0164(2)
O22 O 0.5670(2) 0.49677(19) 0.8823(2)
C1 C 0.9730(4) 0.4571(3) 0.6417(4)
C2 C 0.9979(3) 0.5213(3) 0.6748(3)
C3 C 1.0041(4) 0.5329(3) 0.7533(3)
H1 H 0.9975 0.4977 0.7863
C4 C 1.0194(4) 0.5945(3) 0.7826(4)
H2 H 1.0250 0.6027 0.8357
C5 C 1.0266(3) 0.6444(3) 0.7313(3)
C6 C 1.0219(3) 0.6335(3) 0.6531(3)
H3 H 1.0277 0.6687 0.6198
C7 C 1.0087(4) 0.5716(3) 0.6260(3)
H4 H 1.0070 0.5629 0.5734
C8 C 0.9397(3) 0.7477(2) 0.7807(3)
C9 C 0.9230(3) 0.7589(3) 0.8549(3)
H5 H 0.9643 0.7538 0.8980
C10 C 0.8469(3) 0.7773(3) 0.8657(3)
H6 H 0.8365 0.7852 0.9154
C11 C 0.7872(3) 0.7840(2) 0.8026(3)
C12 C 0.8056(3) 0.7731(3) 0.7291(3)
H7 H 0.7646 0.7783 0.6858
C13 C 0.8815(3) 0.7550(3) 0.7180(3)
H8 H 0.8923 0.7480 0.6682
C14 C 0.7041(3) 0.8046(3) 0.8157(3)
C15 C 1.0505(3) 0.2230(3) 0.8823(3)
C16 C 1.0502(3) 0.1514(3) 0.8751(3)
C17 C 1.0179(3) 0.1234(3) 0.8053(3)
H9 H 0.9968 0.1508 0.7635
C18 C 1.0160(3) 0.0574(3) 0.7957(3)
H10 H 0.9943 0.0385 0.7478
C19 C 1.0463(3) 0.0188(3) 0.8573(3)
C20 C 1.0776(5) 0.0443(3) 0.9262(4)
H11 H 1.0975 0.0166 0.9680
C21 C 1.0800(5) 0.1114(3) 0.9345(4)
H12 H 1.1028 0.1299 0.9823
C22 C 1.1295(3) -0.0850(3) 0.8030(3)
C23 C 1.1284(3) -0.0758(3) 0.7251(3)
H13 H 1.0810 -0.0607 0.6936
C24 C 1.1963(3) -0.0884(3) 0.6924(3)
H14 H 1.1940 -0.0828 0.6392
C25 C 1.2660(3) -0.1089(3) 0.7379(3)
C26 C 1.2643(4) -0.1186(3) 0.8156(4)
H15 H 1.3114 -0.1338 0.8476
C27 C 1.1964(4) -0.1069(3) 0.8488(3)
H16 H 1.1977 -0.1142 0.9016
C28 C 1.3405(3) -0.1222(3) 0.7035(4)
C29 C 0.9466(3) 0.4022(3) 0.9225(4)
C30 C 0.8639(3) 0.4269(3) 0.9284(3)
C31 C 0.8493(4) 0.4576(3) 0.9962(4)
H17 H 0.8925 0.4651 1.0369
C32 C 0.7727(3) 0.4770(3) 1.0039(3)
H18 H 0.7636 0.4980 1.0490
C33 C 0.7112(3) 0.4649(2) 0.9449(3)
C34 C 0.7254(3) 0.4351(3) 0.8770(3)
H19 H 0.6822 0.4276 0.8362
C35 C 0.8026(3) 0.4166(3) 0.8695(3)
H20 H 0.8120 0.3970 0.8236
C36 C 0.5752(3) 0.4127(3) 0.9934(3)
C37 C 0.5838(3) 0.4030(3) 1.0721(3)
H21 H 0.6093 0.4355 1.1061
C38 C 0.5558(3) 0.3470(3) 1.1009(3)
H22 H 0.5619 0.3409 1.1544
C39 C 0.5192(3) 0.3003(3) 1.0518(3)
C40 C 0.5108(3) 0.3104(3) 0.9724(3)
H23 H 0.4856 0.2778 0.9385
C41 C 0.5383(3) 0.3668(3) 0.9430(3)
H24 H 0.5319 0.3735 0.8895
C42 C 0.4872(3) 0.2394(3) 1.0842(4)
C43 C 0.7755(7) 0.4824(6) 0.6352(8)
H25 H 0.8059 0.4581 0.6790
H26 H 0.7874 0.5296 0.6434
C44 C 0.6901(7) 0.4715(6) 0.6320(6)
H27 H 0.6594 0.4983 0.5905
H28 H 0.6774 0.4249 0.6205
C45 C 0.7851(7) 0.2697(4) 0.3850(8)
C46 C 0.7927(7) 0.3466(5) 0.3835(5)
C47 C 0.7727(9) 0.4407(5) 0.3155(9)
C48 C 0.7352(6) 0.3305(7) 0.2465(5)
C49 C 1.2999(6) 0.3335(5) 1.0358(6)
H29 H 1.3514 0.3328 1.0708
H30 H 1.3039 0.3612 0.9918
H31 H 1.2855 0.2889 1.0184
C50 C 1.2299(6) 0.3636(4) 1.0812(6)
C51 C 1.1878(7) 0.4046(5) 1.1865(6)
H32 H 1.2100 0.4156 1.2396
H33 H 1.1463 0.3713 1.1852
H34 H 1.1648 0.4439 1.1596
C52 C 1.3334(6) 0.3733(5) 1.1919(6)
H35 H 1.3293 0.3895 1.2427
H36 H 1.3712 0.4004 1.1703
H37 H 1.3523 0.3279 1.1957
Co1A Co 0.52417(4) 0.83010(4) 0.75139(4)
Co1A_2 Co 1.52417(4) -0.16990(4) 0.75139(4)
Co1C Co 0.47583(4) 0.16990(4) 1.24861(4)
Co2A Co 0.62331(5) 0.87450(4) 0.94424(5)
Co2C Co 0.37669(5) 0.12550(4) 1.05576(5)
Co3A Co 1.40913(5) -0.15082(4) 0.55738(5)
O3C O 0.9940(3) 0.2651(2) 0.6558(2)
O4A O 1.0982(2) 0.3621(2) 0.7524(2)
O5A O 0.8503(2) 0.30494(19) 0.7413(2)
O8C O 0.9544(3) 0.3005(2) 0.5355(2)
O9A O 0.8040(2) 0.3196(2) 0.6163(2)
O14A O 1.1645(2) 0.3830(2) 0.8686(2)
N3 N 0.6968(6) 0.7059(5) 0.5431(5)
O23 O 0.8172(6) 0.6787(5) 0.5300(6)
C53 C 0.7597(6) 0.7778(6) 0.4699(6)
H38 H 0.7084 0.8004 0.4651
H39 H 0.7697 0.7665 0.4190
H40 H 0.8023 0.8066 0.4954
C54 C 0.7578(7) 0.7146(6) 0.5174(6)
C55 C 0.6229(5) 0.7475(5) 0.5308(6)
H41 H 0.5836 0.7285 0.5583
H42 H 0.6005 0.7494 0.4762
H43 H 0.6365 0.7919 0.5498
C56 C 0.6964(11) 0.6472(6) 0.5903(7)
H44 H 0.6454 0.6443 0.6082
H45 H 0.7400 0.6498 0.6343
H46 H 0.7034 0.6083 0.5601
loop_
_geom_bond_atom_site_label_1
_geom_bond_atom_site_label_2
_geom_bond_site_symmetry_1
_geom_bond_site_symmetry_2
Co1 O1 1_555 1_555
Co2 O2 1_555 1_555
Co3 O6 1_555 1_555
S1 O17 1_555 1_555
S2 O19 1_555 1_555
S3 O21 1_555 1_555
N1 C46 1_555 1_555
N2 C50 1_555 1_555
O1 C15 1_555 1_555
O2 Co1 1_555 1_555
O3 C42 1_555 1_555
O4 C28 1_555 1_555
O5 C14 1_555 1_555
O6 Co1 1_555 1_555
O7 Co2 1_555 1_555
O8 C42 1_555 1_555
O9 C14 1_555 1_555
O10 Co2 1_555 1_555
O11 Co2 1_555 1_555
O12 Co3 1_555 1_555
O13 Co3 1_555 1_555
O14 C28 1_555 1_555
O15 Co3 1_555 1_555
O16 C44 1_555 1_555
O18 S1 1_555 1_555
O20 S2 1_555 1_555
O22 S3 1_555 1_555
C1 O2 1_555 1_555
C2 C1 1_555 1_555
C3 C2 1_555 1_555
H1 C3 1_555 1_555
C4 C3 1_555 1_555
H2 C4 1_555 1_555
C5 S1 1_555 1_555
C6 C5 1_555 1_555
H3 C6 1_555 1_555
C7 C2 1_555 1_555
H4 C7 1_555 1_555
C8 S1 1_555 1_555
C9 C8 1_555 1_555
H5 C9 1_555 1_555
C10 C9 1_555 1_555
H6 C10 1_555 1_555
C11 C10 1_555 1_555
C12 C11 1_555 1_555
H7 C12 1_555 1_555
C13 C8 1_555 1_555
H8 C13 1_555 1_555
C14 C11 1_555 1_555
C15 O13 1_555 1_555
C16 C15 1_555 1_555
C17 C16 1_555 1_555
H9 C17 1_555 1_555
C18 C17 1_555 1_555
H10 C18 1_555 1_555
C19 S2 1_555 1_555
C20 C19 1_555 1_555
H11 C20 1_555 1_555
C21 C16 1_555 1_555
H12 C21 1_555 1_555
C22 S2 1_555 1_555
C23 C22 1_555 1_555
H13 C23 1_555 1_555
C24 C23 1_555 1_555
H14 C24 1_555 1_555
C25 C24 1_555 1_555
C26 C25 1_555 1_555
H15 C26 1_555 1_555
C27 C22 1_555 1_555
H16 C27 1_555 1_555
C28 C25 1_555 1_555
C29 O6 1_555 1_555
C30 C29 1_555 1_555
C31 C30 1_555 1_555
H17 C31 1_555 1_555
C32 C31 1_555 1_555
H18 C32 1_555 1_555
C33 S3 1_555 1_555
C34 C33 1_555 1_555
H19 C34 1_555 1_555
C35 C30 1_555 1_555
H20 C35 1_555 1_555
C36 S3 1_555 1_555
C37 C36 1_555 1_555
H21 C37 1_555 1_555
C38 C37 1_555 1_555
H22 C38 1_555 1_555
C39 C38 1_555 1_555
C40 C39 1_555 1_555
H23 C40 1_555 1_555
C41 C36 1_555 1_555
H24 C41 1_555 1_555
C42 C39 1_555 1_555
C43 O10 1_555 1_555
H25 C43 1_555 1_555
H26 C43 1_555 1_555
C44 C43 1_555 1_555
H27 C44 1_555 1_555
H28 C44 1_555 1_555
C45 C46 1_555 1_555
C46 O7 1_555 1_555
C47 N1 1_555 1_555
C48 N1 1_555 1_555
C49 H29 1_555 1_555
H30 C49 1_555 1_555
H31 C49 1_555 1_555
C50 O12 1_555 1_555
C51 N2 1_555 1_555
H32 C51 1_555 1_555
H33 C51 1_555 1_555
H34 C51 1_555 1_555
C52 N2 1_555 1_555
H35 C52 1_555 1_555
H36 C52 1_555 1_555
H37 C52 1_555 1_555
N3 C54 1_555 1_555
O23 C54 1_555 1_555
C53 H38 1_555 1_555
H39 C53 1_555 1_555
H40 C53 1_555 1_555
C54 C53 1_555 1_555
C55 N3 1_555 1_555
H41 C55 1_555 1_555
H42 C55 1_555 1_555
H43 C55 1_555 1_555
C56 N3 1_555 1_555
H44 C56 1_555 1_555
H45 C56 1_555 1_555
H46 C56 1_555 1_555
Co1A O5 1_555 1_555
Co1A_2 O4 1_555 1_555
Co1C O3 1_555 1_555
Co2A O9 1_555 1_555
Co2C O8 1_555 1_555
Co3A O14 1_555 1_555
O3C Co1 1_555 1_555
O4A Co1 1_555 1_555
O5A Co1 1_555 1_555
O8C Co2 1_555 1_555
O9A Co2 1_555 1_555
O14A Co3 1_555 1_555
O11 C1 1_555 1_555
O15 C29 1_555 1_555
C4 C5 1_555 1_555
C6 C7 1_555 1_555
C12 C13 1_555 1_555
C18 C19 1_555 1_555
C20 C21 1_555 1_555
C26 C27 1_555 1_555
C32 C33 1_555 1_555
C34 C35 1_555 1_555
C40 C41 1_555 1_555
C49 C50 1_555 1_555

#END
