
#######################################################################
#
#                 Cambridge Crystallographic Data Centre
#                                CCDC 
#
#######################################################################
#
# If this CIF has been generated from an entry in the Cambridge 
# Structural Database, then it will include bibliographic, chemical, 
# crystal, experimental, refinement or atomic coordinate data resulting 
# from the CCDC's data processing and validation procedures.
#
#######################################################################

data_COWRAJ
_symmetry_cell_setting           monoclinic
_symmetry_space_group_name_H-M   'P 21/n'
_symmetry_Int_Tables_number      14
_space_group_name_Hall           '-P 2yn'
loop_
_symmetry_equiv_pos_site_id
_symmetry_equiv_pos_as_xyz
1 x,y,z
2 1/2-x,1/2+y,1/2-z
3 -x,-y,-z
4 1/2+x,1/2-y,1/2+z
_cell_length_a                   16.7033(9)
_cell_length_b                   20.0195(11)
_cell_length_c                   17.4602(12)
_cell_angle_alpha                90
_cell_angle_beta                 100.423(6)
_cell_angle_gamma                90
_cell_volume                     5742.2
loop_
_atom_site_label
_atom_site_type_symbol
_atom_site_fract_x
_atom_site_fract_y
_atom_site_fract_z
Co1 Co -0.04089(4) 0.16580(4) 0.24332(4)
Co2 Co -0.14651(4) 0.12517(4) 0.05558(4)
Co3 Co 0.08528(4) 0.14594(4) 0.43907(4)
S1 S 0.05238(8) -0.22489(7) 0.26585(8)
S2 S -0.39687(8) 0.01649(7) 0.46048(7)
S3 S 0.44446(9) 0.06989(8) 0.16560(9)
N1 N -0.2428(3) 0.1535(3) -0.1830(3)
N2 N 0.2486(6) 0.1204(4) 0.6452(4)
O1 O -0.5216(2) 0.2651(2) 0.6626(2)
O2 O -0.0610(2) 0.1007(2) 0.3308(2)
O3 O 0.0804(2) 0.1369(2) 0.2490(2)
O4 O -0.3365(2) -0.3065(2) 0.2669(2)
O5 O 0.5082(3) -0.2597(2) 0.1722(2)
O6 O -0.0735(2) 0.08666(19) 0.1644(2)
O7 O -0.1984(3) 0.1406(3) -0.0554(2)
O8 O -0.2816(2) -0.3155(2) 0.3934(2)
O9 O -0.5619(2) 0.3059(2) 0.5421(2)
O10 O -0.0671(3) 0.0438(2) 0.0515(2)
O11 O -0.2347(3) 0.0472(2) 0.0634(3)
O12 O -0.0155(2) 0.1086(2) 0.4579(2)
O13 O 0.1469(2) 0.1069(2) 0.3669(2)
O14 O 0.1495(3) 0.1251(2) 0.5410(2)
O15 O 0.4117(2) -0.2564(2) 0.0657(2)
O16 O 0.0719(2) -0.2680(2) 0.2062(2)
O17 O 0.1069(2) -0.2201(2) 0.3385(2)
O18 O -0.4481(2) 0.0012(2) 0.3877(2)
O19 O -0.3856(2) -0.0326(2) 0.5213(2)
O20 O 0.5134(2) 0.0869(2) 0.2235(3)
O21 O 0.4342(3) 0.1014(2) 0.0909(3)
C1 C -0.0502(3) 0.0401(3) 0.1234(3)
C2 C -0.0115(3) -0.0209(3) 0.1614(3)
C3 C 0.0052(4) -0.0733(3) 0.1158(4)
H1 H 0.0011 -0.0668 0.0625
C4 C 0.0279(4) -0.1351(3) 0.1471(4)
H2 H 0.0373 -0.1704 0.1154
C5 C 0.0362(3) -0.1433(3) 0.2256(3)
C6 C 0.0245(4) -0.0910(3) 0.2744(3)
H3 H 0.0317 -0.0972 0.3280
C7 C 0.0017(4) -0.0289(3) 0.2414(3)
H4 H -0.0047 0.0072 0.2733
C8 C -0.0447(3) -0.2475(3) 0.2829(3)
C9 C -0.1074(3) -0.2573(3) 0.2207(3)
H5 H -0.0979 -0.2530 0.1701
C10 C -0.1837(3) -0.2734(3) 0.2333(3)
H6 H -0.2263 -0.2790 0.1915
C11 C -0.1967(3) -0.2811(3) 0.3090(3)
C12 C -0.1323(3) -0.2724(3) 0.3712(3)
H7 H -0.1406 -0.2796 0.4219
C13 C -0.0567(3) -0.2532(3) 0.3584(3)
H8 H -0.0147 -0.2444 0.3999
C14 C -0.2796(3) -0.3027(3) 0.3230(3)
C15 C -0.0700(3) 0.0964(3) 0.3997(3)
C16 C -0.1502(3) 0.0737(3) 0.4146(3)
C17 C -0.2177(3) 0.0794(3) 0.3553(3)
H9 H -0.2118 0.0948 0.3063
C18 C -0.2938(3) 0.0618(3) 0.3699(3)
H10 H -0.3400 0.0663 0.3316
C19 C -0.2994(3) 0.0377(3) 0.4425(3)
C20 C -0.2330(3) 0.0304(3) 0.5010(3)
H11 H -0.2390 0.0134 0.5492
C21 C -0.1575(3) 0.0488(3) 0.4873(3)
H12 H -0.1118 0.0446 0.5263
C22 C -0.4313(3) 0.0907(3) 0.4971(3)
C23 C -0.4756(3) 0.1369(3) 0.4468(3)
H13 H -0.4848 0.1300 0.3933
C24 C -0.5056(3) 0.1925(3) 0.4770(3)
H14 H -0.5358 0.2233 0.4438
C25 C -0.4915(3) 0.2036(3) 0.5565(3)
C26 C -0.4456(3) 0.1581(3) 0.6058(3)
H15 H -0.4346 0.1660 0.6592
C27 C -0.4160(3) 0.1010(3) 0.5760(3)
H16 H -0.3862 0.0699 0.6092
C28 C -0.5276(3) 0.2631(3) 0.5897(3)
C29 C 0.1409(3) 0.1170(3) 0.2956(3)
C30 C 0.2164(3) 0.1039(3) 0.2624(3)
C31 C 0.2872(3) 0.0819(3) 0.3111(3)
H17 H 0.2871 0.0743 0.3636
C32 C 0.3575(3) 0.0715(3) 0.2815(3)
H18 H 0.4048 0.0566 0.3135
C33 C 0.3559(3) 0.0836(3) 0.2032(3)
C34 C 0.2876(4) 0.1076(4) 0.1553(3)
H19 H 0.2887 0.1175 0.1034
C35 C 0.2174(4) 0.1170(4) 0.1849(3)
H20 H 0.1705 0.1322 0.1526
C36 C 0.4463(3) -0.0178(3) 0.1528(3)
C37 C 0.4862(3) -0.0573(3) 0.2123(3)
H21 H 0.5105 -0.0381 0.2593
C38 C 0.4899(3) -0.1254(3) 0.2015(3)
H22 H 0.5185 -0.1519 0.2409
C39 C 0.4510(3) -0.1551(3) 0.1320(3)
C40 C 0.4079(4) -0.1135(3) 0.0740(3)
H23 H 0.3801 -0.1326 0.0282
C41 C 0.4059(4) -0.0469(3) 0.0830(3)
H24 H 0.3779 -0.0201 0.0435
C42 C 0.4576(5) -0.2290(4) 0.1234(5)
C43 C -0.2503(5) 0.0312(4) 0.1392(4)
H25 H -0.2167 0.0598 0.1768
H26 H -0.2330 -0.0145 0.1512
C44 C -0.3413(7) 0.0382(6) 0.1511(8)
H27 H -0.3448 0.0272 0.2039
H28 H -0.3752 0.0083 0.1163
H29 H -0.3594 0.0833 0.1403
C45 C -0.2013(6) 0.0458(6) -0.1230(6)
C46 C -0.2131(6) 0.1213(5) -0.1145(6)
C47 C -0.2599(8) 0.1202(7) -0.2572(7)
C48 C -0.2599(6) 0.2243(6) -0.1788(6)
C49 C 0.2789(5) 0.1633(5) 0.5275(5)
H30 H 0.3315 0.1667 0.5602
H31 H 0.2607 0.2069 0.5091
H32 H 0.2825 0.1350 0.4838
C50 C 0.2177(5) 0.1330(4) 0.5745(5)
C51 C 0.3244(8) 0.1287(6) 0.6892(8)
H33 H 0.3244 0.1131 0.7412
H34 H 0.3388 0.1751 0.6905
H35 H 0.3633 0.1035 0.6667
C52 C 0.1864(7) 0.0949(4) 0.6918(5)
H36 H 0.2127 0.0862 0.7444
H37 H 0.1623 0.0544 0.6686
H38 H 0.1447 0.1279 0.6917
H39 H -0.2692 0.0239 0.0273
Co1A Co -0.45911(4) -0.33420(4) 0.25668(4)
Co1A_2 Co 0.54089(4) -0.33420(4) 0.25668(4)
Co1C Co -0.54089(4) 0.33420(4) 0.74332(4)
Co2A Co -0.35349(4) -0.37483(4) 0.44442(4)
Co2C Co -0.64651(4) 0.37483(4) 0.55558(4)
Co3A Co 0.41472(4) -0.35406(4) 0.06093(4)
O1C O -0.0216(2) 0.2349(2) 0.1626(2)
O4A O -0.1635(2) 0.1935(2) 0.2331(2)
O5A O -0.0082(3) 0.2403(2) 0.3278(2)
O8A O -0.2184(2) 0.1845(2) 0.1066(2)
O9C O -0.0619(2) 0.1941(2) 0.0421(2)
O15A O 0.0883(2) 0.2436(2) 0.4343(2)
N3 N 0.2652(6) 0.2001(4) 0.9640(4)
O22 O 0.2360(9) 0.0918(7) 0.9403(9)
C53 C 0.3620(12) 0.1324(11) 0.9152(16)
C54 C 0.2815(9) 0.1415(6) 0.9408(9)
C55 C 0.3222(15) 0.2561(10) 0.963(2)
C56 C 0.1858(11) 0.2086(11) 0.9895(16)
loop_
_geom_bond_atom_site_label_1
_geom_bond_atom_site_label_2
_geom_bond_site_symmetry_1
_geom_bond_site_symmetry_2
Co1 O2 1_555 1_555
Co2 O6 1_555 1_555
Co3 O12 1_555 1_555
S1 O16 1_555 1_555
S2 O18 1_555 1_555
S3 O20 1_555 1_555
N1 C46 1_555 1_555
N2 C50 1_555 1_555
O1 C28 1_555 1_555
O2 C15 1_555 1_555
O3 Co1 1_555 1_555
O4 C14 1_555 1_555
O5 C42 1_555 1_555
O6 Co1 1_555 1_555
O7 Co2 1_555 1_555
O8 C14 1_555 1_555
O9 C28 1_555 1_555
O10 Co2 1_555 1_555
O11 Co2 1_555 1_555
O12 C15 1_555 1_555
O13 Co3 1_555 1_555
O14 Co3 1_555 1_555
O15 C42 1_555 1_555
O17 S1 1_555 1_555
O19 S2 1_555 1_555
O21 S3 1_555 1_555
C1 O6 1_555 1_555
C2 C1 1_555 1_555
C3 C2 1_555 1_555
H1 C3 1_555 1_555
C4 C3 1_555 1_555
H2 C4 1_555 1_555
C5 S1 1_555 1_555
C6 C5 1_555 1_555
H3 C6 1_555 1_555
C7 C2 1_555 1_555
H4 C7 1_555 1_555
C8 S1 1_555 1_555
C9 C8 1_555 1_555
H5 C9 1_555 1_555
C10 C9 1_555 1_555
H6 C10 1_555 1_555
C11 C10 1_555 1_555
C12 C11 1_555 1_555
H7 C12 1_555 1_555
C13 C8 1_555 1_555
H8 C13 1_555 1_555
C14 C11 1_555 1_555
C15 C16 1_555 1_555
C16 C17 1_555 1_555
C17 H9 1_555 1_555
C18 C17 1_555 1_555
H10 C18 1_555 1_555
C19 S2 1_555 1_555
C20 C19 1_555 1_555
H11 C20 1_555 1_555
C21 C16 1_555 1_555
H12 C21 1_555 1_555
C22 S2 1_555 1_555
C23 C22 1_555 1_555
H13 C23 1_555 1_555
C24 C23 1_555 1_555
H14 C24 1_555 1_555
C25 C24 1_555 1_555
C26 C25 1_555 1_555
H15 C26 1_555 1_555
C27 C22 1_555 1_555
H16 C27 1_555 1_555
C28 C25 1_555 1_555
C29 O3 1_555 1_555
C30 C29 1_555 1_555
C31 C30 1_555 1_555
H17 C31 1_555 1_555
C32 C31 1_555 1_555
H18 C32 1_555 1_555
C33 S3 1_555 1_555
C34 C33 1_555 1_555
H19 C34 1_555 1_555
C35 C30 1_555 1_555
H20 C35 1_555 1_555
C36 S3 1_555 1_555
C37 C36 1_555 1_555
H21 C37 1_555 1_555
C38 C37 1_555 1_555
H22 C38 1_555 1_555
C39 C38 1_555 1_555
C40 C39 1_555 1_555
H23 C40 1_555 1_555
C41 C36 1_555 1_555
H24 C41 1_555 1_555
C42 C39 1_555 1_555
C43 O11 1_555 1_555
H25 C43 1_555 1_555
H26 C43 1_555 1_555
C44 C43 1_555 1_555
H27 C44 1_555 1_555
H28 C44 1_555 1_555
H29 C44 1_555 1_555
C45 C46 1_555 1_555
C46 O7 1_555 1_555
C47 N1 1_555 1_555
C48 N1 1_555 1_555
C49 H30 1_555 1_555
H31 C49 1_555 1_555
H32 C49 1_555 1_555
C50 O14 1_555 1_555
C51 N2 1_555 1_555
H33 C51 1_555 1_555
H34 C51 1_555 1_555
H35 C51 1_555 1_555
C52 N2 1_555 1_555
H36 C52 1_555 1_555
H37 C52 1_555 1_555
H38 C52 1_555 1_555
H39 O11 1_555 1_555
N3 C54 1_555 1_555
O22 C54 1_555 1_555
C53 C54 1_555 1_555
C55 N3 1_555 1_555
C56 N3 1_555 1_555
Co1A O4 1_555 1_555
Co1A_2 O5 1_555 1_555
Co1C O1 1_555 1_555
Co2A O8 1_555 1_555
Co2C O9 1_555 1_555
Co3A O15 1_555 1_555
O1C Co1 1_555 1_555
O4A Co1 1_555 1_555
O5A Co1 1_555 1_555
O8A Co2 1_555 1_555
O9C Co2 1_555 1_555
O15A Co3 1_555 1_555
O10 C1 1_555 1_555
O13 C29 1_555 1_555
C4 C5 1_555 1_555
C6 C7 1_555 1_555
C12 C13 1_555 1_555
C18 C19 1_555 1_555
C20 C21 1_555 1_555
C26 C27 1_555 1_555
C32 C33 1_555 1_555
C34 C35 1_555 1_555
C40 C41 1_555 1_555
C49 C50 1_555 1_555

#END
