
#######################################################################
#
#                 Cambridge Crystallographic Data Centre
#                                CCDC 
#
#######################################################################
#
# If this CIF has been generated from an entry in the Cambridge 
# Structural Database, then it will include bibliographic, chemical, 
# crystal, experimental, refinement or atomic coordinate data resulting 
# from the CCDC's data processing and validation procedures.
#
#######################################################################

data_COWSIS
_symmetry_cell_setting           monoclinic
_symmetry_space_group_name_H-M   'C 2/c'
_symmetry_Int_Tables_number      15
_space_group_name_Hall           '-C 2yn'
loop_
_symmetry_equiv_pos_site_id
_symmetry_equiv_pos_as_xyz
1 x,y,z
2 -x,y,1/2-z
3 1/2+x,1/2+y,z
4 1/2-x,1/2+y,1/2-z
5 -x,-y,-z
6 x,-y,1/2+z
7 1/2-x,1/2-y,-z
8 1/2+x,1/2-y,1/2+z
_cell_length_a                   24.456(15)
_cell_length_b                   11.287(6)
_cell_length_c                   7.771(5)
_cell_angle_alpha                90
_cell_angle_beta                 107.225(8)
_cell_angle_gamma                90
_cell_volume                     2048.86
loop_
_atom_site_label
_atom_site_type_symbol
_atom_site_fract_x
_atom_site_fract_y
_atom_site_fract_z
Ni1 Ni 0.5000 1.0000 0.0000
O1 O 0.56486(4) 0.87820(9) 0.13251(13)
O2 O 0.59649(5) 0.82215(11) -0.09605(14)
O3 O 0.82628(5) 0.56362(13) 0.3585(2)
O4 O 0.81239(5) 0.73708(13) 0.21336(19)
H1 H 0.8427 0.7204 0.1940
O5 O 0.43767(4) 0.88836(9) 0.01556(14)
H2 H 0.4053 0.9173 -0.0419
H3 H 0.4379(8) 0.874(2) 0.1233(14)
O6 O 0.5000 1.07162(12) 0.2500
H4 H 0.4703 1.1140 0.2361
C1 C 0.59747(6) 0.81782(12) 0.06685(19)
C2 C 0.63912(6) 0.73186(13) 0.18682(19)
C3 C 0.61979(6) 0.64258(14) 0.2811(2)
C4 C 0.65927(7) 0.56272(16) 0.3866(3)
H5 H 0.6470 0.5056 0.4531
C5 C 0.71628(7) 0.56743(17) 0.3936(3)
H6 H 0.7420 0.5127 0.4626
C6 C 0.73524(6) 0.65382(15) 0.2975(2)
C7 C 0.69709(6) 0.73729(14) 0.1975(2)
H7 H 0.7102 0.7970 0.1373
C8 C 0.79592(6) 0.64753(16) 0.2951(2)
C9 C 0.55811(6) 0.63041(12) 0.2642(2)
C10 C 0.51743(7) 0.62740(13) 0.0962(2)
H8 H 0.5291 0.6263 -0.0073
C11 C 0.54035(7) 0.62597(13) 0.4190(2)
H9 H 0.5673 0.6221 0.5320
O1A O 0.43514(4) 0.87820(9) 0.36749(13)
O2A O 0.40351(5) 0.82215(11) 0.59605(14)
O3A O 0.17372(5) 0.56362(13) 0.1415(2)
O4A O 0.18761(5) 0.73708(13) 0.28664(19)
H1A H 0.1573 0.7204 0.3060
C1A C 0.40253(6) 0.81782(12) 0.43315(19)
C2A C 0.36088(6) 0.73186(13) 0.31318(19)
C3A C 0.38021(6) 0.64258(14) 0.2189(2)
C4A C 0.34073(7) 0.56272(16) 0.1134(3)
H5A H 0.3530 0.5056 0.0469
C5A C 0.28372(7) 0.56743(17) 0.1064(3)
H6A H 0.2580 0.5127 0.0374
C6A C 0.26476(6) 0.65382(15) 0.2025(2)
C7A C 0.30291(6) 0.73729(14) 0.3025(2)
H7A H 0.2898 0.7970 0.3627
C8A C 0.20408(6) 0.64753(16) 0.2049(2)
C9A C 0.44189(6) 0.63041(12) 0.2358(2)
C10A C 0.48257(7) 0.62740(13) 0.4038(2)
H8A H 0.4709 0.6263 0.5073
C11A C 0.45965(7) 0.62597(13) 0.0810(2)
H9A H 0.4327 0.6221 -0.0320
H4A H 0.5297 1.1140 0.2639
O5D O 0.56233(4) 1.11164(9) -0.01556(14)
H2D H 0.5947 1.0827 0.0419
H3D H 0.5621(8) 1.126(2) -0.1233(14)
Ni1A Ni 0.5000 1.0000 0.5000
O1D O 0.43514(4) 1.12180(9) -0.13251(13)
O6D O 0.5000 0.92838(12) -0.2500
loop_
_geom_bond_atom_site_label_1
_geom_bond_atom_site_label_2
_geom_bond_site_symmetry_1
_geom_bond_site_symmetry_2
Ni1 O1 1_555 1_555
O1 C1 1_555 1_555
O2 C1 1_555 1_555
O3 C8 1_555 1_555
O4 H1 1_555 1_555
O5 Ni1 1_555 1_555
H2 O5 1_555 1_555
H3 O5 1_555 1_555
O6 Ni1 1_555 1_555
H4 O6 1_555 1_555
C1 C2 1_555 1_555
C2 C3 1_555 1_555
C3 C4 1_555 1_555
C4 H5 1_555 1_555
C5 C4 1_555 1_555
H6 C5 1_555 1_555
C6 C5 1_555 1_555
C7 C2 1_555 1_555
H7 C7 1_555 1_555
C8 O4 1_555 1_555
C9 C3 1_555 1_555
C10 C9 1_555 1_555
H8 C10 1_555 1_555
C11 C9 1_555 1_555
H9 C11 1_555 1_555
O1A C1A 1_555 1_555
O2A C1A 1_555 1_555
O3A C8A 1_555 1_555
O4A H1A 1_555 1_555
C1A C2A 1_555 1_555
C2A C3A 1_555 1_555
C3A C4A 1_555 1_555
C4A H5A 1_555 1_555
C5A C4A 1_555 1_555
H6A C5A 1_555 1_555
C6A C5A 1_555 1_555
C7A C2A 1_555 1_555
H7A C7A 1_555 1_555
C8A O4A 1_555 1_555
C9A C3A 1_555 1_555
C10A C11 1_555 1_555
H8A C10A 1_555 1_555
C11A C10 1_555 1_555
H9A C11A 1_555 1_555
H4A O6 1_555 1_555
O5D Ni1 1_555 1_555
H2D O5D 1_555 1_555
H3D O5D 1_555 1_555
Ni1A O6 1_555 1_555
O1D Ni1 1_555 1_555
O6D Ni1 1_555 1_555
C6 C7 1_555 1_555
C6 C8 1_555 1_555
O1A Ni1A 1_555 1_555
C6A C7A 1_555 1_555
C6A C8A 1_555 1_555
C9A C10A 1_555 1_555
C9A C11A 1_555 1_555

#END
