
#######################################################################
#
#                 Cambridge Crystallographic Data Centre
#                                CCDC 
#
#######################################################################
#
# If this CIF has been generated from an entry in the Cambridge 
# Structural Database, then it will include bibliographic, chemical, 
# crystal, experimental, refinement or atomic coordinate data resulting 
# from the CCDC's data processing and validation procedures.
#
#######################################################################

data_COWSAJ
_symmetry_cell_setting           tetragonal
_symmetry_space_group_name_H-M   'I -4 2 d'
_symmetry_Int_Tables_number      122
_space_group_name_Hall           'I -4 2bw'
loop_
_symmetry_equiv_pos_site_id
_symmetry_equiv_pos_as_xyz
1 x,y,z
2 -x,-y,z
3 y,-x,-z
4 -y,x,-z
5 1/2-x,y,3/4-z
6 1/2+x,-y,3/4-z
7 1/2-y,-x,3/4+z
8 1/2+y,x,3/4+z
9 1/2+x,1/2+y,1/2+z
10 1/2-x,1/2-y,1/2+z
11 1/2+y,1/2-x,1/2-z
12 1/2-y,1/2+x,1/2-z
13 -x,1/2+y,1/4-z
14 x,1/2-y,1/4-z
15 -y,1/2-x,1/4+z
16 y,1/2+x,1/4+z
_cell_length_a                   12.950(4)
_cell_length_b                   12.950(4)
_cell_length_c                   40.69(2)
_cell_angle_alpha                90
_cell_angle_beta                 90
_cell_angle_gamma                90
_cell_volume                     6823.81
loop_
_atom_site_label
_atom_site_type_symbol
_atom_site_fract_x
_atom_site_fract_y
_atom_site_fract_z
Ag1 Ag 0.0000 0.5000 0.398176(7)
Ag2 Ag 0.119397(18) 0.355315(17) 0.254902(5)
N1 N 0.0000 0.5000 0.34403(8)
N2 N -0.0184(2) 0.4504(2) 0.29152(6)
N3 N 0.13308(18) 0.4913(2) 0.43565(5)
N4 N 0.2386(2) 0.5374(2) 0.47651(6)
N5 N 0.25928(19) 0.43668(19) 0.46873(6)
C1 C -0.0282(2) 0.4254(2) 0.32287(7)
C2 C -0.0720(3) 0.3240(3) 0.33405(7)
C3 C 0.1640(2) 0.5652(2) 0.45632(7)
C4 C 0.1953(2) 0.4132(2) 0.44470(7)
C5 C 0.1983(3) 0.3085(3) 0.42895(10)
C6 C 0.1172(3) 0.6718(3) 0.45695(10)
F1 F -0.16777(19) 0.3355(2) 0.34511(9)
F2 F -0.0177(2) 0.28225(17) 0.35802(5)
F3 F -0.0772(3) 0.25720(19) 0.30956(5)
F4 F 0.28879(19) 0.2880(2) 0.41653(9)
F5 F 0.1818(3) 0.2338(2) 0.45098(8)
F6 F 0.1271(2) 0.2979(2) 0.40628(7)
F7 F 0.0994(3) 0.7064(2) 0.42701(6)
F8 F 0.0246(2) 0.6696(2) 0.47223(8)
F9 F 0.1750(2) 0.73847(18) 0.47264(8)
Ag2A Ag -0.119397(18) 0.644685(17) 0.254902(5)
Ag2J Ag -0.144685(17) 0.380603(18) 0.245098(5)
Ag2O Ag 0.355315(17) 0.619397(18) 0.504902(5)
Ag2D Ag 0.380603(18) 0.355315(17) 0.495098(5)
Ag2K Ag 0.144685(17) 0.619397(18) 0.245098(5)
Ag2N Ag -0.355315(17) 0.380603(18) 0.504902(5)
Ag2E Ag -0.380603(18) 0.644685(17) 0.495098(5)
N2A N 0.0184(2) 0.5496(2) 0.29152(6)
N2K N 0.0496(2) 0.4816(2) 0.20848(6)
N2J N -0.0496(2) 0.5184(2) 0.20848(6)
N3A N -0.13308(18) 0.5087(2) 0.43565(5)
N4A N -0.2386(2) 0.4626(2) 0.47651(6)
N4G N 0.0374(2) 0.2386(2) 0.22651(6)
N4F N -0.0374(2) 0.7614(2) 0.22651(6)
N5A N -0.25928(19) 0.56332(19) 0.46873(6)
N5D N 0.24072(19) 0.43668(19) 0.28127(6)
N5E N -0.24072(19) 0.56332(19) 0.28127(6)
C1A C 0.0282(2) 0.5746(2) 0.32287(7)
C2A C 0.0720(3) 0.6760(3) 0.33405(7)
C3A C -0.1640(2) 0.4348(2) 0.45632(7)
C4A C -0.1953(2) 0.5868(2) 0.44470(7)
C5A C -0.1983(3) 0.6915(3) 0.42895(10)
C6A C -0.1172(3) 0.3282(3) 0.45695(10)
F1A F 0.16777(19) 0.6645(2) 0.34511(9)
F2A F 0.0177(2) 0.71775(17) 0.35802(5)
F3A F 0.0772(3) 0.74280(19) 0.30956(5)
F4A F -0.28879(19) 0.7120(2) 0.41653(9)
F5A F -0.1818(3) 0.7662(2) 0.45098(8)
F6A F -0.1271(2) 0.7021(2) 0.40628(7)
F7A F -0.0994(3) 0.2936(2) 0.42701(6)
F8A F -0.0246(2) 0.3304(2) 0.47223(8)
F9A F -0.1750(2) 0.26153(18) 0.47264(8)
N11 N -0.524(5) 0.462(4) -0.1020(12)
N11A N -0.476(5) 0.538(4) -0.1020(12)
N6? N -0.075(2) 0.523(4) -0.0517(8)
N7? N 0.0000 0.5000 -0.0371(7)
N8? N -0.411(6) 0.521(9) -0.118(2)
N9? N -0.476(9) 0.541(9) -0.013(3)
N10? N -0.486(11) 0.585(8) 0.018(2)
loop_
_geom_bond_atom_site_label_1
_geom_bond_atom_site_label_2
_geom_bond_site_symmetry_1
_geom_bond_site_symmetry_2
Ag1 N1 1_555 1_555
Ag2 N2 1_555 1_555
N1 C1 1_555 1_555
N2 C1 1_555 1_555
N3 Ag1 1_555 1_555
N4 N5 1_555 1_555
N5 C4 1_555 1_555
C1 C2 1_555 1_555
C2 F1 1_555 1_555
C3 N3 1_555 1_555
C4 N3 1_555 1_555
C5 C4 1_555 1_555
C6 C3 1_555 1_555
F2 C2 1_555 1_555
F3 C2 1_555 1_555
F4 C5 1_555 1_555
F5 C5 1_555 1_555
F6 C5 1_555 1_555
F7 C6 1_555 1_555
F8 C6 1_555 1_555
F9 C6 1_555 1_555
N11 N11A 1_555 1_555
Ag2A N2A 1_555 1_555
Ag2J N2 1_555 1_555
Ag2O N4 1_555 1_555
Ag2D N5 1_555 1_555
Ag2K N2A 1_555 1_555
Ag2N N4A 1_555 1_555
Ag2E N5A 1_555 1_555
N2A N2 1_555 1_555
N2K Ag2 1_555 1_555
N2J Ag2A 1_555 1_555
N3A Ag1 1_555 1_555
N4A N5A 1_555 1_555
N4G Ag2 1_555 1_555
N4F Ag2A 1_555 1_555
N5A C4A 1_555 1_555
N5D Ag2 1_555 1_555
N5E Ag2A 1_555 1_555
C1A N1 1_555 1_555
C2A C1A 1_555 1_555
C3A N3A 1_555 1_555
C4A N3A 1_555 1_555
C5A C4A 1_555 1_555
C6A C3A 1_555 1_555
F1A C2A 1_555 1_555
F2A C2A 1_555 1_555
F3A C2A 1_555 1_555
F4A C5A 1_555 1_555
F5A C5A 1_555 1_555
F6A C5A 1_555 1_555
F7A C6A 1_555 1_555
F8A C6A 1_555 1_555
F9A C6A 1_555 1_555
N4 C3 1_555 1_555
Ag2J N2J 1_555 1_555
Ag2K N2K 1_555 1_555
N2A C1A 1_555 1_555
N2K N2J 1_555 1_555
N4A C3A 1_555 1_555

#END
