
#######################################################################
#
#                 Cambridge Crystallographic Data Centre
#                                CCDC 
#
#######################################################################
#
# If this CIF has been generated from an entry in the Cambridge 
# Structural Database, then it will include bibliographic, chemical, 
# crystal, experimental, refinement or atomic coordinate data resulting 
# from the CCDC's data processing and validation procedures.
#
#######################################################################

data_COWSEN
_symmetry_cell_setting           tetragonal
_symmetry_space_group_name_H-M   'I -4 2 d'
_symmetry_Int_Tables_number      122
_space_group_name_Hall           'I -4 2bw'
loop_
_symmetry_equiv_pos_site_id
_symmetry_equiv_pos_as_xyz
1 x,y,z
2 -x,-y,z
3 y,-x,-z
4 -y,x,-z
5 1/2-x,y,3/4-z
6 1/2+x,-y,3/4-z
7 1/2-y,-x,3/4+z
8 1/2+y,x,3/4+z
9 1/2+x,1/2+y,1/2+z
10 1/2-x,1/2-y,1/2+z
11 1/2+y,1/2-x,1/2-z
12 1/2-y,1/2+x,1/2-z
13 -x,1/2+y,1/4-z
14 x,1/2-y,1/4-z
15 -y,1/2-x,1/4+z
16 y,1/2+x,1/4+z
_cell_length_a                   13.3735(10)
_cell_length_b                   13.3735(10)
_cell_length_c                   39.469(6)
_cell_angle_alpha                90
_cell_angle_beta                 90
_cell_angle_gamma                90
_cell_volume                     7059.05
loop_
_atom_site_label
_atom_site_type_symbol
_atom_site_fract_x
_atom_site_fract_y
_atom_site_fract_z
Ag1 Ag 0.0000 0.5000 0.09753(2)
Ag2 Ag -0.13998(6) 0.38493(6) 0.24432(2)
N1 N 0.0000 0.5000 0.1535(3)
N2 N -0.0485(6) 0.5189(6) 0.2072(2)
N3 N 0.0092(7) 0.6322(5) 0.0608(2)
N4 N -0.0346(6) 0.7434(6) 0.0215(2)
N5 N 0.0613(6) 0.7627(6) 0.0305(2)
C1 C -0.0713(8) 0.5280(8) 0.1750(3)
C2 C -0.1695(9) 0.5728(10) 0.1642(3)
C3 C -0.0609(8) 0.6673(8) 0.0402(3)
C4 C 0.0839(8) 0.6957(8) 0.0535(3)
C5 C 0.1857(11) 0.6931(10) 0.0703(4)
C6 C -0.1630(9) 0.6205(10) 0.0372(3)
F1 F -0.1575(7) 0.6641(8) 0.1525(3)
F2 F -0.2080(6) 0.5242(8) 0.1391(2)
F3 F -0.2315(6) 0.5826(9) 0.1885(2)
F4 F 0.2157(8) 0.7811(6) 0.0783(3)
F5 F 0.2558(8) 0.6651(12) 0.0477(3)
F6 F 0.1929(7) 0.6310(7) 0.0933(3)
F7 F -0.1985(7) 0.5944(10) 0.0664(3)
F8 F -0.1567(8) 0.5335(8) 0.0207(3)
F9 F -0.2261(6) 0.6737(7) 0.0211(3)
Ag2A Ag 0.13998(6) 0.61507(6) 0.24432(2)
Ag2J Ag -0.11507(6) 0.63998(6) 0.25568(2)
Ag2G Ag -0.11507(6) 0.86002(6) -0.00568(2)
Ag2L Ag 0.13998(6) 0.88493(6) 0.00568(2)
Ag2K Ag 0.11507(6) 0.36002(6) 0.25568(2)
Ag2F Ag 0.11507(6) 0.13998(6) -0.00568(2)
Ag2M Ag -0.13998(6) 0.11507(6) 0.00568(2)
N2A N 0.0485(6) 0.4811(6) 0.2072(2)
N2K N -0.0189(6) 0.4515(6) 0.2928(2)
N2J N 0.0189(6) 0.5485(6) 0.2928(2)
N3A N -0.0092(7) 0.3678(5) 0.0608(2)
N4A N 0.0346(6) 0.2566(6) 0.0215(2)
N4O N -0.2566(6) 0.4654(6) 0.2715(2)
N4N N 0.2566(6) 0.5346(6) 0.2715(2)
N5A N -0.0613(6) 0.2373(6) 0.0305(2)
N5L N -0.0613(6) 0.2627(6) 0.2195(2)
N5M N 0.0613(6) 0.7373(6) 0.2195(2)
C1A C 0.0713(8) 0.4720(8) 0.1750(3)
C2A C 0.1695(9) 0.4272(10) 0.1642(3)
C3A C 0.0609(8) 0.3327(8) 0.0402(3)
C4A C -0.0839(8) 0.3043(8) 0.0535(3)
C5A C -0.1857(11) 0.3069(10) 0.0703(4)
C6A C 0.1630(9) 0.3795(10) 0.0372(3)
F1A F 0.1575(7) 0.3359(8) 0.1525(3)
F2A F 0.2080(6) 0.4758(8) 0.1391(2)
F3A F 0.2315(6) 0.4174(9) 0.1885(2)
F4A F -0.2157(8) 0.2189(6) 0.0783(3)
F5A F -0.2558(8) 0.3349(12) 0.0477(3)
F6A F -0.1929(7) 0.3690(7) 0.0933(3)
F7A F 0.1985(7) 0.4056(10) 0.0664(3)
F8A F 0.1567(8) 0.4665(8) 0.0207(3)
F9A F 0.2261(6) 0.3263(7) 0.0211(3)
N6 N -0.039(4) 0.510(15) -0.049(2)
N6A N 0.039(4) 0.490(15) -0.049(2)
loop_
_geom_bond_atom_site_label_1
_geom_bond_atom_site_label_2
_geom_bond_site_symmetry_1
_geom_bond_site_symmetry_2
Ag1 N1 1_555 1_555
Ag2 N2 1_555 1_555
N1 C1 1_555 1_555
N2 C1 1_555 1_555
N3 Ag1 1_555 1_555
N4 N5 1_555 1_555
N5 C4 1_555 1_555
C1 C2 1_555 1_555
C2 F1 1_555 1_555
C3 N3 1_555 1_555
C4 N3 1_555 1_555
C5 C4 1_555 1_555
C6 C3 1_555 1_555
F2 C2 1_555 1_555
F3 C2 1_555 1_555
F4 C5 1_555 1_555
F5 C5 1_555 1_555
F6 C5 1_555 1_555
F7 C6 1_555 1_555
F8 C6 1_555 1_555
F9 C6 1_555 1_555
N6 N6A 1_555 1_555
Ag2A N2A 1_555 1_555
Ag2J N2 1_555 1_555
Ag2G N4 1_555 1_555
Ag2L N5 1_555 1_555
Ag2K N2A 1_555 1_555
Ag2F N4A 1_555 1_555
Ag2M N5A 1_555 1_555
N2A N2 1_555 1_555
N2K Ag2 1_555 1_555
N2J Ag2A 1_555 1_555
N3A Ag1 1_555 1_555
N4A N5A 1_555 1_555
N4O Ag2 1_555 1_555
N4N Ag2A 1_555 1_555
N5A C4A 1_555 1_555
N5L Ag2 1_555 1_555
N5M Ag2A 1_555 1_555
C1A N1 1_555 1_555
C2A C1A 1_555 1_555
C3A N3A 1_555 1_555
C4A N3A 1_555 1_555
C5A C4A 1_555 1_555
C6A C3A 1_555 1_555
F1A C2A 1_555 1_555
F2A C2A 1_555 1_555
F3A C2A 1_555 1_555
F4A C5A 1_555 1_555
F5A C5A 1_555 1_555
F6A C5A 1_555 1_555
F7A C6A 1_555 1_555
F8A C6A 1_555 1_555
F9A C6A 1_555 1_555
N4 C3 1_555 1_555
Ag2J N2J 1_555 1_555
Ag2K N2K 1_555 1_555
N2A C1A 1_555 1_555
N2K N2J 1_555 1_555
N4A C3A 1_555 1_555

#END
