
#######################################################################
#
#                 Cambridge Crystallographic Data Centre
#                                CCDC 
#
#######################################################################
#
# If this CIF has been generated from an entry in the Cambridge 
# Structural Database, then it will include bibliographic, chemical, 
# crystal, experimental, refinement or atomic coordinate data resulting 
# from the CCDC's data processing and validation procedures.
#
#######################################################################

data_COWTOY
_symmetry_cell_setting           monoclinic
_symmetry_space_group_name_H-M   'P 21/c'
_symmetry_Int_Tables_number      14
_space_group_name_Hall           '-P 2ybc'
loop_
_symmetry_equiv_pos_site_id
_symmetry_equiv_pos_as_xyz
1 x,y,z
2 -x,1/2+y,1/2-z
3 -x,-y,-z
4 x,1/2-y,1/2+z
_cell_length_a                   9.8755(5)
_cell_length_b                   13.9423(9)
_cell_length_c                   7.0743(4)
_cell_angle_alpha                90
_cell_angle_beta                 98.677(1)
_cell_angle_gamma                90
_cell_volume                     962.892
loop_
_atom_site_label
_atom_site_type_symbol
_atom_site_fract_x
_atom_site_fract_y
_atom_site_fract_z
Ni1 Ni 0.5000 0.5000 0.5000
O1 O 0.4791(2) 0.35448(16) 0.5220(3)
O2 O 0.5445(3) 0.14514(17) 0.5030(3)
O3 O 0.8245(3) 0.13067(17) 0.4291(4)
O4 O 0.9379(3) 0.3277(2) 0.4232(4)
O5 O 0.7111(3) 0.45962(16) 0.4708(4)
O6 O 0.5637(3) 0.51316(16) 0.7815(3)
H1 H 0.559(4) 0.4565(17) 0.855(5)
H2 H 0.516(4) 0.564(2) 0.833(5)
C1 C 0.5899(3) 0.3150(2) 0.4978(4)
C2 C 0.6224(3) 0.2144(2) 0.4882(4)
C3 C 0.7652(3) 0.2062(2) 0.4523(4)
C4 C 0.8213(3) 0.3045(2) 0.4460(5)
C5 C 0.7103(3) 0.3697(2) 0.4734(4)
Cu1 Cu 1.0000 0.0000 0.5000
N1 N 1.0834(3) 0.0481(2) 0.2760(4)
H3 H 1.1026 -0.0017 0.2034
H4 H 1.0239 0.0869 0.2036
N2 N 1.1317(3) 0.0898(2) 0.6536(5)
H5 H 1.0884 0.1230 0.7358
H6 H 1.2002 0.0563 0.7217
C6 C 1.2098(4) 0.1009(3) 0.3468(6)
H7 H 1.2320 0.1444 0.2489
H8 H 1.2853 0.0564 0.3783
C7 C 1.1880(5) 0.1568(3) 0.5223(7)
H9 H 1.2742 0.1834 0.5842
H10 H 1.1245 0.2091 0.4873
Ni1_2 Ni 1.5000 -0.5000 0.5000
O1B O 1.5209(2) -0.35448(16) 0.4780(3)
O1B_2 O 0.5209(2) 0.64552(16) 0.4780(3)
O2B O 1.4555(3) -0.14514(17) 0.4970(3)
O3B O 1.1755(3) -0.13067(17) 0.5709(4)
O4B O 1.0621(3) -0.3277(2) 0.5768(4)
O5B O 1.2889(3) -0.45962(16) 0.5292(4)
O5B_2 O 0.2889(3) 0.54038(16) 0.5292(4)
O6B O 0.4363(3) 0.48684(16) 0.2185(3)
H1B H 0.441(4) 0.5435(17) 0.145(5)
H2B H 0.484(4) 0.436(2) 0.167(5)
C1B C 1.4101(3) -0.3150(2) 0.5022(4)
C2B C 1.3776(3) -0.2144(2) 0.5118(4)
C3B C 1.2348(3) -0.2062(2) 0.5477(4)
C4B C 1.1787(3) -0.3045(2) 0.5540(5)
C5B C 1.2897(3) -0.3697(2) 0.5266(4)
N1B N 0.9166(3) -0.0481(2) 0.7240(4)
H3B H 0.8974 0.0017 0.7966
H4B H 0.9761 -0.0869 0.7964
N2B N 0.8683(3) -0.0898(2) 0.3464(5)
H5B H 0.9116 -0.1230 0.2642
H6B H 0.7998 -0.0563 0.2783
C6B C 0.7902(4) -0.1009(3) 0.6532(6)
H7B H 0.7680 -0.1444 0.7511
H8B H 0.7147 -0.0564 0.6217
C7B C 0.8120(5) -0.1568(3) 0.4777(7)
H9B H 0.7258 -0.1834 0.4158
H10B H 0.8755 -0.2091 0.5127
loop_
_geom_bond_atom_site_label_1
_geom_bond_atom_site_label_2
_geom_bond_site_symmetry_1
_geom_bond_site_symmetry_2
Ni1 O1 1_555 1_555
O1 C1 1_555 1_555
O2 C2 1_555 1_555
O3 C3 1_555 1_555
O4 C4 1_555 1_555
O5 Ni1 1_555 1_555
O6 Ni1 1_555 1_555
H1 O6 1_555 1_555
H2 O6 1_555 1_555
C1 C2 1_555 1_555
C2 C3 1_555 1_555
C3 C4 1_555 1_555
C4 C5 1_555 1_555
C5 O5 1_555 1_555
Cu1 O3 1_555 1_555
N1 Cu1 1_555 1_555
H3 N1 1_555 1_555
H4 N1 1_555 1_555
N2 Cu1 1_555 1_555
H5 N2 1_555 1_555
H6 N2 1_555 1_555
C6 N1 1_555 1_555
H7 C6 1_555 1_555
H8 C6 1_555 1_555
C7 N2 1_555 1_555
H9 C7 1_555 1_555
H10 C7 1_555 1_555
Ni1_2 O1B 1_555 1_555
O1B C1B 1_555 1_555
O1B_2 Ni1 1_555 1_555
O2B C2B 1_555 1_555
O3B Cu1 1_555 1_555
O4B C4B 1_555 1_555
O5B Ni1_2 1_555 1_555
O5B_2 Ni1 1_555 1_555
O6B Ni1 1_555 1_555
H1B O6B 1_555 1_555
H2B O6B 1_555 1_555
C1B C2B 1_555 1_555
C2B C3B 1_555 1_555
C3B O3B 1_555 1_555
C4B C3B 1_555 1_555
C5B O5B 1_555 1_555
N1B Cu1 1_555 1_555
H3B N1B 1_555 1_555
H4B N1B 1_555 1_555
N2B Cu1 1_555 1_555
H5B N2B 1_555 1_555
H6B N2B 1_555 1_555
C6B N1B 1_555 1_555
H7B C6B 1_555 1_555
H8B C6B 1_555 1_555
C7B N2B 1_555 1_555
H9B C7B 1_555 1_555
H10B C7B 1_555 1_555
C1 C5 1_555 1_555
C6 C7 1_555 1_555
C1B C5B 1_555 1_555
C4B C5B 1_555 1_555
C6B C7B 1_555 1_555

#END
