
#######################################################################
#
#                 Cambridge Crystallographic Data Centre
#                                CCDC 
#
#######################################################################
#
# If this CIF has been generated from an entry in the Cambridge 
# Structural Database, then it will include bibliographic, chemical, 
# crystal, experimental, refinement or atomic coordinate data resulting 
# from the CCDC's data processing and validation procedures.
#
#######################################################################

data_COWTIS
_symmetry_cell_setting           triclinic
_symmetry_space_group_name_H-M   'P -1'
_symmetry_Int_Tables_number      2
_space_group_name_Hall           '-P 1'
loop_
_symmetry_equiv_pos_site_id
_symmetry_equiv_pos_as_xyz
1 x,y,z
2 -x,-y,-z
_cell_length_a                   7.1591(2)
_cell_length_b                   8.4702(2)
_cell_length_c                   9.3530(2)
_cell_angle_alpha                101.792(1)
_cell_angle_beta                 106.691(1)
_cell_angle_gamma                109.665(1)
_cell_volume                     482.249
loop_
_atom_site_label
_atom_site_type_symbol
_atom_site_fract_x
_atom_site_fract_y
_atom_site_fract_z
Cu1 Cu 0.0000 0.0000 0.0000
Co1 Co 0.0000 -0.5000 0.5000
O1 O 0.2487(5) -0.2530(4) 0.6672(3)
O2 O -0.0319(5) -0.3329(4) 0.3596(3)
O3 O 0.0613(5) 0.0077(4) 0.2783(3)
O4 O 0.4290(5) 0.2836(4) 0.5475(4)
O5 O 0.5494(5) 0.1323(4) 0.7998(4)
O6 O 0.2050(5) -0.5533(4) 0.4038(4)
H1 H 0.256(9) -0.630(6) 0.446(6)
H2 H 0.311(7) -0.443(4) 0.415(7)
N1 N 0.0021(6) -0.2426(5) -0.0474(4)
H3 H 0.0061 -0.2777 -0.1458
H4 H 0.1219 -0.2389 0.0265
N2 N -0.3138(6) -0.1337(5) -0.0431(4)
H5 H -0.3956 -0.0948 -0.1100
H6 H -0.3352 -0.1134 0.0501
C1 C 0.2582(7) -0.1362(5) 0.6010(5)
C2 C 0.1101(6) -0.1783(5) 0.4399(5)
C3 C 0.1578(6) -0.0141(6) 0.4012(5)
C4 C 0.3435(6) 0.1260(5) 0.5394(5)
C5 C 0.4061(6) 0.0522(6) 0.6660(5)
C6 C -0.1957(8) -0.3707(6) -0.0426(5)
H7 H -0.1759 -0.3624 0.0683
H8 H -0.2266 -0.4937 -0.1020
C7 C -0.3795(7) -0.3256(6) -0.1163(6)
H9 H -0.5078 -0.3954 -0.0989
H10 H -0.4167 -0.3554 -0.2319
Co1_2 Co 0.0000 0.5000 -0.5000
O1A O -0.2487(5) 0.2530(4) -0.6672(3)
O1A_2 O -0.2487(5) -0.7470(4) 0.3328(3)
O2A O 0.0319(5) 0.3329(4) -0.3596(3)
O2A_2 O 0.0319(5) -0.6671(4) 0.6404(3)
O3A O -0.0613(5) -0.0077(4) -0.2783(3)
O4A O -0.4290(5) -0.2836(4) -0.5475(4)
O5A O -0.5494(5) -0.1323(4) -0.7998(4)
O6A O -0.2050(5) -0.4467(4) 0.5962(4)
H1A H -0.256(9) -0.370(6) 0.554(6)
H2A H -0.311(7) -0.557(4) 0.585(7)
N1A N -0.0021(6) 0.2426(5) 0.0474(4)
H3A H -0.0061 0.2777 0.1458
H4A H -0.1219 0.2389 -0.0265
N2A N 0.3138(6) 0.1337(5) 0.0431(4)
H5A H 0.3956 0.0948 0.1100
H6A H 0.3352 0.1134 -0.0501
C1A C -0.2582(7) 0.1362(5) -0.6010(5)
C2A C -0.1101(6) 0.1783(5) -0.4399(5)
C3A C -0.1578(6) 0.0141(6) -0.4012(5)
C4A C -0.3435(6) -0.1260(5) -0.5394(5)
C5A C -0.4061(6) -0.0522(6) -0.6660(5)
C6A C 0.1957(8) 0.3707(6) 0.0426(5)
H7A H 0.1759 0.3624 -0.0683
H8A H 0.2266 0.4937 0.1020
C7A C 0.3795(7) 0.3256(6) 0.1163(6)
H9A H 0.5078 0.3954 0.0989
H10A H 0.4167 0.3554 0.2319
loop_
_geom_bond_atom_site_label_1
_geom_bond_atom_site_label_2
_geom_bond_site_symmetry_1
_geom_bond_site_symmetry_2
Cu1 O3 1_555 1_555
Co1 O1 1_555 1_555
O1 C1 1_555 1_555
O2 Co1 1_555 1_555
O3 C3 1_555 1_555
O4 C4 1_555 1_555
O5 C5 1_555 1_555
O6 Co1 1_555 1_555
H1 O6 1_555 1_555
H2 O6 1_555 1_555
N1 Cu1 1_555 1_555
H3 N1 1_555 1_555
H4 N1 1_555 1_555
N2 Cu1 1_555 1_555
H5 N2 1_555 1_555
H6 N2 1_555 1_555
C1 C2 1_555 1_555
C2 O2 1_555 1_555
C3 C2 1_555 1_555
C4 C3 1_555 1_555
C5 C1 1_555 1_555
C6 N1 1_555 1_555
H7 C6 1_555 1_555
H8 C6 1_555 1_555
C7 N2 1_555 1_555
H9 C7 1_555 1_555
H10 C7 1_555 1_555
Co1_2 O1A 1_555 1_555
O1A C1A 1_555 1_555
O1A_2 Co1 1_555 1_555
O2A Co1_2 1_555 1_555
O2A_2 Co1 1_555 1_555
O3A Cu1 1_555 1_555
O4A C4A 1_555 1_555
O5A C5A 1_555 1_555
O6A Co1 1_555 1_555
H1A O6A 1_555 1_555
H2A O6A 1_555 1_555
N1A Cu1 1_555 1_555
H3A N1A 1_555 1_555
H4A N1A 1_555 1_555
N2A Cu1 1_555 1_555
H5A N2A 1_555 1_555
H6A N2A 1_555 1_555
C1A C2A 1_555 1_555
C2A O2A 1_555 1_555
C3A O3A 1_555 1_555
C4A C3A 1_555 1_555
C5A C1A 1_555 1_555
C6A N1A 1_555 1_555
H7A C6A 1_555 1_555
H8A C6A 1_555 1_555
C7A N2A 1_555 1_555
H9A C7A 1_555 1_555
H10A C7A 1_555 1_555
C4 C5 1_555 1_555
C6 C7 1_555 1_555
C2A C3A 1_555 1_555
C4A C5A 1_555 1_555
C6A C7A 1_555 1_555

#END
