
#######################################################################
#
#                 Cambridge Crystallographic Data Centre
#                                CCDC 
#
#######################################################################
#
# If this CIF has been generated from an entry in the Cambridge 
# Structural Database, then it will include bibliographic, chemical, 
# crystal, experimental, refinement or atomic coordinate data resulting 
# from the CCDC's data processing and validation procedures.
#
#######################################################################

data_COWTUF
_symmetry_cell_setting           triclinic
_symmetry_space_group_name_H-M   'P -1'
_symmetry_Int_Tables_number      2
_space_group_name_Hall           '-P 1'
loop_
_symmetry_equiv_pos_site_id
_symmetry_equiv_pos_as_xyz
1 x,y,z
2 -x,-y,-z
_cell_length_a                   9.0790(10)
_cell_length_b                   11.0140(15)
_cell_length_c                   14.898(3)
_cell_angle_alpha                73.854(13)
_cell_angle_beta                 82.870(13)
_cell_angle_gamma                68.830(9)
_cell_volume                     1333.94
loop_
_atom_site_label
_atom_site_type_symbol
_atom_site_fract_x
_atom_site_fract_y
_atom_site_fract_z
Mn1 Mn 0.5000 0.5000 0.5000
Mn2 Mn 0.0000 1.0000 0.5000
N1 N 0.90192(19) 0.15632(15) 0.57374(10)
C1 C 0.82286(19) 0.24959(17) 0.59931(11)
S1 S 0.71002(5) 0.38139(4) 0.63609(3)
N2 N 0.38910(18) 0.65112(15) 0.57622(10)
C2 C 0.32508(19) 0.75181(17) 0.59617(11)
S2 S 0.23578(6) 0.89511(5) 0.62431(3)
N3 N 0.64683(17) 0.62397(14) 0.41655(9)
C3 C 0.7953(2) 0.56432(19) 0.39027(13)
H1 H 0.8419 0.4697 0.4134
C4 C 0.8848(2) 0.63282(19) 0.33124(12)
H2 H 0.9904 0.5855 0.3148
C5 C 0.8205(2) 0.77057(18) 0.29596(11)
C6 C 0.6659(2) 0.83295(18) 0.32342(12)
H3 H 0.6164 0.9274 0.3010
C7 C 0.5844(2) 0.75779(18) 0.38307(12)
H4 H 0.4790 0.8027 0.4014
C8 C 0.9120(2) 0.8502(2) 0.22969(12)
H5 H 1.0212 0.7891 0.2223
H6 H 0.9181 0.9197 0.2579
C9 C 0.8416(2) 0.91852(19) 0.13379(11)
C10 C 0.7796(3) 0.8541(2) 0.08822(12)
H7 H 0.7768 0.7669 0.1189
C11 C 0.7219(3) 0.9147(2) -0.00108(13)
H8 H 0.6800 0.8697 -0.0316
C12 C 0.7262(3) 1.0408(2) -0.04482(12)
C13 C 0.7850(2) 1.1074(2) -0.00149(13)
H9 H 0.7868 1.1948 -0.0325
C14 C 0.8420(2) 1.04597(19) 0.08814(13)
H10 H 0.8820 1.0924 0.1186
Cl1 Cl 0.65484(9) 1.11871(7) -0.15768(4)
N4 N -0.13556(19) 0.87805(15) 0.59683(10)
C15 C -0.1879(3) 0.7957(2) 0.56856(13)
H11 H -0.1670 0.7899 0.5055
C16 C -0.2701(3) 0.7195(2) 0.62566(13)
H12 H -0.3041 0.6628 0.6018
C17 C -0.3032(2) 0.7251(2) 0.71743(13)
C18 C -0.2495(3) 0.8099(3) 0.74647(14)
H13 H -0.2686 0.8172 0.8092
C19 C -0.1686(3) 0.8837(2) 0.68536(13)
H14 H -0.1344 0.9419 0.7075
C20 C -0.3956(3) 0.6436(3) 0.78141(14)
H15 H -0.3883 0.5678 0.7557
H16 H -0.5082 0.7011 0.7821
C21 C -0.3392(2) 0.5880(2) 0.88085(13)
C22 C -0.4254(3) 0.6402(2) 0.95224(14)
H17 H -0.5218 0.7137 0.9387
C23 C -0.3755(3) 0.5888(3) 1.04344(15)
H18 H -0.4369 0.6261 1.0920
C24 C -0.2368(3) 0.4837(3) 1.06260(15)
C25 C -0.1465(3) 0.4296(3) 0.99275(18)
H19 H -0.0492 0.3572 1.0064
C26 C -0.1992(3) 0.4821(2) 0.90279(16)
H20 H -0.1376 0.4445 0.8544
Cl2 Cl -0.17456(14) 0.41561(12) 1.17745(5)
N2A N -0.38910(18) 1.34888(15) 0.42378(10)
C2A C -0.32508(19) 1.24819(17) 0.40383(11)
S2A S -0.23578(6) 1.10489(5) 0.37569(3)
N4A N 0.13556(19) 1.12195(15) 0.40317(10)
C15A C 0.1879(3) 1.2043(2) 0.43144(13)
H11A H 0.1670 1.2101 0.4945
C16A C 0.2701(3) 1.2805(2) 0.37434(13)
H12A H 0.3041 1.3372 0.3982
C17A C 0.3032(2) 1.2749(2) 0.28257(13)
C18A C 0.2495(3) 1.1901(3) 0.25353(14)
H13A H 0.2686 1.1828 0.1908
C19A C 0.1686(3) 1.1163(2) 0.31464(13)
H14A H 0.1344 1.0581 0.2925
C20A C 0.3956(3) 1.3564(3) 0.21859(14)
H15A H 0.3883 1.4322 0.2443
H16A H 0.5082 1.2989 0.2179
C21A C 0.3392(2) 1.4120(2) 0.11915(13)
C22A C 0.4254(3) 1.3598(2) 0.04776(14)
H17A H 0.5218 1.2863 0.0613
C23A C 0.3755(3) 1.4112(3) -0.04344(15)
H18A H 0.4369 1.3739 -0.0920
C24A C 0.2368(3) 1.5163(3) -0.06260(15)
C25A C 0.1465(3) 1.5704(3) 0.00725(18)
H19A H 0.0492 1.6428 -0.0064
C26A C 0.1992(3) 1.5179(2) 0.09721(16)
H20A H 0.1376 1.5555 0.1456
Cl2A Cl 0.17456(14) 1.58439(12) -0.17745(5)
N3A N 0.35317(17) 0.37603(14) 0.58345(9)
C3A C 0.2047(2) 0.43568(19) 0.60973(13)
H1A H 0.1581 0.5303 0.5866
C4A C 0.1152(2) 0.36718(19) 0.66876(12)
H2A H 0.0096 0.4145 0.6852
C5A C 0.1795(2) 0.22943(18) 0.70404(11)
C6A C 0.3341(2) 0.16705(18) 0.67658(12)
H3A H 0.3836 0.0726 0.6990
C7A C 0.4156(2) 0.24221(18) 0.61693(12)
H4A H 0.5210 0.1973 0.5986
C8A C 0.0880(2) 0.1498(2) 0.77031(12)
H5A H -0.0212 0.2109 0.7777
H6A H 0.0819 0.0803 0.7421
C9A C 0.1584(2) 0.08148(19) 0.86621(11)
C10A C 0.2204(3) 0.1459(2) 0.91178(12)
H7A H 0.2232 0.2331 0.8811
C11A C 0.2781(3) 0.0853(2) 1.00108(13)
H8A H 0.3200 0.1303 1.0316
C12A C 0.2738(3) -0.0408(2) 1.04482(12)
C13A C 0.2150(2) -0.1074(2) 1.00149(13)
H9A H 0.2132 -0.1948 1.0325
C14A C 0.1580(2) -0.04597(19) 0.91186(13)
H10A H 0.1180 -0.0924 0.8814
Cl1A Cl 0.34516(9) -0.11871(7) 1.15768(4)
N1A N 0.09808(19) 0.84368(15) 0.42626(10)
C1A C 0.17714(19) 0.75041(17) 0.40069(11)
S1A S 0.28998(5) 0.61861(4) 0.36391(3)
Mn1_2 Mn -0.5000 1.5000 0.5000
Mn2_2 Mn 1.0000 0.0000 0.5000
N1_2 N -0.09808(19) 1.15632(15) 0.57374(10)
N2A_2 N 0.61090(18) 0.34888(15) 0.42378(10)
loop_
_geom_bond_atom_site_label_1
_geom_bond_atom_site_label_2
_geom_bond_site_symmetry_1
_geom_bond_site_symmetry_2
Mn1 S1 1_555 1_555
Mn2 S2 1_555 1_555
N1 C1 1_555 1_555
C1 S1 1_555 1_555
N2 Mn1 1_555 1_555
C2 N2 1_555 1_555
S2 C2 1_555 1_555
N3 Mn1 1_555 1_555
C3 N3 1_555 1_555
H1 C3 1_555 1_555
C4 C3 1_555 1_555
H2 C4 1_555 1_555
C5 C4 1_555 1_555
C6 C5 1_555 1_555
H3 C6 1_555 1_555
C7 N3 1_555 1_555
H4 C7 1_555 1_555
C8 C5 1_555 1_555
H5 C8 1_555 1_555
H6 C8 1_555 1_555
C9 C8 1_555 1_555
C10 C9 1_555 1_555
H7 C10 1_555 1_555
C11 C10 1_555 1_555
H8 C11 1_555 1_555
C12 C11 1_555 1_555
C13 C12 1_555 1_555
H9 C13 1_555 1_555
C14 C9 1_555 1_555
H10 C14 1_555 1_555
Cl1 C12 1_555 1_555
N4 Mn2 1_555 1_555
C15 N4 1_555 1_555
H11 C15 1_555 1_555
C16 C15 1_555 1_555
H12 C16 1_555 1_555
C17 C16 1_555 1_555
C18 C17 1_555 1_555
H13 C18 1_555 1_555
C19 N4 1_555 1_555
H14 C19 1_555 1_555
C20 C17 1_555 1_555
H15 C20 1_555 1_555
H16 C20 1_555 1_555
C21 C20 1_555 1_555
C22 C21 1_555 1_555
H17 C22 1_555 1_555
C23 C22 1_555 1_555
H18 C23 1_555 1_555
C24 C23 1_555 1_555
C25 C24 1_555 1_555
H19 C25 1_555 1_555
C26 C21 1_555 1_555
H20 C26 1_555 1_555
Cl2 C24 1_555 1_555
N2A C2A 1_555 1_555
C2A S2A 1_555 1_555
S2A Mn2 1_555 1_555
N4A Mn2 1_555 1_555
C15A N4A 1_555 1_555
H11A C15A 1_555 1_555
C16A C15A 1_555 1_555
H12A C16A 1_555 1_555
C17A C16A 1_555 1_555
C18A C17A 1_555 1_555
H13A C18A 1_555 1_555
C19A N4A 1_555 1_555
H14A C19A 1_555 1_555
C20A C17A 1_555 1_555
H15A C20A 1_555 1_555
H16A C20A 1_555 1_555
C21A C20A 1_555 1_555
C22A C21A 1_555 1_555
H17A C22A 1_555 1_555
C23A C22A 1_555 1_555
H18A C23A 1_555 1_555
C24A C23A 1_555 1_555
C25A C24A 1_555 1_555
H19A C25A 1_555 1_555
C26A C21A 1_555 1_555
H20A C26A 1_555 1_555
Cl2A C24A 1_555 1_555
N3A Mn1 1_555 1_555
C3A N3A 1_555 1_555
H1A C3A 1_555 1_555
C4A C3A 1_555 1_555
H2A C4A 1_555 1_555
C5A C4A 1_555 1_555
C6A C5A 1_555 1_555
H3A C6A 1_555 1_555
C7A N3A 1_555 1_555
H4A C7A 1_555 1_555
C8A C5A 1_555 1_555
H5A C8A 1_555 1_555
H6A C8A 1_555 1_555
C9A C8A 1_555 1_555
C10A C9A 1_555 1_555
H7A C10A 1_555 1_555
C11A C10A 1_555 1_555
H8A C11A 1_555 1_555
C12A C11A 1_555 1_555
C13A C12A 1_555 1_555
H9A C13A 1_555 1_555
C14A C9A 1_555 1_555
H10A C14A 1_555 1_555
Cl1A C12A 1_555 1_555
N1A Mn2 1_555 1_555
C1A N1A 1_555 1_555
S1A Mn1 1_555 1_555
Mn1_2 N2A 1_555 1_555
Mn2_2 N1 1_555 1_555
N1_2 Mn2 1_555 1_555
N2A_2 Mn1 1_555 1_555
C6 C7 1_555 1_555
C13 C14 1_555 1_555
C18 C19 1_555 1_555
C25 C26 1_555 1_555
C18A C19A 1_555 1_555
C25A C26A 1_555 1_555
C6A C7A 1_555 1_555
C13A C14A 1_555 1_555
C1A S1A 1_555 1_555

#END
