
#######################################################################
#
#                 Cambridge Crystallographic Data Centre
#                                CCDC 
#
#######################################################################
#
# If this CIF has been generated from an entry in the Cambridge 
# Structural Database, then it will include bibliographic, chemical, 
# crystal, experimental, refinement or atomic coordinate data resulting 
# from the CCDC's data processing and validation procedures.
#
#######################################################################

data_COWTEO
_symmetry_cell_setting           monoclinic
_symmetry_space_group_name_H-M   'P 21/c'
_symmetry_Int_Tables_number      14
_space_group_name_Hall           '-P 2ybc'
loop_
_symmetry_equiv_pos_site_id
_symmetry_equiv_pos_as_xyz
1 x,y,z
2 -x,1/2+y,1/2-z
3 -x,-y,-z
4 x,1/2-y,1/2+z
_cell_length_a                   13.0699(7)
_cell_length_b                   13.0660(7)
_cell_length_c                   7.0103(4)
_cell_angle_alpha                90
_cell_angle_beta                 101.104(1)
_cell_angle_gamma                90
_cell_volume                     1174.75
loop_
_atom_site_label
_atom_site_type_symbol
_atom_site_fract_x
_atom_site_fract_y
_atom_site_fract_z
Cu1 Cu 0.0000 0.0000 0.0000
Mn1 Mn 0.5000 0.5000 0.0000
O1 O 0.40982(14) 0.36555(14) 0.0197(3)
O2 O 0.21609(16) 0.48076(14) 0.0382(3)
O3 O 0.05345(15) 0.33260(17) 0.0573(3)
O4 O 0.14562(16) 0.12614(16) 0.0642(4)
O5 O 0.36275(15) 0.15117(14) 0.0206(3)
O6 O 0.5890(2) 0.47366(16) 0.2864(3)
H1 H 0.576(3) 0.418(2) 0.366(5)
H2 H 0.609(3) 0.532(2) 0.363(5)
O7 O 0.61558(15) 0.39548(15) -0.0980(3)
H3 H 0.6779(16) 0.434(2) -0.091(5)
H4 H 0.605(3) 0.373(3) -0.229(2)
N1 N 0.07295(18) -0.0602(2) -0.2001(4)
H7 H 0.0327 -0.1084 -0.2693
H8 H 0.0861 -0.0112 -0.2823
N2 N 0.09321(19) -0.09148(19) 0.1873(4)
H9 H 0.1372 -0.0534 0.2736
H10 H 0.0547 -0.1302 0.2529
C1 C 0.32187(18) 0.32990(18) 0.0293(4)
C2 C 0.22771(19) 0.38588(19) 0.0388(4)
C3 C 0.1450(2) 0.3113(2) 0.0503(4)
C4 C 0.18994(19) 0.2077(2) 0.0511(4)
C5 C 0.29967(19) 0.22052(18) 0.0326(4)
C6 C 0.1712(3) -0.1058(3) -0.0976(6)
H11 H 0.1969 -0.1543 -0.1820
H12 H 0.2233 -0.0527 -0.0624
C7 C 0.1532(3) -0.1581(3) 0.0775(6)
H13 H 0.2196 -0.1756 0.1591
H14 H 0.1149 -0.2210 0.0415
Mn1_2 Mn -0.5000 -0.5000 0.0000
O1B O -0.40982(14) -0.36555(14) -0.0197(3)
O1B_2 O 0.59018(14) 0.63445(14) -0.0197(3)
O2B O -0.21609(16) -0.48076(14) -0.0382(3)
O3B O -0.05345(15) -0.33260(17) -0.0573(3)
O4B O -0.14562(16) -0.12614(16) -0.0642(4)
O5B O -0.36275(15) -0.15117(14) -0.0206(3)
O6B O 0.4110(2) 0.52634(16) -0.2864(3)
H1B H 0.424(3) 0.582(2) -0.366(5)
H2B H 0.391(3) 0.468(2) -0.363(5)
O7B O 0.38442(15) 0.60452(15) 0.0980(3)
H3B H 0.3221(16) 0.566(2) 0.091(5)
H4B H 0.395(3) 0.627(3) 0.229(2)
N1B N -0.07295(18) 0.0602(2) 0.2001(4)
H7B H -0.0327 0.1084 0.2693
H8B H -0.0861 0.0112 0.2823
N2B N -0.09321(19) 0.09148(19) -0.1873(4)
H9B H -0.1372 0.0534 -0.2736
H10B H -0.0547 0.1302 -0.2529
C1B C -0.32187(18) -0.32990(18) -0.0293(4)
C2B C -0.22771(19) -0.38588(19) -0.0388(4)
C3B C -0.1450(2) -0.3113(2) -0.0503(4)
C4B C -0.18994(19) -0.2077(2) -0.0511(4)
C5B C -0.29967(19) -0.22052(18) -0.0326(4)
C6B C -0.1712(3) 0.1058(3) 0.0976(6)
H11B H -0.1969 0.1543 0.1820
H12B H -0.2233 0.0527 0.0624
C7B C -0.1532(3) 0.1581(3) -0.0775(6)
H13B H -0.2196 0.1756 -0.1591
H14B H -0.1149 0.2210 -0.0415
O8 O 0.56922(16) 0.31193(15) -0.4688(3)
H5 H 0.4970(10) 0.315(3) -0.468(5)
H6 H 0.591(3) 0.2438(12) -0.487(5)
loop_
_geom_bond_atom_site_label_1
_geom_bond_atom_site_label_2
_geom_bond_site_symmetry_1
_geom_bond_site_symmetry_2
Cu1 O4 1_555 1_555
Mn1 O1 1_555 1_555
O1 C1 1_555 1_555
O2 C2 1_555 1_555
O3 C3 1_555 1_555
O4 C4 1_555 1_555
O5 C5 1_555 1_555
O6 Mn1 1_555 1_555
H1 O6 1_555 1_555
H2 O6 1_555 1_555
O7 Mn1 1_555 1_555
H3 O7 1_555 1_555
H4 O7 1_555 1_555
O8 H5 1_555 1_555
H6 O8 1_555 1_555
N1 Cu1 1_555 1_555
H7 N1 1_555 1_555
H8 N1 1_555 1_555
N2 Cu1 1_555 1_555
H9 N2 1_555 1_555
H10 N2 1_555 1_555
C1 C2 1_555 1_555
C2 C3 1_555 1_555
C3 C4 1_555 1_555
C4 C5 1_555 1_555
C5 C1 1_555 1_555
C6 N1 1_555 1_555
H11 C6 1_555 1_555
H12 C6 1_555 1_555
C7 N2 1_555 1_555
H13 C7 1_555 1_555
H14 C7 1_555 1_555
Mn1_2 O1B 1_555 1_555
O1B C1B 1_555 1_555
O1B_2 Mn1 1_555 1_555
O2B C2B 1_555 1_555
O3B C3B 1_555 1_555
O4B Cu1 1_555 1_555
O5B C5B 1_555 1_555
O6B Mn1 1_555 1_555
H1B O6B 1_555 1_555
H2B O6B 1_555 1_555
O7B Mn1 1_555 1_555
H3B O7B 1_555 1_555
H4B O7B 1_555 1_555
N1B Cu1 1_555 1_555
H7B N1B 1_555 1_555
H8B N1B 1_555 1_555
N2B Cu1 1_555 1_555
H9B N2B 1_555 1_555
H10B N2B 1_555 1_555
C1B C2B 1_555 1_555
C2B C3B 1_555 1_555
C3B C4B 1_555 1_555
C4B O4B 1_555 1_555
C5B C1B 1_555 1_555
C6B N1B 1_555 1_555
H11B C6B 1_555 1_555
H12B C6B 1_555 1_555
C7B N2B 1_555 1_555
H13B C7B 1_555 1_555
H14B C7B 1_555 1_555
C6 C7 1_555 1_555
C4B C5B 1_555 1_555
C6B C7B 1_555 1_555

#END
