
#######################################################################
#
#                 Cambridge Crystallographic Data Centre
#                                CCDC 
#
#######################################################################
#
# If this CIF has been generated from an entry in the Cambridge 
# Structural Database, then it will include bibliographic, chemical, 
# crystal, experimental, refinement or atomic coordinate data resulting 
# from the CCDC's data processing and validation procedures.
#
#######################################################################

data_COWVAM
_symmetry_cell_setting           triclinic
_symmetry_space_group_name_H-M   'P -1'
_symmetry_Int_Tables_number      2
_space_group_name_Hall           '-P 1'
loop_
_symmetry_equiv_pos_site_id
_symmetry_equiv_pos_as_xyz
1 x,y,z
2 -x,-y,-z
_cell_length_a                   7.2193(9)
_cell_length_b                   8.4640(10)
_cell_length_c                   9.3642(11)
_cell_angle_alpha                101.239(2)
_cell_angle_beta                 106.892(2)
_cell_angle_gamma                110.011(2)
_cell_volume                     486.101
loop_
_atom_site_label
_atom_site_type_symbol
_atom_site_fract_x
_atom_site_fract_y
_atom_site_fract_z
Cu1 Cu 0.0000 0.0000 0.0000
Zn1 Zn 0.0000 -0.5000 0.5000
O1 O 0.2532(3) -0.2513(3) 0.6709(2)
O2 O -0.0282(3) -0.3311(2) 0.3636(2)
O3 O 0.0648(4) 0.0077(3) 0.2815(2)
O4 O 0.4300(3) 0.2841(3) 0.5481(3)
O5 O 0.5504(3) 0.1329(3) 0.7997(3)
O6 O 0.2022(3) -0.5538(3) 0.4029(3)
H1 H 0.257(5) -0.621(4) 0.458(4)
H2 H 0.311(4) -0.447(3) 0.410(4)
N1 N 0.0030(4) -0.2410(3) -0.0465(3)
H3 H 0.0055 -0.2749 -0.1429
H4 H 0.1204 -0.2369 0.0252
N2 N -0.3104(4) -0.1349(3) -0.0420(3)
H5 H -0.3907 -0.0974 -0.1076
H6 H -0.3307 -0.1157 0.0491
C1 C 0.2612(4) -0.1356(3) 0.6040(3)
C2 C 0.1134(4) -0.1771(3) 0.4444(3)
C3 C 0.1608(4) -0.0133(3) 0.4041(3)
C4 C 0.3449(4) 0.1269(3) 0.5411(3)
C5 C 0.4073(4) 0.0528(3) 0.6669(3)
C6 C -0.1913(6) -0.3690(4) -0.0401(4)
H7 H -0.1709 -0.3604 0.0687
H8 H -0.2214 -0.4895 -0.0973
C7 C -0.3738(5) -0.3254(4) -0.1138(4)
H9 H -0.4985 -0.3951 -0.0967
H10 H -0.4103 -0.3542 -0.2267
Zn1_2 Zn 0.0000 0.5000 -0.5000
O1A O -0.2532(3) 0.2513(3) -0.6709(2)
O1A_2 O -0.2532(3) -0.7487(3) 0.3291(2)
O2A O 0.0282(3) 0.3311(2) -0.3636(2)
O2A_2 O 0.0282(3) -0.6689(2) 0.6364(2)
O3A O -0.0648(4) -0.0077(3) -0.2815(2)
O4A O -0.4300(3) -0.2841(3) -0.5481(3)
O5A O -0.5504(3) -0.1329(3) -0.7997(3)
O6A O -0.2022(3) -0.4462(3) 0.5971(3)
H1A H -0.257(5) -0.379(4) 0.542(4)
H2A H -0.311(4) -0.553(3) 0.590(4)
N1A N -0.0030(4) 0.2410(3) 0.0465(3)
H3A H -0.0055 0.2749 0.1429
H4A H -0.1204 0.2369 -0.0252
N2A N 0.3104(4) 0.1349(3) 0.0420(3)
H5A H 0.3907 0.0974 0.1076
H6A H 0.3307 0.1157 -0.0491
C1A C -0.2612(4) 0.1356(3) -0.6040(3)
C2A C -0.1134(4) 0.1771(3) -0.4444(3)
C3A C -0.1608(4) 0.0133(3) -0.4041(3)
C4A C -0.3449(4) -0.1269(3) -0.5411(3)
C5A C -0.4073(4) -0.0528(3) -0.6669(3)
C6A C 0.1913(6) 0.3690(4) 0.0401(4)
H7A H 0.1709 0.3604 -0.0687
H8A H 0.2214 0.4895 0.0973
C7A C 0.3738(5) 0.3254(4) 0.1138(4)
H9A H 0.4985 0.3951 0.0967
H10A H 0.4103 0.3542 0.2267
loop_
_geom_bond_atom_site_label_1
_geom_bond_atom_site_label_2
_geom_bond_site_symmetry_1
_geom_bond_site_symmetry_2
Cu1 O3 1_555 1_555
Zn1 O1 1_555 1_555
O1 C1 1_555 1_555
O2 Zn1 1_555 1_555
O3 C3 1_555 1_555
O4 C4 1_555 1_555
O5 C5 1_555 1_555
O6 Zn1 1_555 1_555
H1 O6 1_555 1_555
H2 O6 1_555 1_555
N1 Cu1 1_555 1_555
H3 N1 1_555 1_555
H4 N1 1_555 1_555
N2 Cu1 1_555 1_555
H5 N2 1_555 1_555
H6 N2 1_555 1_555
C1 C2 1_555 1_555
C2 O2 1_555 1_555
C3 C2 1_555 1_555
C4 C3 1_555 1_555
C5 C1 1_555 1_555
C6 N1 1_555 1_555
H7 C6 1_555 1_555
H8 C6 1_555 1_555
C7 N2 1_555 1_555
H9 C7 1_555 1_555
H10 C7 1_555 1_555
Zn1_2 O1A 1_555 1_555
O1A C1A 1_555 1_555
O1A_2 Zn1 1_555 1_555
O2A Zn1_2 1_555 1_555
O2A_2 Zn1 1_555 1_555
O3A Cu1 1_555 1_555
O4A C4A 1_555 1_555
O5A C5A 1_555 1_555
O6A Zn1 1_555 1_555
H1A O6A 1_555 1_555
H2A O6A 1_555 1_555
N1A Cu1 1_555 1_555
H3A N1A 1_555 1_555
H4A N1A 1_555 1_555
N2A Cu1 1_555 1_555
H5A N2A 1_555 1_555
H6A N2A 1_555 1_555
C1A C2A 1_555 1_555
C2A O2A 1_555 1_555
C3A O3A 1_555 1_555
C4A C3A 1_555 1_555
C5A C1A 1_555 1_555
C6A N1A 1_555 1_555
H7A C6A 1_555 1_555
H8A C6A 1_555 1_555
C7A N2A 1_555 1_555
H9A C7A 1_555 1_555
H10A C7A 1_555 1_555
C4 C5 1_555 1_555
C6 C7 1_555 1_555
C2A C3A 1_555 1_555
C4A C5A 1_555 1_555
C6A C7A 1_555 1_555

#END
