
#######################################################################
#
#                 Cambridge Crystallographic Data Centre
#                                CCDC 
#
#######################################################################
#
# If this CIF has been generated from an entry in the Cambridge 
# Structural Database, then it will include bibliographic, chemical, 
# crystal, experimental, refinement or atomic coordinate data resulting 
# from the CCDC's data processing and validation procedures.
#
#######################################################################

data_COWVOA
_symmetry_cell_setting           monoclinic
_symmetry_space_group_name_H-M   'P 21/c'
_symmetry_Int_Tables_number      14
_space_group_name_Hall           '-P 2ybc'
loop_
_symmetry_equiv_pos_site_id
_symmetry_equiv_pos_as_xyz
1 x,y,z
2 -x,1/2+y,1/2-z
3 -x,-y,-z
4 x,1/2-y,1/2+z
_cell_length_a                   12.2775(18)
_cell_length_b                   6.8941(10)
_cell_length_c                   23.769(4)
_cell_angle_alpha                90
_cell_angle_beta                 95.294(3)
_cell_angle_gamma                90
_cell_volume                     2003.28
loop_
_atom_site_label
_atom_site_type_symbol
_atom_site_fract_x
_atom_site_fract_y
_atom_site_fract_z
Cu1 Cu 0.80275(11) 0.6387(2) 0.81245(6)
Sm1 Sm 0.61985(4) 0.66119(7) 0.96680(2)
Sm2 Sm 0.79072(4) 0.90655(8) 1.13469(2)
C1 C 0.4565(8) 0.3135(14) 0.8985(4)
C2 C 0.5301(8) 0.3690(14) 0.8558(5)
C3 C 0.5318(8) 0.3155(14) 0.7996(5)
H1 H 0.4839 0.2328 0.7786
C4 C 0.6198(9) 0.4118(15) 0.7821(5)
C5 C 0.6743(8) 0.4304(14) 0.7297(4)
C6 C 1.0184(9) 0.7374(15) 0.8433(5)
C7 C 0.9633(8) 0.7284(14) 0.8955(4)
C8 C 0.9941(9) 0.7541(15) 0.9538(5)
H2 H 1.0626 0.7826 0.9719
C9 C 0.8969(9) 0.7260(15) 0.9768(5)
C10 C 0.8679(9) 0.7423(15) 1.0357(5)
N1 N 0.6120(7) 0.4917(12) 0.8713(4)
N2 N 0.6671(7) 0.5157(12) 0.8256(4)
N3 N 0.8581(7) 0.6869(12) 0.8886(4)
N4 N 0.8143(7) 0.6835(11) 0.9383(3)
O1 O 0.3927(6) 0.1751(10) 0.8883(3)
O2 O 0.4649(5) 0.4110(10) 0.9447(3)
O3 O 0.6485(6) 0.3491(11) 0.6852(3)
O4 O 0.7588(6) 0.5507(10) 0.7341(3)
O5 O 0.9574(7) 0.6890(12) 0.8001(3)
O6 O 1.1129(6) 0.7976(11) 0.8415(3)
O7 O 0.9338(6) 0.8047(11) 1.0742(3)
O8 O 0.7702(5) 0.7044(10) 1.0451(3)
O9 O 0.7428(7) 0.9601(12) 0.7942(4)
H3 H 0.7217 0.8421 0.7938
H4 H 0.7230 1.0127 0.8241
O10 O 0.5749(6) 0.8812(11) 0.8730(3)
H5 H 0.5456 0.7839 0.8555
H6 H 0.5237 0.9524 0.8835
O11 O 0.6917(6) 0.3422(10) 0.9854(3)
O12 O 0.7453(6) 0.1289(10) 1.0617(3)
O13 O 0.6585(6) 0.0027(10) 0.9754(3)
O14 O 0.5554(6) 0.1887(11) 1.0372(3)
O15 O 0.9656(7) 0.8167(12) 1.1885(4)
H7 H 1.0341 0.8250 1.1858
H8 H 0.9567 0.7667 1.2205
O16 O 0.7643(7) 0.5733(12) 1.1719(4)
H9 H 0.7891 0.4668 1.1600
H10 H 0.7186 0.5456 1.1956
S1 S 0.6613(2) 0.1659(4) 1.01544(12)
Sm1B Sm 0.38015(4) 0.33881(7) 1.03320(2)
Sm1_2 Sm 0.61985(4) -0.33881(7) 0.96680(2)
Sm2B Sm 0.20928(4) 0.09345(8) 0.86531(2)
Sm2C Sm 0.79072(4) 0.59345(8) 0.63469(2)
Sm2B_2 Sm 1.20928(4) 1.09345(8) 0.86531(2)
Sm2_2 Sm 0.79072(4) -0.09345(8) 1.13469(2)
O1B O 0.6073(6) 0.8249(10) 1.1117(3)
O2B O 0.5351(5) 0.5890(10) 1.0553(3)
O3C O 0.6485(6) 1.1509(11) 1.1852(3)
O4C O 0.7588(6) 0.9493(10) 1.2341(3)
O6B O 0.8871(6) 1.2024(11) 1.1585(3)
O12_2 O 0.7453(6) 1.1289(10) 1.0617(3)
O13_2 O 0.6585(6) 1.0027(10) 0.9754(3)
O14B O 0.4446(6) 0.8113(11) 0.9628(3)
O17 O 0.8387(8) 0.1983(13) 0.8822(4)
H11 H 0.8008 0.2313 0.9089
H12 H 0.9057 0.2153 0.8936
loop_
_geom_bond_atom_site_label_1
_geom_bond_atom_site_label_2
_geom_bond_site_symmetry_1
_geom_bond_site_symmetry_2
Cu1 N2 1_555 1_555
Sm1 N1 1_555 1_555
Sm2 O7 1_555 1_555
C1 C2 1_555 1_555
C2 C3 1_555 1_555
C3 H1 1_555 1_555
C4 C3 1_555 1_555
C5 C4 1_555 1_555
C6 C7 1_555 1_555
C7 C8 1_555 1_555
C8 H2 1_555 1_555
C9 C8 1_555 1_555
C10 C9 1_555 1_555
N1 C2 1_555 1_555
N2 C4 1_555 1_555
N3 Cu1 1_555 1_555
N4 Sm1 1_555 1_555
O1 C1 1_555 1_555
O2 Sm1 1_555 1_555
O3 C5 1_555 1_555
O4 Cu1 1_555 1_555
O5 Cu1 1_555 1_555
O6 C6 1_555 1_555
O7 C10 1_555 1_555
O8 Sm1 1_555 1_555
O9 Cu1 1_555 1_555
H3 O9 1_555 1_555
H4 O9 1_555 1_555
O10 Sm1 1_555 1_555
H5 O10 1_555 1_555
H6 O10 1_555 1_555
O11 Sm1 1_555 1_555
O12 S1 1_555 1_555
O13 S1 1_555 1_555
O14 S1 1_555 1_555
O15 Sm2 1_555 1_555
H7 O15 1_555 1_555
H8 O15 1_555 1_555
O16 Sm2 1_555 1_555
H9 O16 1_555 1_555
H10 O16 1_555 1_555
O17 H11 1_555 1_555
H12 O17 1_555 1_555
S1 O11 1_555 1_555
Sm1B O2 1_555 1_555
Sm1_2 O13 1_555 1_555
Sm2B O1 1_555 1_555
Sm2C O3 1_555 1_555
Sm2B_2 O6 1_555 1_555
Sm2_2 O12 1_555 1_555
O1B Sm2 1_555 1_555
O2B Sm1 1_555 1_555
O3C Sm2 1_555 1_555
O4C Sm2 1_555 1_555
O6B Sm2 1_555 1_555
O12_2 Sm2 1_555 1_555
O13_2 Sm1 1_555 1_555
O14B Sm1 1_555 1_555
Sm2 O8 1_555 1_555
C1 O2 1_555 1_555
C5 O4 1_555 1_555
C6 O5 1_555 1_555
C7 N3 1_555 1_555
C9 N4 1_555 1_555
C10 O8 1_555 1_555
N1 N2 1_555 1_555
N3 N4 1_555 1_555
O4 Sm2C 1_555 1_555
O14 Sm1B 1_555 1_555
Sm1B O2B 1_555 1_555

#END
