
#######################################################################
#
#                 Cambridge Crystallographic Data Centre
#                                CCDC 
#
#######################################################################
#
# If this CIF has been generated from an entry in the Cambridge 
# Structural Database, then it will include bibliographic, chemical, 
# crystal, experimental, refinement or atomic coordinate data resulting 
# from the CCDC's data processing and validation procedures.
#
#######################################################################

data_COWVAN
_symmetry_cell_setting           triclinic
_symmetry_space_group_name_H-M   'P -1'
_symmetry_Int_Tables_number      2
_space_group_name_Hall           '-P 1'
loop_
_symmetry_equiv_pos_site_id
_symmetry_equiv_pos_as_xyz
1 x,y,z
2 -x,-y,-z
_cell_length_a                   9.0222(4)
_cell_length_b                   10.7966(5)
_cell_length_c                   14.9511(7)
_cell_angle_alpha                73.166(4)
_cell_angle_beta                 83.501(4)
_cell_angle_gamma                67.963(4)
_cell_volume                     1292.11
loop_
_atom_site_label
_atom_site_type_symbol
_atom_site_fract_x
_atom_site_fract_y
_atom_site_fract_z
Ni1 Ni 0.5000 0.5000 0.5000
Ni2 Ni 0.0000 1.0000 0.5000
N1 N 0.9049(2) 0.1522(2) 0.56683(14)
C1 C 0.8251(3) 0.2484(2) 0.59170(16)
S1 S 0.70872(7) 0.38507(6) 0.62591(4)
N2 N 0.4000(2) 0.6481(2) 0.56926(14)
C2 C 0.3288(3) 0.7489(2) 0.59007(16)
S2 S 0.22667(8) 0.89461(6) 0.61808(5)
N3 N 0.6367(2) 0.6153(2) 0.41820(14)
C3 C 0.7879(3) 0.5520(3) 0.39445(18)
H1 H 0.8353 0.4542 0.4182
C4 C 0.8784(3) 0.6222(3) 0.33689(18)
H2 H 0.9858 0.5726 0.3224
C5 C 0.8130(3) 0.7644(3) 0.30037(17)
C6 C 0.6557(3) 0.8305(3) 0.32568(18)
H3 H 0.6055 0.9282 0.3029
C7 C 0.5734(3) 0.7537(2) 0.38370(18)
H4 H 0.4663 0.8009 0.4002
C8 C 0.9055(3) 0.8459(3) 0.23598(19)
H5 H 1.0172 0.7827 0.2318
H6 H 0.9078 0.9179 0.2639
C9 C 0.8386(3) 0.9155(3) 0.13818(18)
C10 C 0.7774(4) 0.8508(3) 0.0920(2)
H7 H 0.7726 0.7623 0.1235
C11 C 0.7231(4) 0.9125(3) 0.0007(2)
H8 H 0.6810 0.8674 -0.0301
C12 C 0.7316(4) 1.0404(3) -0.04440(19)
C13 C 0.7894(4) 1.1076(3) -0.0005(2)
H9 H 0.7934 1.1963 -0.0324
C14 C 0.8424(3) 1.0452(3) 0.0909(2)
H10 H 0.8819 1.0922 0.1216
Cl1 Cl 0.66675(13) 1.11952(10) -0.15976(5)
N4 N -0.1271(3) 0.8848(2) 0.59032(14)
C15 C -0.1853(3) 0.8060(3) 0.56032(18)
H11 H -0.1689 0.8040 0.4968
C16 C -0.2674(3) 0.7282(3) 0.61717(19)
H12 H -0.3060 0.6741 0.5926
C17 C -0.2941(3) 0.7285(3) 0.71022(19)
C18 C -0.2354(4) 0.8108(3) 0.7408(2)
H13 H -0.2512 0.8154 0.8038
C19 C -0.1542(4) 0.8857(3) 0.67981(19)
H14 H -0.1151 0.9411 0.7026
C20 C -0.3866(4) 0.6449(4) 0.7734(2)
H15 H -0.5016 0.7036 0.7701
H16 H -0.3740 0.5651 0.7494
C21 C -0.3354(3) 0.5910(3) 0.87450(19)
C22 C -0.4292(4) 0.6469(3) 0.9423(2)
H17 H -0.5271 0.7226 0.9249
C23 C -0.3844(4) 0.5952(3) 1.0355(2)
H18 H -0.4513 0.6343 1.0816
C24 C -0.2431(4) 0.4875(3) 1.0600(2)
C25 C -0.1449(4) 0.4302(3) 0.9938(3)
H19 H -0.0461 0.3557 1.0113
C26 C -0.1919(4) 0.4823(3) 0.9019(2)
H20 H -0.1244 0.4430 0.8560
Cl2 Cl -0.18761(17) 0.41958(15) 1.17723(7)
N2A N -0.4000(2) 1.3519(2) 0.43074(14)
C2A C -0.3288(3) 1.2511(2) 0.40993(16)
S2A S -0.22667(8) 1.10539(6) 0.38192(5)
N4A N 0.1271(3) 1.1152(2) 0.40968(14)
C15A C 0.1853(3) 1.1940(3) 0.43968(18)
H11A H 0.1689 1.1960 0.5032
C16A C 0.2674(3) 1.2718(3) 0.38283(19)
H12A H 0.3060 1.3259 0.4074
C17A C 0.2941(3) 1.2715(3) 0.28978(19)
C18A C 0.2354(4) 1.1892(3) 0.2592(2)
H13A H 0.2512 1.1846 0.1962
C19A C 0.1542(4) 1.1143(3) 0.32019(19)
H14A H 0.1151 1.0589 0.2974
C20A C 0.3866(4) 1.3551(4) 0.2266(2)
H15A H 0.5016 1.2964 0.2299
H16A H 0.3740 1.4349 0.2506
C21A C 0.3354(3) 1.4090(3) 0.12550(19)
C22A C 0.4292(4) 1.3531(3) 0.0577(2)
H17A H 0.5271 1.2774 0.0751
C23A C 0.3844(4) 1.4048(3) -0.0355(2)
H18A H 0.4513 1.3657 -0.0816
C24A C 0.2431(4) 1.5125(3) -0.0600(2)
C25A C 0.1449(4) 1.5698(3) 0.0062(3)
H19A H 0.0461 1.6443 -0.0113
C26A C 0.1919(4) 1.5177(3) 0.0981(2)
H20A H 0.1244 1.5570 0.1440
Cl2A Cl 0.18761(17) 1.58042(15) -0.17723(7)
N3A N 0.3633(2) 0.3847(2) 0.58180(14)
C3A C 0.2121(3) 0.4480(3) 0.60555(18)
H1A H 0.1647 0.5458 0.5818
C4A C 0.1216(3) 0.3778(3) 0.66311(18)
H2A H 0.0142 0.4274 0.6776
C5A C 0.1870(3) 0.2356(3) 0.69963(17)
C6A C 0.3443(3) 0.1695(3) 0.67432(18)
H3A H 0.3945 0.0718 0.6971
C7A C 0.4266(3) 0.2463(2) 0.61630(18)
H4A H 0.5337 0.1991 0.5998
C8A C 0.0945(3) 0.1541(3) 0.76402(19)
H5A H -0.0172 0.2173 0.7682
H6A H 0.0922 0.0821 0.7361
C9A C 0.1614(3) 0.0845(3) 0.86182(18)
C10A C 0.2226(4) 0.1492(3) 0.9080(2)
H7A H 0.2274 0.2377 0.8765
C11A C 0.2769(4) 0.0875(3) 0.9993(2)
H8A H 0.3190 0.1326 1.0301
C12A C 0.2684(4) -0.0404(3) 1.04440(19)
C13A C 0.2106(4) -0.1076(3) 1.0005(2)
H9A H 0.2066 -0.1963 1.0324
C14A C 0.1576(3) -0.0452(3) 0.9091(2)
H10A H 0.1181 -0.0922 0.8784
Cl1A Cl 0.33325(13) -0.11952(10) 1.15976(5)
N1A N 0.0951(2) 0.8478(2) 0.43317(14)
C1A C 0.1749(3) 0.7516(2) 0.40830(16)
S1A S 0.29128(7) 0.61493(6) 0.37409(4)
Ni1_2 Ni -0.5000 1.5000 0.5000
Ni2_2 Ni 1.0000 0.0000 0.5000
N1_2 N -0.0951(2) 1.1522(2) 0.56683(14)
N2A_2 N 0.6000(2) 0.3519(2) 0.43074(14)
loop_
_geom_bond_atom_site_label_1
_geom_bond_atom_site_label_2
_geom_bond_site_symmetry_1
_geom_bond_site_symmetry_2
Ni1 S1 1_555 1_555
Ni2 S2 1_555 1_555
N1 C1 1_555 1_555
C1 S1 1_555 1_555
N2 Ni1 1_555 1_555
C2 N2 1_555 1_555
S2 C2 1_555 1_555
N3 Ni1 1_555 1_555
C3 N3 1_555 1_555
H1 C3 1_555 1_555
C4 C3 1_555 1_555
H2 C4 1_555 1_555
C5 C4 1_555 1_555
C6 C5 1_555 1_555
H3 C6 1_555 1_555
C7 N3 1_555 1_555
H4 C7 1_555 1_555
C8 C5 1_555 1_555
H5 C8 1_555 1_555
H6 C8 1_555 1_555
C9 C8 1_555 1_555
C10 C9 1_555 1_555
H7 C10 1_555 1_555
C11 C10 1_555 1_555
H8 C11 1_555 1_555
C12 C11 1_555 1_555
C13 C12 1_555 1_555
H9 C13 1_555 1_555
C14 C9 1_555 1_555
H10 C14 1_555 1_555
Cl1 C12 1_555 1_555
N4 Ni2 1_555 1_555
C15 N4 1_555 1_555
H11 C15 1_555 1_555
C16 C15 1_555 1_555
H12 C16 1_555 1_555
C17 C16 1_555 1_555
C18 C17 1_555 1_555
H13 C18 1_555 1_555
C19 N4 1_555 1_555
H14 C19 1_555 1_555
C20 C17 1_555 1_555
H15 C20 1_555 1_555
H16 C20 1_555 1_555
C21 C20 1_555 1_555
C22 C21 1_555 1_555
H17 C22 1_555 1_555
C23 C22 1_555 1_555
H18 C23 1_555 1_555
C24 C23 1_555 1_555
C25 C24 1_555 1_555
H19 C25 1_555 1_555
C26 C21 1_555 1_555
H20 C26 1_555 1_555
Cl2 C24 1_555 1_555
N2A C2A 1_555 1_555
C2A S2A 1_555 1_555
S2A Ni2 1_555 1_555
N4A Ni2 1_555 1_555
C15A N4A 1_555 1_555
H11A C15A 1_555 1_555
C16A C15A 1_555 1_555
H12A C16A 1_555 1_555
C17A C16A 1_555 1_555
C18A C17A 1_555 1_555
H13A C18A 1_555 1_555
C19A N4A 1_555 1_555
H14A C19A 1_555 1_555
C20A C17A 1_555 1_555
H15A C20A 1_555 1_555
H16A C20A 1_555 1_555
C21A C20A 1_555 1_555
C22A C21A 1_555 1_555
H17A C22A 1_555 1_555
C23A C22A 1_555 1_555
H18A C23A 1_555 1_555
C24A C23A 1_555 1_555
C25A C24A 1_555 1_555
H19A C25A 1_555 1_555
C26A C21A 1_555 1_555
H20A C26A 1_555 1_555
Cl2A C24A 1_555 1_555
N3A Ni1 1_555 1_555
C3A N3A 1_555 1_555
H1A C3A 1_555 1_555
C4A C3A 1_555 1_555
H2A C4A 1_555 1_555
C5A C4A 1_555 1_555
C6A C5A 1_555 1_555
H3A C6A 1_555 1_555
C7A N3A 1_555 1_555
H4A C7A 1_555 1_555
C8A C5A 1_555 1_555
H5A C8A 1_555 1_555
H6A C8A 1_555 1_555
C9A C8A 1_555 1_555
C10A C9A 1_555 1_555
H7A C10A 1_555 1_555
C11A C10A 1_555 1_555
H8A C11A 1_555 1_555
C12A C11A 1_555 1_555
C13A C12A 1_555 1_555
H9A C13A 1_555 1_555
C14A C9A 1_555 1_555
H10A C14A 1_555 1_555
Cl1A C12A 1_555 1_555
N1A Ni2 1_555 1_555
C1A N1A 1_555 1_555
S1A Ni1 1_555 1_555
Ni1_2 N2A 1_555 1_555
Ni2_2 N1 1_555 1_555
N1_2 Ni2 1_555 1_555
N2A_2 Ni1 1_555 1_555
C6 C7 1_555 1_555
C13 C14 1_555 1_555
C18 C19 1_555 1_555
C25 C26 1_555 1_555
C18A C19A 1_555 1_555
C25A C26A 1_555 1_555
C6A C7A 1_555 1_555
C13A C14A 1_555 1_555
C1A S1A 1_555 1_555

#END
