
#######################################################################
#
#                 Cambridge Crystallographic Data Centre
#                                CCDC 
#
#######################################################################
#
# If this CIF has been generated from an entry in the Cambridge 
# Structural Database, then it will include bibliographic, chemical, 
# crystal, experimental, refinement or atomic coordinate data resulting 
# from the CCDC's data processing and validation procedures.
#
#######################################################################

data_COWVIU
_symmetry_cell_setting           triclinic
_symmetry_space_group_name_H-M   'P -1'
_symmetry_Int_Tables_number      2
_space_group_name_Hall           '-P 1'
loop_
_symmetry_equiv_pos_site_id
_symmetry_equiv_pos_as_xyz
1 x,y,z
2 -x,-y,-z
_cell_length_a                   7.1295(9)
_cell_length_b                   10.2508(12)
_cell_length_c                   15.5835(19)
_cell_angle_alpha                80.709(2)
_cell_angle_beta                 79.568(2)
_cell_angle_gamma                76.666(2)
_cell_volume                     1081.31
loop_
_atom_site_label
_atom_site_type_symbol
_atom_site_fract_x
_atom_site_fract_y
_atom_site_fract_z
Cu1 Cu 0.39385(11) 0.37365(8) -0.02984(5)
Dy1 Dy 0.34970(4) 0.22073(3) 0.261978(17)
Dy2 Dy 0.73396(4) -0.19119(3) 0.365649(18)
S1 S 0.6302(2) 0.14439(15) 0.44578(9)
C1 C 0.0515(9) 0.5074(6) 0.2924(4)
C2 C 0.1060(9) 0.5220(6) 0.1960(4)
C3 C 0.0419(10) 0.6226(7) 0.1304(4)
H1 H -0.0494 0.7028 0.1366
C4 C 0.1453(9) 0.5757(6) 0.0540(4)
C5 C 0.1482(10) 0.6248(7) -0.0404(4)
C6 C 0.6454(9) 0.1739(7) -0.1171(4)
C7 C 0.6458(9) 0.1259(7) -0.0217(4)
C8 C 0.7364(9) 0.0145(7) 0.0297(4)
H2 H 0.8294 -0.0597 0.0118
C9 C 0.6543(9) 0.0408(6) 0.1148(4)
C10 C 0.6792(9) -0.0374(6) 0.2013(4)
N1 N 0.2403(8) 0.4225(6) 0.1602(3)
N2 N 0.2628(8) 0.4562(6) 0.0733(3)
N3 N 0.5207(8) 0.2103(6) 0.0310(3)
N4 N 0.5256(8) 0.1597(6) 0.1154(3)
O1 O -0.0638(7) 0.6000(5) 0.3297(3)
O2 O 0.1315(7) 0.3940(5) 0.3331(3)
O3 O 0.0426(8) 0.7316(5) -0.0650(3)
O4 O 0.2672(6) 0.5452(5) -0.0919(3)
O5 O 0.5289(7) 0.2879(5) -0.1351(3)
O6 O 0.7524(7) 0.1079(5) -0.1738(3)
O7 O 0.7996(7) -0.1452(5) 0.2110(3)
O8 O 0.5692(7) 0.0096(5) 0.2695(3)
O9 O 0.6037(7) 0.3348(6) 0.2484(3)
H3 H 0.7189 0.3439 0.2491
H4 H 0.5533 0.3979 0.2117
O10 O 0.1085(7) 0.1535(5) 0.2048(3)
H5 H 0.0674 0.1953 0.1579
H6 H 0.1369 0.0695 0.1998
O11 O 0.1513(6) 0.0903(5) 0.3767(3)
H7 H 0.0334 0.1304 0.3896
H8 H 0.1999 0.0671 0.4242
O12 O 0.4618(6) 0.1831(5) 0.3981(3)
O13 O 0.5605(6) 0.1676(5) 0.5386(3)
O14 O 0.7731(7) 0.2287(5) 0.4073(3)
O15 O 0.7228(6) 0.0002(5) 0.4420(3)
O16 O 0.5213(7) -0.3003(6) 0.3155(3)
H9 H 0.5271 -0.3063 0.2613
H10 H 0.5466 -0.3801 0.3421
O17 O 1.0472(7) -0.1436(5) 0.3362(3)
H11 H 1.1384 -0.1634 0.2940
H12 H 1.0925 -0.1094 0.3721
O18 O 0.8698(8) -0.3083(6) 0.4878(3)
H13 H 0.8874 -0.2875 0.5359
H14 H 0.8325 -0.3830 0.4990
Dy2_2 Dy -0.26604(4) 0.80881(3) 0.365649(18)
Dy2A Dy 0.26604(4) 0.19119(3) 0.634351(18)
O1_2 O 0.9362(7) -0.4000(5) 0.3297(3)
O13A O 0.4395(6) -0.1676(5) 0.4614(3)
O19 O 0.2681(12) 0.5786(9) 0.4701(6)
H15 H 0.3012 0.6191 0.5067
H16 H 0.2054 0.6383 0.4353
loop_
_geom_bond_atom_site_label_1
_geom_bond_atom_site_label_2
_geom_bond_site_symmetry_1
_geom_bond_site_symmetry_2
Cu1 N2 1_555 1_555
Dy1 N1 1_555 1_555
Dy2 O7 1_555 1_555
S1 O12 1_555 1_555
C1 C2 1_555 1_555
C2 C3 1_555 1_555
C3 H1 1_555 1_555
C4 C3 1_555 1_555
C5 C4 1_555 1_555
C6 C7 1_555 1_555
C7 C8 1_555 1_555
C8 H2 1_555 1_555
C9 C8 1_555 1_555
C10 C9 1_555 1_555
N1 C2 1_555 1_555
N2 C4 1_555 1_555
N3 Cu1 1_555 1_555
N4 Dy1 1_555 1_555
O1 C1 1_555 1_555
O2 Dy1 1_555 1_555
O3 C5 1_555 1_555
O4 Cu1 1_555 1_555
O5 Cu1 1_555 1_555
O6 C6 1_555 1_555
O7 C10 1_555 1_555
O8 Dy1 1_555 1_555
O9 Dy1 1_555 1_555
H3 O9 1_555 1_555
H4 O9 1_555 1_555
O10 Dy1 1_555 1_555
H5 O10 1_555 1_555
H6 O10 1_555 1_555
O11 Dy1 1_555 1_555
H7 O11 1_555 1_555
H8 O11 1_555 1_555
O12 Dy1 1_555 1_555
O13 S1 1_555 1_555
O14 S1 1_555 1_555
O15 Dy2 1_555 1_555
O16 Dy2 1_555 1_555
H9 O16 1_555 1_555
H10 O16 1_555 1_555
O17 Dy2 1_555 1_555
H11 O17 1_555 1_555
H12 O17 1_555 1_555
O18 Dy2 1_555 1_555
H13 O18 1_555 1_555
H14 O18 1_555 1_555
O19 H15 1_555 1_555
H16 O19 1_555 1_555
Dy2_2 O1 1_555 1_555
Dy2A O13 1_555 1_555
O1_2 Dy2 1_555 1_555
O13A Dy2 1_555 1_555
Dy2 O8 1_555 1_555
S1 O15 1_555 1_555
C1 O2 1_555 1_555
C5 O4 1_555 1_555
C6 O5 1_555 1_555
C7 N3 1_555 1_555
C9 N4 1_555 1_555
C10 O8 1_555 1_555
N1 N2 1_555 1_555
N3 N4 1_555 1_555

#END
