
#######################################################################
#
#                 Cambridge Crystallographic Data Centre
#                                CCDC 
#
#######################################################################
#
# If this CIF has been generated from an entry in the Cambridge 
# Structural Database, then it will include bibliographic, chemical, 
# crystal, experimental, refinement or atomic coordinate data resulting 
# from the CCDC's data processing and validation procedures.
#
#######################################################################

data_COWVUG
_symmetry_cell_setting           monoclinic
_symmetry_space_group_name_H-M   'P 21/c'
_symmetry_Int_Tables_number      14
_space_group_name_Hall           '-P 2ybc'
loop_
_symmetry_equiv_pos_site_id
_symmetry_equiv_pos_as_xyz
1 x,y,z
2 -x,1/2+y,1/2-z
3 -x,-y,-z
4 x,1/2-y,1/2+z
_cell_length_a                   12.2698(12)
_cell_length_b                   6.8833(7)
_cell_length_c                   23.757(2)
_cell_angle_alpha                90
_cell_angle_beta                 95.216(2)
_cell_angle_gamma                90
_cell_volume                     1998.13
loop_
_atom_site_label
_atom_site_type_symbol
_atom_site_fract_x
_atom_site_fract_y
_atom_site_fract_z
Cu1 Cu 0.80218(8) 0.64185(15) 0.81207(4)
Eu1 Eu 0.61992(3) 0.66050(5) 0.966911(14)
Eu2 Eu 0.79039(3) 0.90482(5) 1.134630(14)
C1 C 0.4562(6) 0.3142(10) 0.8993(3)
C2 C 0.5292(6) 0.3704(11) 0.8557(3)
C3 C 0.5316(6) 0.3164(12) 0.7995(3)
H1 H 0.4844 0.2327 0.7785
C4 C 0.6197(6) 0.4155(11) 0.7824(3)
C5 C 0.6750(6) 0.4331(11) 0.7294(3)
C6 C 1.0187(6) 0.7421(12) 0.8436(3)
C7 C 0.9639(6) 0.7306(11) 0.8960(3)
C8 C 0.9939(6) 0.7560(12) 0.9534(3)
H2 H 1.0626 0.7855 0.9711
C9 C 0.8971(6) 0.7270(11) 0.9776(3)
C10 C 0.8668(6) 0.7438(11) 1.0359(3)
N1 N 0.6123(5) 0.4914(10) 0.8710(2)
N2 N 0.6664(5) 0.5179(9) 0.8254(2)
N3 N 0.8563(5) 0.6900(9) 0.8885(2)
N4 N 0.8130(5) 0.6841(9) 0.9378(2)
O1 O 0.3924(4) 0.1755(7) 0.8879(2)
O2 O 0.4656(4) 0.4092(7) 0.94516(19)
O3 O 0.6480(4) 0.3499(8) 0.6850(2)
O4 O 0.7577(4) 0.5543(8) 0.7337(2)
O5 O 0.9571(4) 0.6913(10) 0.7992(2)
O6 O 1.1125(4) 0.8022(9) 0.8417(2)
O7 O 0.9336(4) 0.8054(9) 1.0744(2)
O8 O 0.7692(4) 0.7028(7) 1.0451(2)
O9 O 0.7426(6) 0.9656(9) 0.7937(3)
H3 H 0.7216 0.8476 0.7934
H4 H 0.7229 1.0183 0.8236
O10 O 0.5759(5) 0.8842(9) 0.8733(2)
H5 H 0.5466 0.7868 0.8558
H6 H 0.5248 0.9553 0.8838
O11 O 0.6908(4) 0.3421(7) 0.9854(2)
O12 O 0.7458(4) 0.1273(8) 1.0625(2)
O13 O 0.6572(4) 0.0016(8) 0.9763(2)
O14 O 0.5554(4) 0.1900(8) 1.0384(2)
O15 O 0.9647(5) 0.8124(10) 1.1880(2)
H7 H 1.0331 0.8207 1.1852
H8 H 0.9557 0.7623 1.2200
O16 O 0.7653(5) 0.5714(9) 1.1712(3)
H9 H 0.7901 0.4649 1.1593
H10 H 0.7196 0.5437 1.1949
S1 S 0.66088(14) 0.1657(3) 1.01597(7)
Eu1B Eu 0.38008(3) 0.33950(5) 1.033089(14)
Eu1_2 Eu 0.61992(3) -0.33950(5) 0.966911(14)
Eu2B Eu 0.20961(3) 0.09518(5) 0.865370(14)
Eu2C Eu 0.79039(3) 0.59518(5) 0.634630(14)
Eu2B_2 Eu 1.20961(3) 1.09518(5) 0.865370(14)
Eu2_2 Eu 0.79039(3) -0.09518(5) 1.134630(14)
O1B O 0.6076(4) 0.8245(7) 1.1121(2)
O2B O 0.5344(4) 0.5908(7) 1.05484(19)
O3C O 0.6480(4) 1.1501(8) 1.1850(2)
O4C O 0.7577(4) 0.9457(8) 1.2337(2)
O6B O 0.8875(4) 1.1978(9) 1.1583(2)
O12_2 O 0.7458(4) 1.1273(8) 1.0625(2)
O13_2 O 0.6572(4) 1.0016(8) 0.9763(2)
O14B O 0.4446(4) 0.8100(8) 0.9616(2)
O17 O 0.8405(5) 0.2000(11) 0.8834(3)
H11 H 0.8025 0.2331 0.9101
H12 H 0.9074 0.2171 0.8948
loop_
_geom_bond_atom_site_label_1
_geom_bond_atom_site_label_2
_geom_bond_site_symmetry_1
_geom_bond_site_symmetry_2
Cu1 N2 1_555 1_555
Eu1 N1 1_555 1_555
Eu2 O7 1_555 1_555
C1 C2 1_555 1_555
C2 C3 1_555 1_555
C3 H1 1_555 1_555
C4 C3 1_555 1_555
C5 C4 1_555 1_555
C6 C7 1_555 1_555
C7 C8 1_555 1_555
C8 H2 1_555 1_555
C9 C8 1_555 1_555
C10 C9 1_555 1_555
N1 C2 1_555 1_555
N2 C4 1_555 1_555
N3 Cu1 1_555 1_555
N4 Eu1 1_555 1_555
O1 C1 1_555 1_555
O2 Eu1 1_555 1_555
O3 C5 1_555 1_555
O4 Cu1 1_555 1_555
O5 Cu1 1_555 1_555
O6 C6 1_555 1_555
O7 C10 1_555 1_555
O8 Eu1 1_555 1_555
O9 Cu1 1_555 1_555
H3 O9 1_555 1_555
H4 O9 1_555 1_555
O10 Eu1 1_555 1_555
H5 O10 1_555 1_555
H6 O10 1_555 1_555
O11 Eu1 1_555 1_555
O12 S1 1_555 1_555
O13 S1 1_555 1_555
O14 S1 1_555 1_555
O15 Eu2 1_555 1_555
H7 O15 1_555 1_555
H8 O15 1_555 1_555
O16 Eu2 1_555 1_555
H9 O16 1_555 1_555
H10 O16 1_555 1_555
O17 H11 1_555 1_555
H12 O17 1_555 1_555
S1 O11 1_555 1_555
Eu1B O2 1_555 1_555
Eu1_2 O13 1_555 1_555
Eu2B O1 1_555 1_555
Eu2C O3 1_555 1_555
Eu2B_2 O6 1_555 1_555
Eu2_2 O12 1_555 1_555
O1B Eu2 1_555 1_555
O2B Eu1 1_555 1_555
O3C Eu2 1_555 1_555
O4C Eu2 1_555 1_555
O6B Eu2 1_555 1_555
O12_2 Eu2 1_555 1_555
O13_2 Eu1 1_555 1_555
O14B Eu1 1_555 1_555
Eu2 O8 1_555 1_555
C1 O2 1_555 1_555
C5 O4 1_555 1_555
C6 O5 1_555 1_555
C7 N3 1_555 1_555
C9 N4 1_555 1_555
C10 O8 1_555 1_555
N1 N2 1_555 1_555
N3 N4 1_555 1_555
O4 Eu2C 1_555 1_555
O14 Eu1B 1_555 1_555
Eu1B O2B 1_555 1_555

#END
