
#######################################################################
#
#                 Cambridge Crystallographic Data Centre
#                                CCDC 
#
#######################################################################
#
# If this CIF has been generated from an entry in the Cambridge 
# Structural Database, then it will include bibliographic, chemical, 
# crystal, experimental, refinement or atomic coordinate data resulting 
# from the CCDC's data processing and validation procedures.
#
#######################################################################

data_COWWAN
_symmetry_cell_setting           monoclinic
_symmetry_space_group_name_H-M   'P 21/c'
_symmetry_Int_Tables_number      14
_space_group_name_Hall           '-P 2ybc'
loop_
_symmetry_equiv_pos_site_id
_symmetry_equiv_pos_as_xyz
1 x,y,z
2 -x,1/2+y,1/2-z
3 -x,-y,-z
4 x,1/2-y,1/2+z
_cell_length_a                   12.2664(18)
_cell_length_b                   6.8633(10)
_cell_length_c                   23.739(3)
_cell_angle_alpha                90
_cell_angle_beta                 95.118(3)
_cell_angle_gamma                90
_cell_volume                     1990.57
loop_
_atom_site_label
_atom_site_type_symbol
_atom_site_fract_x
_atom_site_fract_y
_atom_site_fract_z
Cu1 Cu 0.80168(8) 0.64495(16) 0.81171(4)
Gd1 Gd 0.61994(3) 0.65992(5) 0.966900(16)
Gd2 Gd 0.79022(3) 0.90363(6) 1.134590(16)
C1 C 0.4574(6) 0.3146(10) 0.8990(3)
C2 C 0.5291(6) 0.3680(11) 0.8566(4)
C3 C 0.5310(7) 0.3164(11) 0.7999(3)
H1 H 0.4830 0.2345 0.7787
C4 C 0.6205(7) 0.4147(12) 0.7823(4)
C5 C 0.6744(6) 0.4329(12) 0.7291(3)
C6 C 1.0175(7) 0.7452(13) 0.8426(4)
C7 C 0.9630(6) 0.7330(12) 0.8958(3)
C8 C 0.9930(7) 0.7550(12) 0.9530(3)
H2 H 1.0620 0.7819 0.9708
C9 C 0.8963(7) 0.7277(12) 0.9773(3)
C10 C 0.8655(6) 0.7416(11) 1.0356(3)
N1 N 0.6125(5) 0.4923(9) 0.8713(3)
N2 N 0.6662(5) 0.5196(10) 0.8256(3)
N3 N 0.8550(5) 0.6931(10) 0.8882(3)
N4 N 0.8130(5) 0.6864(9) 0.9379(3)
O1 O 0.3929(5) 0.1735(8) 0.8883(2)
O2 O 0.4649(4) 0.4076(8) 0.9457(2)
O3 O 0.6480(5) 0.3496(8) 0.6844(2)
O4 O 0.7569(5) 0.5581(9) 0.7330(2)
O5 O 0.9569(5) 0.6951(10) 0.7983(3)
O6 O 1.1128(5) 0.8042(8) 0.8412(2)
O7 O 0.9327(5) 0.8053(9) 1.0744(2)
O8 O 0.7682(4) 0.7017(8) 1.0451(2)
O9 O 0.7448(6) 0.9694(10) 0.7931(3)
H3 H 0.7238 0.8514 0.7927
H4 H 0.7250 1.0221 0.8229
O10 O 0.5794(5) 0.8857(9) 0.8738(3)
H5 H 0.5501 0.7883 0.8562
H6 H 0.5283 0.9568 0.8843
O11 O 0.6906(4) 0.3406(7) 0.9857(2)
O12 O 0.7465(5) 0.1271(8) 1.0628(2)
O13 O 0.6556(5) 0.0012(8) 0.9769(2)
O14 O 0.5553(5) 0.1927(8) 1.0402(3)
O15 O 0.9645(5) 0.8095(10) 1.1879(3)
H7 H 1.0329 0.8178 1.1852
H8 H 0.9555 0.7595 1.2200
O16 O 0.7650(6) 0.5713(9) 1.1698(3)
H9 H 0.7898 0.4648 1.1579
H10 H 0.7193 0.5436 1.1935
S1 S 0.66074(16) 0.1664(3) 1.01700(8)
Gd1B Gd 0.38006(3) 0.34008(5) 1.033100(16)
Gd1_2 Gd 0.61994(3) -0.34008(5) 0.966900(16)
Gd2B Gd 0.20978(3) 0.09637(6) 0.865410(16)
Gd2C Gd 0.79022(3) 0.59637(6) 0.634590(16)
Gd2B_2 Gd 1.20978(3) 1.09637(6) 0.865410(16)
Gd2_2 Gd 0.79022(3) -0.09637(6) 1.134590(16)
O1B O 0.6071(5) 0.8265(8) 1.1117(2)
O2B O 0.5351(4) 0.5924(8) 1.0543(2)
O3C O 0.6480(5) 1.1504(8) 1.1844(2)
O4C O 0.7569(5) 0.9419(9) 1.2330(2)
O6B O 0.8872(5) 1.1958(8) 1.1588(2)
O12_2 O 0.7465(5) 1.1271(8) 1.0628(2)
O13_2 O 0.6556(5) 1.0012(8) 0.9769(2)
O14B O 0.4447(5) 0.8073(8) 0.9598(3)
O17 O 0.8395(6) 0.2020(11) 0.8835(3)
H11 H 0.8015 0.2350 0.9102
H12 H 0.9065 0.2190 0.8949
loop_
_geom_bond_atom_site_label_1
_geom_bond_atom_site_label_2
_geom_bond_site_symmetry_1
_geom_bond_site_symmetry_2
Cu1 N2 1_555 1_555
Gd1 N1 1_555 1_555
Gd2 O7 1_555 1_555
C1 C2 1_555 1_555
C2 C3 1_555 1_555
C3 H1 1_555 1_555
C4 C3 1_555 1_555
C5 C4 1_555 1_555
C6 C7 1_555 1_555
C7 C8 1_555 1_555
C8 H2 1_555 1_555
C9 C8 1_555 1_555
C10 C9 1_555 1_555
N1 C2 1_555 1_555
N2 C4 1_555 1_555
N3 Cu1 1_555 1_555
N4 Gd1 1_555 1_555
O1 C1 1_555 1_555
O2 Gd1 1_555 1_555
O3 C5 1_555 1_555
O4 Cu1 1_555 1_555
O5 Cu1 1_555 1_555
O6 C6 1_555 1_555
O7 C10 1_555 1_555
O8 Gd1 1_555 1_555
O9 Cu1 1_555 1_555
H3 O9 1_555 1_555
H4 O9 1_555 1_555
O10 Gd1 1_555 1_555
H5 O10 1_555 1_555
H6 O10 1_555 1_555
O11 Gd1 1_555 1_555
O12 S1 1_555 1_555
O13 S1 1_555 1_555
O14 S1 1_555 1_555
O15 Gd2 1_555 1_555
H7 O15 1_555 1_555
H8 O15 1_555 1_555
O16 Gd2 1_555 1_555
H9 O16 1_555 1_555
H10 O16 1_555 1_555
O17 H11 1_555 1_555
H12 O17 1_555 1_555
S1 O11 1_555 1_555
Gd1B O2 1_555 1_555
Gd1_2 O13 1_555 1_555
Gd2B O1 1_555 1_555
Gd2C O3 1_555 1_555
Gd2B_2 O6 1_555 1_555
Gd2_2 O12 1_555 1_555
O1B Gd2 1_555 1_555
O2B Gd1 1_555 1_555
O3C Gd2 1_555 1_555
O4C Gd2 1_555 1_555
O6B Gd2 1_555 1_555
O12_2 Gd2 1_555 1_555
O13_2 Gd1 1_555 1_555
O14B Gd1 1_555 1_555
Gd2 O8 1_555 1_555
C1 O2 1_555 1_555
C5 O4 1_555 1_555
C6 O5 1_555 1_555
C7 N3 1_555 1_555
C9 N4 1_555 1_555
C10 O8 1_555 1_555
N1 N2 1_555 1_555
N3 N4 1_555 1_555
O4 Gd2C 1_555 1_555
O14 Gd1B 1_555 1_555
Gd1B O2B 1_555 1_555

#END
