
#######################################################################
#
#                 Cambridge Crystallographic Data Centre
#                                CCDC 
#
#######################################################################
#
# If this CIF has been generated from an entry in the Cambridge 
# Structural Database, then it will include bibliographic, chemical, 
# crystal, experimental, refinement or atomic coordinate data resulting 
# from the CCDC's data processing and validation procedures.
#
#######################################################################

data_COWWER
_symmetry_cell_setting           monoclinic
_symmetry_space_group_name_H-M   'P 21/c'
_symmetry_Int_Tables_number      14
_space_group_name_Hall           '-P 2ybc'
loop_
_symmetry_equiv_pos_site_id
_symmetry_equiv_pos_as_xyz
1 x,y,z
2 -x,1/2+y,1/2-z
3 -x,-y,-z
4 x,1/2-y,1/2+z
_cell_length_a                   12.212(4)
_cell_length_b                   6.814(2)
_cell_length_c                   23.693(7)
_cell_angle_alpha                90
_cell_angle_beta                 95.087(6)
_cell_angle_gamma                90
_cell_volume                     1963.79
loop_
_atom_site_label
_atom_site_type_symbol
_atom_site_fract_x
_atom_site_fract_y
_atom_site_fract_z
Cu1 Cu 0.80126(10) 0.6485(2) 0.81146(5)
Tb1 Tb 0.61989(4) 0.65920(7) 0.96701(2)
Tb2 Tb 0.78989(4) 0.90187(7) 1.13462(2)
C1 C 0.4548(8) 0.3097(15) 0.8991(4)
C2 C 0.5300(8) 0.3692(15) 0.8562(4)
C3 C 0.5320(8) 0.3176(14) 0.8004(4)
H1 H 0.4838 0.2340 0.7795
C4 C 0.6202(9) 0.4154(15) 0.7821(4)
C5 C 0.6742(8) 0.4357(15) 0.7294(4)
C6 C 1.0180(8) 0.7495(15) 0.8427(4)
C7 C 0.9615(8) 0.7359(14) 0.8951(4)
C8 C 0.9914(8) 0.7562(15) 0.9529(4)
H2 H 1.0608 0.7833 0.9707
C9 C 0.8955(8) 0.7272(14) 0.9777(4)
C10 C 0.8653(8) 0.7422(14) 1.0362(4)
N1 N 0.6120(7) 0.4966(12) 0.8717(4)
N2 N 0.6659(7) 0.5226(13) 0.8258(3)
N3 N 0.8548(7) 0.6963(12) 0.8878(3)
N4 N 0.8123(6) 0.6867(11) 0.9380(3)
O1 O 0.3904(5) 0.1715(10) 0.8878(3)
O2 O 0.4669(5) 0.4059(9) 0.9466(3)
O3 O 0.6474(6) 0.3499(10) 0.6850(3)
O4 O 0.7559(5) 0.5604(11) 0.7329(3)
O5 O 0.9575(6) 0.6980(11) 0.7987(3)
O6 O 1.1137(5) 0.8085(10) 0.8412(3)
O7 O 0.9319(5) 0.8029(10) 1.0750(3)
O8 O 0.7677(5) 0.7028(9) 1.0451(3)
O9 O 0.7463(6) 0.9746(11) 0.7920(3)
H3 H 0.7252 0.8565 0.7917
H4 H 0.7265 1.0272 0.8219
O10 O 0.5813(6) 0.8862(11) 0.8741(3)
H5 H 0.5519 0.7888 0.8565
H6 H 0.5301 0.9573 0.8846
O11 O 0.6896(5) 0.3430(9) 0.9865(3)
O12 O 0.7457(5) 0.1271(9) 1.0635(3)
O13 O 0.6537(6) 0.0002(10) 0.9783(3)
O14 O 0.5553(5) 0.1977(10) 1.0415(3)
O15 O 0.9601(6) 0.8065(11) 1.1873(3)
H7 H 1.0286 0.8148 1.1845
H8 H 0.9511 0.7565 1.2193
O16 O 0.7647(6) 0.5669(10) 1.1681(3)
H9 H 0.7895 0.4604 1.1562
H10 H 0.7190 0.5392 1.1917
S1 S 0.6598(2) 0.1658(4) 1.01779(11)
Tb1B Tb 0.38011(4) 0.34080(7) 1.03299(2)
Tb1_2 Tb 0.61989(4) -0.34080(7) 0.96701(2)
Tb2B Tb 0.21011(4) 0.09813(7) 0.86538(2)
Tb2C Tb 0.78989(4) 0.59813(7) 0.63462(2)
Tb2B_2 Tb 1.21011(4) 1.09813(7) 0.86538(2)
Tb2_2 Tb 0.78989(4) -0.09813(7) 1.13462(2)
O1B O 0.6096(5) 0.8285(10) 1.1122(3)
O2B O 0.5331(5) 0.5941(9) 1.0534(3)
O3C O 0.6474(6) 1.1501(10) 1.1850(3)
O4C O 0.7559(5) 0.9396(11) 1.2329(3)
O6B O 0.8863(5) 1.1915(10) 1.1588(3)
O12_2 O 0.7457(5) 1.1271(9) 1.0635(3)
O13_2 O 0.6537(6) 1.0002(10) 0.9783(3)
O14B O 0.4447(5) 0.8023(10) 0.9585(3)
O17 O 0.8397(7) 0.2018(12) 0.8838(3)
H11 H 0.8017 0.2348 0.9105
H12 H 0.9067 0.2188 0.8951
loop_
_geom_bond_atom_site_label_1
_geom_bond_atom_site_label_2
_geom_bond_site_symmetry_1
_geom_bond_site_symmetry_2
Cu1 N2 1_555 1_555
Tb1 N1 1_555 1_555
Tb2 O7 1_555 1_555
C1 C2 1_555 1_555
C2 C3 1_555 1_555
C3 H1 1_555 1_555
C4 C3 1_555 1_555
C5 C4 1_555 1_555
C6 C7 1_555 1_555
C7 C8 1_555 1_555
C8 H2 1_555 1_555
C9 C8 1_555 1_555
C10 C9 1_555 1_555
N1 C2 1_555 1_555
N2 C4 1_555 1_555
N3 Cu1 1_555 1_555
N4 Tb1 1_555 1_555
O1 C1 1_555 1_555
O2 Tb1 1_555 1_555
O3 C5 1_555 1_555
O4 Cu1 1_555 1_555
O5 Cu1 1_555 1_555
O6 C6 1_555 1_555
O7 C10 1_555 1_555
O8 Tb1 1_555 1_555
O9 Cu1 1_555 1_555
H3 O9 1_555 1_555
H4 O9 1_555 1_555
O10 Tb1 1_555 1_555
H5 O10 1_555 1_555
H6 O10 1_555 1_555
O11 Tb1 1_555 1_555
O12 S1 1_555 1_555
O13 S1 1_555 1_555
O14 S1 1_555 1_555
O15 Tb2 1_555 1_555
H7 O15 1_555 1_555
H8 O15 1_555 1_555
O16 Tb2 1_555 1_555
H9 O16 1_555 1_555
H10 O16 1_555 1_555
O17 H11 1_555 1_555
H12 O17 1_555 1_555
S1 O11 1_555 1_555
Tb1B O2 1_555 1_555
Tb1_2 O13 1_555 1_555
Tb2B O1 1_555 1_555
Tb2C O3 1_555 1_555
Tb2B_2 O6 1_555 1_555
Tb2_2 O12 1_555 1_555
O1B Tb2 1_555 1_555
O2B Tb1 1_555 1_555
O3C Tb2 1_555 1_555
O4C Tb2 1_555 1_555
O6B Tb2 1_555 1_555
O12_2 Tb2 1_555 1_555
O13_2 Tb1 1_555 1_555
O14B Tb1 1_555 1_555
Tb2 O8 1_555 1_555
C1 O2 1_555 1_555
C5 O4 1_555 1_555
C6 O5 1_555 1_555
C7 N3 1_555 1_555
C9 N4 1_555 1_555
C10 O8 1_555 1_555
N1 N2 1_555 1_555
N3 N4 1_555 1_555
O4 Tb2C 1_555 1_555
O14 Tb1B 1_555 1_555
Tb1B O2B 1_555 1_555

#END
