
#######################################################################
#
#                 Cambridge Crystallographic Data Centre
#                                CCDC 
#
#######################################################################
#
# If this CIF has been generated from an entry in the Cambridge 
# Structural Database, then it will include bibliographic, chemical, 
# crystal, experimental, refinement or atomic coordinate data resulting 
# from the CCDC's data processing and validation procedures.
#
#######################################################################

data_COWXUJ
_symmetry_cell_setting           monoclinic
_symmetry_space_group_name_H-M   'P 21/c'
_symmetry_Int_Tables_number      14
_space_group_name_Hall           '-P 2ybc'
loop_
_symmetry_equiv_pos_site_id
_symmetry_equiv_pos_as_xyz
1 x,y,z
2 -x,1/2+y,1/2-z
3 -x,-y,-z
4 x,1/2-y,1/2+z
_cell_length_a                   10.5400(16)
_cell_length_b                   14.642(2)
_cell_length_c                   15.809(3)
_cell_angle_alpha                90
_cell_angle_beta                 97.214(3)
_cell_angle_gamma                90
_cell_volume                     2420.44
loop_
_atom_site_label
_atom_site_type_symbol
_atom_site_fract_x
_atom_site_fract_y
_atom_site_fract_z
Sn1 Sn -0.02049(2) 0.77718(2) 0.35541(2)
O1 O -0.08389(15) 0.74933(10) 0.47674(9)
O2 O -0.07855(14) 0.60057(9) 0.44837(8)
O3 O 0.06249(13) 0.67396(10) 0.71605(9)
N1 N 0.13935(16) 0.57182(12) 0.62716(11)
H1 H 0.119(2) 0.5292(17) 0.5985(15)
C1 C -0.10351(18) 0.66532(14) 0.49396(11)
C2 C -0.16182(19) 0.64807(15) 0.57507(12)
H2 H -0.2512 0.6271 0.5603
H3 H -0.1637 0.7060 0.6071
C3 C -0.08740(18) 0.57626(14) 0.63215(12)
H4 H -0.1336 0.5625 0.6815
H5 H -0.0807 0.5191 0.5995
C4 C 0.04475(18) 0.61161(13) 0.66334(11)
C5 C 0.27268(19) 0.58912(14) 0.64241(12)
C6 C 0.3246(2) 0.66805(17) 0.68080(16)
H6 H 0.2704 0.7145 0.6982
C7 C 0.4565(2) 0.6786(2) 0.69358(17)
H7 H 0.4925 0.7324 0.7203
C8 C 0.5357(2) 0.61229(19) 0.66810(16)
H8 H 0.6258 0.6199 0.6781
C9 C 0.4844(2) 0.53505(19) 0.62821(18)
H9 H 0.5390 0.4897 0.6094
C10 C 0.3528(2) 0.52319(16) 0.61530(16)
H10 H 0.3174 0.4696 0.5878
C11 C 0.1604(2) 0.70908(14) 0.37447(14)
H11 H 0.1554 0.6591 0.4161
H12 H 0.1764 0.6809 0.3199
C12 C 0.2730(2) 0.76944(15) 0.40592(16)
H13 H 0.2583 0.7969 0.4611
H14 H 0.2780 0.8198 0.3647
C13 C 0.4006(2) 0.71849(18) 0.41760(18)
H15 H 0.3978 0.6708 0.4617
H16 H 0.4127 0.6876 0.3635
C14 C 0.5140(3) 0.7806(3) 0.4435(2)
H17 H 0.5930 0.7447 0.4485
H18 H 0.5049 0.8089 0.4986
H19 H 0.5172 0.8282 0.4003
C15 C -0.0416(2) 0.92071(14) 0.37785(14)
H20 H 0.0017 0.9363 0.4353
H21 H 0.0000 0.9558 0.3354
C16 C -0.1822(2) 0.94770(15) 0.37163(14)
H22 H -0.2260 0.9274 0.3157
H23 H -0.2217 0.9149 0.4165
C17 C -0.2045(3) 1.04931(17) 0.38106(17)
H24 H -0.1644 1.0826 0.3368
H25 H -0.1628 1.0697 0.4375
C18 C -0.3461(3) 1.0731(2) 0.3728(2)
H26 H -0.3559 1.1390 0.3810
H27 H -0.3864 1.0399 0.4162
H28 H -0.3871 1.0558 0.3160
C19 C -0.1842(2) 0.72148(14) 0.27978(13)
H29 H -0.2470 0.7046 0.3187
H30 H -0.2233 0.7707 0.2422
C20 C -0.1664(2) 0.63998(15) 0.22474(14)
H31 H -0.1319 0.5884 0.2610
H32 H -0.1039 0.6549 0.1850
C21 C -0.2945(2) 0.61169(19) 0.17347(17)
H33 H -0.3568 0.5978 0.2136
H34 H -0.3285 0.6637 0.1375
C22 C -0.2826(3) 0.5305(2) 0.1179(2)
H35 H -0.3667 0.5150 0.0877
H36 H -0.2494 0.4786 0.1531
H37 H -0.2237 0.5446 0.0764
Sn1C Sn -0.02049(2) 0.72282(2) 0.85541(2)
O3C O 0.06249(13) 0.82604(10) 0.21605(9)
loop_
_geom_bond_atom_site_label_1
_geom_bond_atom_site_label_2
_geom_bond_site_symmetry_1
_geom_bond_site_symmetry_2
Sn1 O1 1_555 1_555
O1 C1 1_555 1_555
O2 C1 1_555 1_555
O3 C4 1_555 1_555
N1 H1 1_555 1_555
C1 C2 1_555 1_555
C2 H2 1_555 1_555
H3 C2 1_555 1_555
C3 C2 1_555 1_555
H4 C3 1_555 1_555
H5 C3 1_555 1_555
C4 N1 1_555 1_555
C5 N1 1_555 1_555
C6 C5 1_555 1_555
H6 C6 1_555 1_555
C7 C6 1_555 1_555
H7 C7 1_555 1_555
C8 C7 1_555 1_555
H8 C8 1_555 1_555
C9 C8 1_555 1_555
H9 C9 1_555 1_555
C10 C5 1_555 1_555
H10 C10 1_555 1_555
C11 Sn1 1_555 1_555
H11 C11 1_555 1_555
H12 C11 1_555 1_555
C12 C11 1_555 1_555
H13 C12 1_555 1_555
H14 C12 1_555 1_555
C13 C12 1_555 1_555
H15 C13 1_555 1_555
H16 C13 1_555 1_555
C14 C13 1_555 1_555
H17 C14 1_555 1_555
H18 C14 1_555 1_555
H19 C14 1_555 1_555
C15 Sn1 1_555 1_555
H20 C15 1_555 1_555
H21 C15 1_555 1_555
C16 C15 1_555 1_555
H22 C16 1_555 1_555
H23 C16 1_555 1_555
C17 C16 1_555 1_555
H24 C17 1_555 1_555
H25 C17 1_555 1_555
C18 C17 1_555 1_555
H26 C18 1_555 1_555
H27 C18 1_555 1_555
H28 C18 1_555 1_555
C19 Sn1 1_555 1_555
H29 C19 1_555 1_555
H30 C19 1_555 1_555
C20 C19 1_555 1_555
H31 C20 1_555 1_555
H32 C20 1_555 1_555
C21 C20 1_555 1_555
H33 C21 1_555 1_555
H34 C21 1_555 1_555
C22 C21 1_555 1_555
H35 C22 1_555 1_555
H36 C22 1_555 1_555
H37 C22 1_555 1_555
Sn1C O3 1_555 1_555
O3C Sn1 1_555 1_555
C3 C4 1_555 1_555
C9 C10 1_555 1_555

#END
