
#######################################################################
#
#                 Cambridge Crystallographic Data Centre
#                                CCDC 
#
#######################################################################
#
# If this CIF has been generated from an entry in the Cambridge 
# Structural Database, then it will include bibliographic, chemical, 
# crystal, experimental, refinement or atomic coordinate data resulting 
# from the CCDC's data processing and validation procedures.
#
#######################################################################

data_COWXAO01
_symmetry_cell_setting           monoclinic
_symmetry_space_group_name_H-M   'C 2/c'
_symmetry_Int_Tables_number      15
_space_group_name_Hall           '-C 2yn'
loop_
_symmetry_equiv_pos_site_id
_symmetry_equiv_pos_as_xyz
1 x,y,z
2 -x,y,1/2-z
3 1/2+x,1/2+y,z
4 1/2-x,1/2+y,1/2-z
5 -x,-y,-z
6 x,-y,1/2+z
7 1/2-x,1/2-y,-z
8 1/2+x,1/2-y,1/2+z
_cell_length_a                   23.344(5)
_cell_length_b                   9.863(2)
_cell_length_c                   21.099(4)
_cell_angle_alpha                90
_cell_angle_beta                 108.23(3)
_cell_angle_gamma                90
_cell_volume                     4614.05
loop_
_atom_site_label
_atom_site_type_symbol
_atom_site_fract_x
_atom_site_fract_y
_atom_site_fract_z
Zn1 Zn -0.03629(2) 0.15581(4) 0.54994(2)
O1 O -0.00247(12) 0.9910(2) 0.60085(12)
O2 O -0.02496(11) 0.8555(2) 0.51206(12)
O3 O -0.02912(11) 0.3628(2) 0.55629(12)
O4 O 0.04813(12) 0.2783(2) 0.63425(13)
O5 O 0.10521(13) 0.7918(3) 0.82839(13)
O6 O 0.14792(14) 0.5908(3) 0.82489(13)
N1 N -0.10876(13) 0.1559(3) 0.46022(14)
N2 N -0.40407(14) 0.3288(3) 0.38787(15)
N3 N -0.30613(16) 0.1026(3) -0.03982(15)
N4 N -0.23495(14) 0.1344(3) 0.21420(14)
N5 N -0.32893(15) 0.2091(3) 0.18997(15)
C1 C -0.12780(17) 0.0446(4) 0.42411(18)
H1 H -0.1107 -0.0383 0.4411
C2 C -0.17183(18) 0.0468(4) 0.36253(19)
H2 H -0.1837 -0.0333 0.3388
C3 C -0.19805(16) 0.1680(4) 0.33640(17)
C4 C -0.17809(17) 0.2836(4) 0.37398(18)
H3 H -0.1948 0.3674 0.3584
C5 C -0.13378(16) 0.2743(4) 0.43397(17)
H4 H -0.1202 0.3536 0.4578
C6 C -0.24573(16) 0.1741(4) 0.27163(17)
C7 C -0.30409(16) 0.2190(4) 0.25806(17)
C8 C -0.33805(16) 0.2621(4) 0.30192(17)
C9 C -0.32270(18) 0.2114(4) 0.36668(19)
H5 H -0.2897 0.1540 0.3827
C10 C -0.35643(19) 0.2464(4) 0.40632(19)
H6 H -0.3455 0.2105 0.4492
C11 C -0.41744(19) 0.3794(4) 0.32637(19)
H7 H -0.4498 0.4390 0.3123
C12 C -0.38653(18) 0.3494(4) 0.28253(19)
H8 H -0.3982 0.3876 0.2401
C13 C -0.28632(16) 0.1582(4) 0.16607(17)
C14 C -0.29404(16) 0.1367(3) 0.09529(17)
C15 C -0.34684(18) 0.1703(4) 0.04614(17)
H9 H -0.3795 0.2047 0.0573
C16 C -0.35032(19) 0.1522(4) -0.01994(19)
H10 H -0.3860 0.1763 -0.0525
C17 C -0.25578(19) 0.0691(4) 0.0081(2)
H11 H -0.2242 0.0327 -0.0045
C18 C -0.24748(18) 0.0854(4) 0.07565(18)
H12 H -0.2110 0.0619 0.1071
C19 C 0.11070(18) 0.6920(4) 0.79855(18)
C20 C 0.07532(16) 0.6684(4) 0.72652(17)
C21 C 0.06577(17) 0.5376(3) 0.70066(17)
H13 H 0.0826 0.4639 0.7275
C22 C 0.03106(16) 0.5171(3) 0.63463(17)
C23 C 0.01669(16) 0.3768(3) 0.60702(18)
C24 C 0.00886(16) 0.6284(3) 0.59441(17)
H14 H -0.0130 0.6153 0.5497
C25 C 0.01866(16) 0.7585(3) 0.61950(17)
C26 C 0.05032(17) 0.7776(4) 0.68622(17)
H15 H 0.0548 0.8646 0.7041
C27 C -0.00528(16) 0.8765(4) 0.57365(18)
H16 H -0.3658(16) 0.216(3) 0.1680(17)
Zn1F Zn -0.46371(2) 0.34419(4) 0.45006(2)
Zn1D Zn 0.03629(2) 0.84419(4) 0.45006(2)
Zn1_2 Zn -0.03629(2) 1.15581(4) 0.54994(2)
O1_2 O -0.00247(12) -0.0090(2) 0.60085(12)
O2D O 0.02496(11) 0.1445(2) 0.48794(12)
N2F N -0.09593(14) 0.1712(3) 0.61213(15)
loop_
_geom_bond_atom_site_label_1
_geom_bond_atom_site_label_2
_geom_bond_site_symmetry_1
_geom_bond_site_symmetry_2
Zn1 O3 1_555 1_555
O1 C27 1_555 1_555
O2 C27 1_555 1_555
O3 C23 1_555 1_555
O4 Zn1 1_555 1_555
O5 C19 1_555 1_555
O6 C19 1_555 1_555
N1 Zn1 1_555 1_555
N2 C10 1_555 1_555
N3 C16 1_555 1_555
N4 C6 1_555 1_555
N5 C7 1_555 1_555
C1 N1 1_555 1_555
H1 C1 1_555 1_555
C2 C1 1_555 1_555
H2 C2 1_555 1_555
C3 C2 1_555 1_555
C4 C3 1_555 1_555
H3 C4 1_555 1_555
C5 N1 1_555 1_555
H4 C5 1_555 1_555
C6 C3 1_555 1_555
C7 C6 1_555 1_555
C8 C7 1_555 1_555
C9 C8 1_555 1_555
H5 C9 1_555 1_555
C10 C9 1_555 1_555
H6 C10 1_555 1_555
C11 N2 1_555 1_555
H7 C11 1_555 1_555
C12 C8 1_555 1_555
H8 C12 1_555 1_555
C13 N4 1_555 1_555
C14 C13 1_555 1_555
C15 C14 1_555 1_555
H9 C15 1_555 1_555
C16 C15 1_555 1_555
H10 C16 1_555 1_555
C17 N3 1_555 1_555
H11 C17 1_555 1_555
C18 C14 1_555 1_555
H12 C18 1_555 1_555
C19 C20 1_555 1_555
C20 C21 1_555 1_555
C21 H13 1_555 1_555
C22 C21 1_555 1_555
C23 O4 1_555 1_555
C24 C22 1_555 1_555
H14 C24 1_555 1_555
C25 C24 1_555 1_555
C26 C20 1_555 1_555
H15 C26 1_555 1_555
C27 C25 1_555 1_555
H16 N5 1_555 1_555
Zn1F N2 1_555 1_555
Zn1D O2 1_555 1_555
Zn1_2 O1 1_555 1_555
O1_2 Zn1 1_555 1_555
O2D Zn1 1_555 1_555
N2F Zn1 1_555 1_555
N5 C13 1_555 1_555
C4 C5 1_555 1_555
C11 C12 1_555 1_555
C17 C18 1_555 1_555
C22 C23 1_555 1_555
C25 C26 1_555 1_555

#END
