
#######################################################################
#
#                 Cambridge Crystallographic Data Centre
#                                CCDC 
#
#######################################################################
#
# If this CIF has been generated from an entry in the Cambridge 
# Structural Database, then it will include bibliographic, chemical, 
# crystal, experimental, refinement or atomic coordinate data resulting 
# from the CCDC's data processing and validation procedures.
#
#######################################################################

data_COWXAO
_symmetry_cell_setting           monoclinic
_symmetry_space_group_name_H-M   'C 2/c'
_symmetry_Int_Tables_number      15
_space_group_name_Hall           '-C 2yn'
loop_
_symmetry_equiv_pos_site_id
_symmetry_equiv_pos_as_xyz
1 x,y,z
2 -x,y,1/2-z
3 1/2+x,1/2+y,z
4 1/2-x,1/2+y,1/2-z
5 -x,-y,-z
6 x,-y,1/2+z
7 1/2-x,1/2-y,-z
8 1/2+x,1/2-y,1/2+z
_cell_length_a                   23.375(5)
_cell_length_b                   9.8795(16)
_cell_length_c                   21.142(4)
_cell_angle_alpha                90
_cell_angle_beta                 108.259(3)
_cell_angle_gamma                90
_cell_volume                     4636.56
loop_
_atom_site_label
_atom_site_type_symbol
_atom_site_fract_x
_atom_site_fract_y
_atom_site_fract_z
C1 C 0.51785(17) 0.7408(4) 0.6192(2)
C2 C 0.54976(18) 0.7205(4) 0.68611(19)
H1 H 0.5545 0.6336 0.7039
C3 C 0.57444(18) 0.8304(4) 0.7260(2)
C4 C 0.56534(18) 0.9620(4) 0.7004(2)
H2 H 0.5825 1.0353 0.7273
C5 C 0.53043(17) 0.9825(4) 0.63469(19)
C6 C 0.50797(17) 0.8727(4) 0.59345(19)
H3 H 0.4864 0.8865 0.5488
C7 C 0.49421(18) 0.6224(4) 0.5731(2)
C8 C 0.61011(19) 0.8080(4) 0.7979(2)
C9 C 0.51659(17) 1.1224(4) 0.60696(19)
C10 C 0.25413(17) 0.3280(4) 0.27112(19)
C11 C 0.19517(17) 0.2835(4) 0.25715(19)
C12 C 0.21315(18) 0.3444(4) 0.1657(2)
C13 C 0.30203(18) 0.3328(4) 0.3363(2)
C14 C 0.32149(18) 0.2163(4) 0.3732(2)
H4 H 0.3046 0.1328 0.3573
C15 C 0.36622(18) 0.2254(4) 0.43400(19)
H5 H 0.3796 0.1464 0.4580
C16 C 0.37214(18) 0.4567(4) 0.4240(2)
H6 H 0.3889 0.5394 0.4413
C17 C 0.32826(19) 0.4549(4) 0.3618(2)
H7 H 0.3167 0.5346 0.3377
C18 C 0.16131(19) 0.2400(4) 0.3017(2)
C19 C 0.17674(19) 0.2918(4) 0.3661(2)
H8 H 0.2095 0.3498 0.3817
C20 C 0.14339(19) 0.2565(5) 0.4059(2)
H9 H 0.1545 0.2919 0.4488
C21 C 0.0825(2) 0.1193(4) 0.3261(2)
H10 H 0.0512 0.0570 0.3127
C22 C 0.11351(19) 0.1514(4) 0.2821(2)
H11 H 0.1022 0.1135 0.2397
C23 C 0.20622(18) 0.3651(4) 0.0952(2)
C24 C 0.15294(19) 0.3310(5) 0.0455(2)
H12 H 0.1201 0.2966 0.0562
C25 C 0.15049(19) 0.3498(4) -0.0199(2)
H13 H 0.1151 0.3256 -0.0529
C26 C 0.2454(2) 0.4336(5) 0.0084(2)
H14 H 0.2767 0.4704 -0.0044
C27 C 0.2541(2) 0.4167(4) 0.0762(2)
H15 H 0.2906 0.4391 0.1078
N1 N 0.26496(16) 0.3674(4) 0.21418(17)
N2 N 0.17039(16) 0.2930(3) 0.18955(16)
H16 H 0.1344 0.2704 0.1665
N3 N 0.39133(15) 0.3446(3) 0.46009(17)
N4 N 0.09542(16) 0.1738(3) 0.38714(17)
N5 N 0.19480(18) 0.3998(4) -0.03896(18)
O1 O 0.47532(14) 0.6433(3) 0.51157(15)
O2 O 0.49594(13) 0.5099(3) 0.60007(14)
O3 O 0.60414(14) 0.7075(3) 0.82805(14)
O4 O 0.64740(15) 0.9090(3) 0.82416(17)
H17 H 0.6373 0.9464 0.8612
O5 O 0.54801(12) 1.2207(3) 0.63405(14)
O6 O 0.47091(12) 1.1382(3) 0.55609(14)
Zn1 Zn 0.46355(2) 0.34375(5) 0.54971(3)
N4F N 0.40458(16) 0.3262(3) 0.61286(17)
O1D O 0.52468(14) 0.3567(3) 0.48843(15)
O6_2 O 0.47091(12) 0.1382(3) 0.55609(14)
Zn1F Zn 0.03645(2) 0.15625(5) 0.45029(3)
Zn1D Zn 0.53645(2) 0.65625(5) 0.45029(3)
Zn1_2 Zn 0.46355(2) 1.34375(5) 0.54971(3)
loop_
_geom_bond_atom_site_label_1
_geom_bond_atom_site_label_2
_geom_bond_site_symmetry_1
_geom_bond_site_symmetry_2
C1 C2 1_555 1_555
C2 H1 1_555 1_555
C3 C2 1_555 1_555
C4 C3 1_555 1_555
H2 C4 1_555 1_555
C5 C4 1_555 1_555
C6 C1 1_555 1_555
H3 C6 1_555 1_555
C7 C1 1_555 1_555
C8 C3 1_555 1_555
C9 C5 1_555 1_555
C10 C11 1_555 1_555
C11 C18 1_555 1_555
C12 C23 1_555 1_555
C13 C10 1_555 1_555
C14 C13 1_555 1_555
H4 C14 1_555 1_555
C15 C14 1_555 1_555
H5 C15 1_555 1_555
C16 H6 1_555 1_555
C17 C13 1_555 1_555
H7 C17 1_555 1_555
C18 C19 1_555 1_555
C19 H8 1_555 1_555
C20 C19 1_555 1_555
H9 C20 1_555 1_555
C21 H10 1_555 1_555
C22 C18 1_555 1_555
H11 C22 1_555 1_555
C23 C24 1_555 1_555
C24 H12 1_555 1_555
C25 C24 1_555 1_555
H13 C25 1_555 1_555
C26 H14 1_555 1_555
C27 C23 1_555 1_555
H15 C27 1_555 1_555
N1 C10 1_555 1_555
N2 C11 1_555 1_555
H16 N2 1_555 1_555
N3 C15 1_555 1_555
N4 C20 1_555 1_555
N5 C25 1_555 1_555
O1 C7 1_555 1_555
O2 C7 1_555 1_555
O3 C8 1_555 1_555
O4 C8 1_555 1_555
H17 O4 1_555 1_555
O5 C9 1_555 1_555
O6 C9 1_555 1_555
Zn1 N3 1_555 1_555
N4F Zn1 1_555 1_555
O1D Zn1 1_555 1_555
O6_2 Zn1 1_555 1_555
Zn1F N4 1_555 1_555
Zn1D O1 1_555 1_555
Zn1_2 O6 1_555 1_555
C5 C6 1_555 1_555
C12 N1 1_555 1_555
C12 N2 1_555 1_555
C16 C17 1_555 1_555
C16 N3 1_555 1_555
C21 C22 1_555 1_555
C21 N4 1_555 1_555
C26 C27 1_555 1_555
C26 N5 1_555 1_555
O2 Zn1 1_555 1_555

#END
