
#######################################################################
#
#                 Cambridge Crystallographic Data Centre
#                                CCDC 
#
#######################################################################
#
# If this CIF has been generated from an entry in the Cambridge 
# Structural Database, then it will include bibliographic, chemical, 
# crystal, experimental, refinement or atomic coordinate data resulting 
# from the CCDC's data processing and validation procedures.
#
#######################################################################

data_COXGEC
_symmetry_cell_setting           triclinic
_symmetry_space_group_name_H-M   'P -1'
_symmetry_Int_Tables_number      2
_space_group_name_Hall           '-P 1'
loop_
_symmetry_equiv_pos_site_id
_symmetry_equiv_pos_as_xyz
1 x,y,z
2 -x,-y,-z
_cell_length_a                   7.1824(8)
_cell_length_b                   11.5203(12)
_cell_length_c                   14.1814(15)
_cell_angle_alpha                95.051(2)
_cell_angle_beta                 99.992(2)
_cell_angle_gamma                102.446(2)
_cell_volume                     1118.82
loop_
_atom_site_label
_atom_site_type_symbol
_atom_site_fract_x
_atom_site_fract_y
_atom_site_fract_z
N1 N 0.3780(6) 1.0443(4) 0.8828(3)
Cu1 Cu -0.13586(8) 0.04847(5) 0.51965(4)
Cu2 Cu 0.17705(9) 0.24144(6) 0.26578(4)
Cu3 Cu 0.41181(10) 1.20002(6) 0.96754(5)
Cu4 Cu 1.0000 1.5000 1.0000
N2 N 0.2330(5) 0.4906(3) 0.5925(3)
N3 N 0.0263(6) 0.1118(4) 0.4238(4)
C1 C 0.2120(6) 0.4941(4) 0.6843(3)
C2 C 0.3077(6) 0.7083(4) 0.7083(3)
C3 C 0.0620(7) 0.2780(4) 0.6395(4)
C4 C 0.2914(6) 0.5927(4) 0.5569(3)
C5 C 0.0923(6) 0.1624(4) 0.3677(3)
N4 N 0.2504(6) 0.4265(4) 0.3138(3)
C6 C 0.3282(7) 0.7033(4) 0.6123(3)
C7 C 0.3074(7) 0.5740(4) 0.4536(3)
C8 C 0.4629(8) 1.0359(5) 0.8063(4)
C9 C 0.3826(8) 0.6621(5) 0.4010(4)
N5 N -0.0161(6) 0.1668(3) 0.6518(3)
C10 C 0.3360(6) 0.8250(4) 0.7687(3)
C11 C 0.2425(7) 0.4584(5) 0.4053(3)
C12 C 0.4469(7) 0.9311(4) 0.7487(4)
C13 C 0.2195(7) 1.2116(5) 1.1406(3)
C14 C 0.1257(8) 0.3493(5) 0.8043(4)
C15 C 0.1350(6) 0.3741(4) 0.7121(3)
C16 C 0.3228(8) 0.5144(5) 0.2646(4)
C17 C 0.3875(8) 0.6319(5) 0.3056(4)
C18 C 0.2494(7) 0.8339(5) 0.8481(4)
C19 C 0.2724(8) 0.9426(5) 0.9013(4)
C20 C 0.0449(9) 0.2340(5) 0.8189(4)
C21 C 0.2515(7) 0.6009(4) 0.7442(3)
N6 N 0.2613(7) 1.1979(5) 1.0667(4)
C22 C 0.7657(9) 1.3976(6) 0.9720(4)
N7 N 0.6255(10) 1.3271(6) 0.9597(4)
N8 N -0.4169(5) 0.0097(4) 0.5039(3)
C23 C -0.0243(7) 0.1454(5) 0.7421(4)
H1 H 0.507(7) 0.928(4) 0.697(4)
H2 H 0.239(7) 0.604(4) 0.805(4)
H3 H 0.175(8) 0.406(5) 0.856(4)
H4 H 0.325(6) 0.492(4) 0.200(3)
H5 H 0.189(7) 0.395(4) 0.436(3)
H6 H 0.217(7) 0.949(4) 0.948(4)
H7 H 0.360(7) 0.765(4) 0.589(3)
H8 H 0.186(7) 0.769(5) 0.867(3)
H9 H 0.531(8) 1.102(5) 0.795(4)
H10 H 0.439(8) 0.688(5) 0.267(4)
H11 H 0.038(8) 0.217(5) 0.870(4)
H12 H -0.071(8) 0.069(5) 0.750(4)
H13 H 0.062(7) 0.291(4) 0.579(4)
H14 H 0.433(7) 0.736(5) 0.428(4)
N1A N 1.6220(6) 1.9557(4) 1.1172(3)
Cu1A Cu 2.13586(8) 2.95153(5) 1.48035(4)
Cu1A_2 Cu -0.86414(8) -0.04847(5) 0.48035(4)
Cu2A Cu 1.82295(9) 2.75856(6) 1.73422(4)
Cu2_2 Cu 0.17705(9) 1.24144(6) 1.26578(4)
Cu2A_2 Cu 1.82295(9) 1.75856(6) 0.73422(4)
Cu3A Cu 1.58819(10) 1.79998(6) 1.03246(5)
N2A N 1.7670(5) 2.5094(3) 1.4075(3)
N3A N 1.9737(6) 2.8882(4) 1.5762(4)
C1A C 1.7880(6) 2.5059(4) 1.3157(3)
C2A C 1.6923(6) 2.2917(4) 1.2917(3)
C3A C 1.9380(7) 2.7220(4) 1.3605(4)
C4A C 1.7086(6) 2.4073(4) 1.4431(3)
C5A C 1.9077(6) 2.8376(4) 1.6323(3)
N4A N 1.7496(6) 2.5735(4) 1.6862(3)
C6A C 1.6718(7) 2.2967(4) 1.3877(3)
C7A C 1.6926(7) 2.4260(4) 1.5464(3)
C8A C 1.5371(8) 1.9641(5) 1.1937(4)
C9A C 1.6174(8) 2.3379(5) 1.5990(4)
N5A N 2.0161(6) 2.8332(3) 1.3482(3)
C10A C 1.6640(6) 2.1750(4) 1.2313(3)
C11A C 1.7575(7) 2.5416(5) 1.5947(3)
C12A C 1.5531(7) 2.0689(4) 1.2513(4)
C13A C 1.7805(7) 1.7884(5) 0.8594(3)
C13_2 C 0.2195(7) 0.2116(5) 0.1406(3)
C13A_2 C 1.7805(7) 2.7884(5) 1.8594(3)
C14A C 1.8743(8) 2.6507(5) 1.1957(4)
C15A C 1.8650(6) 2.6259(4) 1.2879(3)
C16A C 1.6772(8) 2.4856(5) 1.7354(4)
C17A C 1.6125(8) 2.3681(5) 1.6944(4)
C18A C 1.7506(7) 2.1661(5) 1.1519(4)
C19A C 1.7276(8) 2.0574(5) 1.0987(4)
C20A C 1.9551(9) 2.7660(5) 1.1811(4)
C21A C 1.7485(7) 2.3991(4) 1.2558(3)
N6A N 1.7387(7) 1.8021(5) 0.9333(4)
C22A C 1.2343(9) 1.6024(6) 1.0280(4)
N7A N 1.3745(10) 1.6729(6) 1.0403(4)
N8A N -0.5831(5) -0.0097(4) 0.4961(3)
N8A_2 N 2.4169(5) 2.9903(4) 1.4961(3)
C23A C 2.0243(7) 2.8546(5) 1.2579(4)
H1A H 1.493(7) 2.072(4) 1.303(4)
H2A H 1.761(7) 2.396(4) 1.195(4)
H3A H 1.825(8) 2.594(5) 1.144(4)
H4A H 1.675(6) 2.508(4) 1.800(3)
H5A H 1.811(7) 2.605(4) 1.564(3)
H6A H 1.783(7) 2.051(4) 1.052(4)
H7A H 1.640(7) 2.235(4) 1.411(3)
H8A H 1.814(7) 2.231(5) 1.133(3)
H9A H 1.469(8) 1.898(5) 1.205(4)
H10A H 1.561(8) 2.312(5) 1.733(4)
H11A H 1.962(8) 2.783(5) 1.130(4)
H12A H 2.071(8) 2.931(5) 1.250(4)
H13A H 1.938(7) 2.709(4) 1.421(4)
H14A H 1.567(7) 2.264(5) 1.572(4)
loop_
_geom_bond_atom_site_label_1
_geom_bond_atom_site_label_2
_geom_bond_site_symmetry_1
_geom_bond_site_symmetry_2
N1 Cu3 1_555 1_555
Cu1 N3 1_555 1_555
Cu2 C5 1_555 1_555
Cu3 N6 1_555 1_555
Cu4 C22 1_555 1_555
N2 C1 1_555 1_555
N3 C5 1_555 1_555
C1 C15 1_555 1_555
C2 C6 1_555 1_555
C3 N5 1_555 1_555
C4 N2 1_555 1_555
N4 Cu2 1_555 1_555
C6 C4 1_555 1_555
C7 C4 1_555 1_555
C8 N1 1_555 1_555
C9 C7 1_555 1_555
N5 Cu1 1_555 1_555
C10 C2 1_555 1_555
C11 N4 1_555 1_555
C12 C8 1_555 1_555
C13 N6 1_555 1_555
C14 C15 1_555 1_555
C15 C3 1_555 1_555
C16 N4 1_555 1_555
C17 C9 1_555 1_555
C18 C10 1_555 1_555
C19 N1 1_555 1_555
C20 C14 1_555 1_555
C21 C1 1_555 1_555
C22 N7 1_555 1_555
N7 Cu3 1_555 1_555
N8 Cu1 1_555 1_555
C23 N5 1_555 1_555
H1 C12 1_555 1_555
H2 C21 1_555 1_555
H3 C14 1_555 1_555
H4 C16 1_555 1_555
H5 C11 1_555 1_555
H6 C19 1_555 1_555
H7 C6 1_555 1_555
H8 C18 1_555 1_555
H9 C8 1_555 1_555
H10 C17 1_555 1_555
H11 C20 1_555 1_555
H12 C23 1_555 1_555
H13 C3 1_555 1_555
H14 C9 1_555 1_555
N1A Cu3A 1_555 1_555
Cu1A N3A 1_555 1_555
Cu1A_2 N8A 1_555 1_555
Cu2A C5A 1_555 1_555
Cu2_2 C13 1_555 1_555
Cu2A_2 C13A 1_555 1_555
Cu3A N6A 1_555 1_555
N2A C1A 1_555 1_555
N3A C5A 1_555 1_555
C1A C15A 1_555 1_555
C2A C6A 1_555 1_555
C3A N5A 1_555 1_555
C4A N2A 1_555 1_555
N4A Cu2A 1_555 1_555
C6A C4A 1_555 1_555
C7A C4A 1_555 1_555
C8A N1A 1_555 1_555
C9A C7A 1_555 1_555
N5A Cu1A 1_555 1_555
C10A C2A 1_555 1_555
C11A N4A 1_555 1_555
C12A C8A 1_555 1_555
C13A N6A 1_555 1_555
C13_2 Cu2 1_555 1_555
C13A_2 Cu2A 1_555 1_555
C14A C15A 1_555 1_555
C15A C3A 1_555 1_555
C16A N4A 1_555 1_555
C17A C9A 1_555 1_555
C18A C10A 1_555 1_555
C19A N1A 1_555 1_555
C20A C14A 1_555 1_555
C21A C1A 1_555 1_555
C22A Cu4 1_555 1_555
N7A Cu3A 1_555 1_555
N8A N8 1_555 1_555
N8A_2 Cu1A 1_555 1_555
C23A N5A 1_555 1_555
H1A C12A 1_555 1_555
H2A C21A 1_555 1_555
H3A C14A 1_555 1_555
H4A C16A 1_555 1_555
H5A C11A 1_555 1_555
H6A C19A 1_555 1_555
H7A C6A 1_555 1_555
H8A C18A 1_555 1_555
H9A C8A 1_555 1_555
H10A C17A 1_555 1_555
H11A C20A 1_555 1_555
H12A C23A 1_555 1_555
H13A C3A 1_555 1_555
H14A C9A 1_555 1_555
C2 C21 1_555 1_555
C7 C11 1_555 1_555
C10 C12 1_555 1_555
C16 C17 1_555 1_555
C18 C19 1_555 1_555
C20 C23 1_555 1_555
C2A C21A 1_555 1_555
C7A C11A 1_555 1_555
C10A C12A 1_555 1_555
C16A C17A 1_555 1_555
C18A C19A 1_555 1_555
C20A C23A 1_555 1_555
C22A N7A 1_555 1_555

#END
