
#######################################################################
#
#                 Cambridge Crystallographic Data Centre
#                                CCDC 
#
#######################################################################
#
# If this CIF has been generated from an entry in the Cambridge 
# Structural Database, then it will include bibliographic, chemical, 
# crystal, experimental, refinement or atomic coordinate data resulting 
# from the CCDC's data processing and validation procedures.
#
#######################################################################

data_COXKUX
_symmetry_cell_setting           triclinic
_symmetry_space_group_name_H-M   'P -1'
_symmetry_Int_Tables_number      2
_space_group_name_Hall           '-P 1'
loop_
_symmetry_equiv_pos_site_id
_symmetry_equiv_pos_as_xyz
1 x,y,z
2 -x,-y,-z
_cell_length_a                   5.4746(3)
_cell_length_b                   8.6593(6)
_cell_length_c                   16.2149(10)
_cell_angle_alpha                96.356(3)
_cell_angle_beta                 99.489(2)
_cell_angle_gamma                90.136(2)
_cell_volume                     753.342
loop_
_atom_site_label
_atom_site_type_symbol
_atom_site_fract_x
_atom_site_fract_y
_atom_site_fract_z
P1 P 0.5548(5) 0.9435(3) 0.86574(17)
O1 O 0.6965(16) 0.8179(9) 0.9086(5)
O2 O 0.6520(16) 1.1053(9) 0.8971(6)
O3 O 0.2745(15) 0.9308(9) 0.8774(5)
C1 C 0.556(2) 0.9075(14) 0.7552(7)
C2 C 0.389(4) 0.802(2) 0.7032(9)
H1 H 0.2771 0.7492 0.7278
C3 C 0.380(4) 0.774(3) 0.6192(11)
H2 H 0.2590 0.7072 0.5864
C4 C 0.558(5) 0.846(3) 0.5827(12)
H3 H 0.5608 0.8232 0.5255
C5 C 0.721(4) 0.947(3) 0.6287(13)
H4 H 0.8341 0.9978 0.6033
C6 C 0.724(4) 0.978(2) 0.7173(11)
H5 H 0.8426 1.0468 0.7496
Ag1 Ag 0.94411(19) 0.86508(10) 1.03869(6)
Ag2 Ag 0.57160(19) 1.34339(11) 0.96972(6)
P2 P 0.9466(5) 0.5024(3) 1.13114(16)
O4 O 0.8436(15) 0.6317(9) 1.0813(6)
O5 O 0.8059(15) 0.3507(9) 1.1046(6)
O6 O 1.2272(15) 0.4778(9) 1.1226(5)
C7 C 0.945(2) 0.5621(14) 1.2388(6)
C8 C 1.117(3) 0.509(2) 1.3020(8)
H6 H 1.2385 0.4415 1.2875
C9 C 1.111(4) 0.556(3) 1.3859(10)
H7 H 1.2258 0.5182 1.4274
C10 C 0.932(5) 0.658(3) 1.4080(11)
H8 H 0.9336 0.6927 1.4644
C11 C 0.757(4) 0.707(3) 1.3489(12)
H9 H 0.6297 0.7694 1.3646
C12 C 0.767(3) 0.664(2) 1.2631(9)
H10 H 0.6531 0.7048 1.2222
O2A O 1.3480(16) 0.8947(9) 1.1029(6)
O3A O 0.7255(15) 1.0692(9) 1.1226(5)
Ag1A Ag 0.05589(19) 1.13492(10) 0.96131(6)
Ag1A_2 Ag 1.05589(19) 1.13492(10) 0.96131(6)
Ag2_2 Ag 0.57160(19) 0.34339(11) 0.96972(6)
Ag2A Ag 0.42840(19) 0.65661(11) 1.03028(6)
Ag2A_2 Ag 1.42840(19) 0.65661(11) 1.03028(6)
O4A O 0.1564(15) 1.3683(9) 0.9187(6)
O5_2 O 0.8059(15) 1.3507(9) 1.1046(6)
O6A O 0.7728(15) 1.5222(9) 0.8774(5)
loop_
_geom_bond_atom_site_label_1
_geom_bond_atom_site_label_2
_geom_bond_site_symmetry_1
_geom_bond_site_symmetry_2
P1 O1 1_555 1_555
O1 Ag1 1_555 1_555
O2 P1 1_555 1_555
O3 P1 1_555 1_555
C1 P1 1_555 1_555
C2 C1 1_555 1_555
H1 C2 1_555 1_555
C3 C2 1_555 1_555
H2 C3 1_555 1_555
C4 C3 1_555 1_555
H3 C4 1_555 1_555
C5 C4 1_555 1_555
H4 C5 1_555 1_555
C6 C1 1_555 1_555
H5 C6 1_555 1_555
Ag1 O4 1_555 1_555
Ag2 O2 1_555 1_555
P2 O4 1_555 1_555
O4 Ag2A 1_555 1_555
O5 P2 1_555 1_555
O6 P2 1_555 1_555
C7 P2 1_555 1_555
C8 C7 1_555 1_555
H6 C8 1_555 1_555
C9 C8 1_555 1_555
H7 C9 1_555 1_555
C10 C9 1_555 1_555
H8 C10 1_555 1_555
C11 C10 1_555 1_555
H9 C11 1_555 1_555
C12 C7 1_555 1_555
H10 C12 1_555 1_555
O2A Ag1 1_555 1_555
O3A Ag1 1_555 1_555
Ag1A O3 1_555 1_555
Ag1A_2 O2 1_555 1_555
Ag2_2 O5 1_555 1_555
Ag2A_2 O6 1_555 1_555
O4A Ag2 1_555 1_555
O5_2 Ag2 1_555 1_555
O6A Ag2 1_555 1_555
C5 C6 1_555 1_555
C11 C12 1_555 1_555
O2A Ag2A_2 1_555 1_555
Ag1A O4A 1_555 1_555

#END
