
#######################################################################
#
#                 Cambridge Crystallographic Data Centre
#                                CCDC 
#
#######################################################################
#
# If this CIF has been generated from an entry in the Cambridge 
# Structural Database, then it will include bibliographic, chemical, 
# crystal, experimental, refinement or atomic coordinate data resulting 
# from the CCDC's data processing and validation procedures.
#
#######################################################################

data_COXKUW
_symmetry_cell_setting           monoclinic
_symmetry_space_group_name_H-M   'P 21/c'
_symmetry_Int_Tables_number      14
_space_group_name_Hall           '-P 2ybc'
loop_
_symmetry_equiv_pos_site_id
_symmetry_equiv_pos_as_xyz
1 x,y,z
2 -x,1/2+y,1/2-z
3 -x,-y,-z
4 x,1/2-y,1/2+z
_cell_length_a                   5.1187(9)
_cell_length_b                   16.019(3)
_cell_length_c                   8.556(2)
_cell_angle_alpha                90
_cell_angle_beta                 90.693(19)
_cell_angle_gamma                90
_cell_volume                     701.51
loop_
_atom_site_label
_atom_site_type_symbol
_atom_site_fract_x
_atom_site_fract_y
_atom_site_fract_z
Li1 Li -0.2040(6) 0.4473(2) 0.4633(4)
C1 C 0.2636(4) 0.28616(11) 0.5203(2)
C2 C 0.4040(4) 0.22383(11) 0.5981(2)
H1 H 0.5461 0.2382 0.6654
C3 C 0.3344(4) 0.13999(11) 0.5767(2)
C4 C 0.1346(4) 0.11892(12) 0.4716(2)
H2 H 0.0906 0.0620 0.4551
C5 C 0.0002(4) 0.18089(12) 0.3911(2)
H3 H -0.1338 0.1664 0.3183
C6 C 0.0622(4) 0.26445(12) 0.4175(2)
H4 H -0.0339 0.3069 0.3649
C7 C 0.3277(3) 0.37658(11) 0.5502(2)
C8 C 0.4633(4) 0.07533(11) 0.6762(2)
O1 O 0.1599(3) 0.43093(8) 0.51279(17)
O2 O 0.5484(2) 0.39433(8) 0.61105(16)
O3 O 0.3541(3) 0.00050(8) 0.66438(17)
H5 H 0.427(5) -0.0354(17) 0.745(3)
O4 O 0.6465(3) 0.09041(8) 0.76500(17)
Li1B Li 0.2040(6) 0.5527(2) 0.5367(4)
Li1_2 Li 0.7960(6) 0.4473(2) 0.4633(4)
Li1C Li 0.7960(6) 0.0527(2) 0.9633(4)
O1B O -0.1599(3) 0.56907(8) 0.48721(17)
O2_2 O -0.4516(2) 0.39433(8) 0.61105(16)
O4C O -0.3535(3) 0.40959(8) 0.26500(17)
loop_
_geom_bond_atom_site_label_1
_geom_bond_atom_site_label_2
_geom_bond_site_symmetry_1
_geom_bond_site_symmetry_2
Li1 O1 1_555 1_555
C1 C2 1_555 1_555
C2 H1 1_555 1_555
C3 C2 1_555 1_555
C4 C3 1_555 1_555
H2 C4 1_555 1_555
C5 C4 1_555 1_555
H3 C5 1_555 1_555
C6 C1 1_555 1_555
H4 C6 1_555 1_555
C7 C1 1_555 1_555
C8 C3 1_555 1_555
O1 C7 1_555 1_555
O2 C7 1_555 1_555
O3 C8 1_555 1_555
H5 O3 1_555 1_555
O4 C8 1_555 1_555
Li1B O1 1_555 1_555
Li1_2 O2 1_555 1_555
Li1C O4 1_555 1_555
O1B Li1 1_555 1_555
O2_2 Li1 1_555 1_555
O4C Li1 1_555 1_555
C5 C6 1_555 1_555
Li1B O1B 1_555 1_555

#END
