
#######################################################################
#
#                 Cambridge Crystallographic Data Centre
#                                CCDC 
#
#######################################################################
#
# If this CIF has been generated from an entry in the Cambridge 
# Structural Database, then it will include bibliographic, chemical, 
# crystal, experimental, refinement or atomic coordinate data resulting 
# from the CCDC's data processing and validation procedures.
#
#######################################################################

data_COXLAD
_symmetry_cell_setting           monoclinic
_symmetry_space_group_name_H-M   'P 21/c'
_symmetry_Int_Tables_number      14
_space_group_name_Hall           '-P 2ybc'
loop_
_symmetry_equiv_pos_site_id
_symmetry_equiv_pos_as_xyz
1 x,y,z
2 -x,1/2+y,1/2-z
3 -x,-y,-z
4 x,1/2-y,1/2+z
_cell_length_a                   15.962(3)
_cell_length_b                   7.4739(11)
_cell_length_c                   29.588(3)
_cell_angle_alpha                90
_cell_angle_beta                 104.928(12)
_cell_angle_gamma                90
_cell_volume                     3410.67
loop_
_atom_site_label
_atom_site_type_symbol
_atom_site_fract_x
_atom_site_fract_y
_atom_site_fract_z
Na1 Na 0.49984(10) 0.74771(19) 0.50117(6)
Na2 Na 0.94423(10) 0.8002(2) 0.75123(5)
Na3 Na 0.59638(10) 0.5831(2) 0.71792(6)
Na4 Na 0.68360(10) 0.9152(2) 0.67757(5)
C1 C 0.2388(2) 0.4955(5) 0.44291(13)
C2 C 0.1719(2) 0.5456(5) 0.40478(14)
H1 H 0.1851 0.6013 0.3786
C3 C 0.0858(2) 0.5151(5) 0.40450(14)
C4 C 0.0666(3) 0.4346(5) 0.44302(14)
H2 H 0.0079 0.4154 0.4433
C5 C 0.1328(3) 0.3822(5) 0.48086(14)
H3 H 0.1194 0.3255 0.5069
C6 C 0.2188(3) 0.4124(5) 0.48099(14)
H4 H 0.2640 0.3763 0.5071
C7 C 0.3313(2) 0.5404(5) 0.44424(14)
C8 C 0.0165(2) 0.5772(5) 0.36378(14)
C9 C 0.3929(2) 0.7589(5) 0.62460(13)
C10 C 0.3659(2) 0.7987(5) 0.66445(14)
H5 H 0.4059 0.8498 0.6907
C11 C 0.2816(2) 0.7656(5) 0.66667(13)
C12 C 0.2231(3) 0.6888(5) 0.62779(14)
H6 H 0.1647 0.6676 0.6284
C13 C 0.2511(3) 0.6440(5) 0.58832(14)
H7 H 0.2120 0.5889 0.5623
C14 C 0.3356(3) 0.6790(5) 0.58668(14)
H8 H 0.3542 0.6484 0.5596
C15 C 0.4834(3) 0.8070(5) 0.62449(14)
C16 C 0.2557(2) 0.8113(5) 0.71023(13)
C17 C 0.6083(2) 0.7377(5) 0.37492(13)
C18 C 0.6366(2) 0.6953(5) 0.33568(13)
H9 H 0.5980 0.6399 0.3096
C19 C 0.7221(2) 0.7339(5) 0.33430(14)
C20 C 0.7774(3) 0.8158(5) 0.37258(13)
H10 H 0.8357 0.8400 0.3723
C21 C 0.7483(3) 0.8627(5) 0.41142(14)
H11 H 0.7862 0.9220 0.4371
C22 C 0.6637(2) 0.8231(5) 0.41282(14)
H12 H 0.6441 0.8541 0.4395
C23 C 0.5190(3) 0.6854(5) 0.37536(14)
C24 C 0.7506(3) 0.6852(5) 0.29141(14)
C25 C 0.7588(2) 1.0060(5) 0.55825(13)
C26 C 0.8233(3) 0.9531(5) 0.59690(14)
H13 H 0.8081 0.8990 0.6227
C27 C 0.9106(3) 0.9785(5) 0.59823(14)
C28 C 0.9325(3) 1.0597(5) 0.56060(14)
H14 H 0.9918 1.0779 0.5613
C29 C 0.8682(3) 1.1141(5) 0.52209(14)
H15 H 0.8833 1.1696 0.4964
C30 C 0.7813(3) 1.0877(5) 0.52089(14)
H16 H 0.7374 1.1256 0.4944
C31 C 0.6653(3) 0.9688(5) 0.55589(14)
C32 C 0.9770(3) 0.9130(5) 0.63981(14)
O1 O 0.39105(17) 0.5049(4) 0.47955(10)
O2 O 0.34373(17) 0.6176(4) 0.40789(9)
O3 O -0.06181(17) 0.5710(4) 0.36910(10)
H17 H -0.105(2) 0.617(6) 0.3422(10)
O4 O 0.03301(17) 0.6317(4) 0.32766(9)
O5 O 0.50328(17) 0.7943(4) 0.58471(10)
H18 H 0.5614(13) 0.846(6) 0.5908(16)
O6 O 0.53564(17) 0.8563(4) 0.66087(10)
O7 O 0.31452(18) 0.8341(4) 0.74701(10)
O8 O 0.17524(18) 0.8250(4) 0.70801(10)
O9 O 0.49633(18) 0.7184(4) 0.41428(10)
H19 H 0.4373(12) 0.678(6) 0.4100(17)
O10 O 0.46942(19) 0.6124(4) 0.34188(11)
O11 O 0.69483(18) 0.6747(4) 0.25362(10)
O12 O 0.83188(18) 0.6599(4) 0.29574(10)
O13 O 0.60738(17) 0.9967(4) 0.51978(10)
O14 O 0.65150(18) 0.9034(4) 0.59352(9)
O15 O 1.05730(18) 0.9299(4) 0.63540(10)
H20 H 1.096(2) 0.900(6) 0.6650(9)
O16 O 0.95973(18) 0.8474(4) 0.67385(10)
O17 O 0.86570(18) 0.5418(4) 0.72385(10)
O18 O 0.92026(19) 1.1174(4) 0.74036(10)
O19 O 0.73969(19) 1.1947(4) 0.67779(10)
O20 O 0.70126(19) 0.6172(4) 0.67135(10)
O21 O 0.48160(19) 0.5872(4) 0.75787(10)
Na1B Na 0.50016(10) 0.25229(19) 0.49883(6)
Na1B_2 Na 0.50016(10) 1.25229(19) 0.49883(6)
Na2C Na -0.05577(10) 0.6998(2) 0.25123(5)
Na2C_2 Na 0.94423(10) 0.6998(2) 0.25123(5)
Na2A Na 1.05577(10) 1.3002(2) 0.74877(5)
Na3A Na 0.40362(10) 1.0831(2) 0.78208(6)
Na3B Na 0.40362(10) 0.4169(2) 0.28208(6)
Na3C Na 0.59638(10) 0.9169(2) 0.21792(6)
Na4C Na 0.68360(10) 0.5848(2) 0.17757(5)
O1B O 0.60895(17) 0.4951(4) 0.52045(10)
O4C O 1.03301(17) 0.8683(4) 0.82766(9)
O7A O 0.68548(18) 0.3341(4) 0.75299(10)
O10B O 0.53058(19) 0.3876(4) 0.65812(11)
O11C O 0.69483(18) 0.8253(4) 0.75362(10)
O12C O 0.83188(18) 0.8401(4) 0.79574(10)
O13B O 0.39262(17) 1.0033(4) 0.48022(10)
O18A O 1.07974(19) 0.6174(4) 0.75964(10)
loop_
_geom_bond_atom_site_label_1
_geom_bond_atom_site_label_2
_geom_bond_site_symmetry_1
_geom_bond_site_symmetry_2
Na1 O1 1_555 1_555
Na2 O16 1_555 1_555
Na3 O6 1_555 1_555
Na4 O6 1_555 1_555
C1 C2 1_555 1_555
C2 H1 1_555 1_555
C3 C2 1_555 1_555
C4 C3 1_555 1_555
H2 C4 1_555 1_555
C5 C4 1_555 1_555
H3 C5 1_555 1_555
C6 C1 1_555 1_555
H4 C6 1_555 1_555
C7 C1 1_555 1_555
C8 C3 1_555 1_555
C9 C10 1_555 1_555
C10 H5 1_555 1_555
C11 C10 1_555 1_555
C12 C11 1_555 1_555
H6 C12 1_555 1_555
C13 C12 1_555 1_555
H7 C13 1_555 1_555
C14 C9 1_555 1_555
H8 C14 1_555 1_555
C15 C9 1_555 1_555
C16 C11 1_555 1_555
C17 C18 1_555 1_555
C18 H9 1_555 1_555
C19 C18 1_555 1_555
C20 C19 1_555 1_555
H10 C20 1_555 1_555
C21 C20 1_555 1_555
H11 C21 1_555 1_555
C22 C17 1_555 1_555
H12 C22 1_555 1_555
C23 C17 1_555 1_555
C24 C19 1_555 1_555
C25 C26 1_555 1_555
C26 H13 1_555 1_555
C27 C26 1_555 1_555
C28 C27 1_555 1_555
H14 C28 1_555 1_555
C29 C28 1_555 1_555
H15 C29 1_555 1_555
C30 C25 1_555 1_555
H16 C30 1_555 1_555
C31 C25 1_555 1_555
C32 C27 1_555 1_555
O1 C7 1_555 1_555
O2 C7 1_555 1_555
O3 C8 1_555 1_555
H17 O3 1_555 1_555
O4 C8 1_555 1_555
O5 Na1 1_555 1_555
H18 O5 1_555 1_555
O6 C15 1_555 1_555
O7 C16 1_555 1_555
O8 C16 1_555 1_555
O9 Na1 1_555 1_555
H19 O9 1_555 1_555
O10 C23 1_555 1_555
O11 C24 1_555 1_555
O12 C24 1_555 1_555
O13 Na1 1_555 1_555
O14 Na4 1_555 1_555
O15 C32 1_555 1_555
H20 O15 1_555 1_555
O16 C32 1_555 1_555
O17 Na2 1_555 1_555
O18 Na2 1_555 1_555
O19 Na4 1_555 1_555
O20 Na3 1_555 1_555
O21 Na3 1_555 1_555
Na1B O1 1_555 1_555
Na1B_2 O13 1_555 1_555
Na2C O4 1_555 1_555
Na2C_2 O12 1_555 1_555
Na2A O18 1_555 1_555
Na3A O7 1_555 1_555
Na3B O10 1_555 1_555
Na3C O11 1_555 1_555
Na4C O11 1_555 1_555
O1B Na1 1_555 1_555
O4C Na2 1_555 1_555
O7A Na3 1_555 1_555
O10B Na3 1_555 1_555
O11C Na3 1_555 1_555
O12C Na2 1_555 1_555
O13B Na1 1_555 1_555
O18A Na2 1_555 1_555
Na4 O20 1_555 1_555
Na4 O11C 1_555 1_555
C5 C6 1_555 1_555
C13 C14 1_555 1_555
C15 O5 1_555 1_555
C21 C22 1_555 1_555
C23 O9 1_555 1_555
C29 C30 1_555 1_555
C31 O13 1_555 1_555
C31 O14 1_555 1_555
Na1B O1B 1_555 1_555
Na1B_2 O13B 1_555 1_555

#END
