
#######################################################################
#
#                 Cambridge Crystallographic Data Centre
#                                CCDC 
#
#######################################################################
#
# If this CIF has been generated from an entry in the Cambridge 
# Structural Database, then it will include bibliographic, chemical, 
# crystal, experimental, refinement or atomic coordinate data resulting 
# from the CCDC's data processing and validation procedures.
#
#######################################################################

data_COXLUY
_symmetry_cell_setting           orthorhombic
_symmetry_space_group_name_H-M   'P b c n'
_symmetry_Int_Tables_number      60
_space_group_name_Hall           '-P 2n 2ab'
loop_
_symmetry_equiv_pos_site_id
_symmetry_equiv_pos_as_xyz
1 x,y,z
2 1/2-x,1/2-y,1/2+z
3 1/2+x,1/2-y,-z
4 -x,y,1/2-z
5 -x,-y,-z
6 1/2+x,1/2+y,1/2-z
7 1/2-x,1/2+y,z
8 x,-y,1/2+z
_cell_length_a                   7.7957(5)
_cell_length_b                   18.2202(14)
_cell_length_c                   27.665(2)
_cell_angle_alpha                90
_cell_angle_beta                 90
_cell_angle_gamma                90
_cell_volume                     3929.51
loop_
_atom_site_label
_atom_site_type_symbol
_atom_site_fract_x
_atom_site_fract_y
_atom_site_fract_z
Co1 Co 0.53314(7) 0.45541(3) 0.62397(2)
O1 O 0.3657(3) 0.43798(17) 0.56151(11)
O2 O 0.2560(4) 0.45898(17) 0.63330(11)
O3 O 0.2941(4) 0.69617(19) 0.72671(13)
O4 O 0.3927(5) 0.79979(19) 0.69223(15)
N1 N -0.2426(4) 0.44301(18) 0.57882(13)
N2 N 0.5235(4) 0.57270(19) 0.61767(13)
N3 N 0.6530(4) 0.46375(19) 0.69083(14)
N4 N 0.7696(4) 0.4055(2) 0.75262(13)
H1 H 0.8022 0.3705 0.7713
N5 N 0.6419(5) 0.2627(2) 0.69794(15)
H2 H 0.6872 0.2454 0.7239
N6 N 0.5515(4) 0.34280(19) 0.64321(14)
Cl1 Cl -0.15381(14) 0.37749(6) 0.44422(4)
Cl2 Cl 0.6607(2) 0.72572(7) 0.52377(6)
C1 C 0.2388(5) 0.4445(2) 0.58941(16)
C2 C 0.0623(5) 0.4353(2) 0.56918(16)
C3 C -0.0829(5) 0.4493(2) 0.59632(16)
H3 H -0.0692 0.4637 0.6283
C4 C -0.2619(5) 0.4215(2) 0.53267(16)
H4 H -0.3720 0.4166 0.5202
C5 C -0.1232(5) 0.4066(2) 0.50329(16)
C6 C 0.0413(5) 0.4133(2) 0.52179(16)
H5 H 0.1362 0.4031 0.5026
C7 C 0.3713(6) 0.7322(3) 0.6947(2)
C8 C 0.4482(5) 0.6888(2) 0.65249(17)
C9 C 0.4537(5) 0.6130(2) 0.65337(16)
H6 H 0.4071 0.5887 0.6799
C10 C 0.5851(5) 0.6082(2) 0.57904(17)
H7 H 0.6317 0.5813 0.5537
C11 C 0.5811(6) 0.6840(2) 0.57599(18)
C12 C 0.5147(6) 0.7250(2) 0.61346(19)
H8 H 0.5151 0.7760 0.6122
C13 C 0.7208(5) 0.5143(2) 0.72253(16)
H9 H 0.7167 0.5650 0.7186
C14 C 0.7939(5) 0.4792(3) 0.76016(17)
H10 H 0.8500 0.5008 0.7862
C15 C 0.6859(5) 0.3986(2) 0.71080(16)
C16 C 0.6307(5) 0.3334(2) 0.68518(17)
C17 C 0.5664(6) 0.2235(3) 0.6612(2)
H11 H 0.5549 0.1728 0.6595
C18 C 0.5120(6) 0.2729(3) 0.62817(19)
H12 H 0.4561 0.2613 0.5995
Co1_2 Co -0.46686(7) 0.45541(3) 0.62397(2)
N1_2 N 0.7574(4) 0.44301(18) 0.57882(13)
loop_
_geom_bond_atom_site_label_1
_geom_bond_atom_site_label_2
_geom_bond_site_symmetry_1
_geom_bond_site_symmetry_2
Co1 O1 1_555 1_555
O1 C1 1_555 1_555
O2 Co1 1_555 1_555
O3 C7 1_555 1_555
O4 C7 1_555 1_555
N1 C3 1_555 1_555
N2 Co1 1_555 1_555
N3 Co1 1_555 1_555
N4 H1 1_555 1_555
N5 H2 1_555 1_555
N6 Co1 1_555 1_555
Cl1 C5 1_555 1_555
Cl2 C11 1_555 1_555
C1 O2 1_555 1_555
C2 C1 1_555 1_555
C3 C2 1_555 1_555
H3 C3 1_555 1_555
C4 N1 1_555 1_555
H4 C4 1_555 1_555
C5 C4 1_555 1_555
C6 C2 1_555 1_555
H5 C6 1_555 1_555
C7 C8 1_555 1_555
C8 C9 1_555 1_555
C9 N2 1_555 1_555
H6 C9 1_555 1_555
C10 N2 1_555 1_555
H7 C10 1_555 1_555
C11 C10 1_555 1_555
C12 C8 1_555 1_555
H8 C12 1_555 1_555
C13 N3 1_555 1_555
H9 C13 1_555 1_555
C14 N4 1_555 1_555
H10 C14 1_555 1_555
C15 N3 1_555 1_555
C16 N5 1_555 1_555
C17 N5 1_555 1_555
H11 C17 1_555 1_555
C18 N6 1_555 1_555
H12 C18 1_555 1_555
Co1_2 N1 1_555 1_555
N1_2 Co1 1_555 1_555
N4 C15 1_555 1_555
N6 C16 1_555 1_555
C5 C6 1_555 1_555
C11 C12 1_555 1_555
C13 C14 1_555 1_555
C15 C16 1_555 1_555
C17 C18 1_555 1_555

#END
