
#######################################################################
#
#                 Cambridge Crystallographic Data Centre
#                                CCDC 
#
#######################################################################
#
# If this CIF has been generated from an entry in the Cambridge 
# Structural Database, then it will include bibliographic, chemical, 
# crystal, experimental, refinement or atomic coordinate data resulting 
# from the CCDC's data processing and validation procedures.
#
#######################################################################

data_COXLAE
_symmetry_cell_setting           triclinic
_symmetry_space_group_name_H-M   'P -1'
_symmetry_Int_Tables_number      2
_space_group_name_Hall           '-P 1'
loop_
_symmetry_equiv_pos_site_id
_symmetry_equiv_pos_as_xyz
1 x,y,z
2 -x,-y,-z
_cell_length_a                   5.6660(11)
_cell_length_b                   9.1440(18)
_cell_length_c                   15.750(3)
_cell_angle_alpha                96.01(3)
_cell_angle_beta                 95.38(3)
_cell_angle_gamma                83.77(3)
_cell_volume                     803.921
loop_
_atom_site_label
_atom_site_type_symbol
_atom_site_fract_x
_atom_site_fract_y
_atom_site_fract_z
P1 P 0.0445(2) 0.07039(15) 0.86441(9)
O1 O -0.0216(8) -0.0862(5) 0.8651(3)
O2 O 0.2879(7) 0.0992(5) 0.9106(3)
O3 O -0.1516(8) 0.1832(5) 0.9037(3)
C1 C 0.0423(10) 0.1076(6) 0.7528(4)
C2 C 0.2104(14) 0.1876(9) 0.7252(5)
H1 H 0.3303 0.2219 0.7642
C3 C 0.2022(17) 0.2171(10) 0.6405(5)
H2 H 0.3191 0.2681 0.6227
C4 C 0.0190(17) 0.1705(11) 0.5816(5)
H3 H 0.0091 0.1936 0.5251
C5 C -0.1447(16) 0.0907(12) 0.6082(5)
H4 H -0.2646 0.0576 0.5688
C6 C -0.1382(13) 0.0572(10) 0.6927(5)
H5 H -0.2518 0.0022 0.7093
Ag1 Ag -0.39358(10) -0.07462(7) 0.91968(4)
Ag2 Ag 0.15833(9) -0.26364(6) 0.95183(3)
Ag3 Ag 0.25223(8) 0.37300(5) 0.93915(3)
P2 P -0.3007(2) -0.44784(16) 0.85731(9)
O4 O -0.0323(7) -0.4660(5) 0.8766(3)
O5 O -0.4326(7) -0.3365(5) 0.9216(2)
O6 O -0.4066(7) -0.6007(4) 0.8555(3)
C7 C -0.3703(10) -0.3873(7) 0.7510(3)
C8 C -0.5733(13) -0.2960(10) 0.7297(5)
H6 H -0.6783 -0.2626 0.7711
C9 C -0.6234(18) -0.2527(12) 0.6458(5)
H7 H -0.7566 -0.1876 0.6328
C10 C -0.4750(19) -0.3071(13) 0.5843(6)
H8 H -0.5124 -0.2845 0.5281
C11 C -0.273(2) -0.3942(15) 0.6050(6)
H9 H -0.1675 -0.4258 0.5633
C12 C -0.2185(16) -0.4376(12) 0.6878(5)
H10 H -0.0815 -0.4998 0.7003
O2_2 O -0.7121(7) 0.0992(5) 0.9106(3)
O2A O -0.2879(7) -0.0992(5) 1.0894(3)
O3A O 0.1516(8) -0.1832(5) 1.0963(3)
Ag1_2 Ag 0.60642(10) -0.07462(7) 0.91968(4)
Ag1A Ag 0.39358(10) 0.07462(7) 1.08032(4)
Ag2_2 Ag -0.84167(9) -0.26364(6) 0.95183(3)
Ag2A Ag -0.15833(9) 0.26364(6) 1.04817(3)
Ag3_2 Ag -0.74777(8) -0.62700(5) 0.93915(3)
Ag3_3 Ag 0.25223(8) -0.62700(5) 0.93915(3)
Ag3A Ag -0.25223(8) -0.37300(5) 1.06085(3)
O4_2 O -0.0323(7) 0.5340(5) 0.8766(3)
O5_2 O 0.5674(7) -0.3365(5) 0.9216(2)
O5A O 0.4326(7) 0.3365(5) 1.0784(2)
O6_2 O 0.5934(7) 0.3993(4) 0.8555(3)
loop_
_geom_bond_atom_site_label_1
_geom_bond_atom_site_label_2
_geom_bond_site_symmetry_1
_geom_bond_site_symmetry_2
P1 O1 1_555 1_555
O1 Ag1 1_555 1_555
O2 P1 1_555 1_555
O3 P1 1_555 1_555
C1 P1 1_555 1_555
C2 C1 1_555 1_555
H1 C2 1_555 1_555
C3 C2 1_555 1_555
H2 C3 1_555 1_555
C4 C3 1_555 1_555
H3 C4 1_555 1_555
C5 C4 1_555 1_555
H4 C5 1_555 1_555
C6 C1 1_555 1_555
H5 C6 1_555 1_555
Ag1 O5 1_555 1_555
Ag2 O1 1_555 1_555
Ag3 O2 1_555 1_555
P2 O4 1_555 1_555
O4 Ag2 1_555 1_555
O5 P2 1_555 1_555
O6 P2 1_555 1_555
C7 P2 1_555 1_555
C8 C7 1_555 1_555
H6 C8 1_555 1_555
C9 C8 1_555 1_555
H7 C9 1_555 1_555
C10 C9 1_555 1_555
H8 C10 1_555 1_555
C11 C10 1_555 1_555
H9 C11 1_555 1_555
C12 C7 1_555 1_555
H10 C12 1_555 1_555
O2_2 Ag1 1_555 1_555
O2A Ag1 1_555 1_555
O3A Ag2 1_555 1_555
Ag1_2 O2 1_555 1_555
Ag1A O2 1_555 1_555
Ag2_2 O5 1_555 1_555
Ag2A O3 1_555 1_555
Ag3_2 O6 1_555 1_555
Ag3_3 O4 1_555 1_555
Ag3A O5 1_555 1_555
O4_2 Ag3 1_555 1_555
O5_2 Ag2 1_555 1_555
O5A Ag3 1_555 1_555
O6_2 Ag3 1_555 1_555
C5 C6 1_555 1_555
C11 C12 1_555 1_555
O2A Ag3A 1_555 1_555
Ag1_2 O5_2 1_555 1_555
Ag1A O5A 1_555 1_555

#END
