
#######################################################################
#
#                 Cambridge Crystallographic Data Centre
#                                CCDC 
#
#######################################################################
#
# If this CIF has been generated from an entry in the Cambridge 
# Structural Database, then it will include bibliographic, chemical, 
# crystal, experimental, refinement or atomic coordinate data resulting 
# from the CCDC's data processing and validation procedures.
#
#######################################################################

data_COXNUY
_symmetry_cell_setting           triclinic
_symmetry_space_group_name_H-M   'P -1'
_symmetry_Int_Tables_number      2
_space_group_name_Hall           '-P 1'
loop_
_symmetry_equiv_pos_site_id
_symmetry_equiv_pos_as_xyz
1 x,y,z
2 -x,-y,-z
_cell_length_a                   8.697(2)
_cell_length_b                   13.039(3)
_cell_length_c                   12.418(3)
_cell_angle_alpha                110.49(2)
_cell_angle_beta                 108.61(2)
_cell_angle_gamma                63.65(1)
_cell_volume                     1159.34
loop_
_atom_site_label
_atom_site_type_symbol
_atom_site_fract_x
_atom_site_fract_y
_atom_site_fract_z
Cu1 Cu 0.2161(3) 0.0646(2) 0.4892(2)
P1 P 0.7949(6) 0.2140(4) 0.3796(4)
O1 O 0.746(1) 0.2721(9) 0.5075(9)
O2 O 0.940(1) 0.0942(8) 0.3756(9)
O3 O 0.816(1) 0.3038(9) 0.346(1)
O4 O 0.632(1) 0.1850(8) 0.2955(9)
O5 O 0.205(1) 0.2225(9) 0.5499(9)
O6 O 0.293(1) -0.1097(8) 0.4240(9)
O7 O 0.412(2) -0.263(1) 0.285(1)
N1 N 0.250(2) 0.474(1) 0.534(1)
N2 N 0.321(1) 0.047(1) 0.357(1)
C1 C 0.328(2) 0.433(2) 0.439(2)
C2 C 0.372(2) 0.317(2) 0.378(2)
C3 C 0.328(2) 0.248(1) 0.412(2)
C4 C 0.247(2) 0.283(1) 0.510(2)
C5 C 0.212(2) 0.405(2) 0.572(2)
C6 C 0.459(2) 0.283(1) 0.277(2)
C7 C 0.132(2) 0.460(2) 0.676(2)
C8 C 0.370(2) 0.123(2) 0.346(1)
C9 C 0.355(2) -0.157(1) 0.330(1)
C10 C 0.354(2) -0.070(1) 0.273(1)
C11 C 0.198(2) -0.055(2) 0.167(2)
C12 C 0.181(3) 0.023(2) 0.098(2)
C13 C 0.273(3) -0.017(2) 0.012(2)
C14 C 0.263(3) 0.053(3) -0.048(2)
C15 C 0.165(5) 0.175(4) -0.015(3)
C16 C 0.066(3) 0.218(2) 0.069(2)
C17 C 0.080(3) 0.142(3) 0.125(2)
O8 O 0.172(1) 0.0465(9) 0.6281(9)
H1 H 0.3564 0.4948 0.4162
H2 H 0.3750 0.2555 0.1938
H3 H 0.4743 0.3589 0.2685
H4 H 0.0044 0.4518 0.6512
H5 H 0.2183 0.4094 0.7427
H6 H 0.1058 0.5546 0.7257
H7 H 0.4518 0.0902 0.2786
H8 H 0.4738 -0.1011 0.2408
H9 H 0.2089 -0.1402 0.1081
H10 H 0.0784 -0.0186 0.2002
H11 H 0.3562 -0.1112 -0.0092
H12 H 0.3383 0.0197 -0.1200
H13 H 0.1758 0.2334 -0.0568
H14 H -0.0295 0.3127 0.0810
H15 H 0.0052 0.1773 0.1938
O2_2 O -0.060(1) 0.0942(8) 0.3756(9)
Cu1_2 Cu 1.2161(3) 0.0646(2) 0.4892(2)
O9 O 0.017(4) 0.708(2) 0.253(2)
O10 O 0.365(3) 0.638(2) 0.885(2)
O11 O 0.431(4) 0.329(3) 0.912(3)
O12 O 0.333(6) 0.558(3) 0.223(3)
loop_
_geom_bond_atom_site_label_1
_geom_bond_atom_site_label_2
_geom_bond_site_symmetry_1
_geom_bond_site_symmetry_2
Cu1 O5 1_555 1_555
P1 O1 1_555 1_555
O2 P1 1_555 1_555
O3 P1 1_555 1_555
O4 P1 1_555 1_555
O5 C4 1_555 1_555
O6 Cu1 1_555 1_555
O7 C9 1_555 1_555
N1 C1 1_555 1_555
N2 Cu1 1_555 1_555
C1 C2 1_555 1_555
C2 C3 1_555 1_555
C3 C4 1_555 1_555
C4 C5 1_555 1_555
C5 N1 1_555 1_555
C6 O4 1_555 1_555
C7 C5 1_555 1_555
C8 N2 1_555 1_555
C9 O6 1_555 1_555
C10 N2 1_555 1_555
C11 C10 1_555 1_555
C12 C11 1_555 1_555
C13 C12 1_555 1_555
C14 C13 1_555 1_555
C15 C14 1_555 1_555
C16 C15 1_555 1_555
C17 C12 1_555 1_555
O8 Cu1 1_555 1_555
H1 C1 1_555 1_555
H2 C6 1_555 1_555
H3 C6 1_555 1_555
H4 C7 1_555 1_555
H5 C7 1_555 1_555
H6 C7 1_555 1_555
H7 C8 1_555 1_555
H8 C10 1_555 1_555
H9 C11 1_555 1_555
H10 C11 1_555 1_555
H11 C13 1_555 1_555
H12 C14 1_555 1_555
H13 C15 1_555 1_555
H14 C16 1_555 1_555
H15 C17 1_555 1_555
O2_2 Cu1 1_555 1_555
Cu1_2 O2 1_555 1_555
C2 C6 1_555 1_555
C3 C8 1_555 1_555
C9 C10 1_555 1_555
C16 C17 1_555 1_555

#END
