
#######################################################################
#
#                 Cambridge Crystallographic Data Centre
#                                CCDC 
#
#######################################################################
#
# If this CIF has been generated from an entry in the Cambridge 
# Structural Database, then it will include bibliographic, chemical, 
# crystal, experimental, refinement or atomic coordinate data resulting 
# from the CCDC's data processing and validation procedures.
#
#######################################################################

data_COXQAI
_symmetry_cell_setting           orthorhombic
_symmetry_space_group_name_H-M   'P b c m'
_symmetry_Int_Tables_number      57
_space_group_name_Hall           '-P 2c 2b'
loop_
_symmetry_equiv_pos_site_id
_symmetry_equiv_pos_as_xyz
1 x,y,z
2 -x,-y,1/2+z
3 -x,1/2+y,1/2-z
4 x,1/2-y,-z
5 -x,-y,-z
6 x,y,1/2-z
7 x,1/2-y,1/2+z
8 -x,1/2+y,z
_cell_length_a                   11.4080(10)
_cell_length_b                   35.1060(15)
_cell_length_c                   14.3493(12)
_cell_angle_alpha                90
_cell_angle_beta                 90
_cell_angle_gamma                90
_cell_volume                     5746.74
loop_
_atom_site_label
_atom_site_type_symbol
_atom_site_fract_x
_atom_site_fract_y
_atom_site_fract_z
U1 U 0.06580(4) 0.278882(10) 0.61169(3)
U2 U 0.99234(3) -0.029304(10) 0.88622(2)
Cs1 Cs 0.36379(14) 0.23210(5) 0.7500
Cs2 Cs 0.69804(16) 0.01797(5) 0.7500
O1 O 0.2177(6) 0.29030(18) 0.6265(5)
O2 O -0.0863(6) 0.26973(17) 0.5949(4)
O3 O 0.8364(6) -0.03227(18) 0.8970(5)
O4 O 1.1481(6) -0.02815(16) 0.8750(4)
O5 O 0.0148(6) 0.34261(17) 0.5622(5)
O6 O -0.0129(6) 0.40467(18) 0.5637(5)
O7 O 0.0786(8) 0.2416(2) 0.7500
H1 H 0.0699 0.2159 0.7500
O8 O 0.0991(6) 0.21808(15) 0.5522(4)
H2 H 0.1679 0.2047 0.5659
O9 O 0.0183(10) 0.3132(2) 0.7500
H3 H -0.0150 0.3374 0.7500
O10 O 0.9711(8) 0.0087(2) 0.7500
H4 H 0.9879 0.0314 0.7500
O11 O 0.9925(6) 0.03120(17) 0.9489(4)
H5 H 0.9872 0.0535 0.9140
O12 O 0.9751(11) -0.0653(3) 0.7500
H6 H 1.0252 -0.0839 0.7500
O13 O 0.5922(14) 0.3106(4) 0.7500
O14 O 0.3601(13) 0.3354(4) 0.7500
O15 O 0.5746(7) 0.2337(2) 0.8605(5)
O16 O 0.8298(8) 0.0800(2) 0.8583(6)
O17 O 0.3357(7) 0.1882(2) 0.9237(6)
O18 O 0.5927(7) 0.0383(2) 0.9283(6)
O19 O 0.1984(10) 0.1640(3) 0.7500
O20 O 0.4475(10) 0.0099(3) 0.7500
N1 N 0.7529(8) 0.2048(2) 0.8343(7)
N2 N 0.6521(9) 0.1878(2) 0.9585(6)
N3 N 0.7491(10) 0.1259(3) 0.9556(9)
N4 N 0.8571(9) 0.1440(3) 0.8324(8)
N5 N 0.4727(10) 0.1553(2) 1.0079(7)
N6 N 0.3093(9) 0.1255(2) 0.9676(7)
N7 N 0.4162(10) 0.0653(2) 0.9634(6)
N8 N 0.5778(11) 0.0933(3) 1.0129(7)
N9 N 0.2068(8) 0.1061(2) 0.8267(7)
N10 N 0.3084(9) 0.0450(2) 0.8283(6)
C1 C 0.0210(10) 0.3740(3) 0.5992(8)
H7 H 0.0535 0.3751 0.6585
C2 C 0.6518(12) 0.2118(3) 0.8800(8)
C3 C 0.8321(11) 0.1795(3) 0.8816(9)
H8 H 0.9043 0.1927 0.8998
C4 C 0.7593(12) 0.1666(3) 0.9691(10)
H9 H 0.7994 0.1729 1.0276
C5 C 0.8123(12) 0.1138(4) 0.8802(11)
C6 C 0.5524(13) 0.1866(3) 1.0244(8)
H10 H 0.5828 0.1846 1.0873
H11 H 0.5093 0.2103 1.0200
C7 C 0.7004(12) 0.1007(3) 1.0234(9)
H12 H 0.7135 0.1115 1.0848
H13 H 0.7423 0.0767 1.0206
C8 C 0.3703(12) 0.1589(3) 0.9629(8)
C9 C 0.4845(13) 0.1175(3) 1.0498(8)
H14 H 0.4888 0.1192 1.1179
C10 C 0.3694(12) 0.0971(3) 1.0182(8)
H15 H 0.3234 0.0881 1.0716
C11 C 0.5347(15) 0.0640(3) 0.9641(8)
C12 C 0.1990(12) 0.1202(3) 0.9203(10)
H16 H 0.1518 0.1026 0.9565
H17 H 0.1580 0.1444 0.9191
C13 C 0.3427(10) 0.0360(3) 0.9214(7)
H18 H 0.3851 0.0120 0.9212
H19 H 0.2730 0.0326 0.9592
C14 C 0.2050(15) 0.1283(5) 0.7500
C15 C 0.2032(9) 0.0660(3) 0.8039(7)
H20 H 0.1327 0.0537 0.8290
C16 C 0.3672(15) 0.0315(4) 0.7500
C17 C 0.7837(15) 0.2249(4) 0.7500
H21 H 0.7446 0.2494 0.7500
H22 H 0.8675 0.2296 0.7500
C18 C 0.9223(16) 0.1412(5) 0.7500
H23 H 0.9632 0.1170 0.7500
H24 H 0.9810 0.1612 0.7500
U1E U 0.06580(4) 0.278882(10) 0.88831(3)
U1C U 0.06580(4) 0.221118(10) 0.38831(3)
U2E U 0.99234(3) -0.029304(10) 0.61378(2)
U2B U 0.00766(3) 0.470696(10) 0.61378(2)
U2D U 1.00766(3) 0.029304(10) 1.11378(2)
U2G U 0.00766(3) 0.470696(10) 0.88622(2)
O1E O 0.2177(6) 0.29030(18) 0.8735(5)
O2E O -0.0863(6) 0.26973(17) 0.9051(4)
O3E O 0.8364(6) -0.03227(18) 0.6030(5)
O4E O 1.1481(6) -0.02815(16) 0.6250(4)
O5E O 0.0148(6) 0.34261(17) 0.9378(5)
O6E O -0.0129(6) 0.40467(18) 0.9363(5)
O6B O 1.0129(6) -0.09533(18) 0.9363(5)
O6G O 1.0129(6) -0.09533(18) 0.5637(5)
O8C O 0.0991(6) 0.28192(15) 0.4478(4)
O8E O 0.0991(6) 0.21808(15) 0.9478(4)
O8F O 0.0991(6) 0.28192(15) 1.0522(4)
H2C H 0.1679 0.2953 0.4341
H2E H 0.1679 0.2047 0.9341
H2F H 0.1679 0.2953 1.0659
O11D O 1.0075(6) -0.03120(17) 1.0511(4)
O11E O 0.9925(6) 0.03120(17) 0.5511(4)
O11A O 1.0075(6) -0.03120(17) 0.4489(4)
H5D H 1.0128 -0.0535 1.0860
H5E H 0.9872 0.0535 0.5860
H5A H 1.0128 -0.0535 0.4140
O15E O 0.5746(7) 0.2337(2) 0.6395(5)
O16E O 0.8298(8) 0.0800(2) 0.6417(6)
O17E O 0.3357(7) 0.1882(2) 0.5763(6)
O18E O 0.5927(7) 0.0383(2) 0.5717(6)
N1E N 0.7529(8) 0.2048(2) 0.6657(7)
N2E N 0.6521(9) 0.1878(2) 0.5415(6)
N3E N 0.7491(10) 0.1259(3) 0.5444(9)
N4E N 0.8571(9) 0.1440(3) 0.6676(8)
N5E N 0.4727(10) 0.1553(2) 0.4921(7)
N6E N 0.3093(9) 0.1255(2) 0.5324(7)
N7E N 0.4162(10) 0.0653(2) 0.5366(6)
N8E N 0.5778(11) 0.0933(3) 0.4871(7)
N9E N 0.2068(8) 0.1061(2) 0.6733(7)
N10E N 0.3084(9) 0.0450(2) 0.6717(6)
C1E C 0.0210(10) 0.3740(3) 0.9008(8)
H7E H 0.0535 0.3751 0.8415
C2E C 0.6518(12) 0.2118(3) 0.6200(8)
C3E C 0.8321(11) 0.1795(3) 0.6184(9)
H8E H 0.9043 0.1927 0.6002
C4E C 0.7593(12) 0.1666(3) 0.5309(10)
H9E H 0.7994 0.1729 0.4724
C5E C 0.8123(12) 0.1138(4) 0.6198(11)
C6E C 0.5524(13) 0.1866(3) 0.4756(8)
H10E H 0.5828 0.1846 0.4127
H11E H 0.5093 0.2103 0.4800
C7E C 0.7004(12) 0.1007(3) 0.4766(9)
H12E H 0.7135 0.1115 0.4152
H13E H 0.7423 0.0767 0.4794
C8E C 0.3703(12) 0.1589(3) 0.5371(8)
C9E C 0.4845(13) 0.1175(3) 0.4502(8)
H14E H 0.4888 0.1192 0.3821
C10E C 0.3694(12) 0.0971(3) 0.4818(8)
H15E H 0.3234 0.0881 0.4284
C11E C 0.5347(15) 0.0640(3) 0.5359(8)
C12E C 0.1990(12) 0.1202(3) 0.5797(10)
H16E H 0.1518 0.1026 0.5435
H17E H 0.1580 0.1444 0.5809
C13E C 0.3427(10) 0.0360(3) 0.5786(7)
H18E H 0.3851 0.0120 0.5788
H19E H 0.2730 0.0326 0.5408
C15E C 0.2032(9) 0.0660(3) 0.6961(7)
H20E H 0.1327 0.0537 0.6710
O21 O -0.1911(16) 0.3520(5) 0.7500
O22 O 1.2876(16) -0.0740(4) 0.7500
O23 O 0.7328(11) -0.0934(3) 0.7500
loop_
_geom_bond_atom_site_label_1
_geom_bond_atom_site_label_2
_geom_bond_site_symmetry_1
_geom_bond_site_symmetry_2
U1 O1 1_555 1_555
U2 O3 1_555 1_555
Cs1 O1 1_555 1_555
Cs2 O3 1_555 1_555
O2 U1 1_555 1_555
O4 U2 1_555 1_555
O5 U1 1_555 1_555
O6 C1 1_555 1_555
O7 U1 1_555 1_555
H1 O7 1_555 1_555
O8 U1 1_555 1_555
H2 O8 1_555 1_555
O9 U1 1_555 1_555
H3 O9 1_555 1_555
O10 U2 1_555 1_555
H4 O10 1_555 1_555
O11 U2 1_555 1_555
H5 O11 1_555 1_555
O12 U2 1_555 1_555
H6 O12 1_555 1_555
O13 Cs1 1_555 1_555
O14 Cs1 1_555 1_555
O15 Cs1 1_555 1_555
O16 Cs2 1_555 1_555
O17 Cs1 1_555 1_555
O18 Cs2 1_555 1_555
O19 Cs1 1_555 1_555
O20 Cs2 1_555 1_555
N1 C2 1_555 1_555
N2 C2 1_555 1_555
N3 C4 1_555 1_555
N4 C3 1_555 1_555
N5 C6 1_555 1_555
N6 C8 1_555 1_555
N7 C10 1_555 1_555
N8 C7 1_555 1_555
N9 C12 1_555 1_555
N10 C13 1_555 1_555
C1 O5 1_555 1_555
H7 C1 1_555 1_555
C2 O15 1_555 1_555
C3 N1 1_555 1_555
H8 C3 1_555 1_555
C4 N2 1_555 1_555
H9 C4 1_555 1_555
C5 O16 1_555 1_555
C6 N2 1_555 1_555
H10 C6 1_555 1_555
H11 C6 1_555 1_555
C7 N3 1_555 1_555
H12 C7 1_555 1_555
H13 C7 1_555 1_555
C8 O17 1_555 1_555
C9 N5 1_555 1_555
H14 C9 1_555 1_555
C10 N6 1_555 1_555
H15 C10 1_555 1_555
C11 O18 1_555 1_555
C12 N6 1_555 1_555
H16 C12 1_555 1_555
H17 C12 1_555 1_555
C13 N7 1_555 1_555
H18 C13 1_555 1_555
H19 C13 1_555 1_555
C14 O19 1_555 1_555
C15 N9 1_555 1_555
H20 C15 1_555 1_555
C16 O20 1_555 1_555
C17 N1 1_555 1_555
H21 C17 1_555 1_555
H22 C17 1_555 1_555
C18 N4 1_555 1_555
H23 C18 1_555 1_555
H24 C18 1_555 1_555
U1E O7 1_555 1_555
U1C O8 1_555 1_555
U2E O10 1_555 1_555
U2B O6 1_555 1_555
U2D O11 1_555 1_555
U2G O6E 1_555 1_555
O1E Cs1 1_555 1_555
O2E U1E 1_555 1_555
O3E Cs2 1_555 1_555
O4E U2E 1_555 1_555
O5E U1E 1_555 1_555
O6E C1E 1_555 1_555
O6B U2 1_555 1_555
O6G U2E 1_555 1_555
O8C U1 1_555 1_555
O8E U1E 1_555 1_555
O8F U1E 1_555 1_555
H2C O8C 1_555 1_555
H2E O8E 1_555 1_555
H2F O8F 1_555 1_555
O11D U2 1_555 1_555
O11E U2E 1_555 1_555
O11A U2E 1_555 1_555
H5D O11D 1_555 1_555
H5E O11E 1_555 1_555
H5A O11A 1_555 1_555
O15E Cs1 1_555 1_555
O16E Cs2 1_555 1_555
O17E Cs1 1_555 1_555
O18E Cs2 1_555 1_555
N1E C17 1_555 1_555
N2E C2E 1_555 1_555
N3E C4E 1_555 1_555
N4E C18 1_555 1_555
N5E C6E 1_555 1_555
N6E C8E 1_555 1_555
N7E C10E 1_555 1_555
N8E C7E 1_555 1_555
N9E C14 1_555 1_555
N10E C16 1_555 1_555
C1E O5E 1_555 1_555
H7E C1E 1_555 1_555
C2E O15E 1_555 1_555
C3E N1E 1_555 1_555
H8E C3E 1_555 1_555
C4E N2E 1_555 1_555
H9E C4E 1_555 1_555
C5E O16E 1_555 1_555
C6E N2E 1_555 1_555
H10E C6E 1_555 1_555
H11E C6E 1_555 1_555
C7E N3E 1_555 1_555
H12E C7E 1_555 1_555
H13E C7E 1_555 1_555
C8E O17E 1_555 1_555
C9E N5E 1_555 1_555
H14E C9E 1_555 1_555
C10E N6E 1_555 1_555
H15E C10E 1_555 1_555
C11E O18E 1_555 1_555
C12E N6E 1_555 1_555
H16E C12E 1_555 1_555
H17E C12E 1_555 1_555
C13E N7E 1_555 1_555
H18E C13E 1_555 1_555
H19E C13E 1_555 1_555
C15E C15 1_555 1_555
H20E C15E 1_555 1_555
Cs1 O7 1_555 1_555
Cs2 O10 1_555 1_555
O9 U1E 1_555 1_555
O12 U2E 1_555 1_555
N3 C5 1_555 1_555
N4 C5 1_555 1_555
N5 C8 1_555 1_555
N7 C11 1_555 1_555
N8 C9 1_555 1_555
N8 C11 1_555 1_555
N9 C14 1_555 1_555
N10 C15 1_555 1_555
N10 C16 1_555 1_555
C3 C4 1_555 1_555
C9 C10 1_555 1_555
U1E O1E 1_555 1_555
U1C O8C 1_555 1_555
U2E O3E 1_555 1_555
U2D O11D 1_555 1_555
N1E C2E 1_555 1_555
N3E C5E 1_555 1_555
N4E C3E 1_555 1_555
N4E C5E 1_555 1_555
N5E C8E 1_555 1_555
N7E C11E 1_555 1_555
N8E C9E 1_555 1_555
N8E C11E 1_555 1_555
N9E C12E 1_555 1_555
N9E C15E 1_555 1_555
N10E C13E 1_555 1_555
N10E C15E 1_555 1_555
C3E C4E 1_555 1_555
C9E C10E 1_555 1_555

#END
