
#######################################################################
#
#                 Cambridge Crystallographic Data Centre
#                                CCDC 
#
#######################################################################
#
# If this CIF has been generated from an entry in the Cambridge 
# Structural Database, then it will include bibliographic, chemical, 
# crystal, experimental, refinement or atomic coordinate data resulting 
# from the CCDC's data processing and validation procedures.
#
#######################################################################

data_COXREN
_symmetry_cell_setting           triclinic
_symmetry_space_group_name_H-M   'P -1'
_symmetry_Int_Tables_number      2
_space_group_name_Hall           '-P 1'
loop_
_symmetry_equiv_pos_site_id
_symmetry_equiv_pos_as_xyz
1 x,y,z
2 -x,-y,-z
_cell_length_a                   9.9084(8)
_cell_length_b                   11.0461(9)
_cell_length_c                   12.9719(12)
_cell_angle_alpha                65.659(9)
_cell_angle_beta                 84.796(7)
_cell_angle_gamma                80.094(7)
_cell_volume                     1273.96
loop_
_atom_site_label
_atom_site_type_symbol
_atom_site_fract_x
_atom_site_fract_y
_atom_site_fract_z
C1 C -0.0688(2) 0.8950(2) 0.6816(2)
C2 C 0.4405(2) 0.7859(2) 0.94481(19)
C3 C -0.2062(2) 0.9098(2) 0.6610(2)
C4 C 0.5634(2) 0.8188(2) 1.07951(19)
C5 C -0.3012(2) 0.9463(2) 0.72962(19)
C6 C 0.8386(2) 0.6660(2) 1.1112(2)
C7 C 0.8514(2) 0.4642(3) 1.0757(2)
C8 C -0.2586(2) 0.9717(2) 0.8160(2)
C9 C -0.1189(2) 0.9570(2) 0.83123(18)
C10 C 0.6551(2) 0.6404(2) 1.00894(18)
C11 C -0.0600(2) 0.9803(2) 0.92096(17)
C12 C 0.5572(2) 0.7464(2) 1.01304(18)
C13 C 0.7812(2) 0.5933(2) 1.0620(2)
C14 C -0.1357(2) 1.0356(2) 0.98988(18)
C15 C 0.7051(2) 0.5494(3) 0.8656(2)
H1 H 0.7351 0.4533 0.8925
H2 H 0.7851 0.5942 0.8514
C16 C 0.6246(3) 0.5991(3) 0.7600(2)
H3 H 0.6808 0.5805 0.7024
H4 H 0.5959 0.6942 0.7343
H5 H 0.5455 0.5543 0.7755
C17 C 0.3079(2) 0.8131(2) 0.61707(19)
C18 C 0.5103(2) 0.8326(2) 0.49760(18)
C19 C 0.5267(2) 0.6493(2) 0.3903(2)
C20 C 0.3169(2) 0.7034(2) 0.2874(2)
C21 C 0.3153(2) 0.7446(2) 0.45975(18)
C22 C 0.3806(2) 0.7891(2) 0.52758(18)
C23 C 0.3837(2) 0.6984(2) 0.38229(19)
C24 C 0.0990(2) 0.6701(3) 0.4587(2)
H6 H 0.1548 0.5839 0.4724
H7 H 0.0661 0.7083 0.382
C25 C -0.0182(3) 0.6531(3) 0.5407(3)
H8 H -0.0731 0.5938 0.5329
H9 H -0.073 0.7389 0.526
H10 H 0.0156 0.6155 0.6163
N1 N 0.34368(17) 0.8225(2) 0.89130(16)
N2 N -0.02454(16) 0.91805(18) 0.76505(14)
N3 N 0.07637(16) 0.94533(17) 0.93142(14)
N4 N 0.56426(18) 0.8825(2) 1.13072(17)
N5 N 0.88657(19) 0.7260(2) 1.14920(19)
N6 N 0.9030(2) 0.3588(2) 1.08608(18)
N7 N 0.24962(17) 0.8337(2) 0.68962(16)
N8 N 0.61388(19) 0.8706(2) 0.47028(17)
N9 N 0.6405(2) 0.6065(2) 0.39788(18)
N10 N 0.2654(2) 0.7112(2) 0.20878(19)
O1 O 0.61388(14) 0.58012(16) 0.94833(14)
O2 O 0.1842(2) 1.1067(2) 0.71141(18)
O3 O 0.17906(14) 0.75976(15) 0.47422(13)
Cu1 Cu 0.16849(3) 0.88411(3) 0.81296(2)
H11 H -0.005(2) 0.874(2) 0.6356(18)
H12 H -0.232(2) 0.894(2) 0.6028(18)
H13 H -0.3961(19) 0.9535(19) 0.7193(16)
H14 H -0.323(2) 1.002(2) 0.8604(17)
H15 H 0.181(3) 1.150(3) 0.739(2)
H16 H 0.244(3) 1.122(3) 0.662(3)
H17 H -0.234(2) 1.061(2) 0.9848(17)
C1A C 0.0688(2) 1.1050(2) 1.3184(2)
C2A C 0.5595(2) 0.2141(2) 1.05519(19)
C3A C 0.2062(2) 1.0902(2) 1.3390(2)
C4A C 0.4366(2) 0.1812(2) 0.92049(19)
C5A C 0.3012(2) 1.0537(2) 1.27038(19)
C6A C 0.1614(2) 0.3340(2) 0.8888(2)
C7A C 0.1486(2) 0.5358(3) 0.9243(2)
C8A C 0.2586(2) 1.0283(2) 1.1840(2)
C9A C 0.1189(2) 1.0430(2) 1.16877(18)
C10A C 0.3449(2) 0.3596(2) 0.99106(18)
C11A C 0.0600(2) 1.0197(2) 1.07904(17)
C12A C 0.4428(2) 0.2536(2) 0.98696(18)
C13A C 0.2188(2) 0.4067(2) 0.9380(2)
C14A C 0.1357(2) 0.9644(2) 1.01012(18)
C15A C 0.2949(2) 0.4506(3) 1.1344(2)
H1A H 0.2649 0.5467 1.1075
H2A H 0.2149 0.4058 1.1486
C16A C 0.3754(3) 0.4009(3) 1.2400(2)
H3A H 0.3192 0.4195 1.2976
H4A H 0.4041 0.3058 1.2657
H5A H 0.4545 0.4457 1.2245
C17A C 0.6921(2) 0.1869(2) 1.38293(19)
C18A C 0.4897(2) 0.1674(2) 1.50240(18)
C19A C 0.4733(2) 0.3507(2) 1.6097(2)
C20A C 0.6831(2) 0.2966(2) 1.7126(2)
C21A C 0.6847(2) 0.2554(2) 1.54025(18)
C22A C 0.6194(2) 0.2109(2) 1.47242(18)
C23A C 0.6163(2) 0.3016(2) 1.61771(19)
C24A C 0.9010(2) 0.3299(3) 1.5413(2)
H6A H 0.8452 0.4161 1.5276
H7A H 0.9339 0.2917 1.618
C25A C 1.0182(3) 0.3469(3) 1.4593(3)
H8A H 1.0731 0.4062 1.4671
H9A H 1.073 0.2611 1.474
H10A H 0.9844 0.3845 1.3837
N1A N 0.65632(17) 0.1775(2) 1.10870(16)
N2A N 0.02454(16) 1.08195(18) 1.23495(14)
N2A_2 N 1.02454(16) 0.08195(18) 1.23495(14)
N3A N -0.07637(16) 1.05467(17) 1.06858(14)
N3A_2 N 0.92363(16) 0.05467(17) 1.06858(14)
N4A N 0.43574(18) 0.1175(2) 0.86928(17)
N5A N 0.11343(19) 0.2740(2) 0.85080(19)
N6A N 0.0970(2) 0.6412(2) 0.91392(18)
N7A N 0.75038(17) 0.1663(2) 1.31038(16)
N8A N 0.38612(19) 0.1294(2) 1.52972(17)
N9A N 0.3595(2) 0.3935(2) 1.60212(18)
N10A N 0.7346(2) 0.2888(2) 1.79122(19)
O1A O 0.38612(14) 0.41988(16) 1.05167(14)
O2A O 0.8158(2) -0.1067(2) 1.28859(18)
O3A O 0.82094(14) 0.24024(15) 1.52578(13)
Cu1A Cu 0.83151(3) 0.11589(3) 1.18704(2)
Cu1A_2 Cu -0.16849(3) 1.11589(3) 1.18704(2)
H11A H 0.005(2) 1.126(2) 1.3644(18)
H12A H 0.232(2) 1.106(2) 1.3972(18)
H13A H 0.3961(19) 1.0465(19) 1.2807(16)
H14A H 0.323(2) 0.998(2) 1.1396(17)
H15A H 0.819(3) -0.150(3) 1.261(2)
H16A H 0.756(3) -0.122(3) 1.338(3)
H17A H 0.234(2) 0.939(2) 1.0152(17)
loop_
_geom_bond_atom_site_label_1
_geom_bond_atom_site_label_2
_geom_bond_site_symmetry_1
_geom_bond_site_symmetry_2
C1 C3 1_555 1_555
C2 C12 1_555 1_555
C3 C5 1_555 1_555
C4 C12 1_555 1_555
C5 C8 1_555 1_555
C6 C13 1_555 1_555
C7 C13 1_555 1_555
C8 C9 1_555 1_555
C9 C11 1_555 1_555
C10 C12 1_555 1_555
C11 C14 1_555 1_555
C13 C10 1_555 1_555
C14 H17 1_555 1_555
C15 H1 1_555 1_555
H2 C15 1_555 1_555
C16 C15 1_555 1_555
H3 C16 1_555 1_555
H4 C16 1_555 1_555
H5 C16 1_555 1_555
C17 C22 1_555 1_555
C18 C22 1_555 1_555
C19 C23 1_555 1_555
C20 C23 1_555 1_555
C21 C22 1_555 1_555
C23 C21 1_555 1_555
C24 H6 1_555 1_555
H7 C24 1_555 1_555
C25 C24 1_555 1_555
H8 C25 1_555 1_555
H9 C25 1_555 1_555
H10 C25 1_555 1_555
N1 C2 1_555 1_555
N2 C1 1_555 1_555
N3 C11 1_555 1_555
N4 C4 1_555 1_555
N5 C6 1_555 1_555
N6 C7 1_555 1_555
N7 C17 1_555 1_555
N8 C18 1_555 1_555
N9 C19 1_555 1_555
N10 C20 1_555 1_555
O1 C10 1_555 1_555
O2 Cu1 1_555 1_555
O3 C21 1_555 1_555
Cu1 N1 1_555 1_555
H11 C1 1_555 1_555
H12 C3 1_555 1_555
H13 C5 1_555 1_555
H14 C8 1_555 1_555
H15 O2 1_555 1_555
H16 O2 1_555 1_555
C1A C3A 1_555 1_555
C2A C12A 1_555 1_555
C3A C5A 1_555 1_555
C4A C12A 1_555 1_555
C5A C8A 1_555 1_555
C6A C13A 1_555 1_555
C7A C13A 1_555 1_555
C8A C9A 1_555 1_555
C9A C11A 1_555 1_555
C10A C12A 1_555 1_555
C11A C14A 1_555 1_555
C13A C10A 1_555 1_555
C14A N3 1_555 1_555
C15A H1A 1_555 1_555
H2A C15A 1_555 1_555
C16A C15A 1_555 1_555
H3A C16A 1_555 1_555
H4A C16A 1_555 1_555
H5A C16A 1_555 1_555
C17A C22A 1_555 1_555
C18A C22A 1_555 1_555
C19A C23A 1_555 1_555
C20A C23A 1_555 1_555
C21A C22A 1_555 1_555
C23A C21A 1_555 1_555
C24A H6A 1_555 1_555
H7A C24A 1_555 1_555
C25A C24A 1_555 1_555
H8A C25A 1_555 1_555
H9A C25A 1_555 1_555
H10A C25A 1_555 1_555
N1A C2A 1_555 1_555
N2A C1A 1_555 1_555
N2A_2 Cu1A 1_555 1_555
N3A C14 1_555 1_555
N3A_2 Cu1A 1_555 1_555
N4A C4A 1_555 1_555
N5A C6A 1_555 1_555
N6A Cu1 1_555 1_555
N7A C17A 1_555 1_555
N8A C18A 1_555 1_555
N9A C19A 1_555 1_555
N10A C20A 1_555 1_555
O1A C10A 1_555 1_555
O2A Cu1A 1_555 1_555
O3A C21A 1_555 1_555
Cu1A N6 1_555 1_555
Cu1A_2 N2A 1_555 1_555
H11A C1A 1_555 1_555
H12A C3A 1_555 1_555
H13A C5A 1_555 1_555
H14A C8A 1_555 1_555
H15A O2A 1_555 1_555
H16A O2A 1_555 1_555
H17A C14A 1_555 1_555
C9 N2 1_555 1_555
C15 O1 1_555 1_555
C24 O3 1_555 1_555
N2 Cu1 1_555 1_555
N3 Cu1 1_555 1_555
N7 Cu1 1_555 1_555
C7A N6A 1_555 1_555
C9A N2A 1_555 1_555
C11A N3A 1_555 1_555
C15A O1A 1_555 1_555
C24A O3A 1_555 1_555
N1A Cu1A 1_555 1_555
N3A Cu1A_2 1_555 1_555
N7A Cu1A 1_555 1_555

#END
