
#######################################################################
#
#                 Cambridge Crystallographic Data Centre
#                                CCDC 
#
#######################################################################
#
# If this CIF has been generated from an entry in the Cambridge 
# Structural Database, then it will include bibliographic, chemical, 
# crystal, experimental, refinement or atomic coordinate data resulting 
# from the CCDC's data processing and validation procedures.
#
#######################################################################

data_COXSEO
_symmetry_cell_setting           monoclinic
_symmetry_space_group_name_H-M   'C 2/c'
_symmetry_Int_Tables_number      15
_space_group_name_Hall           '-C 2yn'
loop_
_symmetry_equiv_pos_site_id
_symmetry_equiv_pos_as_xyz
1 x,y,z
2 -x,y,1/2-z
3 1/2+x,1/2+y,z
4 1/2-x,1/2+y,1/2-z
5 -x,-y,-z
6 x,-y,1/2+z
7 1/2-x,1/2-y,-z
8 1/2+x,1/2-y,1/2+z
_cell_length_a                   28.255
_cell_length_b                   7.764
_cell_length_c                   18.600
_cell_angle_alpha                90
_cell_angle_beta                 125.57
_cell_angle_gamma                90
_cell_volume                     3318.95
loop_
_atom_site_label
_atom_site_type_symbol
_atom_site_fract_x
_atom_site_fract_y
_atom_site_fract_z
Cu1 Cu 0.2500 0.2500 0.5000
P1 P 0.11559(2) 0.19983(8) 0.36668(4)
S1 S 0.12961(3) 0.41714(7) 0.49844(4)
N1 N 0.10138(9) 0.3666(3) 0.40058(13)
N2 N 0.22968(7) 0.41965(19) 0.40119(10)
O1 O 0.11185(10) 0.5888(2) 0.50226(14)
O2 O 0.19200(7) 0.3897(2) 0.55282(11)
O3 O 0.17642(6) 0.13144(17) 0.41838(8)
O4 O 0.09848(8) 0.2429(2) 0.27151(11)
O5 O 0.07332(8) 0.0551(3) 0.35602(13)
C1 C 0.10151(10) 0.2765(3) 0.54035(14)
C2 C 0.06062(11) 0.3385(4) 0.55178(17)
H1 H 0.0481 0.4521 0.5376
C3 C 0.03831(16) 0.2313(5) 0.5844(2)
H2 H 0.0103 0.2721 0.5915
C4 C 0.05736(17) 0.0654(5) 0.6063(2)
H3 H 0.0425 -0.0062 0.6288
C5 C 0.09874(15) 0.0022(4) 0.5952(2)
H4 H 0.1115 -0.1111 0.6103
C6 C 0.12079(11) 0.1072(3) 0.56213(17)
H5 H 0.1484 0.0656 0.5543
C7 C 0.05335(15) 0.3563(5) 0.21239(18)
H6 H 0.0522 0.3682 0.1601
H7 H 0.0601 0.4668 0.2399
H8 H 0.0169 0.3111 0.1968
C8 C 0.08300(15) -0.1230(4) 0.3464(3)
H9 H 0.0510 -0.1912 0.3350
H10 H 0.1183 -0.1622 0.3997
H11 H 0.0862 -0.1344 0.2979
C9 C 0.21594(9) 0.3482(3) 0.32562(12)
H12 H 0.2136 0.2288 0.3206
C10 C 0.20503(10) 0.4443(3) 0.25460(13)
H13 H 0.1950 0.3908 0.2028
C11 C 0.20933(11) 0.6193(3) 0.26255(14)
H14 H 0.2031 0.6865 0.2164
C12 C 0.22283(12) 0.6957(3) 0.33880(15)
H15 H 0.2256 0.8149 0.3445
C13 C 0.23244(8) 0.5932(2) 0.40811(12)
C14 C 0.24470(8) 0.6679(2) 0.48958(11)
H16 H 0.2450 0.5943 0.5293
Cu1_2 Cu 0.2500 1.2500 0.5000
P1F P 0.38441(2) 0.30017(8) 0.63332(4)
S1F S 0.37039(3) 0.08286(7) 0.50156(4)
N1F N 0.39862(9) 0.1334(3) 0.59942(13)
N2F N 0.27032(7) 1.08035(19) 0.59881(10)
N2F_2 N 0.27032(7) 0.08035(19) 0.59881(10)
O1F O 0.38815(10) -0.0888(2) 0.49774(14)
O2F O 0.30800(7) 0.1103(2) 0.44718(11)
O3F O 0.32358(6) 0.36856(17) 0.58162(8)
O4F O 0.40152(8) 0.2571(2) 0.72849(11)
O5F O 0.42668(8) 0.4449(3) 0.64398(13)
C1F C 0.39849(10) 0.2235(3) 0.45965(14)
C2F C 0.43938(11) 0.1615(4) 0.44822(17)
H1F H 0.4519 0.0479 0.4624
C3F C 0.46169(16) 0.2687(5) 0.4156(2)
H2F H 0.4897 0.2279 0.4085
C4F C 0.44264(17) 0.4346(5) 0.3937(2)
H3F H 0.4575 0.5062 0.3712
C5F C 0.40126(15) 0.4978(4) 0.4048(2)
H4F H 0.3885 0.6111 0.3897
C6F C 0.37921(11) 0.3928(3) 0.43787(17)
H5F H 0.3516 0.4344 0.4457
C7F C 0.44665(15) 0.1437(5) 0.78761(18)
H6F H 0.4478 0.1318 0.8399
H7F H 0.4399 0.0332 0.7601
H8F H 0.4831 0.1889 0.8032
C8F C 0.41700(15) 0.6230(4) 0.6536(3)
H9F H 0.4490 0.6912 0.6650
H10F H 0.3817 0.6622 0.6003
H11F H 0.4138 0.6344 0.7021
C9F C 0.28406(9) 1.1518(3) 0.67438(12)
H12F H 0.2864 1.2712 0.6794
C10F C 0.29497(10) 1.0557(3) 0.74540(13)
H13F H 0.3050 1.1092 0.7972
C11F C 0.29067(11) 0.8807(3) 0.73745(14)
H14F H 0.2969 0.8135 0.7836
C12F C 0.27717(12) 0.8043(3) 0.66120(15)
H15F H 0.2744 0.6851 0.6555
C13F C 0.26756(8) 0.9068(2) 0.59189(12)
C14F C 0.25530(8) 0.8321(2) 0.51042(11)
H16F H 0.2550 0.9057 0.4707
loop_
_geom_bond_atom_site_label_1
_geom_bond_atom_site_label_2
_geom_bond_site_symmetry_1
_geom_bond_site_symmetry_2
Cu1 N2 1_555 1_555
P1 N1 1_555 1_555
S1 N1 1_555 1_555
N2 C9 1_555 1_555
O1 S1 1_555 1_555
O2 Cu1 1_555 1_555
O3 Cu1 1_555 1_555
O4 P1 1_555 1_555
O5 P1 1_555 1_555
C1 S1 1_555 1_555
C2 C1 1_555 1_555
H1 C2 1_555 1_555
C3 C2 1_555 1_555
H2 C3 1_555 1_555
C4 C3 1_555 1_555
H3 C4 1_555 1_555
C5 C4 1_555 1_555
H4 C5 1_555 1_555
C6 C1 1_555 1_555
H5 C6 1_555 1_555
C7 O4 1_555 1_555
H6 C7 1_555 1_555
H7 C7 1_555 1_555
H8 C7 1_555 1_555
C8 O5 1_555 1_555
H9 C8 1_555 1_555
H10 C8 1_555 1_555
H11 C8 1_555 1_555
C9 H12 1_555 1_555
C10 C9 1_555 1_555
H13 C10 1_555 1_555
C11 C10 1_555 1_555
H14 C11 1_555 1_555
C12 C11 1_555 1_555
H15 C12 1_555 1_555
C13 N2 1_555 1_555
C14 C13 1_555 1_555
H16 C14 1_555 1_555
Cu1_2 N2F 1_555 1_555
P1F N1F 1_555 1_555
S1F N1F 1_555 1_555
N2F C9F 1_555 1_555
N2F_2 Cu1 1_555 1_555
O1F S1F 1_555 1_555
O2F Cu1 1_555 1_555
O3F Cu1 1_555 1_555
O4F P1F 1_555 1_555
O5F P1F 1_555 1_555
C1F S1F 1_555 1_555
C2F C1F 1_555 1_555
H1F C2F 1_555 1_555
C3F C2F 1_555 1_555
H2F C3F 1_555 1_555
C4F C3F 1_555 1_555
H3F C4F 1_555 1_555
C5F C4F 1_555 1_555
H4F C5F 1_555 1_555
C6F C1F 1_555 1_555
H5F C6F 1_555 1_555
C7F O4F 1_555 1_555
H6F C7F 1_555 1_555
H7F C7F 1_555 1_555
H8F C7F 1_555 1_555
C8F O5F 1_555 1_555
H9F C8F 1_555 1_555
H10F C8F 1_555 1_555
H11F C8F 1_555 1_555
C9F H12F 1_555 1_555
C10F C9F 1_555 1_555
H13F C10F 1_555 1_555
C11F C10F 1_555 1_555
H14F C11F 1_555 1_555
C12F C11F 1_555 1_555
H15F C12F 1_555 1_555
C13F N2F 1_555 1_555
C14F C14 1_555 1_555
H16F C14F 1_555 1_555
P1 O3 1_555 1_555
S1 O2 1_555 1_555
C5 C6 1_555 1_555
C12 C13 1_555 1_555
P1F O3F 1_555 1_555
S1F O2F 1_555 1_555
C5F C6F 1_555 1_555
C12F C13F 1_555 1_555
C13F C14F 1_555 1_555

#END
