
#######################################################################
#
#                 Cambridge Crystallographic Data Centre
#                                CCDC 
#
#######################################################################
#
# If this CIF has been generated from an entry in the Cambridge 
# Structural Database, then it will include bibliographic, chemical, 
# crystal, experimental, refinement or atomic coordinate data resulting 
# from the CCDC's data processing and validation procedures.
#
#######################################################################

data_COXTAM
_symmetry_cell_setting           triclinic
_symmetry_space_group_name_H-M   'P -1'
_symmetry_Int_Tables_number      2
_space_group_name_Hall           '-P 1'
loop_
_symmetry_equiv_pos_site_id
_symmetry_equiv_pos_as_xyz
1 x,y,z
2 -x,-y,-z
_cell_length_a                   8.575(6)
_cell_length_b                   9.035(6)
_cell_length_c                   11.884(8)
_cell_angle_alpha                80.181(11)
_cell_angle_beta                 84.102(12)
_cell_angle_gamma                66.769(9)
_cell_volume                     833.03
loop_
_atom_site_label
_atom_site_type_symbol
_atom_site_fract_x
_atom_site_fract_y
_atom_site_fract_z
C1 C 0.1701(10) 0.6214(9) 0.4861(6)
H1 H 0.1750 0.6154 0.5646
C2 C 0.2011(11) 0.4927(9) 0.3345(7)
H2 H 0.2298 0.3970 0.3036
C3 C 0.1433(9) 0.6398(8) 0.2615(6)
C4 C 0.1068(9) 0.7762(8) 0.3140(6)
H3 H 0.0742 0.8773 0.2686
C5 C 0.1185(9) 0.6500(8) 0.1389(6)
C6 C -0.0166(10) 0.7778(9) 0.0846(6)
H4 H -0.0889 0.8600 0.1250
C7 C -0.0444(11) 0.7837(9) -0.0287(7)
H5 H -0.1353 0.8692 -0.0643
C8 C 0.0644(11) 0.6609(9) -0.0893(6)
H6 H 0.0442 0.6631 -0.1651
C9 C 0.2014(9) 0.5364(8) -0.0380(6)
C10 C 0.2276(10) 0.5314(9) 0.0761(6)
H7 H 0.3200 0.4469 0.1110
C11 C 0.3211(10) 0.4087(9) -0.1026(6)
C12 C 0.4702(10) 0.1917(9) -0.3331(6)
H8 H 0.5914 0.1451 -0.3507
H9 H 0.4174 0.2748 -0.3962
C13 C 0.3999(9) 0.0605(8) -0.3209(6)
C14 C 0.4453(10) -0.0677(9) -0.2321(7)
H10 H 0.5209 -0.0764 -0.1782
C15 C 0.3745(10) -0.1825(9) -0.2265(7)
H11 H 0.3999 -0.2686 -0.1669
C16 C 0.2672(10) -0.1695(9) -0.3083(6)
H12 H 0.2247 -0.2505 -0.3041
C17 C 0.2890(9) 0.0656(8) -0.3982(6)
H13 H 0.2590 0.1520 -0.4577
Cl1 Cl 0.1260(2) 1.1283(2) 0.34644(14)
Co1 Co 0.0000 1.0000 0.5000
N1 N 0.1162(8) 0.7697(7) 0.4265(5)
N2 N 0.2175(10) 0.4816(7) 0.4464(5)
N3 N 0.3019(8) 0.3980(7) -0.2096(5)
N4 N 0.4397(8) 0.2663(7) -0.2286(5)
N5 N 0.5365(9) 0.1997(8) -0.1396(6)
N6 N 0.4630(9) 0.2895(8) -0.0581(5)
N7 N 0.2206(8) -0.0470(7) -0.3935(5)
C1A C -0.1701(10) 0.3786(9) -0.4861(6)
H1A H -0.1750 0.3846 -0.5646
C2A C -0.2011(11) 0.5073(9) -0.3345(7)
H2A H -0.2298 0.6030 -0.3036
C3A C -0.1433(9) 0.3602(8) -0.2615(6)
C4A C -0.1068(9) 0.2238(8) -0.3140(6)
H3A H -0.0742 0.1227 -0.2686
C5A C -0.1185(9) 0.3500(8) -0.1389(6)
C6A C 0.0166(10) 0.2222(9) -0.0846(6)
H4A H 0.0889 0.1400 -0.1250
C7A C 0.0444(11) 0.2163(9) 0.0287(7)
H5A H 0.1353 0.1308 0.0643
C8A C -0.0644(11) 0.3391(9) 0.0893(6)
H6A H -0.0442 0.3369 0.1651
C9A C -0.2014(9) 0.4636(8) 0.0380(6)
C10A C -0.2276(10) 0.4686(9) -0.0761(6)
H7A H -0.3200 0.5531 -0.1110
C11A C -0.3211(10) 0.5913(9) 0.1026(6)
C12A C -0.4702(10) 0.8083(9) 0.3331(6)
H8A H -0.5914 0.8549 0.3507
H9A H -0.4174 0.7252 0.3962
C13A C -0.3999(9) 0.9395(8) 0.3209(6)
C14A C -0.4453(10) 1.0677(9) 0.2321(7)
H10A H -0.5209 1.0764 0.1782
C15A C -0.3745(10) 1.1825(9) 0.2265(7)
H11A H -0.3999 1.2686 0.1669
C16A C -0.2672(10) 1.1695(9) 0.3083(6)
H12A H -0.2247 1.2505 0.3041
C17A C -0.2890(9) 0.9344(8) 0.3982(6)
H13A H -0.2590 0.8480 0.4577
N1A N -0.1162(8) 0.2303(7) -0.4265(5)
N2A N -0.2175(10) 0.5184(7) -0.4464(5)
N3A N -0.3019(8) 0.6020(7) 0.2096(5)
N4A N -0.4397(8) 0.7337(7) 0.2286(5)
N5A N -0.5365(9) 0.8003(8) 0.1396(6)
N6A N -0.4630(9) 0.7105(8) 0.0581(5)
N7A N -0.2206(8) 1.0470(7) 0.3935(5)
Cl1A Cl -0.1260(2) 0.8717(2) 0.65356(14)
Co1_2 Co 0.0000 0.0000 -0.5000
N1A_2 N -0.1162(8) 1.2303(7) 0.5735(5)
N7_2 N 0.2206(8) 0.9530(7) 0.6065(5)
loop_
_geom_bond_atom_site_label_1
_geom_bond_atom_site_label_2
_geom_bond_site_symmetry_1
_geom_bond_site_symmetry_2
C1 H1 1_555 1_555
C2 H2 1_555 1_555
C3 C2 1_555 1_555
C4 C3 1_555 1_555
H3 C4 1_555 1_555
C5 C3 1_555 1_555
C6 C5 1_555 1_555
H4 C6 1_555 1_555
C7 C6 1_555 1_555
H5 C7 1_555 1_555
C8 C7 1_555 1_555
H6 C8 1_555 1_555
C9 C8 1_555 1_555
C10 C5 1_555 1_555
H7 C10 1_555 1_555
C11 C9 1_555 1_555
C12 H8 1_555 1_555
H9 C12 1_555 1_555
C13 C12 1_555 1_555
C14 C13 1_555 1_555
H10 C14 1_555 1_555
C15 C14 1_555 1_555
H11 C15 1_555 1_555
C16 C15 1_555 1_555
H12 C16 1_555 1_555
C17 C13 1_555 1_555
H13 C17 1_555 1_555
Cl1 Co1 1_555 1_555
Co1 N1 1_555 1_555
N1 C1 1_555 1_555
N2 C1 1_555 1_555
N3 C11 1_555 1_555
N4 C12 1_555 1_555
N5 N4 1_555 1_555
N6 C11 1_555 1_555
N7 C16 1_555 1_555
C1A H1A 1_555 1_555
C2A H2A 1_555 1_555
C3A C2A 1_555 1_555
C4A C3A 1_555 1_555
H3A C4A 1_555 1_555
C5A C3A 1_555 1_555
C6A C5A 1_555 1_555
H4A C6A 1_555 1_555
C7A C6A 1_555 1_555
H5A C7A 1_555 1_555
C8A C7A 1_555 1_555
H6A C8A 1_555 1_555
C9A C8A 1_555 1_555
C10A C5A 1_555 1_555
H7A C10A 1_555 1_555
C11A C9A 1_555 1_555
C12A H8A 1_555 1_555
H9A C12A 1_555 1_555
C13A C12A 1_555 1_555
C14A C13A 1_555 1_555
H10A C14A 1_555 1_555
C15A C14A 1_555 1_555
H11A C15A 1_555 1_555
C16A C15A 1_555 1_555
H12A C16A 1_555 1_555
C17A C13A 1_555 1_555
H13A C17A 1_555 1_555
N1A C1A 1_555 1_555
N2A C1A 1_555 1_555
N3A C11A 1_555 1_555
N4A C12A 1_555 1_555
N5A N4A 1_555 1_555
N6A C11A 1_555 1_555
N7A Co1 1_555 1_555
Cl1A Co1 1_555 1_555
Co1_2 N7 1_555 1_555
N1A_2 Co1 1_555 1_555
N7_2 Co1 1_555 1_555
C2 N2 1_555 1_555
C4 N1 1_555 1_555
C9 C10 1_555 1_555
C17 N7 1_555 1_555
N3 N4 1_555 1_555
N5 N6 1_555 1_555
C2A N2A 1_555 1_555
C4A N1A 1_555 1_555
C9A C10A 1_555 1_555
C16A N7A 1_555 1_555
C17A N7A 1_555 1_555
N1A Co1_2 1_555 1_555
N3A N4A 1_555 1_555
N5A N6A 1_555 1_555

#END
