
#######################################################################
#
#                 Cambridge Crystallographic Data Centre
#                                CCDC 
#
#######################################################################
#
# If this CIF has been generated from an entry in the Cambridge 
# Structural Database, then it will include bibliographic, chemical, 
# crystal, experimental, refinement or atomic coordinate data resulting 
# from the CCDC's data processing and validation procedures.
#
#######################################################################

data_COXWOD
_symmetry_cell_setting           triclinic
_symmetry_space_group_name_H-M   'P -1'
_symmetry_Int_Tables_number      2
_space_group_name_Hall           '-P 1'
loop_
_symmetry_equiv_pos_site_id
_symmetry_equiv_pos_as_xyz
1 x,y,z
2 -x,-y,-z
_cell_length_a                   10.7167(16)
_cell_length_b                   10.9125(17)
_cell_length_c                   12.1124(18)
_cell_angle_alpha                115.901(2)
_cell_angle_beta                 97.107(2)
_cell_angle_gamma                103.802(2)
_cell_volume                     1194.55
loop_
_atom_site_label
_atom_site_type_symbol
_atom_site_fract_x
_atom_site_fract_y
_atom_site_fract_z
Pr1 Pr 0.52300(2) 0.21138(2) 0.105383(19)
O1 O 0.7223(3) 0.3732(3) 0.1000(3)
O2 O 0.6913(3) 0.5093(4) 0.0146(4)
O3 O 0.7077(3) 0.9296(3) 0.0267(3)
O4 O 0.7141(3) 1.1483(3) 0.1700(3)
O5 O 0.4566(3) 0.1400(3) 0.2713(3)
O6 O 0.4490(3) -0.0436(3) 0.0932(2)
O7 O 0.4572(3) 0.3117(4) -0.0353(3)
N1 N 0.6431(4) 0.4426(4) 0.3345(3)
N2 N 0.3866(4) 0.3867(4) 0.2224(3)
C1 C 0.7560(4) 0.4878(5) 0.0931(4)
C2 C 0.8829(5) 0.6038(5) 0.1885(5)
H1 H 0.8646 0.6466 0.2711
H2 H 0.9488 0.5581 0.1948
C3 C 0.9429(4) 0.7232(5) 0.1601(4)
C4 C 1.0445(4) 0.7191(5) 0.0996(4)
H3 H 1.0767 0.6418 0.0765
C5 C 1.0986(4) 0.8273(5) 0.0731(4)
H4 H 1.1656 0.8219 0.0310
C6 C 1.0539(4) 0.9438(5) 0.1088(4)
H5 H 1.0932 1.0184 0.0932
C7 C 0.9500(4) 0.9512(4) 0.1683(4)
C8 C 0.8971(4) 0.8398(5) 0.1931(4)
H6 H 0.8284 0.8434 0.2332
C9 C 0.8971(4) 1.0759(5) 0.2056(4)
H7 H 0.9609 1.1534 0.2027
H8 H 0.8930 1.1103 0.2933
C10 C 0.7613(4) 1.0473(4) 0.1266(4)
C11 C 0.4414(5) 0.0094(5) 0.2076(4)
C12 C 0.4157(5) -0.0922(5) 0.2632(4)
C13 C 0.5076(11) -0.0428(11) 0.3798(7)
C14 C 0.6333(10) -0.0455(11) 0.3691(9)
H9 H 0.6511 -0.0731 0.2900
C15 C 0.7339(10) -0.0083(11) 0.4722(9)
H10 H 0.8173 -0.0133 0.4615
C16 C 0.7113(10) 0.0363(11) 0.5916(9)
H11 H 0.7795 0.0615 0.6608
C17 C 0.5865(10) 0.0434(9) 0.6081(8)
C18 C 0.5000 0.0000 0.5000
C19 C 0.7698(5) 0.4669(5) 0.3865(4)
H12 H 0.8084 0.3969 0.3468
C20 C 0.8460(5) 0.5909(6) 0.4959(5)
H13 H 0.9343 0.6048 0.5293
C21 C 0.7880(6) 0.6939(6) 0.5549(5)
H14 H 0.8371 0.7789 0.6289
C22 C 0.6588(5) 0.6704(5) 0.5040(5)
H15 H 0.6187 0.7391 0.5431
C23 C 0.5867(4) 0.5424(5) 0.3927(4)
C24 C 0.4451(4) 0.5116(4) 0.3322(4)
C25 C 0.3763(5) 0.6062(5) 0.3851(5)
H16 H 0.4182 0.6921 0.4606
C26 C 0.2452(6) 0.5717(6) 0.3249(6)
H17 H 0.1982 0.6347 0.3589
C27 C 0.1852(5) 0.4451(6) 0.2155(5)
H18 H 0.0964 0.4193 0.1744
C28 C 0.2589(5) 0.3554(5) 0.1666(4)
H19 H 0.2177 0.2690 0.0913
H20 H 0.397(4) 0.349(5) -0.042(5)
H21 H 0.526(3) 0.370(5) -0.036(5)
O5A O 0.5434(3) -0.1400(3) 0.7287(3)
O6A O 0.5510(3) 0.0436(3) 0.9068(2)
C11A C 0.5586(5) -0.0094(5) 0.7924(4)
C12A C 0.5843(5) 0.0922(5) 0.7368(4)
C13A C 0.4924(11) 0.0428(11) 0.6202(7)
C14A C 0.3667(10) 0.0455(11) 0.6309(9)
H9A H 0.3489 0.0731 0.7100
C15A C 0.2661(10) 0.0083(11) 0.5278(9)
H10A H 0.1827 0.0133 0.5385
C16A C 0.2887(10) -0.0363(11) 0.4084(9)
H11A H 0.2205 -0.0615 0.3392
C17A C 0.4135(10) -0.0434(9) 0.3919(8)
Pr1A Pr 0.47700(2) -0.21138(2) -0.105383(19)
O1A O 0.2777(3) -0.3732(3) -0.1000(3)
O2A O 0.3087(3) -0.5093(4) -0.0146(4)
O3A O 0.2923(3) -0.9296(3) -0.0267(3)
O4A O 0.2859(3) -1.1483(3) -0.1700(3)
O7A O 0.5428(3) -0.3117(4) 0.0353(3)
N1A N 0.3569(4) -0.4426(4) -0.3345(3)
N2A N 0.6134(4) -0.3867(4) -0.2224(3)
C1A C 0.2440(4) -0.4878(5) -0.0931(4)
C2A C 0.1171(5) -0.6038(5) -0.1885(5)
H1A H 0.1354 -0.6466 -0.2711
H2A H 0.0512 -0.5581 -0.1948
C3A C 0.0571(4) -0.7232(5) -0.1601(4)
C4A C -0.0445(4) -0.7191(5) -0.0996(4)
H3A H -0.0767 -0.6418 -0.0765
C5A C -0.0986(4) -0.8273(5) -0.0731(4)
H4A H -0.1656 -0.8219 -0.0310
C6A C -0.0539(4) -0.9438(5) -0.1088(4)
H5A H -0.0932 -1.0184 -0.0932
C7A C 0.0500(4) -0.9512(4) -0.1683(4)
C8A C 0.1029(4) -0.8398(5) -0.1931(4)
H6A H 0.1716 -0.8434 -0.2332
C9A C 0.1029(4) -1.0759(5) -0.2056(4)
H7A H 0.0391 -1.1534 -0.2027
H8A H 0.1070 -1.1103 -0.2933
C10A C 0.2387(4) -1.0473(4) -0.1266(4)
C19A C 0.2302(5) -0.4669(5) -0.3865(4)
H12A H 0.1916 -0.3969 -0.3468
C20A C 0.1540(5) -0.5909(6) -0.4959(5)
H13A H 0.0657 -0.6048 -0.5293
C21A C 0.2120(6) -0.6939(6) -0.5549(5)
H14A H 0.1629 -0.7789 -0.6289
C22A C 0.3412(5) -0.6704(5) -0.5040(5)
H15A H 0.3813 -0.7391 -0.5431
C23A C 0.4133(4) -0.5424(5) -0.3927(4)
C24A C 0.5549(4) -0.5116(4) -0.3322(4)
C25A C 0.6237(5) -0.6062(5) -0.3851(5)
H16A H 0.5818 -0.6921 -0.4606
C26A C 0.7548(6) -0.5717(6) -0.3249(6)
H17A H 0.8018 -0.6347 -0.3589
C27A C 0.8148(5) -0.4451(6) -0.2155(5)
H18A H 0.9036 -0.4193 -0.1744
C28A C 0.7411(5) -0.3554(5) -0.1666(4)
H19A H 0.7823 -0.2690 -0.0913
H20A H 0.603(4) -0.349(5) 0.042(5)
H21A H 0.474(3) -0.370(5) 0.036(5)
Pr1_2 Pr 0.52300(2) -0.78862(2) 0.105383(19)
Pr1_3 Pr 0.52300(2) 0.21138(2) 1.105383(19)
Pr1_4 Pr 0.52300(2) 1.21138(2) 0.105383(19)
Pr1A_2 Pr 0.47700(2) -1.21138(2) -0.105383(19)
Pr1A_3 Pr 0.47700(2) -0.21138(2) 0.894617(19)
Pr1A_4 Pr 0.47700(2) 0.78862(2) -0.105383(19)
O3_2 O 0.7077(3) -0.0704(3) 0.0267(3)
O3A_2 O 0.2923(3) 0.0704(3) -0.0267(3)
O4_2 O 0.7141(3) 0.1483(3) 0.1700(3)
O4A_2 O 0.2859(3) -0.1483(3) -0.1700(3)
O5A_2 O 0.5434(3) -0.1400(3) -0.2713(3)
O6A_2 O 0.5510(3) 0.0436(3) -0.0932(2)
loop_
_geom_bond_atom_site_label_1
_geom_bond_atom_site_label_2
_geom_bond_site_symmetry_1
_geom_bond_site_symmetry_2
Pr1 O1 1_555 1_555
O1 C1 1_555 1_555
O2 C1 1_555 1_555
O3 C10 1_555 1_555
O4 C10 1_555 1_555
O5 Pr1 1_555 1_555
O6 Pr1 1_555 1_555
O7 Pr1 1_555 1_555
N1 Pr1 1_555 1_555
N2 Pr1 1_555 1_555
C1 C2 1_555 1_555
C2 H1 1_555 1_555
H2 C2 1_555 1_555
C3 C2 1_555 1_555
C4 C3 1_555 1_555
H3 C4 1_555 1_555
C5 C4 1_555 1_555
H4 C5 1_555 1_555
C6 C5 1_555 1_555
H5 C6 1_555 1_555
C7 C6 1_555 1_555
C8 C3 1_555 1_555
H6 C8 1_555 1_555
C9 C7 1_555 1_555
H7 C9 1_555 1_555
H8 C9 1_555 1_555
C10 C9 1_555 1_555
C11 O5 1_555 1_555
C12 C11 1_555 1_555
C13 C12 1_555 1_555
C14 C13 1_555 1_555
H9 C14 1_555 1_555
C15 C14 1_555 1_555
H10 C15 1_555 1_555
C16 C15 1_555 1_555
H11 C16 1_555 1_555
C17 C16 1_555 1_555
C18 C13 1_555 1_555
C19 N1 1_555 1_555
H12 C19 1_555 1_555
C20 C19 1_555 1_555
H13 C20 1_555 1_555
C21 C20 1_555 1_555
H14 C21 1_555 1_555
C22 C21 1_555 1_555
H15 C22 1_555 1_555
C23 N1 1_555 1_555
C24 N2 1_555 1_555
C25 C24 1_555 1_555
H16 C25 1_555 1_555
C26 C25 1_555 1_555
H17 C26 1_555 1_555
C27 C26 1_555 1_555
H18 C27 1_555 1_555
C28 N2 1_555 1_555
H19 C28 1_555 1_555
H20 O7 1_555 1_555
H21 O7 1_555 1_555
O5A C11A 1_555 1_555
O6A C11A 1_555 1_555
C11A C12A 1_555 1_555
C12A C17 1_555 1_555
C13A C17 1_555 1_555
C14A C13A 1_555 1_555
H9A C14A 1_555 1_555
C15A C14A 1_555 1_555
H10A C15A 1_555 1_555
C16A C15A 1_555 1_555
H11A C16A 1_555 1_555
C17A C12 1_555 1_555
Pr1A O6 1_555 1_555
O1A Pr1A 1_555 1_555
O2A C1A 1_555 1_555
O3A C10A 1_555 1_555
O4A C10A 1_555 1_555
O7A Pr1A 1_555 1_555
N1A Pr1A 1_555 1_555
N2A Pr1A 1_555 1_555
C1A O1A 1_555 1_555
C2A C1A 1_555 1_555
H1A C2A 1_555 1_555
H2A C2A 1_555 1_555
C3A C2A 1_555 1_555
C4A C3A 1_555 1_555
H3A C4A 1_555 1_555
C5A C4A 1_555 1_555
H4A C5A 1_555 1_555
C6A C5A 1_555 1_555
H5A C6A 1_555 1_555
C7A C6A 1_555 1_555
C8A C3A 1_555 1_555
H6A C8A 1_555 1_555
C9A C7A 1_555 1_555
H7A C9A 1_555 1_555
H8A C9A 1_555 1_555
C10A C9A 1_555 1_555
C19A N1A 1_555 1_555
H12A C19A 1_555 1_555
C20A C19A 1_555 1_555
H13A C20A 1_555 1_555
C21A C20A 1_555 1_555
H14A C21A 1_555 1_555
C22A C21A 1_555 1_555
H15A C22A 1_555 1_555
C23A N1A 1_555 1_555
C24A N2A 1_555 1_555
C25A C24A 1_555 1_555
H16A C25A 1_555 1_555
C26A C25A 1_555 1_555
H17A C26A 1_555 1_555
C27A C26A 1_555 1_555
H18A C27A 1_555 1_555
C28A N2A 1_555 1_555
H19A C28A 1_555 1_555
H20A O7A 1_555 1_555
H21A O7A 1_555 1_555
Pr1_2 O3A 1_555 1_555
Pr1_3 O6A 1_555 1_555
Pr1_4 O4 1_555 1_555
Pr1A_2 O4A 1_555 1_555
Pr1A_3 O5A 1_555 1_555
Pr1A_4 O3 1_555 1_555
O3_2 Pr1A 1_555 1_555
O3A_2 Pr1 1_555 1_555
O4_2 Pr1 1_555 1_555
O4A_2 Pr1A 1_555 1_555
O5A_2 Pr1A 1_555 1_555
O6A_2 Pr1 1_555 1_555
O6 C11 1_555 1_555
C7 C8 1_555 1_555
C13 C17A 1_555 1_555
C17 C18 1_555 1_555
C18 C13A 1_555 1_555
C18 C17A 1_555 1_555
C22 C23 1_555 1_555
C23 C24 1_555 1_555
C27 C28 1_555 1_555
O6A Pr1A_3 1_555 1_555
C12A C13A 1_555 1_555
C16A C17A 1_555 1_555
Pr1A O6A_2 1_555 1_555
C7A C8A 1_555 1_555
C22A C23A 1_555 1_555
C23A C24A 1_555 1_555
C27A C28A 1_555 1_555

#END
