
#######################################################################
#
#                 Cambridge Crystallographic Data Centre
#                                CCDC 
#
#######################################################################
#
# If this CIF has been generated from an entry in the Cambridge 
# Structural Database, then it will include bibliographic, chemical, 
# crystal, experimental, refinement or atomic coordinate data resulting 
# from the CCDC's data processing and validation procedures.
#
#######################################################################

data_COXWIX
_symmetry_cell_setting           monoclinic
_symmetry_space_group_name_H-M   'C 2/c'
_symmetry_Int_Tables_number      15
_space_group_name_Hall           '-C 2yn'
loop_
_symmetry_equiv_pos_site_id
_symmetry_equiv_pos_as_xyz
1 x,y,z
2 -x,y,1/2-z
3 1/2+x,1/2+y,z
4 1/2-x,1/2+y,1/2-z
5 -x,-y,-z
6 x,-y,1/2+z
7 1/2-x,1/2-y,-z
8 1/2+x,1/2-y,1/2+z
_cell_length_a                   27.2638(13)
_cell_length_b                   10.1066(5)
_cell_length_c                   21.4387(10)
_cell_angle_alpha                90
_cell_angle_beta                 94.2580(10)
_cell_angle_gamma                90
_cell_volume                     5891.01
loop_
_atom_site_label
_atom_site_type_symbol
_atom_site_fract_x
_atom_site_fract_y
_atom_site_fract_z
Pr1 Pr -0.000366(6) 0.229023(17) 0.490242(8)
O1 O -0.01715(10) 0.2937(3) 0.60091(12)
O2 O -0.06844(8) 0.1477(2) 0.55673(11)
O3 O 0.06977(8) 0.3655(2) 0.52467(12)
O4 O 0.05389(9) 0.5789(3) 0.51231(14)
O5 O 0.18817(13) 0.8992(3) 0.54921(19)
O6 O 0.26072(14) 0.8294(4) 0.5775(3)
O7 O -0.03129(9) -0.0324(3) 0.44375(11)
O8 O -0.06223(9) 0.1557(2) 0.40731(11)
O9 O -0.22013(13) 0.1329(3) 0.2759(2)
O10 O -0.22890(15) -0.0286(4) 0.21191(19)
O11 O 0.01926(12) 0.3782(3) 0.39754(14)
H1 H 0.0215(19) 0.4536(18) 0.408(2)
H2 H 0.0277(18) 0.315(3) 0.379(2)
O12 O 0.06653(10) 0.1242(3) 0.43968(15)
H3 H 0.0717(17) 0.0466(14) 0.443(2)
H4 H 0.0894(11) 0.165(4) 0.430(2)
N1 N 0.21700(14) 0.8108(4) 0.5629(2)
N2 N -0.20753(13) 0.0257(4) 0.25634(18)
C1 C -0.05139(13) 0.2116(4) 0.60409(17)
C2 C -0.07155(15) 0.1855(5) 0.66717(18)
H5 H -0.1015 0.1338 0.6611
H6 H -0.0797 0.2690 0.6862
C3 C -0.03450(15) 0.1114(5) 0.71091(17)
C4 C -0.0342(2) -0.0254(5) 0.7112(2)
H7 H -0.0570 -0.0720 0.6853
C5 C 0.0000 0.1789(6) 0.7500
H8 H 0.0000 0.2709 0.7500
C6 C 0.08219(12) 0.4848(3) 0.52515(15)
C7 C 0.13594(13) 0.5169(3) 0.54171(15)
C8 C 0.15065(13) 0.6477(4) 0.54475(18)
H9 H 0.1283 0.7160 0.5365
C9 C 0.19975(14) 0.6733(4) 0.56038(19)
C10 C 0.23403(13) 0.5754(4) 0.57296(18)
H10 H 0.2666 0.5973 0.5846
C11 C 0.21980(12) 0.4432(4) 0.56824(16)
C12 C 0.17030(12) 0.4159(3) 0.55285(15)
H11 H 0.1599 0.3283 0.5499
C13 C 0.25740(12) 0.3390(4) 0.58005(17)
C14 C 0.30653(14) 0.3625(4) 0.5707(2)
H12 H 0.3146 0.4440 0.5541
C15 C 0.34275(13) 0.2774(4) 0.5838(2)
H13 H 0.3751 0.2992 0.5772
C16 C 0.33163(15) 0.1608(4) 0.6064(2)
H14 H 0.3568 0.1007 0.6164
C17 C 0.28402(15) 0.1248(4) 0.6158(2)
H15 H 0.2772 0.0412 0.6311
C18 C 0.24659(15) 0.2142(4) 0.6023(2)
H16 H 0.2142 0.1910 0.6081
C19 C -0.06107(12) 0.0322(4) 0.40789(15)
C20 C -0.09686(12) -0.0418(4) 0.36319(15)
C21 C -0.13557(13) 0.0265(4) 0.33187(16)
H17 H -0.1405 0.1163 0.3387
C22 C -0.16641(12) -0.0446(4) 0.29014(16)
C23 C -0.16076(12) -0.1774(4) 0.27833(16)
H18 H -0.1821 -0.2204 0.2492
C24 C -0.12260(13) -0.2466(3) 0.31068(16)
C25 C -0.09106(12) -0.1754(3) 0.35324(15)
H19 H -0.0655 -0.2198 0.3754
C26 C -0.11510(15) -0.3895(4) 0.30058(19)
C27 C -0.06957(15) -0.4489(4) 0.31454(19)
H20 H -0.0439 -0.3951 0.3303
C28 C -0.06011(15) -0.5755(4) 0.30720(19)
H21 H -0.0289 -0.6096 0.3176
C29 C -0.09628(15) -0.6527(4) 0.28460(19)
H22 H -0.0899 -0.7419 0.2784
C30 C -0.14341(15) -0.6054(4) 0.26978(19)
H23 H -0.1683 -0.6622 0.2543
C31 C -0.15291(16) -0.4722(4) 0.27835(19)
H24 H -0.1844 -0.4387 0.2693
C32 C 0.0000 -0.0928(8) 0.7500
H25 H 0.0000 -0.1848 0.7500
O1A O 0.01715(10) 0.2937(3) 0.89909(12)
O2A O 0.06844(8) 0.1477(2) 0.94327(11)
C1A C 0.05139(13) 0.2116(4) 0.89591(17)
C2A C 0.07155(15) 0.1855(5) 0.83283(18)
H5A H 0.1015 0.1338 0.8389
H6A H 0.0797 0.2690 0.8138
C3A C 0.03450(15) 0.1114(5) 0.78909(17)
C4A C 0.0342(2) -0.0254(5) 0.7888(2)
H7A H 0.0570 -0.0720 0.8147
Pr1A Pr 0.000366(6) 0.229023(17) 1.009758(8)
O3A O -0.06977(8) 0.3655(2) 0.97533(12)
O4A O -0.05389(9) 0.5789(3) 0.98769(14)
O5A O -0.18817(13) 0.8992(3) 0.95079(19)
O6A O -0.26072(14) 0.8294(4) 0.9225(3)
O7A O 0.03129(9) -0.0324(3) 1.05625(11)
O8A O 0.06223(9) 0.1557(2) 1.09269(11)
O9A O 0.22013(13) 0.1329(3) 1.2241(2)
O10A O 0.22890(15) -0.0286(4) 1.28809(19)
O11A O -0.01926(12) 0.3782(3) 1.10246(14)
H1A H -0.0215(19) 0.4536(18) 1.092(2)
H2A H -0.0277(18) 0.315(3) 1.121(2)
O12A O -0.06653(10) 0.1242(3) 1.06032(15)
H3A H -0.0717(17) 0.0466(14) 1.057(2)
H4A H -0.0894(11) 0.165(4) 1.070(2)
N1A N -0.21700(14) 0.8108(4) 0.9371(2)
N2A N 0.20753(13) 0.0257(4) 1.24366(18)
C6A C -0.08219(12) 0.4848(3) 0.97485(15)
C7A C -0.13594(13) 0.5169(3) 0.95829(15)
C8A C -0.15065(13) 0.6477(4) 0.95525(18)
H9A H -0.1283 0.7160 0.9635
C9A C -0.19975(14) 0.6733(4) 0.93962(19)
C10A C -0.23403(13) 0.5754(4) 0.92704(18)
H10A H -0.2666 0.5973 0.9154
C11A C -0.21980(12) 0.4432(4) 0.93176(16)
C12A C -0.17030(12) 0.4159(3) 0.94715(15)
H11A H -0.1599 0.3283 0.9501
C13A C -0.25740(12) 0.3390(4) 0.91995(17)
C14A C -0.30653(14) 0.3625(4) 0.9293(2)
H12A H -0.3146 0.4440 0.9459
C15A C -0.34275(13) 0.2774(4) 0.9162(2)
H13A H -0.3751 0.2992 0.9228
C16A C -0.33163(15) 0.1608(4) 0.8936(2)
H14A H -0.3568 0.1007 0.8836
C17A C -0.28402(15) 0.1248(4) 0.8842(2)
H15A H -0.2772 0.0412 0.8689
C18A C -0.24659(15) 0.2142(4) 0.8977(2)
H16A H -0.2142 0.1910 0.8919
C19A C 0.06107(12) 0.0322(4) 1.09211(15)
C20A C 0.09686(12) -0.0418(4) 1.13681(15)
C21A C 0.13557(13) 0.0265(4) 1.16813(16)
H17A H 0.1405 0.1163 1.1613
C22A C 0.16641(12) -0.0446(4) 1.20986(16)
C23A C 0.16076(12) -0.1774(4) 1.22167(16)
H18A H 0.1821 -0.2204 1.2508
C24A C 0.12260(13) -0.2466(3) 1.18932(16)
C25A C 0.09106(12) -0.1754(3) 1.14676(15)
H19A H 0.0655 -0.2198 1.1246
C26A C 0.11510(15) -0.3895(4) 1.19942(19)
C27A C 0.06957(15) -0.4489(4) 1.18546(19)
H20A H 0.0439 -0.3951 1.1697
C28A C 0.06011(15) -0.5755(4) 1.19280(19)
H21A H 0.0289 -0.6096 1.1824
C29A C 0.09628(15) -0.6527(4) 1.21540(19)
H22A H 0.0899 -0.7419 1.2216
C30A C 0.14341(15) -0.6054(4) 1.23022(19)
H23A H 0.1683 -0.6622 1.2457
C31A C 0.15291(16) -0.4722(4) 1.22165(19)
H24A H 0.1844 -0.4387 1.2307
Pr1D Pr 0.000366(6) -0.229023(17) 0.509758(8)
Pr1D_2 Pr 0.000366(6) 0.770977(17) 0.509758(8)
Pr1E Pr -0.000366(6) -0.229023(17) 0.990242(8)
Pr1E_2 Pr -0.000366(6) 0.770977(17) 0.990242(8)
O4D O -0.05389(9) 0.4211(3) 0.48769(14)
O4E O 0.05389(9) 0.4211(3) 1.01231(14)
O7D O 0.03129(9) 0.0324(3) 0.55625(11)
O7E O -0.03129(9) 0.0324(3) 0.94375(11)
loop_
_geom_bond_atom_site_label_1
_geom_bond_atom_site_label_2
_geom_bond_site_symmetry_1
_geom_bond_site_symmetry_2
Pr1 O1 1_555 1_555
O1 C1 1_555 1_555
O2 Pr1 1_555 1_555
O3 Pr1 1_555 1_555
O4 C6 1_555 1_555
O5 N1 1_555 1_555
O6 N1 1_555 1_555
O7 Pr1 1_555 1_555
O8 Pr1 1_555 1_555
O9 N2 1_555 1_555
O10 N2 1_555 1_555
O11 Pr1 1_555 1_555
H1 O11 1_555 1_555
H2 O11 1_555 1_555
O12 Pr1 1_555 1_555
H3 O12 1_555 1_555
H4 O12 1_555 1_555
N1 C9 1_555 1_555
N2 C22 1_555 1_555
C1 O2 1_555 1_555
C2 C1 1_555 1_555
H5 C2 1_555 1_555
H6 C2 1_555 1_555
C3 C2 1_555 1_555
C4 C3 1_555 1_555
H7 C4 1_555 1_555
C5 C3 1_555 1_555
H8 C5 1_555 1_555
C6 O3 1_555 1_555
C7 C6 1_555 1_555
C8 C7 1_555 1_555
H9 C8 1_555 1_555
C9 C8 1_555 1_555
C10 C9 1_555 1_555
H10 C10 1_555 1_555
C11 C10 1_555 1_555
C12 C7 1_555 1_555
H11 C12 1_555 1_555
C13 C11 1_555 1_555
C14 C13 1_555 1_555
H12 C14 1_555 1_555
C15 C14 1_555 1_555
H13 C15 1_555 1_555
C16 C15 1_555 1_555
H14 C16 1_555 1_555
C17 C16 1_555 1_555
H15 C17 1_555 1_555
C18 C13 1_555 1_555
H16 C18 1_555 1_555
C19 O7 1_555 1_555
C20 C19 1_555 1_555
C21 C20 1_555 1_555
H17 C21 1_555 1_555
C22 C21 1_555 1_555
C23 C22 1_555 1_555
H18 C23 1_555 1_555
C24 C23 1_555 1_555
C25 C20 1_555 1_555
H19 C25 1_555 1_555
C26 C24 1_555 1_555
C27 C26 1_555 1_555
H20 C27 1_555 1_555
C28 C27 1_555 1_555
H21 C28 1_555 1_555
C29 C28 1_555 1_555
H22 C29 1_555 1_555
C30 C29 1_555 1_555
H23 C30 1_555 1_555
C31 C26 1_555 1_555
H24 C31 1_555 1_555
C32 C4 1_555 1_555
H25 C32 1_555 1_555
O1A C1A 1_555 1_555
O2A C1A 1_555 1_555
C1A C2A 1_555 1_555
C2A H5A 1_555 1_555
H6A C2A 1_555 1_555
C3A C5 1_555 1_555
C4A C32 1_555 1_555
H7A C4A 1_555 1_555
Pr1A O1A 1_555 1_555
O3A Pr1A 1_555 1_555
O4A C6A 1_555 1_555
O5A N1A 1_555 1_555
O6A N1A 1_555 1_555
O7A Pr1A 1_555 1_555
O8A Pr1A 1_555 1_555
O9A N2A 1_555 1_555
O10A N2A 1_555 1_555
O11A Pr1A 1_555 1_555
H1A O11A 1_555 1_555
H2A O11A 1_555 1_555
O12A Pr1A 1_555 1_555
H3A O12A 1_555 1_555
H4A O12A 1_555 1_555
N1A C9A 1_555 1_555
N2A C22A 1_555 1_555
C6A O3A 1_555 1_555
C7A C6A 1_555 1_555
C8A C7A 1_555 1_555
H9A C8A 1_555 1_555
C9A C8A 1_555 1_555
C10A C9A 1_555 1_555
H10A C10A 1_555 1_555
C11A C10A 1_555 1_555
C12A C7A 1_555 1_555
H11A C12A 1_555 1_555
C13A C11A 1_555 1_555
C14A C13A 1_555 1_555
H12A C14A 1_555 1_555
C15A C14A 1_555 1_555
H13A C15A 1_555 1_555
C16A C15A 1_555 1_555
H14A C16A 1_555 1_555
C17A C16A 1_555 1_555
H15A C17A 1_555 1_555
C18A C13A 1_555 1_555
H16A C18A 1_555 1_555
C19A O7A 1_555 1_555
C20A C19A 1_555 1_555
C21A C20A 1_555 1_555
H17A C21A 1_555 1_555
C22A C21A 1_555 1_555
C23A C22A 1_555 1_555
H18A C23A 1_555 1_555
C24A C23A 1_555 1_555
C25A C20A 1_555 1_555
H19A C25A 1_555 1_555
C26A C24A 1_555 1_555
C27A C26A 1_555 1_555
H20A C27A 1_555 1_555
C28A C27A 1_555 1_555
H21A C28A 1_555 1_555
C29A C28A 1_555 1_555
H22A C29A 1_555 1_555
C30A C29A 1_555 1_555
H23A C30A 1_555 1_555
C31A C26A 1_555 1_555
H24A C31A 1_555 1_555
Pr1D O7 1_555 1_555
Pr1D_2 O4 1_555 1_555
Pr1E O7A 1_555 1_555
Pr1E_2 O4A 1_555 1_555
O4D Pr1 1_555 1_555
O4E Pr1A 1_555 1_555
O7D Pr1 1_555 1_555
O7E Pr1A 1_555 1_555
O8 C19 1_555 1_555
C11 C12 1_555 1_555
C17 C18 1_555 1_555
C24 C25 1_555 1_555
C30 C31 1_555 1_555
O2A Pr1A 1_555 1_555
C2A C3A 1_555 1_555
C3A C4A 1_555 1_555
O8A C19A 1_555 1_555
C11A C12A 1_555 1_555
C17A C18A 1_555 1_555
C24A C25A 1_555 1_555
C30A C31A 1_555 1_555
Pr1D O7D 1_555 1_555
Pr1E O7E 1_555 1_555

#END
