
#######################################################################
#
#                 Cambridge Crystallographic Data Centre
#                                CCDC 
#
#######################################################################
#
# If this CIF has been generated from an entry in the Cambridge 
# Structural Database, then it will include bibliographic, chemical, 
# crystal, experimental, refinement or atomic coordinate data resulting 
# from the CCDC's data processing and validation procedures.
#
#######################################################################

data_COYCAV
_symmetry_cell_setting           monoclinic
_symmetry_space_group_name_H-M   'P 21'
_symmetry_Int_Tables_number      4
_space_group_name_Hall           'P 2yb'
loop_
_symmetry_equiv_pos_site_id
_symmetry_equiv_pos_as_xyz
1 x,y,z
2 -x,1/2+y,-z
_cell_length_a                   9.901(2)
_cell_length_b                   25.752(5)
_cell_length_c                   18.883(4)
_cell_angle_alpha                90
_cell_angle_beta                 97.90(3)
_cell_angle_gamma                90
_cell_volume                     4768.92
loop_
_atom_site_label
_atom_site_type_symbol
_atom_site_fract_x
_atom_site_fract_y
_atom_site_fract_z
Mo1 Mo -0.51180(15) 0.61249(8) 0.46898(8)
Mo2 Mo 0.58459(16) 0.56909(8) 1.06449(8)
Cu1 Cu -0.5407(3) 0.69009(11) 0.55759(14)
Cu2 Cu -0.5417(2) 0.55026(10) 0.58012(12)
Cu3 Cu -0.2442(2) 0.61246(10) 0.50997(11)
Cu4 Cu 0.3173(2) 0.58015(10) 1.02568(11)
Cu5 Cu 0.6218(2) 0.63358(10) 0.95618(12)
Cu6 Cu 0.5863(3) 0.49445(11) 0.96915(14)
S1 S -0.6736(5) 0.6191(2) 0.5436(2)
S2 S -0.3792(5) 0.6841(2) 0.4860(2)
S3 S -0.3819(5) 0.5422(2) 0.5025(2)
S4 S 0.4716(5) 0.6438(2) 1.0391(3)
S5 S 0.4328(5) 0.5030(2) 1.0440(3)
S6 S 0.7373(5) 0.5589(2) 0.9874(2)
S7 S -0.5538(12) 0.7972(4) 0.7509(5)
S8 S -0.7431(13) 0.3873(4) 0.5961(5)
S9 S 0.9100(12) 0.7760(4) 0.9397(6)
S10 S 0.5510(11) 0.3873(3) 0.7718(4)
O1 O -0.5834(14) 0.6046(6) 0.3835(6)
O2 O 0.6604(14) 0.5708(8) 1.1510(7)
N1 N -0.5726(16) 0.7472(6) 0.6273(7)
N2 N -0.6661(16) 0.4847(5) 0.5969(8)
N3 N 0.7435(15) 0.6978(5) 0.9422(8)
N4 N 0.5903(15) 0.4410(6) 0.8934(6)
N5 N -0.4141(17) 0.5645(7) 0.6773(8)
N6 N 0.1626(14) 0.5816(7) 0.9470(7)
N7 N -0.0895(16) 0.6131(8) 0.5900(7)
N8 N 0.4798(14) 0.6243(7) 0.8623(7)
N9 N -0.1366(15) 0.6098(7) 0.4189(8)
N10 N 0.2064(16) 0.5841(6) 0.1119(7)
C1 C -0.5622(19) 0.7644(7) 0.6717(7)
C2 C -0.6749(18) 0.4486(5) 0.5988(10)
C3 C 0.7927(17) 0.7270(6) 0.9390(10)
C4 C 0.5677(19) 0.4228(7) 0.8490(7)
C5 C -0.355(2) 0.6109(11) 0.6964(10)
H1 H -0.3917 0.6406 0.6705
C6 C -0.249(2) 0.6191(9) 0.7496(10)
H2 H -0.2144 0.6529 0.7615
C7 C -0.1916(18) 0.5732(9) 0.7867(9)
C8 C -0.2549(19) 0.5273(8) 0.7679(10)
H3 H -0.2220 0.4964 0.7920
C9 C -0.365(2) 0.5242(9) 0.7153(12)
H4 H -0.4075 0.4914 0.7057
C10 C -0.071(2) 0.5781(8) 0.8417(10)
C11 C -0.014(2) 0.6258(8) 0.8681(10)
H5 H -0.0551 0.6574 0.8507
C12 C 0.102(2) 0.6271(8) 0.9194(10)
H6 H 0.1402 0.6596 0.9354
C13 C 0.115(2) 0.5380(8) 0.9161(10)
H7 H 0.1645 0.5068 0.9277
C14 C -0.002(2) 0.5355(10) 0.8679(12)
H8 H -0.0358 0.5023 0.8524
C15 C -0.025(2) 0.6589(8) 0.6066(11)
H9 H -0.0534 0.6897 0.5812
C16 C 0.088(3) 0.6598(10) 0.6630(13)
H10 H 0.1283 0.6923 0.6772
C17 C 0.1403(18) 0.6154(9) 0.6976(8)
C18 C 0.0752(18) 0.5711(8) 0.6726(9)
H11 H 0.1064 0.5388 0.6930
C19 C -0.029(2) 0.5714(9) 0.6214(10)
H12 H -0.0653 0.5386 0.6053
C20 C 0.2611(19) 0.6206(8) 0.7523(9)
C21 C 0.305(3) 0.6662(10) 0.7811(16)
H13 H 0.2581 0.6975 0.7667
C22 C 0.421(3) 0.6670(11) 0.8332(15)
H14 H 0.4598 0.6996 0.8482
C23 C 0.435(2) 0.5792(9) 0.8339(11)
H15 H 0.4810 0.5484 0.8511
C24 C 0.326(2) 0.5748(8) 0.7813(9)
H16 H 0.2950 0.5416 0.7644
C25 C -0.2088(19) 0.6034(10) 0.3520(9)
H17 H -0.3056 0.6041 0.3468
C26 C -0.1465(18) 0.5959(9) 0.2926(9)
H18 H -0.1988 0.5893 0.2474
C27 C -0.002(2) 0.5983(8) 0.2997(8)
C28 C 0.0728(18) 0.6068(10) 0.3669(9)
H19 H 0.1697 0.6078 0.3736
C29 C -0.0029(17) 0.6136(8) 0.4244(10)
H20 H 0.0459 0.6215 0.4700
C30 C 0.0709(17) 0.5905(7) 0.2350(10)
C31 C 0.004(2) 0.5833(9) 0.1685(9)
H21 H -0.0924 0.5802 0.1613
C32 C 0.077(2) 0.5802(9) 0.1099(10)
H22 H 0.0253 0.5748 0.0643
C33 C 0.272(2) 0.5912(9) 0.1799(9)
H23 H 0.3685 0.5940 0.1859
C34 C 0.210(2) 0.5946(8) 0.2392(10)
H24 H 0.2631 0.5999 0.2844
Cu4_2 Cu 0.3173(2) 0.58015(10) 0.02568(11)
N10_2 N 0.2064(16) 0.5841(6) 1.1119(7)
N11 N -0.2405(17) 0.7554(6) 0.1954(9)
C35 C -0.351(3) 0.7200(8) 0.2191(14)
H25 H -0.3988 0.7025 0.1762
H26 H -0.3050 0.6926 0.2506
C36 C -0.453(2) 0.7448(8) 0.2568(11)
H27 H -0.4918 0.7756 0.2296
H28 H -0.4108 0.7565 0.3046
C37 C -0.569(2) 0.7044(9) 0.2643(12)
H29 H -0.6080 0.6914 0.2165
H30 H -0.5313 0.6745 0.2935
C38 C -0.681(3) 0.7303(13) 0.3001(18)
H31 H -0.6410 0.7463 0.3452
H32 H -0.7485 0.7042 0.3097
H33 H -0.7265 0.7571 0.2683
C39 C -0.139(3) 0.7232(8) 0.1557(13)
H34 H -0.1068 0.6927 0.1852
H35 H -0.1876 0.7103 0.1098
C40 C -0.017(3) 0.7542(9) 0.1410(16)
H36 H 0.0306 0.7693 0.1857
H37 H -0.0453 0.7826 0.1068
C41 C 0.077(3) 0.7146(13) 0.1082(17)
H38 H 0.0262 0.6964 0.0665
H39 H 0.1143 0.6885 0.1441
C42 C 0.196(3) 0.7502(14) 0.0843(18)
H40 H 0.1653 0.7656 0.0374
H41 H 0.2772 0.7289 0.0814
H42 H 0.2188 0.7779 0.1195
C43 C -0.166(2) 0.7829(7) 0.2616(11)
H43 H -0.1017 0.8082 0.2456
H44 H -0.2347 0.8029 0.2841
C44 C -0.088(3) 0.7485(10) 0.3187(13)
H45 H -0.1522 0.7264 0.3410
H46 H -0.0248 0.7256 0.2969
C45 C -0.012(3) 0.7816(11) 0.3726(14)
H47 H -0.0761 0.8051 0.3925
H48 H 0.0520 0.8034 0.3494
C46 C 0.071(3) 0.7508(10) 0.4349(11)
H49 H 0.0094 0.7387 0.4679
H50 H 0.1410 0.7734 0.4606
H51 H 0.1147 0.7208 0.4156
C47 C -0.305(2) 0.7981(8) 0.1455(12)
H52 H -0.2312 0.8185 0.1282
H53 H -0.3567 0.8218 0.1730
C48 C -0.401(3) 0.7776(10) 0.0804(12)
H54 H -0.4862 0.7638 0.0953
H55 H -0.3566 0.7497 0.0560
C49 C -0.432(3) 0.8254(9) 0.0302(14)
H56 H -0.4732 0.8535 0.0559
H57 H -0.3467 0.8385 0.0151
C50 C -0.532(4) 0.8085(13) -0.0357(16)
H58 H -0.4937 0.7789 -0.0588
H59 H -0.5464 0.8375 -0.0696
H60 H -0.6193 0.7985 -0.0208
N12 N 0.3561(18) 0.4309(6) 0.3443(9)
C51 C 0.467(2) 0.4663(9) 0.3242(12)
H61 H 0.4232 0.4950 0.2945
H62 H 0.5159 0.4817 0.3684
C52 C 0.568(3) 0.4401(11) 0.2841(15)
H63 H 0.5230 0.4293 0.2363
H64 H 0.6046 0.4088 0.3103
C53 C 0.683(3) 0.4780(12) 0.277(2)
H65 H 0.7259 0.4890 0.3247
H66 H 0.6449 0.5093 0.2506
C54 C 0.795(3) 0.4522(12) 0.2343(17)
H67 H 0.7681 0.4166 0.2207
H68 H 0.8835 0.4517 0.2651
H69 H 0.8034 0.4726 0.1912
C55 C 0.421(2) 0.3863(9) 0.3940(13)
H70 H 0.3465 0.3665 0.4119
H71 H 0.4693 0.3622 0.3654
C56 C 0.521(3) 0.4054(11) 0.4586(14)
H72 H 0.4768 0.4314 0.4866
H73 H 0.6025 0.4214 0.4425
C57 C 0.561(4) 0.3558(13) 0.5044(17)
H74 H 0.4789 0.3397 0.5194
H75 H 0.6053 0.3301 0.4760
C58 C 0.661(3) 0.3722(13) 0.5707(14)
H76 H 0.6459 0.4089 0.5813
H77 H 0.7548 0.3674 0.5611
H78 H 0.6449 0.3509 0.6117
C59 C 0.259(2) 0.4626(8) 0.3818(11)
H79 H 0.2263 0.4918 0.3499
H80 H 0.3124 0.4780 0.4250
C60 C 0.135(3) 0.4363(9) 0.4049(13)
H81 H 0.1658 0.4095 0.4412
H82 H 0.0837 0.4185 0.3631
C61 C 0.039(3) 0.4741(15) 0.4363(17)
H83 H 0.0923 0.4940 0.4754
H84 H 0.0026 0.4992 0.3987
C62 C -0.074(3) 0.4495(11) 0.4637(14)
H85 H -0.0990 0.4175 0.4368
H86 H -0.1526 0.4732 0.4585
H87 H -0.0483 0.4411 0.5143
C63 C 0.277(3) 0.4046(9) 0.2790(12)
H88 H 0.2080 0.3814 0.2957
H89 H 0.3409 0.3824 0.2568
C64 C 0.201(3) 0.4410(8) 0.2193(12)
H90 H 0.1338 0.4631 0.2391
H91 H 0.2677 0.4638 0.1996
C65 C 0.130(3) 0.4051(12) 0.1607(13)
H92 H 0.1983 0.3835 0.1407
H93 H 0.0659 0.3818 0.1811
C66 C 0.057(5) 0.4367(17) 0.105(2)
H94 H -0.0243 0.4514 0.1220
H95 H 0.0292 0.4153 0.0627
H96 H 0.1159 0.4649 0.0929
N13 N 0.003(4) 0.9321(10) 0.3264(18)
H97 H -0.0566 0.9476 0.3499
H98 H 0.0857 0.9256 0.3479
C67 C -0.036(3) 0.9174(12) 0.2522(18)
C68 C -0.167(3) 0.9288(10) 0.222(2)
H99 H -0.2371 0.9419 0.2463
C69 C -0.177(4) 0.9180(11) 0.150(2)
H100 H -0.2656 0.9214 0.1241
C70 C -0.077(4) 0.9028(14) 0.111(2)
H101 H -0.0969 0.9025 0.0604
C71 C 0.051(4) 0.8881(11) 0.142(2)
H102 H 0.1191 0.8720 0.1182
C72 C 0.064(4) 0.9009(10) 0.213(2)
H103 H 0.1529 0.8980 0.2389
N14 N -0.212(4) 0.7529(10) 0.7562(19)
H104 H -0.2946 0.7424 0.7383
H105 H -0.1843 0.7496 0.8023
C73 C -0.123(3) 0.7755(12) 0.7099(19)
C74 C 0.010(4) 0.7879(10) 0.735(2)
H106 H 0.0574 0.7836 0.7820
C75 C 0.057(4) 0.8083(11) 0.676(2)
H107 H 0.1452 0.8225 0.6878
C76 C 0.013(4) 0.8140(14) 0.604(2)
H108 H 0.0604 0.8288 0.5680
C77 C -0.116(4) 0.7932(11) 0.596(2)
H109 H -0.1573 0.7913 0.5475
C78 C -0.199(4) 0.7745(10) 0.6431(19)
H110 H -0.2902 0.7631 0.6317
loop_
_geom_bond_atom_site_label_1
_geom_bond_atom_site_label_2
_geom_bond_site_symmetry_1
_geom_bond_site_symmetry_2
Mo1 S1 1_555 1_555
Mo2 S4 1_555 1_555
Cu1 S1 1_555 1_555
Cu2 S1 1_555 1_555
Cu3 S2 1_555 1_555
Cu4 S4 1_555 1_555
Cu5 S4 1_555 1_555
Cu6 S5 1_555 1_555
S2 Mo1 1_555 1_555
S3 Mo1 1_555 1_555
S5 Mo2 1_555 1_555
S6 Mo2 1_555 1_555
S7 C1 1_555 1_555
S8 C2 1_555 1_555
S9 C3 1_555 1_555
S10 C4 1_555 1_555
O1 Mo1 1_555 1_555
O2 Mo2 1_555 1_555
N1 Cu1 1_555 1_555
N2 Cu2 1_555 1_555
N3 Cu5 1_555 1_555
N4 Cu6 1_555 1_555
N5 Cu2 1_555 1_555
N6 Cu4 1_555 1_555
N7 Cu3 1_555 1_555
N8 Cu5 1_555 1_555
N9 Cu3 1_555 1_555
N10 C32 1_555 1_555
C1 N1 1_555 1_555
C2 N2 1_555 1_555
C3 N3 1_555 1_555
C4 N4 1_555 1_555
C5 N5 1_555 1_555
H1 C5 1_555 1_555
C6 C5 1_555 1_555
H2 C6 1_555 1_555
C7 C6 1_555 1_555
C8 C7 1_555 1_555
H3 C8 1_555 1_555
C9 N5 1_555 1_555
H4 C9 1_555 1_555
C10 C7 1_555 1_555
C11 C10 1_555 1_555
H5 C11 1_555 1_555
C12 N6 1_555 1_555
H6 C12 1_555 1_555
C13 N6 1_555 1_555
H7 C13 1_555 1_555
C14 C10 1_555 1_555
H8 C14 1_555 1_555
C15 N7 1_555 1_555
H9 C15 1_555 1_555
C16 C15 1_555 1_555
H10 C16 1_555 1_555
C17 C16 1_555 1_555
C18 C17 1_555 1_555
H11 C18 1_555 1_555
C19 N7 1_555 1_555
H12 C19 1_555 1_555
C20 C17 1_555 1_555
C21 C20 1_555 1_555
H13 C21 1_555 1_555
C22 N8 1_555 1_555
H14 C22 1_555 1_555
C23 N8 1_555 1_555
H15 C23 1_555 1_555
C24 C20 1_555 1_555
H16 C24 1_555 1_555
C25 N9 1_555 1_555
H17 C25 1_555 1_555
C26 C25 1_555 1_555
H18 C26 1_555 1_555
C27 C26 1_555 1_555
C28 C27 1_555 1_555
H19 C28 1_555 1_555
C29 N9 1_555 1_555
H20 C29 1_555 1_555
C30 C27 1_555 1_555
C31 C30 1_555 1_555
H21 C31 1_555 1_555
C32 C31 1_555 1_555
H22 C32 1_555 1_555
C33 N10 1_555 1_555
H23 C33 1_555 1_555
C34 C30 1_555 1_555
H24 C34 1_555 1_555
N11 C35 1_555 1_555
C35 H25 1_555 1_555
H26 C35 1_555 1_555
C36 C35 1_555 1_555
H27 C36 1_555 1_555
H28 C36 1_555 1_555
C37 C36 1_555 1_555
H29 C37 1_555 1_555
H30 C37 1_555 1_555
C38 C37 1_555 1_555
H31 C38 1_555 1_555
H32 C38 1_555 1_555
H33 C38 1_555 1_555
C39 N11 1_555 1_555
H34 C39 1_555 1_555
H35 C39 1_555 1_555
C40 C39 1_555 1_555
H36 C40 1_555 1_555
H37 C40 1_555 1_555
C41 C40 1_555 1_555
H38 C41 1_555 1_555
H39 C41 1_555 1_555
C42 C41 1_555 1_555
H40 C42 1_555 1_555
H41 C42 1_555 1_555
H42 C42 1_555 1_555
C43 N11 1_555 1_555
H43 C43 1_555 1_555
H44 C43 1_555 1_555
C44 C43 1_555 1_555
H45 C44 1_555 1_555
H46 C44 1_555 1_555
C45 C44 1_555 1_555
H47 C45 1_555 1_555
H48 C45 1_555 1_555
C46 C45 1_555 1_555
H49 C46 1_555 1_555
H50 C46 1_555 1_555
H51 C46 1_555 1_555
C47 N11 1_555 1_555
H52 C47 1_555 1_555
H53 C47 1_555 1_555
C48 C47 1_555 1_555
H54 C48 1_555 1_555
H55 C48 1_555 1_555
C49 C48 1_555 1_555
H56 C49 1_555 1_555
H57 C49 1_555 1_555
C50 C49 1_555 1_555
H58 C50 1_555 1_555
H59 C50 1_555 1_555
H60 C50 1_555 1_555
N12 C51 1_555 1_555
C51 H61 1_555 1_555
H62 C51 1_555 1_555
C52 C51 1_555 1_555
H63 C52 1_555 1_555
H64 C52 1_555 1_555
C53 C52 1_555 1_555
H65 C53 1_555 1_555
H66 C53 1_555 1_555
C54 C53 1_555 1_555
H67 C54 1_555 1_555
H68 C54 1_555 1_555
H69 C54 1_555 1_555
C55 N12 1_555 1_555
H70 C55 1_555 1_555
H71 C55 1_555 1_555
C56 C55 1_555 1_555
H72 C56 1_555 1_555
H73 C56 1_555 1_555
C57 C56 1_555 1_555
H74 C57 1_555 1_555
H75 C57 1_555 1_555
C58 C57 1_555 1_555
H76 C58 1_555 1_555
H77 C58 1_555 1_555
H78 C58 1_555 1_555
C59 N12 1_555 1_555
H79 C59 1_555 1_555
H80 C59 1_555 1_555
C60 C59 1_555 1_555
H81 C60 1_555 1_555
H82 C60 1_555 1_555
C61 C60 1_555 1_555
H83 C61 1_555 1_555
H84 C61 1_555 1_555
C62 C61 1_555 1_555
H85 C62 1_555 1_555
H86 C62 1_555 1_555
H87 C62 1_555 1_555
C63 N12 1_555 1_555
H88 C63 1_555 1_555
H89 C63 1_555 1_555
C64 C63 1_555 1_555
H90 C64 1_555 1_555
H91 C64 1_555 1_555
C65 C64 1_555 1_555
H92 C65 1_555 1_555
H93 C65 1_555 1_555
C66 C65 1_555 1_555
H94 C66 1_555 1_555
H95 C66 1_555 1_555
H96 C66 1_555 1_555
N13 H97 1_555 1_555
H98 N13 1_555 1_555
C67 N13 1_555 1_555
C68 C67 1_555 1_555
H99 C68 1_555 1_555
C69 C68 1_555 1_555
H100 C69 1_555 1_555
C70 C69 1_555 1_555
H101 C70 1_555 1_555
C71 C70 1_555 1_555
H102 C71 1_555 1_555
C72 C67 1_555 1_555
H103 C72 1_555 1_555
N14 H104 1_555 1_555
H105 N14 1_555 1_555
C73 N14 1_555 1_555
C74 C73 1_555 1_555
H106 C74 1_555 1_555
C75 C74 1_555 1_555
H107 C75 1_555 1_555
C76 C75 1_555 1_555
H108 C76 1_555 1_555
C77 C76 1_555 1_555
H109 C77 1_555 1_555
C78 C73 1_555 1_555
H110 C78 1_555 1_555
Cu4_2 N10 1_555 1_555
N10_2 Cu4 1_555 1_555
Cu1 S2 1_555 1_555
Cu2 S3 1_555 1_555
Cu3 S3 1_555 1_555
Cu4 S5 1_555 1_555
Cu5 S6 1_555 1_555
Cu6 S6 1_555 1_555
C8 C9 1_555 1_555
C11 C12 1_555 1_555
C13 C14 1_555 1_555
C18 C19 1_555 1_555
C21 C22 1_555 1_555
C23 C24 1_555 1_555
C28 C29 1_555 1_555
C33 C34 1_555 1_555
C71 C72 1_555 1_555
C77 C78 1_555 1_555

#END
