
#######################################################################
#
#                 Cambridge Crystallographic Data Centre
#                                CCDC 
#
#######################################################################
#
# If this CIF has been generated from an entry in the Cambridge 
# Structural Database, then it will include bibliographic, chemical, 
# crystal, experimental, refinement or atomic coordinate data resulting 
# from the CCDC's data processing and validation procedures.
#
#######################################################################

data_COYFON
_symmetry_cell_setting           orthorhombic
_symmetry_space_group_name_H-M   'F d d 2'
_symmetry_Int_Tables_number      43
_space_group_name_Hall           'F 2 -2d'
loop_
_symmetry_equiv_pos_site_id
_symmetry_equiv_pos_as_xyz
1 x,y,z
2 -x,-y,z
3 1/4-x,1/4+y,1/4+z
4 1/4+x,1/4-y,1/4+z
5 x,1/2+y,1/2+z
6 -x,1/2-y,1/2+z
7 1/4-x,3/4+y,3/4+z
8 1/4+x,3/4-y,3/4+z
9 1/2+x,y,1/2+z
10 1/2-x,-y,1/2+z
11 3/4-x,1/4+y,3/4+z
12 3/4+x,1/4-y,3/4+z
13 1/2+x,1/2+y,z
14 1/2-x,1/2-y,z
15 3/4-x,3/4+y,1/4+z
16 3/4+x,3/4-y,1/4+z
_cell_length_a                   22.0122(9)
_cell_length_b                   44.1020(17)
_cell_length_c                   9.8888(4)
_cell_angle_alpha                90
_cell_angle_beta                 90
_cell_angle_gamma                90
_cell_volume                     9599.87
loop_
_atom_site_label
_atom_site_type_symbol
_atom_site_fract_x
_atom_site_fract_y
_atom_site_fract_z
Cd1 Cd 0.939222(10) 0.032009(5) -0.23899(3)
C1 C 0.84484(15) 0.06629(8) -0.1553(4)
C2 C 0.79364(15) 0.08542(8) -0.1040(3)
C3 C 0.75855(15) 0.10280(8) -0.1909(3)
H1 H 0.7681 0.1032 -0.2825
C4 C 0.71059(17) 0.11920(9) -0.1453(4)
H2 H 0.6869 0.1301 -0.2061
C5 C 0.77987(17) 0.08627(8) 0.0320(4)
H3 H 0.8036 0.0753 0.0924
C6 C 0.73179(17) 0.10305(9) 0.0805(4)
H4 H 0.7229 0.1031 0.1725
C7 C 0.69669(15) 0.11987(8) -0.0084(4)
C8 C 0.63721(16) 0.14144(9) 0.1684(3)
H5 H 0.6738 0.1489 0.2118
H6 H 0.6261 0.1223 0.2104
C9 C 0.58693(15) 0.16384(8) 0.1845(4)
H7 H 0.5937 0.1761 0.2644
H8 H 0.5853 0.1771 0.1065
C10 C 0.47760(15) 0.16426(7) 0.1994(3)
C11 C 0.42456(15) 0.14795(7) 0.2122(3)
H9 H 0.4259 0.1273 0.2315
C12 C 0.36939(15) 0.16242(8) 0.1962(3)
H10 H 0.3336 0.1512 0.2008
C13 C 0.47575(16) 0.19543(8) 0.1870(4)
H11 H 0.5114 0.2068 0.1881
C14 C 0.42004(17) 0.20945(8) 0.1732(4)
H12 H 0.4187 0.2304 0.1635
C15 C 0.36661(15) 0.19354(7) 0.1732(3)
C16 C 0.30818(17) 0.20833(9) 0.1304(3)
C17 C 0.8388(2) -0.00873(10) -0.4170(5)
H13 H 0.8247 -0.0141 -0.3316
C18 C 0.8078(2) -0.01928(11) -0.5299(6)
H14 H 0.7732 -0.0312 -0.5194
C19 C 0.8279(2) -0.01222(12) -0.6547(6)
H15 H 0.8077 -0.0195 -0.7305
C20 C 0.8790(2) 0.00602(9) -0.6698(5)
C21 C 0.9011(3) 0.01526(12) -0.7970(5)
H16 H 0.8819 0.0085 -0.8752
C22 C 0.9491(3) 0.03350(12) -0.8073(5)
H17 H 0.9625 0.0395 -0.8924
C23 C 0.9803(2) 0.04397(10) -0.6903(4)
C24 C 1.0307(2) 0.06357(11) -0.6938(5)
H18 H 1.0458 0.0701 -0.7766
C25 C 1.0573(2) 0.07288(12) -0.5796(6)
H19 H 1.0913 0.0854 -0.5825
C26 C 1.03358(18) 0.06354(9) -0.4572(4)
H20 H 1.0516 0.0707 -0.3783
C27 C 0.96009(16) 0.03531(8) -0.5612(4)
C28 C 0.90761(17) 0.01603(8) -0.5515(4)
N1 N 0.88759(14) 0.00863(7) -0.4264(4)
N2 N 0.98705(13) 0.04518(7) -0.4458(3)
O1 O 0.87291(11) 0.07452(5) -0.2592(3)
O2 O 0.85827(12) 0.04243(7) -0.0932(3)
O3 O 0.64783(10) 0.13708(6) 0.0277(3)
O4 O 0.53047(11) 0.14735(5) 0.1973(2)
O5 O 0.26026(12) 0.19286(7) 0.1321(3)
O6 O 0.30965(14) 0.23420(7) 0.0895(4)
Cd1B Cd 0.310778(10) 0.282009(5) 0.01101(3)
Cd1C Cd 0.189222(10) 0.217991(5) 0.01101(3)
O5K O 1.01026(12) 0.05714(7) -0.1179(3)
O6F O 0.94035(14) -0.01580(7) -0.1605(4)
loop_
_geom_bond_atom_site_label_1
_geom_bond_atom_site_label_2
_geom_bond_site_symmetry_1
_geom_bond_site_symmetry_2
Cd1 N1 1_555 1_555
C1 C2 1_555 1_555
C2 C3 1_555 1_555
C3 H1 1_555 1_555
C4 C3 1_555 1_555
H2 C4 1_555 1_555
C5 C2 1_555 1_555
H3 C5 1_555 1_555
C6 C5 1_555 1_555
H4 C6 1_555 1_555
C7 C4 1_555 1_555
C8 H5 1_555 1_555
H6 C8 1_555 1_555
C9 C8 1_555 1_555
H7 C9 1_555 1_555
H8 C9 1_555 1_555
C10 C11 1_555 1_555
C11 H9 1_555 1_555
C12 C11 1_555 1_555
H10 C12 1_555 1_555
C13 C10 1_555 1_555
H11 C13 1_555 1_555
C14 C13 1_555 1_555
H12 C14 1_555 1_555
C15 C12 1_555 1_555
C16 C15 1_555 1_555
C17 H13 1_555 1_555
C18 C17 1_555 1_555
H14 C18 1_555 1_555
C19 C18 1_555 1_555
H15 C19 1_555 1_555
C20 C19 1_555 1_555
C21 C20 1_555 1_555
H16 C21 1_555 1_555
C22 C21 1_555 1_555
H17 C22 1_555 1_555
C23 C22 1_555 1_555
C24 C23 1_555 1_555
H18 C24 1_555 1_555
C25 C24 1_555 1_555
H19 C25 1_555 1_555
C26 C25 1_555 1_555
H20 C26 1_555 1_555
C27 C23 1_555 1_555
C28 C20 1_555 1_555
N1 C17 1_555 1_555
N2 Cd1 1_555 1_555
O1 Cd1 1_555 1_555
O2 Cd1 1_555 1_555
O3 C7 1_555 1_555
O4 C9 1_555 1_555
O5 C16 1_555 1_555
O6 C16 1_555 1_555
Cd1B O6 1_555 1_555
Cd1C O5 1_555 1_555
O5K Cd1 1_555 1_555
O6F Cd1 1_555 1_555
C1 O1 1_555 1_555
C1 O2 1_555 1_555
C6 C7 1_555 1_555
C8 O3 1_555 1_555
C10 O4 1_555 1_555
C14 C15 1_555 1_555
C26 N2 1_555 1_555
C27 C28 1_555 1_555
C27 N2 1_555 1_555
C28 N1 1_555 1_555

#END
