
#######################################################################
#
#                 Cambridge Crystallographic Data Centre
#                                CCDC 
#
#######################################################################
#
# If this CIF has been generated from an entry in the Cambridge 
# Structural Database, then it will include bibliographic, chemical, 
# crystal, experimental, refinement or atomic coordinate data resulting 
# from the CCDC's data processing and validation procedures.
#
#######################################################################

data_COYFIH
_symmetry_cell_setting           monoclinic
_symmetry_space_group_name_H-M   'P 21/n'
_symmetry_Int_Tables_number      14
_space_group_name_Hall           '-P 2yn'
loop_
_symmetry_equiv_pos_site_id
_symmetry_equiv_pos_as_xyz
1 x,y,z
2 1/2-x,1/2+y,1/2-z
3 -x,-y,-z
4 1/2+x,1/2-y,1/2+z
_cell_length_a                   8.9878(17)
_cell_length_b                   19.037(3)
_cell_length_c                   11.902(2)
_cell_angle_alpha                90
_cell_angle_beta                 111.144(3)
_cell_angle_gamma                90
_cell_volume                     1899.34
loop_
_atom_site_label
_atom_site_type_symbol
_atom_site_fract_x
_atom_site_fract_y
_atom_site_fract_z
Co1 Co 1.0000 0.0000 0.5000
O1 O 1.81260(16) -0.16756(7) 0.86711(13)
O2 O 2.07566(16) -0.15823(7) 1.09541(13)
O3 O 1.12833(17) -0.08731(7) 0.49927(12)
O4 O 2.75946(19) -0.06499(8) 1.46783(14)
O5 O 1.07170(17) -0.18702(8) 0.57022(15)
C1 C 1.2954(3) 0.03800(16) 0.9920(2)
H1 H 1.2460 0.0366 1.0522
H2 H 1.3145 0.0869 0.9784
C2 C 1.4532(3) -0.00026(18) 1.0398(2)
H3 H 1.5174 0.0206 1.1163
H4 H 1.4331 -0.0487 1.0552
O6 O 2.79725(18) -0.17621(8) 1.42703(16)
H5 H 2.8876 -0.1684 1.4748
N1 N 1.1848(2) 0.00774(10) 0.87911(15)
C3 C 1.0980(3) -0.05167(13) 0.8671(2)
H6 H 1.0912 -0.0799 0.9288
C4 C 2.5058(3) -0.18482(12) 1.2473(2)
H7 H 2.5863 -0.2150 1.2457
C5 C 1.1690(2) -0.13871(11) 0.56841(18)
C6 C 2.5430(2) -0.13077(11) 1.33035(18)
C7 C 1.8610(3) -0.22181(11) 0.9558(2)
H8 H 1.8308 -0.2673 0.9177
H9 H 1.8088 -0.2156 1.0136
N2 N 1.0608(2) -0.00966(9) 0.68556(15)
C8 C 1.6542(2) -0.16336(10) 0.79938(18)
C9 C 1.0237(3) -0.06182(12) 0.7483(2)
H10 H 0.9564 -0.0993 0.7139
C10 C 2.0369(2) -0.21839(11) 1.01813(19)
H11 H 2.0748 -0.2607 1.0652
H12 H 2.0883 -0.2149 0.9593
C11 C 1.4522(2) -0.10036(10) 0.64376(18)
H13 H 1.4228 -0.0631 0.5896
C12 C 2.4210(3) -0.08626(11) 1.33076(19)
H14 H 2.4437 -0.0488 1.3846
C13 C 2.2317(2) -0.15142(11) 1.17000(18)
C14 C 2.3525(3) -0.19527(12) 1.1668(2)
H15 H 2.3307 -0.2315 1.1108
C15 C 2.2664(3) -0.09676(11) 1.25246(19)
H16 H 2.1854 -0.0671 1.2550
C16 C 2.7110(3) -0.12140(12) 1.41655(19)
C17 C 1.1572(3) 0.03137(13) 0.7681(2)
H17 H 1.2014 0.0724 0.7512
C18 C 1.3368(2) -0.14690(10) 0.65094(18)
C19 C 1.3833(3) -0.20001(12) 0.7351(2)
H18 H 1.3068 -0.2309 0.7416
C20 C 1.6094(3) -0.10907(11) 0.71620(19)
H19 H 1.6863 -0.0784 0.7094
C21 C 1.5400(3) -0.20863(12) 0.8097(2)
H20 H 1.5684 -0.2446 0.8665
C1B C 1.7046(3) -0.03800(16) 1.0080(2)
H1B H 1.7540 -0.0366 0.9478
H2B H 1.6855 -0.0869 1.0216
C2B C 1.5468(3) 0.00026(18) 0.9602(2)
H3B H 1.4826 -0.0206 0.8837
H4B H 1.5669 0.0487 0.9448
N1B N 1.8152(2) -0.00774(10) 1.12089(15)
C3B C 1.9020(3) 0.05167(13) 1.1329(2)
H6B H 1.9088 0.0799 1.0712
N2B N 1.9392(2) 0.00966(9) 1.31444(15)
C9B C 1.9763(3) 0.06182(12) 1.2517(2)
H10B H 2.0436 0.0993 1.2861
C17B C 1.8428(3) -0.03137(13) 1.2319(2)
H17B H 1.7986 -0.0724 1.2488
O1B O 0.18740(16) 0.16756(7) 0.13289(13)
O2B O -0.07566(16) 0.15823(7) -0.09541(13)
O3B O 0.87167(17) 0.08731(7) 0.50073(12)
O4B O -0.75946(19) 0.06499(8) -0.46783(14)
O5B O 0.92830(17) 0.18702(8) 0.42978(15)
O6B O -0.79725(18) 0.17621(8) -0.42703(16)
H5B H -0.8876 0.1684 -0.4748
C4B C -0.5058(3) 0.18482(12) -0.2473(2)
H7B H -0.5863 0.2150 -0.2457
C5B C 0.8310(2) 0.13871(11) 0.43159(18)
C6B C -0.5430(2) 0.13077(11) -0.33035(18)
C7B C 0.1390(3) 0.22181(11) 0.0442(2)
H8B H 0.1692 0.2673 0.0823
H9B H 0.1912 0.2156 -0.0136
C8B C 0.3458(2) 0.16336(10) 0.20062(18)
C10B C -0.0369(2) 0.21839(11) -0.01813(19)
H11B H -0.0748 0.2607 -0.0652
H12B H -0.0883 0.2149 0.0407
C11B C 0.5478(2) 0.10036(10) 0.35624(18)
H13B H 0.5772 0.0631 0.4104
C12B C -0.4210(3) 0.08626(11) -0.33076(19)
H14B H -0.4437 0.0488 -0.3846
C13B C -0.2317(2) 0.15142(11) -0.17000(18)
C14B C -0.3525(3) 0.19527(12) -0.1668(2)
H15B H -0.3307 0.2315 -0.1108
C15B C -0.2664(3) 0.09676(11) -0.25246(19)
H16B H -0.1854 0.0671 -0.2550
C16B C -0.7110(3) 0.12140(12) -0.41655(19)
C18B C 0.6632(2) 0.14690(10) 0.34906(18)
C19B C 0.6167(3) 0.20001(12) 0.2649(2)
H18B H 0.6932 0.2309 0.2584
C20B C 0.3906(3) 0.10907(11) 0.28380(19)
H19B H 0.3137 0.0784 0.2906
C21B C 0.4600(3) 0.20863(12) 0.1903(2)
H20B H 0.4316 0.2446 0.1335
Co1_2 Co -1.0000 0.0000 -0.5000
Co1_3 Co 2.0000 0.0000 1.5000
Co1_4 Co 3.0000 0.0000 1.5000
O4_2 O 0.75946(19) -0.06499(8) 0.46783(14)
O4B_2 O 1.24054(19) 0.06499(8) 0.53217(14)
N2B_2 N 0.9392(2) 0.00966(9) 0.31444(15)
loop_
_geom_bond_atom_site_label_1
_geom_bond_atom_site_label_2
_geom_bond_site_symmetry_1
_geom_bond_site_symmetry_2
Co1 O3 1_555 1_555
O1 C7 1_555 1_555
O2 C10 1_555 1_555
O3 C5 1_555 1_555
O4 C16 1_555 1_555
O5 C5 1_555 1_555
C1 H1 1_555 1_555
H2 C1 1_555 1_555
C2 C1 1_555 1_555
H3 C2 1_555 1_555
H4 C2 1_555 1_555
O6 H5 1_555 1_555
N1 C1 1_555 1_555
C3 N1 1_555 1_555
H6 C3 1_555 1_555
C4 H7 1_555 1_555
C5 C18 1_555 1_555
C6 C4 1_555 1_555
C7 H8 1_555 1_555
H9 C7 1_555 1_555
N2 Co1 1_555 1_555
C8 O1 1_555 1_555
C9 C3 1_555 1_555
H10 C9 1_555 1_555
C10 C7 1_555 1_555
H11 C10 1_555 1_555
H12 C10 1_555 1_555
C11 H13 1_555 1_555
C12 C6 1_555 1_555
H14 C12 1_555 1_555
C13 O2 1_555 1_555
C14 C4 1_555 1_555
H15 C14 1_555 1_555
C15 C12 1_555 1_555
H16 C15 1_555 1_555
C16 O6 1_555 1_555
C17 N1 1_555 1_555
H17 C17 1_555 1_555
C18 C11 1_555 1_555
C19 C18 1_555 1_555
H18 C19 1_555 1_555
C20 C8 1_555 1_555
H19 C20 1_555 1_555
C21 C8 1_555 1_555
H20 C21 1_555 1_555
C1B H1B 1_555 1_555
H2B C1B 1_555 1_555
C2B C2 1_555 1_555
H3B C2B 1_555 1_555
H4B C2B 1_555 1_555
N1B C1B 1_555 1_555
C3B N1B 1_555 1_555
H6B C3B 1_555 1_555
N2B C9B 1_555 1_555
C9B C3B 1_555 1_555
H10B C9B 1_555 1_555
C17B N1B 1_555 1_555
H17B C17B 1_555 1_555
O1B C7B 1_555 1_555
O2B C10B 1_555 1_555
O3B Co1 1_555 1_555
O4B C16B 1_555 1_555
O5B C5B 1_555 1_555
O6B H5B 1_555 1_555
C4B H7B 1_555 1_555
C5B O3B 1_555 1_555
C6B C4B 1_555 1_555
C7B H8B 1_555 1_555
H9B C7B 1_555 1_555
C8B O1B 1_555 1_555
C10B C7B 1_555 1_555
H11B C10B 1_555 1_555
H12B C10B 1_555 1_555
C11B H13B 1_555 1_555
C12B C6B 1_555 1_555
H14B C12B 1_555 1_555
C13B O2B 1_555 1_555
C14B C4B 1_555 1_555
H15B C14B 1_555 1_555
C15B C12B 1_555 1_555
H16B C15B 1_555 1_555
C16B O6B 1_555 1_555
C18B C5B 1_555 1_555
C19B C18B 1_555 1_555
H18B C19B 1_555 1_555
C20B C8B 1_555 1_555
H19B C20B 1_555 1_555
C21B C8B 1_555 1_555
H20B C21B 1_555 1_555
Co1_2 O4B 1_555 1_555
Co1_3 N2B 1_555 1_555
Co1_4 O4 1_555 1_555
O4_2 Co1 1_555 1_555
O4B_2 Co1 1_555 1_555
N2B_2 Co1 1_555 1_555
C6 C16 1_555 1_555
N2 C9 1_555 1_555
N2 C17 1_555 1_555
C11 C20 1_555 1_555
C13 C14 1_555 1_555
C13 C15 1_555 1_555
C19 C21 1_555 1_555
C1B C2B 1_555 1_555
N2B C17B 1_555 1_555
C6B C16B 1_555 1_555
C11B C18B 1_555 1_555
C11B C20B 1_555 1_555
C13B C14B 1_555 1_555
C13B C15B 1_555 1_555
C19B C21B 1_555 1_555

#END
