
#######################################################################
#
#                 Cambridge Crystallographic Data Centre
#                                CCDC 
#
#######################################################################
#
# If this CIF has been generated from an entry in the Cambridge 
# Structural Database, then it will include bibliographic, chemical, 
# crystal, experimental, refinement or atomic coordinate data resulting 
# from the CCDC's data processing and validation procedures.
#
#######################################################################

data_COYGUT
_symmetry_cell_setting           monoclinic
_symmetry_space_group_name_H-M   'P 21/c'
_symmetry_Int_Tables_number      14
_space_group_name_Hall           '-P 2ybc'
loop_
_symmetry_equiv_pos_site_id
_symmetry_equiv_pos_as_xyz
1 x,y,z
2 -x,1/2+y,1/2-z
3 -x,-y,-z
4 x,1/2-y,1/2+z
_cell_length_a                   14.8571(8)
_cell_length_b                   25.6239(13)
_cell_length_c                   19.3601(10)
_cell_angle_alpha                90
_cell_angle_beta                 111.462(2)
_cell_angle_gamma                90
_cell_volume                     6859.27
loop_
_atom_site_label
_atom_site_type_symbol
_atom_site_fract_x
_atom_site_fract_y
_atom_site_fract_z
O1 O 0.1308(11) 0.1913(7) 0.1155(11)
H1 H 0.0803 0.1770 0.1181
H2 H 0.1627 0.2008 0.1602
O2 O 0.1820(2) 0.38163(13) 0.46080(18)
H3 H 0.1441 0.3981 0.4771
H4 H 0.2045 0.3568 0.4913
O3 O 0.0025(3) 0.38020(13) 0.28494(19)
H5 H -0.0019 0.4007 0.2500
H6 H -0.0548 0.3702 0.2782
O4 O 0.0593(2) 0.25306(11) 0.27818(17)
H7 H 0.0176 0.2590 0.2379
H8 H 0.0894 0.2261 0.2792
O5 O 0.3320(3) 0.34532(16) 0.4226(2)
H9 H 0.3749 0.3224 0.4252
O6 O 0.2062(3) 0.41075(13) 0.3107(2)
H11 H 0.2553 0.4305 0.3300
H12 H 0.1852 0.4182 0.2645
Ce1 Ce 0.15274(2) 0.326881(9) 0.349335(14)
C1 C -0.0401(4) 0.29117(17) 0.4251(2)
C2 C -0.1183(4) 0.22327(17) 0.4627(3)
C3 C -0.1680(4) 0.27724(18) 0.4677(3)
C4 C -0.1062(4) 0.23834(18) 0.5858(3)
C5 C -0.1870(4) 0.18096(19) 0.4167(3)
H47 H -0.2151 0.1921 0.3659
H48 H -0.1516 0.1492 0.4195
H49 H -0.2373 0.1751 0.4359
C6 C -0.2715(4) 0.2830(2) 0.4143(3)
H50 H -0.2732 0.2822 0.3643
H51 H -0.3097 0.2548 0.4216
H52 H -0.2972 0.3156 0.4232
C7 C -0.1207(4) 0.37111(18) 0.4431(3)
H53 H -0.0904 0.3847 0.4102
H54 H -0.1896 0.3776 0.4204
C8 C -0.2013(4) 0.31795(19) 0.5790(3)
H55 H -0.2155 0.3019 0.6192
H56 H -0.2620 0.3300 0.5426
C9 C -0.0024(4) 0.42942(17) 0.5297(3)
C10 C -0.1336(4) 0.40834(18) 0.5644(3)
C11 C -0.0599(3) 0.44479(16) 0.6258(3)
C12 C -0.0797(4) 0.36565(17) 0.6810(3)
C13 C -0.2335(4) 0.4320(2) 0.5235(3)
H57 H -0.2655 0.4377 0.5579
H58 H -0.2266 0.4646 0.5016
H59 H -0.2712 0.4085 0.4852
C14 C -0.1034(4) 0.49516(18) 0.6419(3)
H60 H -0.1524 0.4869 0.6616
H61 H -0.0536 0.5155 0.6775
H62 H -0.1316 0.5148 0.5969
C15 C 0.0989(4) 0.48793(17) 0.6277(3)
H63 H 0.0817 0.5167 0.6531
H64 H 0.1159 0.5026 0.5879
C16 C 0.0399(4) 0.42629(18) 0.7635(3)
H65 H 0.0247 0.4069 0.8008
H66 H 0.0300 0.4630 0.7706
C17 C 0.2543(4) 0.44332(17) 0.6569(3)
C18 C 0.3051(4) 0.42466(17) 0.7848(3)
C19 C 0.2047(4) 0.45512(17) 0.7586(3)
C20 C 0.1866(4) 0.37318(17) 0.8074(3)
C21 C 0.2065(4) 0.50739(19) 0.7972(3)
H67 H 0.2496 0.5309 0.7859
H68 H 0.1426 0.5220 0.7800
H69 H 0.2286 0.5021 0.8499
C22 C 0.3893(4) 0.4515(2) 0.8442(3)
H70 H 0.3755 0.4548 0.8888
H71 H 0.4470 0.4312 0.8543
H72 H 0.3986 0.4856 0.8272
C23 C 0.4069(4) 0.39526(18) 0.7079(3)
H73 H 0.4163 0.4105 0.6651
H74 H 0.4633 0.4038 0.7513
C24 C 0.3468(4) 0.33291(17) 0.8471(3)
H75 H 0.3223 0.3145 0.8803
H76 H 0.4089 0.3478 0.8769
C25 C 0.3707(4) 0.31669(18) 0.6306(3)
C26 C 0.3200(4) 0.24754(17) 0.7870(3)
C27 C 0.4322(4) 0.30076(18) 0.7595(3)
C28 C 0.4195(4) 0.24683(18) 0.7164(3)
C29 C 0.5326(4) 0.3122(2) 0.8152(3)
H77 H 0.5498 0.2864 0.8538
H78 H 0.5782 0.3113 0.7906
H79 H 0.5333 0.3461 0.8364
C30 C 0.5130(4) 0.2162(2) 0.7313(3)
H80 H 0.5558 0.2361 0.7144
H81 H 0.5435 0.2098 0.7836
H82 H 0.4984 0.1836 0.7052
C31 C 0.3557(4) 0.22917(19) 0.5748(3)
H83 H 0.4040 0.2017 0.5873
H84 H 0.3619 0.2490 0.5341
C32 C 0.3196(4) 0.16554(17) 0.7208(3)
H85 H 0.3721 0.1458 0.7150
H86 H 0.3051 0.1500 0.7612
C33 C 0.1877(4) 0.22255(16) 0.4879(3)
C34 C 0.2355(4) 0.15628(17) 0.5782(3)
C35 C 0.1245(4) 0.15045(16) 0.5297(3)
C36 C 0.1427(4) 0.16361(15) 0.6537(3)
C37 C 0.3006(4) 0.11151(19) 0.5725(3)
H87 H 0.2994 0.1094 0.5226
H88 H 0.3656 0.1177 0.6060
H89 H 0.2776 0.0793 0.5852
C38 C 0.0949(4) 0.09775(18) 0.4911(3)
H90 H 0.1264 0.0928 0.4562
H91 H 0.1137 0.0704 0.5274
H92 H 0.0260 0.0970 0.4654
C39 C 0.0171(4) 0.20317(17) 0.4138(3)
H93 H -0.0164 0.1703 0.3973
H94 H 0.0318 0.2175 0.3728
C40 C -0.0255(4) 0.15890(17) 0.5677(3)
H95 H -0.0359 0.1494 0.6127
H96 H -0.0550 0.1321 0.5309
N1 N -0.0475(3) 0.23866(14) 0.4310(2)
N2 N -0.1041(3) 0.31492(14) 0.4513(2)
N3 N -0.0734(3) 0.20835(14) 0.5408(2)
N4 N -0.1602(3) 0.27819(15) 0.5444(2)
N5 N 0.1078(3) 0.19273(14) 0.4751(2)
N6 N 0.2611(3) 0.20562(15) 0.5501(2)
N7 N 0.0783(3) 0.15990(14) 0.5832(2)
N8 N 0.2348(3) 0.16087(14) 0.6529(2)
N9 N 0.3760(3) 0.26336(15) 0.6384(2)
N10 N 0.3516(3) 0.21871(14) 0.7406(2)
N11 N 0.4015(3) 0.33870(14) 0.6990(2)
N12 N 0.3609(3) 0.29586(14) 0.7956(2)
N13 N 0.3226(3) 0.41910(15) 0.7157(2)
N14 N 0.2808(3) 0.37493(14) 0.8119(2)
N15 N 0.1829(3) 0.46187(14) 0.6795(2)
N16 N 0.1404(3) 0.41823(14) 0.7752(2)
N17 N 0.0147(3) 0.45473(14) 0.5954(2)
N18 N -0.0824(3) 0.39891(14) 0.5140(2)
N19 N -0.0268(3) 0.41079(14) 0.6911(2)
N20 N -0.1392(3) 0.36259(15) 0.6080(2)
O23 O 0.0138(2) 0.31436(12) 0.39980(18)
O24 O 0.1955(2) 0.25913(11) 0.44880(17)
O25 O 0.0456(3) 0.43484(12) 0.49005(19)
O26 O 0.3439(3) 0.34036(13) 0.57178(19)
O27 O 0.2560(3) 0.44817(13) 0.59456(19)
O28 O -0.0897(3) 0.23013(13) 0.65171(18)
O29 O 0.1221(2) 0.16728(11) 0.70901(17)
O30 O -0.0749(3) 0.33445(12) 0.73000(18)
O31 O 0.2648(2) 0.23254(12) 0.81689(18)
O32 O 0.1506(2) 0.33771(12) 0.83095(19)
Ce1C Ce 0.15274(2) 0.173119(9) 0.849335(14)
O29C O 0.1221(2) 0.33272(11) 0.20901(17)
O31C O 0.2648(2) 0.26746(12) 0.31689(18)
O7 O -0.5150(4) 0.5709(2) -0.0519(4)
H13 H -0.5113 0.5892 -0.0119
H14 H -0.4968 0.5943 -0.0764
O8 O -0.3785(4) 0.4963(2) -0.0129(4)
H15 H -0.3226 0.4832 -0.0088
H16 H -0.4076 0.4980 -0.0600
O9 O 0.4234(5) 0.5182(3) 0.2144(7)
H17 H 0.4074 0.4892 0.1910
H18 H 0.3695 0.5319 0.2108
O10 O 0.3561(4) 0.4736(3) 0.3843(4)
H19 H 0.3645 0.4441 0.3683
H20 H 0.3492 0.4785 0.4256
O11 O 0.5225(5) 0.4209(3) 0.4020(3)
H21 H 0.5431 0.4287 0.3638
H22 H 0.4821 0.3954 0.3825
O12 O -0.1909(4) 0.4594(2) 0.0100(3)
H23 H -0.1429 0.4527 -0.0138
H24 H -0.1700 0.4408 0.0501
O13 O -0.2307(3) 0.36954(18) 0.0789(3)
H25 H -0.2661 0.3894 0.0878
H26 H -0.2596 0.3420 0.0594
O14 O -0.1885(3) 0.34954(16) 0.2318(3)
H27 H -0.2188 0.3493 0.2604
H28 H -0.2389 0.3631 0.1951
O15 O -0.2080(4) 0.24028(17) 0.2541(2)
H29 H -0.1622 0.2295 0.2389
H30 H -0.2111 0.2761 0.2408
O16 O -0.3638(5) 0.1748(3) 0.1796(4)
H31 H -0.3372 0.2032 0.1970
H32 H -0.3718 0.1789 0.1354
O17 O -0.2955(12) 0.0720(7) 0.2216(9)
H33 H -0.2669 0.0844 0.2691
H34 H -0.2832 0.0983 0.2022
O18 O -0.2119(10) 0.0506(3) 0.3653(5)
H35 H -0.1459 0.0589 0.3857
H36 H -0.1940 0.0132 0.3651
O19 O 0.4007(4) 0.0386(4) 0.0373(5)
H37 H 0.3382 0.0409 0.0308
H38 H 0.3954 0.0694 -0.0075
O20 O 0.5797(8) 0.0620(5) 0.1316(6)
H39 H 0.5526 0.0380 0.1279
H40 H 0.5670 0.0914 0.1310
O21 O 0.5708(6) 0.3479(3) -0.0108(4)
H41 H 0.6000 0.3643 -0.0368
H42 H 0.5685 0.3706 0.0272
N21 N 0.0370(5) 0.46618(17) 0.1441(3)
O39 O 0.1283(4) 0.46028(18) 0.1746(3)
O40 O 0.0071(4) 0.49476(19) 0.0860(3)
O41 O -0.0177(4) 0.44642(16) 0.1678(2)
N22 N 0.5343(7) 0.2126(4) -0.0084(6)
O33 O 0.4793(5) 0.2190(4) -0.0748(5)
O34 O 0.5713(5) 0.2428(3) 0.0444(4)
O35 O 0.5596(6) 0.1633(3) 0.0051(5)
N23 N -0.4003(4) 0.40906(19) 0.2554(4)
O36 O -0.4854(4) 0.41965(19) 0.2456(4)
O37 O -0.3755(5) 0.4027(2) 0.2025(4)
O38 O -0.3398(5) 0.4037(3) 0.3149(4)
H10? H 0.2833 0.3377 0.3884
H43? H 0.5966 0.3106 -0.0462
H44? H 0.6476 0.2844 0.0210
O22? O 0.5781(17) 0.3062(12) 0.071(2)
H45? H 0.5950 0.2994 0.0312
H46? H 0.5649 0.2765 0.0863
O42? O 0.628(2) 0.3157(9) 0.0047(12)
loop_
_geom_bond_atom_site_label_1
_geom_bond_atom_site_label_2
_geom_bond_site_symmetry_1
_geom_bond_site_symmetry_2
O1 H1 1_555 1_555
H2 O1 1_555 1_555
O2 H3 1_555 1_555
H4 O2 1_555 1_555
O3 H5 1_555 1_555
H6 O3 1_555 1_555
O4 H7 1_555 1_555
H8 O4 1_555 1_555
O5 H9 1_555 1_555
O6 H11 1_555 1_555
H12 O6 1_555 1_555
O7 H13 1_555 1_555
H14 O7 1_555 1_555
O8 H15 1_555 1_555
H16 O8 1_555 1_555
O9 H17 1_555 1_555
H18 O9 1_555 1_555
O10 H19 1_555 1_555
H20 O10 1_555 1_555
O11 H21 1_555 1_555
H22 O11 1_555 1_555
O12 H23 1_555 1_555
H24 O12 1_555 1_555
O13 H25 1_555 1_555
H26 O13 1_555 1_555
O14 H27 1_555 1_555
H28 O14 1_555 1_555
O15 H29 1_555 1_555
H30 O15 1_555 1_555
O16 H31 1_555 1_555
H32 O16 1_555 1_555
O17 H33 1_555 1_555
H34 O17 1_555 1_555
O18 H35 1_555 1_555
H36 O18 1_555 1_555
O19 H37 1_555 1_555
H38 O19 1_555 1_555
O20 H39 1_555 1_555
H40 O20 1_555 1_555
O21 H41 1_555 1_555
H42 O21 1_555 1_555
Ce1 O2 1_555 1_555
C1 N1 1_555 1_555
C2 C3 1_555 1_555
C3 C6 1_555 1_555
C4 N3 1_555 1_555
C5 C2 1_555 1_555
H47 C5 1_555 1_555
H48 C5 1_555 1_555
H49 C5 1_555 1_555
C6 H50 1_555 1_555
H51 C6 1_555 1_555
H52 C6 1_555 1_555
C7 H53 1_555 1_555
H54 C7 1_555 1_555
C8 H55 1_555 1_555
H56 C8 1_555 1_555
C9 N17 1_555 1_555
C10 C11 1_555 1_555
C11 C14 1_555 1_555
C12 N19 1_555 1_555
C13 C10 1_555 1_555
H57 C13 1_555 1_555
H58 C13 1_555 1_555
H59 C13 1_555 1_555
C14 H60 1_555 1_555
H61 C14 1_555 1_555
H62 C14 1_555 1_555
C15 H63 1_555 1_555
H64 C15 1_555 1_555
C16 H65 1_555 1_555
H66 C16 1_555 1_555
C17 N13 1_555 1_555
C18 C19 1_555 1_555
C19 C21 1_555 1_555
C20 N14 1_555 1_555
C21 H67 1_555 1_555
H68 C21 1_555 1_555
H69 C21 1_555 1_555
C22 C18 1_555 1_555
H70 C22 1_555 1_555
H71 C22 1_555 1_555
H72 C22 1_555 1_555
C23 H73 1_555 1_555
H74 C23 1_555 1_555
C24 H75 1_555 1_555
H76 C24 1_555 1_555
C25 N9 1_555 1_555
C26 N10 1_555 1_555
C27 C28 1_555 1_555
C28 C30 1_555 1_555
C29 C27 1_555 1_555
H77 C29 1_555 1_555
H78 C29 1_555 1_555
H79 C29 1_555 1_555
C30 H80 1_555 1_555
H81 C30 1_555 1_555
H82 C30 1_555 1_555
C31 H83 1_555 1_555
H84 C31 1_555 1_555
C32 H85 1_555 1_555
H86 C32 1_555 1_555
C33 N5 1_555 1_555
C34 C35 1_555 1_555
C35 C38 1_555 1_555
C36 N7 1_555 1_555
C37 C34 1_555 1_555
H87 C37 1_555 1_555
H88 C37 1_555 1_555
H89 C37 1_555 1_555
C38 H90 1_555 1_555
H91 C38 1_555 1_555
H92 C38 1_555 1_555
C39 H93 1_555 1_555
H94 C39 1_555 1_555
C40 H95 1_555 1_555
H96 C40 1_555 1_555
N1 C2 1_555 1_555
N2 C1 1_555 1_555
N3 C2 1_555 1_555
N4 C3 1_555 1_555
N5 C35 1_555 1_555
N6 C31 1_555 1_555
N7 C35 1_555 1_555
N8 C32 1_555 1_555
N9 C28 1_555 1_555
N10 C28 1_555 1_555
N11 C23 1_555 1_555
N12 C24 1_555 1_555
N13 C18 1_555 1_555
N14 C18 1_555 1_555
N15 C15 1_555 1_555
N16 C16 1_555 1_555
N17 C11 1_555 1_555
N18 C7 1_555 1_555
N19 C11 1_555 1_555
N20 C8 1_555 1_555
N21 O39 1_555 1_555
N22 O33 1_555 1_555
N23 O36 1_555 1_555
O23 Ce1 1_555 1_555
O24 Ce1 1_555 1_555
O25 C9 1_555 1_555
O26 C25 1_555 1_555
O27 C17 1_555 1_555
O28 C4 1_555 1_555
O29 C36 1_555 1_555
O30 C12 1_555 1_555
O31 C26 1_555 1_555
O32 C20 1_555 1_555
O34 N22 1_555 1_555
O35 N22 1_555 1_555
O37 N23 1_555 1_555
O38 N23 1_555 1_555
O40 N21 1_555 1_555
O41 N21 1_555 1_555
Ce1C O29 1_555 1_555
O29C Ce1 1_555 1_555
O31C Ce1 1_555 1_555
O3 Ce1 1_555 1_555
O4 Ce1 1_555 1_555
O5 Ce1 1_555 1_555
O6 Ce1 1_555 1_555
C1 O23 1_555 1_555
C3 N2 1_555 1_555
C4 N4 1_555 1_555
C7 N2 1_555 1_555
C8 N4 1_555 1_555
C9 N18 1_555 1_555
C10 N18 1_555 1_555
C10 N20 1_555 1_555
C12 N20 1_555 1_555
C15 N17 1_555 1_555
C16 N19 1_555 1_555
C17 N15 1_555 1_555
C19 N15 1_555 1_555
C19 N16 1_555 1_555
C20 N16 1_555 1_555
C23 N13 1_555 1_555
C24 N14 1_555 1_555
C25 N11 1_555 1_555
C26 N12 1_555 1_555
C27 N11 1_555 1_555
C27 N12 1_555 1_555
C31 N9 1_555 1_555
C32 N10 1_555 1_555
C33 N6 1_555 1_555
C33 O24 1_555 1_555
C34 N6 1_555 1_555
C34 N8 1_555 1_555
C36 N8 1_555 1_555
C39 N1 1_555 1_555
C39 N5 1_555 1_555
C40 N3 1_555 1_555
C40 N7 1_555 1_555
O31 Ce1C 1_555 1_555

#END
