
#######################################################################
#
#                 Cambridge Crystallographic Data Centre
#                                CCDC 
#
#######################################################################
#
# If this CIF has been generated from an entry in the Cambridge 
# Structural Database, then it will include bibliographic, chemical, 
# crystal, experimental, refinement or atomic coordinate data resulting 
# from the CCDC's data processing and validation procedures.
#
#######################################################################

data_COYHOP
_symmetry_cell_setting           triclinic
_symmetry_space_group_name_H-M   'P -1'
_symmetry_Int_Tables_number      2
_space_group_name_Hall           '-P 1'
loop_
_symmetry_equiv_pos_site_id
_symmetry_equiv_pos_as_xyz
1 x,y,z
2 -x,-y,-z
_cell_length_a                   7.5441(4)
_cell_length_b                   7.6044(6)
_cell_length_c                   14.6407(10)
_cell_angle_alpha                75.622(6)
_cell_angle_beta                 78.758(5)
_cell_angle_gamma                62.349(6)
_cell_volume                     717.568
loop_
_atom_site_label
_atom_site_type_symbol
_atom_site_fract_x
_atom_site_fract_y
_atom_site_fract_z
Mn1 Mn 0.5000 0.0000 0.0000
O1 O 0.7497(2) -0.4267(3) 0.36698(12)
N1 N 0.4239(3) 0.0242(3) 0.16021(12)
N2 N 0.3227(3) 0.0470(3) 0.35175(13)
N3 N 0.5383(3) -0.2719(3) 0.48333(14)
H1 H 0.6061 -0.3653 0.5270
H2 H 0.4310 -0.1695 0.4982
N4 N 0.8062(3) -0.2168(3) 0.02867(14)
N5 N 1.1596(3) -0.3762(3) 0.05241(18)
N6 N 1.4013(3) -0.2392(3) 0.03061(16)
C1 C 1.2797(3) -0.2925(3) 0.03856(15)
C2 C 0.9727(3) -0.2802(3) 0.03758(15)
C3 C 0.4747(3) -0.1140(3) 0.32215(14)
C4 C 0.5239(3) -0.1263(3) 0.22718(15)
H3 H 0.6297 -0.2428 0.2096
C5 C 0.2743(3) 0.1873(4) 0.18980(16)
H4 H 0.2015 0.2967 0.1453
C6 C 0.2248(3) 0.1981(4) 0.28468(17)
H5 H 0.1194 0.3148 0.3023
C7 C 0.5984(3) -0.2856(3) 0.39411(15)
O1A O 0.2503(2) 0.4267(3) -0.36698(12)
N1A N 0.5761(3) -0.0242(3) -0.16021(12)
N2A N 0.6773(3) -0.0470(3) -0.35175(13)
N3A N 0.4617(3) 0.2719(3) -0.48333(14)
H1A H 0.3939 0.3653 -0.5270
H2A H 0.5690 0.1695 -0.4982
N4A N 0.1938(3) 0.2168(3) -0.02867(14)
N5A N -0.1596(3) 0.3762(3) -0.05241(18)
N6A N -0.4013(3) 0.2392(3) -0.03061(16)
C1A C -0.2797(3) 0.2925(3) -0.03856(15)
C2A C 0.0273(3) 0.2802(3) -0.03758(15)
C3A C 0.5253(3) 0.1140(3) -0.32215(14)
C4A C 0.4761(3) 0.1263(3) -0.22718(15)
H3A H 0.3703 0.2428 -0.2096
C5A C 0.7257(3) -0.1873(4) -0.18980(16)
H4A H 0.7985 -0.2967 -0.1453
C6A C 0.7752(3) -0.1981(4) -0.28468(17)
H5A H 0.8806 -0.3148 -0.3023
C7A C 0.4016(3) 0.2856(3) -0.39411(15)
Mn1_2 Mn -0.5000 0.0000 0.0000
Mn1_3 Mn 1.5000 0.0000 0.0000
N6_2 N 0.4013(3) -0.2392(3) 0.03061(16)
N6A_2 N 0.5987(3) 0.2392(3) -0.03061(16)
O2 O 0.7738(2) -0.5954(3) 0.62702(12)
N7 N 0.9865(3) -0.7455(4) 0.50955(14)
H6 H 0.9197 -0.6500 0.4663
H7 H 1.0936 -0.8474 0.4941
N8 N 1.2054(3) -1.0669(3) 0.63813(13)
N9 N 1.0970(3) -1.0607(4) 0.83140(14)
C8 C 1.0488(3) -0.9105(3) 0.66990(15)
C9 C 0.9977(3) -0.9084(4) 0.76537(16)
H8 H 0.8889 -0.7953 0.7843
C10 C 1.2500(4) -1.2175(4) 0.79947(17)
H9 H 1.3232 -1.3292 0.8429
C11 C 1.3041(4) -1.2206(4) 0.70414(17)
H10 H 1.4132 -1.3338 0.6854
C12 C 0.9250(3) -0.7357(4) 0.59932(15)
loop_
_geom_bond_atom_site_label_1
_geom_bond_atom_site_label_2
_geom_bond_site_symmetry_1
_geom_bond_site_symmetry_2
Mn1 N1 1_555 1_555
O1 C7 1_555 1_555
N1 C4 1_555 1_555
N2 C3 1_555 1_555
N3 H1 1_555 1_555
H2 N3 1_555 1_555
N4 Mn1 1_555 1_555
N5 C1 1_555 1_555
N6 C1 1_555 1_555
C2 N4 1_555 1_555
C3 C4 1_555 1_555
C4 H3 1_555 1_555
C5 N1 1_555 1_555
H4 C5 1_555 1_555
C6 N2 1_555 1_555
H5 C6 1_555 1_555
C7 N3 1_555 1_555
O2 C12 1_555 1_555
N7 H6 1_555 1_555
H7 N7 1_555 1_555
N8 C8 1_555 1_555
N9 C9 1_555 1_555
C8 C9 1_555 1_555
C9 H8 1_555 1_555
C10 N9 1_555 1_555
H9 C10 1_555 1_555
C11 N8 1_555 1_555
H10 C11 1_555 1_555
C12 N7 1_555 1_555
O1A C7A 1_555 1_555
N1A Mn1 1_555 1_555
N2A C3A 1_555 1_555
N3A H1A 1_555 1_555
H2A N3A 1_555 1_555
N4A Mn1 1_555 1_555
N5A C1A 1_555 1_555
N6A C1A 1_555 1_555
C2A N4A 1_555 1_555
C3A C4A 1_555 1_555
C4A N1A 1_555 1_555
H3A C4A 1_555 1_555
C5A N1A 1_555 1_555
H4A C5A 1_555 1_555
C6A N2A 1_555 1_555
H5A C6A 1_555 1_555
C7A N3A 1_555 1_555
Mn1_2 N6A 1_555 1_555
Mn1_3 N6 1_555 1_555
N6_2 Mn1 1_555 1_555
N6A_2 Mn1 1_555 1_555
N5 C2 1_555 1_555
C3 C7 1_555 1_555
C5 C6 1_555 1_555
C8 C12 1_555 1_555
C10 C11 1_555 1_555
N5A C2A 1_555 1_555
C3A C7A 1_555 1_555
C5A C6A 1_555 1_555

#END
