
#######################################################################
#
#                 Cambridge Crystallographic Data Centre
#                                CCDC 
#
#######################################################################
#
# If this CIF has been generated from an entry in the Cambridge 
# Structural Database, then it will include bibliographic, chemical, 
# crystal, experimental, refinement or atomic coordinate data resulting 
# from the CCDC's data processing and validation procedures.
#
#######################################################################

data_COYJEH
_symmetry_cell_setting           monoclinic
_symmetry_space_group_name_H-M   'P 21/n'
_symmetry_Int_Tables_number      14
_space_group_name_Hall           '-P 2yn'
loop_
_symmetry_equiv_pos_site_id
_symmetry_equiv_pos_as_xyz
1 x,y,z
2 1/2-x,1/2+y,1/2-z
3 -x,-y,-z
4 1/2+x,1/2-y,1/2+z
_cell_length_a                   10.0700(7)
_cell_length_b                   23.4076(16)
_cell_length_c                   11.5729(8)
_cell_angle_alpha                90
_cell_angle_beta                 104.6890(10)
_cell_angle_gamma                90
_cell_volume                     2638.74
loop_
_atom_site_label
_atom_site_type_symbol
_atom_site_fract_x
_atom_site_fract_y
_atom_site_fract_z
Eu1 Eu -0.02048(3) 0.897884(15) 0.09878(3)
Br1 Br -0.30550(10) 1.08813(7) 0.45601(9)
Br2 Br 0.29345(9) 1.05044(5) 0.34589(8)
C1 C 0.2578(7) 0.8096(3) 0.1763(7)
C2 C 0.3384(7) 0.7612(3) 0.2235(8)
C3 C 0.2768(9) 0.7085(4) 0.2222(9)
H1 H 0.3287 0.6759 0.2478
C4 C 0.1321(8) 0.7056(4) 0.1806(10)
H2 H 0.0859 0.6713 0.1821
C5 C 0.0611(8) 0.7548(4) 0.1377(9)
H3 H -0.0331 0.7516 0.1055
C6 C 0.4811(8) 0.7701(3) 0.2647(7)
C7 C 0.5417(7) 0.8220(3) 0.2588(7)
C8 C 0.4649(8) 0.8716(3) 0.2102(7)
C9 C 0.3235(7) 0.8642(3) 0.1692(6)
C10 C 0.5236(8) 0.9248(4) 0.1937(7)
H4 H 0.6179 0.9309 0.2174
C11 C 0.4328(8) 0.9680(4) 0.1397(8)
H5 H 0.4663 1.0041 0.1288
C12 C 0.2976(7) 0.9577(3) 0.1037(7)
H6 H 0.2409 0.9873 0.0669
C13 C 0.6971(8) 0.7568(3) 0.3297(8)
C14 C 0.8310(8) 0.7296(3) 0.3769(8)
C15 C 0.9477(8) 0.7604(4) 0.4293(9)
H7 H 0.9423 0.7998 0.4374
C16 C 1.0728(9) 0.7331(4) 0.4697(9)
H8 H 1.1510 0.7544 0.5032
C17 C 1.0826(7) 0.6746(3) 0.4607(7)
C18 C 0.9630(8) 0.6443(4) 0.4122(8)
H9 H 0.9669 0.6047 0.4078
C19 C 0.8399(8) 0.6710(3) 0.3708(8)
H10 H 0.7616 0.6496 0.3382
C20 C 1.2179(7) 0.6465(3) 0.5043(7)
C21 C -0.1286(8) 1.0759(4) 0.4352(6)
C22 C -0.0058(8) 1.0809(3) 0.5261(6)
C23 C 0.1181(7) 1.0730(3) 0.4956(6)
H11 H 0.1998 1.0755 0.5548
C24 C 0.1224(7) 1.0615(3) 0.3797(6)
C25 C 0.0004(8) 1.0553(3) 0.2907(6)
C26 C -0.1233(8) 1.0627(3) 0.3193(6)
H12 H -0.2047 1.0587 0.2601
C27 C 0.0014(7) 1.0444(3) 0.1609(6)
C28 C -0.0001(8) 1.0936(3) 0.6532(7)
N1 N 0.1156(6) 0.8060(3) 0.1387(6)
N2 N 0.2396(6) 0.9087(3) 0.1168(5)
N3 N 0.6803(6) 0.8133(3) 0.3008(6)
H13 H 0.7439 0.8385 0.3076
N4 N 0.5807(6) 0.7289(3) 0.3089(7)
O1 O -0.0324(6) 0.9958(2) 0.1221(4)
O2 O 0.0260(6) 1.0848(2) 0.1017(4)
O3 O -0.1058(5) 1.0904(3) 0.6926(5)
O4 O 0.1171(5) 1.1061(2) 0.7229(4)
O5 O 1.3206(5) 0.6771(2) 0.5391(5)
O6 O 1.2265(5) 0.5924(2) 0.5070(5)
Eu1B Eu 0.02048(3) 1.102116(15) -0.09878(3)
Eu1B_2 Eu 0.02048(3) 1.102116(15) 0.90122(3)
Eu1C Eu 1.47952(3) 0.602116(15) 0.59878(3)
O2B O -0.0260(6) 0.9152(2) -0.1017(4)
O3B O 0.1058(5) 0.9096(3) 0.3074(5)
O4B O -0.1171(5) 0.8939(2) 0.2771(4)
O5C O -0.1794(5) 0.8229(2) 0.0391(5)
O6C O -0.2735(5) 0.9076(2) 0.0070(5)
loop_
_geom_bond_atom_site_label_1
_geom_bond_atom_site_label_2
_geom_bond_site_symmetry_1
_geom_bond_site_symmetry_2
Eu1 N1 1_555 1_555
Br1 C21 1_555 1_555
Br2 C24 1_555 1_555
C1 C2 1_555 1_555
C2 C3 1_555 1_555
C3 H1 1_555 1_555
C4 C3 1_555 1_555
H2 C4 1_555 1_555
C5 C4 1_555 1_555
H3 C5 1_555 1_555
C6 C2 1_555 1_555
C7 C6 1_555 1_555
C8 C7 1_555 1_555
C9 C1 1_555 1_555
C10 C8 1_555 1_555
H4 C10 1_555 1_555
C11 C10 1_555 1_555
H5 C11 1_555 1_555
C12 C11 1_555 1_555
H6 C12 1_555 1_555
C13 C14 1_555 1_555
C14 C15 1_555 1_555
C15 H7 1_555 1_555
C16 C15 1_555 1_555
H8 C16 1_555 1_555
C17 C16 1_555 1_555
C18 C17 1_555 1_555
H9 C18 1_555 1_555
C19 C14 1_555 1_555
H10 C19 1_555 1_555
C20 C17 1_555 1_555
C21 C22 1_555 1_555
C22 C23 1_555 1_555
C23 H11 1_555 1_555
C24 C23 1_555 1_555
C25 C24 1_555 1_555
C26 C21 1_555 1_555
H12 C26 1_555 1_555
C27 C25 1_555 1_555
C28 C22 1_555 1_555
N1 C1 1_555 1_555
N2 Eu1 1_555 1_555
N3 C7 1_555 1_555
H13 N3 1_555 1_555
N4 C6 1_555 1_555
O1 Eu1 1_555 1_555
O2 C27 1_555 1_555
O3 C28 1_555 1_555
O4 C28 1_555 1_555
O5 C20 1_555 1_555
O6 C20 1_555 1_555
Eu1B O2 1_555 1_555
Eu1B_2 O3 1_555 1_555
Eu1C O5 1_555 1_555
O2B Eu1 1_555 1_555
O3B Eu1 1_555 1_555
O4B Eu1 1_555 1_555
O5C Eu1 1_555 1_555
O6C Eu1 1_555 1_555
C5 N1 1_555 1_555
C8 C9 1_555 1_555
C9 N2 1_555 1_555
C12 N2 1_555 1_555
C13 N3 1_555 1_555
C13 N4 1_555 1_555
C18 C19 1_555 1_555
C25 C26 1_555 1_555
C27 O1 1_555 1_555
O4 Eu1B_2 1_555 1_555
O6 Eu1C 1_555 1_555

#END
