
#######################################################################
#
#                 Cambridge Crystallographic Data Centre
#                                CCDC 
#
#######################################################################
#
# If this CIF has been generated from an entry in the Cambridge 
# Structural Database, then it will include bibliographic, chemical, 
# crystal, experimental, refinement or atomic coordinate data resulting 
# from the CCDC's data processing and validation procedures.
#
#######################################################################

data_COYKEH
_symmetry_cell_setting           monoclinic
_symmetry_space_group_name_H-M   'P 21/c'
_symmetry_Int_Tables_number      14
_space_group_name_Hall           '-P 2ybc'
loop_
_symmetry_equiv_pos_site_id
_symmetry_equiv_pos_as_xyz
1 x,y,z
2 -x,1/2+y,1/2-z
3 -x,-y,-z
4 x,1/2-y,1/2+z
_cell_length_a                   4.9293(2)
_cell_length_b                   8.8904(3)
_cell_length_c                   19.3780(6)
_cell_angle_alpha                90
_cell_angle_beta                 91.643(2)
_cell_angle_gamma                90
_cell_volume                     848.862
loop_
_atom_site_label
_atom_site_type_symbol
_atom_site_fract_x
_atom_site_fract_y
_atom_site_fract_z
C1 C 0.2104(10) 0.8368(6) 0.4126(2)
H1 H 0.3454 0.9048 0.4014
C2 C 0.1364(9) 0.8281(6) 0.4806(2)
H2 H 0.2223 0.8878 0.5141
C3 C -0.0657(9) 0.7303(5) 0.4984(2)
C4 C -0.1881(9) 0.6455(6) 0.4463(2)
H3 H -0.3301 0.5806 0.4560
C5 C -0.0966(10) 0.6583(6) 0.3796(2)
H4 H -0.1758 0.5979 0.3454
C6 C -0.1673(9) 0.7180(5) 0.5700(2)
C7 C 0.4348(9) 0.5646(6) 0.2437(2)
Cu1 Cu 0.27758(12) 0.75327(7) 0.26473(3)
N1 N 0.0995(8) 0.7531(4) 0.36218(18)
N2 N 0.0157(8) 0.7334(4) 0.62089(18)
H5 H 0.1927 0.7526 0.6089
N3 N -0.0577(8) 0.7231(5) 0.69103(18)
H6 H -0.1374 0.6334 0.6977
H7 H -0.1811 0.7949 0.6994
N4 N 0.5399(8) 0.4494(5) 0.2362(2)
O1 O -0.4069(8) 0.6914(5) 0.58071(17)
Cu1C Cu 0.27758(12) 0.74673(7) 0.76473(3)
Cu1A Cu 0.72242(12) 0.25327(7) 0.23527(3)
N3C N -0.0577(8) 0.7769(5) 0.19103(18)
H6C H -0.1374 0.8666 0.1977
H7C H -0.1811 0.7051 0.1994
N4A N 0.4601(8) 0.9494(5) 0.2638(2)
loop_
_geom_bond_atom_site_label_1
_geom_bond_atom_site_label_2
_geom_bond_site_symmetry_1
_geom_bond_site_symmetry_2
C1 H1 1_555 1_555
C2 C1 1_555 1_555
H2 C2 1_555 1_555
C3 C2 1_555 1_555
C4 C3 1_555 1_555
H3 C4 1_555 1_555
C5 C4 1_555 1_555
H4 C5 1_555 1_555
C6 C3 1_555 1_555
C7 Cu1 1_555 1_555
Cu1 N1 1_555 1_555
N1 C1 1_555 1_555
N2 C6 1_555 1_555
H5 N2 1_555 1_555
N3 N2 1_555 1_555
H6 N3 1_555 1_555
H7 N3 1_555 1_555
N4 C7 1_555 1_555
O1 C6 1_555 1_555
Cu1C N3 1_555 1_555
Cu1A N4 1_555 1_555
N3C Cu1 1_555 1_555
H6C N3C 1_555 1_555
H7C N3C 1_555 1_555
N4A Cu1 1_555 1_555
C5 N1 1_555 1_555

#END
