
#######################################################################
#
#                 Cambridge Crystallographic Data Centre
#                                CCDC 
#
#######################################################################
#
# If this CIF has been generated from an entry in the Cambridge 
# Structural Database, then it will include bibliographic, chemical, 
# crystal, experimental, refinement or atomic coordinate data resulting 
# from the CCDC's data processing and validation procedures.
#
#######################################################################

data_COYMAG
_symmetry_cell_setting           monoclinic
_symmetry_space_group_name_H-M   'P 21/c'
_symmetry_Int_Tables_number      14
_space_group_name_Hall           '-P 2ybc'
loop_
_symmetry_equiv_pos_site_id
_symmetry_equiv_pos_as_xyz
1 x,y,z
2 -x,1/2+y,1/2-z
3 -x,-y,-z
4 x,1/2-y,1/2+z
_cell_length_a                   8.4840(9)
_cell_length_b                   16.4913(17)
_cell_length_c                   14.9234(16)
_cell_angle_alpha                90
_cell_angle_beta                 95.8870(10)
_cell_angle_gamma                90
_cell_volume                     2076.95
loop_
_atom_site_label
_atom_site_type_symbol
_atom_site_fract_x
_atom_site_fract_y
_atom_site_fract_z
Zn1 Zn 1.02991(3) 0.246666(15) 0.529226(16)
S1 S 1.62251(9) 0.20057(5) 0.78543(6)
O1 O 1.1092(2) 0.21204(10) 0.65220(11)
O2 O 1.1174(2) 0.32577(11) 0.73464(12)
O3 O 1.3056(5) 0.25246(14) 1.00484(15)
O4 O 1.1122(3) 0.22240(14) 0.90412(19)
N1 N 0.9151(2) 0.14670(11) 0.47800(12)
N2 N 0.8631(2) 0.04378(11) 0.38363(12)
N3 N 0.8791(2) 0.16152(11) 0.04908(12)
N4 N 0.7280(2) 0.08537(11) 0.12851(12)
C1 C 1.2554(5) 0.23599(16) 0.9262(2)
C2 C 1.3682(3) 0.22990(13) 0.85665(15)
C3 C 1.5238(3) 0.21334(17) 0.87785(18)
H1 H 1.5715 0.2094 0.9366
C4 C 1.4544(3) 0.21791(16) 0.71549(17)
H2 H 1.4500 0.2171 0.6530
C5 C 1.3276(3) 0.23311(12) 0.76147(14)
C6 C 1.1710(3) 0.25956(14) 0.71402(15)
C7 C 0.8289(3) 0.08871(14) 0.52018(15)
C8 C 0.7800(3) 0.08752(16) 0.60622(16)
H3 H 0.8000 0.1308 0.6457
C9 C 0.7005(3) 0.01920(18) 0.63057(17)
H4 H 0.6662 0.0167 0.6877
C10 C 0.6703(3) -0.04612(16) 0.57215(18)
H5 H 0.6166 -0.0910 0.5914
C11 C 0.7177(3) -0.04592(14) 0.48688(17)
H6 H 0.6981 -0.0896 0.4479
C12 C 0.7966(3) 0.02315(13) 0.46204(14)
C13 C 0.9316(3) 0.11645(14) 0.39735(15)
H7 H 0.9853 0.1430 0.3546
C14 C 0.8654(3) -0.00654(14) 0.30306(15)
H8 H 0.9053 -0.0599 0.3207
H9 H 0.9378 0.0172 0.2642
C15 C 0.7041(3) -0.01534(15) 0.25075(16)
H10 H 0.6296 -0.0329 0.2920
H11 H 0.7099 -0.0579 0.2063
C16 C 0.6388(3) 0.06041(15) 0.20281(16)
H12 H 0.5295 0.0508 0.1795
H13 H 0.6398 0.1044 0.2461
C17 C 0.7441(3) 0.04259(13) 0.04952(14)
C18 C 0.6886(3) -0.03263(14) 0.01883(16)
H14 H 0.6247 -0.0644 0.0518
C19 C 0.7330(3) -0.05772(15) -0.06277(17)
H15 H 0.6991 -0.1081 -0.0852
C20 C 0.8272(3) -0.00996(16) -0.11271(16)
H16 H 0.8543 -0.0293 -0.1676
C21 C 0.8815(3) 0.06526(15) -0.08312(16)
H17 H 0.9434 0.0972 -0.1171
C22 C 0.8392(3) 0.09102(13) -0.00010(14)
C23 C 0.8112(3) 0.15432(14) 0.12417(15)
H18 H 0.8200 0.1931 0.1697
Zn1C Zn 1.02991(3) 0.253334(15) 0.029226(16)
Zn1C_2 Zn 1.02991(3) 0.253334(15) 1.029226(16)
O3C O 1.3056(5) 0.24754(14) 0.50484(15)
O4C O 1.1122(3) 0.27760(14) 0.40412(19)
N3C N 0.8791(2) 0.33848(11) 0.54908(12)
loop_
_geom_bond_atom_site_label_1
_geom_bond_atom_site_label_2
_geom_bond_site_symmetry_1
_geom_bond_site_symmetry_2
Zn1 O1 1_555 1_555
S1 C3 1_555 1_555
O1 C6 1_555 1_555
O2 C6 1_555 1_555
O3 C1 1_555 1_555
O4 C1 1_555 1_555
N1 Zn1 1_555 1_555
N2 C12 1_555 1_555
N3 C22 1_555 1_555
N4 C16 1_555 1_555
C1 C2 1_555 1_555
C2 C3 1_555 1_555
C3 H1 1_555 1_555
C4 S1 1_555 1_555
H2 C4 1_555 1_555
C5 C2 1_555 1_555
C6 C5 1_555 1_555
C7 N1 1_555 1_555
C8 C7 1_555 1_555
H3 C8 1_555 1_555
C9 C8 1_555 1_555
H4 C9 1_555 1_555
C10 C9 1_555 1_555
H5 C10 1_555 1_555
C11 C10 1_555 1_555
H6 C11 1_555 1_555
C12 C7 1_555 1_555
C13 N1 1_555 1_555
H7 C13 1_555 1_555
C14 N2 1_555 1_555
H8 C14 1_555 1_555
H9 C14 1_555 1_555
C15 C14 1_555 1_555
H10 C15 1_555 1_555
H11 C15 1_555 1_555
C16 C15 1_555 1_555
H12 C16 1_555 1_555
H13 C16 1_555 1_555
C17 N4 1_555 1_555
C18 C17 1_555 1_555
H14 C18 1_555 1_555
C19 C18 1_555 1_555
H15 C19 1_555 1_555
C20 C19 1_555 1_555
H16 C20 1_555 1_555
C21 C20 1_555 1_555
H17 C21 1_555 1_555
C22 C17 1_555 1_555
C23 N3 1_555 1_555
H18 C23 1_555 1_555
Zn1C N3 1_555 1_555
Zn1C_2 O3 1_555 1_555
O3C Zn1 1_555 1_555
O4C Zn1 1_555 1_555
N3C Zn1 1_555 1_555
O4 Zn1C_2 1_555 1_555
N2 C13 1_555 1_555
N4 C23 1_555 1_555
C4 C5 1_555 1_555
C11 C12 1_555 1_555
C21 C22 1_555 1_555

#END
