
#######################################################################
#
#                 Cambridge Crystallographic Data Centre
#                                CCDC 
#
#######################################################################
#
# If this CIF has been generated from an entry in the Cambridge 
# Structural Database, then it will include bibliographic, chemical, 
# crystal, experimental, refinement or atomic coordinate data resulting 
# from the CCDC's data processing and validation procedures.
#
#######################################################################

data_COYMOU
_symmetry_cell_setting           monoclinic
_symmetry_space_group_name_H-M   'P 21/c'
_symmetry_Int_Tables_number      14
_space_group_name_Hall           '-P 2ybc'
loop_
_symmetry_equiv_pos_site_id
_symmetry_equiv_pos_as_xyz
1 x,y,z
2 -x,1/2+y,1/2-z
3 -x,-y,-z
4 x,1/2-y,1/2+z
_cell_length_a                   8.3064(4)
_cell_length_b                   14.7299(7)
_cell_length_c                   17.7972(8)
_cell_angle_alpha                90
_cell_angle_beta                 100.039(2)
_cell_angle_gamma                90
_cell_volume                     2144.19
loop_
_atom_site_label
_atom_site_type_symbol
_atom_site_fract_x
_atom_site_fract_y
_atom_site_fract_z
Co1 Co 0.30342(5) 0.37516(2) 0.14329(2)
C1 C 0.0911(4) 0.37766(16) 0.38542(15)
C2 C 0.0378(4) 0.36401(16) 0.30772(15)
C3 C 0.1467(4) 0.36974(17) 0.24873(17)
C4 C 0.2173(4) 0.55764(19) 0.38344(16)
H1 H 0.1040 0.5534 0.3772
C5 C 0.2921(4) 0.64046(18) 0.37539(16)
H2 H 0.2280 0.6920 0.3637
C6 C 0.3133(4) 0.48196(18) 0.40083(14)
C7 C 0.4802(4) 0.48720(19) 0.40967(16)
H3 H 0.5436 0.4354 0.4213
C8 C 0.3631(4) 0.54539(18) 0.06649(16)
C9 C 0.4597(4) 0.64767(18) 0.38436(14)
C10 C 0.4280(4) 0.6293(2) 0.0537(2)
H4 H 0.4091 0.6546 0.0051
C11 C 0.2619(4) 0.49070(18) 0.00683(16)
C12 C -0.1729(5) 0.3439(2) 0.4116(2)
H5 H -0.2425 0.3353 0.4467
C13 C -0.0128(4) 0.36733(19) 0.43714(17)
H6 H 0.0252 0.3761 0.4889
C14 C -0.1263(4) 0.34352(19) 0.28392(17)
H7 H -0.1665 0.3367 0.2321
C15 C 0.5457(5) 0.6370(2) 0.1847(2)
H8 H 0.6062 0.6675 0.2259
C16 C 0.4801(4) 0.5532(2) 0.19437(18)
H9 H 0.4983 0.5272 0.2427
C17 C 0.5542(4) 0.56978(19) 0.40124(15)
H10 H 0.6674 0.5733 0.4069
C18 C -0.2313(4) 0.3331(2) 0.3358(2)
H11 H -0.3407 0.3189 0.3190
C19 C 0.1220(4) 0.3557(2) -0.01893(19)
H12 H 0.0904 0.2999 -0.0018
C20 C 0.5208(4) 0.6750(2) 0.1135(2)
H13 H 0.5661 0.7312 0.1056
O1 O 0.0786(3) 0.37570(15) 0.18003(12)
N1 N 0.3912(3) 0.50754(15) 0.13685(13)
N2 N 0.2163(3) 0.40934(15) 0.03026(13)
C21 C 0.5428(5) 0.7350(2) 0.37508(15)
O2 O 0.4641(3) 0.80846(13) 0.36583(11)
O3 O 0.6954(3) 0.73490(13) 0.37620(12)
O4 O 0.2532(2) 0.39714(12) 0.41483(10)
O5 O 0.2996(3) 0.36612(14) 0.26608(11)
C22 C 0.0687(5) 0.3789(2) -0.09433(19)
H14 H 0.0026 0.3399 -0.1274
C23 C 0.1163(5) 0.4606(3) -0.11869(19)
H15 H 0.0839 0.4778 -0.1694
C24 C 0.2124(4) 0.5183(2) -0.06844(18)
H16 H 0.2435 0.5746 -0.0847
Co1A Co 0.69658(5) 0.87516(2) 0.35671(2)
O2A O 0.5359(3) 0.30846(13) 0.13417(11)
O3A O 0.3046(3) 0.23490(13) 0.12380(12)
loop_
_geom_bond_atom_site_label_1
_geom_bond_atom_site_label_2
_geom_bond_site_symmetry_1
_geom_bond_site_symmetry_2
Co1 O1 1_555 1_555
C1 C2 1_555 1_555
C2 C3 1_555 1_555
C3 O1 1_555 1_555
C4 H1 1_555 1_555
C5 C4 1_555 1_555
H2 C5 1_555 1_555
C6 C4 1_555 1_555
C7 C6 1_555 1_555
H3 C7 1_555 1_555
C8 C10 1_555 1_555
C9 C5 1_555 1_555
C10 H4 1_555 1_555
C11 C8 1_555 1_555
C12 H5 1_555 1_555
C13 C1 1_555 1_555
H6 C13 1_555 1_555
C14 C2 1_555 1_555
H7 C14 1_555 1_555
C15 H8 1_555 1_555
C16 C15 1_555 1_555
H9 C16 1_555 1_555
C17 C7 1_555 1_555
H10 C17 1_555 1_555
C18 C12 1_555 1_555
H11 C18 1_555 1_555
C19 H12 1_555 1_555
C20 C10 1_555 1_555
H13 C20 1_555 1_555
N1 Co1 1_555 1_555
N2 Co1 1_555 1_555
C21 C9 1_555 1_555
O2 C21 1_555 1_555
O3 C21 1_555 1_555
O4 C1 1_555 1_555
O5 Co1 1_555 1_555
C22 C19 1_555 1_555
H14 C22 1_555 1_555
C23 C22 1_555 1_555
H15 C23 1_555 1_555
C24 C11 1_555 1_555
H16 C24 1_555 1_555
Co1A O2 1_555 1_555
O2A Co1 1_555 1_555
O3A Co1 1_555 1_555
C3 O5 1_555 1_555
C6 O4 1_555 1_555
C8 N1 1_555 1_555
C9 C17 1_555 1_555
C11 N2 1_555 1_555
C12 C13 1_555 1_555
C14 C18 1_555 1_555
C15 C20 1_555 1_555
C16 N1 1_555 1_555
C19 N2 1_555 1_555
O3 Co1A 1_555 1_555
C23 C24 1_555 1_555

#END
