
#######################################################################
#
#                 Cambridge Crystallographic Data Centre
#                                CCDC 
#
#######################################################################
#
# If this CIF has been generated from an entry in the Cambridge 
# Structural Database, then it will include bibliographic, chemical, 
# crystal, experimental, refinement or atomic coordinate data resulting 
# from the CCDC's data processing and validation procedures.
#
#######################################################################

data_COYMIO
_symmetry_cell_setting           monoclinic
_symmetry_space_group_name_H-M   'C c'
_symmetry_Int_Tables_number      9
_space_group_name_Hall           'C -2yc'
loop_
_symmetry_equiv_pos_site_id
_symmetry_equiv_pos_as_xyz
1 x,y,z
2 x,-y,1/2+z
3 1/2+x,1/2+y,z
4 1/2+x,1/2-y,1/2+z
_cell_length_a                   24.3807(17)
_cell_length_b                   10.1541(6)
_cell_length_c                   8.8260(5)
_cell_angle_alpha                90
_cell_angle_beta                 108.725(2)
_cell_angle_gamma                90
_cell_volume                     2069.35
loop_
_atom_site_label
_atom_site_type_symbol
_atom_site_fract_x
_atom_site_fract_y
_atom_site_fract_z
N1 N 0.7839(3) 0.8315(6) 0.5802(8)
N2 N 0.7116(3) 0.7525(6) 0.2953(8)
O1 O 0.6908(3) 0.6022(6) 0.5616(8)
O2 O 0.6603(3) 0.6961(7) 0.7454(8)
O3 O 0.3342(3) 0.8794(5) 0.8802(8)
O4 O 0.3289(2) 1.0637(5) 0.7357(6)
O5 O 0.5529(3) 0.7951(7) 0.6492(8)
Mn1 Mn 0.76724(5) 0.61846(9) 0.49752(9)
O6 O 0.7596(2) 0.4112(5) 0.4303(6)
H1 H 0.7753 0.3983 0.3583
H2 H 0.7240 0.3910 0.3918
C1 C 0.6524(3) 0.6569(7) 0.6077(10)
C2 C 0.5921(4) 0.6601(7) 0.4869(10)
C3 C 0.5445(4) 0.7249(9) 0.5105(10)
C4 C 0.4905(4) 0.7175(10) 0.3935(10)
H3 H 0.4591 0.7591 0.4108
C5 C 0.4825(4) 0.6503(9) 0.2530(11)
H4 H 0.4461 0.6474 0.1759
C6 C 0.5289(4) 0.5867(10) 0.2262(12)
H5 H 0.5240 0.5415 0.1311
C7 C 0.5820(4) 0.5913(8) 0.3418(11)
H6 H 0.6127 0.5472 0.3239
C8 C 0.3516(3) 0.9542(7) 0.7916(8)
C9 C 0.4058(3) 0.9139(7) 0.7577(9)
C10 C 0.4314(4) 0.7931(8) 0.8080(10)
H7 H 0.4155 0.7378 0.8670
C11 C 0.4804(4) 0.7526(9) 0.7722(12)
H8 H 0.4970 0.6707 0.8054
C12 C 0.5035(3) 0.8358(9) 0.6870(10)
C13 C 0.4814(4) 0.9600(9) 0.6429(10)
H9 H 0.4993 1.0169 0.5907
C14 C 0.4323(3) 0.9995(8) 0.6768(10)
H10 H 0.4168 1.0827 0.6461
C15 C 0.8249(5) 0.8688(10) 0.7096(13)
H11 H 0.8469 0.8038 0.7760
C16 C 0.8376(5) 0.9987(10) 0.7536(13)
H12 H 0.8667 1.0204 0.8479
C17 C 0.8055(4) 1.0962(9) 0.6521(13)
H13 H 0.8138 1.1850 0.6740
C18 C 0.7611(5) 1.0568(8) 0.5180(13)
H14 H 0.7379 1.1196 0.4504
C19 C 0.7511(3) 0.9272(7) 0.4848(10)
C20 C 0.7065(4) 0.8789(8) 0.3345(11)
C21 C 0.6630(4) 0.9613(9) 0.2388(12)
H15 H 0.6586 1.0469 0.2707
C22 C 0.6272(4) 0.9127(11) 0.0974(12)
H16 H 0.5987 0.9665 0.0309
C23 C 0.6330(4) 0.7842(9) 0.0516(11)
H17 H 0.6094 0.7510 -0.0457
C24 C 0.6750(4) 0.7077(8) 0.1562(10)
H18 H 0.6783 0.6203 0.1291
O3C O 0.8342(3) 0.6206(5) 0.3802(8)
O4B O 0.8289(2) 0.5637(5) 0.7357(6)
Mn1B Mn 0.26724(5) 1.11846(9) 0.49752(9)
Mn1C Mn 0.26724(5) 0.88154(9) 0.99752(9)
loop_
_geom_bond_atom_site_label_1
_geom_bond_atom_site_label_2
_geom_bond_site_symmetry_1
_geom_bond_site_symmetry_2
N1 Mn1 1_555 1_555
N2 Mn1 1_555 1_555
O1 Mn1 1_555 1_555
O2 C1 1_555 1_555
O3 C8 1_555 1_555
O4 C8 1_555 1_555
O5 C3 1_555 1_555
Mn1 O6 1_555 1_555
O6 H1 1_555 1_555
H2 O6 1_555 1_555
C1 O1 1_555 1_555
C2 C1 1_555 1_555
C3 C2 1_555 1_555
C4 C3 1_555 1_555
H3 C4 1_555 1_555
C5 C4 1_555 1_555
H4 C5 1_555 1_555
C6 C5 1_555 1_555
H5 C6 1_555 1_555
C7 C2 1_555 1_555
H6 C7 1_555 1_555
C8 C9 1_555 1_555
C9 C10 1_555 1_555
C10 H7 1_555 1_555
C11 C10 1_555 1_555
H8 C11 1_555 1_555
C12 O5 1_555 1_555
C13 C12 1_555 1_555
H9 C13 1_555 1_555
C14 C9 1_555 1_555
H10 C14 1_555 1_555
C15 N1 1_555 1_555
H11 C15 1_555 1_555
C16 C15 1_555 1_555
H12 C16 1_555 1_555
C17 C16 1_555 1_555
H13 C17 1_555 1_555
C18 C17 1_555 1_555
H14 C18 1_555 1_555
C19 N1 1_555 1_555
C20 N2 1_555 1_555
C21 C20 1_555 1_555
H15 C21 1_555 1_555
C22 C21 1_555 1_555
H16 C22 1_555 1_555
C23 C22 1_555 1_555
H17 C23 1_555 1_555
C24 N2 1_555 1_555
H18 C24 1_555 1_555
O3C Mn1 1_555 1_555
O4B Mn1 1_555 1_555
Mn1B O4 1_555 1_555
Mn1C O3 1_555 1_555
C6 C7 1_555 1_555
C11 C12 1_555 1_555
C13 C14 1_555 1_555
C18 C19 1_555 1_555
C19 C20 1_555 1_555
C23 C24 1_555 1_555

#END
