
#######################################################################
#
#                 Cambridge Crystallographic Data Centre
#                                CCDC 
#
#######################################################################
#
# If this CIF has been generated from an entry in the Cambridge 
# Structural Database, then it will include bibliographic, chemical, 
# crystal, experimental, refinement or atomic coordinate data resulting 
# from the CCDC's data processing and validation procedures.
#
#######################################################################

data_COYNEL01
_symmetry_cell_setting           monoclinic
_symmetry_space_group_name_H-M   'P 21/c'
_symmetry_Int_Tables_number      14
_space_group_name_Hall           '-P 2ybc'
loop_
_symmetry_equiv_pos_site_id
_symmetry_equiv_pos_as_xyz
1 x,y,z
2 -x,1/2+y,1/2-z
3 -x,-y,-z
4 x,1/2-y,1/2+z
_cell_length_a                   10.0668(5)
_cell_length_b                   22.0695(8)
_cell_length_c                   12.1783(7)
_cell_angle_alpha                90
_cell_angle_beta                 124.340(2)
_cell_angle_gamma                90
_cell_volume                     2234.06
loop_
_atom_site_label
_atom_site_type_symbol
_atom_site_fract_x
_atom_site_fract_y
_atom_site_fract_z
Co1 Co 0.44339(5) 0.062552(17) 0.29151(4)
N1 N 0.2657(3) -0.00563(10) 0.1770(2)
N2 N 0.4070(3) 0.07266(10) 0.1062(2)
O1 O 0.4172(3) 0.06879(9) 0.4537(2)
O2 O 0.2797(3) 0.13264(9) 0.2890(2)
O3 O -0.3823(3) 0.37144(9) -0.1186(2)
O4 O -0.1577(3) 0.42685(11) -0.0032(3)
O5 O 0.0696(3) 0.19000(9) 0.3505(2)
O6 O 0.6131(3) -0.00629(8) 0.3704(2)
H1 H 0.5946 -0.0293 0.4163
H2 H 0.7055 0.0095 0.4236
C1 C 0.3406(4) 0.11834(13) 0.4078(3)
C2 C 0.3438(4) 0.16165(12) 0.5036(3)
C3 C 0.2174(4) 0.19995(13) 0.4707(3)
C4 C 0.2334(5) 0.24358(14) 0.5584(4)
H3 H 0.1471 0.2686 0.5353
C5 C 0.3772(5) 0.25007(15) 0.6803(4)
H4 H 0.3889 0.2801 0.7386
C6 C 0.5037(5) 0.21200(15) 0.7157(3)
H5 H 0.6008 0.2162 0.7982
C7 C 0.4862(4) 0.16770(14) 0.6290(3)
H6 H 0.5711 0.1414 0.6546
C8 C -0.2353(4) 0.37895(15) -0.0261(3)
C9 C -0.1513(4) 0.32671(14) 0.0681(3)
C10 C -0.2365(4) 0.27805(14) 0.0696(3)
H7 H -0.3465 0.2754 0.0052
C11 C -0.1611(4) 0.23314(14) 0.1650(3)
H8 H -0.2199 0.2009 0.1660
C12 C 0.0027(4) 0.23683(14) 0.2588(3)
C13 C 0.0910(4) 0.28368(15) 0.2569(3)
H9 H 0.2018 0.2853 0.3189
C14 C 0.0129(4) 0.32849(15) 0.1616(3)
H10 H 0.0723 0.3605 0.1604
C15 C 0.1975(4) -0.04451(14) 0.2130(3)
H11 H 0.2191 -0.0411 0.2977
C16 C 0.0943(4) -0.09059(15) 0.1300(4)
H12 H 0.0495 -0.1171 0.1599
C17 C 0.0594(4) -0.09646(14) 0.0047(4)
H13 H -0.0093 -0.1269 -0.0514
C18 C 0.1288(4) -0.05585(13) -0.0383(3)
C19 C 0.2327(4) -0.01143(12) 0.0527(3)
C20 C 0.3073(3) 0.03078(13) 0.0137(3)
C21 C 0.2775(4) 0.02762(14) -0.1133(3)
C22 C 0.3572(4) 0.07001(15) -0.1427(3)
H14 H 0.3417 0.0696 -0.2255
C23 C 0.4573(4) 0.11171(15) -0.0498(3)
H15 H 0.5107 0.1397 -0.0688
C24 C 0.4792(4) 0.11219(13) 0.0736(3)
H16 H 0.5469 0.1412 0.1357
C25 C 0.0999(4) -0.05780(15) -0.1673(3)
H17 H 0.0310 -0.0871 -0.2276
C26 C 0.1702(4) -0.01811(16) -0.2034(3)
H18 H 0.1488 -0.0204 -0.2883
Co1C Co -0.55661(5) 0.437448(17) -0.20849(4)
O3C O 0.6177(3) 0.12856(9) 0.3814(2)
loop_
_geom_bond_atom_site_label_1
_geom_bond_atom_site_label_2
_geom_bond_site_symmetry_1
_geom_bond_site_symmetry_2
Co1 N1 1_555 1_555
N1 C15 1_555 1_555
N2 Co1 1_555 1_555
O1 Co1 1_555 1_555
O2 Co1 1_555 1_555
O3 C8 1_555 1_555
O4 C8 1_555 1_555
O5 C3 1_555 1_555
O6 Co1 1_555 1_555
H1 O6 1_555 1_555
H2 O6 1_555 1_555
C1 O1 1_555 1_555
C2 C1 1_555 1_555
C3 C2 1_555 1_555
C4 C3 1_555 1_555
H3 C4 1_555 1_555
C5 C4 1_555 1_555
H4 C5 1_555 1_555
C6 C5 1_555 1_555
H5 C6 1_555 1_555
C7 C2 1_555 1_555
H6 C7 1_555 1_555
C8 C9 1_555 1_555
C9 C10 1_555 1_555
C10 H7 1_555 1_555
C11 C10 1_555 1_555
H8 C11 1_555 1_555
C12 O5 1_555 1_555
C13 C12 1_555 1_555
H9 C13 1_555 1_555
C14 C9 1_555 1_555
H10 C14 1_555 1_555
C15 H11 1_555 1_555
C16 C15 1_555 1_555
H12 C16 1_555 1_555
C17 C16 1_555 1_555
H13 C17 1_555 1_555
C18 C17 1_555 1_555
C19 N1 1_555 1_555
C20 N2 1_555 1_555
C21 C20 1_555 1_555
C22 C21 1_555 1_555
H14 C22 1_555 1_555
C23 C22 1_555 1_555
H15 C23 1_555 1_555
C24 N2 1_555 1_555
H16 C24 1_555 1_555
C25 C18 1_555 1_555
H17 C25 1_555 1_555
C26 C21 1_555 1_555
H18 C26 1_555 1_555
Co1C O3 1_555 1_555
O3C Co1 1_555 1_555
O2 C1 1_555 1_555
C6 C7 1_555 1_555
C11 C12 1_555 1_555
C13 C14 1_555 1_555
C18 C19 1_555 1_555
C19 C20 1_555 1_555
C23 C24 1_555 1_555
C25 C26 1_555 1_555

#END
