
#######################################################################
#
#                 Cambridge Crystallographic Data Centre
#                                CCDC 
#
#######################################################################
#
# If this CIF has been generated from an entry in the Cambridge 
# Structural Database, then it will include bibliographic, chemical, 
# crystal, experimental, refinement or atomic coordinate data resulting 
# from the CCDC's data processing and validation procedures.
#
#######################################################################

data_COYNOV
_symmetry_cell_setting           monoclinic
_symmetry_space_group_name_H-M   'P 21/n'
_symmetry_Int_Tables_number      14
_space_group_name_Hall           '-P 2yn'
loop_
_symmetry_equiv_pos_site_id
_symmetry_equiv_pos_as_xyz
1 x,y,z
2 1/2-x,1/2+y,1/2-z
3 -x,-y,-z
4 1/2+x,1/2-y,1/2+z
_cell_length_a                   12.060(4)
_cell_length_b                   8.493(3)
_cell_length_c                   15.776(5)
_cell_angle_alpha                90
_cell_angle_beta                 93.235(3)
_cell_angle_gamma                90
_cell_volume                     1613.29
loop_
_atom_site_label
_atom_site_type_symbol
_atom_site_fract_x
_atom_site_fract_y
_atom_site_fract_z
Pr1 Pr 0.45761(3) 0.67366(4) 0.09331(2)
Pr2 Pr 0.52073(3) 1.16843(4) 0.39891(2)
K1 K 0.75102(15) 0.8525(3) -0.14959(14)
K2 K 0.7409(2) 0.7078(3) 0.2332(2)
O1 O 0.5838(4) 0.5584(6) 0.2125(3)
O2 O 0.3886(4) 0.4294(5) 0.1640(3)
O3 O 0.6150(4) 0.3715(6) 0.3099(3)
O4 O 0.4172(4) 0.2400(5) 0.2614(3)
O5 O 0.6122(3) 0.5034(5) 0.0319(3)
O6 O 0.5555(5) 0.8144(5) -0.0211(3)
O7 O 0.5839(4) 0.8727(5) 0.1688(3)
O8 O 0.3881(4) 0.7769(6) 0.2269(3)
O9 O 0.6118(4) 1.0255(6) 0.2831(3)
O10 O 0.4159(4) 0.9345(5) 0.3402(3)
O11 O 0.7598(4) 0.6437(5) 0.0834(3)
O12 O 0.7490(4) 0.3372(5) -0.0631(3)
O13 O 0.8959(4) 0.4447(5) 0.0081(3)
O14 O 0.6140(4) 1.0545(6) -0.0572(4)
O15 O 0.5890(4) 1.3398(5) 0.5178(3)
O16 O 0.5800(4) 1.5682(5) 0.5880(3)
O17 O 0.7425(8) 0.6495(9) 0.3807(5)
H1 H 0.7529 0.6894 0.4299
H2 H 0.7169 0.5571 0.3866
C1 C 0.4436(5) 0.3626(8) 0.2229(4)
C2 C 0.5575(5) 0.4382(7) 0.2514(4)
C3 C 0.7155(5) 0.5362(7) 0.0406(4)
C4 C 0.7914(5) 0.4294(7) -0.0093(4)
C5 C 0.5488(5) 0.9622(8) -0.0226(4)
C6 C 0.5555(5) 0.9312(7) 0.2371(4)
C7 C 0.4425(5) 0.8770(7) 0.2708(4)
C8 C 0.5489(5) 1.4739(7) 0.5308(4)
O6B O 0.4445(5) 1.1856(5) 0.0211(3)
O14B O 0.3860(4) 0.9455(6) 0.0572(4)
C5B C 0.4512(5) 1.0378(8) 0.0226(4)
O15B O 0.4110(4) 1.6602(5) 0.4822(3)
O16B O 0.4200(4) 1.4318(5) 0.4120(3)
C8B C 0.4511(5) 1.5261(7) 0.4692(4)
Pr1B Pr 0.54239(3) 0.32634(4) -0.09331(2)
Pr2B Pr 0.47927(3) -0.16843(4) -0.39891(2)
K1B K 0.24898(15) 0.1475(3) 0.14959(14)
K2B K 0.2591(2) 0.2922(3) -0.2332(2)
O1B O 0.4162(4) 0.4416(6) -0.2125(3)
O2B O 0.6114(4) 0.5706(5) -0.1640(3)
O3B O 0.3850(4) 0.6285(6) -0.3099(3)
O4B O 0.5828(4) 0.7600(5) -0.2614(3)
O5B O 0.3878(3) 0.4966(5) -0.0319(3)
O7B O 0.4161(4) 0.1273(5) -0.1688(3)
O8B O 0.6119(4) 0.2231(6) -0.2269(3)
O9B O 0.3882(4) -0.0255(6) -0.2831(3)
O10B O 0.5841(4) 0.0655(5) -0.3402(3)
O11B O 0.2402(4) 0.3563(5) -0.0834(3)
O12B O 0.2510(4) 0.6628(5) 0.0631(3)
O13B O 0.1041(4) 0.5553(5) -0.0081(3)
O17B O 0.2575(8) 0.3505(9) -0.3807(5)
H1B H 0.2471 0.3106 -0.4299
H2B H 0.2831 0.4429 -0.3866
C1B C 0.5564(5) 0.6374(8) -0.2229(4)
C2B C 0.4425(5) 0.5618(7) -0.2514(4)
C3B C 0.2845(5) 0.4638(7) -0.0406(4)
C4B C 0.2086(5) 0.5706(7) 0.0093(4)
C6B C 0.4445(5) 0.0688(7) -0.2371(4)
C7B C 0.5575(5) 0.1230(7) -0.2708(4)
Pr1B_2 Pr 0.54239(3) 1.32634(4) -0.09331(2)
Pr2_2 Pr 0.52073(3) 0.16843(4) 0.39891(2)
Pr2A Pr -0.02073(3) 0.66843(4) 0.10109(2)
Pr2A_2 Pr 0.97927(3) 0.66843(4) 0.10109(2)
Pr2B_2 Pr 0.47927(3) 0.83157(4) -0.39891(2)
Pr2B_3 Pr 0.47927(3) 1.83157(4) 0.60109(2)
Pr2C Pr 0.02073(3) 0.33157(4) -0.10109(2)
Pr2C_2 Pr 1.02073(3) 0.33157(4) -0.10109(2)
K1A K 0.74898(15) 0.3525(3) -0.35041(14)
K1A_2 K 0.74898(15) 1.3525(3) 0.64959(14)
K1B_2 K 0.24898(15) 1.1475(3) 0.14959(14)
K1C K 0.25102(15) 0.6475(3) 0.35041(14)
K1C_2 K 0.25102(15) 1.6475(3) 0.35041(14)
K2A K 0.7591(2) 0.2078(3) 0.2668(2)
K2A_2 K 0.7591(2) 1.2078(3) 0.2668(2)
K2C K 0.2409(2) -0.2078(3) -0.2668(2)
K2C_2 K 0.2409(2) 0.7922(3) -0.2668(2)
O3_2 O 0.6150(4) 1.3715(6) 0.3099(3)
O3A O 0.8850(4) 0.8715(6) 0.1901(3)
O3B_2 O 0.3850(4) -0.3715(6) -0.3099(3)
O3C O 0.1150(4) 0.1285(6) -0.1901(3)
O4_2 O 0.4172(4) 1.2400(5) 0.2614(3)
O4B_2 O 0.5828(4) -0.2400(5) -0.2614(3)
O6B_2 O 0.4445(5) 0.1856(5) 0.0211(3)
O8A O 0.1119(4) 0.2769(6) 0.2731(3)
O8C O 0.8881(4) 0.7231(6) -0.2731(3)
O9A O 0.8882(4) 0.5255(6) 0.2169(3)
O9C O 0.1118(4) 0.4745(6) -0.2169(3)
O10A O 0.0841(4) 0.4345(5) 0.1598(3)
O10C O 0.9159(4) 0.5655(5) -0.1598(3)
O11A O 0.7402(4) 1.1437(5) 0.4166(3)
O11C O 0.2598(4) -0.1437(5) -0.4166(3)
O13A O 0.6041(4) -0.0553(5) -0.5081(3)
O13A_2 O 0.6041(4) 0.9447(5) 0.4919(3)
O13C O 0.3959(4) 0.0553(5) -0.4919(3)
O13C_2 O 0.3959(4) 1.0553(5) 0.5081(3)
O14_2 O 0.6140(4) 0.0545(6) -0.0572(4)
O14B_2 O 0.3860(4) -0.0545(6) 0.0572(4)
O15A O 0.9110(4) 0.8398(5) -0.0178(3)
O15B_2 O 0.4110(4) -0.3398(5) -0.5178(3)
O15C O 0.0890(4) 0.1602(5) 0.0178(3)
O16_2 O 0.5800(4) -0.4318(5) -0.4120(3)
O16A O 0.9200(4) 1.0682(5) -0.0880(3)
O16C O 0.0800(4) -0.0682(5) 0.0880(3)
loop_
_geom_bond_atom_site_label_1
_geom_bond_atom_site_label_2
_geom_bond_site_symmetry_1
_geom_bond_site_symmetry_2
Pr1 O1 1_555 1_555
Pr2 O9 1_555 1_555
K1 O6 1_555 1_555
K2 O1 1_555 1_555
O1 C2 1_555 1_555
O2 Pr1 1_555 1_555
O3 C2 1_555 1_555
O4 C1 1_555 1_555
O5 Pr1 1_555 1_555
O6 Pr1 1_555 1_555
O7 Pr1 1_555 1_555
O8 Pr1 1_555 1_555
O9 K2 1_555 1_555
O10 Pr2 1_555 1_555
O11 K2 1_555 1_555
O12 C4 1_555 1_555
O13 C4 1_555 1_555
O14 K1 1_555 1_555
O15 Pr2 1_555 1_555
O16 C8 1_555 1_555
O17 K2 1_555 1_555
H1 O17 1_555 1_555
H2 O17 1_555 1_555
C1 O2 1_555 1_555
C2 C1 1_555 1_555
C3 O5 1_555 1_555
C4 C3 1_555 1_555
C5 O6 1_555 1_555
C6 O7 1_555 1_555
C7 O8 1_555 1_555
C8 O15 1_555 1_555
O6B C5B 1_555 1_555
O14B Pr1 1_555 1_555
C5B C5 1_555 1_555
O15B C8B 1_555 1_555
O16B Pr2 1_555 1_555
C8B C8 1_555 1_555
Pr1B O5 1_555 1_555
Pr2B O9B 1_555 1_555
K1B O2 1_555 1_555
K2B O1B 1_555 1_555
O1B Pr1B 1_555 1_555
O2B K1 1_555 1_555
O3B C2B 1_555 1_555
O4B K1 1_555 1_555
O5B Pr1 1_555 1_555
O7B Pr1B 1_555 1_555
O8B Pr1B 1_555 1_555
O9B K2B 1_555 1_555
O10B Pr2B 1_555 1_555
O11B K2B 1_555 1_555
O12B Pr1 1_555 1_555
O13B C4B 1_555 1_555
O17B K2B 1_555 1_555
H1B O17B 1_555 1_555
H2B O17B 1_555 1_555
C1B O2B 1_555 1_555
C2B O1B 1_555 1_555
C3B O5B 1_555 1_555
C4B O12B 1_555 1_555
C6B O7B 1_555 1_555
C7B O8B 1_555 1_555
Pr1B_2 O14 1_555 1_555
Pr2_2 O3 1_555 1_555
Pr2A O13B 1_555 1_555
Pr2A_2 O11 1_555 1_555
Pr2B_2 O3B 1_555 1_555
Pr2B_3 O16 1_555 1_555
Pr2C O11B 1_555 1_555
Pr2C_2 O13 1_555 1_555
K1A O8B 1_555 1_555
K1A_2 O15 1_555 1_555
K1B_2 O6B 1_555 1_555
K1C O8 1_555 1_555
K1C_2 O15B 1_555 1_555
K2A O3 1_555 1_555
K2A_2 O9 1_555 1_555
K2C O9B 1_555 1_555
K2C_2 O3B 1_555 1_555
O3_2 Pr2 1_555 1_555
O3A K2 1_555 1_555
O3B_2 Pr2B 1_555 1_555
O3C K2B 1_555 1_555
O4_2 Pr2 1_555 1_555
O4B_2 Pr2B 1_555 1_555
O6B_2 Pr1B 1_555 1_555
O8A K1B 1_555 1_555
O8C K1 1_555 1_555
O9A K2 1_555 1_555
O9C K2B 1_555 1_555
O10A K1B 1_555 1_555
O10C K1 1_555 1_555
O11A Pr2 1_555 1_555
O11C Pr2B 1_555 1_555
O13A Pr2B 1_555 1_555
O13A_2 Pr2 1_555 1_555
O13C Pr2B 1_555 1_555
O13C_2 Pr2 1_555 1_555
O14_2 Pr1B 1_555 1_555
O14B_2 K1B 1_555 1_555
O15A K1 1_555 1_555
O15B_2 Pr2B 1_555 1_555
O15C K1B 1_555 1_555
O16_2 Pr2B 1_555 1_555
O16A K1 1_555 1_555
O16C K1B 1_555 1_555
K2 O7 1_555 1_555
O4 K1B 1_555 1_555
O4 Pr2_2 1_555 1_555
O9 C6 1_555 1_555
O10 C7 1_555 1_555
O10 K1C 1_555 1_555
O11 C3 1_555 1_555
O12 Pr1B 1_555 1_555
O13 Pr2A_2 1_555 1_555
O14 C5 1_555 1_555
O16 K1A_2 1_555 1_555
C6 C7 1_555 1_555
O6B Pr1B_2 1_555 1_555
O14B C5B 1_555 1_555
O14B K1B_2 1_555 1_555
O15B Pr2B_3 1_555 1_555
O16B C8B 1_555 1_555
O16B K1C_2 1_555 1_555
Pr1B O2B 1_555 1_555
Pr1B O5B 1_555 1_555
K1B O6B_2 1_555 1_555
K2B O7B 1_555 1_555
O4B C1B 1_555 1_555
O4B Pr2B_2 1_555 1_555
O9B C6B 1_555 1_555
O10B C7B 1_555 1_555
O10B K1A 1_555 1_555
O11B C3B 1_555 1_555
O13B Pr2C 1_555 1_555
C1B C2B 1_555 1_555
C3B C4B 1_555 1_555
C6B C7B 1_555 1_555
Pr2A O10A 1_555 1_555
Pr2A_2 O3A 1_555 1_555
Pr2A_2 O9A 1_555 1_555
Pr2A_2 O15A 1_555 1_555
Pr2C O3C 1_555 1_555
Pr2C O9C 1_555 1_555
Pr2C O15C 1_555 1_555
Pr2C_2 O10C 1_555 1_555
K1B_2 O4_2 1_555 1_555
K2A O9A 1_555 1_555
K2A_2 O3_2 1_555 1_555
K2A_2 O11A 1_555 1_555
K2C O3B_2 1_555 1_555
K2C O11C 1_555 1_555
K2C_2 O9C 1_555 1_555

#END
