
#######################################################################
#
#                 Cambridge Crystallographic Data Centre
#                                CCDC 
#
#######################################################################
#
# If this CIF has been generated from an entry in the Cambridge 
# Structural Database, then it will include bibliographic, chemical, 
# crystal, experimental, refinement or atomic coordinate data resulting 
# from the CCDC's data processing and validation procedures.
#
#######################################################################

data_COYNEL
_symmetry_cell_setting           monoclinic
_symmetry_space_group_name_H-M   'P 21/n'
_symmetry_Int_Tables_number      14
_space_group_name_Hall           '-P 2yn'
loop_
_symmetry_equiv_pos_site_id
_symmetry_equiv_pos_as_xyz
1 x,y,z
2 1/2-x,1/2+y,1/2-z
3 -x,-y,-z
4 1/2+x,1/2-y,1/2+z
_cell_length_a                   10.0474(9)
_cell_length_b                   22.0489(19)
_cell_length_c                   10.5240(9)
_cell_angle_alpha                90
_cell_angle_beta                 107.6010(10)
_cell_angle_gamma                90
_cell_volume                     2222.28
loop_
_atom_site_label
_atom_site_type_symbol
_atom_site_fract_x
_atom_site_fract_y
_atom_site_fract_z
Co1 Co 0.84787(5) 0.93755(2) 0.79153(4)
N1 N 0.6987(3) 0.92750(12) 0.6061(2)
N2 N 0.9110(3) 1.00552(12) 0.6774(3)
O1 O 0.5363(2) 0.56876(10) 1.4543(2)
O2 O 0.5086(2) 0.63267(10) 1.2887(2)
O3 O 0.7630(3) 0.87149(10) 0.8813(2)
O4 O 0.6543(3) 0.92705(12) 0.9968(3)
O5 O 0.7803(3) 0.69033(10) 1.3501(2)
O6 O 0.7570(2) 1.00635(9) 0.8708(2)
H1 H 0.8215 1.0295 0.9164
H2 H 0.7178 0.9905 0.9238
C1 C 0.5652(3) 0.61836(15) 1.4073(3)
C2 C 0.6597(3) 0.66163(14) 1.5033(3)
C3 C 0.7518(4) 0.69987(16) 1.4702(3)
C4 C 0.8249(4) 0.74354(16) 1.5578(4)
H3 H 0.8889 0.7683 1.5347
C5 C 0.8021(4) 0.75016(17) 1.6798(4)
H4 H 0.8482 0.7806 1.7378
C6 C 0.7121(4) 0.71231(17) 1.7161(4)
H5 H 0.6982 0.7164 1.7991
C7 C 0.6417(4) 0.66779(16) 1.6285(3)
H6 H 0.5816 0.6417 1.6539
C8 C 0.7088(4) 0.87952(18) 0.9737(4)
C9 C 0.7183(4) 0.82714(16) 1.0676(3)
C10 C 0.6474(4) 0.82870(16) 1.1600(3)
H7 H 0.5861 0.8605 1.1583
C11 C 0.6651(4) 0.78386(17) 1.2562(4)
H8 H 0.6161 0.7856 1.3183
C12 C 0.7554(4) 0.73709(16) 1.2585(3)
C13 C 0.8255(4) 0.73358(16) 1.1646(4)
H9 H 0.8856 0.7014 1.1658
C14 C 0.8058(4) 0.77831(16) 1.0686(3)
H10 H 0.8516 0.7757 1.0041
C15 C 0.5947(4) 0.88830(15) 0.5735(3)
H11 H 0.5892 0.8593 0.6360
C16 C 0.4927(4) 0.88834(17) 0.4499(4)
H12 H 0.4205 0.8602 0.4308
C17 C 0.5003(4) 0.93049(18) 0.3570(3)
H13 H 0.4326 0.9312 0.2741
C18 C 0.6095(4) 0.97235(16) 0.3864(3)
C19 C 0.7068(3) 0.96931(15) 0.5140(3)
C20 C 0.8202(3) 1.01140(14) 0.5526(3)
C21 C 0.8328(4) 1.05616(15) 0.4624(3)
C22 C 0.9461(4) 1.09629(16) 0.5053(4)
H14 H 0.9600 1.1263 0.4486
C23 C 1.0351(4) 1.09068(16) 0.6308(4)
H15 H 1.1089 1.1177 0.6615
C24 C 1.0157(4) 1.04419(16) 0.7134(3)
H16 H 1.0796 1.0403 0.7979
C25 C 0.6263(4) 1.01849(18) 0.2974(3)
H17 H 0.5618 1.0215 0.2130
C26 C 0.7335(4) 1.05771(17) 0.3330(3)
H18 H 0.7431 1.0865 0.2719
Co1C Co 0.34787(5) 0.56245(2) 1.29153(4)
O1C O 1.0363(2) 0.93124(10) 0.9543(2)
O2C O 1.0086(2) 0.86733(10) 0.7887(2)
loop_
_geom_bond_atom_site_label_1
_geom_bond_atom_site_label_2
_geom_bond_site_symmetry_1
_geom_bond_site_symmetry_2
Co1 N1 1_555 1_555
N1 C15 1_555 1_555
N2 Co1 1_555 1_555
O1 C1 1_555 1_555
O2 C1 1_555 1_555
O3 Co1 1_555 1_555
O4 C8 1_555 1_555
O5 C3 1_555 1_555
O6 Co1 1_555 1_555
H1 O6 1_555 1_555
H2 O6 1_555 1_555
C1 C2 1_555 1_555
C2 C3 1_555 1_555
C3 C4 1_555 1_555
C4 H3 1_555 1_555
C5 C4 1_555 1_555
H4 C5 1_555 1_555
C6 C5 1_555 1_555
H5 C6 1_555 1_555
C7 C2 1_555 1_555
H6 C7 1_555 1_555
C8 O3 1_555 1_555
C9 C8 1_555 1_555
C10 C9 1_555 1_555
H7 C10 1_555 1_555
C11 C10 1_555 1_555
H8 C11 1_555 1_555
C12 O5 1_555 1_555
C13 C12 1_555 1_555
H9 C13 1_555 1_555
C14 C9 1_555 1_555
H10 C14 1_555 1_555
C15 H11 1_555 1_555
C16 C15 1_555 1_555
H12 C16 1_555 1_555
C17 C16 1_555 1_555
H13 C17 1_555 1_555
C18 C17 1_555 1_555
C19 N1 1_555 1_555
C20 N2 1_555 1_555
C21 C20 1_555 1_555
C22 C21 1_555 1_555
H14 C22 1_555 1_555
C23 C22 1_555 1_555
H15 C23 1_555 1_555
C24 N2 1_555 1_555
H16 C24 1_555 1_555
C25 C18 1_555 1_555
H17 C25 1_555 1_555
C26 C21 1_555 1_555
H18 C26 1_555 1_555
Co1C O1 1_555 1_555
O1C Co1 1_555 1_555
O2C Co1 1_555 1_555
O2 Co1C 1_555 1_555
C6 C7 1_555 1_555
C11 C12 1_555 1_555
C13 C14 1_555 1_555
C18 C19 1_555 1_555
C19 C20 1_555 1_555
C23 C24 1_555 1_555
C25 C26 1_555 1_555

#END
