
#######################################################################
#
#                 Cambridge Crystallographic Data Centre
#                                CCDC 
#
#######################################################################
#
# If this CIF has been generated from an entry in the Cambridge 
# Structural Database, then it will include bibliographic, chemical, 
# crystal, experimental, refinement or atomic coordinate data resulting 
# from the CCDC's data processing and validation procedures.
#
#######################################################################

data_COYTEQ
_symmetry_cell_setting           monoclinic
_symmetry_space_group_name_H-M   'P 21/c'
_symmetry_Int_Tables_number      14
_space_group_name_Hall           '-P 2ybc'
loop_
_symmetry_equiv_pos_site_id
_symmetry_equiv_pos_as_xyz
1 x,y,z
2 -x,1/2+y,1/2-z
3 -x,-y,-z
4 x,1/2-y,1/2+z
_cell_length_a                   12.1200(17)
_cell_length_b                   12.8067(18)
_cell_length_c                   12.3605(17)
_cell_angle_alpha                90
_cell_angle_beta                 114.974(2)
_cell_angle_gamma                90
_cell_volume                     1739.18
loop_
_atom_site_label
_atom_site_type_symbol
_atom_site_fract_x
_atom_site_fract_y
_atom_site_fract_z
La1 La 0.45178(3) 0.54480(3) 0.14630(3)
O1 O 0.4790(3) 0.6970(3) 0.2890(4)
O2 O 0.5600(4) 0.8495(4) 0.3644(4)
O3 O 0.6181(3) 0.5023(3) 0.0753(4)
O4 O 0.7863(4) 0.5425(4) 0.0544(4)
O5 O 1.3011(4) 0.9894(3) 0.7333(4)
O6 O 1.1165(4) 0.9735(4) 0.7322(4)
O7 O 1.4332(3) 0.7853(3) 0.5201(4)
O8 O 1.3038(4) 0.7267(4) 0.3408(4)
H1 H 1.3663 0.7158 0.3322
O9 O 0.5916(4) 0.4772(4) 0.3541(4)
H2 H 0.5884 0.5186 0.4064
H3 H 0.6642 0.4744 0.3605
N1 N 0.6571(4) 0.6561(4) 0.2300(4)
N2 N 1.2474(4) 0.8499(4) 0.5629(4)
C1 C 0.5637(5) 0.7646(5) 0.3219(5)
C2 C 0.7205(5) 0.5520(5) 0.1068(6)
C3 C 1.1920(5) 0.9540(5) 0.6951(5)
C4 C 1.3314(6) 0.7666(5) 0.4455(6)
C5 C 0.6750(5) 0.7326(5) 0.3079(5)
C6 C 0.7881(5) 0.7798(5) 0.3705(5)
H8 H 0.7973 0.8339 0.4238
C7 C 0.8862(5) 0.7445(5) 0.3515(5)
C8 C 0.8651(5) 0.6697(5) 0.2653(5)
H9 H 0.9285 0.6469 0.2477
C9 C 0.7500(5) 0.6282(5) 0.2047(5)
C10 C 1.1566(5) 0.8795(5) 0.5898(5)
C11 C 1.0391(5) 0.8477(5) 0.5246(5)
H10 H 0.9779 0.8684 0.5467
C12 C 1.0115(5) 0.7841(5) 0.4251(5)
C13 C 1.1082(5) 0.7572(5) 0.3969(6)
H11 H 1.0946 0.7164 0.3302
C14 C 1.2226(5) 0.7914(5) 0.4682(5)
La1A La 0.54822(3) 1.04480(3) 0.35370(3)
La1B La 0.54822(3) 0.45520(3) -0.14630(3)
La1C La 1.45178(3) 0.95520(3) 0.64630(3)
O2A O 0.4400(4) 0.3495(4) 0.1356(4)
O3B O 0.3819(3) 0.4977(3) -0.0753(4)
O5C O 0.3011(4) 0.5106(3) 0.2333(4)
O7C O 0.4332(3) 0.7147(3) 0.0201(4)
N2C N 0.2474(4) 0.6501(4) 0.0629(4)
O10 O 0.0788(7) 0.0954(6) 0.8934(6)
H4 H 0.0510 0.0412 0.8507
H5 H 0.1432 0.0797 0.9545
O11 O 0.3648(5) 0.1053(4) 0.9481(4)
H6 H 0.3806 0.1690 0.9417
H7 H 0.3894 0.0678 0.9059
O12 O 0.8386(11) 0.0543(12) 0.9152(15)
O13? O 0.8146(16) 0.0963(19) 0.856(2)
loop_
_geom_bond_atom_site_label_1
_geom_bond_atom_site_label_2
_geom_bond_site_symmetry_1
_geom_bond_site_symmetry_2
La1 O1 1_555 1_555
O1 C1 1_555 1_555
O2 C1 1_555 1_555
O3 La1 1_555 1_555
O4 C2 1_555 1_555
O5 C3 1_555 1_555
O6 C3 1_555 1_555
O7 C4 1_555 1_555
O8 H1 1_555 1_555
O9 La1 1_555 1_555
H2 O9 1_555 1_555
H3 O9 1_555 1_555
O10 H4 1_555 1_555
H5 O10 1_555 1_555
O11 H6 1_555 1_555
H7 O11 1_555 1_555
N1 La1 1_555 1_555
N2 C10 1_555 1_555
C1 C5 1_555 1_555
C2 O3 1_555 1_555
C3 C10 1_555 1_555
C4 O8 1_555 1_555
C5 N1 1_555 1_555
C6 C5 1_555 1_555
H8 C6 1_555 1_555
C7 C6 1_555 1_555
C8 C7 1_555 1_555
H9 C8 1_555 1_555
C9 N1 1_555 1_555
C10 C11 1_555 1_555
C11 H10 1_555 1_555
C12 C7 1_555 1_555
C13 C12 1_555 1_555
H11 C13 1_555 1_555
C14 N2 1_555 1_555
La1A O2 1_555 1_555
La1B O3 1_555 1_555
La1C O5 1_555 1_555
O2A La1 1_555 1_555
O3B La1 1_555 1_555
O5C La1 1_555 1_555
O7C La1 1_555 1_555
N2C La1 1_555 1_555
O7 La1C 1_555 1_555
N2 La1C 1_555 1_555
C2 C9 1_555 1_555
C4 C14 1_555 1_555
C8 C9 1_555 1_555
C11 C12 1_555 1_555
C13 C14 1_555 1_555
La1B O3B 1_555 1_555

#END
