
#######################################################################
#
#                 Cambridge Crystallographic Data Centre
#                                CCDC 
#
#######################################################################
#
# If this CIF has been generated from an entry in the Cambridge 
# Structural Database, then it will include bibliographic, chemical, 
# crystal, experimental, refinement or atomic coordinate data resulting 
# from the CCDC's data processing and validation procedures.
#
#######################################################################

data_COYTIU
_symmetry_cell_setting           monoclinic
_symmetry_space_group_name_H-M   'P 21/c'
_symmetry_Int_Tables_number      14
_space_group_name_Hall           '-P 2ybc'
loop_
_symmetry_equiv_pos_site_id
_symmetry_equiv_pos_as_xyz
1 x,y,z
2 -x,1/2+y,1/2-z
3 -x,-y,-z
4 x,1/2-y,1/2+z
_cell_length_a                   12.134(3)
_cell_length_b                   12.720(4)
_cell_length_c                   12.391(4)
_cell_angle_alpha                90
_cell_angle_beta                 114.777(11)
_cell_angle_gamma                90
_cell_volume                     1736.43
loop_
_atom_site_label
_atom_site_type_symbol
_atom_site_fract_x
_atom_site_fract_y
_atom_site_fract_z
Ce1 Ce 0.455104(12) 0.453391(11) 0.146353(13)
O1 O 0.61902(16) 0.49743(15) 0.07438(17)
O2 O 0.78952(18) 0.45907(16) 0.05599(18)
O3 O 0.47993(16) 0.30067(15) 0.28729(17)
O4 O 0.56182(17) 0.14660(16) 0.36644(18)
O5 O 1.43668(16) 0.21592(15) 0.51919(17)
O6 O 1.30536(19) 0.2722(2) 0.3391(2)
H1 H 1.379(3) 0.278(3) 0.327(3)
O7 O 1.30666(17) 0.01099(15) 0.73614(17)
O8 O 1.12193(19) 0.02571(18) 0.7353(2)
O9 O 0.5915(2) 0.5224(2) 0.3519(2)
H2 H 0.601(4) 0.492(3) 0.408(4)
H3 H 0.655(4) 0.541(3) 0.364(4)
N1 N 0.65882(19) 0.34267(17) 0.2294(2)
N2 N 1.25167(19) 0.15019(18) 0.5649(2)
C1 C 0.7215(2) 0.4488(2) 0.1057(2)
C2 C 0.5651(2) 0.2325(2) 0.3228(2)
C3 C 1.3330(2) 0.2340(2) 0.4437(3)
C4 C 1.1982(2) 0.0460(2) 0.6973(2)
C5 C 0.7521(2) 0.3716(2) 0.2052(2)
C6 C 0.8678(2) 0.3308(2) 0.2650(2)
H8 H 0.9321 0.3546 0.2465
C7 C 0.8893(2) 0.2547(2) 0.3526(2)
C8 C 0.7895(2) 0.2188(2) 0.3709(2)
H9 H 0.7984 0.1636 0.4256
C9 C 0.6774(2) 0.2653(2) 0.3079(2)
C10 C 1.2251(2) 0.2093(2) 0.4685(2)
C11 C 1.1093(2) 0.2428(2) 0.3957(3)
H10 H 1.0946 0.2837 0.3269
C12 C 1.0142(2) 0.2152(2) 0.4257(2)
C13 C 1.0417(2) 0.1522(2) 0.5256(2)
H11 H 0.9795 0.1310 0.5485
C14 C 1.1612(2) 0.1203(2) 0.5918(2)
Ce1B Ce 0.544896(12) 0.546609(11) -0.146353(13)
Ce1A Ce 0.544896(12) -0.046609(11) 0.353647(13)
Ce1C Ce 1.455104(12) 0.046609(11) 0.646353(13)
O1B O 0.38098(16) 0.50257(15) -0.07438(17)
O4A O 0.43818(17) 0.64660(16) 0.13356(18)
O5C O 0.43668(16) 0.28408(15) 0.01919(17)
O7C O 0.30666(17) 0.48901(15) 0.23614(17)
N2C N 0.25167(19) 0.34981(18) 0.0649(2)
O10 O 0.9160(4) 0.0930(4) 0.1010(4)
H4 H 0.903(5) 0.060(5) 0.155(5)
H5 H 0.852(5) 0.128(5) 0.083(6)
O11 O 0.6341(3) 0.1074(2) 0.0504(2)
H6 H 0.655(4) 0.074(3) 0.120(4)
H7 H 0.576(4) 0.147(4) 0.044(4)
O12 O 0.1634(4) 0.0604(4) 0.0936(4)
loop_
_geom_bond_atom_site_label_1
_geom_bond_atom_site_label_2
_geom_bond_site_symmetry_1
_geom_bond_site_symmetry_2
Ce1 O1 1_555 1_555
O1 C1 1_555 1_555
O2 C1 1_555 1_555
O3 Ce1 1_555 1_555
O4 C2 1_555 1_555
O5 C3 1_555 1_555
O6 H1 1_555 1_555
O7 C4 1_555 1_555
O8 C4 1_555 1_555
O9 Ce1 1_555 1_555
H2 O9 1_555 1_555
H3 O9 1_555 1_555
O10 H4 1_555 1_555
H5 O10 1_555 1_555
O11 H6 1_555 1_555
H7 O11 1_555 1_555
N1 Ce1 1_555 1_555
N2 C10 1_555 1_555
C1 C5 1_555 1_555
C2 O3 1_555 1_555
C3 O6 1_555 1_555
C4 C14 1_555 1_555
C5 N1 1_555 1_555
C6 C5 1_555 1_555
H8 C6 1_555 1_555
C7 C6 1_555 1_555
C8 C7 1_555 1_555
H9 C8 1_555 1_555
C9 N1 1_555 1_555
C10 C3 1_555 1_555
C11 C10 1_555 1_555
H10 C11 1_555 1_555
C12 C7 1_555 1_555
C13 C12 1_555 1_555
H11 C13 1_555 1_555
C14 N2 1_555 1_555
Ce1B O1 1_555 1_555
Ce1A O4 1_555 1_555
Ce1C O5 1_555 1_555
O1B Ce1 1_555 1_555
O4A Ce1 1_555 1_555
O5C Ce1 1_555 1_555
O7C Ce1 1_555 1_555
N2C Ce1 1_555 1_555
O7 Ce1C 1_555 1_555
N2 Ce1C 1_555 1_555
C2 C9 1_555 1_555
C8 C9 1_555 1_555
C11 C12 1_555 1_555
C13 C14 1_555 1_555
Ce1B O1B 1_555 1_555

#END
