
#######################################################################
#
#                 Cambridge Crystallographic Data Centre
#                                CCDC 
#
#######################################################################
#
# If this CIF has been generated from an entry in the Cambridge 
# Structural Database, then it will include bibliographic, chemical, 
# crystal, experimental, refinement or atomic coordinate data resulting 
# from the CCDC's data processing and validation procedures.
#
#######################################################################

data_COYTUG01
_symmetry_cell_setting           monoclinic
_symmetry_space_group_name_H-M   'C 2/c'
_symmetry_Int_Tables_number      15
_space_group_name_Hall           '-C 2yn'
loop_
_symmetry_equiv_pos_site_id
_symmetry_equiv_pos_as_xyz
1 x,y,z
2 -x,y,1/2-z
3 1/2+x,1/2+y,z
4 1/2-x,1/2+y,1/2-z
5 -x,-y,-z
6 x,-y,1/2+z
7 1/2-x,1/2-y,-z
8 1/2+x,1/2-y,1/2+z
_cell_length_a                   12.130(4)
_cell_length_b                   22.320(7)
_cell_length_c                   21.819(9)
_cell_angle_alpha                90
_cell_angle_beta                 105.325(12)
_cell_angle_gamma                90
_cell_volume                     5697.26
loop_
_atom_site_label
_atom_site_type_symbol
_atom_site_fract_x
_atom_site_fract_y
_atom_site_fract_z
Tb1 Tb 0.0000 0.21250(5) 0.2500
Tb2 Tb 0.5000 0.25298(5) 0.2500
Tb3 Tb 0.86219(8) 0.36955(7) 0.47444(4)
O1 O 0.6434(12) 0.3246(7) 0.3016(5)
O2 O 0.7149(10) 0.3891(5) 0.3816(5)
O3 O 0.3262(11) 0.2260(5) 0.2761(5)
O4 O 0.1784(11) 0.2533(5) 0.3126(6)
O5 O 0.3049(17) 0.6569(7) 0.4898(9)
O6 O 0.409(3) 0.6375(14) 0.4229(14)
O7 O 0.0596(16) 0.5412(7) 0.5354(9)
O8 O 0.170(3) 0.4459(12) 0.5850(13)
O9 O 0.0433(13) 0.2630(7) 0.1582(6)
O10 O 0.0359(13) 0.3449(8) 0.0978(6)
O11 O 0.0757(12) 0.7052(6) 0.3524(6)
O12 O 0.0884(14) 0.6230(7) 0.4134(6)
O13 O 0.1484(12) 0.1549(7) 0.2170(7)
O14 O 0.0771(14) 0.1414(7) 0.3366(8)
O15 O 0.802(2) 0.2719(8) 0.4344(12)
O16 O 1.052(3) 0.3331(19) 0.5265(16)
N1 N 0.4494(12) 0.3163(6) 0.3314(6)
N2 N 0.2446(13) 0.5449(8) 0.4939(6)
C1 C 0.0370(17) 0.3165(11) 0.1494(9)
C2 C 0.0685(17) 0.6501(11) 0.3609(9)
C3 C 0.6374(15) 0.3592(8) 0.3470(8)
C4 C 0.5192(13) 0.3603(7) 0.3608(7)
C5 C 0.4857(13) 0.4042(7) 0.3954(7)
H1 H 0.5371 0.4352 0.4145
C6 C 0.3740(15) 0.4030(7) 0.4024(8)
C7 C 0.3057(17) 0.3550(8) 0.3773(8)
H2 H 0.2315 0.3510 0.3838
C8 C 0.3470(14) 0.3124(7) 0.3423(7)
C9 C 0.2763(17) 0.2589(8) 0.3065(8)
C10 C 0.344(3) 0.6223(11) 0.4556(18)
C11 C 0.317(2) 0.5552(8) 0.4592(11)
C12 C 0.363(2) 0.5106(8) 0.4308(11)
H3 H 0.4164 0.5200 0.4071
C13 C 0.3316(15) 0.4507(8) 0.4370(8)
C14 C 0.2528(19) 0.4427(8) 0.4718(10)
H4 H 0.2251 0.4036 0.4759
C15 C 0.213(2) 0.4902(9) 0.5010(11)
C16 C 0.1329(16) 0.4947(8) 0.5472(10)
N3 N 0.0000 0.3265(9) 0.2500
C17 C 0.0168(17) 0.3573(7) 0.2008(8)
C18 C 0.017(2) 0.4179(8) 0.1988(10)
H5 H 0.0288 0.4380 0.1627
C19 C 0.0000 0.4509(9) 0.2500
N4 N 0.0000 0.6414(9) 0.2500
C20 C 0.0318(19) 0.6093(7) 0.3028(8)
C21 C 0.0319(19) 0.5488(8) 0.3055(9)
H6 H 0.0538 0.5291 0.3455
C22 C 0.0000 0.5154(15) 0.2500
Tb2B Tb 0.0000 0.75298(5) 0.2500
Tb2_2 Tb -0.5000 0.25298(5) 0.2500
Tb3A Tb -0.86219(8) 0.36955(7) 0.02556(4)
Tb3D Tb 0.13781(8) 0.63045(7) 0.52556(4)
Tb3A_2 Tb 0.13781(8) 0.36955(7) 0.02556(4)
Tb3_2 Tb -0.13781(8) 0.36955(7) 0.47444(4)
Tb3E Tb -0.13781(8) 0.63045(7) -0.02556(4)
O1A O -0.6434(12) 0.3246(7) 0.1984(5)
O1A_2 O 0.3566(12) 0.3246(7) 0.1984(5)
O2A O -0.7149(10) 0.3891(5) 0.1184(5)
O3A O -0.3262(11) 0.2260(5) 0.2239(5)
O3A_2 O 0.6738(11) 0.2260(5) 0.2239(5)
O4A O -0.1784(11) 0.2533(5) 0.1874(6)
O5A O -0.3049(17) 0.6569(7) 0.0102(9)
O5D O 0.6951(17) 0.3431(7) 0.5102(9)
O5E O -0.6951(17) 0.3431(7) -0.0102(9)
O6A O -0.409(3) 0.6375(14) 0.0771(14)
O7A O -0.0596(16) 0.5412(7) -0.0354(9)
O7D O 0.9404(16) 0.4588(7) 0.4646(9)
O7E O -0.9404(16) 0.4588(7) 0.0354(9)
O8A O -0.170(3) 0.4459(12) -0.0850(13)
O9A O -0.0433(13) 0.2630(7) 0.3418(6)
O10A O -0.0359(13) 0.3449(8) 0.4022(6)
O10A_2 O 0.9641(13) 0.3449(8) 0.4022(6)
O10_2 O -0.9641(13) 0.3449(8) 0.0978(6)
O11A O -0.0757(12) 0.7052(6) 0.1476(6)
O11B O 0.5757(12) 0.2052(6) 0.3524(6)
O11C O 0.4243(12) 0.2052(6) 0.1476(6)
O12A O -0.0884(14) 0.6230(7) 0.0866(6)
O12D O 0.9116(14) 0.3770(7) 0.5866(6)
O12E O -0.9116(14) 0.3770(7) -0.0866(6)
O13A O -0.1484(12) 0.1549(7) 0.2830(7)
O14A O -0.0771(14) 0.1414(7) 0.1634(8)
O15A O -0.802(2) 0.2719(8) 0.0656(12)
O16A O -1.052(3) 0.3331(19) -0.0265(16)
N1A N -0.4494(12) 0.3163(6) 0.1686(6)
N1A_2 N 0.5506(12) 0.3163(6) 0.1686(6)
N2A N -0.2446(13) 0.5449(8) 0.0061(6)
N2D N 0.7554(13) 0.4551(8) 0.5061(6)
N2E N -0.7554(13) 0.4551(8) -0.0061(6)
C1A C -0.0370(17) 0.3165(11) 0.3506(9)
C2A C -0.0685(17) 0.6501(11) 0.1391(9)
C3A C -0.6374(15) 0.3592(8) 0.1530(8)
C4A C -0.5192(13) 0.3603(7) 0.1392(7)
C5A C -0.4857(13) 0.4042(7) 0.1046(7)
H1A H -0.5371 0.4352 0.0855
C6A C -0.3740(15) 0.4030(7) 0.0976(8)
C7A C -0.3057(17) 0.3550(8) 0.1227(8)
H2A H -0.2315 0.3510 0.1162
C8A C -0.3470(14) 0.3124(7) 0.1577(7)
C9A C -0.2763(17) 0.2589(8) 0.1935(8)
C10A C -0.344(3) 0.6223(11) 0.0444(18)
C11A C -0.317(2) 0.5552(8) 0.0408(11)
C12A C -0.363(2) 0.5106(8) 0.0692(11)
H3A H -0.4164 0.5200 0.0929
C13A C -0.3316(15) 0.4507(8) 0.0630(8)
C14A C -0.2528(19) 0.4427(8) 0.0282(10)
H4A H -0.2251 0.4036 0.0241
C15A C -0.213(2) 0.4902(9) -0.0010(11)
C16A C -0.1329(16) 0.4947(8) -0.0472(10)
C17A C -0.0168(17) 0.3573(7) 0.2992(8)
C18A C -0.017(2) 0.4179(8) 0.3012(10)
H5A H -0.0288 0.4380 0.3373
N4B N 0.5000 0.1414(9) 0.2500
C20A C -0.0318(19) 0.6093(7) 0.1972(8)
C21A C -0.0319(19) 0.5488(8) 0.1945(9)
H6A H -0.0538 0.5291 0.1545
loop_
_geom_bond_atom_site_label_1
_geom_bond_atom_site_label_2
_geom_bond_site_symmetry_1
_geom_bond_site_symmetry_2
Tb1 O4 1_555 1_555
Tb2 O1 1_555 1_555
Tb3 O2 1_555 1_555
O1 C3 1_555 1_555
O2 C3 1_555 1_555
O3 Tb2 1_555 1_555
O4 C9 1_555 1_555
O5 C10 1_555 1_555
O6 C10 1_555 1_555
O7 C16 1_555 1_555
O8 C16 1_555 1_555
O9 Tb1 1_555 1_555
O10 C1 1_555 1_555
O11 C2 1_555 1_555
O12 C2 1_555 1_555
O13 Tb1 1_555 1_555
O14 Tb1 1_555 1_555
O15 Tb3 1_555 1_555
O16 Tb3 1_555 1_555
N1 Tb2 1_555 1_555
N2 C11 1_555 1_555
C1 O9 1_555 1_555
C2 C20 1_555 1_555
C3 C4 1_555 1_555
C4 N1 1_555 1_555
C5 C4 1_555 1_555
H1 C5 1_555 1_555
C6 C5 1_555 1_555
C7 C6 1_555 1_555
H2 C7 1_555 1_555
C8 N1 1_555 1_555
C9 O3 1_555 1_555
C10 C11 1_555 1_555
C11 C12 1_555 1_555
C12 H3 1_555 1_555
C13 C6 1_555 1_555
C14 C13 1_555 1_555
H4 C14 1_555 1_555
C15 N2 1_555 1_555
C16 C15 1_555 1_555
N3 Tb1 1_555 1_555
C17 C1 1_555 1_555
C18 C17 1_555 1_555
H5 C18 1_555 1_555
C19 C18 1_555 1_555
N4 C20 1_555 1_555
C20 C21 1_555 1_555
C21 H6 1_555 1_555
C22 C19 1_555 1_555
Tb2B O11 1_555 1_555
Tb2_2 O1A 1_555 1_555
Tb3A O2A 1_555 1_555
Tb3D O5 1_555 1_555
Tb3A_2 O10 1_555 1_555
Tb3_2 O10A 1_555 1_555
Tb3E O5A 1_555 1_555
O1A C3A 1_555 1_555
O1A_2 Tb2 1_555 1_555
O2A C3A 1_555 1_555
O3A Tb2_2 1_555 1_555
O3A_2 Tb2 1_555 1_555
O4A Tb1 1_555 1_555
O5A C10A 1_555 1_555
O5D Tb3 1_555 1_555
O5E Tb3A 1_555 1_555
O6A C10A 1_555 1_555
O7A Tb3E 1_555 1_555
O7D Tb3 1_555 1_555
O7E Tb3A 1_555 1_555
O8A C16A 1_555 1_555
O9A Tb1 1_555 1_555
O10A C1A 1_555 1_555
O10A_2 Tb3 1_555 1_555
O10_2 Tb3A 1_555 1_555
O11A Tb2B 1_555 1_555
O11B Tb2 1_555 1_555
O11C Tb2 1_555 1_555
O12A Tb3E 1_555 1_555
O12D Tb3 1_555 1_555
O12E Tb3A 1_555 1_555
O13A Tb1 1_555 1_555
O14A Tb1 1_555 1_555
O15A Tb3A 1_555 1_555
O16A Tb3A 1_555 1_555
N1A Tb2_2 1_555 1_555
N1A_2 Tb2 1_555 1_555
N2A Tb3E 1_555 1_555
N2D Tb3 1_555 1_555
N2E Tb3A 1_555 1_555
C1A O9A 1_555 1_555
C2A O11A 1_555 1_555
C3A C4A 1_555 1_555
C4A N1A 1_555 1_555
C5A C4A 1_555 1_555
H1A C5A 1_555 1_555
C6A C5A 1_555 1_555
C7A C6A 1_555 1_555
H2A C7A 1_555 1_555
C8A N1A 1_555 1_555
C9A O3A 1_555 1_555
C10A C11A 1_555 1_555
C11A N2A 1_555 1_555
C12A C11A 1_555 1_555
H3A C12A 1_555 1_555
C13A C6A 1_555 1_555
C14A C13A 1_555 1_555
H4A C14A 1_555 1_555
C15A N2A 1_555 1_555
C16A O7A 1_555 1_555
C17A N3 1_555 1_555
C18A C19 1_555 1_555
H5A C18A 1_555 1_555
N4B Tb2 1_555 1_555
C20A N4 1_555 1_555
C21A C22 1_555 1_555
H6A C21A 1_555 1_555
O7 Tb3D 1_555 1_555
O12 Tb3D 1_555 1_555
N2 Tb3D 1_555 1_555
C7 C8 1_555 1_555
C8 C9 1_555 1_555
C12 C13 1_555 1_555
C14 C15 1_555 1_555
N3 C17 1_555 1_555
N4 Tb2B 1_555 1_555
C21 C22 1_555 1_555
O4A C9A 1_555 1_555
O12A C2A 1_555 1_555
C1A C17A 1_555 1_555
C2A C20A 1_555 1_555
C7A C8A 1_555 1_555
C8A C9A 1_555 1_555
C12A C13A 1_555 1_555
C14A C15A 1_555 1_555
C15A C16A 1_555 1_555
C17A C18A 1_555 1_555
C20A C21A 1_555 1_555

#END
