
#######################################################################
#
#                 Cambridge Crystallographic Data Centre
#                                CCDC 
#
#######################################################################
#
# If this CIF has been generated from an entry in the Cambridge 
# Structural Database, then it will include bibliographic, chemical, 
# crystal, experimental, refinement or atomic coordinate data resulting 
# from the CCDC's data processing and validation procedures.
#
#######################################################################

data_COYTUG
_symmetry_cell_setting           monoclinic
_symmetry_space_group_name_H-M   'C 2/c'
_symmetry_Int_Tables_number      15
_space_group_name_Hall           '-C 2yn'
loop_
_symmetry_equiv_pos_site_id
_symmetry_equiv_pos_as_xyz
1 x,y,z
2 -x,y,1/2-z
3 1/2+x,1/2+y,z
4 1/2-x,1/2+y,1/2-z
5 -x,-y,-z
6 x,-y,1/2+z
7 1/2-x,1/2-y,-z
8 1/2+x,1/2-y,1/2+z
_cell_length_a                   12.130(4)
_cell_length_b                   22.320(7)
_cell_length_c                   21.819(9)
_cell_angle_alpha                90
_cell_angle_beta                 105.325(12)
_cell_angle_gamma                90
_cell_volume                     5697.26
loop_
_atom_site_label
_atom_site_type_symbol
_atom_site_fract_x
_atom_site_fract_y
_atom_site_fract_z
Tb1 Tb 0.0000 0.21250(6) 0.2500
Tb2 Tb 0.5000 0.25299(6) 0.2500
Tb3 Tb 0.86221(9) 0.36953(8) 0.47445(5)
O1 O 0.6439(13) 0.3245(8) 0.3017(6)
O2 O 0.7148(11) 0.3889(6) 0.3817(6)
O3 O 0.3261(13) 0.2262(6) 0.2762(6)
O4 O 0.1784(13) 0.2532(6) 0.3125(7)
O5 O 0.3042(19) 0.6565(8) 0.4894(10)
O6 O 0.408(3) 0.6372(16) 0.4225(17)
O7 O 0.0559(18) 0.5419(8) 0.5338(10)
O8 O 0.166(3) 0.4502(14) 0.5827(15)
O9 O 0.0436(15) 0.2629(8) 0.1583(7)
O10 O 0.0365(15) 0.3445(9) 0.0978(7)
O11 O 0.0760(14) 0.7052(7) 0.3525(6)
O12 O 0.0888(17) 0.6229(8) 0.4131(7)
O13 O 0.1483(15) 0.1550(8) 0.2171(9)
O14 O 0.0765(16) 0.1414(8) 0.3364(9)
O15 O 0.802(3) 0.2720(9) 0.4338(13)
O16 O 1.052(4) 0.334(2) 0.5272(19)
N1 N 0.4500(14) 0.3161(7) 0.3313(7)
N2 N 0.2448(15) 0.5446(9) 0.4940(7)
C1 C 0.0374(19) 0.3158(13) 0.1496(11)
C2 C 0.0689(19) 0.6502(12) 0.3605(10)
C3 C 0.6371(17) 0.3590(9) 0.3471(9)
C4 C 0.5192(15) 0.3604(8) 0.3607(8)
C5 C 0.4850(15) 0.4041(8) 0.3955(8)
H1 H 0.5367 0.4347 0.4151
C6 C 0.3735(16) 0.4034(8) 0.4021(9)
C7 C 0.3050(18) 0.3550(9) 0.3768(9)
H2 H 0.2308 0.3510 0.3832
C8 C 0.3464(16) 0.3123(8) 0.3420(8)
C9 C 0.2767(19) 0.2584(9) 0.3065(8)
C10 C 0.344(4) 0.6219(12) 0.456(2)
C11 C 0.317(2) 0.5552(10) 0.4595(12)
C12 C 0.363(2) 0.5107(9) 0.4311(12)
H3 H 0.4162 0.5201 0.4075
C13 C 0.3311(17) 0.4512(9) 0.4369(9)
C14 C 0.251(2) 0.4430(9) 0.4715(12)
H4 H 0.2236 0.4038 0.4756
C15 C 0.211(2) 0.4905(10) 0.5002(13)
C16 C 0.1297(17) 0.4971(9) 0.5446(11)
N3 N 0.0000 0.3263(10) 0.2500
C17 C 0.017(2) 0.3572(9) 0.2011(10)
C18 C 0.018(2) 0.4180(9) 0.1991(12)
H5 H 0.0303 0.4380 0.1631
C19 C 0.0000 0.4510(11) 0.2500
N4 N 0.0000 0.6413(10) 0.2500
C20 C 0.031(2) 0.6092(8) 0.3029(9)
C21 C 0.033(2) 0.5486(10) 0.3055(10)
H6 H 0.0559 0.5289 0.3454
C22 C 0.0000 0.5153(16) 0.2500
Tb2B Tb 0.0000 0.75299(6) 0.2500
Tb2_2 Tb -0.5000 0.25299(6) 0.2500
Tb3A Tb -0.86221(9) 0.36953(8) 0.02555(5)
Tb3D Tb 0.13779(9) 0.63047(8) 0.52555(5)
Tb3A_2 Tb 0.13779(9) 0.36953(8) 0.02555(5)
Tb3_2 Tb -0.13779(9) 0.36953(8) 0.47445(5)
Tb3E Tb -0.13779(9) 0.63047(8) -0.02555(5)
O1A O -0.6439(13) 0.3245(8) 0.1983(6)
O1A_2 O 0.3561(13) 0.3245(8) 0.1983(6)
O2A O -0.7148(11) 0.3889(6) 0.1183(6)
O3A O -0.3261(13) 0.2262(6) 0.2238(6)
O3A_2 O 0.6739(13) 0.2262(6) 0.2238(6)
O4A O -0.1784(13) 0.2532(6) 0.1875(7)
O5A O -0.3042(19) 0.6565(8) 0.0106(10)
O5D O 0.6958(19) 0.3435(8) 0.5106(10)
O5E O -0.6958(19) 0.3435(8) -0.0106(10)
O6A O -0.408(3) 0.6372(16) 0.0775(17)
O7A O -0.0559(18) 0.5419(8) -0.0338(10)
O7D O 0.9441(18) 0.4581(8) 0.4662(10)
O7E O -0.9441(18) 0.4581(8) 0.0338(10)
O8A O -0.166(3) 0.4502(14) -0.0827(15)
O9A O -0.0436(15) 0.2629(8) 0.3417(7)
O10A O -0.0365(15) 0.3445(9) 0.4022(7)
O10A_2 O 0.9635(15) 0.3445(9) 0.4022(7)
O10_2 O -0.9635(15) 0.3445(9) 0.0978(7)
O11A O -0.0760(14) 0.7052(7) 0.1475(6)
O11B O 0.5760(14) 0.2052(7) 0.3525(6)
O11C O 0.4240(14) 0.2052(7) 0.1475(6)
O12A O -0.0888(17) 0.6229(8) 0.0869(7)
O12D O 0.9112(17) 0.3771(8) 0.5869(7)
O12E O -0.9112(17) 0.3771(8) -0.0869(7)
O13A O -0.1483(15) 0.1550(8) 0.2829(9)
O14A O -0.0765(16) 0.1414(8) 0.1636(9)
O15A O -0.802(3) 0.2720(9) 0.0662(13)
O16A O -1.052(4) 0.334(2) -0.0272(19)
N1A N -0.4500(14) 0.3161(7) 0.1687(7)
N1A_2 N 0.5500(14) 0.3161(7) 0.1687(7)
N2A N -0.2448(15) 0.5446(9) 0.0060(7)
N2D N 0.7552(15) 0.4554(9) 0.5060(7)
N2E N -0.7552(15) 0.4554(9) -0.0060(7)
C1A C -0.0374(19) 0.3158(13) 0.3504(11)
C2A C -0.0689(19) 0.6502(12) 0.1395(10)
C3A C -0.6371(17) 0.3590(9) 0.1529(9)
C4A C -0.5192(15) 0.3604(8) 0.1393(8)
C5A C -0.4850(15) 0.4041(8) 0.1045(8)
H1A H -0.5367 0.4347 0.0849
C6A C -0.3735(16) 0.4034(8) 0.0979(9)
C7A C -0.3050(18) 0.3550(9) 0.1232(9)
H2A H -0.2308 0.3510 0.1168
C8A C -0.3464(16) 0.3123(8) 0.1580(8)
C9A C -0.2767(19) 0.2584(9) 0.1935(8)
C10A C -0.344(4) 0.6219(12) 0.044(2)
C11A C -0.317(2) 0.5552(10) 0.0405(12)
C12A C -0.363(2) 0.5107(9) 0.0689(12)
H3A H -0.4162 0.5201 0.0925
C13A C -0.3311(17) 0.4512(9) 0.0631(9)
C14A C -0.251(2) 0.4430(9) 0.0285(12)
H4A H -0.2236 0.4038 0.0244
C15A C -0.211(2) 0.4905(10) -0.0002(13)
C16A C -0.1297(17) 0.4971(9) -0.0446(11)
C17A C -0.017(2) 0.3572(9) 0.2989(10)
C18A C -0.018(2) 0.4180(9) 0.3009(12)
H5A H -0.0303 0.4380 0.3369
N4B N 0.5000 0.1413(10) 0.2500
C20A C -0.031(2) 0.6092(8) 0.1971(9)
C21A C -0.033(2) 0.5486(10) 0.1945(10)
H6A H -0.0559 0.5289 0.1546
loop_
_geom_bond_atom_site_label_1
_geom_bond_atom_site_label_2
_geom_bond_site_symmetry_1
_geom_bond_site_symmetry_2
Tb1 O4 1_555 1_555
Tb2 O1 1_555 1_555
Tb3 O2 1_555 1_555
O1 C3 1_555 1_555
O2 C3 1_555 1_555
O3 Tb2 1_555 1_555
O4 C9 1_555 1_555
O5 C10 1_555 1_555
O6 C10 1_555 1_555
O7 C16 1_555 1_555
O8 C16 1_555 1_555
O9 Tb1 1_555 1_555
O10 C1 1_555 1_555
O11 C2 1_555 1_555
O12 C2 1_555 1_555
O13 Tb1 1_555 1_555
O14 Tb1 1_555 1_555
O15 Tb3 1_555 1_555
O16 Tb3 1_555 1_555
N1 Tb2 1_555 1_555
N2 C11 1_555 1_555
C1 O9 1_555 1_555
C2 C20 1_555 1_555
C3 C4 1_555 1_555
C4 N1 1_555 1_555
C5 C4 1_555 1_555
H1 C5 1_555 1_555
C6 C5 1_555 1_555
C7 C6 1_555 1_555
H2 C7 1_555 1_555
C8 N1 1_555 1_555
C9 O3 1_555 1_555
C10 C11 1_555 1_555
C11 C12 1_555 1_555
C12 H3 1_555 1_555
C13 C6 1_555 1_555
C14 C13 1_555 1_555
H4 C14 1_555 1_555
C15 N2 1_555 1_555
C16 C15 1_555 1_555
N3 Tb1 1_555 1_555
C17 C1 1_555 1_555
C18 C17 1_555 1_555
H5 C18 1_555 1_555
C19 C18 1_555 1_555
N4 C20 1_555 1_555
C20 C21 1_555 1_555
C21 H6 1_555 1_555
C22 C19 1_555 1_555
Tb2B O11 1_555 1_555
Tb2_2 O1A 1_555 1_555
Tb3A O2A 1_555 1_555
Tb3D O5 1_555 1_555
Tb3A_2 O10 1_555 1_555
Tb3_2 O10A 1_555 1_555
Tb3E O5A 1_555 1_555
O1A C3A 1_555 1_555
O1A_2 Tb2 1_555 1_555
O2A C3A 1_555 1_555
O3A Tb2_2 1_555 1_555
O3A_2 Tb2 1_555 1_555
O4A Tb1 1_555 1_555
O5A C10A 1_555 1_555
O5D Tb3 1_555 1_555
O5E Tb3A 1_555 1_555
O6A C10A 1_555 1_555
O7A Tb3E 1_555 1_555
O7D Tb3 1_555 1_555
O7E Tb3A 1_555 1_555
O8A C16A 1_555 1_555
O9A Tb1 1_555 1_555
O10A C1A 1_555 1_555
O10A_2 Tb3 1_555 1_555
O10_2 Tb3A 1_555 1_555
O11A Tb2B 1_555 1_555
O11B Tb2 1_555 1_555
O11C Tb2 1_555 1_555
O12A Tb3E 1_555 1_555
O12D Tb3 1_555 1_555
O12E Tb3A 1_555 1_555
O13A Tb1 1_555 1_555
O14A Tb1 1_555 1_555
O15A Tb3A 1_555 1_555
O16A Tb3A 1_555 1_555
N1A Tb2_2 1_555 1_555
N1A_2 Tb2 1_555 1_555
N2A Tb3E 1_555 1_555
N2D Tb3 1_555 1_555
N2E Tb3A 1_555 1_555
C1A O9A 1_555 1_555
C2A O11A 1_555 1_555
C3A C4A 1_555 1_555
C4A N1A 1_555 1_555
C5A C4A 1_555 1_555
H1A C5A 1_555 1_555
C6A C5A 1_555 1_555
C7A C6A 1_555 1_555
H2A C7A 1_555 1_555
C8A N1A 1_555 1_555
C9A O3A 1_555 1_555
C10A C11A 1_555 1_555
C11A N2A 1_555 1_555
C12A C11A 1_555 1_555
H3A C12A 1_555 1_555
C13A C6A 1_555 1_555
C14A C13A 1_555 1_555
H4A C14A 1_555 1_555
C15A N2A 1_555 1_555
C16A O7A 1_555 1_555
C17A N3 1_555 1_555
C18A C19 1_555 1_555
H5A C18A 1_555 1_555
N4B Tb2 1_555 1_555
C20A N4 1_555 1_555
C21A C22 1_555 1_555
H6A C21A 1_555 1_555
O7 Tb3D 1_555 1_555
O12 Tb3D 1_555 1_555
N2 Tb3D 1_555 1_555
C7 C8 1_555 1_555
C8 C9 1_555 1_555
C12 C13 1_555 1_555
C14 C15 1_555 1_555
N3 C17 1_555 1_555
N4 Tb2B 1_555 1_555
C21 C22 1_555 1_555
O4A C9A 1_555 1_555
O12A C2A 1_555 1_555
C1A C17A 1_555 1_555
C2A C20A 1_555 1_555
C7A C8A 1_555 1_555
C8A C9A 1_555 1_555
C12A C13A 1_555 1_555
C14A C15A 1_555 1_555
C15A C16A 1_555 1_555
C17A C18A 1_555 1_555
C20A C21A 1_555 1_555

#END
