
#######################################################################
#
#                 Cambridge Crystallographic Data Centre
#                                CCDC 
#
#######################################################################
#
# If this CIF has been generated from an entry in the Cambridge 
# Structural Database, then it will include bibliographic, chemical, 
# crystal, experimental, refinement or atomic coordinate data resulting 
# from the CCDC's data processing and validation procedures.
#
#######################################################################

data_COYTOA
_symmetry_cell_setting           monoclinic
_symmetry_space_group_name_H-M   'P 21/c'
_symmetry_Int_Tables_number      14
_space_group_name_Hall           '-P 2ybc'
loop_
_symmetry_equiv_pos_site_id
_symmetry_equiv_pos_as_xyz
1 x,y,z
2 -x,1/2+y,1/2-z
3 -x,-y,-z
4 x,1/2-y,1/2+z
_cell_length_a                   12.0648(12)
_cell_length_b                   12.5148(13)
_cell_length_c                   12.3787(13)
_cell_angle_alpha                90
_cell_angle_beta                 115.069(2)
_cell_angle_gamma                90
_cell_volume                     1692.97
loop_
_atom_site_label
_atom_site_type_symbol
_atom_site_fract_x
_atom_site_fract_y
_atom_site_fract_z
Sm1 Sm -0.04033(2) 0.449250(19) 0.64517(2)
O1 O 0.1187(3) 0.4953(3) 0.5708(3)
O2 O 0.2947(4) 0.4595(3) 0.5611(4)
O3 O -0.0211(3) 0.2960(3) 0.7805(3)
O4 O 0.0613(3) 0.1402(3) 0.8643(3)
O5 O 0.9391(3) 0.2148(3) 1.0155(3)
O6 O 0.8075(3) 0.2682(4) 0.8351(4)
H1 H 0.8704 0.2824 0.8278
O7 O 0.8186(3) 0.0123(3) 1.2369(3)
O8 O 0.6337(4) 0.0222(4) 1.2386(4)
O9 O 0.0929(4) 0.5182(3) 0.8445(3)
H2 H 0.1098 0.4621 0.9021
H3 H 0.1682 0.5431 0.8447
N1 N 0.1588(4) 0.3398(3) 0.7272(3)
N2 N 0.7572(4) 0.1482(3) 1.0631(3)
C1 C 0.2242(5) 0.4477(4) 0.6063(5)
C2 C 0.0649(4) 0.2272(4) 0.8201(4)
C3 C 0.8355(5) 0.2311(4) 0.9408(5)
C4 C 0.7084(5) 0.0446(4) 1.1993(5)
C5 C 0.2531(4) 0.3706(4) 0.7052(4)
C6 C 0.3699(5) 0.3298(4) 0.7678(4)
H8 H 0.4337 0.3544 0.7512
C7 C 0.3922(4) 0.2531(4) 0.8546(4)
C8 C 0.2913(5) 0.2159(4) 0.8708(4)
H9 H 0.3005 0.1615 0.9251
C9 C 0.1785(4) 0.2603(4) 0.8061(4)
C10 C 0.7281(4) 0.2078(4) 0.9665(4)
C11 C 0.6114(5) 0.2415(4) 0.8955(5)
H10 H 0.5955 0.2823 0.8277
C12 C 0.5178(5) 0.2139(4) 0.9267(4)
C13 C 0.5481(4) 0.1507(4) 1.0283(4)
H11 H 0.4879 0.1299 1.0522
C14 C 0.6677(5) 0.1193(4) 1.0929(4)
Sm1B Sm 0.04033(2) 0.550750(19) 0.35483(2)
Sm1A Sm 0.04033(2) -0.050750(19) 0.85483(2)
Sm1C Sm 0.95967(2) 0.050750(19) 1.14517(2)
O1B O -0.1187(3) 0.5047(3) 0.4292(3)
O4A O -0.0613(3) 0.6402(3) 0.6357(3)
O5C O -0.0609(3) 0.2852(3) 0.5155(3)
O7C O -0.1814(3) 0.4877(3) 0.7369(3)
N2C N -0.2428(4) 0.3518(3) 0.5631(3)
O10 O 0.5803(7) 0.9045(7) 0.3957(7)
H4 H 0.6244 0.9513 0.4448
H5 H 0.5441 0.9324 0.3269
O11 O 0.8696(5) 0.8953(4) 0.4541(4)
H6 H 0.8689 0.9369 0.3995
H7 H 0.8919 0.8331 0.4437
O12 O 0.326(2) 0.592(3) 0.860(6)
O13? O 0.3370(17) 0.555(4) 0.914(3)
loop_
_geom_bond_atom_site_label_1
_geom_bond_atom_site_label_2
_geom_bond_site_symmetry_1
_geom_bond_site_symmetry_2
Sm1 O1 1_555 1_555
O1 C1 1_555 1_555
O2 C1 1_555 1_555
O3 Sm1 1_555 1_555
O4 C2 1_555 1_555
O5 C3 1_555 1_555
O6 H1 1_555 1_555
O7 C4 1_555 1_555
O8 C4 1_555 1_555
O9 Sm1 1_555 1_555
H2 O9 1_555 1_555
H3 O9 1_555 1_555
O10 H4 1_555 1_555
H5 O10 1_555 1_555
O11 H6 1_555 1_555
H7 O11 1_555 1_555
N1 Sm1 1_555 1_555
N2 C10 1_555 1_555
C1 C5 1_555 1_555
C2 O3 1_555 1_555
C3 O6 1_555 1_555
C4 C14 1_555 1_555
C5 N1 1_555 1_555
C6 C5 1_555 1_555
H8 C6 1_555 1_555
C7 C6 1_555 1_555
C8 C7 1_555 1_555
H9 C8 1_555 1_555
C9 N1 1_555 1_555
C10 C3 1_555 1_555
C11 C10 1_555 1_555
H10 C11 1_555 1_555
C12 C7 1_555 1_555
C13 C12 1_555 1_555
H11 C13 1_555 1_555
C14 N2 1_555 1_555
Sm1B O1 1_555 1_555
Sm1A O4 1_555 1_555
Sm1C O5 1_555 1_555
O1B Sm1 1_555 1_555
O4A Sm1 1_555 1_555
O5C Sm1 1_555 1_555
O7C Sm1 1_555 1_555
N2C Sm1 1_555 1_555
O7 Sm1C 1_555 1_555
N2 Sm1C 1_555 1_555
C2 C9 1_555 1_555
C8 C9 1_555 1_555
C11 C12 1_555 1_555
C13 C14 1_555 1_555
Sm1B O1B 1_555 1_555

#END
