
#######################################################################
#
#                 Cambridge Crystallographic Data Centre
#                                CCDC 
#
#######################################################################
#
# If this CIF has been generated from an entry in the Cambridge 
# Structural Database, then it will include bibliographic, chemical, 
# crystal, experimental, refinement or atomic coordinate data resulting 
# from the CCDC's data processing and validation procedures.
#
#######################################################################

data_COYVAO01
_symmetry_cell_setting           monoclinic
_symmetry_space_group_name_H-M   'C 2/c'
_symmetry_Int_Tables_number      15
_space_group_name_Hall           '-C 2yn'
loop_
_symmetry_equiv_pos_site_id
_symmetry_equiv_pos_as_xyz
1 x,y,z
2 -x,y,1/2-z
3 1/2+x,1/2+y,z
4 1/2-x,1/2+y,1/2-z
5 -x,-y,-z
6 x,-y,1/2+z
7 1/2-x,1/2-y,-z
8 1/2+x,1/2-y,1/2+z
_cell_length_a                   12.1025(16)
_cell_length_b                   22.287(4)
_cell_length_c                   21.695(3)
_cell_angle_alpha                90
_cell_angle_beta                 105.315(8)
_cell_angle_gamma                90
_cell_volume                     5643.95
loop_
_atom_site_label
_atom_site_type_symbol
_atom_site_fract_x
_atom_site_fract_y
_atom_site_fract_z
Dy1 Dy 0.5000 -0.25306(5) 0.2500
Dy2 Dy 0.0000 -0.21336(5) 0.2500
Dy3 Dy 0.86134(7) -0.36983(6) 0.47429(4)
O1 O 0.6438(10) -0.3248(5) 0.3016(5)
O2 O 0.7149(9) -0.3891(4) 0.3813(5)
O3 O 0.3260(10) -0.2258(5) 0.2753(5)
O4 O 0.1767(10) -0.2531(5) 0.3109(5)
O5 O 0.3044(18) -0.6574(8) 0.4899(10)
O6 O 0.410(3) -0.6375(9) 0.4231(14)
O7 O 0.1267(18) -0.5232(8) 0.5751(10)
O8 O 0.014(2) -0.4476(9) 0.5020(12)
O9 O -0.0427(12) -0.2627(6) 0.3422(6)
O10 O -0.0366(12) -0.3452(7) 0.4029(6)
O11 O 0.0766(11) -0.7060(5) 0.3525(5)
O12 O 0.0884(14) -0.6241(7) 0.4141(7)
O13 O 0.1483(11) -0.1554(6) 0.2183(8)
O14 O 0.0772(13) -0.1423(6) 0.3370(8)
O15 O 0.806(2) -0.2714(8) 0.4349(12)
O16 O 1.047(3) -0.3299(19) 0.5287(14)
N1 N 0.4493(11) -0.3163(5) 0.3315(6)
N2 N 0.2435(12) -0.5442(7) 0.4936(6)
C1 C -0.0350(15) -0.3186(10) 0.3521(9)
C2 C 0.0681(16) -0.6504(9) 0.3618(8)
C3 C 0.6357(12) -0.3578(6) 0.3469(7)
C4 C 0.5179(12) -0.3609(6) 0.3592(6)
C5 C 0.4844(12) -0.4047(7) 0.3952(7)
H1 H 0.5356 -0.4357 0.4147
C6 C 0.3723(12) -0.4025(6) 0.4024(7)
C7 C 0.3036(13) -0.3540(6) 0.3754(7)
H2 H 0.2290 -0.3497 0.3813
C8 C 0.3452(13) -0.3126(6) 0.3402(7)
C9 C 0.2763(13) -0.2596(7) 0.3065(6)
C10 C 0.346(3) -0.6215(9) 0.456(2)
C11 C 0.3161(19) -0.5558(7) 0.4590(10)
C12 C 0.3616(18) -0.5109(7) 0.4300(10)
H3 H 0.4139 -0.5203 0.4055
C13 C 0.3306(13) -0.4513(7) 0.4365(8)
C14 C 0.2545(18) -0.4418(8) 0.4736(10)
H4 H 0.2335 -0.4020 0.4815
C15 C 0.2094(18) -0.4896(8) 0.4990(10)
C16 C 0.1053(17) -0.4849(7) 0.5262(9)
N3 N 0.0000 -0.3276(8) 0.2500
C17 C -0.0165(16) -0.3572(7) 0.2998(8)
C18 C -0.0182(17) -0.4194(7) 0.3018(9)
H5 H -0.0315 -0.4399 0.3376
C19 C 0.0000 -0.4510(9) 0.2500
N4 N 0.0000 -0.6419(8) 0.2500
C20 C 0.0301(17) -0.6110(6) 0.3040(8)
C21 C 0.0316(19) -0.5491(7) 0.3063(9)
H6 H 0.0542 -0.5289 0.3462
C22 C 0.0000 -0.5165(12) 0.2500
Dy1_2 Dy -0.5000 -0.25306(5) 0.2500
Dy1B Dy 0.0000 -0.75306(5) 0.2500
Dy3A Dy 0.13866(7) -0.36983(6) 0.02571(4)
Dy3D Dy 0.13866(7) -0.63017(6) 0.52571(4)
Dy3_2 Dy -0.13866(7) -0.36983(6) 0.47429(4)
Dy3A_2 Dy -0.86134(7) -0.36983(6) 0.02571(4)
Dy3E Dy -0.13866(7) -0.63017(6) -0.02571(4)
O1A O 0.3562(10) -0.3248(5) 0.1984(5)
O1A_2 O -0.6438(10) -0.3248(5) 0.1984(5)
O2A O -0.7149(9) -0.3891(4) 0.1187(5)
O3A O 0.6740(10) -0.2258(5) 0.2247(5)
O3A_2 O -0.3260(10) -0.2258(5) 0.2247(5)
O4A O -0.1767(10) -0.2531(5) 0.1891(5)
O5A O -0.3044(18) -0.6574(8) 0.0101(10)
O5D O 0.6956(18) -0.3426(8) 0.5101(10)
O5E O -0.6956(18) -0.3426(8) -0.0101(10)
O6A O -0.410(3) -0.6375(9) 0.0769(14)
O7A O -0.1267(18) -0.5232(8) -0.0751(10)
O7D O 0.8733(18) -0.4768(8) 0.4249(10)
O7E O -0.8733(18) -0.4768(8) 0.0751(10)
O8A O -0.014(2) -0.4476(9) -0.0020(12)
O9A O 0.0427(12) -0.2627(6) 0.1578(6)
O10A O 0.0366(12) -0.3452(7) 0.0971(6)
O10_2 O 0.9634(12) -0.3452(7) 0.4029(6)
O10A_2 O -0.9634(12) -0.3452(7) 0.0971(6)
O11C O 0.4234(11) -0.2060(5) 0.1475(5)
O11B O 0.5766(11) -0.2060(5) 0.3525(5)
O11A O -0.0766(11) -0.7060(5) 0.1475(5)
O12A O -0.0884(14) -0.6241(7) 0.0859(7)
O12D O 0.9116(14) -0.3759(7) 0.5859(7)
O12E O -0.9116(14) -0.3759(7) -0.0859(7)
O13A O -0.1483(11) -0.1554(6) 0.2817(8)
O14A O -0.0772(13) -0.1423(6) 0.1630(8)
O15A O -0.806(2) -0.2714(8) 0.0651(12)
O16A O -1.047(3) -0.3299(19) -0.0287(14)
N1A N 0.5507(11) -0.3163(5) 0.1685(6)
N1A_2 N -0.4493(11) -0.3163(5) 0.1685(6)
N2A N -0.2435(12) -0.5442(7) 0.0064(6)
N2D N 0.7565(12) -0.4558(7) 0.5064(6)
N2E N -0.7565(12) -0.4558(7) -0.0064(6)
C1A C 0.0350(15) -0.3186(10) 0.1479(9)
C2A C -0.0681(16) -0.6504(9) 0.1382(8)
C3A C -0.6357(12) -0.3578(6) 0.1531(7)
C4A C -0.5179(12) -0.3609(6) 0.1408(6)
C5A C -0.4844(12) -0.4047(7) 0.1048(7)
H1A H -0.5356 -0.4357 0.0853
C6A C -0.3723(12) -0.4025(6) 0.0976(7)
C7A C -0.3036(13) -0.3540(6) 0.1246(7)
H2A H -0.2290 -0.3497 0.1187
C8A C -0.3452(13) -0.3126(6) 0.1598(7)
C9A C -0.2763(13) -0.2596(7) 0.1935(6)
C10A C -0.346(3) -0.6215(9) 0.044(2)
C11A C -0.3161(19) -0.5558(7) 0.0410(10)
C12A C -0.3616(18) -0.5109(7) 0.0700(10)
H3A H -0.4139 -0.5203 0.0945
C13A C -0.3306(13) -0.4513(7) 0.0635(8)
C14A C -0.2545(18) -0.4418(8) 0.0264(10)
H4A H -0.2335 -0.4020 0.0185
C15A C -0.2094(18) -0.4896(8) 0.0010(10)
C16A C -0.1053(17) -0.4849(7) -0.0262(9)
C17A C 0.0165(16) -0.3572(7) 0.2002(8)
C18A C 0.0182(17) -0.4194(7) 0.1982(9)
H5A H 0.0315 -0.4399 0.1624
N4B N 0.5000 -0.1419(8) 0.2500
C20A C -0.0301(17) -0.6110(6) 0.1960(8)
C21A C -0.0316(19) -0.5491(7) 0.1937(9)
H6A H -0.0542 -0.5289 0.1538
loop_
_geom_bond_atom_site_label_1
_geom_bond_atom_site_label_2
_geom_bond_site_symmetry_1
_geom_bond_site_symmetry_2
Dy1 O1 1_555 1_555
Dy2 O4 1_555 1_555
Dy3 O2 1_555 1_555
O1 C3 1_555 1_555
O2 C3 1_555 1_555
O3 Dy1 1_555 1_555
O4 C9 1_555 1_555
O5 C10 1_555 1_555
O6 C10 1_555 1_555
O7 C16 1_555 1_555
O8 C16 1_555 1_555
O9 Dy2 1_555 1_555
O10 C1 1_555 1_555
O11 C2 1_555 1_555
O12 C2 1_555 1_555
O13 Dy2 1_555 1_555
O14 Dy2 1_555 1_555
O15 Dy3 1_555 1_555
O16 Dy3 1_555 1_555
N1 Dy1 1_555 1_555
N2 C11 1_555 1_555
C1 O9 1_555 1_555
C2 C20 1_555 1_555
C3 C4 1_555 1_555
C4 N1 1_555 1_555
C5 C4 1_555 1_555
H1 C5 1_555 1_555
C6 C5 1_555 1_555
C7 C6 1_555 1_555
H2 C7 1_555 1_555
C8 N1 1_555 1_555
C9 O3 1_555 1_555
C10 C11 1_555 1_555
C11 C12 1_555 1_555
C12 H3 1_555 1_555
C13 C6 1_555 1_555
C14 C13 1_555 1_555
H4 C14 1_555 1_555
C15 N2 1_555 1_555
C16 C15 1_555 1_555
N3 Dy2 1_555 1_555
C17 C1 1_555 1_555
C18 C17 1_555 1_555
H5 C18 1_555 1_555
C19 C18 1_555 1_555
N4 C20 1_555 1_555
C20 C21 1_555 1_555
C21 H6 1_555 1_555
C22 C19 1_555 1_555
Dy1_2 O1A_2 1_555 1_555
Dy1B O11 1_555 1_555
Dy3A O10A 1_555 1_555
Dy3D O5 1_555 1_555
Dy3_2 O10 1_555 1_555
Dy3A_2 O2A 1_555 1_555
Dy3E O5A 1_555 1_555
O1A Dy1 1_555 1_555
O1A_2 C3A 1_555 1_555
O2A C3A 1_555 1_555
O3A Dy1 1_555 1_555
O3A_2 Dy1_2 1_555 1_555
O4A Dy2 1_555 1_555
O5A C10A 1_555 1_555
O5D Dy3 1_555 1_555
O5E Dy3A_2 1_555 1_555
O6A C10A 1_555 1_555
O7A Dy3E 1_555 1_555
O7D Dy3 1_555 1_555
O7E Dy3A_2 1_555 1_555
O8A C16A 1_555 1_555
O9A Dy2 1_555 1_555
O10A C1A 1_555 1_555
O10_2 Dy3 1_555 1_555
O10A_2 Dy3A_2 1_555 1_555
O11C Dy1 1_555 1_555
O11B Dy1 1_555 1_555
O11A Dy1B 1_555 1_555
O12A Dy3E 1_555 1_555
O12D Dy3 1_555 1_555
O12E Dy3A_2 1_555 1_555
O13A Dy2 1_555 1_555
O14A Dy2 1_555 1_555
O15A Dy3A_2 1_555 1_555
O16A Dy3A_2 1_555 1_555
N1A Dy1 1_555 1_555
N1A_2 Dy1_2 1_555 1_555
N2A Dy3E 1_555 1_555
N2D Dy3 1_555 1_555
N2E Dy3A_2 1_555 1_555
C1A O9A 1_555 1_555
C2A O11A 1_555 1_555
C3A C4A 1_555 1_555
C4A N1A_2 1_555 1_555
C5A C4A 1_555 1_555
H1A C5A 1_555 1_555
C6A C5A 1_555 1_555
C7A C6A 1_555 1_555
H2A C7A 1_555 1_555
C8A N1A_2 1_555 1_555
C9A O3A_2 1_555 1_555
C10A C11A 1_555 1_555
C11A N2A 1_555 1_555
C12A C11A 1_555 1_555
H3A C12A 1_555 1_555
C13A C6A 1_555 1_555
C14A C13A 1_555 1_555
H4A C14A 1_555 1_555
C15A N2A 1_555 1_555
C16A O7A 1_555 1_555
C17A N3 1_555 1_555
C18A C19 1_555 1_555
H5A C18A 1_555 1_555
N4B Dy1 1_555 1_555
C20A N4 1_555 1_555
C21A C22 1_555 1_555
H6A C21A 1_555 1_555
O7 Dy3D 1_555 1_555
O12 Dy3D 1_555 1_555
N2 Dy3D 1_555 1_555
C7 C8 1_555 1_555
C8 C9 1_555 1_555
C12 C13 1_555 1_555
C14 C15 1_555 1_555
N3 C17 1_555 1_555
N4 Dy1B 1_555 1_555
C21 C22 1_555 1_555
O4A C9A 1_555 1_555
O12A C2A 1_555 1_555
C1A C17A 1_555 1_555
C2A C20A 1_555 1_555
C7A C8A 1_555 1_555
C8A C9A 1_555 1_555
C12A C13A 1_555 1_555
C14A C15A 1_555 1_555
C15A C16A 1_555 1_555
C17A C18A 1_555 1_555
C20A C21A 1_555 1_555

#END
