
#######################################################################
#
#                 Cambridge Crystallographic Data Centre
#                                CCDC 
#
#######################################################################
#
# If this CIF has been generated from an entry in the Cambridge 
# Structural Database, then it will include bibliographic, chemical, 
# crystal, experimental, refinement or atomic coordinate data resulting 
# from the CCDC's data processing and validation procedures.
#
#######################################################################

data_COYVAO
_symmetry_cell_setting           monoclinic
_symmetry_space_group_name_H-M   'C 2/c'
_symmetry_Int_Tables_number      15
_space_group_name_Hall           '-C 2yn'
loop_
_symmetry_equiv_pos_site_id
_symmetry_equiv_pos_as_xyz
1 x,y,z
2 -x,y,1/2-z
3 1/2+x,1/2+y,z
4 1/2-x,1/2+y,1/2-z
5 -x,-y,-z
6 x,-y,1/2+z
7 1/2-x,1/2-y,-z
8 1/2+x,1/2-y,1/2+z
_cell_length_a                   12.1025(16)
_cell_length_b                   22.287(4)
_cell_length_c                   21.695(3)
_cell_angle_alpha                90
_cell_angle_beta                 105.315(8)
_cell_angle_gamma                90
_cell_volume                     5643.95
loop_
_atom_site_label
_atom_site_type_symbol
_atom_site_fract_x
_atom_site_fract_y
_atom_site_fract_z
Dy1 Dy 0.5000 -0.25308(5) 0.2500
Dy2 Dy 0.0000 -0.21334(5) 0.2500
Dy3 Dy 0.86136(8) -0.36984(7) 0.47428(5)
O1 O 0.6440(12) -0.3244(6) 0.3017(6)
O2 O 0.7146(10) -0.3891(5) 0.3815(6)
O3 O 0.3260(11) -0.2259(6) 0.2753(6)
O4 O 0.1764(12) -0.2531(6) 0.3110(7)
O5 O 0.304(2) -0.6573(10) 0.4898(13)
O6 O 0.411(3) -0.6375(11) 0.4234(16)
O7 O 0.116(2) -0.5271(10) 0.5695(12)
O8 O 0.016(3) -0.4475(10) 0.5027(14)
O9 O -0.0427(14) -0.2627(7) 0.3422(7)
O10 O -0.0367(14) -0.3451(9) 0.4029(7)
O11 O 0.0765(13) -0.7058(6) 0.3524(6)
O12 O 0.0885(17) -0.6241(8) 0.4134(8)
O13 O 0.1478(13) -0.1555(7) 0.2181(9)
O14 O 0.0765(16) -0.1424(8) 0.3370(10)
O15 O 0.805(3) -0.2715(10) 0.4346(14)
O16 O 1.047(4) -0.330(2) 0.5285(19)
N1 N 0.4493(13) -0.3163(6) 0.3316(7)
N2 N 0.2436(15) -0.5440(9) 0.4937(8)
C1 C -0.0351(18) -0.3177(12) 0.3519(10)
C2 C 0.0680(19) -0.6508(11) 0.3623(10)
C3 C 0.6359(14) -0.3579(7) 0.3470(8)
C4 C 0.5181(14) -0.3607(7) 0.3595(8)
C5 C 0.4847(14) -0.4044(8) 0.3952(8)
H1 H 0.5363 -0.4353 0.4148
C6 C 0.3724(14) -0.4027(7) 0.4021(8)
C7 C 0.3027(16) -0.3539(7) 0.3750(9)
H2 H 0.2277 -0.3496 0.3804
C8 C 0.3456(16) -0.3123(7) 0.3403(8)
C9 C 0.2760(16) -0.2595(8) 0.3064(8)
C10 C 0.345(4) -0.6216(10) 0.456(2)
C11 C 0.316(2) -0.5555(9) 0.4586(12)
C12 C 0.363(2) -0.5110(8) 0.4305(12)
H3 H 0.4164 -0.5205 0.4071
C13 C 0.3306(16) -0.4513(8) 0.4364(9)
C14 C 0.254(2) -0.4419(9) 0.4737(12)
H4 H 0.2327 -0.4022 0.4820
C15 C 0.208(2) -0.4901(9) 0.4982(12)
C16 C 0.1029(19) -0.4863(8) 0.5241(9)
N3 N 0.0000 -0.3275(9) 0.2500
C17 C -0.017(2) -0.3571(8) 0.2998(9)
C18 C -0.0194(19) -0.4193(9) 0.3009(11)
H5 H -0.0341 -0.4400 0.3362
C19 C 0.0000 -0.4509(11) 0.2500
N4 N 0.0000 -0.6417(10) 0.2500
C20 C 0.029(2) -0.6105(7) 0.3041(9)
C21 C 0.032(2) -0.5488(9) 0.3056(11)
H6 H 0.0556 -0.5286 0.3454
C22 C 0.0000 -0.5159(14) 0.2500
Dy1_2 Dy -0.5000 -0.25308(5) 0.2500
Dy1B Dy 0.0000 -0.75308(5) 0.2500
Dy3A Dy 0.13864(8) -0.36984(7) 0.02572(5)
Dy3D Dy 0.13864(8) -0.63016(7) 0.52572(5)
Dy3_2 Dy -0.13864(8) -0.36984(7) 0.47428(5)
Dy3A_2 Dy -0.86136(8) -0.36984(7) 0.02572(5)
Dy3E Dy -0.13864(8) -0.63016(7) -0.02572(5)
O1A O 0.3560(12) -0.3244(6) 0.1983(6)
O1A_2 O -0.6440(12) -0.3244(6) 0.1983(6)
O2A O -0.7146(10) -0.3891(5) 0.1185(6)
O3A O 0.6740(11) -0.2259(6) 0.2247(6)
O3A_2 O -0.3260(11) -0.2259(6) 0.2247(6)
O4A O -0.1764(12) -0.2531(6) 0.1890(7)
O5A O -0.304(2) -0.6573(10) 0.0102(13)
O5D O 0.696(2) -0.3427(10) 0.5102(13)
O5E O -0.696(2) -0.3427(10) -0.0102(13)
O6A O -0.411(3) -0.6375(11) 0.0766(16)
O7A O -0.116(2) -0.5271(10) -0.0695(12)
O7D O 0.884(2) -0.4729(10) 0.4305(12)
O7E O -0.884(2) -0.4729(10) 0.0695(12)
O8A O -0.016(3) -0.4475(10) -0.0027(14)
O9A O 0.0427(14) -0.2627(7) 0.1578(7)
O10A O 0.0367(14) -0.3451(9) 0.0971(7)
O10_2 O 0.9633(14) -0.3451(9) 0.4029(7)
O10A_2 O -0.9633(14) -0.3451(9) 0.0971(7)
O11C O 0.4235(13) -0.2058(6) 0.1476(6)
O11B O 0.5765(13) -0.2058(6) 0.3524(6)
O11A O -0.0765(13) -0.7058(6) 0.1476(6)
O12A O -0.0885(17) -0.6241(8) 0.0866(8)
O12D O 0.9115(17) -0.3759(8) 0.5866(8)
O12E O -0.9115(17) -0.3759(8) -0.0866(8)
O13A O -0.1478(13) -0.1555(7) 0.2819(9)
O14A O -0.0765(16) -0.1424(8) 0.1630(10)
O15A O -0.805(3) -0.2715(10) 0.0654(14)
O16A O -1.047(4) -0.330(2) -0.0285(19)
N1A N 0.5507(13) -0.3163(6) 0.1684(7)
N1A_2 N -0.4493(13) -0.3163(6) 0.1684(7)
N2A N -0.2436(15) -0.5440(9) 0.0063(8)
N2D N 0.7564(15) -0.4560(9) 0.5063(8)
N2E N -0.7564(15) -0.4560(9) -0.0063(8)
C1A C 0.0351(18) -0.3177(12) 0.1481(10)
C2A C -0.0680(19) -0.6508(11) 0.1377(10)
C3A C -0.6359(14) -0.3579(7) 0.1530(8)
C4A C -0.5181(14) -0.3607(7) 0.1405(8)
C5A C -0.4847(14) -0.4044(8) 0.1048(8)
H1A H -0.5363 -0.4353 0.0852
C6A C -0.3724(14) -0.4027(7) 0.0979(8)
C7A C -0.3027(16) -0.3539(7) 0.1250(9)
H2A H -0.2277 -0.3496 0.1196
C8A C -0.3456(16) -0.3123(7) 0.1597(8)
C9A C -0.2760(16) -0.2595(8) 0.1936(8)
C10A C -0.345(4) -0.6216(10) 0.044(2)
C11A C -0.316(2) -0.5555(9) 0.0414(12)
C12A C -0.363(2) -0.5110(8) 0.0695(12)
H3A H -0.4164 -0.5205 0.0929
C13A C -0.3306(16) -0.4513(8) 0.0636(9)
C14A C -0.254(2) -0.4419(9) 0.0263(12)
H4A H -0.2327 -0.4022 0.0180
C15A C -0.208(2) -0.4901(9) 0.0018(12)
C16A C -0.1029(19) -0.4863(8) -0.0241(9)
C17A C 0.017(2) -0.3571(8) 0.2002(9)
C18A C 0.0194(19) -0.4193(9) 0.1991(11)
H5A H 0.0341 -0.4400 0.1638
N4B N 0.5000 -0.1417(10) 0.2500
C20A C -0.029(2) -0.6105(7) 0.1959(9)
C21A C -0.032(2) -0.5488(9) 0.1944(11)
H6A H -0.0556 -0.5286 0.1546
loop_
_geom_bond_atom_site_label_1
_geom_bond_atom_site_label_2
_geom_bond_site_symmetry_1
_geom_bond_site_symmetry_2
Dy1 O1 1_555 1_555
Dy2 O4 1_555 1_555
Dy3 O2 1_555 1_555
O1 C3 1_555 1_555
O2 C3 1_555 1_555
O3 Dy1 1_555 1_555
O4 C9 1_555 1_555
O5 C10 1_555 1_555
O6 C10 1_555 1_555
O7 C16 1_555 1_555
O8 C16 1_555 1_555
O9 Dy2 1_555 1_555
O10 C1 1_555 1_555
O11 C2 1_555 1_555
O12 C2 1_555 1_555
O13 Dy2 1_555 1_555
O14 Dy2 1_555 1_555
O15 Dy3 1_555 1_555
O16 Dy3 1_555 1_555
N1 Dy1 1_555 1_555
N2 C11 1_555 1_555
C1 O9 1_555 1_555
C2 C20 1_555 1_555
C3 C4 1_555 1_555
C4 N1 1_555 1_555
C5 C4 1_555 1_555
H1 C5 1_555 1_555
C6 C5 1_555 1_555
C7 C6 1_555 1_555
H2 C7 1_555 1_555
C8 N1 1_555 1_555
C9 O3 1_555 1_555
C10 C11 1_555 1_555
C11 C12 1_555 1_555
C12 H3 1_555 1_555
C13 C6 1_555 1_555
C14 C13 1_555 1_555
H4 C14 1_555 1_555
C15 N2 1_555 1_555
C16 C15 1_555 1_555
N3 Dy2 1_555 1_555
C17 C1 1_555 1_555
C18 C17 1_555 1_555
H5 C18 1_555 1_555
C19 C18 1_555 1_555
N4 C20 1_555 1_555
C20 C21 1_555 1_555
C21 H6 1_555 1_555
C22 C19 1_555 1_555
Dy1_2 O1A_2 1_555 1_555
Dy1B O11 1_555 1_555
Dy3A O10A 1_555 1_555
Dy3D O5 1_555 1_555
Dy3_2 O10 1_555 1_555
Dy3A_2 O2A 1_555 1_555
Dy3E O5A 1_555 1_555
O1A Dy1 1_555 1_555
O1A_2 C3A 1_555 1_555
O2A C3A 1_555 1_555
O3A Dy1 1_555 1_555
O3A_2 Dy1_2 1_555 1_555
O4A Dy2 1_555 1_555
O5A C10A 1_555 1_555
O5D Dy3 1_555 1_555
O5E Dy3A_2 1_555 1_555
O6A C10A 1_555 1_555
O7A Dy3E 1_555 1_555
O7D Dy3 1_555 1_555
O7E Dy3A_2 1_555 1_555
O8A C16A 1_555 1_555
O9A Dy2 1_555 1_555
O10A C1A 1_555 1_555
O10_2 Dy3 1_555 1_555
O10A_2 Dy3A_2 1_555 1_555
O11C Dy1 1_555 1_555
O11B Dy1 1_555 1_555
O11A Dy1B 1_555 1_555
O12A Dy3E 1_555 1_555
O12D Dy3 1_555 1_555
O12E Dy3A_2 1_555 1_555
O13A Dy2 1_555 1_555
O14A Dy2 1_555 1_555
O15A Dy3A_2 1_555 1_555
O16A Dy3A_2 1_555 1_555
N1A Dy1 1_555 1_555
N1A_2 Dy1_2 1_555 1_555
N2A Dy3E 1_555 1_555
N2D Dy3 1_555 1_555
N2E Dy3A_2 1_555 1_555
C1A O9A 1_555 1_555
C2A O11A 1_555 1_555
C3A C4A 1_555 1_555
C4A N1A_2 1_555 1_555
C5A C4A 1_555 1_555
H1A C5A 1_555 1_555
C6A C5A 1_555 1_555
C7A C6A 1_555 1_555
H2A C7A 1_555 1_555
C8A N1A_2 1_555 1_555
C9A O3A_2 1_555 1_555
C10A C11A 1_555 1_555
C11A N2A 1_555 1_555
C12A C11A 1_555 1_555
H3A C12A 1_555 1_555
C13A C6A 1_555 1_555
C14A C13A 1_555 1_555
H4A C14A 1_555 1_555
C15A N2A 1_555 1_555
C16A O7A 1_555 1_555
C17A N3 1_555 1_555
C18A C19 1_555 1_555
H5A C18A 1_555 1_555
N4B Dy1 1_555 1_555
C20A N4 1_555 1_555
C21A C22 1_555 1_555
H6A C21A 1_555 1_555
O7 Dy3D 1_555 1_555
O12 Dy3D 1_555 1_555
N2 Dy3D 1_555 1_555
C7 C8 1_555 1_555
C8 C9 1_555 1_555
C12 C13 1_555 1_555
C14 C15 1_555 1_555
N3 C17 1_555 1_555
N4 Dy1B 1_555 1_555
C21 C22 1_555 1_555
O4A C9A 1_555 1_555
O12A C2A 1_555 1_555
C1A C17A 1_555 1_555
C2A C20A 1_555 1_555
C7A C8A 1_555 1_555
C8A C9A 1_555 1_555
C12A C13A 1_555 1_555
C14A C15A 1_555 1_555
C15A C16A 1_555 1_555
C17A C18A 1_555 1_555
C20A C21A 1_555 1_555

#END
