
#######################################################################
#
#                 Cambridge Crystallographic Data Centre
#                                CCDC 
#
#######################################################################
#
# If this CIF has been generated from an entry in the Cambridge 
# Structural Database, then it will include bibliographic, chemical, 
# crystal, experimental, refinement or atomic coordinate data resulting 
# from the CCDC's data processing and validation procedures.
#
#######################################################################

data_COYVES01
_symmetry_cell_setting           monoclinic
_symmetry_space_group_name_H-M   'C 2/c'
_symmetry_Int_Tables_number      15
_space_group_name_Hall           '-C 2yn'
loop_
_symmetry_equiv_pos_site_id
_symmetry_equiv_pos_as_xyz
1 x,y,z
2 -x,y,1/2-z
3 1/2+x,1/2+y,z
4 1/2-x,1/2+y,1/2-z
5 -x,-y,-z
6 x,-y,1/2+z
7 1/2-x,1/2-y,-z
8 1/2+x,1/2-y,1/2+z
_cell_length_a                   12.126(2)
_cell_length_b                   22.270(5)
_cell_length_c                   21.568(5)
_cell_angle_alpha                90
_cell_angle_beta                 105.283(10)
_cell_angle_gamma                90
_cell_volume                     5618.38
loop_
_atom_site_label
_atom_site_type_symbol
_atom_site_fract_x
_atom_site_fract_y
_atom_site_fract_z
Ho1 Ho 0.0000 0.21487(6) 0.2500
Ho2 Ho 0.5000 0.25307(6) 0.2500
Ho3 Ho 0.86040(10) 0.36959(9) 0.47434(6)
O1 O 0.6440(13) 0.3248(8) 0.3020(7)
O2 O 0.7154(12) 0.3885(6) 0.3819(6)
O3 O 0.326(2) 0.2257(9) 0.2743(11)
O4 O 0.176(3) 0.2548(14) 0.3100(12)
O5 O 0.3012(14) 0.6573(8) 0.4893(8)
O6 O 0.408(3) 0.6393(10) 0.4230(15)
O7 O 0.0565(19) 0.5453(9) 0.5336(10)
O8 O 0.160(3) 0.4533(12) 0.5815(11)
O9 O -0.0423(17) 0.2634(9) 0.3426(8)
O10 O -0.0358(16) 0.3453(11) 0.4041(8)
O11 O 0.0749(15) 0.7070(7) 0.3525(7)
O12 O 0.0871(19) 0.6252(9) 0.4148(10)
O13 O 0.1473(17) 0.1565(9) 0.2173(11)
O14 O 0.0781(18) 0.1443(9) 0.3367(11)
O15 O 0.810(3) 0.2731(12) 0.4378(16)
O16 O 1.057(5) 0.338(3) 0.530(2)
N1 N 0.4492(15) 0.3164(7) 0.3307(7)
N2 N 0.2446(16) 0.5446(10) 0.4938(8)
C1 C -0.036(2) 0.3187(14) 0.3523(12)
C2 C 0.069(2) 0.6523(12) 0.3614(12)
C3 C 0.6368(16) 0.3585(9) 0.3478(9)
C4 C 0.5179(16) 0.3605(8) 0.3599(9)
C5 C 0.4840(16) 0.4044(8) 0.3948(9)
H1 H 0.5361 0.4350 0.4144
C6 C 0.3728(16) 0.4044(9) 0.4016(9)
C7 C 0.3036(18) 0.3551(8) 0.3747(10)
H2 H 0.2289 0.3511 0.3804
C8 C 0.3450(18) 0.3129(8) 0.3403(9)
C9 C 0.2790(19) 0.2588(9) 0.3044(10)
C10 C 0.348(3) 0.6233(12) 0.457(2)
C11 C 0.317(2) 0.5567(11) 0.4586(14)
C12 C 0.362(2) 0.5118(9) 0.4297(14)
H3 H 0.4147 0.5211 0.4052
C13 C 0.3313(18) 0.4521(10) 0.4360(10)
C14 C 0.253(2) 0.4426(10) 0.4734(13)
H4 H 0.2308 0.4030 0.4810
C15 C 0.210(2) 0.4907(12) 0.4985(14)
C16 C 0.1296(17) 0.5000(9) 0.5418(11)
N3 N 0.0000 0.3274(11) 0.2500
C17 C -0.016(2) 0.3579(9) 0.2993(10)
C18 C -0.019(2) 0.4189(10) 0.3000(14)
H5 H -0.0339 0.4392 0.3356
C19 C 0.0000 0.4512(12) 0.2500
N4 N 0.0000 0.6424(10) 0.2500
C20 C 0.030(2) 0.6114(9) 0.3039(11)
C21 C 0.030(3) 0.5506(10) 0.3059(13)
H6 H 0.0515 0.5303 0.3461
C22 C 0.0000 0.5188(13) 0.2500
Ho2B Ho 0.0000 0.75307(6) 0.2500
Ho2_2 Ho -0.5000 0.25307(6) 0.2500
Ho3A Ho -0.86040(10) 0.36959(9) 0.02566(6)
Ho3D Ho 0.13960(10) 0.63041(9) 0.52566(6)
Ho3_2 Ho -0.13960(10) 0.36959(9) 0.47434(6)
Ho3A_2 Ho 0.13960(10) 0.36959(9) 0.02566(6)
Ho3E Ho -0.13960(10) 0.63041(9) -0.02566(6)
O1A O -0.6440(13) 0.3248(8) 0.1980(7)
O1A_2 O 0.3560(13) 0.3248(8) 0.1980(7)
O2A O -0.7154(12) 0.3885(6) 0.1181(6)
O3A O -0.326(2) 0.2257(9) 0.2257(11)
O3A_2 O 0.674(2) 0.2257(9) 0.2257(11)
O4A O -0.176(3) 0.2548(14) 0.1900(12)
O5A O -0.3012(14) 0.6573(8) 0.0107(8)
O5D O 0.6988(14) 0.3427(8) 0.5107(8)
O5E O -0.6988(14) 0.3427(8) -0.0107(8)
O6A O -0.408(3) 0.6393(10) 0.0770(15)
O7A O -0.0565(19) 0.5453(9) -0.0336(10)
O7D O 0.9435(19) 0.4547(9) 0.4664(10)
O7E O -0.9435(19) 0.4547(9) 0.0336(10)
O8A O -0.160(3) 0.4533(12) -0.0815(11)
O9A O 0.0423(17) 0.2634(9) 0.1574(8)
O10A O 0.0358(16) 0.3453(11) 0.0959(8)
O10_2 O 0.9642(16) 0.3453(11) 0.4041(8)
O10A_2 O -0.9642(16) 0.3453(11) 0.0959(8)
O11A O -0.0749(15) 0.7070(7) 0.1475(7)
O11B O 0.5749(15) 0.2070(7) 0.3525(7)
O11C O 0.4251(15) 0.2070(7) 0.1475(7)
O12A O -0.0871(19) 0.6252(9) 0.0852(10)
O12D O 0.9129(19) 0.3748(9) 0.5852(10)
O12E O -0.9129(19) 0.3748(9) -0.0852(10)
O13A O -0.1473(17) 0.1565(9) 0.2827(11)
O14A O -0.0781(18) 0.1443(9) 0.1633(11)
O15A O -0.810(3) 0.2731(12) 0.0622(16)
O16A O -1.057(5) 0.338(3) -0.030(2)
N1A N -0.4492(15) 0.3164(7) 0.1693(7)
N1A_2 N 0.5508(15) 0.3164(7) 0.1693(7)
N2A N -0.2446(16) 0.5446(10) 0.0062(8)
N2D N 0.7554(16) 0.4554(10) 0.5062(8)
N2E N -0.7554(16) 0.4554(10) -0.0062(8)
C1A C 0.036(2) 0.3187(14) 0.1477(12)
C2A C -0.069(2) 0.6523(12) 0.1386(12)
C3A C -0.6368(16) 0.3585(9) 0.1522(9)
C4A C -0.5179(16) 0.3605(8) 0.1401(9)
C5A C -0.4840(16) 0.4044(8) 0.1052(9)
H1A H -0.5361 0.4350 0.0856
C6A C -0.3728(16) 0.4044(9) 0.0984(9)
C7A C -0.3036(18) 0.3551(8) 0.1253(10)
H2A H -0.2289 0.3511 0.1196
C8A C -0.3450(18) 0.3129(8) 0.1597(9)
C9A C -0.2790(19) 0.2588(9) 0.1956(10)
C10A C -0.348(3) 0.6233(12) 0.043(2)
C11A C -0.317(2) 0.5567(11) 0.0414(14)
C12A C -0.362(2) 0.5118(9) 0.0703(14)
H3A H -0.4147 0.5211 0.0948
C13A C -0.3313(18) 0.4521(10) 0.0640(10)
C14A C -0.253(2) 0.4426(10) 0.0266(13)
H4A H -0.2308 0.4030 0.0190
C15A C -0.210(2) 0.4907(12) 0.0015(14)
C16A C -0.1296(17) 0.5000(9) -0.0418(11)
C17A C 0.016(2) 0.3579(9) 0.2007(10)
C18A C 0.019(2) 0.4189(10) 0.2000(14)
H5A H 0.0339 0.4392 0.1644
N4B N 0.5000 0.1424(10) 0.2500
C20A C -0.030(2) 0.6114(9) 0.1961(11)
C21A C -0.030(3) 0.5506(10) 0.1941(13)
H6A H -0.0515 0.5303 0.1539
loop_
_geom_bond_atom_site_label_1
_geom_bond_atom_site_label_2
_geom_bond_site_symmetry_1
_geom_bond_site_symmetry_2
Ho1 O4 1_555 1_555
Ho2 O1 1_555 1_555
Ho3 O2 1_555 1_555
O1 C3 1_555 1_555
O2 C3 1_555 1_555
O3 Ho2 1_555 1_555
O4 C9 1_555 1_555
O5 C10 1_555 1_555
O6 C10 1_555 1_555
O7 C16 1_555 1_555
O8 C16 1_555 1_555
O9 Ho1 1_555 1_555
O10 C1 1_555 1_555
O11 C2 1_555 1_555
O12 C2 1_555 1_555
O13 Ho1 1_555 1_555
O14 Ho1 1_555 1_555
O15 Ho3 1_555 1_555
O16 Ho3 1_555 1_555
N1 Ho2 1_555 1_555
N2 C11 1_555 1_555
C1 O9 1_555 1_555
C2 C20 1_555 1_555
C3 C4 1_555 1_555
C4 N1 1_555 1_555
C5 C4 1_555 1_555
H1 C5 1_555 1_555
C6 C5 1_555 1_555
C7 C6 1_555 1_555
H2 C7 1_555 1_555
C8 N1 1_555 1_555
C9 O3 1_555 1_555
C10 C11 1_555 1_555
C11 C12 1_555 1_555
C12 H3 1_555 1_555
C13 C6 1_555 1_555
C14 C13 1_555 1_555
H4 C14 1_555 1_555
C15 N2 1_555 1_555
C16 C15 1_555 1_555
N3 Ho1 1_555 1_555
C17 C1 1_555 1_555
C18 C17 1_555 1_555
H5 C18 1_555 1_555
C19 C18 1_555 1_555
N4 C20 1_555 1_555
C20 C21 1_555 1_555
C21 H6 1_555 1_555
C22 C19 1_555 1_555
Ho2B O11 1_555 1_555
Ho2_2 O1A 1_555 1_555
Ho3A O2A 1_555 1_555
Ho3D O5 1_555 1_555
Ho3_2 O10 1_555 1_555
Ho3A_2 O10A 1_555 1_555
Ho3E O5A 1_555 1_555
O1A C3A 1_555 1_555
O1A_2 Ho2 1_555 1_555
O2A C3A 1_555 1_555
O3A Ho2_2 1_555 1_555
O3A_2 Ho2 1_555 1_555
O4A Ho1 1_555 1_555
O5A C10A 1_555 1_555
O5D Ho3 1_555 1_555
O5E Ho3A 1_555 1_555
O6A C10A 1_555 1_555
O7A Ho3E 1_555 1_555
O7D Ho3 1_555 1_555
O7E Ho3A 1_555 1_555
O8A C16A 1_555 1_555
O9A Ho1 1_555 1_555
O10A C1A 1_555 1_555
O10_2 Ho3 1_555 1_555
O10A_2 Ho3A 1_555 1_555
O11A Ho2B 1_555 1_555
O11B Ho2 1_555 1_555
O11C Ho2 1_555 1_555
O12A Ho3E 1_555 1_555
O12D Ho3 1_555 1_555
O12E Ho3A 1_555 1_555
O13A Ho1 1_555 1_555
O14A Ho1 1_555 1_555
O15A Ho3A 1_555 1_555
O16A Ho3A 1_555 1_555
N1A Ho2_2 1_555 1_555
N1A_2 Ho2 1_555 1_555
N2A Ho3E 1_555 1_555
N2D Ho3 1_555 1_555
N2E Ho3A 1_555 1_555
C1A O9A 1_555 1_555
C2A O11A 1_555 1_555
C3A C4A 1_555 1_555
C4A N1A 1_555 1_555
C5A C4A 1_555 1_555
H1A C5A 1_555 1_555
C6A C5A 1_555 1_555
C7A C6A 1_555 1_555
H2A C7A 1_555 1_555
C8A N1A 1_555 1_555
C9A O3A 1_555 1_555
C10A C11A 1_555 1_555
C11A N2A 1_555 1_555
C12A C11A 1_555 1_555
H3A C12A 1_555 1_555
C13A C6A 1_555 1_555
C14A C13A 1_555 1_555
H4A C14A 1_555 1_555
C15A N2A 1_555 1_555
C16A O7A 1_555 1_555
C17A N3 1_555 1_555
C18A C19 1_555 1_555
H5A C18A 1_555 1_555
N4B Ho2 1_555 1_555
C20A N4 1_555 1_555
C21A C22 1_555 1_555
H6A C21A 1_555 1_555
O7 Ho3D 1_555 1_555
O12 Ho3D 1_555 1_555
N2 Ho3D 1_555 1_555
C7 C8 1_555 1_555
C8 C9 1_555 1_555
C12 C13 1_555 1_555
C14 C15 1_555 1_555
N3 C17 1_555 1_555
N4 Ho2B 1_555 1_555
C21 C22 1_555 1_555
O4A C9A 1_555 1_555
O12A C2A 1_555 1_555
C1A C17A 1_555 1_555
C2A C20A 1_555 1_555
C7A C8A 1_555 1_555
C8A C9A 1_555 1_555
C12A C13A 1_555 1_555
C14A C15A 1_555 1_555
C15A C16A 1_555 1_555
C17A C18A 1_555 1_555
C20A C21A 1_555 1_555

#END
