
#######################################################################
#
#                 Cambridge Crystallographic Data Centre
#                                CCDC 
#
#######################################################################
#
# If this CIF has been generated from an entry in the Cambridge 
# Structural Database, then it will include bibliographic, chemical, 
# crystal, experimental, refinement or atomic coordinate data resulting 
# from the CCDC's data processing and validation procedures.
#
#######################################################################

data_COYVES
_symmetry_cell_setting           monoclinic
_symmetry_space_group_name_H-M   'C 2/c'
_symmetry_Int_Tables_number      15
_space_group_name_Hall           '-C 2yn'
loop_
_symmetry_equiv_pos_site_id
_symmetry_equiv_pos_as_xyz
1 x,y,z
2 -x,y,1/2-z
3 1/2+x,1/2+y,z
4 1/2-x,1/2+y,1/2-z
5 -x,-y,-z
6 x,-y,1/2+z
7 1/2-x,1/2-y,-z
8 1/2+x,1/2-y,1/2+z
_cell_length_a                   12.126(2)
_cell_length_b                   22.270(5)
_cell_length_c                   21.568(5)
_cell_angle_alpha                90
_cell_angle_beta                 105.283(10)
_cell_angle_gamma                90
_cell_volume                     5618.38
loop_
_atom_site_label
_atom_site_type_symbol
_atom_site_fract_x
_atom_site_fract_y
_atom_site_fract_z
Ho1 Ho 0.0000 0.21489(7) 0.2500
Ho2 Ho 0.5000 0.25311(7) 0.2500
Ho3 Ho 0.86037(11) 0.36964(10) 0.47432(6)
O1 O 0.6443(15) 0.3244(8) 0.3021(8)
O2 O 0.7156(13) 0.3886(7) 0.3820(7)
O3 O 0.326(2) 0.2259(10) 0.2743(12)
O4 O 0.176(3) 0.2546(15) 0.3099(13)
O5 O 0.3010(15) 0.6572(9) 0.4888(9)
O6 O 0.408(4) 0.6389(11) 0.4226(17)
O7 O 0.052(2) 0.5447(10) 0.5315(11)
O8 O 0.158(3) 0.4562(13) 0.5804(12)
O9 O -0.0430(18) 0.2633(10) 0.3423(9)
O10 O -0.0366(18) 0.3455(12) 0.4038(9)
O11 O 0.0749(17) 0.7070(8) 0.3524(8)
O12 O 0.088(2) 0.6248(10) 0.4144(11)
O13 O 0.1471(19) 0.1569(10) 0.2172(13)
O14 O 0.078(2) 0.1445(10) 0.3366(12)
O15 O 0.808(4) 0.2726(13) 0.4366(18)
O16 O 1.053(5) 0.336(3) 0.531(3)
N1 N 0.4492(16) 0.3162(8) 0.3306(8)
N2 N 0.2442(18) 0.5443(11) 0.4938(9)
C1 C -0.037(3) 0.3175(16) 0.3521(14)
C2 C 0.069(2) 0.6522(13) 0.3613(13)
C3 C 0.6365(19) 0.3582(10) 0.3480(10)
C4 C 0.5176(17) 0.3604(9) 0.3597(10)
C5 C 0.4839(17) 0.4043(10) 0.3949(10)
H1 H 0.5362 0.4347 0.4148
C6 C 0.3728(18) 0.4045(10) 0.4015(10)
C7 C 0.304(2) 0.3547(9) 0.3746(10)
H2 H 0.2295 0.3505 0.3806
C8 C 0.344(2) 0.3126(9) 0.3400(10)
C9 C 0.279(2) 0.2587(10) 0.3041(11)
C10 C 0.347(4) 0.6228(13) 0.456(2)
C11 C 0.317(3) 0.5564(12) 0.4587(15)
C12 C 0.362(3) 0.5117(10) 0.4298(15)
H3 H 0.4152 0.5211 0.4056
C13 C 0.331(2) 0.4524(11) 0.4357(12)
C14 C 0.252(3) 0.4432(11) 0.4729(15)
H4 H 0.2283 0.4036 0.4798
C15 C 0.210(3) 0.4906(13) 0.4986(15)
C16 C 0.1271(18) 0.5012(10) 0.5397(12)
N3 N 0.0000 0.3272(12) 0.2500
C17 C -0.016(2) 0.3576(10) 0.2997(11)
C18 C -0.018(3) 0.4189(11) 0.3009(15)
H5 H -0.0321 0.4394 0.3367
C19 C 0.0000 0.4509(15) 0.2500
N4 N 0.0000 0.6425(11) 0.2500
C20 C 0.031(3) 0.6115(10) 0.3042(12)
C21 C 0.030(3) 0.5502(11) 0.3066(14)
H6 H 0.0498 0.5299 0.3467
C22 C 0.0000 0.5185(14) 0.2500
Ho2B Ho 0.0000 0.75311(7) 0.2500
Ho2_2 Ho -0.5000 0.25311(7) 0.2500
Ho3A Ho -0.86037(11) 0.36964(10) 0.02568(6)
Ho3D Ho 0.13963(11) 0.63036(10) 0.52568(6)
Ho3_2 Ho -0.13963(11) 0.36964(10) 0.47432(6)
Ho3A_2 Ho 0.13963(11) 0.36964(10) 0.02568(6)
Ho3E Ho -0.13963(11) 0.63036(10) -0.02568(6)
O1A O -0.6443(15) 0.3244(8) 0.1979(8)
O1A_2 O 0.3557(15) 0.3244(8) 0.1979(8)
O2A O -0.7156(13) 0.3886(7) 0.1180(7)
O3A O -0.326(2) 0.2259(10) 0.2257(12)
O3A_2 O 0.674(2) 0.2259(10) 0.2257(12)
O4A O -0.176(3) 0.2546(15) 0.1901(13)
O5A O -0.3010(15) 0.6572(9) 0.0112(9)
O5D O 0.6990(15) 0.3428(9) 0.5112(9)
O5E O -0.6990(15) 0.3428(9) -0.0112(9)
O6A O -0.408(4) 0.6389(11) 0.0774(17)
O7A O -0.052(2) 0.5447(10) -0.0315(11)
O7D O 0.948(2) 0.4553(10) 0.4685(11)
O7E O -0.948(2) 0.4553(10) 0.0315(11)
O8A O -0.158(3) 0.4562(13) -0.0804(12)
O9A O 0.0430(18) 0.2633(10) 0.1577(9)
O10A O 0.0366(18) 0.3455(12) 0.0962(9)
O10_2 O 0.9634(18) 0.3455(12) 0.4038(9)
O10A_2 O -0.9634(18) 0.3455(12) 0.0962(9)
O11A O -0.0749(17) 0.7070(8) 0.1476(8)
O11B O 0.5749(17) 0.2070(8) 0.3524(8)
O11C O 0.4251(17) 0.2070(8) 0.1476(8)
O12A O -0.088(2) 0.6248(10) 0.0856(11)
O12D O 0.912(2) 0.3752(10) 0.5856(11)
O12E O -0.912(2) 0.3752(10) -0.0856(11)
O13A O -0.1471(19) 0.1569(10) 0.2828(13)
O14A O -0.078(2) 0.1445(10) 0.1634(12)
O15A O -0.808(4) 0.2726(13) 0.0634(18)
O16A O -1.053(5) 0.336(3) -0.031(3)
N1A N -0.4492(16) 0.3162(8) 0.1694(8)
N1A_2 N 0.5508(16) 0.3162(8) 0.1694(8)
N2A N -0.2442(18) 0.5443(11) 0.0062(9)
N2D N 0.7558(18) 0.4557(11) 0.5062(9)
N2E N -0.7558(18) 0.4557(11) -0.0062(9)
C1A C 0.037(3) 0.3175(16) 0.1479(14)
C2A C -0.069(2) 0.6522(13) 0.1387(13)
C3A C -0.6365(19) 0.3582(10) 0.1520(10)
C4A C -0.5176(17) 0.3604(9) 0.1403(10)
C5A C -0.4839(17) 0.4043(10) 0.1051(10)
H1A H -0.5362 0.4347 0.0852
C6A C -0.3728(18) 0.4045(10) 0.0985(10)
C7A C -0.304(2) 0.3547(9) 0.1254(10)
H2A H -0.2295 0.3505 0.1194
C8A C -0.344(2) 0.3126(9) 0.1600(10)
C9A C -0.279(2) 0.2587(10) 0.1959(11)
C10A C -0.347(4) 0.6228(13) 0.044(2)
C11A C -0.317(3) 0.5564(12) 0.0413(15)
C12A C -0.362(3) 0.5117(10) 0.0702(15)
H3A H -0.4152 0.5211 0.0944
C13A C -0.331(2) 0.4524(11) 0.0643(12)
C14A C -0.252(3) 0.4432(11) 0.0271(15)
H4A H -0.2283 0.4036 0.0202
C15A C -0.210(3) 0.4906(13) 0.0014(15)
C16A C -0.1271(18) 0.5012(10) -0.0397(12)
C17A C 0.016(2) 0.3576(10) 0.2003(11)
C18A C 0.018(3) 0.4189(11) 0.1991(15)
H5A H 0.0321 0.4394 0.1633
N4B N 0.5000 0.1425(11) 0.2500
C20A C -0.031(3) 0.6115(10) 0.1958(12)
C21A C -0.030(3) 0.5502(11) 0.1934(14)
H6A H -0.0498 0.5299 0.1533
loop_
_geom_bond_atom_site_label_1
_geom_bond_atom_site_label_2
_geom_bond_site_symmetry_1
_geom_bond_site_symmetry_2
Ho1 O4 1_555 1_555
Ho2 O1 1_555 1_555
Ho3 O2 1_555 1_555
O1 C3 1_555 1_555
O2 C3 1_555 1_555
O3 Ho2 1_555 1_555
O4 C9 1_555 1_555
O5 C10 1_555 1_555
O6 C10 1_555 1_555
O7 C16 1_555 1_555
O8 C16 1_555 1_555
O9 Ho1 1_555 1_555
O10 C1 1_555 1_555
O11 C2 1_555 1_555
O12 C2 1_555 1_555
O13 Ho1 1_555 1_555
O14 Ho1 1_555 1_555
O15 Ho3 1_555 1_555
O16 Ho3 1_555 1_555
N1 Ho2 1_555 1_555
N2 C11 1_555 1_555
C1 O9 1_555 1_555
C2 C20 1_555 1_555
C3 C4 1_555 1_555
C4 N1 1_555 1_555
C5 C4 1_555 1_555
H1 C5 1_555 1_555
C6 C5 1_555 1_555
C7 C6 1_555 1_555
H2 C7 1_555 1_555
C8 N1 1_555 1_555
C9 O3 1_555 1_555
C10 C11 1_555 1_555
C11 C12 1_555 1_555
C12 H3 1_555 1_555
C13 C6 1_555 1_555
C14 C13 1_555 1_555
H4 C14 1_555 1_555
C15 N2 1_555 1_555
C16 C15 1_555 1_555
N3 Ho1 1_555 1_555
C17 C1 1_555 1_555
C18 C17 1_555 1_555
H5 C18 1_555 1_555
C19 C18 1_555 1_555
N4 C20 1_555 1_555
C20 C21 1_555 1_555
C21 H6 1_555 1_555
C22 C19 1_555 1_555
Ho2B O11 1_555 1_555
Ho2_2 O1A 1_555 1_555
Ho3A O2A 1_555 1_555
Ho3D O5 1_555 1_555
Ho3_2 O10 1_555 1_555
Ho3A_2 O10A 1_555 1_555
Ho3E O5A 1_555 1_555
O1A C3A 1_555 1_555
O1A_2 Ho2 1_555 1_555
O2A C3A 1_555 1_555
O3A Ho2_2 1_555 1_555
O3A_2 Ho2 1_555 1_555
O4A Ho1 1_555 1_555
O5A C10A 1_555 1_555
O5D Ho3 1_555 1_555
O5E Ho3A 1_555 1_555
O6A C10A 1_555 1_555
O7A Ho3E 1_555 1_555
O7D Ho3 1_555 1_555
O7E Ho3A 1_555 1_555
O8A C16A 1_555 1_555
O9A Ho1 1_555 1_555
O10A C1A 1_555 1_555
O10_2 Ho3 1_555 1_555
O10A_2 Ho3A 1_555 1_555
O11A Ho2B 1_555 1_555
O11B Ho2 1_555 1_555
O11C Ho2 1_555 1_555
O12A Ho3E 1_555 1_555
O12D Ho3 1_555 1_555
O12E Ho3A 1_555 1_555
O13A Ho1 1_555 1_555
O14A Ho1 1_555 1_555
O15A Ho3A 1_555 1_555
O16A Ho3A 1_555 1_555
N1A Ho2_2 1_555 1_555
N1A_2 Ho2 1_555 1_555
N2A Ho3E 1_555 1_555
N2D Ho3 1_555 1_555
N2E Ho3A 1_555 1_555
C1A O9A 1_555 1_555
C2A O11A 1_555 1_555
C3A C4A 1_555 1_555
C4A N1A 1_555 1_555
C5A C4A 1_555 1_555
H1A C5A 1_555 1_555
C6A C5A 1_555 1_555
C7A C6A 1_555 1_555
H2A C7A 1_555 1_555
C8A N1A 1_555 1_555
C9A O3A 1_555 1_555
C10A C11A 1_555 1_555
C11A N2A 1_555 1_555
C12A C11A 1_555 1_555
H3A C12A 1_555 1_555
C13A C6A 1_555 1_555
C14A C13A 1_555 1_555
H4A C14A 1_555 1_555
C15A N2A 1_555 1_555
C16A O7A 1_555 1_555
C17A N3 1_555 1_555
C18A C19 1_555 1_555
H5A C18A 1_555 1_555
N4B Ho2 1_555 1_555
C20A N4 1_555 1_555
C21A C22 1_555 1_555
H6A C21A 1_555 1_555
O7 Ho3D 1_555 1_555
O12 Ho3D 1_555 1_555
N2 Ho3D 1_555 1_555
C7 C8 1_555 1_555
C8 C9 1_555 1_555
C12 C13 1_555 1_555
C14 C15 1_555 1_555
N3 C17 1_555 1_555
N4 Ho2B 1_555 1_555
C21 C22 1_555 1_555
O4A C9A 1_555 1_555
O12A C2A 1_555 1_555
C1A C17A 1_555 1_555
C2A C20A 1_555 1_555
C7A C8A 1_555 1_555
C8A C9A 1_555 1_555
C12A C13A 1_555 1_555
C14A C15A 1_555 1_555
C15A C16A 1_555 1_555
C17A C18A 1_555 1_555
C20A C21A 1_555 1_555

#END
