
#######################################################################
#
#                 Cambridge Crystallographic Data Centre
#                                CCDC 
#
#######################################################################
#
# If this CIF has been generated from an entry in the Cambridge 
# Structural Database, then it will include bibliographic, chemical, 
# crystal, experimental, refinement or atomic coordinate data resulting 
# from the CCDC's data processing and validation procedures.
#
#######################################################################

data_COYYOE
_symmetry_cell_setting           monoclinic
_symmetry_space_group_name_H-M   'P 21/c'
_symmetry_Int_Tables_number      14
_space_group_name_Hall           '-P 2ybc'
loop_
_symmetry_equiv_pos_site_id
_symmetry_equiv_pos_as_xyz
1 x,y,z
2 -x,1/2+y,1/2-z
3 -x,-y,-z
4 x,1/2-y,1/2+z
_cell_length_a                   6.9580(8)
_cell_length_b                   17.302(3)
_cell_length_c                   7.003(2)
_cell_angle_alpha                90
_cell_angle_beta                 105.47(2)
_cell_angle_gamma                90
_cell_volume                     812.528
loop_
_atom_site_label
_atom_site_type_symbol
_atom_site_fract_x
_atom_site_fract_y
_atom_site_fract_z
La1 La 0.22980(2) 0.08200(1) 0.41524(1)
O1 O -0.0396(3) 0.1962(1) 0.3935(3)
O2 O 0.3382(3) 0.2168(1) 0.5526(4)
O3 O 0.2995(3) 0.3395(1) 0.6348(3)
O4 O -0.4039(3) 0.0644(1) 0.4619(3)
O5 O -0.0760(3) 0.0642(1) 0.5526(3)
O6 O -0.0855(3) 0.0685(1) 0.1396(3)
O7 O -0.2496(3) 0.0058(1) -0.1336(3)
O8 O 0.3801(3) 0.0729(1) 0.7906(3)
C1 C 0.0173(4) 0.2737(1) 0.4438(4)
C2 C 0.2375(4) 0.2758(1) 0.5533(4)
C3 C -0.2397(4) 0.1771(1) 0.3886(4)
C4 C -0.2397(3) 0.0967(1) 0.4736(4)
C5 C -0.0965(3) 0.0218(1) 0.0020(3)
H1 H 0.5174 0.0563 0.8409
H2 H 0.3040 0.0888 0.8828
H3 H -0.0724 0.2880 0.5280
H4 H 0.0076 0.3167 0.3410
H5 H -0.3384 0.1794 0.2445
H6 H -0.2860 0.2163 0.4645
C5B C 0.0965(3) -0.0218(1) -0.0020(3)
O6B O 0.0855(3) -0.0685(1) -0.1396(3)
O7B O 0.2496(3) -0.0058(1) 0.1336(3)
O1C O -0.0396(3) 0.3038(1) -0.1065(3)
O2C O 0.3382(3) 0.2832(1) 0.0526(4)
O3C O 0.2995(3) 0.1605(1) 0.1348(3)
O4C O -0.4039(3) 0.4356(1) -0.0381(3)
O5C O -0.0760(3) 0.4358(1) 0.0526(3)
C1C C 0.0173(4) 0.2263(1) -0.0562(4)
C2C C 0.2375(4) 0.2242(1) 0.0533(4)
C3C C -0.2397(4) 0.3229(1) -0.1114(4)
C4C C -0.2397(3) 0.4033(1) -0.0264(4)
H3C H -0.0724 0.2120 0.0280
H4C H 0.0076 0.1833 -0.1590
H5C H -0.3384 0.3206 -0.2555
H6C H -0.2860 0.2837 -0.0355
La1C La 0.22980(2) 0.41800(1) -0.08476(1)
O4_2 O 0.5961(3) 0.0644(1) 0.4619(3)
O4B O 0.4039(3) -0.0644(1) 0.5381(3)
O5B O 0.0760(3) -0.0642(1) 0.4474(3)
La1C_2 La 0.22980(2) 0.41800(1) 0.91524(1)
La1_2 La -0.77020(2) 0.08200(1) 0.41524(1)
La1B La -0.22980(2) -0.08200(1) 0.58476(1)
La1B_2 La -0.22980(2) -0.08200(1) -0.41524(1)
La1A La -0.22980(2) 0.58200(1) 0.08476(1)
La1C_3 La -0.77020(2) 0.41800(1) -0.08476(1)
O3_2 O 0.2995(3) 0.3395(1) -0.3652(3)
O4A O 0.4039(3) 0.5644(1) 0.0381(3)
O4C_2 O 0.5961(3) 0.4356(1) -0.0381(3)
O5A O 0.0760(3) 0.5642(1) -0.0526(3)
O6C O -0.0855(3) 0.4315(1) -0.3604(3)
O7A O 0.2496(3) 0.5058(1) -0.3664(3)
O8C O 0.3801(3) 0.4271(1) 0.2906(3)
H1C H 0.5174 0.4437 0.3409
H2C H 0.3040 0.4112 0.3828
loop_
_geom_bond_atom_site_label_1
_geom_bond_atom_site_label_2
_geom_bond_site_symmetry_1
_geom_bond_site_symmetry_2
La1 O1 1_555 1_555
O1 C1 1_555 1_555
O2 La1 1_555 1_555
O3 C2 1_555 1_555
O4 C4 1_555 1_555
O5 La1 1_555 1_555
O6 La1 1_555 1_555
O7 C5 1_555 1_555
O8 La1 1_555 1_555
C1 C2 1_555 1_555
C2 O2 1_555 1_555
C3 O1 1_555 1_555
C4 O5 1_555 1_555
C5 O6 1_555 1_555
H1 O8 1_555 1_555
H2 O8 1_555 1_555
H3 C1 1_555 1_555
H4 C1 1_555 1_555
H5 C3 1_555 1_555
H6 C3 1_555 1_555
C5B C5 1_555 1_555
O6B C5B 1_555 1_555
O7B La1 1_555 1_555
O1C C1C 1_555 1_555
O2C C2C 1_555 1_555
O3C La1 1_555 1_555
O4C C4C 1_555 1_555
O5C C4C 1_555 1_555
C1C C2C 1_555 1_555
C2C O3C 1_555 1_555
C3C O1C 1_555 1_555
C4C C3C 1_555 1_555
H3C C1C 1_555 1_555
H4C C1C 1_555 1_555
H5C C3C 1_555 1_555
H6C C3C 1_555 1_555
La1C O1C 1_555 1_555
O4_2 La1 1_555 1_555
O4B La1 1_555 1_555
O5B La1 1_555 1_555
La1C_2 O3 1_555 1_555
La1_2 O4 1_555 1_555
La1B O4 1_555 1_555
La1B_2 O7 1_555 1_555
La1A O4C 1_555 1_555
La1C_3 O4C 1_555 1_555
O3_2 La1C 1_555 1_555
O4A La1C 1_555 1_555
O4C_2 La1C 1_555 1_555
O5A La1C 1_555 1_555
O6C La1C 1_555 1_555
O7A La1C 1_555 1_555
O8C La1C 1_555 1_555
H1C O8C 1_555 1_555
H2C O8C 1_555 1_555
O5 La1B 1_555 1_555
C3 C4 1_555 1_555
C5B O7B 1_555 1_555
O6B La1B_2 1_555 1_555
O2C La1C 1_555 1_555
O5C La1C 1_555 1_555
O5C La1A 1_555 1_555
O5B La1B 1_555 1_555
La1A O5A 1_555 1_555

#END
