
#######################################################################
#
#                 Cambridge Crystallographic Data Centre
#                                CCDC 
#
#######################################################################
#
# If this CIF has been generated from an entry in the Cambridge 
# Structural Database, then it will include bibliographic, chemical, 
# crystal, experimental, refinement or atomic coordinate data resulting 
# from the CCDC's data processing and validation procedures.
#
#######################################################################

data_COZGON
_symmetry_cell_setting           monoclinic
_symmetry_space_group_name_H-M   'P 21'
_symmetry_Int_Tables_number      4
_space_group_name_Hall           'P 2yb'
loop_
_symmetry_equiv_pos_site_id
_symmetry_equiv_pos_as_xyz
1 x,y,z
2 -x,1/2+y,-z
_cell_length_a                   11.202(7)
_cell_length_b                   7.944(1)
_cell_length_c                   10.011(6)
_cell_angle_alpha                90
_cell_angle_beta                 102.55(7)
_cell_angle_gamma                90
_cell_volume                     869.58
loop_
_atom_site_label
_atom_site_type_symbol
_atom_site_fract_x
_atom_site_fract_y
_atom_site_fract_z
La1 La 0.4532(1) 0.2500 0.5503(1)
Cl1 Cl 0.5173(2) 0.0688(3) 0.3172(2)
Cl2 Cl 0.6308(2) -0.0118(3) 0.6690(2)
Cl3 Cl 0.3229(3) -0.0828(3) 0.4883(2)
O1 O 0.4213(5) 0.1924(6) 0.7840(5)
O2 O 0.2391(5) 0.2997(7) 0.5512(6)
O3 O 0.2656(6) -0.0901(7) 1.0349(6)
O4 O 0.0080(6) 0.5671(8) 0.7272(6)
C1 C 0.3767(8) 0.0996(12) 0.8627(9)
C2 C 0.3794(7) -0.0834(10) 0.8653(8)
C3 C 0.3195(26) -0.1652(30) 0.9404(26)
C4 C 0.3266(29) -0.3535(26) 0.9704(25)
C5 C 0.2627(8) 0.0819(10) 1.0429(8)
C6 C 0.1907(8) 0.1478(11) 1.1463(9)
C7 C 0.3155(7) 0.1807(10) 0.9628(8)
C8 C 0.1673(8) 0.3836(11) 0.6065(9)
C9 C 0.1583(8) 0.5698(11) 0.5970(9)
C10 C 0.0772(23) 0.6636(27) 0.6409(22)
C11 C 0.0613(24) 0.8509(23) 0.6703(23)
C12 C 0.0129(8) 0.3922(13) 0.7430(9)
C13 C -0.0725(8) 0.3231(11) 0.8275(9)
C14 C 0.0905(7) 0.3044(9) 0.6845(8)
Cl1A Cl 0.4827(2) 0.5688(3) 0.6828(2)
Cl2A Cl 0.3692(2) 0.4882(3) 0.3310(2)
Cl3A Cl 0.6771(3) 0.4172(3) 0.5117(2)
La1A La 0.5468(1) -0.2500 0.4497(1)
La1A_2 La 0.5468(1) 0.7500 0.4497(1)
Cl1A_2 Cl 0.4827(2) -0.4312(3) 0.6828(2)
Cl2A_2 Cl 0.3692(2) -0.5118(3) 0.3310(2)
Cl3A_2 Cl 0.6771(3) -0.5828(3) 0.5117(2)
O1A O 0.5787(5) -0.3076(6) 0.2160(5)
O2A O 0.7609(5) -0.2003(7) 0.4488(6)
C1A C 0.6233(8) -0.4004(12) 0.1373(9)
C8A C 0.8327(8) -0.1164(11) 0.3935(9)
C2A C 0.6206(7) -0.5834(10) 0.1347(8)
C7A C 0.6845(7) -0.3193(10) 0.0372(8)
C9A C 0.8417(8) 0.0698(11) 0.4030(9)
C14A C 0.9095(7) -0.1956(9) 0.3155(8)
C3A C 0.6805(26) -0.6652(30) 0.0596(26)
C5A C 0.7373(8) -0.4181(10) -0.0429(8)
C10A C 0.9228(23) 0.1636(27) 0.3591(22)
C12A C 0.9871(8) -0.1078(13) 0.2570(9)
O3A O 0.7344(6) -0.5901(7) -0.0349(6)
C4A C 0.6734(29) -0.8535(26) 0.0296(25)
C6A C 0.8093(8) -0.3522(11) -0.1463(9)
O4A O 0.9920(6) 0.0671(8) 0.2728(6)
C11A C 0.9387(24) 0.3509(23) 0.3297(23)
C13A C 1.0725(8) -0.1769(11) 0.1725(9)
loop_
_geom_bond_atom_site_label_1
_geom_bond_atom_site_label_2
_geom_bond_site_symmetry_1
_geom_bond_site_symmetry_2
La1 Cl1 1_555 1_555
Cl1 La1A 1_555 1_555
Cl2 La1 1_555 1_555
Cl3 La1 1_555 1_555
O1 La1 1_555 1_555
O2 La1 1_555 1_555
O3 C3 1_555 1_555
O4 C10 1_555 1_555
C1 O1 1_555 1_555
C2 C1 1_555 1_555
C3 C2 1_555 1_555
C4 C3 1_555 1_555
C5 O3 1_555 1_555
C6 C5 1_555 1_555
C7 C1 1_555 1_555
C8 O2 1_555 1_555
C9 C8 1_555 1_555
C10 C9 1_555 1_555
C11 C10 1_555 1_555
C12 O4 1_555 1_555
C13 C12 1_555 1_555
C14 C8 1_555 1_555
Cl1A La1 1_555 1_555
Cl2A La1 1_555 1_555
Cl3A La1 1_555 1_555
La1A Cl2 1_555 1_555
La1A_2 Cl1A 1_555 1_555
Cl1A_2 La1A 1_555 1_555
Cl2A_2 La1A 1_555 1_555
Cl3A_2 La1A 1_555 1_555
O1A La1A 1_555 1_555
O2A La1A 1_555 1_555
C1A O1A 1_555 1_555
C8A O2A 1_555 1_555
C2A C1A 1_555 1_555
C7A C1A 1_555 1_555
C9A C8A 1_555 1_555
C14A C8A 1_555 1_555
C3A C2A 1_555 1_555
C5A C7A 1_555 1_555
C10A C9A 1_555 1_555
C12A C14A 1_555 1_555
O3A C3A 1_555 1_555
C4A C3A 1_555 1_555
C6A C5A 1_555 1_555
O4A C10A 1_555 1_555
C11A C10A 1_555 1_555
C13A C12A 1_555 1_555
Cl3 La1A 1_555 1_555
C5 C7 1_555 1_555
C12 C14 1_555 1_555
Cl2A La1A_2 1_555 1_555
Cl3A La1A_2 1_555 1_555
C5A O3A 1_555 1_555
C12A O4A 1_555 1_555

#END
