
#######################################################################
#
#                 Cambridge Crystallographic Data Centre
#                                CCDC 
#
#######################################################################
#
# If this CIF has been generated from an entry in the Cambridge 
# Structural Database, then it will include bibliographic, chemical, 
# crystal, experimental, refinement or atomic coordinate data resulting 
# from the CCDC's data processing and validation procedures.
#
#######################################################################

data_COZGED01
_symmetry_cell_setting           orthorhombic
_symmetry_space_group_name_H-M   'P b c a'
_symmetry_Int_Tables_number      61
_space_group_name_Hall           '-P 2ac 2ab'
loop_
_symmetry_equiv_pos_site_id
_symmetry_equiv_pos_as_xyz
1 x,y,z
2 1/2-x,-y,1/2+z
3 1/2+x,1/2-y,-z
4 -x,1/2+y,1/2-z
5 -x,-y,-z
6 1/2+x,y,1/2-z
7 1/2-x,1/2+y,z
8 x,1/2-y,1/2+z
_cell_length_a                   10.1187(6)
_cell_length_b                   10.0093(6)
_cell_length_c                   13.0688(9)
_cell_angle_alpha                90
_cell_angle_beta                 90
_cell_angle_gamma                90
_cell_volume                     1323.62
loop_
_atom_site_label
_atom_site_type_symbol
_atom_site_fract_x
_atom_site_fract_y
_atom_site_fract_z
C1 C -0.10608(12) 0.21459(13) 0.27534(9)
C2 C -0.19687(13) 0.31412(13) 0.33064(10)
C3 C -0.17628(12) 0.30479(13) 0.44686(10)
C4 C -0.27547(12) 0.39605(12) 0.50283(9)
O1 O -0.11490(9) 0.09246(9) 0.30203(7)
O2 O -0.03138(9) 0.25497(9) 0.20640(7)
O3 O -0.16652(9) 0.44663(9) 0.29620(7)
O4 O -0.04372(9) 0.34441(10) 0.47051(7)
O5 O -0.39691(9) 0.37041(8) 0.48993(7)
O6 O -0.23321(9) 0.48895(9) 0.55778(7)
Na1 Na -0.02587(5) 0.46682(5) 0.62691(4)
Na2 Na 0.05184(5) -0.03975(5) 0.37270(4)
H1 H -0.2893(16) 0.2884(15) 0.3147(11)
H2 H -0.1935(16) 0.2129(16) 0.4694(11)
H3 H -0.2367(16) 0.4986(15) 0.3027(12)
H4 H 0.0047(16) 0.2724(15) 0.4763(13)
O2C O 0.03138(9) -0.24503(9) 0.29360(7)
O3D O 0.16652(9) 0.55337(9) 0.70380(7)
Na1D Na 0.02587(5) 0.53318(5) 0.37309(4)
Na2C Na -0.05184(5) 0.46025(5) 0.12730(4)
H3D H 0.2367(16) 0.5014(15) 0.6973(12)
loop_
_geom_bond_atom_site_label_1
_geom_bond_atom_site_label_2
_geom_bond_site_symmetry_1
_geom_bond_site_symmetry_2
C1 C2 1_555 1_555
C2 C3 1_555 1_555
C3 C4 1_555 1_555
C4 O5 1_555 1_555
O1 C1 1_555 1_555
O2 C1 1_555 1_555
O3 C2 1_555 1_555
O4 C3 1_555 1_555
O6 C4 1_555 1_555
Na1 O6 1_555 1_555
Na2 O1 1_555 1_555
H1 C2 1_555 1_555
H2 C3 1_555 1_555
H3 O3 1_555 1_555
H4 O4 1_555 1_555
O2C Na2 1_555 1_555
O3D Na1 1_555 1_555
Na1D O3 1_555 1_555
Na2C O2 1_555 1_555
H3D O3D 1_555 1_555

#END
