
#######################################################################
#
#                 Cambridge Crystallographic Data Centre
#                                CCDC 
#
#######################################################################
#
# If this CIF has been generated from an entry in the Cambridge 
# Structural Database, then it will include bibliographic, chemical, 
# crystal, experimental, refinement or atomic coordinate data resulting 
# from the CCDC's data processing and validation procedures.
#
#######################################################################

data_COZLIN
_symmetry_cell_setting           monoclinic
_symmetry_space_group_name_H-M   'P 21/c'
_symmetry_Int_Tables_number      14
_space_group_name_Hall           '-P 2ybc'
loop_
_symmetry_equiv_pos_site_id
_symmetry_equiv_pos_as_xyz
1 x,y,z
2 -x,1/2+y,1/2-z
3 -x,-y,-z
4 x,1/2-y,1/2+z
_cell_length_a                   7.7937(4)
_cell_length_b                   5.37460(10)
_cell_length_c                   27.6990(14)
_cell_angle_alpha                90
_cell_angle_beta                 95.5533(18)
_cell_angle_gamma                90
_cell_volume                     1154.81
loop_
_atom_site_label
_atom_site_type_symbol
_atom_site_fract_x
_atom_site_fract_y
_atom_site_fract_z
O1 O 0.75088(19) 0.4678(3) 0.14670(6)
Mn1 Mn 0.0000 0.0000 0.0000
N1 N 0.2466(2) 0.0759(3) 0.05020(6)
N2 N 0.8320(2) 0.0582(3) 0.14947(7)
N3 N 0.1377(2) -0.2982(3) -0.03569(7)
N4 N 0.11260(19) -0.5106(3) -0.04288(6)
N5 N 0.0886(2) -0.7232(3) -0.05165(7)
C1 C 0.2662(3) 0.2734(5) 0.07944(11)
C2 C 0.4174(3) 0.3305(5) 0.10723(11)
C3 C 0.5580(3) 0.1756(4) 0.10665(7)
C4 C 0.5378(3) -0.0314(4) 0.07793(10)
C5 C 0.3824(3) -0.0728(5) 0.05045(10)
C6 C 0.7230(3) 0.2474(4) 0.13620(7)
C7 C 0.9983(3) 0.0765(4) 0.17467(7)
C8 C 1.0454(3) 0.2681(4) 0.20703(8)
C9 C 1.2089(3) 0.2687(4) 0.23159(8)
C10 C 1.3258(3) 0.0808(4) 0.22498(9)
C11 C 1.2772(3) -0.1100(5) 0.19310(9)
C12 C 1.1151(3) -0.1139(4) 0.16804(8)
H1 H 0.171(4) 0.379(6) 0.0789(12)
H2 H 0.428(4) 0.473(5) 0.1257(12)
H3 H 0.806(3) -0.081(5) 0.1398(9)
H4 H 0.629(4) -0.138(6) 0.0775(12)
H5 H 0.367(3) -0.214(5) 0.0289(10)
H6 H 0.971(3) 0.389(5) 0.2131(9)
H7 H 1.240(3) 0.396(5) 0.2550(9)
H8 H 1.439(3) 0.084(4) 0.2413(9)
H9 H 1.356(3) -0.235(5) 0.1882(9)
H10 H 1.081(3) -0.243(4) 0.1457(9)
O1B O -0.75088(19) -0.4678(3) -0.14670(6)
Mn1_2 Mn 0.0000 -1.0000 0.0000
Mn1_3 Mn 0.0000 1.0000 0.0000
N1B N -0.2466(2) -0.0759(3) -0.05020(6)
N2B N -0.8320(2) -0.0582(3) -0.14947(7)
N3_2 N 0.1377(2) 0.7018(3) -0.03569(7)
N3B N -0.1377(2) 0.2982(3) 0.03569(7)
N4_2 N 0.11260(19) 0.4894(3) -0.04288(6)
N5_2 N 0.0886(2) 0.2768(3) -0.05165(7)
N5B N -0.0886(2) -0.2768(3) 0.05165(7)
C1B C -0.2662(3) -0.2734(5) -0.07944(11)
C2B C -0.4174(3) -0.3305(5) -0.10723(11)
C3B C -0.5580(3) -0.1756(4) -0.10665(7)
C4B C -0.5378(3) 0.0314(4) -0.07793(10)
C5B C -0.3824(3) 0.0728(5) -0.05045(10)
C6B C -0.7230(3) -0.2474(4) -0.13620(7)
C7B C -0.9983(3) -0.0765(4) -0.17467(7)
C8B C -1.0454(3) -0.2681(4) -0.20703(8)
C9B C -1.2089(3) -0.2687(4) -0.23159(8)
C10B C -1.3258(3) -0.0808(4) -0.22498(9)
C11B C -1.2772(3) 0.1100(5) -0.19310(9)
C12B C -1.1151(3) 0.1139(4) -0.16804(8)
H1B H -0.171(4) -0.379(6) -0.0789(12)
H2B H -0.428(4) -0.473(5) -0.1257(12)
H3B H -0.806(3) 0.081(5) -0.1398(9)
H4B H -0.629(4) 0.138(6) -0.0775(12)
H5B H -0.367(3) 0.214(5) -0.0289(10)
H6B H -0.971(3) -0.389(5) -0.2131(9)
H7B H -1.240(3) -0.396(5) -0.2550(9)
H8B H -1.439(3) -0.084(4) -0.2413(9)
H9B H -1.356(3) 0.235(5) -0.1882(9)
H10B H -1.081(3) 0.243(4) -0.1457(9)
loop_
_geom_bond_atom_site_label_1
_geom_bond_atom_site_label_2
_geom_bond_site_symmetry_1
_geom_bond_site_symmetry_2
O1 C6 1_555 1_555
Mn1 N1 1_555 1_555
N1 C1 1_555 1_555
N2 C6 1_555 1_555
N3 Mn1 1_555 1_555
N4 N3 1_555 1_555
N5 N4 1_555 1_555
C1 C2 1_555 1_555
C2 C3 1_555 1_555
C3 C4 1_555 1_555
C4 C5 1_555 1_555
C5 N1 1_555 1_555
C6 C3 1_555 1_555
C7 N2 1_555 1_555
C8 C7 1_555 1_555
C9 C8 1_555 1_555
C10 C9 1_555 1_555
C11 C10 1_555 1_555
C12 C7 1_555 1_555
H1 C1 1_555 1_555
H2 C2 1_555 1_555
H3 N2 1_555 1_555
H4 C4 1_555 1_555
H5 C5 1_555 1_555
H6 C8 1_555 1_555
H7 C9 1_555 1_555
H8 C10 1_555 1_555
H9 C11 1_555 1_555
H10 C12 1_555 1_555
O1B C6B 1_555 1_555
Mn1_2 N5 1_555 1_555
Mn1_3 N3_2 1_555 1_555
N1B Mn1 1_555 1_555
N2B C6B 1_555 1_555
N3_2 N4_2 1_555 1_555
N3B Mn1 1_555 1_555
N4_2 N5_2 1_555 1_555
N5_2 Mn1 1_555 1_555
N5B Mn1 1_555 1_555
C1B N1B 1_555 1_555
C2B C1B 1_555 1_555
C3B C2B 1_555 1_555
C4B C3B 1_555 1_555
C5B N1B 1_555 1_555
C6B C3B 1_555 1_555
C7B N2B 1_555 1_555
C8B C7B 1_555 1_555
C9B C8B 1_555 1_555
C10B C9B 1_555 1_555
C11B C10B 1_555 1_555
C12B C7B 1_555 1_555
H1B C1B 1_555 1_555
H2B C2B 1_555 1_555
H3B N2B 1_555 1_555
H4B C4B 1_555 1_555
H5B C5B 1_555 1_555
H6B C8B 1_555 1_555
H7B C9B 1_555 1_555
H8B C10B 1_555 1_555
H9B C11B 1_555 1_555
H10B C12B 1_555 1_555
C11 C12 1_555 1_555
C4B C5B 1_555 1_555
C11B C12B 1_555 1_555

#END
