
#######################################################################
#
#                 Cambridge Crystallographic Data Centre
#                                CCDC 
#
#######################################################################
#
# If this CIF has been generated from an entry in the Cambridge 
# Structural Database, then it will include bibliographic, chemical, 
# crystal, experimental, refinement or atomic coordinate data resulting 
# from the CCDC's data processing and validation procedures.
#
#######################################################################

data_COZQOY
_symmetry_cell_setting           monoclinic
_symmetry_space_group_name_H-M   'P 21/c'
_symmetry_Int_Tables_number      14
_space_group_name_Hall           '-P 2ybc'
loop_
_symmetry_equiv_pos_site_id
_symmetry_equiv_pos_as_xyz
1 x,y,z
2 -x,1/2+y,1/2-z
3 -x,-y,-z
4 x,1/2-y,1/2+z
_cell_length_a                   11.3388(18)
_cell_length_b                   18.522(3)
_cell_length_c                   16.6033(12)
_cell_angle_alpha                90
_cell_angle_beta                 107.621(7)
_cell_angle_gamma                90
_cell_volume                     3323.37
loop_
_atom_site_label
_atom_site_type_symbol
_atom_site_fract_x
_atom_site_fract_y
_atom_site_fract_z
Gd1 Gd 0.151612(18) 0.270559(11) 0.382876(11)
O1 O 0.0351(3) 0.28876(16) 0.48163(17)
O2 O 0.0024(3) 0.18379(17) 0.31043(17)
O3 O 0.1597(3) 0.16320(16) 0.47436(18)
O4 O 0.2837(3) 0.17908(16) 0.35323(17)
O5 O 0.3431(3) 0.27367(16) 0.49592(18)
O6 O 0.2841(3) 0.32855(17) 0.31671(17)
O7 O 0.1911(3) 0.39073(16) 0.43920(17)
N1 N 0.0483(3) 0.22096(19) 0.6848(2)
N2 N 0.0787(3) 0.2565(2) 0.6211(2)
N3 N -0.1013(3) 0.2161(2) 0.5211(2)
N4 N -0.1368(3) 0.1787(2) 0.5813(2)
N5 N -0.1862(3) 0.0965(2) 0.7103(2)
H1 H -0.2365 0.0858 0.6616
N6 N -0.0313(3) 0.14894(19) 0.80770(19)
C1 C 0.0054(4) 0.2555(2) 0.5381(3)
C2 C -0.0574(4) 0.1844(2) 0.6592(2)
C3 C -0.0917(4) 0.1443(2) 0.7253(2)
C4 C -0.1880(4) 0.0681(2) 0.7863(3)
H2 H -0.2426 0.0338 0.7954
C5 C -0.0932(4) 0.1006(2) 0.8455(3)
H3 H -0.0723 0.0920 0.9033
C6 C 0.1949(5) 0.2973(3) 0.6459(3)
H4 H 0.2511 0.2769 0.6189
H5 H 0.2311 0.2949 0.7061
H6 H 0.1787 0.3468 0.6289
C7 C -0.1897(4) 0.2140(3) 0.4349(3)
H7 H -0.2520 0.2503 0.4298
H8 H -0.2280 0.1673 0.4247
H9 H -0.1465 0.2231 0.3944
C8 C -0.0053(4) 0.1159(3) 0.3145(3)
C9 C 0.0555(4) 0.0705(3) 0.3804(3)
H10 H 0.0459 0.0208 0.3736
C10 C 0.1310(4) 0.0985(3) 0.4569(3)
C11 C -0.0984(6) 0.0823(4) 0.2370(4)
C12 C 0.1888(7) 0.0460(3) 0.5309(4)
C13 C 0.3918(4) 0.1573(2) 0.3909(3)
C14 C 0.4739(4) 0.1833(3) 0.4651(3)
H11 H 0.5520 0.1625 0.4849
C15 C 0.4437(4) 0.2396(3) 0.5111(3)
C16 C 0.4344(5) 0.0920(3) 0.3480(3)
C17 C 0.5456(5) 0.2655(3) 0.5910(3)
C18 C 0.3517(4) 0.3842(3) 0.3327(3)
C19 C 0.3510(4) 0.4392(3) 0.3896(3)
H12 H 0.4058 0.4776 0.3954
C20 C 0.2697(4) 0.4378(2) 0.4384(2)
C21 C 0.4470(5) 0.3869(3) 0.2831(3)
C22 C 0.2745(5) 0.4998(3) 0.5018(3)
F1 F -0.0856(6) 0.1081(3) 0.1665(3)
F2 F -0.2125(4) 0.0970(3) 0.2352(3)
F3 F -0.0913(4) 0.0111(2) 0.2321(3)
F4 F 0.1550(4) 0.0644(2) 0.5990(2)
F5 F 0.3120(4) 0.0497(2) 0.5537(3)
F6 F 0.1530(4) -0.02217(19) 0.5131(3)
F7 F 0.3902(4) 0.0936(2) 0.2650(2)
F8 F 0.3889(4) 0.03075(19) 0.3688(3)
F9 F 0.5541(3) 0.0833(2) 0.3694(2)
F10 F 0.6059(3) 0.2108(2) 0.6385(2)
F11 F 0.5051(4) 0.3051(3) 0.6403(3)
F12 F 0.6355(4) 0.2983(3) 0.5697(2)
F13 F 0.4822(4) 0.4536(2) 0.2721(2)
F14 F 0.5482(3) 0.3512(3) 0.3251(2)
F15 F 0.4039(3) 0.3574(2) 0.20753(19)
F16 F 0.3419(3) 0.55632(17) 0.4920(2)
F17 F 0.3243(4) 0.47607(19) 0.58064(19)
F18 F 0.1627(3) 0.5248(2) 0.4951(2)
Gd1C Gd 0.151612(18) 0.229441(11) 0.882876(11)
N6C N -0.0313(3) 0.35106(19) 0.30770(19)
loop_
_geom_bond_atom_site_label_1
_geom_bond_atom_site_label_2
_geom_bond_site_symmetry_1
_geom_bond_site_symmetry_2
Gd1 O1 1_555 1_555
O1 C1 1_555 1_555
O2 Gd1 1_555 1_555
O3 Gd1 1_555 1_555
O4 Gd1 1_555 1_555
O5 Gd1 1_555 1_555
O6 Gd1 1_555 1_555
O7 Gd1 1_555 1_555
N1 N2 1_555 1_555
N2 C1 1_555 1_555
N3 N4 1_555 1_555
N4 C2 1_555 1_555
N5 H1 1_555 1_555
N6 C3 1_555 1_555
C1 N3 1_555 1_555
C2 N1 1_555 1_555
C3 N5 1_555 1_555
C4 N5 1_555 1_555
H2 C4 1_555 1_555
C5 N6 1_555 1_555
H3 C5 1_555 1_555
C6 N2 1_555 1_555
H4 C6 1_555 1_555
H5 C6 1_555 1_555
H6 C6 1_555 1_555
C7 N3 1_555 1_555
H7 C7 1_555 1_555
H8 C7 1_555 1_555
H9 C7 1_555 1_555
C8 O2 1_555 1_555
C9 C8 1_555 1_555
H10 C9 1_555 1_555
C10 O3 1_555 1_555
C11 C8 1_555 1_555
C12 C10 1_555 1_555
C13 O4 1_555 1_555
C14 C13 1_555 1_555
H11 C14 1_555 1_555
C15 O5 1_555 1_555
C16 C13 1_555 1_555
C17 C15 1_555 1_555
C18 O6 1_555 1_555
C19 C18 1_555 1_555
H12 C19 1_555 1_555
C20 O7 1_555 1_555
C21 C18 1_555 1_555
C22 C20 1_555 1_555
F1 C11 1_555 1_555
F2 C11 1_555 1_555
F3 C11 1_555 1_555
F4 C12 1_555 1_555
F5 C12 1_555 1_555
F6 C12 1_555 1_555
F7 C16 1_555 1_555
F8 C16 1_555 1_555
F9 C16 1_555 1_555
F10 C17 1_555 1_555
F11 C17 1_555 1_555
F12 C17 1_555 1_555
F13 C21 1_555 1_555
F14 C21 1_555 1_555
F15 C21 1_555 1_555
F16 C22 1_555 1_555
F17 C22 1_555 1_555
F18 C22 1_555 1_555
Gd1C N6 1_555 1_555
N6C Gd1 1_555 1_555
C2 C3 1_555 1_555
C4 C5 1_555 1_555
C9 C10 1_555 1_555
C14 C15 1_555 1_555
C19 C20 1_555 1_555

#END
