
#######################################################################
#
#                 Cambridge Crystallographic Data Centre
#                                CCDC 
#
#######################################################################
#
# If this CIF has been generated from an entry in the Cambridge 
# Structural Database, then it will include bibliographic, chemical, 
# crystal, experimental, refinement or atomic coordinate data resulting 
# from the CCDC's data processing and validation procedures.
#
#######################################################################

data_COZQUE
_symmetry_cell_setting           monoclinic
_symmetry_space_group_name_H-M   'P 21/c'
_symmetry_Int_Tables_number      14
_space_group_name_Hall           '-P 2ybc'
loop_
_symmetry_equiv_pos_site_id
_symmetry_equiv_pos_as_xyz
1 x,y,z
2 -x,1/2+y,1/2-z
3 -x,-y,-z
4 x,1/2-y,1/2+z
_cell_length_a                   11.419(13)
_cell_length_b                   18.878(11)
_cell_length_c                   16.463(11)
_cell_angle_alpha                90
_cell_angle_beta                 107.99(7)
_cell_angle_gamma                90
_cell_volume                     3375.39
loop_
_atom_site_label
_atom_site_type_symbol
_atom_site_fract_x
_atom_site_fract_y
_atom_site_fract_z
Pr1 Pr 0.14770(5) 0.23069(3) 0.87934(3)
O1 O 0.0300(6) 0.2110(3) 0.9835(4)
O2 O -0.0009(6) 0.3197(4) 0.8063(4)
O3 O 0.1505(7) 0.3371(3) 0.9735(4)
O4 O 0.2855(7) 0.3236(3) 0.8552(4)
O5 O 0.3454(6) 0.2286(4) 0.9995(4)
O6 O 0.2886(6) 0.1713(4) 0.8154(4)
O7 O 0.1928(6) 0.1101(3) 0.9376(4)
N1 N 0.0406(7) 0.2812(4) 1.1854(5)
N2 N 0.0714(8) 0.2446(4) 1.1222(5)
N3 N -0.1057(8) 0.2845(4) 1.0197(5)
N4 N -0.1418(7) 0.3230(4) 1.0787(5)
N5 N -0.1899(7) 0.4071(4) 1.2073(5)
H1 H -0.2376 0.4190 1.1577
N6 N -0.0391(7) 0.3536(4) 1.3074(5)
C1 C -0.0002(9) 0.2452(4) 1.0385(6)
C2 C -0.0637(9) 0.3179(5) 1.1582(6)
C3 C -0.0992(9) 0.3583(5) 1.2240(6)
C4 C -0.1923(10) 0.4343(5) 1.2845(7)
H2 H -0.2455 0.4686 1.2936
C5 C -0.0992(10) 0.4001(5) 1.3450(6)
H3 H -0.0795 0.4075 1.4035
C6 C -0.1917(11) 0.2850(7) 0.9331(7)
H4 H -0.2529 0.2489 0.9280
H5 H -0.1478 0.2759 0.8930
H6 H -0.2311 0.3304 0.9214
C7 C 0.1873(10) 0.2043(6) 1.1480(7)
H7 H 0.1762 0.1604 1.1173
H8 H 0.2107 0.1948 1.2082
H9 H 0.2508 0.2314 1.1355
C8 C -0.0090(10) 0.3869(7) 0.8112(7)
C9 C 0.0541(11) 0.4311(6) 0.8798(7)
H10 H 0.0480 0.4801 0.8740
C10 C 0.1261(10) 0.4007(6) 0.9571(7)
C11 C -0.0950(16) 0.4215(10) 0.7312(13)
C12 C 0.1841(15) 0.4526(6) 1.0328(10)
C13 C 0.3943(10) 0.3435(5) 0.8950(7)
C14 C 0.4765(10) 0.3172(6) 0.9696(7)
H11 H 0.5542 0.3376 0.9897
C15 C 0.4481(9) 0.2620(5) 1.0153(6)
C16 C 0.4400(11) 0.4092(6) 0.8542(8)
C17 C 0.5487(12) 0.2336(7) 1.0936(8)
C18 C 0.3562(9) 0.1182(6) 0.8321(6)
C19 C 0.3540(10) 0.0635(6) 0.8896(6)
H12 H 0.4083 0.0257 0.8955
C20 C 0.2722(10) 0.0641(5) 0.9383(6)
C21 C 0.4528(12) 0.1151(7) 0.7837(7)
C22 C 0.2803(12) 0.0039(6) 1.0027(7)
F1 F -0.0881(8) 0.4935(5) 0.7307(6)
F2 F -0.0812(16) 0.3998(7) 0.6618(7)
F3 F -0.2127(11) 0.4082(6) 0.7280(9)
F4 F 0.1535(9) 0.5191(4) 1.0166(6)
F5 F 0.3074(9) 0.4484(4) 1.0536(6)
F6 F 0.1529(9) 0.4336(4) 1.1020(5)
F7 F 0.5569(7) 0.4180(4) 0.8763(6)
F8 F 0.3902(8) 0.4676(4) 0.8723(6)
F9 F 0.3971(9) 0.4067(4) 0.7682(5)
F10 F 0.5055(8) 0.1961(6) 1.1441(6)
F11 F 0.6129(7) 0.2852(5) 1.1416(5)
F12 F 0.6302(9) 0.1964(5) 1.0701(6)
F13 F 0.4856(8) 0.0491(5) 0.7707(5)
F14 F 0.4100(7) 0.1448(4) 0.7071(5)
F15 F 0.5527(8) 0.1481(5) 0.8273(5)
F16 F 0.1678(8) -0.0191(4) 0.9981(5)
F17 F 0.3350(9) 0.0266(4) 1.0816(5)
F18 F 0.3430(8) -0.0519(4) 0.9914(5)
Pr1C Pr 0.14770(5) 0.26931(3) 1.37934(3)
N6C N -0.0391(7) 0.1464(4) 0.8074(5)
loop_
_geom_bond_atom_site_label_1
_geom_bond_atom_site_label_2
_geom_bond_site_symmetry_1
_geom_bond_site_symmetry_2
Pr1 O1 1_555 1_555
O1 C1 1_555 1_555
O2 Pr1 1_555 1_555
O3 Pr1 1_555 1_555
O4 Pr1 1_555 1_555
O5 Pr1 1_555 1_555
O6 Pr1 1_555 1_555
O7 Pr1 1_555 1_555
N1 N2 1_555 1_555
N2 C1 1_555 1_555
N3 N4 1_555 1_555
N4 C2 1_555 1_555
N5 H1 1_555 1_555
N6 C3 1_555 1_555
C1 N3 1_555 1_555
C2 N1 1_555 1_555
C3 N5 1_555 1_555
C4 N5 1_555 1_555
H2 C4 1_555 1_555
C5 N6 1_555 1_555
H3 C5 1_555 1_555
C6 N3 1_555 1_555
H4 C6 1_555 1_555
H5 C6 1_555 1_555
H6 C6 1_555 1_555
C7 N2 1_555 1_555
H7 C7 1_555 1_555
H8 C7 1_555 1_555
H9 C7 1_555 1_555
C8 O2 1_555 1_555
C9 C8 1_555 1_555
H10 C9 1_555 1_555
C10 O3 1_555 1_555
C11 C8 1_555 1_555
C12 C10 1_555 1_555
C13 O4 1_555 1_555
C14 C13 1_555 1_555
H11 C14 1_555 1_555
C15 O5 1_555 1_555
C16 C13 1_555 1_555
C17 C15 1_555 1_555
C18 O6 1_555 1_555
C19 C18 1_555 1_555
H12 C19 1_555 1_555
C20 O7 1_555 1_555
C21 C18 1_555 1_555
C22 C20 1_555 1_555
F1 C11 1_555 1_555
F2 C11 1_555 1_555
F3 C11 1_555 1_555
F4 C12 1_555 1_555
F5 C12 1_555 1_555
F6 C12 1_555 1_555
F7 C16 1_555 1_555
F8 C16 1_555 1_555
F9 C16 1_555 1_555
F10 C17 1_555 1_555
F11 C17 1_555 1_555
F12 C17 1_555 1_555
F13 C21 1_555 1_555
F14 C21 1_555 1_555
F15 C21 1_555 1_555
F16 C22 1_555 1_555
F17 C22 1_555 1_555
F18 C22 1_555 1_555
Pr1C N6 1_555 1_555
N6C Pr1 1_555 1_555
C2 C3 1_555 1_555
C4 C5 1_555 1_555
C9 C10 1_555 1_555
C14 C15 1_555 1_555
C19 C20 1_555 1_555

#END
