
#######################################################################
#
#                 Cambridge Crystallographic Data Centre
#                                CCDC 
#
#######################################################################
#
# If this CIF has been generated from an entry in the Cambridge 
# Structural Database, then it will include bibliographic, chemical, 
# crystal, experimental, refinement or atomic coordinate data resulting 
# from the CCDC's data processing and validation procedures.
#
#######################################################################

data_COZREP
_symmetry_cell_setting           monoclinic
_symmetry_space_group_name_H-M   'P 21/c'
_symmetry_Int_Tables_number      14
_space_group_name_Hall           '-P 2ybc'
loop_
_symmetry_equiv_pos_site_id
_symmetry_equiv_pos_as_xyz
1 x,y,z
2 -x,1/2+y,1/2-z
3 -x,-y,-z
4 x,1/2-y,1/2+z
_cell_length_a                   11.345(2)
_cell_length_b                   18.446(3)
_cell_length_c                   16.650(3)
_cell_angle_alpha                90
_cell_angle_beta                 107.646(14)
_cell_angle_gamma                90
_cell_volume                     3320.4
loop_
_atom_site_label
_atom_site_type_symbol
_atom_site_fract_x
_atom_site_fract_y
_atom_site_fract_z
Tb1 Tb 0.15261(2) 0.270893(14) 0.384003(15)
O1 O 0.0352(4) 0.28914(19) 0.4814(2)
O2 O 0.0037(3) 0.1854(2) 0.3118(2)
O3 O 0.1614(4) 0.1641(2) 0.4749(2)
O4 O 0.2828(3) 0.1798(2) 0.3528(2)
O5 O 0.3436(4) 0.2743(2) 0.4952(2)
O6 O 0.2820(4) 0.3291(2) 0.3178(2)
O7 O 0.1907(4) 0.3910(2) 0.4399(2)
N1 N 0.0498(4) 0.2217(3) 0.6845(2)
N2 N 0.0781(4) 0.2578(2) 0.6199(2)
N3 N -0.1016(4) 0.2165(3) 0.5212(2)
N4 N -0.1364(4) 0.1787(3) 0.5818(2)
N5 N -0.1851(4) 0.0969(3) 0.7102(3)
H1 H -0.2355 0.0861 0.6617
N6 N -0.0297(4) 0.1492(2) 0.8080(3)
C1 C 0.0049(5) 0.2553(3) 0.5372(3)
C2 C -0.0568(5) 0.1844(3) 0.6591(3)
C3 C -0.0898(5) 0.1449(3) 0.7255(3)
C4 C -0.1862(6) 0.0688(3) 0.7869(3)
H2 H -0.2413 0.0348 0.7962
C5 C -0.0906(5) 0.1006(3) 0.8459(3)
H3 H -0.0688 0.0914 0.9034
C6 C 0.1951(6) 0.2978(4) 0.6445(3)
H4 H 0.2091 0.3186 0.5954
H5 H 0.2615 0.2653 0.6712
H6 H 0.1913 0.3357 0.6832
C7 C -0.1908(5) 0.2137(4) 0.4356(3)
H7 H -0.2679 0.2347 0.4364
H8 H -0.2040 0.1642 0.4174
H9 H -0.1585 0.2404 0.3975
C8 C -0.0052(6) 0.1170(4) 0.3154(4)
C9 C 0.0560(6) 0.0712(3) 0.3802(4)
H10 H 0.0472 0.0213 0.3730
C10 C 0.1321(6) 0.0995(3) 0.4574(4)
C11 C -0.0978(9) 0.0833(5) 0.2378(6)
C12 C 0.1880(8) 0.0463(4) 0.5313(5)
C13 C 0.3902(6) 0.1575(3) 0.3909(4)
C14 C 0.4725(6) 0.1837(3) 0.4646(4)
H11 H 0.5506 0.1628 0.4838
C15 C 0.4436(6) 0.2400(3) 0.5111(3)
C16 C 0.4330(7) 0.0924(4) 0.3474(4)
C17 C 0.5458(6) 0.2658(5) 0.5909(4)
C18 C 0.3502(5) 0.3849(3) 0.3332(3)
C19 C 0.3511(6) 0.4405(3) 0.3907(3)
H12 H 0.4061 0.4790 0.3969
C20 C 0.2695(5) 0.4382(3) 0.4385(3)
C21 C 0.4466(7) 0.3872(4) 0.2845(4)
C22 C 0.2726(8) 0.5004(4) 0.5002(4)
F1 F -0.0869(8) 0.1102(4) 0.1680(3)
F2 F -0.2125(6) 0.0984(3) 0.2363(4)
F3 F -0.0922(5) 0.0125(3) 0.2325(3)
F4 F 0.1551(5) 0.0650(3) 0.5991(3)
F5 F 0.3118(5) 0.0493(3) 0.5537(3)
F6 F 0.1548(5) -0.0223(2) 0.5132(3)
F7 F 0.3890(5) 0.0939(3) 0.2650(3)
F8 F 0.3881(5) 0.0304(2) 0.3692(3)
F9 F 0.5531(4) 0.0838(3) 0.3686(3)
F10 F 0.6036(4) 0.2103(3) 0.6379(3)
F11 F 0.5054(5) 0.3056(4) 0.6394(3)
F12 F 0.6373(5) 0.2975(3) 0.5703(3)
F13 F 0.4815(5) 0.4539(3) 0.2724(3)
F14 F 0.5479(4) 0.3509(3) 0.3255(3)
F15 F 0.4029(4) 0.3574(3) 0.2082(2)
F16 F 0.3403(5) 0.5571(2) 0.4923(3)
F17 F 0.3218(5) 0.4775(2) 0.5798(2)
F18 F 0.1607(4) 0.5262(2) 0.4943(3)
Tb1C Tb 0.15261(2) 0.229107(14) 0.884003(15)
N6C N -0.0297(4) 0.3508(2) 0.3080(3)
loop_
_geom_bond_atom_site_label_1
_geom_bond_atom_site_label_2
_geom_bond_site_symmetry_1
_geom_bond_site_symmetry_2
Tb1 O1 1_555 1_555
O1 C1 1_555 1_555
O2 Tb1 1_555 1_555
O3 Tb1 1_555 1_555
O4 Tb1 1_555 1_555
O5 Tb1 1_555 1_555
O6 Tb1 1_555 1_555
O7 Tb1 1_555 1_555
N1 N2 1_555 1_555
N2 C1 1_555 1_555
N3 N4 1_555 1_555
N4 C2 1_555 1_555
N5 H1 1_555 1_555
N6 C3 1_555 1_555
C1 N3 1_555 1_555
C2 N1 1_555 1_555
C3 N5 1_555 1_555
C4 N5 1_555 1_555
H2 C4 1_555 1_555
C5 N6 1_555 1_555
H3 C5 1_555 1_555
C6 N2 1_555 1_555
H4 C6 1_555 1_555
H5 C6 1_555 1_555
H6 C6 1_555 1_555
C7 N3 1_555 1_555
H7 C7 1_555 1_555
H8 C7 1_555 1_555
H9 C7 1_555 1_555
C8 O2 1_555 1_555
C9 C8 1_555 1_555
H10 C9 1_555 1_555
C10 O3 1_555 1_555
C11 C8 1_555 1_555
C12 C10 1_555 1_555
C13 O4 1_555 1_555
C14 C13 1_555 1_555
H11 C14 1_555 1_555
C15 O5 1_555 1_555
C16 C13 1_555 1_555
C17 C15 1_555 1_555
C18 O6 1_555 1_555
C19 C18 1_555 1_555
H12 C19 1_555 1_555
C20 O7 1_555 1_555
C21 C18 1_555 1_555
C22 C20 1_555 1_555
F1 C11 1_555 1_555
F2 C11 1_555 1_555
F3 C11 1_555 1_555
F4 C12 1_555 1_555
F5 C12 1_555 1_555
F6 C12 1_555 1_555
F7 C16 1_555 1_555
F8 C16 1_555 1_555
F9 C16 1_555 1_555
F10 C17 1_555 1_555
F11 C17 1_555 1_555
F12 C17 1_555 1_555
F13 C21 1_555 1_555
F14 C21 1_555 1_555
F15 C21 1_555 1_555
F16 C22 1_555 1_555
F17 C22 1_555 1_555
F18 C22 1_555 1_555
Tb1C N6 1_555 1_555
N6C Tb1 1_555 1_555
C2 C3 1_555 1_555
C4 C5 1_555 1_555
C9 C10 1_555 1_555
C14 C15 1_555 1_555
C19 C20 1_555 1_555

#END
