
#######################################################################
#
#                 Cambridge Crystallographic Data Centre
#                                CCDC 
#
#######################################################################
#
# If this CIF has been generated from an entry in the Cambridge 
# Structural Database, then it will include bibliographic, chemical, 
# crystal, experimental, refinement or atomic coordinate data resulting 
# from the CCDC's data processing and validation procedures.
#
#######################################################################

data_COZRAL
_symmetry_cell_setting           monoclinic
_symmetry_space_group_name_H-M   'P 21/c'
_symmetry_Int_Tables_number      14
_space_group_name_Hall           '-P 2ybc'
loop_
_symmetry_equiv_pos_site_id
_symmetry_equiv_pos_as_xyz
1 x,y,z
2 -x,1/2+y,1/2-z
3 -x,-y,-z
4 x,1/2-y,1/2+z
_cell_length_a                   11.3474(13)
_cell_length_b                   18.303(3)
_cell_length_c                   16.729(2)
_cell_angle_alpha                90
_cell_angle_beta                 107.540(9)
_cell_angle_gamma                90
_cell_volume                     3312.93
loop_
_atom_site_label
_atom_site_type_symbol
_atom_site_fract_x
_atom_site_fract_y
_atom_site_fract_z
Dy1 Dy 0.153125(16) 0.271620(10) 0.384940(11)
O1 O 0.0357(3) 0.28912(16) 0.48094(17)
O2 O 0.0053(3) 0.18608(17) 0.31269(17)
O3 O 0.1624(3) 0.16423(16) 0.47475(18)
O4 O 0.2821(3) 0.18068(17) 0.35264(18)
O5 O 0.3427(3) 0.27528(16) 0.49535(18)
O6 O 0.2807(3) 0.33015(17) 0.31856(18)
O7 O 0.1891(3) 0.39185(16) 0.44003(18)
N1 N 0.0514(3) 0.2221(2) 0.68402(19)
N2 N 0.0803(3) 0.2578(2) 0.6197(2)
N3 N -0.1005(3) 0.2170(2) 0.5215(2)
N4 N -0.1355(3) 0.1799(2) 0.58229(19)
N5 N -0.1849(3) 0.0982(2) 0.7102(2)
H1 H -0.2360 0.0883 0.6619
N6 N -0.0276(3) 0.14900(19) 0.80748(19)
C1 C 0.0066(4) 0.2561(2) 0.5374(2)
C2 C -0.0555(3) 0.1855(2) 0.6589(2)
C3 C -0.0882(4) 0.1447(2) 0.7259(2)
C4 C -0.1864(4) 0.0692(3) 0.7863(3)
H2 H -0.2418 0.0351 0.7954
C5 C -0.0902(4) 0.1011(2) 0.8451(3)
H3 H -0.0691 0.0920 0.9024
C6 C 0.1958(5) 0.2996(3) 0.6438(3)
H4 H 0.2645 0.2668 0.6522
H5 H 0.2030 0.3257 0.6949
H6 H 0.1957 0.3337 0.6002
C7 C -0.1892(4) 0.2147(3) 0.4369(3)
H7 H -0.2530 0.2502 0.4328
H8 H -0.2252 0.1669 0.4264
H9 H -0.1472 0.2256 0.3963
C8 C -0.0041(4) 0.1177(3) 0.3160(3)
C9 C 0.0568(5) 0.0708(3) 0.3807(3)
H10 H 0.0473 0.0205 0.3735
C10 C 0.1332(4) 0.0996(3) 0.4575(3)
C11 C -0.0983(6) 0.0843(4) 0.2380(5)
C12 C 0.1891(7) 0.0460(3) 0.5304(4)
C13 C 0.3901(4) 0.1585(2) 0.3897(3)
C14 C 0.4730(4) 0.1843(3) 0.4639(3)
H11 H 0.5512 0.1634 0.4830
C15 C 0.4423(4) 0.2409(3) 0.5107(3)
C16 C 0.4323(5) 0.0928(3) 0.3463(4)
C17 C 0.5442(5) 0.2660(3) 0.5901(3)
C18 C 0.3490(4) 0.3863(3) 0.3343(3)
C19 C 0.3492(4) 0.4417(3) 0.3907(3)
H12 H 0.4040 0.4805 0.3964
C20 C 0.2675(4) 0.4401(2) 0.4398(2)
C21 C 0.4441(5) 0.3891(4) 0.2849(3)
C22 C 0.2720(5) 0.5022(3) 0.5017(3)
F1 F -0.0866(7) 0.1111(3) 0.1688(3)
F2 F -0.2119(4) 0.0996(3) 0.2380(4)
F3 F -0.0917(4) 0.0127(2) 0.2328(3)
F4 F 0.1544(4) 0.0645(2) 0.5978(2)
F5 F 0.3125(4) 0.0492(2) 0.5535(3)
F6 F 0.1542(5) -0.0229(2) 0.5132(3)
F7 F 0.3878(4) 0.0939(2) 0.2646(2)
F8 F 0.3890(5) 0.0306(2) 0.3691(3)
F9 F 0.5521(3) 0.0842(2) 0.3680(3)
F10 F 0.6005(4) 0.2093(3) 0.6380(2)
F11 F 0.5052(4) 0.3070(4) 0.6389(3)
F12 F 0.6366(4) 0.2969(3) 0.5709(3)
F13 F 0.4805(4) 0.4565(2) 0.2744(3)
F14 F 0.5446(3) 0.3522(3) 0.3253(3)
F15 F 0.3995(3) 0.3593(2) 0.2092(2)
F16 F 0.3409(4) 0.55860(19) 0.4941(2)
F17 F 0.3174(4) 0.4783(2) 0.5803(2)
F18 F 0.1589(3) 0.5284(2) 0.4930(2)
Dy1C Dy 0.153125(16) 0.228380(10) 0.884940(11)
N6C N -0.0276(3) 0.35100(19) 0.30748(19)
loop_
_geom_bond_atom_site_label_1
_geom_bond_atom_site_label_2
_geom_bond_site_symmetry_1
_geom_bond_site_symmetry_2
Dy1 O1 1_555 1_555
O1 C1 1_555 1_555
O2 Dy1 1_555 1_555
O3 Dy1 1_555 1_555
O4 Dy1 1_555 1_555
O5 Dy1 1_555 1_555
O6 Dy1 1_555 1_555
O7 Dy1 1_555 1_555
N1 N2 1_555 1_555
N2 C1 1_555 1_555
N3 N4 1_555 1_555
N4 C2 1_555 1_555
N5 H1 1_555 1_555
N6 C3 1_555 1_555
C1 N3 1_555 1_555
C2 N1 1_555 1_555
C3 N5 1_555 1_555
C4 N5 1_555 1_555
H2 C4 1_555 1_555
C5 N6 1_555 1_555
H3 C5 1_555 1_555
C6 N2 1_555 1_555
H4 C6 1_555 1_555
H5 C6 1_555 1_555
H6 C6 1_555 1_555
C7 N3 1_555 1_555
H7 C7 1_555 1_555
H8 C7 1_555 1_555
H9 C7 1_555 1_555
C8 O2 1_555 1_555
C9 C8 1_555 1_555
H10 C9 1_555 1_555
C10 O3 1_555 1_555
C11 C8 1_555 1_555
C12 C10 1_555 1_555
C13 O4 1_555 1_555
C14 C13 1_555 1_555
H11 C14 1_555 1_555
C15 O5 1_555 1_555
C16 C13 1_555 1_555
C17 C15 1_555 1_555
C18 O6 1_555 1_555
C19 C18 1_555 1_555
H12 C19 1_555 1_555
C20 O7 1_555 1_555
C21 C18 1_555 1_555
C22 C20 1_555 1_555
F1 C11 1_555 1_555
F2 C11 1_555 1_555
F3 C11 1_555 1_555
F4 C12 1_555 1_555
F5 C12 1_555 1_555
F6 C12 1_555 1_555
F7 C16 1_555 1_555
F8 C16 1_555 1_555
F9 C16 1_555 1_555
F10 C17 1_555 1_555
F11 C17 1_555 1_555
F12 C17 1_555 1_555
F13 C21 1_555 1_555
F14 C21 1_555 1_555
F15 C21 1_555 1_555
F16 C22 1_555 1_555
F17 C22 1_555 1_555
F18 C22 1_555 1_555
Dy1C N6 1_555 1_555
N6C Dy1 1_555 1_555
C2 C3 1_555 1_555
C4 C5 1_555 1_555
C9 C10 1_555 1_555
C14 C15 1_555 1_555
C19 C20 1_555 1_555

#END
