
#######################################################################
#
#                 Cambridge Crystallographic Data Centre
#                                CCDC 
#
#######################################################################
#
# If this CIF has been generated from an entry in the Cambridge 
# Structural Database, then it will include bibliographic, chemical, 
# crystal, experimental, refinement or atomic coordinate data resulting 
# from the CCDC's data processing and validation procedures.
#
#######################################################################

data_COZSIU
_symmetry_cell_setting           rhombohedral
_symmetry_space_group_name_H-M   'R -3 c'
_symmetry_Int_Tables_number      167
_space_group_name_Hall           '-R 3 2"c'
loop_
_symmetry_equiv_pos_site_id
_symmetry_equiv_pos_as_xyz
1 x,y,z
2 -y,x-y,z
3 -x+y,-x,z
4 y,x,1/2-z
5 x-y,-y,1/2-z
6 -x,-x+y,1/2-z
7 2/3+x,1/3+y,1/3+z
8 2/3-y,1/3+x-y,1/3+z
9 2/3-x+y,1/3-x,1/3+z
10 2/3+y,1/3+x,5/6-z
11 2/3+x-y,1/3-y,5/6-z
12 2/3-x,1/3-x+y,5/6-z
13 1/3+x,2/3+y,2/3+z
14 1/3-y,2/3+x-y,2/3+z
15 1/3-x+y,2/3-x,2/3+z
16 1/3+y,2/3+x,1/6-z
17 1/3+x-y,2/3-y,1/6-z
18 1/3-x,2/3-x+y,1/6-z
19 -x,-y,-z
20 y,-x+y,-z
21 x-y,x,-z
22 -y,-x,1/2+z
23 -x+y,y,1/2+z
24 x,x-y,1/2+z
25 1/3-x,2/3-y,2/3-z
26 1/3+y,2/3-x+y,2/3-z
27 1/3+x-y,2/3+x,2/3-z
28 1/3-y,2/3-x,1/6+z
29 1/3-x+y,2/3+y,1/6+z
30 1/3+x,2/3+x-y,1/6+z
31 2/3-x,1/3-y,1/3-z
32 2/3+y,1/3-x+y,1/3-z
33 2/3+x-y,1/3+x,1/3-z
34 2/3-y,1/3-x,5/6+z
35 2/3-x+y,1/3+y,5/6+z
36 2/3+x,1/3+x-y,5/6+z
_cell_length_a                   15.2431(11)
_cell_length_b                   15.2431(11)
_cell_length_c                   20.579(2)
_cell_angle_alpha                90
_cell_angle_beta                 90
_cell_angle_gamma                120
_cell_volume                     4140.96
loop_
_atom_site_label
_atom_site_type_symbol
_atom_site_fract_x
_atom_site_fract_y
_atom_site_fract_z
Sc1 Sc 1.0000 0.0000 0.2500
Sc2 Sc 1.05856(4) 0.3333 0.0833
O1 O 0.90909(12) 0.21996(13) 0.10068(9)
C1 C 0.86936(17) 0.12506(18) 0.10173(12)
C2 C 0.88123(18) 0.05293(17) 0.14270(11)
O2 O 0.74107(16) 0.03291(17) 0.01365(9)
O3 O 0.77385(14) -0.12380(16) 0.10015(11)
C3 C 0.80711(18) -0.03045(18) 0.10193(12)
O4 O 0.93460(14) 0.06194(14) 0.19101(9)
C4 C 0.79445(19) 0.04165(18) 0.06222(11)
Sc2A Sc 0.6667 -0.27474(4) 0.0833
Sc2B Sc 1.27474(4) -0.05856(4) 0.0833
Sc2T Sc 0.72526(4) 0.05856(4) -0.0833
Sc2R Sc 0.94144(4) -0.3333 -0.0833
Sc2S Sc 1.3333 0.27474(4) -0.0833
Sc2C Sc 1.3333 0.05856(4) 0.4167
Sc2W Sc 1.05856(4) -0.27474(4) 0.5833
Sc2F Sc 0.72523(4) -0.3334 0.4166
Sc2U Sc 0.6667 -0.05856(4) 0.5833
Sc2H Sc 0.94141(4) 0.27477(4) 0.4166
Sc2V Sc 1.27474(4) 0.3333 0.5833
O1A O 0.78004(13) -0.31087(18) 0.10068(9)
O1B O 1.31087(18) 0.09091(12) 0.10068(9)
O1C O 1.21996(13) -0.09091(12) 0.39932(9)
O1D O 0.68913(18) -0.21996(13) 0.39932(9)
O1E O 1.09091(12) 0.31087(18) 0.39932(9)
O1P O 1.02246(18) 0.44671(13) 0.06599(9)
O1O O 0.55329(13) -0.42424(12) 0.06599(9)
O1Q O 1.42424(12) -0.02246(18) 0.06599(9)
C1A C 0.87494(18) -0.25570(25) 0.10173(12)
C1B C 1.25570(25) 0.13064(17) 0.10173(12)
C1C C 1.12506(18) -0.13064(17) 0.39827(12)
C1D C 0.74430(25) -0.12506(18) 0.39827(12)
C1E C 1.13064(17) 0.25570(25) 0.39827(12)
C2A C 0.94707(17) -0.17170(25) 0.14270(11)
C2B C 1.17170(25) 0.11877(18) 0.14270(11)
C2C C 1.05293(17) -0.11877(18) 0.35730(11)
C2D C 0.82830(25) -0.05293(17) 0.35730(11)
C2E C 1.11877(18) 0.17170(25) 0.35730(11)
O2A O 0.96709(17) -0.29184(23) 0.01365(9)
O2B O 1.29184(23) 0.25893(16) 0.01365(9)
O2C O 1.03291(17) -0.25893(16) 0.48635(9)
O2D O 0.70816(23) -0.03291(17) 0.48635(9)
O2E O 1.25893(16) 0.29184(23) 0.48635(9)
O2S O 1.03291(17) 0.29184(23) -0.01365(9)
O2CA O 1.07440(16) 0.37483(23) 0.18032(9)
O2T O 0.70816(23) -0.25893(16) -0.01365(9)
O2BA O 0.62517(23) -0.30042(17) 0.18032(9)
O2R O 1.25893(16) -0.03291(17) -0.01365(9)
O2AA O 1.30042(17) -0.07440(16) 0.18032(9)
O3A O 1.12380(16) -0.10235(21) 0.10015(11)
O3B O 1.10235(21) 0.22615(14) 0.10015(11)
O3C O 0.87620(16) -0.22615(14) 0.39985(11)
O3D O 0.89765(21) 0.12380(16) 0.39985(11)
O3E O 1.22615(14) 0.10235(21) 0.39985(11)
O3O O 1.20953(16) 0.44052(14) 0.06652(11)
O3Q O 0.55948(14) -0.23098(21) 0.06652(11)
O3P O 1.23098(21) -0.20953(16) 0.06652(11)
C3A C 1.03045(18) -0.16244(25) 0.10193(12)
C3B C 1.16244(25) 0.19289(18) 0.10193(12)
C3C C 0.96955(18) -0.19289(18) 0.39807(12)
C3D C 0.83756(25) 0.03045(18) 0.39807(12)
C3E C 1.19289(18) 0.16244(25) 0.39807(12)
O4A O 0.93806(14) -0.12734(20) 0.19101(9)
O4B O 1.12734(20) 0.06540(14) 0.19101(9)
O4C O 1.06194(14) -0.06540(14) 0.30899(9)
O4D O 0.87266(20) -0.06194(14) 0.30899(9)
O4E O 1.06540(14) 0.12734(20) 0.30899(9)
C4A C 0.95835(18) -0.24720(26) 0.06222(11)
C4B C 1.24720(26) 0.20555(19) 0.06222(11)
C4C C 1.04165(18) -0.20555(19) 0.43778(11)
C4D C 0.75280(26) -0.04165(18) 0.43778(11)
C4E C 1.20555(19) 0.24720(26) 0.43778(11)
loop_
_geom_bond_atom_site_label_1
_geom_bond_atom_site_label_2
_geom_bond_site_symmetry_1
_geom_bond_site_symmetry_2
Sc1 O4 1_555 1_555
Sc2 O1 1_555 1_555
O1 C1 1_555 1_555
C1 C2 1_555 1_555
C2 C3 1_555 1_555
O2 C4 1_555 1_555
O3 C3 1_555 1_555
C3 C4 1_555 1_555
O4 C2 1_555 1_555
C4 C1 1_555 1_555
Sc2A O3 1_555 1_555
Sc2B O1B 1_555 1_555
Sc2T O2 1_555 1_555
Sc2R O2A 1_555 1_555
Sc2S O2B 1_555 1_555
Sc2C O1C 1_555 1_555
Sc2W O2C 1_555 1_555
Sc2F O1D 1_555 1_555
Sc2U O2D 1_555 1_555
Sc2H O1E 1_555 1_555
Sc2V O2E 1_555 1_555
O1A Sc2A 1_555 1_555
O1B C1B 1_555 1_555
O1C C1C 1_555 1_555
O1D C1D 1_555 1_555
O1E C1E 1_555 1_555
O1P Sc2 1_555 1_555
O1O Sc2A 1_555 1_555
O1Q Sc2B 1_555 1_555
C1A O1A 1_555 1_555
C1B C2B 1_555 1_555
C1C C2C 1_555 1_555
C1D C2D 1_555 1_555
C1E C2E 1_555 1_555
C2A C1A 1_555 1_555
C2B C3B 1_555 1_555
C2C C3C 1_555 1_555
C2D C3D 1_555 1_555
C2E C3E 1_555 1_555
O2A C4A 1_555 1_555
O2B C4B 1_555 1_555
O2C C4C 1_555 1_555
O2D C4D 1_555 1_555
O2E C4E 1_555 1_555
O2S Sc2 1_555 1_555
O2CA Sc2 1_555 1_555
O2T Sc2A 1_555 1_555
O2BA Sc2A 1_555 1_555
O2R Sc2B 1_555 1_555
O2AA Sc2B 1_555 1_555
O3A Sc2B 1_555 1_555
O3B Sc2 1_555 1_555
O3C Sc2F 1_555 1_555
O3D Sc2H 1_555 1_555
O3E Sc2C 1_555 1_555
O3O Sc2 1_555 1_555
O3Q Sc2A 1_555 1_555
O3P Sc2B 1_555 1_555
C3A C2A 1_555 1_555
C3B O3B 1_555 1_555
C3C O3C 1_555 1_555
C3D O3D 1_555 1_555
C3E O3E 1_555 1_555
O4A Sc1 1_555 1_555
O4B Sc1 1_555 1_555
O4C Sc1 1_555 1_555
O4D Sc1 1_555 1_555
O4E Sc1 1_555 1_555
C4A C1A 1_555 1_555
C4B C1B 1_555 1_555
C4C C1C 1_555 1_555
C4D C1D 1_555 1_555
C4E C1E 1_555 1_555
C2A O4A 1_555 1_555
C2B O4B 1_555 1_555
C2C O4C 1_555 1_555
C2D O4D 1_555 1_555
C2E O4E 1_555 1_555
O3A C3A 1_555 1_555
C3A C4A 1_555 1_555
C3B C4B 1_555 1_555
C3C C4C 1_555 1_555
C3D C4D 1_555 1_555
C3E C4E 1_555 1_555

#END
