
#######################################################################
#
#                 Cambridge Crystallographic Data Centre
#                                CCDC 
#
#######################################################################
#
# If this CIF has been generated from an entry in the Cambridge 
# Structural Database, then it will include bibliographic, chemical, 
# crystal, experimental, refinement or atomic coordinate data resulting 
# from the CCDC's data processing and validation procedures.
#
#######################################################################

data_COZVAP
_symmetry_cell_setting           monoclinic
_symmetry_space_group_name_H-M   'P 21/c'
_symmetry_Int_Tables_number      14
_space_group_name_Hall           '-P 2ybc'
loop_
_symmetry_equiv_pos_site_id
_symmetry_equiv_pos_as_xyz
1 x,y,z
2 -x,1/2+y,1/2-z
3 -x,-y,-z
4 x,1/2-y,1/2+z
_cell_length_a                   9.7528(3)
_cell_length_b                   10.3760(3)
_cell_length_c                   19.3784(5)
_cell_angle_alpha                90
_cell_angle_beta                 100.385(1)
_cell_angle_gamma                90
_cell_volume                     1928.87
loop_
_atom_site_label
_atom_site_type_symbol
_atom_site_fract_x
_atom_site_fract_y
_atom_site_fract_z
Co1 Co 0.5000 0.0000 0.5000
S1 S 0.35451(7) 0.04606(10) 0.24883(3)
N1 N 0.42723(15) 0.19687(14) 0.51210(8)
C1 C 0.33808(18) 0.25603(17) 0.46139(9)
H1 H 0.3015 0.2079 0.4205
N2 N 0.21093(16) 0.55966(15) 0.38540(8)
C2 C 0.29566(18) 0.38297(17) 0.46463(9)
N3 N 0.10404(17) 0.57577(15) 0.33068(8)
C3 C 0.3513(2) 0.45337(19) 0.52410(10)
H2 H 0.3263 0.5411 0.5283
N4 N 0.17745(16) 0.55783(16) 0.19341(8)
C4 C 0.4437(2) 0.39367(18) 0.57717(10)
H3 H 0.4826 0.4399 0.6184
N5 N 0.05629(16) 0.54882(16) 0.14695(8)
C5 C 0.47844(19) 0.26656(18) 0.56942(9)
H4 H 0.5414 0.2263 0.6062
N6 N -0.29256(16) 0.41593(14) 0.00554(8)
C6 C 0.19782(18) 0.43778(17) 0.40534(9)
N7 N 0.45660(16) 0.02288(15) 0.39194(8)
C7 C 0.08530(19) 0.37573(19) 0.36275(10)
H5 H 0.0555 0.2891 0.3660
C8 C 0.0282(2) 0.46754(19) 0.31565(10)
H6 H -0.0502 0.4570 0.2791
C9 C 0.1035(2) 0.68852(19) 0.28598(10)
H7 H 0.1280 0.7659 0.3155
H8 H 0.0087 0.7013 0.2583
C10 C 0.2062(2) 0.6727(2) 0.23688(10)
H9 H 0.2020 0.7496 0.2063
H10 H 0.3017 0.6670 0.2647
C11 C 0.2560(2) 0.4509(2) 0.19387(11)
H11 H 0.3441 0.4359 0.2228
C12 C 0.1860(2) 0.3685(2) 0.14535(11)
H12 H 0.2147 0.2853 0.1332
C13 C 0.06196(18) 0.43312(19) 0.11711(9)
C14 C -0.05286(18) 0.38963(18) 0.06232(9)
C15 C -0.0379(2) 0.28930(19) 0.01644(10)
H13 H 0.0484 0.2451 0.0201
C16 C -0.1499(2) 0.25496(19) -0.03433(10)
H14 H -0.1414 0.1867 -0.0660
C17 C -0.2745(2) 0.32042(18) -0.03888(10)
H15 H -0.3503 0.2971 -0.0747
C18 C -0.18288(19) 0.44803(18) 0.05476(9)
H16 H -0.1949 0.5151 0.0865
C19 C 0.41429(19) 0.03258(19) 0.33265(10)
Co1A Co -0.5000 0.5000 0.0000
Co1A_2 Co 1.5000 -0.5000 1.0000
S1B S 0.64549(7) -0.04606(10) 0.75117(3)
N1B N 0.57277(15) -0.19687(14) 0.48790(8)
C1B C 0.66192(18) -0.25603(17) 0.53861(9)
H1B H 0.6985 -0.2079 0.5795
N2B N 0.78907(16) -0.55966(15) 0.61460(8)
C2B C 0.70434(18) -0.38297(17) 0.53537(9)
N3B N 0.89596(17) -0.57577(15) 0.66932(8)
C3B C 0.6487(2) -0.45337(19) 0.47590(10)
H2B H 0.6737 -0.5411 0.4717
N4B N 0.82255(16) -0.55783(16) 0.80659(8)
C4B C 0.5563(2) -0.39367(18) 0.42283(10)
H3B H 0.5174 -0.4399 0.3816
N5B N 0.94371(16) -0.54882(16) 0.85305(8)
C5B C 0.52156(19) -0.26656(18) 0.43058(9)
H4B H 0.4586 -0.2263 0.3938
N6B N 1.29256(16) -0.41593(14) 0.99446(8)
N6A N 0.29256(16) -0.08407(14) 0.49446(8)
N6C N 0.70744(16) 0.08407(14) 0.50554(8)
C6B C 0.80218(18) -0.43778(17) 0.59466(9)
N7B N 0.54340(16) -0.02288(15) 0.60806(8)
C7B C 0.91470(19) -0.37573(19) 0.63725(10)
H5B H 0.9445 -0.2891 0.6340
C8B C 0.9718(2) -0.46754(19) 0.68435(10)
H6B H 1.0502 -0.4570 0.7209
C9B C 0.8965(2) -0.68852(19) 0.71402(10)
H7B H 0.8720 -0.7659 0.6845
H8B H 0.9913 -0.7013 0.7417
C10B C 0.7938(2) -0.6727(2) 0.76312(10)
H9B H 0.7980 -0.7496 0.7937
H10B H 0.6983 -0.6670 0.7353
C11B C 0.7440(2) -0.4509(2) 0.80613(11)
H11B H 0.6559 -0.4359 0.7772
C12B C 0.8140(2) -0.3685(2) 0.85465(11)
H12B H 0.7853 -0.2853 0.8668
C13B C 0.93804(18) -0.43312(19) 0.88289(9)
C14B C 1.05286(18) -0.38963(18) 0.93768(9)
C15B C 1.0379(2) -0.28930(19) 0.98356(10)
H13B H 0.9516 -0.2451 0.9799
C16B C 1.1499(2) -0.25496(19) 1.03433(10)
H14B H 1.1414 -0.1867 1.0660
C17B C 1.2745(2) -0.32042(18) 1.03888(10)
H15B H 1.3503 -0.2971 1.0747
C18B C 1.18288(19) -0.44803(18) 0.94524(9)
H16B H 1.1949 -0.5151 0.9135
C19B C 0.58571(19) -0.03258(19) 0.66735(10)
O1 O 0.5314(12) 0.3293(9) 0.3253(5)
loop_
_geom_bond_atom_site_label_1
_geom_bond_atom_site_label_2
_geom_bond_site_symmetry_1
_geom_bond_site_symmetry_2
Co1 N1 1_555 1_555
S1 C19 1_555 1_555
N1 C1 1_555 1_555
C1 H1 1_555 1_555
N2 N3 1_555 1_555
C2 C1 1_555 1_555
N3 C8 1_555 1_555
C3 C2 1_555 1_555
H2 C3 1_555 1_555
N4 N5 1_555 1_555
C4 C3 1_555 1_555
H3 C4 1_555 1_555
N5 C13 1_555 1_555
C5 N1 1_555 1_555
H4 C5 1_555 1_555
N6 C17 1_555 1_555
C6 N2 1_555 1_555
N7 Co1 1_555 1_555
C7 C6 1_555 1_555
H5 C7 1_555 1_555
C8 C7 1_555 1_555
H6 C8 1_555 1_555
C9 N3 1_555 1_555
H7 C9 1_555 1_555
H8 C9 1_555 1_555
C10 N4 1_555 1_555
H9 C10 1_555 1_555
H10 C10 1_555 1_555
C11 N4 1_555 1_555
H11 C11 1_555 1_555
C12 C11 1_555 1_555
H12 C12 1_555 1_555
C13 C12 1_555 1_555
C14 C13 1_555 1_555
C15 C14 1_555 1_555
H13 C15 1_555 1_555
C16 C15 1_555 1_555
H14 C16 1_555 1_555
C17 C16 1_555 1_555
H15 C17 1_555 1_555
C18 N6 1_555 1_555
H16 C18 1_555 1_555
C19 N7 1_555 1_555
Co1A N6 1_555 1_555
Co1A_2 N6B 1_555 1_555
S1B C19B 1_555 1_555
N1B Co1 1_555 1_555
C1B N1B 1_555 1_555
H1B C1B 1_555 1_555
N2B N3B 1_555 1_555
C2B C1B 1_555 1_555
N3B C8B 1_555 1_555
C3B C2B 1_555 1_555
H2B C3B 1_555 1_555
N4B N5B 1_555 1_555
C4B C3B 1_555 1_555
H3B C4B 1_555 1_555
N5B C13B 1_555 1_555
C5B N1B 1_555 1_555
H4B C5B 1_555 1_555
N6B C17B 1_555 1_555
N6A Co1 1_555 1_555
N6C Co1 1_555 1_555
C6B N2B 1_555 1_555
N7B Co1 1_555 1_555
C7B C6B 1_555 1_555
H5B C7B 1_555 1_555
C8B C7B 1_555 1_555
H6B C8B 1_555 1_555
C9B N3B 1_555 1_555
H7B C9B 1_555 1_555
H8B C9B 1_555 1_555
C10B N4B 1_555 1_555
H9B C10B 1_555 1_555
H10B C10B 1_555 1_555
C11B N4B 1_555 1_555
H11B C11B 1_555 1_555
C12B C11B 1_555 1_555
H12B C12B 1_555 1_555
C13B C12B 1_555 1_555
C14B C13B 1_555 1_555
C15B C14B 1_555 1_555
H13B C15B 1_555 1_555
C16B C15B 1_555 1_555
H14B C16B 1_555 1_555
C17B C16B 1_555 1_555
H15B C17B 1_555 1_555
C18B N6B 1_555 1_555
H16B C18B 1_555 1_555
C19B N7B 1_555 1_555
C2 C6 1_555 1_555
C4 C5 1_555 1_555
C9 C10 1_555 1_555
C14 C18 1_555 1_555
C2B C6B 1_555 1_555
C4B C5B 1_555 1_555
C9B C10B 1_555 1_555
C14B C18B 1_555 1_555

#END
