
#######################################################################
#
#                 Cambridge Crystallographic Data Centre
#                                CCDC 
#
#######################################################################
#
# If this CIF has been generated from an entry in the Cambridge 
# Structural Database, then it will include bibliographic, chemical, 
# crystal, experimental, refinement or atomic coordinate data resulting 
# from the CCDC's data processing and validation procedures.
#
#######################################################################

data_COZVOD
_symmetry_cell_setting           triclinic
_symmetry_space_group_name_H-M   'P -1'
_symmetry_Int_Tables_number      2
_space_group_name_Hall           '-P 1'
loop_
_symmetry_equiv_pos_site_id
_symmetry_equiv_pos_as_xyz
1 x,y,z
2 -x,-y,-z
_cell_length_a                   8.1473(2)
_cell_length_b                   10.0611(3)
_cell_length_c                   12.8091(4)
_cell_angle_alpha                77.445(2)
_cell_angle_beta                 74.101(2)
_cell_angle_gamma                70.183(2)
_cell_volume                     940.969
loop_
_atom_site_label
_atom_site_type_symbol
_atom_site_fract_x
_atom_site_fract_y
_atom_site_fract_z
Zn1 Zn 0.62966(4) 0.74270(4) 0.71760(3)
Cl1 Cl 0.73204(9) 0.91072(8) 0.59918(6)
N1 N 0.7049(3) 0.5763(3) 0.62887(19)
C1 C 0.6694(4) 0.5990(3) 0.5295(2)
H1 H 0.5929 0.6893 0.5063
Cl2 Cl 0.70698(10) 0.65416(9) 0.87671(6)
N2 N 0.5738(3) 0.6510(3) 0.32324(19)
C2 C 0.7392(3) 0.4966(3) 0.4581(2)
N3 N 0.5798(3) 0.6528(3) 0.21691(19)
C3 C 0.8525(4) 0.3661(3) 0.4941(3)
H2 H 0.9052 0.2935 0.4480
N4 N 0.7318(3) 0.8787(3) 0.10915(19)
C4 C 0.8879(4) 0.3427(3) 0.5965(3)
H3 H 0.9639 0.2534 0.6220
N5 N 0.7867(3) 0.9115(2) -0.00006(19)
C5 C 0.8123(4) 0.4497(3) 0.6624(2)
H4 H 0.8372 0.4328 0.7332
N6 N 1.3593(3) 0.8289(3) -0.2536(2)
C6 C 0.7010(4) 0.5313(3) 0.3488(2)
C7 C 0.7873(4) 0.4580(3) 0.2577(2)
H5 H 0.8810 0.3704 0.2545
C8 C 0.7079(4) 0.5395(3) 0.1750(3)
H6 H 0.7370 0.5205 0.1016
C9 C 0.4779(4) 0.7818(3) 0.1579(2)
H7 H 0.3493 0.8023 0.1931
H8 H 0.4934 0.7671 0.0814
C10 C 0.5415(4) 0.9080(3) 0.1581(2)
H9 H 0.4737 0.9943 0.1163
H10 H 0.5185 0.9268 0.2343
C11 C 0.8676(4) 0.7996(3) 0.1575(2)
H11 H 0.8591 0.7639 0.2332
C12 C 1.0203(4) 0.7802(3) 0.0771(2)
H12 H 1.1390 0.7295 0.0851
C13 C 0.9642(3) 0.8510(3) -0.0195(2)
C14 C 1.0707(4) 0.8657(3) -0.1315(2)
C15 C 0.9911(4) 0.9263(3) -0.2209(2)
H13 H 0.8646 0.9573 -0.2105
C16 C 1.0970(4) 0.9410(3) -0.3245(2)
H14 H 1.0444 0.9831 -0.3861
C17 C 1.2805(4) 0.8936(3) -0.3375(2)
H15 H 1.3531 0.9075 -0.4085
C18 C 1.2564(4) 0.8155(3) -0.1523(2)
H16 H 1.3128 0.7701 -0.0926
Zn1_2 Zn 1.62966(4) 0.74270(4) -0.28240(3)
N6_2 N 0.3593(3) 0.8289(3) 0.7464(2)
loop_
_geom_bond_atom_site_label_1
_geom_bond_atom_site_label_2
_geom_bond_site_symmetry_1
_geom_bond_site_symmetry_2
Zn1 Cl1 1_555 1_555
N1 Zn1 1_555 1_555
C1 N1 1_555 1_555
H1 C1 1_555 1_555
Cl2 Zn1 1_555 1_555
N2 N3 1_555 1_555
C2 C1 1_555 1_555
N3 C8 1_555 1_555
C3 C2 1_555 1_555
H2 C3 1_555 1_555
N4 N5 1_555 1_555
C4 C3 1_555 1_555
H3 C4 1_555 1_555
N5 C13 1_555 1_555
C5 N1 1_555 1_555
H4 C5 1_555 1_555
N6 C17 1_555 1_555
C6 N2 1_555 1_555
C7 C6 1_555 1_555
H5 C7 1_555 1_555
C8 C7 1_555 1_555
H6 C8 1_555 1_555
C9 N3 1_555 1_555
H7 C9 1_555 1_555
H8 C9 1_555 1_555
C10 N4 1_555 1_555
H9 C10 1_555 1_555
H10 C10 1_555 1_555
C11 N4 1_555 1_555
H11 C11 1_555 1_555
C12 C11 1_555 1_555
H12 C12 1_555 1_555
C13 C12 1_555 1_555
C14 C13 1_555 1_555
C15 C14 1_555 1_555
H13 C15 1_555 1_555
C16 C15 1_555 1_555
H14 C16 1_555 1_555
C17 C16 1_555 1_555
H15 C17 1_555 1_555
C18 N6 1_555 1_555
H16 C18 1_555 1_555
Zn1_2 N6 1_555 1_555
N6_2 Zn1 1_555 1_555
C2 C6 1_555 1_555
C4 C5 1_555 1_555
C9 C10 1_555 1_555
C14 C18 1_555 1_555

#END
