
#######################################################################
#
#                 Cambridge Crystallographic Data Centre
#                                CCDC 
#
#######################################################################
#
# If this CIF has been generated from an entry in the Cambridge 
# Structural Database, then it will include bibliographic, chemical, 
# crystal, experimental, refinement or atomic coordinate data resulting 
# from the CCDC's data processing and validation procedures.
#
#######################################################################

data_COZVET
_symmetry_cell_setting           triclinic
_symmetry_space_group_name_H-M   'P -1'
_symmetry_Int_Tables_number      2
_space_group_name_Hall           '-P 1'
loop_
_symmetry_equiv_pos_site_id
_symmetry_equiv_pos_as_xyz
1 x,y,z
2 -x,-y,-z
_cell_length_a                   9.4422(4)
_cell_length_b                   13.2078(6)
_cell_length_c                   20.1759(9)
_cell_angle_alpha                71.6960(10)
_cell_angle_beta                 76.5970(10)
_cell_angle_gamma                81.3720(10)
_cell_volume                     2315.64
loop_
_atom_site_label
_atom_site_type_symbol
_atom_site_fract_x
_atom_site_fract_y
_atom_site_fract_z
Co1 Co 0.99209(3) 0.76934(2) 0.743644(15)
S1 S 1.28234(7) 0.49807(5) 0.64092(3)
S2 S 0.76256(8) 0.99257(5) 0.89049(3)
N1 N 1.05817(19) 0.68015(14) 0.84463(9)
N2 N 0.8022(2) 0.66906(14) 1.05003(9)
N3 N 0.7604(2) 0.66027(15) 1.12036(9)
N4 N 0.6444(2) 0.87814(15) 1.12485(10)
N5 N 0.6085(2) 0.90821(15) 1.18547(10)
N6 N 0.8296(2) 1.13162(14) 1.27632(9)
N7 N 0.9393(2) 0.85682(15) 0.63945(9)
N8 N 0.8775(2) 0.82342(15) 0.41590(9)
N9 N 0.9161(2) 0.74545(15) 0.38325(9)
N10 N 1.1441(2) 0.73266(15) 0.25996(9)
N11 N 1.1375(2) 0.63807(15) 0.24835(9)
N12 N 1.19499(19) 0.31901(14) 0.24580(9)
N13 N 0.8537(2) 0.87465(15) 0.79263(10)
N14 N 1.1343(2) 0.66278(15) 0.69610(9)
C1 C 0.9793(2) 0.68022(16) 0.90927(11)
H1 H 0.8822 0.7128 0.9125
C2 C 1.0332(2) 0.63470(16) 0.97192(11)
C3 C 1.1755(2) 0.58659(17) 0.96663(11)
H2 H 1.2159 0.5545 1.0081
C4 C 1.2575(2) 0.58612(17) 0.90016(11)
H3 H 1.3549 0.5540 0.8954
C5 C 1.1956(2) 0.63274(17) 0.84145(11)
H4 H 1.2524 0.6316 0.7961
C6 C 0.9453(2) 0.63804(16) 1.04187(11)
C7 C 0.9938(3) 0.61036(18) 1.10657(12)
H5 H 1.0899 0.5858 1.1146
C8 C 0.8720(3) 0.62664(18) 1.15548(12)
H6 H 0.8670 0.6162 1.2047
C9 C 0.6092(3) 0.6879(2) 1.15018(12)
H7 H 0.5988 0.6770 1.2019
H8 H 0.5458 0.6396 1.1440
C10 C 0.5594(3) 0.8027(2) 1.11498(13)
H9 H 0.5686 0.8133 1.0634
H10 H 0.4551 0.8171 1.1353
C11 C 0.7672(3) 0.91820(19) 1.08228(12)
H11 H 0.8124 0.9064 1.0378
C12 C 0.8152(3) 0.97923(19) 1.11490(12)
H12 H 0.8992 1.0186 1.0980
C13 C 0.7128(2) 0.97095(17) 1.17898(11)
C14 C 0.7106(2) 1.02028(17) 1.23502(11)
C15 C 0.6072(2) 1.00080(18) 1.29873(12)
H13 H 0.5304 0.9569 1.3065
C16 C 0.6183(2) 1.04630(18) 1.35013(12)
H14 H 0.5494 1.0337 1.3938
C17 C 0.7302(2) 1.11014(17) 1.33743(11)
H15 H 0.7374 1.1402 1.3734
C18 C 0.8178(2) 1.08671(17) 1.22661(11)
H16 H 0.8873 1.1015 1.1831
C19 C 0.9573(2) 0.80614(18) 0.58949(11)
H17 H 1.0104 0.7378 0.5974
C20 C 0.9035(2) 0.84697(18) 0.52728(11)
C21 C 0.8239(3) 0.94637(19) 0.51643(12)
H18 H 0.7822 0.9764 0.4752
C22 C 0.8064(3) 1.00091(19) 0.56672(12)
H19 H 0.7539 1.0694 0.5600
C23 C 0.8659(3) 0.95438(18) 0.62654(12)
H20 H 0.8548 0.9929 0.6603
C24 C 0.9305(2) 0.78439(17) 0.47595(11)
C25 C 1.0048(3) 0.68229(18) 0.48069(12)
H21 H 1.0524 0.6382 0.5177
C26 C 0.9931(3) 0.66067(19) 0.42015(12)
H22 H 1.0320 0.5978 0.4067
C27 C 0.8870(3) 0.76455(18) 0.31257(11)
H23 H 0.7994 0.8155 0.3067
H24 H 0.8663 0.6965 0.3072
C28 C 1.0162(3) 0.80970(18) 0.25479(12)
H25 H 0.9912 0.8256 0.2073
H26 H 1.0382 0.8773 0.2603
C29 C 1.2621(3) 0.7337(2) 0.28607(13)
H27 H 1.2873 0.7915 0.2984
C30 C 1.3394(3) 0.63582(19) 0.29159(12)
H28 H 1.4283 0.6117 0.3082
C31 C 1.2581(2) 0.57909(17) 0.26716(11)
C32 C 1.2875(2) 0.46922(17) 0.26111(11)
C33 C 1.4215(2) 0.41111(19) 0.26716(12)
H29 H 1.4987 0.4416 0.2751
C34 C 1.4407(2) 0.30786(19) 0.26144(13)
H30 H 1.5321 0.2671 0.2647
C35 C 1.3269(2) 0.26480(18) 0.25107(12)
H31 H 1.3416 0.1938 0.2474
C36 C 1.1785(2) 0.41998(17) 0.25002(11)
H32 H 1.0870 0.4598 0.2451
C37 C 1.1967(2) 0.59454(18) 0.67313(11)
C38 C 0.8141(2) 0.92412(17) 0.83309(11)
Co1A Co 1.00791(3) 1.23066(2) 1.256356(15)
Co1A_2 Co 1.00791(3) 0.23066(2) 0.256356(15)
N6A N 1.1704(2) 0.86838(14) 0.72368(9)
N12A N 0.80501(19) 0.68099(14) 0.75420(9)
O1 O 0.4170(2) 0.56593(14) 1.07654(10)
N15 N 0.4236(2) 0.72548(16) 0.98957(11)
C39 C 0.4711(3) 0.6251(2) 1.01789(15)
H33 H 0.5540 0.5960 0.9909
C40 C 0.4868(4) 0.7861(3) 0.91725(16)
H34 H 0.5752 0.7458 0.8991
H35 H 0.5118 0.8553 0.9176
H36 H 0.4158 0.7979 0.8865
C41 C 0.2957(3) 0.7777(2) 1.02515(16)
H37 H 0.2139 0.7844 1.0013
H38 H 0.3172 0.8490 1.0232
H39 H 0.2696 0.7349 1.0750
O2 O 1.4508(3) 0.8649(2) 0.50686(13)
N16 N 1.5445(2) 0.69845(18) 0.50139(12)
C42 C 1.6362(3) 0.6034(2) 0.52954(16)
H40 H 1.6905 0.6178 0.5611
H41 H 1.7051 0.5839 0.4902
H42 H 1.5750 0.5444 0.5564
C43 C 1.5237(3) 0.7831(2) 0.52814(15)
H43 H 1.5700 0.7773 0.5664
C44 C 1.4768(5) 0.7019(3) 0.4450(2)
H44 H 1.5032 0.6347 0.4324
H45 H 1.5097 0.7618 0.4035
H46 H 1.3705 0.7115 0.4600
C45? C 1.4768(5) 0.7019(3) 0.4450(2)
C46? C 1.5237(3) 0.7831(2) 0.52814(15)
H47? H 1.4718 0.6380 0.4337
H48? H 1.5771 0.7670 0.5670
H49? H 1.4193 0.7969 0.5463
H50? H 1.5598 0.8465 0.4905
O3? O 1.4188(10) 0.7969(7) 0.4071(5)
loop_
_geom_bond_atom_site_label_1
_geom_bond_atom_site_label_2
_geom_bond_site_symmetry_1
_geom_bond_site_symmetry_2
Co1 N1 1_555 1_555
S1 C37 1_555 1_555
S2 C38 1_555 1_555
O1 C39 1_555 1_555
O2 C43 1_555 1_555
N1 C1 1_555 1_555
N2 N3 1_555 1_555
N3 C8 1_555 1_555
N4 N5 1_555 1_555
N5 C13 1_555 1_555
N6 C17 1_555 1_555
N7 Co1 1_555 1_555
N8 N9 1_555 1_555
N9 C26 1_555 1_555
N10 N11 1_555 1_555
N11 C31 1_555 1_555
N12 C35 1_555 1_555
N13 Co1 1_555 1_555
N14 Co1 1_555 1_555
N15 C39 1_555 1_555
N16 C42 1_555 1_555
C1 H1 1_555 1_555
C2 C1 1_555 1_555
C3 C2 1_555 1_555
H2 C3 1_555 1_555
C4 C3 1_555 1_555
H3 C4 1_555 1_555
C5 N1 1_555 1_555
H4 C5 1_555 1_555
C6 N2 1_555 1_555
C7 C6 1_555 1_555
H5 C7 1_555 1_555
C8 C7 1_555 1_555
H6 C8 1_555 1_555
C9 N3 1_555 1_555
H7 C9 1_555 1_555
H8 C9 1_555 1_555
C10 N4 1_555 1_555
H9 C10 1_555 1_555
H10 C10 1_555 1_555
C11 N4 1_555 1_555
H11 C11 1_555 1_555
C12 C11 1_555 1_555
H12 C12 1_555 1_555
C13 C12 1_555 1_555
C14 C13 1_555 1_555
C15 C14 1_555 1_555
H13 C15 1_555 1_555
C16 C15 1_555 1_555
H14 C16 1_555 1_555
C17 C16 1_555 1_555
H15 C17 1_555 1_555
C18 N6 1_555 1_555
H16 C18 1_555 1_555
C19 N7 1_555 1_555
H17 C19 1_555 1_555
C20 C19 1_555 1_555
C21 C20 1_555 1_555
H18 C21 1_555 1_555
C22 C21 1_555 1_555
H19 C22 1_555 1_555
C23 N7 1_555 1_555
H20 C23 1_555 1_555
C24 N8 1_555 1_555
C25 C24 1_555 1_555
H21 C25 1_555 1_555
C26 C25 1_555 1_555
H22 C26 1_555 1_555
C27 N9 1_555 1_555
H23 C27 1_555 1_555
H24 C27 1_555 1_555
C28 N10 1_555 1_555
H25 C28 1_555 1_555
H26 C28 1_555 1_555
C29 N10 1_555 1_555
H27 C29 1_555 1_555
C30 C29 1_555 1_555
H28 C30 1_555 1_555
C31 C30 1_555 1_555
C32 C31 1_555 1_555
C33 C32 1_555 1_555
H29 C33 1_555 1_555
C34 C33 1_555 1_555
H30 C34 1_555 1_555
C35 C34 1_555 1_555
H31 C35 1_555 1_555
C36 N12 1_555 1_555
H32 C36 1_555 1_555
C37 N14 1_555 1_555
C38 N13 1_555 1_555
C39 H33 1_555 1_555
C40 N15 1_555 1_555
H34 C40 1_555 1_555
H35 C40 1_555 1_555
H36 C40 1_555 1_555
C41 N15 1_555 1_555
H37 C41 1_555 1_555
H38 C41 1_555 1_555
H39 C41 1_555 1_555
C42 H40 1_555 1_555
H41 C42 1_555 1_555
H42 C42 1_555 1_555
C43 N16 1_555 1_555
H43 C43 1_555 1_555
C44 N16 1_555 1_555
H44 C44 1_555 1_555
H45 C44 1_555 1_555
H46 C44 1_555 1_555
Co1A N6 1_555 1_555
Co1A_2 N12 1_555 1_555
N6A Co1 1_555 1_555
N12A Co1 1_555 1_555
C2 C6 1_555 1_555
C4 C5 1_555 1_555
C9 C10 1_555 1_555
C14 C18 1_555 1_555
C20 C24 1_555 1_555
C22 C23 1_555 1_555
C27 C28 1_555 1_555
C32 C36 1_555 1_555

#END
