
#######################################################################
#
#                 Cambridge Crystallographic Data Centre
#                                CCDC 
#
#######################################################################
#
# If this CIF has been generated from an entry in the Cambridge 
# Structural Database, then it will include bibliographic, chemical, 
# crystal, experimental, refinement or atomic coordinate data resulting 
# from the CCDC's data processing and validation procedures.
#
#######################################################################

data_COZWEV
_symmetry_cell_setting           triclinic
_symmetry_space_group_name_H-M   'P -1'
_symmetry_Int_Tables_number      2
_space_group_name_Hall           '-P 1'
loop_
_symmetry_equiv_pos_site_id
_symmetry_equiv_pos_as_xyz
1 x,y,z
2 -x,-y,-z
_cell_length_a                   8.3846(2)
_cell_length_b                   13.5992(3)
_cell_length_c                   15.5288(3)
_cell_angle_alpha                76.7270(11)
_cell_angle_beta                 74.4500(11)
_cell_angle_gamma                84.7410(13)
_cell_volume                     1659.42
loop_
_atom_site_label
_atom_site_type_symbol
_atom_site_fract_x
_atom_site_fract_y
_atom_site_fract_z
Na1 Na 0.62980(9) 0.09591(5) 0.44834(5)
Na2 Na 1.09570(10) 0.05030(6) 0.39025(6)
O1 O 0.89307(17) 0.12591(11) 0.32549(8)
O2 O 0.65400(17) 0.15910(12) 0.29075(9)
O3 O 0.08593(16) 0.09564(10) 0.53256(9)
O4 O 0.35408(15) 0.08088(10) 0.52508(9)
O5 O 0.7467(2) 0.11954(17) 0.55960(15)
H1 H 0.777(5) 0.1747(17) 0.5179(19)
H2 H 0.687(4) 0.143(3) 0.6045(16)
O6 O 1.3369(2) 0.1143(2) 0.29822(13)
H3 H 1.434(2) 0.127(3) 0.299(3)
H4 H 1.340(5) 0.135(3) 0.2420(10)
C1 C 0.8064(2) 0.16436(14) 0.27122(12)
C2 C 0.9013(2) 0.22351(13) 0.17424(11)
C3 C 0.7878(2) 0.25563(14) 0.10855(12)
C4 C 0.6478(2) 0.31599(16) 0.13306(14)
H5 H 0.6217 0.3333 0.1899
C5 C 0.5464(3) 0.35099(18) 0.07485(17)
H6 H 0.4528 0.3911 0.0929
C6 C 0.5833(3) 0.32676(19) -0.00940(18)
H7 H 0.5150 0.3501 -0.0486
C7 C 0.7210(3) 0.26816(18) -0.03522(16)
H8 H 0.7465 0.2515 -0.0923
C8 C 0.8236(3) 0.23305(15) 0.02307(13)
H9 H 0.9178 0.1938 0.0042
C9 C 0.9661(2) 0.32202(13) 0.18367(12)
C10 C 1.0397(2) 0.39124(15) 0.10550(13)
H10 H 1.0521 0.3761 0.0486
C11 C 1.0952(3) 0.48212(16) 0.10974(16)
H11 H 1.1456 0.5268 0.0562
C12 C 1.0756(3) 0.50646(17) 0.19334(17)
H12 H 1.1116 0.5678 0.1967
C13 C 1.0027(3) 0.43971(17) 0.27133(16)
H13 H 0.9893 0.4559 0.3279
C14 C 0.9486(2) 0.34823(16) 0.26714(13)
H14 H 0.8998 0.3036 0.3210
C15 C 1.0408(2) 0.15031(14) 0.13918(11)
C16 C 1.2070(2) 0.17062(16) 0.11471(12)
H15 H 1.2399 0.2331 0.1173
C17 C 1.3261(3) 0.09857(19) 0.08618(14)
H16 H 1.4377 0.1134 0.0702
C18 C 1.2812(3) 0.00671(19) 0.08139(14)
H17 H 1.3614 -0.0413 0.0626
C19 C 1.1162(3) -0.01432(17) 0.10469(14)
H18 H 1.0842 -0.0766 0.1009
C20 C 0.9981(3) 0.05626(15) 0.13362(14)
H19 H 0.8868 0.0406 0.1499
C21 C 0.2156(2) 0.12354(14) 0.54448(11)
C22 C 0.2070(2) 0.22261(13) 0.58109(11)
C23 C 0.0275(2) 0.26303(14) 0.60842(11)
C24 C -0.0820(2) 0.20585(15) 0.68248(12)
H20 H -0.0470 0.1425 0.7102
C25 C -0.2410(2) 0.24046(17) 0.71613(13)
H21 H -0.3119 0.2007 0.7659
C26 C -0.2945(2) 0.33415(18) 0.67576(15)
H22 H -0.4015 0.3582 0.6984
C27 C -0.1897(3) 0.39149(17) 0.60241(15)
H23 H -0.2258 0.4546 0.5748
C28 C -0.0296(2) 0.35652(14) 0.56863(13)
H24 H 0.0404 0.3965 0.5185
C29 C 0.3180(2) 0.29504(13) 0.50095(12)
C30 C 0.2844(2) 0.31523(14) 0.41560(12)
H25 H 0.1934 0.2864 0.4087
C31 C 0.3829(3) 0.37685(16) 0.34113(13)
H26 H 0.3573 0.3899 0.2848
C32 C 0.5188(3) 0.41919(16) 0.34976(15)
H27 H 0.5856 0.4609 0.2995
C33 C 0.5545(3) 0.39945(17) 0.43252(15)
H28 H 0.6468 0.4277 0.4385
C34 C 0.4554(2) 0.33796(16) 0.50810(13)
H29 H 0.4819 0.3255 0.5642
C35 C 0.2663(2) 0.20564(15) 0.66971(12)
C36 C 0.2384(3) 0.28375(18) 0.71653(13)
H30 H 0.1960 0.3457 0.6906
C37 C 0.2722(3) 0.2716(2) 0.80074(15)
H31 H 0.2526 0.3249 0.8309
C38 C 0.3347(3) 0.1805(3) 0.83979(16)
H32 H 0.3556 0.1714 0.8970
C39 C 0.3659(3) 0.1034(2) 0.79413(16)
H33 H 0.4102 0.0421 0.8201
C40 C 0.3323(3) 0.11533(17) 0.70931(14)
H34 H 0.3545 0.0621 0.6791
Na1A Na 0.37020(9) -0.09591(5) 0.55166(5)
Na2_2 Na 0.09570(10) 0.05030(6) 0.39025(6)
Na2A Na -0.09570(10) -0.05030(6) 0.60975(6)
Na2A_2 Na 0.90430(10) -0.05030(6) 0.60975(6)
O3_2 O 1.08593(16) 0.09564(10) 0.53256(9)
O3A O 0.91407(16) -0.09564(10) 0.46744(9)
O4A O 0.64592(15) -0.08088(10) 0.47492(9)
O5A O 1.2533(2) -0.11954(17) 0.44040(15)
loop_
_geom_bond_atom_site_label_1
_geom_bond_atom_site_label_2
_geom_bond_site_symmetry_1
_geom_bond_site_symmetry_2
Na1 O1 1_555 1_555
Na2 O1 1_555 1_555
O1 C1 1_555 1_555
O2 Na1 1_555 1_555
O3 C21 1_555 1_555
O4 Na1 1_555 1_555
O5 Na1 1_555 1_555
H1 O5 1_555 1_555
H2 O5 1_555 1_555
O6 Na2 1_555 1_555
H3 O6 1_555 1_555
H4 O6 1_555 1_555
C1 O2 1_555 1_555
C2 C1 1_555 1_555
C3 C2 1_555 1_555
C4 C3 1_555 1_555
H5 C4 1_555 1_555
C5 C4 1_555 1_555
H6 C5 1_555 1_555
C6 C5 1_555 1_555
H7 C6 1_555 1_555
C7 C6 1_555 1_555
H8 C7 1_555 1_555
C8 C3 1_555 1_555
H9 C8 1_555 1_555
C9 C2 1_555 1_555
C10 C9 1_555 1_555
H10 C10 1_555 1_555
C11 C10 1_555 1_555
H11 C11 1_555 1_555
C12 C11 1_555 1_555
H12 C12 1_555 1_555
C13 C12 1_555 1_555
H13 C13 1_555 1_555
C14 C9 1_555 1_555
H14 C14 1_555 1_555
C15 C2 1_555 1_555
C16 C15 1_555 1_555
H15 C16 1_555 1_555
C17 C16 1_555 1_555
H16 C17 1_555 1_555
C18 C17 1_555 1_555
H17 C18 1_555 1_555
C19 C18 1_555 1_555
H18 C19 1_555 1_555
C20 C15 1_555 1_555
H19 C20 1_555 1_555
C21 O4 1_555 1_555
C22 C21 1_555 1_555
C23 C22 1_555 1_555
C24 C23 1_555 1_555
H20 C24 1_555 1_555
C25 C24 1_555 1_555
H21 C25 1_555 1_555
C26 C25 1_555 1_555
H22 C26 1_555 1_555
C27 C26 1_555 1_555
H23 C27 1_555 1_555
C28 C23 1_555 1_555
H24 C28 1_555 1_555
C29 C22 1_555 1_555
C30 C29 1_555 1_555
H25 C30 1_555 1_555
C31 C30 1_555 1_555
H26 C31 1_555 1_555
C32 C31 1_555 1_555
H27 C32 1_555 1_555
C33 C32 1_555 1_555
H28 C33 1_555 1_555
C34 C29 1_555 1_555
H29 C34 1_555 1_555
C35 C22 1_555 1_555
C36 C35 1_555 1_555
H30 C36 1_555 1_555
C37 C36 1_555 1_555
H31 C37 1_555 1_555
C38 C37 1_555 1_555
H32 C38 1_555 1_555
C39 C38 1_555 1_555
H33 C39 1_555 1_555
C40 C35 1_555 1_555
H34 C40 1_555 1_555
Na1A O4 1_555 1_555
Na2_2 O3 1_555 1_555
Na2A O3 1_555 1_555
Na2A_2 O5 1_555 1_555
O3_2 Na2 1_555 1_555
O3A Na2 1_555 1_555
O4A Na1 1_555 1_555
O5A Na2 1_555 1_555
C7 C8 1_555 1_555
C13 C14 1_555 1_555
C19 C20 1_555 1_555
C27 C28 1_555 1_555
C33 C34 1_555 1_555
C39 C40 1_555 1_555
Na1A O4A 1_555 1_555
Na2A_2 O3_2 1_555 1_555
Na2A_2 O3A 1_555 1_555

#END
