
#######################################################################
#
#                 Cambridge Crystallographic Data Centre
#                                CCDC 
#
#######################################################################
#
# If this CIF has been generated from an entry in the Cambridge 
# Structural Database, then it will include bibliographic, chemical, 
# crystal, experimental, refinement or atomic coordinate data resulting 
# from the CCDC's data processing and validation procedures.
#
#######################################################################

data_CPRGLR
_symmetry_cell_setting           tetragonal
_symmetry_space_group_name_H-M   'P 41 21 2'
_symmetry_Int_Tables_number      92
_space_group_name_Hall           'P 4abw 2nw'
loop_
_symmetry_equiv_pos_site_id
_symmetry_equiv_pos_as_xyz
1 x,y,z
2 1/2-y,1/2+x,1/4+z
3 -x,-y,1/2+z
4 1/2+y,1/2-x,3/4+z
5 y,x,-z
6 1/2+x,1/2-y,3/4-z
7 -y,-x,1/2-z
8 1/2-x,1/2+y,1/4-z
_cell_length_a                   13.787(1)
_cell_length_b                   13.787(1)
_cell_length_c                   38.974(7)
_cell_angle_alpha                90
_cell_angle_beta                 90
_cell_angle_gamma                90
_cell_volume                     7408.23
loop_
_atom_site_label
_atom_site_type_symbol
_atom_site_fract_x
_atom_site_fract_y
_atom_site_fract_z
N1 N 0.01500 0.25200 -0.18280
C1 C 0.07000 0.33100 -0.19580
C2 C 0.16400 0.32200 -0.17870
C3 C 0.16400 0.22200 -0.16030
C4 C 0.06500 0.19800 -0.15300
C5 C 0.01600 0.43100 -0.19010
O1 O -0.05000 0.43300 -0.16920
N2 N 0.06000 0.50000 -0.20780
C6 C 0.03300 0.60100 -0.20060
C7 C -0.06100 0.62100 -0.22150
O2 O -0.11400 0.56900 -0.23670
N3 N -0.07600 0.72500 -0.21690
C8 C -0.14900 0.76700 -0.23890
C9 C -0.12200 0.86900 -0.23970
C10 C -0.06000 0.88500 -0.21010
C11 C -0.00500 0.80200 -0.20270
C12 C -0.25700 0.75300 -0.22310
O3 O -0.32300 0.79200 -0.23650
N4 N -0.25900 0.71600 -0.19060
C13 C -0.35600 0.70900 -0.17410
C14 C -0.41600 0.63000 -0.19400
O4 O -0.39300 0.57300 -0.21550
N5 N -0.50800 0.62800 -0.17910
C15 C -0.58600 0.56300 -0.19410
C16 C -0.67900 0.59500 -0.17830
C17 C -0.64100 0.63700 -0.14410
C18 C -0.55000 0.68300 -0.15200
C19 C -0.55500 0.46100 -0.18450
O5 O -0.52600 0.43700 -0.15420
N6 N -0.57800 0.38600 -0.20760
C20 C -0.58200 0.28700 -0.19690
C21 C -0.48000 0.24100 -0.20370
O6 O -0.41300 0.28000 -0.21820
N7 N -0.47100 0.15100 -0.19200
C22 C -0.39300 0.09000 -0.20350
C23 C -0.43000 -0.01300 -0.19580
C24 C -0.49700 -0.00200 -0.16750
C25 C -0.54800 0.09300 -0.17640
C26 C -0.30100 0.11100 -0.18480
O7 O -0.30200 0.12500 -0.15330
N8 N -0.21700 0.12400 -0.19870
C27 C -0.12600 0.14800 -0.18400
C28 C -0.07200 0.22400 -0.19870
O8 O -0.10800 0.26600 -0.22290
Rb1 Rb -0.25500 0.42100 -0.20890
O9 O -0.32400 0.46100 -0.14330
H1 H 0.07900 0.32900 -0.22200
H2 H 0.22500 0.32100 -0.19600
H3 H 0.20000 0.23600 -0.13500
H4 H 0.20100 0.17400 -0.17300
H5 H 0.03400 0.21800 -0.12900
H6 H 0.10700 0.48500 -0.22700
H7 H 0.01900 0.60600 -0.17400
H8 H 0.09200 0.64700 -0.20600
H9 H -0.16800 0.77000 -0.26500
H10 H -0.18000 0.91800 -0.24100
H11 H -0.07600 0.88500 -0.26200
H12 H -0.11200 0.90200 -0.19000
H13 H -0.01900 0.94900 -0.21400
H14 H 0.06100 0.80700 -0.21500
H15 H 0.00400 0.79700 -0.17600
H16 H -0.20300 0.68800 -0.17800
H17 H -0.39100 0.77900 -0.17500
H18 H -0.34900 0.69400 -0.14700
H19 H -0.59600 0.56600 -0.22100
H20 H -0.72800 0.53800 -0.17600
H21 H -0.71100 0.65000 -0.19400
H22 H -0.63100 0.57900 -0.12500
H23 H -0.69300 0.68500 -0.13200
H24 H -0.50700 0.68500 -0.12900
H25 H -0.56600 0.75600 -0.15900
H26 H -0.59000 0.40100 -0.23300
H27 H -0.60100 0.28400 -0.17100
H28 H -0.63700 0.24900 -0.21100
H29 H -0.37500 0.10100 -0.22900
H30 H -0.37300 -0.06200 -0.19100
H31 H -0.467 -0.041 -0.219
H32 H -0.54800 -0.06100 -0.16700
H33 H -0.46000 -0.00100 -0.14400
H34 H -0.57200 0.12500 -0.15300
H35 H -0.60600 0.08200 -0.19200
H36 H -0.13900 0.15900 -0.15700
H37 H -0.08300 0.07900 -0.18400
Rb1F Rb -0.42100 0.25500 -0.29110
O6F O -0.28000 0.41300 -0.28180
S1 S 0.20600 -0.06600 -0.17440
C29 C 0.27800 -0.13900 -0.20990
N9 N 0.31800 -0.12900 -0.22510
O10 O 0.48600 -0.22900 -0.25180
O11 O -0.14600 -0.40100 -0.14670
loop_
_geom_bond_atom_site_label_1
_geom_bond_atom_site_label_2
_geom_bond_site_symmetry_1
_geom_bond_site_symmetry_2
N1 C1 1_555 1_555
C1 C2 1_555 1_555
C2 C3 1_555 1_555
C3 C4 1_555 1_555
C4 N1 1_555 1_555
C5 C1 1_555 1_555
O1 C5 1_555 1_555
N2 C5 1_555 1_555
C6 N2 1_555 1_555
C7 C6 1_555 1_555
O2 C7 1_555 1_555
N3 C7 1_555 1_555
C8 N3 1_555 1_555
C9 C8 1_555 1_555
C10 C9 1_555 1_555
C11 N3 1_555 1_555
C12 C8 1_555 1_555
O3 C12 1_555 1_555
N4 C12 1_555 1_555
C13 N4 1_555 1_555
C14 C13 1_555 1_555
O4 C14 1_555 1_555
N5 C14 1_555 1_555
C15 N5 1_555 1_555
C16 C15 1_555 1_555
C17 C16 1_555 1_555
C18 N5 1_555 1_555
C19 C15 1_555 1_555
O5 C19 1_555 1_555
N6 C19 1_555 1_555
C20 N6 1_555 1_555
C21 C20 1_555 1_555
O6 C21 1_555 1_555
N7 C21 1_555 1_555
C22 N7 1_555 1_555
C23 C22 1_555 1_555
C24 C23 1_555 1_555
C25 N7 1_555 1_555
C26 C22 1_555 1_555
O7 C26 1_555 1_555
N8 C26 1_555 1_555
C27 N8 1_555 1_555
C28 N1 1_555 1_555
O8 C28 1_555 1_555
Rb1 O2 1_555 1_555
O9 Rb1 1_555 1_555
H1 C1 1_555 1_555
H2 C2 1_555 1_555
H3 C3 1_555 1_555
H4 C3 1_555 1_555
H5 C4 1_555 1_555
H6 N2 1_555 1_555
H7 C6 1_555 1_555
H8 C6 1_555 1_555
H9 C8 1_555 1_555
H10 C9 1_555 1_555
H11 C9 1_555 1_555
H12 C10 1_555 1_555
H13 C10 1_555 1_555
H14 C11 1_555 1_555
H15 C11 1_555 1_555
H16 N4 1_555 1_555
H17 C13 1_555 1_555
H18 C13 1_555 1_555
H19 C15 1_555 1_555
H20 C16 1_555 1_555
H21 C16 1_555 1_555
H22 C17 1_555 1_555
H23 C17 1_555 1_555
H24 C18 1_555 1_555
H25 C18 1_555 1_555
H26 N6 1_555 1_555
H27 C20 1_555 1_555
H28 C20 1_555 1_555
H29 C22 1_555 1_555
H30 C23 1_555 1_555
H31 C23 1_555 1_555
H32 C24 1_555 1_555
H33 C24 1_555 1_555
H34 C25 1_555 1_555
H35 C25 1_555 1_555
H36 C27 1_555 1_555
H37 C27 1_555 1_555
S1 C29 1_555 1_555
C29 N9 1_555 1_555
Rb1F O6 1_555 1_555
O6F Rb1 1_555 1_555
C10 C11 1_555 1_555
O4 Rb1 1_555 1_555
C17 C18 1_555 1_555
O6 Rb1 1_555 1_555
C24 C25 1_555 1_555
C27 C28 1_555 1_555
O8 Rb1 1_555 1_555
Rb1F O6F 1_555 1_555

#END
