
#######################################################################
#
#                 Cambridge Crystallographic Data Centre
#                                CCDC 
#
#######################################################################
#
# If this CIF has been generated from an entry in the Cambridge 
# Structural Database, then it will include bibliographic, chemical, 
# crystal, experimental, refinement or atomic coordinate data resulting 
# from the CCDC's data processing and validation procedures.
#
#######################################################################

data_CRBBIA
_symmetry_cell_setting           monoclinic
_symmetry_space_group_name_H-M   'P 21/c'
_symmetry_Int_Tables_number      14
_space_group_name_Hall           '-P 2ybc'
loop_
_symmetry_equiv_pos_site_id
_symmetry_equiv_pos_as_xyz
1 x,y,z
2 -x,1/2+y,1/2-z
3 -x,-y,-z
4 x,1/2-y,1/2+z
_cell_length_a                   12.054(2)
_cell_length_b                   18.444(3)
_cell_length_c                   8.815(2)
_cell_angle_alpha                90
_cell_angle_beta                 108.09(1)
_cell_angle_gamma                90
_cell_volume                     1862.91
loop_
_atom_site_label
_atom_site_type_symbol
_atom_site_fract_x
_atom_site_fract_y
_atom_site_fract_z
Bi1 Bi 0.21780 0.29177 0.27044
I1 I 0.39708 0.30905 0.06215
S1 S -0.02610 0.25870 0.17450
S2 S 0.08480 0.37590 0.04440
C1 C -0.04330 0.33280 0.05190
N1 N -0.14520 0.35850 -0.03680
C2 C -0.25770 0.32320 -0.01880
C3 C -0.29650 0.26330 -0.13050
C4 C -0.15410 0.42430 -0.13650
C5 C -0.17380 0.41180 -0.30740
S3 S 0.14880 0.35540 0.50100
S4 S 0.35320 0.40370 0.41030
C6 C 0.26830 0.41030 0.53360
N2 N 0.29380 0.45880 0.65130
C7 C 0.22080 0.46830 0.75920
C8 C 0.13630 0.52780 0.70290
C9 C 0.40070 0.50720 0.68970
C10 C 0.50330 0.46800 0.79230
H1 H 0.08800 0.51900 0.59600
H2 H 0.17900 0.57300 0.70000
H3 H 0.09100 0.53500 0.77100
H4 H 0.51800 0.42500 0.73800
H5 H 0.49200 0.45300 0.89000
H6 H 0.57200 0.49800 0.81700
H7 H -0.24200 0.30700 0.09600
H8 H -0.31800 0.36100 -0.02800
H9 H -0.21900 0.45300 -0.11900
H10 H -0.08400 0.45300 -0.08400
H11 H 0.27000 0.47700 0.86900
H12 H 0.17900 0.42400 0.76500
H13 H 0.39000 0.55000 0.74600
H14 H 0.41600 0.52300 0.59400
I1C I 0.39708 0.19095 0.56215
Bi1C Bi 0.21780 0.20823 -0.22956
loop_
_geom_bond_atom_site_label_1
_geom_bond_atom_site_label_2
_geom_bond_site_symmetry_1
_geom_bond_site_symmetry_2
Bi1 I1 1_555 1_555
I1 Bi1C 1_555 1_555
S1 Bi1 1_555 1_555
S2 Bi1 1_555 1_555
C1 S1 1_555 1_555
N1 C1 1_555 1_555
C2 N1 1_555 1_555
C3 C2 1_555 1_555
C4 N1 1_555 1_555
C5 C4 1_555 1_555
S3 Bi1 1_555 1_555
S4 Bi1 1_555 1_555
C6 S3 1_555 1_555
N2 C6 1_555 1_555
C7 N2 1_555 1_555
C8 C7 1_555 1_555
C9 N2 1_555 1_555
C10 C9 1_555 1_555
H1 C8 1_555 1_555
H2 C8 1_555 1_555
H3 C8 1_555 1_555
H4 C10 1_555 1_555
H5 C10 1_555 1_555
H6 C10 1_555 1_555
H7 C2 1_555 1_555
H8 C2 1_555 1_555
H9 C4 1_555 1_555
H10 C4 1_555 1_555
H11 C7 1_555 1_555
H12 C7 1_555 1_555
H13 C9 1_555 1_555
H14 C9 1_555 1_555
I1C Bi1 1_555 1_555
S2 C1 1_555 1_555
S4 C6 1_555 1_555

#END
