
#######################################################################
#
#                 Cambridge Crystallographic Data Centre
#                                CCDC 
#
#######################################################################
#
# If this CIF has been generated from an entry in the Cambridge 
# Structural Database, then it will include bibliographic, chemical, 
# crystal, experimental, refinement or atomic coordinate data resulting 
# from the CCDC's data processing and validation procedures.
#
#######################################################################

data_CSTNME01
_symmetry_cell_setting           monoclinic
_symmetry_space_group_name_H-M   'P 21/n'
_symmetry_Int_Tables_number      14
_space_group_name_Hall           '-P 2yn'
loop_
_symmetry_equiv_pos_site_id
_symmetry_equiv_pos_as_xyz
1 x,y,z
2 1/2-x,1/2+y,1/2-z
3 -x,-y,-z
4 1/2+x,1/2-y,1/2+z
_cell_length_a                   8.1023(5)
_cell_length_b                   8.3297(4)
_cell_length_c                   9.4897(9)
_cell_angle_alpha                90
_cell_angle_beta                 99.208(6)
_cell_angle_gamma                90
_cell_volume                     632.204
loop_
_atom_site_label
_atom_site_type_symbol
_atom_site_fract_x
_atom_site_fract_y
_atom_site_fract_z
Cs1 Cs -0.76511(2) 0.12017(2) 0.11429(2)
O1 O -0.9951(3) 0.4050(3) 0.1666(3)
O2 O -1.1296(4) 0.6284(3) 0.1643(3)
O3 O -1.5579(3) 0.4246(3) 0.1405(2)
O4 O -1.3708(3) 0.5235(3) 0.3064(2)
O5 O -1.4289(3) 0.1958(3) -0.0005(3)
O6 O -1.1878(3) 0.2621(3) -0.0547(2)
N1 N -1.1254(3) 0.4820(3) 0.1527(3)
N2 N -1.4102(3) 0.4501(3) 0.1910(3)
N3 N -1.3014(3) 0.2798(3) 0.0179(3)
C1 C -1.2823(4) 0.3982(4) 0.1216(3)
Cs1B Cs -1.23489(2) -0.12017(2) -0.11429(2)
O1A O -0.5049(3) -0.0950(3) 0.3334(3)
O2B O -0.8704(4) 0.3716(3) -0.1643(3)
O3_2 O -0.5579(3) 0.4246(3) 0.1405(2)
O3A O -0.9421(3) -0.0754(3) 0.3595(2)
O4C O -0.8708(3) -0.0235(3) -0.1936(2)
O4A O -1.1292(3) 0.0235(3) 0.1936(2)
O5_2 O -0.4289(3) 0.1958(3) -0.0005(3)
O5B O -0.5711(3) -0.1958(3) 0.0005(3)
O6C O -0.6878(3) 0.2379(3) 0.4453(2)
O6B O -0.8122(3) -0.2621(3) 0.0547(2)
Cs1A Cs -0.73489(2) 0.62017(2) 0.38571(2)
Cs1B_2 Cs -1.23489(2) 0.87983(2) -0.11429(2)
Cs1_2 Cs -1.76511(2) 0.12017(2) 0.11429(2)
Cs1A_2 Cs -1.73489(2) 0.62017(2) 0.38571(2)
Cs1C Cs -1.26511(2) 0.37983(2) 0.61429(2)
Cs1C_2 Cs -1.26511(2) 0.37983(2) -0.38571(2)
loop_
_geom_bond_atom_site_label_1
_geom_bond_atom_site_label_2
_geom_bond_site_symmetry_1
_geom_bond_site_symmetry_2
Cs1 O1 1_555 1_555
O1 N1 1_555 1_555
O2 N1 1_555 1_555
O3 N2 1_555 1_555
O4 N2 1_555 1_555
O5 N3 1_555 1_555
O6 N3 1_555 1_555
N1 C1 1_555 1_555
N2 C1 1_555 1_555
N3 C1 1_555 1_555
Cs1B O5 1_555 1_555
O1A Cs1 1_555 1_555
O2B Cs1 1_555 1_555
O3_2 Cs1 1_555 1_555
O3A Cs1 1_555 1_555
O4C Cs1 1_555 1_555
O4A Cs1 1_555 1_555
O5_2 Cs1 1_555 1_555
O5B Cs1 1_555 1_555
O6C Cs1 1_555 1_555
O6B Cs1 1_555 1_555
Cs1A O1 1_555 1_555
Cs1B_2 O2 1_555 1_555
Cs1_2 O3 1_555 1_555
Cs1A_2 O3 1_555 1_555
Cs1C O4 1_555 1_555
Cs1C_2 O6 1_555 1_555
O4 Cs1A_2 1_555 1_555
O5 Cs1_2 1_555 1_555
O6 Cs1B 1_555 1_555
Cs1B O4C 1_555 1_555
Cs1B O4A 1_555 1_555
O3_2 Cs1A 1_555 1_555
O6C Cs1A 1_555 1_555

#END
