
#######################################################################
#
#                 Cambridge Crystallographic Data Centre
#                                CCDC 
#
#######################################################################
#
# If this CIF has been generated from an entry in the Cambridge 
# Structural Database, then it will include bibliographic, chemical, 
# crystal, experimental, refinement or atomic coordinate data resulting 
# from the CCDC's data processing and validation procedures.
#
#######################################################################

data_CUBLOA
_symmetry_cell_setting           triclinic
_symmetry_space_group_name_H-M   'P -1'
_symmetry_Int_Tables_number      2
_space_group_name_Hall           '-P 1'
loop_
_symmetry_equiv_pos_site_id
_symmetry_equiv_pos_as_xyz
1 x,y,z
2 -x,-y,-z
_cell_length_a                   6.61(1)
_cell_length_b                   8.84(2)
_cell_length_c                   8.90(2)
_cell_angle_alpha                104.5(1)
_cell_angle_beta                 96.0(1)
_cell_angle_gamma                88.5(1)
_cell_volume                     500.725
loop_
_atom_site_label
_atom_site_type_symbol
_atom_site_fract_x
_atom_site_fract_y
_atom_site_fract_z
Cu1 Cu 0.0000 0.0000 0.0000
Sr1 Sr 0.2486(2) 0.0248(1) 0.3831(1)
C1 C 0.2532(26) 0.3171(21) 0.2072(20)
O1 O 0.2370(20) 0.2987(16) 0.3408(15)
O2 O 0.2477(19) 0.2136(15) 0.0823(15)
C2 C 0.2848(21) -0.0410(15) -0.2198(16)
O3 O 0.0983(15) -0.0306(11) -0.2052(11)
O4 O 0.3665(17) -0.0319(13) -0.3392(13)
C3 C -0.2487(26) 0.2726(20) -0.0234(20)
O5 O -0.2090(16) 0.1314(12) -0.0880(12)
O6 O -0.2003(21) 0.3453(17) 0.1078(17)
O7 O 0.5124(17) 0.2289(13) 0.6069(13)
O8 O -0.0021(17) 0.1857(13) 0.5723(13)
C1A C -0.2532(26) -0.3171(21) -0.2072(20)
O1A O -0.2370(20) -0.2987(16) -0.3408(15)
O2A O -0.2477(19) -0.2136(15) -0.0823(15)
C2A C -0.2848(21) 0.0410(15) 0.2198(16)
O3A O -0.0983(15) 0.0306(11) 0.2052(11)
O4A O -0.3665(17) 0.0319(13) 0.3392(13)
C3A C 0.2487(26) -0.2726(20) 0.0234(20)
O5A O 0.2090(16) -0.1314(12) 0.0880(12)
O6A O 0.2003(21) -0.3453(17) -0.1078(17)
Sr1A Sr -0.2486(2) -0.0248(1) -0.3831(1)
O7A O 0.4876(17) -0.2289(13) 0.3931(13)
O8A O 0.0021(17) -0.1857(13) 0.4277(13)
O4_2 O 0.3665(17) -0.0319(13) 0.6608(13)
O4A_2 O 0.6335(17) 0.0319(13) 0.3392(13)
Sr1_2 Sr 0.2486(2) 0.0248(1) -0.6169(1)
Sr1A_2 Sr 0.7514(2) -0.0248(1) -0.3831(1)
Sr1A_3 Sr 0.7514(2) -0.0248(1) 0.6169(1)
Sr1A_4 Sr -0.2486(2) -0.0248(1) 0.6169(1)
Sr1_3 Sr -0.7514(2) 0.0248(1) 0.3831(1)
O4_3 O -0.6335(17) -0.0319(13) -0.3392(13)
O4A_3 O -0.3665(17) 0.0319(13) -0.6608(13)
O7_2 O -0.4876(17) 0.2289(13) -0.3931(13)
O7A_2 O -0.5124(17) -0.2289(13) -0.6069(13)
O8_2 O -0.0021(17) 0.1857(13) -0.4277(13)
O8A_2 O 0.0021(17) -0.1857(13) -0.5723(13)
O9 O 0.2492(18) 0.3363(14) 0.8277(14)
O10 O -0.2397(19) 0.4020(15) 0.4551(15)
loop_
_geom_bond_atom_site_label_1
_geom_bond_atom_site_label_2
_geom_bond_site_symmetry_1
_geom_bond_site_symmetry_2
Cu1 O2 1_555 1_555
Sr1 O1 1_555 1_555
C1 O1 1_555 1_555
O2 C1 1_555 1_555
C2 O3 1_555 1_555
O3 Cu1 1_555 1_555
O4 C2 1_555 1_555
C3 O5 1_555 1_555
O5 Cu1 1_555 1_555
O6 C3 1_555 1_555
O7 Sr1 1_555 1_555
O8 Sr1 1_555 1_555
C1A O1A 1_555 1_555
O1A Sr1A 1_555 1_555
O2A Cu1 1_555 1_555
C2A O3A 1_555 1_555
O3A Cu1 1_555 1_555
O4A C2A 1_555 1_555
C3A O5A 1_555 1_555
O5A Cu1 1_555 1_555
O6A C3A 1_555 1_555
Sr1A O3 1_555 1_555
O7A Sr1 1_555 1_555
O8A Sr1 1_555 1_555
O4_2 Sr1 1_555 1_555
O4A_2 Sr1 1_555 1_555
Sr1_2 O4 1_555 1_555
Sr1A_2 O4 1_555 1_555
Sr1A_3 O7 1_555 1_555
Sr1A_4 O8 1_555 1_555
Sr1_3 O4A 1_555 1_555
O4_3 Sr1A 1_555 1_555
O4A_3 Sr1A 1_555 1_555
O7_2 Sr1A 1_555 1_555
O7A_2 Sr1A 1_555 1_555
O8_2 Sr1A 1_555 1_555
O8A_2 Sr1A 1_555 1_555
Sr1 O3A 1_555 1_555
Sr1 O5A 1_555 1_555
O5 Sr1A 1_555 1_555
C1A O2A 1_555 1_555
O4A Sr1A_4 1_555 1_555
O7A Sr1A_3 1_555 1_555
O8A Sr1A_4 1_555 1_555
O4_2 Sr1A_3 1_555 1_555
O4A_2 Sr1A_3 1_555 1_555
Sr1_2 O8_2 1_555 1_555
Sr1_2 O8A_2 1_555 1_555

#END
