
#######################################################################
#
#                 Cambridge Crystallographic Data Centre
#                                CCDC 
#
#######################################################################
#
# If this CIF has been generated from an entry in the Cambridge 
# Structural Database, then it will include bibliographic, chemical, 
# crystal, experimental, refinement or atomic coordinate data resulting 
# from the CCDC's data processing and validation procedures.
#
#######################################################################

data_CUBMIX
_symmetry_cell_setting           monoclinic
_symmetry_space_group_name_H-M   'P 21/c'
_symmetry_Int_Tables_number      14
_space_group_name_Hall           '-P 2ybc'
loop_
_symmetry_equiv_pos_site_id
_symmetry_equiv_pos_as_xyz
1 x,y,z
2 -x,1/2+y,1/2-z
3 -x,-y,-z
4 x,1/2-y,1/2+z
_cell_length_a                   7.516(4)
_cell_length_b                   13.068(6)
_cell_length_c                   14.645(7)
_cell_angle_alpha                90
_cell_angle_beta                 99.759(11)
_cell_angle_gamma                90
_cell_volume                     1417.6
loop_
_atom_site_label
_atom_site_type_symbol
_atom_site_fract_x
_atom_site_fract_y
_atom_site_fract_z
Cu1 Cu 0.65508(11) 0.58106(6) 0.04001(6)
Cu2 Cu 0.56717(11) 0.41284(6) 0.18413(6)
O1 O 0.7459(7) 0.6579(4) 0.1542(3)
O2 O 0.6352(7) 0.5520(4) 0.2511(4)
O3 O 0.9110(7) 0.8984(4) 0.1910(4)
O4 O 0.6360(7) 0.8804(4) 0.2257(3)
O5 O 1.2166(6) 0.9549(4) 0.4188(3)
O6 O 0.9320(7) 1.0087(4) 0.3885(4)
O7 O 0.4158(6) 0.4790(4) 0.0821(3)
H1 H 0.308(5) 0.483(5) 0.099(5)
O8 O 0.7454(7) 0.3557(4) 0.2827(4)
H2 H 0.733(6) 0.2893(17) 0.287(4)
H3 H 0.864(3) 0.366(4) 0.287(6)
N1 N 0.5423(8) 0.7074(5) -0.0119(4)
N2 N 0.4598(8) 0.7198(4) -0.1022(4)
N3 N 0.4464(9) 0.8642(4) -0.0295(4)
C1 C 0.4113(11) 0.9714(6) -0.0080(7)
H4 H 0.3556 0.9749 0.0470
H5 H 0.3296 1.0020 -0.0591
C2 C 0.5317(10) 0.7957(6) 0.0303(6)
H6 H 0.5768 0.8084 0.0924
C3 C 0.4052(10) 0.8138(5) -0.1108(5)
H7 H 0.3457 0.8427 -0.1656
C4 C 0.8333(9) 0.6832(5) 0.3161(5)
C5 C 0.8775(9) 0.7886(5) 0.3163(5)
C6 C 0.9880(9) 0.8296(5) 0.3949(5)
C7 C 1.0471(10) 0.7692(6) 0.4714(5)
H8 H 1.1202 0.7972 0.5229
C8 C 0.9978(10) 0.6659(6) 0.4718(5)
H9 H 1.0349 0.6255 0.5239
C9 C 0.8935(10) 0.6250(6) 0.3939(5)
H10 H 0.8627 0.5561 0.3938
C10 C 0.7288(10) 0.6280(5) 0.2346(5)
C11 C 0.8033(9) 0.8610(5) 0.2387(5)
C12 C 1.0464(10) 0.9398(6) 0.3995(5)
N1B N 0.4577(8) 1.2926(5) 0.0119(4)
N2B N 0.5402(8) 1.2802(4) 0.1022(4)
N3B N 0.5536(9) 1.1358(4) 0.0295(4)
C1B C 0.5887(11) 1.0286(6) 0.0080(7)
H4B H 0.6444 1.0251 -0.0470
H5B H 0.6704 0.9980 0.0591
C2B C 0.4683(10) 1.2043(6) -0.0303(6)
H6B H 0.4232 1.1916 -0.0924
C3B C 0.5948(10) 1.1862(5) 0.1108(5)
H7B H 0.6543 1.1573 0.1656
Cu1B Cu 0.34492(11) 0.41894(6) -0.04001(6)
Cu2B Cu 0.43283(11) 0.58716(6) -0.18413(6)
O1B O 0.2541(7) 0.3421(4) -0.1542(3)
O2B O 0.3648(7) 0.4480(4) -0.2511(4)
O3B O 0.0890(7) 0.1016(4) -0.1910(4)
O4B O 0.3640(7) 0.1196(4) -0.2257(3)
O5B O -0.2166(6) 0.0451(4) -0.4188(3)
O6B O 0.0680(7) -0.0087(4) -0.3885(4)
O7B O 0.5842(6) 0.5210(4) -0.0821(3)
H1B H 0.692(5) 0.517(5) -0.099(5)
O8B O 0.2546(7) 0.6443(4) -0.2827(4)
H2B H 0.267(6) 0.7107(17) -0.287(4)
H3B H 0.136(3) 0.634(4) -0.287(6)
C4B C 0.1667(9) 0.3168(5) -0.3161(5)
C5B C 0.1225(9) 0.2114(5) -0.3163(5)
C6B C 0.0120(9) 0.1704(5) -0.3949(5)
C7B C -0.0471(10) 0.2308(6) -0.4714(5)
H8B H -0.1202 0.2028 -0.5229
C8B C 0.0022(10) 0.3341(6) -0.4718(5)
H9B H -0.0349 0.3745 -0.5239
C9B C 0.1065(10) 0.3750(6) -0.3939(5)
H10B H 0.1373 0.4439 -0.3938
C10B C 0.2712(10) 0.3720(5) -0.2346(5)
C11B C 0.1967(9) 0.1390(5) -0.2387(5)
C12B C -0.0464(10) 0.0602(6) -0.3995(5)
Cu1A Cu 1.34492(11) 1.08106(6) 0.45999(6)
Cu1B_2 Cu 0.34492(11) 1.41894(6) -0.04001(6)
Cu1C Cu -0.34492(11) -0.08106(6) -0.45999(6)
Cu2_2 Cu 0.56717(11) 1.41284(6) 0.18413(6)
Cu2A Cu 0.43283(11) 0.91284(6) 0.31587(6)
Cu2A_2 Cu 1.43283(11) 0.91284(6) 0.31587(6)
Cu2C Cu -0.43283(11) 0.08716(6) -0.31587(6)
Cu2C_2 Cu 0.56717(11) 0.08716(6) -0.31587(6)
O4A O 0.3640(7) 0.3804(4) 0.2743(3)
O4C O 0.6360(7) 0.6196(4) -0.2743(3)
O5A O 0.7834(6) 0.4549(4) 0.0812(3)
O5C O 0.2166(6) 0.5451(4) -0.0812(3)
N1B_2 N 0.4577(8) 0.2926(5) 0.0119(4)
N2B_2 N 0.5402(8) 0.2802(4) 0.1022(4)
O9 O 0.2790(10) 0.6593(6) 0.1850(5)
H11 H 0.166(5) 0.631(3) 0.176(6)
H12 H 0.315(11) 0.643(5) 0.131(4)
loop_
_geom_bond_atom_site_label_1
_geom_bond_atom_site_label_2
_geom_bond_site_symmetry_1
_geom_bond_site_symmetry_2
Cu1 O1 1_555 1_555
Cu2 O2 1_555 1_555
O1 C10 1_555 1_555
O2 C10 1_555 1_555
O3 C11 1_555 1_555
O4 C11 1_555 1_555
O5 C12 1_555 1_555
O6 C12 1_555 1_555
O7 Cu1 1_555 1_555
H1 O7 1_555 1_555
O8 Cu2 1_555 1_555
H2 O8 1_555 1_555
H3 O8 1_555 1_555
N1 Cu1 1_555 1_555
N2 N1 1_555 1_555
N3 C1 1_555 1_555
C1 H4 1_555 1_555
H5 C1 1_555 1_555
C2 N1 1_555 1_555
H6 C2 1_555 1_555
C3 N2 1_555 1_555
H7 C3 1_555 1_555
C4 C5 1_555 1_555
C5 C6 1_555 1_555
C6 C7 1_555 1_555
C7 H8 1_555 1_555
C8 C7 1_555 1_555
H9 C8 1_555 1_555
C9 C4 1_555 1_555
H10 C9 1_555 1_555
C10 C4 1_555 1_555
C11 C5 1_555 1_555
C12 C6 1_555 1_555
O9 H11 1_555 1_555
H12 O9 1_555 1_555
N1B N2B 1_555 1_555
N2B C3B 1_555 1_555
N3B C1B 1_555 1_555
C1B C1 1_555 1_555
H4B C1B 1_555 1_555
H5B C1B 1_555 1_555
C2B N1B 1_555 1_555
H6B C2B 1_555 1_555
C3B N3B 1_555 1_555
H7B C3B 1_555 1_555
Cu1B O7 1_555 1_555
Cu2B N2 1_555 1_555
O1B Cu1B 1_555 1_555
O2B Cu2B 1_555 1_555
O3B C11B 1_555 1_555
O4B C11B 1_555 1_555
O5B C12B 1_555 1_555
O6B C12B 1_555 1_555
O7B Cu1 1_555 1_555
H1B O7B 1_555 1_555
O8B Cu2B 1_555 1_555
H2B O8B 1_555 1_555
H3B O8B 1_555 1_555
C4B C5B 1_555 1_555
C5B C6B 1_555 1_555
C6B C7B 1_555 1_555
C7B H8B 1_555 1_555
C8B C7B 1_555 1_555
H9B C8B 1_555 1_555
C9B C4B 1_555 1_555
H10B C9B 1_555 1_555
C10B O1B 1_555 1_555
C11B C5B 1_555 1_555
C12B C6B 1_555 1_555
Cu1A O5 1_555 1_555
Cu1B_2 N1B 1_555 1_555
Cu1C O5B 1_555 1_555
Cu2_2 N2B 1_555 1_555
Cu2A O4 1_555 1_555
Cu2A_2 O5 1_555 1_555
Cu2C O5B 1_555 1_555
Cu2C_2 O4B 1_555 1_555
O4A Cu2 1_555 1_555
O4C Cu2B 1_555 1_555
O5A Cu1 1_555 1_555
O5C Cu1B 1_555 1_555
N1B_2 Cu1B 1_555 1_555
N2B_2 Cu2 1_555 1_555
Cu2 O7 1_555 1_555
Cu2 O5A 1_555 1_555
N3 C2 1_555 1_555
N3 C3 1_555 1_555
C8 C9 1_555 1_555
N3B C2B 1_555 1_555
Cu1B O7B 1_555 1_555
Cu2B O7B 1_555 1_555
Cu2B O5C 1_555 1_555
O2B C10B 1_555 1_555
C4B C10B 1_555 1_555
C8B C9B 1_555 1_555
N1B_2 N2B_2 1_555 1_555

#END
