
#######################################################################
#
#                 Cambridge Crystallographic Data Centre
#                                CCDC 
#
#######################################################################
#
# If this CIF has been generated from an entry in the Cambridge 
# Structural Database, then it will include bibliographic, chemical, 
# crystal, experimental, refinement or atomic coordinate data resulting 
# from the CCDC's data processing and validation procedures.
#
#######################################################################

data_CUBMUJ
_symmetry_cell_setting           triclinic
_symmetry_space_group_name_H-M   'P -1'
_symmetry_Int_Tables_number      2
_space_group_name_Hall           '-P 1'
loop_
_symmetry_equiv_pos_site_id
_symmetry_equiv_pos_as_xyz
1 x,y,z
2 -x,-y,-z
_cell_length_a                   8.4824(17)
_cell_length_b                   11.011(2)
_cell_length_c                   18.583(4)
_cell_angle_alpha                78.75(3)
_cell_angle_beta                 81.03(3)
_cell_angle_gamma                69.88(3)
_cell_volume                     1590.96
loop_
_atom_site_label
_atom_site_type_symbol
_atom_site_fract_x
_atom_site_fract_y
_atom_site_fract_z
Cd1 Cd 0.55129(5) 0.74840(3) 0.419119(19)
Cd2 Cd 0.99705(5) 0.69515(4) 0.26175(2)
Cd3 Cd 0.74809(5) 0.77309(4) 0.09116(2)
O1 O 0.4748(6) 0.8331(4) 0.5389(2)
O2 O 0.4740(6) 0.6390(4) 0.5291(2)
O3 O 0.5114(4) 0.3887(3) 0.64061(19)
O4 O 0.2585(5) 0.4821(4) 0.6029(2)
O5 O 0.1964(5) 0.3996(4) 0.7610(2)
O6 O 0.3130(5) 0.4083(4) 0.8583(2)
O7 O 0.7901(6) 0.6868(4) -0.0209(2)
O8 O 0.7757(5) 0.8922(4) -0.0316(2)
O9 O 0.6323(6) 1.1375(4) -0.1507(2)
O10 O 0.4462(5) 1.0345(4) -0.1086(2)
O11 O 0.4475(5) 1.1173(4) -0.2825(2)
O12 O 0.6548(5) 1.0725(4) -0.37183(19)
O13 O 0.8341(5) 0.8670(4) 0.1864(2)
H1 H 0.737(4) 0.903(5) 0.212(3)
H2 H 0.870(6) 0.934(4) 0.166(3)
O14 O 1.0615(5) 0.5253(4) 0.3539(2)
H3 H 1.080(7) 0.552(6) 0.394(2)
H4 H 0.987(6) 0.484(5) 0.372(3)
O15 O 1.2422(5) 0.7332(5) 0.2661(2)
H5 H 1.279(4) 0.657(4) 0.303(2)
H6 H 1.329(5) 0.720(5) 0.234(2)
N1 N 0.7705(5) 0.8228(4) 0.4131(2)
N2 N 0.8985(6) 0.8249(5) 0.3565(2)
N3 N 0.8991(6) 0.9503(4) 0.4339(3)
N4 N 1.1320(5) 0.6396(5) 0.1487(3)
N5 N 1.0397(5) 0.6586(4) 0.0904(2)
N6 N 1.2977(5) 0.5436(5) 0.0601(3)
C1 C 0.7745(7) 0.8989(5) 0.4578(3)
H7 H 0.7014 0.9153 0.5002
C2 C 0.9715(7) 0.9028(6) 0.3709(3)
H8 H 1.0613 0.9228 0.3416
C3 C 0.9471(8) 1.0396(6) 0.4691(3)
H9 H 0.8467 1.1037 0.4883
H10 H 1.0108 1.0857 0.4331
C4 C 1.2856(7) 0.5728(6) 0.1285(3)
H11 H 1.3754 0.5482 0.1571
C5 C 1.1442(7) 0.6007(6) 0.0385(3)
H12 H 1.1148 0.5997 -0.0075
C6 C 1.4462(8) 0.4619(7) 0.0184(4)
H13 H 1.5097 0.3882 0.0518
H14 H 1.4090 0.4279 -0.0179
C7 C 0.3904(7) 0.7058(5) 0.6467(3)
C8 C 0.3541(6) 0.5907(5) 0.6797(3)
C9 C 0.3074(6) 0.5715(5) 0.7562(3)
C10 C 0.2974(8) 0.6671(5) 0.7963(3)
H15 H 0.2664 0.6548 0.8467
C11 C 0.3318(9) 0.7809(6) 0.7643(3)
H16 H 0.3236 0.8440 0.7928
C12 C 0.3783(8) 0.7988(5) 0.6901(3)
H17 H 0.4022 0.8748 0.6683
C13 C 0.4510(7) 0.7274(5) 0.5662(3)
C14 C 0.3734(6) 0.4840(5) 0.6370(3)
C15 C 0.2685(6) 0.4503(5) 0.7939(3)
C16 C 0.7774(7) 0.8085(5) -0.1409(3)
C17 C 0.6869(6) 0.9249(5) -0.1821(3)
C18 C 0.6919(6) 0.9298(5) -0.2583(3)
C19 C 0.7859(7) 0.8204(5) -0.2906(3)
H18 H 0.7906 0.8252 -0.3414
C20 C 0.8714(8) 0.7065(6) -0.2502(3)
H19 H 0.9324 0.6340 -0.2730
C21 C 0.8670(7) 0.6992(6) -0.1749(3)
H20 H 0.9240 0.6210 -0.1467
C22 C 0.7800(6) 0.7940(5) -0.0585(3)
C23 C 0.5833(7) 1.0415(5) -0.1445(3)
C24 C 0.5893(6) 1.0498(5) -0.3074(3)
N1A N 1.2295(5) 1.1772(4) 0.5869(2)
N2A N 1.1015(6) 1.1751(5) 0.6435(2)
N3A N 1.1009(6) 1.0497(4) 0.5661(3)
C1A C 1.2255(7) 1.1011(5) 0.5422(3)
H7A H 1.2986 1.0847 0.4998
C2A C 1.0285(7) 1.0972(6) 0.6291(3)
H8A H 0.9387 1.0772 0.6584
C3A C 1.0529(8) 0.9604(6) 0.5309(3)
H9A H 1.1533 0.8963 0.5117
H10A H 0.9892 0.9143 0.5669
N4A N 1.8680(5) 0.3604(5) -0.1487(3)
N5A N 1.9603(5) 0.3414(4) -0.0904(2)
N6A N 1.7023(5) 0.4564(5) -0.0601(3)
C4A C 1.7144(7) 0.4272(6) -0.1285(3)
H11A H 1.6246 0.4518 -0.1571
C5A C 1.8558(7) 0.3993(6) -0.0385(3)
H12A H 1.8852 0.4003 0.0075
C6A C 1.5538(8) 0.5381(7) -0.0184(4)
H13A H 1.4903 0.6118 -0.0518
H14A H 1.5910 0.5721 0.0179
Cd1A Cd 0.44871(5) 0.25160(3) 0.580881(19)
Cd2A Cd 0.00295(5) 0.30485(4) 0.73825(2)
Cd3A Cd 0.25191(5) 0.22691(4) 0.90884(2)
O1A O 0.5252(6) 0.1669(4) 0.4611(2)
O2A O 0.5260(6) 0.3610(4) 0.4709(2)
O3A O 0.4886(4) 0.6113(3) 0.35939(19)
O4A O 0.7415(5) 0.5179(4) 0.3971(2)
O5A O 0.8036(5) 0.6004(4) 0.2390(2)
O6A O 0.6870(5) 0.5917(4) 0.1417(2)
O7A O 0.2099(6) 0.3132(4) 1.0209(2)
O8A O 0.2243(5) 0.1078(4) 1.0316(2)
O9A O 0.3677(6) -0.1375(4) 1.1507(2)
O10A O 0.5538(5) -0.0345(4) 1.1086(2)
O11A O 0.5525(5) -0.1173(4) 1.2825(2)
O12A O 0.3452(5) -0.0725(4) 1.37183(19)
O13A O 0.1659(5) 0.1330(4) 0.8136(2)
H1A H 0.263(4) 0.097(5) 0.788(3)
H2A H 0.130(6) 0.066(4) 0.834(3)
O14A O -0.0615(5) 0.4747(4) 0.6461(2)
H3A H -0.080(7) 0.448(6) 0.606(2)
H4A H 0.013(6) 0.516(5) 0.628(3)
O15A O -0.2422(5) 0.2668(5) 0.7339(2)
H5A H -0.279(4) 0.343(4) 0.697(2)
H6A H -0.329(5) 0.280(5) 0.766(2)
C7A C 0.6096(7) 0.2942(5) 0.3533(3)
C8A C 0.6459(6) 0.4093(5) 0.3203(3)
C9A C 0.6926(6) 0.4285(5) 0.2438(3)
C10A C 0.7026(8) 0.3329(5) 0.2037(3)
H15A H 0.7336 0.3452 0.1533
C11A C 0.6682(9) 0.2191(6) 0.2357(3)
H16A H 0.6764 0.1560 0.2072
C12A C 0.6217(8) 0.2012(5) 0.3099(3)
H17A H 0.5978 0.1252 0.3317
C13A C 0.5490(7) 0.2726(5) 0.4338(3)
C14A C 0.6266(6) 0.5160(5) 0.3630(3)
C15A C 0.7315(6) 0.5497(5) 0.2061(3)
C16A C 0.2226(7) 0.1915(5) 1.1409(3)
C17A C 0.3131(6) 0.0751(5) 1.1821(3)
C18A C 0.3081(6) 0.0702(5) 1.2583(3)
C19A C 0.2141(7) 0.1796(5) 1.2906(3)
H18A H 0.2094 0.1748 1.3414
C20A C 0.1286(8) 0.2935(6) 1.2502(3)
H19A H 0.0676 0.3660 1.2730
C21A C 0.1330(7) 0.3008(6) 1.1749(3)
H20A H 0.0760 0.3790 1.1467
C22A C 0.2200(6) 0.2060(5) 1.0585(3)
C23A C 0.4167(7) -0.0415(5) 1.1445(3)
C24A C 0.4107(6) -0.0498(5) 1.3074(3)
Cd1_2 Cd 0.55129(5) -0.25160(3) 1.419119(19)
Cd1A_2 Cd 0.44871(5) 1.25160(3) -0.419119(19)
Cd1A_3 Cd 1.44871(5) 1.25160(3) 0.580881(19)
Cd2A_2 Cd 1.00295(5) 1.30485(4) 0.73825(2)
Cd2A_3 Cd 2.00295(5) 0.30485(4) -0.26175(2)
Cd3_2 Cd 0.74809(5) -0.22691(4) 1.09116(2)
Cd3A_2 Cd 0.25191(5) 1.22691(4) -0.09116(2)
Cd3A_3 Cd 2.25191(5) 0.22691(4) -0.09116(2)
O10_2 O 0.4462(5) 0.0345(4) 0.8914(2)
O10A_2 O 0.5538(5) 0.9655(4) 0.1086(2)
O11_2 O 0.4475(5) 0.1173(4) 0.7175(2)
O11A_2 O 0.5525(5) 0.8827(4) 0.2825(2)
O12_2 O 0.6548(5) 0.0725(4) 0.62817(19)
O12A_2 O 0.3452(5) 0.9275(4) 0.37183(19)
N1A_2 N 0.2295(5) 0.1772(4) 0.5869(2)
N2A_2 N 0.1015(6) 0.1751(5) 0.6435(2)
N4A_2 N -0.1320(5) 0.3604(5) 0.8513(3)
N5A_2 N -0.0397(5) 0.3414(4) 0.9096(2)
O16 O 0.1835(6) 0.6054(6) 0.4558(3)
H21 H 0.202(8) 0.573(7) 0.5027(14)
H22 H 0.285(4) 0.604(7) 0.434(3)
O17 O 0.9228(8) 1.0491(7) 0.0936(3)
H23 H 1.017(4) 0.999(3) 0.072(4)
H24 H 0.860(7) 1.088(7) 0.056(3)
O18 O 0.6574(8) 1.1636(5) 0.0051(3)
H25 H 0.605(7) 1.110(6) 0.032(3)
H26 H 0.665(10) 1.147(7) -0.0408(16)
loop_
_geom_bond_atom_site_label_1
_geom_bond_atom_site_label_2
_geom_bond_site_symmetry_1
_geom_bond_site_symmetry_2
Cd1 O1 1_555 1_555
Cd2 O13 1_555 1_555
Cd3 O7 1_555 1_555
O1 C13 1_555 1_555
O2 Cd1 1_555 1_555
O3 C14 1_555 1_555
O4 C14 1_555 1_555
O5 C15 1_555 1_555
O6 C15 1_555 1_555
O7 C22 1_555 1_555
O8 Cd3 1_555 1_555
O9 C23 1_555 1_555
O10 C23 1_555 1_555
O11 C24 1_555 1_555
O12 C24 1_555 1_555
O13 Cd3 1_555 1_555
H1 O13 1_555 1_555
H2 O13 1_555 1_555
O14 Cd2 1_555 1_555
H3 O14 1_555 1_555
H4 O14 1_555 1_555
O15 Cd2 1_555 1_555
H5 O15 1_555 1_555
H6 O15 1_555 1_555
N1 Cd1 1_555 1_555
N2 Cd2 1_555 1_555
N3 C1 1_555 1_555
N4 Cd2 1_555 1_555
N5 Cd3 1_555 1_555
N6 C4 1_555 1_555
C1 N1 1_555 1_555
H7 C1 1_555 1_555
C2 N2 1_555 1_555
H8 C2 1_555 1_555
C3 N3 1_555 1_555
H9 C3 1_555 1_555
H10 C3 1_555 1_555
C4 N4 1_555 1_555
H11 C4 1_555 1_555
C5 N5 1_555 1_555
H12 C5 1_555 1_555
C6 N6 1_555 1_555
H13 C6 1_555 1_555
H14 C6 1_555 1_555
C7 C8 1_555 1_555
C8 C9 1_555 1_555
C9 C10 1_555 1_555
C10 H15 1_555 1_555
C11 C10 1_555 1_555
H16 C11 1_555 1_555
C12 C7 1_555 1_555
H17 C12 1_555 1_555
C13 O2 1_555 1_555
C14 C8 1_555 1_555
C15 C9 1_555 1_555
C16 C17 1_555 1_555
C17 C18 1_555 1_555
C18 C19 1_555 1_555
C19 H18 1_555 1_555
C20 C19 1_555 1_555
H19 C20 1_555 1_555
C21 C16 1_555 1_555
H20 C21 1_555 1_555
C22 O8 1_555 1_555
C23 C17 1_555 1_555
C24 C18 1_555 1_555
O16 H21 1_555 1_555
H22 O16 1_555 1_555
O17 H23 1_555 1_555
H24 O17 1_555 1_555
O18 H25 1_555 1_555
H26 O18 1_555 1_555
N1A N2A 1_555 1_555
N2A C2A 1_555 1_555
N3A C1A 1_555 1_555
C1A N1A 1_555 1_555
H7A C1A 1_555 1_555
C2A N3A 1_555 1_555
H8A C2A 1_555 1_555
C3A C3 1_555 1_555
H9A C3A 1_555 1_555
H10A C3A 1_555 1_555
N4A N5A 1_555 1_555
N5A C5A 1_555 1_555
N6A C4A 1_555 1_555
C4A N4A 1_555 1_555
H11A C4A 1_555 1_555
C5A N6A 1_555 1_555
H12A C5A 1_555 1_555
C6A C6 1_555 1_555
H13A C6A 1_555 1_555
H14A C6A 1_555 1_555
Cd1A O3 1_555 1_555
Cd2A O5 1_555 1_555
Cd3A O6 1_555 1_555
O1A Cd1A 1_555 1_555
O2A Cd1A 1_555 1_555
O3A Cd1 1_555 1_555
O4A Cd1 1_555 1_555
O5A Cd2 1_555 1_555
O6A Cd3 1_555 1_555
O7A Cd3A 1_555 1_555
O8A Cd3A 1_555 1_555
O9A C23A 1_555 1_555
O10A C23A 1_555 1_555
O11A C24A 1_555 1_555
O12A C24A 1_555 1_555
O13A Cd2A 1_555 1_555
H1A O13A 1_555 1_555
H2A O13A 1_555 1_555
O14A Cd2A 1_555 1_555
H3A O14A 1_555 1_555
H4A O14A 1_555 1_555
O15A Cd2A 1_555 1_555
H5A O15A 1_555 1_555
H6A O15A 1_555 1_555
C7A C8A 1_555 1_555
C8A C9A 1_555 1_555
C9A C10A 1_555 1_555
C10A H15A 1_555 1_555
C11A C10A 1_555 1_555
H16A C11A 1_555 1_555
C12A C7A 1_555 1_555
H17A C12A 1_555 1_555
C13A O1A 1_555 1_555
C14A O3A 1_555 1_555
C15A O5A 1_555 1_555
C16A C17A 1_555 1_555
C17A C18A 1_555 1_555
C18A C19A 1_555 1_555
C19A H18A 1_555 1_555
C20A C19A 1_555 1_555
H19A C20A 1_555 1_555
C21A C16A 1_555 1_555
H20A C21A 1_555 1_555
C22A O7A 1_555 1_555
C23A C17A 1_555 1_555
C24A C18A 1_555 1_555
Cd1_2 O11A 1_555 1_555
Cd1A_2 O11 1_555 1_555
Cd1A_3 N1A 1_555 1_555
Cd2A_2 N2A 1_555 1_555
Cd2A_3 N4A 1_555 1_555
Cd3_2 O10A 1_555 1_555
Cd3A_2 O10 1_555 1_555
Cd3A_3 N5A 1_555 1_555
O10_2 Cd3A 1_555 1_555
O10A_2 Cd3 1_555 1_555
O11_2 Cd1A 1_555 1_555
O11A_2 Cd1 1_555 1_555
O12_2 Cd1A 1_555 1_555
O12A_2 Cd1 1_555 1_555
N1A_2 Cd1A 1_555 1_555
N2A_2 Cd2A 1_555 1_555
N4A_2 Cd2A 1_555 1_555
N5A_2 Cd3A 1_555 1_555
O4 Cd1A 1_555 1_555
O12 Cd1A_2 1_555 1_555
N1 N2 1_555 1_555
N3 C2 1_555 1_555
N4 N5 1_555 1_555
N6 C5 1_555 1_555
C7 C13 1_555 1_555
C11 C12 1_555 1_555
C16 C22 1_555 1_555
C20 C21 1_555 1_555
N3A C3A 1_555 1_555
N6A C6A 1_555 1_555
Cd3A O13A 1_555 1_555
O2A C13A 1_555 1_555
O4A C14A 1_555 1_555
O6A C15A 1_555 1_555
O8A C22A 1_555 1_555
O12A Cd1_2 1_555 1_555
C7A C13A 1_555 1_555
C8A C14A 1_555 1_555
C9A C15A 1_555 1_555
C11A C12A 1_555 1_555
C16A C22A 1_555 1_555
C20A C21A 1_555 1_555
N1A_2 N2A_2 1_555 1_555
N4A_2 N5A_2 1_555 1_555

#END
