
#######################################################################
#
#                 Cambridge Crystallographic Data Centre
#                                CCDC 
#
#######################################################################
#
# If this CIF has been generated from an entry in the Cambridge 
# Structural Database, then it will include bibliographic, chemical, 
# crystal, experimental, refinement or atomic coordinate data resulting 
# from the CCDC's data processing and validation procedures.
#
#######################################################################

data_CUBMOD
_symmetry_cell_setting           triclinic
_symmetry_space_group_name_H-M   'P -1'
_symmetry_Int_Tables_number      2
_space_group_name_Hall           '-P 1'
loop_
_symmetry_equiv_pos_site_id
_symmetry_equiv_pos_as_xyz
1 x,y,z
2 -x,-y,-z
_cell_length_a                   6.895(3)
_cell_length_b                   8.881(4)
_cell_length_c                   13.473(6)
_cell_angle_alpha                98.359(11)
_cell_angle_beta                 99.914(12)
_cell_angle_gamma                94.388(9)
_cell_volume                     799.683
loop_
_atom_site_label
_atom_site_type_symbol
_atom_site_fract_x
_atom_site_fract_y
_atom_site_fract_z
Zn1 Zn 0.56458(14) 1.87020(10) -0.07550(7)
O1 O 0.4220(9) 1.6614(7) -0.1596(4)
O2 O 0.6809(8) 2.0814(6) 0.0099(4)
O3 O 0.8120(9) 1.7905(7) -0.1276(4)
N1 N 0.5217(10) 1.9812(8) -0.2077(5)
O4 O 0.6431(8) 1.7476(6) 0.0564(4)
C1 C 0.2855(12) 1.5707(9) -0.1453(6)
Zn2 Zn 0.73212(15) 2.25852(11) -0.06424(7)
H1 H 0.779(9) 2.113(9) 0.065(4)
H2 H 0.878(7) 1.857(5) -0.158(5)
H3 H 0.899(9) 1.793(10) -0.069(4)
N2 N 0.6065(10) 2.1294(8) -0.2045(5)
C2 C 0.4481(12) 1.9288(10) -0.3040(6)
C3 C 0.8192(13) 1.7368(9) 0.0955(6)
O5 O 0.2066(9) 1.5820(7) -0.0664(4)
C4 C 0.2062(12) 1.4380(9) -0.2289(6)
O6 O 0.7468(10) 2.4530(7) -0.1437(5)
O7 O 1.0337(8) 2.2594(6) -0.0556(4)
C5 C 0.5771(13) 2.1584(10) -0.2974(6)
N3 N 0.4779(10) 2.0354(8) -0.3628(5)
H4 H 0.3840 1.8311 -0.3285
C6 C 0.8483(11) 1.7101(9) 0.2089(5)
C7 C 0.1877(13) 1.4649(10) -0.3292(6)
H5 H 0.722(14) 2.539(6) -0.105(4)
H6 H 0.739(14) 2.505(8) -0.207(4)
H7 H 0.6184 2.2505 -0.3164
C8 C 0.4178(13) 2.0194(11) -0.4730(6)
C9 C 0.9201(13) 1.8264(9) 0.2901(6)
C10 C 0.1128(13) 1.3501(11) -0.4083(7)
H8 H 0.2266 1.5616 -0.3422
H9 H 0.3721 2.1145 -0.4905
H10 H 0.3081 1.9398 -0.4957
C11 C 0.9395(12) 1.7973(11) 0.3900(6)
C12 C 0.9788(13) 1.9887(9) 0.2757(6)
H11 H 0.0963 1.3699 -0.4750
H12 H 0.9872 1.8757 0.4444
O8 O 0.9415(9) 2.0184(7) 0.1864(4)
O9 O 1.0592(12) 2.0809(8) 0.3517(5)
O2A O 0.3191(8) 1.9186(6) -0.0099(4)
Zn1A Zn 0.43542(14) 2.12980(10) 0.07550(7)
Zn2A Zn 0.26788(15) 1.74148(11) 0.06424(7)
O5A O 0.7934(9) 2.4180(7) 0.0664(4)
O7A O 0.9663(8) 1.7406(6) 0.0556(4)
C6A C 0.1517(11) 1.2899(9) -0.2089(5)
Zn2A_2 Zn 1.26788(15) 1.74148(11) 0.06424(7)
C4A C 0.7938(12) 1.5620(9) 0.2289(6)
C9A C 0.0799(13) 1.1736(9) -0.2901(6)
C3A C 0.1808(13) 1.2632(9) -0.0955(6)
C8A C 0.5822(13) 1.9806(11) -0.5270(6)
C7A C 0.8123(13) 1.5351(10) 0.3292(6)
C1A C 0.7145(12) 1.4293(9) 0.1453(6)
C11A C 0.0605(12) 1.2027(11) -0.3900(6)
C12A C 0.0212(13) 1.0113(9) -0.2757(6)
O7_2 O 0.0337(8) 1.2594(6) -0.0556(4)
O4A O 0.3569(8) 1.2524(6) -0.0564(4)
N3A N 0.5221(10) 1.9646(8) -0.6372(5)
H9A H 0.6279 1.8855 -0.5095
H10A H 0.6919 2.0602 -0.5043
C10A C 0.8872(13) 1.6499(11) 0.4083(7)
H8A H 0.7734 1.4384 0.3422
O1A O 0.5780(9) 1.3386(7) 0.1596(4)
O5A_2 O 0.7934(9) 1.4180(7) 0.0664(4)
H12A H 0.0128 1.1243 -0.4444
O8A O 0.0585(9) 0.9816(7) -0.1864(4)
O9A O -0.0592(12) 0.9191(8) -0.3517(5)
Zn2_2 Zn -0.26788(15) 1.25852(11) -0.06424(7)
Zn1A_2 Zn 0.43542(14) 1.12980(10) 0.07550(7)
C2A C 0.5519(12) 2.0712(10) -0.6960(6)
C5A C 0.4229(13) 1.8416(10) -0.7026(6)
H11A H 0.9037 1.6301 0.4750
Zn2_3 Zn 0.73212(15) 1.25852(11) -0.06424(7)
O2A_2 O 0.3191(8) 0.9186(6) -0.0099(4)
O3A O 0.1880(9) 1.2095(7) 0.1276(4)
O2_2 O 0.6809(8) 1.0814(6) 0.0099(4)
N1A N 0.4783(10) 1.0188(8) 0.2077(5)
N1A_2 N 0.4783(10) 2.0188(8) -0.7923(5)
H4A H 0.6160 2.1689 -0.6715
N2A N 0.3935(10) 1.8706(8) -0.7955(5)
H7A H 0.3816 1.7495 -0.6836
Zn2A_3 Zn 0.26788(15) 0.74148(11) 0.06424(7)
H1A H 0.221(9) 0.887(9) -0.065(4)
Zn1_2 Zn 0.56458(14) 0.87020(10) -0.07550(7)
H2A H 0.122(7) 1.143(5) 0.158(5)
H3A H 0.101(9) 1.207(10) 0.069(4)
N2A_2 N 0.3935(10) 0.8706(8) 0.2045(5)
Zn1A_3 Zn 0.43542(14) 2.12980(10) -0.92450(7)
Zn2A_4 Zn 0.26788(15) 1.74148(11) -0.93576(7)
O6A O 0.2532(10) 0.5470(7) 0.1437(5)
O5_2 O 0.2066(9) 0.5820(7) -0.0664(4)
O7A_2 O -0.0337(8) 0.7406(6) 0.0556(4)
H5A H 0.278(14) 0.461(6) 0.105(4)
H6A H 0.261(14) 0.495(8) 0.207(4)
O10 O -0.2828(13) 0.6471(9) -0.3565(6)
H13 H -0.335(12) 0.682(7) -0.301(4)
H14 H -0.187(12) 0.723(8) -0.354(8)
O11 O -0.3714(15) 0.3496(10) -0.4880(8)
H15 H -0.306(15) 0.438(7) -0.453(9)
H16 H -0.478(12) 0.381(12) -0.525(9)
loop_
_geom_bond_atom_site_label_1
_geom_bond_atom_site_label_2
_geom_bond_site_symmetry_1
_geom_bond_site_symmetry_2
Zn1 O1 1_555 1_555
O1 C1 1_555 1_555
O2 Zn1 1_555 1_555
O3 Zn1 1_555 1_555
N1 Zn1 1_555 1_555
O4 Zn1 1_555 1_555
C1 O5 1_555 1_555
Zn2 O2 1_555 1_555
H1 O2 1_555 1_555
H2 O3 1_555 1_555
H3 O3 1_555 1_555
N2 N1 1_555 1_555
C2 N1 1_555 1_555
C3 O4 1_555 1_555
O5 Zn2A 1_555 1_555
C4 C1 1_555 1_555
O6 Zn2 1_555 1_555
O7 Zn2 1_555 1_555
C5 N2 1_555 1_555
N3 C2 1_555 1_555
H4 C2 1_555 1_555
C6 C3 1_555 1_555
C7 C4 1_555 1_555
H5 O6 1_555 1_555
H6 O6 1_555 1_555
H7 C5 1_555 1_555
C8 N3 1_555 1_555
C9 C6 1_555 1_555
C10 C7 1_555 1_555
H8 C7 1_555 1_555
H9 C8 1_555 1_555
H10 C8 1_555 1_555
C11 C9 1_555 1_555
C12 C9 1_555 1_555
H11 C10 1_555 1_555
H12 C11 1_555 1_555
O8 C12 1_555 1_555
O9 C12 1_555 1_555
O10 H13 1_555 1_555
H14 O10 1_555 1_555
O11 H15 1_555 1_555
H16 O11 1_555 1_555
O2A Zn1 1_555 1_555
Zn1A O2 1_555 1_555
Zn2A O2A 1_555 1_555
O5A Zn2 1_555 1_555
O7A C3 1_555 1_555
C6A C4 1_555 1_555
Zn2A_2 O7A 1_555 1_555
C4A C6 1_555 1_555
C9A C6A 1_555 1_555
C3A C6A 1_555 1_555
C8A C8 1_555 1_555
C7A C4A 1_555 1_555
C1A C4A 1_555 1_555
C11A C10 1_555 1_555
C12A C9A 1_555 1_555
O7_2 C3A 1_555 1_555
O4A C3A 1_555 1_555
N3A C8A 1_555 1_555
H9A C8A 1_555 1_555
H10A C8A 1_555 1_555
C10A C11 1_555 1_555
H8A C7A 1_555 1_555
O1A C1A 1_555 1_555
O5A_2 C1A 1_555 1_555
H12A C11A 1_555 1_555
O8A C12A 1_555 1_555
O9A C12A 1_555 1_555
Zn2_2 O7_2 1_555 1_555
Zn1A_2 O4A 1_555 1_555
C2A N3A 1_555 1_555
C5A N3A 1_555 1_555
H11A C10A 1_555 1_555
Zn2_3 O5A_2 1_555 1_555
O2A_2 Zn1A_2 1_555 1_555
O3A Zn1A_2 1_555 1_555
O2_2 Zn1A_2 1_555 1_555
N1A Zn1A_2 1_555 1_555
N1A_2 C2A 1_555 1_555
H4A C2A 1_555 1_555
N2A C5A 1_555 1_555
H7A C5A 1_555 1_555
Zn2A_3 O2A_2 1_555 1_555
H1A O2A_2 1_555 1_555
Zn1_2 O2A_2 1_555 1_555
H2A O3A 1_555 1_555
H3A O3A 1_555 1_555
N2A_2 N1A 1_555 1_555
Zn1A_3 N1A_2 1_555 1_555
Zn2A_4 N2A 1_555 1_555
O6A Zn2A_3 1_555 1_555
O5_2 Zn2A_3 1_555 1_555
O7A_2 Zn2A_3 1_555 1_555
H5A O6A 1_555 1_555
H6A O6A 1_555 1_555
Zn2 N2 1_555 1_555
C5 N3 1_555 1_555
O2A Zn1A 1_555 1_555
C9A C11A 1_555 1_555
C7A C10A 1_555 1_555
O1A Zn1A_2 1_555 1_555
Zn2_3 O2_2 1_555 1_555
O2_2 Zn1_2 1_555 1_555
N1A_2 N2A 1_555 1_555
Zn2A_3 N2A_2 1_555 1_555

#END
