
#######################################################################
#
#                 Cambridge Crystallographic Data Centre
#                                CCDC 
#
#######################################################################
#
# If this CIF has been generated from an entry in the Cambridge 
# Structural Database, then it will include bibliographic, chemical, 
# crystal, experimental, refinement or atomic coordinate data resulting 
# from the CCDC's data processing and validation procedures.
#
#######################################################################

data_CUBQIB
_symmetry_cell_setting           monoclinic
_symmetry_space_group_name_H-M   'C 2/m'
_symmetry_Int_Tables_number      12
_space_group_name_Hall           '-C 2y'
loop_
_symmetry_equiv_pos_site_id
_symmetry_equiv_pos_as_xyz
1 x,y,z
2 -x,y,-z
3 1/2+x,1/2+y,z
4 1/2-x,1/2+y,-z
5 -x,-y,-z
6 x,-y,z
7 1/2-x,1/2-y,-z
8 1/2+x,1/2-y,z
_cell_length_a                   26.781(8)
_cell_length_b                   17.916(5)
_cell_length_c                   13.763(4)
_cell_angle_alpha                90
_cell_angle_beta                 118.719(5)
_cell_angle_gamma                90
_cell_volume                     5791.27
loop_
_atom_site_label
_atom_site_type_symbol
_atom_site_fract_x
_atom_site_fract_y
_atom_site_fract_z
Ho1 Ho 0.47833(5) 1.0000 0.34105(9)
Ho2 Ho 0.63236(4) 1.0000 0.41108(9)
Ho3 Ho 0.52261(3) 0.89624(5) 0.15805(6)
Ho4 Ho 0.57757(3) 0.76585(6) 0.03626(7)
S1 S 0.5800(2) 0.6655(3) -0.1807(5)
S2 S 0.64034(19) 0.6644(3) 0.2862(4)
O1 O 0.8513(5) 0.5825(7) 0.4438(9)
O2 O 0.9063(5) 0.6800(8) 0.4837(12)
O3 O 0.6705(5) 0.8983(7) 0.3720(9)
O4 O 0.6152(5) 0.8312(7) 0.2221(10)
O5 O 0.6138(5) 0.6693(7) 0.1617(10)
O6 O 0.6555(6) 0.5879(8) 0.3187(13)
O7 O 0.6065(5) 0.6997(8) 0.3300(11)
O8 O 0.5731(5) 0.8918(8) -0.2726(9)
O9 O 0.5636(5) 0.8353(7) -0.1379(11)
O10 O 0.8330(5) 0.7069(7) -0.0806(10)
O11 O 0.7854(5) 0.6028(8) -0.0966(12)
O12 O 0.5287(5) 0.7008(8) -0.2663(11)
O13 O 0.5894(6) 0.5896(9) -0.2039(14)
O14 O 0.5832(5) 0.6713(7) -0.0718(12)
O15 O 0.5516(4) 0.8905(7) 0.0223(8)
H1 H 0.5773 0.9228 0.0347
O16 O 0.5146(5) 0.7716(7) 0.1060(10)
H2 H 0.5208 0.7370 0.1527
O17 O 0.5830(6) 1.0000 0.2094(12)
H3 H 0.6051 1.0000 0.1811
O18 O 0.5502(4) 0.9227(6) 0.3416(9)
H4 H 0.5565 0.8841 0.3817
O19 O 0.4705(6) 1.0000 0.1607(12)
H5 H 0.4370 1.0000 0.1063
O20 O 0.7386(7) 1.0000 0.5225(15)
O21 O 0.5000 0.9192(19) 0.5000
O22 O 0.3819(8) 1.0000 0.322(2)
C1 C 0.8110(8) 0.7774(10) 0.4123(14)
H6 H 0.8472 0.8001 0.4374
C2 C 0.7643(6) 0.8231(10) 0.3804(13)
H7 H 0.7684 0.8759 0.3840
C3 C 0.7108(7) 0.7902(11) 0.3424(13)
C4 C 0.7053(7) 0.7133(9) 0.3350(14)
C5 C 0.7553(7) 0.6689(11) 0.3709(14)
H8 H 0.7522 0.6161 0.3680
C6 C 0.8081(7) 0.7017(10) 0.4100(14)
C7 C 0.8594(7) 0.6525(11) 0.4461(14)
C8 C 0.6616(7) 0.8427(12) 0.3085(15)
C9 C 0.7372(7) 0.7165(10) -0.1287(14)
C10 C 0.6878(7) 0.6807(12) -0.1435(15)
H9 H 0.6887 0.6281 -0.1342
C11 C 0.6385(7) 0.7175(10) -0.1707(15)
C12 C 0.6387(6) 0.7951(10) -0.1761(14)
C13 C 0.6865(7) 0.8321(10) -0.1629(13)
H10 H 0.6860 0.8848 -0.1706
C14 C 0.7358(6) 0.7916(10) -0.1379(12)
H11 H 0.7691 0.8175 -0.1273
C15 C 0.7890(7) 0.6723(11) -0.1015(14)
C16 C 0.5870(8) 0.8439(12) -0.1991(16)
Ho3A Ho 0.47739(3) 0.89624(5) -0.15805(6)
Ho4A Ho 0.42243(3) 0.76585(6) -0.03626(7)
S1A S 0.4200(2) 0.6655(3) 0.1807(5)
S2A S 0.35966(19) 0.6644(3) -0.2862(4)
O1A O 0.1487(5) 0.5825(7) -0.4438(9)
O2A O 0.0937(5) 0.6800(8) -0.4837(12)
O3A O 0.3295(5) 0.8983(7) -0.3720(9)
O4A O 0.3848(5) 0.8312(7) -0.2221(10)
O5A O 0.3862(5) 0.6693(7) -0.1617(10)
O6A O 0.3445(6) 0.5879(8) -0.3187(13)
O7A O 0.3935(5) 0.6997(8) -0.3300(11)
O8A O 0.4269(5) 0.8918(8) 0.2726(9)
O9A O 0.4364(5) 0.8353(7) 0.1379(11)
O10A O 0.1670(5) 0.7069(7) 0.0806(10)
O11A O 0.2146(5) 0.6028(8) 0.0966(12)
O12A O 0.4713(5) 0.7008(8) 0.2663(11)
O13A O 0.4106(6) 0.5896(9) 0.2039(14)
O14A O 0.4168(5) 0.6713(7) 0.0718(12)
O15A O 0.4484(4) 0.8905(7) -0.0223(8)
H1A H 0.4227 0.9228 -0.0347
O16A O 0.4854(5) 0.7716(7) -0.1060(10)
H2A H 0.4792 0.7370 -0.1527
O18A O 0.4498(4) 0.9227(6) -0.3416(9)
H4A H 0.4435 0.8841 -0.3817
C1A C 0.1890(8) 0.7774(10) -0.4123(14)
H6A H 0.1528 0.8001 -0.4374
C2A C 0.2357(6) 0.8231(10) -0.3804(13)
H7A H 0.2316 0.8759 -0.3840
C3A C 0.2892(7) 0.7902(11) -0.3424(13)
C4A C 0.2947(7) 0.7133(9) -0.3350(14)
C5A C 0.2447(7) 0.6689(11) -0.3709(14)
H8A H 0.2478 0.6161 -0.3680
C6A C 0.1919(7) 0.7017(10) -0.4100(14)
C7A C 0.1406(7) 0.6525(11) -0.4461(14)
C8A C 0.3384(7) 0.8427(12) -0.3085(15)
C9A C 0.2628(7) 0.7165(10) 0.1287(14)
C10A C 0.3122(7) 0.6807(12) 0.1435(15)
H9A H 0.3113 0.6281 0.1342
C11A C 0.3615(7) 0.7175(10) 0.1707(15)
C12A C 0.3613(6) 0.7951(10) 0.1761(14)
C13A C 0.3135(7) 0.8321(10) 0.1629(13)
H10A H 0.3140 0.8848 0.1706
C14A C 0.2642(6) 0.7916(10) 0.1379(12)
H11A H 0.2309 0.8175 0.1273
C15A C 0.2110(7) 0.6723(11) 0.1015(14)
C16A C 0.4130(8) 0.8439(12) 0.1991(16)
Ho1A Ho 0.52167(5) 1.0000 -0.34105(9)
Ho1A_2 Ho 0.52167(5) 1.0000 0.65895(9)
Ho2A Ho 0.36764(4) 1.0000 -0.41108(9)
Ho2B Ho 0.13236(4) 0.5000 -0.58892(9)
Ho2C Ho 0.86764(4) 0.5000 0.58892(9)
Ho3E Ho 0.52261(3) 1.10376(5) 0.15805(6)
Ho4F Ho 0.92243(3) 0.73415(6) -0.03626(7)
Ho4G Ho 0.07757(3) 0.73415(6) 0.03626(7)
O1C O 0.6487(5) 1.0825(7) 0.5562(9)
O1F O 0.6487(5) 0.9175(7) 0.5562(9)
O3E O 0.6705(5) 1.1017(7) 0.3720(9)
O8D O 0.4269(5) 1.1082(8) 0.2726(9)
O10F O 0.6670(5) 0.7931(7) 0.0806(10)
O10G O 0.3330(5) 0.7931(7) -0.0806(10)
O17A O 0.4170(6) 1.0000 -0.2094(12)
O18E O 0.5502(4) 1.0773(6) 0.3416(9)
O19A O 0.5295(6) 1.0000 -0.1607(12)
O21D O 0.5000 1.0808(19) 0.5000
Na1 Na 0.6367(6) 1.0000 0.0529(15)
Na2 Na 0.6288(6) 0.5000 0.1675(12)
O23 O 0.5337(12) 0.5242(13) 0.154(2)
O24 O 0.7242(11) 0.5000 0.200(2)
O25 O 0.5905(13) 0.5000 -0.021(2)
O26 O 0.7173(17) 0.5000 -0.277(2)
O27 O 0.4513(9) 0.7052(13) -0.4259(18)
O28 O 0.5000 0.6400(18) 0.0000
O29 O 0.7455(12) 0.5000 0.0187(19)
loop_
_geom_bond_atom_site_label_1
_geom_bond_atom_site_label_2
_geom_bond_site_symmetry_1
_geom_bond_site_symmetry_2
Ho1 O18 1_555 1_555
Ho2 O3 1_555 1_555
Ho3 O4 1_555 1_555
Ho4 O4 1_555 1_555
S1 O12 1_555 1_555
S2 O5 1_555 1_555
O1 C7 1_555 1_555
O2 C7 1_555 1_555
O3 C8 1_555 1_555
O4 C8 1_555 1_555
O5 Ho4 1_555 1_555
O6 S2 1_555 1_555
O7 S2 1_555 1_555
O8 C16 1_555 1_555
O9 Ho4 1_555 1_555
O10 C15 1_555 1_555
O11 C15 1_555 1_555
O13 S1 1_555 1_555
O14 Ho4 1_555 1_555
O15 Ho3 1_555 1_555
H1 O15 1_555 1_555
O16 Ho3 1_555 1_555
H2 O16 1_555 1_555
O17 Ho2 1_555 1_555
H3 O17 1_555 1_555
O18 Ho2 1_555 1_555
H4 O18 1_555 1_555
O19 Ho1 1_555 1_555
H5 O19 1_555 1_555
O20 Ho2 1_555 1_555
O21 Ho1 1_555 1_555
O22 Ho1 1_555 1_555
C1 H6 1_555 1_555
C2 C1 1_555 1_555
H7 C2 1_555 1_555
C3 C2 1_555 1_555
C4 S2 1_555 1_555
C5 C4 1_555 1_555
H8 C5 1_555 1_555
C6 C1 1_555 1_555
C7 C6 1_555 1_555
C8 C3 1_555 1_555
C9 C10 1_555 1_555
C10 H9 1_555 1_555
C11 S1 1_555 1_555
C12 C11 1_555 1_555
C13 C12 1_555 1_555
H10 C13 1_555 1_555
C14 C9 1_555 1_555
H11 C14 1_555 1_555
C15 C9 1_555 1_555
C16 O9 1_555 1_555
Ho3A O9 1_555 1_555
Ho4A O16 1_555 1_555
S1A O12A 1_555 1_555
S2A O5A 1_555 1_555
O1A C7A 1_555 1_555
O2A C7A 1_555 1_555
O3A C8A 1_555 1_555
O4A Ho3A 1_555 1_555
O5A Ho4A 1_555 1_555
O6A S2A 1_555 1_555
O7A S2A 1_555 1_555
O8A Ho1 1_555 1_555
O9A Ho3 1_555 1_555
O10A C15A 1_555 1_555
O11A C15A 1_555 1_555
O13A S1A 1_555 1_555
O14A Ho4A 1_555 1_555
O15A Ho3 1_555 1_555
H1A O15A 1_555 1_555
O16A Ho4 1_555 1_555
H2A O16A 1_555 1_555
O18A Ho3A 1_555 1_555
H4A O18A 1_555 1_555
C1A H6A 1_555 1_555
C2A C1A 1_555 1_555
H7A C2A 1_555 1_555
C3A C2A 1_555 1_555
C4A S2A 1_555 1_555
C5A C4A 1_555 1_555
H8A C5A 1_555 1_555
C6A C1A 1_555 1_555
C7A C6A 1_555 1_555
C8A O4A 1_555 1_555
C9A C10A 1_555 1_555
C10A H9A 1_555 1_555
C11A S1A 1_555 1_555
C12A C11A 1_555 1_555
C13A C12A 1_555 1_555
H10A C13A 1_555 1_555
C14A C9A 1_555 1_555
H11A C14A 1_555 1_555
C15A C9A 1_555 1_555
C16A O8A 1_555 1_555
Ho1A O8 1_555 1_555
Ho1A_2 O21 1_555 1_555
Ho2A O3A 1_555 1_555
Ho2B O1A 1_555 1_555
Ho2C O1 1_555 1_555
Ho3E O17 1_555 1_555
Ho4F O10 1_555 1_555
Ho4G O10A 1_555 1_555
O1C Ho2 1_555 1_555
O1F Ho2 1_555 1_555
O3E Ho2 1_555 1_555
O8D Ho1 1_555 1_555
O10F Ho4 1_555 1_555
O10G Ho4A 1_555 1_555
O17A Ho3A 1_555 1_555
O18E Ho1 1_555 1_555
O19A Ho3A 1_555 1_555
O21D Ho1 1_555 1_555
Ho2 O18E 1_555 1_555
Ho3 O17 1_555 1_555
Ho3 O18 1_555 1_555
Ho3 O19 1_555 1_555
Ho4 O15 1_555 1_555
Ho4 O16 1_555 1_555
S1 O14 1_555 1_555
O15 Ho3A 1_555 1_555
O19 Ho3E 1_555 1_555
C3 C4 1_555 1_555
C5 C6 1_555 1_555
C10 C11 1_555 1_555
C12 C16 1_555 1_555
C13 C14 1_555 1_555
Ho3A O15A 1_555 1_555
Ho3A O16A 1_555 1_555
Ho4A O4A 1_555 1_555
Ho4A O9A 1_555 1_555
Ho4A O15A 1_555 1_555
Ho4A O16A 1_555 1_555
S1A O14A 1_555 1_555
O9A C16A 1_555 1_555
O18A Ho1A 1_555 1_555
O18A Ho2A 1_555 1_555
C3A C4A 1_555 1_555
C3A C8A 1_555 1_555
C5A C6A 1_555 1_555
C10A C11A 1_555 1_555
C12A C16A 1_555 1_555
C13A C14A 1_555 1_555
Ho1A O19A 1_555 1_555
Ho1A_2 O21D 1_555 1_555
Ho2A O17A 1_555 1_555
Ho3E O18E 1_555 1_555

#END
