
#######################################################################
#
#                 Cambridge Crystallographic Data Centre
#                                CCDC 
#
#######################################################################
#
# If this CIF has been generated from an entry in the Cambridge 
# Structural Database, then it will include bibliographic, chemical, 
# crystal, experimental, refinement or atomic coordinate data resulting 
# from the CCDC's data processing and validation procedures.
#
#######################################################################

data_CUBTOJ
_symmetry_cell_setting           monoclinic
_symmetry_space_group_name_H-M   'P 21/n'
_symmetry_Int_Tables_number      14
_space_group_name_Hall           '-P 2yn'
loop_
_symmetry_equiv_pos_site_id
_symmetry_equiv_pos_as_xyz
1 x,y,z
2 1/2-x,1/2+y,1/2-z
3 -x,-y,-z
4 1/2+x,1/2-y,1/2+z
_cell_length_a                   11.7600(12)
_cell_length_b                   10.4066(10)
_cell_length_c                   14.0801(14)
_cell_angle_alpha                90
_cell_angle_beta                 104.802(1)
_cell_angle_gamma                90
_cell_volume                     1665.96
loop_
_atom_site_label
_atom_site_type_symbol
_atom_site_fract_x
_atom_site_fract_y
_atom_site_fract_z
Cu1 Cu 0.518447(19) 0.154020(19) 0.020813(15)
S1 S 0.48834(6) 0.24198(6) -0.30070(4)
C1 C 0.35152(19) 0.3589(2) 0.16975(17)
H1 H 0.3780 0.2828 0.2027
C2 C 0.4303(2) 0.3567(2) -0.24069(16)
H2 H 0.3948 0.4322 -0.2690
C3 C 0.26638(18) 0.5910(2) 0.06917(19)
H3 H 0.2385 0.6667 0.0363
C4 C 0.2967(2) 0.4531(3) 0.21185(18)
H4 H 0.2870 0.4403 0.2747
O1 O 0.62135(11) 0.00774(11) 0.02044(9)
C5 C 0.40253(16) 0.37819(17) -0.06632(14)
N1 N 0.41714(13) 0.31058(14) 0.01574(11)
N2 N 0.49982(13) 0.20594(15) -0.12114(12)
O2 O 0.76231(15) 0.08811(17) -0.04236(15)
N3 N 0.34583(13) 0.48969(14) -0.06394(12)
H5 H 0.3283 0.5460 -0.1101
C6 C 0.80119(15) -0.10354(19) 0.05066(13)
C7 C 0.79795(16) -0.14812(16) 0.14252(14)
H6 H 0.7455 -0.1115 0.1742
C8 C 0.36510(16) 0.38273(18) 0.07647(15)
C9 C 0.44342(16) 0.32227(17) -0.14633(14)
C10 C 0.72492(17) 0.00797(17) 0.00468(13)
C11 C 0.32089(16) 0.49673(18) 0.02677(16)
C12 C 0.5280(2) 0.15423(19) -0.19539(15)
H7 H 0.5666 0.0757 -0.1916
C13 C 0.2560(2) 0.5661(2) 0.1622(2)
H8 H 0.2203 0.6272 0.1932
C14 C 0.87785(19) -0.1606(2) 0.00219(16)
H9 H 0.8830 -0.1293 -0.0584
C15 C 0.9461(2) -0.2639(2) 0.04466(16)
H10 H 0.9945 -0.3045 0.0109
C16 C 0.88091(16) -0.27708(17) 0.29404(13)
C17 C 0.87178(16) -0.24678(17) 0.18831(13)
C18 C 0.94323(19) -0.3075(2) 0.13682(15)
H11 H 0.9890 -0.3775 0.1645
O3 O 0.95682(12) -0.36215(12) 0.33512(10)
O4 O 0.82072(12) -0.21576(13) 0.33928(10)
Cu1B Cu 0.481553(19) -0.154020(19) -0.020813(15)
Cu1A Cu 0.981553(19) -0.345980(19) 0.479187(15)
O1B O 0.37865(11) -0.00774(11) -0.02044(9)
O3A O 0.54318(12) 0.13785(12) 0.16488(10)
O4A O 0.67928(12) 0.28424(13) 0.16072(10)
loop_
_geom_bond_atom_site_label_1
_geom_bond_atom_site_label_2
_geom_bond_site_symmetry_1
_geom_bond_site_symmetry_2
Cu1 O1 1_555 1_555
S1 C2 1_555 1_555
C1 H1 1_555 1_555
C2 H2 1_555 1_555
C3 H3 1_555 1_555
C4 C1 1_555 1_555
H4 C4 1_555 1_555
O1 C10 1_555 1_555
C5 N1 1_555 1_555
N1 Cu1 1_555 1_555
N2 Cu1 1_555 1_555
O2 C10 1_555 1_555
N3 C5 1_555 1_555
H5 N3 1_555 1_555
C6 C7 1_555 1_555
C7 H6 1_555 1_555
C8 C1 1_555 1_555
C9 C2 1_555 1_555
C10 C6 1_555 1_555
C11 C3 1_555 1_555
C12 S1 1_555 1_555
H7 C12 1_555 1_555
C13 C3 1_555 1_555
H8 C13 1_555 1_555
C14 C6 1_555 1_555
H9 C14 1_555 1_555
C15 C14 1_555 1_555
H10 C15 1_555 1_555
C16 C17 1_555 1_555
C17 C7 1_555 1_555
C18 C15 1_555 1_555
H11 C18 1_555 1_555
O3 C16 1_555 1_555
O4 C16 1_555 1_555
Cu1B O1 1_555 1_555
Cu1A O3 1_555 1_555
O1B Cu1 1_555 1_555
O3A Cu1 1_555 1_555
O4A Cu1 1_555 1_555
C4 C13 1_555 1_555
C5 C9 1_555 1_555
N1 C8 1_555 1_555
N2 C9 1_555 1_555
N2 C12 1_555 1_555
N3 C11 1_555 1_555
C8 C11 1_555 1_555
C17 C18 1_555 1_555
O4 Cu1A 1_555 1_555
Cu1B O1B 1_555 1_555

#END
