
#######################################################################
#
#                 Cambridge Crystallographic Data Centre
#                                CCDC 
#
#######################################################################
#
# If this CIF has been generated from an entry in the Cambridge 
# Structural Database, then it will include bibliographic, chemical, 
# crystal, experimental, refinement or atomic coordinate data resulting 
# from the CCDC's data processing and validation procedures.
#
#######################################################################

data_CUBXIH
_symmetry_cell_setting           orthorhombic
_symmetry_space_group_name_H-M   'P b c n'
_symmetry_Int_Tables_number      60
_space_group_name_Hall           '-P 2n 2ab'
loop_
_symmetry_equiv_pos_site_id
_symmetry_equiv_pos_as_xyz
1 x,y,z
2 1/2-x,1/2-y,1/2+z
3 -x,y,1/2-z
4 1/2+x,1/2-y,-z
5 -x,-y,-z
6 1/2+x,1/2+y,1/2-z
7 x,-y,1/2+z
8 1/2-x,1/2+y,z
_cell_length_a                   27.185(4)
_cell_length_b                   9.344(1)
_cell_length_c                   14.076(2)
_cell_angle_alpha                90
_cell_angle_beta                 90
_cell_angle_gamma                90
_cell_volume                     3575.54
loop_
_atom_site_label
_atom_site_type_symbol
_atom_site_fract_x
_atom_site_fract_y
_atom_site_fract_z
Sm1 Sm 0.5000 0.16865(6) 0.2500
N1 N 0.3826(4) 0.1649(7) 0.1602(6)
O1 O 0.4224(3) 0.0964(7) 0.1872(5)
C1 C 0.3833(4) 0.2994(10) 0.1196(6)
C2 C 0.4307(4) 0.3822(9) 0.1130(7)
O2 O 0.4627(3) 0.3600(7) 0.1754(6)
O3 O 0.4329(4) 0.4705(8) 0.0481(6)
C3 C 0.3407(5) 0.3536(12) 0.0880(9)
H1 H 0.3414 0.4411 0.0566
C4 C 0.2962(6) 0.2872(16) 0.0994(12)
H2 H 0.2671 0.3289 0.0783
C5 C 0.2966(6) 0.1536(15) 0.1444(12)
H3 H 0.2671 0.1063 0.1559
C6 C 0.3408(5) 0.0909(12) 0.1720(9)
H4 H 0.3414 -0.0006 0.1981
N2 N 0.5946(4) 0.1872(8) 0.1048(6)
O4 O 0.5497(3) 0.2472(6) 0.1191(5)
C7 C 0.5980(4) 0.0441(9) 0.0849(6)
C8 C 0.5515(4) -0.0469(9) 0.0885(6)
O5 O 0.5231(3) -0.0313(6) 0.1576(5)
O6 O 0.5476(4) -0.1375(8) 0.0246(6)
C9 C 0.6423(5) -0.0144(11) 0.0681(8)
H5 H 0.6452 -0.1112 0.0538
C10 C 0.6836(6) 0.0721(14) 0.0727(9)
H6 H 0.7147 0.0340 0.0625
C11 C 0.6777(6) 0.2180(14) 0.0930(12)
H7 H 0.7051 0.2773 0.0972
C12 C 0.6333(5) 0.2710(11) 0.1061(9)
H8 H 0.6293 0.3686 0.1163
Na1 Na 0.5138(2) 0.3244(4) -0.0262(3)
Na2 Na 0.5000 -0.2313(6) 0.2500
O11 O 0.5689(4) 0.2039(8) -0.1309(7)
H9 H 0.5924 0.1967 -0.1671
H10 H 0.5466 0.1549 -0.1526
O12 O 0.4671(3) 0.4063(7) -0.1561(6)
H11 H 0.4383 0.3906 -0.1418
H12 H 0.4674 0.4800 -0.1877
N1B N 0.6174(4) 0.1649(7) 0.3398(6)
O1B O 0.5776(3) 0.0964(7) 0.3128(5)
C1B C 0.6167(4) 0.2994(10) 0.3804(6)
C2B C 0.5693(4) 0.3822(9) 0.3870(7)
O2B O 0.5373(3) 0.3600(7) 0.3246(6)
O3B O 0.5671(4) 0.4705(8) 0.4519(6)
O3D O 0.5671(4) 0.5295(8) -0.0481(6)
O3F O 0.4329(4) 0.5295(8) 0.5481(6)
C3B C 0.6593(5) 0.3536(12) 0.4120(9)
H1B H 0.6586 0.4411 0.4434
C4B C 0.7038(6) 0.2872(16) 0.4006(12)
H2B H 0.7329 0.3289 0.4217
C5B C 0.7034(6) 0.1536(15) 0.3556(12)
H3B H 0.7329 0.1063 0.3441
C6B C 0.6592(5) 0.0909(12) 0.3280(9)
H4B H 0.6586 -0.0006 0.3019
N2B N 0.4054(4) 0.1872(8) 0.3952(6)
O4B O 0.4503(3) 0.2472(6) 0.3809(5)
C7B C 0.4020(4) 0.0441(9) 0.4151(6)
C8B C 0.4485(4) -0.0469(9) 0.4115(6)
O5B O 0.4769(3) -0.0313(6) 0.3424(5)
O6B O 0.4524(4) -0.1375(8) 0.4754(6)
O6D O 0.4524(4) 0.1375(8) -0.0246(6)
O6F O 0.5476(4) 0.1375(8) 0.5246(6)
C9B C 0.3577(5) -0.0144(11) 0.4319(8)
H5B H 0.3548 -0.1112 0.4462
C10B C 0.3164(6) 0.0721(14) 0.4273(9)
H6B H 0.2853 0.0340 0.4375
C11B C 0.3223(6) 0.2180(14) 0.4070(12)
H7B H 0.2949 0.2773 0.4028
C12B C 0.3667(5) 0.2710(11) 0.3939(9)
H8B H 0.3707 0.3686 0.3837
Na1B Na 0.4862(2) 0.3244(4) 0.5262(3)
Na1D Na 0.4862(2) 0.6756(4) 0.0262(3)
Na1D_2 Na 0.4862(2) -0.3244(4) 0.0262(3)
Na1F Na 0.5138(2) 0.6756(4) 0.4738(3)
Na1F_2 Na 0.5138(2) -0.3244(4) 0.4738(3)
Na2D Na 0.5000 0.2313(6) -0.2500
O11D O 0.4311(4) -0.2039(8) 0.1309(7)
O11F O 0.5689(4) -0.2039(8) 0.3691(7)
O11B O 0.4311(4) 0.2039(8) 0.6309(7)
H9D H 0.4076 -0.1967 0.1671
H9F H 0.5924 -0.1967 0.3329
H9B H 0.4076 0.1967 0.6671
H10D H 0.4534 -0.1549 0.1526
H10F H 0.5466 -0.1549 0.3474
H10B H 0.4534 0.1549 0.6526
O12D O 0.5329(3) -0.4063(7) 0.1561(6)
O12F O 0.4671(3) -0.4063(7) 0.3439(6)
O12B O 0.5329(3) 0.4063(7) 0.6561(6)
H11D H 0.5617 -0.3906 0.1418
H11F H 0.4383 -0.3906 0.3582
H11B H 0.5617 0.3906 0.6418
H12D H 0.5326 -0.4800 0.1877
H12F H 0.4674 -0.4800 0.3123
H12B H 0.5326 0.4800 0.6877
Cl1 Cl 0.67781(14) 0.6581(3) 0.2151(3)
O7 O 0.7084(6) 0.7699(18) 0.1845(17)
O8 O 0.6353(6) 0.6541(19) 0.1589(15)
O9 O 0.6679(9) 0.696(2) 0.3079(13)
O10 O 0.7033(7) 0.5268(14) 0.2138(14)
loop_
_geom_bond_atom_site_label_1
_geom_bond_atom_site_label_2
_geom_bond_site_symmetry_1
_geom_bond_site_symmetry_2
Sm1 O1 1_555 1_555
N1 O1 1_555 1_555
C1 N1 1_555 1_555
C2 C1 1_555 1_555
O2 Sm1 1_555 1_555
O3 C2 1_555 1_555
C3 C1 1_555 1_555
H1 C3 1_555 1_555
C4 C3 1_555 1_555
H2 C4 1_555 1_555
C5 C4 1_555 1_555
H3 C5 1_555 1_555
C6 N1 1_555 1_555
H4 C6 1_555 1_555
N2 O4 1_555 1_555
O4 Sm1 1_555 1_555
C7 N2 1_555 1_555
C8 C7 1_555 1_555
O5 Sm1 1_555 1_555
O6 C8 1_555 1_555
C9 C7 1_555 1_555
H5 C9 1_555 1_555
C10 C9 1_555 1_555
H6 C10 1_555 1_555
C11 C10 1_555 1_555
H7 C11 1_555 1_555
C12 N2 1_555 1_555
H8 C12 1_555 1_555
Cl1 O7 1_555 1_555
O8 Cl1 1_555 1_555
O9 Cl1 1_555 1_555
O10 Cl1 1_555 1_555
Na1 O3 1_555 1_555
Na2 O5 1_555 1_555
O11 Na1 1_555 1_555
H9 O11 1_555 1_555
H10 O11 1_555 1_555
O12 Na1 1_555 1_555
H11 O12 1_555 1_555
H12 O12 1_555 1_555
N1B O1B 1_555 1_555
O1B Sm1 1_555 1_555
C1B N1B 1_555 1_555
C2B C1B 1_555 1_555
O2B Sm1 1_555 1_555
O3B C2B 1_555 1_555
O3D Na1 1_555 1_555
O3F Na1B 1_555 1_555
C3B C1B 1_555 1_555
H1B C3B 1_555 1_555
C4B C3B 1_555 1_555
H2B C4B 1_555 1_555
C5B C4B 1_555 1_555
H3B C5B 1_555 1_555
C6B N1B 1_555 1_555
H4B C6B 1_555 1_555
N2B O4B 1_555 1_555
O4B Sm1 1_555 1_555
C7B N2B 1_555 1_555
C8B C7B 1_555 1_555
O5B Sm1 1_555 1_555
O6B C8B 1_555 1_555
O6D Na1 1_555 1_555
O6F Na1B 1_555 1_555
C9B C7B 1_555 1_555
H5B C9B 1_555 1_555
C10B C9B 1_555 1_555
H6B C10B 1_555 1_555
C11B C10B 1_555 1_555
H7B C11B 1_555 1_555
C12B N2B 1_555 1_555
H8B C12B 1_555 1_555
Na1B O3B 1_555 1_555
Na1D O3 1_555 1_555
Na1D_2 O6 1_555 1_555
Na1F O3B 1_555 1_555
Na1F_2 O6B 1_555 1_555
Na2D O11 1_555 1_555
O11D Na2 1_555 1_555
O11F Na2 1_555 1_555
O11B Na1B 1_555 1_555
H9D O11D 1_555 1_555
H9F O11F 1_555 1_555
H9B O11B 1_555 1_555
H10D O11D 1_555 1_555
H10F O11F 1_555 1_555
H10B O11B 1_555 1_555
O12D Na2 1_555 1_555
O12F Na2 1_555 1_555
O12B Na1B 1_555 1_555
H11D O12D 1_555 1_555
H11F O12F 1_555 1_555
H11B O12B 1_555 1_555
H12D O12D 1_555 1_555
H12F O12F 1_555 1_555
H12B O12B 1_555 1_555
C2 O2 1_555 1_555
C5 C6 1_555 1_555
O4 Na1 1_555 1_555
C8 O5 1_555 1_555
C11 C12 1_555 1_555
Na2 O5B 1_555 1_555
O12 Na2D 1_555 1_555
C2B O2B 1_555 1_555
O3D Na1D 1_555 1_555
O3F Na1F 1_555 1_555
C5B C6B 1_555 1_555
O4B Na1B 1_555 1_555
C8B O5B 1_555 1_555
C11B C12B 1_555 1_555
Na1D_2 O11D 1_555 1_555
Na1D_2 O12D 1_555 1_555
Na1F_2 O11F 1_555 1_555
Na1F_2 O12F 1_555 1_555

#END
