
#######################################################################
#
#                 Cambridge Crystallographic Data Centre
#                                CCDC 
#
#######################################################################
#
# If this CIF has been generated from an entry in the Cambridge 
# Structural Database, then it will include bibliographic, chemical, 
# crystal, experimental, refinement or atomic coordinate data resulting 
# from the CCDC's data processing and validation procedures.
#
#######################################################################

data_CUBYAA
_symmetry_cell_setting           orthorhombic
_symmetry_space_group_name_H-M   'P b c n'
_symmetry_Int_Tables_number      60
_space_group_name_Hall           '-P 2n 2ab'
loop_
_symmetry_equiv_pos_site_id
_symmetry_equiv_pos_as_xyz
1 x,y,z
2 1/2-x,1/2-y,1/2+z
3 -x,y,1/2-z
4 1/2+x,1/2-y,-z
5 -x,-y,-z
6 1/2+x,1/2+y,1/2-z
7 x,-y,1/2+z
8 1/2-x,1/2+y,z
_cell_length_a                   27.1909(9)
_cell_length_b                   9.3214(4)
_cell_length_c                   13.8498(5)
_cell_angle_alpha                90
_cell_angle_beta                 90
_cell_angle_gamma                90
_cell_volume                     3510.33
loop_
_atom_site_label
_atom_site_type_symbol
_atom_site_fract_x
_atom_site_fract_y
_atom_site_fract_z
Ho1 Ho 0.5000 0.833751(11) 0.2500
N1 N 0.40590(5) 0.81271(16) 0.10346(11)
O1 O 0.45012(5) 0.75141(14) 0.11995(9)
C1 C 0.40259(7) 0.95521(19) 0.08327(12)
C2 C 0.44860(7) 1.04988(19) 0.08614(13)
O2 O 0.45183(5) 1.14328(14) 0.02321(9)
O3 O 0.47838(5) 1.03063(13) 0.15645(9)
C3 C 0.35636(7) 1.0136(2) 0.06552(13)
H1 H 0.3538(8) 1.107(3) 0.0533(16)
C4 C 0.31429(7) 0.9288(2) 0.07078(14)
H2 H 0.2823(9) 0.969(3) 0.0642(17)
C5 C 0.31922(7) 0.7835(2) 0.09020(15)
H3 H 0.2924(9) 0.728(3) 0.0945(18)
C6 C 0.36542(7) 0.7261(2) 0.10500(14)
H4 H 0.3705(9) 0.627(3) 0.1196(18)
N2 N 0.61799(5) 0.83993(17) 0.16254(11)
O4 O 0.57700(5) 0.90842(14) 0.18939(9)
C7 C 0.61762(7) 0.7057(2) 0.12246(12)
C8 C 0.57022(6) 0.61918(19) 0.11301(13)
O5 O 0.56867(5) 0.52806(14) 0.04811(10)
O6 O 0.53606(5) 0.64269(14) 0.17418(10)
C9 C 0.66215(7) 0.6458(2) 0.09299(14)
H5 H 0.6615(9) 0.551(3) 0.0666(17)
C10 C 0.70650(7) 0.7184(2) 0.10622(16)
H6 H 0.7366(10) 0.677(3) 0.0883(19)
C11 C 0.70557(7) 0.8537(2) 0.14774(15)
H7 H 0.7333(9) 0.906(2) 0.1605(16)
C12 C 0.66108(7) 0.9135(2) 0.17483(13)
H8 H 0.6573(8) 1.003(3) 0.2032(16)
Na1 Na 0.48614(3) 0.67371(8) -0.02556(5)
Na2 Na 0.5000 1.23230(11) 0.2500
O7 O 0.43167(5) 0.79319(15) -0.13264(11)
H9 H 0.4286(10) 0.8797(6) -0.1411(19)
H10 H 0.4050(5) 0.760(3) -0.1487(18)
O8 O 0.53323(5) 0.59048(15) -0.15568(10)
H11 H 0.56313(18) 0.589(3) -0.149(2)
H12 H 0.5231(10) 0.5102(13) -0.169(2)
N1B N 0.59410(5) 0.81271(16) 0.39654(11)
O1B O 0.54988(5) 0.75141(14) 0.38005(9)
C1B C 0.59741(7) 0.95521(19) 0.41673(12)
C2B C 0.55140(7) 1.04988(19) 0.41386(13)
O2B O 0.54817(5) 1.14328(14) 0.47679(9)
O2D O 0.54817(5) 0.85672(14) -0.02321(9)
O2F O 0.45183(5) 0.85672(14) 0.52321(9)
O3B O 0.52162(5) 1.03063(13) 0.34355(9)
C3B C 0.64364(7) 1.0136(2) 0.43448(13)
H1B H 0.6462(8) 1.107(3) 0.4467(16)
C4B C 0.68571(7) 0.9288(2) 0.42922(14)
H2B H 0.7177(9) 0.969(3) 0.4358(17)
C5B C 0.68078(7) 0.7835(2) 0.40980(15)
H3B H 0.7076(9) 0.728(3) 0.4055(18)
C6B C 0.63458(7) 0.7261(2) 0.39500(14)
H4B H 0.6295(9) 0.627(3) 0.3804(18)
N2B N 0.38201(5) 0.83993(17) 0.33746(11)
O4B O 0.42300(5) 0.90842(14) 0.31061(9)
C7B C 0.38238(7) 0.7057(2) 0.37754(12)
C8B C 0.42978(6) 0.61918(19) 0.38699(13)
O5B O 0.43133(5) 0.52806(14) 0.45189(10)
O5D O 0.43133(5) 0.47194(14) -0.04811(10)
O5F O 0.56867(5) 0.47194(14) 0.54811(10)
O6B O 0.46394(5) 0.64269(14) 0.32582(10)
C9B C 0.33785(7) 0.6458(2) 0.40701(14)
H5B H 0.3385(9) 0.551(3) 0.4334(17)
C10B C 0.29350(7) 0.7184(2) 0.39378(16)
H6B H 0.2634(10) 0.677(3) 0.4117(19)
C11B C 0.29443(7) 0.8537(2) 0.35226(15)
H7B H 0.2667(9) 0.906(2) 0.3395(16)
C12B C 0.33892(7) 0.9135(2) 0.32517(13)
H8B H 0.3427(8) 1.003(3) 0.2968(16)
Na1B Na 0.51386(3) 0.67371(8) 0.52556(5)
Na1D Na 0.51386(3) 1.32629(8) 0.02556(5)
Na1D_2 Na 0.51386(3) 0.32629(8) 0.02556(5)
Na1F Na 0.48614(3) 1.32629(8) 0.47444(5)
Na1F_2 Na 0.48614(3) 0.32629(8) 0.47444(5)
Na2D Na 0.5000 0.76770(11) -0.2500
O7D O 0.56833(5) 1.20681(15) 0.13264(11)
O7F O 0.43167(5) 1.20681(15) 0.36736(11)
O7B O 0.56833(5) 0.79319(15) 0.63264(11)
H9D H 0.5714(10) 1.1203(6) 0.1411(19)
H9F H 0.4286(10) 1.1203(6) 0.3589(19)
H9B H 0.5714(10) 0.8797(6) 0.6411(19)
H10D H 0.5950(5) 1.240(3) 0.1487(18)
H10F H 0.4050(5) 1.240(3) 0.3513(18)
H10B H 0.5950(5) 0.760(3) 0.6487(18)
O8D O 0.46677(5) 1.40952(15) 0.15568(10)
O8F O 0.53323(5) 1.40952(15) 0.34432(10)
O8B O 0.46677(5) 0.59048(15) 0.65568(10)
H11D H 0.43687(18) 1.411(3) 0.149(2)
H11F H 0.56313(18) 1.411(3) 0.351(2)
H11B H 0.43687(18) 0.589(3) 0.649(2)
H12D H 0.4769(10) 1.4898(13) 0.169(2)
H12F H 0.5231(10) 1.4898(13) 0.331(2)
H12B H 0.4769(10) 0.5102(13) 0.669(2)
Cl1 Cl 0.321182(16) 0.34308(5) 0.21037(4)
O9 O 0.29004(6) 0.22546(19) 0.18245(15)
O10 O 0.33654(7) 0.3213(2) 0.30978(12)
O11 O 0.36393(6) 0.34770(19) 0.14775(13)
O12 O 0.29473(6) 0.47672(17) 0.20357(12)
loop_
_geom_bond_atom_site_label_1
_geom_bond_atom_site_label_2
_geom_bond_site_symmetry_1
_geom_bond_site_symmetry_2
Ho1 O1 1_555 1_555
N1 O1 1_555 1_555
O1 Na1 1_555 1_555
C1 N1 1_555 1_555
C2 C1 1_555 1_555
O2 C2 1_555 1_555
O3 Ho1 1_555 1_555
C3 C1 1_555 1_555
H1 C3 1_555 1_555
C4 C3 1_555 1_555
H2 C4 1_555 1_555
C5 C4 1_555 1_555
H3 C5 1_555 1_555
C6 N1 1_555 1_555
H4 C6 1_555 1_555
N2 O4 1_555 1_555
O4 Ho1 1_555 1_555
C7 N2 1_555 1_555
C8 C7 1_555 1_555
O5 C8 1_555 1_555
O6 Ho1 1_555 1_555
C9 C7 1_555 1_555
H5 C9 1_555 1_555
C10 C9 1_555 1_555
H6 C10 1_555 1_555
C11 C10 1_555 1_555
H7 C11 1_555 1_555
C12 N2 1_555 1_555
H8 C12 1_555 1_555
Na1 O5 1_555 1_555
Na2 O3 1_555 1_555
O7 Na1 1_555 1_555
H9 O7 1_555 1_555
H10 O7 1_555 1_555
O8 Na1 1_555 1_555
H11 O8 1_555 1_555
H12 O8 1_555 1_555
Cl1 O9 1_555 1_555
O10 Cl1 1_555 1_555
O11 Cl1 1_555 1_555
O12 Cl1 1_555 1_555
N1B O1B 1_555 1_555
O1B Ho1 1_555 1_555
C1B N1B 1_555 1_555
C2B C1B 1_555 1_555
O2B C2B 1_555 1_555
O2D Na1 1_555 1_555
O2F Na1B 1_555 1_555
O3B Ho1 1_555 1_555
C3B C1B 1_555 1_555
H1B C3B 1_555 1_555
C4B C3B 1_555 1_555
H2B C4B 1_555 1_555
C5B C4B 1_555 1_555
H3B C5B 1_555 1_555
C6B N1B 1_555 1_555
H4B C6B 1_555 1_555
N2B O4B 1_555 1_555
O4B Ho1 1_555 1_555
C7B N2B 1_555 1_555
C8B C7B 1_555 1_555
O5B C8B 1_555 1_555
O5D Na1 1_555 1_555
O5F Na1B 1_555 1_555
O6B Ho1 1_555 1_555
C9B C7B 1_555 1_555
H5B C9B 1_555 1_555
C10B C9B 1_555 1_555
H6B C10B 1_555 1_555
C11B C10B 1_555 1_555
H7B C11B 1_555 1_555
C12B N2B 1_555 1_555
H8B C12B 1_555 1_555
Na1B O1B 1_555 1_555
Na1D O2 1_555 1_555
Na1D_2 O5 1_555 1_555
Na1F O2B 1_555 1_555
Na1F_2 O5B 1_555 1_555
Na2D O7 1_555 1_555
O7D Na2 1_555 1_555
O7F Na2 1_555 1_555
O7B Na1B 1_555 1_555
H9D O7D 1_555 1_555
H9F O7F 1_555 1_555
H9B O7B 1_555 1_555
H10D O7D 1_555 1_555
H10F O7F 1_555 1_555
H10B O7B 1_555 1_555
O8D Na2 1_555 1_555
O8F Na2 1_555 1_555
O8B Na1B 1_555 1_555
H11D O8D 1_555 1_555
H11F O8F 1_555 1_555
H11B O8B 1_555 1_555
H12D O8D 1_555 1_555
H12F O8F 1_555 1_555
H12B O8B 1_555 1_555
C2 O3 1_555 1_555
C5 C6 1_555 1_555
C8 O6 1_555 1_555
C11 C12 1_555 1_555
Na2 O3B 1_555 1_555
O8 Na2D 1_555 1_555
C2B O3B 1_555 1_555
C5B C6B 1_555 1_555
C8B O6B 1_555 1_555
O5B Na1B 1_555 1_555
O5D Na1D_2 1_555 1_555
O5F Na1F_2 1_555 1_555
C11B C12B 1_555 1_555
Na1D O7D 1_555 1_555
Na1D O8D 1_555 1_555
Na1F O7F 1_555 1_555
Na1F O8F 1_555 1_555

#END
