
#######################################################################
#
#                 Cambridge Crystallographic Data Centre
#                                CCDC 
#
#######################################################################
#
# If this CIF has been generated from an entry in the Cambridge 
# Structural Database, then it will include bibliographic, chemical, 
# crystal, experimental, refinement or atomic coordinate data resulting 
# from the CCDC's data processing and validation procedures.
#
#######################################################################

data_CUBYEE
_symmetry_cell_setting           orthorhombic
_symmetry_space_group_name_H-M   'P b c n'
_symmetry_Int_Tables_number      60
_space_group_name_Hall           '-P 2n 2ab'
loop_
_symmetry_equiv_pos_site_id
_symmetry_equiv_pos_as_xyz
1 x,y,z
2 1/2-x,1/2-y,1/2+z
3 -x,y,1/2-z
4 1/2+x,1/2-y,-z
5 -x,-y,-z
6 1/2+x,1/2+y,1/2-z
7 x,-y,1/2+z
8 1/2-x,1/2+y,z
_cell_length_a                   27.0180(12)
_cell_length_b                   9.2841(4)
_cell_length_c                   13.7540(6)
_cell_angle_alpha                90
_cell_angle_beta                 90
_cell_angle_gamma                90
_cell_volume                     3450.02
loop_
_atom_site_label
_atom_site_type_symbol
_atom_site_fract_x
_atom_site_fract_y
_atom_site_fract_z
Er1 Er 0.5000 0.83350(2) 0.2500
N1 N 0.40608(12) 0.8123(4) 0.1038(2)
O1 O 0.45023(10) 0.7510(3) 0.1206(2)
C1 C 0.40286(14) 0.9552(4) 0.0837(3)
C2 C 0.44883(14) 1.0496(4) 0.0864(3)
O2 O 0.45179(11) 1.1434(3) 0.0240(2)
O3 O 0.47884(10) 1.0294(3) 0.1563(2)
C3 C 0.35666(14) 1.0134(4) 0.0648(3)
H1 H 0.3538 1.1124 0.0482
C4 C 0.31448(15) 0.9286(5) 0.0698(3)
H2 H 0.2827 0.9697 0.0599
C5 C 0.31942(15) 0.7829(5) 0.0896(3)
H3 H 0.2910 0.7229 0.0925
C6 C 0.36561(15) 0.7258(4) 0.1050(3)
H4 H 0.3693 0.6255 0.1166
N2 N 0.61761(11) 0.8405(3) 0.1630(2)
O4 O 0.57644(10) 0.9088(3) 0.1896(2)
C7 C 0.61730(14) 0.7056(4) 0.1237(3)
C8 C 0.56982(13) 0.6194(4) 0.1131(3)
O5 O 0.56865(11) 0.5280(3) 0.0484(2)
O6 O 0.53580(10) 0.6437(3) 0.1741(2)
C9 C 0.66202(14) 0.6462(4) 0.0940(3)
H5 H 0.6622 0.5540 0.0640
C10 C 0.70624(15) 0.7188(5) 0.1070(3)
H6 H 0.7367 0.6764 0.0879
C11 C 0.70504(15) 0.8547(5) 0.1487(3)
H7 H 0.7349 0.9067 0.1587
C12 C 0.66040(15) 0.9140(4) 0.1755(3)
H8 H 0.6596 1.0078 0.2031
Na1 Na 0.48618(6) 0.67324(17) -0.02534(12)
Na2 Na 0.5000 1.2319(2) 0.2500
O7 O 0.43178(11) 0.7934(3) -0.1323(2)
H9 H 0.4057(11) 0.764(6) -0.155(4)
H10 H 0.429(2) 0.8794(15) -0.145(4)
O8 O 0.53338(11) 0.5907(3) -0.1558(2)
H11 H 0.523(2) 0.507(2) -0.159(5)
H12 H 0.5632(5) 0.590(8) -0.145(5)
N1B N 0.59392(12) 0.8123(4) 0.3962(2)
O1B O 0.54977(10) 0.7510(3) 0.3794(2)
C1B C 0.59714(14) 0.9552(4) 0.4163(3)
C2B C 0.55117(14) 1.0496(4) 0.4136(3)
O2B O 0.54821(11) 1.1434(3) 0.4760(2)
O2D O 0.54821(11) 0.8566(3) -0.0240(2)
O2F O 0.45179(11) 0.8566(3) 0.5240(2)
O3B O 0.52116(10) 1.0294(3) 0.3437(2)
C3B C 0.64334(14) 1.0134(4) 0.4352(3)
H1B H 0.6462 1.1124 0.4518
C4B C 0.68552(15) 0.9286(5) 0.4302(3)
H2B H 0.7173 0.9697 0.4401
C5B C 0.68058(15) 0.7829(5) 0.4104(3)
H3B H 0.7090 0.7229 0.4075
C6B C 0.63439(15) 0.7258(4) 0.3950(3)
H4B H 0.6307 0.6255 0.3834
N2B N 0.38239(11) 0.8405(3) 0.3370(2)
O4B O 0.42356(10) 0.9088(3) 0.3104(2)
C7B C 0.38270(14) 0.7056(4) 0.3763(3)
C8B C 0.43018(13) 0.6194(4) 0.3869(3)
O5B O 0.43135(11) 0.5280(3) 0.4516(2)
O5D O 0.43135(11) 0.4720(3) -0.0484(2)
O5F O 0.56865(11) 0.4720(3) 0.5484(2)
O6B O 0.46420(10) 0.6437(3) 0.3259(2)
C9B C 0.33798(14) 0.6462(4) 0.4060(3)
H5B H 0.3378 0.5540 0.4360
C10B C 0.29376(15) 0.7188(5) 0.3930(3)
H6B H 0.2633 0.6764 0.4121
C11B C 0.29496(15) 0.8547(5) 0.3513(3)
H7B H 0.2651 0.9067 0.3413
C12B C 0.33960(15) 0.9140(4) 0.3245(3)
H8B H 0.3404 1.0078 0.2969
Na1B Na 0.51382(6) 0.67324(17) 0.52534(12)
Na1D Na 0.51382(6) 1.32676(17) 0.02534(12)
Na1D_2 Na 0.51382(6) 0.32676(17) 0.02534(12)
Na1F Na 0.48618(6) 1.32676(17) 0.47466(12)
Na1F_2 Na 0.48618(6) 0.32676(17) 0.47466(12)
Na2D Na 0.5000 0.7681(2) -0.2500
O7D O 0.56822(11) 1.2066(3) 0.1323(2)
O7F O 0.43178(11) 1.2066(3) 0.3677(2)
O7B O 0.56822(11) 0.7934(3) 0.6323(2)
H9D H 0.5943(11) 1.236(6) 0.155(4)
H9F H 0.4057(11) 1.236(6) 0.345(4)
H9B H 0.5943(11) 0.764(6) 0.655(4)
H10D H 0.571(2) 1.1206(15) 0.145(4)
H10F H 0.429(2) 1.1206(15) 0.355(4)
H10B H 0.571(2) 0.8794(15) 0.645(4)
O8D O 0.46662(11) 1.4093(3) 0.1558(2)
O8F O 0.53338(11) 1.4093(3) 0.3442(2)
O8B O 0.46662(11) 0.5907(3) 0.6558(2)
H11D H 0.477(2) 1.493(2) 0.159(5)
H11F H 0.523(2) 1.493(2) 0.341(5)
H11B H 0.477(2) 0.507(2) 0.659(5)
H12D H 0.4368(5) 1.410(8) 0.145(5)
H12F H 0.5632(5) 1.410(8) 0.355(5)
H12B H 0.4368(5) 0.590(8) 0.645(5)
Cl1 Cl 0.32116(3) 0.34219(10) 0.21044(8)
O9 O 0.28996(13) 0.2252(4) 0.1814(3)
O10 O 0.33623(15) 0.3191(5) 0.3111(3)
O11 O 0.36386(12) 0.3470(4) 0.1482(3)
O12 O 0.29488(13) 0.4763(4) 0.2038(3)
loop_
_geom_bond_atom_site_label_1
_geom_bond_atom_site_label_2
_geom_bond_site_symmetry_1
_geom_bond_site_symmetry_2
Er1 O1 1_555 1_555
N1 O1 1_555 1_555
O1 Na1 1_555 1_555
C1 N1 1_555 1_555
C2 C1 1_555 1_555
O2 C2 1_555 1_555
O3 Er1 1_555 1_555
C3 C1 1_555 1_555
H1 C3 1_555 1_555
C4 C3 1_555 1_555
H2 C4 1_555 1_555
C5 C4 1_555 1_555
H3 C5 1_555 1_555
C6 N1 1_555 1_555
H4 C6 1_555 1_555
N2 O4 1_555 1_555
O4 Er1 1_555 1_555
C7 N2 1_555 1_555
C8 C7 1_555 1_555
O5 C8 1_555 1_555
O6 Er1 1_555 1_555
C9 C7 1_555 1_555
H5 C9 1_555 1_555
C10 C9 1_555 1_555
H6 C10 1_555 1_555
C11 C10 1_555 1_555
H7 C11 1_555 1_555
C12 N2 1_555 1_555
H8 C12 1_555 1_555
Na1 O5 1_555 1_555
Na2 O3 1_555 1_555
O7 Na1 1_555 1_555
H9 O7 1_555 1_555
H10 O7 1_555 1_555
O8 Na1 1_555 1_555
H11 O8 1_555 1_555
H12 O8 1_555 1_555
Cl1 O9 1_555 1_555
O10 Cl1 1_555 1_555
O11 Cl1 1_555 1_555
O12 Cl1 1_555 1_555
N1B O1B 1_555 1_555
O1B Er1 1_555 1_555
C1B N1B 1_555 1_555
C2B C1B 1_555 1_555
O2B C2B 1_555 1_555
O2D Na1 1_555 1_555
O2F Na1B 1_555 1_555
O3B Er1 1_555 1_555
C3B C1B 1_555 1_555
H1B C3B 1_555 1_555
C4B C3B 1_555 1_555
H2B C4B 1_555 1_555
C5B C4B 1_555 1_555
H3B C5B 1_555 1_555
C6B N1B 1_555 1_555
H4B C6B 1_555 1_555
N2B O4B 1_555 1_555
O4B Er1 1_555 1_555
C7B N2B 1_555 1_555
C8B C7B 1_555 1_555
O5B C8B 1_555 1_555
O5D Na1 1_555 1_555
O5F Na1B 1_555 1_555
O6B Er1 1_555 1_555
C9B C7B 1_555 1_555
H5B C9B 1_555 1_555
C10B C9B 1_555 1_555
H6B C10B 1_555 1_555
C11B C10B 1_555 1_555
H7B C11B 1_555 1_555
C12B N2B 1_555 1_555
H8B C12B 1_555 1_555
Na1B O1B 1_555 1_555
Na1D O2 1_555 1_555
Na1D_2 O5 1_555 1_555
Na1F O2B 1_555 1_555
Na1F_2 O5B 1_555 1_555
Na2D O7 1_555 1_555
O7D Na2 1_555 1_555
O7F Na2 1_555 1_555
O7B Na1B 1_555 1_555
H9D O7D 1_555 1_555
H9F O7F 1_555 1_555
H9B O7B 1_555 1_555
H10D O7D 1_555 1_555
H10F O7F 1_555 1_555
H10B O7B 1_555 1_555
O8D Na2 1_555 1_555
O8F Na2 1_555 1_555
O8B Na1B 1_555 1_555
H11D O8D 1_555 1_555
H11F O8F 1_555 1_555
H11B O8B 1_555 1_555
H12D O8D 1_555 1_555
H12F O8F 1_555 1_555
H12B O8B 1_555 1_555
C2 O3 1_555 1_555
C5 C6 1_555 1_555
C8 O6 1_555 1_555
C11 C12 1_555 1_555
Na2 O3B 1_555 1_555
O8 Na2D 1_555 1_555
C2B O3B 1_555 1_555
C5B C6B 1_555 1_555
C8B O6B 1_555 1_555
O5B Na1B 1_555 1_555
O5D Na1D_2 1_555 1_555
O5F Na1F_2 1_555 1_555
C11B C12B 1_555 1_555
Na1D O7D 1_555 1_555
Na1D O8D 1_555 1_555
Na1F O7F 1_555 1_555
Na1F O8F 1_555 1_555

#END
