
#######################################################################
#
#                 Cambridge Crystallographic Data Centre
#                                CCDC 
#
#######################################################################
#
# If this CIF has been generated from an entry in the Cambridge 
# Structural Database, then it will include bibliographic, chemical, 
# crystal, experimental, refinement or atomic coordinate data resulting 
# from the CCDC's data processing and validation procedures.
#
#######################################################################

data_CUBYOO
_symmetry_cell_setting           orthorhombic
_symmetry_space_group_name_H-M   'P b c n'
_symmetry_Int_Tables_number      60
_space_group_name_Hall           '-P 2n 2ab'
loop_
_symmetry_equiv_pos_site_id
_symmetry_equiv_pos_as_xyz
1 x,y,z
2 1/2-x,1/2-y,1/2+z
3 -x,y,1/2-z
4 1/2+x,1/2-y,-z
5 -x,-y,-z
6 1/2+x,1/2+y,1/2-z
7 x,-y,1/2+z
8 1/2-x,1/2+y,z
_cell_length_a                   27.028(2)
_cell_length_b                   9.2534(8)
_cell_length_c                   14.0866(12)
_cell_angle_alpha                90
_cell_angle_beta                 90
_cell_angle_gamma                90
_cell_volume                     3523.07
loop_
_atom_site_label
_atom_site_type_symbol
_atom_site_fract_x
_atom_site_fract_y
_atom_site_fract_z
Pr1 Pr 0.5000 0.83547(5) 0.2500
N1 N 0.40462(19) 0.8163(6) 0.1005(4)
O1 O 0.44928(17) 0.7546(5) 0.1136(3)
C1 C 0.4010(2) 0.9589(7) 0.0815(4)
C2 C 0.4473(2) 1.0539(7) 0.0833(4)
O2 O 0.45187(17) 1.1411(5) 0.0175(3)
O3 O 0.47501(17) 1.0411(4) 0.1554(3)
C3 C 0.3544(2) 1.0178(7) 0.0677(4)
H1 H 0.3512 1.1174 0.0525
C4 C 0.3128(3) 0.9330(7) 0.0760(5)
H2 H 0.2808 0.9741 0.0686
C5 C 0.3180(3) 0.7890(8) 0.0949(5)
H3 H 0.2894 0.7298 0.1010
C6 C 0.3645(3) 0.7290(8) 0.1051(5)
H4 H 0.3683 0.6281 0.1153
N2 N 0.62147(19) 0.8342(6) 0.1592(4)
O4 O 0.58137(17) 0.9033(5) 0.1896(3)
C7 C 0.6193(2) 0.7011(7) 0.1182(4)
C8 C 0.5721(2) 0.6167(7) 0.1104(5)
O5 O 0.56864(18) 0.5281(5) 0.0453(3)
O6 O 0.53882(17) 0.6376(5) 0.1731(3)
C9 C 0.6636(2) 0.6420(8) 0.0855(5)
H5 H 0.6627 0.5514 0.0539
C10 C 0.7082(3) 0.7088(8) 0.0968(5)
H6 H 0.7379 0.6644 0.0758
C11 C 0.7089(2) 0.8445(8) 0.1402(5)
H7 H 0.7393 0.8942 0.1491
C12 C 0.6649(2) 0.9058(7) 0.1702(5)
H8 H 0.6652 0.9989 0.1987
Na1 Na 0.48556(10) 0.6770(3) -0.02774(18)
Na2 Na 0.5000 1.2351(4) 0.2500
O7 O 0.43119(19) 0.7947(5) -0.1351(4)
H9 H 0.430(3) 0.8819(16) -0.145(6)
H10 H 0.4073(18) 0.742(7) -0.145(6)
O8 O 0.53247(18) 0.5900(5) -0.1544(3)
H11 H 0.5624(5) 0.592(9) -0.145(5)
H12 H 0.5061(14) 0.557(7) -0.173(5)
N1B N 0.59538(19) 0.8163(6) 0.3995(4)
O1B O 0.55072(17) 0.7546(5) 0.3864(3)
C1B C 0.5990(2) 0.9589(7) 0.4185(4)
C2B C 0.5527(2) 1.0539(7) 0.4167(4)
O2B O 0.54813(17) 1.1411(5) 0.4825(3)
O2D O 0.54813(17) 0.8589(5) -0.0175(3)
O2F O 0.45187(17) 0.8589(5) 0.5175(3)
O3B O 0.52499(17) 1.0411(4) 0.3446(3)
C3B C 0.6456(2) 1.0178(7) 0.4323(4)
H1B H 0.6488 1.1174 0.4475
C4B C 0.6872(3) 0.9330(7) 0.4240(5)
H2B H 0.7192 0.9741 0.4314
C5B C 0.6820(3) 0.7890(8) 0.4051(5)
H3B H 0.7106 0.7298 0.3990
C6B C 0.6355(3) 0.7290(8) 0.3949(5)
H4B H 0.6317 0.6281 0.3847
N2B N 0.37853(19) 0.8342(6) 0.3408(4)
O4B O 0.41863(17) 0.9033(5) 0.3104(3)
C7B C 0.3807(2) 0.7011(7) 0.3818(4)
C8B C 0.4279(2) 0.6167(7) 0.3896(5)
O5B O 0.43136(18) 0.5281(5) 0.4547(3)
O5D O 0.43136(18) 0.4719(5) -0.0453(3)
O5F O 0.56864(18) 0.4719(5) 0.5453(3)
O6B O 0.46118(17) 0.6376(5) 0.3269(3)
C9B C 0.3364(2) 0.6420(8) 0.4145(5)
H5B H 0.3373 0.5514 0.4461
C10B C 0.2918(3) 0.7088(8) 0.4032(5)
H6B H 0.2621 0.6644 0.4242
C11B C 0.2911(2) 0.8445(8) 0.3598(5)
H7B H 0.2607 0.8942 0.3509
C12B C 0.3351(2) 0.9058(7) 0.3298(5)
H8B H 0.3348 0.9989 0.3013
Na1B Na 0.51444(10) 0.6770(3) 0.52774(18)
Na1D Na 0.51444(10) 1.3230(3) 0.02774(18)
Na1D_2 Na 0.51444(10) 0.3230(3) 0.02774(18)
Na1F Na 0.48556(10) 1.3230(3) 0.47226(18)
Na1F_2 Na 0.48556(10) 0.3230(3) 0.47226(18)
Na2D Na 0.5000 0.7649(4) -0.2500
O7D O 0.56881(19) 1.2053(5) 0.1351(4)
O7F O 0.43119(19) 1.2053(5) 0.3649(4)
O7B O 0.56881(19) 0.7947(5) 0.6351(4)
H9D H 0.570(3) 1.1181(16) 0.145(6)
H9F H 0.430(3) 1.1181(16) 0.355(6)
H9B H 0.570(3) 0.8819(16) 0.645(6)
H10D H 0.5927(18) 1.258(7) 0.145(6)
H10F H 0.4073(18) 1.258(7) 0.355(6)
H10B H 0.5927(18) 0.742(7) 0.645(6)
O8D O 0.46753(18) 1.4100(5) 0.1544(3)
O8F O 0.53247(18) 1.4100(5) 0.3456(3)
O8B O 0.46753(18) 0.5900(5) 0.6544(3)
H11D H 0.4376(5) 1.408(9) 0.145(5)
H11F H 0.5624(5) 1.408(9) 0.355(5)
H11B H 0.4376(5) 0.592(9) 0.645(5)
H12D H 0.4939(14) 1.443(7) 0.173(5)
H12F H 0.5061(14) 1.443(7) 0.327(5)
H12B H 0.4939(14) 0.557(7) 0.673(5)
Cl1 Cl 0.32210(6) 0.34826(18) 0.21270(12)
O9 O 0.2916(2) 0.2277(6) 0.1881(5)
O10 O 0.3379(2) 0.3293(8) 0.3097(4)
O11 O 0.36411(19) 0.3540(6) 0.1492(4)
O12 O 0.2945(2) 0.4795(6) 0.2065(4)
loop_
_geom_bond_atom_site_label_1
_geom_bond_atom_site_label_2
_geom_bond_site_symmetry_1
_geom_bond_site_symmetry_2
Pr1 O1 1_555 1_555
N1 O1 1_555 1_555
O1 Na1 1_555 1_555
C1 N1 1_555 1_555
C2 C1 1_555 1_555
O2 C2 1_555 1_555
O3 Pr1 1_555 1_555
C3 C1 1_555 1_555
H1 C3 1_555 1_555
C4 C3 1_555 1_555
H2 C4 1_555 1_555
C5 C4 1_555 1_555
H3 C5 1_555 1_555
C6 N1 1_555 1_555
H4 C6 1_555 1_555
N2 O4 1_555 1_555
O4 Pr1 1_555 1_555
C7 N2 1_555 1_555
C8 C7 1_555 1_555
O5 C8 1_555 1_555
O6 Pr1 1_555 1_555
C9 C7 1_555 1_555
H5 C9 1_555 1_555
C10 C9 1_555 1_555
H6 C10 1_555 1_555
C11 C10 1_555 1_555
H7 C11 1_555 1_555
C12 N2 1_555 1_555
H8 C12 1_555 1_555
Na1 O5 1_555 1_555
Na2 O3 1_555 1_555
O7 Na1 1_555 1_555
H9 O7 1_555 1_555
H10 O7 1_555 1_555
O8 Na1 1_555 1_555
H11 O8 1_555 1_555
H12 O8 1_555 1_555
Cl1 O9 1_555 1_555
O10 Cl1 1_555 1_555
O11 Cl1 1_555 1_555
O12 Cl1 1_555 1_555
N1B O1B 1_555 1_555
O1B Pr1 1_555 1_555
C1B N1B 1_555 1_555
C2B C1B 1_555 1_555
O2B C2B 1_555 1_555
O2D Na1 1_555 1_555
O2F Na1B 1_555 1_555
O3B Pr1 1_555 1_555
C3B C1B 1_555 1_555
H1B C3B 1_555 1_555
C4B C3B 1_555 1_555
H2B C4B 1_555 1_555
C5B C4B 1_555 1_555
H3B C5B 1_555 1_555
C6B N1B 1_555 1_555
H4B C6B 1_555 1_555
N2B O4B 1_555 1_555
O4B Pr1 1_555 1_555
C7B N2B 1_555 1_555
C8B C7B 1_555 1_555
O5B C8B 1_555 1_555
O5D Na1 1_555 1_555
O5F Na1B 1_555 1_555
O6B Pr1 1_555 1_555
C9B C7B 1_555 1_555
H5B C9B 1_555 1_555
C10B C9B 1_555 1_555
H6B C10B 1_555 1_555
C11B C10B 1_555 1_555
H7B C11B 1_555 1_555
C12B N2B 1_555 1_555
H8B C12B 1_555 1_555
Na1B O1B 1_555 1_555
Na1D O2 1_555 1_555
Na1D_2 O5 1_555 1_555
Na1F O2B 1_555 1_555
Na1F_2 O5B 1_555 1_555
Na2D O7 1_555 1_555
O7D Na2 1_555 1_555
O7F Na2 1_555 1_555
O7B Na1B 1_555 1_555
H9D O7D 1_555 1_555
H9F O7F 1_555 1_555
H9B O7B 1_555 1_555
H10D O7D 1_555 1_555
H10F O7F 1_555 1_555
H10B O7B 1_555 1_555
O8D Na2 1_555 1_555
O8F Na2 1_555 1_555
O8B Na1B 1_555 1_555
H11D O8D 1_555 1_555
H11F O8F 1_555 1_555
H11B O8B 1_555 1_555
H12D O8D 1_555 1_555
H12F O8F 1_555 1_555
H12B O8B 1_555 1_555
C2 O3 1_555 1_555
C5 C6 1_555 1_555
C8 O6 1_555 1_555
C11 C12 1_555 1_555
Na2 O3B 1_555 1_555
O8 Na2D 1_555 1_555
C2B O3B 1_555 1_555
C5B C6B 1_555 1_555
C8B O6B 1_555 1_555
O5B Na1B 1_555 1_555
O5D Na1D_2 1_555 1_555
O5F Na1F_2 1_555 1_555
C11B C12B 1_555 1_555
Na1D O7D 1_555 1_555
Na1D O8D 1_555 1_555
Na1F O7F 1_555 1_555
Na1F O8F 1_555 1_555

#END
