
#######################################################################
#
#                 Cambridge Crystallographic Data Centre
#                                CCDC 
#
#######################################################################
#
# If this CIF has been generated from an entry in the Cambridge 
# Structural Database, then it will include bibliographic, chemical, 
# crystal, experimental, refinement or atomic coordinate data resulting 
# from the CCDC's data processing and validation procedures.
#
#######################################################################

data_CUBYII
_symmetry_cell_setting           orthorhombic
_symmetry_space_group_name_H-M   'P b c n'
_symmetry_Int_Tables_number      60
_space_group_name_Hall           '-P 2n 2ab'
loop_
_symmetry_equiv_pos_site_id
_symmetry_equiv_pos_as_xyz
1 x,y,z
2 1/2-x,1/2-y,1/2+z
3 -x,y,1/2-z
4 1/2+x,1/2-y,-z
5 -x,-y,-z
6 1/2+x,1/2+y,1/2-z
7 x,-y,1/2+z
8 1/2-x,1/2+y,z
_cell_length_a                   27.268(2)
_cell_length_b                   9.3408(8)
_cell_length_c                   13.9740(15)
_cell_angle_alpha                90
_cell_angle_beta                 90
_cell_angle_gamma                90
_cell_volume                     3559.25
loop_
_atom_site_label
_atom_site_type_symbol
_atom_site_fract_x
_atom_site_fract_y
_atom_site_fract_z
Y1 Y 0.5000 0.16894(5) 0.2500
N1 N 0.38366(11) 0.1624(3) 0.1611(2)
O1 O 0.42416(10) 0.0944(3) 0.1882(2)
C1 C 0.38402(14) 0.2955(4) 0.1217(3)
C2 C 0.43110(14) 0.3811(4) 0.1136(3)
O2 O 0.46417(10) 0.3590(3) 0.1746(2)
O3 O 0.43307(11) 0.4707(3) 0.0490(2)
C3 C 0.33997(15) 0.3539(5) 0.0926(3)
H1 H 0.3397 0.4439 0.0641
C4 C 0.29644(16) 0.2812(6) 0.1050(4)
H2 H 0.2669 0.3225 0.0861
C5 C 0.29700(16) 0.1483(5) 0.1453(4)
H3 H 0.2679 0.0980 0.1542
C6 C 0.34105(15) 0.0892(5) 0.1725(3)
H4 H 0.3417 -0.0021 0.1990
N2 N 0.59339(11) 0.1874(3) 0.1046(2)
O4 O 0.54950(10) 0.2500(3) 0.12102(18)
C7 C 0.59648(14) 0.0458(4) 0.0849(3)
C8 C 0.55099(14) -0.0467(4) 0.0883(3)
O5 O 0.52154(9) -0.0269(3) 0.15804(18)
O6 O 0.54762(11) -0.1404(3) 0.0271(2)
C9 C 0.64246(15) -0.0110(5) 0.0682(3)
H5 H 0.6454 -0.1077 0.0534
C10 C 0.68392(16) 0.0722(5) 0.0729(4)
H6 H 0.7147 0.0319 0.0635
C11 C 0.67914(17) 0.2166(5) 0.0919(3)
H7 H 0.7067 0.2751 0.0940
C12 C 0.63340(16) 0.2734(5) 0.1075(3)
H8 H 0.6299 0.3706 0.1200
Na1 Na 0.51348(6) 0.32495(17) -0.02548(12)
Na2 Na 0.5000 -0.2302(2) 0.2500
O11 O 0.56825(12) 0.2045(3) -0.1303(3)
H9 H 0.5966(6) 0.232(5) -0.137(4)
H10 H 0.5685(19) 0.1199(15) -0.146(3)
O12 O 0.46657(11) 0.4067(3) -0.1564(2)
H11 H 0.43651(16) 0.407(5) -0.155(3)
H12 H 0.4767(16) 0.4884(19) -0.165(4)
N1B N 0.61634(11) 0.1624(3) 0.3389(2)
O1B O 0.57584(10) 0.0944(3) 0.3118(2)
C1B C 0.61598(14) 0.2955(4) 0.3783(3)
C2B C 0.56890(14) 0.3811(4) 0.3864(3)
O2B O 0.53583(10) 0.3590(3) 0.3254(2)
O3B O 0.56693(11) 0.4707(3) 0.4510(2)
O3D O 0.56693(11) 0.5293(3) -0.0490(2)
O3F O 0.43307(11) 0.5293(3) 0.5490(2)
C3B C 0.66003(15) 0.3539(5) 0.4074(3)
H1B H 0.6603 0.4439 0.4359
C4B C 0.70356(16) 0.2812(6) 0.3950(4)
H2B H 0.7331 0.3225 0.4139
C5B C 0.70300(16) 0.1483(5) 0.3547(4)
H3B H 0.7321 0.0980 0.3458
C6B C 0.65895(15) 0.0892(5) 0.3275(3)
H4B H 0.6583 -0.0021 0.3010
N2B N 0.40661(11) 0.1874(3) 0.3954(2)
O4B O 0.45050(10) 0.2500(3) 0.37898(18)
C7B C 0.40352(14) 0.0458(4) 0.4151(3)
C8B C 0.44901(14) -0.0467(4) 0.4117(3)
O5B O 0.47846(9) -0.0269(3) 0.34196(18)
O6B O 0.45238(11) -0.1404(3) 0.4729(2)
O6D O 0.45238(11) 0.1404(3) -0.0271(2)
O6F O 0.54762(11) 0.1404(3) 0.5271(2)
C9B C 0.35754(15) -0.0110(5) 0.4318(3)
H5B H 0.3546 -0.1077 0.4466
C10B C 0.31608(16) 0.0722(5) 0.4271(4)
H6B H 0.2853 0.0319 0.4365
C11B C 0.32086(17) 0.2166(5) 0.4081(3)
H7B H 0.2933 0.2751 0.4060
C12B C 0.36660(16) 0.2734(5) 0.3925(3)
H8B H 0.3701 0.3706 0.3800
Na1B Na 0.48652(6) 0.32495(17) 0.52548(12)
Na1D Na 0.48652(6) 0.67505(17) 0.02548(12)
Na1D_2 Na 0.48652(6) -0.32495(17) 0.02548(12)
Na1F Na 0.51348(6) 0.67505(17) 0.47452(12)
Na1F_2 Na 0.51348(6) -0.32495(17) 0.47452(12)
Na2D Na 0.5000 0.2302(2) -0.2500
O11D O 0.43175(12) -0.2045(3) 0.1303(3)
O11F O 0.56825(12) -0.2045(3) 0.3697(3)
O11B O 0.43175(12) 0.2045(3) 0.6303(3)
H9D H 0.4034(6) -0.232(5) 0.137(4)
H9F H 0.5966(6) -0.232(5) 0.363(4)
H9B H 0.4034(6) 0.232(5) 0.637(4)
H10D H 0.4315(19) -0.1199(15) 0.146(3)
H10F H 0.5685(19) -0.1199(15) 0.354(3)
H10B H 0.4315(19) 0.1199(15) 0.646(3)
O12D O 0.53343(11) -0.4067(3) 0.1564(2)
O12F O 0.46657(11) -0.4067(3) 0.3436(2)
O12B O 0.53343(11) 0.4067(3) 0.6564(2)
H11D H 0.56349(16) -0.407(5) 0.155(3)
H11F H 0.43651(16) -0.407(5) 0.345(3)
H11B H 0.56349(16) 0.407(5) 0.655(3)
H12D H 0.5233(16) -0.4884(19) 0.165(4)
H12F H 0.4767(16) -0.4884(19) 0.335(4)
H12B H 0.5233(16) 0.4884(19) 0.665(4)
Cl1 Cl 0.67819(4) 0.65988(14) 0.21290(10)
O7 O 0.70927(17) 0.7688(6) 0.1811(5)
O8 O 0.63555(17) 0.6559(7) 0.1573(5)
O9 O 0.6678(2) 0.6904(7) 0.3082(4)
O10 O 0.70342(19) 0.5275(5) 0.2135(4)
loop_
_geom_bond_atom_site_label_1
_geom_bond_atom_site_label_2
_geom_bond_site_symmetry_1
_geom_bond_site_symmetry_2
Y1 O1 1_555 1_555
N1 O1 1_555 1_555
C1 N1 1_555 1_555
C2 C1 1_555 1_555
O2 Y1 1_555 1_555
O3 C2 1_555 1_555
C3 C1 1_555 1_555
H1 C3 1_555 1_555
C4 C3 1_555 1_555
H2 C4 1_555 1_555
C5 C4 1_555 1_555
H3 C5 1_555 1_555
C6 N1 1_555 1_555
H4 C6 1_555 1_555
N2 O4 1_555 1_555
O4 Y1 1_555 1_555
C7 N2 1_555 1_555
C8 C7 1_555 1_555
O5 Y1 1_555 1_555
O6 C8 1_555 1_555
C9 C7 1_555 1_555
H5 C9 1_555 1_555
C10 C9 1_555 1_555
H6 C10 1_555 1_555
C11 C10 1_555 1_555
H7 C11 1_555 1_555
C12 N2 1_555 1_555
H8 C12 1_555 1_555
Cl1 O7 1_555 1_555
O8 Cl1 1_555 1_555
O9 Cl1 1_555 1_555
O10 Cl1 1_555 1_555
Na1 O3 1_555 1_555
Na2 O5 1_555 1_555
O11 Na1 1_555 1_555
H9 O11 1_555 1_555
H10 O11 1_555 1_555
O12 Na1 1_555 1_555
H11 O12 1_555 1_555
H12 O12 1_555 1_555
N1B O1B 1_555 1_555
O1B Y1 1_555 1_555
C1B N1B 1_555 1_555
C2B C1B 1_555 1_555
O2B Y1 1_555 1_555
O3B C2B 1_555 1_555
O3D Na1 1_555 1_555
O3F Na1B 1_555 1_555
C3B C1B 1_555 1_555
H1B C3B 1_555 1_555
C4B C3B 1_555 1_555
H2B C4B 1_555 1_555
C5B C4B 1_555 1_555
H3B C5B 1_555 1_555
C6B N1B 1_555 1_555
H4B C6B 1_555 1_555
N2B O4B 1_555 1_555
O4B Y1 1_555 1_555
C7B N2B 1_555 1_555
C8B C7B 1_555 1_555
O5B Y1 1_555 1_555
O6B C8B 1_555 1_555
O6D Na1 1_555 1_555
O6F Na1B 1_555 1_555
C9B C7B 1_555 1_555
H5B C9B 1_555 1_555
C10B C9B 1_555 1_555
H6B C10B 1_555 1_555
C11B C10B 1_555 1_555
H7B C11B 1_555 1_555
C12B N2B 1_555 1_555
H8B C12B 1_555 1_555
Na1B O3B 1_555 1_555
Na1D O3 1_555 1_555
Na1D_2 O6 1_555 1_555
Na1F O3B 1_555 1_555
Na1F_2 O6B 1_555 1_555
Na2D O11 1_555 1_555
O11D Na2 1_555 1_555
O11F Na2 1_555 1_555
O11B Na1B 1_555 1_555
H9D O11D 1_555 1_555
H9F O11F 1_555 1_555
H9B O11B 1_555 1_555
H10D O11D 1_555 1_555
H10F O11F 1_555 1_555
H10B O11B 1_555 1_555
O12D Na2 1_555 1_555
O12F Na2 1_555 1_555
O12B Na1B 1_555 1_555
H11D O12D 1_555 1_555
H11F O12F 1_555 1_555
H11B O12B 1_555 1_555
H12D O12D 1_555 1_555
H12F O12F 1_555 1_555
H12B O12B 1_555 1_555
C2 O2 1_555 1_555
C5 C6 1_555 1_555
O4 Na1 1_555 1_555
C8 O5 1_555 1_555
C11 C12 1_555 1_555
Na2 O5B 1_555 1_555
O12 Na2D 1_555 1_555
C2B O2B 1_555 1_555
O3D Na1D 1_555 1_555
O3F Na1F 1_555 1_555
C5B C6B 1_555 1_555
O4B Na1B 1_555 1_555
C8B O5B 1_555 1_555
C11B C12B 1_555 1_555
Na1D_2 O11D 1_555 1_555
Na1D_2 O12D 1_555 1_555
Na1F_2 O11F 1_555 1_555
Na1F_2 O12F 1_555 1_555

#END
