
#######################################################################
#
#                 Cambridge Crystallographic Data Centre
#                                CCDC 
#
#######################################################################
#
# If this CIF has been generated from an entry in the Cambridge 
# Structural Database, then it will include bibliographic, chemical, 
# crystal, experimental, refinement or atomic coordinate data resulting 
# from the CCDC's data processing and validation procedures.
#
#######################################################################

data_CUCDUZ
_symmetry_cell_setting           triclinic
_symmetry_space_group_name_H-M   'P -1'
_symmetry_Int_Tables_number      2
_space_group_name_Hall           '-P 1'
loop_
_symmetry_equiv_pos_site_id
_symmetry_equiv_pos_as_xyz
1 x,y,z
2 -x,-y,-z
_cell_length_a                   8.988(3)
_cell_length_b                   10.924(4)
_cell_length_c                   15.272(5)
_cell_angle_alpha                99.50(3)
_cell_angle_beta                 106.81(3)
_cell_angle_gamma                98.56(3)
_cell_volume                     1384.69
loop_
_atom_site_label
_atom_site_type_symbol
_atom_site_fract_x
_atom_site_fract_y
_atom_site_fract_z
P1 P -0.9845(13) -0.0225(9) -0.5116(7)
F1 F -0.8862(37) 0.0326(31) -0.4094(15)
F2 F -0.9436(81) 0.0958(22) -0.5467(25)
F3 F -0.8397(32) -0.0690(29) -0.5242(29)
F4 F -1.0811(37) -0.0880(30) -0.6121(15)
F5 F -1.0613(81) -0.1452(23) -0.4954(26)
F6 F -1.1303(33) 0.0245(30) -0.4992(29)
P1A P -1.0155(13) 0.0225(9) -0.4884(7)
F1A F -1.1138(37) -0.0326(31) -0.5906(15)
F2A F -1.0564(81) -0.0958(22) -0.4533(25)
F3A F -1.1603(32) 0.0690(29) -0.4758(29)
F6A F -0.8697(33) -0.0245(30) -0.5008(29)
F4A F -0.9189(37) 0.0880(30) -0.3879(15)
F5A F -0.9387(81) 0.1452(23) -0.5046(26)
Mn1 Mn -0.16197(11) 0.41975(9) 0.02161(7)
N1 N -0.6255(8) 0.5191(7) -0.0342(5)
N2 N -0.5000 0.5000 0.0000
N3 N -0.0694(6) 0.6075(5) -0.0079(4)
N4 N 0.1636(7) 0.3354(5) 0.0464(4)
N5 N 0.2540(9) 0.2816(7) 0.0844(6)
N6 N -0.2341(7) 0.2234(6) 0.0499(4)
C1 C -0.3320(9) 0.2075(7) 0.1004(5)
H1 H -0.3799(9) 0.2745(7) 0.1147(5)
C2 C -0.3678(9) 0.1005(7) 0.1331(5)
C3 C -0.3010(10) -0.0019(7) 0.1086(6)
C4 C -0.2028(11) 0.0126(7) 0.0549(7)
H2 H -0.1584(11) -0.0546(7) 0.0361(7)
C5 C -0.1698(10) 0.1246(7) 0.0291(6)
H3 H -0.0991(10) 0.1325(7) -0.0046(6)
C6 C -0.4742(11) 0.0991(10) 0.1937(7)
H4 H -0.5325(11) 0.0131(10) 0.1838(7)
H5 H -0.5508(11) 0.1515(10) 0.1751(7)
C7 C -0.3828(16) 0.1462(15) 0.2941(8)
H6 H -0.3411(93) 0.2357(22) 0.3062(14)
H7 H -0.4511(31) 0.1306(82) 0.3309(8)
H8 H -0.2967(68) 0.1029(63) 0.3106(17)
C8 C -0.3345(14) -0.1249(8) 0.1408(8)
H9 H -0.2581(49) -0.1749(29) 0.1329(44)
H10 H -0.3272(79) -0.1056(8) 0.2058(14)
H11 H -0.4395(32) -0.1718(31) 0.1042(32)
N7 N -0.0498(25) 0.4699(23) 0.1809(20)
C9 C 0.0280(23) 0.3904(16) 0.2251(17)
H12 H 0.0271(23) 0.3119(16) 0.1902(17)
C10 C 0.1097(20) 0.4203(21) 0.3203(17)
C11 C 0.1126(20) 0.5364(22) 0.3733(18)
C12 C 0.0335(21) 0.6159(22) 0.3277(18)
H13 H 0.0327(21) 0.6950(22) 0.3610(18)
C13 C -0.0470(22) 0.5799(21) 0.2311(18)
H14 H -0.1003(22) 0.6362(21) 0.2016(18)
C14 C 0.1931(30) 0.3320(34) 0.3663(22)
H15 H 0.1399(30) 0.3049(34) 0.4089(22)
H16 H 0.2999(30) 0.3772(34) 0.4039(22)
C15 C 0.2042(49) 0.2242(36) 0.3076(22)
H17 H 0.278(20) 0.182(12) 0.3431(40)
H18 H 0.1017(71) 0.168(10) 0.281(12)
H19 H 0.241(26) 0.2486(40) 0.2584(93)
C16 C 0.1952(27) 0.5844(26) 0.4771(16)
H20 H 0.3025(60) 0.572(13) 0.4926(23)
H21 H 0.196(16) 0.6731(42) 0.4941(24)
H22 H 0.140(11) 0.539(10) 0.5107(17)
N9 N -0.2807(7) 0.3391(6) -0.1360(4)
C25 C -0.2353(10) 0.2420(8) -0.1802(5)
H34 H -0.1514(10) 0.2112(8) -0.1457(5)
C26 C -0.3066(11) 0.1851(9) -0.2745(6)
H35 H -0.2734(11) 0.1163(9) -0.3019(6)
C27 C -0.4279(12) 0.2329(11) -0.3267(6)
C28 C -0.3968(10) 0.3826(9) -0.1874(6)
H37 H -0.4308(10) 0.4499(9) -0.1585(6)
C31 C -0.5041(15) 0.1697(13) -0.4294(7)
H43 H -0.4230(15) 0.1622(78) -0.4581(16)
H44 H -0.5646(89) 0.0868(35) -0.4355(7)
H45 H -0.5732(81) 0.2199(45) -0.4599(14)
C32 C -0.4715(10) 0.3328(10) -0.2831(6)
C33 C -0.5893(27) 0.3809(21) -0.3429(13)
H46 H -0.5633(27) 0.3862(21) -0.3997(13)
H47 H -0.6906(27) 0.3222(21) -0.3604(13)
C34 C -0.6047(26) 0.5058(21) -0.2998(15)
H48 H -0.685(12) 0.5345(60) -0.3436(36)
H49 H -0.635(16) 0.5006(33) -0.2448(55)
H50 H -0.5050(52) 0.5646(35) -0.2827(86)
N1A N -0.3745(8) 0.4809(7) 0.0342(5)
Mn1A Mn -0.83803(11) 0.58025(9) -0.02161(7)
Mn1A_2 Mn 0.16197(11) 0.58025(9) -0.02161(7)
N1_2 N 0.3745(8) 0.5191(7) -0.0342(5)
N3A N 0.0694(6) 0.3925(5) 0.0079(4)
N6A N 0.2341(7) 0.7766(6) -0.0499(4)
C1A C 0.3320(9) 0.7925(7) -0.1004(5)
H1A H 0.3799(9) 0.7255(7) -0.1147(5)
C2A C 0.3678(9) 0.8995(7) -0.1331(5)
C3A C 0.3010(10) 1.0019(7) -0.1086(6)
C4A C 0.2028(11) 0.9874(7) -0.0549(7)
H2A H 0.1584(11) 1.0546(7) -0.0361(7)
C5A C 0.1698(10) 0.8754(7) -0.0291(6)
H3A H 0.0991(10) 0.8675(7) 0.0046(6)
C8A C 0.3345(14) 1.1249(8) -0.1408(8)
H9A H 0.2581(49) 1.1749(29) -0.1329(44)
H10A H 0.3272(79) 1.1056(8) -0.2058(14)
H11A H 0.4395(32) 1.1718(31) -0.1042(32)
C6A C 0.4742(11) 0.9009(10) -0.1937(7)
H4A H 0.5325(11) 0.9869(10) -0.1838(7)
H5A H 0.5508(11) 0.8485(10) -0.1751(7)
C7A C 0.3828(16) 0.8538(15) -0.2941(8)
H6A H 0.3411(93) 0.7643(22) -0.3062(14)
H7A H 0.4511(31) 0.8694(82) -0.3309(8)
H8A H 0.2967(68) 0.8971(63) -0.3106(17)
N7A N 0.0498(25) 0.5301(23) -0.1809(20)
C9A C -0.0280(23) 0.6096(16) -0.2251(17)
H12A H -0.0271(23) 0.6881(16) -0.1902(17)
C10A C -0.1097(20) 0.5797(21) -0.3203(17)
C11A C -0.1126(20) 0.4636(22) -0.3733(18)
C12A C -0.0335(21) 0.3841(22) -0.3277(18)
H13A H -0.0327(21) 0.3050(22) -0.3610(18)
C13A C 0.0470(22) 0.4201(21) -0.2311(18)
H14A H 0.1003(22) 0.3638(21) -0.2016(18)
C16A C -0.1952(27) 0.4156(26) -0.4771(16)
H20A H -0.3025(60) 0.428(13) -0.4926(23)
H21A H -0.196(16) 0.3269(42) -0.4941(24)
H22A H -0.140(11) 0.461(10) -0.5107(17)
C14A C -0.1931(30) 0.6680(34) -0.3663(22)
H15A H -0.1399(30) 0.6951(34) -0.4089(22)
H16A H -0.2999(30) 0.6228(34) -0.4039(22)
C15A C -0.2042(49) 0.7758(36) -0.3076(22)
H17A H -0.278(20) 0.818(12) -0.3431(40)
H18A H -0.1017(71) 0.832(10) -0.281(12)
H19A H -0.241(26) 0.7514(40) -0.2584(93)
N9A N 0.2807(7) 0.6609(6) 0.1360(4)
C25A C 0.2353(10) 0.7580(8) 0.1802(5)
H34A H 0.1514(10) 0.7888(8) 0.1457(5)
C26A C 0.3066(11) 0.8149(9) 0.2745(6)
H35A H 0.2734(11) 0.8837(9) 0.3019(6)
C27A C 0.4279(12) 0.7671(11) 0.3267(6)
C31A C 0.5041(15) 0.8303(13) 0.4294(7)
H43A H 0.4230(15) 0.8378(78) 0.4581(16)
H44A H 0.5646(89) 0.9132(35) 0.4355(7)
H45A H 0.5732(81) 0.7801(45) 0.4599(14)
C32A C 0.4715(10) 0.6672(10) 0.2831(6)
C28A C 0.3968(10) 0.6174(9) 0.1874(6)
H37A H 0.4308(10) 0.5501(9) 0.1585(6)
C33A C 0.5893(27) 0.6191(21) 0.3429(13)
H46A H 0.5633(27) 0.6138(21) 0.3997(13)
H47A H 0.6906(27) 0.6778(21) 0.3604(13)
C34A C 0.6047(26) 0.4942(21) 0.2998(15)
H48A H 0.685(12) 0.4655(60) 0.3436(36)
H49A H 0.635(16) 0.4994(33) 0.2448(55)
H50A H 0.5050(52) 0.4354(35) 0.2827(86)
N4A N -0.1636(7) 0.6646(5) -0.0464(4)
N5A N -0.2540(9) 0.7184(7) -0.0844(6)
N8? N 0.0629(25) 0.5021(22) 0.8211(20)
C17? C -0.0403(25) 0.5578(15) 0.7667(18)
H23? H -0.0699(25) 0.6278(15) 0.7954(18)
C18? C -0.1053(23) 0.5162(21) 0.6699(19)
C19? C -0.0632(20) 0.4135(17) 0.6265(15)
C20? C 0.0414(20) 0.3564(17) 0.6812(15)
H24? H 0.0722(20) 0.2863(17) 0.6536(15)
C21? C 0.1026(23) 0.4028(20) 0.7783(18)
H25? H 0.1738(23) 0.3623(20) 0.8140(18)
C22? C -0.2191(38) 0.5850(28) 0.6159(27)
H26? H -0.1694(38) 0.6115(28) 0.5716(27)
H27? H -0.3098(38) 0.5179(28) 0.5786(27)
C23? C -0.2712(87) 0.6617(74) 0.6343(45)
H28? H -0.349(49) 0.673(35) 0.5794(81)
H29? H -0.190(14) 0.738(11) 0.661(35)
H30? H -0.322(54) 0.645(23) 0.680(29)
C24? C -0.1258(27) 0.3577(21) 0.5204(16)
H31? H -0.107(13) 0.4233(35) 0.4877(16)
H32? H -0.2378(42) 0.323(11) 0.5015(21)
H33? H -0.072(11) 0.2917(86) 0.5056(20)
H36? H 0.5512(10) 0.6316(10) 1.3169(6)
C29? C 0.2620(27) 0.9079(20) 1.3190(14)
H38? H 0.3540(27) 0.9761(20) 1.3514(14)
H39? H 0.2217(27) 0.8783(20) 1.3659(14)
C30? C 0.1401(34) 0.9578(19) 1.2577(18)
H40? H 0.121(14) 1.0317(87) 1.2930(30)
H41? H 0.0436(62) 0.8943(55) 1.2320(86)
H42? H 0.1753(83) 0.980(14) 1.2076(63)
loop_
_geom_bond_atom_site_label_1
_geom_bond_atom_site_label_2
_geom_bond_site_symmetry_1
_geom_bond_site_symmetry_2
Mn1 N3 1_555 1_555
N1 N2 1_555 1_555
N2 N1A 1_555 1_555
N3 Mn1A_2 1_555 1_555
N4 N5 1_555 1_555
N6 Mn1 1_555 1_555
C1 N6 1_555 1_555
H1 C1 1_555 1_555
C2 C1 1_555 1_555
C3 C2 1_555 1_555
C4 C3 1_555 1_555
H2 C4 1_555 1_555
C5 N6 1_555 1_555
H3 C5 1_555 1_555
C6 C2 1_555 1_555
H4 C6 1_555 1_555
H5 C6 1_555 1_555
C7 C6 1_555 1_555
H6 C7 1_555 1_555
H7 C7 1_555 1_555
H8 C7 1_555 1_555
C8 C3 1_555 1_555
H9 C8 1_555 1_555
H10 C8 1_555 1_555
H11 C8 1_555 1_555
N7 Mn1 1_555 1_555
C9 N7 1_555 1_555
H12 C9 1_555 1_555
C10 C9 1_555 1_555
C11 C10 1_555 1_555
C12 C11 1_555 1_555
H13 C12 1_555 1_555
C13 N7 1_555 1_555
H14 C13 1_555 1_555
C14 C10 1_555 1_555
H15 C14 1_555 1_555
H16 C14 1_555 1_555
C15 C14 1_555 1_555
H17 C15 1_555 1_555
H18 C15 1_555 1_555
H19 C15 1_555 1_555
C16 C11 1_555 1_555
H20 C16 1_555 1_555
H21 C16 1_555 1_555
H22 C16 1_555 1_555
N9 Mn1 1_555 1_555
C25 N9 1_555 1_555
H34 C25 1_555 1_555
C26 C25 1_555 1_555
H35 C26 1_555 1_555
C27 C26 1_555 1_555
C28 N9 1_555 1_555
H37 C28 1_555 1_555
C31 C27 1_555 1_555
H43 C31 1_555 1_555
H44 C31 1_555 1_555
H45 C31 1_555 1_555
C32 C27 1_555 1_555
C33 C32 1_555 1_555
H46 C33 1_555 1_555
H47 C33 1_555 1_555
C34 C33 1_555 1_555
H48 C34 1_555 1_555
H49 C34 1_555 1_555
H50 C34 1_555 1_555
P1 F1 1_555 1_555
F1 P1A 1_555 1_555
F2 P1 1_555 1_555
F3 P1 1_555 1_555
F4 P1 1_555 1_555
F5 P1 1_555 1_555
F6 P1 1_555 1_555
N1A Mn1 1_555 1_555
Mn1A N1 1_555 1_555
Mn1A_2 N1_2 1_555 1_555
N3A Mn1 1_555 1_555
N6A Mn1A_2 1_555 1_555
C1A N6A 1_555 1_555
H1A C1A 1_555 1_555
C2A C1A 1_555 1_555
C3A C2A 1_555 1_555
C4A C3A 1_555 1_555
H2A C4A 1_555 1_555
C5A N6A 1_555 1_555
H3A C5A 1_555 1_555
C8A C3A 1_555 1_555
H9A C8A 1_555 1_555
H10A C8A 1_555 1_555
H11A C8A 1_555 1_555
C6A C2A 1_555 1_555
H4A C6A 1_555 1_555
H5A C6A 1_555 1_555
C7A C6A 1_555 1_555
H6A C7A 1_555 1_555
H7A C7A 1_555 1_555
H8A C7A 1_555 1_555
N7A Mn1A_2 1_555 1_555
C9A N7A 1_555 1_555
H12A C9A 1_555 1_555
C10A C9A 1_555 1_555
C11A C10A 1_555 1_555
C12A C11A 1_555 1_555
H13A C12A 1_555 1_555
C13A N7A 1_555 1_555
H14A C13A 1_555 1_555
C16A C11A 1_555 1_555
H20A C16A 1_555 1_555
H21A C16A 1_555 1_555
H22A C16A 1_555 1_555
C14A C10A 1_555 1_555
H15A C14A 1_555 1_555
H16A C14A 1_555 1_555
C15A C14A 1_555 1_555
H17A C15A 1_555 1_555
H18A C15A 1_555 1_555
H19A C15A 1_555 1_555
N9A Mn1A_2 1_555 1_555
C25A N9A 1_555 1_555
H34A C25A 1_555 1_555
C26A C25A 1_555 1_555
H35A C26A 1_555 1_555
C27A C26A 1_555 1_555
C31A C27A 1_555 1_555
H43A C31A 1_555 1_555
H44A C31A 1_555 1_555
H45A C31A 1_555 1_555
C32A C27A 1_555 1_555
C28A N9A 1_555 1_555
H37A C28A 1_555 1_555
C33A C32A 1_555 1_555
H46A C33A 1_555 1_555
H47A C33A 1_555 1_555
C34A C33A 1_555 1_555
H48A C34A 1_555 1_555
H49A C34A 1_555 1_555
H50A C34A 1_555 1_555
N4A N3 1_555 1_555
N5A N4A 1_555 1_555
P1A P1 1_555 1_555
F1A P1 1_555 1_555
F2A P1 1_555 1_555
F3A F6 1_555 1_555
F6A P1 1_555 1_555
F4A P1 1_555 1_555
F5A P1 1_555 1_555
N4 N3A 1_555 1_555
C4 C5 1_555 1_555
C12 C13 1_555 1_555
C28 C32 1_555 1_555
F1 F6A 1_555 1_555
F1 F4A 1_555 1_555
F2 P1A 1_555 1_555
F2 F5A 1_555 1_555
F3 F6A 1_555 1_555
F4 P1A 1_555 1_555
F4 F1A 1_555 1_555
F5 P1A 1_555 1_555
F5 F2A 1_555 1_555
F6 P1A 1_555 1_555
F6 F1A 1_555 1_555
Mn1A_2 N3A 1_555 1_555
C4A C5A 1_555 1_555
C12A C13A 1_555 1_555
C32A C28A 1_555 1_555
P1A F1A 1_555 1_555
P1A F2A 1_555 1_555
P1A F3A 1_555 1_555
P1A F4A 1_555 1_555
P1A F5A 1_555 1_555
P1A F6A 1_555 1_555

#END
