
#######################################################################
#
#                 Cambridge Crystallographic Data Centre
#                                CCDC 
#
#######################################################################
#
# If this CIF has been generated from an entry in the Cambridge 
# Structural Database, then it will include bibliographic, chemical, 
# crystal, experimental, refinement or atomic coordinate data resulting 
# from the CCDC's data processing and validation procedures.
#
#######################################################################

data_CUCFOX
_symmetry_cell_setting           monoclinic
_symmetry_space_group_name_H-M   'C 2/c'
_symmetry_Int_Tables_number      15
_space_group_name_Hall           '-C 2yn'
loop_
_symmetry_equiv_pos_site_id
_symmetry_equiv_pos_as_xyz
1 x,y,z
2 -x,y,1/2-z
3 1/2+x,1/2+y,z
4 1/2-x,1/2+y,1/2-z
5 -x,-y,-z
6 x,-y,1/2+z
7 1/2-x,1/2-y,-z
8 1/2+x,1/2-y,1/2+z
_cell_length_a                   27.511(5)
_cell_length_b                   23.284(5)
_cell_length_c                   18.752(5)
_cell_angle_alpha                90
_cell_angle_beta                 131.079(5)
_cell_angle_gamma                90
_cell_volume                     9054.62
loop_
_atom_site_label
_atom_site_type_symbol
_atom_site_fract_x
_atom_site_fract_y
_atom_site_fract_z
C1 C 0.3138(4) 0.1957(4) 0.1473(6)
H1 H 0.2895 0.2287 0.1160
C2 C 0.3800(4) 0.2009(4) 0.2204(7)
H2 H 0.3991 0.2370 0.2402
C3 C 0.4155(4) 0.1543(4) 0.2616(6)
C4 C 0.3857(6) 0.1025(4) 0.2365(8)
H3 H 0.4093 0.0690 0.2662
C5 C 0.3220(5) 0.1008(4) 0.1687(8)
H4 H 0.3019 0.0652 0.1530
C6 C 0.4926(4) 0.1612(5) 0.3441(6)
C7 C 0.5293(4) 0.1054(4) 0.3931(8)
H5 H 0.5635 0.1017 0.3919
H6 H 0.5004 0.0735 0.3607
H7 H 0.5471 0.1061 0.4575
C8 C 0.6021(5) 0.2699(4) 0.4266(6)
C9 C 0.1859(3) 0.0271(4) -0.0508(7)
C10 C 0.1682(5) -0.0984(5) -0.1674(7)
C11 C 0.1699(7) -0.1517(4) -0.1121(10)
H8 H 0.1348 -0.1486 -0.1127
H9 H 0.2100 -0.1517 -0.0478
H10 H 0.1658 -0.1868 -0.1424
C12 C 0.1426(4) -0.0827(4) -0.3881(6)
H11 H 0.1250 -0.0546 -0.4344
C13 C 0.1421(4) -0.0753(4) -0.3151(8)
H12 H 0.1268 -0.0407 -0.3117
C14 C 0.1619(5) -0.1147(5) -0.2507(7)
C15 C 0.1862(5) -0.1668(4) -0.2560(8)
H13 H 0.2000 -0.1967 -0.2135
C16 C 0.1881(4) -0.1709(4) -0.3282(7)
H14 H 0.2045 -0.2046 -0.3322
N1 N 0.2850(3) 0.1469(3) 0.1214(4)
N2 N 0.1886(2) 0.0593(3) -0.1103(4)
N3 N 0.1960(3) 0.1194(3) -0.0923(4)
N4 N 0.5562(3) 0.3124(3) 0.3697(5)
N5 N 0.5785(3) 0.3666(3) 0.3876(4)
N6 N 0.5129(3) 0.2116(3) 0.3485(4)
N7 N 0.1682(3) -0.1299(3) -0.3922(5)
N8 N 0.1754(3) -0.0300(4) -0.0743(5)
N9 N 0.1695(3) -0.0490(4) -0.1531(6)
N10 N 0.5804(3) 0.2159(3) 0.4169(5)
O1 O 0.6618(3) 0.2792(2) 0.4845(4)
O2 O 0.1886(2) 0.0451(3) 0.0128(4)
Zn1 Zn 0.18495(4) 0.13490(4) 0.01192(6)
N5G N 0.0785(3) 0.1334(3) -0.1124(4)
N7E N 0.1682(3) 0.1299(3) 0.1078(5)
O1G O 0.1618(3) 0.2208(2) -0.0155(4)
Zn1E Zn 0.18495(4) -0.13490(4) -0.48808(6)
Zn1G Zn 0.68495(4) 0.36510(4) 0.51192(6)
N11 N 0.7007(5) 0.1677(4) 0.6236(8)
O3 O 0.6850(3) 0.1437(2) 0.5508(5)
O4 O 0.6618(4) 0.1745(4) 0.6348(5)
O5 O 0.7592(4) 0.1865(3) 0.6898(5)
N12 N 0.9375(4) 0.0973(4) 0.8350(6)
O6 O 0.9335(2) 0.1366(2) 0.7827(4)
O7 O 0.8901(3) 0.0720(3) 0.8115(4)
O8 O 0.9919(3) 0.0859(2) 0.9127(4)
loop_
_geom_bond_atom_site_label_1
_geom_bond_atom_site_label_2
_geom_bond_site_symmetry_1
_geom_bond_site_symmetry_2
C1 H1 1_555 1_555
C2 C1 1_555 1_555
H2 C2 1_555 1_555
C3 C2 1_555 1_555
C4 C3 1_555 1_555
H3 C4 1_555 1_555
C5 C4 1_555 1_555
H4 C5 1_555 1_555
C6 C3 1_555 1_555
C7 C6 1_555 1_555
H5 C7 1_555 1_555
H6 C7 1_555 1_555
H7 C7 1_555 1_555
C8 N4 1_555 1_555
C9 N2 1_555 1_555
C10 C11 1_555 1_555
C11 H8 1_555 1_555
H9 C11 1_555 1_555
H10 C11 1_555 1_555
C12 H11 1_555 1_555
C13 C12 1_555 1_555
H12 C13 1_555 1_555
C14 C10 1_555 1_555
C15 C14 1_555 1_555
H13 C15 1_555 1_555
C16 C15 1_555 1_555
H14 C16 1_555 1_555
N1 C1 1_555 1_555
N2 N3 1_555 1_555
N3 Zn1 1_555 1_555
N4 N5 1_555 1_555
N5 Zn1G 1_555 1_555
N6 C6 1_555 1_555
N7 C12 1_555 1_555
N8 C9 1_555 1_555
N9 C10 1_555 1_555
N10 C8 1_555 1_555
O1 C8 1_555 1_555
O2 C9 1_555 1_555
Zn1 N1 1_555 1_555
N11 O3 1_555 1_555
O4 N11 1_555 1_555
O5 N11 1_555 1_555
N12 O6 1_555 1_555
O7 N12 1_555 1_555
O8 N12 1_555 1_555
N5G Zn1 1_555 1_555
N7E Zn1 1_555 1_555
O1G Zn1 1_555 1_555
Zn1E N7 1_555 1_555
Zn1G O1 1_555 1_555
C5 N1 1_555 1_555
C13 C14 1_555 1_555
C16 N7 1_555 1_555
N6 N10 1_555 1_555
N8 N9 1_555 1_555
O2 Zn1 1_555 1_555

#END
