
#######################################################################
#
#                 Cambridge Crystallographic Data Centre
#                                CCDC 
#
#######################################################################
#
# If this CIF has been generated from an entry in the Cambridge 
# Structural Database, then it will include bibliographic, chemical, 
# crystal, experimental, refinement or atomic coordinate data resulting 
# from the CCDC's data processing and validation procedures.
#
#######################################################################

data_CUCITD03
_symmetry_cell_setting           monoclinic
_symmetry_space_group_name_H-M   'P 21/c'
_symmetry_Int_Tables_number      14
_space_group_name_Hall           '-P 2ybc'
loop_
_symmetry_equiv_pos_site_id
_symmetry_equiv_pos_as_xyz
1 x,y,z
2 -x,1/2+y,1/2-z
3 -x,-y,-z
4 x,1/2-y,1/2+z
_cell_length_a                   6.9199(4)
_cell_length_b                   9.7269(5)
_cell_length_c                   14.4865(8)
_cell_angle_alpha                90
_cell_angle_beta                 91.3080(10)
_cell_angle_gamma                90
_cell_volume                     974.82
loop_
_atom_site_label
_atom_site_type_symbol
_atom_site_fract_x
_atom_site_fract_y
_atom_site_fract_z
Cu1 Cu 0.19806(7) 0.24792(4) 0.16247(3)
Cu2 Cu 0.41174(10) 0.15226(7) 0.35347(4)
O1 O 0.3054(4) 0.3017(3) 0.28200(18)
O2 O 0.0549(4) 0.4174(3) 0.17087(19)
C1 C 0.1871(5) 0.4012(4) 0.3250(3)
O3 O 0.2690(5) 0.1849(4) 0.4636(2)
C2 C 0.0679(6) 0.4780(4) 0.2503(3)
C3 C 0.3112(6) 0.5008(4) 0.3830(3)
H1 H 0.2270 0.5666 0.4124
H2 H 0.3782 0.4495 0.4314
C4 C 0.4575(6) 0.5776(4) 0.3278(3)
O4 O 0.3337(7) -0.0750(4) 0.3702(3)
O5 O 0.6574(5) 0.1152(5) 0.4372(3)
C5 C 0.0356(5) 0.3335(4) 0.3869(3)
H3 H -0.0558 0.4027 0.4064
H4 H -0.0354 0.2647 0.3515
O6 O 0.4230(6) 0.5950(5) 0.2436(2)
O7 O 0.6002(5) 0.6222(4) 0.3710(3)
O8 O -0.0178(6) 0.5833(4) 0.2669(2)
C6 C 0.1270(7) 0.2669(4) 0.4707(3)
O9 O 0.0625(4) 0.2982(3) 0.54756(19)
H5 H 0.383(7) -0.120(6) 0.342(4)
H6 H 0.717(9) 0.050(7) 0.424(4)
H7 H 0.240(10) -0.108(9) 0.353(6)
H8 H 0.646(11) 0.132(9) 0.496(5)
Cu1A Cu -0.19806(7) 0.74792(4) 0.33753(3)
Cu1A_2 Cu 0.80194(7) 0.74792(4) 0.33753(3)
Cu1C Cu 0.19806(7) 0.25208(4) 0.66247(3)
Cu2A Cu 0.58826(10) 0.65226(7) 0.14653(4)
O6A O 0.5770(6) 0.0950(5) 0.2564(2)
O7A O 0.3998(5) 0.1222(4) 0.1290(3)
O8A O 0.0178(6) 0.0833(4) 0.2331(2)
O9C O 0.0625(4) 0.2018(3) 0.04756(19)
loop_
_geom_bond_atom_site_label_1
_geom_bond_atom_site_label_2
_geom_bond_site_symmetry_1
_geom_bond_site_symmetry_2
Cu1 O1 1_555 1_555
Cu2 O1 1_555 1_555
O1 C1 1_555 1_555
O2 Cu1 1_555 1_555
C1 C2 1_555 1_555
O3 Cu2 1_555 1_555
C2 O2 1_555 1_555
C3 C1 1_555 1_555
H1 C3 1_555 1_555
H2 C3 1_555 1_555
C4 C3 1_555 1_555
O4 Cu2 1_555 1_555
O5 Cu2 1_555 1_555
C5 C1 1_555 1_555
H3 C5 1_555 1_555
H4 C5 1_555 1_555
O6 C4 1_555 1_555
O7 C4 1_555 1_555
O8 C2 1_555 1_555
C6 O3 1_555 1_555
O9 C6 1_555 1_555
H5 O4 1_555 1_555
H6 O5 1_555 1_555
H7 O4 1_555 1_555
H8 O5 1_555 1_555
Cu1A O8 1_555 1_555
Cu1A_2 O7 1_555 1_555
Cu1C O9 1_555 1_555
Cu2A O6 1_555 1_555
O6A Cu2 1_555 1_555
O7A Cu1 1_555 1_555
O8A Cu1 1_555 1_555
O9C Cu1 1_555 1_555
C5 C6 1_555 1_555

#END
