
#######################################################################
#
#                 Cambridge Crystallographic Data Centre
#                                CCDC 
#
#######################################################################
#
# If this CIF has been generated from an entry in the Cambridge 
# Structural Database, then it will include bibliographic, chemical, 
# crystal, experimental, refinement or atomic coordinate data resulting 
# from the CCDC's data processing and validation procedures.
#
#######################################################################

data_CUCKIV
_symmetry_cell_setting           monoclinic
_symmetry_space_group_name_H-M   'P 21/n'
_symmetry_Int_Tables_number      14
_space_group_name_Hall           '-P 2yn'
loop_
_symmetry_equiv_pos_site_id
_symmetry_equiv_pos_as_xyz
1 x,y,z
2 1/2-x,1/2+y,1/2-z
3 -x,-y,-z
4 1/2+x,1/2-y,1/2+z
_cell_length_a                   14.170(7)
_cell_length_b                   10.833(5)
_cell_length_c                   14.400(7)
_cell_angle_alpha                90
_cell_angle_beta                 100.519(6)
_cell_angle_gamma                90
_cell_volume                     2173.3
loop_
_atom_site_label
_atom_site_type_symbol
_atom_site_fract_x
_atom_site_fract_y
_atom_site_fract_z
Co1 Co 0.17939(6) 0.28856(9) 0.30066(6)
N1 N 0.0916(4) 0.2770(5) 0.3952(4)
N2 N -0.2291(3) 0.2203(5) 0.7090(4)
O1 O -0.1961(3) 0.1122(5) 0.8681(3)
O2 O -0.0396(3) 0.0872(4) 0.8655(3)
O3 O -0.4023(3) 0.3045(5) 0.6786(3)
O4 O -0.3912(3) 0.3744(4) 0.5362(3)
O5 O 0.2056(4) 0.0172(6) 0.5044(4)
O6 O 0.2298(3) 0.1279(5) 0.3838(4)
O7 O -0.0379(4) 0.5416(5) 0.3133(4)
O8 O 0.0880(3) 0.4492(5) 0.2730(3)
C1 C -0.2560(5) 0.2781(6) 0.6253(5)
C2 C -0.1948(4) 0.2906(6) 0.5632(4)
H1 H -0.2145 0.3334 0.5054
C3 C -0.1034(4) 0.2404(6) 0.5850(5)
C4 C -0.0764(4) 0.1828(6) 0.6723(5)
H2 H -0.0131 0.1512 0.6903
C5 C -0.1406(4) 0.1714(6) 0.7319(4)
C6 C -0.1220(4) 0.1189(6) 0.8291(5)
C7 C -0.3591(4) 0.3225(6) 0.6122(5)
C8 C 0.0218(4) 0.3618(6) 0.3939(5)
C9 C -0.0422(4) 0.3513(7) 0.4551(5)
H3 H -0.0915 0.4111 0.4539
C10 C -0.0348(4) 0.2529(6) 0.5188(5)
C11 C 0.0379(4) 0.1654(7) 0.5187(5)
H4 H 0.0445 0.0970 0.5606
C12 C 0.0998(4) 0.1815(6) 0.4559(5)
C13 C 0.1852(5) 0.1013(7) 0.4479(5)
C14 C 0.0226(5) 0.4599(7) 0.3203(5)
Co2 Co -0.5000 0.5000 0.5000
O9 O -0.6062(3) 0.3924(5) 0.5505(4)
Co1B Co -1.17939(6) 0.71144(9) 0.69934(6)
Co1A Co -0.67939(6) 0.78856(9) 0.19934(6)
Co1C Co -0.32061(6) 0.21144(9) 0.80066(6)
N1B N -1.0916(4) 0.7230(5) 0.6048(4)
N2B N -0.7709(3) 0.7797(5) 0.2910(4)
N2A N -1.2709(3) 0.7203(5) 0.7910(4)
N2C N 0.2709(3) 0.2797(5) 0.2090(4)
O1B O -0.8039(3) 0.8878(5) 0.1319(3)
O1A O -1.3039(3) 0.6122(5) 0.6319(3)
O1C O 0.3039(3) 0.3878(5) 0.3681(3)
O2B O -0.9604(3) 0.9128(4) 0.1345(3)
O2A O -0.4604(3) 0.5872(4) 0.6345(3)
O2C O -0.5396(3) 0.4128(4) 0.3655(3)
O3B O -0.5977(3) 0.6955(5) 0.3214(3)
O3A O -1.0977(3) 0.8045(5) 0.8214(3)
O3C O 0.0977(3) 0.1955(5) 0.1786(3)
O4B O -0.6088(3) 0.6256(4) 0.4638(3)
O5B O -1.2056(4) 0.9828(6) 0.4956(4)
O6B O -1.2298(3) 0.8721(5) 0.6162(4)
O7B O -0.9621(4) 0.4584(5) 0.6867(4)
O8B O -1.0880(3) 0.5508(5) 0.7270(3)
C1B C -0.7440(5) 0.7219(6) 0.3747(5)
C2B C -0.8052(4) 0.7094(6) 0.4368(4)
H1B H -0.7855 0.6666 0.4946
C3B C -0.8966(4) 0.7596(6) 0.4150(5)
C4B C -0.9236(4) 0.8172(6) 0.3277(5)
H2B H -0.9869 0.8488 0.3097
C5B C -0.8594(4) 0.8286(6) 0.2681(4)
C6B C -0.8780(4) 0.8811(6) 0.1709(5)
C7B C -0.6409(4) 0.6775(6) 0.3878(5)
C8B C -1.0218(4) 0.6382(6) 0.6061(5)
C9B C -0.9578(4) 0.6487(7) 0.5449(5)
H3B H -0.9085 0.5889 0.5461
C10B C -0.9652(4) 0.7471(6) 0.4812(5)
C11B C -1.0379(4) 0.8346(7) 0.4813(5)
H4B H -1.0445 0.9030 0.4394
C12B C -1.0998(4) 0.8185(6) 0.5441(5)
C13B C -1.1852(5) 0.8987(7) 0.5521(5)
C14B C -1.0226(5) 0.5401(7) 0.6797(5)
Co2A Co -1.0000 1.0000 0.0000
Co2A_2 Co 0.0000 0.0000 1.0000
O9B O -0.3938(3) 0.6076(5) 0.4495(4)
Co3 Co 1.0000 0.5000 1.0000
O10 O 0.8785(3) 0.5957(5) 1.0118(4)
O11 O 0.9530(3) 0.3608(4) 1.0864(3)
O12 O 1.0802(3) 0.5903(5) 1.1187(3)
O10B O 1.1215(3) 0.4043(5) 0.9882(4)
O11B O 1.0470(3) 0.6392(4) 0.9136(3)
O12B O 0.9198(3) 0.4097(5) 0.8813(3)
O13 O 0.8948(6) 0.7274(7) 1.1734(5)
loop_
_geom_bond_atom_site_label_1
_geom_bond_atom_site_label_2
_geom_bond_site_symmetry_1
_geom_bond_site_symmetry_2
Co1 N1 1_555 1_555
N1 C8 1_555 1_555
N2 C1 1_555 1_555
O1 C6 1_555 1_555
O2 C6 1_555 1_555
O3 C7 1_555 1_555
O4 C7 1_555 1_555
O5 C13 1_555 1_555
O6 Co1 1_555 1_555
O7 C14 1_555 1_555
O8 Co1 1_555 1_555
C1 C2 1_555 1_555
C2 H1 1_555 1_555
C3 C2 1_555 1_555
C4 C3 1_555 1_555
H2 C4 1_555 1_555
C5 N2 1_555 1_555
C6 C5 1_555 1_555
C7 C1 1_555 1_555
C8 C9 1_555 1_555
C9 H3 1_555 1_555
C10 C3 1_555 1_555
C11 C10 1_555 1_555
H4 C11 1_555 1_555
C12 N1 1_555 1_555
C13 O6 1_555 1_555
C14 O8 1_555 1_555
Co2 O4 1_555 1_555
O9 Co2 1_555 1_555
Co3 O10 1_555 1_555
O11 Co3 1_555 1_555
O12 Co3 1_555 1_555
Co1B N1B 1_555 1_555
Co1A N2B 1_555 1_555
Co1C N2 1_555 1_555
N1B C8B 1_555 1_555
N2B C1B 1_555 1_555
N2A Co1B 1_555 1_555
N2C Co1 1_555 1_555
O1B Co1A 1_555 1_555
O1A Co1B 1_555 1_555
O1C Co1 1_555 1_555
O2B C6B 1_555 1_555
O2A Co2 1_555 1_555
O2C Co2 1_555 1_555
O3B Co1A 1_555 1_555
O3A Co1B 1_555 1_555
O3C Co1 1_555 1_555
O4B Co2 1_555 1_555
O5B C13B 1_555 1_555
O6B Co1B 1_555 1_555
O7B C14B 1_555 1_555
O8B Co1B 1_555 1_555
C1B C2B 1_555 1_555
C2B H1B 1_555 1_555
C3B C2B 1_555 1_555
C4B C3B 1_555 1_555
H2B C4B 1_555 1_555
C5B N2B 1_555 1_555
C6B O1B 1_555 1_555
C7B O3B 1_555 1_555
C8B C9B 1_555 1_555
C9B H3B 1_555 1_555
C10B C3B 1_555 1_555
C11B C10B 1_555 1_555
H4B C11B 1_555 1_555
C12B N1B 1_555 1_555
C13B O6B 1_555 1_555
C14B O8B 1_555 1_555
Co2A O2B 1_555 1_555
Co2A_2 O2 1_555 1_555
O9B Co2 1_555 1_555
O10B Co3 1_555 1_555
O11B Co3 1_555 1_555
O12B Co3 1_555 1_555
O1 Co1C 1_555 1_555
O3 Co1C 1_555 1_555
C4 C5 1_555 1_555
C8 C14 1_555 1_555
C9 C10 1_555 1_555
C11 C12 1_555 1_555
C12 C13 1_555 1_555
O4B C7B 1_555 1_555
C1B C7B 1_555 1_555
C4B C5B 1_555 1_555
C5B C6B 1_555 1_555
C8B C14B 1_555 1_555
C9B C10B 1_555 1_555
C11B C12B 1_555 1_555
C12B C13B 1_555 1_555

#END
