
#######################################################################
#
#                 Cambridge Crystallographic Data Centre
#                                CCDC 
#
#######################################################################
#
# If this CIF has been generated from an entry in the Cambridge 
# Structural Database, then it will include bibliographic, chemical, 
# crystal, experimental, refinement or atomic coordinate data resulting 
# from the CCDC's data processing and validation procedures.
#
#######################################################################

data_CUCLPY
_symmetry_cell_setting           monoclinic
_symmetry_space_group_name_H-M   'P 21'
_symmetry_Int_Tables_number      4
_space_group_name_Hall           'P 2yb'
loop_
_symmetry_equiv_pos_site_id
_symmetry_equiv_pos_as_xyz
1 x,y,z
2 -x,1/2+y,-z
_cell_length_a                   9.324(4)
_cell_length_b                   3.8484(7)
_cell_length_c                   8.663(4)
_cell_angle_alpha                90
_cell_angle_beta                 107.08(3)
_cell_angle_gamma                90
_cell_volume                     297.14
loop_
_atom_site_label
_atom_site_type_symbol
_atom_site_fract_x
_atom_site_fract_y
_atom_site_fract_z
Cl1 Cl -0.33860 0.25000 -0.34490
Cu1 Cu -0.61700 0.25800 -0.48950
N1 N -0.71600 0.20200 -0.31600
C1 C -0.65100 0.30700 -0.16300
C2 C -0.71500 0.28500 -0.04200
C3 C -0.85400 0.12100 -0.07700
C4 C -0.85100 0.05500 -0.34700
C5 C -0.92300 0.01700 -0.23300
H1 H -0.54100 0.43100 -0.12900
H2 H -0.67300 0.37700 0.06800
H3 H -0.87100 0.13300 0.01700
H4 H -0.89800 0.00900 -0.45500
H5 H -0.99800 -0.09100 -0.24600
Cu1A Cu -0.38300 0.75800 -0.51050
Cu1A_2 Cu -0.38300 -0.24200 -0.51050
Cl1A Cl -0.66140 0.75000 -0.65510
Cl1A_2 Cl -0.66140 -0.25000 -0.65510
Cl1_2 Cl -0.33860 1.25000 -0.34490
N1A N -0.28400 0.70200 -0.68400
Cu1_2 Cu -0.61700 1.25800 -0.48950
C1A C -0.34900 0.80700 -0.83700
C4A C -0.14900 0.55500 -0.65300
C2A C -0.28500 0.78500 -0.95800
H1A H -0.45900 0.93100 -0.87100
C5A C -0.07700 0.51700 -0.76700
H4A H -0.10200 0.50900 -0.54500
C3A C -0.14600 0.62100 -0.92300
H2A H -0.32700 0.87700 -1.06800
H5A H -0.00200 0.40900 -0.75400
H3A H -0.12900 0.63300 -1.01700
loop_
_geom_bond_atom_site_label_1
_geom_bond_atom_site_label_2
_geom_bond_site_symmetry_1
_geom_bond_site_symmetry_2
Cl1 Cu1 1_555 1_555
Cu1 N1 1_555 1_555
N1 C1 1_555 1_555
C1 C2 1_555 1_555
C2 C3 1_555 1_555
C3 C5 1_555 1_555
C4 N1 1_555 1_555
C5 C4 1_555 1_555
H1 C1 1_555 1_555
H2 C2 1_555 1_555
H3 C3 1_555 1_555
H4 C4 1_555 1_555
H5 C5 1_555 1_555
Cu1A Cl1 1_555 1_555
Cu1A_2 Cl1 1_555 1_555
Cl1A Cu1 1_555 1_555
Cl1A_2 Cu1 1_555 1_555
Cl1_2 Cu1A 1_555 1_555
N1A Cu1A 1_555 1_555
Cu1_2 Cl1A 1_555 1_555
C1A N1A 1_555 1_555
C4A N1A 1_555 1_555
C2A C1A 1_555 1_555
H1A C1A 1_555 1_555
C5A C4A 1_555 1_555
H4A C4A 1_555 1_555
C3A C2A 1_555 1_555
H2A C2A 1_555 1_555
H5A C5A 1_555 1_555
H3A C3A 1_555 1_555
Cu1A Cl1A 1_555 1_555
C5A C3A 1_555 1_555

#END
