
#######################################################################
#
#                 Cambridge Crystallographic Data Centre
#                                CCDC 
#
#######################################################################
#
# If this CIF has been generated from an entry in the Cambridge 
# Structural Database, then it will include bibliographic, chemical, 
# crystal, experimental, refinement or atomic coordinate data resulting 
# from the CCDC's data processing and validation procedures.
#
#######################################################################

data_CUCPYO12
_symmetry_cell_setting           monoclinic
_symmetry_space_group_name_H-M   'P 21/c'
_symmetry_Int_Tables_number      14
_space_group_name_Hall           '-P 2ybc'
loop_
_symmetry_equiv_pos_site_id
_symmetry_equiv_pos_as_xyz
1 x,y,z
2 -x,1/2+y,1/2-z
3 -x,-y,-z
4 x,1/2-y,1/2+z
_cell_length_a                   5.7929(18)
_cell_length_b                   13.509(4)
_cell_length_c                   9.980(3)
_cell_angle_alpha                90
_cell_angle_beta                 105.049(5)
_cell_angle_gamma                90
_cell_volume                     754.213
loop_
_atom_site_label
_atom_site_type_symbol
_atom_site_fract_x
_atom_site_fract_y
_atom_site_fract_z
Cu1 Cu 0.26717(5) 0.51602(3) 0.59519(4)
Cl1 Cl 0.36018(13) 0.61306(6) 0.77684(8)
Cl2 Cl 0.58762(12) 0.42200(6) 0.63963(8)
O1 O 0.0344(3) 0.41617(13) 0.4887(2)
N1 N 0.0775(4) 0.32101(16) 0.4612(2)
C1 C -0.0270(5) 0.2504(2) 0.5159(3)
H1 H -0.1288 0.2661 0.5710
C2 C 0.0169(7) 0.1543(3) 0.4901(4)
H2 H -0.0569 0.1035 0.5262
C3 C 0.1709(7) 0.1330(3) 0.4105(4)
H3 H 0.2054 0.0676 0.3940
C4 C 0.2729(6) 0.2084(3) 0.3557(3)
H4 H 0.3771 0.1947 0.3012
C5 C 0.2217(5) 0.3034(2) 0.3810(3)
H5 H 0.2873 0.3555 0.3423
Cu1B Cu 0.73283(5) 0.48398(3) 0.40481(4)
Cl2B Cl 0.41238(12) 0.57800(6) 0.36037(8)
Cu1B_2 Cu -0.26717(5) 0.48398(3) 0.40481(4)
Cl1B Cl -0.36018(13) 0.38694(6) 0.22316(8)
Cl2B_2 Cl -0.58762(12) 0.57800(6) 0.36037(8)
Cl2_2 Cl -0.41238(12) 0.42200(6) 0.63963(8)
O1B O -0.0344(3) 0.58383(13) 0.5113(2)
N1B N -0.0775(4) 0.67899(16) 0.5388(2)
C1B C 0.0270(5) 0.7496(2) 0.4841(3)
H1B H 0.1288 0.7339 0.4290
C2B C -0.0169(7) 0.8457(3) 0.5099(4)
H2B H 0.0569 0.8965 0.4738
C3B C -0.1709(7) 0.8670(3) 0.5895(4)
H3B H -0.2054 0.9324 0.6060
C4B C -0.2729(6) 0.7916(3) 0.6443(3)
H4B H -0.3771 0.8053 0.6988
C5B C -0.2217(5) 0.6966(2) 0.6190(3)
H5B H -0.2873 0.6445 0.6577
loop_
_geom_bond_atom_site_label_1
_geom_bond_atom_site_label_2
_geom_bond_site_symmetry_1
_geom_bond_site_symmetry_2
Cu1 Cl1 1_555 1_555
Cl2 Cu1 1_555 1_555
O1 Cu1 1_555 1_555
N1 O1 1_555 1_555
C1 N1 1_555 1_555
H1 C1 1_555 1_555
C2 C1 1_555 1_555
H2 C2 1_555 1_555
C3 C2 1_555 1_555
H3 C3 1_555 1_555
C4 C3 1_555 1_555
H4 C4 1_555 1_555
C5 N1 1_555 1_555
H5 C5 1_555 1_555
Cu1B Cl2 1_555 1_555
Cl2B Cu1 1_555 1_555
Cu1B_2 O1 1_555 1_555
Cl1B Cu1B_2 1_555 1_555
Cl2B_2 Cu1B_2 1_555 1_555
Cl2_2 Cu1B_2 1_555 1_555
O1B Cu1 1_555 1_555
N1B O1B 1_555 1_555
C1B N1B 1_555 1_555
H1B C1B 1_555 1_555
C2B C1B 1_555 1_555
H2B C2B 1_555 1_555
C3B C2B 1_555 1_555
H3B C3B 1_555 1_555
C4B C3B 1_555 1_555
H4B C4B 1_555 1_555
C5B N1B 1_555 1_555
H5B C5B 1_555 1_555
C4 C5 1_555 1_555
Cu1B Cl2B 1_555 1_555
Cu1B_2 O1B 1_555 1_555
C4B C5B 1_555 1_555

#END
