
#######################################################################
#
#                 Cambridge Crystallographic Data Centre
#                                CCDC 
#
#######################################################################
#
# If this CIF has been generated from an entry in the Cambridge 
# Structural Database, then it will include bibliographic, chemical, 
# crystal, experimental, refinement or atomic coordinate data resulting 
# from the CCDC's data processing and validation procedures.
#
#######################################################################

data_CUCROJ
_symmetry_cell_setting           monoclinic
_symmetry_space_group_name_H-M   'P 21/c'
_symmetry_Int_Tables_number      14
_space_group_name_Hall           '-P 2ybc'
loop_
_symmetry_equiv_pos_site_id
_symmetry_equiv_pos_as_xyz
1 x,y,z
2 -x,1/2+y,1/2-z
3 -x,-y,-z
4 x,1/2-y,1/2+z
_cell_length_a                   15.9732(17)
_cell_length_b                   8.3335(9)
_cell_length_c                   29.297(3)
_cell_angle_alpha                90
_cell_angle_beta                 101.457(2)
_cell_angle_gamma                90
_cell_volume                     3822.09
loop_
_atom_site_label
_atom_site_type_symbol
_atom_site_fract_x
_atom_site_fract_y
_atom_site_fract_z
C1 C 0.20822(19) 0.1907(4) 0.32984(11)
C2 C 0.1204(2) 0.1254(5) 0.33040(13)
H1 H 0.1232 0.0106 0.333
H2 H 0.0821 0.1548 0.3021
H3 H 0.1002 0.1692 0.3565
C3 C 0.41821(19) 0.0382(3) 0.31062(10)
C4 C 0.4509(2) -0.1228(4) 0.29898(10)
H4 H 0.4053 -0.1997 0.2951
H5 H 0.4961 -0.1566 0.3238
H6 H 0.4722 -0.1149 0.2706
C5 C 0.29922(19) 0.5936(4) 0.35261(11)
C6 C 0.2650(2) 0.7537(4) 0.36440(12)
H7 H 0.2552 0.751 0.3957
H8 H 0.2123 0.7758 0.3432
H9 H 0.3058 0.8361 0.3618
C7 C 0.50940(19) 0.4446(3) 0.33309(10)
C8 C 0.59701(19) 0.5109(4) 0.33328(11)
H10 H 0.6371 0.4242 0.3352
H11 H 0.6136 0.5804 0.3597
H12 H 0.5962 0.5705 0.3052
C9 C 0.2614(2) 0.3540(4) 0.17707(10)
C10 C 0.3182(2) 0.5713(4) 0.15291(12)
H13 H 0.3332 0.6522 0.1342
C11 C 0.3436(2) 0.5578(4) 0.19995(11)
H14 H 0.3795 0.629 0.219
C12 C 0.2229(3) 0.4175(5) 0.09017(12)
H15 H 0.2495 0.3302 0.0771
H16 H 0.2267 0.5132 0.0725
H17 H 0.1639 0.3923 0.0892
C13 C 0.2190(2) 0.2009(4) 0.17938(10)
H18 H 0.2167 0.164 0.2091
C14 C 0.14882(18) -0.0531(4) 0.14669(10)
C15 C 0.1200(2) -0.2959(4) 0.16902(13)
H19 H 0.1176 -0.3879 0.1867
C16 C 0.0830(2) -0.2740(4) 0.12355(12)
H20 H 0.0502 -0.3499 0.1047
C17 C 0.2112(2) -0.1303(4) 0.23103(11)
H21 H 0.2649 -0.0814 0.2293
H22 H 0.2212 -0.2317 0.2467
H23 H 0.18 -0.0614 0.2479
C18 C 0.18294(19) 0.1067(4) 0.14401(10)
H24 H 0.1793 0.1487 0.1143
C19 C 0.44851(19) 0.2911(4) 0.48508(10)
C20 C 0.4074(2) 0.0568(4) 0.50837(11)
H25 H 0.3978 -0.0296 0.5268
C21 C 0.38403(19) 0.0681(4) 0.46099(10)
H26 H 0.355 -0.0104 0.4415
C22 C 0.4871(2) 0.2307(4) 0.57192(11)
H27 H 0.4553 0.313 0.5839
H28 H 0.5449 0.266 0.5737
H29 H 0.4869 0.1348 0.59
C23 C 0.48200(19) 0.4517(4) 0.48238(10)
H30 H 0.4781 0.4932 0.4526
C24 C 0.0468(2) -0.2723(4) -0.03165(11)
C25 C 0.0776(3) -0.4271(4) -0.04956(14)
H31 H 0.0503 -0.5162 -0.0377
H32 H 0.1383 -0.4356 -0.0394
H33 H 0.0635 -0.4278 -0.083
C26 C 0.13842(19) 0.1292(3) -0.01879(10)
C27 C 0.2196(2) 0.1924(4) -0.03118(11)
H34 H 0.247 0.1082 -0.0451
H35 H 0.2573 0.2295 -0.0035
H36 H 0.2062 0.2797 -0.0528
N1 N 0.30772(16) 0.4221(3) 0.21497(9)
N2 N 0.26628(19) 0.4429(3) 0.13854(9)
N3 N 0.10125(16) -0.1238(3) 0.10964(9)
N4 N 0.16148(17) -0.1554(3) 0.18379(9)
N5 N 0.41009(16) 0.2131(3) 0.44681(8)
N6 N 0.44771(16) 0.1978(3) 0.52331(8)
O1 O 0.22156(14) 0.2495(3) 0.29180(7)
O2 O 0.26208(13) 0.1825(3) 0.36777(7)
O3 O 0.38470(14) 0.1280(3) 0.27701(7)
O4 O 0.42558(14) 0.0712(2) 0.35368(7)
O5 O 0.29447(14) 0.5643(3) 0.30961(7)
O6 O 0.33045(14) 0.5019(2) 0.38622(7)
O7 O 0.45666(13) 0.4456(3) 0.29475(7)
O8 O 0.49531(13) 0.3905(3) 0.37152(7)
O9 O 0.07137(14) -0.2460(3) 0.01166(8)
O10 O 0.00011(14) -0.1816(3) -0.06067(7)
O11 O 0.14352(13) 0.0720(3) 0.02205(7)
O12 O 0.07187(13) 0.1362(3) -0.05024(7)
Rh1 Rh 0.338331(14) 0.34857(3) 0.290557(7)
Rh2 Rh 0.379056(14) 0.28426(3) 0.372177(7)
Rh3 Rh 0.037967(14) -0.03519(3) 0.038501(8)
C19B C 0.55149(19) 0.7089(4) 0.51492(10)
C20B C 0.5926(2) 0.9432(4) 0.49163(11)
H25B H 0.6022 1.0296 0.4732
C21B C 0.61597(19) 0.9319(4) 0.53901(10)
H26B H 0.645 1.0104 0.5585
C22B C 0.5129(2) 0.7693(4) 0.42808(11)
H27B H 0.5447 0.687 0.4161
H28B H 0.4551 0.734 0.4263
H29B H 0.5131 0.8652 0.41
C23B C 0.51800(19) 0.5483(4) 0.51762(10)
H30B H 0.5219 0.5068 0.5474
N5B N 0.58991(16) 0.7869(3) 0.55319(8)
N6B N 0.55229(16) 0.8022(3) 0.47669(8)
C1B C -0.20822(19) -0.1907(4) -0.32984(11)
C2B C -0.1204(2) -0.1254(5) -0.33040(13)
H1B H -0.1232 -0.0106 -0.333
H2B H -0.0821 -0.1548 -0.3021
H3B H -0.1002 -0.1692 -0.3565
C3B C -0.41821(19) -0.0382(3) -0.31062(10)
C4B C -0.4509(2) 0.1228(4) -0.29898(10)
H4B H -0.4053 0.1997 -0.2951
H5B H -0.4961 0.1566 -0.3238
H6B H -0.4722 0.1149 -0.2706
C5B C -0.29922(19) -0.5936(4) -0.35261(11)
C6B C -0.2650(2) -0.7537(4) -0.36440(12)
H7B H -0.2552 -0.751 -0.3957
H8B H -0.2123 -0.7758 -0.3432
H9B H -0.3058 -0.8361 -0.3618
C7B C -0.50940(19) -0.4446(3) -0.33309(10)
C8B C -0.59701(19) -0.5109(4) -0.33328(11)
H10B H -0.6371 -0.4242 -0.3352
H11B H -0.6136 -0.5804 -0.3597
H12B H -0.5962 -0.5705 -0.3052
C9B C -0.2614(2) -0.3540(4) -0.17707(10)
C10B C -0.3182(2) -0.5713(4) -0.15291(12)
H13B H -0.3332 -0.6522 -0.1342
C11B C -0.3436(2) -0.5578(4) -0.19995(11)
H14B H -0.3795 -0.629 -0.219
C12B C -0.2229(3) -0.4175(5) -0.09017(12)
H15B H -0.2495 -0.3302 -0.0771
H16B H -0.2267 -0.5132 -0.0725
H17B H -0.1639 -0.3923 -0.0892
C13B C -0.2190(2) -0.2009(4) -0.17938(10)
H18B H -0.2167 -0.164 -0.2091
C14B C -0.14882(18) 0.0531(4) -0.14669(10)
C15B C -0.1200(2) 0.2959(4) -0.16902(13)
H19B H -0.1176 0.3879 -0.1867
C16B C -0.0830(2) 0.2740(4) -0.12355(12)
H20B H -0.0502 0.3499 -0.1047
C17B C -0.2112(2) 0.1303(4) -0.23103(11)
H21B H -0.2649 0.0814 -0.2293
H22B H -0.2212 0.2317 -0.2467
H23B H -0.18 0.0614 -0.2479
C18B C -0.18294(19) -0.1067(4) -0.14401(10)
H24B H -0.1793 -0.1487 -0.1143
C24B C -0.0468(2) 0.2723(4) 0.03165(11)
C25B C -0.0776(3) 0.4271(4) 0.04956(14)
H31B H -0.0503 0.5162 0.0377
H32B H -0.1383 0.4356 0.0394
H33B H -0.0635 0.4278 0.083
C26B C -0.13842(19) -0.1292(3) 0.01879(10)
C27B C -0.2196(2) -0.1924(4) 0.03118(11)
H34B H -0.247 -0.1082 0.0451
H35B H -0.2573 -0.2295 0.0035
H36B H -0.2062 -0.2797 0.0528
N1B N -0.30772(16) -0.4221(3) -0.21497(9)
N2B N -0.26628(19) -0.4429(3) -0.13854(9)
N3B N -0.10125(16) 0.1238(3) -0.10964(9)
N4B N -0.16148(17) 0.1554(3) -0.18379(9)
O1B O -0.22156(14) -0.2495(3) -0.29180(7)
O2B O -0.26208(13) -0.1825(3) -0.36777(7)
O3B O -0.38470(14) -0.1280(3) -0.27701(7)
O4B O -0.42558(14) -0.0712(2) -0.35368(7)
O5B O -0.29447(14) -0.5643(3) -0.30961(7)
O6B O -0.33045(14) -0.5019(2) -0.38622(7)
O7B O -0.45666(13) -0.4456(3) -0.29475(7)
O8B O -0.49531(13) -0.3905(3) -0.37152(7)
O9B O -0.07137(14) 0.2460(3) -0.01166(8)
O10B O -0.00011(14) 0.1816(3) 0.06067(7)
O11B O -0.14352(13) -0.0720(3) -0.02205(7)
O12B O -0.07187(13) -0.1362(3) 0.05024(7)
Rh1B Rh -0.338331(14) -0.34857(3) -0.290557(7)
Rh2B Rh -0.379056(14) -0.28426(3) -0.372177(7)
Rh3B Rh -0.037967(14) 0.03519(3) -0.038501(8)
N5B_2 N -0.41009(16) -0.2131(3) -0.44681(8)
Rh2B_2 Rh 0.620944(14) 0.71574(3) 0.627823(7)
O13 O 0.63189(18) 0.2485(3) 0.43398(10)
C28 C 0.6928(3) 0.3584(6) 0.45650(17)
H37 H 0.688 0.4568 0.4391
H38 H 0.749 0.3145 0.4585
H39 H 0.6832 0.3792 0.4873
H40 H 0.585(3) 0.321(6) 0.4141(17)
O14 O 0.9880(2) 0.1047(5) 0.20829(15)
H41 H 0.9744 0.0664 0.1821
C29 C 0.9407(5) 0.2262(13) 0.2118(4)
H42 H 0.9758 0.3152 0.2246
H43 H 0.902 0.2001 0.232
H44 H 0.9087 0.2543 0.1816
O15? O 0.9394(6) 0.0391(13) 0.1594(4)
H45? H 0.9473 0.0186 0.1873
C30? C 0.9581(8) 0.2042(15) 0.1532(4)
H46? H 0.9057 0.2634 0.1449
H47? H 0.9902 0.2141 0.1289
H48? H 0.991 0.2463 0.1817
loop_
_geom_bond_atom_site_label_1
_geom_bond_atom_site_label_2
_geom_bond_site_symmetry_1
_geom_bond_site_symmetry_2
C1 C2 1_555 1_555
C2 H1 1_555 1_555
H2 C2 1_555 1_555
H3 C2 1_555 1_555
C3 C4 1_555 1_555
C4 H4 1_555 1_555
H5 C4 1_555 1_555
H6 C4 1_555 1_555
C5 C6 1_555 1_555
C6 H7 1_555 1_555
H8 C6 1_555 1_555
H9 C6 1_555 1_555
C7 C8 1_555 1_555
C8 H10 1_555 1_555
H11 C8 1_555 1_555
H12 C8 1_555 1_555
C9 C13 1_555 1_555
C10 H13 1_555 1_555
C11 C10 1_555 1_555
H14 C11 1_555 1_555
C12 H15 1_555 1_555
H16 C12 1_555 1_555
H17 C12 1_555 1_555
C13 H18 1_555 1_555
C14 C18 1_555 1_555
C15 H19 1_555 1_555
C16 C15 1_555 1_555
H20 C16 1_555 1_555
C17 H21 1_555 1_555
H22 C17 1_555 1_555
H23 C17 1_555 1_555
C18 C13 1_555 1_555
H24 C18 1_555 1_555
C19 C23 1_555 1_555
C20 H25 1_555 1_555
C21 C20 1_555 1_555
H26 C21 1_555 1_555
C22 H27 1_555 1_555
H28 C22 1_555 1_555
H29 C22 1_555 1_555
C23 H30 1_555 1_555
C24 C25 1_555 1_555
C25 H31 1_555 1_555
H32 C25 1_555 1_555
H33 C25 1_555 1_555
C26 C27 1_555 1_555
C27 H34 1_555 1_555
H35 C27 1_555 1_555
H36 C27 1_555 1_555
N1 C9 1_555 1_555
N2 C9 1_555 1_555
N3 C14 1_555 1_555
N4 C14 1_555 1_555
N5 C19 1_555 1_555
N6 C19 1_555 1_555
O1 C1 1_555 1_555
O2 C1 1_555 1_555
O3 C3 1_555 1_555
O4 C3 1_555 1_555
O5 C5 1_555 1_555
O6 C5 1_555 1_555
O7 C7 1_555 1_555
O8 C7 1_555 1_555
O9 C24 1_555 1_555
O10 C24 1_555 1_555
O11 C26 1_555 1_555
O12 C26 1_555 1_555
Rh1 N1 1_555 1_555
Rh2 N5 1_555 1_555
Rh3 N3 1_555 1_555
O13 C28 1_555 1_555
C28 H37 1_555 1_555
H38 C28 1_555 1_555
H39 C28 1_555 1_555
H40 O13 1_555 1_555
O14 H41 1_555 1_555
C29 O14 1_555 1_555
H42 C29 1_555 1_555
H43 C29 1_555 1_555
H44 C29 1_555 1_555
C19B C23B 1_555 1_555
C20B H25B 1_555 1_555
C21B C20B 1_555 1_555
H26B C21B 1_555 1_555
C22B H27B 1_555 1_555
H28B C22B 1_555 1_555
H29B C22B 1_555 1_555
C23B C23 1_555 1_555
H30B C23B 1_555 1_555
N5B C19B 1_555 1_555
N6B C19B 1_555 1_555
C1B C2B 1_555 1_555
C2B H1B 1_555 1_555
H2B C2B 1_555 1_555
H3B C2B 1_555 1_555
C3B C4B 1_555 1_555
C4B H4B 1_555 1_555
H5B C4B 1_555 1_555
H6B C4B 1_555 1_555
C5B C6B 1_555 1_555
C6B H7B 1_555 1_555
H8B C6B 1_555 1_555
H9B C6B 1_555 1_555
C7B C8B 1_555 1_555
C8B H10B 1_555 1_555
H11B C8B 1_555 1_555
H12B C8B 1_555 1_555
C9B C13B 1_555 1_555
C10B H13B 1_555 1_555
C11B C10B 1_555 1_555
H14B C11B 1_555 1_555
C12B H15B 1_555 1_555
H16B C12B 1_555 1_555
H17B C12B 1_555 1_555
C13B H18B 1_555 1_555
C14B C18B 1_555 1_555
C15B H19B 1_555 1_555
C16B C15B 1_555 1_555
H20B C16B 1_555 1_555
C17B H21B 1_555 1_555
H22B C17B 1_555 1_555
H23B C17B 1_555 1_555
C18B C13B 1_555 1_555
H24B C18B 1_555 1_555
C24B C25B 1_555 1_555
C25B H31B 1_555 1_555
H32B C25B 1_555 1_555
H33B C25B 1_555 1_555
C26B C27B 1_555 1_555
C27B H34B 1_555 1_555
H35B C27B 1_555 1_555
H36B C27B 1_555 1_555
N1B C9B 1_555 1_555
N2B C9B 1_555 1_555
N3B C14B 1_555 1_555
N4B C14B 1_555 1_555
O1B C1B 1_555 1_555
O2B C1B 1_555 1_555
O3B C3B 1_555 1_555
O4B C3B 1_555 1_555
O5B C5B 1_555 1_555
O6B C5B 1_555 1_555
O7B C7B 1_555 1_555
O8B C7B 1_555 1_555
O9B C24B 1_555 1_555
O10B Rh3 1_555 1_555
O11B C26B 1_555 1_555
O12B Rh3 1_555 1_555
Rh1B N1B 1_555 1_555
Rh2B O2B 1_555 1_555
Rh3B O10 1_555 1_555
N5B_2 Rh2B 1_555 1_555
Rh2B_2 N5B 1_555 1_555
C10 N2 1_555 1_555
C11 N1 1_555 1_555
C12 N2 1_555 1_555
C15 N4 1_555 1_555
C16 N3 1_555 1_555
C17 N4 1_555 1_555
C20 N6 1_555 1_555
C21 N5 1_555 1_555
C22 N6 1_555 1_555
O1 Rh1 1_555 1_555
O2 Rh2 1_555 1_555
O3 Rh1 1_555 1_555
O4 Rh2 1_555 1_555
O5 Rh1 1_555 1_555
O6 Rh2 1_555 1_555
O7 Rh1 1_555 1_555
O8 Rh2 1_555 1_555
O9 Rh3 1_555 1_555
O11 Rh3 1_555 1_555
O12 Rh3B 1_555 1_555
Rh1 Rh2 1_555 1_555
Rh3 Rh3B 1_555 1_555
C20B N6B 1_555 1_555
C21B N5B 1_555 1_555
C22B N6B 1_555 1_555
C10B N2B 1_555 1_555
C11B N1B 1_555 1_555
C12B N2B 1_555 1_555
C15B N4B 1_555 1_555
C16B N3B 1_555 1_555
C17B N4B 1_555 1_555
C24B O10B 1_555 1_555
C26B O12B 1_555 1_555
N3B Rh3B 1_555 1_555
O1B Rh1B 1_555 1_555
O3B Rh1B 1_555 1_555
O4B Rh2B 1_555 1_555
O5B Rh1B 1_555 1_555
O6B Rh2B 1_555 1_555
O7B Rh1B 1_555 1_555
O8B Rh2B 1_555 1_555
O9B Rh3B 1_555 1_555
O11B Rh3B 1_555 1_555
Rh1B Rh2B 1_555 1_555

#END
