
#######################################################################
#
#                 Cambridge Crystallographic Data Centre
#                                CCDC 
#
#######################################################################
#
# If this CIF has been generated from an entry in the Cambridge 
# Structural Database, then it will include bibliographic, chemical, 
# crystal, experimental, refinement or atomic coordinate data resulting 
# from the CCDC's data processing and validation procedures.
#
#######################################################################

data_CUCREZ
_symmetry_cell_setting           triclinic
_symmetry_space_group_name_H-M   'P -1'
_symmetry_Int_Tables_number      2
_space_group_name_Hall           '-P 1'
loop_
_symmetry_equiv_pos_site_id
_symmetry_equiv_pos_as_xyz
1 x,y,z
2 -x,-y,-z
_cell_length_a                   10.8939(13)
_cell_length_b                   12.2109(14)
_cell_length_c                   21.787(3)
_cell_angle_alpha                91.544(2)
_cell_angle_beta                 104.187(2)
_cell_angle_gamma                114.697(2)
_cell_volume                     2525.12
loop_
_atom_site_label
_atom_site_type_symbol
_atom_site_fract_x
_atom_site_fract_y
_atom_site_fract_z
C1 C 0.6076(6) 0.2178(5) -0.1296(2)
C2 C 0.4974(5) 0.2580(5) -0.1612(2)
C3 C 0.4034(6) 0.1940(5) -0.2199(3)
H1 H 0.4044 0.1234 -0.2364
C4 C 0.3088(6) 0.2326(6) -0.2540(3)
H2 H 0.2487 0.1897 -0.2938
C5 C 0.3033(6) 0.3334(6) -0.2297(3)
H3 H 0.2395 0.3595 -0.2531
C6 C 0.3920(7) 0.3977(6) -0.1703(3)
H4 H 0.3857 0.4650 -0.1530
C7 C 0.4904(5) 0.3602(5) -0.1371(2)
C8 C 0.5922(6) 0.3949(5) -0.0228(2)
C9 C 0.4816(6) 0.2922(5) -0.0135(3)
H5 H 0.4024 0.2474 -0.0477
C10 C 0.4895(6) 0.2568(5) 0.0466(3)
H6 H 0.4149 0.1887 0.0527
C11 C 0.6070(6) 0.3215(5) 0.0978(3)
C12 C 0.7194(5) 0.4228(5) 0.0874(3)
H7 H 0.7998 0.4651 0.1214
C13 C 0.7144(5) 0.4619(4) 0.0278(2)
C14 C 0.8375(6) 0.5753(5) 0.0225(3)
C15 C 0.6109(6) 0.2875(5) 0.1625(3)
C16 C 1.0070(7) 0.1768(6) -0.1582(4)
H8 H 1.0882 0.2502 -0.1469
C17 C 0.9772(7) 0.0871(6) -0.2054(4)
H9 H 1.0316 0.0877 -0.2324
C18 C 0.8096(6) 0.0344(5) -0.1591(3)
H10 H 0.7259 -0.0110 -0.1492
C19 C 0.7743(6) -0.1198(5) -0.2464(3)
C20 C 0.7567(7) -0.1255(5) -0.3115(3)
H11 H 0.7951 -0.0546 -0.3291
C21 C 0.6816(6) -0.2374(5) -0.3505(3)
H12 H 0.6667 -0.2422 -0.3945
C22 C 0.6296(6) -0.3404(5) -0.3235(3)
C23 C 0.6499(6) -0.3372(5) -0.2586(3)
H13 H 0.6143 -0.4091 -0.2414
C24 C 0.7238(6) -0.2259(5) -0.2187(3)
H14 H 0.7394 -0.2221 -0.1747
C25 C 0.5937(8) -0.5083(7) -0.4054(4)
H15 H 0.6815 -0.4757 -0.4130
C26 C 0.4850(7) -0.6147(7) -0.4325(4)
H16 H 0.4849 -0.6699 -0.4628
C27 C 0.4174(6) -0.5329(5) -0.3691(3)
H17 H 0.3624 -0.5181 -0.3465
C28 C 0.9008(6) 0.2266(5) 0.0687(3)
H18 H 0.9878 0.2946 0.0816
C29 C 0.7083(6) 0.0710(5) 0.0725(3)
H19 H 0.6386 0.0122 0.0869
C30 C 0.7078(6) 0.0831(5) 0.0109(3)
H20 H 0.6361 0.0330 -0.0247
C31 C 1.0078(6) 0.3361(5) 0.2713(3)
H21 H 1.0673 0.4160 0.2907
C32 C 0.9642(6) 0.3093(5) 0.2062(3)
H22 H 0.9927 0.3709 0.1814
C33 C 0.8787(5) 0.1919(5) 0.1775(3)
C34 C 0.8382(7) 0.0996(5) 0.2141(3)
H23 H 0.7834 0.0192 0.1946
C35 C 0.8795(6) 0.1279(5) 0.2793(3)
H24 H 0.8497 0.0664 0.3041
C36 C 0.9643(6) 0.2455(5) 0.3086(3)
C37 C 1.0524(6) 0.2174(5) 0.4202(3)
H25 H 1.0574 0.1450 0.4105
C38 C 1.0167(6) 0.3802(5) 0.4091(3)
H26 H 0.9923 0.4393 0.3914
C39 C 1.0675(6) 0.3786(5) 0.4714(3)
H27 H 1.0859 0.4376 0.5046
C40 C 1.2504(6) 0.0587(5) 0.5201(3)
C41 C 1.2804(5) -0.0506(5) 0.5278(3)
C42 C 1.2756(5) -0.1270(5) 0.4768(3)
C43 C 1.2962(6) -0.2301(5) 0.4880(3)
H28 H 1.2895 -0.2818 0.4539
C44 C 1.3267(6) -0.2561(5) 0.5494(3)
H29 H 1.3394 -0.3259 0.5565
C45 C 1.3386(5) -0.1792(5) 0.6009(3)
C46 C 1.3147(5) -0.0780(5) 0.5892(3)
H30 H 1.3219 -0.0267 0.6236
C47 C 1.3668(6) -0.2088(5) 0.6670(3)
C48 C 1.2173(6) -0.1785(5) 0.3640(3)
C49 C 1.3199(7) -0.1563(7) 0.3335(4)
H31 H 1.4083 -0.0909 0.3497
C50 C 1.2897(9) -0.2334(8) 0.2778(4)
H32 H 1.3579 -0.2186 0.2564
C51 C 0.9670(6) -0.3026(5) 0.3706(2)
C52 C 1.0838(6) -0.2765(5) 0.3403(2)
C53 C 1.0599(7) -0.3527(5) 0.2859(3)
H33 H 0.9735 -0.4206 0.2703
C54 C 1.1615(8) -0.3296(7) 0.2548(3)
H34 H 1.1422 -0.3804 0.2177
N1 N 0.9009(5) 0.1438(4) -0.1297(2)
N2 N 0.8500(5) -0.0047(4) -0.2050(2)
N3 N 0.5499(5) -0.4571(4) -0.3643(2)
N4 N 0.3741(5) -0.6313(4) -0.4097(2)
N5 N 0.8299(5) 0.1811(4) 0.0091(2)
N6 N 0.8326(5) 0.1631(4) 0.1094(2)
N7 N 1.0074(5) 0.2775(4) 0.3763(2)
N8 N 1.0882(5) 0.2736(4) 0.4783(2)
O1 O 0.7329(4) 0.3024(3) -0.10734(18)
O2 O 0.5741(4) 0.1076(4) -0.1294(2)
O3 O 0.5854(4) 0.4359(3) -0.08086(17)
O4 O 0.5327(5) 0.1827(4) 0.1700(2)
O5 O 0.6957(5) 0.3730(4) 0.2091(2)
O6 O 0.9560(4) 0.5938(4) 0.0598(2)
O7 O 0.8209(5) 0.6470(4) -0.0143(2)
O8 O 1.1933(4) 0.0792(3) 0.5623(2)
O9 O 1.2794(5) 0.1225(4) 0.4788(2)
O10 O 1.2467(4) -0.0951(3) 0.41683(18)
O11 O 1.3378(5) -0.3145(4) 0.6769(2)
O12 O 1.4223(5) -0.1158(4) 0.7124(2)
H35 H 1.4305 -0.1397 0.7474
O13 O 0.9485(4) -0.2106(4) 0.38638(18)
O14 O 0.8954(4) -0.4076(4) 0.3768(2)
Zn1 Zn 0.87964(6) 0.25275(6) -0.06730(3)
Zn2 Zn 1.17693(6) 0.23103(5) 0.56021(3)
H36 H 0.682(6) 0.363(5) 0.240(3)
N4_2 N 1.3741(5) 0.3687(4) 0.5903(2)
O6A O 1.0440(4) 0.4062(4) -0.0598(2)
O13A O 1.0515(4) 0.2106(4) 0.61362(18)
Zn1A Zn 1.12036(6) 0.74725(6) 0.06730(3)
Zn2_2 Zn 0.17693(6) -0.76897(5) -0.43979(3)
Zn2A Zn 0.82307(6) -0.23103(5) 0.43979(3)
O15 O 0.7996(7) 0.5417(5) 0.8579(3)
H37 H 0.866(8) 0.534(9) 0.885(4)
H38 H 0.748(9) 0.467(3) 0.843(5)
O16 O 0.1342(9) 0.1156(8) 0.0384(4)
H39 H 0.109(11) 0.082(9) -0.0008(18)
H40 H 0.053(5) 0.096(10) 0.043(5)
loop_
_geom_bond_atom_site_label_1
_geom_bond_atom_site_label_2
_geom_bond_site_symmetry_1
_geom_bond_site_symmetry_2
C1 C2 1_555 1_555
C2 C3 1_555 1_555
C3 H1 1_555 1_555
C4 C3 1_555 1_555
H2 C4 1_555 1_555
C5 C4 1_555 1_555
H3 C5 1_555 1_555
C6 C5 1_555 1_555
H4 C6 1_555 1_555
C7 C2 1_555 1_555
C8 C9 1_555 1_555
C9 H5 1_555 1_555
C10 C9 1_555 1_555
H6 C10 1_555 1_555
C11 C10 1_555 1_555
C12 C11 1_555 1_555
H7 C12 1_555 1_555
C13 C8 1_555 1_555
C14 C13 1_555 1_555
C15 C11 1_555 1_555
C16 H8 1_555 1_555
C17 C16 1_555 1_555
H9 C17 1_555 1_555
C18 H10 1_555 1_555
C19 C20 1_555 1_555
C20 H11 1_555 1_555
C21 C20 1_555 1_555
H12 C21 1_555 1_555
C22 C21 1_555 1_555
C23 C22 1_555 1_555
H13 C23 1_555 1_555
C24 C19 1_555 1_555
H14 C24 1_555 1_555
C25 H15 1_555 1_555
C26 C25 1_555 1_555
H16 C26 1_555 1_555
C27 H17 1_555 1_555
C28 H18 1_555 1_555
C29 H19 1_555 1_555
C30 C29 1_555 1_555
H20 C30 1_555 1_555
C31 H21 1_555 1_555
C32 C31 1_555 1_555
H22 C32 1_555 1_555
C33 C32 1_555 1_555
C34 C33 1_555 1_555
H23 C34 1_555 1_555
C35 C34 1_555 1_555
H24 C35 1_555 1_555
C36 C31 1_555 1_555
C37 H25 1_555 1_555
C38 H26 1_555 1_555
C39 C38 1_555 1_555
H27 C39 1_555 1_555
C40 C41 1_555 1_555
C41 C42 1_555 1_555
C42 C43 1_555 1_555
C43 H28 1_555 1_555
C44 C43 1_555 1_555
H29 C44 1_555 1_555
C45 C44 1_555 1_555
C46 C41 1_555 1_555
H30 C46 1_555 1_555
C47 C45 1_555 1_555
C48 C49 1_555 1_555
C49 H31 1_555 1_555
C50 C49 1_555 1_555
H32 C50 1_555 1_555
C51 C52 1_555 1_555
C52 C48 1_555 1_555
C53 C52 1_555 1_555
H33 C53 1_555 1_555
C54 C50 1_555 1_555
H34 C54 1_555 1_555
N1 C16 1_555 1_555
N2 C17 1_555 1_555
N3 C22 1_555 1_555
N4 C26 1_555 1_555
N5 C28 1_555 1_555
N6 C28 1_555 1_555
N7 C36 1_555 1_555
N8 C37 1_555 1_555
O1 C1 1_555 1_555
O2 C1 1_555 1_555
O3 C7 1_555 1_555
O4 C15 1_555 1_555
O5 C15 1_555 1_555
O6 C14 1_555 1_555
O7 C14 1_555 1_555
O8 C40 1_555 1_555
O9 C40 1_555 1_555
O10 C42 1_555 1_555
O11 C47 1_555 1_555
O12 C47 1_555 1_555
H35 O12 1_555 1_555
O13 C51 1_555 1_555
O14 C51 1_555 1_555
Zn1 N1 1_555 1_555
Zn2 N8 1_555 1_555
H36 O5 1_555 1_555
O15 H37 1_555 1_555
H38 O15 1_555 1_555
O16 H39 1_555 1_555
H40 O16 1_555 1_555
N4_2 Zn2 1_555 1_555
O6A Zn1 1_555 1_555
O13A Zn2 1_555 1_555
Zn1A O6 1_555 1_555
Zn2_2 N4 1_555 1_555
Zn2A O13 1_555 1_555
C6 C7 1_555 1_555
C8 O3 1_555 1_555
C12 C13 1_555 1_555
C18 N1 1_555 1_555
C18 N2 1_555 1_555
C19 N2 1_555 1_555
C23 C24 1_555 1_555
C25 N3 1_555 1_555
C27 N3 1_555 1_555
C27 N4 1_555 1_555
C29 N6 1_555 1_555
C30 N5 1_555 1_555
C33 N6 1_555 1_555
C35 C36 1_555 1_555
C37 N7 1_555 1_555
C38 N7 1_555 1_555
C39 N8 1_555 1_555
C45 C46 1_555 1_555
C48 O10 1_555 1_555
C53 C54 1_555 1_555
N5 Zn1 1_555 1_555
O1 Zn1 1_555 1_555
O8 Zn2 1_555 1_555

#END
