
#######################################################################
#
#                 Cambridge Crystallographic Data Centre
#                                CCDC 
#
#######################################################################
#
# If this CIF has been generated from an entry in the Cambridge 
# Structural Database, then it will include bibliographic, chemical, 
# crystal, experimental, refinement or atomic coordinate data resulting 
# from the CCDC's data processing and validation procedures.
#
#######################################################################

data_CUCRAV
_symmetry_cell_setting           triclinic
_symmetry_space_group_name_H-M   'P -1'
_symmetry_Int_Tables_number      2
_space_group_name_Hall           '-P 1'
loop_
_symmetry_equiv_pos_site_id
_symmetry_equiv_pos_as_xyz
1 x,y,z
2 -x,-y,-z
_cell_length_a                   8.4711(11)
_cell_length_b                   11.3122(14)
_cell_length_c                   13.0007(17)
_cell_angle_alpha                100.354(2)
_cell_angle_beta                 92.576(2)
_cell_angle_gamma                109.378(2)
_cell_volume                     1148.74
loop_
_atom_site_label
_atom_site_type_symbol
_atom_site_fract_x
_atom_site_fract_y
_atom_site_fract_z
C1 C -0.3352(7) 0.1409(4) 0.1468(4)
H1 H -0.3225 0.0916 0.0845
C2 C -0.2624(6) 0.2715(5) 0.1654(4)
H2 H -0.2028 0.3103 0.1149
C3 C -0.2769(6) 0.3475(4) 0.2600(4)
C4 C -0.1625(6) 0.5362(4) 0.1931(3)
C5 C -0.2901(6) 0.5514(5) 0.1312(4)
H3 H -0.4007 0.5238 0.1472
C6 C -0.2499(7) 0.6082(5) 0.0455(4)
H4 H -0.3345 0.6166 0.0024
C7 C -0.0851(6) 0.6524(4) 0.0237(4)
H5 H -0.0592 0.6888 -0.0349
C8 C 0.0403(6) 0.6427(4) 0.0882(4)
H6 H 0.1515 0.6770 0.0747
C9 C 0.0053(6) 0.5823(4) 0.1743(3)
C10 C 0.1446(6) 0.5638(4) 0.2377(3)
C11 C -0.3983(6) 0.3693(4) 0.4354(3)
C12 C -0.3706(6) 0.2913(4) 0.3353(3)
C13 C -0.4454(6) 0.1570(4) 0.3130(4)
H7 H -0.5087 0.1172 0.3618
C14 C -0.4274(6) 0.0818(4) 0.2200(4)
C15 C -0.5099(7) -0.0603(5) 0.1925(4)
C16 C -0.0158(6) 0.2921(5) 0.5191(4)
H8 H 0.0167 0.3737 0.5613
C17 C -0.1422(7) 0.1924(5) 0.5484(4)
H9 H -0.1939 0.2078 0.6085
C18 C -0.1885(7) 0.0725(6) 0.4875(5)
H10 H -0.2715 0.0054 0.5069
C19 C -0.1126(6) 0.0486(5) 0.3957(4)
C20 C 0.0127(6) 0.1551(4) 0.3720(4)
C21 C 0.0927(6) 0.1392(4) 0.2777(4)
C22 C 0.0447(7) 0.0189(5) 0.2089(4)
C23 C -0.0808(8) -0.0878(5) 0.2375(5)
H11 H -0.1103 -0.1685 0.1941
C24 C -0.1562(8) -0.0742(5) 0.3248(5)
H12 H -0.2383 -0.1450 0.3401
C25 C 0.1263(8) 0.0121(5) 0.1178(4)
H13 H 0.0996 -0.0659 0.0707
C26 C 0.2434(7) 0.1175(5) 0.0974(4)
H14 H 0.2948 0.1132 0.0358
C27 C 0.2860(6) 0.2332(5) 0.1707(4)
H15 H 0.3690 0.3049 0.1574
H16 H 0.434(9) 0.592(7) 0.311(5)
N1 N 0.2130(5) 0.2451(4) 0.2584(3)
N2 N 0.0595(5) 0.2746(4) 0.4334(3)
O1 O 0.1082(4) 0.4714(3) 0.2828(3)
O2 O -0.5465(4) 0.3396(3) 0.4612(2)
O3 O 0.4743(4) 0.5338(3) 0.3319(3)
H17 H 0.5363 0.5819 0.3837
O4 O 0.2910(4) 0.6414(3) 0.2394(3)
O5 O -0.2084(4) 0.4789(3) 0.2794(2)
O6 O -0.5854(6) -0.1087(3) 0.2702(3)
H18 H -0.6393 -0.1850 0.2490
O7 O -0.5062(6) -0.1243(4) 0.1093(3)
Zn1 Zn 0.25774(7) 0.41236(5) 0.38011(4)
O8 O -0.2711(4) 0.4566(3) 0.4864(2)
O2_2 O 0.4535(4) 0.3396(3) 0.4612(2)
Zn1_2 Zn -0.74226(7) 0.41236(5) 0.38011(4)
Zn1A Zn -0.25774(7) 0.58764(5) 0.61989(4)
O8A O 0.2711(4) 0.5434(3) 0.5136(2)
loop_
_geom_bond_atom_site_label_1
_geom_bond_atom_site_label_2
_geom_bond_site_symmetry_1
_geom_bond_site_symmetry_2
C1 H1 1_555 1_555
C2 C1 1_555 1_555
H2 C2 1_555 1_555
C3 C2 1_555 1_555
C4 C5 1_555 1_555
C5 H3 1_555 1_555
C6 C5 1_555 1_555
H4 C6 1_555 1_555
C7 C6 1_555 1_555
H5 C7 1_555 1_555
C8 C7 1_555 1_555
H6 C8 1_555 1_555
C9 C4 1_555 1_555
C10 C9 1_555 1_555
C11 C12 1_555 1_555
C12 C3 1_555 1_555
C13 C12 1_555 1_555
H7 C13 1_555 1_555
C14 C1 1_555 1_555
C15 C14 1_555 1_555
C16 H8 1_555 1_555
C17 C16 1_555 1_555
H9 C17 1_555 1_555
C18 C17 1_555 1_555
H10 C18 1_555 1_555
C19 C18 1_555 1_555
C20 C19 1_555 1_555
C21 C20 1_555 1_555
C22 C21 1_555 1_555
C23 C22 1_555 1_555
H11 C23 1_555 1_555
C24 C19 1_555 1_555
H12 C24 1_555 1_555
C25 C22 1_555 1_555
H13 C25 1_555 1_555
C26 C25 1_555 1_555
H14 C26 1_555 1_555
C27 C26 1_555 1_555
H15 C27 1_555 1_555
H16 O3 1_555 1_555
N1 C21 1_555 1_555
N2 C16 1_555 1_555
O1 C10 1_555 1_555
O2 C11 1_555 1_555
O3 H17 1_555 1_555
O4 C10 1_555 1_555
O5 C3 1_555 1_555
O6 C15 1_555 1_555
H18 O6 1_555 1_555
O7 C15 1_555 1_555
Zn1 N1 1_555 1_555
O8 C11 1_555 1_555
O2_2 Zn1 1_555 1_555
Zn1_2 O2 1_555 1_555
Zn1A O8 1_555 1_555
O8A Zn1 1_555 1_555
C4 O5 1_555 1_555
C8 C9 1_555 1_555
C13 C14 1_555 1_555
C20 N2 1_555 1_555
C23 C24 1_555 1_555
C27 N1 1_555 1_555
N2 Zn1 1_555 1_555
O1 Zn1 1_555 1_555
O3 Zn1 1_555 1_555

#END
