
#######################################################################
#
#                 Cambridge Crystallographic Data Centre
#                                CCDC 
#
#######################################################################
#
# If this CIF has been generated from an entry in the Cambridge 
# Structural Database, then it will include bibliographic, chemical, 
# crystal, experimental, refinement or atomic coordinate data resulting 
# from the CCDC's data processing and validation procedures.
#
#######################################################################

data_CUCSAW
_symmetry_cell_setting           monoclinic
_symmetry_space_group_name_H-M   'P 21/c'
_symmetry_Int_Tables_number      14
_space_group_name_Hall           '-P 2ybc'
loop_
_symmetry_equiv_pos_site_id
_symmetry_equiv_pos_as_xyz
1 x,y,z
2 -x,1/2+y,1/2-z
3 -x,-y,-z
4 x,1/2-y,1/2+z
_cell_length_a                   9.89560(10)
_cell_length_b                   13.82960(10)
_cell_length_c                   8.62180(10)
_cell_angle_alpha                90
_cell_angle_beta                 107.01
_cell_angle_gamma                90
_cell_volume                     1128.3
loop_
_atom_site_label
_atom_site_type_symbol
_atom_site_fract_x
_atom_site_fract_y
_atom_site_fract_z
Mo1 Mo 0.410438(10) 0.977228(7) 0.532971(13)
O1 O 0.51801(10) 0.99137(7) 0.78204(12)
O2 O 0.33478(9) 1.11971(7) 0.53805(12)
C1 C 0.64602(14) 1.01914(9) 0.82019(17)
C2 C 0.72491(15) 1.03372(10) 0.99592(17)
H1 H 0.6685 1.0108 1.0619
H2 H 0.7445 1.1013 1.0164
H3 H 0.8122 0.9984 1.0219
O3 O 0.70920(10) 1.03629(7) 0.71392(12)
O4 O 0.52238(10) 1.16869(7) 0.46660(12)
C3 C 0.40964(13) 1.18636(10) 0.50265(16)
C4 C 0.36446(16) 1.28963(10) 0.5036(2)
H4 H 0.4275 1.3226 0.5942
H5 H 0.2701 1.2921 0.5125
H6 H 0.3669 1.3204 0.4047
N1 N 0.20491(11) 0.87084(8) 0.59922(13)
C5 C 0.08312(13) 0.89213(9) 0.62844(15)
N2 N 0.05070(11) 0.82303(8) 0.72570(13)
C6 C -0.00742(14) 0.97352(9) 0.56201(16)
H7 H -0.0789 0.9897 0.6074
C7 C 0.24919(14) 0.78535(9) 0.67895(16)
H8 H 0.3316 0.7528 0.6794
C8 C 0.15600(13) 0.75480(9) 0.75715(16)
H9 H 0.1623 0.6991 0.8192
C9 C -0.06343(14) 0.82376(11) 0.80087(17)
H10 H -0.094 0.7587 0.81
H11 H -0.1412 0.8609 0.7352
H12 H -0.0303 0.8522 0.9069
N1B N -0.20491(11) 1.12916(8) 0.40078(13)
C5B C -0.08312(13) 1.10787(9) 0.37156(15)
N2B N -0.05070(11) 1.17697(8) 0.27430(13)
C6B C 0.00742(14) 1.02648(9) 0.43799(16)
H7B H 0.0789 1.0103 0.3926
C7B C -0.24919(14) 1.21465(9) 0.32105(16)
H8B H -0.3316 1.2472 0.3206
C8B C -0.15600(13) 1.24520(9) 0.24285(16)
H9B H -0.1623 1.3009 0.1808
C9B C 0.06343(14) 1.17624(11) 0.19913(17)
H10B H 0.094 1.2413 0.19
H11B H 0.1412 1.1391 0.2648
H12B H 0.0303 1.1478 0.0931
Mo1B Mo -0.410438(10) 1.022772(7) 0.467029(13)
O1B O -0.51801(10) 1.00863(7) 0.21796(12)
O2B O -0.33478(9) 0.88029(7) 0.46195(12)
C1B C -0.64602(14) 0.98086(9) 0.17981(17)
C2B C -0.72491(15) 0.96628(10) 0.00408(17)
H1B H -0.6685 0.9892 -0.0619
H2B H -0.7445 0.8987 -0.0164
H3B H -0.8122 1.0016 -0.0219
O3B O -0.70920(10) 0.96371(7) 0.28608(12)
O4B O -0.52238(10) 0.83131(7) 0.53340(12)
C3B C -0.40964(13) 0.81364(10) 0.49735(16)
C4B C -0.36446(16) 0.71037(10) 0.4964(2)
H4B H -0.4275 0.6774 0.4058
H5B H -0.2701 0.7079 0.4875
H6B H -0.3669 0.6796 0.5953
Mo1_2 Mo -0.589562(10) 0.977228(7) 0.532971(13)
Mo1B_2 Mo 0.589562(10) 1.022772(7) 0.467029(13)
O3_2 O -0.29080(10) 1.03629(7) 0.71392(12)
O3B_2 O 0.29080(10) 0.96371(7) 0.28608(12)
O4_2 O -0.47762(10) 1.16869(7) 0.46660(12)
O4B_2 O 0.47762(10) 0.83131(7) 0.53340(12)
loop_
_geom_bond_atom_site_label_1
_geom_bond_atom_site_label_2
_geom_bond_site_symmetry_1
_geom_bond_site_symmetry_2
Mo1 O1 1_555 1_555
O1 C1 1_555 1_555
O2 Mo1 1_555 1_555
C1 C2 1_555 1_555
C2 H1 1_555 1_555
H2 C2 1_555 1_555
H3 C2 1_555 1_555
O3 C1 1_555 1_555
O4 C3 1_555 1_555
C3 O2 1_555 1_555
C4 C3 1_555 1_555
H4 C4 1_555 1_555
H5 C4 1_555 1_555
H6 C4 1_555 1_555
N1 Mo1 1_555 1_555
C5 N1 1_555 1_555
N2 C5 1_555 1_555
C6 C5 1_555 1_555
H7 C6 1_555 1_555
C7 N1 1_555 1_555
H8 C7 1_555 1_555
C8 N2 1_555 1_555
H9 C8 1_555 1_555
C9 N2 1_555 1_555
H10 C9 1_555 1_555
H11 C9 1_555 1_555
H12 C9 1_555 1_555
N1B C5B 1_555 1_555
C5B N2B 1_555 1_555
N2B C8B 1_555 1_555
C6B C6 1_555 1_555
H7B C6B 1_555 1_555
C7B N1B 1_555 1_555
H8B C7B 1_555 1_555
C8B C7B 1_555 1_555
H9B C8B 1_555 1_555
C9B N2B 1_555 1_555
H10B C9B 1_555 1_555
H11B C9B 1_555 1_555
H12B C9B 1_555 1_555
Mo1B N1B 1_555 1_555
O1B Mo1B 1_555 1_555
O2B Mo1B 1_555 1_555
C1B O1B 1_555 1_555
C2B C1B 1_555 1_555
H1B C2B 1_555 1_555
H2B C2B 1_555 1_555
H3B C2B 1_555 1_555
O3B C1B 1_555 1_555
O4B C3B 1_555 1_555
C3B O2B 1_555 1_555
C4B C3B 1_555 1_555
H4B C4B 1_555 1_555
H5B C4B 1_555 1_555
H6B C4B 1_555 1_555
Mo1_2 Mo1B 1_555 1_555
Mo1B_2 Mo1 1_555 1_555
O3_2 Mo1B 1_555 1_555
O3B_2 Mo1 1_555 1_555
O4_2 Mo1B 1_555 1_555
O4B_2 Mo1 1_555 1_555
O3 Mo1B_2 1_555 1_555
O4 Mo1B_2 1_555 1_555
C7 C8 1_555 1_555
C5B C6B 1_555 1_555
O3B Mo1_2 1_555 1_555
O4B Mo1_2 1_555 1_555

#END
