
#######################################################################
#
#                 Cambridge Crystallographic Data Centre
#                                CCDC 
#
#######################################################################
#
# If this CIF has been generated from an entry in the Cambridge 
# Structural Database, then it will include bibliographic, chemical, 
# crystal, experimental, refinement or atomic coordinate data resulting 
# from the CCDC's data processing and validation procedures.
#
#######################################################################

data_CUCSIE
_symmetry_cell_setting           triclinic
_symmetry_space_group_name_H-M   'P -1'
_symmetry_Int_Tables_number      2
_space_group_name_Hall           '-P 1'
loop_
_symmetry_equiv_pos_site_id
_symmetry_equiv_pos_as_xyz
1 x,y,z
2 -x,-y,-z
_cell_length_a                   8.5151(17)
_cell_length_b                   9.4623(19)
_cell_length_c                   10.267(2)
_cell_angle_alpha                68.04(3)
_cell_angle_beta                 68.92(3)
_cell_angle_gamma                70.41(3)
_cell_volume                     696.339
loop_
_atom_site_label
_atom_site_type_symbol
_atom_site_fract_x
_atom_site_fract_y
_atom_site_fract_z
C1 C 0.55059(19) 0.42227(17) -0.27717(17)
C2 C 0.5214(2) 0.3136(2) -0.33768(19)
H1 H 0.494 0.2222 -0.2602
H2 H 0.6244 0.283 -0.4096
H3 H 0.4272 0.3662 -0.3818
C3 C 0.9139(2) 0.4270(2) -0.13799(18)
C4 C 1.0775(3) 0.3145(3) -0.1055(3)
H4 H 1.1366 0.3647 -0.0779
H5 H 1.151 0.283 -0.1907
H6 H 1.0496 0.224 -0.027
C5 C 0.5264(2) 0.84398(18) -0.14030(17)
C6 C 0.3579(2) 0.9202(2) -0.0541(2)
H7 H 0.3782 0.9848 -0.0114
H8 H 0.3029 0.8411 0.0216
H9 H 0.2843 0.9838 -0.1172
C7 C 0.74429(19) 0.96610(18) -0.55457(16)
C8 C 0.9916(2) 0.7966(2) -0.56586(18)
H10 H 1.074 0.7025 -0.5511
C9 C 1.0254(2) 0.9371(2) -0.65233(18)
H11 H 1.1335 0.9575 -0.7066
C10 C 0.8441(2) 1.21167(19) -0.71987(19)
H12 H 0.793 1.2359 -0.7974
H13 H 0.954 1.2396 -0.7595
H14 H 0.7691 1.2697 -0.6523
C11 C 0.56187(19) 1.03947(18) -0.52537(16)
H15 H 0.5287 1.1476 -0.5429
N1 N 0.81594(16) 0.81458(15) -0.50306(14)
N2 N 0.86900(17) 1.04368(15) -0.64422(14)
O1 O 0.64487(15) 0.51597(13) -0.36666(12)
O2 O 0.48043(15) 0.41372(13) -0.14604(12)
O3 O 0.93413(15) 0.53320(14) -0.25837(13)
O4 O 0.77263(14) 0.40916(14) -0.04952(13)
O5 O 0.52630(14) 0.71718(12) -0.16487(11)
O6 O 0.65374(17) 0.89862(16) -0.19253(15)
Zn1 Zn 0.500 0.500 0.000
Zn2 Zn 0.72645(2) 0.657059(19) -0.319557(18)
C7A C 0.25571(19) 1.03390(18) -0.44543(16)
C8A C 0.0084(2) 1.2034(2) -0.43414(18)
H10A H -0.074 1.2975 -0.4489
C9A C -0.0254(2) 1.0629(2) -0.34767(18)
H11A H -0.1335 1.0425 -0.2934
C10A C 0.1559(2) 0.78833(19) -0.28013(19)
H12A H 0.207 0.7641 -0.2026
H13A H 0.046 0.7604 -0.2405
H14A H 0.2309 0.7303 -0.3477
C11A C 0.43813(19) 0.96053(18) -0.47463(16)
H15A H 0.4713 0.8524 -0.4571
N1A N 0.18406(16) 1.18542(15) -0.49694(14)
N2A N 0.13100(17) 0.95632(15) -0.35578(14)
C1A C 0.44941(19) 0.57773(17) 0.27717(17)
C2A C 0.4786(2) 0.6864(2) 0.33768(19)
H1A H 0.506 0.7778 0.2602
H2A H 0.3756 0.717 0.4096
H3A H 0.5728 0.6338 0.3818
C3A C 0.0861(2) 0.5730(2) 0.13799(18)
C4A C -0.0775(3) 0.6855(3) 0.1055(3)
H4A H -0.1366 0.6353 0.0779
H5A H -0.151 0.717 0.1907
H6A H -0.0496 0.776 0.027
C5A C 0.4736(2) 0.15602(18) 0.14030(17)
C6A C 0.6421(2) 0.0798(2) 0.0541(2)
H7A H 0.6218 0.0152 0.0114
H8A H 0.6971 0.1589 -0.0216
H9A H 0.7157 0.0162 0.1172
O1A O 0.35513(15) 0.48403(13) 0.36666(12)
O2A O 0.51957(15) 0.58628(13) 0.14604(12)
O3A O 0.06587(15) 0.46680(14) 0.25837(13)
O4A O 0.22737(14) 0.59084(14) 0.04952(13)
O5A O 0.47370(14) 0.28282(12) 0.16487(11)
O6A O 0.34626(17) 0.10138(16) 0.19253(15)
Zn2A Zn 0.27355(2) 0.342941(19) 0.319557(18)
N1A_2 N 0.18406(16) 0.18542(15) 0.50306(14)
Zn2A_2 Zn 0.27355(2) 1.342941(19) -0.680443(18)
loop_
_geom_bond_atom_site_label_1
_geom_bond_atom_site_label_2
_geom_bond_site_symmetry_1
_geom_bond_site_symmetry_2
C1 C2 1_555 1_555
C2 H1 1_555 1_555
H2 C2 1_555 1_555
H3 C2 1_555 1_555
C3 C4 1_555 1_555
C4 H4 1_555 1_555
H5 C4 1_555 1_555
H6 C4 1_555 1_555
C5 C6 1_555 1_555
C6 H7 1_555 1_555
H8 C6 1_555 1_555
H9 C6 1_555 1_555
C7 C11 1_555 1_555
C8 H10 1_555 1_555
C9 C8 1_555 1_555
H11 C9 1_555 1_555
C10 H12 1_555 1_555
H13 C10 1_555 1_555
H14 C10 1_555 1_555
C11 H15 1_555 1_555
N1 C7 1_555 1_555
N2 C7 1_555 1_555
O1 C1 1_555 1_555
O2 C1 1_555 1_555
O3 C3 1_555 1_555
O4 C3 1_555 1_555
O5 C5 1_555 1_555
O6 C5 1_555 1_555
Zn1 O2 1_555 1_555
Zn2 N1 1_555 1_555
C7A C11A 1_555 1_555
C8A H10A 1_555 1_555
C9A C8A 1_555 1_555
H11A C9A 1_555 1_555
C10A H12A 1_555 1_555
H13A C10A 1_555 1_555
H14A C10A 1_555 1_555
C11A C11 1_555 1_555
H15A C11A 1_555 1_555
N1A C7A 1_555 1_555
N2A C7A 1_555 1_555
C1A C2A 1_555 1_555
C2A H1A 1_555 1_555
H2A C2A 1_555 1_555
H3A C2A 1_555 1_555
C3A C4A 1_555 1_555
C4A H4A 1_555 1_555
H5A C4A 1_555 1_555
H6A C4A 1_555 1_555
C5A C6A 1_555 1_555
C6A H7A 1_555 1_555
H8A C6A 1_555 1_555
H9A C6A 1_555 1_555
O1A C1A 1_555 1_555
O2A Zn1 1_555 1_555
O3A C3A 1_555 1_555
O4A Zn1 1_555 1_555
O5A Zn1 1_555 1_555
O6A C5A 1_555 1_555
Zn2A O1A 1_555 1_555
N1A_2 Zn2A 1_555 1_555
Zn2A_2 N1A 1_555 1_555
C8 N1 1_555 1_555
C9 N2 1_555 1_555
C10 N2 1_555 1_555
O1 Zn2 1_555 1_555
O3 Zn2 1_555 1_555
O4 Zn1 1_555 1_555
O5 Zn1 1_555 1_555
O5 Zn2 1_555 1_555
C8A N1A 1_555 1_555
C9A N2A 1_555 1_555
C10A N2A 1_555 1_555
C1A O2A 1_555 1_555
C3A O4A 1_555 1_555
C5A O5A 1_555 1_555
O3A Zn2A 1_555 1_555
O5A Zn2A 1_555 1_555

#END
