
#######################################################################
#
#                 Cambridge Crystallographic Data Centre
#                                CCDC 
#
#######################################################################
#
# If this CIF has been generated from an entry in the Cambridge 
# Structural Database, then it will include bibliographic, chemical, 
# crystal, experimental, refinement or atomic coordinate data resulting 
# from the CCDC's data processing and validation procedures.
#
#######################################################################

data_CUCTEB
_symmetry_cell_setting           monoclinic
_symmetry_space_group_name_H-M   'C 2/c'
_symmetry_Int_Tables_number      15
_space_group_name_Hall           '-C 2yn'
loop_
_symmetry_equiv_pos_site_id
_symmetry_equiv_pos_as_xyz
1 x,y,z
2 -x,y,1/2-z
3 1/2+x,1/2+y,z
4 1/2-x,1/2+y,1/2-z
5 -x,-y,-z
6 x,-y,1/2+z
7 1/2-x,1/2-y,-z
8 1/2+x,1/2-y,1/2+z
_cell_length_a                   18.740(4)
_cell_length_b                   12.600(2)
_cell_length_c                   15.198(3)
_cell_angle_alpha                90
_cell_angle_beta                 105.597(4)
_cell_angle_gamma                90
_cell_volume                     3456.47
loop_
_atom_site_label
_atom_site_type_symbol
_atom_site_fract_x
_atom_site_fract_y
_atom_site_fract_z
C1 C 0.85977(19) 0.5993(3) 0.1552(3)
C2 C 0.6817(2) 0.5008(3) 0.0628(2)
C3 C 0.6330(2) 0.4342(3) 0.1030(3)
C4 C 0.5695(2) 0.3806(3) 0.0494(3)
H1 H 0.5547 0.3898 -0.0136
C5 C 0.5300(2) 0.3150(3) 0.0914(3)
H2 H 0.4885 0.2806 0.0552
C6 C 0.6072(2) 0.3525(4) 0.2329(3)
H3 H 0.6200 0.3438 0.2960
C7 C 0.6488(2) 0.4193(4) 0.1962(3)
H4 H 0.6883 0.4555 0.2346
C8 C 0.6550(2) 0.5440(3) -0.0338(3)
H5 H 0.6613 0.6197 -0.0328
H6 H 0.6035 0.5271 -0.0585
H7 H 0.6832 0.5126 -0.0712
N1 N 0.54834(19) 0.2982(3) 0.1818(2)
N2 N 0.74474(17) 0.5176(2) 0.1164(2)
N3 N 0.79494(18) 0.5778(3) 0.0901(2)
N4 N 0.86935(18) 0.5492(3) 0.2352(3)
N5 N 0.9383(2) 0.5587(3) 0.3001(3)
O1 O 0.90549(15) 0.6628(2) 0.1382(2)
Zn1 Zn 1.0000 0.68289(4) 0.2500
C1A C 1.14023(19) 0.5993(3) 0.3448(3)
C2A C 1.3183(2) 0.5008(3) 0.4372(2)
C3A C 1.3670(2) 0.4342(3) 0.3970(3)
C4A C 1.4305(2) 0.3806(3) 0.4506(3)
H1A H 1.4453 0.3898 0.5136
C5A C 1.4700(2) 0.3150(3) 0.4086(3)
H2A H 1.5115 0.2806 0.4448
C6A C 1.3928(2) 0.3525(4) 0.2671(3)
H3A H 1.3800 0.3438 0.2040
C7A C 1.3512(2) 0.4193(4) 0.3038(3)
H4A H 1.3117 0.4555 0.2654
C8A C 1.3450(2) 0.5440(3) 0.5338(3)
H5A H 1.3387 0.6197 0.5328
H6A H 1.3965 0.5271 0.5585
H7A H 1.3168 0.5126 0.5712
N1A N 1.45166(19) 0.2982(3) 0.3182(2)
N2A N 1.25526(17) 0.5176(2) 0.3836(2)
N3A N 1.20506(18) 0.5778(3) 0.4099(2)
N4A N 1.13065(18) 0.5492(3) 0.2648(3)
N5A N 1.0617(2) 0.5587(3) 0.1999(3)
O1A O 1.09451(15) 0.6628(2) 0.3618(2)
N1B N 1.04834(19) 0.7982(3) 0.1818(2)
N1C N 0.95166(19) 0.7982(3) 0.3182(2)
Zn1B Zn 0.5000 0.18289(4) 0.2500
Zn1B_2 Zn 1.5000 0.18289(4) 0.2500
Cl1 Cl 0.84214(10) 0.30451(13) 0.37672(11)
O2 O 0.8228(4) 0.3453(5) 0.2906(4)
O3 O 0.8940(5) 0.3925(8) 0.4304(5)
O4 O 0.8928(3) 0.2228(5) 0.3937(4)
O5 O 0.7874(2) 0.2885(3) 0.4244(3)
loop_
_geom_bond_atom_site_label_1
_geom_bond_atom_site_label_2
_geom_bond_site_symmetry_1
_geom_bond_site_symmetry_2
C1 N3 1_555 1_555
C2 C3 1_555 1_555
C3 C4 1_555 1_555
C4 H1 1_555 1_555
C5 C4 1_555 1_555
H2 C5 1_555 1_555
C6 H3 1_555 1_555
C7 C3 1_555 1_555
H4 C7 1_555 1_555
C8 C2 1_555 1_555
H5 C8 1_555 1_555
H6 C8 1_555 1_555
H7 C8 1_555 1_555
N1 C5 1_555 1_555
N2 C2 1_555 1_555
N3 N2 1_555 1_555
N4 C1 1_555 1_555
N5 N4 1_555 1_555
O1 C1 1_555 1_555
Zn1 N5 1_555 1_555
Cl1 O2 1_555 1_555
O3 Cl1 1_555 1_555
O4 Cl1 1_555 1_555
O5 Cl1 1_555 1_555
C1A N3A 1_555 1_555
C2A C3A 1_555 1_555
C3A C4A 1_555 1_555
C4A H1A 1_555 1_555
C5A C4A 1_555 1_555
H2A C5A 1_555 1_555
C6A H3A 1_555 1_555
C7A C3A 1_555 1_555
H4A C7A 1_555 1_555
C8A C2A 1_555 1_555
H5A C8A 1_555 1_555
H6A C8A 1_555 1_555
H7A C8A 1_555 1_555
N1A C5A 1_555 1_555
N2A C2A 1_555 1_555
N3A N2A 1_555 1_555
N4A C1A 1_555 1_555
N5A Zn1 1_555 1_555
O1A Zn1 1_555 1_555
N1B Zn1 1_555 1_555
N1C Zn1 1_555 1_555
Zn1B N1 1_555 1_555
Zn1B_2 N1A 1_555 1_555
C6 C7 1_555 1_555
C6 N1 1_555 1_555
O1 Zn1 1_555 1_555
C1A O1A 1_555 1_555
C6A C7A 1_555 1_555
C6A N1A 1_555 1_555
N4A N5A 1_555 1_555

#END
