
#######################################################################
#
#                 Cambridge Crystallographic Data Centre
#                                CCDC 
#
#######################################################################
#
# If this CIF has been generated from an entry in the Cambridge 
# Structural Database, then it will include bibliographic, chemical, 
# crystal, experimental, refinement or atomic coordinate data resulting 
# from the CCDC's data processing and validation procedures.
#
#######################################################################

data_CUCTAZ
_symmetry_cell_setting           monoclinic
_symmetry_space_group_name_H-M   'I 2/a'
_symmetry_Int_Tables_number      15
_space_group_name_Hall           '-I 2ya'
loop_
_symmetry_equiv_pos_site_id
_symmetry_equiv_pos_as_xyz
1 x,y,z
2 1/2+x,1/2+y,1/2+z
3 -x,1/2+y,1/2-z
4 1/2-x,y,-z
5 -x,-y,-z
6 1/2-x,1/2-y,1/2-z
7 x,1/2-y,1/2+z
8 1/2+x,-y,z
_cell_length_a                   6.810
_cell_length_b                   11.390
_cell_length_c                   7.130
_cell_angle_alpha                90
_cell_angle_beta                 96.97
_cell_angle_gamma                90
_cell_volume                     548.958
loop_
_atom_site_label
_atom_site_type_symbol
_atom_site_fract_x
_atom_site_fract_y
_atom_site_fract_z
Cl1 Cl 0.23300 -0.07200 0.24000
Cu1 Cu 0.00000 0.00000 0.00000
C1 C 0.09800 0.25900 0.00700
N1 N 0.14900 0.15000 0.00400
N2 N 0.25000 0.328 0.00000
C1C C 0.40200 0.25900 -0.00700
N1C N 0.35100 0.15000 -0.00400
Cl1C Cl 0.26700 -0.07200 -0.24000
Cl1D Cl -0.23300 0.07200 -0.24000
Cl1G Cl -0.26700 0.07200 0.24000
Cu1C Cu 0.50000 0.00000 0.00000
N1D N -0.14900 -0.15000 -0.00400
loop_
_geom_bond_atom_site_label_1
_geom_bond_atom_site_label_2
_geom_bond_site_symmetry_1
_geom_bond_site_symmetry_2
Cl1 Cu1 1_555 1_555
Cu1 N1 1_555 1_555
C1 N1 1_555 1_555
N1 N1C 1_555 1_555
N2 C1 1_555 1_555
C1C N2 1_555 1_555
N1C C1C 1_555 1_555
Cl1C Cu1 1_555 1_555
Cl1D Cu1 1_555 1_555
Cl1G Cu1 1_555 1_555
Cu1C Cl1 1_555 1_555
N1D Cu1 1_555 1_555
N1C Cu1C 1_555 1_555
Cl1C Cu1C 1_555 1_555

#END
