
#######################################################################
#
#                 Cambridge Crystallographic Data Centre
#                                CCDC 
#
#######################################################################
#
# If this CIF has been generated from an entry in the Cambridge 
# Structural Database, then it will include bibliographic, chemical, 
# crystal, experimental, refinement or atomic coordinate data resulting 
# from the CCDC's data processing and validation procedures.
#
#######################################################################

data_CUDECN02
_symmetry_cell_setting           triclinic
_symmetry_space_group_name_H-M   'P -1'
_symmetry_Int_Tables_number      2
_space_group_name_Hall           '-P 1'
loop_
_symmetry_equiv_pos_site_id
_symmetry_equiv_pos_as_xyz
1 x,y,z
2 -x,-y,-z
_cell_length_a                   5.288(7)
_cell_length_b                   8.443(7)
_cell_length_c                   27.422(8)
_cell_angle_alpha                83.97(5)
_cell_angle_beta                 83.04(12)
_cell_angle_gamma                78.35(14)
_cell_volume                     1186.15
loop_
_atom_site_label
_atom_site_type_symbol
_atom_site_fract_x
_atom_site_fract_y
_atom_site_fract_z
Cu1 Cu 0.76668 0.51465 0.52340
O1 O 0.87921 0.28630 0.54319
O2 O 1.28158 0.26333 0.50145
C1 C 1.11310 0.20573 0.52983
C2 C 1.20423 0.03474 0.55130
H1 H 1.26974 -0.03635 0.52541
H2 H 1.05532 0.00005 0.56959
C3 C 1.42822 0.02466 0.58493
H3 H 1.51700 -0.08806 0.59172
H4 H 1.55835 0.07973 0.56810
C4 C 1.33137 0.09663 0.63171
H5 H 1.20488 0.03897 0.64880
H6 H 1.23575 0.20795 0.62470
C5 C 1.54837 0.09371 0.66494
H7 H 1.65422 -0.01627 0.66932
H8 H 1.66484 0.15986 0.64891
C6 C 1.45245 0.15215 0.71365
H9 H 1.34668 0.08037 0.73067
H10 H 1.33515 0.25853 0.70927
C7 C 1.67555 0.16035 0.74597
H11 H 1.76787 0.24146 0.73154
H12 H 1.80365 0.05650 0.74827
C8 C 1.55188 0.20331 0.79731
H13 H 1.45962 0.12190 0.81148
H14 H 1.42645 0.30633 0.79497
C9 C 1.77200 0.20931 0.82930
H15 H 1.87648 0.29962 0.81349
H16 H 1.91319 0.09224 0.83178
C10 C 1.64846 0.25183 0.87999
H17 H 1.54525 0.16095 0.89569
H18 H 1.50661 0.36866 0.87750
H19 H 1.80507 0.25646 0.90318
O3 O 0.66635 0.46560 0.45895
O4 O 1.07205 0.43861 0.42002
C11 C 0.83117 0.43754 0.42097
C12 C 0.72120 0.40593 0.37631
H20 H 0.56719 0.49365 0.36930
H21 H 0.65680 0.30759 0.38314
C13 C 0.90913 0.38841 0.33136
H22 H 1.06396 0.30116 0.33789
H23 H 0.97049 0.48734 0.32358
C14 C 0.78231 0.35375 0.28739
H24 H 0.72699 0.25242 0.29473
H25 H 0.62216 0.43841 0.28166
C15 C 0.96640 0.34322 0.24127
H26 H 1.12841 0.26012 0.24700
H27 H 1.01647 0.44525 0.23305
C16 C 0.83158 0.30222 0.19730
H28 H 0.77973 0.19965 0.20526
H29 H 0.67080 0.38499 0.19091
C17 C 1.02200 0.29036 0.15271
H30 H 1.18047 0.20455 0.15775
H31 H 1.07360 0.39148 0.14377
C18 C 0.85676 0.25141 0.11269
H32 H 0.70410 0.33945 0.10732
H33 H 0.79666 0.15445 0.12325
C19 C 1.03214 0.22704 0.06529
H34 H 1.20655 0.12802 0.07095
H35 H 1.09723 0.33640 0.05346
C20 C 0.87159 0.18923 0.02651
H36 H 0.69809 0.28884 0.02089
H37 H 0.80555 0.08019 0.03845
H38 H 0.99605 0.17150 -0.00760
Cu1A Cu 0.23332 0.48535 0.47660
Cu1A_2 Cu 1.23332 0.48535 0.47660
O2A O 0.71842 0.73667 0.49855
O3A O 0.33365 0.53440 0.54105
O4A O 0.92795 0.56139 0.57998
loop_
_geom_bond_atom_site_label_1
_geom_bond_atom_site_label_2
_geom_bond_site_symmetry_1
_geom_bond_site_symmetry_2
Cu1 O1 1_555 1_555
O1 C1 1_555 1_555
O2 C1 1_555 1_555
C1 C2 1_555 1_555
C2 H1 1_555 1_555
H2 C2 1_555 1_555
C3 C2 1_555 1_555
H3 C3 1_555 1_555
H4 C3 1_555 1_555
C4 C3 1_555 1_555
H5 C4 1_555 1_555
H6 C4 1_555 1_555
C5 C4 1_555 1_555
H7 C5 1_555 1_555
H8 C5 1_555 1_555
C6 C5 1_555 1_555
H9 C6 1_555 1_555
H10 C6 1_555 1_555
C7 C6 1_555 1_555
H11 C7 1_555 1_555
H12 C7 1_555 1_555
C8 C7 1_555 1_555
H13 C8 1_555 1_555
H14 C8 1_555 1_555
C9 C8 1_555 1_555
H15 C9 1_555 1_555
H16 C9 1_555 1_555
C10 C9 1_555 1_555
H17 C10 1_555 1_555
H18 C10 1_555 1_555
H19 C10 1_555 1_555
O3 Cu1 1_555 1_555
O4 C11 1_555 1_555
C11 O3 1_555 1_555
C12 C11 1_555 1_555
H20 C12 1_555 1_555
H21 C12 1_555 1_555
C13 C12 1_555 1_555
H22 C13 1_555 1_555
H23 C13 1_555 1_555
C14 C13 1_555 1_555
H24 C14 1_555 1_555
H25 C14 1_555 1_555
C15 C14 1_555 1_555
H26 C15 1_555 1_555
H27 C15 1_555 1_555
C16 C15 1_555 1_555
H28 C16 1_555 1_555
H29 C16 1_555 1_555
C17 C16 1_555 1_555
H30 C17 1_555 1_555
H31 C17 1_555 1_555
C18 C17 1_555 1_555
H32 C18 1_555 1_555
H33 C18 1_555 1_555
C19 C18 1_555 1_555
H34 C19 1_555 1_555
H35 C19 1_555 1_555
C20 C19 1_555 1_555
H36 C20 1_555 1_555
H37 C20 1_555 1_555
H38 C20 1_555 1_555
Cu1A O3 1_555 1_555
Cu1A_2 O2 1_555 1_555
O2A Cu1 1_555 1_555
O3A Cu1 1_555 1_555
O4A Cu1 1_555 1_555
O4 Cu1A_2 1_555 1_555
Cu1A O3A 1_555 1_555

#END
