
#######################################################################
#
#                 Cambridge Crystallographic Data Centre
#                                CCDC 
#
#######################################################################
#
# If this CIF has been generated from an entry in the Cambridge 
# Structural Database, then it will include bibliographic, chemical, 
# crystal, experimental, refinement or atomic coordinate data resulting 
# from the CCDC's data processing and validation procedures.
#
#######################################################################

data_CUDECN01
_symmetry_cell_setting           triclinic
_symmetry_space_group_name_H-M   'P -1'
_symmetry_Int_Tables_number      2
_space_group_name_Hall           '-P 1'
loop_
_symmetry_equiv_pos_site_id
_symmetry_equiv_pos_as_xyz
1 x,y,z
2 -x,-y,-z
_cell_length_a                   5.2035(11)
_cell_length_b                   14.331(3)
_cell_length_c                   16.440(4)
_cell_angle_alpha                65.390(4)
_cell_angle_beta                 86.889(4)
_cell_angle_gamma                82.886(4)
_cell_volume                     1106.01
loop_
_atom_site_label
_atom_site_type_symbol
_atom_site_fract_x
_atom_site_fract_y
_atom_site_fract_z
Cu1 Cu 0.30008(9) 0.44857(4) 0.52341(4)
O1 O 0.3022(6) 0.4714(2) 0.6314(2)
O2 O 0.5459(5) 0.3239(2) 0.5782(2)
O3 O 0.6432(6) 0.5617(2) 0.5902(2)
O4 O 0.8929(5) 0.4104(2) 0.53825(19)
C1 C 0.4644(9) 0.5230(3) 0.6431(3)
C2 C 0.7866(8) 0.3270(3) 0.5719(3)
C3 C 0.4308(10) 0.5416(4) 0.7269(3)
H1 H 0.2748 0.5888 0.7206
H2 H 0.4032 0.4767 0.7765
C4 C 0.6487(9) 0.5845(4) 0.7506(3)
H3 H 0.6757 0.6502 0.7017
H4 H 0.8057 0.5379 0.7570
C5 C 0.6046(10) 0.6005(4) 0.8352(4)
H5 H 0.4485 0.6479 0.8279
H6 H 0.5724 0.5350 0.8833
C6 C 0.8162(11) 0.6410(5) 0.8641(4)
H7 H 0.9730 0.5942 0.8706
H8 H 0.8467 0.7071 0.8164
C7 C 0.7743(11) 0.6553(5) 0.9482(4)
H9 H 0.6208 0.7041 0.9406
H10 H 0.7364 0.5899 0.9951
C8 C 0.9846(13) 0.6917(5) 0.9802(4)
H11 H 1.0167 0.7590 0.9350
H12 H 1.1407 0.6450 0.9854
C9 C 0.9396(13) 0.7003(5) 1.0678(4)
H13 H 0.7903 0.7505 1.0613
H14 H 0.8956 0.6342 1.1121
C10 C 1.1570(15) 0.7301(6) 1.1032(5)
H15 H 1.1928 0.7988 1.0617
H16 H 1.3106 0.6829 1.1062
C11 C 1.1051(15) 0.7296(6) 1.1954(5)
H17 H 1.2522 0.7500 1.2140
H18 H 1.0751 0.6613 1.2374
H19 H 0.9552 0.7770 1.1929
C12 C 0.9581(8) 0.2271(3) 0.6010(3)
H20 H 0.8670 0.1722 0.6444
H21 H 1.1111 0.2318 0.6297
C13 C 1.0391(9) 0.2013(4) 0.5216(4)
H22 H 1.1091 0.2605 0.4752
H23 H 1.1761 0.1443 0.5404
C14 C 0.8216(9) 0.1727(4) 0.4826(4)
H24 H 0.6861 0.2303 0.4629
H25 H 0.7495 0.1145 0.5294
C15 C 0.8992(11) 0.1450(4) 0.4048(4)
H26 H 1.0418 0.0902 0.4236
H27 H 0.9626 0.2046 0.3569
C16 C 0.6893(11) 0.1106(4) 0.3680(4)
H28 H 0.5467 0.1654 0.3490
H29 H 0.6258 0.0509 0.4158
C17 C 0.7692(12) 0.0831(5) 0.2904(4)
H30 H 0.8277 0.1435 0.2421
H31 H 0.9158 0.0300 0.3090
C18 C 0.5647(13) 0.0456(6) 0.2549(5)
H32 H 0.5068 -0.0153 0.3029
H33 H 0.4176 0.0983 0.2363
C19 C 0.6492(16) 0.0195(6) 0.1779(6)
H34 H 0.7095 0.0805 0.1307
H35 H 0.7965 -0.0332 0.1971
C20 C 0.459(2) -0.0167(8) 0.1399(7)
H36 H 0.5372 -0.0320 0.0919
H37 H 0.3158 0.0359 0.1174
H38 H 0.3994 -0.0780 0.1853
Cu1A Cu 0.69992(9) 0.55143(4) 0.47659(4)
Cu1_2 Cu 1.30008(9) 0.44857(4) 0.52341(4)
O3A O 0.3568(6) 0.4383(2) 0.4098(2)
O4_2 O -0.1071(5) 0.4104(2) 0.53825(19)
O4A O 0.1071(5) 0.5896(2) 0.46175(19)
loop_
_geom_bond_atom_site_label_1
_geom_bond_atom_site_label_2
_geom_bond_site_symmetry_1
_geom_bond_site_symmetry_2
Cu1 O1 1_555 1_555
O1 C1 1_555 1_555
O2 Cu1 1_555 1_555
O3 C1 1_555 1_555
O4 C2 1_555 1_555
C1 C3 1_555 1_555
C2 O2 1_555 1_555
C3 H1 1_555 1_555
H2 C3 1_555 1_555
C4 C3 1_555 1_555
H3 C4 1_555 1_555
H4 C4 1_555 1_555
C5 C4 1_555 1_555
H5 C5 1_555 1_555
H6 C5 1_555 1_555
C6 C5 1_555 1_555
H7 C6 1_555 1_555
H8 C6 1_555 1_555
C7 C6 1_555 1_555
H9 C7 1_555 1_555
H10 C7 1_555 1_555
C8 C7 1_555 1_555
H11 C8 1_555 1_555
H12 C8 1_555 1_555
C9 C8 1_555 1_555
H13 C9 1_555 1_555
H14 C9 1_555 1_555
C10 C9 1_555 1_555
H15 C10 1_555 1_555
H16 C10 1_555 1_555
C11 C10 1_555 1_555
H17 C11 1_555 1_555
H18 C11 1_555 1_555
H19 C11 1_555 1_555
C12 C2 1_555 1_555
H20 C12 1_555 1_555
H21 C12 1_555 1_555
C13 C12 1_555 1_555
H22 C13 1_555 1_555
H23 C13 1_555 1_555
C14 C13 1_555 1_555
H24 C14 1_555 1_555
H25 C14 1_555 1_555
C15 C14 1_555 1_555
H26 C15 1_555 1_555
H27 C15 1_555 1_555
C16 C15 1_555 1_555
H28 C16 1_555 1_555
H29 C16 1_555 1_555
C17 C16 1_555 1_555
H30 C17 1_555 1_555
H31 C17 1_555 1_555
C18 C17 1_555 1_555
H32 C18 1_555 1_555
H33 C18 1_555 1_555
C19 C18 1_555 1_555
H34 C19 1_555 1_555
H35 C19 1_555 1_555
C20 C19 1_555 1_555
H36 C20 1_555 1_555
H37 C20 1_555 1_555
H38 C20 1_555 1_555
Cu1A Cu1 1_555 1_555
Cu1_2 O4 1_555 1_555
O3A Cu1 1_555 1_555
O4_2 Cu1 1_555 1_555
O4A Cu1 1_555 1_555
O3 Cu1A 1_555 1_555
O4 Cu1A 1_555 1_555

#END
