
#######################################################################
#
#                 Cambridge Crystallographic Data Centre
#                                CCDC 
#
#######################################################################
#
# If this CIF has been generated from an entry in the Cambridge 
# Structural Database, then it will include bibliographic, chemical, 
# crystal, experimental, refinement or atomic coordinate data resulting 
# from the CCDC's data processing and validation procedures.
#
#######################################################################

data_CUDPUO
_symmetry_cell_setting           monoclinic
_symmetry_space_group_name_H-M   'C 2/c'
_symmetry_Int_Tables_number      15
_space_group_name_Hall           '-C 2yn'
loop_
_symmetry_equiv_pos_site_id
_symmetry_equiv_pos_as_xyz
1 x,y,z
2 -x,y,1/2-z
3 1/2+x,1/2+y,z
4 1/2-x,1/2+y,1/2-z
5 -x,-y,-z
6 x,-y,1/2+z
7 1/2-x,1/2-y,-z
8 1/2+x,1/2-y,1/2+z
_cell_length_a                   18.5604(10)
_cell_length_b                   13.0176(5)
_cell_length_c                   32.7297(14)
_cell_angle_alpha                90
_cell_angle_beta                 95.844(4)
_cell_angle_gamma                90
_cell_volume                     7866.79
loop_
_atom_site_label
_atom_site_type_symbol
_atom_site_fract_x
_atom_site_fract_y
_atom_site_fract_z
Zn1 Zn 0.25216(2) 0.09542(3) 0.105570(12)
Zn2 Zn 0.53900(2) 0.08089(3) 0.042240(12)
Zn3 Zn 0.28597(3) -0.04166(3) 0.190339(12)
N1 N 0.20860(18) -0.0444(2) 0.10609(8)
N2 N 0.2473(2) 0.0986(2) 0.19591(8)
N3 N 0.35917(15) 0.0627(2) 0.10872(8)
O1 O 0.2149(2) 0.3385(2) 0.27569(8)
C1 C 0.40235(19) 0.0871(3) 0.07970(9)
H1 H 0.3844 0.1174 0.0550
N4 N 0.38796(17) -0.0182(2) 0.17543(8)
N5 N 0.57874(16) -0.0550(2) 0.02813(8)
O2 O 0.2076(2) 0.4389(2) 0.22136(9)
N6 N 0.2335(2) -0.1026(2) 0.13923(9)
N7 N 0.53520(16) -0.12098(19) 0.00508(8)
N8 N 0.2370(2) 0.1551(2) 0.16047(8)
C2 C 0.4750(2) 0.0227(3) 0.12760(9)
N9 N 0.47252(16) 0.0654(2) 0.08839(8)
O3 O 0.0869(2) -0.2809(3) 0.04526(10)
C3 C 0.2248(2) 0.2609(3) 0.21320(10)
O4 O 0.7279(2) -0.2818(3) 0.07245(10)
C4 C 0.40597(18) 0.0208(2) 0.13920(9)
O5 O 0.1468(2) -0.3815(2) 0.09039(11)
N10 N 0.5141(2) -0.0531(3) 0.19199(10)
C5 C 0.5654(3) -0.2145(3) 0.00865(11)
H2 H 0.5464 -0.2735 -0.0043
C6 C 0.2239(2) 0.2522(3) 0.17043(11)
H3 H 0.2155 0.3060 0.1518
C7 C 0.2400(2) 0.1609(3) 0.22738(10)
H4 H 0.2443 0.1411 0.2548
C8 C 0.2150(2) 0.3532(3) 0.23727(10)
C9 C 0.1705(2) -0.1044(3) 0.07949(12)
H5 H 0.1470 -0.0829 0.0545
C10 C 0.1708(2) -0.2043(3) 0.09427(11)
C11 C 0.4456(2) -0.0530(3) 0.19953(11)
H6 H 0.4361 -0.0804 0.2247
C12 C 0.6284(3) -0.2103(3) 0.03421(11)
C13 C 0.5322(2) -0.0136(3) 0.15610(11)
C14 C 0.2108(2) -0.1983(3) 0.13225(11)
H7 H 0.2204 -0.2531 0.1502
N11 N 0.60212(19) -0.0121(3) 0.15056(11)
H8 H 0.6336 -0.0355 0.1693
H9 H 0.6159 0.0123 0.1282
C15 C 0.6739(3) -0.3014(4) 0.04833(15)
C16 C 0.1332(3) -0.2943(3) 0.07612(13)
O6 O 0.6569(4) -0.3872(3) 0.0366(2)
C17 C 0.6346(2) -0.1079(3) 0.04559(11)
H10 H 0.6725 -0.0803 0.0630
Zn1B Zn 0.75216(2) -0.40458(3) 0.105570(12)
Zn2B Zn 0.03900(2) -0.41911(3) 0.042240(12)
Zn2D Zn 0.46100(2) -0.08089(3) -0.042240(12)
Zn3C Zn 0.21403(3) 0.45834(3) 0.309661(12)
O1C O 0.2851(2) -0.1615(2) 0.22431(8)
N7D N 0.46480(16) 0.12098(19) -0.00508(8)
O3B O 0.5869(2) 0.2191(3) 0.04526(10)
O4B O 0.2279(2) 0.2182(3) 0.07245(10)
O5B O 0.6468(2) 0.1185(2) 0.09039(11)
loop_
_geom_bond_atom_site_label_1
_geom_bond_atom_site_label_2
_geom_bond_site_symmetry_1
_geom_bond_site_symmetry_2
Zn1 N1 1_555 1_555
Zn2 N5 1_555 1_555
Zn3 N2 1_555 1_555
N1 N6 1_555 1_555
N2 N8 1_555 1_555
N3 Zn1 1_555 1_555
O1 C8 1_555 1_555
C1 N3 1_555 1_555
H1 C1 1_555 1_555
N4 Zn3 1_555 1_555
N5 N7 1_555 1_555
O2 C8 1_555 1_555
N6 Zn3 1_555 1_555
N7 C5 1_555 1_555
N8 Zn1 1_555 1_555
C2 N9 1_555 1_555
N9 Zn2 1_555 1_555
O3 C16 1_555 1_555
C3 C6 1_555 1_555
O4 C15 1_555 1_555
C4 N3 1_555 1_555
O5 C16 1_555 1_555
N10 C11 1_555 1_555
C5 H2 1_555 1_555
C6 N8 1_555 1_555
H3 C6 1_555 1_555
C7 N2 1_555 1_555
H4 C7 1_555 1_555
C8 C3 1_555 1_555
C9 N1 1_555 1_555
H5 C9 1_555 1_555
C10 C9 1_555 1_555
C11 N4 1_555 1_555
H6 C11 1_555 1_555
C12 C5 1_555 1_555
C13 C2 1_555 1_555
C14 N6 1_555 1_555
H7 C14 1_555 1_555
N11 C13 1_555 1_555
H8 N11 1_555 1_555
H9 N11 1_555 1_555
C15 C12 1_555 1_555
C16 C10 1_555 1_555
O6 C15 1_555 1_555
C17 N5 1_555 1_555
H10 C17 1_555 1_555
Zn1B O4 1_555 1_555
Zn2B O3 1_555 1_555
Zn2D N7 1_555 1_555
Zn3C O1 1_555 1_555
O1C Zn3 1_555 1_555
N7D Zn2 1_555 1_555
O3B Zn2 1_555 1_555
O4B Zn1 1_555 1_555
O5B Zn2 1_555 1_555
C1 N9 1_555 1_555
N4 C4 1_555 1_555
C2 C4 1_555 1_555
C3 C7 1_555 1_555
O5 Zn2B 1_555 1_555
N10 C13 1_555 1_555
C10 C14 1_555 1_555
C12 C17 1_555 1_555

#END
