
#######################################################################
#
#                 Cambridge Crystallographic Data Centre
#                                CCDC 
#
#######################################################################
#
# If this CIF has been generated from an entry in the Cambridge 
# Structural Database, then it will include bibliographic, chemical, 
# crystal, experimental, refinement or atomic coordinate data resulting 
# from the CCDC's data processing and validation procedures.
#
#######################################################################

data_CUDPOI
_symmetry_cell_setting           monoclinic
_symmetry_space_group_name_H-M   'C 2/c'
_symmetry_Int_Tables_number      15
_space_group_name_Hall           '-C 2yn'
loop_
_symmetry_equiv_pos_site_id
_symmetry_equiv_pos_as_xyz
1 x,y,z
2 -x,y,1/2-z
3 1/2+x,1/2+y,z
4 1/2-x,1/2+y,1/2-z
5 -x,-y,-z
6 x,-y,1/2+z
7 1/2-x,1/2-y,-z
8 1/2+x,1/2-y,1/2+z
_cell_length_a                   18.9549(6)
_cell_length_b                   12.8976(4)
_cell_length_c                   32.3865(10)
_cell_angle_alpha                90
_cell_angle_beta                 95.872(3)
_cell_angle_gamma                90
_cell_volume                     7876.07
loop_
_atom_site_label
_atom_site_type_symbol
_atom_site_fract_x
_atom_site_fract_y
_atom_site_fract_z
Zn1 Zn 0.040184(19) 0.08194(3) 0.041535(10)
N1 N -0.02554(13) 0.0678(2) 0.08799(7)
O1 O 0.08962(14) 0.2183(2) 0.04542(9)
O2 O 0.14991(16) 0.1137(2) 0.08973(9)
N2 N 0.07751(12) -0.0562(2) 0.02811(7)
N3 N -0.03221(13) 0.12404(19) -0.00579(7)
C1 C -0.09360(15) 0.0894(2) 0.07895(8)
C2 C -0.02313(15) 0.0235(2) 0.12726(8)
C3 C 0.13268(15) -0.1096(3) 0.04517(8)
H1 H -0.1108 0.1195 0.0538
N4 N -0.13630(12) 0.06555(18) 0.10789(7)
C4 C -0.09149(15) 0.0224(2) 0.13905(8)
C5 C 0.03240(16) -0.0134(3) 0.15635(8)
C6 C 0.06135(18) -0.2179(3) 0.00960(11)
C7 C 0.12614(19) -0.2137(3) 0.03426(10)
H2 H 0.1705 -0.0814 0.0621
Zn2 Zn -0.24254(2) 0.09456(3) 0.103121(12)
N5 N -0.10902(13) -0.01813(19) 0.17559(7)
N6 N 0.01456(15) -0.0538(2) 0.19269(8)
N7 N 0.10083(14) -0.0126(3) 0.15073(8)
H3 H 0.0413 -0.2778 -0.0025
C8 C 0.1729(2) -0.3016(3) 0.04723(14)
O3 O -0.27152(12) 0.21811(17) 0.07040(6)
N8 N -0.25811(14) 0.15394(19) 0.15929(7)
N9 N -0.28416(13) -0.0467(2) 0.10440(7)
Zn3 Zn -0.20894(2) -0.04391(3) 0.189424(10)
C9 C -0.05327(17) -0.0536(3) 0.19982(9)
H4 H 0.1316 -0.0369 0.1696
H5 H 0.1144 0.0122 0.1282
O4 O 0.1581(3) -0.3912(3) 0.0350(2)
N10 N -0.25005(14) 0.09570(19) 0.19512(7)
C10 C -0.27353(16) 0.2512(2) 0.16937(9)
N11 N -0.25854(15) -0.1065(2) 0.13786(7)
C11 C -0.32421(17) -0.1075(3) 0.07836(10)
O5 O -0.20956(14) -0.16497(16) 0.22412(6)
H6 H -0.0631 -0.0820 0.2250
C12 C -0.26037(17) 0.1572(2) 0.22688(9)
H7 H -0.2817 0.3057 0.1507
C13 C -0.27555(16) 0.2585(2) 0.21234(9)
C14 C -0.28135(18) -0.2030(3) 0.13102(10)
C15 C -0.32349(19) -0.2071(3) 0.09320(10)
H8 H -0.3491 -0.0855 0.0537
H9 H -0.2579 0.1366 0.2545
C16 C -0.28809(16) 0.3506(2) 0.23681(9)
H10 H -0.2708 -0.2590 0.1487
C17 C -0.3623(2) -0.2976(3) 0.07566(11)
O6 O -0.29474(12) 0.43800(17) 0.22097(7)
N3D N 0.03221(13) -0.12404(19) 0.00579(7)
Zn1D Zn -0.040184(19) -0.08194(3) -0.041535(10)
O3B O 0.22848(12) -0.28189(17) 0.07040(6)
Zn2B Zn 0.25746(2) -0.40544(3) 0.103121(12)
O5C O -0.29044(14) 0.33503(16) 0.27588(6)
O1B O -0.41038(14) -0.2817(2) 0.04542(9)
O2B O -0.35009(16) -0.3863(2) 0.08973(9)
Zn3C Zn -0.29106(2) 0.45609(3) 0.310576(10)
Zn1B Zn -0.459816(19) -0.41806(3) 0.041535(10)
loop_
_geom_bond_atom_site_label_1
_geom_bond_atom_site_label_2
_geom_bond_site_symmetry_1
_geom_bond_site_symmetry_2
Zn1 N1 1_555 1_555
N1 C1 1_555 1_555
O1 Zn1 1_555 1_555
O2 Zn1 1_555 1_555
N2 Zn1 1_555 1_555
N3 Zn1 1_555 1_555
C1 H1 1_555 1_555
C2 N1 1_555 1_555
C3 N2 1_555 1_555
N4 C1 1_555 1_555
C4 C2 1_555 1_555
C5 C2 1_555 1_555
C6 C7 1_555 1_555
C7 C3 1_555 1_555
H2 C3 1_555 1_555
Zn2 N4 1_555 1_555
N5 C4 1_555 1_555
N6 C5 1_555 1_555
N7 C5 1_555 1_555
H3 C6 1_555 1_555
C8 C7 1_555 1_555
O3 Zn2 1_555 1_555
N8 Zn2 1_555 1_555
N9 Zn2 1_555 1_555
Zn3 N5 1_555 1_555
C9 N5 1_555 1_555
H4 N7 1_555 1_555
H5 N7 1_555 1_555
O4 C8 1_555 1_555
N10 N8 1_555 1_555
C10 N8 1_555 1_555
N11 N9 1_555 1_555
C11 N9 1_555 1_555
O5 Zn3 1_555 1_555
H6 C9 1_555 1_555
C12 N10 1_555 1_555
H7 C10 1_555 1_555
C13 C10 1_555 1_555
C14 N11 1_555 1_555
C15 C11 1_555 1_555
H8 C11 1_555 1_555
H9 C12 1_555 1_555
C16 C13 1_555 1_555
H10 C14 1_555 1_555
C17 C15 1_555 1_555
O6 C16 1_555 1_555
N3D N2 1_555 1_555
Zn1D N3D 1_555 1_555
O3B C8 1_555 1_555
Zn2B O3B 1_555 1_555
O5C C16 1_555 1_555
O1B C17 1_555 1_555
O2B C17 1_555 1_555
Zn3C O5C 1_555 1_555
Zn1B O1B 1_555 1_555
N4 C4 1_555 1_555
C6 N3D 1_555 1_555
N6 C9 1_555 1_555
Zn3 N10 1_555 1_555
Zn3 N11 1_555 1_555
C12 C13 1_555 1_555
C14 C15 1_555 1_555
O2B Zn1B 1_555 1_555

#END
