
#######################################################################
#
#                 Cambridge Crystallographic Data Centre
#                                CCDC 
#
#######################################################################
#
# If this CIF has been generated from an entry in the Cambridge 
# Structural Database, then it will include bibliographic, chemical, 
# crystal, experimental, refinement or atomic coordinate data resulting 
# from the CCDC's data processing and validation procedures.
#
#######################################################################

data_CUDQAV
_symmetry_cell_setting           monoclinic
_symmetry_space_group_name_H-M   'C 2/c'
_symmetry_Int_Tables_number      15
_space_group_name_Hall           '-C 2yn'
loop_
_symmetry_equiv_pos_site_id
_symmetry_equiv_pos_as_xyz
1 x,y,z
2 -x,y,1/2-z
3 1/2+x,1/2+y,z
4 1/2-x,1/2+y,1/2-z
5 -x,-y,-z
6 x,-y,1/2+z
7 1/2-x,1/2-y,-z
8 1/2+x,1/2-y,1/2+z
_cell_length_a                   17.6547(5)
_cell_length_b                   13.6660(3)
_cell_length_c                   31.9413(6)
_cell_angle_alpha                90
_cell_angle_beta                 94.871(2)
_cell_angle_gamma                90
_cell_volume                     7678.62
loop_
_atom_site_label
_atom_site_type_symbol
_atom_site_fract_x
_atom_site_fract_y
_atom_site_fract_z
Zn1 Zn 0.037258(19) 0.08903(2) 0.038882(9)
Zn2 Zn -0.264079(19) 0.09425(2) 0.105158(9)
Zn3 Zn -0.22921(2) -0.03544(2) 0.191811(9)
N1 N -0.28645(15) -0.09241(15) 0.14006(6)
N2 N 0.08701(12) -0.03683(13) 0.02663(6)
N3 N -0.26592(14) 0.10215(15) 0.19730(6)
O1 O -0.42432(14) -0.27195(16) 0.04086(7)
N4 N -0.31051(14) -0.03783(15) 0.10557(7)
N5 N 0.04296(12) -0.11137(13) 0.00972(6)
O2 O 0.18544(13) -0.33598(13) 0.05820(6)
O3 O -0.28875(15) 0.43316(15) 0.21883(7)
N6 N -0.12148(14) -0.01589(16) 0.17556(6)
N7 N -0.15187(13) 0.06530(15) 0.10815(6)
C1 C -0.10607(16) 0.09047(18) 0.07831(7)
O4 O -0.35841(16) -0.36343(15) 0.08729(7)
C2 C -0.34566(18) -0.09746(19) 0.07746(9)
C3 C 0.20618(18) -0.2463(2) 0.05885(8)
C4 C -0.10245(15) 0.02411(17) 0.13881(7)
C5 C -0.30598(18) -0.18535(18) 0.13227(8)
N8 N 0.01151(16) -0.0475(2) 0.19101(8)
C6 C 0.08052(17) -0.19490(17) 0.01816(7)
N9 N -0.03272(13) 0.07054(16) 0.08660(6)
O5 O -0.26970(17) 0.34553(16) 0.27644(6)
N10 N -0.28000(15) 0.15331(15) 0.16086(6)
O6 O 0.26784(14) -0.21876(18) 0.07596(8)
C7 C -0.28902(18) 0.24784(19) 0.17069(8)
H1 H -0.3000 0.2978 0.1514
C8 C -0.27952(17) 0.2599(2) 0.21381(8)
C9 C 0.14976(15) -0.17547(18) 0.04007(7)
C10 C -0.27976(17) 0.3543(2) 0.23676(8)
C11 C 0.03109(17) -0.0069(2) 0.15474(8)
C12 C -0.02925(15) 0.02840(18) 0.12609(7)
C13 C -0.34409(18) -0.19196(19) 0.09294(8)
C14 C -0.26481(18) 0.1656(2) 0.22897(8)
C15 C 0.15090(16) -0.07568(19) 0.04475(8)
C16 C -0.06122(19) -0.0498(2) 0.19934(9)
H2 H -0.0712 -0.0783 0.2247
N11 N 0.10350(16) -0.0034(3) 0.14846(8)
C17 C -0.37642(19) -0.2812(2) 0.07257(9)
H3 H 0.0656(18) -0.246(2) 0.0069(10)
H4 H -0.1270(17) 0.125(2) 0.0524(9)
H5 H -0.3724(17) -0.070(2) 0.0516(9)
H6 H -0.2868(18) -0.243(2) 0.1550(10)
H7 H 0.180(2) -0.034(3) 0.0589(11)
H8 H 0.135(2) -0.027(3) 0.1752(12)
H9 H -0.2580(17) 0.137(2) 0.2584(10)
H10 H 0.116(2) 0.027(3) 0.1259(13)
Zn1B Zn -0.462742(19) -0.41097(2) 0.038882(9)
Zn1D Zn -0.037258(19) -0.08903(2) -0.038882(9)
Zn2B Zn 0.235921(19) -0.40575(2) 0.105158(9)
Zn3C Zn -0.27079(2) 0.46456(2) 0.308189(9)
O1B O 0.07568(14) 0.22805(16) 0.04086(7)
N5D N -0.04296(12) 0.11137(13) -0.00972(6)
O2B O -0.31456(13) 0.16402(13) 0.05820(6)
O4B O 0.14159(16) 0.13657(15) 0.08729(7)
O5C O -0.23030(17) -0.15447(16) 0.22356(6)
loop_
_geom_bond_atom_site_label_1
_geom_bond_atom_site_label_2
_geom_bond_site_symmetry_1
_geom_bond_site_symmetry_2
Zn1 N2 1_555 1_555
Zn2 N4 1_555 1_555
Zn3 N1 1_555 1_555
N1 N4 1_555 1_555
N2 N5 1_555 1_555
N3 Zn3 1_555 1_555
O1 C17 1_555 1_555
N4 C2 1_555 1_555
N5 C6 1_555 1_555
O2 C3 1_555 1_555
O3 C10 1_555 1_555
N6 Zn3 1_555 1_555
N7 Zn2 1_555 1_555
C1 N7 1_555 1_555
O4 C17 1_555 1_555
C2 C13 1_555 1_555
C3 O6 1_555 1_555
C4 N6 1_555 1_555
C5 N1 1_555 1_555
N8 C11 1_555 1_555
C6 C9 1_555 1_555
N9 Zn1 1_555 1_555
O5 C10 1_555 1_555
N10 Zn2 1_555 1_555
C7 N10 1_555 1_555
H1 C7 1_555 1_555
C8 C7 1_555 1_555
C9 C3 1_555 1_555
C10 C8 1_555 1_555
C11 C12 1_555 1_555
C12 C4 1_555 1_555
C13 C5 1_555 1_555
C14 N3 1_555 1_555
C15 N2 1_555 1_555
C16 N6 1_555 1_555
H2 C16 1_555 1_555
N11 C11 1_555 1_555
C17 C13 1_555 1_555
H3 C6 1_555 1_555
H4 C1 1_555 1_555
H5 C2 1_555 1_555
H6 C5 1_555 1_555
H7 C15 1_555 1_555
H8 N11 1_555 1_555
H9 C14 1_555 1_555
H10 N11 1_555 1_555
Zn1B O1 1_555 1_555
Zn1D N5 1_555 1_555
Zn2B O2 1_555 1_555
Zn3C O5 1_555 1_555
O1B Zn1 1_555 1_555
N5D Zn1 1_555 1_555
O2B Zn2 1_555 1_555
O4B Zn1 1_555 1_555
O5C Zn3 1_555 1_555
N3 N10 1_555 1_555
N7 C4 1_555 1_555
C1 N9 1_555 1_555
O4 Zn1B 1_555 1_555
N8 C16 1_555 1_555
N9 C12 1_555 1_555
C8 C14 1_555 1_555
C9 C15 1_555 1_555

#END
