
#######################################################################
#
#                 Cambridge Crystallographic Data Centre
#                                CCDC 
#
#######################################################################
#
# If this CIF has been generated from an entry in the Cambridge 
# Structural Database, then it will include bibliographic, chemical, 
# crystal, experimental, refinement or atomic coordinate data resulting 
# from the CCDC's data processing and validation procedures.
#
#######################################################################

data_CUDTAR
_symmetry_cell_setting           monoclinic
_symmetry_space_group_name_H-M   'P 1 1 21'
_symmetry_Int_Tables_number      4
_space_group_name_Hall           'P 2c'
loop_
_symmetry_equiv_pos_site_id
_symmetry_equiv_pos_as_xyz
1 x,y,z
2 -x,-y,1/2+z
_cell_length_a                   12.13(2)
_cell_length_b                   8.37(2)
_cell_length_c                   8.74(1)
_cell_angle_alpha                90
_cell_angle_beta                 90
_cell_angle_gamma                104.6(4)
_cell_volume                     858.702
loop_
_atom_site_label
_atom_site_type_symbol
_atom_site_fract_x
_atom_site_fract_y
_atom_site_fract_z
Cu1 Cu 0.02430 0.16750 0.00080
Cu2 Cu 0.47270 0.30730 -0.00070
C1 C 0.12520 0.31600 -0.27200
C2 C 0.20640 0.19900 -0.26000
C3 C 0.33120 0.30800 -0.26500
C4 C 0.40950 0.19200 -0.28900
C5 C 0.08540 0.09200 0.29100
C6 C 0.17200 0.25600 0.26900
C7 C 0.29400 0.23800 0.26700
C8 C 0.37970 0.40500 0.27300
O1 O -0.13230 0.28100 0.06700
O2 O 0.04810 0.31400 -0.17300
O3 O 0.13850 0.40100 -0.38800
O4 O 0.18560 0.10700 -0.12300
O5 O 0.35710 0.38800 -0.12000
O6 O 0.46730 0.16900 -0.17700
O7 O 0.40820 0.12200 -0.41900
O8 O 0.57610 0.19900 0.10400
O9 O 0.01610 0.03900 0.18400
O10 O 0.09370 0.01500 0.41200
O11 O 0.14650 0.32200 0.12300
O12 O 0.30990 0.14200 0.13900
O13 O 0.45770 0.44100 0.16900
O14 O 0.37570 0.49400 0.38400
Cu1A Cu -0.02430 -0.16750 0.50080
Cu2A Cu 0.52730 0.69270 0.49930
O10A O -0.09370 -0.01500 -0.08800
O14A O 0.62430 0.50600 -0.11600
O15 O 0.82910 0.22600 0.38000
O16 O 0.60570 0.28200 0.40100
O17 O 0.69270 0.14500 -0.22500
O18 O 0.87460 0.38400 -0.34500
loop_
_geom_bond_atom_site_label_1
_geom_bond_atom_site_label_2
_geom_bond_site_symmetry_1
_geom_bond_site_symmetry_2
Cu1 O1 1_555 1_555
Cu2 O5 1_555 1_555
C1 C2 1_555 1_555
C2 C3 1_555 1_555
C3 C4 1_555 1_555
C4 O6 1_555 1_555
C5 C6 1_555 1_555
C6 C7 1_555 1_555
C7 C8 1_555 1_555
C8 O13 1_555 1_555
O2 Cu1 1_555 1_555
O3 C1 1_555 1_555
O4 Cu1 1_555 1_555
O5 C3 1_555 1_555
O6 Cu2 1_555 1_555
O7 C4 1_555 1_555
O8 Cu2 1_555 1_555
O9 Cu1 1_555 1_555
O10 C5 1_555 1_555
O11 Cu1 1_555 1_555
O12 Cu2 1_555 1_555
O13 Cu2 1_555 1_555
O14 C8 1_555 1_555
Cu1A O10 1_555 1_555
Cu2A O14 1_555 1_555
O10A Cu1 1_555 1_555
O14A Cu2 1_555 1_555
C1 O2 1_555 1_555
C2 O4 1_555 1_555
C5 O9 1_555 1_555
C6 O11 1_555 1_555
C7 O12 1_555 1_555

#END
