
#######################################################################
#
#                 Cambridge Crystallographic Data Centre
#                                CCDC 
#
#######################################################################
#
# If this CIF has been generated from an entry in the Cambridge 
# Structural Database, then it will include bibliographic, chemical, 
# crystal, experimental, refinement or atomic coordinate data resulting 
# from the CCDC's data processing and validation procedures.
#
#######################################################################

data_CUDYUX
_symmetry_cell_setting           monoclinic
_symmetry_space_group_name_H-M   'P 21/c'
_symmetry_Int_Tables_number      14
_space_group_name_Hall           '-P 2ybc'
loop_
_symmetry_equiv_pos_site_id
_symmetry_equiv_pos_as_xyz
1 x,y,z
2 -x,1/2+y,1/2-z
3 -x,-y,-z
4 x,1/2-y,1/2+z
_cell_length_a                   10.263(2)
_cell_length_b                   21.511(4)
_cell_length_c                   13.182(3)
_cell_angle_alpha                90
_cell_angle_beta                 108.410(4)
_cell_angle_gamma                90
_cell_volume                     2761.22
loop_
_atom_site_label
_atom_site_type_symbol
_atom_site_fract_x
_atom_site_fract_y
_atom_site_fract_z
Cd1 Cd 0.10977(2) 0.462600(11) 0.821404(18)
O1 O 0.8666(3) 0.46012(13) 0.8539(2)
N1 N 0.1647(3) 0.38308(13) 0.9462(2)
O2 O 0.3569(3) 0.44712(13) 0.8246(2)
C1 C 0.4110(3) 0.54343(15) 0.6183(3)
N2 N 0.4772(3) 0.24488(12) 1.2220(2)
N3 N 0.7327(3) 0.24813(13) 1.3951(2)
C2 C 0.5343(4) 0.18924(16) 1.2843(3)
O3 O 0.2194(2) 0.51512(13) 0.7184(2)
C3 C 0.8342(3) 0.49621(17) 0.7755(3)
C4 C 0.4454(3) 0.50875(15) 0.7110(3)
C5 C 0.5153(4) 0.56415(15) 0.5807(3)
C6 C 0.3330(3) 0.48848(16) 0.7547(3)
C7 C 0.1352(4) 0.38246(18) 1.0383(3)
H1 H 0.0792 0.4136 1.0506
C8 C 0.2660(3) 0.29047(17) 1.0994(3)
C9 C 0.3264(4) 0.24056(18) 1.1813(3)
C10 C 0.2923(4) 0.28946(17) 1.0022(3)
C11 C 0.5823(3) 0.49322(15) 0.7628(3)
C12 C 0.6848(3) 0.51348(16) 0.7229(3)
O4 O 0.9193(3) 0.51871(15) 0.7353(3)
C13 C 0.6512(4) 0.54994(17) 0.6316(3)
C14 C 0.6749(4) 0.30417(17) 1.3340(3)
C15 C 0.6890(4) 0.19342(17) 1.3254(3)
C16 C 0.8836(4) 0.2528(2) 1.4320(3)
C17 C 0.2422(4) 0.33651(18) 0.9298(3)
C18 C 0.5197(4) 0.30005(17) 1.2901(3)
C19 C 0.1843(4) 0.33771(18) 1.1153(3)
C20 C 0.9355(3) 0.30106(18) 1.5193(3)
N4 N 0.4806(4) 0.60383(16) 0.4852(2)
O5 O 0.3611(4) 0.61286(19) 0.4362(3)
C21 C 0.9299(4) 0.2898(2) 1.6207(3)
C22 C 0.9780(4) 0.3345(2) 1.6978(3)
H2 H 0.9723 0.3266 1.7656
O6 O 0.5758(4) 0.6262(2) 0.4617(3)
C23 C 0.9883(5) 0.3565(2) 1.5014(3)
C24 C 1.0357(5) 0.3988(2) 1.5837(3)
H3 H 1.0719 0.4362 1.5697
O7 O 0.1865(3) 0.53668(13) 0.9532(2)
N5 N 1.0319(3) 0.38841(15) 1.6821(2)
H4 H 0.602(5) 0.474(2) 0.823(3)
H5 H 0.328(4) 0.5517(17) 0.584(3)
H6 H 0.167(4) 0.3378(19) 1.180(4)
H7 H 0.712(4) 0.564(2) 0.601(3)
H8 H 0.489(4) 0.3378(18) 1.246(3)
H9 H 0.712(4) 0.3136(19) 1.274(3)
H10 H 0.479(4) 0.3001(19) 1.350(3)
H11 H 0.915(5) 0.213(2) 1.465(4)
H12 H 0.706(4) 0.344(2) 1.384(3)
H13 H 0.499(4) 0.1815(17) 1.343(3)
H14 H 0.508(4) 0.1561(19) 1.241(3)
H15 H 0.917(4) 0.265(2) 1.370(4)
H16 H 0.293(5) 0.244(2) 1.241(4)
H17 H 0.353(4) 0.2551(19) 0.988(3)
H18 H 0.305(5) 0.196(2) 1.152(4)
H19 H 0.732(3) 0.1974(16) 1.258(3)
H20 H 0.266(4) 0.3418(18) 0.862(3)
H21 H 0.983(5) 0.365(2) 1.430(4)
H22 H 0.880(5) 0.249(3) 1.635(4)
H23 H 0.731(5) 0.162(2) 1.370(4)
Cd1_2 Cd 1.10977(2) 0.462600(11) 0.821404(18)
Cd1_3 Cd 1.10977(2) 0.462600(11) 1.821404(18)
O1_2 O -0.1334(3) 0.46012(13) 0.8539(2)
O4_2 O -0.0807(3) 0.51871(15) 0.7353(3)
N5_2 N 0.0319(3) 0.38841(15) 0.6821(2)
O8 O 0.6277(4) 0.20677(16) 1.5660(3)
O9 O 0.4398(4) 0.58043(17) 0.9750(3)
O10 O 1.0658(5) 0.6393(3) 0.7740(4)
loop_
_geom_bond_atom_site_label_1
_geom_bond_atom_site_label_2
_geom_bond_site_symmetry_1
_geom_bond_site_symmetry_2
Cd1 N1 1_555 1_555
O1 C3 1_555 1_555
N1 C7 1_555 1_555
O2 Cd1 1_555 1_555
C1 C4 1_555 1_555
N2 C2 1_555 1_555
N3 C14 1_555 1_555
C2 C15 1_555 1_555
O3 Cd1 1_555 1_555
C3 C12 1_555 1_555
C4 C6 1_555 1_555
C5 C1 1_555 1_555
C6 O2 1_555 1_555
C7 H1 1_555 1_555
C8 C9 1_555 1_555
C9 N2 1_555 1_555
C10 C8 1_555 1_555
C11 C4 1_555 1_555
C12 C11 1_555 1_555
O4 C3 1_555 1_555
C13 C5 1_555 1_555
C14 C18 1_555 1_555
C15 N3 1_555 1_555
C16 N3 1_555 1_555
C17 N1 1_555 1_555
C18 N2 1_555 1_555
C19 C7 1_555 1_555
C20 C16 1_555 1_555
N4 C5 1_555 1_555
O5 N4 1_555 1_555
C21 C20 1_555 1_555
C22 C21 1_555 1_555
H2 C22 1_555 1_555
O6 N4 1_555 1_555
C23 C20 1_555 1_555
C24 C23 1_555 1_555
H3 C24 1_555 1_555
O7 Cd1 1_555 1_555
N5 C22 1_555 1_555
H4 C11 1_555 1_555
H5 C1 1_555 1_555
H6 C19 1_555 1_555
H7 C13 1_555 1_555
H8 C18 1_555 1_555
H9 C14 1_555 1_555
H10 C18 1_555 1_555
H11 C16 1_555 1_555
H12 C14 1_555 1_555
H13 C2 1_555 1_555
H14 C2 1_555 1_555
H15 C16 1_555 1_555
H16 C9 1_555 1_555
H17 C10 1_555 1_555
H18 C9 1_555 1_555
H19 C15 1_555 1_555
H20 C17 1_555 1_555
H21 C23 1_555 1_555
H22 C21 1_555 1_555
H23 C15 1_555 1_555
Cd1_2 O1 1_555 1_555
Cd1_3 N5 1_555 1_555
O1_2 Cd1 1_555 1_555
O4_2 Cd1 1_555 1_555
N5_2 Cd1 1_555 1_555
O3 C6 1_555 1_555
C8 C19 1_555 1_555
C10 C17 1_555 1_555
C12 C13 1_555 1_555
O4 Cd1_2 1_555 1_555
C24 N5 1_555 1_555

#END
