
#######################################################################
#
#                 Cambridge Crystallographic Data Centre
#                                CCDC 
#
#######################################################################
#
# If this CIF has been generated from an entry in the Cambridge 
# Structural Database, then it will include bibliographic, chemical, 
# crystal, experimental, refinement or atomic coordinate data resulting 
# from the CCDC's data processing and validation procedures.
#
#######################################################################

data_CUDZAE
_symmetry_cell_setting           monoclinic
_symmetry_space_group_name_H-M   'P c'
_symmetry_Int_Tables_number      7
_space_group_name_Hall           'P -2yc'
loop_
_symmetry_equiv_pos_site_id
_symmetry_equiv_pos_as_xyz
1 x,y,z
2 x,-y,1/2+z
_cell_length_a                   11.173(3)
_cell_length_b                   12.507(3)
_cell_length_c                   10.191(3)
_cell_angle_alpha                90
_cell_angle_beta                 103.988(5)
_cell_angle_gamma                90
_cell_volume                     1381.87
loop_
_atom_site_label
_atom_site_type_symbol
_atom_site_fract_x
_atom_site_fract_y
_atom_site_fract_z
Ni1 Ni 0.73671(5) 0.74506(3) 0.18111(6)
O1 O 0.6710(2) 0.7072(2) -0.6549(2)
N1 N 0.5992(3) 0.8636(2) 0.1223(3)
O2 O 0.6203(2) 0.64803(19) 0.0267(3)
O3 O 0.7854(3) 0.8131(2) -0.4968(3)
C1 C 0.5383(3) 0.5905(2) -0.2454(3)
H1 H 0.5025 0.5563 -0.1833
C2 C 0.6451(3) 0.6919(2) -0.4344(3)
N2 N -0.1309(3) 1.6214(2) 0.2252(3)
O4 O 0.7614(3) 0.75605(18) -0.0158(3)
C3 C 0.6305(3) 0.6662(2) -0.2033(3)
C4 C 0.5512(3) 0.6165(3) -0.4775(4)
H2 H 0.5230 0.5999 -0.5687
C5 C 0.6831(3) 0.7165(3) -0.2971(3)
H3 H 0.7445 0.7674 -0.2680
O5 O 0.8671(2) 0.85036(19) 0.2842(3)
N3 N 0.2516(3) 1.1392(2) 0.0608(4)
C6 C 0.0317(3) 1.4462(3) 0.2741(4)
C7 C 0.5011(3) 0.5673(3) -0.3813(4)
C8 C 0.6726(3) 0.6913(2) -0.0559(3)
N4 N 0.1827(3) 1.3177(2) 0.2094(4)
N5 N 0.4025(3) 0.4899(3) -0.4262(4)
C9 C 0.7060(3) 0.7421(2) -0.5366(4)
C10 C 0.2734(4) 1.2368(3) 0.2728(5)
H4 H 0.2317 1.1804 0.3098
H5 H 0.3333 1.2693 0.3470
C11 C 0.6199(4) 0.9497(3) 0.0528(5)
H6 H 0.6985 0.9593 0.0388
C12 C 0.4843(3) 0.8510(3) 0.1384(4)
H7 H 0.4672 0.7911 0.1849
C13 C 0.4130(3) 1.0137(3) 0.0192(4)
O6 O 0.3497(3) 0.4899(3) -0.5469(4)
O7 O 0.3772(3) 0.4294(3) -0.3434(4)
C14 C 0.0569(4) 1.5381(3) 0.2090(6)
H8 H 0.1297 1.5429 0.1803
C15 C -0.0248(4) 1.6215(3) 0.1870(5)
H9 H -0.0052 1.6817 0.1429
C16 C -0.1543(4) 1.5348(3) 0.2901(5)
H10 H -0.2265 1.5329 0.3201
C17 C 0.5310(4) 1.0243(3) 0.0011(5)
H11 H 0.5504 1.0826 -0.0466
C18 C 0.3396(3) 1.1888(3) 0.1746(5)
H12 H 0.3854 1.2441 0.1413
H13 H 0.3978 1.1354 0.2205
C19 C 0.3904(4) 0.9226(3) 0.0894(5)
H14 H 0.3122 0.9105 0.1030
C20 C 0.3157(4) 1.0954(3) -0.0389(5)
H15 H 0.3539 1.1539 -0.0763
H16 H 0.2551 1.0629 -0.1125
C21 C 0.1173(4) 1.3513(3) 0.3118(5)
H17 H 0.1782 1.3684 0.3945
H18 H 0.0695 1.2912 0.3312
C22 C 0.1646(4) 1.2240(3) -0.0056(5)
H19 H 0.1056 1.1941 -0.0827
H20 H 0.2098 1.2802 -0.0381
C23 C -0.0769(4) 1.4478(3) 0.3150(6)
H21 H -0.0984 1.3890 0.3604
C24 C 0.0972(4) 1.2700(3) 0.0924(5)
H22 H 0.0396 1.3241 0.0471
H23 H 0.0503 1.2139 0.1228
Ni1_2 Ni -0.26329(5) 1.74506(3) 0.18111(6)
Ni1_3 Ni 0.73671(5) 0.74506(3) -0.81889(6)
O1_2 O 0.6710(2) 0.7072(2) 0.3451(2)
N2_2 N 0.8691(3) 0.6214(2) 0.2252(3)
O8 O 0.9021(3) 1.0544(3) 0.2116(4)
O9 O 0.1109(3) 0.9757(3) 0.1438(4)
O10 O -0.0272(4) 1.1493(3) 0.4471(5)
loop_
_geom_bond_atom_site_label_1
_geom_bond_atom_site_label_2
_geom_bond_site_symmetry_1
_geom_bond_site_symmetry_2
Ni1 N1 1_555 1_555
O1 C9 1_555 1_555
N1 C11 1_555 1_555
O2 Ni1 1_555 1_555
O3 C9 1_555 1_555
C1 H1 1_555 1_555
C2 C4 1_555 1_555
N2 C15 1_555 1_555
O4 Ni1 1_555 1_555
C3 C1 1_555 1_555
C4 H2 1_555 1_555
C5 C2 1_555 1_555
H3 C5 1_555 1_555
O5 Ni1 1_555 1_555
N3 C18 1_555 1_555
C6 C14 1_555 1_555
C7 C1 1_555 1_555
C8 O2 1_555 1_555
N4 C10 1_555 1_555
N5 C7 1_555 1_555
C9 C2 1_555 1_555
C10 H4 1_555 1_555
H5 C10 1_555 1_555
C11 H6 1_555 1_555
C12 N1 1_555 1_555
H7 C12 1_555 1_555
C13 C17 1_555 1_555
O6 N5 1_555 1_555
O7 N5 1_555 1_555
C14 H8 1_555 1_555
C15 C14 1_555 1_555
H9 C15 1_555 1_555
C16 N2 1_555 1_555
H10 C16 1_555 1_555
C17 C11 1_555 1_555
H11 C17 1_555 1_555
C18 C10 1_555 1_555
H12 C18 1_555 1_555
H13 C18 1_555 1_555
C19 C12 1_555 1_555
H14 C19 1_555 1_555
C20 N3 1_555 1_555
H15 C20 1_555 1_555
H16 C20 1_555 1_555
C21 C6 1_555 1_555
H17 C21 1_555 1_555
H18 C21 1_555 1_555
C22 N3 1_555 1_555
H19 C22 1_555 1_555
H20 C22 1_555 1_555
C23 C6 1_555 1_555
H21 C23 1_555 1_555
C24 N4 1_555 1_555
H22 C24 1_555 1_555
H23 C24 1_555 1_555
Ni1_2 N2 1_555 1_555
Ni1_3 O1 1_555 1_555
O1_2 Ni1 1_555 1_555
N2_2 Ni1 1_555 1_555
O4 C8 1_555 1_555
C3 C5 1_555 1_555
C3 C8 1_555 1_555
C4 C7 1_555 1_555
N4 C21 1_555 1_555
C13 C19 1_555 1_555
C13 C20 1_555 1_555
C16 C23 1_555 1_555
C22 C24 1_555 1_555

#END
