
#######################################################################
#
#                 Cambridge Crystallographic Data Centre
#                                CCDC 
#
#######################################################################
#
# If this CIF has been generated from an entry in the Cambridge 
# Structural Database, then it will include bibliographic, chemical, 
# crystal, experimental, refinement or atomic coordinate data resulting 
# from the CCDC's data processing and validation procedures.
#
#######################################################################

data_CUFDOX
_symmetry_cell_setting           cubic
_symmetry_space_group_name_H-M   'I -4 3 d'
_symmetry_Int_Tables_number      220
_space_group_name_Hall           'I -4bd 2c 3'
loop_
_symmetry_equiv_pos_site_id
_symmetry_equiv_pos_as_xyz
1 x,y,z
2 1/2-x,-y,1/2+z
3 -x,1/2+y,1/2-z
4 1/2+x,1/2-y,-z
5 z,x,y
6 1/2+z,1/2-x,-y
7 1/2-z,-x,1/2+y
8 -z,1/2+x,1/2-y
9 y,z,x
10 -y,1/2+z,1/2-x
11 1/2+y,1/2-z,-x
12 1/2-y,-z,1/2+x
13 1/4+y,1/4+x,1/4+z
14 1/4-y,3/4-x,3/4+z
15 3/4+y,1/4-x,3/4-z
16 3/4-y,3/4+x,1/4-z
17 1/4+x,1/4+z,1/4+y
18 3/4-x,3/4+z,1/4-y
19 1/4-x,3/4-z,3/4+y
20 3/4+x,1/4-z,3/4-y
21 1/4+z,1/4+y,1/4+x
22 3/4+z,1/4-y,3/4-x
23 3/4-z,3/4+y,1/4-x
24 1/4-z,3/4-y,3/4+x
25 1/2+x,1/2+y,1/2+z
26 -x,1/2-y,z
27 1/2-x,y,-z
28 x,-y,1/2-z
29 1/2+z,1/2+x,1/2+y
30 z,-x,1/2-y
31 -z,1/2-x,y
32 1/2-z,x,-y
33 1/2+y,1/2+z,1/2+x
34 1/2-y,z,-x
35 y,-z,1/2-x
36 -y,1/2-z,x
37 3/4+y,3/4+x,3/4+z
38 3/4-y,1/4-x,1/4+z
39 1/4+y,3/4-x,1/4-z
40 1/4-y,1/4+x,3/4-z
41 3/4+x,3/4+z,3/4+y
42 1/4-x,1/4+z,3/4-y
43 3/4-x,1/4-z,1/4+y
44 1/4+x,3/4-z,1/4-y
45 3/4+z,3/4+y,3/4+x
46 1/4+z,3/4-y,1/4-x
47 1/4-z,1/4+y,3/4-x
48 3/4-z,1/4-y,1/4+x
_cell_length_a                   20.39800(10)
_cell_length_b                   20.39800(10)
_cell_length_c                   20.39800(10)
_cell_angle_alpha                90
_cell_angle_beta                 90
_cell_angle_gamma                90
_cell_volume                     8487.17
loop_
_atom_site_label
_atom_site_type_symbol
_atom_site_fract_x
_atom_site_fract_y
_atom_site_fract_z
In1 In 0.5000 0.2500 0.1250
O1 O 0.5821(2) 0.1959(2) 0.1655(2)
O2 O 0.5634(2) 0.2859(2) 0.2188(2)
C1 C 0.6531(3) 0.2204(3) 0.2530(4)
C2 C 0.6934(3) 0.1672(3) 0.2395(3)
H1 H 0.6845 0.1406 0.2035
C3 C 0.5965(3) 0.2356(3) 0.2106(3)
In1G In 0.8750 0.0000 0.2500
In1J In 0.7500 0.3750 0.5000
In1I In 0.7500 0.6250 0.0000
In1F In 0.3750 0.5000 -0.2500
In1D In 0.1250 0.5000 0.2500
In1H In 0.2500 0.1250 0.5000
In1K In 0.2500 -0.1250 0.0000
In1E In 0.6250 0.0000 -0.2500
O1G O 0.8345(2) 0.0821(2) 0.3041(2)
O1J O 0.6959(2) 0.3345(2) 0.4179(2)
O1O O 0.5541(2) 0.3321(2) 0.0845(2)
O1R O 0.6679(2) 0.5845(2) -0.0541(2)
O1T O 0.4155(2) 0.4459(2) -0.1679(2)
O1Y O 0.4179(2) 0.3041(2) 0.1655(2)
O1CA O 0.1655(2) 0.4179(2) 0.3041(2)
O1GA O 0.3041(2) 0.1655(2) 0.4179(2)
O1LA O 0.4459(2) 0.1679(2) 0.0845(2)
O1NA O 0.3321(2) -0.0845(2) -0.0541(2)
O1UA O 0.5845(2) 0.0541(2) -0.1679(2)
O1U O 0.9155(2) 0.0541(2) 0.1679(2)
O1DA O 0.8345(2) -0.0821(2) 0.1959(2)
O1RA O 0.9155(2) -0.0541(2) 0.3321(2)
O1P O 0.8321(2) 0.4155(2) 0.4459(2)
O1IA O 0.8041(2) 0.3345(2) 0.5821(2)
O1OA O 0.6679(2) 0.4155(2) 0.5541(2)
O2G O 0.7812(2) 0.0634(2) 0.2141(2)
O2J O 0.7859(2) 0.2812(2) 0.4366(2)
O2O O 0.4641(2) 0.3134(2) 0.0312(2)
O2R O 0.6866(2) 0.5312(2) 0.0359(2)
O2T O 0.4688(2) 0.5359(2) -0.1866(2)
O2Y O 0.4366(2) 0.2141(2) 0.2188(2)
O2CA O 0.2188(2) 0.4366(2) 0.2141(2)
O2GA O 0.2141(2) 0.2188(2) 0.4366(2)
O2LA O 0.5359(2) 0.1866(2) 0.0312(2)
O2NA O 0.3134(2) -0.0312(2) 0.0359(2)
O2UA O 0.5312(2) -0.0359(2) -0.1866(2)
O2U O 0.9688(2) -0.0359(2) 0.1866(2)
O2DA O 0.7812(2) -0.0634(2) 0.2859(2)
O2RA O 0.9688(2) 0.0359(2) 0.3134(2)
O2P O 0.8134(2) 0.4688(2) 0.5359(2)
O2IA O 0.7141(2) 0.2812(2) 0.5634(2)
O2OA O 0.6866(2) 0.4688(2) 0.4641(2)
C1G C 0.7470(4) 0.1531(3) 0.2796(3)
C1J C 0.7204(3) 0.2470(4) 0.3469(3)
C1O C 0.5296(3) 0.4031(3) -0.0030(4)
C1R C 0.5969(3) 0.4970(4) -0.0296(3)
C1T C 0.5030(4) 0.4704(3) -0.0969(3)
C1Y C 0.3469(3) 0.2796(3) 0.2530(4)
C1CA C 0.2530(4) 0.3469(3) 0.2796(3)
C1GA C 0.2796(3) 0.2530(4) 0.3469(3)
C1LA C 0.4704(3) 0.0969(3) -0.0030(4)
C1NA C 0.4031(3) 0.0030(4) -0.0296(3)
C1UA C 0.4970(4) 0.0296(3) -0.0969(3)
C2G C 0.7605(3) 0.1934(3) 0.3328(3)
C2J C 0.6672(3) 0.2605(3) 0.3066(3)
C2O C 0.5828(3) 0.4434(3) 0.0105(3)
C2R C 0.5566(3) 0.5105(3) -0.0828(3)
C2T C 0.4895(3) 0.4172(3) -0.0566(3)
C2Y C 0.3066(3) 0.3328(3) 0.2395(3)
C2CA C 0.2395(3) 0.3066(3) 0.3328(3)
C2GA C 0.3328(3) 0.2395(3) 0.3066(3)
C2LA C 0.4172(3) 0.0566(3) 0.0105(3)
C2NA C 0.4434(3) -0.0105(3) -0.0828(3)
C2UA C 0.5105(3) 0.0828(3) -0.0566(3)
H1J H 0.6406 0.2965 0.3155
H1G H 0.7965 0.1845 0.3594
H1O H 0.6094 0.4345 0.0465
H1T H 0.4535 0.3906 -0.0655
H1R H 0.5655 0.5465 -0.1094
H1Y H 0.3155 0.3594 0.2035
H1GA H 0.3594 0.2035 0.3155
H1CA H 0.2035 0.3155 0.3594
H1LA H 0.3906 0.0655 0.0465
H1UA H 0.5465 0.1094 -0.0655
H1NA H 0.4345 -0.0465 -0.1094
C3G C 0.7894(3) 0.0965(3) 0.2644(3)
C3J C 0.7356(3) 0.2894(3) 0.4035(3)
C3O C 0.5144(3) 0.3465(3) 0.0394(3)
C3R C 0.6535(3) 0.5394(3) -0.0144(3)
C3T C 0.4606(3) 0.4856(3) -0.1535(3)
C3Y C 0.4035(3) 0.2644(3) 0.2106(3)
C3CA C 0.2106(3) 0.4035(3) 0.2644(3)
C3GA C 0.2644(3) 0.2106(3) 0.4035(3)
C3LA C 0.4856(3) 0.1535(3) 0.0394(3)
C3NA C 0.3465(3) -0.0394(3) -0.0144(3)
C3UA C 0.5394(3) 0.0144(3) -0.1535(3)
loop_
_geom_bond_atom_site_label_1
_geom_bond_atom_site_label_2
_geom_bond_site_symmetry_1
_geom_bond_site_symmetry_2
In1 O1 1_555 1_555
O1 C3 1_555 1_555
O2 In1 1_555 1_555
C1 C2 1_555 1_555
C2 H1 1_555 1_555
C3 O2 1_555 1_555
In1G O1G 1_555 1_555
In1J O1J 1_555 1_555
In1I O1R 1_555 1_555
In1F O1T 1_555 1_555
In1D O1CA 1_555 1_555
In1H O1GA 1_555 1_555
In1K O1NA 1_555 1_555
In1E O1UA 1_555 1_555
O1G C3G 1_555 1_555
O1J C3J 1_555 1_555
O1O In1 1_555 1_555
O1R C3R 1_555 1_555
O1T C3T 1_555 1_555
O1Y In1 1_555 1_555
O1CA C3CA 1_555 1_555
O1GA C3GA 1_555 1_555
O1LA In1 1_555 1_555
O1NA C3NA 1_555 1_555
O1UA C3UA 1_555 1_555
O1U In1G 1_555 1_555
O1DA In1G 1_555 1_555
O1RA In1G 1_555 1_555
O1P In1J 1_555 1_555
O1IA In1J 1_555 1_555
O1OA In1J 1_555 1_555
O2G In1G 1_555 1_555
O2J In1J 1_555 1_555
O2O In1 1_555 1_555
O2R In1I 1_555 1_555
O2T In1F 1_555 1_555
O2Y In1 1_555 1_555
O2CA In1D 1_555 1_555
O2GA In1H 1_555 1_555
O2LA In1 1_555 1_555
O2NA In1K 1_555 1_555
O2UA In1E 1_555 1_555
O2U In1G 1_555 1_555
O2DA In1G 1_555 1_555
O2RA In1G 1_555 1_555
O2P In1J 1_555 1_555
O2IA In1J 1_555 1_555
O2OA In1J 1_555 1_555
C1G C2 1_555 1_555
C1J C2G 1_555 1_555
C1O C2O 1_555 1_555
C1R C2O 1_555 1_555
C1T C2R 1_555 1_555
C1Y C2Y 1_555 1_555
C1CA C2Y 1_555 1_555
C1GA C2CA 1_555 1_555
C1LA C2LA 1_555 1_555
C1NA C2LA 1_555 1_555
C1UA C2NA 1_555 1_555
C2G C1G 1_555 1_555
C2J C1 1_555 1_555
C2O H1O 1_555 1_555
C2R C1R 1_555 1_555
C2T C1O 1_555 1_555
C2Y H1Y 1_555 1_555
C2CA C1CA 1_555 1_555
C2GA C1Y 1_555 1_555
C2LA H1LA 1_555 1_555
C2NA C1NA 1_555 1_555
C2UA C1LA 1_555 1_555
H1J C2J 1_555 1_555
H1G C2G 1_555 1_555
H1T C2T 1_555 1_555
H1R C2R 1_555 1_555
H1GA C2GA 1_555 1_555
H1CA C2CA 1_555 1_555
H1UA C2UA 1_555 1_555
H1NA C2NA 1_555 1_555
C3G O2G 1_555 1_555
C3J O2J 1_555 1_555
C3O O1O 1_555 1_555
C3R O2R 1_555 1_555
C3T O2T 1_555 1_555
C3Y O1Y 1_555 1_555
C3CA O2CA 1_555 1_555
C3GA O2GA 1_555 1_555
C3LA O1LA 1_555 1_555
C3NA O2NA 1_555 1_555
C3UA O2UA 1_555 1_555
C1 C3 1_555 1_555
O2O C3O 1_555 1_555
O2Y C3Y 1_555 1_555
O2LA C3LA 1_555 1_555
C1G C3G 1_555 1_555
C1J C2J 1_555 1_555
C1J C3J 1_555 1_555
C1O C3O 1_555 1_555
C1R C3R 1_555 1_555
C1T C2T 1_555 1_555
C1T C3T 1_555 1_555
C1Y C3Y 1_555 1_555
C1CA C3CA 1_555 1_555
C1GA C2GA 1_555 1_555
C1GA C3GA 1_555 1_555
C1LA C3LA 1_555 1_555
C1NA C3NA 1_555 1_555
C1UA C2UA 1_555 1_555
C1UA C3UA 1_555 1_555

#END
