
#######################################################################
#
#                 Cambridge Crystallographic Data Centre
#                                CCDC 
#
#######################################################################
#
# If this CIF has been generated from an entry in the Cambridge 
# Structural Database, then it will include bibliographic, chemical, 
# crystal, experimental, refinement or atomic coordinate data resulting 
# from the CCDC's data processing and validation procedures.
#
#######################################################################

data_CUFDUD
_symmetry_cell_setting           rhombohedral
_symmetry_space_group_name_H-M   'R 3 c'
_symmetry_Int_Tables_number      161
_space_group_name_Hall           'R 3 -2"c'
loop_
_symmetry_equiv_pos_site_id
_symmetry_equiv_pos_as_xyz
1 x,y,z
2 -y,x-y,z
3 -x+y,-x,z
4 -y,-x,1/2+z
5 -x+y,y,1/2+z
6 x,x-y,1/2+z
7 2/3+x,1/3+y,1/3+z
8 2/3-y,1/3+x-y,1/3+z
9 2/3-x+y,1/3-x,1/3+z
10 2/3-y,1/3-x,5/6+z
11 2/3-x+y,1/3+y,5/6+z
12 2/3+x,1/3+x-y,5/6+z
13 1/3+x,2/3+y,2/3+z
14 1/3-y,2/3+x-y,2/3+z
15 1/3-x+y,2/3-x,2/3+z
16 1/3-y,2/3-x,1/6+z
17 1/3-x+y,2/3+y,1/6+z
18 1/3+x,2/3+x-y,1/6+z
_cell_length_a                   29.14530(10)
_cell_length_b                   29.14530(10)
_cell_length_c                   16.9910(2)
_cell_angle_alpha                90
_cell_angle_beta                 90
_cell_angle_gamma                120
_cell_volume                     12499.3
loop_
_atom_site_label
_atom_site_type_symbol
_atom_site_fract_x
_atom_site_fract_y
_atom_site_fract_z
N1 N 0.38550(17) 0.88671(16) 1.5625(3)
C12 C 0.4569(3) 0.9307(3) 1.6685(5)
H4 H 0.4535 0.8973 1.6849
H5 H 0.4341 0.9381 1.7014
C13 C 0.3299(3) 0.8523(3) 1.4345(5)
H6 H 0.3179 0.8156 1.4473
H7 H 0.3036 0.8610 1.4529
C14 C 0.4103(3) 0.8150(3) 1.5622(4)
H8 H 0.4460 0.8398 1.5798
H9 H 0.4104 0.8141 1.5051
C15 C 0.4421(2) 0.9285(2) 1.5841(3)
H10 H 0.4662 0.9221 1.5529
H11 H 0.4475 0.9630 1.5691
C16 C 0.3470(2) 0.8998(2) 1.6023(4)
H12 H 0.3531 0.9012 1.6586
H13 H 0.3114 0.8706 1.5927
C17 C 0.3486(3) 0.9509(3) 1.5780(4)
H14 H 0.3843 0.9806 1.5839
H15 H 0.3383 0.9488 1.5233
C18 C 0.3381(5) 0.8613(4) 1.3469(7)
H16 H 0.3054 0.8391 1.3200
H17 H 0.3644 0.8528 1.3298
H18 H 0.3499 0.8977 1.3352
C19 C 0.3835(2) 0.8887(2) 1.4728(3)
H19 H 0.4091 0.8800 1.4516
H20 H 0.3948 0.9249 1.4574
C20 C 0.3933(4) 0.7600(4) 1.5947(6)
H21 H 0.4174 0.7488 1.5768
H22 H 0.3581 0.7354 1.5766
H23 H 0.3935 0.7611 1.6512
C21 C 0.3731(3) 0.8326(3) 1.5898(4)
H24 H 0.3728 0.8323 1.6469
H25 H 0.3377 0.8070 1.5722
C22 C 0.3107(4) 0.9589(3) 1.6301(6)
H26 H 0.3108 0.9906 1.6144
H27 H 0.3217 0.9621 1.6840
H28 H 0.2756 0.9291 1.6247
C23 C 0.5156(4) 0.9763(4) 1.6753(5)
H29 H 0.5273 0.9790 1.7289
H30 H 0.5182 1.0091 1.6595
H31 H 0.5375 0.9687 1.6418
In1 In 0.530981(10) 0.842931(11) 1.386513(16)
C1 C 0.59893(15) 0.79216(16) 1.2189(3)
O1 O 0.59175(11) 0.82798(12) 1.34111(17)
O2 O 0.44567(11) 0.80374(11) 1.36670(18)
O3 O 0.60022(12) 0.70999(13) 0.97708(17)
O4 O 0.74934(11) 0.77432(13) 1.15880(17)
O5 O 0.47735(11) 0.74981(11) 1.38057(19)
O6 O 0.53341(12) 0.81588(13) 1.24841(17)
O7 O 0.52694(12) 0.70817(13) 1.01040(18)
C2 C 0.64710(17) 0.75193(17) 1.1230(3)
H1 H 0.6628 0.7377 1.0913
C3 C 0.43896(16) 0.75726(17) 1.3700(2)
C4 C 0.64875(16) 0.79994(16) 1.2390(2)
H2 H 0.6652 0.8179 1.2850
C5 C 0.67384(16) 0.78083(16) 1.1903(2)
C6 C 0.57386(16) 0.76447(17) 1.1510(2)
H3 H 0.5407 0.7595 1.1377
C7 C 0.38424(17) 0.71051(16) 1.3640(3)
O8 O 0.75323(11) 0.81869(12) 1.26605(18)
C8 C 0.57374(17) 0.71860(17) 1.0261(2)
C9 C 0.57237(17) 0.81307(16) 1.2718(3)
C10 C 0.72826(16) 0.79164(17) 1.2075(2)
C11 C 0.59792(17) 0.74427(17) 1.1031(2)
C24 C 0.37729(17) 0.65943(16) 1.3643(2)
H32 H 0.4065 0.6547 1.3646
In1A In 0.157069(11) 0.688050(15) 1.386513(16)
In1B In 0.311950(15) 0.469019(10) 1.386513(16)
In1C In 0.157069(11) 0.469019(10) 0.886513(16)
In1D In 0.311950(15) 0.842931(11) 0.886513(16)
In1E In 0.530981(10) 0.688050(15) 0.886513(16)
In1I In 0.823736(11) 0.802352(10) 1.219846(16)
In1J In -0.021383(15) 0.176264(11) 1.219846(16)
In1K In 0.197648(10) 1.021383(15) 1.219846(16)
C1A C 0.20784(16) 0.80677(22) 1.2189(3)
C1B C 0.19323(22) 0.40107(15) 1.2189(3)
O1A O 0.17202(12) 0.76377(16) 1.34111(17)
O1B O 0.23623(16) 0.40825(11) 1.34111(17)
O2A O 0.19626(11) 0.64193(16) 1.36670(18)
O2B O 0.35807(16) 0.55433(11) 1.36670(18)
O3A O 0.29001(13) 0.89023(18) 0.97708(17)
O3B O 0.10977(18) 0.39978(12) 0.97708(17)
O3C O 0.29001(13) 0.39978(12) 1.47708(17)
O3D O 0.10977(18) 0.70999(13) 1.47708(17)
O3E O 0.60022(12) 0.89023(18) 1.47708(17)
O4A O 0.22568(13) 0.97502(17) 1.15880(17)
O4B O 0.02498(17) 0.25066(11) 1.15880(17)
O4O O 0.55901(13) 0.91733(11) 1.32547(17)
O4P O 0.35831(17) 0.44099(13) 1.32547(17)
O4Q O 0.08267(11) 0.64169(17) 1.32547(17)
O5A O 0.25019(11) 0.72754(16) 1.38057(19)
O5B O 0.27246(16) 0.52265(11) 1.38057(19)
O6A O 0.18412(13) 0.71753(18) 1.24841(17)
O6B O 0.28247(18) 0.46659(12) 1.24841(17)
O7A O 0.29183(13) 0.81877(18) 1.01040(18)
O7B O 0.18123(18) 0.47306(12) 1.01040(18)
O7C O 0.29183(13) 0.47306(12) 1.51040(18)
O7D O 0.18123(18) 0.70817(13) 1.51040(18)
O7E O 0.52694(12) 0.81877(18) 1.51040(18)
C2A C 0.24807(17) 0.89517(24) 1.1230(3)
C2B C 0.10483(24) 0.35290(17) 1.1230(3)
H1A H 0.2623 0.9251 1.0913
H1B H 0.0749 0.3372 1.0913
C3A C 0.24274(17) 0.68170(23) 1.3700(2)
C3B C 0.31830(23) 0.56104(16) 1.3700(2)
C4A C 0.20006(16) 0.84881(23) 1.2390(2)
C4B C 0.15119(23) 0.35125(16) 1.2390(2)
H2A H 0.1821 0.8473 1.2850
H2B H 0.1527 0.3348 1.2850
C5A C 0.21917(16) 0.89301(23) 1.1903(2)
C5B C 0.10699(23) 0.32616(16) 1.1903(2)
C6A C 0.23553(17) 0.80939(23) 1.1510(2)
C6B C 0.19061(23) 0.42614(16) 1.1510(2)
H3A H 0.2405 0.7812 1.1377
H3B H 0.2188 0.4593 1.1377
C7A C 0.28949(16) 0.67373(23) 1.3640(3)
C7B C 0.32627(23) 0.61576(17) 1.3640(3)
O8A O 0.18131(12) 0.93454(16) 1.26605(18)
O8B O 0.06546(16) 0.24677(11) 1.26605(18)
O8O O 0.51464(12) 0.91344(11) 1.43272(18)
O8P O 0.39879(16) 0.48536(12) 1.43272(18)
O8Q O 0.08656(11) 0.60121(16) 1.43272(18)
C8A C 0.28140(17) 0.85514(24) 1.0261(2)
C8B C 0.14486(24) 0.42626(17) 1.0261(2)
C8C C 0.28140(17) 0.42626(17) 1.5261(2)
C8D C 0.14486(24) 0.71860(17) 1.5261(2)
C8E C 0.57374(17) 0.85514(24) 1.5261(2)
C9A C 0.18693(16) 0.75930(23) 1.2718(3)
C9B C 0.24070(23) 0.42763(17) 1.2718(3)
C10A C 0.20836(17) 0.93662(23) 1.2075(2)
C10B C 0.06338(23) 0.27174(16) 1.2075(2)
C10O C 0.54169(17) 0.93841(16) 1.3742(2)
C10P C 0.39671(23) 0.45831(17) 1.3742(2)
C10Q C 0.06159(16) 0.60329(23) 1.3742(2)
C11A C 0.25573(17) 0.85365(24) 1.1031(2)
C11B C 0.14635(24) 0.40208(17) 1.1031(2)
C24A C 0.34057(16) 0.71786(23) 1.3643(2)
C24B C 0.28214(23) 0.62271(17) 1.3643(2)
H32A H 0.3453 0.7518 1.3646
H32B H 0.2482 0.5935 1.3646
loop_
_geom_bond_atom_site_label_1
_geom_bond_atom_site_label_2
_geom_bond_site_symmetry_1
_geom_bond_site_symmetry_2
In1 O1 1_555 1_555
C1 C4 1_555 1_555
O1 C9 1_555 1_555
O2 In1 1_555 1_555
O3 C8 1_555 1_555
O4 C10 1_555 1_555
O5 In1 1_555 1_555
O6 In1 1_555 1_555
O7 C8 1_555 1_555
C2 H1 1_555 1_555
C3 O2 1_555 1_555
C4 H2 1_555 1_555
C5 C2 1_555 1_555
C6 C1 1_555 1_555
H3 C6 1_555 1_555
C7 C3 1_555 1_555
O8 C10 1_555 1_555
C8 C11 1_555 1_555
C9 C1 1_555 1_555
C10 C5 1_555 1_555
C11 C2 1_555 1_555
N1 C15 1_555 1_555
C12 H4 1_555 1_555
H5 C12 1_555 1_555
C13 H6 1_555 1_555
H7 C13 1_555 1_555
C14 H8 1_555 1_555
H9 C14 1_555 1_555
C15 C12 1_555 1_555
H10 C15 1_555 1_555
H11 C15 1_555 1_555
C16 N1 1_555 1_555
H12 C16 1_555 1_555
H13 C16 1_555 1_555
C17 C16 1_555 1_555
H14 C17 1_555 1_555
H15 C17 1_555 1_555
C18 C13 1_555 1_555
H16 C18 1_555 1_555
H17 C18 1_555 1_555
H18 C18 1_555 1_555
C19 N1 1_555 1_555
H19 C19 1_555 1_555
H20 C19 1_555 1_555
C20 C14 1_555 1_555
H21 C20 1_555 1_555
H22 C20 1_555 1_555
H23 C20 1_555 1_555
C21 N1 1_555 1_555
H24 C21 1_555 1_555
H25 C21 1_555 1_555
C22 C17 1_555 1_555
H26 C22 1_555 1_555
H27 C22 1_555 1_555
H28 C22 1_555 1_555
C23 C12 1_555 1_555
H29 C23 1_555 1_555
H30 C23 1_555 1_555
H31 C23 1_555 1_555
C24 C7 1_555 1_555
H32 C24 1_555 1_555
In1A O1A 1_555 1_555
In1B O1B 1_555 1_555
In1C O3B 1_555 1_555
In1D O3A 1_555 1_555
In1E O3 1_555 1_555
In1I O4 1_555 1_555
In1J O4B 1_555 1_555
In1K O4A 1_555 1_555
C1A C4A 1_555 1_555
C1B C4B 1_555 1_555
O1A C9A 1_555 1_555
O1B C9B 1_555 1_555
O2A In1A 1_555 1_555
O2B In1B 1_555 1_555
O3A C8A 1_555 1_555
O3B C8B 1_555 1_555
O3C In1B 1_555 1_555
O3D In1A 1_555 1_555
O3E In1 1_555 1_555
O4A C10A 1_555 1_555
O4B C10B 1_555 1_555
O4O In1 1_555 1_555
O4P In1B 1_555 1_555
O4Q In1A 1_555 1_555
O5A In1A 1_555 1_555
O5B In1B 1_555 1_555
O6A In1A 1_555 1_555
O6B In1B 1_555 1_555
O7A In1D 1_555 1_555
O7B In1C 1_555 1_555
O7C In1B 1_555 1_555
O7D In1A 1_555 1_555
O7E In1 1_555 1_555
C2A H1A 1_555 1_555
C2B H1B 1_555 1_555
C3A O2A 1_555 1_555
C3B O2B 1_555 1_555
C4A H2A 1_555 1_555
C4B H2B 1_555 1_555
C5A C2A 1_555 1_555
C5B C2B 1_555 1_555
C6A C1A 1_555 1_555
C6B C1B 1_555 1_555
H3A C6A 1_555 1_555
H3B C6B 1_555 1_555
C7A C3A 1_555 1_555
C7B C24 1_555 1_555
O8A In1K 1_555 1_555
O8B In1J 1_555 1_555
O8O In1 1_555 1_555
O8P In1B 1_555 1_555
O8Q In1A 1_555 1_555
C8A O7A 1_555 1_555
C8B O7B 1_555 1_555
C8C O3C 1_555 1_555
C8D O3D 1_555 1_555
C8E O3E 1_555 1_555
C9A C1A 1_555 1_555
C9B C1B 1_555 1_555
C10A C5A 1_555 1_555
C10B C5B 1_555 1_555
C10O O4O 1_555 1_555
C10P O4P 1_555 1_555
C10Q O4Q 1_555 1_555
C11A C2A 1_555 1_555
C11B C2B 1_555 1_555
C24A C7 1_555 1_555
C24B C7A 1_555 1_555
H32A C24A 1_555 1_555
H32B C24B 1_555 1_555
O5 C3 1_555 1_555
O6 C9 1_555 1_555
O7 In1E 1_555 1_555
C4 C5 1_555 1_555
C6 C11 1_555 1_555
O8 In1I 1_555 1_555
C13 C19 1_555 1_555
C14 C21 1_555 1_555
O5A C3A 1_555 1_555
O5B C3B 1_555 1_555
O6A C9A 1_555 1_555
O6B C9B 1_555 1_555
O7C C8C 1_555 1_555
O7D C8D 1_555 1_555
O7E C8E 1_555 1_555
C3B C7B 1_555 1_555
C4A C5A 1_555 1_555
C4B C5B 1_555 1_555
C6A C11A 1_555 1_555
C6B C11B 1_555 1_555
C7A C24A 1_555 1_555
C7B C24B 1_555 1_555
O8A C10A 1_555 1_555
O8B C10B 1_555 1_555
O8O C10O 1_555 1_555
O8P C10P 1_555 1_555
O8Q C10Q 1_555 1_555
C8A C11A 1_555 1_555
C8B C11B 1_555 1_555

#END
