
#######################################################################
#
#                 Cambridge Crystallographic Data Centre
#                                CCDC 
#
#######################################################################
#
# If this CIF has been generated from an entry in the Cambridge 
# Structural Database, then it will include bibliographic, chemical, 
# crystal, experimental, refinement or atomic coordinate data resulting 
# from the CCDC's data processing and validation procedures.
#
#######################################################################

data_CUFFIT
_symmetry_cell_setting           cubic
_symmetry_space_group_name_H-M   'I -4 3 d'
_symmetry_Int_Tables_number      220
_space_group_name_Hall           'I -4bd 2c 3'
loop_
_symmetry_equiv_pos_site_id
_symmetry_equiv_pos_as_xyz
1 x,y,z
2 1/2-x,-y,1/2+z
3 -x,1/2+y,1/2-z
4 1/2+x,1/2-y,-z
5 z,x,y
6 1/2+z,1/2-x,-y
7 1/2-z,-x,1/2+y
8 -z,1/2+x,1/2-y
9 y,z,x
10 -y,1/2+z,1/2-x
11 1/2+y,1/2-z,-x
12 1/2-y,-z,1/2+x
13 1/4+y,1/4+x,1/4+z
14 1/4-y,3/4-x,3/4+z
15 3/4+y,1/4-x,3/4-z
16 3/4-y,3/4+x,1/4-z
17 1/4+x,1/4+z,1/4+y
18 3/4-x,3/4+z,1/4-y
19 1/4-x,3/4-z,3/4+y
20 3/4+x,1/4-z,3/4-y
21 1/4+z,1/4+y,1/4+x
22 3/4+z,1/4-y,3/4-x
23 3/4-z,3/4+y,1/4-x
24 1/4-z,3/4-y,3/4+x
25 1/2+x,1/2+y,1/2+z
26 -x,1/2-y,z
27 1/2-x,y,-z
28 x,-y,1/2-z
29 1/2+z,1/2+x,1/2+y
30 z,-x,1/2-y
31 -z,1/2-x,y
32 1/2-z,x,-y
33 1/2+y,1/2+z,1/2+x
34 1/2-y,z,-x
35 y,-z,1/2-x
36 -y,1/2-z,x
37 3/4+y,3/4+x,3/4+z
38 3/4-y,1/4-x,1/4+z
39 1/4+y,3/4-x,1/4-z
40 1/4-y,1/4+x,3/4-z
41 3/4+x,3/4+z,3/4+y
42 1/4-x,1/4+z,3/4-y
43 3/4-x,1/4-z,1/4+y
44 1/4+x,3/4-z,1/4-y
45 3/4+z,3/4+y,3/4+x
46 1/4+z,3/4-y,1/4-x
47 1/4-z,1/4+y,3/4-x
48 3/4-z,1/4-y,1/4+x
_cell_length_a                   20.43100(10)
_cell_length_b                   20.43100(10)
_cell_length_c                   20.43100(10)
_cell_angle_alpha                90
_cell_angle_beta                 90
_cell_angle_gamma                90
_cell_volume                     8528.43
loop_
_atom_site_label
_atom_site_type_symbol
_atom_site_fract_x
_atom_site_fract_y
_atom_site_fract_z
In1 In 0.0000 0.7500 0.1250
O1 O 0.0829(3) 0.8032(3) 0.1655(3)
O2 O 0.0644(3) 0.7139(3) 0.2183(3)
C1 C 0.1533(4) 0.7787(4) 0.2529(5)
C2 C 0.1668(4) 0.7398(4) 0.3062(4)
H1 H 0.1397 0.7045 0.3157
C3 C 0.0978(4) 0.7639(4) 0.2103(4)
In1F In 0.3750 1.0000 0.2500
In1I In 0.2500 0.6250 0.5000
In1H In -0.2500 1.1250 0.0000
In1D In 0.1250 1.0000 -0.2500
In1E In -0.3750 0.5000 0.2500
In1K In -0.2500 0.8750 0.5000
In1J In 0.2500 0.3750 0.0000
In1G In -0.1250 0.5000 -0.2500
O1F O 0.3345(3) 0.9171(3) 0.3032(3)
O1I O 0.1968(3) 0.6655(3) 0.4171(3)
O1O O -0.0532(3) 0.8329(3) 0.0845(3)
O1S O -0.1671(3) 1.0845(3) -0.0532(3)
O1W O 0.0845(3) 0.9468(3) -0.1671(3)
O1Y O -0.0829(3) 0.6968(3) 0.1655(3)
O1BA O -0.3345(3) 0.5829(3) 0.3032(3)
O1HA O -0.1968(3) 0.8345(3) 0.4171(3)
O1LA O 0.0532(3) 0.6671(3) 0.0845(3)
O1OA O 0.1671(3) 0.4155(3) -0.0532(3)
O1RA O -0.0845(3) 0.5532(3) -0.1671(3)
O1T O 0.4155(3) 1.0532(3) 0.3329(3)
O1EA O 0.3345(3) 1.0829(3) 0.1968(3)
O1SA O 0.4155(3) 0.9468(3) 0.1671(3)
O1R O 0.1671(3) 0.5845(3) 0.5532(3)
O1FA O 0.3032(3) 0.6655(3) 0.5829(3)
O1QA O 0.3329(3) 0.5845(3) 0.4468(3)
O2F O 0.2817(3) 0.9356(3) 0.2139(3)
O2I O 0.2861(3) 0.7183(3) 0.4356(3)
O2O O 0.0361(3) 0.8144(3) 0.0317(3)
O2S O -0.1856(3) 1.0317(3) 0.0361(3)
O2W O 0.0317(3) 1.0361(3) -0.1856(3)
O2Y O -0.0644(3) 0.7861(3) 0.2183(3)
O2BA O -0.2817(3) 0.5644(3) 0.2139(3)
O2HA O -0.2861(3) 0.7817(3) 0.4356(3)
O2LA O -0.0361(3) 0.6856(3) 0.0317(3)
O2OA O 0.1856(3) 0.4683(3) 0.0361(3)
O2RA O -0.0317(3) 0.4639(3) -0.1856(3)
O2T O 0.4683(3) 0.9639(3) 0.3144(3)
O2EA O 0.2817(3) 1.0644(3) 0.2861(3)
O2SA O 0.4683(3) 1.0361(3) 0.1856(3)
O2R O 0.1856(3) 0.5317(3) 0.4639(3)
O2FA O 0.2139(3) 0.7183(3) 0.5644(3)
O2QA O 0.3144(3) 0.5317(3) 0.5361(3)
C1I C 0.2213(4) 0.7529(5) 0.3467(4)
C1F C 0.2471(5) 0.8467(4) 0.2787(4)
C1O C -0.0287(4) 0.9033(4) -0.0029(5)
C1W C -0.0029(5) 0.9713(4) -0.0967(4)
C1S C -0.0967(4) 0.9971(5) -0.0287(4)
C1Y C -0.1533(4) 0.7213(4) 0.2529(5)
C1HA C -0.2213(4) 0.7471(5) 0.3467(4)
C1BA C -0.2471(5) 0.6533(4) 0.2787(4)
C1LA C 0.0287(4) 0.5967(4) -0.0029(5)
C1RA C 0.0029(5) 0.5287(4) -0.0967(4)
C1OA C 0.0967(4) 0.5029(5) -0.0287(4)
C2I C 0.2602(4) 0.8062(4) 0.3332(4)
C2F C 0.1938(4) 0.8332(4) 0.2398(4)
C2O C 0.0102(4) 0.9168(4) -0.0562(4)
C2W C -0.0562(4) 1.0102(4) -0.0832(4)
C2S C -0.0832(4) 0.9438(4) 0.0102(4)
C2Y C -0.1668(4) 0.7602(4) 0.3062(4)
C2HA C -0.2602(4) 0.6938(4) 0.3332(4)
C2BA C -0.1938(4) 0.6668(4) 0.2398(4)
C2LA C -0.0102(4) 0.5832(4) -0.0562(4)
C2RA C 0.0562(4) 0.4898(4) -0.0832(4)
C2OA C 0.0832(4) 0.5562(4) 0.0102(4)
H1F H 0.1843 0.8603 0.2045
H1I H 0.2955 0.8157 0.3603
H1O H 0.0455 0.8897 -0.0657
H1S H -0.1103 0.9343 0.0455
H1W H -0.0657 1.0455 -0.1103
H1Y H -0.1397 0.7955 0.3157
H1BA H -0.1843 0.6397 0.2045
H1HA H -0.2955 0.6843 0.3603
H1LA H -0.0455 0.6103 -0.0657
H1OA H 0.1103 0.5657 0.0455
H1RA H 0.0657 0.4545 -0.1103
C3F C 0.2897(4) 0.9022(4) 0.2639(4)
C3I C 0.2361(4) 0.7103(4) 0.4022(4)
C3O C -0.0139(4) 0.8478(4) 0.0397(4)
C3S C -0.1522(4) 1.0397(4) -0.0139(4)
C3W C 0.0397(4) 0.9861(4) -0.1522(4)
C3Y C -0.0978(4) 0.7361(4) 0.2103(4)
C3BA C -0.2897(4) 0.5978(4) 0.2639(4)
C3HA C -0.2361(4) 0.7897(4) 0.4022(4)
C3LA C 0.0139(4) 0.6522(4) 0.0397(4)
C3OA C 0.1522(4) 0.4603(4) -0.0139(4)
C3RA C -0.0397(4) 0.5139(4) -0.1522(4)
loop_
_geom_bond_atom_site_label_1
_geom_bond_atom_site_label_2
_geom_bond_site_symmetry_1
_geom_bond_site_symmetry_2
In1 O1 1_555 1_555
O1 C3 1_555 1_555
O2 In1 1_555 1_555
C1 C2 1_555 1_555
C2 H1 1_555 1_555
C3 O2 1_555 1_555
In1F O1F 1_555 1_555
In1I O1I 1_555 1_555
In1H O1S 1_555 1_555
In1D O1W 1_555 1_555
In1E O1BA 1_555 1_555
In1K O1HA 1_555 1_555
In1J O1OA 1_555 1_555
In1G O1RA 1_555 1_555
O1F C3F 1_555 1_555
O1I C3I 1_555 1_555
O1O In1 1_555 1_555
O1S C3S 1_555 1_555
O1W C3W 1_555 1_555
O1Y In1 1_555 1_555
O1BA C3BA 1_555 1_555
O1HA C3HA 1_555 1_555
O1LA In1 1_555 1_555
O1OA C3OA 1_555 1_555
O1RA C3RA 1_555 1_555
O1T In1F 1_555 1_555
O1EA In1F 1_555 1_555
O1SA In1F 1_555 1_555
O1R In1I 1_555 1_555
O1FA In1I 1_555 1_555
O1QA In1I 1_555 1_555
O2F In1F 1_555 1_555
O2I In1I 1_555 1_555
O2O In1 1_555 1_555
O2S In1H 1_555 1_555
O2W In1D 1_555 1_555
O2Y In1 1_555 1_555
O2BA In1E 1_555 1_555
O2HA In1K 1_555 1_555
O2LA In1 1_555 1_555
O2OA In1J 1_555 1_555
O2RA In1G 1_555 1_555
O2T In1F 1_555 1_555
O2EA In1F 1_555 1_555
O2SA In1F 1_555 1_555
O2R In1I 1_555 1_555
O2FA In1I 1_555 1_555
O2QA In1I 1_555 1_555
C1I C2 1_555 1_555
C1F C2I 1_555 1_555
C1O C2O 1_555 1_555
C1W C2O 1_555 1_555
C1S C2W 1_555 1_555
C1Y C2Y 1_555 1_555
C1HA C2Y 1_555 1_555
C1BA C2HA 1_555 1_555
C1LA C2LA 1_555 1_555
C1RA C2LA 1_555 1_555
C1OA C2RA 1_555 1_555
C2I C1I 1_555 1_555
C2F C1 1_555 1_555
C2O H1O 1_555 1_555
C2W C1W 1_555 1_555
C2S C1O 1_555 1_555
C2Y H1Y 1_555 1_555
C2HA C1HA 1_555 1_555
C2BA C1Y 1_555 1_555
C2LA H1LA 1_555 1_555
C2RA C1RA 1_555 1_555
C2OA C1LA 1_555 1_555
H1F C2F 1_555 1_555
H1I C2I 1_555 1_555
H1S C2S 1_555 1_555
H1W C2W 1_555 1_555
H1BA C2BA 1_555 1_555
H1HA C2HA 1_555 1_555
H1OA C2OA 1_555 1_555
H1RA C2RA 1_555 1_555
C3F O2F 1_555 1_555
C3I O2I 1_555 1_555
C3O O1O 1_555 1_555
C3S O2S 1_555 1_555
C3W O2W 1_555 1_555
C3Y O1Y 1_555 1_555
C3BA O2BA 1_555 1_555
C3HA O2HA 1_555 1_555
C3LA O1LA 1_555 1_555
C3OA O2OA 1_555 1_555
C3RA O2RA 1_555 1_555
C1 C3 1_555 1_555
O2O C3O 1_555 1_555
O2Y C3Y 1_555 1_555
O2LA C3LA 1_555 1_555
C1I C3I 1_555 1_555
C1F C2F 1_555 1_555
C1F C3F 1_555 1_555
C1O C3O 1_555 1_555
C1W C3W 1_555 1_555
C1S C2S 1_555 1_555
C1S C3S 1_555 1_555
C1Y C3Y 1_555 1_555
C1HA C3HA 1_555 1_555
C1BA C2BA 1_555 1_555
C1BA C3BA 1_555 1_555
C1LA C3LA 1_555 1_555
C1RA C3RA 1_555 1_555
C1OA C2OA 1_555 1_555
C1OA C3OA 1_555 1_555

#END
