
#######################################################################
#
#                 Cambridge Crystallographic Data Centre
#                                CCDC 
#
#######################################################################
#
# If this CIF has been generated from an entry in the Cambridge 
# Structural Database, then it will include bibliographic, chemical, 
# crystal, experimental, refinement or atomic coordinate data resulting 
# from the CCDC's data processing and validation procedures.
#
#######################################################################

data_CUFFAL
_symmetry_cell_setting           rhombohedral
_symmetry_space_group_name_H-M   'R 3 c'
_symmetry_Int_Tables_number      161
_space_group_name_Hall           'R 3 -2"c'
loop_
_symmetry_equiv_pos_site_id
_symmetry_equiv_pos_as_xyz
1 x,y,z
2 -y,x-y,z
3 -x+y,-x,z
4 -y,-x,1/2+z
5 -x+y,y,1/2+z
6 x,x-y,1/2+z
7 2/3+x,1/3+y,1/3+z
8 2/3-y,1/3+x-y,1/3+z
9 2/3-x+y,1/3-x,1/3+z
10 2/3-y,1/3-x,5/6+z
11 2/3-x+y,1/3+y,5/6+z
12 2/3+x,1/3+x-y,5/6+z
13 1/3+x,2/3+y,2/3+z
14 1/3-y,2/3+x-y,2/3+z
15 1/3-x+y,2/3-x,2/3+z
16 1/3-y,2/3-x,1/6+z
17 1/3-x+y,2/3+y,1/6+z
18 1/3+x,2/3+x-y,1/6+z
_cell_length_a                   29.155(2)
_cell_length_b                   29.155(2)
_cell_length_c                   17.367(3)
_cell_angle_alpha                90
_cell_angle_beta                 90
_cell_angle_gamma                120
_cell_volume                     12784.4
loop_
_atom_site_label
_atom_site_type_symbol
_atom_site_fract_x
_atom_site_fract_y
_atom_site_fract_z
C13 C 0.8566(7) 0.1122(6) 0.0701(12)
H5 H 0.8247 0.1138 0.0799
H6 H 0.8827 0.1359 0.1069
C14 C 0.8744(9) 0.1352(8) -0.001(3)
H7 H 0.8475 0.1152 -0.0390
H8 H 0.9059 0.1337 -0.0139
C15 C 0.8183(9) 0.0103(13) 0.3499(12)
H9 H 0.7959 -0.0027 0.3945
H10 H 0.8294 0.0470 0.3425
H11 H 0.8488 0.0064 0.3573
C16 C 0.9292(12) 0.2298(9) 0.0366(14)
H12 H 0.9337 0.2643 0.0268
H13 H 0.9604 0.2292 0.0206
H14 H 0.9236 0.2222 0.0906
C17 C 0.9985(10) 0.0831(13) 0.0016(16)
H15 H 1.0257 0.0745 -0.0089
H16 H 1.0116 0.1199 -0.0094
H17 H 0.9682 0.0618 -0.0302
C18 C 0.8875(9) 0.1934(7) -0.0028(17)
H18 H 0.8924 0.2045 -0.0563
H19 H 0.8565 0.1944 0.0156
C19 C 0.6488(7) -0.0245(7) 0.0273(19)
H20 H 0.6240 -0.0512 -0.0069
H21 H 0.6536 0.0094 0.0127
H22 H 0.6356 -0.0325 0.0791
C20 C 0.7878(14) -0.0211(15) 0.279(4)
H23 H 0.7778 -0.0580 0.2855
H24 H 0.7558 -0.0191 0.2734
C21 C 0.7958(6) 0.0187(6) 0.0542(13)
H25 H 0.8029 0.0236 -0.0007
H26 H 0.7910 -0.0159 0.0668
C22 C 0.7022(6) -0.0229(6) 0.0226(14)
H27 H 0.6962 -0.0575 0.0379
H28 H 0.7129 -0.0180 -0.0310
C23 C 0.8208(10) 0.0005(16) 0.2126(12)
H29 H 0.8028 -0.0242 0.1709
H30 H 0.8529 -0.0007 0.2228
C24 C 0.7460(5) 0.0158(6) 0.0666(11)
H31 H 0.7502 0.0503 0.0554
H32 H 0.7372 0.0087 0.1207
C25 C 0.9389(7) 0.0835(8) 0.1119(12)
H33 H 0.9339 0.0760 0.1666
H34 H 0.9490 0.1203 0.1040
C26 C 0.8911(6) 0.0497(6) 0.0711(14)
H35 H 0.8811 0.0131 0.0811
H36 H 0.8977 0.0559 0.0163
C27 C 0.9837(9) 0.0730(10) 0.0803(17)
H37 H 1.0001 0.0603 0.1129
C28 C 0.8392(9) 0.0579(11) 0.1793(13)
H38 H 0.8137 0.0685 0.1934
H39 H 0.8732 0.0832 0.2014
N1 N 0.8439(5) 0.0577(4) 0.0931(6)
In1 In 0.69353(3) 0.15960(3) 0.11451(7)
O1 O 0.7228(3) 0.1904(3) 0.2511(5)
O2 O 0.7667(3) 0.1730(3) 0.1653(6)
O3 O 0.6434(3) 0.0883(4) 0.1778(5)
O4 O 0.6065(3) 0.0881(4) 0.0654(6)
O5 O 0.7180(3) 0.1119(3) 0.0275(5)
O6 O 0.7157(3) 0.1830(3) -0.0064(6)
O7 O 0.7315(3) 0.2531(3) 0.1196(5)
O8 O 0.6455(3) 0.1978(3) 0.1277(6)
C1 C 0.8088(4) 0.2070(5) 0.2867(11)
C2 C 0.8513(5) 0.2004(5) 0.2643(8)
H1 H 0.8515 0.1866 0.2161
C3 C 0.8936(5) 0.2146(5) 0.3154(8)
C4 C 0.8953(5) 0.2410(5) 0.3831(8)
H2 H 0.9247 0.2536 0.4151
C5 C 0.8534(5) 0.2486(4) 0.4034(8)
C6 C 0.8090(5) 0.2293(5) 0.3525(7)
H3 H 0.7799 0.2326 0.3662
C7 C 0.7618(5) 0.1885(5) 0.2300(9)
C8 C 0.6052(6) 0.0649(5) 0.1286(11)
C9 C 0.7270(5) 0.1470(5) -0.0219(9)
C10 C 0.6233(5) 0.2813(5) 0.1278(9)
H4 H 0.5946 0.2470 0.1288
C11 C 0.6746(5) 0.2899(5) 0.1270(9)
C12 C 0.6851(6) 0.2446(5) 0.1262(7)
C3K C 0.5603(5) 0.0123(7) 0.1487(8)
C5C C 0.7514(4) 0.1466(5) -0.0966(8)
C8Q C 0.9385(6) 0.2070(8) 0.2953(11)
C9C C 0.8530(5) 0.2730(5) 0.4781(9)
C10A C 0.7187(5) 0.3420(7) 0.1278(9)
C11B C 0.6153(7) 0.3254(5) 0.1270(9)
loop_
_geom_bond_atom_site_label_1
_geom_bond_atom_site_label_2
_geom_bond_site_symmetry_1
_geom_bond_site_symmetry_2
In1 O1 1_555 1_555
O1 C7 1_555 1_555
O2 In1 1_555 1_555
O3 In1 1_555 1_555
O4 In1 1_555 1_555
O5 In1 1_555 1_555
O6 In1 1_555 1_555
O7 In1 1_555 1_555
O8 In1 1_555 1_555
C1 C2 1_555 1_555
C2 H1 1_555 1_555
C3 C2 1_555 1_555
C4 C3 1_555 1_555
H2 C4 1_555 1_555
C5 C4 1_555 1_555
C6 C1 1_555 1_555
H3 C6 1_555 1_555
C7 O2 1_555 1_555
C8 O3 1_555 1_555
C9 O5 1_555 1_555
C10 H4 1_555 1_555
C11 C10 1_555 1_555
C12 O7 1_555 1_555
C13 H5 1_555 1_555
H6 C13 1_555 1_555
C14 C13 1_555 1_555
H7 C14 1_555 1_555
H8 C14 1_555 1_555
C15 H9 1_555 1_555
H10 C15 1_555 1_555
H11 C15 1_555 1_555
C16 H12 1_555 1_555
H13 C16 1_555 1_555
H14 C16 1_555 1_555
C17 H15 1_555 1_555
H16 C17 1_555 1_555
H17 C17 1_555 1_555
C18 C14 1_555 1_555
H18 C18 1_555 1_555
H19 C18 1_555 1_555
C19 H20 1_555 1_555
H21 C19 1_555 1_555
H22 C19 1_555 1_555
C20 C15 1_555 1_555
H23 C20 1_555 1_555
H24 C20 1_555 1_555
C21 H25 1_555 1_555
H26 C21 1_555 1_555
C22 C19 1_555 1_555
H27 C22 1_555 1_555
H28 C22 1_555 1_555
C23 C20 1_555 1_555
H29 C23 1_555 1_555
H30 C23 1_555 1_555
C24 C21 1_555 1_555
H31 C24 1_555 1_555
H32 C24 1_555 1_555
C25 H33 1_555 1_555
H34 C25 1_555 1_555
C26 C25 1_555 1_555
H35 C26 1_555 1_555
H36 C26 1_555 1_555
C27 C17 1_555 1_555
H37 C27 1_555 1_555
C28 C23 1_555 1_555
H38 C28 1_555 1_555
H39 C28 1_555 1_555
N1 C13 1_555 1_555
C3K C8 1_555 1_555
C5C C9 1_555 1_555
C8Q C3 1_555 1_555
C9C C5 1_555 1_555
C10A C11 1_555 1_555
C11B C10 1_555 1_555
O4 C8 1_555 1_555
O6 C9 1_555 1_555
O8 C12 1_555 1_555
C1 C7 1_555 1_555
C5 C6 1_555 1_555
C11 C12 1_555 1_555
C16 C18 1_555 1_555
C21 N1 1_555 1_555
C22 C24 1_555 1_555
C25 C27 1_555 1_555
C26 N1 1_555 1_555
C28 N1 1_555 1_555

#END
