
#######################################################################
#
#                 Cambridge Crystallographic Data Centre
#                                CCDC 
#
#######################################################################
#
# If this CIF has been generated from an entry in the Cambridge 
# Structural Database, then it will include bibliographic, chemical, 
# crystal, experimental, refinement or atomic coordinate data resulting 
# from the CCDC's data processing and validation procedures.
#
#######################################################################

data_CUFGUH
_symmetry_cell_setting           monoclinic
_symmetry_space_group_name_H-M   'C c'
_symmetry_Int_Tables_number      9
_space_group_name_Hall           'C -2yc'
loop_
_symmetry_equiv_pos_site_id
_symmetry_equiv_pos_as_xyz
1 x,y,z
2 x,-y,1/2+z
3 1/2+x,1/2+y,z
4 1/2+x,1/2-y,1/2+z
_cell_length_a                   12.5087(11)
_cell_length_b                   32.165(2)
_cell_length_c                   7.6022(5)
_cell_angle_alpha                90
_cell_angle_beta                 98.833(7)
_cell_angle_gamma                90
_cell_volume                     3022.41
loop_
_atom_site_label
_atom_site_type_symbol
_atom_site_fract_x
_atom_site_fract_y
_atom_site_fract_z
Dy1 Dy 0.97101(2) 0.614956(9) 0.19016(3)
O1 O 0.1329(4) 0.59130(17) 0.0988(7)
O2 O 0.8160(4) 0.58418(18) 0.2756(7)
Cd1 Cd 0.47282(5) 0.550700(13) 0.18975(8)
N1 N 0.5490(5) 0.6019(2) 0.0358(8)
Cd2 Cd 0.07617(5) 0.762365(16) 0.44249(8)
N2 N 0.5768(6) 0.66849(19) -0.0183(9)
Cl1 Cl -0.02595(18) 0.73334(6) 0.6636(3)
C1 C 0.2967(6) 0.6198(2) 0.2526(9)
C2 C 0.6514(6) 0.6118(2) 0.1133(10)
C3 C 0.2730(7) 0.6588(3) 0.2965(12)
C4 C 0.7120(7) 0.6168(3) 0.6707(11)
H1 H 0.7469 0.5933 0.7227
C5 C 0.6685(6) 0.6542(2) 0.0795(10)
C6 C 0.4450(6) 0.6440(2) 0.4003(9)
C7 C 0.2439(7) 0.6074(3) -0.3131(12)
H2 H 0.2134 0.5844 -0.3762
C8 C 0.5072(6) 0.6376(2) -0.0428(10)
C9 C 0.7613(6) 0.6832(3) 0.1380(10)
C10 C 0.7158(6) 0.5805(3) 0.2287(9)
N3 N 0.7657(5) 0.6541(2) 0.6835(9)
N4 N 0.1822(6) 0.6415(2) -0.3072(9)
C11 C 0.2325(6) 0.5863(2) 0.1485(10)
C12 C 0.7168(7) 0.6859(3) 0.6016(10)
H3 H 0.7545 0.7109 0.6062
C13 C 0.3965(6) 0.6395(2) -0.1343(9)
C14 C 0.5563(6) 0.6484(3) 0.4960(10)
C15 C 0.2287(7) 0.6749(3) -0.2205(12)
H4 H 0.1877 0.6990 -0.2198
O3 O 0.6619(4) 0.54928(18) 0.2732(7)
O4 O -0.0444(5) 0.75051(16) 0.1742(8)
H5 H -0.0188 0.7308 0.0993
H6 H -0.1125 0.7405 0.1918
C16 C 0.6118(6) 0.6853(3) 0.5073(11)
H7 H 0.5804 0.7093 0.4536
C17 C 0.3498(7) 0.6046(3) -0.2306(11)
H8 H 0.3896 0.5804 -0.2379
O5 O 0.7408(4) 0.72135(16) 0.1268(7)
C18 C 0.3346(7) 0.6755(3) -0.1317(12)
H9 H 0.3632 0.6992 -0.0722
C19 C 0.6066(6) 0.6133(3) 0.5814(10)
H10 H 0.5700 0.5880 0.5784
O6 O 0.9042(5) 0.56201(19) -0.0146(8)
H11 H 0.8850 0.5359 0.0233
H12 H 0.8382 0.5719 0.0075
N5 N 0.3701(5) 0.6749(2) 0.3914(8)
H13 H 0.3799 0.6995 0.4352
O7 O 0.9839(4) 0.6373(2) 0.4867(7)
H14 H 0.9429 0.6634 0.5146
H15 H 1.0572 0.6419 0.5648
N6 N 0.4036(5) 0.6101(2) 0.3172(8)
C20 C 0.1786(6) 0.6871(2) 0.2754(10)
Cl2 Cl 0.45875(15) 0.48745(6) -0.0114(2)
O8 O 0.1961(4) 0.72295(17) 0.3343(8)
O9 O 0.9574(4) 0.64339(19) -0.0999(7)
H16 H 0.9637 0.6695 -0.0525
H17 H 1.0150 0.6387 -0.1628
O10 O 0.8529(5) 0.66850(17) 0.1945(9)
O11 O 0.0876(5) 0.67335(18) 0.2080(9)
O12 O 0.2830(4) 0.55400(17) 0.1124(8)
O13 O 1.0463(5) 0.56266(18) 0.3857(7)
H18 H 0.9989 0.5512 0.4674
H19 H 1.0666 0.5387 0.3231
Dy1_2 Dy -0.02899(2) 0.614956(9) 0.19016(3)
O1_2 O 1.1329(4) 0.59130(17) 0.0988(7)
Cd1A Cd 0.47282(5) 0.449300(13) -0.31025(8)
Cd2C Cd 0.57617(5) 0.737635(16) -0.05751(8)
N2C N 0.0768(6) 0.83151(19) 0.4817(9)
O5C O 0.2408(4) 0.77865(16) 0.6268(7)
Cl2A Cl 0.45875(15) 0.51255(6) 0.4886(2)
O11_2 O 1.0876(5) 0.67335(18) 0.2080(9)
O14 O 0.7732(5) 0.4965(2) 0.0477(9)
H20 H 0.730(7) 0.507(3) 0.111(13)
H21 H 0.739(8) 0.477(3) -0.014(13)
O15 O 0.9730(6) 0.53788(16) 0.6809(9)
H22 H 1.0167 0.5219 0.7460
H23 H 0.9093 0.5317 0.6963
O16 O 0.1762(5) 0.50324(18) -0.1686(8)
H24 H 0.238(4) 0.493(3) -0.196(12)
H25 H 0.206(7) 0.508(3) -0.078(12)
loop_
_geom_bond_atom_site_label_1
_geom_bond_atom_site_label_2
_geom_bond_site_symmetry_1
_geom_bond_site_symmetry_2
Dy1 O2 1_555 1_555
O1 C11 1_555 1_555
O2 C10 1_555 1_555
Cd1 N1 1_555 1_555
N1 C2 1_555 1_555
Cd2 Cl1 1_555 1_555
N2 C5 1_555 1_555
C1 C3 1_555 1_555
C2 C5 1_555 1_555
C3 N5 1_555 1_555
C4 H1 1_555 1_555
C5 C9 1_555 1_555
C6 C14 1_555 1_555
C7 H2 1_555 1_555
C8 N1 1_555 1_555
C9 O5 1_555 1_555
C10 C2 1_555 1_555
N3 C4 1_555 1_555
N4 C7 1_555 1_555
C11 C1 1_555 1_555
C12 N3 1_555 1_555
H3 C12 1_555 1_555
C13 C8 1_555 1_555
C14 C16 1_555 1_555
C15 N4 1_555 1_555
H4 C15 1_555 1_555
O3 Cd1 1_555 1_555
O4 Cd2 1_555 1_555
H5 O4 1_555 1_555
H6 O4 1_555 1_555
C16 C12 1_555 1_555
H7 C16 1_555 1_555
C17 C7 1_555 1_555
H8 C17 1_555 1_555
O5 Cd2C 1_555 1_555
C18 C13 1_555 1_555
H9 C18 1_555 1_555
C19 C4 1_555 1_555
H10 C19 1_555 1_555
O6 Dy1 1_555 1_555
H11 O6 1_555 1_555
H12 O6 1_555 1_555
N5 C6 1_555 1_555
H13 N5 1_555 1_555
O7 Dy1 1_555 1_555
H14 O7 1_555 1_555
H15 O7 1_555 1_555
N6 Cd1 1_555 1_555
C20 C3 1_555 1_555
Cl2 Cd1 1_555 1_555
O8 Cd2 1_555 1_555
O9 Dy1 1_555 1_555
H16 O9 1_555 1_555
H17 O9 1_555 1_555
O10 Dy1 1_555 1_555
O11 C20 1_555 1_555
O12 Cd1 1_555 1_555
O13 Dy1 1_555 1_555
H18 O13 1_555 1_555
H19 O13 1_555 1_555
O14 H20 1_555 1_555
H21 O14 1_555 1_555
O15 H22 1_555 1_555
H23 O15 1_555 1_555
O16 H24 1_555 1_555
H25 O16 1_555 1_555
Dy1_2 O1 1_555 1_555
O1_2 Dy1 1_555 1_555
Cd1A Cl2 1_555 1_555
Cd2C N2 1_555 1_555
N2C Cd2 1_555 1_555
O5C Cd2 1_555 1_555
Cl2A Cd1 1_555 1_555
O11_2 Dy1 1_555 1_555
N2 C8 1_555 1_555
C1 N6 1_555 1_555
C6 N6 1_555 1_555
C9 O10 1_555 1_555
C10 O3 1_555 1_555
C11 O12 1_555 1_555
C13 C17 1_555 1_555
C14 C19 1_555 1_555
C15 C18 1_555 1_555
C20 O8 1_555 1_555
O11 Dy1_2 1_555 1_555

#END
