
#######################################################################
#
#                 Cambridge Crystallographic Data Centre
#                                CCDC 
#
#######################################################################
#
# If this CIF has been generated from an entry in the Cambridge 
# Structural Database, then it will include bibliographic, chemical, 
# crystal, experimental, refinement or atomic coordinate data resulting 
# from the CCDC's data processing and validation procedures.
#
#######################################################################

data_CUFHUI
_symmetry_cell_setting           triclinic
_symmetry_space_group_name_H-M   'P -1'
_symmetry_Int_Tables_number      2
_space_group_name_Hall           '-P 1'
loop_
_symmetry_equiv_pos_site_id
_symmetry_equiv_pos_as_xyz
1 x,y,z
2 -x,-y,-z
_cell_length_a                   9.2780(2)
_cell_length_b                   11.4404(3)
_cell_length_c                   13.6089(3)
_cell_angle_alpha                87.6597(12)
_cell_angle_beta                 72.8985(11)
_cell_angle_gamma                85.1546(12)
_cell_volume                     1375.51
loop_
_atom_site_label
_atom_site_type_symbol
_atom_site_fract_x
_atom_site_fract_y
_atom_site_fract_z
Ag1 Ag -0.04670(8) 0.96972(5) 0.32380(6)
Ag2 Ag -0.28804(8) 0.28460(5) 0.02031(5)
Ag3 Ag 0.07823(8) 0.54585(5) 0.14412(6)
Ag4 Ag 0.49469(7) 0.24107(5) 0.24539(5)
Ag5 Ag 0.26818(9) 1.21293(6) 0.50736(5)
N1 N 0.4706(7) 1.2514(5) 0.5591(5)
C1 C 0.3357(9) 1.4400(6) 0.6052(5)
N2 N 0.2209(7) 1.3997(5) 0.5808(5)
C2 C 0.0312(8) 0.7191(6) 0.2028(6)
N3 N 0.3505(10) 0.3728(8) 0.2029(7)
N4 N -0.2800(7) 0.0808(5) -0.0101(5)
C3 C 0.5881(10) 1.1725(8) 0.5557(7)
C4 C 0.0708(8) 1.0839(6) 0.3926(5)
C5 C -0.0651(9) 0.4230(6) 0.1075(6)
N5 N -0.4547(7) 0.2596(5) -0.0658(5)
C6 C 0.7313(10) 0.0566(7) 0.3117(7)
N6 N 0.0098(7) 0.8052(7) 0.2435(5)
C7 C -0.5422(9) 0.1342(7) -0.1678(6)
C8 C -0.3349(8) 0.0629(6) -0.0897(5)
C9 C 0.2731(9) 0.4399(7) 0.1784(7)
N7 N 0.6456(10) 0.1150(8) 0.2891(7)
C10 C -0.1864(9) -0.0014(7) 0.0132(7)
C11 C 0.5885(10) 1.3830(8) 0.6353(6)
C12 C -0.4452(8) 0.1535(6) -0.1083(5)
C13 C -0.5594(10) 0.3413(7) -0.0777(6)
C14 C 0.0954(10) 1.4689(8) 0.5900(7)
C15 C 0.3244(11) 1.5559(8) 0.6374(6)
C16 C 0.7059(10) 1.3012(10) 0.6317(7)
C17 C 0.0780(10) 1.5845(8) 0.6203(7)
C18 C 0.7048(10) 1.1956(10) 0.5901(8)
C19 C -0.1381(10) -0.1044(8) -0.0405(8)
N8 N -0.1466(9) 0.3759(6) 0.0798(6)
C20 C -0.6491(9) 0.2192(8) -0.1773(6)
C21 C 0.4698(8) 1.3571(7) 0.5980(5)
C22 C -0.6586(10) 0.3252(8) -0.1326(7)
C23 C -0.2913(10) -0.0401(7) -0.1454(7)
C24 C -0.1897(10) -0.1242(7) -0.1209(8)
N9 N 0.1416(9) 1.1263(6) 0.4321(6)
C25 C 0.1962(12) 1.6276(8) 0.6443(7)
H1 H 0.5897 1.0965 0.5271
H2 H -0.5307 0.0612 -0.2031
H3 H -0.1473 0.0099 0.0703
H4 H 0.5853 1.4595 0.6636
H5 H -0.5707 0.4161 -0.0455
H6 H 0.0098 1.4381 0.5772
H7 H 0.4087 1.5867 0.6522
H8 H 0.7848 1.3201 0.6596
H9 H -0.0158 1.6292 0.6247
H10 H 0.7869 1.1378 0.5855
H11 H -0.0701 -0.1609 -0.0193
H12 H -0.7182 0.2032 -0.2148
H13 H -0.7282 0.3896 -0.1394
H14 H -0.3293 -0.0536 -0.2018
H15 H -0.1570 -0.1943 -0.1605
H16 H 0.1906 1.7073 0.6650
Ag1_2 Ag 0.95330(8) -0.03028(5) 0.32380(6)
C6_2 C -0.2687(10) 1.0566(7) 0.3117(7)
loop_
_geom_bond_atom_site_label_1
_geom_bond_atom_site_label_2
_geom_bond_site_symmetry_1
_geom_bond_site_symmetry_2
Ag1 C4 1_555 1_555
Ag2 N4 1_555 1_555
Ag3 C2 1_555 1_555
Ag4 N3 1_555 1_555
Ag5 N1 1_555 1_555
N1 C3 1_555 1_555
C1 N2 1_555 1_555
N2 Ag5 1_555 1_555
C2 N6 1_555 1_555
N3 C9 1_555 1_555
N4 C8 1_555 1_555
C3 C18 1_555 1_555
C4 N9 1_555 1_555
C5 Ag3 1_555 1_555
N5 Ag2 1_555 1_555
C6 N7 1_555 1_555
N6 Ag1 1_555 1_555
C7 C12 1_555 1_555
C8 C12 1_555 1_555
C9 Ag3 1_555 1_555
N7 Ag4 1_555 1_555
C10 N4 1_555 1_555
C11 C16 1_555 1_555
C12 N5 1_555 1_555
C13 N5 1_555 1_555
C14 N2 1_555 1_555
C15 C1 1_555 1_555
C16 C18 1_555 1_555
C17 C14 1_555 1_555
C18 H10 1_555 1_555
C19 C10 1_555 1_555
N8 Ag2 1_555 1_555
C20 C7 1_555 1_555
C21 N1 1_555 1_555
C22 C13 1_555 1_555
C23 C8 1_555 1_555
C24 C19 1_555 1_555
N9 Ag5 1_555 1_555
C25 C15 1_555 1_555
H1 C3 1_555 1_555
H2 C7 1_555 1_555
H3 C10 1_555 1_555
H4 C11 1_555 1_555
H5 C13 1_555 1_555
H6 C14 1_555 1_555
H7 C15 1_555 1_555
H8 C16 1_555 1_555
H9 C17 1_555 1_555
H11 C19 1_555 1_555
H12 C20 1_555 1_555
H13 C22 1_555 1_555
H14 C23 1_555 1_555
H15 C24 1_555 1_555
H16 C25 1_555 1_555
Ag1_2 C6 1_555 1_555
C6_2 Ag1 1_555 1_555
C1 C21 1_555 1_555
C5 N8 1_555 1_555
C11 C21 1_555 1_555
C17 C25 1_555 1_555
C20 C22 1_555 1_555
C23 C24 1_555 1_555

#END
