
#######################################################################
#
#                 Cambridge Crystallographic Data Centre
#                                CCDC 
#
#######################################################################
#
# If this CIF has been generated from an entry in the Cambridge 
# Structural Database, then it will include bibliographic, chemical, 
# crystal, experimental, refinement or atomic coordinate data resulting 
# from the CCDC's data processing and validation procedures.
#
#######################################################################

data_CUFJAQ
_symmetry_cell_setting           orthorhombic
_symmetry_space_group_name_H-M   'A b a 2'
_symmetry_Int_Tables_number      41
_space_group_name_Hall           'A 2 -2ab'
loop_
_symmetry_equiv_pos_site_id
_symmetry_equiv_pos_as_xyz
1 x,y,z
2 -x,-y,z
3 1/2-x,1/2+y,z
4 1/2+x,1/2-y,z
5 x,1/2+y,1/2+z
6 -x,1/2-y,1/2+z
7 1/2-x,y,1/2+z
8 1/2+x,-y,1/2+z
_cell_length_a                   14.0280(4)
_cell_length_b                   29.3136(8)
_cell_length_c                   7.3395(2)
_cell_angle_alpha                90
_cell_angle_beta                 90
_cell_angle_gamma                90
_cell_volume                     3018.08
loop_
_atom_site_label
_atom_site_type_symbol
_atom_site_fract_x
_atom_site_fract_y
_atom_site_fract_z
Co1 Co 1.09307(2) 0.047931(10) 0.75559(7)
O1 O 0.97264(14) 0.05768(7) 0.9154(3)
O2 O 0.85382(14) 0.00843(7) 0.8902(3)
O3 O 0.65026(14) 0.40021(7) 0.9391(3)
O4 O 0.59127(15) 0.38070(8) 0.6742(3)
O5 O 0.61794(19) 0.18638(8) 1.0610(5)
O6 O 1.22360(16) 0.04508(7) 0.6151(4)
H1 H 1.2256 0.0341 0.4963
H2 H 1.2793 0.0548 0.6717
N1 N 1.02137(16) 0.02157(8) 0.5357(3)
N2 N 1.0661(2) 0.07359(10) 0.3022(4)
H3 H 1.0842 0.0940 0.3791
H4 H 1.0703 0.0788 0.1872
N3 N 1.0000 0.0000 0.2532(5)
H5 H 1.0000 0.0000 0.1360
C1 C 0.8861(2) 0.04773(9) 0.9169(4)
C2 C 0.81551(19) 0.08506(9) 0.9564(4)
C3 C 0.7194(2) 0.07588(9) 0.9707(4)
H6 H 0.6977 0.0461 0.9574
C4 C 0.6549(2) 0.11045(10) 1.0046(5)
H7 H 0.5903 0.1039 1.0165
C5 C 0.6870(2) 0.15449(10) 1.0207(5)
C6 C 0.7825(2) 0.16440(10) 1.0058(5)
H8 H 0.8039 0.1943 1.0172
C7 C 0.8458(2) 0.12957(11) 0.9741(5)
H9 H 0.9104 0.1362 0.9643
C8 C 0.6270(2) 0.23085(10) 0.9984(6)
C9 C 0.5870(3) 0.24189(12) 0.8341(7)
H10 H 0.5601 0.2193 0.7612
C10 C 0.5868(2) 0.28722(10) 0.7771(6)
H11 H 0.5595 0.2950 0.6659
C11 C 0.6270(2) 0.32054(9) 0.8850(4)
C12 C 0.6674(3) 0.30840(12) 1.0496(5)
H12 H 0.6947 0.3308 1.1227
C13 C 0.6680(3) 0.26330(12) 1.1079(6)
H13 H 0.6955 0.2553 1.2186
C14 C 0.6234(2) 0.36956(9) 0.8282(4)
C15 C 1.0314(2) 0.03377(10) 0.3615(3)
N1A N 0.97863(16) -0.02157(8) 0.5357(3)
N2A N 0.9339(2) -0.07359(10) 0.3022(4)
H3A H 0.9158 -0.0940 0.3791
H4A H 0.9297 -0.0788 0.1872
C15A C 0.9686(2) -0.03377(10) 0.3615(3)
Co1A Co 0.90693(2) -0.047931(10) 0.75559(7)
O1A O 1.02736(14) -0.05768(7) 0.9154(3)
O2A O 1.14618(14) -0.00843(7) 0.8902(3)
O3A O 1.34974(14) -0.40021(7) 0.9391(3)
O4A O 1.40873(15) -0.38070(8) 0.6742(3)
O5A O 1.38206(19) -0.18638(8) 1.0610(5)
O6A O 0.77640(16) -0.04508(7) 0.6151(4)
H1A H 0.7744 -0.0341 0.4963
H2A H 0.7207 -0.0548 0.6717
C1A C 1.1139(2) -0.04773(9) 0.9169(4)
C2A C 1.18449(19) -0.08506(9) 0.9564(4)
C3A C 1.2806(2) -0.07588(9) 0.9707(4)
H6A H 1.3023 -0.0461 0.9574
C4A C 1.3451(2) -0.11045(10) 1.0046(5)
H7A H 1.4097 -0.1039 1.0165
C5A C 1.3130(2) -0.15449(10) 1.0207(5)
C6A C 1.2175(2) -0.16440(10) 1.0058(5)
H8A H 1.1961 -0.1943 1.0172
C7A C 1.1542(2) -0.12957(11) 0.9741(5)
H9A H 1.0896 -0.1362 0.9643
C8A C 1.3730(2) -0.23085(10) 0.9984(6)
C9A C 1.4130(3) -0.24189(12) 0.8341(7)
H10A H 1.4399 -0.2193 0.7612
C10A C 1.4132(2) -0.28722(10) 0.7771(6)
H11A H 1.4405 -0.2950 0.6659
C11A C 1.3730(2) -0.32054(9) 0.8850(4)
C12A C 1.3326(3) -0.30840(12) 1.0496(5)
H12A H 1.3053 -0.3308 1.1227
C13A C 1.3320(3) -0.26330(12) 1.1079(6)
H13A H 1.3045 -0.2553 1.2186
C14A C 1.3766(2) -0.36956(9) 0.8282(4)
Co1B Co 1.40693(2) -0.452069(10) 0.75559(7)
Co1C Co 0.59307(2) 0.452069(10) 0.75559(7)
O3B O 0.84974(14) -0.09979(7) 0.9391(3)
O3C O 1.15026(14) 0.09979(7) 0.9391(3)
O4B O 0.90873(15) -0.11930(8) 0.6742(3)
O4C O 1.09127(15) 0.11930(8) 0.6742(3)
loop_
_geom_bond_atom_site_label_1
_geom_bond_atom_site_label_2
_geom_bond_site_symmetry_1
_geom_bond_site_symmetry_2
Co1 O1 1_555 1_555
O1 C1 1_555 1_555
O2 C1 1_555 1_555
O3 C14 1_555 1_555
O4 C14 1_555 1_555
O5 C5 1_555 1_555
O6 Co1 1_555 1_555
H1 O6 1_555 1_555
H2 O6 1_555 1_555
N1 Co1 1_555 1_555
N2 H3 1_555 1_555
H4 N2 1_555 1_555
N3 H5 1_555 1_555
C1 C2 1_555 1_555
C2 C3 1_555 1_555
C3 H6 1_555 1_555
C4 C3 1_555 1_555
H7 C4 1_555 1_555
C5 C4 1_555 1_555
C6 C5 1_555 1_555
H8 C6 1_555 1_555
C7 C2 1_555 1_555
H9 C7 1_555 1_555
C8 O5 1_555 1_555
C9 C8 1_555 1_555
H10 C9 1_555 1_555
C10 C9 1_555 1_555
H11 C10 1_555 1_555
C11 C10 1_555 1_555
C12 C11 1_555 1_555
H12 C12 1_555 1_555
C13 C8 1_555 1_555
H13 C13 1_555 1_555
C14 C11 1_555 1_555
C15 N1 1_555 1_555
N1A N1 1_555 1_555
N2A H3A 1_555 1_555
H4A N2A 1_555 1_555
C15A N3 1_555 1_555
Co1A O2 1_555 1_555
O1A Co1A 1_555 1_555
O2A Co1 1_555 1_555
O3A C14A 1_555 1_555
O4A C14A 1_555 1_555
O5A C5A 1_555 1_555
O6A Co1A 1_555 1_555
H1A O6A 1_555 1_555
H2A O6A 1_555 1_555
C1A O1A 1_555 1_555
C2A C1A 1_555 1_555
C3A C2A 1_555 1_555
H6A C3A 1_555 1_555
C4A C3A 1_555 1_555
H7A C4A 1_555 1_555
C5A C4A 1_555 1_555
C6A C5A 1_555 1_555
H8A C6A 1_555 1_555
C7A C2A 1_555 1_555
H9A C7A 1_555 1_555
C8A O5A 1_555 1_555
C9A C8A 1_555 1_555
H10A C9A 1_555 1_555
C10A C9A 1_555 1_555
H11A C10A 1_555 1_555
C11A C10A 1_555 1_555
C12A C11A 1_555 1_555
H12A C12A 1_555 1_555
C13A C8A 1_555 1_555
H13A C13A 1_555 1_555
C14A C11A 1_555 1_555
Co1B O3A 1_555 1_555
Co1C O3 1_555 1_555
O3B Co1A 1_555 1_555
O3C Co1 1_555 1_555
O4B Co1A 1_555 1_555
O4C Co1 1_555 1_555
O4 Co1C 1_555 1_555
N2 C15 1_555 1_555
N3 C15 1_555 1_555
C6 C7 1_555 1_555
C12 C13 1_555 1_555
N1A C15A 1_555 1_555
N1A Co1A 1_555 1_555
N2A C15A 1_555 1_555
O2A C1A 1_555 1_555
O4A Co1B 1_555 1_555
C6A C7A 1_555 1_555
C12A C13A 1_555 1_555

#END
