
#######################################################################
#
#                 Cambridge Crystallographic Data Centre
#                                CCDC 
#
#######################################################################
#
# If this CIF has been generated from an entry in the Cambridge 
# Structural Database, then it will include bibliographic, chemical, 
# crystal, experimental, refinement or atomic coordinate data resulting 
# from the CCDC's data processing and validation procedures.
#
#######################################################################

data_CUFJUK
_symmetry_cell_setting           monoclinic
_symmetry_space_group_name_H-M   'P 21/c'
_symmetry_Int_Tables_number      14
_space_group_name_Hall           '-P 2ybc'
loop_
_symmetry_equiv_pos_site_id
_symmetry_equiv_pos_as_xyz
1 x,y,z
2 -x,1/2+y,1/2-z
3 -x,-y,-z
4 x,1/2-y,1/2+z
_cell_length_a                   10.8471(5)
_cell_length_b                   6.3389(3)
_cell_length_c                   16.8839(8)
_cell_angle_alpha                90
_cell_angle_beta                 105.592(5)
_cell_angle_gamma                90
_cell_volume                     1118.19
loop_
_atom_site_label
_atom_site_type_symbol
_atom_site_fract_x
_atom_site_fract_y
_atom_site_fract_z
Co1 Co 1.0000 1.0000 0.5000
Co2 Co 1.03419(6) 0.50306(8) 0.41605(5)
O1 O 0.9446(4) 0.6897(5) 0.4833(2)
O2 O 0.8599(3) 0.3740(6) 0.3452(2)
C1 C 0.6779(5) 0.2580(8) 0.1988(3)
H1 H 0.7151 0.3904 0.1997
C2 C 0.8310(4) 0.1858(8) 0.3360(3)
C3 C 0.5366(4) 0.3468(7) 0.0619(3)
C4 C 0.4136(4) 0.4321(8) 0.0408(3)
H2 H 0.3548 0.3851 0.0680
C5 C 0.5775(4) 0.1997(7) 0.1319(3)
C6 C 0.6666(5) -0.0766(8) 0.2606(3)
H3 H 0.6978 -0.1733 0.3026
C7 C 0.7232(4) 0.1194(8) 0.2645(3)
C8 C 0.5649(5) -0.1318(8) 0.1957(4)
H4 H 0.5265 -0.2632 0.1951
C9 C 0.5200(5) 0.0056(7) 0.1321(4)
H5 H 0.4504 -0.0319 0.0888
O3 O 0.8849(4) 0.0372(6) 0.3819(3)
O4 O 1.0086(4) 0.7154(6) 0.3170(2)
H6 H 0.9656 0.6564 0.2726
H7 H 0.9685 0.8252 0.3259
O5 O 1.1399(4) 0.2985(6) 0.3571(3)
H8 H 1.2072 0.3598 0.3522
H9 H 1.1604 0.1864 0.3853
C10 C 0.3770(4) 0.5831(8) -0.0189(3)
C11 C 0.2428(4) 0.6721(7) -0.0356(3)
O6 O 0.1563(3) 0.5334(5) -0.0477(3)
O7 O 0.2245(3) 0.8618(5) -0.0342(3)
H10 H 0.880(7) 0.684(11) 0.461(5)
O2B O 0.1401(3) 0.6260(6) -0.3452(2)
C1B C 0.3221(5) 0.7420(8) -0.1988(3)
H1B H 0.2849 0.6096 -0.1997
C2B C 0.1690(4) 0.8142(8) -0.3360(3)
C3B C 0.4634(4) 0.6532(7) -0.0619(3)
C4B C 0.5864(4) 0.5679(8) -0.0408(3)
H2B H 0.6452 0.6149 -0.0680
C5B C 0.4225(4) 0.8003(7) -0.1319(3)
C6B C 0.3334(5) 1.0766(8) -0.2606(3)
H3B H 0.3022 1.1733 -0.3026
C7B C 0.2768(4) 0.8806(8) -0.2645(3)
C8B C 0.4351(5) 1.1318(8) -0.1957(4)
H4B H 0.4735 1.2632 -0.1951
C9B C 0.4800(5) 0.9944(7) -0.1321(4)
H5B H 0.5496 1.0319 -0.0888
O3B O 0.1151(4) 0.9628(6) -0.3819(3)
C10B C 0.6230(4) 0.4169(8) 0.0189(3)
C11B C 0.7572(4) 0.3279(7) 0.0356(3)
O6B O 0.8437(3) 0.4666(5) 0.0477(3)
O7B O 0.7755(3) 0.1382(5) 0.0342(3)
Co2B Co -0.03419(6) 0.49694(8) -0.41605(5)
O1B O 0.0554(4) 0.3103(5) -0.4833(2)
O4B O -0.0086(4) 0.2846(6) -0.3170(2)
H6B H 0.0344 0.3436 -0.2726
H7B H 0.0315 0.1748 -0.3259
O5B O -0.1399(4) 0.7015(6) -0.3571(3)
H8B H -0.2072 0.6402 -0.3522
H9B H -0.1604 0.8136 -0.3853
H10B H 0.120(7) 0.316(11) -0.461(5)
Co1_2 Co 0.0000 0.0000 -0.5000
Co1_3 Co 0.0000 1.0000 -0.5000
Co1_4 Co 1.0000 0.0000 0.5000
Co1A Co 0.0000 0.5000 0.0000
Co1A_2 Co 1.0000 0.5000 0.0000
Co2_2 Co 0.03419(6) 0.50306(8) -0.58395(5)
Co2A Co 0.96581(6) 0.00306(8) 0.08395(5)
Co2B_2 Co 0.96581(6) 0.49694(8) 0.58395(5)
Co2C Co 0.03419(6) 0.99694(8) -0.08395(5)
O1_2 O -0.0554(4) 0.6897(5) -0.5167(2)
O1B_2 O 1.0554(4) 0.3103(5) 0.5167(2)
O1B_3 O 1.0554(4) 1.3103(5) 0.5167(2)
O3_2 O 0.8849(4) 1.0372(6) 0.3819(3)
O3B_2 O 1.1151(4) 0.9628(6) 0.6181(3)
O6A O 0.8437(3) 1.0334(5) 0.5477(3)
O6C O 1.1563(3) 0.9666(5) 0.4523(3)
O7A O -0.2245(3) 0.3618(5) -0.4658(3)
O7C O 1.2245(3) 0.6382(5) 0.4658(3)
loop_
_geom_bond_atom_site_label_1
_geom_bond_atom_site_label_2
_geom_bond_site_symmetry_1
_geom_bond_site_symmetry_2
Co1 O1 1_555 1_555
Co2 O1 1_555 1_555
O1 H10 1_555 1_555
O2 Co2 1_555 1_555
C1 H1 1_555 1_555
C2 O2 1_555 1_555
C3 C4 1_555 1_555
C4 H2 1_555 1_555
C5 C1 1_555 1_555
C6 H3 1_555 1_555
C7 C1 1_555 1_555
C8 C6 1_555 1_555
H4 C8 1_555 1_555
C9 C5 1_555 1_555
H5 C9 1_555 1_555
O3 C2 1_555 1_555
O4 Co2 1_555 1_555
H6 O4 1_555 1_555
H7 O4 1_555 1_555
O5 Co2 1_555 1_555
H8 O5 1_555 1_555
H9 O5 1_555 1_555
C10 C4 1_555 1_555
C11 C10 1_555 1_555
O6 C11 1_555 1_555
O7 C11 1_555 1_555
O2B C2B 1_555 1_555
C1B H1B 1_555 1_555
C2B C7B 1_555 1_555
C3B C10 1_555 1_555
C4B C3B 1_555 1_555
H2B C4B 1_555 1_555
C5B C1B 1_555 1_555
C6B H3B 1_555 1_555
C7B C1B 1_555 1_555
C8B C6B 1_555 1_555
H4B C8B 1_555 1_555
C9B C5B 1_555 1_555
H5B C9B 1_555 1_555
O3B C2B 1_555 1_555
C10B C3 1_555 1_555
C11B C10B 1_555 1_555
O6B C11B 1_555 1_555
O7B C11B 1_555 1_555
Co2B O2B 1_555 1_555
O1B Co2B 1_555 1_555
O4B Co2B 1_555 1_555
H6B O4B 1_555 1_555
H7B O4B 1_555 1_555
O5B Co2B 1_555 1_555
H8B O5B 1_555 1_555
H9B O5B 1_555 1_555
H10B O1B 1_555 1_555
Co1_2 O1B 1_555 1_555
Co1_3 O3B 1_555 1_555
Co1_4 O3 1_555 1_555
Co1A O6 1_555 1_555
Co1A_2 O6B 1_555 1_555
Co2_2 O1B 1_555 1_555
Co2A O7B 1_555 1_555
Co2B_2 O1 1_555 1_555
Co2C O7 1_555 1_555
O1_2 Co2B 1_555 1_555
O1B_2 Co2 1_555 1_555
O1B_3 Co1 1_555 1_555
O3_2 Co1 1_555 1_555
O3B_2 Co1 1_555 1_555
O6A Co1 1_555 1_555
O6C Co1 1_555 1_555
O7A Co2B 1_555 1_555
O7C Co2 1_555 1_555
C2 C7 1_555 1_555
C3 C5 1_555 1_555
C6 C7 1_555 1_555
C8 C9 1_555 1_555
C3B C5B 1_555 1_555
C4B C10B 1_555 1_555
C6B C7B 1_555 1_555
C8B C9B 1_555 1_555
Co1_3 O1_2 1_555 1_555
Co1_4 O1B_2 1_555 1_555
Co2_2 O1_2 1_555 1_555
Co2B_2 O1B_2 1_555 1_555

#END
