
#######################################################################
#
#                 Cambridge Crystallographic Data Centre
#                                CCDC 
#
#######################################################################
#
# If this CIF has been generated from an entry in the Cambridge 
# Structural Database, then it will include bibliographic, chemical, 
# crystal, experimental, refinement or atomic coordinate data resulting 
# from the CCDC's data processing and validation procedures.
#
#######################################################################

data_CUFKAR
_symmetry_cell_setting           monoclinic
_symmetry_space_group_name_H-M   'P 21/c'
_symmetry_Int_Tables_number      14
_space_group_name_Hall           '-P 2ybc'
loop_
_symmetry_equiv_pos_site_id
_symmetry_equiv_pos_as_xyz
1 x,y,z
2 -x,1/2+y,1/2-z
3 -x,-y,-z
4 x,1/2-y,1/2+z
_cell_length_a                   10.769(3)
_cell_length_b                   5.8370(19)
_cell_length_c                   17.706(5)
_cell_angle_alpha                90
_cell_angle_beta                 102.14(3)
_cell_angle_gamma                90
_cell_volume                     1088.09
loop_
_atom_site_label
_atom_site_type_symbol
_atom_site_fract_x
_atom_site_fract_y
_atom_site_fract_z
Co1 Co 0.0000 0.5000 0.0000
Co2 Co -0.0436(3) 0.9753(5) 0.06895(15)
O1 O 0.0766(14) 0.851(2) 0.1664(7)
O2 O 0.2051(14) 0.638(2) 0.4415(7)
O3 O 0.0799(14) 0.175(2) 0.0348(7)
O4 O 0.1364(13) 0.997(3) 0.4470(8)
O5 O 0.1521(16) 0.606(2) 0.1019(8)
C1 C 0.4759(18) 0.496(3) 0.3695(11)
H1 H 0.5439 0.4620 0.4098
C2 C 0.583(2) 0.916(3) 0.4690(11)
H2 H 0.6438 0.8515 0.4447
C3 C 0.4536(18) 0.847(3) 0.4382(9)
C4 C 0.3683(19) 0.935(3) 0.4700(10)
C5 C 0.226(2) 0.852(3) 0.4481(11)
C6 C 0.436(2) 0.351(4) 0.3027(12)
H3 H 0.4739 0.2087 0.3009
C7 C 0.3004(19) 0.750(3) 0.3020(10)
H4 H 0.2569 0.8864 0.3050
C8 C 0.402(2) 0.692(3) 0.3670(12)
C9 C 0.2645(18) 0.624(3) 0.2382(11)
C10 C 0.337(2) 0.424(3) 0.2385(10)
H5 H 0.3202 0.3321 0.1946
C11 C 0.158(2) 0.689(4) 0.1634(13)
O1B O 0.9234(14) 1.149(2) 0.8336(7)
O2B O 0.7949(14) 1.362(2) 0.5585(7)
O4B O 0.8636(13) 1.003(3) 0.5530(8)
O5B O 0.8479(16) 1.394(2) 0.8981(8)
C1B C 0.5241(18) 1.504(3) 0.6305(11)
H1B H 0.4561 1.5380 0.5902
C2B C 0.417(2) 1.084(3) 0.5310(11)
H2B H 0.3562 1.1485 0.5553
C3B C 0.5464(18) 1.153(3) 0.5618(9)
C4B C 0.6317(19) 1.065(3) 0.5300(10)
C5B C 0.774(2) 1.148(3) 0.5519(11)
C6B C 0.564(2) 1.649(4) 0.6973(12)
H3B H 0.5261 1.7913 0.6991
C7B C 0.6996(19) 1.250(3) 0.6980(10)
H4B H 0.7431 1.1136 0.6950
C8B C 0.598(2) 1.308(3) 0.6330(12)
C9B C 0.7355(18) 1.376(3) 0.7618(11)
C10B C 0.663(2) 1.576(3) 0.7615(10)
H5B H 0.6798 1.6679 0.8054
C11B C 0.842(2) 1.311(4) 0.8366(13)
Co2B Co 0.0436(3) 0.0247(5) -0.06895(15)
O3B O -0.0799(14) 0.825(2) -0.0348(7)
Co1_2 Co 1.0000 1.5000 1.0000
Co1A Co 0.0000 1.0000 0.5000
Co1A_2 Co 1.0000 1.0000 0.5000
Co2_2 Co -0.0436(3) -0.0247(5) 0.06895(15)
Co2A Co 0.0436(3) 0.4753(5) 0.43105(15)
Co2B_2 Co 0.0436(3) 1.0247(5) -0.06895(15)
Co2B_3 Co 1.0436(3) 1.0247(5) 0.93105(15)
Co2C Co 0.9564(3) 1.5247(5) 0.56895(15)
O1B_2 O -0.0766(14) 0.149(2) -0.1664(7)
O2A O -0.2051(14) 1.138(2) 0.0585(7)
O2C O 0.2051(14) -0.138(2) -0.0585(7)
O3_2 O 0.0799(14) 1.175(2) 0.0348(7)
O3B_2 O -0.0799(14) -0.175(2) -0.0348(7)
O4A O -0.1364(13) 0.497(3) 0.0530(8)
O4C O 0.1364(13) 0.503(3) -0.0530(8)
O5B_2 O -0.1521(16) 0.394(2) -0.1019(8)
loop_
_geom_bond_atom_site_label_1
_geom_bond_atom_site_label_2
_geom_bond_site_symmetry_1
_geom_bond_site_symmetry_2
Co1 O3 1_555 1_555
Co2 O1 1_555 1_555
O1 C11 1_555 1_555
O2 C5 1_555 1_555
O3 Co2B 1_555 1_555
O4 C5 1_555 1_555
O5 Co1 1_555 1_555
C1 H1 1_555 1_555
C2 H2 1_555 1_555
C3 C2 1_555 1_555
C4 C3 1_555 1_555
C5 C4 1_555 1_555
C6 C1 1_555 1_555
H3 C6 1_555 1_555
C7 H4 1_555 1_555
C8 C1 1_555 1_555
C9 C7 1_555 1_555
C10 C6 1_555 1_555
H5 C10 1_555 1_555
C11 O5 1_555 1_555
O1B C11B 1_555 1_555
O2B C5B 1_555 1_555
O4B C5B 1_555 1_555
O5B C11B 1_555 1_555
C1B H1B 1_555 1_555
C2B C4 1_555 1_555
H2B C2B 1_555 1_555
C3B C2B 1_555 1_555
C4B C2 1_555 1_555
C5B C4B 1_555 1_555
C6B C1B 1_555 1_555
H3B C6B 1_555 1_555
C7B H4B 1_555 1_555
C8B C1B 1_555 1_555
C9B C7B 1_555 1_555
C10B C6B 1_555 1_555
H5B C10B 1_555 1_555
C11B C9B 1_555 1_555
Co2B O1B_2 1_555 1_555
O3B Co1 1_555 1_555
Co1_2 O5B 1_555 1_555
Co1A O4 1_555 1_555
Co1A_2 O4B 1_555 1_555
Co2_2 O3 1_555 1_555
Co2A O2 1_555 1_555
Co2B_2 O3B 1_555 1_555
Co2B_3 O1B 1_555 1_555
Co2C O2B 1_555 1_555
O2A Co2 1_555 1_555
O2C Co2B 1_555 1_555
O3_2 Co2 1_555 1_555
O3B_2 Co2B 1_555 1_555
O4A Co1 1_555 1_555
O4C Co1 1_555 1_555
O5B_2 Co1 1_555 1_555
Co2 O3B 1_555 1_555
C3 C8 1_555 1_555
C7 C8 1_555 1_555
C9 C10 1_555 1_555
C9 C11 1_555 1_555
C3B C4B 1_555 1_555
C3B C8B 1_555 1_555
C7B C8B 1_555 1_555
C9B C10B 1_555 1_555
Co2_2 O3B_2 1_555 1_555
Co2B_2 O3_2 1_555 1_555

#END
