
#######################################################################
#
#                 Cambridge Crystallographic Data Centre
#                                CCDC 
#
#######################################################################
#
# If this CIF has been generated from an entry in the Cambridge 
# Structural Database, then it will include bibliographic, chemical, 
# crystal, experimental, refinement or atomic coordinate data resulting 
# from the CCDC's data processing and validation procedures.
#
#######################################################################

data_CUFMUM
_symmetry_cell_setting           monoclinic
_symmetry_space_group_name_H-M   'P 21/n'
_symmetry_Int_Tables_number      14
_space_group_name_Hall           '-P 2yn'
loop_
_symmetry_equiv_pos_site_id
_symmetry_equiv_pos_as_xyz
1 x,y,z
2 1/2-x,1/2+y,1/2-z
3 -x,-y,-z
4 1/2+x,1/2-y,1/2+z
_cell_length_a                   9.331(13)
_cell_length_b                   9.7380(11)
_cell_length_c                   18.263(3)
_cell_angle_alpha                90
_cell_angle_beta                 91.466(17)
_cell_angle_gamma                90
_cell_volume                     1658.93
loop_
_atom_site_label
_atom_site_type_symbol
_atom_site_fract_x
_atom_site_fract_y
_atom_site_fract_z
Ag1 Ag 0.59938(7) 0.22303(6) 0.76960(3)
N1 N 0.7823(6) 0.3779(6) 0.8069(2)
H1 H 0.8557 0.3693 0.7762
H2 H 0.7483 0.4640 0.8024
N2 N 1.0372(6) 0.2907(7) 1.1522(2)
N3 N 0.3625(5) 0.2500(6) 0.8224(2)
H3 H 0.3431 0.3402 0.8265
H4 H 0.2962 0.2132 0.7915
N4 N 0.3270(7) -0.0429(6) 1.1553(3)
C1 C 0.8357(7) 0.3598(7) 0.8797(3)
C2 C 0.9465(6) 0.2700(8) 0.8939(3)
H5 H 0.9877 0.2221 0.8557
C3 C 0.9961(6) 0.2511(7) 0.9643(3)
H6 H 1.0721 0.1913 0.9736
C4 C 0.9350(6) 0.3195(6) 1.0215(3)
C5 C 0.8218(7) 0.4076(7) 1.0074(3)
H7 H 0.7790 0.4536 1.0458
C6 C 0.7721(7) 0.4272(6) 0.9362(3)
H8 H 0.6954 0.4862 0.9267
C7 C 0.9902(7) 0.3028(7) 1.0944(3)
C8 C 0.3509(6) 0.1880(6) 0.8915(3)
C9 C 0.3055(7) 0.0545(7) 0.8980(3)
H9 H 0.2801 0.0049 0.8561
C10 C 0.2970(7) -0.0071(6) 0.9656(3)
H10 H 0.2665 -0.0977 0.9694
C11 C 0.3350(7) 0.0683(7) 1.0288(3)
C12 C 0.3841(7) 0.2008(7) 1.0220(3)
H11 H 0.4119 0.2502 1.0635
C13 C 0.3920(6) 0.2603(7) 0.9542(3)
H12 H 0.4252 0.3499 0.9501
C14 C 0.3308(7) 0.0053(6) 1.0986(3)
Ag1B Ag 0.40062(7) -0.22303(6) 1.23040(3)
Ag1A Ag -0.09938(7) -0.27697(6) 0.73040(3)
Ag1C Ag 1.09938(7) 0.27697(6) 1.26960(3)
N1B N 0.2177(6) -0.3779(6) 1.1931(2)
H1B H 0.1443 -0.3693 1.2238
H2B H 0.2517 -0.4640 1.1976
N2B N -0.0372(6) -0.2907(7) 0.8478(2)
N2A N 0.4628(6) -0.2093(7) 1.3478(2)
N2C N 0.5372(6) 0.2093(7) 0.6522(2)
N3B N 0.6375(5) -0.2500(6) 1.1776(2)
H3B H 0.6569 -0.3402 1.1735
H4B H 0.7038 -0.2132 1.2085
N4B N 0.6730(7) 0.0429(6) 0.8447(3)
C1B C 0.1643(7) -0.3598(7) 1.1203(3)
C2B C 0.0535(6) -0.2700(8) 1.1061(3)
H5B H 0.0123 -0.2221 1.1443
C3B C 0.0039(6) -0.2511(7) 1.0357(3)
H6B H -0.0721 -0.1913 1.0264
C4B C 0.0650(6) -0.3195(6) 0.9785(3)
C5B C 0.1782(7) -0.4076(7) 0.9926(3)
H7B H 0.2210 -0.4536 0.9542
C6B C 0.2279(7) -0.4272(6) 1.0638(3)
H8B H 0.3046 -0.4862 1.0733
C7B C 0.0098(7) -0.3028(7) 0.9056(3)
C8B C 0.6491(6) -0.1880(6) 1.1085(3)
C9B C 0.6945(7) -0.0545(7) 1.1020(3)
H9B H 0.7199 -0.0049 1.1439
C10B C 0.7030(7) 0.0071(6) 1.0344(3)
H10B H 0.7335 0.0977 1.0306
C11B C 0.6650(7) -0.0683(7) 0.9712(3)
C12B C 0.6159(7) -0.2008(7) 0.9780(3)
H11B H 0.5881 -0.2502 0.9365
C13B C 0.6080(6) -0.2603(7) 1.0458(3)
H12B H 0.5748 -0.3499 1.0499
C14B C 0.6692(7) -0.0053(6) 0.9014(3)
F1 F 0.9163(8) 0.1471(9) 0.7040(4)
F2 F 1.0559(6) 0.0636(5) 0.6294(2)
F3 F 1.1066(10) 0.2468(7) 0.6988(4)
F4 F 1.1088(11) 0.0499(6) 0.7459(4)
B1 B 1.0574(11) 0.1259(10) 0.6944(4)
loop_
_geom_bond_atom_site_label_1
_geom_bond_atom_site_label_2
_geom_bond_site_symmetry_1
_geom_bond_site_symmetry_2
Ag1 N1 1_555 1_555
F1 B1 1_555 1_555
F2 B1 1_555 1_555
F3 B1 1_555 1_555
F4 B1 1_555 1_555
N1 H1 1_555 1_555
H2 N1 1_555 1_555
N2 C7 1_555 1_555
N3 Ag1 1_555 1_555
H3 N3 1_555 1_555
H4 N3 1_555 1_555
N4 C14 1_555 1_555
C1 N1 1_555 1_555
C2 C1 1_555 1_555
H5 C2 1_555 1_555
C3 C2 1_555 1_555
H6 C3 1_555 1_555
C4 C3 1_555 1_555
C5 C4 1_555 1_555
H7 C5 1_555 1_555
C6 C1 1_555 1_555
H8 C6 1_555 1_555
C7 C4 1_555 1_555
C8 N3 1_555 1_555
C9 C8 1_555 1_555
H9 C9 1_555 1_555
C10 C9 1_555 1_555
H10 C10 1_555 1_555
C11 C10 1_555 1_555
C12 C11 1_555 1_555
H11 C12 1_555 1_555
C13 C8 1_555 1_555
H12 C13 1_555 1_555
C14 C11 1_555 1_555
Ag1B N4 1_555 1_555
Ag1A N2B 1_555 1_555
Ag1C N2 1_555 1_555
N1B Ag1B 1_555 1_555
H1B N1B 1_555 1_555
H2B N1B 1_555 1_555
N2B C7B 1_555 1_555
N2A Ag1B 1_555 1_555
N2C Ag1 1_555 1_555
N3B Ag1B 1_555 1_555
H3B N3B 1_555 1_555
H4B N3B 1_555 1_555
N4B Ag1 1_555 1_555
C1B N1B 1_555 1_555
C2B C1B 1_555 1_555
H5B C2B 1_555 1_555
C3B C2B 1_555 1_555
H6B C3B 1_555 1_555
C4B C3B 1_555 1_555
C5B C4B 1_555 1_555
H7B C5B 1_555 1_555
C6B C1B 1_555 1_555
H8B C6B 1_555 1_555
C7B C4B 1_555 1_555
C8B N3B 1_555 1_555
C9B C8B 1_555 1_555
H9B C9B 1_555 1_555
C10B C9B 1_555 1_555
H10B C10B 1_555 1_555
C11B C10B 1_555 1_555
C12B C11B 1_555 1_555
H11B C12B 1_555 1_555
C13B C8B 1_555 1_555
H12B C13B 1_555 1_555
C14B N4B 1_555 1_555
C5 C6 1_555 1_555
C12 C13 1_555 1_555
C5B C6B 1_555 1_555
C11B C14B 1_555 1_555
C12B C13B 1_555 1_555

#END
