
#######################################################################
#
#                 Cambridge Crystallographic Data Centre
#                                CCDC 
#
#######################################################################
#
# If this CIF has been generated from an entry in the Cambridge 
# Structural Database, then it will include bibliographic, chemical, 
# crystal, experimental, refinement or atomic coordinate data resulting 
# from the CCDC's data processing and validation procedures.
#
#######################################################################

data_CUFMOG
_symmetry_cell_setting           tetragonal
_symmetry_space_group_name_H-M   'I 4 2 2'
_symmetry_Int_Tables_number      97
_space_group_name_Hall           'I 4 2'
loop_
_symmetry_equiv_pos_site_id
_symmetry_equiv_pos_as_xyz
1 x,y,z
2 -y,x,z
3 -x,-y,z
4 y,-x,z
5 x,-y,-z
6 -x,y,-z
7 y,x,-z
8 -y,-x,-z
9 1/2+x,1/2+y,1/2+z
10 1/2-y,1/2+x,1/2+z
11 1/2-x,1/2-y,1/2+z
12 1/2+y,1/2-x,1/2+z
13 1/2+x,1/2-y,1/2-z
14 1/2-x,1/2+y,1/2-z
15 1/2+y,1/2+x,1/2-z
16 1/2-y,1/2-x,1/2-z
_cell_length_a                   10.6589(15)
_cell_length_b                   10.6589(15)
_cell_length_c                   15.101(3)
_cell_angle_alpha                90
_cell_angle_beta                 90
_cell_angle_gamma                90
_cell_volume                     1715.66
loop_
_atom_site_label
_atom_site_type_symbol
_atom_site_fract_x
_atom_site_fract_y
_atom_site_fract_z
Eu1 Eu 0.0000 0.0000 0.0000
N1 N -0.1598(12) 0.0360(18) 0.1249(8)
N2 N -0.2754(12) 0.0413(17) 0.0761(8)
C1 C -0.3609(12) 0.1026(10) 0.1257(7)
C2 C -0.3027(12) 0.1411(19) 0.2077(10)
C3 C -0.1837(12) 0.096(2) 0.1995(9)
C4 C -0.500(2) 0.1357(17) 0.1012(12)
H1 H -0.5214 0.0979 0.0439
H2 H -0.5096 0.2270 0.0974
H3 H -0.5567 0.1029 0.1469
C5 C -0.071(2) 0.138(3) 0.2601(17)
H4 H 0.0056 0.0960 0.2405
H5 H -0.0893 0.1147 0.3216
H6 H -0.0607 0.2289 0.2558
Eu1H Eu -0.5000 0.5000 0.5000
Eu1H_2 Eu -0.5000 -0.5000 0.5000
Eu1H_3 Eu 0.5000 -0.5000 0.5000
Eu1H_4 Eu 0.5000 0.5000 0.5000
N1N N -0.4640(18) 0.3402(12) 0.3751(8)
N1A N -0.0360(18) -0.1598(12) 0.1249(8)
N1M N -0.3402(12) -0.4640(18) 0.3751(8)
N1B N 0.1598(12) -0.0360(18) 0.1249(8)
N1O N 0.4640(18) -0.3402(12) 0.3751(8)
N1C N 0.0360(18) 0.1598(12) 0.1249(8)
N1L N 0.3402(12) 0.4640(18) 0.3751(8)
N1D N -0.1598(12) -0.0360(18) -0.1249(8)
N1E N 0.1598(12) 0.0360(18) -0.1249(8)
N1F N 0.0360(18) -0.1598(12) -0.1249(8)
N1G N -0.0360(18) 0.1598(12) -0.1249(8)
N2N N -0.4587(17) 0.2246(12) 0.4239(8)
N2A N -0.0413(17) -0.2754(12) 0.0761(8)
N2M N -0.2246(12) -0.4587(17) 0.4239(8)
N2B N 0.2754(12) -0.0413(17) 0.0761(8)
N2O N 0.4587(17) -0.2246(12) 0.4239(8)
N2C N 0.0413(17) 0.2754(12) 0.0761(8)
N2L N 0.2246(12) 0.4587(17) 0.4239(8)
C1N C -0.3974(10) 0.1391(12) 0.3743(7)
C1A C -0.1026(10) -0.3609(12) 0.1257(7)
C1M C -0.1391(12) -0.3974(10) 0.3743(7)
C1B C 0.3609(12) -0.1026(10) 0.1257(7)
C1O C 0.3974(10) -0.1391(12) 0.3743(7)
C1C C 0.1026(10) 0.3609(12) 0.1257(7)
C1L C 0.1391(12) 0.3974(10) 0.3743(7)
C2N C -0.3589(19) 0.1973(12) 0.2923(10)
C2A C -0.1411(19) -0.3027(12) 0.2077(10)
C2M C -0.1973(12) -0.3589(19) 0.2923(10)
C2B C 0.3027(12) -0.1411(19) 0.2077(10)
C2O C 0.3589(19) -0.1973(12) 0.2923(10)
C2C C 0.1411(19) 0.3027(12) 0.2077(10)
C2L C 0.1973(12) 0.3589(19) 0.2923(10)
C3N C -0.404(2) 0.3163(12) 0.3005(9)
C3A C -0.096(2) -0.1837(12) 0.1995(9)
C3M C -0.3163(12) -0.404(2) 0.3005(9)
C3B C 0.1837(12) -0.096(2) 0.1995(9)
C3O C 0.404(2) -0.3163(12) 0.3005(9)
C3C C 0.096(2) 0.1837(12) 0.1995(9)
C3L C 0.3163(12) 0.404(2) 0.3005(9)
C4N C -0.3643(17) 0.000(2) 0.3988(12)
C4A C -0.1357(17) -0.500(2) 0.1012(12)
C4M C 0.000(2) -0.3643(17) 0.3988(12)
C4B C 0.500(2) -0.1357(17) 0.1012(12)
C4O C 0.3643(17) 0.000(2) 0.3988(12)
C4C C 0.1357(17) 0.500(2) 0.1012(12)
C4L C 0.000(2) 0.3643(17) 0.3988(12)
H1N H -0.4021 -0.0214 0.4561
H1A H -0.0979 -0.5214 0.0439
H1M H 0.0214 -0.4021 0.4561
H1B H 0.5214 -0.0979 0.0439
H1O H 0.4021 0.0214 0.4561
H1C H 0.0979 0.5214 0.0439
H1L H -0.0214 0.4021 0.4561
H2N H -0.2730 -0.0096 0.4026
H2A H -0.2270 -0.5096 0.0974
H2M H 0.0096 -0.2730 0.4026
H2B H 0.5096 -0.2270 0.0974
H2O H 0.2730 0.0096 0.4026
H2C H 0.2270 0.5096 0.0974
H2L H -0.0096 0.2730 0.4026
H3N H -0.3971 -0.0567 0.3531
H3A H -0.1029 -0.5567 0.1469
H3M H 0.0567 -0.3971 0.3531
H3B H 0.5567 -0.1029 0.1469
H3O H 0.3971 0.0567 0.3531
H3C H 0.1029 0.5567 0.1469
H3L H -0.0567 0.3971 0.3531
C5N C -0.362(3) 0.429(2) 0.2399(17)
C5A C -0.138(3) -0.071(2) 0.2601(17)
C5M C -0.429(2) -0.362(3) 0.2399(17)
C5B C 0.071(2) -0.138(3) 0.2601(17)
C5O C 0.362(3) -0.429(2) 0.2399(17)
C5C C 0.138(3) 0.071(2) 0.2601(17)
C5L C 0.429(2) 0.362(3) 0.2399(17)
H4N H -0.4040 0.5056 0.2595
H4A H -0.0960 0.0056 0.2405
H4M H -0.5056 -0.4040 0.2595
H4B H -0.0056 -0.0960 0.2405
H4O H 0.4040 -0.5056 0.2595
H4C H 0.0960 -0.0056 0.2405
H4L H 0.5056 0.4040 0.2595
H5N H -0.3853 0.4107 0.1784
H5A H -0.1147 -0.0893 0.3216
H5M H -0.4107 -0.3853 0.1784
H5B H 0.0893 -0.1147 0.3216
H5O H 0.3853 -0.4107 0.1784
H5C H 0.1147 0.0893 0.3216
H5L H 0.4107 0.3853 0.1784
H6N H -0.2711 0.4393 0.2442
H6A H -0.2289 -0.0607 0.2558
H6M H -0.4393 -0.2711 0.2442
H6B H 0.0607 -0.2289 0.2558
H6O H 0.2711 -0.4393 0.2442
H6C H 0.2289 0.0607 0.2558
H6L H 0.4393 0.2711 0.2442
loop_
_geom_bond_atom_site_label_1
_geom_bond_atom_site_label_2
_geom_bond_site_symmetry_1
_geom_bond_site_symmetry_2
Eu1 N1 1_555 1_555
N1 N2 1_555 1_555
N2 C1 1_555 1_555
C1 C2 1_555 1_555
C2 C3 1_555 1_555
C3 N1 1_555 1_555
C4 C1 1_555 1_555
H1 C4 1_555 1_555
H2 C4 1_555 1_555
H3 C4 1_555 1_555
C5 C3 1_555 1_555
H4 C5 1_555 1_555
H5 C5 1_555 1_555
H6 C5 1_555 1_555
Eu1H N1N 1_555 1_555
Eu1H_2 N1M 1_555 1_555
Eu1H_3 N1O 1_555 1_555
Eu1H_4 N1L 1_555 1_555
N1N N2N 1_555 1_555
N1A Eu1 1_555 1_555
N1M N2M 1_555 1_555
N1B Eu1 1_555 1_555
N1O N2O 1_555 1_555
N1C Eu1 1_555 1_555
N1L N2L 1_555 1_555
N1D Eu1 1_555 1_555
N1E Eu1 1_555 1_555
N1F Eu1 1_555 1_555
N1G Eu1 1_555 1_555
N2N C1N 1_555 1_555
N2A N1A 1_555 1_555
N2M C1M 1_555 1_555
N2B N1B 1_555 1_555
N2O C1O 1_555 1_555
N2C N1C 1_555 1_555
N2L C1L 1_555 1_555
C1N C2N 1_555 1_555
C1A N2A 1_555 1_555
C1M C2M 1_555 1_555
C1B N2B 1_555 1_555
C1O C2O 1_555 1_555
C1C N2C 1_555 1_555
C1L C2L 1_555 1_555
C2N C2 1_555 1_555
C2A C1A 1_555 1_555
C2M C2A 1_555 1_555
C2B C1B 1_555 1_555
C2O C2B 1_555 1_555
C2C C1C 1_555 1_555
C2L C2C 1_555 1_555
C3N N1N 1_555 1_555
C3A N1A 1_555 1_555
C3M N1M 1_555 1_555
C3B N1B 1_555 1_555
C3O N1O 1_555 1_555
C3C N1C 1_555 1_555
C3L N1L 1_555 1_555
C4N C1N 1_555 1_555
C4A C1A 1_555 1_555
C4M C1M 1_555 1_555
C4B C1B 1_555 1_555
C4O C1O 1_555 1_555
C4C C1C 1_555 1_555
C4L C1L 1_555 1_555
H1N C4N 1_555 1_555
H1A C4A 1_555 1_555
H1M C4M 1_555 1_555
H1B C4B 1_555 1_555
H1O C4O 1_555 1_555
H1C C4C 1_555 1_555
H1L C4L 1_555 1_555
H2N C4N 1_555 1_555
H2A C4A 1_555 1_555
H2M C4M 1_555 1_555
H2B C4B 1_555 1_555
H2O C4O 1_555 1_555
H2C C4C 1_555 1_555
H2L C4L 1_555 1_555
H3N C4N 1_555 1_555
H3A C4A 1_555 1_555
H3M C4M 1_555 1_555
H3B C4B 1_555 1_555
H3O C4O 1_555 1_555
H3C C4C 1_555 1_555
H3L C4L 1_555 1_555
C5N C3N 1_555 1_555
C5A C3A 1_555 1_555
C5M C3M 1_555 1_555
C5B C3B 1_555 1_555
C5O C3O 1_555 1_555
C5C C3C 1_555 1_555
C5L C3L 1_555 1_555
H4N C5N 1_555 1_555
H4A C5A 1_555 1_555
H4M C5M 1_555 1_555
H4B C5B 1_555 1_555
H4O C5O 1_555 1_555
H4C C5C 1_555 1_555
H4L C5L 1_555 1_555
H5N C5N 1_555 1_555
H5A C5A 1_555 1_555
H5M C5M 1_555 1_555
H5B C5B 1_555 1_555
H5O C5O 1_555 1_555
H5C C5C 1_555 1_555
H5L C5L 1_555 1_555
H6N C5N 1_555 1_555
H6A C5A 1_555 1_555
H6M C5M 1_555 1_555
H6B C5B 1_555 1_555
H6O C5O 1_555 1_555
H6C C5C 1_555 1_555
H6L C5L 1_555 1_555
C2N C3N 1_555 1_555
C2A C3A 1_555 1_555
C2M C3M 1_555 1_555
C2B C3B 1_555 1_555
C2O C3O 1_555 1_555
C2C C3C 1_555 1_555
C2L C3L 1_555 1_555

#END
