
#######################################################################
#
#                 Cambridge Crystallographic Data Centre
#                                CCDC 
#
#######################################################################
#
# If this CIF has been generated from an entry in the Cambridge 
# Structural Database, then it will include bibliographic, chemical, 
# crystal, experimental, refinement or atomic coordinate data resulting 
# from the CCDC's data processing and validation procedures.
#
#######################################################################

data_CUFNEX
_symmetry_cell_setting           triclinic
_symmetry_space_group_name_H-M   'P -1'
_symmetry_Int_Tables_number      2
_space_group_name_Hall           '-P 1'
loop_
_symmetry_equiv_pos_site_id
_symmetry_equiv_pos_as_xyz
1 x,y,z
2 -x,-y,-z
_cell_length_a                   7.516(3)
_cell_length_b                   9.665(2)
_cell_length_c                   14.645(3)
_cell_angle_alpha                81.01(3)
_cell_angle_beta                 80.51(4)
_cell_angle_gamma                80.52(4)
_cell_volume                     1025.8
loop_
_atom_site_label
_atom_site_type_symbol
_atom_site_fract_x
_atom_site_fract_y
_atom_site_fract_z
Cu1 Cu 0.5000 1.5000 0.5000
N1 N 0.7482(5) 1.3772(4) 0.4845(3)
H1 H 0.8117 1.4115 0.4305
H2 H 0.8076 1.3884 0.5308
N2 N 0.6918(6) 0.6877(6) 0.4893(3)
O1 O 0.4805(4) 1.4669(4) 0.6393(2)
C1 C 0.7540(7) 1.2295(6) 0.4843(4)
C2 C 0.7273(7) 1.1818(6) 0.4034(3)
H5 H 0.7167 1.2452 0.3492
C3 C 0.7167(7) 1.0426(6) 0.4035(3)
H6 H 0.6962 1.0112 0.3497
C4 C 0.7366(7) 0.9469(6) 0.4844(4)
C5 C 0.7669(6) 0.9936(6) 0.5645(3)
H7 H 0.7815 0.9299 0.6182
C6 C 0.7753(7) 1.1344(6) 0.5642(3)
H8 H 0.7954 1.1661 0.6179
C7 C 0.7155(7) 0.8009(7) 0.4866(3)
Cu1_2 Cu 0.5000 0.5000 0.5000
Cu1_3 Cu 0.5000 2.5000 0.5000
N1A N 0.2518(5) 1.6228(4) 0.5155(3)
H1A H 0.1883 1.5885 0.5695
H2A H 0.1924 1.6116 0.4692
N2A N 0.3082(6) 2.3123(6) 0.5107(3)
N2_2 N 0.6918(6) 1.6877(6) 0.4893(3)
N2A_2 N 0.3082(6) 1.3123(6) 0.5107(3)
O1A O 0.5195(4) 1.5331(4) 0.3607(2)
C1A C 0.2460(7) 1.7705(6) 0.5157(4)
C2A C 0.2727(7) 1.8182(6) 0.5966(3)
H5A H 0.2833 1.7548 0.6508
C3A C 0.2833(7) 1.9574(6) 0.5965(3)
H6A H 0.3038 1.9888 0.6503
C4A C 0.2634(7) 2.0531(6) 0.5156(4)
C5A C 0.2331(6) 2.0064(6) 0.4355(3)
H7A H 0.2185 2.0701 0.3818
C6A C 0.2247(7) 1.8656(6) 0.4358(3)
H8A H 0.2046 1.8339 0.3821
C7A C 0.2845(7) 2.1991(7) 0.5134(3)
Cu2 Cu 1.0000 1.0000 0.0000
N3 N 0.7465(6) 1.1264(5) 0.0128(3)
H3 H 0.6949 1.1235 -0.0380
H4 H 0.6760 1.0869 0.0625
N4 N 0.8112(7) 1.8048(6) 0.0431(3)
O2 O 1.0082(5) 1.0081(4) 0.1317(2)
C8 C 0.7412(7) 1.2719(6) 0.0230(4)
C9 C 0.7464(7) 1.3114(6) 0.1087(4)
H9 H 0.7427 1.2443 0.1616
C10 C 0.7569(7) 1.4496(6) 0.1164(4)
H10 H 0.7612 1.4760 0.1743
C11 C 0.7612(7) 1.5495(6) 0.0372(4)
C12 C 0.7502(7) 1.5099(6) -0.0481(4)
H11 H 0.7488 1.5773 -0.1009
C13 C 0.7415(7) 1.3726(6) -0.0552(4)
H12 H 0.7356 1.3464 -0.1129
C14 C 0.7848(7) 1.6920(6) 0.0421(3)
Cu2_2 Cu 1.0000 2.0000 0.0000
Cu2_3 Cu 1.0000 0.0000 0.0000
N3A N 1.2535(6) 0.8736(5) -0.0128(3)
H3A H 1.3051 0.8765 0.0380
H4A H 1.3240 0.9131 -0.0625
N4A N 1.1888(7) 0.1952(6) -0.0431(3)
N4_2 N 0.8112(7) 0.8048(6) 0.0431(3)
N4A_2 N 1.1888(7) 1.1952(6) -0.0431(3)
O2A O 0.9918(5) 0.9919(4) -0.1317(2)
C8A C 1.2588(7) 0.7281(6) -0.0230(4)
C9A C 1.2536(7) 0.6886(6) -0.1087(4)
H9A H 1.2573 0.7557 -0.1616
C10A C 1.2431(7) 0.5504(6) -0.1164(4)
H10A H 1.2388 0.5240 -0.1743
C11A C 1.2388(7) 0.4505(6) -0.0372(4)
C12A C 1.2498(7) 0.4901(6) 0.0481(4)
H11A H 1.2512 0.4227 0.1009
C13A C 1.2585(7) 0.6274(6) 0.0552(4)
H12A H 1.2644 0.6536 0.1129
C14A C 1.2152(7) 0.3080(6) -0.0421(3)
N5 N 0.4856(5) 1.1333(5) 0.7808(3)
O6 O 0.6060(5) 1.1711(4) 0.8122(3)
O7 O 0.3974(5) 1.2181(4) 0.7257(2)
O8 O 0.4454(5) 1.0112(4) 0.8014(2)
N6 N 1.1393(6) 1.4361(5) 0.3137(3)
O3 O 1.0897(5) 1.5379(4) 0.3589(3)
O4 O 1.3005(6) 1.4053(5) 0.2832(3)
O5 O 1.0268(5) 1.3688(5) 0.2995(3)
O9 O 0.0379(5) 1.2071(4) 0.7412(2)
O10 O 1.2179(6) 1.1629(4) 0.1838(3)
loop_
_geom_bond_atom_site_label_1
_geom_bond_atom_site_label_2
_geom_bond_site_symmetry_1
_geom_bond_site_symmetry_2
Cu1 N1 1_555 1_555
Cu2 N3 1_555 1_555
N1 H1 1_555 1_555
H2 N1 1_555 1_555
N2 C7 1_555 1_555
N3 H3 1_555 1_555
H4 N3 1_555 1_555
N4 C14 1_555 1_555
N5 O6 1_555 1_555
N6 O3 1_555 1_555
O1 Cu1 1_555 1_555
O2 Cu2 1_555 1_555
O4 N6 1_555 1_555
O5 N6 1_555 1_555
O7 N5 1_555 1_555
O8 N5 1_555 1_555
C1 N1 1_555 1_555
C2 C1 1_555 1_555
H5 C2 1_555 1_555
C3 C2 1_555 1_555
H6 C3 1_555 1_555
C4 C3 1_555 1_555
C5 C4 1_555 1_555
H7 C5 1_555 1_555
C6 C1 1_555 1_555
H8 C6 1_555 1_555
C7 C4 1_555 1_555
C8 N3 1_555 1_555
C9 C8 1_555 1_555
H9 C9 1_555 1_555
C10 C9 1_555 1_555
H10 C10 1_555 1_555
C11 C10 1_555 1_555
C12 C11 1_555 1_555
H11 C12 1_555 1_555
C13 C8 1_555 1_555
H12 C13 1_555 1_555
C14 C11 1_555 1_555
Cu1_2 N2 1_555 1_555
Cu1_3 N2A 1_555 1_555
Cu2_2 N4 1_555 1_555
Cu2_3 N4A 1_555 1_555
N1A Cu1 1_555 1_555
H1A N1A 1_555 1_555
H2A N1A 1_555 1_555
N2A C7A 1_555 1_555
N2_2 Cu1 1_555 1_555
N2A_2 Cu1 1_555 1_555
N3A Cu2 1_555 1_555
H3A N3A 1_555 1_555
H4A N3A 1_555 1_555
N4A C14A 1_555 1_555
N4_2 Cu2 1_555 1_555
N4A_2 Cu2 1_555 1_555
O1A Cu1 1_555 1_555
O2A Cu2 1_555 1_555
C1A N1A 1_555 1_555
C2A C1A 1_555 1_555
H5A C2A 1_555 1_555
C3A C2A 1_555 1_555
H6A C3A 1_555 1_555
C4A C3A 1_555 1_555
C5A C4A 1_555 1_555
H7A C5A 1_555 1_555
C6A C1A 1_555 1_555
H8A C6A 1_555 1_555
C7A C4A 1_555 1_555
C8A N3A 1_555 1_555
C9A C8A 1_555 1_555
H9A C9A 1_555 1_555
C10A C9A 1_555 1_555
H10A C10A 1_555 1_555
C11A C10A 1_555 1_555
C12A C11A 1_555 1_555
H11A C12A 1_555 1_555
C13A C8A 1_555 1_555
H12A C13A 1_555 1_555
C14A C11A 1_555 1_555
C5 C6 1_555 1_555
C12 C13 1_555 1_555
C5A C6A 1_555 1_555
C12A C13A 1_555 1_555

#END
