
#######################################################################
#
#                 Cambridge Crystallographic Data Centre
#                                CCDC 
#
#######################################################################
#
# If this CIF has been generated from an entry in the Cambridge 
# Structural Database, then it will include bibliographic, chemical, 
# crystal, experimental, refinement or atomic coordinate data resulting 
# from the CCDC's data processing and validation procedures.
#
#######################################################################

data_CUFQAX
_symmetry_cell_setting           triclinic
_symmetry_space_group_name_H-M   'P -1'
_symmetry_Int_Tables_number      2
_space_group_name_Hall           '-P 1'
loop_
_symmetry_equiv_pos_site_id
_symmetry_equiv_pos_as_xyz
1 x,y,z
2 -x,-y,-z
_cell_length_a                   9.0667(3)
_cell_length_b                   10.4968(5)
_cell_length_c                   13.9008(7)
_cell_angle_alpha                72.739(2)
_cell_angle_beta                 73.394(3)
_cell_angle_gamma                67.672(3)
_cell_volume                     1146.01
loop_
_atom_site_label
_atom_site_type_symbol
_atom_site_fract_x
_atom_site_fract_y
_atom_site_fract_z
U1 U 0.40548(3) 0.27086(2) 1.04268(2)
U2 U 1.14131(3) 0.21958(2) 0.50192(2)
O1 O 0.2811(5) 0.3024(4) 0.9560(3)
O2 O 0.5355(6) 0.2407(4) 1.1260(3)
O3 O 0.9937(7) 0.2885(6) 0.4237(4)
O4 O 1.2846(7) 0.1503(5) 0.5825(4)
O5 O 0.5608(5) 0.4002(4) 0.9176(3)
O6 O 0.7323(5) 0.4963(4) 0.9317(3)
O7 O 0.9782(7) 0.0911(5) 0.6173(4)
O8 O 1.0045(9) -0.1084(6) 0.7338(5)
O9 O 0.5999(5) 0.0962(4) 0.9561(3)
O10 O 0.6246(6) -0.0479(4) 0.8588(3)
O11 O 0.9740(6) 0.3783(5) 0.6103(4)
O12 O 0.7731(7) 0.5763(5) 0.5739(4)
O13 O 0.1711(7) 0.2886(5) 1.1866(4)
H1 H 0.0982 0.2433 1.2158
H2 H 0.1054 0.3736 1.2038
O14 O 1.3748(9) 0.1749(7) 0.3581(5)
H3 H 1.3437 0.2319 0.2981
H4 H 1.4522 0.2085 0.3613
O15 O 1.2218(7) -0.0138(6) 0.4576(4)
H5 H 1.1382 -0.0281 0.4475
H6 H 1.2730 -0.1078 0.4990
C1 C 0.8502(7) 0.2116(5) 0.8065(4)
C2 C 0.8466(7) 0.2785(5) 0.8816(4)
C3 C 0.9741(8) 0.2288(6) 0.9331(5)
H7 H 0.9721 0.2761 0.9823
C4 C 1.1054(8) 0.1096(7) 0.9132(5)
H8 H 1.1929 0.0763 0.9485
C5 C 1.1084(8) 0.0402(6) 0.8425(5)
H9 H 1.1957 -0.0431 0.8309
C6 C 0.9831(7) 0.0925(6) 0.7881(4)
C7 C 0.7033(7) 0.4002(5) 0.9115(4)
C8 C 0.9897(8) 0.0166(6) 0.7095(5)
C9 C 0.7164(7) 0.2600(5) 0.7487(4)
C10 C 0.6050(7) 0.1866(6) 0.7773(4)
C11 C 0.4851(9) 0.2208(7) 0.7216(5)
H10 H 0.4158 0.1650 0.7395
C12 C 0.4665(10) 0.3358(9) 0.6399(6)
H11 H 0.3819 0.3622 0.6032
C13 C 0.5732(11) 0.4116(8) 0.6127(5)
H12 H 0.5589 0.4922 0.5580
C14 C 0.6999(8) 0.3738(7) 0.6626(5)
C15 C 0.6103(7) 0.0699(5) 0.8707(4)
C16 C 0.8246(9) 0.4488(7) 0.6141(5)
U1A U 0.59452(3) -0.27086(2) 0.95732(2)
U1A_2 U 0.59452(3) 0.72914(2) 0.95732(2)
U2A U 0.85869(3) 0.78042(2) 0.49808(2)
O6A O 0.2677(5) 0.5037(4) 1.0683(3)
O10A O 0.3754(6) 0.0479(4) 1.1412(3)
O12A O 1.2269(7) 0.4237(5) 0.4261(4)
O16 O -0.0803(10) 0.5179(7) 1.2365(6)
N1 N 0.3584(14) 0.7748(11) 0.6168(9)
C17 C 0.3252(19) 0.7076(15) 0.6938(10)
C18 C 0.2778(17) 0.6164(13) 0.7978(9)
H13 H 0.2212 0.6757 0.8486
H14 H 0.3759 0.5446 0.8197
H15 H 0.2058 0.5703 0.7920
loop_
_geom_bond_atom_site_label_1
_geom_bond_atom_site_label_2
_geom_bond_site_symmetry_1
_geom_bond_site_symmetry_2
U1 O1 1_555 1_555
U2 O3 1_555 1_555
O2 U1 1_555 1_555
O4 U2 1_555 1_555
O5 U1 1_555 1_555
O6 C7 1_555 1_555
O7 U2 1_555 1_555
O8 C8 1_555 1_555
O9 U1 1_555 1_555
O10 C15 1_555 1_555
O11 U2 1_555 1_555
O12 C16 1_555 1_555
O13 U1 1_555 1_555
H1 O13 1_555 1_555
H2 O13 1_555 1_555
O14 U2 1_555 1_555
H3 O14 1_555 1_555
H4 O14 1_555 1_555
O15 U2 1_555 1_555
H5 O15 1_555 1_555
H6 O15 1_555 1_555
C1 C2 1_555 1_555
C2 C3 1_555 1_555
C3 H7 1_555 1_555
C4 C3 1_555 1_555
H8 C4 1_555 1_555
C5 C4 1_555 1_555
H9 C5 1_555 1_555
C6 C1 1_555 1_555
C7 O5 1_555 1_555
C8 O7 1_555 1_555
C9 C1 1_555 1_555
C10 C9 1_555 1_555
C11 C10 1_555 1_555
H10 C11 1_555 1_555
C12 C11 1_555 1_555
H11 C12 1_555 1_555
C13 C12 1_555 1_555
H12 C13 1_555 1_555
C14 C9 1_555 1_555
C15 O9 1_555 1_555
C16 O11 1_555 1_555
N1 C17 1_555 1_555
C17 C18 1_555 1_555
C18 H13 1_555 1_555
H14 C18 1_555 1_555
H15 C18 1_555 1_555
U1A O10 1_555 1_555
U1A_2 O6 1_555 1_555
U2A O12 1_555 1_555
O6A U1 1_555 1_555
O10A U1 1_555 1_555
O12A U2 1_555 1_555
C2 C7 1_555 1_555
C5 C6 1_555 1_555
C6 C8 1_555 1_555
C10 C15 1_555 1_555
C13 C14 1_555 1_555
C14 C16 1_555 1_555

#END
