
#######################################################################
#
#                 Cambridge Crystallographic Data Centre
#                                CCDC 
#
#######################################################################
#
# If this CIF has been generated from an entry in the Cambridge 
# Structural Database, then it will include bibliographic, chemical, 
# crystal, experimental, refinement or atomic coordinate data resulting 
# from the CCDC's data processing and validation procedures.
#
#######################################################################

data_CUFQOJ
_symmetry_cell_setting           cubic
_symmetry_space_group_name_H-M   'P 21 3'
_symmetry_Int_Tables_number      198
_space_group_name_Hall           'P 2ac 2ab 3'
loop_
_symmetry_equiv_pos_site_id
_symmetry_equiv_pos_as_xyz
1 x,y,z
2 1/2-x,-y,1/2+z
3 -x,1/2+y,1/2-z
4 1/2+x,1/2-y,-z
5 z,x,y
6 1/2+z,1/2-x,-y
7 1/2-z,-x,1/2+y
8 -z,1/2+x,1/2-y
9 y,z,x
10 -y,1/2+z,1/2-x
11 1/2+y,1/2-z,-x
12 1/2-y,-z,1/2+x
_cell_length_a                   15.6365(18)
_cell_length_b                   15.6365(18)
_cell_length_c                   15.6365(18)
_cell_angle_alpha                90
_cell_angle_beta                 90
_cell_angle_gamma                90
_cell_volume                     3823.13
loop_
_atom_site_label
_atom_site_type_symbol
_atom_site_fract_x
_atom_site_fract_y
_atom_site_fract_z
Zn1 Zn -0.87578(2) 0.12422(2) 0.12422(2)
N1 N -0.87870(17) 0.13731(18) -0.01314(15)
N2 N -0.73958(15) 0.10501(17) 0.13131(18)
C1 C -0.8774(2) 0.2179(2) -0.0433(2)
C2 C -0.8809(2) 0.2338(3) -0.1309(2)
H1 H -0.8797(2) 0.281(2) -0.1482(9)
C3 C -0.8865(3) 0.1659(4) -0.1864(3)
H2 H -0.8889(3) 0.1735(6) -0.232(3)
C4 C -0.8874(3) 0.0845(3) -0.1563(3)
H3 H -0.8909(3) 0.033(2) -0.1972(17)
C5 C -0.8836(2) 0.0729(3) -0.0688(2)
H4 H -0.8843(3) 0.028(2) -0.0517(9)
C6 C -0.7137(2) 0.0231(2) 0.1267(2)
C7 C -0.6269(2) 0.0029(3) 0.1268(2)
H5 H -0.6114(8) -0.046(2) 0.1229(3)
C8 C -0.5677(3) 0.0690(4) 0.1338(3)
H6 H -0.516(3) 0.0583(7) 0.1347(3)
C9 C -0.5951(3) 0.1507(3) 0.1392(3)
H7 H -0.5595(18) 0.191(2) 0.1434(4)
C10 C -0.6817(2) 0.1673(3) 0.1379(2)
H8 H -0.7003(8) 0.224(2) 0.1416(3)
C6D C -0.8733(2) 0.2863(2) 0.0231(2)
N2D N -0.86869(18) 0.26042(15) 0.10501(17)
N1D N -1.01314(15) 0.12130(17) 0.13731(18)
C1D C -1.0433(2) 0.1226(2) 0.2179(2)
C2D C -1.1309(2) 0.1191(2) 0.2338(3)
H1D H -1.1482(9) 0.1203(2) 0.281(2)
C3D C -1.1864(3) 0.1135(3) 0.1659(4)
H2D H -1.232(3) 0.1111(3) 0.1735(6)
C4D C -1.1563(3) 0.1126(3) 0.0845(3)
H3D H -1.1972(17) 0.1091(3) 0.033(2)
C5D C -1.0688(2) 0.1164(2) 0.0729(3)
H4D H -1.0517(9) 0.1157(3) 0.028(2)
C6H C -0.9769(2) 0.1267(2) 0.2863(2)
N2H N -0.89499(17) 0.13131(18) 0.26042(15)
N1H N -0.86269(18) -0.01314(15) 0.12130(17)
C1H C -0.7821(2) -0.0433(2) 0.1226(2)
C2H C -0.7662(3) -0.1309(2) 0.1191(2)
H1H H -0.719(2) -0.1482(9) 0.1203(2)
C3H C -0.8341(4) -0.1864(3) 0.1135(3)
H2H H -0.8265(6) -0.232(3) 0.1111(3)
C4H C -0.9155(3) -0.1563(3) 0.1126(3)
H3H H -0.967(2) -0.1972(17) 0.1091(3)
C5H C -0.9271(3) -0.0688(2) 0.1164(2)
H4H H -0.972(2) -0.0517(9) 0.1157(3)
C10H C -0.8327(3) 0.1379(2) 0.3183(2)
C9H C -0.8493(3) 0.1392(3) 0.4049(3)
C8H C -0.9310(4) 0.1338(3) 0.4323(3)
C7H C -0.9971(3) 0.1268(2) 0.3731(2)
H5H H -1.046(2) 0.1229(3) 0.3886(8)
H6H H -0.9417(7) 0.1347(3) 0.484(3)
H7H H -0.809(2) 0.1434(4) 0.4405(18)
H8H H -0.776(2) 0.1416(3) 0.2997(8)
C10D C -0.8621(2) 0.3183(2) 0.1673(3)
C9D C -0.8608(3) 0.4049(3) 0.1507(3)
C8D C -0.8662(3) 0.4323(3) 0.0690(4)
C7D C -0.8732(2) 0.3731(2) 0.0029(3)
H5D H -0.8771(3) 0.3886(8) -0.046(2)
H6D H -0.8653(3) 0.484(3) 0.0583(7)
H7D H -0.8566(4) 0.4405(18) 0.191(2)
H8D H -0.8584(3) 0.2997(8) 0.224(2)
Cr1 Cr 0.64792(3) 0.85208(3) 0.14792(3)
O1 O 0.64523(14) 0.72610(14) 0.14099(15)
O2 O 0.63806(13) 0.97686(13) 0.15948(16)
O3 O 0.55453(15) 0.62096(15) 0.11183(18)
O4 O 0.61452(14) 1.07673(15) 0.25678(18)
C11 C 0.6257(2) 1.0024(2) 0.2359(2)
C12 C 0.5710(2) 0.6960(2) 0.1253(2)
Na1 Na 0.59537(9) 1.09537(9) 0.40463(9)
Na1B Na 0.40463(9) 0.59537(9) 0.09537(9)
O1E O 0.64099(15) 0.85477(14) 0.27390(14)
C12E C 0.6253(2) 0.9290(2) 0.3040(2)
O3E O 0.61183(18) 0.94547(15) 0.37904(15)
O3B O 0.44547(15) 1.12096(15) 0.38817(18)
O3H O 0.62096(15) 1.11183(18) 0.55453(15)
O1K O 0.77390(14) 0.85901(15) 0.14523(14)
C12K C 0.8040(2) 0.8747(2) 0.0710(2)
O3K O 0.87904(15) 0.88817(18) 0.05453(15)
Na1A Na 0.90463(9) 0.90463(9) -0.09537(9)
O4E O 0.75678(18) 0.88548(14) -0.07673(15)
C11E C 0.7359(2) 0.8743(2) -0.0024(2)
O2E O 0.65948(16) 0.86194(13) 0.02314(13)
O2K O 0.52314(13) 0.84052(16) 0.13806(13)
C11K C 0.4976(2) 0.7641(2) 0.1257(2)
O4K O 0.42327(15) 0.74322(18) 0.11452(14)
O4J O 0.57673(15) 1.24322(18) 0.38548(14)
O4G O 0.74322(18) 1.11452(14) 0.42327(15)
loop_
_geom_bond_atom_site_label_1
_geom_bond_atom_site_label_2
_geom_bond_site_symmetry_1
_geom_bond_site_symmetry_2
Zn1 N1 1_555 1_555
N1 C1 1_555 1_555
N2 Zn1 1_555 1_555
C1 C2 1_555 1_555
C2 H1 1_555 1_555
C3 C2 1_555 1_555
H2 C3 1_555 1_555
C4 C3 1_555 1_555
H3 C4 1_555 1_555
C5 N1 1_555 1_555
H4 C5 1_555 1_555
C6 N2 1_555 1_555
C7 C6 1_555 1_555
H5 C7 1_555 1_555
C8 C7 1_555 1_555
H6 C8 1_555 1_555
C9 C8 1_555 1_555
H7 C9 1_555 1_555
C10 N2 1_555 1_555
H8 C10 1_555 1_555
Cr1 O1 1_555 1_555
O1 C12 1_555 1_555
O2 Cr1 1_555 1_555
O3 C12 1_555 1_555
O4 C11 1_555 1_555
C11 O2 1_555 1_555
C12 C11K 1_555 1_555
Na1 O4 1_555 1_555
C6D C1 1_555 1_555
N2D Zn1 1_555 1_555
N1D Zn1 1_555 1_555
C1D N1D 1_555 1_555
C2D C1D 1_555 1_555
H1D C2D 1_555 1_555
C3D C2D 1_555 1_555
H2D C3D 1_555 1_555
C4D C3D 1_555 1_555
H3D C4D 1_555 1_555
C5D N1D 1_555 1_555
H4D C5D 1_555 1_555
C6H C1D 1_555 1_555
N2H Zn1 1_555 1_555
N1H Zn1 1_555 1_555
C1H C6 1_555 1_555
C2H C1H 1_555 1_555
H1H C2H 1_555 1_555
C3H C2H 1_555 1_555
H2H C3H 1_555 1_555
C4H C3H 1_555 1_555
H3H C4H 1_555 1_555
C5H N1H 1_555 1_555
H4H C5H 1_555 1_555
C10H N2H 1_555 1_555
C9H C10H 1_555 1_555
C8H C9H 1_555 1_555
C7H C6H 1_555 1_555
H5H C7H 1_555 1_555
H6H C8H 1_555 1_555
H7H C9H 1_555 1_555
H8H C10H 1_555 1_555
C10D N2D 1_555 1_555
C9D C10D 1_555 1_555
C8D C9D 1_555 1_555
C7D C6D 1_555 1_555
H5D C7D 1_555 1_555
H6D C8D 1_555 1_555
H7D C9D 1_555 1_555
H8D C10D 1_555 1_555
Na1B O3 1_555 1_555
O1E Cr1 1_555 1_555
C12E C11 1_555 1_555
O3E Na1 1_555 1_555
O3B Na1 1_555 1_555
O3H Na1 1_555 1_555
O1K Cr1 1_555 1_555
C12K O1K 1_555 1_555
O3K C12K 1_555 1_555
Na1A O3K 1_555 1_555
O4E Na1A 1_555 1_555
C11E C12K 1_555 1_555
O2E Cr1 1_555 1_555
O2K Cr1 1_555 1_555
C11K O2K 1_555 1_555
O4K Na1B 1_555 1_555
O4J Na1 1_555 1_555
O4G Na1 1_555 1_555
C4 C5 1_555 1_555
C9 C10 1_555 1_555
C6D N2D 1_555 1_555
C4D C5D 1_555 1_555
C6H N2H 1_555 1_555
N1H C1H 1_555 1_555
C4H C5H 1_555 1_555
C8H C7H 1_555 1_555
C8D C7D 1_555 1_555
O1E C12E 1_555 1_555
C12E O3E 1_555 1_555
O4E C11E 1_555 1_555
C11E O2E 1_555 1_555
C11K O4K 1_555 1_555

#END
