
#######################################################################
#
#                 Cambridge Crystallographic Data Centre
#                                CCDC 
#
#######################################################################
#
# If this CIF has been generated from an entry in the Cambridge 
# Structural Database, then it will include bibliographic, chemical, 
# crystal, experimental, refinement or atomic coordinate data resulting 
# from the CCDC's data processing and validation procedures.
#
#######################################################################

data_CUFQEB
_symmetry_cell_setting           monoclinic
_symmetry_space_group_name_H-M   'P 21/n'
_symmetry_Int_Tables_number      14
_space_group_name_Hall           '-P 2yn'
loop_
_symmetry_equiv_pos_site_id
_symmetry_equiv_pos_as_xyz
1 x,y,z
2 1/2-x,1/2+y,1/2-z
3 -x,-y,-z
4 1/2+x,1/2-y,1/2+z
_cell_length_a                   9.3067(9)
_cell_length_b                   15.5727(15)
_cell_length_c                   14.1472(12)
_cell_angle_alpha                90
_cell_angle_beta                 93.923(7)
_cell_angle_gamma                90
_cell_volume                     2045.56
loop_
_atom_site_label
_atom_site_type_symbol
_atom_site_fract_x
_atom_site_fract_y
_atom_site_fract_z
U1 U 0.86713(8) 0.36291(4) 0.88597(5)
Cu1 Cu 0.3907(4) 0.4191(2) 0.3730(2)
O1 O 0.708(2) 0.3589(11) 0.9506(14)
O2 O 1.0257(18) 0.3681(9) 0.8250(11)
O3 O 0.7789(18) 0.2349(10) 0.8084(11)
O4 O 0.689(3) 0.1058(11) 0.8302(12)
O5 O 0.357(2) 0.3857(13) 0.5054(14)
O6 O 0.4582(17) 0.2615(9) 0.4635(9)
O7 O 0.7384(16) 0.4027(10) 0.7430(10)
O8 O 0.6615(19) 0.4460(10) 0.6005(12)
O9 O 0.4861(16) 0.0895(10) 0.5336(9)
O10 O 0.6627(17) 0.0158(9) 0.6086(10)
O11 O 0.595(3) 0.4296(12) 0.4093(13)
H1 H 0.6270 0.4382 0.4695
H2 H 0.6579 0.4696 0.3770
O12 O 0.422(2) 0.4345(12) 0.2397(13)
H3 H 0.3605 0.4800 0.2284
H4 H 0.4973 0.4765 0.2485
C1 C 0.530(2) 0.2413(12) 0.6638(13)
C2 C 0.534(3) 0.2109(14) 0.7572(16)
C3 C 0.408(4) 0.2069(19) 0.806(2)
H5 H 0.4092 0.1805 0.8665
C4 C 0.280(5) 0.242(2) 0.764(3)
H6 H 0.1953 0.2422 0.7977
C5 C 0.277(3) 0.2777(18) 0.673(3)
H7 H 0.1908 0.3021 0.6455
C6 C 0.405(2) 0.2772(14) 0.6228(16)
C7 C 0.672(3) 0.1830(15) 0.8021(15)
C8 C 0.403(3) 0.3102(14) 0.5255(19)
C9 C 0.6644(18) 0.2375(12) 0.6137(12)
C10 C 0.759(2) 0.3092(10) 0.6133(15)
C11 C 0.890(3) 0.3016(16) 0.573(2)
H8 H 0.9533 0.3494 0.5733
C12 C 0.930(3) 0.2234(14) 0.5309(19)
H9 H 1.0187 0.2188 0.5023
C13 C 0.837(3) 0.1536(13) 0.5320(16)
H10 H 0.8629 0.1013 0.5031
C14 C 0.710(2) 0.1587(13) 0.5737(15)
C15 C 0.721(2) 0.3959(10) 0.6553(13)
C16 C 0.612(2) 0.0815(11) 0.5747(12)
U1A U 0.63287(8) -0.13709(4) 0.61403(5)
U1C U 0.36713(8) 0.13709(4) 0.38597(5)
Cu1B Cu 0.6093(4) 0.5809(2) 0.6270(2)
Cu1C Cu 0.8907(4) 0.0809(2) 0.8730(2)
O3C O 0.2789(18) 0.2651(10) 0.3084(11)
O4C O 0.189(3) 0.3942(11) 0.3302(12)
O6C O 0.9582(17) 0.2385(9) 0.9635(9)
O8B O 0.3385(19) 0.5540(10) 0.3995(12)
O9C O 0.9861(16) 0.4105(10) 1.0336(9)
O10A O 0.8373(17) 0.5158(9) 0.8914(10)
O13 O 0.695(4) 0.466(2) 0.155(3)
loop_
_geom_bond_atom_site_label_1
_geom_bond_atom_site_label_2
_geom_bond_site_symmetry_1
_geom_bond_site_symmetry_2
U1 O1 1_555 1_555
Cu1 O5 1_555 1_555
O2 U1 1_555 1_555
O3 U1 1_555 1_555
O4 C7 1_555 1_555
O5 C8 1_555 1_555
O6 C8 1_555 1_555
O7 U1 1_555 1_555
O8 C15 1_555 1_555
O9 C16 1_555 1_555
O10 C16 1_555 1_555
O11 Cu1 1_555 1_555
H1 O11 1_555 1_555
H2 O11 1_555 1_555
O12 Cu1 1_555 1_555
H3 O12 1_555 1_555
H4 O12 1_555 1_555
C1 C2 1_555 1_555
C2 C3 1_555 1_555
C3 H5 1_555 1_555
C4 C3 1_555 1_555
H6 C4 1_555 1_555
C5 C4 1_555 1_555
H7 C5 1_555 1_555
C6 C1 1_555 1_555
C7 O3 1_555 1_555
C8 C6 1_555 1_555
C9 C1 1_555 1_555
C10 C9 1_555 1_555
C11 C10 1_555 1_555
H8 C11 1_555 1_555
C12 C11 1_555 1_555
H9 C12 1_555 1_555
C13 C12 1_555 1_555
H10 C13 1_555 1_555
C14 C9 1_555 1_555
C15 O7 1_555 1_555
C16 C14 1_555 1_555
U1A O10 1_555 1_555
U1C O6 1_555 1_555
Cu1B O8 1_555 1_555
Cu1C O3 1_555 1_555
O3C Cu1 1_555 1_555
O4C Cu1 1_555 1_555
O6C U1 1_555 1_555
O8B Cu1 1_555 1_555
O9C U1 1_555 1_555
O10A U1 1_555 1_555
O4 Cu1C 1_555 1_555
O9 U1C 1_555 1_555
C2 C7 1_555 1_555
C5 C6 1_555 1_555
C10 C15 1_555 1_555
C13 C14 1_555 1_555
U1C O3C 1_555 1_555

#END
