
#######################################################################
#
#                 Cambridge Crystallographic Data Centre
#                                CCDC 
#
#######################################################################
#
# If this CIF has been generated from an entry in the Cambridge 
# Structural Database, then it will include bibliographic, chemical, 
# crystal, experimental, refinement or atomic coordinate data resulting 
# from the CCDC's data processing and validation procedures.
#
#######################################################################

data_CUFROK
_symmetry_cell_setting           cubic
_symmetry_space_group_name_H-M   'P 21 3'
_symmetry_Int_Tables_number      198
_space_group_name_Hall           'P 2ac 2ab 3'
loop_
_symmetry_equiv_pos_site_id
_symmetry_equiv_pos_as_xyz
1 x,y,z
2 y,z,x
3 z,x,y
4 1/2+x,1/2-y,-z
5 1/2+y,1/2-z,-x
6 1/2+z,1/2-x,-y
7 -y,1/2+z,1/2-x
8 -z,1/2+x,1/2-y
9 1/2-z,-x,1/2+y
10 1/2-x,-y,1/2+z
11 1/2-y,-z,1/2+x
12 -x,1/2+y,1/2-z
_cell_length_a                   15.5850(8)
_cell_length_b                   15.5850(8)
_cell_length_c                   15.5850(8)
_cell_angle_alpha                90
_cell_angle_beta                 90
_cell_angle_gamma                90
_cell_volume                     3785.48
loop_
_atom_site_label
_atom_site_type_symbol
_atom_site_fract_x
_atom_site_fract_y
_atom_site_fract_z
Co1 Co -0.37587(2) 0.87587(2) 0.12413(2)
N1 N -0.51159(12) 0.87730(14) 0.13710(14)
C1 C -0.54160(17) 0.87742(17) 0.21835(18)
C2 C -0.6288(2) 0.88051(19) 0.2352(2)
H1 H -0.6490 0.8795 0.2913
C3 C -0.68504(19) 0.8851(2) 0.1670(3)
H2 H -0.7437 0.8881 0.1772
C4 C -0.6554(2) 0.8852(3) 0.0851(3)
H3 H -0.6929 0.8884 0.0388
C5 C -0.56817(18) 0.8806(2) 0.0729(2)
H4 H -0.5475 0.8797 0.0170
N2 N -0.37208(15) 0.74090(13) 0.10708(13)
C6 C -0.47495(17) 0.87408(17) 0.28662(18)
C7 C -0.4945(2) 0.8732(2) 0.3734(2)
H5 H -0.5512 0.8764 0.3918
C8 C -0.4283(2) 0.8675(2) 0.4321(3)
H6 H -0.4401 0.8663 0.4905
C9 C -0.3452(3) 0.8638(2) 0.4036(3)
H7 H -0.3000 0.8596 0.4424
C10 C -0.3662(2) 0.68253(18) 0.1699(2)
H8 H -0.3637 0.7016 0.2264
N2E N -0.39292(13) 0.87208(15) 0.25910(13)
N1E N -0.36290(14) 1.01159(12) 0.12270(14)
C1E C -0.28165(18) 1.04160(17) 0.12258(17)
C2E C -0.2648(2) 1.1288(2) 0.11949(19)
H1E H -0.2087 1.1490 0.1205
C3E C -0.3330(3) 1.18504(19) 0.1149(2)
H2E H -0.3228 1.2437 0.1119
C4E C -0.4149(3) 1.1554(2) 0.1148(3)
H3E H -0.4612 1.1929 0.1116
C5E C -0.4271(2) 1.06817(18) 0.1194(2)
H4E H -0.4830 1.0475 0.1203
C6E C -0.21338(18) 0.97495(17) 0.12592(17)
N2J N -0.24090(13) 0.89292(13) 0.12792(15)
N1J N -0.37730(14) 0.86290(14) -0.01159(12)
C1J C -0.37742(17) 0.78165(18) -0.04160(17)
C2J C -0.38051(19) 0.7648(2) -0.1288(2)
H1J H -0.3795 0.7087 -0.1490
C3J C -0.3851(2) 0.8330(3) -0.18504(19)
H2J H -0.3881 0.8228 -0.2437
C4J C -0.3852(3) 0.9149(3) -0.1554(2)
H3J H -0.3884 0.9612 -0.1929
C5J C -0.3806(2) 0.9271(2) -0.06817(18)
H4J H -0.3797 0.9830 -0.0475
C6J C -0.37408(17) 0.71338(18) 0.02505(17)
C9J C -0.3638(2) 0.5964(3) 0.1548(3)
C8J C -0.3675(2) 0.5679(3) 0.0717(2)
C7J C -0.3732(2) 0.6266(2) 0.0055(2)
H5J H -0.3764 0.6082 -0.0512
H6J H -0.3663 0.5095 0.0599
H7J H -0.3596 0.5576 0.2000
C10J C -0.18253(18) 0.8301(2) 0.1338(2)
C9E C -0.0964(3) 0.8452(3) 0.1362(2)
C8E C -0.0679(3) 0.9283(2) 0.1325(2)
C7E C -0.1266(2) 0.9945(2) 0.1268(2)
H5E H -0.1082 1.0512 0.1236
H6E H -0.0095 0.9401 0.1337
H7E H -0.0576 0.8000 0.1404
H8J H -0.2016 0.7736 0.1363
C10E C -0.3301(2) 0.8662(2) 0.31747(18)
H8E H -0.2736 0.8637 0.2984
Cr1 Cr -0.35216(3) -0.64784(3) -1.14784(3)
O1 O -0.34088(11) -0.63728(13) -1.02283(11)
O2 O -0.24232(12) -0.61350(15) -0.92301(12)
O3 O -0.35892(11) -0.64511(13) -1.27384(11)
O4 O -0.39014(13) -0.55436(15) -1.37977(12)
C11 C -0.26374(17) -0.62480(17) -0.99702(17)
C12 C -0.37541(17) -0.57079(19) -1.30475(17)
Na1 Na -0.40557(7) -0.40557(7) -1.40557(7)
Na1H Na -0.09443(7) -0.59443(7) -0.90557(7)
O1F O -0.36272(13) -0.52283(11) -1.15912(11)
C11F C -0.37520(17) -0.49702(17) -1.23626(17)
O2F O -0.38650(15) -0.42301(12) -1.25768(12)
O2E O -0.42301(12) -0.25768(12) -1.38650(15)
O2I O -0.25768(12) -0.38650(15) -1.42301(12)
O1H O -0.47717(11) -0.65912(11) -1.13728(13)
C11H C -0.50298(17) -0.73626(17) -1.12480(17)
O2H O -0.57699(12) -0.75768(12) -1.11350(15)
Na1F Na -0.59443(7) -0.90557(7) -1.09443(7)
O4F O -0.44564(15) -0.87977(12) -1.10986(13)
C12F C -0.42921(19) -0.80475(17) -1.12459(17)
O3F O -0.35489(13) -0.77384(11) -1.14108(11)
O3H O -0.22616(11) -0.64108(11) -1.14511(13)
C12H C -0.19525(17) -0.62459(17) -1.07079(19)
O4H O -0.12023(12) -0.60986(13) -1.05436(15)
O4A O -0.55436(15) -0.37977(12) -1.39014(13)
O4B O -0.37977(12) -0.39014(13) -1.55436(15)
loop_
_geom_bond_atom_site_label_1
_geom_bond_atom_site_label_2
_geom_bond_site_symmetry_1
_geom_bond_site_symmetry_2
Co1 N1 1_555 1_555
N1 C1 1_555 1_555
C1 C2 1_555 1_555
C2 H1 1_555 1_555
C3 C2 1_555 1_555
H2 C3 1_555 1_555
C4 C3 1_555 1_555
H3 C4 1_555 1_555
C5 N1 1_555 1_555
H4 C5 1_555 1_555
N2 Co1 1_555 1_555
C6 C1 1_555 1_555
C7 C6 1_555 1_555
H5 C7 1_555 1_555
C8 C7 1_555 1_555
H6 C8 1_555 1_555
C9 C8 1_555 1_555
H7 C9 1_555 1_555
C10 N2 1_555 1_555
H8 C10 1_555 1_555
Cr1 O1 1_555 1_555
O1 C11 1_555 1_555
O2 C11 1_555 1_555
O3 Cr1 1_555 1_555
O4 C12 1_555 1_555
C11 C12H 1_555 1_555
C12 O3 1_555 1_555
Na1 O4 1_555 1_555
N2E Co1 1_555 1_555
N1E Co1 1_555 1_555
C1E N1E 1_555 1_555
C2E C1E 1_555 1_555
H1E C2E 1_555 1_555
C3E C2E 1_555 1_555
H2E C3E 1_555 1_555
C4E C3E 1_555 1_555
H3E C4E 1_555 1_555
C5E N1E 1_555 1_555
H4E C5E 1_555 1_555
C6E C1E 1_555 1_555
N2J Co1 1_555 1_555
N1J Co1 1_555 1_555
C1J N1J 1_555 1_555
C2J C1J 1_555 1_555
H1J C2J 1_555 1_555
C3J C2J 1_555 1_555
H2J C3J 1_555 1_555
C4J C3J 1_555 1_555
H3J C4J 1_555 1_555
C5J N1J 1_555 1_555
H4J C5J 1_555 1_555
C6J N2 1_555 1_555
C9J C10 1_555 1_555
C8J C9J 1_555 1_555
C7J C6J 1_555 1_555
H5J C7J 1_555 1_555
H6J C8J 1_555 1_555
H7J C9J 1_555 1_555
C10J N2J 1_555 1_555
C9E C10J 1_555 1_555
C8E C9E 1_555 1_555
C7E C6E 1_555 1_555
H5E C7E 1_555 1_555
H6E C8E 1_555 1_555
H7E C9E 1_555 1_555
H8J C10J 1_555 1_555
C10E C9 1_555 1_555
H8E C10E 1_555 1_555
Na1H O2 1_555 1_555
O1F Cr1 1_555 1_555
C11F C12 1_555 1_555
O2F Na1 1_555 1_555
O2E Na1 1_555 1_555
O2I Na1 1_555 1_555
O1H Cr1 1_555 1_555
C11H O1H 1_555 1_555
O2H C11H 1_555 1_555
Na1F O2H 1_555 1_555
O4F Na1F 1_555 1_555
C12F C11H 1_555 1_555
O3F Cr1 1_555 1_555
O3H Cr1 1_555 1_555
C12H O3H 1_555 1_555
O4H Na1H 1_555 1_555
O4A Na1 1_555 1_555
O4B Na1 1_555 1_555
C4 C5 1_555 1_555
C6 N2E 1_555 1_555
N2E C10E 1_555 1_555
C4E C5E 1_555 1_555
C6E N2J 1_555 1_555
C1J C6J 1_555 1_555
C4J C5J 1_555 1_555
C8J C7J 1_555 1_555
C8E C7E 1_555 1_555
O1F C11F 1_555 1_555
C11F O2F 1_555 1_555
O4F C12F 1_555 1_555
C12F O3F 1_555 1_555
C12H O4H 1_555 1_555

#END
