
#######################################################################
#
#                 Cambridge Crystallographic Data Centre
#                                CCDC 
#
#######################################################################
#
# If this CIF has been generated from an entry in the Cambridge 
# Structural Database, then it will include bibliographic, chemical, 
# crystal, experimental, refinement or atomic coordinate data resulting 
# from the CCDC's data processing and validation procedures.
#
#######################################################################

data_CUFRUQ
_symmetry_cell_setting           cubic
_symmetry_space_group_name_H-M   'P 21 3'
_symmetry_Int_Tables_number      198
_space_group_name_Hall           'P 2ac 2ab 3'
loop_
_symmetry_equiv_pos_site_id
_symmetry_equiv_pos_as_xyz
1 x,y,z
2 1/2-x,-y,1/2+z
3 -x,1/2+y,1/2-z
4 1/2+x,1/2-y,-z
5 z,x,y
6 1/2+z,1/2-x,-y
7 1/2-z,-x,1/2+y
8 -z,1/2+x,1/2-y
9 y,z,x
10 -y,1/2+z,1/2-x
11 1/2+y,1/2-z,-x
12 1/2-y,-z,1/2+x
_cell_length_a                   15.30910(10)
_cell_length_b                   15.30910(10)
_cell_length_c                   15.30910(10)
_cell_angle_alpha                90
_cell_angle_beta                 90
_cell_angle_gamma                90
_cell_volume                     3587.97
loop_
_atom_site_label
_atom_site_type_symbol
_atom_site_fract_x
_atom_site_fract_y
_atom_site_fract_z
Ru1 Ru -0.12584(2) -0.12584(2) -0.12584(2)
N1 N -0.2599(2) -0.1130(2) -0.1256(3)
C1 C -0.3175(3) -0.1791(3) -0.1290(4)
H1 H -0.2969 -0.2363 -0.1284
C2 C -0.4085(3) -0.1641(4) -0.1333(4)
H2 H -0.4476 -0.2105 -0.1371
C3 C -0.4382(3) -0.0786(4) -0.1318(4)
H3 H -0.4978 -0.0670 -0.1331
C4 C -0.3794(3) -0.0112(3) -0.1285(3)
H4 H -0.3993 0.0462 -0.1283
C5 C -0.2895(3) -0.0283(3) -0.1256(3)
C6 C -0.2215(3) 0.0387(3) -0.1259(3)
C7 C -0.2386(3) 0.1281(3) -0.1222(3)
H5 H -0.2958 0.1486 -0.1205
C8 C -0.1680(4) 0.1865(3) -0.1211(4)
H6 H -0.1777 0.2465 -0.1206
C9 C -0.0846(4) 0.1542(3) -0.1209(4)
H7 H -0.0373 0.1923 -0.1183
C10 C -0.0707(3) 0.0659(3) -0.1243(4)
H8 H -0.0137 0.0450 -0.1253
N2 N -0.1383(2) 0.0077(2) -0.1264(3)
N1D N -0.1256(3) -0.2599(2) -0.1130(2)
C1D C -0.1290(4) -0.3175(3) -0.1791(3)
H1D H -0.1284 -0.2969 -0.2363
C2D C -0.1333(4) -0.4085(3) -0.1641(4)
H2D H -0.1371 -0.4476 -0.2105
C3D C -0.1318(4) -0.4382(3) -0.0786(4)
H3D H -0.1331 -0.4978 -0.0670
C4D C -0.1285(3) -0.3794(3) -0.0112(3)
H4D H -0.1283 -0.3993 0.0462
C5D C -0.1256(3) -0.2895(3) -0.0283(3)
C6D C -0.1259(3) -0.2215(3) 0.0387(3)
C7D C -0.1222(3) -0.2386(3) 0.1281(3)
H5D H -0.1205 -0.2958 0.1486
C8D C -0.1211(4) -0.1680(4) 0.1865(3)
H6D H -0.1206 -0.1777 0.2465
C9D C -0.1209(4) -0.0846(4) 0.1542(3)
H7D H -0.1183 -0.0373 0.1923
C10D C -0.1243(4) -0.0707(3) 0.0659(3)
H8D H -0.1253 -0.0137 0.0450
N2D N -0.1264(3) -0.1383(2) 0.0077(2)
N1H N -0.1130(2) -0.1256(3) -0.2599(2)
C1H C -0.1791(3) -0.1290(4) -0.3175(3)
H1H H -0.2363 -0.1284 -0.2969
C2H C -0.1641(4) -0.1333(4) -0.4085(3)
H2H H -0.2105 -0.1371 -0.4476
C3H C -0.0786(4) -0.1318(4) -0.4382(3)
H3H H -0.0670 -0.1331 -0.4978
C4H C -0.0112(3) -0.1285(3) -0.3794(3)
H4H H 0.0462 -0.1283 -0.3993
C5H C -0.0283(3) -0.1256(3) -0.2895(3)
C6H C 0.0387(3) -0.1259(3) -0.2215(3)
C7H C 0.1281(3) -0.1222(3) -0.2386(3)
H5H H 0.1486 -0.1205 -0.2958
C8H C 0.1865(3) -0.1211(4) -0.1680(4)
H6H H 0.2465 -0.1206 -0.1777
C9H C 0.1542(3) -0.1209(4) -0.0846(4)
H7H H 0.1923 -0.1183 -0.0373
C10H C 0.0659(3) -0.1243(4) -0.0707(3)
H8H H 0.0450 -0.1253 -0.0137
N2H N 0.0077(2) -0.1264(3) -0.1383(2)
Cr1 Cr 0.89694(5) -0.39694(5) 1.39694(5)
Li1 Li 0.6596(5) -0.3404(5) 1.6596(5)
O1 O 0.8890(3) -0.5265(2) 1.3931(3)
O2 O 0.7686(3) -0.3851(2) 1.4099(2)
O3 O 0.8611(3) -0.6354(2) 1.2972(3)
O4 O 0.6670(2) -0.3620(2) 1.5119(2)
C11 C 0.7415(4) -0.3736(3) 1.4892(3)
C12 C 0.8738(4) -0.5586(3) 1.3170(3)
Li1A Li 0.8404(5) -0.6596(5) 1.1596(5)
O1E O 0.8931(3) -0.3890(3) 1.5265(2)
C12E C 0.8170(3) -0.3738(4) 1.5586(3)
O3E O 0.7972(3) -0.3611(3) 1.6354(2)
O3I O 0.6354(2) -0.2028(3) 1.6389(3)
O3A O 0.6389(3) -0.3646(2) 1.7972(3)
O1K O 1.0265(2) -0.3931(3) 1.3890(3)
C12K C 1.0586(3) -0.3170(3) 1.3738(4)
O3K O 1.1354(2) -0.2972(3) 1.3611(3)
Li1C Li 1.1596(5) -0.1596(5) 1.3404(5)
O4E O 1.0119(2) -0.1670(2) 1.3620(2)
C11E C 0.9892(3) -0.2415(4) 1.3736(3)
O2E O 0.9099(2) -0.2686(3) 1.3851(2)
O2K O 0.8851(2) -0.4099(2) 1.2686(3)
C11K C 0.8736(3) -0.4892(3) 1.2415(4)
O4K O 0.8620(2) -0.5119(2) 1.1670(2)
O4D O 0.5119(2) -0.3330(2) 1.6380(2)
O4H O 0.6380(2) -0.4881(2) 1.6670(2)
loop_
_geom_bond_atom_site_label_1
_geom_bond_atom_site_label_2
_geom_bond_site_symmetry_1
_geom_bond_site_symmetry_2
Ru1 N1 1_555 1_555
Cr1 O1 1_555 1_555
Li1 O4 1_555 1_555
N1 C1 1_555 1_555
C1 H1 1_555 1_555
C2 C1 1_555 1_555
H2 C2 1_555 1_555
C3 C2 1_555 1_555
H3 C3 1_555 1_555
C4 C3 1_555 1_555
H4 C4 1_555 1_555
C5 N1 1_555 1_555
C6 C5 1_555 1_555
C7 C6 1_555 1_555
H5 C7 1_555 1_555
C8 C7 1_555 1_555
H6 C8 1_555 1_555
C9 C8 1_555 1_555
H7 C9 1_555 1_555
C10 C9 1_555 1_555
H8 C10 1_555 1_555
N2 Ru1 1_555 1_555
O1 C12 1_555 1_555
O2 Cr1 1_555 1_555
O3 C12 1_555 1_555
O4 C11 1_555 1_555
C11 O2 1_555 1_555
C12 C11K 1_555 1_555
N1D Ru1 1_555 1_555
C1D N1D 1_555 1_555
H1D C1D 1_555 1_555
C2D C1D 1_555 1_555
H2D C2D 1_555 1_555
C3D C2D 1_555 1_555
H3D C3D 1_555 1_555
C4D C3D 1_555 1_555
H4D C4D 1_555 1_555
C5D N1D 1_555 1_555
C6D C5D 1_555 1_555
C7D C6D 1_555 1_555
H5D C7D 1_555 1_555
C8D C7D 1_555 1_555
H6D C8D 1_555 1_555
C9D C8D 1_555 1_555
H7D C9D 1_555 1_555
C10D C9D 1_555 1_555
H8D C10D 1_555 1_555
N2D Ru1 1_555 1_555
N1H Ru1 1_555 1_555
C1H N1H 1_555 1_555
H1H C1H 1_555 1_555
C2H C1H 1_555 1_555
H2H C2H 1_555 1_555
C3H C2H 1_555 1_555
H3H C3H 1_555 1_555
C4H C3H 1_555 1_555
H4H C4H 1_555 1_555
C5H N1H 1_555 1_555
C6H C5H 1_555 1_555
C7H C6H 1_555 1_555
H5H C7H 1_555 1_555
C8H C7H 1_555 1_555
H6H C8H 1_555 1_555
C9H C8H 1_555 1_555
H7H C9H 1_555 1_555
C10H C9H 1_555 1_555
H8H C10H 1_555 1_555
N2H Ru1 1_555 1_555
Li1A O3 1_555 1_555
O1E Cr1 1_555 1_555
C12E C11 1_555 1_555
O3E Li1 1_555 1_555
O3I Li1 1_555 1_555
O3A Li1 1_555 1_555
O1K Cr1 1_555 1_555
C12K O1K 1_555 1_555
O3K C12K 1_555 1_555
Li1C O3K 1_555 1_555
O4E Li1C 1_555 1_555
C11E C12K 1_555 1_555
O2E Cr1 1_555 1_555
O2K Cr1 1_555 1_555
C11K O2K 1_555 1_555
O4K Li1A 1_555 1_555
O4D Li1 1_555 1_555
O4H Li1 1_555 1_555
C4 C5 1_555 1_555
C6 N2 1_555 1_555
C10 N2 1_555 1_555
C4D C5D 1_555 1_555
C6D N2D 1_555 1_555
C10D N2D 1_555 1_555
C4H C5H 1_555 1_555
C6H N2H 1_555 1_555
C10H N2H 1_555 1_555
O1E C12E 1_555 1_555
C12E O3E 1_555 1_555
O4E C11E 1_555 1_555
C11E O2E 1_555 1_555
C11K O4K 1_555 1_555

#END
