
#######################################################################
#
#                 Cambridge Crystallographic Data Centre
#                                CCDC 
#
#######################################################################
#
# If this CIF has been generated from an entry in the Cambridge 
# Structural Database, then it will include bibliographic, chemical, 
# crystal, experimental, refinement or atomic coordinate data resulting 
# from the CCDC's data processing and validation procedures.
#
#######################################################################

data_CUFSAX01
_symmetry_cell_setting           cubic
_symmetry_space_group_name_H-M   'P 21 3'
_symmetry_Int_Tables_number      198
_space_group_name_Hall           'P 2ac 2ab 3'
loop_
_symmetry_equiv_pos_site_id
_symmetry_equiv_pos_as_xyz
1 x,y,z
2 y,z,x
3 z,x,y
4 1/2+x,1/2-y,-z
5 1/2+y,1/2-z,-x
6 1/2+z,1/2-x,-y
7 -y,1/2+z,1/2-x
8 -z,1/2+x,1/2-y
9 1/2-z,-x,1/2+y
10 1/2-x,-y,1/2+z
11 1/2-y,-z,1/2+x
12 -x,1/2+y,1/2-z
_cell_length_a                   15.3866(8)
_cell_length_b                   15.3866(8)
_cell_length_c                   15.3866(8)
_cell_angle_alpha                90
_cell_angle_beta                 90
_cell_angle_gamma                90
_cell_volume                     3642.74
loop_
_atom_site_label
_atom_site_type_symbol
_atom_site_fract_x
_atom_site_fract_y
_atom_site_fract_z
Co1 Co -0.37376(3) 0.87376(3) 0.12624(3)
N1 N -0.23837(15) 0.88875(17) 0.12875(18)
C1 C -0.1807(2) 0.8240(2) 0.1319(3)
H1 H -0.2009 0.7670 0.1322
C2 C -0.0916(2) 0.8386(3) 0.1345(3)
H2 H -0.0526 0.7925 0.1378
C3 C -0.0630(2) 0.9223(3) 0.1321(3)
H3 H -0.0037 0.9340 0.1326
C4 C -0.1216(2) 0.9897(3) 0.1290(2)
H4 H -0.1024 1.0469 0.1278
C5 C -0.20945(19) 0.9712(2) 0.1276(2)
N2 N -0.50922(15) 0.87473(18) 0.13951(16)
C6 C -0.2777(2) 1.0389(2) 0.1255(2)
C7 C -0.2606(2) 1.1275(2) 0.1240(2)
H5 H -0.2038 1.1480 0.1258
C8 C -0.3295(2) 1.1847(3) 0.1197(3)
H6 H -0.3191 1.2442 0.1172
C9 C -0.4124(2) 1.1547(3) 0.1190(3)
H7 H -0.4591 1.1930 0.1171
C10 C -0.5670(2) 0.8788(3) 0.0742(2)
H8 H -0.5464 0.8801 0.0174
N2E N -0.36049(16) 1.00922(15) 0.12527(18)
N1E N -0.37125(18) 0.73837(15) 0.11125(17)
C1E C -0.3681(3) 0.6807(2) 0.1760(2)
H1E H -0.3678 0.7009 0.2330
C2E C -0.3655(3) 0.5916(2) 0.1614(3)
H2E H -0.3622 0.5526 0.2075
C3E C -0.3679(3) 0.5630(2) 0.0777(3)
H3E H -0.3674 0.5037 0.0660
C4E C -0.3710(2) 0.6216(2) 0.0103(3)
H4E H -0.3722 0.6024 -0.0469
C5E C -0.3724(2) 0.70945(19) 0.0288(2)
C6E C -0.3745(2) 0.7777(2) -0.0389(2)
N2J N -0.37473(18) 0.86049(16) -0.00922(15)
N1J N -0.38875(17) 0.87125(18) 0.26163(15)
C1J C -0.3240(2) 0.8681(3) 0.3193(2)
H1J H -0.2670 0.8678 0.2991
C2J C -0.3386(3) 0.8655(3) 0.4084(2)
H2J H -0.2925 0.8622 0.4474
C3J C -0.4223(3) 0.8679(3) 0.4370(2)
H3J H -0.4340 0.8674 0.4963
C4J C -0.4897(3) 0.8710(2) 0.3784(2)
H4J H -0.5469 0.8722 0.3976
C5J C -0.4712(2) 0.8724(2) 0.29055(19)
C6J C -0.5389(2) 0.8745(2) 0.2223(2)
C9J C -0.6547(3) 0.8810(3) 0.0876(2)
C8J C -0.6847(3) 0.8803(3) 0.1705(2)
C7J C -0.6275(2) 0.8760(2) 0.2394(2)
H5J H -0.6480 0.8742 0.2962
H6J H -0.7442 0.8828 0.1809
H7J H -0.6930 0.8829 0.0409
C10J C -0.3788(3) 0.9258(2) -0.0670(2)
C9E C -0.3810(3) 0.9124(2) -0.1547(3)
C8E C -0.3803(3) 0.8295(2) -0.1847(3)
C7E C -0.3760(2) 0.7606(2) -0.1275(2)
H5E H -0.3742 0.7038 -0.1480
H6E H -0.3828 0.8191 -0.2442
H7E H -0.3829 0.9591 -0.1930
H8J H -0.3801 0.9826 -0.0464
C10E C -0.4258(2) 1.0670(2) 0.1212(3)
H8E H -0.4826 1.0464 0.1199
Cr1 Cr -0.60387(3) -0.89613(3) -0.10387(3)
O1 O -0.47561(13) -0.89314(14) -0.11170(16)
O2 O -0.36674(15) -0.79908(15) -0.13780(18)
C11 C -0.4429(2) -0.8175(2) -0.1256(2)
O3 O -0.73113(16) -0.88434(13) -0.09008(12)
O4 O -0.83153(17) -0.86399(14) 0.01224(15)
C12 C -0.7565(2) -0.8735(2) -0.0114(2)
Li1 Li -0.8504(3) -0.8504(3) 0.1496(3)
Li1C Li -0.3504(3) -0.6496(3) -0.1496(3)
O1J O -0.60686(14) -0.88830(16) 0.02439(13)
C11J C -0.6825(2) -0.8744(2) 0.0571(2)
O2J O -0.70092(15) -0.86220(18) 0.13326(15)
O2C O -0.86674(15) -0.70092(15) 0.13780(18)
O2G O -0.86220(18) -0.86674(15) 0.29908(15)
O1E O -0.61170(16) -1.02439(13) -0.10686(14)
C11E C -0.6256(2) -1.0571(2) -0.1825(2)
O2E O -0.63780(18) -1.13326(15) -0.20092(15)
Li1H Li -0.6496(3) -1.1496(3) -0.3504(3)
O4J O -0.63601(14) -1.01224(15) -0.33153(17)
C12J C -0.6265(2) -0.9886(2) -0.2565(2)
O3J O -0.61566(13) -0.90992(12) -0.23113(16)
O3E O -0.59008(12) -0.76887(16) -0.11566(13)
O4B O -0.98776(15) -0.83153(17) 0.13601(14)
O4A O -0.86399(14) -0.98776(15) 0.16847(17)
C12E C -0.5114(2) -0.7435(2) -0.1265(2)
O4E O -0.48776(15) -0.66847(17) -0.13601(14)
loop_
_geom_bond_atom_site_label_1
_geom_bond_atom_site_label_2
_geom_bond_site_symmetry_1
_geom_bond_site_symmetry_2
Co1 N1 1_555 1_555
N1 C1 1_555 1_555
C1 H1 1_555 1_555
C2 C1 1_555 1_555
H2 C2 1_555 1_555
C3 C2 1_555 1_555
H3 C3 1_555 1_555
C4 C3 1_555 1_555
H4 C4 1_555 1_555
C5 N1 1_555 1_555
N2 Co1 1_555 1_555
C6 C5 1_555 1_555
C7 C6 1_555 1_555
H5 C7 1_555 1_555
C8 C7 1_555 1_555
H6 C8 1_555 1_555
C9 C8 1_555 1_555
H7 C9 1_555 1_555
C10 N2 1_555 1_555
H8 C10 1_555 1_555
Cr1 O1 1_555 1_555
O1 C11 1_555 1_555
O2 C11 1_555 1_555
C11 C12E 1_555 1_555
O3 Cr1 1_555 1_555
O4 C12 1_555 1_555
C12 O3 1_555 1_555
Li1 O4 1_555 1_555
N2E Co1 1_555 1_555
N1E Co1 1_555 1_555
C1E N1E 1_555 1_555
H1E C1E 1_555 1_555
C2E C1E 1_555 1_555
H2E C2E 1_555 1_555
C3E C2E 1_555 1_555
H3E C3E 1_555 1_555
C4E C3E 1_555 1_555
H4E C4E 1_555 1_555
C5E N1E 1_555 1_555
C6E C5E 1_555 1_555
N2J Co1 1_555 1_555
N1J Co1 1_555 1_555
C1J N1J 1_555 1_555
H1J C1J 1_555 1_555
C2J C1J 1_555 1_555
H2J C2J 1_555 1_555
C3J C2J 1_555 1_555
H3J C3J 1_555 1_555
C4J C3J 1_555 1_555
H4J C4J 1_555 1_555
C5J N1J 1_555 1_555
C6J N2 1_555 1_555
C9J C10 1_555 1_555
C8J C9J 1_555 1_555
C7J C6J 1_555 1_555
H5J C7J 1_555 1_555
H6J C8J 1_555 1_555
H7J C9J 1_555 1_555
C10J N2J 1_555 1_555
C9E C10J 1_555 1_555
C8E C9E 1_555 1_555
C7E C6E 1_555 1_555
H5E C7E 1_555 1_555
H6E C8E 1_555 1_555
H7E C9E 1_555 1_555
H8J C10J 1_555 1_555
C10E C9 1_555 1_555
H8E C10E 1_555 1_555
Li1C O2 1_555 1_555
O1J Cr1 1_555 1_555
C11J C12 1_555 1_555
O2J Li1 1_555 1_555
O2C Li1 1_555 1_555
O2G Li1 1_555 1_555
O1E Cr1 1_555 1_555
C11E O1E 1_555 1_555
O2E C11E 1_555 1_555
Li1H O2E 1_555 1_555
O4J Li1H 1_555 1_555
C12J C11E 1_555 1_555
O3J Cr1 1_555 1_555
O3E Cr1 1_555 1_555
O4B Li1 1_555 1_555
O4A Li1 1_555 1_555
C12E O3E 1_555 1_555
O4E Li1C 1_555 1_555
C4 C5 1_555 1_555
C6 N2E 1_555 1_555
N2E C10E 1_555 1_555
C4E C5E 1_555 1_555
C6E N2J 1_555 1_555
C4J C5J 1_555 1_555
C5J C6J 1_555 1_555
C8J C7J 1_555 1_555
C8E C7E 1_555 1_555
O1J C11J 1_555 1_555
C11J O2J 1_555 1_555
O4J C12J 1_555 1_555
C12J O3J 1_555 1_555
C12E O4E 1_555 1_555

#END
