
#######################################################################
#
#                 Cambridge Crystallographic Data Centre
#                                CCDC 
#
#######################################################################
#
# If this CIF has been generated from an entry in the Cambridge 
# Structural Database, then it will include bibliographic, chemical, 
# crystal, experimental, refinement or atomic coordinate data resulting 
# from the CCDC's data processing and validation procedures.
#
#######################################################################

data_CUFSAX
_symmetry_cell_setting           cubic
_symmetry_space_group_name_H-M   'P 21 3'
_symmetry_Int_Tables_number      198
_space_group_name_Hall           'P 2ac 2ab 3'
loop_
_symmetry_equiv_pos_site_id
_symmetry_equiv_pos_as_xyz
1 x,y,z
2 1/2-x,-y,1/2+z
3 -x,1/2+y,1/2-z
4 1/2+x,1/2-y,-z
5 z,x,y
6 1/2+z,1/2-x,-y
7 1/2-z,-x,1/2+y
8 -z,1/2+x,1/2-y
9 y,z,x
10 -y,1/2+z,1/2-x
11 1/2+y,1/2-z,-x
12 1/2-y,-z,1/2+x
_cell_length_a                   15.2230(18)
_cell_length_b                   15.2230(18)
_cell_length_c                   15.2230(18)
_cell_angle_alpha                90
_cell_angle_beta                 90
_cell_angle_gamma                90
_cell_volume                     3527.77
loop_
_atom_site_label
_atom_site_type_symbol
_atom_site_fract_x
_atom_site_fract_y
_atom_site_fract_z
Co1 Co -0.87586(4) 0.12414(4) 0.12414(4)
N1 N -0.8762(3) 0.2560(2) 0.1147(3)
N2 N -0.8778(3) 0.1373(3) -0.0075(2)
C1 C -0.8733(3) 0.3128(3) 0.1830(3)
H1 H -0.8733 0.2903 0.2412
C2 C -0.8702(3) 0.4029(3) 0.1705(3)
H2 H -0.8669 0.4415 0.2195
C3 C -0.8719(3) 0.4360(3) 0.0867(3)
H3 H -0.8718 0.4977 0.0772
C4 C -0.8740(3) 0.3777(3) 0.0145(3)
H4 H -0.8740 0.3989 -0.0442
C5 C -0.8759(3) 0.2874(3) 0.0324(3)
C6 C -0.8767(3) 0.2204(3) -0.0373(3)
C7 C -0.8786(3) 0.2399(3) -0.1265(3)
H5 H -0.8777 0.2992 -0.1460
C8 C -0.8819(3) 0.1711(3) -0.1870(3)
H6 H -0.8826 0.1827 -0.2483
C9 C -0.8840(4) 0.0845(3) -0.1556(3)
H7 H -0.8872 0.0363 -0.1951
C10 C -0.8815(3) 0.0707(3) -0.0652(3)
H8 H -0.8824 0.0122 -0.0436
N1D N -0.8853(3) 0.1238(3) 0.2560(2)
C1D C -0.8170(3) 0.1267(3) 0.3128(3)
H1D H -0.7588 0.1267 0.2903
C2D C -0.8295(3) 0.1298(3) 0.4029(3)
H2D H -0.7805 0.1331 0.4415
C3D C -0.9133(3) 0.1281(3) 0.4360(3)
H3D H -0.9228 0.1282 0.4977
C4D C -0.9855(3) 0.1260(3) 0.3777(3)
H4D H -1.0442 0.1260 0.3989
C5D C -0.9676(3) 0.1241(3) 0.2874(3)
C6D C -1.0373(3) 0.1233(3) 0.2204(3)
N2D N -1.0075(2) 0.1222(3) 0.1373(3)
N1H N -0.7440(2) 0.1147(3) 0.1238(3)
C1H C -0.6872(3) 0.1830(3) 0.1267(3)
H1H H -0.7097 0.2412 0.1267
C2H C -0.5971(3) 0.1705(3) 0.1298(3)
H2H H -0.5585 0.2195 0.1331
C3H C -0.5640(3) 0.0867(3) 0.1281(3)
H3H H -0.5023 0.0772 0.1282
C4H C -0.6223(3) 0.0145(3) 0.1260(3)
H4H H -0.6011 -0.0442 0.1260
C5H C -0.7126(3) 0.0324(3) 0.1241(3)
C6H C -0.7796(3) -0.0373(3) 0.1233(3)
N2H N -0.8627(3) -0.0075(2) 0.1222(3)
C10H C -0.9293(3) -0.0652(3) 0.1185(3)
C9H C -0.9155(3) -0.1556(3) 0.1160(4)
C8H C -0.8289(3) -0.1870(3) 0.1181(3)
C7H C -0.7601(3) -0.1265(3) 0.1214(3)
H5H H -0.7008 -0.1460 0.1223
H6H H -0.8173 -0.2483 0.1174
H7H H -0.9637 -0.1951 0.1128
H8H H -0.9878 -0.0436 0.1176
C10D C -1.0652(3) 0.1185(3) 0.0707(3)
C9D C -1.1556(3) 0.1160(4) 0.0845(3)
C8D C -1.1870(3) 0.1181(3) 0.1711(3)
C7D C -1.1265(3) 0.1214(3) 0.2399(3)
H5D H -1.1460 0.1223 0.2992
H6D H -1.2483 0.1174 0.1827
H7D H -1.1951 0.1128 0.0363
H8D H -1.0436 0.1176 0.0122
Cr1 Cr 0.85448(5) 0.14552(5) -0.35448(5)
O1 O 0.7242(2) 0.1379(2) -0.3575(2)
C11 C 0.6919(3) 0.1238(3) -0.4335(3)
Li1 Li 1.0977(5) 0.4023(5) -0.4023(5)
O2 O 0.6156(2) 0.1110(2) -0.4534(2)
C12 C 1.0098(3) 0.2377(3) -0.3770(3)
O3 O 0.9835(2) 0.1585(2) -0.3662(2)
O4 O 1.0855(2) 0.2610(2) -0.3882(2)
Li1C Li 0.5977(5) 0.0977(5) -0.5977(5)
O1F O 0.8575(2) 0.2758(2) -0.3621(2)
C11F C 0.9335(3) 0.3081(3) -0.3762(3)
O2F O 0.9534(2) 0.3844(2) -0.3890(2)
O2H O 1.1110(2) 0.5466(2) -0.3844(2)
O2C O 1.1156(2) 0.3890(2) -0.5466(2)
O1I O 0.8621(2) 0.1425(2) -0.2242(2)
C11I C 0.8762(3) 0.0665(3) -0.1919(3)
O2I O 0.8890(2) 0.0466(2) -0.1156(2)
Li1B Li 0.9023(5) -0.0977(5) -0.0977(5)
O4F O 0.8882(2) -0.0855(2) -0.2390(2)
C12F C 0.8770(3) -0.0098(3) -0.2623(3)
O3F O 0.8662(2) 0.0165(2) -0.3415(2)
O3I O 0.8415(2) 0.1338(2) -0.4835(2)
C12I C 0.7623(3) 0.1230(3) -0.5098(3)
O4I O 0.7390(2) 0.1118(2) -0.5855(2)
O4E O 1.1118(2) 0.4145(2) -0.2610(2)
O4K O 1.2390(2) 0.3882(2) -0.4145(2)
loop_
_geom_bond_atom_site_label_1
_geom_bond_atom_site_label_2
_geom_bond_site_symmetry_1
_geom_bond_site_symmetry_2
Co1 N1 1_555 1_555
N1 C1 1_555 1_555
N2 Co1 1_555 1_555
C1 H1 1_555 1_555
C2 C1 1_555 1_555
H2 C2 1_555 1_555
C3 C2 1_555 1_555
H3 C3 1_555 1_555
C4 C3 1_555 1_555
H4 C4 1_555 1_555
C5 N1 1_555 1_555
C6 N2 1_555 1_555
C7 C6 1_555 1_555
H5 C7 1_555 1_555
C8 C7 1_555 1_555
H6 C8 1_555 1_555
C9 C8 1_555 1_555
H7 C9 1_555 1_555
C10 N2 1_555 1_555
H8 C10 1_555 1_555
Cr1 O1 1_555 1_555
O1 C11 1_555 1_555
C11 O2 1_555 1_555
Li1 O4 1_555 1_555
O2 Li1C 1_555 1_555
C12 O3 1_555 1_555
O3 Cr1 1_555 1_555
O4 C12 1_555 1_555
N1D Co1 1_555 1_555
C1D N1D 1_555 1_555
H1D C1D 1_555 1_555
C2D C1D 1_555 1_555
H2D C2D 1_555 1_555
C3D C2D 1_555 1_555
H3D C3D 1_555 1_555
C4D C3D 1_555 1_555
H4D C4D 1_555 1_555
C5D N1D 1_555 1_555
C6D C5D 1_555 1_555
N2D Co1 1_555 1_555
N1H Co1 1_555 1_555
C1H N1H 1_555 1_555
H1H C1H 1_555 1_555
C2H C1H 1_555 1_555
H2H C2H 1_555 1_555
C3H C2H 1_555 1_555
H3H C3H 1_555 1_555
C4H C3H 1_555 1_555
H4H C4H 1_555 1_555
C5H N1H 1_555 1_555
C6H C5H 1_555 1_555
N2H Co1 1_555 1_555
C10H N2H 1_555 1_555
C9H C10H 1_555 1_555
C8H C9H 1_555 1_555
C7H C6H 1_555 1_555
H5H C7H 1_555 1_555
H6H C8H 1_555 1_555
H7H C9H 1_555 1_555
H8H C10H 1_555 1_555
C10D N2D 1_555 1_555
C9D C10D 1_555 1_555
C8D C9D 1_555 1_555
C7D C6D 1_555 1_555
H5D C7D 1_555 1_555
H6D C8D 1_555 1_555
H7D C9D 1_555 1_555
H8D C10D 1_555 1_555
Li1C O4I 1_555 1_555
O1F Cr1 1_555 1_555
C11F C12 1_555 1_555
O2F Li1 1_555 1_555
O2H Li1 1_555 1_555
O2C Li1 1_555 1_555
O1I Cr1 1_555 1_555
C11I O1I 1_555 1_555
O2I C11I 1_555 1_555
Li1B O2I 1_555 1_555
O4F Li1B 1_555 1_555
C12F C11I 1_555 1_555
O3F Cr1 1_555 1_555
O3I Cr1 1_555 1_555
C12I C11 1_555 1_555
O4I C12I 1_555 1_555
O4E Li1 1_555 1_555
O4K Li1 1_555 1_555
C4 C5 1_555 1_555
C5 C6 1_555 1_555
C9 C10 1_555 1_555
C4D C5D 1_555 1_555
C6D N2D 1_555 1_555
C4H C5H 1_555 1_555
C6H N2H 1_555 1_555
C8H C7H 1_555 1_555
C8D C7D 1_555 1_555
O1F C11F 1_555 1_555
C11F O2F 1_555 1_555
O4F C12F 1_555 1_555
C12F O3F 1_555 1_555
O3I C12I 1_555 1_555

#END
