
#######################################################################
#
#                 Cambridge Crystallographic Data Centre
#                                CCDC 
#
#######################################################################
#
# If this CIF has been generated from an entry in the Cambridge 
# Structural Database, then it will include bibliographic, chemical, 
# crystal, experimental, refinement or atomic coordinate data resulting 
# from the CCDC's data processing and validation procedures.
#
#######################################################################

data_CUFYUZ
_symmetry_cell_setting           hexagonal
_symmetry_space_group_name_H-M   'P -6 2 c'
_symmetry_Int_Tables_number      190
_space_group_name_Hall           "P -6c -2'c"
loop_
_symmetry_equiv_pos_site_id
_symmetry_equiv_pos_as_xyz
1 x,y,z
2 -y,x-y,z
3 -x+y,-x,z
4 x,y,1/2-z
5 -y,x-y,1/2-z
6 -x+y,-x,1/2-z
7 y,x,-z
8 x-y,-y,-z
9 -x,-x+y,-z
10 y,x,1/2+z
11 x-y,-y,1/2+z
12 -x,-x+y,1/2+z
_cell_length_a                   18.4811(6)
_cell_length_b                   18.4811(6)
_cell_length_c                   17.2261(13)
_cell_angle_alpha                90
_cell_angle_beta                 90
_cell_angle_gamma                120
_cell_volume                     5095.34
loop_
_atom_site_label
_atom_site_type_symbol
_atom_site_fract_x
_atom_site_fract_y
_atom_site_fract_z
U1 U 0.41509(3) 1.06778(3) 0.2500
O1 O 0.4227(4) 1.0743(4) 0.3906(4)
O2 O 0.4692(6) 1.0139(6) 0.2500
O3 O 0.3599(6) 1.1254(6) 0.2500
O4 O 0.5300(4) 1.1705(4) 0.3295(4)
C1 C 0.6369(5) 1.1812(6) 0.6043(5)
C2 C 0.6821(5) 1.1958(5) 0.6802(5)
C3 C 0.6731(6) 1.2209(6) 0.5376(6)
H1 H 0.7297 1.2605 0.5393
C4 C 0.5458(5) 1.1476(5) 0.4639(5)
C5 C 0.6399(7) 1.1833(8) 0.7500
H2 H 0.5833 1.1664 0.7500
C6 C 0.5063(6) 1.1065(6) 0.5313(5)
H3 H 0.4493 1.0684 0.5301
C7 C 0.4973(6) 1.1329(6) 0.3930(5)
C8 C 0.6337(5) 1.2078(5) 0.4678(6)
H4 H 0.6628 1.2370 0.4238
C9 C 0.5497(5) 1.1206(6) 0.6016(5)
H5 H 0.5221 1.0908 0.6460
C10 C 0.7657(6) 1.2245(6) 0.6800(6)
H6 H 0.7940 1.2352 0.6330
C11 C 0.8098(9) 1.2381(10) 0.7500
C12 C 0.8983(11) 1.2796(10) 0.7500
O5 O 0.9433(4) 1.3002(5) 0.6856(4)
O1C O 0.4227(4) 1.0743(4) 1.1094(4)
O4C O 0.5300(4) 1.1705(4) 1.1705(4)
C1C C 0.6369(5) 1.1812(6) 0.8957(5)
C2C C 0.6821(5) 1.1958(5) 0.8198(5)
C3C C 0.6731(6) 1.2209(6) 0.9624(6)
H1C H 0.7297 1.2605 0.9607
C4C C 0.5458(5) 1.1476(5) 1.0361(5)
C6C C 0.5063(6) 1.1065(6) 0.9687(5)
H3C H 0.4493 1.0684 0.9699
C7C C 0.4973(6) 1.1329(6) 1.1070(5)
C8C C 0.6337(5) 1.2078(5) 1.0322(6)
H4C H 0.6628 1.2370 1.0762
C9C C 0.5497(5) 1.1206(6) 0.8984(5)
H5C H 0.5221 1.0908 0.8540
C10C C 0.7657(6) 1.2245(6) 0.8200(6)
H6C H 0.7940 1.2352 0.8670
O5C O 0.9433(4) 1.3002(5) 0.8144(4)
U1_2 U 0.41509(3) 1.06778(3) 1.2500
U1F U 1.06778(3) 1.41509(3) 0.7500
O1C_2 O 0.4227(4) 1.0743(4) 0.1094(4)
O4C_2 O 0.5300(4) 1.1705(4) 0.1705(4)
O5F O 0.3002(5) 0.9433(4) 0.3144(4)
O5I O 0.3002(5) 0.9433(4) 0.1856(4)
loop_
_geom_bond_atom_site_label_1
_geom_bond_atom_site_label_2
_geom_bond_site_symmetry_1
_geom_bond_site_symmetry_2
U1 O1 1_555 1_555
O1 C7 1_555 1_555
O2 U1 1_555 1_555
O3 U1 1_555 1_555
O4 U1 1_555 1_555
C1 C2 1_555 1_555
C2 C5 1_555 1_555
C3 C1 1_555 1_555
H1 C3 1_555 1_555
C4 C6 1_555 1_555
C5 H2 1_555 1_555
C6 H3 1_555 1_555
C7 O4 1_555 1_555
C8 C3 1_555 1_555
H4 C8 1_555 1_555
C9 C1 1_555 1_555
H5 C9 1_555 1_555
C10 C2 1_555 1_555
H6 C10 1_555 1_555
C11 C10 1_555 1_555
C12 C11 1_555 1_555
O5 C12 1_555 1_555
O1C C7C 1_555 1_555
O4C C7C 1_555 1_555
C1C C2C 1_555 1_555
C2C C5 1_555 1_555
C3C C1C 1_555 1_555
H1C C3C 1_555 1_555
C4C C6C 1_555 1_555
C6C H3C 1_555 1_555
C7C C4C 1_555 1_555
C8C C3C 1_555 1_555
H4C C8C 1_555 1_555
C9C C1C 1_555 1_555
H5C C9C 1_555 1_555
C10C C11 1_555 1_555
H6C C10C 1_555 1_555
O5C C12 1_555 1_555
U1_2 O1C 1_555 1_555
U1F O5 1_555 1_555
O1C_2 U1 1_555 1_555
O4C_2 U1 1_555 1_555
O5F U1 1_555 1_555
O5I U1 1_555 1_555
C4 C7 1_555 1_555
C4 C8 1_555 1_555
C6 C9 1_555 1_555
O4C U1_2 1_555 1_555
C2C C10C 1_555 1_555
C4C C8C 1_555 1_555
C6C C9C 1_555 1_555
O5C U1F 1_555 1_555

#END
