
#######################################################################
#
#                 Cambridge Crystallographic Data Centre
#                                CCDC 
#
#######################################################################
#
# If this CIF has been generated from an entry in the Cambridge 
# Structural Database, then it will include bibliographic, chemical, 
# crystal, experimental, refinement or atomic coordinate data resulting 
# from the CCDC's data processing and validation procedures.
#
#######################################################################

data_CUGABD
_symmetry_cell_setting           monoclinic
_symmetry_space_group_name_H-M   'P 21/c'
_symmetry_Int_Tables_number      14
_space_group_name_Hall           '-P 2ybc'
loop_
_symmetry_equiv_pos_site_id
_symmetry_equiv_pos_as_xyz
1 x,y,z
2 -x,1/2+y,1/2-z
3 -x,-y,-z
4 x,1/2-y,1/2+z
_cell_length_a                   5.206(1)
_cell_length_b                   14.406(3)
_cell_length_c                   8.740(2)
_cell_angle_alpha                90
_cell_angle_beta                 109.20(2)
_cell_angle_gamma                90
_cell_volume                     619.019
loop_
_atom_site_label
_atom_site_type_symbol
_atom_site_fract_x
_atom_site_fract_y
_atom_site_fract_z
Cu1 Cu 0.00000 0.00000 0.00000
C1 C 0.66890 -0.40950 0.23680
C2 C 0.41860 -0.35870 0.13350
C3 C 0.47380 -0.25620 0.13450
C4 C 0.21150 -0.19930 0.05730
H1 H 0.36300 -0.38100 0.00100
H3 H 0.25800 -0.36600 0.19800
H4 H 0.57200 -0.24100 0.27100
H5 H 0.63600 -0.24800 0.05700
H6 H 0.13800 -0.22000 -0.04300
H7 H 0.05600 -0.20600 0.11300
H8 H 0.45800 -0.08800 0.16000
H10 H 0.37700 -0.09100 -0.02600
N1 N 0.27970 -0.10220 0.05370
O1 O 0.30150 0.08310 0.11130
O3 O 0.82030 -0.44670 0.17430
N1B N -0.27970 0.10220 -0.05370
O1B O -0.30150 -0.08310 -0.11130
O1A O 0.69850 -0.41690 0.38870
C1A C 0.33110 0.09050 0.26320
C2A C 0.58140 0.14130 0.36650
O3A O 0.17970 0.05330 0.32570
C4B C -0.21150 0.19930 -0.05730
H8B H -0.45800 0.08800 -0.16000
H10B H -0.37700 0.09100 0.02600
C1C C -0.33110 -0.09050 -0.26320
Cu1A Cu 1.00000 -0.50000 0.50000
C3A C 0.52620 0.24380 0.36550
H1A H 0.63700 0.11900 0.49900
H3A H 0.74200 0.13400 0.30200
C3B C -0.47380 0.25620 -0.13450
H6B H -0.13800 0.22000 0.04300
H7B H -0.05600 0.20600 -0.11300
C2C C -0.58140 -0.14130 -0.36650
O3C O -0.17970 -0.05330 -0.32570
C4A C 0.78850 0.30070 0.44270
H4A H 0.42800 0.25900 0.22900
H5A H 0.36400 0.25200 0.44300
C2B C -0.41860 0.35870 -0.13350
H4B H -0.57200 0.24100 -0.27100
H5B H -0.63600 0.24800 -0.05700
C3C C -0.52620 -0.24380 -0.36550
H1C H -0.63700 -0.11900 -0.49900
H3C H -0.74200 -0.13400 -0.30200
H6A H 0.86200 0.28000 0.54300
H7A H 0.94400 0.29400 0.38700
N1A N 0.72030 0.39780 0.44630
C1B C -0.66890 0.40950 -0.23680
H1B H -0.36300 0.38100 -0.00100
H3B H -0.25800 0.36600 -0.19800
C4C C -0.78850 -0.30070 -0.44270
H4C H -0.42800 -0.25900 -0.22900
H5C H -0.36400 -0.25200 -0.44300
Cu1A_2 Cu 1.00000 0.50000 0.50000
H8A H 0.54200 0.41200 0.34000
H10A H 0.62300 0.40900 0.52600
O1C O -0.69850 0.41690 -0.38870
O3B O -0.82030 0.44670 -0.17430
H6C H -0.86200 -0.28000 -0.54300
H7C H -0.94400 -0.29400 -0.38700
N1C N -0.72030 -0.39780 -0.44630
Cu1A_3 Cu -1.00000 0.50000 -0.50000
Cu1A_4 Cu -1.00000 -0.50000 -0.50000
H8C H -0.54200 -0.41200 -0.34000
H10C H -0.62300 -0.40900 -0.52600
N1A_2 N 0.72030 -0.60220 0.44630
N1C_2 N 1.27970 -0.39780 0.55370
O1C_2 O 1.30150 -0.58310 0.61130
H8A_2 H 0.54200 -0.58800 0.34000
H10A_2 H 0.62300 -0.59100 0.52600
H8C_2 H 1.45800 -0.41200 0.66000
H10C_2 H 1.37700 -0.40900 0.47400
H2 H 0.12700 0.46400 0.17400
H9 H 0.20900 0.43100 0.04400
O2 O 0.22250 0.42250 0.15530
loop_
_geom_bond_atom_site_label_1
_geom_bond_atom_site_label_2
_geom_bond_site_symmetry_1
_geom_bond_site_symmetry_2
Cu1 N1 1_555 1_555
C1 C2 1_555 1_555
C2 C3 1_555 1_555
C3 C4 1_555 1_555
C4 H6 1_555 1_555
H1 C2 1_555 1_555
H2 O2 1_555 1_555
H3 C2 1_555 1_555
H4 C3 1_555 1_555
H5 C3 1_555 1_555
H7 C4 1_555 1_555
H8 N1 1_555 1_555
H9 O2 1_555 1_555
H10 N1 1_555 1_555
N1 C4 1_555 1_555
O1 Cu1 1_555 1_555
O3 C1 1_555 1_555
N1B Cu1 1_555 1_555
O1B Cu1 1_555 1_555
O1A C1 1_555 1_555
C1A O1 1_555 1_555
C2A C1A 1_555 1_555
O3A C1A 1_555 1_555
C4B N1B 1_555 1_555
H8B N1B 1_555 1_555
H10B N1B 1_555 1_555
C1C O1B 1_555 1_555
Cu1A O1A 1_555 1_555
C3A C2A 1_555 1_555
H1A C2A 1_555 1_555
H3A C2A 1_555 1_555
C3B C4B 1_555 1_555
H6B C4B 1_555 1_555
H7B C4B 1_555 1_555
C2C C1C 1_555 1_555
O3C C1C 1_555 1_555
C4A C3A 1_555 1_555
H4A C3A 1_555 1_555
H5A C3A 1_555 1_555
C2B C3B 1_555 1_555
H4B C3B 1_555 1_555
H5B C3B 1_555 1_555
C3C C2C 1_555 1_555
H1C C2C 1_555 1_555
H3C C2C 1_555 1_555
H6A C4A 1_555 1_555
H7A C4A 1_555 1_555
N1A C4A 1_555 1_555
C1B C2B 1_555 1_555
H1B C2B 1_555 1_555
H3B C2B 1_555 1_555
C4C C3C 1_555 1_555
H4C C3C 1_555 1_555
H5C C3C 1_555 1_555
Cu1A_2 N1A 1_555 1_555
H8A N1A 1_555 1_555
H10A N1A 1_555 1_555
O1C C1B 1_555 1_555
O3B C1B 1_555 1_555
H6C C4C 1_555 1_555
H7C C4C 1_555 1_555
N1C C4C 1_555 1_555
Cu1A_3 O1C 1_555 1_555
Cu1A_4 N1C 1_555 1_555
H8C N1C 1_555 1_555
H10C N1C 1_555 1_555
N1A_2 Cu1A 1_555 1_555
N1C_2 Cu1A 1_555 1_555
O1C_2 Cu1A 1_555 1_555
H8A_2 N1A_2 1_555 1_555
H10A_2 N1A_2 1_555 1_555
H8C_2 N1C_2 1_555 1_555
H10C_2 N1C_2 1_555 1_555

#END
