
#######################################################################
#
#                 Cambridge Crystallographic Data Centre
#                                CCDC 
#
#######################################################################
#
# If this CIF has been generated from an entry in the Cambridge 
# Structural Database, then it will include bibliographic, chemical, 
# crystal, experimental, refinement or atomic coordinate data resulting 
# from the CCDC's data processing and validation procedures.
#
#######################################################################

data_CUGDIT
_symmetry_cell_setting           orthorhombic
_symmetry_space_group_name_H-M   'P 21 21 2'
_symmetry_Int_Tables_number      18
_space_group_name_Hall           'P 2 2ab'
loop_
_symmetry_equiv_pos_site_id
_symmetry_equiv_pos_as_xyz
1 x,y,z
2 -x,-y,z
3 1/2-x,1/2+y,-z
4 1/2+x,1/2-y,-z
_cell_length_a                   29.042(3)
_cell_length_b                   30.750(5)
_cell_length_c                   9.4483(17)
_cell_angle_alpha                90
_cell_angle_beta                 90
_cell_angle_gamma                90
_cell_volume                     8437.72
loop_
_atom_site_label
_atom_site_type_symbol
_atom_site_fract_x
_atom_site_fract_y
_atom_site_fract_z
O1 O 0.5174(5) 0.2517(5) -0.0669(15)
C1 C 0.5514(7) 0.2455(6) 0.011(2)
C2 C 0.6267(5) 0.2721(3) 0.0933(16)
H1 H 0.6370 0.2431 0.1068
C3 C 0.5817(4) 0.2800(4) 0.0501(16)
C4 C 0.5666(3) 0.3225(4) 0.0302(15)
H2 H 0.5359 0.3279 0.0007
C5 C 0.5966(5) 0.3570(3) 0.0535(16)
H3 H 0.5862 0.3861 0.0399
C6 C 0.6415(4) 0.3491(4) 0.0967(16)
C7 C 0.6566(3) 0.3067(4) 0.1165(15)
H4 H 0.6874 0.3013 0.1460
C8 C 0.6751(6) 0.3851(6) 0.1305(19)
H5 H 0.7065 0.3747 0.1081
H6 H 0.6685 0.4100 0.0674
C9 C 0.7159(3) 0.1803(3) 1.0778(14)
H7 H 0.7267 0.1954 1.1640
H8 H 0.7113 0.2025 1.0035
C10 C 0.7963(5) 0.1707(4) 0.986(2)
H9 H 0.8141 0.1805 1.0698
H10 H 0.7903 0.1961 0.9245
C11 C 0.8226(4) 0.1358(4) 0.9058(12)
H11 H 0.8513 0.1484 0.8666
H12 H 0.8312 0.1121 0.9716
C12 C 0.8148(5) 0.0790(4) 0.7214(14)
H13 H 0.8461 0.0867 0.6882
H14 H 0.8181 0.0561 0.7943
C13 C 0.7447(3) 0.0415(4) 0.6292(19)
H15 H 0.7483 0.0161 0.6926
H16 H 0.7314 0.0312 0.5387
C14 C 0.6698(4) 0.0508(5) 0.7266(19)
H17 H 0.6753 0.0240 0.7826
H18 H 0.6531 0.0432 0.6387
C15 C 0.6438(6) 0.0846(6) 0.8122(18)
H19 H 0.6330 0.1076 0.7468
H20 H 0.6161 0.0706 0.8531
C16 C 0.6448(5) 0.1427(5) 0.9927(15)
H21 H 0.6396 0.1655 0.9205
H22 H 0.6145 0.1329 1.0282
C17 C 0.6710(5) 0.1399(4) 1.2539(11)
H23 H 0.7028 0.1371 1.2910
H24 H 0.6571 0.1105 1.2494
C18 C 0.6427(3) 0.1692(4) 1.3496(15)
H25 H 0.6453 0.1585 1.4481
H26 H 0.6560 0.1988 1.3468
C19 C 0.7836(5) 0.0895(5) 0.4742(14)
H27 H 0.7714 0.1184 0.5016
H28 H 0.7620 0.0759 0.4062
C20 C 0.8312(5) 0.0940(8) 0.4089(17)
H29 H 0.8509 0.1135 0.4661
H30 H 0.8464 0.0654 0.3999
C21 C 1.0160(7) 0.3669(5) 0.1844(18)
H31 H 0.9946 0.3858 0.2380
H32 H 1.0401 0.3854 0.1413
C22 C 1.0377(6) 0.3335(5) 0.282(2)
H33 H 1.0650 0.3207 0.2355
H34 H 1.0483 0.3482 0.3698
C23 C 1.0328(5) 0.2632(5) 0.386(2)
H35 H 1.0561 0.2528 0.3176
H36 H 1.0493 0.2749 0.4696
C24 C 0.9808(6) 0.2049(5) 0.315(2)
H37 H 0.9699 0.1762 0.3486
H38 H 1.0029 0.1998 0.2369
C25 C 0.9202(6) 0.2097(5) 0.1339(15)
H39 H 0.9013 0.1845 0.1638
H40 H 0.9449 0.1988 0.0712
C26 C 0.8901(5) 0.2413(5) 0.052(2)
H41 H 0.8737 0.2266 -0.0271
H42 H 0.8674 0.2559 0.1137
C27 C 0.9000(5) 0.3093(5) -0.062(2)
H43 H 0.8820 0.2992 -0.1452
H44 H 0.8781 0.3208 0.0086
C28 C 0.9594(5) 0.3623(7) -0.370(2)
H45 H 0.9375 0.3514 -0.4423
H46 H 0.9519 0.3929 -0.3478
C29 C 0.9714(7) 0.2416(6) 0.544(2)
H47 H 0.9445 0.2563 0.5011
H48 H 0.9869 0.2625 0.6078
C30 C 0.9553(7) 0.2023(6) 0.6288(17)
H49 H 0.9342 0.1850 0.5688
H50 H 0.9825 0.1839 0.6497
C31 C 0.6280(5) 0.4269(5) 0.4812(14)
H51 H 0.6506 0.4502 0.5067
C32 C 0.6313(5) 0.4220(5) 0.3215(15)
H52 H 0.6058 0.4020 0.2928
C33 C 0.6226(5) 0.4656(5) 0.2435(19)
H53 H 0.6455 0.4875 0.2735
H54 H 0.6254 0.4614 0.1400
C34 C 0.5737(5) 0.4810(7) 0.2812(14)
H55 H 0.5672 0.5087 0.2318
H56 H 0.5510 0.4592 0.2484
C35 C 0.5683(7) 0.4877(5) 0.4419(15)
H57 H 0.5362 0.4964 0.4636
H58 H 0.5891 0.5112 0.4738
C36 C 0.5800(5) 0.4453(6) 0.5212(19)
H59 H 0.5562 0.4232 0.4996
H60 H 0.5792 0.4510 0.6243
C37 C 0.7288(5) 0.1988(4) 0.661(2)
C38 C 0.6994(4) 0.2345(3) 0.6297(12)
C39 C 0.6654(4) 0.2493(3) 0.7212(10)
H61 H 0.6594 0.2341 0.8068
C40 C 0.6401(3) 0.2862(4) 0.6875(11)
H62 H 0.6169 0.2963 0.7500
C41 C 0.6489(4) 0.3084(3) 0.5622(12)
C42 C 0.6830(4) 0.2936(3) 0.4706(10)
H63 H 0.6890 0.3088 0.3850
C43 C 0.7082(3) 0.2566(4) 0.5044(11)
H64 H 0.7315 0.2465 0.4418
C44 C 0.6176(5) 0.3463(4) 0.532(2)
H65 H 0.6077 0.3455 0.4318
H66 H 0.5898 0.3443 0.5924
C45 C 0.7614(6) 0.5314(5) 0.917(2)
C46 C 0.7291(4) 0.5006(3) 0.8650(13)
C47 C 0.7475(3) 0.4672(4) 0.7834(13)
H67 H 0.7796 0.4667 0.7633
C48 C 0.7191(4) 0.4347(3) 0.7311(12)
H68 H 0.7316 0.4119 0.6753
C49 C 0.6722(4) 0.4354(3) 0.7605(13)
C50 C 0.6538(3) 0.4687(4) 0.8422(14)
H69 H 0.6217 0.4693 0.8622
C51 C 0.6822(4) 0.5013(3) 0.8944(12)
H70 H 0.6697 0.5241 0.9502
C52 C 0.6428(6) 0.3989(5) 0.7117(17)
H71 H 0.6523 0.3725 0.7645
H72 H 0.6107 0.4054 0.7399
C53 C 0.8750(5) 0.3164(6) 0.325(2)
C54 C 0.8363(3) 0.3449(3) 0.3328(13)
C55 C 0.8350(3) 0.3771(4) 0.2298(12)
H73 H 0.8600 0.3803 0.1656
C56 C 0.7972(4) 0.4047(3) 0.2207(11)
H74 H 0.7963 0.4267 0.1503
C57 C 0.7607(3) 0.3999(3) 0.3145(13)
C58 C 0.7620(3) 0.3677(4) 0.4175(12)
H75 H 0.7370 0.3645 0.4817
C59 C 0.7998(4) 0.3401(3) 0.4266(12)
H76 H 0.8007 0.3181 0.4970
C60 C 0.7173(4) 0.4253(5) 0.300(2)
H77 H 0.7135 0.4431 0.3863
H78 H 0.7211 0.4456 0.2194
N1 N 0.6718(4) 0.1602(4) 1.1084(11)
N2 N 0.7526(4) 0.1502(4) 1.0304(16)
H79 H 0.7592 0.1317 1.1056
N3 N 0.7943(5) 0.1179(4) 0.7893(14)
H80 H 0.7932 0.1393 0.7199
N4 N 0.7894(3) 0.0610(3) 0.6032(10)
N5 N 0.7135(4) 0.0736(4) 0.6952(13)
H81 H 0.7062 0.0930 0.6230
N6 N 0.6697(5) 0.1056(5) 0.9285(16)
H82 H 0.6713 0.0847 0.9996
N7 N 0.9908(5) 0.3428(5) 0.0731(17)
H83 H 1.0128 0.3341 0.0076
N8 N 1.0052(5) 0.2983(4) 0.3204(19)
H84 H 0.9865 0.3094 0.3916
N9 N 0.9411(5) 0.2300(5) 0.2605(14)
H85 H 0.9195 0.2359 0.3305
N10 N 0.9254(5) 0.2720(5) -0.001(2)
H86 H 0.9428 0.2586 -0.0713
N11 N 0.6425(5) 0.3879(4) 0.5614(14)
N12 N 0.6747(4) 0.4007(4) 0.2778(14)
Ni1 Ni 0.73130(14) 0.11138(8) 0.8604(4)
Ni2 Ni 0.96634(12) 0.28698(11) 0.1645(4)
O2 O 0.5936(3) 0.1719(5) 1.3124(15)
H87 H 0.5908 0.1731 1.2240
O3 O 0.8217(5) 0.1130(6) 0.2690(16)
H88 H 0.8467 0.1171 0.2260
O4 O 1.0072(5) 0.3580(5) -0.4194(16)
H89 H 1.0328 0.3567 -0.3831
O5 O 0.9318(5) 0.2120(5) 0.7628(15)
H90 H 0.9058 0.2214 0.7483
O6 O 0.7068(4) 0.1663(4) 0.7452(13)
O7 O 0.7681(4) 0.1918(4) 0.6148(13)
O8 O 0.7413(4) 0.5562(4) 1.0146(13)
O9 O 0.7985(4) 0.5350(4) 0.8873(15)
O10 O 0.5579(5) 0.2078(5) 0.0907(15)
O11 O 0.8712(4) 0.2802(5) 0.3972(15)
O12 O 0.9119(5) 0.3229(4) 0.2618(15)
N13 N 0.9309(5) 0.3439(5) -0.1063(15)
N14 N 1.0042(5) 0.2270(5) 0.4299(15)
C61 C 0.9572(6) 0.3696(5) -0.006(2)
H91 H 0.9359 0.3837 0.0613
H92 H 0.9738 0.3928 -0.0579
C62 C 0.9585(7) 0.3342(7) -0.2380(17)
H93 H 0.9488 0.3049 -0.2695
H94 H 0.9909 0.3314 -0.2069
O1C O 1.0174(5) 0.2483(5) 0.0669(15)
Ni1B Ni 0.76870(14) 0.61138(8) 1.1396(4)
Ni2C Ni 0.46634(12) 0.21302(11) -0.1645(4)
O8B O 0.7587(4) 0.0562(4) 0.9854(13)
loop_
_geom_bond_atom_site_label_1
_geom_bond_atom_site_label_2
_geom_bond_site_symmetry_1
_geom_bond_site_symmetry_2
O1 C1 1_555 1_555
C1 C3 1_555 1_555
C2 H1 1_555 1_555
C3 C2 1_555 1_555
C4 C3 1_555 1_555
H2 C4 1_555 1_555
C5 C4 1_555 1_555
H3 C5 1_555 1_555
C6 C5 1_555 1_555
C7 C2 1_555 1_555
H4 C7 1_555 1_555
C8 C6 1_555 1_555
H5 C8 1_555 1_555
H6 C8 1_555 1_555
C9 H7 1_555 1_555
H8 C9 1_555 1_555
C10 H9 1_555 1_555
H10 C10 1_555 1_555
C11 C10 1_555 1_555
H11 C11 1_555 1_555
H12 C11 1_555 1_555
C12 H13 1_555 1_555
H14 C12 1_555 1_555
C13 H15 1_555 1_555
H16 C13 1_555 1_555
C14 H17 1_555 1_555
H18 C14 1_555 1_555
C15 C14 1_555 1_555
H19 C15 1_555 1_555
H20 C15 1_555 1_555
C16 H21 1_555 1_555
H22 C16 1_555 1_555
C17 H23 1_555 1_555
H24 C17 1_555 1_555
C18 C17 1_555 1_555
H25 C18 1_555 1_555
H26 C18 1_555 1_555
C19 H27 1_555 1_555
H28 C19 1_555 1_555
C20 C19 1_555 1_555
H29 C20 1_555 1_555
H30 C20 1_555 1_555
C21 H31 1_555 1_555
H32 C21 1_555 1_555
C22 C21 1_555 1_555
H33 C22 1_555 1_555
H34 C22 1_555 1_555
C23 H35 1_555 1_555
H36 C23 1_555 1_555
C24 H37 1_555 1_555
H38 C24 1_555 1_555
C25 H39 1_555 1_555
H40 C25 1_555 1_555
C26 C25 1_555 1_555
H41 C26 1_555 1_555
H42 C26 1_555 1_555
C27 H43 1_555 1_555
H44 C27 1_555 1_555
C28 H45 1_555 1_555
H46 C28 1_555 1_555
C29 H47 1_555 1_555
H48 C29 1_555 1_555
C30 C29 1_555 1_555
H49 C30 1_555 1_555
H50 C30 1_555 1_555
C31 H51 1_555 1_555
C32 C31 1_555 1_555
H52 C32 1_555 1_555
C33 C32 1_555 1_555
H53 C33 1_555 1_555
H54 C33 1_555 1_555
C34 C33 1_555 1_555
H55 C34 1_555 1_555
H56 C34 1_555 1_555
C35 C34 1_555 1_555
H57 C35 1_555 1_555
H58 C35 1_555 1_555
C36 C31 1_555 1_555
H59 C36 1_555 1_555
H60 C36 1_555 1_555
C37 C38 1_555 1_555
C38 C39 1_555 1_555
C39 H61 1_555 1_555
C40 C39 1_555 1_555
H62 C40 1_555 1_555
C41 C40 1_555 1_555
C42 C41 1_555 1_555
H63 C42 1_555 1_555
C43 C38 1_555 1_555
H64 C43 1_555 1_555
C44 C41 1_555 1_555
H65 C44 1_555 1_555
H66 C44 1_555 1_555
C45 C46 1_555 1_555
C46 C47 1_555 1_555
C47 H67 1_555 1_555
C48 C47 1_555 1_555
H68 C48 1_555 1_555
C49 C48 1_555 1_555
C50 C49 1_555 1_555
H69 C50 1_555 1_555
C51 C46 1_555 1_555
H70 C51 1_555 1_555
C52 C49 1_555 1_555
H71 C52 1_555 1_555
H72 C52 1_555 1_555
C53 C54 1_555 1_555
C54 C55 1_555 1_555
C55 H73 1_555 1_555
C56 C55 1_555 1_555
H74 C56 1_555 1_555
C57 C56 1_555 1_555
C58 C57 1_555 1_555
H75 C58 1_555 1_555
C59 C54 1_555 1_555
H76 C59 1_555 1_555
C60 C57 1_555 1_555
H77 C60 1_555 1_555
H78 C60 1_555 1_555
N1 C9 1_555 1_555
N2 C9 1_555 1_555
H79 N2 1_555 1_555
N3 C11 1_555 1_555
H80 N3 1_555 1_555
N4 C12 1_555 1_555
N5 C13 1_555 1_555
H81 N5 1_555 1_555
N6 C15 1_555 1_555
H82 N6 1_555 1_555
N7 C21 1_555 1_555
H83 N7 1_555 1_555
N8 C22 1_555 1_555
H84 N8 1_555 1_555
N9 C24 1_555 1_555
H85 N9 1_555 1_555
N10 C26 1_555 1_555
H86 N10 1_555 1_555
N11 C31 1_555 1_555
N12 C8 1_555 1_555
Ni1 N2 1_555 1_555
Ni2 N7 1_555 1_555
O2 C18 1_555 1_555
H87 O2 1_555 1_555
O3 C20 1_555 1_555
H88 O3 1_555 1_555
O4 C28 1_555 1_555
H89 O4 1_555 1_555
O5 C30 1_555 1_555
H90 O5 1_555 1_555
O6 C37 1_555 1_555
O7 C37 1_555 1_555
O8 C45 1_555 1_555
O9 C45 1_555 1_555
O10 C1 1_555 1_555
O11 C53 1_555 1_555
O12 C53 1_555 1_555
N13 C27 1_555 1_555
N14 C23 1_555 1_555
C61 N7 1_555 1_555
H91 C61 1_555 1_555
H92 C61 1_555 1_555
C62 C28 1_555 1_555
H93 C62 1_555 1_555
H94 C62 1_555 1_555
O1C Ni2 1_555 1_555
Ni1B O8 1_555 1_555
Ni2C O1 1_555 1_555
O8B Ni1 1_555 1_555
C6 C7 1_555 1_555
C10 N2 1_555 1_555
C12 N3 1_555 1_555
C13 N4 1_555 1_555
C14 N5 1_555 1_555
C16 N1 1_555 1_555
C16 N6 1_555 1_555
C17 N1 1_555 1_555
C19 N4 1_555 1_555
C23 N8 1_555 1_555
C24 N14 1_555 1_555
C25 N9 1_555 1_555
C27 N10 1_555 1_555
C29 N14 1_555 1_555
C32 N12 1_555 1_555
C35 C36 1_555 1_555
C42 C43 1_555 1_555
C44 N11 1_555 1_555
C50 C51 1_555 1_555
C52 N11 1_555 1_555
C58 C59 1_555 1_555
C60 N12 1_555 1_555
N3 Ni1 1_555 1_555
N5 Ni1 1_555 1_555
N6 Ni1 1_555 1_555
N8 Ni2 1_555 1_555
N9 Ni2 1_555 1_555
N10 Ni2 1_555 1_555
Ni1 O6 1_555 1_555
Ni2 O12 1_555 1_555
N13 C61 1_555 1_555
N13 C62 1_555 1_555

#END
