
#######################################################################
#
#                 Cambridge Crystallographic Data Centre
#                                CCDC 
#
#######################################################################
#
# If this CIF has been generated from an entry in the Cambridge 
# Structural Database, then it will include bibliographic, chemical, 
# crystal, experimental, refinement or atomic coordinate data resulting 
# from the CCDC's data processing and validation procedures.
#
#######################################################################

data_CUGFIV
_symmetry_cell_setting           triclinic
_symmetry_space_group_name_H-M   'P -1'
_symmetry_Int_Tables_number      2
_space_group_name_Hall           '-P 1'
loop_
_symmetry_equiv_pos_site_id
_symmetry_equiv_pos_as_xyz
1 x,y,z
2 -x,-y,-z
_cell_length_a                   8.7768(10)
_cell_length_b                   10.3933(9)
_cell_length_c                   11.0723(12)
_cell_angle_alpha                100.215(8)
_cell_angle_beta                 109.697(10)
_cell_angle_gamma                98.323(8)
_cell_volume                     912.76
loop_
_atom_site_label
_atom_site_type_symbol
_atom_site_fract_x
_atom_site_fract_y
_atom_site_fract_z
Cu1 Cu 1.29986(6) 0.83438(4) 1.24997(5)
O1 O 1.3084(4) 0.8977(3) 1.4665(3)
O2 O 1.4606(4) 1.0641(3) 1.6408(3)
C1 C 0.4908(7) 0.4910(5) 0.6789(5)
H1 H 0.4116 0.5336 0.6336
C2 C 0.7894(5) 0.7830(4) 0.7455(4)
H2 H 0.8260 0.7084 0.7160
N1 N 1.0567(4) 0.7466(3) 1.1664(3)
N2 N 0.7981(4) 0.6945(3) 1.0218(3)
N3 N 0.5017(4) 0.7140(3) 0.9283(3)
N4 N 0.6126(4) 0.5443(3) 0.8019(3)
N5 N 0.6979(4) 0.7897(3) 0.8237(3)
C3 C 1.4335(5) 0.9879(4) 1.5301(4)
C4 C 0.9507(5) 0.7713(4) 1.0607(4)
H3 H 0.9787 0.8350 1.0180
C5 C 0.8173(6) 0.9036(4) 0.7187(5)
H4 H 0.8765 0.9259 0.6669
C6 C 0.9657(5) 0.6485(4) 1.1989(4)
H5 H 1.0063 0.6103 1.2698
C7 C 0.6756(5) 0.9167(4) 0.8411(4)
H6 H 0.6174 0.9499 0.8914
C8 C 0.6952(5) 0.4480(4) 0.8247(4)
H7 H 0.7867 0.4573 0.9015
C9 C 0.8083(5) 0.6170(4) 1.1113(4)
H8 H 0.7217 0.5538 1.1113
C10 C 0.4984(6) 0.7636(5) 1.0477(5)
H9 H 0.5887 0.7753 1.1259
C11 C 0.5065(6) 0.3665(5) 0.6358(5)
H10 H 0.4394 0.3083 0.5549
C12 C 0.2630(6) 0.7633(6) 0.9141(5)
H11 H 0.1544 0.7735 0.8793
C13 C 0.3474(6) 0.7164(6) 0.8423(5)
H12 H 0.3087 0.6901 0.7506
B1 B 0.6501(6) 0.6852(4) 0.8943(5)
N6 N 0.6358(4) 0.3389(3) 0.7289(3)
N7 N 0.7451(4) 0.9880(3) 0.7793(3)
N8 N 0.3583(5) 0.7941(4) 1.0450(4)
O1A O 1.6916(4) 1.1023(3) 1.5335(3)
O2A O 1.5394(4) 0.9359(3) 1.3592(3)
C3A C 1.5665(5) 1.0121(4) 1.4699(4)
Cu1A Cu 0.70014(6) 0.16562(4) 0.75003(5)
C1A C 1.5092(7) 0.5090(5) 1.3211(5)
H1A H 1.5884 0.4664 1.3664
C2A C 1.2106(5) 0.2170(4) 1.2545(4)
H2A H 1.1740 0.2916 1.2840
N1A N 0.9433(4) 0.2534(3) 0.8336(3)
N2A N 1.2019(4) 0.3055(3) 0.9782(3)
N3A N 1.4983(4) 0.2860(3) 1.0717(3)
N4A N 1.3874(4) 0.4557(3) 1.1981(3)
N5A N 1.3021(4) 0.2103(3) 1.1763(3)
C4A C 1.0493(5) 0.2287(4) 0.9393(4)
H3A H 1.0213 0.1650 0.9820
C5A C 1.1827(6) 0.0964(4) 1.2813(5)
H4A H 1.1235 0.0741 1.3331
C6A C 1.0343(5) 0.3515(4) 0.8011(4)
H5A H 0.9937 0.3897 0.7302
C7A C 1.3244(5) 0.0833(4) 1.1589(4)
H6A H 1.3826 0.0501 1.1086
C8A C 1.3048(5) 0.5520(4) 1.1753(4)
H7A H 1.2133 0.5427 1.0985
C9A C 1.1917(5) 0.3830(4) 0.8887(4)
H8A H 1.2783 0.4462 0.8887
C10A C 1.5016(6) 0.2364(5) 0.9523(5)
H9A H 1.4113 0.2247 0.8741
C11A C 1.4935(6) 0.6335(5) 1.3642(5)
H10A H 1.5606 0.6917 1.4451
C12A C 1.7370(6) 0.2367(6) 1.0859(5)
H11A H 1.8456 0.2265 1.1207
C13A C 1.6526(6) 0.2836(6) 1.1577(5)
H12A H 1.6913 0.3099 1.2494
B1A B 1.3499(6) 0.3148(4) 1.1057(5)
N6A N 1.3642(4) 0.6611(3) 1.2711(3)
N7A N 1.2549(4) 0.0120(3) 1.2207(3)
N8A N 1.6417(5) 0.2059(4) 0.9550(4)
Cu1_2 Cu 0.29986(6) 0.83438(4) 1.24997(5)
Cu1_3 Cu 1.29986(6) -0.16562(4) 1.24997(5)
Cu1A_2 Cu 0.70014(6) 1.16562(4) 0.75003(5)
Cu1A_3 Cu 1.70014(6) 0.16562(4) 0.75003(5)
Cu1A_4 Cu 1.70014(6) 1.16562(4) 1.75003(5)
O1A_2 O 0.6916(4) 0.1023(3) 0.5335(3)
O2_2 O 0.4606(4) 0.0641(3) 0.6408(3)
N7_2 N 0.7451(4) -0.0120(3) 0.7793(3)
N7A_2 N 1.2549(4) 1.0120(3) 1.2207(3)
N8_2 N 1.3583(5) 0.7941(4) 1.0450(4)
N8A_2 N 0.6417(5) 0.2059(4) 0.9550(4)
O3 O -0.1575(8) 0.9215(8) 0.3391(9)
O4 O 0.0494(10) 0.7838(10) 0.5280(8)
O5 O 0.081(2) 0.455(3) 0.457(2)
loop_
_geom_bond_atom_site_label_1
_geom_bond_atom_site_label_2
_geom_bond_site_symmetry_1
_geom_bond_site_symmetry_2
Cu1 O1 1_555 1_555
O1 C3 1_555 1_555
O2 C3 1_555 1_555
C1 H1 1_555 1_555
C2 H2 1_555 1_555
N1 Cu1 1_555 1_555
N2 C4 1_555 1_555
N3 C10 1_555 1_555
N4 C1 1_555 1_555
N5 C2 1_555 1_555
C3 C3A 1_555 1_555
C4 N1 1_555 1_555
H3 C4 1_555 1_555
C5 C2 1_555 1_555
H4 C5 1_555 1_555
C6 N1 1_555 1_555
H5 C6 1_555 1_555
C7 N5 1_555 1_555
H6 C7 1_555 1_555
C8 N4 1_555 1_555
H7 C8 1_555 1_555
C9 N2 1_555 1_555
H8 C9 1_555 1_555
C10 H9 1_555 1_555
C11 C1 1_555 1_555
H10 C11 1_555 1_555
C12 H11 1_555 1_555
C13 N3 1_555 1_555
H12 C13 1_555 1_555
B1 N2 1_555 1_555
N6 C8 1_555 1_555
N7 C5 1_555 1_555
N8 C10 1_555 1_555
O1A C3A 1_555 1_555
O2A Cu1 1_555 1_555
C3A O2A 1_555 1_555
Cu1A N6 1_555 1_555
C1A H1A 1_555 1_555
C2A H2A 1_555 1_555
N1A Cu1A 1_555 1_555
N2A C4A 1_555 1_555
N3A C10A 1_555 1_555
N4A C1A 1_555 1_555
N5A C2A 1_555 1_555
C4A N1A 1_555 1_555
H3A C4A 1_555 1_555
C5A C2A 1_555 1_555
H4A C5A 1_555 1_555
C6A N1A 1_555 1_555
H5A C6A 1_555 1_555
C7A N5A 1_555 1_555
H6A C7A 1_555 1_555
C8A N4A 1_555 1_555
H7A C8A 1_555 1_555
C9A N2A 1_555 1_555
H8A C9A 1_555 1_555
C10A H9A 1_555 1_555
C11A C1A 1_555 1_555
H10A C11A 1_555 1_555
C12A H11A 1_555 1_555
C13A N3A 1_555 1_555
H12A C13A 1_555 1_555
B1A N2A 1_555 1_555
N6A Cu1 1_555 1_555
N7A C5A 1_555 1_555
N8A C10A 1_555 1_555
Cu1_2 N8 1_555 1_555
Cu1_3 N7A 1_555 1_555
Cu1A_2 N7 1_555 1_555
Cu1A_3 N8A 1_555 1_555
Cu1A_4 O2 1_555 1_555
O1A_2 Cu1A 1_555 1_555
O2_2 Cu1A 1_555 1_555
N7_2 Cu1A 1_555 1_555
N7A_2 Cu1 1_555 1_555
N8_2 Cu1 1_555 1_555
N8A_2 Cu1A 1_555 1_555
N3 B1 1_555 1_555
N4 B1 1_555 1_555
N5 B1 1_555 1_555
C6 C9 1_555 1_555
C7 N7 1_555 1_555
C11 N6 1_555 1_555
C12 C13 1_555 1_555
C12 N8 1_555 1_555
O1A Cu1A_4 1_555 1_555
N3A B1A 1_555 1_555
N4A B1A 1_555 1_555
N5A B1A 1_555 1_555
C6A C9A 1_555 1_555
C7A N7A 1_555 1_555
C8A N6A 1_555 1_555
C11A N6A 1_555 1_555
C12A C13A 1_555 1_555
C12A N8A 1_555 1_555

#END
