
#######################################################################
#
#                 Cambridge Crystallographic Data Centre
#                                CCDC 
#
#######################################################################
#
# If this CIF has been generated from an entry in the Cambridge 
# Structural Database, then it will include bibliographic, chemical, 
# crystal, experimental, refinement or atomic coordinate data resulting 
# from the CCDC's data processing and validation procedures.
#
#######################################################################

data_CUGLTM
_symmetry_cell_setting           orthorhombic
_symmetry_space_group_name_H-M   'P 21 21 21'
_symmetry_Int_Tables_number      19
_space_group_name_Hall           'P 2ac 2ab'
loop_
_symmetry_equiv_pos_site_id
_symmetry_equiv_pos_as_xyz
1 x,y,z
2 1/2+x,1/2-y,-z
3 -x,1/2+y,1/2-z
4 1/2-x,-y,1/2+z
_cell_length_a                   11.084(6)
_cell_length_b                   10.350(3)
_cell_length_c                   7.238(2)
_cell_angle_alpha                90
_cell_angle_beta                 90
_cell_angle_gamma                90
_cell_volume                     830.339
loop_
_atom_site_label
_atom_site_type_symbol
_atom_site_fract_x
_atom_site_fract_y
_atom_site_fract_z
Cu1 Cu 0.27933 0.18332 0.35030
C1 C 0.15950 -0.03400 0.22200
C2 C 0.06110 0.03390 0.33010
C3 C -0.03700 0.08240 0.19850
C4 C 0.00670 0.16740 0.04270
C5 C -0.09540 0.21710 -0.07560
H1 H 0.02800 -0.02200 0.41700
H4 H -0.08100 0.01900 0.16100
H5 H -0.10300 0.13800 0.25900
H6 H 0.06300 0.10700 -0.03900
H7 H 0.04600 0.25900 0.09200
H8 H 0.13500 0.13900 0.52400
H9 H 0.05400 0.21800 0.42600
H10 H 0.28100 0.41600 0.39000
H11 H 0.21600 0.37500 0.56900
N1 N 0.11330 0.14170 0.43980
O1 O 0.26660 0.01280 0.23170
O2 O 0.13100 -0.12860 0.12590
O3 O -0.06590 0.27860 -0.22490
O4 O -0.20310 0.19940 -0.03560
O5 O 0.26910 0.36560 0.43680
O2C O 0.36900 0.12860 0.62590
O3A O 0.43410 0.22140 0.22490
Cu1C Cu 0.22067 -0.18332 -0.14970
Cu1A Cu -0.22067 0.31668 -0.35030
H2 H -0.30100 -0.87700 -0.80300
H3 H -0.41900 -0.87100 -0.77300
O6 O -0.34410 -0.90410 -0.76570
loop_
_geom_bond_atom_site_label_1
_geom_bond_atom_site_label_2
_geom_bond_site_symmetry_1
_geom_bond_site_symmetry_2
Cu1 N1 1_555 1_555
C1 C2 1_555 1_555
C2 C3 1_555 1_555
C3 C4 1_555 1_555
C4 C5 1_555 1_555
C5 O3 1_555 1_555
H1 C2 1_555 1_555
H2 O6 1_555 1_555
H3 O6 1_555 1_555
H4 C3 1_555 1_555
H5 C3 1_555 1_555
H6 C4 1_555 1_555
H7 C4 1_555 1_555
H8 N1 1_555 1_555
H9 N1 1_555 1_555
H10 O5 1_555 1_555
H11 O5 1_555 1_555
N1 C2 1_555 1_555
O1 Cu1 1_555 1_555
O2 C1 1_555 1_555
O3 Cu1A 1_555 1_555
O4 C5 1_555 1_555
O5 Cu1 1_555 1_555
O2C Cu1 1_555 1_555
O3A Cu1 1_555 1_555
Cu1C O2 1_555 1_555
C1 O1 1_555 1_555

#END
