
#######################################################################
#
#                 Cambridge Crystallographic Data Centre
#                                CCDC 
#
#######################################################################
#
# If this CIF has been generated from an entry in the Cambridge 
# Structural Database, then it will include bibliographic, chemical, 
# crystal, experimental, refinement or atomic coordinate data resulting 
# from the CCDC's data processing and validation procedures.
#
#######################################################################

data_CUGLTM01
_symmetry_cell_setting           orthorhombic
_symmetry_space_group_name_H-M   'P 21 21 21'
_symmetry_Int_Tables_number      19
_space_group_name_Hall           'P 2ac 2ab'
loop_
_symmetry_equiv_pos_site_id
_symmetry_equiv_pos_as_xyz
1 x,y,z
2 1/2-x,-y,1/2+z
3 1/2+x,1/2-y,-z
4 -x,1/2+y,1/2-z
_cell_length_a                   7.2255(3)
_cell_length_b                   10.3053(3)
_cell_length_c                   11.0499(3)
_cell_angle_alpha                90
_cell_angle_beta                 90
_cell_angle_gamma                90
_cell_volume                     822.786
loop_
_atom_site_label
_atom_site_type_symbol
_atom_site_fract_x
_atom_site_fract_y
_atom_site_fract_z
Cu1 Cu -0.10066(9) 0.06680(6) -0.52934(5)
O1 O -0.1877(5) -0.1159(3) -0.5186(4)
O3 O 0.0199(5) 0.2379(4) -0.5170(3)
O4 O 0.1241(5) 0.3794(3) -0.3805(3)
O5 O 0.4747(5) -0.0290(4) -0.1846(3)
O6 O 0.2862(5) 0.0509(4) -0.0471(3)
N1 N -0.1900(6) 0.1084(4) -0.3625(4)
C1 C 0.0281(7) 0.2847(5) -0.4098(4)
C2 C -0.0789(7) 0.2157(5) -0.3110(4)
C3 C 0.0509(7) 0.1688(5) -0.2133(4)
C4 C 0.2068(7) 0.0814(5) -0.2569(4)
C5 C 0.3274(7) 0.0309(5) -0.1549(4)
H1 H -0.1620 0.2720 -0.2788
H2 H -0.2869 -0.1340 -0.4752
H3 H -0.1730 -0.1775 -0.5896
H4 H -0.2146 0.0505 -0.3021
H6 H -0.3006 0.1499 -0.3735
H8 H 0.0992 0.2399 -0.1695
H9 H -0.0086 0.1208 -0.1541
H10 H 0.2877 0.1312 -0.3113
H11 H 0.1645 -0.0057 -0.3063
O4B O -0.3759(5) 0.1206(3) -0.6195(3)
Cu1B Cu 0.39934(9) 0.43320(6) -0.47066(5)
Cu1A Cu 0.60066(9) -0.06680(6) -0.02934(5)
O5A O 0.0253(5) 0.0290(4) -0.6846(3)
O6A O 0.2138(5) -0.0509(4) -0.5471(3)
O2 O -0.5150(5) -0.1541(4) -0.4050(3)
H5 H -0.5292 -0.1112 -0.3404
H7 H -0.5397 -0.1068 -0.4665
loop_
_geom_bond_atom_site_label_1
_geom_bond_atom_site_label_2
_geom_bond_site_symmetry_1
_geom_bond_site_symmetry_2
Cu1 O1 1_555 1_555
O1 H2 1_555 1_555
O2 H5 1_555 1_555
O3 Cu1 1_555 1_555
O4 C1 1_555 1_555
O5 C5 1_555 1_555
O6 C5 1_555 1_555
N1 Cu1 1_555 1_555
C1 O3 1_555 1_555
C2 N1 1_555 1_555
C3 C2 1_555 1_555
C4 C3 1_555 1_555
C5 C4 1_555 1_555
H1 C2 1_555 1_555
H3 O1 1_555 1_555
H4 N1 1_555 1_555
H6 N1 1_555 1_555
H7 O2 1_555 1_555
H8 C3 1_555 1_555
H9 C3 1_555 1_555
H10 C4 1_555 1_555
H11 C4 1_555 1_555
O4B Cu1 1_555 1_555
Cu1B O4 1_555 1_555
Cu1A O5 1_555 1_555
O5A Cu1 1_555 1_555
O6A Cu1 1_555 1_555
O6 Cu1A 1_555 1_555
C1 C2 1_555 1_555

#END
