
#######################################################################
#
#                 Cambridge Crystallographic Data Centre
#                                CCDC 
#
#######################################################################
#
# If this CIF has been generated from an entry in the Cambridge 
# Structural Database, then it will include bibliographic, chemical, 
# crystal, experimental, refinement or atomic coordinate data resulting 
# from the CCDC's data processing and validation procedures.
#
#######################################################################

data_CUGLTM02
_symmetry_cell_setting           orthorhombic
_symmetry_space_group_name_H-M   'P 21 21 21'
_symmetry_Int_Tables_number      19
_space_group_name_Hall           'P 2ac 2ab'
loop_
_symmetry_equiv_pos_site_id
_symmetry_equiv_pos_as_xyz
1 x,y,z
2 -x,1/2+y,1/2-z
3 1/2+x,1/2-y,-z
4 1/2-x,-y,1/2+z
_cell_length_a                   7.232(11)
_cell_length_b                   10.311(14)
_cell_length_c                   11.058(14)
_cell_angle_alpha                90
_cell_angle_beta                 90
_cell_angle_gamma                90
_cell_volume                     824.586
loop_
_atom_site_label
_atom_site_type_symbol
_atom_site_fract_x
_atom_site_fract_y
_atom_site_fract_z
Cu1 Cu 0.60031(7) 0.43316(5) 0.47087(5)
O1 O 0.8745(5) 0.3790(3) 0.3809(3)
O2 O 0.9816(5) 0.2381(4) 0.5169(3)
C1 C 0.9704(6) 0.2850(5) 0.4116(4)
C2 C 1.0805(6) 0.2157(4) 0.3099(4)
H1 H 1.1658 0.2786 0.2739
N1 N 1.1907(6) 0.1092(4) 0.3627(3)
H2 H 1.3104 0.1328 0.3661
H3 H 1.1819 0.0385 0.3154
C3 C 0.9494(7) 0.1682(5) 0.2113(4)
H4 H 1.0203 0.1201 0.1518
H5 H 0.8963 0.2429 0.1709
C4 C 0.7924(6) 0.0820(5) 0.2570(4)
H6 H 0.8443 0.0090 0.3007
H7 H 0.7164 0.1312 0.3129
C5 C 0.6725(7) 0.0320(4) 0.1549(4)
O3 O 0.6874(6) 0.6155(4) 0.4819(4)
H8 H 0.618(6) 0.683(3) 0.462(4)
H9 H 0.761(7) 0.629(5) 0.542(4)
O4 O 0.7148(6) 0.0506(5) 0.0461(3)
O5 O 0.5241(5) -0.0285(3) 0.1838(3)
Cu1B Cu 1.10031(7) 0.06684(5) 0.52913(5)
Cu1A Cu 0.39969(7) -0.06684(5) 0.02913(5)
O2B O 0.4816(5) 0.2619(4) 0.4831(3)
N1B N 0.6907(6) 0.3908(4) 0.6373(3)
H2B H 0.8104 0.3672 0.6339
H3B H 0.6819 0.4615 0.6846
O4A O 0.2852(6) 0.5506(5) 0.4539(3)
O5A O 0.4759(5) 0.4715(3) 0.3162(3)
O6 O 0.5160(5) 0.8456(4) 0.4055(3)
H10 H 0.596(8) 0.886(6) 0.455(4)
H11 H 0.526(8) 0.879(5) 0.332(2)
loop_
_geom_bond_atom_site_label_1
_geom_bond_atom_site_label_2
_geom_bond_site_symmetry_1
_geom_bond_site_symmetry_2
Cu1 O1 1_555 1_555
O1 C1 1_555 1_555
O2 C1 1_555 1_555
C1 C2 1_555 1_555
C2 H1 1_555 1_555
N1 C2 1_555 1_555
H2 N1 1_555 1_555
H3 N1 1_555 1_555
C3 C2 1_555 1_555
H4 C3 1_555 1_555
H5 C3 1_555 1_555
C4 C3 1_555 1_555
H6 C4 1_555 1_555
H7 C4 1_555 1_555
C5 C4 1_555 1_555
O3 Cu1 1_555 1_555
H8 O3 1_555 1_555
H9 O3 1_555 1_555
O4 C5 1_555 1_555
O5 C5 1_555 1_555
O6 H10 1_555 1_555
H11 O6 1_555 1_555
Cu1B O2 1_555 1_555
Cu1A O4 1_555 1_555
O2B Cu1 1_555 1_555
N1B Cu1 1_555 1_555
H2B N1B 1_555 1_555
H3B N1B 1_555 1_555
O4A Cu1 1_555 1_555
O5A Cu1 1_555 1_555
N1 Cu1B 1_555 1_555
O5 Cu1A 1_555 1_555

#END
