
#######################################################################
#
#                 Cambridge Crystallographic Data Centre
#                                CCDC 
#
#######################################################################
#
# If this CIF has been generated from an entry in the Cambridge 
# Structural Database, then it will include bibliographic, chemical, 
# crystal, experimental, refinement or atomic coordinate data resulting 
# from the CCDC's data processing and validation procedures.
#
#######################################################################

data_CUGMPP
_symmetry_cell_setting           orthorhombic
_symmetry_space_group_name_H-M   'P 21 21 2'
_symmetry_Int_Tables_number      18
_space_group_name_Hall           'P 2 2ab'
loop_
_symmetry_equiv_pos_site_id
_symmetry_equiv_pos_as_xyz
1 x,y,z
2 1/2+x,1/2-y,-z
3 1/2-x,1/2+y,-z
4 -x,-y,z
_cell_length_a                   23.369(5)
_cell_length_b                   20.711(5)
_cell_length_c                   11.305(3)
_cell_angle_alpha                90
_cell_angle_beta                 90
_cell_angle_gamma                90
_cell_volume                     5471.57
loop_
_atom_site_label
_atom_site_type_symbol
_atom_site_fract_x
_atom_site_fract_y
_atom_site_fract_z
Cu1 Cu 0.17468 0.05696 0.25726
Cu2 Cu 0.32659 -0.08759 0.65142
Cu3 Cu 0.37167 0.20021 0.68407
P1 P 0.31282 0.06198 0.61542
P2 P 0.19788 -0.09383 0.28712
P3 P 0.23085 0.26934 0.31340
N1 N -0.04100 0.08910 0.38220
N2 N -0.10610 0.09950 0.53560
N3 N -0.01080 0.08940 0.58150
N4 N 0.11460 0.06910 0.40580
N5 N 0.09180 0.07870 0.59780
C1 C -0.05080 0.09380 0.50070
C2 C 0.04040 0.08260 0.53470
C3 C 0.05760 0.07630 0.41590
C4 C 0.01430 0.07900 0.33110
C5 C 0.13420 0.07260 0.51410
C6 C 0.09690 0.08860 0.72630
C7 C 0.10250 0.02400 0.79340
C8 C 0.16640 0.01920 0.81220
C9 C 0.18540 0.09160 0.82390
C10 C 0.24470 0.10310 0.78630
O1 O 0.01720 0.07310 0.22220
O2 O 0.14570 0.12410 0.74860
O3 O 0.07300 0.03120 0.90230
O4 O 0.18190 -0.01600 0.91800
O5 O 0.25330 0.08810 0.66540
O6 O 0.29920 0.04310 0.49110
O7 O 0.35650 0.11510 0.62170
O8 O 0.33210 0.00510 0.69000
O9 O 0.24270 0.10000 0.31910
O10 O 0.15600 0.13430 0.17270
O11 O 0.11870 0.01300 0.15360
N6 N 0.54080 -0.07920 0.49150
N7 N 0.60340 -0.08240 0.32840
N8 N 0.50660 -0.09300 0.29410
N9 N 0.38370 -0.09060 0.48640
N10 N 0.40400 -0.10520 0.29260
C11 C 0.54890 -0.08480 0.37080
C12 C 0.45520 -0.09470 0.34820
C13 C 0.44310 -0.08550 0.46470
C14 C 0.48780 -0.07850 0.54760
C15 C 0.36220 -0.10360 0.38010
C16 C 0.39320 -0.12260 0.16820
C17 C 0.36280 -0.18600 0.15080
C18 C 0.32750 -0.17560 0.03900
C19 C 0.31500 -0.10360 0.04760
C20 C 0.25670 -0.08650 0.09100
O12 O 0.48680 -0.07350 0.65520
O13 O 0.35780 -0.07400 0.11860
O14 O 0.40150 -0.23760 0.14120
O15 O 0.36010 -0.19110 -0.06390
O16 O 0.24670 -0.11900 0.20410
O17 O 0.20490 -0.13520 0.39510
O18 O 0.21050 -0.02290 0.31060
O19 O 0.13930 -0.10330 0.22820
O20 O 0.25530 -0.07010 0.56430
O21 O 0.38800 -0.09880 0.76780
N11 N 0.58510 0.23970 0.56560
N12 N 0.65150 0.26560 0.41710
N13 N 0.55500 0.26850 0.36920
N14 N 0.42830 0.23290 0.53660
N15 N 0.45270 0.26280 0.35200
C21 C 0.59830 0.25960 0.44990
C22 C 0.50460 0.25660 0.41510
C23 C 0.48890 0.24060 0.52750
C24 C 0.53190 0.23170 0.61200
C25 C 0.40800 0.24840 0.43110
C26 C 0.44640 0.28740 0.23080
C27 C 0.43120 0.23640 0.13410
C28 C 0.36820 0.24900 0.12710
C29 C 0.36090 0.31900 0.14270
C30 C 0.30420 0.34010 0.19490
O22 O 0.52920 0.21600 0.71780
O23 O 0.40490 0.33490 0.23100
O24 O 0.45910 0.25350 0.02750
O25 O 0.34340 0.22970 0.01680
O26 O 0.29140 0.30490 0.30140
O27 O 0.23940 0.21830 0.40780
O28 O 0.18720 0.32070 0.34990
O29 O 0.21540 0.24120 0.19500
O30 O 0.37840 0.27270 0.79370
O31 O 0.42920 0.16410 0.79150
O32 O 0.30100 0.23690 0.61310
H1 H -0.07800 0.10000 0.30700
H2 H -0.10800 0.10400 0.60500
H3 H -0.14100 0.11200 0.48900
H4 H 0.17700 0.07000 0.55000
H5 H 0.06600 0.11300 0.75900
H6 H 0.04500 0.08000 0.85800
H7 H 0.08900 -0.01000 0.73000
H8 H 0.15000 -0.03600 0.97000
H9 H 0.19000 0.00100 0.73300
H10 H 0.19200 0.10200 0.90400
H11 H 0.27200 0.08000 0.83000
H12 H 0.25500 0.15100 0.80100
H13 H 0.24000 0.14300 0.33000
H14 H 0.26500 0.07000 0.38000
H15 H 0.17500 0.18000 0.17800
H16 H 0.13500 0.14500 0.11000
H17 H 0.08000 0.03300 0.17000
H18 H 0.11300 -0.03900 0.17500
H19 H 0.63600 -0.06700 0.38400
H20 H 0.62500 -0.08500 0.26000
H21 H 0.31900 -0.11700 0.36200
H22 H 0.43300 -0.12800 0.12800
H23 H 0.40500 -0.26000 0.23000
H24 H 0.33600 -0.20500 0.21500
H25 H 0.33300 -0.21200 -0.11500
H26 H 0.29300 -0.20800 0.05000
H27 H 0.32500 -0.08200 -0.03300
H28 H 0.23000 -0.09800 0.03300
H29 H 0.26000 -0.03500 0.09300
H30 H 0.25500 -0.09500 0.50500
H31 H 0.43000 -0.09900 0.74300
H32 H 0.40000 -0.14000 0.78000
H33 H 0.62500 0.22600 0.61300
H34 H 0.68100 0.27000 0.48800
H35 H 0.65500 0.28300 0.37000
H36 H 0.35900 0.25500 0.37900
H37 H 0.48500 0.30800 0.21000
H38 H 0.46400 0.30000 0.03000
H39 H 0.45400 0.20400 0.18700
H40 H 0.35500 0.18400 0.01000
H41 H 0.33600 0.23600 0.17300
H42 H 0.37500 0.34000 0.05000
H43 H 0.27700 0.34300 0.13400
H44 H 0.31100 0.38600 0.21700
H45 H 0.38000 0.32100 0.77000
H46 H 0.34600 0.26100 0.83100
H47 H 0.46800 0.19000 0.76500
H48 H 0.44100 0.13000 0.76200
H49 H 0.30300 0.27500 0.60700
H50 H 0.26000 0.20500 0.58000
O28B O 0.31280 -0.17930 0.65010
Cu2B Cu 0.17341 0.41241 0.34858
O33 O 0.46670 0.41550 0.00610
O34 O 0.06790 0.18110 0.04990
O35 O 0.28330 0.12760 0.05980
O36 O 0.37420 0.05840 0.07600
O37 O 0.41880 0.03720 0.85060
loop_
_geom_bond_atom_site_label_1
_geom_bond_atom_site_label_2
_geom_bond_site_symmetry_1
_geom_bond_site_symmetry_2
Cu1 N4 1_555 1_555
Cu2 O8 1_555 1_555
Cu3 O7 1_555 1_555
P1 O5 1_555 1_555
P2 O16 1_555 1_555
P3 O26 1_555 1_555
N1 C1 1_555 1_555
N2 C1 1_555 1_555
N3 C1 1_555 1_555
N4 C3 1_555 1_555
N5 C2 1_555 1_555
C2 N3 1_555 1_555
C3 C2 1_555 1_555
C4 N1 1_555 1_555
C5 N4 1_555 1_555
C6 N5 1_555 1_555
C7 C6 1_555 1_555
C8 C7 1_555 1_555
C9 C8 1_555 1_555
C10 C9 1_555 1_555
O1 C4 1_555 1_555
O2 C6 1_555 1_555
O3 C7 1_555 1_555
O4 C8 1_555 1_555
O5 C10 1_555 1_555
O6 P1 1_555 1_555
O7 P1 1_555 1_555
O8 P1 1_555 1_555
O9 Cu1 1_555 1_555
O10 Cu1 1_555 1_555
O11 Cu1 1_555 1_555
N6 C11 1_555 1_555
N7 C11 1_555 1_555
N8 C11 1_555 1_555
N9 Cu2 1_555 1_555
N10 C12 1_555 1_555
C12 N8 1_555 1_555
C13 N9 1_555 1_555
C14 N6 1_555 1_555
C15 N9 1_555 1_555
C16 N10 1_555 1_555
C17 C16 1_555 1_555
C18 C17 1_555 1_555
C19 C18 1_555 1_555
C20 C19 1_555 1_555
O12 C14 1_555 1_555
O13 C16 1_555 1_555
O14 C17 1_555 1_555
O15 C18 1_555 1_555
O16 C20 1_555 1_555
O17 P2 1_555 1_555
O18 Cu1 1_555 1_555
O19 P2 1_555 1_555
O20 Cu2 1_555 1_555
O21 Cu2 1_555 1_555
N11 C21 1_555 1_555
N12 C21 1_555 1_555
N13 C21 1_555 1_555
N14 Cu3 1_555 1_555
N15 C22 1_555 1_555
C22 N13 1_555 1_555
C23 N14 1_555 1_555
C24 N11 1_555 1_555
C25 N14 1_555 1_555
C26 N15 1_555 1_555
C27 C26 1_555 1_555
C28 C27 1_555 1_555
C29 C28 1_555 1_555
C30 C29 1_555 1_555
O22 C24 1_555 1_555
O23 C26 1_555 1_555
O24 C27 1_555 1_555
O25 C28 1_555 1_555
O26 C30 1_555 1_555
O27 P3 1_555 1_555
O28 P3 1_555 1_555
O29 P3 1_555 1_555
O30 Cu3 1_555 1_555
O31 Cu3 1_555 1_555
O32 Cu3 1_555 1_555
H1 N1 1_555 1_555
H2 N2 1_555 1_555
H3 N2 1_555 1_555
H4 C5 1_555 1_555
H5 C6 1_555 1_555
H6 O3 1_555 1_555
H7 C7 1_555 1_555
H8 O4 1_555 1_555
H9 C8 1_555 1_555
H10 C9 1_555 1_555
H11 C10 1_555 1_555
H12 C10 1_555 1_555
H13 O9 1_555 1_555
H14 O9 1_555 1_555
H15 O10 1_555 1_555
H16 O10 1_555 1_555
H17 O11 1_555 1_555
H18 O11 1_555 1_555
H19 N7 1_555 1_555
H20 N7 1_555 1_555
H21 C15 1_555 1_555
H22 C16 1_555 1_555
H23 O14 1_555 1_555
H24 C17 1_555 1_555
H25 O15 1_555 1_555
H26 C18 1_555 1_555
H27 C19 1_555 1_555
H28 C20 1_555 1_555
H29 C20 1_555 1_555
H30 O20 1_555 1_555
H31 O21 1_555 1_555
H32 O21 1_555 1_555
H33 N11 1_555 1_555
H34 N12 1_555 1_555
H35 N12 1_555 1_555
H36 C25 1_555 1_555
H37 C26 1_555 1_555
H38 O24 1_555 1_555
H39 C27 1_555 1_555
H40 O25 1_555 1_555
H41 C28 1_555 1_555
H42 C29 1_555 1_555
H43 C30 1_555 1_555
H44 C30 1_555 1_555
H45 O30 1_555 1_555
H46 O30 1_555 1_555
H47 O31 1_555 1_555
H48 O31 1_555 1_555
H49 O32 1_555 1_555
H50 O32 1_555 1_555
O28B Cu2 1_555 1_555
Cu2B O28 1_555 1_555
P2 O18 1_555 1_555
N5 C5 1_555 1_555
C3 C4 1_555 1_555
C9 O2 1_555 1_555
N10 C15 1_555 1_555
C12 C13 1_555 1_555
C13 C14 1_555 1_555
C19 O13 1_555 1_555
N15 C25 1_555 1_555
C22 C23 1_555 1_555
C23 C24 1_555 1_555
C29 O23 1_555 1_555

#END
