
#######################################################################
#
#                 Cambridge Crystallographic Data Centre
#                                CCDC 
#
#######################################################################
#
# If this CIF has been generated from an entry in the Cambridge 
# Structural Database, then it will include bibliographic, chemical, 
# crystal, experimental, refinement or atomic coordinate data resulting 
# from the CCDC's data processing and validation procedures.
#
#######################################################################

data_CUGMPP02
_symmetry_cell_setting           orthorhombic
_symmetry_space_group_name_H-M   'P 21 21 2'
_symmetry_Int_Tables_number      18
_space_group_name_Hall           'P 2 2ab'
loop_
_symmetry_equiv_pos_site_id
_symmetry_equiv_pos_as_xyz
1 x,y,z
2 1/2+x,1/2-y,-z
3 1/2-x,1/2+y,-z
4 -x,-y,z
_cell_length_a                   20.758(5)
_cell_length_b                   23.370(5)
_cell_length_c                   11.345(3)
_cell_angle_alpha                90
_cell_angle_beta                 90
_cell_angle_gamma                90
_cell_volume                     5503.62
loop_
_atom_site_label
_atom_site_type_symbol
_atom_site_fract_x
_atom_site_fract_y
_atom_site_fract_z
Cu1 Cu -0.20040 -0.37220 -0.68400
P1 P -0.26880 -0.23060 -0.31450
O1 O -0.27340 -0.37820 -0.79510
O2 O -0.16160 -0.42860 -0.78970
O3 O -0.23940 -0.30110 -0.61260
O4 O -0.32190 -0.18800 -0.34970
O5 O -0.21880 -0.23900 -0.40640
O6 O -0.24220 -0.21520 -0.20040
O7 O -0.33330 -0.40410 -0.23390
O8 O -0.25740 -0.45780 -0.02750
O9 O -0.23170 -0.34500 -0.01290
O10 O -0.30400 -0.29250 -0.30210
O11 O -0.21930 -0.52910 -0.71720
N1 N -0.24360 -0.58590 -0.56740
N2 N -0.26610 -0.65330 -0.42130
N3 N -0.26970 -0.55460 -0.36510
N4 N -0.23190 -0.42860 -0.54000
N5 N -0.26160 -0.45270 -0.34800
C1 C -0.28430 -0.44590 -0.22530
C2 C -0.23870 -0.43180 -0.13820
C3 C -0.24770 -0.36640 -0.12550
C4 C -0.31910 -0.36040 -0.13780
C5 C -0.33790 -0.30420 -0.19910
C6 C -0.26050 -0.59750 -0.45170
C7 C -0.25580 -0.50310 -0.41610
C8 C -0.24420 -0.49160 -0.52960
C9 C -0.23070 -0.53190 -0.60930
C10 C -0.24590 -0.40810 -0.43430
Cu2 Cu 0.08810 -0.32660 -0.65060
P2 P 0.09350 -0.19740 -0.28580
O12 O 0.09920 -0.38830 -0.76980
O13 O 0.06910 -0.25510 -0.55810
O14 O 0.02270 -0.21130 -0.31290
O15 O 0.13280 -0.20560 -0.39200
O16 O 0.10470 -0.13870 -0.22740
O17 O 0.07340 -0.35610 -0.12140
O18 O 0.23590 -0.40100 -0.14160
O19 O 0.18870 -0.35920 0.06410
O20 O 0.12080 -0.24650 -0.19800
O21 O 0.07340 -0.48720 -0.65720
N6 N 0.07950 -0.53950 -0.48590
N7 N 0.08190 -0.60330 -0.32950
N8 N 0.09170 -0.50570 -0.29460
N9 N 0.09280 -0.38290 -0.48560
N10 N 0.10540 -0.40350 -0.28990
C11 C 0.11930 -0.39500 -0.16880
C12 C 0.18920 -0.36310 -0.14930
C13 C 0.17370 -0.32940 -0.03950
C14 C 0.10510 -0.31670 -0.04840
C15 C 0.09080 -0.25580 -0.09170
C16 C 0.08320 -0.54990 -0.37720
C17 C 0.09730 -0.45450 -0.35000
C18 C 0.08780 -0.44160 -0.46610
C19 C 0.07880 -0.48870 -0.54510
C20 C 0.10350 -0.36520 -0.37930
Cu3 Cu -0.05630 -0.17490 -0.25790
P3 P -0.06050 -0.31290 -0.61390
O22 O -0.13490 -0.15540 -0.17180
O23 O -0.01360 -0.11880 -0.15250
O24 O -0.09990 -0.24230 -0.31680
O25 O -0.11660 -0.35830 -0.62040
O26 O -0.04220 -0.30020 -0.49040
O27 O -0.00530 -0.33160 -0.69320
O28 O -0.12570 -0.14670 -0.74690
O29 O -0.02870 -0.07430 -0.90200
O30 O 0.01540 -0.18100 -0.91280
O31 O -0.08940 -0.25320 -0.66170
O32 O -0.07320 -0.01850 -0.22120
N11 N -0.09070 0.04110 -0.37930
N12 N -0.10330 0.10720 -0.53120
N13 N -0.08710 0.01260 -0.58070
N14 N -0.06940 -0.11700 -0.40720
N15 N -0.07750 -0.09160 -0.59790
C21 C -0.08280 -0.09640 -0.72510
C22 C -0.02140 -0.09980 -0.79430
C23 C -0.02050 -0.17060 -0.80650
C24 C -0.08980 -0.18470 -0.82270
C25 C -0.10290 -0.24810 -0.78540
C26 C -0.09570 0.05170 -0.49610
C27 C -0.08140 -0.04100 -0.53420
C28 C -0.07950 -0.05710 -0.41460
C29 C -0.07920 -0.01540 -0.32630
C30 C -0.06990 -0.13420 -0.51780
H1 H -0.24300 -0.62700 -0.59500
H2 H -0.29400 -0.66400 -0.37200
H3 H -0.26100 -0.67100 -0.49200
H4 H -0.22800 -0.37300 -0.40700
H5 H -0.30600 -0.47300 -0.26400
H6 H -0.19500 -0.43300 -0.15400
H7 H -0.20400 -0.34300 -0.19300
H8 H -0.32700 -0.38600 -0.06200
H9 H -0.38600 -0.29900 -0.21000
H10 H -0.33000 -0.27900 -0.11900
H11 H -0.27500 -0.50500 -0.02300
H12 H -0.19000 -0.31900 -0.01200
H13 H 0.08500 -0.57700 -0.53100
H14 H 0.11200 -0.62800 -0.40000
H15 H 0.12800 -0.61400 -0.25800
H16 H 0.13100 -0.33700 -0.36900
H17 H 0.20100 -0.35000 -0.21500
H18 H 0.21500 -0.30600 -0.10000
H19 H 0.07800 -0.31800 0.02500
H20 H 0.11300 -0.22800 -0.02900
H21 H 0.04500 -0.26700 -0.08600
H22 H 0.23800 -0.40000 -0.24800
H23 H 0.21500 -0.31800 0.07400
H24 H -0.11600 0.04300 -0.31600
H25 H -0.13000 0.13100 -0.46900
H26 H -0.13000 0.10000 -0.61200
H27 H -0.03900 -0.18100 -0.49700
H28 H -0.11000 -0.06700 -0.75600
H29 H 0.01100 -0.10000 -0.72800
H30 H 0.01500 -0.18800 -0.72600
H31 H -0.08800 -0.18800 -0.90500
H32 H -0.07800 -0.27500 -0.84900
H33 H -0.14100 -0.25700 -0.78500
H34 H -0.01000 -0.08400 -0.98900
H35 H 0.01900 -0.18100 -1.01600
O4A O 0.17810 -0.31200 -0.65030
Cu2A Cu -0.41190 -0.17340 -0.34940
O33 O 0.67840 0.43150 -0.95300
O34 O 0.03580 0.41400 -0.84980
O35 O 0.41520 0.46790 -1.00440
O36 O 0.55520 0.12470 -0.93310
O37 O 0.62240 0.21950 -0.94330
loop_
_geom_bond_atom_site_label_1
_geom_bond_atom_site_label_2
_geom_bond_site_symmetry_1
_geom_bond_site_symmetry_2
Cu1 O1 1_555 1_555
P1 O4 1_555 1_555
O2 Cu1 1_555 1_555
O3 Cu1 1_555 1_555
O4 Cu2A 1_555 1_555
O5 P1 1_555 1_555
O6 P1 1_555 1_555
O7 C1 1_555 1_555
O8 C2 1_555 1_555
O9 C3 1_555 1_555
O10 P1 1_555 1_555
O11 C9 1_555 1_555
N1 C6 1_555 1_555
N2 C6 1_555 1_555
N3 C6 1_555 1_555
N4 Cu1 1_555 1_555
N5 C1 1_555 1_555
C1 C2 1_555 1_555
C2 C3 1_555 1_555
C3 C4 1_555 1_555
C4 O7 1_555 1_555
C5 O10 1_555 1_555
C7 N3 1_555 1_555
C8 N4 1_555 1_555
C9 N1 1_555 1_555
C10 N4 1_555 1_555
Cu2 O12 1_555 1_555
P2 O14 1_555 1_555
O13 Cu2 1_555 1_555
O14 Cu3 1_555 1_555
O15 P2 1_555 1_555
O16 P2 1_555 1_555
O17 C11 1_555 1_555
O18 C12 1_555 1_555
O19 C13 1_555 1_555
O20 P2 1_555 1_555
O21 C19 1_555 1_555
N6 C16 1_555 1_555
N7 C16 1_555 1_555
N8 C16 1_555 1_555
N9 Cu2 1_555 1_555
N10 C11 1_555 1_555
C11 C12 1_555 1_555
C12 C13 1_555 1_555
C13 C14 1_555 1_555
C14 O17 1_555 1_555
C15 O20 1_555 1_555
C17 N8 1_555 1_555
C18 N9 1_555 1_555
C19 N6 1_555 1_555
C20 N9 1_555 1_555
Cu3 O22 1_555 1_555
P3 O25 1_555 1_555
O23 Cu3 1_555 1_555
O24 Cu3 1_555 1_555
O25 Cu1 1_555 1_555
O26 P3 1_555 1_555
O27 Cu2 1_555 1_555
O28 C21 1_555 1_555
O29 C22 1_555 1_555
O30 C23 1_555 1_555
O31 P3 1_555 1_555
O32 C29 1_555 1_555
N11 C26 1_555 1_555
N12 C26 1_555 1_555
N13 C26 1_555 1_555
N14 Cu3 1_555 1_555
N15 C21 1_555 1_555
C21 C22 1_555 1_555
C22 C23 1_555 1_555
C23 C24 1_555 1_555
C24 O28 1_555 1_555
C25 O31 1_555 1_555
C27 N13 1_555 1_555
C28 N14 1_555 1_555
C29 N11 1_555 1_555
C30 N14 1_555 1_555
H1 N1 1_555 1_555
H2 N2 1_555 1_555
H3 N2 1_555 1_555
H4 C10 1_555 1_555
H5 C1 1_555 1_555
H6 C2 1_555 1_555
H7 C3 1_555 1_555
H8 C4 1_555 1_555
H9 C5 1_555 1_555
H10 C5 1_555 1_555
H11 O8 1_555 1_555
H12 O9 1_555 1_555
H13 N6 1_555 1_555
H14 N7 1_555 1_555
H15 N7 1_555 1_555
H16 C20 1_555 1_555
H17 C12 1_555 1_555
H18 C13 1_555 1_555
H19 C14 1_555 1_555
H20 C15 1_555 1_555
H21 C15 1_555 1_555
H22 O18 1_555 1_555
H23 O19 1_555 1_555
H24 N11 1_555 1_555
H25 N12 1_555 1_555
H26 N12 1_555 1_555
H27 C30 1_555 1_555
H28 C21 1_555 1_555
H29 C22 1_555 1_555
H30 C23 1_555 1_555
H31 C24 1_555 1_555
H32 C25 1_555 1_555
H33 C25 1_555 1_555
H34 O29 1_555 1_555
H35 O30 1_555 1_555
O4A Cu2 1_555 1_555
N5 C7 1_555 1_555
N5 C10 1_555 1_555
C4 C5 1_555 1_555
C7 C8 1_555 1_555
C8 C9 1_555 1_555
N10 C17 1_555 1_555
N10 C20 1_555 1_555
C14 C15 1_555 1_555
C17 C18 1_555 1_555
C18 C19 1_555 1_555
P3 O27 1_555 1_555
N15 C27 1_555 1_555
N15 C30 1_555 1_555
C24 C25 1_555 1_555
C27 C28 1_555 1_555
C28 C29 1_555 1_555

#END
