
#######################################################################
#
#                 Cambridge Crystallographic Data Centre
#                                CCDC 
#
#######################################################################
#
# If this CIF has been generated from an entry in the Cambridge 
# Structural Database, then it will include bibliographic, chemical, 
# crystal, experimental, refinement or atomic coordinate data resulting 
# from the CCDC's data processing and validation procedures.
#
#######################################################################

data_CUGQUR
_symmetry_cell_setting           monoclinic
_symmetry_space_group_name_H-M   'P 21/c'
_symmetry_Int_Tables_number      14
_space_group_name_Hall           '-P 2ybc'
loop_
_symmetry_equiv_pos_site_id
_symmetry_equiv_pos_as_xyz
1 x,y,z
2 -x,1/2+y,1/2-z
3 -x,-y,-z
4 x,1/2-y,1/2+z
_cell_length_a                   8.328(2)
_cell_length_b                   10.116(3)
_cell_length_c                   7.2451(19)
_cell_angle_alpha                90
_cell_angle_beta                 91.338(4)
_cell_angle_gamma                90
_cell_volume                     610.205
loop_
_atom_site_label
_atom_site_type_symbol
_atom_site_fract_x
_atom_site_fract_y
_atom_site_fract_z
Ba1 Ba 0.25957(3) -0.60635(3) 0.10185(3)
O1 O 0.2156(5) -0.3341(4) 0.1710(7)
O2 O -0.0286(4) -0.2784(3) 0.2617(6)
O3 O 0.0623(4) -0.0289(3) 0.3030(5)
H1 H 0.042(7) 0.049(3) 0.269(8)
O4 O 0.3980(5) -0.1010(3) 0.3469(6)
H2 H 0.360(8) -0.165(5) 0.405(8)
O5 O 0.3051(6) 0.1085(4) -0.0354(5)
O6 O 0.3921(5) 0.1483(4) 0.2535(5)
C1 C 0.1089(6) -0.2526(4) 0.2061(6)
C2 C 0.1440(6) -0.1057(4) 0.1706(7)
H3 H 0.101(8) -0.085(5) 0.040(9)
C3 C 0.3232(5) -0.0748(5) 0.1713(7)
H4 H 0.379(8) -0.131(6) 0.079(9)
C4 C 0.3446(5) 0.0720(5) 0.1280(6)
Ba1A Ba -0.25957(3) -0.10635(3) 0.39815(3)
Ba1_2 Ba 0.25957(3) 0.39365(3) 0.10185(3)
Ba1C Ba 0.25957(3) 0.10635(3) -0.39815(3)
Ba1A_2 Ba 0.74043(3) -0.10635(3) 0.39815(3)
Ba1C_2 Ba 0.25957(3) 0.10635(3) 0.60185(3)
O2A O 0.0286(4) -0.7784(3) 0.2383(6)
O3C O 0.0623(4) -0.4711(3) -0.1970(5)
O3A O -0.0623(4) -0.5289(3) 0.1970(5)
H1C H 0.042(7) -0.549(3) -0.231(8)
H1A H -0.042(7) -0.451(3) 0.231(8)
O4C O 0.3980(5) -0.3990(3) -0.1531(6)
O4A O 0.6020(5) -0.6010(3) 0.1531(6)
H2C H 0.360(8) -0.335(5) -0.095(8)
H2A H 0.640(8) -0.665(5) 0.095(8)
O5C O 0.3051(6) -0.6085(4) 0.4646(5)
O5_2 O 0.3051(6) -0.8915(4) -0.0354(5)
O6C O 0.3921(5) -0.6483(4) -0.2465(5)
O6_2 O 0.3921(5) -0.8517(4) 0.2535(5)
loop_
_geom_bond_atom_site_label_1
_geom_bond_atom_site_label_2
_geom_bond_site_symmetry_1
_geom_bond_site_symmetry_2
Ba1 O1 1_555 1_555
O1 C1 1_555 1_555
O2 C1 1_555 1_555
O3 H1 1_555 1_555
O4 H2 1_555 1_555
O5 C4 1_555 1_555
O6 C4 1_555 1_555
C1 C2 1_555 1_555
C2 O3 1_555 1_555
H3 C2 1_555 1_555
C3 O4 1_555 1_555
H4 C3 1_555 1_555
C4 C3 1_555 1_555
Ba1A O2 1_555 1_555
Ba1_2 O5 1_555 1_555
Ba1C O5 1_555 1_555
Ba1A_2 O4 1_555 1_555
Ba1C_2 O3 1_555 1_555
O2A Ba1 1_555 1_555
O3C Ba1 1_555 1_555
O3A Ba1 1_555 1_555
H1C O3C 1_555 1_555
H1A O3A 1_555 1_555
O4C Ba1 1_555 1_555
O4A Ba1 1_555 1_555
H2C O4C 1_555 1_555
H2A O4A 1_555 1_555
O5C Ba1 1_555 1_555
O5_2 Ba1 1_555 1_555
O6C Ba1 1_555 1_555
O6_2 Ba1 1_555 1_555
O3 Ba1A 1_555 1_555
O4 Ba1C_2 1_555 1_555
O6 Ba1_2 1_555 1_555
O6 Ba1C_2 1_555 1_555
C2 C3 1_555 1_555

#END
