
#######################################################################
#
#                 Cambridge Crystallographic Data Centre
#                                CCDC 
#
#######################################################################
#
# If this CIF has been generated from an entry in the Cambridge 
# Structural Database, then it will include bibliographic, chemical, 
# crystal, experimental, refinement or atomic coordinate data resulting 
# from the CCDC's data processing and validation procedures.
#
#######################################################################

data_CUGRUS
_symmetry_cell_setting           triclinic
_symmetry_space_group_name_H-M   'P -1'
_symmetry_Int_Tables_number      2
_space_group_name_Hall           '-P 1'
loop_
_symmetry_equiv_pos_site_id
_symmetry_equiv_pos_as_xyz
1 x,y,z
2 -x,-y,-z
_cell_length_a                   6.4031(6)
_cell_length_b                   8.4315(8)
_cell_length_c                   10.4933(10)
_cell_angle_alpha                95.196(2)
_cell_angle_beta                 106.402(2)
_cell_angle_gamma                107.052(2)
_cell_volume                     510.197
loop_
_atom_site_label
_atom_site_type_symbol
_atom_site_fract_x
_atom_site_fract_y
_atom_site_fract_z
Sr1 Sr 0.16013(5) 0.30389(4) 0.22554(3)
O1 O -0.1110(4) 0.1856(3) -0.0171(3)
H1 H -0.198(6) 0.089(3) -0.048(4)
H2 H -0.196(6) 0.238(4) -0.043(4)
O2 O -0.1988(4) 0.1142(3) 0.2728(3)
H3 H -0.252(7) 0.015(3) 0.245(4)
H4 H -0.200(7) 0.127(5) 0.348(2)
O3 O 0.3204(4) 0.1356(4) 0.4017(3)
H5 H 0.265(7) 0.043(3) 0.415(5)
H6 H 0.454(4) 0.152(6) 0.433(4)
O4 O 0.3739(4) 0.1490(3) 0.1090(2)
H7 H 0.494(4) 0.150(6) 0.157(4)
H8 H 0.398(7) 0.179(5) 0.043(3)
O5 O 0.1799(4) 0.5291(3) 0.4108(2)
O6 O 0.1986(4) 0.7971(3) 0.4630(2)
O7 O -0.1185(4) 0.4830(3) 0.1689(2)
H9 H -0.159(6) 0.492(5) 0.101(4)
O8 O -0.4032(4) 0.4742(3) 0.3316(2)
H10 H -0.337(6) 0.474(5) 0.404(4)
O9 O -0.6603(4) 0.5297(3) 0.1062(2)
O10 O -0.4228(4) 0.7907(3) 0.1338(2)
C1 C 0.1152(5) 0.6530(4) 0.3882(3)
C2 C -0.0837(5) 0.6326(4) 0.2584(3)
H11 H -0.043(5) 0.725(5) 0.220(3)
C3 C -0.3036(5) 0.6271(4) 0.2920(3)
H12 H -0.257(5) 0.714(4) 0.367(3)
C4 C -0.4782(5) 0.6504(4) 0.1675(3)
Sr1_2 Sr -0.83987(5) 0.30389(4) 0.22554(3)
O8_2 O 0.5968(4) 0.4742(3) 0.3316(2)
O9_2 O 0.3397(4) 0.5297(3) 0.1062(2)
loop_
_geom_bond_atom_site_label_1
_geom_bond_atom_site_label_2
_geom_bond_site_symmetry_1
_geom_bond_site_symmetry_2
Sr1 O1 1_555 1_555
O1 H1 1_555 1_555
H2 O1 1_555 1_555
O2 Sr1 1_555 1_555
H3 O2 1_555 1_555
H4 O2 1_555 1_555
O3 Sr1 1_555 1_555
H5 O3 1_555 1_555
H6 O3 1_555 1_555
O4 Sr1 1_555 1_555
H7 O4 1_555 1_555
H8 O4 1_555 1_555
O5 Sr1 1_555 1_555
O6 C1 1_555 1_555
O7 Sr1 1_555 1_555
H9 O7 1_555 1_555
O8 H10 1_555 1_555
O9 C4 1_555 1_555
O10 C4 1_555 1_555
C1 O5 1_555 1_555
C2 O7 1_555 1_555
H11 C2 1_555 1_555
C3 O8 1_555 1_555
H12 C3 1_555 1_555
C4 C3 1_555 1_555
Sr1_2 O8 1_555 1_555
O8_2 Sr1 1_555 1_555
O9_2 Sr1 1_555 1_555
O9 Sr1_2 1_555 1_555
C1 C2 1_555 1_555
C2 C3 1_555 1_555

#END
