
#######################################################################
#
#                 Cambridge Crystallographic Data Centre
#                                CCDC 
#
#######################################################################
#
# If this CIF has been generated from an entry in the Cambridge 
# Structural Database, then it will include bibliographic, chemical, 
# crystal, experimental, refinement or atomic coordinate data resulting 
# from the CCDC's data processing and validation procedures.
#
#######################################################################

data_CUGSIH
_symmetry_cell_setting           monoclinic
_symmetry_space_group_name_H-M   'C 2/c'
_symmetry_Int_Tables_number      15
_space_group_name_Hall           '-C 2yn'
loop_
_symmetry_equiv_pos_site_id
_symmetry_equiv_pos_as_xyz
1 x,y,z
2 -x,y,1/2-z
3 1/2+x,1/2+y,z
4 1/2-x,1/2+y,1/2-z
5 -x,-y,-z
6 x,-y,1/2+z
7 1/2-x,1/2-y,-z
8 1/2+x,1/2-y,1/2+z
_cell_length_a                   18.306(3)
_cell_length_b                   8.0984(13)
_cell_length_c                   9.6058(15)
_cell_angle_alpha                90
_cell_angle_beta                 121.334(3)
_cell_angle_gamma                90
_cell_volume                     1216.36
loop_
_atom_site_label
_atom_site_type_symbol
_atom_site_fract_x
_atom_site_fract_y
_atom_site_fract_z
Sr1 Sr 0.62442(4) 0.26374(7) 0.79420(7)
C1 C 0.4702(4) 0.1972(8) 0.4622(8)
C2 C 0.3856(4) 0.1540(8) 0.3096(8)
H1 H 0.353(4) 0.096(7) 0.340(8)
C3 C 0.3353(4) 0.3108(8) 0.2270(8)
H2 H 0.282(5) 0.278(8) 0.140(8)
C4 C 0.3126(4) 0.4064(8) 0.3364(8)
O1 O 0.3932(3) 0.0530(6) 0.1974(6)
H3 H 0.406(5) 0.098(9) 0.147(9)
O2 O 0.4649(3) 0.2620(6) 0.5742(5)
O3 O 0.5404(3) 0.1659(6) 0.4738(6)
O4 O 0.3824(3) 0.4171(6) 0.1839(6)
H4 H 0.370(5) 0.394(9) 0.094(4)
O5 O 0.3309(3) 0.5555(5) 0.3614(6)
O6 O 0.2755(3) 0.3273(6) 0.3944(5)
Sr1A Sr 0.37558(4) 0.26374(7) 0.70580(7)
Sr1D Sr 0.37558(4) -0.26374(7) 0.20580(7)
Sr1G Sr 0.12442(4) 0.23626(7) 0.29420(7)
Sr1D_2 Sr 0.37558(4) 0.73626(7) 0.20580(7)
O1D O 0.6068(3) -0.0530(6) 0.8026(6)
H3D H 0.594(5) -0.098(9) 0.853(9)
O2A O 0.5351(3) 0.2620(6) 0.9258(5)
O4D O 0.6176(3) 0.5829(6) 0.8161(6)
H4D H 0.630(5) 0.606(9) 0.906(4)
O5D O 0.6691(3) 0.4445(5) 0.6386(6)
O6A O 0.7245(3) 0.3273(6) 1.1056(5)
O6G O 0.7755(3) 0.1727(6) 0.8944(5)
loop_
_geom_bond_atom_site_label_1
_geom_bond_atom_site_label_2
_geom_bond_site_symmetry_1
_geom_bond_site_symmetry_2
Sr1 O2 1_555 1_555
C1 C2 1_555 1_555
C2 H1 1_555 1_555
C3 C2 1_555 1_555
H2 C3 1_555 1_555
C4 C3 1_555 1_555
O1 C2 1_555 1_555
H3 O1 1_555 1_555
O2 C1 1_555 1_555
O3 Sr1 1_555 1_555
O4 C3 1_555 1_555
H4 O4 1_555 1_555
O5 C4 1_555 1_555
O6 C4 1_555 1_555
Sr1A O2 1_555 1_555
Sr1D O1 1_555 1_555
Sr1G O6 1_555 1_555
Sr1D_2 O4 1_555 1_555
O1D Sr1 1_555 1_555
H3D O1D 1_555 1_555
O2A Sr1 1_555 1_555
O4D Sr1 1_555 1_555
H4D O4D 1_555 1_555
O5D Sr1 1_555 1_555
O6A Sr1 1_555 1_555
O6G Sr1 1_555 1_555
C1 O3 1_555 1_555
O5 Sr1D_2 1_555 1_555
O6 Sr1A 1_555 1_555
Sr1A O2A 1_555 1_555

#END
