
#######################################################################
#
#                 Cambridge Crystallographic Data Centre
#                                CCDC 
#
#######################################################################
#
# If this CIF has been generated from an entry in the Cambridge 
# Structural Database, then it will include bibliographic, chemical, 
# crystal, experimental, refinement or atomic coordinate data resulting 
# from the CCDC's data processing and validation procedures.
#
#######################################################################

data_CUGSON
_symmetry_cell_setting           orthorhombic
_symmetry_space_group_name_H-M   'C 2 2 21'
_symmetry_Int_Tables_number      20
_space_group_name_Hall           'C 2n 2'
loop_
_symmetry_equiv_pos_site_id
_symmetry_equiv_pos_as_xyz
1 x,y,z
2 -x,-y,1/2+z
3 -x,y,1/2-z
4 x,-y,-z
5 1/2+x,1/2+y,z
6 1/2-x,1/2-y,1/2+z
7 1/2-x,1/2+y,1/2-z
8 1/2+x,1/2-y,-z
_cell_length_a                   7.8865(10)
_cell_length_b                   10.0448(10)
_cell_length_c                   7.5186(8)
_cell_angle_alpha                90
_cell_angle_beta                 90
_cell_angle_gamma                90
_cell_volume                     595.611
loop_
_atom_site_label
_atom_site_type_symbol
_atom_site_fract_x
_atom_site_fract_y
_atom_site_fract_z
Sr1 Sr -0.5000 -0.58750(3) -0.2500
O1 O -0.1972(4) -0.2865(3) -0.2952(4)
O2 O -0.4313(4) -0.3657(3) -0.4231(4)
O3 O -0.3099(4) -0.0431(3) -0.3010(4)
C1 C -0.3460(5) -0.2751(4) -0.3494(4)
C2 C -0.4355(5) -0.1425(4) -0.3274(5)
H1 H -0.517(6) -0.124(4) -0.437(6)
H2 H -0.352(6) 0.029(3) -0.275(8)
Sr1D Sr 0.0000 -0.08750(3) -0.2500
Sr1A Sr -0.5000 -0.41250(3) -0.7500
Sr1D_2 Sr -1.0000 -0.08750(3) -0.2500
Sr1A_2 Sr -0.5000 -0.41250(3) 0.2500
O1D O -0.6972(4) -0.7865(3) -0.2952(4)
O1F O -0.3028(4) -0.7865(3) -0.2048(4)
O1B O -0.8028(4) -0.2865(3) -0.2048(4)
O2C O -0.4313(4) -0.6343(3) -0.5769(4)
O2A O -0.5687(4) -0.6343(3) 0.0769(4)
O2B O -0.5687(4) -0.3657(3) -0.0769(4)
O3B O -0.6901(4) -0.0431(3) -0.1990(4)
O3D O -0.8099(4) -0.5431(3) -0.3010(4)
O3F O -0.1901(4) -0.5431(3) -0.1990(4)
C1B C -0.6540(5) -0.2751(4) -0.1506(4)
C2B C -0.5645(5) -0.1425(4) -0.1726(5)
H1B H -0.483(6) -0.124(4) -0.063(6)
H2B H -0.648(6) 0.029(3) -0.225(8)
H2D H -0.852(6) -0.471(3) -0.275(8)
H2F H -0.148(6) -0.471(3) -0.225(8)
loop_
_geom_bond_atom_site_label_1
_geom_bond_atom_site_label_2
_geom_bond_site_symmetry_1
_geom_bond_site_symmetry_2
Sr1 O2 1_555 1_555
O1 C1 1_555 1_555
O2 C1 1_555 1_555
O3 C2 1_555 1_555
C1 C2 1_555 1_555
C2 H1 1_555 1_555
H2 O3 1_555 1_555
Sr1D O1 1_555 1_555
Sr1A O2 1_555 1_555
Sr1D_2 O1B 1_555 1_555
Sr1A_2 O2A 1_555 1_555
O1D Sr1 1_555 1_555
O1F Sr1 1_555 1_555
O1B C1B 1_555 1_555
O2C Sr1 1_555 1_555
O2A Sr1 1_555 1_555
O2B Sr1 1_555 1_555
O3B Sr1D_2 1_555 1_555
O3D Sr1 1_555 1_555
O3F Sr1 1_555 1_555
C1B O2B 1_555 1_555
C2B C2 1_555 1_555
H1B C2B 1_555 1_555
H2B O3B 1_555 1_555
H2D O3D 1_555 1_555
H2F O3F 1_555 1_555
O3 Sr1D 1_555 1_555
Sr1A O2C 1_555 1_555
Sr1A_2 O2B 1_555 1_555
O3B C2B 1_555 1_555
C1B C2B 1_555 1_555

#END
