
#######################################################################
#
#                 Cambridge Crystallographic Data Centre
#                                CCDC 
#
#######################################################################
#
# If this CIF has been generated from an entry in the Cambridge 
# Structural Database, then it will include bibliographic, chemical, 
# crystal, experimental, refinement or atomic coordinate data resulting 
# from the CCDC's data processing and validation procedures.
#
#######################################################################

data_CUGSUT
_symmetry_cell_setting           monoclinic
_symmetry_space_group_name_H-M   'P 21'
_symmetry_Int_Tables_number      4
_space_group_name_Hall           'P 2yb'
loop_
_symmetry_equiv_pos_site_id
_symmetry_equiv_pos_as_xyz
1 x,y,z
2 -x,1/2+y,-z
_cell_length_a                   6.6143(5)
_cell_length_b                   7.1191(5)
_cell_length_c                   7.8433(6)
_cell_angle_alpha                90
_cell_angle_beta                 98.334(2)
_cell_angle_gamma                90
_cell_volume                     365.424
loop_
_atom_site_label
_atom_site_type_symbol
_atom_site_fract_x
_atom_site_fract_y
_atom_site_fract_z
Sr1 Sr 0.10206(6) 0.24969(12) 0.11156(6)
C1 C 0.1473(8) -0.2530(14) 0.2478(7)
C2 C 0.2877(10) -0.2711(13) 0.4222(9)
H1 H 0.4250 -0.2278 0.4081
C3 C 0.2123(10) -0.1572(9) 0.5621(9)
H2 H 0.2186 -0.0229 0.5360
C4 C 0.3543(11) -0.2028(9) 0.7314(9)
O1 O 0.1112(10) -0.0932(7) 0.1872(10)
O2 O 0.0838(9) -0.4022(7) 0.1697(10)
O3 O 0.3008(8) -0.4635(7) 0.4832(7)
H3 H 0.3420 -0.5308 0.4107
O4 O 0.0068(7) -0.2104(7) 0.5780(7)
H4 H -0.048(13) -0.129(9) 0.517(10)
O5 O 0.5406(8) -0.1833(8) 0.7266(7)
O6 O 0.2786(7) -0.2538(13) 0.8588(6)
O7 O 0.3600(10) 0.2950(14) -0.1126(8)
H5 H 0.479(5) 0.314(16) -0.090(17)
H6 H 0.303(15) 0.387(10) -0.153(18)
Sr1_2 Sr 0.10206(6) -0.75031(12) 0.11156(6)
Sr1A Sr -0.10206(6) -0.25031(12) -0.11156(6)
Sr1A_2 Sr -0.10206(6) -0.25031(12) 0.88844(6)
Sr1A_3 Sr 0.89794(6) -0.25031(12) 0.88844(6)
O1A O -0.1112(10) 0.4068(7) -0.1872(10)
O2_2 O 0.0838(9) 0.5978(7) 0.1697(10)
O2A O -0.0838(9) 0.0978(7) -0.1697(10)
O4A O -0.0068(7) 0.2896(7) 0.4220(7)
H4A H 0.048(13) 0.371(9) 0.483(10)
O5A O 0.4594(8) 0.3167(8) 0.2734(7)
O6A O -0.2786(7) 0.2462(13) 0.1412(6)
loop_
_geom_bond_atom_site_label_1
_geom_bond_atom_site_label_2
_geom_bond_site_symmetry_1
_geom_bond_site_symmetry_2
Sr1 O1 1_555 1_555
C1 C2 1_555 1_555
C2 H1 1_555 1_555
C3 C2 1_555 1_555
H2 C3 1_555 1_555
C4 C3 1_555 1_555
O1 C1 1_555 1_555
O2 C1 1_555 1_555
O3 C2 1_555 1_555
H3 O3 1_555 1_555
O4 C3 1_555 1_555
H4 O4 1_555 1_555
O5 C4 1_555 1_555
O6 C4 1_555 1_555
O7 Sr1 1_555 1_555
H5 O7 1_555 1_555
H6 O7 1_555 1_555
Sr1_2 O2 1_555 1_555
Sr1A O1 1_555 1_555
Sr1A_2 O4 1_555 1_555
Sr1A_3 O5 1_555 1_555
O1A Sr1 1_555 1_555
O2_2 Sr1 1_555 1_555
O2A Sr1 1_555 1_555
O4A Sr1 1_555 1_555
H4A O4A 1_555 1_555
O5A Sr1 1_555 1_555
O6A Sr1 1_555 1_555
O2 Sr1A 1_555 1_555
O6 Sr1A_2 1_555 1_555
Sr1A O2A 1_555 1_555

#END
