
#######################################################################
#
#                 Cambridge Crystallographic Data Centre
#                                CCDC 
#
#######################################################################
#
# If this CIF has been generated from an entry in the Cambridge 
# Structural Database, then it will include bibliographic, chemical, 
# crystal, experimental, refinement or atomic coordinate data resulting 
# from the CCDC's data processing and validation procedures.
#
#######################################################################

data_CUGVOQ
_symmetry_cell_setting           triclinic
_symmetry_space_group_name_H-M   'P 1'
_symmetry_Int_Tables_number      1
_space_group_name_Hall           'P 1'
loop_
_symmetry_equiv_pos_site_id
_symmetry_equiv_pos_as_xyz
1 x,y,z
_cell_length_a                   14.000(2)
_cell_length_b                   14.1403(11)
_cell_length_c                   14.868(3)
_cell_angle_alpha                116.613(4)
_cell_angle_beta                 103.801(3)
_cell_angle_gamma                99.856(3)
_cell_volume                     2420.95
loop_
_atom_site_label
_atom_site_type_symbol
_atom_site_fract_x
_atom_site_fract_y
_atom_site_fract_z
B1 B 0.9372(7) 0.8491(8) 0.7752(7)
H1 H 1.0107 0.8906 0.8196
B2 B 0.0963(7) 1.0372(7) 0.2737(7)
H2 H 0.0242 0.9916 0.2264
C1 C 0.8313(6) 0.5684(7) 0.6754(7)
H3 H 0.7761 0.5027 0.6278
C2 C 0.9198(6) 0.5665(7) 0.7226(6)
H4 H 0.9357 0.5066 0.7257
C3 C 0.9930(6) 0.6840(7) 0.7722(7)
H5 H 1.0651 0.7098 0.8024
C4 C 0.7369(5) 0.9073(6) 0.8611(6)
H6 H 0.6658 0.8853 0.8466
C5 C 0.8035(5) 0.9866(6) 0.9626(5)
H7 H 0.7904 1.0255 1.0255
C6 C 0.8992(5) 0.9922(6) 0.9438(6)
H8 H 0.9643 1.0354 0.9974
C7 C 0.8110(6) 0.7838(7) 0.5077(6)
H9 H 0.7526 0.7487 0.4451
C8 C 0.9104(6) 0.8405(6) 0.5268(6)
H10 H 0.9292 0.8429 0.4718
C9 C 0.9825(6) 0.8944(7) 0.6321(7)
H11 H 1.0518 0.9377 0.6604
C10 C 0.2118(6) 1.1055(8) 0.5557(7)
H12 H 0.2645 1.1387 0.6225
C11 C 0.1080(6) 1.0478(7) 0.5303(6)
H13 H 0.0811 1.0305 0.5746
C12 C 0.0524(6) 1.0212(7) 0.4252(6)
H14 H -0.0187 0.9862 0.3881
C13 C 0.3321(6) 0.9864(7) 0.2160(6)
H15 H 0.4019 0.9952 0.2264
C14 C 0.2412(6) 0.9093(6) 0.1298(6)
H16 H 0.2495 0.8546 0.0701
C15 C 0.1391(6) 0.9050(7) 0.1228(6)
H17 H 0.0738 0.8577 0.0715
C16 C 0.2279(6) 1.3506(7) 0.3818(6)
H18 H 0.2851 1.4145 0.4151
C17 C 0.1154(6) 1.3288(7) 0.3258(7)
H19 H 0.0862 1.3832 0.3259
C18 C 0.0607(6) 1.2150(7) 0.2735(6)
H20 H -0.0080 1.1821 0.2264
C19 C 0.7258(5) 0.5619(6) 0.8810(6)
H21 H 0.7506 0.5995 0.8453
C20 C 0.8082(5) 0.5146(6) 0.9136(6)
H22 H 0.7911 0.4808 0.9543
H23 H 0.8202 0.4608 0.8519
C21 C 0.8990(5) 0.6211(7) 0.9829(7)
H24 H 0.9076 0.6580 0.9425
H25 H 0.9621 0.6038 1.0031
C22 C 0.8807(5) 0.6992(6) 1.0850(6)
H26 H 0.8651 0.6590 1.1209
H27 H 0.9438 0.7617 1.1339
C23 C 0.7929(5) 0.7429(6) 1.0601(6)
H28 H 0.8135 0.7954 1.0377
H29 H 0.7764 0.7816 1.1242
C24 C 0.6967(5) 0.6447(6) 0.9697(5)
H30 H 0.6679 0.6050 1.0018
C25 C 0.3733(6) 0.6020(7) 0.9133(6)
H31 H 0.3995 0.6803 0.9338
C26 C 0.3236(6) 0.5815(8) 0.9882(6)
H32 H 0.3140 0.5055 0.9728
H33 H 0.3681 0.6321 1.0630
C27 C 0.2219(6) 0.6010(8) 0.9681(7)
H34 H 0.2350 0.6795 0.9914
H35 H 0.1900 0.5870 1.0141
C28 C 0.1424(6) 0.5333(6) 0.8532(7)
H36 H 0.1131 0.4568 0.8347
H37 H 0.0864 0.5648 0.8480
C29 C 0.1945(6) 0.5354(7) 0.7763(7)
H38 H 0.1995 0.6053 0.7775
H39 H 0.1502 0.4756 0.7041
C30 C 0.3016(5) 0.5235(7) 0.7975(6)
H40 H 0.2932 0.4473 0.7835
C31 C 0.7307(6) 1.1108(8) 0.7030(6)
H41 H 0.7425 1.0566 0.7248
C32 C 0.8180(6) 1.2168(7) 0.7825(6)
H42 H 0.8161 1.2415 0.8542
H43 H 0.8096 1.2743 0.7656
C33 C 0.9248(5) 1.2006(6) 0.7812(6)
H44 H 0.9805 1.2704 0.8318
H45 H 0.9356 1.1454 0.8009
C34 C 0.9226(6) 1.1613(7) 0.6676(6)
H46 H 0.9899 1.1554 0.6645
H47 H 0.9087 1.2157 0.6479
C35 C 0.8392(5) 1.0482(7) 0.5878(6)
H48 H 0.8516 0.9936 0.6078
H49 H 0.8408 1.0224 0.5159
C36 C 0.7324(5) 1.0619(7) 0.5898(6)
H50 H 0.7073 1.1002 0.5528
C37 C 0.2941(5) 0.8542(7) 0.4486(5)
H51 H 0.2736 0.9107 0.4348
C38 C 0.2070(5) 0.7856(5) 0.4600(5)
H52 H 0.2248 0.7260 0.4684
H53 H 0.1881 0.8316 0.5200
C39 C 0.1217(5) 0.7407(6) 0.3527(6)
H54 H 0.1168 0.8022 0.3411
H55 H 0.0561 0.7097 0.3561
C40 C 0.1380(5) 0.6514(5) 0.2571(5)
H56 H 0.0819 0.6280 0.1911
H57 H 0.1377 0.5868 0.2648
C41 C 0.2424(5) 0.6983(6) 0.2510(5)
H58 H 0.2319 0.7367 0.2112
H59 H 0.2653 0.6365 0.2111
C42 C 0.3287(5) 0.7794(7) 0.3618(6)
H60 H 0.3448 0.7280 0.3861
C43 C 0.7251(5) 0.3241(7) 0.2218(6)
H61 H 0.6734 0.2870 0.1488
C44 C 0.8183(5) 0.2775(6) 0.2127(6)
H62 H 0.8592 0.2925 0.2830
H63 H 0.7916 0.1972 0.1644
C45 C 0.8881(6) 0.3297(7) 0.1709(6)
H64 H 0.8523 0.3014 0.0950
H65 H 0.9509 0.3091 0.1784
C46 C 0.9167(5) 0.4578(6) 0.2340(6)
H66 H 0.9546 0.4864 0.3095
H67 H 0.9612 0.4897 0.2069
C47 C 0.8186(6) 0.4927(7) 0.2227(6)
H68 H 0.7807 0.4633 0.1470
H69 H 0.8386 0.5735 0.2591
C48 C 0.7469(5) 0.4508(6) 0.2700(6)
H70 H 0.7826 0.4881 0.3481
C49 C 0.3148(5) 0.2601(7) 0.1520(6)
H71 H 0.2980 0.2885 0.2177
C50 C 0.2177(5) 0.1739(7) 0.0592(6)
H72 H 0.1908 0.1160 0.0733
H73 H 0.2327 0.1395 -0.0064
C51 C 0.1383(6) 0.2326(7) 0.0469(6)
H74 H 0.0763 0.1774 -0.0138
H75 H 0.1197 0.2590 0.1107
C52 C 0.1686(5) 0.3304(7) 0.0303(6)
H76 H 0.1141 0.3645 0.0293
H77 H 0.1797 0.3055 -0.0375
C53 C 0.2693(6) 0.4147(7) 0.1249(7)
H78 H 0.2958 0.4745 0.1131
H79 H 0.2550 0.4471 0.1911
C54 C 0.3491(5) 0.3584(6) 0.1355(6)
H80 H 0.3664 0.3309 0.0701
C55 C 0.6199(5) 0.6474(8) 0.6762(6)
C56 C 0.6820(5) 0.5811(6) 0.4936(6)
C57 C 0.6144(6) 0.7919(6) 0.5876(5)
C58 C 0.4249(6) 1.1267(6) 0.4845(6)
C59 C 0.4320(6) 0.2454(6) 0.3779(6)
C60 C 0.3848(5) 0.3106(6) 0.5576(6)
Fe1 Fe 0.71872(11) 0.72366(13) 0.63838(11)
Fe2 Fe 0.33340(10) 1.17949(12) 0.42204(11)
N1 N 0.8193(5) 0.6809(6) 0.6998(5)
N2 N 0.9258(5) 0.7435(6) 0.7614(5)
N3 N 0.7746(5) 0.8607(6) 0.7817(5)
N4 N 0.8822(5) 0.9228(5) 0.8319(5)
N5 N 0.8202(5) 0.7923(5) 0.6027(5)
N6 N 0.9221(5) 0.8655(5) 0.6817(5)
N7 N 0.2233(5) 1.1050(5) 0.4657(5)
N8 N 0.1207(4) 1.0555(5) 0.3891(5)
N9 N 0.2798(5) 1.0477(5) 0.2834(5)
N10 N 0.1744(5) 0.9979(5) 0.2214(5)
N11 N 0.2196(4) 1.2400(5) 0.3676(5)
N12 N 0.1199(4) 1.1584(5) 0.2999(5)
N13 N 0.6314(4) 0.4683(5) 0.8009(4)
H81 H 0.6171 0.4193 0.8228
H82 H 0.6393 0.4325 0.7370
N14 N 0.6168(4) 0.6903(5) 0.9339(4)
H83 H 0.6438 0.7428 0.9203
H84 H 0.5870 0.7190 0.9830
N15 N 0.4527(4) 0.5443(5) 0.9123(5)
H85 H 0.4245 0.4745 0.8978
H86 H 0.5052 0.5819 0.9765
N16 N 0.3523(4) 0.5366(5) 0.7232(5)
H87 H 0.3516 0.6004 0.7238
H88 H 0.3198 0.4788 0.6553
N17 N 0.6231(4) 1.1103(5) 0.6954(5)
H89 H 0.6128 1.1719 0.6967
H90 H 0.6090 1.1064 0.7499
N18 N 0.6741(4) 0.9454(5) 0.5355(4)
H91 H 0.6981 0.9132 0.5724
H92 H 0.6748 0.9081 0.4683
N19 N 0.3832(4) 0.9074(5) 0.5543(4)
H93 H 0.3850 0.8589 0.5778
H94 H 0.3743 0.9681 0.6040
N20 N 0.4312(4) 0.8383(5) 0.3736(4)
H95 H 0.4240 0.8738 0.3364
H96 H 0.4633 0.7883 0.3453
N21 N 0.6739(5) 0.3037(5) 0.2873(5)
H97 H 0.7175 0.3404 0.3563
H98 H 0.6532 0.2303 0.2641
N22 N 0.6435(4) 0.4661(5) 0.2491(5)
H99 H 0.6169 0.4502 0.1807
H100 H 0.6494 0.5375 0.2933
N23 N 0.4030(4) 0.2188(5) 0.1698(5)
H101 H 0.4090 0.1754 0.1063
H102 H 0.3923 0.1775 0.2003
N24 N 0.4464(4) 0.4311(5) 0.2299(5)
H103 H 0.4287 0.4709 0.2866
H104 H 0.4811 0.4800 0.2164
N25 N 0.5729(5) 0.6140(5) 0.7130(5)
N26 N 0.6330(5) 0.5015(6) 0.4183(6)
N27 N 0.5529(4) 0.8189(5) 0.5514(4)
N28 N 0.4723(4) 1.0752(5) 0.5075(5)
N29 N 0.4894(5) 0.3002(6) 0.3628(5)
N30 N 0.4120(4) 0.3964(5) 0.6395(5)
Ni1 Ni 0.50733(10) 0.54050(11) 0.78709(10)
Ni2 Ni 0.52291(11) 0.95368(12) 0.53367(11)
Ni3 Ni 0.54535(10) 0.36066(12) 0.27519(11)
C59_2 C 0.4320(6) 1.2454(6) 0.3779(6)
C60_2 C 0.3848(5) 1.3106(6) 0.5576(6)
Fe2_2 Fe 0.33340(10) 0.17949(12) 0.42204(11)
Cl1 Cl 0.47613(17) 0.22343(18) 0.86242(17)
O6 O 0.4998(4) 0.1331(4) 0.8748(4)
O7 O 0.5200(4) 0.2360(4) 0.7919(3)
O8 O 0.3665(4) 0.1823(4) 0.8100(4)
O9 O 0.4954(4) 0.3236(4) 0.9524(4)
Cl2 Cl 0.70530(14) 0.03716(17) 0.27215(16)
O10 O 0.7823(3) -0.0058(4) 0.3024(4)
O11 O 0.7522(4) 0.1511(5) 0.3348(4)
O12 O 0.6778(4) -0.0106(5) 0.1579(4)
O13 O 0.6250(4) 0.0056(5) 0.2944(5)
Cl3 Cl 0.59187(17) 0.6931(2) 0.21319(18)
O14 O 0.5057(4) 0.6430(5) 0.2304(4)
O15 O 0.6714(4) 0.7793(4) 0.2955(3)
O16 O 0.5497(4) 0.7246(4) 0.1449(4)
O17 O 0.6251(3) 0.6099(4) 0.1520(4)
Cl4 Cl 0.46223(15) 0.91683(18) 0.93833(17)
O18 O 0.4336(4) 0.8733(4) 0.9967(4)
O19 O 0.3665(4) 0.8909(5) 0.8649(4)
O20 O 0.5101(3) 1.0279(4) 1.0049(4)
O21 O 0.5230(4) 0.8592(5) 0.8853(4)
O1 O -0.0005(9) 0.6067(11) 0.5177(10)
H105 H -0.0377 0.6106 0.4660
H106 H 0.0504 0.6668 0.5588
O2 O 0.2676(8) -0.0036(9) 0.7173(10)
H107 H 0.3052 -0.0185 0.7600
H108 H 0.2304 0.0320 0.7473
O3 O 1.0002(9) 0.3618(12) 0.5541(13)
H109 H 0.9398 0.3493 0.5570
H110 H 0.9974 0.3178 0.4909
O4 O 0.2498(8) 0.6389(11) 0.5945(8)
H111 H 0.2029 0.5863 0.5871
H112 H 0.2992 0.6156 0.5795
O5 O 0.6669(10) 0.2966(12) 0.5078(12)
H113 H 0.6810 0.2795 0.5563
H114 H 0.6417 0.2375 0.4461
loop_
_geom_bond_atom_site_label_1
_geom_bond_atom_site_label_2
_geom_bond_site_symmetry_1
_geom_bond_site_symmetry_2
B1 H1 1_555 1_555
B2 H2 1_555 1_555
C1 H3 1_555 1_555
C2 C1 1_555 1_555
H4 C2 1_555 1_555
C3 C2 1_555 1_555
H5 C3 1_555 1_555
C4 H6 1_555 1_555
C5 C4 1_555 1_555
H7 C5 1_555 1_555
C6 C5 1_555 1_555
H8 C6 1_555 1_555
C7 H9 1_555 1_555
C8 C7 1_555 1_555
H10 C8 1_555 1_555
C9 C8 1_555 1_555
H11 C9 1_555 1_555
C10 H12 1_555 1_555
C11 C10 1_555 1_555
H13 C11 1_555 1_555
C12 C11 1_555 1_555
H14 C12 1_555 1_555
C13 H15 1_555 1_555
C14 C13 1_555 1_555
H16 C14 1_555 1_555
C15 C14 1_555 1_555
H17 C15 1_555 1_555
C16 H18 1_555 1_555
C17 C16 1_555 1_555
H19 C17 1_555 1_555
C18 C17 1_555 1_555
H20 C18 1_555 1_555
C19 H21 1_555 1_555
C20 C19 1_555 1_555
H22 C20 1_555 1_555
H23 C20 1_555 1_555
C21 C20 1_555 1_555
H24 C21 1_555 1_555
H25 C21 1_555 1_555
C22 C21 1_555 1_555
H26 C22 1_555 1_555
H27 C22 1_555 1_555
C23 C22 1_555 1_555
H28 C23 1_555 1_555
H29 C23 1_555 1_555
C24 C19 1_555 1_555
H30 C24 1_555 1_555
C25 H31 1_555 1_555
C26 C25 1_555 1_555
H32 C26 1_555 1_555
H33 C26 1_555 1_555
C27 C26 1_555 1_555
H34 C27 1_555 1_555
H35 C27 1_555 1_555
C28 C27 1_555 1_555
H36 C28 1_555 1_555
H37 C28 1_555 1_555
C29 C28 1_555 1_555
H38 C29 1_555 1_555
H39 C29 1_555 1_555
C30 C25 1_555 1_555
H40 C30 1_555 1_555
C31 H41 1_555 1_555
C32 C31 1_555 1_555
H42 C32 1_555 1_555
H43 C32 1_555 1_555
C33 C32 1_555 1_555
H44 C33 1_555 1_555
H45 C33 1_555 1_555
C34 C33 1_555 1_555
H46 C34 1_555 1_555
H47 C34 1_555 1_555
C35 C34 1_555 1_555
H48 C35 1_555 1_555
H49 C35 1_555 1_555
C36 C31 1_555 1_555
H50 C36 1_555 1_555
C37 H51 1_555 1_555
C38 C37 1_555 1_555
H52 C38 1_555 1_555
H53 C38 1_555 1_555
C39 C38 1_555 1_555
H54 C39 1_555 1_555
H55 C39 1_555 1_555
C40 C39 1_555 1_555
H56 C40 1_555 1_555
H57 C40 1_555 1_555
C41 C40 1_555 1_555
H58 C41 1_555 1_555
H59 C41 1_555 1_555
C42 C37 1_555 1_555
H60 C42 1_555 1_555
C43 H61 1_555 1_555
C44 C43 1_555 1_555
H62 C44 1_555 1_555
H63 C44 1_555 1_555
C45 C44 1_555 1_555
H64 C45 1_555 1_555
H65 C45 1_555 1_555
C46 C45 1_555 1_555
H66 C46 1_555 1_555
H67 C46 1_555 1_555
C47 C46 1_555 1_555
H68 C47 1_555 1_555
H69 C47 1_555 1_555
C48 C43 1_555 1_555
H70 C48 1_555 1_555
C49 H71 1_555 1_555
C50 C49 1_555 1_555
H72 C50 1_555 1_555
H73 C50 1_555 1_555
C51 C50 1_555 1_555
H74 C51 1_555 1_555
H75 C51 1_555 1_555
C52 C51 1_555 1_555
H76 C52 1_555 1_555
H77 C52 1_555 1_555
C53 C52 1_555 1_555
H78 C53 1_555 1_555
H79 C53 1_555 1_555
C54 C49 1_555 1_555
H80 C54 1_555 1_555
C55 Fe1 1_555 1_555
C56 Fe1 1_555 1_555
C57 Fe1 1_555 1_555
C58 Fe2 1_555 1_555
C59 N29 1_555 1_555
C60 N30 1_555 1_555
Cl1 O6 1_555 1_555
Cl2 O10 1_555 1_555
Cl3 O14 1_555 1_555
Cl4 O18 1_555 1_555
Fe1 N1 1_555 1_555
Fe2 N7 1_555 1_555
N1 C1 1_555 1_555
N2 B1 1_555 1_555
N3 C4 1_555 1_555
N4 B1 1_555 1_555
N5 C7 1_555 1_555
N6 B1 1_555 1_555
N7 C10 1_555 1_555
N8 B2 1_555 1_555
N9 C13 1_555 1_555
N10 B2 1_555 1_555
N11 C16 1_555 1_555
N12 B2 1_555 1_555
N13 C19 1_555 1_555
H81 N13 1_555 1_555
H82 N13 1_555 1_555
N14 C24 1_555 1_555
H83 N14 1_555 1_555
H84 N14 1_555 1_555
N15 C25 1_555 1_555
H85 N15 1_555 1_555
H86 N15 1_555 1_555
N16 C30 1_555 1_555
H87 N16 1_555 1_555
H88 N16 1_555 1_555
N17 C31 1_555 1_555
H89 N17 1_555 1_555
H90 N17 1_555 1_555
N18 C36 1_555 1_555
H91 N18 1_555 1_555
H92 N18 1_555 1_555
N19 C37 1_555 1_555
H93 N19 1_555 1_555
H94 N19 1_555 1_555
N20 C42 1_555 1_555
H95 N20 1_555 1_555
H96 N20 1_555 1_555
N21 C43 1_555 1_555
H97 N21 1_555 1_555
H98 N21 1_555 1_555
N22 C48 1_555 1_555
H99 N22 1_555 1_555
H100 N22 1_555 1_555
N23 C49 1_555 1_555
H101 N23 1_555 1_555
H102 N23 1_555 1_555
N24 C54 1_555 1_555
H103 N24 1_555 1_555
H104 N24 1_555 1_555
N25 C55 1_555 1_555
N26 C56 1_555 1_555
N27 C57 1_555 1_555
N28 C58 1_555 1_555
N29 Ni3 1_555 1_555
N30 Ni1 1_555 1_555
Ni1 N13 1_555 1_555
Ni2 N17 1_555 1_555
Ni3 N21 1_555 1_555
O1 H105 1_555 1_555
H106 O1 1_555 1_555
O2 H107 1_555 1_555
H108 O2 1_555 1_555
O3 H109 1_555 1_555
H110 O3 1_555 1_555
O4 H111 1_555 1_555
H112 O4 1_555 1_555
O5 H113 1_555 1_555
H114 O5 1_555 1_555
O7 Cl1 1_555 1_555
O8 Cl1 1_555 1_555
O9 Cl1 1_555 1_555
O11 Cl2 1_555 1_555
O12 Cl2 1_555 1_555
O13 Cl2 1_555 1_555
O15 Cl3 1_555 1_555
O16 Cl3 1_555 1_555
O17 Cl3 1_555 1_555
O19 Cl4 1_555 1_555
O20 Cl4 1_555 1_555
O21 Cl4 1_555 1_555
C59_2 Fe2 1_555 1_555
C60_2 Fe2 1_555 1_555
Fe2_2 C59 1_555 1_555
C3 N2 1_555 1_555
C6 N4 1_555 1_555
C9 N6 1_555 1_555
C12 N8 1_555 1_555
C15 N10 1_555 1_555
C18 N12 1_555 1_555
C23 C24 1_555 1_555
C29 C30 1_555 1_555
C35 C36 1_555 1_555
C41 C42 1_555 1_555
C47 C48 1_555 1_555
C53 C54 1_555 1_555
C60 Fe2_2 1_555 1_555
Fe1 N3 1_555 1_555
Fe1 N5 1_555 1_555
Fe2 N9 1_555 1_555
Fe2 N11 1_555 1_555
N1 N2 1_555 1_555
N3 N4 1_555 1_555
N5 N6 1_555 1_555
N7 N8 1_555 1_555
N9 N10 1_555 1_555
N11 N12 1_555 1_555
N14 Ni1 1_555 1_555
N15 Ni1 1_555 1_555
N16 Ni1 1_555 1_555
N18 Ni2 1_555 1_555
N19 Ni2 1_555 1_555
N20 Ni2 1_555 1_555
N22 Ni3 1_555 1_555
N23 Ni3 1_555 1_555
N24 Ni3 1_555 1_555
N25 Ni1 1_555 1_555
N26 Ni3 1_555 1_555
N27 Ni2 1_555 1_555
N28 Ni2 1_555 1_555

#END
