
#######################################################################
#
#                 Cambridge Crystallographic Data Centre
#                                CCDC 
#
#######################################################################
#
# If this CIF has been generated from an entry in the Cambridge 
# Structural Database, then it will include bibliographic, chemical, 
# crystal, experimental, refinement or atomic coordinate data resulting 
# from the CCDC's data processing and validation procedures.
#
#######################################################################

data_CUGVIK
_symmetry_cell_setting           triclinic
_symmetry_space_group_name_H-M   'P 1'
_symmetry_Int_Tables_number      1
_space_group_name_Hall           'P 1'
loop_
_symmetry_equiv_pos_site_id
_symmetry_equiv_pos_as_xyz
1 x,y,z
_cell_length_a                   13.9984(12)
_cell_length_b                   14.177(3)
_cell_length_c                   14.8798(18)
_cell_angle_alpha                116.5840(10)
_cell_angle_beta                 103.726(3)
_cell_angle_gamma                99.945(2)
_cell_volume                     2429.58
loop_
_atom_site_label
_atom_site_type_symbol
_atom_site_fract_x
_atom_site_fract_y
_atom_site_fract_z
B1 B 0.9376(6) 0.8506(6) 0.7790(6)
H1 H 1.0109 0.8922 0.8241
B2 B 0.0942(6) 1.0383(6) 0.2754(6)
H2 H 0.0223 0.9944 0.2265
C1 C 0.8295(5) 0.5697(5) 0.6702(5)
H3 H 0.7769 0.5048 0.6151
C2 C 0.9199(5) 0.5675(5) 0.7256(5)
H4 H 0.9349 0.5106 0.7353
C3 C 0.9864(5) 0.6773(5) 0.7654(5)
H5 H 1.0585 0.6999 0.7907
C4 C 0.7388(5) 0.9033(5) 0.8634(5)
H6 H 0.6703 0.8763 0.8562
C5 C 0.8144(5) 0.9869(5) 0.9585(5)
H7 H 0.8083 1.0367 1.0223
C6 C 0.9012(6) 0.9765(5) 0.9333(6)
H8 H 0.9679 1.0053 0.9839
C7 C 0.8075(6) 0.7827(6) 0.5073(6)
H9 H 0.7482 0.7489 0.4458
C8 C 0.9052(5) 0.8345(5) 0.5243(5)
H10 H 0.9248 0.8334 0.4684
C9 C 0.9762(5) 0.8902(6) 0.6296(6)
H11 H 1.0451 0.9342 0.6567
C10 C 0.2158(4) 1.1037(5) 0.5611(5)
H12 H 0.2720 1.1358 0.6250
C11 C 0.1175(5) 1.0501(5) 0.5448(5)
H13 H 0.0955 1.0360 0.5931
C12 C 0.0542(5) 1.0194(5) 0.4382(5)
H14 H -0.0169 0.9826 0.4043
C13 C 0.3330(5) 0.9869(5) 0.2165(5)
H15 H 0.4030 0.9966 0.2270
C14 C 0.2455(5) 0.9094(5) 0.1331(4)
H16 H 0.2563 0.8519 0.0779
C15 C 0.1470(5) 0.9032(5) 0.1185(5)
H17 H 0.0847 0.8554 0.0620
C16 C 0.2372(5) 1.3525(6) 0.3824(6)
H18 H 0.2939 1.4131 0.4041
C17 C 0.1273(5) 1.3268(5) 0.3485(5)
H19 H 0.1002 1.3843 0.3773
C18 C 0.0553(5) 1.2149(5) 0.2710(5)
H20 H -0.0111 1.1883 0.2206
C19 C 0.6258(5) 0.6484(5) 0.6797(5)
C20 C 0.6825(5) 0.5802(5) 0.4903(5)
C21 C 0.6127(5) 0.7930(5) 0.5907(5)
C22 C 0.4232(5) 1.1278(5) 0.4872(5)
C23 C 0.4358(5) 0.2452(5) 0.3798(6)
C24 C 0.3822(4) 0.3089(5) 0.5516(5)
C25 C 0.7099(6) 0.3723(8) 0.1764(6)
H21 H 0.6692 0.2972 0.1156
C26 C 0.7891(4) 0.4362(5) 0.1490(5)
H22 H 0.7533 0.4370 0.0852
H23 H 0.8218 0.5126 0.2080
C27 C 0.8683(5) 0.3817(6) 0.1305(6)
H24 H 0.9205 0.4212 0.1157
H25 H 0.8379 0.3047 0.0721
C28 C 0.9129(5) 0.3905(5) 0.2395(5)
H26 H 0.9748 0.3685 0.2409
H27 H 0.9353 0.4687 0.2942
C29 C 0.8509(5) 0.3296(5) 0.2734(5)
H28 H 0.8907 0.3434 0.3436
H29 H 0.8278 0.2502 0.2223
C30 C 0.7575(5) 0.3727(6) 0.2783(6)
H30 H 0.7845 0.4505 0.3371
C31 C 0.3361(5) 0.2385(5) 0.1107(5)
H31 H 0.3542 0.2161 0.0460
C32 C 0.2202(5) 0.1665(5) 0.0883(5)
H32 H 0.2100 0.0873 0.0479
H33 H 0.2102 0.1842 0.1557
C33 C 0.1427(5) 0.1994(5) 0.0221(5)
H34 H 0.1459 0.1688 -0.0495
H35 H 0.0729 0.1650 0.0146
C34 C 0.1623(5) 0.3254(5) 0.0706(5)
H36 H 0.1128 0.3382 0.0230
H37 H 0.1524 0.3561 0.1392
C35 C 0.2693(5) 0.3820(5) 0.0863(5)
H38 H 0.2810 0.4608 0.1130
H39 H 0.2824 0.3492 0.0194
C36 C 0.3387(6) 0.3638(6) 0.1695(6)
H40 H 0.3158 0.3815 0.2308
C37 C 0.3259(5) 0.8095(5) 0.3464(5)
H41 H 0.3039 0.8648 0.3319
C38 C 0.2673(5) 0.6975(5) 0.2485(5)
H42 H 0.2898 0.6404 0.2580
H43 H 0.2793 0.6953 0.1861
C39 C 0.1511(4) 0.6774(5) 0.2330(5)
H44 H 0.1107 0.6035 0.1722
H45 H 0.1281 0.7312 0.2176
C40 C 0.1327(4) 0.6888(4) 0.3356(4)
H46 H 0.0592 0.6741 0.3243
H47 H 0.1552 0.6350 0.3511
C41 C 0.1924(5) 0.8039(5) 0.4280(5)
H48 H 0.1720 0.8577 0.4109
H49 H 0.1769 0.8134 0.4911
C42 C 0.3059(5) 0.8237(4) 0.4510(5)
H50 H 0.3252 0.7674 0.4656
C43 C 0.7200(4) 1.1422(5) 0.6941(4)
H51 H 0.7014 1.1799 0.6544
C44 C 0.8089(4) 1.2329(5) 0.7973(4)
H52 H 0.7887 1.2989 0.8294
H53 H 0.8226 1.2074 0.8482
C45 C 0.9059(4) 1.2617(5) 0.7757(5)
H54 H 0.9615 1.3168 0.8431
H55 H 0.8943 1.2943 0.7306
C46 C 0.9382(4) 1.1597(4) 0.7202(4)
H56 H 1.0057 1.1816 0.7158
H57 H 0.9424 1.1215 0.7604
C47 C 0.8567(5) 1.0840(5) 0.6083(5)
H58 H 0.8768 1.0197 0.5690
H59 H 0.8515 1.1236 0.5694
C48 C 0.7491(4) 1.0448(4) 0.6165(5)
H60 H 0.7558 0.9970 0.6473
C49 C 0.7060(5) 0.5501(5) 0.9014(5)
H61 H 0.6788 0.5313 0.9483
C50 C 0.8150(4) 0.5381(5) 0.9095(5)
H62 H 0.8121 0.4614 0.8858
H63 H 0.8419 0.5607 0.8654
C51 C 0.8844(4) 0.6149(4) 1.0294(4)
H64 H 0.8562 0.5904 1.0718
H65 H 0.9534 0.6081 1.0390
C52 C 0.8923(5) 0.7335(5) 1.0698(5)
H66 H 0.9325 0.7756 1.1463
H67 H 0.9312 0.7604 1.0353
C53 C 0.7939(5) 0.7585(5) 1.0534(5)
H68 H 0.8060 0.8340 1.0671
H69 H 0.7612 0.7507 1.1014
C54 C 0.7257(5) 0.6749(5) 0.9368(5)
H70 H 0.7611 0.6890 0.8925
C55 C 0.3178(5) 0.5756(5) 0.8175(5)
H71 H 0.3489 0.6569 0.8592
C56 C 0.1951(5) 0.5456(6) 0.7721(5)
H72 H 0.1750 0.5769 0.7273
H73 H 0.1617 0.4655 0.7299
C57 C 0.1648(5) 0.5976(5) 0.8731(5)
H74 H 0.2057 0.6757 0.9204
H75 H 0.0919 0.5915 0.8527
C58 C 0.1861(5) 0.5344(6) 0.9269(5)
H76 H 0.1522 0.5486 0.9793
H77 H 0.1603 0.4552 0.8747
C59 C 0.2987(4) 0.5710(5) 0.9801(4)
H78 H 0.3168 0.5380 1.0238
H79 H 0.3260 0.6514 1.0258
C60 C 0.3403(6) 0.5325(5) 0.8915(6)
H80 H 0.3132 0.4510 0.8490
Fe1 Fe 0.71793(10) 0.72365(10) 0.63795(10)
Fe2 Fe 0.33286(9) 1.17957(9) 0.42175(10)
N1 N 0.8187(4) 0.6820(4) 0.7022(4)
N2 N 0.9257(4) 0.7466(4) 0.7603(4)
N3 N 0.7750(4) 0.8638(5) 0.7804(5)
N4 N 0.8797(4) 0.9229(4) 0.8330(4)
N5 N 0.8191(4) 0.7934(5) 0.6036(5)
N6 N 0.9218(4) 0.8650(4) 0.6805(4)
N7 N 0.2210(5) 1.1042(5) 0.4663(5)
N8 N 0.1141(4) 1.0522(4) 0.4004(4)
N9 N 0.2800(4) 1.0504(4) 0.2847(4)
N10 N 0.1729(4) 0.9965(4) 0.2209(4)
N11 N 0.2209(4) 1.2413(4) 0.3676(4)
N12 N 0.1212(4) 1.1627(4) 0.2994(4)
N13 N 0.5743(5) 0.6173(5) 0.7141(4)
N14 N 0.6337(5) 0.5027(4) 0.4180(4)
N15 N 0.5515(4) 0.8179(4) 0.5496(4)
N16 N 0.4703(3) 1.0767(4) 0.5066(4)
N17 N 0.4927(4) 0.3023(4) 0.3623(4)
N18 N 0.4111(4) 0.3956(4) 0.6390(4)
N19 N 0.6465(4) 0.4440(4) 0.2053(4)
H81 H 0.6063 0.4426 0.1474
H82 H 0.6858 0.5147 0.2555
N20 N 0.6792(4) 0.3133(4) 0.3013(4)
H83 H 0.7046 0.3297 0.3700
H84 H 0.6632 0.2393 0.2581
N21 N 0.4057(4) 0.2282(4) 0.1943(4)
H85 H 0.4192 0.1635 0.1640
H86 H 0.3748 0.2280 0.2409
N22 N 0.4446(4) 0.4286(4) 0.2034(4)
H87 H 0.4554 0.5002 0.2515
H88 H 0.4589 0.4258 0.1466
N23 N 0.4384(4) 0.8363(4) 0.3699(4)
H89 H 0.4551 0.8623 0.3285
H90 H 0.4556 0.7738 0.3530
N24 N 0.3757(4) 0.9355(4) 0.5395(4)
H91 H 0.3769 0.9429 0.6031
H92 H 0.3519 0.9880 0.5329
N25 N 0.6209(4) 1.0878(4) 0.6929(4)
H93 H 0.5884 1.1382 0.7177
H94 H 0.6322 1.0599 0.7368
N26 N 0.6675(4) 0.9743(4) 0.5080(4)
H95 H 0.6758 0.9073 0.4733
H96 H 0.6697 1.0070 0.4685
N27 N 0.6347(4) 0.4820(4) 0.7874(4)
H97 H 0.6156 0.4091 0.7660
H98 H 0.6648 0.4924 0.7440
N28 N 0.6292(4) 0.7015(4) 0.9162(4)
H99 H 0.6353 0.7513 0.8943
H100 H 0.6133 0.7301 0.9761
N29 N 0.3496(4) 0.5320(4) 0.7235(4)
H101 H 0.3456 0.5740 0.6928
H102 H 0.3094 0.4614 0.6743
N30 N 0.4538(4) 0.5662(4) 0.9323(4)
H103 H 0.4754 0.5244 0.9587
H104 H 0.4807 0.6382 0.9852
Ni1 Ni 0.54343(8) 0.36070(9) 0.27577(9)
Ni2 Ni 0.52530(9) 0.95748(9) 0.53503(10)
Ni3 Ni 0.50691(9) 0.54018(9) 0.78675(9)
C23_2 C 0.4358(5) 1.2452(5) 0.3798(6)
C24_2 C 0.3822(4) 1.3089(5) 0.5516(5)
Fe2_2 Fe 0.33286(9) 0.17957(9) 0.42175(10)
Cl1 Cl 0.47790(15) 0.22525(14) 0.86296(14)
O6 O 0.5008(3) 0.1343(3) 0.8733(3)
O7 O 0.5194(3) 0.2372(3) 0.7911(3)
O8 O 0.3655(3) 0.1830(3) 0.8113(3)
O9 O 0.4949(3) 0.3211(3) 0.9519(3)
Cl2 Cl 0.70514(11) 0.03742(12) 0.27150(12)
O10 O 0.7824(3) -0.0041(3) 0.3033(3)
O11 O 0.7531(3) 0.1521(3) 0.3333(3)
O12 O 0.6779(3) -0.0118(3) 0.1558(3)
O13 O 0.6281(3) 0.0060(3) 0.2981(3)
Cl3 Cl 0.59253(14) 0.69341(14) 0.21292(14)
O14 O 0.5038(4) 0.6454(4) 0.2294(4)
O15 O 0.6728(3) 0.7801(3) 0.2942(3)
O16 O 0.5496(3) 0.7220(3) 0.1454(3)
O17 O 0.6254(3) 0.6095(3) 0.1534(3)
Cl4 Cl 0.46197(12) 0.91676(12) 0.93827(12)
O18 O 0.4347(3) 0.8743(3) 0.9961(3)
O19 O 0.3672(3) 0.8919(3) 0.8662(3)
O20 O 0.5078(3) 1.0268(3) 1.0038(3)
O21 O 0.5235(3) 0.8583(3) 0.8846(3)
O1 O 0.9950(7) 0.6048(7) 0.5152(7)
H105 H 0.9577 0.6087 0.4635
H106 H 1.0459 0.6649 0.5563
O2 O 0.2662(8) -0.0021(8) 0.7184(8)
H107 H 0.3039 -0.0170 0.7611
H108 H 0.2290 0.0335 0.7484
O3 O 1.0030(8) 0.3624(9) 0.5561(8)
H109 H 0.9426 0.3499 0.5590
H110 H 1.0002 0.3184 0.4929
O4 O 0.2520(7) 0.6449(10) 0.5890(8)
H111 H 0.2051 0.5923 0.5816
H112 H 0.3014 0.6216 0.5739
O5 O 0.6682(8) 0.3016(9) 0.5115(10)
H113 H 0.6824 0.2844 0.5600
H114 H 0.6430 0.2425 0.4498
loop_
_geom_bond_atom_site_label_1
_geom_bond_atom_site_label_2
_geom_bond_site_symmetry_1
_geom_bond_site_symmetry_2
B1 H1 1_555 1_555
B2 H2 1_555 1_555
C1 H3 1_555 1_555
C2 C1 1_555 1_555
H4 C2 1_555 1_555
C3 C2 1_555 1_555
H5 C3 1_555 1_555
C4 H6 1_555 1_555
C5 C4 1_555 1_555
H7 C5 1_555 1_555
C6 C5 1_555 1_555
H8 C6 1_555 1_555
C7 H9 1_555 1_555
C8 C7 1_555 1_555
H10 C8 1_555 1_555
C9 C8 1_555 1_555
H11 C9 1_555 1_555
C10 H12 1_555 1_555
C11 C10 1_555 1_555
H13 C11 1_555 1_555
C12 C11 1_555 1_555
H14 C12 1_555 1_555
C13 H15 1_555 1_555
C14 C13 1_555 1_555
H16 C14 1_555 1_555
C15 C14 1_555 1_555
H17 C15 1_555 1_555
C16 H18 1_555 1_555
C17 C16 1_555 1_555
H19 C17 1_555 1_555
C18 C17 1_555 1_555
H20 C18 1_555 1_555
C19 Fe1 1_555 1_555
C20 Fe1 1_555 1_555
C21 Fe1 1_555 1_555
C22 Fe2 1_555 1_555
C23 N17 1_555 1_555
C24 N18 1_555 1_555
C25 H21 1_555 1_555
C26 C25 1_555 1_555
H22 C26 1_555 1_555
H23 C26 1_555 1_555
C27 C26 1_555 1_555
H24 C27 1_555 1_555
H25 C27 1_555 1_555
C28 C27 1_555 1_555
H26 C28 1_555 1_555
H27 C28 1_555 1_555
C29 C28 1_555 1_555
H28 C29 1_555 1_555
H29 C29 1_555 1_555
C30 C25 1_555 1_555
H30 C30 1_555 1_555
C31 H31 1_555 1_555
C32 C31 1_555 1_555
H32 C32 1_555 1_555
H33 C32 1_555 1_555
C33 C32 1_555 1_555
H34 C33 1_555 1_555
H35 C33 1_555 1_555
C34 C33 1_555 1_555
H36 C34 1_555 1_555
H37 C34 1_555 1_555
C35 C34 1_555 1_555
H38 C35 1_555 1_555
H39 C35 1_555 1_555
C36 C31 1_555 1_555
H40 C36 1_555 1_555
C37 H41 1_555 1_555
C38 C37 1_555 1_555
H42 C38 1_555 1_555
H43 C38 1_555 1_555
C39 C38 1_555 1_555
H44 C39 1_555 1_555
H45 C39 1_555 1_555
C40 C39 1_555 1_555
H46 C40 1_555 1_555
H47 C40 1_555 1_555
C41 C40 1_555 1_555
H48 C41 1_555 1_555
H49 C41 1_555 1_555
C42 C37 1_555 1_555
H50 C42 1_555 1_555
C43 H51 1_555 1_555
C44 C43 1_555 1_555
H52 C44 1_555 1_555
H53 C44 1_555 1_555
C45 C44 1_555 1_555
H54 C45 1_555 1_555
H55 C45 1_555 1_555
C46 C45 1_555 1_555
H56 C46 1_555 1_555
H57 C46 1_555 1_555
C47 C46 1_555 1_555
H58 C47 1_555 1_555
H59 C47 1_555 1_555
C48 C43 1_555 1_555
H60 C48 1_555 1_555
C49 H61 1_555 1_555
C50 C49 1_555 1_555
H62 C50 1_555 1_555
H63 C50 1_555 1_555
C51 C50 1_555 1_555
H64 C51 1_555 1_555
H65 C51 1_555 1_555
C52 C51 1_555 1_555
H66 C52 1_555 1_555
H67 C52 1_555 1_555
C53 C52 1_555 1_555
H68 C53 1_555 1_555
H69 C53 1_555 1_555
C54 C49 1_555 1_555
H70 C54 1_555 1_555
C55 H71 1_555 1_555
C56 C55 1_555 1_555
H72 C56 1_555 1_555
H73 C56 1_555 1_555
C57 C56 1_555 1_555
H74 C57 1_555 1_555
H75 C57 1_555 1_555
C58 C57 1_555 1_555
H76 C58 1_555 1_555
H77 C58 1_555 1_555
C59 C58 1_555 1_555
H78 C59 1_555 1_555
H79 C59 1_555 1_555
C60 C55 1_555 1_555
H80 C60 1_555 1_555
Cl1 O6 1_555 1_555
Cl2 O10 1_555 1_555
Cl3 O14 1_555 1_555
Cl4 O18 1_555 1_555
Fe1 N1 1_555 1_555
Fe2 N7 1_555 1_555
N1 C1 1_555 1_555
N2 B1 1_555 1_555
N3 C4 1_555 1_555
N4 B1 1_555 1_555
N5 C7 1_555 1_555
N6 B1 1_555 1_555
N7 C10 1_555 1_555
N8 B2 1_555 1_555
N9 C13 1_555 1_555
N10 B2 1_555 1_555
N11 C16 1_555 1_555
N12 B2 1_555 1_555
N13 C19 1_555 1_555
N14 C20 1_555 1_555
N15 C21 1_555 1_555
N16 C22 1_555 1_555
N17 Ni1 1_555 1_555
N18 Ni3 1_555 1_555
N19 C25 1_555 1_555
H81 N19 1_555 1_555
H82 N19 1_555 1_555
N20 C30 1_555 1_555
H83 N20 1_555 1_555
H84 N20 1_555 1_555
N21 C31 1_555 1_555
H85 N21 1_555 1_555
H86 N21 1_555 1_555
N22 C36 1_555 1_555
H87 N22 1_555 1_555
H88 N22 1_555 1_555
N23 C37 1_555 1_555
H89 N23 1_555 1_555
H90 N23 1_555 1_555
N24 C42 1_555 1_555
H91 N24 1_555 1_555
H92 N24 1_555 1_555
N25 C43 1_555 1_555
H93 N25 1_555 1_555
H94 N25 1_555 1_555
N26 C48 1_555 1_555
H95 N26 1_555 1_555
H96 N26 1_555 1_555
N27 C49 1_555 1_555
H97 N27 1_555 1_555
H98 N27 1_555 1_555
N28 C54 1_555 1_555
H99 N28 1_555 1_555
H100 N28 1_555 1_555
N29 C55 1_555 1_555
H101 N29 1_555 1_555
H102 N29 1_555 1_555
N30 C60 1_555 1_555
H103 N30 1_555 1_555
H104 N30 1_555 1_555
Ni1 N14 1_555 1_555
Ni2 N15 1_555 1_555
Ni3 N13 1_555 1_555
O1 H105 1_555 1_555
H106 O1 1_555 1_555
O2 H107 1_555 1_555
H108 O2 1_555 1_555
O3 H109 1_555 1_555
H110 O3 1_555 1_555
O4 H111 1_555 1_555
H112 O4 1_555 1_555
O5 H113 1_555 1_555
H114 O5 1_555 1_555
O7 Cl1 1_555 1_555
O8 Cl1 1_555 1_555
O9 Cl1 1_555 1_555
O11 Cl2 1_555 1_555
O12 Cl2 1_555 1_555
O13 Cl2 1_555 1_555
O15 Cl3 1_555 1_555
O16 Cl3 1_555 1_555
O17 Cl3 1_555 1_555
O19 Cl4 1_555 1_555
O20 Cl4 1_555 1_555
O21 Cl4 1_555 1_555
C23_2 Fe2 1_555 1_555
C24_2 Fe2 1_555 1_555
Fe2_2 C23 1_555 1_555
C3 N2 1_555 1_555
C6 N4 1_555 1_555
C9 N6 1_555 1_555
C12 N8 1_555 1_555
C15 N10 1_555 1_555
C18 N12 1_555 1_555
C24 Fe2_2 1_555 1_555
C29 C30 1_555 1_555
C35 C36 1_555 1_555
C41 C42 1_555 1_555
C47 C48 1_555 1_555
C53 C54 1_555 1_555
C59 C60 1_555 1_555
Fe1 N3 1_555 1_555
Fe1 N5 1_555 1_555
Fe2 N9 1_555 1_555
Fe2 N11 1_555 1_555
N1 N2 1_555 1_555
N3 N4 1_555 1_555
N5 N6 1_555 1_555
N7 N8 1_555 1_555
N9 N10 1_555 1_555
N11 N12 1_555 1_555
N16 Ni2 1_555 1_555
N19 Ni1 1_555 1_555
N20 Ni1 1_555 1_555
N21 Ni1 1_555 1_555
N22 Ni1 1_555 1_555
N23 Ni2 1_555 1_555
N24 Ni2 1_555 1_555
N25 Ni2 1_555 1_555
N26 Ni2 1_555 1_555
N27 Ni3 1_555 1_555
N28 Ni3 1_555 1_555
N29 Ni3 1_555 1_555
N30 Ni3 1_555 1_555

#END
