
#######################################################################
#
#                 Cambridge Crystallographic Data Centre
#                                CCDC 
#
#######################################################################
#
# If this CIF has been generated from an entry in the Cambridge 
# Structural Database, then it will include bibliographic, chemical, 
# crystal, experimental, refinement or atomic coordinate data resulting 
# from the CCDC's data processing and validation procedures.
#
#######################################################################

data_CUGVUX
_symmetry_cell_setting           monoclinic
_symmetry_space_group_name_H-M   'P 21/c'
_symmetry_Int_Tables_number      14
_space_group_name_Hall           '-P 2ybc'
loop_
_symmetry_equiv_pos_site_id
_symmetry_equiv_pos_as_xyz
1 x,y,z
2 -x,1/2+y,1/2-z
3 -x,-y,-z
4 x,1/2-y,1/2+z
_cell_length_a                   10.7720(4)
_cell_length_b                   21.7524(9)
_cell_length_c                   9.8578(4)
_cell_angle_alpha                90
_cell_angle_beta                 111.7280(10)
_cell_angle_gamma                90
_cell_volume                     2145.74
loop_
_atom_site_label
_atom_site_type_symbol
_atom_site_fract_x
_atom_site_fract_y
_atom_site_fract_z
Cu1 Cu 0.96344(3) 0.110051(14) 0.56382(3)
Cu2 Cu 0.50815(3) -0.134123(14) 1.00403(3)
O1 O 0.78966(17) 0.08348(8) 0.5545(2)
O2 O 0.99975(19) 0.12817(10) 0.7760(2)
H1 H 1.0154 0.1628 0.8191
H2 H 0.9316 0.1128 0.7872
O3 O 0.66691(19) 0.16845(9) 0.4792(2)
O4 O 0.9140(2) 0.21268(10) 0.5207(3)
H3 H 0.8500 0.2375 0.4803
H4 H 0.9835 0.2339 0.5652
O5 O 0.15527(17) 0.10078(9) 0.62115(19)
O6 O 0.70654(17) -0.12546(9) 1.0809(2)
H5 H 0.7510 -0.0955 1.0671
H6 H 0.7378 -0.1337 1.1716
O7 O 0.1942(2) 0.15644(11) 0.4508(3)
O8 O 0.47750(18) -0.06627(9) 0.8682(2)
O9 O 0.6831(2) -0.06032(11) 0.8625(2)
O10 O 0.79962(19) 0.16548(10) -0.1349(2)
N1 N 0.9205(2) 0.08320(10) 0.3563(2)
N2 N 0.6785(2) 0.13408(10) 0.0039(2)
N3 N 0.4739(2) 0.19894(10) -0.1537(2)
N4 N 0.4851(2) 0.28784(10) -0.3476(2)
C1 C 0.8178(2) 0.11053(12) 0.2521(3)
H7 H 0.7656 0.1379 0.2803
C2 C 0.7855(2) 0.10015(11) 0.1043(3)
C3 C 0.9636(3) 0.02704(15) 0.1724(3)
H8 H 1.0138 -0.0025 0.1475
C4 C 0.9925(3) 0.04189(13) 0.3158(3)
H9 H 1.0643 0.0227 0.3874
C5 C 0.8587(3) 0.05643(15) 0.0642(3)
H10 H 0.8381 0.0469 -0.0337
C6 C 0.3710(3) 0.23664(13) -0.2159(3)
H11 H 0.2940 0.2326 -0.1950
C7 C 0.3785(3) 0.28164(14) -0.3113(3)
H12 H 0.3069 0.3084 -0.3514
C8 C 0.5865(3) 0.24901(12) -0.2865(3)
H13 H 0.6615 0.2516 -0.3116
C9 C 0.5826(2) 0.20486(11) -0.1863(3)
C10 C 0.6989(2) 0.16427(11) -0.1029(3)
C11 C 0.6852(2) 0.11602(12) 0.5308(3)
C12 C 0.5804(2) 0.08639(11) 0.5766(3)
C13 C 0.6131(2) 0.03508(11) 0.6673(3)
H14 H 0.6971 0.0172 0.6922
C14 C 0.4543(2) 0.11195(11) 0.5372(3)
H15 H 0.4315 0.1458 0.4754
C15 C 0.2270(2) 0.11780(12) 0.5478(3)
C16 C 0.3608(2) 0.08726(11) 0.5896(3)
C17 C 0.3954(2) 0.03640(12) 0.6823(3)
H16 H 0.3338 0.0200 0.7181
C18 C 0.5214(2) 0.01021(11) 0.7213(3)
C19 C 0.5652(2) -0.04314(12) 0.8248(3)
Cu1_2 Cu -0.03656(3) 0.110051(14) 0.56382(3)
Cu2A Cu 0.49185(3) 0.365877(14) -0.50403(3)
Cu2B Cu 0.49185(3) 0.134123(14) -0.00403(3)
O5_2 O 1.15527(17) 0.10078(9) 0.62115(19)
N2B N 0.3215(2) -0.13408(10) 0.9961(2)
N3B N 0.5261(2) -0.19894(10) 1.1537(2)
N4A N 0.5149(2) -0.21216(10) 0.8476(2)
O11 O 0.0328(3) 0.24891(13) 0.3148(3)
H17 H 0.1110 0.2410 0.3174
H18 H 0.0016 0.2162 0.3367
loop_
_geom_bond_atom_site_label_1
_geom_bond_atom_site_label_2
_geom_bond_site_symmetry_1
_geom_bond_site_symmetry_2
Cu1 O1 1_555 1_555
Cu2 O6 1_555 1_555
O1 C11 1_555 1_555
O2 Cu1 1_555 1_555
H1 O2 1_555 1_555
H2 O2 1_555 1_555
O3 C11 1_555 1_555
O4 Cu1 1_555 1_555
H3 O4 1_555 1_555
H4 O4 1_555 1_555
O5 C15 1_555 1_555
O6 H5 1_555 1_555
H6 O6 1_555 1_555
O7 C15 1_555 1_555
O8 Cu2 1_555 1_555
O9 C19 1_555 1_555
O10 C10 1_555 1_555
N1 Cu1 1_555 1_555
N2 C2 1_555 1_555
N3 C6 1_555 1_555
N4 C7 1_555 1_555
C1 N1 1_555 1_555
H7 C1 1_555 1_555
C2 C1 1_555 1_555
C3 H8 1_555 1_555
C4 N1 1_555 1_555
H9 C4 1_555 1_555
C5 C2 1_555 1_555
H10 C5 1_555 1_555
C6 H11 1_555 1_555
C7 C6 1_555 1_555
H12 C7 1_555 1_555
C8 N4 1_555 1_555
H13 C8 1_555 1_555
C9 N3 1_555 1_555
C10 N2 1_555 1_555
C11 C12 1_555 1_555
C12 C13 1_555 1_555
C13 H14 1_555 1_555
C14 C12 1_555 1_555
H15 C14 1_555 1_555
C15 C16 1_555 1_555
C16 C14 1_555 1_555
C17 C16 1_555 1_555
H16 C17 1_555 1_555
C18 C13 1_555 1_555
C19 O8 1_555 1_555
O11 H17 1_555 1_555
H18 O11 1_555 1_555
Cu1_2 O5 1_555 1_555
Cu2A N4 1_555 1_555
Cu2B N2 1_555 1_555
O5_2 Cu1 1_555 1_555
N2B Cu2 1_555 1_555
N3B Cu2 1_555 1_555
N4A Cu2 1_555 1_555
N3 Cu2B 1_555 1_555
C3 C4 1_555 1_555
C3 C5 1_555 1_555
C8 C9 1_555 1_555
C9 C10 1_555 1_555
C17 C18 1_555 1_555
C18 C19 1_555 1_555

#END
