
#######################################################################
#
#                 Cambridge Crystallographic Data Centre
#                                CCDC 
#
#######################################################################
#
# If this CIF has been generated from an entry in the Cambridge 
# Structural Database, then it will include bibliographic, chemical, 
# crystal, experimental, refinement or atomic coordinate data resulting 
# from the CCDC's data processing and validation procedures.
#
#######################################################################

data_CUGWAE
_symmetry_cell_setting           monoclinic
_symmetry_space_group_name_H-M   'P 21/c'
_symmetry_Int_Tables_number      14
_space_group_name_Hall           '-P 2ybc'
loop_
_symmetry_equiv_pos_site_id
_symmetry_equiv_pos_as_xyz
1 x,y,z
2 -x,1/2+y,1/2-z
3 -x,-y,-z
4 x,1/2-y,1/2+z
_cell_length_a                   10.6876(7)
_cell_length_b                   12.9221(8)
_cell_length_c                   18.5048(9)
_cell_angle_alpha                90
_cell_angle_beta                 123.820(3)
_cell_angle_gamma                90
_cell_volume                     2123.19
loop_
_atom_site_label
_atom_site_type_symbol
_atom_site_fract_x
_atom_site_fract_y
_atom_site_fract_z
Cu1 Cu 0.64797(4) -0.40290(3) -0.33545(2)
Cu2 Cu 0.65200(4) -0.51625(3) -0.48649(2)
O1 O 0.8408(3) -0.3629(2) -0.32021(14)
O2 O 0.5415(2) -0.41421(15) -0.46010(12)
H1 H 0.6313 -0.3905 -0.4342
O3 O 0.8287(2) -0.42956(17) -0.43641(14)
O4 O 1.2738(2) -0.41388(17) -0.44861(14)
O5 O 1.4705(2) -0.31763(16) -0.35135(13)
O6 O 1.3937(3) -0.06175(17) -0.17594(14)
O7 O 1.2452(3) -0.11395(18) -0.13351(14)
O8 O 0.5488(3) -0.2747(2) -0.01835(19)
N1 N 0.7306(3) -0.3801(2) -0.21073(16)
N2 N 0.5273(3) -0.4018(2) -0.10657(18)
H2 H 0.4838 -0.4595 -0.1306
C1 C 0.8312(4) -0.3060(3) -0.1651(2)
H3 H 0.8960 -0.2847 -0.1808
C2 C 0.8406(5) -0.2602(3) -0.0945(2)
H4 H 0.9133 -0.2101 -0.0621
C3 C 0.7430(5) -0.2888(3) -0.0726(2)
H5 H 0.7465 -0.2566 -0.0266
C4 C 0.6381(4) -0.3665(3) -0.1195(2)
C5 C 0.6398(4) -0.4109(3) -0.1860(2)
H6 H 0.5743 -0.4657 -0.2158
C6 C 0.4836(4) -0.3528(3) -0.0596(2)
C7 C 0.3555(4) -0.3971(3) -0.0592(2)
C8 C 0.3278(6) -0.3533(4) -0.0021(3)
H7 H 0.3865 -0.2978 0.0320
C9 C 0.2161(6) -0.3893(4) 0.0061(3)
H8 H 0.2004 -0.3570 0.0453
C10 C 0.1263(4) -0.4714(3) -0.0417(2)
C11 C 0.1518(5) -0.5128(4) -0.1011(3)
H9 H 0.0910 -0.5668 -0.1366
C12 C 0.2638(5) -0.4771(4) -0.1099(3)
H10 H 0.2776 -0.5074 -0.1505
C13 C 0.0119(4) -0.5136(3) -0.0305(2)
H11 H -0.0507 -0.5644 -0.0697
C14 C 0.8902(3) -0.3778(2) -0.3672(2)
C15 C 1.0383(3) -0.3289(2) -0.33779(19)
C16 C 1.1021(3) -0.2556(2) -0.27191(19)
H12 H 1.0537 -0.2384 -0.2445
C17 C 1.2365(3) -0.2076(2) -0.24621(18)
C18 C 1.2972(3) -0.1214(2) -0.17921(19)
C19 C 1.3125(3) -0.2375(2) -0.28465(19)
H13 H 1.4033 -0.2061 -0.2676
C20 C 1.2527(3) -0.3146(2) -0.34852(19)
C21 C 1.3388(3) -0.3516(2) -0.38623(19)
C22 C 1.1142(3) -0.3581(2) -0.37605(19)
H14 H 1.0719 -0.4071 -0.4203
O8B O -0.5488(3) -0.7253(2) 0.01835(19)
N1B N -0.7306(3) -0.6199(2) 0.21073(16)
N2B N -0.5273(3) -0.5982(2) 0.10657(18)
H2B H -0.4838 -0.5405 0.1306
C1B C -0.8312(4) -0.6940(3) 0.1651(2)
H3B H -0.8960 -0.7153 0.1808
C2B C -0.8406(5) -0.7398(3) 0.0945(2)
H4B H -0.9133 -0.7899 0.0621
C3B C -0.7430(5) -0.7112(3) 0.0726(2)
H5B H -0.7465 -0.7434 0.0266
C4B C -0.6381(4) -0.6335(3) 0.1195(2)
C5B C -0.6398(4) -0.5891(3) 0.1860(2)
H6B H -0.5743 -0.5343 0.2158
C6B C -0.4836(4) -0.6472(3) 0.0596(2)
C7B C -0.3555(4) -0.6029(3) 0.0592(2)
C8B C -0.3278(6) -0.6467(4) 0.0021(3)
H7B H -0.3865 -0.7022 -0.0320
C9B C -0.2161(6) -0.6107(4) -0.0061(3)
H8B H -0.2004 -0.6430 -0.0453
C10B C -0.1263(4) -0.5286(3) 0.0417(2)
C11B C -0.1518(5) -0.4872(4) 0.1011(3)
H9B H -0.0910 -0.4332 0.1366
C12B C -0.2638(5) -0.5229(4) 0.1099(3)
H10B H -0.2776 -0.4926 0.1505
C13B C -0.0119(4) -0.4864(3) 0.0305(2)
H11B H 0.0507 -0.4356 0.0697
Cu1B Cu -0.64797(4) -0.59710(3) 0.33545(2)
Cu2B Cu -0.65200(4) -0.48375(3) 0.48649(2)
O1B O -0.8408(3) -0.6371(2) 0.32021(14)
O2B O -0.5415(2) -0.58579(15) 0.46010(12)
H1B H -0.6313 -0.6095 0.4342
O3B O -0.8287(2) -0.57044(17) 0.43641(14)
O4B O -1.2738(2) -0.58612(17) 0.44861(14)
O5B O -1.4705(2) -0.68237(16) 0.35135(13)
O6B O -1.3937(3) -0.93825(17) 0.17594(14)
O7B O -1.2452(3) -0.88605(18) 0.13351(14)
C14B C -0.8902(3) -0.6222(2) 0.3672(2)
C15B C -1.0383(3) -0.6711(2) 0.33779(19)
C16B C -1.1021(3) -0.7444(2) 0.27191(19)
H12B H -1.0537 -0.7616 0.2445
C17B C -1.2365(3) -0.7924(2) 0.24621(18)
C18B C -1.2972(3) -0.8786(2) 0.17921(19)
C19B C -1.3125(3) -0.7625(2) 0.28465(19)
H13B H -1.4033 -0.7939 0.2676
C20B C -1.2527(3) -0.6854(2) 0.34852(19)
C21B C -1.3388(3) -0.6484(2) 0.38623(19)
C22B C -1.1142(3) -0.6419(2) 0.37605(19)
H14B H -1.0719 -0.5929 0.4203
Cu1_2 Cu 1.64797(4) -0.40290(3) -0.33545(2)
Cu1A Cu 1.35203(4) 0.09710(3) -0.16455(2)
Cu1B_2 Cu -1.64797(4) -0.59710(3) 0.33545(2)
Cu1C Cu -1.35203(4) -1.09710(3) 0.16455(2)
Cu2_2 Cu -1.34800(4) -0.51625(3) 0.51351(2)
Cu2_3 Cu -0.34800(4) -0.51625(3) 0.51351(2)
Cu2A Cu 1.34800(4) -0.01625(3) -0.01351(2)
Cu2B_2 Cu 0.34800(4) -0.48375(3) -0.51351(2)
Cu2B_3 Cu 1.34800(4) -0.48375(3) -0.51351(2)
Cu2C Cu -1.34800(4) -0.98375(3) 0.01351(2)
O2_2 O -0.4585(2) -0.41421(15) 0.53990(12)
O2B_2 O 0.4585(2) -0.58579(15) -0.53990(12)
O4_2 O -0.7262(2) -0.41388(17) 0.55139(14)
O4B_2 O 0.7262(2) -0.58612(17) -0.55139(14)
O5_2 O 0.4705(2) -0.31763(16) -0.35135(13)
O5B_2 O -0.4705(2) -0.68237(16) 0.35135(13)
O6A O 0.6063(3) -0.56175(17) -0.32406(14)
O6C O -0.6063(3) -0.43825(17) 0.32406(14)
O7A O 0.7548(3) -0.61395(18) -0.36649(14)
O7C O -0.7548(3) -0.38605(18) 0.36649(14)
loop_
_geom_bond_atom_site_label_1
_geom_bond_atom_site_label_2
_geom_bond_site_symmetry_1
_geom_bond_site_symmetry_2
Cu1 O1 1_555 1_555
Cu2 O2 1_555 1_555
O1 C14 1_555 1_555
O2 Cu1 1_555 1_555
H1 O2 1_555 1_555
O3 Cu2 1_555 1_555
O4 C21 1_555 1_555
O5 C21 1_555 1_555
O6 C18 1_555 1_555
O7 C18 1_555 1_555
O8 C6 1_555 1_555
N1 Cu1 1_555 1_555
N2 H2 1_555 1_555
C1 N1 1_555 1_555
H3 C1 1_555 1_555
C2 C1 1_555 1_555
H4 C2 1_555 1_555
C3 C2 1_555 1_555
H5 C3 1_555 1_555
C4 N2 1_555 1_555
C5 N1 1_555 1_555
H6 C5 1_555 1_555
C6 N2 1_555 1_555
C7 C6 1_555 1_555
C8 C7 1_555 1_555
H7 C8 1_555 1_555
C9 C8 1_555 1_555
H8 C9 1_555 1_555
C10 C9 1_555 1_555
C11 C10 1_555 1_555
H9 C11 1_555 1_555
C12 C7 1_555 1_555
H10 C12 1_555 1_555
C13 C10 1_555 1_555
H11 C13 1_555 1_555
C14 O3 1_555 1_555
C15 C14 1_555 1_555
C16 C15 1_555 1_555
H12 C16 1_555 1_555
C17 C16 1_555 1_555
C18 C17 1_555 1_555
C19 C17 1_555 1_555
H13 C19 1_555 1_555
C20 C19 1_555 1_555
C21 C20 1_555 1_555
C22 C15 1_555 1_555
H14 C22 1_555 1_555
O8B C6B 1_555 1_555
N1B C1B 1_555 1_555
N2B H2B 1_555 1_555
C1B H3B 1_555 1_555
C2B C1B 1_555 1_555
H4B C2B 1_555 1_555
C3B C2B 1_555 1_555
H5B C3B 1_555 1_555
C4B N2B 1_555 1_555
C5B N1B 1_555 1_555
H6B C5B 1_555 1_555
C6B N2B 1_555 1_555
C7B C6B 1_555 1_555
C8B C7B 1_555 1_555
H7B C8B 1_555 1_555
C9B C8B 1_555 1_555
H8B C9B 1_555 1_555
C10B C9B 1_555 1_555
C11B C10B 1_555 1_555
H9B C11B 1_555 1_555
C12B C7B 1_555 1_555
H10B C12B 1_555 1_555
C13B C13 1_555 1_555
H11B C13B 1_555 1_555
Cu1B N1B 1_555 1_555
Cu2B O2B 1_555 1_555
O1B Cu1B 1_555 1_555
O2B Cu1B 1_555 1_555
H1B O2B 1_555 1_555
O3B Cu2B 1_555 1_555
O4B C21B 1_555 1_555
O5B C21B 1_555 1_555
O6B C18B 1_555 1_555
O7B C18B 1_555 1_555
C14B O1B 1_555 1_555
C15B C14B 1_555 1_555
C16B C15B 1_555 1_555
H12B C16B 1_555 1_555
C17B C16B 1_555 1_555
C18B C17B 1_555 1_555
C19B C17B 1_555 1_555
H13B C19B 1_555 1_555
C20B C19B 1_555 1_555
C21B C20B 1_555 1_555
C22B C15B 1_555 1_555
H14B C22B 1_555 1_555
Cu1_2 O5 1_555 1_555
Cu1A O6 1_555 1_555
Cu1B_2 O5B 1_555 1_555
Cu1C O6B 1_555 1_555
Cu2_2 O4B 1_555 1_555
Cu2_3 O2B 1_555 1_555
Cu2A O7 1_555 1_555
Cu2B_2 O2 1_555 1_555
Cu2B_3 O4 1_555 1_555
Cu2C O7B 1_555 1_555
O2_2 Cu2B 1_555 1_555
O2B_2 Cu2 1_555 1_555
O4_2 Cu2B 1_555 1_555
O4B_2 Cu2 1_555 1_555
O5_2 Cu1 1_555 1_555
O5B_2 Cu1B 1_555 1_555
O6A Cu1 1_555 1_555
O6C Cu1B 1_555 1_555
O7A Cu2 1_555 1_555
O7C Cu2B 1_555 1_555
C3 C4 1_555 1_555
C4 C5 1_555 1_555
C11 C12 1_555 1_555
C20 C22 1_555 1_555
C3B C4B 1_555 1_555
C4B C5B 1_555 1_555
C10B C13B 1_555 1_555
C11B C12B 1_555 1_555
O3B C14B 1_555 1_555
C20B C22B 1_555 1_555
Cu2_3 O2_2 1_555 1_555
Cu2B_2 O2B_2 1_555 1_555

#END
