
#######################################################################
#
#                 Cambridge Crystallographic Data Centre
#                                CCDC 
#
#######################################################################
#
# If this CIF has been generated from an entry in the Cambridge 
# Structural Database, then it will include bibliographic, chemical, 
# crystal, experimental, refinement or atomic coordinate data resulting 
# from the CCDC's data processing and validation procedures.
#
#######################################################################

data_CUGYEK
_symmetry_cell_setting           tetragonal
_symmetry_space_group_name_H-M   'I 41/a m d'
_symmetry_Int_Tables_number      141
_space_group_name_Hall           '-I 4bd 2'
loop_
_symmetry_equiv_pos_site_id
_symmetry_equiv_pos_as_xyz
1 x,y,z
2 1/2-x,-y,1/2+z
3 1/4-y,3/4+x,1/4+z
4 1/4+y,1/4-x,3/4+z
5 1/2-x,y,1/2-z
6 x,-y,-z
7 1/4+y,3/4+x,1/4-z
8 1/4-y,1/4-x,3/4-z
9 1/2+x,1/2+y,1/2+z
10 -x,1/2-y,z
11 3/4-y,1/4+x,3/4+z
12 3/4+y,3/4-x,1/4+z
13 -x,1/2+y,-z
14 1/2+x,1/2-y,1/2-z
15 3/4+y,1/4+x,3/4-z
16 3/4-y,3/4-x,1/4-z
17 -x,-y,-z
18 1/2+x,y,1/2-z
19 3/4+y,1/4-x,3/4-z
20 3/4-y,3/4+x,1/4-z
21 1/2+x,-y,1/2+z
22 -x,y,z
23 3/4-y,1/4-x,3/4+z
24 3/4+y,3/4+x,1/4+z
25 1/2-x,1/2-y,1/2-z
26 x,1/2+y,-z
27 1/4+y,3/4-x,1/4-z
28 1/4-y,1/4+x,3/4-z
29 x,1/2-y,z
30 1/2-x,1/2+y,1/2+z
31 1/4-y,3/4-x,1/4+z
32 1/4+y,1/4+x,3/4+z
_cell_length_a                   29.415(3)
_cell_length_b                   29.415(3)
_cell_length_c                   3.5250(4)
_cell_angle_alpha                90
_cell_angle_beta                 90
_cell_angle_gamma                90
_cell_volume                     3049.98
loop_
_atom_site_label
_atom_site_type_symbol
_atom_site_fract_x
_atom_site_fract_y
_atom_site_fract_z
O1 O 0.2500 0.3651(10) 0.7500
H4 H 0.2674 0.3822 0.8787
H4D H 0.2326 0.3822 0.6213
O2 O 0.180(6) 0.433(6) 0.99(5)
O2N O 0.183(6) 0.430(6) 0.76(5)
Ag1 Ag 0.44089(2) 0.30911(2) 0.1250
Ag2 Ag 0.2500 0.2500 0.7500
Cl1 Cl 0.5000 0.2500 0.6250
N1 N 0.38248(12) 0.27288(13) 0.3169(11)
N2 N 0.31618(19) 0.2500 0.5267(19)
C1 C 0.34198(15) 0.2854(2) 0.4435(15)
C2 C 0.3252(5) 0.3313(5) 0.487(5)
H1 H 0.2932 0.3305 0.5399
H2 H 0.3303 0.3479 0.2562
H3 H 0.3408 0.3459 0.6919
N1BA N 0.38248(12) 0.22712(13) 0.3169(11)
C1BA C 0.34198(15) 0.2146(2) 0.4435(15)
C2BA C 0.3252(5) 0.1687(5) 0.487(5)
H1BA H 0.2932 0.1695 0.5399
H2BA H 0.3303 0.1521 0.2562
H3BA H 0.3408 0.1541 0.6919
N1D N 0.11752(12) 0.27288(13) 1.1831(11)
N2D N 0.18382(19) 0.2500 0.9733(19)
C1D C 0.15802(15) 0.2854(2) 1.0565(15)
C2D C 0.1748(5) 0.3313(5) 1.013(5)
H1D H 0.2068 0.3305 0.9601
H2D H 0.1697 0.3479 1.2438
H3D H 0.1592 0.3459 0.8081
N1X N 0.11752(12) 0.22712(13) 1.1831(11)
C1X C 0.15802(15) 0.2146(2) 1.0565(15)
C2X C 0.1748(5) 0.1687(5) 1.013(5)
H1X H 0.2068 0.1695 0.9601
H2X H 0.1697 0.1521 1.2438
H3X H 0.1592 0.1541 0.8081
Ag1F Ag 0.55911(2) 0.19089(2) 0.1250
Ag2C Ag 0.5000 0.0000 -0.5000
N1F N 0.52288(13) 0.13248(12) -0.0669(11)
N2F N 0.5000 0.06618(19) -0.2767(19)
C1F C 0.5354(2) 0.09198(15) -0.1935(15)
C2F C 0.5813(5) 0.0752(5) -0.237(5)
H1F H 0.5805 0.0432 -0.2899
H2F H 0.5979 0.0803 -0.0062
H3F H 0.5959 0.0908 -0.4419
N1S N 0.47712(13) 0.13248(12) -0.0669(11)
C1S C 0.4646(2) 0.09198(15) -0.1935(15)
C2S C 0.4187(5) 0.0752(5) -0.237(5)
H1S H 0.4195 0.0432 -0.2899
H2S H 0.4021 0.0803 -0.0062
H3S H 0.4041 0.0908 -0.4419
Ag1S Ag 0.44089(2) 0.19089(2) 0.1250
Ag1U Ag 0.55911(2) 0.30911(2) 0.1250
N1O N 0.47712(13) 0.36752(12) -0.0669(11)
N2O N 0.5000 0.43382(19) -0.2767(19)
C1O C 0.4646(2) 0.40802(15) -0.1935(15)
C2O C 0.4187(5) 0.4248(5) -0.237(5)
H1O H 0.4195 0.4568 -0.2899
H2O H 0.4021 0.4197 -0.0062
H3O H 0.4041 0.4092 -0.4419
N1Z N 0.52288(13) 0.36752(12) -0.0669(11)
C1Z C 0.5354(2) 0.40802(15) -0.1935(15)
C2Z C 0.5813(5) 0.4248(5) -0.237(5)
H1Z H 0.5805 0.4568 -0.2899
H2Z H 0.5979 0.4197 -0.0062
H3Z H 0.5959 0.4092 -0.4419
Ag1_2 Ag 0.44089(2) 0.30911(2) 1.1250
Ag1D Ag 0.05911(2) 0.30911(2) 1.3750
Ag1F_2 Ag 0.55911(2) 0.19089(2) 1.1250
Ag1S_2 Ag 0.44089(2) 0.19089(2) 1.1250
Ag1U_2 Ag 0.55911(2) 0.30911(2) 1.1250
Ag1W Ag 0.05911(2) 0.19089(2) 1.3750
Ag2J Ag 0.5000 0.5000 -0.5000
Cl1_2 Cl 0.5000 0.2500 -0.3750
N1I N 0.61752(12) 0.22712(13) 0.3169(11)
N1U N 0.61752(12) 0.27288(13) 0.3169(11)
N2C N 0.5000 -0.06618(19) -0.7233(19)
O3? O 0.211(3) 0.391(3) 1.02(3)
H5? H 0.2121 0.3761 1.2338
H6? H 0.1832 0.3921 0.9527
O4? O 0.2500 0.420(9) 1.2500
H7? H 0.2720 0.4017 1.2425
H8? H 0.2609 0.4471 1.2354
O5? O 0.2500 0.429(6) 0.7500
H9? H 0.2675 0.4123 0.8798
H10? H 0.2526 0.4525 0.8914
O6? O 0.181(4) 0.431(4) 0.3750
H11? H 0.1645 0.4218 0.3643
H12? H 0.2016 0.4650 0.3750
O7? O 0.232(6) 0.453(3) 1.01(5)
H13? H 0.2579 0.4466 1.1073
H14? H 0.2081 0.4631 1.1109
H15? H 0.2136 0.4148 0.8615
H16? H 0.1747 0.4371 0.7323
H17? H 0.3328 0.3155 0.4707
loop_
_geom_bond_atom_site_label_1
_geom_bond_atom_site_label_2
_geom_bond_site_symmetry_1
_geom_bond_site_symmetry_2
Ag1 Cl1 1_555 1_555
Ag2 N2 1_555 1_555
Cl1 Ag1F 1_555 1_555
N1 Ag1 1_555 1_555
N2 C1 1_555 1_555
C1 N1 1_555 1_555
C2 C1 1_555 1_555
H1 C2 1_555 1_555
H2 C2 1_555 1_555
H3 C2 1_555 1_555
O1 H4 1_555 1_555
N1BA N1 1_555 1_555
C1BA N2 1_555 1_555
C2BA C1BA 1_555 1_555
H1BA C2BA 1_555 1_555
H2BA C2BA 1_555 1_555
H3BA C2BA 1_555 1_555
N1D C1D 1_555 1_555
N2D Ag2 1_555 1_555
C1D N2D 1_555 1_555
C2D C1D 1_555 1_555
H1D C2D 1_555 1_555
H2D C2D 1_555 1_555
H3D C2D 1_555 1_555
N1X N1D 1_555 1_555
C1X N2D 1_555 1_555
C2X C1X 1_555 1_555
H1X C2X 1_555 1_555
H2X C2X 1_555 1_555
H3X C2X 1_555 1_555
Ag1F N1F 1_555 1_555
Ag2C N2F 1_555 1_555
N1F C1F 1_555 1_555
N2F C1F 1_555 1_555
C1F C2F 1_555 1_555
C2F H1F 1_555 1_555
H2F C2F 1_555 1_555
H3F C2F 1_555 1_555
N1S N1F 1_555 1_555
C1S N2F 1_555 1_555
C2S C1S 1_555 1_555
H1S C2S 1_555 1_555
H2S C2S 1_555 1_555
H3S C2S 1_555 1_555
Ag1S Cl1 1_555 1_555
Ag1U Cl1 1_555 1_555
N1O Ag1 1_555 1_555
N2O C1O 1_555 1_555
C1O N1O 1_555 1_555
C2O C1O 1_555 1_555
H1O C2O 1_555 1_555
H2O C2O 1_555 1_555
H3O C2O 1_555 1_555
N1Z Ag1U 1_555 1_555
C1Z N2O 1_555 1_555
C2Z C1Z 1_555 1_555
H1Z C2Z 1_555 1_555
H2Z C2Z 1_555 1_555
H3Z C2Z 1_555 1_555
Ag1_2 Cl1 1_555 1_555
Ag1D N1D 1_555 1_555
Ag1F_2 Cl1 1_555 1_555
Ag1S_2 Cl1 1_555 1_555
Ag1U_2 Cl1 1_555 1_555
Ag1W N1X 1_555 1_555
Ag2J N2O 1_555 1_555
Cl1_2 Ag1 1_555 1_555
N1I Ag1F 1_555 1_555
N1U Ag1U 1_555 1_555
N2C Ag2C 1_555 1_555
H4D O1 1_555 1_555
N1BA C1BA 1_555 1_555
N1BA Ag1S 1_555 1_555
N1X C1X 1_555 1_555
Ag1F Cl1_2 1_555 1_555
N1S C1S 1_555 1_555
N1S Ag1S 1_555 1_555
Ag1S Cl1_2 1_555 1_555
Ag1U Cl1_2 1_555 1_555
N1O N1Z 1_555 1_555
N1Z C1Z 1_555 1_555
N1I N1U 1_555 1_555

#END
