
#######################################################################
#
#                 Cambridge Crystallographic Data Centre
#                                CCDC 
#
#######################################################################
#
# If this CIF has been generated from an entry in the Cambridge 
# Structural Database, then it will include bibliographic, chemical, 
# crystal, experimental, refinement or atomic coordinate data resulting 
# from the CCDC's data processing and validation procedures.
#
#######################################################################

data_CUGZOT
_symmetry_cell_setting           triclinic
_symmetry_space_group_name_H-M   'P -1'
_symmetry_Int_Tables_number      2
_space_group_name_Hall           '-P 1'
loop_
_symmetry_equiv_pos_site_id
_symmetry_equiv_pos_as_xyz
1 x,y,z
2 -x,-y,-z
_cell_length_a                   9.452(3)
_cell_length_b                   8.077(3)
_cell_length_c                   5.779(1)
_cell_angle_alpha                104.33(2)
_cell_angle_beta                 96.64(2)
_cell_angle_gamma                100.83(3)
_cell_volume                     413.712
loop_
_atom_site_label
_atom_site_type_symbol
_atom_site_fract_x
_atom_site_fract_y
_atom_site_fract_z
Cu1 Cu 0.34679(5) 0.00994(5) -0.62156(6)
N1 N 0.3266(3) -0.0892(3) -0.9646(4)
C1 C 0.3438(3) -0.1421(3) -1.1615(5)
S1 S 0.62906(9) 0.21879(10) -0.55735(12)
N2 N 0.2701(2) 0.1930(3) -0.4028(4)
C2 C 0.1449(3) 0.2413(4) -0.4606(5)
C3 C 0.1014(4) 0.3713(5) -0.2991(8)
C4 C 0.1830(4) 0.4525(5) -0.0764(8)
C5 C 0.3092(4) 0.4023(5) -0.0141(6)
C6 C 0.3483(3) 0.2734(4) -0.1796(5)
C7 C 0.0565(4) 0.1453(7) -0.7065(8)
H1 H 0.110(5) 0.157(6) -0.817(9)
H2 H 0.036(5) 0.026(6) -0.724(9)
H3 H -0.015(5) 0.177(5) -0.742(9)
H4 H 0.024(4) 0.401(5) -0.342(7)
H5 H 0.158(4) 0.544(5) 0.033(7)
H6 H 0.368(4) 0.441(5) 0.128(7)
H7 H 0.443(4) 0.236(4) -0.142(6)
S1A S 0.37094(9) -0.21879(10) -0.44265(12)
S1A_2 S 0.37094(9) -0.21879(10) -1.44265(12)
Cu1A Cu 0.65321(5) -0.00994(5) -0.37844(6)
C1A C 0.6562(3) 0.1421(3) -0.8385(5)
N1A N 0.6734(3) 0.0892(3) -0.0354(4)
N2A N 0.7299(2) -0.1930(3) -0.5972(4)
N1A_2 N 0.6734(3) 0.0892(3) -1.0354(4)
C2A C 0.8551(3) -0.2413(4) -0.5394(5)
C6A C 0.6517(3) -0.2734(4) -0.8204(5)
C3A C 0.8986(4) -0.3713(5) -0.7009(8)
C7A C 0.9435(4) -0.1453(7) -0.2935(8)
C5A C 0.6908(4) -0.4023(5) -0.9859(6)
H7A H 0.557(4) -0.236(4) -0.858(6)
C4A C 0.8170(4) -0.4525(5) -0.9236(8)
H4A H 0.976(4) -0.401(5) -0.658(7)
H1A H 0.890(5) -0.157(6) -0.183(9)
H2A H 0.964(5) -0.026(6) -0.276(9)
H3A H 1.015(5) -0.177(5) -0.258(9)
H6A H 0.632(4) -0.441(5) -1.128(7)
H5A H 0.842(4) -0.544(5) -1.033(7)
Cu1_2 Cu 0.34679(5) 0.00994(5) -1.62156(6)
Cu1A_2 Cu 0.65321(5) -0.00994(5) -1.37844(6)
loop_
_geom_bond_atom_site_label_1
_geom_bond_atom_site_label_2
_geom_bond_site_symmetry_1
_geom_bond_site_symmetry_2
Cu1 N1 1_555 1_555
N1 C1 1_555 1_555
C1 S1A_2 1_555 1_555
S1 Cu1 1_555 1_555
N2 Cu1 1_555 1_555
C2 N2 1_555 1_555
C3 C2 1_555 1_555
C4 C3 1_555 1_555
C5 C4 1_555 1_555
C6 N2 1_555 1_555
C7 C2 1_555 1_555
H1 C7 1_555 1_555
H2 C7 1_555 1_555
H3 C7 1_555 1_555
H4 C3 1_555 1_555
H5 C4 1_555 1_555
H6 C5 1_555 1_555
H7 C6 1_555 1_555
S1A Cu1 1_555 1_555
S1A_2 Cu1_2 1_555 1_555
Cu1A S1 1_555 1_555
C1A S1 1_555 1_555
N1A Cu1A 1_555 1_555
N2A Cu1A 1_555 1_555
N1A_2 C1A 1_555 1_555
C2A N2A 1_555 1_555
C6A N2A 1_555 1_555
C3A C2A 1_555 1_555
C7A C2A 1_555 1_555
C5A C6A 1_555 1_555
H7A C6A 1_555 1_555
C4A C3A 1_555 1_555
H4A C3A 1_555 1_555
H1A C7A 1_555 1_555
H2A C7A 1_555 1_555
H3A C7A 1_555 1_555
H6A C5A 1_555 1_555
H5A C4A 1_555 1_555
Cu1A_2 S1A_2 1_555 1_555
C5 C6 1_555 1_555
S1A Cu1A 1_555 1_555
N1A_2 Cu1A_2 1_555 1_555
C5A C4A 1_555 1_555

#END
