
#######################################################################
#
#                 Cambridge Crystallographic Data Centre
#                                CCDC 
#
#######################################################################
#
# If this CIF has been generated from an entry in the Cambridge 
# Structural Database, then it will include bibliographic, chemical, 
# crystal, experimental, refinement or atomic coordinate data resulting 
# from the CCDC's data processing and validation procedures.
#
#######################################################################

data_CUGZUZ
_symmetry_cell_setting           monoclinic
_symmetry_space_group_name_H-M   'P 21/c'
_symmetry_Int_Tables_number      14
_space_group_name_Hall           '-P 2ybc'
loop_
_symmetry_equiv_pos_site_id
_symmetry_equiv_pos_as_xyz
1 x,y,z
2 -x,1/2+y,1/2-z
3 -x,-y,-z
4 x,1/2-y,1/2+z
_cell_length_a                   7.721(2)
_cell_length_b                   7.753(2)
_cell_length_c                   16.113(4)
_cell_angle_alpha                90
_cell_angle_beta                 90.67(2)
_cell_angle_gamma                90
_cell_volume                     964.473
loop_
_atom_site_label
_atom_site_type_symbol
_atom_site_fract_x
_atom_site_fract_y
_atom_site_fract_z
Cu1 Cu 0.21013(6) 0.11883(6) 0.17978(3)
N1 N 0.0808(5) 0.0262(4) 0.2702(2)
C1 C -0.0084(5) -0.0417(5) 0.3157(3)
S1 S 0.1413(2) 0.3669(1) 0.11730(7)
N2 N 0.4033(4) -0.0172(4) 0.1315(2)
C2 C 0.3683(5) -0.1462(5) 0.0772(2)
C3 C 0.1824(6) -0.1701(6) 0.0525(3)
C4 C 0.4992(6) -0.2512(5) 0.0479(2)
C5 C 0.6665(6) -0.2274(6) 0.0750(3)
C6 C 0.7029(5) -0.0947(6) 0.1293(3)
C7 C 0.5681(5) 0.0088(5) 0.1560(2)
C8 C 0.5995(6) 0.1556(7) 0.2147(3)
H1 H 0.131 -0.069 0.038
H2 H 0.110 -0.195 0.098
H3 H 0.193 -0.269 0.00000
H4 H 0.473 -0.340 0.007
H5 H 0.755 -0.309 0.057
H6 H 0.819 -0.074 0.149
H7 H 0.706 0.180 0.227
H8 H 0.562 0.262 0.193
H9 H 0.522 0.135 0.262
S1A S -0.1413(2) -0.1331(1) 0.38270(7)
C1A C 0.0084(5) 0.4583(5) 0.1843(3)
Cu1A Cu -0.21013(6) -0.38117(6) 0.32022(3)
N1A N -0.0808(5) 0.5262(4) 0.2298(2)
N1A_2 N -0.0808(5) -0.4738(4) 0.2298(2)
N2A N -0.4033(4) -0.5172(4) 0.3685(2)
Cu1A_2 Cu -0.21013(6) 0.61883(6) 0.32022(3)
C2A C -0.3683(5) -0.6462(5) 0.4228(2)
C7A C -0.5681(5) -0.4912(5) 0.3440(2)
C3A C -0.1824(6) -0.6701(6) 0.4475(3)
C4A C -0.4992(6) -0.7512(5) 0.4521(2)
C6A C -0.7029(5) -0.5947(6) 0.3707(3)
C8A C -0.5995(6) -0.3444(7) 0.2853(3)
H1A H -0.131 -0.569 0.462
H2A H -0.110 -0.695 0.402
H3A H -0.193 -0.769 0.50000
C5A C -0.6665(6) -0.7274(6) 0.4250(3)
H4A H -0.473 -0.840 0.493
H6A H -0.819 -0.574 0.351
H7A H -0.706 -0.320 0.273
H8A H -0.562 -0.238 0.307
H9A H -0.522 -0.365 0.238
H5A H -0.755 -0.809 0.443
loop_
_geom_bond_atom_site_label_1
_geom_bond_atom_site_label_2
_geom_bond_site_symmetry_1
_geom_bond_site_symmetry_2
Cu1 N1 1_555 1_555
N1 C1 1_555 1_555
C1 S1A 1_555 1_555
S1 Cu1 1_555 1_555
N2 Cu1 1_555 1_555
C2 N2 1_555 1_555
C3 C2 1_555 1_555
C4 C2 1_555 1_555
C5 C4 1_555 1_555
C6 C5 1_555 1_555
C7 N2 1_555 1_555
C8 C7 1_555 1_555
H1 C3 1_555 1_555
H2 C3 1_555 1_555
H3 C3 1_555 1_555
H4 C4 1_555 1_555
H5 C5 1_555 1_555
H6 C6 1_555 1_555
H7 C8 1_555 1_555
H8 C8 1_555 1_555
H9 C8 1_555 1_555
S1A Cu1A 1_555 1_555
C1A S1 1_555 1_555
Cu1A N1A_2 1_555 1_555
N1A C1A 1_555 1_555
N2A Cu1A 1_555 1_555
Cu1A_2 N1A 1_555 1_555
C2A N2A 1_555 1_555
C7A N2A 1_555 1_555
C3A C2A 1_555 1_555
C4A C2A 1_555 1_555
C6A C7A 1_555 1_555
C8A C7A 1_555 1_555
H1A C3A 1_555 1_555
H2A C3A 1_555 1_555
H3A C3A 1_555 1_555
C5A C4A 1_555 1_555
H4A C4A 1_555 1_555
H6A C6A 1_555 1_555
H7A C8A 1_555 1_555
H8A C8A 1_555 1_555
H9A C8A 1_555 1_555
H5A C5A 1_555 1_555
C6 C7 1_555 1_555
C6A C5A 1_555 1_555

#END
