
#######################################################################
#
#                 Cambridge Crystallographic Data Centre
#                                CCDC 
#
#######################################################################
#
# If this CIF has been generated from an entry in the Cambridge 
# Structural Database, then it will include bibliographic, chemical, 
# crystal, experimental, refinement or atomic coordinate data resulting 
# from the CCDC's data processing and validation procedures.
#
#######################################################################

data_CUHBUC
_symmetry_cell_setting           orthorhombic
_symmetry_space_group_name_H-M   'P 21 21 21'
_symmetry_Int_Tables_number      19
_space_group_name_Hall           'P 2ac 2ab'
loop_
_symmetry_equiv_pos_site_id
_symmetry_equiv_pos_as_xyz
1 x,y,z
2 1/2-x,-y,1/2+z
3 1/2+x,1/2-y,-z
4 -x,1/2+y,1/2-z
_cell_length_a                   16.219(4)
_cell_length_b                   12.838(3)
_cell_length_c                   8.032(2)
_cell_angle_alpha                90
_cell_angle_beta                 90
_cell_angle_gamma                90
_cell_volume                     1672.42
loop_
_atom_site_label
_atom_site_type_symbol
_atom_site_fract_x
_atom_site_fract_y
_atom_site_fract_z
Cu1 Cu 0.1901(1) 0.1583(1) 0.0911(2)
N1 N 0.2577(8) 0.0705(9) 0.2447(16)
C1 C 0.3016(10) 0.0134(11) 0.3078(18)
S1 S 0.1256(2) 0.0636(3) -0.1125(5)
N2 N 0.0975(6) 0.2205(6) 0.244(1)
N3 N 0.2776(6) 0.2762(6) 0.041(1)
C2 C 0.0953(6) 0.1946(8) 0.401(2)
C3 C 0.3237(8) 0.3035(9) 0.169(1)
C4 C 0.0349(8) 0.2279(11) 0.508(2)
C5 C 0.3847(8) 0.3784(9) 0.160(2)
C6 C -0.0253(8) 0.2916(9) 0.458(2)
C7 C 0.3984(8) 0.4323(10) 0.016(2)
C8 C -0.0265(7) 0.3230(9) 0.286(2)
C9 C 0.3503(7) 0.4087(8) -0.127(2)
C10 C -0.0879(8) 0.3882(9) 0.224(2)
C11 C 0.3614(9) 0.4592(10) -0.282(2)
C12 C -0.0827(8) 0.4163(9) 0.057(2)
C13 C 0.3081(9) 0.4368(10) -0.403(2)
C14 C -0.0209(8) 0.3817(9) -0.048(2)
C15 C 0.2499(8) 0.3553(10) -0.396(2)
C16 C 0.0374(7) 0.3182(9) 0.015(2)
C17 C 0.2400(8) 0.3060(8) -0.248(2)
C18 C 0.0383(8) 0.2823(8) 0.187(1)
C19 C 0.2892(6) 0.3279(8) -0.107(2)
H1 H 0.139 0.149 0.452
H2 H 0.314 0.271 0.281
H3 H 0.035 0.206 0.625
H4 H 0.419 0.398 0.260
H5 H -0.071 0.315 0.536
H6 H 0.443 0.484 0.006
H7 H -0.136 0.411 0.296
H8 H 0.405 0.514 -0.295
H9 H -0.125 0.463 0.011
H10 H 0.315 0.475 -0.513
H11 H -0.023 0.406 -0.161
H12 H 0.219 0.336 -0.496
H13 H 0.080 0.292 -0.063
H14 H 0.192 0.255 -0.236
S1A S 0.3744(2) -0.0636(3) 0.3875(5)
C1A C 0.1984(10) -0.0134(11) -0.1922(18)
Cu1A Cu 0.3099(1) -0.1583(1) 0.5911(2)
N1A N 0.2423(8) -0.0705(9) -0.2553(16)
N1A_2 N 0.2423(8) -0.0705(9) 0.7447(16)
N2A N 0.4025(6) -0.2205(6) 0.744(1)
N3A N 0.2224(6) -0.2762(6) 0.541(1)
Cu1A_2 Cu 0.3099(1) -0.1583(1) -0.4089(2)
C2A C 0.4047(6) -0.1946(8) 0.901(2)
C18A C 0.4617(8) -0.2823(8) 0.687(1)
C3A C 0.1763(8) -0.3035(9) 0.669(1)
C19A C 0.2108(6) -0.3279(8) 0.393(2)
C4A C 0.4651(8) -0.2279(11) 1.008(2)
H1A H 0.361 -0.149 0.952
C8A C 0.5265(7) -0.3230(9) 0.786(2)
C16A C 0.4626(7) -0.3182(9) 0.515(2)
C5A C 0.1153(8) -0.3784(9) 0.660(2)
H2A H 0.186 -0.271 0.781
C9A C 0.1497(7) -0.4087(8) 0.373(2)
C17A C 0.2600(8) -0.3060(8) 0.252(2)
C6A C 0.5253(8) -0.2916(9) 0.958(2)
H3A H 0.465 -0.206 1.125
C10A C 0.5879(8) -0.3882(9) 0.724(2)
C14A C 0.5209(8) -0.3817(9) 0.452(2)
H13A H 0.420 -0.292 0.437
C7A C 0.1016(8) -0.4323(10) 0.516(2)
H4A H 0.081 -0.398 0.760
C11A C 0.1386(9) -0.4592(10) 0.218(2)
C15A C 0.2501(8) -0.3553(10) 0.104(2)
H14A H 0.308 -0.255 0.264
H5A H 0.571 -0.315 1.036
C12A C 0.5827(8) -0.4163(9) 0.557(2)
H7A H 0.636 -0.411 0.796
H11A H 0.523 -0.406 0.339
H6A H 0.057 -0.484 0.506
C13A C 0.1919(9) -0.4368(10) 0.097(2)
H8A H 0.095 -0.514 0.205
H12A H 0.281 -0.336 0.004
H9A H 0.625 -0.463 0.511
H10A H 0.185 -0.475 -0.013
loop_
_geom_bond_atom_site_label_1
_geom_bond_atom_site_label_2
_geom_bond_site_symmetry_1
_geom_bond_site_symmetry_2
Cu1 N1 1_555 1_555
N1 C1 1_555 1_555
C1 S1A 1_555 1_555
S1 Cu1 1_555 1_555
N2 Cu1 1_555 1_555
N3 Cu1 1_555 1_555
C2 N2 1_555 1_555
C3 N3 1_555 1_555
C4 C2 1_555 1_555
C5 C3 1_555 1_555
C6 C4 1_555 1_555
C7 C5 1_555 1_555
C8 C6 1_555 1_555
C9 C7 1_555 1_555
C10 C8 1_555 1_555
C11 C9 1_555 1_555
C12 C10 1_555 1_555
C13 C11 1_555 1_555
C14 C12 1_555 1_555
C15 C13 1_555 1_555
C16 C14 1_555 1_555
C17 C15 1_555 1_555
C18 N2 1_555 1_555
C19 N3 1_555 1_555
H1 C2 1_555 1_555
H2 C3 1_555 1_555
H3 C4 1_555 1_555
H4 C5 1_555 1_555
H5 C6 1_555 1_555
H6 C7 1_555 1_555
H7 C10 1_555 1_555
H8 C11 1_555 1_555
H9 C12 1_555 1_555
H10 C13 1_555 1_555
H11 C14 1_555 1_555
H12 C15 1_555 1_555
H13 C16 1_555 1_555
H14 C17 1_555 1_555
S1A Cu1A 1_555 1_555
C1A S1 1_555 1_555
Cu1A N1A_2 1_555 1_555
N1A C1A 1_555 1_555
N2A Cu1A 1_555 1_555
N3A Cu1A 1_555 1_555
Cu1A_2 N1A 1_555 1_555
C2A N2A 1_555 1_555
C18A N2A 1_555 1_555
C3A N3A 1_555 1_555
C19A N3A 1_555 1_555
C4A C2A 1_555 1_555
H1A C2A 1_555 1_555
C8A C18A 1_555 1_555
C16A C18A 1_555 1_555
C5A C3A 1_555 1_555
H2A C3A 1_555 1_555
C9A C19A 1_555 1_555
C17A C19A 1_555 1_555
C6A C4A 1_555 1_555
H3A C4A 1_555 1_555
C10A C8A 1_555 1_555
C14A C16A 1_555 1_555
H13A C16A 1_555 1_555
C7A C5A 1_555 1_555
H4A C5A 1_555 1_555
C11A C9A 1_555 1_555
C15A C17A 1_555 1_555
H14A C17A 1_555 1_555
H5A C6A 1_555 1_555
C12A C10A 1_555 1_555
H7A C10A 1_555 1_555
H11A C14A 1_555 1_555
H6A C7A 1_555 1_555
C13A C11A 1_555 1_555
H8A C11A 1_555 1_555
H12A C15A 1_555 1_555
H9A C12A 1_555 1_555
H10A C13A 1_555 1_555
C8 C18 1_555 1_555
C9 C19 1_555 1_555
C16 C18 1_555 1_555
C17 C19 1_555 1_555
C8A C6A 1_555 1_555
C9A C7A 1_555 1_555
C14A C12A 1_555 1_555
C15A C13A 1_555 1_555

#END
