
#######################################################################
#
#                 Cambridge Crystallographic Data Centre
#                                CCDC 
#
#######################################################################
#
# If this CIF has been generated from an entry in the Cambridge 
# Structural Database, then it will include bibliographic, chemical, 
# crystal, experimental, refinement or atomic coordinate data resulting 
# from the CCDC's data processing and validation procedures.
#
#######################################################################

data_CUHBIQ01
_symmetry_cell_setting           monoclinic
_symmetry_space_group_name_H-M   'P 21'
_symmetry_Int_Tables_number      4
_space_group_name_Hall           'P 2yb'
loop_
_symmetry_equiv_pos_site_id
_symmetry_equiv_pos_as_xyz
1 x,y,z
2 -x,1/2+y,-z
_cell_length_a                   8.4138(8)
_cell_length_b                   5.8127(7)
_cell_length_c                   14.459(2)
_cell_angle_alpha                90
_cell_angle_beta                 106.783(9)
_cell_angle_gamma                90
_cell_volume                     677.024
loop_
_atom_site_label
_atom_site_type_symbol
_atom_site_fract_x
_atom_site_fract_y
_atom_site_fract_z
Cu1 Cu 0.49418(4) -0.44450 0.22090(2)
S1 S 0.72317(8) -0.1928(2) 0.26555(5)
N1 N 0.5643(3) 0.2355(5) 0.2369(2)
N2 N 0.3651(3) -0.3730(5) 0.3194(2)
N3 N 0.3489(3) -0.3561(5) 0.0847(2)
C1 C 0.6272(3) 0.0563(6) 0.2488(2)
C2 C 0.3749(3) -0.5084(5) 0.3960(2)
C3 C 0.3048(3) -0.4562(7) 0.4683(2)
C4 C 0.2178(3) -0.2521(6) 0.4641(2)
C5 C 0.2070(4) -0.1111(6) 0.3858(2)
C6 C 0.2808(3) -0.1745(7) 0.3163(2)
C7 C 0.1370(4) -0.1875(8) 0.5407(2)
C8 C 0.3695(4) -0.1614(6) 0.0403(2)
C9 C 0.2678(4) -0.0974(6) -0.0496(2)
C10 C 0.1384(3) -0.2400(6) -0.0976(2)
C11 C 0.1188(3) -0.4416(8) -0.0528(2)
C12 C 0.2239(4) -0.4941(6) 0.0375(2)
C13 C 0.0295(4) -0.1750(8) -0.1960(2)
H1 H 0.434 -0.658 0.400
H2 H 0.316 -0.566 0.522
H3 H 0.144 0.021 0.379
H4 H 0.275 -0.080 0.264
H5 H 0.174 -0.297 0.595
H6 H 0.166 -0.042 0.562
H7 H 0.019 -0.207 0.517
H8 H 0.459 -0.069 0.071
H9 H 0.289 0.034 -0.079
H10 H 0.031 -0.553 -0.084
H11 H 0.208 -0.643 0.067
H12 H 0.084 -0.209 -0.244
H13 H -0.071 -0.267 -0.211
H14 H 0.003 -0.021 -0.196
N1_2 N 0.5643(3) -0.7645(5) 0.2369(2)
Cu1_2 Cu 0.49418(4) 0.55550 0.22090(2)
loop_
_geom_bond_atom_site_label_1
_geom_bond_atom_site_label_2
_geom_bond_site_symmetry_1
_geom_bond_site_symmetry_2
Cu1 S1 1_555 1_555
S1 C1 1_555 1_555
N1 C1 1_555 1_555
N2 Cu1 1_555 1_555
N3 Cu1 1_555 1_555
C2 N2 1_555 1_555
C3 C2 1_555 1_555
C4 C3 1_555 1_555
C5 C4 1_555 1_555
C6 N2 1_555 1_555
C7 C4 1_555 1_555
C8 N3 1_555 1_555
C9 C8 1_555 1_555
C10 C9 1_555 1_555
C11 C10 1_555 1_555
C12 N3 1_555 1_555
C13 C10 1_555 1_555
H1 C2 1_555 1_555
H2 C3 1_555 1_555
H3 C5 1_555 1_555
H4 C6 1_555 1_555
H5 C7 1_555 1_555
H6 C7 1_555 1_555
H7 C7 1_555 1_555
H8 C8 1_555 1_555
H9 C9 1_555 1_555
H10 C11 1_555 1_555
H11 C12 1_555 1_555
H12 C13 1_555 1_555
H13 C13 1_555 1_555
H14 C13 1_555 1_555
N1_2 Cu1 1_555 1_555
Cu1_2 N1 1_555 1_555
C5 C6 1_555 1_555
C11 C12 1_555 1_555

#END
