
#######################################################################
#
#                 Cambridge Crystallographic Data Centre
#                                CCDC 
#
#######################################################################
#
# If this CIF has been generated from an entry in the Cambridge 
# Structural Database, then it will include bibliographic, chemical, 
# crystal, experimental, refinement or atomic coordinate data resulting 
# from the CCDC's data processing and validation procedures.
#
#######################################################################

data_CUHBIQ
_symmetry_cell_setting           monoclinic
_symmetry_space_group_name_H-M   'P 21'
_symmetry_Int_Tables_number      4
_space_group_name_Hall           'P 2yb'
loop_
_symmetry_equiv_pos_site_id
_symmetry_equiv_pos_as_xyz
1 x,y,z
2 -x,1/2+y,-z
_cell_length_a                   14.59(2)
_cell_length_b                   5.823(6)
_cell_length_c                   8.593(10)
_cell_angle_alpha                90
_cell_angle_beta                 106.44(10)
_cell_angle_gamma                90
_cell_volume                     700.194
loop_
_atom_site_label
_atom_site_type_symbol
_atom_site_fract_x
_atom_site_fract_y
_atom_site_fract_z
C1 C 0.2479(7) 0.5026(32) 0.1196(13)
Cu1 Cu 0.2207(1) 0.0000 -0.0119(2)
N1 N 0.2370(7) 0.3183(19) 0.0590(13)
S1 S 0.2646(3) 0.7467(6) 0.2122(4)
N2 N 0.0855(6) -0.084(2) -0.154(1)
C2 C 0.0394(9) 0.045(3) -0.273(2)
C3 C -0.0511(8) -0.004(3) -0.376(1)
C4 C -0.0959(9) -0.200(2) -0.357(1)
C5 C -0.0477(8) -0.338(2) -0.230(2)
C6 C 0.0414(9) -0.282(2) -0.132(1)
C7 C -0.1951(9) -0.263(3) -0.463(1)
N3 N 0.3189(7) -0.067(2) -0.141(1)
C8 C 0.3945(8) 0.056(2) -0.129(1)
C9 C 0.4673(7) 0.002(3) -0.196(1)
C10 C 0.4639(8) -0.195(2) -0.282(1)
C11 C 0.3849(9) -0.331(2) -0.297(2)
C12 C 0.3147(9) -0.272(2) -0.225(2)
C13 C 0.5412(9) -0.264(3) -0.356(2)
H1 H 0.071 0.188 -0.293
H2 H 0.401 0.196 -0.062
H3 H -0.085 0.109 -0.460
H4 H 0.519 0.117 -0.187
H5 H -0.238 -0.141 -0.453
H6 H 0.546 -0.144 -0.433
H7 H -0.193 -0.267 -0.572
H8 H 0.600 -0.271 -0.274
H9 H -0.229 -0.401 -0.450
H10 H 0.540 -0.404 -0.420
H11 H -0.079 -0.482 -0.209
H12 H 0.379 -0.475 -0.361
H13 H 0.075 -0.387 -0.049
H14 H 0.258 -0.372 -0.237
S1_2 S 0.2646(3) -0.2533(6) 0.2122(4)
Cu1_2 Cu 0.2207(1) 1.0000 -0.0119(2)
loop_
_geom_bond_atom_site_label_1
_geom_bond_atom_site_label_2
_geom_bond_site_symmetry_1
_geom_bond_site_symmetry_2
C1 N1 1_555 1_555
Cu1 N1 1_555 1_555
S1 C1 1_555 1_555
N2 Cu1 1_555 1_555
C2 N2 1_555 1_555
C3 C2 1_555 1_555
C4 C3 1_555 1_555
C5 C4 1_555 1_555
C6 N2 1_555 1_555
C7 C4 1_555 1_555
N3 Cu1 1_555 1_555
C8 N3 1_555 1_555
C9 C8 1_555 1_555
C10 C9 1_555 1_555
C11 C10 1_555 1_555
C12 N3 1_555 1_555
C13 C10 1_555 1_555
H1 C2 1_555 1_555
H2 C8 1_555 1_555
H3 C3 1_555 1_555
H4 C9 1_555 1_555
H5 C7 1_555 1_555
H6 C13 1_555 1_555
H7 C7 1_555 1_555
H8 C13 1_555 1_555
H9 C7 1_555 1_555
H10 C13 1_555 1_555
H11 C5 1_555 1_555
H12 C11 1_555 1_555
H13 C6 1_555 1_555
H14 C12 1_555 1_555
S1_2 Cu1 1_555 1_555
Cu1_2 S1 1_555 1_555
C5 C6 1_555 1_555
C11 C12 1_555 1_555

#END
