
#######################################################################
#
#                 Cambridge Crystallographic Data Centre
#                                CCDC 
#
#######################################################################
#
# If this CIF has been generated from an entry in the Cambridge 
# Structural Database, then it will include bibliographic, chemical, 
# crystal, experimental, refinement or atomic coordinate data resulting 
# from the CCDC's data processing and validation procedures.
#
#######################################################################

data_CUHBEM
_symmetry_cell_setting           monoclinic
_symmetry_space_group_name_H-M   'P 21/n'
_symmetry_Int_Tables_number      14
_space_group_name_Hall           '-P 2yn'
loop_
_symmetry_equiv_pos_site_id
_symmetry_equiv_pos_as_xyz
1 x,y,z
2 1/2-x,1/2+y,1/2-z
3 -x,-y,-z
4 1/2+x,1/2-y,1/2+z
_cell_length_a                   17.68(1)
_cell_length_b                   5.874(4)
_cell_length_c                   14.367(8)
_cell_angle_alpha                90
_cell_angle_beta                 112.91(4)
_cell_angle_gamma                90
_cell_volume                     1374.35
loop_
_atom_site_label
_atom_site_type_symbol
_atom_site_fract_x
_atom_site_fract_y
_atom_site_fract_z
C1 C 0.1794(2) 0.5432(5) -0.0399(2)
Cu1 Cu 0.24477(3) 0.04843(7) -0.00658(3)
N1 N 0.2082(2) 0.3662(5) -0.0247(2)
S1 S 0.13413(5) 0.79541(15) -0.06293(7)
N2 N 0.3134(2) -0.0084(4) 0.1457(2)
C2 C 0.3689(2) 0.1448(5) 0.2011(2)
C3 C 0.4144(2) 0.1257(6) 0.3037(2)
C4 C 0.3991(2) -0.0616(6) 0.3517(2)
C5 C 0.3423(2) -0.2188(6) 0.2970(3)
C6 C 0.3006(2) -0.1896(6) 0.1952(2)
C7 C 0.4767(2) 0.3030(7) 0.3605(3)
N3 N 0.3179(2) -0.0053(5) -0.0880(2)
C8 C 0.3785(2) 0.1384(6) -0.0803(2)
C9 C 0.4291(2) 0.1199(6) -0.1328(2)
C10 C 0.4130(2) -0.0592(7) -0.1997(3)
C11 C 0.3517(2) -0.2088(7) -0.2096(3)
C12 C 0.3052(2) -0.1781(6) -0.1533(2)
C13 C 0.4967(3) 0.2891(8) -0.1188(3)
H1 H 0.378 0.277 0.166
H2 H 0.388 0.265 -0.033
H3 H 0.516 0.314 0.330
H4 H 0.473 0.437 -0.134
H5 H 0.449 0.447 0.351
H6 H 0.533 0.288 -0.048
H7 H 0.509 0.293 0.432
H8 H 0.532 0.278 -0.154
H9 H 0.430 -0.082 0.424
H10 H 0.447 -0.081 -0.239
H11 H 0.332 -0.351 0.331
H12 H 0.341 -0.335 -0.257
H13 H 0.261 -0.302 0.156
H14 H 0.261 -0.288 -0.160
S1_2 S 0.13413(5) -0.20459(15) -0.06293(7)
Cu1_2 Cu 0.24477(3) 1.04843(7) -0.00658(3)
loop_
_geom_bond_atom_site_label_1
_geom_bond_atom_site_label_2
_geom_bond_site_symmetry_1
_geom_bond_site_symmetry_2
C1 N1 1_555 1_555
Cu1 N1 1_555 1_555
S1 C1 1_555 1_555
N2 Cu1 1_555 1_555
C2 N2 1_555 1_555
C3 C2 1_555 1_555
C4 C3 1_555 1_555
C5 C4 1_555 1_555
C6 N2 1_555 1_555
C7 C3 1_555 1_555
N3 Cu1 1_555 1_555
C8 N3 1_555 1_555
C9 C8 1_555 1_555
C10 C9 1_555 1_555
C11 C10 1_555 1_555
C12 N3 1_555 1_555
C13 C9 1_555 1_555
H1 C2 1_555 1_555
H2 C8 1_555 1_555
H3 C7 1_555 1_555
H4 C13 1_555 1_555
H5 C7 1_555 1_555
H6 C13 1_555 1_555
H7 C7 1_555 1_555
H8 C13 1_555 1_555
H9 C4 1_555 1_555
H10 C10 1_555 1_555
H11 C5 1_555 1_555
H12 C11 1_555 1_555
H13 C6 1_555 1_555
H14 C12 1_555 1_555
S1_2 Cu1 1_555 1_555
Cu1_2 S1 1_555 1_555
C5 C6 1_555 1_555
C11 C12 1_555 1_555

#END
