
#######################################################################
#
#                 Cambridge Crystallographic Data Centre
#                                CCDC 
#
#######################################################################
#
# If this CIF has been generated from an entry in the Cambridge 
# Structural Database, then it will include bibliographic, chemical, 
# crystal, experimental, refinement or atomic coordinate data resulting 
# from the CCDC's data processing and validation procedures.
#
#######################################################################

data_CUHBAI
_symmetry_cell_setting           orthorhombic
_symmetry_space_group_name_H-M   'F d d 2'
_symmetry_Int_Tables_number      43
_space_group_name_Hall           'F 2 -2d'
loop_
_symmetry_equiv_pos_site_id
_symmetry_equiv_pos_as_xyz
1 x,y,z
2 x,1/2+y,1/2+z
3 1/2+x,y,1/2+z
4 1/2+x,1/2+y,z
5 1/2-x,-y,1/2+z
6 1/4-x,1/4+y,1/4+z
7 1/2-x,1/2-y,z
8 1/4-x,3/4+y,3/4+z
9 -x,-y,z
10 3/4-x,1/4+y,3/4+z
11 -x,1/2-y,1/2+z
12 3/4-x,3/4+y,1/4+z
13 1/4+x,3/4-y,3/4+z
14 1/4+x,1/4-y,1/4+z
15 3/4+x,3/4-y,1/4+z
16 3/4+x,1/4-y,3/4+z
_cell_length_a                   43.68(1)
_cell_length_b                   16.402(4)
_cell_length_c                   8.064(3)
_cell_angle_alpha                90
_cell_angle_beta                 90
_cell_angle_gamma                90
_cell_volume                     5777.37
loop_
_atom_site_label
_atom_site_type_symbol
_atom_site_fract_x
_atom_site_fract_y
_atom_site_fract_z
Cu1 Cu 0.04524(1) 0.19580(4) 0.0000
N1 N 0.0081(1) 0.2071(4) -0.1355(8)
C1 C -0.0148(1) 0.2052(3) -0.2039(8)
S1 S 0.04844(3) 0.29948(10) 0.2002(3)
N2 N 0.0824(1) 0.2046(3) -0.1527(7)
C2 C 0.1119(2) 0.1858(4) -0.1119(10)
C3 C 0.1344(2) 0.1832(6) -0.2302(13)
C4 C 0.1276(2) 0.2014(8) -0.3913(14)
C5 C 0.0986(2) 0.2206(6) -0.4329(11)
C6 C 0.0767(1) 0.2216(5) -0.3114(10)
C7 C 0.1183(2) 0.1681(6) 0.0646(11)
N3 N 0.0440(1) 0.0841(3) 0.1303(7)
C8 C 0.0422(2) 0.0128(4) 0.0466(8)
C9 C 0.0389(2) -0.0600(4) 0.1312(12)
C10 C 0.0386(2) -0.0616(4) 0.2979(11)
C11 C 0.0404(2) 0.0108(5) 0.3864(9)
C12 C 0.0430(1) 0.0817(4) 0.2943(9)
C13 C 0.0440(2) 0.0170(4) -0.1358(12)
H1 H 0.113 0.218 0.125
H2 H 0.028 0.051 -0.176
H3 H 0.106 0.126 0.099
H4 H 0.063 0.041 -0.165
H5 H 0.139 0.158 0.093
H6 H 0.043 -0.033 -0.199
H7 H 0.155 0.168 -0.193
H8 H 0.036 -0.110 0.073
H9 H 0.143 0.204 -0.478
H10 H 0.037 -0.114 0.355
H11 H 0.092 0.234 -0.548
H12 H 0.040 0.012 0.508
H13 H 0.056 0.236 -0.340
H14 H 0.044 0.133 0.352
S1J S -0.04844(3) 0.20052(10) -0.2998(3)
C1J C 0.0148(1) 0.2948(3) 0.2961(8)
Cu1J Cu -0.04524(1) 0.30420(4) -0.5000
N1J N -0.0081(1) 0.2929(4) 0.3645(8)
N1J_2 N -0.0081(1) 0.2929(4) -0.6355(8)
N2J N -0.0824(1) 0.2954(3) -0.6527(7)
N3J N -0.0440(1) 0.4159(3) -0.3697(7)
Cu1J_2 Cu -0.04524(1) 0.30420(4) 0.5000
C2J C -0.1119(2) 0.3142(4) -0.6119(10)
C6J C -0.0767(1) 0.2784(5) -0.8114(10)
C8J C -0.0422(2) 0.4872(4) -0.4534(8)
C12J C -0.0430(1) 0.4183(4) -0.2057(9)
C3J C -0.1344(2) 0.3168(6) -0.7302(13)
C7J C -0.1183(2) 0.3319(6) -0.4354(11)
C5J C -0.0986(2) 0.2794(6) -0.9329(11)
H13J H -0.056 0.264 -0.840
C9J C -0.0389(2) 0.5600(4) -0.3688(12)
C13J C -0.0440(2) 0.4830(4) -0.6358(12)
C11J C -0.0404(2) 0.4892(5) -0.1136(9)
H14J H -0.044 0.367 -0.148
C4J C -0.1276(2) 0.2986(8) -0.8913(14)
H7J H -0.155 0.332 -0.693
H1J H -0.113 0.282 -0.375
H3J H -0.106 0.374 -0.401
H5J H -0.139 0.342 -0.407
H11J H -0.092 0.266 -1.048
C10J C -0.0386(2) 0.5616(4) -0.2021(11)
H8J H -0.036 0.610 -0.427
H2J H -0.028 0.449 -0.676
H4J H -0.063 0.459 -0.665
H6J H -0.043 0.533 -0.699
H12J H -0.040 0.488 0.008
H9J H -0.143 0.296 -0.978
H10J H -0.037 0.614 -0.145
loop_
_geom_bond_atom_site_label_1
_geom_bond_atom_site_label_2
_geom_bond_site_symmetry_1
_geom_bond_site_symmetry_2
Cu1 N1 1_555 1_555
N1 C1 1_555 1_555
C1 S1J 1_555 1_555
S1 Cu1 1_555 1_555
N2 Cu1 1_555 1_555
C2 N2 1_555 1_555
C3 C2 1_555 1_555
C4 C3 1_555 1_555
C5 C4 1_555 1_555
C6 N2 1_555 1_555
C7 C2 1_555 1_555
N3 Cu1 1_555 1_555
C8 N3 1_555 1_555
C9 C8 1_555 1_555
C10 C9 1_555 1_555
C11 C10 1_555 1_555
C12 N3 1_555 1_555
C13 C8 1_555 1_555
H1 C7 1_555 1_555
H2 C13 1_555 1_555
H3 C7 1_555 1_555
H4 C13 1_555 1_555
H5 C7 1_555 1_555
H6 C13 1_555 1_555
H7 C3 1_555 1_555
H8 C9 1_555 1_555
H9 C4 1_555 1_555
H10 C10 1_555 1_555
H11 C5 1_555 1_555
H12 C11 1_555 1_555
H13 C6 1_555 1_555
H14 C12 1_555 1_555
S1J Cu1J 1_555 1_555
C1J S1 1_555 1_555
Cu1J N1J_2 1_555 1_555
N1J C1J 1_555 1_555
N2J Cu1J 1_555 1_555
N3J Cu1J 1_555 1_555
Cu1J_2 N1J 1_555 1_555
C2J N2J 1_555 1_555
C6J N2J 1_555 1_555
C8J N3J 1_555 1_555
C12J N3J 1_555 1_555
C3J C2J 1_555 1_555
C7J C2J 1_555 1_555
C5J C6J 1_555 1_555
H13J C6J 1_555 1_555
C9J C8J 1_555 1_555
C13J C8J 1_555 1_555
C11J C12J 1_555 1_555
H14J C12J 1_555 1_555
C4J C3J 1_555 1_555
H7J C3J 1_555 1_555
H1J C7J 1_555 1_555
H3J C7J 1_555 1_555
H5J C7J 1_555 1_555
H11J C5J 1_555 1_555
C10J C9J 1_555 1_555
H8J C9J 1_555 1_555
H2J C13J 1_555 1_555
H4J C13J 1_555 1_555
H6J C13J 1_555 1_555
H12J C11J 1_555 1_555
H9J C4J 1_555 1_555
H10J C10J 1_555 1_555
C5 C6 1_555 1_555
C11 C12 1_555 1_555
C5J C4J 1_555 1_555
C11J C10J 1_555 1_555

#END
