
#######################################################################
#
#                 Cambridge Crystallographic Data Centre
#                                CCDC 
#
#######################################################################
#
# If this CIF has been generated from an entry in the Cambridge 
# Structural Database, then it will include bibliographic, chemical, 
# crystal, experimental, refinement or atomic coordinate data resulting 
# from the CCDC's data processing and validation procedures.
#
#######################################################################

data_CUHKOG
_symmetry_cell_setting           monoclinic
_symmetry_space_group_name_H-M   'P 21/c'
_symmetry_Int_Tables_number      14
_space_group_name_Hall           '-P 2ybc'
loop_
_symmetry_equiv_pos_site_id
_symmetry_equiv_pos_as_xyz
1 x,y,z
2 -x,1/2+y,1/2-z
3 -x,-y,-z
4 x,1/2-y,1/2+z
_cell_length_a                   9.6555(6)
_cell_length_b                   8.7154(3)
_cell_length_c                   16.450(1)
_cell_angle_alpha                90
_cell_angle_beta                 99.868(2)
_cell_angle_gamma                90
_cell_volume                     1363.81
loop_
_atom_site_label
_atom_site_type_symbol
_atom_site_fract_x
_atom_site_fract_y
_atom_site_fract_z
Cu1 Cu 0.53420(5) 0.29068(5) 0.14396(3)
N1 N 0.5691(4) 0.3526(4) 0.26105(18)
N2 N 0.5982(3) 0.4739(4) 0.29184(17)
N3 N 0.6264(4) 0.5887(4) 0.3271(2)
C1 C 0.3227(3) 0.4273(4) 0.0262(2)
N4 N 0.3717(3) 0.4312(3) 0.10927(17)
C2 C 0.3091(4) 0.5229(4) 0.1558(2)
C3 C 0.1939(4) 0.6153(4) 0.1230(3)
C4 C 0.1442(4) 0.6136(4) 0.0412(2)
C5 C 0.2081(3) 0.5187(4) -0.0116(2)
C6 C 0.1665(4) 0.5076(5) -0.0978(2)
C7 C 0.2362(4) 0.4145(4) -0.1433(2)
C8 C 0.3504(4) 0.3244(4) -0.1060(2)
C9 C 0.3945(3) 0.3302(4) -0.0219(2)
N5 N 0.5092(3) 0.2494(3) 0.02488(16)
C10 C 0.5861(4) 0.1569(4) -0.0111(2)
C11 C 0.7051(4) 0.0788(4) 0.0286(2)
C12 C 0.7558(4) 0.0908(4) 0.1105(2)
C13 C 0.8974(5) 0.0182(5) 0.1449(3)
F1 F 0.9463(3) -0.0740(4) 0.09271(19)
F2 F 0.8929(3) -0.0655(4) 0.21139(19)
F3 F 0.9932(3) 0.1244(4) 0.1674(3)
O1 O 0.7039(3) 0.1647(3) 0.16493(15)
H1 H 0.3445(17) 0.5260(17) 0.2121(11)
H2 H 0.1522(17) 0.6772(17) 0.1578(12)
H3 H 0.0679(17) 0.6730(17) 0.0196(12)
H4 H 0.0904(17) 0.5660(17) -0.1247(12)
H5 H 0.2088(17) 0.4096(17) -0.1996(11)
H6 H 0.3942(17) 0.2613(17) -0.1388(12)
H7 H 0.5601(17) 0.1428(16) -0.0677(11)
H8 H 0.7531(18) 0.0168(16) -0.0034(12)
Cu1A Cu 0.46580(5) 0.79068(5) 0.35604(3)
N3A N 0.3736(4) 0.0887(4) 0.1729(2)
loop_
_geom_bond_atom_site_label_1
_geom_bond_atom_site_label_2
_geom_bond_site_symmetry_1
_geom_bond_site_symmetry_2
Cu1 N1 1_555 1_555
N1 N2 1_555 1_555
N2 N3 1_555 1_555
N3 Cu1A 1_555 1_555
C1 N4 1_555 1_555
N4 Cu1 1_555 1_555
C2 N4 1_555 1_555
C3 C2 1_555 1_555
C4 C3 1_555 1_555
C5 C1 1_555 1_555
C6 C5 1_555 1_555
C7 C6 1_555 1_555
C8 C7 1_555 1_555
C9 C1 1_555 1_555
N5 Cu1 1_555 1_555
C10 N5 1_555 1_555
C11 C10 1_555 1_555
C12 C11 1_555 1_555
C13 C12 1_555 1_555
F1 C13 1_555 1_555
F2 C13 1_555 1_555
F3 C13 1_555 1_555
O1 Cu1 1_555 1_555
H1 C2 1_555 1_555
H2 C3 1_555 1_555
H3 C4 1_555 1_555
H4 C6 1_555 1_555
H5 C7 1_555 1_555
H6 C8 1_555 1_555
H7 C10 1_555 1_555
H8 C11 1_555 1_555
N3A Cu1 1_555 1_555
C4 C5 1_555 1_555
C8 C9 1_555 1_555
C9 N5 1_555 1_555
C12 O1 1_555 1_555

#END
