
#######################################################################
#
#                 Cambridge Crystallographic Data Centre
#                                CCDC 
#
#######################################################################
#
# If this CIF has been generated from an entry in the Cambridge 
# Structural Database, then it will include bibliographic, chemical, 
# crystal, experimental, refinement or atomic coordinate data resulting 
# from the CCDC's data processing and validation procedures.
#
#######################################################################

data_CUHYUB
_symmetry_cell_setting           monoclinic
_symmetry_space_group_name_H-M   'P 21/c'
_symmetry_Int_Tables_number      14
_space_group_name_Hall           '-P 2ybc'
loop_
_symmetry_equiv_pos_site_id
_symmetry_equiv_pos_as_xyz
1 x,y,z
2 -x,1/2+y,1/2-z
3 -x,-y,-z
4 x,1/2-y,1/2+z
_cell_length_a                   16.7229(4)
_cell_length_b                   12.8022(3)
_cell_length_c                   6.80328(18)
_cell_angle_alpha                90
_cell_angle_beta                 93.670(2)
_cell_angle_gamma                90
_cell_volume                     1453.53
loop_
_atom_site_label
_atom_site_type_symbol
_atom_site_fract_x
_atom_site_fract_y
_atom_site_fract_z
Gd1 Gd 0.951715(10) 0.371626(12) 0.38451(2)
O1 O 0.88563(15) 0.38730(17) 0.0821(4)
O2 O 0.84634(15) 0.24514(16) -0.0871(3)
O3 O 0.13618(15) 0.53466(17) 0.4340(3)
O4 O 0.08693(16) 0.38355(17) 0.3093(4)
O5 O 0.96933(15) 0.55050(17) 0.3143(3)
O6 O 1.00856(15) 0.71239(17) 0.2835(3)
N1 N 0.50951(19) 0.4155(2) 0.1679(4)
N2 N 0.4580(2) 0.3440(2) 0.1381(4)
C1 C 0.8316(2) 0.3271(3) 0.0043(5)
C2 C 0.7465(2) 0.3532(3) 0.0314(5)
C3 C 0.6853(2) 0.2843(3) -0.0341(5)
H1 H 0.6981 0.2254 -0.1057
C4 C 0.6066(2) 0.3017(3) 0.0050(5)
H2 H 0.5669 0.2545 -0.0378
C5 C 0.5872(2) 0.3907(3) 0.1096(5)
C6 C 0.6466(2) 0.4623(3) 0.1685(5)
H3 H 0.6330 0.5232 0.2331
C7 C 0.7260(2) 0.4435(3) 0.1314(5)
H4 H 0.7655 0.4911 0.1733
C8 C 0.3812(2) 0.3722(3) 0.2002(6)
C9 C 0.3182(2) 0.3050(3) 0.1428(5)
H5 H 0.3281 0.2448 0.0719
C10 C 0.2409(2) 0.3282(3) 0.1915(5)
H6 H 0.1990 0.2831 0.1545
C11 C 0.2260(2) 0.4193(3) 0.2962(5)
C12 C 0.2895(2) 0.4848(3) 0.3533(5)
H7 H 0.2798 0.5454 0.4231
C13 C 0.3666(2) 0.4615(3) 0.3083(5)
H8 H 0.4086 0.5053 0.3501
C14 C 0.1435(2) 0.4479(3) 0.3505(5)
C15 C 0.9749(2) 0.6311(2) 0.2108(6)
H9 H 0.952(2) 0.634(2) 0.071(6)
Gd1_2 Gd -0.048285(10) 0.371626(12) 0.38451(2)
Gd1A Gd 1.048285(10) 0.871626(12) 0.11549(2)
Gd1B Gd 0.048285(10) 0.628374(12) 0.61549(2)
Gd1B_2 Gd 1.048285(10) 0.628374(12) 0.61549(2)
Gd1C Gd 0.951715(10) 0.128374(12) -0.11549(2)
O2C O 0.84634(15) 0.25486(16) 0.4129(3)
O3B O 0.86382(15) 0.46534(17) 0.5660(3)
O4_2 O 1.08693(16) 0.38355(17) 0.3093(4)
O5B O 1.03067(15) 0.44950(17) 0.6857(3)
O6A O 0.99144(15) 0.21239(17) 0.2165(3)
O6B O 0.99144(15) 0.28761(17) 0.7165(3)
loop_
_geom_bond_atom_site_label_1
_geom_bond_atom_site_label_2
_geom_bond_site_symmetry_1
_geom_bond_site_symmetry_2
Gd1 O1 1_555 1_555
O1 C1 1_555 1_555
O2 C1 1_555 1_555
O3 C14 1_555 1_555
O4 C14 1_555 1_555
O5 Gd1 1_555 1_555
O6 C15 1_555 1_555
N1 N2 1_555 1_555
N2 C8 1_555 1_555
C1 C2 1_555 1_555
C2 C3 1_555 1_555
C3 H1 1_555 1_555
C4 C3 1_555 1_555
H2 C4 1_555 1_555
C5 N1 1_555 1_555
C6 C5 1_555 1_555
H3 C6 1_555 1_555
C7 C2 1_555 1_555
H4 C7 1_555 1_555
C8 C9 1_555 1_555
C9 H5 1_555 1_555
C10 C9 1_555 1_555
H6 C10 1_555 1_555
C11 C10 1_555 1_555
C12 C11 1_555 1_555
H7 C12 1_555 1_555
C13 C8 1_555 1_555
H8 C13 1_555 1_555
C14 C11 1_555 1_555
C15 O5 1_555 1_555
H9 C15 1_555 1_555
Gd1_2 O4 1_555 1_555
Gd1A O6 1_555 1_555
Gd1B O3 1_555 1_555
Gd1B_2 O5 1_555 1_555
Gd1C O2 1_555 1_555
O2C Gd1 1_555 1_555
O3B Gd1 1_555 1_555
O4_2 Gd1 1_555 1_555
O5B Gd1 1_555 1_555
O6A Gd1 1_555 1_555
O6B Gd1 1_555 1_555
O6 Gd1B_2 1_555 1_555
C4 C5 1_555 1_555
C6 C7 1_555 1_555
C12 C13 1_555 1_555
Gd1B_2 O5B 1_555 1_555
Gd1C O6A 1_555 1_555

#END
