
#######################################################################
#
#                 Cambridge Crystallographic Data Centre
#                                CCDC 
#
#######################################################################
#
# If this CIF has been generated from an entry in the Cambridge 
# Structural Database, then it will include bibliographic, chemical, 
# crystal, experimental, refinement or atomic coordinate data resulting 
# from the CCDC's data processing and validation procedures.
#
#######################################################################

data_CUHZIO
_symmetry_cell_setting           monoclinic
_symmetry_space_group_name_H-M   'P 21/n'
_symmetry_Int_Tables_number      14
_space_group_name_Hall           '-P 2yn'
loop_
_symmetry_equiv_pos_site_id
_symmetry_equiv_pos_as_xyz
1 x,y,z
2 1/2-x,1/2+y,1/2-z
3 -x,-y,-z
4 1/2+x,1/2-y,1/2+z
_cell_length_a                   10.56730(10)
_cell_length_b                   17.2019(5)
_cell_length_c                   15.5148(4)
_cell_angle_alpha                90
_cell_angle_beta                 102.190(2)
_cell_angle_gamma                90
_cell_volume                     2756.65
loop_
_atom_site_label
_atom_site_type_symbol
_atom_site_fract_x
_atom_site_fract_y
_atom_site_fract_z
Cu1 Cu -0.4223(1) 0.2312(1) 0.0335(1)
N1 N -0.5702(4) 0.3036(2) -0.0201(2)
C1 C -0.5595(5) 0.3795(3) -0.0008(3)
C2 C -0.6634(5) 0.4287(3) -0.0157(3)
C3 C -0.7847(5) 0.4021(3) -0.0536(3)
C4 C -0.7941(5) 0.3240(3) -0.0757(3)
C5 C -0.6875(5) 0.2777(3) -0.0587(3)
C6 C -0.8992(5) 0.4566(3) -0.0708(3)
C7 C -0.9073(5) 0.5059(3) -0.1515(3)
C8 C -1.0227(5) 0.5625(3) -0.1665(3)
C9 C -1.0410(4) 0.6048(3) -0.2533(3)
C10 C -1.0551(5) 0.5647(3) -0.3317(3)
C11 C -1.0702(5) 0.6033(3) -0.4097(3)
N2 N -1.0701(3) 0.6808(2) -0.4159(2)
C12 C -1.0572(5) 0.7203(3) -0.3400(3)
C13 C -1.0420(5) 0.6850(3) -0.2590(3)
N3 N -0.2687(4) 0.1662(2) 0.0925(2)
C14 C -0.1609(5) 0.1658(3) 0.0638(3)
C15 C -0.0526(5) 0.1245(3) 0.1028(3)
C16 C -0.0553(5) 0.0795(3) 0.1766(3)
C17 C -0.1668(6) 0.0812(3) 0.2080(3)
C18 C -0.2731(5) 0.1240(3) 0.1645(3)
C19 C 0.0610(5) 0.0314(3) 0.2185(4)
C20 C 0.0997(5) -0.0272(4) 0.1585(4)
C21 C -0.0015(6) -0.0898(3) 0.1275(3)
C22 C -0.0287(5) -0.1384(3) 0.2014(3)
C23 C 0.0655(5) -0.1885(3) 0.2480(3)
C24 C 0.0433(5) -0.2274(3) 0.3202(3)
N4 N -0.4330(4) 0.2774(2) 0.1506(3)
C25 C -0.3393(4) 0.3228(3) 0.1978(3)
C26 C -0.1427(5) -0.1357(3) 0.2297(3)
H1 H -0.4781(5) 0.3996(3) 0.0237(3)
H2 H -0.6517(5) 0.4808(3) -0.0001(3)
H3 H -0.8739(5) 0.3031(3) -0.1024(3)
H4 H -0.6967(5) 0.2256(3) -0.0747(3)
H5 H -0.9781(5) 0.4263(3) -0.0771(3)
H6 H -0.8941(5) 0.4904(3) -0.0201(3)
H7 H -0.9149(5) 0.4723(3) -0.2026(3)
H8 H -0.8278(5) 0.5354(3) -0.1459(3)
H9 H -1.1009(5) 0.5337(3) -0.1645(3)
H10 H -1.0094(5) 0.6002(3) -0.1190(3)
H11 H -1.0542(5) 0.5106(3) -0.3312(3)
H12 H -1.0812(5) 0.5743(3) -0.4614(3)
H13 H -1.0587(5) 0.7743(3) -0.3423(3)
H14 H -1.0323(5) 0.7150(3) -0.2082(3)
H15 H -0.1573(5) 0.1952(3) 0.0140(3)
H16 H 0.0219(5) 0.1267(3) 0.0799(3)
H17 H -0.1716(6) 0.0536(3) 0.2588(3)
H18 H -0.3490(5) 0.1232(3) 0.1858(3)
H19 H 0.1336(5) 0.0659(3) 0.2392(4)
H20 H 0.0422(5) 0.0047(3) 0.2695(4)
H21 H 0.1792(5) -0.0520(4) 0.1887(4)
H22 H 0.1177(5) -0.0007(4) 0.1073(4)
H23 H -0.0813(6) -0.0652(3) 0.0974(3)
H24 H 0.0282(6) -0.1232(3) 0.0855(3)
H25 H 0.1432(5) -0.1953(3) 0.2298(3)
H26 H 0.1088(5) -0.2591(3) 0.3509(3)
H27 H -0.2601(4) 0.3262(3) 0.1810(3)
H28 H -0.2099(5) -0.1050(3) 0.1992(3)
N2A N -0.4299(3) 0.1808(2) -0.0841(2)
Cu1A Cu -1.0777(1) 0.7312(1) -0.5335(1)
Cu1_2 Cu -0.4223(1) 1.2312(1) 0.0335(1)
N3_2 N -0.2687(4) 1.1662(2) 0.0925(2)
C14_2 C -0.1609(5) 1.1658(3) 0.0638(3)
C15_2 C -0.0526(5) 1.1245(3) 0.1028(3)
C16_2 C -0.0553(5) 1.0795(3) 0.1766(3)
C17_2 C -0.1668(6) 1.0812(3) 0.2080(3)
C18_2 C -0.2731(5) 1.1240(3) 0.1645(3)
H18_2 H -0.3490(5) 1.1232(3) 0.1858(3)
H17_2 H -0.1716(6) 1.0536(3) 0.2588(3)
C19_2 C 0.0610(5) 1.0314(3) 0.2185(4)
C20_2 C 0.0997(5) 0.9728(4) 0.1585(4)
C21_2 C -0.0015(6) 0.9102(3) 0.1275(3)
C22_2 C -0.0287(5) 0.8616(3) 0.2014(3)
C23_2 C 0.0655(5) 0.8115(3) 0.2480(3)
C24_2 C 0.0433(5) 0.7726(3) 0.3202(3)
N4A N -0.0670(4) 0.7774(2) 0.3494(3)
Cu1A_2 Cu -0.0777(1) 0.7312(1) 0.4665(1)
N1A N 0.0702(4) 0.8036(2) 0.5201(2)
N2_2 N -0.0701(3) 0.6808(2) 0.5841(2)
N3A N -0.2313(4) 0.6662(2) 0.4075(2)
C14A C -0.3391(5) 0.6658(3) 0.4362(3)
C15A C -0.4474(5) 0.6245(3) 0.3972(3)
C16A C -0.4447(5) 0.5795(3) 0.3234(3)
C17A C -0.3332(6) 0.5812(3) 0.2920(3)
C18A C -0.2269(5) 0.6240(3) 0.3355(3)
H18A H -0.1510(5) 0.6232(3) 0.3142(3)
H17A H -0.3284(6) 0.5536(3) 0.2412(3)
C19A C -0.5610(5) 0.5314(3) 0.2815(4)
C20A C -0.5997(5) 0.4728(4) 0.3415(4)
C21A C -0.4985(6) 0.4102(3) 0.3725(3)
C22A C -0.4713(5) 0.3616(3) 0.2986(3)
C23A C -0.5655(5) 0.3115(3) 0.2520(3)
C24A C -0.5433(5) 0.2726(3) 0.1798(3)
C26A C -0.3573(5) 0.3643(3) 0.2703(3)
H28A H -0.2901(5) 0.3950(3) 0.3008(3)
H26A H -0.6088(5) 0.2409(3) 0.1491(3)
H25A H -0.6432(5) 0.3047(3) 0.2702(3)
H23A H -0.4187(6) 0.4348(3) 0.4026(3)
H24A H -0.5282(6) 0.3768(3) 0.4145(3)
H21A H -0.6792(5) 0.4480(4) 0.3113(4)
H22A H -0.6177(5) 0.4993(4) 0.3927(4)
H19A H -0.6336(5) 0.5659(3) 0.2608(4)
H20A H -0.5422(5) 0.5047(3) 0.2305(4)
H16A H -0.5219(5) 0.6267(3) 0.4201(3)
H15A H -0.3427(5) 0.6952(3) 0.4860(3)
C25A C -0.1607(4) 0.8228(3) 0.3022(3)
C26_2 C -0.1427(5) 0.8643(3) 0.2297(3)
H28_2 H -0.2099(5) 0.8950(3) 0.1992(3)
H27A H -0.2399(4) 0.8262(3) 0.3190(3)
H26_2 H 0.1088(5) 0.7409(3) 0.3509(3)
H25_2 H 0.1432(5) 0.8047(3) 0.2298(3)
H23_2 H -0.0813(6) 0.9348(3) 0.0974(3)
H24_2 H 0.0282(6) 0.8768(3) 0.0855(3)
H21_2 H 0.1792(5) 0.9480(4) 0.1887(4)
H22_2 H 0.1177(5) 0.9993(4) 0.1073(4)
H19_2 H 0.1336(5) 1.0659(3) 0.2392(4)
H20_2 H 0.0422(5) 1.0047(3) 0.2695(4)
H16_2 H 0.0219(5) 1.1267(3) 0.0799(3)
H15_2 H -0.1573(5) 1.1952(3) 0.0140(3)
N4A_2 N -0.0670(4) -0.2226(2) 0.3494(3)
C25A_2 C -0.1607(4) -0.1772(3) 0.3022(3)
H27A_2 H -0.2399(4) -0.1738(3) 0.3190(3)
Cu1A_3 Cu -0.0777(1) -0.2688(1) 0.4665(1)
N5 N -0.2268(5) 0.3505(3) -0.0522(4)
O1 O -0.2692(4) 0.3336(2) 0.0151(3)
O2 O -0.1508(6) 0.3082(3) -0.0796(4)
O3 O -0.2611(6) 0.4102(3) -0.0917(3)
N6 N -0.6696(5) 0.1028(3) 0.0413(4)
O4 O -0.5556(4) 0.1223(2) 0.0707(2)
O5 O -0.6939(5) 0.0559(3) -0.0181(4)
O6 O -0.7538(5) 0.1323(3) 0.0721(4)
O7 O -0.0906(15) 0.3836(8) -0.2379(8)
loop_
_geom_bond_atom_site_label_1
_geom_bond_atom_site_label_2
_geom_bond_site_symmetry_1
_geom_bond_site_symmetry_2
Cu1 N1 1_555 1_555
N1 C1 1_555 1_555
C1 C2 1_555 1_555
C2 C3 1_555 1_555
C3 C4 1_555 1_555
C4 C5 1_555 1_555
C5 N1 1_555 1_555
C6 C3 1_555 1_555
C7 C6 1_555 1_555
C8 C7 1_555 1_555
C9 C8 1_555 1_555
C10 C9 1_555 1_555
C11 C10 1_555 1_555
N2 C11 1_555 1_555
C12 N2 1_555 1_555
C13 C9 1_555 1_555
N3 Cu1 1_555 1_555
C14 N3 1_555 1_555
C15 C14 1_555 1_555
C16 C15 1_555 1_555
C17 C16 1_555 1_555
C18 N3 1_555 1_555
C19 C16 1_555 1_555
C20 C19 1_555 1_555
C21 C20 1_555 1_555
C22 C21 1_555 1_555
C23 C22 1_555 1_555
C24 C23 1_555 1_555
N4 Cu1 1_555 1_555
C25 N4 1_555 1_555
C26 C22 1_555 1_555
N5 O1 1_555 1_555
O2 N5 1_555 1_555
O3 N5 1_555 1_555
N6 O4 1_555 1_555
O5 N6 1_555 1_555
O6 N6 1_555 1_555
H1 C1 1_555 1_555
H2 C2 1_555 1_555
H3 C4 1_555 1_555
H4 C5 1_555 1_555
H5 C6 1_555 1_555
H6 C6 1_555 1_555
H7 C7 1_555 1_555
H8 C7 1_555 1_555
H9 C8 1_555 1_555
H10 C8 1_555 1_555
H11 C10 1_555 1_555
H12 C11 1_555 1_555
H13 C12 1_555 1_555
H14 C13 1_555 1_555
H15 C14 1_555 1_555
H16 C15 1_555 1_555
H17 C17 1_555 1_555
H18 C18 1_555 1_555
H19 C19 1_555 1_555
H20 C19 1_555 1_555
H21 C20 1_555 1_555
H22 C20 1_555 1_555
H23 C21 1_555 1_555
H24 C21 1_555 1_555
H25 C23 1_555 1_555
H26 C24 1_555 1_555
H27 C25 1_555 1_555
H28 C26 1_555 1_555
N2A Cu1 1_555 1_555
Cu1A N2 1_555 1_555
Cu1_2 N3_2 1_555 1_555
N3_2 C14_2 1_555 1_555
C14_2 C15_2 1_555 1_555
C15_2 C16_2 1_555 1_555
C16_2 C17_2 1_555 1_555
C17_2 C18_2 1_555 1_555
C18_2 N3_2 1_555 1_555
H18_2 C18_2 1_555 1_555
H17_2 C17_2 1_555 1_555
C19_2 C16_2 1_555 1_555
C20_2 C19_2 1_555 1_555
C21_2 C20_2 1_555 1_555
C22_2 C21_2 1_555 1_555
C23_2 C22_2 1_555 1_555
C24_2 C23_2 1_555 1_555
N4A C24_2 1_555 1_555
Cu1A_2 N4A 1_555 1_555
N1A Cu1A_2 1_555 1_555
N2_2 Cu1A_2 1_555 1_555
N3A Cu1A_2 1_555 1_555
C14A N3A 1_555 1_555
C15A C14A 1_555 1_555
C16A C15A 1_555 1_555
C17A C16A 1_555 1_555
C18A N3A 1_555 1_555
H18A C18A 1_555 1_555
H17A C17A 1_555 1_555
C19A C16A 1_555 1_555
C20A C19A 1_555 1_555
C21A C20A 1_555 1_555
C22A C21A 1_555 1_555
C23A C22A 1_555 1_555
C24A N4 1_555 1_555
C26A C25 1_555 1_555
H28A C26A 1_555 1_555
H26A C24A 1_555 1_555
H25A C23A 1_555 1_555
H23A C21A 1_555 1_555
H24A C21A 1_555 1_555
H21A C20A 1_555 1_555
H22A C20A 1_555 1_555
H19A C19A 1_555 1_555
H20A C19A 1_555 1_555
H16A C15A 1_555 1_555
H15A C14A 1_555 1_555
C25A N4A 1_555 1_555
C26_2 C22_2 1_555 1_555
H28_2 C26_2 1_555 1_555
H27A C25A 1_555 1_555
H26_2 C24_2 1_555 1_555
H25_2 C23_2 1_555 1_555
H23_2 C21_2 1_555 1_555
H24_2 C21_2 1_555 1_555
H21_2 C20_2 1_555 1_555
H22_2 C20_2 1_555 1_555
H19_2 C19_2 1_555 1_555
H20_2 C19_2 1_555 1_555
H16_2 C15_2 1_555 1_555
H15_2 C14_2 1_555 1_555
N4A_2 C24 1_555 1_555
C25A_2 C26 1_555 1_555
H27A_2 C25A_2 1_555 1_555
Cu1A_3 N4A_2 1_555 1_555
C12 C13 1_555 1_555
C17 C18 1_555 1_555
C17A C18A 1_555 1_555
C22A C26A 1_555 1_555
C23A C24A 1_555 1_555
C25A C26_2 1_555 1_555
N4A_2 C25A_2 1_555 1_555

#END
