
#######################################################################
#
#                 Cambridge Crystallographic Data Centre
#                                CCDC 
#
#######################################################################
#
# If this CIF has been generated from an entry in the Cambridge 
# Structural Database, then it will include bibliographic, chemical, 
# crystal, experimental, refinement or atomic coordinate data resulting 
# from the CCDC's data processing and validation procedures.
#
#######################################################################

data_CUICOL
_symmetry_cell_setting           orthorhombic
_symmetry_space_group_name_H-M   'P 21 m n'
_symmetry_Int_Tables_number      31
_space_group_name_Hall           'P -2ab 2ab'
loop_
_symmetry_equiv_pos_site_id
_symmetry_equiv_pos_as_xyz
1 x,y,z
2 x,-y,z
3 1/2+x,1/2+y,-z
4 1/2+x,1/2-y,-z
_cell_length_a                   11.500(3)
_cell_length_b                   10.620(3)
_cell_length_c                   4.159(1)
_cell_angle_alpha                90
_cell_angle_beta                 90
_cell_angle_gamma                90
_cell_volume                     507.939
loop_
_atom_site_label
_atom_site_type_symbol
_atom_site_fract_x
_atom_site_fract_y
_atom_site_fract_z
I1 I 0.00000 0.50000 0.07480
Cu1 Cu 0.12720 0.50000 -0.40520
N1 N 0.29600 0.50000 -0.52800
C1 C 0.28400 0.26800 -0.50900
C2 C 0.34800 0.39200 -0.59500
C3 C 0.46100 0.38800 -0.73300
C4 C 0.51600 0.50000 -0.79700
C5 C 0.63600 0.50000 -0.93600
Cu1_2 Cu 0.12720 0.50000 0.59480
I1_2 I 0.00000 0.50000 -0.92520
C2A C 0.34800 0.60800 -0.59500
C3A C 0.46100 0.61200 -0.73300
C1A C 0.28400 0.73200 -0.50900
loop_
_geom_bond_atom_site_label_1
_geom_bond_atom_site_label_2
_geom_bond_site_symmetry_1
_geom_bond_site_symmetry_2
I1 Cu1 1_555 1_555
Cu1 N1 1_555 1_555
N1 C2 1_555 1_555
C1 C2 1_555 1_555
C2 C3 1_555 1_555
C3 C4 1_555 1_555
C4 C5 1_555 1_555
Cu1_2 I1 1_555 1_555
I1_2 Cu1 1_555 1_555
C2A N1 1_555 1_555
C3A C4 1_555 1_555
C1A C2A 1_555 1_555
C2A C3A 1_555 1_555

#END
