
#######################################################################
#
#                 Cambridge Crystallographic Data Centre
#                                CCDC 
#
#######################################################################
#
# If this CIF has been generated from an entry in the Cambridge 
# Structural Database, then it will include bibliographic, chemical, 
# crystal, experimental, refinement or atomic coordinate data resulting 
# from the CCDC's data processing and validation procedures.
#
#######################################################################

data_CUIHIP
_symmetry_cell_setting           monoclinic
_symmetry_space_group_name_H-M   'B 1 1 2/b'
_symmetry_Int_Tables_number      15
_space_group_name_Hall           '-B 2n'
loop_
_symmetry_equiv_pos_site_id
_symmetry_equiv_pos_as_xyz
1 x,y,z
2 1/2+x,y,1/2+z
3 -x,1/2-y,z
4 1/2-x,1/2-y,1/2+z
5 -x,-y,-z
6 1/2-x,-y,1/2-z
7 x,1/2+y,-z
8 1/2+x,1/2+y,1/2-z
_cell_length_a                   45.665(5)
_cell_length_b                   8.156(5)
_cell_length_c                   6.828(5)
_cell_angle_alpha                90
_cell_angle_beta                 90
_cell_angle_gamma                99.6(2)
_cell_volume                     2507.43
loop_
_atom_site_label
_atom_site_type_symbol
_atom_site_fract_x
_atom_site_fract_y
_atom_site_fract_z
Cu1 Cu 0.00000 0.00000 0.00000
O1 O 0.00000 -0.25000 0.15400
O2 O -0.02870 0.05730 0.19640
O3 O 0.03110 0.10700 0.15940
O4 O 0.05380 -0.09210 0.26680
O5 O 0.11970 0.06020 0.09560
C1 C 0.05320 0.05320 0.24070
C2 C 0.07910 0.17700 0.32170
C3 C 0.12260 0.05790 0.27900
C4 C 0.14780 -0.01080 0.36440
C5 C 0.15260 -0.03570 0.56370
C6 C 0.17710 -0.08570 0.63390
C7 C 0.19730 -0.12980 0.50250
C8 C 0.19280 -0.11220 0.30730
C9 C 0.16910 -0.06710 0.23470
N1 N 0.10250 0.10710 0.39300
I1 I 0.22330 -0.20150 0.11200
O2D O 0.02870 -0.05730 -0.19640
O3D O -0.03110 -0.10700 -0.15940
O4D O -0.05380 0.09210 -0.26680
O5D O -0.11970 -0.06020 -0.09560
C1D C -0.05320 -0.05320 -0.24070
C2D C -0.07910 -0.17700 -0.32170
C3D C -0.12260 -0.05790 -0.27900
C4D C -0.14780 0.01080 -0.36440
C5D C -0.15260 0.03570 -0.56370
C6D C -0.17710 0.08570 -0.63390
C7D C -0.19730 0.12980 -0.50250
C8D C -0.19280 0.11220 -0.30730
C9D C -0.16910 0.06710 -0.23470
N1D N -0.10250 -0.10710 -0.39300
I1D I -0.22330 0.20150 -0.11200
O1D O 0.00000 0.25000 -0.15400
Cu1B Cu 0.00000 -0.50000 0.00000
O6 O 0.08540 -0.36470 0.20400
loop_
_geom_bond_atom_site_label_1
_geom_bond_atom_site_label_2
_geom_bond_site_symmetry_1
_geom_bond_site_symmetry_2
Cu1 O1 1_555 1_555
O1 Cu1B 1_555 1_555
O2 Cu1 1_555 1_555
O3 Cu1 1_555 1_555
O4 C1 1_555 1_555
O5 C3 1_555 1_555
C1 O3 1_555 1_555
C2 C1 1_555 1_555
C3 C4 1_555 1_555
C4 C5 1_555 1_555
C5 C6 1_555 1_555
C6 C7 1_555 1_555
C7 C8 1_555 1_555
C8 C9 1_555 1_555
C9 C4 1_555 1_555
N1 C2 1_555 1_555
I1 C8 1_555 1_555
O2D Cu1 1_555 1_555
O3D Cu1 1_555 1_555
O4D C1D 1_555 1_555
O5D C3D 1_555 1_555
C1D O3D 1_555 1_555
C2D C1D 1_555 1_555
C3D C4D 1_555 1_555
C4D C5D 1_555 1_555
C5D C6D 1_555 1_555
C6D C7D 1_555 1_555
C7D C8D 1_555 1_555
C8D C9D 1_555 1_555
C9D C4D 1_555 1_555
N1D C2D 1_555 1_555
I1D C8D 1_555 1_555
O1D Cu1 1_555 1_555
C3 N1 1_555 1_555
C3D N1D 1_555 1_555

#END
