
#######################################################################
#
#                 Cambridge Crystallographic Data Centre
#                                CCDC 
#
#######################################################################
#
# If this CIF has been generated from an entry in the Cambridge 
# Structural Database, then it will include bibliographic, chemical, 
# crystal, experimental, refinement or atomic coordinate data resulting 
# from the CCDC's data processing and validation procedures.
#
#######################################################################

data_CUIMDZ03
_symmetry_cell_setting           monoclinic
_symmetry_space_group_name_H-M   'C 2/c'
_symmetry_Int_Tables_number      15
_space_group_name_Hall           '-C 2yn'
loop_
_symmetry_equiv_pos_site_id
_symmetry_equiv_pos_as_xyz
1 x,y,z
2 -x,y,1/2-z
3 1/2+x,1/2+y,z
4 1/2-x,1/2+y,1/2-z
5 -x,-y,-z
6 x,-y,1/2+z
7 1/2-x,1/2-y,-z
8 1/2+x,1/2-y,1/2+z
_cell_length_a                   11.7556(8)
_cell_length_b                   23.4222(24)
_cell_length_c                   9.0727(9)
_cell_angle_alpha                90
_cell_angle_beta                 104.993(5)
_cell_angle_gamma                90
_cell_volume                     2413.05
loop_
_atom_site_label
_atom_site_type_symbol
_atom_site_fract_x
_atom_site_fract_y
_atom_site_fract_z
Cu1 Cu 0.500000 0.20360(24) 0.250000
Cu2 Cu 0.25290(31) 0.41923(15) 0.3575(6)
N1 N 0.3776(5) 0.2610(4) 0.2621(21)
N2 N 0.2879(6) 0.3398(4) 0.3018(22)
C1 C 0.3948(5) 0.3140(4) 0.3254(24)
C2 C 0.2611(6) 0.2555(5) 0.1913(24)
C3 C 0.2055(6) 0.3038(5) 0.2173(26)
N3 N 0.2750(11) 0.4915(4) 0.4776(11)
N4 N 0.3006(9) 0.5441(5) 0.6845(11)
C4 C 0.3424(15) 0.5372(4) 0.4623(11)
C5 C 0.2455(14) 0.4969(5) 0.6123(14)
C6 C 0.3605(14) 0.5690(6) 0.5918(14)
N5 N 0.4634(10) 0.1454(5) 0.3924(17)
N6 N 0.3812(8) 0.1057(4) 0.5593(13)
C7 C 0.3721(11) 0.1495(5) 0.4582(19)
C8 C 0.5314(8) 0.1004(4) 0.4570(15)
C9 C 0.4764(9) 0.0738(5) 0.5528(17)
N1A N 0.6224(5) 0.2610(4) 0.2379(21)
N2A N 0.7121(6) 0.3398(4) 0.1982(22)
C1A C 0.6052(5) 0.3140(4) 0.1746(24)
C2A C 0.7389(6) 0.2555(5) 0.3087(24)
C3A C 0.7945(6) 0.3038(5) 0.2827(26)
N5A N 0.5366(10) 0.1454(5) 0.1076(17)
N6A N 0.6188(8) 0.1057(4) -0.0593(13)
C7A C 0.6279(11) 0.1495(5) 0.0418(19)
C8A C 0.4686(8) 0.1004(4) 0.0430(15)
C9A C 0.5236(9) 0.0738(5) -0.0528(17)
Cu2A Cu 0.74710(31) 0.41923(15) 0.1425(6)
N3E N 0.2750(11) 0.5085(4) -0.0224(11)
N4E N 0.3006(9) 0.4559(5) 0.1845(11)
C4E C 0.3424(15) 0.4628(4) -0.0377(11)
C5E C 0.2455(14) 0.5031(5) 0.1123(14)
C6E C 0.3605(14) 0.4310(6) 0.0918(14)
N6F N 0.1188(8) 0.3943(4) 0.4407(13)
Cu2E Cu 0.25290(31) 0.58077(15) 0.8575(6)
Cu2F Cu 0.24710(31) 0.08077(15) 0.6425(6)
Cu2G Cu 0.75290(31) 0.08077(15) -0.1425(6)
N3A N 0.7250(11) 0.4915(4) 0.0224(11)
N4D N 0.6994(9) 0.4559(5) 0.3155(11)
N6G N 0.8812(8) 0.3943(4) 0.0593(13)
Cu2E_2 Cu 0.25290(31) 0.58077(15) -0.1425(6)
loop_
_geom_bond_atom_site_label_1
_geom_bond_atom_site_label_2
_geom_bond_site_symmetry_1
_geom_bond_site_symmetry_2
Cu1 N1 1_555 1_555
Cu2 N2 1_555 1_555
N1 C1 1_555 1_555
N2 C1 1_555 1_555
C2 N1 1_555 1_555
C3 N2 1_555 1_555
N3 Cu2 1_555 1_555
N4 C5 1_555 1_555
C4 N3 1_555 1_555
C5 N3 1_555 1_555
C6 N4 1_555 1_555
N5 Cu1 1_555 1_555
N6 C7 1_555 1_555
C7 N5 1_555 1_555
C8 N5 1_555 1_555
C9 N6 1_555 1_555
N1A Cu1 1_555 1_555
N2A C1A 1_555 1_555
C1A N1A 1_555 1_555
C2A N1A 1_555 1_555
C3A N2A 1_555 1_555
N5A Cu1 1_555 1_555
N6A C7A 1_555 1_555
C7A N5A 1_555 1_555
C8A N5A 1_555 1_555
C9A N6A 1_555 1_555
Cu2A N2A 1_555 1_555
N3E C4E 1_555 1_555
N4E Cu2 1_555 1_555
C4E C6E 1_555 1_555
C5E N3E 1_555 1_555
C6E N4E 1_555 1_555
N6F Cu2 1_555 1_555
Cu2E N4 1_555 1_555
Cu2F N6 1_555 1_555
Cu2G N6A 1_555 1_555
N3A Cu2A 1_555 1_555
N4D Cu2A 1_555 1_555
N6G Cu2A 1_555 1_555
Cu2E_2 N3E 1_555 1_555
C2 C3 1_555 1_555
C4 C6 1_555 1_555
C8 C9 1_555 1_555
C2A C3A 1_555 1_555
C8A C9A 1_555 1_555
N4E C5E 1_555 1_555

#END
