
#######################################################################
#
#                 Cambridge Crystallographic Data Centre
#                                CCDC 
#
#######################################################################
#
# If this CIF has been generated from an entry in the Cambridge 
# Structural Database, then it will include bibliographic, chemical, 
# crystal, experimental, refinement or atomic coordinate data resulting 
# from the CCDC's data processing and validation procedures.
#
#######################################################################

data_CUIMDZ01
_symmetry_cell_setting           rhombohedral
_symmetry_space_group_name_H-M   'R -3'
_symmetry_Int_Tables_number      148
_space_group_name_Hall           '-R 3'
loop_
_symmetry_equiv_pos_site_id
_symmetry_equiv_pos_as_xyz
1 x,y,z
2 -y,x-y,z
3 -x+y,-x,z
4 1/3+x,2/3+y,2/3+z
5 1/3-y,2/3+x-y,2/3+z
6 1/3-x+y,2/3-x,2/3+z
7 2/3+x,1/3+y,1/3+z
8 2/3-y,1/3+x-y,1/3+z
9 2/3-x+y,1/3-x,1/3+z
10 -x,-y,-z
11 y,-x+y,-z
12 x-y,x,-z
13 2/3-x,1/3-y,1/3-z
14 2/3+y,1/3-x+y,1/3-z
15 2/3+x-y,1/3+x,1/3-z
16 1/3-x,2/3-y,2/3-z
17 1/3+y,2/3-x+y,2/3-z
18 1/3+x-y,2/3+x,2/3-z
_cell_length_a                   27.5589(26)
_cell_length_b                   27.5589(26)
_cell_length_c                   5.3870(9)
_cell_angle_alpha                90
_cell_angle_beta                 90
_cell_angle_gamma                120
_cell_volume                     3543.25
loop_
_atom_site_label
_atom_site_type_symbol
_atom_site_fract_x
_atom_site_fract_y
_atom_site_fract_z
Cu1 Cu 0.21380(19) -0.00014(26) 0.3974(9)
C1 C 0.23079(41) 0.11293(39) 0.4706(34)
N1 N 0.20263(49) 0.0650(4) 0.3354(23)
N2 N 0.19932(46) 0.1384(4) 0.4736(28)
C2 C 0.15615(70) 0.06328(58) 0.2391(31)
C3 C 0.15644(43) 0.11084(44) 0.3097(27)
C4 C 0.33042(24) 0.05973(32) 0.6051(16)
N3 N 0.29441(37) 0.0579(5) 0.4278(23)
N4 N 0.38278(24) 0.1013(5) 0.5437(28)
C5 C 0.32408(46) 0.10008(56) 0.2638(24)
C6 C 0.37834(32) 0.12817(46) 0.3408(27)
N2J N 0.1384(4) -0.06092(61) 0.5264(28)
N4D N 0.2320(5) -0.05185(55) 0.2104(28)
Cu1K Cu 0.21394(32) 0.21380(19) 0.6026(9)
Cu1H Cu 0.45273(32) 0.11953(19) 0.7307(9)
loop_
_geom_bond_atom_site_label_1
_geom_bond_atom_site_label_2
_geom_bond_site_symmetry_1
_geom_bond_site_symmetry_2
Cu1 N1 1_555 1_555
C1 N1 1_555 1_555
N1 C2 1_555 1_555
N2 C1 1_555 1_555
C2 C3 1_555 1_555
C3 N2 1_555 1_555
C4 N3 1_555 1_555
N3 Cu1 1_555 1_555
N4 C4 1_555 1_555
C5 N3 1_555 1_555
C6 N4 1_555 1_555
N2J Cu1 1_555 1_555
N4D Cu1 1_555 1_555
Cu1K N2 1_555 1_555
Cu1H N4 1_555 1_555
C5 C6 1_555 1_555

#END
