
#######################################################################
#
#                 Cambridge Crystallographic Data Centre
#                                CCDC 
#
#######################################################################
#
# If this CIF has been generated from an entry in the Cambridge 
# Structural Database, then it will include bibliographic, chemical, 
# crystal, experimental, refinement or atomic coordinate data resulting 
# from the CCDC's data processing and validation procedures.
#
#######################################################################

data_CUIMDZ02
_symmetry_cell_setting           orthorhombic
_symmetry_space_group_name_H-M   'C c c a'
_symmetry_Int_Tables_number      68
_space_group_name_Hall           '-C 2a 2bc'
loop_
_symmetry_equiv_pos_site_id
_symmetry_equiv_pos_as_xyz
1 x,y,z
2 -x,1/2-y,z
3 1/2+x,-y,1/2-z
4 1/2-x,1/2+y,1/2-z
5 1/2+x,1/2+y,z
6 1/2-x,-y,z
7 x,1/2-y,1/2-z
8 -x,y,1/2-z
9 -x,-y,-z
10 x,1/2+y,-z
11 1/2-x,y,1/2+z
12 1/2+x,1/2-y,1/2+z
13 1/2-x,1/2-y,-z
14 1/2+x,y,-z
15 -x,1/2+y,1/2+z
16 x,-y,1/2+z
_cell_length_a                   21.1387(12)
_cell_length_b                   19.0798(14)
_cell_length_c                   9.2843(8)
_cell_angle_alpha                90
_cell_angle_beta                 90
_cell_angle_gamma                90
_cell_volume                     3744.56
loop_
_atom_site_label
_atom_site_type_symbol
_atom_site_fract_x
_atom_site_fract_y
_atom_site_fract_z
Cu1 Cu 0.000000 0.250000 -0.250000
Cu2 Cu -0.14041(16) 0.40383(13) 0.2023(4)
C1 C -0.06703(51) 0.31087(47) 0.0068(12)
N1 N -0.02133(46) 0.31912(40) -0.0949(9)
N2 N -0.06453(34) 0.36703(47) 0.0970(8)
C2 C 0.00923(51) 0.38047(43) -0.0678(10)
C3 C -0.01430(36) 0.40722(54) 0.0571(11)
C4 C -0.14410(72) 0.49448(34) -0.0577(7)
N3 N -0.15527(67) 0.49025(39) 0.0863(6)
N4 N -0.16182(66) 0.55942(37) -0.1027(7)
C5 C -0.18126(63) 0.55202(37) 0.1295(6)
C6 C -0.18087(78) 0.59643(33) 0.0148(8)
N5 N -0.17427(34) 0.30737(10) 0.2382(19)
C7 C -0.13644(34) 0.250000 0.250000
C8 C -0.23542(34) 0.28522(12) 0.2387(17)
N5F N -0.17427(34) 0.19263(10) 0.2618(19)
C8F C -0.23542(34) 0.21478(12) 0.2613(17)
C1A C 0.06703(51) 0.18913(47) 0.0068(12)
N1A N 0.02133(46) 0.18088(40) -0.0949(9)
N2A N 0.06453(34) 0.13297(47) 0.0970(8)
C2A C -0.00923(51) 0.11953(43) -0.0678(10)
C3A C 0.01430(36) 0.09278(54) 0.0571(11)
C1F C -0.06703(51) 0.18913(47) -0.5068(12)
N1F N -0.02133(46) 0.18088(40) -0.4051(9)
N2F N -0.06453(34) 0.13297(47) -0.5970(8)
C2F C 0.00923(51) 0.11953(43) -0.4322(10)
C3F C -0.01430(36) 0.09278(54) -0.5571(11)
C1G C 0.06703(51) 0.31087(47) -0.5068(12)
N1G N 0.02133(46) 0.31912(40) -0.4051(9)
N2G N 0.06453(34) 0.36703(47) -0.5970(8)
C2G C -0.00923(51) 0.38047(43) -0.4322(10)
C3G C 0.01430(36) 0.40722(54) -0.5571(11)
Cu2A Cu 0.14041(16) 0.09617(13) 0.2023(4)
Cu2F Cu -0.14041(16) 0.09617(13) -0.7023(4)
Cu2G Cu 0.14041(16) 0.40383(13) -0.7023(4)
C4O C -0.14410(72) 0.50552(34) 0.4423(7)
N3O N -0.15527(67) 0.50975(39) 0.5863(6)
N4O N -0.16182(66) 0.44058(37) 0.3973(7)
C5O C -0.18126(63) 0.44798(37) 0.6295(6)
C6O C -0.18087(78) 0.40357(33) 0.5148(8)
C4A C 0.14410(72) 0.00552(34) -0.0577(7)
N3A N 0.15527(67) 0.00975(39) 0.0863(6)
N4A N 0.16182(66) -0.05942(37) -0.1027(7)
C5A C 0.18126(63) -0.05202(37) 0.1295(6)
C6A C 0.18087(78) -0.09643(33) 0.0148(8)
C4N C 0.14410(72) -0.00552(34) 0.4423(7)
N3N N 0.15527(67) -0.00975(39) 0.5863(6)
N4N N 0.16182(66) 0.05942(37) 0.3973(7)
C5N C 0.18126(63) 0.05202(37) 0.6295(6)
C6N C 0.18087(78) 0.09643(33) 0.5148(8)
N5A N 0.17427(34) 0.19263(10) 0.2382(19)
C7A C 0.13644(34) 0.250000 0.250000
C8A C 0.23542(34) 0.21478(12) 0.2387(17)
N5G N 0.17427(34) 0.30737(10) 0.2618(19)
C8G C 0.23542(34) 0.28522(12) 0.2613(17)
Cu2O Cu -0.14041(16) 0.59617(13) -0.2977(4)
Cu2F_2 Cu -0.14041(16) 0.09617(13) 0.2977(4)
N3F N -0.15527(67) 0.00975(39) -0.5863(6)
N4I N -0.16182(66) 0.05942(37) -0.8973(7)
N5F_2 N -0.17427(34) 0.19263(10) -0.7382(19)
N3G N 0.15527(67) 0.49025(39) -0.5863(6)
N4H N 0.16182(66) 0.44058(37) -0.8973(7)
N5G_2 N 0.17427(34) 0.30737(10) -0.7382(19)
Cu2O_2 Cu -0.14041(16) 0.59617(13) 0.7023(4)
Cu2N Cu 0.14041(16) -0.09617(13) -0.2977(4)
Cu2N_2 Cu 0.14041(16) -0.09617(13) 0.7023(4)
Cu2G_2 Cu 0.14041(16) 0.40383(13) 0.2977(4)
loop_
_geom_bond_atom_site_label_1
_geom_bond_atom_site_label_2
_geom_bond_site_symmetry_1
_geom_bond_site_symmetry_2
Cu1 N1 1_555 1_555
Cu2 N2 1_555 1_555
C1 N1 1_555 1_555
N1 C2 1_555 1_555
N2 C1 1_555 1_555
C2 C3 1_555 1_555
C3 N2 1_555 1_555
C4 N3 1_555 1_555
N3 Cu2 1_555 1_555
N4 C4 1_555 1_555
C5 N3 1_555 1_555
C6 N4 1_555 1_555
N5 Cu2 1_555 1_555
C7 N5 1_555 1_555
C8 N5 1_555 1_555
N5F C7 1_555 1_555
C8F C8 1_555 1_555
C1A N1A 1_555 1_555
N1A Cu1 1_555 1_555
N2A C1A 1_555 1_555
C2A N1A 1_555 1_555
C3A N2A 1_555 1_555
C1F N1F 1_555 1_555
N1F Cu1 1_555 1_555
N2F C1F 1_555 1_555
C2F N1F 1_555 1_555
C3F N2F 1_555 1_555
C1G N1G 1_555 1_555
N1G Cu1 1_555 1_555
N2G C1G 1_555 1_555
C2G N1G 1_555 1_555
C3G N2G 1_555 1_555
Cu2A N2A 1_555 1_555
Cu2F N2F 1_555 1_555
Cu2G N2G 1_555 1_555
C4O N3O 1_555 1_555
N3O C5O 1_555 1_555
N4O Cu2 1_555 1_555
C5O C6O 1_555 1_555
C6O N4O 1_555 1_555
C4A N3A 1_555 1_555
N3A Cu2A 1_555 1_555
N4A C4A 1_555 1_555
C5A N3A 1_555 1_555
C6A N4A 1_555 1_555
C4N N3N 1_555 1_555
N3N C5N 1_555 1_555
N4N Cu2A 1_555 1_555
C5N C6N 1_555 1_555
C6N N4N 1_555 1_555
N5A Cu2A 1_555 1_555
C7A N5A 1_555 1_555
C8A N5A 1_555 1_555
N5G C7A 1_555 1_555
C8G C8A 1_555 1_555
Cu2O N4 1_555 1_555
Cu2F_2 N5F 1_555 1_555
N3F Cu2F 1_555 1_555
N4I Cu2F 1_555 1_555
N5F_2 Cu2F 1_555 1_555
N3G Cu2G 1_555 1_555
N4H Cu2G 1_555 1_555
N5G_2 Cu2G 1_555 1_555
Cu2O_2 N3O 1_555 1_555
Cu2N N4A 1_555 1_555
Cu2N_2 N3N 1_555 1_555
Cu2G_2 N5G 1_555 1_555
C5 C6 1_555 1_555
N5F C8F 1_555 1_555
C2A C3A 1_555 1_555
C2F C3F 1_555 1_555
C2G C3G 1_555 1_555
C4O N4O 1_555 1_555
C5A C6A 1_555 1_555
C4N N4N 1_555 1_555
N5G C8G 1_555 1_555

#END
