
#######################################################################
#
#                 Cambridge Crystallographic Data Centre
#                                CCDC 
#
#######################################################################
#
# If this CIF has been generated from an entry in the Cambridge 
# Structural Database, then it will include bibliographic, chemical, 
# crystal, experimental, refinement or atomic coordinate data resulting 
# from the CCDC's data processing and validation procedures.
#
#######################################################################

data_CUIPYS
_symmetry_cell_setting           monoclinic
_symmetry_space_group_name_H-M   'P 21/c'
_symmetry_Int_Tables_number      14
_space_group_name_Hall           '-P 2ybc'
loop_
_symmetry_equiv_pos_site_id
_symmetry_equiv_pos_as_xyz
1 x,y,z
2 -x,1/2+y,1/2-z
3 -x,-y,-z
4 x,1/2-y,1/2+z
_cell_length_a                   9.182(2)
_cell_length_b                   4.204(2)
_cell_length_c                   19.049(5)
_cell_angle_alpha                90
_cell_angle_beta                 111.56(2)
_cell_angle_gamma                90
_cell_volume                     683.865
loop_
_atom_site_label
_atom_site_type_symbol
_atom_site_fract_x
_atom_site_fract_y
_atom_site_fract_z
I1 I 0.33030 0.06360 0.15010
Cu1 Cu 0.48230 0.05680 0.29770
N1 N 0.32000 0.06300 0.34800
C1 C 0.34400 -0.07800 0.41300
C2 C 0.23500 -0.07200 0.44800
C3 C 0.09900 0.08700 0.41400
C4 C 0.07300 0.23000 0.34700
C5 C 0.18600 0.21700 0.31500
Cu1A Cu 0.51770 0.55680 0.20230
Cu1A_2 Cu 0.51770 -0.44320 0.20230
I1A I 0.66970 0.56360 0.34990
I1A_2 I 0.66970 -0.43640 0.34990
I1_2 I 0.33030 1.06360 0.15010
N1A N 0.68000 0.56300 0.15200
Cu1_2 Cu 0.48230 1.05680 0.29770
C1A C 0.65600 0.42200 0.08700
C5A C 0.81400 0.71700 0.18500
C2A C 0.76500 0.42800 0.05200
C4A C 0.92700 0.73000 0.15300
C3A C 0.90100 0.58700 0.08600
loop_
_geom_bond_atom_site_label_1
_geom_bond_atom_site_label_2
_geom_bond_site_symmetry_1
_geom_bond_site_symmetry_2
I1 Cu1 1_555 1_555
Cu1 N1 1_555 1_555
N1 C1 1_555 1_555
C1 C2 1_555 1_555
C2 C3 1_555 1_555
C3 C4 1_555 1_555
C4 C5 1_555 1_555
C5 N1 1_555 1_555
Cu1A I1 1_555 1_555
Cu1A_2 I1 1_555 1_555
I1A Cu1 1_555 1_555
I1A_2 Cu1 1_555 1_555
I1_2 Cu1A 1_555 1_555
N1A Cu1A 1_555 1_555
Cu1_2 I1A 1_555 1_555
C1A N1A 1_555 1_555
C5A N1A 1_555 1_555
C2A C1A 1_555 1_555
C4A C5A 1_555 1_555
C3A C2A 1_555 1_555
Cu1A I1A 1_555 1_555
C4A C3A 1_555 1_555

#END
