
#######################################################################
#
#                 Cambridge Crystallographic Data Centre
#                                CCDC 
#
#######################################################################
#
# If this CIF has been generated from an entry in the Cambridge 
# Structural Database, then it will include bibliographic, chemical, 
# crystal, experimental, refinement or atomic coordinate data resulting 
# from the CCDC's data processing and validation procedures.
#
#######################################################################

data_CUJCOB
_symmetry_cell_setting           monoclinic
_symmetry_space_group_name_H-M   'P 21/c'
_symmetry_Int_Tables_number      14
_space_group_name_Hall           '-P 2ybc'
loop_
_symmetry_equiv_pos_site_id
_symmetry_equiv_pos_as_xyz
1 x,y,z
2 -x,1/2+y,1/2-z
3 -x,-y,-z
4 x,1/2-y,1/2+z
_cell_length_a                   16.6746(4)
_cell_length_b                   12.7263(3)
_cell_length_c                   6.77786(18)
_cell_angle_alpha                90
_cell_angle_beta                 93.634(2)
_cell_angle_gamma                90
_cell_volume                     1435.41
loop_
_atom_site_label
_atom_site_type_symbol
_atom_site_fract_x
_atom_site_fract_y
_atom_site_fract_z
Dy1 Dy 0.95253(2) 0.37124(3) 0.38572(6)
O1 O 0.8869(3) 0.3874(5) 0.0839(8)
O2 O 0.8480(3) 0.2438(5) -0.0853(9)
O3 O 0.1360(4) 0.5356(5) 0.4357(9)
O4 O 0.0860(4) 0.3830(5) 0.3131(10)
O5 O 0.9702(4) 0.5497(5) 0.3150(9)
O6 O 1.0086(4) 0.7128(5) 0.2827(9)
N1 N 0.5093(5) 0.4157(6) 0.1699(12)
N2 N 0.4585(4) 0.3433(7) 0.1399(12)
C1 C 0.8332(5) 0.3273(7) 0.0069(12)
C2 C 0.7465(5) 0.3523(7) 0.0327(14)
C3 C 0.6867(5) 0.2824(7) -0.0327(13)
H1 H 0.6999 0.2228 -0.1030
C4 C 0.6071(6) 0.3011(8) 0.0064(14)
H2 H 0.5670 0.2541 -0.0371
C5 C 0.5882(5) 0.3901(7) 0.1106(13)
C6 C 0.6473(5) 0.4644(7) 0.1683(14)
H3 H 0.6332 0.5264 0.2301
C7 C 0.7269(5) 0.4447(7) 0.1326(13)
H4 H 0.7669 0.4921 0.1743
C8 C 0.3811(6) 0.3721(7) 0.2001(14)
C9 C 0.3183(5) 0.3035(7) 0.1451(13)
H5 H 0.3284 0.2422 0.0762
C10 C 0.2403(5) 0.3273(8) 0.1939(15)
H6 H 0.1982 0.2821 0.1560
C11 C 0.2253(5) 0.4175(7) 0.2984(13)
C12 C 0.2894(5) 0.4858(7) 0.3554(13)
H7 H 0.2795 0.5469 0.4250
C13 C 0.3670(5) 0.4621(8) 0.3084(14)
H8 H 0.4093 0.5062 0.3491
C14 C 0.1427(5) 0.4482(7) 0.3540(13)
C15 C 0.9753(5) 0.6309(6) 0.2099(12)
Dy1_2 Dy -0.04747(2) 0.37124(3) 0.38572(6)
Dy1A Dy 1.04747(2) 0.87124(3) 0.11428(6)
Dy1B Dy 0.04747(2) 0.62876(3) 0.61428(6)
Dy1B_2 Dy 1.04747(2) 0.62876(3) 0.61428(6)
Dy1C Dy 0.95253(2) 0.12876(3) -0.11428(6)
O2C O 0.8480(3) 0.2562(5) 0.4147(9)
O3B O 0.8640(4) 0.4644(5) 0.5643(9)
O4_2 O 1.0860(4) 0.3830(5) 0.3131(10)
O5B O 1.0298(4) 0.4503(5) 0.6850(9)
O6A O 0.9914(4) 0.2128(5) 0.2173(9)
O6B O 0.9914(4) 0.2872(5) 0.7173(9)
loop_
_geom_bond_atom_site_label_1
_geom_bond_atom_site_label_2
_geom_bond_site_symmetry_1
_geom_bond_site_symmetry_2
Dy1 O1 1_555 1_555
O1 C1 1_555 1_555
O2 C1 1_555 1_555
O3 C14 1_555 1_555
O4 C14 1_555 1_555
O5 Dy1 1_555 1_555
O6 C15 1_555 1_555
N1 N2 1_555 1_555
N2 C8 1_555 1_555
C1 C2 1_555 1_555
C2 C3 1_555 1_555
C3 H1 1_555 1_555
C4 C3 1_555 1_555
H2 C4 1_555 1_555
C5 N1 1_555 1_555
C6 C5 1_555 1_555
H3 C6 1_555 1_555
C7 C2 1_555 1_555
H4 C7 1_555 1_555
C8 C9 1_555 1_555
C9 H5 1_555 1_555
C10 C9 1_555 1_555
H6 C10 1_555 1_555
C11 C10 1_555 1_555
C12 C11 1_555 1_555
H7 C12 1_555 1_555
C13 C8 1_555 1_555
H8 C13 1_555 1_555
C14 C11 1_555 1_555
C15 O5 1_555 1_555
Dy1_2 O4 1_555 1_555
Dy1A O6 1_555 1_555
Dy1B O3 1_555 1_555
Dy1B_2 O5 1_555 1_555
Dy1C O2 1_555 1_555
O2C Dy1 1_555 1_555
O3B Dy1 1_555 1_555
O4_2 Dy1 1_555 1_555
O5B Dy1 1_555 1_555
O6A Dy1 1_555 1_555
O6B Dy1 1_555 1_555
O6 Dy1B_2 1_555 1_555
C4 C5 1_555 1_555
C6 C7 1_555 1_555
C12 C13 1_555 1_555
Dy1B_2 O5B 1_555 1_555
Dy1C O6A 1_555 1_555

#END
