
#######################################################################
#
#                 Cambridge Crystallographic Data Centre
#                                CCDC 
#
#######################################################################
#
# If this CIF has been generated from an entry in the Cambridge 
# Structural Database, then it will include bibliographic, chemical, 
# crystal, experimental, refinement or atomic coordinate data resulting 
# from the CCDC's data processing and validation procedures.
#
#######################################################################

data_CUJXOW
_symmetry_cell_setting           monoclinic
_symmetry_space_group_name_H-M   'C 2/c'
_symmetry_Int_Tables_number      15
_space_group_name_Hall           '-C 2yn'
loop_
_symmetry_equiv_pos_site_id
_symmetry_equiv_pos_as_xyz
1 x,y,z
2 -x,y,1/2-z
3 1/2+x,1/2+y,z
4 1/2-x,1/2+y,1/2-z
5 -x,-y,-z
6 x,-y,1/2+z
7 1/2-x,1/2-y,-z
8 1/2+x,1/2-y,1/2+z
_cell_length_a                   20.4469(6)
_cell_length_b                   10.2715(3)
_cell_length_c                   21.1301(6)
_cell_angle_alpha                90
_cell_angle_beta                 97.75
_cell_angle_gamma                90
_cell_volume                     4397.22
loop_
_atom_site_label
_atom_site_type_symbol
_atom_site_fract_x
_atom_site_fract_y
_atom_site_fract_z
Mo1 Mo 0.950847(13) -0.06180(3) 0.172607(13)
O1 O 0.89873(13) -0.1947(3) 0.16012(12)
O2 O 0.90484(13) 0.0611(3) 0.19640(12)
O3 O 0.80817(12) -0.0617(2) 0.00793(12)
Mo2 Mo 0.865085(13) 0.06267(3) 0.014234(13)
O4 O 0.82970(12) 0.1822(3) 0.05425(12)
Mo3 Mo 0.985311(13) -0.15321(3) 0.027156(13)
O5 O 1.02448(11) -0.1659(2) 0.11129(11)
O6 O 1.04932(11) -0.2060(2) -0.01409(11)
O7 O 0.93198(12) -0.2825(2) 0.02062(12)
O8 O 0.84768(11) 0.1233(2) -0.07273(10)
Mo4 Mo 0.892874(13) 0.02281(3) -0.137792(13)
O9 O 0.83999(12) -0.1085(3) -0.14446(12)
O10 O 0.86136(12) 0.1241(3) -0.19844(11)
O11 O 0.96641(11) -0.0541(2) -0.16552(11)
O12 O 0.94093(11) -0.0315(2) -0.03685(10)
O13 O 0.92950(11) -0.0164(2) 0.07712(11)
O14 O 1.0000 -0.1214(3) 0.2500
Cu1 Cu 0.7500 -0.2500 0.0000
N1 N 0.68673(15) -0.1912(3) 0.06063(14)
H1 H 0.6509 -0.2338 0.0629
C1 C 0.74209(19) -0.0887(4) 0.15781(18)
H2 H 0.7590 -0.1690 0.1724
O15 O 0.80761(13) -0.3274(3) 0.07592(13)
C2 C 0.7566(2) 0.0223(4) 0.1942(2)
H3 H 0.7837 0.0178 0.2332
N2 N 0.69224(16) 0.1457(3) 0.11529(16)
C3 C 0.70208(17) -0.0795(4) 0.09923(17)
C4 C 0.67844(19) 0.0408(4) 0.07917(19)
H4 H 0.6524 0.0490 0.0397
C5 C 0.7303(2) 0.1389(4) 0.1717(2)
H5 H 0.7390 0.2139 0.1960
Mo1A Mo 1.049153(13) -0.06180(3) 0.327393(13)
O1A O 1.10127(13) -0.1947(3) 0.33988(12)
O2A O 1.09516(13) 0.0611(3) 0.30360(12)
O3A O 1.19183(12) -0.0617(2) 0.49207(12)
Mo2A Mo 1.134915(13) 0.06267(3) 0.485766(13)
O4A O 1.17030(12) 0.1822(3) 0.44575(12)
Mo3A Mo 1.014689(13) -0.15321(3) 0.472844(13)
O5A O 0.97552(11) -0.1659(2) 0.38871(11)
O6A O 0.95068(11) -0.2060(2) 0.51409(11)
O7A O 1.06802(12) -0.2825(2) 0.47938(12)
O8A O 1.15232(11) 0.1233(2) 0.57273(10)
Mo4A Mo 1.107126(13) 0.02281(3) 0.637792(13)
O9A O 1.16001(12) -0.1085(3) 0.64446(12)
O10A O 1.13864(12) 0.1241(3) 0.69844(11)
O11A O 1.03359(11) -0.0541(2) 0.66552(11)
O12A O 1.05907(11) -0.0315(2) 0.53685(10)
O13A O 1.07050(11) -0.0164(2) 0.42288(11)
N1F N 0.81327(15) -0.3088(3) -0.06063(14)
H1F H 0.8491 -0.2662 -0.0629
C1F C 0.75791(19) -0.4113(4) -0.15781(18)
H2F H 0.7410 -0.3310 -0.1724
C2F C 0.7434(2) -0.5223(4) -0.1942(2)
H3F H 0.7163 -0.5178 -0.2332
N2F N 0.80776(16) -0.6457(3) -0.11529(16)
C3F C 0.79792(17) -0.4205(4) -0.09923(17)
C4F C 0.82156(19) -0.5408(4) -0.07917(19)
H4F H 0.8476 -0.5490 -0.0397
C5F C 0.7697(2) -0.6389(4) -0.1717(2)
H5F H 0.7610 -0.7139 -0.1960
O15F O 0.69239(13) -0.1726(3) -0.07592(13)
Mo1D Mo 1.049153(13) 0.06180(3) -0.172607(13)
Mo1E Mo 0.950847(13) 0.06180(3) 0.672607(13)
O3F O 0.69183(12) -0.4383(2) -0.00793(12)
Mo2D Mo 1.134915(13) -0.06267(3) -0.014234(13)
Mo2E Mo 0.865085(13) -0.06267(3) 0.514234(13)
Mo3D Mo 1.014689(13) 0.15321(3) -0.027156(13)
Mo3E Mo 0.985311(13) 0.15321(3) 0.527156(13)
O5D O 0.97552(11) 0.1659(2) -0.11129(11)
O5E O 1.02448(11) 0.1659(2) 0.61129(11)
O6D O 0.95068(11) 0.2060(2) 0.01409(11)
O6E O 1.04932(11) 0.2060(2) 0.48591(11)
Mo4D Mo 1.107126(13) -0.02281(3) 0.137792(13)
Mo4E Mo 0.892874(13) -0.02281(3) 0.362208(13)
O11D O 1.03359(11) 0.0541(2) 0.16552(11)
O11E O 0.96641(11) 0.0541(2) 0.33448(11)
O12D O 1.05907(11) 0.0315(2) 0.03685(10)
O12E O 0.94093(11) 0.0315(2) 0.46315(10)
Cu1A Cu 1.2500 -0.2500 0.5000
O16 O 0.79374(15) 0.4166(3) 0.10381(16)
N3 N 0.8696(2) 0.5491(4) 0.2169(2)
H6 H 0.8664 0.6324 0.2137
H7 H 0.8466 0.5001 0.1893
N4 N 0.9893(3) 0.5149(6) 0.3597(3)
C6 C 0.9568(2) 0.3095(4) 0.3203(2)
H8 H 0.9599 0.2194 0.3234
C7 C 0.9163(2) 0.3596(5) 0.2718(2)
H9 H 0.8918 0.3049 0.2426
C8 C 0.9108(2) 0.4952(4) 0.2649(2)
C9 C 0.9493(2) 0.5706(4) 0.3109(2)
H10 H 0.9474 0.6608 0.3079
C10 C 0.9922(3) 0.3793(6) 0.3637(3)
H11 H 1.0191 0.3391 0.3971
loop_
_geom_bond_atom_site_label_1
_geom_bond_atom_site_label_2
_geom_bond_site_symmetry_1
_geom_bond_site_symmetry_2
Mo1 O1 1_555 1_555
O2 Mo1 1_555 1_555
O3 Mo2 1_555 1_555
Mo2 O4 1_555 1_555
Mo3 O5 1_555 1_555
O5 Mo1 1_555 1_555
O6 Mo3 1_555 1_555
O7 Mo3 1_555 1_555
O8 Mo2 1_555 1_555
Mo4 O8 1_555 1_555
O9 Mo4 1_555 1_555
O10 Mo4 1_555 1_555
O11 Mo4 1_555 1_555
O12 Mo2 1_555 1_555
O13 Mo1 1_555 1_555
O14 Mo1 1_555 1_555
Cu1 O3 1_555 1_555
N1 Cu1 1_555 1_555
H1 N1 1_555 1_555
C1 H2 1_555 1_555
O15 Cu1 1_555 1_555
C2 C1 1_555 1_555
H3 C2 1_555 1_555
N2 C4 1_555 1_555
C3 N1 1_555 1_555
C4 C3 1_555 1_555
H4 C4 1_555 1_555
C5 C2 1_555 1_555
H5 C5 1_555 1_555
N3 H6 1_555 1_555
H7 N3 1_555 1_555
N4 C9 1_555 1_555
C6 H8 1_555 1_555
C7 C6 1_555 1_555
H9 C7 1_555 1_555
C8 N3 1_555 1_555
C9 C8 1_555 1_555
H10 C9 1_555 1_555
C10 N4 1_555 1_555
H11 C10 1_555 1_555
Mo1A O14 1_555 1_555
O1A Mo1A 1_555 1_555
O2A Mo1A 1_555 1_555
O3A Mo2A 1_555 1_555
Mo2A O4A 1_555 1_555
Mo3A O5A 1_555 1_555
O5A Mo1A 1_555 1_555
O6A Mo3A 1_555 1_555
O7A Mo3A 1_555 1_555
O8A Mo2A 1_555 1_555
Mo4A O8A 1_555 1_555
O9A Mo4A 1_555 1_555
O10A Mo4A 1_555 1_555
O11A Mo4A 1_555 1_555
O12A Mo2A 1_555 1_555
O13A Mo1A 1_555 1_555
N1F Cu1 1_555 1_555
H1F N1F 1_555 1_555
C1F H2F 1_555 1_555
C2F C1F 1_555 1_555
H3F C2F 1_555 1_555
N2F C4F 1_555 1_555
C3F N1F 1_555 1_555
C4F C3F 1_555 1_555
H4F C4F 1_555 1_555
C5F C2F 1_555 1_555
H5F C5F 1_555 1_555
O15F Cu1 1_555 1_555
Mo1D O11 1_555 1_555
Mo1E O11A 1_555 1_555
O3F Cu1 1_555 1_555
Mo2D O6 1_555 1_555
Mo2E O6A 1_555 1_555
Mo3D O12 1_555 1_555
Mo3E O12A 1_555 1_555
O5D Mo4 1_555 1_555
O5E Mo4A 1_555 1_555
O6D Mo2 1_555 1_555
O6E Mo2A 1_555 1_555
Mo4D O5 1_555 1_555
Mo4E O5A 1_555 1_555
O11D Mo1 1_555 1_555
O11E Mo1A 1_555 1_555
O12D Mo3 1_555 1_555
O12E Mo3A 1_555 1_555
Cu1A O3A 1_555 1_555
Mo2 O13 1_555 1_555
Mo3 O12 1_555 1_555
Mo3 O13 1_555 1_555
Mo4 O12 1_555 1_555
C1 C3 1_555 1_555
N2 C5 1_555 1_555
C6 C10 1_555 1_555
C7 C8 1_555 1_555
Mo2A O13A 1_555 1_555
Mo3A O12A 1_555 1_555
Mo3A O13A 1_555 1_555
Mo4A O12A 1_555 1_555
C1F C3F 1_555 1_555
N2F C5F 1_555 1_555
Mo1D O5D 1_555 1_555
Mo1E O5E 1_555 1_555
Mo2D O12D 1_555 1_555
Mo2E O12E 1_555 1_555
Mo3D O5D 1_555 1_555
Mo3D O6D 1_555 1_555
Mo3D O12D 1_555 1_555
Mo3E O5E 1_555 1_555
Mo3E O6E 1_555 1_555
Mo3E O12E 1_555 1_555
Mo4D O11D 1_555 1_555
Mo4D O12D 1_555 1_555
Mo4E O11E 1_555 1_555
Mo4E O12E 1_555 1_555

#END
