
#######################################################################
#
#                 Cambridge Crystallographic Data Centre
#                                CCDC 
#
#######################################################################
#
# If this CIF has been generated from an entry in the Cambridge 
# Structural Database, then it will include bibliographic, chemical, 
# crystal, experimental, refinement or atomic coordinate data resulting 
# from the CCDC's data processing and validation procedures.
#
#######################################################################

data_CUJXUC
_symmetry_cell_setting           monoclinic
_symmetry_space_group_name_H-M   'C 2/c'
_symmetry_Int_Tables_number      15
_space_group_name_Hall           '-C 2yn'
loop_
_symmetry_equiv_pos_site_id
_symmetry_equiv_pos_as_xyz
1 x,y,z
2 -x,y,1/2-z
3 1/2+x,1/2+y,z
4 1/2-x,1/2+y,1/2-z
5 -x,-y,-z
6 x,-y,1/2+z
7 1/2-x,1/2-y,-z
8 1/2+x,1/2-y,1/2+z
_cell_length_a                   20.2455(9)
_cell_length_b                   10.3106(5)
_cell_length_c                   21.1660(10)
_cell_angle_alpha                90
_cell_angle_beta                 97.7170(10)
_cell_angle_gamma                90
_cell_volume                     4378.25
loop_
_atom_site_label
_atom_site_type_symbol
_atom_site_fract_x
_atom_site_fract_y
_atom_site_fract_z
Co1 Co 0.2500 0.2500 0.5000
Mo1 Mo 0.450539(17) 0.06420(3) 0.672349(17)
O1 O 0.30718(14) 0.0788(3) 0.50701(14)
C1 C 0.1992(2) 0.0706(4) 0.6016(2)
O2 O 0.19142(16) 0.1704(3) 0.42281(16)
N1 N 0.18326(19) 0.1805(4) 0.56340(19)
H1 H 0.1463 0.2205 0.5654
Mo2 Mo 0.488055(17) 0.15423(3) 0.526902(16)
O3 O 0.42857(14) 0.0233(3) 0.57628(13)
C2 C 0.1769(2) -0.0506(5) 0.5817(3)
H2 H 0.1507 -0.0599 0.5424
N2 N 0.2294(2) -0.1491(4) 0.6733(2)
Mo3 Mo 0.362446(17) -0.05056(3) 0.513382(17)
O4 O 0.52706(14) 0.1653(3) 0.61095(14)
C3 C 0.1918(3) -0.1534(5) 0.6174(3)
H3 H 0.1751 -0.2334 0.6024
Mo4 Mo 0.392099(17) -0.01718(4) 0.361974(17)
O5 O 0.44118(14) 0.0359(3) 0.46299(13)
C4 C 0.2553(3) -0.0299(5) 0.6961(3)
H4 H 0.2825 -0.0248 0.7351
O6 O 0.5000 0.1211(4) 0.7500
C5 C 0.2399(2) 0.0799(5) 0.6600(2)
H5 H 0.2566 0.1601 0.6746
O7 O 0.40268(16) -0.0567(3) 0.69510(16)
O8 O 0.39972(16) 0.1990(3) 0.66041(15)
O9 O 0.32443(15) -0.1664(3) 0.55337(15)
O10 O 0.34410(14) -0.1113(3) 0.42679(14)
O11 O 0.34106(15) 0.1173(3) 0.35341(15)
O12 O 0.35989(15) -0.1179(3) 0.30149(14)
O13 O 0.46781(14) 0.0552(3) 0.33484(14)
O14 O 0.55425(14) 0.2001(3) 0.48614(14)
O15 O 0.43676(15) 0.2866(3) 0.51948(15)
Mo1A Mo 0.549461(17) 0.06420(3) 0.827651(17)
O1A O 0.69282(14) 0.0788(3) 0.99299(14)
Mo2A Mo 0.511945(17) 0.15423(3) 0.973098(16)
O3A O 0.57143(14) 0.0233(3) 0.92372(13)
Mo3A Mo 0.637554(17) -0.05056(3) 0.986618(17)
O4A O 0.47294(14) 0.1653(3) 0.88905(14)
Mo4A Mo 0.607901(17) -0.01718(4) 1.138026(17)
O5A O 0.55882(14) 0.0359(3) 1.03701(13)
O7A O 0.59732(16) -0.0567(3) 0.80490(16)
O8A O 0.60028(16) 0.1990(3) 0.83959(15)
O9A O 0.67557(15) -0.1664(3) 0.94663(15)
O10A O 0.65590(14) -0.1113(3) 1.07321(14)
O11A O 0.65894(15) 0.1173(3) 1.14659(15)
O12A O 0.64011(15) -0.1179(3) 1.19851(14)
O13A O 0.53219(14) 0.0552(3) 1.16516(14)
O14A O 0.44575(14) 0.2001(3) 1.01386(14)
O15A O 0.56324(15) 0.2866(3) 0.98052(15)
C1F C 0.3008(2) 0.4294(4) 0.3984(2)
N1F N 0.31674(19) 0.3195(4) 0.43660(19)
H1F H 0.3537 0.2795 0.4346
C2F C 0.3231(2) 0.5506(5) 0.4183(3)
H2F H 0.3493 0.5599 0.4576
N2F N 0.2706(2) 0.6491(4) 0.3267(2)
C3F C 0.3082(3) 0.6534(5) 0.3826(3)
H3F H 0.3249 0.7334 0.3976
C4F C 0.2447(3) 0.5299(5) 0.3039(3)
H4F H 0.2175 0.5248 0.2649
C5F C 0.2601(2) 0.4201(5) 0.3400(2)
H5F H 0.2434 0.3399 0.3254
O2F O 0.30858(16) 0.3296(3) 0.57719(16)
Co1A Co 0.7500 0.2500 1.0000
Mo1D Mo 0.549461(17) -0.06420(3) 0.327651(17)
Mo1E Mo 0.450539(17) -0.06420(3) 1.172349(17)
O1F O 0.19282(14) 0.4212(3) 0.49299(14)
Mo2D Mo 0.511945(17) -0.15423(3) 0.473098(16)
Mo2E Mo 0.488055(17) -0.15423(3) 1.026902(16)
Mo3D Mo 0.637554(17) 0.05056(3) 0.486618(17)
Mo3E Mo 0.362446(17) 0.05056(3) 1.013382(17)
O4D O 0.47294(14) -0.1653(3) 0.38905(14)
O4E O 0.52706(14) -0.1653(3) 1.11095(14)
Mo4D Mo 0.607901(17) 0.01718(4) 0.638026(17)
Mo4E Mo 0.392099(17) 0.01718(4) 0.861974(17)
O5D O 0.55882(14) -0.0359(3) 0.53701(13)
O5E O 0.44118(14) -0.0359(3) 0.96299(13)
O13D O 0.53219(14) -0.0552(3) 0.66516(14)
O13E O 0.46781(14) -0.0552(3) 0.83484(14)
O14D O 0.44575(14) -0.2001(3) 0.51386(14)
O14E O 0.55425(14) -0.2001(3) 0.98614(14)
O16 O 0.29830(19) -0.4107(3) 0.6008(2)
N3 N 0.5063(3) -0.3788(7) 0.6351(3)
N4 N 0.6290(3) -0.5432(6) 0.7839(3)
H6 H 0.6326 -0.6260 0.7881
H7 H 0.6515 -0.4929 0.8112
C6 C 0.5418(2) -0.3094(5) 0.6783(3)
H8 H 0.5389 -0.2196 0.6747
C7 C 0.5508(3) -0.5702(5) 0.6895(3)
H9 H 0.5532 -0.6600 0.6934
C8 C 0.5813(3) -0.3573(6) 0.7264(3)
H10 H 0.6052 -0.3016 0.7556
C9 C 0.5882(3) -0.4925(6) 0.7348(3)
C10 C 0.5114(3) -0.5168(6) 0.6405(3)
H11 H 0.4873 -0.5694 0.6099
loop_
_geom_bond_atom_site_label_1
_geom_bond_atom_site_label_2
_geom_bond_site_symmetry_1
_geom_bond_site_symmetry_2
Co1 O1 1_555 1_555
Mo1 O3 1_555 1_555
O1 Mo3 1_555 1_555
C1 N1 1_555 1_555
O2 Co1 1_555 1_555
N1 Co1 1_555 1_555
H1 N1 1_555 1_555
Mo2 O3 1_555 1_555
O3 Mo3 1_555 1_555
C2 C1 1_555 1_555
H2 C2 1_555 1_555
N2 C3 1_555 1_555
Mo3 O5 1_555 1_555
O4 Mo1 1_555 1_555
C3 C2 1_555 1_555
H3 C3 1_555 1_555
Mo4 O5 1_555 1_555
O5 Mo2 1_555 1_555
C4 N2 1_555 1_555
H4 C4 1_555 1_555
O6 Mo1 1_555 1_555
C5 C1 1_555 1_555
H5 C5 1_555 1_555
O7 Mo1 1_555 1_555
O8 Mo1 1_555 1_555
O9 Mo3 1_555 1_555
O10 Mo3 1_555 1_555
O11 Mo4 1_555 1_555
O12 Mo4 1_555 1_555
O13 Mo4 1_555 1_555
O14 Mo2 1_555 1_555
O15 Mo2 1_555 1_555
N3 C6 1_555 1_555
N4 H6 1_555 1_555
H7 N4 1_555 1_555
C6 H8 1_555 1_555
C7 H9 1_555 1_555
C8 C6 1_555 1_555
H10 C8 1_555 1_555
C9 N4 1_555 1_555
C10 N3 1_555 1_555
H11 C10 1_555 1_555
Mo1A O6 1_555 1_555
O1A Mo3A 1_555 1_555
Mo2A O3A 1_555 1_555
O3A Mo1A 1_555 1_555
Mo3A O3A 1_555 1_555
O4A Mo1A 1_555 1_555
Mo4A O5A 1_555 1_555
O5A Mo2A 1_555 1_555
O7A Mo1A 1_555 1_555
O8A Mo1A 1_555 1_555
O9A Mo3A 1_555 1_555
O10A Mo3A 1_555 1_555
O11A Mo4A 1_555 1_555
O12A Mo4A 1_555 1_555
O13A Mo4A 1_555 1_555
O14A Mo2A 1_555 1_555
O15A Mo2A 1_555 1_555
C1F N1F 1_555 1_555
N1F Co1 1_555 1_555
H1F N1F 1_555 1_555
C2F C1F 1_555 1_555
H2F C2F 1_555 1_555
N2F C3F 1_555 1_555
C3F C2F 1_555 1_555
H3F C3F 1_555 1_555
C4F N2F 1_555 1_555
H4F C4F 1_555 1_555
C5F C1F 1_555 1_555
H5F C5F 1_555 1_555
O2F Co1 1_555 1_555
Co1A O1A 1_555 1_555
Mo1D O13 1_555 1_555
Mo1E O13A 1_555 1_555
O1F Co1 1_555 1_555
Mo2D O5 1_555 1_555
Mo2E O5A 1_555 1_555
Mo3D O14 1_555 1_555
Mo3E O14A 1_555 1_555
O4D Mo4 1_555 1_555
O4E Mo4A 1_555 1_555
Mo4D O4 1_555 1_555
Mo4E O4A 1_555 1_555
O5D Mo2 1_555 1_555
O5E Mo2A 1_555 1_555
O13D Mo1 1_555 1_555
O13E Mo1A 1_555 1_555
O14D Mo3 1_555 1_555
O14E Mo3A 1_555 1_555
Mo2 O4 1_555 1_555
Mo4 O10 1_555 1_555
C4 C5 1_555 1_555
C7 C9 1_555 1_555
C7 C10 1_555 1_555
C8 C9 1_555 1_555
Mo2A O4A 1_555 1_555
Mo3A O5A 1_555 1_555
Mo4A O10A 1_555 1_555
C4F C5F 1_555 1_555
Mo1D O4D 1_555 1_555
Mo1E O4E 1_555 1_555
Mo2D O4D 1_555 1_555
Mo2D O5D 1_555 1_555
Mo2D O14D 1_555 1_555
Mo2E O4E 1_555 1_555
Mo2E O5E 1_555 1_555
Mo2E O14E 1_555 1_555
Mo3D O5D 1_555 1_555
Mo3E O5E 1_555 1_555
Mo4D O5D 1_555 1_555
Mo4D O13D 1_555 1_555
Mo4E O5E 1_555 1_555
Mo4E O13E 1_555 1_555

#END
