
#######################################################################
#
#                 Cambridge Crystallographic Data Centre
#                                CCDC 
#
#######################################################################
#
# If this CIF has been generated from an entry in the Cambridge 
# Structural Database, then it will include bibliographic, chemical, 
# crystal, experimental, refinement or atomic coordinate data resulting 
# from the CCDC's data processing and validation procedures.
#
#######################################################################

data_CUJYIQ
_symmetry_cell_setting           monoclinic
_symmetry_space_group_name_H-M   'P 21/c'
_symmetry_Int_Tables_number      14
_space_group_name_Hall           '-P 2ybc'
loop_
_symmetry_equiv_pos_site_id
_symmetry_equiv_pos_as_xyz
1 x,y,z
2 -x,1/2+y,1/2-z
3 -x,-y,-z
4 x,1/2-y,1/2+z
_cell_length_a                   9.9357(3)
_cell_length_b                   12.4348(5)
_cell_length_c                   21.6047(3)
_cell_angle_alpha                90
_cell_angle_beta                 95.067(4)
_cell_angle_gamma                90
_cell_volume                     2658.8
loop_
_atom_site_label
_atom_site_type_symbol
_atom_site_fract_x
_atom_site_fract_y
_atom_site_fract_z
La1 La 0.46777(3) 0.46595(2) 0.401637(12)
La2 La -0.09176(3) 0.44818(2) 0.405810(12)
O1 O 0.0605(3) 0.4668(3) 0.32027(16)
O2 O 0.2654(4) 0.5299(3) 0.34815(17)
O3 O 0.5565(4) 0.4610(3) 0.29888(16)
O4 O 0.7745(3) 0.5028(3) 0.30861(15)
O5 O 0.5362(3) 0.6585(3) 0.37493(15)
O6 O 0.7022(3) 0.5700(3) 0.42640(16)
O7 O 0.6876(3) 0.6504(3) 0.54723(15)
O8 O 0.9108(3) 0.6722(3) 0.55799(16)
O9 O 0.5872(3) 0.4120(3) 0.50911(14)
O10 O 0.6893(3) 0.3420(3) 0.43266(15)
O11 O 0.9024(3) 0.4232(3) 0.52382(15)
O12 O 1.0246(3) 0.3584(3) 0.60537(16)
C1 C 0.1563(5) 0.5289(4) 0.3139(2)
C2 C 0.1443(5) 0.6107(4) 0.2622(2)
C3 C 0.0291(5) 0.6155(4) 0.2212(2)
H1 H -0.0415 0.5671 0.2239
C4 C 0.0227(5) 0.6943(4) 0.1764(2)
H2 H -0.0547 0.6973 0.1489
C5 C 0.2289(5) 0.7586(4) 0.2087(3)
H3 H 0.2994 0.8064 0.2041
C6 C 0.2449(5) 0.6842(4) 0.2558(2)
H4 H 0.3229 0.6837 0.2830
C7 C 0.6562(5) 0.5149(4) 0.2854(2)
C8 C 0.6316(5) 0.6018(4) 0.2385(2)
C9 C 0.5290(5) 0.5985(4) 0.1916(2)
H5 H 0.4743 0.5379 0.1863
C10 C 0.5077(6) 0.6852(5) 0.1526(3)
H6 H 0.4381 0.6812 0.1210
C11 C 0.6813(6) 0.7757(5) 0.2016(3)
H7 H 0.7348 0.8371 0.2054
C12 C 0.7117(6) 0.6929(4) 0.2420(3)
H8 H 0.7855 0.6978 0.2716
C13 C 0.6465(5) 0.6575(4) 0.4081(2)
C14 C 0.7107(5) 0.7629(4) 0.4263(2)
C15 C 0.6956(5) 0.8483(4) 0.3846(3)
H9 H 0.6435 0.8396 0.3470
C16 C 0.7578(6) 0.9465(4) 0.3986(3)
H10 H 0.7510 1.0023 0.3699
C17 C 0.8295(6) 0.9602(4) 0.4556(3)
H11 H 0.8680 1.0267 0.4660
C18 C 0.8448(5) 0.8757(4) 0.4973(2)
H12 H 0.8968 0.8851 0.5348
C19 C 0.7835(5) 0.7773(4) 0.4839(2)
C20 C 0.7943(5) 0.6912(3) 0.5331(2)
C21 C 0.6643(4) 0.3428(4) 0.4891(2)
C22 C 0.7124(5) 0.2529(4) 0.5313(2)
C23 C 0.6270(5) 0.1657(4) 0.5363(2)
H13 H 0.5445 0.1632 0.5124
C24 C 0.6638(6) 0.0839(5) 0.5762(3)
H14 H 0.6053 0.0263 0.5799
C25 C 0.7856(6) 0.0855(5) 0.6108(3)
H15 H 0.8102 0.0287 0.6375
C26 C 0.8719(5) 0.1711(4) 0.6062(2)
H16 H 0.9541 0.1725 0.6304
C27 C 0.8374(5) 0.2550(4) 0.5660(2)
C28 C 0.9286(5) 0.3505(4) 0.5645(2)
N1 N 0.1191(4) 0.7665(3) 0.16935(19)
N2 N 0.5802(5) 0.7735(4) 0.1574(2)
La1B La 0.53223(3) 0.53405(2) 0.598363(12)
La1A La 0.53223(3) 0.96595(2) 0.098363(12)
La2_2 La 0.90824(3) 0.44818(2) 0.405810(12)
La2B La 1.09176(3) 0.55182(2) 0.594190(12)
La2A La 0.09176(3) 0.94818(2) 0.094190(12)
O4_2 O -0.2255(3) 0.5028(3) 0.30861(15)
O6_2 O -0.2978(3) 0.5700(3) 0.42640(16)
O7B O 0.3124(3) 0.3496(3) 0.45277(15)
O8B O 0.0892(3) 0.3278(3) 0.44201(16)
O9B O 0.4128(3) 0.5880(3) 0.49089(14)
O10_2 O -0.3107(3) 0.3420(3) 0.43266(15)
O11_2 O -0.0976(3) 0.4232(3) 0.52382(15)
O11B O 0.0976(3) 0.5768(3) 0.47618(15)
O12B O -0.0246(3) 0.6416(3) 0.39463(16)
N1A N -0.1191(4) 0.2665(3) 0.33065(19)
N2A N 0.4198(5) 0.2735(4) 0.3426(2)
loop_
_geom_bond_atom_site_label_1
_geom_bond_atom_site_label_2
_geom_bond_site_symmetry_1
_geom_bond_site_symmetry_2
La1 O2 1_555 1_555
La2 O1 1_555 1_555
O1 C1 1_555 1_555
O2 C1 1_555 1_555
O3 La1 1_555 1_555
O4 C7 1_555 1_555
O5 La1 1_555 1_555
O6 La1 1_555 1_555
O7 C20 1_555 1_555
O8 C20 1_555 1_555
O9 La1 1_555 1_555
O10 La1 1_555 1_555
O11 C28 1_555 1_555
O12 C28 1_555 1_555
C1 C2 1_555 1_555
C2 C3 1_555 1_555
C3 H1 1_555 1_555
C4 C3 1_555 1_555
H2 C4 1_555 1_555
C5 H3 1_555 1_555
C6 C2 1_555 1_555
H4 C6 1_555 1_555
C7 O3 1_555 1_555
C8 C7 1_555 1_555
C9 C8 1_555 1_555
H5 C9 1_555 1_555
C10 C9 1_555 1_555
H6 C10 1_555 1_555
C11 H7 1_555 1_555
C12 C8 1_555 1_555
H8 C12 1_555 1_555
C13 O5 1_555 1_555
C14 C13 1_555 1_555
C15 C14 1_555 1_555
H9 C15 1_555 1_555
C16 C15 1_555 1_555
H10 C16 1_555 1_555
C17 C16 1_555 1_555
H11 C17 1_555 1_555
C18 C17 1_555 1_555
H12 C18 1_555 1_555
C19 C14 1_555 1_555
C20 C19 1_555 1_555
C21 O9 1_555 1_555
C22 C21 1_555 1_555
C23 C22 1_555 1_555
H13 C23 1_555 1_555
C24 C23 1_555 1_555
H14 C24 1_555 1_555
C25 C24 1_555 1_555
H15 C25 1_555 1_555
C26 C25 1_555 1_555
H16 C26 1_555 1_555
C27 C22 1_555 1_555
C28 C27 1_555 1_555
N1 C4 1_555 1_555
N2 C10 1_555 1_555
La1B O7 1_555 1_555
La1A N2 1_555 1_555
La2_2 O4 1_555 1_555
La2B O8 1_555 1_555
La2A N1 1_555 1_555
O4_2 La2 1_555 1_555
O6_2 La2 1_555 1_555
O7B La1 1_555 1_555
O8B La2 1_555 1_555
O9B La1 1_555 1_555
O10_2 La2 1_555 1_555
O11_2 La2 1_555 1_555
O11B La2 1_555 1_555
O12B La2 1_555 1_555
N1A La2 1_555 1_555
N2A La1 1_555 1_555
O6 C13 1_555 1_555
O6 La2_2 1_555 1_555
O9 La1B 1_555 1_555
O10 C21 1_555 1_555
O10 La2_2 1_555 1_555
O11 La2_2 1_555 1_555
O11 La2B 1_555 1_555
O12 La2B 1_555 1_555
C5 C6 1_555 1_555
C5 N1 1_555 1_555
C11 C12 1_555 1_555
C11 N2 1_555 1_555
C18 C19 1_555 1_555
C26 C27 1_555 1_555
La1B O9B 1_555 1_555

#END
