
#######################################################################
#
#                 Cambridge Crystallographic Data Centre
#                                CCDC 
#
#######################################################################
#
# If this CIF has been generated from an entry in the Cambridge 
# Structural Database, then it will include bibliographic, chemical, 
# crystal, experimental, refinement or atomic coordinate data resulting 
# from the CCDC's data processing and validation procedures.
#
#######################################################################

data_CUJZEO
_symmetry_cell_setting           triclinic
_symmetry_space_group_name_H-M   'P -1'
_symmetry_Int_Tables_number      2
_space_group_name_Hall           '-P 1'
loop_
_symmetry_equiv_pos_site_id
_symmetry_equiv_pos_as_xyz
1 x,y,z
2 -x,-y,-z
_cell_length_a                   10.3127(4)
_cell_length_b                   12.5463(6)
_cell_length_c                   13.5690(6)
_cell_angle_alpha                87.438(4)
_cell_angle_beta                 70.217(4)
_cell_angle_gamma                89.233(3)
_cell_volume                     1650.37
loop_
_atom_site_label
_atom_site_type_symbol
_atom_site_fract_x
_atom_site_fract_y
_atom_site_fract_z
Cd1 Cd 1.31508(3) 0.27629(2) 0.22436(2)
Br1 Br 1.21379(4) 0.36100(3) 0.58869(3)
Br2 Br 1.08779(4) 0.26329(3) -0.09433(3)
Br3 Br 0.83022(4) 0.39945(3) -0.13933(3)
Br4 Br 1.34590(4) 0.47376(4) 0.75378(3)
O1 O 1.3083(3) 0.4438(2) 0.32028(19)
O2 O 1.5053(3) 0.3601(2) 0.0923(2)
O3 O 1.4369(3) 0.3034(2) 0.33418(19)
N1 N 0.9436(3) 0.2775(3) 0.5055(2)
O4 O 1.1974(3) 0.3234(2) 0.11701(19)
N2 N 0.5011(3) 0.0459(3) 0.8486(2)
C1 C 0.4127(4) -0.0933(4) 0.7608(3)
H1 H 0.4393 -0.0645 0.6901
H2 H 0.3203 -0.0714 0.7989
H3 H 0.4167 -0.1698 0.7604
C2 C 1.0365(4) 0.3997(3) -0.0405(3)
C3 C 1.2295(4) 0.3850(3) 0.0375(3)
C4 C 0.5084(4) -0.0535(3) 0.8123(3)
O5 O 1.3476(3) 0.4065(3) -0.0256(2)
C5 C 0.9283(4) 0.4558(3) -0.0577(3)
N3 N 1.1200(3) 0.2312(3) 0.3658(2)
C6 C 0.6077(4) 0.0547(3) 0.8898(3)
C7 C 1.1090(4) 0.4437(3) 0.0172(3)
C8 C 1.3778(4) 0.4427(3) 0.5387(3)
C9 C 0.9750(4) 0.1351(4) 0.6346(3)
H4 H 0.9021 0.1550 0.6930
C10 C 1.4323(4) 0.4893(3) 0.6073(3)
C11 C 0.6153(4) 0.2401(3) 0.6949(3)
H5 H 0.6466 0.2552 0.7495
C12 C 1.0038(4) 0.1893(3) 0.5384(3)
C13 C 1.1151(4) 0.1607(3) 0.4503(3)
C14 C 0.6749(4) -0.0422(3) 0.8757(3)
C15 C 0.8239(4) 0.3363(3) 0.5727(3)
H6 H 0.8177 0.4050 0.5388
H7 H 0.8369 0.3492 0.6387
C16 C 1.0167(4) 0.2996(3) 0.4026(3)
C17 C 1.4448(4) 0.4527(3) 0.4310(3)
C18 C 0.6906(4) 0.2753(3) 0.5940(3)
C19 C 0.7575(4) 0.1202(4) 0.9705(3)
H8 H 0.7873 0.1739 1.0028
C20 C 0.7872(4) -0.0614(4) 0.9088(3)
H9 H 0.8330 -0.1265 0.8997
C21 C 1.1985(4) 0.0755(3) 0.4563(3)
H10 H 1.2719 0.0558 0.3982
C22 C 1.3909(4) 0.3968(3) 0.3562(3)
C23 C 0.4933(4) 0.1825(3) 0.7166(3)
C24 C 0.6467(4) 0.1381(4) 0.9379(3)
H11 H 0.6000 0.2029 0.9474
C25 C 1.1690(4) 0.0202(4) 0.5524(3)
H12 H 1.2230 -0.0380 0.5586
C26 C 0.8267(4) 0.0215(4) 0.9559(3)
H13 H 0.9017 0.0119 0.9788
C27 C 0.4444(4) 0.1637(3) 0.6363(3)
H14 H 0.3621 0.1268 0.6501
C28 C 1.0593(4) 0.0505(4) 0.6399(3)
H15 H 1.0429 0.0126 0.7035
C29 C 0.6414(4) 0.2547(3) 0.5130(3)
H16 H 0.6909 0.2778 0.4447
C30 C 0.5185(4) 0.1999(4) 0.5345(3)
H17 H 0.4852 0.1872 0.4804
C31 C 0.9839(4) 0.3901(4) 0.3416(3)
H18 H 1.0134 0.4555 0.3615
H19 H 0.8862 0.3925 0.3555
H20 H 1.0306 0.3810 0.2682
C32 C 0.4221(4) 0.1362(3) 0.8262(3)
H21 H 0.4134 0.1907 0.8765
H22 H 0.3303 0.1125 0.8328
N4 N 0.6101(3) -0.1103(3) 0.8272(2)
Br1A Br 1.78621(4) 0.63900(3) 0.41131(3)
Br4A Br 1.65410(4) 0.52624(4) 0.24622(3)
O1A O 1.6917(3) 0.5562(2) 0.67972(19)
O3A O 1.5631(3) 0.6966(2) 0.66582(19)
C8A C 1.6222(4) 0.5573(3) 0.4613(3)
C10A C 1.5677(4) 0.5107(3) 0.3927(3)
C17A C 1.5552(4) 0.5473(3) 0.5690(3)
C22A C 1.6091(4) 0.6032(3) 0.6438(3)
Br2A Br 0.91221(4) 0.73671(3) 0.09433(3)
Br3A Br 1.16978(4) 0.60055(3) 0.13933(3)
O4A O 0.8026(3) 0.6766(2) -0.11701(19)
C2A C 0.9635(4) 0.6003(3) 0.0405(3)
C3A C 0.7705(4) 0.6150(3) -0.0375(3)
O5A O 0.6524(3) 0.5935(3) 0.0256(2)
C5A C 1.0717(4) 0.5442(3) 0.0577(3)
C7A C 0.8910(4) 0.5563(3) -0.0172(3)
Cd1A Cd 0.68492(3) -0.27629(2) 0.77564(2)
O2A O 0.4947(3) -0.3601(2) 0.9077(2)
N1A N 1.0564(3) -0.2775(3) 0.4945(2)
N2A N 1.4989(3) -0.0459(3) 0.1514(2)
C1A C 1.5873(4) 0.0933(4) 0.2392(3)
H1A H 1.5607 0.0645 0.3099
H2A H 1.6797 0.0714 0.2011
H3A H 1.5833 0.1698 0.2396
C4A C 1.4916(4) 0.0535(3) 0.1877(3)
N3A N 0.8800(3) -0.2312(3) 0.6342(2)
C6A C 1.3923(4) -0.0547(3) 0.1102(3)
C9A C 1.0250(4) -0.1351(4) 0.3654(3)
H4A H 1.0979 -0.1550 0.3070
C11A C 1.3847(4) -0.2401(3) 0.3051(3)
H5A H 1.3534 -0.2552 0.2505
C12A C 0.9962(4) -0.1893(3) 0.4616(3)
C13A C 0.8849(4) -0.1607(3) 0.5497(3)
C14A C 1.3251(4) 0.0422(3) 0.1243(3)
C15A C 1.1761(4) -0.3363(3) 0.4273(3)
H6A H 1.1823 -0.4050 0.4612
H7A H 1.1631 -0.3492 0.3613
C16A C 0.9833(4) -0.2996(3) 0.5974(3)
C18A C 1.3094(4) -0.2753(3) 0.4060(3)
C19A C 1.2425(4) -0.1202(4) 0.0295(3)
H8A H 1.2127 -0.1739 -0.0028
C20A C 1.2128(4) 0.0614(4) 0.0912(3)
H9A H 1.1670 0.1265 0.1003
C21A C 0.8015(4) -0.0755(3) 0.5437(3)
H10A H 0.7281 -0.0558 0.6018
C23A C 1.5067(4) -0.1825(3) 0.2834(3)
C24A C 1.3533(4) -0.1381(4) 0.0621(3)
H11A H 1.4000 -0.2029 0.0526
C25A C 0.8310(4) -0.0202(4) 0.4476(3)
H12A H 0.7770 0.0380 0.4414
C26A C 1.1733(4) -0.0215(4) 0.0441(3)
H13A H 1.0983 -0.0119 0.0212
C27A C 1.5556(4) -0.1637(3) 0.3637(3)
H14A H 1.6379 -0.1268 0.3499
C28A C 0.9407(4) -0.0505(4) 0.3601(3)
H15A H 0.9571 -0.0126 0.2965
C29A C 1.3586(4) -0.2547(3) 0.4870(3)
H16A H 1.3091 -0.2778 0.5553
C30A C 1.4815(4) -0.1999(4) 0.4655(3)
H17A H 1.5148 -0.1872 0.5196
C31A C 1.0161(4) -0.3901(4) 0.6584(3)
H18A H 0.9866 -0.4555 0.6385
H19A H 1.1138 -0.3925 0.6445
H20A H 0.9694 -0.3810 0.7318
C32A C 1.5779(4) -0.1362(3) 0.1738(3)
H21A H 1.5866 -0.1907 0.1235
H22A H 1.6697 -0.1125 0.1672
N4A N 1.3899(3) 0.1103(3) 0.1728(2)
Cd1A_2 Cd 0.68492(3) 0.72371(2) -0.22436(2)
Cd1A_3 Cd 1.68492(3) 0.72371(2) 0.77564(2)
O1A_2 O 0.6917(3) -0.4438(2) 0.67972(19)
O3A_2 O 0.5631(3) -0.3034(2) 0.66582(19)
O4A_2 O 0.8026(3) -0.3234(2) 0.88299(19)
loop_
_geom_bond_atom_site_label_1
_geom_bond_atom_site_label_2
_geom_bond_site_symmetry_1
_geom_bond_site_symmetry_2
Cd1 O1 1_555 1_555
Br1 C8 1_555 1_555
Br2 C2 1_555 1_555
Br3 C5 1_555 1_555
Br4 C10 1_555 1_555
O1 C22 1_555 1_555
O2 Cd1 1_555 1_555
O3 Cd1 1_555 1_555
N1 C12 1_555 1_555
O4 Cd1 1_555 1_555
N2 C4 1_555 1_555
C1 H1 1_555 1_555
H2 C1 1_555 1_555
H3 C1 1_555 1_555
C2 C5 1_555 1_555
C3 O4 1_555 1_555
C4 C1 1_555 1_555
O5 C3 1_555 1_555
C5 C7A 1_555 1_555
N3 Cd1 1_555 1_555
C6 N2 1_555 1_555
C7 C2 1_555 1_555
C8 C10 1_555 1_555
C9 H4 1_555 1_555
C10 C17A 1_555 1_555
C11 H5 1_555 1_555
C12 C9 1_555 1_555
C13 N3 1_555 1_555
C14 C6 1_555 1_555
C15 N1 1_555 1_555
H6 C15 1_555 1_555
H7 C15 1_555 1_555
C16 N1 1_555 1_555
C17 C8 1_555 1_555
C18 C11 1_555 1_555
C19 H8 1_555 1_555
C20 C14 1_555 1_555
H9 C20 1_555 1_555
C21 C13 1_555 1_555
H10 C21 1_555 1_555
C22 O3 1_555 1_555
C23 C11 1_555 1_555
C24 C6 1_555 1_555
H11 C24 1_555 1_555
C25 C21 1_555 1_555
H12 C25 1_555 1_555
C26 C19 1_555 1_555
H13 C26 1_555 1_555
C27 C23 1_555 1_555
H14 C27 1_555 1_555
C28 C9 1_555 1_555
H15 C28 1_555 1_555
C29 C18 1_555 1_555
H16 C29 1_555 1_555
C30 C27 1_555 1_555
H17 C30 1_555 1_555
C31 C16 1_555 1_555
H18 C31 1_555 1_555
H19 C31 1_555 1_555
H20 C31 1_555 1_555
C32 N2 1_555 1_555
H21 C32 1_555 1_555
H22 C32 1_555 1_555
N4 C4 1_555 1_555
Br1A C8A 1_555 1_555
Br4A C10A 1_555 1_555
O1A C22A 1_555 1_555
O3A C22A 1_555 1_555
C8A C10A 1_555 1_555
C10A C17 1_555 1_555
C17A C8A 1_555 1_555
C22A C17A 1_555 1_555
Br2A C2A 1_555 1_555
Br3A C5A 1_555 1_555
O4A C3A 1_555 1_555
C2A C5A 1_555 1_555
C3A O5A 1_555 1_555
C5A C7 1_555 1_555
C7A C2A 1_555 1_555
Cd1A N4 1_555 1_555
O2A Cd1A 1_555 1_555
N1A C12A 1_555 1_555
N2A C4A 1_555 1_555
C1A H1A 1_555 1_555
H2A C1A 1_555 1_555
H3A C1A 1_555 1_555
C4A C1A 1_555 1_555
N3A Cd1A 1_555 1_555
C6A N2A 1_555 1_555
C9A H4A 1_555 1_555
C11A H5A 1_555 1_555
C12A C9A 1_555 1_555
C13A N3A 1_555 1_555
C14A C6A 1_555 1_555
C15A N1A 1_555 1_555
H6A C15A 1_555 1_555
H7A C15A 1_555 1_555
C16A N1A 1_555 1_555
C18A C11A 1_555 1_555
C19A H8A 1_555 1_555
C20A C14A 1_555 1_555
H9A C20A 1_555 1_555
C21A C13A 1_555 1_555
H10A C21A 1_555 1_555
C23A C11A 1_555 1_555
C24A C6A 1_555 1_555
H11A C24A 1_555 1_555
C25A C21A 1_555 1_555
H12A C25A 1_555 1_555
C26A C19A 1_555 1_555
H13A C26A 1_555 1_555
C27A C23A 1_555 1_555
H14A C27A 1_555 1_555
C28A C9A 1_555 1_555
H15A C28A 1_555 1_555
C29A C18A 1_555 1_555
H16A C29A 1_555 1_555
C30A C27A 1_555 1_555
H17A C30A 1_555 1_555
C31A C16A 1_555 1_555
H18A C31A 1_555 1_555
H19A C31A 1_555 1_555
H20A C31A 1_555 1_555
C32A N2A 1_555 1_555
H21A C32A 1_555 1_555
H22A C32A 1_555 1_555
N4A Cd1 1_555 1_555
Cd1A_2 O4A 1_555 1_555
Cd1A_3 O1A 1_555 1_555
O1A_2 Cd1A 1_555 1_555
O3A_2 Cd1A 1_555 1_555
O4A_2 Cd1A 1_555 1_555
C3 C7 1_555 1_555
N3 C16 1_555 1_555
C12 C13 1_555 1_555
C14 N4 1_555 1_555
C15 C18 1_555 1_555
C17 C22 1_555 1_555
C19 C24 1_555 1_555
C20 C26 1_555 1_555
C23 C32 1_555 1_555
C25 C28 1_555 1_555
C29 C30 1_555 1_555
O3A Cd1A_3 1_555 1_555
C3A C7A 1_555 1_555
C4A N4A 1_555 1_555
N3A C16A 1_555 1_555
C12A C13A 1_555 1_555
C14A N4A 1_555 1_555
C15A C18A 1_555 1_555
C19A C24A 1_555 1_555
C20A C26A 1_555 1_555
C23A C32A 1_555 1_555
C25A C28A 1_555 1_555
C29A C30A 1_555 1_555

#END
