
#######################################################################
#
#                 Cambridge Crystallographic Data Centre
#                                CCDC 
#
#######################################################################
#
# If this CIF has been generated from an entry in the Cambridge 
# Structural Database, then it will include bibliographic, chemical, 
# crystal, experimental, refinement or atomic coordinate data resulting 
# from the CCDC's data processing and validation procedures.
#
#######################################################################

data_CUJZAJ
_symmetry_cell_setting           monoclinic
_symmetry_space_group_name_H-M   'P 21'
_symmetry_Int_Tables_number      4
_space_group_name_Hall           'P 2yb'
loop_
_symmetry_equiv_pos_site_id
_symmetry_equiv_pos_as_xyz
1 x,y,z
2 -x,1/2+y,-z
_cell_length_a                   3.6087(1)
_cell_length_b                   15.4328(5)
_cell_length_c                   12.7326(3)
_cell_angle_alpha                90
_cell_angle_beta                 97.566(2)
_cell_angle_gamma                90
_cell_volume                     702.935
loop_
_atom_site_label
_atom_site_type_symbol
_atom_site_fract_x
_atom_site_fract_y
_atom_site_fract_z
Ag1 Ag 0.42010(9) 0.37067(2) 0.49062(2)
Ag2 Ag 0.01504(12) 0.501571(17) 1.00046(3)
C1 C 0.2950(10) 0.4925(3) 0.6729(3)
H1 H 0.2594 0.5314 0.6146
C2 C 0.2157(11) 0.5209(3) 0.7694(3)
H2 H 0.1304 0.5785 0.7770
C3 C 0.3948(10) 0.3882(3) 0.8413(3)
H3 H 0.4349 0.3502 0.9003
C4 C 0.4818(9) 0.3594(3) 0.7417(3)
C5 C 0.6313(10) 0.4911(3) 0.3184(3)
H4 H 0.6321 0.5309 0.3753
C6 C 0.7421(10) 0.5198(3) 0.2250(3)
H5 H 0.8115 0.5786 0.2179
C7 C 0.6375(9) 0.3836(3) 0.1542(3)
H6 H 0.6355 0.3445 0.0965
C8 C 0.5167(10) 0.3538(3) 0.2498(3)
N1 N 0.4209(9) 0.4123(2) 0.6570(3)
N2 N 0.2587(8) 0.4669(2) 0.8544(2)
N3 N 0.6217(9) 0.2797(2) 0.7322(3)
H7 H 0.6744 0.2616 0.6704
H8 H 0.6607 0.2455 0.7879
N4 N -0.0182(10) 0.6935(3) 1.0047(3)
N5 N -0.0232(9) 0.1835(2) 0.4993(3)
N6 N 0.7521(9) 0.4637(2) 0.1430(3)
N7 N 0.3984(9) 0.2723(2) 0.2570(3)
H9 H 0.3227 0.2539 0.3160
H10 H 0.3962 0.2369 0.2027
N8 N 0.5220(9) 0.4091(2) 0.3325(3)
O1 O -0.1876(8) 0.6512(2) 0.9287(2)
O2 O 0.1627(8) 0.6533(2) 1.0806(2)
O3 O -0.0296(11) 0.7741(2) 1.0040(3)
O4 O -0.0391(8) 0.2616(2) 0.5307(3)
O5 O 0.1130(9) 0.1669(2) 0.4183(3)
O6 O -0.1440(12) 0.1262(2) 0.5528(4)
Ag1_2 Ag -0.57990(9) 0.37067(2) 0.49062(2)
Ag2_2 Ag 1.01504(12) 0.501571(17) 0.00046(3)
N6_2 N -0.2479(9) 0.4637(2) 1.1430(3)
O4_2 O 0.9609(8) 0.2616(2) 0.5307(3)
loop_
_geom_bond_atom_site_label_1
_geom_bond_atom_site_label_2
_geom_bond_site_symmetry_1
_geom_bond_site_symmetry_2
Ag1 N1 1_555 1_555
Ag2 N2 1_555 1_555
C1 H1 1_555 1_555
C2 C1 1_555 1_555
H2 C2 1_555 1_555
C3 H3 1_555 1_555
C4 C3 1_555 1_555
C5 H4 1_555 1_555
C6 C5 1_555 1_555
H5 C6 1_555 1_555
C7 H6 1_555 1_555
C8 C7 1_555 1_555
N1 C1 1_555 1_555
N2 C2 1_555 1_555
N3 C4 1_555 1_555
H7 N3 1_555 1_555
H8 N3 1_555 1_555
N4 O1 1_555 1_555
N5 O4 1_555 1_555
N6 C6 1_555 1_555
N7 C8 1_555 1_555
H9 N7 1_555 1_555
H10 N7 1_555 1_555
N8 Ag1 1_555 1_555
O1 Ag2 1_555 1_555
O2 Ag2 1_555 1_555
O3 N4 1_555 1_555
O4 Ag1 1_555 1_555
O5 N5 1_555 1_555
O6 N5 1_555 1_555
Ag1_2 O4 1_555 1_555
Ag2_2 N6 1_555 1_555
N6_2 Ag2 1_555 1_555
O4_2 Ag1 1_555 1_555
C3 N2 1_555 1_555
C4 N1 1_555 1_555
C5 N8 1_555 1_555
C7 N6 1_555 1_555
C8 N8 1_555 1_555
N4 O2 1_555 1_555

#END
