
#######################################################################
#
#                 Cambridge Crystallographic Data Centre
#                                CCDC 
#
#######################################################################
#
# If this CIF has been generated from an entry in the Cambridge 
# Structural Database, then it will include bibliographic, chemical, 
# crystal, experimental, refinement or atomic coordinate data resulting 
# from the CCDC's data processing and validation procedures.
#
#######################################################################

data_CUKBEQ
_symmetry_cell_setting           monoclinic
_symmetry_space_group_name_H-M   'C 2/c'
_symmetry_Int_Tables_number      15
_space_group_name_Hall           '-C 2yn'
loop_
_symmetry_equiv_pos_site_id
_symmetry_equiv_pos_as_xyz
1 x,y,z
2 -x,y,1/2-z
3 1/2+x,1/2+y,z
4 1/2-x,1/2+y,1/2-z
5 -x,-y,-z
6 x,-y,1/2+z
7 1/2-x,1/2-y,-z
8 1/2+x,1/2-y,1/2+z
_cell_length_a                   15.1836(17)
_cell_length_b                   11.3719(13)
_cell_length_c                   13.5342(16)
_cell_angle_alpha                90
_cell_angle_beta                 115.447(1)
_cell_angle_gamma                90
_cell_volume                     2110.18
loop_
_atom_site_label
_atom_site_type_symbol
_atom_site_fract_x
_atom_site_fract_y
_atom_site_fract_z
Pb1 Pb 1.0000 -0.185023(14) 0.2500
O1 O 0.85482(18) -0.4550(3) 0.3027(3)
O2 O 0.83990(19) -0.2626(3) 0.2601(3)
O3 O 0.03033(17) -0.4855(2) -0.1189(3)
H1 H -0.0235 -0.5169 -0.1437
O4 O 0.0826(2) -0.6696(2) -0.0702(3)
N1 N 0.55914(19) -0.5069(2) 0.1651(2)
N2 N 0.36879(19) -0.5556(3) 0.0862(2)
C1 C 0.6553(2) -0.4864(3) 0.2098(3)
H2 H 0.6972 -0.5493 0.2416
C2 C 0.6966(2) -0.3760(3) 0.2116(3)
C3 C 0.6322(3) -0.2826(3) 0.1641(3)
H3 H 0.6560 -0.2068 0.1663
C4 C 0.5322(3) -0.3040(3) 0.1134(4)
H4 H 0.4887 -0.2433 0.0792
C5 C 0.4984(2) -0.4175(3) 0.1147(3)
C6 C 0.3921(2) -0.4485(3) 0.0612(3)
C7 C 0.3212(2) -0.3738(3) -0.0118(3)
H5 H 0.3387 -0.3016 -0.0302
C8 C 0.2239(2) -0.4084(3) -0.0568(3)
H6 H 0.1755 -0.3587 -0.1042
C9 C 0.1999(2) -0.5179(3) -0.0302(3)
C10 C 0.2750(2) -0.5891(3) 0.0406(3)
H7 H 0.2595 -0.6634 0.0570
C11 C 0.8063(2) -0.3621(3) 0.2624(3)
C12 C 0.0974(2) -0.5649(3) -0.0754(3)
Pb1D Pb 0.0000 -0.814977(14) -0.2500
Pb1B Pb 0.5000 -0.685023(14) 0.2500
Pb1D_2 Pb 2.0000 -0.814977(14) 0.7500
Pb1B_2 Pb 1.5000 -0.685023(14) 0.2500
O1A O 1.14518(18) -0.4550(3) 0.1973(3)
O2A O 1.16010(19) -0.2626(3) 0.2399(3)
O3A O 1.96967(17) -0.4855(2) 0.6189(3)
H1A H 2.0235 -0.5169 0.6437
O4A O 1.9174(2) -0.6696(2) 0.5702(3)
O4D O 0.9174(2) -0.3304(2) 0.0702(3)
O4E O 1.0826(2) -0.3304(2) 0.4298(3)
N1A N 1.44086(19) -0.5069(2) 0.3349(2)
N1B N 1.05914(19) -0.0069(2) 0.1651(2)
N1C N 0.94086(19) -0.0069(2) 0.3349(2)
N2A N 1.63121(19) -0.5556(3) 0.4138(2)
N2B N 0.86879(19) -0.0556(3) 0.0862(2)
N2C N 1.13121(19) -0.0556(3) 0.4138(2)
C1A C 1.3447(2) -0.4864(3) 0.2902(3)
H2A H 1.3028 -0.5493 0.2584
C2A C 1.3034(2) -0.3760(3) 0.2884(3)
C3A C 1.3678(3) -0.2826(3) 0.3359(3)
H3A H 1.3440 -0.2068 0.3337
C4A C 1.4678(3) -0.3040(3) 0.3866(4)
H4A H 1.5113 -0.2433 0.4208
C5A C 1.5016(2) -0.4175(3) 0.3853(3)
C6A C 1.6079(2) -0.4485(3) 0.4388(3)
C7A C 1.6788(2) -0.3738(3) 0.5118(3)
H5A H 1.6613 -0.3016 0.5302
C8A C 1.7761(2) -0.4084(3) 0.5568(3)
H6A H 1.8245 -0.3587 0.6042
C9A C 1.8001(2) -0.5179(3) 0.5302(3)
C10A C 1.7250(2) -0.5891(3) 0.4594(3)
H7A H 1.7405 -0.6634 0.4430
C11A C 1.1937(2) -0.3621(3) 0.2376(3)
C12A C 1.9026(2) -0.5649(3) 0.5754(3)
loop_
_geom_bond_atom_site_label_1
_geom_bond_atom_site_label_2
_geom_bond_site_symmetry_1
_geom_bond_site_symmetry_2
Pb1 O2 1_555 1_555
O1 C11 1_555 1_555
O2 C11 1_555 1_555
O3 H1 1_555 1_555
O4 C12 1_555 1_555
N1 C1 1_555 1_555
N2 C6 1_555 1_555
C1 H2 1_555 1_555
C2 C1 1_555 1_555
C3 C2 1_555 1_555
H3 C3 1_555 1_555
C4 C3 1_555 1_555
H4 C4 1_555 1_555
C5 N1 1_555 1_555
C6 C5 1_555 1_555
C7 C6 1_555 1_555
H5 C7 1_555 1_555
C8 C7 1_555 1_555
H6 C8 1_555 1_555
C9 C8 1_555 1_555
C10 N2 1_555 1_555
H7 C10 1_555 1_555
C11 C2 1_555 1_555
C12 O3 1_555 1_555
Pb1D O4 1_555 1_555
Pb1B N1 1_555 1_555
Pb1D_2 O4A 1_555 1_555
Pb1B_2 N1A 1_555 1_555
O1A C11A 1_555 1_555
O2A Pb1 1_555 1_555
O3A H1A 1_555 1_555
O4A C12A 1_555 1_555
O4D Pb1 1_555 1_555
O4E Pb1 1_555 1_555
N1A C1A 1_555 1_555
N1B Pb1 1_555 1_555
N1C Pb1 1_555 1_555
N2A Pb1B_2 1_555 1_555
N2B Pb1 1_555 1_555
N2C Pb1 1_555 1_555
C1A H2A 1_555 1_555
C2A C1A 1_555 1_555
C3A C2A 1_555 1_555
H3A C3A 1_555 1_555
C4A C3A 1_555 1_555
H4A C4A 1_555 1_555
C5A N1A 1_555 1_555
C6A N2A 1_555 1_555
C7A C6A 1_555 1_555
H5A C7A 1_555 1_555
C8A C7A 1_555 1_555
H6A C8A 1_555 1_555
C9A C8A 1_555 1_555
C10A N2A 1_555 1_555
H7A C10A 1_555 1_555
C11A O2A 1_555 1_555
C12A O3A 1_555 1_555
N2 Pb1B 1_555 1_555
C4 C5 1_555 1_555
C9 C10 1_555 1_555
C9 C12 1_555 1_555
C2A C11A 1_555 1_555
C4A C5A 1_555 1_555
C5A C6A 1_555 1_555
C9A C10A 1_555 1_555
C9A C12A 1_555 1_555

#END
