
#######################################################################
#
#                 Cambridge Crystallographic Data Centre
#                                CCDC 
#
#######################################################################
#
# If this CIF has been generated from an entry in the Cambridge 
# Structural Database, then it will include bibliographic, chemical, 
# crystal, experimental, refinement or atomic coordinate data resulting 
# from the CCDC's data processing and validation procedures.
#
#######################################################################

data_CUKBIU
_symmetry_cell_setting           monoclinic
_symmetry_space_group_name_H-M   'P 21/n'
_symmetry_Int_Tables_number      14
_space_group_name_Hall           '-P 2yn'
loop_
_symmetry_equiv_pos_site_id
_symmetry_equiv_pos_as_xyz
1 x,y,z
2 1/2-x,1/2+y,1/2-z
3 -x,-y,-z
4 1/2+x,1/2-y,1/2+z
_cell_length_a                   11.692(2)
_cell_length_b                   10.298(2)
_cell_length_c                   22.190(4)
_cell_angle_alpha                90
_cell_angle_beta                 100.12(3)
_cell_angle_gamma                90
_cell_volume                     2630.2
loop_
_atom_site_label
_atom_site_type_symbol
_atom_site_fract_x
_atom_site_fract_y
_atom_site_fract_z
Mo1 Mo 0.63084(3) 0.27992(3) 0.420120(16)
Mo2 Mo 0.52428(3) -0.06547(3) 0.373499(16)
Mo3 Mo 0.40720(3) 0.12633(3) 0.466642(15)
Mo4 Mo 0.65136(3) 0.24770(3) 0.567356(16)
Na1 Na 0.5000 0.5000 0.5000
O1 O 0.7207(3) 0.2501(3) 0.36901(15)
O2 O 0.6434(3) 0.4445(3) 0.43660(14)
O3 O 0.4983(2) 0.2765(3) 0.48367(13)
O4 O 0.5355(2) 0.1113(3) 0.40607(13)
O5 O 0.7171(2) 0.2134(3) 0.49368(13)
O6 O 0.6501(3) -0.0832(3) 0.34484(17)
O7 O 0.4207(3) -0.0343(3) 0.31079(15)
O8 O 0.4267(2) -0.0579(3) 0.45141(13)
O9 O 0.5241(3) 0.2399(3) 0.61317(14)
O10 O 0.3464(2) 0.1110(3) 0.53271(14)
O11 O 0.2927(2) 0.1681(3) 0.41171(15)
O12 O 0.7677(3) 0.1969(3) 0.61970(15)
O13 O 0.6605(3) 0.4148(3) 0.56819(14)
N1 N 0.4871(3) 0.3491(3) 0.34745(16)
N2 N 0.3871(3) 0.4865(4) 0.28341(17)
C1 C 0.4179(3) 0.2797(4) 0.3016(2)
H1 H 0.4140 0.1897 0.2986
C2 C 0.3564(4) 0.3651(4) 0.2617(2)
H2 H 0.3038 0.3447 0.2264
C3 C 0.4650(4) 0.4737(4) 0.3348(2)
H3 H 0.4991 0.5426 0.3585
C4 C 0.3383(6) 0.6073(5) 0.2567(3)
H4 H 0.3820 0.6791 0.2765
H5 H 0.3416 0.6084 0.2138
H6 H 0.2588 0.6144 0.2621
Mo1B Mo 0.36916(3) -0.27992(3) 0.579880(16)
Mo2B Mo 0.47572(3) 0.06547(3) 0.626501(16)
Mo3B Mo 0.59280(3) -0.12633(3) 0.533358(15)
Mo4B Mo 0.34864(3) -0.24770(3) 0.432644(16)
Na1_2 Na 0.5000 -0.5000 0.5000
O1B O 0.2793(3) -0.2501(3) 0.63099(15)
O2B O 0.3566(3) -0.4445(3) 0.56340(14)
O2B_2 O 0.3566(3) 0.5555(3) 0.56340(14)
O3B O 0.5017(2) -0.2765(3) 0.51633(13)
O3B_2 O 0.5017(2) 0.7235(3) 0.51633(13)
O4B O 0.4645(2) -0.1113(3) 0.59393(13)
O5B O 0.2829(2) -0.2134(3) 0.50632(13)
O6B O 0.3499(3) 0.0832(3) 0.65516(17)
O7B O 0.5793(3) 0.0343(3) 0.68921(15)
O8B O 0.5733(2) 0.0579(3) 0.54859(13)
O9B O 0.4759(3) -0.2399(3) 0.38683(14)
O10B O 0.6536(2) -0.1110(3) 0.46729(14)
O11B O 0.7073(2) -0.1681(3) 0.58829(15)
O12B O 0.2323(3) -0.1969(3) 0.38030(15)
O13B O 0.3395(3) -0.4148(3) 0.43181(14)
O13B_2 O 0.3395(3) 0.5852(3) 0.43181(14)
N1B N 0.5129(3) -0.3491(3) 0.65255(16)
N2B N 0.6129(3) -0.4865(4) 0.71659(17)
C1B C 0.5821(3) -0.2797(4) 0.6984(2)
H1B H 0.5860 -0.1897 0.7014
C2B C 0.6436(4) -0.3651(4) 0.7383(2)
H2B H 0.6962 -0.3447 0.7736
C3B C 0.5350(4) -0.4737(4) 0.6652(2)
H3B H 0.5009 -0.5426 0.6415
C4B C 0.6617(6) -0.6073(5) 0.7433(3)
H4B H 0.6180 -0.6791 0.7235
H5B H 0.6584 -0.6084 0.7862
H6B H 0.7412 -0.6144 0.7379
N3 N 0.0886(3) 0.3841(4) 0.4053(2)
N4 N 0.0731(4) 0.3526(5) 0.4999(2)
H7 H 0.0899 0.3486 0.5392
C5 C 0.1431(4) 0.3914(5) 0.4637(2)
H8 H 0.2190 0.4198 0.4764
C6 C 0.1397(5) 0.4139(6) 0.3510(3)
H9 H 0.1813 0.3394 0.3403
H10 H 0.1923 0.4858 0.3598
H11 H 0.0791 0.4359 0.3175
C7 C -0.0208(4) 0.3403(6) 0.4051(3)
H12 H -0.0779 0.3269 0.3709
C8 C -0.0313(4) 0.3195(6) 0.4651(3)
H13 H -0.0966 0.2888 0.4792
N5 N 0.1214(4) 0.3454(5) 0.6223(2)
C9 C 0.0598(5) 0.3210(7) 0.6683(3)
H14 H -0.0195 0.3039 0.6621
C10 C 0.2273(10) 0.3675(14) 0.6494(6)
H15 H 0.2902 0.3797 0.6296
N6 N 0.2325(9) 0.3701(12) 0.7103(5)
C11 C 0.1280(12) 0.3249(16) 0.7229(7)
H16 H 0.1097 0.3025 0.7606
C12 C 0.3307(13) 0.4082(17) 0.7585(7)
H17 H 0.3775 0.3333 0.7715
H18 H 0.3013 0.4437 0.7928
H19 H 0.3771 0.4722 0.7426
C13? C 1.0905(18) 1.022(2) 0.5716(11)
H20? H 1.0483 1.0801 0.5935
H21? H 1.1641 1.0600 0.5682
H22? H 1.1031 0.9411 0.5933
N7? N 0.8762(13) 0.9657(19) 0.4385(12)
H23? H 0.8065 0.9526 0.4194
C14? C 1.0651(9) 0.9887(13) 0.4576(7)
H24? H 1.1425 0.9952 0.4531
C15? C 0.9741(14) 0.9677(14) 0.4136(8)
H25? H 0.9771 0.9562 0.3724
N8? N 1.0232(9) 0.9987(15) 0.5100(8)
C16? C 0.9084(12) 0.9879(13) 0.4981(10)
H26? H 0.8590 0.9946 0.5265
C17? C 0.2161(11) 0.4118(15) 0.6511(6)
C18? C 0.1195(11) 0.3727(14) 0.7223(6)
C19? C 0.3162(14) 0.4805(17) 0.7551(8)
H27? H 0.2721 0.4460 0.6306
H28? H 0.0945 0.3730 0.7598
H29? H 0.3889 0.4446 0.7488
H30? H 0.3047 0.4613 0.7959
H31? H 0.3170 0.5729 0.7495
H32? H -0.0106 0.2769 0.6639
N9? N 0.2211(9) 0.4233(11) 0.7108(5)
loop_
_geom_bond_atom_site_label_1
_geom_bond_atom_site_label_2
_geom_bond_site_symmetry_1
_geom_bond_site_symmetry_2
Mo1 O1 1_555 1_555
Mo2 O4 1_555 1_555
Mo3 O3 1_555 1_555
Mo4 O3 1_555 1_555
Na1 O2 1_555 1_555
O2 Mo1 1_555 1_555
O3 Mo1 1_555 1_555
O4 Mo1 1_555 1_555
O5 Mo1 1_555 1_555
O6 Mo2 1_555 1_555
O7 Mo2 1_555 1_555
O8 Mo2 1_555 1_555
O9 Mo4 1_555 1_555
O10 Mo3 1_555 1_555
O11 Mo3 1_555 1_555
O12 Mo4 1_555 1_555
O13 Mo4 1_555 1_555
N1 Mo1 1_555 1_555
N2 C2 1_555 1_555
C1 N1 1_555 1_555
H1 C1 1_555 1_555
C2 C1 1_555 1_555
H2 C2 1_555 1_555
C3 N1 1_555 1_555
H3 C3 1_555 1_555
C4 N2 1_555 1_555
H4 C4 1_555 1_555
H5 C4 1_555 1_555
H6 C4 1_555 1_555
N3 C5 1_555 1_555
N4 H7 1_555 1_555
C5 N4 1_555 1_555
H8 C5 1_555 1_555
C6 N3 1_555 1_555
H9 C6 1_555 1_555
H10 C6 1_555 1_555
H11 C6 1_555 1_555
C7 N3 1_555 1_555
H12 C7 1_555 1_555
C8 N4 1_555 1_555
H13 C8 1_555 1_555
N5 C9 1_555 1_555
C9 H14 1_555 1_555
C10 N5 1_555 1_555
H15 C10 1_555 1_555
N6 C10 1_555 1_555
C11 C9 1_555 1_555
H16 C11 1_555 1_555
C12 N6 1_555 1_555
H17 C12 1_555 1_555
H18 C12 1_555 1_555
H19 C12 1_555 1_555
Mo1B O1B 1_555 1_555
Mo2B O9 1_555 1_555
Mo3B O8 1_555 1_555
Mo4B O8 1_555 1_555
Na1_2 O2B 1_555 1_555
O2B Mo1B 1_555 1_555
O2B_2 Na1 1_555 1_555
O3B Mo1B 1_555 1_555
O3B_2 Na1 1_555 1_555
O4B Mo1B 1_555 1_555
O5B Mo1B 1_555 1_555
O6B Mo2B 1_555 1_555
O7B Mo2B 1_555 1_555
O8B Mo3 1_555 1_555
O9B Mo2 1_555 1_555
O10B Mo2 1_555 1_555
O11B Mo3B 1_555 1_555
O12B Mo4B 1_555 1_555
O13B Mo4B 1_555 1_555
O13B_2 Na1 1_555 1_555
N1B Mo1B 1_555 1_555
N2B C2B 1_555 1_555
C1B N1B 1_555 1_555
H1B C1B 1_555 1_555
C2B C1B 1_555 1_555
H2B C2B 1_555 1_555
C3B N1B 1_555 1_555
H3B C3B 1_555 1_555
C4B N2B 1_555 1_555
H4B C4B 1_555 1_555
H5B C4B 1_555 1_555
H6B C4B 1_555 1_555
Mo3 O4 1_555 1_555
Mo3 O8 1_555 1_555
Mo4 O5 1_555 1_555
Mo4 O8B 1_555 1_555
Na1 O3 1_555 1_555
Na1 O13 1_555 1_555
O10 Mo2B 1_555 1_555
N2 C3 1_555 1_555
C7 C8 1_555 1_555
N6 C11 1_555 1_555
Mo2B O4B 1_555 1_555
Mo2B O8B 1_555 1_555
Mo3B O3B 1_555 1_555
Mo3B O4B 1_555 1_555
Mo3B O8B 1_555 1_555
Mo3B O10B 1_555 1_555
Mo4B O3B 1_555 1_555
Mo4B O5B 1_555 1_555
Mo4B O9B 1_555 1_555
Na1_2 O3B 1_555 1_555
Na1_2 O13B 1_555 1_555
N2B C3B 1_555 1_555

#END
