
#######################################################################
#
#                 Cambridge Crystallographic Data Centre
#                                CCDC 
#
#######################################################################
#
# If this CIF has been generated from an entry in the Cambridge 
# Structural Database, then it will include bibliographic, chemical, 
# crystal, experimental, refinement or atomic coordinate data resulting 
# from the CCDC's data processing and validation procedures.
#
#######################################################################

data_CUKKOK
_symmetry_cell_setting           triclinic
_symmetry_space_group_name_H-M   'P -1'
_symmetry_Int_Tables_number      2
_space_group_name_Hall           '-P 1'
loop_
_symmetry_equiv_pos_site_id
_symmetry_equiv_pos_as_xyz
1 x,y,z
2 -x,-y,-z
_cell_length_a                   9.5934(8)
_cell_length_b                   13.0726(13)
_cell_length_c                   13.1691(14)
_cell_angle_alpha                92.7730(10)
_cell_angle_beta                 94.377(2)
_cell_angle_gamma                92.5270(10)
_cell_volume                     1642.91
loop_
_atom_site_label
_atom_site_type_symbol
_atom_site_fract_x
_atom_site_fract_y
_atom_site_fract_z
Ho1 Ho 0.74910(3) 0.49485(2) 0.48696(2)
O1 O 0.6330(4) 0.5890(3) 0.3659(3)
O2 O 0.4176(4) 0.5548(3) 0.4076(3)
O3 O 0.9335(4) 0.6047(3) 0.4613(3)
O4 O 1.1555(4) 0.6548(3) 0.4528(3)
O5 O 0.1145(5) 0.6800(4) 0.1049(3)
O6 O 0.2783(5) 0.7924(4) 0.0077(3)
O7 O 0.6811(5) 0.9377(3) 0.4052(4)
O8 O 0.8578(5) 1.0602(4) 0.3323(4)
O9 O 0.6881(4) 0.6480(3) 0.5850(3)
O10 O 0.8518(4) 0.5574(3) 0.6571(3)
O11 O 0.6357(5) 0.9464(4) 0.8424(3)
O12 O 0.8018(6) 0.9143(4) 0.9986(4)
O13 O 0.5977(4) 0.3679(3) 0.3895(3)
H1 H 0.6273 0.3103 0.4043
H2 H 0.5108 0.3672 0.3958
O14 O 0.8603(4) 0.4250(3) 0.3445(3)
H3 H 0.8295 0.4136 0.2831
H4 H 0.9484 0.4297 0.3467
C1 C 0.5014(6) 0.5952(4) 0.3513(4)
C2 C 0.4455(6) 0.6514(4) 0.2620(4)
C3 C 0.3043(6) 0.6406(5) 0.2287(4)
H5 H 0.2443 0.6007 0.2645
C4 C 0.2522(6) 0.6874(5) 0.1448(5)
C5 C 0.3406(7) 0.7507(5) 0.0925(4)
C6 C 0.4808(7) 0.7634(5) 0.1251(5)
H6 H 0.5399 0.8056 0.0908
C7 C 0.5335(7) 0.7128(5) 0.2094(4)
H7 H 0.6283 0.7203 0.2306
C8 C 0.0231(8) 0.6104(7) 0.1486(7)
H8 H 0.0611 0.5437 0.1474
H9 H -0.0664 0.6070 0.1104
H10 H 0.0123 0.6331 0.2179
C9 C 0.3588(9) 0.8669(6) -0.0415(5)
H11 H 0.3850 0.9243 0.0054
H12 H 0.3041 0.8898 -0.0994
H13 H 0.4416 0.8369 -0.0637
C10 C 0.7752(6) 0.6329(5) 0.6606(4)
C11 C 0.7836(6) 0.7053(5) 0.7515(4)
C12 C 0.7010(6) 0.7907(5) 0.7527(4)
H14 H 0.6388 0.8007 0.6968
C13 C 0.7099(7) 0.8596(5) 0.8344(5)
C14 C 0.8016(7) 0.8430(5) 0.9209(5)
C15 C 0.8839(7) 0.7595(5) 0.9194(5)
H15 H 0.9454 0.7487 0.9755
C16 C 0.8760(7) 0.6912(5) 0.8348(4)
H16 H 0.9332 0.6356 0.8342
C17 C 0.5484(9) 0.9701(7) 0.7552(6)
H17 H 0.6045 0.9799 0.6989
H18 H 0.5013 1.0318 0.7700
H19 H 0.4804 0.9147 0.7381
C18 C 0.8954(10) 0.9013(7) 1.0876(6)
H20 H 0.8722 0.8371 1.1162
H21 H 0.8861 0.9563 1.1372
H22 H 0.9900 0.9017 1.0686
C19 C 1.0262(6) 0.6711(5) 0.4433(4)
C20 C 0.9844(6) 0.7734(4) 0.4107(4)
C21 C 0.8488(6) 0.8037(5) 0.4219(5)
H23 H 0.7839 0.7586 0.4472
C22 C 0.8106(7) 0.8988(5) 0.3961(5)
C23 C 0.9083(7) 0.9675(5) 0.3577(5)
C24 C 1.0413(7) 0.9371(5) 0.3444(5)
H24 H 1.1057 0.9812 0.3173
C25 C 1.0790(7) 0.8405(5) 0.3714(5)
H25 H 1.1695 0.8205 0.3631
C26 C 0.5812(7) 0.8771(5) 0.4522(5)
H26 H 0.5551 0.8165 0.4097
H27 H 0.4999 0.9157 0.4614
H28 H 0.6208 0.8579 0.5173
C27 C 0.9563(9) 1.1387(5) 0.3076(6)
H29 H 1.0269 1.1508 0.3630
H30 H 0.9088 1.2007 0.2961
H31 H 0.9992 1.1174 0.2470
Ho1A Ho 0.25090(3) 0.50515(2) 0.51304(2)
Ho1A_2 Ho 1.25090(3) 0.50515(2) 0.51304(2)
O2A O 0.5824(4) 0.4452(3) 0.5924(3)
O4A O 0.8445(4) 0.3452(3) 0.5472(3)
O15 O 0.7759(7) 0.3919(6) 0.1421(5)
H32 H 0.7671 0.3403 0.1037
C28 C 0.6724(10) 0.4613(8) 0.1125(8)
H33 H 0.6814 0.4786 0.0424
H34 H 0.6860 0.5240 0.1553
C29 C 0.5295(10) 0.4145(8) 0.1223(7)
H35 H 0.5100 0.3595 0.0715
H36 H 0.4614 0.4655 0.1128
H37 H 0.5252 0.3883 0.1889
O16 O 0.6723(6) 0.1798(4) 0.4371(5)
H38 H 0.7263 0.1429 0.4049
H39 H 0.7266 0.1972 0.4898
loop_
_geom_bond_atom_site_label_1
_geom_bond_atom_site_label_2
_geom_bond_site_symmetry_1
_geom_bond_site_symmetry_2
Ho1 O1 1_555 1_555
O1 C1 1_555 1_555
O2 C1 1_555 1_555
O3 Ho1 1_555 1_555
O4 C19 1_555 1_555
O5 C4 1_555 1_555
O6 C5 1_555 1_555
O7 C22 1_555 1_555
O8 C23 1_555 1_555
O9 Ho1 1_555 1_555
O10 Ho1 1_555 1_555
O11 C13 1_555 1_555
O12 C14 1_555 1_555
O13 Ho1 1_555 1_555
H1 O13 1_555 1_555
H2 O13 1_555 1_555
O14 Ho1 1_555 1_555
H3 O14 1_555 1_555
H4 O14 1_555 1_555
C1 C2 1_555 1_555
C2 C3 1_555 1_555
C3 H5 1_555 1_555
C4 C3 1_555 1_555
C5 C4 1_555 1_555
C6 C5 1_555 1_555
H6 C6 1_555 1_555
C7 C2 1_555 1_555
H7 C7 1_555 1_555
C8 O5 1_555 1_555
H8 C8 1_555 1_555
H9 C8 1_555 1_555
H10 C8 1_555 1_555
C9 O6 1_555 1_555
H11 C9 1_555 1_555
H12 C9 1_555 1_555
H13 C9 1_555 1_555
C10 O9 1_555 1_555
C11 C10 1_555 1_555
C12 C11 1_555 1_555
H14 C12 1_555 1_555
C13 C12 1_555 1_555
C14 C13 1_555 1_555
C15 C14 1_555 1_555
H15 C15 1_555 1_555
C16 C11 1_555 1_555
H16 C16 1_555 1_555
C17 O11 1_555 1_555
H17 C17 1_555 1_555
H18 C17 1_555 1_555
H19 C17 1_555 1_555
C18 O12 1_555 1_555
H20 C18 1_555 1_555
H21 C18 1_555 1_555
H22 C18 1_555 1_555
C19 O3 1_555 1_555
C20 C19 1_555 1_555
C21 C20 1_555 1_555
H23 C21 1_555 1_555
C22 C21 1_555 1_555
C23 C22 1_555 1_555
C24 C23 1_555 1_555
H24 C24 1_555 1_555
C25 C20 1_555 1_555
H25 C25 1_555 1_555
C26 O7 1_555 1_555
H26 C26 1_555 1_555
H27 C26 1_555 1_555
H28 C26 1_555 1_555
C27 O8 1_555 1_555
H29 C27 1_555 1_555
H30 C27 1_555 1_555
H31 C27 1_555 1_555
O15 H32 1_555 1_555
C28 O15 1_555 1_555
H33 C28 1_555 1_555
H34 C28 1_555 1_555
C29 C28 1_555 1_555
H35 C29 1_555 1_555
H36 C29 1_555 1_555
H37 C29 1_555 1_555
O16 H38 1_555 1_555
H39 O16 1_555 1_555
Ho1A O2 1_555 1_555
Ho1A_2 O4 1_555 1_555
O2A Ho1 1_555 1_555
O4A Ho1 1_555 1_555
O10 C10 1_555 1_555
C6 C7 1_555 1_555
C15 C16 1_555 1_555
C24 C25 1_555 1_555

#END
