
#######################################################################
#
#                 Cambridge Crystallographic Data Centre
#                                CCDC 
#
#######################################################################
#
# If this CIF has been generated from an entry in the Cambridge 
# Structural Database, then it will include bibliographic, chemical, 
# crystal, experimental, refinement or atomic coordinate data resulting 
# from the CCDC's data processing and validation procedures.
#
#######################################################################

data_CUKKIE
_symmetry_cell_setting           triclinic
_symmetry_space_group_name_H-M   'P -1'
_symmetry_Int_Tables_number      2
_space_group_name_Hall           '-P 1'
loop_
_symmetry_equiv_pos_site_id
_symmetry_equiv_pos_as_xyz
1 x,y,z
2 -x,-y,-z
_cell_length_a                   9.6208(7)
_cell_length_b                   13.1058(11)
_cell_length_c                   13.2014(12)
_cell_angle_alpha                92.7590(10)
_cell_angle_beta                 94.301(2)
_cell_angle_gamma                92.3610(10)
_cell_volume                     1656.25
loop_
_atom_site_label
_atom_site_type_symbol
_atom_site_fract_x
_atom_site_fract_y
_atom_site_fract_z
Dy1 Dy 0.74945(3) 0.49475(2) 0.486872(19)
O1 O 0.6334(4) 0.5897(3) 0.3645(3)
O2 O 0.4190(4) 0.5553(3) 0.4072(3)
O3 O 0.9343(4) 0.6061(3) 0.4621(3)
O4 O 1.1564(4) 0.6559(3) 0.4529(3)
O5 O 0.1157(4) 0.6795(4) 0.1048(3)
O6 O 0.2779(5) 0.7919(3) 0.0073(3)
O7 O 0.6807(5) 0.9383(3) 0.4034(4)
O8 O 0.8562(5) 1.0617(3) 0.3326(4)
O9 O 0.6877(4) 0.6486(3) 0.5857(3)
O10 O 0.8525(4) 0.5572(3) 0.6579(3)
O11 O 0.6370(5) 0.9470(3) 0.8422(3)
O12 O 0.8022(5) 0.9143(4) 0.9993(3)
O13 O 0.5980(4) 0.3672(3) 0.3881(3)
H1 H 0.6276 0.3095 0.4029
H2 H 0.5111 0.3665 0.3944
O14 O 0.8621(4) 0.4245(3) 0.3434(3)
H3 H 0.8313 0.4130 0.2820
H4 H 0.9503 0.4292 0.3455
C1 C 0.5023(6) 0.5960(4) 0.3506(4)
C2 C 0.4468(5) 0.6519(4) 0.2604(4)
C3 C 0.3049(6) 0.6403(4) 0.2291(4)
H5 H 0.2457 0.6005 0.2654
C4 C 0.2525(6) 0.6882(5) 0.1439(4)
C5 C 0.3399(7) 0.7510(4) 0.0911(4)
C6 C 0.4806(6) 0.7621(4) 0.1240(4)
H6 H 0.5399 0.8031 0.0891
C7 C 0.5340(6) 0.7128(4) 0.2083(4)
H7 H 0.6284 0.7208 0.2296
C8 C 0.0237(7) 0.6109(6) 0.1499(6)
H8 H 0.0627 0.5447 0.1516
H9 H -0.0647 0.6058 0.1107
H10 H 0.0108 0.6358 0.2180
C9 C 0.3584(8) 0.8655(6) -0.0428(5)
H11 H 0.3920 0.9200 0.0052
H12 H 0.3012 0.8927 -0.0969
H13 H 0.4362 0.8333 -0.0703
C10 C 0.7739(5) 0.6333(4) 0.6608(4)
C11 C 0.7837(6) 0.7051(4) 0.7522(4)
C12 C 0.7018(6) 0.7909(4) 0.7526(4)
H14 H 0.6415 0.8019 0.6962
C13 C 0.7094(6) 0.8594(4) 0.8358(4)
C14 C 0.8029(7) 0.8429(5) 0.9208(4)
C15 C 0.8864(7) 0.7592(5) 0.9202(4)
H15 H 0.9486 0.7486 0.9758
C16 C 0.8759(6) 0.6908(4) 0.8350(4)
H16 H 0.9320 0.6346 0.8342
C17 C 0.5502(8) 0.9710(6) 0.7558(5)
H17 H 0.6065 0.9830 0.7001
H18 H 0.5009 1.0312 0.7714
H19 H 0.4844 0.9149 0.7372
C18 C 0.8955(10) 0.9011(6) 1.0878(6)
H20 H 0.8744 0.8362 1.1151
H21 H 0.8842 0.9548 1.1381
H22 H 0.9900 0.9035 1.0690
C19 C 1.0263(6) 0.6722(4) 0.4437(4)
C20 C 0.9842(6) 0.7751(4) 0.4105(4)
C21 C 0.8473(6) 0.8034(4) 0.4220(4)
H23 H 0.7830 0.7581 0.4470
C22 C 0.8091(7) 0.8996(4) 0.3958(4)
C23 C 0.9079(7) 0.9685(4) 0.3570(5)
C24 C 1.0403(7) 0.9386(5) 0.3447(5)
H24 H 1.1046 0.9826 0.3179
C25 C 1.0781(7) 0.8427(5) 0.3721(5)
H25 H 1.1687 0.8232 0.3645
C26 C 0.5837(7) 0.8769(5) 0.4514(5)
H26 H 0.5566 0.8170 0.4085
H27 H 0.5029 0.9151 0.4630
H28 H 0.6257 0.8568 0.5152
C27 C 0.9546(8) 1.1393(5) 0.3079(6)
H29 H 1.0257 1.1505 0.3628
H30 H 0.9077 1.2016 0.2972
H31 H 0.9965 1.1181 0.2470
Dy1A Dy 0.25055(3) 0.50525(2) 0.513128(19)
Dy1A_2 Dy 1.25055(3) 0.50525(2) 0.513128(19)
O2A O 0.5810(4) 0.4447(3) 0.5928(3)
O4A O 0.8436(4) 0.3441(3) 0.5471(3)
O15 O 0.7773(6) 0.3915(5) 0.1405(4)
H32 H 0.7685 0.3400 0.1023
C28 C 0.6725(9) 0.4597(7) 0.1125(7)
H33 H 0.6819 0.4779 0.0429
H34 H 0.6865 0.5218 0.1558
C29 C 0.5304(9) 0.4166(7) 0.1208(6)
H35 H 0.5140 0.3571 0.0755
H36 H 0.4640 0.4666 0.1030
H37 H 0.5206 0.3979 0.1894
O16 O 0.6716(6) 0.1788(4) 0.4381(5)
H38 H 0.7256 0.1419 0.4059
H39 H 0.727(9) 0.197(7) 0.490(7)
loop_
_geom_bond_atom_site_label_1
_geom_bond_atom_site_label_2
_geom_bond_site_symmetry_1
_geom_bond_site_symmetry_2
Dy1 O1 1_555 1_555
O1 C1 1_555 1_555
O2 C1 1_555 1_555
O3 Dy1 1_555 1_555
O4 C19 1_555 1_555
O5 C4 1_555 1_555
O6 C5 1_555 1_555
O7 C22 1_555 1_555
O8 C23 1_555 1_555
O9 Dy1 1_555 1_555
O10 Dy1 1_555 1_555
O11 C13 1_555 1_555
O12 C14 1_555 1_555
O13 Dy1 1_555 1_555
H1 O13 1_555 1_555
H2 O13 1_555 1_555
O14 Dy1 1_555 1_555
H3 O14 1_555 1_555
H4 O14 1_555 1_555
C1 C2 1_555 1_555
C2 C3 1_555 1_555
C3 H5 1_555 1_555
C4 C3 1_555 1_555
C5 C4 1_555 1_555
C6 C5 1_555 1_555
H6 C6 1_555 1_555
C7 C2 1_555 1_555
H7 C7 1_555 1_555
C8 O5 1_555 1_555
H8 C8 1_555 1_555
H9 C8 1_555 1_555
H10 C8 1_555 1_555
C9 O6 1_555 1_555
H11 C9 1_555 1_555
H12 C9 1_555 1_555
H13 C9 1_555 1_555
C10 O9 1_555 1_555
C11 C10 1_555 1_555
C12 C11 1_555 1_555
H14 C12 1_555 1_555
C13 C12 1_555 1_555
C14 C13 1_555 1_555
C15 C14 1_555 1_555
H15 C15 1_555 1_555
C16 C11 1_555 1_555
H16 C16 1_555 1_555
C17 O11 1_555 1_555
H17 C17 1_555 1_555
H18 C17 1_555 1_555
H19 C17 1_555 1_555
C18 O12 1_555 1_555
H20 C18 1_555 1_555
H21 C18 1_555 1_555
H22 C18 1_555 1_555
C19 O3 1_555 1_555
C20 C19 1_555 1_555
C21 C20 1_555 1_555
H23 C21 1_555 1_555
C22 C21 1_555 1_555
C23 C22 1_555 1_555
C24 C23 1_555 1_555
H24 C24 1_555 1_555
C25 C20 1_555 1_555
H25 C25 1_555 1_555
C26 O7 1_555 1_555
H26 C26 1_555 1_555
H27 C26 1_555 1_555
H28 C26 1_555 1_555
C27 O8 1_555 1_555
H29 C27 1_555 1_555
H30 C27 1_555 1_555
H31 C27 1_555 1_555
O15 H32 1_555 1_555
C28 O15 1_555 1_555
H33 C28 1_555 1_555
H34 C28 1_555 1_555
C29 C28 1_555 1_555
H35 C29 1_555 1_555
H36 C29 1_555 1_555
H37 C29 1_555 1_555
O16 H38 1_555 1_555
H39 O16 1_555 1_555
Dy1A O2 1_555 1_555
Dy1A_2 O4 1_555 1_555
O2A Dy1 1_555 1_555
O4A Dy1 1_555 1_555
O10 C10 1_555 1_555
C6 C7 1_555 1_555
C15 C16 1_555 1_555
C24 C25 1_555 1_555

#END
