
#######################################################################
#
#                 Cambridge Crystallographic Data Centre
#                                CCDC 
#
#######################################################################
#
# If this CIF has been generated from an entry in the Cambridge 
# Structural Database, then it will include bibliographic, chemical, 
# crystal, experimental, refinement or atomic coordinate data resulting 
# from the CCDC's data processing and validation procedures.
#
#######################################################################

data_CUKNIG
_symmetry_cell_setting           monoclinic
_symmetry_space_group_name_H-M   'C 2/c'
_symmetry_Int_Tables_number      15
_space_group_name_Hall           '-C 2yn'
loop_
_symmetry_equiv_pos_site_id
_symmetry_equiv_pos_as_xyz
1 x,y,z
2 1/2+x,1/2+y,z
3 -x,y,1/2-z
4 1/2-x,1/2+y,1/2-z
5 -x,-y,-z
6 1/2-x,1/2-y,-z
7 x,-y,1/2+z
8 1/2+x,1/2-y,1/2+z
_cell_length_a                   19.4247(13)
_cell_length_b                   11.8336(8)
_cell_length_c                   25.3187(18)
_cell_angle_alpha                90
_cell_angle_beta                 104.369(2)
_cell_angle_gamma                90
_cell_volume                     5637.8
loop_
_atom_site_label
_atom_site_type_symbol
_atom_site_fract_x
_atom_site_fract_y
_atom_site_fract_z
U1 U 0.5000 0.77012(2) 0.7500
Si1 Si 0.60132(9) 0.71968(15) 0.65661(8)
Si2 Si 0.63028(7) 0.56625(14) 0.75344(7)
Si3 Si 0.57770(8) 1.03429(15) 0.77784(9)
Na1 Na 0.7500 0.7500 1.0000
N1 N 0.5742(3) 0.7680(4) 0.8381(2)
N2 N 0.5836(2) 0.6786(4) 0.71718(18)
N3 N 0.6233(3) 0.7752(5) 0.8760(2)
C1 C 0.5830(3) 0.5005(6) 0.8014(3)
H1 H 0.5605 0.5585 0.8178
H2 H 0.6164 0.4603 0.8293
H3 H 0.5476 0.4490 0.7818
N4 N 0.5000 0.9621(5) 0.7500
C2 C 0.6992(4) 0.7182(6) 0.6588(4)
H4 H 0.7244 0.7646 0.6883
H5 H 0.7061 0.7470 0.6250
H6 H 0.7167 0.6421 0.6640
C3 C 0.6580(3) 0.9445(6) 0.7803(3)
H7 H 0.6850 0.9370 0.8174
H8 H 0.6868 0.9794 0.7591
H9 H 0.6432 0.8711 0.7656
C4 C 0.5726(4) 0.8692(6) 0.6376(3)
H10 H 0.5270 0.8824 0.6447
H11 H 0.5695 0.8809 0.5995
H12 H 0.6068 0.9206 0.6588
C5 C 0.6434(3) 0.4492(6) 0.7074(3)
H13 H 0.5983 0.4162 0.6902
H14 H 0.6738 0.3926 0.7284
H15 H 0.6650 0.4787 0.6801
C6 C 0.7191(3) 0.6130(6) 0.7955(3)
H16 H 0.7446 0.6506 0.7725
H17 H 0.7457 0.5483 0.8121
H18 H 0.7127 0.6640 0.8233
O1 O 0.8464(4) 0.6996(9) 0.9609(3)
C7 C 0.5529(4) 0.6278(7) 0.5986(3)
H19 H 0.5700 0.5516 0.6046
H20 H 0.5612 0.6555 0.5650
H21 H 0.5029 0.6295 0.5965
N5 N 0.6722(4) 0.7868(8) 0.9116(3)
C8 C 0.5902(3) 1.1607(6) 0.7364(4)
H22 H 0.5888 1.1374 0.6998
H23 H 0.6353 1.1951 0.7524
H24 H 0.5529 1.2143 0.7357
C9 C 0.5834(4) 1.0835(7) 0.8484(3)
H25 H 0.5508 1.1449 0.8475
H26 H 0.6309 1.1087 0.8647
H27 H 0.5715 1.0225 0.8695
C10 C 0.8616(7) 0.7519(10) 0.9157(5)
H28 H 0.8398 0.8262 0.9098
H29 H 0.8444 0.7068 0.8831
C11 C 0.9415(7) 0.7611(11) 0.9295(6)
H30 H 0.9590 0.7597 0.8968
H31 H 0.9574 0.8302 0.9494
C12 C 0.9650(7) 0.6639(13) 0.9627(6)
H32 H 1.0066 0.6819 0.9916
H33 H 0.9770 0.6030 0.9409
C13 C 0.9067(6) 0.6313(13) 0.9851(6)
H34 H 0.8955 0.5521 0.9776
H35 H 0.9195 0.6420 1.0243
O2 O 0.7163(7) 0.5612(10) 0.9973(4)
C14 C 0.7371(9) 0.4635(13) 1.0274(7)
H36 H 0.7437 0.4750 1.0663
H37 H 0.7792 0.4292 1.0202
C15 C 0.6794(13) 0.3874(14) 0.9463(6)
H38 H 0.6380 0.3590 0.9199
H39 H 0.7220 0.3466 0.9443
C16 C 0.6870(14) 0.5124(15) 0.9465(6)
H40 H 0.7164 0.5325 0.9220
H41 H 0.6404 0.5453 0.9318
C17 C 0.6697(10) 0.3992(17) 1.0018(7)
H42 H 0.6681 0.3264 1.0191
H43 H 0.6274 0.4423 1.0024
Si1B Si 0.39868(9) 0.71968(15) 0.84339(8)
Si2B Si 0.36972(7) 0.56625(14) 0.74656(7)
Si3B Si 0.42230(8) 1.03429(15) 0.72216(9)
Na1B Na 0.2500 0.7500 0.5000
N1B N 0.4258(3) 0.7680(4) 0.6619(2)
N2B N 0.4164(2) 0.6786(4) 0.78282(18)
N3B N 0.3767(3) 0.7752(5) 0.6240(2)
C1B C 0.4170(3) 0.5005(6) 0.6986(3)
H1B H 0.4395 0.5585 0.6822
H2B H 0.3836 0.4603 0.6707
H3B H 0.4524 0.4490 0.7182
C2B C 0.3008(4) 0.7182(6) 0.8412(4)
H4B H 0.2756 0.7646 0.8117
H5B H 0.2939 0.7470 0.8750
H6B H 0.2833 0.6421 0.8360
C3B C 0.3420(3) 0.9445(6) 0.7197(3)
H7B H 0.3150 0.9370 0.6826
H8B H 0.3132 0.9794 0.7409
H9B H 0.3568 0.8711 0.7344
C4B C 0.4274(4) 0.8692(6) 0.8624(3)
H10B H 0.4730 0.8824 0.8553
H11B H 0.4305 0.8809 0.9005
H12B H 0.3932 0.9206 0.8412
C5B C 0.3566(3) 0.4492(6) 0.7926(3)
H13B H 0.4017 0.4162 0.8098
H14B H 0.3262 0.3926 0.7716
H15B H 0.3350 0.4787 0.8199
C6B C 0.2809(3) 0.6130(6) 0.7045(3)
H16B H 0.2554 0.6506 0.7275
H17B H 0.2543 0.5483 0.6879
H18B H 0.2873 0.6640 0.6767
O1E O 0.6536(4) 0.8004(9) 1.0391(3)
C7B C 0.4471(4) 0.6278(7) 0.9014(3)
H19B H 0.4300 0.5516 0.8954
H20B H 0.4388 0.6555 0.9350
H21B H 0.4971 0.6295 0.9035
N5B N 0.3278(4) 0.7868(8) 0.5884(3)
N5E N 0.8278(4) 0.7132(8) 1.0884(3)
C8B C 0.4098(3) 1.1607(6) 0.7636(4)
H22B H 0.4112 1.1374 0.8002
H23B H 0.3647 1.1951 0.7476
H24B H 0.4471 1.2143 0.7643
C9B C 0.4166(4) 1.0835(7) 0.6516(3)
H25B H 0.4492 1.1449 0.6525
H26B H 0.3691 1.1087 0.6353
H27B H 0.4285 1.0225 0.6305
C10E C 0.6384(7) 0.7481(10) 1.0843(5)
H28E H 0.6602 0.6738 1.0902
H29E H 0.6556 0.7932 1.1169
C11E C 0.5585(7) 0.7389(11) 1.0705(6)
H30E H 0.5410 0.7403 1.1032
H31E H 0.5426 0.6698 1.0506
C12E C 0.5350(7) 0.8361(13) 1.0373(6)
H32E H 0.4934 0.8181 1.0084
H33E H 0.5230 0.8970 1.0591
C13E C 0.5933(6) 0.8687(13) 1.0149(6)
H34E H 0.6045 0.9479 1.0224
H35E H 0.5805 0.8580 0.9757
O2E O 0.7837(7) 0.9388(10) 1.0027(4)
C14E C 0.7629(9) 1.0365(13) 0.9726(7)
H36E H 0.7563 1.0250 0.9337
H37E H 0.7208 1.0708 0.9798
C15E C 0.8206(13) 1.1126(14) 1.0537(6)
H38E H 0.8620 1.1410 1.0801
H39E H 0.7780 1.1534 1.0557
C16E C 0.8130(14) 0.9876(15) 1.0535(6)
H40E H 0.7836 0.9675 1.0780
H41E H 0.8596 0.9547 1.0682
C17E C 0.8303(10) 1.1008(17) 0.9982(7)
H42E H 0.8319 1.1736 0.9809
H43E H 0.8726 1.0577 0.9976
loop_
_geom_bond_atom_site_label_1
_geom_bond_atom_site_label_2
_geom_bond_site_symmetry_1
_geom_bond_site_symmetry_2
U1 N1 1_555 1_555
Si1 N2 1_555 1_555
Si2 N2 1_555 1_555
Si3 N4 1_555 1_555
Na1 O1 1_555 1_555
N1 N3 1_555 1_555
N2 U1 1_555 1_555
N3 N5 1_555 1_555
C1 Si2 1_555 1_555
H1 C1 1_555 1_555
H2 C1 1_555 1_555
H3 C1 1_555 1_555
N4 U1 1_555 1_555
C2 Si1 1_555 1_555
H4 C2 1_555 1_555
H5 C2 1_555 1_555
H6 C2 1_555 1_555
C3 Si3 1_555 1_555
H7 C3 1_555 1_555
H8 C3 1_555 1_555
H9 C3 1_555 1_555
C4 Si1 1_555 1_555
H10 C4 1_555 1_555
H11 C4 1_555 1_555
H12 C4 1_555 1_555
C5 Si2 1_555 1_555
H13 C5 1_555 1_555
H14 C5 1_555 1_555
H15 C5 1_555 1_555
C6 Si2 1_555 1_555
H16 C6 1_555 1_555
H17 C6 1_555 1_555
H18 C6 1_555 1_555
O1 C10 1_555 1_555
C7 Si1 1_555 1_555
H19 C7 1_555 1_555
H20 C7 1_555 1_555
H21 C7 1_555 1_555
N5 Na1 1_555 1_555
C8 Si3 1_555 1_555
H22 C8 1_555 1_555
H23 C8 1_555 1_555
H24 C8 1_555 1_555
C9 Si3 1_555 1_555
H25 C9 1_555 1_555
H26 C9 1_555 1_555
H27 C9 1_555 1_555
C10 H28 1_555 1_555
H29 C10 1_555 1_555
C11 C10 1_555 1_555
H30 C11 1_555 1_555
H31 C11 1_555 1_555
C12 C11 1_555 1_555
H32 C12 1_555 1_555
H33 C12 1_555 1_555
C13 O1 1_555 1_555
H34 C13 1_555 1_555
H35 C13 1_555 1_555
O2 Na1 1_555 1_555
C14 O2 1_555 1_555
H36 C14 1_555 1_555
H37 C14 1_555 1_555
C15 H38 1_555 1_555
H39 C15 1_555 1_555
C16 O2 1_555 1_555
H40 C16 1_555 1_555
H41 C16 1_555 1_555
C17 C14 1_555 1_555
H42 C17 1_555 1_555
H43 C17 1_555 1_555
Si1B N2B 1_555 1_555
Si2B N2B 1_555 1_555
Si3B N4 1_555 1_555
Na1B N5B 1_555 1_555
N1B U1 1_555 1_555
N2B U1 1_555 1_555
N3B N1B 1_555 1_555
C1B Si2B 1_555 1_555
H1B C1B 1_555 1_555
H2B C1B 1_555 1_555
H3B C1B 1_555 1_555
C2B Si1B 1_555 1_555
H4B C2B 1_555 1_555
H5B C2B 1_555 1_555
H6B C2B 1_555 1_555
C3B Si3B 1_555 1_555
H7B C3B 1_555 1_555
H8B C3B 1_555 1_555
H9B C3B 1_555 1_555
C4B Si1B 1_555 1_555
H10B C4B 1_555 1_555
H11B C4B 1_555 1_555
H12B C4B 1_555 1_555
C5B Si2B 1_555 1_555
H13B C5B 1_555 1_555
H14B C5B 1_555 1_555
H15B C5B 1_555 1_555
C6B Si2B 1_555 1_555
H16B C6B 1_555 1_555
H17B C6B 1_555 1_555
H18B C6B 1_555 1_555
O1E Na1 1_555 1_555
C7B Si1B 1_555 1_555
H19B C7B 1_555 1_555
H20B C7B 1_555 1_555
H21B C7B 1_555 1_555
N5B N3B 1_555 1_555
N5E Na1 1_555 1_555
C8B Si3B 1_555 1_555
H22B C8B 1_555 1_555
H23B C8B 1_555 1_555
H24B C8B 1_555 1_555
C9B Si3B 1_555 1_555
H25B C9B 1_555 1_555
H26B C9B 1_555 1_555
H27B C9B 1_555 1_555
C10E O1E 1_555 1_555
H28E C10E 1_555 1_555
H29E C10E 1_555 1_555
C11E C10E 1_555 1_555
H30E C11E 1_555 1_555
H31E C11E 1_555 1_555
C12E C11E 1_555 1_555
H32E C12E 1_555 1_555
H33E C12E 1_555 1_555
C13E O1E 1_555 1_555
H34E C13E 1_555 1_555
H35E C13E 1_555 1_555
O2E Na1 1_555 1_555
C14E O2E 1_555 1_555
H36E C14E 1_555 1_555
H37E C14E 1_555 1_555
C15E H38E 1_555 1_555
H39E C15E 1_555 1_555
C16E O2E 1_555 1_555
H40E C16E 1_555 1_555
H41E C16E 1_555 1_555
C17E C14E 1_555 1_555
H42E C17E 1_555 1_555
H43E C17E 1_555 1_555
C12 C13 1_555 1_555
C15 C16 1_555 1_555
C15 C17 1_555 1_555
C12E C13E 1_555 1_555
C15E C16E 1_555 1_555
C15E C17E 1_555 1_555

#END
