
#######################################################################
#
#                 Cambridge Crystallographic Data Centre
#                                CCDC 
#
#######################################################################
#
# If this CIF has been generated from an entry in the Cambridge 
# Structural Database, then it will include bibliographic, chemical, 
# crystal, experimental, refinement or atomic coordinate data resulting 
# from the CCDC's data processing and validation procedures.
#
#######################################################################

data_CUKVUA
_symmetry_cell_setting           triclinic
_symmetry_space_group_name_H-M   'P -1'
_symmetry_Int_Tables_number      2
_space_group_name_Hall           '-P 1'
loop_
_symmetry_equiv_pos_site_id
_symmetry_equiv_pos_as_xyz
1 x,y,z
2 -x,-y,-z
_cell_length_a                   9.3521(9)
_cell_length_b                   11.3471(12)
_cell_length_c                   18.8078(18)
_cell_angle_alpha                79.460(2)
_cell_angle_beta                 79.462(2)
_cell_angle_gamma                66.512(2)
_cell_volume                     1786.18
loop_
_atom_site_label
_atom_site_type_symbol
_atom_site_fract_x
_atom_site_fract_y
_atom_site_fract_z
C1 C 0.7559(5) 0.1839(4) 0.8072(2)
C2 C 0.6093(5) 0.2701(4) 0.8348(2)
C3 C 0.5217(6) 0.3723(4) 0.7878(2)
H1 H 0.4248 0.4306 0.8058
C4 C 0.5767(7) 0.3889(5) 0.7137(3)
H2 H 0.5178 0.4581 0.6826
C5 C 0.7160(7) 0.3035(6) 0.6882(2)
C6 C 0.8049(6) 0.2024(5) 0.7331(2)
H3 H 0.9005 0.1446 0.7137
C7 C 0.8690(5) 0.0788(4) 0.8550(2)
C8 C 0.5390(4) 0.2565(4) 0.9137(2)
C9 C 0.7170(6) 0.3212(5) 0.5576(2)
C10 C 0.5991(6) 0.2766(5) 0.5625(2)
H4 H 0.5492 0.2552 0.6076
C11 C 0.5560(5) 0.2642(5) 0.4980(2)
H5 H 0.4755 0.2346 0.5005
C12 C 0.6284(5) 0.2943(4) 0.4308(2)
C13 C 0.7449(6) 0.3423(5) 0.4283(2)
H6 H 0.7940 0.3652 0.3834
C14 C 0.7891(6) 0.3566(5) 0.4913(2)
H7 H 0.8664 0.3897 0.4890
C15 C 0.5941(5) 0.2686(4) 0.3612(2)
C16 C 1.1325(4) 0.2056(4) 1.0016(3)
H8 H 1.2267 0.1341 1.0018
C17 C 1.1363(4) 0.3256(4) 1.0004(3)
H9 H 1.2320 0.3332 0.9995
C18 C 1.0012(4) 0.4344(3) 1.0007(2)
C19 C 0.8650(5) 0.4127(4) 1.0031(3)
H10 H 0.7686 0.4820 1.0044
C20 C 0.8705(5) 0.2903(4) 1.0034(3)
H11 H 0.7764 0.2800 1.0044
C21 C 0.2596(5) 0.0994(5) 0.4346(3)
H12 H 0.3376 0.1188 0.4484
C22 C 0.1660(5) 0.0558(5) 0.4887(2)
H13 H 0.1804 0.0484 0.5372
C23 C 0.0521(4) 0.0231(4) 0.4718(2)
C24 C 0.0405(6) 0.0371(6) 0.3990(3)
H14 H -0.0344 0.0158 0.3839
C25 C 0.1392(6) 0.0825(6) 0.3476(3)
H15 H 0.1283 0.0896 0.2987
C26 C 0.6659(5) -0.0589(4) 0.3376(3)
H16 H 0.6497 -0.0095 0.3749
C27 C 0.7873(5) -0.1778(4) 0.3395(3)
H17 H 0.8484 -0.2071 0.3777
C28 C 0.8186(4) -0.2540(4) 0.2847(2)
C29 C 0.7173(5) -0.2037(4) 0.2319(2)
H18 H 0.7314 -0.2502 0.1936
C30 C 0.5963(5) -0.0858(4) 0.2359(2)
H19 H 0.5277 -0.0571 0.2007
C31 C 1.0026(5) -0.4575(4) 0.3464(2)
C32 C 0.9517(4) -0.3804(4) 0.2827(2)
C33 C 1.0354(5) -0.4250(4) 0.2189(2)
H20 H 1.0076 -0.3760 0.1746
C34 C 1.1611(5) -0.5428(4) 0.2200(2)
H21 H 1.2153 -0.5705 0.1756
N1 N 0.5704(3) -0.0098(3) 0.28655(17)
N2 N 1.2087(4) -0.6183(3) 0.28058(17)
N3 N 0.2466(4) 0.1160(3) 0.36398(17)
N4 N 1.0009(3) 0.1862(3) 1.00235(18)
O1 O 0.8450(3) 0.0869(2) 0.92094(14)
O2 O 0.9865(4) -0.0040(4) 0.82317(19)
O3 O 0.4999(3) 0.1627(3) 0.93530(14)
O4 O 0.5165(3) 0.3463(3) 0.94914(15)
O5 O 0.7837(5) 0.3258(4) 0.61629(17)
O6 O 0.4837(3) 0.2290(3) 0.36537(14)
O7 O 0.6786(4) 0.2866(4) 0.30390(16)
O8 O 0.8072(3) 0.0385(3) 1.08276(17)
O9 O 0.5550(3) 0.2381(3) 0.20278(16)
O10 O 0.2966(4) 0.1639(3) 0.19707(15)
Co1 Co 1.0000 0.0000 1.0000
Co2 Co 0.39464(6) 0.18953(5) 0.28192(3)
C35 C 1.1301(5) -0.5729(4) 0.3429(2)
H28 H 1.1632 -0.6220 0.3864
H29 H 0.952(5) -0.437(4) 0.392(2)
H30 H 0.532(4) 0.291(3) 0.1652(13)
H31 H 0.604(5) 0.260(4) 0.2281(19)
H32 H 0.209(2) 0.200(4) 0.199(2)
H33 H 0.344(4) 0.143(4) 0.1538(19)
H34 H 0.7099(17) 0.056(5) 1.085(2)
H35 H 0.830(4) 0.042(5) 1.1236(12)
C1A C -0.7559(5) -0.1839(4) 0.1928(2)
C2A C -0.6093(5) -0.2701(4) 0.1652(2)
C3A C -0.5217(6) -0.3723(4) 0.2122(2)
H1A H -0.4248 -0.4306 0.1942
C4A C -0.5767(7) -0.3889(5) 0.2863(3)
H2A H -0.5178 -0.4581 0.3174
C5A C -0.7160(7) -0.3035(6) 0.3118(2)
C6A C -0.8049(6) -0.2024(5) 0.2669(2)
H3A H -0.9005 -0.1446 0.2863
C7A C -0.8690(5) -0.0788(4) 0.1450(2)
C8A C -0.5390(4) -0.2565(4) 0.0863(2)
C9A C -0.7170(6) -0.3212(5) 0.4424(2)
C10A C -0.5991(6) -0.2766(5) 0.4375(2)
H4A H -0.5492 -0.2552 0.3924
C11A C -0.5560(5) -0.2642(5) 0.5020(2)
H5A H -0.4755 -0.2346 0.4995
C12A C -0.6284(5) -0.2943(4) 0.5692(2)
C13A C -0.7449(6) -0.3423(5) 0.5717(2)
H6A H -0.7940 -0.3652 0.6166
C14A C -0.7891(6) -0.3566(5) 0.5087(2)
H7A H -0.8664 -0.3897 0.5110
C15A C -0.5941(5) -0.2686(4) 0.6388(2)
C16A C 0.8675(4) 0.7944(4) 0.9984(3)
H8A H 0.7733 0.8659 0.9982
C17A C 0.8637(4) 0.6744(4) 0.9996(3)
H9A H 0.7680 0.6668 1.0005
C18A C 0.9988(4) 0.5656(3) 0.9993(2)
C19A C 1.1350(5) 0.5873(4) 0.9969(3)
H10A H 1.2314 0.5180 0.9956
C20A C 1.1295(5) 0.7097(4) 0.9966(3)
H11A H 1.2236 0.7200 0.9956
C21A C -0.2596(5) -0.0994(5) 0.5654(3)
H12A H -0.3376 -0.1188 0.5516
C22A C -0.1660(5) -0.0558(5) 0.5113(2)
H13A H -0.1804 -0.0484 0.4628
C23A C -0.0521(4) -0.0231(4) 0.5282(2)
C24A C -0.0405(6) -0.0371(6) 0.6010(3)
H14A H 0.0344 -0.0158 0.6161
C25A C -0.1392(6) -0.0825(6) 0.6524(3)
H15A H -0.1283 -0.0896 0.7013
C26A C -0.6659(5) 0.0589(4) 0.6624(3)
H16A H -0.6497 0.0095 0.6251
C27A C -0.7873(5) 0.1778(4) 0.6605(3)
H17A H -0.8484 0.2071 0.6223
C28A C -0.8186(4) 0.2540(4) 0.7153(2)
C29A C -0.7173(5) 0.2037(4) 0.7681(2)
H18A H -0.7314 0.2502 0.8064
C30A C -0.5963(5) 0.0858(4) 0.7641(2)
H19A H -0.5277 0.0571 0.7993
C31A C -1.0026(5) 0.4575(4) 0.6536(2)
C32A C -0.9517(4) 0.3804(4) 0.7173(2)
C33A C -1.0354(5) 0.4250(4) 0.7811(2)
H20A H -1.0076 0.3760 0.8254
C34A C -1.1611(5) 0.5428(4) 0.7800(2)
H21A H -1.2153 0.5705 0.8244
N1A N -0.5704(3) 0.0098(3) 0.71345(17)
N2A N -1.2087(4) 0.6183(3) 0.71942(17)
N2_2 N 0.2087(4) 0.3817(3) 0.28058(17)
N2A_2 N -0.2087(4) -0.3817(3) 0.71942(17)
N3A N -0.2466(4) -0.1160(3) 0.63602(17)
N4A N 0.9991(3) 0.8138(3) 0.99765(18)
N4A_2 N 0.9991(3) -0.1862(3) 0.99765(18)
O1A O -0.8450(3) -0.0869(2) 0.07906(14)
O1A_2 O 1.1550(3) -0.0869(2) 1.07906(14)
O2A O -0.9865(4) 0.0040(4) 0.17683(19)
O3A O -0.4999(3) -0.1627(3) 0.06470(14)
O4A O -0.5165(3) -0.3463(3) 0.05086(15)
O5A O -0.7837(5) -0.3258(4) 0.38371(17)
O6A O -0.4837(3) -0.2290(3) 0.63463(14)
O7A O -0.6786(4) -0.2866(4) 0.69610(16)
O8A O 1.1928(3) -0.0385(3) 0.91724(17)
O9A O -0.5550(3) -0.2381(3) 0.79722(16)
O10A O -0.2966(4) -0.1639(3) 0.80293(15)
Co1_2 Co -1.0000 0.0000 0.0000
Co1_3 Co 1.0000 1.0000 1.0000
Co2A Co -0.39464(6) -0.18953(5) 0.71808(3)
Co2_2 Co 1.39464(6) -0.81047(5) 0.28192(3)
Co2A_2 Co -1.39464(6) 0.81047(5) 0.71808(3)
C35A C -1.1301(5) 0.5729(4) 0.6571(2)
H28A H -1.1632 0.6220 0.6136
H29A H -0.952(5) 0.437(4) 0.608(2)
H30A H -0.532(4) -0.291(3) 0.8348(13)
H31A H -0.604(5) -0.260(4) 0.7719(19)
H32A H -0.209(2) -0.200(4) 0.801(2)
H33A H -0.344(4) -0.143(4) 0.8462(19)
H34A H 1.2901(17) -0.056(5) 0.915(2)
H35A H 1.170(4) -0.042(5) 0.8764(12)
O11 O 0.4607(3) 0.4102(3) 0.08806(14)
H22 H 0.4318 0.4919 0.0832
H23 H 0.5048 0.3801 0.0482
O12 O 1.0280(4) -0.2512(4) 0.8049(2)
H24 H 1.0061 -0.1694 0.7933
H25 H 1.1208 -0.2917 0.7849
O13 O 0.4899(3) 0.0771(3) 1.07793(14)
H26 H 0.4841 0.1185 1.0353
H27 H 0.5025 -0.0008 1.0765
loop_
_geom_bond_atom_site_label_1
_geom_bond_atom_site_label_2
_geom_bond_site_symmetry_1
_geom_bond_site_symmetry_2
C1 C2 1_555 1_555
C2 C3 1_555 1_555
C3 H1 1_555 1_555
C4 C3 1_555 1_555
H2 C4 1_555 1_555
C5 C4 1_555 1_555
C6 C1 1_555 1_555
H3 C6 1_555 1_555
C7 C1 1_555 1_555
C8 C2 1_555 1_555
C9 C10 1_555 1_555
C10 H4 1_555 1_555
C11 C10 1_555 1_555
H5 C11 1_555 1_555
C12 C11 1_555 1_555
C13 C12 1_555 1_555
H6 C13 1_555 1_555
C14 C9 1_555 1_555
H7 C14 1_555 1_555
C15 C12 1_555 1_555
C16 H8 1_555 1_555
C17 C16 1_555 1_555
H9 C17 1_555 1_555
C18 C17 1_555 1_555
C19 C18 1_555 1_555
H10 C19 1_555 1_555
C20 C19 1_555 1_555
H11 C20 1_555 1_555
C21 H12 1_555 1_555
C22 C21 1_555 1_555
H13 C22 1_555 1_555
C23 C22 1_555 1_555
C24 C23 1_555 1_555
H14 C24 1_555 1_555
C25 C24 1_555 1_555
H15 C25 1_555 1_555
C26 H16 1_555 1_555
C27 C26 1_555 1_555
H17 C27 1_555 1_555
C28 C27 1_555 1_555
C29 C28 1_555 1_555
H18 C29 1_555 1_555
C30 C29 1_555 1_555
H19 C30 1_555 1_555
C31 C32 1_555 1_555
C32 C28 1_555 1_555
C33 C32 1_555 1_555
H20 C33 1_555 1_555
C34 C33 1_555 1_555
H21 C34 1_555 1_555
N1 C26 1_555 1_555
N2 C34 1_555 1_555
N3 C21 1_555 1_555
N4 C16 1_555 1_555
O1 C7 1_555 1_555
O2 C7 1_555 1_555
O3 C8 1_555 1_555
O4 C8 1_555 1_555
O5 C5 1_555 1_555
O6 C15 1_555 1_555
O7 C15 1_555 1_555
O8 Co1 1_555 1_555
O9 Co2 1_555 1_555
O10 Co2 1_555 1_555
O11 H22 1_555 1_555
H23 O11 1_555 1_555
O12 H24 1_555 1_555
H25 O12 1_555 1_555
O13 H26 1_555 1_555
H27 O13 1_555 1_555
Co1 N4 1_555 1_555
Co2 N1 1_555 1_555
C35 C31 1_555 1_555
H28 C35 1_555 1_555
H29 C31 1_555 1_555
H30 O9 1_555 1_555
H31 O9 1_555 1_555
H32 O10 1_555 1_555
H33 O10 1_555 1_555
H34 O8 1_555 1_555
H35 O8 1_555 1_555
C1A C2A 1_555 1_555
C2A C3A 1_555 1_555
C3A H1A 1_555 1_555
C4A C3A 1_555 1_555
H2A C4A 1_555 1_555
C5A C4A 1_555 1_555
C6A C1A 1_555 1_555
H3A C6A 1_555 1_555
C7A C1A 1_555 1_555
C8A C2A 1_555 1_555
C9A C10A 1_555 1_555
C10A H4A 1_555 1_555
C11A C10A 1_555 1_555
H5A C11A 1_555 1_555
C12A C11A 1_555 1_555
C13A C12A 1_555 1_555
H6A C13A 1_555 1_555
C14A C9A 1_555 1_555
H7A C14A 1_555 1_555
C15A C12A 1_555 1_555
C16A H8A 1_555 1_555
C17A C16A 1_555 1_555
H9A C17A 1_555 1_555
C18A C18 1_555 1_555
C19A C18A 1_555 1_555
H10A C19A 1_555 1_555
C20A C19A 1_555 1_555
H11A C20A 1_555 1_555
C21A H12A 1_555 1_555
C22A C21A 1_555 1_555
H13A C22A 1_555 1_555
C23A C23 1_555 1_555
C24A C23A 1_555 1_555
H14A C24A 1_555 1_555
C25A C24A 1_555 1_555
H15A C25A 1_555 1_555
C26A H16A 1_555 1_555
C27A C26A 1_555 1_555
H17A C27A 1_555 1_555
C28A C27A 1_555 1_555
C29A C28A 1_555 1_555
H18A C29A 1_555 1_555
C30A C29A 1_555 1_555
H19A C30A 1_555 1_555
C31A C32A 1_555 1_555
C32A C28A 1_555 1_555
C33A C32A 1_555 1_555
H20A C33A 1_555 1_555
C34A C33A 1_555 1_555
H21A C34A 1_555 1_555
N1A C26A 1_555 1_555
N2A C34A 1_555 1_555
N2_2 Co2 1_555 1_555
N2A_2 Co2A 1_555 1_555
N3A C21A 1_555 1_555
N4A C16A 1_555 1_555
N4A_2 Co1 1_555 1_555
O1A C7A 1_555 1_555
O1A_2 Co1 1_555 1_555
O2A C7A 1_555 1_555
O3A C8A 1_555 1_555
O4A C8A 1_555 1_555
O5A C5A 1_555 1_555
O6A C15A 1_555 1_555
O7A C15A 1_555 1_555
O8A Co1 1_555 1_555
O9A Co2A 1_555 1_555
O10A Co2A 1_555 1_555
Co1_2 O1A 1_555 1_555
Co1_3 N4A 1_555 1_555
Co2A N1A 1_555 1_555
Co2_2 N2 1_555 1_555
Co2A_2 N2A 1_555 1_555
C35A C31A 1_555 1_555
H28A C35A 1_555 1_555
H29A C31A 1_555 1_555
H30A O9A 1_555 1_555
H31A O9A 1_555 1_555
H32A O10A 1_555 1_555
H33A O10A 1_555 1_555
H34A O8A 1_555 1_555
H35A O8A 1_555 1_555
C5 C6 1_555 1_555
C9 O5 1_555 1_555
C13 C14 1_555 1_555
C20 N4 1_555 1_555
C25 N3 1_555 1_555
C30 N1 1_555 1_555
N2 C35 1_555 1_555
N3 Co2 1_555 1_555
O1 Co1 1_555 1_555
O6 Co2 1_555 1_555
C5A C6A 1_555 1_555
C9A O5A 1_555 1_555
C13A C14A 1_555 1_555
C17A C18A 1_555 1_555
C20A N4A 1_555 1_555
C22A C23A 1_555 1_555
C25A N3A 1_555 1_555
C30A N1A 1_555 1_555
N2A C35A 1_555 1_555
N3A Co2A 1_555 1_555
O6A Co2A 1_555 1_555

#END
