
#######################################################################
#
#                 Cambridge Crystallographic Data Centre
#                                CCDC 
#
#######################################################################
#
# If this CIF has been generated from an entry in the Cambridge 
# Structural Database, then it will include bibliographic, chemical, 
# crystal, experimental, refinement or atomic coordinate data resulting 
# from the CCDC's data processing and validation procedures.
#
#######################################################################

data_CUKWEL
_symmetry_cell_setting           triclinic
_symmetry_space_group_name_H-M   'P -1'
_symmetry_Int_Tables_number      2
_space_group_name_Hall           '-P 1'
loop_
_symmetry_equiv_pos_site_id
_symmetry_equiv_pos_as_xyz
1 x,y,z
2 -x,-y,-z
_cell_length_a                   11.4757(11)
_cell_length_b                   11.5865(12)
_cell_length_c                   11.9419(12)
_cell_angle_alpha                86.534(2)
_cell_angle_beta                 76.535(2)
_cell_angle_gamma                69.576(2)
_cell_volume                     1446.74
loop_
_atom_site_label
_atom_site_type_symbol
_atom_site_fract_x
_atom_site_fract_y
_atom_site_fract_z
C1 C 0.4006(2) 0.6748(2) 0.7117(2)
C2 C 0.4557(2) 0.6753(2) 0.9501(2)
C3 C 0.4691(2) 0.7722(2) 0.8646(2)
C4 C 0.5072(3) 0.8665(3) 0.8944(3)
H1 H 0.5214 0.8687 0.9676
C5 C 0.5240(3) 0.9558(3) 0.8176(3)
H2 H 0.5507 1.0168 0.8385
C6 C 0.5008(3) 0.9544(3) 0.7088(3)
H3 H 0.5100 1.0153 0.6566
C7 C 0.4640(3) 0.8616(3) 0.6794(2)
C8 C 0.4481(2) 0.7688(2) 0.7539(2)
C9 C 0.3352(3) 0.9158(2) 0.5393(2)
C10 C 0.2478(3) 1.0200(3) 0.5997(3)
H4 H 0.2623 1.0465 0.6654
C11 C 0.1373(3) 1.0853(3) 0.5611(3)
H5 H 0.0761 1.1532 0.6034
C12 C 0.1186(3) 1.0493(3) 0.4605(3)
H6 H 0.0479 1.0960 0.4322
C13 C 0.2055(3) 0.9438(3) 0.4022(3)
H7 H 0.1917 0.9194 0.3352
C14 C 0.3134(2) 0.8730(2) 0.4414(2)
C15 C 0.3954(2) 0.7501(2) 0.3848(2)
C16 C 0.7136(3) 0.6005(3) 0.5008(3)
H8 H 0.6439 0.6734 0.5093
C17 C 0.8294(3) 0.6060(3) 0.5082(3)
H9 H 0.8361 0.6814 0.5220
C18 C 0.9366(2) 0.4993(3) 0.4952(2)
C19 C 0.9180(3) 0.3920(3) 0.4728(3)
H10 H 0.9867 0.3183 0.4611
C20 C 0.7990(3) 0.3931(3) 0.4676(3)
H11 H 0.7899 0.3189 0.4535
C21 C 0.7433(3) 0.5254(3) 0.7911(3)
H12 H 0.6843 0.5986 0.7736
C22 C 0.8617(3) 0.5262(3) 0.7988(3)
H13 H 0.8796 0.5990 0.7885
C23 C 0.9534(3) 0.4183(3) 0.8217(2)
C24 C 0.9186(3) 0.3135(3) 0.8377(3)
H14 H 0.9766 0.2386 0.8533
C25 C 0.7975(3) 0.3210(3) 0.8303(3)
H15 H 0.7763 0.2500 0.8416
C26 C 1.2189(3) 0.5165(3) 0.8662(3)
H16 H 1.2272 0.5865 0.8928
C27 C 1.0976(3) 0.5182(3) 0.8675(3)
H17 H 1.0271 0.5879 0.8945
C28 C 1.0812(2) 0.4163(3) 0.8286(2)
C29 C 1.1907(3) 0.3148(3) 0.7939(3)
H18 H 1.1848 0.2427 0.7694
C30 C 1.3078(3) 0.3203(3) 0.7956(3)
H19 H 1.3795 0.2505 0.7721
N1 N 0.6960(2) 0.4954(2) 0.48184(19)
N2 N 0.7089(2) 0.4260(2) 0.8074(2)
N3 N 1.3249(2) 0.4204(2) 0.8290(2)
O1 O 0.42753(17) 0.58799(17) 0.92013(16)
O2 O 0.47219(19) 0.68862(18) 1.04797(16)
O3 O 0.48431(16) 0.56719(16) 0.67809(15)
O4 O 0.28940(17) 0.71166(18) 0.70723(18)
O5 O 0.45106(18) 0.85434(18) 0.56683(16)
O6 O 0.45744(18) 0.67079(16) 0.44446(16)
O7 O 0.39365(18) 0.73365(18) 0.28253(16)
Co1 Co 0.5000 0.5000 0.5000
Co2 Co 0.51500(3) 0.42966(3) 0.81555(3)
C1A C 0.5994(2) 0.3252(2) 0.2883(2)
C2A C 0.5443(2) 0.3247(2) 0.0499(2)
C3A C 0.5309(2) 0.2278(2) 0.1354(2)
C4A C 0.4928(3) 0.1335(3) 0.1056(3)
H1A H 0.4786 0.1313 0.0324
C5A C 0.4760(3) 0.0442(3) 0.1824(3)
H2A H 0.4493 -0.0168 0.1615
C6A C 0.4992(3) 0.0456(3) 0.2912(3)
H3A H 0.4900 -0.0153 0.3434
C7A C 0.5360(3) 0.1384(3) 0.3206(2)
C8A C 0.5519(2) 0.2312(2) 0.2461(2)
C9A C 0.6648(3) 0.0842(2) 0.4607(2)
C10A C 0.7522(3) -0.0200(3) 0.4003(3)
H4A H 0.7377 -0.0465 0.3346
C11A C 0.8627(3) -0.0853(3) 0.4389(3)
H5A H 0.9239 -0.1532 0.3966
C12A C 0.8814(3) -0.0493(3) 0.5395(3)
H6A H 0.9521 -0.0960 0.5678
C13A C 0.7945(3) 0.0562(3) 0.5978(3)
H7A H 0.8083 0.0806 0.6648
C14A C 0.6866(2) 0.1270(2) 0.5586(2)
C15A C 0.6046(2) 0.2499(2) 0.6152(2)
C16A C 1.2864(3) 0.3995(3) 0.4992(3)
H8A H 1.3561 0.3266 0.4907
C17A C 1.1706(3) 0.3940(3) 0.4918(3)
H9A H 1.1639 0.3186 0.4780
C18A C 1.0634(2) 0.5007(3) 0.5048(2)
C19A C 1.0820(3) 0.6080(3) 0.5272(3)
H10A H 1.0133 0.6817 0.5389
C20A C 1.2010(3) 0.6069(3) 0.5324(3)
H11A H 1.2101 0.6811 0.5465
C21A C 0.2567(3) 0.4746(3) 0.2089(3)
H12A H 0.3157 0.4014 0.2264
C22A C 0.1383(3) 0.4738(3) 0.2012(3)
H13A H 0.1204 0.4010 0.2115
C23A C 0.0466(3) 0.5817(3) 0.1783(2)
C24A C 0.0814(3) 0.6865(3) 0.1623(3)
H14A H 0.0234 0.7614 0.1467
C25A C 0.2025(3) 0.6790(3) 0.1697(3)
H15A H 0.2237 0.7500 0.1584
C26A C -0.2189(3) 0.4835(3) 0.1338(3)
H16A H -0.2272 0.4135 0.1072
C27A C -0.0976(3) 0.4818(3) 0.1325(3)
H17A H -0.0271 0.4121 0.1055
C28A C -0.0812(2) 0.5837(3) 0.1714(2)
C29A C -0.1907(3) 0.6852(3) 0.2061(3)
H18A H -0.1848 0.7573 0.2306
C30A C -0.3078(3) 0.6797(3) 0.2044(3)
H19A H -0.3795 0.7495 0.2279
N1A N 1.3040(2) 0.5046(2) 0.51816(19)
N1A_2 N 0.3040(2) 0.5046(2) 0.51816(19)
N2A N 0.2911(2) 0.5740(2) 0.1926(2)
N3A N -0.3249(2) 0.5796(2) 0.1710(2)
N3_2 N 0.3249(2) 0.4204(2) 0.8290(2)
N3A_2 N 0.6751(2) 0.5796(2) 0.1710(2)
O1A O 0.57247(17) 0.41201(17) 0.07987(16)
O2A O 0.52781(19) 0.31138(18) -0.04797(16)
O2_2 O 0.47219(19) 0.68862(18) 0.04797(16)
O2A_2 O 0.52781(19) 0.31138(18) 0.95203(16)
O3A O 0.51569(16) 0.43281(16) 0.32191(15)
O4A O 0.71060(17) 0.28834(18) 0.29277(18)
O5A O 0.54894(18) 0.14566(18) 0.43317(16)
O6A O 0.54256(18) 0.32921(16) 0.55554(16)
O7A O 0.60635(18) 0.26635(18) 0.71747(16)
Co1_2 Co 1.5000 0.5000 0.5000
Co2A Co 0.48500(3) 0.57034(3) 0.18445(3)
Co2_2 Co 0.51500(3) 0.42966(3) -0.18445(3)
Co2_3 Co 1.51500(3) 0.42966(3) 0.81555(3)
Co2A_2 Co -0.51500(3) 0.57034(3) 0.18445(3)
Co2A_3 Co 0.48500(3) 0.57034(3) 1.18445(3)
C31 C 0.8088(5) 0.8979(6) 0.9405(5)
H20 H 0.7258 0.8984 0.9672
C32 C 0.8503(4) 0.9659(5) 1.0024(4)
H21 H 0.7955 1.0116 1.0671
C33 C 0.9736(3) 0.9661(3) 0.9678(3)
C34 C 1.0465(4) 0.8959(4) 0.8695(4)
H22 H 1.1307 0.8917 0.8414
C35 C 0.9944(4) 0.8327(4) 0.8139(4)
H23 H 1.0461 0.7869 0.7481
N4 N 0.8775(4) 0.8319(4) 0.8462(4)
C31A C 1.1912(5) 1.1021(6) 1.0595(5)
H20A H 1.2742 1.1016 1.0328
C32A C 1.1497(4) 1.0341(5) 0.9976(4)
H21A H 1.2045 0.9884 0.9329
C33A C 1.0264(3) 1.0339(3) 1.0322(3)
C34A C 0.9535(4) 1.1041(4) 1.1305(4)
H22A H 0.8693 1.1083 1.1586
C35A C 1.0056(4) 1.1673(4) 1.1861(4)
H23A H 0.9539 1.2131 1.2519
N4A N 1.1225(4) 1.1681(4) 1.1538(4)
loop_
_geom_bond_atom_site_label_1
_geom_bond_atom_site_label_2
_geom_bond_site_symmetry_1
_geom_bond_site_symmetry_2
C1 C8 1_555 1_555
C2 C3 1_555 1_555
C3 C4 1_555 1_555
C4 H1 1_555 1_555
C5 C4 1_555 1_555
H2 C5 1_555 1_555
C6 C5 1_555 1_555
H3 C6 1_555 1_555
C7 C6 1_555 1_555
C8 C3 1_555 1_555
C9 C10 1_555 1_555
C10 H4 1_555 1_555
C11 C10 1_555 1_555
H5 C11 1_555 1_555
C12 C11 1_555 1_555
H6 C12 1_555 1_555
C13 C12 1_555 1_555
H7 C13 1_555 1_555
C14 C9 1_555 1_555
C15 C14 1_555 1_555
C16 H8 1_555 1_555
C17 C16 1_555 1_555
H9 C17 1_555 1_555
C18 C17 1_555 1_555
C19 C18 1_555 1_555
H10 C19 1_555 1_555
C20 C19 1_555 1_555
H11 C20 1_555 1_555
C21 H12 1_555 1_555
C22 C21 1_555 1_555
H13 C22 1_555 1_555
C23 C22 1_555 1_555
C24 C23 1_555 1_555
H14 C24 1_555 1_555
C25 C24 1_555 1_555
H15 C25 1_555 1_555
C26 H16 1_555 1_555
C27 C26 1_555 1_555
H17 C27 1_555 1_555
C28 C23 1_555 1_555
C29 C28 1_555 1_555
H18 C29 1_555 1_555
C30 C29 1_555 1_555
H19 C30 1_555 1_555
C31 H20 1_555 1_555
C32 C31 1_555 1_555
H21 C32 1_555 1_555
C33 C32 1_555 1_555
C34 C33 1_555 1_555
H22 C34 1_555 1_555
C35 C34 1_555 1_555
H23 C35 1_555 1_555
N1 C16 1_555 1_555
N2 C21 1_555 1_555
N3 C26 1_555 1_555
N4 C31 1_555 1_555
O1 C2 1_555 1_555
O2 C2 1_555 1_555
O3 C1 1_555 1_555
O4 C1 1_555 1_555
O5 C7 1_555 1_555
O6 C15 1_555 1_555
O7 C15 1_555 1_555
Co1 N1 1_555 1_555
Co2 N2 1_555 1_555
C1A C8A 1_555 1_555
C2A C3A 1_555 1_555
C3A C4A 1_555 1_555
C4A H1A 1_555 1_555
C5A C4A 1_555 1_555
H2A C5A 1_555 1_555
C6A C5A 1_555 1_555
H3A C6A 1_555 1_555
C7A C6A 1_555 1_555
C8A C3A 1_555 1_555
C9A C10A 1_555 1_555
C10A H4A 1_555 1_555
C11A C10A 1_555 1_555
H5A C11A 1_555 1_555
C12A C11A 1_555 1_555
H6A C12A 1_555 1_555
C13A C12A 1_555 1_555
H7A C13A 1_555 1_555
C14A C9A 1_555 1_555
C15A C14A 1_555 1_555
C16A H8A 1_555 1_555
C17A C16A 1_555 1_555
H9A C17A 1_555 1_555
C18A C18 1_555 1_555
C19A C18A 1_555 1_555
H10A C19A 1_555 1_555
C20A C19A 1_555 1_555
H11A C20A 1_555 1_555
C21A H12A 1_555 1_555
C22A C21A 1_555 1_555
H13A C22A 1_555 1_555
C23A C22A 1_555 1_555
C24A C23A 1_555 1_555
H14A C24A 1_555 1_555
C25A C24A 1_555 1_555
H15A C25A 1_555 1_555
C26A H16A 1_555 1_555
C27A C26A 1_555 1_555
H17A C27A 1_555 1_555
C28A C23A 1_555 1_555
C29A C28A 1_555 1_555
H18A C29A 1_555 1_555
C30A C29A 1_555 1_555
H19A C30A 1_555 1_555
C31A H20A 1_555 1_555
C32A C31A 1_555 1_555
H21A C32A 1_555 1_555
C33A C33 1_555 1_555
C34A C33A 1_555 1_555
H22A C34A 1_555 1_555
C35A C34A 1_555 1_555
H23A C35A 1_555 1_555
N1A C16A 1_555 1_555
N1A_2 Co1 1_555 1_555
N2A C21A 1_555 1_555
N3A C26A 1_555 1_555
N3_2 Co2 1_555 1_555
N3A_2 Co2A 1_555 1_555
N4A C31A 1_555 1_555
O1A C2A 1_555 1_555
O2A C2A 1_555 1_555
O2_2 Co2A 1_555 1_555
O2A_2 Co2 1_555 1_555
O3A Co1 1_555 1_555
O4A C1A 1_555 1_555
O5A C7A 1_555 1_555
O6A Co1 1_555 1_555
O7A Co2 1_555 1_555
Co1_2 N1A 1_555 1_555
Co2A O7 1_555 1_555
Co2_2 O2A 1_555 1_555
Co2_3 N3 1_555 1_555
Co2A_2 N3A 1_555 1_555
Co2A_3 O2 1_555 1_555
C7 C8 1_555 1_555
C9 O5 1_555 1_555
C13 C14 1_555 1_555
C20 N1 1_555 1_555
C25 N2 1_555 1_555
C27 C28 1_555 1_555
C30 N3 1_555 1_555
C35 N4 1_555 1_555
O1 Co2 1_555 1_555
O3 Co1 1_555 1_555
O3 Co2 1_555 1_555
O6 Co1 1_555 1_555
C1A O3A 1_555 1_555
C7A C8A 1_555 1_555
C9A O5A 1_555 1_555
C13A C14A 1_555 1_555
C15A O6A 1_555 1_555
C15A O7A 1_555 1_555
C17A C18A 1_555 1_555
C20A N1A 1_555 1_555
C25A N2A 1_555 1_555
C27A C28A 1_555 1_555
C30A N3A 1_555 1_555
C32A C33A 1_555 1_555
C35A N4A 1_555 1_555
N2A Co2A 1_555 1_555
O1A Co2A 1_555 1_555
O3A Co2A 1_555 1_555

#END
