
#######################################################################
#
#                 Cambridge Crystallographic Data Centre
#                                CCDC 
#
#######################################################################
#
# If this CIF has been generated from an entry in the Cambridge 
# Structural Database, then it will include bibliographic, chemical, 
# crystal, experimental, refinement or atomic coordinate data resulting 
# from the CCDC's data processing and validation procedures.
#
#######################################################################

data_CUKWOV
_symmetry_cell_setting           cubic
_symmetry_space_group_name_H-M   'I -4 3 d'
_symmetry_Int_Tables_number      220
_space_group_name_Hall           'I -4bd 2c 3'
loop_
_symmetry_equiv_pos_site_id
_symmetry_equiv_pos_as_xyz
1 x,y,z
2 1/4+y,3/4-x,1/4-z
3 -x,1/2-y,z
4 1/4-y,1/4+x,3/4-z
5 1/4-x,1/4+z,3/4-y
6 x,-y,1/2-z
7 3/4-x,1/4-z,1/4+y
8 3/4-z,1/4-y,1/4+x
9 1/2-x,y,-z
10 1/4+z,3/4-y,1/4-x
11 z,x,y
12 y,z,x
13 -y,1/2-z,x
14 z,-x,1/2-y
15 1/2-y,z,-x
16 -z,1/2-x,y
17 1/2-z,x,-y
18 y,-z,1/2-x
19 3/4-y,1/4-x,1/4+z
20 1/4+y,1/4+x,1/4+z
21 1/4+x,3/4-z,1/4-y
22 1/4+x,1/4+z,1/4+y
23 1/4-z,1/4+y,3/4-x
24 1/4+z,1/4+y,1/4+x
25 1/2+x,1/2+y,1/2+z
26 3/4+y,1/4-x,3/4-z
27 1/2-x,-y,1/2+z
28 3/4-y,3/4+x,1/4-z
29 3/4-x,3/4+z,1/4-y
30 1/2+x,1/2-y,-z
31 1/4-x,3/4-z,3/4+y
32 1/4-z,3/4-y,3/4+x
33 -x,1/2+y,1/2-z
34 3/4+z,1/4-y,3/4-x
35 1/2+z,1/2+x,1/2+y
36 1/2+y,1/2+z,1/2+x
37 1/2-y,-z,1/2+x
38 1/2+z,1/2-x,-y
39 -y,1/2+z,1/2-x
40 1/2-z,-x,1/2+y
41 -z,1/2+x,1/2-y
42 1/2+y,1/2-z,-x
43 1/4-y,3/4-x,3/4+z
44 3/4+y,3/4+x,3/4+z
45 3/4+x,1/4-z,3/4-y
46 3/4+x,3/4+z,3/4+y
47 3/4-z,3/4+y,1/4-x
48 3/4+z,3/4+y,3/4+x
_cell_length_a                   21.500(3)
_cell_length_b                   21.500(3)
_cell_length_c                   21.500(3)
_cell_angle_alpha                90
_cell_angle_beta                 90
_cell_angle_gamma                90
_cell_volume                     9938.37
loop_
_atom_site_label
_atom_site_type_symbol
_atom_site_fract_x
_atom_site_fract_y
_atom_site_fract_z
O4 O 0.2128(7) 0.7328(5) 0.0524(4)
H3 H 0.187(3) 0.710(4) 0.068(4)
H4 H 0.213(5) 0.728(5) 0.0146(8)
Cd1 Cd 0.2500 0.3750 0.0000
Cd2 Cd 0.150880(16) 0.281460(15) 0.265700(15)
S1 S 0.30281(6) 0.30281(6) 0.30281(6)
O1 O 0.34187(18) 0.34187(18) 0.34187(18)
O2 O 0.2373(2) 0.3119(3) 0.3182(3)
O3 O 0.21358(14) 0.21358(14) 0.21358(14)
N1 N 0.0734(2) 0.4216(3) 0.1919(2)
H1 H 0.0521 0.4511 0.1752
H2 H 0.0637 0.4080 0.2282
N2 N 0.15803(18) 0.35039(19) 0.18330(17)
N3 N 0.20063(17) 0.34065(17) 0.13860(17)
N4 N 0.19137(18) 0.37841(19) 0.09212(19)
N5 N 0.14129(19) 0.41437(19) 0.10440(19)
N6 N 0.2002(2) 0.5177(2) 0.0085(3)
N7 N 0.2500 0.4829(3) 0.0000
C2 C 0.2162(8) 0.5768(7) -0.0091(7)
C3 C 0.1220(2) 0.3968(3) 0.1611(2)
N8 N 0.1771(9) 0.6288(6) -0.0135(10)
H5 H 0.19156(14) 0.19156(14) 0.19156(14)
Cd1D Cd 0.0000 0.2500 0.3750
Cd1F Cd 0.5000 0.2500 -0.3750
Cd1A Cd 0.6250 0.5000 0.2500
Cd1C Cd -0.1250 0.5000 -0.2500
Cd2H Cd 0.349120(16) 0.281460(15) -0.265700(15)
Cd2I Cd 0.515700(15) 0.468540(15) 0.099120(16)
Cd2EA Cd -0.015700(15) 0.468540(15) -0.099120(16)
Cd2K Cd 0.281460(15) 0.265700(15) 0.150880(16)
Cd2N Cd 0.218540(15) 0.265700(15) -0.150880(16)
Cd2T Cd 0.400880(16) 0.484300(15) -0.031460(15)
Cd2DA Cd 0.099120(16) 0.484300(15) 0.031460(15)
Cd2J Cd 0.265700(15) 0.150880(16) 0.281460(15)
Cd2P Cd 0.234300(15) 0.150880(16) -0.281460(15)
Cd2A Cd 0.531460(15) 0.599120(16) -0.015700(15)
Cd2PA Cd -0.031460(15) 0.599120(16) 0.015700(15)
Cd2Y Cd 0.031460(15) 0.099120(16) 0.484300(15)
Cd2D Cd 0.099120(16) 0.515700(15) 0.468540(15)
Cd2C Cd -0.031460(15) 0.400880(16) 0.484300(15)
Cd2B Cd -0.150880(16) 0.218540(15) 0.265700(15)
Cd2R Cd 0.468540(15) 0.099120(16) -0.484300(15)
Cd2U Cd 0.400880(16) 0.515700(15) -0.468540(15)
Cd2S Cd 0.531460(15) 0.400880(16) -0.484300(15)
Cd2CA Cd 0.650880(16) 0.218540(15) -0.265700(15)
Cd2NA Cd 0.734300(15) 0.650880(16) 0.218540(15)
Cd2L Cd 0.718540(15) 0.234300(15) 0.150880(16)
Cd2O Cd 0.734300(15) 0.349120(16) 0.281460(15)
Cd2W Cd 0.515700(15) 0.531460(15) 0.400880(16)
Cd2HA Cd -0.234300(15) 0.650880(16) -0.218540(15)
Cd2OA Cd -0.218540(15) 0.234300(15) -0.150880(16)
Cd2KA Cd -0.234300(15) 0.349120(16) -0.281460(15)
Cd2V Cd -0.015700(15) 0.531460(15) -0.400880(16)
S1H S 0.19719(6) 0.30281(6) -0.30281(6)
S1A S 0.55281(6) 0.44719(6) -0.05281(6)
S1DA S -0.05281(6) 0.44719(6) 0.05281(6)
O1H O 0.15813(18) 0.34187(18) -0.34187(18)
O1A O 0.59187(18) 0.40813(18) -0.09187(18)
O1DA O -0.09187(18) 0.40813(18) 0.09187(18)
O2K O 0.3119(3) 0.3182(3) 0.2373(2)
O2J O 0.3182(3) 0.2373(2) 0.3119(3)
O2H O 0.2627(2) 0.3119(3) -0.3182(3)
O2N O 0.1881(3) 0.3182(3) -0.2373(2)
O2P O 0.1818(3) 0.2373(2) -0.3119(3)
O2I O 0.5682(3) 0.4381(3) 0.0127(2)
O2T O 0.4873(2) 0.4318(3) -0.0619(3)
O2A O 0.5619(3) 0.5127(2) -0.0682(3)
O2EA O -0.0682(3) 0.4381(3) -0.0127(2)
O2DA O 0.0127(2) 0.4318(3) 0.0619(3)
O2PA O -0.0619(3) 0.5127(2) 0.0682(3)
O3H O 0.28642(14) 0.21358(14) -0.21358(14)
O3A O 0.46358(14) 0.53642(14) 0.03642(14)
O3DA O 0.03642(14) 0.53642(14) -0.03642(14)
N1H N 0.4266(2) 0.4216(3) -0.1919(2)
N1I N 0.4419(2) 0.3284(3) 0.1766(2)
N1EA N 0.0581(2) 0.3284(3) -0.1766(2)
N1J N 0.1919(2) 0.0734(2) 0.4216(3)
N1D N 0.1766(2) 0.4419(2) 0.3284(3)
N1P N 0.3081(2) 0.0734(2) -0.4216(3)
N1U N 0.3234(2) 0.4419(2) -0.3284(3)
N1A N 0.6716(3) 0.6766(2) 0.0581(2)
N1L N 0.5784(3) 0.3081(2) 0.0734(2)
N1PA N -0.1716(3) 0.6766(2) -0.0581(2)
N1OA N -0.0784(3) 0.3081(2) -0.0734(2)
H1H H 0.4479 0.4511 -0.1752
H1I H 0.4252 0.2989 0.1979
H1EA H 0.0748 0.2989 -0.1979
H1J H 0.1752 0.0521 0.4511
H1D H 0.1979 0.4252 0.2989
H1P H 0.3248 0.0521 -0.4511
H1U H 0.3021 0.4252 -0.2989
H1A H 0.7011 0.6979 0.0748
H1L H 0.5489 0.3248 0.0521
H1PA H -0.2011 0.6979 -0.0748
H1OA H -0.0489 0.3248 -0.0521
H2H H 0.4363 0.4080 -0.2282
H2I H 0.4782 0.3420 0.1863
H2EA H 0.0218 0.3420 -0.1863
H2J H 0.2282 0.0637 0.4080
H2D H 0.1863 0.4782 0.3420
H2P H 0.2718 0.0637 -0.4080
H2U H 0.3137 0.4782 -0.3420
H2A H 0.6580 0.6863 0.0218
H2L H 0.5920 0.2718 0.0637
H2PA H -0.1580 0.6863 -0.0218
H2OA H -0.0920 0.2718 -0.0637
N2H N 0.34197(18) 0.35039(19) -0.18330(17)
N2I N 0.43330(17) 0.39961(19) 0.09197(18)
N2EA N 0.06670(17) 0.39961(19) -0.09197(18)
N2J N 0.18330(17) 0.15803(18) 0.35039(19)
N2D N 0.09197(18) 0.43330(17) 0.39961(19)
N2P N 0.31670(17) 0.15803(18) -0.35039(19)
N2U N 0.40803(18) 0.43330(17) -0.39961(19)
N2A N 0.60039(19) 0.59197(18) 0.06670(17)
N2L N 0.64961(19) 0.31670(17) 0.15803(18)
N2PA N -0.10039(19) 0.59197(18) -0.06670(17)
N2OA N -0.14961(19) 0.31670(17) -0.15803(18)
N2K N 0.35039(19) 0.18330(17) 0.15803(18)
N2N N 0.14961(19) 0.18330(17) -0.15803(18)
N2T N 0.40803(18) 0.56670(17) -0.10039(19)
N2DA N 0.09197(18) 0.56670(17) 0.10039(19)
N3H N 0.29937(17) 0.34065(17) -0.13860(17)
N3I N 0.38860(17) 0.40935(17) 0.04937(17)
N3EA N 0.11140(17) 0.40935(17) -0.04937(17)
N3J N 0.13860(17) 0.20063(17) 0.34065(17)
N3D N 0.04937(17) 0.38860(17) 0.40935(17)
N3P N 0.36140(17) 0.20063(17) -0.34065(17)
N3U N 0.45063(17) 0.38860(17) -0.40935(17)
N3A N 0.59065(17) 0.54937(17) 0.11140(17)
N3L N 0.65935(17) 0.36140(17) 0.20063(17)
N3PA N -0.09065(17) 0.54937(17) -0.11140(17)
N3OA N -0.15935(17) 0.36140(17) -0.20063(17)
N3K N 0.34065(17) 0.13860(17) 0.20063(17)
N3N N 0.15935(17) 0.13860(17) -0.20063(17)
N3T N 0.45063(17) 0.61140(17) -0.09065(17)
N3DA N 0.04937(17) 0.61140(17) 0.09065(17)
N4H N 0.30863(18) 0.37841(19) -0.09212(19)
N4I N 0.34212(19) 0.37159(19) 0.05863(18)
N4EA N 0.15788(19) 0.37159(19) -0.05863(18)
N4J N 0.09212(19) 0.19137(18) 0.37841(19)
N4D N 0.05863(18) 0.34212(19) 0.37159(19)
N4P N 0.40788(19) 0.19137(18) -0.37841(19)
N4U N 0.44137(18) 0.34212(19) -0.37159(19)
N4A N 0.62841(19) 0.55863(18) 0.15788(19)
N4L N 0.62159(19) 0.40788(19) 0.19137(18)
N4PA N -0.12841(19) 0.55863(18) -0.15788(19)
N4OA N -0.12159(19) 0.40788(19) -0.19137(18)
N4O N -0.09212(19) 0.30863(18) 0.37841(19)
N4RA N -0.05863(18) 0.15788(19) 0.37159(19)
N4KA N 0.59212(19) 0.30863(18) -0.37841(19)
N4F N 0.55863(18) 0.15788(19) -0.37159(19)
N5H N 0.35871(19) 0.41437(19) -0.10440(19)
N5I N 0.35440(19) 0.33563(19) 0.10871(19)
N5EA N 0.14560(19) 0.33563(19) -0.10871(19)
N5J N 0.10440(19) 0.14129(19) 0.41437(19)
N5D N 0.10871(19) 0.35440(19) 0.33563(19)
N5P N 0.39560(19) 0.14129(19) -0.41437(19)
N5U N 0.39129(19) 0.35440(19) -0.33563(19)
N5A N 0.66437(19) 0.60871(19) 0.14560(19)
N5L N 0.58563(19) 0.39560(19) 0.14129(19)
N5PA N -0.16437(19) 0.60871(19) -0.14560(19)
N5OA N -0.08563(19) 0.39560(19) -0.14129(19)
N5R N 0.33563(19) 0.10871(19) 0.35440(19)
N5Y N 0.16437(19) 0.10871(19) -0.35440(19)
N5HA N 0.60440(19) 0.64129(19) -0.08563(19)
N5NA N -0.10440(19) 0.64129(19) 0.08563(19)
N6H N 0.2998(2) 0.5177(2) -0.0085(3)
N6I N 0.2585(3) 0.2323(2) 0.0498(2)
N6EA N 0.2415(3) 0.2323(2) -0.0498(2)
N6D N 0.0498(2) 0.2585(3) 0.2323(2)
N6RA N -0.0498(2) 0.2415(3) 0.2323(2)
N6U N 0.4502(2) 0.2585(3) -0.2323(2)
N6F N 0.5498(2) 0.2415(3) -0.2323(2)
N6L N 0.4823(2) 0.4915(3) 0.2002(2)
N6LA N 0.4823(2) 0.5085(3) 0.2998(2)
N6OA N 0.0177(2) 0.4915(3) -0.2002(2)
N6IA N 0.0177(2) 0.5085(3) -0.2998(2)
N6R N 0.2323(2) 0.0498(2) 0.2585(3)
N6Y N 0.2677(2) 0.0498(2) -0.2585(3)
N6HA N 0.5085(3) 0.7002(2) 0.0177(2)
N6NA N -0.0085(3) 0.7002(2) -0.0177(2)
N7I N 0.2500 0.2671(3) 0.0000
N7D N 0.0000 0.2500 0.2671(3)
N7F N 0.5000 0.2500 -0.2671(3)
N7L N 0.5171(3) 0.5000 0.2500
N7IA N -0.0171(3) 0.5000 -0.2500
N7J N 0.0000 0.2500 0.4829(3)
N7P N 0.5000 0.2500 -0.4829(3)
C2H C 0.2838(8) 0.5768(7) 0.0091(7)
C2I C 0.2409(7) 0.1732(7) 0.0338(8)
C2EA C 0.2591(7) 0.1732(7) -0.0338(8)
C2D C 0.0338(8) 0.2409(7) 0.1732(7)
C2RA C -0.0338(8) 0.2591(7) 0.1732(7)
C2U C 0.4662(8) 0.2409(7) -0.1732(7)
C2F C 0.5338(8) 0.2591(7) -0.1732(7)
C2L C 0.4232(7) 0.5091(7) 0.2162(8)
C2LA C 0.4232(7) 0.4909(7) 0.2838(8)
C2OA C 0.0768(7) 0.5091(7) -0.2162(8)
C2IA C 0.0768(7) 0.4909(7) -0.2838(8)
C3H C 0.3780(2) 0.3968(3) -0.1611(2)
C3I C 0.4111(2) 0.3532(3) 0.1280(2)
C3EA C 0.0889(2) 0.3532(3) -0.1280(2)
C3J C 0.1611(2) 0.1220(2) 0.3968(3)
C3D C 0.1280(2) 0.4111(2) 0.3532(3)
C3P C 0.3389(2) 0.1220(2) -0.3968(3)
C3U C 0.3720(2) 0.4111(2) -0.3532(3)
C3A C 0.6468(3) 0.6280(2) 0.0889(2)
C3L C 0.6032(3) 0.3389(2) 0.1220(2)
C3PA C -0.1468(3) 0.6280(2) -0.0889(2)
C3OA C -0.1032(3) 0.3389(2) -0.1220(2)
N8H N 0.3229(9) 0.6288(6) 0.0135(10)
N8I N 0.2365(10) 0.1212(6) 0.0729(9)
N8EA N 0.2635(10) 0.1212(6) -0.0729(9)
N8D N 0.0729(9) 0.2365(10) 0.1212(6)
N8RA N -0.0729(9) 0.2635(10) 0.1212(6)
N8U N 0.4271(9) 0.2365(10) -0.1212(6)
N8F N 0.5729(9) 0.2635(10) -0.1212(6)
N8L N 0.3712(6) 0.5135(10) 0.1771(9)
N8LA N 0.3712(6) 0.4865(10) 0.3229(9)
N8OA N 0.1288(6) 0.5135(10) -0.1771(9)
N8IA N 0.1288(6) 0.4865(10) -0.3229(9)
H5H H 0.30844(14) 0.19156(14) -0.19156(14)
H5A H 0.44156(14) 0.55844(14) 0.05844(14)
H5DA H 0.05844(14) 0.55844(14) -0.05844(14)
C1? C 0.2229(8) 0.5776(7) 0.0213(7)
O5? O 0.1269(11) 0.6572(16) -0.0326(12)
loop_
_geom_bond_atom_site_label_1
_geom_bond_atom_site_label_2
_geom_bond_site_symmetry_1
_geom_bond_site_symmetry_2
Cd1 N4 1_555 1_555
Cd2 O2 1_555 1_555
S1 O1 1_555 1_555
O2 S1 1_555 1_555
O3 Cd2 1_555 1_555
N1 H1 1_555 1_555
H2 N1 1_555 1_555
N2 Cd2 1_555 1_555
N3 N2 1_555 1_555
N4 N3 1_555 1_555
N5 N4 1_555 1_555
N6 N7 1_555 1_555
N7 Cd1 1_555 1_555
C2 N6 1_555 1_555
C3 N1 1_555 1_555
N8 C2 1_555 1_555
O4 H3 1_555 1_555
H4 O4 1_555 1_555
H5 O3 1_555 1_555
Cd1D N4J 1_555 1_555
Cd1F N4P 1_555 1_555
Cd1A N4A 1_555 1_555
Cd1C N4PA 1_555 1_555
Cd2H O2H 1_555 1_555
Cd2I O2I 1_555 1_555
Cd2EA O2EA 1_555 1_555
Cd2K O3 1_555 1_555
Cd2N O2N 1_555 1_555
Cd2T O2T 1_555 1_555
Cd2DA N5 1_555 1_555
Cd2J O3 1_555 1_555
Cd2P O2P 1_555 1_555
Cd2A O2A 1_555 1_555
Cd2PA O2PA 1_555 1_555
Cd2Y N5J 1_555 1_555
Cd2D N2D 1_555 1_555
Cd2C N3D 1_555 1_555
Cd2B N6RA 1_555 1_555
Cd2R N5P 1_555 1_555
Cd2U N2U 1_555 1_555
Cd2S N3U 1_555 1_555
Cd2CA N6F 1_555 1_555
Cd2NA N5A 1_555 1_555
Cd2L N2L 1_555 1_555
Cd2O N3L 1_555 1_555
Cd2W N6LA 1_555 1_555
Cd2HA N5PA 1_555 1_555
Cd2OA N2OA 1_555 1_555
Cd2KA N3OA 1_555 1_555
Cd2V N6IA 1_555 1_555
S1H O1H 1_555 1_555
S1A O1A 1_555 1_555
S1DA O1DA 1_555 1_555
O2K S1 1_555 1_555
O2J S1 1_555 1_555
O2H S1H 1_555 1_555
O2N S1H 1_555 1_555
O2P S1H 1_555 1_555
O2I S1A 1_555 1_555
O2T S1A 1_555 1_555
O2A S1A 1_555 1_555
O2EA S1DA 1_555 1_555
O2DA Cd2DA 1_555 1_555
O2PA S1DA 1_555 1_555
O3H Cd2H 1_555 1_555
O3A Cd2I 1_555 1_555
O3DA Cd2EA 1_555 1_555
N1H H1H 1_555 1_555
N1I H1I 1_555 1_555
N1EA H1EA 1_555 1_555
N1J H1J 1_555 1_555
N1D H1D 1_555 1_555
N1P H1P 1_555 1_555
N1U H1U 1_555 1_555
N1A H1A 1_555 1_555
N1L H1L 1_555 1_555
N1PA H1PA 1_555 1_555
N1OA H1OA 1_555 1_555
H2H N1H 1_555 1_555
H2I N1I 1_555 1_555
H2EA N1EA 1_555 1_555
H2J N1J 1_555 1_555
H2D N1D 1_555 1_555
H2P N1P 1_555 1_555
H2U N1U 1_555 1_555
H2A N1A 1_555 1_555
H2L N1L 1_555 1_555
H2PA N1PA 1_555 1_555
H2OA N1OA 1_555 1_555
N2H Cd2H 1_555 1_555
N2I Cd2I 1_555 1_555
N2EA Cd2EA 1_555 1_555
N2J Cd2J 1_555 1_555
N2D N3D 1_555 1_555
N2P Cd2P 1_555 1_555
N2U N3U 1_555 1_555
N2A Cd2A 1_555 1_555
N2L N3L 1_555 1_555
N2PA Cd2PA 1_555 1_555
N2OA N3OA 1_555 1_555
N2K Cd2K 1_555 1_555
N2N Cd2N 1_555 1_555
N2T Cd2T 1_555 1_555
N2DA Cd2DA 1_555 1_555
N3H Cd2N 1_555 1_555
N3I Cd2T 1_555 1_555
N3EA Cd2DA 1_555 1_555
N3J Cd2 1_555 1_555
N3D N4D 1_555 1_555
N3P Cd2H 1_555 1_555
N3U N4U 1_555 1_555
N3A Cd2I 1_555 1_555
N3L N4L 1_555 1_555
N3PA Cd2EA 1_555 1_555
N3OA N4OA 1_555 1_555
N3K Cd2J 1_555 1_555
N3N Cd2P 1_555 1_555
N3T Cd2A 1_555 1_555
N3DA Cd2PA 1_555 1_555
N4H Cd1 1_555 1_555
N4I Cd1 1_555 1_555
N4EA Cd1 1_555 1_555
N4J N3J 1_555 1_555
N4D Cd1D 1_555 1_555
N4P N3P 1_555 1_555
N4U Cd1F 1_555 1_555
N4A N3A 1_555 1_555
N4L Cd1A 1_555 1_555
N4PA N3PA 1_555 1_555
N4OA Cd1C 1_555 1_555
N4O Cd1D 1_555 1_555
N4RA Cd1D 1_555 1_555
N4KA Cd1F 1_555 1_555
N4F Cd1F 1_555 1_555
N5H Cd2T 1_555 1_555
N5I Cd2K 1_555 1_555
N5EA Cd2N 1_555 1_555
N5J N4J 1_555 1_555
N5D Cd2 1_555 1_555
N5P N4P 1_555 1_555
N5U Cd2H 1_555 1_555
N5A N4A 1_555 1_555
N5L Cd2I 1_555 1_555
N5PA N4PA 1_555 1_555
N5OA Cd2EA 1_555 1_555
N5R Cd2J 1_555 1_555
N5Y Cd2P 1_555 1_555
N5HA Cd2A 1_555 1_555
N5NA Cd2PA 1_555 1_555
N6H N7 1_555 1_555
N6I Cd2K 1_555 1_555
N6EA Cd2N 1_555 1_555
N6D Cd2 1_555 1_555
N6RA N7D 1_555 1_555
N6U Cd2H 1_555 1_555
N6F N7F 1_555 1_555
N6L Cd2I 1_555 1_555
N6LA N7L 1_555 1_555
N6OA Cd2EA 1_555 1_555
N6IA N7IA 1_555 1_555
N6R Cd2J 1_555 1_555
N6Y Cd2P 1_555 1_555
N6HA Cd2A 1_555 1_555
N6NA Cd2PA 1_555 1_555
N7I Cd1 1_555 1_555
N7D Cd1D 1_555 1_555
N7F Cd1F 1_555 1_555
N7L Cd1A 1_555 1_555
N7IA Cd1C 1_555 1_555
N7J Cd1D 1_555 1_555
N7P Cd1F 1_555 1_555
C2H C2 1_555 1_555
C2I N6I 1_555 1_555
C2EA N6EA 1_555 1_555
C2D N6D 1_555 1_555
C2RA N6RA 1_555 1_555
C2U N6U 1_555 1_555
C2F N6F 1_555 1_555
C2L N6L 1_555 1_555
C2LA N6LA 1_555 1_555
C2OA N6OA 1_555 1_555
C2IA N6IA 1_555 1_555
C3H N1H 1_555 1_555
C3I N1I 1_555 1_555
C3EA N1EA 1_555 1_555
C3J N1J 1_555 1_555
C3D N1D 1_555 1_555
C3P N1P 1_555 1_555
C3U N1U 1_555 1_555
C3A N1A 1_555 1_555
C3L N1L 1_555 1_555
C3PA N1PA 1_555 1_555
C3OA N1OA 1_555 1_555
N8H C2H 1_555 1_555
N8I C2I 1_555 1_555
N8EA C2EA 1_555 1_555
N8D C2D 1_555 1_555
N8RA C2RA 1_555 1_555
N8U C2U 1_555 1_555
N8F C2F 1_555 1_555
N8L C2L 1_555 1_555
N8LA C2LA 1_555 1_555
N8OA C2OA 1_555 1_555
N8IA C2IA 1_555 1_555
H5H O3H 1_555 1_555
H5A O3A 1_555 1_555
H5DA O3DA 1_555 1_555
N2 C3 1_555 1_555
N3 Cd2K 1_555 1_555
N5 C3 1_555 1_555
N6 Cd2DA 1_555 1_555
Cd2K O2K 1_555 1_555
Cd2N O3H 1_555 1_555
Cd2T O3A 1_555 1_555
Cd2T N6H 1_555 1_555
Cd2DA O3DA 1_555 1_555
Cd2J O2J 1_555 1_555
Cd2P O3H 1_555 1_555
Cd2A O3A 1_555 1_555
Cd2PA O3DA 1_555 1_555
S1DA O2DA 1_555 1_555
N2H N3H 1_555 1_555
N2H C3H 1_555 1_555
N2I N3I 1_555 1_555
N2I C3I 1_555 1_555
N2EA N3EA 1_555 1_555
N2EA C3EA 1_555 1_555
N2J N3J 1_555 1_555
N2J C3J 1_555 1_555
N2D C3D 1_555 1_555
N2P N3P 1_555 1_555
N2P C3P 1_555 1_555
N2U C3U 1_555 1_555
N2A N3A 1_555 1_555
N2A C3A 1_555 1_555
N2L C3L 1_555 1_555
N2PA N3PA 1_555 1_555
N2PA C3PA 1_555 1_555
N2OA C3OA 1_555 1_555
N2K N3K 1_555 1_555
N2N N3N 1_555 1_555
N2T N3T 1_555 1_555
N2DA N3DA 1_555 1_555
N3H N4H 1_555 1_555
N3I N4I 1_555 1_555
N3EA N4EA 1_555 1_555
N4H N5H 1_555 1_555
N4I N5I 1_555 1_555
N4EA N5EA 1_555 1_555
N4D N5D 1_555 1_555
N4U N5U 1_555 1_555
N4L N5L 1_555 1_555
N4OA N5OA 1_555 1_555
N5H C3H 1_555 1_555
N5I C3I 1_555 1_555
N5EA C3EA 1_555 1_555
N5J C3J 1_555 1_555
N5D C3D 1_555 1_555
N5P C3P 1_555 1_555
N5U C3U 1_555 1_555
N5A C3A 1_555 1_555
N5L C3L 1_555 1_555
N5PA C3PA 1_555 1_555
N5OA C3OA 1_555 1_555
N6H C2H 1_555 1_555
N6I N7I 1_555 1_555
N6EA N7I 1_555 1_555
N6D N7D 1_555 1_555
N6U N7F 1_555 1_555
N6L N7L 1_555 1_555
N6OA N7IA 1_555 1_555
C2I C2EA 1_555 1_555
C2D C2RA 1_555 1_555
C2U C2F 1_555 1_555
C2L C2LA 1_555 1_555
C2OA C2IA 1_555 1_555

#END
