
#######################################################################
#
#                 Cambridge Crystallographic Data Centre
#                                CCDC 
#
#######################################################################
#
# If this CIF has been generated from an entry in the Cambridge 
# Structural Database, then it will include bibliographic, chemical, 
# crystal, experimental, refinement or atomic coordinate data resulting 
# from the CCDC's data processing and validation procedures.
#
#######################################################################

data_CUKWIP
_symmetry_cell_setting           triclinic
_symmetry_space_group_name_H-M   'P -1'
_symmetry_Int_Tables_number      2
_space_group_name_Hall           '-P 1'
loop_
_symmetry_equiv_pos_site_id
_symmetry_equiv_pos_as_xyz
1 x,y,z
2 -x,-y,-z
_cell_length_a                   10.7510(6)
_cell_length_b                   12.8281(7)
_cell_length_c                   19.6230(14)
_cell_angle_alpha                105.9970(10)
_cell_angle_beta                 94.8720(10)
_cell_angle_gamma                107.6900(10)
_cell_volume                     2436.09
loop_
_atom_site_label
_atom_site_type_symbol
_atom_site_fract_x
_atom_site_fract_y
_atom_site_fract_z
C1 C 0.3544(4) 0.2588(3) 0.5786(2)
C2 C 0.1312(5) 0.3321(4) 0.5300(2)
C3 C 0.3363(4) 0.3686(3) 0.6208(2)
C4 C 0.2412(4) 0.4086(4) 0.5937(2)
C5 C 0.2408(5) 0.5174(4) 0.6309(2)
H1 H 0.1794 0.5454 0.6127
C6 C 0.3299(4) 0.5857(4) 0.6948(2)
H2 H 0.3288 0.6586 0.7190
C7 C 0.4202(4) 0.5431(3) 0.72139(19)
C8 C 0.4239(4) 0.4361(3) 0.68512(19)
H3 H 0.4855 0.4088 0.7038
C9 C 0.6316(4) 0.6167(3) 0.7967(2)
C10 C 0.7089(5) 0.6460(4) 0.7497(2)
H4 H 0.6697 0.6597 0.7105
C11 C 0.8379(5) 0.6571(5) 0.7549(3)
H5 H 0.8859 0.6771 0.7204
C12 C 0.8964(5) 0.6377(5) 0.8129(3)
H6 H 0.9862 0.6465 0.8191
C13 C 0.8215(4) 0.6051(4) 0.8622(3)
H7 H 0.8611 0.5896 0.9004
C14 C 0.6880(4) 0.5950(3) 0.8558(2)
C15 C 0.6139(3) 0.5626(3) 0.91274(19)
C16 C 0.8371(4) 0.2096(4) 0.3588(2)
C17 C 0.5508(4) 0.0602(3) 0.33659(19)
C18 C 0.7539(4) 0.1464(3) 0.2854(2)
C19 C 0.6196(4) 0.0862(3) 0.27613(19)
C20 C 0.5400(4) 0.0434(3) 0.2075(2)
H8 H 0.4496 0.0035 0.2014
C21 C 0.5953(4) 0.0604(3) 0.1490(2)
C22 C 0.7304(4) 0.1177(4) 0.1574(2)
H9 H 0.7682 0.1278 0.1177
C23 C 0.8075(4) 0.1593(4) 0.2243(2)
H10 H 0.8982 0.1973 0.2296
C24 C 0.3871(4) 0.0063(3) 0.07274(19)
C25 C 0.3494(4) 0.1019(4) 0.0864(2)
H11 H 0.4130 0.1754 0.1014
C26 C 0.2157(5) 0.0873(4) 0.0775(3)
H12 H 0.1888 0.1515 0.0870
C27 C 0.1223(4) -0.0215(4) 0.0547(2)
H13 H 0.0324 -0.0310 0.0478
C28 C 0.1621(4) -0.1174(4) 0.0419(2)
H14 H 0.0984 -0.1908 0.0276
C29 C 0.2954(4) -0.1048(3) 0.0502(2)
C30 C 0.3384(4) -0.2084(3) 0.0361(2)
C31 C 0.0632(4) -0.0029(4) 0.3797(2)
H15 H 0.0635 0.0054 0.4283
C32 C -0.0550(4) -0.0661(4) 0.3316(2)
H16 H -0.1308 -0.1001 0.3480
C33 C -0.0607(4) -0.0788(4) 0.2587(2)
C34 C 0.0562(5) -0.0230(6) 0.2399(2)
H17 H 0.0580 -0.0268 0.1920
C35 C 0.1702(5) 0.0381(5) 0.2911(2)
H18 H 0.2468 0.0752 0.2764
C36 C -0.4044(5) -0.2810(5) 0.1630(3)
H19 H -0.4787 -0.3279 0.1746
C37 C -0.2959(5) -0.2175(6) 0.2169(3)
H20 H -0.2989 -0.2222 0.2632
C38 C -0.1830(4) -0.1470(4) 0.2034(2)
C39 C -0.1929(6) -0.1441(6) 0.1344(3)
H21 H -0.1206 -0.0976 0.1211
C40 C -0.3056(5) -0.2073(6) 0.0843(3)
H22 H -0.3083 -0.1980 0.0388
C41 C 0.3340(4) -0.2306(4) 0.2782(2)
H23 H 0.4184 -0.2062 0.2673
C42 C 0.2285(4) -0.2942(4) 0.2226(2)
H24 H 0.2422 -0.3127 0.1752
C43 C 0.1011(4) -0.3309(4) 0.2372(2)
C44 C 0.0883(4) -0.3020(4) 0.3090(2)
H25 H 0.0052 -0.3258 0.3216
C45 C 0.1989(4) -0.2381(4) 0.3614(2)
H26 H 0.1881 -0.2188 0.4093
C46 C -0.2398(5) -0.5288(5) 0.1378(2)
H27 H -0.3152 -0.5758 0.1484
C47 C -0.1317(5) -0.4677(6) 0.1922(3)
H28 H -0.1359 -0.4731 0.2383
C48 C -0.0170(4) -0.3985(4) 0.1790(2)
C49 C -0.0157(4) -0.3996(4) 0.1087(2)
H29 H 0.0609 -0.3582 0.0960
C50 C -0.1287(4) -0.4628(5) 0.0576(2)
H30 H -0.1255 -0.4625 0.0105
N1 N 0.1760(3) 0.0466(3) 0.36056(17)
N2 N -0.4104(3) -0.2801(3) 0.09569(17)
N3 N 0.3211(3) -0.2023(3) 0.34738(17)
N4 N -0.2427(3) -0.5243(3) 0.07102(17)
O1 O 0.0454(4) 0.2526(4) 0.5379(2)
O2 O 0.1340(4) 0.3598(3) 0.4734(2)
H31 H 0.2078 0.3887 0.4628
O3 O 0.3057(4) 0.2211(3) 0.51269(16)
O4 O 0.4188(3) 0.2149(2) 0.61073(14)
O5 O 0.4996(3) 0.6096(2) 0.78850(13)
O6 O 0.5291(3) 0.6076(3) 0.93177(14)
O7 O 0.6462(3) 0.4932(3) 0.93793(17)
O8 O 0.5861(3) -0.0006(2) 0.36894(14)
O9 O 0.4581(3) 0.0997(3) 0.34719(15)
O10 O 0.7873(3) 0.2347(3) 0.41176(15)
O11 O 0.9645(3) 0.2386(3) 0.36067(17)
O12 O 0.5233(3) 0.0212(2) 0.08037(14)
O13 O 0.2923(3) -0.2817(3) 0.06638(16)
O14 O 0.4173(3) -0.2214(3) -0.00586(17)
O15 O 0.5875(3) 0.2149(2) 0.49955(15)
H32 H 0.6170 0.2178 0.4612
H33 H 0.6052 0.2819 0.5289
O16 O 0.3812(2) 0.0074(2) 0.47433(12)
H34 H 0.3285 0.0088 0.5042
O18 O 0.3895(6) 0.2920(5) 0.4105(3)
H37 H 0.3377 0.3164 0.4360
H38 H 0.4117 0.3348 0.3841
Co1 Co 0.36544(5) 0.12791(5) 0.43032(3)
Co2 Co 0.48354(5) -0.10047(4) 0.43094(2)
Co3 Co 0.41629(5) 0.62266(4) 1.01047(3)
N2_2 N 0.5896(3) 0.7199(3) 1.09569(17)
N4A N 0.2427(3) 0.5243(3) 0.92898(17)
O4A O 0.5812(3) -0.2149(2) 0.38927(14)
O7A O 0.3538(3) 0.5068(3) 1.06207(17)
O13_2 O 0.2923(3) 0.7183(3) 1.06638(16)
O14_2 O 0.4173(3) 0.7786(3) 0.99414(17)
O15A O 0.4125(3) -0.2149(2) 0.50045(15)
H32A H 0.3830 -0.2178 0.5388
H33A H 0.3948 -0.2819 0.4711
O16A O 0.6188(2) -0.0074(2) 0.52567(12)
H34A H 0.6715 -0.0088 0.4958
Co2A Co 0.51646(5) 0.10047(4) 0.56906(2)
Co3_2 Co -0.58371(5) -0.37734(4) 0.01047(3)
Co3A Co -0.41629(5) -0.62266(4) -0.01047(3)
Co3A_2 Co 0.58371(5) 0.37734(4) 0.98953(3)
Co3_3 Co 0.41629(5) -0.37734(4) 0.01047(3)
O17 O 0.8405(3) 0.0579(3) 0.47145(17)
H35 H 0.9062 0.1206 0.4855
H36 H 0.7948 0.0547 0.4323
O19 O 0.6579(11) 0.4483(9) 0.5589(6)
H39 H 0.7229 0.4367 0.5748
H40 H 0.6479 0.4402 0.5094
O20 O 0.1063(15) 0.5533(13) 0.4492(8)
H41 H 0.0941 0.4886 0.4101
H42 H 0.0282 0.5453 0.4593
loop_
_geom_bond_atom_site_label_1
_geom_bond_atom_site_label_2
_geom_bond_site_symmetry_1
_geom_bond_site_symmetry_2
C1 C3 1_555 1_555
C2 C4 1_555 1_555
C3 C4 1_555 1_555
C4 C5 1_555 1_555
C5 H1 1_555 1_555
C6 C5 1_555 1_555
H2 C6 1_555 1_555
C7 C6 1_555 1_555
C8 C3 1_555 1_555
H3 C8 1_555 1_555
C9 C10 1_555 1_555
C10 H4 1_555 1_555
C11 C10 1_555 1_555
H5 C11 1_555 1_555
C12 C11 1_555 1_555
H6 C12 1_555 1_555
C13 C12 1_555 1_555
H7 C13 1_555 1_555
C14 C9 1_555 1_555
C15 C14 1_555 1_555
C16 C18 1_555 1_555
C17 C19 1_555 1_555
C18 C19 1_555 1_555
C19 C20 1_555 1_555
C20 H8 1_555 1_555
C21 C20 1_555 1_555
C22 C21 1_555 1_555
H9 C22 1_555 1_555
C23 C18 1_555 1_555
H10 C23 1_555 1_555
C24 C25 1_555 1_555
C25 H11 1_555 1_555
C26 C25 1_555 1_555
H12 C26 1_555 1_555
C27 C26 1_555 1_555
H13 C27 1_555 1_555
C28 C27 1_555 1_555
H14 C28 1_555 1_555
C29 C24 1_555 1_555
C30 C29 1_555 1_555
C31 H15 1_555 1_555
C32 C31 1_555 1_555
H16 C32 1_555 1_555
C33 C32 1_555 1_555
C34 C33 1_555 1_555
H17 C34 1_555 1_555
C35 C34 1_555 1_555
H18 C35 1_555 1_555
C36 H19 1_555 1_555
C37 C36 1_555 1_555
H20 C37 1_555 1_555
C38 C33 1_555 1_555
C39 C38 1_555 1_555
H21 C39 1_555 1_555
C40 C39 1_555 1_555
H22 C40 1_555 1_555
C41 H23 1_555 1_555
C42 C41 1_555 1_555
H24 C42 1_555 1_555
C43 C42 1_555 1_555
C44 C43 1_555 1_555
H25 C44 1_555 1_555
C45 C44 1_555 1_555
H26 C45 1_555 1_555
C46 H27 1_555 1_555
C47 C46 1_555 1_555
H28 C47 1_555 1_555
C48 C43 1_555 1_555
C49 C48 1_555 1_555
H29 C49 1_555 1_555
C50 C49 1_555 1_555
H30 C50 1_555 1_555
N1 C31 1_555 1_555
N2 C36 1_555 1_555
N3 C41 1_555 1_555
N4 C46 1_555 1_555
O1 C2 1_555 1_555
O2 C2 1_555 1_555
H31 O2 1_555 1_555
O3 C1 1_555 1_555
O4 C1 1_555 1_555
O5 C7 1_555 1_555
O6 C15 1_555 1_555
O7 C15 1_555 1_555
O8 C17 1_555 1_555
O9 C17 1_555 1_555
O10 C16 1_555 1_555
O11 C16 1_555 1_555
O12 C21 1_555 1_555
O13 C30 1_555 1_555
O14 C30 1_555 1_555
O15 H32 1_555 1_555
H33 O15 1_555 1_555
O16 H34 1_555 1_555
O17 H35 1_555 1_555
H36 O17 1_555 1_555
O18 H37 1_555 1_555
H38 O18 1_555 1_555
O19 H39 1_555 1_555
H40 O19 1_555 1_555
O20 H41 1_555 1_555
H42 O20 1_555 1_555
Co1 N1 1_555 1_555
Co2 N3 1_555 1_555
Co3 O6 1_555 1_555
N2_2 Co3 1_555 1_555
N4A Co3 1_555 1_555
O4A Co2 1_555 1_555
O7A Co3 1_555 1_555
O13_2 Co3 1_555 1_555
O14_2 Co3 1_555 1_555
O15A Co2 1_555 1_555
H32A O15A 1_555 1_555
H33A O15A 1_555 1_555
O16A Co2 1_555 1_555
H34A O16A 1_555 1_555
Co2A O4 1_555 1_555
Co3_2 N2 1_555 1_555
Co3A N4 1_555 1_555
Co3A_2 O7 1_555 1_555
Co3_3 O13 1_555 1_555
C7 C8 1_555 1_555
C9 O5 1_555 1_555
C13 C14 1_555 1_555
C22 C23 1_555 1_555
C24 O12 1_555 1_555
C28 C29 1_555 1_555
C35 N1 1_555 1_555
C37 C38 1_555 1_555
C40 N2 1_555 1_555
C45 N3 1_555 1_555
C47 C48 1_555 1_555
C50 N4 1_555 1_555
O3 Co1 1_555 1_555
O8 Co2 1_555 1_555
O9 Co1 1_555 1_555
O14 Co3_3 1_555 1_555
O15 Co1 1_555 1_555
O15 Co2A 1_555 1_555
O16 Co1 1_555 1_555
O16 Co2 1_555 1_555
O16 Co2A 1_555 1_555
O18 Co1 1_555 1_555
O16A Co2A 1_555 1_555

#END
