
#######################################################################
#
#                 Cambridge Crystallographic Data Centre
#                                CCDC 
#
#######################################################################
#
# If this CIF has been generated from an entry in the Cambridge 
# Structural Database, then it will include bibliographic, chemical, 
# crystal, experimental, refinement or atomic coordinate data resulting 
# from the CCDC's data processing and validation procedures.
#
#######################################################################

data_CUKWAH
_symmetry_cell_setting           triclinic
_symmetry_space_group_name_H-M   'P -1'
_symmetry_Int_Tables_number      2
_space_group_name_Hall           '-P 1'
loop_
_symmetry_equiv_pos_site_id
_symmetry_equiv_pos_as_xyz
1 x,y,z
2 -x,-y,-z
_cell_length_a                   10.7673(10)
_cell_length_b                   11.7146(11)
_cell_length_c                   14.4532(13)
_cell_angle_alpha                110.2710(10)
_cell_angle_beta                 94.099(2)
_cell_angle_gamma                94.9960(10)
_cell_volume                     1693.53
loop_
_atom_site_label
_atom_site_type_symbol
_atom_site_fract_x
_atom_site_fract_y
_atom_site_fract_z
C1 C 0.2174(2) 0.3832(2) 0.09128(16)
C2 C 0.21566(19) 0.3222(2) 0.16797(15)
C3 C 0.3021(2) 0.2416(2) 0.16786(17)
H1 H 0.3580 0.2252 0.1201
C4 C 0.3072(2) 0.1849(2) 0.2370(2)
H2 H 0.3641 0.1289 0.2346
C5 C 0.2273(2) 0.2121(2) 0.30931(19)
H3 H 0.2306 0.1759 0.3573
C6 C 0.14256(19) 0.2931(2) 0.31036(15)
C7 C 0.13189(18) 0.34833(19) 0.24009(14)
C8 C 0.03739(19) 0.43907(19) 0.25004(14)
C9 C -0.0389(2) 0.2649(2) 0.38914(16)
C10 C -0.1059(2) 0.3147(2) 0.46849(17)
H4 H -0.0727 0.3863 0.5203
C11 C -0.2227(2) 0.2571(2) 0.47006(19)
H5 H -0.2686 0.2902 0.5232
C12 C -0.2720(2) 0.1507(2) 0.39345(17)
C13 C -0.2003(2) 0.0994(2) 0.31780(17)
H6 H -0.2312 0.0254 0.2679
C14 C -0.0835(2) 0.1555(2) 0.31463(17)
H7 H -0.0358 0.1202 0.2632
C15 C -0.4015(2) 0.0924(2) 0.3899(2)
C16 C -0.2710(2) 0.5192(2) 0.38808(16)
H8 H -0.1839 0.5322 0.3975
C17 C -0.3344(2) 0.5192(2) 0.46770(16)
H9 H -0.2896 0.5309 0.5284
C18 C -0.46399(18) 0.50189(18) 0.45787(14)
C19 C -0.5221(2) 0.4873(2) 0.36543(16)
H10 H -0.6092 0.4775 0.3547
C20 C -0.4528(2) 0.4872(2) 0.28925(16)
H11 H -0.4953 0.4764 0.2280
C21 C -0.3353(2) 0.2208(2) 0.15345(16)
H12 H -0.2924 0.2464 0.2167
C22 C -0.4006(2) 0.10527(19) 0.11621(16)
H13 H -0.4025 0.0560 0.1547
C23 C -0.46373(17) 0.06214(18) 0.02144(15)
C24 C -0.4568(2) 0.1427(2) -0.02995(17)
H14 H -0.4968 0.1188 -0.0941
C25 C -0.3911(2) 0.2576(2) 0.01335(17)
H15 H -0.3894 0.3099 -0.0226
N1 N -0.32987(15) 0.29785(16) 0.10419(13)
N2 N -0.32771(15) 0.50164(15) 0.29854(12)
O1 O 0.31716(17) 0.3896(2) 0.05437(15)
O2 O 0.12057(15) 0.42443(17) 0.07134(13)
O3 O 0.07927(15) 0.55000(14) 0.28947(13)
O4 O -0.07499(12) 0.39703(13) 0.22174(11)
O5 O 0.07250(14) 0.33241(15) 0.39142(10)
O6 O -0.45119(17) 0.00458(18) 0.31943(15)
O7 O -0.45508(16) 0.14630(19) 0.46884(15)
H24 H -0.5291 0.1083 0.4634
O8 O -0.11375(15) 0.64893(13) 0.24243(12)
H25 H -0.0956 0.6874 0.2011
H26 H -0.0376 0.6305 0.2684
O9 O -0.13426(13) 0.43848(14) 0.04101(11)
H27 H -0.0509 0.4194 0.0505
H28 H -0.1281 0.4888 0.0076
O10 O -0.35301(14) 0.56096(15) 0.10879(12)
H29 H -0.4027 0.6247 0.1458
H30 H -0.3384 0.5721 0.0582
Co1 Co -0.22362(2) 0.47810(2) 0.171235(18)
C1A C -1.2174(2) -0.3832(2) -0.09128(16)
C2A C -1.21566(19) -0.3222(2) -0.16797(15)
C3A C -1.3021(2) -0.2416(2) -0.16786(17)
H1A H -1.3580 -0.2252 -0.1201
C4A C -1.3072(2) -0.1849(2) -0.2370(2)
H2A H -1.3641 -0.1289 -0.2346
C5A C -1.2273(2) -0.2121(2) -0.30931(19)
H3A H -1.2306 -0.1759 -0.3573
C6A C -1.14256(19) -0.2931(2) -0.31036(15)
C7A C -1.13189(18) -0.34833(19) -0.24009(14)
C8A C -1.03739(19) -0.43907(19) -0.25004(14)
C9A C -0.9611(2) -0.2649(2) -0.38914(16)
C10A C -0.8941(2) -0.3147(2) -0.46849(17)
H4A H -0.9273 -0.3863 -0.5203
C11A C -0.7773(2) -0.2571(2) -0.47006(19)
H5A H -0.7314 -0.2902 -0.5232
C12A C -0.7280(2) -0.1507(2) -0.39345(17)
C13A C -0.7997(2) -0.0994(2) -0.31780(17)
H6A H -0.7688 -0.0254 -0.2679
C14A C -0.9165(2) -0.1555(2) -0.31463(17)
H7A H -0.9642 -0.1202 -0.2632
C15A C -0.5985(2) -0.0924(2) -0.3899(2)
C16A C -0.7290(2) 0.4808(2) 0.61192(16)
H8A H -0.8161 0.4678 0.6025
C17A C -0.6656(2) 0.4808(2) 0.53230(16)
H9A H -0.7104 0.4691 0.4716
C18A C -0.53601(18) 0.49811(18) 0.54213(14)
C19A C -0.4779(2) 0.5127(2) 0.63457(16)
H10A H -0.3908 0.5225 0.6453
C20A C -0.5472(2) 0.5128(2) 0.71075(16)
H11A H -0.5047 0.5236 0.7720
C21A C -0.6647(2) -0.2208(2) -0.15345(16)
H12A H -0.7076 -0.2464 -0.2167
C22A C -0.5994(2) -0.10527(19) -0.11621(16)
H13A H -0.5975 -0.0560 -0.1547
C23A C -0.53627(17) -0.06214(18) -0.02144(15)
C24A C -0.5432(2) -0.1427(2) 0.02995(17)
H14A H -0.5032 -0.1188 0.0941
C25A C -0.6089(2) -0.2576(2) -0.01335(17)
H15A H -0.6106 -0.3099 0.0226
N1A N -0.67013(15) -0.29785(16) -0.10419(13)
N2A N -0.67229(15) 0.49836(15) 0.70146(12)
N2A_2 N -0.67229(15) -0.50164(15) -0.29854(12)
O1A O -1.31716(17) -0.3896(2) -0.05437(15)
O2A O -1.12057(15) -0.42443(17) -0.07134(13)
O3A O -1.07927(15) -0.55000(14) -0.28947(13)
O4A O -0.92501(12) -0.39703(13) -0.22174(11)
O5A O -1.07250(14) -0.33241(15) -0.39142(10)
O6A O -0.54881(17) -0.00458(18) -0.31943(15)
O7A O -0.54492(16) -0.14630(19) -0.46884(15)
H24A H -0.4709 -0.1083 -0.4634
O8A O -0.88625(15) -0.64893(13) -0.24243(12)
H25A H -0.9044 -0.6874 -0.2011
H26A H -0.9624 -0.6305 -0.2684
O9A O -0.86574(13) -0.43848(14) -0.04101(11)
H27A H -0.9491 -0.4194 -0.0505
H28A H -0.8719 -0.4888 -0.0076
O10A O -0.64699(14) -0.56096(15) -0.10879(12)
H29A H -0.5973 -0.6247 -0.1458
H30A H -0.6616 -0.5721 -0.0582
Co1A Co -0.77638(2) -0.47810(2) -0.171235(18)
Co1A_2 Co -0.77638(2) 0.52190(2) 0.828765(18)
C26 C -0.1422(3) -0.1446(3) 0.1089(2)
H16 H -0.2228 -0.1648 0.1220
C27 C -0.1280(3) -0.0701(2) 0.0527(2)
H17 H -0.1975 -0.0412 0.0303
C28 C -0.0100(2) -0.0391(2) 0.03030(18)
C29 C 0.0867(3) -0.0861(3) 0.0670(3)
H18 H 0.1681 -0.0695 0.0536
C30 C 0.0636(4) -0.1582(3) 0.1239(3)
H19 H 0.1315 -0.1868 0.1488
N3 N -0.0497(3) -0.1886(2) 0.14487(19)
C26A C 0.1422(3) 0.1446(3) -0.1089(2)
H16A H 0.2228 0.1648 -0.1220
C27A C 0.1280(3) 0.0701(2) -0.0527(2)
H17A H 0.1975 0.0412 -0.0303
C28A C 0.0100(2) 0.0391(2) -0.03030(18)
C29A C -0.0867(3) 0.0861(3) -0.0670(3)
H18A H -0.1681 0.0695 -0.0536
C30A C -0.0636(4) 0.1582(3) -0.1239(3)
H19A H -0.1315 0.1868 -0.1488
N3A N 0.0497(3) 0.1886(2) -0.14487(19)
C31 C 0.2652(2) 0.1360(2) 0.5464(2)
H20 H 0.3138 0.2047 0.5918
C32 C 0.1416(2) 0.1153(2) 0.55984(19)
H21 H 0.1082 0.1694 0.6131
C33 C 0.0668(2) 0.0134(2) 0.49372(16)
C34 C 0.1230(2) -0.0624(2) 0.41567(19)
H22 H 0.0770 -0.1319 0.3689
C35 C 0.2481(2) -0.0334(3) 0.4082(2)
H23 H 0.2847 -0.0847 0.3554
N4 N 0.31850(18) 0.0637(2) 0.47255(17)
C31A C -0.2652(2) -0.1360(2) 0.4536(2)
H20A H -0.3138 -0.2047 0.4082
C32A C -0.1416(2) -0.1153(2) 0.44016(19)
H21A H -0.1082 -0.1694 0.3869
C33A C -0.0668(2) -0.0134(2) 0.50628(16)
C34A C -0.1230(2) 0.0624(2) 0.58433(19)
H22A H -0.0770 0.1319 0.6311
C35A C -0.2481(2) 0.0334(3) 0.5918(2)
H23A H -0.2847 0.0847 0.6446
N4A N -0.31850(18) -0.0637(2) 0.52745(17)
O11 O 0.4806(2) 0.2552(2) 0.77318(17)
H31 H 0.5597 0.2749 0.7675
H32 H 0.4605 0.1797 0.7474
O12 O 0.7389(2) 0.3241(2) 0.7804(2)
H33 H 0.7498 0.3572 0.7379
H34 H 0.7542 0.3767 0.8380
loop_
_geom_bond_atom_site_label_1
_geom_bond_atom_site_label_2
_geom_bond_site_symmetry_1
_geom_bond_site_symmetry_2
C1 C2 1_555 1_555
C2 C3 1_555 1_555
C3 H1 1_555 1_555
C4 C3 1_555 1_555
H2 C4 1_555 1_555
C5 C4 1_555 1_555
H3 C5 1_555 1_555
C6 C5 1_555 1_555
C7 C2 1_555 1_555
C8 C7 1_555 1_555
C9 C10 1_555 1_555
C10 H4 1_555 1_555
C11 C10 1_555 1_555
H5 C11 1_555 1_555
C12 C11 1_555 1_555
C13 C12 1_555 1_555
H6 C13 1_555 1_555
C14 C9 1_555 1_555
H7 C14 1_555 1_555
C15 C12 1_555 1_555
C16 H8 1_555 1_555
C17 C16 1_555 1_555
H9 C17 1_555 1_555
C18 C17 1_555 1_555
C19 C18 1_555 1_555
H10 C19 1_555 1_555
C20 C19 1_555 1_555
H11 C20 1_555 1_555
C21 H12 1_555 1_555
C22 C21 1_555 1_555
H13 C22 1_555 1_555
C23 C22 1_555 1_555
C24 C23 1_555 1_555
H14 C24 1_555 1_555
C25 C24 1_555 1_555
H15 C25 1_555 1_555
C26 H16 1_555 1_555
C27 C26 1_555 1_555
H17 C27 1_555 1_555
C28 C27 1_555 1_555
C29 C28 1_555 1_555
H18 C29 1_555 1_555
C30 C29 1_555 1_555
H19 C30 1_555 1_555
C31 H20 1_555 1_555
C32 C31 1_555 1_555
H21 C32 1_555 1_555
C33 C32 1_555 1_555
C34 C33 1_555 1_555
H22 C34 1_555 1_555
C35 C34 1_555 1_555
H23 C35 1_555 1_555
N1 C21 1_555 1_555
N2 C16 1_555 1_555
N3 C26 1_555 1_555
N4 C31 1_555 1_555
O1 C1 1_555 1_555
O2 C1 1_555 1_555
O3 C8 1_555 1_555
O4 C8 1_555 1_555
O5 C6 1_555 1_555
O6 C15 1_555 1_555
O7 C15 1_555 1_555
H24 O7 1_555 1_555
O8 H25 1_555 1_555
H26 O8 1_555 1_555
O9 H27 1_555 1_555
H28 O9 1_555 1_555
O10 H29 1_555 1_555
H30 O10 1_555 1_555
O11 H31 1_555 1_555
H32 O11 1_555 1_555
O12 H33 1_555 1_555
H34 O12 1_555 1_555
Co1 N1 1_555 1_555
C1A C2A 1_555 1_555
C2A C3A 1_555 1_555
C3A H1A 1_555 1_555
C4A C3A 1_555 1_555
H2A C4A 1_555 1_555
C5A C4A 1_555 1_555
H3A C5A 1_555 1_555
C6A C5A 1_555 1_555
C7A C2A 1_555 1_555
C8A C7A 1_555 1_555
C9A C10A 1_555 1_555
C10A H4A 1_555 1_555
C11A C10A 1_555 1_555
H5A C11A 1_555 1_555
C12A C11A 1_555 1_555
C13A C12A 1_555 1_555
H6A C13A 1_555 1_555
C14A C9A 1_555 1_555
H7A C14A 1_555 1_555
C15A C12A 1_555 1_555
C16A H8A 1_555 1_555
C17A C16A 1_555 1_555
H9A C17A 1_555 1_555
C18A C18 1_555 1_555
C19A C18A 1_555 1_555
H10A C19A 1_555 1_555
C20A C19A 1_555 1_555
H11A C20A 1_555 1_555
C21A H12A 1_555 1_555
C22A C21A 1_555 1_555
H13A C22A 1_555 1_555
C23A C23 1_555 1_555
C24A C23A 1_555 1_555
H14A C24A 1_555 1_555
C25A C24A 1_555 1_555
H15A C25A 1_555 1_555
C26A H16A 1_555 1_555
C27A C26A 1_555 1_555
H17A C27A 1_555 1_555
C28A C28 1_555 1_555
C29A C28A 1_555 1_555
H18A C29A 1_555 1_555
C30A C29A 1_555 1_555
H19A C30A 1_555 1_555
C31A H20A 1_555 1_555
C32A C31A 1_555 1_555
H21A C32A 1_555 1_555
C33A C33 1_555 1_555
C34A C33A 1_555 1_555
H22A C34A 1_555 1_555
C35A C34A 1_555 1_555
H23A C35A 1_555 1_555
N1A C21A 1_555 1_555
N2A C16A 1_555 1_555
N2A_2 Co1A 1_555 1_555
N3A C26A 1_555 1_555
N4A C31A 1_555 1_555
O1A C1A 1_555 1_555
O2A C1A 1_555 1_555
O3A C8A 1_555 1_555
O4A C8A 1_555 1_555
O5A C6A 1_555 1_555
O6A C15A 1_555 1_555
O7A C15A 1_555 1_555
H24A O7A 1_555 1_555
O8A H25A 1_555 1_555
H26A O8A 1_555 1_555
O9A H27A 1_555 1_555
H28A O9A 1_555 1_555
O10A H29A 1_555 1_555
H30A O10A 1_555 1_555
Co1A N1A 1_555 1_555
Co1A_2 N2A 1_555 1_555
C6 C7 1_555 1_555
C9 O5 1_555 1_555
C13 C14 1_555 1_555
C20 N2 1_555 1_555
C25 N1 1_555 1_555
C30 N3 1_555 1_555
C35 N4 1_555 1_555
N2 Co1 1_555 1_555
O4 Co1 1_555 1_555
O8 Co1 1_555 1_555
O9 Co1 1_555 1_555
O10 Co1 1_555 1_555
C6A C7A 1_555 1_555
C9A O5A 1_555 1_555
C13A C14A 1_555 1_555
C17A C18A 1_555 1_555
C20A N2A 1_555 1_555
C22A C23A 1_555 1_555
C25A N1A 1_555 1_555
C27A C28A 1_555 1_555
C30A N3A 1_555 1_555
C32A C33A 1_555 1_555
C35A N4A 1_555 1_555
O4A Co1A 1_555 1_555
O8A Co1A 1_555 1_555
O9A Co1A 1_555 1_555
O10A Co1A 1_555 1_555

#END
