
#######################################################################
#
#                 Cambridge Crystallographic Data Centre
#                                CCDC 
#
#######################################################################
#
# If this CIF has been generated from an entry in the Cambridge 
# Structural Database, then it will include bibliographic, chemical, 
# crystal, experimental, refinement or atomic coordinate data resulting 
# from the CCDC's data processing and validation procedures.
#
#######################################################################

data_CUKXEN
_symmetry_cell_setting           tetragonal
_symmetry_space_group_name_H-M   'P 42/m b c'
_symmetry_Int_Tables_number      135
_space_group_name_Hall           '-P 4c 2ab'
loop_
_symmetry_equiv_pos_site_id
_symmetry_equiv_pos_as_xyz
1 x,y,z
2 -x,-y,z
3 -y,x,1/2+z
4 y,-x,1/2+z
5 1/2-x,1/2+y,-z
6 1/2+x,1/2-y,-z
7 1/2+y,1/2+x,1/2-z
8 1/2-y,1/2-x,1/2-z
9 -x,-y,-z
10 x,y,-z
11 y,-x,1/2-z
12 -y,x,1/2-z
13 1/2+x,1/2-y,z
14 1/2-x,1/2+y,z
15 1/2-y,1/2-x,1/2+z
16 1/2+y,1/2+x,1/2+z
_cell_length_a                   13.795(2)
_cell_length_b                   13.795(2)
_cell_length_c                   17.743(6)
_cell_angle_alpha                90
_cell_angle_beta                 90
_cell_angle_gamma                90
_cell_volume                     3376.53
loop_
_atom_site_label
_atom_site_type_symbol
_atom_site_fract_x
_atom_site_fract_y
_atom_site_fract_z
C1 C 0.1399(3) 0.4801(4) 0.3610(2)
C2 C 0.1999(3) 0.4849(3) 0.4317(2)
C3 C 0.2992(3) 0.5059(3) 0.4320(2)
C4 C 0.3597(4) 0.5137(5) 0.3609(3)
C5 C 0.3463(5) 0.5175(6) 0.5000
H1 H 0.4118 0.5335 0.5000
C6 C 0.1527(4) 0.4733(5) 0.5000
H2 H 0.0873 0.4573 0.5000
Cd1 Cd 0.0000 0.5000 0.2500
Cd2 Cd 0.5000 0.5000 0.2500
O1 O 0.0775(3) 0.4171(3) 0.3541(2)
O2 O 0.1503(3) 0.5460(3) 0.3125(2)
O3 O 0.3524(3) 0.4493(3) 0.3122(2)
O4 O 0.4204(3) 0.5798(3) 0.3558(2)
C1I C 0.1399(3) 0.4801(4) 0.6390(2)
C2I C 0.1999(3) 0.4849(3) 0.5683(2)
C3I C 0.2992(3) 0.5059(3) 0.5680(2)
C4I C 0.3597(4) 0.5137(5) 0.6391(3)
O1I O 0.0775(3) 0.4171(3) 0.6459(2)
O2I O 0.1503(3) 0.5460(3) 0.6875(2)
O3I O 0.3524(3) 0.4493(3) 0.6878(2)
O4I O 0.4204(3) 0.5798(3) 0.6442(2)
C1A C -0.1399(3) 0.5199(4) 0.3610(2)
C2A C -0.1999(3) 0.5151(3) 0.4317(2)
C3A C -0.2992(3) 0.4941(3) 0.4320(2)
C4A C -0.3597(4) 0.4863(5) 0.3609(3)
C5A C -0.3463(5) 0.4825(6) 0.5000
H1A H -0.4118 0.4665 0.5000
C6A C -0.1527(4) 0.5267(5) 0.5000
H2A H -0.0873 0.5427 0.5000
O1A O -0.0775(3) 0.5829(3) 0.3541(2)
O2A O -0.1503(3) 0.4540(3) 0.3125(2)
O3A O -0.3524(3) 0.5507(3) 0.3122(2)
O4A O -0.4204(3) 0.4202(3) 0.3558(2)
C1H C -0.1399(3) 0.5199(4) 0.6390(2)
C2H C -0.1999(3) 0.5151(3) 0.5683(2)
C3H C -0.2992(3) 0.4941(3) 0.5680(2)
C4H C -0.3597(4) 0.4863(5) 0.6391(3)
O1H O -0.0775(3) 0.5829(3) 0.6459(2)
O2H O -0.1503(3) 0.4540(3) 0.6875(2)
O3H O -0.3524(3) 0.5507(3) 0.6878(2)
O4H O -0.4204(3) 0.4202(3) 0.6442(2)
Cd1H Cd 0.0000 0.5000 0.7500
Cd2_2 Cd -0.5000 0.5000 0.2500
Cd2B Cd -0.5000 0.5000 0.7500
Cd2B_2 Cd 0.5000 0.5000 0.7500
O1F O -0.0829(3) 0.5775(3) 0.1459(2)
O1G O 0.0829(3) 0.4225(3) 0.1459(2)
O2F O 0.0460(3) 0.6503(3) 0.1875(2)
O2G O -0.0460(3) 0.3497(3) 0.1875(2)
O3A_2 O 0.6476(3) 0.5507(3) 0.3122(2)
O3J O 0.4493(3) 0.6476(3) 0.1878(2)
O3K O 0.5507(3) 0.3524(3) 0.1878(2)
O4A_2 O 0.5796(3) 0.4202(3) 0.3558(2)
O4J O 0.5798(3) 0.5796(3) 0.1442(2)
O4K O 0.4202(3) 0.4204(3) 0.1442(2)
loop_
_geom_bond_atom_site_label_1
_geom_bond_atom_site_label_2
_geom_bond_site_symmetry_1
_geom_bond_site_symmetry_2
C1 C2 1_555 1_555
C2 C3 1_555 1_555
C3 C4 1_555 1_555
C4 O3 1_555 1_555
C5 C3 1_555 1_555
H1 C5 1_555 1_555
C6 C2 1_555 1_555
H2 C6 1_555 1_555
Cd1 O1 1_555 1_555
Cd2 O3 1_555 1_555
O1 C1 1_555 1_555
O2 C1 1_555 1_555
O4 C4 1_555 1_555
C1I C2I 1_555 1_555
C2I C6 1_555 1_555
C3I C5 1_555 1_555
C4I C3I 1_555 1_555
O1I C1I 1_555 1_555
O2I C1I 1_555 1_555
O3I C4I 1_555 1_555
O4I C4I 1_555 1_555
C1A C2A 1_555 1_555
C2A C3A 1_555 1_555
C3A C4A 1_555 1_555
C4A O3A 1_555 1_555
C5A C3A 1_555 1_555
H1A C5A 1_555 1_555
C6A C2A 1_555 1_555
H2A C6A 1_555 1_555
O1A Cd1 1_555 1_555
O2A Cd1 1_555 1_555
O3A Cd2_2 1_555 1_555
O4A C4A 1_555 1_555
C1H C2H 1_555 1_555
C2H C6A 1_555 1_555
C3H C5A 1_555 1_555
C4H C3H 1_555 1_555
O1H C1H 1_555 1_555
O2H C1H 1_555 1_555
O3H C4H 1_555 1_555
O4H C4H 1_555 1_555
Cd1H O1I 1_555 1_555
Cd2_2 O4A 1_555 1_555
Cd2B O3H 1_555 1_555
Cd2B_2 O3I 1_555 1_555
O1F Cd1 1_555 1_555
O1G Cd1 1_555 1_555
O2F Cd1 1_555 1_555
O2G Cd1 1_555 1_555
O3A_2 Cd2 1_555 1_555
O3J Cd2 1_555 1_555
O3K Cd2 1_555 1_555
O4A_2 Cd2 1_555 1_555
O4J Cd2 1_555 1_555
O4K Cd2 1_555 1_555
Cd1 O2 1_555 1_555
Cd2 O4 1_555 1_555
C2I C3I 1_555 1_555
O2I Cd1H 1_555 1_555
O4I Cd2B_2 1_555 1_555
C1A O1A 1_555 1_555
C1A O2A 1_555 1_555
C2H C3H 1_555 1_555
O1H Cd1H 1_555 1_555
O2H Cd1H 1_555 1_555
O4H Cd2B 1_555 1_555

#END
