
#######################################################################
#
#                 Cambridge Crystallographic Data Centre
#                                CCDC 
#
#######################################################################
#
# If this CIF has been generated from an entry in the Cambridge 
# Structural Database, then it will include bibliographic, chemical, 
# crystal, experimental, refinement or atomic coordinate data resulting 
# from the CCDC's data processing and validation procedures.
#
#######################################################################

data_CUKXIR
_symmetry_cell_setting           orthorhombic
_symmetry_space_group_name_H-M   'P b c n'
_symmetry_Int_Tables_number      60
_space_group_name_Hall           '-P 2n 2ab'
loop_
_symmetry_equiv_pos_site_id
_symmetry_equiv_pos_as_xyz
1 x,y,z
2 1/2-x,1/2-y,1/2+z
3 -x,y,1/2-z
4 1/2+x,1/2-y,-z
5 -x,-y,-z
6 1/2+x,1/2+y,1/2-z
7 x,-y,1/2+z
8 1/2-x,1/2+y,z
_cell_length_a                   19.1035(9)
_cell_length_b                   9.5430(4)
_cell_length_c                   17.6708(8)
_cell_angle_alpha                90
_cell_angle_beta                 90
_cell_angle_gamma                90
_cell_volume                     3221.47
loop_
_atom_site_label
_atom_site_type_symbol
_atom_site_fract_x
_atom_site_fract_y
_atom_site_fract_z
N1 N 0.40536(15) 0.2023(3) 0.56742(17)
H1 H 0.4140 0.2773 0.5968
H2 H 0.3610 0.1753 0.5763
C1 C 0.45218(19) 0.0891(4) 0.5902(3)
H3 H 0.4996 0.1223 0.5902
H4 H 0.4478 0.0125 0.5553
H5 H 0.4399 0.0579 0.6401
C2 C 0.4109(3) 0.2451(7) 0.4885(3)
H6 H 0.4055 0.1647 0.4564
H7 H 0.4560 0.2867 0.4799
H8 H 0.3750 0.3122 0.4772
O1 O 0.43545(17) 0.8683(4) 0.7883(3)
H9 H 0.3990 0.8980 0.7658
H10 H 0.4417 0.9149 0.8287
C3 C 0.37477(12) 0.2535(2) 1.07669(13)
C4 C 0.34175(11) 0.1873(2) 1.00768(12)
C5 C 0.28901(11) 0.0854(2) 1.01035(12)
C6 C 0.26442(12) 0.0276(2) 0.94290(13)
H11 H 0.2299 -0.0409 0.9449
C7 C 0.29006(11) 0.0694(2) 0.87250(12)
C8 C 0.34352(11) 0.1704(2) 0.86970(12)
C9 C 0.36787(12) 0.2268(2) 0.93715(13)
H12 H 0.4031 0.2939 0.9352
C10 C 0.25631(11) 0.0319(2) 1.08304(13)
C11 C 0.25915(11) -0.0004(2) 0.80274(12)
C12 C 0.37772(12) 0.2197(2) 0.79724(12)
Mn1 Mn 0.257214(18) 0.26640(4) 1.195741(18)
Mn2 Mn 0.5000 0.42823(5) 0.7500
O2 O 0.42326(11) 0.3369(2) 1.06595(11)
O3 O 0.35284(8) 0.21793(18) 1.14150(9)
O4 O 0.21327(8) 0.10893(16) 1.11678(9)
O5 O 0.27194(9) -0.09109(17) 1.10158(9)
O6 O 0.20892(8) 0.06073(17) 0.76984(9)
O7 O 0.28375(9) -0.11672(17) 0.78531(10)
O8 O 0.34686(8) 0.20067(19) 0.73516(9)
O9 O 0.43643(9) 0.2761(2) 0.80432(9)
O10 O 0.43581(11) 0.5830(2) 0.81462(13)
H13 H 0.3877 0.5747 0.7997
H14 H 0.4522 0.6759 0.8038
O11 O 0.57506(9) 0.44971(19) 0.84152(11)
H15 H 0.5689 0.5392 0.8654
H16 H 0.6217 0.4431 0.8215
C3B C 0.62523(12) 0.2535(2) 0.42331(13)
C4B C 0.65825(11) 0.1873(2) 0.49232(12)
C5B C 0.71099(11) 0.0854(2) 0.48965(12)
C6B C 0.73558(12) 0.0276(2) 0.55710(13)
H11B H 0.7701 -0.0409 0.5551
C7B C 0.70994(11) 0.0694(2) 0.62750(12)
C8B C 0.65648(11) 0.1704(2) 0.63030(12)
C9B C 0.63213(12) 0.2268(2) 0.56285(13)
H12B H 0.5969 0.2939 0.5648
C10B C 0.74369(11) 0.0319(2) 0.41696(13)
C11B C 0.74085(11) -0.0004(2) 0.69726(12)
C12B C 0.62228(12) 0.2197(2) 0.70276(12)
Mn1B Mn 0.742786(18) 0.26640(4) 0.304259(18)
O2B O 0.57674(11) 0.3369(2) 0.43405(11)
O3B O 0.64716(8) 0.21793(18) 0.35850(9)
O4B O 0.78673(8) 0.10893(16) 0.38322(9)
O5B O 0.72806(9) -0.09109(17) 0.39842(9)
O6B O 0.79108(8) 0.06073(17) 0.73016(9)
O7B O 0.71625(9) -0.11672(17) 0.71469(10)
O8B O 0.65314(8) 0.20067(19) 0.76484(9)
O9B O 0.56357(9) 0.2761(2) 0.69568(9)
O10B O 0.56419(11) 0.5830(2) 0.68538(13)
H13B H 0.6123 0.5747 0.7003
H14B H 0.5478 0.6759 0.6962
O11B O 0.42494(9) 0.44971(19) 0.65848(11)
H15B H 0.4311 0.5392 0.6346
H16B H 0.3783 0.4431 0.6785
Mn1A Mn 0.242786(18) 0.23360(4) 0.695741(18)
Mn1C Mn 0.757214(18) 0.23360(4) 0.804259(18)
Mn1D Mn 0.742786(18) -0.26640(4) 0.804259(18)
Mn1E Mn 0.757214(18) -0.23360(4) 0.304259(18)
Mn1F Mn 0.257214(18) -0.26640(4) 0.695741(18)
Mn1G Mn 0.242786(18) -0.23360(4) 1.195741(18)
O5E O 0.77194(9) 0.40891(17) 0.39842(9)
O5G O 0.22806(9) 0.40891(17) 1.10158(9)
O6A O 0.29108(8) 0.43927(17) 1.26984(9)
O6C O 0.70892(8) 0.43927(17) 0.23016(9)
O7D O 0.71625(9) 0.11672(17) 0.21469(10)
O7F O 0.28375(9) 0.11672(17) 1.28531(10)
O8A O 0.15314(8) 0.29933(19) 1.23516(9)
O8C O 0.84686(8) 0.29933(19) 0.26484(9)
loop_
_geom_bond_atom_site_label_1
_geom_bond_atom_site_label_2
_geom_bond_site_symmetry_1
_geom_bond_site_symmetry_2
N1 H1 1_555 1_555
H2 N1 1_555 1_555
C1 N1 1_555 1_555
H3 C1 1_555 1_555
H4 C1 1_555 1_555
H5 C1 1_555 1_555
C2 N1 1_555 1_555
H6 C2 1_555 1_555
H7 C2 1_555 1_555
H8 C2 1_555 1_555
O1 H9 1_555 1_555
H10 O1 1_555 1_555
C3 C4 1_555 1_555
C4 C5 1_555 1_555
C5 C6 1_555 1_555
C6 H11 1_555 1_555
C7 C6 1_555 1_555
C8 C7 1_555 1_555
C9 C4 1_555 1_555
H12 C9 1_555 1_555
C10 C5 1_555 1_555
C11 C7 1_555 1_555
C12 C8 1_555 1_555
Mn1 O3 1_555 1_555
Mn2 O9 1_555 1_555
O2 C3 1_555 1_555
O3 C3 1_555 1_555
O4 C10 1_555 1_555
O5 C10 1_555 1_555
O6 C11 1_555 1_555
O7 C11 1_555 1_555
O8 C12 1_555 1_555
O9 C12 1_555 1_555
O10 Mn2 1_555 1_555
H13 O10 1_555 1_555
H14 O10 1_555 1_555
O11 Mn2 1_555 1_555
H15 O11 1_555 1_555
H16 O11 1_555 1_555
C3B C4B 1_555 1_555
C4B C5B 1_555 1_555
C5B C6B 1_555 1_555
C6B H11B 1_555 1_555
C7B C6B 1_555 1_555
C8B C7B 1_555 1_555
C9B C4B 1_555 1_555
H12B C9B 1_555 1_555
C10B C5B 1_555 1_555
C11B C7B 1_555 1_555
C12B C8B 1_555 1_555
Mn1B O3B 1_555 1_555
O2B C3B 1_555 1_555
O3B C3B 1_555 1_555
O4B C10B 1_555 1_555
O5B C10B 1_555 1_555
O6B C11B 1_555 1_555
O7B C11B 1_555 1_555
O8B C12B 1_555 1_555
O9B Mn2 1_555 1_555
O10B Mn2 1_555 1_555
H13B O10B 1_555 1_555
H14B O10B 1_555 1_555
O11B Mn2 1_555 1_555
H15B O11B 1_555 1_555
H16B O11B 1_555 1_555
Mn1A O6 1_555 1_555
Mn1C O6B 1_555 1_555
Mn1D O7B 1_555 1_555
Mn1E O5B 1_555 1_555
Mn1F O7 1_555 1_555
Mn1G O5 1_555 1_555
O5E Mn1B 1_555 1_555
O5G Mn1 1_555 1_555
O6A Mn1 1_555 1_555
O6C Mn1B 1_555 1_555
O7D Mn1B 1_555 1_555
O7F Mn1 1_555 1_555
O8A Mn1 1_555 1_555
O8C Mn1B 1_555 1_555
C8 C9 1_555 1_555
Mn1 O4 1_555 1_555
O8 Mn1A 1_555 1_555
C8B C9B 1_555 1_555
C12B O9B 1_555 1_555
Mn1B O4B 1_555 1_555
O8B Mn1C 1_555 1_555

#END
