
#######################################################################
#
#                 Cambridge Crystallographic Data Centre
#                                CCDC 
#
#######################################################################
#
# If this CIF has been generated from an entry in the Cambridge 
# Structural Database, then it will include bibliographic, chemical, 
# crystal, experimental, refinement or atomic coordinate data resulting 
# from the CCDC's data processing and validation procedures.
#
#######################################################################

data_CUKXOW
_symmetry_cell_setting           monoclinic
_symmetry_space_group_name_H-M   'C 2/c'
_symmetry_Int_Tables_number      15
_space_group_name_Hall           '-C 2yn'
loop_
_symmetry_equiv_pos_site_id
_symmetry_equiv_pos_as_xyz
1 x,y,z
2 -x,y,1/2-z
3 1/2+x,1/2+y,z
4 1/2-x,1/2+y,1/2-z
5 -x,-y,-z
6 x,-y,1/2+z
7 1/2-x,1/2-y,-z
8 1/2+x,1/2-y,1/2+z
_cell_length_a                   12.750(4)
_cell_length_b                   16.808(6)
_cell_length_c                   19.318(5)
_cell_angle_alpha                90
_cell_angle_beta                 130.350(14)
_cell_angle_gamma                90
_cell_volume                     3155.02
loop_
_atom_site_label
_atom_site_type_symbol
_atom_site_fract_x
_atom_site_fract_y
_atom_site_fract_z
Tb1 Tb 0.433932(15) 0.448892(9) 0.557543(10)
O1 O 0.2119(3) 0.51122(18) 0.43596(18)
O2 O 0.3642(3) 0.53292(16) 0.42060(18)
O3 O 0.4045(3) 0.36638(16) 0.44634(17)
O4 O 0.4886(3) 0.42133(16) 0.38543(19)
O5 O 0.0926(3) 0.07631(17) 0.21984(19)
O6 O 0.0661(3) 0.17655(17) 0.13819(18)
O7 O 0.2654(3) 0.34255(18) 0.5053(2)
O8 O 0.3243(3) 0.47926(19) 0.6195(2)
N1 N 0.1096(3) 0.39958(18) 0.2690(2)
N2 N 0.0000 0.2765(3) 0.2500
N3 N 0.0000 0.5164(3) 0.2500
N4 N 0.2131(3) 0.27905(18) 0.2910(2)
C1 C 0.0000 0.4356(3) 0.2500
C2 C 0.1035(4) 0.3201(2) 0.2692(2)
C3 C 0.1274(4) 0.5577(2) 0.2896(3)
H1 H 0.1129 0.6146 0.2873
H2 H 0.1558 0.5463 0.2547
C4 C 0.2411(4) 0.5321(2) 0.3884(2)
C5 C 0.3219(4) 0.3209(2) 0.3013(2)
H3 H 0.2806 0.3537 0.2479
H4 H 0.3803 0.2821 0.3036
C6 C 0.4117(4) 0.3737(2) 0.3851(2)
C7 C 0.2177(4) 0.1936(2) 0.3016(2)
H5 H 0.1981 0.1811 0.3412
H6 H 0.3105 0.1754 0.3314
C8 C 0.1188(4) 0.1480(2) 0.2140(2)
Tb1A Tb -0.433932(15) 0.448892(9) -0.057543(10)
Tb1D Tb 0.566068(15) 0.551108(9) 0.442457(10)
Tb1G Tb -0.066068(15) 0.051108(9) 0.057543(10)
Tb1E Tb -0.566068(15) 0.551108(9) 0.057543(10)
Tb1F Tb 0.066068(15) 0.051108(9) 0.442457(10)
O1A O -0.2119(3) 0.51122(18) 0.06404(18)
O2A O -0.3642(3) 0.53292(16) 0.07940(18)
O2D O 0.6358(3) 0.46708(16) 0.57940(18)
O2E O -0.6358(3) 0.46708(16) -0.07940(18)
O3A O -0.4045(3) 0.36638(16) 0.05366(17)
O4A O -0.4886(3) 0.42133(16) 0.11457(19)
O4D O 0.5114(3) 0.57867(16) 0.61457(19)
O4E O -0.5114(3) 0.57867(16) -0.11457(19)
O5A O -0.0926(3) 0.07631(17) 0.28016(19)
O5G O 0.5926(3) 0.42369(17) 0.71984(19)
O5F O -0.5926(3) 0.42369(17) -0.21984(19)
O6A O -0.0661(3) 0.17655(17) 0.36181(18)
O6G O 0.5661(3) 0.32345(17) 0.63819(18)
O6F O -0.5661(3) 0.32345(17) -0.13819(18)
O7A O -0.2654(3) 0.34255(18) -0.0053(2)
O8A O -0.3243(3) 0.47926(19) -0.1195(2)
N1A N -0.1096(3) 0.39958(18) 0.2310(2)
N4A N -0.2131(3) 0.27905(18) 0.2090(2)
C2A C -0.1035(4) 0.3201(2) 0.2308(2)
C3A C -0.1274(4) 0.5577(2) 0.2104(3)
H1A H -0.1129 0.6146 0.2127
H2A H -0.1558 0.5463 0.2453
C4A C -0.2411(4) 0.5321(2) 0.1116(2)
C5A C -0.3219(4) 0.3209(2) 0.1987(2)
H3A H -0.2806 0.3537 0.2521
H4A H -0.3803 0.2821 0.1964
C6A C -0.4117(4) 0.3737(2) 0.1149(2)
C7A C -0.2177(4) 0.1936(2) 0.1984(2)
H5A H -0.1981 0.1811 0.1588
H6A H -0.3105 0.1754 0.1686
C8A C -0.1188(4) 0.1480(2) 0.2860(2)
O9 O 0.0832(10) 0.4786(7) 0.0904(7)
O10 O 0.3258(8) 0.2515(4) 0.1252(5)
O11 O 0.4202(6) 0.1606(4) 0.0559(4)
O12 O 0.4920(4) 0.1792(3) 0.5498(3)
O13 O 0.5000 0.3701(3) 0.2500
loop_
_geom_bond_atom_site_label_1
_geom_bond_atom_site_label_2
_geom_bond_site_symmetry_1
_geom_bond_site_symmetry_2
Tb1 O1 1_555 1_555
O1 C4 1_555 1_555
O2 Tb1 1_555 1_555
O3 Tb1 1_555 1_555
O4 C6 1_555 1_555
O5 C8 1_555 1_555
O6 C8 1_555 1_555
O7 Tb1 1_555 1_555
O8 Tb1 1_555 1_555
N1 C1 1_555 1_555
N2 C2 1_555 1_555
N3 C1 1_555 1_555
N4 C2 1_555 1_555
C1 N1A 1_555 1_555
C2 N1 1_555 1_555
C3 N3 1_555 1_555
H1 C3 1_555 1_555
H2 C3 1_555 1_555
C4 O2 1_555 1_555
C5 N4 1_555 1_555
H3 C5 1_555 1_555
H4 C5 1_555 1_555
C6 O3 1_555 1_555
C7 N4 1_555 1_555
H5 C7 1_555 1_555
H6 C7 1_555 1_555
C8 C7 1_555 1_555
Tb1A O1A 1_555 1_555
Tb1D O2 1_555 1_555
Tb1G O5 1_555 1_555
Tb1E O2A 1_555 1_555
Tb1F O5A 1_555 1_555
O1A C4A 1_555 1_555
O2A Tb1A 1_555 1_555
O2D Tb1 1_555 1_555
O2E Tb1A 1_555 1_555
O3A Tb1A 1_555 1_555
O4A Tb1E 1_555 1_555
O4D Tb1 1_555 1_555
O4E Tb1A 1_555 1_555
O5A C8A 1_555 1_555
O5G Tb1 1_555 1_555
O5F Tb1A 1_555 1_555
O6A Tb1F 1_555 1_555
O6G Tb1 1_555 1_555
O6F Tb1A 1_555 1_555
O7A Tb1A 1_555 1_555
O8A Tb1A 1_555 1_555
N1A C2A 1_555 1_555
N4A C2A 1_555 1_555
C2A N2 1_555 1_555
C3A N3 1_555 1_555
H1A C3A 1_555 1_555
H2A C3A 1_555 1_555
C4A O2A 1_555 1_555
C5A N4A 1_555 1_555
H3A C5A 1_555 1_555
H4A C5A 1_555 1_555
C6A O3A 1_555 1_555
C7A N4A 1_555 1_555
H5A C7A 1_555 1_555
H6A C7A 1_555 1_555
C8A O6A 1_555 1_555
O4 Tb1D 1_555 1_555
O6 Tb1G 1_555 1_555
C3 C4 1_555 1_555
C5 C6 1_555 1_555
Tb1D O2D 1_555 1_555
Tb1E O2E 1_555 1_555
O4A C6A 1_555 1_555
C3A C4A 1_555 1_555
C5A C6A 1_555 1_555
C7A C8A 1_555 1_555

#END
