
#######################################################################
#
#                 Cambridge Crystallographic Data Centre
#                                CCDC 
#
#######################################################################
#
# If this CIF has been generated from an entry in the Cambridge 
# Structural Database, then it will include bibliographic, chemical, 
# crystal, experimental, refinement or atomic coordinate data resulting 
# from the CCDC's data processing and validation procedures.
#
#######################################################################

data_CUKZAK
_symmetry_cell_setting           triclinic
_symmetry_space_group_name_H-M   'P -1'
_symmetry_Int_Tables_number      2
_space_group_name_Hall           '-P 1'
loop_
_symmetry_equiv_pos_site_id
_symmetry_equiv_pos_as_xyz
1 x,y,z
2 -x,-y,-z
_cell_length_a                   10.144(2)
_cell_length_b                   11.814(2)
_cell_length_c                   12.423(3)
_cell_angle_alpha                108.23(3)
_cell_angle_beta                 93.23(3)
_cell_angle_gamma                90.65(3)
_cell_volume                     1411.16
loop_
_atom_site_label
_atom_site_type_symbol
_atom_site_fract_x
_atom_site_fract_y
_atom_site_fract_z
Cd1 Cd 0.58387(4) 0.96145(3) 0.87327(3)
O1 O 0.4038(4) 0.8892(4) 0.6216(4)
H1 H 0.3471 0.9180 0.6658
O2 O 0.9007(4) 0.9698(4) 0.8184(4)
H2 H 0.9039 0.9744 0.8857
O3 O 0.3748(4) 0.9641(4) 0.9355(3)
N1 N 0.5273(5) 0.9164(4) 0.6776(4)
N2 N 0.7731(4) 0.9376(4) 0.7714(4)
N3 N 0.5867(5) 0.7592(4) 0.8596(4)
N4 N 0.5836(5) 0.1607(4) 0.8703(4)
C1 C 0.6226(5) 0.8944(5) 0.6107(5)
C2 C 0.6019(6) 0.8490(6) 0.4852(5)
H3 H 0.5421 0.9009 0.4609
H4 H 0.5593 0.7705 0.4639
C3 C 0.7284(8) 0.8402(8) 0.4212(6)
H5 H 0.7709 0.7660 0.4173
H6 H 0.7062 0.8402 0.3443
C4 C 0.8217(7) 0.9435(7) 0.4806(6)
H7 H 0.7770 1.0176 0.4889
H8 H 0.8966 0.9417 0.4350
C5 C 0.8702(6) 0.9384(7) 0.5970(6)
H9 H 0.9292 0.8725 0.5878
H10 H 0.9199 1.0114 0.6375
C6 C 0.7585(6) 0.9232(5) 0.6655(5)
C7 C 0.4770(6) 0.6933(6) 0.8410(6)
H11 H 0.3982 0.7288 0.8299
C8 C 0.4711(6) 0.5759(5) 0.8369(6)
H12 H 0.3904 0.5341 0.8229
C9 C 0.5877(6) 0.5196(5) 0.8541(5)
C10 C 0.7039(6) 0.5891(6) 0.8724(6)
H13 H 0.7844 0.5562 0.8834
C11 C 0.6999(7) 0.7056(6) 0.8743(6)
H14 H 0.7789 0.7497 0.8864
C12 C 0.5864(6) 0.3952(5) 0.8570(5)
C13 C 0.4687(6) 0.3322(6) 0.8568(6)
H15 H 0.3879 0.3674 0.8524
C14 C 0.4726(6) 0.2180(6) 0.8630(6)
H16 H 0.3927 0.1782 0.8620
C15 C 0.6971(7) 0.2209(6) 0.8696(8)
H17 H 0.7765 0.1833 0.8729
C16 C 0.7008(6) 0.3347(6) 0.8644(7)
H18 H 0.7821 0.3724 0.8659
S1 S 0.23376(13) 0.95390(13) 0.88436(12)
O4 O 0.1885(4) 0.8292(4) 0.8534(4)
O5 O 0.1547(4) 1.0303(4) 0.9701(4)
O6 O 0.2359(4) 0.9929(4) 0.7838(4)
Cd1A Cd 0.41613(4) 1.03855(3) 1.12673(3)
Cd1_2 Cd 0.58387(4) -0.03855(3) 0.87327(3)
O3A O 0.6252(4) 1.0359(4) 1.0645(3)
N4_2 N 0.5836(5) 1.1607(4) 0.8703(4)
O7 O 0.9308(6) 0.2473(4) 0.6595(5)
H19 H 0.9756 0.2269 0.7069
O8 O 0.9911(6) 0.7150(5) 0.6910(5)
H20 H 1.0486 0.7524 0.7382
N5 N 0.9550(6) 0.3683(5) 0.6760(6)
N6 N 0.9876(6) 0.5962(5) 0.6893(5)
C17 C 0.8774(7) 0.4086(6) 0.6126(6)
C18 C 0.7740(10) 0.3334(8) 0.5323(9)
H21 H 0.7265 0.2876 0.5712
H22 H 0.8164 0.2773 0.4704
C19 C 0.6768(14) 0.4013(11) 0.4839(14)
H23 H 0.6463 0.3496 0.4090
H24 H 0.6012 0.4139 0.5303
C20 C 0.7101(12) 0.5045(10) 0.4732(13)
H25 H 0.6287 0.5448 0.4667
H26 H 0.7499 0.4880 0.4009
C21 C 0.7975(9) 0.5902(7) 0.5568(8)
H27 H 0.7440 0.6464 0.6095
H28 H 0.8475 0.6346 0.5182
C22 C 0.8936(6) 0.5367(6) 0.6239(6)
O9 O 1.0950(7) 0.2188(6) 0.8290(6)
H29 H 1.137(10) 0.153(6) 0.810(8)
H30 H 1.050(10) 0.231(9) 0.888(6)
O10 O 0.1525(7) 0.4789(7) 0.8562(8)
H31 H 0.162(12) 0.412(7) 0.870(12)
H32 H 0.072(5) 0.498(11) 0.846(12)
O11 O 0.0295(7) 0.7042(7) 0.9719(6)
H33 H 0.061(11) 0.632(4) 0.943(10)
H34 H 0.063(11) 0.754(7) 0.941(9)
loop_
_geom_bond_atom_site_label_1
_geom_bond_atom_site_label_2
_geom_bond_site_symmetry_1
_geom_bond_site_symmetry_2
Cd1 O3 1_555 1_555
O1 H1 1_555 1_555
O2 H2 1_555 1_555
O3 S1 1_555 1_555
N1 Cd1 1_555 1_555
N2 Cd1 1_555 1_555
N3 Cd1 1_555 1_555
N4 C14 1_555 1_555
C1 N1 1_555 1_555
C2 C1 1_555 1_555
H3 C2 1_555 1_555
H4 C2 1_555 1_555
C3 C2 1_555 1_555
H5 C3 1_555 1_555
H6 C3 1_555 1_555
C4 C3 1_555 1_555
H7 C4 1_555 1_555
H8 C4 1_555 1_555
C5 C4 1_555 1_555
H9 C5 1_555 1_555
H10 C5 1_555 1_555
C6 N2 1_555 1_555
C7 N3 1_555 1_555
H11 C7 1_555 1_555
C8 C7 1_555 1_555
H12 C8 1_555 1_555
C9 C8 1_555 1_555
C10 C9 1_555 1_555
H13 C10 1_555 1_555
C11 N3 1_555 1_555
H14 C11 1_555 1_555
C12 C9 1_555 1_555
C13 C12 1_555 1_555
H15 C13 1_555 1_555
C14 C13 1_555 1_555
H16 C14 1_555 1_555
C15 N4 1_555 1_555
H17 C15 1_555 1_555
C16 C12 1_555 1_555
H18 C16 1_555 1_555
S1 O4 1_555 1_555
O5 S1 1_555 1_555
O6 S1 1_555 1_555
O7 H19 1_555 1_555
O8 H20 1_555 1_555
N5 O7 1_555 1_555
N6 O8 1_555 1_555
C17 N5 1_555 1_555
C18 C17 1_555 1_555
H21 C18 1_555 1_555
H22 C18 1_555 1_555
C19 C18 1_555 1_555
H23 C19 1_555 1_555
H24 C19 1_555 1_555
C20 C19 1_555 1_555
H25 C20 1_555 1_555
H26 C20 1_555 1_555
C21 C20 1_555 1_555
H27 C21 1_555 1_555
H28 C21 1_555 1_555
C22 N6 1_555 1_555
O9 H29 1_555 1_555
H30 O9 1_555 1_555
O10 H31 1_555 1_555
H32 O10 1_555 1_555
O11 H33 1_555 1_555
H34 O11 1_555 1_555
Cd1A O3 1_555 1_555
Cd1_2 N4 1_555 1_555
O3A Cd1 1_555 1_555
N4_2 Cd1 1_555 1_555
O1 N1 1_555 1_555
O2 N2 1_555 1_555
C1 C6 1_555 1_555
C5 C6 1_555 1_555
C10 C11 1_555 1_555
C15 C16 1_555 1_555
C17 C22 1_555 1_555
C21 C22 1_555 1_555
Cd1A O3A 1_555 1_555

#END
