
#######################################################################
#
#                 Cambridge Crystallographic Data Centre
#                                CCDC 
#
#######################################################################
#
# If this CIF has been generated from an entry in the Cambridge 
# Structural Database, then it will include bibliographic, chemical, 
# crystal, experimental, refinement or atomic coordinate data resulting 
# from the CCDC's data processing and validation procedures.
#
#######################################################################

data_CUKZUE
_symmetry_cell_setting           monoclinic
_symmetry_space_group_name_H-M   'P 21/n'
_symmetry_Int_Tables_number      14
_space_group_name_Hall           '-P 2yn'
loop_
_symmetry_equiv_pos_site_id
_symmetry_equiv_pos_as_xyz
1 x,y,z
2 1/2-x,1/2+y,1/2-z
3 -x,-y,-z
4 1/2+x,1/2-y,1/2+z
_cell_length_a                   7.31230(10)
_cell_length_b                   16.1727(4)
_cell_length_c                   8.4717(2)
_cell_angle_alpha                90
_cell_angle_beta                 107.561(2)
_cell_angle_gamma                90
_cell_volume                     955.17
loop_
_atom_site_label
_atom_site_type_symbol
_atom_site_fract_x
_atom_site_fract_y
_atom_site_fract_z
Zn1 Zn 0.40931(3) 0.132294(15) 0.73330(3)
Cl1 Cl 0.19502(7) 0.22430(3) 0.77939(7)
Cl2 Cl 0.31003(7) 0.01034(3) 0.80695(6)
O1 O 0.82436(19) 0.06323(9) 0.84192(17)
O2 O 1.15076(18) 0.08287(9) 1.40368(17)
O3 O 1.44034(18) 0.14011(9) 1.50854(16)
O4 O 0.65647(19) 0.17345(9) 0.87697(18)
N1 N 1.1381(2) 0.10441(10) 1.08631(19)
H1 H 1.1668 0.1013 0.9879
H2 H 1.1093 0.0518 1.1128
C1 C 0.9655(3) 0.15730(13) 1.0616(2)
H3 H 0.9977 0.2152 1.0428
H4 H 0.9239 0.1559 1.1625
C2 C 1.2948(2) 0.11691(12) 1.3890(2)
C3 C 1.3112(2) 0.13385(13) 1.2176(2)
H5 H 1.3271 0.1940 1.2043
H6 H 1.4263 0.1056 1.2054
C4 C 0.8032(2) 0.12748(13) 0.9145(2)
Zn1_2 Zn 1.40931(3) 0.132294(15) 1.73330(3)
O3_2 O 0.44034(18) 0.14011(9) 0.50854(16)
N2 N 0.8394(2) 0.10244(12) 1.5215(2)
H7 H 0.830(3) 0.0846(13) 1.6125(15)
H8 H 0.802(3) 0.0658(10) 1.4473(18)
H9 H 0.9464(16) 0.1242(11) 1.531(3)
H10 H 0.752(2) 0.1387(10) 1.503(3)
loop_
_geom_bond_atom_site_label_1
_geom_bond_atom_site_label_2
_geom_bond_site_symmetry_1
_geom_bond_site_symmetry_2
Zn1 Cl1 1_555 1_555
Cl2 Zn1 1_555 1_555
O1 C4 1_555 1_555
O2 C2 1_555 1_555
O3 C2 1_555 1_555
O4 Zn1 1_555 1_555
N1 H1 1_555 1_555
H2 N1 1_555 1_555
C1 N1 1_555 1_555
H3 C1 1_555 1_555
H4 C1 1_555 1_555
C2 C3 1_555 1_555
C3 N1 1_555 1_555
H5 C3 1_555 1_555
H6 C3 1_555 1_555
C4 O4 1_555 1_555
N2 H7 1_555 1_555
H8 N2 1_555 1_555
H9 N2 1_555 1_555
H10 N2 1_555 1_555
Zn1_2 O3 1_555 1_555
O3_2 Zn1 1_555 1_555
C1 C4 1_555 1_555

#END
