
#######################################################################
#
#                 Cambridge Crystallographic Data Centre
#                                CCDC 
#
#######################################################################
#
# If this CIF has been generated from an entry in the Cambridge 
# Structural Database, then it will include bibliographic, chemical, 
# crystal, experimental, refinement or atomic coordinate data resulting 
# from the CCDC's data processing and validation procedures.
#
#######################################################################

data_CULDOC
_symmetry_cell_setting           orthorhombic
_symmetry_space_group_name_H-M   'P b c a'
_symmetry_Int_Tables_number      61
_space_group_name_Hall           '-P 2ac 2ab'
loop_
_symmetry_equiv_pos_site_id
_symmetry_equiv_pos_as_xyz
1 x,y,z
2 1/2-x,-y,1/2+z
3 1/2+x,1/2-y,-z
4 -x,1/2+y,1/2-z
5 -x,-y,-z
6 1/2+x,y,1/2-z
7 1/2-x,1/2+y,z
8 x,1/2-y,1/2+z
_cell_length_a                   27.198(3)
_cell_length_b                   9.001(1)
_cell_length_c                   11.908(1)
_cell_angle_alpha                90
_cell_angle_beta                 90
_cell_angle_gamma                90
_cell_volume                     2915.19
loop_
_atom_site_label
_atom_site_type_symbol
_atom_site_fract_x
_atom_site_fract_y
_atom_site_fract_z
Cu1 Cu 0.2076(1) 0.1315(1) 0.1561(1)
S1 S 0.1457(1) 0.0960(1) 0.3717(1)
O1 O 0.2385(1) 0.3229(3) 0.1772(2)
O2 O 0.2667(1) 0.0342(3) 0.2690(2)
O3 O 0.1736(1) 0.1148(3) 0.4741(2)
O4 O 0.1436(1) -0.0561(3) 0.3282(3)
O5 O 0.2468(1) 0.0910(3) 0.0220(2)
O6 O 0.1625(1) -0.0283(3) 0.1052(3)
N1 N 0.1619(1) 0.1991(3) 0.2722(3)
C1 C 0.2172(1) 0.4086(4) 0.2453(3)
C2 C 0.1689(1) 0.3578(4) 0.2991(3)
C3 C 0.1268(2) 0.4526(5) 0.2544(4)
C4 C 0.0846(1) 0.1457(5) 0.4062(4)
C5 C 0.0752(2) 0.2395(6) 0.4940(5)
C6 C 0.0267(2) 0.2789(7) 0.5169(5)
C7 C -0.0113(2) 0.2270(6) 0.4548(6)
C8 C -0.0650(2) 0.2670(10) 0.4802(9)
C9 C -0.0012(2) 0.1334(7) 0.3672(6)
C10 C 0.0466(2) 0.0906(7) 0.3427(5)
H1 H 0.175 0.374 0.380
H2 H 0.093 0.412 0.284
H3 H 0.125 0.440 0.171
H4 H 0.133 0.542 0.273
H5 H 0.099 0.276 0.533
H6 H 0.019 0.354 0.585
H7 H -0.073 0.247 0.422
H8 H -0.058 0.288 0.530
H9 H -0.069 0.381 0.455
H10 H -0.025 0.094 0.325
H11 H 0.056 0.022 0.274
H12 H 0.267 0.040 0.035
H13 H 0.263 0.161 0.001
H14 H 0.158 -0.074 0.160
H15 H 0.176 -0.076 0.068
C1F C 0.2828(1) -0.0914(4) 0.2453(3)
O2F O 0.2333(1) 0.5342(3) 0.2690(2)
O1F O 0.2615(1) -0.1771(3) 0.1772(2)
C2F C 0.3311(1) -0.1422(4) 0.2991(3)
Cu1F Cu 0.2924(1) 0.6315(1) 0.1561(1)
Cu1F_2 Cu 0.2924(1) -0.3685(1) 0.1561(1)
N1F N 0.3381(1) -0.3009(3) 0.2722(3)
C3F C 0.3732(2) -0.0474(5) 0.2544(4)
H1F H 0.325 -0.126 0.380
O1F_2 O 0.2615(1) 0.8229(3) 0.1772(2)
O5F O 0.2532(1) 0.5910(3) 0.0220(2)
O6F O 0.3375(1) 0.4717(3) 0.1052(3)
N1F_2 N 0.3381(1) 0.6991(3) 0.2722(3)
S1F S 0.3543(1) -0.4040(1) 0.3717(1)
H2F H 0.407 -0.088 0.284
H3F H 0.375 -0.060 0.171
H4F H 0.367 0.042 0.273
H12F H 0.233 0.540 0.035
H13F H 0.237 0.661 0.001
H14F H 0.342 0.426 0.160
H15F H 0.324 0.424 0.068
O3F O 0.3264(1) -0.3852(3) 0.4741(2)
O4F O 0.3564(1) -0.5561(3) 0.3282(3)
C4F C 0.4154(1) -0.3543(5) 0.4062(4)
C5F C 0.4248(2) -0.2605(6) 0.4940(5)
C10F C 0.4534(2) -0.4094(7) 0.3427(5)
C6F C 0.4733(2) -0.2211(7) 0.5169(5)
H5F H 0.401 -0.224 0.533
C9F C 0.5012(2) -0.3666(7) 0.3672(6)
H11F H 0.444 -0.478 0.274
C7F C 0.5113(2) -0.2730(6) 0.4548(6)
H6F H 0.481 -0.146 0.585
H10F H 0.525 -0.406 0.325
C8F C 0.5650(2) -0.2330(10) 0.4802(9)
H7F H 0.573 -0.253 0.422
H8F H 0.558 -0.212 0.530
H9F H 0.569 -0.119 0.455
O7 O 0.3057(1) 0.2048(3) 0.4311(3)
H16 H 0.296 0.137 0.353
H17 H 0.326 0.246 0.400
loop_
_geom_bond_atom_site_label_1
_geom_bond_atom_site_label_2
_geom_bond_site_symmetry_1
_geom_bond_site_symmetry_2
Cu1 O1 1_555 1_555
S1 O3 1_555 1_555
O1 C1 1_555 1_555
O2 Cu1 1_555 1_555
O4 S1 1_555 1_555
O5 Cu1 1_555 1_555
O6 Cu1 1_555 1_555
O7 H16 1_555 1_555
N1 Cu1 1_555 1_555
C1 C2 1_555 1_555
C2 N1 1_555 1_555
C3 C2 1_555 1_555
C4 S1 1_555 1_555
C5 C4 1_555 1_555
C6 C5 1_555 1_555
C7 C6 1_555 1_555
C8 C7 1_555 1_555
C9 C7 1_555 1_555
C10 C4 1_555 1_555
H1 C2 1_555 1_555
H2 C3 1_555 1_555
H3 C3 1_555 1_555
H4 C3 1_555 1_555
H5 C5 1_555 1_555
H6 C6 1_555 1_555
H7 C8 1_555 1_555
H8 C8 1_555 1_555
H9 C8 1_555 1_555
H10 C9 1_555 1_555
H11 C10 1_555 1_555
H12 O5 1_555 1_555
H13 O5 1_555 1_555
H14 O6 1_555 1_555
H15 O6 1_555 1_555
H17 O7 1_555 1_555
C1F O2 1_555 1_555
O2F C1 1_555 1_555
O1F C1F 1_555 1_555
C2F C1F 1_555 1_555
Cu1F O2F 1_555 1_555
Cu1F_2 O1F 1_555 1_555
N1F C2F 1_555 1_555
C3F C2F 1_555 1_555
H1F C2F 1_555 1_555
O1F_2 Cu1F 1_555 1_555
O5F Cu1F 1_555 1_555
O6F Cu1F 1_555 1_555
N1F_2 Cu1F 1_555 1_555
S1F N1F 1_555 1_555
H2F C3F 1_555 1_555
H3F C3F 1_555 1_555
H4F C3F 1_555 1_555
H12F O5F 1_555 1_555
H13F O5F 1_555 1_555
H14F O6F 1_555 1_555
H15F O6F 1_555 1_555
O3F S1F 1_555 1_555
O4F S1F 1_555 1_555
C4F S1F 1_555 1_555
C5F C4F 1_555 1_555
C10F C4F 1_555 1_555
C6F C5F 1_555 1_555
H5F C5F 1_555 1_555
C9F C10F 1_555 1_555
H11F C10F 1_555 1_555
C7F C6F 1_555 1_555
H6F C6F 1_555 1_555
H10F C9F 1_555 1_555
C8F C7F 1_555 1_555
H7F C8F 1_555 1_555
H8F C8F 1_555 1_555
H9F C8F 1_555 1_555
S1 N1 1_555 1_555
C9 C10 1_555 1_555
Cu1F_2 N1F 1_555 1_555
C9F C7F 1_555 1_555

#END
