
#######################################################################
#
#                 Cambridge Crystallographic Data Centre
#                                CCDC 
#
#######################################################################
#
# If this CIF has been generated from an entry in the Cambridge 
# Structural Database, then it will include bibliographic, chemical, 
# crystal, experimental, refinement or atomic coordinate data resulting 
# from the CCDC's data processing and validation procedures.
#
#######################################################################

data_CUMAEP01
_symmetry_cell_setting           orthorhombic
_symmetry_space_group_name_H-M   'P 21 21 21'
_symmetry_Int_Tables_number      19
_space_group_name_Hall           'P 2ac 2ab'
loop_
_symmetry_equiv_pos_site_id
_symmetry_equiv_pos_as_xyz
1 x,y,z
2 1/2-x,-y,1/2+z
3 1/2+x,1/2-y,-z
4 -x,1/2+y,1/2-z
_cell_length_a                   6.5112(16)
_cell_length_b                   8.2566(17)
_cell_length_c                   19.598(5)
_cell_angle_alpha                90
_cell_angle_beta                 90
_cell_angle_gamma                90
_cell_volume                     1053.6
loop_
_atom_site_label
_atom_site_type_symbol
_atom_site_fract_x
_atom_site_fract_y
_atom_site_fract_z
C1 C 0.5816(5) 0.7661(4) 0.80081(13)
H1 H 0.4878 0.7055 0.8259
C2 C 0.5397(5) 0.7982(4) 0.73394(14)
H2 H 0.4187 0.7613 0.7141
C3 C 0.6778(7) 0.8851(4) 0.69673(15)
H3 H 0.6527 0.9078 0.6510
C4 C 0.8526(5) 0.9384(4) 0.72722(15)
H4 H 0.9484 0.9971 0.7022
C5 C 0.8884(5) 0.9054(3) 0.79553(14)
C6 C 1.0709(5) 0.9673(4) 0.83311(15)
H5 H 1.1580 1.0271 0.8018
H6 H 1.1495 0.8764 0.8505
C7 C 1.0109(6) 1.0764(4) 0.89187(15)
H7 H 1.1316 1.1338 0.9079
H8 H 0.9128 1.1562 0.8759
C8 C 0.7797(6) 1.0867(4) 0.98899(18)
H9 H 0.7320 1.0274 1.0280
H10 H 0.6646 1.1171 0.9612
H11 H 0.8507 1.1823 1.0038
Cl1 Cl 0.76745(12) 0.49387(8) 0.90551(4)
Cl2 Cl 0.89362(11) 0.69847(9) 1.04077(3)
Cu1 Cu 0.80720(4) 0.75935(3) 0.930213(13)
N1 N 0.7527(3) 0.8186(3) 0.83173(10)
N2 N 0.9196(4) 0.9849(3) 0.94920(12)
H12 H 1.028(6) 0.960(5) 0.9792(19)
Cl2B Cl 0.39362(11) 0.80153(9) 0.95923(3)
Cu1B Cu 1.30720(4) 0.74065(3) 1.069787(13)
loop_
_geom_bond_atom_site_label_1
_geom_bond_atom_site_label_2
_geom_bond_site_symmetry_1
_geom_bond_site_symmetry_2
C1 H1 1_555 1_555
C2 C1 1_555 1_555
H2 C2 1_555 1_555
C3 C2 1_555 1_555
H3 C3 1_555 1_555
C4 C3 1_555 1_555
H4 C4 1_555 1_555
C5 C4 1_555 1_555
C6 C5 1_555 1_555
H5 C6 1_555 1_555
H6 C6 1_555 1_555
C7 C6 1_555 1_555
H7 C7 1_555 1_555
H8 C7 1_555 1_555
C8 H9 1_555 1_555
H10 C8 1_555 1_555
H11 C8 1_555 1_555
Cl1 Cu1 1_555 1_555
Cl2 Cu1 1_555 1_555
Cu1 N1 1_555 1_555
N1 C1 1_555 1_555
N2 C7 1_555 1_555
H12 N2 1_555 1_555
Cl2B Cu1 1_555 1_555
Cu1B Cl2 1_555 1_555
C5 N1 1_555 1_555
C8 N2 1_555 1_555
Cu1 N2 1_555 1_555

#END
