
#######################################################################
#
#                 Cambridge Crystallographic Data Centre
#                                CCDC 
#
#######################################################################
#
# If this CIF has been generated from an entry in the Cambridge 
# Structural Database, then it will include bibliographic, chemical, 
# crystal, experimental, refinement or atomic coordinate data resulting 
# from the CCDC's data processing and validation procedures.
#
#######################################################################

data_CUMAEP
_symmetry_cell_setting           orthorhombic
_symmetry_space_group_name_H-M   'P 21 21 21'
_symmetry_Int_Tables_number      19
_space_group_name_Hall           'P 2ac 2ab'
loop_
_symmetry_equiv_pos_site_id
_symmetry_equiv_pos_as_xyz
1 x,y,z
2 1/2-x,-y,1/2+z
3 1/2+x,1/2-y,-z
4 -x,1/2+y,1/2-z
_cell_length_a                   19.627(9)
_cell_length_b                   8.288(3)
_cell_length_c                   6.520(2)
_cell_angle_alpha                90
_cell_angle_beta                 90
_cell_angle_gamma                90
_cell_volume                     1060.6
loop_
_atom_site_label
_atom_site_type_symbol
_atom_site_fract_x
_atom_site_fract_y
_atom_site_fract_z
Cl1 Cl 0.29092 -0.05137 0.14268
Cl2 Cl 0.15563 -0.25598 0.01726
Cu1 Cu 0.18015 0.00948 0.05746
C1 C 0.04540 0.15480 0.13840
C2 C -0.02300 0.18800 0.10100
C3 C -0.05300 0.13440 -0.07280
C4 C -0.01650 0.04750 -0.21290
C5 C 0.05100 0.01430 -0.16860
C6 C 0.08240 0.21820 0.32170
C7 C 0.14140 0.32680 0.25920
C8 C 0.23930 0.33590 0.02770
H1 H -0.05200 0.25700 0.21100
H2 H -0.10600 0.16000 -0.10100
H3 H -0.04000 0.00600 -0.35400
H4 H 0.08000 -0.05700 -0.27600
H5 H 0.10200 0.11800 0.40900
H6 H 0.04700 0.28600 0.41500
H7 H 0.15900 0.39000 0.39300
H8 H 0.12300 0.41300 0.14700
H9 H 0.24100 0.45700 0.08400
H10 H 0.21600 0.33900 -0.12300
H11 H 0.29100 0.29000 0.01300
H12 H 0.22500 0.22500 0.30500
N1 N 0.19900 0.23570 0.16920
N2 N 0.08190 0.06790 0.00300
Cu1A Cu 0.31985 -0.00948 0.55746
Cl1A Cl 0.20908 0.05137 -0.35732
Cl1A_2 Cl 0.20908 0.05137 0.64268
Cl2A Cl 0.34437 0.25598 0.51726
N1A N 0.30100 -0.23570 0.66920
N2A N 0.41810 -0.06790 0.50300
Cu1A_2 Cu 0.31985 -0.00948 -0.44254
C7A C 0.35860 -0.32680 0.75920
C8A C 0.26070 -0.33590 0.52770
H12A H 0.27500 -0.22500 0.80500
C1A C 0.45460 -0.15480 0.63840
C5A C 0.44900 -0.01430 0.33140
C6A C 0.41760 -0.21820 0.82170
H7A H 0.34100 -0.39000 0.89300
H8A H 0.37700 -0.41300 0.64700
H9A H 0.25900 -0.45700 0.58400
H10A H 0.28400 -0.33900 0.37700
H11A H 0.20900 -0.29000 0.51300
C2A C 0.52300 -0.18800 0.60100
C4A C 0.51650 -0.04750 0.28710
H4A H 0.42000 0.05700 0.22400
H5A H 0.39800 -0.11800 0.90900
H6A H 0.45300 -0.28600 0.91500
C3A C 0.55300 -0.13440 0.42720
H1A H 0.55200 -0.25700 0.71100
H3A H 0.54000 -0.00600 0.14600
H2A H 0.60600 -0.16000 0.39900
loop_
_geom_bond_atom_site_label_1
_geom_bond_atom_site_label_2
_geom_bond_site_symmetry_1
_geom_bond_site_symmetry_2
Cl1 Cu1 1_555 1_555
Cl2 Cu1 1_555 1_555
Cu1 N1 1_555 1_555
C1 C2 1_555 1_555
C2 C3 1_555 1_555
C3 C4 1_555 1_555
C4 C5 1_555 1_555
C5 H4 1_555 1_555
C6 C1 1_555 1_555
C7 C6 1_555 1_555
C8 H9 1_555 1_555
H1 C2 1_555 1_555
H2 C3 1_555 1_555
H3 C4 1_555 1_555
H5 C6 1_555 1_555
H6 C6 1_555 1_555
H7 C7 1_555 1_555
H8 C7 1_555 1_555
H10 C8 1_555 1_555
H11 C8 1_555 1_555
H12 N1 1_555 1_555
N1 C7 1_555 1_555
N2 Cu1 1_555 1_555
Cu1A Cl1 1_555 1_555
Cl1A Cu1 1_555 1_555
Cl1A_2 Cu1A 1_555 1_555
Cl2A Cu1A 1_555 1_555
N1A Cu1A 1_555 1_555
N2A Cu1A 1_555 1_555
Cu1A_2 Cl1A 1_555 1_555
C7A N1A 1_555 1_555
C8A N1A 1_555 1_555
H12A N1A 1_555 1_555
C1A N2A 1_555 1_555
C5A N2A 1_555 1_555
C6A C7A 1_555 1_555
H7A C7A 1_555 1_555
H8A C7A 1_555 1_555
H9A C8A 1_555 1_555
H10A C8A 1_555 1_555
H11A C8A 1_555 1_555
C2A C1A 1_555 1_555
C4A C5A 1_555 1_555
H4A C5A 1_555 1_555
H5A C6A 1_555 1_555
H6A C6A 1_555 1_555
C3A C2A 1_555 1_555
H1A C2A 1_555 1_555
H3A C4A 1_555 1_555
H2A C3A 1_555 1_555
C1 N2 1_555 1_555
C5 N2 1_555 1_555
C8 N1 1_555 1_555
C1A C6A 1_555 1_555
C4A C3A 1_555 1_555

#END
