
#######################################################################
#
#                 Cambridge Crystallographic Data Centre
#                                CCDC 
#
#######################################################################
#
# If this CIF has been generated from an entry in the Cambridge 
# Structural Database, then it will include bibliographic, chemical, 
# crystal, experimental, refinement or atomic coordinate data resulting 
# from the CCDC's data processing and validation procedures.
#
#######################################################################

data_CUMBUI
_symmetry_cell_setting           triclinic
_symmetry_space_group_name_H-M   'P -1'
_symmetry_Int_Tables_number      2
_space_group_name_Hall           '-P 1'
loop_
_symmetry_equiv_pos_site_id
_symmetry_equiv_pos_as_xyz
1 x,y,z
2 -x,-y,-z
_cell_length_a                   9.0346(11)
_cell_length_b                   11.3453(14)
_cell_length_c                   11.3835(13)
_cell_angle_alpha                73.1210(10)
_cell_angle_beta                 87.9230(10)
_cell_angle_gamma                75.9530(10)
_cell_volume                     1082.42
loop_
_atom_site_label
_atom_site_type_symbol
_atom_site_fract_x
_atom_site_fract_y
_atom_site_fract_z
Zn1 Zn 0.62643(3) 0.90478(3) 0.89577(2)
S1 S 0.90225(10) 0.58418(7) 0.64044(8)
S2 S 0.87672(9) 0.87204(7) 0.51928(6)
S3 S 0.87001(10) 1.06925(8) 0.27537(7)
O1 O 0.8377(2) 0.78638(18) 0.87706(18)
O2 O 0.6700(2) 0.75654(19) 0.76062(19)
O3 O 0.7328(2) 0.98572(17) -0.00589(16)
O4 O 0.60304(19) 1.04857(17) 0.14442(16)
N1 N 0.8810(3) 0.8216(2) 0.3149(2)
N2 N 0.8897(3) 0.7076(2) 0.4045(2)
N3 N 0.5819(2) 0.75412(18) 1.04667(18)
N4 N 0.6352(2) 0.05390(18) 1.73171(18)
C1 C 0.8001(3) 0.7347(2) 0.8022(2)
C2 C 0.9329(3) 0.6393(3) 0.7681(3)
H3 H 0.9619 0.5659 0.8396
H4 H 1.0192 0.6778 0.7507
C3 C 0.8897(3) 0.7179(3) 0.5150(3)
C4 C 0.8754(3) 0.9140(3) 0.3604(2)
C5 C 0.8642(3) 1.0547(3) 0.1227(2)
H5 H 0.8768 1.1332 0.0650
H6 H 0.9506 0.9876 0.1153
C6 C 0.7198(3) 1.0265(2) 0.0855(2)
C7 C 0.6490(3) 0.7254(2) 1.1576(2)
H7 H 0.7111 0.7757 1.1694
C8 C 0.6308(3) 0.6256(3) 1.2549(2)
H8 H 0.6810 0.6091 1.3300
C9 C 0.5378(3) 0.5496(2) 1.2413(2)
C10 C 0.4682(3) 0.5794(3) 1.1271(2)
H9 H 0.4043 0.5314 1.1132
C11 C 0.4932(3) 0.6803(3) 1.0339(2)
H10 H 0.4455 0.6978 0.9576
C12 C 0.5166(3) 0.4393(3) 1.3468(3)
H11 H 0.4668 0.4715 1.4120
H12 H 0.4497 0.3966 1.3193
C13 C 0.6615(4) 0.3462(3) 1.3964(3)
H13 H 0.7337 0.3917 1.4110
H14 H 0.7030 0.3051 1.3345
C14 C 0.6489(3) 0.2452(3) 1.5137(3)
C15 C 0.5531(3) 0.1649(3) 1.5227(3)
H15 H 0.4911 0.1736 1.4558
C16 C 0.5498(3) 0.0714(2) 1.6319(2)
H16 H 0.4849 0.0182 1.6359
C17 C 0.7256(3) 0.1333(3) 1.7235(3)
H17 H 0.7851 0.1240 1.7922
C18 C 0.7345(3) 0.2285(3) 1.6178(3)
H18 H 0.7985 0.2817 1.6167
Zn1_2 Zn 0.62643(3) 0.90478(3) -0.10423(2)
Zn1A Zn 0.37357(3) 1.09522(3) 0.10423(2)
Zn1_3 Zn 0.62643(3) -0.09522(3) 1.89577(2)
O3_2 O 0.7328(2) 0.98572(17) 0.99411(16)
O4A O 0.39696(19) 0.95143(17) 0.85558(16)
N4_2 N 0.6352(2) 1.05390(18) 0.73171(18)
O5 O 0.9610(3) 0.3112(3) 0.9030(3)
H1 H 0.9474 0.3760 0.8403
H2 H 0.9985 0.2728 0.9843
loop_
_geom_bond_atom_site_label_1
_geom_bond_atom_site_label_2
_geom_bond_site_symmetry_1
_geom_bond_site_symmetry_2
Zn1 O1 1_555 1_555
S1 C2 1_555 1_555
S2 C3 1_555 1_555
S3 C4 1_555 1_555
O1 C1 1_555 1_555
O2 C1 1_555 1_555
O3 C6 1_555 1_555
O4 C6 1_555 1_555
O5 H1 1_555 1_555
H2 O5 1_555 1_555
N1 N2 1_555 1_555
N2 C3 1_555 1_555
N3 Zn1 1_555 1_555
N4 C16 1_555 1_555
C1 C2 1_555 1_555
C2 H3 1_555 1_555
H4 C2 1_555 1_555
C3 S1 1_555 1_555
C4 S2 1_555 1_555
C5 S3 1_555 1_555
H5 C5 1_555 1_555
H6 C5 1_555 1_555
C6 C5 1_555 1_555
C7 N3 1_555 1_555
H7 C7 1_555 1_555
C8 C7 1_555 1_555
H8 C8 1_555 1_555
C9 C8 1_555 1_555
C10 C9 1_555 1_555
H9 C10 1_555 1_555
C11 N3 1_555 1_555
H10 C11 1_555 1_555
C12 C9 1_555 1_555
H11 C12 1_555 1_555
H12 C12 1_555 1_555
C13 C12 1_555 1_555
H13 C13 1_555 1_555
H14 C13 1_555 1_555
C14 C13 1_555 1_555
C15 C14 1_555 1_555
H15 C15 1_555 1_555
C16 C15 1_555 1_555
H16 C16 1_555 1_555
C17 N4 1_555 1_555
H17 C17 1_555 1_555
C18 C14 1_555 1_555
H18 C18 1_555 1_555
Zn1_2 O3 1_555 1_555
Zn1A O4 1_555 1_555
Zn1_3 N4 1_555 1_555
O3_2 Zn1 1_555 1_555
O4A Zn1 1_555 1_555
N4_2 Zn1 1_555 1_555
N1 C4 1_555 1_555
C10 C11 1_555 1_555
C17 C18 1_555 1_555

#END
