
#######################################################################
#
#                 Cambridge Crystallographic Data Centre
#                                CCDC 
#
#######################################################################
#
# If this CIF has been generated from an entry in the Cambridge 
# Structural Database, then it will include bibliographic, chemical, 
# crystal, experimental, refinement or atomic coordinate data resulting 
# from the CCDC's data processing and validation procedures.
#
#######################################################################

data_CUMBOC
_symmetry_cell_setting           triclinic
_symmetry_space_group_name_H-M   'P -1'
_symmetry_Int_Tables_number      2
_space_group_name_Hall           '-P 1'
loop_
_symmetry_equiv_pos_site_id
_symmetry_equiv_pos_as_xyz
1 x,y,z
2 -x,-y,-z
_cell_length_a                   9.2880(13)
_cell_length_b                   10.9612(15)
_cell_length_c                   11.3631(15)
_cell_angle_alpha                77.508(2)
_cell_angle_beta                 87.054(2)
_cell_angle_gamma                77.559(2)
_cell_volume                     1102.93
loop_
_atom_site_label
_atom_site_type_symbol
_atom_site_fract_x
_atom_site_fract_y
_atom_site_fract_z
Cd1 Cd 0.618217(15) 0.902463(12) 0.888133(11)
S1 S 0.87787(8) 0.58669(5) 0.60180(6)
S2 S 0.86675(8) 0.87740(5) 0.50708(5)
S3 S 0.88707(8) 1.07603(6) 0.28029(6)
O1 O 0.85516(17) 0.76173(16) 0.87647(14)
O2 O 0.68624(16) 0.76264(14) 0.74814(13)
O3 O 0.74510(19) 0.99680(15) -0.00604(14)
O4 O 0.62384(16) 1.05745(17) 0.15328(14)
N1 N 0.8912(2) 0.71127(17) 0.37703(16)
N2 N 0.8913(2) 0.82646(18) 0.29717(15)
N3 N 0.57035(18) 0.74440(15) 1.04907(14)
N4 N 0.62606(17) 0.06963(14) 1.72485(14)
C1 C 0.8126(2) 0.72429(18) 0.78980(18)
C2 C 0.9273(3) 0.6297(2) 0.7356(2)
H1 H 0.9538 0.5519 0.7967
H2 H 1.0150 0.6651 0.7177
C3 C 0.8812(2) 0.7219(2) 0.48851(19)
C4 C 0.8829(2) 0.9192(2) 0.35189(19)
C5 C 0.8766(2) 1.0638(2) 0.12660(18)
H3 H 0.8911 1.1434 0.0753
H4 H 0.9575 0.9967 0.1110
C6 C 0.7349(2) 1.03618(17) 0.09022(17)
C7 C 0.6564(3) 0.7127(2) 1.1456(2)
H5 H 0.7233 0.7633 1.1510
C8 C 0.6519(3) 0.6089(2) 1.2379(2)
H6 H 0.7172 0.5893 1.3019
C9 C 0.5503(2) 0.5336(2) 1.23545(19)
C10 C 0.4579(2) 0.5690(2) 1.1366(2)
H7 H 0.3862 0.5229 1.1310
C11 C 0.4721(2) 0.6721(2) 1.04652(19)
H8 H 0.4099 0.6927 0.9803
C12 C 0.5364(3) 0.4210(2) 1.3354(2)
H9 H 0.4531 0.4479 1.3857
H10 H 0.5133 0.3551 1.2994
C13 C 0.6617(3) 0.3651(3) 1.4117(3)
H11 H 0.6908 0.4330 1.4411
H12 H 0.7423 0.3309 1.3625
C14 C 0.6450(2) 0.2605(2) 1.5192(2)
C15 C 0.5466(3) 0.1801(2) 1.5254(2)
H13 H 0.4848 0.1888 1.4609
C16 C 0.5416(2) 0.0874(2) 1.62829(18)
H14 H 0.4756 0.0341 1.6306
C17 C 0.7201(2) 0.1481(2) 1.7180(2)
H15 H 0.7803 0.1380 1.7838
C18 C 0.7324(2) 0.2427(2) 1.6190(2)
H16 H 0.7993 0.2947 1.6191
Cd1_2 Cd 0.618217(15) 0.902463(12) -0.111867(11)
Cd1A Cd 0.381783(15) 1.097537(12) 0.111867(11)
Cd1_3 Cd 0.618217(15) -0.097537(12) 1.888133(11)
O3_2 O 0.74510(19) 0.99680(15) 0.99396(14)
O4A O 0.37616(16) 0.94255(17) 0.84672(14)
N4_2 N 0.62606(17) 1.06963(14) 0.72485(14)
O5 O 0.0414(3) 0.6768(3) 0.0905(2)
H17 H -0.0130 0.7009 0.0284
H18 H 0.1275 0.7044 0.0884
loop_
_geom_bond_atom_site_label_1
_geom_bond_atom_site_label_2
_geom_bond_site_symmetry_1
_geom_bond_site_symmetry_2
Cd1 O1 1_555 1_555
S1 C2 1_555 1_555
S2 C3 1_555 1_555
S3 C4 1_555 1_555
O1 C1 1_555 1_555
O2 Cd1 1_555 1_555
O3 C6 1_555 1_555
O4 C6 1_555 1_555
N1 N2 1_555 1_555
N2 C4 1_555 1_555
N3 Cd1 1_555 1_555
N4 C16 1_555 1_555
C1 O2 1_555 1_555
C2 C1 1_555 1_555
H1 C2 1_555 1_555
H2 C2 1_555 1_555
C3 S1 1_555 1_555
C4 S2 1_555 1_555
C5 S3 1_555 1_555
H3 C5 1_555 1_555
H4 C5 1_555 1_555
C6 C5 1_555 1_555
C7 N3 1_555 1_555
H5 C7 1_555 1_555
C8 C7 1_555 1_555
H6 C8 1_555 1_555
C9 C8 1_555 1_555
C10 C9 1_555 1_555
H7 C10 1_555 1_555
C11 N3 1_555 1_555
H8 C11 1_555 1_555
C12 C9 1_555 1_555
H9 C12 1_555 1_555
H10 C12 1_555 1_555
C13 C12 1_555 1_555
H11 C13 1_555 1_555
H12 C13 1_555 1_555
C14 C13 1_555 1_555
C15 C14 1_555 1_555
H13 C15 1_555 1_555
C16 C15 1_555 1_555
H14 C16 1_555 1_555
C17 N4 1_555 1_555
H15 C17 1_555 1_555
C18 C14 1_555 1_555
H16 C18 1_555 1_555
O5 H17 1_555 1_555
H18 O5 1_555 1_555
Cd1_2 O3 1_555 1_555
Cd1A O4 1_555 1_555
Cd1_3 N4 1_555 1_555
O3_2 Cd1 1_555 1_555
O4A Cd1 1_555 1_555
N4_2 Cd1 1_555 1_555
N1 C3 1_555 1_555
C10 C11 1_555 1_555
C17 C18 1_555 1_555

#END
