
#######################################################################
#
#                 Cambridge Crystallographic Data Centre
#                                CCDC 
#
#######################################################################
#
# If this CIF has been generated from an entry in the Cambridge 
# Structural Database, then it will include bibliographic, chemical, 
# crystal, experimental, refinement or atomic coordinate data resulting 
# from the CCDC's data processing and validation procedures.
#
#######################################################################

data_CUMCIX
_symmetry_cell_setting           monoclinic
_symmetry_space_group_name_H-M   'P c'
_symmetry_Int_Tables_number      7
_space_group_name_Hall           'P -2yc'
loop_
_symmetry_equiv_pos_site_id
_symmetry_equiv_pos_as_xyz
1 x,y,z
2 x,-y,1/2+z
_cell_length_a                   8.5255(19)
_cell_length_b                   9.781(2)
_cell_length_c                   25.403(6)
_cell_angle_alpha                90
_cell_angle_beta                 90.394(4)
_cell_angle_gamma                90
_cell_volume                     2118.25
loop_
_atom_site_label
_atom_site_type_symbol
_atom_site_fract_x
_atom_site_fract_y
_atom_site_fract_z
Ni1 Ni -0.12111(18) 0.31779(17) 0.27068(7)
Ni2 Ni -0.12327(18) 0.20934(17) 0.13540(7)
S1 S -0.4553(6) -0.1024(5) 0.3009(2)
S2 S -0.1176(7) -0.1950(5) 0.2799(2)
S3 S 0.1851(6) -0.2891(5) 0.3389(2)
S4 S -0.4669(6) 0.6190(5) 0.1053(2)
S5 S -0.1295(7) 0.7190(5) 0.1258(2)
S6 S 0.1683(6) 0.8090(5) 0.0664(2)
O1 O -0.2546(15) 0.0842(12) 0.1828(4)
O2 O -0.2724(13) 0.1527(11) 0.2659(4)
O3 O 0.1790(16) -0.5143(12) 0.2106(5)
O4 O 0.0334(12) -0.5227(11) 0.2829(4)
O5 O -0.2544(14) 0.4382(12) 0.2230(4)
O6 O -0.2776(12) 0.3671(10) 0.1402(4)
O7 O 0.1801(16) 1.0371(14) 0.1952(5)
O8 O 0.0252(13) 1.0429(13) 0.1239(4)
O9 O 0.0113(12) 0.2551(10) 0.2038(4)
H1 H 0.0847 0.3274 0.1952
H2 H 0.0722 0.1750 0.2133
C1 C -0.3076(18) 0.0754(14) 0.2276(6)
C2 C -0.424(2) -0.0431(19) 0.2357(7)
H3 H -0.3881 -0.1200 0.2149
H4 H -0.5246 -0.0151 0.2213
C3 C -0.270(3) -0.160(2) 0.3220(7)
C4 C -0.011(3) -0.2360(19) 0.3365(7)
C5 C 0.220(2) -0.3472(15) 0.2744(8)
H5 H 0.1952 -0.2725 0.2506
H6 H 0.3317 -0.3642 0.2714
C6 C 0.133(2) -0.4770(17) 0.2535(6)
C7 C -0.3088(17) 0.4449(17) 0.1800(6)
C8 C -0.428(2) 0.5598(18) 0.1702(7)
H7 H -0.3942 0.6381 0.1907
H8 H -0.5272 0.5299 0.1847
C9 C -0.285(2) 0.6690(19) 0.0856(7)
C10 C -0.031(2) 0.7622(17) 0.0681(8)
C11 C 0.209(2) 0.856(2) 0.1337(7)
H9 H 0.1736 0.7831 0.1566
H10 H 0.3211 0.8655 0.1384
C12 C 0.1297(19) 0.9899(17) 0.1509(7)
C13 C 0.1761(19) 0.1990(18) 0.3176(6)
H11 H 0.2189 0.2428 0.2885
C14 C 0.279(2) 0.1399(17) 0.3522(6)
H12 H 0.3864 0.1459 0.3472
C15 C 0.217(2) 0.0705(18) 0.3950(6)
C16 C 0.055(2) 0.0751(18) 0.3994(7)
H13 H 0.0077 0.0330 0.4280
C17 C -0.032(2) 0.137(2) 0.3644(7)
H14 H -0.1399 0.1384 0.3693
C18 C 0.324(2) -0.0087(19) 0.4335(7)
H15 H 0.2605 -0.0410 0.4626
H16 H 0.3647 -0.0884 0.4155
C19 C 0.454(2) 0.068(2) 0.4546(7)
H17 H 0.4133 0.1527 0.4692
H18 H 0.5225 0.0921 0.4258
C20 C 0.550(2) -0.0036(16) 0.4969(6)
C21 C 0.703(3) -0.016(2) 0.4917(7)
H19 H 0.7494 0.0179 0.4614
C22 C 0.804(2) -0.0807(19) 0.5305(7)
H20 H 0.9117 -0.0872 0.5251
C23 C 0.489(2) -0.052(2) 0.5415(8)
H21 H 0.3830 -0.0417 0.5485
C24 C 0.588(2) -0.1200(19) 0.5775(7)
H22 H 0.5415 -0.1608 0.6065
C25 C -1.035(2) 0.6108(15) 0.5452(7)
H23 H -1.1429 0.6054 0.5412
C26 C -0.935(3) 0.5407(18) 0.5076(7)
H24 H -0.9787 0.4885 0.4806
C27 C -0.780(2) 0.5528(16) 0.5125(7)
C28 C -0.718(2) 0.622(2) 0.5554(7)
H25 H -0.6100 0.6246 0.5612
C29 C -0.8237(18) 0.6891(16) 0.5907(7)
H26 H -0.7820 0.7393 0.6186
C30 C -0.669(3) 0.484(2) 0.4732(8)
H27 H -0.7315 0.4466 0.4444
H28 H -0.6176 0.4075 0.4906
C31 C -0.547(3) 0.576(3) 0.4509(9)
H29 H -0.4810 0.6093 0.4794
H30 H -0.5977 0.6539 0.4347
C32 C -0.446(2) 0.5083(17) 0.4113(7)
C33 C -0.506(2) 0.454(2) 0.3651(7)
H31 H -0.6134 0.4597 0.3588
C34 C -0.413(2) 0.3909(18) 0.3282(6)
H32 H -0.4600 0.3470 0.2996
C35 C -0.199(2) 0.4447(15) 0.3750(6)
H33 H -0.0908 0.4397 0.3797
C36 C -0.289(2) 0.5087(19) 0.4136(7)
H34 H -0.2383 0.5524 0.4415
N1 N -0.238(2) -0.1725(18) 0.3704(7)
N2 N -0.088(3) -0.2205(17) 0.3803(7)
N3 N -0.260(2) 0.696(2) 0.0352(6)
N4 N -0.108(2) 0.7424(17) 0.0263(7)
N5 N 0.0274(15) 0.1997(12) 0.3214(5)
N6 N 0.7398(13) -0.1301(11) 0.5737(5)
N7 N -0.9752(15) 0.6827(12) 0.5854(4)
N8 N -0.2602(15) 0.3918(16) 0.3326(5)
Ni1_2 Ni -0.12111(18) -0.68221(17) 0.27068(7)
Ni2_2 Ni -0.12327(18) 1.20934(17) 0.13540(7)
Ni2A Ni 0.87673(18) -0.20934(17) 0.63540(7)
Ni2A_2 Ni -1.12327(18) 0.79066(17) 0.63540(7)
O4_2 O 0.0334(12) 0.4773(11) 0.2829(4)
O8_2 O 0.0252(13) 0.0429(13) 0.1239(4)
N6A N -0.2602(13) 0.1301(11) 0.0737(5)
N7A N 0.0248(15) 0.3173(12) 0.0854(4)
loop_
_geom_bond_atom_site_label_1
_geom_bond_atom_site_label_2
_geom_bond_site_symmetry_1
_geom_bond_site_symmetry_2
Ni1 O2 1_555 1_555
Ni2 O1 1_555 1_555
S1 C2 1_555 1_555
S2 C3 1_555 1_555
S3 C4 1_555 1_555
S4 C8 1_555 1_555
S5 C9 1_555 1_555
S6 C10 1_555 1_555
O1 C1 1_555 1_555
O2 C1 1_555 1_555
O3 C6 1_555 1_555
O4 C6 1_555 1_555
O5 Ni1 1_555 1_555
O6 Ni2 1_555 1_555
O7 C12 1_555 1_555
O8 C12 1_555 1_555
O9 Ni1 1_555 1_555
H1 O9 1_555 1_555
H2 O9 1_555 1_555
C1 C2 1_555 1_555
C2 H3 1_555 1_555
H4 C2 1_555 1_555
C3 S1 1_555 1_555
C4 S2 1_555 1_555
C5 S3 1_555 1_555
H5 C5 1_555 1_555
H6 C5 1_555 1_555
C6 C5 1_555 1_555
C7 O5 1_555 1_555
C8 C7 1_555 1_555
H7 C8 1_555 1_555
H8 C8 1_555 1_555
C9 S4 1_555 1_555
C10 S5 1_555 1_555
C11 S6 1_555 1_555
H9 C11 1_555 1_555
H10 C11 1_555 1_555
C12 C11 1_555 1_555
C13 H11 1_555 1_555
C14 C13 1_555 1_555
H12 C14 1_555 1_555
C15 C14 1_555 1_555
C16 C15 1_555 1_555
H13 C16 1_555 1_555
C17 C16 1_555 1_555
H14 C17 1_555 1_555
C18 C15 1_555 1_555
H15 C18 1_555 1_555
H16 C18 1_555 1_555
C19 C18 1_555 1_555
H17 C19 1_555 1_555
H18 C19 1_555 1_555
C20 C19 1_555 1_555
C21 C20 1_555 1_555
H19 C21 1_555 1_555
C22 C21 1_555 1_555
H20 C22 1_555 1_555
C23 C20 1_555 1_555
H21 C23 1_555 1_555
C24 C23 1_555 1_555
H22 C24 1_555 1_555
C25 H23 1_555 1_555
C26 C25 1_555 1_555
H24 C26 1_555 1_555
C27 C26 1_555 1_555
C28 C27 1_555 1_555
H25 C28 1_555 1_555
C29 C28 1_555 1_555
H26 C29 1_555 1_555
C30 C27 1_555 1_555
H27 C30 1_555 1_555
H28 C30 1_555 1_555
C31 C30 1_555 1_555
H29 C31 1_555 1_555
H30 C31 1_555 1_555
C32 C31 1_555 1_555
C33 C32 1_555 1_555
H31 C33 1_555 1_555
C34 C33 1_555 1_555
H32 C34 1_555 1_555
C35 H33 1_555 1_555
C36 C32 1_555 1_555
H34 C36 1_555 1_555
N1 C3 1_555 1_555
N2 C4 1_555 1_555
N3 C9 1_555 1_555
N4 C10 1_555 1_555
N5 Ni1 1_555 1_555
N6 C22 1_555 1_555
N7 C25 1_555 1_555
N8 Ni1 1_555 1_555
Ni1_2 O4 1_555 1_555
Ni2_2 O8 1_555 1_555
Ni2A N6 1_555 1_555
Ni2A_2 N7 1_555 1_555
O4_2 Ni1 1_555 1_555
O8_2 Ni2 1_555 1_555
N6A Ni2 1_555 1_555
N7A Ni2 1_555 1_555
Ni2 O9 1_555 1_555
O6 C7 1_555 1_555
C13 N5 1_555 1_555
C17 N5 1_555 1_555
C24 N6 1_555 1_555
C29 N7 1_555 1_555
C34 N8 1_555 1_555
C35 C36 1_555 1_555
C35 N8 1_555 1_555
N1 N2 1_555 1_555
N3 N4 1_555 1_555

#END
