
#######################################################################
#
#                 Cambridge Crystallographic Data Centre
#                                CCDC 
#
#######################################################################
#
# If this CIF has been generated from an entry in the Cambridge 
# Structural Database, then it will include bibliographic, chemical, 
# crystal, experimental, refinement or atomic coordinate data resulting 
# from the CCDC's data processing and validation procedures.
#
#######################################################################

data_CUMCAP
_symmetry_cell_setting           triclinic
_symmetry_space_group_name_H-M   'P -1'
_symmetry_Int_Tables_number      2
_space_group_name_Hall           '-P 1'
loop_
_symmetry_equiv_pos_site_id
_symmetry_equiv_pos_as_xyz
1 x,y,z
2 -x,-y,-z
_cell_length_a                   9.3534(9)
_cell_length_b                   10.4248(11)
_cell_length_c                   11.4927(12)
_cell_angle_alpha                101.2930(10)
_cell_angle_beta                 92.0150(10)
_cell_angle_gamma                101.8410(10)
_cell_volume                     1072.22
loop_
_atom_site_label
_atom_site_type_symbol
_atom_site_fract_x
_atom_site_fract_y
_atom_site_fract_z
Mn1 Mn 0.36504(3) 0.38055(2) 0.11977(2)
S1 S 0.14630(7) 0.07232(5) 0.40179(5)
S2 S 0.13324(6) 0.36893(5) 0.49860(4)
S3 S 0.11772(6) 0.57006(6) 0.72268(5)
O1 O 0.12045(17) 0.26918(15) 0.14079(12)
O2 O 0.30813(15) 0.25376(14) 0.25366(12)
O3 O 0.30425(19) 0.49429(15) 1.00394(12)
O4 O 0.40283(15) 0.58210(15) 0.85542(12)
N1 N 0.1551(2) 0.19717(18) 0.62666(15)
N2 N 0.1513(2) 0.31517(18) 0.70605(15)
N3 N 0.36532(18) 0.19786(15) -0.02607(14)
N4 N 0.36015(17) -0.44411(15) -0.72647(13)
C1 C 0.1745(2) 0.22216(18) 0.22063(16)
C2 C 0.0713(2) 0.1203(2) 0.27409(19)
H1 H 0.0373 0.0402 0.2127
H2 H -0.0136 0.1566 0.2968
C3 C 0.1451(2) 0.2091(2) 0.51669(17)
C4 C 0.1379(2) 0.4114(2) 0.65264(17)
C5 C 0.1457(2) 0.5572(2) 0.87552(17)
H3 H 0.1259 0.6366 0.9263
H4 H 0.0749 0.4806 0.8892
C6 C 0.2984(2) 0.54246(17) 0.91295(15)
C7 C 0.4218(3) 0.2199(2) -0.12652(19)
H7 H 0.4518 0.3082 -0.1349
C8 C 0.4384(3) 0.1191(2) -0.2190(2)
H8 H 0.4785 0.1407 -0.2874
C9 C 0.3961(2) -0.01341(19) -0.21113(16)
C10 C 0.3342(3) -0.0368(2) -0.1083(2)
H9 H 0.3012 -0.1242 -0.0986
C11 C 0.3211(3) 0.0700(2) -0.0191(2)
H10 H 0.2791 0.0513 0.0495
C12 C 0.4171(2) -0.1255(2) -0.31022(17)
H11 H 0.5197 -0.1116 -0.3259
H12 H 0.3907 -0.2099 -0.2845
C13 C 0.3265(2) -0.1338(2) -0.42336(18)
H13 H 0.3535 -0.0488 -0.4479
H14 H 0.2244 -0.1459 -0.4061
C14 C 0.3401(2) -0.24427(18) -0.52707(16)
C15 C 0.4472(2) -0.31972(19) -0.52897(16)
H15 H 0.5145 -0.3049 -0.4636
C16 C 0.4528(2) -0.41719(19) -0.62896(16)
H16 H 0.5249 -0.4666 -0.6282
C17 C 0.2572(2) -0.37117(19) -0.72459(17)
H17 H 0.1919 -0.3875 -0.7914
C18 C 0.2434(2) -0.2728(2) -0.62800(17)
H18 H 0.1693 -0.2258 -0.6307
Mn1_2 Mn 0.36504(3) 0.38055(2) 1.11977(2)
Mn1A Mn 0.63496(3) 0.61945(2) 0.88023(2)
Mn1_3 Mn 0.36504(3) -0.61945(2) -0.88023(2)
O3_2 O 0.30425(19) 0.49429(15) 0.00394(12)
O4A O 0.59717(15) 0.41790(15) 0.14458(12)
N4_2 N 0.36015(17) 0.55589(15) 0.27353(13)
O5 O 1.0211(2) 0.8034(2) 0.10005(16)
H5 H 0.9649 0.7940 0.0396
H6 H 0.9731 0.7711 0.1522
loop_
_geom_bond_atom_site_label_1
_geom_bond_atom_site_label_2
_geom_bond_site_symmetry_1
_geom_bond_site_symmetry_2
Mn1 O1 1_555 1_555
S1 C2 1_555 1_555
S2 C3 1_555 1_555
S3 C4 1_555 1_555
O1 C1 1_555 1_555
O2 Mn1 1_555 1_555
O3 C6 1_555 1_555
O4 C6 1_555 1_555
O5 H5 1_555 1_555
N1 N2 1_555 1_555
N2 C4 1_555 1_555
N3 Mn1 1_555 1_555
N4 C16 1_555 1_555
C1 O2 1_555 1_555
C2 C1 1_555 1_555
H1 C2 1_555 1_555
H2 C2 1_555 1_555
C3 S1 1_555 1_555
C4 S2 1_555 1_555
C5 S3 1_555 1_555
H3 C5 1_555 1_555
H4 C5 1_555 1_555
C6 C5 1_555 1_555
H6 O5 1_555 1_555
C7 N3 1_555 1_555
H7 C7 1_555 1_555
C8 C7 1_555 1_555
H8 C8 1_555 1_555
C9 C8 1_555 1_555
C10 C9 1_555 1_555
H9 C10 1_555 1_555
C11 N3 1_555 1_555
H10 C11 1_555 1_555
C12 C9 1_555 1_555
H11 C12 1_555 1_555
H12 C12 1_555 1_555
C13 C12 1_555 1_555
H13 C13 1_555 1_555
H14 C13 1_555 1_555
C14 C13 1_555 1_555
C15 C14 1_555 1_555
H15 C15 1_555 1_555
C16 C15 1_555 1_555
H16 C16 1_555 1_555
C17 N4 1_555 1_555
H17 C17 1_555 1_555
C18 C14 1_555 1_555
H18 C18 1_555 1_555
Mn1_2 O3 1_555 1_555
Mn1A O4 1_555 1_555
Mn1_3 N4 1_555 1_555
O3_2 Mn1 1_555 1_555
O4A Mn1 1_555 1_555
N4_2 Mn1 1_555 1_555
N1 C3 1_555 1_555
C10 C11 1_555 1_555
C17 C18 1_555 1_555

#END
