
#######################################################################
#
#                 Cambridge Crystallographic Data Centre
#                                CCDC 
#
#######################################################################
#
# If this CIF has been generated from an entry in the Cambridge 
# Structural Database, then it will include bibliographic, chemical, 
# crystal, experimental, refinement or atomic coordinate data resulting 
# from the CCDC's data processing and validation procedures.
#
#######################################################################

data_CUMCET
_symmetry_cell_setting           triclinic
_symmetry_space_group_name_H-M   'P -1'
_symmetry_Int_Tables_number      2
_space_group_name_Hall           '-P 1'
loop_
_symmetry_equiv_pos_site_id
_symmetry_equiv_pos_as_xyz
1 x,y,z
2 -x,-y,-z
_cell_length_a                   9.3237(8)
_cell_length_b                   10.2948(9)
_cell_length_c                   11.4186(9)
_cell_angle_alpha                102.1470(10)
_cell_angle_beta                 91.8110(10)
_cell_angle_gamma                101.5620(10)
_cell_volume                     1046.62
loop_
_atom_site_label
_atom_site_type_symbol
_atom_site_fract_x
_atom_site_fract_y
_atom_site_fract_z
Co1 Co 0.86478(4) 0.37872(3) 0.11715(3)
S1 S 0.64276(10) 0.07161(7) 0.39135(7)
S2 S 0.63371(9) 0.37264(7) 0.49573(6)
S3 S 0.62721(9) 0.57610(8) 0.72592(6)
O1 O 0.6295(2) 0.27777(19) 0.13476(16)
O2 O 0.8137(2) 0.25421(18) 0.24661(16)
O3 O 0.8114(2) 0.4905(2) 1.00409(16)
O4 O 0.91151(19) 0.58204(19) 0.85740(15)
N1 N 0.6599(3) 0.1971(2) 0.6195(2)
N2 N 0.6582(3) 0.3168(2) 0.7026(2)
N3 N 0.8689(2) 0.2053(2) -0.02545(18)
N4 N 0.8569(2) -0.4535(2) -0.73442(17)
C1 C 0.6803(3) 0.2269(3) 0.2138(2)
C2 C 0.5731(3) 0.1258(3) 0.2651(2)
H3 H 0.5368 0.0459 0.2015
H4 H 0.4899 0.1659 0.2891
C3 C 0.6461(3) 0.2102(3) 0.5099(2)
C4 C 0.6435(3) 0.4146(3) 0.6513(2)
C5 C 0.6549(3) 0.5607(3) 0.8788(2)
H5 H 0.6366 0.6416 0.9319
H6 H 0.5826 0.4838 0.8914
C6 C 0.8065(3) 0.5420(2) 0.9150(2)
C7 C 0.9224(3) 0.2274(3) -0.1275(2)
H7 H 0.9508 0.3168 -0.1354
C8 C 0.9381(4) 0.1250(3) -0.2222(2)
H8 H 0.9755 0.1465 -0.2919
C9 C 0.8990(3) -0.0093(3) -0.2147(2)
C10 C 0.8409(4) -0.0324(3) -0.1096(3)
H9 H 0.8099 -0.1209 -0.1001
C11 C 0.8286(4) 0.0754(3) -0.0187(3)
H10 H 0.7899 0.0566 0.0515
C12 C 0.9194(3) -0.1229(3) -0.3157(2)
H11 H 0.8989 -0.2078 -0.2890
H12 H 1.0211 -0.1064 -0.3352
C13 C 0.8215(3) -0.1371(3) -0.4275(2)
H13 H 0.8425 -0.0517 -0.4532
H14 H 0.7203 -0.1522 -0.4068
C14 C 0.8354(3) -0.2497(2) -0.5325(2)
C15 C 0.9436(3) -0.3258(3) -0.5352(2)
H15 H 1.0113 -0.3097 -0.4694
C16 C 0.9498(3) -0.4254(3) -0.6361(2)
H16 H 1.0223 -0.4755 -0.6357
C17 C 0.7533(3) -0.3804(3) -0.7316(2)
H17 H 0.6876 -0.3976 -0.7989
C18 C 0.7389(3) -0.2808(3) -0.6340(2)
H18 H 0.6637 -0.2339 -0.6363
Co1_2 Co 0.86478(4) 0.37872(3) 1.11715(3)
Co1A Co 1.13522(4) 0.62128(3) 0.88285(3)
Co1_3 Co 0.86478(4) -0.62128(3) -0.88285(3)
O3_2 O 0.8114(2) 0.4905(2) 0.00409(16)
O4A O 1.08849(19) 0.41796(19) 0.14260(15)
N4_2 N 0.8569(2) 0.5465(2) 0.26558(17)
O5 O 0.4854(3) 0.1989(2) 0.8953(2)
H1 H 0.5318 0.2144 0.9628
H2 H 0.5327 0.2295 0.8406
loop_
_geom_bond_atom_site_label_1
_geom_bond_atom_site_label_2
_geom_bond_site_symmetry_1
_geom_bond_site_symmetry_2
Co1 O1 1_555 1_555
S1 C2 1_555 1_555
S2 C3 1_555 1_555
S3 C4 1_555 1_555
O1 C1 1_555 1_555
O2 Co1 1_555 1_555
O3 C6 1_555 1_555
O4 C6 1_555 1_555
O5 H1 1_555 1_555
H2 O5 1_555 1_555
N1 N2 1_555 1_555
N2 C4 1_555 1_555
N3 Co1 1_555 1_555
N4 C16 1_555 1_555
C1 O2 1_555 1_555
C2 C1 1_555 1_555
H3 C2 1_555 1_555
H4 C2 1_555 1_555
C3 S1 1_555 1_555
C4 S2 1_555 1_555
C5 S3 1_555 1_555
H5 C5 1_555 1_555
H6 C5 1_555 1_555
C6 C5 1_555 1_555
C7 N3 1_555 1_555
H7 C7 1_555 1_555
C8 C7 1_555 1_555
H8 C8 1_555 1_555
C9 C8 1_555 1_555
C10 C9 1_555 1_555
H9 C10 1_555 1_555
C11 N3 1_555 1_555
H10 C11 1_555 1_555
C12 C9 1_555 1_555
H11 C12 1_555 1_555
H12 C12 1_555 1_555
C13 C12 1_555 1_555
H13 C13 1_555 1_555
H14 C13 1_555 1_555
C14 C13 1_555 1_555
C15 C14 1_555 1_555
H15 C15 1_555 1_555
C16 C15 1_555 1_555
H16 C16 1_555 1_555
C17 N4 1_555 1_555
H17 C17 1_555 1_555
C18 C14 1_555 1_555
H18 C18 1_555 1_555
Co1_2 O3 1_555 1_555
Co1A O4 1_555 1_555
Co1_3 N4 1_555 1_555
O3_2 Co1 1_555 1_555
O4A Co1 1_555 1_555
N4_2 Co1 1_555 1_555
N1 C3 1_555 1_555
C10 C11 1_555 1_555
C17 C18 1_555 1_555

#END
