
#######################################################################
#
#                 Cambridge Crystallographic Data Centre
#                                CCDC 
#
#######################################################################
#
# If this CIF has been generated from an entry in the Cambridge 
# Structural Database, then it will include bibliographic, chemical, 
# crystal, experimental, refinement or atomic coordinate data resulting 
# from the CCDC's data processing and validation procedures.
#
#######################################################################

data_CUMDAQ
_symmetry_cell_setting           monoclinic
_symmetry_space_group_name_H-M   'C 2/c'
_symmetry_Int_Tables_number      15
_space_group_name_Hall           '-C 2yn'
loop_
_symmetry_equiv_pos_site_id
_symmetry_equiv_pos_as_xyz
1 x,y,z
2 -x,y,1/2-z
3 1/2+x,1/2+y,z
4 1/2-x,1/2+y,1/2-z
5 -x,-y,-z
6 x,-y,1/2+z
7 1/2-x,1/2-y,-z
8 1/2+x,1/2-y,1/2+z
_cell_length_a                   23.144(9)
_cell_length_b                   13.813(5)
_cell_length_c                   5.6241(19)
_cell_angle_alpha                90
_cell_angle_beta                 102.251(17)
_cell_angle_gamma                90
_cell_volume                     1757.01
loop_
_atom_site_label
_atom_site_type_symbol
_atom_site_fract_x
_atom_site_fract_y
_atom_site_fract_z
K1 K 0.0000 0.1500(11) -0.2500
O4 O -0.103(5) 0.134(7) -0.83(2)
O5 O -0.171(4) 0.250(6) -0.878(15)
O6 O -0.060(3) 0.011(6) -0.593(14)
Ce1 Ce 0.0000 0.39437(8) 0.2500
P1 P -0.08296(16) 0.3655(3) -0.2685(7)
O1 O -0.0545(4) 0.4620(7) -0.1600(18)
O2 O -0.0705(5) 0.2928(8) -0.0606(18)
O3 O -0.0655(5) 0.3346(8) -0.4964(17)
C1 C -0.1610(13) 0.387(2) -0.307(7)
H1 H -0.1708 0.3858 -0.1479
H2 H -0.1694 0.4514 -0.3730
C2 C -0.2622(10) 0.357(2) -0.535(7)
H3 H -0.2633 0.4119 -0.6420
H4 H -0.2752 0.3774 -0.3900
C3 C -0.1974(18) 0.2237(19) -0.337(6)
H5 H -0.2068 0.2350 -0.1788
H6 H -0.1569 0.2011 -0.3086
N1 N -0.2013(10) 0.3172(17) -0.468(6)
Ce1D Ce 0.0000 0.60563(8) -0.2500
Ce1_2 Ce 0.0000 0.39437(8) -0.7500
Ce1F Ce -0.5000 0.10563(8) -1.2500
Ce1B Ce -0.5000 -0.10563(8) -0.7500
Ce1F_2 Ce -0.5000 0.10563(8) -0.2500
P1F P -0.41704(16) 0.1345(3) -0.7315(7)
O1F O -0.4455(4) 0.0380(7) -0.8400(18)
O1D O 0.0545(4) 0.5380(7) 0.1600(18)
O1A O 0.0545(4) 0.4620(7) 0.6600(18)
O1E O -0.0545(4) 0.5380(7) 0.3400(18)
O2F O -0.4295(5) 0.2072(8) -0.9394(18)
O2A O 0.0705(5) 0.2928(8) 0.5606(18)
O3F O -0.4345(5) 0.1654(8) -0.5036(17)
O3_2 O -0.0655(5) 0.3346(8) 0.5036(17)
O3A O 0.0655(5) 0.3346(8) -0.0036(17)
C1F C -0.3390(13) 0.113(2) -0.693(7)
H1F H -0.3292 0.1142 -0.8521
H2F H -0.3306 0.0486 -0.6270
C2F C -0.2378(10) 0.143(2) -0.465(7)
H3F H -0.2367 0.0881 -0.3580
H4F H -0.2248 0.1226 -0.6100
C3F C -0.3026(18) 0.2763(19) -0.663(6)
H5F H -0.2932 0.2650 -0.8212
H6F H -0.3431 0.2989 -0.6914
N1F N -0.2987(10) 0.1828(17) -0.532(6)
C4? C -0.1627(14) 0.398(2) -0.383(7)
C5? C -0.2661(11) 0.342(2) -0.430(8)
C6? C -0.1921(19) 0.245(3) -0.568(7)
H7? H -0.1734 0.4497 -0.2839
H8? H -0.1682 0.4219 -0.5490
H9? H -0.2754 0.3739 -0.5863
H10? H -0.2722 0.3877 -0.3069
H11? H -0.1513 0.2231 -0.5310
H12? H -0.2000 0.2766 -0.7248
N2? N -0.2034(11) 0.311(2) -0.377(6)
loop_
_geom_bond_atom_site_label_1
_geom_bond_atom_site_label_2
_geom_bond_site_symmetry_1
_geom_bond_site_symmetry_2
Ce1 O1 1_555 1_555
P1 O1 1_555 1_555
O1 Ce1D 1_555 1_555
O2 Ce1 1_555 1_555
O3 P1 1_555 1_555
C1 P1 1_555 1_555
H1 C1 1_555 1_555
H2 C1 1_555 1_555
C2 H3 1_555 1_555
H4 C2 1_555 1_555
C3 H5 1_555 1_555
H6 C3 1_555 1_555
N1 C1 1_555 1_555
Ce1D O1D 1_555 1_555
Ce1_2 O3 1_555 1_555
Ce1F O1F 1_555 1_555
Ce1B O1F 1_555 1_555
Ce1F_2 O3F 1_555 1_555
P1F O1F 1_555 1_555
O1D Ce1 1_555 1_555
O1A Ce1 1_555 1_555
O1E Ce1 1_555 1_555
O2F Ce1F 1_555 1_555
O2A Ce1 1_555 1_555
O3F P1F 1_555 1_555
O3_2 Ce1 1_555 1_555
O3A Ce1 1_555 1_555
C1F P1F 1_555 1_555
H1F C1F 1_555 1_555
H2F C1F 1_555 1_555
C2F C3 1_555 1_555
H3F C2F 1_555 1_555
H4F C2F 1_555 1_555
C3F C2 1_555 1_555
H5F C3F 1_555 1_555
H6F C3F 1_555 1_555
N1F C1F 1_555 1_555
P1 O2 1_555 1_555
C2 N1 1_555 1_555
C3 N1 1_555 1_555
P1F O2F 1_555 1_555
C2F N1F 1_555 1_555
C3F N1F 1_555 1_555

#END
