
#######################################################################
#
#                 Cambridge Crystallographic Data Centre
#                                CCDC 
#
#######################################################################
#
# If this CIF has been generated from an entry in the Cambridge 
# Structural Database, then it will include bibliographic, chemical, 
# crystal, experimental, refinement or atomic coordinate data resulting 
# from the CCDC's data processing and validation procedures.
#
#######################################################################

data_CUMFAT
_symmetry_cell_setting           monoclinic
_symmetry_space_group_name_H-M   'C 2/c'
_symmetry_Int_Tables_number      15
_space_group_name_Hall           '-C 2yn'
loop_
_symmetry_equiv_pos_site_id
_symmetry_equiv_pos_as_xyz
1 x,y,z
2 -x,y,1/2-z
3 1/2+x,1/2+y,z
4 1/2-x,1/2+y,1/2-z
5 -x,-y,-z
6 x,-y,1/2+z
7 1/2-x,1/2-y,-z
8 1/2+x,1/2-y,1/2+z
_cell_length_a                   22.824(5)
_cell_length_b                   10.742(2)
_cell_length_c                   19.156(4)
_cell_angle_alpha                90
_cell_angle_beta                 102.37(3)
_cell_angle_gamma                90
_cell_volume                     4587.55
loop_
_atom_site_label
_atom_site_type_symbol
_atom_site_fract_x
_atom_site_fract_y
_atom_site_fract_z
C1 C 0.3939(4) 0.1761(9) 0.1333(6)
H1 H 0.4030 0.2094 0.1809
H2 H 0.3707 0.1014 0.1325
H3 H 0.3714 0.2362 0.1013
C2 C 0.4505(3) 0.1474(6) 0.1104(4)
C3 C 0.5316(3) 0.1609(6) 0.0686(4)
C4 C 0.5787(4) 0.2037(7) 0.0360(4)
H4 H 0.5810 0.2859 0.0215
C5 C 0.6200(4) 0.1161(10) 0.0274(5)
H5 H 0.6511 0.1387 0.0056
C6 C 0.6167(5) -0.0084(10) 0.0510(5)
H6 H 0.6460 -0.0652 0.0452
C7 C 0.5705(5) -0.0470(9) 0.0826(6)
H7 H 0.5674 -0.1286 0.0976
C8 C 0.5298(4) 0.0423(7) 0.0903(4)
C9 C 0.4557(6) -0.0766(8) 0.1509(6)
H8 H 0.4772 -0.1482 0.1385
H9 H 0.4133 -0.0894 0.1312
C10 C 0.4661(6) -0.0674(9) 0.2343(7)
H10 H 0.4482 0.0085 0.2477
H11 H 0.4474 -0.1376 0.2528
C11 C 0.5921(3) 0.5955(5) 0.0820(3)
C12 C 0.6155(3) 0.6251(5) 0.1589(3)
C13 C 0.5901(3) 0.5767(5) 0.2126(3)
H12 H 0.5578 0.5221 0.2016
C14 C 0.6136(3) 0.6108(6) 0.2832(3)
C15 C 0.5884(3) 0.5540(6) 0.3411(4)
C16 C 0.6610(3) 0.6941(5) 0.2996(3)
H13 H 0.6759 0.7155 0.3471
C17 C 0.6870(3) 0.7468(5) 0.2467(3)
C18 C 0.6643(3) 0.7106(5) 0.1767(3)
H14 H 0.6812 0.7427 0.1405
C19 C 0.7379(3) 0.8397(7) 0.2666(4)
C20 C 0.7614(6) 0.8808(15) 0.2033(6)
H15 H 0.7285 0.9060 0.1657
H16 H 0.7824 0.8132 0.1869
H17 H 0.7882 0.9497 0.2165
C21 C 0.7168(6) 0.9491(9) 0.3007(10)
H18 H 0.7496 1.0056 0.3160
H19 H 0.7015 0.9229 0.3412
H20 H 0.6856 0.9901 0.2669
C22 C 0.7902(5) 0.7771(13) 0.3201(7)
H21 H 0.8232 0.8342 0.3319
H22 H 0.8028 0.7037 0.2988
H23 H 0.7771 0.7547 0.3628
N1 N 0.4818(3) 0.2265(5) 0.0812(3)
N2 N 0.4757(3) 0.0350(6) 0.1189(4)
O1 O 0.5438(2) 0.5361(5) 0.0617(3)
O2 O 0.6195(2) 0.6317(5) 0.0366(2)
O3 O 0.5530(3) 0.4603(5) 0.3252(3)
O4 O 0.6028(3) 0.5909(5) 0.4043(3)
Zn1 Zn 0.45696(2) 0.42807(4) 0.06143(2)
C1A C 0.6061(4) 0.1761(9) 0.3667(6)
H1A H 0.5970 0.2094 0.3191
H2A H 0.6293 0.1014 0.3675
H3A H 0.6286 0.2362 0.3987
C2A C 0.5495(3) 0.1474(6) 0.3896(4)
C3A C 0.4684(3) 0.1609(6) 0.4314(4)
C4A C 0.4213(4) 0.2037(7) 0.4640(4)
H4A H 0.4190 0.2859 0.4785
C5A C 0.3800(4) 0.1161(10) 0.4726(5)
H5A H 0.3489 0.1387 0.4944
C6A C 0.3833(5) -0.0084(10) 0.4490(5)
H6A H 0.3540 -0.0652 0.4548
C7A C 0.4295(5) -0.0470(9) 0.4174(6)
H7A H 0.4326 -0.1286 0.4024
C8A C 0.4702(4) 0.0423(7) 0.4097(4)
C9A C 0.5443(6) -0.0766(8) 0.3491(6)
H8A H 0.5228 -0.1482 0.3615
H9A H 0.5867 -0.0894 0.3688
C10A C 0.5339(6) -0.0674(9) 0.2657(7)
H10A H 0.5518 0.0085 0.2523
H11A H 0.5526 -0.1376 0.2472
N1A N 0.5182(3) 0.2265(5) 0.4188(3)
N2A N 0.5243(3) 0.0350(6) 0.3811(4)
C11A C 0.4079(3) 0.5955(5) 0.4180(3)
C12A C 0.3845(3) 0.6251(5) 0.3411(3)
C13A C 0.4099(3) 0.5767(5) 0.2874(3)
H12A H 0.4422 0.5221 0.2984
C14A C 0.3864(3) 0.6108(6) 0.2168(3)
C15A C 0.4116(3) 0.5540(6) 0.1589(4)
C16A C 0.3390(3) 0.6941(5) 0.2004(3)
H13A H 0.3241 0.7155 0.1529
C17A C 0.3130(3) 0.7468(5) 0.2533(3)
C18A C 0.3357(3) 0.7106(5) 0.3233(3)
H14A H 0.3188 0.7427 0.3595
C19A C 0.2621(3) 0.8397(7) 0.2334(4)
C20A C 0.2386(6) 0.8808(15) 0.2967(6)
H15A H 0.2715 0.9060 0.3343
H16A H 0.2176 0.8132 0.3131
H17A H 0.2118 0.9497 0.2835
C21A C 0.2832(6) 0.9491(9) 0.1993(10)
H18A H 0.2504 1.0056 0.1840
H19A H 0.2985 0.9229 0.1588
H20A H 0.3144 0.9901 0.2331
C22A C 0.2098(5) 0.7771(13) 0.1799(7)
H21A H 0.1768 0.8342 0.1681
H22A H 0.1972 0.7037 0.2012
H23A H 0.2229 0.7547 0.1372
O1A O 0.4562(2) 0.5361(5) 0.4383(3)
O2A O 0.3805(2) 0.6317(5) 0.4634(2)
O3A O 0.4470(3) 0.4603(5) 0.1748(3)
O4A O 0.3972(3) 0.5909(5) 0.0957(3)
Zn1A Zn 0.54304(2) 0.42807(4) 0.43857(2)
O1D O 0.4562(2) 0.4639(5) -0.0617(3)
O1E O 0.5438(2) 0.4639(5) 0.5617(3)
O2D O 0.3805(2) 0.3683(5) -0.0366(2)
O2E O 0.6195(2) 0.3683(5) 0.5366(2)
Zn1D Zn 0.54304(2) 0.57193(4) -0.06143(2)
Zn1E Zn 0.45696(2) 0.57193(4) 0.56143(2)
O5 O 0.2732(4) 0.6294(11) 0.0177(5)
H24 H 0.3069 0.5924 0.0258
H25 H 0.2456 0.5770 0.0194
O6 O 0.7418(4) 0.6213(12) 0.0209(7)
H26 H 0.7072 0.5978 0.0256
H27 H 0.7633 0.6381 0.0617
loop_
_geom_bond_atom_site_label_1
_geom_bond_atom_site_label_2
_geom_bond_site_symmetry_1
_geom_bond_site_symmetry_2
C1 H1 1_555 1_555
H2 C1 1_555 1_555
H3 C1 1_555 1_555
C2 C1 1_555 1_555
C3 C4 1_555 1_555
C4 H4 1_555 1_555
C5 C4 1_555 1_555
H5 C5 1_555 1_555
C6 C5 1_555 1_555
H6 C6 1_555 1_555
C7 C6 1_555 1_555
H7 C7 1_555 1_555
C8 C3 1_555 1_555
C9 H8 1_555 1_555
H9 C9 1_555 1_555
C10 C9 1_555 1_555
H10 C10 1_555 1_555
H11 C10 1_555 1_555
C11 C12 1_555 1_555
C12 C13 1_555 1_555
C13 H12 1_555 1_555
C14 C13 1_555 1_555
C15 C14 1_555 1_555
C16 C14 1_555 1_555
H13 C16 1_555 1_555
C17 C16 1_555 1_555
C18 C12 1_555 1_555
H14 C18 1_555 1_555
C19 C17 1_555 1_555
C20 C19 1_555 1_555
H15 C20 1_555 1_555
H16 C20 1_555 1_555
H17 C20 1_555 1_555
C21 C19 1_555 1_555
H18 C21 1_555 1_555
H19 C21 1_555 1_555
H20 C21 1_555 1_555
C22 C19 1_555 1_555
H21 C22 1_555 1_555
H22 C22 1_555 1_555
H23 C22 1_555 1_555
N1 C2 1_555 1_555
N2 C2 1_555 1_555
O1 C11 1_555 1_555
O2 C11 1_555 1_555
O3 C15 1_555 1_555
O4 C15 1_555 1_555
Zn1 N1 1_555 1_555
O5 H24 1_555 1_555
H25 O5 1_555 1_555
O6 H26 1_555 1_555
H27 O6 1_555 1_555
C1A H1A 1_555 1_555
H2A C1A 1_555 1_555
H3A C1A 1_555 1_555
C2A C1A 1_555 1_555
C3A C4A 1_555 1_555
C4A H4A 1_555 1_555
C5A C4A 1_555 1_555
H5A C5A 1_555 1_555
C6A C5A 1_555 1_555
H6A C6A 1_555 1_555
C7A C6A 1_555 1_555
H7A C7A 1_555 1_555
C8A C3A 1_555 1_555
C9A H8A 1_555 1_555
H9A C9A 1_555 1_555
C10A C10 1_555 1_555
H10A C10A 1_555 1_555
H11A C10A 1_555 1_555
N1A C2A 1_555 1_555
N2A C2A 1_555 1_555
C11A C12A 1_555 1_555
C12A C13A 1_555 1_555
C13A H12A 1_555 1_555
C14A C13A 1_555 1_555
C15A C14A 1_555 1_555
C16A C14A 1_555 1_555
H13A C16A 1_555 1_555
C17A C16A 1_555 1_555
C18A C12A 1_555 1_555
H14A C18A 1_555 1_555
C19A C17A 1_555 1_555
C20A C19A 1_555 1_555
H15A C20A 1_555 1_555
H16A C20A 1_555 1_555
H17A C20A 1_555 1_555
C21A C19A 1_555 1_555
H18A C21A 1_555 1_555
H19A C21A 1_555 1_555
H20A C21A 1_555 1_555
C22A C19A 1_555 1_555
H21A C22A 1_555 1_555
H22A C22A 1_555 1_555
H23A C22A 1_555 1_555
O1A C11A 1_555 1_555
O2A C11A 1_555 1_555
O3A Zn1 1_555 1_555
O4A Zn1 1_555 1_555
Zn1A O3 1_555 1_555
O1D Zn1 1_555 1_555
O1E Zn1A 1_555 1_555
O2D Zn1 1_555 1_555
O2E Zn1A 1_555 1_555
Zn1D O1 1_555 1_555
Zn1E O1A 1_555 1_555
C3 N1 1_555 1_555
C7 C8 1_555 1_555
C8 N2 1_555 1_555
C9 N2 1_555 1_555
C17 C18 1_555 1_555
O1 Zn1 1_555 1_555
O2 Zn1D 1_555 1_555
O4 Zn1A 1_555 1_555
C3A N1A 1_555 1_555
C7A C8A 1_555 1_555
C8A N2A 1_555 1_555
C9A C10A 1_555 1_555
C9A N2A 1_555 1_555
N1A Zn1A 1_555 1_555
C15A O3A 1_555 1_555
C15A O4A 1_555 1_555
C17A C18A 1_555 1_555
O1A Zn1A 1_555 1_555
O2A Zn1E 1_555 1_555
O1D Zn1D 1_555 1_555
O1E Zn1E 1_555 1_555

#END
