
#######################################################################
#
#                 Cambridge Crystallographic Data Centre
#                                CCDC 
#
#######################################################################
#
# If this CIF has been generated from an entry in the Cambridge 
# Structural Database, then it will include bibliographic, chemical, 
# crystal, experimental, refinement or atomic coordinate data resulting 
# from the CCDC's data processing and validation procedures.
#
#######################################################################

data_CUMFUM
_symmetry_cell_setting           monoclinic
_symmetry_space_group_name_H-M   'P 21/c'
_symmetry_Int_Tables_number      14
_space_group_name_Hall           '-P 2ybc'
loop_
_symmetry_equiv_pos_site_id
_symmetry_equiv_pos_as_xyz
1 x,y,z
2 -x,1/2+y,1/2-z
3 -x,-y,-z
4 x,1/2-y,1/2+z
_cell_length_a                   5.5016(11)
_cell_length_b                   15.343(3)
_cell_length_c                   24.415(5)
_cell_angle_alpha                90
_cell_angle_beta                 94.63(3)
_cell_angle_gamma                90
_cell_volume                     2054.17
loop_
_atom_site_label
_atom_site_type_symbol
_atom_site_fract_x
_atom_site_fract_y
_atom_site_fract_z
Cu1 Cu 0.76623(18) 0.08219(6) 0.25731(4)
C1 C 0.7643(12) 0.1982(4) 0.3616(3)
N1 N 0.8610(11) 0.1740(4) 0.3135(2)
C2 C 0.8222(13) -0.0373(4) 0.3607(3)
C3 C 0.5181(15) -0.0662(5) 0.3029(3)
H1 H 0.4060 -0.0635 0.2723
N2 N 0.7017(11) -0.0108(4) 0.3112(2)
N3 N 0.5077(12) -0.1262(4) 0.3422(3)
N4 N 1.0619(12) 0.2898(4) 0.3462(3)
C4 C 0.8280(17) 0.3136(6) 0.4302(3)
H2 H 0.9120 0.3624 0.4440
C5 C 0.7828(18) -0.1531(5) 0.4287(3)
H3 H 0.7019 -0.2011 0.4417
C6 C 0.8880(14) 0.2732(5) 0.3823(3)
C7 C 0.7028(15) -0.1115(5) 0.3799(3)
C8 C 1.0371(14) 0.2299(5) 0.3065(3)
H4 H 1.1340 0.2278 0.2770
C9 C 1.1080(16) -0.0449(6) 0.4389(4)
H5 H 1.2420 -0.0230 0.4602
C10 C 0.5742(14) 0.1643(5) 0.3886(3)
H6 H 0.4888 0.1154 0.3753
C11 C 1.0292(14) -0.0042(5) 0.3905(3)
H7 H 1.1113 0.0439 0.3780
C12 C 1.2342(16) 0.3642(5) 0.3464(4)
H8 H 1.3912 0.3436 0.3364
H9 H 1.2569 0.3882 0.3832
C13 C 0.642(2) 0.2788(6) 0.4560(4)
H10 H 0.5978 0.3049 0.4881
C14 C 0.5146(16) 0.2058(6) 0.4365(4)
H11 H 0.3879 0.1843 0.4556
C15 C 0.9874(19) -0.1191(7) 0.4563(4)
H12 H 1.0499 -0.1468 0.4883
C16 C 0.3242(16) -0.1949(5) 0.3409(4)
H13 H 0.1667 -0.1705 0.3284
H14 H 0.3134 -0.2171 0.3778
O1 O 1.2963(11) 0.4957(3) 0.3027(2)
O2 O 0.9406(12) 0.4310(4) 0.2823(3)
C17 C 1.1426(16) 0.4356(4) 0.3067(3)
O3 O 0.2192(10) -0.3284(3) 0.3005(2)
O4 O 0.5645(13) -0.2682(4) 0.2779(3)
C18 C 0.3832(15) -0.2698(5) 0.3032(3)
Cu1A Cu 1.23377(18) 0.58219(6) 0.24269(4)
Cu1A_2 Cu 0.23377(18) -0.41781(6) 0.24269(4)
O1A O 0.7037(11) -0.0043(3) 0.1973(2)
O3A O 0.7808(10) 0.1716(3) 0.1995(2)
O5 O 0.521(6) 0.5847(18) 0.4096(8)
H15 H 0.4414 0.5604 0.3841
C19 C 0.988(7) 0.601(2) 0.4123(13)
H16 H 1.0812 0.5765 0.3846
H17 H 1.0510 0.5806 0.4478
H18 H 1.0005 0.6637 0.4112
C20 C 0.751(8) 0.577(2) 0.403(3)
H19 H 0.7401 0.5786 0.3631
H20 H 0.7693 0.5159 0.4117
O6 O 1.2472(17) 0.0783(6) 0.2527(4)
H21 H 1.2608 0.1141 0.2249
H22 H 1.2315 0.1046 0.2799
loop_
_geom_bond_atom_site_label_1
_geom_bond_atom_site_label_2
_geom_bond_site_symmetry_1
_geom_bond_site_symmetry_2
Cu1 N1 1_555 1_555
C1 N1 1_555 1_555
N1 C8 1_555 1_555
C2 N2 1_555 1_555
C3 H1 1_555 1_555
N2 Cu1 1_555 1_555
N3 C3 1_555 1_555
N4 C6 1_555 1_555
C4 H2 1_555 1_555
C5 H3 1_555 1_555
C6 C1 1_555 1_555
C7 C2 1_555 1_555
C8 N4 1_555 1_555
H4 C8 1_555 1_555
C9 H5 1_555 1_555
C10 C1 1_555 1_555
H6 C10 1_555 1_555
C11 C2 1_555 1_555
H7 C11 1_555 1_555
C12 N4 1_555 1_555
H8 C12 1_555 1_555
H9 C12 1_555 1_555
C13 C4 1_555 1_555
H10 C13 1_555 1_555
C14 C10 1_555 1_555
H11 C14 1_555 1_555
C15 C5 1_555 1_555
H12 C15 1_555 1_555
C16 N3 1_555 1_555
H13 C16 1_555 1_555
H14 C16 1_555 1_555
O1 C17 1_555 1_555
O2 C17 1_555 1_555
C17 C12 1_555 1_555
O3 C18 1_555 1_555
O4 C18 1_555 1_555
C18 C16 1_555 1_555
O5 H15 1_555 1_555
C19 H16 1_555 1_555
H17 C19 1_555 1_555
H18 C19 1_555 1_555
C20 O5 1_555 1_555
H19 C20 1_555 1_555
H20 C20 1_555 1_555
O6 H21 1_555 1_555
H22 O6 1_555 1_555
Cu1A O1 1_555 1_555
Cu1A_2 O3 1_555 1_555
O1A Cu1 1_555 1_555
O3A Cu1 1_555 1_555
C3 N2 1_555 1_555
N3 C7 1_555 1_555
C4 C6 1_555 1_555
C5 C7 1_555 1_555
C9 C11 1_555 1_555
C9 C15 1_555 1_555
C13 C14 1_555 1_555
C19 C20 1_555 1_555

#END
