
#######################################################################
#
#                 Cambridge Crystallographic Data Centre
#                                CCDC 
#
#######################################################################
#
# If this CIF has been generated from an entry in the Cambridge 
# Structural Database, then it will include bibliographic, chemical, 
# crystal, experimental, refinement or atomic coordinate data resulting 
# from the CCDC's data processing and validation procedures.
#
#######################################################################

data_CUMHUP
_symmetry_cell_setting           monoclinic
_symmetry_space_group_name_H-M   'P 21'
_symmetry_Int_Tables_number      4
_space_group_name_Hall           'P 2yb'
loop_
_symmetry_equiv_pos_site_id
_symmetry_equiv_pos_as_xyz
1 x,y,z
2 -x,1/2+y,-z
_cell_length_a                   11.019(2)
_cell_length_b                   7.7788(15)
_cell_length_c                   20.389(4)
_cell_angle_alpha                90
_cell_angle_beta                 97.534(3)
_cell_angle_gamma                90
_cell_volume                     1732.55
loop_
_atom_site_label
_atom_site_type_symbol
_atom_site_fract_x
_atom_site_fract_y
_atom_site_fract_z
Cu1 Cu 0.39835(5) 0.10530(6) 0.93856(3)
C1 C 0.2046(4) 0.5099(8) 0.9697(2)
H1 H 0.2872 0.5055 0.9899
C2 C 0.1885(5) -0.0455(8) 0.8606(2)
C3 C 0.1536(4) 0.3764(8) 0.9320(2)
C4 C 0.1165(5) -0.1590(9) 0.8210(3)
H2 H 0.0328 -0.1338 0.8069
C5 C 0.1444(5) 0.1206(9) 0.8820(2)
C6 C 0.1679(5) -0.3107(8) 0.8021(3)
H3 H 0.1200 -0.3904 0.7745
C7 C 0.3559(5) -0.2257(8) 0.8649(2)
H4 H 0.4393 -0.2491 0.8807
C8 C 0.0306(4) 0.3794(9) 0.9030(2)
C9 C 0.2905(5) -0.3451(9) 0.8241(2)
H5 H 0.3283 -0.4476 0.8114
C10 C -0.0434(4) 0.5239(10) 0.9113(3)
H6 H -0.1262 0.5282 0.8913
C11 C 0.1305(5) 0.6542(8) 0.9774(2)
H7 H 0.1637 0.7503 1.0024
C12 C 0.0071(5) 0.6561(9) 0.9483(2)
H8 H -0.0420 0.7534 0.9549
C13 C 0.6030(4) 0.2830(5) 0.89295(18)
H9 H 0.6841 0.2251 0.9042
C14 C 0.5711(4) 0.3659(7) 0.9555(2)
C15 C 0.6161(5) 0.4113(7) 0.8393(2)
H10 H 0.6505 0.3545 0.8030
H11 H 0.6707 0.5043 0.8571
H12 H 0.5356 0.4590 0.8227
N1 N 0.2156(4) 0.2257(6) 0.91772(19)
N2 N 0.3066(4) -0.0781(6) 0.88324(19)
O1 O 0.4866(3) 0.2988(5) 0.98460(15)
O2 O 0.6325(3) 0.4941(6) 0.97646(14)
N3 N 0.5115(4) 0.1471(6) 0.87133(19)
H13 H 0.5517 0.0466 0.8641
H14 H 0.4666 0.1795 0.8320
S1 S -0.00556(12) 0.1910(2) 0.85928(7)
Cu1A Cu 0.60165(5) 0.60530(6) 1.06144(3)
O2A O 0.3675(3) -0.0059(6) 1.02354(14)
Cu2 Cu 0.60032(5) 1.00385(6) 0.55917(2)
C16 C 0.7849(4) 0.5880(7) 0.5248(2)
H15 H 0.7023 0.5947 0.5046
C17 C 0.8152(4) 1.1424(7) 0.6379(2)
C18 C 0.8371(4) 0.7234(8) 0.5643(2)
C19 C 0.8896(4) 1.2495(8) 0.6800(2)
H16 H 0.9723 1.2195 0.6946
C20 C 0.8559(4) 0.9747(7) 0.6162(2)
C21 C 0.8403(5) 1.4019(8) 0.7003(2)
H17 H 0.8889 1.4776 0.7295
C22 C 0.9606(5) 0.7098(8) 0.5936(2)
C23 C 0.6522(5) 1.3278(8) 0.6350(2)
H18 H 0.5695 1.3557 0.6195
C24 C 0.7211(5) 1.4419(8) 0.6779(2)
H19 H 0.6857 1.5455 0.6913
C25 C 0.8542(5) 0.4464(8) 0.5156(2)
H20 H 0.8195 0.3549 0.4885
C26 C 0.9750(5) 0.4345(8) 0.5455(2)
H21 H 1.0206 0.3338 0.5388
C27 C 1.0295(5) 0.5624(8) 0.5839(3)
H22 H 1.1121 0.5524 0.6038
C28 C 0.3322(4) 0.7477(7) 0.6514(2)
H23 H 0.3452 0.7761 0.6987
H24 H 0.3076 0.6269 0.6458
H25 H 0.2676 0.8213 0.6289
C29 C 0.4502(4) 0.7766(5) 0.62188(18)
H26 H 0.5126 0.6976 0.6458
C30 C 0.4408(4) 0.7297(7) 0.5480(2)
N4 N 0.6978(4) 1.1827(5) 0.61517(18)
N5 N 0.7812(3) 0.8750(6) 0.57817(18)
O3 O 0.5034(3) 0.8174(5) 0.51321(14)
N6 N 0.5000(3) 0.9512(6) 0.63091(17)
H27 H 0.5476 0.9596 0.6714
H28 H 0.4370 1.0291 0.6299
O4 O 0.3772(3) 0.6035(5) 0.52812(14)
S2 S 1.00213(11) 0.8943(2) 0.63870(7)
Cu2A Cu 0.39968(5) 0.50385(6) 0.44083(2)
O4A O 0.6228(3) 1.1035(5) 0.47188(14)
Cl1 Cl 0.71506(12) 0.8713(2) 0.79285(6)
O5 O 0.7156(5) 1.0422(7) 0.7679(2)
O6 O 0.7143(4) 0.8758(7) 0.86276(18)
O7 O 0.8177(4) 0.7769(8) 0.7776(2)
O8 O 0.6056(3) 0.7880(6) 0.76239(18)
Cl2 Cl 0.28674(13) 0.2423(2) 0.70529(6)
O9 O 0.2788(4) 0.1964(7) 0.63782(18)
O10 O 0.2976(9) 0.0932(8) 0.7432(3)
O11 O 0.3898(4) 0.3426(8) 0.7237(3)
O12 O 0.1852(4) 0.3446(9) 0.7162(3)
loop_
_geom_bond_atom_site_label_1
_geom_bond_atom_site_label_2
_geom_bond_site_symmetry_1
_geom_bond_site_symmetry_2
Cu1 N1 1_555 1_555
C1 H1 1_555 1_555
C2 C4 1_555 1_555
C3 C1 1_555 1_555
C4 H2 1_555 1_555
C5 C2 1_555 1_555
C6 C4 1_555 1_555
H3 C6 1_555 1_555
C7 H4 1_555 1_555
C8 C3 1_555 1_555
C9 C6 1_555 1_555
H5 C9 1_555 1_555
C10 C8 1_555 1_555
H6 C10 1_555 1_555
C11 C1 1_555 1_555
H7 C11 1_555 1_555
C12 C10 1_555 1_555
H8 C12 1_555 1_555
C13 H9 1_555 1_555
C14 C13 1_555 1_555
C15 C13 1_555 1_555
H10 C15 1_555 1_555
H11 C15 1_555 1_555
H12 C15 1_555 1_555
N1 C3 1_555 1_555
N2 Cu1 1_555 1_555
O1 Cu1 1_555 1_555
O2 C14 1_555 1_555
N3 Cu1 1_555 1_555
H13 N3 1_555 1_555
H14 N3 1_555 1_555
S1 C5 1_555 1_555
Cu2 N4 1_555 1_555
C16 H15 1_555 1_555
C17 C19 1_555 1_555
C18 C16 1_555 1_555
C19 H16 1_555 1_555
C20 C17 1_555 1_555
C21 C19 1_555 1_555
H17 C21 1_555 1_555
C22 C18 1_555 1_555
C23 H18 1_555 1_555
C24 C21 1_555 1_555
H19 C24 1_555 1_555
C25 C16 1_555 1_555
H20 C25 1_555 1_555
C26 C25 1_555 1_555
H21 C26 1_555 1_555
C27 C22 1_555 1_555
H22 C27 1_555 1_555
C28 H23 1_555 1_555
H24 C28 1_555 1_555
H25 C28 1_555 1_555
C29 C28 1_555 1_555
H26 C29 1_555 1_555
C30 C29 1_555 1_555
N4 C17 1_555 1_555
N5 Cu2 1_555 1_555
O3 Cu2 1_555 1_555
N6 Cu2 1_555 1_555
H27 N6 1_555 1_555
H28 N6 1_555 1_555
O4 C30 1_555 1_555
S2 C20 1_555 1_555
Cl1 O5 1_555 1_555
O6 Cl1 1_555 1_555
O7 Cl1 1_555 1_555
O8 Cl1 1_555 1_555
Cl2 O9 1_555 1_555
O10 Cl2 1_555 1_555
O11 Cl2 1_555 1_555
O12 Cl2 1_555 1_555
Cu1A O2 1_555 1_555
O2A Cu1 1_555 1_555
Cu2A O4 1_555 1_555
O4A Cu2 1_555 1_555
C2 N2 1_555 1_555
C5 N1 1_555 1_555
C7 C9 1_555 1_555
C7 N2 1_555 1_555
C8 S1 1_555 1_555
C11 C12 1_555 1_555
C13 N3 1_555 1_555
C14 O1 1_555 1_555
C18 N5 1_555 1_555
C20 N5 1_555 1_555
C22 S2 1_555 1_555
C23 C24 1_555 1_555
C23 N4 1_555 1_555
C26 C27 1_555 1_555
C29 N6 1_555 1_555
C30 O3 1_555 1_555

#END
