
#######################################################################
#
#                 Cambridge Crystallographic Data Centre
#                                CCDC 
#
#######################################################################
#
# If this CIF has been generated from an entry in the Cambridge 
# Structural Database, then it will include bibliographic, chemical, 
# crystal, experimental, refinement or atomic coordinate data resulting 
# from the CCDC's data processing and validation procedures.
#
#######################################################################

data_CUMJAX
_symmetry_cell_setting           monoclinic
_symmetry_space_group_name_H-M   'P 21/n'
_symmetry_Int_Tables_number      14
_space_group_name_Hall           '-P 2yn'
loop_
_symmetry_equiv_pos_site_id
_symmetry_equiv_pos_as_xyz
1 x,y,z
2 1/2-x,1/2+y,1/2-z
3 -x,-y,-z
4 1/2+x,1/2-y,1/2+z
_cell_length_a                   9.8747(8)
_cell_length_b                   6.7895(6)
_cell_length_c                   17.9044(15)
_cell_angle_alpha                90
_cell_angle_beta                 101.9580(10)
_cell_angle_gamma                90
_cell_volume                     1174.34
loop_
_atom_site_label
_atom_site_type_symbol
_atom_site_fract_x
_atom_site_fract_y
_atom_site_fract_z
C1 C 0.6262(10) -0.0637(15) 0.9201(5)
C2 C 0.4843(11) -0.0515(16) 0.8699(6)
H1 H 0.4655 -0.1685 0.8384
H2 H 0.4147 -0.0413 0.9008
C3 C 0.5768(12) 0.3158(16) 0.7344(6)
C4 C 0.5587(12) 0.1095(16) 0.7620(6)
H3 H 0.5093 0.0290 0.7205
H4 H 0.6483 0.0496 0.7816
C5 C 0.3139(11) 0.3506(17) 0.8534(6)
C6 C 0.3406(12) 0.2050(19) 0.7958(8)
H5 H 0.2729 0.0996 0.7903
H6 H 0.3330 0.2686 0.7466
Cd1 Cd 0.97631(8) 0.29535(11) 1.04981(4)
Cd2 Cd 0.65207(8) 0.42838(11) 0.91373(4)
N1 N 0.6941(10) 0.0960(12) 0.9501(5)
N2 N 0.8155(9) 0.0286(13) 0.9911(5)
N3 N 0.8181(9) -0.1622(13) 0.9859(5)
N4 N 0.6964(9) -0.2278(13) 0.9411(5)
N5 N 0.4810(9) 0.1244(13) 0.8216(5)
N6 N 0.6112(9) 0.4664(13) 0.7826(5)
N7 N 0.6089(10) 0.6267(14) 0.7375(5)
N8 N 0.5717(11) 0.5755(14) 0.6661(5)
N9 N 0.5490(9) 0.3769(12) 0.6623(5)
N10 N 0.4107(10) 0.4371(14) 0.9073(5)
N11 N 0.3396(10) 0.5606(14) 0.9435(6)
N12 N 0.2114(9) 0.5512(13) 0.9112(5)
N13 N 0.1880(10) 0.4207(15) 0.8544(6)
O1 O 1.1105(7) 0.5711(10) 1.0674(4)
H7 H 1.073(11) 0.652(13) 1.091(6)
Cd1B Cd 0.02369(8) 0.70465(11) 0.95019(4)
Cd1B_2 Cd 1.02369(8) -0.29535(11) 0.95019(4)
Cd1B_3 Cd 1.02369(8) 0.70465(11) 0.95019(4)
Cd1C Cd 0.47631(8) 0.20465(11) 0.54981(4)
Cd2_2 Cd 0.65207(8) -0.57162(11) 0.91373(4)
Cd2B Cd 0.34793(8) 0.57162(11) 1.08627(4)
Cd2B_2 Cd 1.34793(8) 0.57162(11) 1.08627(4)
N3B N 1.1819(9) 0.1622(13) 1.0141(5)
N4_2 N 0.6964(9) 0.7722(13) 0.9411(5)
N9C N 1.0490(9) 0.1231(12) 1.1623(5)
N11B N 0.6604(10) 0.4394(14) 1.0565(6)
N12B N 0.7886(9) 0.4488(13) 1.0888(5)
O1B O 0.8895(7) 0.4289(10) 0.9326(4)
loop_
_geom_bond_atom_site_label_1
_geom_bond_atom_site_label_2
_geom_bond_site_symmetry_1
_geom_bond_site_symmetry_2
C1 C2 1_555 1_555
C2 H1 1_555 1_555
H2 C2 1_555 1_555
C3 C4 1_555 1_555
C4 H3 1_555 1_555
H4 C4 1_555 1_555
C5 C6 1_555 1_555
C6 H5 1_555 1_555
H6 C6 1_555 1_555
Cd1 N2 1_555 1_555
Cd2 N1 1_555 1_555
N1 C1 1_555 1_555
N2 N1 1_555 1_555
N3 N2 1_555 1_555
N4 C1 1_555 1_555
N5 C2 1_555 1_555
N6 C3 1_555 1_555
N7 N6 1_555 1_555
N8 N7 1_555 1_555
N9 C3 1_555 1_555
N10 C5 1_555 1_555
N11 N10 1_555 1_555
N12 N11 1_555 1_555
N13 C5 1_555 1_555
O1 Cd1 1_555 1_555
H7 O1 1_555 1_555
Cd1B N12 1_555 1_555
Cd1B_2 N3 1_555 1_555
Cd1B_3 O1 1_555 1_555
Cd1C N9 1_555 1_555
Cd2_2 N4 1_555 1_555
Cd2B N11 1_555 1_555
Cd2B_2 O1 1_555 1_555
N3B Cd1 1_555 1_555
N4_2 Cd2 1_555 1_555
N9C Cd1 1_555 1_555
N11B Cd2 1_555 1_555
N12B Cd1 1_555 1_555
O1B Cd1 1_555 1_555
C4 N5 1_555 1_555
C6 N5 1_555 1_555
Cd2 N6 1_555 1_555
Cd2 N10 1_555 1_555
Cd2 O1B 1_555 1_555
N3 N4 1_555 1_555
N8 N9 1_555 1_555
N12 N13 1_555 1_555
Cd1B_3 O1B 1_555 1_555
N11B N12B 1_555 1_555

#END
