
#######################################################################
#
#                 Cambridge Crystallographic Data Centre
#                                CCDC 
#
#######################################################################
#
# If this CIF has been generated from an entry in the Cambridge 
# Structural Database, then it will include bibliographic, chemical, 
# crystal, experimental, refinement or atomic coordinate data resulting 
# from the CCDC's data processing and validation procedures.
#
#######################################################################

data_CUMKUS
_symmetry_cell_setting           monoclinic
_symmetry_space_group_name_H-M   'P 21/c'
_symmetry_Int_Tables_number      14
_space_group_name_Hall           '-P 2ybc'
loop_
_symmetry_equiv_pos_site_id
_symmetry_equiv_pos_as_xyz
1 x,y,z
2 -x,1/2+y,1/2-z
3 -x,-y,-z
4 x,1/2-y,1/2+z
_cell_length_a                   12.1356(7)
_cell_length_b                   21.1552(12)
_cell_length_c                   10.1989(6)
_cell_angle_alpha                90
_cell_angle_beta                 106.2400(10)
_cell_angle_gamma                90
_cell_volume                     2513.9
loop_
_atom_site_label
_atom_site_type_symbol
_atom_site_fract_x
_atom_site_fract_y
_atom_site_fract_z
C1 C 0.5225(3) 0.37640(14) -0.6600(3)
C2 C 0.4625(3) 0.31824(13) -0.7301(3)
C3 C 0.3480(3) 0.31925(14) -0.8028(3)
H1 H 0.3061 0.3564 -0.8083
C4 C 0.2953(3) 0.26513(13) -0.8678(3)
H2 H 0.2186 0.2666 -0.9183
C5 C 0.3554(3) 0.20878(13) -0.8584(3)
C6 C 0.4700(3) 0.20798(14) -0.7842(4)
H3 H 0.5115 0.1705 -0.7763
C7 C 0.5234(3) 0.26219(14) -0.7216(4)
H4 H 0.6008 0.2611 -0.6736
C8 C 0.2989(3) 0.14901(13) -0.9247(3)
H5 H 0.3361 0.1352 -0.9924
H6 H 0.2191 0.1577 -0.9713
C9 C 0.3054(3) 0.09544(13) -0.8198(3)
H7 H 0.3855 0.0918 -0.7649
C10 C 0.2342(3) 0.10971(14) -0.7243(3)
H8 H 0.1540 0.1097 -0.7765
H9 H 0.2528 0.1521 -0.6884
C11 C 0.2487(3) 0.06472(14) -0.6047(3)
C12 C 0.1541(3) 0.04003(14) -0.5735(3)
H10 H 0.0812 0.0477 -0.6313
C13 C 0.1666(3) 0.00401(14) -0.4573(3)
H11 H 0.1016 -0.0111 -0.4364
C14 C 0.2738(3) -0.01007(13) -0.3716(3)
C15 C 0.3696(3) 0.01211(15) -0.4047(3)
H12 H 0.4427 0.0018 -0.3505
C16 C 0.3561(3) 0.05007(15) -0.5201(4)
H13 H 0.4209 0.0659 -0.5405
C17 C 0.2867(3) -0.04538(14) -0.2397(3)
C18 C 0.2728(3) 0.03428(14) -0.8967(3)
C19 C 0.0223(3) -0.08523(17) 0.1431(4)
H14 H 0.0292 -0.0415 0.1423
C20 C -0.0524(3) -0.11176(18) 0.2109(4)
H15 H -0.0946 -0.0860 0.2528
C21 C -0.0624(3) -0.17550(18) 0.2145(4)
H16 H -0.1109 -0.1937 0.2600
C22 C 0.0005(3) -0.21386(16) 0.1497(4)
C23 C -0.0033(3) -0.28175(17) 0.1506(4)
H17 H -0.0516 -0.3020 0.1937
C24 C 0.0612(3) -0.31637(16) 0.0909(4)
H18 H 0.0580 -0.3602 0.0949
C25 C 0.1351(3) -0.28733(15) 0.0209(4)
C26 C 0.2039(3) -0.32185(15) -0.0439(4)
H19 H 0.2045 -0.3658 -0.0410
C27 C 0.2694(3) -0.29038(15) -0.1106(4)
H20 H 0.3152 -0.3124 -0.1544
C28 C 0.2670(3) -0.22427(15) -0.1125(4)
H21 H 0.3117 -0.2033 -0.1594
C29 C 0.1391(3) -0.22103(14) 0.0151(3)
C30 C 0.0727(3) -0.18353(14) 0.0827(3)
N1 N 0.0838(2) -0.11964(11) 0.0799(3)
N2 N 0.2049(2) -0.19000(11) -0.0518(3)
O1 O 0.46268(18) 0.41714(9) -0.6218(2)
O2 O 0.62943(18) 0.37932(9) -0.6449(2)
O3 O 0.3857(2) -0.05966(10) -0.1681(2)
O4 O 0.1954(2) -0.05871(10) -0.2083(2)
O5 O 0.3427(2) 0.00942(10) -0.9516(3)
O6 O 0.1796(2) 0.00803(10) -0.9088(3)
Mn1 Mn 0.5000 0.0000 0.0000
Mn2 Mn 0.22991(4) -0.08246(2) -0.00026(5)
C1B C 0.4775(3) -0.37640(14) -0.3400(3)
C2B C 0.5375(3) -0.31824(13) -0.2699(3)
C3B C 0.6520(3) -0.31925(14) -0.1972(3)
H1B H 0.6939 -0.3564 -0.1917
C4B C 0.7047(3) -0.26513(13) -0.1322(3)
H2B H 0.7814 -0.2666 -0.0817
C5B C 0.6446(3) -0.20878(13) -0.1416(3)
C6B C 0.5300(3) -0.20798(14) -0.2158(4)
H3B H 0.4885 -0.1705 -0.2237
C7B C 0.4766(3) -0.26219(14) -0.2784(4)
H4B H 0.3992 -0.2611 -0.3264
C8B C 0.7011(3) -0.14901(13) -0.0753(3)
H5B H 0.6639 -0.1352 -0.0076
H6B H 0.7809 -0.1577 -0.0287
C9B C 0.6946(3) -0.09544(13) -0.1802(3)
H7B H 0.6145 -0.0918 -0.2351
C10B C 0.7658(3) -0.10971(14) -0.2757(3)
H8B H 0.8460 -0.1097 -0.2235
H9B H 0.7472 -0.1521 -0.3116
C11B C 0.7513(3) -0.06472(14) -0.3953(3)
C12B C 0.8459(3) -0.04003(14) -0.4265(3)
H10B H 0.9188 -0.0477 -0.3687
C13B C 0.8334(3) -0.00401(14) -0.5427(3)
H11B H 0.8984 0.0111 -0.5636
C14B C 0.7262(3) 0.01007(13) -0.6284(3)
C15B C 0.6304(3) -0.01211(15) -0.5953(3)
H12B H 0.5573 -0.0018 -0.6495
C16B C 0.6439(3) -0.05007(15) -0.4799(4)
H13B H 0.5791 -0.0659 -0.4595
C17B C 0.7133(3) 0.04538(14) -0.7603(3)
C18B C 0.7272(3) -0.03428(14) -0.1033(3)
C19B C 0.9777(3) 0.08523(17) -1.1431(4)
H14B H 0.9708 0.0415 -1.1423
C20B C 1.0524(3) 0.11176(18) -1.2109(4)
H15B H 1.0946 0.0860 -1.2528
C21B C 1.0624(3) 0.17550(18) -1.2145(4)
H16B H 1.1109 0.1937 -1.2600
C22B C 0.9995(3) 0.21386(16) -1.1497(4)
C23B C 1.0033(3) 0.28175(17) -1.1506(4)
H17B H 1.0516 0.3020 -1.1937
C24B C 0.9388(3) 0.31637(16) -1.0909(4)
H18B H 0.9420 0.3602 -1.0949
C25B C 0.8649(3) 0.28733(15) -1.0209(4)
C26B C 0.7961(3) 0.32185(15) -0.9561(4)
H19B H 0.7955 0.3658 -0.9590
C27B C 0.7306(3) 0.29038(15) -0.8894(4)
H20B H 0.6848 0.3124 -0.8456
C28B C 0.7330(3) 0.22427(15) -0.8875(4)
H21B H 0.6883 0.2033 -0.8406
C29B C 0.8609(3) 0.22103(14) -1.0151(3)
C30B C 0.9273(3) 0.18353(14) -1.0827(3)
N1B N 0.9162(2) 0.11964(11) -1.0799(3)
N2B N 0.7951(2) 0.19000(11) -0.9482(3)
O1B O 0.53732(18) -0.41714(9) -0.3782(2)
O2B O 0.37057(18) -0.37932(9) -0.3551(2)
O3B O 0.6143(2) 0.05966(10) -0.8319(2)
O4B O 0.8046(2) 0.05871(10) -0.7917(2)
O5B O 0.6573(2) -0.00942(10) -0.0484(3)
O6B O 0.8204(2) -0.00803(10) -0.0912(3)
Mn2B Mn 0.77009(4) 0.08246(2) -0.99974(5)
O1A O 0.53732(18) -0.08286(9) 0.1218(2)
O1C O 0.46268(18) 0.08286(9) -0.1218(2)
O2A O 0.37057(18) -0.12068(9) 0.1449(2)
O2C O 0.62943(18) 0.12068(9) -1.1449(2)
O3B_2 O 0.6143(2) 0.05966(10) 0.1681(2)
O5_2 O 0.3427(2) 0.00942(10) 0.0484(3)
O5B_2 O 0.6573(2) -0.00942(10) -1.0484(3)
O6_2 O 0.1796(2) 0.00803(10) 0.0912(3)
O6B_2 O 0.8204(2) -0.00803(10) -1.0912(3)
Mn1_2 Mn 0.5000 0.0000 -1.0000
Mn1A Mn 0.5000 -0.5000 -0.5000
Mn1A_2 Mn 0.5000 0.5000 -0.5000
Mn2_2 Mn 0.22991(4) -0.08246(2) -1.00026(5)
Mn2A Mn 0.77009(4) 0.41754(2) -0.49974(5)
Mn2B_2 Mn 0.77009(4) 0.08246(2) 0.00026(5)
Mn2C Mn 0.22991(4) -0.41754(2) -0.50026(5)
loop_
_geom_bond_atom_site_label_1
_geom_bond_atom_site_label_2
_geom_bond_site_symmetry_1
_geom_bond_site_symmetry_2
C1 C2 1_555 1_555
C2 C3 1_555 1_555
C3 H1 1_555 1_555
C4 C3 1_555 1_555
H2 C4 1_555 1_555
C5 C4 1_555 1_555
C6 C5 1_555 1_555
H3 C6 1_555 1_555
C7 C2 1_555 1_555
H4 C7 1_555 1_555
C8 C5 1_555 1_555
H5 C8 1_555 1_555
H6 C8 1_555 1_555
C9 C8 1_555 1_555
H7 C9 1_555 1_555
C10 C9 1_555 1_555
H8 C10 1_555 1_555
H9 C10 1_555 1_555
C11 C10 1_555 1_555
C12 C11 1_555 1_555
H10 C12 1_555 1_555
C13 C12 1_555 1_555
H11 C13 1_555 1_555
C14 C13 1_555 1_555
C15 C14 1_555 1_555
H12 C15 1_555 1_555
C16 C11 1_555 1_555
H13 C16 1_555 1_555
C17 C14 1_555 1_555
C18 C9 1_555 1_555
C19 H14 1_555 1_555
C20 C19 1_555 1_555
H15 C20 1_555 1_555
C21 C20 1_555 1_555
H16 C21 1_555 1_555
C22 C21 1_555 1_555
C23 C22 1_555 1_555
H17 C23 1_555 1_555
C24 C23 1_555 1_555
H18 C24 1_555 1_555
C25 C24 1_555 1_555
C26 C25 1_555 1_555
H19 C26 1_555 1_555
C27 C26 1_555 1_555
H20 C27 1_555 1_555
C28 C27 1_555 1_555
H21 C28 1_555 1_555
C29 C25 1_555 1_555
C30 C22 1_555 1_555
N1 C19 1_555 1_555
N2 C28 1_555 1_555
O1 C1 1_555 1_555
O2 C1 1_555 1_555
O3 C17 1_555 1_555
O4 C17 1_555 1_555
O5 C18 1_555 1_555
O6 C18 1_555 1_555
Mn1 O3 1_555 1_555
Mn2 N1 1_555 1_555
C1B C2B 1_555 1_555
C2B C3B 1_555 1_555
C3B H1B 1_555 1_555
C4B C3B 1_555 1_555
H2B C4B 1_555 1_555
C5B C4B 1_555 1_555
C6B C5B 1_555 1_555
H3B C6B 1_555 1_555
C7B C2B 1_555 1_555
H4B C7B 1_555 1_555
C8B C5B 1_555 1_555
H5B C8B 1_555 1_555
H6B C8B 1_555 1_555
C9B C8B 1_555 1_555
H7B C9B 1_555 1_555
C10B C9B 1_555 1_555
H8B C10B 1_555 1_555
H9B C10B 1_555 1_555
C11B C10B 1_555 1_555
C12B C11B 1_555 1_555
H10B C12B 1_555 1_555
C13B C12B 1_555 1_555
H11B C13B 1_555 1_555
C14B C13B 1_555 1_555
C15B C14B 1_555 1_555
H12B C15B 1_555 1_555
C16B C11B 1_555 1_555
H13B C16B 1_555 1_555
C17B C14B 1_555 1_555
C18B C9B 1_555 1_555
C19B H14B 1_555 1_555
C20B C19B 1_555 1_555
H15B C20B 1_555 1_555
C21B C20B 1_555 1_555
H16B C21B 1_555 1_555
C22B C21B 1_555 1_555
C23B C22B 1_555 1_555
H17B C23B 1_555 1_555
C24B C23B 1_555 1_555
H18B C24B 1_555 1_555
C25B C24B 1_555 1_555
C26B C25B 1_555 1_555
H19B C26B 1_555 1_555
C27B C26B 1_555 1_555
H20B C27B 1_555 1_555
C28B C27B 1_555 1_555
H21B C28B 1_555 1_555
C29B C25B 1_555 1_555
C30B C22B 1_555 1_555
N1B C19B 1_555 1_555
N2B C28B 1_555 1_555
O1B C1B 1_555 1_555
O2B C1B 1_555 1_555
O3B C17B 1_555 1_555
O4B C17B 1_555 1_555
O5B Mn1 1_555 1_555
O6B C18B 1_555 1_555
Mn2B N1B 1_555 1_555
O1A Mn1 1_555 1_555
O1C Mn1 1_555 1_555
O2A Mn2 1_555 1_555
O2C Mn2B 1_555 1_555
O3B_2 Mn1 1_555 1_555
O5_2 Mn1 1_555 1_555
O5B_2 Mn2B 1_555 1_555
O6_2 Mn2 1_555 1_555
O6B_2 Mn2B 1_555 1_555
Mn1_2 O5 1_555 1_555
Mn1A O1B 1_555 1_555
Mn1A_2 O1 1_555 1_555
Mn2_2 O5 1_555 1_555
Mn2A O2 1_555 1_555
Mn2B_2 O5B 1_555 1_555
Mn2C O2B 1_555 1_555
C6 C7 1_555 1_555
C15 C16 1_555 1_555
C29 C30 1_555 1_555
C29 N2 1_555 1_555
C30 N1 1_555 1_555
N2 Mn2 1_555 1_555
O4 Mn2 1_555 1_555
O6 Mn2_2 1_555 1_555
Mn2 O5_2 1_555 1_555
C6B C7B 1_555 1_555
C15B C16B 1_555 1_555
C18B O5B 1_555 1_555
C29B C30B 1_555 1_555
C29B N2B 1_555 1_555
C30B N1B 1_555 1_555
N2B Mn2B 1_555 1_555
O3B Mn1_2 1_555 1_555
O4B Mn2B 1_555 1_555
O6B Mn2B_2 1_555 1_555
O5B_2 Mn1_2 1_555 1_555

#END
