
#######################################################################
#
#                 Cambridge Crystallographic Data Centre
#                                CCDC 
#
#######################################################################
#
# If this CIF has been generated from an entry in the Cambridge 
# Structural Database, then it will include bibliographic, chemical, 
# crystal, experimental, refinement or atomic coordinate data resulting 
# from the CCDC's data processing and validation procedures.
#
#######################################################################

data_CUMLIH
_symmetry_cell_setting           monoclinic
_symmetry_space_group_name_H-M   'C 2/c'
_symmetry_Int_Tables_number      15
_space_group_name_Hall           '-C 2yn'
loop_
_symmetry_equiv_pos_site_id
_symmetry_equiv_pos_as_xyz
1 x,y,z
2 -x,y,1/2-z
3 1/2+x,1/2+y,z
4 1/2-x,1/2+y,1/2-z
5 -x,-y,-z
6 x,-y,1/2+z
7 1/2-x,1/2-y,-z
8 1/2+x,1/2-y,1/2+z
_cell_length_a                   22.938(3)
_cell_length_b                   9.642(3)
_cell_length_c                   14.075(4)
_cell_angle_alpha                90
_cell_angle_beta                 113.243(8)
_cell_angle_gamma                90
_cell_volume                     2860.29
loop_
_atom_site_label
_atom_site_type_symbol
_atom_site_fract_x
_atom_site_fract_y
_atom_site_fract_z
Cd1 Cd 0.027278(6) 0.030812(12) 0.651087(9)
O1 O 0.0000 -0.14139(19) 0.7500
O2 O 0.06319(6) 0.11533(13) 0.83149(9)
O3 O 0.02874(7) 0.11642(13) 0.48653(9)
N1 N 0.06831(7) 0.25347(15) 0.66787(11)
O4 O 0.07909(7) 0.31242(15) 0.92198(10)
O5 O 0.07054(9) 0.27895(17) 0.41943(11)
N2 N 0.19549(8) -0.1602(2) 0.63536(13)
C1 C 0.07854(8) 0.32538(18) 0.75413(13)
C2 C 0.08950(11) 0.46745(19) 0.75996(16)
H1 H 0.0957 0.5163 0.8201
C3 C 0.24937(10) -0.3940(2) 0.47710(16)
C4 C 0.05571(9) 0.23163(19) 0.48859(13)
N3 N 0.12103(8) -0.07564(18) 0.67922(12)
C5 C 0.22439(10) -0.3445(2) 0.54619(17)
H2 H 0.2068 -0.4065 0.5781
C6 C 0.07054(9) 0.31847(18) 0.58535(13)
C7 C 0.09096(13) 0.5342(2) 0.67424(17)
H3 H 0.0977 0.6294 0.6759
C8 C 0.22539(9) -0.2050(2) 0.56787(15)
C9 C 0.13699(9) -0.1084(2) 0.60267(15)
H4 H 0.1106 -0.0969 0.5333
C10 C 0.17194(12) -0.1107(4) 0.76622(17)
H5 H 0.1746 -0.0992 0.8334
C11 C 0.07382(8) 0.24644(18) 0.84487(12)
C12 C 0.08239(11) 0.4594(2) 0.58554(16)
H6 H 0.0845 0.5025 0.5279
C13 C 0.21823(13) -0.1649(4) 0.74049(18)
H7 H 0.2575 -0.1985 0.7854
C14 C 0.24755(15) -0.5458(3) 0.4515(2)
H8 H 0.2900 -0.5821 0.4782
H9 H 0.2287 -0.5577 0.3778
H10 H 0.2228 -0.5944 0.4821
H11 H 0.0231(13) -0.195(3) 0.792(2)
H11A H -0.0231(13) -0.195(3) 0.708(2)
N2F N 0.30451(8) -0.3398(2) 0.36464(13)
C3F C 0.25063(10) -0.1060(2) 0.52290(16)
N3F N 0.37897(8) -0.42436(18) 0.32078(12)
C5F C 0.27561(10) -0.1555(2) 0.45381(17)
H2F H 0.2932 -0.0935 0.4219
C8F C 0.27461(9) -0.2950(2) 0.43213(15)
C9F C 0.36301(9) -0.3916(2) 0.39733(15)
H4F H 0.3894 -0.4031 0.4667
C10F C 0.32806(12) -0.3893(4) 0.23378(17)
H5F H 0.3254 -0.4008 0.1666
C13F C 0.28177(13) -0.3351(4) 0.25951(18)
H7F H 0.2425 -0.3015 0.2146
C14F C 0.25245(15) 0.0458(3) 0.5485(2)
H8F H 0.2100 0.0821 0.5218
H9F H 0.2713 0.0577 0.6222
H10F H 0.2772 0.0944 0.5179
Cd1A Cd -0.027278(6) 0.030812(12) 0.848913(9)
O2A O -0.06319(6) 0.11533(13) 0.66851(9)
O3A O -0.02874(7) 0.11642(13) 1.01347(9)
N1A N -0.06831(7) 0.25347(15) 0.83213(11)
O4A O -0.07909(7) 0.31242(15) 0.57802(10)
O5A O -0.07054(9) 0.27895(17) 1.08057(11)
C1A C -0.07854(8) 0.32538(18) 0.74587(13)
C2A C -0.08950(11) 0.46745(19) 0.74004(16)
H1A H -0.0957 0.5163 0.6799
C4A C -0.05571(9) 0.23163(19) 1.01141(13)
C6A C -0.07054(9) 0.31847(18) 0.91465(13)
C7A C -0.09096(13) 0.5342(2) 0.82576(17)
H3A H -0.0977 0.6294 0.8241
C11A C -0.07382(8) 0.24644(18) 0.65513(12)
C12A C -0.08239(11) 0.4594(2) 0.91446(16)
H6A H -0.0845 0.5025 0.9721
Cd1D Cd -0.027278(6) -0.030812(12) 0.348913(9)
Cd1E Cd 0.027278(6) -0.030812(12) 1.151087(9)
Cd1F Cd 0.472722(6) -0.530812(12) 0.348913(9)
O3D O -0.02874(7) -0.11642(13) 0.51347(9)
O3E O 0.02874(7) -0.11642(13) 0.98653(9)
N3A N -0.12103(8) -0.07564(18) 0.82078(12)
loop_
_geom_bond_atom_site_label_1
_geom_bond_atom_site_label_2
_geom_bond_site_symmetry_1
_geom_bond_site_symmetry_2
Cd1 O1 1_555 1_555
O1 H11 1_555 1_555
O2 Cd1 1_555 1_555
O3 Cd1 1_555 1_555
N1 Cd1 1_555 1_555
O4 C11 1_555 1_555
O5 C4 1_555 1_555
N2 C8 1_555 1_555
C1 N1 1_555 1_555
C2 C1 1_555 1_555
H1 C2 1_555 1_555
C3 C5 1_555 1_555
C4 O3 1_555 1_555
N3 Cd1 1_555 1_555
C5 H2 1_555 1_555
C6 N1 1_555 1_555
C7 C2 1_555 1_555
H3 C7 1_555 1_555
C8 C5 1_555 1_555
C9 N2 1_555 1_555
H4 C9 1_555 1_555
C10 N3 1_555 1_555
H5 C10 1_555 1_555
C11 O2 1_555 1_555
C12 C6 1_555 1_555
H6 C12 1_555 1_555
C13 N2 1_555 1_555
H7 C13 1_555 1_555
C14 C3 1_555 1_555
H8 C14 1_555 1_555
H9 C14 1_555 1_555
H10 C14 1_555 1_555
H11A O1 1_555 1_555
N2F C8F 1_555 1_555
C3F C8 1_555 1_555
N3F C9F 1_555 1_555
C5F C3F 1_555 1_555
H2F C5F 1_555 1_555
C8F C3 1_555 1_555
C9F N2F 1_555 1_555
H4F C9F 1_555 1_555
C10F N3F 1_555 1_555
H5F C10F 1_555 1_555
C13F N2F 1_555 1_555
H7F C13F 1_555 1_555
C14F C3F 1_555 1_555
H8F C14F 1_555 1_555
H9F C14F 1_555 1_555
H10F C14F 1_555 1_555
Cd1A O1 1_555 1_555
O2A Cd1 1_555 1_555
O3A Cd1A 1_555 1_555
N1A Cd1A 1_555 1_555
O4A C11A 1_555 1_555
O5A C4A 1_555 1_555
C1A N1A 1_555 1_555
C2A C1A 1_555 1_555
H1A C2A 1_555 1_555
C4A O3A 1_555 1_555
C6A N1A 1_555 1_555
C7A C2A 1_555 1_555
H3A C7A 1_555 1_555
C11A O2A 1_555 1_555
C12A C6A 1_555 1_555
H6A C12A 1_555 1_555
Cd1D O3 1_555 1_555
Cd1E O3A 1_555 1_555
Cd1F N3F 1_555 1_555
O3D Cd1 1_555 1_555
O3E Cd1A 1_555 1_555
N3A Cd1A 1_555 1_555
O2 Cd1A 1_555 1_555
C1 C11 1_555 1_555
C4 C6 1_555 1_555
N3 C9 1_555 1_555
C7 C12 1_555 1_555
C10 C13 1_555 1_555
C5F C8F 1_555 1_555
C10F C13F 1_555 1_555
Cd1A O2A 1_555 1_555
C1A C11A 1_555 1_555
C4A C6A 1_555 1_555
C7A C12A 1_555 1_555
Cd1D O3D 1_555 1_555
Cd1E O3E 1_555 1_555

#END
