
#######################################################################
#
#                 Cambridge Crystallographic Data Centre
#                                CCDC 
#
#######################################################################
#
# If this CIF has been generated from an entry in the Cambridge 
# Structural Database, then it will include bibliographic, chemical, 
# crystal, experimental, refinement or atomic coordinate data resulting 
# from the CCDC's data processing and validation procedures.
#
#######################################################################

data_CUMQUW
_symmetry_cell_setting           monoclinic
_symmetry_space_group_name_H-M   'C c'
_symmetry_Int_Tables_number      9
_space_group_name_Hall           'C -2yc'
loop_
_symmetry_equiv_pos_site_id
_symmetry_equiv_pos_as_xyz
1 x,y,z
2 x,-y,1/2+z
3 1/2+x,1/2+y,z
4 1/2+x,1/2-y,1/2+z
_cell_length_a                   10.189(10)
_cell_length_b                   19.760(18)
_cell_length_c                   7.455(3)
_cell_angle_alpha                90
_cell_angle_beta                 100.36
_cell_angle_gamma                90
_cell_volume                     1476.48
loop_
_atom_site_label
_atom_site_type_symbol
_atom_site_fract_x
_atom_site_fract_y
_atom_site_fract_z
Cu1 Cu -0.90534(7) -1.27094(3) 0.11636(8)
O1 O -0.9067(6) -1.2768(2) 0.3771(7)
H1 H -1.0040 -1.2991 0.4087
H2 H -0.8461 -1.2707 0.4833
O2 O -0.8744(5) -1.2812(3) -0.1368(7)
H3 H -0.7883 -1.2964 -0.1476
H4 H -0.8934 -1.2479 -0.2344
O3 O -1.0998(5) -1.2208(2) 0.0346(8)
H5 H -1.1605 -1.1887 0.1255
H6 H -1.1705 -1.2115 -0.0875
N1 N -0.4984(5) -0.8616(2) 0.0983(7)
N2 N -0.8126(6) -1.1789(3) 0.1352(8)
C1 C -0.4395(6) -0.9185(3) 0.0720(11)
H7 H -0.3502 -0.9162 0.0480
C2 C -0.4972(7) -0.9815(3) 0.0739(11)
H8 H -0.4489 -1.0214 0.0518
C3 C -0.6260(5) -0.9866(3) 0.1084(8)
C4 C -0.6906(7) -0.9265(3) 0.1341(11)
H9 H -0.7803 -0.9272 0.1573
C5 C -0.6238(7) -0.8649(3) 0.1298(11)
H10 H -0.6693 -0.8236 0.1472
C6 C -0.6907(6) -1.0528(3) 0.1196(8)
C7 C -0.8193(8) -1.0587(4) 0.1474(16)
H11 H -0.8699 -1.0186 0.1600
C8 C -0.8767(8) -1.1210(3) 0.1525(18)
H12 H -0.9670 -1.1233 0.1730
C9 C -0.6875(7) -1.1729(3) 0.1188(14)
H13 H -0.6377 -1.2136 0.1102
C10 C -0.6229(7) -1.1119(4) 0.1110(14)
H14 H -0.5303 -1.1111 0.1010
Cu1B Cu -0.40534(7) -0.77094(3) 0.11636(8)
N1B N -0.9984(5) -1.3616(2) 0.0983(7)
S1 S 0.92597(14) 0.14678(6) 0.07458(18)
O4 O 0.8647(5) 0.1596(3) -0.1166(6)
O5 O 0.8327(5) 0.1696(2) 0.1914(6)
O6 O 1.0517(5) 0.1849(2) 0.1174(7)
O7 O 0.9543(5) 0.0748(2) 0.0990(7)
O8 O 0.7090(6) 0.1080(3) 0.5426(8)
H15 H 0.7453 0.1071 0.6544
H16 H 0.7560 0.0888 0.4653
O9 O 0.8145(6) 0.0110(4) 0.3407(11)
H17 H 0.8265 -0.0382 0.3714
H18 H 0.8953 0.0399 0.2820
loop_
_geom_bond_atom_site_label_1
_geom_bond_atom_site_label_2
_geom_bond_site_symmetry_1
_geom_bond_site_symmetry_2
Cu1 O1 1_555 1_555
O1 H1 1_555 1_555
H2 O1 1_555 1_555
O2 Cu1 1_555 1_555
H3 O2 1_555 1_555
H4 O2 1_555 1_555
O3 Cu1 1_555 1_555
H5 O3 1_555 1_555
H6 O3 1_555 1_555
N1 C1 1_555 1_555
N2 Cu1 1_555 1_555
C1 H7 1_555 1_555
C2 C1 1_555 1_555
H8 C2 1_555 1_555
C3 C2 1_555 1_555
C4 C3 1_555 1_555
H9 C4 1_555 1_555
C5 N1 1_555 1_555
H10 C5 1_555 1_555
C6 C3 1_555 1_555
C7 C6 1_555 1_555
H11 C7 1_555 1_555
C8 N2 1_555 1_555
H12 C8 1_555 1_555
C9 N2 1_555 1_555
H13 C9 1_555 1_555
C10 C6 1_555 1_555
H14 C10 1_555 1_555
S1 O4 1_555 1_555
O5 S1 1_555 1_555
O6 S1 1_555 1_555
O7 S1 1_555 1_555
O8 H15 1_555 1_555
H16 O8 1_555 1_555
O9 H17 1_555 1_555
H18 O9 1_555 1_555
Cu1B N1 1_555 1_555
N1B Cu1 1_555 1_555
C4 C5 1_555 1_555
C7 C8 1_555 1_555
C9 C10 1_555 1_555

#END
