
#######################################################################
#
#                 Cambridge Crystallographic Data Centre
#                                CCDC 
#
#######################################################################
#
# If this CIF has been generated from an entry in the Cambridge 
# Structural Database, then it will include bibliographic, chemical, 
# crystal, experimental, refinement or atomic coordinate data resulting 
# from the CCDC's data processing and validation procedures.
#
#######################################################################

data_CUMROS
_symmetry_cell_setting           monoclinic
_symmetry_space_group_name_H-M   'P 21/n'
_symmetry_Int_Tables_number      14
_space_group_name_Hall           '-P 2yn'
loop_
_symmetry_equiv_pos_site_id
_symmetry_equiv_pos_as_xyz
1 x,y,z
2 1/2-x,1/2+y,1/2-z
3 -x,-y,-z
4 1/2+x,1/2-y,1/2+z
_cell_length_a                   12.317(3)
_cell_length_b                   14.720(3)
_cell_length_c                   16.784(3)
_cell_angle_alpha                90
_cell_angle_beta                 105.89(3)
_cell_angle_gamma                90
_cell_volume                     2926.77
loop_
_atom_site_label
_atom_site_type_symbol
_atom_site_fract_x
_atom_site_fract_y
_atom_site_fract_z
Cd1 Cd 0.16739(2) 0.741821(17) 0.579360(15)
Cd2 Cd 0.0000 1.0000 0.5000
C1 C 0.2816(3) 1.5852(2) 0.6448(2)
C2 C 0.3530(3) 1.5019(2) 0.6796(3)
H1 H 0.4296 1.5117 0.6765
H2 H 0.3555 1.4949 0.7376
C3 C 0.2478(3) 1.3553(2) 0.6597(2)
H3 H 0.2251 1.3577 0.7082
C4 C 0.1503(3) 1.2107(3) 0.6052(2)
H4 H 0.1399 1.2035 0.6601
H5 H 0.1855 1.1559 0.5919
C5 C 0.0362(3) 1.2239(2) 0.5424(2)
C6 C 0.2634(5) 1.2641(4) 0.4661(3)
H6 H 0.2256 1.2091 0.4523
C7 C 0.3750(4) 1.4355(4) 0.5060(3)
H7 H 0.4107 1.4915 0.5185
C8 C 0.3230(3) 1.3922(3) 0.5595(2)
C9 C 0.2696(3) 1.3091(3) 0.5402(2)
C10 C 0.3704(6) 1.3905(5) 0.4338(4)
H8 H 0.4039 1.4169 0.3961
C11 C 0.3175(6) 1.3068(5) 0.4147(3)
H9 H 0.3187 1.2786 0.3653
C12 C 0.0704(4) 0.6815(3) 0.7294(3)
H10 H 0.1145 0.6313 0.7255
C13 C 0.0005(3) 0.8197(3) 0.6824(2)
H11 H -0.0044 0.8679 0.6458
C14 C -0.0585(3) 0.8255(3) 0.7414(2)
H12 H -0.1028 0.8762 0.7433
C15 C 0.0160(4) 0.6819(3) 0.7910(3)
H13 H 0.0243 0.6334 0.8277
C16 C -0.0514(3) 0.7555(2) 0.7976(2)
C17 C -0.1118(3) 0.7591(3) 0.8629(2)
C18 C -0.2080(4) 0.8103(4) 0.8534(3)
H14 H -0.2353 0.8458 0.8063
C19 C -0.0738(4) 0.7111(4) 0.9364(3)
H15 H -0.0072 0.6779 0.9470
C20 C -0.1354(4) 0.7128(4) 0.9938(3)
H16 H -0.1095 0.6791 1.0421
C21 C -0.2640(4) 0.8083(4) 0.9149(3)
H17 H -0.3292 0.8429 0.9070
N1 N 0.3092(3) 1.4186(2) 0.63536(19)
N2 N 0.2239(3) 1.2886(2) 0.60476(19)
N3 N 0.0639(3) 0.7485(2) 0.6753(2)
N4 N -0.2307(3) 0.7607(2) 0.9835(2)
O1 O 0.1409(2) 0.98771(19) 0.61725(16)
O2 O 0.2715(2) 0.86189(18) 0.64219(18)
O3 O 0.3055(3) 0.9922(3) 0.5668(2)
O4 O 0.3237(3) 1.0006(2) 0.7124(2)
O5 O 0.0028(2) 1.30210(18) 0.52181(18)
O6 O 0.1931(2) 1.57654(19) 0.58823(18)
O7 O 0.3179(2) 1.65956(18) 0.67732(19)
O8 O -0.0206(2) 1.15410(17) 0.51370(17)
S1 S 0.26132(8) 0.96109(6) 0.63355(6)
O14 O 0.1334(3) 1.0213(2) 0.43097(19)
H18 H 0.115(5) 0.984(3) 0.394(3)
H19 H 0.190(3) 1.008(4) 0.468(3)
Cd1B Cd -0.16739(2) 1.258179(17) 0.420640(15)
Cd1C Cd -0.33261(2) 0.758179(17) 1.079360(15)
Cd1_2 Cd 0.16739(2) 1.741821(17) 0.579360(15)
Cd1B_2 Cd -0.16739(2) 0.258179(17) 0.420640(15)
Cd1C_2 Cd 0.66739(2) 0.758179(17) 0.079360(15)
C1B C -0.2816(3) 0.4148(2) 0.3552(2)
C2B C -0.3530(3) 0.4981(2) 0.3204(3)
H1B H -0.4296 0.4883 0.3235
H2B H -0.3555 0.5051 0.2624
C3B C -0.2478(3) 0.6447(2) 0.3403(2)
H3B H -0.2251 0.6423 0.2918
C4B C -0.1503(3) 0.7893(3) 0.3948(2)
H4B H -0.1399 0.7965 0.3399
H5B H -0.1855 0.8441 0.4081
C5B C -0.0362(3) 0.7761(2) 0.4576(2)
C6B C -0.2634(5) 0.7359(4) 0.5339(3)
H6B H -0.2256 0.7909 0.5477
C7B C -0.3750(4) 0.5645(4) 0.4940(3)
H7B H -0.4107 0.5085 0.4815
C8B C -0.3230(3) 0.6078(3) 0.4405(2)
C9B C -0.2696(3) 0.6909(3) 0.4598(2)
C10B C -0.3704(6) 0.6095(5) 0.5662(4)
H8B H -0.4039 0.5831 0.6039
C11B C -0.3175(6) 0.6932(5) 0.5853(3)
H9B H -0.3187 0.7214 0.6347
C12C C 0.5704(4) 0.8185(3) 0.2294(3)
H10C H 0.6145 0.8687 0.2255
C13C C 0.5005(3) 0.6803(3) 0.1824(2)
H11C H 0.4956 0.6321 0.1458
C14C C 0.4415(3) 0.6745(3) 0.2414(2)
H12C H 0.3972 0.6238 0.2433
C15C C 0.5160(4) 0.8181(3) 0.2910(3)
H13C H 0.5243 0.8666 0.3277
C16C C 0.4486(3) 0.7445(2) 0.2976(2)
C17C C 0.3882(3) 0.7409(3) 0.3629(2)
C18C C 0.2920(4) 0.6897(4) 0.3534(3)
H14C H 0.2647 0.6542 0.3063
C19C C 0.4262(4) 0.7889(4) 0.4364(3)
H15C H 0.4928 0.8221 0.4470
C20C C 0.3646(4) 0.7872(4) 0.4938(3)
H16C H 0.3905 0.8209 0.5421
C21C C 0.2360(4) 0.6917(4) 0.4149(3)
H17C H 0.1708 0.6571 0.4070
N1B N -0.3092(3) 0.5814(2) 0.36464(19)
N2B N -0.2239(3) 0.7114(2) 0.39524(19)
N3C N 0.5639(3) 0.7515(2) 0.1753(2)
N3B N -0.0639(3) 1.2515(2) 0.3247(2)
N4C N 0.2693(3) 0.7393(2) 0.4835(2)
N4A N -0.2693(3) 1.2607(2) 0.5165(2)
O1B O -0.1409(2) 1.01229(19) 0.38275(16)
O2B O -0.2715(2) 1.13811(18) 0.35781(18)
O3B O -0.3055(3) 1.0078(3) 0.4332(2)
O4B O -0.3237(3) 0.9994(2) 0.2876(2)
O5B O -0.0028(2) 0.69790(18) 0.47819(18)
O6B O -0.1931(2) 0.42346(19) 0.41177(18)
O6_2 O 0.1931(2) 0.57654(19) 0.58823(18)
O6B_2 O -0.1931(2) 1.42346(19) 0.41177(18)
O7B O -0.3179(2) 0.34044(18) 0.32268(19)
O7_2 O 0.3179(2) 0.65956(18) 0.67732(19)
O7B_2 O -0.3179(2) 1.34044(18) 0.32268(19)
O8B O 0.0206(2) 0.84590(17) 0.48630(17)
S1B S -0.26132(8) 1.03891(6) 0.36645(6)
O14B O -0.1334(3) 0.9787(2) 0.56903(19)
H18B H -0.115(5) 1.016(3) 0.606(3)
H19B H -0.190(3) 0.992(4) 0.532(3)
O9 O 0.8764(4) 0.0687(3) 0.7125(3)
H20 H 0.812(2) 0.064(4) 0.717(4)
H21 H 0.902(4) 0.1202(18) 0.723(4)
O10 O 0.0840(4) 0.4719(3) 0.4466(3)
H22 H 0.055(4) 0.508(3) 0.409(3)
H23 H 0.039(4) 0.440(3) 0.462(4)
O11 O 0.5277(3) 0.9357(4) 0.7973(3)
H24 H 0.473(4) 0.906(4) 0.801(4)
H25 H 0.551(5) 0.969(4) 0.838(3)
O12 O 0.5292(4) 0.7431(3) 0.7452(4)
H26 H 0.464(2) 0.723(4) 0.727(4)
H27 H 0.531(5) 0.784(3) 0.779(3)
O13 O 0.6489(11) 0.9813(7) 0.6781(11)
H28 H 0.680(7) 0.981(5) 0.7258(16)
H29 H 0.609(6) 0.942(4) 0.648(3)
loop_
_geom_bond_atom_site_label_1
_geom_bond_atom_site_label_2
_geom_bond_site_symmetry_1
_geom_bond_site_symmetry_2
Cd1 N3 1_555 1_555
Cd2 O1 1_555 1_555
C1 C2 1_555 1_555
C2 H1 1_555 1_555
H2 C2 1_555 1_555
C3 H3 1_555 1_555
C4 H4 1_555 1_555
H5 C4 1_555 1_555
C5 C4 1_555 1_555
C6 H6 1_555 1_555
C7 H7 1_555 1_555
C8 C7 1_555 1_555
C9 C6 1_555 1_555
C10 C7 1_555 1_555
H8 C10 1_555 1_555
C11 C6 1_555 1_555
H9 C11 1_555 1_555
C12 H10 1_555 1_555
C13 H11 1_555 1_555
C14 C13 1_555 1_555
H12 C14 1_555 1_555
C15 C12 1_555 1_555
H13 C15 1_555 1_555
C16 C14 1_555 1_555
C17 C16 1_555 1_555
C18 C17 1_555 1_555
H14 C18 1_555 1_555
C19 C17 1_555 1_555
H15 C19 1_555 1_555
C20 C19 1_555 1_555
H16 C20 1_555 1_555
C21 C18 1_555 1_555
H17 C21 1_555 1_555
N1 C2 1_555 1_555
N2 C3 1_555 1_555
N3 C12 1_555 1_555
N4 C20 1_555 1_555
O1 S1 1_555 1_555
O2 Cd1 1_555 1_555
O3 S1 1_555 1_555
O4 S1 1_555 1_555
O5 C5 1_555 1_555
O6 C1 1_555 1_555
O7 C1 1_555 1_555
O8 Cd2 1_555 1_555
O9 H20 1_555 1_555
O10 H22 1_555 1_555
O11 H24 1_555 1_555
O12 H26 1_555 1_555
O13 H28 1_555 1_555
S1 O2 1_555 1_555
O14 Cd2 1_555 1_555
H18 O14 1_555 1_555
H19 O14 1_555 1_555
H21 O9 1_555 1_555
H23 O10 1_555 1_555
H25 O11 1_555 1_555
H27 O12 1_555 1_555
H29 O13 1_555 1_555
Cd1B O5 1_555 1_555
Cd1C N4 1_555 1_555
Cd1_2 O6 1_555 1_555
Cd1B_2 O6B 1_555 1_555
Cd1C_2 N3C 1_555 1_555
C1B C2B 1_555 1_555
C2B H1B 1_555 1_555
H2B C2B 1_555 1_555
C3B H3B 1_555 1_555
C4B H4B 1_555 1_555
H5B C4B 1_555 1_555
C5B C4B 1_555 1_555
C6B H6B 1_555 1_555
C7B H7B 1_555 1_555
C8B C7B 1_555 1_555
C9B C6B 1_555 1_555
C10B C7B 1_555 1_555
H8B C10B 1_555 1_555
C11B C6B 1_555 1_555
H9B C11B 1_555 1_555
C12C H10C 1_555 1_555
C13C H11C 1_555 1_555
C14C C13C 1_555 1_555
H12C C14C 1_555 1_555
C15C C12C 1_555 1_555
H13C C15C 1_555 1_555
C16C C14C 1_555 1_555
C17C C16C 1_555 1_555
C18C C17C 1_555 1_555
H14C C18C 1_555 1_555
C19C C17C 1_555 1_555
H15C C19C 1_555 1_555
C20C C19C 1_555 1_555
H16C C20C 1_555 1_555
C21C C18C 1_555 1_555
H17C C21C 1_555 1_555
N1B C2B 1_555 1_555
N2B C3B 1_555 1_555
N3C C12C 1_555 1_555
N3B Cd1B 1_555 1_555
N4C Cd1 1_555 1_555
N4A Cd1B 1_555 1_555
O1B Cd2 1_555 1_555
O2B Cd1B 1_555 1_555
O3B S1B 1_555 1_555
O4B S1B 1_555 1_555
O5B Cd1 1_555 1_555
O6B C1B 1_555 1_555
O6_2 Cd1 1_555 1_555
O6B_2 Cd1B 1_555 1_555
O7B Cd1B_2 1_555 1_555
O7_2 Cd1 1_555 1_555
O7B_2 Cd1B 1_555 1_555
O8B Cd1 1_555 1_555
S1B O1B 1_555 1_555
O14B Cd2 1_555 1_555
H18B O14B 1_555 1_555
H19B O14B 1_555 1_555
Cd2 O8B 1_555 1_555
C3 N1 1_555 1_555
C4 N2 1_555 1_555
C5 O8 1_555 1_555
C8 C9 1_555 1_555
C8 N1 1_555 1_555
C9 N2 1_555 1_555
C10 C11 1_555 1_555
C13 N3 1_555 1_555
C15 C16 1_555 1_555
C21 N4 1_555 1_555
O7 Cd1_2 1_555 1_555
O8 Cd1B 1_555 1_555
C1B O7B 1_555 1_555
C3B N1B 1_555 1_555
C4B N2B 1_555 1_555
C5B O5B 1_555 1_555
C5B O8B 1_555 1_555
C8B C9B 1_555 1_555
C8B N1B 1_555 1_555
C9B N2B 1_555 1_555
C10B C11B 1_555 1_555
C13C N3C 1_555 1_555
C15C C16C 1_555 1_555
C20C N4C 1_555 1_555
C21C N4C 1_555 1_555
O2B S1B 1_555 1_555

#END
