
#######################################################################
#
#                 Cambridge Crystallographic Data Centre
#                                CCDC 
#
#######################################################################
#
# If this CIF has been generated from an entry in the Cambridge 
# Structural Database, then it will include bibliographic, chemical, 
# crystal, experimental, refinement or atomic coordinate data resulting 
# from the CCDC's data processing and validation procedures.
#
#######################################################################

data_CUMRUY
_symmetry_cell_setting           triclinic
_symmetry_space_group_name_H-M   'P 1'
_symmetry_Int_Tables_number      1
_space_group_name_Hall           'P 1'
loop_
_symmetry_equiv_pos_site_id
_symmetry_equiv_pos_as_xyz
1 x,y,z
_cell_length_a                   9.4165(19)
_cell_length_b                   11.557(2)
_cell_length_c                   12.647(3)
_cell_angle_alpha                112.89(3)
_cell_angle_beta                 106.86(3)
_cell_angle_gamma                90.30(3)
_cell_volume                     1202.52
loop_
_atom_site_label
_atom_site_type_symbol
_atom_site_fract_x
_atom_site_fract_y
_atom_site_fract_z
C1 C 1.3644(12) 0.7968(10) 0.7811(9)
C2 C 1.4613(16) 0.8541(15) 0.8967(12)
H1 H 1.4568 0.9307 0.9574
C3 C 1.5652(14) 0.7047(10) 0.9652(11)
C4 C 1.6802(18) 0.6130(16) 0.9638(15)
C5 C 1.684(2) 0.5499(18) 1.0238(16)
H2 H 1.6286 0.5755 1.0775
C6 C 1.751(3) 0.456(2) 1.0226(16)
H3 H 1.7414 0.4129 1.0695
C7 C 1.837(2) 0.420(2) 0.950(2)
H4 H 1.8966 0.3558 0.9506
C8 C 1.836(2) 0.4766(19) 0.8820(14)
C9 C 1.7553(19) 0.5735(16) 0.8899(16)
H5 H 1.7541 0.6141 0.8389
C10 C 0.8604(14) 0.8199(12) 0.7806(11)
C11 C 0.9588(16) 0.8811(13) 0.8949(13)
H6 H 0.9507 0.8660 0.9601
C12 C 1.0700(15) 1.0988(11) 0.9666(11)
C13 C 1.1743(16) 1.1915(15) 0.9636(14)
C14 C 1.263(2) 1.1570(17) 0.8905(17)
H7 H 1.2629 1.0721 0.8431
C15 C 1.3448(17) 1.244(2) 0.8889(17)
H8 H 1.4084 1.2202 0.8421
C16 C 1.343(3) 1.373(2) 0.955(2)
H9 H 1.4038 1.4346 0.9517
C17 C 1.250(3) 1.407(2) 1.0253(17)
H10 H 1.2421 1.4909 1.0705
C18 C 1.181(2) 1.3186(17) 1.0225(16)
H11 H 1.1189 1.3416 1.0706
C19 C 1.0873(16) 1.5433(15) 0.6862(13)
H12 H 1.1070 1.6163 0.7572
C20 C 1.0301(19) 1.4464(15) 0.5004(14)
H13 H 1.0036 1.4511 0.4256
C21 C 0.9919(17) 1.0437(12) 0.6548(13)
H14 H 0.9452 1.0240 0.7023
C22 C 1.1353(15) 0.9938(14) 0.5412(12)
H15 H 1.1913 0.9364 0.5018
C23 C 0.9864(19) 1.1580(14) 0.6556(13)
H16 H 0.9269 1.2126 0.6935
C24 C 1.1426(17) 1.1068(14) 0.5397(15)
H17 H 1.1976 1.1274 0.4977
C25 C 1.0662(19) 1.1920(12) 0.6022(13)
C26 C 1.0639(17) 1.3154(14) 0.5974(13)
C27 C 1.0881(17) 1.4293(11) 0.6915(12)
H18 H 1.1071 1.4289 0.7678
C28 C 1.0293(14) 1.3323(12) 0.4970(10)
H19 H 1.0040 1.2626 0.4229
C29 C 0.5842(14) 0.9732(11) 0.6874(10)
H20 H 0.6028 0.9670 0.7612
C30 C 0.5308(15) 0.8815(9) 0.4981(10)
H21 H 0.5065 0.8109 0.4247
C31 C 0.5311(14) 0.9976(13) 0.4965(11)
H22 H 0.5084 1.0045 0.4228
C32 C 0.584(2) 1.0944(13) 0.6911(13)
H23 H 0.6004 1.1654 0.7633
C33 C 0.563(2) 1.1031(16) 0.5989(16)
C34 C 0.4823(17) 1.4416(10) 0.6493(13)
H24 H 0.4244 1.4982 0.6870
C35 C 0.6437(16) 1.3840(15) 0.5451(13)
H25 H 0.7104 1.4083 0.5135
C36 C 0.6403(16) 1.2632(12) 0.5413(14)
H26 H 0.6910 1.2053 0.4963
C37 C 0.4899(19) 1.3253(14) 0.6544(13)
H27 H 0.4370 1.3091 0.7000
C38 C 0.5664(16) 1.2283(14) 0.6003(12)
C39 C 0.7564(11) 0.6141(9) 0.4207(9)
C40 C 0.6566(17) 0.5514(14) 0.2994(12)
H28 H 0.6627 0.5745 0.2380
C41 C 0.5490(13) 0.3332(14) 0.2205(11)
C42 C 0.4454(18) 0.2448(16) 0.2273(14)
C43 C 0.3624(16) 0.2802(14) 0.2961(15)
H29 H 0.3542 0.3657 0.3336
C44 C 0.4457(18) 0.1181(15) 0.1596(13)
H30 H 0.5004 0.0907 0.1058
C45 C 0.352(2) 0.0286(15) 0.1788(17)
C46 C 0.283(2) 0.1886(18) 0.315(2)
H31 H 0.2305 0.2139 0.3699
C47 C 0.286(2) 0.0637(18) 0.2506(17)
H32 H 0.2343 0.0037 0.2630
C48 C 1.2607(13) 0.6470(12) 0.4242(10)
C49 C 1.1596(16) 0.5874(12) 0.3018(12)
H33 H 1.2169 0.5733 0.2464
H34 H 1.1152 0.5053 0.2891
C50 C 1.0425(14) 0.7240(16) 0.2189(10)
C51 C 0.9491(17) 0.8235(16) 0.2273(13)
C52 C 0.8563(16) 0.8558(17) 0.2976(15)
H35 H 0.8508 0.8089 0.3419
C53 C 0.9502(19) 0.8835(17) 0.1598(14)
H36 H 1.0055 0.8640 0.1065
C54 C 0.854(2) 0.9865(17) 0.1762(17)
H37 H 0.8476 1.0279 0.1253
C55 C 0.781(2) 1.0255(19) 0.2476(19)
H38 H 0.7376 1.0996 0.2592
C56 C 0.770(2) 0.9547(17) 0.307(2)
H39 H 0.7054 0.9706 0.3528
Cd1 Cd 1.05993(4) 0.75707(3) 0.59423(3)
Cd2 Cd 0.55988(4) 0.67221(3) 0.59418(3)
N1 N 1.0619(18) 1.5523(14) 0.5917(14)
N2 N 1.0576(15) 0.9565(12) 0.5925(11)
N3 N 0.561(2) 0.8646(16) 0.5907(15)
N4 N 0.5569(19) 1.4696(15) 0.5916(14)
N5 N 1.5760(13) 0.7658(11) 0.9034(10)
N6 N 1.0764(12) 0.9712(9) 0.9073(9)
N7 N 0.5474(13) 0.4516(12) 0.2775(10)
N8 N 1.0459(12) 0.6562(11) 0.2736(9)
O1 O 1.4836(13) 0.7216(11) 1.0209(10)
O2 O 0.9820(14) 1.1342(12) 1.0196(10)
O3 O 1.1395(12) 0.7107(14) 0.1676(11)
O4 O 0.6378(13) 0.2917(12) 0.1670(11)
O5 O 0.7219(13) 0.6012(11) 0.4892(10)
O6 O 0.8808(10) 0.6725(9) 0.4310(8)
O7 O 0.9003(11) 0.8305(9) 0.7007(8)
O8 O 0.7413(10) 0.7573(9) 0.7604(7)
O9 O 1.2418(10) 0.8368(10) 0.7599(8)
O10 O 1.4006(11) 0.7055(9) 0.7010(8)
O11 O 1.3807(11) 0.5922(8) 0.4304(8)
O12 O 1.2224(11) 0.7233(10) 0.4898(9)
Cd1_2 Cd 1.05993(4) 1.75707(3) 0.59423(3)
Cd2_2 Cd 0.55988(4) 1.67221(3) 0.59418(3)
Cd2_3 Cd 1.55988(4) 0.67221(3) 0.59418(3)
N1_2 N 1.0619(18) 0.5523(14) 0.5917(14)
N4_2 N 0.5569(19) 0.4696(15) 0.5916(14)
O10_2 O 0.4006(11) 0.7055(9) 0.7010(8)
O11_2 O 0.3807(11) 0.5922(8) 0.4304(8)
H40 H 0.645(9) 0.153(12) 1.022(5)
H41 H 0.757(3) 0.123(8) 0.970(7)
O13 O 0.6657(15) 0.1167(17) 0.9584(13)
H42 H 0.858(3) 0.318(15) 0.217(14)
H43 H 0.973(12) 0.249(8) 0.187(9)
O14 O 0.9492(18) 0.3102(14) 0.2360(11)
H44 H 0.381(7) 0.794(8) 0.232(8)
O15 O 0.4560(12) 0.7577(15) 0.2329(10)
H47 H 0.500(12) 0.770(12) 0.189(13)
H45 H 0.186(8) 0.699(6) 1.028(2)
O16 O 0.180(2) 0.6735(16) 0.9566(13)
H46 H 0.08(6) 0.70(3) 0.909(16)
loop_
_geom_bond_atom_site_label_1
_geom_bond_atom_site_label_2
_geom_bond_site_symmetry_1
_geom_bond_site_symmetry_2
C1 C2 1_555 1_555
C2 H1 1_555 1_555
C3 C4 1_555 1_555
C4 C5 1_555 1_555
C5 H2 1_555 1_555
C6 C5 1_555 1_555
H3 C6 1_555 1_555
C7 C6 1_555 1_555
H4 C7 1_555 1_555
C8 C7 1_555 1_555
C9 C4 1_555 1_555
H5 C9 1_555 1_555
C10 C11 1_555 1_555
C11 H6 1_555 1_555
C12 C13 1_555 1_555
C13 C14 1_555 1_555
C14 H7 1_555 1_555
C15 C14 1_555 1_555
H8 C15 1_555 1_555
C16 C15 1_555 1_555
H9 C16 1_555 1_555
C17 C16 1_555 1_555
H10 C17 1_555 1_555
C18 C13 1_555 1_555
H11 C18 1_555 1_555
C19 H12 1_555 1_555
C20 H13 1_555 1_555
C21 H14 1_555 1_555
C22 H15 1_555 1_555
C23 C21 1_555 1_555
H16 C23 1_555 1_555
C24 C22 1_555 1_555
H17 C24 1_555 1_555
C25 C23 1_555 1_555
C26 C25 1_555 1_555
C27 C19 1_555 1_555
H18 C27 1_555 1_555
C28 C20 1_555 1_555
H19 C28 1_555 1_555
C29 H20 1_555 1_555
C30 H21 1_555 1_555
C31 C30 1_555 1_555
H22 C31 1_555 1_555
C32 C29 1_555 1_555
H23 C32 1_555 1_555
C33 C31 1_555 1_555
C34 H24 1_555 1_555
C35 H25 1_555 1_555
C36 C35 1_555 1_555
H26 C36 1_555 1_555
C37 C34 1_555 1_555
H27 C37 1_555 1_555
C38 C33 1_555 1_555
C39 C40 1_555 1_555
C40 H28 1_555 1_555
C41 C42 1_555 1_555
C42 C43 1_555 1_555
C43 H29 1_555 1_555
C44 C42 1_555 1_555
H30 C44 1_555 1_555
C45 C44 1_555 1_555
C46 C43 1_555 1_555
H31 C46 1_555 1_555
C47 C45 1_555 1_555
H32 C47 1_555 1_555
C48 C49 1_555 1_555
C49 H33 1_555 1_555
H34 C49 1_555 1_555
C50 C51 1_555 1_555
C51 C52 1_555 1_555
C52 H35 1_555 1_555
C53 C51 1_555 1_555
H36 C53 1_555 1_555
C54 C53 1_555 1_555
H37 C54 1_555 1_555
C55 C54 1_555 1_555
H38 C55 1_555 1_555
C56 C52 1_555 1_555
H39 C56 1_555 1_555
Cd1 N2 1_555 1_555
Cd2 N3 1_555 1_555
H40 O13 1_555 1_555
H41 O13 1_555 1_555
H42 O14 1_555 1_555
H43 O14 1_555 1_555
H44 O15 1_555 1_555
H45 O16 1_555 1_555
N1 C19 1_555 1_555
N2 C21 1_555 1_555
N3 C29 1_555 1_555
N4 C34 1_555 1_555
N5 C2 1_555 1_555
N6 C11 1_555 1_555
N7 C40 1_555 1_555
N8 C49 1_555 1_555
O1 C3 1_555 1_555
O2 C12 1_555 1_555
O3 C50 1_555 1_555
O4 C41 1_555 1_555
O5 C39 1_555 1_555
O6 C39 1_555 1_555
O7 C10 1_555 1_555
O8 C10 1_555 1_555
O9 C1 1_555 1_555
O10 C1 1_555 1_555
O11 C48 1_555 1_555
O12 C48 1_555 1_555
O15 H47 1_555 1_555
O16 H46 1_555 1_555
Cd1_2 N1 1_555 1_555
Cd2_2 N4 1_555 1_555
Cd2_3 O10 1_555 1_555
N1_2 Cd1 1_555 1_555
N4_2 Cd2 1_555 1_555
O10_2 Cd2 1_555 1_555
O11_2 Cd2 1_555 1_555
C3 N5 1_555 1_555
C8 C9 1_555 1_555
C12 N6 1_555 1_555
C17 C18 1_555 1_555
C20 N1 1_555 1_555
C22 N2 1_555 1_555
C24 C25 1_555 1_555
C26 C27 1_555 1_555
C26 C28 1_555 1_555
C30 N3 1_555 1_555
C32 C33 1_555 1_555
C35 N4 1_555 1_555
C36 C38 1_555 1_555
C37 C38 1_555 1_555
C41 N7 1_555 1_555
C46 C47 1_555 1_555
C50 N8 1_555 1_555
C55 C56 1_555 1_555
Cd1 O6 1_555 1_555
Cd1 O7 1_555 1_555
Cd1 O9 1_555 1_555
Cd1 O12 1_555 1_555
Cd2 O5 1_555 1_555
Cd2 O8 1_555 1_555
O11 Cd2_3 1_555 1_555

#END
