
#######################################################################
#
#                 Cambridge Crystallographic Data Centre
#                                CCDC 
#
#######################################################################
#
# If this CIF has been generated from an entry in the Cambridge 
# Structural Database, then it will include bibliographic, chemical, 
# crystal, experimental, refinement or atomic coordinate data resulting 
# from the CCDC's data processing and validation procedures.
#
#######################################################################

data_CUMREI
_symmetry_cell_setting           triclinic
_symmetry_space_group_name_H-M   'P -1'
_symmetry_Int_Tables_number      2
_space_group_name_Hall           '-P 1'
loop_
_symmetry_equiv_pos_site_id
_symmetry_equiv_pos_as_xyz
1 x,y,z
2 -x,-y,-z
_cell_length_a                   11.4378(14)
_cell_length_b                   13.3601(16)
_cell_length_c                   17.590(3)
_cell_angle_alpha                106.335(2)
_cell_angle_beta                 106.094(2)
_cell_angle_gamma                102.073(2)
_cell_volume                     2355.1
loop_
_atom_site_label
_atom_site_type_symbol
_atom_site_fract_x
_atom_site_fract_y
_atom_site_fract_z
Zn1 Zn 0.05601(4) -0.37017(3) -0.03318(3)
Fe1 Fe 0.37430(6) 0.37741(5) -0.42356(3)
Fe2 Fe -0.65795(6) -0.92963(5) -0.84083(4)
O1 O 0.4142(3) 0.2160(2) -0.26548(19)
O2 O 0.0902(3) -0.2402(2) -0.0669(2)
O3 O -0.0092(4) -0.3543(3) -0.1981(3)
O4 O -0.3914(4) -0.7627(2) -0.63392(19)
O5 O -0.1271(2) -0.6801(2) -0.09437(15)
O6 O -0.0153(3) -0.5310(2) -0.10525(16)
N1 N 0.2126(3) 0.0884(3) -0.2561(2)
H2 H 0.2911 0.1028 -0.2527
N2 N -0.7548(3) -0.3810(3) -0.0299(2)
N3 N -0.1319(3) -0.3652(3) -0.0338(2)
N4 N -0.3237(4) -0.8137(3) -0.4969(2)
H3 H -0.3360 -0.7663 -0.5202
C1 C 0.2462(5) 0.2339(4) -0.5130(3)
H4 H 0.2026 0.1709 -0.5022
C2 C 0.2015(5) 0.3227(5) -0.5198(3)
H5 H 0.1215 0.3324 -0.5139
C3 C 0.2915(6) 0.3958(4) -0.5355(3)
H6 H 0.2851 0.4647 -0.5429
C4 C 0.3919(6) 0.3515(4) -0.5393(3)
H7 H 0.4682 0.3845 -0.5496
C5 C 0.3638(6) 0.2512(4) -0.5256(3)
H8 H 0.4171 0.2025 -0.5247
C6 C 0.4354(5) 0.5293(3) -0.3312(3)
H9 H 0.4254 0.5969 -0.3398
C7 C 0.5413(5) 0.4903(4) -0.3317(3)
H10 H 0.6165 0.5257 -0.3420
C8 C 0.5189(4) 0.3901(3) -0.3175(2)
H11 H 0.5760 0.3447 -0.3157
C9 C 0.3986(4) 0.3666(3) -0.3073(2)
C10 C 0.3466(5) 0.4535(3) -0.3162(2)
H12 H 0.2647 0.4597 -0.3117
C11 C 0.3425(4) 0.2684(3) -0.2904(2)
C12 C 0.2102(4) 0.2379(4) -0.3014(3)
H13 H 0.1623 0.2798 -0.3211
C13 C 0.1485(4) 0.1510(4) -0.2852(3)
C14 C 0.0102(5) 0.1260(5) -0.2962(4)
H14 H -0.0013 0.1141 -0.2471
H15 H -0.0184 0.1866 -0.3031
H16 H -0.0387 0.0611 -0.3455
C15 C 0.1671(4) 0.0007(3) -0.2298(3)
C16 C 0.2228(5) 0.0102(4) -0.1484(3)
H17 H 0.2879 0.0739 -0.1104
C17 C 0.1836(5) -0.0743(4) -0.1211(3)
H18 H 0.2219 -0.0659 -0.0647
C18 C 0.0905(4) -0.1691(3) -0.1752(3)
C19 C 0.0336(5) -0.1775(4) -0.2570(3)
H19 H -0.0325 -0.2408 -0.2946
C20 C 0.0719(5) -0.0945(4) -0.2849(3)
H20 H 0.0333 -0.1028 -0.3413
C21 C 0.0523(5) -0.2627(4) -0.1459(4)
C22 C -0.8179(7) -1.0086(7) -0.8273(6)
H21 H -0.8347 -1.0790 -0.8191
C23 C -0.8514(5) -0.9941(6) -0.9032(4)
H22 H -0.8952 -1.0524 -0.9592
C24 C -0.8146(7) -0.8852(7) -0.8877(6)
H23 H -0.8271 -0.8516 -0.9309
C25 C -0.7562(8) -0.8295(7) -0.8022(8)
H24 H -0.7219 -0.7496 -0.7738
C26 C -0.7579(8) -0.9046(12) -0.7632(5)
H25 H -0.7261 -0.8887 -0.7020
C27 C -0.5378(5) -0.9028(5) -0.9054(3)
H26 H -0.5554 -0.8778 -0.9535
C28 C -0.5685(5) -1.0130(5) -0.9106(3)
H27 H -0.6115 -1.0775 -0.9631
C29 C -0.5291(4) -1.0150(4) -0.8277(3)
H28 H -0.5384 -1.0805 -0.8124
C30 C -0.4728(4) -0.9029(4) -0.7699(3)
C31 C -0.4795(5) -0.8350(4) -0.8196(3)
H29 H -0.4486 -0.7546 -0.7975
C32 C -0.4233(4) -0.8627(4) -0.6761(3)
C33 C -0.4102(4) -0.9423(3) -0.6371(2)
H30 H -0.4386 -1.0158 -0.6722
C34 C -0.3582(5) -0.9170(3) -0.5512(3)
C35 C -0.3350(6) -1.0067(4) -0.5185(3)
H31 H -0.2497 -0.9819 -0.4776
H32 H -0.3451 -1.0705 -0.5649
H33 H -0.3956 -1.0247 -0.4922
C36 C -0.2703(4) -0.7705(3) -0.4077(2)
C37 C -0.3093(4) -0.8230(3) -0.3574(3)
H34 H -0.3727 -0.8908 -0.3826
C38 C -0.2539(4) -0.7748(3) -0.2690(2)
H35 H -0.2806 -0.8108 -0.2356
C39 C -0.1595(3) -0.6736(3) -0.2308(2)
C40 C -0.1246(4) -0.6198(3) -0.2816(2)
H36 H -0.0639 -0.5505 -0.2566
C41 C -0.1786(5) -0.6676(3) -0.3690(3)
H37 H -0.1534 -0.6305 -0.4022
C42 C -0.0969(3) -0.6238(3) -0.1365(2)
C43 C -0.6506(4) -0.3316(4) 0.0395(3)
H38 H -0.6606 -0.2980 0.0902
C44 C -0.5291(4) -0.3269(4) 0.0412(3)
H39 H -0.4604 -0.2910 0.0924
C45 C -0.5076(3) -0.3738(3) -0.0305(2)
C46 C -0.6152(4) -0.4265(5) -0.1021(3)
H40 H -0.6077 -0.4614 -0.1534
C47 C -0.7341(4) -0.4282(5) -0.0987(3)
H41 H -0.8047 -0.4654 -0.1488
C48 C -0.3777(3) -0.3698(3) -0.0315(2)
C49 C -0.2696(4) -0.3161(4) 0.0404(3)
H42 H -0.2767 -0.2805 0.0918
C50 C -0.1511(4) -0.3150(4) 0.0361(3)
H43 H -0.0798 -0.2765 0.0855
C51 C -0.2352(4) -0.4150(4) -0.1029(3)
H44 H -0.2250 -0.4488 -0.1535
C52 C -0.3564(4) -0.4200(4) -0.1045(3)
H45 H -0.4255 -0.4576 -0.1553
Zn1A Zn -0.05601(4) -0.62983(3) 0.03318(3)
Zn1_2 Zn -0.94399(4) -0.37017(3) -0.03318(3)
O5A O 0.1271(2) -0.3199(2) 0.09437(15)
N2_2 N 0.2452(3) -0.3810(3) -0.0299(2)
O7 O -0.0634(10) -0.5564(8) -0.6595(6)
H1 H -0.0414 -0.5831 -0.7013
C53 C -0.1288(14) -0.6097(11) -0.6164(9)
H46 H -0.0858 -0.5727 -0.5562
H47 H -0.1292 -0.6847 -0.6318
H48 H -0.2153 -0.6075 -0.6321
loop_
_geom_bond_atom_site_label_1
_geom_bond_atom_site_label_2
_geom_bond_site_symmetry_1
_geom_bond_site_symmetry_2
Zn1 O2 1_555 1_555
Fe1 C1 1_555 1_555
Fe2 C22 1_555 1_555
O1 C11 1_555 1_555
O2 C21 1_555 1_555
O3 C21 1_555 1_555
O4 C32 1_555 1_555
O5 C42 1_555 1_555
O6 Zn1 1_555 1_555
O7 H1 1_555 1_555
N1 H2 1_555 1_555
N2 C43 1_555 1_555
N3 Zn1 1_555 1_555
N4 H3 1_555 1_555
C1 H4 1_555 1_555
C2 Fe1 1_555 1_555
H5 C2 1_555 1_555
C3 Fe1 1_555 1_555
H6 C3 1_555 1_555
C4 Fe1 1_555 1_555
H7 C4 1_555 1_555
C5 Fe1 1_555 1_555
H8 C5 1_555 1_555
C6 Fe1 1_555 1_555
H9 C6 1_555 1_555
C7 Fe1 1_555 1_555
H10 C7 1_555 1_555
C8 Fe1 1_555 1_555
H11 C8 1_555 1_555
C9 Fe1 1_555 1_555
C10 Fe1 1_555 1_555
H12 C10 1_555 1_555
C11 C9 1_555 1_555
C12 C11 1_555 1_555
H13 C12 1_555 1_555
C13 N1 1_555 1_555
C14 C13 1_555 1_555
H14 C14 1_555 1_555
H15 C14 1_555 1_555
H16 C14 1_555 1_555
C15 N1 1_555 1_555
C16 C15 1_555 1_555
H17 C16 1_555 1_555
C17 C16 1_555 1_555
H18 C17 1_555 1_555
C18 C17 1_555 1_555
C19 C18 1_555 1_555
H19 C19 1_555 1_555
C20 C15 1_555 1_555
H20 C20 1_555 1_555
C21 C18 1_555 1_555
C22 H21 1_555 1_555
C23 Fe2 1_555 1_555
H22 C23 1_555 1_555
C24 Fe2 1_555 1_555
H23 C24 1_555 1_555
C25 Fe2 1_555 1_555
H24 C25 1_555 1_555
C26 Fe2 1_555 1_555
H25 C26 1_555 1_555
C27 Fe2 1_555 1_555
H26 C27 1_555 1_555
C28 Fe2 1_555 1_555
H27 C28 1_555 1_555
C29 Fe2 1_555 1_555
H28 C29 1_555 1_555
C30 Fe2 1_555 1_555
C31 Fe2 1_555 1_555
H29 C31 1_555 1_555
C32 C30 1_555 1_555
C33 C32 1_555 1_555
H30 C33 1_555 1_555
C34 N4 1_555 1_555
C35 C34 1_555 1_555
H31 C35 1_555 1_555
H32 C35 1_555 1_555
H33 C35 1_555 1_555
C36 N4 1_555 1_555
C37 C36 1_555 1_555
H34 C37 1_555 1_555
C38 C37 1_555 1_555
H35 C38 1_555 1_555
C39 C38 1_555 1_555
C40 C39 1_555 1_555
H36 C40 1_555 1_555
C41 C36 1_555 1_555
H37 C41 1_555 1_555
C42 O6 1_555 1_555
C43 H38 1_555 1_555
C44 C43 1_555 1_555
H39 C44 1_555 1_555
C45 C44 1_555 1_555
C46 C45 1_555 1_555
H40 C46 1_555 1_555
C47 N2 1_555 1_555
H41 C47 1_555 1_555
C48 C45 1_555 1_555
C49 C48 1_555 1_555
H42 C49 1_555 1_555
C50 N3 1_555 1_555
H43 C50 1_555 1_555
C51 N3 1_555 1_555
H44 C51 1_555 1_555
C52 C48 1_555 1_555
H45 C52 1_555 1_555
C53 O7 1_555 1_555
H46 C53 1_555 1_555
H47 C53 1_555 1_555
H48 C53 1_555 1_555
Zn1A O5 1_555 1_555
Zn1_2 N2 1_555 1_555
O5A Zn1 1_555 1_555
N2_2 Zn1 1_555 1_555
C1 C2 1_555 1_555
C1 C5 1_555 1_555
C2 C3 1_555 1_555
C3 C4 1_555 1_555
C4 C5 1_555 1_555
C6 C7 1_555 1_555
C6 C10 1_555 1_555
C7 C8 1_555 1_555
C8 C9 1_555 1_555
C9 C10 1_555 1_555
C12 C13 1_555 1_555
C19 C20 1_555 1_555
C22 C23 1_555 1_555
C22 C26 1_555 1_555
C23 C24 1_555 1_555
C24 C25 1_555 1_555
C25 C26 1_555 1_555
C27 C28 1_555 1_555
C27 C31 1_555 1_555
C28 C29 1_555 1_555
C29 C30 1_555 1_555
C30 C31 1_555 1_555
C33 C34 1_555 1_555
C39 C42 1_555 1_555
C40 C41 1_555 1_555
C46 C47 1_555 1_555
C49 C50 1_555 1_555
C51 C52 1_555 1_555

#END
