
#######################################################################
#
#                 Cambridge Crystallographic Data Centre
#                                CCDC 
#
#######################################################################
#
# If this CIF has been generated from an entry in the Cambridge 
# Structural Database, then it will include bibliographic, chemical, 
# crystal, experimental, refinement or atomic coordinate data resulting 
# from the CCDC's data processing and validation procedures.
#
#######################################################################

data_CUMRIM
_symmetry_cell_setting           triclinic
_symmetry_space_group_name_H-M   'P -1'
_symmetry_Int_Tables_number      2
_space_group_name_Hall           '-P 1'
loop_
_symmetry_equiv_pos_site_id
_symmetry_equiv_pos_as_xyz
1 x,y,z
2 -x,-y,-z
_cell_length_a                   11.752(6)
_cell_length_b                   13.457(7)
_cell_length_c                   17.688(13)
_cell_angle_alpha                108.218(8)
_cell_angle_beta                 103.065(8)
_cell_angle_gamma                102.821(6)
_cell_volume                     2455.5
loop_
_atom_site_label
_atom_site_type_symbol
_atom_site_fract_x
_atom_site_fract_y
_atom_site_fract_z
Cd1 Cd 0.58616(7) 0.66507(6) 0.53318(5)
Fe1 Fe 1.2994(2) 1.79901(15) 0.92373(11)
Fe2 Fe 0.3190(2) 0.08358(18) -0.33956(12)
O1 O 1.1738(10) 1.4851(8) 0.7678(7)
O2 O 0.6644(11) 0.8433(8) 0.5581(7)
O3 O 0.6913(13) 0.8384(10) 0.6820(8)
O4 O 0.2576(15) 0.1229(10) -0.1376(7)
O5 O 0.4221(11) 0.4435(9) 0.3930(6)
O6 O 0.5296(7) 0.5994(7) 0.3923(5)
N1 N 0.9698(12) 1.3509(9) 0.7640(8)
H2 H 1.0452 1.3635 0.7649
N2 N 0.3228(16) 0.3101(12) -0.0020(7)
H3 H 0.3128 0.2407 -0.0226
N3 N 0.3910(8) 0.6675(8) 0.5327(6)
N4 N -0.2228(8) 0.6450(9) 0.5291(6)
C1 C 1.268(2) 1.7444(13) 1.0156(10)
H4 H 1.2161 1.6706 1.0058
C2 C 1.226(2) 1.8368(15) 1.0201(10)
H5 H 1.1424 1.8398 1.0160
C3 C 1.333(2) 1.9257(14) 1.0359(10)
H6 H 1.3339 2.0010 1.0426
C4 C 1.433(2) 1.8882(17) 1.0389(9)
H7 H 1.5178 1.9318 1.0491
C5 C 1.391(2) 1.7740(15) 1.0259(10)
H8 H 1.4417 1.7254 1.0252
C6 C 1.3332(15) 1.7061(14) 0.8171(9)
H9 H 1.3850 1.6580 0.8152
C7 C 1.3723(17) 1.8186(14) 0.8319(9)
H10 H 1.4568 1.8624 0.8419
C8 C 1.2691(17) 1.8607(12) 0.8317(9)
H11 H 1.2712 1.9367 0.8400
C9 C 1.1664(16) 1.7738(11) 0.8188(8)
H12 H 1.0831 1.7777 0.8152
C10 C 1.2043(13) 1.6746(10) 0.8075(7)
C11 C 1.1302(14) 1.5609(11) 0.7915(8)
C12 C 1.0120(14) 1.5441(12) 0.8058(11)
H13 H 0.9868 1.6054 0.8256
C13 C 0.9344(14) 1.4411(13) 0.7914(10)
C14 C 0.8096(17) 1.4274(18) 0.8042(16)
H14 H 0.7461 1.3887 0.7507
H15 H 0.8022 1.4986 0.8306
H16 H 0.8014 1.3860 0.8392
C15 C 0.8979(13) 1.2366(12) 0.7336(9)
C16 C 0.884(2) 1.1731(15) 0.6558(14)
H17 H 0.9202 1.2044 0.6237
C17 C 0.814(2) 1.0570(12) 0.6187(13)
H18 H 0.7984 1.0141 0.5626
C18 C 0.7701(12) 1.0133(10) 0.6735(8)
C19 C 0.786(2) 1.0782(15) 0.7521(11)
H19 H 0.7523 1.0474 0.7855
C20 C 0.852(2) 1.1923(14) 0.7863(10)
H20 H 0.8647 1.2359 0.8418
C21 C 0.7024(13) 0.8889(12) 0.6356(10)
C22 C 0.490(2) 0.176(2) -0.3252(19)
H21 H 0.5131 0.2525 -0.3201
C23 C 0.450(2) 0.085(2) -0.3996(14)
H22 H 0.4415 0.0833 -0.4564
C24 C 0.432(3) -0.003(2) -0.375(3)
H23 H 0.3999 -0.0791 -0.4158
C25 C 0.449(4) 0.021(4) -0.297(3)
H24 H 0.4413 -0.0312 -0.2681
C26 C 0.495(2) 0.141(4) -0.2577(14)
H25 H 0.5238 0.1871 -0.1977
C27 C 0.2065(17) 0.1799(16) -0.3303(10)
H26 H 0.2317 0.2598 -0.3156
C28 C 0.1652(18) 0.0964(18) -0.4137(11)
H27 H 0.1585 0.1097 -0.4657
C29 C 0.1366(18) -0.0060(18) -0.4081(10)
H28 H 0.1084 -0.0769 -0.4558
C30 C 0.1639(18) 0.0073(15) -0.3197(11)
H29 H 0.1523 -0.0504 -0.2968
C31 C 0.2052(16) 0.1271(13) -0.2742(8)
C32 C 0.2460(17) 0.1801(13) -0.1793(9)
C33 C 0.2646(18) 0.2941(14) -0.1439(9)
H30 H 0.2524 0.3297 -0.1809
C34 C 0.299(2) 0.3580(14) -0.0592(9)
C35 C 0.300(3) 0.4742(14) -0.0304(10)
H31 H 0.2750 0.4914 0.0191
H32 H 0.2431 0.4841 -0.0738
H33 H 0.3810 0.5223 -0.0178
C36 C 0.3606(16) 0.3595(13) 0.0846(8)
C37 C 0.3136(17) 0.2973(11) 0.1302(8)
H34 H 0.2580 0.2264 0.1014
C38 C 0.3518(15) 0.3438(12) 0.2175(9)
H35 H 0.3216 0.3028 0.2465
C39 C 0.4329(12) 0.4484(10) 0.2620(7)
C40 C 0.4822(13) 0.5065(12) 0.2191(8)
H36 H 0.5394 0.5766 0.2484
C41 C 0.4463(16) 0.4603(13) 0.1313(10)
H37 H 0.4825 0.5002 0.1036
C42 C 0.4667(11) 0.5008(11) 0.3559(7)
C43 C 0.2993(14) 0.6408(17) 0.4630(9)
H38 H 0.3171 0.6254 0.4127
C44 C 0.1791(14) 0.6344(17) 0.4599(9)
H39 H 0.1193 0.6136 0.4084
C45 C 0.1475(10) 0.6584(10) 0.5316(7)
C46 C 0.2413(13) 0.6842(18) 0.6037(10)
H40 H 0.2253 0.6985 0.6545
C47 C 0.3587(12) 0.6892(16) 0.6019(9)
H41 H 0.4197 0.7091 0.6527
C48 C 0.0184(10) 0.6525(9) 0.5297(7)
C49 C -0.0736(12) 0.6268(15) 0.4586(9)
H42 H -0.0580 0.6105 0.4076
C50 C -0.1904(12) 0.6245(16) 0.4608(9)
H43 H -0.2508 0.6071 0.4103
C51 C -0.1334(14) 0.6681(19) 0.5977(9)
H44 H -0.1519 0.6840 0.6477
C52 C -0.0137(14) 0.671(2) 0.6018(10)
H45 H 0.0442 0.6848 0.6525
Cd1A Cd 0.41384(7) 0.33493(6) 0.46682(5)
Cd1_2 Cd -0.41384(7) 0.66507(6) 0.53318(5)
Cd1A_2 Cd 1.41384(7) 0.33493(6) 0.46682(5)
Fe1A Fe -0.2994(2) -0.79901(15) 0.07627(11)
Fe2A Fe 0.6810(2) 0.91642(18) 1.33956(12)
O1A O -0.1738(10) -0.4851(8) 0.2322(7)
O2A O 0.3356(11) 0.1567(8) 0.4419(7)
O3A O 0.3087(13) 0.1616(10) 0.3180(8)
O4A O 0.7424(15) 0.8771(10) 1.1376(7)
O5A O 0.5779(11) 0.5565(9) 0.6070(6)
O6A O 0.4704(7) 0.4006(7) 0.6077(5)
N1A N 0.0302(12) -0.3509(9) 0.2360(8)
H2A H -0.0452 -0.3635 0.2351
N2A N 0.6772(16) 0.6899(12) 1.0020(7)
H3A H 0.6872 0.7593 1.0226
N3A N 0.6090(8) 0.3325(8) 0.4673(6)
N4A N 1.2228(8) 0.3550(9) 0.4709(6)
N4_2 N 0.7772(8) 0.6450(9) 0.5291(6)
N4A_2 N 0.2228(8) 0.3550(9) 0.4709(6)
C1A C -0.268(2) -0.7444(13) -0.0156(10)
H4A H -0.2161 -0.6706 -0.0058
C2A C -0.226(2) -0.8368(15) -0.0201(10)
H5A H -0.1424 -0.8398 -0.0160
C3A C -0.333(2) -0.9257(14) -0.0359(10)
H6A H -0.3339 -1.0010 -0.0426
C4A C -0.433(2) -0.8882(17) -0.0389(9)
H7A H -0.5178 -0.9318 -0.0491
C5A C -0.391(2) -0.7740(15) -0.0259(10)
H8A H -0.4417 -0.7254 -0.0252
C6A C -0.3332(15) -0.7061(14) 0.1829(9)
H9A H -0.3850 -0.6580 0.1848
C7A C -0.3723(17) -0.8186(14) 0.1681(9)
H10A H -0.4568 -0.8624 0.1581
C8A C -0.2691(17) -0.8607(12) 0.1683(9)
H11A H -0.2712 -0.9367 0.1600
C9A C -0.1664(16) -0.7738(11) 0.1812(8)
H12A H -0.0831 -0.7777 0.1848
C10A C -0.2043(13) -0.6746(10) 0.1925(7)
C11A C -0.1302(14) -0.5609(11) 0.2085(8)
C12A C -0.0120(14) -0.5441(12) 0.1942(11)
H13A H 0.0132 -0.6054 0.1744
C13A C 0.0656(14) -0.4411(13) 0.2086(10)
C14A C 0.1904(17) -0.4274(18) 0.1958(16)
H14A H 0.2539 -0.3887 0.2493
H15A H 0.1978 -0.4986 0.1694
H16A H 0.1986 -0.3860 0.1608
C15A C 0.1021(13) -0.2366(12) 0.2664(9)
C16A C 0.116(2) -0.1731(15) 0.3442(14)
H17A H 0.0798 -0.2044 0.3763
C17A C 0.186(2) -0.0570(12) 0.3813(13)
H18A H 0.2016 -0.0141 0.4374
C18A C 0.2299(12) -0.0133(10) 0.3265(8)
C19A C 0.214(2) -0.0782(15) 0.2479(11)
H19A H 0.2477 -0.0474 0.2145
C20A C 0.148(2) -0.1923(14) 0.2137(10)
H20A H 0.1353 -0.2359 0.1582
C21A C 0.2976(13) 0.1111(12) 0.3644(10)
C22A C 0.510(2) 0.824(2) 1.3252(19)
H21A H 0.4869 0.7475 1.3201
C23A C 0.550(2) 0.915(2) 1.3996(14)
H22A H 0.5585 0.9167 1.4564
C24A C 0.568(3) 1.003(2) 1.375(3)
H23A H 0.6001 1.0791 1.4158
C25A C 0.551(4) 0.979(4) 1.297(3)
H24A H 0.5587 1.0312 1.2681
C26A C 0.505(2) 0.859(4) 1.2577(14)
H25A H 0.4762 0.8129 1.1977
C27A C 0.7935(17) 0.8201(16) 1.3303(10)
H26A H 0.7683 0.7402 1.3156
C28A C 0.8348(18) 0.9036(18) 1.4137(11)
H27A H 0.8415 0.8903 1.4657
C29A C 0.8634(18) 1.0060(18) 1.4081(10)
H28A H 0.8916 1.0769 1.4558
C30A C 0.8361(18) 0.9927(15) 1.3197(11)
H29A H 0.8477 1.0504 1.2968
C31A C 0.7948(16) 0.8729(13) 1.2742(8)
C32A C 0.7540(17) 0.8199(13) 1.1793(9)
C33A C 0.7354(18) 0.7059(14) 1.1439(9)
H30A H 0.7476 0.6703 1.1809
C34A C 0.701(2) 0.6420(14) 1.0592(9)
C35A C 0.700(3) 0.5258(14) 1.0304(10)
H31A H 0.7250 0.5086 0.9809
H32A H 0.7569 0.5159 1.0738
H33A H 0.6190 0.4777 1.0178
C36A C 0.6394(16) 0.6405(13) 0.9154(8)
C37A C 0.6864(17) 0.7027(11) 0.8698(8)
H34A H 0.7420 0.7736 0.8986
C38A C 0.6482(15) 0.6562(12) 0.7825(9)
H35A H 0.6784 0.6972 0.7535
C39A C 0.5671(12) 0.5516(10) 0.7380(7)
C40A C 0.5178(13) 0.4935(12) 0.7809(8)
H36A H 0.4606 0.4234 0.7516
C41A C 0.5537(16) 0.5397(13) 0.8687(10)
H37A H 0.5175 0.4998 0.8964
C42A C 0.5333(11) 0.4992(11) 0.6441(7)
C43A C 0.7007(14) 0.3592(17) 0.5370(9)
H38A H 0.6829 0.3746 0.5873
C44A C 0.8209(14) 0.3656(17) 0.5401(9)
H39A H 0.8807 0.3864 0.5916
C45A C 0.8525(10) 0.3416(10) 0.4684(7)
C46A C 0.7587(13) 0.3158(18) 0.3963(10)
H40A H 0.7747 0.3015 0.3455
C47A C 0.6413(12) 0.3108(16) 0.3981(9)
H41A H 0.5803 0.2909 0.3473
C48A C 0.9816(10) 0.3475(9) 0.4703(7)
C49A C 1.0736(12) 0.3732(15) 0.5414(9)
H42A H 1.0580 0.3895 0.5924
C50A C 1.1904(12) 0.3755(16) 0.5392(9)
H43A H 1.2508 0.3929 0.5897
C51A C 1.1334(14) 0.3319(19) 0.4023(9)
H44A H 1.1519 0.3160 0.3523
C52A C 1.0137(14) 0.329(2) 0.3982(10)
H45A H 0.9558 0.3152 0.3475
O7 O 0.912(5) 0.877(4) 0.822(3)
H1 H 0.8483 0.8669 0.7827
C53 C 0.998(6) 0.987(5) 0.876(4)
H46 H 1.0771 0.9922 0.8683
H47 H 1.0055 0.9995 0.9336
H48 H 0.9680 1.0415 0.8613
loop_
_geom_bond_atom_site_label_1
_geom_bond_atom_site_label_2
_geom_bond_site_symmetry_1
_geom_bond_site_symmetry_2
Cd1 O2 1_555 1_555
Fe1 C1 1_555 1_555
Fe2 C22 1_555 1_555
O1 C11 1_555 1_555
O2 C21 1_555 1_555
O3 Cd1 1_555 1_555
O4 C32 1_555 1_555
O5 C42 1_555 1_555
O6 Cd1 1_555 1_555
O7 H1 1_555 1_555
N1 H2 1_555 1_555
N2 H3 1_555 1_555
N3 Cd1 1_555 1_555
N4 C50 1_555 1_555
C1 H4 1_555 1_555
C2 Fe1 1_555 1_555
H5 C2 1_555 1_555
C3 Fe1 1_555 1_555
H6 C3 1_555 1_555
C4 Fe1 1_555 1_555
H7 C4 1_555 1_555
C5 Fe1 1_555 1_555
H8 C5 1_555 1_555
C6 Fe1 1_555 1_555
H9 C6 1_555 1_555
C7 Fe1 1_555 1_555
H10 C7 1_555 1_555
C8 Fe1 1_555 1_555
H11 C8 1_555 1_555
C9 Fe1 1_555 1_555
H12 C9 1_555 1_555
C10 Fe1 1_555 1_555
C11 C10 1_555 1_555
C12 C11 1_555 1_555
H13 C12 1_555 1_555
C13 N1 1_555 1_555
C14 C13 1_555 1_555
H14 C14 1_555 1_555
H15 C14 1_555 1_555
H16 C14 1_555 1_555
C15 N1 1_555 1_555
C16 C15 1_555 1_555
H17 C16 1_555 1_555
C17 C16 1_555 1_555
H18 C17 1_555 1_555
C18 C17 1_555 1_555
C19 C18 1_555 1_555
H19 C19 1_555 1_555
C20 C15 1_555 1_555
H20 C20 1_555 1_555
C21 O3 1_555 1_555
C22 H21 1_555 1_555
C23 Fe2 1_555 1_555
H22 C23 1_555 1_555
C24 Fe2 1_555 1_555
H23 C24 1_555 1_555
C25 Fe2 1_555 1_555
H24 C25 1_555 1_555
C26 Fe2 1_555 1_555
H25 C26 1_555 1_555
C27 Fe2 1_555 1_555
H26 C27 1_555 1_555
C28 Fe2 1_555 1_555
H27 C28 1_555 1_555
C29 Fe2 1_555 1_555
H28 C29 1_555 1_555
C30 Fe2 1_555 1_555
H29 C30 1_555 1_555
C31 Fe2 1_555 1_555
C32 C31 1_555 1_555
C33 C32 1_555 1_555
H30 C33 1_555 1_555
C34 N2 1_555 1_555
C35 C34 1_555 1_555
H31 C35 1_555 1_555
H32 C35 1_555 1_555
H33 C35 1_555 1_555
C36 N2 1_555 1_555
C37 C36 1_555 1_555
H34 C37 1_555 1_555
C38 C37 1_555 1_555
H35 C38 1_555 1_555
C39 C38 1_555 1_555
C40 C39 1_555 1_555
H36 C40 1_555 1_555
C41 C36 1_555 1_555
H37 C41 1_555 1_555
C42 O6 1_555 1_555
C43 N3 1_555 1_555
H38 C43 1_555 1_555
C44 C43 1_555 1_555
H39 C44 1_555 1_555
C45 C44 1_555 1_555
C46 C45 1_555 1_555
H40 C46 1_555 1_555
C47 N3 1_555 1_555
H41 C47 1_555 1_555
C48 C45 1_555 1_555
C49 C48 1_555 1_555
H42 C49 1_555 1_555
C50 C49 1_555 1_555
H43 C50 1_555 1_555
C51 N4 1_555 1_555
H44 C51 1_555 1_555
C52 C48 1_555 1_555
H45 C52 1_555 1_555
C53 O7 1_555 1_555
H46 C53 1_555 1_555
H47 C53 1_555 1_555
H48 C53 1_555 1_555
Cd1A O5 1_555 1_555
Cd1_2 N4 1_555 1_555
Cd1A_2 N4A 1_555 1_555
Fe1A C1A 1_555 1_555
Fe2A C22A 1_555 1_555
O1A C11A 1_555 1_555
O2A Cd1A 1_555 1_555
O3A Cd1A 1_555 1_555
O4A C32A 1_555 1_555
O5A Cd1 1_555 1_555
O6A Cd1A 1_555 1_555
N1A H2A 1_555 1_555
N2A H3A 1_555 1_555
N3A Cd1A 1_555 1_555
N4A C50A 1_555 1_555
N4_2 Cd1 1_555 1_555
N4A_2 Cd1A 1_555 1_555
C1A H4A 1_555 1_555
C2A Fe1A 1_555 1_555
H5A C2A 1_555 1_555
C3A Fe1A 1_555 1_555
H6A C3A 1_555 1_555
C4A Fe1A 1_555 1_555
H7A C4A 1_555 1_555
C5A Fe1A 1_555 1_555
H8A C5A 1_555 1_555
C6A Fe1A 1_555 1_555
H9A C6A 1_555 1_555
C7A Fe1A 1_555 1_555
H10A C7A 1_555 1_555
C8A Fe1A 1_555 1_555
H11A C8A 1_555 1_555
C9A Fe1A 1_555 1_555
H12A C9A 1_555 1_555
C10A Fe1A 1_555 1_555
C11A C10A 1_555 1_555
C12A C11A 1_555 1_555
H13A C12A 1_555 1_555
C13A N1A 1_555 1_555
C14A C13A 1_555 1_555
H14A C14A 1_555 1_555
H15A C14A 1_555 1_555
H16A C14A 1_555 1_555
C15A N1A 1_555 1_555
C16A C15A 1_555 1_555
H17A C16A 1_555 1_555
C17A C16A 1_555 1_555
H18A C17A 1_555 1_555
C18A C17A 1_555 1_555
C19A C18A 1_555 1_555
H19A C19A 1_555 1_555
C20A C15A 1_555 1_555
H20A C20A 1_555 1_555
C21A O2A 1_555 1_555
C22A H21A 1_555 1_555
C23A Fe2A 1_555 1_555
H22A C23A 1_555 1_555
C24A Fe2A 1_555 1_555
H23A C24A 1_555 1_555
C25A Fe2A 1_555 1_555
H24A C25A 1_555 1_555
C26A Fe2A 1_555 1_555
H25A C26A 1_555 1_555
C27A Fe2A 1_555 1_555
H26A C27A 1_555 1_555
C28A Fe2A 1_555 1_555
H27A C28A 1_555 1_555
C29A Fe2A 1_555 1_555
H28A C29A 1_555 1_555
C30A Fe2A 1_555 1_555
H29A C30A 1_555 1_555
C31A Fe2A 1_555 1_555
C32A C31A 1_555 1_555
C33A C32A 1_555 1_555
H30A C33A 1_555 1_555
C34A N2A 1_555 1_555
C35A C34A 1_555 1_555
H31A C35A 1_555 1_555
H32A C35A 1_555 1_555
H33A C35A 1_555 1_555
C36A N2A 1_555 1_555
C37A C36A 1_555 1_555
H34A C37A 1_555 1_555
C38A C37A 1_555 1_555
H35A C38A 1_555 1_555
C39A C38A 1_555 1_555
C40A C39A 1_555 1_555
H36A C40A 1_555 1_555
C41A C36A 1_555 1_555
H37A C41A 1_555 1_555
C42A O5A 1_555 1_555
C43A N3A 1_555 1_555
H38A C43A 1_555 1_555
C44A C43A 1_555 1_555
H39A C44A 1_555 1_555
C45A C44A 1_555 1_555
C46A C45A 1_555 1_555
H40A C46A 1_555 1_555
C47A N3A 1_555 1_555
H41A C47A 1_555 1_555
C48A C45A 1_555 1_555
C49A C48A 1_555 1_555
H42A C49A 1_555 1_555
C50A C49A 1_555 1_555
H43A C50A 1_555 1_555
C51A N4A 1_555 1_555
H44A C51A 1_555 1_555
C52A C48A 1_555 1_555
H45A C52A 1_555 1_555
C1 C2 1_555 1_555
C1 C5 1_555 1_555
C2 C3 1_555 1_555
C3 C4 1_555 1_555
C4 C5 1_555 1_555
C6 C7 1_555 1_555
C6 C10 1_555 1_555
C7 C8 1_555 1_555
C8 C9 1_555 1_555
C9 C10 1_555 1_555
C12 C13 1_555 1_555
C18 C21 1_555 1_555
C19 C20 1_555 1_555
C22 C23 1_555 1_555
C22 C26 1_555 1_555
C23 C24 1_555 1_555
C24 C25 1_555 1_555
C25 C26 1_555 1_555
C27 C28 1_555 1_555
C27 C31 1_555 1_555
C28 C29 1_555 1_555
C29 C30 1_555 1_555
C30 C31 1_555 1_555
C33 C34 1_555 1_555
C39 C42 1_555 1_555
C40 C41 1_555 1_555
C46 C47 1_555 1_555
C51 C52 1_555 1_555
O3A C21A 1_555 1_555
O6A C42A 1_555 1_555
C1A C2A 1_555 1_555
C1A C5A 1_555 1_555
C2A C3A 1_555 1_555
C3A C4A 1_555 1_555
C4A C5A 1_555 1_555
C6A C7A 1_555 1_555
C6A C10A 1_555 1_555
C7A C8A 1_555 1_555
C8A C9A 1_555 1_555
C9A C10A 1_555 1_555
C12A C13A 1_555 1_555
C18A C21A 1_555 1_555
C19A C20A 1_555 1_555
C22A C23A 1_555 1_555
C22A C26A 1_555 1_555
C23A C24A 1_555 1_555
C24A C25A 1_555 1_555
C25A C26A 1_555 1_555
C27A C28A 1_555 1_555
C27A C31A 1_555 1_555
C28A C29A 1_555 1_555
C29A C30A 1_555 1_555
C30A C31A 1_555 1_555
C33A C34A 1_555 1_555
C39A C42A 1_555 1_555
C40A C41A 1_555 1_555
C46A C47A 1_555 1_555
C51A C52A 1_555 1_555

#END
