
#######################################################################
#
#                 Cambridge Crystallographic Data Centre
#                                CCDC 
#
#######################################################################
#
# If this CIF has been generated from an entry in the Cambridge 
# Structural Database, then it will include bibliographic, chemical, 
# crystal, experimental, refinement or atomic coordinate data resulting 
# from the CCDC's data processing and validation procedures.
#
#######################################################################

data_CUMXEO
_symmetry_cell_setting           triclinic
_symmetry_space_group_name_H-M   'P -1'
_symmetry_Int_Tables_number      2
_space_group_name_Hall           '-P 1'
loop_
_symmetry_equiv_pos_site_id
_symmetry_equiv_pos_as_xyz
1 x,y,z
2 -x,-y,-z
_cell_length_a                   9.94500(10)
_cell_length_b                   10.3290(2)
_cell_length_c                   32.8450(9)
_cell_angle_alpha                88.7530(10)
_cell_angle_beta                 87.4150(10)
_cell_angle_gamma                61.2120(10)
_cell_volume                     2953.9
loop_
_atom_site_label
_atom_site_type_symbol
_atom_site_fract_x
_atom_site_fract_y
_atom_site_fract_z
Fe1 Fe 0.3207(2) 1.35799(18) 0.25005(5)
Ag1 Ag 0.32379(15) 0.85762(11) 0.22854(3)
Ag2 Ag 0.81857(14) 0.85763(12) 0.27144(3)
N1 N 0.3262(14) 1.3569(10) 0.3174(3)
N2 N 0.3192(16) 1.3541(11) 0.1824(3)
N3 N 0.2561(14) 1.1857(12) 0.2495(3)
N4 N 0.3918(13) 1.5250(12) 0.2447(3)
N5 N 0.5588(13) 1.1827(12) 0.2504(3)
N6 N 0.0835(15) 1.5262(13) 0.2551(3)
N7 N 0.6377(17) 1.1564(15) 0.6326(4)
N8 N 0.201(2) 1.1617(17) -0.1328(4)
N9 N 0.3104(14) 0.8443(14) 0.1520(3)
N10 N 0.1645(18) 0.653(2) -0.1617(4)
N11 N 0.8450(17) 0.8471(15) 0.3482(3)
N12 N 1.185(2) 0.652(2) 0.6612(5)
C1 C 0.2355(18) 1.3263(14) 0.3412(4)
H1 H 0.1573 1.3166 0.3296
C2 C 0.2514(18) 1.3081(15) 0.3825(4)
H2 H 0.1823 1.2887 0.3979
C3 C 0.3662(17) 1.3176(13) 0.4019(4)
C4 C 0.4588(18) 1.3550(16) 0.3767(4)
H3 H 0.5347 1.3695 0.3880
C5 C 0.4391(16) 1.3708(14) 0.3354(4)
H4 H 0.5054 1.3918 0.3192
C6 C 0.3877(18) 1.2872(15) 0.4450(4)
H5 H 0.3237 1.2565 0.4585
C7 C 0.4900(18) 1.2989(15) 0.4674(4)
H6 H 0.5462 1.3384 0.4539
C8 C 0.5270(17) 1.2588(14) 0.5100(4)
C9 C 0.4682(19) 1.1828(15) 0.5336(4)
H7 H 0.4032 1.1537 0.5221
C10 C 0.505(2) 1.1499(17) 0.5739(4)
H8 H 0.4629 1.1000 0.5889
C11 C 0.6031(19) 1.1881(17) 0.5931(4)
C12 C 0.6583(18) 1.2675(17) 0.5689(4)
H9 H 0.7203 1.3001 0.5804
C13 C 0.6241(17) 1.2982(15) 0.5291(4)
H10 H 0.6671 1.3474 0.5141
C14 C 0.558(2) 1.0976(19) 0.6588(5)
H11 H 0.5946 1.0848 0.6859
H12 H 0.5762 1.0041 0.6484
H13 H 0.4494 1.1653 0.6594
C15 C 0.7372(18) 1.1970(17) 0.6518(4)
H14 H 0.7455 1.1674 0.6798
H15 H 0.6963 1.3021 0.6501
H16 H 0.8369 1.1489 0.6383
C16 C 0.437(2) 1.3261(16) 0.1580(5)
H17 H 0.5247 1.3181 0.1695
C17 C 0.4413(17) 1.3076(15) 0.1161(4)
H18 H 0.5287 1.2886 0.1003
C18 C 0.3140(19) 1.3178(14) 0.0987(4)
C19 C 0.182(2) 1.3537(15) 0.1239(4)
H19 H 0.0923 1.3654 0.1131
C20 C 0.1903(18) 1.3710(14) 0.1651(4)
H20 H 0.1033 1.3955 0.1818
C21 C 0.3270(18) 1.2857(14) 0.0542(4)
H21 H 0.4214 1.2549 0.0406
C22 C 0.2087(17) 1.2991(14) 0.0329(4)
H22 H 0.1141 1.3370 0.0470
C23 C 0.2120(19) 1.2612(16) -0.0096(4)
C24 C 0.347(2) 1.1821(17) -0.0322(4)
H23 H 0.4398 1.1511 -0.0196
C25 C 0.3521(18) 1.1459(15) -0.0739(4)
H24 H 0.4440 1.0952 -0.0889
C26 C 0.203(2) 1.1934(19) -0.0915(5)
C27 C 0.069(2) 1.2693(19) -0.0691(5)
H25 H -0.0255 1.2998 -0.0806
C28 C 0.0774(18) 1.2987(15) -0.0293(4)
H26 H -0.0145 1.3478 -0.0142
C29 C 0.346(2) 1.093(2) -0.1580(5)
H27 H 0.3243 1.0780 -0.1852
H28 H 0.4158 0.9996 -0.1464
H29 H 0.3911 1.1568 -0.1588
C30 C 0.0609(17) 1.2009(15) -0.1528(4)
H30 H 0.0842 1.1685 -0.1806
H31 H -0.0033 1.3061 -0.1520
H32 H 0.0083 1.1541 -0.1391
C31 C 0.2740(17) 1.0709(15) 0.2410(4)
C32 C 0.3768(18) 1.6424(16) 0.2396(3)
C33 C 0.6555(19) 1.0726(17) 0.2587(4)
C34 C -0.017(2) 1.6398(17) 0.2595(4)
C35 C 0.2622(19) 0.9616(18) 0.1276(5)
H33 H 0.2375 1.0520 0.1393
C36 C 0.2466(19) 0.9586(19) 0.0869(5)
H34 H 0.2191 1.0436 0.0714
C37 C 0.2708(17) 0.8320(19) 0.0683(5)
C38 C 0.3203(18) 0.7082(18) 0.0931(5)
H35 H 0.3428 0.6174 0.0822
C39 C 0.3363(17) 0.7214(16) 0.1353(4)
H36 H 0.3668 0.6382 0.1517
C40 C 0.2460(19) 0.830(2) 0.0246(5)
H37 H 0.2092 0.9196 0.0107
C41 C 0.271(2) 0.717(2) 0.0038(5)
H38 H 0.3118 0.6287 0.0185
C42 C 0.2441(18) 0.701(2) -0.0402(4)
C43 C 0.1800(18) 0.8256(18) -0.0650(5)
H39 H 0.1567 0.9176 -0.0548
C44 C 0.1511(19) 0.810(2) -0.1058(5)
H40 H 0.1045 0.8940 -0.1221
C45 C 0.1916(19) 0.670(2) -0.1225(5)
C46 C 0.2541(19) 0.5526(19) -0.0957(5)
H41 H 0.2784 0.4592 -0.1050
C47 C 0.282(2) 0.5671(18) -0.0555(4)
H42 H 0.3280 0.4838 -0.0390
C48 C 0.117(2) 0.772(2) -0.1908(5)
H43 H 0.1052 0.7394 -0.2168
H44 H 0.1937 0.8038 -0.1933
H45 H 0.0212 0.8537 -0.1815
C49 C 0.232(3) 0.506(2) -0.1792(5)
H46 H 0.2017 0.5125 -0.2068
H47 H 0.1980 0.4470 -0.1635
H48 H 0.3422 0.4609 -0.1788
C50 C 0.7723(19) 0.9633(17) 0.3721(5)
H49 H 0.7018 1.0523 0.3606
C51 C 0.7955(18) 0.9589(17) 0.4126(5)
H50 H 0.7419 1.0448 0.4280
C52 C 0.8948(19) 0.833(2) 0.4311(4)
C53 C 0.973(2) 0.7046(19) 0.4065(5)
H51 H 1.0433 0.6145 0.4174
C54 C 0.9409(19) 0.7185(16) 0.3663(5)
H52 H 0.9881 0.6340 0.3502
C55 C 0.9237(18) 0.8274(17) 0.4745(5)
H53 H 0.8713 0.9176 0.4879
C56 C 1.010(2) 0.718(2) 0.4969(5)
H54 H 1.0557 0.6280 0.4831
C57 C 1.054(2) 0.704(2) 0.5404(4)
C58 C 1.000(2) 0.8253(19) 0.5652(5)
H55 H 0.9403 0.9184 0.5541
C59 C 1.033(2) 0.815(2) 0.6060(5)
H56 H 0.9890 0.8979 0.6226
C60 C 1.137(2) 0.673(2) 0.6224(5)
C61 C 1.1903(18) 0.5559(17) 0.5956(5)
H57 H 1.2560 0.4621 0.6055
C62 C 1.1532(19) 0.5689(19) 0.5554(5)
H58 H 1.1959 0.4862 0.5385
C63 C 1.111(2) 0.778(2) 0.6894(5)
H59 H 1.1564 0.7488 0.7155
H60 H 1.0030 0.8078 0.6925
H61 H 1.1238 0.8582 0.6788
C64 C 1.266(2) 0.511(2) 0.6787(5)
H62 H 1.2889 0.5201 0.7062
H63 H 1.3604 0.4537 0.6632
H64 H 1.2050 0.4619 0.6786
Ag1_2 Ag 0.32379(15) 1.85762(11) 0.22854(3)
Ag2_2 Ag -0.18143(14) 1.85763(12) 0.27144(3)
C32_2 C 0.3768(18) 0.6424(16) 0.2396(3)
C34_2 C 0.983(2) 0.6398(17) 0.2595(4)
loop_
_geom_bond_atom_site_label_1
_geom_bond_atom_site_label_2
_geom_bond_site_symmetry_1
_geom_bond_site_symmetry_2
Fe1 N1 1_555 1_555
Ag1 N9 1_555 1_555
Ag2 N11 1_555 1_555
N1 C1 1_555 1_555
N2 Fe1 1_555 1_555
N3 Fe1 1_555 1_555
N4 Fe1 1_555 1_555
N5 Fe1 1_555 1_555
N6 Fe1 1_555 1_555
N7 C11 1_555 1_555
N8 C26 1_555 1_555
N9 C35 1_555 1_555
N10 C45 1_555 1_555
N11 C50 1_555 1_555
N12 C60 1_555 1_555
C1 H1 1_555 1_555
C2 C1 1_555 1_555
H2 C2 1_555 1_555
C3 C2 1_555 1_555
C4 C3 1_555 1_555
H3 C4 1_555 1_555
C5 N1 1_555 1_555
H4 C5 1_555 1_555
C6 C3 1_555 1_555
H5 C6 1_555 1_555
C7 C6 1_555 1_555
H6 C7 1_555 1_555
C8 C7 1_555 1_555
C9 C8 1_555 1_555
H7 C9 1_555 1_555
C10 C9 1_555 1_555
H8 C10 1_555 1_555
C11 C10 1_555 1_555
C12 C11 1_555 1_555
H9 C12 1_555 1_555
C13 C8 1_555 1_555
H10 C13 1_555 1_555
C14 N7 1_555 1_555
H11 C14 1_555 1_555
H12 C14 1_555 1_555
H13 C14 1_555 1_555
C15 N7 1_555 1_555
H14 C15 1_555 1_555
H15 C15 1_555 1_555
H16 C15 1_555 1_555
C16 N2 1_555 1_555
H17 C16 1_555 1_555
C17 C16 1_555 1_555
H18 C17 1_555 1_555
C18 C17 1_555 1_555
C19 C18 1_555 1_555
H19 C19 1_555 1_555
C20 N2 1_555 1_555
H20 C20 1_555 1_555
C21 C18 1_555 1_555
H21 C21 1_555 1_555
C22 C21 1_555 1_555
H22 C22 1_555 1_555
C23 C22 1_555 1_555
C24 C23 1_555 1_555
H23 C24 1_555 1_555
C25 C24 1_555 1_555
H24 C25 1_555 1_555
C26 C25 1_555 1_555
C27 C26 1_555 1_555
H25 C27 1_555 1_555
C28 C23 1_555 1_555
H26 C28 1_555 1_555
C29 N8 1_555 1_555
H27 C29 1_555 1_555
H28 C29 1_555 1_555
H29 C29 1_555 1_555
C30 N8 1_555 1_555
H30 C30 1_555 1_555
H31 C30 1_555 1_555
H32 C30 1_555 1_555
C31 Ag1 1_555 1_555
C32 N4 1_555 1_555
C33 Ag2 1_555 1_555
C34 N6 1_555 1_555
C35 H33 1_555 1_555
C36 C35 1_555 1_555
H34 C36 1_555 1_555
C37 C36 1_555 1_555
C38 C37 1_555 1_555
H35 C38 1_555 1_555
C39 N9 1_555 1_555
H36 C39 1_555 1_555
C40 C37 1_555 1_555
H37 C40 1_555 1_555
C41 C40 1_555 1_555
H38 C41 1_555 1_555
C42 C41 1_555 1_555
C43 C42 1_555 1_555
H39 C43 1_555 1_555
C44 C43 1_555 1_555
H40 C44 1_555 1_555
C45 C44 1_555 1_555
C46 C45 1_555 1_555
H41 C46 1_555 1_555
C47 C42 1_555 1_555
H42 C47 1_555 1_555
C48 N10 1_555 1_555
H43 C48 1_555 1_555
H44 C48 1_555 1_555
H45 C48 1_555 1_555
C49 N10 1_555 1_555
H46 C49 1_555 1_555
H47 C49 1_555 1_555
H48 C49 1_555 1_555
C50 H49 1_555 1_555
C51 C50 1_555 1_555
H50 C51 1_555 1_555
C52 C51 1_555 1_555
C53 C52 1_555 1_555
H51 C53 1_555 1_555
C54 N11 1_555 1_555
H52 C54 1_555 1_555
C55 C52 1_555 1_555
H53 C55 1_555 1_555
C56 C55 1_555 1_555
H54 C56 1_555 1_555
C57 C56 1_555 1_555
C58 C57 1_555 1_555
H55 C58 1_555 1_555
C59 C58 1_555 1_555
H56 C59 1_555 1_555
C60 C59 1_555 1_555
C61 C60 1_555 1_555
H57 C61 1_555 1_555
C62 C57 1_555 1_555
H58 C62 1_555 1_555
C63 N12 1_555 1_555
H59 C63 1_555 1_555
H60 C63 1_555 1_555
H61 C63 1_555 1_555
C64 N12 1_555 1_555
H62 C64 1_555 1_555
H63 C64 1_555 1_555
H64 C64 1_555 1_555
Ag1_2 C32 1_555 1_555
Ag2_2 C34 1_555 1_555
C32_2 Ag1 1_555 1_555
C34_2 Ag2 1_555 1_555
N3 C31 1_555 1_555
N5 C33 1_555 1_555
C4 C5 1_555 1_555
C12 C13 1_555 1_555
C19 C20 1_555 1_555
C27 C28 1_555 1_555
C38 C39 1_555 1_555
C46 C47 1_555 1_555
C53 C54 1_555 1_555
C61 C62 1_555 1_555

#END
