
#######################################################################
#
#                 Cambridge Crystallographic Data Centre
#                                CCDC 
#
#######################################################################
#
# If this CIF has been generated from an entry in the Cambridge 
# Structural Database, then it will include bibliographic, chemical, 
# crystal, experimental, refinement or atomic coordinate data resulting 
# from the CCDC's data processing and validation procedures.
#
#######################################################################

data_CUMXIS01
_symmetry_cell_setting           monoclinic
_symmetry_space_group_name_H-M   'P 21/c'
_symmetry_Int_Tables_number      14
_space_group_name_Hall           '-P 2ybc'
loop_
_symmetry_equiv_pos_site_id
_symmetry_equiv_pos_as_xyz
1 x,y,z
2 -x,1/2+y,1/2-z
3 -x,-y,-z
4 x,1/2-y,1/2+z
_cell_length_a                   12.9300(2)
_cell_length_b                   14.5500(2)
_cell_length_c                   30.5520(5)
_cell_angle_alpha                90
_cell_angle_beta                 107.7360(10)
_cell_angle_gamma                90
_cell_volume                     5474.6
loop_
_atom_site_label
_atom_site_type_symbol
_atom_site_fract_x
_atom_site_fract_y
_atom_site_fract_z
Fe1 Fe 0.0000 0.5000 0.5000
Fe2 Fe 0.32806(5) -0.00039(4) 0.33484(2)
Ag1 Ag 0.17474(3) 0.24073(3) 0.432047(12)
Ag2 Ag 0.13821(3) 0.73382(3) 0.404690(13)
Ag3 Ag 0.52752(3) 0.25820(3) 0.265078(13)
N1 N -0.1416(3) 0.4833(2) 0.45005(13)
N2 N 0.0603(3) 0.3949(3) 0.47638(13)
N3 N 0.0493(3) 0.5818(3) 0.46002(13)
N4 N -0.8734(3) 0.6988(3) 0.19827(14)
N5 N 0.1732(3) 0.0241(3) 0.28032(13)
N6 N 0.4838(3) -0.0256(3) 0.38832(13)
N7 N 0.2745(3) 0.0898(3) 0.37954(13)
N8 N 0.2554(3) 0.8858(3) 0.36033(14)
N9 N 0.4022(3) 0.1128(3) 0.30937(14)
N10 N -0.5213(3) -0.2342(3) 0.02302(14)
N11 N 1.2211(3) 0.1977(3) 0.63551(14)
N12 N 0.3787(3) -0.0901(3) 0.28895(14)
C1 C -0.1450(4) 0.4646(3) 0.40625(16)
H1 H -0.0802 0.4514 0.4003
C2 C -0.2399(4) 0.4641(3) 0.36993(17)
H2 H -0.2376 0.4491 0.3406
C3 C -0.3394(3) 0.4857(3) 0.37653(16)
C4 C -0.3353(4) 0.4977(3) 0.42302(17)
H3 H -0.3992 0.5070 0.4304
C5 C -0.2388(3) 0.4958(3) 0.45702(16)
H4 H -0.2398 0.5037 0.4871
C6 C -0.4334(3) 0.5021(3) 0.33752(17)
H5 H -0.4332 0.4791 0.3092
C7 C -0.5223(3) 0.5490(3) 0.33960(17)
H6 H -0.5249 0.5619 0.3691
C8 C -0.6137(4) 0.5819(3) 0.30257(18)
C9 C -0.6355(4) 0.5561(3) 0.25635(17)
H7 H -0.5911 0.5128 0.2486
C10 C -0.7212(4) 0.5933(3) 0.22213(18)
H8 H -0.7339 0.5737 0.1920
C11 C -0.7896(3) 0.6603(3) 0.23192(17)
C12 C -0.7682(4) 0.6852(4) 0.27868(17)
H9 H -0.8126 0.7281 0.2867
C13 C -0.6841(4) 0.6476(3) 0.31207(17)
H10 H -0.6725 0.6659 0.3424
C14 C -0.9106(4) 0.6600(4) 0.15235(18)
H11 H -0.9884 0.6693 0.1398
H12 H -0.8973 0.5943 0.1543
C15 C -0.8557(5) 0.7015(5) 0.1201(2)
H13 H -0.8833 0.6733 0.0904
H14 H -0.7788 0.6915 0.1319
H15 H -0.8701 0.7664 0.1174
C16 C -0.9356(4) 0.7765(3) 0.20712(18)
H16 H -0.9607 0.8132 0.1794
H17 H -0.8880 0.8147 0.2308
C17 C -1.0325(4) 0.7490(4) 0.2221(2)
H18 H -1.0695 0.8031 0.2273
H19 H -1.0084 0.7139 0.2500
H20 H -1.0812 0.7124 0.1985
C18 C 0.0971(3) 0.3349(3) 0.46160(16)
C19 C 0.0776(4) 0.6340(3) 0.43791(17)
C20 C 0.1722(4) 0.0456(4) 0.23735(17)
H21 H 0.2369 0.0640 0.2326
C21 C 0.0800(4) 0.0416(3) 0.20017(17)
H22 H 0.0834 0.0585 0.1713
C22 C -0.0191(4) 0.0124(3) 0.20518(17)
C23 C -0.0191(4) -0.0024(3) 0.25079(17)
H23 H -0.0834 -0.0161 0.2570
C24 C 0.0771(4) 0.0036(3) 0.28600(17)
H24 H 0.0752 -0.0073 0.3157
C25 C -0.1105(4) -0.0093(3) 0.16516(17)
H25 H -0.1075 0.0106 0.1366
C26 C -0.1988(3) -0.0560(3) 0.16656(17)
H26 H -0.2058 -0.0655 0.1956
C27 C -0.2845(4) -0.0935(3) 0.12848(17)
C28 C -0.2933(3) -0.0803(3) 0.08225(17)
H27 H -0.2453 -0.0405 0.0746
C29 C -0.3721(4) -0.1251(3) 0.04728(17)
H28 H -0.3752 -0.1148 0.0169
C30 C -0.4478(4) -0.1860(3) 0.05707(17)
C31 C -0.4399(4) -0.1972(4) 0.10402(17)
H29 H -0.4891 -0.2352 0.1120
C32 C -0.3612(4) -0.1533(3) 0.13783(17)
H30 H -0.3580 -0.1633 0.1683
C33 C -0.5394(4) -0.2114(4) -0.02558(17)
H31 H -0.5813 -0.2604 -0.0444
H32 H -0.4697 -0.2088 -0.0314
C34 C -0.5981(4) -0.1212(4) -0.04018(18)
H33 H -0.6074 -0.1107 -0.0722
H34 H -0.5562 -0.0720 -0.0224
H35 H -0.6679 -0.1236 -0.0352
C35 C -0.5995(4) -0.2961(4) 0.03380(18)
H36 H -0.5616 -0.3318 0.0607
H37 H -0.6263 -0.3386 0.0084
C36 C -0.6951(4) -0.2502(4) 0.0427(2)
H38 H -0.7416 -0.2960 0.0494
H39 H -0.7349 -0.2159 0.0161
H40 H -0.6701 -0.2093 0.0685
C37 C 0.5791(4) -0.0070(3) 0.38153(17)
H41 H 0.5793 0.0042 0.3516
C38 C 0.6770(4) -0.0034(3) 0.41594(16)
H42 H 0.7405 0.0096 0.4089
C39 C 0.6806(4) -0.0194(3) 0.46197(17)
C40 C 0.5830(4) -0.0478(3) 0.46810(17)
H43 H 0.5816 -0.0660 0.4971
C41 C 0.4882(4) -0.0492(3) 0.43166(16)
H44 H 0.4244 -0.0673 0.4372
C42 C 0.7757(4) -0.0017(3) 0.50086(17)
H45 H 0.7785 -0.0269 0.5292
C43 C 0.8603(3) 0.0493(3) 0.49806(17)
H46 H 0.8590 0.0656 0.4685
C44 C 0.9536(4) 0.0826(3) 0.53482(18)
C45 C 1.0177(4) 0.1513(3) 0.52452(17)
H47 H 1.0004 0.1722 0.4944
C46 C 1.1044(4) 0.1892(4) 0.55664(17)
H48 H 1.1449 0.2347 0.5481
C47 C 1.1332(4) 0.1601(3) 0.60276(17)
C48 C 1.0692(3) 0.0915(3) 0.61349(17)
H49 H 1.0864 0.0707 0.6436
C49 C 0.9810(4) 0.0536(3) 0.58058(16)
H50 H 0.9396 0.0085 0.5890
C50 C 1.2794(4) 0.2772(3) 0.62631(18)
H51 H 1.3107 0.3106 0.6548
H52 H 1.2283 0.3178 0.6052
C51 C 1.3699(4) 0.2521(4) 0.6058(2)
H53 H 1.4054 0.3070 0.6005
H54 H 1.3394 0.2204 0.5772
H55 H 1.4217 0.2130 0.6268
C52 C 1.2672(4) 0.1549(4) 0.68032(17)
H56 H 1.3450 0.1651 0.6906
H57 H 1.2548 0.0891 0.6774
C53 C 1.2196(5) 0.1915(4) 0.71574(19)
H58 H 1.2525 0.1611 0.7445
H59 H 1.1428 0.1805 0.7061
H60 H 1.2331 0.2564 0.7193
C54 C 0.2403(3) 0.1426(3) 0.39974(16)
C55 C 0.2131(4) 0.8299(3) 0.37576(17)
C56 C 0.4471(4) 0.1657(3) 0.29439(17)
C57 C 0.4087(4) -0.1435(3) 0.26771(17)
Fe2B Fe -0.32806(5) 1.00039(4) 0.66516(2)
Fe2_2 Fe 0.32806(5) 0.99961(4) 0.33484(2)
Fe2B_2 Fe -0.32806(5) 0.00039(4) 0.66516(2)
Ag1B Ag -0.17474(3) 0.75927(3) 0.567953(12)
Ag2B Ag -0.13821(3) 0.26618(3) 0.595310(13)
Ag3B Ag -0.52752(3) 0.74180(3) 0.734922(13)
Ag3A Ag 0.47248(3) -0.24180(3) 0.234922(13)
Ag3C Ag -0.47248(3) 1.24180(3) 0.765078(13)
N1B N 0.1416(3) 0.5167(2) 0.54995(13)
N2B N -0.0603(3) 0.6051(3) 0.52362(13)
N3B N -0.0493(3) 0.4182(3) 0.53998(13)
N4B N 0.8734(3) 0.3012(3) 0.80173(14)
N5B N -0.1732(3) 0.9759(3) 0.71968(13)
N6B N -0.4838(3) 1.0256(3) 0.61168(13)
N7B N -0.2745(3) 0.9102(3) 0.62046(13)
N8B N -0.2554(3) 0.1142(3) 0.63967(14)
N8_2 N 0.2554(3) -0.1142(3) 0.36033(14)
N8B_2 N -0.2554(3) 1.1142(3) 0.63967(14)
N9B N -0.4022(3) 0.8872(3) 0.69063(14)
N10B N 0.5213(3) 1.2342(3) 0.97698(14)
N11B N -1.2211(3) 0.8023(3) 0.36449(14)
N12B N -0.3787(3) 1.0901(3) 0.71105(14)
C1B C 0.1450(4) 0.5354(3) 0.59375(16)
H1B H 0.0802 0.5486 0.5997
C2B C 0.2399(4) 0.5359(3) 0.63007(17)
H2B H 0.2376 0.5509 0.6594
C3B C 0.3394(3) 0.5143(3) 0.62347(16)
C4B C 0.3353(4) 0.5023(3) 0.57698(17)
H3B H 0.3992 0.4930 0.5696
C5B C 0.2388(3) 0.5042(3) 0.54298(16)
H4B H 0.2398 0.4963 0.5129
C6B C 0.4334(3) 0.4979(3) 0.66248(17)
H5B H 0.4332 0.5209 0.6908
C7B C 0.5223(3) 0.4510(3) 0.66040(17)
H6B H 0.5249 0.4381 0.6309
C8B C 0.6137(4) 0.4181(3) 0.69743(18)
C9B C 0.6355(4) 0.4439(3) 0.74365(17)
H7B H 0.5911 0.4872 0.7514
C10B C 0.7212(4) 0.4067(3) 0.77787(18)
H8B H 0.7339 0.4263 0.8080
C11B C 0.7896(3) 0.3397(3) 0.76808(17)
C12B C 0.7682(4) 0.3148(4) 0.72132(17)
H9B H 0.8126 0.2719 0.7133
C13B C 0.6841(4) 0.3524(3) 0.68793(17)
H10B H 0.6725 0.3341 0.6576
C14B C 0.9106(4) 0.3400(4) 0.84765(18)
H11B H 0.9884 0.3307 0.8602
H12B H 0.8973 0.4057 0.8457
C15B C 0.8557(5) 0.2985(5) 0.8799(2)
H13B H 0.8833 0.3267 0.9096
H14B H 0.7788 0.3085 0.8681
H15B H 0.8701 0.2336 0.8826
C16B C 0.9356(4) 0.2235(3) 0.79288(18)
H16B H 0.9607 0.1868 0.8206
H17B H 0.8880 0.1853 0.7692
C17B C 1.0325(4) 0.2510(4) 0.7779(2)
H18B H 1.0695 0.1969 0.7727
H19B H 1.0084 0.2861 0.7500
H20B H 1.0812 0.2876 0.8015
C18B C -0.0971(3) 0.6651(3) 0.53840(16)
C19B C -0.0776(4) 0.3660(3) 0.56209(17)
C20B C -0.1722(4) 0.9544(4) 0.76265(17)
H21B H -0.2369 0.9360 0.7674
C21B C -0.0800(4) 0.9584(3) 0.79983(17)
H22B H -0.0834 0.9415 0.8287
C22B C 0.0191(4) 0.9876(3) 0.79482(17)
C23B C 0.0191(4) 1.0024(3) 0.74921(17)
H23B H 0.0834 1.0161 0.7430
C24B C -0.0771(4) 0.9964(3) 0.71400(17)
H24B H -0.0752 1.0073 0.6843
C25B C 0.1105(4) 1.0093(3) 0.83484(17)
H25B H 0.1075 0.9894 0.8634
C26B C 0.1988(3) 1.0560(3) 0.83344(17)
H26B H 0.2058 1.0655 0.8044
C27B C 0.2845(4) 1.0935(3) 0.87152(17)
C28B C 0.2933(3) 1.0803(3) 0.91775(17)
H27B H 0.2453 1.0405 0.9254
C29B C 0.3721(4) 1.1251(3) 0.95272(17)
H28B H 0.3752 1.1148 0.9831
C30B C 0.4478(4) 1.1860(3) 0.94293(17)
C31B C 0.4399(4) 1.1972(4) 0.89598(17)
H29B H 0.4891 1.2352 0.8880
C32B C 0.3612(4) 1.1533(3) 0.86217(17)
H30B H 0.3580 1.1633 0.8317
C33B C 0.5394(4) 1.2114(4) 1.02558(17)
H31B H 0.5813 1.2604 1.0444
H32B H 0.4697 1.2088 1.0314
C34B C 0.5981(4) 1.1212(4) 1.04018(18)
H33B H 0.6074 1.1107 1.0722
H34B H 0.5562 1.0720 1.0224
H35B H 0.6679 1.1236 1.0352
C35B C 0.5995(4) 1.2961(4) 0.96620(18)
H36B H 0.5616 1.3318 0.9393
H37B H 0.6263 1.3386 0.9916
C36B C 0.6951(4) 1.2502(4) 0.9573(2)
H38B H 0.7416 1.2960 0.9506
H39B H 0.7349 1.2159 0.9839
H40B H 0.6701 1.2093 0.9315
C37B C -0.5791(4) 1.0070(3) 0.61847(17)
H41B H -0.5793 0.9958 0.6484
C38B C -0.6770(4) 1.0034(3) 0.58406(16)
H42B H -0.7405 0.9904 0.5911
C39B C -0.6806(4) 1.0194(3) 0.53803(17)
C40B C -0.5830(4) 1.0478(3) 0.53190(17)
H43B H -0.5816 1.0660 0.5029
C41B C -0.4882(4) 1.0492(3) 0.56834(16)
H44B H -0.4244 1.0673 0.5628
C42B C -0.7757(4) 1.0017(3) 0.49914(17)
H45B H -0.7785 1.0269 0.4708
C43B C -0.8603(3) 0.9507(3) 0.50194(17)
H46B H -0.8590 0.9344 0.5315
C44B C -0.9536(4) 0.9174(3) 0.46518(18)
C45B C -1.0177(4) 0.8487(3) 0.47548(17)
H47B H -1.0004 0.8278 0.5056
C46B C -1.1044(4) 0.8108(4) 0.44336(17)
H48B H -1.1449 0.7653 0.4519
C47B C -1.1332(4) 0.8399(3) 0.39724(17)
C48B C -1.0692(3) 0.9085(3) 0.38651(17)
H49B H -1.0864 0.9293 0.3564
C49B C -0.9810(4) 0.9464(3) 0.41942(16)
H50B H -0.9396 0.9915 0.4110
C50B C -1.2794(4) 0.7228(3) 0.37369(18)
H51B H -1.3107 0.6894 0.3452
H52B H -1.2283 0.6822 0.3948
C51B C -1.3699(4) 0.7479(4) 0.3942(2)
H53B H -1.4054 0.6930 0.3995
H54B H -1.3394 0.7796 0.4228
H55B H -1.4217 0.7870 0.3732
C52B C -1.2672(4) 0.8451(4) 0.31968(17)
H56B H -1.3450 0.8349 0.3094
H57B H -1.2548 0.9109 0.3226
C53B C -1.2196(5) 0.8085(4) 0.28426(19)
H58B H -1.2525 0.8389 0.2555
H59B H -1.1428 0.8195 0.2939
H60B H -1.2331 0.7436 0.2807
C54B C -0.2403(3) 0.8574(3) 0.60026(16)
C55B C -0.2131(4) 0.1701(3) 0.62424(17)
C56B C -0.4471(4) 0.8343(3) 0.70561(17)
C57B C -0.4087(4) 1.1435(3) 0.73229(17)
C57A C 0.5913(4) 0.3565(3) 0.23229(17)
C57C C -0.5913(4) 0.6435(3) 0.76771(17)
loop_
_geom_bond_atom_site_label_1
_geom_bond_atom_site_label_2
_geom_bond_site_symmetry_1
_geom_bond_site_symmetry_2
Fe1 N1 1_555 1_555
Fe2 N5 1_555 1_555
Ag1 C18 1_555 1_555
Ag2 C19 1_555 1_555
Ag3 C56 1_555 1_555
N1 C1 1_555 1_555
N2 Fe1 1_555 1_555
N3 Fe1 1_555 1_555
N4 C11 1_555 1_555
N5 C20 1_555 1_555
N6 Fe2 1_555 1_555
N7 Fe2 1_555 1_555
N8 C55 1_555 1_555
N9 Fe2 1_555 1_555
N10 C30 1_555 1_555
N11 C47 1_555 1_555
N12 Fe2 1_555 1_555
C1 H1 1_555 1_555
C2 C1 1_555 1_555
H2 C2 1_555 1_555
C3 C2 1_555 1_555
C4 C3 1_555 1_555
H3 C4 1_555 1_555
C5 N1 1_555 1_555
H4 C5 1_555 1_555
C6 C3 1_555 1_555
H5 C6 1_555 1_555
C7 C6 1_555 1_555
H6 C7 1_555 1_555
C8 C7 1_555 1_555
C9 C8 1_555 1_555
H7 C9 1_555 1_555
C10 C9 1_555 1_555
H8 C10 1_555 1_555
C11 C10 1_555 1_555
C12 C11 1_555 1_555
H9 C12 1_555 1_555
C13 C8 1_555 1_555
H10 C13 1_555 1_555
C14 N4 1_555 1_555
H11 C14 1_555 1_555
H12 C14 1_555 1_555
C15 C14 1_555 1_555
H13 C15 1_555 1_555
H14 C15 1_555 1_555
H15 C15 1_555 1_555
C16 N4 1_555 1_555
H16 C16 1_555 1_555
H17 C16 1_555 1_555
C17 C16 1_555 1_555
H18 C17 1_555 1_555
H19 C17 1_555 1_555
H20 C17 1_555 1_555
C18 N2 1_555 1_555
C19 N3 1_555 1_555
C20 H21 1_555 1_555
C21 C20 1_555 1_555
H22 C21 1_555 1_555
C22 C21 1_555 1_555
C23 C22 1_555 1_555
H23 C23 1_555 1_555
C24 N5 1_555 1_555
H24 C24 1_555 1_555
C25 C22 1_555 1_555
H25 C25 1_555 1_555
C26 C25 1_555 1_555
H26 C26 1_555 1_555
C27 C26 1_555 1_555
C28 C27 1_555 1_555
H27 C28 1_555 1_555
C29 C28 1_555 1_555
H28 C29 1_555 1_555
C30 C29 1_555 1_555
C31 C30 1_555 1_555
H29 C31 1_555 1_555
C32 C27 1_555 1_555
H30 C32 1_555 1_555
C33 N10 1_555 1_555
H31 C33 1_555 1_555
H32 C33 1_555 1_555
C34 C33 1_555 1_555
H33 C34 1_555 1_555
H34 C34 1_555 1_555
H35 C34 1_555 1_555
C35 N10 1_555 1_555
H36 C35 1_555 1_555
H37 C35 1_555 1_555
C36 C35 1_555 1_555
H38 C36 1_555 1_555
H39 C36 1_555 1_555
H40 C36 1_555 1_555
C37 N6 1_555 1_555
H41 C37 1_555 1_555
C38 C37 1_555 1_555
H42 C38 1_555 1_555
C39 C38 1_555 1_555
C40 C39 1_555 1_555
H43 C40 1_555 1_555
C41 N6 1_555 1_555
H44 C41 1_555 1_555
C42 C39 1_555 1_555
H45 C42 1_555 1_555
C43 C42 1_555 1_555
H46 C43 1_555 1_555
C44 C43 1_555 1_555
C45 C44 1_555 1_555
H47 C45 1_555 1_555
C46 C45 1_555 1_555
H48 C46 1_555 1_555
C47 C46 1_555 1_555
C48 C47 1_555 1_555
H49 C48 1_555 1_555
C49 C44 1_555 1_555
H50 C49 1_555 1_555
C50 N11 1_555 1_555
H51 C50 1_555 1_555
H52 C50 1_555 1_555
C51 C50 1_555 1_555
H53 C51 1_555 1_555
H54 C51 1_555 1_555
H55 C51 1_555 1_555
C52 N11 1_555 1_555
H56 C52 1_555 1_555
H57 C52 1_555 1_555
C53 C52 1_555 1_555
H58 C53 1_555 1_555
H59 C53 1_555 1_555
H60 C53 1_555 1_555
C54 Ag1 1_555 1_555
C55 Ag2 1_555 1_555
C56 N9 1_555 1_555
C57 N12 1_555 1_555
Fe2B N5B 1_555 1_555
Fe2_2 N8 1_555 1_555
Fe2B_2 N8B 1_555 1_555
Ag1B C18B 1_555 1_555
Ag2B C19B 1_555 1_555
Ag3B C56B 1_555 1_555
Ag3A C57 1_555 1_555
Ag3C C57B 1_555 1_555
N1B Fe1 1_555 1_555
N2B Fe1 1_555 1_555
N3B Fe1 1_555 1_555
N4B C11B 1_555 1_555
N5B C20B 1_555 1_555
N6B Fe2B 1_555 1_555
N7B Fe2B 1_555 1_555
N8B C55B 1_555 1_555
N8_2 Fe2 1_555 1_555
N8B_2 Fe2B 1_555 1_555
N9B Fe2B 1_555 1_555
N10B C30B 1_555 1_555
N11B C47B 1_555 1_555
N12B Fe2B 1_555 1_555
C1B N1B 1_555 1_555
H1B C1B 1_555 1_555
C2B C1B 1_555 1_555
H2B C2B 1_555 1_555
C3B C2B 1_555 1_555
C4B C3B 1_555 1_555
H3B C4B 1_555 1_555
C5B N1B 1_555 1_555
H4B C5B 1_555 1_555
C6B C3B 1_555 1_555
H5B C6B 1_555 1_555
C7B C6B 1_555 1_555
H6B C7B 1_555 1_555
C8B C7B 1_555 1_555
C9B C8B 1_555 1_555
H7B C9B 1_555 1_555
C10B C9B 1_555 1_555
H8B C10B 1_555 1_555
C11B C10B 1_555 1_555
C12B C11B 1_555 1_555
H9B C12B 1_555 1_555
C13B C8B 1_555 1_555
H10B C13B 1_555 1_555
C14B N4B 1_555 1_555
H11B C14B 1_555 1_555
H12B C14B 1_555 1_555
C15B C14B 1_555 1_555
H13B C15B 1_555 1_555
H14B C15B 1_555 1_555
H15B C15B 1_555 1_555
C16B N4B 1_555 1_555
H16B C16B 1_555 1_555
H17B C16B 1_555 1_555
C17B C16B 1_555 1_555
H18B C17B 1_555 1_555
H19B C17B 1_555 1_555
H20B C17B 1_555 1_555
C18B N2B 1_555 1_555
C19B N3B 1_555 1_555
C20B H21B 1_555 1_555
C21B C20B 1_555 1_555
H22B C21B 1_555 1_555
C22B C21B 1_555 1_555
C23B C22B 1_555 1_555
H23B C23B 1_555 1_555
C24B N5B 1_555 1_555
H24B C24B 1_555 1_555
C25B C22B 1_555 1_555
H25B C25B 1_555 1_555
C26B C25B 1_555 1_555
H26B C26B 1_555 1_555
C27B C26B 1_555 1_555
C28B C27B 1_555 1_555
H27B C28B 1_555 1_555
C29B C28B 1_555 1_555
H28B C29B 1_555 1_555
C30B C29B 1_555 1_555
C31B C30B 1_555 1_555
H29B C31B 1_555 1_555
C32B C27B 1_555 1_555
H30B C32B 1_555 1_555
C33B N10B 1_555 1_555
H31B C33B 1_555 1_555
H32B C33B 1_555 1_555
C34B C33B 1_555 1_555
H33B C34B 1_555 1_555
H34B C34B 1_555 1_555
H35B C34B 1_555 1_555
C35B N10B 1_555 1_555
H36B C35B 1_555 1_555
H37B C35B 1_555 1_555
C36B C35B 1_555 1_555
H38B C36B 1_555 1_555
H39B C36B 1_555 1_555
H40B C36B 1_555 1_555
C37B N6B 1_555 1_555
H41B C37B 1_555 1_555
C38B C37B 1_555 1_555
H42B C38B 1_555 1_555
C39B C38B 1_555 1_555
C40B C39B 1_555 1_555
H43B C40B 1_555 1_555
C41B N6B 1_555 1_555
H44B C41B 1_555 1_555
C42B C39B 1_555 1_555
H45B C42B 1_555 1_555
C43B C42B 1_555 1_555
H46B C43B 1_555 1_555
C44B C43B 1_555 1_555
C45B C44B 1_555 1_555
H47B C45B 1_555 1_555
C46B C45B 1_555 1_555
H48B C46B 1_555 1_555
C47B C46B 1_555 1_555
C48B C47B 1_555 1_555
H49B C48B 1_555 1_555
C49B C44B 1_555 1_555
H50B C49B 1_555 1_555
C50B N11B 1_555 1_555
H51B C50B 1_555 1_555
H52B C50B 1_555 1_555
C51B C50B 1_555 1_555
H53B C51B 1_555 1_555
H54B C51B 1_555 1_555
H55B C51B 1_555 1_555
C52B N11B 1_555 1_555
H56B C52B 1_555 1_555
H57B C52B 1_555 1_555
C53B C52B 1_555 1_555
H58B C53B 1_555 1_555
H59B C53B 1_555 1_555
H60B C53B 1_555 1_555
C54B Ag1B 1_555 1_555
C55B Ag2B 1_555 1_555
C56B N9B 1_555 1_555
C57B N12B 1_555 1_555
C57A Ag3 1_555 1_555
C57C Ag3B 1_555 1_555
N7 C54 1_555 1_555
C4 C5 1_555 1_555
C12 C13 1_555 1_555
C23 C24 1_555 1_555
C31 C32 1_555 1_555
C40 C41 1_555 1_555
C48 C49 1_555 1_555
N7B C54B 1_555 1_555
C4B C5B 1_555 1_555
C12B C13B 1_555 1_555
C23B C24B 1_555 1_555
C31B C32B 1_555 1_555
C40B C41B 1_555 1_555
C48B C49B 1_555 1_555

#END
