
#######################################################################
#
#                 Cambridge Crystallographic Data Centre
#                                CCDC 
#
#######################################################################
#
# If this CIF has been generated from an entry in the Cambridge 
# Structural Database, then it will include bibliographic, chemical, 
# crystal, experimental, refinement or atomic coordinate data resulting 
# from the CCDC's data processing and validation procedures.
#
#######################################################################

data_CUMXUE
_symmetry_cell_setting           monoclinic
_symmetry_space_group_name_H-M   'P 21/c'
_symmetry_Int_Tables_number      14
_space_group_name_Hall           '-P 2ybc'
loop_
_symmetry_equiv_pos_site_id
_symmetry_equiv_pos_as_xyz
1 x,y,z
2 -x,1/2+y,1/2-z
3 -x,-y,-z
4 x,1/2-y,1/2+z
_cell_length_a                   9.8610(4)
_cell_length_b                   14.6920(6)
_cell_length_c                   15.1840(5)
_cell_angle_alpha                90
_cell_angle_beta                 121.596(3)
_cell_angle_gamma                90
_cell_volume                     1873.73
loop_
_atom_site_label
_atom_site_type_symbol
_atom_site_fract_x
_atom_site_fract_y
_atom_site_fract_z
Fe1 Fe 1.0000 0.0000 0.5000
Au1 Au 0.96502(4) 0.236339(19) 0.74996(2)
N1 N 0.7402(7) -0.0201(4) 0.4000(4)
N2 N 0.9635(8) 0.0904(4) 0.6005(4)
N3 N 1.0130(7) -0.1149(4) 0.5963(4)
N4 N -0.4674(11) 0.1965(7) -0.0682(8)
C1 C 0.6491(9) -0.0411(5) 0.4392(5)
H1 H 0.7001 -0.0583 0.5083
C2 C 0.4870(9) -0.0387(6) 0.3840(6)
H2 H 0.4313 -0.0556 0.4154
C3 C 0.4041(9) -0.0113(5) 0.2811(6)
C4 C 0.4964(9) 0.0039(6) 0.2372(6)
H3 H 0.4477 0.0172 0.1672
C5 C 0.6602(9) -0.0010(5) 0.2985(5)
H4 H 0.7188 0.0096 0.2675
C6 C 0.2334(10) 0.0055(6) 0.2265(7)
H5 H 0.1765 -0.0172 0.2549
C7 C 0.1551(10) 0.0510(6) 0.1392(6)
H6 H 0.2116 0.0645 0.1074
C8 C -0.0089(9) 0.0830(5) 0.0861(6)
C9 C -0.1225(10) 0.0566(6) 0.1091(6)
H7 H -0.0954 0.0131 0.1601
C10 C -0.2727(10) 0.0927(6) 0.0591(6)
H8 H -0.3450 0.0733 0.0769
C11 C -0.3195(10) 0.1586(6) -0.0188(6)
C12 C -0.2070(11) 0.1837(7) -0.0424(6)
H9 H -0.2327 0.2276 -0.0929
C13 C -0.0594(11) 0.1454(7) 0.0069(6)
H10 H 0.0107 0.1621 -0.0138
C14 C -0.6002(14) 0.1554(10) -0.0607(10)
H11 H -0.6996 0.1628 -0.1262
H12 H -0.5809 0.0907 -0.0471
C15 C -0.613(2) 0.1938(14) 0.0142(13)
H13 H -0.6994 0.1660 0.0165
H14 H -0.6338 0.2577 0.0005
H15 H -0.5159 0.1854 0.0794
C16 C -0.5115(16) 0.2754(7) -0.1391(9)
H16 H -0.5928 0.3105 -0.1368
H17 H -0.4190 0.3142 -0.1149
C17 C -0.570(2) 0.2495(8) -0.2449(9)
H18 H -0.5946 0.3032 -0.2866
H19 H -0.6644 0.2132 -0.2704
H20 H -0.4901 0.2148 -0.2479
C18 C 0.9615(9) 0.1425(5) 0.6541(5)
C19 C 1.0229(9) -0.1698(5) 0.6516(5)
Fe1A Fe 1.0000 -0.5000 1.0000
Fe1A_2 Fe 1.0000 0.5000 1.0000
Au1A Au 1.03498(4) -0.263661(19) 0.75004(2)
N1B N 1.2598(7) 0.0201(4) 0.6000(4)
N2B N 1.0365(8) -0.0904(4) 0.3995(4)
N2A N 1.0365(8) -0.4096(4) 0.8995(4)
N3B N 0.9870(7) 0.1149(4) 0.4037(4)
N3A N 0.9870(7) 0.3851(4) 0.9037(4)
N4B N 2.4674(11) -0.1965(7) 1.0682(8)
C1B C 1.3509(9) 0.0411(5) 0.5608(5)
H1B H 1.2999 0.0583 0.4917
C2B C 1.5130(9) 0.0387(6) 0.6160(6)
H2B H 1.5687 0.0556 0.5846
C3B C 1.5959(9) 0.0113(5) 0.7189(6)
C4B C 1.5036(9) -0.0039(6) 0.7628(6)
H3B H 1.5523 -0.0172 0.8328
C5B C 1.3398(9) 0.0010(5) 0.7015(5)
H4B H 1.2812 -0.0096 0.7325
C6B C 1.7666(10) -0.0055(6) 0.7735(7)
H5B H 1.8235 0.0172 0.7451
C7B C 1.8449(10) -0.0510(6) 0.8608(6)
H6B H 1.7884 -0.0645 0.8926
C8B C 2.0089(9) -0.0830(5) 0.9139(6)
C9B C 2.1225(10) -0.0566(6) 0.8909(6)
H7B H 2.0954 -0.0131 0.8399
C10B C 2.2727(10) -0.0927(6) 0.9409(6)
H8B H 2.3450 -0.0733 0.9231
C11B C 2.3195(10) -0.1586(6) 1.0188(6)
C12B C 2.2070(11) -0.1837(7) 1.0424(6)
H9B H 2.2327 -0.2276 1.0929
C13B C 2.0594(11) -0.1454(7) 0.9931(6)
H10B H 1.9893 -0.1621 1.0138
C14B C 2.6002(14) -0.1554(10) 1.0607(10)
H11B H 2.6996 -0.1628 1.1262
H12B H 2.5809 -0.0907 1.0471
C15B C 2.613(2) -0.1938(14) 0.9858(13)
H13B H 2.6994 -0.1660 0.9835
H14B H 2.6338 -0.2577 0.9995
H15B H 2.5159 -0.1854 0.9206
C16B C 2.5115(16) -0.2754(7) 1.1391(9)
H16B H 2.5928 -0.3105 1.1368
H17B H 2.4190 -0.3142 1.1149
C17B C 2.570(2) -0.2495(8) 1.2449(9)
H18B H 2.5946 -0.3032 1.2866
H19B H 2.6644 -0.2132 1.2704
H20B H 2.4901 -0.2148 1.2479
C18A C 1.0385(9) -0.3575(5) 0.8459(5)
C19A C 0.9771(9) 0.3302(5) 0.8484(5)
loop_
_geom_bond_atom_site_label_1
_geom_bond_atom_site_label_2
_geom_bond_site_symmetry_1
_geom_bond_site_symmetry_2
Fe1 N1 1_555 1_555
Au1 C18 1_555 1_555
N1 C1 1_555 1_555
N2 Fe1 1_555 1_555
N3 Fe1 1_555 1_555
N4 C11 1_555 1_555
C1 H1 1_555 1_555
C2 C1 1_555 1_555
H2 C2 1_555 1_555
C3 C2 1_555 1_555
C4 C3 1_555 1_555
H3 C4 1_555 1_555
C5 N1 1_555 1_555
H4 C5 1_555 1_555
C6 C3 1_555 1_555
H5 C6 1_555 1_555
C7 C6 1_555 1_555
H6 C7 1_555 1_555
C8 C7 1_555 1_555
C9 C8 1_555 1_555
H7 C9 1_555 1_555
C10 C9 1_555 1_555
H8 C10 1_555 1_555
C11 C10 1_555 1_555
C12 C11 1_555 1_555
H9 C12 1_555 1_555
C13 C8 1_555 1_555
H10 C13 1_555 1_555
C14 N4 1_555 1_555
H11 C14 1_555 1_555
H12 C14 1_555 1_555
C15 C14 1_555 1_555
H13 C15 1_555 1_555
H14 C15 1_555 1_555
H15 C15 1_555 1_555
C16 N4 1_555 1_555
H16 C16 1_555 1_555
H17 C16 1_555 1_555
C17 C16 1_555 1_555
H18 C17 1_555 1_555
H19 C17 1_555 1_555
H20 C17 1_555 1_555
C18 N2 1_555 1_555
C19 N3 1_555 1_555
Fe1A N2A 1_555 1_555
Fe1A_2 N3A 1_555 1_555
Au1A C19 1_555 1_555
N1B Fe1 1_555 1_555
N2B Fe1 1_555 1_555
N2A C18A 1_555 1_555
N3B Fe1 1_555 1_555
N3A C19A 1_555 1_555
N4B C11B 1_555 1_555
C1B N1B 1_555 1_555
H1B C1B 1_555 1_555
C2B C1B 1_555 1_555
H2B C2B 1_555 1_555
C3B C2B 1_555 1_555
C4B C3B 1_555 1_555
H3B C4B 1_555 1_555
C5B N1B 1_555 1_555
H4B C5B 1_555 1_555
C6B C3B 1_555 1_555
H5B C6B 1_555 1_555
C7B C6B 1_555 1_555
H6B C7B 1_555 1_555
C8B C7B 1_555 1_555
C9B C8B 1_555 1_555
H7B C9B 1_555 1_555
C10B C9B 1_555 1_555
H8B C10B 1_555 1_555
C11B C10B 1_555 1_555
C12B C11B 1_555 1_555
H9B C12B 1_555 1_555
C13B C8B 1_555 1_555
H10B C13B 1_555 1_555
C14B N4B 1_555 1_555
H11B C14B 1_555 1_555
H12B C14B 1_555 1_555
C15B C14B 1_555 1_555
H13B C15B 1_555 1_555
H14B C15B 1_555 1_555
H15B C15B 1_555 1_555
C16B N4B 1_555 1_555
H16B C16B 1_555 1_555
H17B C16B 1_555 1_555
C17B C16B 1_555 1_555
H18B C17B 1_555 1_555
H19B C17B 1_555 1_555
H20B C17B 1_555 1_555
C18A Au1A 1_555 1_555
C19A Au1 1_555 1_555
C4 C5 1_555 1_555
C12 C13 1_555 1_555
C4B C5B 1_555 1_555
C12B C13B 1_555 1_555

#END
