
#######################################################################
#
#                 Cambridge Crystallographic Data Centre
#                                CCDC 
#
#######################################################################
#
# If this CIF has been generated from an entry in the Cambridge 
# Structural Database, then it will include bibliographic, chemical, 
# crystal, experimental, refinement or atomic coordinate data resulting 
# from the CCDC's data processing and validation procedures.
#
#######################################################################

data_CUNDOG
_symmetry_cell_setting           triclinic
_symmetry_space_group_name_H-M   'P -1'
_symmetry_Int_Tables_number      2
_space_group_name_Hall           '-P 1'
loop_
_symmetry_equiv_pos_site_id
_symmetry_equiv_pos_as_xyz
1 x,y,z
2 -x,-y,-z
_cell_length_a                   9.4801(3)
_cell_length_b                   11.6971(4)
_cell_length_c                   12.9005(4)
_cell_angle_alpha                81.035(2)
_cell_angle_beta                 72.785(2)
_cell_angle_gamma                79.680(2)
_cell_volume                     1336.27
loop_
_atom_site_label
_atom_site_type_symbol
_atom_site_fract_x
_atom_site_fract_y
_atom_site_fract_z
Ni1 Ni 0.06002(2) 1.048098(17) 0.672310(16)
O1 O 0.20910(13) 0.93917(10) 0.60144(9)
C1 C 0.15796(18) 0.84061(14) 0.58184(13)
C2 C -0.01067(18) 0.85951(14) 0.61034(12)
N1 N -0.06835(15) 0.95811(12) 0.65038(11)
O2 O -0.21869(13) 0.99147(10) 0.67610(10)
C3 C -0.09397(19) 0.77210(14) 0.59345(13)
C4 C -0.2317(2) 0.75113(15) 0.66591(15)
C5 C -0.3074(2) 0.66767(16) 0.64935(17)
C6 C -0.2463(2) 0.60361(16) 0.56084(18)
C7 C -0.1094(2) 0.62251(15) 0.48906(16)
C8 C -0.0330(2) 0.70570(15) 0.50537(14)
C9 C 0.21527(19) 0.72939(14) 0.64428(15)
C10 C 0.1818(2) 0.72042(17) 0.75740(16)
C11 C 0.2377(2) 0.62035(19) 0.81513(19)
C12 C 0.3236(3) 0.52848(17) 0.7605(2)
C13 C 0.3560(3) 0.53619(18) 0.6488(2)
C14 C 0.3034(2) 0.63704(17) 0.58989(19)
O3 O 0.19624(13) 1.12859(10) 0.69271(9)
C15 C 0.13512(18) 1.22049(14) 0.75857(13)
C16 C -0.03258(18) 1.24476(14) 0.77723(13)
N2 N -0.07982(15) 1.16453(12) 0.74233(11)
O4 O -0.22702(13) 1.17182(11) 0.74966(11)
C17 C -0.12129(19) 1.35041(14) 0.82527(13)
C18 C -0.2762(2) 1.37766(17) 0.84389(16)
C19 C -0.3512(2) 1.47998(18) 0.88769(18)
C20 C -0.2767(2) 1.55656(17) 0.91424(16)
C21 C -0.1245(2) 1.53158(16) 0.89629(16)
C22 C -0.0473(2) 1.42991(16) 0.85225(16)
C23 C 0.18281(19) 1.18824(14) 0.86343(13)
C24 C 0.3282(2) 1.19849(16) 0.86037(16)
C25 C 0.3825(2) 1.15705(17) 0.95017(18)
C26 C 0.2914(3) 1.10516(18) 1.04422(17)
C27 C 0.1471(3) 1.09621(19) 1.04797(16)
C28 C 0.0920(2) 1.13742(17) 0.95850(14)
Na1 Na 0.37065(8) 1.01871(6) 0.43616(5)
O5 O 0.55272(14) 0.86323(11) 0.45611(10)
O6 O 0.56087(14) 1.09926(12) 0.30097(11)
C29 C 0.6041(2) 1.10689(19) 0.18574(16)
H1 H 0.1928 0.8341 0.5032
H2 H -0.2740 0.7927 0.7274
H3 H -0.3994 0.6535 0.6989
H4 H -0.2967 0.5459 0.5506
H5 H -0.0687 0.5805 0.4293
H6 H 0.0605 0.7186 0.4563
H7 H 0.1214 0.7814 0.7950
H8 H 0.2178 0.6170 0.8903
H9 H 0.3598 0.4615 0.8001
H10 H 0.4133 0.4739 0.6125
H11 H 0.3288 0.6417 0.5133
H12 H 0.1800 1.2910 0.7202
H13 H -0.3283 1.3280 0.8263
H14 H -0.4546 1.4975 0.8969
H15 H -0.3294 1.6261 0.9443
H16 H -0.0724 1.5819 0.9136
H17 H 0.0566 1.4150 0.8394
H18 H 0.3879 1.2335 0.7966
H19 H 0.4818 1.1637 0.9460
H20 H 0.3254 1.0766 1.1042
H21 H 0.0869 1.0604 1.1117
H22 H -0.0048 1.1286 0.9616
H23 H 0.6365 1.0874 0.3217
H24 H 0.6323 0.8625 0.4073
H25 H 0.5484 0.8007 0.4944
H26 H 0.5975 1.1862 0.1536
H27 H 0.5398 1.0685 0.1641
H28 H -0.2347 1.1106 0.7223
H29 H 0.7031 1.0691 0.1590
O2A O 0.21869(13) 1.00853(10) 0.32390(10)
Na1A Na -0.37065(8) 0.98129(6) 0.56384(5)
Na1A_2 Na 0.62935(8) 0.98129(6) 0.56384(5)
O5A O 0.44728(14) 1.13677(11) 0.54389(10)
loop_
_geom_bond_atom_site_label_1
_geom_bond_atom_site_label_2
_geom_bond_site_symmetry_1
_geom_bond_site_symmetry_2
Ni1 O1 1_555 1_555
O1 C1 1_555 1_555
C1 C2 1_555 1_555
C2 N1 1_555 1_555
N1 Ni1 1_555 1_555
O2 N1 1_555 1_555
C3 C2 1_555 1_555
C4 C3 1_555 1_555
C5 C4 1_555 1_555
C6 C5 1_555 1_555
C7 C6 1_555 1_555
C8 C3 1_555 1_555
C9 C1 1_555 1_555
C10 C9 1_555 1_555
C11 C10 1_555 1_555
C12 C11 1_555 1_555
C13 C12 1_555 1_555
C14 C9 1_555 1_555
O3 Ni1 1_555 1_555
C15 O3 1_555 1_555
C16 C15 1_555 1_555
N2 Ni1 1_555 1_555
O4 N2 1_555 1_555
C17 C16 1_555 1_555
C18 C17 1_555 1_555
C19 C18 1_555 1_555
C20 C19 1_555 1_555
C21 C20 1_555 1_555
C22 C17 1_555 1_555
C23 C15 1_555 1_555
C24 C23 1_555 1_555
C25 C24 1_555 1_555
C26 C25 1_555 1_555
C27 C26 1_555 1_555
C28 C23 1_555 1_555
Na1 O1 1_555 1_555
O5 Na1 1_555 1_555
O6 Na1 1_555 1_555
C29 O6 1_555 1_555
H1 C1 1_555 1_555
H2 C4 1_555 1_555
H3 C5 1_555 1_555
H4 C6 1_555 1_555
H5 C7 1_555 1_555
H6 C8 1_555 1_555
H7 C10 1_555 1_555
H8 C11 1_555 1_555
H9 C12 1_555 1_555
H10 C13 1_555 1_555
H11 C14 1_555 1_555
H12 C15 1_555 1_555
H13 C18 1_555 1_555
H14 C19 1_555 1_555
H15 C20 1_555 1_555
H16 C21 1_555 1_555
H17 C22 1_555 1_555
H18 C24 1_555 1_555
H19 C25 1_555 1_555
H20 C26 1_555 1_555
H21 C27 1_555 1_555
H22 C28 1_555 1_555
H23 O6 1_555 1_555
H24 O5 1_555 1_555
H25 O5 1_555 1_555
H26 C29 1_555 1_555
H27 C29 1_555 1_555
H28 O4 1_555 1_555
H29 C29 1_555 1_555
O2A Na1 1_555 1_555
Na1A O2 1_555 1_555
Na1A_2 O5 1_555 1_555
O5A Na1 1_555 1_555
C7 C8 1_555 1_555
C13 C14 1_555 1_555
C16 N2 1_555 1_555
C21 C22 1_555 1_555
C27 C28 1_555 1_555
Na1A_2 O5A 1_555 1_555

#END
