
#######################################################################
#
#                 Cambridge Crystallographic Data Centre
#                                CCDC 
#
#######################################################################
#
# If this CIF has been generated from an entry in the Cambridge 
# Structural Database, then it will include bibliographic, chemical, 
# crystal, experimental, refinement or atomic coordinate data resulting 
# from the CCDC's data processing and validation procedures.
#
#######################################################################

data_CUNFOH01
_symmetry_cell_setting           tetragonal
_symmetry_space_group_name_H-M   'I 41/a'
_symmetry_Int_Tables_number      88
_space_group_name_Hall           '-I 4ad'
loop_
_symmetry_equiv_pos_site_id
_symmetry_equiv_pos_as_xyz
1 x,y,z
2 1/2-x,-y,1/2+z
3 3/4-y,1/4+x,1/4+z
4 3/4+y,3/4-x,3/4+z
5 1/2+x,1/2+y,1/2+z
6 -x,1/2-y,z
7 1/4-y,3/4+x,3/4+z
8 1/4+y,1/4-x,1/4+z
9 -x,-y,-z
10 1/2+x,y,1/2-z
11 1/4+y,3/4-x,3/4-z
12 1/4-y,1/4+x,1/4-z
13 1/2-x,1/2-y,1/2-z
14 x,1/2+y,-z
15 3/4+y,1/4-x,1/4-z
16 3/4-y,3/4+x,3/4-z
_cell_length_a                   17.4157(3)
_cell_length_b                   17.4157(3)
_cell_length_c                   18.5575(3)
_cell_angle_alpha                90
_cell_angle_beta                 90
_cell_angle_gamma                90
_cell_volume                     5628.61
loop_
_atom_site_label
_atom_site_type_symbol
_atom_site_fract_x
_atom_site_fract_y
_atom_site_fract_z
I1 I -0.54305(3) -0.12215(3) 0.70259(2)
Cu1 Cu -0.42707(5) -0.23402(6) 0.68147(5)
Cu2 Cu -0.19597(6) -0.12753(6) 0.90155(6)
N1 N -0.3538(3) -0.1814(3) 0.7471(3)
N2 N -0.2673(4) -0.1404(4) 0.8262(3)
N3 N -0.3340(4) -0.1075(4) 0.7293(4)
C1 C -0.3125(4) -0.1993(4) 0.8055(4)
C2 C -0.2830(4) -0.0847(4) 0.7783(4)
C3 C -0.2460(6) -0.0066(5) 0.7785(7)
H1 H -0.2701 0.0258 0.7417
H2 H -0.1911 -0.0118 0.7680
H3 H -0.2526 0.0172 0.8260
C4 C -0.3178(5) -0.2749(5) 0.8429(4)
H4 H -0.3687 -0.2972 0.8346
H5 H -0.3099 -0.2675 0.8947
H6 H -0.2783 -0.3095 0.8240
I1E I -0.45695(3) -0.37785(3) 0.70259(2)
I1N I -0.37215(3) -0.20695(3) 0.54741(2)
Cu1E Cu -0.57293(5) -0.26598(6) 0.68147(5)
Cu1K Cu -0.51598(6) -0.17707(5) 0.56853(5)
Cu2C Cu -0.37753(6) -0.05403(6) 0.65155(6)
N3B N -0.1425(4) -0.0840(4) 0.9793(4)
O1 O -0.3731(6) -0.2689(6) 0.9374(5)
H7 H -0.3751 -0.2324 0.9668
H8 H -0.4168 -0.2820 0.9280
loop_
_geom_bond_atom_site_label_1
_geom_bond_atom_site_label_2
_geom_bond_site_symmetry_1
_geom_bond_site_symmetry_2
I1 Cu1 1_555 1_555
Cu1 N1 1_555 1_555
Cu2 N2 1_555 1_555
N1 N3 1_555 1_555
N2 C1 1_555 1_555
N3 C2 1_555 1_555
C1 N1 1_555 1_555
C2 N2 1_555 1_555
C3 C2 1_555 1_555
H1 C3 1_555 1_555
H2 C3 1_555 1_555
H3 C3 1_555 1_555
C4 C1 1_555 1_555
H4 C4 1_555 1_555
H5 C4 1_555 1_555
H6 C4 1_555 1_555
O1 H7 1_555 1_555
H8 O1 1_555 1_555
I1E Cu1 1_555 1_555
I1N Cu1 1_555 1_555
Cu1E I1 1_555 1_555
Cu1K I1 1_555 1_555
Cu2C N3 1_555 1_555
N3B Cu2 1_555 1_555
I1E Cu1E 1_555 1_555
I1N Cu1K 1_555 1_555

#END
