
#######################################################################
#
#                 Cambridge Crystallographic Data Centre
#                                CCDC 
#
#######################################################################
#
# If this CIF has been generated from an entry in the Cambridge 
# Structural Database, then it will include bibliographic, chemical, 
# crystal, experimental, refinement or atomic coordinate data resulting 
# from the CCDC's data processing and validation procedures.
#
#######################################################################

data_CUNFIB
_symmetry_cell_setting           monoclinic
_symmetry_space_group_name_H-M   'P 21/c'
_symmetry_Int_Tables_number      14
_space_group_name_Hall           '-P 2ybc'
loop_
_symmetry_equiv_pos_site_id
_symmetry_equiv_pos_as_xyz
1 x,y,z
2 -x,1/2+y,1/2-z
3 -x,-y,-z
4 x,1/2-y,1/2+z
_cell_length_a                   4.1656(3)
_cell_length_b                   26.587(2)
_cell_length_c                   24.0963(19)
_cell_angle_alpha                90
_cell_angle_beta                 96.6580(10)
_cell_angle_gamma                90
_cell_volume                     2650.69
loop_
_atom_site_label
_atom_site_type_symbol
_atom_site_fract_x
_atom_site_fract_y
_atom_site_fract_z
I1 I 1.06051(17) 0.12154(3) -0.03304(3)
I2 I 0.60927(18) 0.21238(3) 0.09743(3)
I3 I 0.98919(19) 0.27733(3) -0.04908(3)
Cu1 Cu 0.6044(4) 0.13135(6) 0.03425(7)
Cu2 Cu 1.0614(5) 0.20765(6) 0.02611(7)
Cu3 Cu 0.5283(4) 0.28501(6) 0.01875(7)
O1 O 0.766(4) -0.0474(4) 0.2487(4)
O2 O 0.743(3) -0.2934(3) 0.2672(3)
O3 O 0.903(4) -0.4663(4) 0.0791(5)
N1 N 0.652(2) 0.0703(3) 0.0853(4)
N2 N 0.680(3) -0.1017(4) 0.1753(4)
H1 H 0.6434 -0.1020 0.1395
N3 N 0.636(3) -0.4767(4) 0.1538(4)
H2 H 0.5361 -0.4989 0.1713
N4 N 0.578(3) -0.6447(4) 0.0523(4)
C1 C 0.484(3) 0.0279(4) 0.0728(5)
H3 H 0.3436 0.0270 0.0399
C2 C 0.510(3) -0.0146(4) 0.1067(5)
H4 H 0.3992 -0.0439 0.0953
C3 C 0.702(3) -0.0130(4) 0.1569(5)
C4 C 0.876(3) 0.0305(4) 0.1705(5)
H5 H 1.0104 0.0328 0.2039
C5 C 0.847(3) 0.0694(4) 0.1343(5)
H6 H 0.9706 0.0978 0.1438
C6 C 0.721(3) -0.0559(5) 0.1994(6)
C7 C 0.688(3) -0.1494(4) 0.2016(5)
C8 C 0.539(3) -0.1886(5) 0.1703(6)
H7 H 0.4324 -0.1821 0.1350
C9 C 0.549(3) -0.2375(4) 0.1910(5)
H8 H 0.4458 -0.2636 0.1703
C10 C 0.714(3) -0.2465(4) 0.2431(5)
C11 C 0.864(3) -0.2080(4) 0.2749(5)
H9 H 0.9746 -0.2146 0.3100
C12 C 0.846(4) -0.1590(5) 0.2536(6)
H10 H 0.9414 -0.1327 0.2750
C13 C 0.708(3) -0.3366(4) 0.2342(5)
C14 C 0.836(3) -0.3421(4) 0.1852(5)
H11 H 0.9403 -0.3151 0.1706
C15 C 0.812(4) -0.3881(5) 0.1563(5)
H12 H 0.8951 -0.3915 0.1223
C16 C 0.663(3) -0.4285(4) 0.1791(5)
C17 C 0.535(4) -0.4223(5) 0.2278(5)
H13 H 0.4333 -0.4493 0.2430
C18 C 0.554(3) -0.3764(4) 0.2553(5)
H14 H 0.4618 -0.3727 0.2884
C19 C 0.742(4) -0.4923(5) 0.1070(6)
C20 C 0.679(3) -0.5461(4) 0.0910(5)
C21 C 0.723(4) -0.5594(5) 0.0364(6)
H15 H 0.7874 -0.5354 0.0119
C22 C 0.671(4) -0.6076(5) 0.0190(6)
H16 H 0.6998 -0.6155 -0.0177
C23 C 0.532(3) -0.6332(5) 0.1041(5)
H17 H 0.4677 -0.6580 0.1277
C24 C 0.582(4) -0.5827(5) 0.1239(6)
H18 H 0.5457 -0.5750 0.1604
I1_2 I 0.06051(17) 0.12154(3) -0.03304(3)
I2_2 I 1.60927(18) 0.21238(3) 0.09743(3)
I3_2 I -0.01081(19) 0.27733(3) -0.04908(3)
Cu1_2 Cu 1.6044(4) 0.13135(6) 0.03425(7)
Cu2_2 Cu 0.0614(5) 0.20765(6) 0.02611(7)
Cu3_2 Cu 1.5283(4) 0.28501(6) 0.01875(7)
Cu3_3 Cu 0.5283(4) -0.71499(6) 0.01875(7)
N4_2 N 0.578(3) 0.3553(4) 0.0523(4)
loop_
_geom_bond_atom_site_label_1
_geom_bond_atom_site_label_2
_geom_bond_site_symmetry_1
_geom_bond_site_symmetry_2
I1 Cu1 1_555 1_555
I2 Cu1 1_555 1_555
I3 Cu2 1_555 1_555
Cu1 N1 1_555 1_555
Cu2 I1 1_555 1_555
Cu3 I2 1_555 1_555
O1 C6 1_555 1_555
O2 C10 1_555 1_555
O3 C19 1_555 1_555
N1 C1 1_555 1_555
N2 H1 1_555 1_555
N3 H2 1_555 1_555
N4 C22 1_555 1_555
C1 H3 1_555 1_555
C2 C1 1_555 1_555
H4 C2 1_555 1_555
C3 C2 1_555 1_555
C4 C3 1_555 1_555
H5 C4 1_555 1_555
C5 N1 1_555 1_555
H6 C5 1_555 1_555
C6 N2 1_555 1_555
C7 N2 1_555 1_555
C8 C7 1_555 1_555
H7 C8 1_555 1_555
C9 C8 1_555 1_555
H8 C9 1_555 1_555
C10 C9 1_555 1_555
C11 C10 1_555 1_555
H9 C11 1_555 1_555
C12 C7 1_555 1_555
H10 C12 1_555 1_555
C13 O2 1_555 1_555
C14 C13 1_555 1_555
H11 C14 1_555 1_555
C15 C14 1_555 1_555
H12 C15 1_555 1_555
C16 N3 1_555 1_555
C17 C16 1_555 1_555
H13 C17 1_555 1_555
C18 C13 1_555 1_555
H14 C18 1_555 1_555
C19 N3 1_555 1_555
C20 C19 1_555 1_555
C21 C20 1_555 1_555
H15 C21 1_555 1_555
C22 C21 1_555 1_555
H16 C22 1_555 1_555
C23 N4 1_555 1_555
H17 C23 1_555 1_555
C24 C20 1_555 1_555
H18 C24 1_555 1_555
I1_2 Cu1 1_555 1_555
I2_2 Cu2 1_555 1_555
I3_2 Cu3 1_555 1_555
Cu1_2 I1 1_555 1_555
Cu2_2 I2 1_555 1_555
Cu3_2 I3 1_555 1_555
Cu3_3 N4 1_555 1_555
N4_2 Cu3 1_555 1_555
I2 Cu2 1_555 1_555
I3 Cu3 1_555 1_555
C3 C6 1_555 1_555
C4 C5 1_555 1_555
C11 C12 1_555 1_555
C15 C16 1_555 1_555
C17 C18 1_555 1_555
C23 C24 1_555 1_555
I1_2 Cu2_2 1_555 1_555
I2_2 Cu1_2 1_555 1_555
I2_2 Cu3_2 1_555 1_555
I3_2 Cu2_2 1_555 1_555

#END
