
#######################################################################
#
#                 Cambridge Crystallographic Data Centre
#                                CCDC 
#
#######################################################################
#
# If this CIF has been generated from an entry in the Cambridge 
# Structural Database, then it will include bibliographic, chemical, 
# crystal, experimental, refinement or atomic coordinate data resulting 
# from the CCDC's data processing and validation procedures.
#
#######################################################################

data_CUNGEY01
_symmetry_cell_setting           orthorhombic
_symmetry_space_group_name_H-M   'P n n a'
_symmetry_Int_Tables_number      52
_space_group_name_Hall           '-P 2a 2bc'
loop_
_symmetry_equiv_pos_site_id
_symmetry_equiv_pos_as_xyz
1 x,y,z
2 1/2-x,-y,z
3 x,1/2-y,1/2-z
4 1/2-x,1/2+y,1/2-z
5 -x,-y,-z
6 1/2+x,y,-z
7 -x,1/2+y,1/2+z
8 1/2+x,1/2-y,1/2+z
_cell_length_a                   8.972(4)
_cell_length_b                   16.235(7)
_cell_length_c                   14.772(6)
_cell_angle_alpha                90
_cell_angle_beta                 90
_cell_angle_gamma                90
_cell_volume                     2151.7
loop_
_atom_site_label
_atom_site_type_symbol
_atom_site_fract_x
_atom_site_fract_y
_atom_site_fract_z
Zn1 Zn 0.08823(6) 0.7500 0.2500
O1 O -0.0012(3) 0.67200(15) 0.16609(17)
C1 C -0.0812(4) 0.6225(2) 0.2123(3)
C2 C -0.1681(3) 0.5585(2) 0.1611(2)
C3 C -0.1681(4) 0.5580(2) 0.0669(2)
H1 H -0.1124 0.5971 0.0357
N1 N 0.2425(3) 0.69281(16) 0.33372(16)
C4 C 0.3589(4) 0.6639(2) 0.4747(2)
H2 H 0.3720 0.6778 0.5353
C5 C -0.2500 0.5000 0.0183(3)
O2 O -0.0873(3) 0.6249(2) 0.2956(2)
C6 C 0.2642(4) 0.7090(2) 0.4212(2)
H3 H 0.2130 0.7529 0.4471
C7 C 0.4348(4) 0.5975(2) 0.4384(3)
C8 C -0.2500 0.5000 0.2071(3)
H4 H -0.2500 0.5000 0.2701
C9 C 0.5351(5) 0.5429(2) 0.4953(3)
C10 C 0.4133(5) 0.5815(3) 0.3481(3)
H5 H 0.4634 0.5382 0.3204
C11 C 0.3174(5) 0.6299(3) 0.2989(3)
H6 H 0.3043 0.6180 0.2378
C12 C -0.2500 0.5000 -0.0853(3)
O1A O -0.4988(3) 0.32800(15) 0.16609(17)
C1A C -0.4188(4) 0.3775(2) 0.2123(3)
C2A C -0.3319(3) 0.4415(2) 0.1611(2)
C3A C -0.3319(4) 0.4420(2) 0.0669(2)
H1A H -0.3876 0.4029 0.0357
O2A O -0.4127(3) 0.3751(2) 0.2956(2)
N1D N 0.7575(3) 0.30719(16) 0.66628(16)
C4D C 0.6411(4) 0.3361(2) 0.5253(2)
H2D H 0.6280 0.3222 0.4647
C6D C 0.7358(4) 0.2910(2) 0.5788(2)
H3D H 0.7870 0.2471 0.5529
C7D C 0.5652(4) 0.4025(2) 0.5616(3)
C9D C 0.4649(5) 0.4571(2) 0.5047(3)
C10D C 0.5867(5) 0.4185(3) 0.6519(3)
H5D H 0.5366 0.4618 0.6796
C11D C 0.6826(5) 0.3701(3) 0.7011(3)
H6D H 0.6957 0.3820 0.7622
Zn1A Zn -0.58823(6) 0.2500 0.2500
Zn1D Zn 0.91177(6) 0.2500 0.7500
O1B O -0.0012(3) 0.82800(15) 0.33391(17)
N1B N 0.2425(3) 0.80719(16) 0.16628(16)
loop_
_geom_bond_atom_site_label_1
_geom_bond_atom_site_label_2
_geom_bond_site_symmetry_1
_geom_bond_site_symmetry_2
Zn1 O1 1_555 1_555
O1 C1 1_555 1_555
C1 C2 1_555 1_555
C2 C3 1_555 1_555
C3 H1 1_555 1_555
N1 Zn1 1_555 1_555
C4 H2 1_555 1_555
C5 C3 1_555 1_555
O2 C1 1_555 1_555
C6 N1 1_555 1_555
H3 C6 1_555 1_555
C7 C4 1_555 1_555
C8 C2 1_555 1_555
H4 C8 1_555 1_555
C9 C7 1_555 1_555
C10 C7 1_555 1_555
H5 C10 1_555 1_555
C11 N1 1_555 1_555
H6 C11 1_555 1_555
C12 C5 1_555 1_555
O1A C1A 1_555 1_555
C1A C2A 1_555 1_555
C2A C8 1_555 1_555
C3A C5 1_555 1_555
H1A C3A 1_555 1_555
O2A C1A 1_555 1_555
N1D C6D 1_555 1_555
C4D H2D 1_555 1_555
C6D C4D 1_555 1_555
H3D C6D 1_555 1_555
C7D C4D 1_555 1_555
C9D C9 1_555 1_555
C10D C7D 1_555 1_555
H5D C10D 1_555 1_555
C11D N1D 1_555 1_555
H6D C11D 1_555 1_555
Zn1A O1A 1_555 1_555
Zn1D N1D 1_555 1_555
O1B Zn1 1_555 1_555
N1B Zn1 1_555 1_555
C4 C6 1_555 1_555
C10 C11 1_555 1_555
C2A C3A 1_555 1_555
C7D C9D 1_555 1_555
C10D C11D 1_555 1_555

#END
