
#######################################################################
#
#                 Cambridge Crystallographic Data Centre
#                                CCDC 
#
#######################################################################
#
# If this CIF has been generated from an entry in the Cambridge 
# Structural Database, then it will include bibliographic, chemical, 
# crystal, experimental, refinement or atomic coordinate data resulting 
# from the CCDC's data processing and validation procedures.
#
#######################################################################

data_CUNNUW
_symmetry_cell_setting           triclinic
_symmetry_space_group_name_H-M   'P -1'
_symmetry_Int_Tables_number      2
_space_group_name_Hall           '-P 1'
loop_
_symmetry_equiv_pos_site_id
_symmetry_equiv_pos_as_xyz
1 x,y,z
2 -x,-y,-z
_cell_length_a                   7.4768(5)
_cell_length_b                   9.1819(7)
_cell_length_c                   12.3920(10)
_cell_angle_alpha                77.113(3)
_cell_angle_beta                 75.853(4)
_cell_angle_gamma                75.184(4)
_cell_volume                     785.718
loop_
_atom_site_label
_atom_site_type_symbol
_atom_site_fract_x
_atom_site_fract_y
_atom_site_fract_z
Mg1 Mg 0.7289(2) 0.08193(17) 0.62969(12)
Mg2 Mg 0.78698(19) -0.09477(16) 0.87443(11)
P1 P 0.38080(15) 0.14046(12) 0.84781(9)
P2 P 0.13188(14) 0.85733(12) 0.64823(9)
O1 O 0.1399(4) 0.8644(3) 0.5256(2)
O2 O 0.4771(4) 0.1910(4) 0.5797(2)
O3 O 0.5746(4) 0.0582(3) 0.7941(2)
O4 O -0.0656(4) 0.9258(3) 0.7082(2)
O5 O 0.6552(4) -0.1253(4) 0.6156(3)
O6 O 0.3595(4) 0.1368(3) 0.9711(2)
O7 O 0.0321(4) 0.7849(4) 0.9225(3)
O8 O 0.6834(5) -0.2735(4) 0.8361(3)
O9 O 0.8095(5) 0.2645(4) 0.6690(3)
C1 C 0.3324(6) 0.3412(5) 0.7839(4)
C2 C 0.1990(6) 0.6561(5) 0.7069(4)
O10 O 0.1958(4) 0.3040(4) 0.5379(3)
C3 C 0.3303(6) 0.2861(5) 0.5945(4)
O11 O 0.3283(4) 0.7127(4) 0.9464(3)
C4 C 0.3052(6) 0.4492(5) 0.8522(4)
H1 H 0.3319 0.4164 0.9260
C5 C 0.2923(6) 0.3936(5) 0.6749(3)
C6 C 0.2401(6) 0.6035(5) 0.8155(4)
C7 C 0.1956(6) 0.7112(5) 0.8997(3)
C8 C 0.2289(6) 0.5485(5) 0.6372(4)
H2 H 0.2057 0.5817 0.5627
O12 O 0.8475(4) 0.1096(4) 0.8929(3)
O13 O 0.2794(4) 0.9294(4) 0.6700(3)
H3 H 0.2622 1.0221 0.6400
O14 O 0.2258(4) 0.0791(3) 0.8216(3)
H4 H 0.2309 -0.0121 0.8543
H5 H 0.938(4) 0.281(7) 0.626(5)
H6 H 0.761(11) 0.3786(19) 0.664(7)
Mg1_2 Mg -0.2711(2) 1.08193(17) 0.62969(12)
Mg1A Mg 0.2711(2) 0.91807(17) 0.37031(12)
Mg2_2 Mg -0.21302(19) 0.90523(16) 0.87443(11)
Mg2A Mg 0.21302(19) 0.09477(16) 1.12557(11)
O1A O 0.8601(4) 0.1356(3) 0.4744(2)
O4_2 O 0.9344(4) -0.0742(3) 0.7082(2)
O6A O 0.6405(4) -0.1368(3) 1.0289(2)
O7_2 O 1.0321(4) -0.2151(4) 0.9225(3)
O15 O 0.7822(17) -0.455(3) 0.8341(8)
loop_
_geom_bond_atom_site_label_1
_geom_bond_atom_site_label_2
_geom_bond_site_symmetry_1
_geom_bond_site_symmetry_2
Mg1 O2 1_555 1_555
Mg2 O3 1_555 1_555
P1 O3 1_555 1_555
P2 O1 1_555 1_555
O1 Mg1A 1_555 1_555
O2 C3 1_555 1_555
O3 Mg1 1_555 1_555
O4 P2 1_555 1_555
O5 Mg1 1_555 1_555
O6 P1 1_555 1_555
O7 C7 1_555 1_555
O8 Mg2 1_555 1_555
O9 Mg1 1_555 1_555
C1 P1 1_555 1_555
C2 P2 1_555 1_555
O10 C3 1_555 1_555
C3 C5 1_555 1_555
O11 C7 1_555 1_555
C4 C1 1_555 1_555
H1 C4 1_555 1_555
C5 C1 1_555 1_555
C6 C2 1_555 1_555
C7 C6 1_555 1_555
C8 C2 1_555 1_555
H2 C8 1_555 1_555
O12 Mg2 1_555 1_555
O13 P2 1_555 1_555
H3 O13 1_555 1_555
O14 P1 1_555 1_555
H4 O14 1_555 1_555
H5 O9 1_555 1_555
H6 O9 1_555 1_555
Mg1_2 O4 1_555 1_555
Mg2_2 O4 1_555 1_555
Mg2A O6 1_555 1_555
O1A Mg1 1_555 1_555
O4_2 Mg1 1_555 1_555
O6A Mg2 1_555 1_555
O7_2 Mg2 1_555 1_555
Mg2 O4_2 1_555 1_555
O7 Mg2_2 1_555 1_555
C4 C6 1_555 1_555
C5 C8 1_555 1_555

#END
