
#######################################################################
#
#                 Cambridge Crystallographic Data Centre
#                                CCDC 
#
#######################################################################
#
# If this CIF has been generated from an entry in the Cambridge 
# Structural Database, then it will include bibliographic, chemical, 
# crystal, experimental, refinement or atomic coordinate data resulting 
# from the CCDC's data processing and validation procedures.
#
#######################################################################

data_CUNQIN
_symmetry_cell_setting           orthorhombic
_symmetry_space_group_name_H-M   'P c c n'
_symmetry_Int_Tables_number      56
_space_group_name_Hall           '-P 2ab 2ac'
loop_
_symmetry_equiv_pos_site_id
_symmetry_equiv_pos_as_xyz
1 x,y,z
2 1/2-x,1/2-y,z
3 -x,1/2+y,1/2-z
4 1/2+x,-y,1/2-z
5 -x,-y,-z
6 1/2+x,1/2+y,-z
7 x,1/2-y,1/2+z
8 1/2-x,y,1/2+z
_cell_length_a                   8.21854(16)
_cell_length_b                   16.3878(3)
_cell_length_c                   13.2772(2)
_cell_angle_alpha                90
_cell_angle_beta                 90
_cell_angle_gamma                90
_cell_volume                     1788.22
loop_
_atom_site_label
_atom_site_type_symbol
_atom_site_fract_x
_atom_site_fract_y
_atom_site_fract_z
Zn1 Zn 0.29785(6) 0.58194(3) 0.63227(4)
P1 P 0.43137(11) 0.43557(5) 0.77770(7)
O1 O 0.3632(4) 0.51794(18) 0.7558(2)
O2 O 0.5509(4) 0.4348(2) 0.8622(2)
O3 O 0.2907(4) 0.3738(2) 0.7987(3)
H1 H 0.2256 0.3942 0.8381
O4 O 0.5100(4) 0.39937(18) 0.67853(19)
H2 H 0.5941 0.3751 0.6928
O5 O 0.2895(3) 0.49520(17) 0.5150(2)
O6 O 0.4520(3) 0.42328(16) 0.4138(2)
O7 O 0.2699(4) 0.68265(16) 0.5346(2)
O8 O 0.2790(4) 0.68348(17) 0.7366(2)
C1 C 0.4252(4) 0.4767(2) 0.4793(3)
C2 C 0.2500 0.7500 0.5770(4)
C3 C 0.2500 0.7500 0.6945(4)
O5D O 0.7105(3) 0.50480(17) 0.4850(2)
O6D O 0.5480(3) 0.57672(16) 0.5862(2)
C1D C 0.5748(4) 0.5233(2) 0.5207(3)
O7A O 0.2301(4) 0.81735(16) 0.5346(2)
O8A O 0.2210(4) 0.81652(17) 0.7366(2)
Zn1A Zn 0.20215(6) 0.91806(3) 0.63227(4)
P1A P 0.06863(11) 1.06443(5) 0.77770(7)
O1A O 0.1368(4) 0.98206(18) 0.7558(2)
O2A O -0.0509(4) 1.0652(2) 0.8622(2)
O3A O 0.2093(4) 1.1262(2) 0.7987(3)
H1A H 0.2744 1.1058 0.8381
O4A O -0.0100(4) 1.10063(18) 0.67853(19)
H2A H -0.0941 1.1249 0.6928
Zn1B Zn -0.29785(6) 1.08194(3) 0.86773(4)
Zn1C Zn 0.79785(6) 0.41806(3) 0.86773(4)
Zn1D Zn 0.70215(6) 0.41806(3) 0.36773(4)
O2B O 0.4491(4) 0.9348(2) 0.6378(2)
O2C O 0.0509(4) 0.5652(2) 0.6378(2)
O5A O 0.2105(3) 1.00480(17) 0.5150(2)
O6E O -0.0480(3) 0.92328(16) 0.5862(2)
C4 C 0.5754(9) 0.6992(5) 0.8972(5)
H3 H 0.4865 0.7327 0.8727
H4 H 0.6524 0.6936 0.8422
C5 C 0.6597(12) 0.7463(8) 0.9809(9)
H5 H 0.6153 0.8011 0.9808
H6 H 0.6284 0.7213 1.0442
N1 N 0.5093(6) 0.6175(2) 0.9188(3)
H7 H 0.4413 0.6030 0.8698
H8 H 0.4561 0.6186 0.9772
H9 H 0.5904 0.5817 0.9224
C4A C 0.9246(9) 0.8008(5) 0.8972(5)
H3A H 1.0135 0.7673 0.8727
H4A H 0.8476 0.8064 0.8422
C5A C 0.8403(12) 0.7537(8) 0.9809(9)
H5A H 0.8847 0.6989 0.9808
H6A H 0.8716 0.7787 1.0442
N1A N 0.9907(6) 0.8825(2) 0.9188(3)
H7A H 1.0587 0.8970 0.8698
H8A H 1.0439 0.8814 0.9772
H9A H 0.9096 0.9183 0.9224
H10? H 0.4932 0.7408 0.9074
H11? H 0.6144 0.7024 0.8284
C6? C 0.7115(14) 0.7094(11) 0.9696(10)
H12? H 0.6710 0.6983 1.0368
H13? H 0.7940 0.6689 0.9545
loop_
_geom_bond_atom_site_label_1
_geom_bond_atom_site_label_2
_geom_bond_site_symmetry_1
_geom_bond_site_symmetry_2
Zn1 O1 1_555 1_555
P1 O1 1_555 1_555
O2 P1 1_555 1_555
O3 P1 1_555 1_555
H1 O3 1_555 1_555
O4 P1 1_555 1_555
H2 O4 1_555 1_555
O5 Zn1 1_555 1_555
O6 C1 1_555 1_555
O7 Zn1 1_555 1_555
O8 Zn1 1_555 1_555
C1 O5 1_555 1_555
C2 O7 1_555 1_555
C3 O8 1_555 1_555
C4 H3 1_555 1_555
H4 C4 1_555 1_555
C5 C4 1_555 1_555
H5 C5 1_555 1_555
H6 C5 1_555 1_555
N1 C4 1_555 1_555
H7 N1 1_555 1_555
H8 N1 1_555 1_555
H9 N1 1_555 1_555
O5D C1D 1_555 1_555
O6D Zn1 1_555 1_555
C1D C1 1_555 1_555
O7A C2 1_555 1_555
O8A C3 1_555 1_555
Zn1A O7A 1_555 1_555
P1A O1A 1_555 1_555
O1A Zn1A 1_555 1_555
O2A P1A 1_555 1_555
O3A P1A 1_555 1_555
H1A O3A 1_555 1_555
O4A P1A 1_555 1_555
H2A O4A 1_555 1_555
Zn1B O2A 1_555 1_555
Zn1C O2 1_555 1_555
Zn1D O6 1_555 1_555
O2B Zn1A 1_555 1_555
O2C Zn1 1_555 1_555
O5A Zn1A 1_555 1_555
O6E Zn1A 1_555 1_555
C4A H3A 1_555 1_555
H4A C4A 1_555 1_555
C5A C5 1_555 1_555
H5A C5A 1_555 1_555
H6A C5A 1_555 1_555
N1A C4A 1_555 1_555
H7A N1A 1_555 1_555
H8A N1A 1_555 1_555
H9A N1A 1_555 1_555
C2 C3 1_555 1_555
O5D Zn1D 1_555 1_555
O6D C1D 1_555 1_555
O8A Zn1A 1_555 1_555
C4A C5A 1_555 1_555

#END
