
#######################################################################
#
#                 Cambridge Crystallographic Data Centre
#                                CCDC 
#
#######################################################################
#
# If this CIF has been generated from an entry in the Cambridge 
# Structural Database, then it will include bibliographic, chemical, 
# crystal, experimental, refinement or atomic coordinate data resulting 
# from the CCDC's data processing and validation procedures.
#
#######################################################################

data_CUNQEJ
_symmetry_cell_setting           orthorhombic
_symmetry_space_group_name_H-M   'P c c n'
_symmetry_Int_Tables_number      56
_space_group_name_Hall           '-P 2ab 2ac'
loop_
_symmetry_equiv_pos_site_id
_symmetry_equiv_pos_as_xyz
1 x,y,z
2 1/2-x,1/2-y,z
3 -x,1/2+y,1/2-z
4 1/2+x,-y,1/2-z
5 -x,-y,-z
6 1/2+x,1/2+y,-z
7 x,1/2-y,1/2+z
8 1/2-x,y,1/2+z
_cell_length_a                   16.3686(9)
_cell_length_b                   8.2405(5)
_cell_length_c                   13.1615(8)
_cell_angle_alpha                90
_cell_angle_beta                 90
_cell_angle_gamma                90
_cell_volume                     1775.29
loop_
_atom_site_label
_atom_site_type_symbol
_atom_site_fract_x
_atom_site_fract_y
_atom_site_fract_z
Co1 Co 0.41738(2) 0.20341(5) 0.63064(3)
P1 P 0.43389(4) 0.56995(9) 0.72291(6)
O1 O 0.43234(14) 0.4507(3) 0.63740(16)
O2 O 0.37262(14) 0.7108(3) 0.7025(2)
H1 H 0.3943 0.7792 0.6662
O3 O 0.39795(13) 0.4911(3) 0.82289(16)
H2 H 0.3721 0.4092 0.8081
O4 O 0.51685(13) 0.6376(3) 0.74449(17)
O5 O 0.42280(12) -0.0456(2) 0.58671(16)
O6 O 0.49371(13) -0.2094(2) 0.48428(16)
O7 O 0.31739(11) 0.2286(3) 0.53163(15)
O8 O 0.31673(11) 0.2226(3) 0.73561(15)
C1 C 0.47618(16) -0.0735(3) 0.5206(2)
C2 C 0.2500 0.2500 0.5746(3)
C3 C 0.2500 0.2500 0.6922(3)
O5D O 0.57720(12) 0.0456(2) 0.41329(16)
O6D O 0.50629(13) 0.2094(2) 0.51572(16)
C1D C 0.52382(16) 0.0735(3) 0.4794(2)
O7A O 0.18261(11) 0.2714(3) 0.53163(15)
O8A O 0.18327(11) 0.2774(3) 0.73561(15)
Co1A Co 0.08262(2) 0.29659(5) 0.63064(3)
P1A P 0.06611(4) -0.06995(9) 0.72291(6)
O1A O 0.06766(14) 0.0493(3) 0.63740(16)
O2A O 0.12738(14) -0.2108(3) 0.7025(2)
H1A H 0.1057 -0.2792 0.6662
O3A O 0.10205(13) 0.0089(3) 0.82289(16)
H2A H 0.1279 0.0908 0.8081
O4A O -0.01685(13) -0.1376(3) 0.74449(17)
Co1B Co 0.58262(2) 0.70341(5) 0.86936(3)
Co1C Co -0.08262(2) -0.20341(5) 0.86936(3)
Co1D Co 0.58262(2) -0.20341(5) 0.36936(3)
O4B O 0.48315(13) 0.1376(3) 0.75551(17)
O4C O 0.01685(13) 0.3624(3) 0.75551(17)
O5A O 0.07720(12) 0.5456(2) 0.58671(16)
O6E O -0.00629(13) 0.2906(2) 0.51572(16)
N1 N 0.38202(18) 0.5168(4) 0.4168(2)
H3 H 0.3932 0.4323 0.3771
H4 H 0.4170 0.5968 0.4036
H5 H 0.3866 0.4875 0.4816
C4 C 0.2977(3) 0.5730(6) 0.3970(3)
H6 H 0.2661 0.4790 0.3764
H7 H 0.2999 0.6454 0.3389
C5 C 0.2494(5) 0.6595(7) 0.4802(5)
H8 H 0.1929 0.6248 0.4753
H9 H 0.2699 0.6226 0.5454
N1A N 0.11798(18) 0.9832(4) 0.4168(2)
H3A H 0.1068 1.0677 0.3771
H4A H 0.0830 0.9032 0.4036
H5A H 0.1134 1.0125 0.4816
C4A C 0.2023(3) 0.9270(6) 0.3970(3)
H6A H 0.2339 1.0210 0.3764
H7A H 0.2001 0.8546 0.3389
C5A C 0.2506(5) 0.8405(7) 0.4802(5)
H8A H 0.3071 0.8752 0.4753
H9A H 0.2301 0.8774 0.5454
H10? H 0.2909 0.6083 0.3272
H11? H 0.2579 0.4892 0.4122
C6? C 0.2915(7) 0.7101(11) 0.4686(8)
H12? H 0.3324 0.7906 0.4511
H13? H 0.3035 0.6715 0.5366
loop_
_geom_bond_atom_site_label_1
_geom_bond_atom_site_label_2
_geom_bond_site_symmetry_1
_geom_bond_site_symmetry_2
Co1 O1 1_555 1_555
P1 O1 1_555 1_555
O2 P1 1_555 1_555
H1 O2 1_555 1_555
O3 P1 1_555 1_555
H2 O3 1_555 1_555
O4 P1 1_555 1_555
O5 Co1 1_555 1_555
O6 C1 1_555 1_555
O7 Co1 1_555 1_555
O8 Co1 1_555 1_555
C1 O5 1_555 1_555
C2 O7 1_555 1_555
C3 O8 1_555 1_555
N1 H3 1_555 1_555
H4 N1 1_555 1_555
H5 N1 1_555 1_555
C4 N1 1_555 1_555
H6 C4 1_555 1_555
H7 C4 1_555 1_555
C5 C4 1_555 1_555
H8 C5 1_555 1_555
H9 C5 1_555 1_555
O5D C1D 1_555 1_555
O6D Co1 1_555 1_555
C1D C1 1_555 1_555
O7A C2 1_555 1_555
O8A C3 1_555 1_555
Co1A O7A 1_555 1_555
P1A O1A 1_555 1_555
O1A Co1A 1_555 1_555
O2A P1A 1_555 1_555
H1A O2A 1_555 1_555
O3A P1A 1_555 1_555
H2A O3A 1_555 1_555
O4A P1A 1_555 1_555
Co1B O4 1_555 1_555
Co1C O4A 1_555 1_555
Co1D O6 1_555 1_555
O4B Co1 1_555 1_555
O4C Co1A 1_555 1_555
O5A Co1A 1_555 1_555
O6E Co1A 1_555 1_555
N1A H3A 1_555 1_555
H4A N1A 1_555 1_555
H5A N1A 1_555 1_555
C4A N1A 1_555 1_555
H6A C4A 1_555 1_555
H7A C4A 1_555 1_555
C5A C5 1_555 1_555
H8A C5A 1_555 1_555
H9A C5A 1_555 1_555
C2 C3 1_555 1_555
O5D Co1D 1_555 1_555
O6D C1D 1_555 1_555
O8A Co1A 1_555 1_555
C4A C5A 1_555 1_555

#END
