
#######################################################################
#
#                 Cambridge Crystallographic Data Centre
#                                CCDC 
#
#######################################################################
#
# If this CIF has been generated from an entry in the Cambridge 
# Structural Database, then it will include bibliographic, chemical, 
# crystal, experimental, refinement or atomic coordinate data resulting 
# from the CCDC's data processing and validation procedures.
#
#######################################################################

data_CUNVEN
_symmetry_cell_setting           triclinic
_symmetry_space_group_name_H-M   'P -1'
_symmetry_Int_Tables_number      2
_space_group_name_Hall           '-P 1'
loop_
_symmetry_equiv_pos_site_id
_symmetry_equiv_pos_as_xyz
1 x,y,z
2 -x,-y,-z
_cell_length_a                   8.827(2)
_cell_length_b                   9.906(3)
_cell_length_c                   13.939(4)
_cell_angle_alpha                100.010(4)
_cell_angle_beta                 102.604(4)
_cell_angle_gamma                110.800(3)
_cell_volume                     1068.92
loop_
_atom_site_label
_atom_site_type_symbol
_atom_site_fract_x
_atom_site_fract_y
_atom_site_fract_z
Cd1 Cd 0.94626(5) 0.90769(5) 0.59832(3)
Co1 Co -0.18536(10) -0.01937(8) 0.02591(6)
C1 C 0.2973(7) 0.7494(7) 0.3098(4)
C2 C 0.1878(8) 0.6058(7) 0.2483(5)
H1 H 0.2027 0.5224 0.2629
C3 C 0.0571(8) 0.5880(7) 0.1656(5)
C4 C 0.0345(8) 0.7104(7) 0.1423(4)
H2 H -0.0527 0.6970 0.0854
C5 C 0.1428(8) 0.8542(7) 0.2044(4)
C6 C 0.2746(7) 0.8756(7) 0.2892(4)
H3 H 0.3462 0.9715 0.3312
C7 C 0.4002(9) 0.6641(8) 0.4591(5)
H4 H 0.2993 0.5853 0.4538
C8 C 0.5511(8) 0.7059(8) 0.5275(5)
H5 H 0.5734 0.6597 0.5782
C9 C 0.5890(8) 0.8581(7) 0.4333(5)
H6 H 0.6390 0.9354 0.4057
C10 C -0.2201(8) 0.3973(7) 0.0367(5)
H7 H -0.2704 0.4608 0.0182
C11 C -0.2877(8) 0.2463(7) 0.0033(5)
H8 H -0.3944 0.1871 -0.0436
C12 C -0.0397(8) 0.3117(7) 0.1093(5)
H9 H 0.0570 0.3086 0.1500
C13 C 0.1037(7) 0.9838(7) 0.1826(4)
C14 C 1.2011(7) 1.3880(6) 0.6771(4)
C15 C 1.1150(8) 1.4691(7) 0.6386(4)
H10 H 1.0106 1.4198 0.5877
C16 C 1.1859(7) 1.6249(6) 0.6764(4)
C17 C 1.3436(8) 1.6976(7) 0.7491(5)
H11 H 1.3922 1.8019 0.7715
C18 C 1.4315(8) 1.6182(7) 0.7896(5)
C19 C 1.3592(8) 1.4630(7) 0.7544(5)
H12 H 1.4151 1.4080 0.7817
C20 C 1.1158(8) 1.2189(7) 0.6439(5)
C21 C 1.0867(8) 1.7148(7) 0.6438(5)
C22 C 1.5929(9) 1.7016(8) 0.8775(5)
H13 H -0.334(10) -0.010(6) 0.171(6)
H14 H -0.324(11) -0.143(4) 0.156(6)
N1 N -0.1742(7) 0.1930(6) 0.0493(4)
N2 N -0.0607(6) 0.4386(6) 0.1040(4)
N3 N 0.6695(6) 0.8283(6) 0.5118(4)
N4 N 0.4227(6) 0.7609(6) 0.3975(4)
O1 O 0.0317(5) 0.9672(5) 0.0883(3)
O2 O 0.1376(6) 1.0950(5) 0.2535(3)
O3 O 0.9983(6) 1.1513(5) 0.5603(3)
O4 O 1.1607(6) 1.1487(5) 0.7021(4)
O5 O 0.9320(6) 1.6521(5) 0.6006(4)
O6 O 1.1695(6) 1.8561(5) 0.6675(4)
O7 O 1.6710(7) 1.6357(7) 0.9160(5)
O8 O 1.6323(6) 1.8434(5) 0.9071(4)
O9 O -0.2974(6) -0.0636(6) 0.1405(4)
Cd1A Cd 0.05374(5) 1.09231(5) 0.40168(3)
Cd1A_2 Cd 1.05374(5) 1.09231(5) 0.40168(3)
Cd1_2 Cd 0.94626(5) 1.90769(5) 0.59832(3)
Co1_2 Co -0.18536(10) 0.98063(8) 0.02591(6)
Co1A Co 0.18536(10) 1.01937(8) -0.02591(6)
Co1_3 Co 1.81464(10) 1.98063(8) 1.02591(6)
O1_2 O 0.0317(5) -0.0328(5) 0.0883(3)
O1A O -0.0317(5) 0.0328(5) -0.0883(3)
O2A O 0.8624(6) 0.9050(5) 0.7465(3)
O3A O 1.0017(6) 0.8487(5) 0.4397(3)
O5_2 O 0.9320(6) 0.6521(5) 0.6006(4)
O6_2 O 1.1695(6) 0.8561(5) 0.6675(4)
O8_2 O -0.3677(6) -0.1566(5) -0.0929(4)
loop_
_geom_bond_atom_site_label_1
_geom_bond_atom_site_label_2
_geom_bond_site_symmetry_1
_geom_bond_site_symmetry_2
Cd1 N3 1_555 1_555
Co1 N1 1_555 1_555
C1 C2 1_555 1_555
C2 H1 1_555 1_555
C3 C2 1_555 1_555
C4 C3 1_555 1_555
H2 C4 1_555 1_555
C5 C4 1_555 1_555
C6 C1 1_555 1_555
H3 C6 1_555 1_555
C7 H4 1_555 1_555
C8 C7 1_555 1_555
H5 C8 1_555 1_555
C9 H6 1_555 1_555
C10 H7 1_555 1_555
C11 C10 1_555 1_555
H8 C11 1_555 1_555
C12 H9 1_555 1_555
C13 C5 1_555 1_555
C14 C15 1_555 1_555
C15 H10 1_555 1_555
C16 C15 1_555 1_555
C17 C16 1_555 1_555
H11 C17 1_555 1_555
C18 C17 1_555 1_555
C19 C14 1_555 1_555
H12 C19 1_555 1_555
C20 C14 1_555 1_555
C21 C16 1_555 1_555
C22 C18 1_555 1_555
H13 O9 1_555 1_555
H14 O9 1_555 1_555
N1 C11 1_555 1_555
N2 C3 1_555 1_555
N3 C8 1_555 1_555
N4 C1 1_555 1_555
O1 C13 1_555 1_555
O2 C13 1_555 1_555
O3 Cd1 1_555 1_555
O4 Cd1 1_555 1_555
O5 C21 1_555 1_555
O6 C21 1_555 1_555
O7 C22 1_555 1_555
O8 C22 1_555 1_555
O9 Co1 1_555 1_555
Cd1A O2 1_555 1_555
Cd1A_2 O3 1_555 1_555
Cd1_2 O5 1_555 1_555
Co1_2 O1 1_555 1_555
Co1A O1 1_555 1_555
Co1_3 O8 1_555 1_555
O1_2 Co1 1_555 1_555
O1A Co1 1_555 1_555
O2A Cd1 1_555 1_555
O3A Cd1 1_555 1_555
O5_2 Cd1 1_555 1_555
O6_2 Cd1 1_555 1_555
O8_2 Co1 1_555 1_555
C5 C6 1_555 1_555
C7 N4 1_555 1_555
C9 N3 1_555 1_555
C9 N4 1_555 1_555
C10 N2 1_555 1_555
C12 N1 1_555 1_555
C12 N2 1_555 1_555
C18 C19 1_555 1_555
C20 O3 1_555 1_555
C20 O4 1_555 1_555
O6 Cd1_2 1_555 1_555
Cd1A_2 O3A 1_555 1_555

#END
