
#######################################################################
#
#                 Cambridge Crystallographic Data Centre
#                                CCDC 
#
#######################################################################
#
# If this CIF has been generated from an entry in the Cambridge 
# Structural Database, then it will include bibliographic, chemical, 
# crystal, experimental, refinement or atomic coordinate data resulting 
# from the CCDC's data processing and validation procedures.
#
#######################################################################

data_CUNVAJ
_symmetry_cell_setting           triclinic
_symmetry_space_group_name_H-M   'P -1'
_symmetry_Int_Tables_number      2
_space_group_name_Hall           '-P 1'
loop_
_symmetry_equiv_pos_site_id
_symmetry_equiv_pos_as_xyz
1 x,y,z
2 -x,-y,-z
_cell_length_a                   8.1541(9)
_cell_length_b                   10.4047(11)
_cell_length_c                   14.2934(15)
_cell_angle_alpha                100.014(3)
_cell_angle_beta                 93.657(2)
_cell_angle_gamma                105.699(2)
_cell_volume                     1141.76
loop_
_atom_site_label
_atom_site_type_symbol
_atom_site_fract_x
_atom_site_fract_y
_atom_site_fract_z
Zn1 Zn -0.19662(5) -0.13201(4) -0.01952(3)
Zn2 Zn 0.13468(5) -0.79790(4) -0.47290(3)
C1 C -0.4979(4) -0.1627(3) 0.3071(2)
C2 C -0.5238(4) -0.2963(4) 0.3162(2)
H1 H -0.4681 -0.3517 0.2806
C3 C -0.6344(4) -0.3461(3) 0.3793(2)
C4 C -0.7132(4) -0.2631(3) 0.4345(2)
H2 H -0.7854 -0.2971 0.4778
C5 C -0.6842(4) -0.1297(3) 0.4250(2)
C6 C -0.5765(4) -0.0780(3) 0.3606(2)
H3 H -0.5575 0.0119 0.3537
C7 C -0.2791(5) 0.0211(4) 0.2548(3)
H4 H -0.2655 0.0907 0.3078
C8 C -0.1977(5) 0.0289(4) 0.1759(2)
H5 H -0.1175 0.1057 0.1650
C9 C -0.3648(4) -0.1746(3) 0.1561(2)
H6 H -0.4229 -0.2651 0.1299
C10 C -0.6668(6) -0.5928(4) 0.3187(3)
H7 H -0.6287 -0.5884 0.2591
C11 C -0.7274(6) -0.7052(4) 0.3537(3)
H8 H -0.7385 -0.7937 0.3222
C12 C -0.7357(4) -0.5368(4) 0.4616(2)
H9 H -0.7525 -0.4845 0.5180
C13 C -0.7772(4) -0.0424(4) 0.4807(2)
C14 C -0.1466(4) -0.5216(3) -0.1010(2)
C15 C -0.0527(4) -0.5241(3) -0.1802(2)
H10 H -0.0168 -0.4467 -0.2064
C16 C -0.0140(4) -0.6426(3) -0.2191(2)
C17 C -0.0599(4) -0.7558(3) -0.1786(2)
H11 H -0.0287 -0.8332 -0.2038
C18 C -0.1525(4) -0.7554(3) -0.1005(2)
C19 C -0.1968(4) -0.6386(3) -0.0639(2)
H12 H -0.2621 -0.6389 -0.0129
C20 C -0.1897(4) -0.3955(3) -0.0561(2)
C21 C 0.0785(4) -0.6471(4) -0.3074(2)
C22 C -0.2028(4) -0.8764(3) -0.0549(2)
O1 O -0.8936(3) -0.0975(2) 0.52750(16)
O2 O -0.7311(3) 0.0804(2) 0.47950(17)
O3 O -0.1262(3) -0.2872(2) -0.08697(16)
O4 O -0.2844(3) -0.4007(3) 0.00834(18)
O5 O 0.1270(5) -0.5468(3) -0.3417(2)
O6 O 0.0989(3) -0.7629(3) -0.34190(16)
O7 O -0.3292(3) -0.8948(3) -0.0107(2)
O8 O -0.1075(3) -0.9583(2) -0.06364(17)
O9 O -0.4367(3) -0.1893(3) -0.0965(2)
N1 N -0.2529(3) -0.0958(3) 0.11398(19)
N2 N -0.3853(3) -0.1086(3) 0.24181(19)
N3 N -0.6718(4) -0.4859(3) 0.3876(2)
N4 N -0.7713(4) -0.6689(3) 0.4446(2)
H13 H -0.482(4) -0.2717(12) -0.111(3)
H15 H -0.501(4) -0.153(3) -0.067(3)
Zn1_2 Zn -0.19662(5) -1.13201(4) -0.01952(3)
Zn1A Zn 0.19662(5) -0.86799(4) 0.01952(3)
Zn2_2 Zn -0.86532(5) -0.79790(4) 0.52710(3)
Zn2A Zn -1.13468(5) -0.20210(4) 0.47290(3)
Zn2_3 Zn -0.86532(5) 0.20210(4) 0.52710(3)
O1A O -0.1064(3) -0.9025(2) -0.52750(16)
O2_2 O 0.2689(3) -0.9196(2) -0.52050(17)
O8_2 O -0.1075(3) 0.0417(2) -0.06364(17)
O8A O 0.1075(3) -0.0417(2) 0.06364(17)
N4_2 N 0.2287(4) -0.6689(3) -0.5554(2)
O10 O -0.4016(3) -0.5369(3) 0.1508(2)
H14 H -0.348(4) -0.499(4) 0.111(2)
H16 H -0.334(4) -0.538(5) 0.1953(18)
loop_
_geom_bond_atom_site_label_1
_geom_bond_atom_site_label_2
_geom_bond_site_symmetry_1
_geom_bond_site_symmetry_2
Zn1 O3 1_555 1_555
Zn2 O6 1_555 1_555
C1 C2 1_555 1_555
C2 H1 1_555 1_555
C3 C2 1_555 1_555
C4 C3 1_555 1_555
H2 C4 1_555 1_555
C5 C4 1_555 1_555
C6 C1 1_555 1_555
H3 C6 1_555 1_555
C7 H4 1_555 1_555
C8 C7 1_555 1_555
H5 C8 1_555 1_555
C9 H6 1_555 1_555
C10 H7 1_555 1_555
C11 C10 1_555 1_555
H8 C11 1_555 1_555
C12 H9 1_555 1_555
C13 C5 1_555 1_555
C14 C15 1_555 1_555
C15 H10 1_555 1_555
C16 C15 1_555 1_555
C17 C16 1_555 1_555
H11 C17 1_555 1_555
C18 C17 1_555 1_555
C19 C14 1_555 1_555
H12 C19 1_555 1_555
C20 C14 1_555 1_555
C21 C16 1_555 1_555
C22 C18 1_555 1_555
O1 C13 1_555 1_555
O2 C13 1_555 1_555
O3 C20 1_555 1_555
O4 C20 1_555 1_555
O5 C21 1_555 1_555
O6 C21 1_555 1_555
O7 C22 1_555 1_555
O8 C22 1_555 1_555
O9 Zn1 1_555 1_555
O10 H14 1_555 1_555
N1 Zn1 1_555 1_555
N2 C1 1_555 1_555
N3 C3 1_555 1_555
N4 C11 1_555 1_555
H13 O9 1_555 1_555
H15 O9 1_555 1_555
H16 O10 1_555 1_555
Zn1_2 O8 1_555 1_555
Zn1A O8 1_555 1_555
Zn2_2 N4 1_555 1_555
Zn2A O1 1_555 1_555
Zn2_3 O2 1_555 1_555
O1A Zn2 1_555 1_555
O2_2 Zn2 1_555 1_555
O8_2 Zn1 1_555 1_555
O8A Zn1 1_555 1_555
N4_2 Zn2 1_555 1_555
C5 C6 1_555 1_555
C7 N2 1_555 1_555
C8 N1 1_555 1_555
C9 N1 1_555 1_555
C9 N2 1_555 1_555
C10 N3 1_555 1_555
C12 N3 1_555 1_555
C12 N4 1_555 1_555
C18 C19 1_555 1_555

#END
