
#######################################################################
#
#                 Cambridge Crystallographic Data Centre
#                                CCDC 
#
#######################################################################
#
# If this CIF has been generated from an entry in the Cambridge 
# Structural Database, then it will include bibliographic, chemical, 
# crystal, experimental, refinement or atomic coordinate data resulting 
# from the CCDC's data processing and validation procedures.
#
#######################################################################

data_CUNVIR
_symmetry_cell_setting           tetragonal
_symmetry_space_group_name_H-M   'I 41/a'
_symmetry_Int_Tables_number      88
_space_group_name_Hall           '-I 4ad'
loop_
_symmetry_equiv_pos_site_id
_symmetry_equiv_pos_as_xyz
1 x,y,z
2 3/4-y,1/4+x,1/4+z
3 1/2-x,-y,1/2+z
4 3/4+y,3/4-x,3/4+z
5 1/2+x,1/2+y,1/2+z
6 1/4-y,3/4+x,3/4+z
7 -x,1/2-y,z
8 1/4+y,1/4-x,1/4+z
9 -x,-y,-z
10 1/4+y,3/4-x,3/4-z
11 1/2+x,y,1/2-z
12 1/4-y,1/4+x,1/4-z
13 1/2-x,1/2-y,1/2-z
14 3/4+y,1/4-x,1/4-z
15 x,1/2+y,-z
16 3/4-y,3/4+x,3/4-z
_cell_length_a                   19.734(3)
_cell_length_b                   19.734(3)
_cell_length_c                   13.989(2)
_cell_angle_alpha                90
_cell_angle_beta                 90
_cell_angle_gamma                90
_cell_volume                     5447.75
loop_
_atom_site_label
_atom_site_type_symbol
_atom_site_fract_x
_atom_site_fract_y
_atom_site_fract_z
W1 W 0.0000 -0.2500 0.3750
Cu1 Cu -0.2500 -0.2500 0.2500
N1 N -0.15818(19) -0.24456(19) 0.3037(3)
N2 N -0.2960(2) -0.2694(2) 0.4095(3)
N3 N -0.26019(18) -0.64412(19) 0.7329(3)
N4 N -0.0063(2) -0.3492(2) 0.1823(3)
C1 C -0.2073(2) -0.6018(2) 0.7327(4)
H1 H -0.1635 -0.6202 0.7391
C2 C -0.2776(2) -0.5027(2) 0.7168(3)
C3 C -0.2137(2) -0.5325(3) 0.7237(3)
H2 H -0.1747 -0.5051 0.7222
C4 C -0.3218(2) -0.6155(3) 0.7246(4)
H3 H -0.3599 -0.6441 0.7234
C5 C -0.3321(2) -0.5471(3) 0.7176(4)
H4 H -0.3764 -0.5300 0.7134
C6 C -0.2531(2) -0.2655(2) 0.4860(3)
H5 H -0.2084 -0.2507 0.4757
C7 C -0.2722(2) -0.2820(2) 0.5762(3)
H6 H -0.2401 -0.2800 0.6258
C8 C -0.3379(3) -0.3019(2) 0.5967(4)
C9 C -0.3599(3) -0.3227(3) 0.6956(4)
H7 H -0.4064 -0.3071 0.7068
H8 H -0.3306 -0.3008 0.7430
C10 C -0.3567(3) -0.3994(3) 0.7088(4)
H9 H -0.3782(9) -0.4113(5) 0.768(2)
H10 H -0.3819(10) -0.4209(9) 0.6579(19)
C11 C -0.3818(3) -0.3042(3) 0.5201(4)
H11 H -0.4271 -0.3173 0.5298
C12 C -0.3601(3) -0.2875(3) 0.4296(4)
H12 H -0.3917 -0.2888 0.3794
C13 C -0.0035(2) -0.3151(2) 0.2486(3)
C14 C -0.1032(2) -0.2458(2) 0.3308(3)
C15 C -0.2846(3) -0.4269(2) 0.7088(4)
H13 H -0.2631(9) -0.4128(6) 0.652(2)
H14 H -0.2609(10) -0.4068(8) 0.7604(19)
Cu1F Cu 0.2500 -0.2500 0.2500
Cu1B Cu -0.2500 -0.7500 0.7500
Cu1A Cu 0.0000 0.0000 0.5000
Cu1G Cu 0.0000 -0.5000 0.5000
Cu1B_2 Cu -0.2500 -0.7500 -0.2500
Cu1B_3 Cu -0.2500 0.2500 -0.2500
Cu1B_4 Cu -0.2500 0.2500 0.7500
N1F N 0.15818(19) -0.25544(19) 0.3037(3)
N1I N 0.00544(19) -0.09182(19) 0.4463(3)
N1O N -0.00544(19) -0.40818(19) 0.4463(3)
N1L N -0.34182(19) -0.25544(19) 0.1963(3)
N1J N 0.34182(19) -0.24456(19) 0.1963(3)
N2B N -0.2040(2) -0.7306(2) -0.0905(3)
N2L N -0.2040(2) -0.2306(2) 0.0905(3)
N2N N -0.2960(2) 0.2306(2) 0.5905(3)
N2F N 0.2960(2) -0.2306(2) 0.4095(3)
N2J N 0.2040(2) -0.2694(2) 0.0905(3)
N3B N -0.23981(18) -0.35588(19) 0.2329(3)
N3L N -0.23981(18) 0.14412(19) -0.2329(3)
N3N N -0.26019(18) -0.14412(19) 0.2671(3)
N3D N 0.23981(18) -0.14412(19) 0.2329(3)
N3H N 0.26019(18) -0.35588(19) 0.2671(3)
N4F N 0.0063(2) -0.1508(2) 0.1823(3)
N4I N -0.0992(2) -0.2437(2) 0.5677(3)
N4O N 0.0992(2) -0.2563(2) 0.5677(3)
C1B C -0.2927(2) -0.3982(2) 0.2327(4)
C1L C -0.2927(2) 0.1018(2) -0.2327(4)
C1N C -0.2073(2) -0.1018(2) 0.2673(4)
H1B H -0.3365 -0.3798 0.2391
H1L H -0.3365 0.1202 -0.2391
H1N H -0.1635 -0.1202 0.2609
C2B C -0.2224(2) -0.4973(2) 0.2168(3)
C2L C -0.2224(2) 0.0027(2) -0.2168(3)
C2N C -0.2776(2) -0.0027(2) 0.2832(3)
C3B C -0.2863(2) -0.4675(3) 0.2237(3)
C3L C -0.2863(2) 0.0325(3) -0.2237(3)
C3N C -0.2137(2) -0.0325(3) 0.2763(3)
H2B H -0.3253 -0.4949 0.2222
H2L H -0.3253 0.0051 -0.2222
H2N H -0.1747 -0.0051 0.2778
C4B C -0.1782(2) -0.3845(3) 0.2246(4)
C4L C -0.1782(2) 0.1155(3) -0.2246(4)
C4N C -0.3218(2) -0.1155(3) 0.2754(4)
H3B H -0.1401 -0.3559 0.2234
H3L H -0.1401 0.1441 -0.2234
H3N H -0.3599 -0.1441 0.2766
C5B C -0.1679(2) -0.4529(3) 0.2176(4)
C5L C -0.1679(2) 0.0471(3) -0.2176(4)
C5N C -0.3321(2) -0.0471(3) 0.2824(4)
H4B H -0.1236 -0.4700 0.2134
H4L H -0.1236 0.0300 -0.2134
H4N H -0.3764 -0.0300 0.2866
C6B C -0.2469(2) -0.7345(2) -0.0140(3)
C6L C -0.2469(2) -0.2345(2) 0.0140(3)
C6N C -0.2531(2) 0.2345(2) 0.5140(3)
H5B H -0.2916 -0.7493 -0.0243
H5L H -0.2916 -0.2493 0.0243
H5N H -0.2084 0.2493 0.5243
C7B C -0.2278(2) -0.7180(2) 0.0762(3)
C7L C -0.2278(2) -0.2180(2) -0.0762(3)
C7N C -0.2722(2) 0.2180(2) 0.4238(3)
H6B H -0.2599 -0.7200 0.1258
H6L H -0.2599 -0.2200 -0.1258
H6N H -0.2401 0.2200 0.3742
C8B C -0.1621(3) -0.6981(2) 0.0967(4)
C8L C -0.1621(3) -0.1981(2) -0.0967(4)
C8N C -0.3379(3) 0.1981(2) 0.4033(4)
C9B C -0.1401(3) -0.6773(3) 0.1956(4)
C9L C -0.1401(3) -0.1773(3) -0.1956(4)
C9N C -0.3599(3) 0.1773(3) 0.3044(4)
H7B H -0.0936 -0.6929 0.2068
H7L H -0.0936 -0.1929 -0.2068
H7N H -0.4064 0.1929 0.2932
H8B H -0.1694 -0.6992 0.2430
H8L H -0.1694 -0.1992 -0.2430
H8N H -0.3306 0.1992 0.2570
C10B C -0.1433(3) -0.6006(3) 0.2088(4)
C10L C -0.1433(3) -0.1006(3) -0.2088(4)
C10N C -0.3567(3) 0.1006(3) 0.2912(4)
H9B H -0.1218(9) -0.5887(5) 0.268(2)
H9L H -0.1218(9) -0.0887(5) -0.268(2)
H9N H -0.3782(9) 0.0887(5) 0.232(2)
H10B H -0.1181(10) -0.5791(9) 0.1579(19)
H10L H -0.1181(10) -0.0791(9) -0.1579(19)
H10N H -0.3819(10) 0.0791(9) 0.3421(19)
C11B C -0.1182(3) -0.6958(3) 0.0201(4)
C11L C -0.1182(3) -0.1958(3) -0.0201(4)
C11N C -0.3818(3) 0.1958(3) 0.4799(4)
H11B H -0.0729 -0.6827 0.0298
H11L H -0.0729 -0.1827 -0.0298
H11N H -0.4271 0.1827 0.4702
C12B C -0.1399(3) -0.7125(3) -0.0704(4)
C12L C -0.1399(3) -0.2125(3) 0.0704(4)
C12N C -0.3601(3) 0.2125(3) 0.5704(4)
H12B H -0.1083 -0.7112 -0.1206
H12L H -0.1083 -0.2112 0.1206
H12N H -0.3917 0.2112 0.6206
C13F C 0.0035(2) -0.1849(2) 0.2486(3)
C13I C -0.0651(2) -0.2465(2) 0.5014(3)
C13O C 0.0651(2) -0.2535(2) 0.5014(3)
C14F C 0.1032(2) -0.2542(2) 0.3308(3)
C14I C 0.0042(2) -0.1468(2) 0.4192(3)
C14O C -0.0042(2) -0.3532(2) 0.4192(3)
C15B C -0.2154(3) -0.5731(2) 0.2088(4)
C15L C -0.2154(3) -0.0731(2) -0.2088(4)
C15N C -0.2846(3) 0.0731(2) 0.2912(4)
H13B H -0.2369(9) -0.5872(6) 0.152(2)
H13L H -0.2369(9) -0.0872(6) -0.152(2)
H13N H -0.2631(9) 0.0872(6) 0.348(2)
H14B H -0.2391(10) -0.5932(8) 0.2604(19)
H14L H -0.2391(10) -0.0932(8) -0.2604(19)
H14N H -0.2609(10) 0.0932(8) 0.2396(19)
loop_
_geom_bond_atom_site_label_1
_geom_bond_atom_site_label_2
_geom_bond_site_symmetry_1
_geom_bond_site_symmetry_2
W1 C13 1_555 1_555
Cu1 N1 1_555 1_555
N1 C14 1_555 1_555
N2 Cu1 1_555 1_555
N3 C1 1_555 1_555
N4 C13 1_555 1_555
C1 H1 1_555 1_555
C2 C3 1_555 1_555
C3 C1 1_555 1_555
H2 C3 1_555 1_555
C4 N3 1_555 1_555
H3 C4 1_555 1_555
C5 C2 1_555 1_555
H4 C5 1_555 1_555
C6 N2 1_555 1_555
H5 C6 1_555 1_555
C7 C6 1_555 1_555
H6 C7 1_555 1_555
C8 C7 1_555 1_555
C9 C8 1_555 1_555
H7 C9 1_555 1_555
H8 C9 1_555 1_555
C10 C9 1_555 1_555
H9 C10 1_555 1_555
H10 C10 1_555 1_555
C11 C8 1_555 1_555
H11 C11 1_555 1_555
C12 N2 1_555 1_555
H12 C12 1_555 1_555
C14 W1 1_555 1_555
C15 C2 1_555 1_555
H13 C15 1_555 1_555
H14 C15 1_555 1_555
Cu1F N1F 1_555 1_555
Cu1B N3 1_555 1_555
Cu1A N1I 1_555 1_555
Cu1G N1O 1_555 1_555
Cu1B_2 N2B 1_555 1_555
Cu1B_3 N3L 1_555 1_555
Cu1B_4 N2N 1_555 1_555
N1F C14F 1_555 1_555
N1I C14I 1_555 1_555
N1O C14O 1_555 1_555
N1L Cu1 1_555 1_555
N1J Cu1F 1_555 1_555
N2B C6B 1_555 1_555
N2L Cu1 1_555 1_555
N2N C6N 1_555 1_555
N2F Cu1F 1_555 1_555
N2J Cu1F 1_555 1_555
N3B Cu1 1_555 1_555
N3L C1L 1_555 1_555
N3N Cu1 1_555 1_555
N3D Cu1F 1_555 1_555
N3H Cu1F 1_555 1_555
N4F C13F 1_555 1_555
N4I C13I 1_555 1_555
N4O C13O 1_555 1_555
C1B N3B 1_555 1_555
C1L H1L 1_555 1_555
C1N N3N 1_555 1_555
H1B C1B 1_555 1_555
H1N C1N 1_555 1_555
C2B C3B 1_555 1_555
C2L C3L 1_555 1_555
C2N C3N 1_555 1_555
C3B C1B 1_555 1_555
C3L C1L 1_555 1_555
C3N C1N 1_555 1_555
H2B C3B 1_555 1_555
H2L C3L 1_555 1_555
H2N C3N 1_555 1_555
C4B N3B 1_555 1_555
C4L N3L 1_555 1_555
C4N N3N 1_555 1_555
H3B C4B 1_555 1_555
H3L C4L 1_555 1_555
H3N C4N 1_555 1_555
C5B C2B 1_555 1_555
C5L C2L 1_555 1_555
C5N C2N 1_555 1_555
H4B C5B 1_555 1_555
H4L C5L 1_555 1_555
H4N C5N 1_555 1_555
C6B H5B 1_555 1_555
C6L N2L 1_555 1_555
C6N H5N 1_555 1_555
H5L C6L 1_555 1_555
C7B C6B 1_555 1_555
C7L C6L 1_555 1_555
C7N C6N 1_555 1_555
H6B C7B 1_555 1_555
H6L C7L 1_555 1_555
H6N C7N 1_555 1_555
C8B C7B 1_555 1_555
C8L C7L 1_555 1_555
C8N C7N 1_555 1_555
C9B C8B 1_555 1_555
C9L C8L 1_555 1_555
C9N C8N 1_555 1_555
H7B C9B 1_555 1_555
H7L C9L 1_555 1_555
H7N C9N 1_555 1_555
H8B C9B 1_555 1_555
H8L C9L 1_555 1_555
H8N C9N 1_555 1_555
C10B C9B 1_555 1_555
C10L C9L 1_555 1_555
C10N C9N 1_555 1_555
H9B C10B 1_555 1_555
H9L C10L 1_555 1_555
H9N C10N 1_555 1_555
H10B C10B 1_555 1_555
H10L C10L 1_555 1_555
H10N C10N 1_555 1_555
C11B C8B 1_555 1_555
C11L C8L 1_555 1_555
C11N C8N 1_555 1_555
H11B C11B 1_555 1_555
H11L C11L 1_555 1_555
H11N C11N 1_555 1_555
C12B N2B 1_555 1_555
C12L N2L 1_555 1_555
C12N N2N 1_555 1_555
H12B C12B 1_555 1_555
H12L C12L 1_555 1_555
H12N C12N 1_555 1_555
C13F W1 1_555 1_555
C13I W1 1_555 1_555
C13O W1 1_555 1_555
C14F W1 1_555 1_555
C14I W1 1_555 1_555
C14O W1 1_555 1_555
C15B C2B 1_555 1_555
C15L C2L 1_555 1_555
C15N C2N 1_555 1_555
H13B C15B 1_555 1_555
H13L C15L 1_555 1_555
H13N C15N 1_555 1_555
H14B C15B 1_555 1_555
H14L C15L 1_555 1_555
H14N C15N 1_555 1_555
C4 C5 1_555 1_555
C10 C15 1_555 1_555
C11 C12 1_555 1_555
C4B C5B 1_555 1_555
C4L C5L 1_555 1_555
C4N C5N 1_555 1_555
C10B C15B 1_555 1_555
C10L C15L 1_555 1_555
C10N C15N 1_555 1_555
C11B C12B 1_555 1_555
C11L C12L 1_555 1_555
C11N C12N 1_555 1_555

#END
