
#######################################################################
#
#                 Cambridge Crystallographic Data Centre
#                                CCDC 
#
#######################################################################
#
# If this CIF has been generated from an entry in the Cambridge 
# Structural Database, then it will include bibliographic, chemical, 
# crystal, experimental, refinement or atomic coordinate data resulting 
# from the CCDC's data processing and validation procedures.
#
#######################################################################

data_CUNWEO
_symmetry_cell_setting           monoclinic
_symmetry_space_group_name_H-M   'P 21/c'
_symmetry_Int_Tables_number      14
_space_group_name_Hall           '-P 2ybc'
loop_
_symmetry_equiv_pos_site_id
_symmetry_equiv_pos_as_xyz
1 x,y,z
2 -x,1/2+y,1/2-z
3 -x,-y,-z
4 x,1/2-y,1/2+z
_cell_length_a                   8.3930(4)
_cell_length_b                   22.2351(10)
_cell_length_c                   18.7421(8)
_cell_angle_alpha                90
_cell_angle_beta                 94.031(2)
_cell_angle_gamma                90
_cell_volume                     3488.98
loop_
_atom_site_label
_atom_site_type_symbol
_atom_site_fract_x
_atom_site_fract_y
_atom_site_fract_z
N5 N 1.2402(5) 0.8237(2) 1.0906(2)
C29 C 1.2103(5) 0.7687(2) 1.0764(2)
H15 H 1.2115 0.7456 1.1210
H16 H 1.2916 0.7527 1.0465
H17 H 1.1048 0.7653 1.0508
C30 C 1.2330(5) 0.8512(2) 1.0157(2)
H18 H 1.2544 0.8945 1.0194
H19 H 1.1265 0.8447 0.9920
H20 H 1.3133 0.8321 0.9877
C31 C 1.2334(5) 0.8504(2) 1.1519(2)
H21 H 1.2235 0.8258 1.1927
O9 O 1.2393(5) 0.9117(2) 1.1624(2)
C32 C 0.2619(5) 0.4430(2) 1.4149(2)
C33 C 0.1324(5) 0.4801(2) 1.4024(2)
H22 H 0.0386 0.4718 1.4262
C34 C 0.1320(5) 0.5258(2) 1.3597(2)
H23 H 0.0382 0.5470 1.3433
C35 C 0.2691(5) 0.5390(2) 1.3424(2)
C36 C 0.3744(5) 0.5095(2) 1.3172(2)
H25 H 0.4361 0.5181 1.2778
C37 C 0.3795(5) 0.4467(2) 1.3744(2)
H26 H 0.4627 0.4176 1.3754
N6 N 0.2602(5) 0.4099(2) 1.4709(2)
O10 O 0.3486(5) 0.3574(2) 1.4691(2)
O11 O 0.1155(5) 0.3908(2) 1.4833(2)
Cd1 Cd 0.31576(6) 0.556958(18) 0.98712(2)
O1 O 0.5706(6) 0.54015(19) 0.9438(2)
O2 O 0.7933(6) 0.4933(2) 0.9215(2)
O3 O 0.8937(7) 0.7298(3) 0.6612(4)
O4 O 0.4151(8) 0.7287(3) 0.7642(4)
N1 N 0.4555(7) 0.8787(2) 0.5649(3)
N2 N 0.6409(8) 0.7428(3) 0.7009(3)
C1 C 0.6936(9) 0.5342(3) 0.9098(3)
C2 C 0.7246(9) 0.5801(3) 0.8530(3)
C3 C 0.8671(10) 0.5776(4) 0.8202(4)
H1 H 0.9420 0.5467 0.8328
C4 C 0.9019(10) 0.6204(4) 0.7683(4)
H2 H 1.0008 0.6198 0.7466
C5 C 0.7890(10) 0.6627(3) 0.7503(4)
C6 C 0.6461(9) 0.6640(3) 0.7820(4)
C7 C 0.6104(9) 0.6238(3) 0.8347(3)
H3 H 0.5127 0.6258 0.8572
C8 C 0.5486(11) 0.7143(4) 0.7517(4)
C9 C 0.7901(10) 0.7135(4) 0.6982(4)
C10 C 0.5562(9) 0.8384(3) 0.5430(3)
H4 H 0.5847 0.8411 0.4949
C11 C 0.6236(9) 0.7924(3) 0.5847(4)
H5 H 0.6945 0.7640 0.5662
C12 C 0.5823(9) 0.7899(3) 0.6553(4)
C13 C 0.4787(10) 0.8324(3) 0.6796(4)
H6 H 0.4504 0.8322 0.7278
C14 C 0.4179(9) 0.8751(3) 0.6321(4)
H7 H 0.3445 0.9036 0.6485
O5 O 0.2719(6) 0.64078(19) 0.9084(2)
O6 O 0.0903(6) 0.6231(2) 0.9863(2)
O7 O 0.1440(7) 0.8395(3) 0.7362(3)
O8 O -0.3427(7) 0.8760(2) 0.8254(3)
N3 N -0.1102(7) 0.8682(3) 0.7644(3)
N4 N -0.2246(7) 0.9947(2) 0.6029(3)
C15 C 0.1432(9) 0.6533(3) 0.9360(3)
C16 C 0.0462(9) 0.7066(3) 0.9086(4)
C17 C -0.0977(9) 0.7189(3) 0.9367(4)
H8 H -0.1320 0.6942 0.9740
C18 C -0.1952(9) 0.7669(3) 0.9115(4)
H9 H -0.2937 0.7758 0.9312
C19 C -0.1390(9) 0.8007(3) 0.8559(4)
C20 C 0.0059(10) 0.7882(3) 0.8288(4)
C21 C 0.1016(10) 0.7425(3) 0.8539(4)
H10 H 0.2021 0.7351 0.8352
C22 C -0.2163(10) 0.8518(3) 0.8167(4)
C23 C 0.0296(10) 0.8325(4) 0.7702(4)
C24 C -0.2620(8) 1.0043(3) 0.6707(3)
H11 H -0.3176 1.0401 0.6809
C25 C -0.2237(9) 0.9648(3) 0.7262(4)
H12 H -0.2521 0.9733 0.7733
C26 C -0.1425(9) 0.9121(3) 0.7111(4)
C27 C -0.0970(8) 0.9030(3) 0.6422(4)
H13 H -0.0371 0.8686 0.6303
C28 C -0.1413(5) 0.9452(2) 0.5924(2)
H14 H -0.1096 0.9386 0.5453
Cd1B Cd 0.68424(6) 0.443042(18) 1.01288(2)
Cd1C Cd 0.31576(6) 0.943042(18) 0.48712(2)
Cd1A Cd -0.31576(6) 1.056958(18) 0.51288(2)
O2B O 0.2067(6) 0.5067(2) 1.0785(2)
N1C N 0.4555(7) 0.6213(2) 1.0649(3)
N4A N 0.2246(7) 0.4947(2) 0.8971(3)
H24? H 0.2967 0.5800 1.3505
O12? O 0.3766(5) 0.3566(2) 1.3996(2)
O13? O 0.0249(5) 0.5480(2) 1.3889(2)
O14? O 0.3305(5) 0.5945(2) 1.3969(2)
loop_
_geom_bond_atom_site_label_1
_geom_bond_atom_site_label_2
_geom_bond_site_symmetry_1
_geom_bond_site_symmetry_2
Cd1 O1 1_555 1_555
O1 C1 1_555 1_555
O2 C1 1_555 1_555
O3 C9 1_555 1_555
O4 C8 1_555 1_555
N1 C10 1_555 1_555
N2 C8 1_555 1_555
C1 C2 1_555 1_555
C2 C3 1_555 1_555
C3 H1 1_555 1_555
C4 C3 1_555 1_555
H2 C4 1_555 1_555
C5 C4 1_555 1_555
C6 C5 1_555 1_555
C7 C2 1_555 1_555
H3 C7 1_555 1_555
C8 C6 1_555 1_555
C9 N2 1_555 1_555
C10 H4 1_555 1_555
C11 C10 1_555 1_555
H5 C11 1_555 1_555
C12 N2 1_555 1_555
C13 C12 1_555 1_555
H6 C13 1_555 1_555
C14 N1 1_555 1_555
H7 C14 1_555 1_555
O5 Cd1 1_555 1_555
O6 Cd1 1_555 1_555
O7 C23 1_555 1_555
O8 C22 1_555 1_555
N3 C22 1_555 1_555
N4 C24 1_555 1_555
C15 O5 1_555 1_555
C16 C15 1_555 1_555
C17 C16 1_555 1_555
H8 C17 1_555 1_555
C18 C17 1_555 1_555
H9 C18 1_555 1_555
C19 C18 1_555 1_555
C20 C19 1_555 1_555
C21 C16 1_555 1_555
H10 C21 1_555 1_555
C22 C19 1_555 1_555
C23 N3 1_555 1_555
C24 H11 1_555 1_555
C25 C24 1_555 1_555
H12 C25 1_555 1_555
C26 N3 1_555 1_555
C27 C26 1_555 1_555
H13 C27 1_555 1_555
C28 N4 1_555 1_555
H14 C28 1_555 1_555
N5 C29 1_555 1_555
C29 H15 1_555 1_555
H16 C29 1_555 1_555
H17 C29 1_555 1_555
C30 N5 1_555 1_555
H18 C30 1_555 1_555
H19 C30 1_555 1_555
H20 C30 1_555 1_555
C31 N5 1_555 1_555
H21 C31 1_555 1_555
O9 C31 1_555 1_555
C32 C33 1_555 1_555
C33 H22 1_555 1_555
C34 C33 1_555 1_555
H23 C34 1_555 1_555
C35 C34 1_555 1_555
C36 C35 1_555 1_555
H25 C36 1_555 1_555
C37 C32 1_555 1_555
H26 C37 1_555 1_555
N6 C32 1_555 1_555
O10 N6 1_555 1_555
O11 N6 1_555 1_555
Cd1B O2 1_555 1_555
Cd1C N1 1_555 1_555
Cd1A N4 1_555 1_555
O2B Cd1 1_555 1_555
N1C Cd1 1_555 1_555
N4A Cd1 1_555 1_555
C5 C9 1_555 1_555
C6 C7 1_555 1_555
C11 C12 1_555 1_555
C13 C14 1_555 1_555
O6 C15 1_555 1_555
C20 C21 1_555 1_555
C20 C23 1_555 1_555
C25 C26 1_555 1_555
C27 C28 1_555 1_555
C36 C37 1_555 1_555

#END
