
#######################################################################
#
#                 Cambridge Crystallographic Data Centre
#                                CCDC 
#
#######################################################################
#
# If this CIF has been generated from an entry in the Cambridge 
# Structural Database, then it will include bibliographic, chemical, 
# crystal, experimental, refinement or atomic coordinate data resulting 
# from the CCDC's data processing and validation procedures.
#
#######################################################################

data_CUNYIU
_symmetry_cell_setting           triclinic
_symmetry_space_group_name_H-M   'P -1'
_symmetry_Int_Tables_number      2
_space_group_name_Hall           '-P 1'
loop_
_symmetry_equiv_pos_site_id
_symmetry_equiv_pos_as_xyz
1 x,y,z
2 -x,-y,-z
_cell_length_a                   13.3935(5)
_cell_length_b                   14.9472(5)
_cell_length_c                   15.8144(6)
_cell_angle_alpha                67.9040(10)
_cell_angle_beta                 69.3990(10)
_cell_angle_gamma                66.5900(10)
_cell_volume                     2614.59
loop_
_atom_site_label
_atom_site_type_symbol
_atom_site_fract_x
_atom_site_fract_y
_atom_site_fract_z
Cu1 Cu 0.52353(4) 0.54376(3) 0.64225(3)
Cu2 Cu 0.73302(4) 0.06781(3) 0.68578(3)
S1 S 0.51424(7) 0.29333(6) 0.69768(6)
S2 S 0.47037(7) -0.18515(6) 0.60556(6)
S3 S -0.11384(7) -0.20720(7) 0.75098(6)
N1 N 0.5960(2) 0.4665(2) 0.7517(2)
N2 N 0.3832(2) 0.5521(2) 0.7460(2)
N3 N 0.7566(2) 0.0572(2) 0.8090(2)
N4 N 0.6215(2) -0.0063(2) 0.7728(2)
N5 N 0.6654(3) 0.5437(2) 0.5475(2)
N6 N 0.8287(3) 0.5654(3) 0.4701(2)
N7 N 0.8520(3) 0.1314(2) 0.6117(2)
N8 N 1.0171(3) 0.1531(3) 0.5404(3)
C1 C 0.1874(3) 0.3159(2) 0.8157(2)
C2 C 0.2950(3) 0.3224(2) 0.7941(2)
H1 H 0.3107 0.3556 0.8265
C3 C 0.3792(3) 0.2808(2) 0.7257(2)
C4 C 0.3582(3) 0.2325(2) 0.6775(2)
H2 H 0.4168 0.2039 0.6310
C5 C 0.2514(3) 0.2257(2) 0.6966(2)
C6 C 0.2268(3) 0.1772(2) 0.6403(2)
H3 H 0.2743 0.1907 0.5757
H4 H 0.1478 0.2108 0.6361
C7 C 0.2457(3) 0.0634(2) 0.6791(2)
C8 C 0.3350(3) -0.0018(3) 0.6329(2)
H5 H 0.3837 0.0251 0.5771
C9 C 0.3548(3) -0.1063(2) 0.6669(2)
C10 C 0.2848(3) -0.1466(3) 0.7490(2)
H6 H 0.2984 -0.2179 0.7719
C11 C 0.1954(3) -0.0833(3) 0.7977(2)
C12 C 0.1307(3) -0.1271(3) 0.8944(2)
H7 H 0.1859 -0.1772 0.9311
H8 H 0.0892 -0.0715 0.9251
C13 C 0.0483(3) -0.1777(2) 0.9042(2)
C14 C 0.0038(3) -0.1654(2) 0.8324(2)
H9 H 0.0262 -0.1236 0.7715
C15 C -0.0739(3) -0.2141(3) 0.8489(2)
C16 C -0.1077(3) -0.2746(3) 0.9377(2)
H10 H -0.1608 -0.3072 0.9482
C17 C -0.0650(3) -0.2886(2) 1.0120(2)
C18 C 0.0951(3) 0.3618(2) 0.8916(2)
H11 H 0.1179 0.4124 0.9006
H12 H 0.0264 0.3988 0.8676
C19 C 0.1648(3) 0.2690(2) 0.7652(2)
C20 C 0.1738(3) 0.0216(3) 0.7615(2)
C21 C 0.0134(3) -0.2399(2) 0.9940(2)
C22 C 0.7036(3) 0.4191(3) 0.7511(3)
H13 H 0.7575 0.4234 0.6926
C23 C 0.7394(4) 0.3632(3) 0.8337(3)
H14 H 0.8170 0.3295 0.8308
C24 C 0.6644(4) 0.3565(3) 0.9183(3)
H15 H 0.6892 0.3199 0.9747
C25 C 0.4622(4) 0.4018(3) 1.0050(3)
H16 H 0.4813 0.3662 1.0639
C26 C 0.3539(4) 0.4479(3) 1.0031(3)
H17 H 0.2982 0.4447 1.0605
C27 C 0.2096(3) 0.5501(3) 0.9066(3)
H18 H 0.1495 0.5505 0.9611
C28 C 0.1880(3) 0.5956(3) 0.8204(3)
H19 H 0.1129 0.6275 0.8142
C29 C 0.2771(3) 0.5954(3) 0.7401(3)
H20 H 0.2611 0.6271 0.6798
C30 C 0.4043(3) 0.5063(3) 0.8326(3)
C31 C 0.3204(3) 0.5023(3) 0.9156(3)
C32 C 0.5492(4) 0.4045(3) 0.9214(3)
C33 C 0.5201(3) 0.4584(3) 0.8356(2)
C34 C 0.8210(3) 0.0932(3) 0.8259(3)
H21 H 0.8585 0.1364 0.7749
C35 C 0.8365(3) 0.0706(3) 0.9155(3)
H22 H 0.8819 0.0995 0.9250
C36 C 0.7855(3) 0.0063(3) 0.9894(3)
H23 H 0.7974 -0.0116 1.0502
C37 C 0.6564(3) -0.0991(3) 1.0474(3)
H24 H 0.6645 -0.1194 1.1098
C38 C 0.5009(3) -0.1315(3) 0.9112(3)
H25 H 0.4603 -0.1754 0.9575
C39 C 0.4886(3) -0.0956(3) 0.8217(3)
H26 H 0.4377 -0.1125 0.8055
C40 C 0.5510(3) -0.0335(3) 0.7535(3)
H27 H 0.5425 -0.0100 0.6909
C41 C 0.6313(3) -0.0398(2) 0.8630(2)
C42 C 0.5738(3) -0.1037(3) 0.9353(3)
C43 C 0.7154(3) -0.0331(3) 0.9750(2)
C44 C 0.7036(3) -0.0048(2) 0.8830(2)
C45 C 0.5892(3) -0.1330(3) 1.0283(3)
H28 H 0.5514 -0.1773 1.0776
C46 C 0.7400(3) 0.5848(3) 0.5397(3)
H29 H 0.7313 0.6237 0.5790
C47 C 0.8102(3) 0.5108(3) 0.4289(3)
H30 H 0.8589 0.4864 0.3766
C48 C 0.7094(4) 0.4979(3) 0.4766(3)
H31 H 0.6743 0.4624 0.4630
C49 C 0.9602(4) 0.0857(3) 0.5846(3)
H32 H 0.9932 0.0145 0.5952
C50 C 0.9429(4) 0.2475(4) 0.5407(3)
H33 H 0.9592 0.3101 0.5154
C51 C 0.8412(4) 0.2333(3) 0.5846(3)
H34 H 0.7727 0.2857 0.5951
O1 O 0.06113(18) 0.26645(17) 0.78007(16)
O2 O 0.0832(2) 0.07943(19) 0.80991(18)
H35 H 0.0875 0.1385 0.7927
O3 O 0.0634(2) -0.25212(18) 1.05977(16)
H36 H 0.0173 -0.2565 1.1123
O4 O 0.50940(19) 0.39523(17) 0.63013(16)
O5 O 0.5360(2) 0.28345(18) 0.78414(16)
O6 O 0.59105(19) 0.21545(17) 0.65113(17)
O7 O 0.5593(2) -0.13972(19) 0.57275(19)
O8 O 0.4974(2) -0.28608(17) 0.67040(17)
O9 O 0.4366(2) -0.18532(19) 0.52731(18)
O10 O -0.1245(2) -0.10428(19) 0.68976(18)
O11 O -0.0233(2) -0.2821(2) 0.70651(19)
O12 O -0.2185(2) -0.2315(2) 0.7855(2)
O13 O 0.4342(2) 0.62759(18) 0.54623(17)
H37 H 0.4403 0.6854 0.5362
H38 H 0.4673 0.6186 0.4920
O14 O 0.7236(2) 0.05164(19) 0.56862(17)
H39 H 0.6687 0.0911 0.5440
H40 H 0.7213 -0.0047 0.5694
H49 H 0.890(4) 0.583(3) 0.454(3)
H50 H 1.0904(19) 0.140(4) 0.513(4)
Cu1A Cu -0.52353(4) -0.54376(3) 1.35775(3)
Cu1_2 Cu 0.52353(4) -0.45624(3) 0.64225(3)
Cu1A_2 Cu -0.52353(4) 0.45624(3) 1.35775(3)
Cu2A Cu -0.73302(4) -0.06781(3) 1.31422(3)
Cu2_2 Cu -0.26698(4) 0.06781(3) 0.68578(3)
Cu2A_2 Cu 0.26698(4) -0.06781(3) 1.31422(3)
S1A S -0.51424(7) -0.29333(6) 1.30232(6)
S2A S -0.47037(7) 0.18515(6) 1.39444(6)
S3A S 0.11384(7) 0.20720(7) 1.24902(6)
N1A N -0.5960(2) -0.4665(2) 1.2483(2)
N2A N -0.3832(2) -0.5521(2) 1.2540(2)
N3A N -0.7566(2) -0.0572(2) 1.1910(2)
N4A N -0.6215(2) 0.0063(2) 1.2272(2)
N5A N -0.6654(3) -0.5437(2) 1.4525(2)
N6A N -0.8287(3) -0.5654(3) 1.5299(2)
N7A N -0.8520(3) -0.1314(2) 1.3883(2)
N8A N -1.0171(3) -0.1531(3) 1.4596(3)
C1A C -0.1874(3) -0.3159(2) 1.1843(2)
C2A C -0.2950(3) -0.3224(2) 1.2059(2)
H1A H -0.3107 -0.3556 1.1735
C3A C -0.3792(3) -0.2808(2) 1.2743(2)
C4A C -0.3582(3) -0.2325(2) 1.3225(2)
H2A H -0.4168 -0.2039 1.3690
C5A C -0.2514(3) -0.2257(2) 1.3034(2)
C6A C -0.2268(3) -0.1772(2) 1.3597(2)
H3A H -0.2743 -0.1907 1.4243
H4A H -0.1478 -0.2108 1.3639
C7A C -0.2457(3) -0.0634(2) 1.3209(2)
C8A C -0.3350(3) 0.0018(3) 1.3671(2)
H5A H -0.3837 -0.0251 1.4229
C9A C -0.3548(3) 0.1063(2) 1.3331(2)
C10A C -0.2848(3) 0.1466(3) 1.2510(2)
H6A H -0.2984 0.2179 1.2281
C11A C -0.1954(3) 0.0833(3) 1.2023(2)
C12A C -0.1307(3) 0.1271(3) 1.1056(2)
H7A H -0.1859 0.1772 1.0689
H8A H -0.0892 0.0715 1.0749
C13A C -0.0483(3) 0.1777(2) 1.0958(2)
C14A C -0.0038(3) 0.1654(2) 1.1676(2)
H9A H -0.0262 0.1236 1.2285
C15A C 0.0739(3) 0.2141(3) 1.1511(2)
C16A C 0.1077(3) 0.2746(3) 1.0623(2)
H10A H 0.1608 0.3072 1.0518
C17A C 0.0650(3) 0.2886(2) 0.9880(2)
C18A C -0.0951(3) -0.3618(2) 1.1084(2)
H11A H -0.1179 -0.4124 1.0994
H12A H -0.0264 -0.3988 1.1324
C19A C -0.1648(3) -0.2690(2) 1.2348(2)
C20A C -0.1738(3) -0.0216(3) 1.2385(2)
C21A C -0.0134(3) 0.2399(2) 1.0060(2)
C22A C -0.7036(3) -0.4191(3) 1.2489(3)
H13A H -0.7575 -0.4234 1.3074
C23A C -0.7394(4) -0.3632(3) 1.1663(3)
H14A H -0.8170 -0.3295 1.1692
C24A C -0.6644(4) -0.3565(3) 1.0817(3)
H15A H -0.6892 -0.3199 1.0253
C25A C -0.4622(4) -0.4018(3) 0.9950(3)
H16A H -0.4813 -0.3662 0.9361
C26A C -0.3539(4) -0.4479(3) 0.9969(3)
H17A H -0.2982 -0.4447 0.9395
C27A C -0.2096(3) -0.5501(3) 1.0934(3)
H18A H -0.1495 -0.5505 1.0389
C28A C -0.1880(3) -0.5956(3) 1.1796(3)
H19A H -0.1129 -0.6275 1.1858
C29A C -0.2771(3) -0.5954(3) 1.2599(3)
H20A H -0.2611 -0.6271 1.3202
C30A C -0.4043(3) -0.5063(3) 1.1674(3)
C31A C -0.3204(3) -0.5023(3) 1.0844(3)
C32A C -0.5492(4) -0.4045(3) 1.0786(3)
C33A C -0.5201(3) -0.4584(3) 1.1644(2)
C34A C -0.8210(3) -0.0932(3) 1.1741(3)
H21A H -0.8585 -0.1364 1.2251
C35A C -0.8365(3) -0.0706(3) 1.0845(3)
H22A H -0.8819 -0.0995 1.0750
C36A C -0.7855(3) -0.0063(3) 1.0106(3)
H23A H -0.7974 0.0116 0.9498
C37A C -0.6564(3) 0.0991(3) 0.9526(3)
H24A H -0.6645 0.1194 0.8902
C38A C -0.5009(3) 0.1315(3) 1.0888(3)
H25A H -0.4603 0.1754 1.0425
C39A C -0.4886(3) 0.0956(3) 1.1783(3)
H26A H -0.4377 0.1125 1.1945
C40A C -0.5510(3) 0.0335(3) 1.2465(3)
H27A H -0.5425 0.0100 1.3091
C41A C -0.6313(3) 0.0398(2) 1.1370(2)
C42A C -0.5738(3) 0.1037(3) 1.0647(3)
C43A C -0.7154(3) 0.0331(3) 1.0250(2)
C44A C -0.7036(3) 0.0048(2) 1.1170(2)
C45A C -0.5892(3) 0.1330(3) 0.9717(3)
H28A H -0.5514 0.1773 0.9224
C46A C -0.7400(3) -0.5848(3) 1.4603(3)
H29A H -0.7313 -0.6237 1.4210
C47A C -0.8102(3) -0.5108(3) 1.5711(3)
H30A H -0.8589 -0.4864 1.6234
C48A C -0.7094(4) -0.4979(3) 1.5234(3)
H31A H -0.6743 -0.4624 1.5370
C49A C -0.9602(4) -0.0857(3) 1.4154(3)
H32A H -0.9932 -0.0145 1.4048
C50A C -0.9429(4) -0.2475(4) 1.4593(3)
H33A H -0.9592 -0.3101 1.4846
C51A C -0.8412(4) -0.2333(3) 1.4154(3)
H34A H -0.7727 -0.2857 1.4049
O1A O -0.06113(18) -0.26645(17) 1.21993(16)
O2A O -0.0832(2) -0.07943(19) 1.19009(18)
H35A H -0.0875 -0.1385 1.2073
O3A O -0.0634(2) 0.25212(18) 0.94023(16)
H36A H -0.0173 0.2565 0.8877
O4A O -0.50940(19) -0.39523(17) 1.36987(16)
O5A O -0.5360(2) -0.28345(18) 1.21586(16)
O6A O -0.59105(19) -0.21545(17) 1.34887(17)
O7A O -0.5593(2) 0.13972(19) 1.42725(19)
O8A O -0.4974(2) 0.28608(17) 1.32960(17)
O8_2 O 0.4974(2) 0.71392(17) 0.67040(17)
O8A_2 O -0.4974(2) -0.71392(17) 1.32960(17)
O9A O -0.4366(2) 0.18532(19) 1.47269(18)
O10A O 0.1245(2) 0.10428(19) 1.31024(18)
O10_2 O 0.8755(2) -0.10428(19) 0.68976(18)
O10A_2 O -0.8755(2) 0.10428(19) 1.31024(18)
O11A O 0.0233(2) 0.2821(2) 1.29349(19)
O12A O 0.2185(2) 0.2315(2) 1.2145(2)
O13A O -0.4342(2) -0.62759(18) 1.45377(17)
H37A H -0.4403 -0.6854 1.4638
H38A H -0.4673 -0.6186 1.5080
O14A O -0.7236(2) -0.05164(19) 1.43138(17)
H39A H -0.6687 -0.0911 1.4560
H40A H -0.7213 0.0047 1.4306
H49A H -0.890(4) -0.583(3) 1.546(3)
H50A H -1.0904(19) -0.140(4) 1.487(4)
O15 O 1.0332(2) 0.5948(2) 0.36558(19)
H41 H 1.0144 0.6355 0.3152
H42 H 1.0449 0.5412 0.3516
O16 O 1.2391(2) 0.1442(2) 0.4250(2)
H43 H 1.3013 0.1467 0.4254
H44 H 1.2357 0.1597 0.3684
O17 O 0.6695(2) 0.6538(2) 0.7656(2)
H45 H 0.6112 0.6830 0.7439
H46 H 0.6577 0.7003 0.7897
O18 O 0.8961(3) 0.5856(3) 0.6759(4)
H47 H 0.9357 0.6215 0.6689
H48 H 0.8279 0.6027 0.7055
O19 O 0.1498(5) 0.8269(4) 0.6086(4)
loop_
_geom_bond_atom_site_label_1
_geom_bond_atom_site_label_2
_geom_bond_site_symmetry_1
_geom_bond_site_symmetry_2
Cu1 N1 1_555 1_555
Cu2 N3 1_555 1_555
S1 C3 1_555 1_555
S2 C9 1_555 1_555
S3 C15 1_555 1_555
N1 C22 1_555 1_555
N2 Cu1 1_555 1_555
N3 C34 1_555 1_555
N4 Cu2 1_555 1_555
N5 Cu1 1_555 1_555
N6 C46 1_555 1_555
N7 Cu2 1_555 1_555
N8 C49 1_555 1_555
C1 C2 1_555 1_555
C2 H1 1_555 1_555
C3 C2 1_555 1_555
C4 C3 1_555 1_555
H2 C4 1_555 1_555
C5 C4 1_555 1_555
C6 C5 1_555 1_555
H3 C6 1_555 1_555
H4 C6 1_555 1_555
C7 C6 1_555 1_555
C8 C7 1_555 1_555
H5 C8 1_555 1_555
C9 C8 1_555 1_555
C10 C9 1_555 1_555
H6 C10 1_555 1_555
C11 C10 1_555 1_555
C12 C11 1_555 1_555
H7 C12 1_555 1_555
H8 C12 1_555 1_555
C13 C12 1_555 1_555
C14 C13 1_555 1_555
H9 C14 1_555 1_555
C15 C14 1_555 1_555
C16 C15 1_555 1_555
H10 C16 1_555 1_555
C17 C16 1_555 1_555
C18 C1 1_555 1_555
H11 C18 1_555 1_555
H12 C18 1_555 1_555
C19 C1 1_555 1_555
C20 C7 1_555 1_555
C21 C13 1_555 1_555
C22 H13 1_555 1_555
C23 C22 1_555 1_555
H14 C23 1_555 1_555
C24 C23 1_555 1_555
H15 C24 1_555 1_555
C25 H16 1_555 1_555
C26 C25 1_555 1_555
H17 C26 1_555 1_555
C27 H18 1_555 1_555
C28 C27 1_555 1_555
H19 C28 1_555 1_555
C29 N2 1_555 1_555
H20 C29 1_555 1_555
C30 N2 1_555 1_555
C31 C26 1_555 1_555
C32 C24 1_555 1_555
C33 N1 1_555 1_555
C34 H21 1_555 1_555
C35 C34 1_555 1_555
H22 C35 1_555 1_555
C36 C35 1_555 1_555
H23 C36 1_555 1_555
C37 H24 1_555 1_555
C38 H25 1_555 1_555
C39 C38 1_555 1_555
H26 C39 1_555 1_555
C40 N4 1_555 1_555
H27 C40 1_555 1_555
C41 N4 1_555 1_555
C42 C38 1_555 1_555
C43 C36 1_555 1_555
C44 N3 1_555 1_555
C45 C37 1_555 1_555
H28 C45 1_555 1_555
C46 N5 1_555 1_555
H29 C46 1_555 1_555
C47 N6 1_555 1_555
H30 C47 1_555 1_555
C48 N5 1_555 1_555
H31 C48 1_555 1_555
C49 N7 1_555 1_555
H32 C49 1_555 1_555
C50 N8 1_555 1_555
H33 C50 1_555 1_555
C51 N7 1_555 1_555
H34 C51 1_555 1_555
O1 C19 1_555 1_555
O2 C20 1_555 1_555
H35 O2 1_555 1_555
O3 C21 1_555 1_555
H36 O3 1_555 1_555
O4 Cu1 1_555 1_555
O5 S1 1_555 1_555
O6 Cu2 1_555 1_555
O7 S2 1_555 1_555
O8 S2 1_555 1_555
O9 S2 1_555 1_555
O10 S3 1_555 1_555
O11 S3 1_555 1_555
O12 S3 1_555 1_555
O13 Cu1 1_555 1_555
H37 O13 1_555 1_555
H38 O13 1_555 1_555
O14 Cu2 1_555 1_555
H39 O14 1_555 1_555
H40 O14 1_555 1_555
O15 H41 1_555 1_555
H42 O15 1_555 1_555
O16 H43 1_555 1_555
H44 O16 1_555 1_555
O17 H45 1_555 1_555
H46 O17 1_555 1_555
O18 H47 1_555 1_555
H48 O18 1_555 1_555
H49 N6 1_555 1_555
H50 N8 1_555 1_555
Cu1A N1A 1_555 1_555
Cu1_2 O8 1_555 1_555
Cu1A_2 O8A 1_555 1_555
Cu2A N3A 1_555 1_555
Cu2_2 O10 1_555 1_555
Cu2A_2 O10A 1_555 1_555
S1A C3A 1_555 1_555
S2A C9A 1_555 1_555
S3A C15A 1_555 1_555
N1A C22A 1_555 1_555
N2A Cu1A 1_555 1_555
N3A C34A 1_555 1_555
N4A Cu2A 1_555 1_555
N5A Cu1A 1_555 1_555
N6A C46A 1_555 1_555
N7A Cu2A 1_555 1_555
N8A C49A 1_555 1_555
C1A C2A 1_555 1_555
C2A H1A 1_555 1_555
C3A C2A 1_555 1_555
C4A C3A 1_555 1_555
H2A C4A 1_555 1_555
C5A C4A 1_555 1_555
C6A C5A 1_555 1_555
H3A C6A 1_555 1_555
H4A C6A 1_555 1_555
C7A C6A 1_555 1_555
C8A C7A 1_555 1_555
H5A C8A 1_555 1_555
C9A C8A 1_555 1_555
C10A C9A 1_555 1_555
H6A C10A 1_555 1_555
C11A C10A 1_555 1_555
C12A C11A 1_555 1_555
H7A C12A 1_555 1_555
H8A C12A 1_555 1_555
C13A C12A 1_555 1_555
C14A C13A 1_555 1_555
H9A C14A 1_555 1_555
C15A C14A 1_555 1_555
C16A C15A 1_555 1_555
H10A C16A 1_555 1_555
C17A C18 1_555 1_555
C18A C17 1_555 1_555
H11A C18A 1_555 1_555
H12A C18A 1_555 1_555
C19A C1A 1_555 1_555
C20A C7A 1_555 1_555
C21A C13A 1_555 1_555
C22A H13A 1_555 1_555
C23A C22A 1_555 1_555
H14A C23A 1_555 1_555
C24A C23A 1_555 1_555
H15A C24A 1_555 1_555
C25A H16A 1_555 1_555
C26A C25A 1_555 1_555
H17A C26A 1_555 1_555
C27A H18A 1_555 1_555
C28A C27A 1_555 1_555
H19A C28A 1_555 1_555
C29A N2A 1_555 1_555
H20A C29A 1_555 1_555
C30A N2A 1_555 1_555
C31A C26A 1_555 1_555
C32A C24A 1_555 1_555
C33A N1A 1_555 1_555
C34A H21A 1_555 1_555
C35A C34A 1_555 1_555
H22A C35A 1_555 1_555
C36A C35A 1_555 1_555
H23A C36A 1_555 1_555
C37A H24A 1_555 1_555
C38A H25A 1_555 1_555
C39A C38A 1_555 1_555
H26A C39A 1_555 1_555
C40A N4A 1_555 1_555
H27A C40A 1_555 1_555
C41A N4A 1_555 1_555
C42A C38A 1_555 1_555
C43A C36A 1_555 1_555
C44A N3A 1_555 1_555
C45A C37A 1_555 1_555
H28A C45A 1_555 1_555
C46A N5A 1_555 1_555
H29A C46A 1_555 1_555
C47A N6A 1_555 1_555
H30A C47A 1_555 1_555
C48A N5A 1_555 1_555
H31A C48A 1_555 1_555
C49A N7A 1_555 1_555
H32A C49A 1_555 1_555
C50A N8A 1_555 1_555
H33A C50A 1_555 1_555
C51A N7A 1_555 1_555
H34A C51A 1_555 1_555
O1A C19A 1_555 1_555
O2A C20A 1_555 1_555
H35A O2A 1_555 1_555
O3A C21A 1_555 1_555
H36A O3A 1_555 1_555
O4A Cu1A 1_555 1_555
O5A S1A 1_555 1_555
O6A Cu2A 1_555 1_555
O7A S2A 1_555 1_555
O8A S2A 1_555 1_555
O8_2 Cu1 1_555 1_555
O8A_2 Cu1A 1_555 1_555
O9A S2A 1_555 1_555
O10A S3A 1_555 1_555
O10_2 Cu2 1_555 1_555
O10A_2 Cu2A 1_555 1_555
O11A S3A 1_555 1_555
O12A S3A 1_555 1_555
O13A Cu1A 1_555 1_555
H37A O13A 1_555 1_555
H38A O13A 1_555 1_555
O14A Cu2A 1_555 1_555
H39A O14A 1_555 1_555
H40A O14A 1_555 1_555
H49A N6A 1_555 1_555
H50A N8A 1_555 1_555
S1 O4 1_555 1_555
S1 O6 1_555 1_555
C5 C19 1_555 1_555
C11 C20 1_555 1_555
C17 C21 1_555 1_555
C25 C32 1_555 1_555
C27 C31 1_555 1_555
C28 C29 1_555 1_555
C30 C31 1_555 1_555
C30 C33 1_555 1_555
C32 C33 1_555 1_555
C37 C43 1_555 1_555
C39 C40 1_555 1_555
C41 C42 1_555 1_555
C41 C44 1_555 1_555
C42 C45 1_555 1_555
C43 C44 1_555 1_555
C47 C48 1_555 1_555
C50 C51 1_555 1_555
S1A O4A 1_555 1_555
S1A O6A 1_555 1_555
C1A C18A 1_555 1_555
C5A C19A 1_555 1_555
C11A C20A 1_555 1_555
C16A C17A 1_555 1_555
C17A C21A 1_555 1_555
C25A C32A 1_555 1_555
C27A C31A 1_555 1_555
C28A C29A 1_555 1_555
C30A C31A 1_555 1_555
C30A C33A 1_555 1_555
C32A C33A 1_555 1_555
C37A C43A 1_555 1_555
C39A C40A 1_555 1_555
C41A C42A 1_555 1_555
C41A C44A 1_555 1_555
C42A C45A 1_555 1_555
C43A C44A 1_555 1_555
C47A C48A 1_555 1_555
C50A C51A 1_555 1_555

#END
