
#######################################################################
#
#                 Cambridge Crystallographic Data Centre
#                                CCDC 
#
#######################################################################
#
# If this CIF has been generated from an entry in the Cambridge 
# Structural Database, then it will include bibliographic, chemical, 
# crystal, experimental, refinement or atomic coordinate data resulting 
# from the CCDC's data processing and validation procedures.
#
#######################################################################

data_CUNYOA
_symmetry_cell_setting           triclinic
_symmetry_space_group_name_H-M   'P -1'
_symmetry_Int_Tables_number      2
_space_group_name_Hall           '-P 1'
loop_
_symmetry_equiv_pos_site_id
_symmetry_equiv_pos_as_xyz
1 x,y,z
2 -x,-y,-z
_cell_length_a                   12.8498(5)
_cell_length_b                   13.3198(5)
_cell_length_c                   17.2996(7)
_cell_angle_alpha                82.7620(10)
_cell_angle_beta                 82.3900(10)
_cell_angle_gamma                84.6260(10)
_cell_volume                     2902.54
loop_
_atom_site_label
_atom_site_type_symbol
_atom_site_fract_x
_atom_site_fract_y
_atom_site_fract_z
Cu1 Cu 0.41051(3) 0.46549(3) 0.79709(2)
Cu2 Cu 0.40983(3) -0.00767(3) 0.24071(2)
S1 S 0.46336(6) 0.26115(5) 0.68623(4)
S2 S 0.32726(6) 0.27051(5) 0.23113(4)
S3 S -0.12353(8) 0.21338(7) 0.07875(6)
N1 N 0.3700(2) 0.52585(18) 0.69078(14)
N2 N 0.2557(2) 0.43952(19) 0.81632(14)
N3 N 0.32141(19) -0.00328(17) 0.34554(14)
N4 N 0.50936(19) 0.06248(17) 0.29400(14)
N5 N 0.4417(2) 0.41470(18) 0.90421(14)
N6 N 0.4450(3) 0.3891(2) 1.03034(18)
N7 N 0.3001(2) -0.06673(19) 0.19421(14)
N8 N 0.1801(3) -0.0828(3) 0.1186(2)
N9 N 0.5068(2) -0.00857(19) 0.14194(14)
N10 N 0.6354(3) -0.0527(3) 0.05535(18)
C1 C 0.1573(2) 0.2081(2) 0.71161(16)
C2 C 0.2609(2) 0.2106(2) 0.72347(17)
H1 H 0.2850 0.1754 0.7698
C3 C 0.3307(2) 0.2637(2) 0.66873(16)
C4 C 0.2971(2) 0.3138(2) 0.60017(16)
H2 H 0.3451 0.3504 0.5631
C5 C 0.1942(2) 0.3110(2) 0.58510(16)
C6 C 0.1581(2) 0.3669(2) 0.50976(16)
H3 H 0.2046 0.4224 0.4913
H4 H 0.0862 0.3988 0.5229
C7 C 0.1559(2) 0.3048(2) 0.44130(16)
C8 C 0.2364(2) 0.3088(2) 0.37889(16)
H5 H 0.2956 0.3456 0.3811
C9 C 0.2313(2) 0.2598(2) 0.31382(16)
C10 C 0.1440(2) 0.2067(2) 0.30902(16)
H6 H 0.1406 0.1742 0.2637
C11 C 0.0635(2) 0.2013(2) 0.36934(16)
C12 C -0.0334(2) 0.1455(2) 0.36916(18)
H7 H -0.0959 0.1922 0.3829
H8 H -0.0331 0.0882 0.4115
C13 C -0.0478(2) 0.1039(2) 0.29417(17)
C14 C -0.0702(2) 0.1690(2) 0.22827(18)
H9 H -0.0691 0.2402 0.2283
C15 C -0.0942(3) 0.1306(2) 0.16232(18)
C16 C -0.0997(3) 0.0265(2) 0.16353(18)
H10 H -0.1198 0.0011 0.1193
C17 C -0.0764(2) -0.0408(2) 0.22795(17)
C18 C 0.0798(2) 0.1542(2) 0.77372(17)
H11 H 0.0970 0.1652 0.8260
H12 H 0.0084 0.1870 0.7683
C19 C 0.1229(2) 0.2587(2) 0.64116(16)
C20 C 0.0705(2) 0.2496(2) 0.43646(16)
C21 C -0.0471(2) -0.0010(2) 0.29272(16)
C22 C 0.4292(3) 0.5626(2) 0.62745(19)
H13 H 0.5029 0.5617 0.6288
C23 C 0.3880(3) 0.6030(3) 0.5580(2)
H14 H 0.4334 0.6272 0.5130
C24 C 0.2829(3) 0.6072(2) 0.5558(2)
H15 H 0.2539 0.6355 0.5094
C25 C 0.1057(3) 0.5684(3) 0.6242(2)
H16 H 0.0724 0.5980 0.5799
C26 C 0.0469(3) 0.5256(3) 0.6886(2)
H17 H -0.0271 0.5261 0.6889
C27 C 0.0402(3) 0.4280(3) 0.8226(2)
H18 H -0.0339 0.4251 0.8261
C28 C 0.0930(3) 0.3820(3) 0.8821(2)
H19 H 0.0565 0.3455 0.9266
C29 C 0.2018(3) 0.3887(2) 0.87729(19)
H20 H 0.2382 0.3559 0.9190
C30 C 0.2030(3) 0.4820(2) 0.75565(18)
C31 C 0.0944(3) 0.4796(3) 0.7561(2)
C32 C 0.2168(3) 0.5697(2) 0.6219(2)
C33 C 0.2647(3) 0.5284(2) 0.68833(18)
C34 C 0.2302(2) -0.0411(2) 0.37036(18)
H21 H 0.1979 -0.0743 0.3353
C35 C 0.1790(3) -0.0344(3) 0.44617(18)
H22 H 0.1138 -0.0636 0.4625
C36 C 0.2235(3) 0.0144(2) 0.49629(18)
H23 H 0.1883 0.0214 0.5474
C37 C 0.3770(3) 0.1033(2) 0.52154(18)
H24 H 0.3463 0.1116 0.5736
C38 C 0.4716(3) 0.1379(2) 0.49574(19)
H25 H 0.5062 0.1708 0.5296
C39 C 0.6227(3) 0.1557(2) 0.3871(2)
H26 H 0.6622 0.1882 0.4181
C40 C 0.6634(3) 0.1379(3) 0.3131(2)
H27 H 0.7318 0.1573 0.2923
C41 C 0.6052(3) 0.0912(2) 0.2677(2)
H28 H 0.6349 0.0794 0.2161
C42 C 0.4682(2) 0.0795(2) 0.36810(17)
C43 C 0.5216(3) 0.1259(2) 0.41771(19)
C44 C 0.3210(2) 0.0544(2) 0.47287(17)
C45 C 0.3672(2) 0.0433(2) 0.39614(16)
C46 C 0.3939(3) 0.4369(3) 0.97202(19)
H29 H 0.3316 0.4809 0.9790
C47 C 0.5275(3) 0.3508(2) 0.9204(2)
H30 H 0.5776 0.3221 0.8822
C48 C 0.5309(3) 0.3345(3) 0.9984(2)
H31 H 0.5824 0.2935 1.0253
C49 C 0.2925(3) -0.1666(3) 0.1894(2)
H32 H 0.3330 -0.2209 0.2152
C50 C 0.2205(3) -0.1774(3) 0.1435(2)
H33 H 0.2008 -0.2396 0.1304
C51 C 0.2294(3) -0.0175(3) 0.15017(19)
H34 H 0.2161 0.0542 0.1424
C52 C 0.5711(3) -0.0841(3) 0.11909(19)
H35 H 0.5718 -0.1517 0.1443
C53 C 0.6098(3) 0.0469(3) 0.0351(2)
H36 H 0.6418 0.0891 -0.0083
C54 C 0.5301(3) 0.0743(3) 0.0885(2)
H37 H 0.4953 0.1403 0.0893
O1 O 0.02299(16) 0.25426(15) 0.62947(11)
O2 O -0.01314(16) 0.24190(15) 0.49263(11)
H38 H 0.0061 0.2468 0.5365
O3 O -0.01779(17) -0.06060(16) 0.35646(11)
H39 H -0.0243 -0.1216 0.3516
O4 O 0.46419(16) 0.30727(15) 0.75842(11)
O5 O 0.50209(17) 0.15513(15) 0.69607(13)
O6 O 0.51765(17) 0.31800(17) 0.61795(12)
O7 O 0.42408(16) 0.29369(16) 0.25838(13)
O8 O 0.28827(17) 0.35432(15) 0.17644(12)
O9 O 0.33729(16) 0.17432(15) 0.19796(12)
O10 O -0.0801(2) 0.3088(2) 0.08588(16)
O11 O -0.2363(2) 0.2242(2) 0.08028(17)
O12 O -0.0704(3) 0.1654(2) 0.01090(16)
O13 O 0.55996(17) 0.49998(16) 0.76975(12)
H40 H 0.5705 0.5627 0.7619
H41 H 0.5967 0.4789 0.7296
O14 O 0.3790(2) 0.64437(19) 0.83108(15)
H42 H 0.3325 0.6761 0.8606
H43 H 0.4234 0.6832 0.8052
H44 H 0.416(4) 0.397(3) 1.077(3)
H45 H 0.133(5) -0.073(4) 0.083(3)
H46 H 0.680(3) -0.094(3) 0.032(2)
Cu1A Cu -0.41051(3) -0.46549(3) 0.20291(2)
Cu2A Cu -0.40983(3) 0.00767(3) 0.75929(2)
Cu2A_2 Cu 0.59017(3) 0.00767(3) 0.75929(2)
Cu2_2 Cu -0.59017(3) -0.00767(3) 0.24071(2)
S1A S -0.46336(6) -0.26115(5) 0.31377(4)
S2A S -0.32726(6) -0.27051(5) 0.76887(4)
S3A S 0.12353(8) -0.21338(7) 0.92125(6)
N1A N -0.3700(2) -0.52585(18) 0.30922(14)
N2A N -0.2557(2) -0.43952(19) 0.18368(14)
N3A N -0.32141(19) 0.00328(17) 0.65446(14)
N4A N -0.50936(19) -0.06248(17) 0.70600(14)
N5A N -0.4417(2) -0.41470(18) 0.09579(14)
N6A N -0.4450(3) -0.3891(2) -0.03034(18)
N7A N -0.3001(2) 0.06673(19) 0.80579(14)
N8A N -0.1801(3) 0.0828(3) 0.8814(2)
N9A N -0.5068(2) 0.00857(19) 0.85806(14)
N10A N -0.6354(3) 0.0527(3) 0.94465(18)
C1A C -0.1573(2) -0.2081(2) 0.28839(16)
C2A C -0.2609(2) -0.2106(2) 0.27653(17)
H1A H -0.2850 -0.1754 0.2302
C3A C -0.3307(2) -0.2637(2) 0.33127(16)
C4A C -0.2971(2) -0.3138(2) 0.39983(16)
H2A H -0.3451 -0.3504 0.4369
C5A C -0.1942(2) -0.3110(2) 0.41490(16)
C6A C -0.1581(2) -0.3669(2) 0.49024(16)
H3A H -0.2046 -0.4224 0.5087
H4A H -0.0862 -0.3988 0.4771
C7A C -0.1559(2) -0.3048(2) 0.55870(16)
C8A C -0.2364(2) -0.3088(2) 0.62111(16)
H5A H -0.2956 -0.3456 0.6189
C9A C -0.2313(2) -0.2598(2) 0.68618(16)
C10A C -0.1440(2) -0.2067(2) 0.69098(16)
H6A H -0.1406 -0.1742 0.7363
C11A C -0.0635(2) -0.2013(2) 0.63066(16)
C12A C 0.0334(2) -0.1455(2) 0.63084(18)
H7A H 0.0959 -0.1922 0.6171
H8A H 0.0331 -0.0882 0.5885
C13A C 0.0478(2) -0.1039(2) 0.70583(17)
C14A C 0.0702(2) -0.1690(2) 0.77173(18)
H9A H 0.0691 -0.2402 0.7717
C15A C 0.0942(3) -0.1306(2) 0.83768(18)
C16A C 0.0997(3) -0.0265(2) 0.83647(18)
H10A H 0.1198 -0.0011 0.8807
C17A C 0.0764(2) 0.0408(2) 0.77205(17)
C18A C -0.0798(2) -0.1542(2) 0.22628(17)
H11A H -0.0970 -0.1652 0.1740
H12A H -0.0084 -0.1870 0.2317
C19A C -0.1229(2) -0.2587(2) 0.35884(16)
C20A C -0.0705(2) -0.2496(2) 0.56354(16)
C21A C 0.0471(2) 0.0010(2) 0.70728(16)
C22A C -0.4292(3) -0.5626(2) 0.37255(19)
H13A H -0.5029 -0.5617 0.3712
C23A C -0.3880(3) -0.6030(3) 0.4420(2)
H14A H -0.4334 -0.6272 0.4870
C24A C -0.2829(3) -0.6072(2) 0.4442(2)
H15A H -0.2539 -0.6355 0.4906
C25A C -0.1057(3) -0.5684(3) 0.3758(2)
H16A H -0.0724 -0.5980 0.4201
C26A C -0.0469(3) -0.5256(3) 0.3114(2)
H17A H 0.0271 -0.5261 0.3111
C27A C -0.0402(3) -0.4280(3) 0.1774(2)
H18A H 0.0339 -0.4251 0.1739
C28A C -0.0930(3) -0.3820(3) 0.1179(2)
H19A H -0.0565 -0.3455 0.0734
C29A C -0.2018(3) -0.3887(2) 0.12271(19)
H20A H -0.2382 -0.3559 0.0810
C30A C -0.2030(3) -0.4820(2) 0.24435(18)
C31A C -0.0944(3) -0.4796(3) 0.2439(2)
C32A C -0.2168(3) -0.5697(2) 0.3781(2)
C33A C -0.2647(3) -0.5284(2) 0.31167(18)
C34A C -0.2302(2) 0.0411(2) 0.62964(18)
H21A H -0.1979 0.0743 0.6647
C35A C -0.1790(3) 0.0344(3) 0.55383(18)
H22A H -0.1138 0.0636 0.5375
C36A C -0.2235(3) -0.0144(2) 0.50371(18)
H23A H -0.1883 -0.0214 0.4526
C37A C -0.3770(3) -0.1033(2) 0.47846(18)
H24A H -0.3463 -0.1116 0.4264
C38A C -0.4716(3) -0.1379(2) 0.50426(19)
H25A H -0.5062 -0.1708 0.4704
C39A C -0.6227(3) -0.1557(2) 0.6129(2)
H26A H -0.6622 -0.1882 0.5819
C40A C -0.6634(3) -0.1379(3) 0.6869(2)
H27A H -0.7318 -0.1573 0.7077
C41A C -0.6052(3) -0.0912(2) 0.7323(2)
H28A H -0.6349 -0.0794 0.7839
C42A C -0.4682(2) -0.0795(2) 0.63190(17)
C43A C -0.5216(3) -0.1259(2) 0.58229(19)
C44A C -0.3210(2) -0.0544(2) 0.52713(17)
C45A C -0.3672(2) -0.0433(2) 0.60386(16)
C46A C -0.3939(3) -0.4369(3) 0.02798(19)
H29A H -0.3316 -0.4809 0.0210
C47A C -0.5275(3) -0.3508(2) 0.0796(2)
H30A H -0.5776 -0.3221 0.1178
C48A C -0.5309(3) -0.3345(3) 0.0016(2)
H31A H -0.5824 -0.2935 -0.0253
C49A C -0.2925(3) 0.1666(3) 0.8106(2)
H32A H -0.3330 0.2209 0.7848
C50A C -0.2205(3) 0.1774(3) 0.8565(2)
H33A H -0.2008 0.2396 0.8696
C51A C -0.2294(3) 0.0175(3) 0.84983(19)
H34A H -0.2161 -0.0542 0.8576
C52A C -0.5711(3) 0.0841(3) 0.88091(19)
H35A H -0.5718 0.1517 0.8557
C53A C -0.6098(3) -0.0469(3) 0.9649(2)
H36A H -0.6418 -0.0891 1.0083
C54A C -0.5301(3) -0.0743(3) 0.9115(2)
H37A H -0.4953 -0.1403 0.9107
O1A O -0.02299(16) -0.25426(15) 0.37053(11)
O2A O 0.01314(16) -0.24190(15) 0.50737(11)
H38A H -0.0061 -0.2468 0.4635
O3A O 0.01779(17) 0.06060(16) 0.64354(11)
H39A H 0.0243 0.1216 0.6484
O4A O -0.46419(16) -0.30727(15) 0.24158(11)
O5A O -0.50209(17) -0.15513(15) 0.30393(13)
O5A_2 O 0.49791(17) -0.15513(15) 0.30393(13)
O5_2 O -0.49791(17) 0.15513(15) 0.69607(13)
O6A O -0.51765(17) -0.31800(17) 0.38205(12)
O7A O -0.42408(16) -0.29369(16) 0.74162(13)
O8A O -0.28827(17) -0.35432(15) 0.82356(12)
O9A O -0.33729(16) -0.17432(15) 0.80204(12)
O10A O 0.0801(2) -0.3088(2) 0.91412(16)
O11A O 0.2363(2) -0.2242(2) 0.91972(17)
O12A O 0.0704(3) -0.1654(2) 0.98910(16)
O13A O -0.55996(17) -0.49998(16) 0.23025(12)
H40A H -0.5705 -0.5627 0.2381
H41A H -0.5967 -0.4789 0.2704
O14A O -0.3790(2) -0.64437(19) 0.16892(15)
H42A H -0.3325 -0.6761 0.1394
H43A H -0.4234 -0.6832 0.1948
H44A H -0.416(4) -0.397(3) -0.077(3)
H45A H -0.133(5) 0.073(4) 0.917(3)
H46A H -0.680(3) 0.094(3) 0.968(2)
O15 O 0.66574(19) 0.44501(18) 0.63773(14)
H47 H 0.6247 0.4018 0.6300
H48 H 0.7231 0.4101 0.6451
O16 O 0.8352(2) 0.45416(18) 0.97493(14)
H49 H 0.8599 0.4252 1.0160
H50 H 0.8544 0.5143 0.9691
O17 O 0.1311(2) 0.3417(2) 0.07763(17)
H51 H 0.0668 0.3326 0.0932
H52 H 0.1783 0.3352 0.1084
O18 O 0.8482(2) 0.3675(3) 0.68329(18)
H53 H 0.9097 0.3434 0.6672
H54 H 0.8361 0.3767 0.7315
O19 O 0.7737(2) 0.4126(2) 0.83768(17)
H55 H 0.7893 0.4319 0.8795
H56 H 0.7209 0.4556 0.8341
O20 O 0.8307(4) -0.1590(3) 1.0027(2)
O21 O 0.7349(6) -0.2062(6) 0.9548(5)
O22? O 0.9024(11) -0.0765(10) 0.9968(8)
loop_
_geom_bond_atom_site_label_1
_geom_bond_atom_site_label_2
_geom_bond_site_symmetry_1
_geom_bond_site_symmetry_2
Cu1 N1 1_555 1_555
Cu2 N3 1_555 1_555
S1 C3 1_555 1_555
S2 C9 1_555 1_555
S3 C15 1_555 1_555
N1 C22 1_555 1_555
N2 Cu1 1_555 1_555
N3 C34 1_555 1_555
N4 Cu2 1_555 1_555
N5 Cu1 1_555 1_555
N6 C46 1_555 1_555
N7 Cu2 1_555 1_555
N8 C50 1_555 1_555
N9 Cu2 1_555 1_555
N10 C52 1_555 1_555
C1 C2 1_555 1_555
C2 H1 1_555 1_555
C3 C2 1_555 1_555
C4 C3 1_555 1_555
H2 C4 1_555 1_555
C5 C4 1_555 1_555
C6 C5 1_555 1_555
H3 C6 1_555 1_555
H4 C6 1_555 1_555
C7 C6 1_555 1_555
C8 C7 1_555 1_555
H5 C8 1_555 1_555
C9 C8 1_555 1_555
C10 C9 1_555 1_555
H6 C10 1_555 1_555
C11 C10 1_555 1_555
C12 C11 1_555 1_555
H7 C12 1_555 1_555
H8 C12 1_555 1_555
C13 C12 1_555 1_555
C14 C13 1_555 1_555
H9 C14 1_555 1_555
C15 C14 1_555 1_555
C16 C15 1_555 1_555
H10 C16 1_555 1_555
C17 C16 1_555 1_555
C18 C1 1_555 1_555
H11 C18 1_555 1_555
H12 C18 1_555 1_555
C19 C1 1_555 1_555
C20 C7 1_555 1_555
C21 C13 1_555 1_555
C22 H13 1_555 1_555
C23 C22 1_555 1_555
H14 C23 1_555 1_555
C24 C23 1_555 1_555
H15 C24 1_555 1_555
C25 H16 1_555 1_555
C26 C25 1_555 1_555
H17 C26 1_555 1_555
C27 H18 1_555 1_555
C28 C27 1_555 1_555
H19 C28 1_555 1_555
C29 N2 1_555 1_555
H20 C29 1_555 1_555
C30 N2 1_555 1_555
C31 C26 1_555 1_555
C32 C24 1_555 1_555
C33 N1 1_555 1_555
C34 H21 1_555 1_555
C35 C34 1_555 1_555
H22 C35 1_555 1_555
C36 C35 1_555 1_555
H23 C36 1_555 1_555
C37 H24 1_555 1_555
C38 C37 1_555 1_555
H25 C38 1_555 1_555
C39 H26 1_555 1_555
C40 C39 1_555 1_555
H27 C40 1_555 1_555
C41 N4 1_555 1_555
H28 C41 1_555 1_555
C42 N4 1_555 1_555
C43 C38 1_555 1_555
C44 C36 1_555 1_555
C45 N3 1_555 1_555
C46 N5 1_555 1_555
H29 C46 1_555 1_555
C47 N5 1_555 1_555
H30 C47 1_555 1_555
C48 N6 1_555 1_555
H31 C48 1_555 1_555
C49 N7 1_555 1_555
H32 C49 1_555 1_555
C50 C49 1_555 1_555
H33 C50 1_555 1_555
C51 N7 1_555 1_555
H34 C51 1_555 1_555
C52 N9 1_555 1_555
H35 C52 1_555 1_555
C53 N10 1_555 1_555
H36 C53 1_555 1_555
C54 N9 1_555 1_555
H37 C54 1_555 1_555
O1 C19 1_555 1_555
O2 C20 1_555 1_555
H38 O2 1_555 1_555
O3 C21 1_555 1_555
H39 O3 1_555 1_555
O4 Cu1 1_555 1_555
O5 S1 1_555 1_555
O6 S1 1_555 1_555
O7 S2 1_555 1_555
O8 S2 1_555 1_555
O9 Cu2 1_555 1_555
O10 S3 1_555 1_555
O11 S3 1_555 1_555
O12 S3 1_555 1_555
O13 Cu1 1_555 1_555
H40 O13 1_555 1_555
H41 O13 1_555 1_555
O14 Cu1 1_555 1_555
H42 O14 1_555 1_555
H43 O14 1_555 1_555
H44 N6 1_555 1_555
H45 N8 1_555 1_555
H46 N10 1_555 1_555
O15 H47 1_555 1_555
H48 O15 1_555 1_555
O16 H49 1_555 1_555
H50 O16 1_555 1_555
O17 H51 1_555 1_555
H52 O17 1_555 1_555
O18 H53 1_555 1_555
H54 O18 1_555 1_555
O19 H55 1_555 1_555
H56 O19 1_555 1_555
Cu1A N1A 1_555 1_555
Cu2A N3A 1_555 1_555
Cu2A_2 O5 1_555 1_555
Cu2_2 O5A 1_555 1_555
S1A C3A 1_555 1_555
S2A C9A 1_555 1_555
S3A C15A 1_555 1_555
N1A C22A 1_555 1_555
N2A Cu1A 1_555 1_555
N3A C34A 1_555 1_555
N4A Cu2A 1_555 1_555
N5A Cu1A 1_555 1_555
N6A C46A 1_555 1_555
N7A Cu2A 1_555 1_555
N8A C50A 1_555 1_555
N9A Cu2A 1_555 1_555
N10A C52A 1_555 1_555
C1A C2A 1_555 1_555
C2A H1A 1_555 1_555
C3A C2A 1_555 1_555
C4A C3A 1_555 1_555
H2A C4A 1_555 1_555
C5A C4A 1_555 1_555
C6A C5A 1_555 1_555
H3A C6A 1_555 1_555
H4A C6A 1_555 1_555
C7A C6A 1_555 1_555
C8A C7A 1_555 1_555
H5A C8A 1_555 1_555
C9A C8A 1_555 1_555
C10A C9A 1_555 1_555
H6A C10A 1_555 1_555
C11A C10A 1_555 1_555
C12A C11A 1_555 1_555
H7A C12A 1_555 1_555
H8A C12A 1_555 1_555
C13A C12A 1_555 1_555
C14A C13A 1_555 1_555
H9A C14A 1_555 1_555
C15A C14A 1_555 1_555
C16A C15A 1_555 1_555
H10A C16A 1_555 1_555
C17A C18 1_555 1_555
C18A C17 1_555 1_555
H11A C18A 1_555 1_555
H12A C18A 1_555 1_555
C19A C1A 1_555 1_555
C20A C7A 1_555 1_555
C21A C13A 1_555 1_555
C22A H13A 1_555 1_555
C23A C22A 1_555 1_555
H14A C23A 1_555 1_555
C24A C23A 1_555 1_555
H15A C24A 1_555 1_555
C25A H16A 1_555 1_555
C26A C25A 1_555 1_555
H17A C26A 1_555 1_555
C27A H18A 1_555 1_555
C28A C27A 1_555 1_555
H19A C28A 1_555 1_555
C29A N2A 1_555 1_555
H20A C29A 1_555 1_555
C30A N2A 1_555 1_555
C31A C26A 1_555 1_555
C32A C24A 1_555 1_555
C33A N1A 1_555 1_555
C34A H21A 1_555 1_555
C35A C34A 1_555 1_555
H22A C35A 1_555 1_555
C36A C35A 1_555 1_555
H23A C36A 1_555 1_555
C37A H24A 1_555 1_555
C38A C37A 1_555 1_555
H25A C38A 1_555 1_555
C39A H26A 1_555 1_555
C40A C39A 1_555 1_555
H27A C40A 1_555 1_555
C41A N4A 1_555 1_555
H28A C41A 1_555 1_555
C42A N4A 1_555 1_555
C43A C38A 1_555 1_555
C44A C36A 1_555 1_555
C45A N3A 1_555 1_555
C46A N5A 1_555 1_555
H29A C46A 1_555 1_555
C47A N5A 1_555 1_555
H30A C47A 1_555 1_555
C48A N6A 1_555 1_555
H31A C48A 1_555 1_555
C49A N7A 1_555 1_555
H32A C49A 1_555 1_555
C50A C49A 1_555 1_555
H33A C50A 1_555 1_555
C51A N7A 1_555 1_555
H34A C51A 1_555 1_555
C52A N9A 1_555 1_555
H35A C52A 1_555 1_555
C53A N10A 1_555 1_555
H36A C53A 1_555 1_555
C54A N9A 1_555 1_555
H37A C54A 1_555 1_555
O1A C19A 1_555 1_555
O2A C20A 1_555 1_555
H38A O2A 1_555 1_555
O3A C21A 1_555 1_555
H39A O3A 1_555 1_555
O4A Cu1A 1_555 1_555
O5A S1A 1_555 1_555
O5A_2 Cu2 1_555 1_555
O5_2 Cu2A 1_555 1_555
O6A S1A 1_555 1_555
O7A S2A 1_555 1_555
O8A S2A 1_555 1_555
O9A Cu2A 1_555 1_555
O10A S3A 1_555 1_555
O11A S3A 1_555 1_555
O12A S3A 1_555 1_555
O13A Cu1A 1_555 1_555
H40A O13A 1_555 1_555
H41A O13A 1_555 1_555
O14A Cu1A 1_555 1_555
H42A O14A 1_555 1_555
H43A O14A 1_555 1_555
H44A N6A 1_555 1_555
H45A N8A 1_555 1_555
H46A N10A 1_555 1_555
S1 O4 1_555 1_555
S2 O9 1_555 1_555
N8 C51 1_555 1_555
C5 C19 1_555 1_555
C11 C20 1_555 1_555
C17 C21 1_555 1_555
C25 C32 1_555 1_555
C27 C31 1_555 1_555
C28 C29 1_555 1_555
C30 C31 1_555 1_555
C30 C33 1_555 1_555
C32 C33 1_555 1_555
C37 C44 1_555 1_555
C39 C43 1_555 1_555
C40 C41 1_555 1_555
C42 C43 1_555 1_555
C42 C45 1_555 1_555
C44 C45 1_555 1_555
C47 C48 1_555 1_555
C53 C54 1_555 1_555
S1A O4A 1_555 1_555
S2A O9A 1_555 1_555
N8A C51A 1_555 1_555
C1A C18A 1_555 1_555
C5A C19A 1_555 1_555
C11A C20A 1_555 1_555
C16A C17A 1_555 1_555
C17A C21A 1_555 1_555
C25A C32A 1_555 1_555
C27A C31A 1_555 1_555
C28A C29A 1_555 1_555
C30A C31A 1_555 1_555
C30A C33A 1_555 1_555
C32A C33A 1_555 1_555
C37A C44A 1_555 1_555
C39A C43A 1_555 1_555
C40A C41A 1_555 1_555
C42A C43A 1_555 1_555
C42A C45A 1_555 1_555
C44A C45A 1_555 1_555
C47A C48A 1_555 1_555
C53A C54A 1_555 1_555

#END
