
#######################################################################
#
#                 Cambridge Crystallographic Data Centre
#                                CCDC 
#
#######################################################################
#
# If this CIF has been generated from an entry in the Cambridge 
# Structural Database, then it will include bibliographic, chemical, 
# crystal, experimental, refinement or atomic coordinate data resulting 
# from the CCDC's data processing and validation procedures.
#
#######################################################################

data_CUNZAN
_symmetry_cell_setting           triclinic
_symmetry_space_group_name_H-M   'P -1'
_symmetry_Int_Tables_number      2
_space_group_name_Hall           '-P 1'
loop_
_symmetry_equiv_pos_site_id
_symmetry_equiv_pos_as_xyz
1 x,y,z
2 -x,-y,-z
_cell_length_a                   12.1579(4)
_cell_length_b                   15.4571(5)
_cell_length_c                   20.2944(7)
_cell_angle_alpha                99.6400(10)
_cell_angle_beta                 94.9160(10)
_cell_angle_gamma                90.0710(10)
_cell_volume                     3745.69
loop_
_atom_site_label
_atom_site_type_symbol
_atom_site_fract_x
_atom_site_fract_y
_atom_site_fract_z
Zn1 Zn 0.85925(4) 0.98977(3) 0.10962(2)
Zn2 Zn 1.33809(4) 1.60366(3) 0.53366(3)
S1 S 1.56936(11) 0.67390(8) 0.15354(6)
S2 S 1.11163(9) 1.07553(7) 0.13387(5)
S3 S 1.39115(8) 1.40012(6) 0.47942(5)
N1 N 0.7989(3) 1.0789(2) 0.04738(17)
N2 N 0.6802(3) 0.9797(2) 0.11460(18)
N3 N 0.8510(3) 1.0790(2) 0.20411(18)
N4 N 0.9026(3) 0.9072(2) 0.18141(17)
N5 N 1.3812(3) 1.7424(2) 0.56322(18)
N6 N 1.3944(3) 1.6106(2) 0.63558(19)
N7 N 1.2711(4) 1.6092(2) 0.4339(2)
N8 N 1.1655(4) 1.6080(3) 0.5455(3)
C1 C 1.5481(4) 0.8251(3) 0.3341(2)
C2 C 1.5886(4) 0.7737(3) 0.2787(2)
H1 H 1.6652 0.7618 0.2787
C3 C 1.5168(4) 0.7397(3) 0.2234(2)
C4 C 1.4051(4) 0.7585(3) 0.2225(2)
H2 H 1.3570 0.7357 0.1841
C5 C 1.3628(4) 0.8102(3) 0.2769(2)
C6 C 1.2399(4) 0.8302(3) 0.2737(2)
H3 H 1.2035 0.7932 0.2331
H4 H 1.2096 0.8118 0.3131
C7 C 1.2078(3) 0.9251(3) 0.2722(2)
C8 C 1.1868(3) 0.9559(3) 0.2121(2)
H5 H 1.1974 0.9183 0.1712
C9 C 1.1505(3) 1.0404(3) 0.2107(2)
C10 C 1.1351(3) 1.0965(3) 0.2707(2)
H6 H 1.1104 1.1546 0.2696
C11 C 1.1556(3) 1.0678(3) 0.3320(2)
C12 C 1.1315(3) 1.1271(3) 0.3961(2)
H7 H 1.0863 1.0928 0.4212
H8 H 1.0848 1.1752 0.3835
C13 C 1.2269(3) 1.1687(3) 0.4442(2)
C14 C 1.2698(3) 1.2499(3) 0.4378(2)
H9 H 1.2474 1.2752 0.3994
C15 C 1.3450(3) 1.2942(3) 0.4871(2)
C16 C 1.3782(3) 1.2583(3) 0.5441(2)
H10 H 1.4268 1.2905 0.5787
C17 C 1.3404(3) 1.1760(3) 0.5502(2)
C18 C 1.6277(4) 0.8704(3) 0.3909(2)
H11 H 1.6965 0.8836 0.3715
H12 H 1.5953 0.9273 0.4089
C19 C 1.4346(4) 0.8413(3) 0.3337(2)
C20 C 1.1910(3) 0.9817(3) 0.3338(2)
C21 C 1.2672(3) 1.1302(3) 0.49888(19)
C22 C 0.8567(4) 1.1233(3) 0.0112(2)
H13 H 0.9340 1.1141 0.0112
C23 C 0.8089(4) 1.1829(3) -0.0268(2)
H14 H 0.8529 1.2123 -0.0530
C24 C 0.6987(4) 1.1988(3) -0.0263(2)
H15 H 0.6656 1.2406 -0.0509
C25 C 0.6338(4) 1.1519(3) 0.0116(2)
C26 C 0.4598(4) 1.1186(3) 0.0523(2)
H16 H 0.3833 1.1294 0.0551
C27 C 0.5187(4) 1.1646(3) 0.0151(2)
H17 H 0.4822 1.2057 -0.0087
C28 C 0.5119(4) 1.0543(3) 0.0873(2)
C29 C 0.4553(4) 1.0044(3) 0.1257(3)
H18 H 0.3788 1.0128 0.1304
C30 C 0.5114(4) 0.9437(3) 0.1562(3)
H19 H 0.4742 0.9091 0.1822
C31 C 0.6237(4) 0.9328(3) 0.1491(2)
H20 H 0.6614 0.8894 0.1700
C32 C 0.6889(4) 1.0917(3) 0.0467(2)
C33 C 0.6256(4) 1.0405(3) 0.0840(2)
C34 C 0.8218(4) 1.1626(3) 0.2140(3)
H21 H 0.8112 1.1918 0.1763
C35 C 0.8062(4) 1.2092(3) 0.2772(3)
H22 H 0.7850 1.2689 0.2824
C36 C 0.8216(4) 1.1683(3) 0.3314(3)
H23 H 0.8115 1.1996 0.3748
C37 C 0.8523(4) 1.0799(3) 0.3235(2)
C38 C 0.8707(4) 1.0317(4) 0.3779(2)
H24 H 0.8600 1.0595 0.4223
C39 C 0.9029(4) 0.9478(4) 0.3670(2)
H25 H 0.9169 0.9178 0.4040
C40 C 0.9167(4) 0.9020(3) 0.3000(2)
C41 C 0.9478(4) 0.8146(3) 0.2861(3)
H26 H 0.9626 0.7823 0.3218
C42 C 0.9572(4) 0.7752(3) 0.2214(3)
H27 H 0.9796 0.7159 0.2113
C43 C 0.9328(4) 0.8245(3) 0.1707(2)
H28 H 0.9382 0.7969 0.1257
C44 C 0.8661(3) 1.0377(3) 0.2580(2)
C45 C 0.8963(3) 0.9465(3) 0.2464(2)
C46 C 1.3782(4) 1.8044(3) 0.5264(2)
H29 H 1.3386 1.7935 0.4834
C47 C 1.4310(4) 1.8863(3) 0.5476(2)
H30 H 1.4264 1.9297 0.5195
C48 C 1.4885(5) 1.9027(3) 0.6087(3)
H31 H 1.5257 1.9576 0.6232
C49 C 1.4935(4) 1.8390(3) 0.6508(2)
C50 C 1.5520(5) 1.8492(4) 0.7153(3)
H32 H 1.5911 1.9026 0.7323
C51 C 1.5538(6) 1.7862(4) 0.7527(3)
H33 H 1.5919 1.7962 0.7962
C52 C 1.4986(5) 1.7028(3) 0.7281(3)
C53 C 1.5010(6) 1.6335(4) 0.7639(3)
H34 H 1.5364 1.6407 0.8081
C54 C 1.4516(6) 1.5538(4) 0.7349(3)
H35 H 1.4534 1.5057 0.7585
C55 C 1.3994(5) 1.5459(3) 0.6704(3)
H36 H 1.3658 1.4911 0.6506
C56 C 1.4427(4) 1.6886(3) 0.6639(2)
C57 C 1.4380(4) 1.7582(3) 0.6249(2)
C58 C 1.3229(6) 1.6079(3) 0.3801(3)
H37 H 1.4012 1.6056 0.3836
C59 C 1.2650(7) 1.6098(4) 0.3156(3)
H38 H 1.3027 1.6088 0.2764
C60 C 1.1499(8) 1.6131(4) 0.3139(5)
H39 H 1.1089 1.6146 0.2721
C61 C 1.0947(7) 1.6143(4) 0.3688(5)
C62 C 0.9717(7) 1.6165(4) 0.3715(5)
H40 H 0.9256 1.6172 0.3314
C63 C 0.9276(8) 1.6174(5) 0.4267(7)
H41 H 0.8495 1.6216 0.4258
C64 C 0.9843(6) 1.6127(4) 0.4858(5)
C65 C 0.9388(7) 1.6087(5) 0.5473(6)
H42 H 0.8608 1.6094 0.5484
C66 C 1.0008(7) 1.6041(5) 0.6028(6)
H43 H 0.9683 1.6010 0.6432
C67 C 1.1159(5) 1.6039(4) 0.6013(4)
H44 H 1.1605 1.6007 0.6416
C68 C 1.1574(5) 1.6132(3) 0.4290(3)
C69 C 1.1025(5) 1.6121(3) 0.4881(4)
O1 O 1.4007(3) 0.88909(19) 0.38988(14)
H45 H 1.3355 0.9052 0.3822
O2 O 1.2080(3) 0.95157(18) 0.39102(14)
O3 O 1.2339(3) 1.04900(18) 0.50567(14)
H46 H 1.2255 1.0171 0.4677
O4 O 1.6803(4) 0.7060(4) 0.1510(2)
O5 O 1.5649(5) 0.5859(3) 0.1650(2)
O6 O 1.4999(4) 0.6865(3) 0.09539(18)
O7 O 1.2085(3) 1.0693(2) 0.09561(15)
O8 O 1.0260(2) 1.0142(2) 0.09827(14)
O9 O 1.0728(3) 1.1646(2) 0.14976(16)
O10 O 1.3250(2) 1.46249(18) 0.52186(16)
O11 O 1.5070(2) 1.40624(18) 0.50675(15)
O12 O 1.3737(3) 1.40813(19) 0.40971(16)
O13 O 0.8579(3) 0.8862(3) 0.02832(17)
H47 H 0.827(5) 0.847(4) 0.030(3)
H48 H 0.838(6) 0.909(5) -0.006(4)
Zn1A Zn 2.14075(4) 1.01023(3) 0.89038(2)
Zn2A Zn 1.66191(4) 0.39634(3) 0.46634(3)
Zn2A_2 Zn 1.66191(4) 1.39634(3) 0.46634(3)
Zn2_2 Zn 1.33809(4) 0.60366(3) 0.53366(3)
S1A S 1.43064(11) 1.32610(8) 0.84646(6)
S2A S 1.88837(9) 0.92447(7) 0.86613(5)
S3A S 1.60885(8) 0.59988(6) 0.52058(5)
N1A N 2.2011(3) 0.9211(2) 0.95262(17)
N2A N 2.3198(3) 1.0203(2) 0.88540(18)
N3A N 2.1490(3) 0.9210(2) 0.79589(18)
N4A N 2.0974(3) 1.0928(2) 0.81859(17)
N5A N 1.6188(3) 0.2576(2) 0.43678(18)
N6A N 1.6056(3) 0.3894(2) 0.36442(19)
N7A N 1.7289(4) 0.3908(2) 0.5661(2)
N8A N 1.8345(4) 0.3920(3) 0.4545(3)
C1A C 1.4519(4) 1.1749(3) 0.6659(2)
C2A C 1.4114(4) 1.2263(3) 0.7213(2)
H1A H 1.3348 1.2382 0.7213
C3A C 1.4832(4) 1.2603(3) 0.7766(2)
C4A C 1.5949(4) 1.2415(3) 0.7775(2)
H2A H 1.6430 1.2643 0.8159
C5A C 1.6372(4) 1.1898(3) 0.7231(2)
C6A C 1.7601(4) 1.1698(3) 0.7263(2)
H3A H 1.7965 1.2068 0.7669
H4A H 1.7904 1.1882 0.6869
C7A C 1.7922(3) 1.0749(3) 0.7278(2)
C8A C 1.8132(3) 1.0441(3) 0.7879(2)
H5A H 1.8026 1.0817 0.8288
C9A C 1.8495(3) 0.9596(3) 0.7893(2)
C10A C 1.8649(3) 0.9035(3) 0.7293(2)
H6A H 1.8896 0.8454 0.7304
C11A C 1.8444(3) 0.9322(3) 0.6680(2)
C12A C 1.8685(3) 0.8729(3) 0.6039(2)
H7A H 1.9137 0.9072 0.5788
H8A H 1.9152 0.8248 0.6165
C13A C 1.7731(3) 0.8313(3) 0.5558(2)
C14A C 1.7302(3) 0.7501(3) 0.5622(2)
H9A H 1.7526 0.7248 0.6006
C15A C 1.6550(3) 0.7058(3) 0.5129(2)
C16A C 1.6218(3) 0.7417(3) 0.4559(2)
H10A H 1.5732 0.7095 0.4213
C17A C 1.6596(3) 0.8240(3) 0.4498(2)
C18A C 1.3723(4) 1.1296(3) 0.6091(2)
H11A H 1.3035 1.1164 0.6285
H12A H 1.4047 1.0727 0.5911
C19A C 1.5654(4) 1.1587(3) 0.6663(2)
C20A C 1.8090(3) 1.0183(3) 0.6662(2)
C21A C 1.7328(3) 0.8698(3) 0.50112(19)
C22A C 2.1433(4) 0.8767(3) 0.9888(2)
H13A H 2.0660 0.8859 0.9888
C23A C 2.1911(4) 0.8171(3) 1.0268(2)
H14A H 2.1471 0.7877 1.0530
C24A C 2.3013(4) 0.8012(3) 1.0263(2)
H15A H 2.3344 0.7594 1.0509
C25A C 2.3662(4) 0.8481(3) 0.9884(2)
C26A C 2.5402(4) 0.8814(3) 0.9477(2)
H16A H 2.6167 0.8706 0.9449
C27A C 2.4813(4) 0.8354(3) 0.9849(2)
H17A H 2.5178 0.7943 1.0087
C28A C 2.4881(4) 0.9457(3) 0.9127(2)
C29A C 2.5447(4) 0.9956(3) 0.8743(3)
H18A H 2.6212 0.9872 0.8696
C30A C 2.4886(4) 1.0563(3) 0.8438(3)
H19A H 2.5258 1.0909 0.8178
C31A C 2.3763(4) 1.0672(3) 0.8509(2)
H20A H 2.3386 1.1106 0.8300
C32A C 2.3111(4) 0.9083(3) 0.9533(2)
C33A C 2.3744(4) 0.9595(3) 0.9160(2)
C34A C 2.1782(4) 0.8374(3) 0.7860(3)
H21A H 2.1888 0.8082 0.8237
C35A C 2.1938(4) 0.7908(3) 0.7228(3)
H22A H 2.2150 0.7311 0.7176
C36A C 2.1784(4) 0.8317(3) 0.6686(3)
H23A H 2.1885 0.8004 0.6252
C37A C 2.1477(4) 0.9201(3) 0.6765(2)
C38A C 2.1293(4) 0.9683(4) 0.6221(2)
H24A H 2.1400 0.9405 0.5777
C39A C 2.0971(4) 1.0522(4) 0.6330(2)
H25A H 2.0831 1.0822 0.5960
C40A C 2.0833(4) 1.0980(3) 0.7000(2)
C41A C 2.0522(4) 1.1854(3) 0.7139(3)
H26A H 2.0374 1.2177 0.6782
C42A C 2.0428(4) 1.2248(3) 0.7786(3)
H27A H 2.0204 1.2841 0.7887
C43A C 2.0672(4) 1.1755(3) 0.8293(2)
H28A H 2.0618 1.2031 0.8743
C44A C 2.1339(3) 0.9623(3) 0.7420(2)
C45A C 2.1037(3) 1.0535(3) 0.7536(2)
C46A C 1.6218(4) 0.1956(3) 0.4736(2)
H29A H 1.6614 0.2065 0.5166
C47A C 1.5690(4) 0.1137(3) 0.4524(2)
H30A H 1.5736 0.0703 0.4805
C48A C 1.5115(5) 0.0973(3) 0.3913(3)
H31A H 1.4743 0.0424 0.3768
C49A C 1.5065(4) 0.1610(3) 0.3492(2)
C50A C 1.4480(5) 0.1508(4) 0.2847(3)
H32A H 1.4089 0.0974 0.2677
C51A C 1.4462(6) 0.2138(4) 0.2473(3)
H33A H 1.4081 0.2038 0.2038
C52A C 1.5014(5) 0.2972(3) 0.2719(3)
C53A C 1.4990(6) 0.3665(4) 0.2361(3)
H34A H 1.4636 0.3593 0.1919
C54A C 1.5484(6) 0.4462(4) 0.2651(3)
H35A H 1.5466 0.4943 0.2415
C55A C 1.6006(5) 0.4541(3) 0.3296(3)
H36A H 1.6342 0.5089 0.3494
C56A C 1.5573(4) 0.3114(3) 0.3361(2)
C57A C 1.5620(4) 0.2418(3) 0.3751(2)
C58A C 1.6771(6) 0.3921(3) 0.6199(3)
H37A H 1.5988 0.3944 0.6164
C59A C 1.7350(7) 0.3902(4) 0.6844(3)
H38A H 1.6973 0.3912 0.7236
C60A C 1.8501(8) 0.3869(4) 0.6861(5)
H39A H 1.8911 0.3854 0.7279
C61A C 1.9053(7) 0.3857(4) 0.6312(5)
C62A C 2.0283(7) 0.3835(4) 0.6285(5)
H40A H 2.0744 0.3828 0.6686
C63A C 2.0724(8) 0.3826(5) 0.5733(7)
H41A H 2.1505 0.3784 0.5742
C64A C 2.0157(6) 0.3873(4) 0.5142(5)
C65A C 2.0612(7) 0.3913(5) 0.4527(6)
H42A H 2.1392 0.3906 0.4516
C66A C 1.9992(7) 0.3959(5) 0.3972(6)
H43A H 2.0317 0.3990 0.3568
C67A C 1.8841(5) 0.3961(4) 0.3987(4)
H44A H 1.8395 0.3993 0.3584
C68A C 1.8426(5) 0.3868(3) 0.5710(3)
C69A C 1.8975(5) 0.3879(3) 0.5119(4)
O1A O 1.5993(3) 1.11091(19) 0.61012(14)
H45A H 1.6645 1.0948 0.6178
O2A O 1.7920(3) 1.04843(18) 0.60898(14)
O3A O 1.7661(3) 0.95100(18) 0.49433(14)
H46A H 1.7745 0.9829 0.5323
O4A O 1.3197(4) 1.2940(4) 0.8490(2)
O5A O 1.4351(5) 1.4141(3) 0.8350(2)
O6A O 1.5001(4) 1.3135(3) 0.90461(18)
O7A O 1.7915(3) 0.9307(2) 0.90439(15)
O8A O 1.9740(2) 0.9858(2) 0.90173(14)
O9A O 1.9272(3) 0.8354(2) 0.85024(16)
O10A O 1.6750(2) 0.53751(18) 0.47814(16)
O11A O 1.4930(2) 0.59376(18) 0.49325(15)
O11A_2 O 1.4930(2) 1.59376(18) 0.49325(15)
O11_2 O 1.5070(2) 0.40624(18) 0.50675(15)
O12A O 1.6263(3) 0.59187(19) 0.59029(16)
O13A O 2.1421(3) 1.1138(3) 0.97168(17)
H47A H 2.173(5) 1.153(4) 0.970(3)
H48A H 2.162(6) 1.091(5) 1.006(4)
O14 O 0.7540(4) 1.3251(3) 0.1316(3)
O15 O 0.2165(4) 1.3804(4) 0.2958(3)
O16 O 0.2458(4) 1.2692(3) 0.9665(2)
O17 O 0.5924(5) 1.4252(4) 0.0812(3)
O18 O 0.3685(6) 1.3781(4) 1.0687(3)
O19 O 0.6565(6) 1.4496(5) -0.0441(4)
O20 O 0.9697(6) 1.3078(5) 0.1054(3)
O21 O 0.8734(11) 1.3645(8) 0.9106(6)
O22 O 0.1062(6) 0.8283(5) 0.4562(4)
O23 O 0.8318(7) 1.4231(5) 0.2498(4)
O24 O 0.2494(7) 1.2956(5) 0.1558(4)
O25 O 0.1668(8) 1.4269(6) 0.7813(5)
O26 O 0.9718(8) 1.4481(6) 0.8455(5)
O27 O 0.0534(9) 1.3543(7) -0.0044(5)
O28 O 0.0383(9) 1.4335(7) 0.2146(5)
O29 O 0.2341(10) 1.4480(8) 0.1840(6)
O30 O 0.0261(10) 1.3139(8) 0.2482(6)
O31? O 0.3966(12) 1.4806(9) 1.1025(7)
O32? O 0.7282(14) 1.4649(11) 0.0000(8)
O33? O 0.9435(11) 1.3815(9) 0.0714(7)
O34? O 0.8728(11) 1.4630(8) -0.0345(7)
loop_
_geom_bond_atom_site_label_1
_geom_bond_atom_site_label_2
_geom_bond_site_symmetry_1
_geom_bond_site_symmetry_2
Zn1 N1 1_555 1_555
Zn2 N5 1_555 1_555
S1 C3 1_555 1_555
S2 C9 1_555 1_555
S3 C15 1_555 1_555
N1 C22 1_555 1_555
N2 Zn1 1_555 1_555
N3 Zn1 1_555 1_555
N4 Zn1 1_555 1_555
N5 C46 1_555 1_555
N6 Zn2 1_555 1_555
N7 Zn2 1_555 1_555
N8 Zn2 1_555 1_555
C1 C2 1_555 1_555
C2 H1 1_555 1_555
C3 C2 1_555 1_555
C4 C3 1_555 1_555
H2 C4 1_555 1_555
C5 C4 1_555 1_555
C6 C5 1_555 1_555
H3 C6 1_555 1_555
H4 C6 1_555 1_555
C7 C6 1_555 1_555
C8 C7 1_555 1_555
H5 C8 1_555 1_555
C9 C8 1_555 1_555
C10 C9 1_555 1_555
H6 C10 1_555 1_555
C11 C10 1_555 1_555
C12 C11 1_555 1_555
H7 C12 1_555 1_555
H8 C12 1_555 1_555
C13 C12 1_555 1_555
C14 C13 1_555 1_555
H9 C14 1_555 1_555
C15 C14 1_555 1_555
C16 C15 1_555 1_555
H10 C16 1_555 1_555
C17 C16 1_555 1_555
C18 C1 1_555 1_555
H11 C18 1_555 1_555
H12 C18 1_555 1_555
C19 C1 1_555 1_555
C20 C7 1_555 1_555
C21 C13 1_555 1_555
C22 H13 1_555 1_555
C23 C22 1_555 1_555
H14 C23 1_555 1_555
C24 C23 1_555 1_555
H15 C24 1_555 1_555
C25 C24 1_555 1_555
C26 H16 1_555 1_555
C27 C25 1_555 1_555
H17 C27 1_555 1_555
C28 C26 1_555 1_555
C29 C28 1_555 1_555
H18 C29 1_555 1_555
C30 C29 1_555 1_555
H19 C30 1_555 1_555
C31 N2 1_555 1_555
H20 C31 1_555 1_555
C32 N1 1_555 1_555
C33 N2 1_555 1_555
C34 N3 1_555 1_555
H21 C34 1_555 1_555
C35 C34 1_555 1_555
H22 C35 1_555 1_555
C36 C35 1_555 1_555
H23 C36 1_555 1_555
C37 C36 1_555 1_555
C38 C37 1_555 1_555
H24 C38 1_555 1_555
C39 C38 1_555 1_555
H25 C39 1_555 1_555
C40 C39 1_555 1_555
C41 C40 1_555 1_555
H26 C41 1_555 1_555
C42 C41 1_555 1_555
H27 C42 1_555 1_555
C43 N4 1_555 1_555
H28 C43 1_555 1_555
C44 N3 1_555 1_555
C45 N4 1_555 1_555
C46 H29 1_555 1_555
C47 C46 1_555 1_555
H30 C47 1_555 1_555
C48 C47 1_555 1_555
H31 C48 1_555 1_555
C49 C48 1_555 1_555
C50 C49 1_555 1_555
H32 C50 1_555 1_555
C51 C50 1_555 1_555
H33 C51 1_555 1_555
C52 C51 1_555 1_555
C53 C52 1_555 1_555
H34 C53 1_555 1_555
C54 C53 1_555 1_555
H35 C54 1_555 1_555
C55 N6 1_555 1_555
H36 C55 1_555 1_555
C56 N6 1_555 1_555
C57 N5 1_555 1_555
C58 N7 1_555 1_555
H37 C58 1_555 1_555
C59 C58 1_555 1_555
H38 C59 1_555 1_555
C60 C59 1_555 1_555
H39 C60 1_555 1_555
C61 C60 1_555 1_555
C62 C61 1_555 1_555
H40 C62 1_555 1_555
C63 C62 1_555 1_555
H41 C63 1_555 1_555
C64 C63 1_555 1_555
C65 C64 1_555 1_555
H42 C65 1_555 1_555
C66 C65 1_555 1_555
H43 C66 1_555 1_555
C67 N8 1_555 1_555
H44 C67 1_555 1_555
C68 N7 1_555 1_555
C69 N8 1_555 1_555
O1 C19 1_555 1_555
H45 O1 1_555 1_555
O2 C20 1_555 1_555
O3 C21 1_555 1_555
H46 O3 1_555 1_555
O4 S1 1_555 1_555
O5 S1 1_555 1_555
O6 S1 1_555 1_555
O7 S2 1_555 1_555
O8 Zn1 1_555 1_555
O9 S2 1_555 1_555
O10 Zn2 1_555 1_555
O11 S3 1_555 1_555
O12 S3 1_555 1_555
O13 Zn1 1_555 1_555
H47 O13 1_555 1_555
H48 O13 1_555 1_555
Zn1A N1A 1_555 1_555
Zn2A N5A 1_555 1_555
Zn2A_2 O11 1_555 1_555
Zn2_2 O11A 1_555 1_555
S1A C3A 1_555 1_555
S2A C9A 1_555 1_555
S3A C15A 1_555 1_555
N1A C22A 1_555 1_555
N2A Zn1A 1_555 1_555
N3A Zn1A 1_555 1_555
N4A Zn1A 1_555 1_555
N5A C46A 1_555 1_555
N6A Zn2A 1_555 1_555
N7A Zn2A 1_555 1_555
N8A Zn2A 1_555 1_555
C1A C2A 1_555 1_555
C2A H1A 1_555 1_555
C3A C2A 1_555 1_555
C4A C3A 1_555 1_555
H2A C4A 1_555 1_555
C5A C4A 1_555 1_555
C6A C5A 1_555 1_555
H3A C6A 1_555 1_555
H4A C6A 1_555 1_555
C7A C6A 1_555 1_555
C8A C7A 1_555 1_555
H5A C8A 1_555 1_555
C9A C8A 1_555 1_555
C10A C9A 1_555 1_555
H6A C10A 1_555 1_555
C11A C10A 1_555 1_555
C12A C11A 1_555 1_555
H7A C12A 1_555 1_555
H8A C12A 1_555 1_555
C13A C12A 1_555 1_555
C14A C13A 1_555 1_555
H9A C14A 1_555 1_555
C15A C14A 1_555 1_555
C16A C15A 1_555 1_555
H10A C16A 1_555 1_555
C17A C18 1_555 1_555
C18A C17 1_555 1_555
H11A C18A 1_555 1_555
H12A C18A 1_555 1_555
C19A C1A 1_555 1_555
C20A C7A 1_555 1_555
C21A C13A 1_555 1_555
C22A H13A 1_555 1_555
C23A C22A 1_555 1_555
H14A C23A 1_555 1_555
C24A C23A 1_555 1_555
H15A C24A 1_555 1_555
C25A C24A 1_555 1_555
C26A H16A 1_555 1_555
C27A C25A 1_555 1_555
H17A C27A 1_555 1_555
C28A C26A 1_555 1_555
C29A C28A 1_555 1_555
H18A C29A 1_555 1_555
C30A C29A 1_555 1_555
H19A C30A 1_555 1_555
C31A N2A 1_555 1_555
H20A C31A 1_555 1_555
C32A N1A 1_555 1_555
C33A N2A 1_555 1_555
C34A N3A 1_555 1_555
H21A C34A 1_555 1_555
C35A C34A 1_555 1_555
H22A C35A 1_555 1_555
C36A C35A 1_555 1_555
H23A C36A 1_555 1_555
C37A C36A 1_555 1_555
C38A C37A 1_555 1_555
H24A C38A 1_555 1_555
C39A C38A 1_555 1_555
H25A C39A 1_555 1_555
C40A C39A 1_555 1_555
C41A C40A 1_555 1_555
H26A C41A 1_555 1_555
C42A C41A 1_555 1_555
H27A C42A 1_555 1_555
C43A N4A 1_555 1_555
H28A C43A 1_555 1_555
C44A N3A 1_555 1_555
C45A N4A 1_555 1_555
C46A H29A 1_555 1_555
C47A C46A 1_555 1_555
H30A C47A 1_555 1_555
C48A C47A 1_555 1_555
H31A C48A 1_555 1_555
C49A C48A 1_555 1_555
C50A C49A 1_555 1_555
H32A C50A 1_555 1_555
C51A C50A 1_555 1_555
H33A C51A 1_555 1_555
C52A C51A 1_555 1_555
C53A C52A 1_555 1_555
H34A C53A 1_555 1_555
C54A C53A 1_555 1_555
H35A C54A 1_555 1_555
C55A N6A 1_555 1_555
H36A C55A 1_555 1_555
C56A N6A 1_555 1_555
C57A N5A 1_555 1_555
C58A N7A 1_555 1_555
H37A C58A 1_555 1_555
C59A C58A 1_555 1_555
H38A C59A 1_555 1_555
C60A C59A 1_555 1_555
H39A C60A 1_555 1_555
C61A C60A 1_555 1_555
C62A C61A 1_555 1_555
H40A C62A 1_555 1_555
C63A C62A 1_555 1_555
H41A C63A 1_555 1_555
C64A C63A 1_555 1_555
C65A C64A 1_555 1_555
H42A C65A 1_555 1_555
C66A C65A 1_555 1_555
H43A C66A 1_555 1_555
C67A N8A 1_555 1_555
H44A C67A 1_555 1_555
C68A N7A 1_555 1_555
C69A N8A 1_555 1_555
O1A C19A 1_555 1_555
H45A O1A 1_555 1_555
O2A C20A 1_555 1_555
O3A C21A 1_555 1_555
H46A O3A 1_555 1_555
O4A S1A 1_555 1_555
O5A S1A 1_555 1_555
O6A S1A 1_555 1_555
O7A S2A 1_555 1_555
O8A Zn1A 1_555 1_555
O9A S2A 1_555 1_555
O10A Zn2A 1_555 1_555
O11A S3A 1_555 1_555
O11A_2 Zn2 1_555 1_555
O11_2 Zn2A 1_555 1_555
O12A S3A 1_555 1_555
O13A Zn1A 1_555 1_555
H47A O13A 1_555 1_555
H48A O13A 1_555 1_555
S2 O8 1_555 1_555
S3 O10 1_555 1_555
C5 C19 1_555 1_555
C11 C20 1_555 1_555
C17 C21 1_555 1_555
C25 C32 1_555 1_555
C26 C27 1_555 1_555
C28 C33 1_555 1_555
C30 C31 1_555 1_555
C32 C33 1_555 1_555
C37 C44 1_555 1_555
C40 C45 1_555 1_555
C42 C43 1_555 1_555
C44 C45 1_555 1_555
C49 C57 1_555 1_555
C52 C56 1_555 1_555
C54 C55 1_555 1_555
C56 C57 1_555 1_555
C61 C68 1_555 1_555
C64 C69 1_555 1_555
C66 C67 1_555 1_555
C68 C69 1_555 1_555
S2A O8A 1_555 1_555
S3A O10A 1_555 1_555
C1A C18A 1_555 1_555
C5A C19A 1_555 1_555
C11A C20A 1_555 1_555
C16A C17A 1_555 1_555
C17A C21A 1_555 1_555
C25A C32A 1_555 1_555
C26A C27A 1_555 1_555
C28A C33A 1_555 1_555
C30A C31A 1_555 1_555
C32A C33A 1_555 1_555
C37A C44A 1_555 1_555
C40A C45A 1_555 1_555
C42A C43A 1_555 1_555
C44A C45A 1_555 1_555
C49A C57A 1_555 1_555
C52A C56A 1_555 1_555
C54A C55A 1_555 1_555
C56A C57A 1_555 1_555
C61A C68A 1_555 1_555
C64A C69A 1_555 1_555
C66A C67A 1_555 1_555
C68A C69A 1_555 1_555

#END
