
#######################################################################
#
#                 Cambridge Crystallographic Data Centre
#                                CCDC 
#
#######################################################################
#
# If this CIF has been generated from an entry in the Cambridge 
# Structural Database, then it will include bibliographic, chemical, 
# crystal, experimental, refinement or atomic coordinate data resulting 
# from the CCDC's data processing and validation procedures.
#
#######################################################################

data_CUOCTN02
_symmetry_cell_setting           triclinic
_symmetry_space_group_name_H-M   'P -1'
_symmetry_Int_Tables_number      2
_space_group_name_Hall           '-P 1'
loop_
_symmetry_equiv_pos_site_id
_symmetry_equiv_pos_as_xyz
1 x,y,z
2 -x,-y,-z
_cell_length_a                   5.16105
_cell_length_b                   8.55806
_cell_length_c                   22.17138
_cell_angle_alpha                84.13147
_cell_angle_beta                 84.59163
_cell_angle_gamma                75.96363
_cell_volume                     942.609
loop_
_atom_site_label
_atom_site_type_symbol
_atom_site_fract_x
_atom_site_fract_y
_atom_site_fract_z
Cu1 Cu 0.77330 0.51028 0.52882
O1 O 0.67234 0.46710 0.44814
O2 O 1.07815 0.44020 0.39954
C1 C 0.83704 0.43910 0.40074
C2 C 0.72704 0.40750 0.34494
H1 H 0.57334 0.49520 0.33624
H2 H 0.66284 0.30920 0.35354
C3 C 0.91504 0.39000 0.28884
H3 H 1.06995 0.30280 0.29704
H4 H 0.97654 0.48890 0.27914
C4 C 0.78804 0.35530 0.23394
H5 H 0.73304 0.25400 0.24314
H6 H 0.62824 0.44000 0.22684
C5 C 0.97204 0.34460 0.17634
H7 H 1.13445 0.26170 0.18354
H8 H 1.02255 0.44680 0.16614
C6 C 0.83704 0.30360 0.12144
H9 H 0.78584 0.20120 0.13144
H10 H 0.67684 0.38660 0.11354
C7 C 1.02705 0.29160 0.06574
H11 H 1.18645 0.20610 0.07214
H12 H 1.07965 0.39310 0.05464
C8 C 0.86204 0.25260 0.01584
H13 H 0.97344 0.23760 -0.02146
H14 H 0.71004 0.34110 0.00914
H15 H 0.80274 0.15600 0.02904
O3 O 0.88917 0.28078 0.55336
O4 O 1.29157 0.25788 0.50126
C9 C 1.12297 0.20028 0.53666
C10 C 1.21397 0.02928 0.56346
H16 H 1.25218 -0.07138 0.54418
H17 H 1.04575 0.04113 0.58797
C11 C 1.43822 0.02831 0.60353
H18 H 1.55402 -0.07953 0.60667
H19 H 1.54738 0.09867 0.58357
C12 C 1.32375 0.08422 0.66561
H20 H 1.21463 0.19323 0.66016
H21 H 1.20804 0.01549 0.68358
C13 C 1.55132 0.08764 0.70403
H22 H 1.66476 0.15121 0.68111
H23 H 1.65840 -0.02179 0.71081
C14 C 1.43734 0.13807 0.76683
H24 H 1.32584 0.24722 0.76230
H25 H 1.32388 0.06766 0.78400
C15 C 1.66417 0.14701 0.80455
H26 H 1.77749 0.03983 0.81221
H27 H 1.77237 0.21522 0.78244
C16 C 1.55119 0.19189 0.86804
H28 H 1.69451 0.19818 0.89163
H29 H 1.42490 0.29490 0.86526
H30 H 1.46320 0.11128 0.88730
Cu1A Cu 0.22670 0.48972 0.47118
Cu1A_2 Cu 1.22670 0.48972 0.47118
O1A O 0.32766 0.53290 0.55186
O2A O 0.92185 0.55980 0.60046
O4A O 0.70843 0.74212 0.49874
loop_
_geom_bond_atom_site_label_1
_geom_bond_atom_site_label_2
_geom_bond_site_symmetry_1
_geom_bond_site_symmetry_2
Cu1 O1 1_555 1_555
O1 C1 1_555 1_555
O2 C1 1_555 1_555
C1 C2 1_555 1_555
C2 H1 1_555 1_555
H2 C2 1_555 1_555
C3 C2 1_555 1_555
H3 C3 1_555 1_555
H4 C3 1_555 1_555
C4 C3 1_555 1_555
H5 C4 1_555 1_555
H6 C4 1_555 1_555
C5 C4 1_555 1_555
H7 C5 1_555 1_555
H8 C5 1_555 1_555
C6 C5 1_555 1_555
H9 C6 1_555 1_555
H10 C6 1_555 1_555
C7 C6 1_555 1_555
H11 C7 1_555 1_555
H12 C7 1_555 1_555
C8 C7 1_555 1_555
H13 C8 1_555 1_555
H14 C8 1_555 1_555
H15 C8 1_555 1_555
O3 Cu1 1_555 1_555
O4 C9 1_555 1_555
C9 O3 1_555 1_555
C10 C9 1_555 1_555
H16 C10 1_555 1_555
H17 C10 1_555 1_555
C11 C10 1_555 1_555
H18 C11 1_555 1_555
H19 C11 1_555 1_555
C12 C11 1_555 1_555
H20 C12 1_555 1_555
H21 C12 1_555 1_555
C13 C12 1_555 1_555
H22 C13 1_555 1_555
H23 C13 1_555 1_555
C14 C13 1_555 1_555
H24 C14 1_555 1_555
H25 C14 1_555 1_555
C15 C14 1_555 1_555
H26 C15 1_555 1_555
H27 C15 1_555 1_555
C16 C15 1_555 1_555
H28 C16 1_555 1_555
H29 C16 1_555 1_555
H30 C16 1_555 1_555
Cu1A O1 1_555 1_555
Cu1A_2 Cu1 1_555 1_555
O1A Cu1 1_555 1_555
O2A Cu1 1_555 1_555
O4A Cu1 1_555 1_555
O2 Cu1A_2 1_555 1_555
O4 Cu1A_2 1_555 1_555
Cu1A O1A 1_555 1_555

#END
