
#######################################################################
#
#                 Cambridge Crystallographic Data Centre
#                                CCDC 
#
#######################################################################
#
# If this CIF has been generated from an entry in the Cambridge 
# Structural Database, then it will include bibliographic, chemical, 
# crystal, experimental, refinement or atomic coordinate data resulting 
# from the CCDC's data processing and validation procedures.
#
#######################################################################

data_CUOCTN01
_symmetry_cell_setting           triclinic
_symmetry_space_group_name_H-M   'P -1'
_symmetry_Int_Tables_number      2
_space_group_name_Hall           '-P 1'
loop_
_symmetry_equiv_pos_site_id
_symmetry_equiv_pos_as_xyz
1 x,y,z
2 -x,-y,-z
_cell_length_a                   5.1934(7)
_cell_length_b                   12.7421(7)
_cell_length_c                   14.2981(6)
_cell_angle_alpha                77.766(7)
_cell_angle_beta                 89.88(3)
_cell_angle_gamma                84.315(14)
_cell_volume                     919.965
loop_
_atom_site_label
_atom_site_type_symbol
_atom_site_fract_x
_atom_site_fract_y
_atom_site_fract_z
O1 O 0.30184 0.46777 0.65110
O2 O 0.66549 0.54809 0.62205
C1 C 0.49090 0.50992 0.67761
C2 C 0.50482 0.52307 0.77922
H1 H 0.38225 0.58264 0.78793
H2 H 0.46590 0.45726 0.82241
C3 C 0.72819 0.58278 0.79117
H3 H 0.70688 0.65280 0.74765
H4 H 0.88312 0.54301 0.77366
C4 C 0.76240 0.59891 0.89257
H5 H 0.62444 0.65081 0.90513
H6 H 0.74559 0.53119 0.93706
C5 C 0.98534 0.66321 0.90453
H7 H 1.14542 0.62328 0.89169
H8 H 0.96650 0.73032 0.85708
C6 C 1.01913 0.67507 1.01042
H9 H 0.87992 0.72544 1.02468
H10 H 1.00326 0.60587 1.05278
C7 C 1.23859 0.74057 1.01878
H11 H 1.39355 0.70720 0.99478
H12 H 1.19752 0.81262 0.98028
C8 C 1.24756 0.74343 1.12753
H13 H 1.40335 0.77404 1.14101
H14 H 1.09617 0.78766 1.14194
H15 H 1.26414 0.67000 1.16472
Cu1 Cu 0.73111 0.54484 0.48716
O3 O 0.52008 0.31287 0.55451
O4 O 0.88426 0.40208 0.52799
C9 C 0.76303 0.31032 0.55583
C10 C 0.90952 0.20108 0.58482
H16 H 1.04201 0.22593 0.61860
H17 H 0.88248 0.12905 0.62025
C11 C 0.99271 0.19639 0.48387
H18 H 0.98677 0.26944 0.44604
H19 H 1.17239 0.16677 0.48655
C12 C 0.82463 0.12751 0.43985
H20 H 0.84125 0.05510 0.47894
H21 H 0.64539 0.15661 0.44120
C13 C 0.92042 0.12099 0.34037
H22 H 1.10391 0.09719 0.34517
H23 H 0.89920 0.19297 0.30014
C14 C 0.74682 0.05527 0.29502
H24 H 0.75989 -0.01776 0.33359
H25 H 0.56956 0.08591 0.29671
C15 C 0.84792 0.04554 0.19692
H26 H 0.86002 0.11689 0.15781
H27 H 1.01935 0.00657 0.20360
C16 C 0.66920 -0.01692 0.15016
H28 H 0.73410 -0.02337 0.08849
H29 H 0.66262 -0.08766 0.18972
H30 H 0.49866 0.02064 0.14269
O1A O 0.69816 0.53223 0.34890
Cu1A Cu 0.26889 0.45516 0.51284
Cu1A_2 Cu 1.26889 0.45516 0.51284
O3A O 0.47992 0.68713 0.44549
O4A O 1.11574 0.59792 0.47201
loop_
_geom_bond_atom_site_label_1
_geom_bond_atom_site_label_2
_geom_bond_site_symmetry_1
_geom_bond_site_symmetry_2
O1 C1 1_555 1_555
O2 C1 1_555 1_555
C1 C2 1_555 1_555
C2 H1 1_555 1_555
H2 C2 1_555 1_555
C3 C2 1_555 1_555
H3 C3 1_555 1_555
H4 C3 1_555 1_555
C4 C3 1_555 1_555
H5 C4 1_555 1_555
H6 C4 1_555 1_555
C5 C4 1_555 1_555
H7 C5 1_555 1_555
H8 C5 1_555 1_555
C6 C5 1_555 1_555
H9 C6 1_555 1_555
H10 C6 1_555 1_555
C7 C6 1_555 1_555
H11 C7 1_555 1_555
H12 C7 1_555 1_555
C8 C7 1_555 1_555
H13 C8 1_555 1_555
H14 C8 1_555 1_555
H15 C8 1_555 1_555
Cu1 O2 1_555 1_555
O3 C9 1_555 1_555
O4 Cu1 1_555 1_555
C9 O4 1_555 1_555
C10 C9 1_555 1_555
H16 C10 1_555 1_555
H17 C10 1_555 1_555
C11 C10 1_555 1_555
H18 C11 1_555 1_555
H19 C11 1_555 1_555
C12 C11 1_555 1_555
H20 C12 1_555 1_555
H21 C12 1_555 1_555
C13 C12 1_555 1_555
H22 C13 1_555 1_555
H23 C13 1_555 1_555
C14 C13 1_555 1_555
H24 C14 1_555 1_555
H25 C14 1_555 1_555
C15 C14 1_555 1_555
H26 C15 1_555 1_555
H27 C15 1_555 1_555
C16 C15 1_555 1_555
H28 C16 1_555 1_555
H29 C16 1_555 1_555
H30 C16 1_555 1_555
O1A Cu1 1_555 1_555
Cu1A O1 1_555 1_555
Cu1A_2 O4 1_555 1_555
O3A Cu1 1_555 1_555
O4A Cu1 1_555 1_555
O3 Cu1A 1_555 1_555
Cu1A_2 O4A 1_555 1_555

#END
