
#######################################################################
#
#                 Cambridge Crystallographic Data Centre
#                                CCDC 
#
#######################################################################
#
# If this CIF has been generated from an entry in the Cambridge 
# Structural Database, then it will include bibliographic, chemical, 
# crystal, experimental, refinement or atomic coordinate data resulting 
# from the CCDC's data processing and validation procedures.
#
#######################################################################

data_CUPBEW
_symmetry_cell_setting           triclinic
_symmetry_space_group_name_H-M   'P -1'
_symmetry_Int_Tables_number      2
_space_group_name_Hall           '-P 1'
loop_
_symmetry_equiv_pos_site_id
_symmetry_equiv_pos_as_xyz
1 x,y,z
2 -x,-y,-z
_cell_length_a                   7.6595(6)
_cell_length_b                   8.4550(4)
_cell_length_c                   9.6469(6)
_cell_angle_alpha                91.768(5)
_cell_angle_beta                 111.205(6)
_cell_angle_gamma                115.495(6)
_cell_volume                     512.647
loop_
_atom_site_label
_atom_site_type_symbol
_atom_site_fract_x
_atom_site_fract_y
_atom_site_fract_z
In1 In 0.31418(3) 0.52882(3) 0.70205(2)
P1 P 0.20679(12) 0.76453(10) 0.43817(9)
P2 P 0.38903(14) 0.64715(11) 1.05605(9)
O1 O 0.2246(4) 0.7089(3) 0.5899(2)
O2 O 0.3867(3) 0.7792(3) 0.3983(2)
O3 O -0.0101(3) 0.6432(3) 0.3086(2)
O4 O 0.2195(4) 0.9567(3) 0.4588(3)
H1 H 0.3442 1.0339 0.5037
O5 O 0.4072(4) 0.6936(3) 0.9111(3)
O6 O 0.5800(4) 0.6404(3) 1.1701(3)
O7 O 0.3618(5) 0.7948(4) 1.1314(3)
H2 H 0.3687 0.7812 1.2167
O8 O 0.1866(4) 0.4619(3) 1.0207(3)
H3 H 0.1100 0.4321 0.9291
O9 O 0.6126(3) 0.6529(3) 0.6727(2)
O10 O 0.7536(3) 0.6398(3) 0.5106(3)
C1 C 0.6049(5) 0.5838(4) 0.5529(3)
O9A O 0.3874(3) 0.3471(3) 0.3273(2)
O10A O 0.2464(3) 0.3602(3) 0.4894(3)
C1A C 0.3951(5) 0.4162(4) 0.4471(3)
In1A In -0.31418(3) 0.47118(3) 0.29795(2)
P1A P -0.20679(12) 0.23547(10) 0.56183(9)
P2A P -0.38903(14) 0.35285(11) -0.05605(9)
O1A O -0.2246(4) 0.2911(3) 0.4101(2)
O2A O -0.3867(3) 0.2208(3) 0.6017(2)
O3A O 0.0101(3) 0.3568(3) 0.6914(2)
O4A O -0.2195(4) 0.0433(3) 0.5412(3)
H1A H -0.3442 -0.0339 0.4963
O5A O -0.4072(4) 0.3064(3) 0.0889(3)
O6A O -0.5800(4) 0.3596(3) -0.1701(3)
O7A O -0.3618(5) 0.2052(4) -0.1314(3)
H2A H -0.3687 0.2188 -0.2167
O8A O -0.1866(4) 0.5381(3) -0.0207(3)
H3A H -0.1100 0.5679 0.0709
In1_2 In -0.68582(3) 0.52882(3) -0.29795(2)
In1A_2 In 0.68582(3) 0.47118(3) 0.29795(2)
In1A_3 In 0.68582(3) 0.47118(3) 1.29795(2)
O6_2 O -0.4200(4) 0.6404(3) 0.1701(3)
O6A_2 O 0.4200(4) 0.3596(3) 0.8299(3)
O9A_2 O -0.6126(3) 0.3471(3) 0.3273(2)
O10_2 O -0.2464(3) 0.6398(3) 0.5106(3)
C2 C 1.1087(6) 0.9215(5) 0.8772(4)
H4 H 1.2503 0.9596 0.9553
H5 H 1.0246 0.7932 0.8652
C3 C 1.0089(6) 1.0192(5) 0.9257(4)
H6 H 0.8684 0.9824 0.8465
H7 H 1.0942 1.1475 0.9385
N1 N 1.1217(5) 0.9595(4) 0.7303(3)
H8 H 0.9922 0.9279 0.6596
H9 H 1.1752 0.8969 0.7006
H10 H 1.2054 1.0763 0.7430
C2A C 0.8913(6) 1.0785(5) 1.1228(4)
H4A H 0.7497 1.0404 1.0447
H5A H 0.9754 1.2068 1.1348
C3A C 0.9911(6) 0.9808(5) 1.0743(4)
H6A H 1.1316 1.0176 1.1535
H7A H 0.9058 0.8525 1.0615
N1A N 0.8783(5) 1.0405(4) 1.2697(3)
H8A H 1.0078 1.0721 1.3404
H9A H 0.8248 1.1031 1.2994
H10A H 0.7946 0.9237 1.2570
loop_
_geom_bond_atom_site_label_1
_geom_bond_atom_site_label_2
_geom_bond_site_symmetry_1
_geom_bond_site_symmetry_2
In1 O1 1_555 1_555
P1 O1 1_555 1_555
P2 O5 1_555 1_555
O2 P1 1_555 1_555
O3 P1 1_555 1_555
O4 P1 1_555 1_555
H1 O4 1_555 1_555
O5 In1 1_555 1_555
O6 P2 1_555 1_555
O7 P2 1_555 1_555
H2 O7 1_555 1_555
O8 P2 1_555 1_555
H3 O8 1_555 1_555
O9 In1 1_555 1_555
O10 C1 1_555 1_555
C1 O9 1_555 1_555
C2 H4 1_555 1_555
H5 C2 1_555 1_555
C3 C2 1_555 1_555
H6 C3 1_555 1_555
H7 C3 1_555 1_555
N1 C2 1_555 1_555
H8 N1 1_555 1_555
H9 N1 1_555 1_555
H10 N1 1_555 1_555
O9A C1A 1_555 1_555
O10A In1 1_555 1_555
C1A C1 1_555 1_555
In1A O3 1_555 1_555
P1A O1A 1_555 1_555
P2A O5A 1_555 1_555
O1A In1A 1_555 1_555
O2A P1A 1_555 1_555
O3A In1 1_555 1_555
O4A P1A 1_555 1_555
H1A O4A 1_555 1_555
O5A In1A 1_555 1_555
O6A P2A 1_555 1_555
O7A P2A 1_555 1_555
H2A O7A 1_555 1_555
O8A P2A 1_555 1_555
H3A O8A 1_555 1_555
In1_2 O6A 1_555 1_555
In1A_2 O10 1_555 1_555
In1A_3 O6 1_555 1_555
O6_2 In1A 1_555 1_555
O6A_2 In1 1_555 1_555
O9A_2 In1A 1_555 1_555
O10_2 In1A 1_555 1_555
C2A H4A 1_555 1_555
H5A C2A 1_555 1_555
C3A C3 1_555 1_555
H6A C3A 1_555 1_555
H7A C3A 1_555 1_555
N1A C2A 1_555 1_555
H8A N1A 1_555 1_555
H9A N1A 1_555 1_555
H10A N1A 1_555 1_555
O9A In1A_2 1_555 1_555
O10A C1A 1_555 1_555
P1A O3A 1_555 1_555
C2A C3A 1_555 1_555

#END
