
#######################################################################
#
#                 Cambridge Crystallographic Data Centre
#                                CCDC 
#
#######################################################################
#
# If this CIF has been generated from an entry in the Cambridge 
# Structural Database, then it will include bibliographic, chemical, 
# crystal, experimental, refinement or atomic coordinate data resulting 
# from the CCDC's data processing and validation procedures.
#
#######################################################################

data_CUPHAL
_symmetry_cell_setting           monoclinic
_symmetry_space_group_name_H-M   'B 1 1 2/b'
_symmetry_Int_Tables_number      15
_space_group_name_Hall           '-B 2n'
loop_
_symmetry_equiv_pos_site_id
_symmetry_equiv_pos_as_xyz
1 x,y,z
2 1/2+x,y,1/2+z
3 -x,1/2-y,z
4 1/2-x,1/2-y,1/2+z
5 -x,-y,-z
6 1/2-x,-y,1/2-z
7 x,1/2+y,-z
8 1/2+x,1/2+y,1/2-z
_cell_length_a                   26.100(25)
_cell_length_b                   9.79(1)
_cell_length_c                   6.67(1)
_cell_angle_alpha                90
_cell_angle_beta                 90
_cell_angle_gamma                93.9(2)
_cell_volume                     1700.37
loop_
_atom_site_label
_atom_site_type_symbol
_atom_site_fract_x
_atom_site_fract_y
_atom_site_fract_z
Cu1 Cu 0.00000 -0.50000 0.50000
Cu2 Cu 0.00000 -0.25000 0.81400
C1 C 0.11830 -0.26970 0.37920
C2 C 0.15120 -0.33660 0.50320
C3 C 0.19810 -0.37490 0.43220
C4 C 0.21230 -0.34330 0.23810
C5 C 0.17950 -0.28060 0.11220
C6 C 0.13170 -0.24440 0.17820
C7 C 0.07030 -0.21950 0.47110
C8 C 0.09450 -0.19390 0.02650
H1 H 0.11820 -0.34810 0.57710
H2 H 0.22180 -0.42360 0.51850
H3 H 0.24640 -0.36920 0.18720
H4 H 0.19010 -0.26020 -0.02690
O1 O -0.02870 -0.50540 0.77170
O2 O 0.05020 -0.29200 0.61140
O3 O 0.05560 -0.10940 0.40730
O4 O 0.05020 -0.25920 0.02540
O5 O 0.10890 -0.10160 -0.08870
O1D O 0.02870 -0.49460 0.22830
C1D C -0.11830 -0.73030 0.62080
C2D C -0.15120 -0.66340 0.49680
C3D C -0.19810 -0.62510 0.56780
C4D C -0.21230 -0.65670 0.76190
C5D C -0.17950 -0.71940 0.88780
C6D C -0.13170 -0.75560 0.82180
C7D C -0.07030 -0.78050 0.52890
C8D C -0.09450 -0.80610 0.97350
H1D H -0.11820 -0.65190 0.42290
H2D H -0.22180 -0.57640 0.48150
H3D H -0.24640 -0.63080 0.81280
H4D H -0.19010 -0.73980 1.02690
O2D O -0.05020 -0.70800 0.38860
O3D O -0.05560 -0.89060 0.59270
O4D O -0.05020 -0.74080 0.97460
O5D O -0.10890 -0.89840 1.08870
O3B O -0.05560 -0.39060 0.40730
O3F O 0.05560 -0.60940 0.59270
O1B O 0.02870 0.00540 0.77170
O2B O -0.05020 -0.20800 0.61140
O4_2 O 0.05020 -0.25920 1.02540
O4B O -0.05020 -0.24080 1.02540
Cu1B Cu 0.00000 0.00000 0.50000
Cu2_2 Cu 0.00000 -0.25000 -0.18600
Cu2D Cu 0.00000 -0.75000 0.18600
Cu1B_2 Cu 0.00000 -1.00000 0.50000
Cu2D_2 Cu 0.00000 -0.75000 1.18600
loop_
_geom_bond_atom_site_label_1
_geom_bond_atom_site_label_2
_geom_bond_site_symmetry_1
_geom_bond_site_symmetry_2
Cu1 O1 1_555 1_555
Cu2 O1 1_555 1_555
C1 C2 1_555 1_555
C2 C3 1_555 1_555
C3 C4 1_555 1_555
C4 C5 1_555 1_555
C5 C6 1_555 1_555
C6 C1 1_555 1_555
C7 C1 1_555 1_555
C8 C6 1_555 1_555
H1 C2 1_555 1_555
H2 C3 1_555 1_555
H3 C4 1_555 1_555
H4 C5 1_555 1_555
O2 Cu1 1_555 1_555
O3 C7 1_555 1_555
O4 C8 1_555 1_555
O5 C8 1_555 1_555
O1D Cu1 1_555 1_555
C1D C2D 1_555 1_555
C2D C3D 1_555 1_555
C3D C4D 1_555 1_555
C4D C5D 1_555 1_555
C5D C6D 1_555 1_555
C6D C1D 1_555 1_555
C7D C1D 1_555 1_555
C8D C6D 1_555 1_555
H1D C2D 1_555 1_555
H2D C3D 1_555 1_555
H3D C4D 1_555 1_555
H4D C5D 1_555 1_555
O2D Cu1 1_555 1_555
O3D C7D 1_555 1_555
O4D C8D 1_555 1_555
O5D C8D 1_555 1_555
O3B Cu1 1_555 1_555
O3F Cu1 1_555 1_555
O1B Cu2 1_555 1_555
O2B Cu2 1_555 1_555
O4_2 Cu2 1_555 1_555
O4B Cu2 1_555 1_555
Cu1B O3 1_555 1_555
Cu2_2 O4 1_555 1_555
Cu2D O1D 1_555 1_555
Cu1B_2 O3D 1_555 1_555
Cu2D_2 O4D 1_555 1_555
Cu2 O2 1_555 1_555
C7 O2 1_555 1_555
C7D O2D 1_555 1_555
O2D Cu2D 1_555 1_555
O1B Cu1B 1_555 1_555
O2B Cu1B 1_555 1_555

#END
