
#######################################################################
#
#                 Cambridge Crystallographic Data Centre
#                                CCDC 
#
#######################################################################
#
# If this CIF has been generated from an entry in the Cambridge 
# Structural Database, then it will include bibliographic, chemical, 
# crystal, experimental, refinement or atomic coordinate data resulting 
# from the CCDC's data processing and validation procedures.
#
#######################################################################

data_CUPICH12
_symmetry_cell_setting           triclinic
_symmetry_space_group_name_H-M   'P -1'
_symmetry_Int_Tables_number      2
_space_group_name_Hall           '-P 1'
loop_
_symmetry_equiv_pos_site_id
_symmetry_equiv_pos_as_xyz
1 x,y,z
2 -x,-y,-z
_cell_length_a                   5.110
_cell_length_b                   7.571
_cell_length_c                   9.134
_cell_angle_alpha                75.53
_cell_angle_beta                 84.80
_cell_angle_gamma                71.87
_cell_volume                     325.146
loop_
_atom_site_label
_atom_site_type_symbol
_atom_site_fract_x
_atom_site_fract_y
_atom_site_fract_z
Cu1 Cu 0.5000 0.5000 0.5000
O1 O 0.1696(10) 0.5415(7) 0.6265(5)
N1 N 0.2804(12) 0.7301(8) 0.3599(6)
C1 C -0.0362(14) 0.6790(9) 0.5648(7)
C2 C 0.3605(15) 0.8237(10) 0.2271(7)
C3 C 0.0266(14) 0.8009(9) 0.4147(7)
C4 C -0.1561(15) 0.9694(10) 0.3401(8)
C5 C 0.1895(17) 0.9959(11) 0.1475(8)
C6 C -0.0709(17) 1.0699(11) 0.2049(8)
O2 O -0.2733(11) 0.7151(8) 0.6168(5)
H1 H 0.24(2) 1.075(15) 0.053(11)
H2 H 0.54(2) 0.768(17) 0.188(11)
H3 H -0.31(2) 1.006(14) 0.380(10)
H4 H -0.18(2) 1.184(15) 0.151(10)
Cu1_2 Cu -0.5000 0.5000 0.5000
Cu1_3 Cu 1.5000 0.5000 0.5000
O1A O 0.8304(10) 0.4585(7) 0.3735(5)
N1A N 0.7196(12) 0.2699(8) 0.6401(6)
C1A C 1.0362(14) 0.3210(9) 0.4352(7)
C2A C 0.6395(15) 0.1763(10) 0.7729(7)
C3A C 0.9734(14) 0.1991(9) 0.5853(7)
C4A C 1.1561(15) 0.0306(10) 0.6599(8)
C5A C 0.8105(17) 0.0041(11) 0.8525(8)
C6A C 1.0709(17) -0.0699(11) 0.7951(8)
O2A O 1.2733(11) 0.2849(8) 0.3832(5)
O2_2 O 0.7267(11) 0.7151(8) 0.6168(5)
O2A_2 O 0.2733(11) 0.2849(8) 0.3832(5)
H1A H 0.76(2) -0.075(15) 0.947(11)
H2A H 0.46(2) 0.232(17) 0.812(11)
H3A H 1.31(2) -0.006(14) 0.620(10)
H4A H 1.18(2) -0.184(15) 0.849(10)
O3 O -0.2662 0.5522 0.9402
H5 H -0.2567 0.5781 0.8658
H6 H -0.3800 0.5052 0.9658
loop_
_geom_bond_atom_site_label_1
_geom_bond_atom_site_label_2
_geom_bond_site_symmetry_1
_geom_bond_site_symmetry_2
Cu1 O1 1_555 1_555
O1 C1 1_555 1_555
N1 Cu1 1_555 1_555
C1 C3 1_555 1_555
C2 N1 1_555 1_555
C3 N1 1_555 1_555
C4 C3 1_555 1_555
C5 C2 1_555 1_555
C6 C4 1_555 1_555
O2 C1 1_555 1_555
H1 C5 1_555 1_555
H2 C2 1_555 1_555
H3 C4 1_555 1_555
H4 C6 1_555 1_555
O3 H5 1_555 1_555
H6 O3 1_555 1_555
Cu1_2 O2 1_555 1_555
Cu1_3 O2A 1_555 1_555
O1A Cu1 1_555 1_555
N1A Cu1 1_555 1_555
C1A O1A 1_555 1_555
C2A N1A 1_555 1_555
C3A N1A 1_555 1_555
C4A C3A 1_555 1_555
C5A C2A 1_555 1_555
C6A C4A 1_555 1_555
O2A C1A 1_555 1_555
O2_2 Cu1 1_555 1_555
O2A_2 Cu1 1_555 1_555
H1A C5A 1_555 1_555
H2A C2A 1_555 1_555
H3A C4A 1_555 1_555
H4A C6A 1_555 1_555
C5 C6 1_555 1_555
C1A C3A 1_555 1_555
C5A C6A 1_555 1_555

#END
