
#######################################################################
#
#                 Cambridge Crystallographic Data Centre
#                                CCDC 
#
#######################################################################
#
# If this CIF has been generated from an entry in the Cambridge 
# Structural Database, then it will include bibliographic, chemical, 
# crystal, experimental, refinement or atomic coordinate data resulting 
# from the CCDC's data processing and validation procedures.
#
#######################################################################

data_CUPICH14
_symmetry_cell_setting           triclinic
_symmetry_space_group_name_H-M   'P -1'
_symmetry_Int_Tables_number      2
_space_group_name_Hall           '-P 1'
loop_
_symmetry_equiv_pos_site_id
_symmetry_equiv_pos_as_xyz
1 x,y,z
2 -x,-y,-z
_cell_length_a                   5.090(2)
_cell_length_b                   7.480(4)
_cell_length_c                   9.067(6)
_cell_angle_alpha                75.89(5)
_cell_angle_beta                 84.94(5)
_cell_angle_gamma                71.96(4)
_cell_volume                     318.306
loop_
_atom_site_label
_atom_site_type_symbol
_atom_site_fract_x
_atom_site_fract_y
_atom_site_fract_z
Cu1 Cu 0.5000 0.5000 0.5000
O1 O 0.8307(3) 0.4579(2) 0.37310(19)
O2 O 1.2733(4) 0.2843(3) 0.3836(2)
N1 N 0.7184(4) 0.2705(3) 0.6405(2)
C1 C 1.0365(5) 0.3206(3) 0.4351(3)
C2 C 0.9727(5) 0.1997(4) 0.5856(3)
C3 C 1.1558(5) 0.0301(4) 0.6603(3)
H1 H 1.3361 -0.0170 0.6201
C4 C 1.0699(6) -0.0700(4) 0.7958(3)
H2 H 1.1896 -0.1890 0.8489
C5 C 0.8091(6) 0.0047(4) 0.8528(3)
H3 H 0.7478 -0.0619 0.9459
C6 C 0.6389(5) 0.1766(4) 0.7735(3)
H4 H 0.4611 0.2299 0.8141
Cu1_2 Cu 1.5000 0.5000 0.5000
Cu1_3 Cu -0.5000 0.5000 0.5000
O1A O 0.1693(3) 0.5421(2) 0.62690(19)
O2_2 O 0.2733(4) 0.2843(3) 0.3836(2)
O2A O 0.7267(4) 0.7157(3) 0.6164(2)
O2A_2 O -0.2733(4) 0.7157(3) 0.6164(2)
N1A N 0.2816(4) 0.7295(3) 0.3595(2)
C1A C -0.0365(5) 0.6794(3) 0.5649(3)
C2A C 0.0273(5) 0.8003(4) 0.4144(3)
C3A C -0.1558(5) 0.9699(4) 0.3397(3)
H1A H -0.3361 1.0170 0.3799
C4A C -0.0699(6) 1.0700(4) 0.2042(3)
H2A H -0.1896 1.1890 0.1511
C5A C 0.1909(6) 0.9953(4) 0.1472(3)
H3A H 0.2522 1.0619 0.0541
C6A C 0.3611(5) 0.8234(4) 0.2265(3)
H4A H 0.5389 0.7701 0.1859
O3 O 1.2673(5) 0.4453(4) 0.0590(3)
H5 H 1.241(11) 0.415(7) 0.163(2)
H6 H 1.414(11) 0.488(12) 0.012(9)
H7? H 1.083(7) 0.510(12) 0.031(10)
loop_
_geom_bond_atom_site_label_1
_geom_bond_atom_site_label_2
_geom_bond_site_symmetry_1
_geom_bond_site_symmetry_2
Cu1 O1 1_555 1_555
O1 C1 1_555 1_555
O2 C1 1_555 1_555
N1 Cu1 1_555 1_555
C1 C2 1_555 1_555
C2 N1 1_555 1_555
C3 C2 1_555 1_555
H1 C3 1_555 1_555
C4 C3 1_555 1_555
H2 C4 1_555 1_555
C5 C4 1_555 1_555
H3 C5 1_555 1_555
C6 N1 1_555 1_555
H4 C6 1_555 1_555
O3 H5 1_555 1_555
H6 O3 1_555 1_555
Cu1_2 O2 1_555 1_555
Cu1_3 O2A_2 1_555 1_555
O1A Cu1 1_555 1_555
O2_2 Cu1 1_555 1_555
O2A Cu1 1_555 1_555
O2A_2 C1A 1_555 1_555
N1A Cu1 1_555 1_555
C1A O1A 1_555 1_555
C2A N1A 1_555 1_555
C3A C2A 1_555 1_555
H1A C3A 1_555 1_555
C4A C3A 1_555 1_555
H2A C4A 1_555 1_555
C5A C4A 1_555 1_555
H3A C5A 1_555 1_555
C6A N1A 1_555 1_555
H4A C6A 1_555 1_555
C5 C6 1_555 1_555
C1A C2A 1_555 1_555
C5A C6A 1_555 1_555

#END
