
#######################################################################
#
#                 Cambridge Crystallographic Data Centre
#                                CCDC 
#
#######################################################################
#
# If this CIF has been generated from an entry in the Cambridge 
# Structural Database, then it will include bibliographic, chemical, 
# crystal, experimental, refinement or atomic coordinate data resulting 
# from the CCDC's data processing and validation procedures.
#
#######################################################################

data_CUPJAA
_symmetry_cell_setting           trigonal
_symmetry_space_group_name_H-M   'P 31 2 1'
_symmetry_Int_Tables_number      152
_space_group_name_Hall           'P 31 2"'
loop_
_symmetry_equiv_pos_site_id
_symmetry_equiv_pos_as_xyz
1 x,y,z
2 -y,x-y,1/3+z
3 -x+y,-x,2/3+z
4 x-y,-y,2/3-z
5 -x,-x+y,1/3-z
6 y,x,-z
_cell_length_a                   10.7197(7)
_cell_length_b                   10.7197(7)
_cell_length_c                   23.0839(12)
_cell_angle_alpha                90
_cell_angle_beta                 90
_cell_angle_gamma                120
_cell_volume                     2297.23
loop_
_atom_site_label
_atom_site_type_symbol
_atom_site_fract_x
_atom_site_fract_y
_atom_site_fract_z
Cu1 Cu 0.57166(5) 0.57166(5) 0.5000
S1 S 0.40381(11) 0.24857(9) 0.52859(4)
S2 S 0.42597(12) 0.66866(12) 0.61371(4)
O1 O 0.4877(3) 0.4009(3) 0.55363(9)
N1 N 0.7449(3) 0.6621(3) 0.55279(9)
O2 O 0.4501(3) 0.6679(3) 0.54975(10)
C1 C 0.7850(4) 0.7888(4) 0.57828(14)
H1 H 0.7439 0.8425 0.5656
C2 C 0.9134(4) 0.6387(4) 0.61237(13)
H2 H 0.9587 0.5869 0.6222
C3 C 0.9482(3) 0.7664(4) 0.64175(11)
C4 C 0.8119(4) 0.5901(4) 0.56884(13)
H3 H 0.7890 0.5046 0.5500
C5 C 0.8844(4) 0.8428(4) 0.62237(13)
H4 H 0.9087 0.9309 0.6391
C6 C 0.2695(5) 0.1490(5) 0.5812(2)
H5 H 0.3141 0.1590 0.6183
H6 H 0.2179 0.0492 0.5704
H7 H 0.2037 0.1850 0.5835
C7 C 0.5152(5) 0.1721(5) 0.5397(2)
H8 H 0.6012 0.2232 0.5169
H9 H 0.4643 0.0727 0.5283
H10 H 0.5405 0.1790 0.5799
C8 C 0.4117(7) 0.8232(6) 0.6270(2)
H11 H 0.4953 0.9067 0.6121
H12 H 0.4049 0.8341 0.6680
H13 H 0.3271 0.8129 0.6083
C9 C 0.2465(7) 0.5352(6) 0.6266(2)
H14 H 0.1838 0.5516 0.6021
H15 H 0.2228 0.5387 0.6664
H16 H 0.2348 0.4422 0.6182
N1D N 1.2551(3) 0.9172(4) 0.78054(9)
C1D C 1.2150(4) 1.0038(6) 0.75505(14)
H1D H 1.2561 1.0986 0.7677
C2D C 1.0866(4) 0.7253(6) 0.72096(13)
H2D H 1.0413 0.6282 0.7111
C3D C 1.0518(3) 0.8182(5) 0.69158(11)
C4D C 1.1881(4) 0.7782(6) 0.76449(13)
H3D H 1.2110 0.7156 0.7833
C5D C 1.1156(4) 0.9584(6) 0.71096(13)
H4D H 1.0913 1.0222 0.6942
S1E S 0.24857(9) 0.40381(11) 0.47141(4)
O1E O 0.4009(3) 0.4877(3) 0.44637(9)
C6E C 0.1490(5) 0.2695(5) 0.4188(2)
H5E H 0.1590 0.3141 0.3817
H6E H 0.0492 0.2179 0.4296
H7E H 0.1850 0.2037 0.4165
C7E C 0.1721(5) 0.5152(5) 0.4603(2)
H8E H 0.2232 0.6012 0.4831
H9E H 0.0727 0.4643 0.4717
H10E H 0.1790 0.5405 0.4201
S2E S 0.66866(12) 0.42597(12) 0.38629(4)
O2E O 0.6679(3) 0.4501(3) 0.45025(10)
C8E C 0.8232(6) 0.4117(7) 0.3730(2)
H11E H 0.9067 0.4953 0.3879
H12E H 0.8341 0.4049 0.3320
H13E H 0.8129 0.3271 0.3917
C9E C 0.5352(6) 0.2465(7) 0.3734(2)
H14E H 0.5516 0.1838 0.3979
H15E H 0.5387 0.2228 0.3336
H16E H 0.4422 0.2348 0.3818
Cu1A Cu 1.42834(5) 1.00000(7) 0.8333
N1E N 0.6621(3) 0.7449(3) 0.44721(9)
Cl1 Cl 0.86376(14) 0.18653(13) 0.55443(7)
O3 O 0.8846(5) 0.3245(4) 0.5673(2)
O4 O 0.7509(6) 0.0828(5) 0.5873(3)
O5 O 0.8204(9) 0.1616(10) 0.4939(3)
O6 O 0.9871(6) 0.1839(8) 0.5584(4)
loop_
_geom_bond_atom_site_label_1
_geom_bond_atom_site_label_2
_geom_bond_site_symmetry_1
_geom_bond_site_symmetry_2
Cu1 O1 1_555 1_555
S1 O1 1_555 1_555
S2 O2 1_555 1_555
N1 Cu1 1_555 1_555
O2 Cu1 1_555 1_555
C1 N1 1_555 1_555
H1 C1 1_555 1_555
C2 H2 1_555 1_555
C3 C2 1_555 1_555
C4 N1 1_555 1_555
H3 C4 1_555 1_555
C5 C1 1_555 1_555
H4 C5 1_555 1_555
C6 S1 1_555 1_555
H5 C6 1_555 1_555
H6 C6 1_555 1_555
H7 C6 1_555 1_555
C7 S1 1_555 1_555
H8 C7 1_555 1_555
H9 C7 1_555 1_555
H10 C7 1_555 1_555
C8 S2 1_555 1_555
H11 C8 1_555 1_555
H12 C8 1_555 1_555
H13 C8 1_555 1_555
C9 S2 1_555 1_555
H14 C9 1_555 1_555
H15 C9 1_555 1_555
H16 C9 1_555 1_555
Cl1 O3 1_555 1_555
O4 Cl1 1_555 1_555
O5 Cl1 1_555 1_555
O6 Cl1 1_555 1_555
N1D C1D 1_555 1_555
C1D H1D 1_555 1_555
C2D H2D 1_555 1_555
C3D C3 1_555 1_555
C4D N1D 1_555 1_555
H3D C4D 1_555 1_555
C5D C1D 1_555 1_555
H4D C5D 1_555 1_555
S1E O1E 1_555 1_555
O1E Cu1 1_555 1_555
C6E S1E 1_555 1_555
H5E C6E 1_555 1_555
H6E C6E 1_555 1_555
H7E C6E 1_555 1_555
C7E S1E 1_555 1_555
H8E C7E 1_555 1_555
H9E C7E 1_555 1_555
H10E C7E 1_555 1_555
S2E O2E 1_555 1_555
O2E Cu1 1_555 1_555
C8E S2E 1_555 1_555
H11E C8E 1_555 1_555
H12E C8E 1_555 1_555
H13E C8E 1_555 1_555
C9E S2E 1_555 1_555
H14E C9E 1_555 1_555
H15E C9E 1_555 1_555
H16E C9E 1_555 1_555
Cu1A N1D 1_555 1_555
N1E Cu1 1_555 1_555
C2 C4 1_555 1_555
C3 C5 1_555 1_555
C2D C3D 1_555 1_555
C2D C4D 1_555 1_555
C3D C5D 1_555 1_555

#END
