
#######################################################################
#
#                 Cambridge Crystallographic Data Centre
#                                CCDC 
#
#######################################################################
#
# If this CIF has been generated from an entry in the Cambridge 
# Structural Database, then it will include bibliographic, chemical, 
# crystal, experimental, refinement or atomic coordinate data resulting 
# from the CCDC's data processing and validation procedures.
#
#######################################################################

data_CUPJEE
_symmetry_cell_setting           trigonal
_symmetry_space_group_name_H-M   'P 32 2 1'
_symmetry_Int_Tables_number      154
_space_group_name_Hall           'P 32 2"'
loop_
_symmetry_equiv_pos_site_id
_symmetry_equiv_pos_as_xyz
1 x,y,z
2 -y,x-y,2/3+z
3 -x+y,-x,1/3+z
4 x-y,-y,1/3-z
5 -x,-x+y,2/3-z
6 y,x,-z
_cell_length_a                   10.7314(2)
_cell_length_b                   10.7314(2)
_cell_length_c                   23.1419(6)
_cell_angle_alpha                90
_cell_angle_beta                 90
_cell_angle_gamma                120
_cell_volume                     2308.04
loop_
_atom_site_label
_atom_site_type_symbol
_atom_site_fract_x
_atom_site_fract_y
_atom_site_fract_z
Cu1 Cu 0.42836(5) 0.0000 0.6667
S1 S 0.75150(9) 0.15529(11) 0.63811(4)
S2 S 0.33145(13) -0.24259(12) 0.55294(4)
O1 O 0.5991(2) 0.0865(3) 0.61302(10)
N1 N 0.3380(3) 0.0831(3) 0.61391(10)
O2 O 0.3321(3) -0.2176(3) 0.61699(11)
C1 C 0.2334(4) 0.1821(4) 0.52493(12)
C2 C 0.3614(4) 0.2748(4) 0.55427(15)
H1 H 0.4134 0.3717 0.5444
C3 C 0.4099(4) 0.2220(4) 0.59786(14)
H2 H 0.4951 0.2846 0.6167
C4 C 0.1568(4) 0.0413(4) 0.54431(15)
H3 H 0.0687 -0.0226 0.5276
C5 C 0.8283(5) 0.3434(5) 0.6270(2)
H4 H 0.8235 0.3619 0.5867
H5 H 0.9270 0.3920 0.6393
H6 H 0.7759 0.3779 0.6490
C6 C 0.8508(5) 0.1202(6) 0.5853(2)
H7 H 0.8142 0.0185 0.5828
H8 H 0.9504 0.1678 0.5961
H9 H 0.8413 0.1556 0.5484
C7 C 0.1767(6) -0.4120(7) 0.5396(3)
H10 H 0.1862 -0.4858 0.5592
H11 H 0.1673 -0.4308 0.4988
H12 H 0.0930 -0.4112 0.5537
C8 C 0.4655(6) -0.2887(8) 0.5402(3)
H13 H 0.5584 -0.2071 0.5482
H14 H 0.4616 -0.3167 0.5006
H15 H 0.4495 -0.3672 0.5649
C9 C 0.2114(4) -0.0043(4) 0.58846(16)
H16 H 0.1583 -0.0991 0.6010
N1E N 0.0831(3) 0.3380(3) 0.38609(10)
C1E C 0.1821(4) 0.2334(4) 0.47507(12)
C2E C 0.2748(4) 0.3614(4) 0.44573(15)
H1E H 0.3717 0.4134 0.4556
C3E C 0.2220(4) 0.4099(4) 0.40214(14)
H2E H 0.2846 0.4951 0.3833
C4E C 0.0413(4) 0.1568(4) 0.45569(15)
H3E H -0.0226 0.0687 0.4724
C9E C -0.0043(4) 0.2114(4) 0.41154(16)
H16E H -0.0991 0.1583 0.3990
S1C S 0.59621(14) -0.15529(11) 0.69522(4)
S2C S 0.57404(18) 0.24259(12) 0.78039(4)
O1C O 0.5126(4) -0.0865(3) 0.72031(10)
O2C O 0.5497(4) 0.2176(3) 0.71634(11)
C5C C 0.4849(7) -0.3434(5) 0.7063(2)
H4C H 0.4616 -0.3619 0.7466
H5C H 0.5350 -0.3920 0.6940
H6C H 0.3980 -0.3779 0.6843
C6C C 0.7306(8) -0.1202(6) 0.7480(2)
H7C H 0.7957 -0.0185 0.7505
H8C H 0.7826 -0.1678 0.7372
H9C H 0.6857 -0.1556 0.7849
C7C C 0.5887(9) 0.4120(7) 0.7937(3)
H10C H 0.6720 0.4858 0.7741
H11C H 0.5981 0.4308 0.8345
H12C H 0.5042 0.4112 0.7796
C8C C 0.7542(10) 0.2887(8) 0.7931(3)
H13C H 0.7655 0.2071 0.7851
H14C H 0.7783 0.3167 0.8327
H15C H 0.8167 0.3672 0.7684
Cu1A Cu 0.0000 0.42836(5) 0.3334
N1C N 0.2549(4) -0.0831(3) 0.71942(10)
Cl1 Cl 0.67709(13) 0.81336(13) 0.38769(8)
O3 O 0.6682(5) 0.9178(5) 0.4207(3)
O4 O 0.5599(5) 0.6754(4) 0.4005(2)
O5 O 0.8040(6) 0.8170(7) 0.3920(4)
O6 O 0.6602(11) 0.8392(10) 0.3272(3)
loop_
_geom_bond_atom_site_label_1
_geom_bond_atom_site_label_2
_geom_bond_site_symmetry_1
_geom_bond_site_symmetry_2
Cu1 O1 1_555 1_555
S1 O1 1_555 1_555
S2 O2 1_555 1_555
N1 Cu1 1_555 1_555
O2 Cu1 1_555 1_555
C1 C2 1_555 1_555
C2 H1 1_555 1_555
C3 N1 1_555 1_555
H2 C3 1_555 1_555
C4 C1 1_555 1_555
H3 C4 1_555 1_555
C5 S1 1_555 1_555
H4 C5 1_555 1_555
H5 C5 1_555 1_555
H6 C5 1_555 1_555
C6 S1 1_555 1_555
H7 C6 1_555 1_555
H8 C6 1_555 1_555
H9 C6 1_555 1_555
C7 S2 1_555 1_555
H10 C7 1_555 1_555
H11 C7 1_555 1_555
H12 C7 1_555 1_555
C8 S2 1_555 1_555
H13 C8 1_555 1_555
H14 C8 1_555 1_555
H15 C8 1_555 1_555
C9 N1 1_555 1_555
H16 C9 1_555 1_555
Cl1 O3 1_555 1_555
O4 Cl1 1_555 1_555
O5 Cl1 1_555 1_555
O6 Cl1 1_555 1_555
N1E C3E 1_555 1_555
C1E C1 1_555 1_555
C2E C1E 1_555 1_555
H1E C2E 1_555 1_555
C3E C2E 1_555 1_555
H2E C3E 1_555 1_555
C4E C1E 1_555 1_555
H3E C4E 1_555 1_555
C9E N1E 1_555 1_555
H16E C9E 1_555 1_555
S1C O1C 1_555 1_555
S2C O2C 1_555 1_555
O1C Cu1 1_555 1_555
O2C Cu1 1_555 1_555
C5C S1C 1_555 1_555
H4C C5C 1_555 1_555
H5C C5C 1_555 1_555
H6C C5C 1_555 1_555
C6C S1C 1_555 1_555
H7C C6C 1_555 1_555
H8C C6C 1_555 1_555
H9C C6C 1_555 1_555
C7C S2C 1_555 1_555
H10C C7C 1_555 1_555
H11C C7C 1_555 1_555
H12C C7C 1_555 1_555
C8C S2C 1_555 1_555
H13C C8C 1_555 1_555
H14C C8C 1_555 1_555
H15C C8C 1_555 1_555
Cu1A N1E 1_555 1_555
N1C Cu1 1_555 1_555
C2 C3 1_555 1_555
C4 C9 1_555 1_555
C4E C9E 1_555 1_555

#END
