
#######################################################################
#
#                 Cambridge Crystallographic Data Centre
#                                CCDC 
#
#######################################################################
#
# If this CIF has been generated from an entry in the Cambridge 
# Structural Database, then it will include bibliographic, chemical, 
# crystal, experimental, refinement or atomic coordinate data resulting 
# from the CCDC's data processing and validation procedures.
#
#######################################################################

data_CUPKOO01
_symmetry_cell_setting           monoclinic
_symmetry_space_group_name_H-M   'C 2/c'
_symmetry_Int_Tables_number      15
_space_group_name_Hall           '-C 2yn'
loop_
_symmetry_equiv_pos_site_id
_symmetry_equiv_pos_as_xyz
1 x,y,z
2 -x,y,1/2-z
3 1/2+x,1/2+y,z
4 1/2-x,1/2+y,1/2-z
5 -x,-y,-z
6 x,-y,1/2+z
7 1/2-x,1/2-y,-z
8 1/2+x,1/2-y,1/2+z
_cell_length_a                   31.05(3)
_cell_length_b                   17.556(13)
_cell_length_c                   16.281(13)
_cell_angle_alpha                90
_cell_angle_beta                 121.402(7)
_cell_angle_gamma                90
_cell_volume                     7575.1
loop_
_atom_site_label
_atom_site_type_symbol
_atom_site_fract_x
_atom_site_fract_y
_atom_site_fract_z
Cd1 Cd 0.250003(16) 0.999991(17) 0.91420(3)
Cl1 Cl 0.17835(6) 0.90047(7) 0.84619(11)
Cl2 Cl 0.32172(6) 1.09969(7) 0.98956(11)
N1 N 0.29211(17) 0.9265(2) 1.0572(3)
N2 N 0.29208(17) 0.5738(2) 1.5269(3)
N3 N 0.29488(17) 0.9326(2) 0.8565(3)
N4 N 0.20505(17) 1.0672(2) 0.7671(3)
C1 C 0.3179(2) 0.9588(3) 1.1425(4)
H1 H 0.3184 1.0117 1.1460
C2 C 0.3178(2) 0.5413(3) 1.4931(4)
H2 H 0.3182 0.4884 1.4904
C3 C 0.34392(18) 0.6600(3) 1.4646(3)
C4 C 0.34404(19) 0.8403(3) 1.2240(4)
C5 C 0.34100(17) 0.7499(3) 1.3408(3)
H3 H 0.3198 0.7149 1.2891
H4 H 0.3192 0.7846 1.3491
C6 C 0.1556(2) 1.0599(4) 0.7106(5)
H5 H 0.1388 1.0296 0.7321
C7 C 0.3170(2) 0.6930(3) 1.4989(4)
H6 H 0.3157 0.7458 1.5015
C8 C 0.3440(2) 0.9403(4) 0.8999(4)
H7 H 0.3603 0.9702 0.9551
C9 C 0.3440(2) 0.9180(3) 1.2263(4)
H8 H 0.3617 0.9434 1.2849
C10 C 0.3442(2) 0.5821(3) 1.4615(4)
H9 H 0.3621 0.5570 1.4382
C11 C 0.2918(2) 0.8510(3) 1.0541(4)
H10 H 0.2736 0.8271 0.9945
C12 C 0.2271(2) 1.1097(3) 0.7328(4)
H11 H 0.2619 1.1160 0.7697
C13 C 0.2919(2) 0.6493(3) 1.5296(4)
H12 H 0.2738 0.6732 1.5533
C14 C 0.3735(2) 0.7944(4) 1.3142(4)
H13 H 0.3951 0.8284 1.3669
H14 H 0.3951 0.7592 1.3062
C15 C 0.2730(3) 0.8901(4) 0.7784(4)
H15 H 0.2382 0.8836 0.7460
C16 C 0.3733(2) 0.7057(4) 1.4327(4)
H16 H 0.3950 0.6717 1.4236
H17 H 0.3947 0.7412 1.4834
C17 C 0.3172(2) 0.8068(3) 1.1349(4)
H18 H 0.3162 0.7540 1.1294
C18 C 0.3723(2) 0.9068(4) 0.8683(5)
H19 H 0.4070 0.9141 0.9018
C19 C 0.2992(3) 0.8554(5) 0.7432(5)
H20 H 0.2821 0.8261 0.6876
C20 C 0.3498(2) 0.8629(4) 0.7880(4)
C21 C 0.2010(3) 1.1448(5) 0.6453(5)
H21 H 0.2182 1.1741 0.6241
C22 C 0.4584(3) 0.6684(9) 0.7928(7)
C23 C 0.1503(3) 1.1375(4) 0.5890(5)
C24 C 0.1279(2) 1.0935(4) 0.6240(5)
H22 H 0.0931 1.0862 0.5881
C25 C 0.3796(4) 0.8249(8) 0.7512(6)
H23 H 0.3548 0.7979 0.6938
H24 H 0.3918 0.8662 0.7289
C26 C 0.1209(4) 1.1762(8) 0.4930(7)
H25 H 0.1459 1.2039 0.4861
H26 H 0.1092 1.1353 0.4461
C27 C 0.0533(4) 1.2526(11) 0.3691(7)
H27 H 0.0687 1.2497 0.3304
H28 H 0.0220 1.2239 0.3361
C28 C 0.4464(4) 0.7480(11) 0.7619(8)
H29 H 0.4312 0.7502 0.6927
H30 H 0.4777 0.7768 0.7908
C29 C 0.0885(6) 1.2156(14) 0.4662(9)
H31 H 0.1019 1.2583 0.5104
H32 H 0.0658 1.1896 0.4811
C30 C 0.4385(5) 0.6101(16) 0.7314(12)
H33 H 0.4164 0.6192 0.6662
C31 C 0.0617(4) 1.3925(15) 0.3555(9)
H34 H 0.0851 1.3850 0.3369
C32 C 0.0416(3) 1.3324(9) 0.3756(6)
C33 C 0.4920(3) 0.6515(10) 0.8891(7)
H35 H 0.5072 0.6899 0.9347
C34 C 0.0082(3) 1.3483(11) 0.4056(7)
H36 H -0.0066 1.3096 0.4215
N5 N 0.4798(5) 0.5240(9) 0.8493(10)
N6 N 0.0184(5) 1.4779(9) 0.3897(7)
C35 C 0.4493(8) 0.5456(18) 0.7610(18)
H37 H 0.4342 0.5070 0.7154
C36 C 0.0483(8) 1.4593(16) 0.3625(13)
H38 H 0.0620 1.4990 0.3457
C37 C 0.5018(4) 0.5791(12) 0.9137(10)
H39 H 0.5247 0.5665 0.9775
C38 C -0.0020(4) 1.4212(12) 0.4108(8)
H40 H -0.0245 1.4327 0.4303
C39 C 0.4112(7) 0.7860(15) 0.7879(9)
H41 H 0.3975 0.7437 0.8054
H42 H 0.4340 0.8119 0.8479
Cd1C Cd 0.249997(16) 0.499991(17) 1.58580(3)
N2C N 0.20792(17) 1.0738(2) 0.9731(3)
O1 O 0.0581(6) 0.6265(9) 0.4517(14)
H43 H 0.078(8) 0.636(13) 0.432(18)
H44 H 0.061(11) 0.581(6) 0.47(2)
O2 O 0.0583(6) 0.1254(10) 0.1642(11)
H45 H 0.069(10) 0.088(11) 0.148(17)
H46 H 0.068(11) 0.124(15) 0.224(6)
loop_
_geom_bond_atom_site_label_1
_geom_bond_atom_site_label_2
_geom_bond_site_symmetry_1
_geom_bond_site_symmetry_2
Cd1 Cl1 1_555 1_555
Cl2 Cd1 1_555 1_555
N1 Cd1 1_555 1_555
N2 C2 1_555 1_555
N3 Cd1 1_555 1_555
N4 Cd1 1_555 1_555
C1 N1 1_555 1_555
H1 C1 1_555 1_555
C2 H2 1_555 1_555
C3 C7 1_555 1_555
C4 C9 1_555 1_555
C5 H3 1_555 1_555
H4 C5 1_555 1_555
C6 N4 1_555 1_555
H5 C6 1_555 1_555
C7 H6 1_555 1_555
C8 N3 1_555 1_555
H7 C8 1_555 1_555
C9 C1 1_555 1_555
H8 C9 1_555 1_555
C10 C2 1_555 1_555
H9 C10 1_555 1_555
C11 N1 1_555 1_555
H10 C11 1_555 1_555
C12 N4 1_555 1_555
H11 C12 1_555 1_555
C13 N2 1_555 1_555
H12 C13 1_555 1_555
C14 C4 1_555 1_555
H13 C14 1_555 1_555
H14 C14 1_555 1_555
C15 N3 1_555 1_555
H15 C15 1_555 1_555
C16 C3 1_555 1_555
H16 C16 1_555 1_555
H17 C16 1_555 1_555
C17 C4 1_555 1_555
H18 C17 1_555 1_555
C18 C8 1_555 1_555
H19 C18 1_555 1_555
C19 C15 1_555 1_555
H20 C19 1_555 1_555
C20 C18 1_555 1_555
C21 C12 1_555 1_555
H21 C21 1_555 1_555
C22 C28 1_555 1_555
C23 C21 1_555 1_555
C24 C6 1_555 1_555
H22 C24 1_555 1_555
C25 C20 1_555 1_555
H23 C25 1_555 1_555
H24 C25 1_555 1_555
C26 C23 1_555 1_555
H25 C26 1_555 1_555
H26 C26 1_555 1_555
C27 H27 1_555 1_555
H28 C27 1_555 1_555
C28 H29 1_555 1_555
H30 C28 1_555 1_555
C29 C26 1_555 1_555
H31 C29 1_555 1_555
H32 C29 1_555 1_555
C30 C22 1_555 1_555
H33 C30 1_555 1_555
C31 H34 1_555 1_555
C32 C27 1_555 1_555
C33 C22 1_555 1_555
H35 C33 1_555 1_555
C34 C32 1_555 1_555
H36 C34 1_555 1_555
N5 C35 1_555 1_555
N6 C36 1_555 1_555
C35 C30 1_555 1_555
H37 C35 1_555 1_555
C36 C31 1_555 1_555
H38 C36 1_555 1_555
C37 C33 1_555 1_555
H39 C37 1_555 1_555
C38 C34 1_555 1_555
H40 C38 1_555 1_555
C39 C25 1_555 1_555
H41 C39 1_555 1_555
H42 C39 1_555 1_555
O1 H43 1_555 1_555
H44 O1 1_555 1_555
O2 H45 1_555 1_555
H46 O2 1_555 1_555
Cd1C N2 1_555 1_555
N2C Cd1 1_555 1_555
C3 C10 1_555 1_555
C5 C14 1_555 1_555
C5 C16 1_555 1_555
C7 C13 1_555 1_555
C11 C17 1_555 1_555
C19 C20 1_555 1_555
C23 C24 1_555 1_555
C27 C29 1_555 1_555
C28 C39 1_555 1_555
C31 C32 1_555 1_555
N5 C37 1_555 1_555
N6 C38 1_555 1_555

#END
