
#######################################################################
#
#                 Cambridge Crystallographic Data Centre
#                                CCDC 
#
#######################################################################
#
# If this CIF has been generated from an entry in the Cambridge 
# Structural Database, then it will include bibliographic, chemical, 
# crystal, experimental, refinement or atomic coordinate data resulting 
# from the CCDC's data processing and validation procedures.
#
#######################################################################

data_CUPMOQ
_symmetry_cell_setting           monoclinic
_symmetry_space_group_name_H-M   'C 2/c'
_symmetry_Int_Tables_number      15
_space_group_name_Hall           '-C 2yn'
loop_
_symmetry_equiv_pos_site_id
_symmetry_equiv_pos_as_xyz
1 x,y,z
2 -x,y,1/2-z
3 1/2+x,1/2+y,z
4 1/2-x,1/2+y,1/2-z
5 -x,-y,-z
6 x,-y,1/2+z
7 1/2-x,1/2-y,-z
8 1/2+x,1/2-y,1/2+z
_cell_length_a                   22.062(9)
_cell_length_b                   16.984(8)
_cell_length_c                   15.647(7)
_cell_angle_alpha                90
_cell_angle_beta                 118.183(6)
_cell_angle_gamma                90
_cell_volume                     5167.86
loop_
_atom_site_label
_atom_site_type_symbol
_atom_site_fract_x
_atom_site_fract_y
_atom_site_fract_z
Cu1 Cu 0.78749(8) 0.00088(9) -1.55088(12)
Cl1 Cl 0.86317(19) -0.1025(2) -1.5067(3)
Cl2 Cl 0.6933(2) 0.0776(2) -1.6402(3)
C1 C 0.9034(8) 0.1794(8) -1.2588(11)
C2 C 0.8628(7) 0.3610(9) -1.0357(10)
C3 C 0.8470(8) 0.4378(10) -1.0601(11)
H1 H 0.8673 0.4652 -1.0915
C4 C 1.00000 0.1342(10) -1.75
H2 H 1.03 0.1007 -1.6964
N1 N 0.8407(6) 0.0561(6) -1.6109(8)
N2 N 0.8395(6) 0.0802(7) -1.4186(9)
N3 N 0.7714(5) 0.4384(7) -0.9933(8)
C5 C 0.9457(8) 0.1074(9) -1.5930(11)
H3 H 0.9927 0.1141 -1.5532
C6 C 0.8823(7) 0.2706(8) -1.1498(9)
H4 H 0.853 0.3044 -1.2036
H5 H 0.8536 0.2303 -1.1433
C7 C 0.9085(8) 0.0651(8) -1.5579(11)
H6 H 0.9311 0.0427 -1.4965
C8 C 0.7862(8) 0.3631(9) -0.9715(10)
H7 H 0.7651 0.336 -0.9411
C9 C 0.9354(8) 0.2319(9) -1.1718(12)
H8 H 0.962 0.2724 -1.1826
H9 H 0.9667 0.2012 -1.116
C10 C 0.8668(10) 0.2085(10) -1.3507(13)
H10 H 0.863 0.2626 -1.3614
C11 C 0.8470(8) 0.1274(9) -1.7358(10)
H11 H 0.8239 0.1489 -1.7977
C12 C 0.8353(9) 0.1566(8) -1.4279(11)
H12 H 0.8097 0.1775 -1.4898
C13 C 0.9073(8) 0.0991(10) -1.2531(12)
H13 H 0.9326 0.0758 -1.1926
C14 C 0.9572(9) 0.1858(9) -1.7193(13)
H14 H 0.9873 0.2222 -1.6697
H15 H 0.9252 0.2164 -1.7746
C15 C 0.9172(8) 0.1386(8) -1.6805(12)
C16 C 0.8326(8) 0.3237(9) -0.9929(11)
H16 H 0.8422 0.2708 -0.9768
C17 C 0.8113(7) 0.0850(8) -1.6996(10)
H17 H 0.7646 0.0762 -1.7392
C18 C 0.9151(7) 0.3180(9) -1.0592(11)
H18 H 0.9452 0.3568 -1.0652
H19 H 0.9433 0.2836 -1.0055
C19 C 0.8761(9) 0.0523(9) -1.3311(12)
H20 H 0.8806 -0.002 -1.3226
C20 C 0.8019(8) 0.4737(9) -1.0384(12)
H21 H 0.7915 0.5262 -1.0559
Cu1A Cu 1.21251(8) 0.00088(9) -1.94912(12)
Cu1C Cu 0.71251(8) 0.50088(9) -0.94912(12)
Cu1B Cu 1.28749(8) 0.50088(9) -2.55088(12)
Cl1A Cl 1.13683(19) -0.1025(2) -1.9933(3)
Cl2A Cl 1.3067(2) 0.0776(2) -1.8598(3)
C1A C 1.0966(8) 0.1794(8) -2.2412(11)
C2A C 1.1372(7) 0.3610(9) -2.4643(10)
C3A C 1.1530(8) 0.4378(10) -2.4399(11)
H1A H 1.1327 0.4652 -2.4085
H2A H 0.97 0.1007 -1.8036
N1A N 1.1593(6) 0.0561(6) -1.8891(8)
N2A N 1.1605(6) 0.0802(7) -2.0814(9)
N3C N 0.7286(5) -0.0616(7) -1.5067(8)
N3B N 1.2714(5) -0.0616(7) -1.9933(8)
N3A N 1.2286(5) 0.4384(7) -2.5067(8)
C5A C 1.0543(8) 0.1074(9) -1.9070(11)
H3A H 1.0073 0.1141 -1.9468
C6A C 1.1177(7) 0.2706(8) -2.3502(9)
H4A H 1.147 0.3044 -2.2964
H5A H 1.1464 0.2303 -2.3567
C7A C 1.0915(8) 0.0651(8) -1.9421(11)
H6A H 1.0689 0.0427 -2.0035
C8A C 1.2138(8) 0.3631(9) -2.5285(10)
H7A H 1.2349 0.336 -2.5589
C9A C 1.0646(8) 0.2319(9) -2.3282(12)
H8A H 1.038 0.2724 -2.3174
H9A H 1.0333 0.2012 -2.384
C10A C 1.1332(10) 0.2085(10) -2.1493(13)
H10A H 1.137 0.2626 -2.1386
C11A C 1.1530(8) 0.1274(9) -1.7642(10)
H11A H 1.1761 0.1489 -1.7023
C12A C 1.1647(9) 0.1566(8) -2.0721(11)
H12A H 1.1903 0.1775 -2.0102
C13A C 1.0927(8) 0.0991(10) -2.2469(12)
H13A H 1.0674 0.0758 -2.3074
C14A C 1.0428(9) 0.1858(9) -1.7807(13)
H14A H 1.0127 0.2222 -1.8303
H15A H 1.0748 0.2164 -1.7254
C15A C 1.0828(8) 0.1386(8) -1.8195(12)
C16A C 1.1674(8) 0.3237(9) -2.5071(11)
H16A H 1.1578 0.2708 -2.5232
C17A C 1.1887(7) 0.0850(8) -1.8004(10)
H17A H 1.2354 0.0762 -1.7608
C18A C 1.0849(7) 0.3180(9) -2.4408(11)
H18A H 1.0548 0.3568 -2.4348
H19A H 1.0567 0.2836 -2.4945
C19A C 1.1239(9) 0.0523(9) -2.1689(12)
H20A H 1.1194 -0.002 -2.1774
C20A C 1.1981(8) 0.4737(9) -2.4616(12)
H21A H 1.2085 0.5262 -2.4441
C21 C 0.1238(17) 0.6792(18) -0.4357(19)
H22 H 0.0997 0.7293 -0.4525
H23 H 0.1164 0.6534 -0.4951
C22 C 0.0997(11) 0.6342(19) -0.388(2)
H24 H 0.0896 0.5816 -0.4158
H25 H 0.0579 0.6567 -0.3927
O1 O 0.150(2) 0.631(2) -0.293(2)
C23 C 0.2160(14) 0.640(3) -0.283(2)
H26 H 0.2364 0.5905 -0.286
H27 H 0.2467 0.6683 -0.224
C24 C 0.1933(18) 0.6914(17) -0.376(3)
H28 H 0.2021 0.7467 -0.3592
H29 H 0.219 0.6762 -0.4097
O3 O 0.50000 -0.062(4) 0.25000
O2? O 0.495(2) 0.033(2) 0.192(3)
loop_
_geom_bond_atom_site_label_1
_geom_bond_atom_site_label_2
_geom_bond_site_symmetry_1
_geom_bond_site_symmetry_2
Cu1 Cl1 1_555 1_555
Cl2 Cu1 1_555 1_555
C1 C9 1_555 1_555
C2 C3 1_555 1_555
C3 H1 1_555 1_555
C4 H2 1_555 1_555
N1 Cu1 1_555 1_555
N2 Cu1 1_555 1_555
N3 C8 1_555 1_555
C5 H3 1_555 1_555
C6 H4 1_555 1_555
H5 C6 1_555 1_555
C7 N1 1_555 1_555
H6 C7 1_555 1_555
C8 H7 1_555 1_555
C9 C6 1_555 1_555
H8 C9 1_555 1_555
H9 C9 1_555 1_555
C10 C1 1_555 1_555
H10 C10 1_555 1_555
C11 H11 1_555 1_555
C12 N2 1_555 1_555
H12 C12 1_555 1_555
C13 C1 1_555 1_555
H13 C13 1_555 1_555
C14 C4 1_555 1_555
H14 C14 1_555 1_555
H15 C14 1_555 1_555
C15 C5 1_555 1_555
C16 C2 1_555 1_555
H16 C16 1_555 1_555
C17 N1 1_555 1_555
H17 C17 1_555 1_555
C18 C2 1_555 1_555
H18 C18 1_555 1_555
H19 C18 1_555 1_555
C19 N2 1_555 1_555
H20 C19 1_555 1_555
C20 C3 1_555 1_555
H21 C20 1_555 1_555
C21 H22 1_555 1_555
H23 C21 1_555 1_555
C22 C21 1_555 1_555
H24 C22 1_555 1_555
H25 C22 1_555 1_555
O1 C22 1_555 1_555
C23 O1 1_555 1_555
H26 C23 1_555 1_555
H27 C23 1_555 1_555
C24 C21 1_555 1_555
H28 C24 1_555 1_555
H29 C24 1_555 1_555
Cu1A Cl1A 1_555 1_555
Cu1C N3 1_555 1_555
Cu1B N3A 1_555 1_555
Cl2A Cu1A 1_555 1_555
C1A C9A 1_555 1_555
C2A C3A 1_555 1_555
C3A H1A 1_555 1_555
H2A C4 1_555 1_555
N1A Cu1A 1_555 1_555
N2A Cu1A 1_555 1_555
N3C Cu1 1_555 1_555
N3B Cu1A 1_555 1_555
N3A C8A 1_555 1_555
C5A H3A 1_555 1_555
C6A H4A 1_555 1_555
H5A C6A 1_555 1_555
C7A N1A 1_555 1_555
H6A C7A 1_555 1_555
C8A H7A 1_555 1_555
C9A C6A 1_555 1_555
H8A C9A 1_555 1_555
H9A C9A 1_555 1_555
C10A C1A 1_555 1_555
H10A C10A 1_555 1_555
C11A H11A 1_555 1_555
C12A N2A 1_555 1_555
H12A C12A 1_555 1_555
C13A C1A 1_555 1_555
H13A C13A 1_555 1_555
C14A C4 1_555 1_555
H14A C14A 1_555 1_555
H15A C14A 1_555 1_555
C15A C5A 1_555 1_555
C16A C2A 1_555 1_555
H16A C16A 1_555 1_555
C17A N1A 1_555 1_555
H17A C17A 1_555 1_555
C18A C2A 1_555 1_555
H18A C18A 1_555 1_555
H19A C18A 1_555 1_555
C19A N2A 1_555 1_555
H20A C19A 1_555 1_555
C20A C3A 1_555 1_555
H21A C20A 1_555 1_555
N3 C20 1_555 1_555
C5 C7 1_555 1_555
C6 C18 1_555 1_555
C8 C16 1_555 1_555
C10 C12 1_555 1_555
C11 C15 1_555 1_555
C11 C17 1_555 1_555
C13 C19 1_555 1_555
C14 C15 1_555 1_555
C23 C24 1_555 1_555
N3A C20A 1_555 1_555
C5A C7A 1_555 1_555
C6A C18A 1_555 1_555
C8A C16A 1_555 1_555
C10A C12A 1_555 1_555
C11A C15A 1_555 1_555
C11A C17A 1_555 1_555
C13A C19A 1_555 1_555
C14A C15A 1_555 1_555

#END
