
#######################################################################
#
#                 Cambridge Crystallographic Data Centre
#                                CCDC 
#
#######################################################################
#
# If this CIF has been generated from an entry in the Cambridge 
# Structural Database, then it will include bibliographic, chemical, 
# crystal, experimental, refinement or atomic coordinate data resulting 
# from the CCDC's data processing and validation procedures.
#
#######################################################################

data_CUPPUZ
_symmetry_cell_setting           triclinic
_symmetry_space_group_name_H-M   'P -1'
_symmetry_Int_Tables_number      2
_space_group_name_Hall           '-P 1'
loop_
_symmetry_equiv_pos_site_id
_symmetry_equiv_pos_as_xyz
1 x,y,z
2 -x,-y,-z
_cell_length_a                   6.6689(2)
_cell_length_b                   14.6530(6)
_cell_length_c                   17.7039(7)
_cell_angle_alpha                85.283(2)
_cell_angle_beta                 89.877(2)
_cell_angle_gamma                87.914(2)
_cell_volume                     1723.01
loop_
_atom_site_label
_atom_site_type_symbol
_atom_site_fract_x
_atom_site_fract_y
_atom_site_fract_z
Na1 Na 0.17099(19) -0.43957(10) -0.05946(8)
S1 S 0.84899(11) -0.26382(6) 0.28400(5)
O1 O 0.9978(3) -0.28736(16) 0.34371(14)
O3 O 0.6579(3) -0.23574(16) 0.31643(14)
O4 O 0.1866(4) -0.35205(18) -0.17922(15)
O6 O 0.8325(4) -0.33590(16) 0.23313(14)
O7 O 0.4930(4) -0.38653(18) -0.03228(17)
O9 O -0.0880(4) -0.27831(19) -0.02774(16)
O10 O -0.1570(4) -0.48773(19) -0.06663(16)
O12 O 0.3383(4) -0.5697(2) -0.11178(16)
N1 N 0.6709(4) -0.16791(19) 0.14208(17)
N3 N 0.6017(4) -0.1335(2) 0.08011(17)
C1 C 1.2085(5) -0.0581(2) 0.2134(2)
H1 H 1.3294 -0.0341 0.2303
C3 C 1.1227(5) -0.1318(2) 0.2550(2)
H3 H 1.1858 -0.1581 0.3001
C5 C 0.9462(5) -0.1668(2) 0.23078(18)
C7 C 0.8516(5) -0.1285(2) 0.16443(19)
C9 C 0.9404(5) -0.0543(2) 0.1228(2)
H5 H 0.8785 -0.0278 0.0776
C11 C 1.1161(5) -0.0202(2) 0.1473(2)
H7 H 1.1747 0.0298 0.1187
C13 C 0.4230(5) -0.1715(2) 0.0569(2)
C15 C 0.3503(5) -0.1382(2) -0.0143(2)
H9 H 0.4202 -0.0919 -0.0431
C17 C 0.1780(5) -0.1716(2) -0.0434(2)
H11 H 0.1290 -0.1484 -0.0918
C19 C 0.0771(5) -0.2395(2) -0.0009(2)
C21 C 0.1450(5) -0.2713(2) 0.0719(2)
H13 H 0.0719 -0.3157 0.1015
C23 C 0.3170(5) -0.2383(2) 0.10018(19)
H15 H 0.3642 -0.2606 0.1491
H17 H -0.114(7) -0.254(3) -0.073(3)
H19 H 0.091(6) -0.315(3) -0.185(2)
H20 H 0.292(8) -0.330(3) -0.175(3)
H21 H 0.532(8) -0.380(4) 0.012(4)
H22 H 0.516(7) -0.336(4) -0.054(3)
H23 H -0.253(7) -0.454(3) -0.060(3)
H24 H -0.179(9) -0.503(4) -0.111(4)
H25 H 0.438(9) -0.550(4) -0.136(3)
H26 H 0.291(8) -0.603(4) -0.130(3)
Na1A Na -0.17099(19) -0.56043(10) 0.05946(8)
O10A O 0.1570(4) -0.51227(19) 0.06663(16)
H23A H 0.253(7) -0.546(3) 0.060(3)
H24A H 0.179(9) -0.497(4) 0.111(4)
Na2 Na 0.73520(19) -0.45386(9) -0.48278(8)
S2 S -0.32544(11) -0.24248(5) -0.21436(5)
O2 O -0.4711(3) -0.25487(17) -0.15299(14)
O5 O -0.1322(3) -0.21804(16) -0.18630(14)
O8 O -0.3129(4) -0.32093(16) -0.25971(14)
O11 O 0.6324(4) -0.28964(17) -0.52319(15)
O13 O 0.8868(4) -0.3973(2) -0.38101(16)
O14 O 1.0721(4) -0.40410(18) -0.52600(17)
O15 O 0.5484(4) -0.48838(19) -0.58898(15)
N2 N -0.1504(4) -0.16218(19) -0.36127(16)
N4 N -0.0836(4) -0.13290(19) -0.42487(16)
C2 C -0.7025(5) -0.0389(2) -0.2997(2)
H2 H -0.8269 -0.0120 -0.2851
C4 C -0.6096(5) -0.1086(2) -0.2533(2)
H4 H -0.6709 -0.1295 -0.2069
C6 C -0.4275(4) -0.1482(2) -0.27407(19)
C8 C -0.3366(4) -0.1179(2) -0.34258(19)
C10 C -0.4317(5) -0.0475(2) -0.3886(2)
H6 H -0.3710 -0.0261 -0.4350
C12 C -0.6130(5) -0.0086(2) -0.3676(2)
H8 H -0.6765 0.0390 -0.3997
C14 C 0.1016(5) -0.1745(2) -0.44575(19)
C16 C 0.1682(5) -0.1487(2) -0.5188(2)
H10 H 0.0907 -0.1058 -0.5507
C18 C 0.3463(5) -0.1854(2) -0.54514(19)
H12 H 0.3917 -0.1672 -0.5948
C20 C 0.4585(4) -0.2487(2) -0.49901(19)
C22 C 0.3956(5) -0.2735(2) -0.42487(19)
H14 H 0.4754 -0.3153 -0.3927
C24 C 0.2181(5) -0.2372(2) -0.39876(19)
H16 H 0.1743 -0.2546 -0.3487
H18 H 0.652(7) -0.272(3) -0.565(3)
H27 H 0.831(7) -0.366(3) -0.355(3)
H28 H 0.976(8) -0.423(4) -0.357(3)
H29 H 1.064(7) -0.377(4) -0.486(3)
H30 H 1.061(7) -0.365(3) -0.556(3)
H31 H 0.485(7) -0.450(4) -0.616(3)
H32 H 0.620(7) -0.507(3) -0.622(3)
Na2A Na 1.26480(19) -0.54614(9) -0.51722(8)
Na2A_2 Na 0.26480(19) -0.54614(9) -0.51722(8)
O14A O 0.9279(4) -0.59590(18) -0.47400(17)
O15A O 0.4516(4) -0.51162(19) -0.41102(15)
H29A H 0.936(7) -0.623(4) -0.514(3)
H30A H 0.939(7) -0.635(3) -0.444(3)
H31A H 0.515(7) -0.550(4) -0.384(3)
H32A H 0.380(7) -0.493(3) -0.378(3)
O16 O 0.3447(4) -0.4909(2) 0.20219(16)
H33 H 0.339(8) -0.538(4) 0.221(3)
H34 H 0.339(7) -0.451(4) 0.234(3)
O17 O 0.8076(4) -0.5240(2) 0.29105(16)
H35 H 0.796(7) -0.559(4) 0.253(3)
H36 H 0.822(7) -0.475(3) 0.274(3)
O18 O 1.3617(4) -0.36229(17) 0.30537(15)
H37 H 1.455(8) -0.318(4) 0.304(3)
H38 H 1.248(7) -0.337(3) 0.313(3)
loop_
_geom_bond_atom_site_label_1
_geom_bond_atom_site_label_2
_geom_bond_site_symmetry_1
_geom_bond_site_symmetry_2
Na1 O4 1_555 1_555
Na2 O11 1_555 1_555
S1 O1 1_555 1_555
S2 O2 1_555 1_555
O3 S1 1_555 1_555
O4 H19 1_555 1_555
O5 S2 1_555 1_555
O6 S1 1_555 1_555
O7 Na1 1_555 1_555
O8 S2 1_555 1_555
O9 Na1 1_555 1_555
O10 Na1 1_555 1_555
O11 C20 1_555 1_555
O12 Na1 1_555 1_555
O13 Na2 1_555 1_555
O14 Na2 1_555 1_555
O15 Na2 1_555 1_555
O16 H33 1_555 1_555
O17 H35 1_555 1_555
O18 H37 1_555 1_555
N1 N3 1_555 1_555
N2 N4 1_555 1_555
N3 C13 1_555 1_555
N4 C14 1_555 1_555
C1 H1 1_555 1_555
C2 H2 1_555 1_555
C3 C1 1_555 1_555
H3 C3 1_555 1_555
C4 C2 1_555 1_555
H4 C4 1_555 1_555
C5 S1 1_555 1_555
C6 S2 1_555 1_555
C7 N1 1_555 1_555
C8 N2 1_555 1_555
C9 C7 1_555 1_555
H5 C9 1_555 1_555
C10 C8 1_555 1_555
H6 C10 1_555 1_555
C11 C1 1_555 1_555
H7 C11 1_555 1_555
C12 C2 1_555 1_555
H8 C12 1_555 1_555
C13 C15 1_555 1_555
C14 C16 1_555 1_555
C15 H9 1_555 1_555
C16 H10 1_555 1_555
C17 C15 1_555 1_555
H11 C17 1_555 1_555
C18 C16 1_555 1_555
H12 C18 1_555 1_555
C19 O9 1_555 1_555
C20 C18 1_555 1_555
C21 C19 1_555 1_555
H13 C21 1_555 1_555
C22 C20 1_555 1_555
H14 C22 1_555 1_555
C23 C13 1_555 1_555
H15 C23 1_555 1_555
C24 C14 1_555 1_555
H16 C24 1_555 1_555
H17 O9 1_555 1_555
H18 O11 1_555 1_555
H20 O4 1_555 1_555
H21 O7 1_555 1_555
H22 O7 1_555 1_555
H23 O10 1_555 1_555
H24 O10 1_555 1_555
H25 O12 1_555 1_555
H26 O12 1_555 1_555
H27 O13 1_555 1_555
H28 O13 1_555 1_555
H29 O14 1_555 1_555
H30 O14 1_555 1_555
H31 O15 1_555 1_555
H32 O15 1_555 1_555
H34 O16 1_555 1_555
H36 O17 1_555 1_555
H38 O18 1_555 1_555
Na1A O10 1_555 1_555
Na2A O14 1_555 1_555
Na2A_2 O15 1_555 1_555
O10A Na1 1_555 1_555
O14A Na2 1_555 1_555
O15A Na2 1_555 1_555
H23A O10A 1_555 1_555
H24A O10A 1_555 1_555
H29A O14A 1_555 1_555
H30A O14A 1_555 1_555
H31A O15A 1_555 1_555
H32A O15A 1_555 1_555
C3 C5 1_555 1_555
C4 C6 1_555 1_555
C5 C7 1_555 1_555
C6 C8 1_555 1_555
C9 C11 1_555 1_555
C10 C12 1_555 1_555
C17 C19 1_555 1_555
C21 C23 1_555 1_555
C22 C24 1_555 1_555
Na1A O10A 1_555 1_555
Na2A O14A 1_555 1_555
Na2A_2 O15A 1_555 1_555

#END
