
#######################################################################
#
#                 Cambridge Crystallographic Data Centre
#                                CCDC 
#
#######################################################################
#
# If this CIF has been generated from an entry in the Cambridge 
# Structural Database, then it will include bibliographic, chemical, 
# crystal, experimental, refinement or atomic coordinate data resulting 
# from the CCDC's data processing and validation procedures.
#
#######################################################################

data_CUPROV
_symmetry_cell_setting           triclinic
_symmetry_space_group_name_H-M   'P -1'
_symmetry_Int_Tables_number      2
_space_group_name_Hall           '-P 1'
loop_
_symmetry_equiv_pos_site_id
_symmetry_equiv_pos_as_xyz
1 x,y,z
2 -x,-y,-z
_cell_length_a                   8.419(4)
_cell_length_b                   8.769(4)
_cell_length_c                   13.768(6)
_cell_angle_alpha                100.981(5)
_cell_angle_beta                 100.715(5)
_cell_angle_gamma                99.891(5)
_cell_volume                     957.546
loop_
_atom_site_label
_atom_site_type_symbol
_atom_site_fract_x
_atom_site_fract_y
_atom_site_fract_z
Na1 Na 1.2093(2) 0.0287(2) 0.96567(14)
S1 S 0.89486(13) 0.06291(12) 0.85148(9)
O1 O 0.9612(4) 0.1566(4) 0.9550(2)
O2 O 0.7668(4) -0.0744(3) 0.8507(2)
O3 O 1.0247(4) 0.0204(4) 0.8024(2)
O4 O 0.5610(4) -0.8882(4) 0.2349(3)
O5 O 0.7221(4) -0.7810(4) 0.1010(3)
O6 O 1.4442(4) 0.1676(4) 0.9381(3)
N1 N 0.7541(4) -0.0217(4) 0.6287(3)
N2 N 0.7710(4) -0.0319(4) 0.5399(3)
N3 N 0.8507(4) -0.6182(4) 0.3261(3)
C1 C 0.6579(5) 0.4065(5) 0.7840(4)
C2 C 0.7554(5) 0.3189(5) 0.8345(3)
H1 H 0.7992 0.3542 0.9057
C3 C 0.7890(5) 0.1805(5) 0.7817(3)
C4 C 0.7295(5) 0.1291(5) 0.6774(3)
C5 C 0.6371(5) 0.2203(5) 0.6255(3)
H2 H 0.5996 0.1895 0.5537
C6 C 0.6010(5) 0.3554(5) 0.6797(4)
H3 H 0.5356 0.4144 0.6443
C7 C 0.7892(5) -0.1820(5) 0.4902(3)
C8 C 0.8369(5) -0.1942(5) 0.3977(3)
H4 H 0.8547 -0.1021 0.3711
C9 C 0.8588(5) -0.3347(5) 0.3439(3)
H5 H 0.8939 -0.3377 0.2820
C10 C 0.8293(5) -0.4768(5) 0.3804(3)
C11 C 0.7807(5) -0.4637(5) 0.4736(3)
H6 H 0.7606 -0.5558 0.5001
C12 C 0.7616(5) -0.3217(5) 0.5273(3)
H7 H 0.7295 -0.3172 0.5902
C13 C 0.8108(5) -0.7655(5) 0.3617(4)
H8 H 0.8581 -0.7432 0.4357
H9 H 0.8643 -0.8460 0.3278
C14 C 0.6255(5) -0.8349(5) 0.3413(3)
H10 H 0.6060 -0.9248 0.3745
H11 H 0.5688 -0.7527 0.3697
C15 C 0.9422(5) -0.6199(5) 0.2456(3)
H12 H 0.9975 -0.7111 0.2426
H13 H 1.0298 -0.5216 0.2642
C16 C 0.8390(6) -0.6316(5) 0.1409(4)
H14 H 0.7784 -0.5442 0.1440
H15 H 0.9135 -0.6177 0.0939
C17 C 0.6161(6) 0.5521(6) 0.8436(4)
H16 H 0.7165 0.6362 0.8702
H17 H 0.5706 0.5248 0.9002
H18 H 0.5340 0.5897 0.7990
H19 H 0.461(7) -0.901(7) 0.220(4)
H20 H 0.667(7) -0.805(6) 0.141(4)
H21 H 1.537(9) 0.205(8) 0.991(5)
H22 H 1.479(8) 0.114(8) 0.876(5)
Na1A Na 0.7907(2) -0.0287(2) 1.03433(14)
Na1A_2 Na 0.7907(2) -1.0287(2) 0.03433(14)
O1A O 1.0388(4) -0.1566(4) 1.0450(2)
O2A O 1.2332(4) 0.0744(3) 1.1493(2)
O5A O 1.2779(4) -0.2190(4) 0.8990(3)
H20A H 1.333(7) -0.195(6) 0.859(4)
loop_
_geom_bond_atom_site_label_1
_geom_bond_atom_site_label_2
_geom_bond_site_symmetry_1
_geom_bond_site_symmetry_2
Na1 O1 1_555 1_555
S1 O1 1_555 1_555
O1 Na1A 1_555 1_555
O2 S1 1_555 1_555
O3 Na1 1_555 1_555
O4 C14 1_555 1_555
O5 C16 1_555 1_555
O6 Na1 1_555 1_555
N1 N2 1_555 1_555
N2 C7 1_555 1_555
N3 C10 1_555 1_555
C1 C2 1_555 1_555
C2 H1 1_555 1_555
C3 S1 1_555 1_555
C4 N1 1_555 1_555
C5 C4 1_555 1_555
H2 C5 1_555 1_555
C6 C1 1_555 1_555
H3 C6 1_555 1_555
C7 C8 1_555 1_555
C8 H4 1_555 1_555
C9 C8 1_555 1_555
H5 C9 1_555 1_555
C10 C9 1_555 1_555
C11 C10 1_555 1_555
H6 C11 1_555 1_555
C12 C7 1_555 1_555
H7 C12 1_555 1_555
C13 N3 1_555 1_555
H8 C13 1_555 1_555
H9 C13 1_555 1_555
C14 C13 1_555 1_555
H10 C14 1_555 1_555
H11 C14 1_555 1_555
C15 N3 1_555 1_555
H12 C15 1_555 1_555
H13 C15 1_555 1_555
C16 C15 1_555 1_555
H14 C16 1_555 1_555
H15 C16 1_555 1_555
C17 C1 1_555 1_555
H16 C17 1_555 1_555
H17 C17 1_555 1_555
H18 C17 1_555 1_555
H19 O4 1_555 1_555
H20 O5 1_555 1_555
H21 O6 1_555 1_555
H22 O6 1_555 1_555
Na1A O2 1_555 1_555
Na1A_2 O5 1_555 1_555
O1A Na1 1_555 1_555
O2A Na1 1_555 1_555
O5A Na1 1_555 1_555
H20A O5A 1_555 1_555
S1 O3 1_555 1_555
C2 C3 1_555 1_555
C3 C4 1_555 1_555
C5 C6 1_555 1_555
C11 C12 1_555 1_555
Na1A O1A 1_555 1_555

#END
