
#######################################################################
#
#                 Cambridge Crystallographic Data Centre
#                                CCDC 
#
#######################################################################
#
# If this CIF has been generated from an entry in the Cambridge 
# Structural Database, then it will include bibliographic, chemical, 
# crystal, experimental, refinement or atomic coordinate data resulting 
# from the CCDC's data processing and validation procedures.
#
#######################################################################

data_CUPSOW
_symmetry_cell_setting           monoclinic
_symmetry_space_group_name_H-M   'C 2/c'
_symmetry_Int_Tables_number      15
_space_group_name_Hall           '-C 2yn'
loop_
_symmetry_equiv_pos_site_id
_symmetry_equiv_pos_as_xyz
1 x,y,z
2 -x,y,1/2-z
3 1/2+x,1/2+y,z
4 1/2-x,1/2+y,1/2-z
5 -x,-y,-z
6 x,-y,1/2+z
7 1/2-x,1/2-y,-z
8 1/2+x,1/2-y,1/2+z
_cell_length_a                   28.2978(12)
_cell_length_b                   6.7645(3)
_cell_length_c                   13.5590(7)
_cell_angle_alpha                90
_cell_angle_beta                 96.228(2)
_cell_angle_gamma                90
_cell_volume                     2580.15
loop_
_atom_site_label
_atom_site_type_symbol
_atom_site_fract_x
_atom_site_fract_y
_atom_site_fract_z
K1 K 0.24514(2) -0.09825(8) 0.36577(4)
S1 S 0.19177(2) -0.07351(9) 0.12171(4)
O1 O 0.20109(6) 0.0919(3) 0.18972(13)
O2 O 0.20122(6) -0.0263(3) 0.02186(14)
O3 O 0.21487(7) -0.2521(3) 0.16178(14)
O4 O 0.17709(7) 0.3581(3) -0.05100(16)
N1 N 0.11099(7) 0.1837(3) 0.03212(15)
N2 N 0.07885(7) 0.3046(3) -0.00016(15)
C1 C 0.12930(8) -0.1204(4) 0.12148(17)
C2 C 0.11507(9) -0.2890(4) 0.16818(18)
H1 H 0.1381 -0.3834 0.1933
C3 C 0.06740(10) -0.3214(4) 0.17857(19)
H2 H 0.0580 -0.4382 0.2101
C4 C 0.03354(10) -0.1831(4) 0.14289(19)
H3 H 0.0010 -0.2045 0.1508
C5 C 0.04718(9) -0.0139(4) 0.09574(19)
H4 H 0.0240 0.0809 0.0716
C6 C 0.09500(9) 0.0172(4) 0.08370(17)
C7 C 0.09457(9) 0.4635(4) -0.05485(17)
C8 C 0.05967(9) 0.6027(4) -0.08779(19)
H5 H 0.0281 0.5864 -0.0715
C9 C 0.07080(10) 0.7635(4) -0.1438(2)
H6 H 0.0471 0.8573 -0.1662
C10 C 0.11719(10) 0.7860(4) -0.1668(2)
H7 H 0.1250 0.8973 -0.2047
C11 C 0.15229(10) 0.6503(4) -0.1359(2)
H8 H 0.1837 0.6679 -0.1533
C12 C 0.14159(9) 0.4880(4) -0.07955(18)
H9 H 0.1647(11) 0.263(5) -0.018(2)
K1C K 0.25486(2) 0.40175(8) 0.13423(4)
K1E K 0.24514(2) 0.09825(8) -0.13423(4)
K1C_2 K 0.25486(2) -0.59825(8) 0.13423(4)
O1C O 0.29891(6) -0.4081(3) 0.31028(13)
O2E O 0.20122(6) 0.0263(3) 0.52186(14)
O3C O 0.28513(7) 0.2479(3) 0.33822(14)
O4E O 0.17709(7) -0.3581(3) 0.44900(16)
O4C O 0.32291(7) -0.1419(3) 0.55100(16)
H9E H 0.1647(11) -0.263(5) 0.482(2)
H9C H 0.3353(11) -0.237(5) 0.518(2)
loop_
_geom_bond_atom_site_label_1
_geom_bond_atom_site_label_2
_geom_bond_site_symmetry_1
_geom_bond_site_symmetry_2
K1 O1 1_555 1_555
S1 O1 1_555 1_555
O1 K1C 1_555 1_555
O2 S1 1_555 1_555
O3 K1 1_555 1_555
O4 C12 1_555 1_555
N1 N2 1_555 1_555
N2 C7 1_555 1_555
C1 S1 1_555 1_555
C2 C1 1_555 1_555
H1 C2 1_555 1_555
C3 C2 1_555 1_555
H2 C3 1_555 1_555
C4 C3 1_555 1_555
H3 C4 1_555 1_555
C5 C4 1_555 1_555
H4 C5 1_555 1_555
C6 N1 1_555 1_555
C7 C8 1_555 1_555
C8 H5 1_555 1_555
C9 C8 1_555 1_555
H6 C9 1_555 1_555
C10 C9 1_555 1_555
H7 C10 1_555 1_555
C11 C10 1_555 1_555
H8 C11 1_555 1_555
C12 C7 1_555 1_555
H9 O4 1_555 1_555
K1C O4 1_555 1_555
K1E O2 1_555 1_555
K1C_2 O3 1_555 1_555
O1C K1 1_555 1_555
O2E K1 1_555 1_555
O3C K1 1_555 1_555
O4E K1 1_555 1_555
O4C K1 1_555 1_555
H9E O4E 1_555 1_555
H9C O4C 1_555 1_555
S1 O3 1_555 1_555
O4 K1E 1_555 1_555
C1 C6 1_555 1_555
C5 C6 1_555 1_555
C11 C12 1_555 1_555
K1C O3C 1_555 1_555
K1C_2 O1C 1_555 1_555

#END
