
#######################################################################
#
#                 Cambridge Crystallographic Data Centre
#                                CCDC 
#
#######################################################################
#
# If this CIF has been generated from an entry in the Cambridge 
# Structural Database, then it will include bibliographic, chemical, 
# crystal, experimental, refinement or atomic coordinate data resulting 
# from the CCDC's data processing and validation procedures.
#
#######################################################################

data_CUPWIV
_symmetry_cell_setting           monoclinic
_symmetry_space_group_name_H-M   'C 2/c'
_symmetry_Int_Tables_number      15
_space_group_name_Hall           '-C 2yn'
loop_
_symmetry_equiv_pos_site_id
_symmetry_equiv_pos_as_xyz
1 x,y,z
2 -x,y,1/2-z
3 1/2+x,1/2+y,z
4 1/2-x,1/2+y,1/2-z
5 -x,-y,-z
6 x,-y,1/2+z
7 1/2-x,1/2-y,-z
8 1/2+x,1/2-y,1/2+z
_cell_length_a                   24.1040(15)
_cell_length_b                   12.5390(8)
_cell_length_c                   17.9067(11)
_cell_angle_alpha                90
_cell_angle_beta                 113.374(3)
_cell_angle_gamma                90
_cell_volume                     4967.97
loop_
_atom_site_label
_atom_site_type_symbol
_atom_site_fract_x
_atom_site_fract_y
_atom_site_fract_z
I1 I 0.457385(5) -0.147739(10) 0.034721(6)
Cu1 Cu 0.501489(8) 0.048209(18) 0.065259(11)
O1 O 0.29130(7) 0.87844(12) 0.27488(7)
N1 N 0.43064(5) 0.14327(12) 0.05322(7)
N2 N 0.06924(5) 0.45091(12) -0.32230(7)
N3 N 0.25183(5) 0.38697(11) -0.06498(7)
C1 C 0.43282(8) 0.21168(15) 0.11093(9)
H1 H 0.4646 0.2057 0.1616
C2 C 0.39074(8) 0.29093(15) 0.10026(9)
H2 H 0.3945 0.3365 0.1430
C3 C 0.34298(6) 0.30230(13) 0.02565(8)
C4 C 0.33942(7) 0.22878(15) -0.03351(9)
H3 H 0.3073 0.2314 -0.0841
C5 C 0.38321(7) 0.15176(16) -0.01791(9)
H4 H 0.3796 0.1032 -0.0588
C6 C 0.29818(6) 0.39083(13) 0.00806(8)
C7 C 0.30512(6) 0.47234(13) 0.06289(8)
H5 H 0.3372 0.4708 0.1135
C8 C 0.26441(7) 0.55676(13) 0.04292(8)
C9 C 0.21655(6) 0.55224(12) -0.03315(8)
H6 H 0.1880 0.6067 -0.0498
C10 C 0.21174(6) 0.46624(13) -0.08375(8)
C11 C 0.16102(6) 0.45915(13) -0.16593(8)
C12 C 0.16237(8) 0.38667(14) -0.22341(9)
H7 H 0.1943 0.3388 -0.2103
C13 C 0.11642(8) 0.38510(15) -0.30024(9)
H8 H 0.1185 0.3361 -0.3380
C14 C 0.06743(7) 0.52021(17) -0.26713(9)
H9 H 0.0349 0.5670 -0.2821
C15 C 0.11140(6) 0.52679(15) -0.18840(8)
H10 H 0.1077 0.5755 -0.1515
C16 C 0.27085(7) 0.64566(13) 0.10065(8)
C17 C 0.32689(9) 0.66843(15) 0.16355(11)
H11 H 0.3611 0.6308 0.1669
C18 C 0.33175(10) 0.74536(17) 0.21990(11)
H12 H 0.3691 0.7590 0.2617
C19 C 0.28183(9) 0.80279(15) 0.21526(9)
C20 C 0.22666(8) 0.78527(15) 0.15213(9)
H13 H 0.1931 0.8257 0.1473
C21 C 0.22223(7) 0.70562(14) 0.09558(9)
H14 H 0.1850 0.6930 0.0532
C22 C 0.24190(10) 0.9444(2) 0.26751(13)
H15 H 0.2289 0.9831 0.2172
H16 H 0.2540 0.9938 0.3121
H17 H 0.2093 0.9012 0.2682
I1D I 0.542615(5) 0.147739(10) -0.034721(6)
Cu1D Cu 0.498511(8) -0.048209(18) -0.065259(11)
Cu1G Cu 0.001489(8) 0.451791(18) -0.434741(11)
N2G N 0.56924(5) 0.04909(12) 0.17770(7)
O2 O 0.0000 0.0171(5) 0.2500
O3 O 0.4274(5) 0.4308(7) 0.2808(4)
C23 C 0.4381(2) 0.4011(5) 0.3445(5)
H18 H 0.4514 0.3314 0.3583
C24 C 0.4178(4) 0.5886(5) 0.3789(6)
H19 H 0.4141 0.6343 0.4197
H20 H 0.3808 0.5900 0.3311
H21 H 0.4504 0.6132 0.3654
C25 C 0.4364(5) 0.4704(10) 0.5022(3)
H22 H 0.4503 0.4006 0.5234
H23 H 0.3977 0.4835 0.5041
H24 H 0.4648 0.5229 0.5345
N4 N 0.4304(4) 0.4776(4) 0.4107(2)
loop_
_geom_bond_atom_site_label_1
_geom_bond_atom_site_label_2
_geom_bond_site_symmetry_1
_geom_bond_site_symmetry_2
I1 Cu1 1_555 1_555
Cu1 N1 1_555 1_555
O1 C19 1_555 1_555
N1 C1 1_555 1_555
N2 C13 1_555 1_555
N3 C6 1_555 1_555
C1 H1 1_555 1_555
C2 C1 1_555 1_555
H2 C2 1_555 1_555
C3 C2 1_555 1_555
C4 C3 1_555 1_555
H3 C4 1_555 1_555
C5 N1 1_555 1_555
H4 C5 1_555 1_555
C6 C3 1_555 1_555
C7 C6 1_555 1_555
H5 C7 1_555 1_555
C8 C7 1_555 1_555
C9 C8 1_555 1_555
H6 C9 1_555 1_555
C10 N3 1_555 1_555
C11 C10 1_555 1_555
C12 C11 1_555 1_555
H7 C12 1_555 1_555
C13 C12 1_555 1_555
H8 C13 1_555 1_555
C14 N2 1_555 1_555
H9 C14 1_555 1_555
C15 C11 1_555 1_555
H10 C15 1_555 1_555
C16 C8 1_555 1_555
C17 C16 1_555 1_555
H11 C17 1_555 1_555
C18 C17 1_555 1_555
H12 C18 1_555 1_555
C19 C18 1_555 1_555
C20 C19 1_555 1_555
H13 C20 1_555 1_555
C21 C16 1_555 1_555
H14 C21 1_555 1_555
C22 O1 1_555 1_555
H15 C22 1_555 1_555
H16 C22 1_555 1_555
H17 C22 1_555 1_555
O3 C23 1_555 1_555
C23 H18 1_555 1_555
C24 H19 1_555 1_555
H20 C24 1_555 1_555
H21 C24 1_555 1_555
C25 H22 1_555 1_555
H23 C25 1_555 1_555
H24 C25 1_555 1_555
N4 C23 1_555 1_555
I1D Cu1 1_555 1_555
Cu1D I1 1_555 1_555
Cu1G N2 1_555 1_555
N2G Cu1 1_555 1_555
Cu1 Cu1D 1_555 1_555
C4 C5 1_555 1_555
C9 C10 1_555 1_555
C14 C15 1_555 1_555
C20 C21 1_555 1_555
C24 N4 1_555 1_555
C25 N4 1_555 1_555
I1D Cu1D 1_555 1_555

#END
