
#######################################################################
#
#                 Cambridge Crystallographic Data Centre
#                                CCDC 
#
#######################################################################
#
# If this CIF has been generated from an entry in the Cambridge 
# Structural Database, then it will include bibliographic, chemical, 
# crystal, experimental, refinement or atomic coordinate data resulting 
# from the CCDC's data processing and validation procedures.
#
#######################################################################

data_CUPWOB
_symmetry_cell_setting           monoclinic
_symmetry_space_group_name_H-M   'C 2/c'
_symmetry_Int_Tables_number      15
_space_group_name_Hall           '-C 2yn'
loop_
_symmetry_equiv_pos_site_id
_symmetry_equiv_pos_as_xyz
1 x,y,z
2 -x,y,1/2-z
3 1/2+x,1/2+y,z
4 1/2-x,1/2+y,1/2-z
5 -x,-y,-z
6 x,-y,1/2+z
7 1/2-x,1/2-y,-z
8 1/2+x,1/2-y,1/2+z
_cell_length_a                   24.97(5)
_cell_length_b                   12.02(2)
_cell_length_c                   18.21(3)
_cell_angle_alpha                90
_cell_angle_beta                 113.50(3)
_cell_angle_gamma                90
_cell_volume                     5012.23
loop_
_atom_site_label
_atom_site_type_symbol
_atom_site_fract_x
_atom_site_fract_y
_atom_site_fract_z
I1 I 0.53787(7) -0.16114(12) 0.46496(12)
Cu1 Cu 0.50194(13) 0.0514(2) 0.4382(2)
O1 O 0.7145(8) 0.8899(13) 0.2321(12)
N1 N 0.5739(8) 0.1395(15) 0.4522(13)
N2 N 0.7547(9) 0.3815(14) 0.5731(13)
C1 C 0.8946(10) 0.5225(17) 0.6923(16)
H1 H 0.8989 0.5723 0.6560
C2 C 0.7021(10) 0.4750(17) 0.4466(17)
H2 H 0.6696 0.4777 0.3983
C3 C 0.6652(9) 0.2236(17) 0.5422(15)
H3 H 0.6965 0.2241 0.5920
N3 N 0.9361(8) 0.4432(15) 0.8259(13)
C4 C 0.9357(11) 0.5148(18) 0.7665(17)
H4 H 0.9673 0.5628 0.7795
C5 C 0.7440(11) 0.5600(17) 0.4663(17)
C6 C 0.6208(10) 0.1472(16) 0.5270(15)
H5 H 0.6221 0.0992 0.5677
C7 C 0.7966(11) 0.4601(18) 0.5901(17)
C8 C 0.5732(10) 0.2110(18) 0.3955(16)
H6 H 0.5424 0.2083 0.3454
C9 C 0.7092(11) 0.3866(17) 0.4989(17)
C10 C 0.7925(11) 0.5507(18) 0.5404(16)
H7 H 0.8216 0.6048 0.5558
C11 C 0.7244(12) 0.8130(18) 0.2920(18)
C12 C 0.6821(11) 0.6762(19) 0.3456(16)
H8 H 0.6489 0.6410 0.3456
C13 C 0.6768(11) 0.7517(18) 0.2861(17)
H9 H 0.6414 0.7608 0.2425
C14 C 0.7369(10) 0.6518(18) 0.4062(16)
C15 C 0.6172(10) 0.2892(17) 0.4091(16)
H10 H 0.6156 0.3357 0.3675
C16 C 0.8485(12) 0.3770(19) 0.7292(19)
H11 H 0.8198 0.3225 0.7160
C17 C 0.7865(11) 0.7098(19) 0.4086(18)
H12 H 0.8235 0.6927 0.4466
C18 C 0.8441(11) 0.4538(18) 0.6693(17)
C19 C 0.6639(10) 0.2997(18) 0.4842(18)
C20 C 0.7594(12) 0.967(2) 0.2393(19)
H13 H 0.7720 1.0042 0.2902
H14 H 0.7446 1.0216 0.1972
H15 H 0.7918 0.9290 0.2354
C21 C 0.8906(12) 0.3740(17) 0.8045(17)
H16 H 0.8877 0.3236 0.8415
C22 C 0.7786(12) 0.793(2) 0.3527(19)
H17 H 0.8103 0.8366 0.3560
I1D I 0.46213(7) 0.16114(12) 0.53504(12)
Cu1D Cu 0.49806(13) -0.0514(2) 0.5618(2)
Cu1G Cu 1.00194(13) 0.4486(2) 0.9382(2)
N3G N 0.4361(8) 0.0568(15) 0.3259(13)
S1 S 0.5579(4) 0.5524(8) 0.1870(7)
O2 O 0.5874(12) 0.459(2) 0.2378(19)
C23 C 0.4870(19) 0.507(4) 0.133(3)
H18 H 0.4867 0.4270 0.1293
H19 H 0.4728 0.5377 0.0797
H20 H 0.4624 0.5301 0.1589
C24 C 0.5818(17) 0.565(3) 0.104(2)
H21 H 0.6214 0.5915 0.1245
H22 H 0.5570 0.6169 0.0654
H23 H 0.5796 0.4938 0.0795
loop_
_geom_bond_atom_site_label_1
_geom_bond_atom_site_label_2
_geom_bond_site_symmetry_1
_geom_bond_site_symmetry_2
I1 Cu1 1_555 1_555
Cu1 N1 1_555 1_555
O1 C11 1_555 1_555
N1 C6 1_555 1_555
N2 C7 1_555 1_555
C1 H1 1_555 1_555
C2 H2 1_555 1_555
C3 H3 1_555 1_555
N3 C4 1_555 1_555
C4 C1 1_555 1_555
H4 C4 1_555 1_555
C5 C2 1_555 1_555
C6 C3 1_555 1_555
H5 C6 1_555 1_555
C7 C10 1_555 1_555
C8 N1 1_555 1_555
H6 C8 1_555 1_555
C9 N2 1_555 1_555
C10 C5 1_555 1_555
H7 C10 1_555 1_555
C11 C13 1_555 1_555
C12 H8 1_555 1_555
C13 C12 1_555 1_555
H9 C13 1_555 1_555
C14 C5 1_555 1_555
C15 C8 1_555 1_555
H10 C15 1_555 1_555
C16 H11 1_555 1_555
C17 C14 1_555 1_555
H12 C17 1_555 1_555
C18 C1 1_555 1_555
C19 C3 1_555 1_555
C20 O1 1_555 1_555
H13 C20 1_555 1_555
H14 C20 1_555 1_555
H15 C20 1_555 1_555
C21 N3 1_555 1_555
H16 C21 1_555 1_555
C22 C11 1_555 1_555
H17 C22 1_555 1_555
S1 O2 1_555 1_555
C23 S1 1_555 1_555
H18 C23 1_555 1_555
H19 C23 1_555 1_555
H20 C23 1_555 1_555
C24 S1 1_555 1_555
H21 C24 1_555 1_555
H22 C24 1_555 1_555
H23 C24 1_555 1_555
I1D Cu1 1_555 1_555
Cu1D I1 1_555 1_555
Cu1G N3 1_555 1_555
N3G Cu1 1_555 1_555
Cu1 Cu1D 1_555 1_555
C2 C9 1_555 1_555
C7 C18 1_555 1_555
C9 C19 1_555 1_555
C12 C14 1_555 1_555
C15 C19 1_555 1_555
C16 C18 1_555 1_555
C16 C21 1_555 1_555
C17 C22 1_555 1_555
I1D Cu1D 1_555 1_555

#END
