
#######################################################################
#
#                 Cambridge Crystallographic Data Centre
#                                CCDC 
#
#######################################################################
#
# If this CIF has been generated from an entry in the Cambridge 
# Structural Database, then it will include bibliographic, chemical, 
# crystal, experimental, refinement or atomic coordinate data resulting 
# from the CCDC's data processing and validation procedures.
#
#######################################################################

data_CUPXAO
_symmetry_cell_setting           triclinic
_symmetry_space_group_name_H-M   'P -1'
_symmetry_Int_Tables_number      2
_space_group_name_Hall           '-P 1'
loop_
_symmetry_equiv_pos_site_id
_symmetry_equiv_pos_as_xyz
1 x,y,z
2 -x,-y,-z
_cell_length_a                   12.681(3)
_cell_length_b                   13.340(3)
_cell_length_c                   17.761(4)
_cell_angle_alpha                69.389(9)
_cell_angle_beta                 89.016(10)
_cell_angle_gamma                63.400(9)
_cell_volume                     2478.9
loop_
_atom_site_label
_atom_site_type_symbol
_atom_site_fract_x
_atom_site_fract_y
_atom_site_fract_z
C1 C 0.109(5) 0.973(9) 0.216(2)
H1 H 0.1789 0.9773 0.2211
C2 C 0.020(8) 1.016(8) 0.260(4)
H2 H 0.0306 1.0488 0.2954
C3 C -0.085(6) 1.009(7) 0.252(6)
H3 H -0.1448 1.0373 0.2815
C4 C -0.102(5) 0.959(6) 0.199(6)
H4 H -0.1719 0.9543 0.1933
C5 C -0.013(8) 0.916(5) 0.154(4)
H5 H -0.0236 0.8828 0.1189
C6 C 0.092(7) 0.923(7) 0.163(3)
F1 F 0.154(10) 0.847(6) 0.153(11)
Cu1 Cu 0.4445(2) 1.00391(19) 0.43609(17)
Cu2 Cu 0.5467(2) -0.00498(19) 0.93565(16)
I1 I 0.67876(12) 0.92159(11) 0.45473(10)
I2 I 0.40149(12) -0.10077(11) 0.97571(10)
O1 O 0.5640(14) 1.6078(14) -0.2794(11)
O2 O -0.1583(14) 0.5446(18) 0.2349(13)
N1 N 0.1274(13) 1.5073(12) 0.0695(11)
N2 N -0.2878(13) 1.8554(13) -0.0490(12)
N3 N 0.3731(14) 1.1391(12) 0.3247(11)
N4 N 0.4179(16) 0.8597(14) 0.4502(12)
N5 N 0.3493(14) 0.4976(13) 0.5684(12)
N6 N 0.4732(14) 0.1298(12) 0.8244(12)
C7 C 0.5029(19) 1.584(2) -0.2166(15)
C8 C 0.4035(19) 1.6846(19) -0.2148(16)
H6 H 0.3839 1.7615 -0.2532
C9 C 0.3345(17) 1.6709(17) -0.1566(15)
H7 H 0.2670 1.7385 -0.1557
C10 C 0.3639(15) 1.5569(16) -0.0987(14)
C11 C 0.4647(16) 1.4585(17) -0.1004(15)
H8 H 0.4857 1.3818 -0.0610
C12 C 0.5346(18) 1.4703(18) -0.1584(14)
H9 H 0.6027 1.4027 -0.1586
C13 C 0.2841(15) 1.5393(15) -0.0392(12)
C14 C 0.1615(16) 1.6187(15) -0.0571(14)
H10 H 0.1289 1.6838 -0.1072
C15 C 0.0866(15) 1.6012(15) 0.0000(13)
C16 C 0.2439(16) 1.4286(15) 0.0903(13)
C17 C 0.3236(15) 1.4446(15) 0.0362(12)
H11 H 0.4048 1.3899 0.0519
C18 C -0.0437(16) 1.6865(14) -0.0209(13)
C19 C -0.0986(17) 1.7828(18) -0.0936(14)
H12 H -0.0559 1.7932 -0.1363
C20 C -0.2182(17) 1.8649(19) -0.1035(15)
H13 H -0.2517 1.9320 -0.1526
C21 C -0.2371(17) 1.7609(16) 0.0209(13)
H14 H -0.2845 1.7518 0.0606
C22 C -0.1171(17) 1.6740(16) 0.0387(14)
H15 H -0.0859 1.6089 0.0889
C23 C 0.2868(16) 1.3274(15) 0.1693(13)
C24 C 0.2197(16) 1.3289(15) 0.2317(13)
H16 H 0.1440 1.3943 0.2228
C25 C 0.2635(17) 1.2360(16) 0.3056(14)
H17 H 0.2152 1.2392 0.3456
C26 C 0.4361(18) 1.1344(16) 0.2623(15)
H18 H 0.5101 1.0663 0.2724
C27 C 0.3983(16) 1.2223(15) 0.1868(14)
H19 H 0.4454 1.2138 0.1465
C28 C 0.361(2) 0.855(2) 0.3919(17)
H20 H 0.3454 0.9137 0.3397
C29 C 0.322(2) 0.770(2) 0.4018(16)
H21 H 0.2821 0.7711 0.3577
C30 C 0.3449(19) 0.6825(16) 0.4788(15)
C31 C 0.412(2) 0.6813(19) 0.5379(17)
H22 H 0.4361 0.6201 0.5897
C32 C 0.446(2) 0.7707(19) 0.5207(17)
H23 H 0.4917 0.7674 0.5626
C33 C 0.3010(17) 0.5901(16) 0.4941(14)
C34 C 0.2163(17) 0.5994(16) 0.4422(15)
H24 H 0.1827 0.6670 0.3934
C35 C 0.1781(16) 0.5135(16) 0.4589(13)
C36 C 0.2302(16) 0.4169(16) 0.5338(15)
H25 H 0.2086 0.3553 0.5491
C37 C 0.3133(16) 0.4120(15) 0.5852(13)
C38 C 0.0890(16) 0.5210(18) 0.4022(14)
C39 C 0.029(2) 0.621(2) 0.3279(18)
H26 H 0.0447 0.6868 0.3130
C40 C -0.052(2) 0.623(3) 0.2784(19)
H27 H -0.0923 0.6922 0.2312
C41 C -0.0775(18) 0.531(2) 0.2922(16)
C42 C -0.0206(18) 0.432(2) 0.3631(17)
H28 H -0.0372 0.3672 0.3757
C43 C 0.0610(18) 0.4270(18) 0.4159(15)
H29 H 0.0995 0.3575 0.4632
C44 C 0.3699(16) 0.3121(15) 0.6692(14)
C45 C 0.4524(18) 0.3119(19) 0.7185(16)
H30 H 0.4746 0.3730 0.7003
C46 C 0.5031(18) 0.2190(19) 0.7964(16)
H31 H 0.5589 0.2195 0.8294
C47 C 0.3918(19) 0.1316(16) 0.7745(15)
H32 H 0.3705 0.0699 0.7931
C48 C 0.3389(19) 0.2209(16) 0.6971(14)
H33 H 0.2834 0.2190 0.6648
C49 C 0.670(3) 1.509(3) -0.282(2)
H34 H 0.7296 1.4798 -0.2361
H35 H 0.6997 1.5358 -0.3317
H36 H 0.6538 1.4451 -0.2809
C50 C -0.193(2) 0.451(3) 0.253(2)
H37 H -0.1225 0.3736 0.2662
H38 H -0.2432 0.4668 0.2056
H39 H -0.2354 0.4490 0.2978
Cu1A Cu 0.5555(2) 0.99609(19) 0.56391(17)
Cu2_2 Cu -0.4533(2) 1.99502(19) -0.06435(16)
Cu2A Cu 0.4533(2) 0.00498(19) 1.06435(16)
I1A I 0.32124(12) 1.07841(11) 0.54527(10)
I2A I 0.59851(12) 0.10077(11) 1.02429(10)
N2_2 N 0.7122(13) -0.1446(13) 0.9510(12)
O3 O 0.036(10) 0.069(10) 0.446(13)
loop_
_geom_bond_atom_site_label_1
_geom_bond_atom_site_label_2
_geom_bond_site_symmetry_1
_geom_bond_site_symmetry_2
C1 H1 1_555 1_555
C2 C1 1_555 1_555
H2 C2 1_555 1_555
C3 C2 1_555 1_555
H3 C3 1_555 1_555
C4 C3 1_555 1_555
H4 C4 1_555 1_555
C5 C4 1_555 1_555
H5 C5 1_555 1_555
C6 C1 1_555 1_555
F1 C6 1_555 1_555
Cu1 I1 1_555 1_555
Cu2 I2 1_555 1_555
I1 Cu1A 1_555 1_555
I2 Cu2A 1_555 1_555
O1 C7 1_555 1_555
O2 C41 1_555 1_555
N1 C15 1_555 1_555
N2 C20 1_555 1_555
N3 Cu1 1_555 1_555
N4 Cu1 1_555 1_555
N5 C33 1_555 1_555
N6 Cu2 1_555 1_555
C7 C8 1_555 1_555
C8 H6 1_555 1_555
C9 C8 1_555 1_555
H7 C9 1_555 1_555
C10 C9 1_555 1_555
C11 C10 1_555 1_555
H8 C11 1_555 1_555
C12 C7 1_555 1_555
H9 C12 1_555 1_555
C13 C10 1_555 1_555
C14 C13 1_555 1_555
H10 C14 1_555 1_555
C15 C14 1_555 1_555
C16 N1 1_555 1_555
C17 C13 1_555 1_555
H11 C17 1_555 1_555
C18 C15 1_555 1_555
C19 C18 1_555 1_555
H12 C19 1_555 1_555
C20 C19 1_555 1_555
H13 C20 1_555 1_555
C21 N2 1_555 1_555
H14 C21 1_555 1_555
C22 C18 1_555 1_555
H15 C22 1_555 1_555
C23 C16 1_555 1_555
C24 C23 1_555 1_555
H16 C24 1_555 1_555
C25 N3 1_555 1_555
H17 C25 1_555 1_555
C26 N3 1_555 1_555
H18 C26 1_555 1_555
C27 C23 1_555 1_555
H19 C27 1_555 1_555
C28 N4 1_555 1_555
H20 C28 1_555 1_555
C29 C28 1_555 1_555
H21 C29 1_555 1_555
C30 C29 1_555 1_555
C31 C30 1_555 1_555
H22 C31 1_555 1_555
C32 N4 1_555 1_555
H23 C32 1_555 1_555
C33 C30 1_555 1_555
C34 C33 1_555 1_555
H24 C34 1_555 1_555
C35 C34 1_555 1_555
C36 C35 1_555 1_555
H25 C36 1_555 1_555
C37 N5 1_555 1_555
C38 C35 1_555 1_555
C39 C38 1_555 1_555
H26 C39 1_555 1_555
C40 C39 1_555 1_555
H27 C40 1_555 1_555
C41 C40 1_555 1_555
C42 C41 1_555 1_555
H28 C42 1_555 1_555
C43 C38 1_555 1_555
H29 C43 1_555 1_555
C44 C37 1_555 1_555
C45 C44 1_555 1_555
H30 C45 1_555 1_555
C46 N6 1_555 1_555
H31 C46 1_555 1_555
C47 N6 1_555 1_555
H32 C47 1_555 1_555
C48 C44 1_555 1_555
H33 C48 1_555 1_555
C49 O1 1_555 1_555
H34 C49 1_555 1_555
H35 C49 1_555 1_555
H36 C49 1_555 1_555
C50 O2 1_555 1_555
H37 C50 1_555 1_555
H38 C50 1_555 1_555
H39 C50 1_555 1_555
Cu1A Cu1 1_555 1_555
Cu2_2 N2 1_555 1_555
Cu2A Cu2 1_555 1_555
I1A Cu1 1_555 1_555
I2A Cu2 1_555 1_555
N2_2 Cu2 1_555 1_555
C5 C6 1_555 1_555
C11 C12 1_555 1_555
C16 C17 1_555 1_555
C21 C22 1_555 1_555
C24 C25 1_555 1_555
C26 C27 1_555 1_555
C31 C32 1_555 1_555
C36 C37 1_555 1_555
C42 C43 1_555 1_555
C45 C46 1_555 1_555
C47 C48 1_555 1_555
Cu1A I1A 1_555 1_555
Cu2A I2A 1_555 1_555

#END
