
#######################################################################
#
#                 Cambridge Crystallographic Data Centre
#                                CCDC 
#
#######################################################################
#
# If this CIF has been generated from an entry in the Cambridge 
# Structural Database, then it will include bibliographic, chemical, 
# crystal, experimental, refinement or atomic coordinate data resulting 
# from the CCDC's data processing and validation procedures.
#
#######################################################################

data_CUPXOC
_symmetry_cell_setting           triclinic
_symmetry_space_group_name_H-M   'P -1'
_symmetry_Int_Tables_number      2
_space_group_name_Hall           '-P 1'
loop_
_symmetry_equiv_pos_site_id
_symmetry_equiv_pos_as_xyz
1 x,y,z
2 -x,-y,-z
_cell_length_a                   12.5823(8)
_cell_length_b                   13.5440(8)
_cell_length_c                   17.5152(11)
_cell_angle_alpha                68.665(2)
_cell_angle_beta                 89.462(2)
_cell_angle_gamma                64.914(2)
_cell_volume                     2480.63
loop_
_atom_site_label
_atom_site_type_symbol
_atom_site_fract_x
_atom_site_fract_y
_atom_site_fract_z
I1 I 0.59021(3) 0.60820(3) 0.52333(2)
I2 I -0.33010(3) 1.42953(3) -0.05549(2)
Cu1 Cu 0.45187(5) 0.50094(5) 0.56594(4)
Cu2 Cu -0.43548(5) 1.49148(5) 0.06206(4)
O1 O -0.5671(3) 0.8867(4) 0.7822(2)
O2 O 1.1760(3) -0.0483(4) 1.2710(2)
N1 N 0.5243(4) 0.3706(4) 0.6814(3)
N2 N 0.5977(4) -0.3695(4) 1.0524(3)
N3 N 0.6533(4) -0.0011(4) 0.9402(3)
N4 N -0.1174(4) 0.9814(4) 0.4320(3)
N5 N -0.3575(4) 1.3554(4) 0.1745(3)
N6 N 0.2849(4) 0.6313(4) 0.5511(3)
C1 C 0.1246(4) 0.8227(4) 0.4716(3)
H1 H 0.0986 0.8953 0.4264
C2 C 0.6170(5) 0.3583(5) 0.7280(3)
H2 H 0.6475 0.4126 0.7061
C3 C -0.2333(4) 1.0625(4) 0.4126(3)
C4 C -0.2710(4) 1.1662(4) 0.3311(3)
C5 C -0.2805(4) 0.9513(4) 0.5385(3)
C6 C -0.3702(4) 1.2725(4) 0.3192(3)
H3 H -0.4095 1.2818 0.3632
C7 C 0.6263(4) 0.1879(4) 0.8411(3)
C8 C 0.8252(4) -0.0153(4) 1.0508(3)
C9 C 0.6826(4) 0.0882(4) 0.9231(3)
C10 C 0.6693(5) 0.2706(4) 0.8057(3)
H4 H 0.7336 0.2663 0.8348
C11 C 0.9171(4) -0.0225(5) 1.1084(3)
C12 C 0.7958(5) -0.1081(4) 1.0660(3)
H5 H 0.8348 -0.1779 1.1133
C13 C -0.3163(4) 1.0494(4) 0.4625(3)
H6 H -0.3958 1.1058 0.4456
C14 C -0.2133(4) 1.1596(4) 0.2644(3)
H7 H -0.1432 1.0922 0.2713
C15 C -0.1593(4) 0.8697(4) 0.5593(3)
H8 H -0.1305 0.8039 0.6097
C16 C 0.9634(5) 0.0590(5) 1.0836(3)
H9 H 0.9359 0.1187 1.0303
C17 C -0.5304(5) 1.0218(5) 0.6603(3)
H10 H -0.5929 1.0886 0.6629
C18 C 0.7087(4) -0.0974(4) 1.0113(3)
C19 C -0.5066(4) 0.9089(5) 0.7177(3)
C20 C 0.6662(5) -0.3736(5) 1.1124(3)
H11 H 0.6897 -0.4376 1.1636
C21 C -0.0821(4) 0.8873(4) 0.5043(3)
C22 C -0.3647(4) 0.9362(4) 0.5957(3)
C23 C 0.0906(5) 0.6894(5) 0.5892(3)
H12 H 0.0414 0.6698 0.6253
C24 C 0.5968(5) -0.1856(5) 0.9654(3)
H13 H 0.5693 -0.1211 0.9143
C25 C -0.3446(4) 0.8233(5) 0.6519(3)
H14 H -0.2831 0.7565 0.6485
C26 C -0.4098(5) 1.3642(4) 0.2408(3)
H15 H -0.4755 1.4353 0.2336
C27 C 0.2417(4) 0.7378(5) 0.4877(3)
H16 H 0.2931 0.7555 0.4529
C28 C 0.2089(5) 0.6089(5) 0.6012(3)
H17 H 0.2374 0.5357 0.6461
C29 C 0.0455(4) 0.7995(4) 0.5229(3)
C30 C 0.7639(4) 0.0857(4) 0.9781(3)
H18 H 0.7773 0.1518 0.9663
C31 C 1.0916(4) -0.0354(5) 1.2155(3)
C32 C -0.4602(4) 1.0342(5) 0.5992(3)
H19 H -0.4778 1.1096 0.5599
C33 C 0.5305(5) 0.2000(5) 0.7932(3)
H20 H 0.4986 0.1467 0.8134
C34 C -0.4145(5) 0.8089(5) 0.7127(3)
H21 H -0.4001 0.7332 0.7497
C35 C -0.2598(4) 1.2532(5) 0.1876(3)
H22 H -0.2219 1.2453 0.1428
C36 C 1.0491(5) 0.0537(5) 1.1359(3)
H23 H 1.0781 0.1096 1.1179
C37 C 0.9614(5) -0.1112(5) 1.1891(3)
H24 H 0.9322 -0.1670 1.2076
C38 C 1.2205(5) 0.0375(5) 1.2465(4)
H25 H 1.2524 0.0395 1.1962
H26 H 1.2822 0.0164 1.2897
H27 H 1.1570 0.1144 1.2370
C39 C 0.7040(5) -0.2890(5) 1.1032(3)
H28 H 0.7516 -0.2966 1.1473
C40 C 0.5642(5) -0.2761(5) 0.9801(3)
H29 H 0.5164 -0.2711 0.9373
C41 C 0.6704(5) -0.1918(4) 1.0272(3)
C42 C 0.4829(5) 0.2914(5) 0.7155(4)
H30 H 0.4182 0.2982 0.6851
C43 C 1.0466(5) -0.1177(5) 1.2413(4)
H31 H 1.0746 -0.1776 1.2945
C44 C -0.6638(6) 0.9860(6) 0.7882(4)
H32 H -0.6356 1.0387 0.7946
H33 H -0.6989 0.9593 0.8355
H34 H -0.7225 1.0272 0.7386
I1A I 0.40979(3) 0.39180(3) 0.47667(2)
I2A I -0.66990(3) 1.57047(3) 0.05549(2)
Cu1A Cu 0.54813(5) 0.49906(5) 0.43406(4)
Cu2_2 Cu 0.56452(5) -0.50852(5) 1.06206(4)
Cu2A Cu -0.56452(5) 1.50852(5) -0.06206(4)
N2_2 N -0.4023(4) 1.6305(4) 0.0524(3)
N7 N 0.1465(5) 0.3561(5) 0.6949(4)
C45 C 0.0692(6) 0.3423(6) 0.5776(5)
H35 H 0.0845 0.3178 0.5337
C46 C 0.1615(6) 0.3243(5) 0.6306(5)
H36 H 0.2387 0.2879 0.6211
C47 C -0.0443(6) 0.3960(6) 0.5894(4)
H37 H -0.1080 0.4079 0.5547
C48 C -0.0628(6) 0.4326(6) 0.6543(5)
H38 H -0.1395 0.4716 0.6636
C49 C 0.0357(7) 0.4097(6) 0.7055(4)
H39 H 0.0227 0.4335 0.7497
N8 N 0.9609(5) 0.6245(5) 0.7822(4)
C50 C 1.0401(6) 0.6404(6) 0.8189(5)
H40 H 1.1013 0.6480 0.7911
C51 C 0.8763(6) 0.6112(6) 0.8245(5)
H41 H 0.8234 0.5938 0.8018
C52 C 1.0375(7) 0.6464(6) 0.8958(5)
H42 H 1.0969 0.6549 0.9200
C53 C 0.8618(6) 0.6215(6) 0.8992(5)
H43 H 0.7980 0.6164 0.9246
C54 C 0.9449(7) 0.6397(6) 0.9356(5)
H44 H 0.9382 0.6473 0.9864
loop_
_geom_bond_atom_site_label_1
_geom_bond_atom_site_label_2
_geom_bond_site_symmetry_1
_geom_bond_site_symmetry_2
I1 Cu1 1_555 1_555
I2 Cu2 1_555 1_555
Cu1 N1 1_555 1_555
Cu2 N5 1_555 1_555
O1 C19 1_555 1_555
O2 C31 1_555 1_555
N1 C2 1_555 1_555
N2 C20 1_555 1_555
N3 C9 1_555 1_555
N4 C3 1_555 1_555
N5 C26 1_555 1_555
N6 Cu1 1_555 1_555
C1 H1 1_555 1_555
C2 H2 1_555 1_555
C3 C4 1_555 1_555
C4 C6 1_555 1_555
C5 C13 1_555 1_555
C6 H3 1_555 1_555
C7 C9 1_555 1_555
C8 C11 1_555 1_555
C9 C30 1_555 1_555
C10 C2 1_555 1_555
H4 C10 1_555 1_555
C11 C16 1_555 1_555
C12 C8 1_555 1_555
H5 C12 1_555 1_555
C13 C3 1_555 1_555
H6 C13 1_555 1_555
C14 C4 1_555 1_555
H7 C14 1_555 1_555
C15 C5 1_555 1_555
H8 C15 1_555 1_555
C16 H9 1_555 1_555
C17 H10 1_555 1_555
C18 N3 1_555 1_555
C19 C17 1_555 1_555
C20 H11 1_555 1_555
C21 N4 1_555 1_555
C22 C5 1_555 1_555
C23 H12 1_555 1_555
C24 H13 1_555 1_555
C25 C22 1_555 1_555
H14 C25 1_555 1_555
C26 C6 1_555 1_555
H15 C26 1_555 1_555
C27 N6 1_555 1_555
H16 C27 1_555 1_555
C28 N6 1_555 1_555
H17 C28 1_555 1_555
C29 C1 1_555 1_555
C30 C8 1_555 1_555
H18 C30 1_555 1_555
C31 C36 1_555 1_555
C32 C17 1_555 1_555
H19 C32 1_555 1_555
C33 C7 1_555 1_555
H20 C33 1_555 1_555
C34 C19 1_555 1_555
H21 C34 1_555 1_555
C35 N5 1_555 1_555
H22 C35 1_555 1_555
C36 C16 1_555 1_555
H23 C36 1_555 1_555
C37 C11 1_555 1_555
H24 C37 1_555 1_555
C38 O2 1_555 1_555
H25 C38 1_555 1_555
H26 C38 1_555 1_555
H27 C38 1_555 1_555
C39 C20 1_555 1_555
H28 C39 1_555 1_555
C40 N2 1_555 1_555
H29 C40 1_555 1_555
C41 C18 1_555 1_555
C42 N1 1_555 1_555
H30 C42 1_555 1_555
C43 C31 1_555 1_555
H31 C43 1_555 1_555
C44 O1 1_555 1_555
H32 C44 1_555 1_555
H33 C44 1_555 1_555
H34 C44 1_555 1_555
N7 C46 1_555 1_555
C45 H35 1_555 1_555
C46 C45 1_555 1_555
H36 C46 1_555 1_555
C47 C45 1_555 1_555
H37 C47 1_555 1_555
C48 C47 1_555 1_555
H38 C48 1_555 1_555
C49 N7 1_555 1_555
H39 C49 1_555 1_555
N8 C50 1_555 1_555
C50 H40 1_555 1_555
C51 N8 1_555 1_555
H41 C51 1_555 1_555
C52 C50 1_555 1_555
H42 C52 1_555 1_555
C53 C51 1_555 1_555
H43 C53 1_555 1_555
C54 C52 1_555 1_555
H44 C54 1_555 1_555
I1A Cu1 1_555 1_555
I2A Cu2 1_555 1_555
Cu1A I1 1_555 1_555
Cu2_2 N2 1_555 1_555
Cu2A I2 1_555 1_555
N2_2 Cu2 1_555 1_555
Cu1 Cu1A 1_555 1_555
Cu2 Cu2A 1_555 1_555
C1 C27 1_555 1_555
C7 C10 1_555 1_555
C12 C18 1_555 1_555
C14 C35 1_555 1_555
C15 C21 1_555 1_555
C21 C29 1_555 1_555
C22 C32 1_555 1_555
C23 C28 1_555 1_555
C23 C29 1_555 1_555
C24 C40 1_555 1_555
C24 C41 1_555 1_555
C25 C34 1_555 1_555
C33 C42 1_555 1_555
C37 C43 1_555 1_555
C39 C41 1_555 1_555
C48 C49 1_555 1_555
C53 C54 1_555 1_555
I1A Cu1A 1_555 1_555
I2A Cu2A 1_555 1_555

#END
