
#######################################################################
#
#                 Cambridge Crystallographic Data Centre
#                                CCDC 
#
#######################################################################
#
# If this CIF has been generated from an entry in the Cambridge 
# Structural Database, then it will include bibliographic, chemical, 
# crystal, experimental, refinement or atomic coordinate data resulting 
# from the CCDC's data processing and validation procedures.
#
#######################################################################

data_CUPXUI
_symmetry_cell_setting           monoclinic
_symmetry_space_group_name_H-M   'C 2/c'
_symmetry_Int_Tables_number      15
_space_group_name_Hall           '-C 2yn'
loop_
_symmetry_equiv_pos_site_id
_symmetry_equiv_pos_as_xyz
1 x,y,z
2 -x,y,1/2-z
3 1/2+x,1/2+y,z
4 1/2-x,1/2+y,1/2-z
5 -x,-y,-z
6 x,-y,1/2+z
7 1/2-x,1/2-y,-z
8 1/2+x,1/2-y,1/2+z
_cell_length_a                   24.260(3)
_cell_length_b                   12.6267(12)
_cell_length_c                   17.8971(17)
_cell_angle_alpha                90
_cell_angle_beta                 113.860(5)
_cell_angle_gamma                90
_cell_volume                     5013.77
loop_
_atom_site_label
_atom_site_type_symbol
_atom_site_fract_x
_atom_site_fract_y
_atom_site_fract_z
C1 C 0.5493(8) 0.4545(12) 0.4254(10)
H1 H 0.5451 0.4069 0.3838
C2 C 0.5894(7) 0.4331(7) 0.5051(12)
H2 H 0.6121 0.3712 0.5168
C3 C 0.5957(7) 0.5043(10) 0.5673(10)
H3 H 0.6225 0.4900 0.6206
C4 C 0.5618(8) 0.5969(8) 0.5497(10)
H4 H 0.5660 0.6445 0.5913
C5 C 0.5216(8) 0.6183(12) 0.4700(11)
H5 H 0.4990 0.6802 0.4583
C6 C 0.5154(7) 0.5471(16) 0.4079(9)
O1 O 0.4252(13) 0.608(2) 0.323(3)
O2 O 0.4580(11) 0.494(2) 0.264(2)
N1 N 0.4388(11) 0.5833(19) 0.3040(9)
Cu1 Cu 0.49834(3) 0.95002(5) 0.43537(4)
I1 I 0.542503(17) 1.14481(3) 0.46434(2)
O3 O 0.7053(3) 0.1237(4) 0.2243(3)
N2 N 0.9304(2) 0.5498(4) 0.8227(3)
N3 N 0.5691(2) 0.8572(4) 0.4456(3)
N4 N 0.7484(2) 0.6163(4) 0.5631(3)
C7 C 0.6175(3) 0.8502(5) 0.5166(4)
H6 H 0.6216 0.8985 0.5577
C8 C 0.6618(3) 0.7739(5) 0.5312(4)
H7 H 0.6945 0.7717 0.5817
C9 C 0.6579(3) 0.7015(5) 0.4720(4)
C10 C 0.6093(4) 0.7136(6) 0.3966(4)
H8 H 0.6054 0.6696 0.3531
C11 C 0.5672(3) 0.7908(5) 0.3872(4)
H9 H 0.5352 0.7970 0.3364
C12 C 0.7021(3) 0.6142(5) 0.4887(4)
C13 C 0.6956(3) 0.5340(5) 0.4333(3)
H10 H 0.6645 0.5374 0.3815
C14 C 0.7350(3) 0.4483(4) 0.4538(3)
C15 C 0.7821(3) 0.4507(4) 0.5309(3)
H11 H 0.8096 0.3953 0.5479
C16 C 0.7879(3) 0.5365(5) 0.5823(3)
C17 C 0.7283(3) 0.3588(4) 0.3969(3)
C18 C 0.6719(3) 0.3357(5) 0.3343(4)
H12 H 0.6382 0.3743 0.3304
C19 C 0.6659(3) 0.2567(5) 0.2787(4)
H13 H 0.6282 0.2417 0.2378
C20 C 0.7158(3) 0.1993(5) 0.2833(4)
C21 C 0.7712(3) 0.2193(5) 0.3451(4)
H14 H 0.8047 0.1796 0.3495
C22 C 0.7765(3) 0.2994(4) 0.4008(3)
H15 H 0.8141 0.3131 0.4422
C23 C 0.7544(4) 0.0581(7) 0.2308(6)
H16 H 0.7860 0.1008 0.2273
H17 H 0.7413 0.0072 0.1873
H18 H 0.7692 0.0218 0.2824
C24 C 0.8830(3) 0.6152(5) 0.7997(4)
H19 H 0.8813 0.6640 0.8376
C25 C 0.8367(3) 0.6143(5) 0.7231(4)
H20 H 0.8046 0.6614 0.7102
C26 C 0.8384(3) 0.5418(4) 0.6651(3)
C27 C 0.8881(3) 0.4755(5) 0.6885(4)
H21 H 0.8918 0.4270 0.6516
C28 C 0.9319(3) 0.4820(5) 0.7665(3)
H22 H 0.9647 0.4363 0.7810
Cu1D Cu 0.50166(3) 1.04998(5) 0.56463(4)
Cu1G Cu 0.99834(3) 0.54998(5) 0.93537(4)
I1D I 0.457497(17) 0.85519(3) 0.53566(2)
N2G N 0.4304(2) 0.9502(4) 0.3227(3)
loop_
_geom_bond_atom_site_label_1
_geom_bond_atom_site_label_2
_geom_bond_site_symmetry_1
_geom_bond_site_symmetry_2
C1 H1 1_555 1_555
C2 C1 1_555 1_555
H2 C2 1_555 1_555
C3 C2 1_555 1_555
H3 C3 1_555 1_555
C4 C3 1_555 1_555
H4 C4 1_555 1_555
C5 C4 1_555 1_555
H5 C5 1_555 1_555
C6 C1 1_555 1_555
O1 N1 1_555 1_555
O2 N1 1_555 1_555
N1 C6 1_555 1_555
Cu1 I1 1_555 1_555
I1 Cu1D 1_555 1_555
O3 C20 1_555 1_555
N2 C24 1_555 1_555
N3 Cu1 1_555 1_555
N4 C12 1_555 1_555
C7 N3 1_555 1_555
H6 C7 1_555 1_555
C8 C7 1_555 1_555
H7 C8 1_555 1_555
C9 C8 1_555 1_555
C10 C9 1_555 1_555
H8 C10 1_555 1_555
C11 N3 1_555 1_555
H9 C11 1_555 1_555
C12 C9 1_555 1_555
C13 C12 1_555 1_555
H10 C13 1_555 1_555
C14 C13 1_555 1_555
C15 C14 1_555 1_555
H11 C15 1_555 1_555
C16 N4 1_555 1_555
C17 C14 1_555 1_555
C18 C17 1_555 1_555
H12 C18 1_555 1_555
C19 C18 1_555 1_555
H13 C19 1_555 1_555
C20 C19 1_555 1_555
C21 C20 1_555 1_555
H14 C21 1_555 1_555
C22 C17 1_555 1_555
H15 C22 1_555 1_555
C23 O3 1_555 1_555
H16 C23 1_555 1_555
H17 C23 1_555 1_555
H18 C23 1_555 1_555
C24 H19 1_555 1_555
C25 C24 1_555 1_555
H20 C25 1_555 1_555
C26 C16 1_555 1_555
C27 C26 1_555 1_555
H21 C27 1_555 1_555
C28 N2 1_555 1_555
H22 C28 1_555 1_555
Cu1D Cu1 1_555 1_555
Cu1G N2 1_555 1_555
I1D Cu1 1_555 1_555
N2G Cu1 1_555 1_555
C5 C6 1_555 1_555
C10 C11 1_555 1_555
C15 C16 1_555 1_555
C21 C22 1_555 1_555
C25 C26 1_555 1_555
C27 C28 1_555 1_555
Cu1D I1D 1_555 1_555

#END
