
#######################################################################
#
#                 Cambridge Crystallographic Data Centre
#                                CCDC 
#
#######################################################################
#
# If this CIF has been generated from an entry in the Cambridge 
# Structural Database, then it will include bibliographic, chemical, 
# crystal, experimental, refinement or atomic coordinate data resulting 
# from the CCDC's data processing and validation procedures.
#
#######################################################################

data_CUPXIW
_symmetry_cell_setting           monoclinic
_symmetry_space_group_name_H-M   'C 2/c'
_symmetry_Int_Tables_number      15
_space_group_name_Hall           '-C 2yn'
loop_
_symmetry_equiv_pos_site_id
_symmetry_equiv_pos_as_xyz
1 x,y,z
2 -x,y,1/2-z
3 1/2+x,1/2+y,z
4 1/2-x,1/2+y,1/2-z
5 -x,-y,-z
6 x,-y,1/2+z
7 1/2-x,1/2-y,-z
8 1/2+x,1/2-y,1/2+z
_cell_length_a                   24.404(3)
_cell_length_b                   12.3305(14)
_cell_length_c                   17.9345(19)
_cell_angle_alpha                90
_cell_angle_beta                 113.070(6)
_cell_angle_gamma                90
_cell_volume                     4965.14
loop_
_atom_site_label
_atom_site_type_symbol
_atom_site_fract_x
_atom_site_fract_y
_atom_site_fract_z
N1 N 0.9201(19) 0.0878(17) 0.903(3)
C1 C 0.9245(13) -0.009(3) 0.9477(17)
H1 H 0.9193 -0.0157 0.9962
N2 N 0.9384(9) -0.0952(15) 0.9052(15)
N3 N 0.942(2) -0.051(3) 0.834(2)
H2 H 0.9504 -0.0866 0.7986
C2 C 0.931(3) 0.062(3) 0.833(3)
H3 H 0.9311 0.1107 0.7936
I1 I 0.45841(2) 0.15181(4) 0.03530(2)
Cu1 Cu 0.50057(3) -0.05001(7) 0.06406(4)
C3 C 0.6091(3) 0.0262(6) 0.3085(4)
H4 H 0.6053 0.0759 0.3452
N4 N 0.9282(2) -0.3557(4) 0.5494(3)
N5 N 0.7492(2) -0.1142(5) 0.4308(3)
N6 N 0.5672(2) -0.0518(5) 0.1759(3)
C4 C 0.8378(3) -0.2719(6) 0.4625(4)
H5 H 0.8063 -0.2705 0.4121
C5 C 0.7127(3) 0.0535(5) 0.4628(3)
H6 H 0.6842 0.1083 0.4463
O1 O 0.7846(3) 0.3859(5) 0.7710(3)
C6 C 0.7663(3) 0.1490(5) 0.5962(4)
C7 C 0.7184(3) 0.2104(6) 0.5921(4)
H7 H 0.6820 0.1983 0.5493
C8 C 0.8406(3) -0.1966(6) 0.5212(4)
C9 C 0.7213(4) 0.2892(6) 0.6479(4)
H8 H 0.6877 0.3286 0.6433
C10 C 0.7084(3) -0.0353(6) 0.4122(3)
C11 C 0.8876(3) -0.2061(7) 0.5950(4)
H9 H 0.8907 -0.1589 0.6369
C12 C 0.6588(3) -0.0420(5) 0.3315(3)
C13 C 0.7956(3) -0.1091(6) 0.5027(3)
C14 C 0.9305(3) -0.2856(7) 0.6072(4)
H10 H 0.9620 -0.2902 0.6575
C15 C 0.8821(3) -0.3492(6) 0.4794(4)
H11 H 0.8793 -0.3992 0.4393
C16 C 0.8020(3) -0.0250(6) 0.5583(4)
H12 H 0.8340 -0.0252 0.6083
C17 C 0.6597(3) -0.1170(6) 0.2738(4)
H13 H 0.6909 -0.1664 0.2863
C18 C 0.8217(4) 0.1712(6) 0.6606(4)
H14 H 0.8557 0.1329 0.6650
C19 C 0.5659(3) 0.0193(7) 0.2319(4)
H15 H 0.5338 0.0667 0.2178
C20 C 0.8248(4) 0.2501(6) 0.7167(4)
H16 H 0.8611 0.2638 0.7592
C21 C 0.7602(3) 0.0589(5) 0.5381(3)
C22 C 0.7760(4) 0.3085(7) 0.7115(4)
C23 C 0.6141(3) -0.1176(6) 0.1979(4)
H17 H 0.6162 -0.1670 0.1599
C24 C 0.7362(5) 0.4544(9) 0.7605(6)
H18 H 0.7233 0.4889 0.7085
H19 H 0.7480 0.5086 0.8023
H20 H 0.7040 0.4124 0.7637
I1D I 0.54159(2) -0.15181(4) -0.03530(2)
Cu1D Cu 0.49943(3) 0.05001(7) -0.06406(4)
Cu1G Cu 1.00057(3) -0.44999(7) 0.56406(4)
N4G N 0.4282(2) -0.1443(4) 0.0494(3)
loop_
_geom_bond_atom_site_label_1
_geom_bond_atom_site_label_2
_geom_bond_site_symmetry_1
_geom_bond_site_symmetry_2
N1 C1 1_555 1_555
C1 H1 1_555 1_555
N2 C1 1_555 1_555
N3 N2 1_555 1_555
H2 N3 1_555 1_555
C2 N1 1_555 1_555
H3 C2 1_555 1_555
I1 Cu1 1_555 1_555
Cu1 N6 1_555 1_555
C3 H4 1_555 1_555
N4 C14 1_555 1_555
N5 C10 1_555 1_555
N6 C19 1_555 1_555
C4 H5 1_555 1_555
C5 H6 1_555 1_555
O1 C22 1_555 1_555
C6 C7 1_555 1_555
C7 H7 1_555 1_555
C8 C4 1_555 1_555
C9 C7 1_555 1_555
H8 C9 1_555 1_555
C10 C5 1_555 1_555
C11 C8 1_555 1_555
H9 C11 1_555 1_555
C12 C3 1_555 1_555
C13 N5 1_555 1_555
C14 C11 1_555 1_555
H10 C14 1_555 1_555
C15 N4 1_555 1_555
H11 C15 1_555 1_555
C16 C13 1_555 1_555
H12 C16 1_555 1_555
C17 C12 1_555 1_555
H13 C17 1_555 1_555
C18 C6 1_555 1_555
H14 C18 1_555 1_555
C19 C3 1_555 1_555
H15 C19 1_555 1_555
C20 C18 1_555 1_555
H16 C20 1_555 1_555
C21 C5 1_555 1_555
C22 C9 1_555 1_555
C23 N6 1_555 1_555
H17 C23 1_555 1_555
C24 O1 1_555 1_555
H18 C24 1_555 1_555
H19 C24 1_555 1_555
H20 C24 1_555 1_555
I1D Cu1 1_555 1_555
Cu1D I1 1_555 1_555
Cu1G N4 1_555 1_555
N4G Cu1 1_555 1_555
N3 C2 1_555 1_555
Cu1 Cu1D 1_555 1_555
C4 C15 1_555 1_555
C6 C21 1_555 1_555
C8 C13 1_555 1_555
C10 C12 1_555 1_555
C16 C21 1_555 1_555
C17 C23 1_555 1_555
C20 C22 1_555 1_555
I1D Cu1D 1_555 1_555

#END
