
#######################################################################
#
#                 Cambridge Crystallographic Data Centre
#                                CCDC 
#
#######################################################################
#
# If this CIF has been generated from an entry in the Cambridge 
# Structural Database, then it will include bibliographic, chemical, 
# crystal, experimental, refinement or atomic coordinate data resulting 
# from the CCDC's data processing and validation procedures.
#
#######################################################################

data_CUPYZP
_symmetry_cell_setting           monoclinic
_symmetry_space_group_name_H-M   'C 2/m'
_symmetry_Int_Tables_number      12
_space_group_name_Hall           '-C 2y'
loop_
_symmetry_equiv_pos_site_id
_symmetry_equiv_pos_as_xyz
1 x,y,z
2 1/2+x,1/2+y,z
3 -x,y,-z
4 1/2-x,1/2+y,-z
5 -x,-y,-z
6 1/2-x,1/2-y,-z
7 x,-y,z
8 1/2+x,1/2-y,z
_cell_length_a                   14.123(4)
_cell_length_b                   9.781(2)
_cell_length_c                   8.984(2)
_cell_angle_alpha                90
_cell_angle_beta                 147.12(2)
_cell_angle_gamma                90
_cell_volume                     673.728
loop_
_atom_site_label
_atom_site_type_symbol
_atom_site_fract_x
_atom_site_fract_y
_atom_site_fract_z
Cu1 Cu 0.00000 0.00000 1.00000
N1 N 0.14570 0.15000 1.29520
C1 C 0.24950 0.23250 1.35190
C2 C 0.14590 0.16990 1.44330
Cl1 Cl -0.29840 0.00000 0.94190
O1 O -0.18440 0.00000 1.21440
O2 O -0.20180 0.00000 0.93390
H1 H 0.25300 0.22000 1.24800
H2 H 0.06800 0.12600 1.41300
C2E C 0.35410 0.33010 1.55670
N1E N 0.35430 0.35000 1.70480
Cu1E Cu 0.50000 0.50000 2.00000
N1G N 0.64570 0.35000 2.29520
C1G C 0.74950 0.26750 2.35190
C2B C 0.85410 0.16990 2.55670
N1B N 0.85430 0.15000 2.70480
Cu1B Cu 1.00000 0.00000 3.00000
N1_2 N 1.14570 0.15000 3.29520
N1F N 1.14570 -0.15000 3.29520
N1D N 0.85430 -0.15000 2.70480
O2B O 1.20180 0.00000 3.06610
Cl1B Cl 1.29840 0.00000 3.05810
O1B O 1.18440 0.00000 2.78560
O2_2 O 0.79820 0.00000 2.93390
Cl1_2 Cl 0.70160 0.00000 2.94190
O1_2 O 0.81560 0.00000 3.21440
C1B C 0.75050 0.23250 2.64810
C2G C 0.64590 0.33010 2.44330
H2G H 0.56800 0.37400 2.41300
H1B H 0.74700 0.22000 2.75200
H2B H 0.93200 0.12600 2.58700
H1G H 0.75300 0.28000 2.24800
N1A N 0.64570 0.65000 2.29520
N1C N 0.35430 0.65000 1.70480
O2E O 0.70180 0.50000 2.06610
O2G O 0.29820 0.50000 1.93390
C1E C 0.25050 0.26750 1.64810
H1E H 0.24700 0.28000 1.75200
H2E H 0.43200 0.37400 1.58700
N1B_2 N -0.14570 0.15000 0.70480
N1D_2 N -0.14570 -0.15000 0.70480
N1F_2 N 0.14570 -0.15000 1.29520
O2B_2 O 0.20180 0.00000 1.06610
loop_
_geom_bond_atom_site_label_1
_geom_bond_atom_site_label_2
_geom_bond_site_symmetry_1
_geom_bond_site_symmetry_2
Cu1 N1 1_555 1_555
N1 C1 1_555 1_555
C1 H1 1_555 1_555
C2 N1 1_555 1_555
Cl1 O1 1_555 1_555
O2 Cu1 1_555 1_555
H2 C2 1_555 1_555
C2E C1 1_555 1_555
N1E C2E 1_555 1_555
Cu1E N1E 1_555 1_555
N1G Cu1E 1_555 1_555
C1G N1G 1_555 1_555
C2B C1G 1_555 1_555
N1B C2B 1_555 1_555
Cu1B N1B 1_555 1_555
N1_2 Cu1B 1_555 1_555
N1F Cu1B 1_555 1_555
N1D Cu1B 1_555 1_555
O2B Cu1B 1_555 1_555
Cl1B O2B 1_555 1_555
O1B Cl1B 1_555 1_555
O2_2 Cu1B 1_555 1_555
Cl1_2 O2_2 1_555 1_555
O1_2 Cl1_2 1_555 1_555
C1B N1B 1_555 1_555
C2G N1G 1_555 1_555
H2G C2G 1_555 1_555
H1B C1B 1_555 1_555
H2B C2B 1_555 1_555
H1G C1G 1_555 1_555
N1A Cu1E 1_555 1_555
N1C Cu1E 1_555 1_555
O2E Cu1E 1_555 1_555
O2G Cu1E 1_555 1_555
C1E C2 1_555 1_555
H1E C1E 1_555 1_555
H2E C2E 1_555 1_555
N1B_2 Cu1 1_555 1_555
N1D_2 Cu1 1_555 1_555
N1F_2 Cu1 1_555 1_555
O2B_2 Cu1 1_555 1_555
Cl1 O2 1_555 1_555
N1E C1E 1_555 1_555
C1B C2G 1_555 1_555

#END
