
#######################################################################
#
#                 Cambridge Crystallographic Data Centre
#                                CCDC 
#
#######################################################################
#
# If this CIF has been generated from an entry in the Cambridge 
# Structural Database, then it will include bibliographic, chemical, 
# crystal, experimental, refinement or atomic coordinate data resulting 
# from the CCDC's data processing and validation procedures.
#
#######################################################################

data_CUPYZP02
_symmetry_cell_setting           monoclinic
_symmetry_space_group_name_H-M   'C 2/c'
_symmetry_Int_Tables_number      15
_space_group_name_Hall           '-C 2yn'
loop_
_symmetry_equiv_pos_site_id
_symmetry_equiv_pos_as_xyz
1 x,y,z
2 1/2+x,1/2+y,z
3 -x,y,1/2-z
4 1/2-x,1/2+y,1/2-z
5 -x,-y,-z
6 1/2-x,1/2-y,-z
7 x,-y,1/2+z
8 1/2+x,1/2-y,1/2+z
_cell_length_a                   14.072(5)
_cell_length_b                   9.786(3)
_cell_length_c                   9.781(3)
_cell_angle_alpha                90
_cell_angle_beta                 96.458(4)
_cell_angle_gamma                90
_cell_volume                     1338.38
loop_
_atom_site_label
_atom_site_type_symbol
_atom_site_fract_x
_atom_site_fract_y
_atom_site_fract_z
Cu1 Cu 0.0000 0.74987(4) 0.2500
Cl1 Cl -0.26974(6) 0.72149(10) 0.22168(9)
O1 O -0.1696(2) 0.7582(2) 0.2131(3)
O2 O -0.2922(3) 0.7564(3) 0.3570(4)
O3 O -0.2786(2) 0.5755(3) 0.2021(4)
O4 O -0.3302(3) 0.7930(5) 0.1196(4)
N1 N 0.0013(2) 0.9007(3) 0.1012(3)
C1 C -0.0763(2) 0.9782(4) 0.0679(4)
H1 H -0.131(3) 0.967(5) 0.120(5)
C2 C 0.0780(2) 0.9228(4) 0.0337(4)
H2 H 0.132(3) 0.875(5) 0.055(5)
N2 N 0.00245(19) 0.5983(3) 0.1026(3)
C3 C -0.0724(3) 0.5133(4) 0.0781(4)
H3 H -0.125(3) 0.520(5) 0.129(5)
C4 C 0.0747(2) 0.5845(4) 0.0247(4)
H4 H 0.128(3) 0.641(5) 0.041(5)
C2D C -0.0780(2) 1.0772(4) -0.0337(4)
N1D N -0.0013(2) 1.0993(3) -0.1012(3)
C1D C 0.0763(2) 1.0218(4) -0.0679(4)
H1D H 0.131(3) 1.033(5) -0.120(5)
H2D H -0.132(3) 1.125(5) -0.055(5)
C4D C -0.0747(2) 0.4155(4) -0.0247(4)
N2D N -0.00245(19) 0.4017(3) -0.1026(3)
C3D C 0.0724(3) 0.4867(4) -0.0781(4)
H3D H 0.125(3) 0.480(5) -0.129(5)
H4D H -0.128(3) 0.359(5) -0.041(5)
Cl1B Cl 0.26974(6) 0.72149(10) 0.27832(9)
O1B O 0.1696(2) 0.7582(2) 0.2869(3)
O2B O 0.2922(3) 0.7564(3) 0.1430(4)
O3B O 0.2786(2) 0.5755(3) 0.2979(4)
O4B O 0.3302(3) 0.7930(5) 0.3804(4)
N1B N -0.0013(2) 0.9007(3) 0.3988(3)
N2B N -0.00245(19) 0.5983(3) 0.3974(3)
Cu1F Cu 0.0000 1.25013(4) -0.2500
Cu1F_2 Cu 0.0000 0.25013(4) -0.2500
loop_
_geom_bond_atom_site_label_1
_geom_bond_atom_site_label_2
_geom_bond_site_symmetry_1
_geom_bond_site_symmetry_2
Cu1 O1 1_555 1_555
Cl1 O1 1_555 1_555
O2 Cl1 1_555 1_555
O3 Cl1 1_555 1_555
O4 Cl1 1_555 1_555
N1 Cu1 1_555 1_555
C1 N1 1_555 1_555
H1 C1 1_555 1_555
C2 N1 1_555 1_555
H2 C2 1_555 1_555
N2 Cu1 1_555 1_555
C3 N2 1_555 1_555
H3 C3 1_555 1_555
C4 N2 1_555 1_555
H4 C4 1_555 1_555
C2D C1 1_555 1_555
N1D C2D 1_555 1_555
C1D C2 1_555 1_555
H1D C1D 1_555 1_555
H2D C2D 1_555 1_555
C4D C3 1_555 1_555
N2D C4D 1_555 1_555
C3D C4 1_555 1_555
H3D C3D 1_555 1_555
H4D C4D 1_555 1_555
Cl1B O1B 1_555 1_555
O1B Cu1 1_555 1_555
O2B Cl1B 1_555 1_555
O3B Cl1B 1_555 1_555
O4B Cl1B 1_555 1_555
N1B Cu1 1_555 1_555
N2B Cu1 1_555 1_555
Cu1F N1D 1_555 1_555
Cu1F_2 N2D 1_555 1_555
N1D C1D 1_555 1_555
N2D C3D 1_555 1_555

#END
