
#######################################################################
#
#                 Cambridge Crystallographic Data Centre
#                                CCDC 
#
#######################################################################
#
# If this CIF has been generated from an entry in the Cambridge 
# Structural Database, then it will include bibliographic, chemical, 
# crystal, experimental, refinement or atomic coordinate data resulting 
# from the CCDC's data processing and validation procedures.
#
#######################################################################

data_CUPYZP01
_symmetry_cell_setting           monoclinic
_symmetry_space_group_name_H-M   'C 2/m'
_symmetry_Int_Tables_number      12
_space_group_name_Hall           '-C 2y'
loop_
_symmetry_equiv_pos_site_id
_symmetry_equiv_pos_as_xyz
1 x,y,z
2 1/2+x,1/2+y,z
3 -x,y,-z
4 1/2-x,1/2+y,-z
5 -x,-y,-z
6 1/2-x,1/2-y,-z
7 x,-y,z
8 1/2+x,1/2-y,z
_cell_length_a                   9.734(2)
_cell_length_b                   9.729(2)
_cell_length_c                   8.1320(17)
_cell_angle_alpha                90
_cell_angle_beta                 120.855(4)
_cell_angle_gamma                90
_cell_volume                     661.121
loop_
_atom_site_label
_atom_site_type_symbol
_atom_site_fract_x
_atom_site_fract_y
_atom_site_fract_z
Cu1 Cu 0.5000 0.5000 0.5000
N1 N 0.64951(17) 0.34969(15) 0.5041(2)
C1 C 0.7976(2) 0.33056(19) 0.6512(3)
H1 H 0.836(3) 0.382(3) 0.755(3)
C2 C 0.6021(2) 0.26743(19) 0.3531(3)
H2 H 0.496(3) 0.281(2) 0.237(3)
O1 O 0.3647(3) 0.5000 0.1621(3)
O2 O 0.1005(3) 0.5000 -0.0829(4)
Cl1 Cl 0.25961(10) 0.4800(3) -0.03900(12)
O3 O 0.2767(7) 0.3404(5) -0.0715(9)
O4 O 0.2983(8) 0.5667(7) -0.1454(8)
C2E C 0.8979(2) 0.23257(19) 0.6469(3)
N1E N 0.85049(17) 0.15031(15) 0.4959(2)
C1E C 0.7024(2) 0.16944(19) 0.3488(3)
H1E H 0.664(3) 0.118(3) 0.245(3)
H2E H 1.004(3) 0.219(2) 0.763(3)
Cl1F Cl 0.25961(10) 0.5200(3) -0.03900(12)
O3F O 0.2767(7) 0.6596(5) -0.0715(9)
O4F O 0.2983(8) 0.4333(7) -0.1454(8)
N1F N 0.64951(17) 0.65031(15) 0.5041(2)
C1F C 0.7976(2) 0.66944(19) 0.6512(3)
H1F H 0.836(3) 0.618(3) 0.755(3)
C2F C 0.6021(2) 0.73257(19) 0.3531(3)
H2F H 0.496(3) 0.719(2) 0.237(3)
C2C C 0.8979(2) 0.76743(19) 0.6469(3)
N1C N 0.85049(17) 0.84969(15) 0.4959(2)
C1C C 0.7024(2) 0.83056(19) 0.3488(3)
H1C H 0.664(3) 0.882(3) 0.245(3)
H2C H 1.004(3) 0.781(2) 0.763(3)
O1D O 0.6353(3) 0.5000 0.8379(3)
O2D O 0.8995(3) 0.5000 1.0829(4)
Cl1D Cl 0.74039(10) 0.5200(3) 1.03900(12)
O3D O 0.7233(7) 0.6596(5) 1.0715(9)
O4D O 0.7017(8) 0.4333(7) 1.1454(8)
Cl1B Cl 0.74039(10) 0.4800(3) 1.03900(12)
O3B O 0.7233(7) 0.3404(5) 1.0715(9)
O4B O 0.7017(8) 0.5667(7) 1.1454(8)
N1D N 0.35049(17) 0.65031(15) 0.4959(2)
N1B N 0.35049(17) 0.34969(15) 0.4959(2)
Cu1A Cu 1.0000 0.0000 0.5000
Cu1A_2 Cu 1.0000 1.0000 0.5000
loop_
_geom_bond_atom_site_label_1
_geom_bond_atom_site_label_2
_geom_bond_site_symmetry_1
_geom_bond_site_symmetry_2
Cu1 N1 1_555 1_555
N1 C1 1_555 1_555
C1 H1 1_555 1_555
C2 N1 1_555 1_555
H2 C2 1_555 1_555
O1 Cu1 1_555 1_555
O2 Cl1 1_555 1_555
Cl1 O1 1_555 1_555
O3 Cl1 1_555 1_555
O4 Cl1 1_555 1_555
C2E C1 1_555 1_555
N1E C2E 1_555 1_555
C1E C2 1_555 1_555
H1E C1E 1_555 1_555
H2E C2E 1_555 1_555
Cl1F O1 1_555 1_555
O3F Cl1 1_555 1_555
O4F Cl1 1_555 1_555
N1F Cu1 1_555 1_555
C1F N1F 1_555 1_555
H1F C1F 1_555 1_555
C2F N1F 1_555 1_555
H2F C2F 1_555 1_555
C2C C1F 1_555 1_555
N1C C2C 1_555 1_555
C1C C2F 1_555 1_555
H1C C1C 1_555 1_555
H2C C2C 1_555 1_555
O1D Cu1 1_555 1_555
O2D Cl1D 1_555 1_555
Cl1D O1D 1_555 1_555
O3D Cl1D 1_555 1_555
O4D Cl1D 1_555 1_555
Cl1B O1D 1_555 1_555
O3B Cl1D 1_555 1_555
O4B Cl1D 1_555 1_555
N1D Cu1 1_555 1_555
N1B Cu1 1_555 1_555
Cu1A N1E 1_555 1_555
Cu1A_2 N1C 1_555 1_555
O2 Cl1F 1_555 1_555
Cl1 Cl1F 1_555 1_555
O3 Cl1F 1_555 1_555
O3 O4F 1_555 1_555
O4 Cl1F 1_555 1_555
O4 O3F 1_555 1_555
O4 O4F 1_555 1_555
N1E C1E 1_555 1_555
Cl1F O3F 1_555 1_555
Cl1F O4F 1_555 1_555
N1C C1C 1_555 1_555
O2D Cl1B 1_555 1_555
Cl1D Cl1B 1_555 1_555
O3D Cl1B 1_555 1_555
O3D O4B 1_555 1_555
O4D Cl1B 1_555 1_555
O4D O3B 1_555 1_555
O4D O4B 1_555 1_555
Cl1B O3B 1_555 1_555
Cl1B O4B 1_555 1_555

#END
