
#######################################################################
#
#                 Cambridge Crystallographic Data Centre
#                                CCDC 
#
#######################################################################
#
# If this CIF has been generated from an entry in the Cambridge 
# Structural Database, then it will include bibliographic, chemical, 
# crystal, experimental, refinement or atomic coordinate data resulting 
# from the CCDC's data processing and validation procedures.
#
#######################################################################

data_CUPYAZ
_symmetry_cell_setting           orthorhombic
_symmetry_space_group_name_H-M   'C m c 21'
_symmetry_Int_Tables_number      36
_space_group_name_Hall           'C 2n -2'
loop_
_symmetry_equiv_pos_site_id
_symmetry_equiv_pos_as_xyz
1 x,y,z
2 1/2+x,1/2+y,z
3 -x,y,z
4 1/2-x,1/2+y,z
5 x,-y,1/2+z
6 1/2+x,1/2-y,1/2+z
7 -x,-y,1/2+z
8 1/2-x,1/2-y,1/2+z
_cell_length_a                   13.884(2)
_cell_length_b                   13.646(2)
_cell_length_c                   6.403(2)
_cell_angle_alpha                90
_cell_angle_beta                 90
_cell_angle_gamma                90
_cell_volume                     1213.12
loop_
_atom_site_label
_atom_site_type_symbol
_atom_site_fract_x
_atom_site_fract_y
_atom_site_fract_z
Cu1 Cu 0.50000 0.38730 0.17750
C1 C 0.30900 0.34680 0.34410
C2 C 0.20770 0.33350 0.36300
C3 C 0.15910 0.37080 0.21280
C4 C 0.20270 0.40770 0.02600
C5 C 0.30080 0.41660 0.01790
N1 N 0.50000 0.25430 0.30030
N2 N 0.50000 0.18230 0.21140
N3 N 0.50000 0.11200 0.13530
N4 N 0.50000 0.52500 0.06620
N5 N 0.50000 0.59390 0.18920
N6 N 0.50000 0.66300 0.30280
N7 N 0.35300 0.38460 0.17540
N7B N 0.64700 0.38460 0.17540
N6D N 0.50000 0.33700 -0.19720
C1B C 0.69100 0.34680 0.34410
C5B C 0.69920 0.41660 0.01790
Cu1D Cu 0.50000 0.61270 0.67750
C2B C 0.79230 0.33350 0.36300
C4B C 0.79730 0.40770 0.02600
C3B C 0.84090 0.37080 0.21280
loop_
_geom_bond_atom_site_label_1
_geom_bond_atom_site_label_2
_geom_bond_site_symmetry_1
_geom_bond_site_symmetry_2
Cu1 N1 1_555 1_555
C1 C2 1_555 1_555
C2 C3 1_555 1_555
C3 C4 1_555 1_555
C4 C5 1_555 1_555
C5 N7 1_555 1_555
N1 N2 1_555 1_555
N2 N3 1_555 1_555
N4 Cu1 1_555 1_555
N5 N4 1_555 1_555
N6 N5 1_555 1_555
N7 Cu1 1_555 1_555
N7B Cu1 1_555 1_555
N6D Cu1 1_555 1_555
C1B N7B 1_555 1_555
C5B N7B 1_555 1_555
Cu1D N6 1_555 1_555
C2B C1B 1_555 1_555
C4B C5B 1_555 1_555
C3B C2B 1_555 1_555
C1 N7 1_555 1_555
C4B C3B 1_555 1_555

#END
