
#######################################################################
#
#                 Cambridge Crystallographic Data Centre
#                                CCDC 
#
#######################################################################
#
# If this CIF has been generated from an entry in the Cambridge 
# Structural Database, then it will include bibliographic, chemical, 
# crystal, experimental, refinement or atomic coordinate data resulting 
# from the CCDC's data processing and validation procedures.
#
#######################################################################

data_CUPYAR
_symmetry_cell_setting           orthorhombic
_symmetry_space_group_name_H-M   'P m n a'
_symmetry_Int_Tables_number      53
_space_group_name_Hall           '-P 2ac 2'
loop_
_symmetry_equiv_pos_site_id
_symmetry_equiv_pos_as_xyz
1 x,y,z
2 1/2-x,-y,1/2+z
3 x,-y,-z
4 1/2-x,y,1/2-z
5 -x,-y,-z
6 1/2+x,y,1/2-z
7 -x,y,z
8 1/2+x,-y,1/2+z
_cell_length_a                   6.712(1)
_cell_length_b                   5.142(1)
_cell_length_c                   11.732(2)
_cell_angle_alpha                90
_cell_angle_beta                 90
_cell_angle_gamma                90
_cell_volume                     404.908
loop_
_atom_site_label
_atom_site_type_symbol
_atom_site_fract_x
_atom_site_fract_y
_atom_site_fract_z
Cu1 Cu 0.00000 0.00000 0.00000
C1 C 0.39670 0.16650 -0.06480
H1 H 0.32400 0.28800 -0.10640
N1 N 0.29570 0.00000 0.00000
N2 N 0.00000 0.26260 0.19360
O1 O 0.00000 0.01770 0.17110
O2 O 0.00000 0.41380 0.11030
O3 O 0.00000 0.33350 0.29230
C1F C 0.60330 0.16650 -0.06480
H1F H 0.67600 0.28800 -0.10640
N1F N 0.70430 0.00000 0.00000
C1D C 0.60330 -0.16650 0.06480
C1B C 0.39670 -0.16650 0.06480
H1B H 0.32400 -0.28800 0.10640
H1D H 0.67600 -0.28800 0.10640
N2D N 0.00000 -0.26260 -0.19360
O1D O 0.00000 -0.01770 -0.17110
O2D O 0.00000 -0.41380 -0.11030
O3D O 0.00000 -0.33350 -0.29230
N1F_2 N -0.29570 0.00000 0.00000
Cu1_2 Cu 1.00000 0.00000 0.00000
loop_
_geom_bond_atom_site_label_1
_geom_bond_atom_site_label_2
_geom_bond_site_symmetry_1
_geom_bond_site_symmetry_2
Cu1 N1 1_555 1_555
C1 H1 1_555 1_555
N1 C1 1_555 1_555
N2 O1 1_555 1_555
O1 Cu1 1_555 1_555
O2 Cu1 1_555 1_555
O3 N2 1_555 1_555
C1F C1 1_555 1_555
H1F C1F 1_555 1_555
N1F C1F 1_555 1_555
C1D N1F 1_555 1_555
C1B N1 1_555 1_555
H1B C1B 1_555 1_555
H1D C1D 1_555 1_555
N2D O1D 1_555 1_555
O1D Cu1 1_555 1_555
O2D Cu1 1_555 1_555
O3D N2D 1_555 1_555
N1F_2 Cu1 1_555 1_555
Cu1_2 N1F 1_555 1_555
N2 O2 1_555 1_555
C1D C1B 1_555 1_555
N2D O2D 1_555 1_555

#END
