
#######################################################################
#
#                 Cambridge Crystallographic Data Centre
#                                CCDC 
#
#######################################################################
#
# If this CIF has been generated from an entry in the Cambridge 
# Structural Database, then it will include bibliographic, chemical, 
# crystal, experimental, refinement or atomic coordinate data resulting 
# from the CCDC's data processing and validation procedures.
#
#######################################################################

data_CUPYAO
_symmetry_cell_setting           monoclinic
_symmetry_space_group_name_H-M   'P 21/c'
_symmetry_Int_Tables_number      14
_space_group_name_Hall           '-P 2ybc'
loop_
_symmetry_equiv_pos_site_id
_symmetry_equiv_pos_as_xyz
1 x,y,z
2 -x,1/2+y,1/2-z
3 -x,-y,-z
4 x,1/2-y,1/2+z
_cell_length_a                   20.1078(19)
_cell_length_b                   19.9095(18)
_cell_length_c                   12.9967(12)
_cell_angle_alpha                90
_cell_angle_beta                 94.354(2)
_cell_angle_gamma                90
_cell_volume                     5188.03
loop_
_atom_site_label
_atom_site_type_symbol
_atom_site_fract_x
_atom_site_fract_y
_atom_site_fract_z
Mn1 Mn 0.48714(3) 0.26840(3) 0.24009(5)
O1 O 0.57398(13) 0.25396(14) 0.3453(2)
O2 O 0.61535(13) 0.20898(14) 0.4933(2)
O3 O 0.58854(13) 0.07099(14) 0.5904(2)
O4 O 0.54886(13) 0.15503(14) 0.6792(2)
O5 O 0.40009(13) 0.25428(14) 0.1321(2)
O6 O 0.35999(13) 0.20601(15) -0.0151(2)
O7 O 0.38709(14) 0.07139(14) -0.1048(2)
O8 O 0.42691(14) 0.15275(14) -0.2000(2)
N1 N 0.45835(16) 0.18970(16) 0.3556(3)
N2 N 0.51660(16) 0.19021(17) 0.1255(3)
C1 C 0.50630(19) 0.1777(2) 0.4315(3)
C2 C 0.49755(19) 0.1331(2) 0.5112(3)
C3 C 0.4374(2) 0.0975(2) 0.5099(4)
H1 H 0.4303 0.0655 0.5622
C4 C 0.3888(2) 0.1094(2) 0.4318(3)
H2 H 0.3474 0.0863 0.4300
C5 C 0.40091(19) 0.1559(2) 0.3556(3)
H3 H 0.3672 0.1639 0.3017
C6 C 0.57023(19) 0.2166(2) 0.4236(3)
C7 C 0.54995(19) 0.1193(2) 0.5991(3)
C8 C 0.46965(19) 0.1783(2) 0.0481(3)
C9 C 0.4792(2) 0.1335(2) -0.0311(4)
C10 C 0.5396(2) 0.0997(2) -0.0300(4)
H4 H 0.5477 0.0686 -0.0830
C11 C 0.5875(2) 0.1120(2) 0.0494(4)
H5 H 0.6293 0.0895 0.0515
C12 C 0.5745(2) 0.1572(2) 0.1258(4)
H6 H 0.6077 0.1650 0.1804
C13 C 0.4045(2) 0.2157(2) 0.0551(3)
C14 C 0.4262(2) 0.1189(2) -0.1170(4)
Mn1C Mn 0.48714(3) 0.23160(3) 0.74009(5)
Mn1C_2 Mn 0.48714(3) 0.23160(3) -0.25991(5)
O4C O 0.54886(13) 0.34497(14) 0.1792(2)
O8C O 0.42691(14) 0.34725(14) 0.3000(2)
Mn2 Mn 0.00435(3) 0.48289(3) 0.24779(5)
O9 O 0.09085(13) 0.50074(14) 0.3555(2)
O10 O 0.12742(13) 0.54506(15) 0.5075(2)
O11 O 0.09402(13) 0.68077(14) 0.6034(2)
O12 O 0.05571(13) 0.59605(14) 0.6926(2)
O13 O -0.08463(13) 0.49541(14) 0.1455(2)
O14 O -0.13237(15) 0.54611(17) 0.0060(3)
O15 O -0.10646(14) 0.67793(15) -0.0992(2)
O16 O -0.06948(14) 0.59236(14) -0.1885(2)
N3 N -0.02769(15) 0.56037(17) 0.3631(3)
N4 N 0.03007(15) 0.56068(17) 0.1293(3)
C15 C 0.01816(19) 0.5725(2) 0.4421(3)
C16 C 0.00619(19) 0.6155(2) 0.5222(3)
C17 C -0.0552(2) 0.6490(2) 0.5183(4)
H7 H -0.0649 0.6794 0.5714
C18 C -0.1013(2) 0.6371(2) 0.4366(4)
H8 H -0.1429 0.6600 0.4318
C19 C -0.08621(19) 0.5917(2) 0.3620(4)
H9 H -0.1190 0.5824 0.3073
C20 C 0.08421(19) 0.5365(2) 0.4358(3)
C21 C 0.05688(19) 0.6313(2) 0.6118(3)
C22 C -0.01989(19) 0.5728(2) 0.0549(3)
C23 C -0.01299(19) 0.6168(2) -0.0258(3)
C24 C 0.0473(2) 0.6502(2) -0.0301(3)
H10 H 0.0535 0.6811 -0.0843
C25 C 0.0980(2) 0.6383(2) 0.0445(4)
H11 H 0.1397 0.6605 0.0425
C26 C 0.0872(2) 0.5933(2) 0.1225(4)
H12 H 0.1225 0.5853 0.1739
C27 C -0.08412(19) 0.5348(2) 0.0705(4)
C28 C -0.0685(2) 0.6296(2) -0.1089(4)
Mn2B Mn -0.00435(3) 0.51711(3) 0.75221(5)
Mn2B_2 Mn -0.00435(3) 0.51711(3) -0.24779(5)
O12B O -0.05571(13) 0.40395(14) 0.3074(2)
O16B O 0.06948(14) 0.40764(14) 0.1885(2)
N5 N 0.81228(15) 0.10759(17) 0.7234(3)
H13 H 0.8034 0.0840 0.6631
H14 H 0.8575 0.1059 0.7403
N6 N 0.68074(16) 0.15111(17) 0.7662(3)
H15 H 0.6355 0.1527 0.7495
H16 H 0.6897 0.1744 0.8268
C29 C 0.70213(19) 0.0799(2) 0.7810(4)
H17 H 0.6898 0.0540 0.7173
H18 H 0.6790 0.0596 0.8380
C30 C 0.77702(19) 0.0764(2) 0.8061(3)
H19 H 0.7889 0.1000 0.8720
H20 H 0.7910 0.0289 0.8144
C31 C 0.7910(2) 0.1795(2) 0.7074(3)
H21 H 0.8140 0.1992 0.6498
H22 H 0.8036 0.2058 0.7705
C32 C 0.71610(19) 0.1831(2) 0.6830(4)
H23 H 0.7022 0.2306 0.6756
H24 H 0.7040 0.1600 0.6168
N7 N 0.19381(16) 0.41780(17) 0.2887(3)
H25 H 0.1798 0.4492 0.3342
H26 H 0.1568 0.4015 0.2508
N8 N 0.29887(16) 0.34258(17) 0.2032(3)
H27 H 0.3118 0.3108 0.1573
H28 H 0.3365 0.3583 0.2401
C33 C 0.2393(2) 0.4506(2) 0.2175(3)
H29 H 0.2773 0.4717 0.2584
H30 H 0.2149 0.4863 0.1773
C34 C 0.2649(2) 0.3994(2) 0.1451(3)
H31 H 0.2272 0.3817 0.0995
H32 H 0.2967 0.4212 0.1010
C35 C 0.2536(2) 0.3110(2) 0.2752(3)
H33 H 0.2780 0.2754 0.3156
H34 H 0.2155 0.2897 0.2347
C36 C 0.2278(2) 0.3618(2) 0.3474(3)
H35 H 0.1961 0.3399 0.3914
H36 H 0.2654 0.3798 0.3928
O17 O -0.03645(18) 0.22201(18) 0.2623(3)
H37 H -0.0695 0.2248 0.2177
H38 H -0.0516 0.2488 0.3058
O18 O -0.24200(15) 0.14413(15) 0.1341(3)
H39 H -0.2477 0.1027 0.1203
H40 H -0.2392 0.1423 0.1996
O19 O -0.25877(16) 0.15756(18) 0.3411(3)
H41 H -0.2570 0.1938 0.3757
H42 H -0.2804 0.1312 0.3777
O20 O 0.09467(18) 0.24590(17) 0.2772(3)
H43 H 0.1067 0.2645 0.2227
H44 H 0.0533 0.2373 0.2661
O21 O -0.41398(16) 0.01509(17) 0.2647(3)
H45 H -0.4564 0.0140 0.2616
H46 H -0.4043 -0.0075 0.2124
O22 O -0.33668(14) 0.05806(15) 0.4237(2)
H47 H -0.3636 0.0484 0.3723
H48 H -0.3596 0.0705 0.4726
O23 O -0.12431(17) 0.20890(16) 0.0938(3)
H49 H -0.1583 0.1841 0.0801
H50 H -0.1126 0.2011 0.0334
O24 O -0.54939(15) 0.01356(16) 0.2411(3)
H51 H -0.5729 -0.0039 0.2857
H52 H -0.5800 0.0290 0.1989
O25 O -0.24607(14) 0.01519(15) 0.0556(2)
H53 H -0.2714 -0.0005 0.0061
H54 H -0.2074 0.0216 0.0351
O26 O 0.24612(15) 0.24608(15) 0.0532(3)
H55 H 0.2222 0.2662 0.0061
H56 H 0.2845 0.2332 0.0382
O27 O -0.65294(17) 0.04339(17) 0.0868(3)
H57 H -0.6808 0.0722 0.1086
H58 H -0.6338 0.0570 0.0345
O28 O -0.23376(15) 0.02553(17) 0.5647(3)
H59 H -0.2602 0.0375 0.5139
H60 H -0.2071 -0.0062 0.5528
O29 O -0.28059(14) 0.28115(15) 0.4485(2)
H61 H -0.2692 0.3031 0.5031
H62 H -0.3169 0.2623 0.4618
O30 O 0.1591(3) 0.1944(3) 0.4220(5)
O32 O 0.2289(3) 0.0958(4) 0.3362(6)
O33 O 0.2609(3) 0.1379(3) 0.1921(6)
O31? O 0.1945(3) 0.1648(3) 0.3773(5)
O34? O 0.2689(4) 0.1234(5) 0.1489(8)
loop_
_geom_bond_atom_site_label_1
_geom_bond_atom_site_label_2
_geom_bond_site_symmetry_1
_geom_bond_site_symmetry_2
Mn1 O1 1_555 1_555
O1 C6 1_555 1_555
O2 C6 1_555 1_555
O3 C7 1_555 1_555
O4 C7 1_555 1_555
O5 Mn1 1_555 1_555
O6 C13 1_555 1_555
O7 C14 1_555 1_555
O8 C14 1_555 1_555
N1 Mn1 1_555 1_555
N2 Mn1 1_555 1_555
C1 N1 1_555 1_555
C2 C1 1_555 1_555
C3 C2 1_555 1_555
H1 C3 1_555 1_555
C4 C3 1_555 1_555
H2 C4 1_555 1_555
C5 N1 1_555 1_555
H3 C5 1_555 1_555
C6 C1 1_555 1_555
C7 C2 1_555 1_555
C8 N2 1_555 1_555
C9 C8 1_555 1_555
C10 C9 1_555 1_555
H4 C10 1_555 1_555
C11 C10 1_555 1_555
H5 C11 1_555 1_555
C12 N2 1_555 1_555
H6 C12 1_555 1_555
C13 O5 1_555 1_555
C14 C9 1_555 1_555
Mn2 O9 1_555 1_555
O9 C20 1_555 1_555
O10 C20 1_555 1_555
O11 C21 1_555 1_555
O12 C21 1_555 1_555
O13 Mn2 1_555 1_555
O14 C27 1_555 1_555
O15 C28 1_555 1_555
O16 C28 1_555 1_555
N3 Mn2 1_555 1_555
N4 Mn2 1_555 1_555
C15 N3 1_555 1_555
C16 C15 1_555 1_555
C17 C16 1_555 1_555
H7 C17 1_555 1_555
C18 C17 1_555 1_555
H8 C18 1_555 1_555
C19 N3 1_555 1_555
H9 C19 1_555 1_555
C20 C15 1_555 1_555
C21 C16 1_555 1_555
C22 N4 1_555 1_555
C23 C22 1_555 1_555
C24 C23 1_555 1_555
H10 C24 1_555 1_555
C25 C24 1_555 1_555
H11 C25 1_555 1_555
C26 N4 1_555 1_555
H12 C26 1_555 1_555
C27 O13 1_555 1_555
C28 C23 1_555 1_555
N5 H13 1_555 1_555
H14 N5 1_555 1_555
N6 H15 1_555 1_555
H16 N6 1_555 1_555
C29 N6 1_555 1_555
H17 C29 1_555 1_555
H18 C29 1_555 1_555
C30 N5 1_555 1_555
H19 C30 1_555 1_555
H20 C30 1_555 1_555
C31 N5 1_555 1_555
H21 C31 1_555 1_555
H22 C31 1_555 1_555
C32 N6 1_555 1_555
H23 C32 1_555 1_555
H24 C32 1_555 1_555
N7 H25 1_555 1_555
H26 N7 1_555 1_555
N8 H27 1_555 1_555
H28 N8 1_555 1_555
C33 N7 1_555 1_555
H29 C33 1_555 1_555
H30 C33 1_555 1_555
C34 N8 1_555 1_555
H31 C34 1_555 1_555
H32 C34 1_555 1_555
C35 N8 1_555 1_555
H33 C35 1_555 1_555
H34 C35 1_555 1_555
C36 N7 1_555 1_555
H35 C36 1_555 1_555
H36 C36 1_555 1_555
O17 H37 1_555 1_555
H38 O17 1_555 1_555
O18 H39 1_555 1_555
H40 O18 1_555 1_555
O19 H41 1_555 1_555
H42 O19 1_555 1_555
O20 H43 1_555 1_555
H44 O20 1_555 1_555
O21 H45 1_555 1_555
H46 O21 1_555 1_555
O22 H47 1_555 1_555
H48 O22 1_555 1_555
O23 H49 1_555 1_555
H50 O23 1_555 1_555
O24 H51 1_555 1_555
H52 O24 1_555 1_555
O25 H53 1_555 1_555
H54 O25 1_555 1_555
O26 H55 1_555 1_555
H56 O26 1_555 1_555
O27 H57 1_555 1_555
H58 O27 1_555 1_555
O28 H59 1_555 1_555
H60 O28 1_555 1_555
O29 H61 1_555 1_555
H62 O29 1_555 1_555
Mn1C O4 1_555 1_555
Mn1C_2 O8 1_555 1_555
O4C Mn1 1_555 1_555
O8C Mn1 1_555 1_555
Mn2B O12 1_555 1_555
Mn2B_2 O16 1_555 1_555
O12B Mn2 1_555 1_555
O16B Mn2 1_555 1_555
C4 C5 1_555 1_555
C8 C13 1_555 1_555
C11 C12 1_555 1_555
C18 C19 1_555 1_555
C22 C27 1_555 1_555
C25 C26 1_555 1_555
C29 C30 1_555 1_555
C31 C32 1_555 1_555
C33 C34 1_555 1_555
C35 C36 1_555 1_555

#END
