
#######################################################################
#
#                 Cambridge Crystallographic Data Centre
#                                CCDC 
#
#######################################################################
#
# If this CIF has been generated from an entry in the Cambridge 
# Structural Database, then it will include bibliographic, chemical, 
# crystal, experimental, refinement or atomic coordinate data resulting 
# from the CCDC's data processing and validation procedures.
#
#######################################################################

data_CUPYAR01
_symmetry_cell_setting           orthorhombic
_symmetry_space_group_name_H-M   'P m n a'
_symmetry_Int_Tables_number      53
_space_group_name_Hall           '-P 2ac 2'
loop_
_symmetry_equiv_pos_site_id
_symmetry_equiv_pos_as_xyz
1 x,y,z
2 1/2-x,-y,1/2+z
3 x,-y,-z
4 1/2-x,y,1/2-z
5 -x,-y,-z
6 1/2+x,y,1/2-z
7 -x,y,z
8 1/2+x,-y,1/2+z
_cell_length_a                   6.7101(3)
_cell_length_b                   5.1360(2)
_cell_length_c                   11.7164(6)
_cell_angle_alpha                90
_cell_angle_beta                 90
_cell_angle_gamma                90
_cell_volume                     403.783
loop_
_atom_site_label
_atom_site_type_symbol
_atom_site_fract_x
_atom_site_fract_y
_atom_site_fract_z
Cu1 Cu 0.5000 1.0000 -0.5000
O1 O 0.5000 1.0167(4) -0.32925(19)
O2 O 0.5000 1.4144(6) -0.3896(2)
O3 O 0.5000 1.3333(6) -0.2073(2)
N1 N 0.2055(4) 1.0000 -0.5000
N2 N 0.5000 1.2630(5) -0.3066(2)
C1 C 0.1036(3) 1.1679(4) -0.56477(17)
H1 H 0.175(5) 1.277(6) -0.611(2)
O1D O 0.5000 0.9833(4) -0.67075(19)
O2D O 0.5000 0.5856(6) -0.6104(2)
N1F N 0.7945(4) 1.0000 -0.5000
C1B C 0.1036(3) 0.8321(4) -0.43523(17)
C1F C -0.1036(3) 1.1679(4) -0.56477(17)
C1D C -0.1036(3) 0.8321(4) -0.43523(17)
H1B H 0.175(5) 0.723(6) -0.389(2)
N1F_2 N -0.2055(4) 1.0000 -0.5000
H1F H -0.175(5) 1.277(6) -0.611(2)
H1D H -0.175(5) 0.723(6) -0.389(2)
Cu1_2 Cu -0.5000 1.0000 -0.5000
N2D N 0.5000 0.7370(5) -0.6934(2)
O3D O 0.5000 0.6667(6) -0.7927(2)
loop_
_geom_bond_atom_site_label_1
_geom_bond_atom_site_label_2
_geom_bond_site_symmetry_1
_geom_bond_site_symmetry_2
Cu1 O1 1_555 1_555
O1 N2 1_555 1_555
O2 Cu1 1_555 1_555
O3 N2 1_555 1_555
N1 Cu1 1_555 1_555
N2 O2 1_555 1_555
C1 N1 1_555 1_555
H1 C1 1_555 1_555
O1D Cu1 1_555 1_555
O2D Cu1 1_555 1_555
N1F Cu1 1_555 1_555
C1B N1 1_555 1_555
C1F C1 1_555 1_555
C1D C1B 1_555 1_555
H1B C1B 1_555 1_555
N1F_2 C1F 1_555 1_555
H1F C1F 1_555 1_555
H1D C1D 1_555 1_555
Cu1_2 N1F_2 1_555 1_555
N2D O1D 1_555 1_555
O3D N2D 1_555 1_555
O2D N2D 1_555 1_555
C1D N1F_2 1_555 1_555

#END
