
#######################################################################
#
#                 Cambridge Crystallographic Data Centre
#                                CCDC 
#
#######################################################################
#
# If this CIF has been generated from an entry in the Cambridge 
# Structural Database, then it will include bibliographic, chemical, 
# crystal, experimental, refinement or atomic coordinate data resulting 
# from the CCDC's data processing and validation procedures.
#
#######################################################################

data_CUQDAT
_symmetry_cell_setting           monoclinic
_symmetry_space_group_name_H-M   'P 21/n'
_symmetry_Int_Tables_number      14
_space_group_name_Hall           '-P 2yn'
loop_
_symmetry_equiv_pos_site_id
_symmetry_equiv_pos_as_xyz
1 x,y,z
2 1/2+x,1/2-y,1/2+z
3 -x,-y,-z
4 1/2-x,1/2+y,1/2-z
_cell_length_a                   14.413(4)
_cell_length_b                   16.157(4)
_cell_length_c                   18.478(5)
_cell_angle_alpha                90
_cell_angle_beta                 96.77(3)
_cell_angle_gamma                90
_cell_volume                     4272.98
loop_
_atom_site_label
_atom_site_type_symbol
_atom_site_fract_x
_atom_site_fract_y
_atom_site_fract_z
Mn1 Mn 0.52943(5) 0.53159(4) 0.25094(3)
Mn2 Mn 0.49154(5) 0.45679(4) 0.41666(3)
Mn3 Mn 0.48982(5) 0.45150(4) 0.08077(3)
N1 N 0.4393(3) 0.5518(2) 0.3388(2)
N2 N 0.3891(3) 0.6107(3) 0.3417(2)
N3 N 0.3413(4) 0.6659(4) 0.3440(3)
N4 N 0.5845(3) 0.4363(2) 0.3294(2)
N5 N 0.6107(3) 0.3676(3) 0.3168(2)
N6 N 0.6355(4) 0.3023(3) 0.3062(3)
N7 N 0.5978(3) 0.5089(2) 0.4993(2)
N8 N 0.6805(3) 0.4976(3) 0.5083(2)
N9 N 0.7599(3) 0.4901(4) 0.5159(3)
N10 N 0.6066(3) 0.4965(2) 0.1613(2)
N11 N 0.6858(3) 0.4758(3) 0.1637(2)
N12 N 0.7629(3) 0.4582(4) 0.1651(3)
N13 N 0.4148(3) 0.4803(2) 0.1746(2)
N14 N 0.3339(3) 0.4975(2) 0.1759(2)
N15 N 0.2569(3) 0.5122(3) 0.1783(3)
N16 N 0.5719(3) 0.4461(2) -0.0124(2)
N17 N 0.6286(3) 0.3951(3) -0.0246(2)
N18 N 0.6815(4) 0.3470(4) -0.0367(3)
O1 O 0.4933(2) 0.6582(2) 0.1970(2)
N19 N 0.6273(3) 0.6314(2) 0.3068(2)
C1 C 0.6804(3) 0.6190(3) 0.3697(3)
H1 H 0.6987(3) 0.5652(3) 0.3825(3)
C2 C 0.7095(4) 0.6826(4) 0.4168(3)
H2 H 0.7468(4) 0.6717(4) 0.4604(3)
C3 C 0.6826(5) 0.7621(4) 0.3985(3)
H3 H 0.7000(5) 0.8059(4) 0.4298(3)
C4 C 0.6294(4) 0.7752(4) 0.3328(3)
H4 H 0.6103(4) 0.8284(4) 0.3191(3)
C5 C 0.6046(3) 0.7096(3) 0.2875(2)
C6 C 0.5433(3) 0.7172(3) 0.2167(3)
C7 C 0.5437(4) 0.7923(3) 0.1724(3)
C8 C 0.4665(5) 0.8104(4) 0.1237(3)
H5 H 0.4144(5) 0.7759(4) 0.1198(3)
C9 C 0.4674(6) 0.8811(5) 0.0802(4)
H6 H 0.4154(6) 0.8945(5) 0.0476(4)
C10 C 0.5454(7) 0.9310(5) 0.0856(5)
H7 H 0.5458(7) 0.9780(5) 0.0566(5)
C11 C 0.6203(6) 0.9125(4) 0.1320(4)
H8 H 0.6727(6) 0.9465(4) 0.1348(4)
C12 C 0.6210(4) 0.8443(3) 0.1756(3)
H9 H 0.6739(4) 0.8323(3) 0.2078(3)
O2 O 0.5317(2) 0.3327(2) 0.4700(2)
N20 N 0.3923(3) 0.3568(2) 0.3675(2)
C13 C 0.3183(4) 0.3720(3) 0.3199(3)
H10 H 0.3071(4) 0.4259(3) 0.3036(3)
C14 C 0.2565(4) 0.3093(4) 0.2935(3)
H11 H 0.2060(4) 0.3212(4) 0.2589(3)
C15 C 0.2710(4) 0.2307(4) 0.3188(3)
H12 H 0.2300(4) 0.1884(4) 0.3025(3)
C16 C 0.3475(4) 0.2149(3) 0.3690(3)
H13 H 0.3582(4) 0.1618(3) 0.3876(3)
C17 C 0.4080(3) 0.2783(3) 0.3914(2)
C18 C 0.4931(3) 0.2696(3) 0.4454(3)
C19 C 0.5308(4) 0.1881(3) 0.4702(3)
C20 C 0.5695(4) 0.1804(4) 0.5418(3)
H14 H 0.5672(4) 0.2248(4) 0.5736(3)
C21 C 0.6117(5) 0.1075(4) 0.5665(4)
H15 H 0.6353(5) 0.1019(4) 0.6153(4)
C22 C 0.6187(5) 0.0433(4) 0.5190(5)
H16 H 0.6480(5) -0.0056(4) 0.5356(5)
C23 C 0.5830(4) 0.0507(4) 0.4475(4)
H17 H 0.5896(4) 0.0073(4) 0.4154(4)
C24 C 0.5369(4) 0.1226(4) 0.4224(4)
H18 H 0.5105(4) 0.1267(4) 0.3742(4)
O3 O 0.5301(2) 0.3233(2) 0.1264(2)
N21 N 0.3852(3) 0.3569(2) 0.0309(2)
C25 C 0.3225(3) 0.3716(3) -0.0260(3)
H19 H 0.3155(3) 0.4256(3) -0.0432(3)
C26 C 0.2666(4) 0.3102(4) -0.0613(3)
H20 H 0.2244(4) 0.3227(4) -0.1019(3)
C27 C 0.2751(4) 0.2317(4) -0.0351(3)
H21 H 0.2377(4) 0.1895(4) -0.0568(3)
C28 C 0.3402(4) 0.2155(4) 0.0243(3)
H22 H 0.3473(4) 0.1620(4) 0.0428(3)
C29 C 0.3938(3) 0.2781(3) 0.0557(3)
C30 C 0.4721(4) 0.2669(3) 0.1156(3)
C31 C 0.4829(4) 0.1905(3) 0.1594(3)
C32 C 0.4080(5) 0.1454(4) 0.1783(3)
H23 H 0.3472(5) 0.1626(4) 0.1630(3)
C33 C 0.4237(7) 0.0738(4) 0.2204(4)
H24 H 0.3737(7) 0.0435(4) 0.2342(4)
C34 C 0.5138(8) 0.0489(5) 0.2411(4)
H25 H 0.5243(8) 0.0000(5) 0.2675(4)
C35 C 0.5880(6) 0.0932(4) 0.2243(4)
H26 H 0.6484(6) 0.0755(4) 0.2400(4)
C36 C 0.5735(4) 0.1651(4) 0.1838(3)
H27 H 0.6243(4) 0.1963(4) 0.1729(3)
N7B N 0.4022(3) 0.4911(2) 0.5007(2)
N16B N 0.4281(3) 0.5539(2) 0.0124(2)
Mn2B Mn 0.50846(5) 0.54321(4) 0.58334(3)
Mn3B Mn 0.51018(5) 0.54850(4) -0.08077(3)
loop_
_geom_bond_atom_site_label_1
_geom_bond_atom_site_label_2
_geom_bond_site_symmetry_1
_geom_bond_site_symmetry_2
Mn1 N1 1_555 1_555
Mn2 N1 1_555 1_555
Mn3 N10 1_555 1_555
N1 N2 1_555 1_555
N2 N3 1_555 1_555
N4 Mn1 1_555 1_555
N5 N4 1_555 1_555
N6 N5 1_555 1_555
N7 Mn2 1_555 1_555
N8 N7 1_555 1_555
N9 N8 1_555 1_555
N10 Mn1 1_555 1_555
N11 N10 1_555 1_555
N12 N11 1_555 1_555
N13 Mn1 1_555 1_555
N14 N13 1_555 1_555
N15 N14 1_555 1_555
N16 Mn3 1_555 1_555
N17 N16 1_555 1_555
N18 N17 1_555 1_555
O1 Mn1 1_555 1_555
N19 Mn1 1_555 1_555
C1 N19 1_555 1_555
H1 C1 1_555 1_555
C2 C1 1_555 1_555
H2 C2 1_555 1_555
C3 C2 1_555 1_555
H3 C3 1_555 1_555
C4 C3 1_555 1_555
H4 C4 1_555 1_555
C5 N19 1_555 1_555
C6 O1 1_555 1_555
C7 C6 1_555 1_555
C8 C7 1_555 1_555
H5 C8 1_555 1_555
C9 C8 1_555 1_555
H6 C9 1_555 1_555
C10 C9 1_555 1_555
H7 C10 1_555 1_555
C11 C10 1_555 1_555
H8 C11 1_555 1_555
C12 C7 1_555 1_555
H9 C12 1_555 1_555
O2 Mn2 1_555 1_555
N20 Mn2 1_555 1_555
C13 N20 1_555 1_555
H10 C13 1_555 1_555
C14 C13 1_555 1_555
H11 C14 1_555 1_555
C15 C14 1_555 1_555
H12 C15 1_555 1_555
C16 C15 1_555 1_555
H13 C16 1_555 1_555
C17 N20 1_555 1_555
C18 O2 1_555 1_555
C19 C18 1_555 1_555
C20 C19 1_555 1_555
H14 C20 1_555 1_555
C21 C20 1_555 1_555
H15 C21 1_555 1_555
C22 C21 1_555 1_555
H16 C22 1_555 1_555
C23 C22 1_555 1_555
H17 C23 1_555 1_555
C24 C19 1_555 1_555
H18 C24 1_555 1_555
O3 Mn3 1_555 1_555
N21 Mn3 1_555 1_555
C25 N21 1_555 1_555
H19 C25 1_555 1_555
C26 C25 1_555 1_555
H20 C26 1_555 1_555
C27 C26 1_555 1_555
H21 C27 1_555 1_555
C28 C27 1_555 1_555
H22 C28 1_555 1_555
C29 N21 1_555 1_555
C30 O3 1_555 1_555
C31 C30 1_555 1_555
C32 C31 1_555 1_555
H23 C32 1_555 1_555
C33 C32 1_555 1_555
H24 C33 1_555 1_555
C34 C33 1_555 1_555
H25 C34 1_555 1_555
C35 C34 1_555 1_555
H26 C35 1_555 1_555
C36 C31 1_555 1_555
H27 C36 1_555 1_555
N7B Mn2 1_555 1_555
N16B Mn3 1_555 1_555
Mn2B N7 1_555 1_555
Mn3B N16 1_555 1_555
Mn2 N4 1_555 1_555
Mn3 N13 1_555 1_555
C4 C5 1_555 1_555
C5 C6 1_555 1_555
C11 C12 1_555 1_555
C16 C17 1_555 1_555
C17 C18 1_555 1_555
C23 C24 1_555 1_555
C28 C29 1_555 1_555
C29 C30 1_555 1_555
C35 C36 1_555 1_555
N7B Mn2B 1_555 1_555
N16B Mn3B 1_555 1_555

#END
