
#######################################################################
#
#                 Cambridge Crystallographic Data Centre
#                                CCDC 
#
#######################################################################
#
# If this CIF has been generated from an entry in the Cambridge 
# Structural Database, then it will include bibliographic, chemical, 
# crystal, experimental, refinement or atomic coordinate data resulting 
# from the CCDC's data processing and validation procedures.
#
#######################################################################

data_CUQGIG
_symmetry_cell_setting           monoclinic
_symmetry_space_group_name_H-M   'P 21/c'
_symmetry_Int_Tables_number      14
_space_group_name_Hall           '-P 2ybc'
loop_
_symmetry_equiv_pos_site_id
_symmetry_equiv_pos_as_xyz
1 x,y,z
2 -x,1/2+y,1/2-z
3 -x,-y,-z
4 x,1/2-y,1/2+z
_cell_length_a                   17.564
_cell_length_b                   10.988
_cell_length_c                   10.225
_cell_angle_alpha                90
_cell_angle_beta                 93.41
_cell_angle_gamma                90
_cell_volume                     1969.86
loop_
_atom_site_label
_atom_site_type_symbol
_atom_site_fract_x
_atom_site_fract_y
_atom_site_fract_z
Cd1 Cd 0.23988(7) 0.06188(10) 0.75589(11)
O1 O 0.2351(7) 0.1173(10) 1.0244(9)
O2 O 0.2330(8) 0.0977(11) 1.5126(12)
C1 C 0.2604(11) -0.0545(14) 1.1603(15)
O3 O 0.2939(9) -0.0576(11) 1.6012(11)
O4 O 0.1829(7) 0.2498(11) 0.7543(12)
O5 O 0.2529(7) -0.0595(9) 0.9301(10)
O6 O 0.2556(7) 0.0190(11) 1.2646(10)
C2 C 0.2488(11) 0.0103(15) 1.0279(14)
C3 C 0.2718(10) -0.0560(14) 1.3725(15)
N1 N 0.1292(9) -0.0558(13) 0.7006(15)
N2 N 0.0536(8) -0.2106(12) 0.6825(15)
N3 N 0.3550(8) 0.1663(14) 0.7854(16)
C4 C 0.2637(12) 0.0003(15) 1.5020(15)
C5 C 0.1082(10) -0.1577(15) 0.7566(17)
H1 H 0.1288 -0.1877 0.8361
C6 C 0.2744(10) -0.1700(13) 1.1928(14)
H2 H 0.2778 -0.2361 1.1366
C7 C 0.3682(11) 0.2521(19) 0.879(2)
H3 H 0.3360 0.2661 0.9462
N4 N 0.4586(8) 0.2667(15) 0.7541(19)
C8 C 0.2833(10) -0.1707(15) 1.3330(15)
H4 H 0.2948 -0.2376 1.3862
C9 C 0.4138(10) 0.1787(18) 0.7106(17)
H5 H 0.4220 0.1314 0.6373
C10 C 0.5113(10) 0.4081(19) 0.595(2)
C11 C 0.0826(15) -0.052(2) 0.589(2)
H6 H 0.0845 0.0107 0.5280
C12 C 0.0058(11) -0.4123(19) 0.601(2)
C13 C 0.0528(12) -0.5125(18) 0.603(2)
H7 H 0.0889 -0.5224 0.6721
N5 N 0.0368(12) -0.1388(19) 0.5769(19)
C14 C 0.5273(11) 0.317(2) 0.696(2)
H8 H 0.5600 0.3530 0.7652
H9 H 0.5553 0.2505 0.6586
N6 N 0.4321(10) 0.3141(17) 0.8637(19)
C15 C 0.5549(11) 0.4119(19) 0.487(2)
H10 H 0.5925 0.3534 0.4780
C16 C -0.0481(11) -0.4012(18) 0.496(2)
H11 H -0.0812 -0.3350 0.4919
C17 C 0.0081(11) -0.3189(18) 0.711(2)
H12 H -0.0436 -0.2938 0.7257
H13 H 0.0293 -0.3567 0.7904
C18 C 0.4563(12) 0.498(2) 0.608(2)
H14 H 0.4269 0.4984 0.6803
H15 H 0.1488(13) 0.242(3) 0.695(3)
H16 H 0.181(11) 0.323(5) 0.772(19)
N1B N -0.1292(9) -0.9442(13) 0.2994(15)
N2B N -0.0536(8) -0.7894(12) 0.3175(15)
C5B C -0.1082(10) -0.8423(15) 0.2434(17)
H1B H -0.1288 -0.8123 0.1639
C11B C -0.0826(15) -0.948(2) 0.411(2)
H6B H -0.0845 -1.0107 0.4720
C12B C -0.0058(11) -0.5877(19) 0.399(2)
C13B C -0.0528(12) -0.4875(18) 0.397(2)
H7B H -0.0889 -0.4776 0.3279
N5B N -0.0368(12) -0.8612(19) 0.4231(19)
C16B C 0.0481(11) -0.5988(18) 0.504(2)
H11B H 0.0812 -0.6650 0.5081
C17B C -0.0081(11) -0.6811(18) 0.289(2)
H12B H 0.0436 -0.7062 0.2743
H13B H -0.0293 -0.6433 0.2096
N3B N 0.6450(8) 0.8337(14) 0.2146(16)
C7B C 0.6318(11) 0.7479(19) 0.121(2)
H3B H 0.6640 0.7339 0.0538
N4B N 0.5414(8) 0.7333(15) 0.2459(19)
C9B C 0.5862(10) 0.8213(18) 0.2894(17)
H5B H 0.5780 0.8686 0.3627
C10B C 0.4887(10) 0.5919(19) 0.405(2)
C14B C 0.4727(11) 0.683(2) 0.304(2)
H8B H 0.4400 0.6470 0.2348
H9B H 0.4447 0.7495 0.3414
N6B N 0.5679(10) 0.6859(17) 0.1363(19)
C15B C 0.4451(11) 0.5881(19) 0.513(2)
H10B H 0.4075 0.6466 0.5220
C18B C 0.5437(12) 0.502(2) 0.392(2)
H14B H 0.5731 0.5016 0.3197
Cd1B Cd -0.23988(7) -1.06188(10) 0.24411(11)
O1B O -0.2351(7) -1.1173(10) -0.0244(9)
O2B O -0.2330(8) -1.0977(11) -0.5126(12)
C1B C -0.2604(11) -0.9455(14) -0.1603(15)
O3B O -0.2939(9) -0.9424(11) -0.6012(11)
O4B O -0.1829(7) -1.2498(11) 0.2457(12)
O5B O -0.2529(7) -0.9405(9) 0.0699(10)
O6B O -0.2556(7) -1.0190(11) -0.2646(10)
C2B C -0.2488(11) -1.0103(15) -0.0279(14)
C3B C -0.2718(10) -0.9440(14) -0.3725(15)
C4B C -0.2637(12) -1.0003(15) -0.5020(15)
C6B C -0.2744(10) -0.8300(13) -0.1928(14)
H2B H -0.2778 -0.7639 -0.1366
C8B C -0.2833(10) -0.8293(15) -0.3330(15)
H4B H -0.2948 -0.7624 -0.3862
H15B H -0.1488(13) -1.242(3) 0.305(3)
H16B H -0.181(11) -1.323(5) 0.228(19)
Cd1_2 Cd 0.23988(7) 0.06188(10) 1.75589(11)
Cd1B_2 Cd -0.23988(7) -1.06188(10) -0.75589(11)
Cd1B_3 Cd 0.76012(7) 0.93812(10) 0.24411(11)
O2_2 O 0.2330(8) 0.0977(11) 0.5126(12)
O2B_2 O -0.2330(8) -1.0977(11) 0.4874(12)
O3_2 O 0.2939(9) -0.0576(11) 0.6012(11)
O3B_2 O -0.2939(9) -0.9424(11) 0.3988(11)
N3B_2 N -0.3550(8) -1.1663(14) 0.2146(16)
loop_
_geom_bond_atom_site_label_1
_geom_bond_atom_site_label_2
_geom_bond_site_symmetry_1
_geom_bond_site_symmetry_2
Cd1 O1 1_555 1_555
O1 C2 1_555 1_555
O2 C4 1_555 1_555
C1 O6 1_555 1_555
O3 C4 1_555 1_555
O4 Cd1 1_555 1_555
O5 Cd1 1_555 1_555
O6 C3 1_555 1_555
C2 C1 1_555 1_555
C3 C4 1_555 1_555
N1 Cd1 1_555 1_555
N2 C5 1_555 1_555
N3 Cd1 1_555 1_555
C5 N1 1_555 1_555
H1 C5 1_555 1_555
C6 C1 1_555 1_555
H2 C6 1_555 1_555
C7 N3 1_555 1_555
H3 C7 1_555 1_555
N4 C9 1_555 1_555
C8 C3 1_555 1_555
H4 C8 1_555 1_555
C9 N3 1_555 1_555
H5 C9 1_555 1_555
C10 C14 1_555 1_555
C11 N1 1_555 1_555
H6 C11 1_555 1_555
C12 C13 1_555 1_555
C13 H7 1_555 1_555
N5 N2 1_555 1_555
C14 N4 1_555 1_555
H8 C14 1_555 1_555
H9 C14 1_555 1_555
N6 C7 1_555 1_555
C15 C10 1_555 1_555
H10 C15 1_555 1_555
C16 C12 1_555 1_555
H11 C16 1_555 1_555
C17 N2 1_555 1_555
H12 C17 1_555 1_555
H13 C17 1_555 1_555
C18 C10 1_555 1_555
H14 C18 1_555 1_555
H15 O4 1_555 1_555
H16 O4 1_555 1_555
N1B C5B 1_555 1_555
N2B C5B 1_555 1_555
C5B H1B 1_555 1_555
C11B N1B 1_555 1_555
H6B C11B 1_555 1_555
C12B C13B 1_555 1_555
C13B C16 1_555 1_555
H7B C13B 1_555 1_555
N5B N2B 1_555 1_555
C16B C13 1_555 1_555
H11B C16B 1_555 1_555
C17B N2B 1_555 1_555
H12B C17B 1_555 1_555
H13B C17B 1_555 1_555
N3B C7B 1_555 1_555
C7B H3B 1_555 1_555
N4B C9B 1_555 1_555
C9B N3B 1_555 1_555
H5B C9B 1_555 1_555
C10B C14B 1_555 1_555
C14B N4B 1_555 1_555
H8B C14B 1_555 1_555
H9B C14B 1_555 1_555
N6B C7B 1_555 1_555
C15B C18 1_555 1_555
H10B C15B 1_555 1_555
C18B C15 1_555 1_555
H14B C18B 1_555 1_555
Cd1B N1B 1_555 1_555
O1B Cd1B 1_555 1_555
O2B C4B 1_555 1_555
C1B O6B 1_555 1_555
O3B C4B 1_555 1_555
O4B Cd1B 1_555 1_555
O5B Cd1B 1_555 1_555
O6B C3B 1_555 1_555
C2B O1B 1_555 1_555
C3B C4B 1_555 1_555
C6B C1B 1_555 1_555
H2B C6B 1_555 1_555
C8B C3B 1_555 1_555
H4B C8B 1_555 1_555
H15B O4B 1_555 1_555
H16B O4B 1_555 1_555
Cd1_2 O2 1_555 1_555
Cd1B_2 O2B 1_555 1_555
Cd1B_3 N3B 1_555 1_555
O2_2 Cd1 1_555 1_555
O2B_2 Cd1B 1_555 1_555
O3_2 Cd1 1_555 1_555
O3B_2 Cd1B 1_555 1_555
N3B_2 Cd1B 1_555 1_555
O3 Cd1_2 1_555 1_555
O5 C2 1_555 1_555
C6 C8 1_555 1_555
N4 N6 1_555 1_555
C11 N5 1_555 1_555
C12 C17 1_555 1_555
C11B N5B 1_555 1_555
C12B C16B 1_555 1_555
C12B C17B 1_555 1_555
N4B N6B 1_555 1_555
C10B C15B 1_555 1_555
C10B C18B 1_555 1_555
C1B C2B 1_555 1_555
O3B Cd1B_2 1_555 1_555
O5B C2B 1_555 1_555
C6B C8B 1_555 1_555

#END
