
#######################################################################
#
#                 Cambridge Crystallographic Data Centre
#                                CCDC 
#
#######################################################################
#
# If this CIF has been generated from an entry in the Cambridge 
# Structural Database, then it will include bibliographic, chemical, 
# crystal, experimental, refinement or atomic coordinate data resulting 
# from the CCDC's data processing and validation procedures.
#
#######################################################################

data_CUQKEG
_symmetry_cell_setting           monoclinic
_symmetry_space_group_name_H-M   'I 2/c'
_symmetry_Int_Tables_number      15
_space_group_name_Hall           '-I 2yc'
loop_
_symmetry_equiv_pos_site_id
_symmetry_equiv_pos_as_xyz
1 x,y,z
2 -x,y,1/2-z
3 1/2+x,1/2+y,1/2+z
4 1/2-x,1/2+y,-z
5 -x,-y,-z
6 x,-y,1/2+z
7 1/2-x,1/2-y,1/2-z
8 1/2+x,1/2-y,z
_cell_length_a                   17.6906(12)
_cell_length_b                   9.2409(6)
_cell_length_c                   19.8228(13)
_cell_angle_alpha                90
_cell_angle_beta                 114.697(6)
_cell_angle_gamma                90
_cell_volume                     2944.16
loop_
_atom_site_label
_atom_site_type_symbol
_atom_site_fract_x
_atom_site_fract_y
_atom_site_fract_z
C7 C 0.2751(10) 0.5771(12) 0.2886(7)
C8 C 0.2198(9) 0.6958(17) 0.2753(9)
C9 C 0.2425(8) 0.8030(12) 0.2359(8)
C10 C 0.3120(8) 0.7506(14) 0.2249(7)
N1 N 0.3321(7) 0.6109(14) 0.2574(7)
C11 C 0.391(3) 0.522(3) 0.2665(19)
C7F C 0.2249(10) 0.9229(12) 0.2114(7)
C8F C 0.2802(9) 0.8042(17) 0.2247(9)
C9F C 0.2575(8) 0.6970(12) 0.2641(8)
C10F C 0.1880(8) 0.7494(14) 0.2751(7)
N1F N 0.1679(7) 0.8891(14) 0.2426(7)
C11F C 0.109(3) 0.978(3) 0.2335(19)
U1 U 0.17607(2) -0.00979(2) -0.01558(2)
P1 P 0.17700(8) 0.31372(14) 0.08641(7)
P2 P -0.11575(7) 0.34415(14) 0.11774(7)
O1 O 0.1452(2) 0.1670(4) 0.0580(2)
O2 O 0.2201(2) 0.3978(4) 0.0491(2)
O3 O 0.2397(2) 0.2934(4) 0.16848(19)
H1 H 0.2667 0.2192 0.1724
O4 O -0.1095(2) 0.1851(4) 0.1106(2)
O5 O -0.1951(2) 0.4158(5) 0.0713(2)
O6 O -0.1005(2) 0.3725(4) 0.19954(19)
H2 H -0.0728 0.3062 0.2257
O7 O 0.1589(3) 0.1251(4) -0.0829(2)
O8 O 0.1896(3) -0.1463(4) 0.0499(2)
O9 O 0.0322(3) -0.0134(4) -0.0413(3)
C1 C 0.0971(3) 0.4185(5) 0.0949(3)
C2 C 0.0331(3) 0.3522(6) 0.1052(3)
H3 H 0.0327 0.2520 0.1094
C3 C -0.0309(3) 0.4330(6) 0.1096(3)
C4 C -0.0302(3) 0.5830(6) 0.1030(3)
H4 H -0.0730 0.6378 0.1057
C5 C 0.0338(4) 0.6510(6) 0.0924(3)
H5 H 0.0339 0.7512 0.0882
C6 C 0.0970(3) 0.5709(6) 0.0880(3)
H6 H 0.1396 0.6169 0.0806
U1C U 0.32393(2) 0.49021(2) 0.01558(2)
U1D U -0.17607(2) 0.00979(2) 0.01558(2)
U1G U -0.32393(2) 0.50979(2) -0.01558(2)
O2C O 0.2799(2) -0.1022(4) -0.0491(2)
O4D O 0.1095(2) -0.1851(4) -0.1106(2)
O5G O 0.3049(2) 0.0842(5) 0.0713(2)
loop_
_geom_bond_atom_site_label_1
_geom_bond_atom_site_label_2
_geom_bond_site_symmetry_1
_geom_bond_site_symmetry_2
U1 O1 1_555 1_555
P1 O1 1_555 1_555
P2 O4 1_555 1_555
O2 P1 1_555 1_555
O3 P1 1_555 1_555
H1 O3 1_555 1_555
O4 U1D 1_555 1_555
O5 P2 1_555 1_555
O6 P2 1_555 1_555
H2 O6 1_555 1_555
O7 U1 1_555 1_555
O8 U1 1_555 1_555
O9 U1 1_555 1_555
C1 P1 1_555 1_555
C2 C1 1_555 1_555
H3 C2 1_555 1_555
C3 P2 1_555 1_555
C4 C3 1_555 1_555
H4 C4 1_555 1_555
C5 C4 1_555 1_555
H5 C5 1_555 1_555
C6 C1 1_555 1_555
H6 C6 1_555 1_555
C7 C8 1_555 1_555
C8 C10F 1_555 1_555
C9 C7F 1_555 1_555
C10 N1 1_555 1_555
N1 C7 1_555 1_555
C11 N1 1_555 1_555
U1C O2 1_555 1_555
U1G O5 1_555 1_555
O2C U1 1_555 1_555
O4D U1 1_555 1_555
O5G U1 1_555 1_555
C7F C8F 1_555 1_555
C8F C10 1_555 1_555
C9F C7 1_555 1_555
C10F N1F 1_555 1_555
N1F C9 1_555 1_555
C11F N1F 1_555 1_555
C2 C3 1_555 1_555
C5 C6 1_555 1_555
C9 C9F 1_555 1_555
N1 C9F 1_555 1_555
C7F N1F 1_555 1_555

#END
