
#######################################################################
#
#                 Cambridge Crystallographic Data Centre
#                                CCDC 
#
#######################################################################
#
# If this CIF has been generated from an entry in the Cambridge 
# Structural Database, then it will include bibliographic, chemical, 
# crystal, experimental, refinement or atomic coordinate data resulting 
# from the CCDC's data processing and validation procedures.
#
#######################################################################

data_CUQKEF
_symmetry_cell_setting           monoclinic
_symmetry_space_group_name_H-M   'C 2/c'
_symmetry_Int_Tables_number      15
_space_group_name_Hall           '-C 2yn'
loop_
_symmetry_equiv_pos_site_id
_symmetry_equiv_pos_as_xyz
1 x,y,z
2 1/2+x,1/2+y,z
3 -x,y,1/2-z
4 1/2-x,1/2+y,1/2-z
5 -x,-y,-z
6 1/2-x,1/2-y,-z
7 x,-y,1/2+z
8 1/2+x,1/2-y,1/2+z
_cell_length_a                   16.9116(18)
_cell_length_b                   15.5293(16)
_cell_length_c                   17.268(2)
_cell_angle_alpha                90
_cell_angle_beta                 97.566(10)
_cell_angle_gamma                90
_cell_volume                     4495.53
loop_
_atom_site_label
_atom_site_type_symbol
_atom_site_fract_x
_atom_site_fract_y
_atom_site_fract_z
Si1 Si 0.5000 0.42346(7) 0.7500
F1 F 0.51920(11) 0.42519(11) 0.65639(10)
F2 F 0.42096(10) 0.48077(11) 0.72452(12)
C1 C 0.5000 0.3009(2) 0.7500
C2 C 0.57111(16) 0.25411(18) 0.74771(16)
C3 C 0.57016(17) 0.16380(18) 0.74765(18)
H1 H 0.6186 0.1332 0.7460
C4 C 0.5000 0.1182(3) 0.7500
H2 H 0.5000 0.0570 0.7500
C5 C 0.65055(16) 0.29720(17) 0.74683(17)
C6 C 0.69419(16) 0.32529(18) 0.81698(17)
C7 C 0.76871(17) 0.36385(19) 0.81510(18)
H3 H 0.7982 0.3833 0.8625
C8 C 0.80050(17) 0.37428(18) 0.74535(19)
C9 C 0.75667(17) 0.34548(18) 0.67635(18)
H4 H 0.7784 0.3515 0.6286
C10 C 0.68159(16) 0.30800(18) 0.67562(17)
C11 C 0.66263(18) 0.3155(2) 0.89419(17)
H5 H 0.7050 0.3291 0.9368
H6 H 0.6447 0.2560 0.8998
H7 H 0.6177 0.3548 0.8961
C12 C 0.88102(18) 0.4168(2) 0.7442(2)
H8 H 0.9194 0.3741 0.7301
H9 H 0.8997 0.4404 0.7960
H10 H 0.8760 0.4635 0.7056
C13 C 0.63505(18) 0.2817(2) 0.59878(17)
H11 H 0.6686 0.2883 0.5570
H12 H 0.5877 0.3182 0.5877
H13 H 0.6186 0.2214 0.6017
Cs1 Cs 0.5000 0.5000 0.5000
C14 C 0.25333(18) 0.5385(2) 0.53132(19)
C15 C 0.18390(19) 0.5477(2) 0.5657(2)
H14 H 0.1841 0.5830 0.6106
C16 C 0.11389(19) 0.5053(2) 0.5348(2)
H15 H 0.0666 0.5123 0.5584
C17 C 0.11350(19) 0.4536(2) 0.4702(2)
H16 H 0.0661 0.4241 0.4497
C18 C 0.18255(18) 0.4443(2) 0.4345(2)
H17 H 0.1822 0.4079 0.3903
C19 C 0.25141(17) 0.48785(18) 0.46352(18)
O1 O 0.32525(12) 0.57621(14) 0.55734(13)
C20 C 0.32825(19) 0.6273(2) 0.62701(19)
H18 H 0.3158 0.5910 0.6710
H19 H 0.2883 0.6741 0.6190
C21 C 0.4104(2) 0.6648(2) 0.64577(18)
H20 H 0.4174 0.6891 0.6992
H21 H 0.4511 0.6194 0.6432
O2 O 0.41990(14) 0.73086(15) 0.59033(14)
C22 C 0.4935(2) 0.7767(2) 0.6044(2)
H22 H 0.5148 0.7719 0.6605
H23 H 0.4835 0.8384 0.5926
C23 C 0.5547(2) 0.7440(2) 0.5564(2)
H24 H 0.5319 0.7443 0.5006
H25 H 0.6013 0.7832 0.5627
O3 O 0.58067(14) 0.65868(15) 0.57834(17)
C24 C 0.65724(18) 0.6547(2) 0.6245(2)
H26 H 0.6563 0.6857 0.6744
H27 H 0.6982 0.6814 0.5962
C25 C 0.67595(18) 0.56014(19) 0.63966(18)
H28 H 0.7281 0.5547 0.6729
H29 H 0.6347 0.5345 0.6683
O4 O 0.32151(13) 0.48610(13) 0.43189(13)
F1B F 0.48080(11) 0.42519(11) 0.84361(10)
F1D F 0.48080(11) 0.57481(11) 0.34361(10)
F2B F 0.57904(10) 0.48077(11) 0.77548(12)
C2B C 0.42889(16) 0.25411(18) 0.75229(16)
C3B C 0.42984(17) 0.16380(18) 0.75235(18)
H1B H 0.3814 0.1332 0.7540
C5B C 0.34945(16) 0.29720(17) 0.75317(17)
C6B C 0.30581(16) 0.32529(18) 0.68302(17)
C7B C 0.23129(17) 0.36385(19) 0.68490(18)
H3B H 0.2018 0.3833 0.6375
C8B C 0.19950(17) 0.37428(18) 0.75465(19)
C9B C 0.24333(17) 0.34548(18) 0.82365(18)
H4B H 0.2216 0.3515 0.8714
C10B C 0.31841(16) 0.30800(18) 0.82438(17)
C11B C 0.33737(18) 0.3155(2) 0.60581(17)
H5B H 0.2950 0.3291 0.5632
H6B H 0.3553 0.2560 0.6002
H7B H 0.3823 0.3548 0.6039
C12B C 0.11898(18) 0.4168(2) 0.7558(2)
H8B H 0.0806 0.3741 0.7699
H9B H 0.1003 0.4404 0.7040
H10B H 0.1240 0.4635 0.7944
C13B C 0.36495(18) 0.2817(2) 0.90122(17)
H11B H 0.3314 0.2883 0.9430
H12B H 0.4123 0.3182 0.9123
H13B H 0.3814 0.2214 0.8983
Cs1B Cs 0.5000 0.5000 1.0000
C14D C 0.74667(18) 0.4615(2) 0.46868(19)
C15D C 0.81610(19) 0.4523(2) 0.4343(2)
H14D H 0.8159 0.4170 0.3894
C16D C 0.88611(19) 0.4947(2) 0.4652(2)
H15D H 0.9334 0.4877 0.4416
C17D C 0.88650(19) 0.5464(2) 0.5298(2)
H16D H 0.9339 0.5759 0.5503
C18D C 0.81745(18) 0.5557(2) 0.5655(2)
H17D H 0.8178 0.5921 0.6097
C19D C 0.74859(17) 0.51215(18) 0.53648(18)
O1D O 0.67475(12) 0.42379(14) 0.44266(13)
C20D C 0.67175(19) 0.3727(2) 0.37299(19)
H18D H 0.6842 0.4090 0.3290
H19D H 0.7117 0.3259 0.3810
C21D C 0.5896(2) 0.3352(2) 0.35423(18)
H20D H 0.5826 0.3109 0.3008
H21D H 0.5489 0.3806 0.3568
O2D O 0.58010(14) 0.26914(15) 0.40967(14)
C22D C 0.5065(2) 0.2233(2) 0.3956(2)
H22D H 0.4852 0.2281 0.3395
H23D H 0.5165 0.1616 0.4074
C23D C 0.4453(2) 0.2560(2) 0.4436(2)
H24D H 0.4681 0.2557 0.4994
H25D H 0.3987 0.2168 0.4373
O3D O 0.41933(14) 0.34132(15) 0.42166(17)
C24D C 0.34276(18) 0.3453(2) 0.3755(2)
H26D H 0.3437 0.3143 0.3256
H27D H 0.3018 0.3186 0.4038
C25D C 0.32405(18) 0.43986(19) 0.36034(18)
H28D H 0.2719 0.4453 0.3271
H29D H 0.3653 0.4655 0.3317
O4D O 0.67849(13) 0.51390(13) 0.56811(13)
loop_
_geom_bond_atom_site_label_1
_geom_bond_atom_site_label_2
_geom_bond_site_symmetry_1
_geom_bond_site_symmetry_2
Si1 F1 1_555 1_555
F1 Cs1 1_555 1_555
F2 Si1 1_555 1_555
C1 Si1 1_555 1_555
C2 C1 1_555 1_555
C3 C2 1_555 1_555
H1 C3 1_555 1_555
C4 C3 1_555 1_555
H2 C4 1_555 1_555
C5 C2 1_555 1_555
C6 C5 1_555 1_555
C7 C6 1_555 1_555
H3 C7 1_555 1_555
C8 C7 1_555 1_555
C9 C8 1_555 1_555
H4 C9 1_555 1_555
C10 C5 1_555 1_555
C11 C6 1_555 1_555
H5 C11 1_555 1_555
H6 C11 1_555 1_555
H7 C11 1_555 1_555
C12 C8 1_555 1_555
H8 C12 1_555 1_555
H9 C12 1_555 1_555
H10 C12 1_555 1_555
C13 C10 1_555 1_555
H11 C13 1_555 1_555
H12 C13 1_555 1_555
H13 C13 1_555 1_555
Cs1 O3 1_555 1_555
C14 C15 1_555 1_555
C15 H14 1_555 1_555
C16 C15 1_555 1_555
H15 C16 1_555 1_555
C17 C16 1_555 1_555
H16 C17 1_555 1_555
C18 C17 1_555 1_555
H17 C18 1_555 1_555
C19 C14 1_555 1_555
O1 C14 1_555 1_555
C20 O1 1_555 1_555
H18 C20 1_555 1_555
H19 C20 1_555 1_555
C21 C20 1_555 1_555
H20 C21 1_555 1_555
H21 C21 1_555 1_555
O2 C21 1_555 1_555
C22 O2 1_555 1_555
H22 C22 1_555 1_555
H23 C22 1_555 1_555
C23 C22 1_555 1_555
H24 C23 1_555 1_555
H25 C23 1_555 1_555
O3 C23 1_555 1_555
C24 O3 1_555 1_555
H26 C24 1_555 1_555
H27 C24 1_555 1_555
C25 C24 1_555 1_555
H28 C25 1_555 1_555
H29 C25 1_555 1_555
O4 Cs1 1_555 1_555
F1B Si1 1_555 1_555
F1D Cs1 1_555 1_555
F2B Si1 1_555 1_555
C2B C1 1_555 1_555
C3B C4 1_555 1_555
H1B C3B 1_555 1_555
C5B C2B 1_555 1_555
C6B C5B 1_555 1_555
C7B C6B 1_555 1_555
H3B C7B 1_555 1_555
C8B C7B 1_555 1_555
C9B C8B 1_555 1_555
H4B C9B 1_555 1_555
C10B C5B 1_555 1_555
C11B C6B 1_555 1_555
H5B C11B 1_555 1_555
H6B C11B 1_555 1_555
H7B C11B 1_555 1_555
C12B C8B 1_555 1_555
H8B C12B 1_555 1_555
H9B C12B 1_555 1_555
H10B C12B 1_555 1_555
C13B C10B 1_555 1_555
H11B C13B 1_555 1_555
H12B C13B 1_555 1_555
H13B C13B 1_555 1_555
Cs1B F1B 1_555 1_555
C14D C15D 1_555 1_555
C15D H14D 1_555 1_555
C16D C15D 1_555 1_555
H15D C16D 1_555 1_555
C17D C16D 1_555 1_555
H16D C17D 1_555 1_555
C18D C17D 1_555 1_555
H17D C18D 1_555 1_555
C19D C14D 1_555 1_555
O1D C14D 1_555 1_555
C20D O1D 1_555 1_555
H18D C20D 1_555 1_555
H19D C20D 1_555 1_555
C21D C20D 1_555 1_555
H20D C21D 1_555 1_555
H21D C21D 1_555 1_555
O2D C21D 1_555 1_555
C22D O2D 1_555 1_555
H22D C22D 1_555 1_555
H23D C22D 1_555 1_555
C23D C22D 1_555 1_555
H24D C23D 1_555 1_555
H25D C23D 1_555 1_555
O3D Cs1 1_555 1_555
C24D O3D 1_555 1_555
H26D C24D 1_555 1_555
H27D C24D 1_555 1_555
C25D O4 1_555 1_555
H28D C25D 1_555 1_555
H29D C25D 1_555 1_555
O4D Cs1 1_555 1_555
C9 C10 1_555 1_555
C18 C19 1_555 1_555
C19 O4 1_555 1_555
C25 O4D 1_555 1_555
C2B C3B 1_555 1_555
C9B C10B 1_555 1_555
C18D C19D 1_555 1_555
C19D O4D 1_555 1_555
C23D O3D 1_555 1_555
C24D C25D 1_555 1_555

#END
