
#######################################################################
#
#                 Cambridge Crystallographic Data Centre
#                                CCDC 
#
#######################################################################
#
# If this CIF has been generated from an entry in the Cambridge 
# Structural Database, then it will include bibliographic, chemical, 
# crystal, experimental, refinement or atomic coordinate data resulting 
# from the CCDC's data processing and validation procedures.
#
#######################################################################

data_CUQKIK
_symmetry_cell_setting           triclinic
_symmetry_space_group_name_H-M   'P -1'
_symmetry_Int_Tables_number      2
_space_group_name_Hall           '-P 1'
loop_
_symmetry_equiv_pos_site_id
_symmetry_equiv_pos_as_xyz
1 x,y,z
2 -x,-y,-z
_cell_length_a                   9.7194(9)
_cell_length_b                   10.3787(9)
_cell_length_c                   10.4643(9)
_cell_angle_alpha                110.067(2)
_cell_angle_beta                 103.971(2)
_cell_angle_gamma                105.105(2)
_cell_volume                     891.265
loop_
_atom_site_label
_atom_site_type_symbol
_atom_site_fract_x
_atom_site_fract_y
_atom_site_fract_z
U1 U 0.72171(7) 0.57242(8) 0.03623(8)
P1 P 0.8808(5) 0.2766(5) -0.0556(5)
P2 P 0.9045(6) -0.0400(5) 0.2783(5)
F1 F 0.5073(13) 0.6301(13) 0.0526(14)
O1 O 0.7646(15) 0.3520(15) -0.0529(16)
O2 O 1.0172(14) 0.3552(14) -0.0861(15)
O3 O 0.7973(15) 0.1146(15) -0.1778(16)
H1 H 0.8605 0.0828 -0.2016
O4 O 0.8088(15) -0.1660(15) 0.1280(15)
O5 O 1.0566(16) -0.0466(16) 0.3519(15)
O6 O 0.8088(16) -0.0286(18) 0.3782(17)
H2 H 0.8665 0.0157 0.4641
O7 O 0.6825(17) 0.5677(17) -0.1426(15)
O8 O 0.7619(17) 0.5770(19) 0.208(2)
C1 C 0.942(2) 0.269(2) 0.115(2)
C2 C 0.909(2) 0.133(2) 0.124(2)
H3 H 0.8624 0.0440 0.0399
C3 C 0.947(2) 0.132(2) 0.262(2)
C4 C 1.024(3) 0.264(3) 0.384(2)
H4 H 1.0520 0.2628 0.4754
C5 C 1.063(3) 0.398(3) 0.376(3)
H5 H 1.1156 0.4862 0.4609
C6 C 1.020(2) 0.398(2) 0.239(2)
H6 H 1.0445 0.4877 0.2318
U1_2 U 0.72171(7) -0.42758(8) 0.03623(8)
U1A U 0.27829(7) 0.42758(8) -0.03623(8)
U1A_2 U 1.27829(7) 0.42758(8) -0.03623(8)
F1A F 0.4927(13) 0.3699(13) -0.0526(14)
O2A O 0.9828(14) 0.6448(14) 0.0861(15)
O4_2 O 0.8088(15) 0.8340(15) 0.1280(15)
N1 N 0.495(4) 0.217(3) 0.350(4)
C7 C 0.407(4) 0.269(3) 0.409(5)
H7 H 0.3348 0.2909 0.3528
C8 C 0.409(4) 0.292(3) 0.534(4)
H8 H 0.3435 0.3332 0.5692
C9 C 0.501(4) 0.258(4) 0.615(4)
H9 H 0.4989 0.2703 0.7070
C10 C 0.603(5) 0.203(4) 0.566(5)
H10 H 0.6679 0.1742 0.6216
C11 C 0.605(5) 0.191(4) 0.431(5)
H11 H 0.6796 0.1663 0.3972
C12 C 0.459(6) 0.170(6) 0.181(7)
H12 H 0.4450 0.0675 0.1262
H13 H 0.3760 0.1930 0.1342
C13 C 0.603(5) 0.271(5) 0.217(6)
H14 H 0.6069 0.3693 0.2665
H15 H 0.6247 0.2598 0.1304
H16 H 0.6779 0.2532 0.2811
loop_
_geom_bond_atom_site_label_1
_geom_bond_atom_site_label_2
_geom_bond_site_symmetry_1
_geom_bond_site_symmetry_2
U1 F1 1_555 1_555
P1 O1 1_555 1_555
P2 O4 1_555 1_555
F1 U1A 1_555 1_555
O1 U1 1_555 1_555
O2 P1 1_555 1_555
O3 P1 1_555 1_555
H1 O3 1_555 1_555
O4 U1_2 1_555 1_555
O5 P2 1_555 1_555
O6 P2 1_555 1_555
H2 O6 1_555 1_555
O7 U1 1_555 1_555
O8 U1 1_555 1_555
C1 P1 1_555 1_555
C2 C1 1_555 1_555
H3 C2 1_555 1_555
C3 P2 1_555 1_555
C4 C3 1_555 1_555
H4 C4 1_555 1_555
C5 C4 1_555 1_555
H5 C5 1_555 1_555
C6 C1 1_555 1_555
H6 C6 1_555 1_555
N1 C7 1_555 1_555
C7 H7 1_555 1_555
C8 C7 1_555 1_555
H8 C8 1_555 1_555
C9 C8 1_555 1_555
H9 C9 1_555 1_555
C10 C9 1_555 1_555
H10 C10 1_555 1_555
C11 N1 1_555 1_555
H11 C11 1_555 1_555
C12 N1 1_555 1_555
H12 C12 1_555 1_555
H13 C12 1_555 1_555
C13 C12 1_555 1_555
H14 C13 1_555 1_555
H15 C13 1_555 1_555
H16 C13 1_555 1_555
U1A F1A 1_555 1_555
U1A_2 O2 1_555 1_555
F1A U1 1_555 1_555
O2A U1 1_555 1_555
O4_2 U1 1_555 1_555
C2 C3 1_555 1_555
C5 C6 1_555 1_555
C10 C11 1_555 1_555

#END
