
#######################################################################
#
#                 Cambridge Crystallographic Data Centre
#                                CCDC 
#
#######################################################################
#
# If this CIF has been generated from an entry in the Cambridge 
# Structural Database, then it will include bibliographic, chemical, 
# crystal, experimental, refinement or atomic coordinate data resulting 
# from the CCDC's data processing and validation procedures.
#
#######################################################################

data_CUQLIL
_symmetry_cell_setting           monoclinic
_symmetry_space_group_name_H-M   'P 21/c'
_symmetry_Int_Tables_number      14
_space_group_name_Hall           '-P 2ybc'
loop_
_symmetry_equiv_pos_site_id
_symmetry_equiv_pos_as_xyz
1 x,y,z
2 -x,1/2+y,1/2-z
3 -x,-y,-z
4 x,1/2-y,1/2+z
_cell_length_a                   14.4717(16)
_cell_length_b                   26.521(3)
_cell_length_c                   14.8405(17)
_cell_angle_alpha                90
_cell_angle_beta                 113.825(2)
_cell_angle_gamma                90
_cell_volume                     5210.46
loop_
_atom_site_label
_atom_site_type_symbol
_atom_site_fract_x
_atom_site_fract_y
_atom_site_fract_z
Er1 Er 0.701321(13) 0.347210(7) 0.567027(13)
Er2 Er 0.269874(13) 0.099334(6) 0.502683(13)
Na1 Na 0.52781(12) 0.12662(5) 0.41207(12)
Na2 Na 0.12622(14) 0.07699(7) 0.85876(13)
N1 N 0.8034(2) 0.33047(11) 0.7432(2)
N2 N 0.8776(2) 0.32121(11) 0.6103(2)
N3 N 0.5291(2) 0.32179(12) 0.4542(2)
N4 N 0.5891(2) 0.41527(12) 0.4690(2)
N5 N 0.1663(2) 0.08498(11) 0.3264(2)
N6 N 0.0943(2) 0.07297(11) 0.4603(2)
N7 N 0.3804(2) 0.16735(11) 0.6017(2)
N8 N 0.4419(2) 0.07445(12) 0.6131(2)
O1 O 0.6032(3) 0.36165(14) 0.8097(2)
O2 O 0.6163(2) 0.36349(12) 0.6654(2)
O3 O 0.7395(2) 0.33938(11) 0.4320(2)
O4 O 0.8539(2) 0.33618(13) 0.3659(2)
O5 O 0.6735(2) 0.26206(10) 0.5691(2)
O6 O 0.5797(2) 0.19335(10) 0.5123(2)
O7 O 0.7754(2) 0.42511(10) 0.6010(2)
O8 O 0.7795(2) 0.50714(11) 0.5718(3)
O9 O 0.3621(2) 0.12381(15) 0.2590(2)
O10 O 0.3553(2) 0.11723(10) 0.4043(2)
O11 O 0.2332(2) 0.08956(11) 0.6379(2)
O12 O 0.1253(3) 0.07793(14) 0.7078(2)
O13 O 0.1954(2) 0.17681(10) 0.4668(2)
O14 O 0.1899(2) 0.25888(11) 0.4936(3)
O15 O 0.2995(2) 0.01476(10) 0.4936(2)
O16 O 0.4011(2) -0.05214(11) 0.5336(2)
C1 C 0.6506(3) 0.35538(16) 0.7578(3)
C2 C 0.7572(3) 0.33522(14) 0.8045(3)
C3 C 0.8041(4) 0.32403(17) 0.9038(3)
H1 H 0.7707 0.3279 0.9453
C4 C 0.9034(4) 0.30678(17) 0.9392(3)
H2 H 0.9372 0.2986 1.0055
C5 C 0.9517(4) 0.30174(16) 0.8767(3)
H3 H 1.0181 0.2904 0.9001
C6 C 0.8994(3) 0.31395(14) 0.7777(3)
C7 C 0.9432(3) 0.31059(14) 0.7025(3)
C8 C 1.0434(3) 0.29866(16) 0.7242(3)
H4 H 1.0880 0.2915 0.7885
C9 C 1.0753(3) 0.29763(17) 0.6484(4)
H5 H 1.1420 0.2897 0.6611
C10 C 1.0076(3) 0.30845(16) 0.5527(4)
H6 H 1.0279 0.3075 0.5008
C11 C 0.9092(3) 0.32061(15) 0.5368(3)
C12 C 0.8288(3) 0.33323(15) 0.4360(3)
C13 C 0.5922(3) 0.23944(15) 0.5171(3)
C14 C 0.5043(3) 0.27311(15) 0.4543(3)
C15 C 0.4077(3) 0.25548(17) 0.4013(3)
H7 H 0.3920 0.2216 0.4035
C16 C 0.3343(3) 0.28966(18) 0.3446(3)
H8 H 0.2686 0.2787 0.3084
C17 C 0.3587(3) 0.33939(17) 0.3421(3)
H9 H 0.3102 0.3624 0.3038
C18 C 0.4580(3) 0.35500(15) 0.3983(3)
C19 C 0.4933(3) 0.40787(15) 0.4040(3)
C20 C 0.4345(3) 0.44717(16) 0.3480(3)
H10 H 0.3682 0.4416 0.3035
C21 C 0.4770(4) 0.49472(17) 0.3602(3)
H11 H 0.4391 0.5216 0.3236
C22 C 0.5751(3) 0.50246(16) 0.4263(3)
H12 H 0.6042 0.5343 0.4345
C23 C 0.6292(3) 0.46186(15) 0.4801(3)
C24 C 0.7367(3) 0.46594(16) 0.5570(3)
C25 C 0.2343(3) 0.21777(16) 0.5115(3)
C26 C 0.3392(3) 0.21374(14) 0.5895(3)
C27 C 0.3934(4) 0.25415(16) 0.6453(3)
H13 H 0.3646 0.2861 0.6371
C28 C 0.4907(4) 0.24597(17) 0.7131(3)
H14 H 0.5281 0.2725 0.7515
C29 C 0.5328(3) 0.19876(17) 0.7241(3)
H15 H 0.5988 0.1932 0.7691
C30 C 0.4757(3) 0.15967(14) 0.6673(3)
C31 C 0.5121(3) 0.10714(15) 0.6719(3)
C32 C 0.6094(3) 0.09080(18) 0.7308(3)
H16 H 0.6570 0.1135 0.7715
C33 C 0.6346(4) 0.0416(2) 0.7285(4)
H17 H 0.6997 0.0305 0.7669
C34 C 0.5629(3) 0.00833(18) 0.6687(3)
H18 H 0.5788 -0.0255 0.6669
C35 C 0.4673(3) 0.02594(15) 0.6114(3)
C36 C 0.3839(3) -0.00725(15) 0.5416(3)
C37 C 0.3167(3) 0.11259(16) 0.3105(3)
C38 C 0.2107(3) 0.09125(14) 0.2641(3)
C39 C 0.1635(4) 0.07991(17) 0.1646(3)
H19 H 0.1962 0.0849 0.1227
C40 C 0.0665(4) 0.06094(18) 0.1298(3)
H20 H 0.0334 0.0516 0.0641
C41 C 0.0195(3) 0.05597(16) 0.1931(3)
H21 H -0.0468 0.0444 0.1697
C42 C 0.0704(3) 0.06814(13) 0.2917(3)
C43 C 0.0273(3) 0.06415(13) 0.3676(3)
C44 C -0.0732(3) 0.05400(14) 0.3466(3)
H22 H -0.1188 0.0481 0.2821
C45 C -0.1047(3) 0.05280(15) 0.4229(4)
H23 H -0.1719 0.0460 0.4102
C46 C -0.0364(3) 0.06170(15) 0.5176(3)
H24 H -0.0567 0.0613 0.5696
C47 C 0.0631(3) 0.07131(14) 0.5340(3)
C48 C 0.1457(4) 0.08009(16) 0.6354(3)
O17 O 0.2119(3) 0.13652(13) 0.9681(3)
H25 H 0.2742(19) 0.131(2) 1.008(3)
H26 H 0.196(4) 0.1675(9) 0.966(4)
O18 O -0.0381(3) 0.07381(17) 0.8469(3)
H27 H -0.069(4) 0.073(2) 0.7852(16)
H28 H -0.056(5) 0.1033(11) 0.852(5)
Na1B Na 0.47219(12) -0.12662(5) 0.58793(12)
Na1C Na 0.52781(12) 0.37338(5) 0.91207(12)
Na2A Na 0.87378(14) 0.57699(7) 0.64124(13)
O1C O 0.6032(3) 0.13835(14) 0.3097(2)
O8A O 0.2205(2) 0.00714(11) 0.9282(3)
O16B O 0.5989(2) 0.05214(11) 0.4664(2)
O19 O 0.4078(3) 0.37829(14) 0.5964(3)
H29 H 0.4730(17) 0.3745(17) 0.612(4)
H30 H 0.398(4) 0.3783(18) 0.650(2)
O20 O 0.8222(4) 0.4380(2) 0.1515(4)
H31 H 0.784(5) 0.459(2) 0.113(4)
H32 H 0.802(6) 0.4085(17) 0.122(6)
O21 O 0.8063(6) 0.1730(4) 0.6637(5)
H33 H 0.824(8) 0.191(3) 0.715(5)
H34 H 0.763(7) 0.151(4) 0.661(10)
O22 O 0.0065(19) 0.1795(6) 0.6900(12)
O23? O 0.0455(15) 0.1723(7) 0.7782(18)
loop_
_geom_bond_atom_site_label_1
_geom_bond_atom_site_label_2
_geom_bond_site_symmetry_1
_geom_bond_site_symmetry_2
Er1 N1 1_555 1_555
Er2 N5 1_555 1_555
Na1 O6 1_555 1_555
Na2 O12 1_555 1_555
N1 C2 1_555 1_555
N2 Er1 1_555 1_555
N3 Er1 1_555 1_555
N4 Er1 1_555 1_555
N5 C38 1_555 1_555
N6 Er2 1_555 1_555
N7 Er2 1_555 1_555
N8 Er2 1_555 1_555
O1 C1 1_555 1_555
O2 Er1 1_555 1_555
O3 Er1 1_555 1_555
O4 C12 1_555 1_555
O5 Er1 1_555 1_555
O6 C13 1_555 1_555
O7 Er1 1_555 1_555
O8 C24 1_555 1_555
O9 Na1 1_555 1_555
O10 Er2 1_555 1_555
O11 Er2 1_555 1_555
O12 C48 1_555 1_555
O13 Er2 1_555 1_555
O14 C25 1_555 1_555
O15 Er2 1_555 1_555
O16 C36 1_555 1_555
C1 O2 1_555 1_555
C2 C1 1_555 1_555
C3 C2 1_555 1_555
H1 C3 1_555 1_555
C4 C3 1_555 1_555
H2 C4 1_555 1_555
C5 C4 1_555 1_555
H3 C5 1_555 1_555
C6 N1 1_555 1_555
C7 N2 1_555 1_555
C8 C7 1_555 1_555
H4 C8 1_555 1_555
C9 C8 1_555 1_555
H5 C9 1_555 1_555
C10 C9 1_555 1_555
H6 C10 1_555 1_555
C11 N2 1_555 1_555
C12 O3 1_555 1_555
C13 O5 1_555 1_555
C14 N3 1_555 1_555
C15 C14 1_555 1_555
H7 C15 1_555 1_555
C16 C15 1_555 1_555
H8 C16 1_555 1_555
C17 C16 1_555 1_555
H9 C17 1_555 1_555
C18 N3 1_555 1_555
C19 N4 1_555 1_555
C20 C19 1_555 1_555
H10 C20 1_555 1_555
C21 C20 1_555 1_555
H11 C21 1_555 1_555
C22 C21 1_555 1_555
H12 C22 1_555 1_555
C23 N4 1_555 1_555
C24 O7 1_555 1_555
C25 O13 1_555 1_555
C26 N7 1_555 1_555
C27 C26 1_555 1_555
H13 C27 1_555 1_555
C28 C27 1_555 1_555
H14 C28 1_555 1_555
C29 C28 1_555 1_555
H15 C29 1_555 1_555
C30 N7 1_555 1_555
C31 N8 1_555 1_555
C32 C31 1_555 1_555
H16 C32 1_555 1_555
C33 C32 1_555 1_555
H17 C33 1_555 1_555
C34 C33 1_555 1_555
H18 C34 1_555 1_555
C35 N8 1_555 1_555
C36 O15 1_555 1_555
C37 O9 1_555 1_555
C38 C37 1_555 1_555
C39 C38 1_555 1_555
H19 C39 1_555 1_555
C40 C39 1_555 1_555
H20 C40 1_555 1_555
C41 C40 1_555 1_555
H21 C41 1_555 1_555
C42 N5 1_555 1_555
C43 N6 1_555 1_555
C44 C43 1_555 1_555
H22 C44 1_555 1_555
C45 C44 1_555 1_555
H23 C45 1_555 1_555
C46 C45 1_555 1_555
H24 C46 1_555 1_555
C47 N6 1_555 1_555
C48 O11 1_555 1_555
O17 Na2 1_555 1_555
H25 O17 1_555 1_555
H26 O17 1_555 1_555
O18 Na2 1_555 1_555
H27 O18 1_555 1_555
H28 O18 1_555 1_555
O19 H29 1_555 1_555
H30 O19 1_555 1_555
O20 H31 1_555 1_555
H32 O20 1_555 1_555
O21 H33 1_555 1_555
H34 O21 1_555 1_555
Na1B O16 1_555 1_555
Na1C O1 1_555 1_555
Na2A O8 1_555 1_555
O1C Na1 1_555 1_555
O8A Na2 1_555 1_555
O16B Na1 1_555 1_555
Na1 O10 1_555 1_555
O10 C37 1_555 1_555
C5 C6 1_555 1_555
C6 C7 1_555 1_555
C10 C11 1_555 1_555
C11 C12 1_555 1_555
C13 C14 1_555 1_555
C17 C18 1_555 1_555
C18 C19 1_555 1_555
C22 C23 1_555 1_555
C23 C24 1_555 1_555
C25 C26 1_555 1_555
C29 C30 1_555 1_555
C30 C31 1_555 1_555
C34 C35 1_555 1_555
C35 C36 1_555 1_555
C41 C42 1_555 1_555
C42 C43 1_555 1_555
C46 C47 1_555 1_555
C47 C48 1_555 1_555

#END
