
#######################################################################
#
#                 Cambridge Crystallographic Data Centre
#                                CCDC 
#
#######################################################################
#
# If this CIF has been generated from an entry in the Cambridge 
# Structural Database, then it will include bibliographic, chemical, 
# crystal, experimental, refinement or atomic coordinate data resulting 
# from the CCDC's data processing and validation procedures.
#
#######################################################################

data_CUQLAD
_symmetry_cell_setting           monoclinic
_symmetry_space_group_name_H-M   'P 21/c'
_symmetry_Int_Tables_number      14
_space_group_name_Hall           '-P 2ybc'
loop_
_symmetry_equiv_pos_site_id
_symmetry_equiv_pos_as_xyz
1 x,y,z
2 -x,1/2+y,1/2-z
3 -x,-y,-z
4 x,1/2-y,1/2+z
_cell_length_a                   14.455(3)
_cell_length_b                   26.484(5)
_cell_length_c                   14.800(3)
_cell_angle_alpha                90
_cell_angle_beta                 113.741(3)
_cell_angle_gamma                90
_cell_volume                     5186.36
loop_
_atom_site_label
_atom_site_type_symbol
_atom_site_fract_x
_atom_site_fract_y
_atom_site_fract_z
Dy1 Dy 0.731040(19) 0.599006(10) 0.996727(19)
N1 N 0.6190(3) 0.66749(18) 0.8970(3)
N2 N 0.5567(3) 0.57421(18) 0.8852(3)
N3 N 0.8364(3) 0.58465(17) 1.1743(3)
N4 N 0.9085(3) 0.57261(17) 1.0399(3)
O1 O 0.8035(3) 0.67765(16) 1.0307(3)
O2 O 0.6992(3) 0.51390(16) 1.0047(3)
O3 O 0.6474(3) 0.61650(17) 1.0983(3)
O4 O 0.7703(3) 0.58870(17) 0.8616(3)
C1 C 0.6592(5) 0.7138(2) 0.9080(5)
C2 C 0.5241(4) 0.6600(2) 0.8325(4)
C3 C 0.4868(4) 0.6072(2) 0.8270(4)
C4 C 0.5313(5) 0.5260(2) 0.8873(4)
C5 C 0.7922(4) 0.5907(2) 1.2374(4)
C6 C 0.9322(4) 0.5681(2) 1.2088(4)
C7 C 0.9748(4) 0.5638(2) 1.1336(4)
C8 C 0.9397(4) 0.5713(2) 0.9666(4)
C9 C 0.7662(5) 0.7180(2) 0.9861(5)
C10 C 0.6139(5) 0.4926(2) 0.9571(5)
C11 C 0.6853(5) 0.6120(2) 1.1903(5)
Na1 Na 0.47563(17) 0.62656(9) 1.08896(18)
C12 C 0.8571(5) 0.5798(2) 0.8639(5)
C13 C 0.6059(6) 0.7546(2) 0.8531(5)
C14 C 0.4664(5) 0.6988(3) 0.7742(5)
C15 C 0.3899(5) 0.5918(3) 0.7680(5)
C16 C 0.4355(5) 0.5087(3) 0.8306(5)
C17 C 0.8394(5) 0.5788(3) 1.3365(5)
C18 C 0.9835(5) 0.5548(2) 1.3073(5)
C19 C 1.0760(5) 0.5535(2) 1.1549(5)
C20 C 1.0397(5) 0.5612(2) 0.9828(5)
O5 O 0.8092(4) 0.75967(17) 1.0022(4)
O6 O 0.5954(4) 0.44790(17) 0.9655(4)
O7 O 0.6411(4) 0.6228(2) 1.2438(4)
O8 O 0.8789(4) 0.5773(2) 0.7926(4)
H1 H 0.6349 0.7865 0.8617
C21 C 0.5073(6) 0.7464(3) 0.7844(5)
H2 H 0.4008 0.6928 0.7287
H3 H 0.3427 0.6147 0.7274
C22 C 0.3647(5) 0.5421(3) 0.7704(5)
H4 H 0.4189 0.4750 0.8331
H5 H 0.8063 0.5831 1.3785
C23 C 0.9367(5) 0.5606(3) 1.3713(5)
H6 H 1.0488 0.5421 1.3298
H7 H 1.1215 0.5475 1.2195
C24 C 1.1075(5) 0.5524(3) 1.0793(5)
H8 H 1.0604 0.5604 0.9309
Na2 Na 0.8736(2) 0.57677(11) 0.64002(19)
H9 H 0.4695 0.7728 0.7459
H10 H 0.2998 0.5309 0.7313
H11 H 0.9707 0.5523 1.4376
H12 H 1.1749 0.5456 1.0927
O9 O 0.6041(4) 0.3609(2) 0.8121(4)
O10 O 0.5731(4) 0.30638(17) 1.0107(4)
O11 O 0.7770(4) 0.50821(18) 0.5696(4)
O12 O 0.7870(4) 0.6370(2) 0.5300(4)
O13 O 1.0399(4) 0.5752(2) 0.6557(5)
C25 C 0.6506(5) 0.3554(3) 0.7603(5)
C26 C 0.7351(5) 0.4669(3) 0.5551(5)
O14 O 0.6163(3) 0.36359(18) 0.6677(3)
C27 C 0.7576(5) 0.3352(2) 0.8070(5)
O15 O 0.7735(3) 0.42622(17) 0.5995(3)
C28 C 0.6268(5) 0.4622(2) 0.4787(5)
Dy2 Dy 0.700254(19) 0.347234(11) 0.56702(2)
N5 N 0.8025(4) 0.33039(17) 0.7446(3)
C29 C 0.8051(6) 0.3237(3) 0.9062(5)
N6 N 0.5871(3) 0.41573(18) 0.4677(3)
C30 C 0.5727(5) 0.5030(3) 0.4254(5)
N7 N 0.5256(3) 0.32201(18) 0.4524(3)
N8 N 0.8782(3) 0.32117(17) 0.6114(4)
O16 O 0.6692(3) 0.26153(16) 0.5682(3)
O17 O 0.7418(3) 0.33865(18) 0.4328(3)
C31 C 0.8991(4) 0.3142(2) 0.7790(4)
H13 H 0.7716 0.3270 0.9480
C32 C 0.9045(6) 0.3071(3) 0.9416(5)
C33 C 0.4908(4) 0.4088(2) 0.4031(4)
C34 C 0.4744(5) 0.4951(3) 0.3591(5)
H14 H 0.6017 0.5349 0.4340
C35 C 0.5006(5) 0.2739(2) 0.4532(4)
C36 C 0.4556(5) 0.3556(2) 0.3982(4)
C37 C 0.9437(4) 0.3101(2) 0.7040(4)
C38 C 0.9099(5) 0.3199(2) 0.5391(5)
C39 C 0.5864(5) 0.2397(2) 0.5152(5)
C40 C 0.8311(5) 0.3325(2) 0.4376(5)
C41 C 0.9511(6) 0.3018(3) 0.8782(5)
H15 H 0.9392 0.2997 1.0082
C42 C 0.4328(5) 0.4475(3) 0.3470(5)
H16 H 0.4361 0.5220 0.3226
C43 C 0.4031(5) 0.2562(3) 0.3993(5)
C44 C 0.3573(5) 0.3399(3) 0.3419(5)
C45 C 1.0430(5) 0.2984(3) 0.7258(5)
C46 C 1.0089(5) 0.3081(3) 0.5555(5)
O18 O 0.8564(4) 0.3350(2) 0.3680(4)
H17 H 1.0172 0.2899 0.9011
H18 H 0.3670 0.4417 0.3017
H19 H 0.3871 0.2223 0.4007
C47 C 0.3317(5) 0.2903(3) 0.3441(5)
H20 H 0.3092 0.3629 0.3030
H21 H 1.0872 0.2914 0.7903
C48 C 1.0759(5) 0.2971(3) 0.6505(5)
H22 H 1.0296 0.3076 0.5036
H23 H 0.2656 0.2798 0.3081
H24 H 1.1426 0.2890 0.6636
Na1B Na 0.52437(17) 0.37344(9) 0.91104(18)
O3B O 0.3526(3) 0.38350(17) 0.9017(3)
O7B O 0.3589(4) 0.3772(2) 0.7562(4)
O10C O 0.5731(4) 0.19362(17) 0.5107(4)
Na1A Na 0.52437(17) 0.12656(9) 0.41104(18)
O19 O 0.1802(4) 0.5638(3) 0.8504(5)
O20 O 0.5911(4) 0.62214(19) 0.4023(4)
O21 O 0.1985(8) 0.6726(4) 0.8352(6)
O22 O 0.974(2) 0.6760(6) 0.772(3)
loop_
_geom_bond_atom_site_label_1
_geom_bond_atom_site_label_2
_geom_bond_site_symmetry_1
_geom_bond_site_symmetry_2
Dy1 N1 1_555 1_555
N1 C1 1_555 1_555
N2 Dy1 1_555 1_555
N3 Dy1 1_555 1_555
N4 Dy1 1_555 1_555
O1 Dy1 1_555 1_555
O2 Dy1 1_555 1_555
O3 Dy1 1_555 1_555
O4 Dy1 1_555 1_555
C1 C9 1_555 1_555
C2 N1 1_555 1_555
C3 N2 1_555 1_555
C4 N2 1_555 1_555
C5 N3 1_555 1_555
C6 N3 1_555 1_555
C7 N4 1_555 1_555
C8 N4 1_555 1_555
C9 O1 1_555 1_555
C10 O2 1_555 1_555
C11 O3 1_555 1_555
Na1 O3 1_555 1_555
C12 O4 1_555 1_555
C13 C1 1_555 1_555
C14 C2 1_555 1_555
C15 C3 1_555 1_555
C16 C4 1_555 1_555
C17 C5 1_555 1_555
C18 C6 1_555 1_555
C19 C7 1_555 1_555
C20 C8 1_555 1_555
O5 C9 1_555 1_555
O6 C10 1_555 1_555
O7 C11 1_555 1_555
O8 C12 1_555 1_555
H1 C13 1_555 1_555
C21 C13 1_555 1_555
H2 C14 1_555 1_555
H3 C15 1_555 1_555
C22 C15 1_555 1_555
H4 C16 1_555 1_555
H5 C17 1_555 1_555
C23 C17 1_555 1_555
H6 C18 1_555 1_555
H7 C19 1_555 1_555
C24 C19 1_555 1_555
H8 C20 1_555 1_555
Na2 O8 1_555 1_555
H9 C21 1_555 1_555
H10 C22 1_555 1_555
H11 C23 1_555 1_555
H12 C24 1_555 1_555
O9 C25 1_555 1_555
O10 Na1B 1_555 1_555
O11 Na2 1_555 1_555
O12 Na2 1_555 1_555
O13 Na2 1_555 1_555
C25 O14 1_555 1_555
C26 O11 1_555 1_555
O14 Dy2 1_555 1_555
C27 C25 1_555 1_555
O15 C26 1_555 1_555
C28 C26 1_555 1_555
Dy2 O15 1_555 1_555
N5 C27 1_555 1_555
C29 C27 1_555 1_555
N6 C28 1_555 1_555
C30 C28 1_555 1_555
N7 Dy2 1_555 1_555
N8 Dy2 1_555 1_555
O16 Dy2 1_555 1_555
O17 Dy2 1_555 1_555
C31 N5 1_555 1_555
H13 C29 1_555 1_555
C32 C29 1_555 1_555
C33 N6 1_555 1_555
C34 C30 1_555 1_555
H14 C30 1_555 1_555
C35 N7 1_555 1_555
C36 N7 1_555 1_555
C37 N8 1_555 1_555
C38 N8 1_555 1_555
C39 O16 1_555 1_555
C40 O17 1_555 1_555
C41 C31 1_555 1_555
H15 C32 1_555 1_555
C42 C33 1_555 1_555
H16 C34 1_555 1_555
C43 C35 1_555 1_555
C44 C36 1_555 1_555
C45 C37 1_555 1_555
C46 C38 1_555 1_555
O18 C40 1_555 1_555
H17 C41 1_555 1_555
H18 C42 1_555 1_555
H19 C43 1_555 1_555
C47 C43 1_555 1_555
H20 C44 1_555 1_555
H21 C45 1_555 1_555
C48 C45 1_555 1_555
H22 C46 1_555 1_555
H23 C47 1_555 1_555
H24 C48 1_555 1_555
Na1B O6 1_555 1_555
O3B Na1B 1_555 1_555
O7B Na1B 1_555 1_555
O10C C39 1_555 1_555
Na1A O10C 1_555 1_555
C2 C3 1_555 1_555
C4 C10 1_555 1_555
C5 C11 1_555 1_555
C6 C7 1_555 1_555
C8 C12 1_555 1_555
Na1 O7 1_555 1_555
C14 C21 1_555 1_555
C16 C22 1_555 1_555
C18 C23 1_555 1_555
C20 C24 1_555 1_555
O9 Na1B 1_555 1_555
Dy2 N5 1_555 1_555
Dy2 N6 1_555 1_555
C31 C37 1_555 1_555
C32 C41 1_555 1_555
C33 C36 1_555 1_555
C34 C42 1_555 1_555
C35 C39 1_555 1_555
C38 C40 1_555 1_555
C44 C47 1_555 1_555
C46 C48 1_555 1_555

#END
