
#######################################################################
#
#                 Cambridge Crystallographic Data Centre
#                                CCDC 
#
#######################################################################
#
# If this CIF has been generated from an entry in the Cambridge 
# Structural Database, then it will include bibliographic, chemical, 
# crystal, experimental, refinement or atomic coordinate data resulting 
# from the CCDC's data processing and validation procedures.
#
#######################################################################

data_CUQLOR
_symmetry_cell_setting           monoclinic
_symmetry_space_group_name_H-M   'P 21/c'
_symmetry_Int_Tables_number      14
_space_group_name_Hall           '-P 2ybc'
loop_
_symmetry_equiv_pos_site_id
_symmetry_equiv_pos_as_xyz
1 x,y,z
2 -x,1/2+y,1/2-z
3 -x,-y,-z
4 x,1/2-y,1/2+z
_cell_length_a                   14.4022(16)
_cell_length_b                   26.411(3)
_cell_length_c                   14.7366(16)
_cell_angle_alpha                90
_cell_angle_beta                 113.832(2)
_cell_angle_gamma                90
_cell_volume                     5127.5
loop_
_atom_site_label
_atom_site_type_symbol
_atom_site_fract_x
_atom_site_fract_y
_atom_site_fract_z
Yb1 Yb 0.27085(2) 0.599642(10) 0.501481(19)
Yb2 Yb 0.70228(2) 0.652879(10) 0.065999(19)
Na1 Na 0.1261(2) 0.57663(10) 0.85757(19)
Na2 Na 0.52986(18) 0.62643(8) 0.41218(18)
N1 N 0.1683(4) 0.58549(17) 0.3265(3)
N2 N 0.0967(4) 0.57353(17) 0.4605(4)
N3 N 0.3792(4) 0.66735(18) 0.5993(4)
N4 N 0.4422(4) 0.57430(18) 0.6116(3)
N5 N 0.5916(4) 0.58526(18) -0.0311(3)
N6 N 0.5317(4) 0.67845(18) -0.0464(3)
N7 N 0.8768(4) 0.67851(17) 0.1076(4)
N8 N 0.8027(4) 0.66932(18) 0.2409(4)
O1 O 0.3568(3) 0.61727(15) 0.4052(3)
O2 O 0.3649(4) 0.6246(2) 0.2599(4)
O3 O 0.2368(3) 0.59076(17) 0.6370(3)
O4 O 0.1312(4) 0.5783(2) 0.7092(4)
O5 O 0.1947(3) 0.67620(16) 0.4648(3)
O6 O 0.1889(4) 0.75841(17) 0.4912(4)
O7 O 0.2980(3) 0.51554(15) 0.4913(3)
O8 O 0.3980(4) 0.44803(16) 0.5330(3)
O9 O 0.7772(3) 0.57617(16) 0.1014(3)
O10 O 0.7824(4) 0.49394(17) 0.0735(4)
O11 O 0.6772(3) 0.73766(15) 0.0687(3)
O12 O 0.5845(4) 0.80719(16) 0.0113(3)
O13 O 0.7387(3) 0.66021(16) -0.0689(3)
O14 O 0.8522(4) 0.66335(19) -0.1361(3)
O15 O 0.6159(3) 0.63649(17) 0.1617(3)
O16 O 0.6021(4) 0.6370(2) 0.3066(4)
C1 C 0.3201(5) 0.6128(2) 0.3118(5)
C2 C 0.2136(5) 0.5921(2) 0.2642(4)
C3 C 0.1653(5) 0.5806(3) 0.1643(5)
H1 H 0.1975 0.5858 0.1217
C4 C 0.0693(6) 0.5616(3) 0.1300(5)
H2 H 0.0368 0.5520 0.0639
C5 C 0.0204(5) 0.5566(2) 0.1918(5)
H3 H -0.0465 0.5455 0.1677
C6 C 0.0728(5) 0.5686(2) 0.2915(4)
C7 C 0.0293(5) 0.5644(2) 0.3665(4)
C8 C -0.0708(5) 0.5545(2) 0.3466(5)
H4 H -0.1173 0.5490 0.2818
C9 C -0.1018(5) 0.5530(2) 0.4241(5)
H5 H -0.1690 0.5457 0.4118
C10 C -0.0330(5) 0.5622(2) 0.5191(5)
H6 H -0.0531 0.5620 0.5716
C11 C 0.0666(5) 0.5718(2) 0.5351(5)
C12 C 0.1505(6) 0.5811(2) 0.6364(5)
C13 C 0.2328(5) 0.7172(2) 0.5074(5)
C14 C 0.3386(5) 0.7137(2) 0.5872(4)
C15 C 0.3928(6) 0.7545(2) 0.6430(5)
H7 H 0.3638 0.7865 0.6353
C16 C 0.4904(6) 0.7460(3) 0.7097(5)
H8 H 0.5283 0.7728 0.7474
C17 C 0.5335(5) 0.6992(3) 0.7223(5)
H9 H 0.5996 0.6938 0.7681
C18 C 0.4756(5) 0.6598(2) 0.6646(4)
C19 C 0.5126(5) 0.6068(2) 0.6704(4)
C20 C 0.6095(5) 0.5912(3) 0.7289(5)
H10 H 0.6578 0.6140 0.7692
C21 C 0.6332(6) 0.5412(3) 0.7265(5)
H11 H 0.6983 0.5297 0.7654
C22 C 0.5615(5) 0.5078(3) 0.6669(5)
H12 H 0.5774 0.4738 0.6652
C23 C 0.4663(5) 0.5255(2) 0.6100(5)
C24 C 0.3812(5) 0.4930(2) 0.5397(5)
C25 C 0.7393(5) 0.5349(3) 0.0579(5)
C26 C 0.6302(5) 0.5387(2) -0.0198(5)
C27 C 0.5771(5) 0.4976(2) -0.0722(5)
H13 H 0.6066 0.4657 -0.0630
C28 C 0.4784(5) 0.5054(3) -0.1391(5)
H14 H 0.4403 0.4784 -0.1757
C29 C 0.4361(5) 0.5528(2) -0.1519(5)
H15 H 0.3697 0.5583 -0.1970
C30 C 0.4955(5) 0.5927(2) -0.0956(4)
C31 C 0.4602(5) 0.6458(2) -0.1023(4)
C32 C 0.3615(5) 0.6615(3) -0.1581(5)
H16 H 0.3125 0.6385 -0.1968
C33 C 0.3379(5) 0.7111(3) -0.1552(5)
H17 H 0.2717 0.7222 -0.1909
C34 C 0.4109(5) 0.7449(3) -0.0999(5)
H18 H 0.3954 0.7790 -0.0986
C35 C 0.5080(5) 0.7272(2) -0.0462(4)
C36 C 0.5958(5) 0.7606(2) 0.0168(5)
C37 C 0.8278(5) 0.6666(2) -0.0660(5)
C38 C 0.9083(5) 0.6795(2) 0.0352(5)
C39 C 1.0064(5) 0.6917(2) 0.0503(5)
H19 H 1.0265 0.6926 -0.0022
C40 C 1.0734(5) 0.7026(3) 0.1452(6)
H20 H 1.1404 0.7104 0.1577
C41 C 1.0426(5) 0.7020(2) 0.2214(5)
H21 H 1.0878 0.7097 0.2857
C42 C 0.9426(5) 0.6895(2) 0.2011(5)
C43 C 0.8994(5) 0.6861(2) 0.2761(5)
C44 C 0.9502(5) 0.6979(2) 0.3755(5)
H22 H 1.0168 0.7095 0.3999
C45 C 0.9016(6) 0.6923(3) 0.4377(5)
H23 H 0.9354 0.7003 0.5046
C46 C 0.8034(5) 0.6751(3) 0.4025(5)
H24 H 0.7694 0.6714 0.4440
C47 C 0.7570(5) 0.6636(2) 0.3022(5)
C48 C 0.6497(5) 0.6439(2) 0.2548(5)
O17 O 0.2110(4) 0.6372(2) 0.9663(4)
H25 H 0.274(2) 0.634(3) 1.003(5)
H26 H 0.193(6) 0.6670(13) 0.972(6)
O18 O -0.0378(5) 0.5741(3) 0.8456(5)
H27 H -0.089(5) 0.570(3) 0.790(4)
H28 H -0.048(7) 0.600(2) 0.874(6)
Na1B Na 0.8739(2) 0.42337(10) 0.14243(19)
Na2B Na 0.47014(18) 0.37357(8) 0.58782(18)
Na2C Na 0.52986(18) 0.87357(8) -0.08782(18)
O8B O 0.6020(4) 0.55197(16) 0.4670(3)
O10B O 0.2176(4) 0.50606(17) 0.9265(4)
O12C O 0.5845(4) 0.69281(16) 0.5113(3)
O19 O 0.4079(4) 0.6218(2) 0.0948(4)
H29 H 0.395(6) 0.617(3) 0.146(4)
H30 H 0.469(3) 0.632(3) 0.106(5)
O20 O 0.8232(4) 0.5618(3) 0.6496(5)
O21 O 0.8103(7) 0.8281(4) 0.1632(5)
O22 O 0.0320(16) 0.6747(5) 0.733(2)
loop_
_geom_bond_atom_site_label_1
_geom_bond_atom_site_label_2
_geom_bond_site_symmetry_1
_geom_bond_site_symmetry_2
Yb1 N1 1_555 1_555
Yb2 N5 1_555 1_555
Na1 O4 1_555 1_555
Na2 O1 1_555 1_555
N1 C2 1_555 1_555
N2 Yb1 1_555 1_555
N3 Yb1 1_555 1_555
N4 Yb1 1_555 1_555
N5 C26 1_555 1_555
N6 Yb2 1_555 1_555
N7 Yb2 1_555 1_555
N8 Yb2 1_555 1_555
O1 Yb1 1_555 1_555
O2 Na2 1_555 1_555
O3 Yb1 1_555 1_555
O4 C12 1_555 1_555
O5 Yb1 1_555 1_555
O6 C13 1_555 1_555
O7 Yb1 1_555 1_555
O8 C24 1_555 1_555
O9 Yb2 1_555 1_555
O10 C25 1_555 1_555
O11 Yb2 1_555 1_555
O12 C36 1_555 1_555
O13 Yb2 1_555 1_555
O14 C37 1_555 1_555
O15 Yb2 1_555 1_555
O16 Na2 1_555 1_555
C1 O1 1_555 1_555
C2 C1 1_555 1_555
C3 C2 1_555 1_555
H1 C3 1_555 1_555
C4 C3 1_555 1_555
H2 C4 1_555 1_555
C5 C4 1_555 1_555
H3 C5 1_555 1_555
C6 N1 1_555 1_555
C7 N2 1_555 1_555
C8 C7 1_555 1_555
H4 C8 1_555 1_555
C9 C8 1_555 1_555
H5 C9 1_555 1_555
C10 C9 1_555 1_555
H6 C10 1_555 1_555
C11 N2 1_555 1_555
C12 O3 1_555 1_555
C13 O5 1_555 1_555
C14 N3 1_555 1_555
C15 C14 1_555 1_555
H7 C15 1_555 1_555
C16 C15 1_555 1_555
H8 C16 1_555 1_555
C17 C16 1_555 1_555
H9 C17 1_555 1_555
C18 N3 1_555 1_555
C19 N4 1_555 1_555
C20 C19 1_555 1_555
H10 C20 1_555 1_555
C21 C20 1_555 1_555
H11 C21 1_555 1_555
C22 C21 1_555 1_555
H12 C22 1_555 1_555
C23 N4 1_555 1_555
C24 O7 1_555 1_555
C25 O9 1_555 1_555
C26 C25 1_555 1_555
C27 C26 1_555 1_555
H13 C27 1_555 1_555
C28 C27 1_555 1_555
H14 C28 1_555 1_555
C29 C28 1_555 1_555
H15 C29 1_555 1_555
C30 N5 1_555 1_555
C31 N6 1_555 1_555
C32 C31 1_555 1_555
H16 C32 1_555 1_555
C33 C32 1_555 1_555
H17 C33 1_555 1_555
C34 C33 1_555 1_555
H18 C34 1_555 1_555
C35 N6 1_555 1_555
C36 O11 1_555 1_555
C37 O13 1_555 1_555
C38 N7 1_555 1_555
C39 C38 1_555 1_555
H19 C39 1_555 1_555
C40 C39 1_555 1_555
H20 C40 1_555 1_555
C41 C40 1_555 1_555
H21 C41 1_555 1_555
C42 N7 1_555 1_555
C43 N8 1_555 1_555
C44 C43 1_555 1_555
H22 C44 1_555 1_555
C45 C44 1_555 1_555
H23 C45 1_555 1_555
C46 C45 1_555 1_555
H24 C46 1_555 1_555
C47 N8 1_555 1_555
C48 O15 1_555 1_555
O17 Na1 1_555 1_555
H25 O17 1_555 1_555
H26 O17 1_555 1_555
O18 Na1 1_555 1_555
H27 O18 1_555 1_555
H28 O18 1_555 1_555
O19 H29 1_555 1_555
H30 O19 1_555 1_555
Na1B O10 1_555 1_555
Na2B O8 1_555 1_555
Na2C O12 1_555 1_555
O8B Na2 1_555 1_555
O10B Na1 1_555 1_555
O12C Na2 1_555 1_555
O2 C1 1_555 1_555
O16 C48 1_555 1_555
C5 C6 1_555 1_555
C6 C7 1_555 1_555
C10 C11 1_555 1_555
C11 C12 1_555 1_555
C13 C14 1_555 1_555
C17 C18 1_555 1_555
C18 C19 1_555 1_555
C22 C23 1_555 1_555
C23 C24 1_555 1_555
C29 C30 1_555 1_555
C30 C31 1_555 1_555
C34 C35 1_555 1_555
C35 C36 1_555 1_555
C37 C38 1_555 1_555
C41 C42 1_555 1_555
C42 C43 1_555 1_555
C46 C47 1_555 1_555
C47 C48 1_555 1_555

#END
