
#######################################################################
#
#                 Cambridge Crystallographic Data Centre
#                                CCDC 
#
#######################################################################
#
# If this CIF has been generated from an entry in the Cambridge 
# Structural Database, then it will include bibliographic, chemical, 
# crystal, experimental, refinement or atomic coordinate data resulting 
# from the CCDC's data processing and validation procedures.
#
#######################################################################

data_CUQNUZ
_symmetry_cell_setting           triclinic
_symmetry_space_group_name_H-M   'P -1'
_symmetry_Int_Tables_number      2
_space_group_name_Hall           '-P 1'
loop_
_symmetry_equiv_pos_site_id
_symmetry_equiv_pos_as_xyz
1 x,y,z
2 -x,-y,-z
_cell_length_a                   9.3717(19)
_cell_length_b                   11.209(2)
_cell_length_c                   12.227(2)
_cell_angle_alpha                109.67(3)
_cell_angle_beta                 96.74(3)
_cell_angle_gamma                96.16(3)
_cell_volume                     1186.21
loop_
_atom_site_label
_atom_site_type_symbol
_atom_site_fract_x
_atom_site_fract_y
_atom_site_fract_z
C1 C 0.1579(3) 0.8439(3) 0.5512(3)
C2 C 0.2730(3) 0.7710(3) 0.5811(3)
C3 C 0.3954(3) 0.7630(3) 0.5263(3)
H1 H 0.4015 0.7979 0.4676
C4 C 0.5084(3) 0.7043(3) 0.5573(3)
H2 H 0.5888 0.6987 0.5189
C5 C 0.5007(3) 0.6540(3) 0.6459(3)
C6 C 0.3765(3) 0.6578(3) 0.6994(3)
H3 H 0.3693 0.6211 0.7568
C7 C 0.2648(3) 0.7158(3) 0.6671(3)
H4 H 0.1826 0.7182 0.7033
C8 C 0.7420(3) 0.5984(4) 0.6412(3)
H5 H 0.7685 0.6775 0.6272
H6 H 0.7302 0.5273 0.5670
C9 C 0.8588(3) 0.5833(3) 0.7290(3)
C10 C 0.9416(4) 0.4874(4) 0.6991(3)
H7 H 0.9235 0.4268 0.6233
C11 C 1.0528(4) 0.4799(4) 0.7815(4)
H8 H 1.1080 0.4141 0.7597
C12 C 1.0825(3) 0.5674(3) 0.8938(3)
C13 C 0.9996(4) 0.6627(4) 0.9233(3)
H9 H 1.0182 0.7235 0.9990
C14 C 0.8880(4) 0.6702(3) 0.8418(3)
H10 H 0.8320 0.7354 0.8642
C15 C 1.8087(3) 0.8310(3) 1.3376(3)
C16 C 1.6898(3) 0.7590(3) 1.2361(2)
C17 C 1.5655(3) 0.6903(3) 1.2518(3)
H11 H 1.5619 0.6811 1.3242
C18 C 1.4477(3) 0.6356(3) 1.1627(3)
H12 H 1.3661 0.5896 1.1748
C19 C 1.4524(3) 0.6501(3) 1.0545(3)
C20 C 1.5803(3) 0.7088(3) 1.0335(3)
H13 H 1.5871 0.7114 0.9591
C21 C 1.6959(3) 0.7628(3) 1.1239(3)
H14 H 1.7804 0.8028 1.1099
C22 C 1.2012(3) 0.5610(4) 0.9850(3)
H15 H 1.1852 0.6109 1.0632
H16 H 1.2013 0.4729 0.9802
C23 C -0.1370(3) 0.9799(4) 0.8174(3)
H17 H -0.0418 0.9633 0.8225
C24 C -0.2057(3) 0.9957(4) 0.9142(3)
H18 H -0.1561 0.9908 0.9826
C25 C -0.3466(3) 1.0187(3) 0.9097(3)
C26 C -0.4122(3) 1.0266(4) 0.8055(3)
H19 H -0.5078 1.0421 0.7980
C27 C -0.3369(3) 1.0115(3) 0.7129(3)
H20 H -0.3831 1.0187 0.6443
C28 C -0.4218(3) 1.0363(3) 1.0154(3)
H21 H -0.4237 1.1270 1.0543
H22 H -0.3657 1.0070 1.0705
N1 N -0.2011(2) 0.9872(2) 0.7170(2)
O1 O 0.0485(2) 0.8485(2) 0.60269(19)
O2 O 0.6089(2) 0.6010(2) 0.6889(2)
O3 O 0.1782(2) 0.8961(2) 0.47684(19)
O4 O 1.7886(2) 0.8356(2) 1.43908(18)
O5 O 1.9200(2) 0.8847(2) 1.31399(18)
O6 O 1.3380(2) 0.6118(2) 0.96342(18)
Zn1 Zn -0.08697(3) 0.97304(3) 0.58241(3)
C23A C -0.8630(3) 1.0201(4) 1.1826(3)
H17A H -0.9582 1.0367 1.1775
C24A C -0.7943(3) 1.0043(4) 1.0858(3)
H18A H -0.8439 1.0092 1.0174
C25A C -0.6534(3) 0.9813(3) 1.0903(3)
C26A C -0.5878(3) 0.9734(4) 1.1945(3)
H19A H -0.4922 0.9579 1.2020
C27A C -0.6631(3) 0.9885(3) 1.2871(3)
H20A H -0.6169 0.9813 1.3557
C28A C -0.5782(3) 0.9637(3) 0.9846(3)
H21A H -0.5763 0.8730 0.9457
H22A H -0.6343 0.9930 0.9295
N1A N -0.7989(2) 1.0128(2) 1.2830(2)
C1A C -1.1579(3) 1.1561(3) 1.4488(3)
C2A C -1.2730(3) 1.2290(3) 1.4189(3)
C3A C -1.3954(3) 1.2370(3) 1.4737(3)
H1A H -1.4015 1.2021 1.5324
C4A C -1.5084(3) 1.2957(3) 1.4427(3)
H2A H -1.5888 1.3013 1.4811
C5A C -1.5007(3) 1.3460(3) 1.3541(3)
C6A C -1.3765(3) 1.3422(3) 1.3006(3)
H3A H -1.3693 1.3789 1.2432
C7A C -1.2648(3) 1.2842(3) 1.3329(3)
H4A H -1.1826 1.2818 1.2967
C8A C -1.7420(3) 1.4016(4) 1.3588(3)
H5A H -1.7685 1.3225 1.3728
H6A H -1.7302 1.4727 1.4330
C9A C -1.8588(3) 1.4167(3) 1.2710(3)
C10A C -1.9416(4) 1.5126(4) 1.3009(3)
H7A H -1.9235 1.5732 1.3767
C11A C -2.0528(4) 1.5201(4) 1.2185(4)
H8A H -2.1080 1.5859 1.2403
C12A C -2.0825(3) 1.4326(3) 1.1062(3)
C13A C -1.9996(4) 1.3373(4) 1.0767(3)
H9A H -2.0182 1.2765 1.0010
C14A C -1.8880(4) 1.3298(3) 1.1582(3)
H10A H -1.8320 1.2646 1.1358
C15A C -2.8087(3) 1.1690(3) 0.6624(3)
C16A C -2.6898(3) 1.2410(3) 0.7639(2)
C17A C -2.5655(3) 1.3097(3) 0.7482(3)
H11A H -2.5619 1.3189 0.6758
C18A C -2.4477(3) 1.3644(3) 0.8373(3)
H12A H -2.3661 1.4104 0.8252
C19A C -2.4524(3) 1.3499(3) 0.9455(3)
C20A C -2.5803(3) 1.2912(3) 0.9665(3)
H13A H -2.5871 1.2886 1.0409
C21A C -2.6959(3) 1.2372(3) 0.8761(3)
H14A H -2.7804 1.1972 0.8901
C22A C -2.2012(3) 1.4390(4) 1.0150(3)
H15A H -2.1852 1.3891 0.9368
H16A H -2.2013 1.5271 1.0198
O1A O -1.0485(2) 1.1515(2) 1.39731(19)
O2A O -1.6089(2) 1.3990(2) 1.3111(2)
O3A O -1.1782(2) 1.1039(2) 1.52316(19)
O4A O -2.7886(2) 1.1644(2) 0.56092(18)
O5A O -2.9200(2) 1.1153(2) 0.68601(18)
O6A O -2.3380(2) 1.3882(2) 1.03658(18)
Zn1A Zn -0.91303(3) 1.02696(3) 1.41759(3)
O3_2 O -0.8218(2) 0.8961(2) 1.47684(19)
O3A_2 O -0.1782(2) 1.1039(2) 0.52316(19)
O4_2 O -0.2114(2) 0.8356(2) 0.43908(18)
O4A_2 O -0.7886(2) 1.1644(2) 1.56092(18)
O5_2 O -1.0800(2) 0.8847(2) 1.31399(18)
O5A_2 O 0.0800(2) 1.1153(2) 0.68601(18)
Zn1_2 Zn -3.08697(3) 0.97304(3) 0.58241(3)
Zn1_3 Zn -1.08697(3) 0.97304(3) 1.58241(3)
Zn1_4 Zn 1.91303(3) 0.97304(3) 1.58241(3)
Zn1A_2 Zn -2.91303(3) 1.02696(3) 0.41759(3)
Zn1A_3 Zn 0.08697(3) 1.02696(3) 0.41759(3)
Zn1A_4 Zn 2.08697(3) 1.02696(3) 1.41759(3)
loop_
_geom_bond_atom_site_label_1
_geom_bond_atom_site_label_2
_geom_bond_site_symmetry_1
_geom_bond_site_symmetry_2
C1 C2 1_555 1_555
C2 C3 1_555 1_555
C3 H1 1_555 1_555
C4 C3 1_555 1_555
H2 C4 1_555 1_555
C5 C4 1_555 1_555
C6 C5 1_555 1_555
H3 C6 1_555 1_555
C7 C2 1_555 1_555
H4 C7 1_555 1_555
C8 H5 1_555 1_555
H6 C8 1_555 1_555
C9 C8 1_555 1_555
C10 C9 1_555 1_555
H7 C10 1_555 1_555
C11 C10 1_555 1_555
H8 C11 1_555 1_555
C12 C11 1_555 1_555
C13 C12 1_555 1_555
H9 C13 1_555 1_555
C14 C9 1_555 1_555
H10 C14 1_555 1_555
C15 C16 1_555 1_555
C16 C17 1_555 1_555
C17 H11 1_555 1_555
C18 C17 1_555 1_555
H12 C18 1_555 1_555
C19 C18 1_555 1_555
C20 C19 1_555 1_555
H13 C20 1_555 1_555
C21 C16 1_555 1_555
H14 C21 1_555 1_555
C22 C12 1_555 1_555
H15 C22 1_555 1_555
H16 C22 1_555 1_555
C23 H17 1_555 1_555
C24 C23 1_555 1_555
H18 C24 1_555 1_555
C25 C24 1_555 1_555
C26 C25 1_555 1_555
H19 C26 1_555 1_555
C27 C26 1_555 1_555
H20 C27 1_555 1_555
C28 C25 1_555 1_555
H21 C28 1_555 1_555
H22 C28 1_555 1_555
N1 C23 1_555 1_555
O1 C1 1_555 1_555
O2 C5 1_555 1_555
O3 C1 1_555 1_555
O4 C15 1_555 1_555
O5 C15 1_555 1_555
O6 C19 1_555 1_555
Zn1 N1 1_555 1_555
C23A H17A 1_555 1_555
C24A C23A 1_555 1_555
H18A C24A 1_555 1_555
C25A C24A 1_555 1_555
C26A C25A 1_555 1_555
H19A C26A 1_555 1_555
C27A C26A 1_555 1_555
H20A C27A 1_555 1_555
C28A C28 1_555 1_555
H21A C28A 1_555 1_555
H22A C28A 1_555 1_555
N1A C23A 1_555 1_555
C1A C2A 1_555 1_555
C2A C3A 1_555 1_555
C3A H1A 1_555 1_555
C4A C3A 1_555 1_555
H2A C4A 1_555 1_555
C5A C4A 1_555 1_555
C6A C5A 1_555 1_555
H3A C6A 1_555 1_555
C7A C2A 1_555 1_555
H4A C7A 1_555 1_555
C8A H5A 1_555 1_555
H6A C8A 1_555 1_555
C9A C8A 1_555 1_555
C10A C9A 1_555 1_555
H7A C10A 1_555 1_555
C11A C10A 1_555 1_555
H8A C11A 1_555 1_555
C12A C11A 1_555 1_555
C13A C12A 1_555 1_555
H9A C13A 1_555 1_555
C14A C9A 1_555 1_555
H10A C14A 1_555 1_555
C15A C16A 1_555 1_555
C16A C17A 1_555 1_555
C17A H11A 1_555 1_555
C18A C17A 1_555 1_555
H12A C18A 1_555 1_555
C19A C18A 1_555 1_555
C20A C19A 1_555 1_555
H13A C20A 1_555 1_555
C21A C16A 1_555 1_555
H14A C21A 1_555 1_555
C22A C12A 1_555 1_555
H15A C22A 1_555 1_555
H16A C22A 1_555 1_555
O1A C1A 1_555 1_555
O2A C5A 1_555 1_555
O3A C1A 1_555 1_555
O4A C15A 1_555 1_555
O5A C15A 1_555 1_555
O6A C19A 1_555 1_555
Zn1A N1A 1_555 1_555
O3_2 Zn1A 1_555 1_555
O3A_2 Zn1 1_555 1_555
O4_2 Zn1 1_555 1_555
O4A_2 Zn1A 1_555 1_555
O5_2 Zn1A 1_555 1_555
O5A_2 Zn1 1_555 1_555
Zn1_2 O5A 1_555 1_555
Zn1_3 O3A 1_555 1_555
Zn1_4 O4 1_555 1_555
Zn1A_2 O4A 1_555 1_555
Zn1A_3 O3 1_555 1_555
Zn1A_4 O5 1_555 1_555
C6 C7 1_555 1_555
C8 O2 1_555 1_555
C13 C14 1_555 1_555
C20 C21 1_555 1_555
C22 O6 1_555 1_555
C27 N1 1_555 1_555
O1 Zn1 1_555 1_555
C25A C28A 1_555 1_555
C27A N1A 1_555 1_555
C6A C7A 1_555 1_555
C8A O2A 1_555 1_555
C13A C14A 1_555 1_555
C20A C21A 1_555 1_555
C22A O6A 1_555 1_555
O1A Zn1A 1_555 1_555

#END
