
#######################################################################
#
#                 Cambridge Crystallographic Data Centre
#                                CCDC 
#
#######################################################################
#
# If this CIF has been generated from an entry in the Cambridge 
# Structural Database, then it will include bibliographic, chemical, 
# crystal, experimental, refinement or atomic coordinate data resulting 
# from the CCDC's data processing and validation procedures.
#
#######################################################################

data_CUQPEL
_symmetry_cell_setting           triclinic
_symmetry_space_group_name_H-M   'P -1'
_symmetry_Int_Tables_number      2
_space_group_name_Hall           '-P 1'
loop_
_symmetry_equiv_pos_site_id
_symmetry_equiv_pos_as_xyz
1 x,y,z
2 -x,-y,-z
_cell_length_a                   9.5318(19)
_cell_length_b                   12.490(3)
_cell_length_c                   14.214(3)
_cell_angle_alpha                76.45(3)
_cell_angle_beta                 86.68(3)
_cell_angle_gamma                83.09(3)
_cell_volume                     1632.38
loop_
_atom_site_label
_atom_site_type_symbol
_atom_site_fract_x
_atom_site_fract_y
_atom_site_fract_z
Zn1 Zn 0.0000 0.0000 0.0000
O1 O 0.0974(4) 0.1084(3) 0.0772(3)
O2 O -0.9037(4) 1.0752(3) 0.8578(3)
O3 O -0.4826(4) 0.8113(3) 0.6083(3)
O4 O -0.0872(5) 0.4925(3) 0.3016(3)
N1 N 0.7708(5) -0.8268(4) -0.3549(3)
N2 N 0.3572(5) -0.2369(4) -0.0270(3)
O5 O -0.7093(4) 1.1578(4) 0.8589(3)
H1 H -0.7592 1.2066 0.9075
C1 C 0.0769(5) 0.2792(4) 0.1282(4)
N3 N 0.1956(5) -0.1151(4) 0.0185(3)
C2 C 0.0590(6) 0.3941(4) 0.0949(4)
H2 H 0.0849 0.4254 0.0313
C3 C -0.1269(8) 0.4547(5) 0.3996(5)
H3 H -0.0454 0.4160 0.4358
H4 H -0.1977 0.4037 0.4055
C4 C -0.6957(6) 1.0159(4) 0.7735(4)
C5 C -0.7780(6) 1.0866(4) 0.8341(4)
C6 C 0.5220(6) -0.4874(4) -0.1694(4)
C7 C 0.4148(6) -0.3234(4) -0.0736(4)
O6 O 0.1811(5) 0.2561(3) -0.0204(3)
C8 C 0.0036(6) 0.4620(4) 0.1545(4)
H5 H -0.0110 0.5382 0.1302
C9 C 0.5836(6) -0.5783(4) -0.2172(4)
C10 C 0.1216(5) 0.2077(5) 0.0568(4)
C11 C 0.8731(7) -0.9096(5) -0.3195(5)
H6 H 0.9078 -0.9228 -0.2575
C12 C -0.1472(8) 0.6585(6) 0.4039(5)
H7 H -0.0852 0.6711 0.3505
C13 C 0.2176(5) -0.1965(4) -0.0260(4)
H8 H 0.1470 -0.2234 -0.0535
C14 C -0.5452(6) 0.8819(4) 0.6628(4)
C15 C -0.0305(5) 0.4171(4) 0.2508(4)
C16 C -0.0073(6) 0.3026(5) 0.2870(4)
H9 H -0.0265 0.2719 0.3520
C17 C 0.8429(7) -0.9209(5) -0.4629(4)
H10 H 0.8537 -0.9449 -0.5204
C18 C 0.7868(6) -0.7029(4) -0.2477(4)
H11 H 0.8809 -0.7312 -0.2373
C19 C -0.1864(7) 0.5539(5) 0.4399(4)
C20 C 0.3364(6) -0.4103(5) -0.0739(5)
H12 H 0.2490 -0.4143 -0.0414
C21 C 0.7053(6) -0.7432(4) -0.3078(4)
C22 C 0.5990(6) -0.4005(5) -0.1672(4)
H13 H 0.6882 -0.3981 -0.1973
C23 C -0.3416(7) 0.8248(5) 0.5724(5)
H14 H -0.2809 0.8241 0.6251
H15 H -0.3393 0.8950 0.5256
C24 C -0.6862(6) 0.8672(5) 0.6923(4)
H16 H -0.7299 0.8120 0.6754
C25 C 0.0449(6) 0.2349(4) 0.2250(4)
H17 H 0.0586 0.1586 0.2489
C26 C -0.4809(6) 0.9638(5) 0.6891(4)
H18 H -0.3880 0.9749 0.6692
C27 C -0.5564(6) 1.0289(5) 0.7453(4)
H19 H -0.5124 1.0826 0.7645
C28 C 0.5053(6) -0.6216(5) -0.2754(4)
H20 H 0.4103 -0.5953 -0.2843
C29 C -0.2904(6) 0.7300(5) 0.5249(4)
C30 C -0.7587(6) 0.9346(5) 0.7459(4)
H21 H -0.8526 0.9255 0.7642
C31 C 0.7246(6) -0.6206(5) -0.2044(4)
H22 H 0.7787 -0.5924 -0.1655
C32 C 0.5458(6) -0.3172(5) -0.1212(4)
H23 H 0.5972 -0.2581 -0.1222
C33 C 0.5657(6) -0.7032(5) -0.3203(4)
H24 H 0.5115 -0.7313 -0.3594
C34 C 0.4267(6) -0.1754(5) 0.0198(4)
H25 H 0.5230 -0.1834 0.0310
C35 C 0.3267(6) -0.1010(5) 0.0462(4)
H26 H 0.3441 -0.0476 0.0786
C36 C 0.3890(6) -0.4903(5) -0.1226(5)
H27 H 0.3352 -0.5471 -0.1245
C37 C -0.1989(7) 0.7454(5) 0.4460(5)
H28 H -0.1710 0.8155 0.4203
N4 N 0.9170(6) -0.9685(4) -0.3820(4)
C38 C 0.7522(7) -0.8347(5) -0.4489(4)
H29 H 0.6897 -0.7896 -0.4931
C39 C -0.3325(9) 0.6266(5) 0.5590(5)
H30 H -0.3973 0.6147 0.6109
C40 C -0.2806(9) 0.5396(5) 0.5176(5)
H31 H -0.3099 0.4699 0.5429
O1A O -1.0974(4) 0.8916(3) 0.9228(3)
O2A O -0.0963(4) -0.0752(3) 0.1422(3)
O3A O -0.5174(4) 0.1887(3) 0.3917(3)
O4A O -0.9128(5) 0.5075(3) 0.6984(3)
O5A O -0.2907(4) -0.1578(4) 0.1411(3)
H1A H -0.2408 -0.2066 0.0925
C1A C -1.0769(5) 0.7208(4) 0.8718(4)
C2A C -1.0590(6) 0.6059(4) 0.9051(4)
H2A H -1.0849 0.5746 0.9687
C3A C -0.8731(8) 0.5453(5) 0.6004(5)
H3A H -0.9546 0.5840 0.5642
H4A H -0.8023 0.5963 0.5945
C4A C -0.3043(6) -0.0159(4) 0.2265(4)
C5A C -0.2220(6) -0.0866(4) 0.1659(4)
O6A O -1.1811(5) 0.7439(3) 1.0204(3)
C8A C -1.0036(6) 0.5380(4) 0.8455(4)
H5A H -0.9890 0.4618 0.8698
C10A C -1.1216(5) 0.7923(5) 0.9432(4)
C12A C -0.8528(8) 0.3415(6) 0.5961(5)
H7A H -0.9148 0.3289 0.6495
C14A C -0.4548(6) 0.1181(4) 0.3372(4)
C15A C -0.9695(5) 0.5829(4) 0.7492(4)
C16A C -0.9927(6) 0.6974(5) 0.7130(4)
H9A H -0.9735 0.7281 0.6480
C19A C -0.8136(7) 0.4461(5) 0.5601(4)
C23A C -0.6584(7) 0.1752(5) 0.4276(5)
H14A H -0.7191 0.1759 0.3749
H15A H -0.6607 0.1050 0.4744
C24A C -0.3138(6) 0.1328(5) 0.3077(4)
H16A H -0.2701 0.1880 0.3246
C25A C -1.0449(6) 0.7651(4) 0.7750(4)
H17A H -1.0586 0.8414 0.7511
C26A C -0.5191(6) 0.0362(5) 0.3109(4)
H18A H -0.6120 0.0251 0.3308
C27A C -0.4436(6) -0.0289(5) 0.2547(4)
H19A H -0.4876 -0.0826 0.2355
C29A C -0.7096(6) 0.2700(5) 0.4751(4)
C30A C -0.2413(6) 0.0654(5) 0.2541(4)
H21A H -0.1474 0.0745 0.2358
C37A C -0.8011(7) 0.2546(5) 0.5540(5)
H28A H -0.8290 0.1845 0.5797
C39A C -0.6675(9) 0.3734(5) 0.4410(5)
H30A H -0.6027 0.3853 0.3891
C40A C -0.7194(9) 0.4604(5) 0.4824(5)
H31A H -0.6901 0.5301 0.4571
N1A N -0.7708(5) 0.8268(4) 0.3549(3)
N2A N -0.3572(5) 0.2369(4) 0.0270(3)
N3A N -0.1956(5) 0.1151(4) -0.0185(3)
C6A C -0.5220(6) 0.4874(4) 0.1694(4)
C7A C -0.4148(6) 0.3234(4) 0.0736(4)
C9A C -0.5836(6) 0.5783(4) 0.2172(4)
C11A C -0.8731(7) 0.9096(5) 0.3195(5)
H6A H -0.9078 0.9228 0.2575
C13A C -0.2176(5) 0.1965(4) 0.0260(4)
H8A H -0.1470 0.2234 0.0535
C17A C -0.8429(7) 0.9209(5) 0.4629(4)
H10A H -0.8537 0.9449 0.5204
C18A C -0.7868(6) 0.7029(4) 0.2477(4)
H11A H -0.8809 0.7312 0.2373
C20A C -0.3364(6) 0.4103(5) 0.0739(5)
H12A H -0.2490 0.4143 0.0414
C21A C -0.7053(6) 0.7432(4) 0.3078(4)
C22A C -0.5990(6) 0.4005(5) 0.1672(4)
H13A H -0.6882 0.3981 0.1973
C28A C -0.5053(6) 0.6216(5) 0.2754(4)
H20A H -0.4103 0.5953 0.2843
C31A C -0.7246(6) 0.6206(5) 0.2044(4)
H22A H -0.7787 0.5924 0.1655
C32A C -0.5458(6) 0.3172(5) 0.1212(4)
H23A H -0.5972 0.2581 0.1222
C33A C -0.5657(6) 0.7032(5) 0.3203(4)
H24A H -0.5115 0.7313 0.3594
C34A C -0.4267(6) 0.1754(5) -0.0198(4)
H25A H -0.5230 0.1834 -0.0310
C35A C -0.3267(6) 0.1010(5) -0.0462(4)
H26A H -0.3441 0.0476 -0.0786
C36A C -0.3890(6) 0.4903(5) 0.1226(5)
H27A H -0.3352 0.5471 0.1245
N4A N -0.9170(6) 0.9685(4) 0.3820(4)
C38A C -0.7522(7) 0.8347(5) 0.4489(4)
H29A H -0.6897 0.7896 0.4931
Zn1_2 Zn -1.0000 1.0000 1.0000
O1A_2 O -0.0974(4) -0.1084(3) -0.0772(3)
O2_2 O 0.0963(4) 0.0752(3) -0.1422(3)
loop_
_geom_bond_atom_site_label_1
_geom_bond_atom_site_label_2
_geom_bond_site_symmetry_1
_geom_bond_site_symmetry_2
Zn1 O1 1_555 1_555
O1 C10 1_555 1_555
O2 C5 1_555 1_555
O3 C14 1_555 1_555
O4 C3 1_555 1_555
N1 C11 1_555 1_555
N2 C7 1_555 1_555
O5 H1 1_555 1_555
C1 C2 1_555 1_555
N3 Zn1 1_555 1_555
C2 H2 1_555 1_555
C3 H3 1_555 1_555
H4 C3 1_555 1_555
C4 C5 1_555 1_555
C5 O5 1_555 1_555
C6 C9 1_555 1_555
C7 C20 1_555 1_555
O6 C10 1_555 1_555
C8 C2 1_555 1_555
H5 C8 1_555 1_555
C9 C28 1_555 1_555
C10 C1 1_555 1_555
C11 H6 1_555 1_555
C12 H7 1_555 1_555
C13 N2 1_555 1_555
H8 C13 1_555 1_555
C14 C24 1_555 1_555
C15 O4 1_555 1_555
C16 C15 1_555 1_555
H9 C16 1_555 1_555
C17 H10 1_555 1_555
C18 H11 1_555 1_555
C19 C3 1_555 1_555
C20 H12 1_555 1_555
C21 N1 1_555 1_555
C22 C6 1_555 1_555
H13 C22 1_555 1_555
C23 O3 1_555 1_555
H14 C23 1_555 1_555
H15 C23 1_555 1_555
C24 H16 1_555 1_555
C25 C1 1_555 1_555
H17 C25 1_555 1_555
C26 C14 1_555 1_555
H18 C26 1_555 1_555
C27 C4 1_555 1_555
H19 C27 1_555 1_555
C28 H20 1_555 1_555
C29 C23 1_555 1_555
C30 C4 1_555 1_555
H21 C30 1_555 1_555
C31 C9 1_555 1_555
H22 C31 1_555 1_555
C32 C7 1_555 1_555
H23 C32 1_555 1_555
C33 C21 1_555 1_555
H24 C33 1_555 1_555
C34 N2 1_555 1_555
H25 C34 1_555 1_555
C35 N3 1_555 1_555
H26 C35 1_555 1_555
C36 C6 1_555 1_555
H27 C36 1_555 1_555
C37 C12 1_555 1_555
H28 C37 1_555 1_555
N4 C11 1_555 1_555
C38 N1 1_555 1_555
H29 C38 1_555 1_555
C39 C29 1_555 1_555
H30 C39 1_555 1_555
C40 C19 1_555 1_555
H31 C40 1_555 1_555
O1A C10A 1_555 1_555
O2A Zn1 1_555 1_555
O3A C14A 1_555 1_555
O4A C3A 1_555 1_555
O5A H1A 1_555 1_555
C1A C2A 1_555 1_555
C2A H2A 1_555 1_555
C3A H3A 1_555 1_555
H4A C3A 1_555 1_555
C4A C5A 1_555 1_555
C5A O2A 1_555 1_555
O6A C10A 1_555 1_555
C8A C2A 1_555 1_555
H5A C8A 1_555 1_555
C10A C1A 1_555 1_555
C12A H7A 1_555 1_555
C14A C24A 1_555 1_555
C15A O4A 1_555 1_555
C16A C15A 1_555 1_555
H9A C16A 1_555 1_555
C19A C3A 1_555 1_555
C23A O3A 1_555 1_555
H14A C23A 1_555 1_555
H15A C23A 1_555 1_555
C24A H16A 1_555 1_555
C25A C1A 1_555 1_555
H17A C25A 1_555 1_555
C26A C14A 1_555 1_555
H18A C26A 1_555 1_555
C27A C4A 1_555 1_555
H19A C27A 1_555 1_555
C29A C23A 1_555 1_555
C30A C4A 1_555 1_555
H21A C30A 1_555 1_555
C37A C12A 1_555 1_555
H28A C37A 1_555 1_555
C39A C29A 1_555 1_555
H30A C39A 1_555 1_555
C40A C19A 1_555 1_555
H31A C40A 1_555 1_555
N1A C11A 1_555 1_555
N2A C7A 1_555 1_555
N3A Zn1 1_555 1_555
C6A C9A 1_555 1_555
C7A C20A 1_555 1_555
C9A C28A 1_555 1_555
C11A H6A 1_555 1_555
C13A N2A 1_555 1_555
H8A C13A 1_555 1_555
C17A H10A 1_555 1_555
C18A H11A 1_555 1_555
C20A H12A 1_555 1_555
C21A N1A 1_555 1_555
C22A C6A 1_555 1_555
H13A C22A 1_555 1_555
C28A H20A 1_555 1_555
C31A C9A 1_555 1_555
H22A C31A 1_555 1_555
C32A C7A 1_555 1_555
H23A C32A 1_555 1_555
C33A C21A 1_555 1_555
H24A C33A 1_555 1_555
C34A N2A 1_555 1_555
H25A C34A 1_555 1_555
C35A N3A 1_555 1_555
H26A C35A 1_555 1_555
C36A C6A 1_555 1_555
H27A C36A 1_555 1_555
N4A C11A 1_555 1_555
C38A N1A 1_555 1_555
H29A C38A 1_555 1_555
Zn1_2 O2 1_555 1_555
O1A_2 Zn1 1_555 1_555
O2_2 Zn1 1_555 1_555
N3 C13 1_555 1_555
C8 C15 1_555 1_555
C12 C19 1_555 1_555
C16 C25 1_555 1_555
C17 N4 1_555 1_555
C17 C38 1_555 1_555
C18 C21 1_555 1_555
C18 C31 1_555 1_555
C20 C36 1_555 1_555
C22 C32 1_555 1_555
C24 C30 1_555 1_555
C26 C27 1_555 1_555
C28 C33 1_555 1_555
C29 C37 1_555 1_555
C34 C35 1_555 1_555
C39 C40 1_555 1_555
O1A Zn1_2 1_555 1_555
O5A C5A 1_555 1_555
C8A C15A 1_555 1_555
C12A C19A 1_555 1_555
C16A C25A 1_555 1_555
C24A C30A 1_555 1_555
C26A C27A 1_555 1_555
C29A C37A 1_555 1_555
C39A C40A 1_555 1_555
N3A C13A 1_555 1_555
C17A N4A 1_555 1_555
C17A C38A 1_555 1_555
C18A C21A 1_555 1_555
C18A C31A 1_555 1_555
C20A C36A 1_555 1_555
C22A C32A 1_555 1_555
C28A C33A 1_555 1_555
C34A C35A 1_555 1_555

#END
