
#######################################################################
#
#                 Cambridge Crystallographic Data Centre
#                                CCDC 
#
#######################################################################
#
# If this CIF has been generated from an entry in the Cambridge 
# Structural Database, then it will include bibliographic, chemical, 
# crystal, experimental, refinement or atomic coordinate data resulting 
# from the CCDC's data processing and validation procedures.
#
#######################################################################

data_CUQPAH
_symmetry_cell_setting           triclinic
_symmetry_space_group_name_H-M   'P -1'
_symmetry_Int_Tables_number      2
_space_group_name_Hall           '-P 1'
loop_
_symmetry_equiv_pos_site_id
_symmetry_equiv_pos_as_xyz
1 x,y,z
2 -x,-y,-z
_cell_length_a                   9.1199(18)
_cell_length_b                   11.616(2)
_cell_length_c                   15.685(3)
_cell_angle_alpha                96.54(3)
_cell_angle_beta                 100.43(3)
_cell_angle_gamma                106.40(3)
_cell_volume                     1543.51
loop_
_atom_site_label
_atom_site_type_symbol
_atom_site_fract_x
_atom_site_fract_y
_atom_site_fract_z
Zn1 Zn 0.56650(6) 0.49368(4) 0.31735(3)
O1 O 0.9749(3) 0.2162(3) -0.04054(18)
O2 O 0.6914(3) 0.4815(2) 0.2332(2)
N1 N 0.4466(4) 0.3216(3) 0.3332(2)
N2 N 0.3866(4) -0.4361(3) 0.2992(2)
O3 O 0.7072(3) -0.4473(2) -0.56635(19)
O4 O 0.7230(4) -0.2648(3) -0.6001(2)
C1 C 0.9118(5) -0.2780(4) -0.4782(3)
C2 C 0.7127(5) 0.3637(4) 0.1059(3)
C3 C 0.2963(5) 0.0822(3) 0.3499(3)
O5 O 0.4717(4) 0.3828(3) 0.1334(2)
C4 C 0.5013(5) 0.2699(4) 0.3983(3)
H1 H 0.5927 0.3157 0.4390
C5 C 0.2382(5) 0.1356(4) 0.2835(3)
H2 H 0.1465 0.0917 0.2423
C6 C 0.9833(5) -0.1536(4) -0.4567(3)
H3 H 0.9409 -0.1029 -0.4882
C7 C 0.3253(5) -0.4043(4) 0.2259(3)
H4 H 0.3603 -0.4209 0.1751
O6 O 1.3134(4) -0.1396(3) -0.2787(2)
C8 C 0.1554(5) -0.3211(3) 0.2966(3)
C9 C 1.3208(5) 0.0537(4) -0.1927(3)
C10 C 1.1792(5) -0.1766(4) -0.3439(3)
C11 C 1.2027(5) 0.1799(4) -0.0745(3)
C12 C 0.6154(6) 0.4118(4) 0.1589(3)
C13 C 0.6451(5) 0.2785(4) 0.0293(3)
H5 H 0.5368 0.2528 0.0090
C14 C 0.2106(5) -0.3471(4) 0.2225(3)
H6 H 0.1704 -0.3259 0.1698
C15 C 0.4309(5) 0.1536(4) 0.4087(3)
H7 H 0.4742 0.1226 0.4557
C16 C 0.7699(5) -0.3301(4) -0.5537(3)
C17 C 0.2227(5) -0.0481(3) 0.3588(3)
H8 H 0.1804 -0.0481 0.4113
H9 H 0.3045 -0.0867 0.3677
C18 C 0.8952(5) 0.2688(4) 0.0101(3)
C19 C 1.1419(5) 0.2493(5) -0.0101(3)
H10 H 1.1678 0.2292 0.0479
H11 H 1.1891 0.3363 -0.0064
C20 C 0.2182(5) -0.3558(4) 0.3711(3)
H12 H 0.1842 -0.3409 0.4225
C21 C 0.0329(5) -0.2582(4) 0.2945(3)
H13 H -0.0025 -0.2602 0.3492
H14 H -0.0564 -0.3019 0.2468
C22 C 0.9654(5) 0.3533(4) 0.0869(3)
H15 H 1.0738 0.3790 0.1070
C23 C 0.0939(5) -0.1247(3) 0.2819(3)
H16 H 0.1333 -0.1223 0.2285
H17 H 0.0078 -0.0905 0.2751
C24 C 1.3340(5) 0.1735(4) -0.1940(3)
H18 H 1.3809 0.2128 -0.2352
C25 C 1.1158(5) -0.1019(4) -0.3899(3)
H19 H 1.1614 -0.0177 -0.3764
C26 C 0.7349(5) 0.2315(4) -0.0174(3)
H20 H 0.6865 0.1737 -0.0683
C27 C 0.3321(5) -0.4131(4) 0.3711(3)
H21 H 0.3723 -0.4366 0.4228
C28 C 1.1105(6) -0.3016(4) -0.3646(3)
H22 H 1.1537 -0.3523 -0.3335
C29 C 0.9778(6) -0.3510(4) -0.4315(3)
H23 H 0.9322 -0.4352 -0.4452
C30 C 1.3942(5) -0.0126(5) -0.2527(3)
H24 H 1.3978 0.0243 -0.3051
H25 H 1.5013 -0.0018 -0.2229
C31 C 0.3149(6) 0.2541(4) 0.2776(3)
H26 H 0.2721 0.2881 0.2323
C32 C 1.2775(5) 0.2367(4) -0.1339(3)
H27 H 1.2904 0.3190 -0.1339
C33 C 1.1874(5) 0.0589(4) -0.0757(3)
H28 H 1.1363 0.0182 -0.0365
C34 C 0.8732(5) 0.3991(4) 0.1332(3)
H29 H 0.9213 0.4559 0.1846
C35 C 1.2462(6) -0.0036(4) -0.1339(3)
H30 H 1.2350 -0.0855 -0.1333
Zn1_2 Zn 0.56650(6) -0.50632(4) -0.68265(3)
Zn1_3 Zn 0.56650(6) -0.50632(4) 0.31735(3)
N2_2 N 0.3866(4) 0.5639(3) 0.2992(2)
O3_2 O 0.7072(3) 0.5527(2) 0.43365(19)
loop_
_geom_bond_atom_site_label_1
_geom_bond_atom_site_label_2
_geom_bond_site_symmetry_1
_geom_bond_site_symmetry_2
Zn1 O2 1_555 1_555
O1 C18 1_555 1_555
O2 C12 1_555 1_555
N1 Zn1 1_555 1_555
N2 C7 1_555 1_555
O3 C16 1_555 1_555
O4 C16 1_555 1_555
C1 C6 1_555 1_555
C2 C12 1_555 1_555
C3 C5 1_555 1_555
O5 C12 1_555 1_555
C4 N1 1_555 1_555
H1 C4 1_555 1_555
C5 H2 1_555 1_555
C6 H3 1_555 1_555
C7 H4 1_555 1_555
O6 C10 1_555 1_555
C8 C14 1_555 1_555
C9 C24 1_555 1_555
C10 C25 1_555 1_555
C11 C19 1_555 1_555
C13 C2 1_555 1_555
H5 C13 1_555 1_555
C14 C7 1_555 1_555
H6 C14 1_555 1_555
C15 C3 1_555 1_555
H7 C15 1_555 1_555
C16 C1 1_555 1_555
C17 C3 1_555 1_555
H8 C17 1_555 1_555
H9 C17 1_555 1_555
C18 C22 1_555 1_555
C19 O1 1_555 1_555
H10 C19 1_555 1_555
H11 C19 1_555 1_555
C20 C8 1_555 1_555
H12 C20 1_555 1_555
C21 C8 1_555 1_555
H13 C21 1_555 1_555
H14 C21 1_555 1_555
C22 H15 1_555 1_555
C23 C17 1_555 1_555
H16 C23 1_555 1_555
H17 C23 1_555 1_555
C24 H18 1_555 1_555
C25 C6 1_555 1_555
H19 C25 1_555 1_555
C26 C13 1_555 1_555
H20 C26 1_555 1_555
C27 N2 1_555 1_555
H21 C27 1_555 1_555
C28 C10 1_555 1_555
H22 C28 1_555 1_555
C29 C1 1_555 1_555
H23 C29 1_555 1_555
C30 O6 1_555 1_555
H24 C30 1_555 1_555
H25 C30 1_555 1_555
C31 N1 1_555 1_555
H26 C31 1_555 1_555
C32 C11 1_555 1_555
H27 C32 1_555 1_555
C33 C11 1_555 1_555
H28 C33 1_555 1_555
C34 C2 1_555 1_555
H29 C34 1_555 1_555
C35 C9 1_555 1_555
H30 C35 1_555 1_555
Zn1_2 O3 1_555 1_555
Zn1_3 N2 1_555 1_555
N2_2 Zn1 1_555 1_555
O3_2 Zn1 1_555 1_555
C4 C15 1_555 1_555
C5 C31 1_555 1_555
C9 C30 1_555 1_555
C18 C26 1_555 1_555
C20 C27 1_555 1_555
C21 C23 1_555 1_555
C22 C34 1_555 1_555
C24 C32 1_555 1_555
C28 C29 1_555 1_555
C33 C35 1_555 1_555

#END
