
#######################################################################
#
#                 Cambridge Crystallographic Data Centre
#                                CCDC 
#
#######################################################################
#
# If this CIF has been generated from an entry in the Cambridge 
# Structural Database, then it will include bibliographic, chemical, 
# crystal, experimental, refinement or atomic coordinate data resulting 
# from the CCDC's data processing and validation procedures.
#
#######################################################################

data_CUQRUD
_symmetry_cell_setting           monoclinic
_symmetry_space_group_name_H-M   'C 2/c'
_symmetry_Int_Tables_number      15
_space_group_name_Hall           '-C 2yn'
loop_
_symmetry_equiv_pos_site_id
_symmetry_equiv_pos_as_xyz
1 x,y,z
2 -x,y,1/2-z
3 1/2+x,1/2+y,z
4 1/2-x,1/2+y,1/2-z
5 -x,-y,-z
6 x,-y,1/2+z
7 1/2-x,1/2-y,-z
8 1/2+x,1/2-y,1/2+z
_cell_length_a                   38.028(10)
_cell_length_b                   9.647(3)
_cell_length_c                   9.871(3)
_cell_angle_alpha                90
_cell_angle_beta                 97.490(5)
_cell_angle_gamma                90
_cell_volume                     3590.34
loop_
_atom_site_label
_atom_site_type_symbol
_atom_site_fract_x
_atom_site_fract_y
_atom_site_fract_z
Zn1 Zn 0.28442(2) 0.17537(7) 0.40152(6)
N1 N 0.26802(14) -0.0310(5) 0.7579(5)
N2 N 0.24357(13) 0.1534(5) 0.6462(5)
N3 N 0.26879(14) 0.0978(5) 0.5743(5)
O1 O 0.3305(2) 0.2311(11) 0.3140(16)
O2 O 0.3393(3) 0.096(2) 0.4590(13)
C1 C 0.3509(3) 0.152(2) 0.3775(18)
C2 C 0.38760(15) 0.1514(10) 0.3485(9)
C3 C 0.4121(2) 0.0857(12) 0.4440(8)
H1 H 0.4048 0.0453 0.5212
C4 C 0.4476(2) 0.0804(13) 0.4242(9)
H2 H 0.4641 0.0364 0.4881
C5 C 0.45859(14) 0.1407(11) 0.3088(9)
C6 C 0.43404(19) 0.2064(10) 0.2133(8)
H3 H 0.4414 0.2467 0.1361
C7 C 0.39854(17) 0.2117(10) 0.2332(9)
H4 H 0.3821 0.2557 0.1693
C8 C 0.4961(2) 0.1446(14) 0.2997(13)
H5 H 0.5127 0.1471 0.3776
C9 C 0.24465(17) 0.0723(6) 0.7555(6)
H6 H 0.2304 0.0862 0.8241
C10 C 0.28218(17) -0.0093(6) 0.6416(6)
H7 H 0.2997 -0.0652 0.6126
O1A O 0.6695(2) 0.2311(11) 0.1860(16)
O2A O 0.6607(3) 0.096(2) 0.0410(13)
C1A C 0.6491(3) 0.152(2) 0.1225(18)
C2A C 0.61240(15) 0.1514(10) 0.1515(9)
C3A C 0.5879(2) 0.0857(12) 0.0560(8)
H1A H 0.5952 0.0453 -0.0212
C4A C 0.5524(2) 0.0804(13) 0.0758(9)
H2A H 0.5359 0.0364 0.0119
C5A C 0.54141(14) 0.1407(11) 0.1912(9)
C6A C 0.56596(19) 0.2064(10) 0.2867(8)
H3A H 0.5586 0.2467 0.3639
C7A C 0.60146(17) 0.2117(10) 0.2668(9)
H4A H 0.6179 0.2557 0.3307
C8A C 0.5039(2) 0.1446(14) 0.2003(13)
H5A H 0.4873 0.1471 0.1224
Zn1A Zn 0.71558(2) 0.17537(7) 0.09848(6)
N1A N 0.73198(14) -0.0310(5) -0.2579(5)
N2A N 0.75643(13) 0.1534(5) -0.1462(5)
N3A N 0.73121(14) 0.0978(5) -0.0743(5)
C9A C 0.75535(17) 0.0723(6) -0.2555(6)
H6A H 0.7696 0.0862 -0.3241
C10A C 0.71782(17) -0.0093(6) -0.1416(6)
H7A H 0.7003 -0.0652 -0.1126
Zn1D Zn 0.71558(2) -0.17537(7) -0.40152(6)
Zn1E Zn 0.28442(2) -0.17537(7) 0.90152(6)
Zn1F Zn 0.21558(2) 0.32463(7) 0.59848(6)
Zn1G Zn 0.78442(2) 0.32463(7) -0.09848(6)
N1D N 0.73198(14) 0.0310(5) 0.2421(5)
N1E N 0.26802(14) 0.0310(5) 0.2579(5)
N2F N 0.25643(13) 0.3466(5) 0.3538(5)
N2G N 0.74357(13) 0.3466(5) 0.1462(5)
O3 O 0.1478(9) 0.176(3) 0.155(3)
H8 H 0.1315 0.1123 0.1335
H9 H 0.1373 0.2490 0.2015
O4 O 0.1853(10) 0.158(3) 0.020(4)
H10 H 0.1797 0.0559 0.0237
H11 H 0.2050 0.1688 -0.0058
loop_
_geom_bond_atom_site_label_1
_geom_bond_atom_site_label_2
_geom_bond_site_symmetry_1
_geom_bond_site_symmetry_2
Zn1 N3 1_555 1_555
N1 C9 1_555 1_555
N2 N3 1_555 1_555
N3 C10 1_555 1_555
O1 Zn1 1_555 1_555
O2 Zn1 1_555 1_555
C1 O1 1_555 1_555
C2 C1 1_555 1_555
C3 C2 1_555 1_555
H1 C3 1_555 1_555
C4 C3 1_555 1_555
H2 C4 1_555 1_555
C5 C4 1_555 1_555
C6 C5 1_555 1_555
H3 C6 1_555 1_555
C7 C2 1_555 1_555
H4 C7 1_555 1_555
C8 C5 1_555 1_555
H5 C8 1_555 1_555
C9 N2 1_555 1_555
H6 C9 1_555 1_555
C10 N1 1_555 1_555
H7 C10 1_555 1_555
O3 H8 1_555 1_555
H9 O3 1_555 1_555
O4 H10 1_555 1_555
H11 O4 1_555 1_555
O1A C1A 1_555 1_555
O2A C1A 1_555 1_555
C1A C2A 1_555 1_555
C2A C3A 1_555 1_555
C3A H1A 1_555 1_555
C4A C3A 1_555 1_555
H2A C4A 1_555 1_555
C5A C4A 1_555 1_555
C6A C5A 1_555 1_555
H3A C6A 1_555 1_555
C7A C2A 1_555 1_555
H4A C7A 1_555 1_555
C8A C8 1_555 1_555
H5A C8A 1_555 1_555
Zn1A O1A 1_555 1_555
N1A C9A 1_555 1_555
N2A N3A 1_555 1_555
N3A Zn1A 1_555 1_555
C9A N2A 1_555 1_555
H6A C9A 1_555 1_555
C10A N1A 1_555 1_555
H7A C10A 1_555 1_555
Zn1D N1A 1_555 1_555
Zn1E N1 1_555 1_555
Zn1F N2 1_555 1_555
Zn1G N2A 1_555 1_555
N1D Zn1A 1_555 1_555
N1E Zn1 1_555 1_555
N2F Zn1 1_555 1_555
N2G Zn1A 1_555 1_555
O2 C1 1_555 1_555
C6 C7 1_555 1_555
O2A Zn1A 1_555 1_555
C5A C8A 1_555 1_555
C6A C7A 1_555 1_555
N3A C10A 1_555 1_555

#END
