
#######################################################################
#
#                 Cambridge Crystallographic Data Centre
#                                CCDC 
#
#######################################################################
#
# If this CIF has been generated from an entry in the Cambridge 
# Structural Database, then it will include bibliographic, chemical, 
# crystal, experimental, refinement or atomic coordinate data resulting 
# from the CCDC's data processing and validation procedures.
#
#######################################################################

data_CUQROX
_symmetry_cell_setting           monoclinic
_symmetry_space_group_name_H-M   'C 2/c'
_symmetry_Int_Tables_number      15
_space_group_name_Hall           '-C 2yn'
loop_
_symmetry_equiv_pos_site_id
_symmetry_equiv_pos_as_xyz
1 x,y,z
2 -x,y,1/2-z
3 1/2+x,1/2+y,z
4 1/2-x,1/2+y,1/2-z
5 -x,-y,-z
6 x,-y,1/2+z
7 1/2-x,1/2-y,-z
8 1/2+x,1/2-y,1/2+z
_cell_length_a                   38.503(5)
_cell_length_b                   9.4511(12)
_cell_length_c                   9.8023(13)
_cell_angle_alpha                90
_cell_angle_beta                 100.578(2)
_cell_angle_gamma                90
_cell_volume                     3506.4
loop_
_atom_site_label
_atom_site_type_symbol
_atom_site_fract_x
_atom_site_fract_y
_atom_site_fract_z
Zn1 Zn 0.21400(2) 0.18806(7) 0.09078(7)
N1 N 0.24843(14) 0.3454(6) 0.1536(6)
N2 N 0.27630(13) 0.3840(6) 0.0912(5)
N3 N 0.27621(14) 0.5261(6) 0.2702(6)
O1 O 0.16480(13) 0.2266(6) 0.0915(6)
O2 O 0.1670(2) 0.3940(14) -0.0508(17)
C1 C 0.24891(16) 0.4310(7) 0.2583(7)
C2 C 0.29230(18) 0.4922(7) 0.1644(7)
C3 C 0.2232(2) 0.4225(10) 0.3562(10)
H1 H 0.2007 0.3903 0.3068
H2 H 0.2205 0.5144 0.3947
H3 H 0.2319 0.3574 0.4297
C4 C 0.3234(2) 0.5633(10) 0.1264(9)
H4 H 0.3341 0.5023 0.0676
H5 H 0.3402 0.5842 0.2090
H6 H 0.3161 0.6497 0.0780
C5 C 0.1510(2) 0.3251(10) 0.0166(12)
C6 C 0.1124(2) 0.3584(9) 0.0188(11)
C7 C 0.0960(3) 0.4622(15) -0.0651(17)
H7 H 0.1080 0.5087 -0.1263
C8 C 0.0943(2) 0.2815(13) 0.0976(11)
H8 H 0.1053 0.2068 0.1504
C9 C 0.0589(3) 0.3134(11) 0.1006(13)
H9 H 0.0466 0.2608 0.1562
C10 C 0.0609(3) 0.4993(15) -0.0590(17)
H10 H 0.0501 0.5758 -0.1094
C11 C 0.0429(2) 0.4201(11) 0.0230(11)
N4 N 0.0065(2) 0.4466(10) 0.0316(10)
O1D O -0.16480(13) 0.7734(6) -0.0915(6)
O2D O -0.1670(2) 0.6060(14) 0.0508(17)
C5D C -0.1510(2) 0.6749(10) -0.0166(12)
C6D C -0.1124(2) 0.6416(9) -0.0188(11)
C7D C -0.0960(3) 0.5378(15) 0.0651(17)
H7D H -0.1080 0.4913 0.1263
C8D C -0.0943(2) 0.7185(13) -0.0976(11)
H8D H -0.1053 0.7932 -0.1504
C9D C -0.0589(3) 0.6866(11) -0.1006(13)
H9D H -0.0466 0.7392 -0.1562
C10D C -0.0609(3) 0.5007(15) 0.0590(17)
H10D H -0.0501 0.4242 0.1094
C11D C -0.0429(2) 0.5799(11) -0.0230(11)
N4D N -0.0065(2) 0.5534(10) -0.0316(10)
Zn1D Zn -0.21400(2) 0.81194(7) -0.09078(7)
N1D N -0.24843(14) 0.6546(6) -0.1536(6)
N2D N -0.27630(13) 0.6160(6) -0.0912(5)
N3D N -0.27621(14) 0.4739(6) -0.2702(6)
C1D C -0.24891(16) 0.5690(7) -0.2583(7)
C2D C -0.29230(18) 0.5078(7) -0.1644(7)
C3D C -0.2232(2) 0.5775(10) -0.3562(10)
H1D H -0.2007 0.6097 -0.3068
H2D H -0.2205 0.4856 -0.3947
H3D H -0.2319 0.6426 -0.4297
C4D C -0.3234(2) 0.4367(10) -0.1264(9)
H4D H -0.3341 0.4977 -0.0676
H5D H -0.3402 0.4158 -0.2090
H6D H -0.3161 0.3503 -0.0780
Zn1B Zn -0.28600(2) 0.68806(7) 0.09078(7)
Zn1C Zn 0.28600(2) 0.68806(7) 0.40922(7)
Zn1F Zn 0.28600(2) 0.31194(7) -0.09078(7)
Zn1G Zn -0.28600(2) 0.31194(7) -0.40922(7)
N2B N -0.22370(13) 0.8840(6) 0.0912(5)
N2F N 0.22370(13) 0.1160(6) -0.0912(5)
N3C N 0.22379(14) 0.0261(6) 0.2298(6)
N3G N -0.22379(14) 0.9739(6) -0.2298(6)
O3 O 0.1826(5) 0.6874(14) 0.1323(17)
O4 O 0.0429(18) 0.894(4) -0.069(7)
O6 O 0.0471(17) 0.839(5) 0.152(7)
O5? O 0.0697(10) 0.862(3) 0.075(4)
loop_
_geom_bond_atom_site_label_1
_geom_bond_atom_site_label_2
_geom_bond_site_symmetry_1
_geom_bond_site_symmetry_2
Zn1 N1 1_555 1_555
N1 N2 1_555 1_555
N2 C2 1_555 1_555
N3 C1 1_555 1_555
O1 Zn1 1_555 1_555
O2 C5 1_555 1_555
C1 N1 1_555 1_555
C2 N3 1_555 1_555
C3 C1 1_555 1_555
H1 C3 1_555 1_555
H2 C3 1_555 1_555
H3 C3 1_555 1_555
C4 C2 1_555 1_555
H4 C4 1_555 1_555
H5 C4 1_555 1_555
H6 C4 1_555 1_555
C5 O1 1_555 1_555
C6 C5 1_555 1_555
C7 C6 1_555 1_555
H7 C7 1_555 1_555
C8 C6 1_555 1_555
H8 C8 1_555 1_555
C9 C8 1_555 1_555
H9 C9 1_555 1_555
C10 C7 1_555 1_555
H10 C10 1_555 1_555
C11 C9 1_555 1_555
N4 C11 1_555 1_555
O1D C5D 1_555 1_555
O2D C5D 1_555 1_555
C5D C6D 1_555 1_555
C6D C7D 1_555 1_555
C7D H7D 1_555 1_555
C8D C6D 1_555 1_555
H8D C8D 1_555 1_555
C9D C8D 1_555 1_555
H9D C9D 1_555 1_555
C10D C7D 1_555 1_555
H10D C10D 1_555 1_555
C11D C9D 1_555 1_555
N4D N4 1_555 1_555
Zn1D O1D 1_555 1_555
N1D Zn1D 1_555 1_555
N2D N1D 1_555 1_555
N3D C1D 1_555 1_555
C1D N1D 1_555 1_555
C2D N2D 1_555 1_555
C3D C1D 1_555 1_555
H1D C3D 1_555 1_555
H2D C3D 1_555 1_555
H3D C3D 1_555 1_555
C4D C2D 1_555 1_555
H4D C4D 1_555 1_555
H5D C4D 1_555 1_555
H6D C4D 1_555 1_555
Zn1B N2D 1_555 1_555
Zn1C N3 1_555 1_555
Zn1F N2 1_555 1_555
Zn1G N3D 1_555 1_555
N2B Zn1D 1_555 1_555
N2F Zn1 1_555 1_555
N3C Zn1 1_555 1_555
N3G Zn1D 1_555 1_555
C10 C11 1_555 1_555
C10D C11D 1_555 1_555
C11D N4D 1_555 1_555
N3D C2D 1_555 1_555

#END
