
#######################################################################
#
#                 Cambridge Crystallographic Data Centre
#                                CCDC 
#
#######################################################################
#
# If this CIF has been generated from an entry in the Cambridge 
# Structural Database, then it will include bibliographic, chemical, 
# crystal, experimental, refinement or atomic coordinate data resulting 
# from the CCDC's data processing and validation procedures.
#
#######################################################################

data_CUQRAH
_symmetry_cell_setting           monoclinic
_symmetry_space_group_name_H-M   'P 21/c'
_symmetry_Int_Tables_number      14
_space_group_name_Hall           '-P 2ybc'
loop_
_symmetry_equiv_pos_site_id
_symmetry_equiv_pos_as_xyz
1 x,y,z
2 -x,1/2+y,1/2-z
3 -x,-y,-z
4 x,1/2-y,1/2+z
_cell_length_a                   6.5023(3)
_cell_length_b                   7.5897(5)
_cell_length_c                   20.4670(10)
_cell_angle_alpha                90
_cell_angle_beta                 94.119(4)
_cell_angle_gamma                90
_cell_volume                     1007.45
loop_
_atom_site_label
_atom_site_type_symbol
_atom_site_fract_x
_atom_site_fract_y
_atom_site_fract_z
Fe1 Fe 0.20431(5) -0.23350(4) 0.388980(15)
O1 O 0.2023(2) 0.0373(2) 0.40550(8)
O2 O 0.2613(3) 0.2503(2) 0.47948(8)
O3 O -0.1263(2) -0.2554(2) 0.37834(9)
O4 O -0.4668(2) -0.2461(2) 0.37524(8)
O5 O 0.2164(3) -0.5031(2) 0.38679(9)
O6 O 0.1914(3) -0.2019(3) 0.28669(8)
N1 N 0.2381(3) -0.2119(2) 0.49573(9)
N2 N 0.2984(3) -0.1303(3) 0.62870(9)
C1 C 0.2537(3) -0.0437(3) 0.51657(10)
C2 C 0.2380(3) 0.0947(3) 0.46334(10)
C3 C 0.2813(3) -0.0032(3) 0.58282(11)
C4 C -0.2915(3) -0.1834(3) 0.38952(10)
C5 C 0.2513(4) -0.3375(3) 0.54143(12)
C6 C 0.2829(4) -0.2957(3) 0.60709(12)
H1 H 0.239(4) -0.456(3) 0.5272(12)
H2 H 0.290(4) -0.387(4) 0.6376(14)
H3 H 0.234(5) -0.583(3) 0.4218(10)
H4 H 0.191(5) -0.564(4) 0.3476(9)
H5 H 0.071(4) -0.216(4) 0.2601(16)
H6 H 0.276(4) -0.119(4) 0.2690(16)
O4_2 O 0.5332(2) -0.2461(2) 0.37524(8)
Fe1_2 Fe -0.79569(5) -0.23350(4) 0.388980(15)
C3B C -0.2813(3) 0.0032(3) 0.41718(11)
N2B N -0.2984(3) 0.1303(3) 0.37130(9)
C6B C -0.2829(4) 0.2957(3) 0.39291(12)
C5B C -0.2513(4) 0.3375(3) 0.45857(12)
N1B N -0.2381(3) 0.2119(2) 0.50427(9)
Fe1B Fe -0.20431(5) 0.23350(4) 0.611020(15)
O1B O -0.2023(2) -0.0373(2) 0.59450(8)
C2B C -0.2380(3) -0.0947(3) 0.53666(10)
O2B O -0.2613(3) -0.2503(2) 0.52052(8)
C1B C -0.2537(3) 0.0437(3) 0.48343(10)
O3B O 0.1263(2) 0.2554(2) 0.62166(9)
C4B C 0.2915(3) 0.1834(3) 0.61048(10)
O4B O 0.4668(2) 0.2461(2) 0.62476(8)
Fe1B_2 Fe 0.79569(5) 0.23350(4) 0.611020(15)
O4B_2 O -0.5332(2) 0.2461(2) 0.62476(8)
O5B O -0.2164(3) 0.5031(2) 0.61321(9)
H3B H -0.234(5) 0.583(3) 0.5782(10)
H4B H -0.191(5) 0.564(4) 0.6524(9)
O6B O -0.1914(3) 0.2019(3) 0.71331(8)
H5B H -0.071(4) 0.216(4) 0.7399(16)
H6B H -0.276(4) 0.119(4) 0.7310(16)
H1B H -0.239(4) 0.456(3) 0.4728(12)
H2B H -0.290(4) 0.387(4) 0.3624(14)
O7 O -0.1458(3) -0.2532(2) 0.20605(9)
H7 H -0.135(6) -0.328(5) 0.1700(14)
H8 H -0.255(5) -0.298(5) 0.2292(17)
O8 O 0.4639(3) 0.0469(3) 0.24292(10)
H9 H 0.493(5) 0.102(5) 0.2045(11)
H10 H 0.570(5) 0.066(5) 0.2742(13)
loop_
_geom_bond_atom_site_label_1
_geom_bond_atom_site_label_2
_geom_bond_site_symmetry_1
_geom_bond_site_symmetry_2
Fe1 O1 1_555 1_555
O1 C2 1_555 1_555
O2 C2 1_555 1_555
O3 Fe1 1_555 1_555
O4 C4 1_555 1_555
O5 Fe1 1_555 1_555
O6 Fe1 1_555 1_555
O7 H7 1_555 1_555
O8 H9 1_555 1_555
N1 Fe1 1_555 1_555
N2 C3 1_555 1_555
C1 N1 1_555 1_555
C2 C1 1_555 1_555
C3 C1 1_555 1_555
C4 O3 1_555 1_555
C5 N1 1_555 1_555
C6 N2 1_555 1_555
H1 C5 1_555 1_555
H2 C6 1_555 1_555
H3 O5 1_555 1_555
H4 O5 1_555 1_555
H5 O6 1_555 1_555
H6 O6 1_555 1_555
H8 O7 1_555 1_555
H10 O8 1_555 1_555
O4_2 Fe1 1_555 1_555
Fe1_2 O4 1_555 1_555
C3B C4 1_555 1_555
N2B C3B 1_555 1_555
C6B N2B 1_555 1_555
C5B C6B 1_555 1_555
N1B C5B 1_555 1_555
Fe1B N1B 1_555 1_555
O1B Fe1B 1_555 1_555
C2B O1B 1_555 1_555
O2B C2B 1_555 1_555
C1B C3B 1_555 1_555
O3B Fe1B 1_555 1_555
C4B C3 1_555 1_555
O4B C4B 1_555 1_555
Fe1B_2 O4B 1_555 1_555
O4B_2 Fe1B 1_555 1_555
O5B Fe1B 1_555 1_555
H3B O5B 1_555 1_555
H4B O5B 1_555 1_555
O6B Fe1B 1_555 1_555
H5B O6B 1_555 1_555
H6B O6B 1_555 1_555
H1B C5B 1_555 1_555
H2B C6B 1_555 1_555
C5 C6 1_555 1_555
N1B C1B 1_555 1_555
C2B C1B 1_555 1_555
O3B C4B 1_555 1_555

#END
