
#######################################################################
#
#                 Cambridge Crystallographic Data Centre
#                                CCDC 
#
#######################################################################
#
# If this CIF has been generated from an entry in the Cambridge 
# Structural Database, then it will include bibliographic, chemical, 
# crystal, experimental, refinement or atomic coordinate data resulting 
# from the CCDC's data processing and validation procedures.
#
#######################################################################

data_CUQRIR
_symmetry_cell_setting           monoclinic
_symmetry_space_group_name_H-M   'C 2/c'
_symmetry_Int_Tables_number      15
_space_group_name_Hall           '-C 2yn'
loop_
_symmetry_equiv_pos_site_id
_symmetry_equiv_pos_as_xyz
1 x,y,z
2 -x,y,1/2-z
3 1/2+x,1/2+y,z
4 1/2-x,1/2+y,1/2-z
5 -x,-y,-z
6 x,-y,1/2+z
7 1/2-x,1/2-y,-z
8 1/2+x,1/2-y,1/2+z
_cell_length_a                   39.356(13)
_cell_length_b                   9.332(3)
_cell_length_c                   9.842(3)
_cell_angle_alpha                90
_cell_angle_beta                 101.864(4)
_cell_angle_gamma                90
_cell_volume                     3537.46
loop_
_atom_site_label
_atom_site_type_symbol
_atom_site_fract_x
_atom_site_fract_y
_atom_site_fract_z
Zn1 Zn 0.21419(2) 0.31089(4) 0.08561(4)
N1 N 0.24832(8) 0.1524(4) 0.1514(3)
N2 N 0.27597(8) 0.1155(3) 0.0938(3)
N3 N 0.27571(8) -0.0269(3) 0.2716(3)
O1 O 0.16600(8) 0.2710(4) 0.0823(4)
O2 O 0.16866(16) 0.0976(11) -0.0492(14)
C1 C 0.15240(14) 0.1707(6) 0.0102(9)
C2 C 0.11553(12) 0.1354(6) 0.0140(7)
C3 C 0.09809(17) 0.2111(11) 0.0905(9)
H1 H 0.1087 0.2885 0.1417
C4 C 0.0991(2) 0.0239(13) -0.0571(18)
H2 H 0.1109 -0.0346 -0.1085
C5 C 0.0640(2) -0.0052(11) -0.0543(15)
H3 H 0.0529 -0.0813 -0.1062
C6 C 0.0640(2) 0.1762(14) 0.0952(11)
H4 H 0.0531 0.2285 0.1545
C7 C 0.04629(15) 0.0738(8) 0.0211(8)
C8 C 0.00985(17) 0.0470(9) 0.0274(9)
H5 H 0.0004 0.1114 0.0814
C9 C 0.29185(10) 0.0084(4) 0.1680(4)
C10 C 0.32344(13) -0.0606(6) 0.1375(5)
H6 H 0.3170 -0.1456 0.0833
H7 H 0.3389 -0.0857 0.2231
H8 H 0.3349 0.0048 0.0865
C11 C 0.24892(9) 0.0655(4) 0.2560(4)
C12 C 0.22331(14) 0.0723(7) 0.3477(6)
H9 H 0.2345 0.1077 0.4373
H10 H 0.2143 -0.0219 0.3574
H11 H 0.2047 0.1353 0.3076
O1D O -0.16600(8) -0.2710(4) -0.0823(4)
O2D O -0.16866(16) -0.0976(11) 0.0492(14)
C1D C -0.15240(14) -0.1707(6) -0.0102(9)
C2D C -0.11553(12) -0.1354(6) -0.0140(7)
C3D C -0.09809(17) -0.2111(11) -0.0905(9)
H1D H -0.1087 -0.2885 -0.1417
C4D C -0.0991(2) -0.0239(13) 0.0571(18)
H2D H -0.1109 0.0346 0.1085
C5D C -0.0640(2) 0.0052(11) 0.0543(15)
H3D H -0.0529 0.0813 0.1062
C6D C -0.0640(2) -0.1762(14) -0.0952(11)
H4D H -0.0531 -0.2285 -0.1545
C7D C -0.04629(15) -0.0738(8) -0.0211(8)
C8D C -0.00985(17) -0.0470(9) -0.0274(9)
H5D H -0.0004 -0.1114 -0.0814
Zn1D Zn -0.21419(2) -0.31089(4) -0.08561(4)
N1D N -0.24832(8) -0.1524(4) -0.1514(3)
N2D N -0.27597(8) -0.1155(3) -0.0938(3)
N3D N -0.27571(8) 0.0269(3) -0.2716(3)
C9D C -0.29185(10) -0.0084(4) -0.1680(4)
C10D C -0.32344(13) 0.0606(6) -0.1375(5)
H6D H -0.3170 0.1456 -0.0833
H7D H -0.3389 0.0857 -0.2231
H8D H -0.3349 -0.0048 -0.0865
C11D C -0.24892(9) -0.0655(4) -0.2560(4)
C12D C -0.22331(14) -0.0723(7) -0.3477(6)
H9D H -0.2345 -0.1077 -0.4373
H10D H -0.2143 0.0219 -0.3574
H11D H -0.2047 -0.1353 -0.3076
Zn1B Zn -0.28581(2) -0.18911(4) 0.08561(4)
Zn1C Zn 0.28581(2) -0.18911(4) 0.41439(4)
Zn1F Zn 0.28581(2) 0.18911(4) -0.08561(4)
Zn1G Zn -0.28581(2) 0.18911(4) -0.41439(4)
N2B N -0.22403(8) -0.3845(3) 0.0938(3)
N2F N 0.22403(8) 0.3845(3) -0.0938(3)
N3C N 0.22429(8) 0.4731(3) 0.2284(3)
N3G N -0.22429(8) -0.4731(3) -0.2284(3)
O3 O 0.1802(5) 0.7989(12) 0.1244(13)
H12 H 0.1631 0.7419 0.1289
H13 H 0.1770 0.8822 0.1588
O4 O 0.0919(10) 0.667(2) 0.072(5)
H14 H 0.0814 0.6373 0.1364
H15 H 0.1095 0.7191 0.1086
O5 O 0.0267(10) 0.433(4) 0.286(4)
H16 H 0.0438 0.4081 0.3507
H17 H 0.0285 0.5244 0.2751
loop_
_geom_bond_atom_site_label_1
_geom_bond_atom_site_label_2
_geom_bond_site_symmetry_1
_geom_bond_site_symmetry_2
Zn1 N1 1_555 1_555
N1 N2 1_555 1_555
N2 C9 1_555 1_555
N3 C9 1_555 1_555
O1 Zn1 1_555 1_555
O2 C1 1_555 1_555
C1 O1 1_555 1_555
C2 C1 1_555 1_555
C3 C2 1_555 1_555
H1 C3 1_555 1_555
C4 C2 1_555 1_555
H2 C4 1_555 1_555
C5 C4 1_555 1_555
H3 C5 1_555 1_555
C6 C3 1_555 1_555
H4 C6 1_555 1_555
C7 C5 1_555 1_555
C8 C7 1_555 1_555
H5 C8 1_555 1_555
C9 C10 1_555 1_555
C10 H6 1_555 1_555
H7 C10 1_555 1_555
H8 C10 1_555 1_555
C11 N1 1_555 1_555
C12 C11 1_555 1_555
H9 C12 1_555 1_555
H10 C12 1_555 1_555
H11 C12 1_555 1_555
O3 H12 1_555 1_555
H13 O3 1_555 1_555
O4 H14 1_555 1_555
H15 O4 1_555 1_555
O5 H16 1_555 1_555
H17 O5 1_555 1_555
O1D C1D 1_555 1_555
O2D C1D 1_555 1_555
C1D C2D 1_555 1_555
C2D C3D 1_555 1_555
C3D H1D 1_555 1_555
C4D C2D 1_555 1_555
H2D C4D 1_555 1_555
C5D C4D 1_555 1_555
H3D C5D 1_555 1_555
C6D C3D 1_555 1_555
H4D C6D 1_555 1_555
C7D C5D 1_555 1_555
C8D C8 1_555 1_555
H5D C8D 1_555 1_555
Zn1D O1D 1_555 1_555
N1D Zn1D 1_555 1_555
N2D N1D 1_555 1_555
N3D C9D 1_555 1_555
C9D N2D 1_555 1_555
C10D C9D 1_555 1_555
H6D C10D 1_555 1_555
H7D C10D 1_555 1_555
H8D C10D 1_555 1_555
C11D N1D 1_555 1_555
C12D C11D 1_555 1_555
H9D C12D 1_555 1_555
H10D C12D 1_555 1_555
H11D C12D 1_555 1_555
Zn1B N2D 1_555 1_555
Zn1C N3 1_555 1_555
Zn1F N2 1_555 1_555
Zn1G N3D 1_555 1_555
N2B Zn1D 1_555 1_555
N2F Zn1 1_555 1_555
N3C Zn1 1_555 1_555
N3G Zn1D 1_555 1_555
N3 C11 1_555 1_555
C6 C7 1_555 1_555
C6D C7D 1_555 1_555
C7D C8D 1_555 1_555
N3D C11D 1_555 1_555

#END
