
#######################################################################
#
#                 Cambridge Crystallographic Data Centre
#                                CCDC 
#
#######################################################################
#
# If this CIF has been generated from an entry in the Cambridge 
# Structural Database, then it will include bibliographic, chemical, 
# crystal, experimental, refinement or atomic coordinate data resulting 
# from the CCDC's data processing and validation procedures.
#
#######################################################################

data_CUQSOY
_symmetry_cell_setting           triclinic
_symmetry_space_group_name_H-M   'P -1'
_symmetry_Int_Tables_number      2
_space_group_name_Hall           '-P 1'
loop_
_symmetry_equiv_pos_site_id
_symmetry_equiv_pos_as_xyz
1 x,y,z
2 -x,-y,-z
_cell_length_a                   14.4856(3)
_cell_length_b                   18.0721(4)
_cell_length_c                   30.4166(7)
_cell_angle_alpha                96.787(2)
_cell_angle_beta                 93.193(2)
_cell_angle_gamma                102.088(2)
_cell_volume                     7704.92
loop_
_atom_site_label
_atom_site_type_symbol
_atom_site_fract_x
_atom_site_fract_y
_atom_site_fract_z
Cu1 Cu 0.96962(5) 0.52390(3) 0.29794(3)
O1 O 0.6271(4) 0.7375(3) 0.01247(16)
N1 N 0.8466(4) 0.9493(4) -0.13027(15)
C1 C 0.4714(3) 0.8893(3) 0.07309(14)
Cu2 Cu 2.09251(6) 1.04031(7) 0.18759(2)
S1 S 2.04142(17) 1.21865(17) 0.16684(7)
O2 O 0.6261(3) 0.8703(3) -0.01934(12)
N2 N 0.9006(3) 0.5998(2) 0.27583(14)
C2 C 0.5261(4) 0.9026(3) 0.03753(15)
H1 H 0.5289 0.9494 0.0257
S2 S 2.14795(11) 0.85789(13) 0.18979(6)
O3 O 0.7628(4) 0.8957(6) 0.02120(17)
N3 N 0.8655(3) 1.4378(2) 0.26677(16)
C3 C 0.5768(4) 0.8522(4) 0.01824(18)
F1 F 1.9398(8) 1.3152(6) 0.1835(3)
O4 O 0.6453(4) 1.1960(2) 0.11382(14)
N4 N 1.0679(3) 0.6105(2) 0.33234(14)
C4 C 0.5765(4) 0.7844(4) 0.03424(19)
F2 F 1.8606(5) 1.2031(5) 0.1585(3)
O5 O 0.6527(3) 1.19911(19) 0.20263(12)
N5 N 1.9570(3) 0.5525(2) 0.68352(15)
C5 C 0.5223(4) 0.7677(4) 0.06988(17)
H2 H 0.5197 0.7205 0.0810
F3 F 1.9253(6) 1.2317(6) 0.2260(3)
O6 O 0.5670(3) 1.2824(3) 0.18154(18)
N6 N 2.0369(3) 1.0357(3) 0.24570(14)
C6 C 0.4720(3) 0.8189(3) 0.08931(15)
F4 F 2.1441(4) 0.8548(4) 0.27568(16)
O7 O 0.6828(3) 0.8718(3) 0.28207(13)
N7 N 1.8323(3) 0.9078(4) 0.12770(15)
C7 C 0.4220(4) 0.7984(3) 0.12971(15)
H3 H 0.3676 0.8235 0.1320
H4 H 0.3970 0.7425 0.1263
F5 F 2.1713(3) 0.7544(4) 0.2403(2)
O8 O 0.6622(2) 0.7390(2) 0.22895(12)
N8 N 2.3458(4) 1.1780(5) 0.2531(2)
C8 C 0.4866(3) 0.8223(2) 0.17162(14)
F6 F 2.2801(3) 0.8579(3) 0.25190(16)
O9 O 0.7975(3) 0.8153(2) 0.21172(15)
C9 C 0.5452(3) 0.7748(3) 0.18306(15)
H5 H 0.5403 0.7273 0.1649
O10 O 1.0616(3) 0.5314(2) 0.23351(15)
C10 C 0.6090(3) 0.7930(3) 0.21878(18)
O11 O 0.8818(3) 0.5176(2) 0.36222(14)
C11 C 0.6184(4) 0.8597(3) 0.24649(15)
O12 O 1.4289(2) 0.8653(2) 0.36601(10)
C12 C 0.5602(3) 0.9099(3) 0.23634(16)
H6 H 0.5663 0.9573 0.2547
O13 O 1.3514(2) 0.76962(17) 0.42013(11)
C13 C 0.4926(3) 0.8906(3) 0.19903(14)
O14 O 1.2506(2) 0.8494(2) 0.42481(14)
C14 C 0.4350(3) 0.9486(3) 0.19172(15)
H7 H 0.3758 0.9226 0.1734
H8 H 0.4170 0.9693 0.2208
O15 O 1.5890(3) 0.6697(2) 0.60112(14)
C15 C 0.4838(3) 1.0138(3) 0.16948(15)
O16 O 1.7805(2) 0.71094(19) 0.60591(11)
C16 C 0.5391(3) 1.0784(3) 0.19411(15)
H9 H 0.5411 1.0826 0.2256
O17 O 1.7699(3) 0.7553(2) 0.67650(13)
C17 C 0.5915(4) 1.1373(3) 0.17503(17)
O18 O 1.99313(18) 0.90880(17) 0.44390(9)
C18 C 0.5902(4) 1.1352(3) 0.12913(19)
O19 O 1.89820(19) 0.96840(18) 0.38407(9)
C19 C 0.5312(4) 1.0708(3) 0.10262(19)
H10 H 0.5272 1.0684 0.0712
O20 O 1.9876(2) 1.08664(18) 0.40658(9)
C20 C 0.4791(4) 1.0110(3) 0.12210(17)
O21 O 1.9815(3) 0.9668(3) 0.15543(11)
C21 C 0.4198(4) 0.9463(3) 0.09101(16)
H11 H 0.3668 0.9206 0.1068
H12 H 0.3921 0.9672 0.0660
O22 O 2.2037(3) 1.1181(3) 0.21699(13)
C22 C 0.6290(8) 0.6641(5) 0.0312(3)
H13 H 0.6518 0.6757 0.0628
H14 H 0.6715 0.6372 0.0151
H15 H 0.5650 0.6318 0.0281
C23 C 0.7174(5) 0.8997(7) -0.0125(2)
C24 C 0.7602(5) 0.9146(6) -0.0547(2)
C25 C 0.8585(7) 0.9207(7) -0.0559(3)
H16 H 0.8956 0.9139 -0.0306
O23 O 2.0241(4) 1.1421(3) 0.17548(16)
C26 C 0.9000(7) 0.9366(8) -0.0941(3)
H17 H 0.9659 0.9389 -0.0957
O24 O 2.1111(6) 1.2641(6) 0.1968(3)
C27 C 0.7568(5) 0.9290(5) -0.1295(2)
H18 H 0.7185 0.9267 -0.1562
O25 O 2.0450(7) 1.2315(5) 0.1227(2)
C28 C 0.7127(5) 0.9105(5) -0.0926(2)
H19 H 0.6456 0.8943 -0.0947
O26 O 2.1698(3) 0.9420(3) 0.19971(13)
C29 C 0.7151(6) 0.9513(6) 0.3021(3)
H20 H 0.7300 0.9837 0.2787
H21 H 0.7719 0.9562 0.3222
H22 H 0.6650 0.9671 0.3188
O27 O 2.0495(3) 0.8212(4) 0.18493(17)
C30 C 0.7579(4) 0.7603(3) 0.22666(19)
O28 O 2.2056(3) 0.8291(3) 0.15720(18)
C31 C 0.8063(3) 0.7026(3) 0.24326(17)
C32 C 0.7581(4) 0.6441(3) 0.2645(2)
H23 H 0.6923 0.6384 0.2679
C33 C 0.8079(4) 0.5945(3) 0.2804(2)
H24 H 0.7752 0.5548 0.2952
C34 C 0.9470(4) 0.6570(3) 0.25483(18)
H25 H 1.0126 0.6613 0.2512
C35 C 0.9010(4) 0.7091(3) 0.23859(18)
H26 H 0.9349 0.7491 0.2243
C36 C 0.6277(11) 1.2008(8) 0.0671(3)
H27 H 0.6494 1.1597 0.0494
H28 H 0.6621 1.2503 0.0603
H29 H 0.5596 1.1956 0.0599
C37 C 0.6360(4) 1.2692(4) 0.2005(2)
C38 C 0.7154(4) 1.3263(3) 0.2243(2)
C39 C 0.7499(4) 1.3226(3) 0.2663(2)
H30 H 0.7233 1.2811 0.2814
C40 C 0.8254(4) 1.3807(3) 0.2873(2)
H31 H 0.8479 1.3785 0.3170
C41 C 0.8327(5) 1.4390(4) 0.2241(2)
H32 H 0.8646 1.4781 0.2086
C42 C 0.7571(5) 1.3874(4) 0.2022(2)
H33 H 0.7335 1.3925 0.1732
C43 C 1.5764(2) 0.9509(2) 0.47033(13)
C44 C 1.5443(3) 0.9385(3) 0.42584(14)
H34 H 1.5749 0.9714 0.4064
C45 C 1.4689(3) 0.8797(3) 0.40895(14)
C46 C 1.4278(3) 0.8316(2) 0.43768(16)
C47 C 1.4581(3) 0.8411(2) 0.48180(15)
H35 H 1.4279 0.8067 0.5006
C48 C 1.5332(3) 0.9013(2) 0.49940(13)
C49 C 1.5597(3) 0.9126(2) 0.54889(13)
H36 H 1.5009 0.9033 0.5644
H37 H 1.5926 0.9665 0.5581
C50 C 1.6226(3) 0.8616(2) 0.56394(12)
C51 C 1.5771(3) 0.7904(3) 0.57460(15)
H38 H 1.5098 0.7765 0.5719
C52 C 1.6276(3) 0.7406(3) 0.58884(16)
C53 C 1.7263(3) 0.7618(3) 0.59246(15)
C54 C 1.7715(3) 0.8314(3) 0.58242(14)
H39 H 1.8387 0.8448 0.5852
C55 C 1.7205(3) 0.8834(2) 0.56801(12)
C56 C 1.7757(3) 0.9593(2) 0.55784(12)
H40 H 1.7378 0.9982 0.5645
H41 H 1.8346 0.9744 0.5779
C57 C 1.8018(3) 0.9597(2) 0.51044(13)
C58 C 1.8816(3) 0.9309(2) 0.49905(12)
H42 H 1.9131 0.9087 0.5206
C59 C 1.9155(3) 0.9339(2) 0.45768(13)
C60 C 1.8657(3) 0.9655(2) 0.42673(12)
C61 C 1.7875(3) 0.9930(2) 0.43655(13)
H43 H 1.7563 1.0146 0.4147
C62 C 1.7528(3) 0.9898(2) 0.47819(13)
C63 C 1.6604(3) 1.0159(2) 0.48562(13)
H44 H 1.6585 1.0336 0.5176
H45 H 1.6573 1.0592 0.4689
C64 C 1.4618(10) 0.9123(9) 0.3392(3)
H46 H 1.4663 0.9647 0.3532
H47 H 1.4193 0.9024 0.3119
H48 H 1.5248 0.9055 0.3319
C65 C 1.2682(3) 0.7887(3) 0.41171(17)
C66 C 1.1993(3) 0.7246(3) 0.38378(16)
C67 C 1.1027(4) 0.7226(3) 0.3851(2)
H49 H 1.0807 0.7603 0.4035
C68 C 1.0403(4) 0.6639(3) 0.3588(2)
H50 H 0.9744 0.6617 0.3596
C69 C 1.1624(3) 0.6144(3) 0.33037(18)
H51 H 1.1824 0.5775 0.3103
C70 C 1.2301(3) 0.6695(2) 0.35624(16)
H52 H 1.2957 0.6698 0.3553
C71 C 1.4882(4) 0.6460(4) 0.5968(3)
H53 H 1.4611 0.6825 0.6157
H54 H 1.4696 0.5952 0.6061
H55 H 1.4647 0.6442 0.5658
C72 C 1.7966(4) 0.7127(3) 0.64975(18)
C73 C 1.8515(4) 0.6547(3) 0.66049(17)
C74 C 1.8834(4) 0.6569(3) 0.7044(2)
H56 H 1.8700 0.6932 0.7271
C75 C 1.9351(5) 0.6047(3) 0.7139(2)
H57 H 1.9571 0.6055 0.7440
C76 C 1.9233(4) 0.5508(3) 0.6428(2)
H58 H 1.9352 0.5121 0.6213
C77 C 1.8709(4) 0.6010(3) 0.6283(2)
H59 H 1.8498 0.5984 0.5979
C78 C 2.0399(3) 0.8721(3) 0.47461(15)
H60 H 2.0534 0.9046 0.5034
H61 H 2.0993 0.8635 0.4633
H62 H 1.9989 0.8230 0.4782
C79 C 1.9589(3) 1.0342(3) 0.37833(14)
C80 C 1.9845(3) 1.0319(3) 0.33117(14)
C81 C 1.9727(3) 0.9644(3) 0.30257(16)
H63 H 1.9458 0.9166 0.3117
C82 C 2.0015(4) 0.9692(4) 0.26021(16)
H64 H 1.9959 0.9233 0.2405
C83 C 2.0442(4) 1.1021(4) 0.27367(18)
H65 H 2.0659 1.1496 0.2631
C84 C 2.0208(4) 1.1015(4) 0.31674(16)
H66 H 2.0292 1.1479 0.3363
C85 C 1.8916(4) 0.9612(4) 0.15354(17)
C86 C 1.8405(4) 1.0099(5) 0.1801(2)
H67 H 1.8695 1.0646 0.1800
H68 H 1.8398 0.9986 0.2111
C87 C 1.7426(5) 0.9898(6) 0.1572(3)
H69 H 1.6945 0.9880 0.1792
H70 H 1.7338 1.0276 0.1372
C88 C 1.7347(4) 0.9138(5) 0.1317(2)
H71 H 1.7008 0.8732 0.1477
H72 H 1.7008 0.9103 0.1021
C89 C 1.8615(7) 0.8417(6) 0.1029(3)
H73 H 1.9296 0.8461 0.1094
H74 H 1.8477 0.8413 0.0710
H75 H 1.8265 0.7943 0.1120
C90 C 2.1888(6) 0.8314(7) 0.2409(3)
C91 C 1.9453(12) 1.2448(9) 0.1832(5)
C92 C 2.2688(5) 1.1231(5) 0.2469(2)
C93 C 2.2751(7) 1.0768(5) 0.2810(3)
H76 H 2.2641 1.0224 0.2682
H77 H 2.2270 1.0825 0.3023
C94 C 2.3721(6) 1.1029(6) 0.3037(2)
H78 H 2.3700 1.1058 0.3363
H79 H 2.4128 1.0675 0.2938
C95 C 2.4083(6) 1.1793(7) 0.2909(3)
H80 H 2.4037 1.2203 0.3148
H81 H 2.4748 1.1857 0.2833
C96 C 2.3544(9) 1.2458(10) 0.2274(4)
H82 H 2.2962 1.2404 0.2081
H83 H 2.4083 1.2477 0.2091
H84 H 2.3643 1.2930 0.2482
Cu1_2 Cu 0.96962(5) 1.52390(3) 0.29794(3)
Cu1A Cu 2.03038(5) 0.47610(3) 0.70206(3)
N1A N 2.1534(4) 1.0507(4) 0.13027(15)
Cu2A Cu 0.90749(6) 0.95969(7) -0.18759(2)
N3_2 N 0.8655(3) 0.4378(2) 0.26677(16)
N5A N 1.0430(3) 0.4475(2) 0.31648(15)
S3 S 0.64548(11) 0.14539(11) 0.34711(7)
F7 F 0.7702(3) 0.1468(3) 0.28876(17)
F8 F 0.8217(3) 0.2200(3) 0.34961(16)
F9 F 0.8049(3) 0.1007(3) 0.34614(18)
O29 O 0.5922(4) 0.0783(3) 0.3142(3)
O30 O 0.6244(3) 0.2135(3) 0.33775(18)
O31 O 0.6520(4) 0.1299(6) 0.3886(2)
C97 C 0.7664(5) 0.1520(4) 0.3329(3)
N9 N 0.8843(6) 0.3003(5) 0.4465(3)
C98 C 0.8589(6) 0.3513(6) 0.4252(4)
C99 C 0.7599(9) 0.3507(10) 0.4330(5)
H85 H 0.7180 0.3314 0.4054
H86 H 0.7522 0.4027 0.4441
C100 C 0.7370(14) 0.2966(13) 0.4686(8)
H87 H 0.7315 0.3259 0.4976
H88 H 0.6766 0.2591 0.4597
C101 C 0.8147(10) 0.2586(9) 0.4714(5)
H89 H 0.8394 0.2612 0.5027
H90 H 0.7950 0.2044 0.4582
C102 C 0.9760(8) 0.2780(7) 0.4413(6)
H91 H 1.0038 0.2978 0.4152
H92 H 0.9660 0.2222 0.4374
H93 H 1.0191 0.2993 0.4679
O32 O 0.9044(5) 0.3907(4) 0.4006(2)
C103 C 1.7575(7) 0.7554(6) 0.4008(4)
C104 C 1.6832(8) 0.7752(6) 0.4242(4)
H94 H 1.6238 0.7636 0.4046
H95 H 1.6985 0.8303 0.4355
C105 C 1.6723(11) 0.7277(8) 0.4628(5)
H96 H 1.6567 0.7579 0.4897
H97 H 1.6214 0.6812 0.4549
C106 C 1.8874(11) 0.7011(8) 0.4242(5)
H98 H 1.8886 0.6604 0.4001
H99 H 1.8976 0.6831 0.4529
H100 H 1.9376 0.7457 0.4216
O33 O 1.8108(13) 0.7782(10) 0.3624(6)
N10 N 1.7997(14) 0.7213(10) 0.4215(6)
C107 C 1.7552(15) 0.7095(12) 0.4698(7)
H101 H 1.7476 0.6561 0.4759
H102 H 1.7948 0.7442 0.4946
loop_
_geom_bond_atom_site_label_1
_geom_bond_atom_site_label_2
_geom_bond_site_symmetry_1
_geom_bond_site_symmetry_2
Cu1 N2 1_555 1_555
O1 C4 1_555 1_555
N1 C26 1_555 1_555
C1 C2 1_555 1_555
Cu2 N6 1_555 1_555
S1 O23 1_555 1_555
O2 C3 1_555 1_555
N2 C33 1_555 1_555
C2 H1 1_555 1_555
S2 O26 1_555 1_555
O3 C23 1_555 1_555
N3 C40 1_555 1_555
C3 C2 1_555 1_555
F1 C91 1_555 1_555
O4 C18 1_555 1_555
N4 Cu1 1_555 1_555
C4 C3 1_555 1_555
F2 C91 1_555 1_555
O5 C17 1_555 1_555
N5 C75 1_555 1_555
C5 C4 1_555 1_555
H2 C5 1_555 1_555
F3 C91 1_555 1_555
O6 C37 1_555 1_555
N6 C82 1_555 1_555
C6 C1 1_555 1_555
F4 C90 1_555 1_555
O7 C11 1_555 1_555
N7 C85 1_555 1_555
C7 C6 1_555 1_555
H3 C7 1_555 1_555
H4 C7 1_555 1_555
F5 C90 1_555 1_555
O8 C10 1_555 1_555
N8 C92 1_555 1_555
C8 C7 1_555 1_555
F6 C90 1_555 1_555
O9 C30 1_555 1_555
C9 C8 1_555 1_555
H5 C9 1_555 1_555
O10 Cu1 1_555 1_555
C10 C9 1_555 1_555
O11 Cu1 1_555 1_555
C11 C10 1_555 1_555
O12 C45 1_555 1_555
C12 C11 1_555 1_555
H6 C12 1_555 1_555
O13 C46 1_555 1_555
C13 C8 1_555 1_555
O14 C65 1_555 1_555
C14 C13 1_555 1_555
H7 C14 1_555 1_555
H8 C14 1_555 1_555
O15 C52 1_555 1_555
C15 C14 1_555 1_555
O16 C53 1_555 1_555
C16 C15 1_555 1_555
H9 C16 1_555 1_555
O17 C72 1_555 1_555
C17 C16 1_555 1_555
O18 C59 1_555 1_555
C18 C17 1_555 1_555
O19 C60 1_555 1_555
C19 C18 1_555 1_555
H10 C19 1_555 1_555
O20 C79 1_555 1_555
C20 C15 1_555 1_555
O21 Cu2 1_555 1_555
C21 C1 1_555 1_555
H11 C21 1_555 1_555
H12 C21 1_555 1_555
O22 Cu2 1_555 1_555
C22 O1 1_555 1_555
H13 C22 1_555 1_555
H14 C22 1_555 1_555
H15 C22 1_555 1_555
C23 O2 1_555 1_555
C24 C23 1_555 1_555
C25 C24 1_555 1_555
H16 C25 1_555 1_555
O23 Cu2 1_555 1_555
C26 C25 1_555 1_555
H17 C26 1_555 1_555
O24 S1 1_555 1_555
C27 N1 1_555 1_555
H18 C27 1_555 1_555
O25 S1 1_555 1_555
C28 C24 1_555 1_555
H19 C28 1_555 1_555
O26 Cu2 1_555 1_555
C29 O7 1_555 1_555
H20 C29 1_555 1_555
H21 C29 1_555 1_555
H22 C29 1_555 1_555
O27 S2 1_555 1_555
C30 O8 1_555 1_555
O28 S2 1_555 1_555
C31 C30 1_555 1_555
C32 C31 1_555 1_555
H23 C32 1_555 1_555
C33 C32 1_555 1_555
H24 C33 1_555 1_555
C34 N2 1_555 1_555
H25 C34 1_555 1_555
C35 C31 1_555 1_555
H26 C35 1_555 1_555
C36 O4 1_555 1_555
H27 C36 1_555 1_555
H28 C36 1_555 1_555
H29 C36 1_555 1_555
C37 O5 1_555 1_555
C38 C37 1_555 1_555
C39 C38 1_555 1_555
H30 C39 1_555 1_555
C40 C39 1_555 1_555
H31 C40 1_555 1_555
C41 N3 1_555 1_555
H32 C41 1_555 1_555
C42 C38 1_555 1_555
H33 C42 1_555 1_555
C43 C44 1_555 1_555
C44 H34 1_555 1_555
C45 C44 1_555 1_555
C46 C45 1_555 1_555
C47 C46 1_555 1_555
H35 C47 1_555 1_555
C48 C43 1_555 1_555
C49 C48 1_555 1_555
H36 C49 1_555 1_555
H37 C49 1_555 1_555
C50 C49 1_555 1_555
C51 C50 1_555 1_555
H38 C51 1_555 1_555
C52 C51 1_555 1_555
C53 C52 1_555 1_555
C54 C53 1_555 1_555
H39 C54 1_555 1_555
C55 C50 1_555 1_555
C56 C55 1_555 1_555
H40 C56 1_555 1_555
H41 C56 1_555 1_555
C57 C56 1_555 1_555
C58 C57 1_555 1_555
H42 C58 1_555 1_555
C59 C58 1_555 1_555
C60 C59 1_555 1_555
C61 C60 1_555 1_555
H43 C61 1_555 1_555
C62 C57 1_555 1_555
C63 C43 1_555 1_555
H44 C63 1_555 1_555
H45 C63 1_555 1_555
C64 O12 1_555 1_555
H46 C64 1_555 1_555
H47 C64 1_555 1_555
H48 C64 1_555 1_555
C65 O13 1_555 1_555
C66 C65 1_555 1_555
C67 C66 1_555 1_555
H49 C67 1_555 1_555
C68 N4 1_555 1_555
H50 C68 1_555 1_555
C69 N4 1_555 1_555
H51 C69 1_555 1_555
C70 C66 1_555 1_555
H52 C70 1_555 1_555
C71 O15 1_555 1_555
H53 C71 1_555 1_555
H54 C71 1_555 1_555
H55 C71 1_555 1_555
C72 O16 1_555 1_555
C73 C72 1_555 1_555
C74 C73 1_555 1_555
H56 C74 1_555 1_555
C75 C74 1_555 1_555
H57 C75 1_555 1_555
C76 N5 1_555 1_555
H58 C76 1_555 1_555
C77 C73 1_555 1_555
H59 C77 1_555 1_555
C78 O18 1_555 1_555
H60 C78 1_555 1_555
H61 C78 1_555 1_555
H62 C78 1_555 1_555
C79 O19 1_555 1_555
C80 C79 1_555 1_555
C81 C80 1_555 1_555
H63 C81 1_555 1_555
C82 C81 1_555 1_555
H64 C82 1_555 1_555
C83 N6 1_555 1_555
H65 C83 1_555 1_555
C84 C80 1_555 1_555
H66 C84 1_555 1_555
C85 O21 1_555 1_555
C86 C85 1_555 1_555
H67 C86 1_555 1_555
H68 C86 1_555 1_555
C87 C86 1_555 1_555
H69 C87 1_555 1_555
H70 C87 1_555 1_555
C88 N7 1_555 1_555
H71 C88 1_555 1_555
H72 C88 1_555 1_555
C89 N7 1_555 1_555
H73 C89 1_555 1_555
H74 C89 1_555 1_555
H75 C89 1_555 1_555
C90 S2 1_555 1_555
C91 S1 1_555 1_555
C92 O22 1_555 1_555
C93 C92 1_555 1_555
H76 C93 1_555 1_555
H77 C93 1_555 1_555
C94 C93 1_555 1_555
H78 C94 1_555 1_555
H79 C94 1_555 1_555
C95 N8 1_555 1_555
H80 C95 1_555 1_555
H81 C95 1_555 1_555
C96 N8 1_555 1_555
H82 C96 1_555 1_555
H83 C96 1_555 1_555
H84 C96 1_555 1_555
S3 O29 1_555 1_555
F7 C97 1_555 1_555
F8 C97 1_555 1_555
F9 C97 1_555 1_555
O30 S3 1_555 1_555
O31 S3 1_555 1_555
C97 S3 1_555 1_555
N9 C98 1_555 1_555
C98 C99 1_555 1_555
C99 H85 1_555 1_555
H86 C99 1_555 1_555
C100 C99 1_555 1_555
H87 C100 1_555 1_555
H88 C100 1_555 1_555
C101 N9 1_555 1_555
H89 C101 1_555 1_555
H90 C101 1_555 1_555
C102 N9 1_555 1_555
H91 C102 1_555 1_555
H92 C102 1_555 1_555
H93 C102 1_555 1_555
O32 C98 1_555 1_555
C103 C104 1_555 1_555
C104 H94 1_555 1_555
H95 C104 1_555 1_555
C105 C104 1_555 1_555
H96 C105 1_555 1_555
H97 C105 1_555 1_555
C106 H98 1_555 1_555
H99 C106 1_555 1_555
H100 C106 1_555 1_555
O33 C103 1_555 1_555
N10 C103 1_555 1_555
C107 C105 1_555 1_555
H101 C107 1_555 1_555
H102 C107 1_555 1_555
Cu1_2 N3 1_555 1_555
Cu1A N5 1_555 1_555
N1A Cu2 1_555 1_555
Cu2A N1 1_555 1_555
N3_2 Cu1 1_555 1_555
N5A Cu1 1_555 1_555
C5 C6 1_555 1_555
C12 C13 1_555 1_555
C19 C20 1_555 1_555
C20 C21 1_555 1_555
C27 C28 1_555 1_555
C34 C35 1_555 1_555
C41 C42 1_555 1_555
C47 C48 1_555 1_555
C54 C55 1_555 1_555
C61 C62 1_555 1_555
C62 C63 1_555 1_555
C67 C68 1_555 1_555
C69 C70 1_555 1_555
C76 C77 1_555 1_555
C83 C84 1_555 1_555
C87 C88 1_555 1_555
C94 C95 1_555 1_555
C100 C101 1_555 1_555
C106 N10 1_555 1_555
N10 C107 1_555 1_555

#END
