
#######################################################################
#
#                 Cambridge Crystallographic Data Centre
#                                CCDC 
#
#######################################################################
#
# If this CIF has been generated from an entry in the Cambridge 
# Structural Database, then it will include bibliographic, chemical, 
# crystal, experimental, refinement or atomic coordinate data resulting 
# from the CCDC's data processing and validation procedures.
#
#######################################################################

data_CUQSEO
_symmetry_cell_setting           monoclinic
_symmetry_space_group_name_H-M   'C 2/c'
_symmetry_Int_Tables_number      15
_space_group_name_Hall           '-C 2yn'
loop_
_symmetry_equiv_pos_site_id
_symmetry_equiv_pos_as_xyz
1 x,y,z
2 -x,y,1/2-z
3 1/2+x,1/2+y,z
4 1/2-x,1/2+y,1/2-z
5 -x,-y,-z
6 x,-y,1/2+z
7 1/2-x,1/2-y,-z
8 1/2+x,1/2-y,1/2+z
_cell_length_a                   57.029(2)
_cell_length_b                   34.131(3)
_cell_length_c                   24.4704(6)
_cell_angle_alpha                90
_cell_angle_beta                 95.496(2)
_cell_angle_gamma                90
_cell_volume                     47411.6
loop_
_atom_site_label
_atom_site_type_symbol
_atom_site_fract_x
_atom_site_fract_y
_atom_site_fract_z
Cu1 Cu 0.217143(14) -0.13431(2) 0.27670(3)
Cu2 Cu 0.0000 0.20725(5) 0.2500
O1 O 0.22476(8) 0.07326(13) 0.1015(2)
O2 O 0.19120(7) 0.02132(13) 0.10288(19)
O3 O 0.15740(8) 0.27882(13) 0.05673(19)
O4 O 0.20092(8) 0.25745(10) 0.06363(15)
O5 O 0.08192(9) 0.07072(16) 0.0685(2)
O6 O 0.07220(7) 0.14467(16) 0.0627(2)
O7 O 0.13945(7) 0.03128(10) 0.44090(14)
O8 O 0.18365(6) 0.01722(11) 0.43747(13)
O9 O 0.25912(7) 0.16281(12) 0.41643(16)
O10 O 0.24408(6) 0.23542(12) 0.41156(15)
O11 O 0.13080(7) 0.27060(17) 0.4172(2)
O12 O 0.10052(8) 0.21553(13) 0.42888(18)
O13 O 0.18188(7) -0.16865(11) 0.28049(14)
O14 O 0.0000 0.2778(2) 0.2500
N1 N 0.20278(11) -0.09489(15) 0.22261(18)
N2 N 0.26472(12) 0.32640(14) 0.17211(19)
N3 N 0.02350(9) 0.2035(2) 0.1960(3)
N4 N 0.21292(10) -0.09620(13) 0.33731(19)
N5 N 0.27011(9) 0.33772(15) 0.28573(18)
N6 N 0.02537(9) 0.2034(2) 0.3111(3)
C1 C 0.16664(10) 0.08053(18) -0.0160(2)
C2 C 0.16913(11) 0.05101(16) 0.0244(3)
H1 H 0.1570 0.0320 0.0250
C3 C 0.18779(13) 0.04824(19) 0.0621(2)
C4 C 0.20612(12) 0.0764(2) 0.0591(2)
C5 C 0.20469(10) 0.10552(17) 0.0200(3)
H2 H 0.2172 0.1238 0.0185
C6 C 0.18546(12) 0.10774(16) -0.0161(2)
C7 C 0.18401(9) 0.14240(16) -0.0572(2)
H3 H 0.1998 0.1475 -0.0695
H4 H 0.1731 0.1357 -0.0898
C8 C 0.17550(11) 0.17780(17) -0.0308(2)
C9 C 0.19204(10) 0.20066(19) 0.0024(2)
H5 H 0.2081 0.1928 0.0066
C10 C 0.18522(13) 0.23521(19) 0.0297(2)
C11 C 0.16210(15) 0.24404(19) 0.0261(2)
C12 C 0.14503(12) 0.2236(2) -0.0055(2)
H6 H 0.1291 0.2319 -0.0082
C13 C 0.15162(11) 0.1902(2) -0.0335(2)
C14 C 0.13224(10) 0.16812(15) -0.0679(2)
H7 H 0.1211 0.1872 -0.0865
H8 H 0.1393 0.1529 -0.0966
C15 C 0.11896(10) 0.1408(2) -0.0341(2)
C16 C 0.10121(10) 0.15700(17) -0.0047(3)
H9 H 0.0974 0.1841 -0.0079
C17 C 0.08930(12) 0.1327(3) 0.0291(3)
C18 C 0.09475(13) 0.0905(2) 0.0326(3)
C19 C 0.11160(13) 0.07645(18) 0.0047(3)
H10 H 0.1149 0.0492 0.0078
C20 C 0.12506(10) 0.0988(2) -0.0293(2)
C21 C 0.14405(9) 0.08065(15) -0.0550(2)
H11 H 0.1468 0.0951 -0.0889
H12 H 0.1397 0.0534 -0.0654
C22 C 0.24437(14) 0.1007(2) 0.1004(3)
H13 H 0.2394 0.1267 0.1121
H14 H 0.2491 0.1024 0.0630
H15 H 0.2577 0.0916 0.1253
C23 C 0.17395(10) -0.00816(17) 0.1070(2)
H16 H 0.1701 -0.0209 0.0709
H17 H 0.1594 0.0035 0.1187
C24 C 0.18365(11) -0.0374(2) 0.1480(2)
C25 C 0.17127(10) -0.07012(19) 0.1565(2)
H18 H 0.1559 -0.0735 0.1384
C26 C 0.18141(14) -0.09977(18) 0.1927(3)
H19 H 0.1731 -0.1236 0.1961
C27 C 0.21470(11) -0.0620(2) 0.2150(2)
H20 H 0.2297 -0.0592 0.2352
C28 C 0.20691(12) -0.03048(19) 0.1792(2)
H21 H 0.2158 -0.0073 0.1756
C29 C 0.13283(13) 0.2898(2) 0.0547(4)
H22 H 0.1243 0.2705 0.0750
H23 H 0.1260 0.2907 0.0164
H24 H 0.1315 0.3157 0.0715
C30 C 0.22567(11) 0.24874(16) 0.0621(2)
H25 H 0.2303 0.2521 0.0244
H26 H 0.2291 0.2214 0.0740
C31 C 0.23901(12) 0.27734(18) 0.1012(2)
C32 C 0.22845(11) 0.30358(19) 0.1340(3)
H27 H 0.2118 0.3051 0.1316
C33 C 0.24138(14) 0.32716(17) 0.1694(2)
H28 H 0.2337 0.3444 0.1926
C34 C 0.27619(11) 0.30196(17) 0.1395(2)
H29 H 0.2929 0.3024 0.1405
C35 C 0.26314(12) 0.27675(17) 0.1053(2)
H30 H 0.2710 0.2585 0.0840
C36 C 0.08687(16) 0.0299(3) 0.0749(4)
H31 H 0.1008 0.0263 0.1013
H32 H 0.0899 0.0187 0.0394
H33 H 0.0733 0.0167 0.0885
C37 C 0.06998(11) 0.1874(2) 0.0668(3)
H34 H 0.0628 0.1988 0.0318
H35 H 0.0855 0.1998 0.0766
C38 C 0.05432(12) 0.1926(2) 0.1112(3)
C39 C 0.03992(14) 0.2240(2) 0.1102(3)
H36 H 0.0398 0.2419 0.0805
C40 C 0.02462(12) 0.2311(3) 0.1528(4)
H37 H 0.0153 0.2542 0.1519
C41 C 0.03874(15) 0.1725(3) 0.1967(3)
H38 H 0.0388 0.1540 0.2258
C42 C 0.05404(13) 0.1670(2) 0.1570(4)
H39 H 0.0647 0.1455 0.1603
C43 C 0.16433(11) 0.11113(15) 0.53235(18)
C44 C 0.14686(10) 0.08720(17) 0.5029(2)
H40 H 0.1306 0.0920 0.5048
C45 C 0.15462(11) 0.05576(17) 0.4704(2)
C46 C 0.17902(11) 0.04861(16) 0.4700(2)
C47 C 0.19447(9) 0.07134(17) 0.4991(2)
H41 H 0.2108 0.0661 0.4981
C48 C 0.18776(9) 0.10321(15) 0.53173(19)
C49 C 0.20740(9) 0.12799(14) 0.5603(2)
H42 H 0.2204 0.1105 0.5745
H43 H 0.2014 0.1413 0.5920
C50 C 0.21708(9) 0.15873(17) 0.5232(2)
C51 C 0.23308(10) 0.14697(16) 0.4885(2)
H44 H 0.2381 0.1204 0.4894
C52 C 0.24220(10) 0.1728(2) 0.4519(2)
C53 C 0.23393(11) 0.2111(2) 0.4491(2)
C54 C 0.21807(9) 0.22348(16) 0.4849(2)
H45 H 0.2134 0.2502 0.4848
C55 C 0.20866(9) 0.19719(17) 0.5212(2)
C56 C 0.18985(10) 0.21330(15) 0.5545(2)
H46 H 0.1935 0.2409 0.5641
H47 H 0.1899 0.1983 0.5891
C57 C 0.16515(9) 0.21108(18) 0.5230(2)
C58 C 0.15883(12) 0.24182(18) 0.4878(3)
H48 H 0.1691 0.2638 0.4872
C59 C 0.13731(13) 0.2416(2) 0.4523(3)
C60 C 0.12196(12) 0.2131(2) 0.4594(3)
C61 C 0.12860(11) 0.18292(17) 0.4973(3)
H49 H 0.1178 0.1621 0.5007
C62 C 0.14928(11) 0.18158(17) 0.5291(2)
C63 C 0.15424(9) 0.14538(16) 0.5633(2)
H50 H 0.1394 0.1367 0.5776
H51 H 0.1655 0.1521 0.5951
C64 C 0.11443(10) 0.03573(17) 0.4453(3)
H52 H 0.1096 0.0625 0.4352
H53 H 0.1111 0.0305 0.4832
H54 H 0.1057 0.0172 0.4206
C65 C 0.20762(9) 0.00172(18) 0.4436(2)
H55 H 0.2189 0.0218 0.4331
H56 H 0.2121 -0.0059 0.4822
C66 C 0.20804(11) -0.03189(16) 0.4082(2)
C67 C 0.23030(11) -0.05301(18) 0.4092(2)
H57 H 0.2436 -0.0457 0.4334
C68 C 0.23129(11) -0.08442(18) 0.3730(3)
H58 H 0.2457 -0.0984 0.3733
C69 C 0.19304(11) -0.0747(2) 0.3396(2)
H59 H 0.1799 -0.0822 0.3151
C70 C 0.18973(10) -0.04422(16) 0.3722(2)
H60 H 0.1749 -0.0313 0.3704
C71 C 0.26386(15) 0.12176(19) 0.4073(3)
H61 H 0.2490 0.1078 0.3982
H62 H 0.2721 0.1105 0.4407
H63 H 0.2738 0.1192 0.3770
C72 C 0.23579(8) 0.27540(14) 0.4086(2)
H64 H 0.2388 0.2881 0.4450
H65 H 0.2186 0.2760 0.3977
C73 C 0.24852(11) 0.2965(2) 0.3675(2)
C74 C 0.26573(10) 0.27745(18) 0.3356(3)
H66 H 0.2697 0.2507 0.3420
C75 C 0.27633(10) 0.2987(2) 0.2953(2)
H67 H 0.2877 0.2866 0.2749
C76 C 0.25472(12) 0.35445(16) 0.3148(3)
H68 H 0.2512 0.3813 0.3082
C77 C 0.24301(10) 0.3348(2) 0.3557(2)
H69 H 0.2315 0.3480 0.3745
C78 C 0.14715(14) 0.3025(2) 0.4113(4)
H70 H 0.1610 0.2926 0.3947
H71 H 0.1521 0.3136 0.4474
H72 H 0.1394 0.3228 0.3876
C79 C 0.08349(11) 0.18440(19) 0.4335(3)
H73 H 0.0780 0.1843 0.4707
H74 H 0.0907 0.1586 0.4270
C80 C 0.06362(11) 0.1921(2) 0.3916(3)
C81 C 0.06360(10) 0.2258(2) 0.3578(3)
H75 H 0.0758 0.2449 0.3616
C82 C 0.04289(15) 0.2289(2) 0.3156(3)
H76 H 0.0423 0.2503 0.2908
C83 C 0.02563(11) 0.1749(3) 0.3467(4)
H77 H 0.0124 0.1580 0.3455
C84 C 0.04469(15) 0.1679(2) 0.3869(3)
H78 H 0.0442 0.1461 0.4109
Cu1A Cu -0.217143(14) -0.13431(2) 0.22330(3)
O1A O -0.22476(8) 0.07326(13) 0.3985(2)
O2A O -0.19120(7) 0.02132(13) 0.39712(19)
O3A O -0.15740(8) 0.27882(13) 0.44327(19)
O4A O -0.20092(8) 0.25745(10) 0.43637(15)
O5A O -0.08192(9) 0.07072(16) 0.4315(2)
O6A O -0.07220(7) 0.14467(16) 0.4373(2)
O7A O -0.13945(7) 0.03128(10) 0.05910(14)
O8A O -0.18365(6) 0.01722(11) 0.06253(13)
O9A O -0.25912(7) 0.16281(12) 0.08357(16)
O10A O -0.24408(6) 0.23542(12) 0.08844(15)
O11A O -0.13080(7) 0.27060(17) 0.0828(2)
O12A O -0.10052(8) 0.21553(13) 0.07112(18)
O13A O -0.18188(7) -0.16865(11) 0.21951(14)
N1A N -0.20278(11) -0.09489(15) 0.27739(18)
N2A N -0.26472(12) 0.32640(14) 0.32789(19)
N3A N -0.02350(9) 0.2035(2) 0.3040(3)
N4A N -0.21292(10) -0.09620(13) 0.16269(19)
N5A N -0.27011(9) 0.33772(15) 0.21427(18)
N6A N -0.02537(9) 0.2034(2) 0.1889(3)
C1A C -0.16664(10) 0.08053(18) 0.5160(2)
C2A C -0.16913(11) 0.05101(16) 0.4756(3)
H1A H -0.1570 0.0320 0.4750
C3A C -0.18779(13) 0.04824(19) 0.4379(2)
C4A C -0.20612(12) 0.0764(2) 0.4409(2)
C5A C -0.20469(10) 0.10552(17) 0.4800(3)
H2A H -0.2172 0.1238 0.4815
C6A C -0.18546(12) 0.10774(16) 0.5161(2)
C7A C -0.18401(9) 0.14240(16) 0.5572(2)
H3A H -0.1998 0.1475 0.5695
H4A H -0.1731 0.1357 0.5898
C8A C -0.17550(11) 0.17780(17) 0.5308(2)
C9A C -0.19204(10) 0.20066(19) 0.4976(2)
H5A H -0.2081 0.1928 0.4934
C10A C -0.18522(13) 0.23521(19) 0.4703(2)
C11A C -0.16210(15) 0.24404(19) 0.4739(2)
C12A C -0.14503(12) 0.2236(2) 0.5055(2)
H6A H -0.1291 0.2319 0.5082
C13A C -0.15162(11) 0.1902(2) 0.5335(2)
C14A C -0.13224(10) 0.16812(15) 0.5679(2)
H7A H -0.1211 0.1872 0.5865
H8A H -0.1393 0.1529 0.5966
C15A C -0.11896(10) 0.1408(2) 0.5341(2)
C16A C -0.10121(10) 0.15700(17) 0.5047(3)
H9A H -0.0974 0.1841 0.5079
C17A C -0.08930(12) 0.1327(3) 0.4709(3)
C18A C -0.09475(13) 0.0905(2) 0.4674(3)
C19A C -0.11160(13) 0.07645(18) 0.4953(3)
H10A H -0.1149 0.0492 0.4922
C20A C -0.12506(10) 0.0988(2) 0.5293(2)
C21A C -0.14405(9) 0.08065(15) 0.5550(2)
H11A H -0.1468 0.0951 0.5889
H12A H -0.1397 0.0534 0.5654
C22A C -0.24437(14) 0.1007(2) 0.3996(3)
H13A H -0.2394 0.1267 0.3879
H14A H -0.2491 0.1024 0.4370
H15A H -0.2577 0.0916 0.3747
C23A C -0.17395(10) -0.00816(17) 0.3930(2)
H16A H -0.1701 -0.0209 0.4291
H17A H -0.1594 0.0035 0.3813
C24A C -0.18365(11) -0.0374(2) 0.3520(2)
C25A C -0.17127(10) -0.07012(19) 0.3435(2)
H18A H -0.1559 -0.0735 0.3616
C26A C -0.18141(14) -0.09977(18) 0.3073(3)
H19A H -0.1731 -0.1236 0.3039
C27A C -0.21470(11) -0.0620(2) 0.2850(2)
H20A H -0.2297 -0.0592 0.2648
C28A C -0.20691(12) -0.03048(19) 0.3208(2)
H21A H -0.2158 -0.0073 0.3244
C29A C -0.13283(13) 0.2898(2) 0.4453(4)
H22A H -0.1243 0.2705 0.4250
H23A H -0.1260 0.2907 0.4836
H24A H -0.1315 0.3157 0.4285
C30A C -0.22567(11) 0.24874(16) 0.4379(2)
H25A H -0.2303 0.2521 0.4756
H26A H -0.2291 0.2214 0.4260
C31A C -0.23901(12) 0.27734(18) 0.3988(2)
C32A C -0.22845(11) 0.30358(19) 0.3660(3)
H27A H -0.2118 0.3051 0.3684
C33A C -0.24138(14) 0.32716(17) 0.3306(2)
H28A H -0.2337 0.3444 0.3074
C34A C -0.27619(11) 0.30196(17) 0.3605(2)
H29A H -0.2929 0.3024 0.3595
C35A C -0.26314(12) 0.27675(17) 0.3947(2)
H30A H -0.2710 0.2585 0.4160
C36A C -0.08687(16) 0.0299(3) 0.4251(4)
H31A H -0.1008 0.0263 0.3987
H32A H -0.0899 0.0187 0.4606
H33A H -0.0733 0.0167 0.4115
C37A C -0.06998(11) 0.1874(2) 0.4332(3)
H34A H -0.0628 0.1988 0.4682
H35A H -0.0855 0.1998 0.4234
C38A C -0.05432(12) 0.1926(2) 0.3888(3)
C39A C -0.03992(14) 0.2240(2) 0.3898(3)
H36A H -0.0398 0.2419 0.4195
C40A C -0.02462(12) 0.2311(3) 0.3472(4)
H37A H -0.0153 0.2542 0.3481
C41A C -0.03874(15) 0.1725(3) 0.3033(3)
H38A H -0.0388 0.1540 0.2742
C42A C -0.05404(13) 0.1670(2) 0.3430(4)
H39A H -0.0647 0.1455 0.3397
C43A C -0.16433(11) 0.11113(15) -0.03235(18)
C44A C -0.14686(10) 0.08720(17) -0.0029(2)
H40A H -0.1306 0.0920 -0.0048
C45A C -0.15462(11) 0.05576(17) 0.0296(2)
C46A C -0.17902(11) 0.04861(16) 0.0300(2)
C47A C -0.19447(9) 0.07134(17) 0.0009(2)
H41A H -0.2108 0.0661 0.0019
C48A C -0.18776(9) 0.10321(15) -0.03173(19)
C49A C -0.20740(9) 0.12799(14) -0.0603(2)
H42A H -0.2204 0.1105 -0.0745
H43A H -0.2014 0.1413 -0.0920
C50A C -0.21708(9) 0.15873(17) -0.0232(2)
C51A C -0.23308(10) 0.14697(16) 0.0115(2)
H44A H -0.2381 0.1204 0.0106
C52A C -0.24220(10) 0.1728(2) 0.0481(2)
C53A C -0.23393(11) 0.2111(2) 0.0509(2)
C54A C -0.21807(9) 0.22348(16) 0.0151(2)
H45A H -0.2134 0.2502 0.0152
C55A C -0.20866(9) 0.19719(17) -0.0212(2)
C56A C -0.18985(10) 0.21330(15) -0.0545(2)
H46A H -0.1935 0.2409 -0.0641
H47A H -0.1899 0.1983 -0.0891
C57A C -0.16515(9) 0.21108(18) -0.0230(2)
C58A C -0.15883(12) 0.24182(18) 0.0122(3)
H48A H -0.1691 0.2638 0.0128
C59A C -0.13731(13) 0.2416(2) 0.0477(3)
C60A C -0.12196(12) 0.2131(2) 0.0406(3)
C61A C -0.12860(11) 0.18292(17) 0.0027(3)
H49A H -0.1178 0.1621 -0.0007
C62A C -0.14928(11) 0.18158(17) -0.0291(2)
C63A C -0.15424(9) 0.14538(16) -0.0633(2)
H50A H -0.1394 0.1367 -0.0776
H51A H -0.1655 0.1521 -0.0951
C64A C -0.11443(10) 0.03573(17) 0.0547(3)
H52A H -0.1096 0.0625 0.0648
H53A H -0.1111 0.0305 0.0168
H54A H -0.1057 0.0172 0.0794
C65A C -0.20762(9) 0.00172(18) 0.0564(2)
H55A H -0.2189 0.0218 0.0669
H56A H -0.2121 -0.0059 0.0178
C66A C -0.20804(11) -0.03189(16) 0.0918(2)
C67A C -0.23030(11) -0.05301(18) 0.0908(2)
H57A H -0.2436 -0.0457 0.0666
C68A C -0.23129(11) -0.08442(18) 0.1270(3)
H58A H -0.2457 -0.0984 0.1267
C69A C -0.19304(11) -0.0747(2) 0.1604(2)
H59A H -0.1799 -0.0822 0.1849
C70A C -0.18973(10) -0.04422(16) 0.1278(2)
H60A H -0.1749 -0.0313 0.1296
C71A C -0.26386(15) 0.12176(19) 0.0927(3)
H61A H -0.2490 0.1078 0.1018
H62A H -0.2721 0.1105 0.0593
H63A H -0.2738 0.1192 0.1230
C72A C -0.23579(8) 0.27540(14) 0.0914(2)
H64A H -0.2388 0.2881 0.0550
H65A H -0.2186 0.2760 0.1023
C73A C -0.24852(11) 0.2965(2) 0.1325(2)
C74A C -0.26573(10) 0.27745(18) 0.1644(3)
H66A H -0.2697 0.2507 0.1580
C75A C -0.27633(10) 0.2987(2) 0.2047(2)
H67A H -0.2877 0.2866 0.2251
C76A C -0.25472(12) 0.35445(16) 0.1852(3)
H68A H -0.2512 0.3813 0.1918
C77A C -0.24301(10) 0.3348(2) 0.1443(2)
H69A H -0.2315 0.3480 0.1255
C78A C -0.14715(14) 0.3025(2) 0.0887(4)
H70A H -0.1610 0.2926 0.1053
H71A H -0.1521 0.3136 0.0526
H72A H -0.1394 0.3228 0.1124
C79A C -0.08349(11) 0.18440(19) 0.0665(3)
H73A H -0.0780 0.1843 0.0293
H74A H -0.0907 0.1586 0.0730
C80A C -0.06362(11) 0.1921(2) 0.1084(3)
C81A C -0.06360(10) 0.2258(2) 0.1422(3)
H75A H -0.0758 0.2449 0.1384
C82A C -0.04289(15) 0.2289(2) 0.1844(3)
H76A H -0.0423 0.2503 0.2092
C83A C -0.02563(11) 0.1749(3) 0.1533(4)
H77A H -0.0124 0.1580 0.1545
C84A C -0.04469(15) 0.1679(2) 0.1131(3)
H78A H -0.0442 0.1461 0.0891
Cu1B Cu -0.282857(14) 0.36569(2) 0.27670(3)
Cu1C Cu 0.282857(14) 0.36569(2) 0.22330(3)
N2B N -0.23528(12) -0.17360(14) 0.17211(19)
N2C N 0.23528(12) -0.17360(14) 0.32789(19)
N5B N -0.22989(9) -0.16228(15) 0.28573(18)
N5C N 0.22989(9) -0.16228(15) 0.21427(18)
loop_
_geom_bond_atom_site_label_1
_geom_bond_atom_site_label_2
_geom_bond_site_symmetry_1
_geom_bond_site_symmetry_2
Cu1 O13 1_555 1_555
Cu2 O14 1_555 1_555
O1 C4 1_555 1_555
O2 C3 1_555 1_555
O3 C11 1_555 1_555
O4 C10 1_555 1_555
O5 C18 1_555 1_555
O6 C17 1_555 1_555
O7 C45 1_555 1_555
O8 C46 1_555 1_555
O9 C52 1_555 1_555
O10 C53 1_555 1_555
O11 C59 1_555 1_555
O12 C60 1_555 1_555
N1 Cu1 1_555 1_555
N2 C33 1_555 1_555
N3 Cu2 1_555 1_555
N4 Cu1 1_555 1_555
N5 C75 1_555 1_555
N6 Cu2 1_555 1_555
C1 C2 1_555 1_555
C2 H1 1_555 1_555
C3 C2 1_555 1_555
C4 C3 1_555 1_555
C5 C4 1_555 1_555
H2 C5 1_555 1_555
C6 C1 1_555 1_555
C7 C6 1_555 1_555
H3 C7 1_555 1_555
H4 C7 1_555 1_555
C8 C7 1_555 1_555
C9 C8 1_555 1_555
H5 C9 1_555 1_555
C10 C9 1_555 1_555
C11 C10 1_555 1_555
C12 C11 1_555 1_555
H6 C12 1_555 1_555
C13 C8 1_555 1_555
C14 C13 1_555 1_555
H7 C14 1_555 1_555
H8 C14 1_555 1_555
C15 C14 1_555 1_555
C16 C15 1_555 1_555
H9 C16 1_555 1_555
C17 C16 1_555 1_555
C18 C17 1_555 1_555
C19 C18 1_555 1_555
H10 C19 1_555 1_555
C20 C15 1_555 1_555
C21 C1 1_555 1_555
H11 C21 1_555 1_555
H12 C21 1_555 1_555
C22 O1 1_555 1_555
H13 C22 1_555 1_555
H14 C22 1_555 1_555
H15 C22 1_555 1_555
C23 O2 1_555 1_555
H16 C23 1_555 1_555
H17 C23 1_555 1_555
C24 C23 1_555 1_555
C25 C24 1_555 1_555
H18 C25 1_555 1_555
C26 N1 1_555 1_555
H19 C26 1_555 1_555
C27 N1 1_555 1_555
H20 C27 1_555 1_555
C28 C24 1_555 1_555
H21 C28 1_555 1_555
C29 O3 1_555 1_555
H22 C29 1_555 1_555
H23 C29 1_555 1_555
H24 C29 1_555 1_555
C30 O4 1_555 1_555
H25 C30 1_555 1_555
H26 C30 1_555 1_555
C31 C30 1_555 1_555
C32 C31 1_555 1_555
H27 C32 1_555 1_555
C33 C32 1_555 1_555
H28 C33 1_555 1_555
C34 N2 1_555 1_555
H29 C34 1_555 1_555
C35 C31 1_555 1_555
H30 C35 1_555 1_555
C36 O5 1_555 1_555
H31 C36 1_555 1_555
H32 C36 1_555 1_555
H33 C36 1_555 1_555
C37 O6 1_555 1_555
H34 C37 1_555 1_555
H35 C37 1_555 1_555
C38 C37 1_555 1_555
C39 C38 1_555 1_555
H36 C39 1_555 1_555
C40 N3 1_555 1_555
H37 C40 1_555 1_555
C41 N3 1_555 1_555
H38 C41 1_555 1_555
C42 C38 1_555 1_555
H39 C42 1_555 1_555
C43 C44 1_555 1_555
C44 H40 1_555 1_555
C45 C44 1_555 1_555
C46 C45 1_555 1_555
C47 C46 1_555 1_555
H41 C47 1_555 1_555
C48 C43 1_555 1_555
C49 C48 1_555 1_555
H42 C49 1_555 1_555
H43 C49 1_555 1_555
C50 C49 1_555 1_555
C51 C50 1_555 1_555
H44 C51 1_555 1_555
C52 C51 1_555 1_555
C53 C52 1_555 1_555
C54 C53 1_555 1_555
H45 C54 1_555 1_555
C55 C50 1_555 1_555
C56 C55 1_555 1_555
H46 C56 1_555 1_555
H47 C56 1_555 1_555
C57 C56 1_555 1_555
C58 C57 1_555 1_555
H48 C58 1_555 1_555
C59 C58 1_555 1_555
C60 C59 1_555 1_555
C61 C60 1_555 1_555
H49 C61 1_555 1_555
C62 C57 1_555 1_555
C63 C43 1_555 1_555
H50 C63 1_555 1_555
H51 C63 1_555 1_555
C64 O7 1_555 1_555
H52 C64 1_555 1_555
H53 C64 1_555 1_555
H54 C64 1_555 1_555
C65 O8 1_555 1_555
H55 C65 1_555 1_555
H56 C65 1_555 1_555
C66 C65 1_555 1_555
C67 C66 1_555 1_555
H57 C67 1_555 1_555
C68 N4 1_555 1_555
H58 C68 1_555 1_555
C69 N4 1_555 1_555
H59 C69 1_555 1_555
C70 C66 1_555 1_555
H60 C70 1_555 1_555
C71 O9 1_555 1_555
H61 C71 1_555 1_555
H62 C71 1_555 1_555
H63 C71 1_555 1_555
C72 O10 1_555 1_555
H64 C72 1_555 1_555
H65 C72 1_555 1_555
C73 C72 1_555 1_555
C74 C73 1_555 1_555
H66 C74 1_555 1_555
C75 C74 1_555 1_555
H67 C75 1_555 1_555
C76 N5 1_555 1_555
H68 C76 1_555 1_555
C77 C73 1_555 1_555
H69 C77 1_555 1_555
C78 O11 1_555 1_555
H70 C78 1_555 1_555
H71 C78 1_555 1_555
H72 C78 1_555 1_555
C79 O12 1_555 1_555
H73 C79 1_555 1_555
H74 C79 1_555 1_555
C80 C79 1_555 1_555
C81 C80 1_555 1_555
H75 C81 1_555 1_555
C82 N6 1_555 1_555
H76 C82 1_555 1_555
C83 N6 1_555 1_555
H77 C83 1_555 1_555
C84 C80 1_555 1_555
H78 C84 1_555 1_555
Cu1A O13A 1_555 1_555
O1A C4A 1_555 1_555
O2A C3A 1_555 1_555
O3A C11A 1_555 1_555
O4A C10A 1_555 1_555
O5A C18A 1_555 1_555
O6A C17A 1_555 1_555
O7A C45A 1_555 1_555
O8A C46A 1_555 1_555
O9A C52A 1_555 1_555
O10A C53A 1_555 1_555
O11A C59A 1_555 1_555
O12A C60A 1_555 1_555
N1A Cu1A 1_555 1_555
N2A C33A 1_555 1_555
N3A Cu2 1_555 1_555
N4A Cu1A 1_555 1_555
N5A C75A 1_555 1_555
N6A Cu2 1_555 1_555
C1A C2A 1_555 1_555
C2A H1A 1_555 1_555
C3A C2A 1_555 1_555
C4A C3A 1_555 1_555
C5A C4A 1_555 1_555
H2A C5A 1_555 1_555
C6A C1A 1_555 1_555
C7A C6A 1_555 1_555
H3A C7A 1_555 1_555
H4A C7A 1_555 1_555
C8A C7A 1_555 1_555
C9A C8A 1_555 1_555
H5A C9A 1_555 1_555
C10A C9A 1_555 1_555
C11A C10A 1_555 1_555
C12A C11A 1_555 1_555
H6A C12A 1_555 1_555
C13A C8A 1_555 1_555
C14A C13A 1_555 1_555
H7A C14A 1_555 1_555
H8A C14A 1_555 1_555
C15A C14A 1_555 1_555
C16A C15A 1_555 1_555
H9A C16A 1_555 1_555
C17A C16A 1_555 1_555
C18A C17A 1_555 1_555
C19A C18A 1_555 1_555
H10A C19A 1_555 1_555
C20A C15A 1_555 1_555
C21A C1A 1_555 1_555
H11A C21A 1_555 1_555
H12A C21A 1_555 1_555
C22A O1A 1_555 1_555
H13A C22A 1_555 1_555
H14A C22A 1_555 1_555
H15A C22A 1_555 1_555
C23A O2A 1_555 1_555
H16A C23A 1_555 1_555
H17A C23A 1_555 1_555
C24A C23A 1_555 1_555
C25A C24A 1_555 1_555
H18A C25A 1_555 1_555
C26A N1A 1_555 1_555
H19A C26A 1_555 1_555
C27A N1A 1_555 1_555
H20A C27A 1_555 1_555
C28A C24A 1_555 1_555
H21A C28A 1_555 1_555
C29A O3A 1_555 1_555
H22A C29A 1_555 1_555
H23A C29A 1_555 1_555
H24A C29A 1_555 1_555
C30A O4A 1_555 1_555
H25A C30A 1_555 1_555
H26A C30A 1_555 1_555
C31A C30A 1_555 1_555
C32A C31A 1_555 1_555
H27A C32A 1_555 1_555
C33A C32A 1_555 1_555
H28A C33A 1_555 1_555
C34A N2A 1_555 1_555
H29A C34A 1_555 1_555
C35A C31A 1_555 1_555
H30A C35A 1_555 1_555
C36A O5A 1_555 1_555
H31A C36A 1_555 1_555
H32A C36A 1_555 1_555
H33A C36A 1_555 1_555
C37A O6A 1_555 1_555
H34A C37A 1_555 1_555
H35A C37A 1_555 1_555
C38A C37A 1_555 1_555
C39A C38A 1_555 1_555
H36A C39A 1_555 1_555
C40A N3A 1_555 1_555
H37A C40A 1_555 1_555
C41A N3A 1_555 1_555
H38A C41A 1_555 1_555
C42A C38A 1_555 1_555
H39A C42A 1_555 1_555
C43A C44A 1_555 1_555
C44A H40A 1_555 1_555
C45A C44A 1_555 1_555
C46A C45A 1_555 1_555
C47A C46A 1_555 1_555
H41A C47A 1_555 1_555
C48A C43A 1_555 1_555
C49A C48A 1_555 1_555
H42A C49A 1_555 1_555
H43A C49A 1_555 1_555
C50A C49A 1_555 1_555
C51A C50A 1_555 1_555
H44A C51A 1_555 1_555
C52A C51A 1_555 1_555
C53A C52A 1_555 1_555
C54A C53A 1_555 1_555
H45A C54A 1_555 1_555
C55A C50A 1_555 1_555
C56A C55A 1_555 1_555
H46A C56A 1_555 1_555
H47A C56A 1_555 1_555
C57A C56A 1_555 1_555
C58A C57A 1_555 1_555
H48A C58A 1_555 1_555
C59A C58A 1_555 1_555
C60A C59A 1_555 1_555
C61A C60A 1_555 1_555
H49A C61A 1_555 1_555
C62A C57A 1_555 1_555
C63A C43A 1_555 1_555
H50A C63A 1_555 1_555
H51A C63A 1_555 1_555
C64A O7A 1_555 1_555
H52A C64A 1_555 1_555
H53A C64A 1_555 1_555
H54A C64A 1_555 1_555
C65A O8A 1_555 1_555
H55A C65A 1_555 1_555
H56A C65A 1_555 1_555
C66A C65A 1_555 1_555
C67A C66A 1_555 1_555
H57A C67A 1_555 1_555
C68A N4A 1_555 1_555
H58A C68A 1_555 1_555
C69A N4A 1_555 1_555
H59A C69A 1_555 1_555
C70A C66A 1_555 1_555
H60A C70A 1_555 1_555
C71A O9A 1_555 1_555
H61A C71A 1_555 1_555
H62A C71A 1_555 1_555
H63A C71A 1_555 1_555
C72A O10A 1_555 1_555
H64A C72A 1_555 1_555
H65A C72A 1_555 1_555
C73A C72A 1_555 1_555
C74A C73A 1_555 1_555
H66A C74A 1_555 1_555
C75A C74A 1_555 1_555
H67A C75A 1_555 1_555
C76A N5A 1_555 1_555
H68A C76A 1_555 1_555
C77A C73A 1_555 1_555
H69A C77A 1_555 1_555
C78A O11A 1_555 1_555
H70A C78A 1_555 1_555
H71A C78A 1_555 1_555
H72A C78A 1_555 1_555
C79A O12A 1_555 1_555
H73A C79A 1_555 1_555
H74A C79A 1_555 1_555
C80A C79A 1_555 1_555
C81A C80A 1_555 1_555
H75A C81A 1_555 1_555
C82A N6A 1_555 1_555
H76A C82A 1_555 1_555
C83A N6A 1_555 1_555
H77A C83A 1_555 1_555
C84A C80A 1_555 1_555
H78A C84A 1_555 1_555
Cu1B N2A 1_555 1_555
Cu1C N2 1_555 1_555
N2B Cu1A 1_555 1_555
N2C Cu1 1_555 1_555
N5B Cu1A 1_555 1_555
N5C Cu1 1_555 1_555
N5 Cu1C 1_555 1_555
C5 C6 1_555 1_555
C12 C13 1_555 1_555
C19 C20 1_555 1_555
C20 C21 1_555 1_555
C25 C26 1_555 1_555
C27 C28 1_555 1_555
C34 C35 1_555 1_555
C39 C40 1_555 1_555
C41 C42 1_555 1_555
C47 C48 1_555 1_555
C54 C55 1_555 1_555
C61 C62 1_555 1_555
C62 C63 1_555 1_555
C67 C68 1_555 1_555
C69 C70 1_555 1_555
C76 C77 1_555 1_555
C81 C82 1_555 1_555
C83 C84 1_555 1_555
N5A Cu1B 1_555 1_555
C5A C6A 1_555 1_555
C12A C13A 1_555 1_555
C19A C20A 1_555 1_555
C20A C21A 1_555 1_555
C25A C26A 1_555 1_555
C27A C28A 1_555 1_555
C34A C35A 1_555 1_555
C39A C40A 1_555 1_555
C41A C42A 1_555 1_555
C47A C48A 1_555 1_555
C54A C55A 1_555 1_555
C61A C62A 1_555 1_555
C62A C63A 1_555 1_555
C67A C68A 1_555 1_555
C69A C70A 1_555 1_555
C76A C77A 1_555 1_555
C81A C82A 1_555 1_555
C83A C84A 1_555 1_555

#END
