
#######################################################################
#
#                 Cambridge Crystallographic Data Centre
#                                CCDC 
#
#######################################################################
#
# If this CIF has been generated from an entry in the Cambridge 
# Structural Database, then it will include bibliographic, chemical, 
# crystal, experimental, refinement or atomic coordinate data resulting 
# from the CCDC's data processing and validation procedures.
#
#######################################################################

data_CUQSUE
_symmetry_cell_setting           orthorhombic
_symmetry_space_group_name_H-M   'P b c a'
_symmetry_Int_Tables_number      61
_space_group_name_Hall           '-P 2ac 2ab'
loop_
_symmetry_equiv_pos_site_id
_symmetry_equiv_pos_as_xyz
1 x,y,z
2 1/2-x,-y,1/2+z
3 1/2+x,1/2-y,-z
4 -x,1/2+y,1/2-z
5 -x,-y,-z
6 1/2+x,y,1/2-z
7 1/2-x,1/2+y,z
8 x,1/2-y,1/2+z
_cell_length_a                   9.459(2)
_cell_length_b                   29.785(7)
_cell_length_c                   34.465(8)
_cell_angle_alpha                90
_cell_angle_beta                 90
_cell_angle_gamma                90
_cell_volume                     9710.04
loop_
_atom_site_label
_atom_site_type_symbol
_atom_site_fract_x
_atom_site_fract_y
_atom_site_fract_z
Cu1 Cu 0.70998(7) 0.64153(2) 0.45080(2)
O1 O 0.3319(5) 0.93575(16) 0.38354(14)
N1 N 0.6498(5) 1.10958(14) 0.41684(17)
C1 C 0.0777(5) 0.94679(15) 0.28454(15)
O2 O 0.3542(5) 1.00607(14) 0.34103(13)
N2 N 0.5756(5) 0.66597(14) 0.40921(14)
C2 C 0.1691(5) 0.98081(16) 0.29640(16)
H1 H 0.1749 1.0078 0.2818
O3 O 0.2586(7) 1.06880(19) 0.3205(2)
N3 N 0.5954(5) 0.88814(13) -0.00750(14)
C3 C 0.2507(6) 0.97556(17) 0.32891(18)
O4 O 0.3467(3) 0.73799(11) 0.22791(11)
N4 N 0.8011(5) 0.69463(18) 0.47633(16)
C4 C 0.2450(6) 0.9368(2) 0.35176(18)
O5 O 0.3398(4) 0.75279(10) 0.30600(11)
C5 C 0.1518(6) 0.90376(17) 0.34126(17)
H2 H 0.1431 0.8778 0.3570
O6 O 0.2107(4) 0.68919(12) 0.30527(12)
C6 C 0.0688(5) 0.90761(15) 0.30750(15)
O7 O 0.3433(4) 0.99999(12) 0.14892(12)
C7 C -0.0210(5) 0.86752(16) 0.29625(17)
H3 H -0.0999 0.8775 0.2794
H4 H -0.0619 0.8538 0.3199
O8 O 0.3361(4) 0.91785(12) 0.11407(11)
C8 C 0.0680(5) 0.83285(14) 0.27475(16)
O9 O 0.2124(4) 0.96176(14) 0.07319(13)
C9 C 0.1533(5) 0.80503(15) 0.29749(16)
H5 H 0.1472 0.8069 0.3250
C10 C 0.2459(5) 0.77504(14) 0.28100(15)
C11 C 0.2539(5) 0.76956(14) 0.24130(15)
C12 C 0.1680(5) 0.79717(15) 0.21819(15)
H6 H 0.1719 0.7944 0.1908
C13 C 0.0760(5) 0.82902(14) 0.23496(16)
C14 C -0.0060(5) 0.85908(15) 0.20745(17)
H7 H -0.0919 0.8701 0.2209
H8 H -0.0370 0.8411 0.1849
C15 C 0.0787(5) 0.89950(15) 0.19287(15)
C16 C 0.1619(5) 0.89382(16) 0.15967(16)
H9 H 0.1597 0.8659 0.1463
C17 C 0.2465(5) 0.92765(16) 0.14604(16)
C18 C 0.2536(5) 0.96901(16) 0.16422(15)
C19 C 0.1676(5) 0.97534(15) 0.19618(16)
H10 H 0.1667 1.0040 0.2082
C20 C 0.0814(5) 0.94145(15) 0.21167(15)
C21 C -0.0039(5) 0.95279(16) 0.24747(16)
H11 H -0.0362 0.9843 0.2457
H12 H -0.0889 0.9334 0.2482
C22 C 0.3565(7) 0.8939(2) 0.40102(19)
H13 H 0.2708 0.8841 0.4145
H14 H 0.4342 0.8966 0.4197
H15 H 0.3815 0.8719 0.3811
C23 C 0.3460(7) 1.0475(2) 0.3397(3)
C24 C 0.4548(7) 1.0690(2) 0.3654(2)
C25 C 0.4749(8) 1.1156(2) 0.3641(3)
H16 H 0.4274 1.1340 0.3457
C26 C 0.5703(8) 1.1337(2) 0.3918(3)
H17 H 0.5790 1.1654 0.3928
C27 C 0.6391(6) 1.06552(17) 0.41278(16)
H18 H 0.7031 1.0474 0.4271
C28 C 0.5428(6) 1.04408(16) 0.38957(16)
H19 H 0.5360 1.0123 0.3900
C29 C 0.3614(6) 0.73330(18) 0.18723(17)
H20 H 0.2721 0.7227 0.1761
H21 H 0.4364 0.7116 0.1816
H22 H 0.3860 0.7624 0.1758
C30 C 0.3071(5) 0.71126(16) 0.31800(17)
C31 C 0.4041(5) 0.69642(15) 0.34956(15)
C32 C 0.4948(6) 0.72496(17) 0.36803(16)
H23 H 0.4998 0.7556 0.3606
C33 C 0.5804(6) 0.70860(17) 0.39800(17)
H24 H 0.6437 0.7286 0.4107
C34 C 0.4867(7) 0.63816(18) 0.39059(19)
H25 H 0.4832 0.6076 0.3985
C35 C 0.4012(6) 0.65162(17) 0.36094(18)
H26 H 0.3408 0.6308 0.3483
C36 C 0.3621(6) 1.04068(18) 0.17129(17)
H27 H 0.2755 1.0587 0.1701
H28 H 0.4410 1.0580 0.1605
H29 H 0.3827 1.0329 0.1983
C37 C 0.3079(6) 0.93622(17) 0.07957(17)
C38 C 0.4103(6) 0.92010(16) 0.04997(16)
C39 C 0.4266(6) 0.94253(17) 0.01443(18)
H30 H 0.3738 0.9690 0.0093
C40 C 0.5180(7) 0.92629(17) -0.01263(18)
H31 H 0.5284 0.9423 -0.0363
C41 C 0.5796(6) 0.86691(18) 0.02643(17)
H32 H 0.6322 0.8402 0.0307
C42 C 0.4911(6) 0.88169(18) 0.05558(16)
H33 H 0.4854 0.8657 0.0794
C43 C 0.8504(8) 0.7222(3) 0.4938(2)
C44 C 0.9175(11) 0.7577(4) 0.5171(3)
H34 H 0.8624 0.7854 0.5149
H35 H 1.0138 0.7630 0.5076
H36 H 0.9210 0.7483 0.5444
Cu1F Cu 0.79002(7) 1.14153(2) 0.45080(2)
Cu1G Cu 0.70998(7) 0.85847(2) -0.04920(2)
N1F N 0.8502(5) 0.60958(14) 0.41684(17)
N3G N 0.5954(5) 0.61186(13) 0.49250(14)
F1 F 0.1044(6) 0.75533(18) 0.44685(12)
B1 B 0.0936(12) 0.7624(3) 0.4085(2)
F2 F 0.1213(5) 0.72688(13) 0.38578(14)
F3 F 0.2331(17) 0.7883(4) 0.4017(5)
F4 F -0.004(2) 0.7899(6) 0.3938(6)
N5 N 0.5839(13) 1.0843(3) 0.2644(4)
C45 C 0.5104(10) 1.1103(3) 0.2530(3)
C46 C 0.4261(10) 1.1439(3) 0.2358(2)
H37 H 0.4603 1.1736 0.2438
H38 H 0.3277 1.1402 0.2441
H39 H 0.4316 1.1414 0.2074
N6 N -0.3654(16) 0.8436(5) 0.4685(4)
C47 C -0.340(2) 0.8524(6) 0.5000(5)
C48 C -0.321(2) 0.8651(7) 0.5410(5)
H40 H -0.2714 0.8940 0.5425
H41 H -0.2645 0.8420 0.5542
H42 H -0.4133 0.8676 0.5535
O10 O -0.2875(10) 0.8034(4) 0.3969(3)
O12 O 0.5572(11) 1.0209(3) 0.0916(3)
F5? F 0.134(2) 0.8008(3) 0.3965(3)
F6? F -0.0662(15) 0.7647(6) 0.4086(4)
O11? O 0.671(2) 1.0422(7) 0.1114(6)
loop_
_geom_bond_atom_site_label_1
_geom_bond_atom_site_label_2
_geom_bond_site_symmetry_1
_geom_bond_site_symmetry_2
Cu1 N2 1_555 1_555
O1 C4 1_555 1_555
N1 C26 1_555 1_555
C1 C2 1_555 1_555
O2 C3 1_555 1_555
N2 C33 1_555 1_555
C2 H1 1_555 1_555
O3 C23 1_555 1_555
N3 C40 1_555 1_555
C3 C2 1_555 1_555
O4 C11 1_555 1_555
N4 Cu1 1_555 1_555
C4 C3 1_555 1_555
O5 C10 1_555 1_555
C5 C4 1_555 1_555
H2 C5 1_555 1_555
O6 C30 1_555 1_555
C6 C1 1_555 1_555
O7 C18 1_555 1_555
C7 C6 1_555 1_555
H3 C7 1_555 1_555
H4 C7 1_555 1_555
O8 C17 1_555 1_555
C8 C7 1_555 1_555
O9 C37 1_555 1_555
C9 C8 1_555 1_555
H5 C9 1_555 1_555
C10 C9 1_555 1_555
C11 C10 1_555 1_555
C12 C11 1_555 1_555
H6 C12 1_555 1_555
C13 C8 1_555 1_555
C14 C13 1_555 1_555
H7 C14 1_555 1_555
H8 C14 1_555 1_555
C15 C14 1_555 1_555
C16 C15 1_555 1_555
H9 C16 1_555 1_555
C17 C16 1_555 1_555
C18 C17 1_555 1_555
C19 C18 1_555 1_555
H10 C19 1_555 1_555
C20 C15 1_555 1_555
C21 C1 1_555 1_555
H11 C21 1_555 1_555
H12 C21 1_555 1_555
C22 O1 1_555 1_555
H13 C22 1_555 1_555
H14 C22 1_555 1_555
H15 C22 1_555 1_555
C23 O2 1_555 1_555
C24 C23 1_555 1_555
C25 C24 1_555 1_555
H16 C25 1_555 1_555
C26 C25 1_555 1_555
H17 C26 1_555 1_555
C27 N1 1_555 1_555
H18 C27 1_555 1_555
C28 C24 1_555 1_555
H19 C28 1_555 1_555
C29 O4 1_555 1_555
H20 C29 1_555 1_555
H21 C29 1_555 1_555
H22 C29 1_555 1_555
C30 O5 1_555 1_555
C31 C30 1_555 1_555
C32 C31 1_555 1_555
H23 C32 1_555 1_555
C33 C32 1_555 1_555
H24 C33 1_555 1_555
C34 N2 1_555 1_555
H25 C34 1_555 1_555
C35 C31 1_555 1_555
H26 C35 1_555 1_555
C36 O7 1_555 1_555
H27 C36 1_555 1_555
H28 C36 1_555 1_555
H29 C36 1_555 1_555
C37 O8 1_555 1_555
C38 C37 1_555 1_555
C39 C38 1_555 1_555
H30 C39 1_555 1_555
C40 C39 1_555 1_555
H31 C40 1_555 1_555
C41 N3 1_555 1_555
H32 C41 1_555 1_555
C42 C38 1_555 1_555
H33 C42 1_555 1_555
C43 N4 1_555 1_555
C44 C43 1_555 1_555
H34 C44 1_555 1_555
H35 C44 1_555 1_555
H36 C44 1_555 1_555
F1 B1 1_555 1_555
B1 F2 1_555 1_555
F3 B1 1_555 1_555
F4 B1 1_555 1_555
N5 C45 1_555 1_555
C45 C46 1_555 1_555
C46 H37 1_555 1_555
H38 C46 1_555 1_555
H39 C46 1_555 1_555
N6 C47 1_555 1_555
C47 C48 1_555 1_555
C48 H40 1_555 1_555
H41 C48 1_555 1_555
H42 C48 1_555 1_555
Cu1F N1 1_555 1_555
Cu1G N3 1_555 1_555
N1F Cu1 1_555 1_555
N3G Cu1 1_555 1_555
C5 C6 1_555 1_555
C12 C13 1_555 1_555
C19 C20 1_555 1_555
C20 C21 1_555 1_555
C27 C28 1_555 1_555
C34 C35 1_555 1_555
C41 C42 1_555 1_555

#END
