
#######################################################################
#
#                 Cambridge Crystallographic Data Centre
#                                CCDC 
#
#######################################################################
#
# If this CIF has been generated from an entry in the Cambridge 
# Structural Database, then it will include bibliographic, chemical, 
# crystal, experimental, refinement or atomic coordinate data resulting 
# from the CCDC's data processing and validation procedures.
#
#######################################################################

data_CUQTEP
_symmetry_cell_setting           triclinic
_symmetry_space_group_name_H-M   'P -1'
_symmetry_Int_Tables_number      2
_space_group_name_Hall           '-P 1'
loop_
_symmetry_equiv_pos_site_id
_symmetry_equiv_pos_as_xyz
1 x,y,z
2 -x,-y,-z
_cell_length_a                   15.4223(10)
_cell_length_b                   19.5085(12)
_cell_length_c                   28.1607(17)
_cell_angle_alpha                100.656(4)
_cell_angle_beta                 105.671(3)
_cell_angle_gamma                102.750(4)
_cell_volume                     7682.05
loop_
_atom_site_label
_atom_site_type_symbol
_atom_site_fract_x
_atom_site_fract_y
_atom_site_fract_z
S2 S 0.5483(2) 0.63109(19) 0.33506(14)
O14 O 0.4941(7) 0.5655(6) 0.2853(4)
C94 C 0.6529(7) 0.6160(6) 0.3598(4)
H94 H 0.6914 0.6249 0.3378
H95 H 0.6426 0.5654 0.3620
H96 H 0.6854 0.6489 0.3941
C95 C 0.4966(11) 0.6110(9) 0.3823(6)
H97 H 0.4333 0.6171 0.3734
H98 H 0.5354 0.6443 0.4157
H99 H 0.4929 0.5607 0.3838
S3 S 0.4261(4) 0.5768(3) 0.5508(2)
O15 O 0.4107(7) 0.5865(5) 0.4944(4)
C96 C 0.4498(13) 0.6687(10) 0.5688(7)
H100 H 0.4253 0.6823 0.5967
H101 H 0.4200 0.6858 0.5397
H102 H 0.5180 0.6910 0.5804
C97 C 0.5105(11) 0.5543(9) 0.5794(6)
H103 H 0.5501 0.5458 0.5577
H104 H 0.4898 0.5097 0.5896
H105 H 0.5503 0.5935 0.6105
S4 S 0.9371(2) 0.63037(17) 0.20734(12)
O16 O 0.8544(5) 0.5673(4) 0.1947(3)
C98 C 0.9037(8) 0.6908(7) 0.1686(5)
H106 H 0.8538 0.7084 0.1774
H107 H 0.8808 0.6644 0.1324
H108 H 0.9583 0.7323 0.1750
C99 C 1.0241(12) 0.6071(10) 0.1852(7)
H109 H 1.0493 0.5741 0.2036
H110 H 1.0747 0.6512 0.1908
H111 H 0.9974 0.5829 0.1486
S5 S 0.7268(6) 0.3082(5) 0.6176(4)
O17 O 0.720(2) 0.369(2) 0.6588(13)
C100 C 0.8288(15) 0.2993(13) 0.6478(9)
H112 H 0.8785 0.3434 0.6523
H113 H 0.8399 0.2573 0.6278
H114 H 0.8291 0.2919 0.6813
C101 C 0.668(2) 0.2264(15) 0.6186(11)
H115 H 0.6009 0.2179 0.6018
H116 H 0.6794 0.2238 0.6541
H117 H 0.6900 0.1892 0.6006
Br1 Br 0.84923(6) 0.10832(4) 0.55790(3)
Br2 Br 0.66648(5) -0.00528(4) 0.40202(3)
Br3 Br 0.13219(9) 0.49506(7) 0.09955(5)
Cu1 Cu 0.76162(6) 0.10944(4) 0.46645(4)
Cu2 Cu 0.21988(9) 0.43022(6) 0.03545(4)
O1 O 0.1404(4) -0.2236(3) 0.1765(2)
O2 O 0.0856(4) -0.1953(3) 0.25656(19)
O3 O 0.1621(3) 0.1272(3) 0.3892(2)
O4 O 0.2308(4) 0.2294(3) 0.3520(2)
O5 O 0.3661(5) 0.1716(4) 0.1544(2)
O6 O 0.3441(5) 0.0361(4) 0.1019(2)
O7 O 0.8288(4) 0.4419(2) 0.39945(19)
O8 O 0.8201(5) 0.4405(3) 0.3065(2)
O9 O 0.6260(5) 0.6743(3) 0.2077(2)
O10 O 0.5825(4) 0.7766(3) 0.2610(2)
O11 O 0.6289(4) 0.8017(3) 0.4938(2)
O12 O 0.6733(4) 0.6935(3) 0.5250(2)
O13 O 0.2153(5) 0.5132(4) -0.0043(3)
N1 N -0.0947(5) -0.3628(4) 0.0157(2)
N2 N -0.1199(4) 0.1022(3) 0.4470(2)
N3 N 0.2385(5) 0.3485(4) 0.0724(3)
N4 N 0.7824(4) 0.2179(3) 0.4612(2)
N5 N 0.3486(6) 0.4902(4) 0.0806(3)
N6 N 0.3669(8) 0.8893(6) 0.5255(5)
C1 C 0.4513(5) -0.0375(4) 0.2626(3)
H1 H 0.4965 -0.0154 0.2975
H2 H 0.4788 -0.0698 0.2435
C2 C 0.3591(5) -0.0824(3) 0.2654(3)
C3 C 0.2973(5) -0.1361(4) 0.2215(3)
H3 H 0.3167 -0.1482 0.1925
C4 C 0.2056(5) -0.1725(4) 0.2205(3)
C5 C 0.1756(5) -0.1583(4) 0.2619(3)
C6 C 0.2391(4) -0.1072(4) 0.3076(2)
H4 H 0.2206 -0.0989 0.3372
C7 C 0.3287(4) -0.0690(4) 0.3093(2)
C8 C 0.3867(4) -0.0091(4) 0.3583(3)
H5 H 0.3790 -0.0263 0.3882
H6 H 0.4541 0.0019 0.3613
C9 C 0.3563(4) 0.0585(4) 0.3580(2)
C10 C 0.2773(4) 0.0621(3) 0.3764(2)
H7 H 0.2516 0.0246 0.3902
C11 C 0.2402(5) 0.1190(4) 0.3739(3)
C12 C 0.2720(6) 0.1764(4) 0.3530(3)
C13 C 0.3549(5) 0.1760(4) 0.3388(3)
H8 H 0.3831 0.2161 0.3281
C14 C 0.3959(4) 0.1179(4) 0.3404(3)
C15 C 0.4785(4) 0.1177(4) 0.3201(2)
H9 H 0.5223 0.1674 0.3316
H10 H 0.5128 0.0851 0.3347
C16 C 0.4477(4) 0.0927(4) 0.2625(3)
C17 C 0.4246(5) 0.1419(4) 0.2334(3)
H11 H 0.4329 0.1904 0.2513
C18 C 0.3920(5) 0.1247(5) 0.1824(3)
C19 C 0.3780(6) 0.0516(5) 0.1546(3)
C20 C 0.4031(5) 0.0016(4) 0.1826(3)
H12 H 0.3979 -0.0463 0.1649
C21 C 0.4357(4) 0.0224(4) 0.2363(3)
C22 C 0.1628(6) -0.2288(5) 0.1296(3)
H13 H 0.2144 -0.2516 0.1306
H14 H 0.1817 -0.1801 0.1236
C23 C 0.0727(6) -0.2761(5) 0.0885(3)
C24 C -0.0039(7) -0.2489(5) 0.0732(3)
H15 H 0.0007 -0.1998 0.0878
C25 C -0.0874(6) -0.2942(5) 0.0362(3)
H16 H -0.1393 -0.2756 0.0257
C26 C -0.0201(6) -0.3927(6) 0.0277(4)
H17 H -0.0256 -0.4411 0.0107
C27 C 0.1209(5) 0.0705(4) 0.4078(3)
H18 H 0.1682 0.0667 0.4381
H19 H 0.1010 0.0239 0.3813
C28 C 0.0377(5) 0.0826(4) 0.4220(3)
C29 C -0.0130(4) 0.0326(4) 0.4404(3)
H20 H 0.0062 -0.0091 0.4459
C30 C -0.0903(4) 0.0436(4) 0.4506(3)
H21 H -0.1263 0.0068 0.4611
C31 C -0.0704(5) 0.1509(4) 0.4294(3)
H22 H -0.0903 0.1930 0.4260
C32 C 0.0078(5) 0.1442(4) 0.4158(3)
H23 H 0.0399 0.1799 0.4029
C33 C 0.2994(16) 0.1967(11) 0.1623(8)
H24 H 0.3194 0.2239 0.1987
H25 H 0.2437 0.1554 0.1560
C34 C 0.2704(8) 0.2482(6) 0.1282(4)
C35 C 0.1966(8) 0.2731(6) 0.1233(5)
H26 H 0.1520 0.2547 0.1389
C36 C 0.1807(8) 0.3239(6) 0.0972(4)
H27 H 0.1282 0.3420 0.0967
C37 C 0.3158(8) 0.3280(6) 0.0761(3)
H28 H 0.3611 0.3507 0.0624
C38 C 0.3311(7) 0.2727(5) 0.1002(4)
H29 H 0.3805 0.2519 0.0980
C39 C 0.0437(6) -0.1615(5) 0.2928(4)
H30 H 0.0587 -0.1787 0.3237
H31 H -0.0247 -0.1751 0.2768
H32 H 0.0692 -0.1085 0.3017
C40 C 0.2628(7) 0.2855(6) 0.3260(5)
H33 H 0.3279 0.3139 0.3454
H34 H 0.2224 0.3179 0.3240
H35 H 0.2592 0.2614 0.2914
C41 C 0.3233(14) -0.0417(7) 0.0736(5)
H36 H 0.3697 -0.0463 0.0563
H37 H 0.2602 -0.0577 0.0483
H38 H 0.3262 -0.0721 0.0978
C42 C 0.9414(4) 0.7132(3) 0.4566(2)
H39 H 0.9853 0.7514 0.4488
H40 H 0.9758 0.7043 0.4890
C43 C 0.9104(4) 0.6437(3) 0.4141(3)
C44 C 0.8870(4) 0.5763(3) 0.4274(3)
H41 H 0.8925 0.5765 0.4619
C45 C 0.8561(5) 0.5105(4) 0.3903(3)
C46 C 0.8490(5) 0.5088(3) 0.3408(3)
C47 C 0.8750(5) 0.5733(3) 0.3272(3)
H42 H 0.8725 0.5718 0.2930
C48 C 0.9051(4) 0.6411(3) 0.3639(2)
C49 C 0.9264(4) 0.7095(3) 0.3436(2)
H43 H 0.9746 0.7496 0.3714
H44 H 0.9526 0.6986 0.3156
C50 C 0.8395(4) 0.7346(3) 0.3240(3)
C51 C 0.7758(5) 0.6953(4) 0.2738(3)
H45 H 0.7907 0.6576 0.2538
C52 C 0.6933(6) 0.7121(4) 0.2547(3)
C53 C 0.8475(6) 0.4430(4) 0.4525(3)
H46 H 0.8085 0.4688 0.4673
H47 H 0.9145 0.4678 0.4721
C54 C 0.7305(5) 0.8058(4) 0.3313(3)
H48 H 0.7144 0.8436 0.3505
C55 C 0.8165(5) 0.7903(3) 0.3524(3)
C56 C 0.8726(5) 0.8305(3) 0.4078(3)
H49 H 0.9383 0.8286 0.4149
H50 H 0.8732 0.8823 0.4135
C57 C 0.8310(4) 0.7974(3) 0.4439(2)
C58 C 0.7558(5) 0.8189(4) 0.4535(3)
H51 H 0.7393 0.8581 0.4413
C59 C 0.7022(5) 0.7839(4) 0.4814(3)
C60 C 0.7284(5) 0.7260(4) 0.5005(3)
C61 C 0.8076(4) 0.7083(3) 0.4924(2)
H52 H 0.8283 0.6722 0.5070
C62 C 0.8574(4) 0.7411(3) 0.4639(2)
C63 C 0.8222(5) 0.3619(4) 0.4543(3)
C64 C 0.8478(5) 0.3461(4) 0.5017(3)
H53 H 0.8798 0.3840 0.5322
C65 C 0.8256(4) 0.2737(3) 0.5033(3)
H54 H 0.8418 0.2631 0.5356
C66 C 0.7584(5) 0.2335(4) 0.4152(3)
H55 H 0.7281 0.1950 0.3849
C67 C 0.7781(5) 0.3068(4) 0.4120(3)
H56 H 0.7599 0.3170 0.3796
C68 C 0.6335(7) 0.6065(6) 0.1796(4)
H57 H 0.6583 0.5785 0.2034
H58 H 0.6759 0.6163 0.1593
C69 C 0.5375(7) 0.5660(5) 0.1460(4)
C70 C 0.4642(8) 0.5402(5) 0.1647(3)
H59 H 0.4759 0.5482 0.2005
C71 C 0.3783(6) 0.5046(5) 0.1324(3)
H60 H 0.3324 0.4871 0.1473
C72 C 0.4189(9) 0.5150(6) 0.0626(4)
H61 H 0.4046 0.5054 0.0266
C73 C 0.5082(7) 0.5526(5) 0.0918(4)
H62 H 0.5523 0.5703 0.0759
C74 C 0.6110(9) 0.8693(7) 0.4805(5)
H63 H 0.5949 0.8635 0.4432
H64 H 0.6671 0.9117 0.4982
C75 C 0.5272(7) 0.8795(6) 0.4985(5)
C76 C 0.4930(10) 0.8369(9) 0.5286(6)
H65 H 0.5259 0.8044 0.5405
C77 C 0.4121(9) 0.8409(9) 0.5413(5)
H66 H 0.3892 0.8104 0.5605
C78 C 0.3999(9) 0.9315(8) 0.4959(5)
H67 H 0.3664 0.9634 0.4833
C79 C 0.4808(7) 0.9278(6) 0.4845(5)
H68 H 0.5044 0.9599 0.4663
C80 C 0.7006(7) 0.6378(6) 0.5474(5)
H69 H 0.7030 0.5987 0.5209
H70 H 0.6546 0.6181 0.5632
H71 H 0.7627 0.6587 0.5735
C81 C 0.5533(7) 0.8246(5) 0.2947(4)
H72 H 0.5900 0.8750 0.3003
H73 H 0.5635 0.8119 0.3274
H74 H 0.4864 0.8197 0.2793
C82 C 0.8469(12) 0.4378(8) 0.2604(5)
H75 H 0.8265 0.3873 0.2397
H76 H 0.9153 0.4567 0.2700
H77 H 0.8169 0.4675 0.2406
C83 C 0.0626(7) -0.3495(5) 0.0653(3)
H78 H 0.1133 -0.3696 0.0757
C84 C 0.6686(5) 0.7661(4) 0.2821(3)
S1 S 0.1952(4) 0.4912(3) -0.0637(2)
C85 C 0.1157(18) 0.5566(14) -0.0870(10)
H79 H 0.0599 0.5471 -0.0762
H80 H 0.0963 0.5466 -0.1243
H81 H 0.1526 0.6077 -0.0717
C86 C 0.2989(17) 0.5328(14) -0.0955(10)
H82 H 0.3485 0.5085 -0.0886
H83 H 0.3260 0.5852 -0.0800
H84 H 0.2701 0.5238 -0.1324
Cu1_2 Cu -0.23838(6) 0.10944(4) 0.46645(4)
Cu1A Cu 0.23838(6) 0.89056(4) 0.53355(4)
Cu2A Cu -0.21988(9) -0.43022(6) -0.03545(4)
N1A N 0.0947(5) 0.3628(4) -0.0157(2)
N2_2 N 0.8801(4) 0.1022(3) 0.4470(2)
N6A N 0.6331(8) 0.1107(6) 0.4745(5)
C87? C 0.8050(12) 0.4413(8) 0.2528(5)
H85? H 0.7864 0.3913 0.2316
H86? H 0.8633 0.4691 0.2494
H87? H 0.7552 0.4642 0.2416
N7? N 0.3460(7) 0.8787(6) 0.5030(4)
C88? C 0.5823(10) 0.8380(9) 0.4567(6)
H88? H 0.5595 0.8062 0.4215
H89? H 0.6259 0.8845 0.4580
C89? C 0.4991(9) 0.8515(8) 0.4742(5)
C90? C 0.4955(11) 0.8507(11) 0.5226(6)
H90? H 0.5453 0.8415 0.5465
C91? C 0.4186(8) 0.8636(8) 0.5366(5)
H91? H 0.4164 0.8619 0.5698
C92? C 0.3536(10) 0.8806(8) 0.4568(5)
H92? H 0.3046 0.8910 0.4331
C93? C 0.4277(10) 0.8686(10) 0.4419(7)
H93? H 0.4297 0.8722 0.4090
loop_
_geom_bond_atom_site_label_1
_geom_bond_atom_site_label_2
_geom_bond_site_symmetry_1
_geom_bond_site_symmetry_2
Br1 Cu1 1_555 1_555
Br2 Cu1 1_555 1_555
Br3 Cu2 1_555 1_555
Cu1 N4 1_555 1_555
Cu2 O13 1_555 1_555
O1 C4 1_555 1_555
O2 C5 1_555 1_555
O3 C11 1_555 1_555
O4 C12 1_555 1_555
O5 C18 1_555 1_555
O6 C19 1_555 1_555
O7 C45 1_555 1_555
O8 C46 1_555 1_555
O9 C52 1_555 1_555
O10 C81 1_555 1_555
O11 C59 1_555 1_555
O12 C60 1_555 1_555
O13 S1 1_555 1_555
N1 C25 1_555 1_555
N2 C30 1_555 1_555
N3 Cu2 1_555 1_555
N4 C65 1_555 1_555
N5 Cu2 1_555 1_555
N6 C77 1_555 1_555
C1 H1 1_555 1_555
H2 C1 1_555 1_555
C2 C1 1_555 1_555
C3 C2 1_555 1_555
H3 C3 1_555 1_555
C4 C3 1_555 1_555
C5 C4 1_555 1_555
C6 C5 1_555 1_555
H4 C6 1_555 1_555
C7 C2 1_555 1_555
C8 C7 1_555 1_555
H5 C8 1_555 1_555
H6 C8 1_555 1_555
C9 C8 1_555 1_555
C10 C9 1_555 1_555
H7 C10 1_555 1_555
C11 C10 1_555 1_555
C12 C11 1_555 1_555
C13 C12 1_555 1_555
H8 C13 1_555 1_555
C14 C9 1_555 1_555
C15 C14 1_555 1_555
H9 C15 1_555 1_555
H10 C15 1_555 1_555
C16 C15 1_555 1_555
C17 C16 1_555 1_555
H11 C17 1_555 1_555
C18 C17 1_555 1_555
C19 C18 1_555 1_555
C20 C19 1_555 1_555
H12 C20 1_555 1_555
C21 C1 1_555 1_555
C22 O1 1_555 1_555
H13 C22 1_555 1_555
H14 C22 1_555 1_555
C23 C22 1_555 1_555
C24 C23 1_555 1_555
H15 C24 1_555 1_555
C25 C24 1_555 1_555
H16 C25 1_555 1_555
C26 N1 1_555 1_555
H17 C26 1_555 1_555
C27 O3 1_555 1_555
H18 C27 1_555 1_555
H19 C27 1_555 1_555
C28 C27 1_555 1_555
C29 C28 1_555 1_555
H20 C29 1_555 1_555
C30 C29 1_555 1_555
H21 C30 1_555 1_555
C31 N2 1_555 1_555
H22 C31 1_555 1_555
C32 C28 1_555 1_555
H23 C32 1_555 1_555
C33 O5 1_555 1_555
H24 C33 1_555 1_555
H25 C33 1_555 1_555
C34 C33 1_555 1_555
C35 C34 1_555 1_555
H26 C35 1_555 1_555
C36 N3 1_555 1_555
H27 C36 1_555 1_555
C37 N3 1_555 1_555
H28 C37 1_555 1_555
C38 C34 1_555 1_555
H29 C38 1_555 1_555
C39 O2 1_555 1_555
H30 C39 1_555 1_555
H31 C39 1_555 1_555
H32 C39 1_555 1_555
C40 O4 1_555 1_555
H33 C40 1_555 1_555
H34 C40 1_555 1_555
H35 C40 1_555 1_555
C41 O6 1_555 1_555
H36 C41 1_555 1_555
H37 C41 1_555 1_555
H38 C41 1_555 1_555
C42 H39 1_555 1_555
H40 C42 1_555 1_555
C43 C42 1_555 1_555
C44 C43 1_555 1_555
H41 C44 1_555 1_555
C45 C44 1_555 1_555
C46 C45 1_555 1_555
C47 C46 1_555 1_555
H42 C47 1_555 1_555
C48 C43 1_555 1_555
C49 C48 1_555 1_555
H43 C49 1_555 1_555
H44 C49 1_555 1_555
C50 C49 1_555 1_555
C51 C50 1_555 1_555
H45 C51 1_555 1_555
C52 C51 1_555 1_555
C53 O7 1_555 1_555
H46 C53 1_555 1_555
H47 C53 1_555 1_555
C54 H48 1_555 1_555
C55 C50 1_555 1_555
C56 C55 1_555 1_555
H49 C56 1_555 1_555
H50 C56 1_555 1_555
C57 C56 1_555 1_555
C58 C57 1_555 1_555
H51 C58 1_555 1_555
C59 C58 1_555 1_555
C60 C59 1_555 1_555
C61 C60 1_555 1_555
H52 C61 1_555 1_555
C62 C42 1_555 1_555
C63 C53 1_555 1_555
C64 C63 1_555 1_555
H53 C64 1_555 1_555
C65 C64 1_555 1_555
H54 C65 1_555 1_555
C66 N4 1_555 1_555
H55 C66 1_555 1_555
C67 C63 1_555 1_555
H56 C67 1_555 1_555
C68 O9 1_555 1_555
H57 C68 1_555 1_555
H58 C68 1_555 1_555
C69 C68 1_555 1_555
C70 C69 1_555 1_555
H59 C70 1_555 1_555
C71 N5 1_555 1_555
H60 C71 1_555 1_555
C72 N5 1_555 1_555
H61 C72 1_555 1_555
C73 C69 1_555 1_555
H62 C73 1_555 1_555
C74 O11 1_555 1_555
H63 C74 1_555 1_555
H64 C74 1_555 1_555
C75 C74 1_555 1_555
C76 C75 1_555 1_555
H65 C76 1_555 1_555
C77 C76 1_555 1_555
H66 C77 1_555 1_555
C78 N6 1_555 1_555
H67 C78 1_555 1_555
C79 C75 1_555 1_555
H68 C79 1_555 1_555
C80 O12 1_555 1_555
H69 C80 1_555 1_555
H70 C80 1_555 1_555
H71 C80 1_555 1_555
C81 H72 1_555 1_555
H73 C81 1_555 1_555
H74 C81 1_555 1_555
C82 O8 1_555 1_555
H75 C82 1_555 1_555
H76 C82 1_555 1_555
H77 C82 1_555 1_555
C83 C23 1_555 1_555
H78 C83 1_555 1_555
C84 O10 1_555 1_555
S1 C85 1_555 1_555
C85 H79 1_555 1_555
H80 C85 1_555 1_555
H81 C85 1_555 1_555
C86 S1 1_555 1_555
H82 C86 1_555 1_555
H83 C86 1_555 1_555
H84 C86 1_555 1_555
S2 O14 1_555 1_555
C94 S2 1_555 1_555
H94 C94 1_555 1_555
H95 C94 1_555 1_555
H96 C94 1_555 1_555
C95 S2 1_555 1_555
H97 C95 1_555 1_555
H98 C95 1_555 1_555
H99 C95 1_555 1_555
S3 O15 1_555 1_555
C96 S3 1_555 1_555
H100 C96 1_555 1_555
H101 C96 1_555 1_555
H102 C96 1_555 1_555
C97 S3 1_555 1_555
H103 C97 1_555 1_555
H104 C97 1_555 1_555
H105 C97 1_555 1_555
S4 O16 1_555 1_555
C98 S4 1_555 1_555
H106 C98 1_555 1_555
H107 C98 1_555 1_555
H108 C98 1_555 1_555
C99 S4 1_555 1_555
H109 C99 1_555 1_555
H110 C99 1_555 1_555
H111 C99 1_555 1_555
S5 O17 1_555 1_555
C100 S5 1_555 1_555
H112 C100 1_555 1_555
H113 C100 1_555 1_555
H114 C100 1_555 1_555
C101 S5 1_555 1_555
H115 C101 1_555 1_555
H116 C101 1_555 1_555
H117 C101 1_555 1_555
Cu1_2 N2 1_555 1_555
Cu1A N6 1_555 1_555
Cu2A N1 1_555 1_555
N1A Cu2 1_555 1_555
N2_2 Cu1 1_555 1_555
N6A Cu1 1_555 1_555
C6 C7 1_555 1_555
C13 C14 1_555 1_555
C16 C21 1_555 1_555
C20 C21 1_555 1_555
C26 C83 1_555 1_555
C31 C32 1_555 1_555
C35 C36 1_555 1_555
C37 C38 1_555 1_555
C47 C48 1_555 1_555
C52 C84 1_555 1_555
C54 C55 1_555 1_555
C54 C84 1_555 1_555
C57 C62 1_555 1_555
C61 C62 1_555 1_555
C66 C67 1_555 1_555
C70 C71 1_555 1_555
C72 C73 1_555 1_555
C78 C79 1_555 1_555

#END
