
#######################################################################
#
#                 Cambridge Crystallographic Data Centre
#                                CCDC 
#
#######################################################################
#
# If this CIF has been generated from an entry in the Cambridge 
# Structural Database, then it will include bibliographic, chemical, 
# crystal, experimental, refinement or atomic coordinate data resulting 
# from the CCDC's data processing and validation procedures.
#
#######################################################################

data_CUQWUI
_symmetry_cell_setting           orthorhombic
_symmetry_space_group_name_H-M   'P b c a'
_symmetry_Int_Tables_number      61
_space_group_name_Hall           '-P 2ac 2ab'
loop_
_symmetry_equiv_pos_site_id
_symmetry_equiv_pos_as_xyz
1 x,y,z
2 1/2-x,-y,1/2+z
3 1/2+x,1/2-y,-z
4 -x,1/2+y,1/2-z
5 -x,-y,-z
6 1/2+x,y,1/2-z
7 1/2-x,1/2+y,z
8 x,1/2-y,1/2+z
_cell_length_a                   14.2707(5)
_cell_length_b                   11.9131(4)
_cell_length_c                   18.9905(6)
_cell_angle_alpha                90
_cell_angle_beta                 90
_cell_angle_gamma                90
_cell_volume                     3228.54
loop_
_atom_site_label
_atom_site_type_symbol
_atom_site_fract_x
_atom_site_fract_y
_atom_site_fract_z
Zn1 Zn 0.41862(3) -0.10837(4) 0.23975(2)
O1 O 0.35179(17) 0.1701(2) 0.64773(12)
O2 O 0.27596(17) 0.0409(2) 0.58503(12)
C1 C 0.3412(2) 0.1098(3) 0.59381(17)
C2 C 0.4447(3) 0.0278(3) 0.34347(18)
O3 O 0.50100(19) 0.0459(3) 0.29463(13)
C3 C 0.4841(2) 0.1991(3) 0.53937(16)
H1 H 0.4933 0.2370 0.5816
C4 C 0.5317(2) 0.1601(3) 0.42087(16)
H2 H 0.5729 0.1714 0.3836
N1 N 0.70733(18) 0.2391(2) 0.52747(14)
C5 C 0.4574(2) 0.0870(3) 0.41289(16)
C6 C 0.5458(2) 0.2169(3) 0.48389(16)
C7 C 0.4090(2) 0.1258(3) 0.53287(16)
O4 O 0.3785(2) -0.0412(2) 0.33629(12)
C8 C 0.3956(2) 0.0695(3) 0.46922(16)
H3 H 0.3456 0.0202 0.4642
C9 C 0.6267(2) 0.2967(3) 0.49347(18)
H4 H 0.6459 0.3257 0.4480
H5 H 0.6071 0.3595 0.5224
C10 C 0.7251(2) 0.2551(3) 0.59651(17)
H6 H 0.6861 0.3009 0.6232
C11 C 0.8353(2) 0.1148(3) 0.51858(18)
H7 H 0.8711 0.0660 0.4915
C12 C 0.7604(2) 0.1693(3) 0.48927(17)
H8 H 0.7463 0.1578 0.4420
C13 C 0.8004(3) 0.2039(3) 0.62716(18)
H9 H 0.8137 0.2171 0.6744
C14 C 0.8575(2) 0.1324(3) 0.58837(17)
O5 O 0.98111(19) -0.0005(2) 0.59171(14)
C15 C 0.9440(2) 0.0801(3) 0.62147(19)
O6 O 0.97057(18) 0.1281(2) 0.67691(12)
O7 O 0.48130(17) -0.2503(2) 0.29221(12)
H10 H 0.5014 -0.2985 0.2608
H11 H 0.5424 -0.2334 0.3087
O8 O 0.31094(17) -0.2133(2) 0.21233(14)
H12 H 0.3279 -0.2808 0.2196
H13 H 0.2984 -0.2046 0.1689
O9 O 0.35977(19) 0.0166(2) 0.17407(13)
H14 H 0.3098 -0.0096 0.1546
H15 H 0.4147 0.0337 0.1445
Zn1A Zn 1.08138(3) 0.10837(4) 0.73975(2)
O6A O 0.52943(18) -0.1281(2) 0.17691(12)
O10 O 0.3120(2) 0.5744(3) 0.26719(18)
H16 H 0.2590 0.5445 0.2593
H17 H 0.3541 0.5393 0.2444
loop_
_geom_bond_atom_site_label_1
_geom_bond_atom_site_label_2
_geom_bond_site_symmetry_1
_geom_bond_site_symmetry_2
Zn1 O3 1_555 1_555
O1 C1 1_555 1_555
O2 C1 1_555 1_555
C1 C7 1_555 1_555
C2 O3 1_555 1_555
C3 H1 1_555 1_555
C4 H2 1_555 1_555
N1 C9 1_555 1_555
C5 C2 1_555 1_555
C6 C3 1_555 1_555
C7 C3 1_555 1_555
O4 Zn1 1_555 1_555
C8 C5 1_555 1_555
H3 C8 1_555 1_555
C9 C6 1_555 1_555
H4 C9 1_555 1_555
H5 C9 1_555 1_555
C10 N1 1_555 1_555
H6 C10 1_555 1_555
C11 H7 1_555 1_555
C12 N1 1_555 1_555
H8 C12 1_555 1_555
C13 C10 1_555 1_555
H9 C13 1_555 1_555
C14 C11 1_555 1_555
O5 C15 1_555 1_555
C15 C14 1_555 1_555
O6 C15 1_555 1_555
O7 Zn1 1_555 1_555
H10 O7 1_555 1_555
H11 O7 1_555 1_555
O8 Zn1 1_555 1_555
H12 O8 1_555 1_555
H13 O8 1_555 1_555
O9 Zn1 1_555 1_555
H14 O9 1_555 1_555
H15 O9 1_555 1_555
O10 H16 1_555 1_555
H17 O10 1_555 1_555
Zn1A O6 1_555 1_555
O6A Zn1 1_555 1_555
C2 O4 1_555 1_555
C4 C5 1_555 1_555
C4 C6 1_555 1_555
C7 C8 1_555 1_555
C11 C12 1_555 1_555
C13 C14 1_555 1_555

#END
