
#######################################################################
#
#                 Cambridge Crystallographic Data Centre
#                                CCDC 
#
#######################################################################
#
# If this CIF has been generated from an entry in the Cambridge 
# Structural Database, then it will include bibliographic, chemical, 
# crystal, experimental, refinement or atomic coordinate data resulting 
# from the CCDC's data processing and validation procedures.
#
#######################################################################

data_CUQWOB
_symmetry_cell_setting           monoclinic
_symmetry_space_group_name_H-M   'P 21/c'
_symmetry_Int_Tables_number      14
_space_group_name_Hall           '-P 2ybc'
loop_
_symmetry_equiv_pos_site_id
_symmetry_equiv_pos_as_xyz
1 x,y,z
2 -x,1/2+y,1/2-z
3 -x,-y,-z
4 x,1/2-y,1/2+z
_cell_length_a                   8.8735(18)
_cell_length_b                   7.0299(14)
_cell_length_c                   21.691(4)
_cell_angle_alpha                90
_cell_angle_beta                 91.71(3)
_cell_angle_gamma                90
_cell_volume                     1352.48
loop_
_atom_site_label
_atom_site_type_symbol
_atom_site_fract_x
_atom_site_fract_y
_atom_site_fract_z
Ag1 Ag 0.60737(3) 0.81495(5) 0.273977(14)
C1 C 0.4147(5) 1.6972(6) 0.1276(2)
H1 H 0.3394 1.7725 0.1438
N1 N 0.6770(3) 1.0405(4) 0.18930(13)
C2 C 0.8899(4) 0.5546(6) 0.22437(18)
H2 H 0.8851 0.4635 0.2553
N2 N 0.5734(3) 1.4741(4) 0.11480(13)
N3 N 0.8457(3) 0.7974(4) 0.16965(13)
N4 N 0.8028(3) 0.7057(5) 0.22116(14)
C3 C 0.6459(4) 1.3000(5) 0.12548(16)
N5 N 0.4632(4) 1.5359(5) 0.15243(15)
C4 C 0.7514(4) 1.2313(6) 0.08427(17)
H3 H 0.7745 1.2994 0.0490
C5 C 0.9589(4) 0.7021(6) 0.14210(19)
H4 H 1.0061 0.7380 0.1062
C6 C 0.8184(4) 1.0634(6) 0.09727(16)
H5 H 0.8878 1.0101 0.0710
C7 C 0.7793(4) 0.9729(5) 0.15187(15)
C8 C 0.5897(5) 1.5974(6) 0.06717(18)
H6 H 0.6572 1.5851 0.0354
C9 C 0.9900(5) 0.5461(6) 0.1764(2)
H7 H 1.0623 0.4534 0.1694
C10 C 0.4909(5) 1.7401(6) 0.0742(2)
H8 H 0.4765 1.8453 0.0487
N6 N 0.6097(3) 1.2076(4) 0.17570(13)
Ag1A Ag 0.39263(3) 1.31495(5) 0.226023(14)
N5A N 0.5368(4) 1.0359(5) 0.34757(15)
N6A N 0.3903(3) 0.7076(4) 0.32430(13)
Cl1 Cl 0.78837(11) 0.65340(15) 0.43047(4)
O1 O 0.6320(3) 0.6758(4) 0.44182(15)
O2 O 0.8393(3) 0.4735(5) 0.45532(14)
O3 O 0.8131(4) 0.6501(5) 0.36578(13)
O4 O 0.8716(4) 0.8022(6) 0.4584(2)
loop_
_geom_bond_atom_site_label_1
_geom_bond_atom_site_label_2
_geom_bond_site_symmetry_1
_geom_bond_site_symmetry_2
Ag1 N4 1_555 1_555
C1 H1 1_555 1_555
N1 C7 1_555 1_555
C2 H2 1_555 1_555
N2 C3 1_555 1_555
N3 N4 1_555 1_555
N4 C2 1_555 1_555
C3 C4 1_555 1_555
N5 C1 1_555 1_555
C4 H3 1_555 1_555
C5 N3 1_555 1_555
H4 C5 1_555 1_555
C6 C4 1_555 1_555
H5 C6 1_555 1_555
C7 N3 1_555 1_555
C8 N2 1_555 1_555
H6 C8 1_555 1_555
C9 C2 1_555 1_555
H7 C9 1_555 1_555
C10 C1 1_555 1_555
H8 C10 1_555 1_555
N6 N1 1_555 1_555
Cl1 O1 1_555 1_555
O2 Cl1 1_555 1_555
O3 Cl1 1_555 1_555
O4 Cl1 1_555 1_555
Ag1A N5 1_555 1_555
N5A Ag1 1_555 1_555
N6A Ag1 1_555 1_555
N2 N5 1_555 1_555
C3 N6 1_555 1_555
C5 C9 1_555 1_555
C6 C7 1_555 1_555
C8 C10 1_555 1_555
N6 Ag1A 1_555 1_555

#END
