
#######################################################################
#
#                 Cambridge Crystallographic Data Centre
#                                CCDC 
#
#######################################################################
#
# If this CIF has been generated from an entry in the Cambridge 
# Structural Database, then it will include bibliographic, chemical, 
# crystal, experimental, refinement or atomic coordinate data resulting 
# from the CCDC's data processing and validation procedures.
#
#######################################################################

data_CUQWUH
_symmetry_cell_setting           monoclinic
_symmetry_space_group_name_H-M   'P 21/c'
_symmetry_Int_Tables_number      14
_space_group_name_Hall           '-P 2ybc'
loop_
_symmetry_equiv_pos_site_id
_symmetry_equiv_pos_as_xyz
1 x,y,z
2 -x,1/2+y,1/2-z
3 -x,-y,-z
4 x,1/2-y,1/2+z
_cell_length_a                   8.8967(18)
_cell_length_b                   6.7972(14)
_cell_length_c                   20.493(4)
_cell_angle_alpha                90
_cell_angle_beta                 94.25(3)
_cell_angle_gamma                90
_cell_volume                     1235.86
loop_
_atom_site_label
_atom_site_type_symbol
_atom_site_fract_x
_atom_site_fract_y
_atom_site_fract_z
N1 N 0.5444(4) 0.3454(5) 0.34010(17)
N2 N 0.4507(4) 0.4054(5) 0.38553(16)
C1 C 0.3708(4) 0.5839(6) 0.37799(19)
N3 N 0.4016(3) 0.6932(5) 0.32714(15)
Ag1 Ag 0.62206(4) 0.61292(5) 0.274610(16)
N4 N 0.1511(3) 1.0986(5) 0.33894(15)
N5 N 0.3256(4) 0.8628(5) 0.31521(16)
C2 C 0.2250(4) 0.9205(5) 0.35545(18)
N6 N 0.1848(4) 1.2030(5) 0.28503(16)
C3 C 0.0913(5) 1.3539(6) 0.2826(2)
H1 H 0.0886 1.4509 0.2505
C4 C 0.2671(5) 0.6400(6) 0.42288(19)
H2 H 0.2496 0.5619 0.4588
C5 C 0.0365(5) 1.1871(7) 0.3692(2)
H3 H -0.0059 1.1435 0.4068
C6 C 0.1929(4) 0.8145(6) 0.41155(18)
H4 H 0.1240 0.8610 0.4399
C7 C -0.0031(5) 1.3503(6) 0.3341(2)
H5 H -0.0776 1.4409 0.3424
C8 C 0.4552(5) 0.2798(6) 0.4370(2)
H6 H 0.4007 0.2910 0.4738
C9 C 0.5541(6) 0.1346(7) 0.4247(2)
H7 H 0.5814 0.0271 0.4511
C10 C 0.6061(5) 0.1821(7) 0.3637(2)
H8 H 0.6754 0.1074 0.3425
Ag1A Ag 0.37794(4) 1.11292(5) 0.225390(16)
N6A N 0.8152(4) 0.7030(5) 0.21497(16)
O1 O 0.1670(4) 0.2929(5) 0.13254(15)
N7 N 0.1931(4) 0.2540(5) 0.07531(17)
O2 O 0.1382(4) 0.3550(6) 0.02946(17)
O3 O 0.2763(6) 0.1167(7) 0.0646(2)
loop_
_geom_bond_atom_site_label_1
_geom_bond_atom_site_label_2
_geom_bond_site_symmetry_1
_geom_bond_site_symmetry_2
N1 N2 1_555 1_555
N2 C1 1_555 1_555
C1 N3 1_555 1_555
N3 Ag1 1_555 1_555
Ag1 N1 1_555 1_555
N4 C2 1_555 1_555
N5 N3 1_555 1_555
C2 N5 1_555 1_555
N6 N4 1_555 1_555
C3 N6 1_555 1_555
H1 C3 1_555 1_555
C4 C1 1_555 1_555
H2 C4 1_555 1_555
C5 N4 1_555 1_555
H3 C5 1_555 1_555
C6 C2 1_555 1_555
H4 C6 1_555 1_555
C7 C3 1_555 1_555
H5 C7 1_555 1_555
C8 N2 1_555 1_555
H6 C8 1_555 1_555
C9 C8 1_555 1_555
H7 C9 1_555 1_555
C10 N1 1_555 1_555
H8 C10 1_555 1_555
O1 N7 1_555 1_555
N7 O2 1_555 1_555
O3 N7 1_555 1_555
Ag1A N6 1_555 1_555
N6A Ag1 1_555 1_555
C4 C6 1_555 1_555
C5 C7 1_555 1_555
C9 C10 1_555 1_555

#END
