
#######################################################################
#
#                 Cambridge Crystallographic Data Centre
#                                CCDC 
#
#######################################################################
#
# If this CIF has been generated from an entry in the Cambridge 
# Structural Database, then it will include bibliographic, chemical, 
# crystal, experimental, refinement or atomic coordinate data resulting 
# from the CCDC's data processing and validation procedures.
#
#######################################################################

data_CUQWIV
_symmetry_cell_setting           monoclinic
_symmetry_space_group_name_H-M   'P 21/c'
_symmetry_Int_Tables_number      14
_space_group_name_Hall           '-P 2ybc'
loop_
_symmetry_equiv_pos_site_id
_symmetry_equiv_pos_as_xyz
1 x,y,z
2 -x,1/2+y,1/2-z
3 -x,-y,-z
4 x,1/2-y,1/2+z
_cell_length_a                   14.438(3)
_cell_length_b                   8.7782(18)
_cell_length_c                   18.384(7)
_cell_angle_alpha                90
_cell_angle_beta                 122.98(2)
_cell_angle_gamma                90
_cell_volume                     1954.53
loop_
_atom_site_label
_atom_site_type_symbol
_atom_site_fract_x
_atom_site_fract_y
_atom_site_fract_z
Ag1 Ag 0.03848(2) 0.84741(4) 0.81816(2)
N1 N 0.1940(2) 0.9518(3) 0.85921(19)
N2 N 0.1536(2) 0.6852(3) 0.76862(19)
N3 N 0.1339(2) 0.5440(3) 0.73413(19)
N4 N 0.2709(2) 0.8854(3) 0.84751(19)
N5 N 0.1917(2) 0.3177(3) 0.70627(19)
N6 N 0.0990(2) 0.2401(3) 0.68753(19)
C1 C 0.1684(4) 1.1956(5) 0.9110(3)
H1 H 0.0910 1.1742 0.8733
H2 H 0.1824 1.2989 0.9025
H3 H 0.1907 1.1818 0.9702
C2 C 0.4496(3) 0.9536(5) 0.8597(3)
H4 H 0.4815 1.0484 0.8579
H5 H 0.4227 0.8992 0.8064
H6 H 0.5047 0.8935 0.9074
C3 C 0.2323(3) 1.0900(4) 0.8907(2)
C4 C 0.3323(3) 1.1134(4) 0.8982(2)
H7 H 0.3751 1.2013 0.9184
C5 C 0.3562(3) 0.9842(4) 0.8708(2)
C6 C 0.2564(3) 0.7335(4) 0.8179(2)
C7 C 0.3479(3) 0.6403(4) 0.8439(2)
H8 H 0.4194 0.6738 0.8836
C8 C 0.3277(3) 0.4992(4) 0.8088(2)
H9 H 0.3849 0.4317 0.8233
C9 C 0.2177(3) 0.4589(4) 0.7500(2)
C10 C 0.3494(4) 0.2940(6) 0.6835(3)
H10 H 0.4128 0.2772 0.7410
H11 H 0.3422 0.4010 0.6706
H12 H 0.3585 0.2398 0.6424
C11 C 0.0091(3) -0.0021(4) 0.6199(3)
H13 H 0.0411 -0.0995 0.6446
H14 H -0.0329 -0.0093 0.5578
H15 H -0.0385 0.0285 0.6387
C12 C 0.2485(3) 0.2383(5) 0.6782(3)
C13 C 0.1896(3) 0.1075(4) 0.6416(3)
H16 H 0.2071 0.0299 0.6166
C14 C 0.0987(3) 0.1128(4) 0.6489(2)
Ag1A Ag -0.03848(2) 0.34741(4) 0.68184(2)
N6A N -0.0990(2) 0.7401(3) 0.81247(19)
Cl1 Cl 0.63467(8) 0.40339(14) 0.95019(7)
O1 O 0.6088(4) 0.5579(5) 0.9603(4)
O2 O 0.5669(3) 0.3038(5) 0.9605(3)
O3 O 0.7458(3) 0.3803(5) 1.0125(3)
O4 O 0.6119(4) 0.3914(7) 0.8671(3)
O5 O 0.2138(8) 0.6735(10) 0.6178(6)
C15 C 0.1204(9) 0.6362(11) 0.5447(5)
H17 H 0.0766 0.7261 0.5186
H18 H 0.0801 0.5653 0.5570
H19 H 0.1368 0.5904 0.5055
loop_
_geom_bond_atom_site_label_1
_geom_bond_atom_site_label_2
_geom_bond_site_symmetry_1
_geom_bond_site_symmetry_2
Ag1 N1 1_555 1_555
N1 N4 1_555 1_555
N2 N3 1_555 1_555
N3 C9 1_555 1_555
N4 C5 1_555 1_555
N5 N6 1_555 1_555
N6 C14 1_555 1_555
C1 H1 1_555 1_555
H2 C1 1_555 1_555
H3 C1 1_555 1_555
C2 H4 1_555 1_555
H5 C2 1_555 1_555
H6 C2 1_555 1_555
C3 N1 1_555 1_555
C4 C3 1_555 1_555
H7 C4 1_555 1_555
C5 C2 1_555 1_555
C6 N2 1_555 1_555
C7 C6 1_555 1_555
H8 C7 1_555 1_555
C8 C7 1_555 1_555
H9 C8 1_555 1_555
C9 N5 1_555 1_555
C10 H10 1_555 1_555
H11 C10 1_555 1_555
H12 C10 1_555 1_555
C11 H13 1_555 1_555
H14 C11 1_555 1_555
H15 C11 1_555 1_555
C12 N5 1_555 1_555
C13 C12 1_555 1_555
H16 C13 1_555 1_555
C14 C11 1_555 1_555
Cl1 O1 1_555 1_555
O2 Cl1 1_555 1_555
O3 Cl1 1_555 1_555
O4 Cl1 1_555 1_555
O5 C15 1_555 1_555
C15 H17 1_555 1_555
H18 C15 1_555 1_555
H19 C15 1_555 1_555
Ag1A N6 1_555 1_555
N6A Ag1 1_555 1_555
N4 C6 1_555 1_555
C1 C3 1_555 1_555
C4 C5 1_555 1_555
C8 C9 1_555 1_555
C10 C12 1_555 1_555
C13 C14 1_555 1_555

#END
