
#######################################################################
#
#                 Cambridge Crystallographic Data Centre
#                                CCDC 
#
#######################################################################
#
# If this CIF has been generated from an entry in the Cambridge 
# Structural Database, then it will include bibliographic, chemical, 
# crystal, experimental, refinement or atomic coordinate data resulting 
# from the CCDC's data processing and validation procedures.
#
#######################################################################

data_CUQXOC
_symmetry_cell_setting           triclinic
_symmetry_space_group_name_H-M   'P -1'
_symmetry_Int_Tables_number      2
_space_group_name_Hall           '-P 1'
loop_
_symmetry_equiv_pos_site_id
_symmetry_equiv_pos_as_xyz
1 x,y,z
2 -x,-y,-z
_cell_length_a                   12.583(5)
_cell_length_b                   13.810(5)
_cell_length_c                   14.308(5)
_cell_angle_alpha                63.154(5)
_cell_angle_beta                 65.722(5)
_cell_angle_gamma                77.929(5)
_cell_volume                     2021.32
loop_
_atom_site_label
_atom_site_type_symbol
_atom_site_fract_x
_atom_site_fract_y
_atom_site_fract_z
Si1 Si 0.0000 0.5000 1.5000
W1 W 0.22122(5) 0.64039(5) 1.24393(4)
W2 W 0.24178(5) 0.59295(6) 1.49960(5)
W3 W -0.01868(5) 0.54520(5) 1.24443(4)
W4 W -0.27791(5) 0.62530(7) 1.57686(5)
W5 W -0.05734(6) 0.76471(6) 1.32013(5)
W6 W -0.03574(6) 0.71972(7) 1.57388(5)
Cu1 Cu -0.14882(18) 1.03998(19) 1.08126(17)
Cu2 Cu -0.36980(18) 0.9247(2) 0.31367(18)
O1 O 0.1050(8) 0.7490(9) 1.2557(10)
O2 O -0.2153(10) 0.7258(15) 1.4248(8)
O3 O -0.0254(8) 0.5701(11) 1.1207(7)
O4 O 0.2626(9) 0.6621(9) 1.3468(8)
O5 O -0.0758(13) 0.6245(13) 1.4900(12)
O6 O 0.1685(9) 0.5028(9) 1.6528(8)
O7 O -0.1945(11) 0.6900(14) 1.6168(9)
O8 O -0.0273(11) 0.7965(14) 1.4230(8)
O9 O -0.0496(11) 0.4621(14) 1.4326(11)
O10 O 0.3040(10) 0.4645(9) 1.4784(8)
O11 O 0.1297(14) 0.5331(15) 1.4391(16)
O12 O 0.1295(9) 0.7017(8) 1.5180(8)
O13 O -0.0735(9) 0.6801(9) 1.2551(10)
O14 O 0.0374(9) 0.3985(9) 1.2900(9)
O15 O 0.3560(10) 0.6367(10) 1.5002(8)
O16 O 0.2886(10) 0.4977(9) 1.2916(8)
O17 O -0.0827(9) 0.8944(9) 1.2292(8)
O18 O -0.4110(8) 0.6821(9) 1.6140(8)
O19 O -0.0516(8) 0.8212(9) 1.6098(8)
O20 O 0.3238(10) 0.7139(11) 1.1207(8)
O21 O 0.1347(8) 0.5892(9) 1.1956(9)
O22 O -0.0322(13) 0.4240(14) 1.6292(11)
N1 N -0.3096(15) 1.0590(15) 0.4774(12)
N2 N -0.2004(13) 0.9191(14) 0.8967(13)
N3 N -0.1455(12) 1.1414(12) 1.1322(11)
N4 N -0.1649(11) 1.3064(12) 1.1308(11)
N5 N -0.3572(12) 1.0101(13) 0.3771(10)
N6 N -0.3978(11) 1.8369(14) 1.2598(11)
N7 N -0.1613(10) 0.9589(11) 1.0115(10)
N8 N -0.4269(10) 1.6931(13) 1.2456(11)
C1 C -0.1925(13) 0.9978(14) 0.9215(14)
H1 H -0.2068 1.0709 0.8817
C2 C -0.1672(13) 0.8273(14) 0.9699(14)
H2 H -0.1607 0.7583 0.9715
C3 C -0.2996(15) 0.9798(15) 0.4443(15)
H3 H -0.2585 0.9143 0.4657
C4 C -0.1011(14) 1.1390(16) 1.2058(13)
H4 H -0.0670 1.0779 1.2483
C5 C -0.1453(13) 0.8527(15) 1.0390(13)
H5 H -0.1222 0.8034 1.0982
C6 C -0.4035(15) 1.1123(19) 0.3691(15)
H6 H -0.4480 1.1537 0.3252
C7 C -0.3774(17) 1.1444(18) 0.4311(16)
H7 H -0.3994 1.2088 0.4410
C8 C -0.237(2) 1.065(2) 0.5384(18)
H8 H -0.2179 1.1397 0.5114
H9 H -0.1652 1.0227 0.5236
C9 C -0.299(2) 1.026(3) 0.6487(18)
H10 H -0.3688 1.0714 0.6625
H11 H -0.3239 0.9535 0.6731
C10 C -0.250(3) 0.937(2) 0.811(2)
H12 H -0.3345 0.9346 0.8488
H13 H -0.2259 0.8753 0.7916
C11 C -0.229(2) 1.020(2) 0.7216(16)
H14 H -0.2493 1.0838 0.7382
H15 H -0.1463 1.0211 0.6780
C12 C -0.4617(13) 1.7864(14) 1.1666(13)
H16 H -0.4911 1.7873 1.1162
C13 C -0.3243(13) 1.5587(12) 1.1675(14)
H17 H -0.2528 1.5897 1.1505
H18 H -0.3450 1.5939 1.1011
C14 C -0.4451(12) 1.8745(14) 1.1765(14)
H19 H -0.4620 1.9464 1.1354
C15 C -0.1991(15) 1.4202(16) 1.1025(14)
H20 H -0.1336 1.4594 1.0862
H21 H -0.2170 1.4491 1.0348
C16 C -0.3041(13) 1.4406(14) 1.1951(12)
H22 H -0.2911 1.4040 1.2656
H23 H -0.3729 1.4108 1.2043
C17 C -0.1813(16) 1.2418(18) 1.0891(14)
H24 H -0.2149 1.2670 1.0350
C18 C -0.4243(12) 1.5818(16) 1.2670(15)
H25 H -0.4110 1.5369 1.3367
H26 H -0.4988 1.5633 1.2752
C19 C -0.1131(12) 1.2349(16) 1.2087(13)
H27 H -0.0913 1.2521 1.2540
C20 C -0.3883(14) 1.7311(16) 1.2979(14)
H28 H -0.3586 1.6872 1.3541
W1A W -0.22122(5) 0.35961(5) 1.75607(4)
W2A W -0.24178(5) 0.40705(6) 1.50040(5)
W3A W 0.01868(5) 0.45480(5) 1.75557(4)
W4A W 0.27791(5) 0.37470(7) 1.42314(5)
W5A W 0.05734(6) 0.23529(6) 1.67987(5)
W6A W 0.03574(6) 0.28028(7) 1.42612(5)
Cu1A Cu 0.14882(18) -0.03998(19) 1.91874(17)
Cu2A Cu 0.36980(18) 0.0753(2) 2.68633(18)
Cu2_2 Cu -0.36980(18) 1.9247(2) 1.31367(18)
Cu2A_2 Cu 0.36980(18) -0.9247(2) 1.68633(18)
O1A O -0.1050(8) 0.2510(9) 1.7443(10)
O2A O 0.2153(10) 0.2742(15) 1.5752(8)
O3A O 0.0254(8) 0.4299(11) 1.8793(7)
O4A O -0.2626(9) 0.3379(9) 1.6532(8)
O5A O 0.0758(13) 0.3755(13) 1.5100(12)
O6A O -0.1685(9) 0.4972(9) 1.3472(8)
O7A O 0.1945(11) 0.3100(14) 1.3832(9)
O8A O 0.0273(11) 0.2035(14) 1.5770(8)
O9A O 0.0496(11) 0.5379(14) 1.5674(11)
O10A O -0.3040(10) 0.5355(9) 1.5216(8)
O11A O -0.1297(14) 0.4669(15) 1.5609(16)
O12A O -0.1295(9) 0.2983(8) 1.4820(8)
O13A O 0.0735(9) 0.3199(9) 1.7449(10)
O14A O -0.0374(9) 0.6015(9) 1.7100(9)
O15A O -0.3560(10) 0.3633(10) 1.4998(8)
O16A O -0.2886(10) 0.5023(9) 1.7084(8)
O17A O 0.0827(9) 0.1056(9) 1.7708(8)
O18A O 0.4110(8) 0.3179(9) 1.3860(8)
O19A O 0.0516(8) 0.1788(9) 1.3902(8)
O20A O -0.3238(10) 0.2861(11) 1.8793(8)
O21A O -0.1347(8) 0.4108(9) 1.8044(9)
O22A O 0.0322(13) 0.5760(14) 1.3708(11)
N1A N 0.3096(15) -0.0590(15) 2.5226(12)
N2A N 0.2004(13) 0.0809(14) 2.1033(13)
N3A N 0.1455(12) -0.1414(12) 1.8678(11)
N4A N 0.1649(11) -0.3064(12) 1.8692(11)
N5A N 0.3572(12) -0.0101(13) 2.6229(10)
N6A N 0.3978(11) -0.8369(14) 1.7402(11)
N6_2 N -0.3978(11) 0.8369(14) 0.2598(11)
N6A_2 N 0.3978(11) 0.1631(14) 2.7402(11)
N7A N 0.1613(10) 0.0411(11) 1.9885(10)
N8A N 0.4269(10) -0.6931(13) 1.7544(11)
C1A C 0.1925(13) 0.0022(14) 2.0785(14)
H1A H 0.2068 -0.0709 2.1183
C2A C 0.1672(13) 0.1727(14) 2.0301(14)
H2A H 0.1607 0.2417 2.0285
C3A C 0.2996(15) 0.0202(15) 2.5557(15)
H3A H 0.2585 0.0857 2.5343
C4A C 0.1011(14) -0.1390(16) 1.7942(13)
H4A H 0.0670 -0.0779 1.7517
C5A C 0.1453(13) 0.1473(15) 1.9610(13)
H5A H 0.1222 0.1966 1.9018
C6A C 0.4035(15) -0.1123(19) 2.6309(15)
H6A H 0.4480 -0.1537 2.6748
C7A C 0.3774(17) -0.1444(18) 2.5689(16)
H7A H 0.3994 -0.2088 2.5590
C8A C 0.237(2) -0.065(2) 2.4616(18)
H8A H 0.2179 -0.1397 2.4886
H9A H 0.1652 -0.0227 2.4764
C9A C 0.299(2) -0.026(3) 2.3513(18)
H10A H 0.3688 -0.0714 2.3375
H11A H 0.3239 0.0465 2.3269
C10A C 0.250(3) 0.063(2) 2.189(2)
H12A H 0.3345 0.0654 2.1512
H13A H 0.2259 0.1247 2.2084
C11A C 0.229(2) -0.020(2) 2.2784(16)
H14A H 0.2493 -0.0838 2.2618
H15A H 0.1463 -0.0211 2.3220
C12A C 0.4617(13) -0.7864(14) 1.8334(13)
H16A H 0.4911 -0.7873 1.8838
C13A C 0.3243(13) -0.5587(12) 1.8325(14)
H17A H 0.2528 -0.5897 1.8495
H18A H 0.3450 -0.5939 1.8989
C14A C 0.4451(12) -0.8745(14) 1.8235(14)
H19A H 0.4620 -0.9464 1.8646
C15A C 0.1991(15) -0.4202(16) 1.8975(14)
H20A H 0.1336 -0.4594 1.9138
H21A H 0.2170 -0.4491 1.9652
C16A C 0.3041(13) -0.4406(14) 1.8049(12)
H22A H 0.2911 -0.4040 1.7344
H23A H 0.3729 -0.4108 1.7957
C17A C 0.1813(16) -0.2418(18) 1.9109(14)
H24A H 0.2149 -0.2670 1.9650
C18A C 0.4243(12) -0.5818(16) 1.7330(15)
H25A H 0.4110 -0.5369 1.6633
H26A H 0.4988 -0.5633 1.7248
C19A C 0.1131(12) -0.2349(16) 1.7913(13)
H27A H 0.0913 -0.2521 1.7460
C20A C 0.3883(14) -0.7311(16) 1.7021(14)
H28A H 0.3586 -0.6872 1.6459
loop_
_geom_bond_atom_site_label_1
_geom_bond_atom_site_label_2
_geom_bond_site_symmetry_1
_geom_bond_site_symmetry_2
Si1 O5 1_555 1_555
W1 O1 1_555 1_555
W2 O4 1_555 1_555
W3 O3 1_555 1_555
W4 O2 1_555 1_555
W5 O1 1_555 1_555
W6 O5 1_555 1_555
Cu1 O17 1_555 1_555
Cu2 N5 1_555 1_555
O2 W5 1_555 1_555
O4 W1 1_555 1_555
O5 W4 1_555 1_555
O6 W2 1_555 1_555
O7 W4 1_555 1_555
O8 W5 1_555 1_555
O9 Si1 1_555 1_555
O10 W2 1_555 1_555
O11 Si1 1_555 1_555
O12 W2 1_555 1_555
O13 W3 1_555 1_555
O14 W3 1_555 1_555
O15 W2 1_555 1_555
O16 W1 1_555 1_555
O17 W5 1_555 1_555
O18 W4 1_555 1_555
O19 W6 1_555 1_555
O20 W1 1_555 1_555
O21 W1 1_555 1_555
O22 Si1 1_555 1_555
N1 C3 1_555 1_555
N2 C1 1_555 1_555
N3 Cu1 1_555 1_555
N4 C15 1_555 1_555
N5 C3 1_555 1_555
N6 C14 1_555 1_555
N7 Cu1 1_555 1_555
N8 C12 1_555 1_555
C1 N7 1_555 1_555
H1 C1 1_555 1_555
C2 N2 1_555 1_555
H2 C2 1_555 1_555
C3 H3 1_555 1_555
C4 N3 1_555 1_555
H4 C4 1_555 1_555
C5 N7 1_555 1_555
H5 C5 1_555 1_555
C6 N5 1_555 1_555
H6 C6 1_555 1_555
C7 N1 1_555 1_555
H7 C7 1_555 1_555
C8 N1 1_555 1_555
H8 C8 1_555 1_555
H9 C8 1_555 1_555
C9 C8 1_555 1_555
H10 C9 1_555 1_555
H11 C9 1_555 1_555
C10 N2 1_555 1_555
H12 C10 1_555 1_555
H13 C10 1_555 1_555
C11 C9 1_555 1_555
H14 C11 1_555 1_555
H15 C11 1_555 1_555
C12 H16 1_555 1_555
C13 H17 1_555 1_555
H18 C13 1_555 1_555
C14 C12 1_555 1_555
H19 C14 1_555 1_555
C15 H20 1_555 1_555
H21 C15 1_555 1_555
C16 C13 1_555 1_555
H22 C16 1_555 1_555
H23 C16 1_555 1_555
C17 N3 1_555 1_555
H24 C17 1_555 1_555
C18 N8 1_555 1_555
H25 C18 1_555 1_555
H26 C18 1_555 1_555
C19 N4 1_555 1_555
H27 C19 1_555 1_555
C20 N6 1_555 1_555
H28 C20 1_555 1_555
W1A O22 1_555 1_555
W2A O9 1_555 1_555
W3A O6 1_555 1_555
W4A O10 1_555 1_555
W5A O1A 1_555 1_555
W6A O14 1_555 1_555
Cu1A O17A 1_555 1_555
Cu2A N5A 1_555 1_555
Cu2_2 N6 1_555 1_555
Cu2A_2 N6A 1_555 1_555
O1A W1A 1_555 1_555
O2A W4A 1_555 1_555
O3A W3A 1_555 1_555
O4A W1A 1_555 1_555
O5A Si1 1_555 1_555
O6A W3 1_555 1_555
O7A W4A 1_555 1_555
O8A W5A 1_555 1_555
O9A Si1 1_555 1_555
O10A W4 1_555 1_555
O11A Si1 1_555 1_555
O12A W2A 1_555 1_555
O13A W3A 1_555 1_555
O14A W6 1_555 1_555
O15A W2A 1_555 1_555
O16A W4 1_555 1_555
O17A W5A 1_555 1_555
O18A W4A 1_555 1_555
O19A W6A 1_555 1_555
O20A W1A 1_555 1_555
O21A W1A 1_555 1_555
O22A Si1 1_555 1_555
N1A C3A 1_555 1_555
N2A C1A 1_555 1_555
N3A Cu1A 1_555 1_555
N4A C15A 1_555 1_555
N5A C3A 1_555 1_555
N6A C14A 1_555 1_555
N6_2 Cu2 1_555 1_555
N6A_2 Cu2A 1_555 1_555
N7A Cu1A 1_555 1_555
N8A C12A 1_555 1_555
C1A N7A 1_555 1_555
H1A C1A 1_555 1_555
C2A N2A 1_555 1_555
H2A C2A 1_555 1_555
C3A H3A 1_555 1_555
C4A N3A 1_555 1_555
H4A C4A 1_555 1_555
C5A N7A 1_555 1_555
H5A C5A 1_555 1_555
C6A N5A 1_555 1_555
H6A C6A 1_555 1_555
C7A N1A 1_555 1_555
H7A C7A 1_555 1_555
C8A N1A 1_555 1_555
H8A C8A 1_555 1_555
H9A C8A 1_555 1_555
C9A C8A 1_555 1_555
H10A C9A 1_555 1_555
H11A C9A 1_555 1_555
C10A N2A 1_555 1_555
H12A C10A 1_555 1_555
H13A C10A 1_555 1_555
C11A C9A 1_555 1_555
H14A C11A 1_555 1_555
H15A C11A 1_555 1_555
C12A H16A 1_555 1_555
C13A H17A 1_555 1_555
H18A C13A 1_555 1_555
C14A C12A 1_555 1_555
H19A C14A 1_555 1_555
C15A H20A 1_555 1_555
H21A C15A 1_555 1_555
C16A C13A 1_555 1_555
H22A C16A 1_555 1_555
H23A C16A 1_555 1_555
C17A N3A 1_555 1_555
H24A C17A 1_555 1_555
C18A N8A 1_555 1_555
H25A C18A 1_555 1_555
H26A C18A 1_555 1_555
C19A N4A 1_555 1_555
H27A C19A 1_555 1_555
C20A N6A 1_555 1_555
H28A C20A 1_555 1_555
W1 O11 1_555 1_555
W1 O22A 1_555 1_555
W2 O11 1_555 1_555
W2 O9A 1_555 1_555
W3 O9 1_555 1_555
W3 O21 1_555 1_555
W3 O22A 1_555 1_555
W5 O5 1_555 1_555
W5 O13 1_555 1_555
W6 O7 1_555 1_555
W6 O8 1_555 1_555
W6 O12 1_555 1_555
O9 O11A 1_555 1_555
O9 O22A 1_555 1_555
O11 O9A 1_555 1_555
O11 O22A 1_555 1_555
O16 W4A 1_555 1_555
O22 W3A 1_555 1_555
O22 O9A 1_555 1_555
O22 O11A 1_555 1_555
N4 C17 1_555 1_555
N8 C20 1_555 1_555
C2 C5 1_555 1_555
C4 C19 1_555 1_555
C6 C7 1_555 1_555
C10 C11 1_555 1_555
C13 C18 1_555 1_555
C15 C16 1_555 1_555
W1A O11A 1_555 1_555
W1A O16A 1_555 1_555
W2A O4A 1_555 1_555
W2A O6A 1_555 1_555
W2A O10A 1_555 1_555
W2A O11A 1_555 1_555
W3A O9A 1_555 1_555
W3A O14A 1_555 1_555
W3A O21A 1_555 1_555
W4A O5A 1_555 1_555
W5A O2A 1_555 1_555
W5A O5A 1_555 1_555
W5A O13A 1_555 1_555
W6A O5A 1_555 1_555
W6A O7A 1_555 1_555
W6A O8A 1_555 1_555
W6A O12A 1_555 1_555
N4A C17A 1_555 1_555
N8A C20A 1_555 1_555
C2A C5A 1_555 1_555
C4A C19A 1_555 1_555
C6A C7A 1_555 1_555
C10A C11A 1_555 1_555
C13A C18A 1_555 1_555
C15A C16A 1_555 1_555

#END
