
#######################################################################
#
#                 Cambridge Crystallographic Data Centre
#                                CCDC 
#
#######################################################################
#
# If this CIF has been generated from an entry in the Cambridge 
# Structural Database, then it will include bibliographic, chemical, 
# crystal, experimental, refinement or atomic coordinate data resulting 
# from the CCDC's data processing and validation procedures.
#
#######################################################################

data_CUQXAP
_symmetry_cell_setting           orthorhombic
_symmetry_space_group_name_H-M   'P b c a'
_symmetry_Int_Tables_number      61
_space_group_name_Hall           '-P 2ac 2ab'
loop_
_symmetry_equiv_pos_site_id
_symmetry_equiv_pos_as_xyz
1 x,y,z
2 1/2-x,-y,1/2+z
3 1/2+x,1/2-y,-z
4 -x,1/2+y,1/2-z
5 -x,-y,-z
6 1/2+x,y,1/2-z
7 1/2-x,1/2+y,z
8 x,1/2-y,1/2+z
_cell_length_a                   7.4952(2)
_cell_length_b                   17.4170(5)
_cell_length_c                   21.7353(5)
_cell_angle_alpha                90
_cell_angle_beta                 90
_cell_angle_gamma                90
_cell_volume                     2837.41
loop_
_atom_site_label
_atom_site_type_symbol
_atom_site_fract_x
_atom_site_fract_y
_atom_site_fract_z
Zn1 Zn 0.03334(4) 1.188447(16) 0.928264(14)
O1 O 0.1292(3) 1.08508(11) 0.93569(10)
O2 O 0.3750(2) 0.75052(10) 0.99839(8)
O3 O 0.3660(3) 1.14170(12) 0.89641(12)
O4 O 0.9581(3) 0.75659(12) 0.64221(9)
O5 O 0.2052(3) 0.84000(11) 1.04111(10)
O6 O 1.0511(3) 0.66363(13) 0.70421(11)
N1 N 0.8940(3) 0.87817(12) 0.84548(10)
C1 C 0.2907(4) 1.08438(16) 0.91648(12)
C2 C 0.3234(3) 0.81929(14) 1.00396(12)
C3 C 0.3899(4) 1.00953(14) 0.92354(12)
C4 C 0.5642(4) 1.00264(15) 0.90246(12)
H1 H 0.6162 1.0427 0.8806
C5 C 0.5818(3) 0.87554(14) 0.94520(11)
H2 H 0.6458 0.8306 0.9521
C6 C 0.4076(3) 0.88181(14) 0.96625(12)
C7 C 0.3134(3) 0.94948(14) 0.95612(12)
H3 H 0.1981 0.9545 0.9713
C8 C 0.6611(3) 0.93622(14) 0.91381(11)
C9 C 0.8576(4) 0.93143(16) 0.89845(12)
H4 H 0.9012 0.9823 0.8883
H5 H 0.9224 0.9136 0.9343
C10 C 0.9467(4) 0.80560(16) 0.85599(13)
H6 H 0.9618 0.7885 0.8962
C11 C 0.9566(3) 0.78179(15) 0.74792(13)
C12 C 0.9784(4) 0.75650(17) 0.80770(13)
H7 H 1.0146 0.7063 0.8153
C13 C 0.9936(4) 0.72844(17) 0.69437(13)
C14 C 0.9012(4) 0.85695(16) 0.73829(12)
H8 H 0.8851 0.8753 0.6985
C15 C 0.8706(4) 0.90394(16) 0.78766(12)
H9 H 0.8332 0.9542 0.7812
Zn1C Zn 0.96666(4) 0.688447(16) 0.571736(14)
Zn1D Zn -0.03334(4) 0.811553(16) 1.071736(14)
Zn1F Zn 0.46666(4) 0.688447(16) 0.928264(14)
O2F O 0.1250(2) 1.25052(10) 0.99839(8)
O4C O 0.0419(3) 1.25659(12) 0.85779(9)
O5D O -0.2052(3) 1.16000(11) 0.95889(10)
O7 O 0.2933(5) 0.55010(19) 0.7641(2)
H10 H 0.3982 0.5657 0.7560
H11 H 0.2221 0.5816 0.7471
loop_
_geom_bond_atom_site_label_1
_geom_bond_atom_site_label_2
_geom_bond_site_symmetry_1
_geom_bond_site_symmetry_2
Zn1 O1 1_555 1_555
O1 C1 1_555 1_555
O2 C2 1_555 1_555
O3 C1 1_555 1_555
O4 C13 1_555 1_555
O5 C2 1_555 1_555
O6 C13 1_555 1_555
N1 C9 1_555 1_555
C1 C3 1_555 1_555
C2 C6 1_555 1_555
C3 C4 1_555 1_555
C4 H1 1_555 1_555
C5 H2 1_555 1_555
C6 C5 1_555 1_555
C7 C3 1_555 1_555
H3 C7 1_555 1_555
C8 C4 1_555 1_555
C9 C8 1_555 1_555
H4 C9 1_555 1_555
H5 C9 1_555 1_555
C10 N1 1_555 1_555
H6 C10 1_555 1_555
C11 C12 1_555 1_555
C12 C10 1_555 1_555
H7 C12 1_555 1_555
C13 C11 1_555 1_555
C14 C11 1_555 1_555
H8 C14 1_555 1_555
C15 N1 1_555 1_555
H9 C15 1_555 1_555
O7 H10 1_555 1_555
H11 O7 1_555 1_555
Zn1C O4 1_555 1_555
Zn1D O5 1_555 1_555
Zn1F O2 1_555 1_555
O2F Zn1 1_555 1_555
O4C Zn1 1_555 1_555
O5D Zn1 1_555 1_555
C5 C8 1_555 1_555
C6 C7 1_555 1_555
C14 C15 1_555 1_555

#END
