
#######################################################################
#
#                 Cambridge Crystallographic Data Centre
#                                CCDC 
#
#######################################################################
#
# If this CIF has been generated from an entry in the Cambridge 
# Structural Database, then it will include bibliographic, chemical, 
# crystal, experimental, refinement or atomic coordinate data resulting 
# from the CCDC's data processing and validation procedures.
#
#######################################################################

data_CUQXIW
_symmetry_cell_setting           triclinic
_symmetry_space_group_name_H-M   'P -1'
_symmetry_Int_Tables_number      2
_space_group_name_Hall           '-P 1'
loop_
_symmetry_equiv_pos_site_id
_symmetry_equiv_pos_as_xyz
1 x,y,z
2 -x,-y,-z
_cell_length_a                   13.112(5)
_cell_length_b                   15.798(5)
_cell_length_c                   27.462(5)
_cell_angle_alpha                91.530(5)
_cell_angle_beta                 92.919(5)
_cell_angle_gamma                110.716(5)
_cell_volume                     5307.78
loop_
_atom_site_label
_atom_site_type_symbol
_atom_site_fract_x
_atom_site_fract_y
_atom_site_fract_z
W1 W 0.22168(8) 0.21613(6) 0.63926(4)
W2 W 0.34174(8) 0.40120(6) 0.71379(4)
W3 W 0.18207(8) 0.53654(6) 0.75572(4)
W4 W -0.13529(8) 0.14841(6) 0.71729(4)
W5 W -0.08384(8) 0.47401(6) 0.71952(4)
W6 W 0.25014(8) 0.53884(6) 0.62684(4)
W7 W -0.01547(8) 0.47724(6) 0.59075(4)
W8 W 0.13036(8) 0.35444(6) 0.55304(4)
W9 W -0.21739(7) 0.27103(6) 0.63649(4)
W10 W -0.07086(8) 0.14796(6) 0.60037(4)
W11 W 0.15706(8) 0.21349(6) 0.75633(4)
W12 W -0.00042(8) 0.35091(6) 0.79954(3)
Si2 Si 0.0625(5) 0.3447(4) 0.6759(2)
O2 O -0.1816(11) 0.3639(10) 0.6882(6)
O3 O 0.2461(12) 0.4699(10) 0.5683(6)
O5 O -0.0939(12) 0.4184(9) 0.7834(5)
O7 O -0.1025(11) 0.2444(10) 0.7623(5)
O9 O -0.2462(11) 0.1853(9) 0.6861(6)
O10 O 0.1595(10) 0.3067(9) 0.6896(5)
O11 O 0.3259(11) 0.4702(9) 0.6607(6)
O12 O -0.1307(12) 0.0859(9) 0.6562(6)
O13 O 0.3545(12) 0.6361(9) 0.6152(7)
O14 O 0.2737(10) 0.4682(8) 0.7516(5)
O15 O 0.2058(11) 0.1625(9) 0.7033(5)
O16 O 0.4764(12) 0.4542(10) 0.7319(7)
O17 O -0.1334(11) 0.3656(9) 0.5983(5)
O18 O 0.0336(10) 0.4193(9) 0.5418(5)
O19 O 0.0953(11) 0.4083(9) 0.6281(6)
O20 O 0.3487(12) 0.3115(10) 0.6679(6)
O21 O 0.2956(12) 0.3073(9) 0.7587(5)
O22 O 0.1610(14) 0.3303(10) 0.4961(6)
O23 O -0.0368(14) 0.3275(10) 0.8585(6)
O24 O 0.1156(11) 0.4643(9) 0.8088(5)
O25 O -0.0470(10) 0.2597(9) 0.6639(5)
O26 O 0.1013(11) 0.2906(9) 0.7934(5)
O27 O 0.2848(13) 0.1553(11) 0.6086(6)
O28 O 0.0051(11) 0.2496(9) 0.5641(5)
O29 O -0.1947(12) 0.1841(9) 0.5943(5)
O30 O 0.0107(11) 0.1506(9) 0.7339(5)
O31 O -0.1687(12) 0.5334(10) 0.7278(7)
O32 O -0.0387(11) 0.5092(8) 0.6551(5)
O33 O 0.2140(12) 0.5684(9) 0.6886(6)
O34 O 0.1299(11) 0.5662(9) 0.5979(6)
O35 O 0.2643(12) 0.6306(10) 0.7876(6)
O36 O -0.0810(12) 0.5337(10) 0.5573(6)
O37 O 0.0497(12) 0.5648(10) 0.7474(5)
O38 O 0.0428(10) 0.4062(8) 0.7217(4)
O39 O 0.2118(11) 0.2978(10) 0.5908(5)
O40 O -0.2116(11) 0.0600(9) 0.7499(6)
O41 O 0.0711(10) 0.1514(10) 0.6230(5)
O42 O -0.1026(13) 0.0589(11) 0.5565(5)
O43 O 0.1777(13) 0.1469(11) 0.8011(5)
O44 O -0.3483(12) 0.2619(10) 0.6185(6)
Cu1 Cu 0.3054(2) -0.69465(19) 1.17276(11)
Cu2 Cu -0.5000 -1.0000 1.5000
O1 O 0.3254(13) -0.5625(11) 1.2193(6)
O8 O -0.5455(15) -0.8777(12) 1.5598(7)
N1 N -0.3998(17) -1.5572(13) 1.5795(9)
N2 N -0.5192(19) -1.6472(16) 1.5274(10)
N3 N -0.4269(16) -1.0339(14) 1.5574(9)
N4 N -0.3223(14) -1.0838(12) 1.6055(7)
N5 N -0.2022(16) -0.8141(13) 1.4652(7)
N6 N -0.3679(17) -0.8950(13) 1.4878(8)
N7 N 0.1900(16) -0.7902(11) 1.2080(7)
N8 N 0.0299(18) -0.8714(14) 1.2345(8)
N9 N 0.1831(14) -0.6737(10) 1.1319(6)
N10 N 0.0580(15) -0.6195(11) 1.1072(7)
N11 N 0.4174(15) -0.6295(13) 1.1262(7)
N12 N 0.5796(17) -0.5680(15) 1.0937(8)
N13 N 1.089(2) -0.077(2) 1.1391(13)
N14 N 0.9504(14) -0.1052(14) 1.0877(7)
N15 N 0.377(5) -1.348(4) 1.168(3)
N16 N 0.4671(18) -1.2506(14) 1.2324(10)
N17 N 0.4201(15) -0.7201(13) 1.2157(7)
N18 N 0.5388(14) -0.7741(13) 1.2446(7)
C1 C 0.359(3) -1.311(3) 1.2163(16)
H1 H 0.2939 -1.3245 1.2320
C2 C -0.428(3) -1.603(2) 1.5031(12)
H2 H -0.4208 -1.6084 1.4698
C3 C -0.361(3) -0.8093(18) 1.4801(12)
H3 H -0.4165 -0.7866 1.4843
C4 C -0.263(2) -0.762(2) 1.4655(14)
H4 H -0.2401 -0.7020 1.4568
C5 C 0.4533(19) -1.0681(17) 1.2432(9)
H5 H 0.3880 -1.1066 1.2277
C6 C 0.988(3) -0.0209(18) 1.0977(12)
H6 H 0.9601 0.0204 1.0844
C7 C -0.075(2) -0.581(2) 1.0121(11)
H7 H -0.1285 -0.6351 1.0187
C8 C 0.488(3) -1.1982(19) 1.2815(10)
H8 H 0.5491 -1.2057 1.2999
H9 H 0.4240 -1.2202 1.3003
C9 C 0.476(4) -1.302(3) 1.1611(13)
H10 H 0.5098 -1.3097 1.1334
C10 C 0.512(2) -1.105(2) 1.2719(10)
C11 C 0.790(2) -0.4047(18) 1.0371(10)
H11 H 0.7987 -0.4448 1.0138
C12 C 0.524(3) -1.243(2) 1.1953(15)
H12 H 0.5929 -1.1996 1.1934
C13 C 0.497(2) -0.5836(15) 1.0571(10)
H13 H 0.5047 -0.5724 1.0242
C14 C 0.401(2) -0.6192(15) 1.0802(8)
H14 H 0.3315 -0.6340 1.0646
C15 C -0.002(2) -0.5609(16) 1.0990(9)
H15 H -0.0763 -0.5921 1.1072
H16 H 0.0294 -0.5081 1.1212
C16 C 1.080(2) 0.002(2) 1.1321(11)
H17 H 1.1222 0.0588 1.1461
C17 C 1.017(3) -0.139(2) 1.1141(13)
H18 H 1.0094 -0.1994 1.1137
C18 C -0.352(3) -1.5504(18) 1.5366(11)
H19 H -0.2797 -1.5160 1.5312
C19 C -0.506(3) -1.616(2) 1.5722(11)
H20 H -0.5586 -1.6299 1.5952
C20 C -0.272(2) -0.8933(17) 1.4772(9)
H21 H -0.2529 -0.9447 1.4780
C21 C 0.068(2) -0.4490(18) 1.0363(10)
H22 H 0.1153 -0.4105 1.0605
C22 C 0.484(2) -0.9785(16) 1.2356(9)
H23 H 0.4393 -0.9588 1.2149
C23 C 0.2009(19) -0.8596(17) 1.2327(12)
H24 H 0.2659 -0.8701 1.2381
C24 C -0.0963(18) -0.8000(17) 1.4499(9)
H25 H -0.0517 -0.7372 1.4579
H26 H -0.0658 -0.8366 1.4695
C25 C 0.604(2) -1.0422(18) 1.2996(10)
H27 H 0.6432 -1.0627 1.3225
C26 C -0.449(2) -1.0288(17) 1.6054(11)
H28 H -0.5022 -1.0070 1.6160
C27 C 0.0334(18) -0.7056(16) 1.0835(8)
H29 H -0.0249 -0.7340 1.0609
C28 C -0.003(2) -0.5304(16) 1.0497(9)
C29 C -0.378(2) -1.2808(15) 1.6109(8)
H30 H -0.4323 -1.2574 1.6022
C30 C 0.8618(17) -0.1497(14) 1.0514(8)
H31 H 0.8077 -0.1209 1.0527
H32 H 0.8899 -0.1420 1.0192
C31 C -0.4045(19) -1.3730(16) 1.6133(8)
H33 H -0.4763 -1.4116 1.6064
C32 C 0.634(2) -0.9513(19) 1.2922(13)
H34 H 0.6934 -0.9114 1.3109
C33 C -0.240(2) -1.1220(15) 1.6196(10)
H35 H -0.1824 -1.1015 1.5972
H36 H -0.2085 -1.0958 1.6517
C34 C -0.3226(18) -1.4101(14) 1.6262(8)
C35 C 0.4831(18) -0.7650(17) 1.2039(10)
H37 H 0.4882 -0.7869 1.1727
C36 C -0.0901(19) -0.9348(15) 1.3379(10)
H38 H -0.0885 -0.9923 1.3312
C37 C 0.106(2) -0.9102(16) 1.2479(10)
H39 H 0.0925 -0.9629 1.2649
C38 C -0.094(3) -0.9048(17) 1.3836(12)
H40 H -0.1057 -0.9472 1.4075
C39 C 0.5063(19) -0.7393(14) 1.2841(8)
H41 H 0.5281 -0.7395 1.3169
C40 C 0.0880(18) -0.7987(16) 1.2121(8)
H42 H 0.0587 -0.7571 1.2002
C41 C -0.0870(17) -0.9008(16) 1.2477(9)
H43 H -0.1219 -0.9659 1.2425
H44 H -0.1267 -0.8720 1.2273
C42 C 0.714(2) -0.3732(19) 1.1095(10)
H45 H 0.6747 -0.3937 1.1367
C43 C 0.833(2) -0.3106(19) 1.0330(12)
H46 H 0.8843 -0.2881 1.0099
C44 C -0.219(2) -1.3502(18) 1.6359(11)
H47 H -0.1626 -1.3714 1.6433
C45 C 0.4334(19) -0.7037(17) 1.2638(10)
H48 H 0.3980 -0.6723 1.2814
C46 C 0.621(2) -0.8159(19) 1.2462(13)
H49 H 0.6539 -0.8099 1.2150
H50 H 0.6786 -0.7833 1.2708
C47 C -0.0851(19) -0.7851(15) 1.3128(10)
H51 H -0.0818 -0.7433 1.2891
C48 C 0.526(2) -0.5966(15) 1.1336(10)
H52 H 0.5612 -0.5937 1.1641
C49 C -0.1967(18) -1.2565(14) 1.6347(10)
H53 H -0.1263 -1.2166 1.6435
C50 C 0.754(2) -0.2804(19) 1.1012(10)
H54 H 0.7446 -0.2388 1.1236
C51 C -0.087(2) -0.7635(17) 1.3611(9)
H55 H -0.0915 -0.7073 1.3693
C52 C -0.0833(19) -0.8191(17) 1.3991(9)
C53 C 0.7328(19) -0.4340(18) 1.0783(10)
C54 C -0.346(2) -1.5095(17) 1.6281(9)
H56 H -0.2790 -1.5204 1.6353
H57 H -0.3947 -1.5338 1.6539
C55 C -0.352(2) -1.0745(18) 1.5603(9)
H58 H -0.3248 -1.0936 1.5332
C56 C 0.1487(19) -0.6055(16) 1.1343(10)
H59 H 0.1848 -0.5525 1.1531
C57 C 0.806(2) -0.2520(16) 1.0593(9)
C58 C -0.2728(18) -1.2236(16) 1.6216(8)
C59 C 0.692(2) -0.5326(16) 1.0902(10)
H60 H 0.7274 -0.5393 1.1209
H61 H 0.7115 -0.5672 1.0651
C60 C -0.0883(19) -0.8741(14) 1.2998(8)
C61 C 0.5785(18) -0.9149(13) 1.2575(9)
C62 C -0.388(3) -1.0584(19) 1.6352(10)
H62 H -0.3888 -1.0612 1.6690
C63 C 0.1089(18) -0.7389(15) 1.0994(8)
H63 H 0.1117 -0.7952 1.0904
Cu1A Cu -0.3054(2) -0.30535(19) 0.82724(11)
Cu2_2 Cu 0.5000 0.0000 0.5000
O1A O -0.3254(13) -0.4375(11) 0.7807(6)
O8A O -0.4545(15) -1.1223(12) 1.4402(7)
N1A N -0.6002(17) -0.4428(13) 1.4205(9)
N2A N -0.4808(19) -0.3528(16) 1.4726(10)
N3A N -0.5731(16) -0.9661(14) 1.4426(9)
N4A N -0.6777(14) -0.9162(12) 1.3945(7)
N5A N 0.2022(16) -0.1859(13) 0.5348(7)
N6A N -0.6321(17) -1.1050(13) 1.5122(8)
N6A_2 N 0.3679(17) -0.1050(13) 0.5122(8)
N7A N -0.1900(16) -0.2098(11) 0.7920(7)
N8A N -0.0299(18) -0.1286(14) 0.7655(8)
N9A N -0.1831(14) -0.3263(10) 0.8681(6)
N10A N -0.0580(15) -0.3805(11) 0.8928(7)
N11A N -0.4174(15) -0.3705(13) 0.8738(7)
N12A N -0.5796(17) -0.4320(15) 0.9063(8)
N13A N -1.089(2) -0.923(2) 0.8609(13)
N14A N -0.9504(14) -0.8948(14) 0.9123(7)
N15A N -0.377(5) 0.348(4) 0.832(3)
N16A N -0.4671(18) 0.2506(14) 0.7676(10)
N17A N -0.4201(15) -0.2799(13) 0.7843(7)
N18A N -0.5388(14) -0.2259(13) 0.7554(7)
C1A C -0.359(3) 0.311(3) 0.7837(16)
H1A H -0.2939 0.3245 0.7680
C2A C -0.572(3) -0.397(2) 1.4969(12)
H2A H -0.5792 -0.3916 1.5302
C3A C 0.361(3) -0.1907(18) 0.5199(12)
H3A H 0.4165 -0.2134 0.5157
C4A C 0.263(2) -0.238(2) 0.5345(14)
H4A H 0.2401 -0.2980 0.5432
C5A C -0.4533(19) 0.0681(17) 0.7568(9)
H5A H -0.3880 0.1066 0.7723
C6A C -0.988(3) -0.9791(18) 0.9023(12)
H6A H -0.9601 -1.0204 0.9156
C7A C 0.075(2) -0.419(2) 0.9879(11)
H7A H 0.1285 -0.3649 0.9813
C8A C -0.488(3) 0.1982(19) 0.7185(10)
H8A H -0.5491 0.2057 0.7001
H9A H -0.4240 0.2202 0.6997
C9A C -0.476(4) 0.302(3) 0.8389(13)
H10A H -0.5098 0.3097 0.8666
C10A C -0.512(2) 0.105(2) 0.7281(10)
C11A C -0.790(2) -0.5953(18) 0.9629(10)
H11A H -0.7987 -0.5552 0.9862
C12A C -0.524(3) 0.243(2) 0.8047(15)
H12A H -0.5929 0.1996 0.8066
C13A C -0.497(2) -0.4164(15) 0.9429(10)
H13A H -0.5047 -0.4276 0.9758
C14A C -0.401(2) -0.3808(15) 0.9198(8)
H14A H -0.3315 -0.3660 0.9354
C15A C 0.002(2) -0.4391(16) 0.9010(9)
H15A H 0.0763 -0.4079 0.8928
H16A H -0.0294 -0.4919 0.8788
C16A C -1.080(2) -1.002(2) 0.8679(11)
H17A H -1.1222 -1.0588 0.8539
C17A C -1.017(3) -0.861(2) 0.8859(13)
H18A H -1.0094 -0.8006 0.8863
C18A C -0.648(3) -0.4496(18) 1.4634(11)
H19A H -0.7203 -0.4840 1.4688
C19A C -0.494(3) -0.384(2) 1.4278(11)
H20A H -0.4414 -0.3701 1.4048
C20A C 0.272(2) -0.1067(17) 0.5228(9)
H21A H 0.2529 -0.0553 0.5220
C21A C -0.068(2) -0.5510(18) 0.9637(10)
H22A H -0.1153 -0.5895 0.9395
C22A C -0.484(2) -0.0215(16) 0.7644(9)
H23A H -0.4393 -0.0412 0.7851
C23A C -0.2009(19) -0.1404(17) 0.7673(12)
H24A H -0.2659 -0.1299 0.7619
C24A C 0.0963(18) -0.2000(17) 0.5501(9)
H25A H 0.0517 -0.2628 0.5421
H26A H 0.0658 -0.1634 0.5305
C25A C -0.604(2) 0.0422(18) 0.7004(10)
H27A H -0.6432 0.0627 0.6775
C26A C -0.551(2) -0.9712(17) 1.3946(11)
H28A H -0.4978 -0.9930 1.3840
C27A C -0.0334(18) -0.2944(16) 0.9165(8)
H29A H 0.0249 -0.2660 0.9391
C28A C 0.003(2) -0.4696(16) 0.9503(9)
C29A C -0.622(2) -0.7192(15) 1.3891(8)
H30A H -0.5677 -0.7426 1.3978
C30A C -0.8618(17) -0.8503(14) 0.9486(8)
H31A H -0.8077 -0.8791 0.9473
H32A H -0.8899 -0.8580 0.9808
C31A C -0.5955(19) -0.6270(16) 1.3867(8)
H33A H -0.5237 -0.5884 1.3936
C32A C -0.634(2) -0.0487(19) 0.7078(13)
H34A H -0.6934 -0.0886 0.6891
C33A C -0.760(2) -0.8780(15) 1.3804(10)
H35A H -0.8176 -0.8985 1.4028
H36A H -0.7915 -0.9042 1.3483
C34A C -0.6774(18) -0.5899(14) 1.3738(8)
C35A C -0.4831(18) -0.2350(17) 0.7961(10)
H37A H -0.4882 -0.2131 0.8273
C36A C 0.0901(19) -0.0652(15) 0.6621(10)
H38A H 0.0885 -0.0077 0.6688
C37A C -0.106(2) -0.0898(16) 0.7521(10)
H39A H -0.0925 -0.0371 0.7351
C38A C 0.094(3) -0.0952(17) 0.6164(12)
H40A H 0.1057 -0.0528 0.5925
C39A C -0.5063(19) -0.2607(14) 0.7159(8)
H41A H -0.5281 -0.2605 0.6831
C40A C -0.0880(18) -0.2013(16) 0.7879(8)
H42A H -0.0587 -0.2429 0.7998
C41A C 0.0870(17) -0.0992(16) 0.7523(9)
H43A H 0.1219 -0.0341 0.7575
H44A H 0.1267 -0.1280 0.7727
C42A C -0.714(2) -0.6268(19) 0.8905(10)
H45A H -0.6747 -0.6063 0.8633
C43A C -0.833(2) -0.6894(19) 0.9670(12)
H46A H -0.8843 -0.7119 0.9901
C44A C -0.781(2) -0.6498(18) 1.3641(11)
H47A H -0.8374 -0.6286 1.3567
C45A C -0.4334(19) -0.2963(17) 0.7362(10)
H48A H -0.3980 -0.3277 0.7186
C46A C -0.621(2) -0.1841(19) 0.7538(13)
H49A H -0.6539 -0.1901 0.7850
H50A H -0.6786 -0.2167 0.7292
C47A C 0.0851(19) -0.2149(15) 0.6872(10)
H51A H 0.0818 -0.2567 0.7109
C48A C -0.526(2) -0.4034(15) 0.8664(10)
H52A H -0.5612 -0.4063 0.8359
C49A C -0.8033(18) -0.7435(14) 1.3653(10)
H53A H -0.8737 -0.7834 1.3565
C50A C -0.754(2) -0.7196(19) 0.8988(10)
H54A H -0.7446 -0.7612 0.8764
C51A C 0.087(2) -0.2365(17) 0.6389(9)
H55A H 0.0915 -0.2927 0.6307
C52A C 0.0833(19) -0.1809(17) 0.6009(9)
C53A C -0.7328(19) -0.5660(18) 0.9217(10)
C54A C -0.654(2) -0.4905(17) 1.3719(9)
H56A H -0.7210 -0.4796 1.3647
H57A H -0.6053 -0.4662 1.3461
C55A C -0.648(2) -0.9255(18) 1.4397(9)
H58A H -0.6752 -0.9064 1.4668
C56A C -0.1487(19) -0.3945(16) 0.8657(10)
H59A H -0.1848 -0.4475 0.8469
C57A C -0.806(2) -0.7480(16) 0.9407(9)
C58A C -0.7272(18) -0.7764(16) 1.3784(8)
C59A C -0.692(2) -0.4674(16) 0.9098(10)
H60A H -0.7274 -0.4607 0.8791
H61A H -0.7115 -0.4328 0.9349
C60A C 0.0883(19) -0.1259(14) 0.7002(8)
C61A C -0.5785(18) -0.0851(13) 0.7425(9)
C62A C -0.612(3) -0.9416(19) 1.3648(10)
H62A H -0.6112 -0.9388 1.3310
C63A C -0.1089(18) -0.2611(15) 0.9006(8)
H63A H -0.1117 -0.2048 0.9096
O4 O 0.887(2) 0.2705(16) 1.1870(9)
O6 O 0.2855(15) 0.2188(13) 0.4965(7)
O55 O 0.0768(13) -0.1151(12) 0.9858(6)
W13? W 0.21132(9) -0.07770(7) 0.99064(5)
W14? W 0.64059(11) -0.11338(8) 0.93297(4)
W15? W 0.34989(10) -0.10423(7) 1.09913(4)
W16? W 0.35126(8) -0.19420(7) 0.92578(4)
W17? W 0.49546(9) -0.21490(7) 1.03380(4)
W18? W 0.63870(8) -0.02065(6) 1.11032(4)
Si1? Si 0.5000 0.0000 1.0000
O45? O 0.242(2) -0.1297(13) 1.0465(8)
O46? O 0.758(2) -0.0328(12) 0.9770(7)
O47? O 0.620(2) 0.0134(16) 0.9657(9)
O48? O 0.6038(15) -0.1378(12) 1.0793(7)
O49? O 0.4922(13) -0.0523(13) 1.1298(8)
O50? O 0.4953(16) -0.1769(13) 0.9056(8)
O51? O 0.396(2) -0.0504(18) 0.9603(10)
O52? O 0.3495(14) -0.0983(11) 0.8843(8)
O53? O 0.3871(16) -0.1951(13) 1.0734(7)
O54? O 0.5971(16) -0.1956(13) 0.9867(7)
O56? O 0.4924(14) -0.3159(11) 1.0507(7)
O57? O 0.7006(18) -0.0328(14) 1.1637(8)
O58? O 0.2771(15) -0.1525(12) 1.1470(7)
O59? O 0.7068(12) -0.1682(9) 0.8986(6)
O60? O 0.5084(19) 0.0987(16) 1.0190(9)
O61? O 0.3894(15) -0.2517(12) 0.9810(7)
O62? O 0.2450(14) -0.0139(13) 0.9319(7)
O63? O 0.2388(13) -0.1715(10) 0.9604(7)
O64? O 0.2769(18) -0.2850(11) 0.8906(7)
O65? O 0.508(2) -0.0645(16) 1.0431(8)
O66? O 0.347(2) 0.0149(12) 1.1070(9)
loop_
_geom_bond_atom_site_label_1
_geom_bond_atom_site_label_2
_geom_bond_site_symmetry_1
_geom_bond_site_symmetry_2
W1 O10 1_555 1_555
W2 O10 1_555 1_555
W3 O14 1_555 1_555
W4 O7 1_555 1_555
W5 O2 1_555 1_555
W6 O3 1_555 1_555
W7 O17 1_555 1_555
W8 O3 1_555 1_555
W9 O2 1_555 1_555
W10 O12 1_555 1_555
W11 O10 1_555 1_555
W12 O5 1_555 1_555
Cu1 O1 1_555 1_555
Cu2 O8 1_555 1_555
Si2 O10 1_555 1_555
O5 W5 1_555 1_555
O7 W12 1_555 1_555
O9 W4 1_555 1_555
O11 W2 1_555 1_555
O12 W4 1_555 1_555
O13 W6 1_555 1_555
O14 W2 1_555 1_555
O15 W1 1_555 1_555
O16 W2 1_555 1_555
O17 W9 1_555 1_555
O18 W7 1_555 1_555
O19 W6 1_555 1_555
O20 W1 1_555 1_555
O21 W2 1_555 1_555
O22 W8 1_555 1_555
O23 W12 1_555 1_555
O24 W3 1_555 1_555
O25 W4 1_555 1_555
O26 W11 1_555 1_555
O27 W1 1_555 1_555
O28 W8 1_555 1_555
O29 W9 1_555 1_555
O30 W4 1_555 1_555
O31 W5 1_555 1_555
O32 W5 1_555 1_555
O33 W3 1_555 1_555
O34 W6 1_555 1_555
O35 W3 1_555 1_555
O36 W7 1_555 1_555
O37 W3 1_555 1_555
O38 W3 1_555 1_555
O39 W1 1_555 1_555
O40 W4 1_555 1_555
O41 W1 1_555 1_555
O42 W10 1_555 1_555
O43 W11 1_555 1_555
O44 W9 1_555 1_555
N1 C18 1_555 1_555
N2 C2 1_555 1_555
N3 Cu2 1_555 1_555
N4 C33 1_555 1_555
N5 C4 1_555 1_555
N6 Cu2 1_555 1_555
N7 Cu1 1_555 1_555
N8 C37 1_555 1_555
N9 Cu1 1_555 1_555
N10 C15 1_555 1_555
N11 Cu1 1_555 1_555
N12 C13 1_555 1_555
N13 C16 1_555 1_555
N14 C6 1_555 1_555
N15 C1 1_555 1_555
N16 C1 1_555 1_555
N17 Cu1 1_555 1_555
N18 C35 1_555 1_555
C1 H1 1_555 1_555
C2 H2 1_555 1_555
C3 N6 1_555 1_555
H3 C3 1_555 1_555
C4 C3 1_555 1_555
H4 C4 1_555 1_555
C5 H5 1_555 1_555
C6 H6 1_555 1_555
C7 H7 1_555 1_555
C8 N16 1_555 1_555
H8 C8 1_555 1_555
H9 C8 1_555 1_555
C9 N15 1_555 1_555
H10 C9 1_555 1_555
C10 C5 1_555 1_555
C11 H11 1_555 1_555
C12 N16 1_555 1_555
H12 C12 1_555 1_555
C13 H13 1_555 1_555
C14 N11 1_555 1_555
H14 C14 1_555 1_555
C15 H15 1_555 1_555
H16 C15 1_555 1_555
C16 C6 1_555 1_555
H17 C16 1_555 1_555
C17 N13 1_555 1_555
H18 C17 1_555 1_555
C18 C2 1_555 1_555
H19 C18 1_555 1_555
C19 N1 1_555 1_555
H20 C19 1_555 1_555
C20 N5 1_555 1_555
H21 C20 1_555 1_555
C21 H22 1_555 1_555
C22 C5 1_555 1_555
H23 C22 1_555 1_555
C23 N7 1_555 1_555
H24 C23 1_555 1_555
C24 N5 1_555 1_555
H25 C24 1_555 1_555
H26 C24 1_555 1_555
C25 C10 1_555 1_555
H27 C25 1_555 1_555
C26 N3 1_555 1_555
H28 C26 1_555 1_555
C27 N10 1_555 1_555
H29 C27 1_555 1_555
C28 C7 1_555 1_555
C29 H30 1_555 1_555
C30 N14 1_555 1_555
H31 C30 1_555 1_555
H32 C30 1_555 1_555
C31 C29 1_555 1_555
H33 C31 1_555 1_555
C32 C25 1_555 1_555
H34 C32 1_555 1_555
C33 H35 1_555 1_555
H36 C33 1_555 1_555
C34 C31 1_555 1_555
C35 N17 1_555 1_555
H37 C35 1_555 1_555
C36 H38 1_555 1_555
C37 C23 1_555 1_555
H39 C37 1_555 1_555
C38 C36 1_555 1_555
H40 C38 1_555 1_555
C39 N18 1_555 1_555
H41 C39 1_555 1_555
C40 N7 1_555 1_555
H42 C40 1_555 1_555
C41 N8 1_555 1_555
H43 C41 1_555 1_555
H44 C41 1_555 1_555
C42 H45 1_555 1_555
C43 C11 1_555 1_555
H46 C43 1_555 1_555
C44 C34 1_555 1_555
H47 C44 1_555 1_555
C45 N17 1_555 1_555
H48 C45 1_555 1_555
C46 N18 1_555 1_555
H49 C46 1_555 1_555
H50 C46 1_555 1_555
C47 H51 1_555 1_555
C48 N11 1_555 1_555
H52 C48 1_555 1_555
C49 C44 1_555 1_555
H53 C49 1_555 1_555
C50 C42 1_555 1_555
H54 C50 1_555 1_555
C51 C47 1_555 1_555
H55 C51 1_555 1_555
C52 C24 1_555 1_555
C53 C11 1_555 1_555
C54 N1 1_555 1_555
H56 C54 1_555 1_555
H57 C54 1_555 1_555
C55 N3 1_555 1_555
H58 C55 1_555 1_555
C56 N9 1_555 1_555
H59 C56 1_555 1_555
C57 C30 1_555 1_555
C58 C29 1_555 1_555
C59 N12 1_555 1_555
H60 C59 1_555 1_555
H61 C59 1_555 1_555
C60 C36 1_555 1_555
C61 C22 1_555 1_555
C62 N4 1_555 1_555
H62 C62 1_555 1_555
C63 N9 1_555 1_555
H63 C63 1_555 1_555
Cu1A O1A 1_555 1_555
Cu2_2 N6A_2 1_555 1_555
O8A Cu2 1_555 1_555
N1A C18A 1_555 1_555
N2A C2A 1_555 1_555
N3A Cu2 1_555 1_555
N4A C33A 1_555 1_555
N5A C4A 1_555 1_555
N6A Cu2 1_555 1_555
N6A_2 C3A 1_555 1_555
N7A Cu1A 1_555 1_555
N8A C37A 1_555 1_555
N9A Cu1A 1_555 1_555
N10A C15A 1_555 1_555
N11A Cu1A 1_555 1_555
N12A C13A 1_555 1_555
N13A C16A 1_555 1_555
N14A C6A 1_555 1_555
N15A C1A 1_555 1_555
N16A C1A 1_555 1_555
N17A Cu1A 1_555 1_555
N18A C35A 1_555 1_555
C1A H1A 1_555 1_555
C2A H2A 1_555 1_555
C3A H3A 1_555 1_555
C4A C3A 1_555 1_555
H4A C4A 1_555 1_555
C5A H5A 1_555 1_555
C6A H6A 1_555 1_555
C7A C21 1_555 1_555
H7A C7A 1_555 1_555
C8A N16A 1_555 1_555
H8A C8A 1_555 1_555
H9A C8A 1_555 1_555
C9A N15A 1_555 1_555
H10A C9A 1_555 1_555
C10A C5A 1_555 1_555
C11A H11A 1_555 1_555
C12A N16A 1_555 1_555
H12A C12A 1_555 1_555
C13A H13A 1_555 1_555
C14A N11A 1_555 1_555
H14A C14A 1_555 1_555
C15A H15A 1_555 1_555
H16A C15A 1_555 1_555
C16A C6A 1_555 1_555
H17A C16A 1_555 1_555
C17A N13A 1_555 1_555
H18A C17A 1_555 1_555
C18A C2A 1_555 1_555
H19A C18A 1_555 1_555
C19A N1A 1_555 1_555
H20A C19A 1_555 1_555
C20A N5A 1_555 1_555
H21A C20A 1_555 1_555
C21A C7 1_555 1_555
H22A C21A 1_555 1_555
C22A C5A 1_555 1_555
H23A C22A 1_555 1_555
C23A N7A 1_555 1_555
H24A C23A 1_555 1_555
C24A N5A 1_555 1_555
H25A C24A 1_555 1_555
H26A C24A 1_555 1_555
C25A C10A 1_555 1_555
H27A C25A 1_555 1_555
C26A N3A 1_555 1_555
H28A C26A 1_555 1_555
C27A N10A 1_555 1_555
H29A C27A 1_555 1_555
C28A C7A 1_555 1_555
C29A H30A 1_555 1_555
C30A N14A 1_555 1_555
H31A C30A 1_555 1_555
H32A C30A 1_555 1_555
C31A C29A 1_555 1_555
H33A C31A 1_555 1_555
C32A C25A 1_555 1_555
H34A C32A 1_555 1_555
C33A H35A 1_555 1_555
H36A C33A 1_555 1_555
C34A C31A 1_555 1_555
C35A N17A 1_555 1_555
H37A C35A 1_555 1_555
C36A H38A 1_555 1_555
C37A C23A 1_555 1_555
H39A C37A 1_555 1_555
C38A C36A 1_555 1_555
H40A C38A 1_555 1_555
C39A N18A 1_555 1_555
H41A C39A 1_555 1_555
C40A N7A 1_555 1_555
H42A C40A 1_555 1_555
C41A N8A 1_555 1_555
H43A C41A 1_555 1_555
H44A C41A 1_555 1_555
C42A H45A 1_555 1_555
C43A C11A 1_555 1_555
H46A C43A 1_555 1_555
C44A C34A 1_555 1_555
H47A C44A 1_555 1_555
C45A N17A 1_555 1_555
H48A C45A 1_555 1_555
C46A N18A 1_555 1_555
H49A C46A 1_555 1_555
H50A C46A 1_555 1_555
C47A H51A 1_555 1_555
C48A N11A 1_555 1_555
H52A C48A 1_555 1_555
C49A C44A 1_555 1_555
H53A C49A 1_555 1_555
C50A C42A 1_555 1_555
H54A C50A 1_555 1_555
C51A C47A 1_555 1_555
H55A C51A 1_555 1_555
C52A C24A 1_555 1_555
C53A C11A 1_555 1_555
C54A N1A 1_555 1_555
H56A C54A 1_555 1_555
H57A C54A 1_555 1_555
C55A N3A 1_555 1_555
H58A C55A 1_555 1_555
C56A N9A 1_555 1_555
H59A C56A 1_555 1_555
C57A C30A 1_555 1_555
C58A C29A 1_555 1_555
C59A N12A 1_555 1_555
H60A C59A 1_555 1_555
H61A C59A 1_555 1_555
C60A C36A 1_555 1_555
C61A C22A 1_555 1_555
C62A N4A 1_555 1_555
H62A C62A 1_555 1_555
C63A N9A 1_555 1_555
H63A C63A 1_555 1_555
W2 O20 1_555 1_555
W5 O37 1_555 1_555
W5 O38 1_555 1_555
W6 O11 1_555 1_555
W6 O33 1_555 1_555
W7 O19 1_555 1_555
W7 O32 1_555 1_555
W7 O34 1_555 1_555
W8 O18 1_555 1_555
W8 O19 1_555 1_555
W8 O39 1_555 1_555
W9 O9 1_555 1_555
W9 O25 1_555 1_555
W10 O25 1_555 1_555
W10 O28 1_555 1_555
W10 O29 1_555 1_555
W10 O41 1_555 1_555
W11 O15 1_555 1_555
W11 O21 1_555 1_555
W11 O30 1_555 1_555
W12 O24 1_555 1_555
W12 O26 1_555 1_555
W12 O38 1_555 1_555
Si2 O19 1_555 1_555
Si2 O25 1_555 1_555
Si2 O38 1_555 1_555
N2 C19 1_555 1_555
N4 C55 1_555 1_555
N6 C20 1_555 1_555
N8 C40 1_555 1_555
N10 C56 1_555 1_555
N12 C48 1_555 1_555
N14 C17 1_555 1_555
C8 C10 1_555 1_555
C9 C12 1_555 1_555
C13 C14 1_555 1_555
C15 C28 1_555 1_555
C21 C28 1_555 1_555
C26 C62 1_555 1_555
C27 C63 1_555 1_555
C32 C61 1_555 1_555
C33 C58 1_555 1_555
C34 C54 1_555 1_555
C38 C52 1_555 1_555
C39 C45 1_555 1_555
C41 C60 1_555 1_555
C42 C53 1_555 1_555
C43 C57 1_555 1_555
C46 C61 1_555 1_555
C47 C60 1_555 1_555
C49 C58 1_555 1_555
C50 C57 1_555 1_555
C51 C52 1_555 1_555
C53 C59 1_555 1_555
N2A C19A 1_555 1_555
N4A C55A 1_555 1_555
N6A_2 C20A 1_555 1_555
N8A C40A 1_555 1_555
N10A C56A 1_555 1_555
N12A C48A 1_555 1_555
N14A C17A 1_555 1_555
C8A C10A 1_555 1_555
C9A C12A 1_555 1_555
C13A C14A 1_555 1_555
C15A C28A 1_555 1_555
C21A C28A 1_555 1_555
C26A C62A 1_555 1_555
C27A C63A 1_555 1_555
C32A C61A 1_555 1_555
C33A C58A 1_555 1_555
C34A C54A 1_555 1_555
C38A C52A 1_555 1_555
C39A C45A 1_555 1_555
C41A C60A 1_555 1_555
C42A C53A 1_555 1_555
C43A C57A 1_555 1_555
C46A C61A 1_555 1_555
C47A C60A 1_555 1_555
C49A C58A 1_555 1_555
C50A C57A 1_555 1_555
C51A C52A 1_555 1_555
C53A C59A 1_555 1_555

#END
