
#######################################################################
#
#                 Cambridge Crystallographic Data Centre
#                                CCDC 
#
#######################################################################
#
# If this CIF has been generated from an entry in the Cambridge 
# Structural Database, then it will include bibliographic, chemical, 
# crystal, experimental, refinement or atomic coordinate data resulting 
# from the CCDC's data processing and validation procedures.
#
#######################################################################

data_CUQXOD
_symmetry_cell_setting           triclinic
_symmetry_space_group_name_H-M   'P -1'
_symmetry_Int_Tables_number      2
_space_group_name_Hall           '-P 1'
loop_
_symmetry_equiv_pos_site_id
_symmetry_equiv_pos_as_xyz
1 x,y,z
2 -x,-y,-z
_cell_length_a                   8.6985(4)
_cell_length_b                   9.4824(6)
_cell_length_c                   17.7549(10)
_cell_angle_alpha                80.703(5)
_cell_angle_beta                 77.485(5)
_cell_angle_gamma                65.302(5)
_cell_volume                     1294.72
loop_
_atom_site_label
_atom_site_type_symbol
_atom_site_fract_x
_atom_site_fract_y
_atom_site_fract_z
C1 C 0.7481(4) 0.2718(4) 0.10276(19)
Cd1 Cd -0.07282(3) 0.96238(3) 0.158236(14)
O1 O -0.1283(3) 0.8677(3) 0.05528(13)
H1 H -0.1212 0.9325 0.0067
H2 H -0.2248 0.9267 0.0453
O2 O 0.1945(3) 0.7726(3) 0.13353(14)
O3 O 0.2758(3) 0.9612(3) 0.07622(15)
O4 O 0.5181(4) 0.8242(4) -0.40851(16)
O5 O 0.5405(4) 0.5805(4) -0.37196(16)
N1 N 0.7887(3) 0.6820(3) -0.17331(14)
N2 N -0.0175(4) 1.0300(3) 0.26394(16)
N3 N -0.0653(4) 1.1479(4) 0.36899(16)
C2 C 0.6875(4) 0.4374(4) 0.06509(18)
C3 C 0.5301(4) 0.5481(4) 0.09377(18)
H3 H 0.4598 0.5201 0.1353
C4 C 0.4754(4) 0.7012(4) 0.06119(18)
C5 C 0.5807(4) 0.7419(4) -0.00051(18)
H4 H 0.5455 0.8444 -0.0219
C6 C 0.7390(4) 0.6315(4) -0.03119(17)
C7 C 0.7911(4) 0.4786(4) 0.00182(17)
H5 H 0.8958 0.4036 -0.0185
C8 C 0.8523(4) 0.6743(4) -0.10050(17)
H6 H 0.8522 0.7744 -0.0949
H7 H 0.9692 0.5971 -0.1030
C9 C 0.3021(4) 0.8212(4) 0.09254(19)
C10 C 0.8153(4) 0.5488(4) -0.20158(19)
H8 H 0.8812 0.4535 -0.1783
C11 C 0.7455(5) 0.5533(4) -0.26456(19)
H9 H 0.7628 0.4610 -0.2835
C12 C 0.6500(4) 0.6937(4) -0.29979(18)
C13 C 0.6972(4) 0.8209(4) -0.20717(19)
H10 H 0.6794 0.9120 -0.1868
C14 C 0.6303(4) 0.8289(4) -0.27133(19)
H11 H 0.5713 0.9252 -0.2959
C15 C 0.5607(5) 0.7003(6) -0.3665(2)
C16 C -0.1193(5) 1.1521(4) 0.3030(2)
H12 H -0.2164 1.2313 0.2868
C17 C 0.1081(5) 0.9440(4) 0.3077(2)
H13 H 0.1984 0.8500 0.2951
C18 C 0.0809(5) 1.0162(5) 0.3721(2)
H14 H 0.1484 0.9828 0.4107
C19 C -0.1475(6) 1.2684(5) 0.4243(2)
H15 H -0.1298 1.2201 0.4760
H16 H -0.2701 1.3154 0.4239
C20 C -0.0785(5) 1.3941(4) 0.4062(2)
H17 H -0.0696 1.4241 0.3511
H18 H 0.0362 1.3522 0.4189
C21 C -0.1893(5) 1.5388(4) 0.4499(2)
H19 H -0.2191 1.5059 0.5037
H20 H -0.1216 1.5989 0.4483
C22 C -0.3535(5) 1.6439(5) 0.4192(2)
H21 H -0.4254 1.5868 0.4233
H22 H -0.4158 1.7320 0.4505
C23 C -0.3531(5) 1.6624(5) 0.2740(2)
H23 H -0.4106 1.5988 0.2741
N4 N -0.3175(4) 1.7015(3) 0.33723(16)
C24 C -0.2353(5) 1.7969(4) 0.3107(2)
H24 H -0.1975 1.8412 0.3421
N5 N -0.2150(4) 1.8198(3) 0.23422(16)
C25 C -0.2885(5) 1.7342(5) 0.2118(2)
H25 H -0.2932 1.7269 0.1608
O6 O 0.8907(3) 0.1746(2) 0.07241(13)
O7 O 0.6612(3) 0.2388(3) 0.16191(16)
Cd1_2 Cd -0.07282(3) 1.96238(3) 0.158236(14)
Cd1_3 Cd 0.92718(3) -0.03762(3) 0.158236(14)
N5_2 N -0.2150(4) 0.8198(3) 0.23422(16)
O6_2 O -0.1093(3) 1.1746(2) 0.07241(13)
O7_2 O -0.3388(3) 1.2388(3) 0.16191(16)
O8 O 0.2651(4) 0.0439(4) 0.51019(19)
H26 H 0.2777 0.0833 0.4639
H27 H 0.3622 -0.0010 0.5249
loop_
_geom_bond_atom_site_label_1
_geom_bond_atom_site_label_2
_geom_bond_site_symmetry_1
_geom_bond_site_symmetry_2
C1 C2 1_555 1_555
Cd1 O1 1_555 1_555
O1 H1 1_555 1_555
H2 O1 1_555 1_555
O2 Cd1 1_555 1_555
O3 C9 1_555 1_555
O4 C15 1_555 1_555
O5 C15 1_555 1_555
N1 C8 1_555 1_555
N2 Cd1 1_555 1_555
N3 C16 1_555 1_555
C2 C3 1_555 1_555
C3 H3 1_555 1_555
C4 C3 1_555 1_555
C5 C4 1_555 1_555
H4 C5 1_555 1_555
C6 C5 1_555 1_555
C7 C2 1_555 1_555
H5 C7 1_555 1_555
C8 C6 1_555 1_555
H6 C8 1_555 1_555
H7 C8 1_555 1_555
C9 O2 1_555 1_555
C10 N1 1_555 1_555
H8 C10 1_555 1_555
C11 C10 1_555 1_555
H9 C11 1_555 1_555
C12 C11 1_555 1_555
C13 N1 1_555 1_555
H10 C13 1_555 1_555
C14 C12 1_555 1_555
H11 C14 1_555 1_555
C15 C12 1_555 1_555
C16 N2 1_555 1_555
H12 C16 1_555 1_555
C17 N2 1_555 1_555
H13 C17 1_555 1_555
C18 N3 1_555 1_555
H14 C18 1_555 1_555
C19 N3 1_555 1_555
H15 C19 1_555 1_555
H16 C19 1_555 1_555
C20 C19 1_555 1_555
H17 C20 1_555 1_555
H18 C20 1_555 1_555
C21 C20 1_555 1_555
H19 C21 1_555 1_555
H20 C21 1_555 1_555
C22 C21 1_555 1_555
H21 C22 1_555 1_555
H22 C22 1_555 1_555
C23 H23 1_555 1_555
N4 C22 1_555 1_555
C24 N4 1_555 1_555
H24 C24 1_555 1_555
N5 C24 1_555 1_555
C25 C23 1_555 1_555
H25 C25 1_555 1_555
O6 C1 1_555 1_555
O7 C1 1_555 1_555
O8 H26 1_555 1_555
H27 O8 1_555 1_555
Cd1_2 N5 1_555 1_555
Cd1_3 O6 1_555 1_555
N5_2 Cd1 1_555 1_555
O6_2 Cd1 1_555 1_555
O7_2 Cd1 1_555 1_555
C4 C9 1_555 1_555
C6 C7 1_555 1_555
C13 C14 1_555 1_555
C17 C18 1_555 1_555
C23 N4 1_555 1_555
N5 C25 1_555 1_555
O7 Cd1_3 1_555 1_555

#END
