
#######################################################################
#
#                 Cambridge Crystallographic Data Centre
#                                CCDC 
#
#######################################################################
#
# If this CIF has been generated from an entry in the Cambridge 
# Structural Database, then it will include bibliographic, chemical, 
# crystal, experimental, refinement or atomic coordinate data resulting 
# from the CCDC's data processing and validation procedures.
#
#######################################################################

data_CUQXET
_symmetry_cell_setting           monoclinic
_symmetry_space_group_name_H-M   'P 21/c'
_symmetry_Int_Tables_number      14
_space_group_name_Hall           '-P 2ybc'
loop_
_symmetry_equiv_pos_site_id
_symmetry_equiv_pos_as_xyz
1 x,y,z
2 -x,1/2+y,1/2-z
3 -x,-y,-z
4 x,1/2-y,1/2+z
_cell_length_a                   11.7220(4)
_cell_length_b                   15.3650(5)
_cell_length_c                   12.7229(10)
_cell_angle_alpha                90
_cell_angle_beta                 119.424(4)
_cell_angle_gamma                90
_cell_volume                     1995.92
loop_
_atom_site_label
_atom_site_type_symbol
_atom_site_fract_x
_atom_site_fract_y
_atom_site_fract_z
Zn1 Zn 0.82686(4) 0.88186(3) 0.81275(4)
O1 O 0.7009(3) 0.7953(2) 0.7097(3)
O2 O 0.6446(4) 0.7751(3) 0.8490(3)
O3 O 0.3511(6) 0.5181(4) 0.7917(4)
O4 O 0.2242(3) 0.4729(2) 0.6126(3)
O5 O 0.0356(4) 0.7574(3) -0.1549(3)
O6 O -0.0292(3) 0.8296(2) -0.0435(2)
N1 N 0.3249(3) 0.6447(2) 0.2561(3)
N2 N 0.8884(3) 0.9267(2) 0.6976(3)
C1 C 0.6341(4) 0.7589(3) 0.7507(4)
C2 C 0.5370(4) 0.6920(3) 0.6696(3)
C3 C 0.5185(4) 0.6767(3) 0.5544(4)
H1 H 0.5652 0.7092 0.5266
C4 C 0.4314(4) 0.6135(3) 0.4804(3)
C5 C 0.3786(4) 0.5797(3) 0.6365(4)
C6 C 0.4674(4) 0.6426(3) 0.7100(4)
H2 H 0.4803 0.6515 0.7874
C7 C 0.3594(4) 0.5661(3) 0.5211(3)
H3 H 0.2983 0.5253 0.4708
C8 C 0.4228(4) 0.5921(3) 0.3614(4)
H4 H 0.5085 0.6006 0.3690
H5 H 0.4007 0.5310 0.3442
C9 C 0.3237(4) 0.6331(3) 0.1512(4)
H6 H 0.3838 0.5956 0.1474
C10 C 0.2406(4) 0.6992(3) 0.2635(4)
H7 H 0.2430 0.7068 0.3370
C11 C 0.1503(4) 0.7443(3) 0.1638(4)
H8 H 0.0929 0.7829 0.1702
C12 C 0.1455(4) 0.7319(3) 0.0552(4)
C13 C 0.2349(4) 0.6760(3) 0.0499(4)
H9 H 0.2345 0.6675 -0.0226
C14 C 0.3127(5) 0.5213(3) 0.6850(4)
C15 C 0.0425(4) 0.7767(3) -0.0593(4)
C16 C 0.9794(5) 0.9883(3) 0.7309(4)
H10 H 1.0137 1.0122 0.8077
C17 C 0.8410(5) 0.8942(3) 0.5874(4)
H11 H 0.7765 0.8516 0.5625
C18 C 1.0245(5) 1.0179(3) 0.6562(4)
H12 H 1.0885 1.0610 0.6832
C19 C 0.9758(4) 0.9844(3) 0.5414(3)
C20 C 0.8819(5) 0.9199(3) 0.5081(4)
H13 H 0.8468 0.8942 0.4323
N2B N 1.1116(3) 1.0733(2) 0.3024(3)
C16B C 1.0206(5) 1.0117(3) 0.2691(4)
H10B H 0.9863 0.9878 0.1923
C17B C 1.1590(5) 1.1058(3) 0.4126(4)
H11B H 1.2235 1.1484 0.4375
C18B C 0.9755(5) 0.9821(3) 0.3438(4)
H12B H 0.9115 0.9390 0.3168
C19B C 1.0242(4) 1.0156(3) 0.4586(3)
C20B C 1.1181(5) 1.0801(3) 0.4919(4)
H13B H 1.1532 1.1058 0.5677
Zn1B Zn 1.17314(4) 1.11814(3) 0.18725(4)
O1B O 1.2991(3) 1.2047(2) 0.2903(3)
O2B O 1.3554(4) 1.2249(3) 0.1510(3)
O3B O 1.6489(6) 1.4819(4) 0.2083(4)
O4B O 1.7758(3) 1.5271(2) 0.3874(3)
O5B O 1.9644(4) 1.2426(3) 1.1549(3)
O6B O 2.0292(3) 1.1704(2) 1.0435(2)
N1B N 1.6751(3) 1.3553(2) 0.7439(3)
C1B C 1.3659(4) 1.2411(3) 0.2493(4)
C2B C 1.4630(4) 1.3080(3) 0.3304(3)
C3B C 1.4815(4) 1.3233(3) 0.4456(4)
H1B H 1.4348 1.2908 0.4734
C4B C 1.5686(4) 1.3865(3) 0.5196(3)
C5B C 1.6214(4) 1.4203(3) 0.3635(4)
C6B C 1.5326(4) 1.3574(3) 0.2900(4)
H2B H 1.5197 1.3485 0.2126
C7B C 1.6406(4) 1.4339(3) 0.4789(3)
H3B H 1.7017 1.4747 0.5292
C8B C 1.5772(4) 1.4079(3) 0.6386(4)
H4B H 1.4915 1.3994 0.6310
H5B H 1.5993 1.4690 0.6558
C9B C 1.6763(4) 1.3669(3) 0.8488(4)
H6B H 1.6162 1.4044 0.8526
C10B C 1.7594(4) 1.3008(3) 0.7365(4)
H7B H 1.7570 1.2932 0.6630
C11B C 1.8497(4) 1.2557(3) 0.8362(4)
H8B H 1.9071 1.2171 0.8298
C12B C 1.8545(4) 1.2681(3) 0.9448(4)
C13B C 1.7651(4) 1.3240(3) 0.9501(4)
H9B H 1.7655 1.3325 1.0226
C14B C 1.6873(5) 1.4787(3) 0.3150(4)
C15B C 1.9575(4) 1.2233(3) 1.0593(4)
Zn1_2 Zn -0.17314(4) 0.88186(3) -0.18725(4)
Zn1A Zn 0.17314(4) 0.38186(3) 0.68725(4)
Zn1B_2 Zn 2.17314(4) 1.11814(3) 1.18725(4)
Zn1C Zn 1.82686(4) 1.61814(3) 0.31275(4)
O4A O 0.7758(3) 0.9729(2) 0.8874(3)
O4C O 1.2242(3) 1.0271(2) 0.1126(3)
O6_2 O 0.9708(3) 0.8296(2) 0.9565(2)
O6B_2 O 1.0292(3) 1.1704(2) 0.0435(2)
O7 O 0.4531(6) 0.8867(5) 0.4921(6)
H14 H 0.4738 0.9333 0.5316
H15 H 0.4589 0.8916 0.4387
O8 O 0.8242(5) 0.8589(3) 0.1193(4)
H16 H 0.7696 0.8335 0.0546
H17 H 0.855(10) 0.813(7) 0.164(9)
loop_
_geom_bond_atom_site_label_1
_geom_bond_atom_site_label_2
_geom_bond_site_symmetry_1
_geom_bond_site_symmetry_2
Zn1 O1 1_555 1_555
O1 C1 1_555 1_555
O2 C1 1_555 1_555
O3 C14 1_555 1_555
O4 C14 1_555 1_555
O5 C15 1_555 1_555
O6 C15 1_555 1_555
N1 C8 1_555 1_555
N2 Zn1 1_555 1_555
C1 C2 1_555 1_555
C2 C3 1_555 1_555
C3 H1 1_555 1_555
C4 C3 1_555 1_555
C5 C6 1_555 1_555
C6 C2 1_555 1_555
H2 C6 1_555 1_555
C7 C4 1_555 1_555
H3 C7 1_555 1_555
C8 C4 1_555 1_555
H4 C8 1_555 1_555
H5 C8 1_555 1_555
C9 N1 1_555 1_555
H6 C9 1_555 1_555
C10 N1 1_555 1_555
H7 C10 1_555 1_555
C11 C10 1_555 1_555
H8 C11 1_555 1_555
C12 C11 1_555 1_555
C13 C9 1_555 1_555
H9 C13 1_555 1_555
C14 C5 1_555 1_555
C15 C12 1_555 1_555
C16 N2 1_555 1_555
H10 C16 1_555 1_555
C17 N2 1_555 1_555
H11 C17 1_555 1_555
C18 C16 1_555 1_555
H12 C18 1_555 1_555
C19 C18 1_555 1_555
C20 C17 1_555 1_555
H13 C20 1_555 1_555
O7 H14 1_555 1_555
H15 O7 1_555 1_555
O8 H16 1_555 1_555
H17 O8 1_555 1_555
N2B C16B 1_555 1_555
C16B H10B 1_555 1_555
C17B N2B 1_555 1_555
H11B C17B 1_555 1_555
C18B C16B 1_555 1_555
H12B C18B 1_555 1_555
C19B C19 1_555 1_555
C20B C17B 1_555 1_555
H13B C20B 1_555 1_555
Zn1B N2B 1_555 1_555
O1B Zn1B 1_555 1_555
O2B C1B 1_555 1_555
O3B C14B 1_555 1_555
O4B C14B 1_555 1_555
O5B C15B 1_555 1_555
O6B C15B 1_555 1_555
N1B C8B 1_555 1_555
C1B O1B 1_555 1_555
C2B C1B 1_555 1_555
C3B C2B 1_555 1_555
H1B C3B 1_555 1_555
C4B C3B 1_555 1_555
C5B C6B 1_555 1_555
C6B C2B 1_555 1_555
H2B C6B 1_555 1_555
C7B C4B 1_555 1_555
H3B C7B 1_555 1_555
C8B C4B 1_555 1_555
H4B C8B 1_555 1_555
H5B C8B 1_555 1_555
C9B N1B 1_555 1_555
H6B C9B 1_555 1_555
C10B N1B 1_555 1_555
H7B C10B 1_555 1_555
C11B C10B 1_555 1_555
H8B C11B 1_555 1_555
C12B C11B 1_555 1_555
C13B C9B 1_555 1_555
H9B C13B 1_555 1_555
C14B C5B 1_555 1_555
C15B C12B 1_555 1_555
Zn1_2 O6 1_555 1_555
Zn1A O4 1_555 1_555
Zn1B_2 O6B 1_555 1_555
Zn1C O4B 1_555 1_555
O4A Zn1 1_555 1_555
O4C Zn1B 1_555 1_555
O6_2 Zn1 1_555 1_555
O6B_2 Zn1B 1_555 1_555
C5 C7 1_555 1_555
C12 C13 1_555 1_555
C19 C20 1_555 1_555
C18B C19B 1_555 1_555
C19B C20B 1_555 1_555
C5B C7B 1_555 1_555
C12B C13B 1_555 1_555

#END
