
#######################################################################
#
#                 Cambridge Crystallographic Data Centre
#                                CCDC 
#
#######################################################################
#
# If this CIF has been generated from an entry in the Cambridge 
# Structural Database, then it will include bibliographic, chemical, 
# crystal, experimental, refinement or atomic coordinate data resulting 
# from the CCDC's data processing and validation procedures.
#
#######################################################################

data_CUQXES
_symmetry_cell_setting           triclinic
_symmetry_space_group_name_H-M   'P 1'
_symmetry_Int_Tables_number      1
_space_group_name_Hall           'P 1'
loop_
_symmetry_equiv_pos_site_id
_symmetry_equiv_pos_as_xyz
1 x,y,z
_cell_length_a                   13.244(3)
_cell_length_b                   13.594(3)
_cell_length_c                   14.638(3)
_cell_angle_alpha                109.72(3)
_cell_angle_beta                 116.51(3)
_cell_angle_gamma                97.92(3)
_cell_volume                     2085.84
loop_
_atom_site_label
_atom_site_type_symbol
_atom_site_fract_x
_atom_site_fract_y
_atom_site_fract_z
W1 W 0.39344(8) -0.35193(7) -0.28123(8)
W2 W 0.54467(7) -0.53484(7) -0.18864(8)
W3 W 0.02626(7) -0.81972(6) -0.56011(7)
W4 W -0.07328(7) -0.66269(7) -0.40425(8)
W5 W 0.29007(8) -0.60558(8) -0.04128(8)
W6 W 0.43735(7) -0.36778(6) -0.02321(7)
W7 W 0.38383(8) -0.77302(7) -0.21965(8)
W8 W 0.34428(8) -0.74605(7) -0.45441(7)
W9 W 0.18384(8) -0.56637(7) -0.54103(7)
W10 W 0.13876(8) -0.43702(7) -0.12207(7)
W11 W 0.09765(8) -0.40780(7) -0.37410(8)
W12 W 0.06681(8) -0.83528(6) -0.31960(8)
Cu1 Cu 0.2372(3) -0.0980(3) -0.2969(3)
Cu2 Cu 0.1354(3) -0.5236(2) 0.1209(3)
Si1 Si 0.2348(6) -0.5912(5) -0.2947(6)
N1 N 0.1250(17) -0.1467(15) 0.3851(16)
N2 N 0.3471(18) -0.0372(14) 0.0279(16)
N3 N 0.2765(17) -0.0540(17) -0.1482(17)
N4 N 0.1955(14) -0.1409(12) 0.5515(14)
N5 N 0.8038(17) 0.2754(15) 0.8510(17)
N6 N 0.4512(18) -0.3041(14) 0.4043(16)
N7 N 0.2823(15) -0.4133(14) 0.2372(15)
N8 N 0.9787(19) 0.3710(16) 1.0126(19)
O1 O 0.0081(14) -0.5640(11) -0.2513(13)
O3 O 0.1083(12) -0.6917(11) -0.3695(12)
O5 O 0.5438(16) -0.2557(14) 0.0968(15)
O7 O 0.0719(17) -0.3685(12) -0.0609(16)
O9 O -0.1029(14) -0.7707(12) -0.5494(13)
O10 O 0.2663(11) -0.5228(10) -0.1689(11)
O11 O 0.1790(13) -0.8233(12) -0.5227(13)
O12 O 0.2997(13) -0.3324(12) -0.0220(14)
O13 O 0.4181(12) -0.4642(12) 0.0422(12)
O14 O 0.2505(13) -0.3043(12) -0.3174(12)
O15 O 0.2898(17) -0.6489(14) -0.514(2)
O16 O -0.0642(16) -0.9248(15) -0.6955(17)
O17 O 0.3105(13) -0.6351(13) 0.0680(14)
O18 O 0.3413(11) -0.6412(10) -0.2914(12)
O19 O 0.5234(14) -0.4501(13) -0.0736(13)
O20 O -0.0199(13) -0.5457(12) -0.4294(13)
O21 O 0.0900(12) -0.4741(11) -0.5220(12)
O22 O 0.3740(13) -0.8233(11) -0.3610(12)
O23 O -0.0666(14) -0.7818(12) -0.3595(13)
O24 O 0.2160(13) -0.8420(12) -0.2995(12)
O25 O 0.3780(17) -0.8192(13) -0.5464(19)
O26 O 0.5342(16) -0.6541(12) -0.1557(13)
O27 O 0.1807(13) -0.5235(17) -0.0430(19)
O28 O 0.3230(13) -0.4257(12) -0.4449(12)
O29 O 0.4110(14) -0.3235(12) -0.1414(13)
O30 O 0.3744(11) -0.6767(11) -0.0977(11)
O31 O 0.5017(14) -0.6372(13) -0.3404(14)
O32 O 0.1470(13) -0.7269(13) -0.1745(14)
O33 O 0.0670(14) -0.6943(13) -0.5819(14)
O34 O 0.0079(16) -0.9041(12) -0.4850(14)
O35 O 0.2299(12) -0.5076(10) -0.3517(12)
O36 O 0.4878(14) -0.4395(13) -0.2599(14)
O37 O 0.1275(13) -0.3830(12) -0.2317(13)
O38 O 0.4841(16) -0.2332(12) -0.2554(14)
O39 O 0.6943(15) -0.4864(15) -0.1291(14)
O40 O -0.2179(16) -0.6751(16) -0.4430(16)
O41 O 0.4489(15) -0.8620(12) -0.1733(13)
O42 O 0.0005(17) -0.9495(14) -0.3153(16)
O43 O 0.1524(14) -0.5749(12) -0.6683(13)
O44 O 0.0185(14) -0.3283(13) -0.4055(13)
C1 C 0.6693(16) 0.0999(14) 0.6771(16)
C2 C 0.7098(17) 0.2301(16) 0.7324(17)
H1 H 0.7390 0.2574 0.6923
H2 H 0.6421 0.2535 0.7264
C3 C 0.523(2) -0.0722(17) 0.619(2)
H3 H 0.4550 -0.1087 0.6150
C4 C 0.921(2) 0.3379(18) 0.9010(19)
H4 H 0.9554 0.3546 0.8623
C15 C 0.3218(16) -0.0999(17) -0.0790(18)
H16 H 0.3347 -0.1672 -0.1012
C16 C 0.190(2) -0.2363(19) 0.4766(19)
H17 H 0.2179 -0.2893 0.4971
C17 C 0.398(3) -0.069(2) 0.121(2)
H18 H 0.4763 -0.0132 0.1823
H19 H 0.4093 -0.1396 0.0932
C18 C 0.143(2) -0.2465(18) 0.374(2)
H20 H 0.1245 -0.3068 0.3078
C25 C 0.2898(17) -0.0820(16) 0.3173(17)
H27 H 0.3232 -0.0796 0.3893
C26 C 0.1160(18) -0.1105(15) 0.1363(17)
H28 H 0.0345 -0.1243 0.0899
C27 C 0.188(2) -0.0999(18) 0.095(2)
H29 H 0.1552 -0.1077 0.0206
C28 C 0.359(2) -0.0673(17) 0.271(2)
H30 H 0.4418 -0.0498 0.3163
C29 C 0.314(2) -0.0769(17) 0.1640(19)
C30 C 0.7894(18) 0.2792(18) 0.937(2)
H31 H 0.7162 0.2484 0.9275
C31 C 0.724(2) 0.0406(17) 0.637(2)
H32 H 0.7905 0.0792 0.6413
C32 C 0.6913(19) -0.0693(17) 0.5911(18)
H33 H 0.7358 -0.1047 0.5661
C33 C 0.462(2) -0.274(2) 0.327(2)
H34 H 0.5249 -0.2195 0.3409
C34 C 0.893(2) 0.333(2) 1.038(2)
H35 H 0.9070 0.3429 1.1091
C35 C 0.589(2) -0.1322(19) 0.5802(17)
C48 C 0.3428(19) -0.3873(16) 0.3481(19)
H47 H 0.3154 -0.4207 0.3826
C49 C 0.542(2) -0.2565(18) 0.528(2)
H48 H 0.6079 -0.2846 0.5394
H49 H 0.5059 -0.2792 0.5663
C50 C 0.357(3) -0.3432(17) 0.225(2)
H50 H 0.3380 -0.3432 0.1555
C51 C 0.2843(18) 0.0544(16) -0.0729(18)
H51 H 0.2651 0.1097 -0.0940
C52 C 0.1590(19) -0.1017(17) 0.2454(19)
C53 C 0.1618(18) -0.0853(16) 0.4924(18)
H52 H 0.1635 -0.0124 0.5222
C54 C 0.0795(17) -0.1169(17) 0.2893(18)
H53 H 0.0631 -0.0484 0.3138
H54 H 0.0036 -0.1745 0.2265
C55 C 0.324(2) 0.0604(17) 0.0324(18)
H55 H 0.3345 0.1187 0.0955
C56 C 0.565(3) 0.045(2) 0.663(3)
H56 H 0.5211 0.0856 0.6827
Cu1_2 Cu 0.2372(3) -0.0980(3) 0.7031(3)
Cu2_2 Cu 1.1354(3) 0.4764(2) 1.1209(3)
N4_2 N 0.1955(14) -0.1409(12) -0.4485(14)
N8_2 N -0.0213(19) -0.6290(16) 0.0126(19)
Cu3 Cu -0.6534(3) -0.6656(2) -0.7037(3)
N9 N -0.4976(17) -0.5620(16) -0.5927(19)
N10 N 0.1967(18) 0.2236(16) 0.1831(18)
N11 N 0.0224(15) 0.1163(13) 0.0215(15)
N12 N -0.3193(17) -0.4687(14) -0.4305(16)
C11 C -0.070(2) 0.0661(15) -0.1012(17)
H11 H -0.0404 0.0939 -0.1406
H12 H -0.1413 0.0852 -0.1116
C12 C 0.119(2) 0.1689(18) 0.207(2)
H13 H 0.1354 0.1769 0.2780
C13 C 0.1336(17) 0.1903(15) 0.0692(17)
H14 H 0.1615 0.2142 0.0295
C14 C 0.0176(17) 0.1035(16) 0.1058(19)
H15 H -0.0478 0.0555 0.0960
C19 C -0.210(2) -0.1218(19) -0.166(2)
H21 H -0.2531 -0.0825 -0.1435
C20 C -0.421(2) -0.5124(19) -0.616(2)
H22 H -0.4431 -0.5130 -0.6857
C21 C -0.254(2) -0.2447(19) -0.218(2)
H23 H -0.3237 -0.2844 -0.2280
C22 C -0.302(2) -0.459(2) -0.5153(19)
H24 H -0.2311 -0.4265 -0.5085
C42 C -0.1022(16) -0.0640(14) -0.1513(15)
C43 C -0.1844(17) -0.2987(15) -0.2529(16)
C44 C -0.225(2) -0.423(2) -0.311(2)
H42 H -0.1572 -0.4457 -0.3051
H43 H -0.2545 -0.4519 -0.2720
C45 C -0.4351(19) -0.5296(19) -0.480(2)
H44 H -0.4678 -0.5471 -0.4410
C46 C -0.043(2) -0.115(2) -0.1864(19)
H45 H 0.0263 -0.0734 -0.1769
C47 C -0.0800(19) -0.2330(16) -0.2399(19)
H46 H -0.0363 -0.2678 -0.2666
Cu3_2 Cu 0.3466(3) 0.3344(2) 0.2963(3)
N10_2 N -0.8033(18) -0.7764(16) -0.8169(18)
N13 N 0.884(3) -0.171(2) -0.540(3)
N14 N 0.8341(15) -0.2959(14) -0.7131(17)
N15 N 0.6458(15) -0.8935(13) -0.8693(15)
N16 N 0.603(2) -1.014(2) -1.035(2)
C5 C 0.8542(19) -0.5358(17) -0.737(2)
H5 H 0.9358 -0.4954 -0.6961
C6 C 0.7712(19) -0.5016(17) -0.8052(19)
C7 C 0.814(2) -0.140(2) -0.624(2)
H6 H 0.7893 -0.0786 -0.6117
C8 C 0.791(3) -0.212(2) -0.721(2)
H7 H 0.7486 -0.2074 -0.7888
C9 C 0.8135(19) -0.3915(16) -0.8123(19)
H8 H 0.8870 -0.3853 -0.8129
H9 H 0.7525 -0.3932 -0.8822
C10 C 0.886(2) -0.2721(18) -0.603(2)
H10 H 0.9192 -0.3177 -0.5722
C23 C 0.685(2) -0.972(2) -0.852(2)
H25 H 0.7231 -0.9765 -0.7831
C24 C 0.813(2) -0.6326(17) -0.732(2)
H26 H 0.8695 -0.6562 -0.6867
C36 C 0.693(2) -0.695(2) -0.790(2)
C37 C 0.6449(18) -0.5651(17) -0.8651(18)
H36 H 0.5874 -0.5422 -0.9099
C38 C 0.653(2) -0.7971(19) -0.7837(18)
H37 H 0.7081 -0.7898 -0.7087
H38 H 0.5743 -0.8067 -0.7928
C39 C 0.612(2) -0.654(2) -0.856(3)
H39 H 0.5303 -0.6935 -0.8955
C40 C 0.661(2) -1.046(2) -0.954(2)
H40 H 0.6804 -1.1106 -0.9668
C41 C 0.591(2) -0.914(2) -0.982(2)
H41 H 0.5551 -0.8707 -1.0150
O2 O -0.4432(17) -0.8452(15) -0.6169(17)
O4 O -1.081(2) -1.3382(17) -0.968(2)
O6 O 0.7239(17) 0.0306(13) -0.6085(15)
O8 O 0.7430(19) -1.2298(15) -0.9711(19)
loop_
_geom_bond_atom_site_label_1
_geom_bond_atom_site_label_2
_geom_bond_site_symmetry_1
_geom_bond_site_symmetry_2
W1 O14 1_555 1_555
W2 O18 1_555 1_555
W3 O3 1_555 1_555
W4 O1 1_555 1_555
W5 O10 1_555 1_555
W6 O5 1_555 1_555
W7 O18 1_555 1_555
W8 O11 1_555 1_555
W9 O15 1_555 1_555
W10 O1 1_555 1_555
W11 O14 1_555 1_555
W12 O3 1_555 1_555
Cu1 N3 1_555 1_555
Cu2 N7 1_555 1_555
Cu3 N9 1_555 1_555
Si1 O3 1_555 1_555
N1 C18 1_555 1_555
N2 C15 1_555 1_555
N3 C15 1_555 1_555
N4 C16 1_555 1_555
N5 C2 1_555 1_555
N6 C33 1_555 1_555
N7 C48 1_555 1_555
N8 C4 1_555 1_555
N9 C20 1_555 1_555
N10 C12 1_555 1_555
N11 C11 1_555 1_555
N12 C22 1_555 1_555
N13 C7 1_555 1_555
N14 C8 1_555 1_555
N15 C23 1_555 1_555
N16 C40 1_555 1_555
O3 W4 1_555 1_555
O7 W10 1_555 1_555
O9 W3 1_555 1_555
O10 W6 1_555 1_555
O11 W3 1_555 1_555
O12 W6 1_555 1_555
O13 W5 1_555 1_555
O14 Cu1 1_555 1_555
O15 W8 1_555 1_555
O16 W3 1_555 1_555
O17 W5 1_555 1_555
O18 W8 1_555 1_555
O19 W2 1_555 1_555
O20 W4 1_555 1_555
O21 W9 1_555 1_555
O22 W7 1_555 1_555
O23 W4 1_555 1_555
O24 W7 1_555 1_555
O25 W8 1_555 1_555
O26 W2 1_555 1_555
O27 W5 1_555 1_555
O28 W1 1_555 1_555
O29 W1 1_555 1_555
O30 W5 1_555 1_555
O31 W2 1_555 1_555
O32 W5 1_555 1_555
O33 W3 1_555 1_555
O34 W3 1_555 1_555
O35 W1 1_555 1_555
O36 W1 1_555 1_555
O37 W10 1_555 1_555
O38 W1 1_555 1_555
O39 W2 1_555 1_555
O40 W4 1_555 1_555
O41 W7 1_555 1_555
O42 W12 1_555 1_555
O43 W9 1_555 1_555
O44 W11 1_555 1_555
C1 C2 1_555 1_555
C2 H1 1_555 1_555
H2 C2 1_555 1_555
C3 H3 1_555 1_555
C4 N5 1_555 1_555
H4 C4 1_555 1_555
C5 H5 1_555 1_555
C6 C5 1_555 1_555
C7 H6 1_555 1_555
C8 C7 1_555 1_555
H7 C8 1_555 1_555
C9 N14 1_555 1_555
H8 C9 1_555 1_555
H9 C9 1_555 1_555
C10 N13 1_555 1_555
H10 C10 1_555 1_555
C11 H11 1_555 1_555
H12 C11 1_555 1_555
C12 H13 1_555 1_555
C13 N10 1_555 1_555
H14 C13 1_555 1_555
C14 N11 1_555 1_555
H15 C14 1_555 1_555
C15 H16 1_555 1_555
C16 H17 1_555 1_555
C17 N2 1_555 1_555
H18 C17 1_555 1_555
H19 C17 1_555 1_555
C18 C16 1_555 1_555
H20 C18 1_555 1_555
C19 H21 1_555 1_555
C20 H22 1_555 1_555
C21 C19 1_555 1_555
H23 C21 1_555 1_555
C22 C20 1_555 1_555
H24 C22 1_555 1_555
C23 H25 1_555 1_555
C24 C5 1_555 1_555
H26 C24 1_555 1_555
C25 H27 1_555 1_555
C26 H28 1_555 1_555
C27 C26 1_555 1_555
H29 C27 1_555 1_555
C28 C25 1_555 1_555
H30 C28 1_555 1_555
C29 C17 1_555 1_555
C30 N5 1_555 1_555
H31 C30 1_555 1_555
C31 C1 1_555 1_555
H32 C31 1_555 1_555
C32 C31 1_555 1_555
H33 C32 1_555 1_555
C33 H34 1_555 1_555
C34 N8 1_555 1_555
H35 C34 1_555 1_555
C35 C3 1_555 1_555
C36 C24 1_555 1_555
C37 C6 1_555 1_555
H36 C37 1_555 1_555
C38 N15 1_555 1_555
H37 C38 1_555 1_555
H38 C38 1_555 1_555
C39 C36 1_555 1_555
H39 C39 1_555 1_555
C40 C23 1_555 1_555
H40 C40 1_555 1_555
C41 N15 1_555 1_555
H41 C41 1_555 1_555
C42 C11 1_555 1_555
C43 C21 1_555 1_555
C44 N12 1_555 1_555
H42 C44 1_555 1_555
H43 C44 1_555 1_555
C45 N9 1_555 1_555
H44 C45 1_555 1_555
C46 C42 1_555 1_555
H45 C46 1_555 1_555
C47 C43 1_555 1_555
H46 C47 1_555 1_555
C48 N6 1_555 1_555
H47 C48 1_555 1_555
C49 N6 1_555 1_555
H48 C49 1_555 1_555
H49 C49 1_555 1_555
C50 N7 1_555 1_555
H50 C50 1_555 1_555
C51 N3 1_555 1_555
H51 C51 1_555 1_555
C52 C25 1_555 1_555
C53 N1 1_555 1_555
H52 C53 1_555 1_555
C54 N1 1_555 1_555
H53 C54 1_555 1_555
H54 C54 1_555 1_555
C55 N2 1_555 1_555
H55 C55 1_555 1_555
C56 C1 1_555 1_555
H56 C56 1_555 1_555
Cu1_2 N4 1_555 1_555
Cu2_2 N8 1_555 1_555
Cu3_2 N10 1_555 1_555
N4_2 Cu1 1_555 1_555
N8_2 Cu2 1_555 1_555
N10_2 Cu3 1_555 1_555
W2 O36 1_555 1_555
W4 O9 1_555 1_555
W6 O13 1_555 1_555
W6 O19 1_555 1_555
W6 O29 1_555 1_555
W7 O26 1_555 1_555
W7 O30 1_555 1_555
W8 O22 1_555 1_555
W8 O31 1_555 1_555
W9 O28 1_555 1_555
W9 O33 1_555 1_555
W9 O35 1_555 1_555
W10 O10 1_555 1_555
W10 O12 1_555 1_555
W10 O27 1_555 1_555
W11 O20 1_555 1_555
W11 O21 1_555 1_555
W11 O35 1_555 1_555
W11 O37 1_555 1_555
W12 O23 1_555 1_555
W12 O24 1_555 1_555
W12 O32 1_555 1_555
W12 O34 1_555 1_555
Cu2 O27 1_555 1_555
Si1 O10 1_555 1_555
Si1 O18 1_555 1_555
Si1 O35 1_555 1_555
N4 C53 1_555 1_555
N11 C13 1_555 1_555
N12 C45 1_555 1_555
N14 C10 1_555 1_555
N16 C41 1_555 1_555
C3 C56 1_555 1_555
C6 C9 1_555 1_555
C12 C14 1_555 1_555
C19 C42 1_555 1_555
C26 C52 1_555 1_555
C27 C29 1_555 1_555
C28 C29 1_555 1_555
C30 C34 1_555 1_555
C32 C35 1_555 1_555
C33 C50 1_555 1_555
C35 C49 1_555 1_555
C36 C38 1_555 1_555
C37 C39 1_555 1_555
C43 C44 1_555 1_555
C46 C47 1_555 1_555
C51 C55 1_555 1_555
C52 C54 1_555 1_555

#END
