
#######################################################################
#
#                 Cambridge Crystallographic Data Centre
#                                CCDC 
#
#######################################################################
#
# If this CIF has been generated from an entry in the Cambridge 
# Structural Database, then it will include bibliographic, chemical, 
# crystal, experimental, refinement or atomic coordinate data resulting 
# from the CCDC's data processing and validation procedures.
#
#######################################################################

data_CUQYIY
_symmetry_cell_setting           monoclinic
_symmetry_space_group_name_H-M   'P 21/c'
_symmetry_Int_Tables_number      14
_space_group_name_Hall           '-P 2ybc'
loop_
_symmetry_equiv_pos_site_id
_symmetry_equiv_pos_as_xyz
1 x,y,z
2 -x,1/2+y,1/2-z
3 -x,-y,-z
4 x,1/2-y,1/2+z
_cell_length_a                   21.860(3)
_cell_length_b                   8.2319(10)
_cell_length_c                   13.3296(17)
_cell_angle_alpha                90
_cell_angle_beta                 92.629(2)
_cell_angle_gamma                90
_cell_volume                     2396.13
loop_
_atom_site_label
_atom_site_type_symbol
_atom_site_fract_x
_atom_site_fract_y
_atom_site_fract_z
Pb1 Pb -0.090222(11) 1.10336(3) 0.957032(16)
Pb2 Pb 0.025124(11) 1.02026(3) 0.672446(16)
O1 O -0.0686(2) 0.9512(5) 0.7869(3)
O2 O 0.1335(2) 0.4151(5) 1.0744(3)
O3 O -0.1583(2) 0.9019(5) 0.8588(3)
C1 C -0.1200(3) 0.8735(7) 0.7893(4)
O4 O 0.0588(2) 0.5562(5) 0.9958(3)
C2 C 0.1143(3) 0.5114(7) 1.0019(4)
N1 N -0.1976(2) 0.6890(6) 0.7174(4)
C3 C -0.1384(3) 0.7483(7) 0.7152(4)
C4 C -0.2049(3) 0.5960(7) 0.6341(5)
O5 O 0.1174(2) 0.8318(5) 0.7132(3)
N2 N 0.2140(2) 0.6622(6) 0.8028(4)
N3 N -0.1539(2) 0.5886(6) 0.5792(4)
C5 C -0.2642(3) 0.5195(7) 0.6050(4)
C6 C -0.3244(3) 0.3429(8) 0.4979(5)
H1 H -0.3274 0.2702 0.4444
C7 C -0.2691(3) 0.4066(7) 0.5267(4)
H2 H -0.2342 0.3750 0.4942
C8 C -0.1109(3) 0.6831(7) 0.6330(5)
C9 C 0.2463(3) 0.5566(8) 0.8642(5)
C10 C -0.3164(3) 0.5615(7) 0.6553(5)
H3 H -0.3135 0.6324 0.7096
Cl1 Cl -0.44702(10) 0.3057(2) 0.50661(15)
Cl2 Cl 0.49588(10) 0.3267(3) 0.76383(18)
O6 O 0.0646(2) 0.8219(5) 0.8500(3)
N4 N 0.2151(2) 0.4978(6) 0.9419(4)
C11 C 0.1567(3) 0.6726(7) 0.8479(5)
C12 C 0.1094(3) 0.7821(7) 0.8022(5)
C13 C 0.3278(3) 0.5033(8) 0.7401(5)
H4 H 0.3014 0.5413 0.6887
C14 C 0.3539(3) 0.4582(8) 0.9163(5)
H5 H 0.3452 0.4651 0.9839
C15 C 0.3820(3) 0.4494(8) 0.7168(5)
H6 H 0.3922 0.4434 0.6499
C16 C -0.3740(3) 0.4959(7) 0.6233(5)
H7 H -0.4094 0.5282 0.6539
C17 C 0.1596(3) 0.5723(7) 0.9338(4)
C18 C -0.3769(3) 0.3858(7) 0.5478(5)
C19 C 0.4078(3) 0.4054(8) 0.8948(5)
H8 H 0.4354 0.3706 0.9454
C20 C 0.4239(3) 0.4015(8) 0.7922(5)
C21 C 0.3068(3) 0.5066(8) 0.8438(5)
O7 O -0.00621(19) 0.7493(5) 0.6514(3)
C22 C -0.0503(3) 0.6946(7) 0.5951(4)
O8 O -0.03639(19) 0.6332(5) 0.5096(3)
Pb3 Pb 0.229508(11) 0.31682(3) 1.100546(16)
O9 O 0.2386(2) 0.6093(5) 1.1558(3)
Pb1A Pb 0.090222(11) 0.60336(3) 0.542968(16)
Pb1B Pb 0.090222(11) 0.89664(3) 1.042968(16)
Pb1C Pb -0.090222(11) 0.39664(3) 0.457032(16)
Pb2A Pb -0.025124(11) 0.52026(3) 0.827554(16)
Pb2C Pb 0.025124(11) 0.47974(3) 1.172446(16)
O2C O 0.1335(2) 1.0849(5) 0.5744(3)
O3B O 0.1583(2) 0.0981(5) 1.1412(3)
O4A O -0.0588(2) 1.0562(5) 0.5042(3)
O4C O 0.0588(2) 0.9438(5) 0.4958(3)
N1B N 0.1976(2) 0.3110(6) 1.2826(4)
N3C N -0.1539(2) 0.9114(6) 1.0792(4)
O6B O -0.0646(2) 1.1781(5) 1.1500(3)
O7A O 0.00621(19) 1.2493(5) 0.8486(3)
O8A O 0.03639(19) 1.1332(5) 0.9904(3)
O8C O -0.03639(19) 0.8668(5) 1.0096(3)
Pb3B Pb -0.229508(11) 0.68318(3) 0.899454(16)
loop_
_geom_bond_atom_site_label_1
_geom_bond_atom_site_label_2
_geom_bond_site_symmetry_1
_geom_bond_site_symmetry_2
Pb1 O1 1_555 1_555
Pb2 O1 1_555 1_555
O1 C1 1_555 1_555
O2 C2 1_555 1_555
O3 Pb1 1_555 1_555
C1 O3 1_555 1_555
O4 C2 1_555 1_555
C2 C17 1_555 1_555
N1 C3 1_555 1_555
C3 C1 1_555 1_555
C4 N1 1_555 1_555
O5 Pb2 1_555 1_555
N2 C9 1_555 1_555
N3 C4 1_555 1_555
C5 C4 1_555 1_555
C6 H1 1_555 1_555
C7 C5 1_555 1_555
H2 C7 1_555 1_555
C8 C3 1_555 1_555
C9 N4 1_555 1_555
C10 C5 1_555 1_555
H3 C10 1_555 1_555
Cl1 C18 1_555 1_555
Cl2 C20 1_555 1_555
O6 C12 1_555 1_555
N4 C17 1_555 1_555
C11 N2 1_555 1_555
C12 O5 1_555 1_555
C13 H4 1_555 1_555
C14 H5 1_555 1_555
C15 C13 1_555 1_555
H6 C15 1_555 1_555
C16 C10 1_555 1_555
H7 C16 1_555 1_555
C17 C11 1_555 1_555
C18 C6 1_555 1_555
C19 C14 1_555 1_555
H8 C19 1_555 1_555
C20 C15 1_555 1_555
C21 C9 1_555 1_555
O7 Pb2 1_555 1_555
C22 C8 1_555 1_555
O8 C22 1_555 1_555
Pb3 O2 1_555 1_555
O9 Pb3 1_555 1_555
Pb1A O7 1_555 1_555
Pb1B O6 1_555 1_555
Pb1C N3 1_555 1_555
Pb2A O4 1_555 1_555
Pb2C O2 1_555 1_555
O2C Pb2 1_555 1_555
O3B Pb3 1_555 1_555
O4A Pb2 1_555 1_555
O4C Pb2 1_555 1_555
N1B Pb3 1_555 1_555
N3C Pb1 1_555 1_555
O6B Pb1 1_555 1_555
O7A Pb1 1_555 1_555
O8A Pb1 1_555 1_555
O8C Pb1 1_555 1_555
Pb3B O3 1_555 1_555
O4 Pb2C 1_555 1_555
N1 Pb3B 1_555 1_555
N3 C8 1_555 1_555
C6 C7 1_555 1_555
N4 Pb3 1_555 1_555
C11 C12 1_555 1_555
C13 C21 1_555 1_555
C14 C21 1_555 1_555
C16 C18 1_555 1_555
C19 C20 1_555 1_555
O7 C22 1_555 1_555
O8 Pb1A 1_555 1_555
O8 Pb1C 1_555 1_555
Pb1B O8A 1_555 1_555
Pb1B O8C 1_555 1_555

#END
