
#######################################################################
#
#                 Cambridge Crystallographic Data Centre
#                                CCDC 
#
#######################################################################
#
# If this CIF has been generated from an entry in the Cambridge 
# Structural Database, then it will include bibliographic, chemical, 
# crystal, experimental, refinement or atomic coordinate data resulting 
# from the CCDC's data processing and validation procedures.
#
#######################################################################

data_CUQYEU
_symmetry_cell_setting           tetragonal
_symmetry_space_group_name_H-M   'I 41/a'
_symmetry_Int_Tables_number      88
_space_group_name_Hall           '-I 4ad'
loop_
_symmetry_equiv_pos_site_id
_symmetry_equiv_pos_as_xyz
1 x,y,z
2 1/2-x,-y,1/2+z
3 3/4-y,1/4+x,1/4+z
4 3/4+y,3/4-x,3/4+z
5 1/2+x,1/2+y,1/2+z
6 -x,1/2-y,z
7 1/4-y,3/4+x,3/4+z
8 1/4+y,1/4-x,1/4+z
9 -x,-y,-z
10 1/2+x,y,1/2-z
11 1/4+y,3/4-x,3/4-z
12 1/4-y,1/4+x,1/4-z
13 1/2-x,1/2-y,1/2-z
14 x,1/2+y,-z
15 3/4+y,1/4-x,1/4-z
16 3/4-y,3/4+x,3/4-z
_cell_length_a                   17.1778(4)
_cell_length_b                   17.1778(4)
_cell_length_c                   15.9471(11)
_cell_angle_alpha                90
_cell_angle_beta                 90
_cell_angle_gamma                90
_cell_volume                     4705.62
loop_
_atom_site_label
_atom_site_type_symbol
_atom_site_fract_x
_atom_site_fract_y
_atom_site_fract_z
Pb1 Pb 1.0000 0.2500 0.008473(19)
Cl1 Cl 0.59205(13) -0.19271(9) 0.22733(13)
O1 O 0.6745(2) 0.3981(2) 0.1233(3)
H1 H 0.7180 0.3836 0.1092
C1 C 0.6801(3) 0.1406(3) 0.1827(3)
O2 O 0.8809(2) 0.2480(2) 0.1127(3)
O3 O 0.8113(2) 0.3583(2) 0.1006(3)
C2 C 0.8196(3) 0.2867(3) 0.1165(4)
C3 C 0.7492(3) 0.2419(3) 0.1426(4)
N1 N 0.7531(2) 0.1639(2) 0.1600(3)
C4 C 0.6589(3) 0.0588(3) 0.1978(3)
O4 O 0.5646(2) 0.3462(2) 0.1665(3)
C5 C 0.7132(3) 0.0047(3) 0.2238(4)
H2 H 0.7638 0.0206 0.2355
N2 N 0.6308(2) 0.1994(2) 0.1827(3)
C6 C 0.6931(4) -0.0735(3) 0.2328(4)
H3 H 0.7298 -0.1101 0.2496
C7 C 0.5830(3) 0.0349(3) 0.1828(4)
H4 H 0.5458 0.0710 0.1661
C8 C 0.6180(4) -0.0949(3) 0.2161(4)
C9 C 0.6729(3) 0.2634(3) 0.1578(3)
C10 C 0.5623(4) -0.0426(3) 0.1926(4)
H5 H 0.5113 -0.0587 0.1832
C11 C 0.6343(3) 0.3386(3) 0.1497(4)
Cl1E Cl 1.40795(13) 0.69271(9) 0.22733(13)
O1E O 1.3255(2) 0.1019(2) 0.1233(3)
H1E H 1.2820 0.1164 0.1092
C1E C 1.3199(3) 0.3594(3) 0.1827(3)
O2E O 1.1191(2) 0.2520(2) 0.1127(3)
O3E O 1.1887(2) 0.1417(2) 0.1006(3)
C2E C 1.1804(3) 0.2133(3) 0.1165(4)
C3E C 1.2508(3) 0.2581(3) 0.1426(4)
N1E N 1.2469(2) 0.3361(2) 0.1600(3)
C4E C 1.3411(3) 0.4412(3) 0.1978(3)
O4E O 1.4354(2) 0.1538(2) 0.1665(3)
C5E C 1.2868(3) 0.4953(3) 0.2238(4)
H2E H 1.2362 0.4794 0.2355
N2E N 1.3692(2) 0.3006(2) 0.1827(3)
C6E C 1.3069(4) 0.5735(3) 0.2328(4)
H3E H 1.2702 0.6101 0.2496
C7E C 1.4170(3) 0.4651(3) 0.1828(4)
H4E H 1.4542 0.4290 0.1661
C8E C 1.3820(4) 0.5949(3) 0.2161(4)
C9E C 1.3271(3) 0.2366(3) 0.1578(3)
C10E C 1.4377(4) 0.5426(3) 0.1926(4)
H5E H 1.4887 0.5587 0.1832
C11E C 1.3657(3) 0.1614(3) 0.1497(4)
Pb1B Pb 0.5000 0.2500 0.258473(19)
Pb1B_2 Pb 1.5000 0.2500 0.258473(19)
O4C O 1.0962(2) 0.1854(2) -0.0835(3)
O4F O 0.9038(2) 0.3146(2) -0.0835(3)
N2C N 0.9494(2) 0.1192(2) -0.0673(3)
N2F N 1.0506(2) 0.3808(2) -0.0673(3)
loop_
_geom_bond_atom_site_label_1
_geom_bond_atom_site_label_2
_geom_bond_site_symmetry_1
_geom_bond_site_symmetry_2
Pb1 O2 1_555 1_555
Cl1 C8 1_555 1_555
O1 H1 1_555 1_555
C1 N1 1_555 1_555
O2 C2 1_555 1_555
O3 C2 1_555 1_555
C2 C3 1_555 1_555
C3 N1 1_555 1_555
C4 C1 1_555 1_555
O4 C11 1_555 1_555
C5 C4 1_555 1_555
H2 C5 1_555 1_555
N2 C1 1_555 1_555
C6 C5 1_555 1_555
H3 C6 1_555 1_555
C7 C4 1_555 1_555
H4 C7 1_555 1_555
C8 C6 1_555 1_555
C9 C3 1_555 1_555
C10 C7 1_555 1_555
H5 C10 1_555 1_555
C11 O1 1_555 1_555
Cl1E C8E 1_555 1_555
O1E H1E 1_555 1_555
C1E N1E 1_555 1_555
O2E Pb1 1_555 1_555
O3E C2E 1_555 1_555
C2E O2E 1_555 1_555
C3E C2E 1_555 1_555
N1E C3E 1_555 1_555
C4E C1E 1_555 1_555
O4E C11E 1_555 1_555
C5E C4E 1_555 1_555
H2E C5E 1_555 1_555
N2E C1E 1_555 1_555
C6E C5E 1_555 1_555
H3E C6E 1_555 1_555
C7E C4E 1_555 1_555
H4E C7E 1_555 1_555
C8E C6E 1_555 1_555
C9E C3E 1_555 1_555
C10E C7E 1_555 1_555
H5E C10E 1_555 1_555
C11E O1E 1_555 1_555
Pb1B O4 1_555 1_555
Pb1B_2 O4E 1_555 1_555
O4C Pb1 1_555 1_555
O4F Pb1 1_555 1_555
N2C Pb1 1_555 1_555
N2F Pb1 1_555 1_555
N2 C9 1_555 1_555
N2 Pb1B 1_555 1_555
C8 C10 1_555 1_555
C9 C11 1_555 1_555
N2E C9E 1_555 1_555
N2E Pb1B_2 1_555 1_555
C8E C10E 1_555 1_555
C9E C11E 1_555 1_555

#END
