
#######################################################################
#
#                 Cambridge Crystallographic Data Centre
#                                CCDC 
#
#######################################################################
#
# If this CIF has been generated from an entry in the Cambridge 
# Structural Database, then it will include bibliographic, chemical, 
# crystal, experimental, refinement or atomic coordinate data resulting 
# from the CCDC's data processing and validation procedures.
#
#######################################################################

data_CUQZIZ
_symmetry_cell_setting           triclinic
_symmetry_space_group_name_H-M   'P -1'
_symmetry_Int_Tables_number      2
_space_group_name_Hall           '-P 1'
loop_
_symmetry_equiv_pos_site_id
_symmetry_equiv_pos_as_xyz
1 x,y,z
2 -x,-y,-z
_cell_length_a                   6.3255(4)
_cell_length_b                   6.7760(5)
_cell_length_c                   8.0759(6)
_cell_angle_alpha                104.9920(10)
_cell_angle_beta                 101.6790(10)
_cell_angle_gamma                99.1200(10)
_cell_volume                     319.202
loop_
_atom_site_label
_atom_site_type_symbol
_atom_site_fract_x
_atom_site_fract_y
_atom_site_fract_z
V1 V 0.16495(6) 0.27063(6) 0.34919(5)
Na1 Na 0.2102(2) 0.44332(19) 0.84588(15)
P1 P 0.31466(9) 0.74174(9) 0.58455(8)
H1 H 0.336(5) 0.933(4) 0.571(4)
O1 O 0.2630(3) 0.5790(3) 0.4026(2)
O2 O 0.1504(3) 0.6970(3) 0.6922(2)
O3 O 0.5460(3) 0.7707(3) 0.6972(2)
O4 O 0.1950(3) 0.2447(3) 0.5428(2)
O5 O 0.4330(4) 0.6894(4) 1.1230(3)
H2 H 0.388(6) 0.652(6) 1.205(4)
H3 H 0.450(7) 0.811(3) 1.117(5)
O6 O 0.0923(3) 0.2716(2) 0.0626(2)
O7 O -0.0420(3) 0.0417(3) -0.2072(2)
C1 C 0.0144(4) 0.0902(3) -0.0412(3)
O6A O -0.0923(3) -0.2716(2) -0.0626(2)
O7A O 0.0420(3) -0.0417(3) 0.2072(2)
C1A C -0.0144(4) -0.0902(3) 0.0412(3)
V1A V -0.16495(6) -0.27063(6) -0.34919(5)
Na1A Na -0.2102(2) -0.44332(19) -0.84588(15)
P1A P -0.31466(9) -0.74174(9) -0.58455(8)
H1A H -0.336(5) -0.933(4) -0.571(4)
O1A O -0.2630(3) -0.5790(3) -0.4026(2)
O2A O -0.1504(3) -0.6970(3) -0.6922(2)
O3A O -0.5460(3) -0.7707(3) -0.6972(2)
O4A O -0.1950(3) -0.2447(3) -0.5428(2)
O5A O -0.4330(4) -0.6894(4) -1.1230(3)
H2A H -0.388(6) -0.652(6) -1.205(4)
H3A H -0.450(7) -0.811(3) -1.117(5)
V1_2 V -0.83505(6) -0.72937(6) -0.65081(5)
V1_3 V 0.16495(6) -0.72937(6) -0.65081(5)
V1A_2 V -0.16495(6) 0.72937(6) 0.65081(5)
V1A_3 V 0.83505(6) 0.72937(6) 0.65081(5)
Na1_2 Na -0.7898(2) -0.55668(19) -1.15412(15)
Na1_3 Na 0.2102(2) -0.55668(19) -0.15412(15)
Na1_4 Na 0.2102(2) 0.44332(19) -0.15412(15)
Na1A_2 Na -0.2102(2) -0.44332(19) 0.15412(15)
Na1A_3 Na -0.2102(2) 0.55668(19) 0.15412(15)
Na1A_4 Na 0.7898(2) 0.55668(19) 1.15412(15)
O2_2 O 0.1504(3) -0.3030(3) -0.3078(2)
O2A_2 O -0.1504(3) 0.3030(3) 0.3078(2)
O3_2 O -0.4540(3) -0.2293(3) -0.3028(2)
O3A_2 O 0.4540(3) 0.2293(3) 0.3028(2)
O5_2 O -0.5670(4) -0.3106(4) -0.8770(3)
O5A_2 O 0.5670(4) 0.3106(4) 0.8770(3)
O6_2 O 0.0923(3) -0.7284(2) -0.9374(2)
O6_3 O 0.0923(3) 0.2716(2) 1.0626(2)
O6A_2 O -0.0923(3) -0.2716(2) -1.0626(2)
O6A_3 O -0.0923(3) 0.7284(2) 0.9374(2)
O7_2 O -0.0420(3) 0.0417(3) 0.7928(2)
O7A_2 O 0.0420(3) -0.0417(3) -0.7928(2)
loop_
_geom_bond_atom_site_label_1
_geom_bond_atom_site_label_2
_geom_bond_site_symmetry_1
_geom_bond_site_symmetry_2
V1 O1 1_555 1_555
Na1 O2 1_555 1_555
P1 H1 1_555 1_555
O1 P1 1_555 1_555
O2 P1 1_555 1_555
O3 P1 1_555 1_555
O4 V1 1_555 1_555
O5 Na1 1_555 1_555
H2 O5 1_555 1_555
H3 O5 1_555 1_555
O6 V1 1_555 1_555
O7 C1 1_555 1_555
C1 O6 1_555 1_555
O6A C1A 1_555 1_555
O7A V1 1_555 1_555
C1A C1 1_555 1_555
V1A O7 1_555 1_555
Na1A O2A 1_555 1_555
P1A H1A 1_555 1_555
O1A V1A 1_555 1_555
O2A P1A 1_555 1_555
O3A P1A 1_555 1_555
O4A V1A 1_555 1_555
O5A Na1A 1_555 1_555
H2A O5A 1_555 1_555
H3A O5A 1_555 1_555
V1_2 O3A 1_555 1_555
V1_3 O2A 1_555 1_555
V1A_2 O2 1_555 1_555
V1A_3 O3 1_555 1_555
Na1_2 O5A 1_555 1_555
Na1_3 O6A 1_555 1_555
Na1_4 O6 1_555 1_555
Na1A_2 O6A 1_555 1_555
Na1A_3 O6 1_555 1_555
Na1A_4 O5 1_555 1_555
O2_2 V1A 1_555 1_555
O2A_2 V1 1_555 1_555
O3_2 V1A 1_555 1_555
O3A_2 V1 1_555 1_555
O5_2 Na1A 1_555 1_555
O5A_2 Na1 1_555 1_555
O6_2 Na1A 1_555 1_555
O6_3 Na1 1_555 1_555
O6A_2 Na1A 1_555 1_555
O6A_3 Na1 1_555 1_555
O7_2 Na1 1_555 1_555
O7A_2 Na1A 1_555 1_555
Na1 O4 1_555 1_555
O7 Na1_4 1_555 1_555
O6A V1A 1_555 1_555
O7A C1A 1_555 1_555
O7A Na1A_2 1_555 1_555
Na1A O4A 1_555 1_555
P1A O1A 1_555 1_555
V1_3 O6_2 1_555 1_555
V1A_2 O6A_3 1_555 1_555
Na1_2 O5_2 1_555 1_555
Na1_3 O2_2 1_555 1_555
Na1A_3 O2A_2 1_555 1_555
Na1A_4 O5A_2 1_555 1_555

#END
