
#######################################################################
#
#                 Cambridge Crystallographic Data Centre
#                                CCDC 
#
#######################################################################
#
# If this CIF has been generated from an entry in the Cambridge 
# Structural Database, then it will include bibliographic, chemical, 
# crystal, experimental, refinement or atomic coordinate data resulting 
# from the CCDC's data processing and validation procedures.
#
#######################################################################

data_CUQZAR
_symmetry_cell_setting           monoclinic
_symmetry_space_group_name_H-M   'P 21/n'
_symmetry_Int_Tables_number      14
_space_group_name_Hall           '-P 2yn'
loop_
_symmetry_equiv_pos_site_id
_symmetry_equiv_pos_as_xyz
1 x,y,z
2 1/2-x,1/2+y,1/2-z
3 -x,-y,-z
4 1/2+x,1/2-y,1/2+z
_cell_length_a                   9.4958(8)
_cell_length_b                   13.4085(11)
_cell_length_c                   19.4018(16)
_cell_angle_alpha                90
_cell_angle_beta                 99.3030(10)
_cell_angle_gamma                90
_cell_volume                     2437.83
loop_
_atom_site_label
_atom_site_type_symbol
_atom_site_fract_x
_atom_site_fract_y
_atom_site_fract_z
Pb1 Pb 0.47949(2) 0.516768(17) 0.115788(12)
Cl1 Cl 0.80247(19) 0.50412(13) 0.07266(10)
Cl2 Cl 0.2529(2) 0.86431(15) 0.25273(10)
O1 O 0.4920(4) 0.6040(3) 0.00556(19)
O2 O 0.4645(4) 0.5717(3) 0.2383(2)
N1 N 0.6425(5) 0.6543(3) 0.1548(2)
N2 N 0.3133(5) 0.6715(4) 0.0930(2)
C1 C 0.2225(6) 0.7249(5) 0.1238(3)
O3 O 0.4606(5) 0.7397(4) -0.0591(2)
N3 N 0.1885(6) 0.8107(4) 0.0886(3)
C2 C 0.7827(6) 0.7049(5) 0.0594(3)
O4 O 0.6856(6) 0.8273(4) 0.3446(2)
H1 H 0.6367 0.7769 0.3369
C3 C 0.4374(7) 0.6877(5) -0.0093(3)
C4 C 0.7344(6) 0.7139(5) 0.1280(3)
C5 C 0.3382(6) 0.7258(4) 0.0362(3)
C6 C 0.6310(6) 0.6928(4) 0.2192(3)
C7 C 0.0971(7) 0.7202(6) 0.2993(3)
H2 H 0.0981 0.7605 0.3384
C8 C 0.5367(6) 0.6441(5) 0.2631(3)
O5 O 0.5355(5) 0.6779(4) 0.3235(2)
N4 N 0.7804(5) 0.7875(4) 0.1738(3)
C9 C 0.1592(6) 0.6931(5) 0.1848(3)
C10 C 0.0926(7) 0.6016(5) 0.1837(4)
H3 H 0.0920 0.5602 0.1451
C11 C 0.2591(7) 0.8125(5) 0.0325(3)
C12 C 0.7513(7) 0.8450(5) 0.2918(3)
O6 O 0.1497(6) 0.9598(4) -0.0139(3)
C13 C 0.7159(6) 0.7756(4) 0.2318(3)
C14 C 0.8184(6) 0.6162(6) 0.0321(3)
C15 C 0.2376(8) 0.8966(5) -0.0184(4)
C16 C 0.1632(7) 0.7512(5) 0.2447(3)
O7 O 0.3158(6) 0.8942(4) -0.0687(3)
H4 H 0.3818 0.8548 -0.0582
C17 C 0.0270(8) 0.5698(6) 0.2381(4)
H5 H -0.0189 0.5083 0.2360
C18 C 0.0306(8) 0.6304(7) 0.2956(4)
H6 H -0.0135 0.6094 0.3325
C19 C 0.7955(8) 0.7956(6) 0.0222(3)
H7 H 0.7663 0.8559 0.0388
C20 C 0.8705(7) 0.6144(7) -0.0309(4)
H8 H 0.8950 0.5542 -0.0496
C21 C 0.8514(8) 0.7916(7) -0.0382(4)
H9 H 0.8666 0.8503 -0.0614
C22 C 0.8853(8) 0.7017(8) -0.0649(4)
H10 H 0.9192 0.7003 -0.1072
O8 O 0.8345(5) 0.9126(4) 0.2895(2)
H11 H 0.122(5) 0.852(4) 0.093(3)
H12 H 0.844(5) 0.831(4) 0.168(3)
Pb1A Pb 1.02051(2) 1.016768(17) 0.384212(12)
O8A O 0.6655(5) 0.4126(4) 0.2105(2)
O9 O 0.0206(6) 0.0641(4) 0.8640(3)
H13 H 0.003(9) 0.029(7) 0.829(5)
H14 H 0.064(7) 0.040(6) 0.890(4)
loop_
_geom_bond_atom_site_label_1
_geom_bond_atom_site_label_2
_geom_bond_site_symmetry_1
_geom_bond_site_symmetry_2
Pb1 O1 1_555 1_555
Cl1 C14 1_555 1_555
Cl2 C16 1_555 1_555
O1 C3 1_555 1_555
O2 Pb1 1_555 1_555
N1 Pb1 1_555 1_555
N2 Pb1 1_555 1_555
C1 N2 1_555 1_555
O3 C3 1_555 1_555
N3 C1 1_555 1_555
C2 C4 1_555 1_555
O4 H1 1_555 1_555
C3 C5 1_555 1_555
C4 N1 1_555 1_555
C5 N2 1_555 1_555
C6 N1 1_555 1_555
C7 H2 1_555 1_555
C8 O2 1_555 1_555
O5 C8 1_555 1_555
N4 C4 1_555 1_555
C9 C1 1_555 1_555
C10 C9 1_555 1_555
H3 C10 1_555 1_555
C11 N3 1_555 1_555
C12 O4 1_555 1_555
O6 C15 1_555 1_555
C13 C6 1_555 1_555
C14 C2 1_555 1_555
C15 C11 1_555 1_555
C16 C7 1_555 1_555
O7 C15 1_555 1_555
H4 O7 1_555 1_555
C17 C10 1_555 1_555
H5 C17 1_555 1_555
C18 C7 1_555 1_555
H6 C18 1_555 1_555
C19 C2 1_555 1_555
H7 C19 1_555 1_555
C20 C14 1_555 1_555
H8 C20 1_555 1_555
C21 C19 1_555 1_555
H9 C21 1_555 1_555
C22 C20 1_555 1_555
H10 C22 1_555 1_555
O8 C12 1_555 1_555
H11 N3 1_555 1_555
H12 N4 1_555 1_555
O9 H13 1_555 1_555
H14 O9 1_555 1_555
Pb1A O8 1_555 1_555
O8A Pb1 1_555 1_555
C5 C11 1_555 1_555
C6 C8 1_555 1_555
N4 C13 1_555 1_555
C9 C16 1_555 1_555
C12 C13 1_555 1_555
C17 C18 1_555 1_555
C21 C22 1_555 1_555

#END
