
#######################################################################
#
#                 Cambridge Crystallographic Data Centre
#                                CCDC 
#
#######################################################################
#
# If this CIF has been generated from an entry in the Cambridge 
# Structural Database, then it will include bibliographic, chemical, 
# crystal, experimental, refinement or atomic coordinate data resulting 
# from the CCDC's data processing and validation procedures.
#
#######################################################################

data_CUQZEV
_symmetry_cell_setting           monoclinic
_symmetry_space_group_name_H-M   'C 2/c'
_symmetry_Int_Tables_number      15
_space_group_name_Hall           '-C 2yn'
loop_
_symmetry_equiv_pos_site_id
_symmetry_equiv_pos_as_xyz
1 x,y,z
2 -x,y,1/2-z
3 1/2+x,1/2+y,z
4 1/2-x,1/2+y,1/2-z
5 -x,-y,-z
6 x,-y,1/2+z
7 1/2-x,1/2-y,-z
8 1/2+x,1/2-y,1/2+z
_cell_length_a                   17.749(15)
_cell_length_b                   6.370(4)
_cell_length_c                   13.977(9)
_cell_angle_alpha                90
_cell_angle_beta                 115.421(13)
_cell_angle_gamma                90
_cell_volume                     1427.25
loop_
_atom_site_label
_atom_site_type_symbol
_atom_site_fract_x
_atom_site_fract_y
_atom_site_fract_z
K1 K 0.91454(5) 0.25619(15) 0.95035(7)
V1 V 0.67213(4) 0.08686(9) 0.79133(5)
P1 P 0.70650(6) 0.58255(13) 0.82388(7)
H1 H 0.720(3) 0.582(7) 0.921(4)
C1 C 0.4846(2) 0.0777(5) 0.6899(3)
O1 O 0.53948(16) 0.0772(4) 0.6562(2)
O2 O 0.40699(16) 0.0825(4) 0.6350(2)
O3 O 0.65704(17) 0.7781(4) 0.7734(2)
O4 O 0.65241(17) 0.3960(4) 0.7685(2)
O5 O 0.79302(16) 0.5797(4) 0.8262(2)
O6 O 0.75734(17) 0.0946(4) 0.8956(2)
O7 O 1.0772(2) 0.1648(7) 0.9908(4)
H2 H 1.110(3) 0.251(7) 1.036(4)
H3 H 1.078(3) 0.115(10) 0.934(6)
C1A C 0.5154(2) 0.0777(5) 0.8101(3)
O1A O 0.46052(16) 0.0772(4) 0.8438(2)
O2A O 0.59301(16) 0.0825(4) 0.8650(2)
K1A K 0.08546(5) 0.25619(15) 0.54965(7)
V1A V 0.32787(4) 0.08686(9) 0.70867(5)
P1A P 0.29350(6) 0.58255(13) 0.67612(7)
H1A H 0.280(3) 0.582(7) 0.579(4)
O3A O 0.34296(17) 0.7781(4) 0.7266(2)
O4A O 0.34759(17) 0.3960(4) 0.7315(2)
O5A O 0.20698(16) 0.5797(4) 0.6738(2)
O6A O 0.24266(17) 0.0946(4) 0.6044(2)
O7A O -0.0772(2) 0.1648(7) 0.5092(4)
H2A H -0.110(3) 0.251(7) 0.464(4)
H3A H -0.078(3) 0.115(10) 0.566(6)
K1B K 0.41454(5) -0.24381(15) 0.95035(7)
K1B_2 K 0.41454(5) 0.75619(15) 0.95035(7)
K1C K 0.58546(5) -0.24381(15) 0.54965(7)
K1C_2 K 0.58546(5) 0.75619(15) 0.54965(7)
K1D K 1.08546(5) -0.25619(15) 1.04965(7)
K1E K -0.08546(5) -0.25619(15) 0.45035(7)
K1F K 0.58546(5) 0.24381(15) 1.04965(7)
K1G K 0.41454(5) 0.24381(15) 0.45035(7)
V1_2 V 0.67213(4) 1.08686(9) 0.79133(5)
V1A_2 V 0.32787(4) 1.08686(9) 0.70867(5)
V1B V 0.17213(4) 0.58686(9) 0.79133(5)
V1C V 0.82787(4) 0.58686(9) 0.70867(5)
O1B O 0.03948(16) 0.5772(4) 0.6562(2)
O1C O 0.96052(16) 0.5772(4) 0.8438(2)
O1F O -0.03948(16) 0.4228(4) 0.3438(2)
O1G O 1.03948(16) 0.4228(4) 1.1562(2)
O2F O 0.09301(16) 0.4175(4) 0.3650(2)
O2G O 0.90699(16) 0.4175(4) 1.1350(2)
O3_2 O 0.65704(17) -0.2219(4) 0.7734(2)
O3A_2 O 0.34296(17) -0.2219(4) 0.7266(2)
O3B O 0.15704(17) 0.2781(4) 0.7734(2)
O3C O 0.84296(17) 0.2781(4) 0.7266(2)
O5B O 0.29302(16) 0.0797(4) 0.8262(2)
O5C O 0.70698(16) 0.0797(4) 0.6738(2)
O7D O 0.9228(2) -0.1648(7) 1.0092(4)
O7E O 0.0772(2) -0.1648(7) 0.4908(4)
O8 O 0.5000 0.5940(13) 0.7500
H4 H 0.543(4) 0.538(14) 0.747(9)
H4A H 0.457(4) 0.538(14) 0.753(9)
loop_
_geom_bond_atom_site_label_1
_geom_bond_atom_site_label_2
_geom_bond_site_symmetry_1
_geom_bond_site_symmetry_2
K1 O5 1_555 1_555
V1 O1 1_555 1_555
P1 H1 1_555 1_555
C1 O1 1_555 1_555
O1 K1C 1_555 1_555
O2 C1 1_555 1_555
O3 P1 1_555 1_555
O4 V1 1_555 1_555
O5 P1 1_555 1_555
O6 K1 1_555 1_555
O7 K1 1_555 1_555
H2 O7 1_555 1_555
H3 O7 1_555 1_555
O8 H4 1_555 1_555
C1A C1 1_555 1_555
O1A C1A 1_555 1_555
O2A V1 1_555 1_555
K1A O5A 1_555 1_555
V1A O2 1_555 1_555
P1A H1A 1_555 1_555
O3A P1A 1_555 1_555
O4A V1A 1_555 1_555
O5A P1A 1_555 1_555
O6A K1A 1_555 1_555
O7A K1A 1_555 1_555
H2A O7A 1_555 1_555
H3A O7A 1_555 1_555
K1B O1A 1_555 1_555
K1B_2 O3A 1_555 1_555
K1C O3_2 1_555 1_555
K1C_2 O3 1_555 1_555
K1D O7 1_555 1_555
K1E O7A 1_555 1_555
K1F O1A 1_555 1_555
K1G O1 1_555 1_555
V1_2 O3 1_555 1_555
V1A_2 O3A 1_555 1_555
V1B O5A 1_555 1_555
V1C O5 1_555 1_555
O1B K1A 1_555 1_555
O1C K1 1_555 1_555
O1F K1A 1_555 1_555
O1G K1 1_555 1_555
O2F K1A 1_555 1_555
O2G K1 1_555 1_555
O3_2 V1 1_555 1_555
O3A_2 V1A 1_555 1_555
O3B K1A 1_555 1_555
O3C K1 1_555 1_555
O5B V1A 1_555 1_555
O5C V1 1_555 1_555
O7D K1 1_555 1_555
O7E K1A 1_555 1_555
H4A O8 1_555 1_555
V1 O6 1_555 1_555
P1 O4 1_555 1_555
O2 K1G 1_555 1_555
C1A O2A 1_555 1_555
O1A V1A 1_555 1_555
O2A K1F 1_555 1_555
V1A O6A 1_555 1_555
P1A O4A 1_555 1_555
K1B O3A_2 1_555 1_555
K1B O5B 1_555 1_555
K1C O5C 1_555 1_555
K1D O7D 1_555 1_555
K1E O7E 1_555 1_555
V1B O1B 1_555 1_555
V1B O3B 1_555 1_555
V1C O1C 1_555 1_555
V1C O3C 1_555 1_555

#END
