
#######################################################################
#
#                 Cambridge Crystallographic Data Centre
#                                CCDC 
#
#######################################################################
#
# If this CIF has been generated from an entry in the Cambridge 
# Structural Database, then it will include bibliographic, chemical, 
# crystal, experimental, refinement or atomic coordinate data resulting 
# from the CCDC's data processing and validation procedures.
#
#######################################################################

data_CURBOH
_symmetry_cell_setting           monoclinic
_symmetry_space_group_name_H-M   'C 2/c'
_symmetry_Int_Tables_number      15
_space_group_name_Hall           '-C 2yn'
loop_
_symmetry_equiv_pos_site_id
_symmetry_equiv_pos_as_xyz
1 x,y,z
2 -x,y,1/2-z
3 1/2+x,1/2+y,z
4 1/2-x,1/2+y,1/2-z
5 -x,-y,-z
6 x,-y,1/2+z
7 1/2-x,1/2-y,-z
8 1/2+x,1/2-y,1/2+z
_cell_length_a                   34.468(7)
_cell_length_b                   14.830(3)
_cell_length_c                   33.920(7)
_cell_angle_alpha                90
_cell_angle_beta                 106.45(3)
_cell_angle_gamma                90
_cell_volume                     16628.8
loop_
_atom_site_label
_atom_site_type_symbol
_atom_site_fract_x
_atom_site_fract_y
_atom_site_fract_z
C1 C 0.7174(9) 0.2122(18) 0.0637(9)
H1 H 0.7066 0.2709 0.0568
C2 C 0.7079(8) 0.1658(17) 0.0940(8)
H2 H 0.6911 0.1936 0.1083
C3 C 0.7223(7) 0.0764(17) 0.1052(8)
H3 H 0.7139 0.0417 0.1249
C4 C 0.7489(9) 0.0448(19) 0.0854(10)
H4 H 0.7614 -0.0120 0.0933
C5 C 0.7582(9) 0.092(2) 0.0547(9)
H5 H 0.7760 0.0663 0.0409
C6 C 0.7414(9) 0.178(2) 0.0435(9)
C7 C 0.7583(14) 0.211(3) 0.0090(12)
H6 H 0.7787 0.1791 0.0007
C1F C 0.7826(9) 0.2878(18) -0.0637(9)
H1F H 0.7934 0.2291 -0.0568
C2F C 0.7921(8) 0.3342(17) -0.0940(8)
H2F H 0.8089 0.3064 -0.1083
C3F C 0.7777(7) 0.4236(17) -0.1052(8)
H3F H 0.7861 0.4583 -0.1249
C4F C 0.7511(9) 0.4552(19) -0.0854(10)
H4F H 0.7386 0.5120 -0.0933
C5F C 0.7418(9) 0.408(2) -0.0547(9)
H5F H 0.7240 0.4337 -0.0409
C6F C 0.7586(9) 0.322(2) -0.0435(9)
C7F C 0.7417(14) 0.289(3) -0.0090(12)
H6F H 0.7213 0.3209 -0.0007
C8 C 0.5460(15) 0.868(2) -0.0599(11)
H7 H 0.5445 0.9322 -0.0593
C9 C 0.5126(12) 0.818(3) -0.0637(12)
H8 H 0.4876 0.8467 -0.0659
C10 C 0.5138(12) 0.722(3) -0.0647(12)
H9 H 0.4899 0.6877 -0.0669
C11 C 0.5506(14) 0.678(3) -0.0623(15)
H10 H 0.5517 0.6141 -0.0655
C12 C 0.5858(13) 0.731(3) -0.0549(17)
H11 H 0.6116 0.7032 -0.0486
C13 C 0.5824(13) 0.826(3) -0.0570(15)
C14 C 0.6237(16) 0.857(4) -0.0500(16)
H12 H 0.6419 0.8102 -0.0375
C15 C 0.6413(15) 0.918(4) -0.0547(16)
H13 H 0.6260 0.9684 -0.0501
C16 C 0.6763(10) 0.957(3) -0.0643(14)
C17 C 0.6766(9) 1.032(3) -0.0874(15)
H14 H 0.6516 1.0596 -0.1017
C18 C 0.7110(9) 1.068(2) -0.0903(13)
H15 H 0.7105 1.1212 -0.1064
C19 C 0.7486(9) 1.028(2) -0.0693(11)
H16 H 0.7732 1.0536 -0.0715
C20 C 0.7498(9) 0.956(2) -0.0475(10)
H17 H 0.7746 0.9258 -0.0353
C21 C 0.7118(11) 0.924(2) -0.0422(12)
H18 H 0.7123 0.8777 -0.0226
C22 C 0.4155(16) 0.937(3) -0.2533(16)
H19 H 0.4285 0.8797 -0.2490
C23 C 0.4297(15) 1.006(3) -0.2249(16)
H20 H 0.4551 1.0018 -0.2047
C24 C 0.4050(18) 1.084(3) -0.2272(17)
H21 H 0.4121 1.1288 -0.2066
C25 C 0.3705(15) 1.092(3) -0.2599(17)
H22 H 0.3526 1.1411 -0.2601
C26 C 0.3834(14) 0.950(2) -0.2871(14)
C27 C 0.3616(13) 1.034(3) -0.2912(13)
H23 H 0.3412 1.0474 -0.3159
C28 C 0.3637(15) 0.887(3) -0.3217(15)
H24 H 0.3440 0.9114 -0.3446
C29 C 0.3705(15) 0.814(3) -0.3225(16)
H25 H 0.3906 0.7958 -0.2983
C30 C 0.3565(13) 0.733(3) -0.3517(12)
C31 C 0.3751(12) 0.654(3) -0.3484(13)
H26 H 0.3971 0.6424 -0.3248
C32 C 0.3639(15) 0.586(3) -0.3784(15)
H27 H 0.3788 0.5320 -0.3765
C33 C 0.3296(15) 0.603(3) -0.4111(15)
H28 H 0.3190 0.5580 -0.4312
C34 C 0.3120(13) 0.685(3) -0.4132(14)
H29 H 0.2930 0.7010 -0.4385
C35 C 0.3191(11) 0.745(3) -0.3827(14)
H30 H 0.3008 0.7925 -0.3818
I1 I 0.86548(4) -0.06257(9) 0.50279(4)
I2 I 0.89874(4) -0.23156(8) 0.40714(5)
I3 I 0.73434(5) 0.73725(9) 0.29000(5)
I4 I 0.62119(6) 0.67053(10) 0.19739(5)
I5 I 0.68600(10) -0.19087(14) 0.06188(7)
I6 I 0.56217(11) -0.1975(2) 0.07559(10)
Zn1 Zn 0.88448(6) -0.08194(13) 0.43631(6)
Zn2 Zn 0.67099(7) 0.64267(14) 0.26738(8)
Zn3 Zn 0.62336(12) -0.11502(17) 0.07502(8)
C36 C 0.8318(6) 0.0639(11) 0.3932(6)
H31 H 0.8494 0.0990 0.4143
C37 C 0.8002(6) 0.1070(12) 0.3653(6)
H32 H 0.7963 0.1698 0.3681
C38 C 0.7743(5) 0.0601(10) 0.3337(5)
C39 C 0.7820(6) -0.0290(12) 0.3326(5)
H33 H 0.7651 -0.0653 0.3115
C40 C 0.8137(6) -0.0681(12) 0.3613(6)
H34 H 0.8183 -0.1309 0.3593
C41 C 0.7433(5) 0.1014(12) 0.3026(6)
C42 C 0.6610(7) 0.4525(14) 0.2426(7)
H35 H 0.6407 0.4778 0.2203
C43 C 0.6673(7) 0.3603(12) 0.2445(7)
H36 H 0.6515 0.3235 0.2230
C44 C 0.6956(5) 0.3205(10) 0.2764(5)
C45 C 0.7153(7) 0.3752(12) 0.3081(6)
H37 H 0.7340 0.3509 0.3319
C46 C 0.7071(7) 0.4700(13) 0.3049(7)
H38 H 0.7197 0.5081 0.3274
C47 C 0.7044(7) 0.2221(11) 0.2763(6)
C48 C 0.6653(7) -0.0941(12) 0.1633(5)
H39 H 0.6700 -0.1568 0.1613
C49 C 0.6843(6) -0.0483(13) 0.2010(6)
H40 H 0.7045 -0.0779 0.2221
C50 C 0.6732(6) 0.0387(11) 0.2064(5)
C51 C 0.6460(7) 0.0798(12) 0.1737(6)
H41 H 0.6376 0.1400 0.1761
C52 C 0.6312(8) 0.0332(14) 0.1379(7)
H42 H 0.6122 0.0630 0.1159
C53 C 0.6932(5) 0.0924(10) 0.2427(5)
C54 C 0.6351(10) 0.0380(15) 0.0219(7)
H43 H 0.6622 0.0170 0.0300
C55 C 0.6260(7) 0.1081(14) -0.0042(6)
H44 H 0.6459 0.1336 -0.0154
C56 C 0.5859(8) 0.1430(12) -0.0146(6)
C57 C 0.5568(7) 0.1027(13) 0.0003(6)
H45 H 0.5294 0.1219 -0.0069
C58 C 0.5727(13) 0.0260(18) 0.0286(8)
H46 H 0.5549 -0.0033 0.0414
C59 C 0.5746(6) 0.2215(11) -0.0422(6)
C60 C 0.4507(8) 0.5097(17) -0.0921(8)
H47 H 0.4406 0.5549 -0.1122
C61 C 0.4823(7) 0.4561(15) -0.0963(7)
H48 H 0.4919 0.4601 -0.1199
C62 C 0.4992(5) 0.3963(11) -0.0646(5)
C63 C 0.4843(6) 0.3931(14) -0.0317(6)
H49 H 0.4964 0.3555 -0.0089
C64 C 0.4514(7) 0.4452(14) -0.0321(6)
H50 H 0.4405 0.4403 -0.0095
C65 C 0.5335(5) 0.3389(11) -0.0659(5)
C66 C 0.6625(7) 0.3071(19) -0.1482(9)
H51 H 0.6894 0.2861 -0.1439
C67 C 0.6460(6) 0.2970(15) -0.1180(7)
H52 H 0.6609 0.2739 -0.0920
C68 C 0.6040(6) 0.3228(14) -0.1264(8)
C69 C 0.5863(7) 0.3612(18) -0.1611(8)
H53 H 0.5602 0.3869 -0.1655
C70 C 0.6042(8) 0.365(3) -0.1899(9)
H54 H 0.5881 0.3820 -0.2165
C71 C 0.5830(5) 0.3017(12) -0.0951(5)
N1 N 0.8387(4) -0.0214(9) 0.3923(4)
N2 N 0.6829(5) 0.5057(10) 0.2717(5)
N3 N 0.6417(5) -0.0520(9) 0.1315(5)
N4 N 0.7345(4) 0.1928(9) 0.3076(4)
N5 N 0.6816(4) 0.1749(9) 0.2445(4)
N6 N 0.7224(5) 0.0521(9) 0.2706(4)
N7 N 0.6091(8) -0.0022(12) 0.0366(6)
N8 N 0.4339(4) 0.5020(10) -0.0621(4)
N9 N 0.6438(5) 0.3458(11) -0.1856(5)
N10 N 0.5436(4) 0.2722(9) -0.0390(5)
N11 N 0.5509(4) 0.3576(10) -0.0959(4)
N12 N 0.5953(4) 0.2351(10) -0.0689(5)
Zn1G Zn 0.38448(6) 0.58194(13) -0.06369(6)
Zn2E Zn 0.67099(7) 0.35733(14) -0.23262(8)
N8G N 0.9339(4) -0.0020(10) 0.4379(4)
N9E N 0.6438(5) 0.6542(11) 0.3144(5)
loop_
_geom_bond_atom_site_label_1
_geom_bond_atom_site_label_2
_geom_bond_site_symmetry_1
_geom_bond_site_symmetry_2
C1 H1 1_555 1_555
C2 C1 1_555 1_555
H2 C2 1_555 1_555
C3 C2 1_555 1_555
H3 C3 1_555 1_555
C4 C3 1_555 1_555
H4 C4 1_555 1_555
C5 C4 1_555 1_555
H5 C5 1_555 1_555
C6 C1 1_555 1_555
C7 C6 1_555 1_555
H6 C7 1_555 1_555
C8 H7 1_555 1_555
C9 C8 1_555 1_555
H8 C9 1_555 1_555
C10 C9 1_555 1_555
H9 C10 1_555 1_555
C11 C10 1_555 1_555
H10 C11 1_555 1_555
C12 C11 1_555 1_555
H11 C12 1_555 1_555
C13 C8 1_555 1_555
C14 C13 1_555 1_555
H12 C14 1_555 1_555
C15 C14 1_555 1_555
H13 C15 1_555 1_555
C16 C15 1_555 1_555
C17 C16 1_555 1_555
H14 C17 1_555 1_555
C18 C17 1_555 1_555
H15 C18 1_555 1_555
C19 C18 1_555 1_555
H16 C19 1_555 1_555
C20 C19 1_555 1_555
H17 C20 1_555 1_555
C21 C16 1_555 1_555
H18 C21 1_555 1_555
C22 H19 1_555 1_555
C23 C22 1_555 1_555
H20 C23 1_555 1_555
C24 C23 1_555 1_555
H21 C24 1_555 1_555
C25 C24 1_555 1_555
H22 C25 1_555 1_555
C26 C22 1_555 1_555
C27 C25 1_555 1_555
H23 C27 1_555 1_555
C28 C26 1_555 1_555
H24 C28 1_555 1_555
C29 C28 1_555 1_555
H25 C29 1_555 1_555
C30 C29 1_555 1_555
C31 C30 1_555 1_555
H26 C31 1_555 1_555
C32 C31 1_555 1_555
H27 C32 1_555 1_555
C33 C32 1_555 1_555
H28 C33 1_555 1_555
C34 C33 1_555 1_555
H29 C34 1_555 1_555
C35 C30 1_555 1_555
H30 C35 1_555 1_555
I1 Zn1 1_555 1_555
I2 Zn1 1_555 1_555
I3 Zn2 1_555 1_555
I4 Zn2 1_555 1_555
I5 Zn3 1_555 1_555
I6 Zn3 1_555 1_555
Zn1 N1 1_555 1_555
Zn2 N2 1_555 1_555
Zn3 N3 1_555 1_555
C36 H31 1_555 1_555
C37 C36 1_555 1_555
H32 C37 1_555 1_555
C38 C37 1_555 1_555
C39 C38 1_555 1_555
H33 C39 1_555 1_555
C40 C39 1_555 1_555
H34 C40 1_555 1_555
C41 C38 1_555 1_555
C42 H35 1_555 1_555
C43 C42 1_555 1_555
H36 C43 1_555 1_555
C44 C43 1_555 1_555
C45 C44 1_555 1_555
H37 C45 1_555 1_555
C46 C45 1_555 1_555
H38 C46 1_555 1_555
C47 C44 1_555 1_555
C48 H39 1_555 1_555
C49 C48 1_555 1_555
H40 C49 1_555 1_555
C50 C49 1_555 1_555
C51 C50 1_555 1_555
H41 C51 1_555 1_555
C52 C51 1_555 1_555
H42 C52 1_555 1_555
C53 C50 1_555 1_555
C54 H43 1_555 1_555
C55 C54 1_555 1_555
H44 C55 1_555 1_555
C56 C55 1_555 1_555
C57 C56 1_555 1_555
H45 C57 1_555 1_555
C58 C57 1_555 1_555
H46 C58 1_555 1_555
C59 C56 1_555 1_555
C60 H47 1_555 1_555
C61 C60 1_555 1_555
H48 C61 1_555 1_555
C62 C61 1_555 1_555
C63 C62 1_555 1_555
H49 C63 1_555 1_555
C64 C63 1_555 1_555
H50 C64 1_555 1_555
C65 C62 1_555 1_555
C66 H51 1_555 1_555
C67 C66 1_555 1_555
H52 C67 1_555 1_555
C68 C67 1_555 1_555
C69 C68 1_555 1_555
H53 C69 1_555 1_555
C70 C69 1_555 1_555
H54 C70 1_555 1_555
C71 C68 1_555 1_555
N1 C36 1_555 1_555
N2 C42 1_555 1_555
N3 C48 1_555 1_555
N4 C41 1_555 1_555
N5 C47 1_555 1_555
N6 C41 1_555 1_555
N7 Zn3 1_555 1_555
N8 C60 1_555 1_555
N9 C66 1_555 1_555
N10 C59 1_555 1_555
N11 C65 1_555 1_555
N12 C59 1_555 1_555
C1F H1F 1_555 1_555
C2F C1F 1_555 1_555
H2F C2F 1_555 1_555
C3F C2F 1_555 1_555
H3F C3F 1_555 1_555
C4F C3F 1_555 1_555
H4F C4F 1_555 1_555
C5F C4F 1_555 1_555
H5F C5F 1_555 1_555
C6F C1F 1_555 1_555
C7F C7 1_555 1_555
H6F C7F 1_555 1_555
Zn1G N8 1_555 1_555
Zn2E N9 1_555 1_555
N8G Zn1 1_555 1_555
N9E Zn2 1_555 1_555
C5 C6 1_555 1_555
C12 C13 1_555 1_555
C20 C21 1_555 1_555
C26 C27 1_555 1_555
C34 C35 1_555 1_555
C40 N1 1_555 1_555
C46 N2 1_555 1_555
C47 N4 1_555 1_555
C52 N3 1_555 1_555
C53 N5 1_555 1_555
C53 N6 1_555 1_555
C54 N7 1_555 1_555
C58 N7 1_555 1_555
C64 N8 1_555 1_555
C65 N10 1_555 1_555
C70 N9 1_555 1_555
C71 N11 1_555 1_555
C71 N12 1_555 1_555
C5F C6F 1_555 1_555
C6F C7F 1_555 1_555

#END
