
#######################################################################
#
#                 Cambridge Crystallographic Data Centre
#                                CCDC 
#
#######################################################################
#
# If this CIF has been generated from an entry in the Cambridge 
# Structural Database, then it will include bibliographic, chemical, 
# crystal, experimental, refinement or atomic coordinate data resulting 
# from the CCDC's data processing and validation procedures.
#
#######################################################################

data_CURGUS
_symmetry_cell_setting           triclinic
_symmetry_space_group_name_H-M   'P -1'
_symmetry_Int_Tables_number      2
_space_group_name_Hall           '-P 1'
loop_
_symmetry_equiv_pos_site_id
_symmetry_equiv_pos_as_xyz
1 x,y,z
2 -x,-y,-z
_cell_length_a                   8.6338(17)
_cell_length_b                   10.774(2)
_cell_length_c                   14.872(3)
_cell_angle_alpha                77.23(3)
_cell_angle_beta                 81.77(3)
_cell_angle_gamma                82.80(3)
_cell_volume                     1328.98
loop_
_atom_site_label
_atom_site_type_symbol
_atom_site_fract_x
_atom_site_fract_y
_atom_site_fract_z
Cd1 Cd 0.5000 0.5000 0.5000
Cd2 Cd 0.4749(1) 0.5155(1) 0.7332(1)
O1 O 0.5590(4) 0.6421(3) 0.5837(2)
O2 O 0.3720(4) 0.7333(3) 0.6723(2)
O3 O 0.6670(5) 0.3494(3) 0.5666(3)
O4 O 0.6667(4) 0.3619(3) 0.7140(2)
O5 O 1.3159(4) 0.4511(4) 0.6283(3)
N1 N 0.3923(4) 0.5698(3) 0.8796(3)
N2 N 0.6777(5) 0.6142(4) 0.7822(3)
N3 N 0.4731(5) 0.8300(3) 1.0883(3)
N4 N 0.7765(5) 0.8713(4) 0.9909(3)
C1 C 0.8189(6) 0.6324(5) 0.7340(4)
C2 C 0.9256(7) 0.7007(6) 0.7582(4)
C3 C 0.8839(6) 0.7540(5) 0.8362(4)
C4 C 0.7356(3) 0.7386(4) 0.8866(4)
C5 C 0.6377(5) 0.6655(4) 0.8572(3)
C6 C 0.4827(5) 0.6416(4) 0.9097(3)
C7 C 0.2516(6) 0.5488(4) 0.9264(3)
C8 C 0.1944(6) 0.5949(5) 1.0065(4)
C9 C 0.2850(6) 0.6677(3) 1.0379(3)
C10 C 0.4322(5) 0.6938(4) 0.9887(3)
C11 C 0.5325(5) 0.7749(4) 1.0176(3)
C12 C 0.6826(3) 0.7963(4) 0.9679(3)
C13 C 0.7175(3) 0.9273(4) 1.0638(3)
C14 C 0.5669(6) 0.9070(4) 1.1118(3)
C15 C 0.5085(6) 0.9688(5) 1.1863(4)
C16 C 0.5975(7) 1.0496(5) 1.2103(3)
C17 C 0.7456(6) 1.0706(5) 1.1623(4)
C18 C 0.8064(6) 1.0115(5) 1.0910(4)
C19 C 0.4669(6) 0.7390(4) 0.6005(3)
C20 C 0.4840(6) 0.8633(4) 0.5292(4)
C21 C 0.6316(6) 0.9190(4) 0.5439(4)
C22 C 0.3415(6) 0.9580(4) 0.5294(4)
C23 C 0.7140(3) 0.3144(4) 0.6444(3)
C24 C 0.8425(5) 0.2007(4) 0.6533(3)
C25 C 0.9052(5) 0.1654(4) 0.7476(3)
C26 C 1.0089(5) 0.2631(4) 0.7611(3)
C27 C 1.1413(5) 0.2868(4) 0.6821(3)
C28 C 1.0783(6) 0.3250(5) 0.5874(3)
C29 C 1.2494(5) 0.3788(4) 0.6976(4)
C30 C 0.9748 0.2259 0.5741
O6 O 1.2730(5) 0.3814(4) 0.7773(3)
Cd1_2 Cd 1.5000 0.5000 0.5000
Cd1_3 Cd 0.5000 1.5000 0.5000
Cd1_4 Cd -0.5000 0.5000 0.5000
Cd2A Cd 0.5251(1) 1.4845(1) 0.2668(1)
Cd2_2 Cd 1.4749(1) 0.5155(1) 0.7332(1)
Cd2A_2 Cd 0.5251(1) 0.4845(1) 0.2668(1)
Cd2A_3 Cd -0.4749(1) 0.4845(1) 0.2668(1)
O1A O 0.4410(4) 1.3579(3) 0.4163(2)
O1A_2 O 0.4410(4) 0.3579(3) 0.4163(2)
O2A O 0.6280(4) 1.2667(3) 0.3277(2)
O3A O 0.3330(5) 0.6506(3) 0.4334(3)
O4A O 0.3333(4) 0.6381(3) 0.2860(2)
O4A_2 O 0.3333(4) 1.6381(3) 0.2860(2)
O5A O -0.3159(4) 0.5489(4) 0.3717(3)
O5_2 O 0.3159(4) 0.4511(4) 0.6283(3)
O5A_2 O 0.6841(4) 0.5489(4) 0.3717(3)
O5A_3 O 0.6841(4) 1.5489(4) 0.3717(3)
N1A N 0.6077(4) 1.4302(3) 0.1204(3)
N2A N 0.3223(5) 1.3858(4) 0.2178(3)
N3A N 0.5269(5) 1.1700(3) -0.0883(3)
N4A N 0.2235(5) 1.1287(4) 0.0091(3)
C1A C 0.1811(6) 1.3676(5) 0.2660(4)
C2A C 0.0744(7) 1.2993(6) 0.2418(4)
C3A C 0.1161(6) 1.2460(5) 0.1638(4)
C4A C 0.2644(3) 1.2614(4) 0.1134(4)
C5A C 0.3623(5) 1.3345(4) 0.1428(3)
C6A C 0.5173(5) 1.3584(4) 0.0903(3)
C7A C 0.7484(6) 1.4512(4) 0.0736(3)
C8A C 0.8056(6) 1.4051(5) -0.0065(4)
C9A C 0.7150(6) 1.3323(3) -0.0379(3)
C10A C 0.5678(5) 1.3062(4) 0.0113(3)
C11A C 0.4675(5) 1.2251(4) -0.0176(3)
C12A C 0.3174(3) 1.2037(4) 0.0321(3)
C13A C 0.2825(3) 1.0727(4) -0.0638(3)
C14A C 0.4331(6) 1.0930(4) -0.1118(3)
C15A C 0.4915(6) 1.0312(5) -0.1863(4)
C16A C 0.4025(7) 0.9504(5) -0.2103(3)
C17A C 0.2544(6) 0.9294(5) -0.1623(4)
C18A C 0.1936(6) 0.9885(5) -0.0910(4)
C19A C 0.5331(6) 1.2610(4) 0.3995(3)
C20A C 0.5160(6) 1.1367(4) 0.4708(4)
C21A C 0.3684(6) 1.0810(4) 0.4561(4)
C22A C 0.6585(6) 1.0420(4) 0.4706(4)
C23A C 0.2860(3) 0.6856(4) 0.3556(3)
C24A C 0.1575(5) 0.7993(4) 0.3467(3)
C25A C 0.0948(5) 0.8346(4) 0.2524(3)
C26A C -0.0089(5) 0.7369(4) 0.2389(3)
C27A C -0.1413(5) 0.7132(4) 0.3179(3)
C28A C -0.0783(6) 0.6750(5) 0.4126(3)
C29A C -0.2494(5) 0.6212(4) 0.3024(4)
C30A C 0.0252 0.7741 0.4259
O6A O -0.2730(5) 0.6186(4) 0.2227(3)
O6_2 O 0.2730(5) 0.3814(4) 0.7773(3)
O6A_2 O 0.7270(5) 1.6186(4) 0.2227(3)
loop_
_geom_bond_atom_site_label_1
_geom_bond_atom_site_label_2
_geom_bond_site_symmetry_1
_geom_bond_site_symmetry_2
Cd1 O1 1_555 1_555
Cd2 O1 1_555 1_555
O1 C19 1_555 1_555
O2 Cd2 1_555 1_555
O3 Cd1 1_555 1_555
O4 Cd2 1_555 1_555
O5 C29 1_555 1_555
N1 Cd2 1_555 1_555
N2 Cd2 1_555 1_555
N3 C11 1_555 1_555
N4 C12 1_555 1_555
C1 N2 1_555 1_555
C2 C1 1_555 1_555
C3 C2 1_555 1_555
C4 C3 1_555 1_555
C5 N2 1_555 1_555
C6 N1 1_555 1_555
C7 N1 1_555 1_555
C8 C7 1_555 1_555
C9 C8 1_555 1_555
C10 C6 1_555 1_555
C11 C10 1_555 1_555
C12 C4 1_555 1_555
C13 N4 1_555 1_555
C14 N3 1_555 1_555
C15 C14 1_555 1_555
C16 C15 1_555 1_555
C17 C16 1_555 1_555
C18 C13 1_555 1_555
C19 O2 1_555 1_555
C20 C19 1_555 1_555
C21 C20 1_555 1_555
C22 C20 1_555 1_555
C23 O3 1_555 1_555
C24 C23 1_555 1_555
C25 C24 1_555 1_555
C26 C25 1_555 1_555
C27 C26 1_555 1_555
C28 C27 1_555 1_555
C29 C27 1_555 1_555
C30 C24 1_555 1_555
O6 C29 1_555 1_555
Cd1_2 O5 1_555 1_555
Cd1_3 O1A 1_555 1_555
Cd1_4 O5A 1_555 1_555
Cd2A O1A 1_555 1_555
Cd2_2 O5 1_555 1_555
Cd2A_2 O1A_2 1_555 1_555
Cd2A_3 O5A 1_555 1_555
O1A C19A 1_555 1_555
O1A_2 Cd1 1_555 1_555
O2A Cd2A 1_555 1_555
O3A Cd1 1_555 1_555
O4A Cd2A_2 1_555 1_555
O4A_2 Cd2A 1_555 1_555
O5A C29A 1_555 1_555
O5_2 Cd1 1_555 1_555
O5A_2 Cd1 1_555 1_555
O5A_3 Cd1_3 1_555 1_555
N1A Cd2A 1_555 1_555
N2A Cd2A 1_555 1_555
N3A C11A 1_555 1_555
N4A C12A 1_555 1_555
C1A N2A 1_555 1_555
C2A C1A 1_555 1_555
C3A C2A 1_555 1_555
C4A C3A 1_555 1_555
C5A N2A 1_555 1_555
C6A N1A 1_555 1_555
C7A N1A 1_555 1_555
C8A C7A 1_555 1_555
C9A C8A 1_555 1_555
C10A C6A 1_555 1_555
C11A C10A 1_555 1_555
C12A C4A 1_555 1_555
C13A N4A 1_555 1_555
C14A N3A 1_555 1_555
C15A C14A 1_555 1_555
C16A C15A 1_555 1_555
C17A C16A 1_555 1_555
C18A C13A 1_555 1_555
C19A O2A 1_555 1_555
C20A C19A 1_555 1_555
C21A C22 1_555 1_555
C22A C21 1_555 1_555
C23A O3A 1_555 1_555
C24A C23A 1_555 1_555
C25A C24A 1_555 1_555
C26A C25A 1_555 1_555
C27A C26A 1_555 1_555
C28A C27A 1_555 1_555
C29A C27A 1_555 1_555
C30A C24A 1_555 1_555
O6A Cd2A_3 1_555 1_555
O6_2 Cd2 1_555 1_555
O6A_2 Cd2A 1_555 1_555
Cd2 O5_2 1_555 1_555
O4 C23 1_555 1_555
C4 C5 1_555 1_555
C5 C6 1_555 1_555
C9 C10 1_555 1_555
C11 C12 1_555 1_555
C13 C14 1_555 1_555
C17 C18 1_555 1_555
C28 C30 1_555 1_555
O6 Cd2_2 1_555 1_555
Cd2A O5A_3 1_555 1_555
Cd2A_2 O5A_2 1_555 1_555
O4A C23A 1_555 1_555
C4A C5A 1_555 1_555
C5A C6A 1_555 1_555
C9A C10A 1_555 1_555
C11A C12A 1_555 1_555
C13A C14A 1_555 1_555
C17A C18A 1_555 1_555
C20A C21A 1_555 1_555
C20A C22A 1_555 1_555
C28A C30A 1_555 1_555
C29A O6A 1_555 1_555

#END
