
#######################################################################
#
#                 Cambridge Crystallographic Data Centre
#                                CCDC 
#
#######################################################################
#
# If this CIF has been generated from an entry in the Cambridge 
# Structural Database, then it will include bibliographic, chemical, 
# crystal, experimental, refinement or atomic coordinate data resulting 
# from the CCDC's data processing and validation procedures.
#
#######################################################################

data_CURGUR
_symmetry_cell_setting           orthorhombic
_symmetry_space_group_name_H-M   'P n a 21'
_symmetry_Int_Tables_number      33
_space_group_name_Hall           'P 2c -2n'
loop_
_symmetry_equiv_pos_site_id
_symmetry_equiv_pos_as_xyz
1 x,y,z
2 -x,-y,1/2+z
3 1/2+x,1/2-y,z
4 1/2-x,1/2+y,1/2+z
_cell_length_a                   10.092(2)
_cell_length_b                   18.555(5)
_cell_length_c                   7.153(2)
_cell_angle_alpha                90
_cell_angle_beta                 90
_cell_angle_gamma                90
_cell_volume                     1339.45
loop_
_atom_site_label
_atom_site_type_symbol
_atom_site_fract_x
_atom_site_fract_y
_atom_site_fract_z
Cu1 Cu 0.08416(5) 0.11587(2) -0.70484(10)
S1 S -0.17993(13) -0.07299(7) -0.4800(2)
C1 C -0.0909(4) -0.0020(2) -0.5392(7)
N1 N -0.0303(4) 0.0473(2) -0.5861(6)
N2 N 0.2184(4) 0.1783(2) -0.5570(5)
C2 C 0.2986(6) 0.1575(3) -0.4181(7)
H1 H 0.2979(6) 0.1092(3) -0.3840(7)
C3 C 0.3808(6) 0.2026(3) -0.3240(7)
H2 H 0.4364(6) 0.1850(3) -0.2309(7)
C4 C 0.3805(5) 0.2750(3) -0.3686(7)
H3 H 0.4365(5) 0.3069(3) -0.3067(7)
C5 C 0.2960(4) 0.2993(2) -0.5065(6)
H4 H 0.2914(4) 0.3480(2) -0.5361(6)
C6 C 0.2174(4) 0.2491(2) -0.6005(6)
C7 C 0.1239(4) 0.2702(2) -0.7500(5)
N3 N 0.0361(4) 0.2227(2) -0.7901(5)
O1 O -0.0480(3) 0.2426(2) -0.9327(4)
C8 C 0.1372(4) 0.3412(2) -0.8501(6)
C9 C 0.0322(5) 0.3897(2) -0.8625(8)
H5 H -0.0480(5) 0.3800(2) -0.8037(8)
C10 C 0.0490(5) 0.4521(3) -0.9628(9)
H6 H -0.0198(5) 0.4852(3) -0.9728(9)
C11 C 0.1678(5) 0.4651(2) -1.0479(8)
H7 H 0.1809(5) 0.5067(2) -1.1179(8)
C12 C 0.2686(5) 0.4148(2) -1.0275(7)
H8 H 0.3500(5) 0.4239(2) -1.0839(7)
N4 N 0.2539(3) 0.3538(2) -0.9305(5)
H9 H -0.1146(29) 0.2145(20) -0.9327(73)
Cu1A Cu -0.08416(5) -0.11587(2) -0.20484(10)
S1A S 0.17993(13) 0.07299(7) -0.9800(2)
loop_
_geom_bond_atom_site_label_1
_geom_bond_atom_site_label_2
_geom_bond_site_symmetry_1
_geom_bond_site_symmetry_2
Cu1 N1 1_555 1_555
S1 C1 1_555 1_555
C1 N1 1_555 1_555
N2 Cu1 1_555 1_555
C2 N2 1_555 1_555
H1 C2 1_555 1_555
C3 C2 1_555 1_555
H2 C3 1_555 1_555
C4 C3 1_555 1_555
H3 C4 1_555 1_555
C5 C4 1_555 1_555
H4 C5 1_555 1_555
C6 N2 1_555 1_555
C7 C6 1_555 1_555
N3 Cu1 1_555 1_555
O1 N3 1_555 1_555
C8 C7 1_555 1_555
C9 C8 1_555 1_555
H5 C9 1_555 1_555
C10 C9 1_555 1_555
H6 C10 1_555 1_555
C11 C10 1_555 1_555
H7 C11 1_555 1_555
C12 C11 1_555 1_555
H8 C12 1_555 1_555
N4 C8 1_555 1_555
H9 O1 1_555 1_555
Cu1A S1 1_555 1_555
S1A Cu1 1_555 1_555
C5 C6 1_555 1_555
C7 N3 1_555 1_555
C12 N4 1_555 1_555

#END
