
#######################################################################
#
#                 Cambridge Crystallographic Data Centre
#                                CCDC 
#
#######################################################################
#
# If this CIF has been generated from an entry in the Cambridge 
# Structural Database, then it will include bibliographic, chemical, 
# crystal, experimental, refinement or atomic coordinate data resulting 
# from the CCDC's data processing and validation procedures.
#
#######################################################################

data_CURMEJ
_symmetry_cell_setting           monoclinic
_symmetry_space_group_name_H-M   'C 2/c'
_symmetry_Int_Tables_number      15
_space_group_name_Hall           '-C 2yn'
loop_
_symmetry_equiv_pos_site_id
_symmetry_equiv_pos_as_xyz
1 x,y,z
2 -x,y,1/2-z
3 1/2+x,1/2+y,z
4 1/2-x,1/2+y,1/2-z
5 -x,-y,-z
6 x,-y,1/2+z
7 1/2-x,1/2-y,-z
8 1/2+x,1/2-y,1/2+z
_cell_length_a                   16.4083(9)
_cell_length_b                   17.639(2)
_cell_length_c                   21.6604(13)
_cell_angle_alpha                90
_cell_angle_beta                 94.477(6)
_cell_angle_gamma                90
_cell_volume                     6249.95
loop_
_atom_site_label
_atom_site_type_symbol
_atom_site_fract_x
_atom_site_fract_y
_atom_site_fract_z
C1 C -0.0315(2) 0.6238(2) 0.64414(18)
C2 C -0.0416(2) 0.7027(2) 0.64602(19)
H1 H -0.0171 0.7333 0.6178
C3 C -0.0873(3) 0.7348(3) 0.6892(2)
H2 H -0.0934 0.7872 0.6902
C4 C -0.1252(3) 0.6897(3) 0.73216(19)
H3 H -0.1561 0.7126 0.7612
C5 C -0.1171(2) 0.6123(3) 0.73161(19)
H4 H -0.1426 0.5829 0.7601
C6 C -0.0697(2) 0.5768(2) 0.68752(18)
C7 C -0.0583(2) 0.4976(2) 0.68532(18)
H5 H -0.0839 0.4660 0.7123
C8 C -0.0094(2) 0.4677(2) 0.64322(18)
H6 H 0.0000 0.4158 0.6417
C9 C 0.0267(2) 0.5177(2) 0.60201(18)
C10 C 0.0794(2) 0.4922(2) 0.55591(18)
C11 C 0.1519(2) 0.4229(2) 0.50228(18)
C12 C 0.2504(3) 0.3709(3) 0.41701(19)
H7 H 0.2147 0.3933 0.3842
H8 H 0.2905 0.4084 0.4320
C13 C 0.2924(3) 0.3009(3) 0.3938(2)
H9 H 0.3249 0.2779 0.4282
H10 H 0.2510 0.2645 0.3792
C14 C 0.3469(3) 0.3168(3) 0.3424(2)
H11 H 0.3143 0.3404 0.3084
H12 H 0.3667 0.2689 0.3275
C15 C 0.4877(3) 0.3178(3) 0.41623(19)
C16 C 0.5819(2) 0.2907(2) 0.48572(19)
C17 C 0.6537(2) 0.2945(2) 0.52948(18)
C18 C 0.7030(3) 0.3595(2) 0.5387(2)
H13 H 0.6907 0.4041 0.5170
C19 C 0.7696(3) 0.3549(2) 0.5806(2)
H14 H 0.8032 0.3969 0.5880
C20 C 0.7873(3) 0.2867(2) 0.61261(18)
C21 C 0.8558(3) 0.2775(3) 0.65626(19)
H15 H 0.8902 0.3185 0.6658
C22 C 0.8717(3) 0.2093(3) 0.68438(19)
H16 H 0.9173 0.2039 0.7124
C23 C 0.8192(3) 0.1464(3) 0.6711(2)
H17 H 0.8308 0.1000 0.6902
C24 C 0.7518(2) 0.1539(2) 0.63057(18)
H18 H 0.7170 0.1128 0.6228
C25 C 0.7344(2) 0.2237(2) 0.60031(17)
Cu1 Cu 0.08010(3) 0.64655(3) 0.53552(2)
N1 N 0.01596(18) 0.59258(18) 0.60146(14)
N2 N 0.11272(19) 0.53696(18) 0.51713(15)
N3 N 0.1610(2) 0.49120(19) 0.48135(15)
N4 N 0.53763(19) 0.23046(19) 0.47625(15)
N5 N 0.4745(2) 0.2478(2) 0.43043(16)
N6 N 0.66716(19) 0.22884(19) 0.55879(15)
O1 O 0.10084(16) 0.41860(15) 0.54919(12)
O2 O 0.55465(18) 0.34928(16) 0.44887(14)
S1 S 0.19173(7) 0.33790(6) 0.47979(5)
S2 S 0.43429(7) 0.37731(7) 0.36357(6)
Cu1B Cu 0.58010(3) 0.14655(3) 0.53552(2)
N4B N 0.03763(19) 0.73046(19) 0.47625(15)
N6B N 0.16716(19) 0.72884(19) 0.55879(15)
C26 C 0.2043(3) 0.0684(3) 0.2419(2)
F1 F 0.13753(17) 0.03386(19) 0.25902(14)
F2 F 0.2366(2) 0.02553(19) 0.19965(13)
F3 F 0.17975(18) 0.13373(17) 0.21422(13)
O3 O 0.3441(2) 0.1240(2) 0.28194(16)
O4 O 0.2958(2) 0.01170(18) 0.33211(15)
O5 O 0.2312(2) 0.1334(2) 0.34759(16)
S3 S 0.27757(7) 0.08669(6) 0.30868(5)
C27 C 0.4216(5) 0.4481(5) 0.5928(5)
Cl1 Cl 0.51537(14) 0.40773(13) 0.62610(11)
Cl2 Cl 0.41209(19) 0.45324(19) 0.51679(12)
H19 H 0.4165 0.4988 0.6093
H20 H 0.3766 0.4183 0.6062
Cl3? Cl 0.3989(4) 0.3701(5) 0.5448(3)
H21? H 0.3817 0.4561 0.6229
H22? H 0.4299 0.4944 0.5699
C28? C 0.4216(5) 0.4481(5) 0.5928(5)
Cl4? Cl 0.51537(14) 0.40773(13) 0.62610(11)
loop_
_geom_bond_atom_site_label_1
_geom_bond_atom_site_label_2
_geom_bond_site_symmetry_1
_geom_bond_site_symmetry_2
C1 C2 1_555 1_555
C2 H1 1_555 1_555
C3 C2 1_555 1_555
H2 C3 1_555 1_555
C4 C3 1_555 1_555
H3 C4 1_555 1_555
C5 C4 1_555 1_555
H4 C5 1_555 1_555
C6 C1 1_555 1_555
C7 C6 1_555 1_555
H5 C7 1_555 1_555
C8 C7 1_555 1_555
H6 C8 1_555 1_555
C9 C8 1_555 1_555
C10 C9 1_555 1_555
C11 N3 1_555 1_555
C12 H7 1_555 1_555
H8 C12 1_555 1_555
C13 C12 1_555 1_555
H9 C13 1_555 1_555
H10 C13 1_555 1_555
C14 C13 1_555 1_555
H11 C14 1_555 1_555
H12 C14 1_555 1_555
C15 N5 1_555 1_555
C16 C17 1_555 1_555
C17 C18 1_555 1_555
C18 H13 1_555 1_555
C19 C18 1_555 1_555
H14 C19 1_555 1_555
C20 C19 1_555 1_555
C21 C20 1_555 1_555
H15 C21 1_555 1_555
C22 C21 1_555 1_555
H16 C22 1_555 1_555
C23 C22 1_555 1_555
H17 C23 1_555 1_555
C24 C23 1_555 1_555
H18 C24 1_555 1_555
C25 C20 1_555 1_555
Cu1 N1 1_555 1_555
N1 C1 1_555 1_555
N2 C10 1_555 1_555
N3 N2 1_555 1_555
N4 C16 1_555 1_555
N5 N4 1_555 1_555
N6 C17 1_555 1_555
O1 C10 1_555 1_555
O2 C15 1_555 1_555
S1 C11 1_555 1_555
S2 C14 1_555 1_555
C26 F1 1_555 1_555
F2 C26 1_555 1_555
F3 C26 1_555 1_555
O3 S3 1_555 1_555
O4 S3 1_555 1_555
O5 S3 1_555 1_555
S3 C26 1_555 1_555
C27 Cl1 1_555 1_555
Cl2 C27 1_555 1_555
H19 C27 1_555 1_555
H20 C27 1_555 1_555
Cu1B N4 1_555 1_555
N4B Cu1 1_555 1_555
N6B Cu1 1_555 1_555
C5 C6 1_555 1_555
C9 N1 1_555 1_555
C11 O1 1_555 1_555
C12 S1 1_555 1_555
C15 S2 1_555 1_555
C16 O2 1_555 1_555
C24 C25 1_555 1_555
C25 N6 1_555 1_555
Cu1 N2 1_555 1_555
N6 Cu1B 1_555 1_555

#END
