
#######################################################################
#
#                 Cambridge Crystallographic Data Centre
#                                CCDC 
#
#######################################################################
#
# If this CIF has been generated from an entry in the Cambridge 
# Structural Database, then it will include bibliographic, chemical, 
# crystal, experimental, refinement or atomic coordinate data resulting 
# from the CCDC's data processing and validation procedures.
#
#######################################################################

data_CURNOU
_symmetry_cell_setting           triclinic
_symmetry_space_group_name_H-M   'P -1'
_symmetry_Int_Tables_number      2
_space_group_name_Hall           '-P 1'
loop_
_symmetry_equiv_pos_site_id
_symmetry_equiv_pos_as_xyz
1 x,y,z
2 -x,-y,-z
_cell_length_a                   8.887(6)
_cell_length_b                   9.118(5)
_cell_length_c                   10.099(4)
_cell_angle_alpha                111.034(13)
_cell_angle_beta                 115.407(9)
_cell_angle_gamma                92.872(13)
_cell_volume                     669.416
loop_
_atom_site_label
_atom_site_type_symbol
_atom_site_fract_x
_atom_site_fract_y
_atom_site_fract_z
Bi1 Bi 0.37660(2) 0.18971(2) 0.47993(2)
C1 C 0.2339(8) -0.2145(7) 0.2427(7)
C2 C 0.0755(7) -0.1553(6) 0.1718(7)
C3 C -0.0805(8) -0.2614(7) 0.0398(7)
H1 H -0.0902 -0.3725 -0.0042
C4 C -0.2189(7) -0.1981(7) -0.0232(7)
H2 H -0.3233 -0.2668 -0.1088
C5 C -0.2012(7) -0.0290(7) 0.0425(7)
C6 C -0.0394(7) 0.0683(7) 0.1772(7)
C7 C -0.0135(7) 0.2434(7) 0.2483(7)
C8 C -0.1445(7) 0.3167(7) 0.1845(7)
C9 C -0.3073(8) 0.2168(8) 0.0481(7)
H3 H -0.3952 0.2649 0.0064
C10 C -0.3346(8) 0.0491(8) -0.0218(8)
H4 H -0.4398 -0.0134 -0.1109
C11 C -0.1062(7) 0.4881(7) 0.2561(7)
H5 H -0.1901 0.5417 0.2188
C12 C 0.0553(8) 0.5753(7) 0.3807(8)
H6 H 0.0826 0.6879 0.4258
C13 C 0.1807(8) 0.4902(7) 0.4401(8)
C14 C 0.3633(8) 0.5742(7) 0.5774(7)
Cl1 Cl 0.2559(3) 0.1457(2) 0.6498(2)
N1 N 0.0938(6) 0.0057(5) 0.2395(5)
N2 N 0.1448(6) 0.3289(5) 0.3759(6)
O1 O 0.3694(5) -0.1018(5) 0.3640(5)
O2 O 0.2340(6) -0.3587(5) 0.1865(6)
O3 O 0.4525(5) 0.4849(5) 0.6327(5)
O4 O 0.4130(6) 0.7228(5) 0.6221(6)
Bi1A Bi 0.62340(2) -0.18971(2) 0.52007(2)
Bi1A_2 Bi 0.62340(2) 0.81029(2) 0.52007(2)
O1A O 0.6306(5) 0.1018(5) 0.6360(5)
O4A O 0.5870(6) 0.2772(5) 0.3779(6)
loop_
_geom_bond_atom_site_label_1
_geom_bond_atom_site_label_2
_geom_bond_site_symmetry_1
_geom_bond_site_symmetry_2
Bi1 Cl1 1_555 1_555
C1 C2 1_555 1_555
C2 C3 1_555 1_555
C3 H1 1_555 1_555
C4 C3 1_555 1_555
H2 C4 1_555 1_555
C5 C4 1_555 1_555
C6 C5 1_555 1_555
C7 C6 1_555 1_555
C8 C7 1_555 1_555
C9 C8 1_555 1_555
H3 C9 1_555 1_555
C10 C5 1_555 1_555
H4 C10 1_555 1_555
C11 C8 1_555 1_555
H5 C11 1_555 1_555
C12 C11 1_555 1_555
H6 C12 1_555 1_555
C13 C12 1_555 1_555
C14 C13 1_555 1_555
N1 Bi1 1_555 1_555
N2 Bi1 1_555 1_555
O1 Bi1 1_555 1_555
O2 C1 1_555 1_555
O3 Bi1 1_555 1_555
O4 C14 1_555 1_555
Bi1A O1 1_555 1_555
Bi1A_2 O4 1_555 1_555
O1A Bi1 1_555 1_555
O4A Bi1 1_555 1_555
C1 O1 1_555 1_555
C2 N1 1_555 1_555
C6 N1 1_555 1_555
C7 N2 1_555 1_555
C9 C10 1_555 1_555
C13 N2 1_555 1_555
C14 O3 1_555 1_555
Bi1A O1A 1_555 1_555

#END
