
#######################################################################
#
#                 Cambridge Crystallographic Data Centre
#                                CCDC 
#
#######################################################################
#
# If this CIF has been generated from an entry in the Cambridge 
# Structural Database, then it will include bibliographic, chemical, 
# crystal, experimental, refinement or atomic coordinate data resulting 
# from the CCDC's data processing and validation procedures.
#
#######################################################################

data_CURXUJ
_symmetry_cell_setting           monoclinic
_symmetry_space_group_name_H-M   'P 21/c'
_symmetry_Int_Tables_number      14
_space_group_name_Hall           '-P 2ybc'
loop_
_symmetry_equiv_pos_site_id
_symmetry_equiv_pos_as_xyz
1 x,y,z
2 -x,1/2+y,1/2-z
3 -x,-y,-z
4 x,1/2-y,1/2+z
_cell_length_a                   16.2227(7)
_cell_length_b                   7.6442(3)
_cell_length_c                   14.5166(6)
_cell_angle_alpha                90
_cell_angle_beta                 98.6460(10)
_cell_angle_gamma                90
_cell_volume                     1779.74
loop_
_atom_site_label
_atom_site_type_symbol
_atom_site_fract_x
_atom_site_fract_y
_atom_site_fract_z
Cu1 Cu 0.201765(11) 0.52960(3) 0.731332(13)
Cl1 Cl 0.12412(3) 0.28539(6) 0.73719(3)
Cl2 Cl 0.21515(2) 0.80774(5) 0.79629(3)
O1 O 0.54398(7) 0.68345(15) 0.58758(8)
N1 N 0.11919(8) 0.62002(18) 0.62308(9)
N2 N 0.27766(8) 0.55997(18) 0.55027(9)
N3 N 0.29946(8) 0.56417(19) 0.64339(9)
N4 N 0.37098(8) 0.64584(19) 0.66209(9)
N5 N 0.61470(8) 0.78423(18) 0.59394(10)
N6 N 0.65001(8) 0.84001(19) 0.67782(9)
N7 N 0.71574(8) 0.93074(18) 0.66444(9)
C1 C 0.05360(10) 0.7117(2) 0.64409(12)
H1 H 0.0485 0.7295 0.7077
C2 C -0.00653(10) 0.7810(2) 0.57621(13)
H2 H -0.0518 0.8460 0.5932
C3 C -0.00004(10) 0.7547(2) 0.48342(12)
H3 H -0.0404 0.8020 0.4358
C4 C 0.06665(10) 0.6577(2) 0.46107(11)
H4 H 0.0722 0.6362 0.3978
C5 C 0.12519(9) 0.5926(2) 0.53265(11)
C6 C 0.19712(10) 0.4824(2) 0.51109(11)
H5 H 0.1928 0.3636 0.5372
H6 H 0.1940 0.4712 0.4427
C7 C 0.33585(10) 0.6380(2) 0.50771(11)
H7 H 0.3359 0.6524 0.4427
C8 C 0.39540(10) 0.6924(2) 0.57965(11)
C9 C 0.47098(10) 0.7998(2) 0.57594(12)
H8 H 0.4663 0.8613 0.5154
H9 H 0.4769 0.8885 0.6262
C10 C 0.65519(9) 0.8396(2) 0.52329(11)
C11 C 0.72243(9) 0.9329(2) 0.57098(11)
C12 C 0.78277(10) 1.0079(2) 0.52312(12)
H10 H 0.8296 1.0691 0.5549
C13 C 0.77058(11) 0.9881(2) 0.42770(12)
H11 H 0.8102 1.0364 0.3928
C14 C 0.70041(11) 0.8974(2) 0.38004(12)
H12 H 0.6939 0.8895 0.3140
C15 C 0.64150(10) 0.8203(2) 0.42610(11)
H13 H 0.5949 0.7584 0.3943
Cu1A Cu 0.798235(11) 1.02960(3) 0.768668(13)
N7A N 0.28426(8) 0.43074(18) 0.83556(9)
O2 O 0.44756(9) 0.7763(2) 0.84629(10)
H14 H 0.4208(17) 0.741(4) 0.7959(15)
H15 H 0.4430(19) 0.884(2) 0.840(2)
loop_
_geom_bond_atom_site_label_1
_geom_bond_atom_site_label_2
_geom_bond_site_symmetry_1
_geom_bond_site_symmetry_2
Cu1 Cl1 1_555 1_555
Cl2 Cu1 1_555 1_555
O1 N5 1_555 1_555
N1 Cu1 1_555 1_555
N2 N3 1_555 1_555
N3 Cu1 1_555 1_555
N4 N3 1_555 1_555
N5 N6 1_555 1_555
N6 N7 1_555 1_555
N7 C11 1_555 1_555
C1 N1 1_555 1_555
H1 C1 1_555 1_555
C2 C1 1_555 1_555
H2 C2 1_555 1_555
C3 C2 1_555 1_555
H3 C3 1_555 1_555
C4 C3 1_555 1_555
H4 C4 1_555 1_555
C5 N1 1_555 1_555
C6 N2 1_555 1_555
H5 C6 1_555 1_555
H6 C6 1_555 1_555
C7 N2 1_555 1_555
H7 C7 1_555 1_555
C8 N4 1_555 1_555
C9 O1 1_555 1_555
H8 C9 1_555 1_555
H9 C9 1_555 1_555
C10 N5 1_555 1_555
C11 C10 1_555 1_555
C12 C11 1_555 1_555
H10 C12 1_555 1_555
C13 C12 1_555 1_555
H11 C13 1_555 1_555
C14 C13 1_555 1_555
H12 C14 1_555 1_555
C15 C10 1_555 1_555
H13 C15 1_555 1_555
O2 H14 1_555 1_555
H15 O2 1_555 1_555
Cu1A N7 1_555 1_555
N7A Cu1 1_555 1_555
C4 C5 1_555 1_555
C5 C6 1_555 1_555
C7 C8 1_555 1_555
C8 C9 1_555 1_555
C14 C15 1_555 1_555

#END
