
#######################################################################
#
#                 Cambridge Crystallographic Data Centre
#                                CCDC 
#
#######################################################################
#
# If this CIF has been generated from an entry in the Cambridge 
# Structural Database, then it will include bibliographic, chemical, 
# crystal, experimental, refinement or atomic coordinate data resulting 
# from the CCDC's data processing and validation procedures.
#
#######################################################################

data_CURXOD
_symmetry_cell_setting           hexagonal
_symmetry_space_group_name_H-M   'P 65'
_symmetry_Int_Tables_number      170
_space_group_name_Hall           'P 65'
loop_
_symmetry_equiv_pos_site_id
_symmetry_equiv_pos_as_xyz
1 x,y,z
2 -y,x-y,2/3+z
3 -x+y,-x,1/3+z
4 -x,-y,1/2+z
5 y,-x+y,1/6+z
6 x-y,x,5/6+z
_cell_length_a                   8.3240(2)
_cell_length_b                   8.3240(2)
_cell_length_c                   45.1800(18)
_cell_angle_alpha                90
_cell_angle_beta                 90
_cell_angle_gamma                120
_cell_volume                     2711.07
loop_
_atom_site_label
_atom_site_type_symbol
_atom_site_fract_x
_atom_site_fract_y
_atom_site_fract_z
Cu1 Cu 0.55732(6) 1.14512(6) 0.850117(10)
Cl1 Cl 0.49651(17) 1.35235(15) 0.82652(3)
Cl2 Cl 0.52837(19) 0.9805(2) 0.89240(3)
O1 O 0.7956(5) 1.2197(4) 0.72406(7)
N1 N 0.3180(4) 0.9301(5) 0.83485(8)
N2 N 0.6252(5) 0.9087(5) 0.80459(8)
N3 N 0.7046(5) 1.0841(5) 0.81441(8)
N4 N 0.8190(5) 1.1924(5) 0.79393(8)
N5 N 0.6303(5) 1.0641(5) 0.71798(8)
N6 N 0.6283(5) 0.9379(5) 0.69988(8)
N7 N 0.4563(5) 0.7997(5) 0.69950(8)
C1 C 0.1637(6) 0.9381(7) 0.83687(10)
H1 H 0.1699 1.0450 0.8450
C2 C -0.0082(6) 0.7939(8) 0.82743(11)
H2 H -0.1154 0.8040 0.8291
C3 C -0.0180(7) 0.6371(8) 0.81561(11)
H3 H -0.1319 0.5390 0.8089
C4 C 0.1395(7) 0.6252(7) 0.81373(12)
H4 H 0.1354 0.5187 0.8058
C5 C 0.3075(6) 0.7744(6) 0.82379(9)
C6 C 0.4820(7) 0.7623(6) 0.82302(11)
H5 H 0.5294 0.7730 0.8432
H6 H 0.4532 0.6410 0.8152
C7 C 0.6888(6) 0.9041(6) 0.77724(10)
H7 H 0.6561 0.7994 0.7654
C8 C 0.8103(6) 1.0840(6) 0.77072(10)
C9 C 0.9091(7) 1.1694(7) 0.74276(10)
H8 H 1.0280 1.2806 0.7472
H9 H 0.9344 1.0819 0.7321
C10 C 0.4619(6) 1.0116(5) 0.73036(9)
C11 C 0.3478(6) 0.8391(6) 0.71774(9)
C12 C 0.1580(6) 0.7374(7) 0.72480(10)
H10 H 0.0777 0.6216 0.7162
C13 C 0.0970(7) 0.8180(8) 0.74515(11)
H11 H -0.0286 0.7550 0.7507
C14 C 0.2175(8) 0.9920(8) 0.75783(11)
H12 H 0.1680 1.0409 0.7715
C15 C 0.4012(8) 1.0931(7) 0.75143(10)
H13 H 0.4809 1.2080 0.7604
Cu1E Cu 0.41220(8) 0.55732(6) 0.683450(10)
N7D N 0.7997(5) 1.3434(7) 0.86617(8)
loop_
_geom_bond_atom_site_label_1
_geom_bond_atom_site_label_2
_geom_bond_site_symmetry_1
_geom_bond_site_symmetry_2
Cu1 Cl1 1_555 1_555
Cl2 Cu1 1_555 1_555
O1 N5 1_555 1_555
N1 Cu1 1_555 1_555
N2 N3 1_555 1_555
N3 Cu1 1_555 1_555
N4 N3 1_555 1_555
N5 N6 1_555 1_555
N6 N7 1_555 1_555
N7 C11 1_555 1_555
C1 N1 1_555 1_555
H1 C1 1_555 1_555
C2 C1 1_555 1_555
H2 C2 1_555 1_555
C3 C2 1_555 1_555
H3 C3 1_555 1_555
C4 C3 1_555 1_555
H4 C4 1_555 1_555
C5 N1 1_555 1_555
C6 N2 1_555 1_555
H5 C6 1_555 1_555
H6 C6 1_555 1_555
C7 N2 1_555 1_555
H7 C7 1_555 1_555
C8 N4 1_555 1_555
C9 O1 1_555 1_555
H8 C9 1_555 1_555
H9 C9 1_555 1_555
C10 N5 1_555 1_555
C11 C10 1_555 1_555
C12 C11 1_555 1_555
H10 C12 1_555 1_555
C13 C12 1_555 1_555
H11 C13 1_555 1_555
C14 C13 1_555 1_555
H12 C14 1_555 1_555
C15 C10 1_555 1_555
H13 C15 1_555 1_555
Cu1E N7 1_555 1_555
N7D Cu1 1_555 1_555
C4 C5 1_555 1_555
C5 C6 1_555 1_555
C7 C8 1_555 1_555
C8 C9 1_555 1_555
C14 C15 1_555 1_555

#END
