
#######################################################################
#
#                 Cambridge Crystallographic Data Centre
#                                CCDC 
#
#######################################################################
#
# If this CIF has been generated from an entry in the Cambridge 
# Structural Database, then it will include bibliographic, chemical, 
# crystal, experimental, refinement or atomic coordinate data resulting 
# from the CCDC's data processing and validation procedures.
#
#######################################################################

data_CURYAQ
_symmetry_cell_setting           monoclinic
_symmetry_space_group_name_H-M   'P 21/c'
_symmetry_Int_Tables_number      14
_space_group_name_Hall           '-P 2ybc'
loop_
_symmetry_equiv_pos_site_id
_symmetry_equiv_pos_as_xyz
1 x,y,z
2 -x,1/2+y,1/2-z
3 -x,-y,-z
4 x,1/2-y,1/2+z
_cell_length_a                   16.1956(11)
_cell_length_b                   8.0533(5)
_cell_length_c                   14.7916(9)
_cell_angle_alpha                90
_cell_angle_beta                 97.1130(10)
_cell_angle_gamma                90
_cell_volume                     1914.39
loop_
_atom_site_label
_atom_site_type_symbol
_atom_site_fract_x
_atom_site_fract_y
_atom_site_fract_z
Cu1 Cu 0.20592(3) 0.02376(5) 0.72324(3)
Br1 Br 0.21994(2) 0.30892(4) 0.78567(2)
Br2 Br 0.12278(3) -0.22214(5) 0.73369(2)
O1 O 0.54385(16) 0.2106(3) 0.59023(17)
N1 N 0.12379(18) 0.1079(4) 0.61891(19)
N2 N 0.28316(19) 0.0615(3) 0.54489(19)
N3 N 0.30626(19) 0.0532(4) 0.63566(19)
N4 N 0.37422(19) 0.1382(4) 0.65511(19)
N5 N 0.6136(2) 0.3075(3) 0.6002(2)
N6 N 0.6472(2) 0.3537(4) 0.6837(2)
N7 N 0.71533(19) 0.4349(3) 0.67342(19)
C1 C 0.0578(2) 0.1931(4) 0.6412(3)
H1 H 0.0516 0.2069 0.7038
C2 C -0.0014(3) 0.2613(5) 0.5763(3)
H2 H -0.0471 0.3216 0.5943
C3 C 0.0065(3) 0.2409(5) 0.4846(3)
H3 H -0.0329 0.2878 0.4388
C4 C 0.0738(2) 0.1498(4) 0.4618(2)
H4 H 0.0805 0.1318 0.3996
C5 C 0.1310(2) 0.0855(4) 0.5298(2)
C6 C 0.2045(2) -0.0148(4) 0.5068(2)
H5 H 0.2011 -0.1286 0.5314
H6 H 0.2025 -0.0230 0.4398
C7 C 0.3381(2) 0.1546(4) 0.5057(2)
H7 H 0.3366 0.1810 0.4429
C8 C 0.3960(2) 0.2028(4) 0.5755(2)
C9 C 0.4689(2) 0.3149(4) 0.5743(2)
H8 H 0.4664 0.3719 0.5148
H9 H 0.4693 0.4000 0.6227
C10 C 0.6596(2) 0.3570(4) 0.5335(2)
C11 C 0.7262(2) 0.4383(4) 0.5821(2)
C12 C 0.7907(2) 0.5049(4) 0.5382(2)
H10 H 0.8374 0.5584 0.5709
C13 C 0.7822(2) 0.4879(4) 0.4443(2)
H11 H 0.8242 0.5319 0.4117
C14 C 0.7134(2) 0.4076(4) 0.3959(2)
H12 H 0.7102 0.4004 0.3315
C15 C 0.6509(2) 0.3391(4) 0.4382(2)
H13 H 0.6048 0.2836 0.4055
Cu1A Cu 0.79408(3) 0.52376(5) 0.77676(3)
N7A N 0.28467(19) -0.0651(3) 0.82658(19)
C16 C 0.4626(3) 0.3552(5) 0.8330(3)
H14 H 0.4781 0.4057 0.8930
H15 H 0.4120 0.4086 0.8031
H16 H 0.5079 0.3702 0.7956
O2 O 0.4476(2) 0.1830(3) 0.84363(18)
H17 H 0.4215 0.1453 0.7953
loop_
_geom_bond_atom_site_label_1
_geom_bond_atom_site_label_2
_geom_bond_site_symmetry_1
_geom_bond_site_symmetry_2
Cu1 Br1 1_555 1_555
Br2 Cu1 1_555 1_555
O1 N5 1_555 1_555
N1 Cu1 1_555 1_555
N2 N3 1_555 1_555
N3 Cu1 1_555 1_555
N4 N3 1_555 1_555
N5 N6 1_555 1_555
N6 N7 1_555 1_555
N7 C11 1_555 1_555
C1 N1 1_555 1_555
H1 C1 1_555 1_555
C2 C1 1_555 1_555
H2 C2 1_555 1_555
C3 C2 1_555 1_555
H3 C3 1_555 1_555
C4 C3 1_555 1_555
H4 C4 1_555 1_555
C5 N1 1_555 1_555
C6 N2 1_555 1_555
H5 C6 1_555 1_555
H6 C6 1_555 1_555
C7 N2 1_555 1_555
H7 C7 1_555 1_555
C8 N4 1_555 1_555
C9 O1 1_555 1_555
H8 C9 1_555 1_555
H9 C9 1_555 1_555
C10 N5 1_555 1_555
C11 C10 1_555 1_555
C12 C11 1_555 1_555
H10 C12 1_555 1_555
C13 C12 1_555 1_555
H11 C13 1_555 1_555
C14 C13 1_555 1_555
H12 C14 1_555 1_555
C15 C10 1_555 1_555
H13 C15 1_555 1_555
C16 H14 1_555 1_555
H15 C16 1_555 1_555
H16 C16 1_555 1_555
O2 C16 1_555 1_555
H17 O2 1_555 1_555
Cu1A N7 1_555 1_555
N7A Cu1 1_555 1_555
C4 C5 1_555 1_555
C5 C6 1_555 1_555
C7 C8 1_555 1_555
C8 C9 1_555 1_555
C14 C15 1_555 1_555

#END
