
#######################################################################
#
#                 Cambridge Crystallographic Data Centre
#                                CCDC 
#
#######################################################################
#
# If this CIF has been generated from an entry in the Cambridge 
# Structural Database, then it will include bibliographic, chemical, 
# crystal, experimental, refinement or atomic coordinate data resulting 
# from the CCDC's data processing and validation procedures.
#
#######################################################################

data_CUSDAW
_symmetry_cell_setting           monoclinic
_symmetry_space_group_name_H-M   'P 21/c'
_symmetry_Int_Tables_number      14
_space_group_name_Hall           '-P 2ybc'
loop_
_symmetry_equiv_pos_site_id
_symmetry_equiv_pos_as_xyz
1 x,y,z
2 -x,1/2+y,1/2-z
3 -x,-y,-z
4 x,1/2-y,1/2+z
_cell_length_a                   10.6064(7)
_cell_length_b                   13.4107(6)
_cell_length_c                   22.5667(13)
_cell_angle_alpha                90
_cell_angle_beta                 102.055(3)
_cell_angle_gamma                90
_cell_volume                     3139.09
loop_
_atom_site_label
_atom_site_type_symbol
_atom_site_fract_x
_atom_site_fract_y
_atom_site_fract_z
Nd1 Nd 0.042715(19) 0.371293(17) -0.038061(10)
S1 S -0.22409(9) 0.29223(8) 0.02719(5)
S2 S -0.68390(9) 0.40030(9) -0.11632(5)
S3 S -0.26790(9) 0.63970(8) -0.10592(5)
N1 N 0.1189(4) 0.1953(3) -0.06873(18)
N2 N -0.0933(4) 0.2871(3) -0.13707(19)
C1 C -0.2579(3) 0.4662(3) -0.03933(18)
C2 C -0.3184(4) 0.3797(3) -0.02214(17)
C3 C -0.4488(4) 0.3622(3) -0.04318(19)
H1 H -0.4869 0.3054 -0.0310
C4 C -0.5219(3) 0.4294(3) -0.08230(18)
C5 C -0.4675(4) 0.5164(3) -0.09877(19)
H2 H -0.5183 0.5625 -0.1239
C6 C -0.3371(4) 0.5346(3) -0.07771(19)
C7 C -0.1999(5) 0.3273(5) -0.1694(2)
H3 H -0.2319 0.3848 -0.1548
C8 C -0.2668(6) 0.2878(5) -0.2246(3)
H4 H -0.3438 0.3164 -0.2447
C9 C -0.2172(6) 0.2070(5) -0.2481(3)
H5 H -0.2589 0.1813 -0.2853
C10 C -0.1042(5) 0.1628(4) -0.2165(2)
C11 C -0.0439(6) 0.0797(5) -0.2396(3)
H6 H -0.0816 0.0528 -0.2771
C12 C 0.0647(6) 0.0405(4) -0.2082(3)
H7 H 0.1035 -0.0115 -0.2251
C13 C 0.1238(5) 0.0763(4) -0.1491(3)
C14 C 0.2336(6) 0.0330(4) -0.1137(3)
H8 H 0.2730 -0.0207 -0.1286
C15 C 0.2833(6) 0.0691(4) -0.0571(3)
H9 H 0.3551 0.0397 -0.0326
C16 C 0.2237(5) 0.1514(4) -0.0369(3)
H10 H 0.2595 0.1771 0.0012
C17 C 0.0686(4) 0.1580(4) -0.1247(2)
C18 C -0.0455(5) 0.2037(4) -0.1599(2)
O1 O -0.1314(2) 0.4816(2) -0.02155(13)
H19 H -0.0942 0.4263 -0.0113
O2 O -0.1126(3) 0.2712(2) -0.00104(15)
O3 O -0.3032(3) 0.2045(2) 0.02654(15)
O4 O -0.1860(3) 0.3376(3) 0.08602(14)
O5 O -0.7321(3) 0.4824(3) -0.15636(15)
O6 O -0.7512(3) 0.3900(2) -0.06592(13)
O7 O -0.6809(3) 0.3068(3) -0.14754(16)
O8 O -0.1780(3) 0.6850(2) -0.05396(13)
O9 O -0.1986(3) 0.6013(2) -0.15027(14)
O10 O -0.3710(3) 0.7065(3) -0.13173(16)
O11 O 0.0202(3) 0.4967(3) -0.11810(14)
H20 H 0.0583 0.5499 -0.1037
H21 H -0.0593 0.5088 -0.1316
Nd1B Nd -0.042715(19) 0.628707(17) 0.038061(10)
Nd1_2 Nd -0.957285(19) 0.371293(17) -0.038061(10)
O1B O 0.1314(2) 0.5184(2) 0.02155(13)
H19B H 0.0942 0.5737 0.0113
O6_2 O 0.2488(3) 0.3900(2) -0.06592(13)
O8B O 0.1780(3) 0.3150(2) 0.05396(13)
N3 N 0.2335(4) 0.1409(3) 0.22507(17)
N4 N 0.4467(4) 0.0247(4) 0.2373(2)
C19 C 0.1336(5) 0.2020(4) 0.2217(2)
H11 H 0.1290 0.2433 0.2543
C20 C 0.0367(5) 0.2050(4) 0.1705(3)
H12 H -0.0317 0.2493 0.1677
C21 C 0.0429(5) 0.1414(4) 0.1237(2)
H13 H -0.0225 0.1424 0.0891
C22 C 0.1458(5) 0.0751(4) 0.1270(2)
C23 C 0.1575(6) 0.0036(5) 0.0812(3)
H14 H 0.0942 0.0006 0.0458
C24 C 0.2589(7) -0.0595(5) 0.0887(3)
H15 H 0.2628 -0.1063 0.0587
C25 C 0.3595(5) -0.0563(4) 0.1409(3)
C26 C 0.4663(7) -0.1205(5) 0.1506(4)
H16 H 0.4741 -0.1690 0.1221
C27 C 0.5582(7) -0.1109(5) 0.2022(4)
H17 H 0.6289 -0.1535 0.2098
C28 C 0.5454(5) -0.0371(5) 0.2432(3)
H18 H 0.6112 -0.0304 0.2773
C29 C 0.3542(4) 0.0138(4) 0.1863(2)
C30 C 0.2440(4) 0.0773(4) 0.1796(2)
O12 O -0.4250(11) 1.1571(9) 0.1264(6)
O13? O -0.4958(11) 1.1315(9) 0.0849(7)
loop_
_geom_bond_atom_site_label_1
_geom_bond_atom_site_label_2
_geom_bond_site_symmetry_1
_geom_bond_site_symmetry_2
Nd1 N1 1_555 1_555
S1 C2 1_555 1_555
S2 C4 1_555 1_555
S3 C6 1_555 1_555
N1 C16 1_555 1_555
N2 Nd1 1_555 1_555
N3 C19 1_555 1_555
N4 C28 1_555 1_555
C1 C2 1_555 1_555
C2 C3 1_555 1_555
C3 H1 1_555 1_555
C4 C3 1_555 1_555
C5 C4 1_555 1_555
H2 C5 1_555 1_555
C6 C1 1_555 1_555
C7 N2 1_555 1_555
H3 C7 1_555 1_555
C8 C7 1_555 1_555
H4 C8 1_555 1_555
C9 C8 1_555 1_555
H5 C9 1_555 1_555
C10 C9 1_555 1_555
C11 C10 1_555 1_555
H6 C11 1_555 1_555
C12 C11 1_555 1_555
H7 C12 1_555 1_555
C13 C12 1_555 1_555
C14 C13 1_555 1_555
H8 C14 1_555 1_555
C15 C14 1_555 1_555
H9 C15 1_555 1_555
C16 C15 1_555 1_555
H10 C16 1_555 1_555
C17 N1 1_555 1_555
C18 N2 1_555 1_555
C19 H11 1_555 1_555
C20 C19 1_555 1_555
H12 C20 1_555 1_555
C21 C20 1_555 1_555
H13 C21 1_555 1_555
C22 C21 1_555 1_555
C23 C22 1_555 1_555
H14 C23 1_555 1_555
C24 C23 1_555 1_555
H15 C24 1_555 1_555
C25 C24 1_555 1_555
C26 C25 1_555 1_555
H16 C26 1_555 1_555
C27 C26 1_555 1_555
H17 C27 1_555 1_555
C28 C27 1_555 1_555
H18 C28 1_555 1_555
C29 N4 1_555 1_555
C30 N3 1_555 1_555
O1 Nd1 1_555 1_555
H19 O1 1_555 1_555
O2 Nd1 1_555 1_555
O3 S1 1_555 1_555
O4 S1 1_555 1_555
O5 S2 1_555 1_555
O6 S2 1_555 1_555
O7 S2 1_555 1_555
O8 S3 1_555 1_555
O9 S3 1_555 1_555
O10 S3 1_555 1_555
O11 Nd1 1_555 1_555
H20 O11 1_555 1_555
H21 O11 1_555 1_555
Nd1B O1 1_555 1_555
Nd1_2 O6 1_555 1_555
O1B Nd1 1_555 1_555
H19B O1B 1_555 1_555
O6_2 Nd1 1_555 1_555
O8B Nd1 1_555 1_555
S1 O2 1_555 1_555
C1 O1 1_555 1_555
C5 C6 1_555 1_555
C10 C18 1_555 1_555
C13 C17 1_555 1_555
C17 C18 1_555 1_555
C22 C30 1_555 1_555
C25 C29 1_555 1_555
C29 C30 1_555 1_555
O8 Nd1B 1_555 1_555
Nd1B O1B 1_555 1_555

#END
