
#######################################################################
#
#                 Cambridge Crystallographic Data Centre
#                                CCDC 
#
#######################################################################
#
# If this CIF has been generated from an entry in the Cambridge 
# Structural Database, then it will include bibliographic, chemical, 
# crystal, experimental, refinement or atomic coordinate data resulting 
# from the CCDC's data processing and validation procedures.
#
#######################################################################

data_CUSPEM
_symmetry_cell_setting           orthorhombic
_symmetry_space_group_name_H-M   'P 21 21 21'
_symmetry_Int_Tables_number      19
_space_group_name_Hall           'P 2ac 2ab'
loop_
_symmetry_equiv_pos_site_id
_symmetry_equiv_pos_as_xyz
1 x,y,z
2 1/2-x,-y,1/2+z
3 -x,1/2+y,1/2-z
4 1/2+x,1/2-y,-z
_cell_length_a                   13.412(3)
_cell_length_b                   21.783(5)
_cell_length_c                   27.323(6)
_cell_angle_alpha                90
_cell_angle_beta                 90
_cell_angle_gamma                90
_cell_volume                     7982.51
loop_
_atom_site_label
_atom_site_type_symbol
_atom_site_fract_x
_atom_site_fract_y
_atom_site_fract_z
Rh1 Rh -0.339260(12) 0.040180(7) 0.024840(5)
Rh2 Rh -0.344280(12) -0.015420(7) 0.100420(5)
N1 N -0.55532(14) 0.18228(8) 0.09628(7)
N2 N -0.63209(13) -0.05466(8) -0.02575(7)
N3 N -0.24704(14) -0.14986(8) -0.05314(7)
N4 N -0.07558(14) 0.15229(9) 0.09928(7)
N5 N -0.32414(14) 0.08262(8) -0.04903(6)
N6 N -0.15997(16) 0.06197(8) -0.32659(6)
O1 O -0.40371(11) 0.11223(7) 0.06112(5)
O2 O -0.41077(12) 0.05851(7) 0.13183(5)
O3 O -0.62811(13) 0.08910(8) 0.07659(7)
O4 O -0.51044(15) 0.28484(8) 0.09512(7)
O5 O -0.47681(11) 0.00839(7) 0.00902(5)
O6 O -0.48162(11) -0.04580(7) 0.07958(5)
O7 O -0.49600(14) -0.11979(9) -0.03564(7)
O8 O -0.75457(14) 0.01720(9) -0.04317(7)
O9 O -0.28012(11) -0.03660(7) -0.00648(5)
O10 O -0.28148(12) -0.08751(7) 0.06554(5)
O11 O -0.17788(14) -0.06970(8) -0.09875(6)
O12 O -0.33202(14) -0.24015(7) -0.03435(6)
O13 O -0.20229(11) 0.07243(7) 0.04509(5)
O14 O -0.20631(11) 0.01995(7) 0.11609(5)
O15 O 0.03791(15) 0.17371(10) 0.03783(8)
O16 O -0.20926(15) 0.16315(9) 0.15214(7)
C1 C -0.42674(15) 0.10502(9) 0.10563(8)
C2 C -0.47702(17) 0.16091(10) 0.12972(7)
H1 H -0.4254 0.1940 0.1299
C3 C -0.51326(18) 0.15509(11) 0.18354(8)
C4 C -0.4224(2) 0.14196(14) 0.21618(9)
H2 H -0.4431 0.1415 0.2506
H3 H -0.3721 0.1740 0.2113
H4 H -0.3940 0.1020 0.2075
C5 C -0.5934(2) 0.10574(13) 0.19004(9)
H5 H -0.6118 0.1029 0.2247
H6 H -0.5673 0.0661 0.1789
H7 H -0.6523 0.1166 0.1707
C6 C -0.5567(2) 0.21746(13) 0.19913(10)
H8 H -0.5755 0.2158 0.2338
H9 H -0.6156 0.2267 0.1793
H10 H -0.5065 0.2496 0.1943
C7 C -0.62208(17) 0.14428(11) 0.07085(8)
C8 C -0.67913(17) 0.18518(11) 0.03803(8)
C9 C -0.75321(18) 0.17140(13) 0.00470(9)
H11 H -0.7759 0.1306 -0.0003
C10 C -0.79292(19) 0.22089(14) -0.02124(10)
H12 H -0.8442 0.2134 -0.0445
C11 C -0.7605(2) 0.28020(14) -0.01434(10)
H13 H -0.7903 0.3125 -0.0325
C12 C -0.6851(2) 0.29369(12) 0.01867(10)
H14 H -0.6617 0.3345 0.0231
C13 C -0.64532(18) 0.24488(10) 0.04490(8)
C14 C -0.56266(18) 0.24358(10) 0.08075(8)
C15 C -0.51835(16) -0.02644(9) 0.03984(7)
C16 C -0.62718(15) -0.04257(10) 0.02729(8)
H15 H -0.6654 -0.0037 0.0323
C17 C -0.68129(17) -0.09119(11) 0.05898(9)
C18 C -0.6878(2) -0.06757(15) 0.11158(10)
H16 H -0.7300 -0.0952 0.1309
H17 H -0.7169 -0.0263 0.1116
H18 H -0.6209 -0.0661 0.1259
C19 C -0.7882(2) -0.09666(15) 0.03894(12)
H19 H -0.8264 -0.1250 0.0595
H20 H -0.7860 -0.1122 0.0053
H21 H -0.8200 -0.0562 0.0393
C20 C -0.6313(2) -0.15436(12) 0.05644(12)
H22 H -0.6671 -0.1831 0.0777
H23 H -0.5619 -0.1509 0.0674
H24 H -0.6329 -0.1694 0.0227
C21 C -0.56390(18) -0.08998(11) -0.05256(9)
C22 C -0.59317(19) -0.08270(12) -0.10496(9)
C23 C -0.5559(2) -0.11092(15) -0.14620(11)
H25 H -0.5022 -0.1393 -0.1445
C24 C -0.6016(3) -0.09552(17) -0.19090(11)
H26 H -0.5780 -0.1138 -0.2203
C25 C -0.6794(3) -0.05476(15) -0.19311(10)
H27 H -0.7083 -0.0455 -0.2240
C26 C -0.7171(2) -0.02643(13) -0.15119(10)
H28 H -0.7708 0.0019 -0.1528
C27 C -0.67222(18) -0.04185(11) -0.10715(9)
C28 C -0.69500(18) -0.02093(11) -0.05654(9)
C29 C -0.26429(15) -0.08290(10) 0.02000(8)
C30 C -0.21517(17) -0.13979(10) -0.00230(7)
H29 H -0.2423 -0.1754 0.0166
C31 C -0.10011(18) -0.14094(11) 0.00677(9)
C32 C -0.0820(2) -0.15862(16) 0.06043(10)
H30 H -0.0108 -0.1549 0.0679
H31 H -0.1034 -0.2011 0.0658
H32 H -0.1202 -0.1312 0.0818
C33 C -0.0511(2) -0.07824(14) -0.00235(13)
H33 H 0.0209 -0.0814 0.0033
H34 H -0.0796 -0.0478 0.0200
H35 H -0.0632 -0.0655 -0.0362
C34 C -0.0532(2) -0.18981(15) -0.02525(12)
H36 H 0.0181 -0.1929 -0.0177
H37 H -0.0617 -0.1787 -0.0598
H38 H -0.0855 -0.2294 -0.0190
C35 C -0.30474(18) -0.20260(11) -0.06368(9)
C36 C -0.32123(19) -0.20171(12) -0.11780(9)
C37 C -0.3711(2) -0.24298(14) -0.14769(11)
H39 H -0.4041 -0.2781 -0.1348
C38 C -0.3703(3) -0.22999(16) -0.19792(12)
H40 H -0.4043 -0.2569 -0.2196
C39 C -0.3218(2) -0.17953(16) -0.21686(10)
H41 H -0.3221 -0.1727 -0.2512
C40 C -0.2723(2) -0.13846(14) -0.18624(9)
H42 H -0.2390 -0.1034 -0.1989
C41 C -0.27376(19) -0.15086(12) -0.13665(8)
C42 C -0.22612(17) -0.11618(11) -0.09538(8)
C43 C -0.16715(16) 0.05640(9) 0.08611(7)
C44 C -0.06445(16) 0.08536(10) 0.09673(9)
H43 H -0.0243 0.0778 0.0665
C45 C -0.00095(18) 0.05837(12) 0.13914(10)
C46 C 0.0140(2) -0.01035(13) 0.12938(12)
H44 H 0.0617 -0.0271 0.1531
H45 H 0.0399 -0.0161 0.0962
H46 H -0.0499 -0.0317 0.1327
C47 C -0.0484(2) 0.06807(15) 0.18947(10)
H47 H -0.0511 0.1121 0.1968
H48 H -0.0084 0.0472 0.2144
H49 H -0.1161 0.0512 0.1895
C48 C 0.1019(2) 0.08951(16) 0.13815(14)
H50 H 0.0943 0.1334 0.1450
H51 H 0.1321 0.0840 0.1058
H52 H 0.1449 0.0709 0.1631
C49 C -0.01970(19) 0.19125(12) 0.06828(10)
C50 C -0.0510(2) 0.25479(12) 0.08075(10)
C51 C -0.0197(2) 0.31070(13) 0.06183(12)
H53 H 0.0316 0.3130 0.0379
C52 C -0.0669(3) 0.36324(14) 0.07942(13)
H54 H -0.0468 0.4023 0.0676
C53 C -0.1420(3) 0.35960(13) 0.11365(13)
H55 H -0.1733 0.3963 0.1245
C54 C -0.1732(2) 0.30331(13) 0.13282(11)
H56 H -0.2245 0.3009 0.1567
C55 C -0.12599(19) 0.25131(12) 0.11534(9)
C56 C -0.14556(18) 0.18538(11) 0.12622(9)
C57 C -0.29725(18) 0.08197(10) -0.08872(8)
C58 C -0.26671(19) 0.08005(11) -0.13943(8)
C59 C -0.3075(2) 0.03507(13) -0.16935(9)
H57 H -0.3541 0.0064 -0.1566
C60 C -0.2794(2) 0.03244(13) -0.21805(9)
H58 H -0.3070 0.0021 -0.2390
C61 C -0.21085(19) 0.07437(11) -0.23606(8)
C62 C -0.1695(2) 0.11928(11) -0.20615(8)
H59 H -0.1226 0.1478 -0.2189
C63 C -0.1980(2) 0.12182(12) -0.15719(8)
H60 H -0.1704 0.1521 -0.1361
C64 C -0.18085(18) 0.06922(11) -0.28671(8)
Rh2A Rh -0.155720(12) 0.015420(7) -0.399580(5)
N6A N -0.34003(16) -0.06197(8) 0.17341(6)
C65 C -0.5249(4) 0.18664(19) 0.34415(13)
H61 H -0.4772 0.1612 0.3284
C66 C -0.6038(5) 0.1610(2) 0.36762(17)
H62 H -0.6107 0.1176 0.3685
C67 C -0.6740(5) 0.1974(4) 0.3902(2)
H63 H -0.7303 0.1793 0.4056
C68 C -0.6624(6) 0.2582(5) 0.3903(3)
H64 H -0.7095 0.2832 0.4070
C69 C -0.5866(5) 0.2842(2) 0.3678(2)
H65 H -0.5808 0.3276 0.3681
C70 C -0.5140(4) 0.2495(2) 0.34318(14)
C71 C -0.4286(5) 0.2758(3) 0.31820(19)
H66 H -0.4409 0.3195 0.3119
H67 H -0.4181 0.2544 0.2871
H68 H -0.3692 0.2714 0.3388
C72 C -0.4979(2) 0.49036(15) 0.16141(14)
H69 H -0.5363 0.5222 0.1470
C73 C -0.4746(3) 0.49310(17) 0.21027(15)
H70 H -0.4974 0.5269 0.2292
C74 C -0.4193(3) 0.44840(19) 0.23214(14)
H71 H -0.4030 0.4511 0.2659
C75 C -0.3871(3) 0.39898(16) 0.20449(13)
H72 H -0.3491 0.3673 0.2194
C76 C -0.4099(2) 0.39558(13) 0.15533(12)
H73 H -0.3871 0.3616 0.1366
C77 C -0.4659(2) 0.44131(12) 0.13289(12)
C78 C -0.4908(3) 0.43813(16) 0.07896(13)
H74 H -0.5552 0.4581 0.0731
H75 H -0.4945 0.3951 0.0687
H76 H -0.4388 0.4591 0.0601
C79 C 0.0679(3) 0.30915(19) 0.20818(15)
H77 H 0.0396 0.3149 0.1767
C80 C 0.1359(5) 0.2608(3) 0.2156(3)
H78 H 0.1540 0.2334 0.1901
C81 C 0.1776(4) 0.2551(3) 0.2658(3)
H79 H 0.2236 0.2236 0.2743
C82 C 0.1462(4) 0.2973(3) 0.2987(2)
H80 H 0.1737 0.2951 0.3307
C83 C 0.0801(5) 0.3418(3) 0.2902(2)
H81 H 0.0601 0.3689 0.3157
C84 C 0.0422(4) 0.3475(2) 0.24476(16)
C85 C -0.0326(5) 0.3986(3) 0.2353(3)
H82 H -0.0326 0.4089 0.2004
H83 H -0.0141 0.4349 0.2544
H84 H -0.0993 0.3848 0.2450
loop_
_geom_bond_atom_site_label_1
_geom_bond_atom_site_label_2
_geom_bond_site_symmetry_1
_geom_bond_site_symmetry_2
Rh1 Rh2 1_555 1_555
Rh2 O2 1_555 1_555
N1 C2 1_555 1_555
N2 C16 1_555 1_555
N3 C30 1_555 1_555
N4 C44 1_555 1_555
N5 Rh1 1_555 1_555
N6 C64 1_555 1_555
O1 Rh1 1_555 1_555
O2 C1 1_555 1_555
O3 C7 1_555 1_555
O4 C14 1_555 1_555
O5 Rh1 1_555 1_555
O6 Rh2 1_555 1_555
O7 C21 1_555 1_555
O8 C28 1_555 1_555
O9 Rh1 1_555 1_555
O10 Rh2 1_555 1_555
O11 C42 1_555 1_555
O12 C35 1_555 1_555
O13 Rh1 1_555 1_555
O14 Rh2 1_555 1_555
O15 C49 1_555 1_555
O16 C56 1_555 1_555
C1 O1 1_555 1_555
C2 C1 1_555 1_555
H1 C2 1_555 1_555
C3 C2 1_555 1_555
C4 C3 1_555 1_555
H2 C4 1_555 1_555
H3 C4 1_555 1_555
H4 C4 1_555 1_555
C5 C3 1_555 1_555
H5 C5 1_555 1_555
H6 C5 1_555 1_555
H7 C5 1_555 1_555
C6 C3 1_555 1_555
H8 C6 1_555 1_555
H9 C6 1_555 1_555
H10 C6 1_555 1_555
C7 N1 1_555 1_555
C8 C7 1_555 1_555
C9 C8 1_555 1_555
H11 C9 1_555 1_555
C10 C9 1_555 1_555
H12 C10 1_555 1_555
C11 C10 1_555 1_555
H13 C11 1_555 1_555
C12 C11 1_555 1_555
H14 C12 1_555 1_555
C13 C8 1_555 1_555
C14 N1 1_555 1_555
C15 O5 1_555 1_555
C16 C15 1_555 1_555
H15 C16 1_555 1_555
C17 C16 1_555 1_555
C18 C17 1_555 1_555
H16 C18 1_555 1_555
H17 C18 1_555 1_555
H18 C18 1_555 1_555
C19 C17 1_555 1_555
H19 C19 1_555 1_555
H20 C19 1_555 1_555
H21 C19 1_555 1_555
C20 C17 1_555 1_555
H22 C20 1_555 1_555
H23 C20 1_555 1_555
H24 C20 1_555 1_555
C21 N2 1_555 1_555
C22 C21 1_555 1_555
C23 C22 1_555 1_555
H25 C23 1_555 1_555
C24 C23 1_555 1_555
H26 C24 1_555 1_555
C25 C24 1_555 1_555
H27 C25 1_555 1_555
C26 C25 1_555 1_555
H28 C26 1_555 1_555
C27 C22 1_555 1_555
C28 N2 1_555 1_555
C29 O9 1_555 1_555
C30 C29 1_555 1_555
H29 C30 1_555 1_555
C31 C30 1_555 1_555
C32 C31 1_555 1_555
H30 C32 1_555 1_555
H31 C32 1_555 1_555
H32 C32 1_555 1_555
C33 C31 1_555 1_555
H33 C33 1_555 1_555
H34 C33 1_555 1_555
H35 C33 1_555 1_555
C34 C31 1_555 1_555
H36 C34 1_555 1_555
H37 C34 1_555 1_555
H38 C34 1_555 1_555
C35 N3 1_555 1_555
C36 C35 1_555 1_555
C37 C36 1_555 1_555
H39 C37 1_555 1_555
C38 C37 1_555 1_555
H40 C38 1_555 1_555
C39 C38 1_555 1_555
H41 C39 1_555 1_555
C40 C39 1_555 1_555
H42 C40 1_555 1_555
C41 C36 1_555 1_555
C42 N3 1_555 1_555
C43 O13 1_555 1_555
C44 C43 1_555 1_555
H43 C44 1_555 1_555
C45 C44 1_555 1_555
C46 C45 1_555 1_555
H44 C46 1_555 1_555
H45 C46 1_555 1_555
H46 C46 1_555 1_555
C47 C45 1_555 1_555
H47 C47 1_555 1_555
H48 C47 1_555 1_555
H49 C47 1_555 1_555
C48 C45 1_555 1_555
H50 C48 1_555 1_555
H51 C48 1_555 1_555
H52 C48 1_555 1_555
C49 N4 1_555 1_555
C50 C49 1_555 1_555
C51 C50 1_555 1_555
H53 C51 1_555 1_555
C52 C51 1_555 1_555
H54 C52 1_555 1_555
C53 C52 1_555 1_555
H55 C53 1_555 1_555
C54 C53 1_555 1_555
H56 C54 1_555 1_555
C55 C50 1_555 1_555
C56 N4 1_555 1_555
C57 N5 1_555 1_555
C58 C57 1_555 1_555
C59 C58 1_555 1_555
H57 C59 1_555 1_555
C60 C59 1_555 1_555
H58 C60 1_555 1_555
C61 C60 1_555 1_555
C62 C61 1_555 1_555
H59 C62 1_555 1_555
C63 C58 1_555 1_555
H60 C63 1_555 1_555
C64 C61 1_555 1_555
C65 H61 1_555 1_555
C66 C65 1_555 1_555
H62 C66 1_555 1_555
C67 C66 1_555 1_555
H63 C67 1_555 1_555
C68 C67 1_555 1_555
H64 C68 1_555 1_555
C69 C68 1_555 1_555
H65 C69 1_555 1_555
C70 C65 1_555 1_555
C71 C70 1_555 1_555
H66 C71 1_555 1_555
H67 C71 1_555 1_555
H68 C71 1_555 1_555
C72 H69 1_555 1_555
C73 C72 1_555 1_555
H70 C73 1_555 1_555
C74 C73 1_555 1_555
H71 C74 1_555 1_555
C75 C74 1_555 1_555
H72 C75 1_555 1_555
C76 C75 1_555 1_555
H73 C76 1_555 1_555
C77 C72 1_555 1_555
C78 C77 1_555 1_555
H74 C78 1_555 1_555
H75 C78 1_555 1_555
H76 C78 1_555 1_555
C79 H77 1_555 1_555
C80 C79 1_555 1_555
H78 C80 1_555 1_555
C81 C80 1_555 1_555
H79 C81 1_555 1_555
C82 C81 1_555 1_555
H80 C82 1_555 1_555
C83 C82 1_555 1_555
H81 C83 1_555 1_555
C84 C79 1_555 1_555
C85 C84 1_555 1_555
H82 C85 1_555 1_555
H83 C85 1_555 1_555
H84 C85 1_555 1_555
Rh2A N6 1_555 1_555
N6A Rh2 1_555 1_555
O6 C15 1_555 1_555
O10 C29 1_555 1_555
O14 C43 1_555 1_555
C12 C13 1_555 1_555
C13 C14 1_555 1_555
C26 C27 1_555 1_555
C27 C28 1_555 1_555
C40 C41 1_555 1_555
C41 C42 1_555 1_555
C54 C55 1_555 1_555
C55 C56 1_555 1_555
C62 C63 1_555 1_555
C69 C70 1_555 1_555
C76 C77 1_555 1_555
C83 C84 1_555 1_555

#END
