
#######################################################################
#
#                 Cambridge Crystallographic Data Centre
#                                CCDC 
#
#######################################################################
#
# If this CIF has been generated from an entry in the Cambridge 
# Structural Database, then it will include bibliographic, chemical, 
# crystal, experimental, refinement or atomic coordinate data resulting 
# from the CCDC's data processing and validation procedures.
#
#######################################################################

data_CUSQUD
_symmetry_cell_setting           monoclinic
_symmetry_space_group_name_H-M   'C 2/c'
_symmetry_Int_Tables_number      15
_space_group_name_Hall           '-C 2yn'
loop_
_symmetry_equiv_pos_site_id
_symmetry_equiv_pos_as_xyz
1 x,y,z
2 -x,y,1/2-z
3 1/2+x,1/2+y,z
4 1/2-x,1/2+y,1/2-z
5 -x,-y,-z
6 x,-y,1/2+z
7 1/2-x,1/2-y,-z
8 1/2+x,1/2-y,1/2+z
_cell_length_a                   16.7908(8)
_cell_length_b                   7.1429(4)
_cell_length_c                   22.1775(11)
_cell_angle_alpha                90
_cell_angle_beta                 94.5990(10)
_cell_angle_gamma                90
_cell_volume                     2651.29
loop_
_atom_site_label
_atom_site_type_symbol
_atom_site_fract_x
_atom_site_fract_y
_atom_site_fract_z
I1 I 0.370234(10) 0.01350(2) 0.297998(7)
Cd1 Cd 0.5000 0.15788(3) 0.2500
N1 N 0.45080(11) 0.3807(3) 0.18350(9)
N2 N 0.38599(11) 0.8372(3) 0.07085(9)
N3 N 0.16418(12) 1.1171(3) 0.06650(11)
C1 C 0.37430(14) 0.4390(3) 0.17558(10)
H1 H 0.3352 0.3741 0.1962
C2 C 0.34993(13) 0.5877(3) 0.13922(10)
H2 H 0.2951 0.6221 0.1347
C3 C 0.40642(13) 0.6884(3) 0.10875(10)
C4 C 0.48631(13) 0.6269(3) 0.11707(11)
H3 H 0.5271 0.6890 0.0974
C5 C 0.50439(14) 0.4762(3) 0.15386(11)
H4 H 0.5585 0.4366 0.1587
C6 C 0.31099(13) 0.9304(3) 0.07005(11)
C7 C 0.27825(15) 0.9809(3) 0.12333(11)
H5 H 0.3049 0.9525 0.1617
C8 C 0.20539(15) 1.0741(4) 0.11881(12)
H6 H 0.1834 1.1097 0.1553
C9 C 0.19723(14) 1.0681(4) 0.01625(12)
H7 H 0.1690 1.0975 -0.0214
C10 C 0.27022(15) 0.9768(3) 0.01505(11)
H8 H 0.2916 0.9471 -0.0222
C11 C 0.44403(13) 0.9192(3) 0.03419(10)
C12 C 0.47105(14) 1.0991(4) 0.04725(10)
H9 H 0.4512 1.1663 0.0798
C13 C 0.52694(14) 1.1812(3) 0.01292(11)
H10 H 0.5452 1.3049 0.0215
I1A I 0.629766(10) 0.01350(2) 0.202002(7)
Cd1D Cd 0.5000 1.84212(3) -0.2500
N1D N 0.54920(11) 1.6193(3) -0.18350(9)
N1A N 0.54920(11) 0.3807(3) 0.31650(9)
N2D N 0.61401(11) 1.1628(3) -0.07085(9)
N3D N 0.83582(12) 0.8829(3) -0.06650(11)
C1D C 0.62570(14) 1.5610(3) -0.17558(10)
H1D H 0.6648 1.6259 -0.1962
C2D C 0.65007(13) 1.4123(3) -0.13922(10)
H2D H 0.7049 1.3779 -0.1347
C3D C 0.59358(13) 1.3116(3) -0.10875(10)
C4D C 0.51369(13) 1.3731(3) -0.11707(11)
H3D H 0.4729 1.3110 -0.0974
C5D C 0.49561(14) 1.5238(3) -0.15386(11)
H4D H 0.4415 1.5634 -0.1587
C6D C 0.68901(13) 1.0696(3) -0.07005(11)
C7D C 0.72175(15) 1.0191(3) -0.12333(11)
H5D H 0.6951 1.0475 -0.1617
C8D C 0.79461(15) 0.9259(4) -0.11881(12)
H6D H 0.8166 0.8903 -0.1553
C9D C 0.80277(14) 0.9319(4) -0.01625(12)
H7D H 0.8310 0.9025 0.0214
C10D C 0.72978(15) 1.0232(3) -0.01505(11)
H8D H 0.7084 1.0529 0.0222
C11D C 0.55597(13) 1.0808(3) -0.03419(10)
C12D C 0.52895(14) 0.9009(4) -0.04725(10)
H9D H 0.5488 0.8337 -0.0798
C13D C 0.47306(14) 0.8188(3) -0.01292(11)
H10D H 0.4548 0.6951 -0.0215
loop_
_geom_bond_atom_site_label_1
_geom_bond_atom_site_label_2
_geom_bond_site_symmetry_1
_geom_bond_site_symmetry_2
I1 Cd1 1_555 1_555
Cd1 N1 1_555 1_555
N1 C1 1_555 1_555
N2 C3 1_555 1_555
N3 C8 1_555 1_555
C1 H1 1_555 1_555
C2 C1 1_555 1_555
H2 C2 1_555 1_555
C3 C2 1_555 1_555
C4 C3 1_555 1_555
H3 C4 1_555 1_555
C5 N1 1_555 1_555
H4 C5 1_555 1_555
C6 N2 1_555 1_555
C7 C6 1_555 1_555
H5 C7 1_555 1_555
C8 C7 1_555 1_555
H6 C8 1_555 1_555
C9 N3 1_555 1_555
H7 C9 1_555 1_555
C10 C6 1_555 1_555
H8 C10 1_555 1_555
C11 N2 1_555 1_555
C12 C11 1_555 1_555
H9 C12 1_555 1_555
C13 C12 1_555 1_555
H10 C13 1_555 1_555
I1A Cd1 1_555 1_555
Cd1D N1D 1_555 1_555
N1D C1D 1_555 1_555
N1A Cd1 1_555 1_555
N2D C3D 1_555 1_555
N3D C8D 1_555 1_555
C1D H1D 1_555 1_555
C2D C1D 1_555 1_555
H2D C2D 1_555 1_555
C3D C2D 1_555 1_555
C4D C3D 1_555 1_555
H3D C4D 1_555 1_555
C5D N1D 1_555 1_555
H4D C5D 1_555 1_555
C6D N2D 1_555 1_555
C7D C6D 1_555 1_555
H5D C7D 1_555 1_555
C8D C7D 1_555 1_555
H6D C8D 1_555 1_555
C9D N3D 1_555 1_555
H7D C9D 1_555 1_555
C10D C6D 1_555 1_555
H8D C10D 1_555 1_555
C11D C13 1_555 1_555
C12D C11D 1_555 1_555
H9D C12D 1_555 1_555
C13D C11 1_555 1_555
H10D C13D 1_555 1_555
C4 C5 1_555 1_555
C9 C10 1_555 1_555
N2D C11D 1_555 1_555
C4D C5D 1_555 1_555
C9D C10D 1_555 1_555
C12D C13D 1_555 1_555

#END
