
#######################################################################
#
#                 Cambridge Crystallographic Data Centre
#                                CCDC 
#
#######################################################################
#
# If this CIF has been generated from an entry in the Cambridge 
# Structural Database, then it will include bibliographic, chemical, 
# crystal, experimental, refinement or atomic coordinate data resulting 
# from the CCDC's data processing and validation procedures.
#
#######################################################################

data_CUSROY
_symmetry_cell_setting           triclinic
_symmetry_space_group_name_H-M   'P -1'
_symmetry_Int_Tables_number      2
_space_group_name_Hall           '-P 1'
loop_
_symmetry_equiv_pos_site_id
_symmetry_equiv_pos_as_xyz
1 x,y,z
2 -x,-y,-z
_cell_length_a                   9.33580(10)
_cell_length_b                   12.2736(2)
_cell_length_c                   12.9081(2)
_cell_angle_alpha                108.7510(10)
_cell_angle_beta                 97.8740(10)
_cell_angle_gamma                108.0860(10)
_cell_volume                     1284.47
loop_
_atom_site_label
_atom_site_type_symbol
_atom_site_fract_x
_atom_site_fract_y
_atom_site_fract_z
I1 I -0.11294(2) 0.546849(17) 0.144540(16)
I2 I 0.17944(3) 0.958645(18) 0.408383(17)
Cd1 Cd 0.14823(2) 0.761932(19) 0.220750(18)
N1 N 0.3346(3) 0.6904(2) 0.2628(2)
N2 N 0.6113(3) 0.5092(2) 0.3601(2)
N3 N 1.0172(3) 0.6853(3) 0.6350(2)
N4 N 0.1373(3) -0.1775(2) 0.0705(2)
N5 N 0.3826(3) -0.0146(2) 0.1591(2)
N6 N 0.4479(3) -0.1823(2) 0.0690(2)
C1 C 0.4387(3) 0.7433(3) 0.3650(2)
H1 H 0.4465 0.8221 0.4155
C2 C 0.5349(3) 0.6891(3) 0.4005(2)
H2 H 0.6068 0.7303 0.4734
C3 C 0.5252(3) 0.5729(3) 0.3277(2)
C4 C 0.4195(3) 0.5195(3) 0.2208(2)
H3 H 0.4108 0.4417 0.1680
C5 C 0.3279(3) 0.5797(3) 0.1921(3)
H4 H 0.2566 0.5414 0.1191
C6 C 0.7497(3) 0.5687(3) 0.4503(2)
C7 C 0.8558(3) 0.6865(3) 0.4726(3)
H5 H 0.8404 0.7296 0.4254
C8 C 0.9853(4) 0.7403(3) 0.5655(3)
H6 H 1.0559 0.8218 0.5807
C9 C 0.9172(4) 0.5693(3) 0.6085(3)
H7 H 0.9392 0.5266 0.6545
C10 C 0.7843(3) 0.5073(3) 0.5191(3)
H8 H 0.7177 0.4247 0.5046
C11 C 0.5533(3) 0.3764(3) 0.3067(2)
C12 C 0.6459(3) 0.3175(3) 0.2563(3)
H9 H 0.7471 0.3655 0.2553
C13 C 0.5914(3) 0.1896(3) 0.2077(3)
H10 H 0.6547 0.1499 0.1726
C14 C 0.4433(3) 0.1183(2) 0.2098(2)
C15 C 0.3503(3) 0.1768(3) 0.2605(2)
H11 H 0.2494 0.1287 0.2619
C16 C 0.4051(3) 0.3055(3) 0.3088(2)
H12 H 0.3417 0.3455 0.3434
C17 C 0.2413(3) -0.0735(3) 0.0713(2)
C18 C 0.2142(3) -0.0248(3) -0.0099(2)
H13 H 0.2876 0.0514 -0.0054
C19 C 0.0788(4) -0.0891(3) -0.0969(3)
H14 H 0.0576 -0.0579 -0.1533
C20 C -0.0261(4) -0.2000(3) -0.1009(3)
H15 H -0.1185 -0.2473 -0.1613
C21 C 0.0065(3) -0.2402(3) -0.0156(3)
H16 H -0.0664 -0.3152 -0.0176
C22 C 0.4827(3) -0.0804(3) 0.1609(3)
C23 C 0.6074(3) -0.0376(3) 0.2556(3)
H17 H 0.6266 0.0350 0.3201
C24 C 0.7025(4) -0.1057(3) 0.2519(3)
H18 H 0.7896 -0.0793 0.3142
C25 C 0.6695(4) -0.2123(3) 0.1569(3)
H19 H 0.7339 -0.2594 0.1522
C26 C 0.5395(4) -0.2479(3) 0.0690(3)
H20 H 0.5138 -0.3228 0.0053
Cd1_2 Cd 0.14823(2) -0.238068(19) 0.220750(18)
N4_2 N 0.1373(3) 0.8225(2) 0.0705(2)
loop_
_geom_bond_atom_site_label_1
_geom_bond_atom_site_label_2
_geom_bond_site_symmetry_1
_geom_bond_site_symmetry_2
I1 Cd1 1_555 1_555
I2 Cd1 1_555 1_555
Cd1 N1 1_555 1_555
N1 C1 1_555 1_555
N2 C3 1_555 1_555
N3 C8 1_555 1_555
N4 C17 1_555 1_555
N5 C14 1_555 1_555
N6 C22 1_555 1_555
C1 H1 1_555 1_555
C2 C1 1_555 1_555
H2 C2 1_555 1_555
C3 C2 1_555 1_555
C4 C3 1_555 1_555
H3 C4 1_555 1_555
C5 N1 1_555 1_555
H4 C5 1_555 1_555
C6 N2 1_555 1_555
C7 C6 1_555 1_555
H5 C7 1_555 1_555
C8 C7 1_555 1_555
H6 C8 1_555 1_555
C9 N3 1_555 1_555
H7 C9 1_555 1_555
C10 C6 1_555 1_555
H8 C10 1_555 1_555
C11 N2 1_555 1_555
C12 C11 1_555 1_555
H9 C12 1_555 1_555
C13 C12 1_555 1_555
H10 C13 1_555 1_555
C14 C13 1_555 1_555
C15 C14 1_555 1_555
H11 C15 1_555 1_555
C16 C11 1_555 1_555
H12 C16 1_555 1_555
C17 N5 1_555 1_555
C18 C17 1_555 1_555
H13 C18 1_555 1_555
C19 C18 1_555 1_555
H14 C19 1_555 1_555
C20 C19 1_555 1_555
H15 C20 1_555 1_555
C21 N4 1_555 1_555
H16 C21 1_555 1_555
C22 N5 1_555 1_555
C23 C22 1_555 1_555
H17 C23 1_555 1_555
C24 C23 1_555 1_555
H18 C24 1_555 1_555
C25 C24 1_555 1_555
H19 C25 1_555 1_555
C26 N6 1_555 1_555
H20 C26 1_555 1_555
Cd1_2 N4 1_555 1_555
N4_2 Cd1 1_555 1_555
C4 C5 1_555 1_555
C9 C10 1_555 1_555
C15 C16 1_555 1_555
C20 C21 1_555 1_555
C25 C26 1_555 1_555

#END
