
#######################################################################
#
#                 Cambridge Crystallographic Data Centre
#                                CCDC 
#
#######################################################################
#
# If this CIF has been generated from an entry in the Cambridge 
# Structural Database, then it will include bibliographic, chemical, 
# crystal, experimental, refinement or atomic coordinate data resulting 
# from the CCDC's data processing and validation procedures.
#
#######################################################################

data_CUSREO
_symmetry_cell_setting           monoclinic
_symmetry_space_group_name_H-M   'C 2/c'
_symmetry_Int_Tables_number      15
_space_group_name_Hall           '-C 2yn'
loop_
_symmetry_equiv_pos_site_id
_symmetry_equiv_pos_as_xyz
1 x,y,z
2 -x,y,1/2-z
3 1/2+x,1/2+y,z
4 1/2-x,1/2+y,1/2-z
5 -x,-y,-z
6 x,-y,1/2+z
7 1/2-x,1/2-y,-z
8 1/2+x,1/2-y,1/2+z
_cell_length_a                   16.8843(11)
_cell_length_b                   7.1365(5)
_cell_length_c                   21.5095(14)
_cell_angle_alpha                90
_cell_angle_beta                 92.4460(10)
_cell_angle_gamma                90
_cell_volume                     2589.42
loop_
_atom_site_label
_atom_site_type_symbol
_atom_site_fract_x
_atom_site_fract_y
_atom_site_fract_z
Hg1 Hg 0.5000 0.12125(3) 0.7500
Br1 Br 0.62253(3) 0.02299(9) 0.69898(3)
C1 C 0.5012(2) 0.4772(7) 0.65825(19)
H1 H 0.5541 0.4412 0.6632
C2 C 0.4844(2) 0.6317(6) 0.6227(2)
H2 H 0.5248 0.6985 0.6047
C3 C 0.4056(2) 0.6876(5) 0.61383(17)
C4 C 0.3488(2) 0.5812(6) 0.64349(18)
H3 H 0.2954 0.6133 0.6393
C5 C 0.3720(2) 0.4297(6) 0.67877(18)
H4 H 0.3333 0.3618 0.6984
C6 C 0.3112(2) 0.9302(6) 0.57620(19)
C7 C 0.2713(2) 0.9762(6) 0.5208(2)
H5 H 0.2927 0.9470 0.4829
C8 C 0.1994(3) 1.0658(7) 0.5229(3)
H6 H 0.1727 1.0928 0.4853
C9 C 0.2053(3) 1.0751(7) 0.6270(3)
H7 H 0.1832 1.1117 0.6640
C10 C 0.2772(2) 0.9817(6) 0.63104(19)
H8 H 0.3019 0.9544 0.6695
C11 C 0.4443(2) 0.9199(6) 0.53660(17)
C12 C 0.4696(2) 1.1000(6) 0.54798(19)
H9 H 0.4489 1.1675 0.5805
C13 C 0.47454(10) 0.8182(2) 0.48845(9)
H10 H 0.4575 0.6962 0.4806
N1 N 0.44750(10) 0.3739(2) 0.68653(9)
N2 N 0.38603(10) 0.8393(2) 0.57564(9)
N3 N 0.16569(10) 1.1162(2) 0.57457(9)
Hg1D Hg 0.5000 1.87875(3) 0.2500
Br1A Br 0.37747(3) 0.02299(9) 0.80102(3)
C1D C 0.4988(2) 1.5228(7) 0.34175(19)
H1D H 0.4459 1.5588 0.3368
C2D C 0.5156(2) 1.3683(6) 0.3773(2)
H2D H 0.4752 1.3015 0.3953
C3D C 0.5944(2) 1.3124(5) 0.38617(17)
C4D C 0.6512(2) 1.4188(6) 0.35651(18)
H3D H 0.7046 1.3867 0.3607
C5D C 0.6280(2) 1.5703(6) 0.32123(18)
H4D H 0.6667 1.6382 0.3016
C6D C 0.6888(2) 1.0698(6) 0.42380(19)
C7D C 0.7287(2) 1.0238(6) 0.4792(2)
H5D H 0.7073 1.0530 0.5171
C8D C 0.8006(3) 0.9342(7) 0.4771(3)
H6D H 0.8273 0.9072 0.5147
C9D C 0.7947(3) 0.9249(7) 0.3730(3)
H7D H 0.8168 0.8883 0.3360
C10D C 0.7228(2) 1.0183(6) 0.36896(19)
H8D H 0.6981 1.0456 0.3305
C11D C 0.5557(2) 1.0801(6) 0.46340(17)
C12D C 0.5304(2) 0.9000(6) 0.45202(19)
H9D H 0.5511 0.8325 0.4195
C13D C 0.52546(10) 1.1818(2) 0.51155(9)
H10D H 0.5425 1.3038 0.5194
N1D N 0.55250(10) 1.6261(2) 0.31347(9)
N1A N 0.55250(10) 0.3739(2) 0.81347(9)
N2D N 0.61397(10) 1.1607(2) 0.42436(9)
N3D N 0.83431(10) 0.8838(2) 0.42543(9)
loop_
_geom_bond_atom_site_label_1
_geom_bond_atom_site_label_2
_geom_bond_site_symmetry_1
_geom_bond_site_symmetry_2
Hg1 Br1 1_555 1_555
C1 H1 1_555 1_555
C2 C1 1_555 1_555
H2 C2 1_555 1_555
C3 C2 1_555 1_555
C4 C3 1_555 1_555
H3 C4 1_555 1_555
C5 C4 1_555 1_555
H4 C5 1_555 1_555
C6 C7 1_555 1_555
C7 H5 1_555 1_555
C8 C7 1_555 1_555
H6 C8 1_555 1_555
C9 H7 1_555 1_555
C10 C6 1_555 1_555
H8 C10 1_555 1_555
C11 C12 1_555 1_555
C12 H9 1_555 1_555
C13 C11 1_555 1_555
H10 C13 1_555 1_555
N1 Hg1 1_555 1_555
N2 C3 1_555 1_555
N3 C8 1_555 1_555
Hg1D N1D 1_555 1_555
Br1A Hg1 1_555 1_555
C1D H1D 1_555 1_555
C2D C1D 1_555 1_555
H2D C2D 1_555 1_555
C3D C2D 1_555 1_555
C4D C3D 1_555 1_555
H3D C4D 1_555 1_555
C5D C4D 1_555 1_555
H4D C5D 1_555 1_555
C6D C7D 1_555 1_555
C7D H5D 1_555 1_555
C8D C7D 1_555 1_555
H6D C8D 1_555 1_555
C9D H7D 1_555 1_555
C10D C6D 1_555 1_555
H8D C10D 1_555 1_555
C11D C12D 1_555 1_555
C12D C13 1_555 1_555
H9D C12D 1_555 1_555
C13D C12 1_555 1_555
H10D C13D 1_555 1_555
N1D C1D 1_555 1_555
N1A Hg1 1_555 1_555
N2D C3D 1_555 1_555
N3D C8D 1_555 1_555
C1 N1 1_555 1_555
C5 N1 1_555 1_555
C6 N2 1_555 1_555
C9 C10 1_555 1_555
C9 N3 1_555 1_555
C11 N2 1_555 1_555
C5D N1D 1_555 1_555
C6D N2D 1_555 1_555
C9D C10D 1_555 1_555
C9D N3D 1_555 1_555
C11D C13D 1_555 1_555
C11D N2D 1_555 1_555

#END
