
#######################################################################
#
#                 Cambridge Crystallographic Data Centre
#                                CCDC 
#
#######################################################################
#
# If this CIF has been generated from an entry in the Cambridge 
# Structural Database, then it will include bibliographic, chemical, 
# crystal, experimental, refinement or atomic coordinate data resulting 
# from the CCDC's data processing and validation procedures.
#
#######################################################################

data_CUSRAK
_symmetry_cell_setting           monoclinic
_symmetry_space_group_name_H-M   'C 2/c'
_symmetry_Int_Tables_number      15
_space_group_name_Hall           '-C 2yn'
loop_
_symmetry_equiv_pos_site_id
_symmetry_equiv_pos_as_xyz
1 x,y,z
2 -x,y,1/2-z
3 1/2+x,1/2+y,z
4 1/2-x,1/2+y,1/2-z
5 -x,-y,-z
6 x,-y,1/2+z
7 1/2-x,1/2-y,-z
8 1/2+x,1/2-y,1/2+z
_cell_length_a                   16.828(3)
_cell_length_b                   7.0758(14)
_cell_length_c                   21.274(4)
_cell_angle_alpha                90
_cell_angle_beta                 91.943(2)
_cell_angle_gamma                90
_cell_volume                     2531.67
loop_
_atom_site_label
_atom_site_type_symbol
_atom_site_fract_x
_atom_site_fract_y
_atom_site_fract_z
Hg1 Hg 0.5000 0.10837(3) 0.2500
Cl1 Cl 0.38141(11) 0.0236(3) 0.29877(9)
C1 C 0.5311(3) 1.1020(5) 0.4516(2)
H1 H 0.5518 1.1708 0.4187
N1 N 0.5538(2) 0.3676(5) 0.3119(2)
C2 C 0.6899(2) 0.9326(5) 0.4219(2)
N2 N 0.6145(2) 0.8390(5) 0.4225(2)
C3 C 0.5562(2) 0.9205(5) 0.4624(2)
C4 C 0.6289(3) 0.4263(6) 0.3193(2)
H2 H 0.6679 0.3570 0.2995
C5 C 0.6530(3) 0.5801(5) 0.3536(2)
H3 H 0.7065 0.6129 0.3570
N3 N 0.8356(3) 1.1214(6) 0.4235(3)
C6 C 0.5952(2) 0.6888(6) 0.3840(2)
C7 C 0.4994(2) 0.4738(7) 0.3405(2)
H4 H 0.4464 0.4372 0.3361
C8 C 0.7292(2) 0.9768(6) 0.4775(3)
H5 H 0.7075 0.9454 0.5157
C9 C 0.7237(3) 0.9850(7) 0.3663(3)
H6 H 0.6990 0.9580 0.3276
C10 C 0.4749(2) 1.1842(6) 0.4895(2)
H7 H 0.4584 1.3082 0.4825
C11 C 0.7962(3) 1.0800(7) 0.3703(4)
H8 H 0.8185 1.1171 0.3329
C12 C 0.8011(3) 1.0679(7) 0.4758(3)
H9 H 0.8274 1.0940 0.5140
C13 C 0.5164(3) 0.6307(6) 0.3752(3)
H10 H 0.4757 0.6990 0.3930
Hg1D Hg 0.5000 1.89163(3) 0.7500
Cl1A Cl 0.61859(11) 0.0236(3) 0.20123(9)
C1D C 0.4689(3) 0.8980(5) 0.5484(2)
H1D H 0.4482 0.8292 0.5813
N1D N 0.4462(2) 1.6324(5) 0.6881(2)
N1A N 0.4462(2) 0.3676(5) 0.1881(2)
C2D C 0.3101(2) 1.0674(5) 0.5781(2)
N2D N 0.3855(2) 1.1610(5) 0.5775(2)
C3D C 0.4438(2) 1.0795(5) 0.5376(2)
C4D C 0.3711(3) 1.5737(6) 0.6807(2)
H2D H 0.3321 1.6430 0.7005
C5D C 0.3470(3) 1.4199(5) 0.6464(2)
H3D H 0.2935 1.3871 0.6430
N3D N 0.1644(3) 0.8786(6) 0.5765(3)
C6D C 0.4048(2) 1.3112(6) 0.6160(2)
C7D C 0.5006(2) 1.5262(7) 0.6595(2)
H4D H 0.5536 1.5628 0.6639
C8D C 0.2708(2) 1.0232(6) 0.5225(3)
H5D H 0.2925 1.0546 0.4843
C9D C 0.2763(3) 1.0150(7) 0.6337(3)
H6D H 0.3010 1.0420 0.6724
C10D C 0.5251(2) 0.8158(6) 0.5105(2)
H7D H 0.5416 0.6918 0.5175
C11D C 0.2038(3) 0.9200(7) 0.6297(4)
H8D H 0.1815 0.8829 0.6671
C12D C 0.1989(3) 0.9321(7) 0.5242(3)
H9D H 0.1726 0.9060 0.4860
C13D C 0.4836(3) 1.3693(6) 0.6248(3)
H10D H 0.5243 1.3010 0.6070
loop_
_geom_bond_atom_site_label_1
_geom_bond_atom_site_label_2
_geom_bond_site_symmetry_1
_geom_bond_site_symmetry_2
Hg1 Cl1 1_555 1_555
C1 H1 1_555 1_555
N1 Hg1 1_555 1_555
C2 N2 1_555 1_555
N2 C3 1_555 1_555
C3 C1 1_555 1_555
C4 N1 1_555 1_555
H2 C4 1_555 1_555
C5 C4 1_555 1_555
H3 C5 1_555 1_555
N3 C11 1_555 1_555
C6 N2 1_555 1_555
C7 N1 1_555 1_555
H4 C7 1_555 1_555
C8 C2 1_555 1_555
H5 C8 1_555 1_555
C9 C2 1_555 1_555
H6 C9 1_555 1_555
C10 C1 1_555 1_555
H7 C10 1_555 1_555
C11 C9 1_555 1_555
H8 C11 1_555 1_555
C12 N3 1_555 1_555
H9 C12 1_555 1_555
C13 C6 1_555 1_555
H10 C13 1_555 1_555
Hg1D N1D 1_555 1_555
Cl1A Hg1 1_555 1_555
C1D H1D 1_555 1_555
N1D C4D 1_555 1_555
N1A Hg1 1_555 1_555
C2D N2D 1_555 1_555
N2D C3D 1_555 1_555
C3D C10 1_555 1_555
C4D H2D 1_555 1_555
C5D C4D 1_555 1_555
H3D C5D 1_555 1_555
N3D C11D 1_555 1_555
C6D N2D 1_555 1_555
C7D N1D 1_555 1_555
H4D C7D 1_555 1_555
C8D C2D 1_555 1_555
H5D C8D 1_555 1_555
C9D C2D 1_555 1_555
H6D C9D 1_555 1_555
C10D C3 1_555 1_555
H7D C10D 1_555 1_555
C11D C9D 1_555 1_555
H8D C11D 1_555 1_555
C12D N3D 1_555 1_555
H9D C12D 1_555 1_555
C13D C6D 1_555 1_555
H10D C13D 1_555 1_555
C5 C6 1_555 1_555
C7 C13 1_555 1_555
C8 C12 1_555 1_555
C1D C3D 1_555 1_555
C1D C10D 1_555 1_555
C5D C6D 1_555 1_555
C7D C13D 1_555 1_555
C8D C12D 1_555 1_555

#END
