
#######################################################################
#
#                 Cambridge Crystallographic Data Centre
#                                CCDC 
#
#######################################################################
#
# If this CIF has been generated from an entry in the Cambridge 
# Structural Database, then it will include bibliographic, chemical, 
# crystal, experimental, refinement or atomic coordinate data resulting 
# from the CCDC's data processing and validation procedures.
#
#######################################################################

data_CUSTOA02
_symmetry_cell_setting           monoclinic
_symmetry_space_group_name_H-M   'C 2'
_symmetry_Int_Tables_number      5
_space_group_name_Hall           'C 2y'
loop_
_symmetry_equiv_pos_site_id
_symmetry_equiv_pos_as_xyz
1 x,y,z
2 -x,y,-z
3 1/2+x,1/2+y,z
4 1/2-x,1/2+y,-z
_cell_length_a                   15.5830(7)
_cell_length_b                   6.0180(9)
_cell_length_c                   14.1150(15)
_cell_angle_alpha                90
_cell_angle_beta                 111.026(2)
_cell_angle_gamma                90
_cell_volume                     1235.55
loop_
_atom_site_label
_atom_site_type_symbol
_atom_site_fract_x
_atom_site_fract_y
_atom_site_fract_z
Cd1 Cd 0.5000 0.6402 0.5000
C1 C 0.3402(3) 1.2169(9) -0.2966(3)
H1 H 0.4011 1.2387 -0.2545
C2 C 0.2897(3) 1.0494(8) -0.2757(3)
C3 C 0.2113(3) 1.3169(7) -0.4401(3)
H2 H 0.1846 1.4109 -0.4952
C4 C 0.3016(3) 1.3516(10) -0.3789(4)
H3 H 0.3356 1.4648 -0.3933
C5 C 0.2003(2) 1.0236(7) -0.3430(3)
H4 H 0.1656 0.9083 -0.3313
C6 C 0.3256(3) 0.9106(9) -0.1827(3)
H5 H 0.2887 0.7775 -0.1899
H6 H 0.3887 0.8669 -0.1702
C7 C 0.3606(3) 0.9686(7) -0.0046(3)
C8 C 0.3640(3) 1.1199(16) 0.0701(3)
H7 H 0.3392 1.2611 0.0522
C9 C 0.4039(3) 1.0625(7) 0.1711(3)
H8 H 0.4083 1.1674 0.2210
C10 C 0.4375(2) 0.8499(6) 0.1987(3)
C11 C 0.4313(2) 0.6977(6) 0.1232(2)
H9 H 0.4531 0.5540 0.1412
C12 C 0.3935(3) 0.7540(7) 0.0212(3)
H10 H 0.3903 0.6503 -0.0288
C13 C 0.4774(3) 0.7804(9) 0.3076(4)
N1 N 0.16092(17) 1.1527(14) -0.42323(17)
O1 O 0.3207(2) 1.0444(6) -0.1016(2)
O2 O 0.4894(2) 0.9222(5) 0.3755(2)
O3 O 0.4946(3) 0.5785(5) 0.3284(3)
O4 O 0.5000 0.2654(8) 0.5000
H11 H 0.495(5) 0.179(11) 0.450(4)
H11A H 0.505(5) 0.179(11) 0.550(4)
C1B C 0.8402(3) 0.7169(9) 0.7034(3)
H1B H 0.9011 0.7387 0.7455
C2B C 0.7897(3) 0.5494(8) 0.7243(3)
C3B C 0.7113(3) 0.8169(7) 0.5599(3)
H2B H 0.6846 0.9109 0.5048
C4B C 0.8016(3) 0.8516(10) 0.6211(4)
H3B H 0.8356 0.9648 0.6067
C5B C 0.7003(2) 0.5236(7) 0.6570(3)
H4B H 0.6656 0.4083 0.6687
C6B C 0.8256(3) 0.4106(9) 0.8173(3)
H5B H 0.7887 0.2775 0.8101
H6B H 0.8887 0.3669 0.8298
C7B C 0.8606(3) 0.4686(7) 0.9954(3)
C8B C 0.8640(3) 0.6199(16) 1.0701(3)
H7B H 0.8392 0.7611 1.0522
C9B C 0.9039(3) 0.5625(7) 1.1711(3)
H8B H 0.9083 0.6674 1.2210
C10B C 0.9375(2) 0.3499(6) 1.1987(3)
C11B C 0.9313(2) 0.1977(6) 1.1232(2)
H9B H 0.9531 0.0540 1.1412
C12B C 0.8935(3) 0.2540(7) 1.0212(3)
H10B H 0.8903 0.1503 0.9712
C13B C 0.9774(3) 0.2804(9) 1.3076(4)
N1B N 0.66092(17) 0.6527(14) 0.57677(17)
O1B O 0.8207(2) 0.5444(6) 0.8984(2)
O2B O 0.9894(2) 0.4222(5) 1.3755(2)
O3B O 0.9946(3) 0.0785(5) 1.3284(3)
N1C N 0.33908(17) 0.6527(14) 0.42323(17)
O2A O 0.5106(2) 0.9222(5) 0.6245(2)
O3A O 0.5054(3) 0.5785(5) 0.6716(3)
Cd1B Cd 0.0000 1.1402 -0.5000
Cd1B_2 Cd 1.0000 0.1402 1.5000
loop_
_geom_bond_atom_site_label_1
_geom_bond_atom_site_label_2
_geom_bond_site_symmetry_1
_geom_bond_site_symmetry_2
Cd1 O2 1_555 1_555
C1 H1 1_555 1_555
C2 C1 1_555 1_555
C3 H2 1_555 1_555
C4 C1 1_555 1_555
H3 C4 1_555 1_555
C5 C2 1_555 1_555
H4 C5 1_555 1_555
C6 C2 1_555 1_555
H5 C6 1_555 1_555
H6 C6 1_555 1_555
C7 C8 1_555 1_555
C8 H7 1_555 1_555
C9 C8 1_555 1_555
H8 C9 1_555 1_555
C10 C9 1_555 1_555
C11 C10 1_555 1_555
H9 C11 1_555 1_555
C12 C7 1_555 1_555
H10 C12 1_555 1_555
C13 C10 1_555 1_555
N1 C3 1_555 1_555
O1 C6 1_555 1_555
O2 C13 1_555 1_555
O3 Cd1 1_555 1_555
O4 Cd1 1_555 1_555
H11 O4 1_555 1_555
H11A O4 1_555 1_555
C1B H1B 1_555 1_555
C2B C1B 1_555 1_555
C3B H2B 1_555 1_555
C4B C1B 1_555 1_555
H3B C4B 1_555 1_555
C5B C2B 1_555 1_555
H4B C5B 1_555 1_555
C6B C2B 1_555 1_555
H5B C6B 1_555 1_555
H6B C6B 1_555 1_555
C7B C8B 1_555 1_555
C8B H7B 1_555 1_555
C9B C8B 1_555 1_555
H8B C9B 1_555 1_555
C10B C9B 1_555 1_555
C11B C10B 1_555 1_555
H9B C11B 1_555 1_555
C12B C7B 1_555 1_555
H10B C12B 1_555 1_555
C13B C10B 1_555 1_555
N1B Cd1 1_555 1_555
O1B C6B 1_555 1_555
O2B C13B 1_555 1_555
O3B C13B 1_555 1_555
N1C Cd1 1_555 1_555
O2A Cd1 1_555 1_555
O3A Cd1 1_555 1_555
Cd1B N1 1_555 1_555
Cd1B_2 O2B 1_555 1_555
C3 C4 1_555 1_555
C5 N1 1_555 1_555
C7 O1 1_555 1_555
C11 C12 1_555 1_555
C13 O3 1_555 1_555
C3B N1B 1_555 1_555
C3B C4B 1_555 1_555
C5B N1B 1_555 1_555
C7B O1B 1_555 1_555
C11B C12B 1_555 1_555
O3B Cd1B_2 1_555 1_555

#END
