
#######################################################################
#
#                 Cambridge Crystallographic Data Centre
#                                CCDC 
#
#######################################################################
#
# If this CIF has been generated from an entry in the Cambridge 
# Structural Database, then it will include bibliographic, chemical, 
# crystal, experimental, refinement or atomic coordinate data resulting 
# from the CCDC's data processing and validation procedures.
#
#######################################################################

data_CUSTOA01
_symmetry_cell_setting           monoclinic
_symmetry_space_group_name_H-M   'C 2'
_symmetry_Int_Tables_number      5
_space_group_name_Hall           'C 2y'
loop_
_symmetry_equiv_pos_site_id
_symmetry_equiv_pos_as_xyz
1 x,y,z
2 -x,y,-z
3 1/2+x,1/2+y,z
4 1/2-x,1/2+y,-z
_cell_length_a                   15.6120(4)
_cell_length_b                   6.0220(5)
_cell_length_c                   14.1470(9)
_cell_angle_alpha                90
_cell_angle_beta                 111.2100(10)
_cell_angle_gamma                90
_cell_volume                     1239.94
loop_
_atom_site_label
_atom_site_type_symbol
_atom_site_fract_x
_atom_site_fract_y
_atom_site_fract_z
Cd1 Cd 0.5000 0.5729 0.5000
C1 C 0.34071(19) -0.0028(7) -0.2967(2)
H1 H 0.4016 -0.0238 -0.2546
C2 C 0.3020(2) -0.1376(7) -0.3796(3)
H2 H 0.3362 -0.2494 -0.3945
C3 C 0.21111(18) -0.1038(6) -0.4404(2)
H3 H 0.1840 -0.1980 -0.4951
C4 C 0.20022(16) 0.1893(5) -0.34279(18)
H4 H 0.1655 0.3041 -0.3311
C5 C 0.28988(17) 0.1629(5) -0.27570(18)
C6 C 0.32606(19) 0.3040(6) -0.1823(2)
H5 H 0.3890 0.3485 -0.1696
H6 H 0.2888 0.4363 -0.1895
C7 C 0.36040(18) 0.2449(5) -0.00452(19)
C8 C 0.36417(17) 0.0914(12) 0.07035(18)
H7 H 0.3400 -0.0503 0.0526
C9 C 0.40394(18) 0.1505(5) 0.1712(2)
H8 H 0.4083 0.0463 0.2212
C10 C 0.43755(15) 0.3637(4) 0.19878(17)
C11 C 0.43158(16) 0.5152(4) 0.12325(16)
H9 H 0.4533 0.6588 0.1411
C12 C 0.39377(18) 0.4580(5) 0.02106(19)
H10 H 0.3910 0.5610 -0.0289
C13 C 0.4773(2) 0.4338(6) 0.3079(2)
N1 N 0.16115(11) 0.0592(10) -0.42306(12)
O1 O 0.32123(15) 0.1672(4) -0.10145(14)
O2 O 0.48846(16) 0.2905(4) 0.37573(14)
O3 O 0.49456(17) 0.6334(4) 0.32866(17)
O4 O 0.5000 0.9466(6) 0.5000
H11 H 0.500(3) 1.030(8) 0.452(3)
H11A H 0.500(3) 1.030(8) 0.548(3)
C1B C 0.84071(19) 0.4972(7) 0.7033(2)
H1B H 0.9016 0.4762 0.7454
C2B C 0.8020(2) 0.3624(7) 0.6204(3)
H2B H 0.8362 0.2506 0.6055
C3B C 0.71111(18) 0.3962(6) 0.5596(2)
H3B H 0.6840 0.3020 0.5049
C4B C 0.70022(16) 0.6893(5) 0.65721(18)
H4B H 0.6655 0.8041 0.6689
C5B C 0.78988(17) 0.6629(5) 0.72430(18)
C6B C 0.82606(19) 0.8040(6) 0.8177(2)
H5B H 0.8890 0.8485 0.8304
H6B H 0.7888 0.9363 0.8105
C7B C 0.86040(18) 0.7449(5) 0.99548(19)
C8B C 0.86417(17) 0.5914(12) 1.07035(18)
H7B H 0.8400 0.4497 1.0526
C9B C 0.90394(18) 0.6505(5) 1.1712(2)
H8B H 0.9083 0.5463 1.2212
C10B C 0.93755(15) 0.8637(4) 1.19878(17)
C11B C 0.93158(16) 1.0152(4) 1.12325(16)
H9B H 0.9533 1.1588 1.1411
C12B C 0.89377(18) 0.9580(5) 1.02106(19)
H10B H 0.8910 1.0610 0.9711
C13B C 0.9773(2) 0.9338(6) 1.3079(2)
N1B N 0.66115(11) 0.5592(10) 0.57694(12)
O1B O 0.82123(15) 0.6672(4) 0.89855(14)
O2B O 0.98846(16) 0.7905(4) 1.37573(14)
O3B O 0.99456(17) 1.1334(4) 1.32866(17)
N1C N 0.33885(11) 0.5592(10) 0.42306(12)
O2A O 0.51154(16) 0.2905(4) 0.62427(14)
O3A O 0.50544(17) 0.6334(4) 0.67134(17)
Cd1B Cd 0.0000 0.0729 -0.5000
Cd1B_2 Cd 1.0000 1.0729 1.5000
loop_
_geom_bond_atom_site_label_1
_geom_bond_atom_site_label_2
_geom_bond_site_symmetry_1
_geom_bond_site_symmetry_2
Cd1 O2 1_555 1_555
C1 H1 1_555 1_555
C2 C1 1_555 1_555
H2 C2 1_555 1_555
C3 C2 1_555 1_555
H3 C3 1_555 1_555
C4 H4 1_555 1_555
C5 C1 1_555 1_555
C6 C5 1_555 1_555
H5 C6 1_555 1_555
H6 C6 1_555 1_555
C7 C8 1_555 1_555
C8 H7 1_555 1_555
C9 C8 1_555 1_555
H8 C9 1_555 1_555
C10 C9 1_555 1_555
C11 C10 1_555 1_555
H9 C11 1_555 1_555
C12 C7 1_555 1_555
H10 C12 1_555 1_555
C13 C10 1_555 1_555
N1 C3 1_555 1_555
O1 C6 1_555 1_555
O2 C13 1_555 1_555
O3 Cd1 1_555 1_555
O4 Cd1 1_555 1_555
H11 O4 1_555 1_555
H11A O4 1_555 1_555
C1B H1B 1_555 1_555
C2B C1B 1_555 1_555
H2B C2B 1_555 1_555
C3B C2B 1_555 1_555
H3B C3B 1_555 1_555
C4B H4B 1_555 1_555
C5B C1B 1_555 1_555
C6B C5B 1_555 1_555
H5B C6B 1_555 1_555
H6B C6B 1_555 1_555
C7B C8B 1_555 1_555
C8B H7B 1_555 1_555
C9B C8B 1_555 1_555
H8B C9B 1_555 1_555
C10B C9B 1_555 1_555
C11B C10B 1_555 1_555
H9B C11B 1_555 1_555
C12B C7B 1_555 1_555
H10B C12B 1_555 1_555
C13B C10B 1_555 1_555
N1B Cd1 1_555 1_555
O1B C6B 1_555 1_555
O2B C13B 1_555 1_555
O3B C13B 1_555 1_555
N1C Cd1 1_555 1_555
O2A Cd1 1_555 1_555
O3A Cd1 1_555 1_555
Cd1B N1 1_555 1_555
Cd1B_2 O2B 1_555 1_555
C4 N1 1_555 1_555
C4 C5 1_555 1_555
C7 O1 1_555 1_555
C11 C12 1_555 1_555
C13 O3 1_555 1_555
C3B N1B 1_555 1_555
C4B N1B 1_555 1_555
C4B C5B 1_555 1_555
C7B O1B 1_555 1_555
C11B C12B 1_555 1_555
O3B Cd1B_2 1_555 1_555

#END
