
#######################################################################
#
#                 Cambridge Crystallographic Data Centre
#                                CCDC 
#
#######################################################################
#
# If this CIF has been generated from an entry in the Cambridge 
# Structural Database, then it will include bibliographic, chemical, 
# crystal, experimental, refinement or atomic coordinate data resulting 
# from the CCDC's data processing and validation procedures.
#
#######################################################################

data_CUSTIU
_symmetry_cell_setting           monoclinic
_symmetry_space_group_name_H-M   'C 2/c'
_symmetry_Int_Tables_number      15
_space_group_name_Hall           '-C 2yn'
loop_
_symmetry_equiv_pos_site_id
_symmetry_equiv_pos_as_xyz
1 x,y,z
2 -x,y,1/2-z
3 1/2+x,1/2+y,z
4 1/2-x,1/2+y,1/2-z
5 -x,-y,-z
6 x,-y,1/2+z
7 1/2-x,1/2-y,-z
8 1/2+x,1/2-y,1/2+z
_cell_length_a                   17.4720(3)
_cell_length_b                   7.2970(4)
_cell_length_c                   17.6590(4)
_cell_angle_alpha                90
_cell_angle_beta                 100.7370(10)
_cell_angle_gamma                90
_cell_volume                     2211.99
loop_
_atom_site_label
_atom_site_type_symbol
_atom_site_fract_x
_atom_site_fract_y
_atom_site_fract_z
Cd1 Cd 0.5000 0.01797(2) 0.2500
C1 C 0.60334(10) -0.3255(2) 0.33108(11)
H1 H 0.5946 -0.3722 0.2812
C2 C 0.64829(10) -0.4270(2) 0.38914(10)
C3 C 0.66180(11) -0.3561(2) 0.46287(11)
H2 H 0.6916 -0.4211 0.5032
C4 C 0.63061(12) -0.1873(3) 0.47640(11)
H3 H 0.6398 -0.1365 0.5256
C5 C 0.58576(11) -0.0965(2) 0.41572(11)
H4 H 0.5641 0.0158 0.4251
C6 C 0.67732(10) -0.6144(2) 0.37240(11)
H5 H 0.6543 -0.7069 0.4007
H6 H 0.6629 -0.6413 0.3178
C7 C 0.79746(10) -0.7738(2) 0.38098(11)
C8 C 0.87812(11) -0.7759(3) 0.40695(13)
H7 H 0.9027 -0.6754 0.4333
C9 C 0.92113(10) -0.9267(3) 0.39355(11)
H8 H 0.9747 -0.9275 0.4113
C10 C 0.88532(10) -1.0781(2) 0.35367(10)
C11 C 0.80489(10) -1.0764(2) 0.32990(10)
H9 H 0.7801 -1.1784 0.3049
C12 C 0.76079(10) -0.9245(2) 0.34296(11)
H10 H 0.7071 -0.9245 0.3262
C13 C 0.93270(10) -1.2334(2) 0.33138(10)
N1 N 0.57174(8) -0.16254(19) 0.34342(8)
O1 O 0.76019(7) -0.61601(18) 0.39537(9)
O2 O 0.89724(8) -1.36527(17) 0.29354(8)
O3 O 1.00540(8) -1.22538(19) 0.34696(10)
Cd1B Cd 1.0000 -1.48203(2) 0.2500
Cd1B_2 Cd 0.0000 -1.48203(2) 0.2500
C1A C 0.39666(10) -0.3255(2) 0.16892(11)
H1A H 0.4054 -0.3722 0.2188
C2A C 0.35171(10) -0.4270(2) 0.11086(10)
C3A C 0.33820(11) -0.3561(2) 0.03713(11)
H2A H 0.3084 -0.4211 -0.0032
C4A C 0.36939(12) -0.1873(3) 0.02360(11)
H3A H 0.3602 -0.1365 -0.0256
C5A C 0.41424(11) -0.0965(2) 0.08428(11)
H4A H 0.4359 0.0158 0.0749
C6A C 0.32268(10) -0.6144(2) 0.12760(11)
H5A H 0.3457 -0.7069 0.0993
H6A H 0.3371 -0.6413 0.1822
C7A C 0.20254(10) -0.7738(2) 0.11902(11)
C8A C 0.12188(11) -0.7759(3) 0.09305(13)
H7A H 0.0973 -0.6754 0.0667
C9A C 0.07887(10) -0.9267(3) 0.10645(11)
H8A H 0.0253 -0.9275 0.0887
C10A C 0.11468(10) -1.0781(2) 0.14633(10)
C11A C 0.19511(10) -1.0764(2) 0.17010(10)
H9A H 0.2199 -1.1784 0.1951
C12A C 0.23921(10) -0.9245(2) 0.15704(11)
H10A H 0.2929 -0.9245 0.1738
C13A C 0.06730(10) -1.2334(2) 0.16862(10)
N1A N 0.42826(8) -0.16254(19) 0.15658(8)
O1A O 0.23981(7) -0.61601(18) 0.10463(9)
O2A O 0.10276(8) -1.36527(17) 0.20646(8)
O2B O 0.39724(8) 0.13473(17) 0.29354(8)
O2C O 0.60276(8) 0.13473(17) 0.20646(8)
O3A O -0.00540(8) -1.22538(19) 0.15304(10)
O3B O 0.50540(8) 0.27462(19) 0.34696(10)
O3C O 0.49460(8) 0.27462(19) 0.15304(10)
loop_
_geom_bond_atom_site_label_1
_geom_bond_atom_site_label_2
_geom_bond_site_symmetry_1
_geom_bond_site_symmetry_2
Cd1 N1 1_555 1_555
C1 H1 1_555 1_555
C2 C1 1_555 1_555
C3 C2 1_555 1_555
H2 C3 1_555 1_555
C4 C3 1_555 1_555
H3 C4 1_555 1_555
C5 C4 1_555 1_555
H4 C5 1_555 1_555
C6 C2 1_555 1_555
H5 C6 1_555 1_555
H6 C6 1_555 1_555
C7 C8 1_555 1_555
C8 H7 1_555 1_555
C9 C8 1_555 1_555
H8 C9 1_555 1_555
C10 C9 1_555 1_555
C11 C10 1_555 1_555
H9 C11 1_555 1_555
C12 C7 1_555 1_555
H10 C12 1_555 1_555
C13 C10 1_555 1_555
N1 C1 1_555 1_555
O1 C6 1_555 1_555
O2 C13 1_555 1_555
O3 C13 1_555 1_555
Cd1B O2 1_555 1_555
Cd1B_2 O2A 1_555 1_555
C1A H1A 1_555 1_555
C2A C1A 1_555 1_555
C3A C2A 1_555 1_555
H2A C3A 1_555 1_555
C4A C3A 1_555 1_555
H3A C4A 1_555 1_555
C5A C4A 1_555 1_555
H4A C5A 1_555 1_555
C6A C2A 1_555 1_555
H5A C6A 1_555 1_555
H6A C6A 1_555 1_555
C7A C8A 1_555 1_555
C8A H7A 1_555 1_555
C9A C8A 1_555 1_555
H8A C9A 1_555 1_555
C10A C9A 1_555 1_555
C11A C10A 1_555 1_555
H9A C11A 1_555 1_555
C12A C7A 1_555 1_555
H10A C12A 1_555 1_555
C13A C10A 1_555 1_555
N1A Cd1 1_555 1_555
O1A C6A 1_555 1_555
O2A C13A 1_555 1_555
O2B Cd1 1_555 1_555
O2C Cd1 1_555 1_555
O3A Cd1B_2 1_555 1_555
O3B Cd1 1_555 1_555
O3C Cd1 1_555 1_555
C5 N1 1_555 1_555
C7 O1 1_555 1_555
C11 C12 1_555 1_555
O3 Cd1B 1_555 1_555
C1A N1A 1_555 1_555
C5A N1A 1_555 1_555
C7A O1A 1_555 1_555
C11A C12A 1_555 1_555
C13A O3A 1_555 1_555

#END
