
#######################################################################
#
#                 Cambridge Crystallographic Data Centre
#                                CCDC 
#
#######################################################################
#
# If this CIF has been generated from an entry in the Cambridge 
# Structural Database, then it will include bibliographic, chemical, 
# crystal, experimental, refinement or atomic coordinate data resulting 
# from the CCDC's data processing and validation procedures.
#
#######################################################################

data_CUSTAM
_symmetry_cell_setting           monoclinic
_symmetry_space_group_name_H-M   'P 21/n'
_symmetry_Int_Tables_number      14
_space_group_name_Hall           '-P 2yn'
loop_
_symmetry_equiv_pos_site_id
_symmetry_equiv_pos_as_xyz
1 x,y,z
2 1/2-x,1/2+y,1/2-z
3 -x,-y,-z
4 1/2+x,1/2-y,1/2+z
_cell_length_a                   6.1343(3)
_cell_length_b                   12.8226(4)
_cell_length_c                   28.000(2)
_cell_angle_alpha                90
_cell_angle_beta                 90.239(6)
_cell_angle_gamma                90
_cell_volume                     2202.4
loop_
_atom_site_label
_atom_site_type_symbol
_atom_site_fract_x
_atom_site_fract_y
_atom_site_fract_z
Cd1 Cd 0.29211(2) 0.421787(11) 0.239611(5)
N1 N 0.3335(2) 0.56767(12) 0.29461(6)
N2 N 0.2952(2) 0.75799(13) 0.30172(6)
C1 C 0.5614(3) 0.57878(16) 0.31234(8)
H1 H 0.6037 0.5153 0.3288
H2 H 0.6580 0.5877 0.2853
O1 O 0.2824(2) 0.31953(11) 0.31255(5)
O2 O 0.5917(2) 0.33195(11) 0.27337(6)
N3 N 0.2110(3) 0.64495(13) 0.37003(6)
C2 C 0.5256(3) 0.76196(16) 0.31919(8)
H3 H 0.6222 0.7714 0.2922
H4 H 0.5433 0.8215 0.3402
C3 C 0.2742(3) 0.66591(15) 0.27012(7)
H5 H 0.1250 0.6610 0.2587
H6 H 0.3676 0.6751 0.2426
C4 C 0.1532(3) 0.74062(16) 0.34436(8)
H7 H 0.1669 0.7996 0.3658
H8 H 0.0023 0.7365 0.3341
C5 C 0.4800(3) 0.29789(16) 0.30827(8)
C6 C 0.6501(3) 0.30065(17) 0.38820(8)
C7 C 0.1904(3) 0.55712(15) 0.33742(8)
H9 H 0.0399 0.5514 0.3270
H10 H 0.2279 0.4934 0.3542
C8 C 0.5938(4) 0.23309(17) 0.34588(8)
H11 H 0.4994 0.1765 0.3559
H12 H 0.7257 0.2030 0.3327
N4 N 0.5874(3) 0.66728(14) 0.34481(6)
O3 O 0.2253(2) 0.50490(12) 0.16578(6)
O4 O 0.5660(2) 0.49773(14) 0.18929(6)
C9 C 0.8911(4) 0.4235(2) 0.42651(9)
H13 H 1.0199 0.4618 0.4264
C10 C 0.4247(4) 0.51946(17) 0.15832(8)
C11 C 0.4858(4) 0.47173(17) 0.07398(8)
C12 C 0.8447(4) 0.35674(18) 0.38907(8)
H14 H 0.9440 0.3492 0.3643
C13 C 0.4395(3) 0.65319(18) 0.38558(8)
H15 H 0.4800 0.5905 0.4028
H16 H 0.4547 0.7119 0.4072
C14 C 0.5062(4) 0.31270(19) 0.42578(9)
H17 H 0.3747 0.2766 0.4255
C15 C 0.6620(5) 0.4056(2) 0.06786(10)
H18 H 0.7894 0.4161 0.0853
C16 C 0.4946(5) 0.55898(19) 0.10941(9)
H19 H 0.3986 0.6149 0.0992
H20 H 0.6418 0.5864 0.1113
C17 C 0.5554(4) 0.3779(2) 0.46380(9)
H21 H 0.4587 0.3840 0.4891
C18 C 0.7475(4) 0.4339(2) 0.46411(9)
H22 H 0.7801 0.4783 0.4894
C19 C 0.3001(4) 0.4526(2) 0.04756(9)
H23 H 0.1796 0.4958 0.0513
C20 C 0.6480(7) 0.3229(3) 0.03540(13)
H24 H 0.7665 0.2786 0.0314
C21 C 0.4627(8) 0.3069(3) 0.00969(12)
H25 H 0.4546 0.2523 -0.0121
C22 C 0.2895(6) 0.3712(3) 0.01594(11)
H26 H 0.1622 0.3598 -0.0014
O5 O -0.0749(2) 0.45847(12) 0.24722(6)
H27 H -0.160(3) 0.4208(16) 0.2621(8)
H28 H -0.140(3) 0.4828(18) 0.2231(7)
Cd1A Cd 0.20789(2) 0.921787(11) 0.260389(5)
N2A N 0.2048(2) 0.25799(13) 0.19828(6)
loop_
_geom_bond_atom_site_label_1
_geom_bond_atom_site_label_2
_geom_bond_site_symmetry_1
_geom_bond_site_symmetry_2
Cd1 N1 1_555 1_555
N1 C1 1_555 1_555
N2 C2 1_555 1_555
C1 H1 1_555 1_555
H2 C1 1_555 1_555
O1 Cd1 1_555 1_555
O2 Cd1 1_555 1_555
N3 C4 1_555 1_555
C2 H3 1_555 1_555
H4 C2 1_555 1_555
C3 N1 1_555 1_555
H5 C3 1_555 1_555
H6 C3 1_555 1_555
C4 N2 1_555 1_555
H7 C4 1_555 1_555
H8 C4 1_555 1_555
C5 O1 1_555 1_555
C6 C8 1_555 1_555
C7 N1 1_555 1_555
H9 C7 1_555 1_555
H10 C7 1_555 1_555
C8 C5 1_555 1_555
H11 C8 1_555 1_555
H12 C8 1_555 1_555
N4 C1 1_555 1_555
O3 Cd1 1_555 1_555
O4 Cd1 1_555 1_555
C9 H13 1_555 1_555
C10 O3 1_555 1_555
C11 C15 1_555 1_555
C12 C6 1_555 1_555
H14 C12 1_555 1_555
C13 N3 1_555 1_555
H15 C13 1_555 1_555
H16 C13 1_555 1_555
C14 C6 1_555 1_555
H17 C14 1_555 1_555
C15 H18 1_555 1_555
C16 C10 1_555 1_555
H19 C16 1_555 1_555
H20 C16 1_555 1_555
C17 C14 1_555 1_555
H21 C17 1_555 1_555
C18 C9 1_555 1_555
H22 C18 1_555 1_555
C19 C11 1_555 1_555
H23 C19 1_555 1_555
C20 C15 1_555 1_555
H24 C20 1_555 1_555
C21 C20 1_555 1_555
H25 C21 1_555 1_555
C22 C19 1_555 1_555
H26 C22 1_555 1_555
O5 Cd1 1_555 1_555
H27 O5 1_555 1_555
H28 O5 1_555 1_555
Cd1A N2 1_555 1_555
N2A Cd1 1_555 1_555
N2 C3 1_555 1_555
O2 C5 1_555 1_555
N3 C7 1_555 1_555
C2 N4 1_555 1_555
N4 C13 1_555 1_555
O4 C10 1_555 1_555
C9 C12 1_555 1_555
C11 C16 1_555 1_555
C17 C18 1_555 1_555
C21 C22 1_555 1_555

#END
