
#######################################################################
#
#                 Cambridge Crystallographic Data Centre
#                                CCDC 
#
#######################################################################
#
# If this CIF has been generated from an entry in the Cambridge 
# Structural Database, then it will include bibliographic, chemical, 
# crystal, experimental, refinement or atomic coordinate data resulting 
# from the CCDC's data processing and validation procedures.
#
#######################################################################

data_CUSTEQ
_symmetry_cell_setting           orthorhombic
_symmetry_space_group_name_H-M   'P c a 21'
_symmetry_Int_Tables_number      29
_space_group_name_Hall           'P 2c -2ac'
loop_
_symmetry_equiv_pos_site_id
_symmetry_equiv_pos_as_xyz
1 x,y,z
2 -x,-y,1/2+z
3 1/2+x,-y,z
4 1/2-x,y,1/2+z
_cell_length_a                   13.013(9)
_cell_length_b                   17.700(3)
_cell_length_c                   17.636(2)
_cell_angle_alpha                90
_cell_angle_beta                 90
_cell_angle_gamma                90
_cell_volume                     4062.1
loop_
_atom_site_label
_atom_site_type_symbol
_atom_site_fract_x
_atom_site_fract_y
_atom_site_fract_z
C1 C 0.1087(4) -0.2217(3) 0.9051(3)
H1 H 0.1723 -0.2501 0.9048
H2 H 0.0521 -0.2574 0.9049
C2 C 0.1891(4) -0.1222(4) 0.8377(3)
H3 H 0.1857 -0.0911 0.7924
H4 H 0.2532 -0.1502 0.8363
C3 C 0.0899(3) -0.0312(3) 0.9061(4)
H5 H 0.0870 0.0014 0.8619
H6 H 0.0866 0.0006 0.9508
C4 C 0.0061(4) -0.1303(3) 0.9737(3)
H7 H -0.0518 -0.1648 0.9743
H8 H 0.0018 -0.0987 1.0185
C5 C 0.1900(4) -0.1214(4) 0.9739(3)
H9 H 0.2539 -0.1496 0.9747
H10 H 0.1880 -0.0900 1.0189
C6 C 0.0080(4) -0.1329(4) 0.8383(3)
H11 H -0.0494 -0.1679 0.8386
H12 H 0.0035 -0.1028 0.7925
C7 C 0.2264(5) -0.3788(4) 1.3305(3)
H13 H 0.2297 -0.4096 1.3759
H14 H 0.2890 -0.3492 1.3277
C8 C 0.1369(4) -0.2814(3) 1.2670(4)
H15 H 0.2000 -0.2523 1.2640
H16 H 0.0799 -0.2462 1.2698
C9 C 0.0327(4) -0.3735(3) 1.2045(3)
H17 H 0.0252 -0.4039 1.1591
H18 H -0.0262 -0.3401 1.2076
C10 C 0.1246(4) -0.4720(3) 1.2683(4)
H19 H 0.1264 -0.5034 1.3134
H20 H 0.1196 -0.5050 1.2246
C11 C 0.0443(5) -0.3728(4) 1.3396(3)
H21 H -0.0145 -0.3392 1.3424
H22 H 0.0450 -0.4035 1.3852
C12 C 0.2163(4) -0.3795(3) 1.1965(3)
H23 H 0.2128 -0.4106 1.1512
H24 H 0.2789 -0.3499 1.1939
C13 C 0.4508(4) -0.1173(3) 0.9207(5)
C14 C 0.5073(5) -0.1921(3) 0.9255(4)
H25 H 0.4591 -0.2328 0.9203
H26 H 0.5413 -0.1959 0.9736
H27 H 0.5572 -0.1950 0.8855
C15 C 0.2444(5) 0.1004(3) 1.0185(3)
C16 C 0.1832(5) 0.1434(4) 1.0759(3)
H28 H 0.2119 0.1353 1.1254
H29 H 0.1133 0.1261 1.0752
H30 H 0.1852 0.1963 1.0640
C17 C 0.0320(5) -0.3707(4) 1.0130(3)
C18 C -0.0119(5) -0.4400(4) 0.9767(4)
H31 H -0.0059 -0.4359 0.9226
H32 H -0.0830 -0.4448 0.9903
H33 H 0.0252 -0.4836 0.9938
C19 C 0.0240(4) -0.1319(4) 1.1671(3)
C20 C -0.0165(5) -0.0580(4) 1.1973(4)
H34 H -0.0751 -0.0673 1.2290
H35 H -0.0363 -0.0262 1.1557
H36 H 0.0361 -0.0333 1.2264
C21 C 0.4833(4) -0.3833(4) 1.2321(4)
C22 C 0.5437(6) -0.3128(4) 1.2141(4)
H37 H 0.4985 -0.2700 1.2140
H38 H 0.5750 -0.3180 1.1650
H39 H 0.5962 -0.3057 1.2517
C23 C 0.2896(4) -0.6198(3) 1.3588(3)
C24 C 0.2451(6) -0.6744(3) 1.4153(4)
H40 H 0.2668 -0.6606 1.4654
H41 H 0.2686 -0.7245 1.4040
H42 H 0.1714 -0.6728 1.4126
O1 O 0.2885(4) 0.0605(3) 0.7975(2)
H43 H 0.278(4) 0.036(2) 0.757(2)
H44 H 0.256(4) 0.102(2) 0.799(3)
O2 O 0.2887(3) -0.2497(3) 1.0810(3)
H45 H 0.311(4) -0.291(2) 1.062(3)
H46 H 0.336(3) -0.224(3) 1.101(3)
O3 O 0.2989(4) -0.5521(3) 1.1503(3)
H47 H 0.290(5) -0.528(3) 1.109(2)
H48 H 0.275(5) -0.5966(17) 1.149(3)
O4 O 0.4213(3) -0.0933(3) 0.8583(3)
O5 O 0.4359(3) -0.0809(3) 0.9809(3)
O6 O 0.2801(3) 0.0367(2) 1.0378(2)
O7 O 0.2556(3) 0.1243(2) 0.9529(2)
O8 O -0.0260(3) -0.3184(2) 1.0325(2)
O9 O 0.1271(3) -0.3672(2) 1.0231(2)
O10 O -0.0315(3) -0.1889(2) 1.1610(2)
O11 O 0.1183(3) -0.1340(3) 1.1475(2)
O12 O 0.4603(3) -0.3983(2) 1.2988(3)
O13 O 0.4569(3) -0.4262(2) 1.1775(2)
O14 O 0.3068(3) -0.6424(2) 1.2928(2)
O15 O 0.3062(3) -0.5516(2) 1.3773(2)
N1 N 0.1036(3) -0.1743(3) 0.9757(3)
N2 N 0.1033(3) -0.1750(3) 0.8378(3)
N3 N 0.1880(3) -0.0725(2) 0.9059(3)
N4 N 0.0007(3) -0.0825(2) 0.9054(3)
N5 N 0.2198(3) -0.4285(2) 1.2636(3)
N6 N 0.1387(4) -0.3279(3) 1.3360(3)
N7 N 0.1264(4) -0.3279(3) 1.1982(3)
N8 N 0.0336(3) -0.4234(2) 1.2712(3)
Cd1 Cd 0.33782(3) 0.01250(2) 0.91249(2)
Cd2 Cd 0.11477(3) -0.25079(3) 1.08766(3)
Cd3 Cd 0.36935(3) -0.51015(2) 1.261571(19)
N4B N 0.5007(3) 0.0825(2) 0.9054(3)
N8B N 0.5336(3) -0.5766(2) 1.2712(3)
Cd1B Cd -0.16218(3) -0.01250(2) 0.91249(2)
Cd3B Cd -0.13065(3) -0.48985(2) 1.261571(19)
O16 O 0.0930(3) 0.8663(3) 0.6248(3)
H49 H 0.063(4) 0.881(3) 0.585(2)
H50 H 0.127(4) 0.902(3) 0.645(3)
O17 O 0.4058(3) 0.6289(3) 0.0364(3)
H51 H 0.353(3) 0.603(3) 0.025(4)
H52 H 0.441(4) 0.608(3) 0.071(3)
O18 O 0.7950(3) 0.7972(2) 0.2528(3)
H53 H 0.800(4) 0.7523(18) 0.273(3)
H54 H 0.852(3) 0.803(3) 0.228(3)
O19 O 0.2542(4) 0.5154(2) 0.0116(3)
H55 H 0.237(4) 0.486(2) -0.024(2)
H56 H 0.211(4) 0.550(2) 0.020(3)
O20 O 0.2551(4) 0.9747(2) 0.1746(2)
H57 H 0.258(5) 0.994(3) 0.1306(17)
H58 H 0.212(4) 0.940(2) 0.180(3)
O21 O 0.2901(4) -0.6953(3) 1.1097(3)
loop_
_geom_bond_atom_site_label_1
_geom_bond_atom_site_label_2
_geom_bond_site_symmetry_1
_geom_bond_site_symmetry_2
C1 H1 1_555 1_555
H2 C1 1_555 1_555
C2 H3 1_555 1_555
H4 C2 1_555 1_555
C3 H5 1_555 1_555
H6 C3 1_555 1_555
C4 H7 1_555 1_555
H8 C4 1_555 1_555
C5 H9 1_555 1_555
H10 C5 1_555 1_555
C6 H11 1_555 1_555
H12 C6 1_555 1_555
C7 H13 1_555 1_555
H14 C7 1_555 1_555
C8 H15 1_555 1_555
H16 C8 1_555 1_555
C9 H17 1_555 1_555
H18 C9 1_555 1_555
C10 H19 1_555 1_555
H20 C10 1_555 1_555
C11 H21 1_555 1_555
H22 C11 1_555 1_555
C12 H23 1_555 1_555
H24 C12 1_555 1_555
C13 C14 1_555 1_555
C14 H25 1_555 1_555
H26 C14 1_555 1_555
H27 C14 1_555 1_555
C15 C16 1_555 1_555
C16 H28 1_555 1_555
H29 C16 1_555 1_555
H30 C16 1_555 1_555
C17 C18 1_555 1_555
C18 H31 1_555 1_555
H32 C18 1_555 1_555
H33 C18 1_555 1_555
C19 C20 1_555 1_555
C20 H34 1_555 1_555
H35 C20 1_555 1_555
H36 C20 1_555 1_555
C21 C22 1_555 1_555
C22 H37 1_555 1_555
H38 C22 1_555 1_555
H39 C22 1_555 1_555
C23 C24 1_555 1_555
C24 H40 1_555 1_555
H41 C24 1_555 1_555
H42 C24 1_555 1_555
O1 H43 1_555 1_555
H44 O1 1_555 1_555
O2 H45 1_555 1_555
H46 O2 1_555 1_555
O3 H47 1_555 1_555
H48 O3 1_555 1_555
O4 C13 1_555 1_555
O5 C13 1_555 1_555
O6 C15 1_555 1_555
O7 C15 1_555 1_555
O8 C17 1_555 1_555
O9 C17 1_555 1_555
O10 C19 1_555 1_555
O11 C19 1_555 1_555
O12 C21 1_555 1_555
O13 C21 1_555 1_555
O14 C23 1_555 1_555
O15 C23 1_555 1_555
N1 C1 1_555 1_555
N2 C1 1_555 1_555
N3 C2 1_555 1_555
N4 C3 1_555 1_555
N5 C7 1_555 1_555
N6 C7 1_555 1_555
N7 C8 1_555 1_555
N8 C9 1_555 1_555
Cd1 O1 1_555 1_555
Cd2 O2 1_555 1_555
Cd3 O3 1_555 1_555
O16 H49 1_555 1_555
H50 O16 1_555 1_555
O17 H51 1_555 1_555
H52 O17 1_555 1_555
O18 H53 1_555 1_555
H54 O18 1_555 1_555
O19 H55 1_555 1_555
H56 O19 1_555 1_555
O20 H57 1_555 1_555
H58 O20 1_555 1_555
N4B Cd1 1_555 1_555
N8B Cd3 1_555 1_555
Cd1B N4 1_555 1_555
Cd3B N8 1_555 1_555
C2 N2 1_555 1_555
C3 N3 1_555 1_555
C4 N1 1_555 1_555
C4 N4 1_555 1_555
C5 N1 1_555 1_555
C5 N3 1_555 1_555
C6 N2 1_555 1_555
C6 N4 1_555 1_555
C8 N6 1_555 1_555
C9 N7 1_555 1_555
C10 N5 1_555 1_555
C10 N8 1_555 1_555
C11 N6 1_555 1_555
C11 N8 1_555 1_555
C12 N5 1_555 1_555
C12 N7 1_555 1_555
O4 Cd1 1_555 1_555
O5 Cd1 1_555 1_555
O6 Cd1 1_555 1_555
O7 Cd1 1_555 1_555
O8 Cd2 1_555 1_555
O9 Cd2 1_555 1_555
O10 Cd2 1_555 1_555
O11 Cd2 1_555 1_555
O12 Cd3 1_555 1_555
O13 Cd3 1_555 1_555
O14 Cd3 1_555 1_555
O15 Cd3 1_555 1_555
N1 Cd2 1_555 1_555
N3 Cd1 1_555 1_555
N5 Cd3 1_555 1_555
N7 Cd2 1_555 1_555

#END
