
#######################################################################
#
#                 Cambridge Crystallographic Data Centre
#                                CCDC 
#
#######################################################################
#
# If this CIF has been generated from an entry in the Cambridge 
# Structural Database, then it will include bibliographic, chemical, 
# crystal, experimental, refinement or atomic coordinate data resulting 
# from the CCDC's data processing and validation procedures.
#
#######################################################################

data_CUSUCC04
_symmetry_cell_setting           triclinic
_symmetry_space_group_name_H-M   'P -1'
_symmetry_Int_Tables_number      2
_space_group_name_Hall           '-P 1'
loop_
_symmetry_equiv_pos_site_id
_symmetry_equiv_pos_as_xyz
1 x,y,z
2 -x,-y,-z
_cell_length_a                   6.4728(13)
_cell_length_b                   7.6410(15)
_cell_length_c                   8.1048(16)
_cell_angle_alpha                76.03(3)
_cell_angle_beta                 73.37(3)
_cell_angle_gamma                81.33(3)
_cell_volume                     371.286
loop_
_atom_site_label
_atom_site_type_symbol
_atom_site_fract_x
_atom_site_fract_y
_atom_site_fract_z
Cu1 Cu 0.5788(2) 0.84506(16) 0.95600(17)
O1 O 0.8084(13) 0.9959(10) 0.7961(12)
O2 O 0.6732(13) 1.2654(10) 0.8674(11)
O3 O 1.2799(14) 1.1876(11) 0.8518(11)
O4 O 1.4059(13) 0.9177(10) 0.7823(10)
O5 O 0.7509(16) 0.6132(13) 0.8658(15)
C1 C 0.8131(19) 1.1633(15) 0.7780(16)
C2 C 0.9944(17) 1.2520(15) 0.6343(15)
H1 H 1.0256 1.3577 0.6664
H2 H 0.9486 1.2925 0.5263
C3 C 1.2031(17) 1.1219(16) 0.6016(14)
H3 H 1.1696 1.0125 0.5776
H4 H 1.3086 1.1790 0.4986
C4 C 1.2997(17) 1.0725(15) 0.7562(15)
H5 H 0.871(8) 0.643(17) 0.832(16)
H6 H 0.73(3) 0.53(2) 0.87(2)
Cu1A Cu 0.4212(2) 1.15494(16) 1.04400(17)
Cu1A_2 Cu 1.4212(2) 1.15494(16) 1.04400(17)
Cu1_2 Cu 1.5788(2) 0.84506(16) 0.95600(17)
O2A O 0.3268(13) 0.7346(10) 1.1326(11)
O3A O 0.7201(14) 0.8124(11) 1.1482(11)
O4_2 O 0.4059(13) 0.9177(10) 0.7823(10)
O6 O 1.2006(18) 0.6101(14) 0.7503(16)
H7 H 1.250(19) 0.702(12) 0.75(2)
H8 H 1.352(17) 0.585(14) 0.661(14)
loop_
_geom_bond_atom_site_label_1
_geom_bond_atom_site_label_2
_geom_bond_site_symmetry_1
_geom_bond_site_symmetry_2
Cu1 O1 1_555 1_555
O1 C1 1_555 1_555
O2 C1 1_555 1_555
O3 C4 1_555 1_555
O4 C4 1_555 1_555
O5 Cu1 1_555 1_555
C1 C2 1_555 1_555
C2 H1 1_555 1_555
H2 C2 1_555 1_555
C3 C2 1_555 1_555
H3 C3 1_555 1_555
H4 C3 1_555 1_555
C4 C3 1_555 1_555
O6 H7 1_555 1_555
H5 O5 1_555 1_555
H6 O5 1_555 1_555
H8 O6 1_555 1_555
Cu1A Cu1 1_555 1_555
Cu1A_2 O3 1_555 1_555
Cu1_2 O4 1_555 1_555
O2A Cu1 1_555 1_555
O3A Cu1 1_555 1_555
O4_2 Cu1 1_555 1_555
O2 Cu1A 1_555 1_555
Cu1A_2 Cu1_2 1_555 1_555

#END
