
#######################################################################
#
#                 Cambridge Crystallographic Data Centre
#                                CCDC 
#
#######################################################################
#
# If this CIF has been generated from an entry in the Cambridge 
# Structural Database, then it will include bibliographic, chemical, 
# crystal, experimental, refinement or atomic coordinate data resulting 
# from the CCDC's data processing and validation procedures.
#
#######################################################################

data_CUSVUI
_symmetry_cell_setting           monoclinic
_symmetry_space_group_name_H-M   'P c'
_symmetry_Int_Tables_number      7
_space_group_name_Hall           'P -2yc'
loop_
_symmetry_equiv_pos_site_id
_symmetry_equiv_pos_as_xyz
1 x,y,z
2 x,-y,1/2+z
_cell_length_a                   8.8115(13)
_cell_length_b                   12.2454(18)
_cell_length_c                   7.2356(12)
_cell_angle_alpha                90
_cell_angle_beta                 108.8860(10)
_cell_angle_gamma                90
_cell_volume                     738.693
loop_
_atom_site_label
_atom_site_type_symbol
_atom_site_fract_x
_atom_site_fract_y
_atom_site_fract_z
Zn1 Zn 0.48181(10) 0.36432(6) 0.27174(11)
Cl1 Cl 0.4792(4) 0.5534(3) 0.1170(4)
N1 N 0.7630(13) 0.3594(8) 0.4054(16)
N2 N 0.5619(13) 0.1945(9) 0.4315(16)
N3 N 0.2296(15) 0.3134(12) 0.160(2)
O1 O 1.2099(13) 0.1439(8) 0.7722(19)
O2 O 1.0021(18) -0.0142(8) 0.8210(14)
O3 O 0.5065(13) 0.2750(8) -0.0205(15)
H1 H 0.4254 0.2341 -0.0689
H2 H 0.5084 0.3221 -0.1060
S1 S -0.0925(4) 0.2527(3) 0.0155(6)
C1 C 0.8534(15) 0.4400(9) 0.3866(19)
H3 H 0.8073 0.5029 0.3196
C2 C 1.0201(18) 0.4316(12) 0.468(2)
H4 H 1.0840 0.4891 0.4527
C3 C 1.0907(17) 0.3418(9) 0.568(2)
H5 H 1.2018 0.3370 0.6196
C4 C 0.9953(15) 0.2576(10) 0.5919(19)
C5 C 0.8237(13) 0.2669(9) 0.5034(18)
C6 C 0.7221(13) 0.1770(9) 0.5220(16)
C7 C 0.7776(15) 0.0807(10) 0.6152(17)
C8 C 0.6736(16) -0.0029(10) 0.6216(18)
H6 H 0.7107 -0.0673 0.6892
C9 C 0.497(3) 0.0150(16) 0.514(3)
H7 H 0.4218 -0.0400 0.5009
C10 C 0.4569(19) 0.1146(11) 0.440(2)
H8 H 0.3481 0.1308 0.3902
C11 C 1.0664(17) 0.1530(11) 0.698(2)
C12 C 0.954(2) 0.0667(10) 0.718(2)
C13 C 0.0845(17) 0.2869(11) 0.098(2)
Zn1A Zn 0.48181(10) 0.63568(6) -0.22826(11)
Cl1A Cl 0.4792(4) 0.4466(3) 0.6170(4)
loop_
_geom_bond_atom_site_label_1
_geom_bond_atom_site_label_2
_geom_bond_site_symmetry_1
_geom_bond_site_symmetry_2
Zn1 Cl1 1_555 1_555
Cl1 Zn1A 1_555 1_555
N1 Zn1 1_555 1_555
N2 Zn1 1_555 1_555
N3 Zn1 1_555 1_555
O1 C11 1_555 1_555
O2 C12 1_555 1_555
O3 Zn1 1_555 1_555
H1 O3 1_555 1_555
H2 O3 1_555 1_555
S1 C13 1_555 1_555
C1 N1 1_555 1_555
H3 C1 1_555 1_555
C2 C1 1_555 1_555
H4 C2 1_555 1_555
C3 C2 1_555 1_555
H5 C3 1_555 1_555
C4 C3 1_555 1_555
C5 N1 1_555 1_555
C6 N2 1_555 1_555
C7 C6 1_555 1_555
C8 C7 1_555 1_555
H6 C8 1_555 1_555
C9 C8 1_555 1_555
H7 C9 1_555 1_555
C10 N2 1_555 1_555
H8 C10 1_555 1_555
C11 C4 1_555 1_555
C12 C7 1_555 1_555
C13 N3 1_555 1_555
Cl1A Zn1 1_555 1_555
C4 C5 1_555 1_555
C5 C6 1_555 1_555
C9 C10 1_555 1_555
C11 C12 1_555 1_555

#END
