
#######################################################################
#
#                 Cambridge Crystallographic Data Centre
#                                CCDC 
#
#######################################################################
#
# If this CIF has been generated from an entry in the Cambridge 
# Structural Database, then it will include bibliographic, chemical, 
# crystal, experimental, refinement or atomic coordinate data resulting 
# from the CCDC's data processing and validation procedures.
#
#######################################################################

data_CUSVIW
_symmetry_cell_setting           monoclinic
_symmetry_space_group_name_H-M   'P 21'
_symmetry_Int_Tables_number      4
_space_group_name_Hall           'P 2yb'
loop_
_symmetry_equiv_pos_site_id
_symmetry_equiv_pos_as_xyz
1 x,y,z
2 -x,1/2+y,-z
_cell_length_a                   5.8270(5)
_cell_length_b                   15.5200(12)
_cell_length_c                   13.5940(14)
_cell_angle_alpha                90
_cell_angle_beta                 97.322(2)
_cell_angle_gamma                90
_cell_volume                     1219.35
loop_
_atom_site_label
_atom_site_type_symbol
_atom_site_fract_x
_atom_site_fract_y
_atom_site_fract_z
Cd1 Cd 0.78636(4) 0.35704(4) 0.786344(19)
C1 C 0.5496(8) 0.2565(3) 0.6041(3)
C2 C 0.3940(8) 0.2577(3) 0.5063(3)
C3 C 0.1836(8) 0.2985(4) 0.4918(3)
H1 H 0.1314 0.3285 0.5438
C4 C 0.0485(9) 0.2954(4) 0.4008(4)
H2 H -0.0937 0.3234 0.3920
C5 C 0.1223(8) 0.2513(3) 0.3232(3)
C6 C 0.3369(10) 0.2119(4) 0.3348(4)
H3 H 0.3917 0.1843 0.2817
C7 C 0.4685(10) 0.2145(5) 0.4269(5)
H4 H 0.6107 0.1865 0.4359
C8 C 0.0440(11) 0.1988(4) 0.1575(4)
H5 H 0.0712 0.1395 0.1785
H6 H 0.1864 0.2220 0.1383
C9 C -0.1469(8) 0.2032(3) 0.0716(3)
C10 C -0.1213(9) 0.2536(4) -0.0092(4)
H7 H 0.0157 0.2844 -0.0085
C11 C -0.4727(9) 0.2149(3) -0.0896(4)
H8 H -0.5856 0.2189 -0.1444
C12 C -0.5105(9) 0.1615(4) -0.0127(4)
H9 H -0.6459 0.1293 -0.0159
C13 C -0.3454(9) 0.1561(4) 0.0690(4)
H10 H -0.3690 0.1207 0.1220
C14 C 0.0317(8) 0.4664(3) -0.0335(3)
C15 C 0.1909(8) 0.4671(3) 0.0629(3)
C16 C 0.3837(8) 0.4158(4) 0.0792(4)
H11 H 0.4193 0.3793 0.0290
C17 C 0.5275(9) 0.4174(4) 0.1693(4)
H12 H 0.6584 0.3826 0.1791
C18 C 0.4730(9) 0.4710(4) 0.2436(3)
C19 C 0.2802(10) 0.5242(4) 0.2289(4)
H13 H 0.2454 0.5612 0.2786
C20 C 0.1410(10) 0.5208(4) 0.1386(4)
H14 H 0.0102 0.5556 0.1284
C21 C 0.5684(13) 0.5193(5) 0.4086(4)
H15 H 0.4206 0.5010 0.4270
H16 H 0.5552 0.5792 0.3883
C22 C 0.7535(9) 0.5100(3) 0.4959(3)
C23 C 0.9620(11) 0.5516(4) 0.5021(5)
H17 H 0.9984 0.5864 0.4507
C24 C 1.1180(10) 0.5402(4) 0.5873(5)
H18 H 1.2616 0.5672 0.5935
C25 C 1.0580(9) 0.4888(4) 0.6626(4)
H19 H 1.1635 0.4819 0.7195
C26 C 0.7075(9) 0.4598(4) 0.5749(4)
H20 H 0.5652 0.4320 0.5708
N1 N 0.8575(7) 0.4490(3) 0.6574(3)
N2 N -0.2791(7) 0.2613(3) -0.0884(3)
O1 O 0.4896(6) 0.3011(2) 0.6746(2)
O2 O 0.7305(6) 0.2127(3) 0.6096(3)
O3 O -0.0289(6) 0.2487(3) 0.2364(2)
O4 O 0.0842(5) 0.4179(2) -0.1026(2)
O5 O -0.1436(6) 0.5122(3) -0.0407(3)
O6 O 0.6253(7) 0.4691(3) 0.3306(3)
O7 O 1.0701(6) 0.2618(3) 0.7433(3)
O8 O 0.5146(6) 0.4536(3) 0.8331(3)
H21 H 1.179(7) 0.283(4) 0.715(3)
H22 H 0.987(9) 0.231(4) 0.700(3)
H23 H 0.391(6) 0.435(4) 0.852(4)
H24 H 0.595(9) 0.479(4) 0.881(3)
Cd1_2 Cd -0.21364(4) 0.35704(4) -0.213656(19)
N2_2 N 0.7209(7) 0.2613(3) 0.9116(3)
O4_2 O 1.0842(5) 0.4179(2) 0.8974(2)
loop_
_geom_bond_atom_site_label_1
_geom_bond_atom_site_label_2
_geom_bond_site_symmetry_1
_geom_bond_site_symmetry_2
Cd1 N1 1_555 1_555
C1 C2 1_555 1_555
C2 C3 1_555 1_555
C3 H1 1_555 1_555
C4 C3 1_555 1_555
H2 C4 1_555 1_555
C5 C4 1_555 1_555
C6 C5 1_555 1_555
H3 C6 1_555 1_555
C7 C2 1_555 1_555
H4 C7 1_555 1_555
C8 H5 1_555 1_555
H6 C8 1_555 1_555
C9 C8 1_555 1_555
C10 C9 1_555 1_555
H7 C10 1_555 1_555
C11 H8 1_555 1_555
C12 C11 1_555 1_555
H9 C12 1_555 1_555
C13 C9 1_555 1_555
H10 C13 1_555 1_555
C14 C15 1_555 1_555
C15 C16 1_555 1_555
C16 H11 1_555 1_555
C17 C16 1_555 1_555
H12 C17 1_555 1_555
C18 C17 1_555 1_555
C19 C18 1_555 1_555
H13 C19 1_555 1_555
C20 C15 1_555 1_555
H14 C20 1_555 1_555
C21 H15 1_555 1_555
H16 C21 1_555 1_555
C22 C21 1_555 1_555
C23 C22 1_555 1_555
H17 C23 1_555 1_555
C24 C23 1_555 1_555
H18 C24 1_555 1_555
C25 C24 1_555 1_555
H19 C25 1_555 1_555
C26 C22 1_555 1_555
H20 C26 1_555 1_555
N1 C25 1_555 1_555
N2 C10 1_555 1_555
O1 Cd1 1_555 1_555
O2 C1 1_555 1_555
O3 C5 1_555 1_555
O4 C14 1_555 1_555
O5 C14 1_555 1_555
O6 C18 1_555 1_555
O7 Cd1 1_555 1_555
O8 Cd1 1_555 1_555
H21 O7 1_555 1_555
H22 O7 1_555 1_555
H23 O8 1_555 1_555
H24 O8 1_555 1_555
Cd1_2 N2 1_555 1_555
N2_2 Cd1 1_555 1_555
O4_2 Cd1 1_555 1_555
C1 O1 1_555 1_555
C6 C7 1_555 1_555
C8 O3 1_555 1_555
C11 N2 1_555 1_555
C12 C13 1_555 1_555
C19 C20 1_555 1_555
C21 O6 1_555 1_555
C26 N1 1_555 1_555
O4 Cd1_2 1_555 1_555

#END
