
#######################################################################
#
#                 Cambridge Crystallographic Data Centre
#                                CCDC 
#
#######################################################################
#
# If this CIF has been generated from an entry in the Cambridge 
# Structural Database, then it will include bibliographic, chemical, 
# crystal, experimental, refinement or atomic coordinate data resulting 
# from the CCDC's data processing and validation procedures.
#
#######################################################################

data_CUSXAP
_symmetry_cell_setting           monoclinic
_symmetry_space_group_name_H-M   'P 21/n'
_symmetry_Int_Tables_number      14
_space_group_name_Hall           '-P 2yn'
loop_
_symmetry_equiv_pos_site_id
_symmetry_equiv_pos_as_xyz
1 x,y,z
2 1/2-x,1/2+y,1/2-z
3 -x,-y,-z
4 1/2+x,1/2-y,1/2+z
_cell_length_a                   9.399(2)
_cell_length_b                   18.140(3)
_cell_length_c                   11.476(3)
_cell_angle_alpha                90
_cell_angle_beta                 92.98(2)
_cell_angle_gamma                90
_cell_volume                     1953.99
loop_
_atom_site_label
_atom_site_type_symbol
_atom_site_fract_x
_atom_site_fract_y
_atom_site_fract_z
Ag1 Ag -0.4849(1) 0.4915(1) 0.2502(1)
O1 O -0.4044(5) 0.5846(2) 0.3913(3)
C1 C -0.4768(7) 0.6053(4) 0.4903(4)
O2 O -0.4092(4) 0.5774(2) 0.5914(3)
C2 C -0.2683(7) 0.6042(4) 0.6082(5)
C3 C -0.1841(7) 0.5865(4) 0.5042(4)
C4 C -0.2624(7) 0.6133(4) 0.3956(5)
O3 O -0.6287(6) 0.4237(2) 0.1055(3)
C5 C -0.6817(7) 0.4522(3) 0.0002(4)
O4 O -0.6014(5) 0.4314(2) -0.0935(3)
C6 C -0.6011(9) 0.3528(3) -0.1069(5)
C7 C -0.5434(8) 0.3180(3) 0.0050(5)
C8 C -0.6274(9) 0.3434(3) 0.1040(5)
O5 O -0.2735(5) 0.4087(2) 0.2622(4)
C9 C -0.2637(9) 0.3358(4) 0.2976(7)
O6 O -0.2001(6) 0.2924(3) 0.2194(5)
C10 C -0.0593(9) 0.3155(4) 0.2000(9)
C11 C -0.0608(9) 0.3959(4) 0.1618(6)
C12 C -0.1377(7) 0.4394(4) 0.2454(6)
As1 As -0.8471(1) 0.6360(1) 0.2376(1)
F1 F -0.7322(7) 0.6889(3) 0.3128(7)
F2 F -0.8150(12) 0.6874(5) 0.1298(7)
F3 F -0.7157(7) 0.5791(3) 0.2196(8)
F4 F -0.8933(11) 0.5826(5) 0.3434(7)
F5 F -0.9801(6) 0.6911(4) 0.2693(8)
F6 F -0.9634(8) 0.5853(3) 0.1568(6)
H1 H -0.5724 0.5867 0.4832
H2 H -0.4790 0.6582 0.4950
H3 H -0.2705 0.6566 0.6192
H4 H -0.2238 0.5813 0.6762
H5 H -0.1707 0.5341 0.4993
H6 H -0.0930 0.6104 0.5123
H7 H -0.2144 0.5967 0.3285
H8 H -0.2656 0.6662 0.3960
H9 H -0.7775 0.4349 -0.0141
H10 H -0.6817 0.5050 0.0054
H11 H -0.6966 0.3359 -0.1244
H12 H -0.5421 0.3395 -0.1693
H13 H -0.4454 0.3318 0.0189
H14 H -0.5503 0.2654 -0.0015
H15 H -0.5842 0.3253 0.1761
H16 H -0.7232 0.3253 0.0945
H17 H -0.3580 0.3174 0.3077
H18 H -0.2092 0.3336 0.3707
H19 H -0.0011 0.3103 0.2707
H20 H -0.0212 0.2857 0.1399
H21 H -0.1076 0.4001 0.0858
H22 H 0.0352 0.4137 0.1593
H23 H -0.1494 0.4887 0.2163
H24 H -0.0836 0.4403 0.3187
O2B O -0.5908(4) 0.4226(2) 0.4086(3)
O4B O -0.3986(5) 0.5686(2) 0.0935(3)
Ag1B Ag -0.5151(1) 0.5085(1) 0.7498(1)
Ag1B_2 Ag -0.5151(1) 0.5085(1) -0.2502(1)
loop_
_geom_bond_atom_site_label_1
_geom_bond_atom_site_label_2
_geom_bond_site_symmetry_1
_geom_bond_site_symmetry_2
Ag1 O1 1_555 1_555
O1 C1 1_555 1_555
C1 O2 1_555 1_555
O2 C2 1_555 1_555
C2 C3 1_555 1_555
C3 C4 1_555 1_555
C4 O1 1_555 1_555
O3 Ag1 1_555 1_555
C5 O3 1_555 1_555
O4 C5 1_555 1_555
C6 O4 1_555 1_555
C7 C6 1_555 1_555
C8 O3 1_555 1_555
O5 Ag1 1_555 1_555
C9 O5 1_555 1_555
O6 C9 1_555 1_555
C10 O6 1_555 1_555
C11 C10 1_555 1_555
C12 O5 1_555 1_555
As1 F1 1_555 1_555
F2 As1 1_555 1_555
F3 Ag1 1_555 1_555
F4 As1 1_555 1_555
F5 As1 1_555 1_555
F6 As1 1_555 1_555
H1 C1 1_555 1_555
H2 C1 1_555 1_555
H3 C2 1_555 1_555
H4 C2 1_555 1_555
H5 C3 1_555 1_555
H6 C3 1_555 1_555
H7 C4 1_555 1_555
H8 C4 1_555 1_555
H9 C5 1_555 1_555
H10 C5 1_555 1_555
H11 C6 1_555 1_555
H12 C6 1_555 1_555
H13 C7 1_555 1_555
H14 C7 1_555 1_555
H15 C8 1_555 1_555
H16 C8 1_555 1_555
H17 C9 1_555 1_555
H18 C9 1_555 1_555
H19 C10 1_555 1_555
H20 C10 1_555 1_555
H21 C11 1_555 1_555
H22 C11 1_555 1_555
H23 C12 1_555 1_555
H24 C12 1_555 1_555
O2B Ag1 1_555 1_555
O4B Ag1 1_555 1_555
Ag1B O2 1_555 1_555
Ag1B_2 O4 1_555 1_555
C7 C8 1_555 1_555
C11 C12 1_555 1_555
As1 F3 1_555 1_555

#END
