
#######################################################################
#
#                 Cambridge Crystallographic Data Centre
#                                CCDC 
#
#######################################################################
#
# If this CIF has been generated from an entry in the Cambridge 
# Structural Database, then it will include bibliographic, chemical, 
# crystal, experimental, refinement or atomic coordinate data resulting 
# from the CCDC's data processing and validation procedures.
#
#######################################################################

data_CUTCYM01
_symmetry_cell_setting           orthorhombic
_symmetry_space_group_name_H-M   'P m n a'
_symmetry_Int_Tables_number      53
_space_group_name_Hall           '-P 2ac 2'
loop_
_symmetry_equiv_pos_site_id
_symmetry_equiv_pos_as_xyz
1 x,y,z
2 -x,y,z
3 1/2+x,-y,1/2+z
4 1/2+x,y,1/2-z
5 -x,-y,-z
6 x,-y,-z
7 1/2-x,y,1/2-z
8 1/2-x,-y,1/2+z
_cell_length_a                   7.212(5)
_cell_length_b                   5.452(3)
_cell_length_c                   10.696(3)
_cell_angle_alpha                90
_cell_angle_beta                 90
_cell_angle_gamma                90
_cell_volume                     420.565
loop_
_atom_site_label
_atom_site_type_symbol
_atom_site_fract_x
_atom_site_fract_y
_atom_site_fract_z
Cu1 Cu 0.0000 0.5000 0.5000
N1 N 0.2006(8) 0.292(1) 0.5699(6)
N2 N 0.5000 -0.260(2) 0.804(1)
C1 C 0.335(1) 0.204(1) 0.6089(7)
C2 C 0.5000 0.102(2) 0.6496(9)
C3 C 0.5000 -0.102(2) 0.734(1)
C1A C 0.665(1) 0.204(1) 0.6089(7)
N1A N 0.7994(8) 0.292(1) 0.5699(6)
N1A_2 N -0.2006(8) 0.292(1) 0.5699(6)
N1D N -0.2006(8) 0.708(1) 0.4301(6)
N1E N 0.2006(8) 0.708(1) 0.4301(6)
N2E N 0.5000 1.260(2) 0.196(1)
C1E C 0.335(1) 0.796(1) 0.3911(7)
C2E C 0.5000 0.898(2) 0.3504(9)
C3E C 0.5000 1.102(2) 0.266(1)
C1D C 0.665(1) 0.796(1) 0.3911(7)
N1D_2 N 0.7994(8) 0.708(1) 0.4301(6)
N2B N 0.0000 0.260(2) 0.304(1)
N2C N 0.0000 0.740(2) 0.696(1)
Cu1A Cu 1.0000 0.5000 0.5000
Cu1B Cu 0.5000 -0.5000 1.0000
Cu1C Cu 0.5000 1.5000 0.0000
loop_
_geom_bond_atom_site_label_1
_geom_bond_atom_site_label_2
_geom_bond_site_symmetry_1
_geom_bond_site_symmetry_2
Cu1 N1 1_555 1_555
N1 C1 1_555 1_555
N2 C3 1_555 1_555
C1 C2 1_555 1_555
C2 C3 1_555 1_555
C1A C2 1_555 1_555
N1A C1A 1_555 1_555
N1A_2 Cu1 1_555 1_555
N1D Cu1 1_555 1_555
N1E Cu1 1_555 1_555
N2E C3E 1_555 1_555
C1E N1E 1_555 1_555
C2E C1E 1_555 1_555
C3E C2E 1_555 1_555
C1D C2E 1_555 1_555
N1D_2 C1D 1_555 1_555
N2B Cu1 1_555 1_555
N2C Cu1 1_555 1_555
Cu1A N1A 1_555 1_555
Cu1B N2 1_555 1_555
Cu1C N2E 1_555 1_555
N1D_2 Cu1A 1_555 1_555

#END
