
#######################################################################
#
#                 Cambridge Crystallographic Data Centre
#                                CCDC 
#
#######################################################################
#
# If this CIF has been generated from an entry in the Cambridge 
# Structural Database, then it will include bibliographic, chemical, 
# crystal, experimental, refinement or atomic coordinate data resulting 
# from the CCDC's data processing and validation procedures.
#
#######################################################################

data_CUTFON
_symmetry_cell_setting           tetragonal
_symmetry_space_group_name_H-M   'P 41 21 2'
_symmetry_Int_Tables_number      92
_space_group_name_Hall           'P 4abw 2nw'
loop_
_symmetry_equiv_pos_site_id
_symmetry_equiv_pos_as_xyz
1 x,y,z
2 -x,-y,1/2+z
3 1/2-y,1/2+x,1/4+z
4 1/2+y,1/2-x,3/4+z
5 1/2-x,1/2+y,1/4-z
6 1/2+x,1/2-y,3/4-z
7 y,x,-z
8 -y,-x,1/2-z
_cell_length_a                   22.3511(4)
_cell_length_b                   22.3511(4)
_cell_length_c                   25.3776(5)
_cell_angle_alpha                90
_cell_angle_beta                 90
_cell_angle_gamma                90
_cell_volume                     12677.9
loop_
_atom_site_label
_atom_site_type_symbol
_atom_site_fract_x
_atom_site_fract_y
_atom_site_fract_z
Ag1 Ag -0.133402(16) -0.241981(14) 0.081593(16)
B1 B -0.27422(18) 0.0678(2) 0.39245(18)
N1 N -0.16200(17) -0.17246(16) 0.14172(16)
C1 C -0.2093(2) -0.13769(18) 0.13417(18)
H1 H -0.2290 -0.1399 0.1019
C2 C -0.2309(2) -0.09859(18) 0.17141(18)
H2 H -0.2643 -0.0752 0.1643
C3 C -0.20215(19) -0.09446(19) 0.22005(17)
C4 C -0.1541(3) -0.1312(3) 0.2275(3)
H3 H -0.1341 -0.1307 0.2596
C5 C -0.1352(3) -0.1684(3) 0.1888(3)
H4 H -0.1020 -0.1924 0.1952
C6 C -0.22365(18) -0.05233(18) 0.26168(17)
C7 C -0.26557(19) -0.07206(18) 0.29922(17)
C8 C -0.28307(17) -0.03309(18) 0.34005(16)
C9 C -0.25683(16) 0.02379(17) 0.34481(15)
C10 C -0.21437(17) 0.04252(17) 0.30733(17)
C11 C -0.19925(19) 0.00516(18) 0.26507(18)
C12 C -0.1559(3) 0.0244(2) 0.2214(2)
H5 H -0.1425 0.0646 0.2279
H6 H -0.1759 0.0228 0.1879
H7 H -0.1220 -0.0020 0.2209
C13 C -0.1860(2) 0.1041(2) 0.3095(2)
H8 H -0.1585 0.1085 0.2807
H9 H -0.1650 0.1088 0.3422
H10 H -0.2166 0.1341 0.3068
C14 C -0.3287(2) -0.0557(2) 0.3796(2)
H11 H -0.3417 -0.0950 0.3697
H12 H -0.3625 -0.0291 0.3803
H13 H -0.3108 -0.0572 0.4140
C15 C -0.2904(3) -0.1343(2) 0.2955(2)
H14 H -0.2737 -0.1541 0.2654
H15 H -0.3331 -0.1324 0.2920
H16 H -0.2803 -0.1561 0.3269
C16 C 0.0463(2) 0.1781(3) 0.4935(2)
H17 H 0.0820 0.1742 0.4750
C17 C -0.0059(2) 0.1570(3) 0.4707(2)
H18 H -0.0052 0.1413 0.4368
C18 C -0.05848(19) 0.1593(2) 0.49829(19)
C19 C -0.0576(2) 0.1864(3) 0.5470(3)
H19 H -0.0929 0.1903 0.5662
C20 C -0.0038(3) 0.2081(4) 0.5676(3)
H20 H -0.0039 0.2258 0.6007
N2 N 0.04738(18) 0.2041(2) 0.54133(18)
C21 C -0.11631(18) 0.1360(2) 0.47548(18)
C22 C -0.15897(19) 0.17582(19) 0.45777(19)
C23 C -0.21278(17) 0.15456(18) 0.43587(16)
C24 C -0.22156(15) 0.09246(16) 0.42832(15)
C25 C -0.17767(17) 0.05217(18) 0.44853(19)
C26 C -0.12551(19) 0.0740(2) 0.4724(2)
C27 C -0.0788(3) 0.0315(3) 0.4956(3)
H21 H -0.0915 -0.0091 0.4903
H22 H -0.0746 0.0391 0.5326
H23 H -0.0411 0.0378 0.4784
C28 C -0.1894(3) -0.0147(2) 0.4469(3)
H24 H -0.1559 -0.0356 0.4619
H25 H -0.1949 -0.0271 0.4110
H26 H -0.2248 -0.0236 0.4668
C29 C -0.25827(19) 0.19891(19) 0.4172(2)
H27 H -0.2450 0.2387 0.4256
H28 H -0.2958 0.1913 0.4343
H29 H -0.2631 0.1952 0.3797
C30 C -0.1488(3) 0.2431(2) 0.4610(3)
H30 H -0.1104 0.2508 0.4765
H31 H -0.1795 0.2609 0.4822
H32 H -0.1500 0.2599 0.4262
C31 C -0.62011(17) 0.1719(2) 0.4217(2)
H33 H -0.6366 0.2089 0.4301
C32 C -0.55950(17) 0.16684(19) 0.42176(19)
H34 H -0.5360 0.1996 0.4308
C33 C -0.53252(17) 0.1130(2) 0.40841(18)
C34 C -0.5712(2) 0.0664(3) 0.3965(4)
H35 H -0.5560 0.0292 0.3872
C35 C -0.6315(2) 0.0752(3) 0.3982(4)
H36 H -0.6562 0.0429 0.3906
N3 N -0.65728(15) 0.12739(19) 0.41030(16)
C36 C -0.46645(17) 0.1052(2) 0.40600(17)
C37 C -0.43655(17) 0.1194(2) 0.35956(16)
C38 C -0.37428(18) 0.10959(19) 0.35629(16)
C39 C -0.34281(16) 0.08518(18) 0.39916(15)
C40 C -0.37346(18) 0.07333(18) 0.44628(16)
C41 C -0.43567(18) 0.0833(2) 0.45032(17)
C42 C -0.4687(2) 0.0704(3) 0.5013(2)
H37 H -0.5104 0.0797 0.4970
H38 H -0.4523 0.0944 0.5291
H39 H -0.4644 0.0288 0.5100
C43 C -0.3418(2) 0.0469(3) 0.49295(18)
H40 H -0.3001 0.0424 0.4850
H41 H -0.3587 0.0084 0.5009
H42 H -0.3465 0.0728 0.5228
C44 C -0.3422(2) 0.1275(2) 0.30670(18)
H43 H -0.3004 0.1185 0.3101
H44 H -0.3472 0.1697 0.3010
H45 H -0.3585 0.1059 0.2774
C45 C -0.4703(2) 0.1450(3) 0.3125(2)
H46 H -0.5120 0.1487 0.3211
H47 H -0.4658 0.1188 0.2828
H48 H -0.4544 0.1837 0.3039
N4 N -0.23634(16) -0.23634(16) 0.0000
O1 O -0.2414(2) -0.2684(2) 0.03850(19)
O2 O -0.1970(2) -0.1970(2) 0.0000
Ag1G Ag 0.241981(14) -0.866598(16) 0.418407(16)
Ag1A Ag 0.133402(16) 0.241981(14) 0.581593(16)
Ag1G_2 Ag -0.758019(14) 0.133402(16) 0.418407(16)
Ag1F Ag -0.241981(14) -0.133402(16) -0.081593(16)
Ag1F_2 Ag -0.241981(14) -1.133402(16) -0.081593(16)
B1G B -0.0678(2) -0.72578(18) 0.10755(18)
N1G N 0.17246(16) -0.83800(17) 0.35828(16)
C1G C 0.13769(18) -0.7907(2) 0.36583(18)
H1G H 0.1399 -0.7710 0.3981
C2G C 0.09859(18) -0.7691(2) 0.32859(18)
H2G H 0.0752 -0.7357 0.3357
C3G C 0.09446(19) -0.79785(19) 0.27995(17)
C4G C 0.1312(3) -0.8459(3) 0.2725(3)
H3G H 0.1307 -0.8659 0.2404
C5G C 0.1684(3) -0.8648(3) 0.3112(3)
H4G H 0.1924 -0.8980 0.3048
C6G C 0.05233(18) -0.77635(18) 0.23832(17)
C7G C 0.07206(18) -0.73443(19) 0.20078(17)
C8G C 0.03309(18) -0.71693(17) 0.15995(16)
C9G C -0.02379(17) -0.74317(16) 0.15519(15)
C10G C -0.04252(17) -0.78563(17) 0.19267(17)
C11G C -0.00516(18) -0.80075(19) 0.23493(18)
C12G C -0.0244(2) -0.8441(3) 0.2786(2)
H5G H -0.0646 -0.8575 0.2721
H6G H -0.0228 -0.8241 0.3121
H7G H 0.0020 -0.8780 0.2791
C13G C -0.1041(2) -0.8140(2) 0.1905(2)
H8G H -0.1085 -0.8415 0.2193
H9G H -0.1088 -0.8350 0.1578
H10G H -0.1341 -0.7834 0.1932
C14G C 0.0557(2) -0.6713(2) 0.1204(2)
H11G H 0.0950 -0.6583 0.1303
H12G H 0.0291 -0.6375 0.1197
H13G H 0.0572 -0.6892 0.0860
C15G C 0.1343(2) -0.7096(3) 0.2045(2)
H14G H 0.1541 -0.7263 0.2346
H15G H 0.1324 -0.6669 0.2080
H16G H 0.1561 -0.7197 0.1731
C16G C -0.1781(3) -1.0463(2) 0.0065(2)
H17G H -0.1742 -1.0820 0.0250
C17G C -0.1570(3) -0.9941(2) 0.0293(2)
H18G H -0.1413 -0.9948 0.0632
C18G C -0.1593(2) -0.94152(19) 0.00171(19)
C19G C -0.1864(3) -0.9424(2) -0.0470(3)
H19G H -0.1903 -0.9071 -0.0662
C20G C -0.2081(4) -0.9962(3) -0.0676(3)
H20G H -0.2258 -0.9961 -0.1007
N2G N -0.2041(2) -1.04738(18) -0.04133(18)
N2A N -0.04738(18) -0.2041(2) 0.04133(18)
N2F N 0.2041(2) -0.95262(18) 0.45867(18)
C21G C -0.1360(2) -0.88369(18) 0.02452(18)
C22G C -0.17582(19) -0.84103(19) 0.04223(19)
C23G C -0.15456(18) -0.78722(17) 0.06413(16)
C24G C -0.09246(16) -0.77844(15) 0.07168(15)
C25G C -0.05217(18) -0.82233(17) 0.05147(19)
C26G C -0.0740(2) -0.87449(19) 0.0276(2)
C27G C -0.0315(3) -0.9212(3) 0.0044(3)
H21G H 0.0091 -0.9085 0.0097
H22G H -0.0391 -0.9254 -0.0326
H23G H -0.0378 -0.9589 0.0216
C28G C 0.0147(2) -0.8106(3) 0.0531(3)
H24G H 0.0356 -0.8441 0.0381
H25G H 0.0271 -0.8051 0.0890
H26G H 0.0236 -0.7752 0.0332
C29G C -0.19891(19) -0.74173(19) 0.0828(2)
H27G H -0.2387 -0.7550 0.0744
H28G H -0.1913 -0.7042 0.0657
H29G H -0.1952 -0.7369 0.1203
C30G C -0.2431(2) -0.8512(3) 0.0390(3)
H30G H -0.2508 -0.8896 0.0235
H31G H -0.2609 -0.8205 0.0178
H32G H -0.2599 -0.8500 0.0738
C31G C -0.1719(2) -0.37989(17) 0.0783(2)
H33G H -0.2089 -0.3634 0.0699
C32G C -0.16684(19) -0.44050(17) 0.07824(19)
H34G H -0.1996 -0.4640 0.0692
C33G C -0.1130(2) -0.46748(17) 0.09159(18)
C34G C -0.0664(3) -0.4288(2) 0.1035(4)
H35G H -0.0292 -0.4440 0.1128
C35G C -0.0752(3) -0.3685(2) 0.1018(4)
H36G H -0.0429 -0.3438 0.1094
N3G N -0.12739(19) -0.34272(15) 0.08970(16)
N3_2 N 0.34272(15) -0.87261(19) 0.41030(16)
C36G C -0.1052(2) -0.53355(17) 0.09400(17)
C37G C -0.1194(2) -0.56345(17) 0.14044(16)
C38G C -0.10959(19) -0.62572(18) 0.14371(16)
C39G C -0.08518(18) -0.65719(16) 0.10084(15)
C40G C -0.07333(18) -0.62654(18) 0.05372(16)
C41G C -0.0833(2) -0.56433(18) 0.04968(17)
C42G C -0.0704(3) -0.5313(2) -0.0013(2)
H37G H -0.0797 -0.4896 0.0030
H38G H -0.0944 -0.5477 -0.0291
H39G H -0.0288 -0.5356 -0.0100
C43G C -0.0469(3) -0.6582(2) 0.00705(18)
H40G H -0.0424 -0.6999 0.0150
H41G H -0.0084 -0.6413 -0.0009
H42G H -0.0728 -0.6535 -0.0228
C44G C -0.1275(2) -0.6578(2) 0.19330(18)
H43G H -0.1185 -0.6996 0.1899
H44G H -0.1697 -0.6528 0.1990
H45G H -0.1059 -0.6415 0.2226
C45G C -0.1450(3) -0.5297(2) 0.1875(2)
H46G H -0.1487 -0.4880 0.1789
H47G H -0.1188 -0.5342 0.2172
H48G H -0.1837 -0.5456 0.1961
O1F O -0.2684(2) -0.2414(2) -0.03850(19)
O1G O 0.2684(2) -0.7586(2) 0.46150(19)
O2A O 0.1970(2) -0.8030(2) 0.5000
N5 N -0.9862(15) 0.9736(13) 0.1488(12)
O3 O -1.0271(16) 0.9499(14) 0.1246(14)
O4 O -0.9975(15) 1.0169(15) 0.1773(13)
O5 O -0.9349(14) 0.9560(17) 0.1428(15)
O6 O -0.3763(11) 0.7455(15) 0.3782(11)
O7 O -0.5427(14) 0.9014(13) 0.4711(14)
loop_
_geom_bond_atom_site_label_1
_geom_bond_atom_site_label_2
_geom_bond_site_symmetry_1
_geom_bond_site_symmetry_2
Ag1 N1 1_555 1_555
B1 C9 1_555 1_555
N1 C1 1_555 1_555
C1 H1 1_555 1_555
C2 C1 1_555 1_555
H2 C2 1_555 1_555
C3 C2 1_555 1_555
C4 C3 1_555 1_555
H3 C4 1_555 1_555
C5 N1 1_555 1_555
H4 C5 1_555 1_555
C6 C3 1_555 1_555
C7 C6 1_555 1_555
C8 C7 1_555 1_555
C9 C8 1_555 1_555
C10 C9 1_555 1_555
C11 C6 1_555 1_555
C12 C11 1_555 1_555
H5 C12 1_555 1_555
H6 C12 1_555 1_555
H7 C12 1_555 1_555
C13 C10 1_555 1_555
H8 C13 1_555 1_555
H9 C13 1_555 1_555
H10 C13 1_555 1_555
C14 C8 1_555 1_555
H11 C14 1_555 1_555
H12 C14 1_555 1_555
H13 C14 1_555 1_555
C15 C7 1_555 1_555
H14 C15 1_555 1_555
H15 C15 1_555 1_555
H16 C15 1_555 1_555
C16 H17 1_555 1_555
C17 C16 1_555 1_555
H18 C17 1_555 1_555
C18 C17 1_555 1_555
C19 C18 1_555 1_555
H19 C19 1_555 1_555
C20 C19 1_555 1_555
H20 C20 1_555 1_555
N2 C16 1_555 1_555
C21 C18 1_555 1_555
C22 C21 1_555 1_555
C23 C22 1_555 1_555
C24 B1 1_555 1_555
C25 C24 1_555 1_555
C26 C21 1_555 1_555
C27 C26 1_555 1_555
H21 C27 1_555 1_555
H22 C27 1_555 1_555
H23 C27 1_555 1_555
C28 C25 1_555 1_555
H24 C28 1_555 1_555
H25 C28 1_555 1_555
H26 C28 1_555 1_555
C29 C23 1_555 1_555
H27 C29 1_555 1_555
H28 C29 1_555 1_555
H29 C29 1_555 1_555
C30 C22 1_555 1_555
H30 C30 1_555 1_555
H31 C30 1_555 1_555
H32 C30 1_555 1_555
C31 H33 1_555 1_555
C32 C31 1_555 1_555
H34 C32 1_555 1_555
C33 C32 1_555 1_555
C34 C33 1_555 1_555
H35 C34 1_555 1_555
C35 C34 1_555 1_555
H36 C35 1_555 1_555
N3 C31 1_555 1_555
C36 C33 1_555 1_555
C37 C36 1_555 1_555
C38 C37 1_555 1_555
C39 B1 1_555 1_555
C40 C39 1_555 1_555
C41 C36 1_555 1_555
C42 C41 1_555 1_555
H37 C42 1_555 1_555
H38 C42 1_555 1_555
H39 C42 1_555 1_555
C43 C40 1_555 1_555
H40 C43 1_555 1_555
H41 C43 1_555 1_555
H42 C43 1_555 1_555
C44 C38 1_555 1_555
H43 C44 1_555 1_555
H44 C44 1_555 1_555
H45 C44 1_555 1_555
C45 C37 1_555 1_555
H46 C45 1_555 1_555
H47 C45 1_555 1_555
H48 C45 1_555 1_555
N4 O1 1_555 1_555
O1 Ag1 1_555 1_555
O2 Ag1 1_555 1_555
N5 O3 1_555 1_555
O4 N5 1_555 1_555
O5 N5 1_555 1_555
Ag1G N1G 1_555 1_555
Ag1A N2 1_555 1_555
Ag1G_2 N3 1_555 1_555
Ag1F O2 1_555 1_555
Ag1F_2 N2G 1_555 1_555
B1G C9G 1_555 1_555
N1G C1G 1_555 1_555
C1G H1G 1_555 1_555
C2G C1G 1_555 1_555
H2G C2G 1_555 1_555
C3G C2G 1_555 1_555
C4G C3G 1_555 1_555
H3G C4G 1_555 1_555
C5G N1G 1_555 1_555
H4G C5G 1_555 1_555
C6G C3G 1_555 1_555
C7G C6G 1_555 1_555
C8G C7G 1_555 1_555
C9G C8G 1_555 1_555
C10G C9G 1_555 1_555
C11G C6G 1_555 1_555
C12G C11G 1_555 1_555
H5G C12G 1_555 1_555
H6G C12G 1_555 1_555
H7G C12G 1_555 1_555
C13G C10G 1_555 1_555
H8G C13G 1_555 1_555
H9G C13G 1_555 1_555
H10G C13G 1_555 1_555
C14G C8G 1_555 1_555
H11G C14G 1_555 1_555
H12G C14G 1_555 1_555
H13G C14G 1_555 1_555
C15G C7G 1_555 1_555
H14G C15G 1_555 1_555
H15G C15G 1_555 1_555
H16G C15G 1_555 1_555
C16G H17G 1_555 1_555
C17G C16G 1_555 1_555
H18G C17G 1_555 1_555
C18G C17G 1_555 1_555
C19G C18G 1_555 1_555
H19G C19G 1_555 1_555
C20G C19G 1_555 1_555
H20G C20G 1_555 1_555
N2G C16G 1_555 1_555
N2A Ag1 1_555 1_555
N2F Ag1G 1_555 1_555
C21G C18G 1_555 1_555
C22G C21G 1_555 1_555
C23G C22G 1_555 1_555
C24G B1G 1_555 1_555
C25G C24G 1_555 1_555
C26G C21G 1_555 1_555
C27G C26G 1_555 1_555
H21G C27G 1_555 1_555
H22G C27G 1_555 1_555
H23G C27G 1_555 1_555
C28G C25G 1_555 1_555
H24G C28G 1_555 1_555
H25G C28G 1_555 1_555
H26G C28G 1_555 1_555
C29G C23G 1_555 1_555
H27G C29G 1_555 1_555
H28G C29G 1_555 1_555
H29G C29G 1_555 1_555
C30G C22G 1_555 1_555
H30G C30G 1_555 1_555
H31G C30G 1_555 1_555
H32G C30G 1_555 1_555
C31G H33G 1_555 1_555
C32G C31G 1_555 1_555
H34G C32G 1_555 1_555
C33G C32G 1_555 1_555
C34G C33G 1_555 1_555
H35G C34G 1_555 1_555
C35G C34G 1_555 1_555
H36G C35G 1_555 1_555
N3G Ag1 1_555 1_555
N3_2 Ag1G 1_555 1_555
C36G C33G 1_555 1_555
C37G C36G 1_555 1_555
C38G C37G 1_555 1_555
C39G B1G 1_555 1_555
C40G C39G 1_555 1_555
C41G C36G 1_555 1_555
C42G C41G 1_555 1_555
H37G C42G 1_555 1_555
H38G C42G 1_555 1_555
H39G C42G 1_555 1_555
C43G C40G 1_555 1_555
H40G C43G 1_555 1_555
H41G C43G 1_555 1_555
H42G C43G 1_555 1_555
C44G C38G 1_555 1_555
H43G C44G 1_555 1_555
H44G C44G 1_555 1_555
H45G C44G 1_555 1_555
C45G C37G 1_555 1_555
H46G C45G 1_555 1_555
H47G C45G 1_555 1_555
H48G C45G 1_555 1_555
O1F N4 1_555 1_555
O1G Ag1G 1_555 1_555
O2A Ag1G 1_555 1_555
C4 C5 1_555 1_555
C10 C11 1_555 1_555
C20 N2 1_555 1_555
C23 C24 1_555 1_555
C25 C26 1_555 1_555
C35 N3 1_555 1_555
C38 C39 1_555 1_555
C40 C41 1_555 1_555
N4 O2 1_555 1_555
Ag1F O1F 1_555 1_555
C4G C5G 1_555 1_555
C10G C11G 1_555 1_555
C20G N2G 1_555 1_555
C23G C24G 1_555 1_555
C25G C26G 1_555 1_555
C31G N3G 1_555 1_555
C35G N3G 1_555 1_555
C38G C39G 1_555 1_555
C40G C41G 1_555 1_555

#END
