
#######################################################################
#
#                 Cambridge Crystallographic Data Centre
#                                CCDC 
#
#######################################################################
#
# If this CIF has been generated from an entry in the Cambridge 
# Structural Database, then it will include bibliographic, chemical, 
# crystal, experimental, refinement or atomic coordinate data resulting 
# from the CCDC's data processing and validation procedures.
#
#######################################################################

data_CUTGAA
_symmetry_cell_setting           rhombohedral
_symmetry_space_group_name_H-M   'R 3 2'
_symmetry_Int_Tables_number      155
_space_group_name_Hall           'R 3 2"'
loop_
_symmetry_equiv_pos_site_id
_symmetry_equiv_pos_as_xyz
1 x,y,z
2 -y,x-y,z
3 -x+y,-x,z
4 y,x,-z
5 x-y,-y,-z
6 -x,-x+y,-z
7 2/3+x,1/3+y,1/3+z
8 2/3-y,1/3+x-y,1/3+z
9 2/3-x+y,1/3-x,1/3+z
10 2/3+y,1/3+x,1/3-z
11 2/3+x-y,1/3-y,1/3-z
12 2/3-x,1/3-x+y,1/3-z
13 1/3+x,2/3+y,2/3+z
14 1/3-y,2/3+x-y,2/3+z
15 1/3-x+y,2/3-x,2/3+z
16 1/3+y,2/3+x,2/3-z
17 1/3+x-y,2/3-y,2/3-z
18 1/3-x,2/3-x+y,2/3-z
_cell_length_a                   18.2533(14)
_cell_length_b                   18.2533(14)
_cell_length_c                   47.517(7)
_cell_angle_alpha                90
_cell_angle_beta                 90
_cell_angle_gamma                120
_cell_volume                     13710.8
loop_
_atom_site_label
_atom_site_type_symbol
_atom_site_fract_x
_atom_site_fract_y
_atom_site_fract_z
Ag1 Ag 0.06574(4) -0.26759(4) -0.1667
Ag2 Ag -1.0000 -1.0000 0.0000
B1 B -0.3993(5) -0.3993(5) 0.0000
B2 B 0.6667 0.3333 -0.1667
N1 N -0.03276(19) -0.2863(2) -0.13390(7)
C1 C -0.1144(2) -0.3546(2) -0.13649(7)
H1 H -0.1296 -0.3887 -0.1524
C2 C -0.17323(16) -0.3721(2) -0.11526(8)
H2 H -0.2278 -0.4178 -0.1170
C3 C -0.1505(2) -0.3212(2) -0.09142(7)
C4 C -0.0689(2) -0.2528(2) -0.08883(7)
H3 H -0.0537 -0.2188 -0.0729
C5 C -0.01002(19) -0.2354(2) -0.11007(9)
H4 H 0.0446 -0.1897 -0.1083
C6 C -0.2205(5) -0.2098(5) -0.08191(17)
H5 H -0.2470 -0.1790 -0.0753
H6 H -0.2379 -0.2280 -0.1009
H7 H -0.1601 -0.1739 -0.0813
C7 C -0.2166(2) -0.3436(2) -0.06811(7)
C8 C -0.2443(2) -0.4163(2) -0.05200(8)
C9 C -0.3025(2) -0.43419(18) -0.03049(7)
C10 C -0.3330(2) -0.3794(2) -0.02508(7)
C11 C -0.3053(2) -0.3067(2) -0.04119(8)
C12 C -0.2471(2) -0.28878(19) -0.06271(7)
C13 C -0.3373(5) -0.2479(4) -0.03709(17)
H8 H -0.3766 -0.2669 -0.0217
H9 H -0.3653 -0.2457 -0.0539
H10 H -0.2909 -0.1924 -0.0330
C14 C -0.3302(5) -0.5151(4) -0.01399(15)
H11 H -0.3701 -0.5207 0.0002
H12 H -0.2818 -0.5130 -0.0052
H13 H -0.3562 -0.5627 -0.0265
C15 C -0.2032(5) -0.4720(4) -0.05655(14)
H14 H -0.1650 -0.4506 -0.0722
H15 H -0.2465 -0.5292 -0.0603
H16 H -0.1727 -0.4706 -0.0399
C16 C -0.8063(4) -0.8707(4) -0.01102(17)
H17 H -0.8089 -0.9181 -0.0193
C17 C -0.7302(4) -0.7971(4) -0.01061(16)
H18 H -0.6824 -0.7968 -0.0176
C18 C -0.7230(4) -0.7230(4) 0.0000
C19 C -0.6419(4) -0.6419(4) 0.0000
C20 C -0.6186(4) -0.5883(4) -0.02348(12)
C21 C -0.5418(4) -0.5127(4) -0.02406(11)
C22 C -0.4882(4) -0.4882(4) 0.0000
C23 C -0.5164(5) -0.4574(5) -0.04968(14)
H19 H -0.5590 -0.4839 -0.0639
H20 H -0.4635 -0.4494 -0.0567
H21 H -0.5103 -0.4036 -0.0448
C24 C -0.6797(5) -0.6157(5) -0.04843(15)
H22 H -0.6560 -0.5738 -0.0630
H23 H -0.7327 -0.6218 -0.0424
H24 H -0.6888 -0.6689 -0.0555
C25 C 0.1912(4) -0.0701(4) -0.16101(18)
H25 H 0.1406 -0.0709 -0.1576
C26 C 0.2658(4) 0.0060(4) -0.16019(17)
H26 H 0.2655 0.0553 -0.1554
C27 C 0.3423(4) 0.0090(4) -0.1667
C28 C 0.4246(4) 0.0912(4) -0.1667
C29 C 0.4822(3) 0.1083(3) -0.14510(10)
C30 C 0.5602(3) 0.1847(3) -0.14513(10)
C31 C 0.5784(3) 0.2451(3) -0.1667
C32 C 0.6191(4) 0.2007(4) -0.12106(12)
H27 H 0.5956 0.1522 -0.1089
H28 H 0.6267 0.2492 -0.1107
H29 H 0.6727 0.2112 -0.1281
C33 C 0.4606(4) 0.0476(4) -0.12104(15)
H30 H 0.4058 -0.0009 -0.1241
H31 H 0.4602 0.0749 -0.1038
H32 H 0.5021 0.0301 -0.1198
N2 N -0.8784(4) -0.8784(4) 0.0000
N3 N 0.1891(4) -0.1442(4) -0.1667
Ag1C Ag -0.26759(4) 0.06574(4) 0.1667
Ag1A Ag -1.73241(4) -0.66667(6) -0.1667
Ag1E Ag -2.06574(4) -1.33333(6) 0.1667
Ag1B Ag -1.33333(6) -2.06574(4) -0.1667
Ag1D Ag -0.66667(6) -1.73241(4) 0.1667
Ag1Q Ag 1.26759(4) 0.33334(6) -0.1666
Ag1P Ag 0.66666(6) 0.93426(4) -0.1666
B1A B -1.6007(5) -1.0000(7) 0.0000
B1B B -1.0000(7) -1.6007(5) 0.0000
N1C N -0.2863(2) -0.03276(19) 0.13390(7)
N1A N -1.7137(2) -0.74646(28) -0.13390(7)
N1E N -1.96724(19) -1.25354(28) 0.13390(7)
N1B N -1.25354(28) -1.96724(19) -0.13390(7)
N1D N -0.74646(28) -1.7137(2) 0.13390(7)
N1O N 0.0470(2) -0.36609(19) -0.19943(7)
N1G N -2.0470(2) -1.41313(28) 0.19943(7)
N1H N -0.58687(28) -1.63391(19) 0.19943(7)
C1C C -0.3546(2) -0.1144(2) 0.13649(7)
C1A C -1.6454(2) -0.7598(3) -0.13649(7)
C1E C -1.8856(2) -1.2402(3) 0.13649(7)
C1B C -1.2402(3) -1.8856(2) -0.13649(7)
C1D C -0.7598(3) -1.6454(2) 0.13649(7)
H1C H -0.3887 -0.1296 0.1524
H1A H -1.6113 -0.7409 -0.1524
H1E H -1.8704 -1.2591 0.1524
H1B H -1.2591 -1.8704 -0.1524
H1D H -0.7409 -1.6113 0.1524
C2C C -0.3721(2) -0.17323(16) 0.11526(8)
C2A C -1.6279(2) -0.80113(26) -0.11526(8)
C2E C -1.82677(16) -1.19887(26) 0.11526(8)
C2B C -1.19887(26) -1.82677(16) -0.11526(8)
C2D C -0.80113(26) -1.6279(2) 0.11526(8)
H2C H -0.4178 -0.2278 0.1170
H2A H -1.5822 -0.8100 -0.1170
H2E H -1.7722 -1.1900 0.1170
H2B H -1.1900 -1.7722 -0.1170
H2D H -0.8100 -1.5822 0.1170
C3C C -0.3212(2) -0.1505(2) 0.09142(7)
C3A C -1.6788(2) -0.8293(3) -0.09142(7)
C3E C -1.8495(2) -1.1707(3) 0.09142(7)
C3B C -1.1707(3) -1.8495(2) -0.09142(7)
C3D C -0.8293(3) -1.6788(2) 0.09142(7)
C4C C -0.2528(2) -0.0689(2) 0.08883(7)
C4A C -1.7472(2) -0.8161(3) -0.08883(7)
C4E C -1.9311(2) -1.1839(3) 0.08883(7)
C4B C -1.1839(3) -1.9311(2) -0.08883(7)
C4D C -0.8161(3) -1.7472(2) 0.08883(7)
H3C H -0.2188 -0.0537 0.0729
H3A H -1.7812 -0.8349 -0.0729
H3E H -1.9463 -1.1651 0.0729
H3B H -1.1651 -1.9463 -0.0729
H3D H -0.8349 -1.7812 0.0729
C5C C -0.2354(2) -0.01002(19) 0.11007(9)
C5A C -1.7646(2) -0.77462(28) -0.11007(9)
C5E C -1.98998(19) -1.22538(28) 0.11007(9)
C5B C -1.22538(28) -1.98998(19) -0.11007(9)
C5D C -0.77462(28) -1.7646(2) 0.11007(9)
H4C H -0.1897 0.0446 0.1083
H4A H -1.8103 -0.7657 -0.1083
H4E H -2.0446 -1.2343 0.1083
H4B H -1.2343 -2.0446 -0.1083
H4D H -0.7657 -1.8103 0.1083
C6C C -0.2098(5) -0.2205(5) 0.08191(17)
C6A C -1.7902(5) -1.0107(7) -0.08191(17)
C6E C -1.7795(5) -0.9893(7) 0.08191(17)
C6B C -0.9893(7) -1.7795(5) -0.08191(17)
C6D C -1.0107(7) -1.7902(5) 0.08191(17)
H5C H -0.1790 -0.2470 0.0753
H5A H -1.8210 -1.0680 -0.0753
H5E H -1.7530 -0.9320 0.0753
H5B H -0.9320 -1.7530 -0.0753
H5D H -1.0680 -1.8210 0.0753
H6C H -0.2280 -0.2379 0.1009
H6A H -1.7720 -1.0099 -0.1009
H6E H -1.7621 -0.9901 0.1009
H6B H -0.9901 -1.7621 -0.1009
H6D H -1.0099 -1.7720 0.1009
H7C H -0.1739 -0.1601 0.0813
H7A H -1.8261 -0.9862 -0.0813
H7E H -1.8399 -1.0138 0.0813
H7B H -1.0138 -1.8399 -0.0813
H7D H -0.9862 -1.8261 0.0813
C7C C -0.3436(2) -0.2166(2) 0.06811(7)
C7A C -1.6564(2) -0.8730(3) -0.06811(7)
C7E C -1.7834(2) -1.1270(3) 0.06811(7)
C7B C -1.1270(3) -1.7834(2) -0.06811(7)
C7D C -0.8730(3) -1.6564(2) 0.06811(7)
C8C C -0.4163(2) -0.2443(2) 0.05200(8)
C8A C -1.5837(2) -0.8280(3) -0.05200(8)
C8E C -1.7557(2) -1.1720(3) 0.05200(8)
C8B C -1.1720(3) -1.7557(2) -0.05200(8)
C8D C -0.8280(3) -1.5837(2) 0.05200(8)
C9C C -0.43419(18) -0.3025(2) 0.03049(7)
C9A C -1.56581(18) -0.86831(27) -0.03049(7)
C9E C -1.6975(2) -1.13169(27) 0.03049(7)
C9B C -1.13169(27) -1.6975(2) -0.03049(7)
C9D C -0.86831(27) -1.56581(18) 0.03049(7)
C10C C -0.3794(2) -0.3330(2) 0.02508(7)
C10A C -1.6206(2) -0.9536(3) -0.02508(7)
C10E C -1.6670(2) -1.0464(3) 0.02508(7)
C10B C -1.0464(3) -1.6670(2) -0.02508(7)
C10D C -0.9536(3) -1.6206(2) 0.02508(7)
C11C C -0.3067(2) -0.3053(2) 0.04119(8)
C11A C -1.6933(2) -0.9986(3) -0.04119(8)
C11E C -1.6947(2) -1.0014(3) 0.04119(8)
C11B C -1.0014(3) -1.6947(2) -0.04119(8)
C11D C -0.9986(3) -1.6933(2) 0.04119(8)
C12C C -0.28878(19) -0.2471(2) 0.06271(7)
C12A C -1.71122(19) -0.95832(28) -0.06271(7)
C12E C -1.7529(2) -1.04168(28) 0.06271(7)
C12B C -1.04168(28) -1.7529(2) -0.06271(7)
C12D C -0.95832(28) -1.71122(19) 0.06271(7)
C13C C -0.2479(4) -0.3373(5) 0.03709(17)
C13A C -1.7521(4) -1.0894(6) -0.03709(17)
C13E C -1.6627(5) -0.9106(6) 0.03709(17)
C13B C -0.9106(6) -1.6627(5) -0.03709(17)
C13D C -1.0894(6) -1.7521(4) 0.03709(17)
H8C H -0.2669 -0.3766 0.0217
H8A H -1.7331 -1.1097 -0.0217
H8E H -1.6234 -0.8903 0.0217
H8B H -0.8903 -1.6234 -0.0217
H8D H -1.1097 -1.7331 0.0217
H9C H -0.2457 -0.3653 0.0539
H9A H -1.7543 -1.1196 -0.0539
H9E H -1.6347 -0.8804 0.0539
H9B H -0.8804 -1.6347 -0.0539
H9D H -1.1196 -1.7543 0.0539
H10C H -0.1924 -0.2909 0.0330
H10A H -1.8076 -1.0985 -0.0330
H10E H -1.7091 -0.9015 0.0330
H10B H -0.9015 -1.7091 -0.0330
H10D H -1.0985 -1.8076 0.0330
C14C C -0.5151(4) -0.3302(5) 0.01399(15)
C14A C -1.4849(4) -0.8151(6) -0.01399(15)
C14E C -1.6698(5) -1.1849(6) 0.01399(15)
C14B C -1.1849(6) -1.6698(5) -0.01399(15)
C14D C -0.8151(6) -1.4849(4) 0.01399(15)
H11C H -0.5207 -0.3701 -0.0002
H11A H -1.4793 -0.8494 0.0002
H11E H -1.6299 -1.1506 -0.0002
H11B H -1.1506 -1.6299 0.0002
H11D H -0.8494 -1.4793 -0.0002
H12C H -0.5130 -0.2818 0.0052
H12A H -1.4870 -0.7688 -0.0052
H12E H -1.7182 -1.2312 0.0052
H12B H -1.2312 -1.7182 -0.0052
H12D H -0.7688 -1.4870 0.0052
H13C H -0.5627 -0.3562 0.0265
H13A H -1.4373 -0.7935 -0.0265
H13E H -1.6438 -1.2065 0.0265
H13B H -1.2065 -1.6438 -0.0265
H13D H -0.7935 -1.4373 0.0265
C15C C -0.4720(4) -0.2032(5) 0.05655(14)
C15A C -1.5280(4) -0.7312(6) -0.05655(14)
C15E C -1.7968(5) -1.2688(6) 0.05655(14)
C15B C -1.2688(6) -1.7968(5) -0.05655(14)
C15D C -0.7312(6) -1.5280(4) 0.05655(14)
H14C H -0.4506 -0.1650 0.0722
H14A H -1.5494 -0.7144 -0.0722
H14E H -1.8350 -1.2856 0.0722
H14B H -1.2856 -1.8350 -0.0722
H14D H -0.7144 -1.5494 0.0722
H15C H -0.5292 -0.2465 0.0603
H15A H -1.4708 -0.7173 -0.0603
H15E H -1.7535 -1.2827 0.0603
H15B H -1.2827 -1.7535 -0.0603
H15D H -0.7173 -1.4708 0.0603
H16C H -0.4706 -0.1727 0.0399
H16A H -1.5294 -0.7021 -0.0399
H16E H -1.8273 -1.2979 0.0399
H16B H -1.2979 -1.8273 -0.0399
H16D H -0.7021 -1.5294 0.0399
C16C C -0.8707(4) -0.8063(4) 0.01102(17)
C16A C -1.1293(4) -0.9356(6) -0.01102(17)
C16E C -1.1937(4) -1.0644(6) 0.01102(17)
C16B C -1.0644(6) -1.1937(4) -0.01102(17)
C16D C -0.9356(6) -1.1293(4) 0.01102(17)
H17C H -0.9181 -0.8089 0.0193
H17A H -1.0819 -0.8908 -0.0193
H17E H -1.1911 -1.1092 0.0193
H17B H -1.1092 -1.1911 -0.0193
H17D H -0.8908 -1.0819 0.0193
C17C C -0.7971(4) -0.7302(4) 0.01061(16)
C17A C -1.2029(4) -0.9331(6) -0.01061(16)
C17E C -1.2698(4) -1.0669(6) 0.01061(16)
C17B C -1.0669(6) -1.2698(4) -0.01061(16)
C17D C -0.9331(6) -1.2029(4) 0.01061(16)
H18C H -0.7968 -0.6824 0.0176
H18A H -1.2032 -0.8856 -0.0176
H18E H -1.3176 -1.1144 0.0176
H18B H -1.1144 -1.3176 -0.0176
H18D H -0.8856 -1.2032 0.0176
C18A C -1.2770(4) -1.0000(6) 0.0000
C18B C -1.0000(6) -1.2770(4) 0.0000
C19A C -1.3581(4) -1.0000(6) 0.0000
C19B C -1.0000(6) -1.3581(4) 0.0000
C20C C -0.5883(4) -0.6186(4) 0.02348(12)
C20A C -1.4117(4) -1.0303(6) -0.02348(12)
C20E C -1.3814(4) -0.9697(6) 0.02348(12)
C20B C -0.9697(6) -1.3814(4) -0.02348(12)
C20D C -1.0303(6) -1.4117(4) 0.02348(12)
C21C C -0.5127(4) -0.5418(4) 0.02406(11)
C21A C -1.4873(4) -1.0291(6) -0.02406(11)
C21E C -1.4582(4) -0.9709(6) 0.02406(11)
C21B C -0.9709(6) -1.4582(4) -0.02406(11)
C21D C -1.0291(6) -1.4873(4) 0.02406(11)
C22A C -1.5118(4) -1.0000(6) 0.0000
C22B C -1.0000(6) -1.5118(4) 0.0000
C23C C -0.4574(5) -0.5164(5) 0.04968(14)
C23A C -1.5426(5) -1.0590(7) -0.04968(14)
C23E C -1.4836(5) -0.9410(7) 0.04968(14)
C23B C -0.9410(7) -1.4836(5) -0.04968(14)
C23D C -1.0590(7) -1.5426(5) 0.04968(14)
H19C H -0.4839 -0.5590 0.0639
H19A H -1.5161 -1.0751 -0.0639
H19E H -1.4410 -0.9249 0.0639
H19B H -0.9249 -1.4410 -0.0639
H19D H -1.0751 -1.5161 0.0639
H20C H -0.4494 -0.4635 0.0567
H20A H -1.5506 -1.0141 -0.0567
H20E H -1.5365 -0.9859 0.0567
H20B H -0.9859 -1.5365 -0.0567
H20D H -1.0141 -1.5506 0.0567
H21C H -0.4036 -0.5103 0.0448
H21A H -1.5964 -1.1067 -0.0448
H21E H -1.4897 -0.8933 0.0448
H21B H -0.8933 -1.4897 -0.0448
H21D H -1.1067 -1.5964 0.0448
C24C C -0.6157(5) -0.6797(5) 0.04843(15)
C24A C -1.3843(5) -1.0640(7) -0.04843(15)
C24E C -1.3203(5) -0.9360(7) 0.04843(15)
C24B C -0.9360(7) -1.3203(5) -0.04843(15)
C24D C -1.0640(7) -1.3843(5) 0.04843(15)
H22C H -0.5738 -0.6560 0.0630
H22A H -1.4262 -1.0822 -0.0630
H22E H -1.3440 -0.9178 0.0630
H22B H -0.9178 -1.3440 -0.0630
H22D H -1.0822 -1.4262 0.0630
H23C H -0.6218 -0.7327 0.0424
H23A H -1.3782 -1.1109 -0.0424
H23E H -1.2673 -0.8891 0.0424
H23B H -0.8891 -1.2673 -0.0424
H23D H -1.1109 -1.3782 0.0424
H24C H -0.6689 -0.6888 0.0555
H24A H -1.3311 -1.0199 -0.0555
H24E H -1.3112 -0.9801 0.0555
H24B H -0.9801 -1.3112 -0.0555
H24D H -1.0199 -1.3311 0.0555
C25O C 0.2632(4) -0.1421(4) -0.17232(18)
C25A C 1.0701(4) 0.2613(6) -0.16101(18)
C25Q C 1.1421(4) 0.4054(6) -0.17232(18)
C25B C 0.7387(6) 0.8088(4) -0.16101(18)
C25P C 0.5946(6) 0.7368(4) -0.17232(18)
H25O H 0.2624 -0.1927 -0.1757
H25A H 1.0709 0.2115 -0.1576
H25Q H 1.1927 0.4552 -0.1757
H25B H 0.7885 0.8594 -0.1576
H25P H 0.5448 0.7376 -0.1757
C26O C 0.3393(4) -0.0675(4) -0.17314(17)
C26A C 0.9940(4) 0.2598(6) -0.16019(17)
C26Q C 1.0675(4) 0.4069(6) -0.17314(17)
C26B C 0.7402(6) 0.7342(4) -0.16019(17)
C26P C 0.5931(6) 0.6607(4) -0.17314(17)
H26O H 0.3886 -0.0678 -0.1779
H26Q H 1.0678 0.4565 -0.1779
H26A H 0.9447 0.2102 -0.1554
H26P H 0.5435 0.6114 -0.1779
H26B H 0.7898 0.7345 -0.1554
C27A C 0.9910(4) 0.3333(6) -0.1667
C27B C 0.6667(6) 0.6577(4) -0.1667
C28A C 0.9088(4) 0.3334(6) -0.1667
C28B C 0.6666(6) 0.5754(4) -0.1667
C29O C 0.4416(3) 0.1489(3) -0.18823(10)
C29A C 0.8917(3) 0.3739(4) -0.14510(10)
C29Q C 0.8511(3) 0.2928(4) -0.18823(10)
C29B C 0.6261(4) 0.5178(3) -0.14510(10)
C29P C 0.7072(4) 0.5584(3) -0.18823(10)
C30O C 0.5180(3) 0.2269(3) -0.18820(10)
C30A C 0.8153(3) 0.3755(4) -0.14513(10)
C30Q C 0.7731(3) 0.2912(4) -0.18820(10)
C30B C 0.6245(4) 0.4398(3) -0.14513(10)
C30P C 0.7088(4) 0.4820(3) -0.18820(10)
C31A C 0.7549(3) 0.3333(4) -0.1667
C31B C 0.6667(4) 0.4216(3) -0.1667
C32O C 0.5340(4) 0.2858(4) -0.21227(12)
C32Q C 0.7142(4) 0.2483(6) -0.21227(12)
C32A C 0.7993(4) 0.4184(6) -0.12106(12)
C32P C 0.7517(6) 0.4660(4) -0.21227(12)
C32B C 0.5816(6) 0.3809(4) -0.12106(12)
H27O H 0.4855 0.2623 -0.2244
H27Q H 0.7377 0.2233 -0.2244
H27A H 0.8478 0.4434 -0.1089
H27P H 0.7767 0.5145 -0.2244
H27B H 0.5566 0.4044 -0.1089
H28O H 0.5825 0.2934 -0.2226
H28Q H 0.7066 0.2892 -0.2226
H28A H 0.7508 0.3775 -0.1107
H28P H 0.7108 0.4175 -0.2226
H28B H 0.6225 0.3733 -0.1107
H29O H 0.5445 0.3394 -0.2052
H29Q H 0.6606 0.2052 -0.2052
H29A H 0.7888 0.4615 -0.1281
H29P H 0.7948 0.4555 -0.2052
H29B H 0.5385 0.3273 -0.1281
C33O C 0.3809(4) 0.1273(4) -0.21229(15)
C33Q C 0.8727(4) 0.2537(6) -0.21229(15)
C33A C 0.9524(4) 0.4130(6) -0.12104(15)
C33P C 0.7463(6) 0.6191(4) -0.21229(15)
C33B C 0.5870(6) 0.5394(4) -0.12104(15)
H30O H 0.3324 0.0725 -0.2092
H30Q H 0.9275 0.2600 -0.2092
H30A H 1.0009 0.4067 -0.1241
H30P H 0.7400 0.6676 -0.2092
H30B H 0.5933 0.5942 -0.1241
H31O H 0.4082 0.1269 -0.2295
H31Q H 0.8731 0.2814 -0.2295
H31A H 0.9251 0.3853 -0.1038
H31P H 0.7186 0.5918 -0.2295
H31B H 0.6147 0.5398 -0.1038
H32O H 0.3634 0.1688 -0.2135
H32Q H 0.8312 0.1947 -0.2135
H32A H 0.9699 0.4720 -0.1198
H32P H 0.8053 0.6366 -0.2135
H32B H 0.5280 0.4979 -0.1198
N2A N -1.1216(4) -1.0000(6) 0.0000
N2B N -1.0000(6) -1.1216(4) 0.0000
N3Q N 1.1442(4) 0.3334(6) -0.1666
N3P N 0.6666(6) 0.8109(4) -0.1666
N3E N -2.1891(4) -1.3333(6) 0.1667
N3D N -0.6667(6) -1.8558(4) 0.1667
Cl1 Cl -1.0000 -1.0000 -0.07641(18)
O1 O -1.0000 -1.0000 -0.1068(3)
O2 O -0.970(4) -1.054(4) -0.0620(10)
O2A O -0.946(4) -0.916(6) -0.0620(10)
O2B O -1.084(6) -1.030(4) -0.0620(10)
N4 N -1.0208(11) -0.1930(10) -0.2075(3)
C34 C -0.9543(17) -0.1315(17) -0.2148(6)
C35 C -0.8733(17) -0.0775(18) -0.2304(6)
H33 H -0.8453 -0.0215 -0.2225
H34 H -0.8854 -0.0746 -0.2499
H35 H -0.8373 -0.1016 -0.2287
Cl2 Cl -0.3333 -0.6667 -0.9551(3)
O3 O -0.294(2) -0.5864(15) -0.9401(4)
O4 O -0.3333 -0.6667 -0.9855(4)
O3A O -0.4136(15) -0.7076(25) -0.9401(4)
O3B O -0.2924(25) -0.706(2) -0.9401(4)
Cl3? Cl -1.0000 -1.0000 -0.1368(3)
O5? O -1.062(3) -0.9779(36) -0.1484(7)
loop_
_geom_bond_atom_site_label_1
_geom_bond_atom_site_label_2
_geom_bond_site_symmetry_1
_geom_bond_site_symmetry_2
Ag1 N1 1_555 1_555
Ag2 N2 1_555 1_555
B1 C10 1_555 1_555
B2 C31 1_555 1_555
N1 C1 1_555 1_555
C1 H1 1_555 1_555
C2 C1 1_555 1_555
H2 C2 1_555 1_555
C3 C2 1_555 1_555
C4 C3 1_555 1_555
H3 C4 1_555 1_555
C5 N1 1_555 1_555
H4 C5 1_555 1_555
C6 H5 1_555 1_555
H6 C6 1_555 1_555
H7 C6 1_555 1_555
C7 C3 1_555 1_555
C8 C7 1_555 1_555
C9 C8 1_555 1_555
C10 C9 1_555 1_555
C11 C10 1_555 1_555
C12 C6 1_555 1_555
C13 C11 1_555 1_555
H8 C13 1_555 1_555
H9 C13 1_555 1_555
H10 C13 1_555 1_555
C14 C9 1_555 1_555
H11 C14 1_555 1_555
H12 C14 1_555 1_555
H13 C14 1_555 1_555
C15 C8 1_555 1_555
H14 C15 1_555 1_555
H15 C15 1_555 1_555
H16 C15 1_555 1_555
C16 H17 1_555 1_555
C17 C16 1_555 1_555
H18 C17 1_555 1_555
C18 C17 1_555 1_555
C19 C18 1_555 1_555
C20 C19 1_555 1_555
C21 C20 1_555 1_555
C22 B1 1_555 1_555
C23 C21 1_555 1_555
H19 C23 1_555 1_555
H20 C23 1_555 1_555
H21 C23 1_555 1_555
C24 C20 1_555 1_555
H22 C24 1_555 1_555
H23 C24 1_555 1_555
H24 C24 1_555 1_555
C25 H25 1_555 1_555
C26 C25 1_555 1_555
H26 C26 1_555 1_555
C27 C26 1_555 1_555
C28 C27 1_555 1_555
C29 C28 1_555 1_555
C30 C29 1_555 1_555
C31 C30 1_555 1_555
C32 C30 1_555 1_555
H27 C32 1_555 1_555
H28 C32 1_555 1_555
H29 C32 1_555 1_555
C33 C29 1_555 1_555
H30 C33 1_555 1_555
H31 C33 1_555 1_555
H32 C33 1_555 1_555
N2 C16 1_555 1_555
N3 Ag1 1_555 1_555
Cl1 O1 1_555 1_555
O2 Cl1 1_555 1_555
N4 C34 1_555 1_555
C34 C35 1_555 1_555
C35 H33 1_555 1_555
H34 C35 1_555 1_555
H35 C35 1_555 1_555
Cl2 O3 1_555 1_555
O4 Cl2 1_555 1_555
Ag1C N1C 1_555 1_555
Ag1A N1A 1_555 1_555
Ag1E N1E 1_555 1_555
Ag1B N1B 1_555 1_555
Ag1D N1D 1_555 1_555
Ag1Q N3Q 1_555 1_555
Ag1P N3P 1_555 1_555
B1A C10A 1_555 1_555
B1B C10B 1_555 1_555
N1C C1C 1_555 1_555
N1A C1A 1_555 1_555
N1E C1E 1_555 1_555
N1B C1B 1_555 1_555
N1D C1D 1_555 1_555
N1O Ag1 1_555 1_555
N1G Ag1E 1_555 1_555
N1H Ag1D 1_555 1_555
C1C H1C 1_555 1_555
C1A H1A 1_555 1_555
C1E H1E 1_555 1_555
C1B H1B 1_555 1_555
C1D H1D 1_555 1_555
C2C C1C 1_555 1_555
C2A C1A 1_555 1_555
C2E C1E 1_555 1_555
C2B C1B 1_555 1_555
C2D C1D 1_555 1_555
H2C C2C 1_555 1_555
H2A C2A 1_555 1_555
H2E C2E 1_555 1_555
H2B C2B 1_555 1_555
H2D C2D 1_555 1_555
C3C C2C 1_555 1_555
C3A C2A 1_555 1_555
C3E C2E 1_555 1_555
C3B C2B 1_555 1_555
C3D C2D 1_555 1_555
C4C C3C 1_555 1_555
C4A C3A 1_555 1_555
C4E C3E 1_555 1_555
C4B C3B 1_555 1_555
C4D C3D 1_555 1_555
H3C C4C 1_555 1_555
H3A C4A 1_555 1_555
H3E C4E 1_555 1_555
H3B C4B 1_555 1_555
H3D C4D 1_555 1_555
C5C N1C 1_555 1_555
C5A N1A 1_555 1_555
C5E N1E 1_555 1_555
C5B N1B 1_555 1_555
C5D N1D 1_555 1_555
H4C C5C 1_555 1_555
H4A C5A 1_555 1_555
H4E C5E 1_555 1_555
H4B C5B 1_555 1_555
H4D C5D 1_555 1_555
C6C H5C 1_555 1_555
C6A H5A 1_555 1_555
C6E H5E 1_555 1_555
C6B H5B 1_555 1_555
C6D H5D 1_555 1_555
H6C C6C 1_555 1_555
H6A C6A 1_555 1_555
H6E C6E 1_555 1_555
H6B C6B 1_555 1_555
H6D C6D 1_555 1_555
H7C C6C 1_555 1_555
H7A C6A 1_555 1_555
H7E C6E 1_555 1_555
H7B C6B 1_555 1_555
H7D C6D 1_555 1_555
C7C C3C 1_555 1_555
C7A C3A 1_555 1_555
C7E C3E 1_555 1_555
C7B C3B 1_555 1_555
C7D C3D 1_555 1_555
C8C C7C 1_555 1_555
C8A C7A 1_555 1_555
C8E C7E 1_555 1_555
C8B C7B 1_555 1_555
C8D C7D 1_555 1_555
C9C C8C 1_555 1_555
C9A C8A 1_555 1_555
C9E C8E 1_555 1_555
C9B C8B 1_555 1_555
C9D C8D 1_555 1_555
C10C B1 1_555 1_555
C10A C9A 1_555 1_555
C10E B1A 1_555 1_555
C10B C9B 1_555 1_555
C10D B1B 1_555 1_555
C11C C10C 1_555 1_555
C11A C10A 1_555 1_555
C11E C10E 1_555 1_555
C11B C10B 1_555 1_555
C11D C10D 1_555 1_555
C12C C6C 1_555 1_555
C12A C6A 1_555 1_555
C12E C6E 1_555 1_555
C12B C6B 1_555 1_555
C12D C6D 1_555 1_555
C13C C11C 1_555 1_555
C13A C11A 1_555 1_555
C13E C11E 1_555 1_555
C13B C11B 1_555 1_555
C13D C11D 1_555 1_555
H8C C13C 1_555 1_555
H8A C13A 1_555 1_555
H8E C13E 1_555 1_555
H8B C13B 1_555 1_555
H8D C13D 1_555 1_555
H9C C13C 1_555 1_555
H9A C13A 1_555 1_555
H9E C13E 1_555 1_555
H9B C13B 1_555 1_555
H9D C13D 1_555 1_555
H10C C13C 1_555 1_555
H10A C13A 1_555 1_555
H10E C13E 1_555 1_555
H10B C13B 1_555 1_555
H10D C13D 1_555 1_555
C14C C9C 1_555 1_555
C14A C9A 1_555 1_555
C14E C9E 1_555 1_555
C14B C9B 1_555 1_555
C14D C9D 1_555 1_555
H11C C14C 1_555 1_555
H11A C14A 1_555 1_555
H11E C14E 1_555 1_555
H11B C14B 1_555 1_555
H11D C14D 1_555 1_555
H12C C14C 1_555 1_555
H12A C14A 1_555 1_555
H12E C14E 1_555 1_555
H12B C14B 1_555 1_555
H12D C14D 1_555 1_555
H13C C14C 1_555 1_555
H13A C14A 1_555 1_555
H13E C14E 1_555 1_555
H13B C14B 1_555 1_555
H13D C14D 1_555 1_555
C15C C8C 1_555 1_555
C15A C8A 1_555 1_555
C15E C8E 1_555 1_555
C15B C8B 1_555 1_555
C15D C8D 1_555 1_555
H14C C15C 1_555 1_555
H14A C15A 1_555 1_555
H14E C15E 1_555 1_555
H14B C15B 1_555 1_555
H14D C15D 1_555 1_555
H15C C15C 1_555 1_555
H15A C15A 1_555 1_555
H15E C15E 1_555 1_555
H15B C15B 1_555 1_555
H15D C15D 1_555 1_555
H16C C15C 1_555 1_555
H16A C15A 1_555 1_555
H16E C15E 1_555 1_555
H16B C15B 1_555 1_555
H16D C15D 1_555 1_555
C16C N2 1_555 1_555
C16A H17A 1_555 1_555
C16E H17E 1_555 1_555
C16B H17B 1_555 1_555
C16D H17D 1_555 1_555
H17C C16C 1_555 1_555
C17C C18 1_555 1_555
C17A C16A 1_555 1_555
C17E C16E 1_555 1_555
C17B C16B 1_555 1_555
C17D C16D 1_555 1_555
H18C C17C 1_555 1_555
H18A C17A 1_555 1_555
H18E C17E 1_555 1_555
H18B C17B 1_555 1_555
H18D C17D 1_555 1_555
C18A C17A 1_555 1_555
C18B C17B 1_555 1_555
C19A C18A 1_555 1_555
C19B C18B 1_555 1_555
C20C C19 1_555 1_555
C20A C19A 1_555 1_555
C20E C19A 1_555 1_555
C20B C19B 1_555 1_555
C20D C19B 1_555 1_555
C21C C22 1_555 1_555
C21A C20A 1_555 1_555
C21E C20E 1_555 1_555
C21B C20B 1_555 1_555
C21D C20D 1_555 1_555
C22A B1A 1_555 1_555
C22B B1B 1_555 1_555
C23C C21C 1_555 1_555
C23A C21A 1_555 1_555
C23E C21E 1_555 1_555
C23B C21B 1_555 1_555
C23D C21D 1_555 1_555
H19C C23C 1_555 1_555
H19A C23A 1_555 1_555
H19E C23E 1_555 1_555
H19B C23B 1_555 1_555
H19D C23D 1_555 1_555
H20C C23C 1_555 1_555
H20A C23A 1_555 1_555
H20E C23E 1_555 1_555
H20B C23B 1_555 1_555
H20D C23D 1_555 1_555
H21C C23C 1_555 1_555
H21A C23A 1_555 1_555
H21E C23E 1_555 1_555
H21B C23B 1_555 1_555
H21D C23D 1_555 1_555
C24C C20C 1_555 1_555
C24A C20A 1_555 1_555
C24E C20E 1_555 1_555
C24B C20B 1_555 1_555
C24D C20D 1_555 1_555
H22C C24C 1_555 1_555
H22A C24A 1_555 1_555
H22E C24E 1_555 1_555
H22B C24B 1_555 1_555
H22D C24D 1_555 1_555
H23C C24C 1_555 1_555
H23A C24A 1_555 1_555
H23E C24E 1_555 1_555
H23B C24B 1_555 1_555
H23D C24D 1_555 1_555
H24C C24C 1_555 1_555
H24A C24A 1_555 1_555
H24E C24E 1_555 1_555
H24B C24B 1_555 1_555
H24D C24D 1_555 1_555
C25O N3 1_555 1_555
C25A H25A 1_555 1_555
C25Q H25Q 1_555 1_555
C25B H25B 1_555 1_555
C25P H25P 1_555 1_555
H25O C25O 1_555 1_555
C26O C27 1_555 1_555
C26A C25A 1_555 1_555
C26Q C25Q 1_555 1_555
C26B C25B 1_555 1_555
C26P C25P 1_555 1_555
H26O C26O 1_555 1_555
H26Q C26Q 1_555 1_555
H26A C26A 1_555 1_555
H26P C26P 1_555 1_555
H26B C26B 1_555 1_555
C27A C26A 1_555 1_555
C27B C26B 1_555 1_555
C28A C27A 1_555 1_555
C28B C27B 1_555 1_555
C29O C28 1_555 1_555
C29A C28A 1_555 1_555
C29Q C28A 1_555 1_555
C29B C28B 1_555 1_555
C29P C28B 1_555 1_555
C30O C31 1_555 1_555
C30A C29A 1_555 1_555
C30Q C29Q 1_555 1_555
C30B C29B 1_555 1_555
C30P C29P 1_555 1_555
C31A B2 1_555 1_555
C31B B2 1_555 1_555
C32O C30O 1_555 1_555
C32Q C30Q 1_555 1_555
C32A C30A 1_555 1_555
C32P C30P 1_555 1_555
C32B C30B 1_555 1_555
H27O C32O 1_555 1_555
H27Q C32Q 1_555 1_555
H27A C32A 1_555 1_555
H27P C32P 1_555 1_555
H27B C32B 1_555 1_555
H28O C32O 1_555 1_555
H28Q C32Q 1_555 1_555
H28A C32A 1_555 1_555
H28P C32P 1_555 1_555
H28B C32B 1_555 1_555
H29O C32O 1_555 1_555
H29Q C32Q 1_555 1_555
H29A C32A 1_555 1_555
H29P C32P 1_555 1_555
H29B C32B 1_555 1_555
C33O C29O 1_555 1_555
C33Q C29Q 1_555 1_555
C33A C29A 1_555 1_555
C33P C29P 1_555 1_555
C33B C29B 1_555 1_555
H30O C33O 1_555 1_555
H30Q C33Q 1_555 1_555
H30A C33A 1_555 1_555
H30P C33P 1_555 1_555
H30B C33B 1_555 1_555
H31O C33O 1_555 1_555
H31Q C33Q 1_555 1_555
H31A C33A 1_555 1_555
H31P C33P 1_555 1_555
H31B C33B 1_555 1_555
H32O C33O 1_555 1_555
H32Q C33Q 1_555 1_555
H32A C33A 1_555 1_555
H32P C33P 1_555 1_555
H32B C33B 1_555 1_555
N2A Ag2 1_555 1_555
N2B Ag2 1_555 1_555
N3Q C25A 1_555 1_555
N3P C25B 1_555 1_555
N3E Ag1E 1_555 1_555
N3D Ag1D 1_555 1_555
O2A Cl1 1_555 1_555
O2B Cl1 1_555 1_555
O3A Cl2 1_555 1_555
O3B Cl2 1_555 1_555
C4 C5 1_555 1_555
C7 C12 1_555 1_555
C11 C12 1_555 1_555
C21 C22 1_555 1_555
C25 N3 1_555 1_555
C4C C5C 1_555 1_555
C4A C5A 1_555 1_555
C4E C5E 1_555 1_555
C4B C5B 1_555 1_555
C4D C5D 1_555 1_555
C7C C12C 1_555 1_555
C7A C12A 1_555 1_555
C7E C12E 1_555 1_555
C7B C12B 1_555 1_555
C7D C12D 1_555 1_555
C9C C10C 1_555 1_555
C9E C10E 1_555 1_555
C9D C10D 1_555 1_555
C11C C12C 1_555 1_555
C11A C12A 1_555 1_555
C11E C12E 1_555 1_555
C11B C12B 1_555 1_555
C11D C12D 1_555 1_555
C16C C17C 1_555 1_555
C16A N2A 1_555 1_555
C16E N2A 1_555 1_555
C16B N2B 1_555 1_555
C16D N2B 1_555 1_555
C17E C18A 1_555 1_555
C17D C18B 1_555 1_555
C20C C21C 1_555 1_555
C21A C22A 1_555 1_555
C21E C22A 1_555 1_555
C21B C22B 1_555 1_555
C21D C22B 1_555 1_555
C25O C26O 1_555 1_555
C25Q N3Q 1_555 1_555
C25P N3P 1_555 1_555
C26Q C27A 1_555 1_555
C26P C27B 1_555 1_555
C29O C30O 1_555 1_555
C30A C31A 1_555 1_555
C30Q C31A 1_555 1_555
C30B C31B 1_555 1_555
C30P C31B 1_555 1_555

#END
