
#######################################################################
#
#                 Cambridge Crystallographic Data Centre
#                                CCDC 
#
#######################################################################
#
# If this CIF has been generated from an entry in the Cambridge 
# Structural Database, then it will include bibliographic, chemical, 
# crystal, experimental, refinement or atomic coordinate data resulting 
# from the CCDC's data processing and validation procedures.
#
#######################################################################

data_CUTKUY
_symmetry_cell_setting           monoclinic
_symmetry_space_group_name_H-M   'C 2/c'
_symmetry_Int_Tables_number      15
_space_group_name_Hall           '-C 2yn'
loop_
_symmetry_equiv_pos_site_id
_symmetry_equiv_pos_as_xyz
1 x,y,z
2 -x,y,1/2-z
3 1/2+x,1/2+y,z
4 1/2-x,1/2+y,1/2-z
5 -x,-y,-z
6 x,-y,1/2+z
7 1/2-x,1/2-y,-z
8 1/2+x,1/2-y,1/2+z
_cell_length_a                   24.800(8)
_cell_length_b                   5.4672(17)
_cell_length_c                   7.999(3)
_cell_angle_alpha                90
_cell_angle_beta                 96.237(5)
_cell_angle_gamma                90
_cell_volume                     1078.14
loop_
_atom_site_label
_atom_site_type_symbol
_atom_site_fract_x
_atom_site_fract_y
_atom_site_fract_z
Pb1 Pb 1.0000 1.14220(3) 0.2500
O1 O 0.91454(11) 0.9135(5) 0.2405(4)
O2 O 0.97201(11) 0.7935(5) 0.0668(3)
C1 C 0.92680(15) 0.7717(7) 0.1274(5)
C2 C 0.88901(15) 0.5746(7) 0.0623(5)
H1 H 0.9001 0.4591 -0.0101
C3 C 0.83887(16) 0.5698(7) 0.1055(5)
H2 H 0.8312 0.6881 0.1813
C4 C 0.79447(15) 0.4001(6) 0.0533(4)
C5 C 0.80222(16) 0.1810(6) -0.0291(5)
H3 H 0.8369 0.1331 -0.0490
C6 C 0.74164(15) 0.4646(7) 0.0819(5)
H4 H 0.7361 0.6107 0.1364
Pb1D Pb 1.0000 0.85780(3) -0.2500
Pb1F Pb 0.5000 -0.64220(3) -0.2500
Pb1B Pb 0.5000 -0.35780(3) 0.2500
O1F O 0.58546(11) -0.4135(5) -0.2405(4)
O1A O 1.08546(11) 0.9135(5) 0.2595(4)
O2F O 0.52799(11) -0.2935(5) -0.0668(3)
O2A O 1.02799(11) 0.7935(5) 0.4332(3)
O2D O 1.02799(11) 1.2065(5) -0.0668(3)
O2E O 0.97201(11) 1.2065(5) 0.5668(3)
C1F C 0.57320(15) -0.2717(7) -0.1274(5)
C2F C 0.61099(15) -0.0746(7) -0.0623(5)
H1F H 0.5999 0.0409 0.0101
C3F C 0.66113(16) -0.0698(7) -0.1055(5)
H2F H 0.6688 -0.1881 -0.1813
C4F C 0.70553(15) 0.0999(6) -0.0533(4)
C5F C 0.69778(16) 0.3190(6) 0.0291(5)
H3F H 0.6631 0.3669 0.0490
C6F C 0.75836(15) 0.0354(7) -0.0819(5)
H4F H 0.7639 -0.1107 -0.1364
loop_
_geom_bond_atom_site_label_1
_geom_bond_atom_site_label_2
_geom_bond_site_symmetry_1
_geom_bond_site_symmetry_2
Pb1 O1 1_555 1_555
O1 C1 1_555 1_555
O2 Pb1 1_555 1_555
C1 O2 1_555 1_555
C2 C1 1_555 1_555
H1 C2 1_555 1_555
C3 C2 1_555 1_555
H2 C3 1_555 1_555
C4 C3 1_555 1_555
C5 C4 1_555 1_555
H3 C5 1_555 1_555
C6 C4 1_555 1_555
H4 C6 1_555 1_555
Pb1D O2 1_555 1_555
Pb1F O1F 1_555 1_555
Pb1B O2F 1_555 1_555
O1F C1F 1_555 1_555
O1A Pb1 1_555 1_555
O2F Pb1F 1_555 1_555
O2A Pb1 1_555 1_555
O2D Pb1 1_555 1_555
O2E Pb1 1_555 1_555
C1F O2F 1_555 1_555
C2F C1F 1_555 1_555
H1F C2F 1_555 1_555
C3F C2F 1_555 1_555
H2F C3F 1_555 1_555
C4F C3F 1_555 1_555
C5F C6 1_555 1_555
H3F C5F 1_555 1_555
C6F C5 1_555 1_555
H4F C6F 1_555 1_555
Pb1D O2D 1_555 1_555
C4F C5F 1_555 1_555
C4F C6F 1_555 1_555

#END
