
#######################################################################
#
#                 Cambridge Crystallographic Data Centre
#                                CCDC 
#
#######################################################################
#
# If this CIF has been generated from an entry in the Cambridge 
# Structural Database, then it will include bibliographic, chemical, 
# crystal, experimental, refinement or atomic coordinate data resulting 
# from the CCDC's data processing and validation procedures.
#
#######################################################################

data_CUTKIM
_symmetry_cell_setting           monoclinic
_symmetry_space_group_name_H-M   'P 21/c'
_symmetry_Int_Tables_number      14
_space_group_name_Hall           '-P 2ybc'
loop_
_symmetry_equiv_pos_site_id
_symmetry_equiv_pos_as_xyz
1 x,y,z
2 -x,1/2+y,1/2-z
3 -x,-y,-z
4 x,1/2-y,1/2+z
_cell_length_a                   11.0351(10)
_cell_length_b                   23.458(2)
_cell_length_c                   15.7276(16)
_cell_angle_alpha                90
_cell_angle_beta                 101.759(2)
_cell_angle_gamma                90
_cell_volume                     3985.83
loop_
_atom_site_label
_atom_site_type_symbol
_atom_site_fract_x
_atom_site_fract_y
_atom_site_fract_z
Cd1 Cd 0.34451(3) 0.237007(11) 0.636876(18)
Cd2 Cd 0.13967(3) 0.213552(15) 0.40445(3)
N1 N 0.4949(3) 0.17056(14) 0.6002(2)
N2 N 0.5334(3) 0.23356(14) 0.7497(2)
N3 N -0.0057(3) 0.23045(14) 0.2750(3)
N4 N -0.0362(3) 0.15025(15) 0.3934(2)
O1 O 0.3969(3) 0.31000(11) 0.56147(17)
O2 O 0.3375(2) 0.24977(10) 0.45206(18)
O3 O 0.7636(2) 0.64537(10) 0.15742(17)
O4 O 0.7299(2) 0.71093(10) 0.25212(17)
O5 O 0.1345(3) 0.25079(10) 0.54349(18)
O6 O 0.0725(3) 0.30874(13) 0.4331(2)
O7 O -0.2600(3) 0.66476(11) 0.80799(19)
O8 O -0.2131(3) 0.62729(14) 0.9406(2)
C1 C 0.3777(3) 0.29716(15) 0.4822(3)
C2 C 0.4081(4) 0.34018(15) 0.4197(3)
H1 H 0.3819 0.3337 0.3604
C3 C 0.4713(4) 0.38723(16) 0.4460(3)
H2 H 0.4929 0.3927 0.5057
C4 C 0.5112(4) 0.43168(16) 0.3920(3)
C5 C 0.5877(4) 0.47545(17) 0.4329(3)
H3 H 0.6117 0.4756 0.4931
C6 C 0.4768(4) 0.43282(15) 0.3021(3)
H4 H 0.4253 0.4045 0.2734
C7 C 0.7237(3) 0.66100(15) 0.2242(2)
C8 C 0.6689(3) 0.61681(16) 0.2732(3)
H5 H 0.6553 0.6266 0.3278
C9 C 0.6383(4) 0.56450(16) 0.2444(3)
H6 H 0.6455 0.5557 0.1880
C10 C 0.5937(4) 0.51948(15) 0.2954(3)
C11 C 0.5181(4) 0.47558(15) 0.2550(3)
H7 H 0.4951 0.4751 0.1947
C12 C 0.6282(4) 0.51827(17) 0.3856(3)
H8 H 0.6793 0.5468 0.4143
C13 C 0.0915(3) 0.29836(16) 0.5123(3)
C14 C 0.0636(4) 0.34233(16) 0.5741(3)
H9 H 0.0859 0.3352 0.6334
C15 C 0.0083(4) 0.39105(17) 0.5477(3)
H10 H -0.0099 0.3971 0.4880
C16 C -0.0277(4) 0.43667(16) 0.6009(3)
C17 C 0.0104(4) 0.43980(16) 0.6907(3)
H11 H 0.0617 0.4115 0.7199
C18 C -0.0264(4) 0.48375(16) 0.7372(3)
H12 H 0.0004 0.4849 0.7972
C19 C -0.1040(4) 0.52704(16) 0.6952(3)
C20 C -0.1397(4) 0.52463(19) 0.6059(3)
H13 H -0.1891 0.5535 0.5767
C21 C -0.1034(4) 0.48025(19) 0.5594(3)
H14 H -0.1298 0.4793 0.4993
C22 C -0.2127(4) 0.62650(17) 0.8614(3)
C23 C -0.1518(4) 0.57822(17) 0.8250(3)
H15 H -0.1131 0.5501 0.8625
C24 C -0.1505(4) 0.57385(17) 0.7418(3)
H16 H -0.1836 0.6047 0.7077
C25 C 0.4755(4) 0.13919(19) 0.5286(3)
H17 H 0.4085 0.1481 0.4844
C26 C 0.5511(5) 0.0933(2) 0.5163(3)
H18 H 0.5337 0.0720 0.4654
C27 C 0.6507(5) 0.0804(2) 0.5802(4)
H19 H 0.7015 0.0498 0.5735
C28 C 0.6762(4) 0.11336(19) 0.6557(3)
C29 C 0.5942(4) 0.15837(17) 0.6640(3)
C30 C 0.6160(4) 0.19189(17) 0.7418(3)
C31 C 0.7224(4) 0.1817(2) 0.8070(3)
C32 C 0.7426(4) 0.2170(2) 0.8799(3)
H20 H 0.8115 0.2115 0.9242
C33 C 0.6618(5) 0.2592(2) 0.8858(3)
H21 H 0.6761 0.2838 0.9332
C34 C 0.5566(4) 0.26557(19) 0.8203(3)
H22 H 0.4998 0.2938 0.8266
C35 C 0.7806(4) 0.1031(2) 0.7245(4)
H23 H 0.8338 0.0730 0.7195
C36 C 0.8033(4) 0.1356(2) 0.7957(4)
H24 H 0.8729 0.1283 0.8388
C37 C 0.0066(6) 0.2715(2) 0.2204(5)
H25 H 0.0755 0.2952 0.2332
C38 C -0.0796(8) 0.2806(3) 0.1448(5)
H26 H -0.0682 0.3102 0.1080
C39 C -0.1789(7) 0.2473(3) 0.1241(4)
H27 H -0.2368 0.2537 0.0731
C40 C -0.1958(5) 0.2018(3) 0.1803(3)
C41 C -0.1058(4) 0.19602(18) 0.2557(3)
C42 C -0.1199(4) 0.15321(17) 0.3180(3)
C43 C -0.2220(5) 0.1155(2) 0.2986(4)
C44 C -0.2324(7) 0.0742(3) 0.3601(6)
H28 H -0.2978 0.0485 0.3492
C45 C -0.1497(8) 0.0712(3) 0.4344(6)
H29 H -0.1568 0.0434 0.4753
C46 C -0.0529(6) 0.1099(2) 0.4501(4)
H30 H 0.0033 0.1078 0.5028
C47 C -0.2972(6) 0.1634(4) 0.1633(5)
H31 H -0.3569 0.1672 0.1125
C48 C -0.3081(5) 0.1222(3) 0.2183(5)
H32 H -0.3739 0.0968 0.2044
Cd1B Cd 0.65549(3) 0.762993(11) 0.363124(18)
Cd1A Cd -0.34451(3) 0.737007(11) 0.863124(18)
Cd2A Cd 0.86033(3) 0.713552(15) 0.09555(3)
O3A O 0.2364(2) 0.14537(10) 0.34258(17)
O4B O 0.2701(2) 0.28907(10) 0.74788(17)
O7A O 0.2600(3) 0.16476(11) 0.69201(19)
O9 O 0.2063(4) 0.04192(13) 0.4359(2)
H33 H 0.2149 0.0659 0.3971
H34 H 0.2060 0.0602 0.4825
loop_
_geom_bond_atom_site_label_1
_geom_bond_atom_site_label_2
_geom_bond_site_symmetry_1
_geom_bond_site_symmetry_2
Cd1 N1 1_555 1_555
Cd2 N3 1_555 1_555
N1 C25 1_555 1_555
N2 Cd1 1_555 1_555
N3 C37 1_555 1_555
N4 Cd2 1_555 1_555
O1 Cd1 1_555 1_555
O2 Cd2 1_555 1_555
O3 C7 1_555 1_555
O4 C7 1_555 1_555
O5 Cd1 1_555 1_555
O6 Cd2 1_555 1_555
O7 C22 1_555 1_555
O8 C22 1_555 1_555
C1 O1 1_555 1_555
C2 C1 1_555 1_555
H1 C2 1_555 1_555
C3 C2 1_555 1_555
H2 C3 1_555 1_555
C4 C3 1_555 1_555
C5 C4 1_555 1_555
H3 C5 1_555 1_555
C6 C4 1_555 1_555
H4 C6 1_555 1_555
C7 C8 1_555 1_555
C8 H5 1_555 1_555
C9 C8 1_555 1_555
H6 C9 1_555 1_555
C10 C9 1_555 1_555
C11 C6 1_555 1_555
H7 C11 1_555 1_555
C12 C5 1_555 1_555
H8 C12 1_555 1_555
C13 O5 1_555 1_555
C14 C13 1_555 1_555
H9 C14 1_555 1_555
C15 C14 1_555 1_555
H10 C15 1_555 1_555
C16 C15 1_555 1_555
C17 C16 1_555 1_555
H11 C17 1_555 1_555
C18 C17 1_555 1_555
H12 C18 1_555 1_555
C19 C18 1_555 1_555
C20 C19 1_555 1_555
H13 C20 1_555 1_555
C21 C16 1_555 1_555
H14 C21 1_555 1_555
C22 C23 1_555 1_555
C23 H15 1_555 1_555
C24 C19 1_555 1_555
H16 C24 1_555 1_555
C25 H17 1_555 1_555
C26 C25 1_555 1_555
H18 C26 1_555 1_555
C27 C26 1_555 1_555
H19 C27 1_555 1_555
C28 C27 1_555 1_555
C29 N1 1_555 1_555
C30 N2 1_555 1_555
C31 C30 1_555 1_555
C32 C31 1_555 1_555
H20 C32 1_555 1_555
C33 C32 1_555 1_555
H21 C33 1_555 1_555
C34 N2 1_555 1_555
H22 C34 1_555 1_555
C35 C28 1_555 1_555
H23 C35 1_555 1_555
C36 C31 1_555 1_555
H24 C36 1_555 1_555
C37 H25 1_555 1_555
C38 C37 1_555 1_555
H26 C38 1_555 1_555
C39 C38 1_555 1_555
H27 C39 1_555 1_555
C40 C39 1_555 1_555
C41 N3 1_555 1_555
C42 N4 1_555 1_555
C43 C42 1_555 1_555
C44 C43 1_555 1_555
H28 C44 1_555 1_555
C45 C44 1_555 1_555
H29 C45 1_555 1_555
C46 N4 1_555 1_555
H30 C46 1_555 1_555
C47 C40 1_555 1_555
H31 C47 1_555 1_555
C48 C43 1_555 1_555
H32 C48 1_555 1_555
O9 H33 1_555 1_555
H34 O9 1_555 1_555
Cd1B O4 1_555 1_555
Cd1A O7 1_555 1_555
Cd2A O3 1_555 1_555
O3A Cd2 1_555 1_555
O4B Cd1 1_555 1_555
O7A Cd1 1_555 1_555
Cd2 O5 1_555 1_555
O2 C1 1_555 1_555
O6 C13 1_555 1_555
C10 C11 1_555 1_555
C10 C12 1_555 1_555
C20 C21 1_555 1_555
C23 C24 1_555 1_555
C28 C29 1_555 1_555
C29 C30 1_555 1_555
C33 C34 1_555 1_555
C35 C36 1_555 1_555
C40 C41 1_555 1_555
C41 C42 1_555 1_555
C45 C46 1_555 1_555
C47 C48 1_555 1_555

#END
