
#######################################################################
#
#                 Cambridge Crystallographic Data Centre
#                                CCDC 
#
#######################################################################
#
# If this CIF has been generated from an entry in the Cambridge 
# Structural Database, then it will include bibliographic, chemical, 
# crystal, experimental, refinement or atomic coordinate data resulting 
# from the CCDC's data processing and validation procedures.
#
#######################################################################

data_CUTKEI
_symmetry_cell_setting           orthorhombic
_symmetry_space_group_name_H-M   'F d d 2'
_symmetry_Int_Tables_number      43
_space_group_name_Hall           'F 2 -2d'
loop_
_symmetry_equiv_pos_site_id
_symmetry_equiv_pos_as_xyz
1 x,y,z
2 -x,-y,z
3 1/4-x,1/4+y,1/4+z
4 1/4+x,1/4-y,1/4+z
5 x,1/2+y,1/2+z
6 -x,1/2-y,1/2+z
7 1/4-x,3/4+y,3/4+z
8 1/4+x,3/4-y,3/4+z
9 1/2+x,y,1/2+z
10 1/2-x,-y,1/2+z
11 3/4-x,1/4+y,3/4+z
12 3/4+x,1/4-y,3/4+z
13 1/2+x,1/2+y,z
14 1/2-x,1/2-y,z
15 3/4-x,3/4+y,1/4+z
16 3/4+x,3/4-y,1/4+z
_cell_length_a                   19.891(3)
_cell_length_b                   24.552(5)
_cell_length_c                   29.286(6)
_cell_angle_alpha                90
_cell_angle_beta                 90
_cell_angle_gamma                90
_cell_volume                     14302.2
loop_
_atom_site_label
_atom_site_type_symbol
_atom_site_fract_x
_atom_site_fract_y
_atom_site_fract_z
Zn1 Zn 0.55886(5) 0.07967(5) 0.39311(5)
Zn2 Zn 0.56063(6) 0.18529(5) 0.45658(4)
O1 O 0.8232(3) 0.3421(3) 0.1390(2)
O2 O 0.6926(4) 0.3030(2) 0.2077(3)
O3 O 0.5956(3) 0.3976(3) 0.1641(3)
O4 O 0.7469(3) 0.4367(3) 0.0978(2)
O5 O 1.0899(4) 0.2651(6) 0.0391(3)
O6 O 1.0135(4) 0.2398(4) -0.0087(3)
O7 O 0.5943(3) 0.2134(2) 0.3997(2)
O8 O 0.5926(3) 0.1394(3) 0.3555(2)
O9 O 0.2812(3) 0.3984(3) 0.1893(3)
O10 O 0.2891(3) 0.3324(3) 0.1379(3)
O11 O 0.6293(6) 0.5773(5) -0.0617(3)
O12 O 0.6032(5) 0.6293(4) -0.0055(3)
C1 C 0.7108(3) 0.3728(3) 0.1541(3)
C2 C 0.7532(4) 0.3340(3) 0.1264(3)
H1 H 0.7396 0.2960 0.1327
H2 H 0.7469 0.3412 0.0934
C3 C 0.7130(4) 0.3587(3) 0.2052(3)
H3 H 0.7590 0.3634 0.2176
H4 H 0.6818 0.3822 0.2227
C4 C 0.6387(4) 0.3640(4) 0.1365(3)
H5 H 0.6353 0.3746 0.1040
H6 H 0.6258 0.3252 0.1395
C5 C 0.7332(4) 0.4313(3) 0.1462(3)
H7 H 0.6974 0.4570 0.1556
H8 H 0.7742 0.4393 0.1642
C6 C 0.8697(4) 0.3203(4) 0.1121(3)
C7 C 0.8587(4) 0.2900(4) 0.0738(3)
H9 H 0.8139 0.2801 0.0662
C8 C 0.9111(5) 0.2732(4) 0.0453(4)
H10 H 0.9012 0.2557 0.0172
C9 C 0.9765(4) 0.2816(4) 0.0576(3)
C10 C 0.9891(4) 0.3112(4) 0.0984(3)
H11 H 1.0342 0.3177 0.1078
C11 C 0.9362(5) 0.3308(5) 0.1248(4)
H12 H 0.9453 0.3513 0.1515
C12 C 1.0310(5) 0.2614(5) 0.0274(3)
C13 C 0.6722(5) 0.2805(3) 0.2478(3)
C14 C 0.6490(5) 0.2269(4) 0.2430(4)
H13 H 0.6487 0.2106 0.2136
C15 C 0.6270(5) 0.1981(3) 0.2792(3)
H14 H 0.6102 0.1622 0.2751
C16 C 0.6290(4) 0.2213(3) 0.3228(3)
C17 C 0.6519(5) 0.2740(4) 0.3280(3)
H15 H 0.6519 0.2904 0.3574
C18 C 0.6754(4) 0.3034(3) 0.2900(3)
H16 H 0.6933 0.3390 0.2937
C19 C 0.6044(4) 0.1887(3) 0.3629(3)
C20 C 0.5287(4) 0.3876(4) 0.1632(4)
C21 C 0.4962(5) 0.3504(4) 0.1338(4)
H17 H 0.5222 0.3291 0.1132
C22 C 0.4288(4) 0.3447(4) 0.1346(4)
H18 H 0.4077 0.3198 0.1142
C23 C 0.3907(4) 0.3741(4) 0.1642(4)
C24 C 0.4208(5) 0.4118(5) 0.1922(5)
H19 H 0.3937 0.4331 0.2121
C25 C 0.4885(5) 0.4194(5) 0.1922(4)
H20 H 0.5084 0.4459 0.2116
C26 C 0.3145(4) 0.3685(4) 0.1635(4)
C27 C 0.7184(4) 0.4760(3) 0.0715(3)
C28 C 0.7219(7) 0.4670(6) 0.0259(4)
H21 H 0.7417 0.4344 0.0147
C29 C 0.6965(7) 0.5054(7) -0.0046(4)
H22 H 0.6998 0.4995 -0.0366
C30 C 0.6664(6) 0.5522(5) 0.0120(4)
C31 C 0.6662(5) 0.5603(4) 0.0569(4)
H23 H 0.6461 0.5929 0.0678
C32 C 0.6929(4) 0.5251(3) 0.0888(3)
H24 H 0.6940 0.5336 0.1204
C33 C 0.6300(8) 0.5892(7) -0.0210(5)
O14 O 0.5761(6) 0.0172(3) 0.3524(5)
Zn1D Zn 0.55886(5) 0.57967(5) -0.10689(5)
Zn1J Zn 0.19114(5) 0.32967(5) 0.14311(5)
Zn2D Zn 0.56063(6) 0.68529(5) -0.04342(4)
Zn2H Zn 1.06063(6) 0.18529(5) -0.04342(4)
Zn2J Zn 0.18937(6) 0.43529(5) 0.20658(4)
O6H O 0.5135(4) 0.2398(4) 0.4913(3)
O9N O 0.4688(3) 0.1484(3) 0.4393(3)
O10N O 0.4609(3) 0.0824(3) 0.3879(3)
O11D O 0.6293(6) 0.0773(5) 0.4383(3)
O12D O 0.6032(5) 0.1293(4) 0.4945(3)
O13 O 0.5000 0.5000 0.0291(5)
loop_
_geom_bond_atom_site_label_1
_geom_bond_atom_site_label_2
_geom_bond_site_symmetry_1
_geom_bond_site_symmetry_2
Zn1 O8 1_555 1_555
Zn2 O7 1_555 1_555
O1 C2 1_555 1_555
O2 C3 1_555 1_555
O3 C4 1_555 1_555
O4 C5 1_555 1_555
O5 C12 1_555 1_555
O6 C12 1_555 1_555
O7 C19 1_555 1_555
O8 C19 1_555 1_555
O9 C26 1_555 1_555
O10 C26 1_555 1_555
O11 C33 1_555 1_555
O12 C33 1_555 1_555
C1 C2 1_555 1_555
C2 H1 1_555 1_555
H2 C2 1_555 1_555
C3 C1 1_555 1_555
H3 C3 1_555 1_555
H4 C3 1_555 1_555
C4 C1 1_555 1_555
H5 C4 1_555 1_555
H6 C4 1_555 1_555
C5 C1 1_555 1_555
H7 C5 1_555 1_555
H8 C5 1_555 1_555
C6 O1 1_555 1_555
C7 C6 1_555 1_555
H9 C7 1_555 1_555
C8 C7 1_555 1_555
H10 C8 1_555 1_555
C9 C8 1_555 1_555
C10 C9 1_555 1_555
H11 C10 1_555 1_555
C11 C6 1_555 1_555
H12 C11 1_555 1_555
C12 C9 1_555 1_555
C13 O2 1_555 1_555
C14 C13 1_555 1_555
H13 C14 1_555 1_555
C15 C14 1_555 1_555
H14 C15 1_555 1_555
C16 C15 1_555 1_555
C17 C16 1_555 1_555
H15 C17 1_555 1_555
C18 C13 1_555 1_555
H16 C18 1_555 1_555
C19 C16 1_555 1_555
C20 O3 1_555 1_555
C21 C20 1_555 1_555
H17 C21 1_555 1_555
C22 C21 1_555 1_555
H18 C22 1_555 1_555
C23 C22 1_555 1_555
C24 C23 1_555 1_555
H19 C24 1_555 1_555
C25 C20 1_555 1_555
H20 C25 1_555 1_555
C26 C23 1_555 1_555
C27 O4 1_555 1_555
C28 C27 1_555 1_555
H21 C28 1_555 1_555
C29 C28 1_555 1_555
H22 C29 1_555 1_555
C30 C29 1_555 1_555
C31 C30 1_555 1_555
H23 C31 1_555 1_555
C32 C27 1_555 1_555
H24 C32 1_555 1_555
C33 C30 1_555 1_555
O14 Zn1 1_555 1_555
Zn1D O11 1_555 1_555
Zn1J O10 1_555 1_555
Zn2D O12 1_555 1_555
Zn2H O6 1_555 1_555
Zn2J O9 1_555 1_555
O6H Zn2 1_555 1_555
O9N Zn2 1_555 1_555
O10N Zn1 1_555 1_555
O11D Zn1 1_555 1_555
O12D Zn2 1_555 1_555
C10 C11 1_555 1_555
C17 C18 1_555 1_555
C24 C25 1_555 1_555
C31 C32 1_555 1_555

#END
