
#######################################################################
#
#                 Cambridge Crystallographic Data Centre
#                                CCDC 
#
#######################################################################
#
# If this CIF has been generated from an entry in the Cambridge 
# Structural Database, then it will include bibliographic, chemical, 
# crystal, experimental, refinement or atomic coordinate data resulting 
# from the CCDC's data processing and validation procedures.
#
#######################################################################

data_CUTLIN
_symmetry_cell_setting           monoclinic
_symmetry_space_group_name_H-M   'P 21/n'
_symmetry_Int_Tables_number      14
_space_group_name_Hall           '-P 2yn'
loop_
_symmetry_equiv_pos_site_id
_symmetry_equiv_pos_as_xyz
1 x,y,z
2 1/2-x,1/2+y,1/2-z
3 -x,-y,-z
4 1/2+x,1/2-y,1/2+z
_cell_length_a                   14.774(3)
_cell_length_b                   8.0109(16)
_cell_length_c                   15.737(3)
_cell_angle_alpha                90
_cell_angle_beta                 109.92(3)
_cell_angle_gamma                90
_cell_volume                     1751.09
loop_
_atom_site_label
_atom_site_type_symbol
_atom_site_fract_x
_atom_site_fract_y
_atom_site_fract_z
Ag1 Ag 0.086187(18) 0.19773(3) 0.252001(14)
C1 C 0.1337(2) -0.1285(4) 0.3654(2)
H1 H 0.1361 -0.1673 0.3106
C2 C 0.1580(2) -0.2357(4) 0.4374(2)
H2 H 0.1760 -0.3451 0.4315
C3 C 0.1552(2) -0.1783(4) 0.5185(2)
H3 H 0.1729 -0.2476 0.5690
C4 C 0.12598(19) -0.0168(4) 0.52454(18)
H4 H 0.1230 0.0237 0.5789
C5 C 0.10120(16) 0.0841(3) 0.44906(16)
C6 C 0.06467(19) 0.2601(3) 0.44812(18)
H5 H 0.1040 0.3346 0.4267
H6 H -0.0007 0.2663 0.4058
C7 C 0.1499(2) 0.3798(3) 0.59283(17)
C8 C 0.1433(2) 0.4534(4) 0.6702(2)
H7 H 0.0848 0.4551 0.6802
C9 C 0.2239(3) 0.5238(4) 0.7320(2)
H8 H 0.2193 0.5738 0.7837
C10 C 0.3111(3) 0.5216(4) 0.7185(2)
H9 H 0.3651 0.5702 0.7605
C11 C 0.31752(19) 0.4458(3) 0.64158(17)
C12 C 0.23723(18) 0.3744(3) 0.57817(16)
H10 H 0.2419 0.3238 0.5266
C13 C 0.4214(2) 0.3659(4) 0.55901(18)
H11 H 0.4798 0.4075 0.5514
H12 H 0.3681 0.3905 0.5041
C14 C 0.42938(18) 0.1798(4) 0.57229(18)
C15 C 0.3780(2) 0.0710(5) 0.5049(2)
H13 H 0.3347 0.1108 0.4508
C16 C 0.3925(3) -0.0978(6) 0.5199(4)
H14 H 0.3596 -0.1738 0.4754
C17 C 0.4551(3) -0.1529(5) 0.5999(4)
H15 H 0.4645 -0.2666 0.6113
C18 C 0.5045(3) -0.0383(4) 0.6639(3)
H16 H 0.5476 -0.0767 0.7184
N1 N 0.10636(16) 0.0307(3) 0.37034(14)
N2 N 0.49279(17) 0.1267(3) 0.65062(16)
N3 N 0.2288(2) -0.0124(4) 0.18442(17)
O1 O 0.06591(14) 0.3157(3) 0.53405(14)
O2 O 0.40674(14) 0.4508(2) 0.63276(13)
O3 O 0.1425(2) -0.0083(7) 0.1533(2)
O4 O 0.2645(3) 0.0579(7) 0.2549(3)
O5 O 0.27766(17) -0.0889(3) 0.14755(15)
Ag1C Ag 0.586187(18) 0.30227(3) 0.752001(14)
Ag1A Ag 0.413813(18) -0.30227(3) 0.247999(14)
N2C N -0.00721(17) 0.3733(3) 0.15062(16)
O5A O 0.22234(17) 0.4111(3) 0.35245(15)
loop_
_geom_bond_atom_site_label_1
_geom_bond_atom_site_label_2
_geom_bond_site_symmetry_1
_geom_bond_site_symmetry_2
Ag1 N1 1_555 1_555
C1 H1 1_555 1_555
C2 C1 1_555 1_555
H2 C2 1_555 1_555
C3 C2 1_555 1_555
H3 C3 1_555 1_555
C4 C3 1_555 1_555
H4 C4 1_555 1_555
C5 C4 1_555 1_555
C6 C5 1_555 1_555
H5 C6 1_555 1_555
H6 C6 1_555 1_555
C7 C8 1_555 1_555
C8 H7 1_555 1_555
C9 C8 1_555 1_555
H8 C9 1_555 1_555
C10 C9 1_555 1_555
H9 C10 1_555 1_555
C11 C10 1_555 1_555
C12 C7 1_555 1_555
H10 C12 1_555 1_555
C13 H11 1_555 1_555
H12 C13 1_555 1_555
C14 C13 1_555 1_555
C15 C14 1_555 1_555
H13 C15 1_555 1_555
C16 C15 1_555 1_555
H14 C16 1_555 1_555
C17 C16 1_555 1_555
H15 C17 1_555 1_555
C18 C17 1_555 1_555
H16 C18 1_555 1_555
N1 C1 1_555 1_555
N2 C14 1_555 1_555
N3 O3 1_555 1_555
O1 C6 1_555 1_555
O2 C11 1_555 1_555
O3 Ag1 1_555 1_555
O4 N3 1_555 1_555
O5 N3 1_555 1_555
Ag1C N2 1_555 1_555
Ag1A O5 1_555 1_555
N2C Ag1 1_555 1_555
O5A Ag1 1_555 1_555
C5 N1 1_555 1_555
C7 O1 1_555 1_555
C11 C12 1_555 1_555
C13 O2 1_555 1_555
C18 N2 1_555 1_555

#END
