
#######################################################################
#
#                 Cambridge Crystallographic Data Centre
#                                CCDC 
#
#######################################################################
#
# If this CIF has been generated from an entry in the Cambridge 
# Structural Database, then it will include bibliographic, chemical, 
# crystal, experimental, refinement or atomic coordinate data resulting 
# from the CCDC's data processing and validation procedures.
#
#######################################################################

data_CUTMEK
_symmetry_cell_setting           monoclinic
_symmetry_space_group_name_H-M   'P 21/c'
_symmetry_Int_Tables_number      14
_space_group_name_Hall           '-P 2ybc'
loop_
_symmetry_equiv_pos_site_id
_symmetry_equiv_pos_as_xyz
1 x,y,z
2 -x,1/2+y,1/2-z
3 -x,-y,-z
4 x,1/2-y,1/2+z
_cell_length_a                   8.7756(18)
_cell_length_b                   16.381(3)
_cell_length_c                   14.364(3)
_cell_angle_alpha                90
_cell_angle_beta                 93.67(3)
_cell_angle_gamma                90
_cell_volume                     2060.64
loop_
_atom_site_label
_atom_site_type_symbol
_atom_site_fract_x
_atom_site_fract_y
_atom_site_fract_z
N3 N 1.0515(19) 0.0099(9) 0.9181(9)
C19 C 1.1354(15) -0.0073(13) 0.9908(13)
H17 H 1.2394 -0.0159 0.9861
C20 C 0.9217(19) 0.0129(9) 0.9292(10)
H18 H 0.8548 0.0198 0.8769
C21 C 1.0515(19) 0.0099(9) 0.9181(9)
C19B C 0.8646(15) 0.0073(13) 1.0092(13)
C20B C 1.0783(19) -0.0129(9) 1.0708(10)
C1 C 0.4894(4) 0.0466(2) 0.3094(3)
H1 H 0.5012 0.0301 0.3714
C2 C 0.5536(5) -0.0002(3) 0.2428(3)
H2 H 0.6058 -0.0479 0.2596
C3 C 0.5398(7) 0.0240(3) 0.1521(3)
H3 H 0.5835 -0.0063 0.1060
C4 C 0.4599(7) 0.0942(3) 0.1301(3)
H4 H 0.4507 0.1122 0.0685
C5 C 0.3934(4) 0.1382(2) 0.1983(2)
C6 C 0.3007(4) 0.2125(2) 0.1753(3)
H5 H 0.3386 0.2584 0.2127
H6 H 0.3059 0.2265 0.1099
C7 C 0.0433(4) 0.2569(3) 0.1865(3)
C8 C 0.0803(5) 0.3348(2) 0.1637(3)
H7 H 0.1804 0.3484 0.1524
C9 C -0.0345(5) 0.3942(3) 0.1577(3)
C10 C -0.1826(5) 0.3748(3) 0.1747(4)
H8 H -0.2580 0.4148 0.1711
C11 C -0.2187(6) 0.2950(3) 0.1973(4)
H9 H -0.3187 0.2818 0.2093
C12 C -0.1066(5) 0.2343(3) 0.2024(4)
H10 H -0.1308 0.1805 0.2158
C13 C -0.0922(4) 0.5337(2) 0.1250(3)
H11 H -0.1378 0.5419 0.1841
H12 H -0.1728 0.5201 0.0782
C14 C -0.0128(4) 0.6090(2) 0.0978(3)
C15 C 0.1400(5) 0.6106(3) 0.0787(3)
H13 H 0.1974 0.5629 0.0819
C16 C 0.2059(5) 0.6829(3) 0.0553(4)
H14 H 0.3084 0.6845 0.0423
C17 C 0.1202(5) 0.7525(3) 0.0510(4)
H15 H 0.1636 0.8022 0.0361
Cl1 Cl 0.40833(14) 0.30797(5) 0.39349(8)
Cl2 Cl 0.41996(11) 0.11269(6) 0.52803(6)
N1 N 0.4103(3) 0.11509(15) 0.28858(19)
N2 N -0.0987(3) 0.67689(17) 0.0916(2)
O1 O 0.1479(3) 0.19423(16) 0.1951(2)
O2 O 0.0152(3) 0.47003(17) 0.1331(2)
Zn1 Zn 0.33010(4) 0.17911(2) 0.39930(3)
C18 C -0.0319(4) 0.7478(3) 0.0694(3)
H16 H -0.0905 0.7951 0.0663
N2A N 0.0987(3) 0.17689(17) 0.4084(2)
Zn1A Zn -0.33010(4) 0.67911(2) 0.10070(3)
loop_
_geom_bond_atom_site_label_1
_geom_bond_atom_site_label_2
_geom_bond_site_symmetry_1
_geom_bond_site_symmetry_2
C1 H1 1_555 1_555
C2 C1 1_555 1_555
H2 C2 1_555 1_555
C3 C2 1_555 1_555
H3 C3 1_555 1_555
C4 C3 1_555 1_555
H4 C4 1_555 1_555
C5 C4 1_555 1_555
C6 C5 1_555 1_555
H5 C6 1_555 1_555
H6 C6 1_555 1_555
C7 C8 1_555 1_555
C8 H7 1_555 1_555
C9 C8 1_555 1_555
C10 C9 1_555 1_555
H8 C10 1_555 1_555
C11 C10 1_555 1_555
H9 C11 1_555 1_555
C12 C7 1_555 1_555
H10 C12 1_555 1_555
C13 H11 1_555 1_555
H12 C13 1_555 1_555
C14 C13 1_555 1_555
C15 C14 1_555 1_555
H13 C15 1_555 1_555
C16 C15 1_555 1_555
H14 C16 1_555 1_555
C17 C16 1_555 1_555
H15 C17 1_555 1_555
Cl1 Zn1 1_555 1_555
Cl2 Zn1 1_555 1_555
N1 C1 1_555 1_555
N2 C14 1_555 1_555
O1 C6 1_555 1_555
O2 C9 1_555 1_555
Zn1 N1 1_555 1_555
N3 C19 1_555 1_555
C18 C17 1_555 1_555
H16 C18 1_555 1_555
C19 H17 1_555 1_555
C20 N3 1_555 1_555
H18 C20 1_555 1_555
C21 C19 1_555 1_555
N2A Zn1 1_555 1_555
Zn1A N2 1_555 1_555
C19B C20 1_555 1_555
C20B C19 1_555 1_555
C5 N1 1_555 1_555
C7 O1 1_555 1_555
C11 C12 1_555 1_555
C13 O2 1_555 1_555
N2 C18 1_555 1_555
C20 C21 1_555 1_555

#END
