
#######################################################################
#
#                 Cambridge Crystallographic Data Centre
#                                CCDC 
#
#######################################################################
#
# If this CIF has been generated from an entry in the Cambridge 
# Structural Database, then it will include bibliographic, chemical, 
# crystal, experimental, refinement or atomic coordinate data resulting 
# from the CCDC's data processing and validation procedures.
#
#######################################################################

data_CUTMIO
_symmetry_cell_setting           orthorhombic
_symmetry_space_group_name_H-M   'P n m a'
_symmetry_Int_Tables_number      62
_space_group_name_Hall           '-P 2ac 2n'
loop_
_symmetry_equiv_pos_site_id
_symmetry_equiv_pos_as_xyz
1 x,y,z
2 1/2-x,-y,1/2+z
3 -x,1/2+y,-z
4 1/2+x,1/2-y,1/2-z
5 -x,-y,-z
6 1/2+x,y,1/2-z
7 x,1/2-y,z
8 1/2-x,1/2+y,1/2+z
_cell_length_a                   28.506(6)
_cell_length_b                   17.416(4)
_cell_length_c                   7.0616(14)
_cell_angle_alpha                90
_cell_angle_beta                 90
_cell_angle_gamma                90
_cell_volume                     3505.81
loop_
_atom_site_label
_atom_site_type_symbol
_atom_site_fract_x
_atom_site_fract_y
_atom_site_fract_z
N1 N 0.36058(15) 0.1175(2) 0.5251(7)
C9 C 0.23650(15) -0.1818(2) 0.5322(7)
C12 C 0.38294(18) 0.0633(3) 0.4293(8)
H11 H 0.4119 0.0752 0.3764
C13 C 0.36536(17) -0.0100(2) 0.4037(8)
H12 H 0.3822 -0.0460 0.3342
C14 C 0.32273(15) -0.0290(2) 0.4822(7)
C15 C 0.29931(17) 0.0268(2) 0.5829(8)
H13 H 0.2705 0.0164 0.6390
C16 C 0.31957(18) 0.0986(3) 0.5987(9)
H14 H 0.3033 0.1360 0.6656
C17 C 0.30514(16) -0.1094(2) 0.4630(8)
H15 H 0.3102 -0.1275 0.3347
H16 H 0.3221 -0.1429 0.5487
C18 C 0.2591(2) -0.2500 0.4932(10)
H17 H 0.2891 -0.2500 0.4415
C19 C 0.1698(2) -0.2500 0.6405(12)
H18 H 0.1397 -0.2500 0.6910
C20 C 0.19162(16) -0.1816(3) 0.6040(8)
H19 H 0.1763 -0.1354 0.6275
O2 O 0.25655(11) -0.11124(16) 0.5063(6)
N1F N 0.36058(15) -0.6175(2) 0.5251(7)
C9F C 0.23650(15) -0.3182(2) 0.5322(7)
C12F C 0.38294(18) -0.5633(3) 0.4293(8)
H11F H 0.4119 -0.5752 0.3764
C13F C 0.36536(17) -0.4900(2) 0.4037(8)
H12F H 0.3822 -0.4540 0.3342
C14F C 0.32273(15) -0.4710(2) 0.4822(7)
C15F C 0.29931(17) -0.5268(2) 0.5829(8)
H13F H 0.2705 -0.5164 0.6390
C16F C 0.31957(18) -0.5986(3) 0.5987(9)
H14F H 0.3033 -0.6360 0.6656
C17F C 0.30514(16) -0.3906(2) 0.4630(8)
H15F H 0.3102 -0.3725 0.3347
H16F H 0.3221 -0.3571 0.5487
C20F C 0.19162(16) -0.3184(3) 0.6040(8)
H19F H 0.1763 -0.3646 0.6275
O2F O 0.25655(11) -0.38876(16) 0.5063(6)
H1 H 0.3882(18) 0.213(2) 0.598(7)
C1 C 0.49149(15) 0.0664(2) 0.7341(7)
H2 H 0.5193 0.0768 0.6702
C2 C 0.47789(16) -0.0092(2) 0.7562(7)
H3 H 0.4967 -0.0485 0.7097
C3 C 0.43643(14) -0.0265(2) 0.8471(6)
C4 C 0.41108(16) 0.0338(2) 0.9209(7)
H4 H 0.3835 0.0248 0.9878
C5 C 0.42709(16) 0.1079(2) 0.8943(7)
H5 H 0.4095 0.1480 0.9445
C6 C 0.42130(16) -0.1085(2) 0.8647(8)
H6 H 0.4254 -0.1346 0.7445
H7 H 0.4404 -0.1345 0.9587
C7 C 0.35271(15) -0.1819(2) 0.9315(7)
C8 C 0.3772(2) -0.2500 0.9158(10)
H8 H 0.4094 -0.2500 0.8950
C10 C 0.2809(2) -0.2500 0.9710(11)
H9 H 0.2486 -0.2500 0.9883
C11 C 0.30485(15) -0.1810(2) 0.9583(7)
H10 H 0.2888 -0.1346 0.9676
Cd1 Cd 0.480075(16) 0.2500 0.70308(8)
N2 N 0.46620(12) 0.12533(17) 0.8011(6)
N3 N 0.4816(2) 0.2500 0.2834(10)
N4 N 0.5838(2) 0.2500 0.6390(9)
O1 O 0.37371(10) -0.11082(14) 0.9190(5)
O3 O 0.5617(2) 0.1933(3) 0.6716(9)
O4 O 0.6226(2) 0.2500 0.5877(12)
O5 O 0.48104(14) 0.1903(2) 0.3752(7)
O6 O 0.4864(2) 0.2500 0.1122(13)
O7 O 0.40073(17) 0.2500 0.6554(8)
H1F H 0.3882(18) 0.287(2) 0.598(7)
C1F C 0.49149(15) -0.5664(2) 0.7341(7)
H2F H 0.5193 -0.5768 0.6702
C2F C 0.47789(16) -0.4908(2) 0.7562(7)
H3F H 0.4967 -0.4515 0.7097
C3F C 0.43643(14) -0.4735(2) 0.8471(6)
C4F C 0.41108(16) -0.5338(2) 0.9209(7)
H4F H 0.3835 -0.5248 0.9878
C5F C 0.42709(16) -0.6079(2) 0.8943(7)
H5F H 0.4095 -0.6480 0.9445
C6F C 0.42130(16) -0.3915(2) 0.8647(8)
H6F H 0.4254 -0.3654 0.7445
H7F H 0.4404 -0.3655 0.9587
C7F C 0.35271(15) -0.3181(2) 0.9315(7)
C11F C 0.30485(15) -0.3190(2) 0.9583(7)
H10F H 0.2888 -0.3654 0.9676
Cd1_2 Cd 0.480075(16) -0.7500 0.70308(8)
N2F N 0.46620(12) -0.62533(17) 0.8011(6)
N2F_2 N 0.46620(12) 0.37467(17) 0.8011(6)
O1F O 0.37371(10) -0.38918(14) 0.9190(5)
O3F O 0.5617(2) 0.3067(3) 0.6716(9)
O5F O 0.48104(14) 0.3097(2) 0.3752(7)
loop_
_geom_bond_atom_site_label_1
_geom_bond_atom_site_label_2
_geom_bond_site_symmetry_1
_geom_bond_site_symmetry_2
N1 C12 1_555 1_555
H1 O7 1_555 1_555
C1 H2 1_555 1_555
C2 C1 1_555 1_555
H3 C2 1_555 1_555
C3 C2 1_555 1_555
C4 C3 1_555 1_555
H4 C4 1_555 1_555
C5 C4 1_555 1_555
H5 C5 1_555 1_555
C6 C3 1_555 1_555
H6 C6 1_555 1_555
H7 C6 1_555 1_555
C7 C8 1_555 1_555
C8 H8 1_555 1_555
C9 C18 1_555 1_555
C10 H9 1_555 1_555
C11 C7 1_555 1_555
H10 C11 1_555 1_555
C12 H11 1_555 1_555
C13 C12 1_555 1_555
H12 C13 1_555 1_555
C14 C13 1_555 1_555
C15 C14 1_555 1_555
H13 C15 1_555 1_555
C16 N1 1_555 1_555
H14 C16 1_555 1_555
C17 C14 1_555 1_555
H15 C17 1_555 1_555
H16 C17 1_555 1_555
C18 H17 1_555 1_555
C19 H18 1_555 1_555
C20 C9 1_555 1_555
H19 C20 1_555 1_555
Cd1 N2 1_555 1_555
N2 C1 1_555 1_555
N3 O5 1_555 1_555
N4 O3 1_555 1_555
O1 C6 1_555 1_555
O2 C9 1_555 1_555
O3 Cd1 1_555 1_555
O4 N4 1_555 1_555
O5 Cd1 1_555 1_555
O6 N3 1_555 1_555
O7 Cd1 1_555 1_555
N1F C12F 1_555 1_555
H1F O7 1_555 1_555
C1F H2F 1_555 1_555
C2F C1F 1_555 1_555
H3F C2F 1_555 1_555
C3F C2F 1_555 1_555
C4F C3F 1_555 1_555
H4F C4F 1_555 1_555
C5F C4F 1_555 1_555
H5F C5F 1_555 1_555
C6F C3F 1_555 1_555
H6F C6F 1_555 1_555
H7F C6F 1_555 1_555
C7F C8 1_555 1_555
C9F C18 1_555 1_555
C11F C10 1_555 1_555
H10F C11F 1_555 1_555
C12F H11F 1_555 1_555
C13F C12F 1_555 1_555
H12F C13F 1_555 1_555
C14F C13F 1_555 1_555
C15F C14F 1_555 1_555
H13F C15F 1_555 1_555
C16F N1F 1_555 1_555
H14F C16F 1_555 1_555
C17F C14F 1_555 1_555
H15F C17F 1_555 1_555
H16F C17F 1_555 1_555
C20F C19 1_555 1_555
H19F C20F 1_555 1_555
Cd1_2 N2F 1_555 1_555
N2F C1F 1_555 1_555
N2F_2 Cd1 1_555 1_555
O1F C6F 1_555 1_555
O2F C9F 1_555 1_555
O3F Cd1 1_555 1_555
O5F Cd1 1_555 1_555
C5 N2 1_555 1_555
C7 O1 1_555 1_555
C10 C11 1_555 1_555
C15 C16 1_555 1_555
C17 O2 1_555 1_555
C19 C20 1_555 1_555
N3 O5F 1_555 1_555
N4 O3F 1_555 1_555
C5F N2F 1_555 1_555
C7F C11F 1_555 1_555
C7F O1F 1_555 1_555
C9F C20F 1_555 1_555
C15F C16F 1_555 1_555
C17F O2F 1_555 1_555

#END
