
#######################################################################
#
#                 Cambridge Crystallographic Data Centre
#                                CCDC 
#
#######################################################################
#
# If this CIF has been generated from an entry in the Cambridge 
# Structural Database, then it will include bibliographic, chemical, 
# crystal, experimental, refinement or atomic coordinate data resulting 
# from the CCDC's data processing and validation procedures.
#
#######################################################################

data_CUTMSO10
_symmetry_cell_setting           orthorhombic
_symmetry_space_group_name_H-M   'P b c a'
_symmetry_Int_Tables_number      61
_space_group_name_Hall           '-P 2ac 2ab'
loop_
_symmetry_equiv_pos_site_id
_symmetry_equiv_pos_as_xyz
1 x,y,z
2 1/2-x,-y,1/2+z
3 1/2+x,1/2-y,-z
4 -x,1/2+y,1/2-z
5 -x,-y,-z
6 1/2+x,y,1/2-z
7 1/2-x,1/2+y,z
8 x,1/2-y,1/2+z
_cell_length_a                   13.844(10)
_cell_length_b                   6.418(12)
_cell_length_c                   17.480(16)
_cell_angle_alpha                90
_cell_angle_beta                 90
_cell_angle_gamma                90
_cell_volume                     1553.11
loop_
_atom_site_label
_atom_site_type_symbol
_atom_site_fract_x
_atom_site_fract_y
_atom_site_fract_z
Cu1 Cu 0.25020 0.23790 0.05700
Cl1 Cl 0.12720 0.48350 0.05440
Cl2 Cl 0.33580 0.43940 0.13800
S1 S 0.09560 0.10370 -0.06200
O1 O 0.20340 0.09910 -0.03660
C1 C 0.11050 -0.06240 -0.20250
C2 C 0.08820 -0.12700 -0.12090
C3 C 0.12530 0.13880 -0.21180
C4 C 0.09760 0.27570 -0.14400
Cl1F Cl 0.37280 -0.01650 0.05440
Cl2F Cl 0.16420 -0.06060 0.13800
Cu1F Cu 0.24980 0.73790 0.05700
Cu1F_2 Cu 0.24980 -0.26210 0.05700
Cl1F_2 Cl 0.37280 0.98350 0.05440
Cl2F_2 Cl 0.16420 0.93940 0.13800
O1F O 0.29660 0.59910 -0.03660
S1F S 0.40440 0.60370 -0.06200
C2F C 0.41180 0.37300 -0.12090
C4F C 0.40240 0.77570 -0.14400
C1F C 0.38950 0.43760 -0.20250
C3F C 0.37470 0.63880 -0.21180
loop_
_geom_bond_atom_site_label_1
_geom_bond_atom_site_label_2
_geom_bond_site_symmetry_1
_geom_bond_site_symmetry_2
Cu1 Cl1 1_555 1_555
Cl1 Cu1F 1_555 1_555
Cl2 Cu1 1_555 1_555
S1 O1 1_555 1_555
O1 Cu1 1_555 1_555
C1 C2 1_555 1_555
C2 S1 1_555 1_555
C3 C1 1_555 1_555
C4 S1 1_555 1_555
Cl1F Cu1 1_555 1_555
Cl2F Cu1 1_555 1_555
Cu1F Cl2 1_555 1_555
Cu1F_2 Cl1F 1_555 1_555
Cl1F_2 Cu1F 1_555 1_555
Cl2F_2 Cu1F 1_555 1_555
O1F Cu1F 1_555 1_555
S1F O1F 1_555 1_555
C2F S1F 1_555 1_555
C4F S1F 1_555 1_555
C1F C2F 1_555 1_555
C3F C4F 1_555 1_555
C3 C4 1_555 1_555
Cl2F Cu1F_2 1_555 1_555
C1F C3F 1_555 1_555

#END
