
#######################################################################
#
#                 Cambridge Crystallographic Data Centre
#                                CCDC 
#
#######################################################################
#
# If this CIF has been generated from an entry in the Cambridge 
# Structural Database, then it will include bibliographic, chemical, 
# crystal, experimental, refinement or atomic coordinate data resulting 
# from the CCDC's data processing and validation procedures.
#
#######################################################################

data_CUTMAG
_symmetry_cell_setting           monoclinic
_symmetry_space_group_name_H-M   'P 21/c'
_symmetry_Int_Tables_number      14
_space_group_name_Hall           '-P 2ybc'
loop_
_symmetry_equiv_pos_site_id
_symmetry_equiv_pos_as_xyz
1 x,y,z
2 -x,1/2+y,1/2-z
3 -x,-y,-z
4 x,1/2-y,1/2+z
_cell_length_a                   13.040(3)
_cell_length_b                   8.8214(18)
_cell_length_c                   16.590(3)
_cell_angle_alpha                90
_cell_angle_beta                 102.43(3)
_cell_angle_gamma                90
_cell_volume                     1863.63
loop_
_atom_site_label
_atom_site_type_symbol
_atom_site_fract_x
_atom_site_fract_y
_atom_site_fract_z
C1 C -0.3164(11) 0.8861(16) 0.7310(9)
H1 H -0.3842 0.8622 0.7031
C2 C -0.2948(12) 1.0303(16) 0.7517(9)
H2 H -0.3467 1.1041 0.7393
C3 C -0.1943(12) 1.0680(17) 0.7917(9)
H3 H -0.1769 1.1673 0.8079
C4 C -0.1192(10) 0.9529(14) 0.8072(8)
H4 H -0.0497 0.9767 0.8307
C5 C -0.1460(9) 0.8087(13) 0.7887(6)
C6 C -0.0692(8) 0.6808(13) 0.8074(7)
H5 H -0.0534 0.6416 0.7568
H6 H -0.0043 0.7154 0.8429
C7 C -0.0542(10) 0.4498(12) 0.8895(7)
C8 C -0.1090(12) 0.3535(15) 0.9323(8)
H7 H -0.1798 0.3678 0.9316
C9 C -0.0536(13) 0.2386(15) 0.9747(8)
H8 H -0.0882 0.1723 1.0034
C10 C 0.0539(11) 0.2140(14) 0.9776(7)
H9 H 0.0901 0.1332 1.0067
C11 C 0.1019(10) 0.3146(13) 0.9357(6)
C12 C 0.0487(10) 0.4309(12) 0.8877(7)
H10 H 0.0820 0.4928 0.8559
C13 C 0.2688(10) 0.2024(17) 0.9927(8)
H11 H 0.2443 0.0993 0.9810
H12 H 0.2616 0.2283 1.0481
C14 C 0.3824(11) 0.2158(14) 0.9864(8)
C15 C 0.4553(15) 0.289(2) 1.0470(10)
H13 H 0.4350 0.3351 1.0915
C16 C 0.5604(18) 0.292(2) 1.0397(15)
H14 H 0.6114 0.3414 1.0788
C17 C 0.5854(12) 0.222(2) 0.9741(13)
H15 H 0.6551 0.2207 0.9690
C18 C 0.5128(10) 0.1537(18) 0.9166(9)
H16 H 0.5328 0.1083 0.8718
Cl1 Cl -0.4142(3) 0.4389(5) 0.7766(3)
Cl2 Cl -0.1749(3) 0.3789(4) 0.6449(2)
Hg1 Hg -0.29372(3) 0.53356(5) 0.69853(3)
N1 N -0.2458(7) 0.7730(10) 0.7480(5)
N2 N 0.4114(8) 0.1491(11) 0.9219(6)
O1 O -0.1167(6) 0.5657(9) 0.8479(5)
O2 O 0.2093(7) 0.3032(11) 0.9348(5)
N2A N -0.4114(8) 0.6491(11) 0.5781(6)
Hg1A Hg 0.29372(3) 0.03356(5) 0.80147(3)
O3 O 0.2940(6) 0.4664(10) 0.9615(5)
O4 O 0.7056(6) 0.9677(9) 0.8719(5)
loop_
_geom_bond_atom_site_label_1
_geom_bond_atom_site_label_2
_geom_bond_site_symmetry_1
_geom_bond_site_symmetry_2
C1 H1 1_555 1_555
C2 C1 1_555 1_555
H2 C2 1_555 1_555
C3 C2 1_555 1_555
H3 C3 1_555 1_555
C4 C3 1_555 1_555
H4 C4 1_555 1_555
C5 C4 1_555 1_555
C6 C5 1_555 1_555
H5 C6 1_555 1_555
H6 C6 1_555 1_555
C7 C8 1_555 1_555
C8 H7 1_555 1_555
C9 C8 1_555 1_555
H8 C9 1_555 1_555
C10 C9 1_555 1_555
H9 C10 1_555 1_555
C11 C10 1_555 1_555
C12 C7 1_555 1_555
H10 C12 1_555 1_555
C13 H11 1_555 1_555
H12 C13 1_555 1_555
C14 C13 1_555 1_555
C15 C14 1_555 1_555
H13 C15 1_555 1_555
C16 C15 1_555 1_555
H14 C16 1_555 1_555
C17 C16 1_555 1_555
H15 C17 1_555 1_555
C18 C17 1_555 1_555
H16 C18 1_555 1_555
Cl1 Hg1 1_555 1_555
Cl2 Hg1 1_555 1_555
Hg1 N1 1_555 1_555
N1 C1 1_555 1_555
N2 C14 1_555 1_555
O1 C6 1_555 1_555
O2 C11 1_555 1_555
N2A Hg1 1_555 1_555
Hg1A N2 1_555 1_555
C5 N1 1_555 1_555
C7 O1 1_555 1_555
C11 C12 1_555 1_555
C13 O2 1_555 1_555
C18 N2 1_555 1_555

#END
