
#######################################################################
#
#                 Cambridge Crystallographic Data Centre
#                                CCDC 
#
#######################################################################
#
# If this CIF has been generated from an entry in the Cambridge 
# Structural Database, then it will include bibliographic, chemical, 
# crystal, experimental, refinement or atomic coordinate data resulting 
# from the CCDC's data processing and validation procedures.
#
#######################################################################

data_CUTNOV
_symmetry_cell_setting           monoclinic
_symmetry_space_group_name_H-M   'P 21/c'
_symmetry_Int_Tables_number      14
_space_group_name_Hall           '-P 2ybc'
loop_
_symmetry_equiv_pos_site_id
_symmetry_equiv_pos_as_xyz
1 x,y,z
2 -x,1/2+y,1/2-z
3 -x,-y,-z
4 x,1/2-y,1/2+z
_cell_length_a                   7.203(3)
_cell_length_b                   19.175(7)
_cell_length_c                   10.141(4)
_cell_angle_alpha                90
_cell_angle_beta                 106.756(7)
_cell_angle_gamma                90
_cell_volume                     1341.18
loop_
_atom_site_label
_atom_site_type_symbol
_atom_site_fract_x
_atom_site_fract_y
_atom_site_fract_z
Ag1 Ag 1.02604(5) 0.284698(17) 0.66490(4)
O1 O 1.2904(5) 0.34385(17) 0.8021(4)
O2 O 1.0528(5) 0.39763(18) 0.8581(4)
N1 N 0.8053(5) 0.30864(17) 0.4632(3)
N2 N 0.8677(5) 0.67852(17) 0.7336(3)
N3 N 1.6231(10) 0.4095(4) 0.8459(8)
H1 H 1.7391 0.4142 0.8399
H2 H 1.5495 0.3770 0.8008
C1 C 0.7588(7) 0.2531(2) 0.3784(5)
H3 H 0.8062 0.2096 0.4130
C2 C 0.6461(6) 0.2569(2) 0.2444(4)
H4 H 0.6167 0.2171 0.1900
C3 C 0.5779(6) 0.3211(2) 0.1928(4)
H5 H 0.5024 0.3257 0.1019
C4 C 0.6222(6) 0.3783(2) 0.2769(4)
H6 H 0.5764 0.4220 0.2427
C5 C 0.7345(5) 0.3716(2) 0.4121(4)
C6 C 0.7852(5) 0.4310(2) 0.5088(4)
H7 H 0.8612 0.4217 0.5981
C7 C 0.7307(6) 0.4964(2) 0.4781(4)
H8 H 0.6547 0.5048 0.3885
C8 C 0.7768(5) 0.55717(19) 0.5698(4)
C9 C 0.7123(6) 0.6230(2) 0.5173(4)
H9 H 0.6378 0.6279 0.4261
C10 C 0.7595(6) 0.6806(2) 0.6010(4)
H10 H 0.7139 0.7238 0.5636
C11 C 0.9262(6) 0.6149(2) 0.7839(4)
H11 H 0.9995 0.6116 0.8757
C12 C 0.8848(6) 0.5543(2) 0.7087(4)
H12 H 0.9283 0.5117 0.7499
C13 C 1.2251(6) 0.3930(2) 0.8587(4)
C14 C 1.3691(6) 0.4479(2) 0.9306(4)
C15 C 1.5606(6) 0.4505(2) 0.9211(4)
C16 C 1.6874(6) 0.5016(2) 0.9906(4)
H13 H 1.8137 0.5021 0.9843
Ag1B Ag 1.97396(5) 0.715302(17) 1.33510(4)
Ag1A Ag 0.97396(5) 0.784698(17) 0.83510(4)
Ag1C Ag 2.02604(5) 0.215302(17) 1.16490(4)
O1B O 1.7096(5) 0.65615(17) 1.1979(4)
O2B O 1.9472(5) 0.60237(18) 1.1419(4)
N1B N 2.1947(5) 0.69136(17) 1.5368(3)
N2B N 2.1323(5) 0.32148(17) 1.2664(3)
N2A N 1.1323(5) 0.17852(17) 0.7664(3)
N2C N 1.8677(5) 0.82148(17) 1.2336(3)
N3B N 1.3769(10) 0.5905(4) 1.1541(8)
H1B H 1.2609 0.5858 1.1601
H2B H 1.4505 0.6230 1.1992
C1B C 2.2412(7) 0.7469(2) 1.6216(5)
H3B H 2.1938 0.7904 1.5870
C2B C 2.3539(6) 0.7431(2) 1.7556(4)
H4B H 2.3833 0.7829 1.8100
C3B C 2.4221(6) 0.6789(2) 1.8072(4)
H5B H 2.4976 0.6743 1.8981
C4B C 2.3778(6) 0.6217(2) 1.7231(4)
H6B H 2.4236 0.5780 1.7573
C5B C 2.2655(5) 0.6284(2) 1.5879(4)
C6B C 2.2148(5) 0.5690(2) 1.4912(4)
H7B H 2.1388 0.5783 1.4019
C7B C 2.2693(6) 0.5036(2) 1.5219(4)
H8B H 2.3453 0.4952 1.6115
C8B C 2.2232(5) 0.44283(19) 1.4302(4)
C9B C 2.2877(6) 0.3770(2) 1.4827(4)
H9B H 2.3622 0.3721 1.5739
C10B C 2.2405(6) 0.3194(2) 1.3990(4)
H10B H 2.2861 0.2762 1.4364
C11B C 2.0738(6) 0.3851(2) 1.2161(4)
H11B H 2.0005 0.3884 1.1243
C12B C 2.1152(6) 0.4457(2) 1.2913(4)
H12B H 2.0717 0.4883 1.2501
C13B C 1.7749(6) 0.6070(2) 1.1413(4)
C14B C 1.6309(6) 0.5521(2) 1.0694(4)
C15B C 1.4394(6) 0.5495(2) 1.0789(4)
C16B C 1.3126(6) 0.4984(2) 1.0094(4)
H13B H 1.1863 0.4979 1.0157
loop_
_geom_bond_atom_site_label_1
_geom_bond_atom_site_label_2
_geom_bond_site_symmetry_1
_geom_bond_site_symmetry_2
Ag1 O1 1_555 1_555
O1 C13 1_555 1_555
O2 C13 1_555 1_555
N1 Ag1 1_555 1_555
N2 C10 1_555 1_555
N3 H1 1_555 1_555
H2 N3 1_555 1_555
C1 N1 1_555 1_555
H3 C1 1_555 1_555
C2 C1 1_555 1_555
H4 C2 1_555 1_555
C3 C2 1_555 1_555
H5 C3 1_555 1_555
C4 C3 1_555 1_555
H6 C4 1_555 1_555
C5 N1 1_555 1_555
C6 C5 1_555 1_555
H7 C6 1_555 1_555
C7 C6 1_555 1_555
H8 C7 1_555 1_555
C8 C7 1_555 1_555
C9 C8 1_555 1_555
H9 C9 1_555 1_555
C10 C9 1_555 1_555
H10 C10 1_555 1_555
C11 N2 1_555 1_555
H11 C11 1_555 1_555
C12 C8 1_555 1_555
H12 C12 1_555 1_555
C13 C14 1_555 1_555
C14 C15 1_555 1_555
C15 N3 1_555 1_555
C16 C15 1_555 1_555
H13 C16 1_555 1_555
Ag1B O1B 1_555 1_555
Ag1A N2 1_555 1_555
Ag1C N2B 1_555 1_555
O1B C13B 1_555 1_555
O2B C13B 1_555 1_555
N1B Ag1B 1_555 1_555
N2B C10B 1_555 1_555
N2A Ag1 1_555 1_555
N2C Ag1B 1_555 1_555
N3B H1B 1_555 1_555
H2B N3B 1_555 1_555
C1B N1B 1_555 1_555
H3B C1B 1_555 1_555
C2B C1B 1_555 1_555
H4B C2B 1_555 1_555
C3B C2B 1_555 1_555
H5B C3B 1_555 1_555
C4B C3B 1_555 1_555
H6B C4B 1_555 1_555
C5B N1B 1_555 1_555
C6B C5B 1_555 1_555
H7B C6B 1_555 1_555
C7B C6B 1_555 1_555
H8B C7B 1_555 1_555
C8B C7B 1_555 1_555
C9B C8B 1_555 1_555
H9B C9B 1_555 1_555
C10B C9B 1_555 1_555
H10B C10B 1_555 1_555
C11B N2B 1_555 1_555
H11B C11B 1_555 1_555
C12B C8B 1_555 1_555
H12B C12B 1_555 1_555
C13B C14B 1_555 1_555
C14B C16 1_555 1_555
C15B N3B 1_555 1_555
C16B C14 1_555 1_555
H13B C16B 1_555 1_555
C4 C5 1_555 1_555
C11 C12 1_555 1_555
C4B C5B 1_555 1_555
C11B C12B 1_555 1_555
C14B C15B 1_555 1_555
C15B C16B 1_555 1_555

#END
