
#######################################################################
#
#                 Cambridge Crystallographic Data Centre
#                                CCDC 
#
#######################################################################
#
# If this CIF has been generated from an entry in the Cambridge 
# Structural Database, then it will include bibliographic, chemical, 
# crystal, experimental, refinement or atomic coordinate data resulting 
# from the CCDC's data processing and validation procedures.
#
#######################################################################

data_CUTNEL
_symmetry_cell_setting           triclinic
_symmetry_space_group_name_H-M   'P -1'
_symmetry_Int_Tables_number      2
_space_group_name_Hall           '-P 1'
loop_
_symmetry_equiv_pos_site_id
_symmetry_equiv_pos_as_xyz
1 x,y,z
2 -x,-y,-z
_cell_length_a                   9.7083(5)
_cell_length_b                   10.2037(6)
_cell_length_c                   18.3854(10)
_cell_angle_alpha                87.6810(10)
_cell_angle_beta                 86.0440(10)
_cell_angle_gamma                63.8270(10)
_cell_volume                     1630.53
loop_
_atom_site_label
_atom_site_type_symbol
_atom_site_fract_x
_atom_site_fract_y
_atom_site_fract_z
Ag1 Ag 0.46488(4) -0.01291(3) 0.900032(16)
Ag2 Ag 0.89777(4) 0.42669(3) 0.557864(15)
Ag3 Ag 0.16077(3) -0.47043(3) 1.274010(15)
S1 S 0.95542(10) 0.80987(9) 0.88361(4)
O1 O 0.9971(3) 0.5458(2) 0.63197(12)
O2 O 0.9742(4) 0.7086(3) 0.54396(13)
O3 O 0.9119(4) 1.2037(3) 0.60541(14)
O4 O 0.9712(3) 1.2341(2) 0.71624(14)
O5 O 0.7956(3) 0.8944(3) 0.90578(15)
O6 O 1.0068(3) 0.6544(3) 0.89293(13)
O7 O 1.0537(4) 0.8609(3) 0.91697(14)
N1 N 0.3753(3) -0.6765(3) 1.26176(15)
N2 N 0.4920(3) -0.1846(3) 0.97640(15)
N3 N 0.6418(3) 0.6047(3) 0.53927(16)
N4 N 0.4423(3) 0.1487(3) 0.81768(16)
C1 C 0.5097(4) 0.6029(4) 0.56620(18)
C2 C 0.6314(5) 0.7164(5) 0.4950(2)
H1 H 0.7217 0.7185 0.4759
C3 C 0.4933(6) 0.8274(5) 0.4767(2)
H2 H 0.4908 0.9045 0.4471
C4 C 0.3599(6) 0.8234(5) 0.5023(2)
H3 H 0.2654 0.8965 0.4896
C5 C 0.3671(5) 0.7105(4) 0.5469(2)
H4 H 0.2773 0.7054 0.5642
C6 C 0.5260(4) 0.4827(4) 0.61738(18)
H5 H 0.6252 0.4121 0.6250
C7 C 0.4118(4) 0.4666(4) 0.6534(2)
H6 H 0.3127 0.5340 0.6432
C8 C 0.4261(4) 0.3529(4) 0.70777(19)
C9 C 0.5650(4) 0.2527(4) 0.7335(2)
H7 H 0.6563 0.2520 0.7140
C10 C 0.5685(4) 0.1547(4) 0.7874(2)
H8 H 0.6634 0.0892 0.8037
C11 C 0.3084(4) 0.2433(4) 0.7924(2)
H9 H 0.2188 0.2411 0.8125
C12 C 0.2965(4) 0.3435(4) 0.7383(2)
H10 H 0.2003 0.4057 0.7220
C13 C 0.4925(4) -0.6872(3) 1.21396(17)
C14 C 0.4003(4) -0.7869(4) 1.30909(19)
H11 H 0.3202 -0.7800 1.3420
C15 C 0.5380(4) -0.9096(4) 1.3116(2)
H12 H 0.5500 -0.9840 1.3452
C16 C 0.6578(4) -0.9210(4) 1.2638(2)
H13 H 0.7529 -1.0020 1.2651
C17 C 0.6340(4) -0.8098(4) 1.2140(2)
H14 H 0.7127 -0.8166 1.1802
C18 C 0.4614(4) -0.5653(4) 1.16319(18)
H15 H 0.3592 -0.4989 1.1587
C19 C 0.5666(4) -0.5412(4) 1.12297(19)
H16 H 0.6687 -0.6082 1.1273
C20 C 0.5366(4) -0.4184(4) 1.07238(18)
C21 C 0.3897(4) -0.3119(4) 1.0582(2)
H17 H 0.3036 -0.3174 1.0806
C22 C 0.3730(4) -0.1989(4) 1.0111(2)
H18 H 0.2741 -0.1285 1.0027
C23 C 0.6331(4) -0.2888(4) 0.9885(2)
H19 H 0.7170 -0.2823 0.9640
C24 C 0.6600(4) -0.4049(4) 1.0354(2)
H20 H 0.7601 -0.4741 1.0424
C25 C 0.9849(4) 0.6683(3) 0.60840(17)
C26 C 0.9796(3) 0.7762(3) 0.66418(16)
C27 C 0.9719(3) 0.9110(3) 0.64157(17)
H21 H 0.9709 0.9339 0.5921
C28 C 0.9656(3) 1.0115(3) 0.69170(17)
C29 C 0.9504(4) 1.1622(3) 0.66788(18)
C30 C 0.9657(3) 0.9776(3) 0.76543(17)
H22 H 0.9627 1.0441 0.7994
C31 C 0.9704(3) 0.8445(3) 0.78888(16)
C32 C 0.9793(3) 0.7435(3) 0.73836(16)
H23 H 0.9850 0.6536 0.7541
Ag2A Ag 1.10223(4) 0.57331(3) 0.442136(15)
Ag2_2 Ag 0.89777(4) 1.42669(3) 0.557864(15)
Ag3A Ag 0.83923(3) 1.47043(3) 0.725990(15)
O2A O 1.0258(4) 0.2914(3) 0.45604(13)
O3_2 O 0.9119(4) 0.2037(3) 0.60541(14)
O4A O 0.0288(3) -0.2341(2) 1.28376(14)
O8 O 0.9241(3) 0.4298(3) 0.85921(17)
H24 H 0.9390 0.4992 0.8754
H25 H 0.9651 0.3479 0.8813
O9 O 0.0754(5) 0.1354(4) 0.92343(17)
H26 H 0.0852 0.0492 0.9184
H27 H 0.0209 0.1827 0.9604
loop_
_geom_bond_atom_site_label_1
_geom_bond_atom_site_label_2
_geom_bond_site_symmetry_1
_geom_bond_site_symmetry_2
Ag1 N2 1_555 1_555
Ag2 O1 1_555 1_555
Ag3 N1 1_555 1_555
S1 O5 1_555 1_555
O1 C25 1_555 1_555
O2 C25 1_555 1_555
O3 C29 1_555 1_555
O4 C29 1_555 1_555
O6 S1 1_555 1_555
O7 S1 1_555 1_555
N1 C13 1_555 1_555
N2 C22 1_555 1_555
N3 Ag2 1_555 1_555
N4 Ag1 1_555 1_555
C1 N3 1_555 1_555
C2 N3 1_555 1_555
H1 C2 1_555 1_555
C3 C2 1_555 1_555
H2 C3 1_555 1_555
C4 C3 1_555 1_555
H3 C4 1_555 1_555
C5 C1 1_555 1_555
H4 C5 1_555 1_555
C6 C1 1_555 1_555
H5 C6 1_555 1_555
C7 C6 1_555 1_555
H6 C7 1_555 1_555
C8 C7 1_555 1_555
C9 C8 1_555 1_555
H7 C9 1_555 1_555
C10 N4 1_555 1_555
H8 C10 1_555 1_555
C11 N4 1_555 1_555
H9 C11 1_555 1_555
C12 C8 1_555 1_555
H10 C12 1_555 1_555
C13 C17 1_555 1_555
C14 N1 1_555 1_555
H11 C14 1_555 1_555
C15 C14 1_555 1_555
H12 C15 1_555 1_555
C16 C15 1_555 1_555
H13 C16 1_555 1_555
C17 C16 1_555 1_555
H14 C17 1_555 1_555
C18 C13 1_555 1_555
H15 C18 1_555 1_555
C19 C18 1_555 1_555
H16 C19 1_555 1_555
C20 C19 1_555 1_555
C21 C20 1_555 1_555
H17 C21 1_555 1_555
C22 C21 1_555 1_555
H18 C22 1_555 1_555
C23 N2 1_555 1_555
H19 C23 1_555 1_555
C24 C20 1_555 1_555
H20 C24 1_555 1_555
C25 C26 1_555 1_555
C26 C27 1_555 1_555
C27 H21 1_555 1_555
C28 C27 1_555 1_555
C29 C28 1_555 1_555
C30 C28 1_555 1_555
H22 C30 1_555 1_555
C31 S1 1_555 1_555
C32 C26 1_555 1_555
H23 C32 1_555 1_555
O8 H24 1_555 1_555
H25 O8 1_555 1_555
O9 H26 1_555 1_555
H27 O9 1_555 1_555
Ag2A O2 1_555 1_555
Ag2_2 O3 1_555 1_555
Ag3A O4 1_555 1_555
O2A Ag2 1_555 1_555
O3_2 Ag2 1_555 1_555
O4A Ag3 1_555 1_555
C4 C5 1_555 1_555
C9 C10 1_555 1_555
C11 C12 1_555 1_555
C23 C24 1_555 1_555
C30 C31 1_555 1_555
C31 C32 1_555 1_555

#END
