
#######################################################################
#
#                 Cambridge Crystallographic Data Centre
#                                CCDC 
#
#######################################################################
#
# If this CIF has been generated from an entry in the Cambridge 
# Structural Database, then it will include bibliographic, chemical, 
# crystal, experimental, refinement or atomic coordinate data resulting 
# from the CCDC's data processing and validation procedures.
#
#######################################################################

data_CUTNAH
_symmetry_cell_setting           orthorhombic
_symmetry_space_group_name_H-M   'F d d 2'
_symmetry_Int_Tables_number      43
_space_group_name_Hall           'F 2 -2d'
loop_
_symmetry_equiv_pos_site_id
_symmetry_equiv_pos_as_xyz
1 x,y,z
2 -x,-y,z
3 1/4+x,1/4-y,1/4+z
4 1/4-x,1/4+y,1/4+z
5 x,1/2+y,1/2+z
6 -x,1/2-y,1/2+z
7 1/4+x,3/4-y,3/4+z
8 1/4-x,3/4+y,3/4+z
9 1/2+x,y,1/2+z
10 1/2-x,-y,1/2+z
11 3/4+x,1/4-y,3/4+z
12 3/4-x,1/4+y,3/4+z
13 1/2+x,1/2+y,z
14 1/2-x,1/2-y,z
15 3/4+x,3/4-y,1/4+z
16 3/4-x,3/4+y,1/4+z
_cell_length_a                   19.712(15)
_cell_length_b                   38.57(3)
_cell_length_c                   7.082(5)
_cell_angle_alpha                90
_cell_angle_beta                 90
_cell_angle_gamma                90
_cell_volume                     5384.39
loop_
_atom_site_label
_atom_site_type_symbol
_atom_site_fract_x
_atom_site_fract_y
_atom_site_fract_z
Ag1 Ag 0.163143(14) 0.111903(8) 0.22010(7)
O1 O 0.07078(15) 0.05419(9) 0.1412(5)
O2 O 0.09673(15) 0.07872(8) 0.4177(5)
N1 N 0.26673(15) 0.10009(8) 0.1043(5)
N2 N 0.13896(15) -0.08613(9) 0.0412(5)
C1 C 0.3090(2) 0.12800(11) 0.0975(6)
H1 H 0.2907 0.1498 0.1201
C2 C 0.37711(19) 0.12575(11) 0.0591(6)
H2 H 0.4038 0.1456 0.0527
C3 C 0.40524(18) 0.09310(12) 0.0300(6)
H3 H 0.4515 0.0907 0.0082
C4 C 0.36368(17) 0.06428(11) 0.0340(6)
H4 H 0.3817 0.0424 0.0118
C5 C 0.29389(17) 0.06818(9) 0.0716(5)
C6 C 0.24670(18) 0.03860(10) 0.0744(6)
H5 H 0.2006 0.0436 0.0793
C7 C 0.26435(17) 0.00533(10) 0.0705(6)
H6 H 0.3107 0.0008 0.0708
C8 C 0.21969(17) -0.02510(10) 0.0657(5)
C9 C 0.14854(18) -0.02332(11) 0.0474(6)
H7 H 0.1265 -0.0020 0.0430
C10 C 0.11189(19) -0.05421(10) 0.0362(6)
H8 H 0.0650 -0.0525 0.0242
C11 C 0.20746(18) -0.08759(10) 0.0643(6)
H9 H 0.2278 -0.1093 0.0732
C12 C 0.24810(18) -0.05870(10) 0.0750(6)
H10 H 0.2948 -0.0613 0.0884
C13 C 0.06975(19) 0.05553(12) 0.3183(7)
C14 C 0.03399(16) 0.02642(10) 0.4270(5)
C15 C 0.0340(2) 0.02602(12) 0.6231(6)
H11 H 0.0568 0.0433 0.6895
C16 C 0.0000 0.0000 0.7209(11)
H12 H 0.0000 0.0000 0.8522
C17 C 0.0000 0.0000 0.3298(8)
H13 H 0.0000 0.0000 0.1985
Ag1A Ag -0.163143(14) -0.111903(8) 0.22010(7)
Ag1G Ag 0.086857(14) -0.138097(8) -0.02990(7)
Ag1J Ag -0.086857(14) 0.138097(8) -0.02990(7)
O1A O -0.07078(15) -0.05419(9) 0.1412(5)
O2A O -0.09673(15) -0.07872(8) 0.4177(5)
N1A N -0.26673(15) -0.10009(8) 0.1043(5)
N2A N -0.13896(15) 0.08613(9) 0.0412(5)
N2C N 0.11104(15) 0.16387(9) 0.2912(5)
N2N N -0.11104(15) -0.16387(9) 0.2912(5)
C1A C -0.3090(2) -0.12800(11) 0.0975(6)
H1A H -0.2907 -0.1498 0.1201
C2A C -0.37711(19) -0.12575(11) 0.0591(6)
H2A H -0.4038 -0.1456 0.0527
C3A C -0.40524(18) -0.09310(12) 0.0300(6)
H3A H -0.4515 -0.0907 0.0082
C4A C -0.36368(17) -0.06428(11) 0.0340(6)
H4A H -0.3817 -0.0424 0.0118
C5A C -0.29389(17) -0.06818(9) 0.0716(5)
C6A C -0.24670(18) -0.03860(10) 0.0744(6)
H5A H -0.2006 -0.0436 0.0793
C7A C -0.26435(17) -0.00533(10) 0.0705(6)
H6A H -0.3107 -0.0008 0.0708
C8A C -0.21969(17) 0.02510(10) 0.0657(5)
C9A C -0.14854(18) 0.02332(11) 0.0474(6)
H7A H -0.1265 0.0020 0.0430
C10A C -0.11189(19) 0.05421(10) 0.0362(6)
H8A H -0.0650 0.0525 0.0242
C11A C -0.20746(18) 0.08759(10) 0.0643(6)
H9A H -0.2278 0.1093 0.0732
C12A C -0.24810(18) 0.05870(10) 0.0750(6)
H10A H -0.2948 0.0613 0.0884
C13A C -0.06975(19) -0.05553(12) 0.3183(7)
C14A C -0.03399(16) -0.02642(10) 0.4270(5)
C15A C -0.0340(2) -0.02602(12) 0.6231(6)
H11A H -0.0568 -0.0433 0.6895
loop_
_geom_bond_atom_site_label_1
_geom_bond_atom_site_label_2
_geom_bond_site_symmetry_1
_geom_bond_site_symmetry_2
Ag1 O2 1_555 1_555
O1 C13 1_555 1_555
O2 C13 1_555 1_555
N1 Ag1 1_555 1_555
N2 C10 1_555 1_555
C1 N1 1_555 1_555
H1 C1 1_555 1_555
C2 C1 1_555 1_555
H2 C2 1_555 1_555
C3 C2 1_555 1_555
H3 C3 1_555 1_555
C4 C3 1_555 1_555
H4 C4 1_555 1_555
C5 N1 1_555 1_555
C6 C5 1_555 1_555
H5 C6 1_555 1_555
C7 C6 1_555 1_555
H6 C7 1_555 1_555
C8 C7 1_555 1_555
C9 C8 1_555 1_555
H7 C9 1_555 1_555
C10 C9 1_555 1_555
H8 C10 1_555 1_555
C11 N2 1_555 1_555
H9 C11 1_555 1_555
C12 C8 1_555 1_555
H10 C12 1_555 1_555
C13 C14 1_555 1_555
C14 C15 1_555 1_555
C15 H11 1_555 1_555
C16 C15 1_555 1_555
H12 C16 1_555 1_555
C17 C14 1_555 1_555
H13 C17 1_555 1_555
Ag1A O2A 1_555 1_555
Ag1G N2 1_555 1_555
Ag1J N2A 1_555 1_555
O1A C13A 1_555 1_555
O2A C13A 1_555 1_555
N1A Ag1A 1_555 1_555
N2A C10A 1_555 1_555
N2C Ag1 1_555 1_555
N2N Ag1A 1_555 1_555
C1A N1A 1_555 1_555
H1A C1A 1_555 1_555
C2A C1A 1_555 1_555
H2A C2A 1_555 1_555
C3A C2A 1_555 1_555
H3A C3A 1_555 1_555
C4A C3A 1_555 1_555
H4A C4A 1_555 1_555
C5A N1A 1_555 1_555
C6A C5A 1_555 1_555
H5A C6A 1_555 1_555
C7A C6A 1_555 1_555
H6A C7A 1_555 1_555
C8A C7A 1_555 1_555
C9A C8A 1_555 1_555
H7A C9A 1_555 1_555
C10A C9A 1_555 1_555
H8A C10A 1_555 1_555
C11A N2A 1_555 1_555
H9A C11A 1_555 1_555
C12A C8A 1_555 1_555
H10A C12A 1_555 1_555
C13A C14A 1_555 1_555
C14A C17 1_555 1_555
C15A C16 1_555 1_555
H11A C15A 1_555 1_555
C4 C5 1_555 1_555
C11 C12 1_555 1_555
C4A C5A 1_555 1_555
C11A C12A 1_555 1_555
C14A C15A 1_555 1_555

#END
