
#######################################################################
#
#                 Cambridge Crystallographic Data Centre
#                                CCDC 
#
#######################################################################
#
# If this CIF has been generated from an entry in the Cambridge 
# Structural Database, then it will include bibliographic, chemical, 
# crystal, experimental, refinement or atomic coordinate data resulting 
# from the CCDC's data processing and validation procedures.
#
#######################################################################

data_CUTNIP
_symmetry_cell_setting           monoclinic
_symmetry_space_group_name_H-M   'P 21/c'
_symmetry_Int_Tables_number      14
_space_group_name_Hall           '-P 2ybc'
loop_
_symmetry_equiv_pos_site_id
_symmetry_equiv_pos_as_xyz
1 x,y,z
2 -x,1/2+y,1/2-z
3 -x,-y,-z
4 x,1/2-y,1/2+z
_cell_length_a                   7.1184(7)
_cell_length_b                   19.0455(17)
_cell_length_c                   10.0194(9)
_cell_angle_alpha                90
_cell_angle_beta                 106.2370(10)
_cell_angle_gamma                90
_cell_volume                     1304.18
loop_
_atom_site_label
_atom_site_type_symbol
_atom_site_fract_x
_atom_site_fract_y
_atom_site_fract_z
Ag1 Ag 0.48317(3) 0.716473(10) 0.32403(2)
O1 O 0.2210(3) 0.65662(10) 0.1882(2)
O2 O 0.4596(3) 0.59916(10) 0.1326(2)
N1 N 0.7039(3) 0.69694(10) 0.5289(2)
N2 N 0.6297(3) 0.32276(10) 0.2757(2)
C1 C 0.7511(4) 0.75394(13) 0.6108(3)
H1 H 0.7057 0.7974 0.5730
C2 C 0.8617(4) 0.75167(14) 0.7459(3)
H2 H 0.8926 0.7926 0.7980
C3 C 0.9267(4) 0.68735(15) 0.8035(3)
H3 H 1.0005 0.6840 0.8959
C4 C 0.8807(4) 0.62833(13) 0.7223(3)
H4 H 0.9234 0.5845 0.7595
C5 C 0.7701(3) 0.63404(12) 0.5841(3)
C6 C 0.7203(4) 0.57331(12) 0.4904(3)
H5 H 0.6478 0.5818 0.3991
C7 C 0.7700(4) 0.50765(12) 0.5251(3)
H6 H 0.8432 0.4999 0.6165
C8 C 0.7227(3) 0.44558(12) 0.4357(3)
C9 C 0.6231(4) 0.44790(13) 0.2950(3)
H7 H 0.5853 0.4908 0.2514
C10 C 0.5809(4) 0.38672(13) 0.2208(3)
H8 H 0.5145 0.3897 0.1268
C11 C 0.7291(4) 0.32099(13) 0.4106(3)
H9 H 0.7676 0.2774 0.4511
C12 C 0.7775(4) 0.37943(13) 0.4926(3)
H10 H 0.8467 0.3750 0.5858
C13 C 0.2866(4) 0.60637(13) 0.1333(3)
C14 C 0.1381(4) 0.55086(12) 0.0637(2)
C15 C -0.0523(4) 0.55332(13) 0.0751(3)
H11 H -0.0881 0.5891 0.1262
C16 C -0.1889(4) 0.50338(13) 0.0115(3)
H12 H -0.3158 0.5062 0.0192
Ag1B Ag -0.48317(3) 0.283527(10) -0.32403(2)
Ag1A Ag 0.51683(3) 0.216473(10) 0.17597(2)
Ag1C Ag -0.51683(3) 0.783527(10) -0.17597(2)
O1B O -0.2210(3) 0.34338(10) -0.1882(2)
O2B O -0.4596(3) 0.40084(10) -0.1326(2)
N1B N -0.7039(3) 0.30306(10) -0.5289(2)
N2B N -0.6297(3) 0.67724(10) -0.2757(2)
N2A N 0.3703(3) 0.82276(10) 0.2243(2)
N2C N -0.3703(3) 0.17724(10) -0.2243(2)
C1B C -0.7511(4) 0.24606(13) -0.6108(3)
H1B H -0.7057 0.2026 -0.5730
C2B C -0.8617(4) 0.24833(14) -0.7459(3)
H2B H -0.8926 0.2074 -0.7980
C3B C -0.9267(4) 0.31265(15) -0.8035(3)
H3B H -1.0005 0.3160 -0.8959
C4B C -0.8807(4) 0.37167(13) -0.7223(3)
H4B H -0.9234 0.4155 -0.7595
C5B C -0.7701(3) 0.36596(12) -0.5841(3)
C6B C -0.7203(4) 0.42669(12) -0.4904(3)
H5B H -0.6478 0.4182 -0.3991
C7B C -0.7700(4) 0.49235(12) -0.5251(3)
H6B H -0.8432 0.5001 -0.6165
C8B C -0.7227(3) 0.55442(12) -0.4357(3)
C9B C -0.6231(4) 0.55210(13) -0.2950(3)
H7B H -0.5853 0.5092 -0.2514
C10B C -0.5809(4) 0.61328(13) -0.2208(3)
H8B H -0.5145 0.6103 -0.1268
C11B C -0.7291(4) 0.67901(13) -0.4106(3)
H9B H -0.7676 0.7226 -0.4511
C12B C -0.7775(4) 0.62057(13) -0.4926(3)
H10B H -0.8467 0.6250 -0.5858
C13B C -0.2866(4) 0.39363(13) -0.1333(3)
C14B C -0.1381(4) 0.44914(12) -0.0637(2)
C15B C 0.0523(4) 0.44668(13) -0.0751(3)
H11B H 0.0881 0.4109 -0.1262
C16B C 0.1889(4) 0.49662(13) -0.0115(3)
H12B H 0.3158 0.4938 -0.0192
loop_
_geom_bond_atom_site_label_1
_geom_bond_atom_site_label_2
_geom_bond_site_symmetry_1
_geom_bond_site_symmetry_2
Ag1 O1 1_555 1_555
O1 C13 1_555 1_555
O2 C13 1_555 1_555
N1 Ag1 1_555 1_555
N2 C10 1_555 1_555
C1 N1 1_555 1_555
H1 C1 1_555 1_555
C2 C1 1_555 1_555
H2 C2 1_555 1_555
C3 C2 1_555 1_555
H3 C3 1_555 1_555
C4 C3 1_555 1_555
H4 C4 1_555 1_555
C5 N1 1_555 1_555
C6 C5 1_555 1_555
H5 C6 1_555 1_555
C7 C6 1_555 1_555
H6 C7 1_555 1_555
C8 C7 1_555 1_555
C9 C8 1_555 1_555
H7 C9 1_555 1_555
C10 C9 1_555 1_555
H8 C10 1_555 1_555
C11 N2 1_555 1_555
H9 C11 1_555 1_555
C12 C8 1_555 1_555
H10 C12 1_555 1_555
C13 C14 1_555 1_555
C14 C15 1_555 1_555
C15 H11 1_555 1_555
C16 C15 1_555 1_555
H12 C16 1_555 1_555
Ag1B O1B 1_555 1_555
Ag1A N2 1_555 1_555
Ag1C N2B 1_555 1_555
O1B C13B 1_555 1_555
O2B C13B 1_555 1_555
N1B Ag1B 1_555 1_555
N2B C10B 1_555 1_555
N2A Ag1 1_555 1_555
N2C Ag1B 1_555 1_555
C1B N1B 1_555 1_555
H1B C1B 1_555 1_555
C2B C1B 1_555 1_555
H2B C2B 1_555 1_555
C3B C2B 1_555 1_555
H3B C3B 1_555 1_555
C4B C3B 1_555 1_555
H4B C4B 1_555 1_555
C5B N1B 1_555 1_555
C6B C5B 1_555 1_555
H5B C6B 1_555 1_555
C7B C6B 1_555 1_555
H6B C7B 1_555 1_555
C8B C7B 1_555 1_555
C9B C8B 1_555 1_555
H7B C9B 1_555 1_555
C10B C9B 1_555 1_555
H8B C10B 1_555 1_555
C11B N2B 1_555 1_555
H9B C11B 1_555 1_555
C12B C8B 1_555 1_555
H10B C12B 1_555 1_555
C13B C14B 1_555 1_555
C14B C16 1_555 1_555
C15B C14B 1_555 1_555
H11B C15B 1_555 1_555
C16B C14 1_555 1_555
H12B C16B 1_555 1_555
C4 C5 1_555 1_555
C11 C12 1_555 1_555
C4B C5B 1_555 1_555
C11B C12B 1_555 1_555
C15B C16B 1_555 1_555

#END
