
#######################################################################
#
#                 Cambridge Crystallographic Data Centre
#                                CCDC 
#
#######################################################################
#
# If this CIF has been generated from an entry in the Cambridge 
# Structural Database, then it will include bibliographic, chemical, 
# crystal, experimental, refinement or atomic coordinate data resulting 
# from the CCDC's data processing and validation procedures.
#
#######################################################################

data_CUTNUB
_symmetry_cell_setting           triclinic
_symmetry_space_group_name_H-M   'P -1'
_symmetry_Int_Tables_number      2
_space_group_name_Hall           '-P 1'
loop_
_symmetry_equiv_pos_site_id
_symmetry_equiv_pos_as_xyz
1 x,y,z
2 -x,-y,-z
_cell_length_a                   10.6107(4)
_cell_length_b                   17.4900(6)
_cell_length_c                   18.1407(6)
_cell_angle_alpha                94.2270(10)
_cell_angle_beta                 97.3120(10)
_cell_angle_gamma                90.7090(10)
_cell_volume                     3329.31
loop_
_atom_site_label
_atom_site_type_symbol
_atom_site_fract_x
_atom_site_fract_y
_atom_site_fract_z
Ag1 Ag 1.08950(4) 0.39709(3) 0.82617(3)
Ag2 Ag 1.09868(4) 0.20751(3) 0.84181(2)
Ag3 Ag 1.01735(4) 0.22563(2) 0.68578(2)
Ag4 Ag 1.23848(4) 0.25268(2) 0.53696(3)
Ag5 Ag 0.50146(5) -0.24453(3) 0.68210(3)
Ag6 Ag 0.51743(5) 0.13091(3) 1.06133(3)
Br1 Br 0.68574(6) 0.02368(3) 0.71893(4)
Br2 Br 1.44035(6) 0.14082(3) 0.79218(4)
O1 O 1.2455(3) 0.2963(2) 0.8067(2)
O2 O 1.2314(3) 0.2685(2) 0.6846(2)
O3 O 1.9017(4) 0.2701(3) 0.8065(4)
O4 O 1.8871(4) 0.3880(3) 0.7700(3)
O5 O 0.9642(5) 0.0997(2) 0.6872(2)
O6 O 1.0375(6) 0.0861(2) 0.8044(3)
O7 O 0.7324(4) -0.2822(2) 0.7083(2)
O8 O 0.9371(4) -0.3084(2) 0.7149(3)
O9 O 0.4983(4) 0.1430(3) 1.2071(2)
O10 O 0.6372(6) 0.1172(3) 1.2960(3)
O11 O 0.6178(5) 0.0474(3) 1.1944(3)
O12 O 0.4787(5) -0.3299(3) 0.7729(3)
O13 O 0.3044(6) -0.3613(4) 0.7072(3)
O14 O 0.3935(7) -0.4377(4) 0.7843(4)
O15 O 1.1690(5) 0.4702(2) 0.7298(3)
H1 H 1.2288 0.5030 0.7434
H2 H 1.0951 0.4878 0.7192
N1 N 0.6692(4) 0.2135(3) 1.0608(3)
N2 N 1.1801(4) 0.4514(3) 0.9369(3)
N3 N 1.1869(4) 0.2212(2) 0.9637(2)
N4 N 0.6355(5) -0.0486(3) 0.9719(3)
N5 N 0.9380(4) 0.2809(2) 0.5791(3)
N6 N 0.7928(4) -0.1319(2) 0.4631(3)
N7 N 1.4685(4) 0.7848(2) 0.5621(2)
N8 N 1.2769(4) 0.3683(2) 0.5169(3)
N9 N 0.5853(5) 0.1015(3) 1.2328(3)
N10 N 0.3923(6) -0.3771(3) 0.7550(4)
C1 C 0.8384(6) 0.2928(3) 1.1259(3)
H7 H 0.8822 0.3113 1.1715
C2 C 0.7369(6) 0.2429(4) 1.1233(4)
H8 H 0.7141 0.2287 1.1683
C3 C 0.7046(6) 0.2360(3) 0.9968(4)
H9 H 0.6579 0.2170 0.9522
C4 C 0.8036(6) 0.2844(3) 0.9934(4)
H10 H 0.8245 0.2971 0.9475
C5 C 0.8752(5) 0.3156(3) 1.0600(3)
C6 C 0.9848(6) 0.3682(3) 1.0623(4)
H11 H 1.0231 0.3878 1.1090
C7 C 1.0334(5) 0.3899(3) 1.0032(3)
H12 H 0.9942 0.3703 0.9567
C8 C 1.1423(5) 0.4415(3) 1.0040(3)
C9 C 1.2816(6) 0.4985(4) 0.9343(4)
H13 H 1.3083 0.5051 0.8882
C10 C 1.3459(7) 0.5365(4) 0.9959(5)
H14 H 1.4145 0.5688 0.9919
C11 C 1.3079(7) 0.5266(4) 1.0645(4)
H15 H 1.3508 0.5517 1.1076
C12 C 1.2055(6) 0.4788(4) 1.0680(4)
H16 H 1.1785 0.4716 1.1138
C13 C 1.2900(5) 0.2665(3) 0.9826(3)
H17 H 1.3264 0.2884 0.9449
C14 C 1.3448(6) 0.2821(3) 1.0550(3)
H18 H 1.4171 0.3135 1.0659
C15 C 1.2909(6) 0.2508(4) 1.1107(3)
H19 H 1.3256 0.2609 1.1602
C16 C 1.1843(6) 0.2039(3) 1.0925(3)
H20 H 1.1467 0.1819 1.1297
C17 C 1.1326(5) 0.1894(3) 1.0172(3)
C18 C 1.0217(5) 0.1396(3) 0.9940(3)
H21 H 0.9941 0.1338 0.9431
C19 C 0.9558(5) 0.1018(3) 1.0373(3)
H22 H 0.9823 0.1077 1.0883
C20 C 0.8452(5) 0.0514(3) 1.0126(3)
C21 C 0.7903(6) 0.0385(3) 0.9390(3)
H23 H 0.8232 0.0631 0.9016
C22 C 0.6870(6) -0.0108(4) 0.9215(3)
H24 H 0.6511 -0.0181 0.8719
C23 C 0.6874(6) -0.0361(3) 1.0424(3)
H25 H 0.6519 -0.0611 1.0786
C24 C 0.7907(5) 0.0117(3) 1.0643(3)
H26 H 0.8246 0.0175 1.1143
C25 C 0.8977(6) 0.2791(3) 0.4470(3)
H27 H 0.8741 0.2520 0.4012
C26 C 0.9260(6) 0.3565(4) 0.4508(4)
H28 H 0.9257 0.3817 0.4074
C27 C 0.9541(6) 0.3954(4) 0.5182(4)
H29 H 0.9686 0.4482 0.5216
C28 C 0.9612(6) 0.3571(3) 0.5810(4)
H30 H 0.9828 0.3843 0.6269
C29 C 0.9048(5) 0.2419(3) 0.5126(3)
C30 C 0.8788(5) 0.1596(3) 0.5142(3)
H31 H 0.8963 0.1396 0.5604
C31 C 0.8339(5) 0.1106(3) 0.4585(3)
H32 H 0.8110 0.1303 0.4126
C32 C 0.8165(5) 0.0280(3) 0.4619(3)
C33 C 0.8453(5) -0.0088(3) 0.5271(3)
H33 H 0.8729 0.0194 0.5718
C34 C 0.8327(5) -0.0877(3) 0.5249(3)
H34 H 0.8532 -0.1112 0.5691
C35 C 0.7633(5) -0.0967(3) 0.4003(3)
H35 H 0.7363 -0.1265 0.3564
C36 C 0.7712(5) -0.0180(3) 0.3979(3)
H36 H 0.7463 0.0041 0.3534
C37 C 1.4142(6) 0.7576(3) 0.4317(3)
H37 H 1.3860 0.7227 0.3917
C38 C 1.4418(7) 0.8323(3) 0.4199(4)
H38 H 1.4331 0.8480 0.3717
C39 C 1.4817(6) 0.8831(3) 0.4784(4)
H39 H 1.4992 0.9340 0.4712
C40 C 1.4953(6) 0.8575(3) 0.5480(4)
H40 H 1.5247 0.8921 0.5881
C41 C 1.4287(5) 0.7347(3) 0.5037(3)
C42 C 1.3985(5) 0.6567(3) 0.5219(3)
H41 H 1.3996 0.6484 0.5720
C43 C 1.3698(5) 0.5972(3) 0.4728(3)
H42 H 1.3690 0.6058 0.4228
C44 C 1.3392(5) 0.5190(3) 0.4900(3)
C45 C 1.3211(5) 0.4987(3) 0.5604(3)
H43 H 1.3307 0.5355 0.6005
C46 C 1.2889(5) 0.4245(3) 0.5709(3)
H44 H 1.2747 0.4129 0.6184
C47 C 1.2934(5) 0.3881(3) 0.4484(3)
H45 H 1.2840 0.3501 0.4092
C48 C 1.3230(5) 0.4606(3) 0.4336(3)
H46 H 1.3325 0.4712 0.3851
C49 C 1.2910(5) 0.2870(3) 0.7468(3)
C50 C 1.4336(5) 0.2967(3) 0.7530(3)
C51 C 1.5118(5) 0.2378(3) 0.7739(3)
C52 C 1.6438(5) 0.2458(3) 0.7825(3)
H47 H 1.6947 0.2051 0.7964
C53 C 1.6977(5) 0.3151(3) 0.7699(3)
C54 C 1.8419(6) 0.3246(4) 0.7830(3)
C55 C 1.6206(5) 0.3751(3) 0.7491(3)
H48 H 1.6565 0.4219 0.7406
C56 C 1.4898(5) 0.3653(3) 0.7408(3)
H49 H 1.4387 0.4059 0.7268
C57 C 0.9848(5) 0.0632(3) 0.7416(3)
C58 C 0.9466(5) -0.0215(3) 0.7332(3)
C59 C 0.8219(5) -0.0471(3) 0.7228(3)
C60 C 0.7881(5) -0.1245(3) 0.7171(3)
H50 H 0.7031 -0.1401 0.7116
C61 C 0.8831(5) -0.1780(3) 0.7197(3)
C62 C 0.8478(6) -0.2637(3) 0.7135(3)
C63 C 1.0076(5) -0.1538(3) 0.7278(3)
H51 H 1.0713 -0.1899 0.7280
C64 C 1.0403(5) -0.0763(3) 0.7356(3)
H52 H 1.1255 -0.0610 0.7425
Ag1_2 Ag 2.08950(4) 0.39709(3) 0.82617(3)
Ag2_2 Ag 2.09868(4) 0.20751(3) 0.84181(2)
Ag3_2 Ag 2.01735(4) 0.22563(2) 0.68578(2)
Ag4A Ag 0.76152(4) -0.25268(2) 0.46304(3)
Ag5A Ag 0.49854(5) 0.24453(3) 1.31790(3)
Ag5_2 Ag 1.50146(5) 0.75547(3) 0.68210(3)
Ag6A Ag 0.48257(5) -0.13091(3) 0.93867(3)
O3_2 O 0.9017(4) 0.2701(3) 0.8065(4)
O4_2 O 0.8871(4) 0.3880(3) 0.7700(3)
O9A O 0.5017(4) -0.1430(3) 0.7929(2)
O10A O 0.3628(6) -0.1172(3) 0.7040(3)
N4A N 0.3645(5) 0.0486(3) 1.0281(3)
N6A N 1.2072(4) 0.1319(2) 0.5369(3)
N7_2 N 0.4685(4) -0.2152(2) 0.5621(2)
O16 O 0.3006(5) 0.4301(3) 0.2433(3)
H3 H 0.2610 0.3874 0.2424
H4 H 0.3816 0.4280 0.2479
O17 O 0.0523(5) 0.4627(3) 0.3038(4)
H5 H 0.0398 0.4446 0.2586
H6 H 0.1150 0.4938 0.3157
loop_
_geom_bond_atom_site_label_1
_geom_bond_atom_site_label_2
_geom_bond_site_symmetry_1
_geom_bond_site_symmetry_2
Ag1 O1 1_555 1_555
Ag2 O1 1_555 1_555
Ag3 O2 1_555 1_555
Ag4 O2 1_555 1_555
Ag5 O7 1_555 1_555
Ag6 O9 1_555 1_555
Br1 C59 1_555 1_555
Br2 C51 1_555 1_555
O1 C49 1_555 1_555
O2 C49 1_555 1_555
O3 C54 1_555 1_555
O4 C54 1_555 1_555
O5 Ag3 1_555 1_555
O6 Ag2 1_555 1_555
O7 C62 1_555 1_555
O8 C62 1_555 1_555
O9 N9 1_555 1_555
O10 N9 1_555 1_555
O11 N9 1_555 1_555
O12 Ag5 1_555 1_555
O13 N10 1_555 1_555
O14 N10 1_555 1_555
O15 Ag1 1_555 1_555
H1 O15 1_555 1_555
H2 O15 1_555 1_555
O16 H3 1_555 1_555
H4 O16 1_555 1_555
O17 H5 1_555 1_555
H6 O17 1_555 1_555
N1 Ag6 1_555 1_555
N2 Ag1 1_555 1_555
N3 Ag2 1_555 1_555
N4 C22 1_555 1_555
N5 Ag3 1_555 1_555
N6 C34 1_555 1_555
N7 C40 1_555 1_555
N8 Ag4 1_555 1_555
N10 O12 1_555 1_555
C1 H7 1_555 1_555
C2 N1 1_555 1_555
H8 C2 1_555 1_555
C3 N1 1_555 1_555
H9 C3 1_555 1_555
C4 C3 1_555 1_555
H10 C4 1_555 1_555
C5 C1 1_555 1_555
C6 C5 1_555 1_555
H11 C6 1_555 1_555
C7 C6 1_555 1_555
H12 C7 1_555 1_555
C8 N2 1_555 1_555
C9 N2 1_555 1_555
H13 C9 1_555 1_555
C10 C9 1_555 1_555
H14 C10 1_555 1_555
C11 C10 1_555 1_555
H15 C11 1_555 1_555
C12 C8 1_555 1_555
H16 C12 1_555 1_555
C13 N3 1_555 1_555
H17 C13 1_555 1_555
C14 C13 1_555 1_555
H18 C14 1_555 1_555
C15 C14 1_555 1_555
H19 C15 1_555 1_555
C16 C15 1_555 1_555
H20 C16 1_555 1_555
C17 N3 1_555 1_555
C18 C17 1_555 1_555
H21 C18 1_555 1_555
C19 C18 1_555 1_555
H22 C19 1_555 1_555
C20 C19 1_555 1_555
C21 C20 1_555 1_555
H23 C21 1_555 1_555
C22 C21 1_555 1_555
H24 C22 1_555 1_555
C23 N4 1_555 1_555
H25 C23 1_555 1_555
C24 C20 1_555 1_555
H26 C24 1_555 1_555
C25 H27 1_555 1_555
C26 C25 1_555 1_555
H28 C26 1_555 1_555
C27 C26 1_555 1_555
H29 C27 1_555 1_555
C28 N5 1_555 1_555
H30 C28 1_555 1_555
C29 N5 1_555 1_555
C30 C29 1_555 1_555
H31 C30 1_555 1_555
C31 C30 1_555 1_555
H32 C31 1_555 1_555
C32 C31 1_555 1_555
C33 C32 1_555 1_555
H33 C33 1_555 1_555
C34 C33 1_555 1_555
H34 C34 1_555 1_555
C35 N6 1_555 1_555
H35 C35 1_555 1_555
C36 C32 1_555 1_555
H36 C36 1_555 1_555
C37 H37 1_555 1_555
C38 C37 1_555 1_555
H38 C38 1_555 1_555
C39 C38 1_555 1_555
H39 C39 1_555 1_555
C40 C39 1_555 1_555
H40 C40 1_555 1_555
C41 N7 1_555 1_555
C42 C41 1_555 1_555
H41 C42 1_555 1_555
C43 C42 1_555 1_555
H42 C43 1_555 1_555
C44 C43 1_555 1_555
C45 C44 1_555 1_555
H43 C45 1_555 1_555
C46 N8 1_555 1_555
H44 C46 1_555 1_555
C47 N8 1_555 1_555
H45 C47 1_555 1_555
C48 C44 1_555 1_555
H46 C48 1_555 1_555
C49 C50 1_555 1_555
C50 C51 1_555 1_555
C51 C52 1_555 1_555
C52 H47 1_555 1_555
C53 C52 1_555 1_555
C54 C53 1_555 1_555
C55 C53 1_555 1_555
H48 C55 1_555 1_555
C56 C50 1_555 1_555
H49 C56 1_555 1_555
C57 O5 1_555 1_555
C58 C57 1_555 1_555
C59 C58 1_555 1_555
C60 C59 1_555 1_555
H50 C60 1_555 1_555
C61 C60 1_555 1_555
C62 C61 1_555 1_555
C63 C61 1_555 1_555
H51 C63 1_555 1_555
C64 C58 1_555 1_555
H52 C64 1_555 1_555
Ag1_2 O4 1_555 1_555
Ag2_2 O3 1_555 1_555
Ag3_2 O3 1_555 1_555
Ag4A N6 1_555 1_555
Ag5A O9 1_555 1_555
Ag5_2 N7 1_555 1_555
Ag6A N4 1_555 1_555
O3_2 Ag2 1_555 1_555
O4_2 Ag1 1_555 1_555
O9A Ag5 1_555 1_555
O10A Ag5 1_555 1_555
N4A Ag6 1_555 1_555
N6A Ag4 1_555 1_555
N7_2 Ag5 1_555 1_555
Ag3 O3_2 1_555 1_555
O6 C57 1_555 1_555
O10 Ag5A 1_555 1_555
C1 C2 1_555 1_555
C4 C5 1_555 1_555
C7 C8 1_555 1_555
C11 C12 1_555 1_555
C16 C17 1_555 1_555
C23 C24 1_555 1_555
C25 C29 1_555 1_555
C27 C28 1_555 1_555
C35 C36 1_555 1_555
C37 C41 1_555 1_555
C45 C46 1_555 1_555
C47 C48 1_555 1_555
C55 C56 1_555 1_555
C63 C64 1_555 1_555
Ag6A O9A 1_555 1_555

#END
