
#######################################################################
#
#                 Cambridge Crystallographic Data Centre
#                                CCDC 
#
#######################################################################
#
# If this CIF has been generated from an entry in the Cambridge 
# Structural Database, then it will include bibliographic, chemical, 
# crystal, experimental, refinement or atomic coordinate data resulting 
# from the CCDC's data processing and validation procedures.
#
#######################################################################

data_CUTRIT
_symmetry_cell_setting           monoclinic
_symmetry_space_group_name_H-M   'P 21/c'
_symmetry_Int_Tables_number      14
_space_group_name_Hall           '-P 2ybc'
loop_
_symmetry_equiv_pos_site_id
_symmetry_equiv_pos_as_xyz
1 x,y,z
2 -x,1/2+y,1/2-z
3 -x,-y,-z
4 x,1/2-y,1/2+z
_cell_length_a                   10.0446(5)
_cell_length_b                   22.3020(12)
_cell_length_c                   13.3085(7)
_cell_angle_alpha                90
_cell_angle_beta                 90.1650(10)
_cell_angle_gamma                90
_cell_volume                     2981.29
loop_
_atom_site_label
_atom_site_type_symbol
_atom_site_fract_x
_atom_site_fract_y
_atom_site_fract_z
Mn1 Mn 0.13376(3) 0.458414(12) -0.01851(2)
Mn2 Mn 0.25716(3) 0.570004(12) 0.10901(2)
Mn3 Mn 0.23212(3) 0.436536(12) 0.21211(2)
N1 N 0.13897(15) 0.37666(7) 0.03949(11)
N2 N 0.16801(15) 0.58375(7) -0.02339(11)
N3 N 0.29961(17) 0.50693(7) 0.29082(12)
N4 N 0.32401(17) 0.45160(9) -0.10526(13)
N5 N 0.43304(16) 0.44406(7) -0.07583(12)
N6 N 0.54136(18) 0.43596(8) -0.04379(14)
O1 O 0.21436(13) 0.48788(6) 0.09942(9)
O2 O 0.14813(14) 0.37134(6) 0.14219(9)
O3 O 0.03730(13) 0.42983(6) -0.13062(10)
O4 O 0.03568(15) 0.30754(6) -0.42422(10)
O5 O 0.08713(13) 0.53823(6) -0.06118(10)
O6 O 0.26354(14) 0.65300(6) 0.12742(10)
O7 O 0.35374(15) 0.85694(6) 0.04731(12)
O8 O 0.30421(17) 0.56260(6) 0.24575(11)
O9 O 0.25516(14) 0.38573(6) 0.32317(10)
O10 O 0.37921(15) 0.30933(7) 0.63714(10)
O11 O 0.43261(15) 0.40071(7) 0.15208(11)
H1 H 0.5078 0.4261 0.1438
C1 C 0.12107(18) 0.32723(8) -0.00996(14)
H2 H 0.1253 0.2904 0.0258
C2 C 0.09504(19) 0.32530(8) -0.11648(14)
C3 C 0.1038(2) 0.26956(8) -0.16616(14)
H3 H 0.1246 0.2347 -0.1282
C4 C 0.0832(2) 0.26427(9) -0.26777(15)
H4 H 0.0906 0.2264 -0.2999
C5 C 0.05095(18) 0.31575(9) -0.32348(14)
C6 C 0.03617(18) 0.37089(8) -0.27676(14)
H5 H 0.0113 0.4051 -0.3149
C7 C 0.05803(18) 0.37605(8) -0.17314(13)
C8 C -0.0041(2) 0.35850(10) -0.48244(15)
H6 H -0.0899 0.3734 -0.4579
H7 H -0.0128 0.3469 -0.5532
H8 H 0.0631 0.3901 -0.4761
C9 C 0.16624(18) 0.63291(8) -0.07517(14)
H9 H 0.1225 0.6326 -0.1386
C10 C 0.22661(18) 0.68776(8) -0.04209(14)
C11 C 0.23509(19) 0.73664(9) -0.10936(15)
H10 H 0.2068 0.7313 -0.1769
C12 C 0.2828(2) 0.79156(9) -0.08020(16)
H11 H 0.2914 0.8233 -0.1273
C13 C 0.31884(19) 0.79985(9) 0.02120(16)
C14 C 0.31370(19) 0.75270(8) 0.08934(15)
H12 H 0.3404 0.7589 0.1571
C15 C 0.26913(18) 0.69586(8) 0.05858(14)
C16 C 0.3928(2) 0.86657(9) 0.14981(17)
H13 H 0.3176 0.8578 0.1942
H14 H 0.4200 0.9084 0.1587
H15 H 0.4675 0.8401 0.1666
C17 C 0.3192(2) 0.50844(9) 0.38670(14)
H16 H 0.3327 0.5465 0.4171
C18 C 0.32187(19) 0.45642(8) 0.45091(14)
C19 C 0.3572(2) 0.46482(9) 0.55186(15)
H17 H 0.3697 0.5046 0.5758
C20 C 0.3745(2) 0.41769(10) 0.61798(15)
H18 H 0.3963 0.4247 0.6865
C21 C 0.35920(19) 0.35948(9) 0.58123(14)
C22 C 0.32089(19) 0.34962(9) 0.48159(14)
H19 H 0.3101 0.3097 0.4581
C23 C 0.29810(18) 0.39741(9) 0.41586(13)
C24 C 0.4180(2) 0.31786(10) 0.73998(15)
H20 H 0.5036 0.3389 0.7426
H21 H 0.4267 0.2788 0.7730
H22 H 0.3502 0.3417 0.7746
C25 C 0.4373(3) 0.33786(13) 0.1280(2)
H23 H 0.3732 0.3161 0.1697
H24 H 0.5271 0.3225 0.1409
H25 H 0.4148 0.3322 0.0569
O12 O 0.03004(16) 0.47586(8) 0.26493(12)
H26 H 0.0210 0.5172 0.2490
C26 C -0.0794(3) 0.45359(14) 0.3137(2)
H27 H -0.1455 0.4855 0.3219
H28 H -0.0528 0.4385 0.3799
H29 H -0.1181 0.4208 0.2741
Mn1B Mn -0.13376(3) 0.541586(12) 0.01851(2)
Mn2B Mn 0.74284(3) 0.429996(12) -0.10901(2)
N6B N 0.45864(18) 0.56404(8) 0.04379(14)
O5B O -0.08713(13) 0.46177(6) 0.06118(10)
loop_
_geom_bond_atom_site_label_1
_geom_bond_atom_site_label_2
_geom_bond_site_symmetry_1
_geom_bond_site_symmetry_2
Mn1 N1 1_555 1_555
Mn2 N2 1_555 1_555
Mn3 N3 1_555 1_555
N1 O2 1_555 1_555
N2 O5 1_555 1_555
N3 O8 1_555 1_555
N4 Mn1 1_555 1_555
N5 N4 1_555 1_555
N6 N5 1_555 1_555
O1 Mn1 1_555 1_555
O2 Mn3 1_555 1_555
O3 Mn1 1_555 1_555
O4 C5 1_555 1_555
O5 Mn1 1_555 1_555
O6 Mn2 1_555 1_555
O7 C13 1_555 1_555
O8 Mn2 1_555 1_555
O9 Mn3 1_555 1_555
O10 C21 1_555 1_555
O11 Mn3 1_555 1_555
H1 O11 1_555 1_555
C1 N1 1_555 1_555
H2 C1 1_555 1_555
C2 C1 1_555 1_555
C3 C2 1_555 1_555
H3 C3 1_555 1_555
C4 C3 1_555 1_555
H4 C4 1_555 1_555
C5 C4 1_555 1_555
C6 C5 1_555 1_555
H5 C6 1_555 1_555
C7 O3 1_555 1_555
C8 O4 1_555 1_555
H6 C8 1_555 1_555
H7 C8 1_555 1_555
H8 C8 1_555 1_555
C9 N2 1_555 1_555
H9 C9 1_555 1_555
C10 C9 1_555 1_555
C11 C10 1_555 1_555
H10 C11 1_555 1_555
C12 C11 1_555 1_555
H11 C12 1_555 1_555
C13 C12 1_555 1_555
C14 C13 1_555 1_555
H12 C14 1_555 1_555
C15 O6 1_555 1_555
C16 O7 1_555 1_555
H13 C16 1_555 1_555
H14 C16 1_555 1_555
H15 C16 1_555 1_555
C17 N3 1_555 1_555
H16 C17 1_555 1_555
C18 C17 1_555 1_555
C19 C18 1_555 1_555
H17 C19 1_555 1_555
C20 C19 1_555 1_555
H18 C20 1_555 1_555
C21 C20 1_555 1_555
C22 C21 1_555 1_555
H19 C22 1_555 1_555
C23 O9 1_555 1_555
C24 O10 1_555 1_555
H20 C24 1_555 1_555
H21 C24 1_555 1_555
H22 C24 1_555 1_555
C25 O11 1_555 1_555
H23 C25 1_555 1_555
H24 C25 1_555 1_555
H25 C25 1_555 1_555
O12 Mn3 1_555 1_555
H26 O12 1_555 1_555
C26 O12 1_555 1_555
H27 C26 1_555 1_555
H28 C26 1_555 1_555
H29 C26 1_555 1_555
Mn1B O5 1_555 1_555
Mn2B N6 1_555 1_555
N6B Mn2 1_555 1_555
O5B Mn1 1_555 1_555
Mn2 O1 1_555 1_555
Mn3 O1 1_555 1_555
C2 C7 1_555 1_555
C6 C7 1_555 1_555
C10 C15 1_555 1_555
C14 C15 1_555 1_555
C18 C23 1_555 1_555
C22 C23 1_555 1_555
Mn1B O5B 1_555 1_555

#END
