
#######################################################################
#
#                 Cambridge Crystallographic Data Centre
#                                CCDC 
#
#######################################################################
#
# If this CIF has been generated from an entry in the Cambridge 
# Structural Database, then it will include bibliographic, chemical, 
# crystal, experimental, refinement or atomic coordinate data resulting 
# from the CCDC's data processing and validation procedures.
#
#######################################################################

data_CUTVET
_symmetry_cell_setting           rhombohedral
_symmetry_space_group_name_H-M   'R 3 c'
_symmetry_Int_Tables_number      161
_space_group_name_Hall           'R 3 -2"c'
loop_
_symmetry_equiv_pos_site_id
_symmetry_equiv_pos_as_xyz
1 x,y,z
2 -y,x-y,z
3 -x+y,-x,z
4 -y,-x,1/2+z
5 -x+y,y,1/2+z
6 x,x-y,1/2+z
7 2/3+x,1/3+y,1/3+z
8 2/3-y,1/3+x-y,1/3+z
9 2/3-x+y,1/3-x,1/3+z
10 2/3-y,1/3-x,5/6+z
11 2/3-x+y,1/3+y,5/6+z
12 2/3+x,1/3+x-y,5/6+z
13 1/3+x,2/3+y,2/3+z
14 1/3-y,2/3+x-y,2/3+z
15 1/3-x+y,2/3-x,2/3+z
16 1/3-y,2/3-x,1/6+z
17 1/3-x+y,2/3+y,1/6+z
18 1/3+x,2/3+x-y,1/6+z
_cell_length_a                   20.6556(6)
_cell_length_b                   20.6556(6)
_cell_length_c                   13.3915(7)
_cell_angle_alpha                90
_cell_angle_beta                 90
_cell_angle_gamma                120
_cell_volume                     4948.07
loop_
_atom_site_label
_atom_site_type_symbol
_atom_site_fract_x
_atom_site_fract_y
_atom_site_fract_z
Cd1 Cd 0.657046(13) 0.576693(13) 0.88949(2)
O1 O 0.70741(15) 0.52274(16) 0.7574(2)
O2 O 0.81509(17) 0.5488(2) 0.6874(2)
H1 H 0.8594 0.5798 0.6947
O3 O 0.94912(16) 0.62655(18) 0.7313(2)
O4 O 1.02127(15) 0.69550(17) 0.85318(19)
N1 N 0.77541(15) 0.61473(16) 0.9147(2)
N2 N 0.89544(15) 0.68037(17) 0.9583(2)
N3 N 0.59875(19) 0.46423(19) 0.9715(2)
N4 N 0.5445(2) 0.3764(2) 1.0822(3)
H2 H 0.5254 0.3546 1.1380
C1 C 0.8248(2) 0.6600(3) 0.9796(4)
H3 H 0.8115 0.6766 1.0364
C2 C 0.89132(19) 0.64622(19) 0.8690(2)
C3 C 0.9585(2) 0.6573(2) 0.8161(3)
C4 C 0.81666(18) 0.60529(18) 0.8423(2)
C5 C 0.7764(2) 0.5562(2) 0.7584(3)
C6 C 0.5829(3) 0.3982(2) 0.9311(3)
H4 H 0.5936 0.3915 0.8657
C7 C 0.5498(3) 0.3435(3) 0.9987(4)
H5 H 0.5338 0.2930 0.9896
C8 C 0.5744(2) 0.4495(3) 1.0628(3)
H6 H 0.5773 0.4848 1.1085
Cd1I Cd 1.089974(13) 0.676287(13) 0.72282(2)
Cd1Q Cd 0.990379(13) 0.747020(18) 1.05616(2)
O3O O 0.70678(18) 0.71755(16) 0.8980(2)
O4O O 0.63783(17) 0.64540(15) 1.01985(19)
N2K N 0.56211(15) 0.54840(23) 0.7916(2)
loop_
_geom_bond_atom_site_label_1
_geom_bond_atom_site_label_2
_geom_bond_site_symmetry_1
_geom_bond_site_symmetry_2
Cd1 O1 1_555 1_555
O1 C5 1_555 1_555
O2 H1 1_555 1_555
O3 C3 1_555 1_555
O4 C3 1_555 1_555
N1 Cd1 1_555 1_555
N2 C1 1_555 1_555
N3 Cd1 1_555 1_555
N4 H2 1_555 1_555
C1 N1 1_555 1_555
H3 C1 1_555 1_555
C2 N2 1_555 1_555
C3 C2 1_555 1_555
C4 N1 1_555 1_555
C5 O2 1_555 1_555
C6 N3 1_555 1_555
H4 C6 1_555 1_555
C7 N4 1_555 1_555
H5 C7 1_555 1_555
C8 N3 1_555 1_555
H6 C8 1_555 1_555
Cd1I O3 1_555 1_555
Cd1Q N2 1_555 1_555
O3O Cd1 1_555 1_555
O4O Cd1 1_555 1_555
N2K Cd1 1_555 1_555
O4 Cd1I 1_555 1_555
N4 C8 1_555 1_555
C2 C4 1_555 1_555
C4 C5 1_555 1_555
C6 C7 1_555 1_555

#END
