
#######################################################################
#
#                 Cambridge Crystallographic Data Centre
#                                CCDC 
#
#######################################################################
#
# If this CIF has been generated from an entry in the Cambridge 
# Structural Database, then it will include bibliographic, chemical, 
# crystal, experimental, refinement or atomic coordinate data resulting 
# from the CCDC's data processing and validation procedures.
#
#######################################################################

data_CUVCOM
_symmetry_cell_setting           triclinic
_symmetry_space_group_name_H-M   'P -1'
_symmetry_Int_Tables_number      2
_space_group_name_Hall           '-P 1'
loop_
_symmetry_equiv_pos_site_id
_symmetry_equiv_pos_as_xyz
1 x,y,z
2 -x,-y,-z
_cell_length_a                   10.3354(4)
_cell_length_b                   10.9653(4)
_cell_length_c                   14.0982(5)
_cell_angle_alpha                88.6010(10)
_cell_angle_beta                 84.4200(10)
_cell_angle_gamma                77.1690(10)
_cell_volume                     1550.47
loop_
_atom_site_label
_atom_site_type_symbol
_atom_site_fract_x
_atom_site_fract_y
_atom_site_fract_z
U1 U 0.697646(12) 0.555928(11) 0.143014(8)
U2 U 0.182862(12) 0.626037(11) 0.194059(8)
O1 O 0.6750(3) 0.6935(2) 0.21022(18)
O2 O 0.8408(2) 0.6387(2) 0.03452(16)
O3 O 0.5594(3) 0.4772(2) 0.25813(17)
O4 O 0.5146(2) 0.6442(2) 0.06582(17)
O5 O 0.7196(3) 0.4184(2) 0.07696(17)
O6 O 0.8801(3) 0.4656(2) 0.22171(17)
O7 O 0.2634(3) 0.4921(2) 0.12846(18)
O8 O 0.3076(2) 0.7492(2) 0.10666(16)
O9 O 1.0533(3) 0.5095(3) 0.28256(19)
O10 O 0.3507(2) 0.5810(2) 0.29350(17)
O11 O 1.0213(3) 0.6716(3) 0.09077(18)
O12 O 0.1042(3) 0.7572(2) 0.26366(18)
C1 C 0.4160(3) 0.7327(3) 0.0541(2)
C2 C 0.4282(3) 0.8221(3) -0.0249(2)
C3 C 0.3522(4) 0.9438(3) -0.0180(3)
H1 H 0.2906 0.9684 0.0344
C4 C 0.3697(4) 1.0283(3) -0.0907(3)
H2 H 0.3210 1.1104 -0.0857
C5 C 0.4583(4) 0.9923(3) -0.1702(3)
H3 H 0.4678 1.0492 -0.2189
C6 C 0.5325(3) 0.8708(3) -0.1766(2)
C7 C 0.5193(3) 0.7861(3) -0.1039(2)
H4 H 0.5713 0.7051 -0.1079
S1 S 0.65140(11) 0.81768(10) -0.27662(6)
C8 C 0.4518(3) 0.4982(3) 0.3107(2)
C9 C 0.4413(3) 0.4218(3) 0.3986(2)
C10 C 0.3364(4) 0.4599(4) 0.4686(2)
H5 H 0.2738 0.5341 0.4614
C11 C 0.3260(4) 0.3865(4) 0.5490(3)
H6 H 0.2568 0.4121 0.5965
C12 C 0.4186(4) 0.2744(4) 0.5594(3)
H7 H 0.4112 0.2253 0.6136
C13 C 0.5217(4) 0.2365(3) 0.4886(3)
C14 C 0.5336(3) 0.3110(3) 0.4087(2)
H8 H 0.6038 0.2863 0.3619
S2 S 0.63324(11) 0.09158(11) 0.51041(9)
C15 C 0.9384(3) 0.6901(3) 0.0298(2)
C16 C 0.9558(3) 0.7788(3) -0.0501(2)
C17 C 0.8663(3) 0.8031(3) -0.1196(2)
H9 H 0.7985 0.7597 -0.1194
C18 C 0.8789(3) 0.8927(3) -0.1893(2)
C19 C 0.9804(4) 0.9561(3) -0.1895(3)
H10 H 0.9881 1.0166 -0.2358
C20 C 1.0697(4) 0.9306(4) -0.1220(3)
H11 H 1.1386 0.9729 -0.1233
C21 C 1.0576(4) 0.8423(3) -0.0522(3)
H12 H 1.1182 0.8254 -0.0063
S3 S 0.77126(10) 0.94123(10) -0.27990(7)
C22 C 0.9645(3) 0.4484(3) 0.2819(2)
C23 C 0.9577(3) 0.3519(3) 0.3563(2)
C24 C 0.8773(3) 0.2674(3) 0.3471(2)
H13 H 0.8288 0.2720 0.2944
C25 C 0.8691(4) 0.1765(3) 0.4161(3)
C26 C 0.9370(4) 0.1721(3) 0.4962(3)
H14 H 0.9293 0.1128 0.5435
C27 C 1.0165(4) 0.2567(4) 0.5058(3)
H15 H 1.0619 0.2545 0.5598
C28 C 1.0287(4) 0.3446(3) 0.4349(3)
H16 H 1.0850 0.3989 0.4405
S4 S 0.77093(11) 0.06682(9) 0.39586(9)
U2_2 U 1.182862(12) 0.626037(11) 0.194059(8)
O9_2 O 0.0533(3) 0.5095(3) 0.28256(19)
O11_2 O 0.0213(3) 0.6716(3) 0.09077(18)
loop_
_geom_bond_atom_site_label_1
_geom_bond_atom_site_label_2
_geom_bond_site_symmetry_1
_geom_bond_site_symmetry_2
U1 O1 1_555 1_555
U2 O7 1_555 1_555
O2 U1 1_555 1_555
O3 U1 1_555 1_555
O4 U1 1_555 1_555
O5 U1 1_555 1_555
O6 U1 1_555 1_555
O8 U2 1_555 1_555
O9 C22 1_555 1_555
O10 U2 1_555 1_555
O11 C15 1_555 1_555
O12 U2 1_555 1_555
C1 O4 1_555 1_555
C2 C1 1_555 1_555
C3 C2 1_555 1_555
H1 C3 1_555 1_555
C4 C3 1_555 1_555
H2 C4 1_555 1_555
C5 C4 1_555 1_555
H3 C5 1_555 1_555
C6 C5 1_555 1_555
C7 C2 1_555 1_555
H4 C7 1_555 1_555
S1 C6 1_555 1_555
C8 O3 1_555 1_555
C9 C8 1_555 1_555
C10 C9 1_555 1_555
H5 C10 1_555 1_555
C11 C10 1_555 1_555
H6 C11 1_555 1_555
C12 C11 1_555 1_555
H7 C12 1_555 1_555
C13 C12 1_555 1_555
C14 C9 1_555 1_555
H8 C14 1_555 1_555
S2 C13 1_555 1_555
C15 O2 1_555 1_555
C16 C15 1_555 1_555
C17 C16 1_555 1_555
H9 C17 1_555 1_555
C18 C17 1_555 1_555
C19 C18 1_555 1_555
H10 C19 1_555 1_555
C20 C19 1_555 1_555
H11 C20 1_555 1_555
C21 C16 1_555 1_555
H12 C21 1_555 1_555
S3 S1 1_555 1_555
C22 O6 1_555 1_555
C23 C22 1_555 1_555
C24 C23 1_555 1_555
H13 C24 1_555 1_555
C25 C24 1_555 1_555
C26 C25 1_555 1_555
H14 C26 1_555 1_555
C27 C26 1_555 1_555
H15 C27 1_555 1_555
C28 C23 1_555 1_555
H16 C28 1_555 1_555
S4 S2 1_555 1_555
U2_2 O9 1_555 1_555
O9_2 U2 1_555 1_555
O11_2 U2 1_555 1_555
O8 C1 1_555 1_555
O10 C8 1_555 1_555
O11 U2_2 1_555 1_555
C6 C7 1_555 1_555
C13 C14 1_555 1_555
C18 S3 1_555 1_555
C20 C21 1_555 1_555
C25 S4 1_555 1_555
C27 C28 1_555 1_555

#END
