
#######################################################################
#
#                 Cambridge Crystallographic Data Centre
#                                CCDC 
#
#######################################################################
#
# If this CIF has been generated from an entry in the Cambridge 
# Structural Database, then it will include bibliographic, chemical, 
# crystal, experimental, refinement or atomic coordinate data resulting 
# from the CCDC's data processing and validation procedures.
#
#######################################################################

data_CUVCIG
_symmetry_cell_setting           monoclinic
_symmetry_space_group_name_H-M   'C 2/c'
_symmetry_Int_Tables_number      15
_space_group_name_Hall           '-C 2yn'
loop_
_symmetry_equiv_pos_site_id
_symmetry_equiv_pos_as_xyz
1 x,y,z
2 -x,y,1/2-z
3 1/2+x,1/2+y,z
4 1/2-x,1/2+y,1/2-z
5 -x,-y,-z
6 x,-y,1/2+z
7 1/2-x,1/2-y,-z
8 1/2+x,1/2-y,1/2+z
_cell_length_a                   21.8290(11)
_cell_length_b                   9.9841(5)
_cell_length_c                   21.7784(11)
_cell_angle_alpha                90
_cell_angle_beta                 112.2140(10)
_cell_angle_gamma                90
_cell_volume                     4394.16
loop_
_atom_site_label
_atom_site_type_symbol
_atom_site_fract_x
_atom_site_fract_y
_atom_site_fract_z
U1 U 0.132111(5) 0.107863(12) 0.453481(6)
S1 S -0.27371(5) 0.27502(11) 0.16700(6)
S2 S 0.04776(4) 0.85156(9) 0.25428(5)
S3 S -0.34529(5) 0.16324(14) 0.17891(6)
O1 O 0.15503(13) 0.0559(3) 0.38810(14)
O2 O 0.10881(14) 0.1542(3) 0.51912(15)
O3 O 0.01450(12) 0.0309(3) 0.39425(14)
O4 O 0.04035(12) 0.2316(3) 0.37467(15)
O5 O 0.17245(12) 0.3200(3) 0.45417(15)
O6 O 0.26211(12) 0.4401(3) 0.47368(15)
O7 O -0.37652(12) -0.3731(2) -0.01833(15)
O8 O -0.48087(13) -0.3061(3) -0.04623(17)
H1 H -0.4883 -0.3728 -0.0699
C1 C -0.00270(16) 0.1419(4) 0.36418(19)
C2 C -0.07141(15) 0.1670(3) 0.31778(16)
C3 C -0.12342(16) 0.0844(3) 0.31398(19)
H2 H -0.1159 0.0097 0.3413
C4 C -0.18707(17) 0.1128(4) 0.26935(19)
H3 H -0.2222 0.0571 0.2666
C5 C -0.19766(16) 0.2242(3) 0.22922(17)
C6 C -0.1459(2) 0.3084(4) 0.2338(2)
H4 H -0.1535 0.3843 0.2072
C7 C -0.08336(19) 0.2795(4) 0.2778(2)
H5 H -0.0485 0.3362 0.2809
C8 C 0.20107(15) 0.4227(3) 0.44562(17)
C9 C 0.16159(14) 0.5307(3) 0.40117(15)
C10 C 0.09294(15) 0.5291(3) 0.37764(16)
H6 H 0.0713 0.4620 0.3912
C11 C 0.05648(15) 0.6270(3) 0.33402(17)
H7 H 0.0105 0.6253 0.3183
C12 C 0.08847(15) 0.7274(3) 0.31380(15)
C13 C 0.15727(16) 0.7303(4) 0.33810(17)
H8 H 0.1789 0.7985 0.3252
C14 C 0.19359(16) 0.6320(3) 0.38131(18)
H9 H 0.2396 0.6338 0.3971
C15 C -0.41727(16) -0.2950(4) -0.01296(19)
C16 C -0.39818(16) -0.1783(3) 0.03145(16)
C17 C -0.33307(16) -0.1332(3) 0.05682(18)
H10 H -0.3016 -0.1750 0.0441
C18 C -0.31458(16) -0.0269(4) 0.10067(18)
H11 H -0.2710 0.0032 0.1175
C19 C -0.36229(16) 0.0341(4) 0.11922(16)
C20 C -0.42758(16) -0.0079(4) 0.09248(19)
H12 H -0.4593 0.0362 0.1039
C21 C -0.44573(17) -0.1142(4) 0.04920(19)
H13 H -0.4895 -0.1432 0.0319
U1G U 0.632111(5) -0.607863(12) 0.953481(6)
U1F U 0.367889(5) 0.392137(12) 0.546519(6)
U1G_2 U -0.367889(5) -0.607863(12) -0.046519(6)
U1A U -0.132111(5) 0.107863(12) 0.046519(6)
U1G_3 U -0.367889(5) 0.392137(12) -0.046519(6)
S1G S 0.22629(5) -0.77502(11) 0.66700(6)
S2A S -0.04776(4) 0.85156(9) 0.24572(5)
S3G S 0.15471(5) -0.66324(14) 0.67891(6)
O1G O 0.65503(13) -0.5559(3) 0.88810(14)
O2G O 0.60881(14) -0.6542(3) 1.01912(15)
O3G O 0.51450(12) -0.5309(3) 0.89425(14)
O4G O 0.54035(12) -0.7316(3) 0.87467(15)
O5A O -0.17245(12) 0.3200(3) 0.04583(15)
O5G O 0.67245(12) -0.8200(3) 0.95417(15)
O6A O -0.26211(12) 0.4401(3) 0.02632(15)
O6F O 0.23789(12) 0.0599(3) 0.52632(15)
O6A_2 O 0.73789(12) -0.5599(3) 1.02632(15)
O7G O 0.12348(12) -0.1269(2) 0.48167(15)
O7_2 O 0.62348(12) -0.3731(2) 0.98167(15)
O8G O 0.01913(13) -0.1939(3) 0.45377(17)
H1G H 0.0117 -0.1272 0.4301
C1G C 0.49730(16) -0.6419(4) 0.86418(19)
C2G C 0.42859(15) -0.6670(3) 0.81778(16)
C3G C 0.37658(16) -0.5844(3) 0.81398(19)
H2G H 0.3841 -0.5097 0.8413
C4G C 0.31293(17) -0.6128(4) 0.76935(19)
H3G H 0.2778 -0.5571 0.7666
C5G C 0.30234(16) -0.7242(3) 0.72922(17)
C6G C 0.3541(2) -0.8084(4) 0.7338(2)
H4G H 0.3465 -0.8843 0.7072
C7G C 0.41664(19) -0.7795(4) 0.7778(2)
H5G H 0.4515 -0.8362 0.7809
C8A C -0.20107(15) 0.4227(3) 0.05438(17)
C9A C -0.16159(14) 0.5307(3) 0.09883(15)
C10A C -0.09294(15) 0.5291(3) 0.12236(16)
H6A H -0.0713 0.4620 0.1088
C11A C -0.05648(15) 0.6270(3) 0.16598(17)
H7A H -0.0105 0.6253 0.1817
C12A C -0.08847(15) 0.7274(3) 0.18620(15)
C13A C -0.15727(16) 0.7303(4) 0.16190(17)
H8A H -0.1789 0.7985 0.1748
C14A C -0.19359(16) 0.6320(3) 0.11869(18)
H9A H -0.2396 0.6338 0.1029
C15G C 0.08273(16) -0.2050(4) 0.48704(19)
C16G C 0.10182(16) -0.3217(3) 0.53145(16)
C17G C 0.16693(16) -0.3668(3) 0.55682(18)
H10G H 0.1984 -0.3250 0.5441
C18G C 0.18542(16) -0.4731(4) 0.60067(18)
H11G H 0.2290 -0.5032 0.6175
C19G C 0.13771(16) -0.5341(4) 0.61922(16)
C20G C 0.07242(16) -0.4921(4) 0.59248(19)
H12G H 0.0407 -0.5362 0.6039
C21G C 0.05427(17) -0.3858(4) 0.54920(19)
H13G H 0.0105 -0.3568 0.5319
loop_
_geom_bond_atom_site_label_1
_geom_bond_atom_site_label_2
_geom_bond_site_symmetry_1
_geom_bond_site_symmetry_2
U1 O1 1_555 1_555
S1 S3 1_555 1_555
S2 C12 1_555 1_555
S3 C19 1_555 1_555
O2 U1 1_555 1_555
O3 U1 1_555 1_555
O4 U1 1_555 1_555
O5 U1 1_555 1_555
O6 C8 1_555 1_555
O7 C15 1_555 1_555
O8 H1 1_555 1_555
C1 O3 1_555 1_555
C2 C1 1_555 1_555
C3 C2 1_555 1_555
H2 C3 1_555 1_555
C4 C3 1_555 1_555
H3 C4 1_555 1_555
C5 S1 1_555 1_555
C6 C5 1_555 1_555
H4 C6 1_555 1_555
C7 C2 1_555 1_555
H5 C7 1_555 1_555
C8 O5 1_555 1_555
C9 C8 1_555 1_555
C10 C9 1_555 1_555
H6 C10 1_555 1_555
C11 C10 1_555 1_555
H7 C11 1_555 1_555
C12 C11 1_555 1_555
C13 C12 1_555 1_555
H8 C13 1_555 1_555
C14 C9 1_555 1_555
H9 C14 1_555 1_555
C15 O8 1_555 1_555
C16 C15 1_555 1_555
C17 C16 1_555 1_555
H10 C17 1_555 1_555
C18 C17 1_555 1_555
H11 C18 1_555 1_555
C19 C18 1_555 1_555
C20 C19 1_555 1_555
H12 C20 1_555 1_555
C21 C16 1_555 1_555
H13 C21 1_555 1_555
U1G O1G 1_555 1_555
U1F O6 1_555 1_555
U1G_2 O7 1_555 1_555
U1A O5A 1_555 1_555
U1G_3 O6A 1_555 1_555
S1G S3G 1_555 1_555
S2A S2 1_555 1_555
S3G C19G 1_555 1_555
O2G U1G 1_555 1_555
O3G U1G 1_555 1_555
O4G U1G 1_555 1_555
O5A C8A 1_555 1_555
O5G U1G 1_555 1_555
O6A C8A 1_555 1_555
O6F U1 1_555 1_555
O6A_2 U1G 1_555 1_555
O7G U1 1_555 1_555
O7_2 U1G 1_555 1_555
O8G H1G 1_555 1_555
C1G O3G 1_555 1_555
C2G C1G 1_555 1_555
C3G C2G 1_555 1_555
H2G C3G 1_555 1_555
C4G C3G 1_555 1_555
H3G C4G 1_555 1_555
C5G S1G 1_555 1_555
C6G C5G 1_555 1_555
H4G C6G 1_555 1_555
C7G C2G 1_555 1_555
H5G C7G 1_555 1_555
C8A C9A 1_555 1_555
C9A C10A 1_555 1_555
C10A H6A 1_555 1_555
C11A C10A 1_555 1_555
H7A C11A 1_555 1_555
C12A S2A 1_555 1_555
C13A C12A 1_555 1_555
H8A C13A 1_555 1_555
C14A C9A 1_555 1_555
H9A C14A 1_555 1_555
C15G O7G 1_555 1_555
C16G C15G 1_555 1_555
C17G C16G 1_555 1_555
H10G C17G 1_555 1_555
C18G C17G 1_555 1_555
H11G C18G 1_555 1_555
C19G C18G 1_555 1_555
C20G C19G 1_555 1_555
H12G C20G 1_555 1_555
C21G C16G 1_555 1_555
H13G C21G 1_555 1_555
O4 C1 1_555 1_555
C4 C5 1_555 1_555
C6 C7 1_555 1_555
C13 C14 1_555 1_555
C20 C21 1_555 1_555
O4G C1G 1_555 1_555
O8G C15G 1_555 1_555
C4G C5G 1_555 1_555
C6G C7G 1_555 1_555
C11A C12A 1_555 1_555
C13A C14A 1_555 1_555
C20G C21G 1_555 1_555

#END
