
#######################################################################
#
#                 Cambridge Crystallographic Data Centre
#                                CCDC 
#
#######################################################################
#
# If this CIF has been generated from an entry in the Cambridge 
# Structural Database, then it will include bibliographic, chemical, 
# crystal, experimental, refinement or atomic coordinate data resulting 
# from the CCDC's data processing and validation procedures.
#
#######################################################################

data_CUVHIL02
_symmetry_cell_setting           rhombohedral
_symmetry_space_group_name_H-M   'R -3'
_symmetry_Int_Tables_number      148
_space_group_name_Hall           '-R 3'
loop_
_symmetry_equiv_pos_site_id
_symmetry_equiv_pos_as_xyz
1 x,y,z
2 -y,x-y,z
3 -x+y,-x,z
4 2/3+x,1/3+y,1/3+z
5 2/3-y,1/3+x-y,1/3+z
6 2/3-x+y,1/3-x,1/3+z
7 1/3+x,2/3+y,2/3+z
8 1/3-y,2/3+x-y,2/3+z
9 1/3-x+y,2/3-x,2/3+z
10 -x,-y,-z
11 y,-x+y,-z
12 x-y,x,-z
13 1/3-x,2/3-y,2/3-z
14 1/3+y,2/3-x+y,2/3-z
15 1/3+x-y,2/3+x,2/3-z
16 2/3-x,1/3-y,1/3-z
17 2/3+y,1/3-x+y,1/3-z
18 2/3+x-y,1/3+x,1/3-z
_cell_length_a                   36.4310(12)
_cell_length_b                   36.4310(12)
_cell_length_c                   11.6867(8)
_cell_angle_alpha                90
_cell_angle_beta                 90
_cell_angle_gamma                120
_cell_volume                     13432.7
loop_
_atom_site_label
_atom_site_type_symbol
_atom_site_fract_x
_atom_site_fract_y
_atom_site_fract_z
Nd1 Nd 0.436790(11) -0.046430(11) 0.00780(3)
O1 O 0.37673(18) 0.11490(18) -0.1406(5)
O2 O 0.4315(2) 0.17908(19) -0.1499(5)
O3 O 0.45052(15) 0.02597(16) 0.0291(4)
O4 O 0.51905(15) 0.07753(16) 0.0394(4)
O5 O 0.5587(2) 0.0352(2) 0.2105(5)
O6 O 0.50062(15) -0.00746(16) 0.1230(4)
O7 O 0.3707(2) -0.04857(19) -0.0580(5)
O8 O 0.38934(19) -0.1178(2) -0.0696(6)
C1 C 0.4104(2) 0.1427(2) -0.1030(6)
C2 C 0.4303(2) 0.1327(2) -0.0023(6)
C3 C 0.4503(2) 0.1095(2) -0.0220(6)
C4 C 0.4641(2) 0.0940(2) 0.0690(6)
C5 C 0.4799(2) 0.0631(2) 0.0431(6)
C6 C 0.4580(2) 0.1033(2) 0.1801(5)
C7 C 0.4374(2) 0.1270(3) 0.2052(6)
C8 C 0.4238(2) 0.1404(2) 0.1113(6)
C9 C 0.5214(3) 0.0054(3) 0.2108(6)
C10 C 0.3640(3) -0.0201(3) -0.0846(8)
H1 H 0.3875 0.0070 -0.0910
C11 C 0.3221(4) 0.0128(4) -0.1275(15)
H2 H 0.3496 0.0378 -0.1283
H3 H 0.3051 0.0153 -0.0686
H4 H 0.3086 0.0096 -0.2003
C12 C 0.2906(4) -0.0636(4) -0.1026(12)
H5 H 0.2985 -0.0847 -0.0886
H6 H 0.2763 -0.0691 -0.1748
H7 H 0.2722 -0.0645 -0.0427
C13 C 0.3237(6) -0.1949(9) -0.120(3)
H8 H 0.3248 -0.1770 -0.0574
H9 H 0.3150 -0.2227 -0.0904
H10 H 0.3037 -0.1966 -0.1754
C14 C 0.3731(8) -0.2046(7) -0.2916(19)
H11 H 0.4016 -0.1903 -0.3207
H12 H 0.3539 -0.2068 -0.3510
H13 H 0.3659 -0.2324 -0.2659
C15 C 0.3966(6) -0.1374(6) -0.1435(16)
N1 N 0.4307(3) 0.1343(3) 0.3172(6)
N2 N 0.3266(3) -0.0240(2) -0.1052(7)
N3 N 0.3694(5) -0.1756(7) -0.1764(18)
I1 I 0.46511(3) 0.10003(3) -0.18933(5)
I2 I 0.48161(2) 0.08296(3) 0.31446(5)
I3 I 0.39052(2) 0.17284(2) 0.14161(5)
Nd1G Nd 0.379763(11) 0.149887(16) -0.32553(3)
Nd1I Nd 0.563210(11) 0.046430(11) -0.00780(3)
O1E O 0.40484(25) -0.04340(18) 0.1927(5)
O2E O 0.41425(28) -0.0982(2) 0.1834(5)
O4I O 0.48095(15) -0.07753(16) -0.0394(4)
O5I O 0.4413(2) -0.0352(2) -0.2105(5)
O6I O 0.49938(15) 0.00746(16) -0.1230(4)
loop_
_geom_bond_atom_site_label_1
_geom_bond_atom_site_label_2
_geom_bond_site_symmetry_1
_geom_bond_site_symmetry_2
Nd1 O3 1_555 1_555
O1 C1 1_555 1_555
O2 C1 1_555 1_555
O3 C5 1_555 1_555
O4 C5 1_555 1_555
O5 C9 1_555 1_555
O6 Nd1 1_555 1_555
O7 Nd1 1_555 1_555
O8 Nd1 1_555 1_555
C1 C2 1_555 1_555
C2 C3 1_555 1_555
C3 C4 1_555 1_555
C4 C5 1_555 1_555
C6 C4 1_555 1_555
C7 C6 1_555 1_555
C8 C2 1_555 1_555
C9 O6 1_555 1_555
C10 O7 1_555 1_555
H1 C10 1_555 1_555
C11 H2 1_555 1_555
H3 C11 1_555 1_555
H4 C11 1_555 1_555
C12 H5 1_555 1_555
H6 C12 1_555 1_555
H7 C12 1_555 1_555
C13 H8 1_555 1_555
H9 C13 1_555 1_555
H10 C13 1_555 1_555
C14 H11 1_555 1_555
H12 C14 1_555 1_555
H13 C14 1_555 1_555
C15 O8 1_555 1_555
N1 C7 1_555 1_555
N2 C10 1_555 1_555
N3 C13 1_555 1_555
I1 C3 1_555 1_555
I2 C6 1_555 1_555
I3 C8 1_555 1_555
Nd1G O1 1_555 1_555
Nd1I O4 1_555 1_555
O1E Nd1 1_555 1_555
O2E Nd1 1_555 1_555
O4I Nd1 1_555 1_555
O5I Nd1 1_555 1_555
O6I Nd1 1_555 1_555
O2 Nd1G 1_555 1_555
O5 Nd1I 1_555 1_555
O6 Nd1I 1_555 1_555
C7 C8 1_555 1_555
C11 N2 1_555 1_555
C12 N2 1_555 1_555
C14 N3 1_555 1_555
C15 N3 1_555 1_555
Nd1I O6I 1_555 1_555

#END
