
#######################################################################
#
#                 Cambridge Crystallographic Data Centre
#                                CCDC 
#
#######################################################################
#
# If this CIF has been generated from an entry in the Cambridge 
# Structural Database, then it will include bibliographic, chemical, 
# crystal, experimental, refinement or atomic coordinate data resulting 
# from the CCDC's data processing and validation procedures.
#
#######################################################################

data_CUVHIL
_symmetry_cell_setting           rhombohedral
_symmetry_space_group_name_H-M   'R -3'
_symmetry_Int_Tables_number      148
_space_group_name_Hall           '-R 3'
loop_
_symmetry_equiv_pos_site_id
_symmetry_equiv_pos_as_xyz
1 x,y,z
2 -y,x-y,z
3 -x+y,-x,z
4 2/3+x,1/3+y,1/3+z
5 2/3-y,1/3+x-y,1/3+z
6 2/3-x+y,1/3-x,1/3+z
7 1/3+x,2/3+y,2/3+z
8 1/3-y,2/3+x-y,2/3+z
9 1/3-x+y,2/3-x,2/3+z
10 -x,-y,-z
11 y,-x+y,-z
12 x-y,x,-z
13 1/3-x,2/3-y,2/3-z
14 1/3+y,2/3-x+y,2/3-z
15 1/3+x-y,2/3+x,2/3-z
16 2/3-x,1/3-y,1/3-z
17 2/3+y,1/3-x+y,1/3-z
18 2/3+x-y,1/3+x,1/3-z
_cell_length_a                   36.405(3)
_cell_length_b                   36.405(3)
_cell_length_c                   11.6941(17)
_cell_angle_alpha                90
_cell_angle_beta                 90
_cell_angle_gamma                120
_cell_volume                     13422.1
loop_
_atom_site_label
_atom_site_type_symbol
_atom_site_fract_x
_atom_site_fract_y
_atom_site_fract_z
Nd1 Nd 0.379749(10) 0.150128(9) 0.67452(3)
O1 O 0.41035(14) 0.22531(13) 0.6281(4)
O2 O 0.35891(14) 0.24214(13) 0.6404(4)
O3 O 0.44765(17) 0.40479(18) 0.8082(4)
O4 O 0.51153(17) 0.41403(18) 0.8153(5)
O5 O 0.34087(14) 0.17405(14) 0.7890(4)
O6 O 0.2985(2) 0.1904(2) 0.8774(4)
O7 O 0.45040(18) 0.17403(19) 0.5969(6)
O8 O 0.38210(19) 0.08633(16) 0.6075(5)
C1 C 0.3960(2) 0.24983(18) 0.6250(5)
C2 C 0.42651(19) 0.29673(17) 0.5988(5)
C3 C 0.4420(2) 0.32539(19) 0.6890(5)
C4 C 0.4643(2) 0.3686(2) 0.6688(5)
C5 C 0.4758(2) 0.3987(2) 0.7704(5)
C6 C 0.4719(2) 0.38279(17) 0.5557(5)
C7 C 0.4582(2) 0.35535(19) 0.4606(5)
C8 C 0.4357(2) 0.31185(18) 0.4869(5)
C9 C 0.3275(3) 0.1823(3) 0.8769(6)
C10 C 0.4696(5) 0.1996(6) 0.5213(15)
H1 H 0.4553 0.2116 0.4856
C11 C 0.5283(7) 0.1844(12) 0.537(3)
H2 H 0.5128 0.1694 0.6037
H3 H 0.5574 0.2032 0.5567
H4 H 0.5266 0.1645 0.4803
C12 C 0.3530(3) 0.0512(2) 0.5800(8)
H5 H 0.3261 0.0479 0.5724
C13 C 0.3970(3) 0.0198(3) 0.5686(11)
H6 H 0.4187 0.0486 0.5831
H7 H 0.4029 0.0103 0.4982
H8 H 0.3963 0.0020 0.6302
C14 C 0.3205(4) -0.0229(3) 0.5390(14)
H9 H 0.2957 -0.0202 0.5354
H10 H 0.3175 -0.0421 0.5995
H11 H 0.3241 -0.0338 0.4676
N1 N 0.4658(2) 0.36964(19) 0.3514(5)
N2 N 0.5077(5) 0.2120(9) 0.4850(19)
N3 N 0.3569(2) 0.0178(2) 0.5604(6)
I1 I 0.43314(2) 0.301774(19) 0.85706(5)
I2 I 0.50462(2) 0.448183(14) 0.52474(4)
I3 I 0.41440(2) 0.267754(16) 0.35297(4)
C15 C 0.5365(6) 0.2435(6) 0.3678(16)
H12 H 0.5244 0.2604 0.3436
H13 H 0.5353 0.2256 0.3060
H14 H 0.5655 0.2618 0.3898
Nd1O Nd 0.286918(10) 0.183205(9) 0.65881(3)
Nd1M Nd 0.483461(9) 0.437046(13) 0.99215(3)
O2O O 0.30776(14) 0.09119(13) 0.6929(4)
O3N O 0.37619(25) 0.11432(17) 0.8585(4)
O4N O 0.43083(25) 0.17820(17) 0.8514(5)
O5O O 0.32580(14) 0.15928(14) 0.5443(4)
O6O O 0.3682(2) 0.1429(2) 0.4559(4)
loop_
_geom_bond_atom_site_label_1
_geom_bond_atom_site_label_2
_geom_bond_site_symmetry_1
_geom_bond_site_symmetry_2
Nd1 O1 1_555 1_555
O1 C1 1_555 1_555
O2 C1 1_555 1_555
O3 C5 1_555 1_555
O4 C5 1_555 1_555
O5 Nd1 1_555 1_555
O6 C9 1_555 1_555
O7 Nd1 1_555 1_555
O8 Nd1 1_555 1_555
C1 C2 1_555 1_555
C2 C3 1_555 1_555
C3 C4 1_555 1_555
C4 C5 1_555 1_555
C6 C4 1_555 1_555
C7 C6 1_555 1_555
C8 C2 1_555 1_555
C9 O5 1_555 1_555
C10 O7 1_555 1_555
H1 C10 1_555 1_555
C11 H2 1_555 1_555
H3 C11 1_555 1_555
H4 C11 1_555 1_555
C12 O8 1_555 1_555
H5 C12 1_555 1_555
C13 H6 1_555 1_555
H7 C13 1_555 1_555
H8 C13 1_555 1_555
C14 H9 1_555 1_555
H10 C14 1_555 1_555
H11 C14 1_555 1_555
N1 C7 1_555 1_555
N2 C10 1_555 1_555
N3 C12 1_555 1_555
I1 C3 1_555 1_555
I2 C6 1_555 1_555
I3 C8 1_555 1_555
C15 N2 1_555 1_555
H12 C15 1_555 1_555
H13 C15 1_555 1_555
H14 C15 1_555 1_555
Nd1O O2 1_555 1_555
Nd1M O3 1_555 1_555
O2O Nd1 1_555 1_555
O3N Nd1 1_555 1_555
O4N Nd1 1_555 1_555
O5O Nd1 1_555 1_555
O6O Nd1 1_555 1_555
O4 Nd1M 1_555 1_555
O5 Nd1O 1_555 1_555
O6 Nd1O 1_555 1_555
C7 C8 1_555 1_555
C11 N2 1_555 1_555
C13 N3 1_555 1_555
C14 N3 1_555 1_555
Nd1O O5O 1_555 1_555

#END
