
#######################################################################
#
#                 Cambridge Crystallographic Data Centre
#                                CCDC 
#
#######################################################################
#
# If this CIF has been generated from an entry in the Cambridge 
# Structural Database, then it will include bibliographic, chemical, 
# crystal, experimental, refinement or atomic coordinate data resulting 
# from the CCDC's data processing and validation procedures.
#
#######################################################################

data_CUVPUF
_symmetry_cell_setting           monoclinic
_symmetry_space_group_name_H-M   'C 2/c'
_symmetry_Int_Tables_number      15
_space_group_name_Hall           '-C 2yn'
loop_
_symmetry_equiv_pos_site_id
_symmetry_equiv_pos_as_xyz
1 x,y,z
2 -x,y,1/2-z
3 1/2+x,1/2+y,z
4 1/2-x,1/2+y,1/2-z
5 -x,-y,-z
6 x,-y,1/2+z
7 1/2-x,1/2-y,-z
8 1/2+x,1/2-y,1/2+z
_cell_length_a                   18.722(2)
_cell_length_b                   6.7675(9)
_cell_length_c                   30.223(4)
_cell_angle_alpha                90
_cell_angle_beta                 107.881(9)
_cell_angle_gamma                90
_cell_volume                     3644.32
loop_
_atom_site_label
_atom_site_type_symbol
_atom_site_fract_x
_atom_site_fract_y
_atom_site_fract_z
K1 K 0.60187(8) 0.3174(2) 0.78119(5)
O1 O 0.5182(3) 0.4632(8) 0.69862(15)
O2 O 0.5541(2) 0.7701(7) 0.69015(13)
O3 O 0.3651(2) 0.7492(7) 0.65007(15)
O4 O 0.3251(3) 0.4431(8) 0.62695(14)
O5 O 0.6695(2) 0.7210(6) 0.77106(13)
O6 O 0.7275(2) 0.1170(7) 0.77638(14)
O7 O 0.5000 0.0117(9) 0.7500
C1 C 0.5206(3) 0.6033(10) 0.6727(2)
C2 C 0.3622(4) 0.5916(12) 0.6250(2)
C3 C 0.4995(4) 0.5897(9) 0.6221(2)
C4 C 0.4219(4) 0.5803(9) 0.5998(2)
C5 C 0.3926(4) 0.5453(9) 0.5485(3)
C6 C 0.3149(3) 0.5381(8) 0.5229(2)
H1 H 0.2797 0.5417 0.5389
C7 C 0.2927(4) 0.5271(9) 0.4796(3)
H2 H 0.2419 0.5435 0.4641
C8 C 0.3443(3) 0.4889(8) 0.4519(2)
C9 C 0.4222(3) 0.4921(8) 0.4753(2)
C10 C 0.4456(3) 0.5247(8) 0.5241(2)
C11 C 0.4731(3) 0.4735(9) 0.4514(2)
C12 C 0.5499(4) 0.5656(9) 0.5989(2)
C13 C 0.6283(4) 0.5666(9) 0.6201(2)
H3 H 0.6457 0.5848 0.6521
C14 C 0.3212(3) 0.4557(8) 0.4015(2)
H4 H 0.2704 0.4506 0.3848
K1D K 0.39813(8) 0.6826(2) 0.21881(5)
K1A K 0.39813(8) 0.3174(2) 0.71881(5)
K1E K 0.60187(8) 0.6826(2) 0.28119(5)
O1D O 0.4818(3) 0.5368(8) 0.30138(15)
O1A O 0.4818(3) 0.4632(8) 0.80138(15)
O1E O 0.5182(3) 0.5368(8) 0.19862(15)
O2D O 0.4459(2) 0.2299(7) 0.30985(13)
O3D O 0.6349(2) 0.2508(7) 0.34993(15)
O4D O 0.6749(3) 0.5569(8) 0.37305(14)
O4A O 0.6749(3) 0.4431(8) 0.87305(14)
O4E O 0.3251(3) 0.5569(8) 0.12695(14)
O5D O 0.3305(2) 0.2790(6) 0.22894(13)
O6D O 0.2725(2) 0.8830(7) 0.22362(14)
O7D O 0.5000 0.9883(9) 0.2500
C1D C 0.4794(3) 0.3967(10) 0.3273(2)
C2D C 0.6378(4) 0.4084(12) 0.3750(2)
C3D C 0.5005(4) 0.4103(9) 0.3779(2)
C4D C 0.5781(4) 0.4197(9) 0.4002(2)
C5D C 0.6074(4) 0.4547(9) 0.4515(3)
C6D C 0.6851(3) 0.4619(8) 0.4771(2)
H1D H 0.7203 0.4583 0.4611
C7D C 0.7073(4) 0.4729(9) 0.5204(3)
H2D H 0.7581 0.4565 0.5359
C8D C 0.6557(3) 0.5111(8) 0.5481(2)
C9D C 0.5778(3) 0.5079(8) 0.5247(2)
C10D C 0.5544(3) 0.4753(8) 0.4759(2)
C11D C 0.5269(3) 0.5265(9) 0.5486(2)
C12D C 0.4501(4) 0.4344(9) 0.4011(2)
C13D C 0.3717(4) 0.4334(9) 0.3799(2)
H3D H 0.3543 0.4152 0.3479
C14D C 0.6788(3) 0.5443(8) 0.5985(2)
H4D H 0.7296 0.5494 0.6152
C15 C 0.8337(3) 0.5838(10) 0.8357(2)
H5 H 0.7821 0.5688 0.8345
H6 H 0.8459 0.4871 0.8159
H7 H 0.8413 0.7138 0.8253
C16 C 0.9542(5) 0.5692(9) 0.8951(2)
H8 H 0.9735 0.5934 0.8707
C17 C 1.0050(4) 0.5521(8) 0.9390(2)
H9 H 1.0564 0.5642 0.9440
C18 C 0.9772(4) 0.5172(10) 0.9740(2)
C19 C 0.8954(4) 0.5008(10) 0.9643(2)
H10 H 0.8745 0.4780 0.9880
C20 C 0.8523(4) 0.5200(9) 0.9200(3)
H11 H 0.8004 0.5096 0.9127
N1 N 0.8837(3) 0.5549(7) 0.88522(17)
C15D C 1.1663(3) 0.4162(10) 1.1643(2)
H5D H 1.2179 0.4312 1.1655
H6D H 1.1541 0.5129 1.1841
H7D H 1.1587 0.2862 1.1747
C16D C 1.0458(5) 0.4308(9) 1.1049(2)
H8D H 1.0265 0.4066 1.1293
C17D C 0.9950(4) 0.4479(8) 1.0610(2)
H9D H 0.9436 0.4358 1.0560
C18D C 1.0228(4) 0.4828(10) 1.0260(2)
C19D C 1.1046(4) 0.4992(10) 1.0357(2)
H10D H 1.1255 0.5220 1.0120
C20D C 1.1477(4) 0.4800(9) 1.0800(3)
H11D H 1.1996 0.4904 1.0873
N1D N 1.1163(3) 0.4451(7) 1.11478(17)
O8 O 0.6250(3) 0.0934(7) 0.8947(2)
H12 H 0.5997 0.1842 0.8774
H13 H 0.6013 -0.0146 0.8868
loop_
_geom_bond_atom_site_label_1
_geom_bond_atom_site_label_2
_geom_bond_site_symmetry_1
_geom_bond_site_symmetry_2
K1 O1 1_555 1_555
O1 C1 1_555 1_555
O2 C1 1_555 1_555
O3 C2 1_555 1_555
O4 C2 1_555 1_555
O5 K1 1_555 1_555
O6 K1 1_555 1_555
O7 K1 1_555 1_555
C1 C3 1_555 1_555
C2 C4 1_555 1_555
C3 C4 1_555 1_555
C4 C5 1_555 1_555
C5 C6 1_555 1_555
C6 H1 1_555 1_555
C7 C6 1_555 1_555
H2 C7 1_555 1_555
C8 C7 1_555 1_555
C9 C8 1_555 1_555
C10 C5 1_555 1_555
C11 C9 1_555 1_555
C12 C3 1_555 1_555
C13 C12 1_555 1_555
H3 C13 1_555 1_555
C14 C8 1_555 1_555
H4 C14 1_555 1_555
C15 H5 1_555 1_555
H6 C15 1_555 1_555
H7 C15 1_555 1_555
C16 H8 1_555 1_555
C17 C16 1_555 1_555
H9 C17 1_555 1_555
C18 C17 1_555 1_555
C19 C18 1_555 1_555
H10 C19 1_555 1_555
C20 C19 1_555 1_555
H11 C20 1_555 1_555
N1 C15 1_555 1_555
O8 H12 1_555 1_555
H13 O8 1_555 1_555
K1D O1D 1_555 1_555
K1A O1 1_555 1_555
K1E O1D 1_555 1_555
O1D C1D 1_555 1_555
O1A K1 1_555 1_555
O1E K1D 1_555 1_555
O2D C1D 1_555 1_555
O3D C2D 1_555 1_555
O4D K1E 1_555 1_555
O4A K1 1_555 1_555
O4E K1D 1_555 1_555
O5D K1D 1_555 1_555
O6D K1D 1_555 1_555
O7D K1D 1_555 1_555
C1D C3D 1_555 1_555
C2D O4D 1_555 1_555
C3D C4D 1_555 1_555
C4D C2D 1_555 1_555
C5D C4D 1_555 1_555
C6D C5D 1_555 1_555
H1D C6D 1_555 1_555
C7D C6D 1_555 1_555
H2D C7D 1_555 1_555
C8D C7D 1_555 1_555
C9D C8D 1_555 1_555
C10D C11 1_555 1_555
C11D C10 1_555 1_555
C12D C11 1_555 1_555
C13D C14 1_555 1_555
H3D C13D 1_555 1_555
C14D C13 1_555 1_555
H4D C14D 1_555 1_555
C15D H5D 1_555 1_555
H6D C15D 1_555 1_555
H7D C15D 1_555 1_555
C16D H8D 1_555 1_555
C17D C16D 1_555 1_555
H9D C17D 1_555 1_555
C18D C18 1_555 1_555
C19D C18D 1_555 1_555
H10D C19D 1_555 1_555
C20D C19D 1_555 1_555
H11D C20D 1_555 1_555
N1D C15D 1_555 1_555
O4 K1A 1_555 1_555
O7 K1A 1_555 1_555
C9 C10 1_555 1_555
C12 C11D 1_555 1_555
C16 N1 1_555 1_555
C20 N1 1_555 1_555
K1A O1A 1_555 1_555
K1E O1E 1_555 1_555
K1E O7D 1_555 1_555
C3D C12D 1_555 1_555
C5D C10D 1_555 1_555
C8D C14D 1_555 1_555
C9D C10D 1_555 1_555
C9D C11D 1_555 1_555
C12D C13D 1_555 1_555
C16D N1D 1_555 1_555
C17D C18D 1_555 1_555
C20D N1D 1_555 1_555

#END
