
#######################################################################
#
#                 Cambridge Crystallographic Data Centre
#                                CCDC 
#
#######################################################################
#
# If this CIF has been generated from an entry in the Cambridge 
# Structural Database, then it will include bibliographic, chemical, 
# crystal, experimental, refinement or atomic coordinate data resulting 
# from the CCDC's data processing and validation procedures.
#
#######################################################################

data_CUVXOH
_symmetry_cell_setting           orthorhombic
_symmetry_space_group_name_H-M   'P c a 21'
_symmetry_Int_Tables_number      29
_space_group_name_Hall           'P 2c -2ac'
loop_
_symmetry_equiv_pos_site_id
_symmetry_equiv_pos_as_xyz
1 x,y,z
2 1/2-x,y,1/2+z
3 1/2+x,-y,z
4 -x,-y,1/2+z
_cell_length_a                   20.88655(28)
_cell_length_b                   11.43511(16)
_cell_length_c                   13.33152(17)
_cell_angle_alpha                90
_cell_angle_beta                 90
_cell_angle_gamma                90
_cell_volume                     3184.1
loop_
_atom_site_label
_atom_site_type_symbol
_atom_site_fract_x
_atom_site_fract_y
_atom_site_fract_z
W1 W 0.49547(13) 0.39367(27) 0.7260(4)
N1 N 0.4639(12) 0.3548(23) 0.5710(12)
N2 N 0.4957(12) 0.2638(24) 0.5213(14)
N3 N 0.6856(7) 0.0061(12) 0.4636(19)
O1 O 0.5362(10) 0.4317(18) 0.8311(13)
O2 O 0.4301(7) 0.3151(15) 0.7558(19)
O3 O 0.4612(6) 0.5471(8) 0.7071(11)
O4 O 0.5503(8) 0.2642(14) 0.6712(12)
C1 C 0.4170(7) 0.4012(14) 0.5274(10)
C2 C 0.5406(7) 0.2246(12) 0.5802(12)
C3 C 0.5912(6) 0.1466(11) 0.5391(11)
C4 C 0.6342(8) 0.0904(14) 0.6004(12)
C5 C 0.6803(7) 0.0208(13) 0.5595(18)
C6 C 0.6451(10) 0.0582(16) 0.4024(14)
C7 C 0.5968(8) 0.1295(14) 0.4371(12)
C8 C 0.4097(6) 0.5685(11) 0.6519(9)
C9 C 0.3847(6) 0.5037(11) 0.5664(10)
C10 C 0.3280(6) 0.5416(11) 0.5146(10)
C11 C 0.2957(6) 0.6432(12) 0.5464(10)
C12 C 0.3214(8) 0.7017(13) 0.6324(11)
C13 C 0.3744(7) 0.6672(13) 0.6802(11)
C14 C 0.3013(9) 0.4832(13) 0.4313(11)
C15 C 0.2475(9) 0.5221(17) 0.3845(11)
C16 C 0.2168(8) 0.6218(18) 0.4208(13)
C17 C 0.2397(7) 0.6815(14) 0.4986(13)
H1 H 0.40592 0.37417 0.46402
H2 H 0.63183 0.09947 0.66963
H3 H 0.70933 -0.01662 0.6017
H4 H 0.64966 0.046 0.33384
H5 H 0.56865 0.16593 0.39292
H6 H 0.30167 0.7706 0.65277
H7 H 0.38963 0.71198 0.73334
H8 H 0.32082 0.41574 0.4076
H9 H 0.23104 0.48173 0.32976
H10 H 0.18093 0.64993 0.38739
H11 H 0.2197 0.74971 0.51939
W2 W 0.76673(11) -0.10860(29) 0.3672(4)
N4 N 0.7905(10) 0.8543(18) 0.5275(10)
N5 N 0.7644(10) 0.7576(19) 0.5747(7)
N6 N 0.5807(9) 0.4956(12) 0.6533(18)
O5 O 0.7205(9) -0.0511(17) 0.2749(14)
O6 O 0.8211(8) -0.2027(14) 0.3220(17)
O7 O 0.7050(6) 0.7763(7) 0.4276(11)
O8 O 0.8159(6) 1.0297(9) 0.3942(11)
C18 C 0.8409(7) 0.8924(13) 0.5756(12)
C19 C 0.7172(6) 0.7278(12) 0.5182(9)
C20 C 0.6694(5) 0.6471(9) 0.5619(8)
C21 C 0.6094(6) 0.6264(14) 0.5214(12)
C22 C 0.5669(7) 0.5527(16) 0.5671(18)
C23 C 0.6378(11) 0.5122(13) 0.6888(14)
C24 C 0.6825(8) 0.5880(13) 0.6484(11)
C25 C 0.8635(6) 1.0537(12) 0.4604(10)
C26 C 0.8785(6) 0.9923(12) 0.5464(10)
C27 C 0.9305(6) 1.0262(12) 0.6121(10)
C28 C 0.9660(6) 1.1282(13) 0.5856(11)
C29 C 0.9509(7) 1.1889(14) 0.4980(12)
C30 C 0.9022(7) 1.1546(13) 0.4378(11)
C31 C 0.9504(8) 0.9690(13) 0.6981(12)
C32 C 0.9979(9) 1.0026(17) 0.7583(12)
C33 C 1.0320(7) 1.1014(18) 0.7322(14)
C34 C 1.0177(7) 1.1628(15) 0.6470(15)
H12 H 0.85269 0.8525 0.63364
H13 H 0.59748 0.66436 0.46263
H14 H 0.52691 0.54158 0.53795
H15 H 0.6479 0.47617 0.74911
H16 H 0.72207 0.59739 0.6796
H17 H 0.97281 1.25776 0.48393
H18 H 0.8915 1.20071 0.38293
H19 H 0.92849 0.90166 0.71613
H20 H 1.00872 0.9594 0.81463
H21 H 1.06537 1.12588 0.77306
H22 H 1.03976 1.23135 0.63209
W2_2 W 0.76673(11) 0.89140(29) 0.3672(4)
N4_2 N 0.7905(10) -0.1457(18) 0.5275(10)
O7_2 O 0.7050(6) -0.2237(7) 0.4276(11)
O8_2 O 0.8159(6) 0.0297(9) 0.3942(11)
loop_
_geom_bond_atom_site_label_1
_geom_bond_atom_site_label_2
_geom_bond_site_symmetry_1
_geom_bond_site_symmetry_2
W1 N1 1_555 1_555
N1 N2 1_555 1_555
N2 C2 1_555 1_555
N3 C5 1_555 1_555
O1 W1 1_555 1_555
O2 W1 1_555 1_555
O3 W1 1_555 1_555
O4 W1 1_555 1_555
C1 N1 1_555 1_555
C2 O4 1_555 1_555
C3 C2 1_555 1_555
C4 C3 1_555 1_555
C5 C4 1_555 1_555
C6 N3 1_555 1_555
C7 C3 1_555 1_555
C8 O3 1_555 1_555
C9 C1 1_555 1_555
C10 C9 1_555 1_555
C11 C10 1_555 1_555
C12 C11 1_555 1_555
C13 C8 1_555 1_555
C14 C10 1_555 1_555
C15 C14 1_555 1_555
C16 C15 1_555 1_555
C17 C11 1_555 1_555
H1 C1 1_555 1_555
H2 C4 1_555 1_555
H3 C5 1_555 1_555
H4 C6 1_555 1_555
H5 C7 1_555 1_555
H6 C12 1_555 1_555
H7 C13 1_555 1_555
H8 C14 1_555 1_555
H9 C15 1_555 1_555
H10 C16 1_555 1_555
H11 C17 1_555 1_555
W2 N3 1_555 1_555
N4 N5 1_555 1_555
N5 C19 1_555 1_555
N6 W1 1_555 1_555
O5 W2 1_555 1_555
O6 W2 1_555 1_555
O7 C19 1_555 1_555
O8 C25 1_555 1_555
C18 N4 1_555 1_555
C19 C20 1_555 1_555
C20 C21 1_555 1_555
C21 C22 1_555 1_555
C22 N6 1_555 1_555
C23 N6 1_555 1_555
C24 C20 1_555 1_555
C25 C26 1_555 1_555
C26 C18 1_555 1_555
C27 C26 1_555 1_555
C28 C27 1_555 1_555
C29 C28 1_555 1_555
C30 C25 1_555 1_555
C31 C27 1_555 1_555
C32 C31 1_555 1_555
C33 C32 1_555 1_555
C34 C28 1_555 1_555
H12 C18 1_555 1_555
H13 C21 1_555 1_555
H14 C22 1_555 1_555
H15 C23 1_555 1_555
H16 C24 1_555 1_555
H17 C29 1_555 1_555
H18 C30 1_555 1_555
H19 C31 1_555 1_555
H20 C32 1_555 1_555
H21 C33 1_555 1_555
H22 C34 1_555 1_555
W2_2 N4 1_555 1_555
N4_2 W2 1_555 1_555
O7_2 W2 1_555 1_555
O8_2 W2 1_555 1_555
C6 C7 1_555 1_555
C8 C9 1_555 1_555
C12 C13 1_555 1_555
C16 C17 1_555 1_555
O7 W2_2 1_555 1_555
O8 W2_2 1_555 1_555
C23 C24 1_555 1_555
C29 C30 1_555 1_555
C33 C34 1_555 1_555

#END
