
#######################################################################
#
#                 Cambridge Crystallographic Data Centre
#                                CCDC 
#
#######################################################################
#
# If this CIF has been generated from an entry in the Cambridge 
# Structural Database, then it will include bibliographic, chemical, 
# crystal, experimental, refinement or atomic coordinate data resulting 
# from the CCDC's data processing and validation procedures.
#
#######################################################################

data_CUVYUO
_symmetry_cell_setting           monoclinic
_symmetry_space_group_name_H-M   'P 21/c'
_symmetry_Int_Tables_number      14
_space_group_name_Hall           '-P 2ybc'
loop_
_symmetry_equiv_pos_site_id
_symmetry_equiv_pos_as_xyz
1 x,y,z
2 -x,1/2+y,1/2-z
3 -x,-y,-z
4 x,1/2-y,1/2+z
_cell_length_a                   8.7700(11)
_cell_length_b                   14.0506(17)
_cell_length_c                   11.8427(15)
_cell_angle_alpha                90
_cell_angle_beta                 93.1780(10)
_cell_angle_gamma                90
_cell_volume                     1457.06
loop_
_atom_site_label
_atom_site_type_symbol
_atom_site_fract_x
_atom_site_fract_y
_atom_site_fract_z
O1 O 0.3281(5) 0.4726(3) -0.0909(4)
H1 H 0.2840 0.4274 -0.1249
H2 H 0.2583 0.5129 -0.0774
O2 O 0.4066(6) 0.4338(4) 0.1561(4)
H3 H 0.4986 0.4397 0.1451
H4 H 0.3555 0.4413 0.0942
C1 C -0.1058(12) 0.3337(11) -0.0413(7)
H5 H -0.1080 0.3983 -0.0704
H6 H -0.0423 0.2956 -0.0883
C2 C -0.2664(9) 0.2934(8) -0.0449(7)
H7 H -0.3305 0.3342 -0.0015
H8 H -0.2642 0.2310 -0.0099
C3 C -0.3355(12) 0.2851(9) -0.1653(8)
H9 H -0.3873 0.3432 -0.1861
H10 H -0.4068 0.2333 -0.1698
H11 H -0.2558 0.2736 -0.2161
Eu1 Eu 0.22866(3) 0.133429(19) 0.06191(2)
N1 N 0.0634(5) 0.2743(3) 0.1241(4)
N2 N -0.0878(6) 0.3955(3) 0.1582(4)
O3 O -0.1396(5) 0.4963(3) 0.3465(3)
O4 O 0.0071(4) 0.4008(3) 0.4563(3)
O5 O 0.2450(4) 0.1686(3) 0.2593(3)
O6 O 0.2308(4) 0.2616(3) 0.4079(3)
O7 O 0.4573(4) 0.0489(3) 0.1297(3)
O8 O 0.6495(4) -0.0465(3) 0.0857(3)
O9 O 0.4413(5) 0.2459(3) 0.0956(4)
H12 H 0.5108 0.2234 0.1381
H13 H 0.4285 0.3040 0.1128
C4 C 0.0853(6) 0.2997(4) 0.2372(4)
C5 C -0.0394(7) 0.3331(4) 0.0810(4)
C6 C -0.0083(6) 0.3756(4) 0.2596(4)
C7 C -0.0472(7) 0.4287(4) 0.3625(5)
C8 C 0.1945(6) 0.2413(4) 0.3075(4)
C9 C 0.5308(7) 0.0008(4) 0.0624(4)
C1A C 0.1058(12) -0.1663(11) 0.5413(7)
H5A H 0.1080 -0.1017 0.5704
H6A H 0.0423 -0.2044 0.5883
C2A C 0.2664(9) -0.2066(8) 0.5449(7)
H7A H 0.3305 -0.1658 0.5015
H8A H 0.2642 -0.2690 0.5099
C3A C 0.3355(12) -0.2149(9) 0.6653(8)
H9A H 0.3873 -0.1568 0.6861
H10A H 0.4068 -0.2667 0.6698
H11A H 0.2558 -0.2264 0.7161
Eu1A Eu -0.22866(3) -0.366571(19) 0.43809(2)
Eu1A_2 Eu -0.22866(3) 0.633429(19) 0.43809(2)
Eu1C Eu 0.22866(3) 0.366571(19) 0.56191(2)
Eu1B Eu 0.77134(3) -0.133429(19) -0.06191(2)
Eu1B_2 Eu -0.22866(3) -0.133429(19) -0.06191(2)
N1A N -0.0634(5) -0.2257(3) 0.3759(4)
N2A N 0.0878(6) -0.1045(3) 0.3418(4)
O3A O 0.1396(5) -0.0037(3) 0.1535(3)
O3_2 O -0.1396(5) -0.5037(3) 0.3465(3)
O4A O -0.0071(4) -0.0992(3) 0.0437(3)
O4C O 0.0071(4) 0.0992(3) -0.0437(3)
O4B O -0.0071(4) -0.4008(3) 0.5437(3)
O5A O -0.2450(4) -0.3314(3) 0.2407(3)
O6A O -0.2308(4) -0.2384(3) 0.0921(3)
O6C O 0.2308(4) 0.2384(3) -0.0921(3)
O6B O -0.2308(4) -0.2616(3) 0.5921(3)
O7B O 0.5427(4) -0.0489(3) -0.1297(3)
O7A O -0.4573(4) -0.4511(3) 0.3703(3)
O8B O 0.3505(4) 0.0465(3) -0.0857(3)
O8C O -0.3505(4) -0.4535(3) 0.5857(3)
O9A O -0.4413(5) -0.2541(3) 0.4044(4)
H12A H -0.5108 -0.2766 0.3619
H13A H -0.4285 -0.1960 0.3872
C4A C -0.0853(6) -0.2003(4) 0.2628(4)
C5A C 0.0394(7) -0.1669(4) 0.4190(4)
C6A C 0.0083(6) -0.1244(4) 0.2404(4)
C7A C 0.0472(7) -0.0713(4) 0.1375(5)
C8A C -0.1945(6) -0.2587(4) 0.1925(4)
C9B C 0.4692(7) -0.0008(4) -0.0624(4)
C10? C -0.140(4) 0.319(2) -0.0268(15)
C11? C -0.112(2) 0.3966(14) -0.1124(11)
C12? C -0.208(3) 0.3784(18) -0.2225(13)
H14? H -0.1191 0.2571 -0.0593
H15? H -0.2469 0.3198 -0.0086
H16? H -0.0043 0.3978 -0.1278
H17? H -0.1384 0.4580 -0.0816
H18? H -0.3079 0.3575 -0.2051
H19? H -0.1595 0.3302 -0.2657
H20? H -0.2156 0.4362 -0.2658
loop_
_geom_bond_atom_site_label_1
_geom_bond_atom_site_label_2
_geom_bond_site_symmetry_1
_geom_bond_site_symmetry_2
O1 H1 1_555 1_555
H2 O1 1_555 1_555
O2 H3 1_555 1_555
H4 O2 1_555 1_555
C1 H5 1_555 1_555
H6 C1 1_555 1_555
C2 C1 1_555 1_555
H7 C2 1_555 1_555
H8 C2 1_555 1_555
C3 C2 1_555 1_555
H9 C3 1_555 1_555
H10 C3 1_555 1_555
H11 C3 1_555 1_555
Eu1 N1 1_555 1_555
N1 C4 1_555 1_555
N2 C5 1_555 1_555
O3 C7 1_555 1_555
O4 C7 1_555 1_555
O5 Eu1 1_555 1_555
O6 C8 1_555 1_555
O7 Eu1 1_555 1_555
O8 C9 1_555 1_555
O9 Eu1 1_555 1_555
H12 O9 1_555 1_555
H13 O9 1_555 1_555
C4 C6 1_555 1_555
C5 C1 1_555 1_555
C6 N2 1_555 1_555
C7 C6 1_555 1_555
C8 O5 1_555 1_555
C9 O7 1_555 1_555
C1A H5A 1_555 1_555
H6A C1A 1_555 1_555
C2A C1A 1_555 1_555
H7A C2A 1_555 1_555
H8A C2A 1_555 1_555
C3A C2A 1_555 1_555
H9A C3A 1_555 1_555
H10A C3A 1_555 1_555
H11A C3A 1_555 1_555
Eu1A N1A 1_555 1_555
Eu1A_2 O3 1_555 1_555
Eu1C O4 1_555 1_555
Eu1B O8 1_555 1_555
Eu1B_2 O4A 1_555 1_555
N1A C4A 1_555 1_555
N2A C5A 1_555 1_555
O3A Eu1 1_555 1_555
O3_2 Eu1A 1_555 1_555
O4A C7A 1_555 1_555
O4C Eu1 1_555 1_555
O4B Eu1A 1_555 1_555
O5A Eu1A 1_555 1_555
O6A Eu1B_2 1_555 1_555
O6C Eu1 1_555 1_555
O6B Eu1A 1_555 1_555
O7B Eu1B 1_555 1_555
O7A Eu1A 1_555 1_555
O8B Eu1 1_555 1_555
O8C Eu1A 1_555 1_555
O9A Eu1A 1_555 1_555
H12A O9A 1_555 1_555
H13A O9A 1_555 1_555
C4A C6A 1_555 1_555
C5A C1A 1_555 1_555
C6A N2A 1_555 1_555
C7A O3A 1_555 1_555
C8A O5A 1_555 1_555
C9B C9 1_555 1_555
N1 C5 1_555 1_555
O6 Eu1C 1_555 1_555
C4 C8 1_555 1_555
N1A C5A 1_555 1_555
O6A C8A 1_555 1_555
O7B C9B 1_555 1_555
O8B C9B 1_555 1_555
C4A C8A 1_555 1_555
C6A C7A 1_555 1_555

#END
