
#######################################################################
#
#                 Cambridge Crystallographic Data Centre
#                                CCDC 
#
#######################################################################
#
# If this CIF has been generated from an entry in the Cambridge 
# Structural Database, then it will include bibliographic, chemical, 
# crystal, experimental, refinement or atomic coordinate data resulting 
# from the CCDC's data processing and validation procedures.
#
#######################################################################

data_CUWFUW
_symmetry_cell_setting           monoclinic
_symmetry_space_group_name_H-M   'P 21/c'
_symmetry_Int_Tables_number      14
_space_group_name_Hall           '-P 2ybc'
loop_
_symmetry_equiv_pos_site_id
_symmetry_equiv_pos_as_xyz
1 x,y,z
2 -x,1/2+y,1/2-z
3 -x,-y,-z
4 x,1/2-y,1/2+z
_cell_length_a                   9.698(4)
_cell_length_b                   14.964(6)
_cell_length_c                   14.956(6)
_cell_angle_alpha                90
_cell_angle_beta                 104.400(6)
_cell_angle_gamma                90
_cell_volume                     2102.24
loop_
_atom_site_label
_atom_site_type_symbol
_atom_site_fract_x
_atom_site_fract_y
_atom_site_fract_z
Zn1 Zn -0.00725(6) 0.47431(3) 0.23064(3)
O1 O 0.1613(4) 0.4153(2) 0.2144(2)
O2 O 0.2023(4) 0.3934(3) 0.3620(3)
O3 O 0.8450(4) 0.3948(2) 0.2428(2)
O4 O 0.6789(5) 0.4879(3) 0.1812(4)
N1 N -0.0257(4) 0.5599(2) 0.1197(2)
N2 N 0.0032(4) 0.9265(2) -0.1737(3)
C1 C 0.2393(6) 0.3849(3) 0.2882(4)
C2 C 0.3739(5) 0.3366(3) 0.2830(3)
C3 C 0.4769(5) 0.4020(3) 0.2558(3)
H1 H 0.5001 0.4493 0.3014
H2 H 0.4319 0.4289 0.1967
C4 C 0.6128(5) 0.3545(3) 0.2491(3)
C5 C 0.7176(6) 0.4176(3) 0.2212(4)
C6 C 0.5721(6) 0.2812(3) 0.1747(4)
H3 H 0.5259 0.3080 0.1159
H4 H 0.6572 0.2508 0.1679
C7 C 0.4717(6) 0.2142(4) 0.2026(5)
H5 H 0.4464 0.1679 0.1550
C8 C 0.3361(6) 0.2639(3) 0.2097(4)
H6 H 0.2906 0.2905 0.1506
H7 H 0.2697 0.2221 0.2259
C9 C 0.4468(6) 0.2929(4) 0.3758(4)
H8 H 0.4735 0.3384 0.4232
H9 H 0.3816 0.2517 0.3941
C10 C 0.5778(6) 0.2434(5) 0.3657(5)
H10 H 0.6233 0.2157 0.4251
C11 C 0.5411(8) 0.1710(4) 0.2940(6)
H11 H 0.4763 0.1284 0.3107
H12 H 0.6266 0.1394 0.2897
C12 C 0.6824(6) 0.3096(4) 0.3410(4)
H13 H 0.7680 0.2785 0.3362
H14 H 0.7088 0.3544 0.3891
C13 C 0.0815(5) 0.5684(3) 0.0782(3)
H15 H 0.1529 0.5253 0.0895
C14 C 0.0904(5) 0.6375(3) 0.0200(3)
H16 H 0.1654 0.6399 -0.0085
C15 C -0.0118(5) 0.7038(3) 0.0036(3)
C16 C -0.1227(6) 0.6938(3) 0.0450(3)
H17 H -0.1948 0.7364 0.0352
C17 C -0.1279(6) 0.6220(3) 0.1003(3)
H18 H -0.2059 0.6160 0.1255
C18 C -0.0031(5) 0.7824(3) -0.0549(3)
C19 C 0.0637(5) 0.7763(3) -0.1259(3)
H19 H 0.1079 0.7232 -0.1355
C20 C 0.0654(5) 0.8482(3) -0.1826(3)
H20 H 0.1121 0.8423 -0.2296
C21 C -0.0594(6) 0.9320(3) -0.1037(3)
H21 H -0.1026 0.9858 -0.0953
C22 C -0.0639(5) 0.8640(3) -0.0438(3)
H22 H -0.1077 0.8724 0.0043
Zn1_2 Zn 0.99275(6) 0.47431(3) 0.23064(3)
Zn1C Zn -0.00725(6) 1.02569(3) -0.26936(3)
O3_2 O -0.1550(4) 0.3948(2) 0.2428(2)
N2C N 0.0032(4) 0.5735(2) 0.3263(3)
O5 O 0.3517(11) 0.5102(9) 0.4959(7)
O6 O 0.5965(11) 0.0164(9) 0.4835(7)
loop_
_geom_bond_atom_site_label_1
_geom_bond_atom_site_label_2
_geom_bond_site_symmetry_1
_geom_bond_site_symmetry_2
Zn1 O1 1_555 1_555
O1 C1 1_555 1_555
O2 C1 1_555 1_555
O3 C5 1_555 1_555
O4 C5 1_555 1_555
N1 Zn1 1_555 1_555
N2 C20 1_555 1_555
C1 C2 1_555 1_555
C2 C3 1_555 1_555
C3 H1 1_555 1_555
H2 C3 1_555 1_555
C4 C3 1_555 1_555
C5 C4 1_555 1_555
C6 C4 1_555 1_555
H3 C6 1_555 1_555
H4 C6 1_555 1_555
C7 C6 1_555 1_555
H5 C7 1_555 1_555
C8 C2 1_555 1_555
H6 C8 1_555 1_555
H7 C8 1_555 1_555
C9 C2 1_555 1_555
H8 C9 1_555 1_555
H9 C9 1_555 1_555
C10 C9 1_555 1_555
H10 C10 1_555 1_555
C11 C7 1_555 1_555
H11 C11 1_555 1_555
H12 C11 1_555 1_555
C12 C4 1_555 1_555
H13 C12 1_555 1_555
H14 C12 1_555 1_555
C13 N1 1_555 1_555
H15 C13 1_555 1_555
C14 C13 1_555 1_555
H16 C14 1_555 1_555
C15 C14 1_555 1_555
C16 C15 1_555 1_555
H17 C16 1_555 1_555
C17 N1 1_555 1_555
H18 C17 1_555 1_555
C18 C15 1_555 1_555
C19 C18 1_555 1_555
H19 C19 1_555 1_555
C20 C19 1_555 1_555
H20 C20 1_555 1_555
C21 N2 1_555 1_555
H21 C21 1_555 1_555
C22 C18 1_555 1_555
H22 C22 1_555 1_555
Zn1_2 O3 1_555 1_555
Zn1C N2 1_555 1_555
O3_2 Zn1 1_555 1_555
N2C Zn1 1_555 1_555
C7 C8 1_555 1_555
C10 C11 1_555 1_555
C10 C12 1_555 1_555
C16 C17 1_555 1_555
C21 C22 1_555 1_555

#END
