
#######################################################################
#
#                 Cambridge Crystallographic Data Centre
#                                CCDC 
#
#######################################################################
#
# If this CIF has been generated from an entry in the Cambridge 
# Structural Database, then it will include bibliographic, chemical, 
# crystal, experimental, refinement or atomic coordinate data resulting 
# from the CCDC's data processing and validation procedures.
#
#######################################################################

data_CUWGOR
_symmetry_cell_setting           orthorhombic
_symmetry_space_group_name_H-M   'P 21 21 21'
_symmetry_Int_Tables_number      19
_space_group_name_Hall           'P 2ac 2ab'
loop_
_symmetry_equiv_pos_site_id
_symmetry_equiv_pos_as_xyz
1 x,y,z
2 1/2-x,-y,1/2+z
3 -x,1/2+y,1/2-z
4 1/2+x,1/2-y,-z
_cell_length_a                   12.7063(8)
_cell_length_b                   14.8174(9)
_cell_length_c                   15.5264(10)
_cell_angle_alpha                90
_cell_angle_beta                 90
_cell_angle_gamma                90
_cell_volume                     2923.22
loop_
_atom_site_label
_atom_site_type_symbol
_atom_site_fract_x
_atom_site_fract_y
_atom_site_fract_z
Co1 Co 0.189351(18) 0.496612(17) 0.230428(15)
O1 O 0.25357(13) 0.27828(10) 0.24296(9)
O2 O 0.20588(11) 0.39578(9) 0.32153(9)
O3 O 0.19051(15) 0.30484(11) 0.69436(10)
O4 O 0.30789(12) 0.40030(9) 0.64138(9)
N1 N 0.09664(13) 0.57159(11) 0.31988(11)
N2 N -0.54633(13) 0.55704(11) 0.67940(10)
C1 C 0.24005(15) 0.31656(13) 0.31422(12)
C2 C 0.25539(15) 0.32828(14) 0.63772(12)
C3 C 0.26605(15) 0.26445(13) 0.39657(12)
C4 C 0.38332(15) 0.23598(14) 0.39453(13)
H1 H 0.3969 0.1985 0.3429
H2 H 0.4285 0.2903 0.3912
C5 C 0.41021(16) 0.18228(15) 0.47580(14)
H3 H 0.4861 0.1646 0.4740
C6 C 0.39062(16) 0.24080(14) 0.55537(13)
H4 H 0.4347 0.2958 0.5525
H5 H 0.4102 0.2069 0.6080
C7 C 0.27307(15) 0.26750(13) 0.55957(12)
C8 C 0.24576(14) 0.32137(13) 0.47740(11)
H6 H 0.1708 0.3395 0.4792
H7 H 0.2891 0.3769 0.4751
C9 C 0.19802(17) 0.17841(13) 0.40113(12)
H8 H 0.1226 0.1951 0.4023
H9 H 0.2106 0.1409 0.3494
C10 C 0.34228(19) 0.09711(14) 0.47929(15)
H10 H 0.3602 0.0614 0.5312
H11 H 0.3559 0.0593 0.4279
C11 C 0.20486(17) 0.18194(14) 0.56257(13)
H12 H 0.2219 0.1467 0.6149
H13 H 0.1295 0.1989 0.5651
C12 C 0.22547(18) 0.12436(14) 0.48209(13)
H14 H 0.1809 0.0688 0.4844
C13 C 0.02921(16) 0.63293(14) 0.28893(13)
H15 H 0.0306 0.6454 0.2289
C14 C -0.04233(17) 0.67913(15) 0.33934(14)
H16 H -0.0889 0.7217 0.3141
C15 C -0.04541(16) 0.66262(13) 0.42759(13)
C16 C 0.02352(16) 0.59783(14) 0.45958(13)
H17 H 0.0233 0.5837 0.5193
C17 C 0.09209(15) 0.55418(14) 0.40489(13)
H18 H 0.1381 0.5099 0.4282
C18 C -0.12050(17) 0.71235(15) 0.48565(14)
H19 H -0.1554 0.7608 0.4523
H20 H -0.0801 0.7412 0.5327
C19 C -0.47223(16) 0.59117(14) 0.73114(14)
H21 H -0.4804 0.5836 0.7915
C20 C -0.38461(16) 0.63678(15) 0.70193(13)
H22 H -0.3340 0.6593 0.7415
C21 C -0.37131(16) 0.64944(13) 0.61383(13)
C22 C -0.44585(16) 0.61037(14) 0.55964(13)
H23 H -0.4379 0.6145 0.4989
C23 C -0.53116(15) 0.56563(14) 0.59408(13)
H24 H -0.5813 0.5398 0.5560
C24 C -0.28239(16) 0.70536(14) 0.57848(14)
H25 H -0.2443 0.7338 0.6270
H26 H -0.3120 0.7543 0.5424
C25 C -0.20481(16) 0.65100(14) 0.52492(14)
H27 H -0.2430 0.6193 0.4783
H28 H -0.1707 0.6049 0.5617
O5 O 0.27009(12) 0.41762(11) 0.13612(9)
H29 H 0.3321 0.4273 0.1388
H30 H 0.2709 0.3686 0.1541
O6 O 0.33975(12) 0.54897(11) 0.27917(10)
H31 H 0.330(3) 0.594(2) 0.265(2)
C26 C 0.36783(18) 0.55604(16) 0.36794(13)
H32 H 0.4371 0.5847 0.3730
H33 H 0.3704 0.4956 0.3936
H34 H 0.3153 0.5927 0.3982
Co1A Co 0.310649(18) 0.503388(17) 0.730428(15)
Co1A_2 Co -0.689351(18) 0.503388(17) 0.730428(15)
O4A O 0.19211(12) 0.59970(9) 0.14138(9)
N2A N 0.04633(13) 0.44296(11) 0.17940(10)
O7 O 0.03945(16) 0.21789(16) 0.79305(14)
H41 H 0.0795 0.2364 0.7564
H42 H -0.0065 0.2529 0.8027
O8 O 0.48256(14) 0.45667(15) 0.16745(11)
H35 H 0.4427 0.4826 0.1987
H36 H 0.4996 0.4075 0.1835
O9 O 0.37058(16) 0.14733(14) 0.16783(12)
H37 H 0.3332 0.1802 0.1949
C27 C 0.3337(3) 0.0574(2) 0.18708(19)
H38 H 0.3646 0.0146 0.1462
H39 H 0.2568 0.0556 0.1823
H40 H 0.3546 0.0410 0.2458
loop_
_geom_bond_atom_site_label_1
_geom_bond_atom_site_label_2
_geom_bond_site_symmetry_1
_geom_bond_site_symmetry_2
Co1 O2 1_555 1_555
O1 C1 1_555 1_555
O2 C1 1_555 1_555
O3 C2 1_555 1_555
O4 C2 1_555 1_555
N1 Co1 1_555 1_555
N2 C19 1_555 1_555
C1 C3 1_555 1_555
C2 C7 1_555 1_555
C3 C4 1_555 1_555
C4 H1 1_555 1_555
H2 C4 1_555 1_555
C5 C4 1_555 1_555
H3 C5 1_555 1_555
C6 C5 1_555 1_555
H4 C6 1_555 1_555
H5 C6 1_555 1_555
C7 C6 1_555 1_555
C8 C3 1_555 1_555
H6 C8 1_555 1_555
H7 C8 1_555 1_555
C9 C3 1_555 1_555
H8 C9 1_555 1_555
H9 C9 1_555 1_555
C10 C5 1_555 1_555
H10 C10 1_555 1_555
H11 C10 1_555 1_555
C11 C7 1_555 1_555
H12 C11 1_555 1_555
H13 C11 1_555 1_555
C12 C9 1_555 1_555
H14 C12 1_555 1_555
C13 N1 1_555 1_555
H15 C13 1_555 1_555
C14 C13 1_555 1_555
H16 C14 1_555 1_555
C15 C14 1_555 1_555
C16 C15 1_555 1_555
H17 C16 1_555 1_555
C17 N1 1_555 1_555
H18 C17 1_555 1_555
C18 C15 1_555 1_555
H19 C18 1_555 1_555
H20 C18 1_555 1_555
C19 H21 1_555 1_555
C20 C19 1_555 1_555
H22 C20 1_555 1_555
C21 C20 1_555 1_555
C22 C21 1_555 1_555
H23 C22 1_555 1_555
C23 N2 1_555 1_555
H24 C23 1_555 1_555
C24 C21 1_555 1_555
H25 C24 1_555 1_555
H26 C24 1_555 1_555
C25 C18 1_555 1_555
H27 C25 1_555 1_555
H28 C25 1_555 1_555
O5 Co1 1_555 1_555
H29 O5 1_555 1_555
H30 O5 1_555 1_555
O6 Co1 1_555 1_555
H31 O6 1_555 1_555
C26 O6 1_555 1_555
H32 C26 1_555 1_555
H33 C26 1_555 1_555
H34 C26 1_555 1_555
O7 H41 1_555 1_555
O8 H35 1_555 1_555
H36 O8 1_555 1_555
O9 H37 1_555 1_555
C27 O9 1_555 1_555
H38 C27 1_555 1_555
H39 C27 1_555 1_555
H40 C27 1_555 1_555
H42 O7 1_555 1_555
Co1A O4 1_555 1_555
Co1A_2 N2 1_555 1_555
O4A Co1 1_555 1_555
N2A Co1 1_555 1_555
C7 C8 1_555 1_555
C10 C12 1_555 1_555
C11 C12 1_555 1_555
C16 C17 1_555 1_555
C22 C23 1_555 1_555
C24 C25 1_555 1_555

#END
