
#######################################################################
#
#                 Cambridge Crystallographic Data Centre
#                                CCDC 
#
#######################################################################
#
# If this CIF has been generated from an entry in the Cambridge 
# Structural Database, then it will include bibliographic, chemical, 
# crystal, experimental, refinement or atomic coordinate data resulting 
# from the CCDC's data processing and validation procedures.
#
#######################################################################

data_CUWGUX
_symmetry_cell_setting           orthorhombic
_symmetry_space_group_name_H-M   'P 21 21 21'
_symmetry_Int_Tables_number      19
_space_group_name_Hall           'P 2ac 2ab'
loop_
_symmetry_equiv_pos_site_id
_symmetry_equiv_pos_as_xyz
1 x,y,z
2 1/2-x,-y,1/2+z
3 -x,1/2+y,1/2-z
4 1/2+x,1/2-y,-z
_cell_length_a                   11.009(2)
_cell_length_b                   13.118(3)
_cell_length_c                   15.428(3)
_cell_angle_alpha                90
_cell_angle_beta                 90
_cell_angle_gamma                90
_cell_volume                     2228.05
loop_
_atom_site_label
_atom_site_type_symbol
_atom_site_fract_x
_atom_site_fract_y
_atom_site_fract_z
N1 N 0.8901(2) 0.89945(18) 0.34510(15)
C1 C 0.8184(3) 0.9424(2) 0.40394(19)
H1 H 0.8228 1.0126 0.4116
C2 C 0.8810(2) 0.7985(2) 0.33590(19)
H2 H 0.9301 0.7664 0.2951
C3 C 0.8021(2) 0.7398(2) 0.3841(2)
H3 H 0.7996 0.6696 0.3758
C4 C 0.7379(2) 0.8881(2) 0.45396(18)
H4 H 0.6904 0.9220 0.4946
C5 C 0.7269(2) 0.7847(3) 0.44465(18)
C6 C 0.6386(3) 0.7238(2) 0.4975(2)
H5 H 0.5915 0.7700 0.5333
H6 H 0.6838 0.6792 0.5359
O1 O 1.17491(18) 0.95918(17) 0.33162(14)
O2 O 1.07324(17) 1.10150(15) 0.32782(13)
C7 C 1.1685(3) 1.0525(3) 0.34902(18)
C8 C 1.2736(2) 1.1073(2) 0.39164(18)
C9 C 1.2963(2) 1.0627(2) 0.48176(16)
H7 H 1.3139 0.9905 0.4767
H8 H 1.2237 1.0703 0.5168
C10 C 1.2467(3) 1.2217(2) 0.4003(2)
H9 H 1.2322 1.2508 0.3434
H10 H 1.1741 1.2316 0.4350
Co1 Co 0.99655(4) 0.98591(2) 0.26050(2)
O3 O 1.4878(2) 1.12568(13) 0.66958(12)
N2 N 0.1605(2) 0.56537(19) 0.27741(14)
C11 C 0.3555(3) 0.5614(2) 0.34674(19)
H11 H 0.4171 0.5221 0.3710
C12 C 1.3754(3) 1.2312(2) 0.53302(18)
H12 H 1.3038 1.2416 0.5686
H13 H 1.4431 1.2659 0.5603
C13 C 0.2530(3) 0.5153(2) 0.31379(17)
H14 H 0.2479 0.4447 0.3171
C14 C 0.1746(2) 0.6668(2) 0.27091(18)
H15 H 0.1143 0.7041 0.2431
O4 O 1.4081(2) 0.98182(17) 0.63211(14)
C15 C 1.4029(2) 1.1167(2) 0.52631(17)
C16 C 0.3664(3) 0.6666(2) 0.34349(18)
C17 C 1.5153(3) 1.1020(2) 0.46844(17)
H16 H 1.5851 1.1343 0.4953
H17 H 1.5326 1.0298 0.4625
C18 C 0.2735(2) 0.7184(2) 0.30307(18)
H18 H 0.2776 0.7890 0.2975
C19 C 1.4327(3) 1.0716(3) 0.6145(2)
C20 C 0.4710(2) 0.7215(2) 0.3849(2)
H19 H 0.4387 0.7779 0.4184
H20 H 0.5209 0.7503 0.3392
C21 C 1.4938(3) 1.1481(3) 0.37955(17)
H21 H 1.5668 1.1388 0.3441
C22 C 1.3539(3) 1.2754(2) 0.4432(2)
H22 H 1.3360 1.3483 0.4483
C23 C 0.5516(3) 0.6594(2) 0.44317(19)
H23 H 0.5986 0.6125 0.4080
H24 H 0.5012 0.6192 0.4817
C24 C 1.4677(3) 1.2612(2) 0.3884(2)
H25 H 1.4557 1.2911 0.3315
H26 H 1.5361 1.2950 0.4157
C25 C 1.3883(2) 1.0936(2) 0.33657(18)
H27 H 1.4067 1.0216 0.3308
H28 H 1.3750 1.1214 0.2791
Co1A Co 1.50345(4) 1.01409(2) 0.76050(2)
Co1B Co 0.00345(4) 0.48591(2) 0.23950(2)
O3A O 1.0122(2) 0.87432(13) 0.16958(12)
N2B N 0.8395(2) 1.06537(19) 0.22259(14)
O4A O 1.0919(2) 1.01818(17) 0.13211(14)
loop_
_geom_bond_atom_site_label_1
_geom_bond_atom_site_label_2
_geom_bond_site_symmetry_1
_geom_bond_site_symmetry_2
N1 C1 1_555 1_555
C1 H1 1_555 1_555
C2 N1 1_555 1_555
H2 C2 1_555 1_555
C3 C2 1_555 1_555
H3 C3 1_555 1_555
C4 C1 1_555 1_555
H4 C4 1_555 1_555
C5 C3 1_555 1_555
C6 C5 1_555 1_555
H5 C6 1_555 1_555
H6 C6 1_555 1_555
O1 C7 1_555 1_555
O2 C7 1_555 1_555
C7 C8 1_555 1_555
C8 C9 1_555 1_555
C9 H7 1_555 1_555
H8 C9 1_555 1_555
C10 C8 1_555 1_555
H9 C10 1_555 1_555
H10 C10 1_555 1_555
Co1 N1 1_555 1_555
O3 C19 1_555 1_555
N2 C13 1_555 1_555
C11 H11 1_555 1_555
C12 H12 1_555 1_555
H13 C12 1_555 1_555
C13 C11 1_555 1_555
H14 C13 1_555 1_555
C14 N2 1_555 1_555
H15 C14 1_555 1_555
O4 C19 1_555 1_555
C15 C9 1_555 1_555
C16 C11 1_555 1_555
C17 C15 1_555 1_555
H16 C17 1_555 1_555
H17 C17 1_555 1_555
C18 C14 1_555 1_555
H18 C18 1_555 1_555
C19 C15 1_555 1_555
C20 C16 1_555 1_555
H19 C20 1_555 1_555
H20 C20 1_555 1_555
C21 C17 1_555 1_555
H21 C21 1_555 1_555
C22 C10 1_555 1_555
H22 C22 1_555 1_555
C23 C6 1_555 1_555
H23 C23 1_555 1_555
H24 C23 1_555 1_555
C24 C21 1_555 1_555
H25 C24 1_555 1_555
H26 C24 1_555 1_555
C25 C8 1_555 1_555
H27 C25 1_555 1_555
H28 C25 1_555 1_555
Co1A O3 1_555 1_555
Co1B N2 1_555 1_555
O3A Co1 1_555 1_555
N2B Co1 1_555 1_555
O4A Co1 1_555 1_555
C4 C5 1_555 1_555
O1 Co1 1_555 1_555
O2 Co1 1_555 1_555
C12 C15 1_555 1_555
C12 C22 1_555 1_555
O4 Co1A 1_555 1_555
C16 C18 1_555 1_555
C20 C23 1_555 1_555
C21 C25 1_555 1_555
C22 C24 1_555 1_555

#END
