
#######################################################################
#
#                 Cambridge Crystallographic Data Centre
#                                CCDC 
#
#######################################################################
#
# If this CIF has been generated from an entry in the Cambridge 
# Structural Database, then it will include bibliographic, chemical, 
# crystal, experimental, refinement or atomic coordinate data resulting 
# from the CCDC's data processing and validation procedures.
#
#######################################################################

data_CUWGAD
_symmetry_cell_setting           orthorhombic
_symmetry_space_group_name_H-M   'P n m a'
_symmetry_Int_Tables_number      62
_space_group_name_Hall           '-P 2ac 2n'
loop_
_symmetry_equiv_pos_site_id
_symmetry_equiv_pos_as_xyz
1 x,y,z
2 1/2-x,-y,1/2+z
3 -x,1/2+y,-z
4 1/2+x,1/2-y,1/2-z
5 -x,-y,-z
6 1/2+x,y,1/2-z
7 x,1/2-y,z
8 1/2-x,1/2+y,1/2+z
_cell_length_a                   14.990(3)
_cell_length_b                   19.809(3)
_cell_length_c                   16.688(3)
_cell_angle_alpha                90
_cell_angle_beta                 90
_cell_angle_gamma                90
_cell_volume                     4955.28
loop_
_atom_site_label
_atom_site_type_symbol
_atom_site_fract_x
_atom_site_fract_y
_atom_site_fract_z
Zn1 Zn 0.40462(4) 0.00348(2) 0.74286(3)
O1 O 0.3494(2) 0.08637(15) 0.7798(2)
O2 O 0.3101(2) 0.11264(16) 0.65724(19)
O3 O 0.3187(2) -0.06882(17) 0.7382(2)
O4 O 0.4361(3) -0.12653(17) 0.7051(3)
N1 N 0.5041(2) 0.01618(17) 0.6599(2)
N2 N 1.0118(2) 0.00710(17) 0.3422(2)
C1 C 0.3096(3) 0.1243(2) 0.7299(3)
C2 C 0.2619(3) 0.18625(19) 0.7619(2)
C3 C 0.2592(4) 0.1872(2) 0.8548(3)
H3 H 0.3194 0.1877 0.8759
H4 H 0.2295 0.1469 0.8743
C4 C 0.2088(6) 0.2500 0.8832(4)
H5 H 0.2065 0.2500 0.9419
C5 C 0.1143(6) 0.2500 0.8506(6)
H6 H 0.0827 0.2897 0.8692
C6 C 0.1184(6) 0.2500 0.7614(5)
H7 H 0.0573 0.2500 0.7405
C7 C 0.1662(3) 0.1875(2) 0.7301(3)
H8 H 0.1348 0.1472 0.7474
H9 H 0.1668 0.1881 0.6720
C8 C 0.3095(4) 0.2500 0.7316(3)
H10 H 0.3101 0.2500 0.6735
H11 H 0.3708 0.2500 0.7502
C9 C 0.3528(4) -0.1234(3) 0.7199(4)
C10 C 0.2974(3) -0.1864(2) 0.7157(3)
C11 C 0.2239(4) -0.1866(2) 0.7805(3)
H12 H 0.2510 -0.1873 0.8333
H13 H 0.1882 -0.1459 0.7761
C12 C 0.1635(6) -0.2500 0.7694(6)
H14 H 0.1160 -0.2500 0.8098
C13 C 0.1221(6) -0.2500 0.6843(7)
H15 H 0.0848 -0.2103 0.6776
C14 C 0.1934(5) -0.2500 0.6229(5)
H16 H 0.1664 -0.2500 0.5695
C15 C 0.2516(3) -0.1874(2) 0.6324(3)
H17 H 0.2967 -0.1869 0.5907
H18 H 0.2151 -0.1473 0.6263
C16 C 0.3531(4) -0.2500 0.7231(4)
H19 H 0.3985 -0.2500 0.6817
H20 H 0.3832 -0.2500 0.7746
C17 C 0.5045(3) 0.0593(2) 0.5985(2)
H21 H 0.4564 0.0886 0.5926
C18 C 0.5721(3) 0.0626(2) 0.5443(2)
H22 H 0.5691 0.0941 0.5031
C19 C 0.6443(3) 0.0205(2) 0.5490(2)
C20 C 0.6453(4) -0.0224(3) 0.6146(3)
H23 H 0.6936 -0.0510 0.6230
C21 C 0.5756(4) -0.0228(3) 0.6669(3)
H24 H 0.5783 -0.0522 0.7102
C22 C 0.7168(3) 0.0196(2) 0.4876(3)
H25 H 0.7076 -0.0185 0.4522
H26 H 0.7129 0.0604 0.4556
C23 C 0.8098(3) 0.0149(3) 0.5235(3)
H27 H 0.8140 -0.0257 0.5558
H28 H 0.8197 0.0533 0.5584
C24 C 0.8811(3) 0.0135(3) 0.4596(3)
C25 C 0.9307(3) 0.0687(2) 0.4392(3)
H29 H 0.9212 0.1096 0.4653
C26 C 0.9944(3) 0.0643(2) 0.3805(3)
H30 H 1.0266 0.1028 0.3670
C27 C 0.9657(3) -0.0468(2) 0.3633(3)
H31 H 0.9789 -0.0877 0.3386
C28 C 0.8997(3) -0.0456(3) 0.4192(3)
H32 H 0.8672 -0.0845 0.4302
Zn1F Zn 0.40462(4) 0.49652(2) 0.74286(3)
Zn1A Zn 1.09538(4) -0.00348(2) 0.24286(3)
Zn1F_2 Zn 0.40462(4) -0.50348(2) 0.74286(3)
Zn1A_2 Zn 1.09538(4) -0.00348(2) 1.24286(3)
O1F O 0.3494(2) 0.41363(15) 0.7798(2)
O2F O 0.3101(2) 0.38736(16) 0.65724(19)
O3F O 0.3187(2) -0.43118(17) 0.7382(2)
O3F_2 O 0.3187(2) 0.56882(17) 0.7382(2)
O4F O 0.4361(3) -0.37347(17) 0.7051(3)
N1A N 0.9959(2) -0.01618(17) 1.1599(2)
N1F N 0.5041(2) 0.48382(17) 0.6599(2)
N2A N 0.4882(2) -0.00710(17) 0.8422(2)
N2G N 0.4882(2) 0.50710(17) 0.8422(2)
C1F C 0.3096(3) 0.3757(2) 0.7299(3)
C2F C 0.2619(3) 0.31375(19) 0.7619(2)
C3F C 0.2592(4) 0.3128(2) 0.8548(3)
H3F H 0.3194 0.3123 0.8759
H4F H 0.2295 0.3531 0.8743
H6F H 0.0827 0.2103 0.8692
C7F C 0.1662(3) 0.3125(2) 0.7301(3)
H8F H 0.1348 0.3528 0.7474
H9F H 0.1668 0.3119 0.6720
C9F C 0.3528(4) -0.3766(3) 0.7199(4)
C10F C 0.2974(3) -0.3136(2) 0.7157(3)
C11F C 0.2239(4) -0.3134(2) 0.7805(3)
H12F H 0.2510 -0.3127 0.8333
H13F H 0.1882 -0.3541 0.7761
H15F H 0.0848 -0.2897 0.6776
C15F C 0.2516(3) -0.3126(2) 0.6324(3)
H17F H 0.2967 -0.3131 0.5907
H18F H 0.2151 -0.3527 0.6263
C17A C 0.9955(3) -0.0593(2) 1.0985(2)
H21A H 1.0436 -0.0886 1.0926
C18A C 0.9279(3) -0.0626(2) 1.0443(2)
H22A H 0.9309 -0.0941 1.0031
C19A C 0.8557(3) -0.0205(2) 1.0490(2)
C20A C 0.8547(4) 0.0224(3) 1.1146(3)
H23A H 0.8064 0.0510 1.1230
C21A C 0.9244(4) 0.0228(3) 1.1669(3)
H24A H 0.9217 0.0522 1.2102
C22A C 0.7832(3) -0.0196(2) 0.9876(3)
H25A H 0.7924 0.0185 0.9522
H26A H 0.7871 -0.0604 0.9556
C23A C 0.6902(3) -0.0149(3) 1.0235(3)
H27A H 0.6860 0.0257 1.0558
H28A H 0.6803 -0.0533 1.0584
C24A C 0.6189(3) -0.0135(3) 0.9596(3)
C25A C 0.5693(3) -0.0687(2) 0.9392(3)
H29A H 0.5788 -0.1096 0.9653
C26A C 0.5056(3) -0.0643(2) 0.8805(3)
H30A H 0.4734 -0.1028 0.8670
C27A C 0.5343(3) 0.0468(2) 0.8633(3)
H31A H 0.5211 0.0877 0.8386
C28A C 0.6003(3) 0.0456(3) 0.9192(3)
H32A H 0.6328 0.0845 0.9302
O5 O 0.2032(3) 0.6772(2) 0.0090(2)
H1 H 0.1948 0.6649 0.0556
H2 H 0.2543 0.6889 0.0146
O6 O 0.9743(3) 0.3186(2) 0.0666(3)
H35 H 0.9843 0.2806 0.0459
H36 H 0.9229 0.3189 0.0836
O7 O 0.4136(6) 0.7174(5) 0.9807(6)
H33? H 0.4229 0.7500 0.9670
H34? H 0.3877 0.8046 0.9512
loop_
_geom_bond_atom_site_label_1
_geom_bond_atom_site_label_2
_geom_bond_site_symmetry_1
_geom_bond_site_symmetry_2
Zn1 O1 1_555 1_555
O1 C1 1_555 1_555
O2 C1 1_555 1_555
O3 Zn1 1_555 1_555
O4 C9 1_555 1_555
O5 H1 1_555 1_555
H2 O5 1_555 1_555
O6 H35 1_555 1_555
N1 Zn1 1_555 1_555
N2 C26 1_555 1_555
C1 C2 1_555 1_555
C2 C3 1_555 1_555
C3 H3 1_555 1_555
H4 C3 1_555 1_555
C4 C3 1_555 1_555
H5 C4 1_555 1_555
C5 C4 1_555 1_555
H6 C5 1_555 1_555
C6 C5 1_555 1_555
H7 C6 1_555 1_555
C7 C2 1_555 1_555
H8 C7 1_555 1_555
H9 C7 1_555 1_555
C8 C2 1_555 1_555
H10 C8 1_555 1_555
H11 C8 1_555 1_555
C9 O3 1_555 1_555
C10 C9 1_555 1_555
C11 C10 1_555 1_555
H12 C11 1_555 1_555
H13 C11 1_555 1_555
C12 C11 1_555 1_555
H14 C12 1_555 1_555
C13 C12 1_555 1_555
H15 C13 1_555 1_555
C14 C13 1_555 1_555
H16 C14 1_555 1_555
C15 C10 1_555 1_555
H17 C15 1_555 1_555
H18 C15 1_555 1_555
C16 C10 1_555 1_555
H19 C16 1_555 1_555
H20 C16 1_555 1_555
C17 N1 1_555 1_555
H21 C17 1_555 1_555
C18 C17 1_555 1_555
H22 C18 1_555 1_555
C19 C18 1_555 1_555
C20 C19 1_555 1_555
H23 C20 1_555 1_555
C21 N1 1_555 1_555
H24 C21 1_555 1_555
C22 C19 1_555 1_555
H25 C22 1_555 1_555
H26 C22 1_555 1_555
C23 C22 1_555 1_555
H27 C23 1_555 1_555
H28 C23 1_555 1_555
C24 C23 1_555 1_555
C25 C24 1_555 1_555
H29 C25 1_555 1_555
C26 C25 1_555 1_555
H30 C26 1_555 1_555
C27 N2 1_555 1_555
H31 C27 1_555 1_555
C28 C24 1_555 1_555
H32 C28 1_555 1_555
H36 O6 1_555 1_555
Zn1F O1F 1_555 1_555
Zn1A N2 1_555 1_555
Zn1F_2 O3F 1_555 1_555
Zn1A_2 N1A 1_555 1_555
O1F C1F 1_555 1_555
O2F C1F 1_555 1_555
O3F C9F 1_555 1_555
O3F_2 Zn1F 1_555 1_555
O4F C9F 1_555 1_555
N1A C17A 1_555 1_555
N1F Zn1F 1_555 1_555
N2A Zn1 1_555 1_555
N2G Zn1F 1_555 1_555
C1F C2F 1_555 1_555
C2F C8 1_555 1_555
C3F C4 1_555 1_555
H3F C3F 1_555 1_555
H4F C3F 1_555 1_555
H6F C5 1_555 1_555
C7F C6 1_555 1_555
H8F C7F 1_555 1_555
H9F C7F 1_555 1_555
C9F C10F 1_555 1_555
C10F C16 1_555 1_555
C11F C12 1_555 1_555
H12F C11F 1_555 1_555
H13F C11F 1_555 1_555
H15F C13 1_555 1_555
C15F C14 1_555 1_555
H17F C15F 1_555 1_555
H18F C15F 1_555 1_555
C17A H21A 1_555 1_555
C18A C17A 1_555 1_555
H22A C18A 1_555 1_555
C19A C18A 1_555 1_555
C20A C19A 1_555 1_555
H23A C20A 1_555 1_555
C21A N1A 1_555 1_555
H24A C21A 1_555 1_555
C22A C19A 1_555 1_555
H25A C22A 1_555 1_555
H26A C22A 1_555 1_555
C23A C22A 1_555 1_555
H27A C23A 1_555 1_555
H28A C23A 1_555 1_555
C24A C23A 1_555 1_555
C25A C24A 1_555 1_555
H29A C25A 1_555 1_555
C26A N2A 1_555 1_555
H30A C26A 1_555 1_555
C27A N2A 1_555 1_555
H31A C27A 1_555 1_555
C28A C24A 1_555 1_555
H32A C28A 1_555 1_555
C6 C7 1_555 1_555
C14 C15 1_555 1_555
C20 C21 1_555 1_555
C27 C28 1_555 1_555
C2F C3F 1_555 1_555
C2F C7F 1_555 1_555
C10F C11F 1_555 1_555
C10F C15F 1_555 1_555
C20A C21A 1_555 1_555
C25A C26A 1_555 1_555
C27A C28A 1_555 1_555

#END
