
#######################################################################
#
#                 Cambridge Crystallographic Data Centre
#                                CCDC 
#
#######################################################################
#
# If this CIF has been generated from an entry in the Cambridge 
# Structural Database, then it will include bibliographic, chemical, 
# crystal, experimental, refinement or atomic coordinate data resulting 
# from the CCDC's data processing and validation procedures.
#
#######################################################################

data_CUWNEO
_symmetry_cell_setting           monoclinic
_symmetry_space_group_name_H-M   'C 2/c'
_symmetry_Int_Tables_number      15
_space_group_name_Hall           '-C 2yn'
loop_
_symmetry_equiv_pos_site_id
_symmetry_equiv_pos_as_xyz
1 x,y,z
2 -x,y,1/2-z
3 1/2+x,1/2+y,z
4 1/2-x,1/2+y,1/2-z
5 -x,-y,-z
6 x,-y,1/2+z
7 1/2-x,1/2-y,-z
8 1/2+x,1/2-y,1/2+z
_cell_length_a                   20.362(4)
_cell_length_b                   10.759(2)
_cell_length_c                   14.713(3)
_cell_angle_alpha                90
_cell_angle_beta                 119.614(4)
_cell_angle_gamma                90
_cell_volume                     2802.21
loop_
_atom_site_label
_atom_site_type_symbol
_atom_site_fract_x
_atom_site_fract_y
_atom_site_fract_z
Ag1 Ag 0.712504(17) 0.61103(2) 1.05125(2)
F1 F 0.55752(19) 0.8785(3) 1.0087(3)
F2 F 0.5169(2) 0.7861(4) 0.8658(4)
F3 F 0.50267(17) 0.9774(3) 0.8702(3)
O1 O 0.67225(17) 0.8191(3) 0.9617(3)
O2 O 0.63477(16) 1.0026(2) 0.8838(2)
N1 N 0.76222(18) 0.6908(3) 1.2139(2)
N2 N 0.84282(17) 0.9490(3) 1.5476(2)
N3 N 0.87836(17) 0.7571(3) 1.6088(2)
H1 H 0.8856 0.6774 1.6091
C1 C 0.8221(2) 0.6399(4) 1.2968(3)
H2 H 0.8462 0.5723 1.2850
C2 C 0.8503(2) 0.6808(4) 1.3983(3)
H3 H 0.8918 0.6410 1.4539
C3 C 0.8158(2) 0.7826(3) 1.4166(3)
C4 C 0.7557(2) 0.8365(4) 1.3320(3)
H4 H 0.7311 0.9054 1.3410
C5 C 0.7315(2) 0.7884(4) 1.2331(3)
H5 H 0.6907 0.8276 1.1760
C6 C 0.8447(2) 0.8317(3) 1.5229(3)
C7 C 0.8989(2) 0.8318(3) 1.6952(3)
C8 C 0.9339(2) 0.8038(4) 1.8016(3)
H6 H 0.9490 0.7226 1.8270
C9 C 0.9447(2) 0.9023(4) 1.8667(3)
H7 H 0.9668 0.8877 1.9389
C10 C 0.9242(2) 1.0229(4) 1.8296(3)
H8 H 0.9336 1.0876 1.8774
C11 C 0.8902(2) 1.0502(4) 1.7242(3)
H9 H 0.8768 1.1319 1.6993
C12 C 0.8769(2) 0.9502(3) 1.6564(3)
C13 C 0.6267(2) 0.9045(3) 0.9208(3)
C14 C 0.5506(3) 0.8847(4) 0.9146(4)
Ag1F Ag 0.787496(17) 0.88897(2) 0.94875(2)
Ag1C Ag 0.787496(17) 1.11103(2) 1.44875(2)
O1F O 0.82775(17) 0.6809(3) 1.0383(3)
N2C N 0.65718(17) 0.4490(3) 0.9524(2)
loop_
_geom_bond_atom_site_label_1
_geom_bond_atom_site_label_2
_geom_bond_site_symmetry_1
_geom_bond_site_symmetry_2
Ag1 O1 1_555 1_555
F1 C14 1_555 1_555
F2 C14 1_555 1_555
F3 C14 1_555 1_555
O1 C13 1_555 1_555
O2 C13 1_555 1_555
N1 Ag1 1_555 1_555
N2 C6 1_555 1_555
N3 H1 1_555 1_555
C1 N1 1_555 1_555
H2 C1 1_555 1_555
C2 C1 1_555 1_555
H3 C2 1_555 1_555
C3 C2 1_555 1_555
C4 C3 1_555 1_555
H4 C4 1_555 1_555
C5 N1 1_555 1_555
H5 C5 1_555 1_555
C6 N3 1_555 1_555
C7 N3 1_555 1_555
C8 C7 1_555 1_555
H6 C8 1_555 1_555
C9 C8 1_555 1_555
H7 C9 1_555 1_555
C10 C9 1_555 1_555
H8 C10 1_555 1_555
C11 C10 1_555 1_555
H9 C11 1_555 1_555
C12 N2 1_555 1_555
C13 C14 1_555 1_555
Ag1F O1 1_555 1_555
Ag1C N2 1_555 1_555
O1F Ag1 1_555 1_555
N2C Ag1 1_555 1_555
C3 C6 1_555 1_555
C4 C5 1_555 1_555
C7 C12 1_555 1_555
C11 C12 1_555 1_555
Ag1F O1F 1_555 1_555

#END
