
#######################################################################
#
#                 Cambridge Crystallographic Data Centre
#                                CCDC 
#
#######################################################################
#
# If this CIF has been generated from an entry in the Cambridge 
# Structural Database, then it will include bibliographic, chemical, 
# crystal, experimental, refinement or atomic coordinate data resulting 
# from the CCDC's data processing and validation procedures.
#
#######################################################################

data_CUWRES
_symmetry_cell_setting           orthorhombic
_symmetry_space_group_name_H-M   'C m m a'
_symmetry_Int_Tables_number      67
_space_group_name_Hall           '-C 2a 2'
loop_
_symmetry_equiv_pos_site_id
_symmetry_equiv_pos_as_xyz
1 x,y,z
2 -x,1/2-y,z
3 -x,1/2+y,-z
4 x,-y,-z
5 1/2+x,1/2+y,z
6 1/2-x,-y,z
7 1/2-x,y,-z
8 1/2+x,1/2-y,-z
9 -x,-y,-z
10 x,1/2+y,-z
11 x,1/2-y,z
12 -x,y,z
13 1/2-x,1/2-y,-z
14 1/2+x,y,-z
15 1/2+x,-y,z
16 1/2-x,1/2+y,z
_cell_length_a                   16.5122(7)
_cell_length_b                   21.6214(7)
_cell_length_c                   3.8322(1)
_cell_angle_alpha                90
_cell_angle_beta                 90
_cell_angle_gamma                90
_cell_volume                     1368.16
loop_
_atom_site_label
_atom_site_type_symbol
_atom_site_fract_x
_atom_site_fract_y
_atom_site_fract_z
Nb1 Nb 1.0000 0.2500 0.8710(2)
Cu1 Cu 0.7500 0.2500 1.5000
F1 F 0.8850(2) 0.2500 0.9348(15)
F2 F 1.0000 0.33837(17) 0.9242(14)
O1 O 1.0000 0.2500 0.4210(19)
N1 N 0.7500 0.3371(2) 1.5000
C1 C 0.6852(2) 0.36869(15) 1.6089(11)
H1 H 0.6403 0.3468 1.6868
C2 C 0.6825(2) 0.43262(14) 1.6104(10)
H2 H 0.6361 0.4532 1.6843
C3 C 0.7500 0.46570(19) 1.5000
C2F C 0.8175(2) 0.43262(14) 1.3896(10)
C1F C 0.8148(2) 0.36869(15) 1.3911(11)
H1F H 0.8597 0.3468 1.3132
H2F H 0.8639 0.4532 1.3157
C3C C 0.7500 0.53430(19) 1.5000
C2C C 0.6825(2) 0.56738(14) 1.3896(10)
C1C C 0.6852(2) 0.63131(15) 1.3911(11)
N1C N 0.7500 0.6629(2) 1.5000
C1E C 0.8148(2) 0.63131(15) 1.6089(11)
H1E H 0.8597 0.6532 1.6868
C2E C 0.8175(2) 0.56738(14) 1.6104(10)
H2E H 0.8639 0.5468 1.6843
H1C H 0.6403 0.6532 1.3132
H2C H 0.6361 0.5468 1.3157
F1A F 1.1150(2) 0.2500 0.9348(15)
F2A F 1.0000 0.16163(17) 0.9242(14)
O1_2 O 1.0000 0.2500 1.4210(19)
F1_2 F 0.8850(2) 0.2500 1.9348(15)
F1F F 0.6150(2) 0.2500 1.0652(15)
F1F_2 F 0.6150(2) 0.2500 2.0652(15)
N1J N 0.7500 0.1629(2) 1.5000
Cu1_2 Cu 0.7500 0.2500 0.5000
Nb1_2 Nb 1.0000 0.2500 -0.1290(2)
Cu1C Cu 0.7500 0.7500 1.5000
Cu1A Cu 1.2500 0.2500 1.5000
Cu1A_2 Cu 1.2500 0.2500 0.5000
O2 O 0.5000 0.0340(4) 0.267(5)
H3 H 0.5000 0.0773(14) 0.23(4)
H4 H 0.5000 0.035(2) 0.012(7)
loop_
_geom_bond_atom_site_label_1
_geom_bond_atom_site_label_2
_geom_bond_site_symmetry_1
_geom_bond_site_symmetry_2
Nb1 F1 1_555 1_555
Cu1 F1 1_555 1_555
F1 Cu1_2 1_555 1_555
F2 Nb1 1_555 1_555
O1 Nb1 1_555 1_555
O2 H3 1_555 1_555
N1 Cu1 1_555 1_555
C1 N1 1_555 1_555
H1 C1 1_555 1_555
C2 C1 1_555 1_555
H2 C2 1_555 1_555
C3 C2 1_555 1_555
H4 O2 1_555 1_555
C2F C3 1_555 1_555
C1F N1 1_555 1_555
H1F C1F 1_555 1_555
H2F C2F 1_555 1_555
C3C C3 1_555 1_555
C2C C3C 1_555 1_555
C1C C2C 1_555 1_555
N1C C1C 1_555 1_555
C1E N1C 1_555 1_555
H1E C1E 1_555 1_555
C2E C3C 1_555 1_555
H2E C2E 1_555 1_555
H1C C1C 1_555 1_555
H2C C2C 1_555 1_555
F1A Nb1 1_555 1_555
F2A Nb1 1_555 1_555
O1_2 Nb1 1_555 1_555
F1_2 Cu1 1_555 1_555
F1F Cu1 1_555 1_555
F1F_2 Cu1 1_555 1_555
N1J Cu1 1_555 1_555
Cu1_2 F1F 1_555 1_555
Nb1_2 O1 1_555 1_555
Cu1C N1C 1_555 1_555
Cu1A F1A 1_555 1_555
Cu1A_2 F1A 1_555 1_555
C2F C1F 1_555 1_555
C1E C2E 1_555 1_555

#END
