
#######################################################################
#
#                 Cambridge Crystallographic Data Centre
#                                CCDC 
#
#######################################################################
#
# If this CIF has been generated from an entry in the Cambridge 
# Structural Database, then it will include bibliographic, chemical, 
# crystal, experimental, refinement or atomic coordinate data resulting 
# from the CCDC's data processing and validation procedures.
#
#######################################################################

data_CUWRAO
_symmetry_cell_setting           orthorhombic
_symmetry_space_group_name_H-M   'C m c a'
_symmetry_Int_Tables_number      64
_space_group_name_Hall           '-C 2ac 2'
loop_
_symmetry_equiv_pos_site_id
_symmetry_equiv_pos_as_xyz
1 x,y,z
2 -x,1/2-y,1/2+z
3 -x,1/2+y,1/2-z
4 x,-y,-z
5 1/2+x,1/2+y,z
6 1/2-x,-y,1/2+z
7 1/2-x,y,1/2-z
8 1/2+x,1/2-y,-z
9 -x,-y,-z
10 x,1/2+y,1/2-z
11 x,1/2-y,1/2+z
12 -x,y,z
13 1/2-x,1/2-y,-z
14 1/2+x,y,1/2-z
15 1/2+x,-y,1/2+z
16 1/2-x,1/2+y,z
_cell_length_a                   14.3011(5)
_cell_length_b                   7.8202(3)
_cell_length_c                   15.0078(5)
_cell_angle_alpha                90
_cell_angle_beta                 90
_cell_angle_gamma                90
_cell_volume                     1678.43
loop_
_atom_site_label
_atom_site_type_symbol
_atom_site_fract_x
_atom_site_fract_y
_atom_site_fract_z
Ag1 Ag 0.5000 0.24635(8) 0.01298(10)
Nb1 Nb 0.5000 0.53533(14) -0.24858(4)
F1 F 0.5000 0.4683(14) -0.1224(6)
F2 F 0.3686(7) 0.5027(14) -0.2489(2)
F3 F 0.5000 -0.0373(16) 0.1244(6)
O1 O 0.5000 0.7583(14) -0.2293(10)
N1 N 0.6531(6) 0.2482(5) 0.0083(7)
C1 C 0.6971(6) 0.2810(14) -0.0695(9)
H1 H 0.6612 0.3026 -0.1199
C2 C 0.7065(6) 0.2163(14) 0.0770(10)
H2 H 0.6793 0.1915 0.1318
Ag1C Ag 0.5000 0.75365(8) -0.01298(10)
Ag1C_2 Ag 0.5000 -0.24635(8) -0.01298(10)
Ag1G Ag 1.0000 0.25365(8) -0.01298(10)
Nb1A Nb 0.5000 -0.03533(14) 0.25142(4)
Nb1B Nb 0.5000 1.03533(14) -0.25142(4)
F1C F 0.5000 0.5317(14) 0.1224(6)
F2K F 0.6314(7) 0.5027(14) -0.2489(2)
F3C F 0.5000 0.0373(16) -0.1244(6)
F3A F 0.5000 0.5373(16) -0.3756(6)
O1B O 0.5000 0.2583(14) -0.2707(10)
N1L N 0.8469(6) 0.2518(5) -0.0083(7)
N1K N 0.3469(6) 0.2482(5) 0.0083(7)
C1L C 0.8029(6) 0.2190(14) 0.0695(9)
H1L H 0.8388 0.1974 0.1199
C2L C 0.7935(6) 0.2837(14) -0.0770(10)
H2L H 0.8207 0.3085 -0.1318
loop_
_geom_bond_atom_site_label_1
_geom_bond_atom_site_label_2
_geom_bond_site_symmetry_1
_geom_bond_site_symmetry_2
Ag1 F1 1_555 1_555
Nb1 F1 1_555 1_555
F1 Ag1C 1_555 1_555
F2 Nb1 1_555 1_555
F3 Ag1 1_555 1_555
O1 Nb1 1_555 1_555
N1 Ag1 1_555 1_555
C1 N1 1_555 1_555
H1 C1 1_555 1_555
C2 N1 1_555 1_555
H2 C2 1_555 1_555
Ag1C F1C 1_555 1_555
Ag1C_2 F3 1_555 1_555
Ag1G N1L 1_555 1_555
Nb1A F3 1_555 1_555
Nb1B O1 1_555 1_555
F1C Ag1 1_555 1_555
F2K Nb1 1_555 1_555
F3C Ag1 1_555 1_555
F3A Nb1 1_555 1_555
O1B Nb1 1_555 1_555
N1L C1L 1_555 1_555
N1K Ag1 1_555 1_555
C1L C2 1_555 1_555
H1L C1L 1_555 1_555
C2L C1 1_555 1_555
H2L C2L 1_555 1_555
Ag1C_2 F3C 1_555 1_555
N1L C2L 1_555 1_555

#END
