
#######################################################################
#
#                 Cambridge Crystallographic Data Centre
#                                CCDC 
#
#######################################################################
#
# If this CIF has been generated from an entry in the Cambridge 
# Structural Database, then it will include bibliographic, chemical, 
# crystal, experimental, refinement or atomic coordinate data resulting 
# from the CCDC's data processing and validation procedures.
#
#######################################################################

data_CUWRIW
_symmetry_cell_setting           monoclinic
_symmetry_space_group_name_H-M   'I 2/m'
_symmetry_Int_Tables_number      12
_space_group_name_Hall           '-I 2y'
loop_
_symmetry_equiv_pos_site_id
_symmetry_equiv_pos_as_xyz
1 x,y,z
2 -x,y,-z
3 1/2+x,1/2+y,1/2+z
4 1/2-x,1/2+y,1/2-z
5 -x,-y,-z
6 x,-y,z
7 1/2-x,1/2-y,1/2-z
8 1/2+x,1/2-y,1/2+z
_cell_length_a                   3.8103(2)
_cell_length_b                   16.7026(10)
_cell_length_c                   22.2523(12)
_cell_angle_alpha                90
_cell_angle_beta                 90.021(3)
_cell_angle_gamma                90
_cell_volume                     1416.18
loop_
_atom_site_label
_atom_site_type_symbol
_atom_site_fract_x
_atom_site_fract_y
_atom_site_fract_z
Nb1 Nb 0.1854(3) 0.0000 0.25741(4)
Ag1 Ag 0.7500 0.2500 0.2500
N1 N 0.6696(15) 0.2512(3) 0.1554(2)
C1 C 0.7297(17) 0.3167(4) 0.1231(2)
H1 H 0.8181 0.3631 0.1427
C2 C 0.6673(16) 0.3194(4) 0.0617(2)
H2 H 0.7151 0.3669 0.0396
C3 C 0.4707(16) 0.1849(4) 0.0668(2)
H3 H 0.3801 0.1378 0.0486
C4 C 0.5356(15) 0.2529(3) 0.0329(2)
C5 C 0.5404(18) 0.1869(4) 0.1277(2)
H4 H 0.4942 0.1404 0.1509
F1 F 0.241(3) 0.0000 0.3435(3)
F2 F 0.247(2) 0.0000 0.1718(3)
F3 F 0.2549(16) 0.1133(3) 0.2580(2)
O1 O -0.268(3) 0.0000 0.2574(5)
Nb1_2 Nb -0.8146(3) 0.0000 0.25741(4)
Ag1_2 Ag -0.2500 0.2500 0.2500
Ag1A Ag 0.2500 0.2500 -0.2500
Ag1C Ag 0.7500 -0.2500 0.2500
Ag1C_2 Ag -0.2500 -0.2500 0.2500
N1A N 0.3304(15) 0.2512(3) -0.1554(2)
N1F N 0.8304(15) 0.2488(3) 0.3446(2)
C1A C 0.2703(17) 0.3167(4) -0.1231(2)
H1A H 0.1819 0.3631 -0.1427
C2A C 0.3327(16) 0.3194(4) -0.0617(2)
H2A H 0.2849 0.3669 -0.0396
C3A C 0.5293(16) 0.1849(4) -0.0668(2)
H3A H 0.6199 0.1378 -0.0486
C4A C 0.4644(15) 0.2529(3) -0.0329(2)
C5A C 0.4596(18) 0.1869(4) -0.1277(2)
H4A H 0.5058 0.1404 -0.1509
F3E F 0.2549(16) -0.1133(3) 0.2580(2)
F3_2 F 1.2549(16) 0.1133(3) 0.2580(2)
F3F F 0.2451(16) 0.3867(3) 0.2420(2)
F3F_2 F 1.2451(16) 0.3867(3) 0.2420(2)
O1_2 O 0.732(3) 0.0000 0.2574(5)
O2 O 0.058(12) 0.0000 0.0531(11)
H5 H -0.1703 0.0000 0.0587
H6 H 0.0819 0.0000 0.0146
O3 O 0.254(6) 0.0000 0.4673(6)
H7 H 0.0279 0.0000 0.4584
H8 H 0.3759 0.0000 0.4319
loop_
_geom_bond_atom_site_label_1
_geom_bond_atom_site_label_2
_geom_bond_site_symmetry_1
_geom_bond_site_symmetry_2
Nb1 F1 1_555 1_555
Ag1 N1 1_555 1_555
N1 C1 1_555 1_555
C1 H1 1_555 1_555
C2 C1 1_555 1_555
H2 C2 1_555 1_555
C3 H3 1_555 1_555
C4 C2 1_555 1_555
C5 N1 1_555 1_555
H4 C5 1_555 1_555
F2 Nb1 1_555 1_555
F3 Nb1 1_555 1_555
O1 Nb1 1_555 1_555
O2 H5 1_555 1_555
H6 O2 1_555 1_555
O3 H7 1_555 1_555
H8 O3 1_555 1_555
Nb1_2 O1 1_555 1_555
Ag1_2 F3 1_555 1_555
Ag1A N1A 1_555 1_555
Ag1C F3E 1_555 1_555
Ag1C_2 F3E 1_555 1_555
N1A C1A 1_555 1_555
N1F Ag1 1_555 1_555
C1A H1A 1_555 1_555
C2A C1A 1_555 1_555
H2A C2A 1_555 1_555
C3A H3A 1_555 1_555
C4A C4 1_555 1_555
C5A N1A 1_555 1_555
H4A C5A 1_555 1_555
F3E Nb1 1_555 1_555
F3_2 Ag1 1_555 1_555
F3F Ag1 1_555 1_555
F3F_2 Ag1 1_555 1_555
O1_2 Nb1 1_555 1_555
Ag1 F3 1_555 1_555
C3 C4 1_555 1_555
C3 C5 1_555 1_555
Ag1_2 F3F 1_555 1_555
C2A C4A 1_555 1_555
C3A C4A 1_555 1_555
C3A C5A 1_555 1_555

#END
