
#######################################################################
#
#                 Cambridge Crystallographic Data Centre
#                                CCDC 
#
#######################################################################
#
# If this CIF has been generated from an entry in the Cambridge 
# Structural Database, then it will include bibliographic, chemical, 
# crystal, experimental, refinement or atomic coordinate data resulting 
# from the CCDC's data processing and validation procedures.
#
#######################################################################

data_CUWROC
_symmetry_cell_setting           orthorhombic
_symmetry_space_group_name_H-M   'F d d d'
_symmetry_Int_Tables_number      70
_space_group_name_Hall           '-F 2uv 2vw'
loop_
_symmetry_equiv_pos_site_id
_symmetry_equiv_pos_as_xyz
1 x,y,z
2 3/4-x,3/4-y,z
3 3/4-x,y,3/4-z
4 x,3/4-y,3/4-z
5 x,1/2+y,1/2+z
6 3/4-x,1/4-y,1/2+z
7 3/4-x,1/2+y,1/4-z
8 x,1/4-y,1/4-z
9 1/2+x,y,1/2+z
10 1/4-x,3/4-y,1/2+z
11 1/4-x,y,1/4-z
12 1/2+x,3/4-y,1/4-z
13 1/2+x,1/2+y,z
14 1/4-x,1/4-y,z
15 1/4-x,1/2+y,3/4-z
16 1/2+x,1/4-y,3/4-z
17 -x,-y,-z
18 1/4+x,1/4+y,-z
19 1/4+x,-y,1/4+z
20 -x,1/4+y,1/4+z
21 -x,1/2-y,1/2-z
22 1/4+x,3/4+y,1/2-z
23 1/4+x,1/2-y,3/4+z
24 -x,3/4+y,3/4+z
25 1/2-x,-y,1/2-z
26 3/4+x,1/4+y,1/2-z
27 3/4+x,-y,3/4+z
28 1/2-x,1/4+y,3/4+z
29 1/2-x,1/2-y,-z
30 3/4+x,3/4+y,-z
31 3/4+x,1/2-y,1/4+z
32 1/2-x,3/4+y,1/4+z
_cell_length_a                   17.2369(8)
_cell_length_b                   35.5472(19)
_cell_length_c                   9.9845(5)
_cell_angle_alpha                90
_cell_angle_beta                 90
_cell_angle_gamma                90
_cell_volume                     6117.74
loop_
_atom_site_label
_atom_site_type_symbol
_atom_site_fract_x
_atom_site_fract_y
_atom_site_fract_z
O1 O 0.1039(11) 0.8875(8) 0.549(2)
H6 H 0.0777 0.8915 0.4778
H7 H 0.1033 0.8666 0.5041
O2 O 0.0001(11) 0.8621(9) 0.7518(11)
H8 H 0.0420 0.8712 0.7190
H9 H -0.0220 0.8617 0.6743
Nb1 Nb 0.8750 0.8750 0.3750
Cu1 Cu 0.8750 0.75794(8) 0.3750
F1 F 0.8750 0.8220(3) 0.3750
F2 F 0.8750 0.8750 0.5694(11)
F3 F 0.9892(6) 0.8750 0.3750
N1 N 0.7697(6) 0.7515(3) 0.3363(10)
C1 C 0.7363(9) 0.7167(4) 0.3281(14)
H1 H 0.7678 0.6955 0.3349
C2 C 0.6568(9) 0.7118(4) 0.3099(15)
H2 H 0.6361 0.6876 0.3116
C3 C 0.6073(6) 0.7425(4) 0.2890(12)
C4 C 0.6413(7) 0.7779(4) 0.3065(11)
H3 H 0.6106 0.7994 0.3082
C5 C 0.7224(8) 0.7808(4) 0.3216(14)
H4 H 0.7442 0.8047 0.3213
C6 C 0.5251(7) 0.7369(4) 0.2625(12)
H5 H 0.5069 0.7123 0.2636
Cu1A Cu 0.8750 0.99206(8) 0.3750
Cu1T Cu 0.1250 0.74206(8) 0.1250
Cu1BA Cu 1.6250 0.74206(8) 0.6250
F1A F 0.8750 0.9280(3) 0.3750
F2B F 0.8750 0.8750 0.1806(11)
F3A F 0.7608(6) 0.8750 0.3750
N1T N 0.2303(6) 0.7485(3) 0.1637(10)
N1B N 0.9803(6) 0.7515(3) 0.4137(10)
N1DA N 1.5197(6) 0.7485(3) 0.5863(10)
N1A N 0.9803(6) 0.9985(3) 0.3363(10)
N1C N 0.7697(6) 0.9985(3) 0.4137(10)
C1T C 0.2637(9) 0.7833(4) 0.1719(14)
C1B C 1.0137(9) 0.7167(4) 0.4219(14)
C1DA C 1.4863(9) 0.7833(4) 0.5781(14)
H1T H 0.2322 0.8045 0.1651
H1B H 0.9822 0.6955 0.4151
H1DA H 1.5178 0.8045 0.5849
C2T C 0.3432(9) 0.7882(4) 0.1901(15)
C2B C 1.0932(9) 0.7118(4) 0.4401(15)
C2DA C 1.4068(9) 0.7882(4) 0.5599(15)
H2T H 0.3639 0.8124 0.1884
H2B H 1.1139 0.6876 0.4384
H2DA H 1.3861 0.8124 0.5616
C3T C 0.3927(6) 0.7575(4) 0.2110(12)
C3B C 1.1427(6) 0.7425(4) 0.4610(12)
C3DA C 1.3573(6) 0.7575(4) 0.5390(12)
C4T C 0.3587(7) 0.7221(4) 0.1935(11)
C4B C 1.1087(7) 0.7779(4) 0.4435(11)
C4DA C 1.3913(7) 0.7221(4) 0.5565(11)
H3T H 0.3894 0.7006 0.1918
H3B H 1.1394 0.7994 0.4418
H3DA H 1.3606 0.7006 0.5582
C5T C 0.2776(8) 0.7192(4) 0.1784(14)
C5B C 1.0276(8) 0.7808(4) 0.4284(14)
C5DA C 1.4724(8) 0.7192(4) 0.5716(14)
H4T H 0.2558 0.6953 0.1787
H4B H 1.0058 0.8047 0.4287
H4DA H 1.4942 0.6953 0.5713
C6T C 0.4749(7) 0.7631(4) 0.2375(12)
C6B C 1.2249(7) 0.7369(4) 0.4875(12)
C6DA C 1.2751(7) 0.7631(4) 0.5125(12)
H5T H 0.4931 0.7877 0.2364
H5B H 1.2431 0.7123 0.4864
H5DA H 1.2569 0.7877 0.5136
loop_
_geom_bond_atom_site_label_1
_geom_bond_atom_site_label_2
_geom_bond_site_symmetry_1
_geom_bond_site_symmetry_2
Nb1 F1 1_555 1_555
Cu1 F1 1_555 1_555
F2 Nb1 1_555 1_555
F3 Nb1 1_555 1_555
N1 Cu1 1_555 1_555
C1 N1 1_555 1_555
H1 C1 1_555 1_555
C2 C1 1_555 1_555
H2 C2 1_555 1_555
C3 C2 1_555 1_555
C4 C3 1_555 1_555
H3 C4 1_555 1_555
C5 N1 1_555 1_555
H4 C5 1_555 1_555
C6 C3 1_555 1_555
H5 C6 1_555 1_555
O1 H6 1_555 1_555
H7 O1 1_555 1_555
O2 H8 1_555 1_555
H9 O2 1_555 1_555
Cu1A F1A 1_555 1_555
Cu1T N1T 1_555 1_555
Cu1BA N1DA 1_555 1_555
F1A Nb1 1_555 1_555
F2B Nb1 1_555 1_555
F3A Nb1 1_555 1_555
N1T C1T 1_555 1_555
N1B Cu1 1_555 1_555
N1DA C1DA 1_555 1_555
N1A Cu1A 1_555 1_555
N1C Cu1A 1_555 1_555
C1T H1T 1_555 1_555
C1B N1B 1_555 1_555
C1DA H1DA 1_555 1_555
H1B C1B 1_555 1_555
C2T C1T 1_555 1_555
C2B C1B 1_555 1_555
C2DA C1DA 1_555 1_555
H2T C2T 1_555 1_555
H2B C2B 1_555 1_555
H2DA C2DA 1_555 1_555
C3T C2T 1_555 1_555
C3B C2B 1_555 1_555
C3DA C2DA 1_555 1_555
C4T C3T 1_555 1_555
C4B C3B 1_555 1_555
C4DA C3DA 1_555 1_555
H3T C4T 1_555 1_555
H3B C4B 1_555 1_555
H3DA C4DA 1_555 1_555
C5T N1T 1_555 1_555
C5B N1B 1_555 1_555
C5DA N1DA 1_555 1_555
H4T C5T 1_555 1_555
H4B C5B 1_555 1_555
H4DA C5DA 1_555 1_555
C6T C6 1_555 1_555
C6B C3B 1_555 1_555
C6DA C3DA 1_555 1_555
H5T C6T 1_555 1_555
H5B C6B 1_555 1_555
H5DA C6DA 1_555 1_555
C4 C5 1_555 1_555
C3T C6T 1_555 1_555
C4T C5T 1_555 1_555
C4B C5B 1_555 1_555
C4DA C5DA 1_555 1_555
C6B C6DA 1_555 1_555

#END
