
#######################################################################
#
#                 Cambridge Crystallographic Data Centre
#                                CCDC 
#
#######################################################################
#
# If this CIF has been generated from an entry in the Cambridge 
# Structural Database, then it will include bibliographic, chemical, 
# crystal, experimental, refinement or atomic coordinate data resulting 
# from the CCDC's data processing and validation procedures.
#
#######################################################################

data_CUWTEU
_symmetry_cell_setting           monoclinic
_symmetry_space_group_name_H-M   'P 21/n'
_symmetry_Int_Tables_number      14
_space_group_name_Hall           '-P 2yn'
loop_
_symmetry_equiv_pos_site_id
_symmetry_equiv_pos_as_xyz
1 x,y,z
2 1/2-x,1/2+y,1/2-z
3 -x,-y,-z
4 1/2+x,1/2-y,1/2+z
_cell_length_a                   11.294(2)
_cell_length_b                   10.135(2)
_cell_length_c                   15.520(3)
_cell_angle_alpha                90
_cell_angle_beta                 98.32(3)
_cell_angle_gamma                90
_cell_volume                     1757.8
loop_
_atom_site_label
_atom_site_type_symbol
_atom_site_fract_x
_atom_site_fract_y
_atom_site_fract_z
Co1 Co -0.74552(7) 0.76029(6) -1.31340(5)
N1 N -0.7841(4) 0.6418(4) -1.4209(3)
C1 C -0.7967(5) 0.6974(5) -1.4991(3)
C2 C -0.8358(7) 0.6276(5) -1.5738(4)
H1 H -0.8441 0.6677 -1.6282
C3 C -0.8624(8) 0.4955(6) -1.5650(4)
H2 H -0.8930 0.4468 -1.6139
C4 C -0.8439(6) 0.4350(5) -1.4844(4)
H3 H -0.8578 0.3453 -1.4783
C5 C -0.8038(5) 0.5139(5) -1.4126(3)
C6 C -0.7644(5) 0.8430(5) -1.4962(4)
O1 O -0.7474(4) 0.8982(4) -1.5623(3)
O2 O -0.7555(3) 0.8924(3) -1.4197(2)
C7 C -0.7807(5) 0.4695(4) -1.3195(3)
O3 O -0.7916(3) 0.3480(3) -1.3050(2)
O4 O -0.7509(4) 0.5566(3) -1.2644(2)
N2 N -0.9290(5) 0.7779(5) -1.3018(3)
C8 C -0.9764(6) 0.7252(5) -1.2353(4)
H4 H -0.9246 0.6891 -1.1893
C9 C -1.0985(5) 0.7214(5) -1.2309(4)
H5 H -1.1269 0.6838 -1.1831
C10 C -1.1771(5) 0.7745(5) -1.2989(3)
C11 C -1.1299(5) 0.8322(5) -1.3665(4)
H6 H -1.1801 0.8721 -1.4119
C12 C -1.0077(5) 0.8308(5) -1.3671(4)
H7 H -0.9779 0.8679 -1.4144
C13 C -1.3078(5) 0.7669(5) -1.3014(4)
C14 C -1.3626(5) 0.6625(5) -1.2657(4)
H8 H -1.3167 0.5946 -1.2378
C15 C -1.4850(5) 0.6596(5) -1.2716(4)
H9 H -1.5196 0.5882 -1.2471
N3 N -1.5563(5) 0.7515(5) -1.3097(3)
C16 C -1.5028(6) 0.8558(5) -1.3437(4)
H10 H -1.5507 0.9239 -1.3694
C17 C -1.3811(5) 0.8646(5) -1.3416(4)
H11 H -1.3481 0.9361 -1.3672
Co1A Co -0.75448(7) 0.26029(6) -1.18660(5)
Co1_2 Co -1.74552(7) 0.76029(6) -1.31340(5)
O3A O -0.7084(3) 0.8480(3) -1.1950(2)
N3_2 N -0.5563(5) 0.7515(5) -1.3097(3)
O5 O -0.8832(5) 0.1316(4) -1.4238(3)
O6 O -0.9684(16) 0.8327(16) -1.0105(11)
C18 C -1.005(3) 0.952(2) -1.0461(18)
loop_
_geom_bond_atom_site_label_1
_geom_bond_atom_site_label_2
_geom_bond_site_symmetry_1
_geom_bond_site_symmetry_2
Co1 N1 1_555 1_555
N1 C1 1_555 1_555
C1 C2 1_555 1_555
C2 H1 1_555 1_555
C3 C2 1_555 1_555
H2 C3 1_555 1_555
C4 C3 1_555 1_555
H3 C4 1_555 1_555
C5 N1 1_555 1_555
C6 C1 1_555 1_555
O1 C6 1_555 1_555
O2 Co1 1_555 1_555
C7 C5 1_555 1_555
O3 C7 1_555 1_555
O4 Co1 1_555 1_555
N2 Co1 1_555 1_555
C8 N2 1_555 1_555
H4 C8 1_555 1_555
C9 C8 1_555 1_555
H5 C9 1_555 1_555
C10 C9 1_555 1_555
C11 C10 1_555 1_555
H6 C11 1_555 1_555
C12 N2 1_555 1_555
H7 C12 1_555 1_555
C13 C10 1_555 1_555
C14 C13 1_555 1_555
H8 C14 1_555 1_555
C15 C14 1_555 1_555
H9 C15 1_555 1_555
N3 C15 1_555 1_555
C16 N3 1_555 1_555
H10 C16 1_555 1_555
C17 C13 1_555 1_555
H11 C17 1_555 1_555
O6 C18 1_555 1_555
Co1A O3 1_555 1_555
Co1_2 N3 1_555 1_555
O3A Co1 1_555 1_555
N3_2 Co1 1_555 1_555
C4 C5 1_555 1_555
C6 O2 1_555 1_555
C7 O4 1_555 1_555
C11 C12 1_555 1_555
C16 C17 1_555 1_555

#END
