
#######################################################################
#
#                 Cambridge Crystallographic Data Centre
#                                CCDC 
#
#######################################################################
#
# If this CIF has been generated from an entry in the Cambridge 
# Structural Database, then it will include bibliographic, chemical, 
# crystal, experimental, refinement or atomic coordinate data resulting 
# from the CCDC's data processing and validation procedures.
#
#######################################################################

data_CUWVEW
_symmetry_cell_setting           monoclinic
_symmetry_space_group_name_H-M   'P 21/c'
_symmetry_Int_Tables_number      14
_space_group_name_Hall           '-P 2ybc'
loop_
_symmetry_equiv_pos_site_id
_symmetry_equiv_pos_as_xyz
1 x,y,z
2 -x,1/2+y,1/2-z
3 -x,-y,-z
4 x,1/2-y,1/2+z
_cell_length_a                   8.5299(5)
_cell_length_b                   18.6015(11)
_cell_length_c                   16.0248(10)
_cell_angle_alpha                90
_cell_angle_beta                 94.641(2)
_cell_angle_gamma                90
_cell_volume                     2534.3
loop_
_atom_site_label
_atom_site_type_symbol
_atom_site_fract_x
_atom_site_fract_y
_atom_site_fract_z
Ni1 Ni 0.59760(3) 0.790638(14) 0.073031(17)
N1 N 0.6052(2) 0.89626(10) 0.08499(11)
C1 C 0.5280(3) 0.92648(12) 0.14475(15)
C2 C 0.5406(3) 0.99987(13) 0.15986(16)
H1 H 0.4857 1.0219 0.2023
C3 C 0.6352(4) 1.03991(13) 0.11132(18)
H2 H 0.6467 1.0901 0.1209
C4 C 0.7137(3) 1.00727(13) 0.04851(17)
H3 H 0.7778 1.0345 0.0145
C5 C 0.6955(3) 0.93374(12) 0.03719(14)
C6 C 0.7742(3) 0.88770(12) -0.02527(14)
O1 O 0.8516(2) 0.91737(10) -0.07715(12)
O2 O 0.75309(18) 0.81964(8) -0.01766(10)
C7 C 0.4311(3) 0.87348(13) 0.19109(14)
O3 O 0.3527(2) 0.89579(10) 0.24636(13)
O4 O 0.44130(18) 0.80782(8) 0.16625(10)
N2 N 0.7879(2) 0.77410(10) 0.16493(12)
C8 C 0.7617(3) 0.76154(16) 0.24462(16)
H4 H 0.6564 0.7638 0.2597
C9 C 0.8784(3) 0.74552(16) 0.30630(16)
H5 H 0.8526 0.7366 0.3619
C10 C 1.0338(3) 0.74251(12) 0.28686(14)
C11 C 1.0611(3) 0.75442(16) 0.20415(16)
H6 H 1.1652 0.7523 0.1873
C12 C 0.9365(3) 0.76949(16) 0.14586(16)
H7 H 0.9584 0.7769 0.0893
N3 N 1.4080(2) 0.70881(10) 0.47838(12)
C13 C 1.4359(3) 0.73062(13) 0.40126(15)
H8 H 1.5418 0.7395 0.3899
C14 C 1.3198(3) 0.74087(13) 0.33748(15)
H9 H 1.3461 0.7563 0.2838
C15 C 1.1636(3) 0.72841(11) 0.35235(14)
C16 C 1.1345(3) 0.70412(13) 0.43155(15)
H10 H 1.0301 0.6933 0.4441
C17 C 1.2582(3) 0.69568(12) 0.49220(14)
H11 H 1.2356 0.6798 0.5463
N4 N 0.5853(2) 0.68044(10) 0.05934(12)
C18 C 0.6690(3) 0.64598(13) 0.00493(17)
H12 H 0.7530 0.6709 -0.0177
C19 C 0.6394(3) 0.57554(13) -0.02018(18)
H13 H 0.7005 0.5536 -0.0602
C20 C 0.5200(3) 0.53744(12) 0.01360(15)
C21 C 0.4392(3) 0.57227(13) 0.07388(17)
H14 H 0.3605 0.5475 0.1012
C22 C 0.4741(3) 0.64295(13) 0.09374(17)
H15 H 0.4157 0.6661 0.1341
Ni1C Ni -0.40240(3) 0.709362(14) -0.426969(17)
Ni1C_2 Ni 1.59760(3) 0.709362(14) 0.573031(17)
Ni1B Ni 0.40240(3) 0.209362(14) -0.073031(17)
N1C N -0.3948(2) 0.60374(10) -0.41501(11)
C1C C -0.4720(3) 0.57352(12) -0.35525(15)
C2C C -0.4594(3) 0.50013(13) -0.34014(16)
H1C H -0.5143 0.4781 -0.2977
C3C C -0.3648(4) 0.46009(13) -0.38868(18)
H2C H -0.3533 0.4099 -0.3791
C4C C -0.2863(3) 0.49273(13) -0.45149(17)
H3C H -0.2222 0.4655 -0.4855
C5C C -0.3045(3) 0.56626(12) -0.46281(14)
C6C C -0.2258(3) 0.61230(12) -0.52527(14)
O1C O -0.1484(2) 0.58263(10) -0.57715(12)
O2C O -0.24691(18) 0.68036(8) -0.51766(10)
C7C C -0.5689(3) 0.62652(13) -0.30891(14)
O3C O -0.6473(2) 0.60421(10) -0.25364(13)
O4C O -0.55870(18) 0.69218(8) -0.33375(10)
N2C N -0.2121(2) 0.72590(10) -0.33507(12)
C8C C -0.2383(3) 0.73846(16) -0.25538(16)
H4C H -0.3436 0.7362 -0.2403
C9C C -0.1216(3) 0.75448(16) -0.19370(16)
H5C H -0.1474 0.7634 -0.1381
C10C C 0.0338(3) 0.75749(12) -0.21314(14)
C11C C 0.0611(3) 0.74558(16) -0.29585(16)
H6C H 0.1652 0.7477 -0.3127
C12C C -0.0635(3) 0.73051(16) -0.35414(16)
H7C H -0.0416 0.7231 -0.4107
N3C N 0.4080(2) 0.79119(10) -0.02162(12)
N3_2 N -0.5920(2) 0.70881(10) -0.52162(12)
C13C C 0.4359(3) 0.76938(13) -0.09874(15)
H8C H 0.5418 0.7605 -0.1101
C14C C 0.3198(3) 0.75913(13) -0.16252(15)
H9C H 0.3461 0.7437 -0.2162
C15C C 0.1636(3) 0.77159(11) -0.14765(14)
C16C C 0.1345(3) 0.79588(13) -0.06845(15)
H10C H 0.0301 0.8067 -0.0559
C17C C 0.2582(3) 0.80432(12) -0.00780(14)
H11C H 0.2356 0.8202 0.0463
N4B N 0.4147(2) 0.31956(10) -0.05934(12)
N4C N -0.4147(2) 0.81956(10) -0.44066(12)
C18B C 0.3310(3) 0.35402(13) -0.00493(17)
H12B H 0.2470 0.3291 0.0177
C19B C 0.3606(3) 0.42446(13) 0.02018(18)
H13B H 0.2995 0.4464 0.0602
C20B C 0.4800(3) 0.46256(12) -0.01360(15)
C21B C 0.5608(3) 0.42773(13) -0.07388(17)
H14B H 0.6395 0.4525 -0.1012
C22B C 0.5259(3) 0.35705(13) -0.09374(17)
H15B H 0.5843 0.3339 -0.1341
S1 S 0.95716(10) 1.04159(5) 0.26106(5)
O5 O 0.8865(4) 1.0211(2) 0.34114(19)
C23 C 0.9935(4) 0.95966(18) 0.2092(2)
H16 H 0.8933 0.9376 0.1889
H17 H 1.0515 0.9268 0.2483
H18 H 1.0559 0.9693 0.1616
C24 C 1.1566(4) 1.0643(2) 0.2877(2)
H19 H 1.1621 1.1100 0.3181
H20 H 1.2114 1.0690 0.2365
H21 H 1.2067 1.0265 0.3231
C25 C 1.1031(6) 0.8967(2) 0.4589(3)
O6 O 0.9798(6) 0.8799(3) 0.4119(4)
S2? S 0.9766(18) 0.9695(8) 0.3015(10)
O7? O 1.0652(6) 0.8610(3) 0.5293(3)
loop_
_geom_bond_atom_site_label_1
_geom_bond_atom_site_label_2
_geom_bond_site_symmetry_1
_geom_bond_site_symmetry_2
Ni1 N1 1_555 1_555
N1 C1 1_555 1_555
C1 C2 1_555 1_555
C2 H1 1_555 1_555
C3 C2 1_555 1_555
H2 C3 1_555 1_555
C4 C3 1_555 1_555
H3 C4 1_555 1_555
C5 N1 1_555 1_555
C6 C5 1_555 1_555
O1 C6 1_555 1_555
O2 Ni1 1_555 1_555
C7 C1 1_555 1_555
O3 C7 1_555 1_555
O4 Ni1 1_555 1_555
N2 Ni1 1_555 1_555
C8 N2 1_555 1_555
H4 C8 1_555 1_555
C9 C8 1_555 1_555
H5 C9 1_555 1_555
C10 C9 1_555 1_555
C11 C10 1_555 1_555
H6 C11 1_555 1_555
C12 N2 1_555 1_555
H7 C12 1_555 1_555
N3 C13 1_555 1_555
C13 H8 1_555 1_555
C14 C13 1_555 1_555
H9 C14 1_555 1_555
C15 C10 1_555 1_555
C16 C15 1_555 1_555
H10 C16 1_555 1_555
C17 N3 1_555 1_555
H11 C17 1_555 1_555
N4 Ni1 1_555 1_555
C18 N4 1_555 1_555
H12 C18 1_555 1_555
C19 C18 1_555 1_555
H13 C19 1_555 1_555
C20 C19 1_555 1_555
C21 C20 1_555 1_555
H14 C21 1_555 1_555
C22 N4 1_555 1_555
H15 C22 1_555 1_555
S1 O5 1_555 1_555
C23 S1 1_555 1_555
H16 C23 1_555 1_555
H17 C23 1_555 1_555
H18 C23 1_555 1_555
C24 S1 1_555 1_555
H19 C24 1_555 1_555
H20 C24 1_555 1_555
H21 C24 1_555 1_555
C25 O6 1_555 1_555
Ni1C N1C 1_555 1_555
Ni1C_2 N3 1_555 1_555
Ni1B N4B 1_555 1_555
N1C C1C 1_555 1_555
C1C C2C 1_555 1_555
C2C H1C 1_555 1_555
C3C C2C 1_555 1_555
H2C C3C 1_555 1_555
C4C C3C 1_555 1_555
H3C C4C 1_555 1_555
C5C N1C 1_555 1_555
C6C C5C 1_555 1_555
O1C C6C 1_555 1_555
O2C Ni1C 1_555 1_555
C7C C1C 1_555 1_555
O3C C7C 1_555 1_555
O4C Ni1C 1_555 1_555
N2C Ni1C 1_555 1_555
C8C N2C 1_555 1_555
H4C C8C 1_555 1_555
C9C C8C 1_555 1_555
H5C C9C 1_555 1_555
C10C C9C 1_555 1_555
C11C C10C 1_555 1_555
H6C C11C 1_555 1_555
C12C N2C 1_555 1_555
H7C C12C 1_555 1_555
N3C Ni1 1_555 1_555
N3_2 Ni1C 1_555 1_555
C13C N3C 1_555 1_555
H8C C13C 1_555 1_555
C14C C13C 1_555 1_555
H9C C14C 1_555 1_555
C15C C10C 1_555 1_555
C16C C15C 1_555 1_555
H10C C16C 1_555 1_555
C17C N3C 1_555 1_555
H11C C17C 1_555 1_555
N4B C18B 1_555 1_555
N4C Ni1C 1_555 1_555
C18B H12B 1_555 1_555
C19B C18B 1_555 1_555
H13B C19B 1_555 1_555
C20B C20 1_555 1_555
C21B C20B 1_555 1_555
H14B C21B 1_555 1_555
C22B N4B 1_555 1_555
H15B C22B 1_555 1_555
C4 C5 1_555 1_555
C6 O2 1_555 1_555
C7 O4 1_555 1_555
C11 C12 1_555 1_555
C14 C15 1_555 1_555
C16 C17 1_555 1_555
C21 C22 1_555 1_555
C4C C5C 1_555 1_555
C6C O2C 1_555 1_555
C7C O4C 1_555 1_555
C11C C12C 1_555 1_555
C14C C15C 1_555 1_555
C16C C17C 1_555 1_555
C19B C20B 1_555 1_555
C21B C22B 1_555 1_555

#END
