
#######################################################################
#
#                 Cambridge Crystallographic Data Centre
#                                CCDC 
#
#######################################################################
#
# If this CIF has been generated from an entry in the Cambridge 
# Structural Database, then it will include bibliographic, chemical, 
# crystal, experimental, refinement or atomic coordinate data resulting 
# from the CCDC's data processing and validation procedures.
#
#######################################################################

data_CUWVIA
_symmetry_cell_setting           monoclinic
_symmetry_space_group_name_H-M   'P 21/c'
_symmetry_Int_Tables_number      14
_space_group_name_Hall           '-P 2ybc'
loop_
_symmetry_equiv_pos_site_id
_symmetry_equiv_pos_as_xyz
1 x,y,z
2 -x,1/2+y,1/2-z
3 -x,-y,-z
4 x,1/2-y,1/2+z
_cell_length_a                   13.1967(7)
_cell_length_b                   15.8470(8)
_cell_length_c                   10.6187(5)
_cell_angle_alpha                90
_cell_angle_beta                 100.310(2)
_cell_angle_gamma                90
_cell_volume                     2184.81
loop_
_atom_site_label
_atom_site_type_symbol
_atom_site_fract_x
_atom_site_fract_y
_atom_site_fract_z
Ni1 Ni -0.631460(19) 0.183620(16) 0.24045(2)
N1 N -0.63239(13) 0.08651(10) 0.12027(16)
C1 C -0.63090(15) 0.09919(12) -0.00402(19)
C2 C -0.62892(17) 0.03168(13) -0.0869(2)
H1 H -0.6267 0.0406 -0.1748
C3 C -0.63029(19) -0.04945(14) -0.0372(2)
H2 H -0.6286 -0.0968 -0.0916
C4 C -0.63406(19) -0.06166(14) 0.0912(2)
H3 H -0.6365 -0.1169 0.1252
C5 C -0.63426(16) 0.00871(13) 0.1687(2)
C6 C -0.63280(15) 0.19193(12) -0.03965(19)
O1 O -0.63058(12) 0.20835(9) -0.15569(14)
O2 O -0.63821(11) 0.24351(9) 0.04944(14)
C7 C -0.63763(16) 0.00782(13) 0.3115(2)
O3 O -0.65119(15) -0.05965(10) 0.36327(16)
O4 O -0.62686(11) 0.08055(9) 0.36522(14)
N2 N -0.46918(13) 0.19242(11) 0.27129(16)
C8 C -0.41120(17) 0.13854(15) 0.3513(2)
H4 H -0.4445 0.1008 0.4002
C9 C -0.30473(17) 0.13565(16) 0.3655(2)
H5 H -0.2659 0.0976 0.4244
C10 C -0.25597(16) 0.18938(14) 0.2922(2)
C11 C -0.31452(16) 0.24788(13) 0.2126(2)
H6 H -0.2827 0.2871 0.1643
C12 C -0.42010(16) 0.24752(12) 0.2055(2)
H7 H -0.4601 0.2879 0.1520
N3 N -0.14650(14) 0.18209(13) 0.3052(2)
N4 N -0.11539(14) 0.19601(13) 0.20239(19)
C13 C -0.00491(17) 0.18905(14) 0.2148(2)
C14 C 0.06061(17) 0.16329(15) 0.3246(2)
H8 H 0.0344 0.1469 0.3986
C15 C 0.16496(17) 0.16198(15) 0.3240(2)
H9 H 0.2100 0.1447 0.3996
N5 N 0.20655(14) 0.18408(12) 0.22107(17)
C16 C 0.14161(17) 0.20624(16) 0.1146(2)
H10 H 0.1695 0.2209 0.0411
C17 C 0.03539(18) 0.20889(17) 0.1062(2)
H11 H -0.0085 0.2238 0.0284
Ni1C Ni -0.631460(19) 0.316380(16) -0.25955(2)
Ni1_2 Ni 0.368540(19) 0.183620(16) 0.24045(2)
O1C O -0.63058(12) 0.29165(9) 0.34431(14)
N5_2 N -0.79345(14) 0.18408(12) 0.22107(17)
N6 N 0.0424(2) 0.41488(19) 0.1072(3)
C18 C -0.0542(3) 0.4157(2) 0.1289(3)
H12 H -0.1076 0.3998 0.0606
C19 C -0.0817(2) 0.4380(2) 0.2442(3)
H13 H -0.1515 0.4365 0.2554
C20 C -0.0045(2) 0.46248(17) 0.3417(3)
C21 C 0.0960(2) 0.4624(2) 0.3216(3)
H14 H 0.1509 0.4786 0.3878
C22 C 0.1148(3) 0.4383(2) 0.2029(3)
H15 H 0.1841 0.4387 0.1894
N7 N -0.03596(18) 0.48687(16) 0.4594(2)
N6B N -0.0424(2) 0.58512(19) 0.8928(3)
C18B C 0.0542(3) 0.5843(2) 0.8711(3)
H12B H 0.1076 0.6002 0.9394
C19B C 0.0817(2) 0.5620(2) 0.7558(3)
H13B H 0.1515 0.5635 0.7446
C20B C 0.0045(2) 0.53752(17) 0.6583(3)
C21B C -0.0960(2) 0.5376(2) 0.6784(3)
H14B H -0.1509 0.5214 0.6122
C22B C -0.1148(3) 0.5617(2) 0.7971(3)
H15B H -0.1841 0.5613 0.8106
N7B N 0.03596(18) 0.51313(16) 0.5406(2)
O5 O -0.6441(2) 0.07298(12) -0.37934(19)
H16 H -0.633(3) 0.067(2) -0.4528(17)
H17 H -0.639(3) 0.1235(8) -0.364(3)
loop_
_geom_bond_atom_site_label_1
_geom_bond_atom_site_label_2
_geom_bond_site_symmetry_1
_geom_bond_site_symmetry_2
Ni1 N1 1_555 1_555
N1 C1 1_555 1_555
C1 C2 1_555 1_555
C2 H1 1_555 1_555
C3 C2 1_555 1_555
H2 C3 1_555 1_555
C4 C3 1_555 1_555
H3 C4 1_555 1_555
C5 N1 1_555 1_555
C6 C1 1_555 1_555
O1 C6 1_555 1_555
O2 Ni1 1_555 1_555
C7 C5 1_555 1_555
O3 C7 1_555 1_555
O4 Ni1 1_555 1_555
N2 Ni1 1_555 1_555
C8 N2 1_555 1_555
H4 C8 1_555 1_555
C9 C8 1_555 1_555
H5 C9 1_555 1_555
C10 C9 1_555 1_555
C11 C10 1_555 1_555
H6 C11 1_555 1_555
C12 N2 1_555 1_555
H7 C12 1_555 1_555
N3 C10 1_555 1_555
N4 N3 1_555 1_555
C13 N4 1_555 1_555
C14 C13 1_555 1_555
H8 C14 1_555 1_555
C15 C14 1_555 1_555
H9 C15 1_555 1_555
N5 C15 1_555 1_555
C16 N5 1_555 1_555
H10 C16 1_555 1_555
C17 C13 1_555 1_555
H11 C17 1_555 1_555
N6 C18 1_555 1_555
C18 H12 1_555 1_555
C19 C18 1_555 1_555
H13 C19 1_555 1_555
C20 C19 1_555 1_555
C21 C20 1_555 1_555
H14 C21 1_555 1_555
C22 N6 1_555 1_555
H15 C22 1_555 1_555
N7 C20 1_555 1_555
O5 H16 1_555 1_555
H17 O5 1_555 1_555
Ni1C O1 1_555 1_555
Ni1_2 N5 1_555 1_555
O1C Ni1 1_555 1_555
N5_2 Ni1 1_555 1_555
N6B C18B 1_555 1_555
C18B H12B 1_555 1_555
C19B C18B 1_555 1_555
H13B C19B 1_555 1_555
C20B C19B 1_555 1_555
C21B C20B 1_555 1_555
H14B C21B 1_555 1_555
C22B N6B 1_555 1_555
H15B C22B 1_555 1_555
N7B N7 1_555 1_555
C4 C5 1_555 1_555
C6 O2 1_555 1_555
C7 O4 1_555 1_555
C11 C12 1_555 1_555
C16 C17 1_555 1_555
C21 C22 1_555 1_555
C20B N7B 1_555 1_555
C21B C22B 1_555 1_555

#END
