
#######################################################################
#
#                 Cambridge Crystallographic Data Centre
#                                CCDC 
#
#######################################################################
#
# If this CIF has been generated from an entry in the Cambridge 
# Structural Database, then it will include bibliographic, chemical, 
# crystal, experimental, refinement or atomic coordinate data resulting 
# from the CCDC's data processing and validation procedures.
#
#######################################################################

data_CUWVAS
_symmetry_cell_setting           monoclinic
_symmetry_space_group_name_H-M   'P 21/c'
_symmetry_Int_Tables_number      14
_space_group_name_Hall           '-P 2ybc'
loop_
_symmetry_equiv_pos_site_id
_symmetry_equiv_pos_as_xyz
1 x,y,z
2 -x,1/2+y,1/2-z
3 -x,-y,-z
4 x,1/2-y,1/2+z
_cell_length_a                   11.445(5)
_cell_length_b                   16.353(7)
_cell_length_c                   10.250(4)
_cell_angle_alpha                90
_cell_angle_beta                 90.065(5)
_cell_angle_gamma                90
_cell_volume                     1918.39
loop_
_atom_site_label
_atom_site_type_symbol
_atom_site_fract_x
_atom_site_fract_y
_atom_site_fract_z
Co1 Co 0.66486(6) 0.31124(4) 0.75442(8)
N1 N 0.6589(5) 0.4139(3) 0.6334(4)
C1 C 0.6569(6) 0.4062(3) 0.5031(5)
C2 C 0.6495(6) 0.4728(4) 0.4232(5)
H1 H 0.6479 0.4664 0.3331
C3 C 0.6444(6) 0.5510(4) 0.4786(6)
H2 H 0.6386 0.5973 0.4264
C4 C 0.6482(6) 0.5574(3) 0.6124(7)
H3 H 0.6457 0.6087 0.6514
C5 C 0.6557(7) 0.4877(3) 0.6897(6)
C6 C 0.6608(6) 0.4853(3) 0.8370(5)
O1 O 0.6628(6) 0.5497(3) 0.8974(4)
O2 O 0.6676(4) 0.4123(2) 0.8844(4)
C7 C 0.6622(5) 0.3168(3) 0.4606(5)
O3 O 0.6644(4) 0.3031(2) 0.3396(3)
O4 O 0.6621(4) 0.2641(2) 0.5496(4)
N2 N 0.8536(4) 0.3030(2) 0.7560(5)
C8 C 0.9153(9) 0.3302(6) 0.8566(10)
H4 H 0.8745 0.3514 0.9275
C10 C 1.0361(8) 0.3294(7) 0.8636(10)
H6 H 1.0734 0.3506 0.9368
C12 C 1.1011(5) 0.2977(3) 0.7637(5)
C13 C 1.0377(7) 0.2628(7) 0.6580(10)
H8 H 1.0775 0.2384 0.5892
C15 C 0.9153(8) 0.2652(7) 0.6572(10)
H10 H 0.8748 0.2407 0.5889
C17 C 1.2305(4) 0.2972(3) 0.7630(8)
C18 C 1.2919(5) 0.3531(4) 0.8412(6)
H12 H 1.2514 0.3890 0.8951
C19 C 1.4131(5) 0.3548(4) 0.8378(5)
H13 H 1.4521 0.3926 0.8898
N3 N 1.4763(3) 0.3045(2) 0.7631(6)
C20 C 1.4178(5) 0.2491(4) 0.6903(6)
H14 H 1.4606 0.2124 0.6402
C21 C 1.2965(5) 0.2444(4) 0.6870(6)
H15 H 1.2598 0.2061 0.6339
Co1C Co 0.66486(6) 0.18876(4) 0.25442(8)
Co1_2 Co 1.66486(6) 0.31124(4) 0.75442(8)
O3C O 0.6644(4) 0.1969(2) 0.8396(3)
N3_2 N 0.4763(3) 0.3045(2) 0.7631(6)
O5 O 0.7439(4) 0.4210(3) 1.1386(4)
O6 O 0.9839(5) 0.0523(3) 0.6018(6)
S1 S 0.0298(5) 0.4987(4) 0.5816(5)
O7 O -0.0788(10) 0.4894(7) 0.6695(11)
C22 C 0.0531(13) 0.6070(8) 0.5609(19)
C23 C -0.0298(5) 0.5013(4) 0.4184(5)
C9? C -0.0818(9) 0.3677(6) 0.8068(10)
H5? H -0.1214 0.4132 0.8388
C11? C 0.0406(8) 0.3673(6) 0.8118(11)
H7? H 0.0814 0.4116 0.8459
C14? C 0.0339(7) 0.2338(6) 0.7174(11)
H9? H 0.0701 0.1874 0.6840
C16? C -0.0868(8) 0.2381(6) 0.7204(11)
H11? H -0.1287 0.1919 0.6955
S2? S -0.0565(7) 0.5325(4) 0.5355(8)
C24? C -0.0565(7) 0.5325(4) 0.5355(8)
loop_
_geom_bond_atom_site_label_1
_geom_bond_atom_site_label_2
_geom_bond_site_symmetry_1
_geom_bond_site_symmetry_2
Co1 N1 1_555 1_555
N1 C1 1_555 1_555
C1 C2 1_555 1_555
C2 H1 1_555 1_555
C3 C2 1_555 1_555
H2 C3 1_555 1_555
C4 C3 1_555 1_555
H3 C4 1_555 1_555
C5 N1 1_555 1_555
C6 C5 1_555 1_555
O1 C6 1_555 1_555
O2 Co1 1_555 1_555
C7 C1 1_555 1_555
O3 C7 1_555 1_555
O4 Co1 1_555 1_555
N2 Co1 1_555 1_555
C8 N2 1_555 1_555
H4 C8 1_555 1_555
C10 C8 1_555 1_555
H6 C10 1_555 1_555
C12 C10 1_555 1_555
C13 C12 1_555 1_555
H8 C13 1_555 1_555
C15 N2 1_555 1_555
H10 C15 1_555 1_555
C17 C12 1_555 1_555
C18 C17 1_555 1_555
H12 C18 1_555 1_555
C19 C18 1_555 1_555
H13 C19 1_555 1_555
N3 C19 1_555 1_555
C20 N3 1_555 1_555
H14 C20 1_555 1_555
C21 C17 1_555 1_555
H15 C21 1_555 1_555
S1 O7 1_555 1_555
C22 S1 1_555 1_555
C23 S1 1_555 1_555
Co1C O3 1_555 1_555
Co1_2 N3 1_555 1_555
O3C Co1 1_555 1_555
N3_2 Co1 1_555 1_555
C4 C5 1_555 1_555
C6 O2 1_555 1_555
C7 O4 1_555 1_555
C13 C15 1_555 1_555
C20 C21 1_555 1_555

#END
