
#######################################################################
#
#                 Cambridge Crystallographic Data Centre
#                                CCDC 
#
#######################################################################
#
# If this CIF has been generated from an entry in the Cambridge 
# Structural Database, then it will include bibliographic, chemical, 
# crystal, experimental, refinement or atomic coordinate data resulting 
# from the CCDC's data processing and validation procedures.
#
#######################################################################

data_CUWWIB
_symmetry_cell_setting           triclinic
_symmetry_space_group_name_H-M   'P -1'
_symmetry_Int_Tables_number      2
_space_group_name_Hall           '-P 1'
loop_
_symmetry_equiv_pos_site_id
_symmetry_equiv_pos_as_xyz
1 x,y,z
2 -x,-y,-z
_cell_length_a                   7.9185(19)
_cell_length_b                   9.3721(17)
_cell_length_c                   9.958(2)
_cell_angle_alpha                66.366(11)
_cell_angle_beta                 89.136(18)
_cell_angle_gamma                87.928(17)
_cell_volume                     676.585
loop_
_atom_site_label
_atom_site_type_symbol
_atom_site_fract_x
_atom_site_fract_y
_atom_site_fract_z
Ni1 Ni 0.5000 0.0000 0.5000
Na1 Na 0.52418(15) 0.37317(13) 0.40785(12)
O1 O 0.6921(3) 0.1480(2) 0.4404(2)
O2 O 0.6313(2) -0.1584(2) 0.4452(2)
O3 O 0.3516(3) 0.5951(2) 0.3904(2)
N1 N 0.4044(3) 0.1136(3) 0.2865(3)
N2 N 0.2732(4) 0.2680(4) 0.0491(3)
N3 N 0.3926(4) 0.4812(3) -0.1620(3)
N4 N 0.2551(3) 0.7376(3) 0.1601(3)
C1 C 0.9423(4) 0.2646(4) 0.3213(4)
H1 H 0.9130 0.3353 0.2207
H2 H 1.0586 0.2241 0.3239
H3 H 0.9326 0.3211 0.3854
C2 C 0.8240(4) 0.1317(3) 0.3734(3)
C3 C 0.8660(4) 0.0002(4) 0.3442(3)
H4 H 0.9698 0.0026 0.2944
C4 C 0.7735(4) -0.1327(4) 0.3798(3)
C5 C 0.8423(4) -0.2612(4) 0.3376(4)
H5 H 0.8413 -0.3607 0.4234
H6 H 0.9584 -0.2391 0.3018
H7 H 0.7718 -0.2675 0.2602
C6 C 0.3512(4) 0.1910(4) 0.1728(4)
C7 C 0.3451(4) 0.3798(4) -0.0593(4)
C8 C 0.1847(5) 0.6065(5) 0.1405(5)
H8 H 0.1848 0.5160 0.2346
H9 H 0.2532 0.5816 0.0695
H10 H 0.0686 0.6334 0.1042
C9 C 0.2492(6) 0.8871(5) 0.0350(4)
H11 H 0.2956 0.9667 0.0631
H12 H 0.1317 0.9160 0.0032
H13 H 0.3161 0.8793 -0.0455
C10 C 0.3330(4) 0.7193(4) 0.2817(4)
H14 H 0.3790 0.8093 0.2866
Na1A Na 0.47582(15) -0.37317(13) 0.59215(12)
Na1A_2 Na 0.47582(15) 0.62683(13) 0.59215(12)
Na1A_3 Na 0.47582(15) 0.62683(13) -0.40785(12)
Na1_2 Na 0.52418(15) -0.62683(13) 1.40785(12)
O1A O 0.3079(3) -0.1480(2) 0.5596(2)
O2A O 0.3687(2) 0.1584(2) 0.5548(2)
O3A O 0.6484(3) 0.4049(2) 0.6096(2)
O3A_2 O 0.6484(3) -0.5951(2) 0.6096(2)
O3_2 O 0.3516(3) -0.4049(2) 0.3904(2)
N1A N 0.5956(3) -0.1136(3) 0.7135(3)
N2A N 0.7268(4) -0.2680(4) 0.9509(3)
N3A N 0.6074(4) -0.4812(3) 1.1620(3)
N3A_2 N 0.6074(4) 0.5188(3) 0.1620(3)
N3_2 N 0.3926(4) -0.5188(3) 0.8380(3)
N4A N 0.7449(3) 0.2624(3) 0.8399(3)
C1A C 0.0577(4) -0.2646(4) 0.6787(4)
H1A H 0.0870 -0.3353 0.7793
H2A H -0.0586 -0.2241 0.6761
H3A H 0.0674 -0.3211 0.6146
C2A C 0.1760(4) -0.1317(3) 0.6266(3)
C3A C 0.1340(4) -0.0002(4) 0.6558(3)
H4A H 0.0302 -0.0026 0.7056
C4A C 0.2265(4) 0.1327(4) 0.6202(3)
C5A C 0.1577(4) 0.2612(4) 0.6624(4)
H5A H 0.1587 0.3607 0.5766
H6A H 0.0416 0.2391 0.6982
H7A H 0.2282 0.2675 0.7398
C6A C 0.6488(4) -0.1910(4) 0.8272(4)
C7A C 0.6549(4) -0.3798(4) 1.0593(4)
C8A C 0.8153(5) 0.3935(5) 0.8595(5)
H8A H 0.8152 0.4840 0.7654
H9A H 0.7468 0.4184 0.9305
H10A H 0.9314 0.3666 0.8958
C9A C 0.7508(6) 0.1129(5) 0.9650(4)
H11A H 0.7044 0.0333 0.9369
H12A H 0.8683 0.0840 0.9968
H13A H 0.6839 0.1207 1.0455
C10A C 0.6670(4) 0.2807(4) 0.7183(4)
H14A H 0.6210 0.1907 0.7134
loop_
_geom_bond_atom_site_label_1
_geom_bond_atom_site_label_2
_geom_bond_site_symmetry_1
_geom_bond_site_symmetry_2
Ni1 O1 1_555 1_555
Na1 O1 1_555 1_555
O1 C2 1_555 1_555
O2 Ni1 1_555 1_555
O3 Na1 1_555 1_555
N1 Ni1 1_555 1_555
N2 C6 1_555 1_555
N3 C7 1_555 1_555
N4 C8 1_555 1_555
C1 H1 1_555 1_555
H2 C1 1_555 1_555
H3 C1 1_555 1_555
C2 C1 1_555 1_555
C3 C2 1_555 1_555
H4 C3 1_555 1_555
C4 O2 1_555 1_555
C5 C4 1_555 1_555
H5 C5 1_555 1_555
H6 C5 1_555 1_555
H7 C5 1_555 1_555
C6 N1 1_555 1_555
C7 N2 1_555 1_555
C8 H8 1_555 1_555
H9 C8 1_555 1_555
H10 C8 1_555 1_555
C9 N4 1_555 1_555
H11 C9 1_555 1_555
H12 C9 1_555 1_555
H13 C9 1_555 1_555
C10 O3 1_555 1_555
H14 C10 1_555 1_555
Na1A O2 1_555 1_555
Na1A_2 O3 1_555 1_555
Na1A_3 N3 1_555 1_555
Na1_2 N3A 1_555 1_555
O1A Ni1 1_555 1_555
O2A Ni1 1_555 1_555
O3A Na1 1_555 1_555
O3A_2 Na1A 1_555 1_555
O3_2 Na1A 1_555 1_555
N1A Ni1 1_555 1_555
N2A C6A 1_555 1_555
N3A C7A 1_555 1_555
N3A_2 Na1 1_555 1_555
N3_2 Na1A 1_555 1_555
N4A C8A 1_555 1_555
C1A H1A 1_555 1_555
H2A C1A 1_555 1_555
H3A C1A 1_555 1_555
C2A O1A 1_555 1_555
C3A C2A 1_555 1_555
H4A C3A 1_555 1_555
C4A O2A 1_555 1_555
C5A C4A 1_555 1_555
H5A C5A 1_555 1_555
H6A C5A 1_555 1_555
H7A C5A 1_555 1_555
C6A N1A 1_555 1_555
C7A N2A 1_555 1_555
C8A H8A 1_555 1_555
H9A C8A 1_555 1_555
H10A C8A 1_555 1_555
C9A N4A 1_555 1_555
H11A C9A 1_555 1_555
H12A C9A 1_555 1_555
H13A C9A 1_555 1_555
C10A O3A 1_555 1_555
H14A C10A 1_555 1_555
Na1 O2A 1_555 1_555
N4 C10 1_555 1_555
C3 C4 1_555 1_555
Na1A O1A 1_555 1_555
Na1A_2 O3A 1_555 1_555
N4A C10A 1_555 1_555
C1A C2A 1_555 1_555
C3A C4A 1_555 1_555

#END
