
#######################################################################
#
#                 Cambridge Crystallographic Data Centre
#                                CCDC 
#
#######################################################################
#
# If this CIF has been generated from an entry in the Cambridge 
# Structural Database, then it will include bibliographic, chemical, 
# crystal, experimental, refinement or atomic coordinate data resulting 
# from the CCDC's data processing and validation procedures.
#
#######################################################################

data_CUWXOI
_symmetry_cell_setting           orthorhombic
_symmetry_space_group_name_H-M   'P b c n'
_symmetry_Int_Tables_number      60
_space_group_name_Hall           '-P 2n 2ab'
loop_
_symmetry_equiv_pos_site_id
_symmetry_equiv_pos_as_xyz
1 x,y,z
2 1/2-x,1/2-y,1/2+z
3 -x,y,1/2-z
4 1/2+x,1/2-y,-z
5 -x,-y,-z
6 1/2+x,1/2+y,1/2-z
7 x,-y,1/2+z
8 1/2-x,1/2+y,z
_cell_length_a                   16.389(7)
_cell_length_b                   13.157(6)
_cell_length_c                   26.553(12)
_cell_angle_alpha                90
_cell_angle_beta                 90
_cell_angle_gamma                90
_cell_volume                     5725.63
loop_
_atom_site_label
_atom_site_type_symbol
_atom_site_fract_x
_atom_site_fract_y
_atom_site_fract_z
N3 N 0.5000 0.301(2) 0.2500
O5 O 0.5675(7) 0.2587(9) 0.3252(4)
C30 C 0.5285(13) 0.2425(16) 0.2850(9)
C31 C 0.5360(9) 0.4386(11) 0.2457(7)
O5B O 0.4325(7) 0.2587(9) 0.1748(4)
C30B C 0.4715(13) 0.2425(16) 0.2150(9)
C31B C 0.4640(9) 0.4386(11) 0.2543(7)
C1 C 0.1688(3) 0.8553(4) 0.0443(2)
H1 H 0.1976 0.8345 0.0726
C2 C 0.1358(4) 0.7814(4) 0.0122(2)
H2 H 0.1428 0.7127 0.0192
C3 C 0.0932(3) 0.8113(4) -0.0294(2)
H3 H 0.0708 0.7627 -0.0507
C4 C 0.0831(3) 0.9137(4) -0.04015(19)
C5 C 0.1177(3) 0.9829(4) -0.00633(16)
C6 C 0.0385(3) 0.9535(5) -0.0826(2)
H4 H 0.0146 0.9088 -0.1054
C7 C 0.0310(3) 1.0541(5) -0.0897(2)
H5 H 0.0018 1.0776 -0.1174
C8 C 0.0663(3) 1.1255(4) -0.05644(18)
C9 C 0.1089(3) 1.0894(3) -0.01430(16)
C10 C 0.0631(3) 1.2328(5) -0.0616(2)
H6 H 0.0363 1.2615 -0.0890
C11 C 0.0989(4) 1.2940(4) -0.0268(2)
H7 H 0.0975 1.3642 -0.0307
C12 C 0.1374(3) 1.2513(4) 0.0145(2)
H8 H 0.1598 1.2940 0.0387
C13 C -0.1449(3) 1.5050(3) 0.42206(19)
C14 C -0.0637(3) 1.4770(3) 0.39851(17)
C15 C -0.0529(3) 1.4754(4) 0.34641(18)
H9 H -0.0972 1.4858 0.3251
C16 C 0.0230(3) 1.4587(4) 0.32666(17)
H10 H 0.0293 1.4591 0.2919
C17 C 0.0909(3) 1.4412(3) 0.35679(16)
C18 C 0.0789(3) 1.4414(3) 0.40871(16)
H11 H 0.1227 1.4300 0.4302
C19 C 0.0025(3) 1.4583(3) 0.42832(17)
H12 H -0.0043 1.4570 0.4631
C20 C 0.1755(3) 1.4303(3) 0.33201(16)
C21 C 0.1728(3) 1.3687(3) 0.28279(16)
C22 C 0.2203(3) 1.3908(4) 0.24115(18)
H13 H 0.2532 1.4485 0.2415
C23 C 0.2200(3) 1.3294(4) 0.19909(18)
H14 H 0.2527 1.3464 0.1717
C24 C 0.1721(3) 1.2434(4) 0.19687(16)
C25 C 0.1241(3) 1.2211(4) 0.23796(18)
H15 H 0.0908 1.1638 0.2372
C26 C 0.1245(3) 1.2820(4) 0.28006(18)
H16 H 0.0917 1.2648 0.3073
C27 C 0.2065(4) 1.5399(5) 0.3234(2)
C28 C 0.2354(3) 1.3736(5) 0.3667(2)
C29 C 0.1716(3) 1.1729(4) 0.15184(19)
Cu1 Cu 0.20434(3) 1.07325(4) 0.07364(2)
F1 F 0.1678(2) 1.5847(2) 0.28618(15)
F2 F 0.2865(2) 1.5429(3) 0.31361(13)
F3 F 0.1954(2) 1.5969(3) 0.36460(14)
F4 F 0.25757(19) 1.4290(3) 0.40700(12)
F5 F 0.30413(17) 1.3481(3) 0.34275(12)
F6 F 0.2038(2) 1.2867(3) 0.38379(11)
N1 N 0.1601(2) 0.9543(3) 0.03539(14)
N2 N 0.1433(2) 1.1511(3) 0.02051(14)
O1 O -0.20680(19) 1.5012(3) 0.39282(12)
O2 O -0.1479(2) 1.5302(3) 0.46661(13)
O3 O 0.2208(2) 1.1945(2) 0.11588(12)
O4 O 0.1271(2) 1.0976(3) 0.15084(14)
C1E C 0.6688(3) 0.3553(4) 0.4557(2)
H1E H 0.6976 0.3345 0.4274
C2E C 0.6358(4) 0.2814(4) 0.4878(2)
H2E H 0.6428 0.2127 0.4808
C3E C 0.5932(3) 0.3113(4) 0.5294(2)
H3E H 0.5708 0.2627 0.5507
C4E C 0.5831(3) 0.4137(4) 0.54015(19)
C5E C 0.6177(3) 0.4829(4) 0.50633(16)
C6E C 0.5385(3) 0.4535(5) 0.5826(2)
H4E H 0.5146 0.4088 0.6054
C7E C 0.5310(3) 0.5541(5) 0.5897(2)
H5E H 0.5018 0.5776 0.6174
C8E C 0.5663(3) 0.6255(4) 0.55644(18)
C9E C 0.6089(3) 0.5894(3) 0.51430(16)
C10E C 0.5631(3) 0.7328(5) 0.5616(2)
H6E H 0.5363 0.7615 0.5890
C11E C 0.5989(4) 0.7940(4) 0.5268(2)
H7E H 0.5975 0.8642 0.5307
C12E C 0.6374(3) 0.7513(4) 0.4855(2)
H8E H 0.6598 0.7940 0.4613
C13E C 0.3551(3) 1.0050(3) 0.07794(19)
C14E C 0.4363(3) 0.9770(3) 0.10149(17)
C15E C 0.4471(3) 0.9754(4) 0.15359(18)
H9E H 0.4028 0.9858 0.1749
C16E C 0.5230(3) 0.9587(4) 0.17334(17)
H10E H 0.5293 0.9591 0.2081
C17E C 0.5909(3) 0.9412(3) 0.14321(16)
C18E C 0.5789(3) 0.9414(3) 0.09129(16)
H11E H 0.6227 0.9300 0.0698
C19E C 0.5025(3) 0.9583(3) 0.07168(17)
H12E H 0.4957 0.9570 0.0369
C20E C 0.6755(3) 0.9303(3) 0.16799(16)
C21E C 0.6728(3) 0.8687(3) 0.21721(16)
C22E C 0.7203(3) 0.8908(4) 0.25885(18)
H13E H 0.7532 0.9485 0.2585
C23E C 0.7200(3) 0.8294(4) 0.30091(18)
H14E H 0.7527 0.8464 0.3283
C24E C 0.6721(3) 0.7434(4) 0.30313(16)
C25E C 0.6241(3) 0.7211(4) 0.26204(18)
H15E H 0.5908 0.6638 0.2628
C26E C 0.6245(3) 0.7820(4) 0.21994(18)
H16E H 0.5917 0.7648 0.1927
C27E C 0.7065(4) 1.0399(5) 0.1766(2)
C28E C 0.7354(3) 0.8736(5) 0.1333(2)
C29E C 0.6716(3) 0.6729(4) 0.34816(19)
Cu1E Cu 0.70434(3) 0.57325(4) 0.42636(2)
Cu1E_2 Cu -0.29566(3) 1.57325(4) 0.42636(2)
F1E F 0.6678(2) 1.0847(2) 0.21382(15)
F2E F 0.7865(2) 1.0429(3) 0.18639(13)
F3E F 0.6954(2) 1.0969(3) 0.13540(14)
F4E F 0.75757(19) 0.9290(3) 0.09300(12)
F5E F 0.80413(17) 0.8481(3) 0.15725(12)
F6E F 0.7038(2) 0.7867(3) 0.11621(11)
N1E N 0.6601(2) 0.4543(3) 0.46461(14)
N2E N 0.6433(2) 0.6511(3) 0.47949(14)
O1E O 0.29320(19) 1.0012(3) 0.10718(12)
O1_2 O 0.79320(19) 0.5012(3) 0.39282(12)
O2E O 0.3521(2) 1.0302(3) 0.03339(13)
O2_2 O 0.8521(2) 0.5302(3) 0.46661(13)
O3E O 0.7208(2) 0.6945(2) 0.38412(12)
O4E O 0.6271(2) 0.5976(3) 0.34916(14)
loop_
_geom_bond_atom_site_label_1
_geom_bond_atom_site_label_2
_geom_bond_site_symmetry_1
_geom_bond_site_symmetry_2
C1 H1 1_555 1_555
C2 C1 1_555 1_555
H2 C2 1_555 1_555
C3 C2 1_555 1_555
H3 C3 1_555 1_555
C4 C3 1_555 1_555
C5 C4 1_555 1_555
C6 C4 1_555 1_555
H4 C6 1_555 1_555
C7 C6 1_555 1_555
H5 C7 1_555 1_555
C8 C7 1_555 1_555
C9 C5 1_555 1_555
C10 C8 1_555 1_555
H6 C10 1_555 1_555
C11 C10 1_555 1_555
H7 C11 1_555 1_555
C12 C11 1_555 1_555
H8 C12 1_555 1_555
C13 C14 1_555 1_555
C14 C15 1_555 1_555
C15 H9 1_555 1_555
C16 C15 1_555 1_555
H10 C16 1_555 1_555
C17 C16 1_555 1_555
C18 C17 1_555 1_555
H11 C18 1_555 1_555
C19 C14 1_555 1_555
H12 C19 1_555 1_555
C20 C17 1_555 1_555
C21 C20 1_555 1_555
C22 C21 1_555 1_555
H13 C22 1_555 1_555
C23 C22 1_555 1_555
H14 C23 1_555 1_555
C24 C23 1_555 1_555
C25 C24 1_555 1_555
H15 C25 1_555 1_555
C26 C21 1_555 1_555
H16 C26 1_555 1_555
C27 C20 1_555 1_555
C28 C20 1_555 1_555
C29 C24 1_555 1_555
Cu1 N1 1_555 1_555
F1 C27 1_555 1_555
F2 C27 1_555 1_555
F3 C27 1_555 1_555
F4 C28 1_555 1_555
F5 C28 1_555 1_555
F6 C28 1_555 1_555
N1 C1 1_555 1_555
N2 C9 1_555 1_555
O1 C13 1_555 1_555
O2 C13 1_555 1_555
O3 C29 1_555 1_555
O4 C29 1_555 1_555
N3 C30 1_555 1_555
O5 C30 1_555 1_555
C31 N3 1_555 1_555
C1E H1E 1_555 1_555
C2E C1E 1_555 1_555
H2E C2E 1_555 1_555
C3E C2E 1_555 1_555
H3E C3E 1_555 1_555
C4E C3E 1_555 1_555
C5E C4E 1_555 1_555
C6E C4E 1_555 1_555
H4E C6E 1_555 1_555
C7E C6E 1_555 1_555
H5E C7E 1_555 1_555
C8E C7E 1_555 1_555
C9E C5E 1_555 1_555
C10E C8E 1_555 1_555
H6E C10E 1_555 1_555
C11E C10E 1_555 1_555
H7E C11E 1_555 1_555
C12E C11E 1_555 1_555
H8E C12E 1_555 1_555
C13E C14E 1_555 1_555
C14E C15E 1_555 1_555
C15E H9E 1_555 1_555
C16E C15E 1_555 1_555
H10E C16E 1_555 1_555
C17E C16E 1_555 1_555
C18E C17E 1_555 1_555
H11E C18E 1_555 1_555
C19E C14E 1_555 1_555
H12E C19E 1_555 1_555
C20E C17E 1_555 1_555
C21E C20E 1_555 1_555
C22E C21E 1_555 1_555
H13E C22E 1_555 1_555
C23E C22E 1_555 1_555
H14E C23E 1_555 1_555
C24E C23E 1_555 1_555
C25E C24E 1_555 1_555
H15E C25E 1_555 1_555
C26E C21E 1_555 1_555
H16E C26E 1_555 1_555
C27E C20E 1_555 1_555
C28E C20E 1_555 1_555
C29E C24E 1_555 1_555
Cu1E N1E 1_555 1_555
Cu1E_2 O1 1_555 1_555
F1E C27E 1_555 1_555
F2E C27E 1_555 1_555
F3E C27E 1_555 1_555
F4E C28E 1_555 1_555
F5E C28E 1_555 1_555
F6E C28E 1_555 1_555
N1E C1E 1_555 1_555
N2E C9E 1_555 1_555
O1E Cu1 1_555 1_555
O1_2 Cu1E 1_555 1_555
O2E Cu1 1_555 1_555
O2_2 Cu1E 1_555 1_555
O3E C29E 1_555 1_555
O4E C29E 1_555 1_555
O5B C30B 1_555 1_555
C30B N3 1_555 1_555
C31B N3 1_555 1_555
C5 N1 1_555 1_555
C8 C9 1_555 1_555
C12 N2 1_555 1_555
C18 C19 1_555 1_555
C25 C26 1_555 1_555
Cu1 N2 1_555 1_555
Cu1 O3 1_555 1_555
Cu1 O4 1_555 1_555
O2 Cu1E_2 1_555 1_555
C31 C31B 1_555 1_555
C5E N1E 1_555 1_555
C8E C9E 1_555 1_555
C12E N2E 1_555 1_555
C13E O1E 1_555 1_555
C13E O2E 1_555 1_555
C18E C19E 1_555 1_555
C25E C26E 1_555 1_555
Cu1E N2E 1_555 1_555
Cu1E O3E 1_555 1_555
Cu1E O4E 1_555 1_555

#END
