
#######################################################################
#
#                 Cambridge Crystallographic Data Centre
#                                CCDC 
#
#######################################################################
#
# If this CIF has been generated from an entry in the Cambridge 
# Structural Database, then it will include bibliographic, chemical, 
# crystal, experimental, refinement or atomic coordinate data resulting 
# from the CCDC's data processing and validation procedures.
#
#######################################################################

data_CUWXEY
_symmetry_cell_setting           orthorhombic
_symmetry_space_group_name_H-M   'P c c n'
_symmetry_Int_Tables_number      56
_space_group_name_Hall           '-P 2ab 2ac'
loop_
_symmetry_equiv_pos_site_id
_symmetry_equiv_pos_as_xyz
1 x,y,z
2 1/2-x,1/2-y,z
3 -x,1/2+y,1/2-z
4 1/2+x,-y,1/2-z
5 -x,-y,-z
6 1/2+x,1/2+y,-z
7 x,1/2-y,1/2+z
8 1/2-x,y,1/2+z
_cell_length_a                   51.500(14)
_cell_length_b                   11.992(3)
_cell_length_c                   14.114(4)
_cell_angle_alpha                90
_cell_angle_beta                 90
_cell_angle_gamma                90
_cell_volume                     8716.64
loop_
_atom_site_label
_atom_site_type_symbol
_atom_site_fract_x
_atom_site_fract_y
_atom_site_fract_z
C1 C 0.09994(5) 0.5185(2) 0.08586(19)
C2 C 0.08387(5) 0.4913(2) -0.00069(19)
C3 C 0.06292(5) 0.4182(2) 0.00690(19)
H1 H 0.0586 0.3871 0.0668
C4 C 0.04836(5) 0.3905(2) -0.07256(19)
H2 H 0.0340 0.3415 -0.0664
C5 C 0.05469(5) 0.4338(2) -0.16125(18)
C6 C 0.07519(5) 0.5100(2) -0.16760(19)
H3 H 0.0794 0.5425 -0.2271
C7 C 0.08945(5) 0.5385(2) -0.08821(19)
H4 H 0.1032 0.5909 -0.0936
C8 C 0.03920(5) 0.4067(2) -0.25231(18)
C9 C 0.05700(5) 0.3868(2) -0.33881(18)
C10 C 0.08065(5) 0.3312(2) -0.32513(19)
H5 H 0.0861 0.3128 -0.2627
C11 C 0.09617(5) 0.3027(2) -0.40093(19)
H6 H 0.1121 0.2650 -0.3904
C12 C 0.08854(5) 0.3290(2) -0.49293(19)
C13 C 0.06502(5) 0.3843(2) -0.50727(19)
H7 H 0.0597 0.4023 -0.5699
C14 C 0.04934(5) 0.4134(2) -0.43106(19)
H8 H 0.0334 0.4514 -0.4417
C15 C 0.02024(6) 0.5057(2) -0.2675(2)
C16 C 0.02284(5) 0.2991(2) -0.24259(19)
C17 C 0.15893(6) 0.3213(3) 0.2194(2)
C18 C 0.18178(5) 0.3028(2) 0.15345(19)
C19 C 0.20047(5) 0.2231(2) 0.17656(19)
H9 H 0.1983 0.1786 0.2317
C20 C 0.22220(5) 0.2083(2) 0.11953(19)
H10 H 0.2348 0.1540 0.1363
C21 C 0.22568(5) 0.2722(2) 0.03815(18)
C22 C 0.20652(6) 0.3492(3) 0.0138(2)
H11 H 0.2082 0.3915 -0.0428
C23 C 0.18495(6) 0.3647(3) 0.0719(2)
H12 H 0.1722 0.4186 0.0550
C24 C 0.2500 0.2500 -0.0235(3)
C25 C 0.24304(5) 0.1498(2) -0.08815(19)
C26 C 0.12271(5) 0.5584(2) 0.4579(2)
C27 C 0.09734(5) 0.6015(2) 0.42508(19)
C28 C 0.08065(5) 0.6651(2) 0.4810(2)
H13 H 0.0853 0.6828 0.5444
C29 C 0.05719(6) 0.7026(2) 0.4438(2)
C30 C 0.05144(6) 0.6731(3) 0.3507(2)
H14 H 0.0356 0.6966 0.3228
C31 C 0.06872(6) 0.6100(3) 0.2989(2)
H15 H 0.0645 0.5907 0.2354
C32 C 0.03874(6) 0.7711(3) 0.5012(2)
H16 H 0.0360 0.8433 0.4701
H17 H 0.0460 0.7831 0.5646
H18 H 0.0221 0.7319 0.5065
C33 C 0.13087(6) 0.5653(2) 0.5512(2)
H19 H 0.1200 0.5984 0.5976
C34 C 0.15506(6) 0.5236(2) 0.5766(2)
C35 C 0.17054(6) 0.4801(2) 0.5053(2)
H20 H 0.1876 0.4544 0.5191
C36 C 0.16102(5) 0.4744(2) 0.4136(2)
H21 H 0.1717 0.4434 0.3657
C37 C 0.16337(7) 0.5244(3) 0.6790(2)
H22 H 0.1600 0.4511 0.7071
H23 H 0.1535 0.5814 0.7134
H24 H 0.1820 0.5413 0.6830
C47 C 0.10422(5) 0.3025(2) -0.5783(2)
Cu1 Cu 0.117670(6) 0.47964(3) 0.26928(2)
F4 F 0.00835(3) 0.53484(15) -0.18697(12)
F5 F 0.00140(3) 0.48467(14) -0.33068(12)
F6 F 0.03305(4) 0.59588(13) -0.29861(12)
F7 F 0.01289(3) 0.26694(13) -0.32606(11)
F8 F 0.00259(3) 0.31022(15) -0.18299(12)
F9 F 0.03735(3) 0.21469(13) -0.21075(12)
F10 F 0.21971(3) 0.16155(13) -0.12797(11)
F11 F 0.24232(3) 0.05470(13) -0.03811(11)
F12 F 0.26004(3) 0.13403(13) -0.15940(11)
N1 N 0.09133(4) 0.5749(2) 0.33501(16)
N2 N 0.13731(4) 0.51087(18) 0.38980(16)
O1 O 0.09547(4) 0.46078(16) 0.15910(13)
O2 O 0.11626(4) 0.59644(17) 0.08287(13)
O3 O 0.14678(4) 0.41221(18) 0.20462(14)
O4 O 0.15446(4) 0.25147(18) 0.28219(15)
O8 O 0.12658(4) 0.25154(17) -0.56246(14)
O9 O 0.09727(4) 0.32996(17) -0.65782(13)
C1_2 C 0.09994(5) 0.5185(2) 1.08586(19)
C2_2 C 0.08387(5) 0.4913(2) 0.99931(19)
C3_2 C 0.06292(5) 0.4182(2) 1.00690(19)
H1_2 H 0.0586 0.3871 1.0668
C4_2 C 0.04836(5) 0.3905(2) 0.92744(19)
H2_2 H 0.0340 0.3415 0.9336
C5_2 C 0.05469(5) 0.4338(2) 0.83875(18)
C6_2 C 0.07519(5) 0.5100(2) 0.83240(19)
H3_2 H 0.0794 0.5425 0.7729
C7_2 C 0.08945(5) 0.5385(2) 0.91179(19)
H4_2 H 0.1032 0.5909 0.9064
C8_2 C 0.03920(5) 0.4067(2) 0.74769(18)
C9_2 C 0.05700(5) 0.3868(2) 0.66119(18)
C10_2 C 0.08065(5) 0.3312(2) 0.67487(19)
H5_2 H 0.0861 0.3128 0.7373
C11_2 C 0.09617(5) 0.3027(2) 0.59907(19)
H6_2 H 0.1121 0.2650 0.6096
C12_2 C 0.08854(5) 0.3290(2) 0.50707(19)
C13_2 C 0.06502(5) 0.3843(2) 0.49273(19)
H7_2 H 0.0597 0.4023 0.4301
C14_2 C 0.04934(5) 0.4134(2) 0.56894(19)
H8_2 H 0.0334 0.4514 0.5583
C15_2 C 0.02024(6) 0.5057(2) 0.7325(2)
C16_2 C 0.02284(5) 0.2991(2) 0.75741(19)
C17A C 0.34107(6) 0.1787(3) 0.2194(2)
C18A C 0.31822(5) 0.1972(2) 0.15345(19)
C19A C 0.29953(5) 0.2769(2) 0.17656(19)
H9A H 0.3017 0.3214 0.2317
C20A C 0.27780(5) 0.2917(2) 0.11953(19)
H10A H 0.2652 0.3460 0.1363
C21A C 0.27432(5) 0.2278(2) 0.03815(18)
C22A C 0.29348(6) 0.1508(3) 0.0138(2)
H11A H 0.2918 0.1085 -0.0428
C23A C 0.31505(6) 0.1353(3) 0.0719(2)
H12A H 0.3278 0.0814 0.0550
C25A C 0.25696(5) 0.3502(2) -0.08815(19)
C26_2 C 0.12271(5) 0.5584(2) 1.4579(2)
C27_2 C 0.09734(5) 0.6015(2) 1.42508(19)
C28_2 C 0.08065(5) 0.6651(2) 1.4810(2)
H13_2 H 0.0853 0.6828 1.5444
C29_2 C 0.05719(6) 0.7026(2) 1.4438(2)
C30_2 C 0.05144(6) 0.6731(3) 1.3507(2)
H14_2 H 0.0356 0.6966 1.3228
C31_2 C 0.06872(6) 0.6100(3) 1.2989(2)
H15_2 H 0.0645 0.5907 1.2354
C32_2 C 0.03874(6) 0.7711(3) 1.5012(2)
H16_2 H 0.0360 0.8433 1.4701
H17_2 H 0.0460 0.7831 1.5646
H18_2 H 0.0221 0.7319 1.5065
C33_2 C 0.13087(6) 0.5653(2) 1.5512(2)
H19_2 H 0.1200 0.5984 1.5976
C34_2 C 0.15506(6) 0.5236(2) 1.5766(2)
C35_2 C 0.17054(6) 0.4801(2) 1.5053(2)
H20_2 H 0.1876 0.4544 1.5191
C36_2 C 0.16102(5) 0.4744(2) 1.4136(2)
H21_2 H 0.1717 0.4434 1.3657
C37_2 C 0.16337(7) 0.5244(3) 1.6790(2)
H22_2 H 0.1600 0.4511 1.7071
H23_2 H 0.1535 0.5814 1.7134
H24_2 H 0.1820 0.5413 1.6830
C47_2 C 0.10422(5) 0.3025(2) 0.4217(2)
Cu1_2 Cu 0.117670(6) 0.47964(3) 1.26928(2)
Cu1_3 Cu 0.117670(6) 0.47964(3) -0.73072(2)
Cu1A Cu 0.382330(6) 0.02036(3) 0.26928(2)
F4_2 F 0.00835(3) 0.53484(15) 0.81303(12)
F5_2 F 0.00140(3) 0.48467(14) 0.66932(12)
F6_2 F 0.03305(4) 0.59588(13) 0.70139(12)
F7_2 F 0.01289(3) 0.26694(13) 0.67394(11)
F8_2 F 0.00259(3) 0.31022(15) 0.81701(12)
F9_2 F 0.03735(3) 0.21469(13) 0.78925(12)
F10A F 0.28029(3) 0.33845(13) -0.12797(11)
F11A F 0.25768(3) 0.44530(13) -0.03811(11)
F12A F 0.23996(3) 0.36597(13) -0.15940(11)
N1_2 N 0.09133(4) 0.5749(2) 1.33501(16)
N2_2 N 0.13731(4) 0.51087(18) 1.38980(16)
O1_2 O 0.09547(4) 0.46078(16) 1.15910(13)
O2_2 O 0.11626(4) 0.59644(17) 1.08287(13)
O3A O 0.35322(4) 0.08779(18) 0.20462(14)
O3_2 O 0.14678(4) 0.41221(18) 1.20462(14)
O4A O 0.34554(4) 0.24853(18) 0.28219(15)
O8_2 O 0.12658(4) 0.25154(17) 0.43754(14)
O9_2 O 0.09727(4) 0.32996(17) 0.34218(13)
O9_3 O 0.09727(4) 0.32996(17) 1.34218(13)
C38 C 0.15525(6) 0.8042(2) 0.4067(2)
C39 C 0.18003(5) 0.7833(2) 0.35507(19)
C40 C 0.20262(5) 0.8407(2) 0.37852(19)
H25 H 0.2027 0.8905 0.4308
C41 C 0.18026(6) 0.7103(2) 0.2789(2)
H26 H 0.1650 0.6702 0.2630
C42 C 0.22496(5) 0.8252(2) 0.32586(19)
H27 H 0.2403 0.8643 0.3427
C43 C 0.20260(6) 0.6953(2) 0.2260(2)
H28 H 0.2025 0.6452 0.1738
C44 C 0.22524(5) 0.7533(2) 0.24873(18)
C45 C 0.2500 0.7500 0.1873(3)
C46 C 0.25145(6) 0.6457(3) 0.1234(2)
F1 F 0.24730(4) 0.55272(15) 0.17339(13)
F2 F 0.23413(4) 0.64721(17) 0.05282(12)
F3 F 0.27485(3) 0.63472(17) 0.08314(13)
O5 O 0.13435(4) 0.77499(16) 0.37492(15)
O6 O 0.15815(4) 0.85837(19) 0.48716(15)
H29 H 0.1435 0.8687 0.5122
C38A C 0.34475(6) 0.6958(2) 0.4067(2)
C39A C 0.31997(5) 0.7167(2) 0.35507(19)
C40A C 0.29738(5) 0.6593(2) 0.37852(19)
H25A H 0.2973 0.6095 0.4308
C41A C 0.31974(6) 0.7897(2) 0.2789(2)
H26A H 0.3350 0.8298 0.2630
C42A C 0.27504(5) 0.6748(2) 0.32586(19)
H27A H 0.2597 0.6357 0.3427
C43A C 0.29740(6) 0.8047(2) 0.2260(2)
H28A H 0.2975 0.8548 0.1738
C44A C 0.27476(5) 0.7467(2) 0.24873(18)
C46A C 0.24855(6) 0.8543(3) 0.1234(2)
F1A F 0.25270(4) 0.94728(15) 0.17339(13)
F2A F 0.26587(4) 0.85279(17) 0.05282(12)
F3A F 0.22515(3) 0.86528(17) 0.08314(13)
O5A O 0.36565(4) 0.72501(16) 0.37492(15)
O6A O 0.34185(4) 0.64163(19) 0.48716(15)
H29A H 0.3565 0.6313 0.5122
O7 O 0.10588(6) 0.7770(2) 0.20406(19)
loop_
_geom_bond_atom_site_label_1
_geom_bond_atom_site_label_2
_geom_bond_site_symmetry_1
_geom_bond_site_symmetry_2
C1 C2 1_555 1_555
C2 C3 1_555 1_555
C3 H1 1_555 1_555
C4 C3 1_555 1_555
H2 C4 1_555 1_555
C5 C4 1_555 1_555
C6 C5 1_555 1_555
H3 C6 1_555 1_555
C7 C2 1_555 1_555
H4 C7 1_555 1_555
C8 C5 1_555 1_555
C9 C8 1_555 1_555
C10 C9 1_555 1_555
H5 C10 1_555 1_555
C11 C10 1_555 1_555
H6 C11 1_555 1_555
C12 C11 1_555 1_555
C13 C12 1_555 1_555
H7 C13 1_555 1_555
C14 C9 1_555 1_555
H8 C14 1_555 1_555
C15 C8 1_555 1_555
C16 C8 1_555 1_555
C17 C18 1_555 1_555
C18 C19 1_555 1_555
C19 H9 1_555 1_555
C20 C19 1_555 1_555
H10 C20 1_555 1_555
C21 C20 1_555 1_555
C22 C21 1_555 1_555
H11 C22 1_555 1_555
C23 C18 1_555 1_555
H12 C23 1_555 1_555
C24 C21 1_555 1_555
C25 C24 1_555 1_555
C26 C27 1_555 1_555
C27 C28 1_555 1_555
C28 H13 1_555 1_555
C29 C28 1_555 1_555
C30 C29 1_555 1_555
H14 C30 1_555 1_555
C31 C30 1_555 1_555
H15 C31 1_555 1_555
C32 C29 1_555 1_555
H16 C32 1_555 1_555
H17 C32 1_555 1_555
H18 C32 1_555 1_555
C33 C26 1_555 1_555
H19 C33 1_555 1_555
C34 C33 1_555 1_555
C35 C34 1_555 1_555
H20 C35 1_555 1_555
C36 C35 1_555 1_555
H21 C36 1_555 1_555
C37 C34 1_555 1_555
H22 C37 1_555 1_555
H23 C37 1_555 1_555
H24 C37 1_555 1_555
C38 C39 1_555 1_555
C39 C40 1_555 1_555
C40 H25 1_555 1_555
C41 C39 1_555 1_555
H26 C41 1_555 1_555
C42 C40 1_555 1_555
H27 C42 1_555 1_555
C43 C41 1_555 1_555
H28 C43 1_555 1_555
C44 C42 1_555 1_555
C45 C44 1_555 1_555
C46 C45 1_555 1_555
C47 C12 1_555 1_555
Cu1 N1 1_555 1_555
F1 C46 1_555 1_555
F2 C46 1_555 1_555
F3 C46 1_555 1_555
F4 C15 1_555 1_555
F5 C15 1_555 1_555
F6 C15 1_555 1_555
F7 C16 1_555 1_555
F8 C16 1_555 1_555
F9 C16 1_555 1_555
F10 C25 1_555 1_555
F11 C25 1_555 1_555
F12 C25 1_555 1_555
N1 C27 1_555 1_555
N2 C26 1_555 1_555
O1 C1 1_555 1_555
O2 C1 1_555 1_555
O3 C17 1_555 1_555
O4 C17 1_555 1_555
O5 C38 1_555 1_555
O6 C38 1_555 1_555
H29 O6 1_555 1_555
O8 C47 1_555 1_555
O9 C47 1_555 1_555
C1_2 C2_2 1_555 1_555
C2_2 C3_2 1_555 1_555
C3_2 H1_2 1_555 1_555
C4_2 C3_2 1_555 1_555
H2_2 C4_2 1_555 1_555
C5_2 C4_2 1_555 1_555
C6_2 C5_2 1_555 1_555
H3_2 C6_2 1_555 1_555
C7_2 C2_2 1_555 1_555
H4_2 C7_2 1_555 1_555
C8_2 C5_2 1_555 1_555
C9_2 C8_2 1_555 1_555
C10_2 C9_2 1_555 1_555
H5_2 C10_2 1_555 1_555
C11_2 C10_2 1_555 1_555
H6_2 C11_2 1_555 1_555
C12_2 C11_2 1_555 1_555
C13_2 C12_2 1_555 1_555
H7_2 C13_2 1_555 1_555
C14_2 C9_2 1_555 1_555
H8_2 C14_2 1_555 1_555
C15_2 C8_2 1_555 1_555
C16_2 C8_2 1_555 1_555
C17A C18A 1_555 1_555
C18A C19A 1_555 1_555
C19A H9A 1_555 1_555
C20A C19A 1_555 1_555
H10A C20A 1_555 1_555
C21A C24 1_555 1_555
C22A C21A 1_555 1_555
H11A C22A 1_555 1_555
C23A C18A 1_555 1_555
H12A C23A 1_555 1_555
C25A C24 1_555 1_555
C26_2 C27_2 1_555 1_555
C27_2 C28_2 1_555 1_555
C28_2 H13_2 1_555 1_555
C29_2 C28_2 1_555 1_555
C30_2 C29_2 1_555 1_555
H14_2 C30_2 1_555 1_555
C31_2 C30_2 1_555 1_555
H15_2 C31_2 1_555 1_555
C32_2 C29_2 1_555 1_555
H16_2 C32_2 1_555 1_555
H17_2 C32_2 1_555 1_555
H18_2 C32_2 1_555 1_555
C33_2 C26_2 1_555 1_555
H19_2 C33_2 1_555 1_555
C34_2 C33_2 1_555 1_555
C35_2 C34_2 1_555 1_555
H20_2 C35_2 1_555 1_555
C36_2 C35_2 1_555 1_555
H21_2 C36_2 1_555 1_555
C37_2 C34_2 1_555 1_555
H22_2 C37_2 1_555 1_555
H23_2 C37_2 1_555 1_555
H24_2 C37_2 1_555 1_555
C38A C39A 1_555 1_555
C39A C40A 1_555 1_555
C40A H25A 1_555 1_555
C41A C39A 1_555 1_555
H26A C41A 1_555 1_555
C42A C40A 1_555 1_555
H27A C42A 1_555 1_555
C43A C41A 1_555 1_555
H28A C43A 1_555 1_555
C44A C45 1_555 1_555
C46A C45 1_555 1_555
C47_2 C12_2 1_555 1_555
Cu1_2 N1_2 1_555 1_555
Cu1_3 O9 1_555 1_555
Cu1A O3A 1_555 1_555
F1A C46A 1_555 1_555
F2A C46A 1_555 1_555
F3A C46A 1_555 1_555
F4_2 C15_2 1_555 1_555
F5_2 C15_2 1_555 1_555
F6_2 C15_2 1_555 1_555
F7_2 C16_2 1_555 1_555
F8_2 C16_2 1_555 1_555
F9_2 C16_2 1_555 1_555
F10A C25A 1_555 1_555
F11A C25A 1_555 1_555
F12A C25A 1_555 1_555
N1_2 C27_2 1_555 1_555
N2_2 C26_2 1_555 1_555
O1_2 C1_2 1_555 1_555
O2_2 C1_2 1_555 1_555
O3A C17A 1_555 1_555
O3_2 Cu1_2 1_555 1_555
O4A C17A 1_555 1_555
O5A C38A 1_555 1_555
O6A C38A 1_555 1_555
H29A O6A 1_555 1_555
O8_2 C47_2 1_555 1_555
O9_2 Cu1 1_555 1_555
O9_3 Cu1_2 1_555 1_555
C6 C7 1_555 1_555
C13 C14 1_555 1_555
C22 C23 1_555 1_555
C31 N1 1_555 1_555
C36 N2 1_555 1_555
C43 C44 1_555 1_555
Cu1 N2 1_555 1_555
Cu1 O1 1_555 1_555
Cu1 O3 1_555 1_555
C6_2 C7_2 1_555 1_555
C13_2 C14_2 1_555 1_555
C20A C21A 1_555 1_555
C22A C23A 1_555 1_555
C31_2 N1_2 1_555 1_555
C36_2 N2_2 1_555 1_555
C42A C44A 1_555 1_555
C43A C44A 1_555 1_555
C47_2 O9_2 1_555 1_555
Cu1_2 N2_2 1_555 1_555
Cu1_2 O1_2 1_555 1_555

#END
