
#######################################################################
#
#                 Cambridge Crystallographic Data Centre
#                                CCDC 
#
#######################################################################
#
# If this CIF has been generated from an entry in the Cambridge 
# Structural Database, then it will include bibliographic, chemical, 
# crystal, experimental, refinement or atomic coordinate data resulting 
# from the CCDC's data processing and validation procedures.
#
#######################################################################

data_CUWXAU
_symmetry_cell_setting           monoclinic
_symmetry_space_group_name_H-M   'P 21/n'
_symmetry_Int_Tables_number      14
_space_group_name_Hall           '-P 2yn'
loop_
_symmetry_equiv_pos_site_id
_symmetry_equiv_pos_as_xyz
1 x,y,z
2 1/2-x,1/2+y,1/2-z
3 -x,-y,-z
4 1/2+x,1/2-y,1/2+z
_cell_length_a                   7.7882(11)
_cell_length_b                   28.449(4)
_cell_length_c                   10.7928(15)
_cell_angle_alpha                90
_cell_angle_beta                 90.520(2)
_cell_angle_gamma                90
_cell_volume                     2391.22
loop_
_atom_site_label
_atom_site_type_symbol
_atom_site_fract_x
_atom_site_fract_y
_atom_site_fract_z
C1 C 1.0437(3) 0.41314(9) 1.2705(2)
C2 C 1.0148(3) 0.33795(9) 1.1458(2)
H1 H 1.1231 0.3447 1.1100
C3 C 0.9509(3) 0.36749(9) 1.2369(2)
C4 C 0.7979(3) 0.35549(8) 1.2934(2)
H2 H 0.7580 0.3736 1.3612
C5 C 0.7021(3) 0.31726(8) 1.2521(2)
H3 H 0.5954 0.3103 1.2899
C6 C 0.7612(3) 0.28913(8) 1.1560(2)
C7 C 0.6512(3) 0.25039(8) 1.0931(2)
C8 C 0.8440(3) 0.18600(9) 1.1750(2)
H4 H 0.8474 0.2029 1.2509
C9 C 0.7525(3) 0.20446(8) 1.0739(2)
C10 C 0.7518(3) 0.17885(8) 0.9631(2)
H5 H 0.6879 0.1901 0.8939
C11 C 0.8434(3) 0.13728(9) 0.9535(2)
H6 H 0.8455 0.1212 0.8764
C12 C 0.9324(3) 0.11865(8) 1.0547(2)
C13 C 0.9299(3) 0.14344(9) 1.1662(2)
H7 H 0.9877 0.1310 1.2368
C14 C 0.4905(3) 0.23806(9) 1.1695(2)
C15 C 0.5858(3) 0.27203(9) 0.9691(2)
C16 C 0.5645(3) 0.43597(8) 1.1608(2)
H8 H 0.5069 0.4178 1.2214
C17 C 0.5397(3) 0.42536(9) 1.0365(2)
H9 H 0.4663 0.4002 1.0123
C18 C 0.6234(3) 0.45197(9) 0.9481(2)
H10 H 0.6100 0.4449 0.8626
C19 C 0.7269(3) 0.48892(9) 0.9858(2)
H11 H 0.7846 0.5078 0.9266
C20 C 0.7448(3) 0.49790(9) 1.1119(2)
C21 C 0.8489(3) 0.53714(8) 1.1633(2)
C22 C 0.9244(3) 0.57182(9) 1.0911(2)
H12 H 0.9053 0.5727 1.0041
C23 C 1.0276(3) 0.60501(9) 1.1483(2)
H13 H 1.0810 0.6290 1.1010
C24 C 1.0523(3) 0.60290(9) 1.2755(2)
H14 H 1.1272 0.6245 1.3159
C25 C 0.9672(3) 0.56917(9) 1.3426(2)
H15 H 0.9799 0.5688 1.4302
C26 C 1.0282(3) 0.07275(9) 1.0443(2)
C27 C 0.9233(3) 0.29874(8) 1.1062(2)
H16 H 0.9704 0.2785 1.0454
Cu1 Cu 0.73162(4) 0.486530(10) 1.37352(3)
F1 F 0.37729(18) 0.27349(5) 1.17872(14)
F2 F 0.40323(19) 0.20198(5) 1.11881(15)
F3 F 0.53342(18) 0.22494(5) 1.28508(13)
F4 F 0.51446(19) 0.31446(5) 0.98585(13)
F5 F 0.71229(18) 0.27788(5) 0.88833(13)
F6 F 0.46531(19) 0.24532(5) 0.91314(14)
N1 N 0.8662(2) 0.53668(7) 1.28767(19)
N2 N 0.6673(3) 0.47104(7) 1.19793(19)
O1 O 0.9833(2) 0.43662(6) 1.36171(15)
O2 O 1.1701(2) 0.42456(6) 1.20804(16)
O3 O 0.7794(2) 0.50915(6) 1.54036(15)
H17 H 0.7133 0.4958 1.5904
H18 H 0.8528 0.5278 1.5791
O4 O 1.0824(2) 0.06310(6) 0.93588(15)
O5 O 1.0483(2) 0.04797(6) 1.13894(15)
Cu1C Cu 1.23162(4) 0.013470(10) 0.87352(3)
Cu1A Cu 0.76838(4) -0.013470(10) 1.12648(3)
O4C O 0.5824(2) 0.43690(6) 1.43588(15)
O5A O 0.4517(2) 0.54797(6) 1.36106(15)
loop_
_geom_bond_atom_site_label_1
_geom_bond_atom_site_label_2
_geom_bond_site_symmetry_1
_geom_bond_site_symmetry_2
C1 C3 1_555 1_555
C2 H1 1_555 1_555
C3 C2 1_555 1_555
C4 C3 1_555 1_555
H2 C4 1_555 1_555
C5 C4 1_555 1_555
H3 C5 1_555 1_555
C6 C5 1_555 1_555
C7 C6 1_555 1_555
C8 H4 1_555 1_555
C9 C7 1_555 1_555
C10 C9 1_555 1_555
H5 C10 1_555 1_555
C11 C10 1_555 1_555
H6 C11 1_555 1_555
C12 C11 1_555 1_555
C13 C8 1_555 1_555
H7 C13 1_555 1_555
C14 C7 1_555 1_555
C15 C7 1_555 1_555
C16 H8 1_555 1_555
C17 C16 1_555 1_555
H9 C17 1_555 1_555
C18 C17 1_555 1_555
H10 C18 1_555 1_555
C19 C18 1_555 1_555
H11 C19 1_555 1_555
C20 C19 1_555 1_555
C21 C20 1_555 1_555
C22 C21 1_555 1_555
H12 C22 1_555 1_555
C23 C22 1_555 1_555
H13 C23 1_555 1_555
C24 C23 1_555 1_555
H14 C24 1_555 1_555
C25 C24 1_555 1_555
H15 C25 1_555 1_555
C26 C12 1_555 1_555
C27 C2 1_555 1_555
H16 C27 1_555 1_555
Cu1 N1 1_555 1_555
F1 C14 1_555 1_555
F2 C14 1_555 1_555
F3 C14 1_555 1_555
F4 C15 1_555 1_555
F5 C15 1_555 1_555
F6 C15 1_555 1_555
N1 C21 1_555 1_555
N2 C16 1_555 1_555
O1 C1 1_555 1_555
O2 C1 1_555 1_555
O3 Cu1 1_555 1_555
H17 O3 1_555 1_555
H18 O3 1_555 1_555
O4 C26 1_555 1_555
O5 C26 1_555 1_555
Cu1C O4 1_555 1_555
Cu1A O5 1_555 1_555
O4C Cu1 1_555 1_555
O5A Cu1 1_555 1_555
C6 C27 1_555 1_555
C8 C9 1_555 1_555
C12 C13 1_555 1_555
C20 N2 1_555 1_555
C25 N1 1_555 1_555
Cu1 N2 1_555 1_555
Cu1 O1 1_555 1_555

#END
