
#######################################################################
#
#                 Cambridge Crystallographic Data Centre
#                                CCDC 
#
#######################################################################
#
# If this CIF has been generated from an entry in the Cambridge 
# Structural Database, then it will include bibliographic, chemical, 
# crystal, experimental, refinement or atomic coordinate data resulting 
# from the CCDC's data processing and validation procedures.
#
#######################################################################

data_CUWXIC
_symmetry_cell_setting           monoclinic
_symmetry_space_group_name_H-M   'P 21/c'
_symmetry_Int_Tables_number      14
_space_group_name_Hall           '-P 2ybc'
loop_
_symmetry_equiv_pos_site_id
_symmetry_equiv_pos_as_xyz
1 x,y,z
2 -x,1/2+y,1/2-z
3 -x,-y,-z
4 x,1/2-y,1/2+z
_cell_length_a                   25.643(8)
_cell_length_b                   11.004(3)
_cell_length_c                   24.351(7)
_cell_angle_alpha                90
_cell_angle_beta                 115.518(5)
_cell_angle_gamma                90
_cell_volume                     6200.97
loop_
_atom_site_label
_atom_site_type_symbol
_atom_site_fract_x
_atom_site_fract_y
_atom_site_fract_z
C1 C 0.43389(16) 0.9521(3) 0.38938(17)
C2 C 0.39531(15) 0.9138(3) 0.32562(17)
C3 C 0.34683(16) 0.9811(3) 0.28998(18)
H1 H 0.3385 1.0518 0.3056
C4 C 0.31041(16) 0.9447(3) 0.23119(17)
H2 H 0.2779 0.9908 0.2081
C5 C 0.32203(15) 0.8396(3) 0.20637(17)
C6 C 0.37094(16) 0.7718(3) 0.24347(17)
H3 H 0.3793 0.7004 0.2284
C7 C 0.40676(16) 0.8083(3) 0.30142(17)
H4 H 0.4391 0.7619 0.3248
C8 C 0.28279(15) 0.7908(3) 0.14247(17)
C9 C 0.31887(15) 0.7327(3) 0.11239(16)
C10 C 0.30530(16) 0.6225(3) 0.08120(17)
H5 H 0.2726 0.5799 0.0773
C11 C 0.34030(16) 0.5760(3) 0.05590(17)
H6 H 0.3313 0.5016 0.0358
C12 C 0.38877(16) 0.6399(3) 0.06031(17)
C13 C 0.40194(16) 0.7504(3) 0.09053(16)
H7 H 0.4340 0.7941 0.0934
C14 C 0.36759(16) 0.7957(3) 0.11639(17)
H8 H 0.3771 0.8696 0.1369
C15 C 0.42827(16) 0.5876(3) 0.03451(17)
C33 C 0.55648(15) 0.6312(3) 0.54883(17)
H17 H 0.5405 0.6538 0.5751
C34 C 0.58421(16) 0.6833(3) 0.47433(18)
H18 H 0.5885 0.7418 0.4490
C35 C 0.60172(17) 0.5655(4) 0.47152(19)
H19 H 0.6171 0.5448 0.4445
C36 C 0.59585(17) 0.4795(4) 0.50965(19)
H20 H 0.6068 0.3996 0.5080
C37 C 0.57376(16) 0.5116(3) 0.55022(18)
C38 C 0.56961(18) 0.4224(4) 0.5949(2)
H21 H 0.6064 0.4163 0.6296
H22 H 0.5411 0.4499 0.6078
H23 H 0.5587 0.3442 0.5759
C60 C 0.24057(16) 0.7013(4) 0.15090(19)
C61 C 0.24681(17) 0.8939(4) 0.09848(19)
Cu1 Cu 0.526970(18) 0.89392(4) 0.50841(2)
F7 F 0.20652(9) 0.9414(2) 0.11357(10)
F8 F 0.21911(9) 0.8533(2) 0.04143(10)
F9 F 0.28069(9) 0.9858(2) 0.09773(10)
F10 F 0.26871(9) 0.6007(2) 0.18030(10)
F11 F 0.19761(9) 0.6644(2) 0.09807(10)
F12 F 0.21556(9) 0.7494(2) 0.18374(10)
N3 N 0.56136(12) 0.7162(3) 0.51200(14)
O5 O 0.47246(11) 0.8780(2) 0.42160(12)
O6 O 0.42503(11) 1.0549(2) 0.40710(12)
O7 O 0.46651(11) 0.6561(2) 0.03328(12)
O8 O 0.41949(10) 0.4782(2) 0.01680(12)
Cu1B Cu 0.473030(18) 1.10608(4) 0.49159(2)
Cu1C Cu 0.526970(18) 0.60608(4) 0.00841(2)
Cu1A Cu 0.473030(18) 0.39392(4) -0.00841(2)
O6B O 0.57497(11) 0.9451(2) 0.59290(12)
O7C O 0.46651(11) 0.8439(2) 0.53328(12)
O8A O 0.58051(10) 0.9782(2) 0.48320(12)
C16 C 0.21461(16) 0.6860(3) 0.36079(17)
C17 C 0.24630(18) 0.5821(4) 0.40465(19)
C18 C 0.25989(17) 0.7679(4) 0.3529(2)
C19 C 0.17983(16) 0.7542(3) 0.38996(17)
C20 C 0.12887(15) 0.7000(3) 0.38525(17)
H9 H 0.1168 0.6270 0.3644
C21 C 0.09632(16) 0.7534(3) 0.41116(17)
H10 H 0.0629 0.7152 0.4084
C22 C 0.11291(15) 0.8636(3) 0.44129(17)
C23 C 0.16302(16) 0.9183(4) 0.44600(17)
H11 H 0.1741 0.9929 0.4656
C24 C 0.19717(17) 0.8627(4) 0.42157(18)
H12 H 0.2318 0.8985 0.4265
C25 C 0.07475(15) 0.9206(3) 0.46711(17)
C26 C 0.17448(15) 0.6402(3) 0.29655(17)
C27 C 0.12882(16) 0.7159(3) 0.25917(17)
H13 H 0.1228 0.7894 0.2744
C28 C 0.09286(15) 0.6831(3) 0.20038(17)
H14 H 0.0623 0.7336 0.1767
C29 C 0.10181(15) 0.5747(3) 0.17596(17)
C30 C 0.14644(16) 0.4985(3) 0.21256(17)
H15 H 0.1523 0.4252 0.1971
C31 C 0.18246(16) 0.5311(3) 0.27228(18)
H16 H 0.2122 0.4793 0.2963
C32 C 0.06461(16) 0.5432(3) 0.11114(18)
C39 C 0.06986(15) 1.3498(3) 0.56772(18)
H24 H 0.0728 1.3053 0.6014
C40 C 0.08198(16) 1.4733(3) 0.5753(2)
C41 C 0.07748(17) 1.5370(4) 0.5248(2)
H25 H 0.0848 1.6201 0.5274
C42 C 0.06193(18) 1.4768(4) 0.4701(2)
H26 H 0.0593 1.5185 0.4358
C43 C 0.05036(17) 1.3542(4) 0.4672(2)
H27 H 0.0394 1.3140 0.4303
C44 C 0.09784(19) 1.5316(4) 0.6360(2)
H28 H 0.0646 1.5333 0.6445
H29 H 0.1281 1.4856 0.6669
H30 H 0.1110 1.6130 0.6354
Cu2 Cu 0.026190(18) 1.10680(4) 0.50674(2)
F1 F 0.27408(10) 0.6207(2) 0.46198(10)
F2 F 0.20979(10) 0.4946(2) 0.40406(10)
F3 F 0.28630(10) 0.5280(2) 0.39048(10)
F4 F 0.30381(9) 0.8003(2) 0.40649(11)
F5 F 0.28376(9) 0.7140(2) 0.32013(10)
F6 F 0.23592(10) 0.8717(2) 0.32393(11)
N2 N 0.05435(13) 1.2914(3) 0.51532(14)
O1 O 0.08299(10) 1.0310(2) 0.48287(12)
O2 O 0.03707(11) 0.8530(2) 0.47044(12)
O3 O 0.07285(11) 0.4424(2) 0.09139(11)
O4 O 0.02723(11) 0.6203(2) 0.08007(12)
Cu2B Cu -0.026190(18) 0.89320(4) 0.49326(2)
Cu2C Cu 0.026190(18) 0.39320(4) 0.00674(2)
Cu2A Cu -0.026190(18) 0.60680(4) -0.00674(2)
O2B O -0.03707(11) 1.1470(2) 0.52956(12)
O3C O 0.07285(11) 1.0576(2) 0.59139(11)
O4A O -0.02723(11) 1.1203(2) 0.41993(12)
C45 C 0.4347(5) 0.1288(11) 0.2006(6)
H31 H 0.3948 0.1052 0.1808
H32 H 0.4551 0.0749 0.2341
H33 H 0.4513 0.1245 0.1721
C46 C 0.4392(3) 0.2593(7) 0.2244(4)
C47 C 0.4401(3) 0.3606(8) 0.1900(4)
H34 H 0.4293 0.3498 0.1487
C48 C 0.4553(5) 0.4697(12) 0.2129(6)
H35 H 0.4548 0.5376 0.1899
C49 C 0.4756(6) 0.4733(14) 0.2868(8)
C50 C 0.4514(3) 0.2637(8) 0.2853(4)
H36 H 0.4511 0.1949 0.3073
N1 N 0.4640(3) 0.3752(7) 0.3105(3)
C51 C 0.1981(3) 0.2267(6) 0.0126(3)
H37 H 0.2215 0.2084 -0.0082
H38 H 0.1681 0.2826 -0.0113
H39 H 0.1810 0.1532 0.0185
C52 C 0.2050(2) 0.3105(5) 0.1095(3)
H40 H 0.1893 0.2372 0.1178
H41 H 0.1742 0.3665 0.0880
H42 H 0.2315 0.3465 0.1471
C53 C 0.2901(3) 0.2923(5) 0.0937(4)
H43 H 0.3113 0.3182 0.1336
N6 N 0.2348(2) 0.2826(3) 0.0730(2)
O9 O 0.3161(2) 0.2680(4) 0.0618(3)
C54 C 0.0538(2) 0.2450(5) 0.2182(2)
H44 H 0.0324 0.1702 0.2093
H45 H 0.0928 0.2290 0.2245
H46 H 0.0360 0.3001 0.1846
C55 C 0.0803(3) 0.2288(9) 0.3293(3)
H47 H 0.0708 0.2645 0.3598
H48 H 0.1215 0.2282 0.3435
H49 H 0.0660 0.1470 0.3215
C56 C 0.0304(3) 0.4046(6) 0.2736(3)
H50 H 0.0135 0.4454 0.2366
N4 N 0.0541(2) 0.2996(5) 0.2734(2)
O10 O 0.0279(2) 0.4553(5) 0.3174(2)
C57 C 0.3126(2) 0.2944(4) 0.3187(3)
H51 H 0.3492 0.2542 0.3316
H52 H 0.3181 0.3723 0.3382
H53 H 0.2957 0.3053 0.2754
C58 C 0.2930(2) 0.1860(5) 0.3983(2)
H54 H 0.2631 0.1402 0.4025
H55 H 0.3012 0.2577 0.4231
H56 H 0.3273 0.1372 0.4112
C59 C 0.2240(2) 0.1802(4) 0.2920(3)
H57 H 0.2017 0.1305 0.3043
N5 N 0.27423(16) 0.2205(3) 0.3353(2)
O11 O 0.20511(15) 0.2034(3) 0.23760(18)
loop_
_geom_bond_atom_site_label_1
_geom_bond_atom_site_label_2
_geom_bond_site_symmetry_1
_geom_bond_site_symmetry_2
C1 C2 1_555 1_555
C2 C3 1_555 1_555
C3 H1 1_555 1_555
C4 C3 1_555 1_555
H2 C4 1_555 1_555
C5 C4 1_555 1_555
C6 C5 1_555 1_555
H3 C6 1_555 1_555
C7 C2 1_555 1_555
H4 C7 1_555 1_555
C8 C5 1_555 1_555
C9 C8 1_555 1_555
C10 C9 1_555 1_555
H5 C10 1_555 1_555
C11 C10 1_555 1_555
H6 C11 1_555 1_555
C12 C11 1_555 1_555
C13 C12 1_555 1_555
H7 C13 1_555 1_555
C14 C9 1_555 1_555
H8 C14 1_555 1_555
C15 C12 1_555 1_555
C16 C17 1_555 1_555
C17 F1 1_555 1_555
C18 C16 1_555 1_555
C19 C16 1_555 1_555
C20 C19 1_555 1_555
H9 C20 1_555 1_555
C21 C20 1_555 1_555
H10 C21 1_555 1_555
C22 C21 1_555 1_555
C23 C22 1_555 1_555
H11 C23 1_555 1_555
C24 C19 1_555 1_555
H12 C24 1_555 1_555
C25 C22 1_555 1_555
C26 C16 1_555 1_555
C27 C26 1_555 1_555
H13 C27 1_555 1_555
C28 C27 1_555 1_555
H14 C28 1_555 1_555
C29 C28 1_555 1_555
C30 C29 1_555 1_555
H15 C30 1_555 1_555
C31 C26 1_555 1_555
H16 C31 1_555 1_555
C32 C29 1_555 1_555
C33 H17 1_555 1_555
C34 H18 1_555 1_555
C35 C34 1_555 1_555
H19 C35 1_555 1_555
C36 C35 1_555 1_555
H20 C36 1_555 1_555
C37 C33 1_555 1_555
C38 C37 1_555 1_555
H21 C38 1_555 1_555
H22 C38 1_555 1_555
H23 C38 1_555 1_555
C39 H24 1_555 1_555
C40 C39 1_555 1_555
C41 C40 1_555 1_555
H25 C41 1_555 1_555
C42 C41 1_555 1_555
H26 C42 1_555 1_555
C43 C42 1_555 1_555
H27 C43 1_555 1_555
C44 C40 1_555 1_555
H28 C44 1_555 1_555
H29 C44 1_555 1_555
H30 C44 1_555 1_555
C45 H31 1_555 1_555
H32 C45 1_555 1_555
H33 C45 1_555 1_555
C46 C45 1_555 1_555
C47 C46 1_555 1_555
H34 C47 1_555 1_555
C48 C47 1_555 1_555
H35 C48 1_555 1_555
C49 C48 1_555 1_555
C50 C46 1_555 1_555
H36 C50 1_555 1_555
N1 C49 1_555 1_555
C51 H37 1_555 1_555
H38 C51 1_555 1_555
H39 C51 1_555 1_555
C52 H40 1_555 1_555
H41 C52 1_555 1_555
H42 C52 1_555 1_555
C53 H43 1_555 1_555
C54 H44 1_555 1_555
H45 C54 1_555 1_555
H46 C54 1_555 1_555
C55 H47 1_555 1_555
H48 C55 1_555 1_555
H49 C55 1_555 1_555
C56 H50 1_555 1_555
C57 H51 1_555 1_555
H52 C57 1_555 1_555
H53 C57 1_555 1_555
C58 H54 1_555 1_555
H55 C58 1_555 1_555
H56 C58 1_555 1_555
C59 H57 1_555 1_555
C60 C8 1_555 1_555
C61 C8 1_555 1_555
Cu1 N3 1_555 1_555
Cu2 N2 1_555 1_555
F2 C17 1_555 1_555
F3 C17 1_555 1_555
F4 C18 1_555 1_555
F5 C18 1_555 1_555
F6 C18 1_555 1_555
F7 C61 1_555 1_555
F8 C61 1_555 1_555
F9 C61 1_555 1_555
F10 C60 1_555 1_555
F11 C60 1_555 1_555
F12 C60 1_555 1_555
N2 C39 1_555 1_555
N3 C33 1_555 1_555
N4 C54 1_555 1_555
N5 C57 1_555 1_555
N6 C51 1_555 1_555
O1 C25 1_555 1_555
O2 C25 1_555 1_555
O3 C32 1_555 1_555
O4 C32 1_555 1_555
O5 C1 1_555 1_555
O6 C1 1_555 1_555
O7 C15 1_555 1_555
O8 C15 1_555 1_555
O9 C53 1_555 1_555
O10 C56 1_555 1_555
O11 C59 1_555 1_555
Cu1B O6 1_555 1_555
Cu1C O7 1_555 1_555
Cu1A O8 1_555 1_555
Cu2B O2 1_555 1_555
Cu2C O3 1_555 1_555
Cu2A O4 1_555 1_555
O2B Cu2 1_555 1_555
O3C Cu2 1_555 1_555
O4A Cu2 1_555 1_555
O6B Cu1 1_555 1_555
O7C Cu1 1_555 1_555
O8A Cu1 1_555 1_555
C6 C7 1_555 1_555
C13 C14 1_555 1_555
C23 C24 1_555 1_555
C30 C31 1_555 1_555
C34 N3 1_555 1_555
C36 C37 1_555 1_555
C43 N2 1_555 1_555
C50 N1 1_555 1_555
C52 N6 1_555 1_555
C53 N6 1_555 1_555
C55 N4 1_555 1_555
C56 N4 1_555 1_555
C58 N5 1_555 1_555
C59 N5 1_555 1_555
Cu1 O5 1_555 1_555
Cu2 O1 1_555 1_555

#END
