
#######################################################################
#
#                 Cambridge Crystallographic Data Centre
#                                CCDC 
#
#######################################################################
#
# If this CIF has been generated from an entry in the Cambridge 
# Structural Database, then it will include bibliographic, chemical, 
# crystal, experimental, refinement or atomic coordinate data resulting 
# from the CCDC's data processing and validation procedures.
#
#######################################################################

data_CUXBON
_symmetry_cell_setting           monoclinic
_symmetry_space_group_name_H-M   'C 2/c'
_symmetry_Int_Tables_number      15
_space_group_name_Hall           '-C 2yn'
loop_
_symmetry_equiv_pos_site_id
_symmetry_equiv_pos_as_xyz
1 x,y,z
2 -x,y,1/2-z
3 1/2+x,1/2+y,z
4 1/2-x,1/2+y,1/2-z
5 -x,-y,-z
6 x,-y,1/2+z
7 1/2-x,1/2-y,-z
8 1/2+x,1/2-y,1/2+z
_cell_length_a                   23.891(5)
_cell_length_b                   12.987(3)
_cell_length_c                   25.694(5)
_cell_angle_alpha                90
_cell_angle_beta                 116.07(3)
_cell_angle_gamma                90
_cell_volume                     7161.04
loop_
_atom_site_label
_atom_site_type_symbol
_atom_site_fract_x
_atom_site_fract_y
_atom_site_fract_z
N3 N 0.2042(10) -0.0882(17) 0.0327(9)
C13 C 0.2135(10) 0.0119(19) 0.0479(10)
C14 C 0.1600(11) 0.0502(13) 0.0454(9)
N4 N 0.1175(7) -0.0262(15) 0.0286(7)
C15 C 0.1448(10) -0.1118(12) 0.0208(7)
O24 O -0.1997(16) 0.675(3) 0.0948(15)
O25 O -0.1260(10) 0.4968(17) 0.1996(9)
O26 O -0.143(3) 0.772(5) 0.224(2)
O27 O -0.302(2) 0.633(4) 0.182(2)
Mo1 Mo 0.12653(3) 0.43660(6) 0.13645(3)
Mo2 Mo -0.11821(3) 0.38273(6) 0.03001(3)
Mo3 Mo -0.01268(4) 0.58612(5) 0.12592(3)
Mo4 Mo 0.02058(3) 0.23398(5) 0.03925(3)
V1 V 0.00654(7) 0.34915(10) 0.13882(5)
V2 V 0.10184(5) 0.69501(9) 0.09339(5)
V3 V -0.13408(5) 0.64231(8) -0.00951(5)
Co1 Co 0.0000 0.18345(10) 0.2500
P1 P 0.0000 0.5000 0.0000
O1 O -0.0457(4) 0.5186(7) 0.0253(4)
O2 O 0.0467(4) 0.4175(7) 0.0319(4)
O3 O 0.0385(4) 0.5352(7) 0.0644(4)
O4 O 0.0330(4) 0.6023(7) 0.0011(4)
O5 O -0.0796(4) 0.6491(5) 0.0729(3)
O6 O 0.1416(4) 0.5718(5) 0.1328(6)
O7 O 0.0442(4) 0.6750(5) 0.1261(5)
O8 O -0.1372(3) 0.3258(8) -0.0400(3)
O9 O 0.1593(4) 0.3940(7) 0.0891(3)
O10 O -0.1548(4) 0.5043(5) 0.0047(3)
O11 O -0.0400(3) 0.2222(8) -0.0330(3)
O12 O -0.1933(3) 0.7066(5) -0.0133(4)
O13 O 0.0540(3) 0.4744(5) 0.1556(4)
O14 O -0.1669(3) 0.3230(6) 0.0504(3)
O15 O 0.0844(4) 0.2513(6) 0.0210(3)
O16 O 0.0299(4) 0.1129(5) 0.0622(3)
O17 O 0.1798(3) 0.4001(6) 0.2023(3)
O18 O -0.0178(4) 0.6129(5) 0.1866(3)
O19 O -0.0447(3) 0.2824(5) 0.0660(3)
O20 O -0.0598(3) 0.4489(4) 0.1067(3)
O21 O 0.1467(3) 0.7810(5) 0.1351(3)
O22 O 0.0104(3) 0.2912(4) 0.1971(3)
O23 O 0.0704(3) 0.3090(5) 0.1160(3)
N1 N -0.0974(3) 0.1662(6) 0.1997(3)
N2 N -0.0046(3) 0.0645(5) 0.1900(3)
C1 C -0.1424(5) 0.2171(10) 0.2036(5)
H1 H -0.1326 0.2710 0.2300
C2 C -0.2064(5) 0.1924(14) 0.1685(7)
H2 H -0.2377 0.2329 0.1701
C3 C -0.2209(6) 0.1109(14) 0.1336(6)
H3 H -0.2623 0.0912 0.1128
C4 C -0.1745(5) 0.0562(11) 0.1283(6)
C5 C -0.1848(8) -0.0332(17) 0.0917(8)
H4 H -0.2256 -0.0551 0.0695
C6 C -0.1370(8) -0.0874(14) 0.0882(8)
H5 H -0.1455 -0.1465 0.0655
C7 C -0.0746(6) -0.0526(9) 0.1193(5)
C8 C -0.0256(7) -0.0997(8) 0.1146(5)
H6 H -0.0325 -0.1553 0.0897
C9 C 0.0327(6) -0.0642(8) 0.1465(5)
H7 H 0.0664 -0.0941 0.1433
C10 C 0.0415(5) 0.0178(7) 0.1842(4)
H8 H 0.0819 0.0409 0.2065
C11 C -0.0630(4) 0.0315(6) 0.1572(4)
C12 C -0.1119(4) 0.0862(8) 0.1626(4)
O1D O 0.0457(4) 0.4814(7) -0.0253(4)
O3D O -0.0385(4) 0.4648(7) -0.0644(4)
O2D O -0.0467(4) 0.5825(7) -0.0319(4)
O4D O -0.0330(4) 0.3977(7) -0.0011(4)
O22A O -0.0104(3) 0.2912(4) 0.3029(3)
N1A N 0.0974(3) 0.1662(6) 0.3003(3)
N2A N 0.0046(3) 0.0645(5) 0.3100(3)
C1A C 0.1424(5) 0.2171(10) 0.2964(5)
H1A H 0.1326 0.2710 0.2700
C2A C 0.2064(5) 0.1924(14) 0.3315(7)
H2A H 0.2377 0.2329 0.3299
C3A C 0.2209(6) 0.1109(14) 0.3664(6)
H3A H 0.2623 0.0912 0.3872
C4A C 0.1745(5) 0.0562(11) 0.3717(6)
C5A C 0.1848(8) -0.0332(17) 0.4083(8)
H4A H 0.2256 -0.0551 0.4305
C6A C 0.1370(8) -0.0874(14) 0.4118(8)
H5A H 0.1455 -0.1465 0.4345
C7A C 0.0746(6) -0.0526(9) 0.3807(5)
C8A C 0.0256(7) -0.0997(8) 0.3854(5)
H6A H 0.0325 -0.1553 0.4103
C9A C -0.0327(6) -0.0642(8) 0.3535(5)
H7A H -0.0664 -0.0941 0.3567
C10A C -0.0415(5) 0.0178(7) 0.3158(4)
H8A H -0.0819 0.0409 0.2935
C11A C 0.0630(4) 0.0315(6) 0.3428(4)
C12A C 0.1119(4) 0.0862(8) 0.3374(4)
V1A V -0.00654(7) 0.34915(10) 0.36118(5)
O13A O -0.0540(3) 0.4744(5) 0.3444(4)
O19A O 0.0447(3) 0.2824(5) 0.4340(3)
O20A O 0.0598(3) 0.4489(4) 0.3933(3)
O23A O -0.0704(3) 0.3090(5) 0.3840(3)
Mo1A Mo -0.12653(3) 0.43660(6) 0.36355(3)
Mo2A Mo 0.11821(3) 0.38273(6) 0.46999(3)
Mo3A Mo 0.01268(4) 0.58612(5) 0.37408(3)
Mo4A Mo -0.02058(3) 0.23398(5) 0.46075(3)
O6A O -0.1416(4) 0.5718(5) 0.3672(6)
O9A O -0.1593(4) 0.3940(7) 0.4109(3)
O17A O -0.1798(3) 0.4001(6) 0.2977(3)
O8A O 0.1372(3) 0.3258(8) 0.5400(3)
O10A O 0.1548(4) 0.5043(5) 0.4953(3)
O14A O 0.1669(3) 0.3230(6) 0.4496(3)
O5A O 0.0796(4) 0.6491(5) 0.4271(3)
O7A O -0.0442(4) 0.6750(5) 0.3739(5)
O18A O 0.0178(4) 0.6129(5) 0.3134(3)
O11A O 0.0400(3) 0.2222(8) 0.5330(3)
O15A O -0.0844(4) 0.2513(6) 0.4790(3)
O16A O -0.0299(4) 0.1129(5) 0.4378(3)
V2A V -0.10184(5) 0.69501(9) 0.40661(5)
V3A V 0.13408(5) 0.64231(8) 0.50951(5)
O21A O -0.1467(3) 0.7810(5) 0.3649(3)
O12A O 0.1933(3) 0.7066(5) 0.5133(4)
O8D O 0.1372(3) 0.6742(8) 0.0400(3)
O11D O 0.0400(3) 0.7778(8) 0.0330(3)
O9D O -0.1593(4) 0.6060(7) -0.0891(3)
O15D O -0.0844(4) 0.7487(6) -0.0210(3)
Mo2D Mo 0.11821(3) 0.61727(6) -0.03001(3)
Mo4D Mo -0.02058(3) 0.76602(5) -0.03925(3)
V2D V -0.10184(5) 0.30499(9) -0.09339(5)
V3D V 0.13408(5) 0.35769(8) 0.00951(5)
Mo3D Mo 0.01268(4) 0.41388(5) -0.12592(3)
Mo1D Mo -0.12653(3) 0.56340(6) -0.13645(3)
O3A O -0.0385(4) 0.5352(7) 0.4356(4)
O1A O 0.0457(4) 0.5186(7) 0.4747(4)
O4E O 0.0330(4) 0.3977(7) 0.5011(4)
O2A O -0.0467(4) 0.4175(7) 0.4681(4)
V3E V -0.13408(5) 0.35769(8) 0.49049(5)
V2E V 0.10184(5) 0.30499(9) 0.59339(5)
O8E O -0.1372(3) 0.6742(8) 0.4600(3)
O11E O -0.0400(3) 0.7778(8) 0.4670(3)
O9E O 0.1593(4) 0.6060(7) 0.5891(3)
O15E O 0.0844(4) 0.7487(6) 0.5210(3)
O10D O 0.1548(4) 0.4957(5) -0.0047(3)
O14D O 0.1669(3) 0.6770(6) -0.0504(3)
O19D O 0.0447(3) 0.7176(5) -0.0660(3)
O20D O 0.0598(3) 0.5511(4) -0.1067(3)
O16D O -0.0299(4) 0.8871(5) -0.0622(3)
O23D O -0.0704(3) 0.6910(5) -0.1160(3)
O6D O -0.1416(4) 0.4282(5) -0.1328(6)
O7D O -0.0442(4) 0.3250(5) -0.1261(5)
O21D O -0.1467(3) 0.2190(5) -0.1351(3)
O5D O 0.0796(4) 0.3509(5) -0.0729(3)
O12D O 0.1933(3) 0.2934(5) 0.0133(4)
O13D O -0.0540(3) 0.5256(5) -0.1556(4)
O18D O 0.0178(4) 0.3871(5) -0.1866(3)
O17D O -0.1798(3) 0.5999(6) -0.2023(3)
P1A P 0.0000 0.5000 0.5000
O4A O -0.0330(4) 0.6023(7) 0.4989(4)
O2E O 0.0467(4) 0.5825(7) 0.5319(4)
O3E O 0.0385(4) 0.4648(7) 0.5644(4)
O1E O -0.0457(4) 0.4814(7) 0.5253(4)
O5E O -0.0796(4) 0.3509(5) 0.5729(3)
O10E O -0.1548(4) 0.4957(5) 0.5047(3)
O12E O -0.1933(3) 0.2934(5) 0.4867(4)
O6E O 0.1416(4) 0.4282(5) 0.6328(6)
O7E O 0.0442(4) 0.3250(5) 0.6261(5)
O21E O 0.1467(3) 0.2190(5) 0.6351(3)
Mo2E Mo -0.11821(3) 0.61727(6) 0.53001(3)
Mo4E Mo 0.02058(3) 0.76602(5) 0.53925(3)
Mo1E Mo 0.12653(3) 0.56340(6) 0.63645(3)
V1D V -0.00654(7) 0.65085(10) -0.13882(5)
Mo3E Mo -0.01268(4) 0.41388(5) 0.62592(3)
O14E O -0.1669(3) 0.6770(6) 0.5504(3)
O19E O -0.0447(3) 0.7176(5) 0.5660(3)
O20E O -0.0598(3) 0.5511(4) 0.6067(3)
O16E O 0.0299(4) 0.8871(5) 0.5622(3)
O23E O 0.0704(3) 0.6910(5) 0.6160(3)
O13E O 0.0540(3) 0.5256(5) 0.6556(4)
O17E O 0.1798(3) 0.5999(6) 0.7023(3)
O22D O -0.0104(3) 0.7088(4) -0.1971(3)
O18E O -0.0178(4) 0.3871(5) 0.6866(3)
V1E V 0.00654(7) 0.65085(10) 0.63882(5)
Co1D Co 0.0000 0.81655(10) -0.2500
O22E O 0.0104(3) 0.7088(4) 0.6971(3)
O22E_2 O 0.0104(3) 0.7088(4) -0.3029(3)
N1D N 0.0974(3) 0.8338(6) -0.1997(3)
N1E N -0.0974(3) 0.8338(6) -0.3003(3)
N2D N 0.0046(3) 0.9355(5) -0.1900(3)
N2E N -0.0046(3) 0.9355(5) -0.3100(3)
Co1D_2 Co 0.0000 0.81655(10) 0.7500
loop_
_geom_bond_atom_site_label_1
_geom_bond_atom_site_label_2
_geom_bond_site_symmetry_1
_geom_bond_site_symmetry_2
Mo1 O3 1_555 1_555
Mo2 O1 1_555 1_555
Mo3 O1 1_555 1_555
Mo4 O2 1_555 1_555
V1 O13 1_555 1_555
V2 O6 1_555 1_555
V3 O5 1_555 1_555
Co1 O22 1_555 1_555
P1 O1 1_555 1_555
O1 O3 1_555 1_555
O2 P1 1_555 1_555
O3 Mo3 1_555 1_555
O4 P1 1_555 1_555
O5 Mo3 1_555 1_555
O6 Mo1 1_555 1_555
O7 Mo3 1_555 1_555
O8 Mo2 1_555 1_555
O9 Mo1 1_555 1_555
O10 Mo2 1_555 1_555
O11 Mo4 1_555 1_555
O12 V3 1_555 1_555
O13 Mo1 1_555 1_555
O14 Mo2 1_555 1_555
O15 Mo4 1_555 1_555
O16 Mo4 1_555 1_555
O17 Mo1 1_555 1_555
O18 Mo3 1_555 1_555
O19 Mo2 1_555 1_555
O20 Mo2 1_555 1_555
O21 V2 1_555 1_555
O22 V1 1_555 1_555
O23 Mo1 1_555 1_555
N1 Co1 1_555 1_555
N2 Co1 1_555 1_555
C1 N1 1_555 1_555
H1 C1 1_555 1_555
C2 C1 1_555 1_555
H2 C2 1_555 1_555
C3 C2 1_555 1_555
H3 C3 1_555 1_555
C4 C3 1_555 1_555
C5 C4 1_555 1_555
H4 C5 1_555 1_555
C6 C5 1_555 1_555
H5 C6 1_555 1_555
C7 C6 1_555 1_555
C8 C7 1_555 1_555
H6 C8 1_555 1_555
C9 C8 1_555 1_555
H7 C9 1_555 1_555
C10 N2 1_555 1_555
H8 C10 1_555 1_555
C11 N2 1_555 1_555
C12 N1 1_555 1_555
N3 C13 1_555 1_555
C13 C14 1_555 1_555
C14 N4 1_555 1_555
N4 C15 1_555 1_555
C15 N3 1_555 1_555
O1D P1 1_555 1_555
O3D P1 1_555 1_555
O2D P1 1_555 1_555
O4D Mo2 1_555 1_555
O22A Co1 1_555 1_555
N1A Co1 1_555 1_555
N2A Co1 1_555 1_555
C1A N1A 1_555 1_555
H1A C1A 1_555 1_555
C2A C1A 1_555 1_555
H2A C2A 1_555 1_555
C3A C2A 1_555 1_555
H3A C3A 1_555 1_555
C4A C3A 1_555 1_555
C5A C4A 1_555 1_555
H4A C5A 1_555 1_555
C6A C5A 1_555 1_555
H5A C6A 1_555 1_555
C7A C6A 1_555 1_555
C8A C7A 1_555 1_555
H6A C8A 1_555 1_555
C9A C8A 1_555 1_555
H7A C9A 1_555 1_555
C10A N2A 1_555 1_555
H8A C10A 1_555 1_555
C11A N2A 1_555 1_555
C12A N1A 1_555 1_555
V1A O22A 1_555 1_555
O13A V1A 1_555 1_555
O19A V1A 1_555 1_555
O20A V1A 1_555 1_555
O23A V1A 1_555 1_555
Mo1A O13A 1_555 1_555
Mo2A O19A 1_555 1_555
Mo3A O13A 1_555 1_555
Mo4A O19A 1_555 1_555
O6A Mo1A 1_555 1_555
O9A Mo1A 1_555 1_555
O17A Mo1A 1_555 1_555
O8A Mo2A 1_555 1_555
O10A Mo2A 1_555 1_555
O14A Mo2A 1_555 1_555
O5A Mo3A 1_555 1_555
O7A Mo3A 1_555 1_555
O18A Mo3A 1_555 1_555
O11A Mo4A 1_555 1_555
O15A Mo4A 1_555 1_555
O16A Mo4A 1_555 1_555
V2A O6A 1_555 1_555
V3A O10A 1_555 1_555
O21A V2A 1_555 1_555
O12A V3A 1_555 1_555
O8D V2 1_555 1_555
O11D V2 1_555 1_555
O9D V3 1_555 1_555
O15D V3 1_555 1_555
Mo2D O4 1_555 1_555
Mo4D O4 1_555 1_555
V2D O8 1_555 1_555
V3D O9 1_555 1_555
Mo3D O1D 1_555 1_555
Mo1D O3D 1_555 1_555
O3A Mo1A 1_555 1_555
O1A Mo2A 1_555 1_555
O4E Mo2A 1_555 1_555
O2A Mo4A 1_555 1_555
V3E O9A 1_555 1_555
V2E O8A 1_555 1_555
O8E V2A 1_555 1_555
O11E V2A 1_555 1_555
O9E V3A 1_555 1_555
O15E V3A 1_555 1_555
O10D Mo2D 1_555 1_555
O14D Mo2D 1_555 1_555
O19D Mo2D 1_555 1_555
O20D Mo2D 1_555 1_555
O16D Mo4D 1_555 1_555
O23D Mo4D 1_555 1_555
O6D V2D 1_555 1_555
O7D V2D 1_555 1_555
O21D V2D 1_555 1_555
O5D V3D 1_555 1_555
O12D V3D 1_555 1_555
O13D Mo3D 1_555 1_555
O18D Mo3D 1_555 1_555
O17D Mo1D 1_555 1_555
P1A O3A 1_555 1_555
O4A O3A 1_555 1_555
O2E O1A 1_555 1_555
O3E O4E 1_555 1_555
O1E O2A 1_555 1_555
O5E V3E 1_555 1_555
O10E V3E 1_555 1_555
O12E V3E 1_555 1_555
O6E V2E 1_555 1_555
O7E V2E 1_555 1_555
O21E V2E 1_555 1_555
Mo2E O8E 1_555 1_555
Mo4E O11E 1_555 1_555
Mo1E O9E 1_555 1_555
V1D O19D 1_555 1_555
Mo3E O3E 1_555 1_555
O14E Mo2E 1_555 1_555
O19E Mo2E 1_555 1_555
O20E Mo2E 1_555 1_555
O16E Mo4E 1_555 1_555
O23E Mo4E 1_555 1_555
O13E Mo1E 1_555 1_555
O17E Mo1E 1_555 1_555
O22D V1D 1_555 1_555
O18E Mo3E 1_555 1_555
V1E O19E 1_555 1_555
Co1D O22D 1_555 1_555
O22E V1E 1_555 1_555
O22E_2 Co1D 1_555 1_555
N1D Co1D 1_555 1_555
N1E Co1D 1_555 1_555
N2D Co1D 1_555 1_555
N2E Co1D 1_555 1_555
Co1D_2 O22E 1_555 1_555
Mo3 O13 1_555 1_555
Mo3 O20 1_555 1_555
Mo4 O19 1_555 1_555
Mo4 O23 1_555 1_555
Mo4 O4D 1_555 1_555
V1 O19 1_555 1_555
V1 O20 1_555 1_555
V1 O23 1_555 1_555
V2 O7 1_555 1_555
V3 O10 1_555 1_555
P1 O3 1_555 1_555
P1 O4D 1_555 1_555
O1 O4D 1_555 1_555
O1 O2D 1_555 1_555
O2 O1D 1_555 1_555
O2 O4D 1_555 1_555
O2 O3 1_555 1_555
O3 O4 1_555 1_555
O4 O1D 1_555 1_555
O4 O2D 1_555 1_555
O11 V2D 1_555 1_555
O15 V3D 1_555 1_555
C4 C12 1_555 1_555
C7 C11 1_555 1_555
C9 C10 1_555 1_555
C11 C12 1_555 1_555
O1D O3D 1_555 1_555
O1D Mo2D 1_555 1_555
O3D O2D 1_555 1_555
O3D O4D 1_555 1_555
O3D Mo3D 1_555 1_555
O2D Mo4D 1_555 1_555
C4A C12A 1_555 1_555
C7A C11A 1_555 1_555
C9A C10A 1_555 1_555
C11A C12A 1_555 1_555
O20A Mo2A 1_555 1_555
O20A Mo3A 1_555 1_555
O23A Mo1A 1_555 1_555
O23A Mo4A 1_555 1_555
Mo3A O1A 1_555 1_555
Mo3A O3A 1_555 1_555
Mo4A O4E 1_555 1_555
O5A V3A 1_555 1_555
O7A V2A 1_555 1_555
O11A V2E 1_555 1_555
O15A V3E 1_555 1_555
O8D Mo2D 1_555 1_555
O11D Mo4D 1_555 1_555
O9D Mo1D 1_555 1_555
O15D Mo4D 1_555 1_555
Mo4D O19D 1_555 1_555
V3D O10D 1_555 1_555
Mo3D O5D 1_555 1_555
Mo3D O7D 1_555 1_555
Mo3D O20D 1_555 1_555
Mo1D O6D 1_555 1_555
Mo1D O13D 1_555 1_555
Mo1D O23D 1_555 1_555
O3A O1A 1_555 1_555
O3A O2A 1_555 1_555
O1A O4E 1_555 1_555
O1A P1A 1_555 1_555
O4E O2A 1_555 1_555
O4E P1A 1_555 1_555
O2A P1A 1_555 1_555
O15E Mo4E 1_555 1_555
O20D V1D 1_555 1_555
O23D V1D 1_555 1_555
O13D V1D 1_555 1_555
P1A O1E 1_555 1_555
P1A O2E 1_555 1_555
P1A O3E 1_555 1_555
P1A O4A 1_555 1_555
O4A O1E 1_555 1_555
O4A O2E 1_555 1_555
O4A Mo2E 1_555 1_555
O4A Mo4E 1_555 1_555
O2E O3E 1_555 1_555
O2E Mo4E 1_555 1_555
O3E O1E 1_555 1_555
O3E Mo1E 1_555 1_555
O1E Mo2E 1_555 1_555
O1E Mo3E 1_555 1_555
O5E Mo3E 1_555 1_555
O10E Mo2E 1_555 1_555
O6E Mo1E 1_555 1_555
O7E Mo3E 1_555 1_555
Mo4E O19E 1_555 1_555
Mo1E O23E 1_555 1_555
Mo3E O13E 1_555 1_555
Mo3E O20E 1_555 1_555
O20E V1E 1_555 1_555
O23E V1E 1_555 1_555
O13E V1E 1_555 1_555

#END
