
#######################################################################
#
#                 Cambridge Crystallographic Data Centre
#                                CCDC 
#
#######################################################################
#
# If this CIF has been generated from an entry in the Cambridge 
# Structural Database, then it will include bibliographic, chemical, 
# crystal, experimental, refinement or atomic coordinate data resulting 
# from the CCDC's data processing and validation procedures.
#
#######################################################################

data_CUXBIH
_symmetry_cell_setting           monoclinic
_symmetry_space_group_name_H-M   'C 2/c'
_symmetry_Int_Tables_number      15
_space_group_name_Hall           '-C 2yn'
loop_
_symmetry_equiv_pos_site_id
_symmetry_equiv_pos_as_xyz
1 x,y,z
2 -x,y,1/2-z
3 1/2+x,1/2+y,z
4 1/2-x,1/2+y,1/2-z
5 -x,-y,-z
6 x,-y,1/2+z
7 1/2-x,1/2-y,-z
8 1/2+x,1/2-y,1/2+z
_cell_length_a                   24.189(5)
_cell_length_b                   12.933(3)
_cell_length_c                   25.434(5)
_cell_angle_alpha                90
_cell_angle_beta                 117.00(3)
_cell_angle_gamma                90
_cell_volume                     7089.45
loop_
_atom_site_label
_atom_site_type_symbol
_atom_site_fract_x
_atom_site_fract_y
_atom_site_fract_z
C13 C 0.3662(15) -0.754(3) 0.2417(10)
C14 C 0.3083(16) -0.707(3) 0.2125(15)
C15 C 0.2738(11) -0.718(2) 0.1518(15)
N3 N 0.2971(14) -0.776(3) 0.1203(10)
C16 C 0.3549(15) -0.823(2) 0.1494(14)
C17 C 0.3895(11) -0.812(2) 0.2102(14)
O24 O 0.3901(8) -0.0336(17) 0.2022(7)
O25 O 0.634(2) -0.530(4) 0.040(2)
O26 O 0.2362(15) -0.068(2) 0.0858(14)
P1 P 0.5000 0.0000 0.5000
Mo1 Mo 0.50871(4) 0.08581(6) 0.37152(3)
Mo2 Mo 0.61654(4) -0.11755(7) 0.46960(3)
Mo3 Mo 0.37284(3) -0.06573(6) 0.36100(3)
Mo4 Mo 0.48060(4) -0.26722(6) 0.46108(3)
Co1 Co 0.5000 -0.32226(11) 0.2500
V1 V 0.60417(5) -0.19400(10) 0.59562(6)
V2 V 0.63156(5) 0.14415(9) 0.50934(5)
V3 V 0.49156(7) -0.15209(12) 0.35937(6)
O1 O 0.5344(5) -0.1046(8) 0.5017(5)
O2 O 0.4519(5) -0.0806(8) 0.4664(4)
O3 O 0.5425(5) 0.0198(8) 0.4725(4)
O4 O 0.4630(5) 0.0312(8) 0.4357(4)
O5 O 0.5424(4) -0.2771(10) 0.5356(3)
O6 O 0.6382(4) -0.1755(10) 0.5411(4)
O7 O 0.5760(4) 0.1499(6) 0.4258(4)
O8 O 0.3415(4) -0.1099(7) 0.4093(4)
O9 O 0.4519(4) 0.1750(6) 0.3713(5)
O10 O 0.6511(4) 0.0051(6) 0.4965(4)
O11 O 0.5129(4) 0.1126(7) 0.3100(3)
O12 O 0.3562(4) 0.0695(6) 0.3633(5)
O13 O 0.3195(4) -0.1032(8) 0.2946(3)
O14 O 0.4175(5) -0.2512(7) 0.4795(4)
O15 O 0.5435(3) -0.2171(7) 0.4338(3)
O16 O 0.6895(3) 0.2092(7) 0.5131(4)
O17 O 0.6646(4) -0.1751(6) 0.4489(4)
O18 O 0.4426(3) -0.0267(6) 0.3405(4)
O19 O 0.4724(5) -0.3887(6) 0.4374(4)
O20 O 0.5574(3) -0.0503(5) 0.3916(3)
O21 O 0.4883(4) -0.2110(5) 0.3008(3)
O22 O 0.6496(3) -0.2786(6) 0.6387(3)
O23 O 0.4292(3) -0.1930(6) 0.3825(3)
N1 N 0.5973(3) -0.3367(6) 0.3021(3)
N2 N 0.5047(4) -0.4390(6) 0.3101(3)
C1 C 0.6418(5) -0.2887(9) 0.2968(5)
H1 H 0.6319 -0.2351 0.2696
C2 C 0.7049(6) -0.3156(15) 0.3312(7)
H2 H 0.7359 -0.2786 0.3276
C3 C 0.7197(6) -0.3964(13) 0.3698(7)
H3 H 0.7607 -0.4183 0.3900
C4 C 0.6755(5) -0.4446(10) 0.3789(6)
C5 C 0.6871(7) -0.5257(13) 0.4193(7)
H4 H 0.7280 -0.5439 0.4442
C6 C 0.6404(8) -0.5785(13) 0.4232(7)
H5 H 0.6498 -0.6336 0.4493
C7 C 0.5772(6) -0.5501(9) 0.3875(5)
C8 C 0.5277(7) -0.5984(9) 0.3911(6)
H6 H 0.5350 -0.6513 0.4182
C9 C 0.4685(6) -0.5686(9) 0.3551(6)
H7 H 0.4351 -0.6003 0.3574
C10 C 0.4587(5) -0.4887(8) 0.3142(5)
H8 H 0.4181 -0.4697 0.2889
C11 C 0.6123(5) -0.4145(8) 0.3422(4)
C12 C 0.5637(4) -0.4683(7) 0.3471(4)
Mo1D Mo 0.49129(4) -0.08581(6) 0.62848(3)
Mo2D Mo 0.38346(4) 0.11755(7) 0.53040(3)
Mo3D Mo 0.62716(3) 0.06573(6) 0.63900(3)
Mo4D Mo 0.51940(4) 0.26722(6) 0.53892(3)
Co1D Co 0.5000 0.32226(11) 0.7500
V1D V 0.39583(5) 0.19400(10) 0.40438(6)
V2D V 0.36844(5) -0.14415(9) 0.49066(5)
V3D V 0.50844(7) 0.15209(12) 0.64063(6)
O1D O 0.4656(5) 0.1046(8) 0.4983(5)
O2D O 0.5481(5) 0.0806(8) 0.5336(4)
O3D O 0.4575(5) -0.0198(8) 0.5275(4)
O4D O 0.5370(5) -0.0312(8) 0.5643(4)
O5D O 0.4576(4) 0.2771(10) 0.4644(3)
O6D O 0.3618(4) 0.1755(10) 0.4589(4)
O7D O 0.4240(4) -0.1499(6) 0.5742(4)
O8D O 0.6585(4) 0.1099(7) 0.5907(4)
O9D O 0.5481(4) -0.1750(6) 0.6287(5)
O10D O 0.3489(4) -0.0051(6) 0.5035(4)
O11D O 0.4871(4) -0.1126(7) 0.6900(3)
O12D O 0.6438(4) -0.0695(6) 0.6367(5)
O13D O 0.6805(4) 0.1032(8) 0.7054(3)
O14D O 0.5825(5) 0.2512(7) 0.5205(4)
O15D O 0.4565(3) 0.2171(7) 0.5662(3)
O16D O 0.3105(3) -0.2092(7) 0.4869(4)
O17D O 0.3354(4) 0.1751(6) 0.5511(4)
O18D O 0.5574(3) 0.0267(6) 0.6595(4)
O19D O 0.5276(5) 0.3887(6) 0.5626(4)
O20D O 0.4426(3) 0.0503(5) 0.6084(3)
O21D O 0.5117(4) 0.2110(5) 0.6992(3)
O21A O 0.5117(4) -0.2110(5) 0.1992(3)
O22D O 0.3504(3) 0.2786(6) 0.3613(3)
O23D O 0.5708(3) 0.1930(6) 0.6175(3)
N1A N 0.4027(3) -0.3367(6) 0.1979(3)
N2A N 0.4953(4) -0.4390(6) 0.1899(3)
C1A C 0.3582(5) -0.2887(9) 0.2032(5)
H1A H 0.3681 -0.2351 0.2304
C2A C 0.2951(6) -0.3156(15) 0.1688(7)
H2A H 0.2641 -0.2786 0.1724
C3A C 0.2803(6) -0.3964(13) 0.1302(7)
H3A H 0.2393 -0.4183 0.1100
C4A C 0.3245(5) -0.4446(10) 0.1211(6)
C5A C 0.3129(7) -0.5257(13) 0.0807(7)
H4A H 0.2720 -0.5439 0.0558
C6A C 0.3596(8) -0.5785(13) 0.0768(7)
H5A H 0.3502 -0.6336 0.0507
C7A C 0.4228(6) -0.5501(9) 0.1125(5)
C8A C 0.4723(7) -0.5984(9) 0.1089(6)
H6A H 0.4650 -0.6513 0.0818
C9A C 0.5315(6) -0.5686(9) 0.1449(6)
H7A H 0.5649 -0.6003 0.1426
C10A C 0.5413(5) -0.4887(8) 0.1858(5)
H8A H 0.5819 -0.4697 0.2111
C11A C 0.3877(5) -0.4145(8) 0.1578(4)
C12A C 0.4363(4) -0.4683(7) 0.1529(4)
loop_
_geom_bond_atom_site_label_1
_geom_bond_atom_site_label_2
_geom_bond_site_symmetry_1
_geom_bond_site_symmetry_2
P1 O1 1_555 1_555
Mo1 O3 1_555 1_555
Mo2 O1 1_555 1_555
Mo3 O4 1_555 1_555
Mo4 O1 1_555 1_555
Co1 O21 1_555 1_555
V1 O5 1_555 1_555
V2 O7 1_555 1_555
V3 O15 1_555 1_555
O1 O2 1_555 1_555
O2 P1 1_555 1_555
O3 P1 1_555 1_555
O4 P1 1_555 1_555
O5 Mo4 1_555 1_555
O6 Mo2 1_555 1_555
O7 Mo1 1_555 1_555
O8 Mo3 1_555 1_555
O9 Mo1 1_555 1_555
O10 Mo2 1_555 1_555
O11 Mo1 1_555 1_555
O12 Mo3 1_555 1_555
O13 Mo3 1_555 1_555
O14 Mo4 1_555 1_555
O15 Mo2 1_555 1_555
O16 V2 1_555 1_555
O17 Mo2 1_555 1_555
O18 Mo1 1_555 1_555
O19 Mo4 1_555 1_555
O20 Mo1 1_555 1_555
O21 V3 1_555 1_555
O22 V1 1_555 1_555
O23 Mo3 1_555 1_555
N1 Co1 1_555 1_555
N2 Co1 1_555 1_555
C1 N1 1_555 1_555
H1 C1 1_555 1_555
C2 C1 1_555 1_555
H2 C2 1_555 1_555
C3 C2 1_555 1_555
H3 C3 1_555 1_555
C4 C3 1_555 1_555
C5 C4 1_555 1_555
H4 C5 1_555 1_555
C6 C5 1_555 1_555
H5 C6 1_555 1_555
C7 C6 1_555 1_555
C8 C7 1_555 1_555
H6 C8 1_555 1_555
C9 C8 1_555 1_555
H7 C9 1_555 1_555
C10 N2 1_555 1_555
H8 C10 1_555 1_555
C11 N1 1_555 1_555
C12 N2 1_555 1_555
C13 C14 1_555 1_555
C14 C15 1_555 1_555
C15 N3 1_555 1_555
N3 C16 1_555 1_555
C16 C17 1_555 1_555
C17 C13 1_555 1_555
Mo1D O3D 1_555 1_555
Mo2D O1D 1_555 1_555
Mo3D O4D 1_555 1_555
Mo4D O1D 1_555 1_555
Co1D O21D 1_555 1_555
V1D O9 1_555 1_555
V2D O8 1_555 1_555
V3D O15D 1_555 1_555
O1D P1 1_555 1_555
O2D P1 1_555 1_555
O3D P1 1_555 1_555
O4D P1 1_555 1_555
O5D Mo4D 1_555 1_555
O6D Mo2D 1_555 1_555
O7D Mo1D 1_555 1_555
O8D V2 1_555 1_555
O9D V1 1_555 1_555
O10D Mo2D 1_555 1_555
O11D Mo1D 1_555 1_555
O12D V1 1_555 1_555
O13D Mo3D 1_555 1_555
O14D V2 1_555 1_555
O15D Mo2D 1_555 1_555
O16D V2D 1_555 1_555
O17D Mo2D 1_555 1_555
O18D Mo1D 1_555 1_555
O19D Mo4D 1_555 1_555
O20D Mo1D 1_555 1_555
O21D V3D 1_555 1_555
O21A Co1 1_555 1_555
O22D V1D 1_555 1_555
O23D Mo3D 1_555 1_555
N1A Co1 1_555 1_555
N2A Co1 1_555 1_555
C1A N1A 1_555 1_555
H1A C1A 1_555 1_555
C2A C1A 1_555 1_555
H2A C2A 1_555 1_555
C3A C2A 1_555 1_555
H3A C3A 1_555 1_555
C4A C3A 1_555 1_555
C5A C4A 1_555 1_555
H4A C5A 1_555 1_555
C6A C5A 1_555 1_555
H5A C6A 1_555 1_555
C7A C6A 1_555 1_555
C8A C7A 1_555 1_555
H6A C8A 1_555 1_555
C9A C8A 1_555 1_555
H7A C9A 1_555 1_555
C10A N2A 1_555 1_555
H8A C10A 1_555 1_555
C11A N1A 1_555 1_555
C12A N2A 1_555 1_555
Mo1 O4 1_555 1_555
Mo2 O20 1_555 1_555
Mo3 O18 1_555 1_555
Mo4 O15 1_555 1_555
Mo4 O23 1_555 1_555
V1 O6 1_555 1_555
V2 O10 1_555 1_555
V3 O18 1_555 1_555
V3 O20 1_555 1_555
V3 O23 1_555 1_555
O1 O3 1_555 1_555
O1 O4D 1_555 1_555
O2 O4 1_555 1_555
O2 O3D 1_555 1_555
O3 O4 1_555 1_555
O3 O2D 1_555 1_555
O4 O1D 1_555 1_555
O12 V1D 1_555 1_555
O14 V2D 1_555 1_555
C4 C11 1_555 1_555
C7 C12 1_555 1_555
C9 C10 1_555 1_555
C11 C12 1_555 1_555
Mo1D O4D 1_555 1_555
Mo1D O9D 1_555 1_555
Mo2D O20D 1_555 1_555
Mo3D O8D 1_555 1_555
Mo3D O12D 1_555 1_555
Mo3D O18D 1_555 1_555
Mo4D O14D 1_555 1_555
Mo4D O15D 1_555 1_555
Mo4D O23D 1_555 1_555
V1D O5D 1_555 1_555
V1D O6D 1_555 1_555
V2D O7D 1_555 1_555
V2D O10D 1_555 1_555
V3D O18D 1_555 1_555
V3D O20D 1_555 1_555
V3D O23D 1_555 1_555
O1D O2D 1_555 1_555
O1D O3D 1_555 1_555
O2D O4D 1_555 1_555
O3D O4D 1_555 1_555
C4A C11A 1_555 1_555
C7A C12A 1_555 1_555
C9A C10A 1_555 1_555
C11A C12A 1_555 1_555

#END
