
#######################################################################
#
#                 Cambridge Crystallographic Data Centre
#                                CCDC 
#
#######################################################################
#
# If this CIF has been generated from an entry in the Cambridge 
# Structural Database, then it will include bibliographic, chemical, 
# crystal, experimental, refinement or atomic coordinate data resulting 
# from the CCDC's data processing and validation procedures.
#
#######################################################################

data_CUXCOO
_symmetry_cell_setting           monoclinic
_symmetry_space_group_name_H-M   'C 2/c'
_symmetry_Int_Tables_number      15
_space_group_name_Hall           '-C 2yn'
loop_
_symmetry_equiv_pos_site_id
_symmetry_equiv_pos_as_xyz
1 x,y,z
2 1/2+x,1/2+y,z
3 -x,y,1/2-z
4 1/2-x,1/2+y,1/2-z
5 -x,-y,-z
6 1/2-x,1/2-y,-z
7 x,-y,1/2+z
8 1/2+x,1/2-y,1/2+z
_cell_length_a                   26.0368(8)
_cell_length_b                   15.0774(5)
_cell_length_c                   8.0056(3)
_cell_angle_alpha                90
_cell_angle_beta                 107.238(2)
_cell_angle_gamma                90
_cell_volume                     3001.57
loop_
_atom_site_label
_atom_site_type_symbol
_atom_site_fract_x
_atom_site_fract_y
_atom_site_fract_z
Br1 Br 0.5000 -0.101417(17) 0.7500
Zn1 Zn 0.289338(7) 0.691701(11) 0.11368(2)
O1 O 0.25042(5) 0.60200(8) -0.06998(17)
O2 O 0.18770(6) 0.69043(8) -0.23785(17)
O3 O 0.33299(5) 0.72875(8) -0.05143(16)
O4 O 0.27130(5) 0.81647(10) -0.22588(17)
N1 N 0.34372(5) 0.61203(8) 0.28121(16)
N2 N 0.5000 0.49359(11) 0.7500
C1 C 0.5000 0.02425(15) 0.7500
C2 C 0.45148(7) 0.06928(11) 0.6945(2)
C3 C 0.45173(6) 0.16161(11) 0.6946(2)
C4 C 0.5000 0.20894(13) 0.7500
C5 C 0.5000 0.30726(14) 0.7500
C6 C 0.45993(5) 0.35534(9) 0.62891(18)
C7 C 0.46123(5) 0.44811(9) 0.63431(17)
C8 C 0.41979(5) 0.50373(9) 0.51092(17)
C9 C 0.37475(5) 0.46757(10) 0.38896(19)
C10 C 0.33810(6) 0.52361(10) 0.27738(19)
C11 C 0.38664(6) 0.64726(10) 0.40047(19)
C12 C 0.42491(6) 0.59606(10) 0.51654(18)
C13 C 0.21033(6) 0.61657(10) -0.19924(19)
C14 C 0.18779(8) 0.53998(11) -0.3196(2)
C15 C 0.31619(6) 0.77947(10) -0.1809(2)
C16 C 0.35441(8) 0.79757(15) -0.2878(3)
H1 H 0.4197 0.0374 0.6565
H2 H 0.4195 0.1925 0.6561
H3 H 0.4326 0.3261 0.5469
H4 H 0.3693 0.4069 0.3821
H5 H 0.3088 0.4993 0.1956
H6 H 0.3900 0.7085 0.4033
H7 H 0.4541 0.6240 0.5990
H8 H 0.1492 0.5458 -0.3615
H9 H 0.2019 0.5422 -0.4163
H10 H 0.1978 0.4855 -0.2587
H11 H 0.3342 0.7957 -0.4051
H12 H 0.3686 0.8542 -0.2573
H13 H 0.3814 0.7544 -0.2626
Zn1E Zn 0.210662(7) 0.808299(11) -0.11368(2)
Zn1B Zn 0.710662(7) 0.691701(11) 1.38632(2)
O1E O 0.24958(5) 0.89800(8) 0.06998(17)
O2E O 0.31230(6) 0.80957(8) 0.23785(17)
O3E O 0.16701(5) 0.77125(8) 0.05143(16)
O4E O 0.22870(5) 0.68353(10) 0.22588(17)
N1B N 0.65628(5) 0.61203(8) 1.21879(16)
N1E N 0.15628(5) 0.88797(8) -0.28121(16)
C2B C 0.54852(7) 0.06928(11) 0.8055(2)
C3B C 0.54827(6) 0.16161(11) 0.8054(2)
C6B C 0.54007(5) 0.35534(9) 0.87109(18)
C7B C 0.53877(5) 0.44811(9) 0.86569(17)
C8B C 0.58021(5) 0.50373(9) 0.98908(17)
C9B C 0.62525(5) 0.46757(10) 1.11104(19)
C10B C 0.66190(6) 0.52361(10) 1.22262(19)
C11B C 0.61336(6) 0.64726(10) 1.09953(19)
C12B C 0.57509(6) 0.59606(10) 0.98346(18)
C13E C 0.28967(6) 0.88343(10) 0.19924(19)
C14E C 0.31221(8) 0.96002(11) 0.3196(2)
C15E C 0.18381(6) 0.72053(10) 0.1809(2)
C16E C 0.14559(8) 0.70243(15) 0.2878(3)
H1B H 0.5803 0.0374 0.8435
H2B H 0.5805 0.1925 0.8439
H3B H 0.5674 0.3261 0.9531
H4B H 0.6307 0.4069 1.1179
H5B H 0.6912 0.4993 1.3044
H6B H 0.6100 0.7085 1.0967
H7B H 0.5459 0.6240 0.9010
H8E H 0.3508 0.9542 0.3615
H9E H 0.2981 0.9578 0.4163
H10E H 0.3022 1.0145 0.2587
H11E H 0.1658 0.7043 0.4051
H12E H 0.1314 0.6458 0.2573
H13E H 0.1186 0.7456 0.2626
loop_
_geom_bond_atom_site_label_1
_geom_bond_atom_site_label_2
_geom_bond_site_symmetry_1
_geom_bond_site_symmetry_2
Br1 C1 1_555 1_555
Zn1 O1 1_555 1_555
O1 C13 1_555 1_555
O2 C13 1_555 1_555
O3 Zn1 1_555 1_555
O4 C15 1_555 1_555
N1 Zn1 1_555 1_555
N2 C7 1_555 1_555
C1 C2 1_555 1_555
C2 C3 1_555 1_555
C3 C4 1_555 1_555
C4 C5 1_555 1_555
C5 C6 1_555 1_555
C6 C7 1_555 1_555
C7 C8 1_555 1_555
C8 C9 1_555 1_555
C9 C10 1_555 1_555
C10 N1 1_555 1_555
C11 N1 1_555 1_555
C12 C8 1_555 1_555
C13 C14 1_555 1_555
C14 H8 1_555 1_555
C15 O3 1_555 1_555
C16 C15 1_555 1_555
H1 C2 1_555 1_555
H2 C3 1_555 1_555
H3 C6 1_555 1_555
H4 C9 1_555 1_555
H5 C10 1_555 1_555
H6 C11 1_555 1_555
H7 C12 1_555 1_555
H9 C14 1_555 1_555
H10 C14 1_555 1_555
H11 C16 1_555 1_555
H12 C16 1_555 1_555
H13 C16 1_555 1_555
Zn1E O2 1_555 1_555
Zn1B N1B 1_555 1_555
O1E Zn1E 1_555 1_555
O2E Zn1 1_555 1_555
O3E Zn1E 1_555 1_555
O4E Zn1 1_555 1_555
N1B C10B 1_555 1_555
N1E Zn1E 1_555 1_555
C2B C1 1_555 1_555
C3B C4 1_555 1_555
C6B C5 1_555 1_555
C7B N2 1_555 1_555
C8B C7B 1_555 1_555
C9B C8B 1_555 1_555
C10B C9B 1_555 1_555
C11B N1B 1_555 1_555
C12B C8B 1_555 1_555
C13E O1E 1_555 1_555
C14E C13E 1_555 1_555
C15E O3E 1_555 1_555
C16E C15E 1_555 1_555
H1B C2B 1_555 1_555
H2B C3B 1_555 1_555
H3B C6B 1_555 1_555
H4B C9B 1_555 1_555
H5B C10B 1_555 1_555
H6B C11B 1_555 1_555
H7B C12B 1_555 1_555
H8E C14E 1_555 1_555
H9E C14E 1_555 1_555
H10E C14E 1_555 1_555
H11E C16E 1_555 1_555
H12E C16E 1_555 1_555
H13E C16E 1_555 1_555
O4 Zn1E 1_555 1_555
C11 C12 1_555 1_555
O2E C13E 1_555 1_555
O4E C15E 1_555 1_555
C2B C3B 1_555 1_555
C6B C7B 1_555 1_555
C11B C12B 1_555 1_555

#END
