
#######################################################################
#
#                 Cambridge Crystallographic Data Centre
#                                CCDC 
#
#######################################################################
#
# If this CIF has been generated from an entry in the Cambridge 
# Structural Database, then it will include bibliographic, chemical, 
# crystal, experimental, refinement or atomic coordinate data resulting 
# from the CCDC's data processing and validation procedures.
#
#######################################################################

data_CUXCII
_symmetry_cell_setting           monoclinic
_symmetry_space_group_name_H-M   'P 21/c'
_symmetry_Int_Tables_number      14
_space_group_name_Hall           '-P 2ybc'
loop_
_symmetry_equiv_pos_site_id
_symmetry_equiv_pos_as_xyz
1 x,y,z
2 -x,1/2+y,1/2-z
3 -x,-y,-z
4 x,1/2-y,1/2+z
_cell_length_a                   26.2828(19)
_cell_length_b                   13.5030(9)
_cell_length_c                   21.8199(16)
_cell_angle_alpha                90
_cell_angle_beta                 106.818(4)
_cell_angle_gamma                90
_cell_volume                     7412.6
loop_
_atom_site_label
_atom_site_type_symbol
_atom_site_fract_x
_atom_site_fract_y
_atom_site_fract_z
O13 O 0.1046(2) 0.5212(4) 1.0080(3)
C76 C 0.0669(4) 0.5142(6) 1.0408(5)
H61 H 0.0914 0.4908 0.9721
H62 H 0.0815 0.5478 1.0812
H63 H 0.0614 0.4452 1.0499
H64 H 0.0338 0.5431 1.0185
O14 O 0.5715(5) 0.5107(7) 0.9941(9)
O15 O 0.6029(3) 0.5545(7) 1.1272(7)
O16 O 0.5762(4) 0.4141(9) 1.2165(8)
Mn1 Mn 0.0000 0.5000 0.5000
Mn2 Mn 0.026831(19) 0.43358(3) 0.68277(3)
Mn3 Mn 0.5000 0.5000 0.5000
Mn4 Mn 0.52604(2) 0.41243(4) 0.68240(4)
N1 N 0.07101(11) 0.40597(19) 0.49762(15)
N2 N 0.24852(10) 0.28060(18) 0.48928(13)
N3 N 0.42455(11) 0.4115(2) 0.48038(18)
N4 N 0.09412(10) 0.33369(18) 0.66965(14)
N5 N 0.26758(10) 0.19654(18) 0.65538(13)
N6 N 0.44957(12) 0.3189(2) 0.6628(2)
N7 N -0.40243(11) 0.5106(2) 0.68594(16)
N8 N -0.22875(9) 0.64745(18) 0.67593(13)
N9 N -0.04884(10) 0.52484(18) 0.67582(15)
O1 O 0.05037(11) 0.59731(19) 0.56987(14)
O2 O 0.06723(9) 0.56530(16) 0.67411(13)
O3 O -0.01339(9) 0.40360(16) 0.57404(13)
O4 O -0.02710(9) 0.30560(16) 0.64811(13)
O5 O 0.05292(10) 0.41624(17) 0.78190(13)
O6 O 0.08414(15) 0.4358(3) 0.88658(16)
O7 O 0.47335(13) 0.5882(2) 0.5669(2)
O8 O 0.47622(11) 0.5367(2) 0.6671(2)
O9 O 0.53206(12) 0.3895(2) 0.5752(2)
O10 O 0.56566(13) 0.2860(2) 0.6500(2)
O11 O 0.55554(13) 0.3988(3) 0.7828(2)
O12 O 0.5782(2) 0.4197(3) 0.8854(3)
C1 C 0.13205(12) 0.1711(2) 0.67026(16)
C2 C 0.09187(12) 0.2349(2) 0.67518(17)
C3 C 0.13780(12) 0.3703(2) 0.65835(17)
C4 C 0.18012(12) 0.3121(2) 0.65343(16)
C5 C 0.17792(11) 0.20953(19) 0.65975(15)
C6 C 0.22324(11) 0.1469(2) 0.65544(15)
C7 C 0.21989(11) 0.0438(2) 0.65135(15)
C8 C 0.26411(12) -0.01062(19) 0.64860(16)
C9 C 0.31055(12) 0.0409(2) 0.65008(16)
C10 C 0.31024(12) 0.1441(2) 0.65286(16)
C11 C 0.35843(11) 0.2030(2) 0.65466(17)
C12 C 0.40682(15) 0.1601(3) 0.6559(3)
C13 C 0.45015(15) 0.2205(3) 0.6599(3)
C14 C 0.40284(14) 0.3585(3) 0.6608(3)
C15 C 0.35739(14) 0.3047(2) 0.6566(2)
C16 C 0.26244(12) -0.12029(19) 0.64585(16)
C17 C 0.21653(13) -0.1709(2) 0.61334(18)
C18 C 0.21480(14) -0.2731(2) 0.61196(18)
C19 C 0.25922(15) -0.3251(2) 0.64464(19)
C20 C 0.30598(14) -0.2783(2) 0.67761(19)
C21 C 0.30767(13) -0.1753(2) 0.67725(17)
C22 C 0.06484(12) 0.6213(2) 0.62746(18)
C23 C 0.08076(18) 0.7287(3) 0.6427(2)
C24 C -0.03530(12) 0.3276(2) 0.5902(2)
C25 C -0.07065(19) 0.2631(3) 0.5397(2)
C26 C 0.05338(16) 0.4582(3) 0.8338(2)
C27 C 0.0115(3) 0.5359(6) 0.8357(4)
C28 C 0.11044(12) 0.2462(2) 0.49406(18)
C29 C 0.06848(12) 0.3069(2) 0.49630(18)
C30 C 0.11750(14) 0.4466(2) 0.49732(19)
C31 C 0.16152(13) 0.3918(2) 0.49523(17)
C32 C 0.15852(12) 0.2885(2) 0.49334(16)
C33 C 0.20525(12) 0.2287(2) 0.49012(15)
C34 C 0.20370(12) 0.1253(2) 0.48779(16)
C35 C 0.24823(12) 0.0733(2) 0.48368(16)
C36 C 0.29280(12) 0.1278(2) 0.48222(16)
C37 C 0.29150(11) 0.2306(2) 0.48506(16)
C38 C 0.33807(12) 0.2917(2) 0.48304(17)
C39 C 0.38433(14) 0.2518(3) 0.4767(2)
C40 C 0.42606(16) 0.3129(3) 0.4753(3)
C41 C 0.37942(14) 0.4500(3) 0.4837(2)
C42 C 0.33562(13) 0.3941(2) 0.4862(2)
C43 C 0.24827(12) -0.0367(2) 0.47943(16)
C44 C 0.20249(14) -0.0877(2) 0.44682(17)
C45 C 0.20301(15) -0.1903(2) 0.44213(19)
C46 C 0.24922(16) -0.2412(2) 0.47091(18)
C47 C 0.29493(15) -0.1926(3) 0.50377(18)
C48 C 0.29465(14) -0.0901(2) 0.50753(18)
C49 C 0.45776(15) 0.5837(3) 0.6181(3)
C50 C 0.4106(2) 0.6491(4) 0.6141(3)
C51 C 0.55978(15) 0.3125(3) 0.5931(3)
C52 C 0.5852(3) 0.2546(5) 0.5539(4)
C53 C 0.5463(2) 0.3872(4) 0.8312(4)
C54 C 0.4969(3) 0.3334(5) 0.8315(5)
C55 C -0.31333(12) 0.5318(2) 0.68168(18)
C56 C -0.35585(13) 0.4733(2) 0.68380(19)
C57 C -0.40631(13) 0.6088(3) 0.6881(2)
C58 C -0.36524(12) 0.6731(2) 0.68638(19)
C59 C -0.31723(12) 0.6342(2) 0.68310(16)
C60 C -0.27175(11) 0.6973(2) 0.68083(15)
C61 C -0.27296(11) 0.8000(2) 0.68450(15)
C62 C -0.22879(11) 0.8551(2) 0.68126(15)
C63 C -0.18476(11) 0.8022(2) 0.67396(15)
C64 C -0.18606(11) 0.69932(19) 0.67286(15)
C65 C -0.13934(11) 0.63993(19) 0.67110(15)
C66 C -0.14028(12) 0.5370(2) 0.67343(17)
C67 C -0.09514(13) 0.4826(2) 0.67553(19)
C68 C -0.04838(12) 0.6239(2) 0.67230(19)
C69 C -0.09176(12) 0.6841(2) 0.66988(17)
C70 C -0.22738(12) 0.9643(2) 0.68702(15)
C71 C -0.17882(13) 1.0134(2) 0.71028(17)
C72 C -0.17662(14) 1.1153(2) 0.71767(18)
C73 C -0.22377(14) 1.1684(2) 0.70205(18)
C74 C -0.27207(15) 1.1225(2) 0.67814(18)
C75 C -0.27427(13) 1.0202(2) 0.67001(17)
Br1 Br 0.24971(2) -0.38158(3) 0.46625(2)
Br2 Br 0.257136(19) -0.46575(2) 0.64484(2)
Br3 Br -0.220530(17) 1.30814(2) 0.71208(2)
H1 H 0.1284 0.1029 0.6739
H2 H 0.0615 0.2078 0.6824
H3 H 0.1398 0.4388 0.6532
H4 H 0.2105 0.3408 0.6464
H5 H 0.1884 0.0124 0.6497
H6 H 0.3409 0.0068 0.6490
H7 H 0.4102 0.0918 0.6538
H8 H 0.4820 0.1903 0.6612
H9 H 0.4005 0.4272 0.6617
H10 H 0.3262 0.3372 0.6558
H11 H 0.1860 -0.1352 0.5920
H12 H 0.1839 -0.3059 0.5903
H13 H 0.3361 -0.3143 0.7000
H14 H 0.3392 -0.1433 0.6980
H15 H 0.0628 0.7563 0.6718
H16 H 0.0721 0.7669 0.6037
H17 H 0.1184 0.7324 0.6627
H18 H -0.0851 0.2106 0.5589
H19 H -0.0990 0.3006 0.5126
H20 H -0.0510 0.2348 0.5139
H21 H -0.0007 0.5227 0.8724
H22 H 0.0267 0.6006 0.8392
H23 H -0.0186 0.5325 0.7976
H24 H 0.1064 0.1772 0.4930
H25 H 0.0363 0.2772 0.4961
H26 H 0.1201 0.5149 0.4990
H27 H 0.1930 0.4237 0.4940
H28 H 0.1736 0.0908 0.4892
H29 H 0.3234 0.0955 0.4796
H30 H 0.3875 0.1838 0.4722
H31 H 0.4566 0.2842 0.4705
H32 H 0.3768 0.5189 0.4849
H33 H 0.3050 0.4248 0.4903
H34 H 0.1711 -0.0522 0.4277
H35 H 0.1726 -0.2234 0.4204
H36 H 0.3258 -0.2282 0.5240
H37 H 0.3259 -0.0560 0.5293
H38 H 0.4118 0.6718 0.6558
H39 H 0.4122 0.7055 0.5881
H40 H 0.3781 0.6138 0.5954
H41 H 0.5830 0.1858 0.5633
H42 H 0.6220 0.2729 0.5648
H43 H 0.5683 0.2676 0.5099
H44 H 0.4974 0.3170 0.8749
H45 H 0.4946 0.2733 0.8070
H46 H 0.4661 0.3746 0.8123
H47 H -0.2818 0.5009 0.6794
H48 H -0.3527 0.4052 0.6825
H49 H -0.4387 0.6365 0.6910
H50 H -0.3702 0.7424 0.6868
H51 H -0.3028 0.8318 0.6887
H52 H -0.1554 0.8361 0.6702
H53 H -0.1711 0.5037 0.6739
H54 H -0.0969 0.4143 0.6761
H55 H -0.0168 0.6551 0.6713
H56 H -0.0890 0.7524 0.6678
H57 H -0.1473 0.9774 0.7216
H58 H -0.1445 1.1473 0.7331
H59 H -0.3035 1.1590 0.6665
H60 H -0.3076 0.9893 0.6529
Mn2B Mn -0.026831(19) 0.56642(3) 0.31723(3)
Mn3_2 Mn -0.5000 0.5000 0.5000
Mn4B Mn -0.52604(2) 0.58757(4) 0.31760(4)
Mn4_2 Mn -0.47396(2) 0.41243(4) 0.68240(4)
Mn4B_2 Mn 0.47396(2) 0.58757(4) 0.31760(4)
N1B N -0.07101(11) 0.59403(19) 0.50238(15)
N2B N -0.24852(10) 0.71940(18) 0.51072(13)
N3B N -0.42455(11) 0.5885(2) 0.51962(18)
N3B_2 N 0.57545(11) 0.5885(2) 0.51962(18)
N4B N -0.09412(10) 0.66631(18) 0.33035(14)
N5B N -0.26758(10) 0.80346(18) 0.34462(13)
N6B N -0.44957(12) 0.6811(2) 0.3372(2)
N7B N 0.40243(11) 0.4894(2) 0.31406(16)
N7_2 N 0.59757(11) 0.5106(2) 0.68594(16)
N7B_2 N -0.59757(11) 0.4894(2) 0.31406(16)
N8B N 0.22875(9) 0.35255(18) 0.32407(13)
N9B N 0.04884(10) 0.47516(18) 0.32418(15)
O1B O -0.05037(11) 0.40269(19) 0.43013(14)
O2B O -0.06723(9) 0.43470(16) 0.32589(13)
O3B O 0.01339(9) 0.59640(16) 0.42596(13)
O4B O 0.02710(9) 0.69440(16) 0.35189(13)
O5B O -0.05292(10) 0.58376(17) 0.21810(13)
O6B O -0.08414(15) 0.5642(3) 0.11342(16)
O7B O 0.52665(13) 0.4118(2) 0.4331(2)
O8B O 0.52378(11) 0.4633(2) 0.3329(2)
O8B_2 O -0.47622(11) 0.4633(2) 0.3329(2)
O9B O 0.46794(12) 0.6105(2) 0.4248(2)
O9B_2 O -0.53206(12) 0.6105(2) 0.4248(2)
O10B O 0.43434(13) 0.7140(2) 0.3500(2)
O10B_2 O -0.56566(13) 0.7140(2) 0.3500(2)
O11B O -0.55554(13) 0.6012(3) 0.2172(2)
O12B O -0.5782(2) 0.5803(3) 0.1146(3)
C1B C -0.13205(12) 0.8289(2) 0.32974(16)
C2B C -0.09187(12) 0.7651(2) 0.32482(17)
C3B C -0.13780(12) 0.6297(2) 0.34165(17)
C4B C -0.18012(12) 0.6879(2) 0.34657(16)
C5B C -0.17792(11) 0.79047(19) 0.34025(15)
C6B C -0.22324(11) 0.8531(2) 0.34456(15)
C7B C -0.21989(11) 0.9562(2) 0.34865(15)
C8B C -0.26411(12) 1.01062(19) 0.35140(16)
C9B C -0.31055(12) 0.9591(2) 0.34992(16)
C10B C -0.31024(12) 0.8559(2) 0.34714(16)
C11B C -0.35843(11) 0.7970(2) 0.34534(17)
C12B C -0.40682(15) 0.8399(3) 0.3441(3)
C13B C -0.45015(15) 0.7795(3) 0.3401(3)
C14B C -0.40284(14) 0.6415(3) 0.3392(3)
C15B C -0.35739(14) 0.6953(2) 0.3434(2)
C16B C -0.26244(12) 1.12029(19) 0.35415(16)
C17B C -0.21653(13) 1.1709(2) 0.38666(18)
C18B C -0.21480(14) 1.2731(2) 0.38804(18)
C19B C -0.25922(15) 1.3251(2) 0.35536(19)
C20B C -0.30598(14) 1.2783(2) 0.32239(19)
C21B C -0.30767(13) 1.1753(2) 0.32275(17)
C22B C -0.06484(12) 0.3787(2) 0.37254(18)
C23B C -0.08076(18) 0.2713(3) 0.3573(2)
C24B C 0.03530(12) 0.6724(2) 0.4098(2)
C25B C 0.07065(19) 0.7369(3) 0.4603(2)
C26B C -0.05338(16) 0.5418(3) 0.1662(2)
C27B C -0.0115(3) 0.4641(6) 0.1643(4)
C28B C -0.11044(12) 0.7538(2) 0.50594(18)
C29B C -0.06848(12) 0.6931(2) 0.50370(18)
C30B C -0.11750(14) 0.5534(2) 0.50268(19)
C31B C -0.16152(13) 0.6082(2) 0.50477(17)
C32B C -0.15852(12) 0.7115(2) 0.50666(16)
C33B C -0.20525(12) 0.7713(2) 0.50988(15)
C34B C -0.20370(12) 0.8747(2) 0.51221(16)
C35B C -0.24823(12) 0.9267(2) 0.51632(16)
C36B C -0.29280(12) 0.8722(2) 0.51778(16)
C37B C -0.29150(11) 0.7694(2) 0.51494(16)
C38B C -0.33807(12) 0.7083(2) 0.51696(17)
C39B C -0.38433(14) 0.7482(3) 0.5233(2)
C40B C -0.42606(16) 0.6871(3) 0.5247(3)
C41B C -0.37942(14) 0.5500(3) 0.5163(2)
C42B C -0.33562(13) 0.6059(2) 0.5138(2)
C43B C -0.24827(12) 1.0367(2) 0.52057(16)
C44B C -0.20249(14) 1.0877(2) 0.55318(17)
C45B C -0.20301(15) 1.1903(2) 0.55787(19)
C46B C -0.24922(16) 1.2412(2) 0.52909(18)
C47B C -0.29493(15) 1.1926(3) 0.49623(18)
C48B C -0.29465(14) 1.0901(2) 0.49247(18)
C49B C 0.54224(15) 0.4163(3) 0.3819(3)
C50B C 0.5894(2) 0.3509(4) 0.3859(3)
C51B C 0.44022(15) 0.6875(3) 0.4069(3)
C52B C 0.4148(3) 0.7454(5) 0.4461(4)
C53B C -0.5463(2) 0.6128(4) 0.1688(4)
C54B C -0.4969(3) 0.6666(5) 0.1685(5)
C55B C 0.31333(12) 0.4682(2) 0.31832(18)
C56B C 0.35585(13) 0.5267(2) 0.31620(19)
C57B C 0.40631(13) 0.3912(3) 0.3119(2)
C58B C 0.36524(12) 0.3269(2) 0.31362(19)
C59B C 0.31723(12) 0.3658(2) 0.31690(16)
C60B C 0.27175(11) 0.3027(2) 0.31917(15)
C61B C 0.27296(11) 0.2000(2) 0.31550(15)
C62B C 0.22879(11) 0.1449(2) 0.31874(15)
C63B C 0.18476(11) 0.1978(2) 0.32604(15)
C64B C 0.18606(11) 0.30068(19) 0.32714(15)
C65B C 0.13934(11) 0.36007(19) 0.32890(15)
C66B C 0.14028(12) 0.4630(2) 0.32657(17)
C67B C 0.09514(13) 0.5174(2) 0.32447(19)
C68B C 0.04838(12) 0.3761(2) 0.32770(19)
C69B C 0.09176(12) 0.3159(2) 0.33012(17)
C70B C 0.22738(12) 0.0357(2) 0.31298(15)
C71B C 0.17882(13) -0.0134(2) 0.28972(17)
C72B C 0.17662(14) -0.1153(2) 0.28233(18)
C73B C 0.22377(14) -0.1684(2) 0.29795(18)
C74B C 0.27207(15) -0.1225(2) 0.32186(18)
C75B C 0.27427(13) -0.0202(2) 0.32999(17)
Br1B Br -0.24971(2) 1.38158(3) 0.53375(2)
Br2B Br -0.257136(19) 1.46575(2) 0.35516(2)
Br3B Br 0.220530(17) -0.30814(2) 0.28792(2)
H1B H -0.1284 0.8971 0.3261
H2B H -0.0615 0.7922 0.3176
H3B H -0.1398 0.5612 0.3468
H4B H -0.2105 0.6592 0.3536
H5B H -0.1884 0.9876 0.3503
H6B H -0.3409 0.9932 0.3510
H7B H -0.4102 0.9082 0.3462
H8B H -0.4820 0.8097 0.3388
H9B H -0.4005 0.5728 0.3383
H10B H -0.3262 0.6628 0.3442
H11B H -0.1860 1.1352 0.4080
H12B H -0.1839 1.3059 0.4097
H13B H -0.3361 1.3143 0.3000
H14B H -0.3392 1.1433 0.3020
H15B H -0.0628 0.2437 0.3282
H16B H -0.0721 0.2331 0.3963
H17B H -0.1184 0.2676 0.3373
H18B H 0.0851 0.7894 0.4411
H19B H 0.0990 0.6994 0.4874
H20B H 0.0510 0.7652 0.4861
H21B H 0.0007 0.4773 0.1276
H22B H -0.0267 0.3994 0.1608
H23B H 0.0186 0.4675 0.2024
H24B H -0.1064 0.8228 0.5070
H25B H -0.0363 0.7228 0.5039
H26B H -0.1201 0.4851 0.5010
H27B H -0.1930 0.5763 0.5060
H28B H -0.1736 0.9092 0.5108
H29B H -0.3234 0.9045 0.5204
H30B H -0.3875 0.8162 0.5278
H31B H -0.4566 0.7158 0.5295
H32B H -0.3768 0.4811 0.5151
H33B H -0.3050 0.5752 0.5097
H34B H -0.1711 1.0522 0.5723
H35B H -0.1726 1.2234 0.5796
H36B H -0.3258 1.2282 0.4760
H37B H -0.3259 1.0560 0.4707
H38B H 0.5882 0.3282 0.3442
H39B H 0.5878 0.2945 0.4119
H40B H 0.6219 0.3862 0.4046
H41B H 0.4170 0.8142 0.4367
H42B H 0.3780 0.7271 0.4352
H43B H 0.4317 0.7324 0.4901
H44B H -0.4974 0.6830 0.1251
H45B H -0.4946 0.7267 0.1930
H46B H -0.4661 0.6254 0.1877
H47B H 0.2818 0.4991 0.3206
H48B H 0.3527 0.5948 0.3175
H49B H 0.4387 0.3635 0.3090
H50B H 0.3702 0.2576 0.3132
H51B H 0.3028 0.1682 0.3113
H52B H 0.1554 0.1639 0.3298
H53B H 0.1711 0.4963 0.3261
H54B H 0.0969 0.5857 0.3239
H55B H 0.0168 0.3449 0.3287
H56B H 0.0890 0.2476 0.3322
H57B H 0.1473 0.0226 0.2784
H58B H 0.1445 -0.1473 0.2669
H59B H 0.3035 -0.1590 0.3335
H60B H 0.3076 0.0107 0.3471
O17? O 0.0206(10) 0.4491(18) 0.9784(11)
C77? C 0.0417(8) 0.5667(6) 0.8213(7)
H65? H 0.0485 0.6063 0.8616
H66? H 0.0545 0.6001 0.7923
H67? H 0.0030 0.5674 0.8058
O18? O 0.5956(4) 0.4240(13) 1.1765(9)
loop_
_geom_bond_atom_site_label_1
_geom_bond_atom_site_label_2
_geom_bond_site_symmetry_1
_geom_bond_site_symmetry_2
Mn1 N1 1_555 1_555
Mn2 N4 1_555 1_555
Mn3 N3 1_555 1_555
Mn4 N6 1_555 1_555
N1 C29 1_555 1_555
N2 C33 1_555 1_555
N3 C40 1_555 1_555
N4 C2 1_555 1_555
N5 C6 1_555 1_555
N6 C13 1_555 1_555
N7 C56 1_555 1_555
N8 C60 1_555 1_555
N9 Mn2 1_555 1_555
O1 Mn1 1_555 1_555
O2 Mn2 1_555 1_555
O3 Mn1 1_555 1_555
O4 Mn2 1_555 1_555
O5 Mn2 1_555 1_555
O6 C26 1_555 1_555
O7 Mn3 1_555 1_555
O8 Mn4 1_555 1_555
O9 Mn3 1_555 1_555
O10 Mn4 1_555 1_555
O11 Mn4 1_555 1_555
O12 C53 1_555 1_555
O13 C76 1_555 1_555
C1 C2 1_555 1_555
C2 H2 1_555 1_555
C3 N4 1_555 1_555
C4 C3 1_555 1_555
C5 C1 1_555 1_555
C6 C5 1_555 1_555
C7 C6 1_555 1_555
C8 C7 1_555 1_555
C9 C8 1_555 1_555
C10 N5 1_555 1_555
C11 C10 1_555 1_555
C12 C11 1_555 1_555
C13 C12 1_555 1_555
C14 N6 1_555 1_555
C15 C11 1_555 1_555
C16 C8 1_555 1_555
C17 C16 1_555 1_555
C18 C17 1_555 1_555
C19 C18 1_555 1_555
C20 C19 1_555 1_555
C21 C16 1_555 1_555
C22 O1 1_555 1_555
C23 C22 1_555 1_555
C24 O3 1_555 1_555
C25 C24 1_555 1_555
C26 O5 1_555 1_555
C27 C26 1_555 1_555
C28 C29 1_555 1_555
C29 H25 1_555 1_555
C30 N1 1_555 1_555
C31 C30 1_555 1_555
C32 C28 1_555 1_555
C33 C32 1_555 1_555
C34 C33 1_555 1_555
C35 C34 1_555 1_555
C36 C35 1_555 1_555
C37 N2 1_555 1_555
C38 C37 1_555 1_555
C39 C38 1_555 1_555
C40 C39 1_555 1_555
C41 N3 1_555 1_555
C42 C38 1_555 1_555
C43 C35 1_555 1_555
C44 C43 1_555 1_555
C45 C44 1_555 1_555
C46 C45 1_555 1_555
C47 C46 1_555 1_555
C48 C43 1_555 1_555
C49 O7 1_555 1_555
C50 C49 1_555 1_555
C51 O9 1_555 1_555
C52 C51 1_555 1_555
C53 O11 1_555 1_555
C54 C53 1_555 1_555
C55 C56 1_555 1_555
C56 H48 1_555 1_555
C57 N7 1_555 1_555
C58 C57 1_555 1_555
C59 C55 1_555 1_555
C60 C59 1_555 1_555
C61 C60 1_555 1_555
C62 C61 1_555 1_555
C63 C62 1_555 1_555
C64 N8 1_555 1_555
C65 C64 1_555 1_555
C66 C65 1_555 1_555
C67 N9 1_555 1_555
C68 N9 1_555 1_555
C69 C65 1_555 1_555
C70 C62 1_555 1_555
C71 C70 1_555 1_555
C72 C71 1_555 1_555
C73 C72 1_555 1_555
C74 C73 1_555 1_555
C75 C70 1_555 1_555
C76 H62 1_555 1_555
Br1 C46 1_555 1_555
Br2 C19 1_555 1_555
Br3 C73 1_555 1_555
H1 C1 1_555 1_555
H3 C3 1_555 1_555
H4 C4 1_555 1_555
H5 C7 1_555 1_555
H6 C9 1_555 1_555
H7 C12 1_555 1_555
H8 C13 1_555 1_555
H9 C14 1_555 1_555
H10 C15 1_555 1_555
H11 C17 1_555 1_555
H12 C18 1_555 1_555
H13 C20 1_555 1_555
H14 C21 1_555 1_555
H15 C23 1_555 1_555
H16 C23 1_555 1_555
H17 C23 1_555 1_555
H18 C25 1_555 1_555
H19 C25 1_555 1_555
H20 C25 1_555 1_555
H21 C27 1_555 1_555
H22 C27 1_555 1_555
H23 C27 1_555 1_555
H24 C28 1_555 1_555
H26 C30 1_555 1_555
H27 C31 1_555 1_555
H28 C34 1_555 1_555
H29 C36 1_555 1_555
H30 C39 1_555 1_555
H31 C40 1_555 1_555
H32 C41 1_555 1_555
H33 C42 1_555 1_555
H34 C44 1_555 1_555
H35 C45 1_555 1_555
H36 C47 1_555 1_555
H37 C48 1_555 1_555
H38 C50 1_555 1_555
H39 C50 1_555 1_555
H40 C50 1_555 1_555
H41 C52 1_555 1_555
H42 C52 1_555 1_555
H43 C52 1_555 1_555
H44 C54 1_555 1_555
H45 C54 1_555 1_555
H46 C54 1_555 1_555
H47 C55 1_555 1_555
H49 C57 1_555 1_555
H50 C58 1_555 1_555
H51 C61 1_555 1_555
H52 C63 1_555 1_555
H53 C66 1_555 1_555
H54 C67 1_555 1_555
H55 C68 1_555 1_555
H56 C69 1_555 1_555
H57 C71 1_555 1_555
H58 C72 1_555 1_555
H59 C74 1_555 1_555
H60 C75 1_555 1_555
H61 O13 1_555 1_555
H63 C76 1_555 1_555
H64 C76 1_555 1_555
Mn2B N4B 1_555 1_555
Mn3_2 N3B 1_555 1_555
Mn4B N6B 1_555 1_555
Mn4_2 N7 1_555 1_555
Mn4B_2 N7B 1_555 1_555
N1B Mn1 1_555 1_555
N2B C33B 1_555 1_555
N3B C40B 1_555 1_555
N3B_2 Mn3 1_555 1_555
N4B C2B 1_555 1_555
N5B C6B 1_555 1_555
N6B C13B 1_555 1_555
N7B C56B 1_555 1_555
N7_2 Mn4 1_555 1_555
N7B_2 Mn4B 1_555 1_555
N8B C60B 1_555 1_555
N9B Mn2B 1_555 1_555
O1B Mn1 1_555 1_555
O2B Mn2B 1_555 1_555
O3B Mn1 1_555 1_555
O4B Mn2B 1_555 1_555
O5B Mn2B 1_555 1_555
O6B C26B 1_555 1_555
O7B Mn3 1_555 1_555
O8B Mn4B_2 1_555 1_555
O8B_2 Mn4B 1_555 1_555
O9B Mn3 1_555 1_555
O9B_2 Mn3_2 1_555 1_555
O10B Mn4B_2 1_555 1_555
O10B_2 Mn4B 1_555 1_555
O11B Mn4B 1_555 1_555
O12B C53B 1_555 1_555
C1B C2B 1_555 1_555
C2B H2B 1_555 1_555
C3B N4B 1_555 1_555
C4B C3B 1_555 1_555
C5B C1B 1_555 1_555
C6B C5B 1_555 1_555
C7B C6B 1_555 1_555
C8B C7B 1_555 1_555
C9B C8B 1_555 1_555
C10B N5B 1_555 1_555
C11B C10B 1_555 1_555
C12B C11B 1_555 1_555
C13B C12B 1_555 1_555
C14B N6B 1_555 1_555
C15B C11B 1_555 1_555
C16B C8B 1_555 1_555
C17B C16B 1_555 1_555
C18B C17B 1_555 1_555
C19B C18B 1_555 1_555
C20B C19B 1_555 1_555
C21B C16B 1_555 1_555
C22B O1B 1_555 1_555
C23B C22B 1_555 1_555
C24B O3B 1_555 1_555
C25B C24B 1_555 1_555
C26B O5B 1_555 1_555
C27B C26B 1_555 1_555
C28B C29B 1_555 1_555
C29B N1B 1_555 1_555
C30B N1B 1_555 1_555
C31B C30B 1_555 1_555
C32B C28B 1_555 1_555
C33B C32B 1_555 1_555
C34B C33B 1_555 1_555
C35B C34B 1_555 1_555
C36B C35B 1_555 1_555
C37B N2B 1_555 1_555
C38B C37B 1_555 1_555
C39B C38B 1_555 1_555
C40B C39B 1_555 1_555
C41B N3B 1_555 1_555
C42B C38B 1_555 1_555
C43B C35B 1_555 1_555
C44B C43B 1_555 1_555
C45B C44B 1_555 1_555
C46B C45B 1_555 1_555
C47B C46B 1_555 1_555
C48B C43B 1_555 1_555
C49B O7B 1_555 1_555
C50B C49B 1_555 1_555
C51B O9B 1_555 1_555
C52B C51B 1_555 1_555
C53B O11B 1_555 1_555
C54B C53B 1_555 1_555
C55B C56B 1_555 1_555
C56B H48B 1_555 1_555
C57B N7B 1_555 1_555
C58B C57B 1_555 1_555
C59B C55B 1_555 1_555
C60B C59B 1_555 1_555
C61B C60B 1_555 1_555
C62B C61B 1_555 1_555
C63B C62B 1_555 1_555
C64B N8B 1_555 1_555
C65B C64B 1_555 1_555
C66B C65B 1_555 1_555
C67B N9B 1_555 1_555
C68B N9B 1_555 1_555
C69B C65B 1_555 1_555
C70B C62B 1_555 1_555
C71B C70B 1_555 1_555
C72B C71B 1_555 1_555
C73B C72B 1_555 1_555
C74B C73B 1_555 1_555
C75B C70B 1_555 1_555
Br1B C46B 1_555 1_555
Br2B C19B 1_555 1_555
Br3B C73B 1_555 1_555
H1B C1B 1_555 1_555
H3B C3B 1_555 1_555
H4B C4B 1_555 1_555
H5B C7B 1_555 1_555
H6B C9B 1_555 1_555
H7B C12B 1_555 1_555
H8B C13B 1_555 1_555
H9B C14B 1_555 1_555
H10B C15B 1_555 1_555
H11B C17B 1_555 1_555
H12B C18B 1_555 1_555
H13B C20B 1_555 1_555
H14B C21B 1_555 1_555
H15B C23B 1_555 1_555
H16B C23B 1_555 1_555
H17B C23B 1_555 1_555
H18B C25B 1_555 1_555
H19B C25B 1_555 1_555
H20B C25B 1_555 1_555
H21B C27B 1_555 1_555
H22B C27B 1_555 1_555
H23B C27B 1_555 1_555
H24B C28B 1_555 1_555
H25B C29B 1_555 1_555
H26B C30B 1_555 1_555
H27B C31B 1_555 1_555
H28B C34B 1_555 1_555
H29B C36B 1_555 1_555
H30B C39B 1_555 1_555
H31B C40B 1_555 1_555
H32B C41B 1_555 1_555
H33B C42B 1_555 1_555
H34B C44B 1_555 1_555
H35B C45B 1_555 1_555
H36B C47B 1_555 1_555
H37B C48B 1_555 1_555
H38B C50B 1_555 1_555
H39B C50B 1_555 1_555
H40B C50B 1_555 1_555
H41B C52B 1_555 1_555
H42B C52B 1_555 1_555
H43B C52B 1_555 1_555
H44B C54B 1_555 1_555
H45B C54B 1_555 1_555
H46B C54B 1_555 1_555
H47B C55B 1_555 1_555
H49B C57B 1_555 1_555
H50B C58B 1_555 1_555
H51B C61B 1_555 1_555
H52B C63B 1_555 1_555
H53B C66B 1_555 1_555
H54B C67B 1_555 1_555
H55B C68B 1_555 1_555
H56B C69B 1_555 1_555
H57B C71B 1_555 1_555
H58B C72B 1_555 1_555
H59B C74B 1_555 1_555
H60B C75B 1_555 1_555
Mn2 O3 1_555 1_555
Mn4 O9 1_555 1_555
O2 C22 1_555 1_555
O4 C24 1_555 1_555
O8 C49 1_555 1_555
O10 C51 1_555 1_555
C4 C5 1_555 1_555
C9 C10 1_555 1_555
C14 C15 1_555 1_555
C20 C21 1_555 1_555
C31 C32 1_555 1_555
C36 C37 1_555 1_555
C41 C42 1_555 1_555
C47 C48 1_555 1_555
C58 C59 1_555 1_555
C63 C64 1_555 1_555
C66 C67 1_555 1_555
C68 C69 1_555 1_555
C74 C75 1_555 1_555
Mn2B O3B 1_555 1_555
Mn4B O9B_2 1_555 1_555
Mn4B_2 O9B 1_555 1_555
O2B C22B 1_555 1_555
O4B C24B 1_555 1_555
O8B C49B 1_555 1_555
O10B C51B 1_555 1_555
C4B C5B 1_555 1_555
C9B C10B 1_555 1_555
C14B C15B 1_555 1_555
C20B C21B 1_555 1_555
C31B C32B 1_555 1_555
C36B C37B 1_555 1_555
C41B C42B 1_555 1_555
C47B C48B 1_555 1_555
C58B C59B 1_555 1_555
C63B C64B 1_555 1_555
C66B C67B 1_555 1_555
C68B C69B 1_555 1_555
C74B C75B 1_555 1_555

#END
