
#######################################################################
#
#                 Cambridge Crystallographic Data Centre
#                                CCDC 
#
#######################################################################
#
# If this CIF has been generated from an entry in the Cambridge 
# Structural Database, then it will include bibliographic, chemical, 
# crystal, experimental, refinement or atomic coordinate data resulting 
# from the CCDC's data processing and validation procedures.
#
#######################################################################

data_CUXDOP
_symmetry_cell_setting           monoclinic
_symmetry_space_group_name_H-M   'P 21/n'
_symmetry_Int_Tables_number      14
_space_group_name_Hall           '-P 2yn'
loop_
_symmetry_equiv_pos_site_id
_symmetry_equiv_pos_as_xyz
1 x,y,z
2 1/2-x,1/2+y,1/2-z
3 -x,-y,-z
4 1/2+x,1/2-y,1/2+z
_cell_length_a                   8.1857(16)
_cell_length_b                   19.653(4)
_cell_length_c                   13.625(3)
_cell_angle_alpha                90
_cell_angle_beta                 100.45(3)
_cell_angle_gamma                90
_cell_volume                     2155.55
loop_
_atom_site_label
_atom_site_type_symbol
_atom_site_fract_x
_atom_site_fract_y
_atom_site_fract_z
Zn1 Zn 0.805527(19) 0.796728(8) 0.588827(11)
N1 N 0.93324(14) 0.71432(6) 0.54875(9)
N2 N 1.25564(14) 0.50036(6) 0.53821(9)
N3 N 1.55889(14) 0.33426(6) 0.78043(9)
C1 C 1.00993(18) 0.66956(7) 0.61619(10)
H1 H 1.0093 0.6775 0.6849
C2 C 1.08948(18) 0.61256(7) 0.58971(10)
H2 H 1.1410 0.5818 0.6397
C3 C 1.09465(16) 0.59985(7) 0.48981(10)
C4 C 1.01671(18) 0.64672(7) 0.41998(10)
H3 H 1.0180 0.6405 0.3510
C5 C 0.93763(19) 0.70230(7) 0.45200(11)
H4 H 0.8838 0.7335 0.4035
C6 C 1.17922(16) 0.53784(7) 0.46166(10)
C7 C 1.17577(17) 0.51986(7) 0.36239(10)
H5 H 1.1185 0.5475 0.3101
C8 C 1.25700(17) 0.46102(7) 0.34047(10)
C9 C 1.33931(17) 0.42288(7) 0.42115(10)
H6 H 1.3988 0.3830 0.4098
C10 C 1.33378(16) 0.44351(7) 0.51804(10)
C11 C 1.48995(19) 0.39574(8) 0.78533(11)
H7 H 1.4916 0.4156 0.8491
C12 C 1.4170(2) 0.43137(8) 0.70192(11)
H8 H 1.3690 0.4747 0.7089
C13 C 1.41317(16) 0.40416(7) 0.60748(10)
C14 C 1.48232(18) 0.33997(7) 0.60212(10)
H9 H 1.4810 0.3188 0.5393
C15 C 1.55307(19) 0.30738(7) 0.68961(11)
H10 H 1.6000 0.2636 0.6849
C16 C 1.25232(17) 0.43902(7) 0.23559(10)
C17 C 1.2051(2) 0.48416(8) 0.15639(11)
H11 H 1.1768 0.5297 0.1696
C18 C 1.1993(2) 0.46313(9) 0.05871(12)
H12 H 1.1664 0.4943 0.0055
C19 C 1.2408(2) 0.39727(9) 0.03795(12)
H13 H 1.2374 0.3831 -0.0291
C20 C 1.2875(2) 0.35217(9) 0.11577(13)
H14 H 1.3160 0.3067 0.1020
C21 C 1.2931(2) 0.37255(8) 0.21375(11)
H15 H 1.3250 0.3409 0.2665
C22 C 0.76168(19) 0.86979(7) 0.41056(11)
C23 C 0.7904(3) 0.93173(9) 0.35079(12)
H16 H 0.8418 0.9180 0.2943
H17 H 0.8641 0.9634 0.3933
H18 H 0.6839 0.9541 0.3259
O1 O 0.82756(15) 0.87240(5) 0.50331(8)
O2 O 0.68317(17) 0.82139(6) 0.36992(10)
C24 C 0.51203(18) 0.79444(7) 0.65394(11)
C25 C 0.3498(2) 0.76470(10) 0.66931(15)
H19 H 0.2888 0.7985 0.7013
H20 H 0.3709 0.7244 0.7120
H21 H 0.2838 0.7518 0.6046
O3 O 0.60270(13) 0.75412(5) 0.61196(8)
O4 O 0.55237(14) 0.85267(6) 0.68002(9)
Zn1A Zn 1.694473(19) 0.296728(8) 0.911173(11)
N3A N 0.94111(14) 0.83426(6) 0.71957(9)
loop_
_geom_bond_atom_site_label_1
_geom_bond_atom_site_label_2
_geom_bond_site_symmetry_1
_geom_bond_site_symmetry_2
Zn1 N1 1_555 1_555
N1 C1 1_555 1_555
N2 C6 1_555 1_555
N3 C11 1_555 1_555
C1 H1 1_555 1_555
C2 C1 1_555 1_555
H2 C2 1_555 1_555
C3 C2 1_555 1_555
C4 C3 1_555 1_555
H3 C4 1_555 1_555
C5 N1 1_555 1_555
H4 C5 1_555 1_555
C6 C3 1_555 1_555
C7 C6 1_555 1_555
H5 C7 1_555 1_555
C8 C7 1_555 1_555
C9 C8 1_555 1_555
H6 C9 1_555 1_555
C10 N2 1_555 1_555
C11 H7 1_555 1_555
C12 C11 1_555 1_555
H8 C12 1_555 1_555
C13 C10 1_555 1_555
C14 C13 1_555 1_555
H9 C14 1_555 1_555
C15 N3 1_555 1_555
H10 C15 1_555 1_555
C16 C8 1_555 1_555
C17 C16 1_555 1_555
H11 C17 1_555 1_555
C18 C17 1_555 1_555
H12 C18 1_555 1_555
C19 C18 1_555 1_555
H13 C19 1_555 1_555
C20 C19 1_555 1_555
H14 C20 1_555 1_555
C21 C16 1_555 1_555
H15 C21 1_555 1_555
C22 C23 1_555 1_555
C23 H16 1_555 1_555
H17 C23 1_555 1_555
H18 C23 1_555 1_555
O1 Zn1 1_555 1_555
O2 C22 1_555 1_555
C24 C25 1_555 1_555
C25 H19 1_555 1_555
H20 C25 1_555 1_555
H21 C25 1_555 1_555
O3 Zn1 1_555 1_555
O4 C24 1_555 1_555
Zn1A N3 1_555 1_555
N3A Zn1 1_555 1_555
C4 C5 1_555 1_555
C9 C10 1_555 1_555
C12 C13 1_555 1_555
C14 C15 1_555 1_555
C20 C21 1_555 1_555
C22 O1 1_555 1_555
C24 O3 1_555 1_555

#END
