
#######################################################################
#
#                 Cambridge Crystallographic Data Centre
#                                CCDC 
#
#######################################################################
#
# If this CIF has been generated from an entry in the Cambridge 
# Structural Database, then it will include bibliographic, chemical, 
# crystal, experimental, refinement or atomic coordinate data resulting 
# from the CCDC's data processing and validation procedures.
#
#######################################################################

data_CUXPOB
_symmetry_cell_setting           monoclinic
_symmetry_space_group_name_H-M   'P 21/c'
_symmetry_Int_Tables_number      14
_space_group_name_Hall           '-P 2ybc'
loop_
_symmetry_equiv_pos_site_id
_symmetry_equiv_pos_as_xyz
1 x,y,z
2 -x,1/2+y,1/2-z
3 -x,-y,-z
4 x,1/2-y,1/2+z
_cell_length_a                   17.106(3)
_cell_length_b                   12.758(3)
_cell_length_c                   6.8875(14)
_cell_angle_alpha                90
_cell_angle_beta                 93.57(3)
_cell_angle_gamma                90
_cell_volume                     1500.2
loop_
_atom_site_label
_atom_site_type_symbol
_atom_site_fract_x
_atom_site_fract_y
_atom_site_fract_z
Tb1 Tb 0.952966(12) 0.629006(15) 0.88706(3)
O1 O 0.8884(2) 0.6130(2) 0.5903(5)
O2 O 0.85133(19) 0.7544(2) 0.4193(5)
O3 O 0.1330(2) 0.4667(3) 0.9405(6)
O4 O 0.0851(2) 0.6188(3) 0.8228(7)
O5 O 0.99124(19) 0.7883(2) 0.7190(5)
O6 O 1.0274(2) 0.9508(2) 0.6854(5)
C1 C 0.8356(3) 0.6724(4) 0.5114(7)
C2 C 0.7521(3) 0.6460(3) 0.5352(7)
C3 C 0.7306(3) 0.5561(4) 0.6321(7)
H1 H 0.7685 0.5073 0.6730
C4 C 0.6528(3) 0.5389(4) 0.6683(8)
H2 H 0.6392 0.4776 0.7312
C5 C 0.5948(3) 0.6105(4) 0.6132(8)
C6 C 0.6169(3) 0.7003(4) 0.5122(8)
H3 H 0.5789 0.7490 0.4709
C7 C 0.6937(3) 0.7175(4) 0.4735(7)
H4 H 0.7070 0.7772 0.4056
C8 C 0.5145(3) 0.5914(4) 0.6678(8)
H5 H 0.5054 0.5264 0.7229
C9 C 0.4527(3) 0.6557(4) 0.6485(9)
H6 H 0.4601 0.7211 0.5928
C10 C 0.3740(3) 0.6308(4) 0.7085(8)
C11 C 0.3577(3) 0.5400(4) 0.8110(8)
H7 H 0.3983 0.4947 0.8499
C12 C 0.2824(3) 0.5161(4) 0.8556(8)
H8 H 0.2727 0.4543 0.9217
C13 C 0.2204(3) 0.5832(4) 0.8030(7)
C14 C 0.2361(3) 0.6747(4) 0.7048(9)
H9 H 0.1955 0.7210 0.6710
C15 C 0.3110(3) 0.6981(4) 0.6565(9)
H10 H 0.3201 0.7594 0.5884
C16 C 0.1413(3) 0.5547(4) 0.8590(8)
C17 C 1.0232(3) 0.8707(3) 0.7869(8)
H11 H 1.0440 0.8715 0.9149
Tb1C Tb 0.952966(12) 0.870994(15) 0.38706(3)
Tb1B Tb 0.047034(12) 0.370994(15) 1.11294(3)
Tb1_2 Tb -0.047034(12) 0.629006(15) 0.88706(3)
Tb1A Tb 1.047034(12) 1.129006(15) 0.61294(3)
O2C O 0.85133(19) 0.7456(2) 0.9193(5)
O3B O 0.8670(2) 0.5333(3) 1.0595(6)
O4_2 O 1.0851(2) 0.6188(3) 0.8228(7)
O5C O 0.99124(19) 0.7117(2) 1.2190(5)
O6A O 0.9726(2) 0.4508(2) 0.8146(5)
O6C O 1.0274(2) 0.5492(2) 1.1854(5)
loop_
_geom_bond_atom_site_label_1
_geom_bond_atom_site_label_2
_geom_bond_site_symmetry_1
_geom_bond_site_symmetry_2
Tb1 O1 1_555 1_555
O1 C1 1_555 1_555
O2 C1 1_555 1_555
O3 C16 1_555 1_555
O4 C16 1_555 1_555
O5 Tb1 1_555 1_555
O6 C17 1_555 1_555
C1 C2 1_555 1_555
C2 C3 1_555 1_555
C3 H1 1_555 1_555
C4 C3 1_555 1_555
H2 C4 1_555 1_555
C5 C4 1_555 1_555
C6 C5 1_555 1_555
H3 C6 1_555 1_555
C7 C2 1_555 1_555
H4 C7 1_555 1_555
C8 C5 1_555 1_555
H5 C8 1_555 1_555
C9 C8 1_555 1_555
H6 C9 1_555 1_555
C10 C9 1_555 1_555
C11 C10 1_555 1_555
H7 C11 1_555 1_555
C12 C11 1_555 1_555
H8 C12 1_555 1_555
C13 C12 1_555 1_555
C14 C13 1_555 1_555
H9 C14 1_555 1_555
C15 C10 1_555 1_555
H10 C15 1_555 1_555
C16 C13 1_555 1_555
C17 O5 1_555 1_555
H11 C17 1_555 1_555
Tb1C O2 1_555 1_555
Tb1B O3 1_555 1_555
Tb1_2 O4 1_555 1_555
Tb1A O6 1_555 1_555
O2C Tb1 1_555 1_555
O3B Tb1 1_555 1_555
O4_2 Tb1 1_555 1_555
O5C Tb1 1_555 1_555
O6A Tb1 1_555 1_555
O6C Tb1 1_555 1_555
O5 Tb1C 1_555 1_555
O6 Tb1C 1_555 1_555
C6 C7 1_555 1_555
C14 C15 1_555 1_555

#END
