
#######################################################################
#
#                 Cambridge Crystallographic Data Centre
#                                CCDC 
#
#######################################################################
#
# If this CIF has been generated from an entry in the Cambridge 
# Structural Database, then it will include bibliographic, chemical, 
# crystal, experimental, refinement or atomic coordinate data resulting 
# from the CCDC's data processing and validation procedures.
#
#######################################################################

data_CUXPAN
_symmetry_cell_setting           monoclinic
_symmetry_space_group_name_H-M   'P 21/c'
_symmetry_Int_Tables_number      14
_space_group_name_Hall           '-P 2ybc'
loop_
_symmetry_equiv_pos_site_id
_symmetry_equiv_pos_as_xyz
1 x,y,z
2 -x,1/2+y,1/2-z
3 -x,-y,-z
4 x,1/2-y,1/2+z
_cell_length_a                   17.142(3)
_cell_length_b                   12.882(3)
_cell_length_c                   6.9096(14)
_cell_angle_alpha                90
_cell_angle_beta                 93.74(3)
_cell_angle_gamma                90
_cell_volume                     1522.55
loop_
_atom_site_label
_atom_site_type_symbol
_atom_site_fract_x
_atom_site_fract_y
_atom_site_fract_z
Sm1 Sm 0.452018(7) 0.371296(9) 0.385562(18)
O1 O 0.38657(12) 0.38628(15) 0.0863(3)
O2 O 0.34904(11) 0.24555(15) -0.0838(3)
O3 O -0.41498(13) 0.38259(17) 0.3151(4)
O4 O -0.36678(12) 0.53205(16) 0.4379(4)
O5 O 0.49152(12) 0.21115(15) 0.2196(3)
O6 O 0.52874(13) 0.05074(15) 0.1874(3)
C1 C 0.33432(15) 0.3264(2) 0.0081(4)
C2 C 0.25056(16) 0.3522(2) 0.0340(4)
C3 C 0.19216(16) 0.2818(2) -0.0279(4)
H1 H 0.2053 0.2225 -0.0953
C4 C 0.11512(17) 0.2992(3) 0.0100(5)
H2 H 0.0769 0.2517 -0.0326
C5 C 0.09397(17) 0.3880(2) 0.1122(5)
C6 C 0.15244(18) 0.4596(2) 0.1667(5)
H3 H 0.1391 0.5204 0.2290
C7 C 0.22981(17) 0.4420(2) 0.1301(4)
H4 H 0.2679 0.4902 0.1698
C8 C 0.01399(18) 0.4078(3) 0.1672(5)
H5 H 0.0052 0.4723 0.2222
C9 C -0.04767(19) 0.3444(3) 0.1477(5)
H6 H -0.0402 0.2796 0.0929
C10 C -0.12644(18) 0.3693(2) 0.2063(5)
C11 C -0.18895(18) 0.3029(3) 0.1532(5)
H7 H -0.1798 0.2422 0.0853
C12 C -0.26465(18) 0.3265(3) 0.2006(5)
H8 H -0.3056 0.2817 0.1644
C13 C -0.27917(16) 0.4167(2) 0.3016(4)
C14 C -0.21744(17) 0.4830(2) 0.3556(5)
H9 H -0.2269 0.5438 0.4228
C15 C -0.14220(18) 0.4590(3) 0.3100(5)
H10 H -0.1014 0.5034 0.3492
C16 C -0.35972(16) 0.4461(2) 0.3554(5)
C17 C 0.52406(19) 0.1306(2) 0.2879(5)
H11 H 0.5450 0.1305 0.4155
Sm1C Sm 0.452018(7) 0.128704(9) -0.114438(18)
Sm1_2 Sm -0.547982(7) 0.371296(9) 0.385562(18)
Sm1B Sm -0.452018(7) 0.628704(9) 0.614438(18)
Sm1A Sm 0.547982(7) -0.128704(9) 0.114438(18)
O2C O 0.34904(11) 0.25445(15) 0.4162(3)
O3_2 O 0.58502(13) 0.38259(17) 0.3151(4)
O4B O 0.36678(12) 0.46795(16) 0.5621(4)
O5C O 0.49152(12) 0.28885(15) 0.7196(3)
O6A O 0.47126(13) 0.55074(15) 0.3126(3)
O6C O 0.52874(13) 0.44926(15) 0.6874(3)
loop_
_geom_bond_atom_site_label_1
_geom_bond_atom_site_label_2
_geom_bond_site_symmetry_1
_geom_bond_site_symmetry_2
Sm1 O1 1_555 1_555
O1 C1 1_555 1_555
O2 C1 1_555 1_555
O3 C16 1_555 1_555
O4 C16 1_555 1_555
O5 Sm1 1_555 1_555
O6 C17 1_555 1_555
C1 C2 1_555 1_555
C2 C3 1_555 1_555
C3 H1 1_555 1_555
C4 C3 1_555 1_555
H2 C4 1_555 1_555
C5 C4 1_555 1_555
C6 C5 1_555 1_555
H3 C6 1_555 1_555
C7 C2 1_555 1_555
H4 C7 1_555 1_555
C8 C5 1_555 1_555
H5 C8 1_555 1_555
C9 C8 1_555 1_555
H6 C9 1_555 1_555
C10 C9 1_555 1_555
C11 C10 1_555 1_555
H7 C11 1_555 1_555
C12 C11 1_555 1_555
H8 C12 1_555 1_555
C13 C12 1_555 1_555
C14 C13 1_555 1_555
H9 C14 1_555 1_555
C15 C10 1_555 1_555
H10 C15 1_555 1_555
C16 C13 1_555 1_555
C17 O5 1_555 1_555
H11 C17 1_555 1_555
Sm1C O2 1_555 1_555
Sm1_2 O3 1_555 1_555
Sm1B O4 1_555 1_555
Sm1A O6 1_555 1_555
O2C Sm1 1_555 1_555
O3_2 Sm1 1_555 1_555
O4B Sm1 1_555 1_555
O5C Sm1 1_555 1_555
O6A Sm1 1_555 1_555
O6C Sm1 1_555 1_555
O5 Sm1C 1_555 1_555
O6 Sm1C 1_555 1_555
C6 C7 1_555 1_555
C14 C15 1_555 1_555

#END
