
#######################################################################
#
#                 Cambridge Crystallographic Data Centre
#                                CCDC 
#
#######################################################################
#
# If this CIF has been generated from an entry in the Cambridge 
# Structural Database, then it will include bibliographic, chemical, 
# crystal, experimental, refinement or atomic coordinate data resulting 
# from the CCDC's data processing and validation procedures.
#
#######################################################################

data_CUXQIW
_symmetry_cell_setting           triclinic
_symmetry_space_group_name_H-M   'P -1'
_symmetry_Int_Tables_number      2
_space_group_name_Hall           '-P 1'
loop_
_symmetry_equiv_pos_site_id
_symmetry_equiv_pos_as_xyz
1 x,y,z
2 -x,-y,-z
_cell_length_a                   7.4342(15)
_cell_length_b                   8.7266(17)
_cell_length_c                   16.572(3)
_cell_angle_alpha                82.87(3)
_cell_angle_beta                 88.85(3)
_cell_angle_gamma                71.41(3)
_cell_volume                     1010.92
loop_
_atom_site_label
_atom_site_type_symbol
_atom_site_fract_x
_atom_site_fract_y
_atom_site_fract_z
Tb1 Tb 0.57430(3) 0.25573(2) 1.016565(11)
O1 O 0.2297(5) 0.3458(4) 1.0029(2)
H1 H 0.180(7) 0.416(5) 0.963(2)
H2 H 0.156(6) 0.358(7) 1.043(2)
O2 O 0.8153(5) -0.0186(4) 1.0194(3)
H3 H 0.915(6) -0.042(6) 1.049(3)
H4 H 0.794(8) -0.107(4) 1.013(4)
O3 O 0.7883(5) 0.2776(4) 0.9048(2)
O4 O 0.5459(5) 0.4994(4) 0.91572(19)
O5 O 0.5228(5) 0.8480(4) 0.08913(19)
O6 O 0.4745(5) 1.0989(4) 0.1191(2)
O7 O 0.8249(5) 0.2610(4) 1.08809(19)
O8 O 0.9615(5) 0.4358(4) 1.1247(2)
C1 C 0.6782(7) 0.4116(5) 0.8729(3)
C2 C 0.6851(6) 0.4625(5) 0.7841(3)
C3 C 0.5625(6) 0.6096(5) 0.7482(3)
H5 H 0.4827 0.6810 0.7807
C4 C 0.5571(7) 0.6520(5) 0.6645(3)
H6 H 0.4737 0.7514 0.6417
C5 C 0.6750(7) 0.5475(5) 0.6142(3)
C6 C 0.8009(7) 0.3998(6) 0.6514(3)
H7 H 0.8834 0.3290 0.6194
C7 C 0.8041(7) 0.3582(6) 0.7342(3)
H8 H 0.8871 0.2588 0.7573
C8 C 0.6731(7) 0.5880(6) 0.5254(3)
H9 H 0.7522 0.5100 0.4958
C9 C 0.5682(7) 0.7263(6) 0.4838(3)
H10 H 0.4923 0.8034 0.5148
C10 C 0.5556(7) 0.7743(6) 0.3953(3)
C11 C 0.4378(7) 0.9315(5) 0.3656(3)
H11 H 0.3681 0.9994 0.4021
C12 C 0.4233(6) 0.9870(5) 0.2839(3)
H12 H 0.3480 1.0929 0.2658
C13 C 0.5215(6) 0.8847(5) 0.2278(3)
C14 C 0.6377(7) 0.7275(5) 0.2564(3)
H13 H 0.7044 0.6584 0.2198
C15 C 0.6538(7) 0.6747(5) 0.3385(3)
H14 H 0.7322 0.5700 0.3566
C16 C 0.9926(7) 0.2199(6) 1.3676(3)
H15 H 1.0330 0.2643 1.4092
C17 C 0.5035(6) 0.9469(5) 0.1395(3)
C18 C 0.9021(6) 0.3160(5) 1.1403(3)
C19 C 0.9226(6) 0.2302(5) 1.2253(3)
C20 C 0.9797(6) 0.2962(5) 1.2888(3)
H16 H 1.0094 0.3925 1.2780
C21 C 0.9457(6) 0.0764(5) 1.3857(3)
C22 C 0.8871(6) 0.0134(5) 1.3214(3)
H17 H 0.8540 -0.0813 1.3320
C23 C 0.8770(6) 0.0885(5) 1.2425(3)
H18 H 0.8392 0.0432 1.2006
C24 C 0.9585(7) -0.0114(6) 1.4674(3)
H19 H 0.9018 -0.0929 1.4744
Tb1A Tb 0.42570(3) 0.74427(2) -0.016565(11)
Tb1_2 Tb 0.57430(3) 0.25573(2) 0.016565(11)
Tb1_3 Tb 0.57430(3) 1.25573(2) 0.016565(11)
Tb1A_2 Tb 0.42570(3) -0.25573(2) 0.983435(11)
Tb1A_3 Tb 0.42570(3) 0.74427(2) 0.983435(11)
Tb1A_4 Tb 1.42570(3) -0.25573(2) 1.983435(11)
O1A O 0.7703(5) 0.6542(4) -0.0029(2)
H1A H 0.820(7) 0.584(5) 0.037(2)
H2A H 0.844(6) 0.642(7) -0.043(2)
O2A O 0.1847(5) 1.0186(4) -0.0194(3)
H3A H 0.085(6) 1.042(6) -0.049(3)
H4A H 0.206(8) 1.107(4) -0.013(4)
O3A O 0.2117(5) 0.7224(4) 0.0952(2)
O4A O 0.4541(5) 0.5006(4) 0.08428(19)
O4_2 O 0.5459(5) 0.4994(4) -0.08428(19)
O4A_2 O 0.4541(5) 0.5006(4) 1.08428(19)
O5A O 0.4772(5) 0.1520(4) 0.91087(19)
O6A O 0.5255(5) -0.0989(4) 0.8809(2)
O6_2 O 0.4745(5) 0.0989(4) 1.1191(2)
O6A_2 O 0.5255(5) 0.9011(4) -0.1191(2)
O7A O 1.1751(5) -0.2610(4) 1.91191(19)
O7A_2 O 0.1751(5) 0.7390(4) -0.08809(19)
O8A O 1.0385(5) -0.4358(4) 1.8753(2)
C1A C 0.3218(7) 0.5884(5) 0.1271(3)
C2A C 0.3149(6) 0.5375(5) 0.2159(3)
C3A C 0.4375(6) 0.3904(5) 0.2518(3)
H5A H 0.5173 0.3190 0.2193
C4A C 0.4429(7) 0.3480(5) 0.3355(3)
H6A H 0.5263 0.2486 0.3583
C5A C 0.3250(7) 0.4525(5) 0.3858(3)
C6A C 0.1991(7) 0.6002(6) 0.3486(3)
H7A H 0.1166 0.6710 0.3806
C7A C 0.1959(7) 0.6418(6) 0.2658(3)
H8A H 0.1129 0.7412 0.2427
C8A C 0.3269(7) 0.4120(6) 0.4746(3)
H9A H 0.2478 0.4900 0.5042
C9A C 0.4318(7) 0.2737(6) 0.5162(3)
H10A H 0.5077 0.1966 0.4852
C10A C 0.4444(7) 0.2257(6) 0.6047(3)
C11A C 0.5622(7) 0.0685(5) 0.6344(3)
H11A H 0.6319 0.0006 0.5979
C12A C 0.5767(6) 0.0130(5) 0.7161(3)
H12A H 0.6520 -0.0929 0.7342
C13A C 0.4785(6) 0.1153(5) 0.7722(3)
C14A C 0.3623(7) 0.2725(5) 0.7436(3)
H13A H 0.2956 0.3416 0.7802
C15A C 0.3462(7) 0.3253(5) 0.6615(3)
H14A H 0.2678 0.4300 0.6434
C16A C 1.0074(7) -0.2199(6) 1.6324(3)
H15A H 0.9670 -0.2643 1.5908
C17A C 0.4965(6) 0.0531(5) 0.8605(3)
C18A C 1.0979(6) -0.3160(5) 1.8597(3)
C19A C 1.0774(6) -0.2302(5) 1.7747(3)
C20A C 1.0203(6) -0.2962(5) 1.7112(3)
H16A H 0.9906 -0.3925 1.7220
C21A C 1.0543(6) -0.0764(5) 1.6143(3)
C22A C 1.1129(6) -0.0134(5) 1.6786(3)
H17A H 1.1460 0.0813 1.6680
C23A C 1.1230(6) -0.0885(5) 1.7575(3)
H18A H 1.1608 -0.0432 1.7994
C24A C 1.0415(7) 0.0114(6) 1.5326(3)
H19A H 1.0982 0.0929 1.5256
loop_
_geom_bond_atom_site_label_1
_geom_bond_atom_site_label_2
_geom_bond_site_symmetry_1
_geom_bond_site_symmetry_2
Tb1 O1 1_555 1_555
O1 H1 1_555 1_555
H2 O1 1_555 1_555
O2 Tb1 1_555 1_555
H3 O2 1_555 1_555
H4 O2 1_555 1_555
O3 Tb1 1_555 1_555
O4 Tb1 1_555 1_555
O5 C17 1_555 1_555
O6 C17 1_555 1_555
O7 Tb1 1_555 1_555
O8 C18 1_555 1_555
C1 O3 1_555 1_555
C2 C1 1_555 1_555
C3 C2 1_555 1_555
H5 C3 1_555 1_555
C4 C3 1_555 1_555
H6 C4 1_555 1_555
C5 C4 1_555 1_555
C6 C5 1_555 1_555
H7 C6 1_555 1_555
C7 C2 1_555 1_555
H8 C7 1_555 1_555
C8 C5 1_555 1_555
H9 C8 1_555 1_555
C9 C8 1_555 1_555
H10 C9 1_555 1_555
C10 C9 1_555 1_555
C11 C10 1_555 1_555
H11 C11 1_555 1_555
C12 C11 1_555 1_555
H12 C12 1_555 1_555
C13 C12 1_555 1_555
C14 C13 1_555 1_555
H13 C14 1_555 1_555
C15 C10 1_555 1_555
H14 C15 1_555 1_555
C16 H15 1_555 1_555
C17 C13 1_555 1_555
C18 O7 1_555 1_555
C19 C18 1_555 1_555
C20 C16 1_555 1_555
H16 C20 1_555 1_555
C21 C16 1_555 1_555
C22 C21 1_555 1_555
H17 C22 1_555 1_555
C23 C19 1_555 1_555
H18 C23 1_555 1_555
C24 C21 1_555 1_555
H19 C24 1_555 1_555
Tb1A O5 1_555 1_555
Tb1_2 O4A 1_555 1_555
Tb1_3 O6 1_555 1_555
Tb1A_2 O6A 1_555 1_555
Tb1A_3 O4 1_555 1_555
Tb1A_4 O7A 1_555 1_555
O1A Tb1A 1_555 1_555
H1A O1A 1_555 1_555
H2A O1A 1_555 1_555
O2A Tb1A 1_555 1_555
H3A O2A 1_555 1_555
H4A O2A 1_555 1_555
O3A Tb1A 1_555 1_555
O4A Tb1A 1_555 1_555
O4_2 Tb1A 1_555 1_555
O4A_2 Tb1 1_555 1_555
O5A Tb1 1_555 1_555
O6A C17A 1_555 1_555
O6_2 Tb1 1_555 1_555
O6A_2 Tb1A 1_555 1_555
O7A C18A 1_555 1_555
O7A_2 Tb1A 1_555 1_555
O8A C18A 1_555 1_555
C1A O3A 1_555 1_555
C2A C1A 1_555 1_555
C3A C2A 1_555 1_555
H5A C3A 1_555 1_555
C4A C3A 1_555 1_555
H6A C4A 1_555 1_555
C5A C4A 1_555 1_555
C6A C5A 1_555 1_555
H7A C6A 1_555 1_555
C7A C2A 1_555 1_555
H8A C7A 1_555 1_555
C8A C5A 1_555 1_555
H9A C8A 1_555 1_555
C9A C8A 1_555 1_555
H10A C9A 1_555 1_555
C10A C9A 1_555 1_555
C11A C10A 1_555 1_555
H11A C11A 1_555 1_555
C12A C11A 1_555 1_555
H12A C12A 1_555 1_555
C13A C12A 1_555 1_555
C14A C13A 1_555 1_555
H13A C14A 1_555 1_555
C15A C10A 1_555 1_555
H14A C15A 1_555 1_555
C16A H15A 1_555 1_555
C17A O5A 1_555 1_555
C18A C19A 1_555 1_555
C19A C20A 1_555 1_555
C20A C16A 1_555 1_555
H16A C20A 1_555 1_555
C21A C16A 1_555 1_555
C22A C21A 1_555 1_555
H17A C22A 1_555 1_555
C23A C19A 1_555 1_555
H18A C23A 1_555 1_555
C24A C24 1_555 1_555
H19A C24A 1_555 1_555
O4 C1 1_555 1_555
C6 C7 1_555 1_555
C14 C15 1_555 1_555
C19 C20 1_555 1_555
C22 C23 1_555 1_555
Tb1_2 O4_2 1_555 1_555
Tb1A_3 O4A_2 1_555 1_555
O4A C1A 1_555 1_555
C6A C7A 1_555 1_555
C13A C17A 1_555 1_555
C14A C15A 1_555 1_555
C21A C24A 1_555 1_555
C22A C23A 1_555 1_555

#END
