
#######################################################################
#
#                 Cambridge Crystallographic Data Centre
#                                CCDC 
#
#######################################################################
#
# If this CIF has been generated from an entry in the Cambridge 
# Structural Database, then it will include bibliographic, chemical, 
# crystal, experimental, refinement or atomic coordinate data resulting 
# from the CCDC's data processing and validation procedures.
#
#######################################################################

data_CUXQUI
_symmetry_cell_setting           orthorhombic
_symmetry_space_group_name_H-M   'P 21 21 21'
_symmetry_Int_Tables_number      19
_space_group_name_Hall           'P 2ac 2ab'
loop_
_symmetry_equiv_pos_site_id
_symmetry_equiv_pos_as_xyz
1 x,y,z
2 1/2-x,-y,1/2+z
3 -x,1/2+y,1/2-z
4 1/2+x,1/2-y,-z
_cell_length_a                   8.8992(18)
_cell_length_b                   17.041(3)
_cell_length_c                   28.194(6)
_cell_angle_alpha                90
_cell_angle_beta                 90
_cell_angle_gamma                90
_cell_volume                     4275.66
loop_
_atom_site_label
_atom_site_type_symbol
_atom_site_fract_x
_atom_site_fract_y
_atom_site_fract_z
Zn1 Zn 0.08831(9) 0.16369(4) 0.72160(3)
O1 O -0.0376(17) 0.2011(5) 0.6579(3)
O2 O 0.0974(10) 0.1114(7) 0.6437(3)
O3 O 0.3669(6) 0.2412(3) 0.7086(2)
O4 O 0.2861(5) 0.1386(3) 0.74726(17)
N1 N -0.0347(6) 0.0699(3) 0.7453(2)
N2 N -0.2022(6) -0.0262(3) 0.7411(2)
N3 N -0.8675(6) -0.1361(3) 0.7288(3)
N4 N -1.0082(6) -0.2419(3) 0.7424(2)
C1 C 0.0242(13) 0.1666(6) 0.6332(4)
C2 C -0.0010(10) 0.1775(5) 0.5785(3)
H2 H -0.0991 0.1566 0.5704
H3 H -0.0021 0.2332 0.5715
C3 C 0.1139(10) 0.1391(5) 0.5476(3)
H4 H 0.0754 0.1361 0.5155
H5 H 0.1308 0.0860 0.5587
C4 C 0.2639(10) 0.1834(4) 0.5472(3)
H6 H 0.2492 0.2332 0.5312
H7 H 0.2922 0.1947 0.5797
C5 C 0.3936(10) 0.1405(5) 0.5234(3)
C6 C 0.3845(11) 0.0698(5) 0.4982(3)
H8 H 0.2938 0.0390 0.4919
C7 C 0.5378(12) 0.0512(5) 0.4838(3)
H9 H 0.5688 0.0047 0.4658
C8 C 0.6323(11) 0.1110(5) 0.4993(3)
H10 H 0.7412 0.1138 0.4944
C9 C 0.5448(10) 0.1654(5) 0.5238(3)
H11 H 0.5824 0.2131 0.5391
C10 C 0.4444(14) 0.0469(8) 0.6216(3)
H12 H 0.3557 0.0737 0.6344
C11 C 0.4440(14) -0.0257(7) 0.5974(4)
H13 H 0.3552 -0.0579 0.5909
C12 C 0.5930(14) -0.0444(5) 0.5846(3)
H14 H 0.6274 -0.0914 0.5677
C13 C 0.6834(11) 0.0192(6) 0.6012(3)
H15 H 0.7925 0.0240 0.5973
C14 C 0.5894(14) 0.0740(6) 0.6241(3)
H16 H 0.6218 0.1235 0.6386
C15 C 0.3881(9) 0.1856(4) 0.7354(3)
C16 C 0.5419(8) 0.1725(4) 0.7571(3)
H17 H 0.6131 0.2093 0.7436
H18 H 0.5762 0.1198 0.7500
C17 C 0.5344(8) 0.1839(4) 0.8107(3)
H19 H 0.4950 0.2358 0.8174
H20 H 0.4652 0.1458 0.8239
C18 C 0.6860(8) 0.1750(5) 0.8348(3)
H21 H 0.7563 0.2108 0.8198
H22 H 0.7221 0.1221 0.8292
C19 C 0.6877(10) 0.1905(5) 0.8883(3)
C20 C 0.7909(10) 0.1594(6) 0.9205(4)
H23 H 0.8716 0.1225 0.9127
C21 C 0.7586(13) 0.1882(7) 0.9657(4)
H24 H 0.8126 0.1757 0.9951
C22 C 0.6333(14) 0.2397(6) 0.9611(5)
H25 H 0.5850 0.2685 0.9871
C23 C 0.5901(12) 0.2427(4) 0.9122(4)
H26 H 0.5082 0.2734 0.8982
C24 C 0.4507(13) 0.0445(5) 0.9077(4)
H27 H 0.4427 0.0349 0.8736
C25 C 0.5572(12) 0.0108(5) 0.9381(4)
H28 H 0.6350 -0.0274 0.9296
C26 C 0.5271(13) 0.0411(6) 0.9836(3)
H29 H 0.5846 0.0280 1.0121
C27 C 0.4076(13) 0.0937(6) 0.9823(4)
H30 H 0.3638 0.1224 1.0090
C28 C 0.3587(11) 0.0946(6) 0.9342(5)
H31 H 0.2757 0.1261 0.9215
C29 C -0.1387(7) 0.0355(4) 0.7201(3)
H32 H -0.1663 0.0526 0.6900
C30 C -0.0311(7) 0.0263(4) 0.7867(3)
C31 C 0.0626(9) 0.0338(4) 0.8264(3)
H33 H 0.1339 0.0735 0.8283
C32 C 0.0451(10) -0.0199(5) 0.8626(3)
H34 H 0.1056 -0.0165 0.8894
C33 C -0.0623(10) -0.0793(4) 0.8594(3)
H35 H -0.0705 -0.1145 0.8845
C34 C -0.1554(9) -0.0885(4) 0.8218(3)
H36 H -0.2270 -0.1282 0.8203
C35 C -0.1351(7) -0.0331(4) 0.7851(3)
C36 C -0.3215(7) -0.0753(4) 0.7219(3)
H37 H -0.3062 -0.1290 0.7324
H38 H -0.3155 -0.0748 0.6876
C37 C -0.4753(7) -0.0488(4) 0.7368(2)
H39 H -0.4951 0.0025 0.7233
H40 H -0.4778 -0.0436 0.7711
C38 C -0.5974(7) -0.1052(3) 0.7214(2)
H41 H -0.5766 -0.1567 0.7344
H42 H -0.5965 -0.1094 0.6870
C39 C -0.7517(8) -0.0786(4) 0.7375(3)
H43 H -0.7483 -0.0673 0.7712
H44 H -0.7775 -0.0304 0.7212
C40 C -0.9082(8) -0.1940(4) 0.7597(3)
H45 H -0.8686 -0.1987 0.7901
C41 C -1.0335(9) -0.2161(4) 0.6970(3)
C42 C -1.1284(9) -0.2444(4) 0.6619(3)
H46 H -1.1885 -0.2881 0.6674
C43 C -1.1318(10) -0.2061(5) 0.6180(3)
H47 H -1.1942 -0.2240 0.5939
C44 C -1.0409(11) -0.1408(6) 0.6109(3)
H48 H -1.0439 -0.1162 0.5815
C45 C -0.9470(10) -0.1108(5) 0.6448(4)
H49 H -0.8875 -0.0668 0.6394
C46 C -0.9469(8) -0.1504(4) 0.6877(3)
Fe1 Fe 0.52588(13) 0.05918(6) 0.55525(4)
Fe2 Fe 0.57783(16) 0.12965(6) 0.93889(4)
Zn1B Zn -1.08831(9) -0.33631(4) 0.77840(3)
N4B N 0.0082(6) 0.2581(3) 0.7576(2)
O5 O 0.5899(12) 0.3339(6) 0.6674(3)
H1 H 0.5310 0.3011 0.6777
C47 C 0.6074(16) 0.3233(6) 0.6203(4)
H50 H 0.6818 0.3593 0.6086
H51 H 0.5136 0.3327 0.6045
H52 H 0.6395 0.2705 0.6143
loop_
_geom_bond_atom_site_label_1
_geom_bond_atom_site_label_2
_geom_bond_site_symmetry_1
_geom_bond_site_symmetry_2
Zn1 O1 1_555 1_555
O1 C1 1_555 1_555
O2 Zn1 1_555 1_555
O3 C15 1_555 1_555
O4 Zn1 1_555 1_555
O5 H1 1_555 1_555
N1 Zn1 1_555 1_555
N2 C29 1_555 1_555
N3 C39 1_555 1_555
N4 C40 1_555 1_555
C1 O2 1_555 1_555
C2 C1 1_555 1_555
H2 C2 1_555 1_555
H3 C2 1_555 1_555
C3 C2 1_555 1_555
H4 C3 1_555 1_555
H5 C3 1_555 1_555
C4 C3 1_555 1_555
H6 C4 1_555 1_555
H7 C4 1_555 1_555
C5 C4 1_555 1_555
C6 C5 1_555 1_555
H8 C6 1_555 1_555
C7 C6 1_555 1_555
H9 C7 1_555 1_555
C8 C7 1_555 1_555
H10 C8 1_555 1_555
C9 C5 1_555 1_555
H11 C9 1_555 1_555
C10 H12 1_555 1_555
C11 C10 1_555 1_555
H13 C11 1_555 1_555
C12 C11 1_555 1_555
H14 C12 1_555 1_555
C13 C12 1_555 1_555
H15 C13 1_555 1_555
C14 C10 1_555 1_555
H16 C14 1_555 1_555
C15 O4 1_555 1_555
C16 C15 1_555 1_555
H17 C16 1_555 1_555
H18 C16 1_555 1_555
C17 C16 1_555 1_555
H19 C17 1_555 1_555
H20 C17 1_555 1_555
C18 C17 1_555 1_555
H21 C18 1_555 1_555
H22 C18 1_555 1_555
C19 C18 1_555 1_555
C20 C19 1_555 1_555
H23 C20 1_555 1_555
C21 C20 1_555 1_555
H24 C21 1_555 1_555
C22 C21 1_555 1_555
H25 C22 1_555 1_555
C23 C19 1_555 1_555
H26 C23 1_555 1_555
C24 H27 1_555 1_555
C25 C24 1_555 1_555
H28 C25 1_555 1_555
C26 C25 1_555 1_555
H29 C26 1_555 1_555
C27 C26 1_555 1_555
H30 C27 1_555 1_555
C28 C24 1_555 1_555
H31 C28 1_555 1_555
C29 N1 1_555 1_555
H32 C29 1_555 1_555
C30 N1 1_555 1_555
C31 C30 1_555 1_555
H33 C31 1_555 1_555
C32 C31 1_555 1_555
H34 C32 1_555 1_555
C33 C32 1_555 1_555
H35 C33 1_555 1_555
C34 C33 1_555 1_555
H36 C34 1_555 1_555
C35 N2 1_555 1_555
C36 N2 1_555 1_555
H37 C36 1_555 1_555
H38 C36 1_555 1_555
C37 C36 1_555 1_555
H39 C37 1_555 1_555
H40 C37 1_555 1_555
C38 C37 1_555 1_555
H41 C38 1_555 1_555
H42 C38 1_555 1_555
C39 C38 1_555 1_555
H43 C39 1_555 1_555
H44 C39 1_555 1_555
C40 N3 1_555 1_555
H45 C40 1_555 1_555
C41 N4 1_555 1_555
C42 C41 1_555 1_555
H46 C42 1_555 1_555
C43 C42 1_555 1_555
H47 C43 1_555 1_555
C44 C43 1_555 1_555
H48 C44 1_555 1_555
C45 C44 1_555 1_555
H49 C45 1_555 1_555
C46 N3 1_555 1_555
C47 O5 1_555 1_555
H50 C47 1_555 1_555
H51 C47 1_555 1_555
H52 C47 1_555 1_555
Fe1 C5 1_555 1_555
Fe2 C19 1_555 1_555
Zn1B N4 1_555 1_555
N4B Zn1 1_555 1_555
C6 Fe1 1_555 1_555
C7 Fe1 1_555 1_555
C8 C9 1_555 1_555
C8 Fe1 1_555 1_555
C9 Fe1 1_555 1_555
C10 Fe1 1_555 1_555
C11 Fe1 1_555 1_555
C12 Fe1 1_555 1_555
C13 C14 1_555 1_555
C13 Fe1 1_555 1_555
C14 Fe1 1_555 1_555
C20 Fe2 1_555 1_555
C21 Fe2 1_555 1_555
C22 C23 1_555 1_555
C22 Fe2 1_555 1_555
C23 Fe2 1_555 1_555
C24 Fe2 1_555 1_555
C25 Fe2 1_555 1_555
C26 Fe2 1_555 1_555
C27 C28 1_555 1_555
C27 Fe2 1_555 1_555
C28 Fe2 1_555 1_555
C30 C35 1_555 1_555
C34 C35 1_555 1_555
C41 C46 1_555 1_555
C45 C46 1_555 1_555

#END
