
#######################################################################
#
#                 Cambridge Crystallographic Data Centre
#                                CCDC 
#
#######################################################################
#
# If this CIF has been generated from an entry in the Cambridge 
# Structural Database, then it will include bibliographic, chemical, 
# crystal, experimental, refinement or atomic coordinate data resulting 
# from the CCDC's data processing and validation procedures.
#
#######################################################################

data_CUXQAO
_symmetry_cell_setting           monoclinic
_symmetry_space_group_name_H-M   'P 21/c'
_symmetry_Int_Tables_number      14
_space_group_name_Hall           '-P 2ybc'
loop_
_symmetry_equiv_pos_site_id
_symmetry_equiv_pos_as_xyz
1 x,y,z
2 -x,1/2+y,1/2-z
3 -x,-y,-z
4 x,1/2-y,1/2+z
_cell_length_a                   16.1997(11)
_cell_length_b                   12.1675(6)
_cell_length_c                   7.4866(4)
_cell_angle_alpha                90
_cell_angle_beta                 101.014(2)
_cell_angle_gamma                90
_cell_volume                     1448.5
loop_
_atom_site_label
_atom_site_type_symbol
_atom_site_fract_x
_atom_site_fract_y
_atom_site_fract_z
Eu1 Eu 0.51472(3) 0.67382(3) 0.44102(6)
O1 O 0.5905(5) 0.6714(4) 0.1899(12)
O2 O 0.6568(5) 0.8086(6) 0.0789(12)
O3 O 0.3867(4) 0.7540(6) 0.4839(9)
O4 O 0.4178(4) 0.8854(5) 0.6882(8)
O5 O 0.5040(5) 0.8470(6) 0.2718(11)
O6 O 0.4455(4) 0.9793(4) 0.1042(8)
C1 C 0.6592(5) 0.7180(7) 0.1610(12)
C2 C 0.7440(7) 0.6680(6) 0.2330(16)
C3 C 0.8157(5) 0.7221(7) 0.2009(13)
H1 H 0.8104 0.7867 0.1333
C4 C 0.8958(8) 0.6793(7) 0.2705(18)
H2 H 0.9434 0.7159 0.2493
C5 C 0.9045(6) 0.5829(8) 0.3707(12)
C6 C 0.8315(6) 0.5264(7) 0.3973(14)
H3 H 0.8363 0.4604 0.4614
C7 C 0.7528(6) 0.5694(7) 0.3278(13)
H4 H 0.7050 0.5316 0.3450
C8 C 0.9897(6) 0.5448(8) 0.4484(14)
H5 H 1.0339 0.5872 0.4238
C9 C 0.3659(7) 0.8312(7) 0.5788(16)
C10 C 0.2758(6) 0.8631(8) 0.5508(12)
C11 C 0.2512(6) 0.9547(8) 0.6348(14)
H6 H 0.2918 0.9971 0.7085
C12 C 0.1677(8) 0.9850(9) 0.6124(17)
H7 H 0.1533 1.0480 0.6699
C13 C 0.1052(6) 0.9237(7) 0.5063(13)
C14 C 0.1301(8) 0.8292(7) 0.4174(19)
H8 H 0.0899 0.7880 0.3403
C15 C 0.2131(6) 0.7990(9) 0.4452(15)
H9 H 0.2281 0.7345 0.3928
C16 C 0.0161(6) 0.9540(9) 0.4744(14)
H10 H -0.0217 0.9034 0.4118
C17 C 0.4645(6) 0.9314(7) 0.2607(13)
H11 H 0.4481 0.9614 0.3626
Eu1B Eu 1.48528(3) 0.32618(3) 0.55898(6)
Eu1C Eu 0.51472(3) 0.82618(3) -0.05898(6)
Eu1C_2 Eu 0.51472(3) 0.82618(3) 0.94102(6)
Eu1A Eu 0.48528(3) 1.17382(3) 0.05898(6)
Eu1A_2 Eu 1.48528(3) 0.17382(3) 1.05898(6)
Eu1B_2 Eu -0.51472(3) 1.32618(3) 0.55898(6)
Eu1A_3 Eu -0.51472(3) 1.17382(3) 0.05898(6)
Eu1A_4 Eu 0.48528(3) 0.17382(3) 0.05898(6)
Eu1B_3 Eu 0.48528(3) 0.32618(3) 0.55898(6)
O1B O 1.4095(5) 0.3286(4) 0.8101(12)
O1C O 0.5905(5) 0.8286(4) 0.6899(12)
O1A O 1.4095(5) 0.1714(4) 0.3101(12)
O2B O 1.3432(5) 0.1914(6) 0.9211(12)
O2C O 0.6568(5) 0.6914(6) 0.5789(12)
O2A O 1.3432(5) 0.3086(6) 0.4211(12)
O3B O -0.3867(4) 1.2460(6) 0.5161(9)
O3B_2 O 1.6133(4) 0.2460(6) 0.5161(9)
O4B O -0.4178(4) 1.1146(5) 0.3118(8)
O4C O 0.4178(4) 0.6146(5) 0.1882(8)
O4A O 1.5822(4) 0.3854(5) 0.8118(8)
O5A O 0.4960(5) 0.3470(6) 0.2282(11)
O5C O 0.5040(5) 0.6530(6) 0.7718(11)
O5B O 1.4960(5) 0.1530(6) 0.7282(11)
O5A_2 O 1.4960(5) 0.3470(6) 0.2282(11)
O6A O 0.5545(4) 0.4793(4) 0.3958(8)
O6C O 0.4455(4) 0.5207(4) 0.6042(8)
O6C_2 O 1.4455(4) 0.5207(4) 0.6042(8)
O6A_2 O 1.5545(4) 0.4793(4) 0.3958(8)
C1B C 1.3408(5) 0.2820(7) 0.8390(12)
C2B C 1.2560(7) 0.3320(6) 0.7670(16)
C3B C 1.1843(5) 0.2779(7) 0.7991(13)
H1B H 1.1896 0.2133 0.8667
C4B C 1.1042(8) 0.3207(7) 0.7295(18)
H2B H 1.0566 0.2841 0.7507
C5B C 1.0955(6) 0.4171(8) 0.6293(12)
C6B C 1.1685(6) 0.4736(7) 0.6027(14)
H3B H 1.1637 0.5396 0.5386
C7B C 1.2472(6) 0.4306(7) 0.6722(13)
H4B H 1.2950 0.4684 0.6550
C8B C 1.0103(6) 0.4552(8) 0.5516(14)
H5B H 0.9661 0.4128 0.5762
C9B C -0.3659(7) 1.1688(7) 0.4212(16)
C10B C -0.2758(6) 1.1369(8) 0.4492(12)
C11B C -0.2512(6) 1.0453(8) 0.3652(14)
H6B H -0.2918 1.0029 0.2915
C12B C -0.1677(8) 1.0150(9) 0.3876(17)
H7B H -0.1533 0.9520 0.3301
C13B C -0.1052(6) 1.0763(7) 0.4937(13)
C14B C -0.1301(8) 1.1708(7) 0.5826(19)
H8B H -0.0899 1.2120 0.6597
C15B C -0.2131(6) 1.2010(9) 0.5548(15)
H9B H -0.2281 1.2655 0.6072
C16B C -0.0161(6) 1.0460(9) 0.5256(14)
H10B H 0.0217 1.0966 0.5882
C17A C 0.5355(6) 0.4314(7) 0.2393(13)
H11A H 0.5519 0.4614 0.1374
loop_
_geom_bond_atom_site_label_1
_geom_bond_atom_site_label_2
_geom_bond_site_symmetry_1
_geom_bond_site_symmetry_2
Eu1 O1 1_555 1_555
O1 C1 1_555 1_555
O2 C1 1_555 1_555
O3 Eu1 1_555 1_555
O4 C9 1_555 1_555
O5 Eu1 1_555 1_555
O6 C17 1_555 1_555
C1 C2 1_555 1_555
C2 C3 1_555 1_555
C3 H1 1_555 1_555
C4 C3 1_555 1_555
H2 C4 1_555 1_555
C5 C4 1_555 1_555
C6 C5 1_555 1_555
H3 C6 1_555 1_555
C7 C2 1_555 1_555
H4 C7 1_555 1_555
C8 C5 1_555 1_555
H5 C8 1_555 1_555
C9 O3 1_555 1_555
C10 C9 1_555 1_555
C11 C10 1_555 1_555
H6 C11 1_555 1_555
C12 C11 1_555 1_555
H7 C12 1_555 1_555
C13 C12 1_555 1_555
C14 C13 1_555 1_555
H8 C14 1_555 1_555
C15 C10 1_555 1_555
H9 C15 1_555 1_555
C16 C13 1_555 1_555
H10 C16 1_555 1_555
C17 O5 1_555 1_555
H11 C17 1_555 1_555
Eu1B O1B 1_555 1_555
Eu1C O1 1_555 1_555
Eu1C_2 O4 1_555 1_555
Eu1A O6 1_555 1_555
Eu1A_2 O1B 1_555 1_555
Eu1B_2 O3B 1_555 1_555
Eu1A_3 O4B 1_555 1_555
Eu1A_4 O5A 1_555 1_555
Eu1B_3 O5A 1_555 1_555
O1B C1B 1_555 1_555
O1C Eu1 1_555 1_555
O1A Eu1B 1_555 1_555
O2B Eu1A_2 1_555 1_555
O2C Eu1 1_555 1_555
O2A Eu1B 1_555 1_555
O3B C9B 1_555 1_555
O3B_2 Eu1B 1_555 1_555
O4B C9B 1_555 1_555
O4C Eu1 1_555 1_555
O4A Eu1B 1_555 1_555
O5A C17A 1_555 1_555
O5C Eu1 1_555 1_555
O5B Eu1B 1_555 1_555
O5A_2 Eu1B 1_555 1_555
O6A Eu1 1_555 1_555
O6C Eu1 1_555 1_555
O6C_2 Eu1B 1_555 1_555
O6A_2 Eu1B 1_555 1_555
C1B O2B 1_555 1_555
C2B C1B 1_555 1_555
C3B C2B 1_555 1_555
H1B C3B 1_555 1_555
C4B C3B 1_555 1_555
H2B C4B 1_555 1_555
C5B C4B 1_555 1_555
C6B C5B 1_555 1_555
H3B C6B 1_555 1_555
C7B C2B 1_555 1_555
H4B C7B 1_555 1_555
C8B C8 1_555 1_555
H5B C8B 1_555 1_555
C9B C10B 1_555 1_555
C10B C11B 1_555 1_555
C11B H6B 1_555 1_555
C12B C11B 1_555 1_555
H7B C12B 1_555 1_555
C13B C12B 1_555 1_555
C14B C13B 1_555 1_555
H8B C14B 1_555 1_555
C15B C10B 1_555 1_555
H9B C15B 1_555 1_555
C16B C16 1_555 1_555
H10B C16B 1_555 1_555
C17A O6A 1_555 1_555
H11A C17A 1_555 1_555
O2 Eu1C 1_555 1_555
O5 Eu1C 1_555 1_555
O6 Eu1C 1_555 1_555
C6 C7 1_555 1_555
C14 C15 1_555 1_555
Eu1C_2 O1C 1_555 1_555
Eu1C_2 O5C 1_555 1_555
Eu1A_2 O5B 1_555 1_555
Eu1B_3 O6A 1_555 1_555
Eu1B_3 O6C 1_555 1_555
C5B C8B 1_555 1_555
C6B C7B 1_555 1_555
C13B C16B 1_555 1_555
C14B C15B 1_555 1_555

#END
