
#######################################################################
#
#                 Cambridge Crystallographic Data Centre
#                                CCDC 
#
#######################################################################
#
# If this CIF has been generated from an entry in the Cambridge 
# Structural Database, then it will include bibliographic, chemical, 
# crystal, experimental, refinement or atomic coordinate data resulting 
# from the CCDC's data processing and validation procedures.
#
#######################################################################

data_CUXQES
_symmetry_cell_setting           monoclinic
_symmetry_space_group_name_H-M   'P 21/n'
_symmetry_Int_Tables_number      14
_space_group_name_Hall           '-P 2yn'
loop_
_symmetry_equiv_pos_site_id
_symmetry_equiv_pos_as_xyz
1 x,y,z
2 1/2-x,1/2+y,1/2-z
3 -x,-y,-z
4 1/2+x,1/2-y,1/2+z
_cell_length_a                   19.867(4)
_cell_length_b                   5.4816(11)
_cell_length_c                   20.025(4)
_cell_angle_alpha                90
_cell_angle_beta                 108.56(3)
_cell_angle_gamma                90
_cell_volume                     2067.36
loop_
_atom_site_label
_atom_site_type_symbol
_atom_site_fract_x
_atom_site_fract_y
_atom_site_fract_z
La1 La 0.623433(7) 0.46766(2) 0.122454(7)
O1 O 0.73765(12) 0.4866(4) 0.23144(14)
H1 H 0.7714(14) 0.466(7) 0.2174(18)
H2 H 0.7448(19) 0.546(7) 0.2701(11)
O2 O 0.56073(11) 0.8451(4) 0.05036(12)
H3 H 0.5822(15) 0.917(7) 0.0270(16)
H4 H 0.5193(8) 0.814(7) 0.0294(16)
O3 O 0.42329(9) 0.6615(4) 0.00592(9)
O4 O 0.49047(9) 0.4368(4) 0.09575(10)
O5 O -0.11557(10) 0.6652(4) 0.28961(10)
O6 O -0.10462(11) 0.2624(3) 0.29359(11)
O7 O 0.70240(10) 0.1363(4) 0.10945(11)
O8 O 0.70834(11) -0.2620(4) 0.09376(13)
C1 C 0.43289(13) 0.5353(5) 0.06199(13)
C2 C 0.37083(13) 0.5077(5) 0.08889(13)
C3 C 0.36765(14) 0.3123(6) 0.13168(14)
H5 H 0.4040 0.1974 0.1438
C4 C 0.31004(14) 0.2883(6) 0.15639(15)
H6 H 0.3076 0.1539 0.1839
C5 C 0.25582(14) 0.4613(5) 0.14080(14)
C6 C 0.25994(14) 0.6577(5) 0.09804(14)
H7 H 0.2243 0.7753 0.0869
C7 C 0.31647(13) 0.6801(5) 0.07182(14)
H8 H 0.3180 0.8107 0.0427
C8 C 0.19673(15) 0.4260(6) 0.16931(15)
H9 H 0.2002 0.2927 0.1990
C9 C 0.13922(14) 0.5627(5) 0.15746(15)
H10 H 0.1351 0.6941 0.1271
C10 C 0.08094(14) 0.5285(5) 0.18738(14)
C11 C 0.07570(14) 0.3240(5) 0.22747(14)
H11 H 0.1097 0.2013 0.2354
C12 C 0.02066(13) 0.3025(5) 0.25533(14)
H12 H 0.0167 0.1626 0.2801
C13 C -0.02880(13) 0.4894(4) 0.24650(13)
C14 C -0.02420(13) 0.6946(5) 0.20731(13)
H13 H -0.0571 0.8203 0.2013
C15 C 0.02969(14) 0.7109(5) 0.17716(14)
H14 H 0.0316 0.8458 0.1497
C16 C -0.08649(13) 0.4714(5) 0.27949(13)
C17 C 0.73089(13) -0.0481(5) 0.09343(13)
C18 C 0.79661(13) -0.0142(4) 0.07285(13)
C19 C 0.83810(14) 0.1932(5) 0.09267(14)
H15 H 0.8250 0.3147 0.1186
C20 C 0.89918(14) 0.2194(5) 0.07384(15)
H16 H 0.9274 0.3571 0.0885
C21 C 0.91910(13) 0.0444(5) 0.03355(14)
C22 C 0.87550(14) -0.1616(5) 0.01204(15)
H17 H 0.8868 -0.2785 -0.0163
C23 C 0.81602(13) -0.1917(5) 0.03274(14)
H18 H 0.7886 -0.3320 0.0197
C24 C 0.98484(14) 0.0794(5) 0.01567(15)
H19 H 1.0075 0.2291 0.0277
La1B La 0.376567(7) 0.53234(2) -0.122454(7)
La1_2 La 0.623433(7) -0.53234(2) 0.122454(7)
La1A La -0.123433(7) -0.03234(2) 0.377546(7)
La1A_2 La -0.123433(7) 0.96766(2) 0.377546(7)
La1B_2 La 1.376567(7) -0.46766(2) -0.122454(7)
La1B_3 La 1.376567(7) 0.53234(2) -0.122454(7)
La1C La 1.123433(7) 0.03234(2) -0.377546(7)
La1C_2 La 1.123433(7) 1.03234(2) -0.377546(7)
O1B O 0.26235(12) 0.5134(4) -0.23144(14)
H1B H 0.2286(14) 0.534(7) -0.2174(18)
H2B H 0.2552(19) 0.454(7) -0.2701(11)
O2B O 0.43927(11) 0.1549(4) -0.05036(12)
H3B H 0.4178(15) 0.083(7) -0.0270(16)
H4B H 0.4807(8) 0.186(7) -0.0294(16)
O3B O 0.57671(9) 0.3385(4) -0.00592(9)
O4B O 0.50953(9) 0.5632(4) -0.09575(10)
O5B O 1.11557(10) 0.3348(4) -0.28961(10)
O5A O 0.61557(10) 0.1652(4) 0.21039(10)
O5C O 0.38443(10) 0.8348(4) -0.21039(10)
O6B O 1.10462(11) 0.7376(3) -0.29359(11)
O6A O 0.60462(11) 0.7624(3) 0.20641(11)
O6C O 0.39538(11) 0.2376(3) -0.20641(11)
O7B O 1.29760(10) -0.1363(4) -0.10945(11)
O7B_2 O 0.29760(10) 0.8637(4) -0.10945(11)
O8B O 1.29166(11) 0.2620(4) -0.09376(13)
O8_2 O 0.70834(11) 0.7380(4) 0.09376(13)
O8B_2 O 0.29166(11) 0.2620(4) -0.09376(13)
C1B C 0.56711(13) 0.4647(5) -0.06199(13)
C2B C 0.62917(13) 0.4923(5) -0.08889(13)
C3B C 0.63235(14) 0.6877(6) -0.13168(14)
H5B H 0.5960 0.8026 -0.1438
C4B C 0.68996(14) 0.7117(6) -0.15639(15)
H6B H 0.6924 0.8461 -0.1839
C5B C 0.74418(14) 0.5387(5) -0.14080(14)
C6B C 0.74006(14) 0.3423(5) -0.09804(14)
H7B H 0.7757 0.2247 -0.0869
C7B C 0.68353(13) 0.3199(5) -0.07182(14)
H8B H 0.6820 0.1893 -0.0427
C8B C 0.80327(15) 0.5740(6) -0.16931(15)
H9B H 0.7998 0.7073 -0.1990
C9B C 0.86078(14) 0.4373(5) -0.15746(15)
H10B H 0.8649 0.3059 -0.1271
C10B C 0.91906(14) 0.4715(5) -0.18738(14)
C11B C 0.92430(14) 0.6760(5) -0.22747(14)
H11B H 0.8903 0.7987 -0.2354
C12B C 0.97934(13) 0.6975(5) -0.25533(14)
H12B H 0.9833 0.8374 -0.2801
C13B C 1.02880(13) 0.5106(4) -0.24650(13)
C14B C 1.02420(13) 0.3054(5) -0.20731(13)
H13B H 1.0571 0.1797 -0.2013
C15B C 0.97031(14) 0.2891(5) -0.17716(14)
H14B H 0.9684 0.1542 -0.1497
C16B C 1.08649(13) 0.5286(5) -0.27949(13)
C17B C 1.26911(13) 0.0481(5) -0.09343(13)
C18B C 1.20339(13) 0.0142(4) -0.07285(13)
C19B C 1.16190(14) -0.1932(5) -0.09267(14)
H15B H 1.1750 -0.3147 -0.1186
C20B C 1.10082(14) -0.2194(5) -0.07384(15)
H16B H 1.0726 -0.3571 -0.0885
C21B C 1.08090(13) -0.0444(5) -0.03355(14)
C22B C 1.12450(14) 0.1616(5) -0.01204(15)
H17B H 1.1132 0.2785 0.0163
C23B C 1.18398(13) 0.1917(5) -0.03274(14)
H18B H 1.2114 0.3320 -0.0197
C24B C 1.01516(14) -0.0794(5) -0.01567(15)
H19B H 0.9925 -0.2291 -0.0277
loop_
_geom_bond_atom_site_label_1
_geom_bond_atom_site_label_2
_geom_bond_site_symmetry_1
_geom_bond_site_symmetry_2
La1 O1 1_555 1_555
O1 H1 1_555 1_555
H2 O1 1_555 1_555
O2 La1 1_555 1_555
H3 O2 1_555 1_555
H4 O2 1_555 1_555
O3 C1 1_555 1_555
O4 La1 1_555 1_555
O5 C16 1_555 1_555
O6 C16 1_555 1_555
O7 La1 1_555 1_555
O8 C17 1_555 1_555
C1 O4 1_555 1_555
C2 C1 1_555 1_555
C3 C2 1_555 1_555
H5 C3 1_555 1_555
C4 C3 1_555 1_555
H6 C4 1_555 1_555
C5 C4 1_555 1_555
C6 C5 1_555 1_555
H7 C6 1_555 1_555
C7 C2 1_555 1_555
H8 C7 1_555 1_555
C8 C5 1_555 1_555
H9 C8 1_555 1_555
C9 C8 1_555 1_555
H10 C9 1_555 1_555
C10 C9 1_555 1_555
C11 C10 1_555 1_555
H11 C11 1_555 1_555
C12 C11 1_555 1_555
H12 C12 1_555 1_555
C13 C12 1_555 1_555
C14 C13 1_555 1_555
H13 C14 1_555 1_555
C15 C10 1_555 1_555
H14 C15 1_555 1_555
C16 C13 1_555 1_555
C17 O7 1_555 1_555
C18 C17 1_555 1_555
C19 C18 1_555 1_555
H15 C19 1_555 1_555
C20 C19 1_555 1_555
H16 C20 1_555 1_555
C21 C20 1_555 1_555
C22 C21 1_555 1_555
H17 C22 1_555 1_555
C23 C18 1_555 1_555
H18 C23 1_555 1_555
C24 C21 1_555 1_555
H19 C24 1_555 1_555
La1B O3 1_555 1_555
La1_2 O8 1_555 1_555
La1A O6 1_555 1_555
La1A_2 O5 1_555 1_555
La1B_2 O7B 1_555 1_555
La1B_3 O8B 1_555 1_555
La1C O5B 1_555 1_555
La1C_2 O6B 1_555 1_555
O1B La1B 1_555 1_555
H1B O1B 1_555 1_555
H2B O1B 1_555 1_555
O2B La1B 1_555 1_555
H3B O2B 1_555 1_555
H4B O2B 1_555 1_555
O3B La1 1_555 1_555
O4B La1B 1_555 1_555
O5B C16B 1_555 1_555
O5A La1 1_555 1_555
O5C La1B 1_555 1_555
O6B C16B 1_555 1_555
O6A La1 1_555 1_555
O6C La1B 1_555 1_555
O7B C17B 1_555 1_555
O7B_2 La1B 1_555 1_555
O8B C17B 1_555 1_555
O8_2 La1 1_555 1_555
O8B_2 La1B 1_555 1_555
C1B O3B 1_555 1_555
C2B C1B 1_555 1_555
C3B C2B 1_555 1_555
H5B C3B 1_555 1_555
C4B C3B 1_555 1_555
H6B C4B 1_555 1_555
C5B C4B 1_555 1_555
C6B C5B 1_555 1_555
H7B C6B 1_555 1_555
C7B C2B 1_555 1_555
H8B C7B 1_555 1_555
C8B C5B 1_555 1_555
H9B C8B 1_555 1_555
C9B C8B 1_555 1_555
H10B C9B 1_555 1_555
C10B C9B 1_555 1_555
C11B C10B 1_555 1_555
H11B C11B 1_555 1_555
C12B C11B 1_555 1_555
H12B C12B 1_555 1_555
C13B C12B 1_555 1_555
C14B C13B 1_555 1_555
H13B C14B 1_555 1_555
C15B C10B 1_555 1_555
H14B C15B 1_555 1_555
C16B C13B 1_555 1_555
C17B C18B 1_555 1_555
C18B C19B 1_555 1_555
C19B H15B 1_555 1_555
C20B C19B 1_555 1_555
H16B C20B 1_555 1_555
C21B C20B 1_555 1_555
C22B C21B 1_555 1_555
H17B C22B 1_555 1_555
C23B C18B 1_555 1_555
H18B C23B 1_555 1_555
C24B C24 1_555 1_555
H19B C24B 1_555 1_555
C6 C7 1_555 1_555
C14 C15 1_555 1_555
C22 C23 1_555 1_555
O4B C1B 1_555 1_555
C6B C7B 1_555 1_555
C14B C15B 1_555 1_555
C21B C24B 1_555 1_555
C22B C23B 1_555 1_555

#END
