
#######################################################################
#
#                 Cambridge Crystallographic Data Centre
#                                CCDC 
#
#######################################################################
#
# If this CIF has been generated from an entry in the Cambridge 
# Structural Database, then it will include bibliographic, chemical, 
# crystal, experimental, refinement or atomic coordinate data resulting 
# from the CCDC's data processing and validation procedures.
#
#######################################################################

data_CUXROC
_symmetry_cell_setting           tetragonal
_symmetry_space_group_name_H-M   'P -4 21 c'
_symmetry_Int_Tables_number      114
_space_group_name_Hall           'P -4 2n'
loop_
_symmetry_equiv_pos_site_id
_symmetry_equiv_pos_as_xyz
1 x,y,z
2 y,-x,-z
3 -x,-y,z
4 -y,x,-z
5 1/2+x,1/2-y,1/2-z
6 1/2-x,1/2+y,1/2-z
7 1/2-y,1/2-x,1/2+z
8 1/2+y,1/2+x,1/2+z
_cell_length_a                   18.944(3)
_cell_length_b                   18.944(3)
_cell_length_c                   6.3326(11)
_cell_angle_alpha                90
_cell_angle_beta                 90
_cell_angle_gamma                90
_cell_volume                     2272.61
loop_
_atom_site_label
_atom_site_type_symbol
_atom_site_fract_x
_atom_site_fract_y
_atom_site_fract_z
Na1 Na -0.08568(7) -0.00910(7) -0.79483(17)
O1 O -0.09003(11) -0.01543(11) -0.1643(3)
O2 O -0.13453(12) -0.03012(12) -0.4847(3)
C1 C -0.14054(14) -0.01654(15) -0.2963(4)
C2 C -0.21367(15) 0.00060(15) -0.1967(4)
H1 H -0.2215 -0.0342 -0.0848
C3 C -0.27570(17) -0.00578(15) -0.3495(4)
C4 C -0.28642(18) -0.06853(18) -0.4576(5)
H2 H -0.2539 -0.1050 -0.4436
C5 C -0.3443(2) -0.07760(18) -0.5851(6)
H3 H -0.3502 -0.1197 -0.6585
C6 C -0.3935(2) -0.02510(18) -0.6048(6)
H4 H -0.4330 -0.0318 -0.6895
C7 C -0.3841(2) 0.03730(17) -0.4990(6)
H5 H -0.4173 0.0731 -0.5129
C8 C -0.32574(18) 0.04725(16) -0.3721(5)
H6 H -0.3199 0.0898 -0.3011
C9 C -0.20896(16) 0.07202(15) -0.0900(5)
C10 C -0.23812(19) 0.08229(17) 0.1077(5)
H7 H -0.2593 0.0447 0.1777
C11 C -0.2360(2) 0.1485(2) 0.2027(6)
H8 H -0.2568 0.1556 0.3339
C12 C -0.20280(19) 0.2033(2) 0.1010(7)
H9 H -0.2006 0.2475 0.1649
C13 C -0.1731(2) 0.19340(19) -0.0930(7)
H10 H -0.1504 0.2307 -0.1608
C14 C -0.17666(18) 0.12838(16) -0.1875(5)
H11 H -0.1568 0.1222 -0.3206
O1A O -0.01543(11) 0.09003(11) -0.8357(3)
O1_2 O -0.09003(11) -0.01543(11) -1.1643(3)
Na1C Na 0.00910(7) -0.08568(7) -0.20517(17)
O1C O 0.01543(11) -0.09003(11) -0.8357(3)
Na1A Na -0.00910(7) 0.08568(7) -0.20517(17)
Na1_2 Na -0.08568(7) -0.00910(7) 0.20517(17)
loop_
_geom_bond_atom_site_label_1
_geom_bond_atom_site_label_2
_geom_bond_site_symmetry_1
_geom_bond_site_symmetry_2
Na1 O2 1_555 1_555
O1 C1 1_555 1_555
O2 C1 1_555 1_555
C1 C2 1_555 1_555
C2 H1 1_555 1_555
C3 C2 1_555 1_555
C4 C3 1_555 1_555
H2 C4 1_555 1_555
C5 C4 1_555 1_555
H3 C5 1_555 1_555
C6 C5 1_555 1_555
H4 C6 1_555 1_555
C7 C6 1_555 1_555
H5 C7 1_555 1_555
C8 C3 1_555 1_555
H6 C8 1_555 1_555
C9 C2 1_555 1_555
C10 C9 1_555 1_555
H7 C10 1_555 1_555
C11 C10 1_555 1_555
H8 C11 1_555 1_555
C12 C11 1_555 1_555
H9 C12 1_555 1_555
C13 C12 1_555 1_555
H10 C13 1_555 1_555
C14 C9 1_555 1_555
H11 C14 1_555 1_555
O1A Na1 1_555 1_555
O1_2 Na1 1_555 1_555
Na1C O1 1_555 1_555
O1C Na1 1_555 1_555
Na1A O1 1_555 1_555
Na1_2 O1 1_555 1_555
C7 C8 1_555 1_555
C13 C14 1_555 1_555

#END
