
#######################################################################
#
#                 Cambridge Crystallographic Data Centre
#                                CCDC 
#
#######################################################################
#
# If this CIF has been generated from an entry in the Cambridge 
# Structural Database, then it will include bibliographic, chemical, 
# crystal, experimental, refinement or atomic coordinate data resulting 
# from the CCDC's data processing and validation procedures.
#
#######################################################################

data_CUXSOE
_symmetry_cell_setting           monoclinic
_symmetry_space_group_name_H-M   'P 21/c'
_symmetry_Int_Tables_number      14
_space_group_name_Hall           '-P 2ybc'
loop_
_symmetry_equiv_pos_site_id
_symmetry_equiv_pos_as_xyz
1 x,y,z
2 -x,1/2+y,1/2-z
3 -x,-y,-z
4 x,1/2-y,1/2+z
_cell_length_a                   10.695(1)
_cell_length_b                   19.671(2)
_cell_length_c                   11.881(1)
_cell_angle_alpha                90
_cell_angle_beta                 98.661(1)
_cell_angle_gamma                90
_cell_volume                     2471.04
loop_
_atom_site_label
_atom_site_type_symbol
_atom_site_fract_x
_atom_site_fract_y
_atom_site_fract_z
Cd1 Cd 0.503741(16) 0.311936(8) 0.621735(15)
C1 C 0.5486(2) 0.17018(13) 0.6430(2)
C2 C 0.5870(2) 0.09712(12) 0.6304(2)
C3 C 0.6599(3) 0.08170(13) 0.5472(2)
H1 H 0.6837 0.1161 0.5011
C4 C 0.6980(3) 0.01538(14) 0.5318(2)
C5 C 0.6621(3) -0.03610(13) 0.5988(2)
H2 H 0.6865 -0.0807 0.5876
C6 C 0.5893(2) -0.02102(12) 0.6834(2)
C7 C 0.5516(2) 0.04543(12) 0.6988(2)
H3 H 0.5026 0.0554 0.7550
C8 C 0.5542(2) -0.07776(12) 0.7564(2)
C9 C 0.8238(4) -0.05752(16) 0.4332(3)
H4 H 0.7570 -0.0896 0.4065
H5 H 0.8687 -0.0739 0.5051
C10 C 0.9131(3) -0.05138(15) 0.3475(3)
C11 C 0.9222(4) 0.00726(17) 0.2848(3)
H6 H 0.8726 0.0448 0.2961
C12 C 1.0043(3) 0.01057(17) 0.2056(3)
H7 H 1.0100 0.0505 0.1647
C13 C 1.0779(3) -0.04459(15) 0.1864(2)
C14 C 1.0693(3) -0.10290(15) 0.2495(3)
H8 H 1.1185 -0.1405 0.2378
C15 C 0.9885(3) -0.10608(15) 0.3297(3)
H9 H 0.9849 -0.1455 0.3722
C16 C 1.1633(3) -0.04365(16) 0.0998(3)
C17 C -0.1621(2) 0.22886(14) 0.3969(2)
H10 H -0.1560 0.2447 0.4712
C18 C -0.2785(2) 0.21059(14) 0.3377(2)
H11 H -0.3496 0.2150 0.3735
C19 C -0.1892(3) 0.17981(14) 0.1828(2)
H12 H -0.1974 0.1621 0.1095
C20 C -0.0702(2) 0.19740(14) 0.2360(2)
H13 H -0.0006 0.1918 0.1986
C21 C -0.0547(2) 0.22351(13) 0.3455(2)
C22 C 0.0708(2) 0.24634(13) 0.4031(2)
C23 C 0.1823(2) 0.21656(14) 0.3809(2)
H14 H 0.1797 0.1817 0.3277
C24 C 0.2967(2) 0.23870(14) 0.4377(2)
H15 H 0.3702 0.2184 0.4211
C25 C 0.2003(2) 0.31831(13) 0.5354(2)
H16 H 0.2060 0.3536 0.5880
C26 C 0.0824(2) 0.29951(14) 0.4811(2)
H17 H 0.0108 0.3223 0.4967
N1 N -0.2933(2) 0.18687(10) 0.23110(18)
N2 N 0.30679(19) 0.28808(11) 0.51582(19)
O1 O 0.57130(18) 0.21055(9) 0.56575(15)
O2 O 0.49757(19) 0.18853(9) 0.72577(17)
O3 O 0.49161(19) -0.06592(9) 0.83569(17)
O4 O 0.59055(18) -0.13692(8) 0.73803(16)
O5 O 0.7715(2) 0.00731(10) 0.4479(2)
O6 O 1.1844(2) 0.01748(11) 0.0619(2)
H18 H 1.2322 0.0147 0.0142
O7 O 1.2082(2) -0.09487(11) 0.06537(19)
O8 O 0.5493(2) 0.35873(11) 0.44803(16)
H19 H 0.6244(17) 0.3770(17) 0.443(3)
H21 H 0.527(3) 0.3422(16) 0.3781(14)
Cd1A Cd 0.496259(16) -0.188064(8) 0.878265(15)
Cd1C Cd -0.496259(16) 0.188064(8) 0.121735(15)
C8A C 0.4458(2) 0.42224(12) 0.7436(2)
N1C N 0.7067(2) 0.31313(10) 0.73110(18)
O3A O 0.50839(19) 0.43408(9) 0.66431(17)
O4A O 0.40945(18) 0.36308(8) 0.76197(16)
O9 O 0.3467(2) 0.03036(13) 0.9241(2)
H20 H 0.382(3) -0.0023(15) 0.888(3)
H22 H 0.412(3) 0.057(2) 0.947(5)
loop_
_geom_bond_atom_site_label_1
_geom_bond_atom_site_label_2
_geom_bond_site_symmetry_1
_geom_bond_site_symmetry_2
Cd1 N2 1_555 1_555
C1 C2 1_555 1_555
C2 C3 1_555 1_555
C3 H1 1_555 1_555
C4 C3 1_555 1_555
C5 C4 1_555 1_555
H2 C5 1_555 1_555
C6 C5 1_555 1_555
C7 C2 1_555 1_555
H3 C7 1_555 1_555
C8 C6 1_555 1_555
C9 H4 1_555 1_555
H5 C9 1_555 1_555
C10 C9 1_555 1_555
C11 C10 1_555 1_555
H6 C11 1_555 1_555
C12 C11 1_555 1_555
H7 C12 1_555 1_555
C13 C12 1_555 1_555
C14 C13 1_555 1_555
H8 C14 1_555 1_555
C15 C10 1_555 1_555
H9 C15 1_555 1_555
C16 C13 1_555 1_555
C17 H10 1_555 1_555
C18 C17 1_555 1_555
H11 C18 1_555 1_555
C19 H12 1_555 1_555
C20 C19 1_555 1_555
H13 C20 1_555 1_555
C21 C17 1_555 1_555
C22 C21 1_555 1_555
C23 C22 1_555 1_555
H14 C23 1_555 1_555
C24 C23 1_555 1_555
H15 C24 1_555 1_555
C25 H16 1_555 1_555
C26 C22 1_555 1_555
H17 C26 1_555 1_555
N1 C18 1_555 1_555
N2 C24 1_555 1_555
O1 Cd1 1_555 1_555
O2 Cd1 1_555 1_555
O3 C8 1_555 1_555
O4 C8 1_555 1_555
O5 C4 1_555 1_555
O6 C16 1_555 1_555
H18 O6 1_555 1_555
O7 C16 1_555 1_555
O8 Cd1 1_555 1_555
O9 H20 1_555 1_555
H19 O8 1_555 1_555
H21 O8 1_555 1_555
H22 O9 1_555 1_555
Cd1A O3 1_555 1_555
Cd1C N1 1_555 1_555
C8A O3A 1_555 1_555
N1C Cd1 1_555 1_555
O3A Cd1 1_555 1_555
O4A Cd1 1_555 1_555
C1 O1 1_555 1_555
C1 O2 1_555 1_555
C6 C7 1_555 1_555
C9 O5 1_555 1_555
C14 C15 1_555 1_555
C19 N1 1_555 1_555
C20 C21 1_555 1_555
C25 C26 1_555 1_555
C25 N2 1_555 1_555
O4 Cd1A 1_555 1_555
C8A O4A 1_555 1_555

#END
