
#######################################################################
#
#                 Cambridge Crystallographic Data Centre
#                                CCDC 
#
#######################################################################
#
# If this CIF has been generated from an entry in the Cambridge 
# Structural Database, then it will include bibliographic, chemical, 
# crystal, experimental, refinement or atomic coordinate data resulting 
# from the CCDC's data processing and validation procedures.
#
#######################################################################

data_CUXSUK
_symmetry_cell_setting           triclinic
_symmetry_space_group_name_H-M   'P -1'
_symmetry_Int_Tables_number      2
_space_group_name_Hall           '-P 1'
loop_
_symmetry_equiv_pos_site_id
_symmetry_equiv_pos_as_xyz
1 x,y,z
2 -x,-y,-z
_cell_length_a                   8.1950(10)
_cell_length_b                   12.6310(10)
_cell_length_c                   14.2990(10)
_cell_angle_alpha                98.7220(10)
_cell_angle_beta                 97.5150(10)
_cell_angle_gamma                93.2990(10)
_cell_volume                     1445.89
loop_
_atom_site_label
_atom_site_type_symbol
_atom_site_fract_x
_atom_site_fract_y
_atom_site_fract_z
Cd1 Cd 1.5000 0.0000 0.0000
Cd2 Cd 0.50547(2) -0.310745(13) 0.440048(11)
C1 C 1.4246(3) 0.20405(19) 0.04257(17)
C2 C 1.3879(3) 0.31931(18) 0.06169(17)
C3 C 1.4320(3) 0.37997(19) 0.15203(17)
H1 H 1.4928 0.3508 0.2001
C4 C 1.4224(3) 0.54817(19) 0.26960(17)
C5 C 1.3852(3) 0.48405(18) 0.17037(16)
C6 C 1.3010(3) 0.5291(2) 0.09738(17)
H2 H 1.2704 0.5991 0.1097
C7 C 1.2622(3) 0.4704(2) 0.00613(17)
C8 C 1.3034(3) 0.36458(19) -0.01097(17)
H3 H 1.2741 0.3240 -0.0714
C9 C 1.1536(3) 0.6187(2) -0.05976(18)
H4 H 1.2586 0.6614 -0.0445
H5 H 1.0895 0.6372 -0.0080
C10 C 1.0621(3) 0.6418(2) -0.15186(18)
C11 C 0.9689(4) 0.7291(2) -0.15067(19)
H6 H 0.9702 0.7762 -0.0938
C12 C 0.8732(3) 0.7480(2) -0.23293(19)
H7 H 0.8112 0.8075 -0.2305
C13 C 0.8687(3) 0.6799(2) -0.31824(17)
C14 C 0.9683(4) 0.5948(2) -0.3203(2)
H8 H 0.9705 0.5495 -0.3777
C15 C 1.0649(4) 0.5762(2) -0.2380(2)
H9 H 1.1318 0.5191 -0.2410
C16 C 0.7512(3) 0.6923(2) -0.40430(18)
C17 C 1.1601(3) -0.0146(2) 0.0887(2)
H10 H 1.1427 0.0430 0.0560
C18 C 1.0383(3) -0.0468(2) 0.1385(2)
H11 H 0.9420 -0.0113 0.1388
C19 C 1.0598(3) -0.1324(2) 0.18819(17)
C20 C 1.2078(3) -0.1799(2) 0.18521(19)
H12 H 1.2295 -0.2365 0.2184
C21 C 1.3228(3) -0.1431(2) 0.13293(19)
H13 H 1.4203 -0.1771 0.1312
C22 C 0.9342(3) -0.1687(2) 0.24448(17)
C23 C 0.9417(3) -0.2647(2) 0.2803(2)
H14 H 1.0253 -0.3092 0.2674
C24 C 0.8251(3) -0.2941(2) 0.3349(2)
H15 H 0.8337 -0.3583 0.3588
C25 C 0.6926(3) -0.1438(2) 0.3194(2)
H16 H 0.6063 -0.1015 0.3321
C26 C 0.8044(3) -0.1080(2) 0.2650(2)
H17 H 0.7926 -0.0433 0.2421
C27 C 0.3125(4) -0.0886(2) 0.4334(2)
H18 H 0.3971 -0.0720 0.3993
C28 C 0.1939(4) -0.0164(2) 0.4442(2)
H19 H 0.2002 0.0464 0.4180
C29 C 0.0663(3) -0.03731(18) 0.49390(17)
C30 C 0.0683(4) -0.1311(2) 0.5308(2)
H20 H -0.0145 -0.1493 0.5656
C31 C 0.1921(4) -0.1991(2) 0.5168(2)
H21 H 0.1896 -0.2620 0.5431
N1 N 1.3013(3) -0.06118(16) 0.08464(15)
N2 N 0.7003(3) -0.23487(17) 0.35507(15)
N3 N 0.3144(2) -0.17977(16) 0.46800(14)
O1 O 1.5299(2) 0.16858(14) 0.09990(13)
O2 O 1.3498(2) 0.14498(13) -0.03165(12)
O3 O 1.5210(2) 0.51565(14) 0.33104(12)
O4 O 1.3544(2) 0.63448(14) 0.28735(12)
O5 O 1.1802(3) 0.50796(14) -0.07022(13)
O6 O 0.7409(2) 0.62174(14) -0.47736(12)
O7 O 0.6639(2) 0.77062(15) -0.40283(13)
O8 O 0.3506(2) -0.40979(14) 0.52622(14)
H24 H 0.309(3) -0.4745(12) 0.4959(16)
H25 H 0.396(4) -0.426(2) 0.5823(11)
Cd2A Cd 2.49453(2) 0.310745(13) -0.440048(11)
Cd2_2 Cd 1.50547(2) 0.689255(13) 0.440048(11)
Cd2_3 Cd 0.50547(2) 0.689255(13) -0.559952(11)
Cd2A_2 Cd -0.50547(2) 0.310745(13) 0.559952(11)
Cd2A_3 Cd 1.49453(2) -0.689255(13) -0.440048(11)
Cd2A_4 Cd 2.49453(2) -0.689255(13) 0.559952(11)
C1A C 1.5754(3) -0.20405(19) -0.04257(17)
C2A C 1.6121(3) -0.31931(18) -0.06169(17)
C3A C 1.5680(3) -0.37997(19) -0.15203(17)
H1A H 1.5072 -0.3508 -0.2001
C4A C 1.5776(3) -0.54817(19) -0.26960(17)
C5A C 1.6148(3) -0.48405(18) -0.17037(16)
C6A C 1.6990(3) -0.5291(2) -0.09738(17)
H2A H 1.7296 -0.5991 -0.1097
C7A C 1.7378(3) -0.4704(2) -0.00613(17)
C8A C 1.6966(3) -0.36458(19) 0.01097(17)
H3A H 1.7259 -0.3240 0.0714
C9A C 1.8464(3) -0.6187(2) 0.05976(18)
H4A H 1.7414 -0.6614 0.0445
H5A H 1.9105 -0.6372 0.0080
C10A C 1.9379(3) -0.6418(2) 0.15186(18)
C11A C 2.0311(4) -0.7291(2) 0.15067(19)
H6A H 2.0298 -0.7762 0.0938
C12A C 2.1268(3) -0.7480(2) 0.23293(19)
H7A H 2.1888 -0.8075 0.2305
C13A C 2.1313(3) -0.6799(2) 0.31824(17)
C14A C 2.0317(4) -0.5948(2) 0.3203(2)
H8A H 2.0295 -0.5495 0.3777
C15A C 1.9351(4) -0.5762(2) 0.2380(2)
H9A H 1.8682 -0.5191 0.2410
C16A C 2.2488(3) -0.6923(2) 0.40430(18)
C17A C 1.8399(3) 0.0146(2) -0.0887(2)
H10A H 1.8573 -0.0430 -0.0560
C18A C 1.9617(3) 0.0468(2) -0.1385(2)
H11A H 2.0580 0.0113 -0.1388
C19A C 1.9402(3) 0.1324(2) -0.18819(17)
C20A C 1.7922(3) 0.1799(2) -0.18521(19)
H12A H 1.7705 0.2365 -0.2184
C21A C 1.6772(3) 0.1431(2) -0.13293(19)
H13A H 1.5797 0.1771 -0.1312
C22A C 2.0658(3) 0.1687(2) -0.24448(17)
C23A C 2.0583(3) 0.2647(2) -0.2803(2)
H14A H 1.9747 0.3092 -0.2674
C24A C 2.1749(3) 0.2941(2) -0.3349(2)
H15A H 2.1663 0.3583 -0.3588
C25A C 2.3074(3) 0.1438(2) -0.3194(2)
H16A H 2.3937 0.1015 -0.3321
C26A C 2.1956(3) 0.1080(2) -0.2650(2)
H17A H 2.2074 0.0433 -0.2421
C27A C -0.3125(4) 0.0886(2) 0.5666(2)
H18A H -0.3971 0.0720 0.6007
C28A C -0.1939(4) 0.0164(2) 0.5558(2)
H19A H -0.2002 -0.0464 0.5820
C29A C -0.0663(3) 0.03731(18) 0.50610(17)
C30A C -0.0683(4) 0.1311(2) 0.4692(2)
H20A H 0.0145 0.1493 0.4344
C31A C -0.1921(4) 0.1991(2) 0.4832(2)
H21A H -0.1896 0.2620 0.4569
N1A N 1.6987(3) 0.06118(16) -0.08464(15)
N2A N 2.2997(3) 0.23487(17) -0.35507(15)
N3A N -0.3144(2) 0.17977(16) 0.53200(14)
N3A_2 N 2.6856(2) 0.17977(16) -0.46800(14)
O1A O 1.4701(2) -0.16858(14) -0.09990(13)
O2A O 1.6502(2) -0.14498(13) 0.03165(12)
O3A O 1.4790(2) -0.51565(14) -0.33104(12)
O3_2 O 0.5210(2) -0.48435(14) 0.33104(12)
O3A_2 O 2.4790(2) 0.48435(14) -0.33104(12)
O4A O 1.6456(2) -0.63448(14) -0.28735(12)
O4_2 O 0.3544(2) -0.36552(14) 0.28735(12)
O4A_2 O 2.6456(2) 0.36552(14) -0.28735(12)
O5A O 1.8198(3) -0.50796(14) 0.07022(13)
O6A O 2.2591(2) -0.62174(14) 0.47736(12)
O6_2 O 0.7409(2) -0.37826(14) 0.52264(12)
O6A_2 O 2.2591(2) 0.37826(14) -0.52264(12)
O7A O 2.3361(2) -0.77062(15) 0.40283(13)
O7_2 O 0.6639(2) -0.22938(15) 0.59717(13)
O7A_2 O 2.3361(2) 0.22938(15) -0.59717(13)
O8A O 2.6494(2) 0.40979(14) -0.52622(14)
H24A H 2.691(3) 0.4745(12) -0.4959(16)
H25A H 2.604(4) 0.426(2) -0.5823(11)
O9 O 0.5021(4) 0.0788(2) 0.2882(2)
H22 H 0.4531 0.1237 0.3284
H23 H 0.5903 0.1215 0.2813
O10 O 0.7626(14) 0.1497(11) 0.2404(9)
loop_
_geom_bond_atom_site_label_1
_geom_bond_atom_site_label_2
_geom_bond_site_symmetry_1
_geom_bond_site_symmetry_2
Cd1 N1 1_555 1_555
Cd2 N2 1_555 1_555
C1 C2 1_555 1_555
C2 C3 1_555 1_555
C3 H1 1_555 1_555
C4 C5 1_555 1_555
C5 C3 1_555 1_555
C6 C5 1_555 1_555
H2 C6 1_555 1_555
C7 C6 1_555 1_555
C8 C2 1_555 1_555
H3 C8 1_555 1_555
C9 H4 1_555 1_555
H5 C9 1_555 1_555
C10 C9 1_555 1_555
C11 C10 1_555 1_555
H6 C11 1_555 1_555
C12 C11 1_555 1_555
H7 C12 1_555 1_555
C13 C12 1_555 1_555
C14 C13 1_555 1_555
H8 C14 1_555 1_555
C15 C10 1_555 1_555
H9 C15 1_555 1_555
C16 C13 1_555 1_555
C17 H10 1_555 1_555
C18 C17 1_555 1_555
H11 C18 1_555 1_555
C19 C18 1_555 1_555
C20 C19 1_555 1_555
H12 C20 1_555 1_555
C21 C20 1_555 1_555
H13 C21 1_555 1_555
C22 C19 1_555 1_555
C23 C22 1_555 1_555
H14 C23 1_555 1_555
C24 C23 1_555 1_555
H15 C24 1_555 1_555
C25 H16 1_555 1_555
C26 C22 1_555 1_555
H17 C26 1_555 1_555
C27 H18 1_555 1_555
C28 C27 1_555 1_555
H19 C28 1_555 1_555
C29 C28 1_555 1_555
C30 C29 1_555 1_555
H20 C30 1_555 1_555
C31 C30 1_555 1_555
H21 C31 1_555 1_555
N1 C17 1_555 1_555
N2 C24 1_555 1_555
N3 Cd2 1_555 1_555
O1 Cd1 1_555 1_555
O2 Cd1 1_555 1_555
O3 C4 1_555 1_555
O4 C4 1_555 1_555
O5 C7 1_555 1_555
O6 C16 1_555 1_555
O7 C16 1_555 1_555
O8 Cd2 1_555 1_555
O9 H22 1_555 1_555
H23 O9 1_555 1_555
H24 O8 1_555 1_555
H25 O8 1_555 1_555
Cd2A N2A 1_555 1_555
Cd2_2 O3 1_555 1_555
Cd2_3 O6 1_555 1_555
Cd2A_2 N3A 1_555 1_555
Cd2A_3 O3A 1_555 1_555
Cd2A_4 O6A 1_555 1_555
C1A C2A 1_555 1_555
C2A C3A 1_555 1_555
C3A H1A 1_555 1_555
C4A C5A 1_555 1_555
C5A C3A 1_555 1_555
C6A C5A 1_555 1_555
H2A C6A 1_555 1_555
C7A C6A 1_555 1_555
C8A C2A 1_555 1_555
H3A C8A 1_555 1_555
C9A H4A 1_555 1_555
H5A C9A 1_555 1_555
C10A C9A 1_555 1_555
C11A C10A 1_555 1_555
H6A C11A 1_555 1_555
C12A C11A 1_555 1_555
H7A C12A 1_555 1_555
C13A C12A 1_555 1_555
C14A C13A 1_555 1_555
H8A C14A 1_555 1_555
C15A C10A 1_555 1_555
H9A C15A 1_555 1_555
C16A C13A 1_555 1_555
C17A H10A 1_555 1_555
C18A C17A 1_555 1_555
H11A C18A 1_555 1_555
C19A C18A 1_555 1_555
C20A C19A 1_555 1_555
H12A C20A 1_555 1_555
C21A C20A 1_555 1_555
H13A C21A 1_555 1_555
C22A C19A 1_555 1_555
C23A C22A 1_555 1_555
H14A C23A 1_555 1_555
C24A C23A 1_555 1_555
H15A C24A 1_555 1_555
C25A H16A 1_555 1_555
C26A C22A 1_555 1_555
H17A C26A 1_555 1_555
C27A H18A 1_555 1_555
C28A C27A 1_555 1_555
H19A C28A 1_555 1_555
C29A C29 1_555 1_555
C30A C29A 1_555 1_555
H20A C30A 1_555 1_555
C31A C30A 1_555 1_555
H21A C31A 1_555 1_555
N1A Cd1 1_555 1_555
N2A C24A 1_555 1_555
N3A C27A 1_555 1_555
N3A_2 Cd2A 1_555 1_555
O1A Cd1 1_555 1_555
O2A Cd1 1_555 1_555
O3A C4A 1_555 1_555
O3_2 Cd2 1_555 1_555
O3A_2 Cd2A 1_555 1_555
O4A Cd2A_3 1_555 1_555
O4_2 Cd2 1_555 1_555
O4A_2 Cd2A 1_555 1_555
O5A C7A 1_555 1_555
O6A C16A 1_555 1_555
O6_2 Cd2 1_555 1_555
O6A_2 Cd2A 1_555 1_555
O7A Cd2A_4 1_555 1_555
O7_2 Cd2 1_555 1_555
O7A_2 Cd2A 1_555 1_555
O8A Cd2A 1_555 1_555
H24A O8A 1_555 1_555
H25A O8A 1_555 1_555
C1 O1 1_555 1_555
C1 O2 1_555 1_555
C7 C8 1_555 1_555
C9 O5 1_555 1_555
C14 C15 1_555 1_555
C21 N1 1_555 1_555
C25 C26 1_555 1_555
C25 N2 1_555 1_555
C27 N3 1_555 1_555
C31 N3 1_555 1_555
O4 Cd2_2 1_555 1_555
O7 Cd2_3 1_555 1_555
C1A O1A 1_555 1_555
C1A O2A 1_555 1_555
C4A O4A 1_555 1_555
C7A C8A 1_555 1_555
C9A O5A 1_555 1_555
C14A C15A 1_555 1_555
C16A O7A 1_555 1_555
C17A N1A 1_555 1_555
C21A N1A 1_555 1_555
C25A C26A 1_555 1_555
C25A N2A 1_555 1_555
C28A C29A 1_555 1_555
C31A N3A 1_555 1_555

#END
