
#######################################################################
#
#                 Cambridge Crystallographic Data Centre
#                                CCDC 
#
#######################################################################
#
# If this CIF has been generated from an entry in the Cambridge 
# Structural Database, then it will include bibliographic, chemical, 
# crystal, experimental, refinement or atomic coordinate data resulting 
# from the CCDC's data processing and validation procedures.
#
#######################################################################

data_CUXTAR
_symmetry_cell_setting           monoclinic
_symmetry_space_group_name_H-M   'P 21/c'
_symmetry_Int_Tables_number      14
_space_group_name_Hall           '-P 2ybc'
loop_
_symmetry_equiv_pos_site_id
_symmetry_equiv_pos_as_xyz
1 x,y,z
2 -x,1/2+y,1/2-z
3 -x,-y,-z
4 x,1/2-y,1/2+z
_cell_length_a                   11.410(2)
_cell_length_b                   16.341(3)
_cell_length_c                   13.791(3)
_cell_angle_alpha                90
_cell_angle_beta                 98.474(4)
_cell_angle_gamma                90
_cell_volume                     2543.27
loop_
_atom_site_label
_atom_site_type_symbol
_atom_site_fract_x
_atom_site_fract_y
_atom_site_fract_z
Co1 Co 0.45960(4) 0.11699(3) 0.46719(4)
C1 C 0.5298(3) 0.4668(2) 0.1657(3)
C2 C 0.5514(3) 0.4452(2) 0.2718(3)
C3 C 0.5088(3) 0.3714(2) 0.3029(3)
H1 H 0.4645 0.3369 0.2579
C4 C 0.5320(4) 0.3494(3) 0.4001(3)
C5 C 0.5978(4) 0.4008(3) 0.4685(3)
H2 H 0.6115 0.3864 0.5344
C6 C 0.6425(4) 0.4735(3) 0.4372(3)
C7 C 0.6176(4) 0.4962(3) 0.3391(3)
H3 H 0.6455 0.5458 0.3187
C8 C 0.4918(3) 0.2671(3) 0.4300(3)
C9 C 0.7545(5) 0.5025(4) 0.5945(4)
H4 H 0.7859 0.4473 0.5970
H5 H 0.6902 0.5047 0.6333
C10 C 0.8508(5) 0.5629(4) 0.6333(4)
C11 C 0.9689(6) 0.5450(4) 0.6326(5)
H6 H 0.9897 0.4939 0.6106
C12 C 1.0579(6) 0.6019(4) 0.6640(5)
H7 H 1.1370 0.5890 0.6627
C13 C 1.0268(5) 0.6780(3) 0.6972(4)
C14 C 0.9091(5) 0.6965(4) 0.6982(4)
H8 H 0.8883 0.7472 0.7210
C15 C 0.8223(5) 0.6403(4) 0.6656(5)
H9 H 0.7432 0.6543 0.6650
C16 C 1.1188(5) 0.7379(4) 0.7369(4)
C17 C 0.7247(4) 0.1337(4) 0.5450(4)
H10 H 0.6944 0.1500 0.6010
C18 C 0.8454(4) 0.1374(4) 0.5459(4)
H11 H 0.8938 0.1568 0.6013
C19 C 0.8951(3) 0.1127(3) 0.4655(3)
C20 C 0.8172(4) 0.0845(3) 0.3878(3)
H12 H 0.8452 0.0656 0.3319
C21 C 0.6981(4) 0.0841(3) 0.3920(3)
H13 H 0.6478 0.0655 0.3372
C22 C 1.0250(3) 0.1164(3) 0.4646(3)
C23 C 1.0769(4) 0.0853(4) 0.3896(4)
H14 H 1.0300 0.0619 0.3359
C24 C 1.1973(4) 0.0883(4) 0.3925(4)
H15 H 1.2293 0.0648 0.3409
C25 C 1.2208(4) 0.1536(4) 0.5345(5)
H16 H 1.2697 0.1782 0.5863
C26 C 1.1013(4) 0.1528(5) 0.5377(4)
H17 H 1.0719 0.1771 0.5901
H18 H 1.264(2) 0.754(4) 0.761(5)
N1 N 0.6495(3) 0.1082(2) 0.4686(3)
N2 N 1.2706(3) 0.1224(2) 0.4638(3)
O1 O 0.5709(2) 0.53442(17) 0.1409(2)
O2 O 0.4723(2) 0.41699(17) 0.1081(2)
O3 O 0.4594(3) 0.21499(17) 0.3636(2)
O4 O 0.4942(3) 0.24827(17) 0.5187(2)
O5 O 0.7139(3) 0.5258(2) 0.4961(2)
O6 O 1.2275(4) 0.7182(3) 0.7215(3)
O7 O 1.0985(4) 0.7995(3) 0.7807(3)
Co1_2 Co 1.45960(4) 0.11699(3) 0.46719(4)
Co1A Co 0.54040(4) 0.61699(3) 0.03281(4)
Co1C Co 0.45960(4) 0.38301(3) -0.03281(4)
N2_2 N 0.2706(3) 0.1224(2) 0.4638(3)
O1A O 0.4291(2) 0.03442(17) 0.3591(2)
O2C O 0.4723(2) 0.08301(17) 0.6081(2)
H19 H 0.553(4) 0.289(3) 0.647(2)
H20 H 0.541(4) 0.300(4) 0.746(3)
O8 O 0.5898(3) 0.3090(2) 0.7031(3)
loop_
_geom_bond_atom_site_label_1
_geom_bond_atom_site_label_2
_geom_bond_site_symmetry_1
_geom_bond_site_symmetry_2
Co1 N1 1_555 1_555
C1 C2 1_555 1_555
C2 C3 1_555 1_555
C3 H1 1_555 1_555
C4 C3 1_555 1_555
C5 C4 1_555 1_555
H2 C5 1_555 1_555
C6 C5 1_555 1_555
C7 C2 1_555 1_555
H3 C7 1_555 1_555
C8 C4 1_555 1_555
C9 H4 1_555 1_555
H5 C9 1_555 1_555
C10 C9 1_555 1_555
C11 C10 1_555 1_555
H6 C11 1_555 1_555
C12 C11 1_555 1_555
H7 C12 1_555 1_555
C13 C12 1_555 1_555
C14 C13 1_555 1_555
H8 C14 1_555 1_555
C15 C10 1_555 1_555
H9 C15 1_555 1_555
C16 C13 1_555 1_555
C17 H10 1_555 1_555
C18 C17 1_555 1_555
H11 C18 1_555 1_555
C19 C18 1_555 1_555
C20 C19 1_555 1_555
H12 C20 1_555 1_555
C21 C20 1_555 1_555
H13 C21 1_555 1_555
C22 C19 1_555 1_555
C23 C22 1_555 1_555
H14 C23 1_555 1_555
C24 C23 1_555 1_555
H15 C24 1_555 1_555
C25 H16 1_555 1_555
C26 C22 1_555 1_555
H17 C26 1_555 1_555
H18 O6 1_555 1_555
H19 O8 1_555 1_555
H20 O8 1_555 1_555
N1 C17 1_555 1_555
N2 C24 1_555 1_555
O1 C1 1_555 1_555
O2 C1 1_555 1_555
O3 Co1 1_555 1_555
O4 Co1 1_555 1_555
O5 C6 1_555 1_555
O6 C16 1_555 1_555
O7 C16 1_555 1_555
Co1_2 N2 1_555 1_555
Co1A O1 1_555 1_555
Co1C O2 1_555 1_555
N2_2 Co1 1_555 1_555
O1A Co1 1_555 1_555
O2C Co1 1_555 1_555
C6 C7 1_555 1_555
C8 O3 1_555 1_555
C8 O4 1_555 1_555
C9 O5 1_555 1_555
C14 C15 1_555 1_555
C21 N1 1_555 1_555
C25 C26 1_555 1_555
C25 N2 1_555 1_555

#END
