
#######################################################################
#
#                 Cambridge Crystallographic Data Centre
#                                CCDC 
#
#######################################################################
#
# If this CIF has been generated from an entry in the Cambridge 
# Structural Database, then it will include bibliographic, chemical, 
# crystal, experimental, refinement or atomic coordinate data resulting 
# from the CCDC's data processing and validation procedures.
#
#######################################################################

data_CUXTIZ
_symmetry_cell_setting           monoclinic
_symmetry_space_group_name_H-M   'P 21/c'
_symmetry_Int_Tables_number      14
_space_group_name_Hall           '-P 2ybc'
loop_
_symmetry_equiv_pos_site_id
_symmetry_equiv_pos_as_xyz
1 x,y,z
2 -x,1/2+y,1/2-z
3 -x,-y,-z
4 x,1/2-y,1/2+z
_cell_length_a                   10.001(2)
_cell_length_b                   20.682(3)
_cell_length_c                   13.341(2)
_cell_angle_alpha                90
_cell_angle_beta                 90.525(6)
_cell_angle_gamma                90
_cell_volume                     2759.35
loop_
_atom_site_label
_atom_site_type_symbol
_atom_site_fract_x
_atom_site_fract_y
_atom_site_fract_z
Zn1 Zn 0.30927(4) 0.246980(18) 0.21327(3)
C1 C 0.8728(4) -0.15472(18) -0.2702(3)
C2 C 0.9485(4) -0.09308(17) -0.2526(3)
C3 C 1.0809(4) -0.08900(17) -0.2814(3)
H1 H 1.1218 -0.1244 -0.3114
C4 C 1.1526(4) -0.03262(17) -0.2660(3)
C5 C 1.0926(4) 0.02081(18) -0.2212(3)
H2 H 1.1407 0.0587 -0.2107
C6 C 0.9600(4) 0.01644(18) -0.1928(3)
C7 C 0.8889(4) -0.04030(19) -0.2089(3)
H3 H 0.7998 -0.0427 -0.1899
C8 C 1.2931(4) -0.02794(19) -0.3017(3)
C9 C 0.9415(5) 0.1262(2) -0.1360(4)
H4 H 0.9597 0.1466 -0.1998
H5 H 1.0245 0.1231 -0.0981
C10 C 0.8394(4) 0.16479(19) -0.0783(3)
C11 C 0.8072(4) 0.1459(2) 0.0181(3)
H6 H 0.8532 0.1119 0.0482
C12 C 0.7064(4) 0.1775(2) 0.0705(3)
H7 H 0.6844 0.1639 0.1347
C13 C 0.6394(4) 0.22876(18) 0.0272(3)
C14 C 0.6751(4) 0.24863(18) -0.0679(3)
H8 H 0.6326 0.2841 -0.0969
C15 C 0.7731(4) 0.2164(2) -0.1203(3)
H9 H 0.7946 0.2298 -0.1847
C16 C 0.5267(4) 0.2600(2) 0.0818(4)
C17 C 0.1751(4) 0.35373(19) 0.1031(3)
H10 H 0.2510 0.3794 0.1097
C18 C 0.0399(4) 0.2725(2) 0.1071(3)
H11 H 0.0062 0.2311 0.1175
C19 C -0.0284(4) 0.3222(2) 0.0655(3)
H12 H -0.1167 0.3217 0.0430
C20 C 0.0286(4) 0.4378(2) 0.0299(3)
C21 C 0.1260(4) 0.4740(2) -0.0173(3)
H13 H 0.2100 0.4564 -0.0288
C22 C -0.0977(4) 0.4637(2) 0.0473(3)
H14 H -0.1626 0.4390 0.0789
C23 C 0.4114(4) 0.35394(17) 0.3441(3)
H15 H 0.4719 0.3681 0.2964
C24 C 0.2627(4) 0.29802(18) 0.4221(3)
H16 H 0.2011 0.2658 0.4370
C25 C 0.2938(4) 0.34792(18) 0.4816(3)
H17 H 0.2585 0.3568 0.5443
C26 C 0.4465(4) 0.44325(16) 0.4655(3)
C27 C 0.4933(7) 0.4872(3) 0.3979(5)
H18 H 0.4904 0.4781 0.3296
C28 C 0.4551(7) 0.4548(3) 0.5684(5)
H19 H 0.4263 0.4237 0.6137
N1 N 0.1681(3) 0.29282(15) 0.1317(2)
N2 N 0.0580(3) 0.37396(16) 0.0631(2)
N3 N 0.3359(3) 0.30175(14) 0.3351(2)
N4 N 0.3885(3) 0.38357(13) 0.4317(2)
O1 O 0.7549(3) -0.15804(12) -0.2322(2)
O2 O 0.9250(3) -0.19861(14) -0.3167(2)
O3 O 1.3527(3) 0.02248(14) -0.3090(3)
O4 O 1.3440(3) -0.08413(14) -0.3246(3)
H20 H 1.4208 -0.0793 -0.3441
O5 O 0.8869(3) 0.06523(14) -0.1507(3)
O6 O 0.4809(3) 0.22821(15) 0.1548(2)
O7 O 0.4811(3) 0.31285(15) 0.0537(3)
Zn1B Zn -0.30927(4) 0.753020(18) -0.21327(3)
Zn1_2 Zn -0.69073(4) 1.246980(18) 0.21327(3)
Zn1B_2 Zn 0.69073(4) -0.246980(18) -0.21327(3)
Zn1B_3 Zn 0.69073(4) 0.753020(18) 0.78673(3)
C1B C -0.8728(4) 1.15472(18) 0.2702(3)
C2B C -0.9485(4) 1.09308(17) 0.2526(3)
C3B C -1.0809(4) 1.08900(17) 0.2814(3)
H1B H -1.1218 1.1244 0.3114
C4B C -1.1526(4) 1.03262(17) 0.2660(3)
C5B C -1.0926(4) 0.97919(18) 0.2212(3)
H2B H -1.1407 0.9413 0.2107
C6B C -0.9600(4) 0.98356(18) 0.1928(3)
C7B C -0.8889(4) 1.04030(19) 0.2089(3)
H3B H -0.7998 1.0427 0.1899
C8B C -1.2931(4) 1.02794(19) 0.3017(3)
C9B C -0.9415(5) 0.8738(2) 0.1360(4)
H4B H -0.9597 0.8534 0.1998
H5B H -1.0245 0.8769 0.0981
C10B C -0.8394(4) 0.83521(19) 0.0783(3)
C11B C -0.8072(4) 0.8541(2) -0.0181(3)
H6B H -0.8532 0.8881 -0.0482
C12B C -0.7064(4) 0.8225(2) -0.0705(3)
H7B H -0.6844 0.8361 -0.1347
C13B C -0.6394(4) 0.77124(18) -0.0272(3)
C14B C -0.6751(4) 0.75137(18) 0.0679(3)
H8B H -0.6326 0.7159 0.0969
C15B C -0.7731(4) 0.7836(2) 0.1203(3)
H9B H -0.7946 0.7702 0.1847
C16B C -0.5267(4) 0.7400(2) -0.0818(4)
C17B C -0.1751(4) 0.64627(19) -0.1031(3)
H10B H -0.2510 0.6206 -0.1097
C18B C -0.0399(4) 0.7275(2) -0.1071(3)
H11B H -0.0062 0.7689 -0.1175
C19B C 0.0284(4) 0.6778(2) -0.0655(3)
H12B H 0.1167 0.6783 -0.0430
C20B C -0.0286(4) 0.5622(2) -0.0299(3)
C21B C -0.1260(4) 0.5260(2) 0.0173(3)
H13B H -0.2100 0.5436 0.0288
C22B C 0.0977(4) 0.5363(2) -0.0473(3)
H14B H 0.1626 0.5610 -0.0789
C23B C 0.5886(4) 0.64606(17) 0.6559(3)
H15B H 0.5281 0.6319 0.7036
C24B C 0.7373(4) 0.70198(18) 0.5779(3)
H16B H 0.7989 0.7342 0.5630
C25B C 0.7062(4) 0.65208(18) 0.5184(3)
H17B H 0.7415 0.6432 0.4557
C26B C 0.5535(4) 0.55675(16) 0.5345(3)
C27B C 0.5067(7) 0.5128(3) 0.6021(5)
H18B H 0.5096 0.5219 0.6704
C28B C 0.5449(7) 0.5452(3) 0.4316(5)
H19B H 0.5737 0.5763 0.3863
N1B N -0.1681(3) 0.70718(15) -0.1317(2)
N2B N -0.0580(3) 0.62604(16) -0.0631(2)
N3B N 0.6641(3) 0.69825(14) 0.6649(2)
N3B_2 N -0.3359(3) 0.69825(14) -0.3351(2)
N4B N 0.6115(3) 0.61643(13) 0.5683(2)
O1B O -0.7549(3) 1.15804(12) 0.2322(2)
O1_2 O -0.2451(3) 0.84196(12) -0.2322(2)
O1B_2 O 0.2451(3) 0.15804(12) 0.2322(2)
O2B O -0.9250(3) 1.19861(14) 0.3167(2)
O3B O -1.3527(3) 0.97752(14) 0.3090(3)
O4B O -1.3440(3) 1.08413(14) 0.3246(3)
H20B H -1.4208 1.0793 0.3441
O5B O -0.8869(3) 0.93477(14) 0.1507(3)
O6B O -0.4809(3) 0.77179(15) -0.1548(2)
O7B O -0.4811(3) 0.68715(15) -0.0537(3)
O8 O 0.5837(3) 0.89505(18) 0.6088(3)
O9 O 0.6119(5) 0.4190(3) 0.1500(6)
C29? C 0.5763(8) 0.4562(4) 0.4443(7)
C30? C 0.3686(8) 0.4867(4) 0.5194(7)
H21? H 0.6269 0.4276 0.4065
H22? H 0.2791 0.4775 0.5310
loop_
_geom_bond_atom_site_label_1
_geom_bond_atom_site_label_2
_geom_bond_site_symmetry_1
_geom_bond_site_symmetry_2
Zn1 N1 1_555 1_555
C1 C2 1_555 1_555
C2 C3 1_555 1_555
C3 H1 1_555 1_555
C4 C3 1_555 1_555
C5 C4 1_555 1_555
H2 C5 1_555 1_555
C6 C5 1_555 1_555
C7 C2 1_555 1_555
H3 C7 1_555 1_555
C8 C4 1_555 1_555
C9 H4 1_555 1_555
H5 C9 1_555 1_555
C10 C9 1_555 1_555
C11 C10 1_555 1_555
H6 C11 1_555 1_555
C12 C11 1_555 1_555
H7 C12 1_555 1_555
C13 C12 1_555 1_555
C14 C13 1_555 1_555
H8 C14 1_555 1_555
C15 C10 1_555 1_555
H9 C15 1_555 1_555
C16 C13 1_555 1_555
C17 H10 1_555 1_555
C18 H11 1_555 1_555
C19 C18 1_555 1_555
H12 C19 1_555 1_555
C20 C21 1_555 1_555
C21 H13 1_555 1_555
C22 C20 1_555 1_555
H14 C22 1_555 1_555
C23 H15 1_555 1_555
C24 H16 1_555 1_555
C25 C24 1_555 1_555
H17 C25 1_555 1_555
C26 C27 1_555 1_555
C27 H18 1_555 1_555
C28 C26 1_555 1_555
H19 C28 1_555 1_555
N1 C17 1_555 1_555
N2 C17 1_555 1_555
N3 Zn1 1_555 1_555
N4 C23 1_555 1_555
O1 C1 1_555 1_555
O2 C1 1_555 1_555
O3 C8 1_555 1_555
O4 C8 1_555 1_555
H20 O4 1_555 1_555
O5 C6 1_555 1_555
O6 Zn1 1_555 1_555
O7 C16 1_555 1_555
Zn1B N1B 1_555 1_555
Zn1_2 O1B 1_555 1_555
Zn1B_2 O1 1_555 1_555
Zn1B_3 N3B 1_555 1_555
C1B C2B 1_555 1_555
C2B C3B 1_555 1_555
C3B H1B 1_555 1_555
C4B C3B 1_555 1_555
C5B C4B 1_555 1_555
H2B C5B 1_555 1_555
C6B C5B 1_555 1_555
C7B C2B 1_555 1_555
H3B C7B 1_555 1_555
C8B C4B 1_555 1_555
C9B H4B 1_555 1_555
H5B C9B 1_555 1_555
C10B C9B 1_555 1_555
C11B C10B 1_555 1_555
H6B C11B 1_555 1_555
C12B C11B 1_555 1_555
H7B C12B 1_555 1_555
C13B C12B 1_555 1_555
C14B C13B 1_555 1_555
H8B C14B 1_555 1_555
C15B C10B 1_555 1_555
H9B C15B 1_555 1_555
C16B C13B 1_555 1_555
C17B H10B 1_555 1_555
C18B H11B 1_555 1_555
C19B C18B 1_555 1_555
H12B C19B 1_555 1_555
C20B C21B 1_555 1_555
C21B C22 1_555 1_555
H13B C21B 1_555 1_555
C22B C21 1_555 1_555
H14B C22B 1_555 1_555
C23B H15B 1_555 1_555
C24B H16B 1_555 1_555
C25B C24B 1_555 1_555
H17B C25B 1_555 1_555
C26B C27B 1_555 1_555
C27B C28 1_555 1_555
H18B C27B 1_555 1_555
C28B C27 1_555 1_555
H19B C28B 1_555 1_555
N1B C17B 1_555 1_555
N2B C17B 1_555 1_555
N3B C23B 1_555 1_555
N3B_2 Zn1B 1_555 1_555
N4B C23B 1_555 1_555
O1B C1B 1_555 1_555
O1_2 Zn1B 1_555 1_555
O1B_2 Zn1 1_555 1_555
O2B C1B 1_555 1_555
O3B C8B 1_555 1_555
O4B C8B 1_555 1_555
H20B O4B 1_555 1_555
O5B C6B 1_555 1_555
O6B Zn1B 1_555 1_555
O7B C16B 1_555 1_555
C6 C7 1_555 1_555
C9 O5 1_555 1_555
C14 C15 1_555 1_555
C16 O6 1_555 1_555
C18 N1 1_555 1_555
C19 N2 1_555 1_555
C20 N2 1_555 1_555
C23 N3 1_555 1_555
C24 N3 1_555 1_555
C25 N4 1_555 1_555
C26 N4 1_555 1_555
C6B C7B 1_555 1_555
C9B O5B 1_555 1_555
C14B C15B 1_555 1_555
C16B O6B 1_555 1_555
C18B N1B 1_555 1_555
C19B N2B 1_555 1_555
C20B C22B 1_555 1_555
C20B N2B 1_555 1_555
C24B N3B 1_555 1_555
C25B N4B 1_555 1_555
C26B C28B 1_555 1_555
C26B N4B 1_555 1_555

#END
