
#######################################################################
#
#                 Cambridge Crystallographic Data Centre
#                                CCDC 
#
#######################################################################
#
# If this CIF has been generated from an entry in the Cambridge 
# Structural Database, then it will include bibliographic, chemical, 
# crystal, experimental, refinement or atomic coordinate data resulting 
# from the CCDC's data processing and validation procedures.
#
#######################################################################

data_CUXTUL
_symmetry_cell_setting           monoclinic
_symmetry_space_group_name_H-M   'P 21/c'
_symmetry_Int_Tables_number      14
_space_group_name_Hall           '-P 2ybc'
loop_
_symmetry_equiv_pos_site_id
_symmetry_equiv_pos_as_xyz
1 x,y,z
2 -x,1/2+y,1/2-z
3 -x,-y,-z
4 x,1/2-y,1/2+z
_cell_length_a                   8.4509(3)
_cell_length_b                   16.1974(4)
_cell_length_c                   9.8423(4)
_cell_angle_alpha                90
_cell_angle_beta                 106.324(4)
_cell_angle_gamma                90
_cell_volume                     1292.93
loop_
_atom_site_label
_atom_site_type_symbol
_atom_site_fract_x
_atom_site_fract_y
_atom_site_fract_z
Cu1 Cu 0.57245(5) 1.02879(2) 0.63561(5)
I1 I 0.25297(3) 1.045548(12) 0.51166(3)
C1 C 0.7144(5) 0.9962(2) 0.9384(5)
H1 H 0.7514 1.0496 0.9305
C2 C 0.7616(5) 0.9599(2) 1.0689(4)
H2 H 0.8294 0.9873 1.1467
C3 C 0.7051(5) 0.8814(2) 1.0808(4)
H3 H 0.7322 0.8548 1.1680
C4 C 0.6101(5) 0.8433(2) 0.9647(4)
H4 H 0.5720 0.7900 0.9715
C5 C 0.5696(4) 0.88293(18) 0.8367(4)
C6 C 0.4706(4) 0.84203(17) 0.7033(4)
H5 H 0.3962 0.8822 0.6455
H6 H 0.5443 0.8228 0.6502
C7 C 0.2357(4) 0.77454(17) 0.7727(4)
C8 C 0.1217(5) 0.83700(19) 0.7708(4)
H7 H 0.1309 0.8892 0.7342
C9 C -0.0040(5) 0.8167(2) 0.8259(4)
H8 H -0.0824 0.8566 0.8280
C10 C -0.0196(5) 0.7372(2) 0.8799(4)
H9 H -0.1052 0.7267 0.9198
C11 C 0.0887(5) 0.67540(18) 0.8746(4)
H10 H 0.0754 0.6223 0.9056
C12 C 0.2203(4) 0.69551(17) 0.8207(4)
N1 N 0.6192(3) 0.96089(15) 0.8214(3)
N2 N 0.3755(3) 0.77259(14) 0.7316(3)
N3 N 0.4450(3) 0.69672(14) 0.7547(3)
N4 N 0.3508(3) 0.64939(13) 0.8063(3)
Cu1B Cu 0.42755(5) 0.97121(2) 0.36439(5)
Cu1A Cu 0.42755(5) 0.52879(2) 0.86439(5)
Cu1C Cu 0.57245(5) 1.47121(2) 0.13561(5)
I1B I 0.74703(3) 0.954452(12) 0.48834(3)
C1B C 0.2856(5) 1.0038(2) 0.0616(5)
H1B H 0.2486 0.9504 0.0695
C2B C 0.2384(5) 1.0401(2) -0.0689(4)
H2B H 0.1706 1.0127 -0.1467
C3B C 0.2949(5) 1.1186(2) -0.0808(4)
H3B H 0.2678 1.1452 -0.1680
C4B C 0.3899(5) 1.1567(2) 0.0353(4)
H4B H 0.4280 1.2100 0.0285
C5B C 0.4304(4) 1.11707(18) 0.1633(4)
C6B C 0.5294(4) 1.15797(17) 0.2967(4)
H5B H 0.6038 1.1178 0.3545
H6B H 0.4557 1.1772 0.3498
C7B C 0.7643(4) 1.22546(17) 0.2273(4)
C8B C 0.8783(5) 1.16300(19) 0.2292(4)
H7B H 0.8691 1.1108 0.2658
C9B C 1.0040(5) 1.1833(2) 0.1741(4)
H8B H 1.0824 1.1434 0.1720
C10B C 1.0196(5) 1.2628(2) 0.1201(4)
H9B H 1.1052 1.2733 0.0802
C11B C 0.9113(5) 1.32460(18) 0.1254(4)
H10B H 0.9246 1.3777 0.0944
C12B C 0.7797(4) 1.30449(17) 0.1793(4)
N1B N 0.3808(3) 1.03911(15) 0.1786(3)
N2B N 0.6245(3) 1.22741(14) 0.2684(3)
N3B N 0.5550(3) 1.30328(14) 0.2453(3)
N4B N 0.6492(3) 1.35061(13) 0.1937(3)
N4A N 0.6492(3) 1.14939(13) 0.6937(3)
N4C N 0.3508(3) 0.85061(13) 0.3063(3)
loop_
_geom_bond_atom_site_label_1
_geom_bond_atom_site_label_2
_geom_bond_site_symmetry_1
_geom_bond_site_symmetry_2
Cu1 I1 1_555 1_555
I1 Cu1B 1_555 1_555
C1 H1 1_555 1_555
C2 C1 1_555 1_555
H2 C2 1_555 1_555
C3 C2 1_555 1_555
H3 C3 1_555 1_555
C4 C3 1_555 1_555
H4 C4 1_555 1_555
C5 C4 1_555 1_555
C6 C5 1_555 1_555
H5 C6 1_555 1_555
H6 C6 1_555 1_555
C7 C8 1_555 1_555
C8 H7 1_555 1_555
C9 C8 1_555 1_555
H8 C9 1_555 1_555
C10 C9 1_555 1_555
H9 C10 1_555 1_555
C11 C10 1_555 1_555
H10 C11 1_555 1_555
C12 C7 1_555 1_555
N1 Cu1 1_555 1_555
N2 C6 1_555 1_555
N3 N2 1_555 1_555
N4 C12 1_555 1_555
Cu1B Cu1 1_555 1_555
Cu1A N4 1_555 1_555
Cu1C N4B 1_555 1_555
I1B Cu1 1_555 1_555
C1B H1B 1_555 1_555
C2B C1B 1_555 1_555
H2B C2B 1_555 1_555
C3B C2B 1_555 1_555
H3B C3B 1_555 1_555
C4B C3B 1_555 1_555
H4B C4B 1_555 1_555
C5B C4B 1_555 1_555
C6B C5B 1_555 1_555
H5B C6B 1_555 1_555
H6B C6B 1_555 1_555
C7B C8B 1_555 1_555
C8B H7B 1_555 1_555
C9B C8B 1_555 1_555
H8B C9B 1_555 1_555
C10B C9B 1_555 1_555
H9B C10B 1_555 1_555
C11B C10B 1_555 1_555
H10B C11B 1_555 1_555
C12B C7B 1_555 1_555
N1B Cu1B 1_555 1_555
N2B C6B 1_555 1_555
N3B N2B 1_555 1_555
N4B C12B 1_555 1_555
N4A Cu1 1_555 1_555
N4C Cu1B 1_555 1_555
C1 N1 1_555 1_555
C5 N1 1_555 1_555
C7 N2 1_555 1_555
C11 C12 1_555 1_555
N3 N4 1_555 1_555
Cu1B I1B 1_555 1_555
C1B N1B 1_555 1_555
C5B N1B 1_555 1_555
C7B N2B 1_555 1_555
C11B C12B 1_555 1_555
N3B N4B 1_555 1_555

#END
