
#######################################################################
#
#                 Cambridge Crystallographic Data Centre
#                                CCDC 
#
#######################################################################
#
# If this CIF has been generated from an entry in the Cambridge 
# Structural Database, then it will include bibliographic, chemical, 
# crystal, experimental, refinement or atomic coordinate data resulting 
# from the CCDC's data processing and validation procedures.
#
#######################################################################

data_CUXVEX
_symmetry_cell_setting           orthorhombic
_symmetry_space_group_name_H-M   'P 21 21 21'
_symmetry_Int_Tables_number      19
_space_group_name_Hall           'P 2ac 2ab'
loop_
_symmetry_equiv_pos_site_id
_symmetry_equiv_pos_as_xyz
1 x,y,z
2 1/2-x,-y,1/2+z
3 -x,1/2+y,1/2-z
4 1/2+x,1/2-y,-z
_cell_length_a                   7.5406(6)
_cell_length_b                   12.2655(10)
_cell_length_c                   18.3740(16)
_cell_angle_alpha                90
_cell_angle_beta                 90
_cell_angle_gamma                90
_cell_volume                     1699.4
loop_
_atom_site_label
_atom_site_type_symbol
_atom_site_fract_x
_atom_site_fract_y
_atom_site_fract_z
Cu1 Cu 0.5693(3) 0.72363(15) 0.27236(12)
Cu2 Cu 0.5764(3) 1.00287(16) 0.27993(12)
Cu3 Cu 0.4156(3) 0.87079(17) 0.17895(10)
C1 C 0.580(2) 1.0449(11) 0.4709(9)
H1 H 0.6340 1.0897 0.4334
H2 H 0.6517 1.0509 0.5145
C2 C 0.393(2) 1.0864(11) 0.4866(9)
C3 C 0.285(2) 1.1239(13) 0.4310(9)
H3 H 0.3264 1.1271 0.3834
C4 C 0.119(2) 1.1556(13) 0.4467(11)
H4 H 0.0437 1.1794 0.4099
C5 C 0.059(2) 1.1527(11) 0.5194(9)
H5 H -0.0566 1.1733 0.5296
C6 C 0.328(2) 1.0896(10) 0.5574(10)
H6 H 0.4019 1.0684 0.5953
C7 C 0.558(2) 0.8409(13) 0.4883(10)
C8 C 0.553(2) 0.8220(13) 0.5641(10)
H7 H 0.5657 0.8786 0.5974
C9 C 0.529(2) 0.7170(14) 0.5864(11)
H8 H 0.5163 0.7018 0.6357
C10 C 0.522(2) 0.6328(17) 0.5361(10)
H9 H 0.5140 0.5616 0.5532
C11 C 0.527(2) 0.6491(13) 0.4652(9)
H10 H 0.5166 0.5910 0.4330
C12 C 0.547(2) 0.7570(12) 0.4391(10)
N1 N 0.576(2) 0.9308(10) 0.4467(7)
N2 N 0.5724(17) 0.9057(9) 0.3764(7)
N3 N 0.5610(18) 0.7993(8) 0.3704(8)
N4 N 0.1621(16) 1.1220(10) 0.5732(8)
I1 I 0.75897(17) 0.87261(7) 0.19190(5)
I2 I 0.2449(2) 1.04060(6) 0.23668(5)
I3 I 0.2473(2) 0.68753(6) 0.21917(5)
Cu1B Cu 0.4307(3) 1.22363(15) 0.22764(12)
Cu2B Cu 0.4236(3) 0.50287(16) 0.22007(12)
Cu3A Cu 0.0844(3) 1.12921(17) 0.67895(10)
N4A N 0.3379(16) 0.8780(10) 0.0732(8)
I2B I 0.7551(2) 0.54060(6) 0.26332(5)
I3B I 0.7527(2) 1.18753(6) 0.28083(5)
loop_
_geom_bond_atom_site_label_1
_geom_bond_atom_site_label_2
_geom_bond_site_symmetry_1
_geom_bond_site_symmetry_2
Cu1 Cu3 1_555 1_555
Cu2 Cu3 1_555 1_555
Cu3 I1 1_555 1_555
C1 H1 1_555 1_555
H2 C1 1_555 1_555
C2 C1 1_555 1_555
C3 C2 1_555 1_555
H3 C3 1_555 1_555
C4 C3 1_555 1_555
H4 C4 1_555 1_555
C5 C4 1_555 1_555
H5 C5 1_555 1_555
C6 C2 1_555 1_555
H6 C6 1_555 1_555
C7 C8 1_555 1_555
C8 H7 1_555 1_555
C9 C8 1_555 1_555
H8 C9 1_555 1_555
C10 C9 1_555 1_555
H9 C10 1_555 1_555
C11 C10 1_555 1_555
H10 C11 1_555 1_555
C12 C7 1_555 1_555
N1 C1 1_555 1_555
N2 Cu2 1_555 1_555
N3 Cu1 1_555 1_555
N4 C5 1_555 1_555
I1 Cu1 1_555 1_555
I2 Cu2 1_555 1_555
I3 Cu1 1_555 1_555
Cu1B I2 1_555 1_555
Cu2B I3 1_555 1_555
Cu3A N4 1_555 1_555
N4A Cu3 1_555 1_555
I2B Cu1 1_555 1_555
I3B Cu2 1_555 1_555
Cu2 I1 1_555 1_555
Cu3 I2 1_555 1_555
Cu3 I3 1_555 1_555
C6 N4 1_555 1_555
C7 N1 1_555 1_555
C11 C12 1_555 1_555
C12 N3 1_555 1_555
N1 N2 1_555 1_555
N2 N3 1_555 1_555
Cu1B I3B 1_555 1_555
Cu2B I2B 1_555 1_555

#END
