
#######################################################################
#
#                 Cambridge Crystallographic Data Centre
#                                CCDC 
#
#######################################################################
#
# If this CIF has been generated from an entry in the Cambridge 
# Structural Database, then it will include bibliographic, chemical, 
# crystal, experimental, refinement or atomic coordinate data resulting 
# from the CCDC's data processing and validation procedures.
#
#######################################################################

data_CUXVAT
_symmetry_cell_setting           monoclinic
_symmetry_space_group_name_H-M   'C 2/c'
_symmetry_Int_Tables_number      15
_space_group_name_Hall           '-C 2yn'
loop_
_symmetry_equiv_pos_site_id
_symmetry_equiv_pos_as_xyz
1 x,y,z
2 -x,y,1/2-z
3 1/2+x,1/2+y,z
4 1/2-x,1/2+y,1/2-z
5 -x,-y,-z
6 x,-y,1/2+z
7 1/2-x,1/2-y,-z
8 1/2+x,1/2-y,1/2+z
_cell_length_a                   11.8984(13)
_cell_length_b                   16.3498(17)
_cell_length_c                   15.6505(17)
_cell_angle_alpha                90
_cell_angle_beta                 95.5310(10)
_cell_angle_gamma                90
_cell_volume                     3030.42
loop_
_atom_site_label
_atom_site_type_symbol
_atom_site_fract_x
_atom_site_fract_y
_atom_site_fract_z
Cu1 Cu 0.27192(8) -0.20736(5) 0.08381(7)
Cu2 Cu 0.09179(8) -0.04542(6) 0.01718(7)
I1 I 0.07170(4) -0.21030(3) -0.00631(3)
I2 I -0.05457(4) -0.02800(3) 0.13041(3)
C1 C 0.4314(6) -0.0601(4) 0.1104(5)
C2 C 0.5320(6) -0.1016(5) 0.1411(5)
H1 H 0.5331 -0.1577 0.1511
C3 C 0.6266(6) -0.0551(5) 0.1551(6)
H2 H 0.6942 -0.0803 0.1750
C4 C 0.6257(7) 0.0299(5) 0.1405(6)
H3 H 0.6931 0.0587 0.1501
C5 C 0.5290(7) 0.0718(5) 0.1127(6)
H4 H 0.5285 0.1281 0.1038
C6 C 0.4315(6) 0.0243(4) 0.0987(5)
C7 C 0.2724(7) 0.1239(4) 0.0548(5)
H5 H 0.1991 0.1182 0.0224
H6 H 0.3201 0.1562 0.0208
C8 C 0.2589(6) 0.1678(4) 0.1387(5)
C9 C 0.1771(6) 0.1428(4) 0.1901(5)
H7 H 0.1281 0.1003 0.1727
C10 C 0.1691(6) 0.1814(5) 0.2670(5)
H8 H 0.1123 0.1648 0.3000
C11 C 0.3151(7) 0.2676(5) 0.2474(5)
H9 H 0.3624 0.3106 0.2660
C12 C 0.3277(7) 0.2325(4) 0.1673(5)
H10 H 0.3818 0.2524 0.1336
N1 N 0.2389(5) 0.2423(3) 0.2978(4)
N2 N 0.3244(5) -0.0886(3) 0.0900(4)
N3 N 0.2591(5) -0.0259(3) 0.0664(4)
N4 N 0.3228(5) 0.0427(3) 0.0706(4)
Cu1D Cu -0.27192(8) 0.20736(5) -0.08381(7)
Cu1B Cu -0.22808(8) 0.29264(5) 0.08381(7)
Cu1C Cu 0.22808(8) 0.29264(5) 0.41619(7)
Cu1F Cu 0.22808(8) -0.29264(5) -0.08381(7)
Cu1G Cu -0.22808(8) -0.29264(5) -0.41619(7)
Cu2D Cu -0.09179(8) 0.04542(6) -0.01718(7)
I1D I -0.07170(4) 0.21030(3) 0.00631(3)
I1B I -0.42830(4) 0.28970(3) -0.00631(3)
I1F I 0.42830(4) -0.28970(3) 0.00631(3)
I2D I 0.05457(4) 0.02800(3) -0.13041(3)
C1D C -0.4314(6) 0.0601(4) -0.1104(5)
C2D C -0.5320(6) 0.1016(5) -0.1411(5)
H1D H -0.5331 0.1577 -0.1511
C3D C -0.6266(6) 0.0551(5) -0.1551(6)
H2D H -0.6942 0.0803 -0.1750
C4D C -0.6257(7) -0.0299(5) -0.1405(6)
H3D H -0.6931 -0.0587 -0.1501
C5D C -0.5290(7) -0.0718(5) -0.1127(6)
H4D H -0.5285 -0.1281 -0.1038
C6D C -0.4315(6) -0.0243(4) -0.0987(5)
C7D C -0.2724(7) -0.1239(4) -0.0548(5)
H5D H -0.1991 -0.1182 -0.0224
H6D H -0.3201 -0.1562 -0.0208
C8D C -0.2589(6) -0.1678(4) -0.1387(5)
C9D C -0.1771(6) -0.1428(4) -0.1901(5)
H7D H -0.1281 -0.1003 -0.1727
C10D C -0.1691(6) -0.1814(5) -0.2670(5)
H8D H -0.1123 -0.1648 -0.3000
C11D C -0.3151(7) -0.2676(5) -0.2474(5)
H9D H -0.3624 -0.3106 -0.2660
C12D C -0.3277(7) -0.2325(4) -0.1673(5)
H10D H -0.3818 -0.2524 -0.1336
N1D N -0.2389(5) -0.2423(3) -0.2978(4)
N1C N 0.2611(5) -0.2577(3) 0.2022(4)
N1G N -0.2611(5) 0.2577(3) -0.2022(4)
N2D N -0.3244(5) 0.0886(3) -0.0900(4)
N3D N -0.2591(5) 0.0259(3) -0.0664(4)
N4D N -0.3228(5) -0.0427(3) -0.0706(4)
loop_
_geom_bond_atom_site_label_1
_geom_bond_atom_site_label_2
_geom_bond_site_symmetry_1
_geom_bond_site_symmetry_2
Cu1 I1 1_555 1_555
Cu2 I1 1_555 1_555
I1 Cu1F 1_555 1_555
I2 Cu2 1_555 1_555
C1 C2 1_555 1_555
C2 H1 1_555 1_555
C3 C2 1_555 1_555
H2 C3 1_555 1_555
C4 C3 1_555 1_555
H3 C4 1_555 1_555
C5 C4 1_555 1_555
H4 C5 1_555 1_555
C6 C1 1_555 1_555
C7 H5 1_555 1_555
H6 C7 1_555 1_555
C8 C7 1_555 1_555
C9 C8 1_555 1_555
H7 C9 1_555 1_555
C10 C9 1_555 1_555
H8 C10 1_555 1_555
C11 H9 1_555 1_555
C12 C8 1_555 1_555
H10 C12 1_555 1_555
N1 C10 1_555 1_555
N2 Cu1 1_555 1_555
N3 Cu2 1_555 1_555
N4 C6 1_555 1_555
Cu1D I1D 1_555 1_555
Cu1B I1D 1_555 1_555
Cu1C N1 1_555 1_555
Cu1F I1F 1_555 1_555
Cu1G N1D 1_555 1_555
Cu2D Cu2 1_555 1_555
I1D Cu2D 1_555 1_555
I1B Cu1D 1_555 1_555
I1F Cu1 1_555 1_555
I2D Cu2 1_555 1_555
C1D C2D 1_555 1_555
C2D H1D 1_555 1_555
C3D C2D 1_555 1_555
H2D C3D 1_555 1_555
C4D C3D 1_555 1_555
H3D C4D 1_555 1_555
C5D C4D 1_555 1_555
H4D C5D 1_555 1_555
C6D C1D 1_555 1_555
C7D H5D 1_555 1_555
H6D C7D 1_555 1_555
C8D C7D 1_555 1_555
C9D C8D 1_555 1_555
H7D C9D 1_555 1_555
C10D C9D 1_555 1_555
H8D C10D 1_555 1_555
C11D H9D 1_555 1_555
C12D C8D 1_555 1_555
H10D C12D 1_555 1_555
N1D C10D 1_555 1_555
N1C Cu1 1_555 1_555
N1G Cu1D 1_555 1_555
N2D Cu1D 1_555 1_555
N3D Cu2D 1_555 1_555
N4D C6D 1_555 1_555
I2 Cu2D 1_555 1_555
C1 N2 1_555 1_555
C5 C6 1_555 1_555
C7 N4 1_555 1_555
C11 C12 1_555 1_555
C11 N1 1_555 1_555
N2 N3 1_555 1_555
N3 N4 1_555 1_555
Cu1B I1B 1_555 1_555
Cu2D I2D 1_555 1_555
C1D N2D 1_555 1_555
C5D C6D 1_555 1_555
C7D N4D 1_555 1_555
C11D C12D 1_555 1_555
C11D N1D 1_555 1_555
N2D N3D 1_555 1_555
N3D N4D 1_555 1_555

#END
