
#######################################################################
#
#                 Cambridge Crystallographic Data Centre
#                                CCDC 
#
#######################################################################
#
# If this CIF has been generated from an entry in the Cambridge 
# Structural Database, then it will include bibliographic, chemical, 
# crystal, experimental, refinement or atomic coordinate data resulting 
# from the CCDC's data processing and validation procedures.
#
#######################################################################

data_CUYCUV
_symmetry_cell_setting           triclinic
_symmetry_space_group_name_H-M   'P -1'
_symmetry_Int_Tables_number      2
_space_group_name_Hall           '-P 1'
loop_
_symmetry_equiv_pos_site_id
_symmetry_equiv_pos_as_xyz
1 x,y,z
2 -x,-y,-z
_cell_length_a                   8.8322(18)
_cell_length_b                   12.596(3)
_cell_length_c                   17.478(3)
_cell_angle_alpha                78.78(3)
_cell_angle_beta                 82.53(3)
_cell_angle_gamma                89.94(3)
_cell_volume                     1890.5
loop_
_atom_site_label
_atom_site_type_symbol
_atom_site_fract_x
_atom_site_fract_y
_atom_site_fract_z
O1 O 0.6862(7) 1.2428(5) 0.4079(4)
C1 C 0.8216(12) 1.2354(8) 0.3720(7)
O2 O 0.8719(7) 1.2858(5) 0.3062(5)
C2 C 0.9163(11) 1.1484(7) 0.4174(6)
H1 H 0.8873 1.1428 0.4736
H2 H 1.0239 1.1686 0.4050
O3 O 1.1873(7) 0.8092(5) 0.4059(4)
C3 C 1.3229(12) 0.8365(7) 0.3702(7)
C4 C 1.4187(11) 0.8975(7) 0.4135(6)
H3 H 1.5260 0.8848 0.3988
H4 H 1.3940 0.8712 0.4697
Zn1 Zn 1.04115(13) 0.79583(9) 0.33187(7)
Zn2 Zn 0.54225(13) 1.29640(9) 0.33222(7)
S1 S 0.6711(3) 0.5181(2) 0.39235(16)
S2 S 1.1705(3) 0.5413(2) 0.38954(16)
S3 S 1.3842(3) 1.0414(2) 0.39008(16)
S4 S 0.8832(3) 1.0186(2) 0.39059(16)
C5 C 0.7441(11) 0.7328(8) 0.3728(6)
N1 N 1.5557(9) 1.1755(6) 0.2728(5)
O4 O 0.7270(7) 0.7853(5) 0.3076(4)
O5 O 0.8599(7) 0.7419(5) 0.4084(4)
O6 O 1.3579(8) 0.3081(5) 0.4065(4)
O7 O 1.2275(8) 0.3224(5) 0.3053(5)
N2 N 1.0536(9) 0.9494(6) 0.2707(5)
O8 O 1.3708(8) 0.8215(5) 0.3035(5)
N3 N 0.5588(9) 0.4496(6) 0.2727(5)
N4 N 0.5739(10) 0.6294(6) 0.2582(5)
H5 H 0.5933 0.6921 0.2677
N5 N 1.0521(9) 1.1277(7) 0.2564(5)
H6 H 1.0311 1.1909 0.2658
N6 N 1.0709(9) 0.5053(7) 0.2535(5)
H7 H 1.0890 0.4372 0.2616
N7 N 1.0579(9) 0.6765(6) 0.2700(5)
C6 C 0.5989(10) 0.5332(7) 0.3016(6)
C7 C 0.9393(12) 0.7474(9) 0.1489(6)
H8 H 0.9359 0.8191 0.1550
N8 N 1.5508(9) 1.0077(6) 0.2538(5)
H9 H 1.5284 0.9397 0.2619
C8 C 1.6461(11) 1.0656(8) 0.1903(6)
C9 C 0.9998(10) 0.6677(8) 0.2028(6)
C10 C 1.0083(11) 0.5637(8) 0.1913(6)
C11 C 0.9983(11) 1.0320(8) 0.3015(5)
C12 C 1.1465(11) 1.1052(8) 0.1926(6)
C13 C 0.5029(11) 0.4953(8) 0.2038(6)
C14 C 1.5003(12) 1.0756(8) 0.2999(6)
C15 C 0.8927(13) 0.6107(12) 0.0755(7)
H10 H 0.8568 0.5927 0.0318
C16 C 1.2341(11) 0.9454(8) 0.1476(6)
H11 H 1.2346 0.8704 0.1532
C17 C 1.1226(11) 0.3985(7) 0.4150(5)
H12 H 1.1179 0.3736 0.4714
H13 H 1.0231 0.3856 0.4002
C18 C 1.0991(10) 0.5760(8) 0.3002(6)
C19 C 1.6477(11) 1.1701(8) 0.2023(6)
C20 C 1.2439(12) 0.3352(8) 0.3719(7)
C21 C 1.1462(10) 0.9934(7) 0.2020(6)
C22 C 1.3201(13) 1.1207(10) 0.0774(7)
H14 H 1.3792 1.1627 0.0342
C23 C 0.5098(11) 0.6068(8) 0.1946(6)
C24 C 1.7303(13) 1.0336(10) 0.1257(7)
H15 H 1.7284 0.9625 0.1183
C25 C 1.8153(13) 1.1130(11) 0.0745(7)
H16 H 1.8744 1.0954 0.0308
C26 C 0.8845(13) 0.7160(10) 0.0861(7)
H17 H 0.8409 0.7672 0.0500
C27 C 0.9541(13) 0.5296(10) 0.1291(7)
H18 H 0.9580 0.4579 0.1231
C28 C 1.2343(12) 1.1721(9) 0.1320(7)
H19 H 1.2367 1.2469 0.1274
C29 C 1.7342(13) 1.2500(9) 0.1486(6)
H20 H 1.7357 1.3212 0.1557
C30 C 0.3980(13) 0.6273(11) 0.0792(7)
H21 H 0.3572 0.6702 0.0376
C31 C 0.4426(12) 0.4475(9) 0.1491(6)
H22 H 0.4354 0.3727 0.1548
C32 C 0.4591(12) 0.6756(9) 0.1308(7)
H23 H 0.4670 0.7506 0.1242
C33 C 1.3197(13) 1.0095(11) 0.0858(7)
H24 H 1.3790 0.9781 0.0486
C34 C 0.3941(13) 0.5154(12) 0.0861(6)
H25 H 0.3576 0.4858 0.0471
C35 C 1.8174(12) 1.2199(10) 0.0848(7)
H26 H 1.8762 1.2718 0.0477
C36 C 0.6248(11) 0.6477(7) 0.4184(6)
H27 H 0.5240 0.6684 0.4055
H28 H 0.6243 0.6426 0.4745
Zn2_2 Zn 1.54225(13) 1.29640(9) 0.33222(7)
Zn2_3 Zn 1.54225(13) 0.29640(9) 0.33222(7)
Zn2_4 Zn 0.54225(13) 0.29640(9) 0.33222(7)
N1_2 N 0.5557(9) 1.1755(6) 0.2728(5)
O6_2 O 0.3579(8) 1.3081(5) 0.4065(4)
N3_2 N 0.5588(9) 1.4496(6) 0.2727(5)
loop_
_geom_bond_atom_site_label_1
_geom_bond_atom_site_label_2
_geom_bond_site_symmetry_1
_geom_bond_site_symmetry_2
O1 C1 1_555 1_555
C1 O2 1_555 1_555
C2 C1 1_555 1_555
H1 C2 1_555 1_555
H2 C2 1_555 1_555
O3 C3 1_555 1_555
C3 C4 1_555 1_555
C4 H3 1_555 1_555
H4 C4 1_555 1_555
Zn1 O3 1_555 1_555
Zn2 O1 1_555 1_555
S1 C6 1_555 1_555
S2 C17 1_555 1_555
S3 C4 1_555 1_555
S4 C2 1_555 1_555
C5 O4 1_555 1_555
N1 C14 1_555 1_555
O5 Zn1 1_555 1_555
O6 C20 1_555 1_555
O7 C20 1_555 1_555
N2 Zn1 1_555 1_555
O8 C3 1_555 1_555
N3 C6 1_555 1_555
N4 H5 1_555 1_555
N5 H6 1_555 1_555
N6 H7 1_555 1_555
N7 Zn1 1_555 1_555
C6 N4 1_555 1_555
C7 H8 1_555 1_555
N8 H9 1_555 1_555
C8 N8 1_555 1_555
C9 N7 1_555 1_555
C10 N6 1_555 1_555
C11 S4 1_555 1_555
C12 N5 1_555 1_555
C13 N3 1_555 1_555
C14 S3 1_555 1_555
C15 H10 1_555 1_555
C16 H11 1_555 1_555
C17 H12 1_555 1_555
H13 C17 1_555 1_555
C18 S2 1_555 1_555
C19 N1 1_555 1_555
C20 C17 1_555 1_555
C21 N2 1_555 1_555
C22 H14 1_555 1_555
C23 N4 1_555 1_555
C24 C8 1_555 1_555
H15 C24 1_555 1_555
C25 C24 1_555 1_555
H16 C25 1_555 1_555
C26 C7 1_555 1_555
H17 C26 1_555 1_555
C27 C10 1_555 1_555
H18 C27 1_555 1_555
C28 C12 1_555 1_555
H19 C28 1_555 1_555
C29 C19 1_555 1_555
H20 C29 1_555 1_555
C30 H21 1_555 1_555
C31 C13 1_555 1_555
H22 C31 1_555 1_555
C32 C23 1_555 1_555
H23 C32 1_555 1_555
C33 C16 1_555 1_555
H24 C33 1_555 1_555
C34 C30 1_555 1_555
H25 C34 1_555 1_555
C35 C25 1_555 1_555
H26 C35 1_555 1_555
C36 S1 1_555 1_555
H27 C36 1_555 1_555
H28 C36 1_555 1_555
Zn2_2 N1 1_555 1_555
Zn2_3 O6 1_555 1_555
Zn2_4 N3 1_555 1_555
N1_2 Zn2 1_555 1_555
O6_2 Zn2 1_555 1_555
N3_2 Zn2 1_555 1_555
C5 O5 1_555 1_555
C5 C36 1_555 1_555
N2 C11 1_555 1_555
N5 C11 1_555 1_555
N6 C18 1_555 1_555
N7 C18 1_555 1_555
C7 C9 1_555 1_555
N8 C14 1_555 1_555
C8 C19 1_555 1_555
C9 C10 1_555 1_555
C12 C21 1_555 1_555
C13 C23 1_555 1_555
C15 C26 1_555 1_555
C15 C27 1_555 1_555
C16 C21 1_555 1_555
C22 C28 1_555 1_555
C22 C33 1_555 1_555
C29 C35 1_555 1_555
C30 C32 1_555 1_555
C31 C34 1_555 1_555

#END
