
#######################################################################
#
#                 Cambridge Crystallographic Data Centre
#                                CCDC 
#
#######################################################################
#
# If this CIF has been generated from an entry in the Cambridge 
# Structural Database, then it will include bibliographic, chemical, 
# crystal, experimental, refinement or atomic coordinate data resulting 
# from the CCDC's data processing and validation procedures.
#
#######################################################################

data_CUYDAC
_symmetry_cell_setting           monoclinic
_symmetry_space_group_name_H-M   'P 21/c'
_symmetry_Int_Tables_number      14
_space_group_name_Hall           '-P 2ybc'
loop_
_symmetry_equiv_pos_site_id
_symmetry_equiv_pos_as_xyz
1 x,y,z
2 -x,1/2+y,1/2-z
3 -x,-y,-z
4 x,1/2-y,1/2+z
_cell_length_a                   9.4427(19)
_cell_length_b                   12.638(3)
_cell_length_c                   8.6742(17)
_cell_angle_alpha                90
_cell_angle_beta                 112.48(3)
_cell_angle_gamma                90
_cell_volume                     956.494
loop_
_atom_site_label
_atom_site_type_symbol
_atom_site_fract_x
_atom_site_fract_y
_atom_site_fract_z
O1 O 0.4806(3) 0.48559(17) 1.1883(3)
O2 O 0.6667(3) 0.44825(17) 1.4334(3)
C1 C 0.6059(4) 0.4443(2) 1.2748(4)
Cu1 Cu 0.5000 0.5000 1.5000
S1 S 0.64111(11) 0.23818(7) 1.19930(11)
N1 N 0.4053(3) 0.14240(19) 0.9578(3)
C2 C 0.4633(4) 0.2321(2) 1.0330(4)
N2 N 0.3708(3) 0.3160(2) 0.9673(3)
H1 H 0.3886 0.3808 0.9991
C3 C 0.6900(4) 0.3771(3) 1.1911(4)
H2 H 0.7997 0.3868 1.2478
H3 H 0.6610 0.3990 1.0759
C4 C 0.2419(4) 0.2775(3) 0.8385(4)
C5 C 0.2625(4) 0.1687(3) 0.8350(4)
C6 C 0.1525(4) 0.1059(3) 0.7187(5)
H4 H 0.1656 0.0331 0.7152
C7 C 0.1112(4) 0.3282(3) 0.7284(5)
H5 H 0.0981 0.4010 0.7320
C8 C 0.0026(5) 0.2648(4) 0.6142(5)
H6 H -0.0866 0.2955 0.5390
C9 C 0.0234(4) 0.1553(4) 0.6086(5)
H7 H -0.0516 0.1150 0.5289
O1A O 0.5194(3) 0.98559(17) 1.3117(3)
O1B O 0.5194(3) 0.51441(17) 1.8117(3)
O2A O 0.3333(3) 0.94825(17) 1.0666(3)
O2B O 0.3333(3) 0.55175(17) 1.5666(3)
C1A C 0.3941(4) 0.9443(2) 1.2252(4)
Cu1A Cu 0.5000 0.0000 1.0000
Cu1A_2 Cu 0.5000 1.0000 1.0000
S1A S 0.35889(11) 0.73818(7) 1.30070(11)
N1A N 0.5947(3) 0.64240(19) 1.5422(3)
N1C N 0.4053(3) 0.35760(19) 1.4578(3)
C2A C 0.5367(4) 0.7321(2) 1.4670(4)
N2A N 0.6292(3) 0.8160(2) 1.5327(3)
H1A H 0.6114 0.8808 1.5009
C3A C 0.3100(4) 0.8771(3) 1.3089(4)
H2A H 0.2003 0.8868 1.2522
H3A H 0.3390 0.8990 1.4241
C4A C 0.7581(4) 0.7775(3) 1.6615(4)
C5A C 0.7375(4) 0.6687(3) 1.6650(4)
C6A C 0.8475(4) 0.6059(3) 1.7813(5)
H4A H 0.8344 0.5331 1.7848
C7A C 0.8888(4) 0.8282(3) 1.7716(5)
H5A H 0.9019 0.9010 1.7680
C8A C 0.9974(5) 0.7648(4) 1.8858(5)
H6A H 1.0866 0.7955 1.9610
C9A C 0.9766(4) 0.6553(4) 1.8914(5)
H7A H 1.0516 0.6150 1.9711
loop_
_geom_bond_atom_site_label_1
_geom_bond_atom_site_label_2
_geom_bond_site_symmetry_1
_geom_bond_site_symmetry_2
O1 C1 1_555 1_555
O2 C1 1_555 1_555
C1 C3 1_555 1_555
Cu1 O1 1_555 1_555
S1 C2 1_555 1_555
N1 C2 1_555 1_555
C2 N2 1_555 1_555
N2 H1 1_555 1_555
C3 S1 1_555 1_555
H2 C3 1_555 1_555
H3 C3 1_555 1_555
C4 N2 1_555 1_555
C5 N1 1_555 1_555
C6 C5 1_555 1_555
H4 C6 1_555 1_555
C7 C4 1_555 1_555
H5 C7 1_555 1_555
C8 C7 1_555 1_555
H6 C8 1_555 1_555
C9 C6 1_555 1_555
H7 C9 1_555 1_555
O1A C1A 1_555 1_555
O1B Cu1 1_555 1_555
O2A C1A 1_555 1_555
O2B Cu1 1_555 1_555
C1A C3A 1_555 1_555
Cu1A N1 1_555 1_555
Cu1A_2 O1A 1_555 1_555
S1A C2A 1_555 1_555
N1A Cu1 1_555 1_555
N1C Cu1 1_555 1_555
C2A N1A 1_555 1_555
N2A C2A 1_555 1_555
H1A N2A 1_555 1_555
C3A S1A 1_555 1_555
H2A C3A 1_555 1_555
H3A C3A 1_555 1_555
C4A N2A 1_555 1_555
C5A N1A 1_555 1_555
C6A C5A 1_555 1_555
H4A C6A 1_555 1_555
C7A C4A 1_555 1_555
H5A C7A 1_555 1_555
C8A C7A 1_555 1_555
H6A C8A 1_555 1_555
C9A C6A 1_555 1_555
H7A C9A 1_555 1_555
O2 Cu1 1_555 1_555
C4 C5 1_555 1_555
C8 C9 1_555 1_555
O2A Cu1A_2 1_555 1_555
C4A C5A 1_555 1_555
C8A C9A 1_555 1_555

#END
