
#######################################################################
#
#                 Cambridge Crystallographic Data Centre
#                                CCDC 
#
#######################################################################
#
# If this CIF has been generated from an entry in the Cambridge 
# Structural Database, then it will include bibliographic, chemical, 
# crystal, experimental, refinement or atomic coordinate data resulting 
# from the CCDC's data processing and validation procedures.
#
#######################################################################

data_CUYDUW
_symmetry_cell_setting           monoclinic
_symmetry_space_group_name_H-M   'C 2/c'
_symmetry_Int_Tables_number      15
_space_group_name_Hall           '-C 2yn'
loop_
_symmetry_equiv_pos_site_id
_symmetry_equiv_pos_as_xyz
1 x,y,z
2 -x,y,1/2-z
3 1/2+x,1/2+y,z
4 1/2-x,1/2+y,1/2-z
5 -x,-y,-z
6 x,-y,1/2+z
7 1/2-x,1/2-y,-z
8 1/2+x,1/2-y,1/2+z
_cell_length_a                   29.762(4)
_cell_length_b                   6.7876(6)
_cell_length_c                   14.0678(17)
_cell_angle_alpha                90
_cell_angle_beta                 101.511(10)
_cell_angle_gamma                90
_cell_volume                     2784.71
loop_
_atom_site_label
_atom_site_type_symbol
_atom_site_fract_x
_atom_site_fract_y
_atom_site_fract_z
Hg1 Hg 0.0000 0.0000 0.0000
Cl1 Cl -0.02170(5) 0.17990(18) 0.12127(8)
C1 C 0.08173(17) -0.4113(8) 0.2926(3)
H1 H 0.0887 -0.3998 0.3598
C2 C 0.05601(17) -0.2655(7) 0.2384(4)
H2 H 0.0460 -0.1597 0.2707
C3 C 0.05921(18) -0.4281(8) 0.1006(3)
H3 H 0.0517 -0.4403 0.0335
C4 C 0.08497(14) -0.5750(7) 0.1545(3)
C5 C 0.09977(15) -0.7468(6) 0.1021(3)
C6 C 0.14740(15) -1.0498(6) 0.1347(3)
C7 C 0.14304(16) -1.1093(7) 0.0392(3)
H4 H 0.1272 -1.0312 -0.0108
C8 C 0.16262(18) -1.2877(8) 0.0180(3)
H5 H 0.1593 -1.3274 -0.0463
C9 C 0.18645(17) -1.4046(7) 0.0897(3)
H6 H 0.1993 -1.5221 0.0739
C10 C 0.19160(14) -1.3477(6) 0.1873(3)
C11 C 0.21583(16) -1.4665(7) 0.2631(4)
H7 H 0.2287 -1.5843 0.2478
C12 C 0.22084(17) -1.4129(8) 0.3585(4)
H8 H 0.2368 -1.4938 0.4071
C13 C 0.20184(18) -1.2366(8) 0.3824(3)
H9 H 0.2054 -1.2001 0.4472
C14 C 0.17791(16) -1.1158(7) 0.3117(3)
H10 H 0.1654 -0.9991 0.3293
C15 C 0.17208(13) -1.1670(6) 0.2117(3)
N1 N 0.09684(13) -0.5692(6) 0.2507(2)
N2 N 0.04498(15) -0.2704(6) 0.1421(3)
N3 N 0.12792(13) -0.8714(5) 0.1595(2)
H11 H 0.1352 -0.8383 0.2196
O1 O 0.08567(14) -0.7694(5) 0.0148(2)
Hg1_2 Hg 0.0000 -1.0000 0.0000
Hg1_3 Hg 0.0000 1.0000 0.0000
Cl1D Cl 0.02170(5) -0.17990(18) -0.12127(8)
C1_2 C 0.08173(17) 0.5887(8) 0.2926(3)
H1_2 H 0.0887 0.6002 0.3598
C2_2 C 0.05601(17) 0.7345(7) 0.2384(4)
H2_2 H 0.0460 0.8403 0.2707
C3_2 C 0.05921(18) 0.5719(8) 0.1006(3)
H3_2 H 0.0517 0.5597 0.0335
C4_2 C 0.08497(14) 0.4250(7) 0.1545(3)
C5_2 C 0.09977(15) 0.2532(6) 0.1021(3)
C6_2 C 0.14740(15) -0.0498(6) 0.1347(3)
C7_2 C 0.14304(16) -0.1093(7) 0.0392(3)
H4_2 H 0.1272 -0.0312 -0.0108
C8_2 C 0.16262(18) -0.2877(8) 0.0180(3)
H5_2 H 0.1593 -0.3274 -0.0463
C9_2 C 0.18645(17) -0.4046(7) 0.0897(3)
H6_2 H 0.1993 -0.5221 0.0739
C10_2 C 0.19160(14) -0.3477(6) 0.1873(3)
C11_2 C 0.21583(16) -0.4665(7) 0.2631(4)
H7_2 H 0.2287 -0.5843 0.2478
C12_2 C 0.22084(17) -0.4129(8) 0.3585(4)
H8_2 H 0.2368 -0.4938 0.4071
C13_2 C 0.20184(18) -0.2366(8) 0.3824(3)
H9_2 H 0.2054 -0.2001 0.4472
C14_2 C 0.17791(16) -0.1158(7) 0.3117(3)
H10_2 H 0.1654 0.0009 0.3293
C15_2 C 0.17208(13) -0.1670(6) 0.2117(3)
N1_2 N 0.09684(13) 0.4308(6) 0.2507(2)
N2_2 N 0.04498(15) 0.7296(6) 0.1421(3)
N2D N -0.04498(15) 0.2704(6) -0.1421(3)
N3_2 N 0.12792(13) 0.1286(5) 0.1595(2)
H11_2 H 0.1352 0.1617 0.2196
O1_2 O 0.08567(14) 0.2306(5) 0.0148(2)
O1D O -0.08567(14) -0.2306(5) -0.0148(2)
loop_
_geom_bond_atom_site_label_1
_geom_bond_atom_site_label_2
_geom_bond_site_symmetry_1
_geom_bond_site_symmetry_2
Hg1 Cl1 1_555 1_555
C1 H1 1_555 1_555
C2 C1 1_555 1_555
H2 C2 1_555 1_555
C3 H3 1_555 1_555
C4 C3 1_555 1_555
C5 C4 1_555 1_555
C6 C7 1_555 1_555
C7 H4 1_555 1_555
C8 C7 1_555 1_555
H5 C8 1_555 1_555
C9 C8 1_555 1_555
H6 C9 1_555 1_555
C10 C9 1_555 1_555
C11 C10 1_555 1_555
H7 C11 1_555 1_555
C12 C11 1_555 1_555
H8 C12 1_555 1_555
C13 C12 1_555 1_555
H9 C13 1_555 1_555
C14 C13 1_555 1_555
H10 C14 1_555 1_555
C15 C6 1_555 1_555
N1 C1 1_555 1_555
N2 Hg1 1_555 1_555
N3 C5 1_555 1_555
H11 N3 1_555 1_555
O1 C5 1_555 1_555
Hg1_2 O1 1_555 1_555
Hg1_3 N2_2 1_555 1_555
Cl1D Hg1 1_555 1_555
C1_2 H1_2 1_555 1_555
C2_2 C1_2 1_555 1_555
H2_2 C2_2 1_555 1_555
C3_2 H3_2 1_555 1_555
C4_2 C3_2 1_555 1_555
C5_2 C4_2 1_555 1_555
C6_2 C7_2 1_555 1_555
C7_2 H4_2 1_555 1_555
C8_2 C7_2 1_555 1_555
H5_2 C8_2 1_555 1_555
C9_2 C8_2 1_555 1_555
H6_2 C9_2 1_555 1_555
C10_2 C9_2 1_555 1_555
C11_2 C10_2 1_555 1_555
H7_2 C11_2 1_555 1_555
C12_2 C11_2 1_555 1_555
H8_2 C12_2 1_555 1_555
C13_2 C12_2 1_555 1_555
H9_2 C13_2 1_555 1_555
C14_2 C13_2 1_555 1_555
H10_2 C14_2 1_555 1_555
C15_2 C6_2 1_555 1_555
N1_2 C1_2 1_555 1_555
N2_2 C2_2 1_555 1_555
N2D Hg1 1_555 1_555
N3_2 C5_2 1_555 1_555
H11_2 N3_2 1_555 1_555
O1_2 Hg1 1_555 1_555
O1D Hg1 1_555 1_555
C2 N2 1_555 1_555
C3 N2 1_555 1_555
C4 N1 1_555 1_555
C6 N3 1_555 1_555
C10 C15 1_555 1_555
C14 C15 1_555 1_555
C3_2 N2_2 1_555 1_555
C4_2 N1_2 1_555 1_555
C5_2 O1_2 1_555 1_555
C6_2 N3_2 1_555 1_555
C10_2 C15_2 1_555 1_555
C14_2 C15_2 1_555 1_555

#END
