
#######################################################################
#
#                 Cambridge Crystallographic Data Centre
#                                CCDC 
#
#######################################################################
#
# If this CIF has been generated from an entry in the Cambridge 
# Structural Database, then it will include bibliographic, chemical, 
# crystal, experimental, refinement or atomic coordinate data resulting 
# from the CCDC's data processing and validation procedures.
#
#######################################################################

data_CUYHUA
_symmetry_cell_setting           triclinic
_symmetry_space_group_name_H-M   'P -1'
_symmetry_Int_Tables_number      2
_space_group_name_Hall           '-P 1'
loop_
_symmetry_equiv_pos_site_id
_symmetry_equiv_pos_as_xyz
1 x,y,z
2 -x,-y,-z
_cell_length_a                   6.8963(8)
_cell_length_b                   9.4798(12)
_cell_length_c                   16.697(2)
_cell_angle_alpha                90.660(2)
_cell_angle_beta                 101.526(2)
_cell_angle_gamma                91.251(2)
_cell_volume                     1069.17
loop_
_atom_site_label
_atom_site_type_symbol
_atom_site_fract_x
_atom_site_fract_y
_atom_site_fract_z
Zn1 Zn 0.87533(8) 0.76502(6) 0.19431(3)
O1 O 1.1544(8) 0.8636(5) 0.3356(3)
O2 O 0.9673(6) 0.9590(4) 0.2298(2)
O3 O 0.8403(6) 1.5095(5) 0.1111(3)
O4 O 1.0853(5) 1.6605(4) 0.1615(2)
N1 N 0.6260(6) 0.8253(4) 0.1121(2)
N2 N 0.7523(6) 0.6624(5) 0.2798(3)
C1 C 1.0844(8) 0.9684(6) 0.2974(3)
C2 C 1.1403(9) 1.1147(6) 0.3312(3)
H5 H 1.2171 1.1082 0.3863
H6 H 1.0208 1.1650 0.3340
C3 C 1.2603(8) 1.1983(5) 0.2793(3)
C4 C 1.4643(9) 1.1897(6) 0.2914(4)
H7 H 1.5300 1.1321 0.3322
C5 C 1.5702(8) 1.2630(7) 0.2452(4)
H8 H 1.7072 1.2558 0.2551
C6 C 1.4779(9) 1.3478(6) 0.1839(4)
H9 H 1.5519 1.3980 0.1525
C7 C 1.2709(8) 1.3585(5) 0.1688(3)
C8 C 1.1665(7) 1.2837(5) 0.2168(3)
H10 H 1.0295 1.2903 0.2072
C9 C 1.1704(9) 1.4501(6) 0.1004(4)
H11 H 1.2699 1.5075 0.0816
H12 H 1.1052 1.3902 0.0551
C10 C 1.0197(8) 1.5454(6) 0.1256(3)
C11 C 0.5419(7) 0.9431(6) 0.1311(3)
H13 H 0.6122 1.0012 0.1727
C12 C 0.3584(8) 0.9828(5) 0.0928(3)
H14 H 0.3059 1.0655 0.1090
C13 C 0.2505(7) 0.9011(5) 0.0303(3)
C14 C 0.3408(7) 0.7810(6) 0.0085(3)
H15 H 0.2761 0.7237 -0.0347
C15 C 0.5262(7) 0.7466(5) 0.0505(3)
H16 H 0.5836 0.6653 0.0353
C16 C 0.0432(8) 0.9336(6) -0.0136(3)
H17 H 0.0431 0.9402 -0.0715
H18 H -0.0434 0.8546 -0.0067
C17 C 0.5638(9) 0.6780(7) 0.2852(4)
H19 H 0.4853 0.7366 0.2486
C18 C 0.4808(10) 0.6097(8) 0.3437(4)
H20 H 0.3484 0.6232 0.3452
C19 C 0.5904(10) 0.5223(7) 0.3995(4)
C20 C 0.7858(10) 0.5069(7) 0.3923(4)
H21 H 0.8678 0.4491 0.4282
C21 C 0.8591(9) 0.5763(7) 0.3324(4)
H22 H 0.9900 0.5623 0.3286
C22 C 0.5023(14) 0.4533(8) 0.4641(5)
H23 H 0.5777 0.3706 0.4826
H24 H 0.3682 0.4218 0.4403
Zn1A Zn -0.87533(8) 1.23498(6) -0.19431(3)
Zn1_2 Zn 0.87533(8) 1.76502(6) 0.19431(3)
Zn1A_2 Zn -0.87533(8) 0.23498(6) -0.19431(3)
Zn1A_3 Zn 0.12467(8) 0.23498(6) 0.80569(3)
O1A O -1.1544(8) 1.1364(5) -0.3356(3)
O2A O -0.9673(6) 1.0410(4) -0.2298(2)
O3A O -0.8403(6) 0.4905(5) -0.1111(3)
O4A O -1.0853(5) 0.3395(4) -0.1615(2)
O4_2 O 1.0853(5) 0.6605(4) 0.1615(2)
O4A_2 O -1.0853(5) 1.3395(4) -0.1615(2)
N1A N -0.6260(6) 1.1747(4) -0.1121(2)
N2A N 0.2477(6) 0.3376(5) 0.7202(3)
N2A_2 N -0.7523(6) 1.3376(5) -0.2798(3)
C1A C -1.0844(8) 1.0316(6) -0.2974(3)
C2A C -1.1403(9) 0.8853(6) -0.3312(3)
H5A H -1.2171 0.8918 -0.3863
H6A H -1.0208 0.8350 -0.3340
C3A C -1.2603(8) 0.8017(5) -0.2793(3)
C4A C -1.4643(9) 0.8103(6) -0.2914(4)
H7A H -1.5300 0.8679 -0.3322
C5A C -1.5702(8) 0.7370(7) -0.2452(4)
H8A H -1.7072 0.7442 -0.2551
C6A C -1.4779(9) 0.6522(6) -0.1839(4)
H9A H -1.5519 0.6020 -0.1525
C7A C -1.2709(8) 0.6415(5) -0.1688(3)
C8A C -1.1665(7) 0.7163(5) -0.2168(3)
H10A H -1.0295 0.7097 -0.2072
C9A C -1.1704(9) 0.5499(6) -0.1004(4)
H11A H -1.2699 0.4925 -0.0816
H12A H -1.1052 0.6098 -0.0551
C10A C -1.0197(8) 0.4546(6) -0.1256(3)
C11A C -0.5419(7) 1.0569(6) -0.1311(3)
H13A H -0.6122 0.9988 -0.1727
C12A C -0.3584(8) 1.0172(5) -0.0928(3)
H14A H -0.3059 0.9345 -0.1090
C13A C -0.2505(7) 1.0989(5) -0.0303(3)
C14A C -0.3408(7) 1.2190(6) -0.0085(3)
H15A H -0.2761 1.2763 0.0347
C15A C -0.5262(7) 1.2534(5) -0.0505(3)
H16A H -0.5836 1.3347 -0.0353
C16A C -0.0432(8) 1.0664(6) 0.0136(3)
H17A H -0.0431 1.0598 0.0715
H18A H 0.0434 1.1454 0.0067
C17A C 0.4362(9) 0.3220(7) 0.7148(4)
H19A H 0.5147 0.2634 0.7514
C18A C 0.5192(10) 0.3903(8) 0.6563(4)
H20A H 0.6516 0.3768 0.6548
C19A C 0.4096(10) 0.4777(7) 0.6005(4)
C20A C 0.2142(10) 0.4931(7) 0.6077(4)
H21A H 0.1322 0.5509 0.5718
C21A C 0.1409(9) 0.4237(7) 0.6676(4)
H22A H 0.0100 0.4377 0.6714
C22A C 0.4977(14) 0.5467(8) 0.5359(5)
H23A H 0.4223 0.6294 0.5174
H24A H 0.6318 0.5782 0.5597
O5 O 0.442(3) 0.0839(19) 0.5506(12)
H1 H 0.4793 0.0279 0.5193
H2 H 0.5508 0.0984 0.5804
O6 O 0.019(2) 0.1679(17) 0.5181(11)
H3 H 0.1362 0.1465 0.5270
H4 H -0.0242 0.1616 0.5602
loop_
_geom_bond_atom_site_label_1
_geom_bond_atom_site_label_2
_geom_bond_site_symmetry_1
_geom_bond_site_symmetry_2
Zn1 O2 1_555 1_555
O1 C1 1_555 1_555
O2 C1 1_555 1_555
O3 C10 1_555 1_555
O4 C10 1_555 1_555
N1 Zn1 1_555 1_555
N2 Zn1 1_555 1_555
O5 H1 1_555 1_555
H2 O5 1_555 1_555
O6 H3 1_555 1_555
H4 O6 1_555 1_555
C1 C2 1_555 1_555
C2 H5 1_555 1_555
H6 C2 1_555 1_555
C3 C2 1_555 1_555
C4 C3 1_555 1_555
H7 C4 1_555 1_555
C5 C4 1_555 1_555
H8 C5 1_555 1_555
C6 C5 1_555 1_555
H9 C6 1_555 1_555
C7 C6 1_555 1_555
C8 C3 1_555 1_555
H10 C8 1_555 1_555
C9 C7 1_555 1_555
H11 C9 1_555 1_555
H12 C9 1_555 1_555
C10 C9 1_555 1_555
C11 N1 1_555 1_555
H13 C11 1_555 1_555
C12 C11 1_555 1_555
H14 C12 1_555 1_555
C13 C12 1_555 1_555
C14 C13 1_555 1_555
H15 C14 1_555 1_555
C15 N1 1_555 1_555
H16 C15 1_555 1_555
C16 C13 1_555 1_555
H17 C16 1_555 1_555
H18 C16 1_555 1_555
C17 N2 1_555 1_555
H19 C17 1_555 1_555
C18 C17 1_555 1_555
H20 C18 1_555 1_555
C19 C18 1_555 1_555
C20 C19 1_555 1_555
H21 C20 1_555 1_555
C21 N2 1_555 1_555
H22 C21 1_555 1_555
C22 C19 1_555 1_555
H23 C22 1_555 1_555
H24 C22 1_555 1_555
Zn1A O2A 1_555 1_555
Zn1_2 O4 1_555 1_555
Zn1A_2 O4A 1_555 1_555
Zn1A_3 N2A 1_555 1_555
O1A C1A 1_555 1_555
O2A C1A 1_555 1_555
O3A C10A 1_555 1_555
O4A C10A 1_555 1_555
O4_2 Zn1 1_555 1_555
O4A_2 Zn1A 1_555 1_555
N1A Zn1A 1_555 1_555
N2A C17A 1_555 1_555
N2A_2 Zn1A 1_555 1_555
C1A C2A 1_555 1_555
C2A H5A 1_555 1_555
H6A C2A 1_555 1_555
C3A C2A 1_555 1_555
C4A C3A 1_555 1_555
H7A C4A 1_555 1_555
C5A C4A 1_555 1_555
H8A C5A 1_555 1_555
C6A C5A 1_555 1_555
H9A C6A 1_555 1_555
C7A C6A 1_555 1_555
C8A C3A 1_555 1_555
H10A C8A 1_555 1_555
C9A C7A 1_555 1_555
H11A C9A 1_555 1_555
H12A C9A 1_555 1_555
C10A C9A 1_555 1_555
C11A N1A 1_555 1_555
H13A C11A 1_555 1_555
C12A C11A 1_555 1_555
H14A C12A 1_555 1_555
C13A C12A 1_555 1_555
C14A C13A 1_555 1_555
H15A C14A 1_555 1_555
C15A N1A 1_555 1_555
H16A C15A 1_555 1_555
C16A C16 1_555 1_555
H17A C16A 1_555 1_555
H18A C16A 1_555 1_555
C17A H19A 1_555 1_555
C18A C17A 1_555 1_555
H20A C18A 1_555 1_555
C19A C18A 1_555 1_555
C20A C19A 1_555 1_555
H21A C20A 1_555 1_555
C21A N2A 1_555 1_555
H22A C21A 1_555 1_555
C22A C22 1_555 1_555
H23A C22A 1_555 1_555
H24A C22A 1_555 1_555
C7 C8 1_555 1_555
C14 C15 1_555 1_555
C20 C21 1_555 1_555
C7A C8A 1_555 1_555
C13A C16A 1_555 1_555
C14A C15A 1_555 1_555
C19A C22A 1_555 1_555
C20A C21A 1_555 1_555

#END
