
#######################################################################
#
#                 Cambridge Crystallographic Data Centre
#                                CCDC 
#
#######################################################################
#
# If this CIF has been generated from an entry in the Cambridge 
# Structural Database, then it will include bibliographic, chemical, 
# crystal, experimental, refinement or atomic coordinate data resulting 
# from the CCDC's data processing and validation procedures.
#
#######################################################################

data_CUYHOU
_symmetry_cell_setting           triclinic
_symmetry_space_group_name_H-M   'P -1'
_symmetry_Int_Tables_number      2
_space_group_name_Hall           '-P 1'
loop_
_symmetry_equiv_pos_site_id
_symmetry_equiv_pos_as_xyz
1 x,y,z
2 -x,-y,-z
_cell_length_a                   8.3194(11)
_cell_length_b                   11.3886(15)
_cell_length_c                   11.444(3)
_cell_angle_alpha                109.818(3)
_cell_angle_beta                 92.908(3)
_cell_angle_gamma                111.323(2)
_cell_volume                     931.311
loop_
_atom_site_label
_atom_site_type_symbol
_atom_site_fract_x
_atom_site_fract_y
_atom_site_fract_z
Zn1 Zn 0.41517(6) 0.32139(5) 0.24840(5)
O1 O 0.2239(4) 0.3668(3) 0.1587(3)
O2 O 0.2891(4) 0.4591(3) 0.3664(3)
O3 O 0.5029(4) 0.7817(3) -0.0986(3)
O4 O 0.2606(5) 0.7511(5) -0.2191(3)
O5 O 0.5817(4) 0.3364(3) 0.4020(3)
N1 N 0.6134(5) 0.5125(4) 0.2508(3)
N2 N 1.2182(5) 1.1402(3) 0.2543(3)
C1 C 0.2155(5) 0.4487(4) 0.2619(4)
C2 C 0.1255(6) 0.5449(5) 0.2617(5)
H3 H 0.0209 0.4966 0.1952
H4 H 0.0900 0.5751 0.3422
C3 C 0.2508(6) 0.6674(5) 0.2403(4)
C4 C 0.3993(7) 0.7623(5) 0.3317(5)
H5 H 0.4229 0.7499 0.4060
C5 C 0.5133(6) 0.8760(5) 0.3132(5)
H6 H 0.6145 0.9378 0.3739
C6 C 0.4770(6) 0.8974(5) 0.2058(5)
H7 H 0.5536 0.9741 0.1946
C7 C 0.3269(6) 0.8056(5) 0.1133(4)
C8 C 0.2182(6) 0.6909(4) 0.1321(4)
H8 H 0.1196 0.6273 0.0697
C9 C 0.2774(7) 0.8338(5) 0.0007(5)
H9 H 0.3146 0.9317 0.0269
H10 H 0.1500 0.7925 -0.0242
C10 C 0.3529(7) 0.7836(5) -0.1152(5)
C11 C 0.6375(6) 0.5300(5) 0.1427(4)
H11 H 0.5758 0.4565 0.0670
C12 C 0.7492(6) 0.6513(4) 0.1369(4)
H12 H 0.7581 0.6595 0.0591
C13 C 0.8480(5) 0.7608(4) 0.2484(4)
C14 C 0.8267(6) 0.7410(5) 0.3612(4)
H13 H 0.8924 0.8106 0.4381
C15 C 0.7080(6) 0.6180(4) 0.3585(4)
H14 H 0.6930 0.6078 0.4350
C16 C 0.9720(6) 0.8915(4) 0.2496(4)
C17 C 0.9380(6) 0.9501(5) 0.1686(4)
H15 H 0.8318 0.9069 0.1107
C18 C 1.0620(6) 1.0727(5) 0.1738(4)
H16 H 1.0358 1.1104 0.1188
C19 C 1.2501(6) 1.0841(4) 0.3324(4)
H17 H 1.3581 1.1288 0.3884
C20 C 1.1330(6) 0.9641(4) 0.3351(4)
H18 H 1.1608 0.9312 0.3939
H19 H 0.628(4) 0.397(3) 0.473(2)
H20 H 0.658(4) 0.318(4) 0.366(3)
Zn1A Zn 0.58483(6) 0.67861(5) -0.24840(5)
Zn1_2 Zn 1.41517(6) 1.32139(5) 0.24840(5)
Zn1A_2 Zn -0.41517(6) -0.32139(5) -0.24840(5)
O1A O 0.7761(4) 0.6332(3) -0.1587(3)
O2A O 0.7109(4) 0.5409(3) -0.3664(3)
O3A O 0.4971(4) 0.2183(3) 0.0986(3)
O4A O 0.7394(5) 0.2489(5) 0.2191(3)
O5A O 0.4183(4) 0.6636(3) -0.4020(3)
N1A N 0.3866(5) 0.4875(4) -0.2508(3)
N2A N -0.2182(5) -0.1402(3) -0.2543(3)
N2_2 N 0.2182(5) 0.1402(3) 0.2543(3)
N2A_2 N 0.7818(5) 0.8598(3) -0.2543(3)
C1A C 0.7845(5) 0.5513(4) -0.2619(4)
C2A C 0.8745(6) 0.4551(5) -0.2617(5)
H3A H 0.9791 0.5034 -0.1952
H4A H 0.9100 0.4249 -0.3422
C3A C 0.7492(6) 0.3326(5) -0.2403(4)
C4A C 0.6007(7) 0.2377(5) -0.3317(5)
H5A H 0.5771 0.2501 -0.4060
C5A C 0.4867(6) 0.1240(5) -0.3132(5)
H6A H 0.3855 0.0622 -0.3739
C6A C 0.5230(6) 0.1026(5) -0.2058(5)
H7A H 0.4464 0.0259 -0.1946
C7A C 0.6731(6) 0.1944(5) -0.1133(4)
C8A C 0.7818(6) 0.3091(4) -0.1321(4)
H8A H 0.8804 0.3727 -0.0697
C9A C 0.7226(7) 0.1662(5) -0.0007(5)
H9A H 0.6854 0.0683 -0.0269
H10A H 0.8500 0.2075 0.0242
C10A C 0.6471(7) 0.2164(5) 0.1152(5)
C11A C 0.3625(6) 0.4700(5) -0.1427(4)
H11A H 0.4242 0.5435 -0.0670
C12A C 0.2508(6) 0.3487(4) -0.1369(4)
H12A H 0.2419 0.3405 -0.0591
C13A C 0.1520(5) 0.2392(4) -0.2484(4)
C14A C 0.1733(6) 0.2590(5) -0.3612(4)
H13A H 0.1076 0.1894 -0.4381
C15A C 0.2920(6) 0.3820(4) -0.3585(4)
H14A H 0.3070 0.3922 -0.4350
C16A C 0.0280(6) 0.1085(4) -0.2496(4)
C17A C 0.0620(6) 0.0499(5) -0.1686(4)
H15A H 0.1682 0.0931 -0.1107
C18A C -0.0620(6) -0.0727(5) -0.1738(4)
H16A H -0.0358 -0.1104 -0.1188
C19A C -0.2501(6) -0.0841(4) -0.3324(4)
H17A H -0.3581 -0.1288 -0.3884
C20A C -0.1330(6) 0.0359(4) -0.3351(4)
H18A H -0.1608 0.0688 -0.3939
H19A H 0.372(4) 0.603(3) -0.473(2)
H20A H 0.342(4) 0.682(4) -0.366(3)
O6 O 0.0778(14) 0.7523(10) 0.5830(9)
H1 H 0.0849 0.7679 0.6591
H2 H -0.0158 0.6948 0.5411
loop_
_geom_bond_atom_site_label_1
_geom_bond_atom_site_label_2
_geom_bond_site_symmetry_1
_geom_bond_site_symmetry_2
Zn1 O1 1_555 1_555
O1 C1 1_555 1_555
O2 Zn1 1_555 1_555
O3 C10 1_555 1_555
O4 C10 1_555 1_555
O5 Zn1 1_555 1_555
O6 H1 1_555 1_555
H2 O6 1_555 1_555
N1 Zn1 1_555 1_555
N2 C18 1_555 1_555
C1 O2 1_555 1_555
C2 C1 1_555 1_555
H3 C2 1_555 1_555
H4 C2 1_555 1_555
C3 C2 1_555 1_555
C4 C3 1_555 1_555
H5 C4 1_555 1_555
C5 C4 1_555 1_555
H6 C5 1_555 1_555
C6 C5 1_555 1_555
H7 C6 1_555 1_555
C7 C6 1_555 1_555
C8 C3 1_555 1_555
H8 C8 1_555 1_555
C9 C7 1_555 1_555
H9 C9 1_555 1_555
H10 C9 1_555 1_555
C10 C9 1_555 1_555
C11 N1 1_555 1_555
H11 C11 1_555 1_555
C12 C11 1_555 1_555
H12 C12 1_555 1_555
C13 C12 1_555 1_555
C14 C13 1_555 1_555
H13 C14 1_555 1_555
C15 N1 1_555 1_555
H14 C15 1_555 1_555
C16 C13 1_555 1_555
C17 C16 1_555 1_555
H15 C17 1_555 1_555
C18 C17 1_555 1_555
H16 C18 1_555 1_555
C19 N2 1_555 1_555
H17 C19 1_555 1_555
C20 C16 1_555 1_555
H18 C20 1_555 1_555
H19 O5 1_555 1_555
H20 O5 1_555 1_555
Zn1A O3 1_555 1_555
Zn1_2 N2 1_555 1_555
Zn1A_2 N2A 1_555 1_555
O1A Zn1A 1_555 1_555
O2A Zn1A 1_555 1_555
O3A Zn1 1_555 1_555
O4A C10A 1_555 1_555
O5A Zn1A 1_555 1_555
N1A Zn1A 1_555 1_555
N2A C18A 1_555 1_555
N2_2 Zn1 1_555 1_555
N2A_2 Zn1A 1_555 1_555
C1A O1A 1_555 1_555
C2A C1A 1_555 1_555
H3A C2A 1_555 1_555
H4A C2A 1_555 1_555
C3A C2A 1_555 1_555
C4A C3A 1_555 1_555
H5A C4A 1_555 1_555
C5A C4A 1_555 1_555
H6A C5A 1_555 1_555
C6A C5A 1_555 1_555
H7A C6A 1_555 1_555
C7A C6A 1_555 1_555
C8A C3A 1_555 1_555
H8A C8A 1_555 1_555
C9A C7A 1_555 1_555
H9A C9A 1_555 1_555
H10A C9A 1_555 1_555
C10A O3A 1_555 1_555
C11A N1A 1_555 1_555
H11A C11A 1_555 1_555
C12A C11A 1_555 1_555
H12A C12A 1_555 1_555
C13A C12A 1_555 1_555
C14A C13A 1_555 1_555
H13A C14A 1_555 1_555
C15A N1A 1_555 1_555
H14A C15A 1_555 1_555
C16A C13A 1_555 1_555
C17A C16A 1_555 1_555
H15A C17A 1_555 1_555
C18A C17A 1_555 1_555
H16A C18A 1_555 1_555
C19A N2A 1_555 1_555
H17A C19A 1_555 1_555
C20A C16A 1_555 1_555
H18A C20A 1_555 1_555
H19A O5A 1_555 1_555
H20A O5A 1_555 1_555
C7 C8 1_555 1_555
C14 C15 1_555 1_555
C19 C20 1_555 1_555
O2A C1A 1_555 1_555
C7A C8A 1_555 1_555
C9A C10A 1_555 1_555
C14A C15A 1_555 1_555
C19A C20A 1_555 1_555

#END
