
#######################################################################
#
#                 Cambridge Crystallographic Data Centre
#                                CCDC 
#
#######################################################################
#
# If this CIF has been generated from an entry in the Cambridge 
# Structural Database, then it will include bibliographic, chemical, 
# crystal, experimental, refinement or atomic coordinate data resulting 
# from the CCDC's data processing and validation procedures.
#
#######################################################################

data_CUYHEK
_symmetry_cell_setting           triclinic
_symmetry_space_group_name_H-M   'P -1'
_symmetry_Int_Tables_number      2
_space_group_name_Hall           '-P 1'
loop_
_symmetry_equiv_pos_site_id
_symmetry_equiv_pos_as_xyz
1 x,y,z
2 -x,-y,-z
_cell_length_a                   7.378(3)
_cell_length_b                   11.238(5)
_cell_length_c                   11.373(5)
_cell_angle_alpha                90.253(6)
_cell_angle_beta                 94.771(6)
_cell_angle_gamma                105.027(5)
_cell_volume                     907.248
loop_
_atom_site_label
_atom_site_type_symbol
_atom_site_fract_x
_atom_site_fract_y
_atom_site_fract_z
Zn1 Zn 0.75326(17) 0.25032(11) 0.32264(10)
O1 O 0.7704(11) 0.0678(7) 0.3311(7)
O2 O 1.0767(14) 0.0828(9) 0.3483(12)
O3 O 0.4378(14) -0.5792(9) 0.2989(12)
O4 O 0.7427(11) -0.5658(7) 0.3233(7)
O5 O 0.4539(11) 0.1864(7) 0.2976(9)
O6 O 1.0526(11) 0.3129(7) 0.3459(9)
N1 N 0.7384(14) 0.2535(8) 0.5091(8)
N2 N 0.7572(14) 0.2491(9) 1.1344(8)
C1 C 0.9096(16) 0.0234(11) 0.3425(11)
C2 C 0.8658(17) -0.1185(10) 0.3509(10)
H1 H 0.9773 -0.1402 0.3853
H2 H 0.7669 -0.1462 0.4033
C3 C 0.8039(16) -0.1861(10) 0.2311(11)
C4 C 0.8529(19) -0.1255(12) 0.1267(12)
H3 H 0.9215 -0.0433 0.1305
C5 C 0.802(2) -0.1852(12) 0.0189(11)
H4 H 0.8365 -0.1433 -0.0494
C6 C 0.699(2) -0.3072(13) 0.0110(11)
H5 H 0.6606 -0.3472 -0.0621
C7 C 0.6529(18) -0.3688(11) 0.1143(12)
H6 H 0.5865 -0.4515 0.1094
C8 C 0.7036(15) -0.3107(10) 0.2251(10)
C9 C 0.6488(16) -0.3808(10) 0.3381(11)
H7 H 0.5394 -0.3596 0.3648
H8 H 0.7514 -0.3544 0.3993
C10 C 0.6041(16) -0.5215(11) 0.3207(11)
C11 C 0.6304(17) 0.1600(11) 0.5661(10)
H9 H 0.5509 0.0952 0.5207
C12 C 0.6295(16) 0.1536(10) 0.6870(10)
H10 H 0.5523 0.0860 0.7208
C13 C 0.7456(16) 0.2497(11) 0.7583(10)
C14 C 0.8548(16) 0.3483(10) 0.6988(10)
H11 H 0.9326 0.4157 0.7417
C15 C 0.8476(16) 0.3463(10) 0.5777(9)
H12 H 0.9226 0.4130 0.5413
C16 C 0.7488(16) 0.2486(11) 0.8883(10)
C17 C 0.7000(18) 0.1398(11) 0.9480(10)
H13 H 0.6633 0.0645 0.9069
C18 C 0.7065(18) 0.1446(12) 1.0705(10)
H14 H 0.6736 0.0707 1.1098
C19 C 0.8041(17) 0.3542(11) 1.0761(10)
H15 H 0.8397 0.4283 1.1194
C20 C 0.8020(18) 0.3578(11) 0.9546(10)
H16 H 0.8362 0.4329 0.9176
H17 H 0.357(8) 0.132(7) 0.304(12)
H18 H 0.430(14) 0.249(6) 0.270(12)
H19 H 1.152(8) 0.365(7) 0.341(12)
H20 H 1.073(14) 0.248(6) 0.369(12)
Zn1_2 Zn 0.75326(17) -0.74968(11) 0.32264(10)
Zn1_3 Zn 0.75326(17) 0.25032(11) 1.32264(10)
O4_2 O 0.7427(11) 0.4342(7) 0.3233(7)
N2_2 N 0.7572(14) 0.2491(9) 0.1344(8)
loop_
_geom_bond_atom_site_label_1
_geom_bond_atom_site_label_2
_geom_bond_site_symmetry_1
_geom_bond_site_symmetry_2
Zn1 O1 1_555 1_555
O1 C1 1_555 1_555
O2 C1 1_555 1_555
O3 C10 1_555 1_555
O4 C10 1_555 1_555
O5 Zn1 1_555 1_555
O6 Zn1 1_555 1_555
N1 Zn1 1_555 1_555
N2 C18 1_555 1_555
C1 C2 1_555 1_555
C2 H1 1_555 1_555
H2 C2 1_555 1_555
C3 C2 1_555 1_555
C4 C3 1_555 1_555
H3 C4 1_555 1_555
C5 C4 1_555 1_555
H4 C5 1_555 1_555
C6 C5 1_555 1_555
H5 C6 1_555 1_555
C7 C6 1_555 1_555
H6 C7 1_555 1_555
C8 C3 1_555 1_555
C9 C8 1_555 1_555
H7 C9 1_555 1_555
H8 C9 1_555 1_555
C10 C9 1_555 1_555
C11 N1 1_555 1_555
H9 C11 1_555 1_555
C12 C11 1_555 1_555
H10 C12 1_555 1_555
C13 C12 1_555 1_555
C14 C13 1_555 1_555
H11 C14 1_555 1_555
C15 N1 1_555 1_555
H12 C15 1_555 1_555
C16 C13 1_555 1_555
C17 C16 1_555 1_555
H13 C17 1_555 1_555
C18 C17 1_555 1_555
H14 C18 1_555 1_555
C19 N2 1_555 1_555
H15 C19 1_555 1_555
C20 C16 1_555 1_555
H16 C20 1_555 1_555
H17 O5 1_555 1_555
H18 O5 1_555 1_555
H19 O6 1_555 1_555
H20 O6 1_555 1_555
Zn1_2 O4 1_555 1_555
Zn1_3 N2 1_555 1_555
O4_2 Zn1 1_555 1_555
N2_2 Zn1 1_555 1_555
C7 C8 1_555 1_555
C14 C15 1_555 1_555
C19 C20 1_555 1_555

#END
