
#######################################################################
#
#                 Cambridge Crystallographic Data Centre
#                                CCDC 
#
#######################################################################
#
# If this CIF has been generated from an entry in the Cambridge 
# Structural Database, then it will include bibliographic, chemical, 
# crystal, experimental, refinement or atomic coordinate data resulting 
# from the CCDC's data processing and validation procedures.
#
#######################################################################

data_CUYJAI
_symmetry_cell_setting           triclinic
_symmetry_space_group_name_H-M   'P -1'
_symmetry_Int_Tables_number      2
_space_group_name_Hall           '-P 1'
loop_
_symmetry_equiv_pos_site_id
_symmetry_equiv_pos_as_xyz
1 x,y,z
2 -x,-y,-z
_cell_length_a                   9.562(4)
_cell_length_b                   10.592(2)
_cell_length_c                   10.940(2)
_cell_angle_alpha                115.892(4)
_cell_angle_beta                 105.631(5)
_cell_angle_gamma                95.654(5)
_cell_volume                     929.558
loop_
_atom_site_label
_atom_site_type_symbol
_atom_site_fract_x
_atom_site_fract_y
_atom_site_fract_z
O1 O 0.8555(5) 0.9586(5) 0.2490(5)
O2 O 0.6921(5) 0.8329(5) 0.2876(5)
N1 N 0.6140(6) 0.7596(5) -0.0302(5)
C1 C 0.7120(8) 0.7643(7) -0.0962(7)
H1 H 0.7778 0.8527 -0.0621
C2 C 0.7200(7) 0.6446(7) -0.2119(7)
H2 H 0.7887 0.6531 -0.2556
C3 C 0.5257(7) 0.6305(7) -0.0796(7)
H3 H 0.4582 0.6252 -0.0337
C4 C 0.5257(7) 0.5041(7) -0.1932(7)
H4 H 0.4612 0.4167 -0.2221
C5 C 0.6244(7) 0.5106(7) -0.2633(6)
Zn1 Zn 0.62275(9) 0.95526(8) 0.16027(8)
O3 O 0.6725(6) 0.0860(5) 0.0785(5)
O4 O 0.5966(5) 0.1055(5) -0.1227(5)
N2 N 0.6358(6) 0.1434(6) -0.6421(5)
C6 C 0.6151(7) 0.2444(7) -0.4044(7)
H5 H 0.6024 0.2285 -0.3305
C7 C 0.6191(7) 0.1302(7) -0.5295(7)
H6 H 0.6097 0.0391 -0.5358
C8 C 0.6503(8) 0.3954(7) -0.5068(7)
H7 H 0.6636 0.4855 -0.5026
C9 C 0.6958(8) 0.1189(6) -0.0117(8)
C10 C 0.8583(8) 0.4384(7) 0.0433(7)
H8 H 0.8285 0.3954 -0.0571
C11 C 0.6300(7) 0.3822(7) -0.3902(7)
C12 C 0.9485(8) 0.8167(7) 0.3605(7)
H9 H 1.0436 0.8625 0.3643
H10 H 0.9550 0.8432 0.4591
C13 C 0.8775(8) 0.5846(7) 0.1224(7)
H11 H 0.8616 0.6389 0.0746
C14 C 0.8819(7) 0.3536(7) 0.1088(7)
C15 C 0.8586(7) 0.1929(7) 0.0209(8)
H12 H 0.9282 0.1588 0.0746
H13 H 0.8761 0.1696 -0.0689
C16 C 0.9442(8) 0.5694(8) 0.3394(7)
H14 H 0.9736 0.6117 0.4398
C17 C 0.9247(8) 0.4207(8) 0.2576(8)
H15 H 0.9410 0.3655 0.3045
C18 C 0.9208(7) 0.6550(7) 0.2745(7)
C19 C 0.6506(8) 0.2754(7) -0.6273(7)
H16 H 0.6619 0.2879 -0.7034
C21 C 0.8261(8) 0.8715(7) 0.2956(7)
Zn1_2 Zn 0.62275(9) -0.04474(8) 0.16027(8)
Zn1A Zn 0.37725(9) 0.04474(8) -0.16027(8)
Zn1_3 Zn 0.62275(9) -0.04474(8) -0.83973(8)
O3_2 O 0.6725(6) 1.0860(5) 0.0785(5)
O4A O 0.4034(5) 0.8945(5) 0.1227(5)
N2_2 N 0.6358(6) 1.1434(6) 0.3579(5)
C20 C 0.2370(10) 0.1330(10) 0.3616(10)
H17 H 0.3170 0.1839 0.3503
H18 H 0.2380 0.0326 0.3233
H19 H 0.2501 0.1739 0.4627
O5 O 0.1031(6) 0.1449(8) 0.2887(9)
H20 H 0.0349 0.1037 0.3007
loop_
_geom_bond_atom_site_label_1
_geom_bond_atom_site_label_2
_geom_bond_site_symmetry_1
_geom_bond_site_symmetry_2
O1 Zn1 1_555 1_555
O2 Zn1 1_555 1_555
N1 C1 1_555 1_555
C1 H1 1_555 1_555
C2 C1 1_555 1_555
H2 C2 1_555 1_555
C3 N1 1_555 1_555
H3 C3 1_555 1_555
C4 C3 1_555 1_555
H4 C4 1_555 1_555
C5 C2 1_555 1_555
Zn1 N1 1_555 1_555
O3 C9 1_555 1_555
O4 C9 1_555 1_555
N2 C7 1_555 1_555
C6 H5 1_555 1_555
C7 C6 1_555 1_555
H6 C7 1_555 1_555
C8 H7 1_555 1_555
C9 C15 1_555 1_555
C10 H8 1_555 1_555
C11 C5 1_555 1_555
C12 H9 1_555 1_555
H10 C12 1_555 1_555
C13 C10 1_555 1_555
H11 C13 1_555 1_555
C14 C10 1_555 1_555
C15 C14 1_555 1_555
H12 C15 1_555 1_555
H13 C15 1_555 1_555
C16 H14 1_555 1_555
C17 C14 1_555 1_555
H15 C17 1_555 1_555
C18 C12 1_555 1_555
C19 N2 1_555 1_555
H16 C19 1_555 1_555
C20 H17 1_555 1_555
H18 C20 1_555 1_555
H19 C20 1_555 1_555
O5 C20 1_555 1_555
H20 O5 1_555 1_555
C21 O1 1_555 1_555
Zn1_2 O3 1_555 1_555
Zn1A O4 1_555 1_555
Zn1_3 N2 1_555 1_555
O3_2 Zn1 1_555 1_555
O4A Zn1 1_555 1_555
N2_2 Zn1 1_555 1_555
O2 C21 1_555 1_555
C4 C5 1_555 1_555
C6 C11 1_555 1_555
C8 C11 1_555 1_555
C8 C19 1_555 1_555
C12 C21 1_555 1_555
C13 C18 1_555 1_555
C16 C17 1_555 1_555
C16 C18 1_555 1_555

#END
