
#######################################################################
#
#                 Cambridge Crystallographic Data Centre
#                                CCDC 
#
#######################################################################
#
# If this CIF has been generated from an entry in the Cambridge 
# Structural Database, then it will include bibliographic, chemical, 
# crystal, experimental, refinement or atomic coordinate data resulting 
# from the CCDC's data processing and validation procedures.
#
#######################################################################

data_CUYJIQ
_symmetry_cell_setting           triclinic
_symmetry_space_group_name_H-M   'P -1'
_symmetry_Int_Tables_number      2
_space_group_name_Hall           '-P 1'
loop_
_symmetry_equiv_pos_site_id
_symmetry_equiv_pos_as_xyz
1 x,y,z
2 -x,-y,-z
_cell_length_a                   7.2406(14)
_cell_length_b                   9.9524(19)
_cell_length_c                   12.604(3)
_cell_angle_alpha                104.510(11)
_cell_angle_beta                 90.326(11)
_cell_angle_gamma                110.897(11)
_cell_volume                     816.904
loop_
_atom_site_label
_atom_site_type_symbol
_atom_site_fract_x
_atom_site_fract_y
_atom_site_fract_z
Sn1 Sn 0.83976(8) 0.51874(6) 0.38946(5)
Sn2 Sn 0.83938(8) 0.49377(6) 0.11055(5)
Sn3 Sn 0.59866(8) 0.48616(6) 0.75524(5)
P1 P 0.6242(3) 0.7024(2) 0.58107(18)
P2 P 0.6290(3) 0.7049(2) 0.01272(19)
O1 O 0.6651(9) 0.6408(7) 0.4635(5)
O2 O 0.4054(9) 0.6788(6) 0.5853(5)
O3 O 0.7124(9) 0.6479(7) 0.6639(5)
O4 O 0.6704(9) 0.4802(7) 0.2434(5)
O5 O 0.7040(8) 0.6647(7) -0.1003(5)
O6 O 0.7374(9) 0.6811(6) 0.1058(5)
O7 O 0.4039(9) 0.6312(6) 0.0122(5)
N1 N 0.9753(10) 1.2086(8) 0.6402(6)
C1 C 1.0656(13) 1.1164(9) 0.6545(7)
H1 H 1.2049 1.1571 0.6753
C2 C 0.9639(12) 0.9637(10) 0.6403(7)
H2 H 1.0340 0.9023 0.6499
C3 C 0.7598(11) 0.9022(9) 0.6121(7)
C4 C 0.6659(13) 0.9982(9) 0.6008(7)
H3 H 0.5258 0.9609 0.5833
C5 C 0.7765(13) 1.1481(9) 0.6151(7)
H4 H 0.7090 1.2116 0.6067
N2 N 0.7758(10) 1.2146(8) 0.0993(6)
C6 C 0.8163(14) 1.1395(9) 0.0026(7)
H5 H 0.8781 1.1945 -0.0476
C7 C 0.7725(13) 0.9875(9) -0.0268(8)
H6 H 0.8001 0.9395 -0.0967
C8 C 0.6878(11) 0.9052(9) 0.0466(6)
C9 C 0.6485(13) 0.9806(9) 0.1469(7)
H7 H 0.5921 0.9283 0.1996
C10 C 0.6924(13) 1.1333(9) 0.1697(7)
H8 H 0.6623 1.1830 0.2381
Sn1A Sn 0.16024(8) 0.48126(6) -0.38946(5)
Sn1_2 Sn 0.83976(8) 0.51874(6) -0.61054(5)
Sn1A_2 Sn 0.16024(8) 0.48126(6) 0.61054(5)
Sn2A Sn 0.16062(8) 0.50623(6) -0.11055(5)
Sn3A Sn 0.40134(8) 0.51384(6) -0.75524(5)
Sn3_2 Sn 0.59866(8) 0.48616(6) -0.24476(5)
Sn3A_2 Sn 0.40134(8) 0.51384(6) 0.24476(5)
P1A P 0.3758(3) 0.2976(2) -0.58107(18)
P2A P 0.3710(3) 0.2951(2) -0.01272(19)
O1A O 0.3349(9) 0.3592(7) -0.4635(5)
O2A O 0.5946(9) 0.3212(6) -0.5853(5)
O2_2 O 0.4054(9) 0.6788(6) -0.4147(5)
O2A_2 O 0.5946(9) 0.3212(6) 0.4147(5)
O3A O 0.2876(9) 0.3521(7) -0.6639(5)
O4A O 0.3296(9) 0.5198(7) -0.2434(5)
O4_2 O 0.6704(9) 0.4802(7) -0.7566(5)
O4A_2 O 0.3296(9) 0.5198(7) 0.7566(5)
O5A O 0.2960(8) 0.3353(7) 0.1003(5)
O5_2 O 0.7040(8) 0.6647(7) 0.8997(5)
O5A_2 O 0.2960(8) 0.3353(7) -0.8997(5)
O6A O 0.2626(9) 0.3189(6) -0.1058(5)
O7A O 0.5961(9) 0.3688(6) -0.0122(5)
N1A N 0.0247(10) -0.2086(8) -0.6402(6)
C1A C -0.0656(13) -0.1164(9) -0.6545(7)
H1A H -0.2049 -0.1571 -0.6753
C2A C 0.0361(12) 0.0363(10) -0.6403(7)
H2A H -0.0340 0.0977 -0.6499
C3A C 0.2402(11) 0.0978(9) -0.6121(7)
C4A C 0.3341(13) 0.0018(9) -0.6008(7)
H3A H 0.4742 0.0391 -0.5833
C5A C 0.2235(13) -0.1481(9) -0.6151(7)
H4A H 0.2910 -0.2116 -0.6067
N2A N 0.2242(10) -0.2146(8) -0.0993(6)
C6A C 0.1837(14) -0.1395(9) -0.0026(7)
H5A H 0.1219 -0.1945 0.0476
C7A C 0.2275(13) 0.0125(9) 0.0268(8)
H6A H 0.1999 0.0605 0.0967
C8A C 0.3122(11) 0.0948(9) -0.0466(6)
C9A C 0.3515(13) 0.0194(9) -0.1469(7)
H7A H 0.4079 0.0717 -0.1996
C10A C 0.3076(13) -0.1333(9) -0.1697(7)
H8A H 0.3377 -0.1830 -0.2381
loop_
_geom_bond_atom_site_label_1
_geom_bond_atom_site_label_2
_geom_bond_site_symmetry_1
_geom_bond_site_symmetry_2
Sn1 O1 1_555 1_555
Sn2 O4 1_555 1_555
Sn3 O3 1_555 1_555
P1 O1 1_555 1_555
P2 O5 1_555 1_555
O2 P1 1_555 1_555
O3 P1 1_555 1_555
O4 Sn1 1_555 1_555
O5 Sn3_2 1_555 1_555
O6 Sn2 1_555 1_555
O7 P2 1_555 1_555
N1 C1 1_555 1_555
C1 H1 1_555 1_555
C2 C1 1_555 1_555
H2 C2 1_555 1_555
C3 P1 1_555 1_555
C4 C3 1_555 1_555
H3 C4 1_555 1_555
C5 N1 1_555 1_555
H4 C5 1_555 1_555
N2 C6 1_555 1_555
C6 H5 1_555 1_555
C7 C6 1_555 1_555
H6 C7 1_555 1_555
C8 P2 1_555 1_555
C9 C8 1_555 1_555
H7 C9 1_555 1_555
C10 N2 1_555 1_555
H8 C10 1_555 1_555
Sn1A O1A 1_555 1_555
Sn1_2 O2A 1_555 1_555
Sn1A_2 O2 1_555 1_555
Sn2A O7 1_555 1_555
Sn3A O3A 1_555 1_555
Sn3_2 O4A 1_555 1_555
Sn3A_2 O4 1_555 1_555
P1A O1A 1_555 1_555
P2A O5A 1_555 1_555
O2A P1A 1_555 1_555
O2_2 Sn1A 1_555 1_555
O2A_2 Sn1 1_555 1_555
O3A P1A 1_555 1_555
O4A Sn1A 1_555 1_555
O4_2 Sn1_2 1_555 1_555
O4A_2 Sn3 1_555 1_555
O5A Sn3A_2 1_555 1_555
O5_2 Sn3 1_555 1_555
O5A_2 Sn3A 1_555 1_555
O6A Sn2A 1_555 1_555
O7A Sn2 1_555 1_555
N1A C1A 1_555 1_555
C1A H1A 1_555 1_555
C2A C1A 1_555 1_555
H2A C2A 1_555 1_555
C3A P1A 1_555 1_555
C4A C3A 1_555 1_555
H3A C4A 1_555 1_555
C5A N1A 1_555 1_555
H4A C5A 1_555 1_555
N2A C6A 1_555 1_555
C6A H5A 1_555 1_555
C7A C6A 1_555 1_555
H6A C7A 1_555 1_555
C8A P2A 1_555 1_555
C9A C8A 1_555 1_555
H7A C9A 1_555 1_555
C10A N2A 1_555 1_555
H8A C10A 1_555 1_555
P2 O6 1_555 1_555
C2 C3 1_555 1_555
C4 C5 1_555 1_555
C7 C8 1_555 1_555
C9 C10 1_555 1_555
Sn1A_2 O4A_2 1_555 1_555
Sn2A O4A 1_555 1_555
Sn3A O4_2 1_555 1_555
P2A O6A 1_555 1_555
P2A O7A 1_555 1_555
C2A C3A 1_555 1_555
C4A C5A 1_555 1_555
C7A C8A 1_555 1_555
C9A C10A 1_555 1_555

#END
