
#######################################################################
#
#                 Cambridge Crystallographic Data Centre
#                                CCDC 
#
#######################################################################
#
# If this CIF has been generated from an entry in the Cambridge 
# Structural Database, then it will include bibliographic, chemical, 
# crystal, experimental, refinement or atomic coordinate data resulting 
# from the CCDC's data processing and validation procedures.
#
#######################################################################

data_CUYJUC
_symmetry_cell_setting           orthorhombic
_symmetry_space_group_name_H-M   'P n a 21'
_symmetry_Int_Tables_number      33
_space_group_name_Hall           'P 2c -2n'
loop_
_symmetry_equiv_pos_site_id
_symmetry_equiv_pos_as_xyz
1 x,y,z
2 -x,-y,1/2+z
3 1/2-x,1/2+y,1/2+z
4 1/2+x,1/2-y,z
_cell_length_a                   18.955(3)
_cell_length_b                   9.7543(14)
_cell_length_c                   17.833(3)
_cell_angle_alpha                90
_cell_angle_beta                 90
_cell_angle_gamma                90
_cell_volume                     3297.19
loop_
_atom_site_label
_atom_site_type_symbol
_atom_site_fract_x
_atom_site_fract_y
_atom_site_fract_z
Sn1 Sn 0.874571(17) 0.746170(19) 0.046410(19)
Sn2 Sn 0.616851(17) 0.76062(2) -0.033405(17)
Sn3 Sn 0.876889(18) 1.245754(19) -0.012169(18)
Sn4 Sn 0.631200(16) 0.245950(19) 0.063460(17)
P1 P 0.73688(4) 0.54653(8) 0.03496(7)
P2 P 0.74048(4) 1.04104(7) -0.02699(7)
P3 P 0.51339(4) 0.45881(8) -0.00728(7)
P4 P 1.00918(4) 0.53659(8) 0.05949(7)
O1 O 0.52613(11) 0.6086(2) -0.02221(16)
O2 O 0.66857(10) 0.6314(2) 0.04317(13)
O3 O 0.79691(11) 0.6043(2) 0.08307(14)
O4 O 0.94824(11) 0.5928(2) 0.01246(14)
O5 O 0.67589(11) 1.1365(2) -0.02579(14)
O6 O 0.80092(11) 1.0954(2) 0.02148(14)
O7 O 0.72231(11) 0.8942(2) -0.00976(15)
O8 O 0.72477(11) 0.3961(2) 0.04784(16)
O9 O 1.02881(11) 0.3917(2) 0.03983(16)
O10 O 0.58018(11) 0.3726(2) -0.01549(14)
O11 O 0.45164(11) 0.4006(2) -0.05282(14)
O12 O 1.07276(11) 0.6365(2) 0.05921(14)
N1 N 0.82180(13) 0.6594(3) -0.06998(16)
N2 N 0.92832(13) 0.6410(3) 0.16890(18)
N3 N 0.82168(13) 1.1540(3) -0.13282(17)
N4 N 0.43022(14) 0.3555(3) 0.10133(16)
C1 C 0.76712(17) 0.5723(3) -0.06131(19)
C2 C 0.7345(2) 0.5089(4) -0.1220(2)
H1 H 0.6972 0.4468 -0.1147
C3 C 0.7581(2) 0.5391(4) -0.1927(3)
H2 H 0.7371 0.4978 -0.2348
C4 C 0.84450(17) 0.6909(3) -0.1390(2)
C5 C 0.90364(19) 0.7905(4) -0.1455(2)
H3 H 0.8884 0.8795 -0.1273
H4 H 0.9178 0.7982 -0.1976
H5 H 0.9433 0.7589 -0.1158
C6 C 0.8503(3) 0.7691(4) 0.2510(3)
H6 H 0.8039 0.7362 0.2368
H7 H 0.8626 0.8481 0.2206
H8 H 0.8500 0.7950 0.3035
C7 C 0.90371(18) 0.6576(4) 0.2387(2)
C8 C 0.77303(17) 1.0537(3) -0.12242(19)
C9 C 0.7481(2) 0.9760(4) -0.1815(2)
H9 H 0.7141 0.9075 -0.1731
C10 C 0.92655(18) 0.5777(4) 0.2983(2)
H10 H 0.9096 0.5934 0.3471
C11 C 0.97500(19) 0.4740(4) 0.2843(2)
H11 H 0.9901 0.4165 0.3234
C12 C 1.0011(2) 0.4552(4) 0.2123(3)
H12 H 1.0337 0.3852 0.2017
C13 C 0.81317(18) 0.6314(3) -0.2017(2)
H13 H 0.8293 0.6536 -0.2500
C14 C 0.77362(19) 0.9999(4) -0.2532(2)
H14 H 0.7583 0.9467 -0.2940
C15 C 0.84652(17) 1.1785(3) -0.2025(2)
C16 C 0.48386(17) 0.4426(3) 0.0894(2)
C17 C 0.97736(16) 0.5436(3) 0.1563(2)
C18 C 0.82187(19) 1.1033(4) -0.2631(2)
H15 H 0.8384 1.1234 -0.3115
C19 C 0.9023(2) 1.2847(4) -0.2106(3)
H16 H 0.9208 1.2825 -0.2613
H17 H 0.9401 1.2663 -0.1753
H18 H 0.8824 1.3744 -0.2005
C20 C 0.3452(2) 0.2385(4) 0.1805(3)
H19 H 0.3540 0.1559 0.1516
H20 H 0.3396 0.2148 0.2330
H21 H 0.3026 0.2825 0.1624
C21 C 0.40626(17) 0.3343(3) 0.1719(2)
C22 C 0.43786(19) 0.3993(4) 0.2324(2)
H22 H 0.4218 0.3820 0.2813
C23 C 0.4926(3) 0.4890(5) 0.2207(3)
H23 H 0.5143 0.5327 0.2616
C24 C 0.51571(18) 0.5146(4) 0.1479(2)
H24 H 0.5517 0.5786 0.1385
Sn2C Sn 1.116851(17) 0.73938(2) -0.033405(17)
Sn3C Sn 0.376889(18) 0.254246(19) -0.012169(18)
Sn4_2 Sn 0.631200(16) 1.245950(19) 0.063460(17)
Sn4C Sn 1.131200(16) 0.254050(19) 0.063460(17)
O5_2 O 0.67589(11) 0.1365(2) -0.02579(14)
O9C O 0.52881(11) 0.1083(2) 0.03983(16)
O11C O 0.95164(11) 1.0994(2) -0.05282(14)
O12C O 0.57276(11) 0.8635(2) 0.05921(14)
N4C N 0.93022(14) 1.1445(3) 0.10133(16)
O13 O 0.6993(2) 0.9314(4) 0.1497(2)
loop_
_geom_bond_atom_site_label_1
_geom_bond_atom_site_label_2
_geom_bond_site_symmetry_1
_geom_bond_site_symmetry_2
Sn1 O3 1_555 1_555
Sn2 O1 1_555 1_555
Sn3 O6 1_555 1_555
Sn4 O8 1_555 1_555
P1 O2 1_555 1_555
P2 O5 1_555 1_555
P3 O1 1_555 1_555
P4 O4 1_555 1_555
O2 Sn2 1_555 1_555
O3 P1 1_555 1_555
O4 Sn1 1_555 1_555
O5 Sn4_2 1_555 1_555
O6 P2 1_555 1_555
O7 Sn2 1_555 1_555
O8 P1 1_555 1_555
O9 P4 1_555 1_555
O10 Sn4 1_555 1_555
O11 P3 1_555 1_555
O12 P4 1_555 1_555
N1 Sn1 1_555 1_555
N2 Sn1 1_555 1_555
N3 Sn3 1_555 1_555
N4 C16 1_555 1_555
C1 P1 1_555 1_555
C2 C1 1_555 1_555
H1 C2 1_555 1_555
C3 C2 1_555 1_555
H2 C3 1_555 1_555
C4 N1 1_555 1_555
C5 C4 1_555 1_555
H3 C5 1_555 1_555
H4 C5 1_555 1_555
H5 C5 1_555 1_555
C6 H6 1_555 1_555
H7 C6 1_555 1_555
H8 C6 1_555 1_555
C7 N2 1_555 1_555
C8 P2 1_555 1_555
C9 C8 1_555 1_555
H9 C9 1_555 1_555
C10 C7 1_555 1_555
H10 C10 1_555 1_555
C11 C10 1_555 1_555
H11 C11 1_555 1_555
C12 C11 1_555 1_555
H12 C12 1_555 1_555
C13 C3 1_555 1_555
H13 C13 1_555 1_555
C14 C9 1_555 1_555
H14 C14 1_555 1_555
C15 N3 1_555 1_555
C16 P3 1_555 1_555
C17 P4 1_555 1_555
C18 C14 1_555 1_555
H15 C18 1_555 1_555
C19 C15 1_555 1_555
H16 C19 1_555 1_555
H17 C19 1_555 1_555
H18 C19 1_555 1_555
C20 H19 1_555 1_555
H20 C20 1_555 1_555
H21 C20 1_555 1_555
C21 N4 1_555 1_555
C22 C21 1_555 1_555
H22 C22 1_555 1_555
C23 C22 1_555 1_555
H23 C23 1_555 1_555
C24 C16 1_555 1_555
H24 C24 1_555 1_555
Sn2C O12 1_555 1_555
Sn3C O11 1_555 1_555
Sn4C O9 1_555 1_555
O5_2 Sn4 1_555 1_555
O9C Sn4 1_555 1_555
O11C Sn3 1_555 1_555
O12C Sn2 1_555 1_555
N4C Sn3 1_555 1_555
P2 O7 1_555 1_555
P3 O10 1_555 1_555
N1 C1 1_555 1_555
N2 C17 1_555 1_555
N3 C8 1_555 1_555
N4 Sn3C 1_555 1_555
C4 C13 1_555 1_555
C6 C7 1_555 1_555
C12 C17 1_555 1_555
C15 C18 1_555 1_555
C20 C21 1_555 1_555
C23 C24 1_555 1_555

#END
