
#######################################################################
#
#                 Cambridge Crystallographic Data Centre
#                                CCDC 
#
#######################################################################
#
# If this CIF has been generated from an entry in the Cambridge 
# Structural Database, then it will include bibliographic, chemical, 
# crystal, experimental, refinement or atomic coordinate data resulting 
# from the CCDC's data processing and validation procedures.
#
#######################################################################

data_CUYJEM
_symmetry_cell_setting           monoclinic
_symmetry_space_group_name_H-M   'P 21/c'
_symmetry_Int_Tables_number      14
_space_group_name_Hall           '-P 2ybc'
loop_
_symmetry_equiv_pos_site_id
_symmetry_equiv_pos_as_xyz
1 x,y,z
2 -x,1/2+y,1/2-z
3 -x,-y,-z
4 x,1/2-y,1/2+z
_cell_length_a                   4.9595(8)
_cell_length_b                   10.7673(18)
_cell_length_c                   13.996(2)
_cell_angle_alpha                90
_cell_angle_beta                 93.616(2)
_cell_angle_gamma                90
_cell_volume                     745.904
loop_
_atom_site_label
_atom_site_type_symbol
_atom_site_fract_x
_atom_site_fract_y
_atom_site_fract_z
Sn1 Sn 0.26805(4) 0.14918(2) 0.386709(16)
P1 P 0.81830(16) 0.14905(9) 0.55040(6)
O1 O 0.6507(4) 0.1729(2) 0.45727(15)
O2 O 0.7061(4) 0.0450(2) 0.61045(16)
O3 O 1.1154(4) 0.1337(2) 0.53183(15)
N1 N 0.5941(5) 0.3928(3) 0.75145(19)
C1 C 0.7986(6) 0.2863(3) 0.6230(2)
C2 C 0.6160(6) 0.2958(3) 0.6936(2)
H1 H 0.4973 0.2278 0.7014
C3 C 0.9462(7) 0.4909(3) 0.6699(3)
H2 H 1.0587 0.5612 0.6626
C4 C 0.9648(6) 0.3893(3) 0.6111(2)
H3 H 1.0902 0.3892 0.5626
C5 C 0.7618(6) 0.4892(3) 0.7398(2)
H4 H 0.7530 0.5587 0.7813
Sn1B Sn 0.73195(4) -0.14918(2) 0.613291(16)
Sn1_2 Sn 1.26805(4) 0.14918(2) 0.386709(16)
Sn1B_2 Sn -0.26805(4) -0.14918(2) 0.613291(16)
P1B P 0.18170(16) -0.14905(9) 0.44960(6)
O1B O 0.3493(4) -0.1729(2) 0.54273(15)
O2B O 0.2939(4) -0.0450(2) 0.38955(16)
O3B O -0.1154(4) -0.1337(2) 0.46817(15)
O3_2 O 0.1154(4) 0.1337(2) 0.53183(15)
O3B_2 O 0.8846(4) -0.1337(2) 0.46817(15)
N1B N 0.4059(5) -0.3928(3) 0.24855(19)
C1B C 0.2014(6) -0.2863(3) 0.3770(2)
C2B C 0.3840(6) -0.2958(3) 0.3064(2)
H1B H 0.5027 -0.2278 0.2986
C3B C 0.0538(7) -0.4909(3) 0.3301(3)
H2B H -0.0587 -0.5612 0.3374
C4B C 0.0352(6) -0.3893(3) 0.3889(2)
H3B H -0.0902 -0.3892 0.4374
C5B C 0.2382(6) -0.4892(3) 0.2602(2)
H4B H 0.2470 -0.5587 0.2187
loop_
_geom_bond_atom_site_label_1
_geom_bond_atom_site_label_2
_geom_bond_site_symmetry_1
_geom_bond_site_symmetry_2
Sn1 O1 1_555 1_555
P1 O1 1_555 1_555
O2 P1 1_555 1_555
O3 P1 1_555 1_555
N1 C2 1_555 1_555
C1 P1 1_555 1_555
C2 C1 1_555 1_555
H1 C2 1_555 1_555
C3 H2 1_555 1_555
C4 C1 1_555 1_555
H3 C4 1_555 1_555
C5 N1 1_555 1_555
H4 C5 1_555 1_555
Sn1B O2 1_555 1_555
Sn1_2 O3 1_555 1_555
Sn1B_2 O3B 1_555 1_555
P1B O1B 1_555 1_555
O1B Sn1B 1_555 1_555
O2B Sn1 1_555 1_555
O3B P1B 1_555 1_555
O3_2 Sn1 1_555 1_555
O3B_2 Sn1B 1_555 1_555
N1B C2B 1_555 1_555
C1B P1B 1_555 1_555
C2B C1B 1_555 1_555
H1B C2B 1_555 1_555
C3B H2B 1_555 1_555
C4B C1B 1_555 1_555
H3B C4B 1_555 1_555
C5B N1B 1_555 1_555
H4B C5B 1_555 1_555
C3 C4 1_555 1_555
C3 C5 1_555 1_555
P1B O2B 1_555 1_555
C3B C4B 1_555 1_555
C3B C5B 1_555 1_555

#END
