
#######################################################################
#
#                 Cambridge Crystallographic Data Centre
#                                CCDC 
#
#######################################################################
#
# If this CIF has been generated from an entry in the Cambridge 
# Structural Database, then it will include bibliographic, chemical, 
# crystal, experimental, refinement or atomic coordinate data resulting 
# from the CCDC's data processing and validation procedures.
#
#######################################################################

data_CUYKIR
_symmetry_cell_setting           monoclinic
_symmetry_space_group_name_H-M   'P 21/n'
_symmetry_Int_Tables_number      14
_space_group_name_Hall           '-P 2yn'
loop_
_symmetry_equiv_pos_site_id
_symmetry_equiv_pos_as_xyz
1 x,y,z
2 1/2-x,1/2+y,1/2-z
3 -x,-y,-z
4 1/2+x,1/2-y,1/2+z
_cell_length_a                   10.400(2)
_cell_length_b                   18.233(4)
_cell_length_c                   18.238(4)
_cell_angle_alpha                90
_cell_angle_beta                 90.17(3)
_cell_angle_gamma                90
_cell_volume                     3458.33
loop_
_atom_site_label
_atom_site_type_symbol
_atom_site_fract_x
_atom_site_fract_y
_atom_site_fract_z
Zn1 Zn 0.85557(13) 0.66770(7) 0.16695(9)
Zn2 Zn 1.15295(13) 0.66357(8) 0.17059(8)
Zn3 Zn 1.00359(17) 0.66784(9) 0.31210(7)
Zn4 Zn 1.00854(15) 0.80851(7) 0.16749(10)
C1 C 0.6177(11) 0.6101(6) 0.3537(7)
C2 C 0.6237(11) 0.8491(6) 0.1087(8)
C3 C 0.3914(10) 0.8511(7) 0.1113(7)
C4 C 0.5077(13) 0.8125(6) 0.1170(5)
H1 H 0.5070 0.7624 0.1265
C5 C 0.7414(11) 0.6258(6) 0.3139(7)
C6 C 0.5035(13) 0.6131(5) 0.3156(5)
H2 H 0.5048 0.6192 0.2650
C7 C 0.6236(12) 0.9242(7) 0.0946(7)
H3 H 0.7008 0.9489 0.0877
C8 C 0.3910(12) 0.9257(9) 0.0995(9)
H4 H 0.3138 0.9514 0.0975
C9 C 0.6153(12) 0.5985(8) 0.4289(8)
H5 H 0.6924 0.5958 0.4548
O1 O 0.8464(8) 0.8437(5) 0.1262(7)
O2 O 1.0034(8) 0.7131(3) 0.2152(3)
O3 O 0.7340(8) 0.7391(5) 0.1273(5)
C10 C 0.3881(11) 0.6073(7) 0.3509(8)
C11 C 0.3861(12) 0.5929(8) 0.4259(8)
H6 H 0.3093 0.5845 0.4505
C12 C 0.2648(12) 0.6140(7) 0.3094(8)
C13 C 0.2682(12) 0.8094(7) 0.1261(8)
O4 O 0.1641(8) 0.8449(5) 0.1184(7)
O5 O 0.1634(8) 0.6177(6) 0.3444(6)
O6 O 0.2774(9) 0.7446(6) 0.1487(7)
O7 O 0.2768(8) 0.6224(6) 0.2421(6)
C14 C 0.7424(11) 0.8073(8) 0.1208(8)
C15 C 0.5077(14) 0.5913(7) 0.4636(6)
H7 H 0.5090 0.5851 0.5142
C16 C 0.5066(16) 0.9622(5) 0.0907(7)
H8 H 0.5067 1.0125 0.0821
O8 O 1.0069(13) 0.2886(5) -0.0590(4)
O9 O 0.8624(9) 0.3762(5) -0.0717(4)
O10 O 0.8658(8) 0.5695(4) 0.1232(5)
N1 N 0.9829(12) 1.1122(5) 0.7516(7)
O11 O 1.0115(14) 0.5555(5) 0.2115(5)
N2 N 1.0164(12) 0.7463(7) 0.3917(5)
C17 C 0.9565(11) 0.3590(6) 0.0476(7)
C18 C 0.9467(12) 0.5301(6) 0.1603(8)
C19 C 0.9418(14) 0.3387(7) -0.0337(7)
C20 C 0.9604(11) 0.4510(6) 0.1385(6)
C21 C 1.0024(16) 0.4015(6) 0.1900(5)
H9 H 1.0182 0.4162 0.2380
C22 C 1.0018(16) 0.3074(6) 0.0957(6)
H10 H 1.0192 0.2598 0.0803
C23 C 1.0210(18) 0.3286(6) 0.1685(7)
H11 H 1.0464 0.2939 0.2031
C24 C 1.1306(15) 0.7734(11) 0.4173(8)
H12 H 1.2055 0.7553 0.3961
C25 C 0.8556(14) 1.0351(8) 0.6722(11)
H13 H 0.7746 1.0214 0.6554
C26 C 0.8694(15) 1.0895(10) 0.7243(10)
H14 H 0.7953 1.1119 0.7418
C27 C 1.0364(13) 0.8543(8) 0.4999(7)
C28 C 1.0852(15) 1.0244(8) 0.6745(11)
H15 H 1.1614 1.0028 0.6589
C29 C 1.0851(14) 1.0799(9) 0.7267(10)
H16 H 1.1642 1.0951 0.7451
C30 C 0.9147(14) 0.7762(12) 0.4209(12)
H17 H 0.8348 0.7602 0.4044
C31 C 1.1437(15) 0.8240(10) 0.4704(10)
H18 H 1.2249 0.8379 0.4867
C32 C 0.9646(14) 1.0019(9) 0.6459(8)
C33 C 0.9166(14) 0.8298(9) 0.4743(10)
H19 H 0.8406 0.8491 0.4929
C34 C 1.0485(14) 0.9101(8) 0.5560(8)
H20 H 1.1317 0.9238 0.5689
C35 C 0.9550(13) 0.9433(9) 0.5905(8)
H21 H 0.8723 0.9279 0.5787
C36 C 0.9338(11) 0.4303(6) 0.0682(6)
H22 H 0.9009 0.4639 0.0347
O12 O 0.8439(8) 0.6252(6) 0.3485(5)
O13 O 0.7351(10) 0.6398(8) 0.2455(7)
Zn2_2 Zn 0.15295(13) 0.66357(8) 0.17059(8)
Zn2B Zn 0.84705(13) 0.33643(8) -0.17059(8)
Zn3_2 Zn 0.00359(17) 0.66784(9) 0.31210(7)
Zn4_2 Zn 0.00854(15) 0.80851(7) 0.16749(10)
Zn4B Zn 0.99146(15) 1.19149(7) 0.83251(10)
O4_2 O 1.1641(8) 0.8449(5) 0.1184(7)
O5_2 O 1.1634(8) 0.6177(6) 0.3444(6)
O6_2 O 1.2774(9) 0.7446(6) 0.1487(7)
O7_2 O 1.2768(8) 0.6224(6) 0.2421(6)
O9B O 1.1376(9) 0.6238(5) 0.0717(4)
N1B N 1.0171(12) 0.8878(5) 0.2484(7)
loop_
_geom_bond_atom_site_label_1
_geom_bond_atom_site_label_2
_geom_bond_site_symmetry_1
_geom_bond_site_symmetry_2
Zn1 Zn2 1_555 1_555
Zn2 Zn3 1_555 1_555
Zn3 Zn1 1_555 1_555
Zn4 Zn1 1_555 1_555
C1 C5 1_555 1_555
C2 C4 1_555 1_555
C3 C4 1_555 1_555
C4 H1 1_555 1_555
C5 O12 1_555 1_555
C6 C1 1_555 1_555
H2 C6 1_555 1_555
C7 C2 1_555 1_555
H3 C7 1_555 1_555
C8 C3 1_555 1_555
H4 C8 1_555 1_555
C9 C1 1_555 1_555
H5 C9 1_555 1_555
O1 Zn4 1_555 1_555
O2 Zn1 1_555 1_555
O3 Zn1 1_555 1_555
C10 C6 1_555 1_555
C11 C10 1_555 1_555
H6 C11 1_555 1_555
C12 C10 1_555 1_555
C13 C3 1_555 1_555
O4 C13 1_555 1_555
O5 C12 1_555 1_555
O6 C13 1_555 1_555
O7 C12 1_555 1_555
C14 C2 1_555 1_555
C15 C9 1_555 1_555
H7 C15 1_555 1_555
C16 C7 1_555 1_555
H8 C16 1_555 1_555
O8 C19 1_555 1_555
O9 C19 1_555 1_555
O10 Zn1 1_555 1_555
N1 C26 1_555 1_555
O11 C18 1_555 1_555
N2 Zn3 1_555 1_555
C17 C19 1_555 1_555
C18 O10 1_555 1_555
C20 C18 1_555 1_555
C21 C20 1_555 1_555
H9 C21 1_555 1_555
C22 C17 1_555 1_555
H10 C22 1_555 1_555
C23 C21 1_555 1_555
H11 C23 1_555 1_555
C24 N2 1_555 1_555
H12 C24 1_555 1_555
C25 H13 1_555 1_555
C26 C25 1_555 1_555
H14 C26 1_555 1_555
C27 C31 1_555 1_555
C28 H15 1_555 1_555
C29 N1 1_555 1_555
H16 C29 1_555 1_555
C30 N2 1_555 1_555
H17 C30 1_555 1_555
C31 C24 1_555 1_555
H18 C31 1_555 1_555
C32 C25 1_555 1_555
C33 C27 1_555 1_555
H19 C33 1_555 1_555
C34 C27 1_555 1_555
H20 C34 1_555 1_555
C35 C32 1_555 1_555
H21 C35 1_555 1_555
C36 C17 1_555 1_555
H22 C36 1_555 1_555
O12 Zn3 1_555 1_555
O13 Zn1 1_555 1_555
Zn2_2 O6 1_555 1_555
Zn2B O9 1_555 1_555
Zn3_2 O5 1_555 1_555
Zn4_2 O4 1_555 1_555
Zn4B N1 1_555 1_555
O4_2 Zn4 1_555 1_555
O5_2 Zn3 1_555 1_555
O6_2 Zn2 1_555 1_555
O7_2 Zn2 1_555 1_555
O9B Zn2 1_555 1_555
N1B Zn4 1_555 1_555
Zn2 Zn4 1_555 1_555
Zn2 O2 1_555 1_555
Zn3 O2 1_555 1_555
Zn4 O2 1_555 1_555
C5 O13 1_555 1_555
C8 C16 1_555 1_555
O1 C14 1_555 1_555
O3 C14 1_555 1_555
C11 C15 1_555 1_555
O7 Zn2_2 1_555 1_555
C20 C36 1_555 1_555
C22 C23 1_555 1_555
C28 C29 1_555 1_555
C28 C32 1_555 1_555
C30 C33 1_555 1_555
C34 C35 1_555 1_555
Zn2_2 Zn3_2 1_555 1_555
Zn2_2 Zn4_2 1_555 1_555

#END
