
#######################################################################
#
#                 Cambridge Crystallographic Data Centre
#                                CCDC 
#
#######################################################################
#
# If this CIF has been generated from an entry in the Cambridge 
# Structural Database, then it will include bibliographic, chemical, 
# crystal, experimental, refinement or atomic coordinate data resulting 
# from the CCDC's data processing and validation procedures.
#
#######################################################################

data_CUYQOD01
_symmetry_cell_setting           tetragonal
_symmetry_space_group_name_H-M   'I -4 c 2'
_symmetry_Int_Tables_number      120
_space_group_name_Hall           'I -4 -2c'
loop_
_symmetry_equiv_pos_site_id
_symmetry_equiv_pos_as_xyz
1 x,y,z
2 y,-x,-z
3 -x,-y,z
4 -y,x,-z
5 -x,y,1/2+z
6 y,x,1/2-z
7 x,-y,1/2+z
8 -y,-x,1/2-z
9 1/2+x,1/2+y,1/2+z
10 1/2+y,1/2-x,1/2-z
11 1/2-x,1/2-y,1/2+z
12 1/2-y,1/2+x,1/2-z
13 1/2-x,1/2+y,z
14 1/2+y,1/2+x,-z
15 1/2+x,1/2-y,z
16 1/2-y,1/2-x,-z
_cell_length_a                   21.2333(9)
_cell_length_b                   21.2333(9)
_cell_length_c                   15.1649(13)
_cell_angle_alpha                90
_cell_angle_beta                 90
_cell_angle_gamma                90
_cell_volume                     6837.14
loop_
_atom_site_label
_atom_site_type_symbol
_atom_site_fract_x
_atom_site_fract_y
_atom_site_fract_z
Zn1 Zn 0.0000 1.0000 0.2500
Zn2 Zn 0.5000 1.0000 0.2500
C1 C 0.0306(2) 0.9129(2) 0.0880(3)
H1 H -0.0108 0.9122 0.0677
C2 C 0.0763(2) 0.8757(2) 0.0570(4)
H2 H 0.0728 0.8446 0.0141
C3 C 0.1125(2) 0.9395(2) 0.1567(4)
H3 H 0.1404 0.9605 0.1936
C4 C 0.1914(2) 0.8662(2) 0.0996(3)
C5 C 0.1993(2) 0.8024(3) 0.1082(3)
H4 H 0.1647 0.7756 0.1091
C6 C 0.2600(2) 0.7786(2) 0.1156(4)
C7 C 0.3114(2) 0.8197(2) 0.1140(3)
H5 H 0.3521 0.8041 0.1188
C8 C 0.3017(2) 0.8827(3) 0.1053(3)
C9 C 0.2413(2) 0.9078(3) 0.0961(3)
H6 H 0.2349 0.9507 0.0880
C10 C 0.2262(3) 0.6663(3) 0.1305(6)
H7 H 0.1828 0.6714 0.1269
C11 C 0.2572(3) 0.6127(3) 0.1414(6)
H8 H 0.2382 0.5733 0.1448
C12 C 0.3261(3) 0.6836(3) 0.1367(3)
H9 H 0.3648 0.7041 0.1371
C13 C 0.3975(2) 0.9247(2) 0.1721(4)
H10 H 0.4026 0.8927 0.2132
C14 C 0.4100(3) 1.0091(3) 0.0995(4)
H11 H 0.4267 1.0473 0.0806
C15 C 0.3603(3) 0.9800(3) 0.0640(4)
H12 H 0.3357 0.9942 0.0173
H13 H -0.094(3) 0.917(3) 0.287(4)
N1 N 0.05161(18) 0.95161(19) 0.1522(3)
N2 N 0.12890(16) 0.89319(18) 0.1016(3)
N3 N 0.3197(2) 0.6226(2) 0.1470(3)
N4 N 0.2710(2) 0.7130(2) 0.1255(3)
N5 N 0.43255(17) 0.9739(2) 0.1678(3)
N6 N 0.35290(19) 0.9254(2) 0.1100(3)
O1 O -0.07435(18) 0.92565(18) 0.2500
Zn2_2 Zn -0.5000 1.0000 0.2500
Zn2E Zn 0.0000 1.5000 0.2500
Zn2E_2 Zn 0.0000 0.5000 0.2500
C1B C -0.0306(2) 1.0871(2) 0.0880(3)
C1E C -0.0871(2) 1.0306(2) 0.4120(3)
C1G C 0.0871(2) 0.9694(2) 0.4120(3)
H1B H 0.0108 1.0878 0.0677
H1E H -0.0878 0.9892 0.4323
H1G H 0.0878 1.0108 0.4323
C2B C -0.0763(2) 1.1243(2) 0.0570(4)
C2E C -0.1243(2) 1.0763(2) 0.4430(4)
C2G C 0.1243(2) 0.9237(2) 0.4430(4)
H2B H -0.0728 1.1554 0.0141
H2E H -0.1554 1.0728 0.4859
H2G H 0.1554 0.9272 0.4859
C3B C -0.1125(2) 1.0605(2) 0.1567(4)
C3E C -0.0605(2) 1.1125(2) 0.3433(4)
C3G C 0.0605(2) 0.8875(2) 0.3433(4)
H3B H -0.1404 1.0395 0.1936
H3E H -0.0395 1.1404 0.3064
H3G H 0.0395 0.8596 0.3064
C4B C -0.1914(2) 1.1338(2) 0.0996(3)
C4E C -0.1338(2) 1.1914(2) 0.4004(3)
C4G C 0.1338(2) 0.8086(2) 0.4004(3)
C5B C -0.1993(2) 1.1976(3) 0.1082(3)
C5E C -0.1976(3) 1.1993(2) 0.3918(3)
C5G C 0.1976(3) 0.8007(2) 0.3918(3)
H4B H -0.1647 1.2244 0.1091
H4E H -0.2244 1.1647 0.3909
H4G H 0.2244 0.8353 0.3909
C6B C -0.2600(2) 1.2214(2) 0.1156(4)
C6E C -0.2214(2) 1.2600(2) 0.3844(4)
C6G C 0.2214(2) 0.7400(2) 0.3844(4)
C7B C -0.3114(2) 1.1803(2) 0.1140(3)
C7E C -0.1803(2) 1.3114(2) 0.3860(3)
C7G C 0.1803(2) 0.6886(2) 0.3860(3)
H5B H -0.3521 1.1959 0.1188
H5E H -0.1959 1.3521 0.3812
H5G H 0.1959 0.6479 0.3812
C8B C -0.3017(2) 1.1173(3) 0.1053(3)
C8E C -0.1173(3) 1.3017(2) 0.3947(3)
C8G C 0.1173(3) 0.6983(2) 0.3947(3)
C9B C -0.2413(2) 1.0922(3) 0.0961(3)
C9E C -0.0922(3) 1.2413(2) 0.4039(3)
C9G C 0.0922(3) 0.7587(2) 0.4039(3)
H6B H -0.2349 1.0493 0.0880
H6E H -0.0493 1.2349 0.4120
H6G H 0.0493 0.7651 0.4120
C10B C -0.2262(3) 1.3337(3) 0.1305(6)
C10E C -0.3337(3) 1.2262(3) 0.3695(6)
C10G C 0.3337(3) 0.7738(3) 0.3695(6)
H7B H -0.1828 1.3286 0.1269
H7E H -0.3286 1.1828 0.3731
H7G H 0.3286 0.8172 0.3731
C11B C -0.2572(3) 1.3873(3) 0.1414(6)
C11E C -0.3873(3) 1.2572(3) 0.3586(6)
C11G C 0.3873(3) 0.7428(3) 0.3586(6)
H8B H -0.2382 1.4267 0.1448
H8E H -0.4267 1.2382 0.3552
H8G H 0.4267 0.7618 0.3552
C12B C -0.3261(3) 1.3164(3) 0.1367(3)
C12E C -0.3164(3) 1.3261(3) 0.3633(3)
C12G C 0.3164(3) 0.6739(3) 0.3633(3)
H9B H -0.3648 1.2959 0.1371
H9E H -0.2959 1.3648 0.3629
H9G H 0.2959 0.6352 0.3629
C13B C -0.3975(2) 1.0753(2) 0.1721(4)
C13E C -0.0753(2) 1.3975(2) 0.3279(4)
C13G C 0.0753(2) 0.6025(2) 0.3279(4)
H10B H -0.4026 1.1073 0.2132
H10E H -0.1073 1.4026 0.2868
H10G H 0.1073 0.5974 0.2868
C14B C -0.4100(3) 0.9909(3) 0.0995(4)
C14E C 0.0091(3) 1.4100(3) 0.4005(4)
C14G C -0.0091(3) 0.5900(3) 0.4005(4)
H11B H -0.4267 0.9527 0.0806
H11E H 0.0473 1.4267 0.4194
H11G H -0.0473 0.5733 0.4194
C15B C -0.3603(3) 1.0200(3) 0.0640(4)
C15E C -0.0200(3) 1.3603(3) 0.4360(4)
C15G C 0.0200(3) 0.6397(3) 0.4360(4)
H12B H -0.3357 1.0058 0.0173
H12E H -0.0058 1.3357 0.4827
H12G H 0.0058 0.6643 0.4827
H13E H -0.083(3) 0.906(3) 0.213(4)
H13B H 0.094(3) 1.083(3) 0.287(4)
H13G H 0.083(3) 1.094(3) 0.213(4)
N1B N -0.05161(18) 1.04839(19) 0.1522(3)
N1E N -0.04839(19) 1.05161(18) 0.3478(3)
N1G N 0.04839(19) 0.94839(18) 0.3478(3)
N2B N -0.12890(16) 1.10681(18) 0.1016(3)
N2E N -0.10681(18) 1.12890(16) 0.3984(3)
N2G N 0.10681(18) 0.87110(16) 0.3984(3)
N3B N -0.3197(2) 1.3774(2) 0.1470(3)
N3E N -0.3774(2) 1.3197(2) 0.3530(3)
N3G N 0.3774(2) 0.6803(2) 0.3530(3)
N4B N -0.2710(2) 1.2870(2) 0.1255(3)
N4E N -0.2870(2) 1.2710(2) 0.3745(3)
N4G N 0.2870(2) 0.7290(2) 0.3745(3)
N5B N -0.43255(17) 1.0261(2) 0.1678(3)
N5E N -0.0261(2) 1.43255(17) 0.3322(3)
N5G N 0.0261(2) 0.56745(17) 0.3322(3)
N5B_2 N 0.56745(17) 1.0261(2) 0.1678(3)
N5I N 0.4739(2) 1.06745(17) 0.3322(3)
N5K N 0.5261(2) 0.93255(17) 0.3322(3)
N6B N -0.35290(19) 1.0746(2) 0.1100(3)
N6E N -0.0746(2) 1.35290(19) 0.3900(3)
N6G N 0.0746(2) 0.64710(19) 0.3900(3)
O1B O 0.07435(18) 1.07435(18) 0.2500
Cl1 Cl 0.01914(7) 0.72108(7) 0.15731(11)
O2 O -0.0107(4) 0.6830(5) 0.2186(8)
O3 O 0.0620(4) 0.6880(7) 0.1128(8)
O4 O 0.0504(4) 0.7663(3) 0.2067(5)
O5 O -0.0260(4) 0.7448(3) 0.1021(5)
loop_
_geom_bond_atom_site_label_1
_geom_bond_atom_site_label_2
_geom_bond_site_symmetry_1
_geom_bond_site_symmetry_2
Zn1 N1 1_555 1_555
Zn2 N5 1_555 1_555
C1 H1 1_555 1_555
C2 C1 1_555 1_555
H2 C2 1_555 1_555
C3 H3 1_555 1_555
C4 C5 1_555 1_555
C5 H4 1_555 1_555
C6 C5 1_555 1_555
C7 C6 1_555 1_555
H5 C7 1_555 1_555
C8 C7 1_555 1_555
C9 C4 1_555 1_555
H6 C9 1_555 1_555
C10 H7 1_555 1_555
C11 C10 1_555 1_555
H8 C11 1_555 1_555
C12 H9 1_555 1_555
C13 H10 1_555 1_555
C14 H11 1_555 1_555
C15 C14 1_555 1_555
H12 C15 1_555 1_555
H13 O1 1_555 1_555
N1 C1 1_555 1_555
N2 C2 1_555 1_555
N3 C11 1_555 1_555
N4 C6 1_555 1_555
N5 C13 1_555 1_555
N6 C8 1_555 1_555
O1 Zn1 1_555 1_555
Cl1 O2 1_555 1_555
O3 Cl1 1_555 1_555
O4 Cl1 1_555 1_555
O5 Cl1 1_555 1_555
Zn2_2 N5B 1_555 1_555
Zn2E N5E 1_555 1_555
Zn2E_2 N5G 1_555 1_555
C1B H1B 1_555 1_555
C1E H1E 1_555 1_555
C1G H1G 1_555 1_555
C2B C1B 1_555 1_555
C2E C1E 1_555 1_555
C2G C1G 1_555 1_555
H2B C2B 1_555 1_555
H2E C2E 1_555 1_555
H2G C2G 1_555 1_555
C3B H3B 1_555 1_555
C3E H3E 1_555 1_555
C3G H3G 1_555 1_555
C4B C5B 1_555 1_555
C4E C5E 1_555 1_555
C4G C5G 1_555 1_555
C5B H4B 1_555 1_555
C5E H4E 1_555 1_555
C5G H4G 1_555 1_555
C6B C5B 1_555 1_555
C6E C5E 1_555 1_555
C6G C5G 1_555 1_555
C7B C6B 1_555 1_555
C7E C6E 1_555 1_555
C7G C6G 1_555 1_555
H5B C7B 1_555 1_555
H5E C7E 1_555 1_555
H5G C7G 1_555 1_555
C8B C7B 1_555 1_555
C8E C7E 1_555 1_555
C8G C7G 1_555 1_555
C9B C4B 1_555 1_555
C9E C4E 1_555 1_555
C9G C4G 1_555 1_555
H6B C9B 1_555 1_555
H6E C9E 1_555 1_555
H6G C9G 1_555 1_555
C10B H7B 1_555 1_555
C10E H7E 1_555 1_555
C10G H7G 1_555 1_555
C11B C10B 1_555 1_555
C11E C10E 1_555 1_555
C11G C10G 1_555 1_555
H8B C11B 1_555 1_555
H8E C11E 1_555 1_555
H8G C11G 1_555 1_555
C12B H9B 1_555 1_555
C12E H9E 1_555 1_555
C12G H9G 1_555 1_555
C13B H10B 1_555 1_555
C13E H10E 1_555 1_555
C13G H10G 1_555 1_555
C14B H11B 1_555 1_555
C14E H11E 1_555 1_555
C14G H11G 1_555 1_555
C15B C14B 1_555 1_555
C15E C14E 1_555 1_555
C15G C14G 1_555 1_555
H12B C15B 1_555 1_555
H12E C15E 1_555 1_555
H12G C15G 1_555 1_555
H13E O1 1_555 1_555
H13B O1B 1_555 1_555
H13G O1B 1_555 1_555
N1B Zn1 1_555 1_555
N1E Zn1 1_555 1_555
N1G Zn1 1_555 1_555
N2B C2B 1_555 1_555
N2E C2E 1_555 1_555
N2G C2G 1_555 1_555
N3B C11B 1_555 1_555
N3E C11E 1_555 1_555
N3G C11G 1_555 1_555
N4B C6B 1_555 1_555
N4E C6E 1_555 1_555
N4G C6G 1_555 1_555
N5B C13B 1_555 1_555
N5E C13E 1_555 1_555
N5G C13G 1_555 1_555
N5B_2 Zn2 1_555 1_555
N5I Zn2 1_555 1_555
N5K Zn2 1_555 1_555
N6B C8B 1_555 1_555
N6E C8E 1_555 1_555
N6G C8G 1_555 1_555
O1B Zn1 1_555 1_555
C3 N1 1_555 1_555
C3 N2 1_555 1_555
C4 N2 1_555 1_555
C8 C9 1_555 1_555
C10 N4 1_555 1_555
C12 N3 1_555 1_555
C12 N4 1_555 1_555
C13 N6 1_555 1_555
C14 N5 1_555 1_555
C15 N6 1_555 1_555
C1B N1B 1_555 1_555
C1E N1E 1_555 1_555
C1G N1G 1_555 1_555
C3B N1B 1_555 1_555
C3B N2B 1_555 1_555
C3E N1E 1_555 1_555
C3E N2E 1_555 1_555
C3G N1G 1_555 1_555
C3G N2G 1_555 1_555
C4B N2B 1_555 1_555
C4E N2E 1_555 1_555
C4G N2G 1_555 1_555
C8B C9B 1_555 1_555
C8E C9E 1_555 1_555
C8G C9G 1_555 1_555
C10B N4B 1_555 1_555
C10E N4E 1_555 1_555
C10G N4G 1_555 1_555
C12B N3B 1_555 1_555
C12B N4B 1_555 1_555
C12E N3E 1_555 1_555
C12E N4E 1_555 1_555
C12G N3G 1_555 1_555
C12G N4G 1_555 1_555
C13B N6B 1_555 1_555
C13E N6E 1_555 1_555
C13G N6G 1_555 1_555
C14B N5B 1_555 1_555
C14E N5E 1_555 1_555
C14G N5G 1_555 1_555
C15B N6B 1_555 1_555
C15E N6E 1_555 1_555
C15G N6G 1_555 1_555

#END
