
#######################################################################
#
#                 Cambridge Crystallographic Data Centre
#                                CCDC 
#
#######################################################################
#
# If this CIF has been generated from an entry in the Cambridge 
# Structural Database, then it will include bibliographic, chemical, 
# crystal, experimental, refinement or atomic coordinate data resulting 
# from the CCDC's data processing and validation procedures.
#
#######################################################################

data_CUYQUJ
_symmetry_cell_setting           monoclinic
_symmetry_space_group_name_H-M   'P 21/n'
_symmetry_Int_Tables_number      14
_space_group_name_Hall           '-P 2yn'
loop_
_symmetry_equiv_pos_site_id
_symmetry_equiv_pos_as_xyz
1 x,y,z
2 1/2-x,1/2+y,1/2-z
3 -x,-y,-z
4 1/2+x,1/2-y,1/2+z
_cell_length_a                   8.7150(8)
_cell_length_b                   11.6095(10)
_cell_length_c                   27.890(3)
_cell_angle_alpha                90
_cell_angle_beta                 93.091(2)
_cell_angle_gamma                90
_cell_volume                     2817.72
loop_
_atom_site_label
_atom_site_type_symbol
_atom_site_fract_x
_atom_site_fract_y
_atom_site_fract_z
Zn1 Zn 1.46599(6) -0.28356(4) 0.06409(2)
Zn2 Zn 1.67852(6) -0.15023(4) 0.15136(2)
C1 C 1.9466(5) -0.5706(3) 0.12621(16)
C2 C 1.9256(5) -0.6820(3) 0.14106(17)
H1 H 1.8590 -0.6990 0.1650
C3 C 2.0062(5) -0.7678(3) 0.11935(17)
C4 C 2.1012(5) -0.7470(3) 0.08357(17)
H2 H 2.1522 -0.8070 0.0691
C5 C 2.1204(5) -0.6339(4) 0.06904(16)
C6 C 2.0460(5) -0.5447(4) 0.09086(16)
H3 H 2.0626 -0.4687 0.0819
C7 C 1.7885(5) -0.4874(4) 0.19082(18)
H4 H 1.7787 -0.5526 0.2098
C8 C 1.7299(5) -0.3831(4) 0.19828(17)
H5 H 1.6723 -0.3632 0.2241
C9 C 1.8496(5) -0.3704(3) 0.13295(17)
H6 H 1.8900 -0.3421 0.1051
C10 C 2.0913(6) -0.9691(4) 0.1416(2)
H7 H 2.1970 -0.9618 0.1396
C11 C 2.0129(6) -1.0640(4) 0.1528(2)
H8 H 2.0577 -1.1350 0.1601
C12 C 1.8452(5) -0.9339(4) 0.14010(18)
H9 H 1.7519 -0.8952 0.1364
C13 C 2.2247(5) -0.5067(4) 0.00527(17)
H10 H 2.1701 -0.4394 0.0104
C14 C 2.3269(5) -0.5240(4) -0.02799(17)
H11 H 2.3544 -0.4699 -0.0506
C15 C 2.3159(5) -0.6826(4) 0.01186(17)
H12 H 2.3336 -0.7576 0.0225
C16 C 1.3731(5) -0.0190(4) 0.24537(18)
C17 C 1.3137(5) -0.1110(4) 0.26950(18)
H13 H 1.3378 -0.1858 0.2606
C18 C 1.2182(5) -0.0928(4) 0.30691(18)
H14 H 1.1760 -0.1554 0.3222
C19 C 1.1853(5) 0.0175(4) 0.32162(17)
C20 C 1.2441(6) 0.1090(4) 0.29734(19)
H15 H 1.2222 0.1838 0.3068
C21 C 1.3350(6) 0.0913(4) 0.2593(2)
H16 H 1.3713 0.1543 0.2426
C22 C 1.4814(5) -0.0362(4) 0.20581(19)
C23 C 1.0956(6) 0.0384(5) 0.36525(18)
C24 C 1.1634(6) -0.2050(4) 0.03339(18)
C25 C 1.0791(5) -0.0984(4) 0.01559(17)
C26 C 1.1501(5) -0.0153(4) -0.01091(18)
H17 H 1.2519 -0.0253 -0.0184
C27 C 1.0724(5) 0.0818(4) -0.02627(18)
H18 H 1.1220 0.1370 -0.0440
N1 N 1.7672(4) -0.3097(3) 0.16230(14)
N2 N 1.8667(4) -0.4789(3) 0.14909(13)
N3 N 1.8587(4) -1.0425(3) 0.15192(15)
N4 N 1.9821(4) -0.8850(3) 0.13395(14)
N5 N 2.3853(4) -0.6335(3) -0.02389(14)
N6 N 2.2163(4) -0.6092(3) 0.03067(13)
O1 O 1.5491(4) -0.1341(3) 0.20618(12)
O2 O 1.5019(4) 0.0393(3) 0.17647(14)
O3 O 1.0966(4) 0.1418(3) 0.37917(13)
O4 O 1.0334(4) -0.0427(3) 0.38476(13)
O5 O 1.3051(4) -0.2116(3) 0.02330(12)
O6 O 1.0934(4) -0.2782(3) 0.05557(14)
O7 O 1.5812(4) -0.1508(3) 0.08862(13)
H19 H 1.534(6) -0.093(3) 0.081(2)
Zn1B Zn 0.53401(6) 0.28356(4) -0.06409(2)
Zn1_2 Zn -0.53401(6) 0.71644(4) 0.06409(2)
Zn1A Zn 1.03401(6) 0.21644(4) 0.43591(2)
Zn1B_2 Zn 2.53401(6) -0.71644(4) -0.06409(2)
Zn1C Zn 0.96599(6) -0.21644(4) -0.43591(2)
Zn2B Zn 0.32148(6) 0.15023(4) -0.15136(2)
Zn2_2 Zn 1.67852(6) -1.15023(4) 0.15136(2)
Zn2B_2 Zn 0.32148(6) 1.15023(4) -0.15136(2)
C1B C 0.0534(5) 0.5706(3) -0.12621(16)
C2B C 0.0744(5) 0.6820(3) -0.14106(17)
H1B H 0.1410 0.6990 -0.1650
C3B C -0.0062(5) 0.7678(3) -0.11935(17)
C4B C -0.1012(5) 0.7470(3) -0.08357(17)
H2B H -0.1522 0.8070 -0.0691
C5B C -0.1204(5) 0.6339(4) -0.06904(16)
C6B C -0.0460(5) 0.5447(4) -0.09086(16)
H3B H -0.0626 0.4687 -0.0819
C7B C 0.2115(5) 0.4874(4) -0.19082(18)
H4B H 0.2213 0.5526 -0.2098
C8B C 0.2701(5) 0.3831(4) -0.19828(17)
H5B H 0.3277 0.3632 -0.2241
C9B C 0.1504(5) 0.3704(3) -0.13295(17)
H6B H 0.1100 0.3421 -0.1051
C10B C -0.0913(6) 0.9691(4) -0.1416(2)
H7B H -0.1970 0.9618 -0.1396
C11B C -0.0129(6) 1.0640(4) -0.1528(2)
H8B H -0.0577 1.1350 -0.1601
C12B C 0.1548(5) 0.9339(4) -0.14010(18)
H9B H 0.2481 0.8952 -0.1364
C13B C -0.2247(5) 0.5067(4) -0.00527(17)
H10B H -0.1701 0.4394 -0.0104
C14B C -0.3269(5) 0.5240(4) 0.02799(17)
H11B H -0.3544 0.4699 0.0506
C15B C -0.3159(5) 0.6826(4) -0.01186(17)
H12B H -0.3336 0.7576 -0.0225
C16B C 0.6269(5) 0.0190(4) -0.24537(18)
C17B C 0.6863(5) 0.1110(4) -0.26950(18)
H13B H 0.6622 0.1858 -0.2606
C18B C 0.7818(5) 0.0928(4) -0.30691(18)
H14B H 0.8240 0.1554 -0.3222
C19B C 0.8147(5) -0.0175(4) -0.32162(17)
C20B C 0.7559(6) -0.1090(4) -0.29734(19)
H15B H 0.7778 -0.1838 -0.3068
C21B C 0.6650(6) -0.0913(4) -0.2593(2)
H16B H 0.6287 -0.1543 -0.2426
C22B C 0.5186(5) 0.0362(4) -0.20581(19)
C23B C 0.9044(6) -0.0384(5) -0.36525(18)
C24B C 0.8366(6) 0.2050(4) -0.03339(18)
C25B C 0.9209(5) 0.0984(4) -0.01559(17)
C26B C 0.8499(5) 0.0153(4) 0.01091(18)
H17B H 0.7481 0.0253 0.0184
C27B C 0.9276(5) -0.0818(4) 0.02627(18)
H18B H 0.8780 -0.1370 0.0440
N1B N 0.2328(4) 0.3097(3) -0.16230(14)
N2B N 0.1333(4) 0.4789(3) -0.14909(13)
N3B N 0.1413(4) 1.0425(3) -0.15192(15)
N3_2 N 1.8587(4) -0.0425(3) 0.15192(15)
N3B_2 N 0.1413(4) 0.0425(3) -0.15192(15)
N4B N 0.0179(4) 0.8850(3) -0.13395(14)
N5B N -0.3853(4) 0.6335(3) 0.02389(14)
N5_2 N 0.3853(4) 0.3665(3) -0.02389(14)
N5B_2 N 1.6147(4) -0.3665(3) 0.02389(14)
N6B N -0.2163(4) 0.6092(3) -0.03067(13)
O1B O 0.4509(4) 0.1341(3) -0.20618(12)
O2B O 0.4981(4) -0.0393(3) -0.17647(14)
O3B O 0.9034(4) -0.1418(3) -0.37917(13)
O3A O 1.4034(4) -0.3582(3) 0.12083(13)
O3C O 0.5966(4) 0.3582(3) -0.12083(13)
O4B O 0.9666(4) 0.0427(3) -0.38476(13)
O5B O 0.6949(4) 0.2116(3) -0.02330(12)
O6B O 0.9066(4) 0.2782(3) -0.05557(14)
O7B O 0.4188(4) 0.1508(3) -0.08862(13)
H19B H 0.466(6) 0.093(3) -0.081(2)
O8 O 1.4927(7) 0.0890(5) 0.0499(3)
O9 O 1.5434(7) 0.2387(5) 0.1269(3)
O10? O 1.6259(17) 0.2436(13) 0.0774(6)
loop_
_geom_bond_atom_site_label_1
_geom_bond_atom_site_label_2
_geom_bond_site_symmetry_1
_geom_bond_site_symmetry_2
Zn1 O5 1_555 1_555
Zn2 N1 1_555 1_555
C1 C2 1_555 1_555
C2 H1 1_555 1_555
C3 C2 1_555 1_555
C4 C3 1_555 1_555
H2 C4 1_555 1_555
C5 C4 1_555 1_555
C6 C1 1_555 1_555
H3 C6 1_555 1_555
C7 H4 1_555 1_555
C8 C7 1_555 1_555
H5 C8 1_555 1_555
C9 H6 1_555 1_555
C10 H7 1_555 1_555
C11 C10 1_555 1_555
H8 C11 1_555 1_555
C12 H9 1_555 1_555
C13 H10 1_555 1_555
C14 C13 1_555 1_555
H11 C14 1_555 1_555
C15 H12 1_555 1_555
C16 C17 1_555 1_555
C17 H13 1_555 1_555
C18 C17 1_555 1_555
H14 C18 1_555 1_555
C19 C18 1_555 1_555
C20 C19 1_555 1_555
H15 C20 1_555 1_555
C21 C16 1_555 1_555
H16 C21 1_555 1_555
C22 C16 1_555 1_555
C23 C19 1_555 1_555
C24 C25 1_555 1_555
C25 C26 1_555 1_555
C26 H17 1_555 1_555
C27 C26 1_555 1_555
H18 C27 1_555 1_555
N1 C8 1_555 1_555
N2 C1 1_555 1_555
N3 C11 1_555 1_555
N4 C3 1_555 1_555
N5 C14 1_555 1_555
N6 C5 1_555 1_555
O1 Zn2 1_555 1_555
O2 C22 1_555 1_555
O3 C23 1_555 1_555
O4 C23 1_555 1_555
O5 C24 1_555 1_555
O6 C24 1_555 1_555
O7 Zn1 1_555 1_555
H19 O7 1_555 1_555
Zn1B N5_2 1_555 1_555
Zn1_2 N5B 1_555 1_555
Zn1A O3 1_555 1_555
Zn1B_2 N5 1_555 1_555
Zn1C O3B 1_555 1_555
Zn2B N1B 1_555 1_555
Zn2_2 N3 1_555 1_555
Zn2B_2 N3B 1_555 1_555
C1B C2B 1_555 1_555
C2B H1B 1_555 1_555
C3B C2B 1_555 1_555
C4B C3B 1_555 1_555
H2B C4B 1_555 1_555
C5B C4B 1_555 1_555
C6B C1B 1_555 1_555
H3B C6B 1_555 1_555
C7B H4B 1_555 1_555
C8B C7B 1_555 1_555
H5B C8B 1_555 1_555
C9B H6B 1_555 1_555
C10B H7B 1_555 1_555
C11B C10B 1_555 1_555
H8B C11B 1_555 1_555
C12B H9B 1_555 1_555
C13B H10B 1_555 1_555
C14B C13B 1_555 1_555
H11B C14B 1_555 1_555
C15B H12B 1_555 1_555
C16B C17B 1_555 1_555
C17B H13B 1_555 1_555
C18B C17B 1_555 1_555
H14B C18B 1_555 1_555
C19B C18B 1_555 1_555
C20B C19B 1_555 1_555
H15B C20B 1_555 1_555
C21B C16B 1_555 1_555
H16B C21B 1_555 1_555
C22B C16B 1_555 1_555
C23B C19B 1_555 1_555
C24B C25B 1_555 1_555
C25B C27 1_555 1_555
C26B C25B 1_555 1_555
H17B C26B 1_555 1_555
C27B C25 1_555 1_555
H18B C27B 1_555 1_555
N1B C8B 1_555 1_555
N2B C1B 1_555 1_555
N3B C11B 1_555 1_555
N3_2 Zn2 1_555 1_555
N3B_2 Zn2B 1_555 1_555
N4B C3B 1_555 1_555
N5B C14B 1_555 1_555
N5B_2 Zn1 1_555 1_555
N6B C5B 1_555 1_555
O1B Zn2B 1_555 1_555
O2B C22B 1_555 1_555
O3B C23B 1_555 1_555
O3A Zn1 1_555 1_555
O3C Zn1B 1_555 1_555
O4B C23B 1_555 1_555
O5B Zn1B 1_555 1_555
O6B C24B 1_555 1_555
O7B Zn1B 1_555 1_555
H19B O7B 1_555 1_555
Zn2 O7 1_555 1_555
C5 C6 1_555 1_555
C7 N2 1_555 1_555
C9 N1 1_555 1_555
C9 N2 1_555 1_555
C10 N4 1_555 1_555
C12 N3 1_555 1_555
C12 N4 1_555 1_555
C13 N6 1_555 1_555
C15 N5 1_555 1_555
C15 N6 1_555 1_555
C20 C21 1_555 1_555
C22 O1 1_555 1_555
Zn2B O7B 1_555 1_555
C5B C6B 1_555 1_555
C7B N2B 1_555 1_555
C9B N1B 1_555 1_555
C9B N2B 1_555 1_555
C10B N4B 1_555 1_555
C12B N3B 1_555 1_555
C12B N4B 1_555 1_555
C13B N6B 1_555 1_555
C15B N5B 1_555 1_555
C15B N6B 1_555 1_555
C20B C21B 1_555 1_555
C22B O1B 1_555 1_555
C24B O5B 1_555 1_555
C26B C27B 1_555 1_555

#END
