
#######################################################################
#
#                 Cambridge Crystallographic Data Centre
#                                CCDC 
#
#######################################################################
#
# If this CIF has been generated from an entry in the Cambridge 
# Structural Database, then it will include bibliographic, chemical, 
# crystal, experimental, refinement or atomic coordinate data resulting 
# from the CCDC's data processing and validation procedures.
#
#######################################################################

data_CUYQOD
_symmetry_cell_setting           tetragonal
_symmetry_space_group_name_H-M   'I -4 c 2'
_symmetry_Int_Tables_number      120
_space_group_name_Hall           'I -4 -2c'
loop_
_symmetry_equiv_pos_site_id
_symmetry_equiv_pos_as_xyz
1 x,y,z
2 y,-x,-z
3 -x,-y,z
4 -y,x,-z
5 -x,y,1/2+z
6 -y,-x,1/2-z
7 x,-y,1/2+z
8 y,x,1/2-z
9 1/2+x,1/2+y,1/2+z
10 1/2+y,1/2-x,1/2-z
11 1/2-x,1/2-y,1/2+z
12 1/2-y,1/2+x,1/2-z
13 1/2-x,1/2+y,z
14 1/2-y,1/2-x,-z
15 1/2+x,1/2-y,z
16 1/2+y,1/2+x,-z
_cell_length_a                   21.256(3)
_cell_length_b                   21.256(3)
_cell_length_c                   15.112(3)
_cell_angle_alpha                90
_cell_angle_beta                 90
_cell_angle_gamma                90
_cell_volume                     6827.87
loop_
_atom_site_label
_atom_site_type_symbol
_atom_site_fract_x
_atom_site_fract_y
_atom_site_fract_z
Zn1 Zn 0.5000 0.5000 0.2500
Zn2 Zn 0.5000 0.0000 0.2500
O5 O 0.42643(9) 0.57357(9) 0.2500
H1 H 0.4012(18) 0.5829(18) 0.286(2)
N1 N 0.39148(11) 0.37121(10) 0.10028(17)
N2 N 0.45072(12) 0.44853(11) 0.15058(17)
N3 N 0.42366(12) 0.14712(11) 0.10844(18)
N4 N 0.47252(12) 0.06635(11) 0.16704(19)
N5 N 0.21072(11) 0.22972(12) 0.12619(19)
N6 N 0.11975(13) 0.18001(13) 0.1489(2)
C1 C 0.36462(14) 0.30914(13) 0.09810(19)
C2 C 0.40573(15) 0.25881(13) 0.0944(2)
H2 H 0.4495 0.2651 0.0856
C3 C 0.38099(15) 0.19857(13) 0.1040(2)
C4 C 0.31697(15) 0.18834(14) 0.11403(19)
H3 H 0.3010 0.1468 0.1201
C5 C 0.27616(14) 0.23994(14) 0.1151(2)
C6 C 0.29987(15) 0.30131(14) 0.10791(19)
H4 H 0.2725 0.3366 0.1097
C7 C 0.37358(15) 0.42505(14) 0.0551(2)
H5 H 0.3417 0.4286 0.0114
C8 C 0.41113(15) 0.47158(14) 0.0865(2)
H6 H 0.4102 0.5140 0.0669
C9 C 0.43816(14) 0.38799(13) 0.1566(2)
H7 H 0.4591 0.3597 0.1954
C10 C 0.47944(16) 0.14046(16) 0.0626(2)
H8 H 0.4943 0.1662 0.0157
C11 C 0.50882(17) 0.08985(15) 0.0980(2)
H9 H 0.5479 0.0731 0.0788
C12 C 0.42194(14) 0.10162(13) 0.1710(2)
H10 H 0.3886 0.0960 0.2122
C13 C 0.16361(16) 0.27520(18) 0.1297(3)
H11 H 0.1686 0.3194 0.1235
C14 C 0.10934(18) 0.24347(16) 0.1437(3)
H12 H 0.0692 0.2627 0.1493
C15 C 0.18104(16) 0.17323(16) 0.1379(2)
H13 H 0.2020 0.1338 0.1380
Zn1_2 Zn 0.5000 -0.5000 0.2500
Zn1I Zn 0.0000 0.0000 0.2500
Zn1I_2 Zn 1.0000 0.0000 0.2500
O5B O 0.57357(9) 0.42643(9) 0.2500
H1E H 0.4171(18) 0.5988(18) 0.214(2)
H1B H 0.5988(18) 0.4171(18) 0.286(2)
H1G H 0.5829(18) 0.4012(18) 0.214(2)
N1B N 0.60852(11) -0.37121(10) 0.10028(17)
N1I N 0.87121(10) 0.10852(11) 0.39972(17)
N1K N 0.12879(10) -0.10852(11) 0.39972(17)
N2B N 0.54928(12) -0.44853(11) 0.15058(17)
N2I N 0.94853(11) 0.04928(12) 0.34942(17)
N2K N 0.05147(11) -0.04928(12) 0.34942(17)
N2B_2 N 0.54928(12) 0.55147(11) 0.15058(17)
N2E N 0.55147(11) 0.54928(12) 0.34942(17)
N2G N 0.44853(11) 0.45072(12) 0.34942(17)
N3B N 0.57634(12) -0.14712(11) 0.10844(18)
N3I N 0.64712(11) 0.07634(12) 0.39156(18)
N3K N 0.35288(11) -0.07634(12) 0.39156(18)
N4B N 0.52748(12) -0.06635(11) 0.16704(19)
N4I N 0.56635(11) 0.02748(12) 0.33296(19)
N4K N 0.43365(11) -0.02748(12) 0.33296(19)
N5B N 0.78928(11) -0.22972(12) 0.12619(19)
N5I N 0.72972(12) 0.28928(11) 0.37381(19)
N5K N 0.27028(12) -0.28928(11) 0.37381(19)
N6B N 0.88025(13) -0.18001(13) 0.1489(2)
N6I N 0.68001(13) 0.38025(13) 0.3511(2)
N6K N 0.31999(13) -0.38025(13) 0.3511(2)
C1B C 0.63538(14) -0.30914(13) 0.09810(19)
C1I C 0.80914(13) 0.13538(14) 0.40190(19)
C1K C 0.19086(13) -0.13538(14) 0.40190(19)
C2B C 0.59427(15) -0.25881(13) 0.0944(2)
C2I C 0.75881(13) 0.09427(15) 0.4056(2)
C2K C 0.24119(13) -0.09427(15) 0.4056(2)
H2B H 0.5505 -0.2651 0.0856
H2I H 0.7651 0.0505 0.4144
H2K H 0.2349 -0.0505 0.4144
C3B C 0.61901(15) -0.19857(13) 0.1040(2)
C3I C 0.69857(13) 0.11901(15) 0.3960(2)
C3K C 0.30143(13) -0.11901(15) 0.3960(2)
C4B C 0.68303(15) -0.18834(14) 0.11403(19)
C4I C 0.68834(14) 0.18303(15) 0.38597(19)
C4K C 0.31166(14) -0.18303(15) 0.38597(19)
H3B H 0.6990 -0.1468 0.1201
H3I H 0.6468 0.1990 0.3799
H3K H 0.3532 -0.1990 0.3799
C5B C 0.72384(14) -0.23994(14) 0.1151(2)
C5I C 0.73994(14) 0.22384(14) 0.3849(2)
C5K C 0.26006(14) -0.22384(14) 0.3849(2)
C6B C 0.70013(15) -0.30131(14) 0.10791(19)
C6I C 0.80131(14) 0.20013(15) 0.39209(19)
C6K C 0.19869(14) -0.20013(15) 0.39209(19)
H4B H 0.7275 -0.3366 0.1097
H4I H 0.8366 0.2275 0.3903
H4K H 0.1634 -0.2275 0.3903
C7B C 0.62642(15) -0.42505(14) 0.0551(2)
C7I C 0.92505(14) 0.12642(15) 0.4449(2)
C7K C 0.07495(14) -0.12642(15) 0.4449(2)
H5B H 0.6583 -0.4286 0.0114
H5I H 0.9286 0.1583 0.4886
H5K H 0.0714 -0.1583 0.4886
C8B C 0.58887(15) -0.47158(14) 0.0865(2)
C8I C 0.97158(14) 0.08887(15) 0.4135(2)
C8K C 0.02842(14) -0.08887(15) 0.4135(2)
H6B H 0.5898 -0.5140 0.0669
H6I H 1.0140 0.0898 0.4331
H6K H -0.0140 -0.0898 0.4331
C9B C 0.56184(14) -0.38799(13) 0.1566(2)
C9I C 0.88799(13) 0.06184(14) 0.3434(2)
C9K C 0.11201(13) -0.06184(14) 0.3434(2)
H7B H 0.5409 -0.3597 0.1954
H7I H 0.8597 0.0409 0.3046
H7K H 0.1403 -0.0409 0.3046
C10B C 0.52056(16) -0.14046(16) 0.0626(2)
C10I C 0.64046(16) 0.02056(16) 0.4374(2)
C10K C 0.35954(16) -0.02056(16) 0.4374(2)
H8B H 0.5057 -0.1662 0.0157
H8I H 0.6662 0.0057 0.4843
H8K H 0.3338 -0.0057 0.4843
C11B C 0.49118(17) -0.08985(15) 0.0980(2)
C11I C 0.58985(15) -0.00882(17) 0.4020(2)
C11K C 0.41015(15) 0.00882(17) 0.4020(2)
H9B H 0.4521 -0.0731 0.0788
H9I H 0.5731 -0.0479 0.4212
H9K H 0.4269 0.0479 0.4212
C12B C 0.57806(14) -0.10162(13) 0.1710(2)
C12I C 0.60162(13) 0.07806(14) 0.3290(2)
C12K C 0.39838(13) -0.07806(14) 0.3290(2)
H10B H 0.6114 -0.0960 0.2122
H10I H 0.5960 0.1114 0.2878
H10K H 0.4040 -0.1114 0.2878
C13B C 0.83639(16) -0.27520(18) 0.1297(3)
C13I C 0.77520(18) 0.33639(16) 0.3703(3)
C13K C 0.22480(18) -0.33639(16) 0.3703(3)
H11B H 0.8314 -0.3194 0.1235
H11I H 0.8194 0.3314 0.3765
H11K H 0.1806 -0.3314 0.3765
C14B C 0.89066(18) -0.24347(16) 0.1437(3)
C14I C 0.74347(16) 0.39066(18) 0.3563(3)
C14K C 0.25653(16) -0.39066(18) 0.3563(3)
H12B H 0.9308 -0.2627 0.1493
H12I H 0.7627 0.4308 0.3507
H12K H 0.2373 -0.4308 0.3507
C15B C 0.81896(16) -0.17323(16) 0.1379(2)
C15I C 0.67323(16) 0.31896(16) 0.3621(2)
C15K C 0.32677(16) -0.31896(16) 0.3621(2)
H13B H 0.7980 -0.1338 0.1380
H13I H 0.6338 0.2980 0.3620
H13K H 0.3662 -0.2980 0.3620
Cl1 Cl 0.47960(4) 0.22112(4) 0.34012(6)
O1 O 0.44777(19) 0.26960(17) 0.2936(2)
O2 O 0.52833(17) 0.24461(14) 0.3951(2)
O3 O 0.5072(2) 0.1825(2) 0.2741(4)
O4 O 0.43520(18) 0.1884(3) 0.3897(3)
loop_
_geom_bond_atom_site_label_1
_geom_bond_atom_site_label_2
_geom_bond_site_symmetry_1
_geom_bond_site_symmetry_2
Zn1 O5 1_555 1_555
Zn2 N4 1_555 1_555
Cl1 O1 1_555 1_555
O2 Cl1 1_555 1_555
O3 Cl1 1_555 1_555
O4 Cl1 1_555 1_555
O5 H1 1_555 1_555
N1 C1 1_555 1_555
N2 Zn1 1_555 1_555
N3 C3 1_555 1_555
N4 C11 1_555 1_555
N5 C5 1_555 1_555
N6 C14 1_555 1_555
C1 C2 1_555 1_555
C2 H2 1_555 1_555
C3 C2 1_555 1_555
C4 C3 1_555 1_555
H3 C4 1_555 1_555
C5 C4 1_555 1_555
C6 C1 1_555 1_555
H4 C6 1_555 1_555
C7 N1 1_555 1_555
H5 C7 1_555 1_555
C8 N2 1_555 1_555
H6 C8 1_555 1_555
C9 N1 1_555 1_555
H7 C9 1_555 1_555
C10 N3 1_555 1_555
H8 C10 1_555 1_555
C11 C10 1_555 1_555
H9 C11 1_555 1_555
C12 N3 1_555 1_555
H10 C12 1_555 1_555
C13 N5 1_555 1_555
H11 C13 1_555 1_555
C14 C13 1_555 1_555
H12 C14 1_555 1_555
C15 N5 1_555 1_555
H13 C15 1_555 1_555
Zn1_2 N2B 1_555 1_555
Zn1I N2K 1_555 1_555
Zn1I_2 N2I 1_555 1_555
O5B Zn1 1_555 1_555
H1E O5 1_555 1_555
H1B O5B 1_555 1_555
H1G O5B 1_555 1_555
N1B C1B 1_555 1_555
N1I C1I 1_555 1_555
N1K C1K 1_555 1_555
N2B C8B 1_555 1_555
N2I C8I 1_555 1_555
N2K C8K 1_555 1_555
N2B_2 Zn1 1_555 1_555
N2E Zn1 1_555 1_555
N2G Zn1 1_555 1_555
N3B C3B 1_555 1_555
N3I C3I 1_555 1_555
N3K C3K 1_555 1_555
N4B Zn2 1_555 1_555
N4I Zn2 1_555 1_555
N4K Zn2 1_555 1_555
N5B C5B 1_555 1_555
N5I C5I 1_555 1_555
N5K C5K 1_555 1_555
N6B C14B 1_555 1_555
N6I C14I 1_555 1_555
N6K C14K 1_555 1_555
C1B C2B 1_555 1_555
C1I C2I 1_555 1_555
C1K C2K 1_555 1_555
C2B H2B 1_555 1_555
C2I H2I 1_555 1_555
C2K H2K 1_555 1_555
C3B C2B 1_555 1_555
C3I C2I 1_555 1_555
C3K C2K 1_555 1_555
C4B C3B 1_555 1_555
C4I C3I 1_555 1_555
C4K C3K 1_555 1_555
H3B C4B 1_555 1_555
H3I C4I 1_555 1_555
H3K C4K 1_555 1_555
C5B C4B 1_555 1_555
C5I C4I 1_555 1_555
C5K C4K 1_555 1_555
C6B C1B 1_555 1_555
C6I C1I 1_555 1_555
C6K C1K 1_555 1_555
H4B C6B 1_555 1_555
H4I C6I 1_555 1_555
H4K C6K 1_555 1_555
C7B N1B 1_555 1_555
C7I N1I 1_555 1_555
C7K N1K 1_555 1_555
H5B C7B 1_555 1_555
H5I C7I 1_555 1_555
H5K C7K 1_555 1_555
C8B C7B 1_555 1_555
C8I C7I 1_555 1_555
C8K C7K 1_555 1_555
H6B C8B 1_555 1_555
H6I C8I 1_555 1_555
H6K C8K 1_555 1_555
C9B N1B 1_555 1_555
C9I N1I 1_555 1_555
C9K N1K 1_555 1_555
H7B C9B 1_555 1_555
H7I C9I 1_555 1_555
H7K C9K 1_555 1_555
C10B N3B 1_555 1_555
C10I N3I 1_555 1_555
C10K N3K 1_555 1_555
H8B C10B 1_555 1_555
H8I C10I 1_555 1_555
H8K C10K 1_555 1_555
C11B N4B 1_555 1_555
C11I N4I 1_555 1_555
C11K N4K 1_555 1_555
H9B C11B 1_555 1_555
H9I C11I 1_555 1_555
H9K C11K 1_555 1_555
C12B N3B 1_555 1_555
C12I N3I 1_555 1_555
C12K N3K 1_555 1_555
H10B C12B 1_555 1_555
H10I C12I 1_555 1_555
H10K C12K 1_555 1_555
C13B N5B 1_555 1_555
C13I N5I 1_555 1_555
C13K N5K 1_555 1_555
H11B C13B 1_555 1_555
H11I C13I 1_555 1_555
H11K C13K 1_555 1_555
C14B C13B 1_555 1_555
C14I C13I 1_555 1_555
C14K C13K 1_555 1_555
H12B C14B 1_555 1_555
H12I C14I 1_555 1_555
H12K C14K 1_555 1_555
C15B N5B 1_555 1_555
C15I N5I 1_555 1_555
C15K N5K 1_555 1_555
H13B C15B 1_555 1_555
H13I C15I 1_555 1_555
H13K C15K 1_555 1_555
N2 C9 1_555 1_555
N4 C12 1_555 1_555
N6 C15 1_555 1_555
C5 C6 1_555 1_555
C7 C8 1_555 1_555
N2B C9B 1_555 1_555
N2I C9I 1_555 1_555
N2K C9K 1_555 1_555
N4B C12B 1_555 1_555
N4I C12I 1_555 1_555
N4K C12K 1_555 1_555
N6B C15B 1_555 1_555
N6I C15I 1_555 1_555
N6K C15K 1_555 1_555
C5B C6B 1_555 1_555
C5I C6I 1_555 1_555
C5K C6K 1_555 1_555
C10B C11B 1_555 1_555
C10I C11I 1_555 1_555
C10K C11K 1_555 1_555

#END
