
#######################################################################
#
#                 Cambridge Crystallographic Data Centre
#                                CCDC 
#
#######################################################################
#
# If this CIF has been generated from an entry in the Cambridge 
# Structural Database, then it will include bibliographic, chemical, 
# crystal, experimental, refinement or atomic coordinate data resulting 
# from the CCDC's data processing and validation procedures.
#
#######################################################################

data_CUYRUK
_symmetry_cell_setting           monoclinic
_symmetry_space_group_name_H-M   'P 21/c'
_symmetry_Int_Tables_number      14
_space_group_name_Hall           '-P 2ybc'
loop_
_symmetry_equiv_pos_site_id
_symmetry_equiv_pos_as_xyz
1 x,y,z
2 -x,1/2+y,1/2-z
3 -x,-y,-z
4 x,1/2-y,1/2+z
_cell_length_a                   9.9056(14)
_cell_length_b                   7.6620(11)
_cell_length_c                   36.857(5)
_cell_angle_alpha                90
_cell_angle_beta                 96.245(2)
_cell_angle_gamma                90
_cell_volume                     2780.73
loop_
_atom_site_label
_atom_site_type_symbol
_atom_site_fract_x
_atom_site_fract_y
_atom_site_fract_z
Zn1 Zn 0.83178(7) 0.54246(11) 0.972623(18)
Zn2 Zn 0.27214(7) 0.33784(10) 0.668139(18)
C1 C 0.4087(6) 0.3141(8) 0.87665(15)
C2 C 0.2855(6) 0.2442(9) 0.88458(16)
H1 H 0.2743 0.2028 0.9078
C3 C 0.1808(6) 0.2387(9) 0.85677(16)
C4 C 0.1945(6) 0.3018(9) 0.82231(16)
H2 H 0.1221 0.2988 0.8040
C5 C 0.3187(6) 0.3693(9) 0.81578(16)
C6 C 0.4273(6) 0.3747(8) 0.84281(15)
H3 H 0.5110 0.4186 0.8380
C7 C 0.5414(7) 0.1880(9) 0.93168(18)
H4 H 0.4905 0.0875 0.9341
C8 C 0.6523(7) 0.2409(9) 0.95356(16)
H5 H 0.6917 0.1802 0.9739
C9 C 0.6149(6) 0.4382(9) 0.91171(16)
H6 H 0.6219 0.5381 0.8977
C10 C 0.4151(8) 0.5584(10) 0.76901(19)
H7 H 0.4660 0.6362 0.7843
C11 C 0.4036(8) 0.5540(11) 0.73234(19)
H8 H 0.4461 0.6308 0.7177
C12 C 0.2830(6) 0.3459(9) 0.74867(16)
H9 H 0.2257 0.2496 0.7482
C13 C -0.0021(7) 0.1572(11) 0.89620(19)
H10 H 0.0312 0.2124 0.9178
C14 C -0.1146(7) 0.0587(10) 0.89044(18)
H11 H -0.1726 0.0331 0.9080
C15 C -0.0262(6) 0.0655(8) 0.83980(16)
H12 H -0.0103 0.0470 0.8157
C16 C 0.6288(6) 0.2882(9) 0.61825(17)
C17 C 0.5860(6) 0.2621(9) 0.58116(16)
H13 H 0.4951 0.2786 0.5726
C18 C 0.6752(6) 0.2130(9) 0.55755(16)
H14 H 0.6451 0.1966 0.5330
C19 C 0.8107(6) 0.1875(8) 0.56994(16)
C20 C 0.8533(6) 0.2078(9) 0.60675(16)
H15 H 0.9433 0.1851 0.6154
C21 C 0.7644(6) 0.2610(9) 0.63054(16)
H16 H 0.7951 0.2789 0.6550
C22 C 0.5302(7) 0.3406(9) 0.64425(17)
C23 C 0.9093(6) 0.1305(9) 0.54462(17)
I1 I 0.74110(7) 0.80665(8) 1.002773(15)
I2 I 0.18373(5) 0.02051(7) 0.674927(13)
N1 N 0.6982(5) 0.3966(7) 0.94152(12)
N2 N 0.5195(5) 0.3136(7) 0.90507(13)
N3 N 0.3202(5) 0.4197(7) 0.71980(12)
N4 N 0.3366(5) 0.4249(7) 0.77909(13)
N5 N -0.1317(5) 0.0010(7) 0.85478(14)
N6 N 0.0536(5) 0.1596(7) 0.86357(13)
O1 O 0.4037(5) 0.3226(7) 0.63280(13)
O2 O 0.5709(5) 0.3888(9) 0.67495(13)
O3 O 0.8757(4) 0.1360(6) 0.51092(11)
O4 O 1.0263(5) 0.0827(8) 0.55844(12)
Zn1A Zn 1.16822(7) 0.04246(11) 0.527377(18)
Zn1C Zn 0.83178(7) -0.04246(11) 0.472623(18)
Zn2A Zn -0.27214(7) -0.16216(10) 0.831861(18)
N5A N 0.1317(5) 0.5010(7) 0.64522(14)
O3C O 0.8757(4) 0.3640(6) 1.01092(11)
O4A O 0.9737(5) 0.5827(8) 0.94156(12)
O5 O 0.7949(9) 0.4252(11) 0.72525(19)
O6 O 0.9633(9) 0.1377(16) 0.7489(3)
loop_
_geom_bond_atom_site_label_1
_geom_bond_atom_site_label_2
_geom_bond_site_symmetry_1
_geom_bond_site_symmetry_2
Zn1 I1 1_555 1_555
Zn2 I2 1_555 1_555
C1 C2 1_555 1_555
C2 H1 1_555 1_555
C3 C2 1_555 1_555
C4 C3 1_555 1_555
H2 C4 1_555 1_555
C5 C4 1_555 1_555
C6 C1 1_555 1_555
H3 C6 1_555 1_555
C7 H4 1_555 1_555
C8 C7 1_555 1_555
H5 C8 1_555 1_555
C9 H6 1_555 1_555
C10 H7 1_555 1_555
C11 C10 1_555 1_555
H8 C11 1_555 1_555
C12 H9 1_555 1_555
C13 H10 1_555 1_555
C14 C13 1_555 1_555
H11 C14 1_555 1_555
C15 H12 1_555 1_555
C16 C17 1_555 1_555
C17 H13 1_555 1_555
C18 C17 1_555 1_555
H14 C18 1_555 1_555
C19 C18 1_555 1_555
C20 C19 1_555 1_555
H15 C20 1_555 1_555
C21 C16 1_555 1_555
H16 C21 1_555 1_555
C22 C16 1_555 1_555
C23 C19 1_555 1_555
N1 Zn1 1_555 1_555
N2 C1 1_555 1_555
N3 Zn2 1_555 1_555
N4 C5 1_555 1_555
N5 C14 1_555 1_555
N6 C3 1_555 1_555
O1 Zn2 1_555 1_555
O2 C22 1_555 1_555
O3 C23 1_555 1_555
O4 C23 1_555 1_555
Zn1A O4 1_555 1_555
Zn1C O3 1_555 1_555
Zn2A N5 1_555 1_555
N5A Zn2 1_555 1_555
O3C Zn1 1_555 1_555
O4A Zn1 1_555 1_555
C5 C6 1_555 1_555
C7 N2 1_555 1_555
C8 N1 1_555 1_555
C9 N1 1_555 1_555
C9 N2 1_555 1_555
C10 N4 1_555 1_555
C11 N3 1_555 1_555
C12 N3 1_555 1_555
C12 N4 1_555 1_555
C13 N6 1_555 1_555
C15 N5 1_555 1_555
C15 N6 1_555 1_555
C20 C21 1_555 1_555
C22 O1 1_555 1_555

#END
