
#######################################################################
#
#                 Cambridge Crystallographic Data Centre
#                                CCDC 
#
#######################################################################
#
# If this CIF has been generated from an entry in the Cambridge 
# Structural Database, then it will include bibliographic, chemical, 
# crystal, experimental, refinement or atomic coordinate data resulting 
# from the CCDC's data processing and validation procedures.
#
#######################################################################

data_CUYROE
_symmetry_cell_setting           orthorhombic
_symmetry_space_group_name_H-M   'P b c a'
_symmetry_Int_Tables_number      61
_space_group_name_Hall           '-P 2ac 2ab'
loop_
_symmetry_equiv_pos_site_id
_symmetry_equiv_pos_as_xyz
1 x,y,z
2 1/2-x,-y,1/2+z
3 -x,1/2+y,1/2-z
4 1/2+x,1/2-y,-z
5 -x,-y,-z
6 1/2+x,y,1/2-z
7 x,1/2-y,1/2+z
8 1/2-x,1/2+y,z
_cell_length_a                   15.9995(18)
_cell_length_b                   14.8698(16)
_cell_length_c                   16.0733(18)
_cell_angle_alpha                90
_cell_angle_beta                 90
_cell_angle_gamma                90
_cell_volume                     3823.99
loop_
_atom_site_label
_atom_site_type_symbol
_atom_site_fract_x
_atom_site_fract_y
_atom_site_fract_z
Zn1 Zn 0.173188(19) -0.08522(2) 0.28629(2)
C1 C 0.49416(16) 0.12346(19) 0.07839(18)
C2 C 0.56870(17) 0.15837(18) 0.10762(19)
H1 H 0.6099 0.1776 0.0709
C3 C 0.58065(17) 0.16404(19) 0.19239(19)
C4 C 0.52233(17) 0.13222(19) 0.24874(18)
H2 H 0.5319 0.1344 0.3058
C5 C 0.44919(18) 0.09699(19) 0.21663(18)
C6 C 0.43365(17) 0.09320(18) 0.13233(19)
H3 H 0.3833 0.0706 0.1124
C7 C 0.5215(2) 0.1716(2) -0.0688(2)
H4 H 0.5676 0.2087 -0.0601
C8 C 0.48281(19) 0.1562(2) -0.1408(2)
H5 H 0.4983 0.1809 -0.1916
C9 C 0.41671(17) 0.07922(18) -0.04907(19)
H6 H 0.3783 0.0413 -0.0234
C10 C 0.70327(19) 0.1801(2) 0.28951(18)
H7 H 0.6933 0.1319 0.3249
C11 C 0.76695(18) 0.2389(2) 0.29372(18)
H8 H 0.8093 0.2379 0.3333
C12 C 0.69211(17) 0.2787(2) 0.18877(19)
H9 H 0.6722 0.3094 0.1424
C13 C 0.36297(19) 0.1019(2) 0.3480(2)
H10 H 0.3904 0.1474 0.3768
C14 C 0.29376(19) 0.0581(2) 0.3722(2)
H11 H 0.2649 0.0682 0.4216
C15 C 0.32883(18) 0.0029(2) 0.2535(2)
H12 H 0.3297 -0.0316 0.2052
C16 C 0.03924(17) -0.0375(2) 0.06946(18)
C17 C -0.02867(19) -0.0794(2) 0.0327(2)
H13 H -0.0481 -0.1334 0.0545
C18 C 0.06774(18) 0.0428(2) 0.03518(19)
H14 H 0.1136 0.0719 0.0585
C19 C 0.07821(19) -0.0777(2) 0.1459(2)
N1 N 0.41663(14) 0.09869(16) -0.12909(16)
N2 N 0.47942(14) 0.12126(16) -0.00955(15)
N3 N 0.75989(14) 0.30069(16) 0.23061(15)
N4 N 0.65586(14) 0.20585(17) 0.22223(15)
N5 N 0.27208(14) -0.00417(16) 0.31253(15)
N6 N 0.38534(15) 0.06650(17) 0.27253(16)
O1 O 0.14019(13) -0.03409(15) 0.17810(13)
O2 O 0.05177(15) -0.14823(15) 0.17528(14)
Zn1D Zn -0.173188(19) 0.08522(2) -0.28629(2)
Zn1A Zn 0.326812(19) 0.08522(2) -0.21371(2)
Zn1B Zn 0.826812(19) 0.41478(2) 0.21371(2)
Zn1E Zn -0.326812(19) -0.08522(2) 0.21371(2)
Zn1F Zn -0.826812(19) -0.41478(2) -0.21371(2)
C1D C -0.49416(16) -0.12346(19) -0.07839(18)
C2D C -0.56870(17) -0.15837(18) -0.10762(19)
H1D H -0.6099 -0.1776 -0.0709
C3D C -0.58065(17) -0.16404(19) -0.19239(19)
C4D C -0.52233(17) -0.13222(19) -0.24874(18)
H2D H -0.5319 -0.1344 -0.3058
C5D C -0.44919(18) -0.09699(19) -0.21663(18)
C6D C -0.43365(17) -0.09320(18) -0.13233(19)
H3D H -0.3833 -0.0706 -0.1124
C7D C -0.5215(2) -0.1716(2) 0.0688(2)
H4D H -0.5676 -0.2087 0.0601
C8D C -0.48281(19) -0.1562(2) 0.1408(2)
H5D H -0.4983 -0.1809 0.1916
C9D C -0.41671(17) -0.07922(18) 0.04907(19)
H6D H -0.3783 -0.0413 0.0234
C10D C -0.70327(19) -0.1801(2) -0.28951(18)
H7D H -0.6933 -0.1319 -0.3249
C11D C -0.76695(18) -0.2389(2) -0.29372(18)
H8D H -0.8093 -0.2379 -0.3333
C12D C -0.69211(17) -0.2787(2) -0.18877(19)
H9D H -0.6722 -0.3094 -0.1424
C13D C -0.36297(19) -0.1019(2) -0.3480(2)
H10D H -0.3904 -0.1474 -0.3768
C14D C -0.29376(19) -0.0581(2) -0.3722(2)
H11D H -0.2649 -0.0682 -0.4216
C15D C -0.32883(18) -0.0029(2) -0.2535(2)
H12D H -0.3297 0.0316 -0.2052
C16D C -0.03924(17) 0.0375(2) -0.06946(18)
C17D C 0.02867(19) 0.0794(2) -0.0327(2)
H13D H 0.0481 0.1334 -0.0545
C18D C -0.06774(18) -0.0428(2) -0.03518(19)
H14D H -0.1136 -0.0719 -0.0585
C19D C -0.07821(19) 0.0777(2) -0.1459(2)
N1D N -0.41663(14) -0.09869(16) 0.12909(16)
N1A N 0.08337(14) -0.09869(16) 0.37091(16)
N1E N -0.08337(14) 0.09869(16) -0.37091(16)
N2D N -0.47942(14) -0.12126(16) 0.00955(15)
N3D N -0.75989(14) -0.30069(16) -0.23061(15)
N3B N 0.24011(14) -0.19931(16) 0.26939(15)
N3F N -0.24011(14) 0.19931(16) -0.26939(15)
N4D N -0.65586(14) -0.20585(17) -0.22223(15)
N5D N -0.27208(14) 0.00417(16) -0.31253(15)
N6D N -0.38534(15) -0.06650(17) -0.27253(16)
O1D O -0.14019(13) 0.03409(15) -0.17810(13)
O2D O -0.05177(15) 0.14823(15) -0.17528(14)
N7 N 0.23797(19) 0.7173(2) 0.00828(19)
O3 O 0.24392(19) 0.6353(2) 0.0069(3)
O4 O 0.30274(18) 0.7618(2) 0.01433(19)
O5 O 0.16946(17) 0.7538(2) 0.0069(2)
O6 O 0.29035(18) 0.9397(2) 0.06696(19)
H15 H 0.2442(15) 0.956(3) 0.083(3)
H16 H 0.282(3) 0.8865(13) 0.054(3)
loop_
_geom_bond_atom_site_label_1
_geom_bond_atom_site_label_2
_geom_bond_site_symmetry_1
_geom_bond_site_symmetry_2
Zn1 N5 1_555 1_555
C1 C2 1_555 1_555
C2 H1 1_555 1_555
C3 C2 1_555 1_555
C4 C3 1_555 1_555
H2 C4 1_555 1_555
C5 C4 1_555 1_555
C6 C1 1_555 1_555
H3 C6 1_555 1_555
C7 H4 1_555 1_555
C8 C7 1_555 1_555
H5 C8 1_555 1_555
C9 H6 1_555 1_555
C10 H7 1_555 1_555
C11 C10 1_555 1_555
H8 C11 1_555 1_555
C12 H9 1_555 1_555
C13 H10 1_555 1_555
C14 C13 1_555 1_555
H11 C14 1_555 1_555
C15 H12 1_555 1_555
C16 C17 1_555 1_555
C17 H13 1_555 1_555
C18 C16 1_555 1_555
H14 C18 1_555 1_555
C19 C16 1_555 1_555
N1 C8 1_555 1_555
N2 C1 1_555 1_555
N3 C11 1_555 1_555
N4 C3 1_555 1_555
N5 C14 1_555 1_555
N6 C5 1_555 1_555
N7 O3 1_555 1_555
O1 Zn1 1_555 1_555
O2 C19 1_555 1_555
O4 N7 1_555 1_555
O5 N7 1_555 1_555
O6 H15 1_555 1_555
H16 O6 1_555 1_555
Zn1D N1E 1_555 1_555
Zn1A N1 1_555 1_555
Zn1B N3 1_555 1_555
Zn1E N1D 1_555 1_555
Zn1F N3D 1_555 1_555
C1D C2D 1_555 1_555
C2D H1D 1_555 1_555
C3D C2D 1_555 1_555
C4D C3D 1_555 1_555
H2D C4D 1_555 1_555
C5D C4D 1_555 1_555
C6D C1D 1_555 1_555
H3D C6D 1_555 1_555
C7D H4D 1_555 1_555
C8D C7D 1_555 1_555
H5D C8D 1_555 1_555
C9D H6D 1_555 1_555
C10D H7D 1_555 1_555
C11D C10D 1_555 1_555
H8D C11D 1_555 1_555
C12D H9D 1_555 1_555
C13D H10D 1_555 1_555
C14D C13D 1_555 1_555
H11D C14D 1_555 1_555
C15D H12D 1_555 1_555
C16D C17D 1_555 1_555
C17D C18 1_555 1_555
H13D C17D 1_555 1_555
C18D C17 1_555 1_555
H14D C18D 1_555 1_555
C19D C16D 1_555 1_555
N1D C8D 1_555 1_555
N1A Zn1 1_555 1_555
N2D C1D 1_555 1_555
N3D C11D 1_555 1_555
N3B Zn1 1_555 1_555
N3F Zn1D 1_555 1_555
N4D C3D 1_555 1_555
N5D Zn1D 1_555 1_555
N6D C5D 1_555 1_555
O1D Zn1D 1_555 1_555
O2D C19D 1_555 1_555
C5 C6 1_555 1_555
C7 N2 1_555 1_555
C9 N1 1_555 1_555
C9 N2 1_555 1_555
C10 N4 1_555 1_555
C12 N3 1_555 1_555
C12 N4 1_555 1_555
C13 N6 1_555 1_555
C15 N5 1_555 1_555
C15 N6 1_555 1_555
C19 O1 1_555 1_555
C5D C6D 1_555 1_555
C7D N2D 1_555 1_555
C9D N1D 1_555 1_555
C9D N2D 1_555 1_555
C10D N4D 1_555 1_555
C12D N3D 1_555 1_555
C12D N4D 1_555 1_555
C13D N6D 1_555 1_555
C14D N5D 1_555 1_555
C15D N5D 1_555 1_555
C15D N6D 1_555 1_555
C16D C18D 1_555 1_555
C19D O1D 1_555 1_555

#END
