
#######################################################################
#
#                 Cambridge Crystallographic Data Centre
#                                CCDC 
#
#######################################################################
#
# If this CIF has been generated from an entry in the Cambridge 
# Structural Database, then it will include bibliographic, chemical, 
# crystal, experimental, refinement or atomic coordinate data resulting 
# from the CCDC's data processing and validation procedures.
#
#######################################################################

data_CUYSEV
_symmetry_cell_setting           monoclinic
_symmetry_space_group_name_H-M   'P 21/n'
_symmetry_Int_Tables_number      14
_space_group_name_Hall           '-P 2yn'
loop_
_symmetry_equiv_pos_site_id
_symmetry_equiv_pos_as_xyz
1 x,y,z
2 1/2-x,1/2+y,1/2-z
3 -x,-y,-z
4 1/2+x,1/2-y,1/2+z
_cell_length_a                   5.8256(12)
_cell_length_b                   17.294(4)
_cell_length_c                   20.570(4)
_cell_angle_alpha                90
_cell_angle_beta                 96.89(3)
_cell_angle_gamma                90
_cell_volume                     2057.42
loop_
_atom_site_label
_atom_site_type_symbol
_atom_site_fract_x
_atom_site_fract_y
_atom_site_fract_z
Cu1 Cu 0.40458(17) 0.62934(6) 0.19854(5)
Cu2 Cu 0.15644(18) 0.59525(7) 0.06468(5)
S1 S 0.1318(3) 0.71894(12) 0.15006(10)
S2 S 0.4262(3) 0.51038(12) 0.11749(10)
N1 N 0.2956(11) 0.5612(4) 0.2669(3)
N2 N 0.1220(11) 0.4548(4) 0.3031(3)
N3 N -0.2869(11) 0.6733(4) 0.1972(3)
N4 N 0.8521(11) 0.5527(4) 0.0742(3)
C1 C 0.4287(13) 0.5346(5) 0.3265(4)
C2 C 0.6367(14) 0.5637(5) 0.3596(4)
H1 H 0.7124 0.6062 0.3433
C3 C 0.7268(15) 0.5265(5) 0.4185(4)
H2 H 0.8605 0.5460 0.4431
C4 C 0.6188(16) 0.4609(5) 0.4403(4)
H3 H 0.6859 0.4365 0.4788
C5 C 0.4167(15) 0.4300(5) 0.4077(4)
H4 H 0.3466 0.3857 0.4232
C6 C 0.3207(13) 0.4694(5) 0.3492(4)
C7 C 0.1154(13) 0.5123(5) 0.2577(4)
H5 H -0.0044 0.5174 0.2230
C8 C -0.0531(13) 0.3928(5) 0.3076(4)
H6 H -0.1634 0.4101 0.3370
H7 H 0.0250 0.3467 0.3271
C9 C -0.1117(12) 0.6913(4) 0.1784(4)
C10 C 0.6746(12) 0.5344(4) 0.0904(4)
C11 C -0.1872(13) 0.3709(5) 0.2410(4)
H8 H -0.2519 0.4179 0.2194
H9 H -0.3163 0.3370 0.2483
C12 C -0.0341(13) 0.3297(5) 0.1955(4)
H10 H 0.1128 0.3575 0.1964
H11 H 0.0000 0.2772 0.2118
C13 C -0.3478(14) 0.2866(4) 0.1025(4)
C14 C -0.5017(13) 0.2393(4) 0.1328(4)
H12 H -0.4799 0.2276 0.1777
C15 C -0.6901(15) 0.2110(5) 0.0902(5)
H13 H -0.7967 0.1788 0.1080
C16 C -0.7295(15) 0.2275(5) 0.0230(5)
H14 H -0.8586 0.2063 -0.0027
C17 C -0.5794(14) 0.2745(5) -0.0051(4)
H15 H -0.6067 0.2873 -0.0498
C18 C -0.3843(13) 0.3031(4) 0.0342(4)
C19 C -0.0674(14) 0.3634(5) 0.0748(4)
H16 H 0.0676 0.3936 0.0783
N5 N -0.1462(11) 0.3255(4) 0.1274(3)
N6 N -0.2062(11) 0.3521(4) 0.0177(3)
Cu1_2 Cu -0.59542(17) 0.62934(6) 0.19854(5)
Cu2_2 Cu 1.15644(18) 0.59525(7) 0.06468(5)
Cu2B Cu -0.15644(18) 0.40475(7) -0.06468(5)
N3_2 N 0.7131(11) 0.6733(4) 0.1972(3)
N4_2 N -0.1479(11) 0.5527(4) 0.0742(3)
N6B N 0.2062(11) 0.6479(4) -0.0177(3)
loop_
_geom_bond_atom_site_label_1
_geom_bond_atom_site_label_2
_geom_bond_site_symmetry_1
_geom_bond_site_symmetry_2
Cu1 S1 1_555 1_555
Cu2 S1 1_555 1_555
S1 C9 1_555 1_555
S2 Cu1 1_555 1_555
N1 Cu1 1_555 1_555
N2 C6 1_555 1_555
N3 C9 1_555 1_555
N4 C10 1_555 1_555
C1 N1 1_555 1_555
C2 C1 1_555 1_555
H1 C2 1_555 1_555
C3 C2 1_555 1_555
H2 C3 1_555 1_555
C4 C3 1_555 1_555
H3 C4 1_555 1_555
C5 C4 1_555 1_555
H4 C5 1_555 1_555
C6 C1 1_555 1_555
C7 N1 1_555 1_555
H5 C7 1_555 1_555
C8 N2 1_555 1_555
H6 C8 1_555 1_555
H7 C8 1_555 1_555
C10 S2 1_555 1_555
C11 C8 1_555 1_555
H8 C11 1_555 1_555
H9 C11 1_555 1_555
C12 C11 1_555 1_555
H10 C12 1_555 1_555
H11 C12 1_555 1_555
C13 C14 1_555 1_555
C14 H12 1_555 1_555
C15 C14 1_555 1_555
H13 C15 1_555 1_555
C16 C15 1_555 1_555
H14 C16 1_555 1_555
C17 C16 1_555 1_555
H15 C17 1_555 1_555
C18 C13 1_555 1_555
C19 H16 1_555 1_555
N5 C12 1_555 1_555
N6 C18 1_555 1_555
Cu1_2 N3 1_555 1_555
Cu2_2 N4 1_555 1_555
Cu2B N6 1_555 1_555
N3_2 Cu1 1_555 1_555
N4_2 Cu2 1_555 1_555
N6B Cu2 1_555 1_555
Cu2 S2 1_555 1_555
N2 C7 1_555 1_555
C5 C6 1_555 1_555
C13 N5 1_555 1_555
C17 C18 1_555 1_555
C19 N5 1_555 1_555
C19 N6 1_555 1_555

#END
