
#######################################################################
#
#                 Cambridge Crystallographic Data Centre
#                                CCDC 
#
#######################################################################
#
# If this CIF has been generated from an entry in the Cambridge 
# Structural Database, then it will include bibliographic, chemical, 
# crystal, experimental, refinement or atomic coordinate data resulting 
# from the CCDC's data processing and validation procedures.
#
#######################################################################

data_CUYSIZ
_symmetry_cell_setting           triclinic
_symmetry_space_group_name_H-M   'P -1'
_symmetry_Int_Tables_number      2
_space_group_name_Hall           '-P 1'
loop_
_symmetry_equiv_pos_site_id
_symmetry_equiv_pos_as_xyz
1 x,y,z
2 -x,-y,-z
_cell_length_a                   9.5176(19)
_cell_length_b                   11.197(2)
_cell_length_c                   13.924(3)
_cell_angle_alpha                90.53(3)
_cell_angle_beta                 90.05(3)
_cell_angle_gamma                103.81(3)
_cell_volume                     1440.9
loop_
_atom_site_label
_atom_site_type_symbol
_atom_site_fract_x
_atom_site_fract_y
_atom_site_fract_z
Cu1 Cu 1.02439(8) 0.31784(6) 0.27225(5)
Cu2 Cu 0.96573(8) 0.19870(7) 0.59604(6)
S1 S 1.06490(18) 0.22603(13) 0.41806(11)
S2 S 0.84468(17) 0.67336(14) 0.32790(12)
N1 N 1.2275(5) 0.4131(4) 0.2279(3)
N2 N 1.4209(5) 0.5681(4) 0.2041(3)
N3 N 0.6012(5) 0.2969(4) 0.4930(3)
N4 N 0.7710(5) 0.2333(4) 0.5757(3)
C1 C 1.3421(6) 0.3658(5) 0.1991(4)
C2 C 1.3505(7) 0.2434(5) 0.1881(4)
H1 H 1.2698 0.1777 0.1984
C3 C 1.4807(9) 0.2237(6) 0.1618(5)
H2 H 1.4891 0.1422 0.1536
C4 C 1.6033(8) 0.3201(7) 0.1465(5)
H3 H 1.6909 0.3014 0.1287
C5 C 1.5977(7) 0.4420(6) 0.1570(4)
H4 H 1.6792 0.5069 0.1468
C6 C 1.4655(6) 0.4629(5) 0.1833(4)
C7 C 1.2813(6) 0.5330(5) 0.2296(4)
H5 H 1.2264 0.5892 0.2471
C8 C 1.5057(6) 0.6940(5) 0.1955(4)
H6 H 1.6054 0.6984 0.2158
H7 H 1.4658 0.7473 0.2386
C9 C 1.5063(6) 0.7412(5) 0.0932(4)
H8 H 1.4067 0.7367 0.0726
H9 H 1.5471 0.6886 0.0500
C10 C 1.5955(6) 0.8745(5) 0.0861(4)
H10 H 1.5712 0.9096 0.0259
H11 H 1.5687 0.9227 0.1391
C11 C 0.6358(6) 0.1568(5) 0.5966(4)
C12 C 0.5969(6) 0.0521(5) 0.6527(4)
H12 H 0.6667 0.0236 0.6877
C13 C 0.4536(7) -0.0082(6) 0.6556(4)
H13 H 0.4254 -0.0794 0.6929
C14 C 0.3484(7) 0.0336(6) 0.6045(4)
H14 H 0.2512 -0.0102 0.6082
C15 C 0.3838(6) 0.1362(6) 0.5496(4)
H15 H 0.3132 0.1643 0.5152
C16 C 0.5291(6) 0.1977(5) 0.5467(4)
C17 C 0.7438(7) 0.3126(6) 0.5141(4)
H16 H 0.8165 0.3749 0.4870
C18 C 0.5372(7) 0.3655(6) 0.4228(4)
H17 H 0.4715 0.3069 0.3808
H18 H 0.6145 0.4137 0.3828
C19 C 0.4543(7) 0.4516(5) 0.4684(4)
H19 H 0.4118 0.4916 0.4175
H20 H 0.3748 0.4030 0.5066
C20 C 1.0563(6) 0.0801(5) 0.3948(4)
C21 C 0.8988(6) 0.5446(5) 0.3117(4)
N5 N 1.8367(5) 1.0145(4) 0.0975(3)
N6 N 1.9463(5) 1.1909(4) 0.1691(3)
C22 C 1.9390(6) 1.2108(5) 0.0706(4)
C23 C 1.9884(6) 1.3173(5) 0.0179(4)
H21 H 2.0365 1.3915 0.0476
C24 C 1.9640(7) 1.3097(6) -0.0796(5)
H22 H 1.9949 1.3808 -0.1167
C25 C 1.8947(7) 1.1993(6) -0.1256(4)
H23 H 1.8823 1.1976 -0.1926
C26 C 1.8445(7) 1.0937(5) -0.0740(4)
H24 H 1.7966 1.0198 -0.1043
C27 C 1.8675(6) 1.1003(5) 0.0252(4)
C28 C 1.8857(6) 1.0732(5) 0.1801(4)
H25 H 1.8774 1.0340 0.2399
C29 C 1.7567(6) 0.8859(5) 0.0895(4)
H26 H 1.7800 0.8402 0.1446
H27 H 1.7867 0.8493 0.0311
N7 N 1.0475(5) -0.0233(4) 0.3824(3)
N8 N 0.9306(6) 0.4535(5) 0.2990(4)
Cu1_2 Cu 0.02439(8) -0.68216(6) 0.27225(5)
Cu1_3 Cu 2.02439(8) 1.31784(6) 0.27225(5)
Cu1A Cu 0.97561(8) 0.68216(6) 0.72775(5)
Cu1A_2 Cu 0.97561(8) -0.31784(6) 0.72775(5)
Cu2A Cu 1.03427(8) 0.80130(7) 0.40396(6)
Cu2A_2 Cu 1.03427(8) -0.19870(7) 0.40396(6)
Cu2A_3 Cu 0.03427(8) 0.80130(7) 0.40396(6)
S1A S 0.93510(18) -0.22603(13) 0.58194(11)
S1_2 S 0.06490(18) -0.77397(13) 0.41806(11)
S1A_2 S 0.93510(18) 0.77397(13) 0.58194(11)
S2A S 1.15532(17) 0.32664(14) 0.67210(12)
N1_2 N 0.2275(5) -0.5869(4) 0.2279(3)
N2_2 N 0.4209(5) -0.4319(4) 0.2041(3)
N3A N 0.3988(5) 0.7031(4) 0.5070(3)
N4A N 0.2290(5) 0.7667(4) 0.4243(3)
N4A_2 N 1.2290(5) 0.7667(4) 0.4243(3)
C1_2 C 0.3421(6) -0.6342(5) 0.1991(4)
C2_2 C 0.3505(7) -0.7566(5) 0.1881(4)
H1_2 H 0.2698 -0.8223 0.1984
C3_2 C 0.4807(9) -0.7763(6) 0.1618(5)
H2_2 H 0.4891 -0.8578 0.1536
C4_2 C 0.6033(8) -0.6799(7) 0.1465(5)
H3_2 H 0.6909 -0.6986 0.1287
C5_2 C 0.5977(7) -0.5580(6) 0.1570(4)
H4_2 H 0.6792 -0.4931 0.1468
C6_2 C 0.4655(6) -0.5371(5) 0.1833(4)
C7_2 C 0.2813(6) -0.4670(5) 0.2296(4)
H5_2 H 0.2264 -0.4108 0.2471
C8_2 C 0.5057(6) -0.3060(5) 0.1955(4)
H6_2 H 0.6054 -0.3016 0.2158
H7_2 H 0.4658 -0.2527 0.2386
C9_2 C 0.5063(6) -0.2588(5) 0.0932(4)
H8_2 H 0.4067 -0.2633 0.0726
H9_2 H 0.5471 -0.3114 0.0500
C10_2 C 0.5955(6) -0.1255(5) 0.0861(4)
H10_2 H 0.5712 -0.0904 0.0259
H11_2 H 0.5687 -0.0773 0.1391
C11A C 0.3642(6) 0.8432(5) 0.4034(4)
C12A C 0.4031(6) 0.9479(5) 0.3473(4)
H12A H 0.3333 0.9764 0.3123
C13A C 0.5464(7) 1.0082(6) 0.3444(4)
H13A H 0.5746 1.0794 0.3071
C14A C 0.6516(7) 0.9664(6) 0.3955(4)
H14A H 0.7488 1.0102 0.3918
C15A C 0.6162(6) 0.8638(6) 0.4504(4)
H15A H 0.6868 0.8357 0.4848
C16A C 0.4709(6) 0.8023(5) 0.4533(4)
C17A C 0.2562(7) 0.6874(6) 0.4859(4)
H16A H 0.1835 0.6251 0.5130
C18A C 0.4628(7) 0.6345(6) 0.5772(4)
H17A H 0.5285 0.6931 0.6192
H18A H 0.3855 0.5863 0.6172
C19A C 0.5457(7) 0.5484(5) 0.5316(4)
H19A H 0.5882 0.5084 0.5825
H20A H 0.6252 0.5970 0.4934
C20A C 0.9437(6) -0.0801(5) 0.6052(4)
C21A C 1.1012(6) 0.4554(5) 0.6883(4)
N5_2 N 0.8367(5) 0.0145(4) 0.0975(3)
N6_2 N 0.9463(5) 0.1909(4) 0.1691(3)
N6_3 N -0.0537(5) -0.8091(4) 0.1691(3)
C22_2 C 0.9390(6) 0.2108(5) 0.0706(4)
C23_2 C 0.9884(6) 0.3173(5) 0.0179(4)
H21_2 H 1.0365 0.3915 0.0476
C24_2 C 0.9640(7) 0.3097(6) -0.0796(5)
H22_2 H 0.9949 0.3808 -0.1167
C25_2 C 0.8947(7) 0.1993(6) -0.1256(4)
H23_2 H 0.8823 0.1976 -0.1926
C26_2 C 0.8445(7) 0.0937(5) -0.0740(4)
H24_2 H 0.7966 0.0198 -0.1043
C27_2 C 0.8675(6) 0.1003(5) 0.0252(4)
C28_2 C 0.8857(6) 0.0732(5) 0.1801(4)
H25_2 H 0.8774 0.0340 0.2399
C29_2 C 0.7567(6) -0.1141(5) 0.0895(4)
H26_2 H 0.7800 -0.1598 0.1446
H27_2 H 0.7867 -0.1507 0.0311
N7A N 0.9525(5) 0.0233(4) 0.6176(3)
N7_2 N 1.0475(5) 0.9767(4) 0.3824(3)
N8A N 1.0694(6) 0.5465(5) 0.7010(4)
N8_2 N -0.0694(6) -0.5465(5) 0.2990(4)
loop_
_geom_bond_atom_site_label_1
_geom_bond_atom_site_label_2
_geom_bond_site_symmetry_1
_geom_bond_site_symmetry_2
Cu1 S1 1_555 1_555
Cu2 S1 1_555 1_555
S1 C20 1_555 1_555
S2 C21 1_555 1_555
N1 Cu1 1_555 1_555
N2 C6 1_555 1_555
N3 C16 1_555 1_555
N4 Cu2 1_555 1_555
C1 N1 1_555 1_555
C2 C1 1_555 1_555
H1 C2 1_555 1_555
C3 C2 1_555 1_555
H2 C3 1_555 1_555
C4 C3 1_555 1_555
H3 C4 1_555 1_555
C5 C4 1_555 1_555
H4 C5 1_555 1_555
C6 C1 1_555 1_555
C7 N1 1_555 1_555
H5 C7 1_555 1_555
C8 N2 1_555 1_555
H6 C8 1_555 1_555
H7 C8 1_555 1_555
C9 C8 1_555 1_555
H8 C9 1_555 1_555
H9 C9 1_555 1_555
C10 C9 1_555 1_555
H10 C10 1_555 1_555
H11 C10 1_555 1_555
C11 N4 1_555 1_555
C12 C11 1_555 1_555
H12 C12 1_555 1_555
C13 C12 1_555 1_555
H13 C13 1_555 1_555
C14 C13 1_555 1_555
H14 C14 1_555 1_555
C15 C14 1_555 1_555
H15 C15 1_555 1_555
C16 C11 1_555 1_555
C17 N3 1_555 1_555
H16 C17 1_555 1_555
C18 N3 1_555 1_555
H17 C18 1_555 1_555
H18 C18 1_555 1_555
C19 C18 1_555 1_555
H19 C19 1_555 1_555
H20 C19 1_555 1_555
C20 N7 1_555 1_555
C21 N8 1_555 1_555
N5 C27 1_555 1_555
N6 C22 1_555 1_555
C22 C23 1_555 1_555
C23 H21 1_555 1_555
C24 C23 1_555 1_555
H22 C24 1_555 1_555
C25 C24 1_555 1_555
H23 C25 1_555 1_555
C26 C25 1_555 1_555
H24 C26 1_555 1_555
C27 C22 1_555 1_555
C28 N5 1_555 1_555
H25 C28 1_555 1_555
C29 C10 1_555 1_555
H26 C29 1_555 1_555
H27 C29 1_555 1_555
N7 Cu2A_2 1_555 1_555
N8 Cu1 1_555 1_555
Cu1_2 S1_2 1_555 1_555
Cu1_3 N6 1_555 1_555
Cu1A S1A_2 1_555 1_555
Cu1A_2 S1A 1_555 1_555
Cu2A S2 1_555 1_555
Cu2A_2 S1A 1_555 1_555
Cu2A_3 N4A 1_555 1_555
S1A C20A 1_555 1_555
S1A_2 Cu2A 1_555 1_555
S2A Cu2 1_555 1_555
N1_2 Cu1_2 1_555 1_555
N2_2 C6_2 1_555 1_555
N3A C16A 1_555 1_555
N4A C11A 1_555 1_555
N4A_2 Cu2A 1_555 1_555
C1_2 N1_2 1_555 1_555
C2_2 C1_2 1_555 1_555
H1_2 C2_2 1_555 1_555
C3_2 C2_2 1_555 1_555
H2_2 C3_2 1_555 1_555
C4_2 C3_2 1_555 1_555
H3_2 C4_2 1_555 1_555
C5_2 C4_2 1_555 1_555
H4_2 C5_2 1_555 1_555
C6_2 C1_2 1_555 1_555
C7_2 N1_2 1_555 1_555
H5_2 C7_2 1_555 1_555
C8_2 N2_2 1_555 1_555
H6_2 C8_2 1_555 1_555
H7_2 C8_2 1_555 1_555
C9_2 C8_2 1_555 1_555
H8_2 C9_2 1_555 1_555
H9_2 C9_2 1_555 1_555
C10_2 C9_2 1_555 1_555
H10_2 C10_2 1_555 1_555
H11_2 C10_2 1_555 1_555
C11A C12A 1_555 1_555
C12A H12A 1_555 1_555
C13A C12A 1_555 1_555
H13A C13A 1_555 1_555
C14A C13A 1_555 1_555
H14A C14A 1_555 1_555
C15A C14A 1_555 1_555
H15A C15A 1_555 1_555
C16A C11A 1_555 1_555
C17A N3A 1_555 1_555
H16A C17A 1_555 1_555
C18A N3A 1_555 1_555
H17A C18A 1_555 1_555
H18A C18A 1_555 1_555
C19A C19 1_555 1_555
H19A C19A 1_555 1_555
H20A C19A 1_555 1_555
C20A N7A 1_555 1_555
C21A S2A 1_555 1_555
N5_2 C27_2 1_555 1_555
N6_2 Cu1 1_555 1_555
N6_3 Cu1_2 1_555 1_555
C22_2 N6_2 1_555 1_555
C23_2 C22_2 1_555 1_555
H21_2 C23_2 1_555 1_555
C24_2 C23_2 1_555 1_555
H22_2 C24_2 1_555 1_555
C25_2 C24_2 1_555 1_555
H23_2 C25_2 1_555 1_555
C26_2 C25_2 1_555 1_555
H24_2 C26_2 1_555 1_555
C27_2 C22_2 1_555 1_555
C28_2 N5_2 1_555 1_555
H25_2 C28_2 1_555 1_555
C29_2 C10_2 1_555 1_555
H26_2 C29_2 1_555 1_555
H27_2 C29_2 1_555 1_555
N7A Cu2 1_555 1_555
N7_2 Cu2A 1_555 1_555
N8A Cu1A 1_555 1_555
N8_2 Cu1_2 1_555 1_555
N2 C7 1_555 1_555
N4 C17 1_555 1_555
C5 C6 1_555 1_555
C15 C16 1_555 1_555
N5 C29 1_555 1_555
N6 C28 1_555 1_555
C26 C27 1_555 1_555
N2_2 C7_2 1_555 1_555
N4A C17A 1_555 1_555
C5_2 C6_2 1_555 1_555
C15A C16A 1_555 1_555
C18A C19A 1_555 1_555
C21A N8A 1_555 1_555
N5_2 C29_2 1_555 1_555
N6_2 C28_2 1_555 1_555
C26_2 C27_2 1_555 1_555

#END
