
#######################################################################
#
#                 Cambridge Crystallographic Data Centre
#                                CCDC 
#
#######################################################################
#
# If this CIF has been generated from an entry in the Cambridge 
# Structural Database, then it will include bibliographic, chemical, 
# crystal, experimental, refinement or atomic coordinate data resulting 
# from the CCDC's data processing and validation procedures.
#
#######################################################################

data_CUYSAR
_symmetry_cell_setting           triclinic
_symmetry_space_group_name_H-M   'P -1'
_symmetry_Int_Tables_number      2
_space_group_name_Hall           '-P 1'
loop_
_symmetry_equiv_pos_site_id
_symmetry_equiv_pos_as_xyz
1 x,y,z
2 -x,-y,-z
_cell_length_a                   7.4725(15)
_cell_length_b                   9.859(2)
_cell_length_c                   12.482(3)
_cell_angle_alpha                86.07(3)
_cell_angle_beta                 73.52(3)
_cell_angle_gamma                69.17(3)
_cell_volume                     823.619
loop_
_atom_site_label
_atom_site_type_symbol
_atom_site_fract_x
_atom_site_fract_y
_atom_site_fract_z
Cu1 Cu 0.65294(7) 0.59063(5) 0.65138(4)
S1 S 0.92558(14) 0.63518(11) 0.69460(9)
N1 N 0.5014(4) 0.5168(3) 0.7890(3)
N2 N 0.2558(4) 0.5052(3) 0.9382(3)
N3 N 0.4504(4) 0.7842(3) 0.6213(3)
N4 N 0.2458(4) 0.9383(3) 0.5316(3)
N5 N 1.2121(5) 0.5263(3) 0.4900(3)
C1 C 0.5722(5) 0.3932(4) 0.8473(3)
C2 C 0.7615(6) 0.2855(4) 0.8230(3)
H1 H 0.8644 0.2910 0.7607
C3 C 0.7920(6) 0.1715(5) 0.8933(4)
H2 H 0.9177 0.0973 0.8786
C4 C 0.6395(7) 0.1635(5) 0.9864(4)
H3 H 0.6655 0.0835 1.0325
C5 C 0.4513(6) 0.2698(4) 1.0128(3)
H4 H 0.3496 0.2650 1.0762
C6 C 0.4216(5) 0.3834(4) 0.9404(3)
C7 C 0.3150(5) 0.5788(4) 0.8461(3)
H5 H 0.2295 0.6660 0.8256
C8 C 0.0567(5) 0.5437(4) 1.0143(3)
H6 H -0.0161 0.6476 1.0100
H7 H 0.0657 0.5251 1.0911
C9 C 0.4105(5) 0.9256(4) 0.6575(3)
C10 C 0.4799(6) 0.9751(4) 0.7331(3)
H8 H 0.5652 0.9107 0.7715
C11 C 0.4170(6) 1.1255(4) 0.7496(3)
H9 H 0.4597 1.1631 0.8010
C12 C 0.2927(6) 1.2209(4) 0.6918(4)
H10 H 0.2549 1.3214 0.7048
C13 C 0.2230(5) 1.1733(4) 0.6160(3)
H11 H 0.1399 1.2384 0.5767
C14 C 0.2822(5) 1.0238(4) 0.6010(3)
C15 C 0.3496(6) 0.7985(4) 0.5478(3)
H12 H 0.3496 0.7191 0.5101
C16 C 0.1066(5) 0.9868(5) 0.4636(3)
H13 H 0.1426 0.9130 0.4050
H14 H 0.1146 1.0767 0.4275
C17 C 1.0948(5) 0.5710(4) 0.5749(3)
Cu1A Cu -0.65294(7) 0.40937(5) 1.34862(4)
Cu1_2 Cu -1.34706(7) 0.59063(5) 1.65138(4)
Cu1A_2 Cu -0.65294(7) 1.40937(5) 0.34862(4)
Cu1A_3 Cu 1.34706(7) 0.40937(5) 0.34862(4)
S1A S -0.92558(14) 0.36482(11) 1.30540(9)
N1A N -0.5014(4) 0.4832(3) 1.2110(3)
N2A N -0.2558(4) 0.4948(3) 1.0618(3)
N3A N -0.4504(4) 1.2158(3) 0.3787(3)
N3A_2 N -0.4504(4) 0.2158(3) 1.3787(3)
N4A N -0.2458(4) 1.0617(3) 0.4684(3)
N5A N -1.2121(5) 0.4737(3) 1.5100(3)
N5_2 N -0.7879(5) 0.5263(3) 1.4900(3)
N5A_2 N 0.7879(5) 0.4737(3) 0.5100(3)
C1A C -0.5722(5) 0.6068(4) 1.1527(3)
C2A C -0.7615(6) 0.7145(4) 1.1770(3)
H1A H -0.8644 0.7090 1.2393
C3A C -0.7920(6) 0.8285(5) 1.1067(4)
H2A H -0.9177 0.9027 1.1214
C4A C -0.6395(7) 0.8365(5) 1.0136(4)
H3A H -0.6655 0.9165 0.9675
C5A C -0.4513(6) 0.7302(4) 0.9872(3)
H4A H -0.3496 0.7350 0.9238
C6A C -0.4216(5) 0.6166(4) 1.0596(3)
C7A C -0.3150(5) 0.4212(4) 1.1539(3)
H5A H -0.2295 0.3340 1.1744
C8A C -0.0567(5) 0.4563(4) 0.9857(3)
H6A H 0.0161 0.3524 0.9900
H7A H -0.0657 0.4749 0.9089
C9A C -0.4105(5) 1.0744(4) 0.3425(3)
C10A C -0.4799(6) 1.0249(4) 0.2669(3)
H8A H -0.5652 1.0893 0.2285
C11A C -0.4170(6) 0.8745(4) 0.2504(3)
H9A H -0.4597 0.8369 0.1990
C12A C -0.2927(6) 0.7791(4) 0.3082(4)
H10A H -0.2549 0.6786 0.2952
C13A C -0.2230(5) 0.8267(4) 0.3840(3)
H11A H -0.1399 0.7616 0.4233
C14A C -0.2822(5) 0.9762(4) 0.3990(3)
C15A C -0.3496(6) 1.2015(4) 0.4522(3)
H12A H -0.3496 1.2809 0.4899
C16A C -0.1066(5) 1.0132(5) 0.5364(3)
H13A H -0.1426 1.0870 0.5950
H14A H -0.1146 0.9233 0.5725
C17A C -1.0948(5) 0.4290(4) 1.4251(3)
loop_
_geom_bond_atom_site_label_1
_geom_bond_atom_site_label_2
_geom_bond_site_symmetry_1
_geom_bond_site_symmetry_2
Cu1 S1 1_555 1_555
S1 C17 1_555 1_555
N1 Cu1 1_555 1_555
N2 C6 1_555 1_555
N3 Cu1 1_555 1_555
N4 C14 1_555 1_555
N5 C17 1_555 1_555
C1 N1 1_555 1_555
C2 C1 1_555 1_555
H1 C2 1_555 1_555
C3 C2 1_555 1_555
H2 C3 1_555 1_555
C4 C3 1_555 1_555
H3 C4 1_555 1_555
C5 C4 1_555 1_555
H4 C5 1_555 1_555
C6 C1 1_555 1_555
C7 N1 1_555 1_555
H5 C7 1_555 1_555
C8 N2 1_555 1_555
H6 C8 1_555 1_555
H7 C8 1_555 1_555
C9 N3 1_555 1_555
C10 C9 1_555 1_555
H8 C10 1_555 1_555
C11 C10 1_555 1_555
H9 C11 1_555 1_555
C12 C11 1_555 1_555
H10 C12 1_555 1_555
C13 C12 1_555 1_555
H11 C13 1_555 1_555
C14 C9 1_555 1_555
C15 N3 1_555 1_555
H12 C15 1_555 1_555
C16 N4 1_555 1_555
H13 C16 1_555 1_555
H14 C16 1_555 1_555
Cu1A S1A 1_555 1_555
Cu1_2 N5A 1_555 1_555
Cu1A_2 N3A 1_555 1_555
Cu1A_3 N5 1_555 1_555
S1A C17A 1_555 1_555
N1A Cu1A 1_555 1_555
N2A C6A 1_555 1_555
N3A C9A 1_555 1_555
N3A_2 Cu1A 1_555 1_555
N4A C14A 1_555 1_555
N5A C17A 1_555 1_555
N5_2 Cu1A 1_555 1_555
N5A_2 Cu1 1_555 1_555
C1A N1A 1_555 1_555
C2A C1A 1_555 1_555
H1A C2A 1_555 1_555
C3A C2A 1_555 1_555
H2A C3A 1_555 1_555
C4A C3A 1_555 1_555
H3A C4A 1_555 1_555
C5A C4A 1_555 1_555
H4A C5A 1_555 1_555
C6A C1A 1_555 1_555
C7A N1A 1_555 1_555
H5A C7A 1_555 1_555
C8A C8 1_555 1_555
H6A C8A 1_555 1_555
H7A C8A 1_555 1_555
C9A C10A 1_555 1_555
C10A H8A 1_555 1_555
C11A C10A 1_555 1_555
H9A C11A 1_555 1_555
C12A C11A 1_555 1_555
H10A C12A 1_555 1_555
C13A C12A 1_555 1_555
H11A C13A 1_555 1_555
C14A C9A 1_555 1_555
C15A N3A 1_555 1_555
H12A C15A 1_555 1_555
C16A C16 1_555 1_555
H13A C16A 1_555 1_555
H14A C16A 1_555 1_555
N2 C7 1_555 1_555
N4 C15 1_555 1_555
C5 C6 1_555 1_555
C13 C14 1_555 1_555
N2A C7A 1_555 1_555
N2A C8A 1_555 1_555
N4A C15A 1_555 1_555
N4A C16A 1_555 1_555
C5A C6A 1_555 1_555
C13A C14A 1_555 1_555

#END
