
#######################################################################
#
#                 Cambridge Crystallographic Data Centre
#                                CCDC 
#
#######################################################################
#
# If this CIF has been generated from an entry in the Cambridge 
# Structural Database, then it will include bibliographic, chemical, 
# crystal, experimental, refinement or atomic coordinate data resulting 
# from the CCDC's data processing and validation procedures.
#
#######################################################################

data_CUYSUL
_symmetry_cell_setting           monoclinic
_symmetry_space_group_name_H-M   'P 21/c'
_symmetry_Int_Tables_number      14
_space_group_name_Hall           '-P 2ybc'
loop_
_symmetry_equiv_pos_site_id
_symmetry_equiv_pos_as_xyz
1 x,y,z
2 -x,1/2+y,1/2-z
3 -x,-y,-z
4 x,1/2-y,1/2+z
_cell_length_a                   5.7858(12)
_cell_length_b                   18.804(4)
_cell_length_c                   10.748(2)
_cell_angle_alpha                90
_cell_angle_beta                 99.40(3)
_cell_angle_gamma                90
_cell_volume                     1153.64
loop_
_atom_site_label
_atom_site_type_symbol
_atom_site_fract_x
_atom_site_fract_y
_atom_site_fract_z
Cu1 Cu 0.09544(11) 0.43249(3) 0.47673(7)
S1 S 0.1986(2) 0.51232(7) 0.66716(13)
N1 N 0.0216(8) 0.3395(2) 0.5509(5)
N2 N 0.0689(8) 0.2254(2) 0.6057(5)
N3 N 0.6177(7) 0.5651(2) 0.6009(4)
C1 C -0.1351(9) 0.3228(3) 0.6317(5)
C2 C -0.2986(9) 0.3646(3) 0.6784(5)
H1 H -0.3199 0.4126 0.6547
C3 C -0.4285(11) 0.3340(3) 0.7600(6)
H2 H -0.5402 0.3614 0.7931
C4 C -0.3966(12) 0.2626(4) 0.7946(7)
H3 H -0.4881 0.2430 0.8507
C5 C -0.2358(11) 0.2200(3) 0.7493(6)
H4 H -0.2149 0.1721 0.7735
C6 C -0.1068(9) 0.2508(3) 0.6669(5)
C7 C 0.1353(10) 0.2803(3) 0.5383(6)
H5 H 0.2519 0.2764 0.4871
C8 C 0.1588(11) 0.1522(3) 0.6090(6)
H6 H 0.1866 0.1355 0.6965
H7 H 0.3094 0.1521 0.5784
C9 C -0.0054(12) 0.1016(3) 0.5305(6)
H8 H -0.0321 0.1180 0.4428
H9 H -0.1564 0.1020 0.5605
C10 C 0.0883(12) 0.0258(3) 0.5354(7)
H10 H 0.2323 0.0246 0.4984
H11 H 0.1275 0.0108 0.6236
C11 C 0.4450(9) 0.5442(2) 0.6271(5)
Cu1B Cu -0.09544(11) 0.56751(3) 0.52327(7)
Cu1B_2 Cu 0.90456(11) 0.56751(3) 0.52327(7)
Cu1B_3 Cu -0.09544(11) -0.43249(3) 0.52327(7)
Cu1_2 Cu -0.90456(11) 0.43249(3) 0.47673(7)
S1B S -0.1986(2) 0.48768(7) 0.33284(13)
N1B N -0.0216(8) -0.3395(2) 0.4491(5)
N1B_2 N -0.0216(8) 0.6605(2) 0.4491(5)
N2B N -0.0689(8) -0.2254(2) 0.3943(5)
N3B N -0.6177(7) 0.4349(2) 0.3991(4)
N3B_2 N 0.3823(7) 0.4349(2) 0.3991(4)
N3_2 N -0.3823(7) 0.5651(2) 0.6009(4)
C1B C 0.1351(9) -0.3228(3) 0.3683(5)
C2B C 0.2986(9) -0.3646(3) 0.3216(5)
H1B H 0.3199 -0.4126 0.3453
C3B C 0.4285(11) -0.3340(3) 0.2400(6)
H2B H 0.5402 -0.3614 0.2069
C4B C 0.3966(12) -0.2626(4) 0.2054(7)
H3B H 0.4881 -0.2430 0.1493
C5B C 0.2358(11) -0.2200(3) 0.2507(6)
H4B H 0.2149 -0.1721 0.2265
C6B C 0.1068(9) -0.2508(3) 0.3331(5)
C7B C -0.1353(10) -0.2803(3) 0.4617(6)
H5B H -0.2519 -0.2764 0.5129
C8B C -0.1588(11) -0.1522(3) 0.3910(6)
H6B H -0.1866 -0.1355 0.3035
H7B H -0.3094 -0.1521 0.4216
C9B C 0.0054(12) -0.1016(3) 0.4695(6)
H8B H 0.0321 -0.1180 0.5572
H9B H 0.1564 -0.1020 0.4395
C10B C -0.0883(12) -0.0258(3) 0.4646(7)
H10B H -0.2323 -0.0246 0.5016
H11B H -0.1275 -0.0108 0.3764
C11B C -0.4450(9) 0.4558(2) 0.3729(5)
loop_
_geom_bond_atom_site_label_1
_geom_bond_atom_site_label_2
_geom_bond_site_symmetry_1
_geom_bond_site_symmetry_2
Cu1 S1 1_555 1_555
S1 C11 1_555 1_555
N1 Cu1 1_555 1_555
N2 C6 1_555 1_555
N3 C11 1_555 1_555
C1 N1 1_555 1_555
C2 C1 1_555 1_555
H1 C2 1_555 1_555
C3 C2 1_555 1_555
H2 C3 1_555 1_555
C4 C3 1_555 1_555
H3 C4 1_555 1_555
C5 C4 1_555 1_555
H4 C5 1_555 1_555
C6 C1 1_555 1_555
C7 N1 1_555 1_555
H5 C7 1_555 1_555
C8 N2 1_555 1_555
H6 C8 1_555 1_555
H7 C8 1_555 1_555
C9 C8 1_555 1_555
H8 C9 1_555 1_555
H9 C9 1_555 1_555
C10 C9 1_555 1_555
H10 C10 1_555 1_555
H11 C10 1_555 1_555
Cu1B S1 1_555 1_555
Cu1B_2 N3 1_555 1_555
Cu1B_3 N1B 1_555 1_555
Cu1_2 N3B 1_555 1_555
S1B Cu1 1_555 1_555
N1B C1B 1_555 1_555
N1B_2 Cu1B 1_555 1_555
N2B C6B 1_555 1_555
N3B C11B 1_555 1_555
N3B_2 Cu1 1_555 1_555
N3_2 Cu1B 1_555 1_555
C1B C2B 1_555 1_555
C2B H1B 1_555 1_555
C3B C2B 1_555 1_555
H2B C3B 1_555 1_555
C4B C3B 1_555 1_555
H3B C4B 1_555 1_555
C5B C4B 1_555 1_555
H4B C5B 1_555 1_555
C6B C1B 1_555 1_555
C7B N1B 1_555 1_555
H5B C7B 1_555 1_555
C8B N2B 1_555 1_555
H6B C8B 1_555 1_555
H7B C8B 1_555 1_555
C9B C8B 1_555 1_555
H8B C9B 1_555 1_555
H9B C9B 1_555 1_555
C10B C10 1_555 1_555
H10B C10B 1_555 1_555
H11B C10B 1_555 1_555
C11B S1B 1_555 1_555
N2 C7 1_555 1_555
C5 C6 1_555 1_555
Cu1B S1B 1_555 1_555
N2B C7B 1_555 1_555
C5B C6B 1_555 1_555
C9B C10B 1_555 1_555

#END
