
#######################################################################
#
#                 Cambridge Crystallographic Data Centre
#                                CCDC 
#
#######################################################################
#
# If this CIF has been generated from an entry in the Cambridge 
# Structural Database, then it will include bibliographic, chemical, 
# crystal, experimental, refinement or atomic coordinate data resulting 
# from the CCDC's data processing and validation procedures.
#
#######################################################################

data_CUYTOG
_symmetry_cell_setting           monoclinic
_symmetry_space_group_name_H-M   'P 21/n'
_symmetry_Int_Tables_number      14
_space_group_name_Hall           '-P 2yn'
loop_
_symmetry_equiv_pos_site_id
_symmetry_equiv_pos_as_xyz
1 x,y,z
2 1/2-x,1/2+y,1/2-z
3 -x,-y,-z
4 1/2+x,1/2-y,1/2+z
_cell_length_a                   9.615(2)
_cell_length_b                   18.555(3)
_cell_length_c                   11.988(3)
_cell_angle_alpha                90
_cell_angle_beta                 108.24(2)
_cell_angle_gamma                90
_cell_volume                     2031.27
loop_
_atom_site_label
_atom_site_type_symbol
_atom_site_fract_x
_atom_site_fract_y
_atom_site_fract_z
Co1 Co 0.34431(4) 0.24079(2) 0.79081(3)
C1 C 0.8506(3) -0.02800(16) 0.8143(3)
H1 H 0.8694 0.0005 0.7528
H2 H 0.8726 0.0020 0.8840
C2 C 0.9913(4) -0.13156(17) 0.9375(3)
H3 H 0.9663 -0.1255 1.0058
C3 C 1.0752(4) -0.18395(18) 0.9152(3)
H4 H 1.1189 -0.2207 0.9671
C4 C 1.0108(3) -0.11775(17) 0.7623(3)
H5 H 0.9998 -0.0989 0.6882
C5 C 0.6853(3) -0.04720(16) 0.7756(2)
C6 C 0.6687(3) -0.12616(16) 0.7357(3)
H6 H 0.7240 -0.1334 0.6815
H7 H 0.7122 -0.1564 0.8037
C7 C 0.4254(4) -0.1757(2) 0.7321(3)
H8 H 0.4452 -0.1786 0.8131
C8 C 0.4530(4) -0.15582(19) 0.5633(3)
H9 H 0.4912 -0.1433 0.5037
C9 C 0.3203(4) -0.18293(19) 0.5503(3)
H10 H 0.2495 -0.1917 0.4785
C10 C 0.6165(3) -0.03093(17) 0.8733(3)
H11 H 0.6217 0.0206 0.8873
H12 H 0.5137 -0.0440 0.8446
C11 C 0.6518(4) -0.13291(18) 1.0162(3)
H13 H 0.5879 -0.1647 0.9651
C12 C 0.7769(4) -0.03725(19) 1.0826(3)
H14 H 0.8174 0.0087 1.0897
C13 C 0.8006(4) -0.08755(18) 1.1673(3)
H15 H 0.8627 -0.0821 1.2438
C14 C 0.6417(4) 0.18467(17) 0.7674(3)
H16 H 0.6908 0.2272 0.7966
C15 C 0.7033(4) 0.12575(17) 0.7368(3)
H17 H 0.8008 0.1203 0.7406
C16 C 0.4729(3) 0.10688(16) 0.7079(3)
H18 H 0.3821 0.0843 0.6870
C17 C 0.6055(3) -0.00009(15) 0.6696(3)
H19 H 0.6567 -0.0033 0.6118
H20 H 0.5075 -0.0190 0.6340
N1 N 0.9501(3) -0.08892(13) 0.8395(2)
N2 N 1.0870(3) -0.17551(14) 0.8046(2)
N3 N 0.5208(3) -0.15006(14) 0.6800(2)
N4 N 0.3032(3) -0.19587(14) 0.6566(2)
N5 N 0.6820(3) -0.06694(14) 0.9844(2)
N6 N 0.7199(3) -0.14799(14) 1.1243(2)
N7 N 0.4963(3) 0.17243(14) 0.7489(2)
N8 N 0.5949(3) 0.07583(13) 0.6993(2)
O1 O 0.1710(2) 0.21202(13) 0.64186(18)
O2 O 0.2250(3) 0.17475(14) 0.4693(2)
O3 O 0.0388(3) 0.11500(13) 0.5276(2)
S1 S 0.10959(8) 0.18381(4) 0.52342(6)
O4 O 0.0017(2) 0.23629(12) 0.45659(18)
Co1B Co 0.65569(4) -0.24079(2) 1.20919(3)
Co1A Co 0.15569(4) -0.25921(2) 0.70919(3)
Co1A_2 Co 1.15569(4) -0.25921(2) 0.70919(3)
Co1A_3 Co 1.15569(4) -0.25921(2) 1.70919(3)
Co1C Co -0.15569(4) 0.25921(2) 0.29081(3)
Co1C_2 Co -0.15569(4) 0.25921(2) 1.29081(3)
Co1C_3 Co 0.84431(4) 0.25921(2) 1.29081(3)
C1B C 0.1494(3) 0.02800(16) 1.1857(3)
H1B H 0.1306 -0.0005 1.2472
H2B H 0.1274 -0.0020 1.1160
C2B C 0.0087(4) 0.13156(17) 1.0625(3)
H3B H 0.0337 0.1255 0.9942
C3B C -0.0752(4) 0.18395(18) 1.0848(3)
H4B H -0.1189 0.2207 1.0329
C4B C -0.0108(3) 0.11775(17) 1.2377(3)
H5B H 0.0002 0.0989 1.3118
C5B C 0.3147(3) 0.04720(16) 1.2244(2)
C6B C 0.3313(3) 0.12616(16) 1.2643(3)
H6B H 0.2760 0.1334 1.3185
H7B H 0.2878 0.1564 1.1963
C7B C 0.5746(4) 0.1757(2) 1.2679(3)
H8B H 0.5548 0.1786 1.1869
C8B C 0.5470(4) 0.15582(19) 1.4367(3)
H9B H 0.5088 0.1433 1.4963
C9B C 0.6797(4) 0.18293(19) 1.4497(3)
H10B H 0.7505 0.1917 1.5215
C10B C 0.3835(3) 0.03093(17) 1.1267(3)
H11B H 0.3783 -0.0206 1.1127
H12B H 0.4863 0.0440 1.1554
C11B C 0.3482(4) 0.13291(18) 0.9838(3)
H13B H 0.4121 0.1647 1.0349
C12B C 0.2231(4) 0.03725(19) 0.9174(3)
H14B H 0.1826 -0.0087 0.9103
C13B C 0.1994(4) 0.08755(18) 0.8327(3)
H15B H 0.1373 0.0821 0.7562
C14B C 0.3583(4) -0.18467(17) 1.2326(3)
H16B H 0.3092 -0.2272 1.2034
C15B C 0.2967(4) -0.12575(17) 1.2632(3)
H17B H 0.1992 -0.1203 1.2594
C16B C 0.5271(3) -0.10688(16) 1.2921(3)
H18B H 0.6179 -0.0843 1.3130
C17B C 0.3945(3) 0.00009(15) 1.3304(3)
H19B H 0.3433 0.0033 1.3882
H20B H 0.4925 0.0190 1.3660
N1B N 0.0499(3) 0.08892(13) 1.1605(2)
N2B N -0.0870(3) 0.17551(14) 1.1954(2)
N2A N 0.4130(3) 0.32449(14) 0.6954(2)
N2C N 0.5870(3) -0.32449(14) 1.3046(2)
N3B N 0.4792(3) 0.15006(14) 1.3200(2)
N4B N 0.6968(3) 0.19587(14) 1.3434(2)
N4A N 0.1968(3) 0.30413(14) 0.8434(2)
N4C N 0.8032(3) -0.30413(14) 1.1566(2)
N5B N 0.3180(3) 0.06694(14) 1.0156(2)
N6B N 0.2801(3) 0.14799(14) 0.8757(2)
N7B N 0.5037(3) -0.17243(14) 1.2511(2)
N8B N 0.4051(3) -0.07583(13) 1.3007(2)
O1B O 0.8290(2) -0.21202(13) 1.35814(18)
O2B O 0.7750(3) -0.17475(14) 1.5307(2)
O3B O 0.9612(3) -0.11500(13) 1.4724(2)
S1B S 0.89041(8) -0.18381(4) 1.47658(6)
O4B O 0.9983(2) -0.23629(12) 1.54341(18)
O4A O 0.4983(2) -0.26371(12) 1.04341(18)
O4C O 0.5017(2) 0.26371(12) 0.95659(18)
O5 O 0.1951(5) -0.0097(2) 0.5102(6)
H21 H 0.154(8) 0.028(3) 0.524(8)
H22 H 0.133(7) -0.040(4) 0.469(7)
O6 O 0.3582(14) -0.1168(7) 0.9759(11)
H23 H 0.395(11) -0.151(4) 0.945(9)
loop_
_geom_bond_atom_site_label_1
_geom_bond_atom_site_label_2
_geom_bond_site_symmetry_1
_geom_bond_site_symmetry_2
Co1 N7 1_555 1_555
C1 H1 1_555 1_555
H2 C1 1_555 1_555
C2 H3 1_555 1_555
C3 C2 1_555 1_555
H4 C3 1_555 1_555
C4 H5 1_555 1_555
C5 C1 1_555 1_555
C6 C5 1_555 1_555
H6 C6 1_555 1_555
H7 C6 1_555 1_555
C7 H8 1_555 1_555
C8 H9 1_555 1_555
C9 C8 1_555 1_555
H10 C9 1_555 1_555
C10 C5 1_555 1_555
H11 C10 1_555 1_555
H12 C10 1_555 1_555
C11 H13 1_555 1_555
C12 H14 1_555 1_555
C13 C12 1_555 1_555
H15 C13 1_555 1_555
C14 H16 1_555 1_555
C15 C14 1_555 1_555
H17 C15 1_555 1_555
C16 H18 1_555 1_555
C17 C5 1_555 1_555
H19 C17 1_555 1_555
H20 C17 1_555 1_555
N1 C1 1_555 1_555
N2 C3 1_555 1_555
N3 C6 1_555 1_555
N4 C7 1_555 1_555
N5 C10 1_555 1_555
N6 C11 1_555 1_555
N7 C14 1_555 1_555
N8 C15 1_555 1_555
O1 Co1 1_555 1_555
O2 S1 1_555 1_555
O3 S1 1_555 1_555
S1 O1 1_555 1_555
O4 S1 1_555 1_555
O5 H21 1_555 1_555
H22 O5 1_555 1_555
O6 H23 1_555 1_555
Co1B N6 1_555 1_555
Co1A N4 1_555 1_555
Co1A_2 N2 1_555 1_555
Co1A_3 O4B 1_555 1_555
Co1C O4 1_555 1_555
Co1C_2 N2B 1_555 1_555
Co1C_3 N4B 1_555 1_555
C1B H1B 1_555 1_555
H2B C1B 1_555 1_555
C2B H3B 1_555 1_555
C3B C2B 1_555 1_555
H4B C3B 1_555 1_555
C4B H5B 1_555 1_555
C5B C1B 1_555 1_555
C6B C5B 1_555 1_555
H6B C6B 1_555 1_555
H7B C6B 1_555 1_555
C7B H8B 1_555 1_555
C8B H9B 1_555 1_555
C9B C8B 1_555 1_555
H10B C9B 1_555 1_555
C10B C5B 1_555 1_555
H11B C10B 1_555 1_555
H12B C10B 1_555 1_555
C11B H13B 1_555 1_555
C12B H14B 1_555 1_555
C13B C12B 1_555 1_555
H15B C13B 1_555 1_555
C14B H16B 1_555 1_555
C15B C14B 1_555 1_555
H17B C15B 1_555 1_555
C16B H18B 1_555 1_555
C17B C5B 1_555 1_555
H19B C17B 1_555 1_555
H20B C17B 1_555 1_555
N1B C1B 1_555 1_555
N2B C3B 1_555 1_555
N2A Co1 1_555 1_555
N2C Co1B 1_555 1_555
N3B C6B 1_555 1_555
N4B C7B 1_555 1_555
N4A Co1 1_555 1_555
N4C Co1B 1_555 1_555
N5B C10B 1_555 1_555
N6B Co1 1_555 1_555
N7B Co1B 1_555 1_555
N8B C15B 1_555 1_555
O1B Co1B 1_555 1_555
O2B S1B 1_555 1_555
O3B S1B 1_555 1_555
S1B O1B 1_555 1_555
O4B S1B 1_555 1_555
O4A Co1B 1_555 1_555
O4C Co1 1_555 1_555
C2 N1 1_555 1_555
C4 N1 1_555 1_555
C4 N2 1_555 1_555
C7 N3 1_555 1_555
C8 N3 1_555 1_555
C9 N4 1_555 1_555
C11 N5 1_555 1_555
C12 N5 1_555 1_555
C13 N6 1_555 1_555
C16 N7 1_555 1_555
C16 N8 1_555 1_555
C17 N8 1_555 1_555
C2B N1B 1_555 1_555
C4B N1B 1_555 1_555
C4B N2B 1_555 1_555
C7B N3B 1_555 1_555
C8B N3B 1_555 1_555
C9B N4B 1_555 1_555
C11B N5B 1_555 1_555
C11B N6B 1_555 1_555
C12B N5B 1_555 1_555
C13B N6B 1_555 1_555
C14B N7B 1_555 1_555
C16B N7B 1_555 1_555
C16B N8B 1_555 1_555
C17B N8B 1_555 1_555

#END
