
#######################################################################
#
#                 Cambridge Crystallographic Data Centre
#                                CCDC 
#
#######################################################################
#
# If this CIF has been generated from an entry in the Cambridge 
# Structural Database, then it will include bibliographic, chemical, 
# crystal, experimental, refinement or atomic coordinate data resulting 
# from the CCDC's data processing and validation procedures.
#
#######################################################################

data_CUYTUM
_symmetry_cell_setting           monoclinic
_symmetry_space_group_name_H-M   'C 2/c'
_symmetry_Int_Tables_number      15
_space_group_name_Hall           '-C 2yn'
loop_
_symmetry_equiv_pos_site_id
_symmetry_equiv_pos_as_xyz
1 x,y,z
2 -x,y,1/2-z
3 1/2+x,1/2+y,z
4 1/2-x,1/2+y,1/2-z
5 -x,-y,-z
6 x,-y,1/2+z
7 1/2-x,1/2-y,-z
8 1/2+x,1/2-y,1/2+z
_cell_length_a                   19.475(5)
_cell_length_b                   10.366(5)
_cell_length_c                   34.917(5)
_cell_angle_alpha                90
_cell_angle_beta                 93.941(5)
_cell_angle_gamma                90
_cell_volume                     7032.3
loop_
_atom_site_label
_atom_site_type_symbol
_atom_site_fract_x
_atom_site_fract_y
_atom_site_fract_z
Zn1 Zn 0.21948(3) 0.81055(6) 0.206917(15)
Zn2 Zn -0.16169(3) 0.24684(6) 0.037449(17)
C1 C -0.0752(2) 0.4456(4) 0.07849(13)
H1 H -0.0718 0.4919 0.0559
C2 C -0.0949(3) 0.2950(5) 0.11835(15)
H2 H -0.1086 0.2164 0.1282
C3 C -0.0670(3) 0.3929(5) 0.13919(13)
H3 H -0.0575 0.3948 0.1657
C4 C -0.0258(2) 0.6178(4) 0.12269(13)
H4 H 0.0076 0.6374 0.1042
H5 H -0.0012 0.6131 0.1478
C5 C -0.07751(19) 0.7307(4) 0.12302(11)
C6 C -0.0350(2) 0.8564(4) 0.13015(12)
H6 H -0.0115 0.8746 0.1071
H7 H -0.0670 0.9266 0.1334
C7 C 0.0828(2) 0.8292(4) 0.16190(12)
H8 H 0.1020 0.7937 0.1406
C8 C 0.0094(3) 0.9138(11) 0.1973(2)
H9 H -0.0308 0.9480 0.2060
C9 C 0.0724(3) 0.9099(10) 0.21675(18)
H10 H 0.0825 0.9398 0.2416
C10 C -0.1295(2) 0.7207(4) 0.15416(12)
H11 H -0.1038 0.7211 0.1790
H12 H -0.1576 0.7980 0.1528
C11 C -0.2174(2) 0.5597(5) 0.12250(13)
H13 H -0.2206 0.5900 0.0974
C12 C -0.1885(2) 0.5353(5) 0.18396(12)
H14 H -0.1677 0.5468 0.2085
C13 C -0.2518(2) 0.4609(5) 0.13617(14)
H15 H -0.2831 0.4098 0.1218
C14 C -0.1110(2) 0.7496(4) 0.08173(11)
H16 H -0.0750 0.7497 0.0639
H17 H -0.1408 0.6765 0.0754
C15 C -0.2172(2) 0.8941(5) 0.08633(15)
H18 H -0.2462 0.8385 0.0986
C16 C -0.2313(2) 1.0170(5) 0.07476(15)
H19 H -0.2725 1.0603 0.0777
C17 C -0.1291(2) 0.9745(4) 0.05948(11)
H20 H -0.0860 0.9823 0.0498
C18 C -0.2491(2) 0.4441(5) 0.03025(13)
C19 C -0.3144(2) 0.5214(5) 0.03070(12)
C20 C -0.3783(2) 0.4654(5) 0.03479(13)
C21 C -0.4348(3) 0.5518(9) 0.03418(17)
H21 H -0.4785 0.5194 0.0377
C22 C -0.4269(5) 0.6843(8) 0.02847(19)
H22 H -0.4651 0.7382 0.0273
C23 C -0.3644(4) 0.7335(7) 0.02473(19)
H23 H -0.3590 0.8217 0.0212
C24 C -0.3093(3) 0.6548(5) 0.02617(15)
H24 H -0.2660 0.6908 0.0241
C25 C -0.3915(4) 0.3220(7) 0.03785(17)
C26 C 0.3122(2) 1.0718(5) 0.30911(15)
C27 C 0.3326(2) 0.9483(4) 0.32919(13)
C28 C 0.3250(3) 0.8320(5) 0.31053(14)
C29 C 0.3518(3) 0.7202(5) 0.32777(18)
H25 H 0.3470 0.6415 0.3151
C30 C 0.3857(3) 0.7267(6) 0.3641(2)
H26 H 0.4035 0.6521 0.3758
C31 C 0.3930(3) 0.8422(6) 0.38266(15)
H27 H 0.4160 0.8465 0.4069
C32 C 0.3662(2) 0.9524(5) 0.36541(13)
H28 H 0.3708 1.0308 0.3783
C33 C 0.2864(5) 0.8211(6) 0.27141(17)
O1 O -0.2527(2) 0.3254(4) 0.03656(12)
O2 O -0.19523(19) 0.5005(5) 0.02393(14)
O3 O -0.4243(5) 0.2939(8) 0.0646(2)
O4 O -0.3927(2) 0.2568(4) 0.00698(12)
O5 O 0.2283(3) 0.8621(5) 0.26610(14)
O6 O 0.3288(6) 0.7611(10) 0.2434(3)
O7 O 0.28142(19) 1.1549(4) 0.32761(13)
O8 O 0.3298(2) 1.0904(4) 0.27588(11)
N1 N -0.1003(2) 0.3288(3) 0.08014(11)
N2 N -0.05519(17) 0.4902(3) 0.11353(10)
N3 N 0.01663(16) 0.8586(4) 0.16301(10)
N4 N 0.11777(17) 0.8558(4) 0.19427(10)
N5 N -0.17573(17) 0.6090(4) 0.15293(10)
N6 N -0.23439(19) 0.4456(4) 0.17434(11)
N7 N -0.15133(16) 0.8683(3) 0.07630(9)
N8 N -0.17570(17) 1.0671(3) 0.05821(10)
Zn1C Zn 0.28052(3) 1.31055(6) 0.293083(15)
Zn1B Zn -0.28052(3) 0.31055(6) 0.206917(15)
Zn2F Zn -0.33831(3) 0.25316(6) -0.037449(17)
Zn2_2 Zn -0.16169(3) 1.24684(6) 0.037449(17)
O4F O -0.1073(2) 0.2432(4) -0.00698(12)
O7C O 0.21858(19) 0.6549(4) 0.17239(13)
N6B N 0.26561(19) 0.9456(4) 0.17434(11)
N8_2 N -0.17570(17) 0.0671(3) 0.05821(10)
O9 O -0.4182(6) 1.0219(11) 0.0371(3)
O10 O 0.0160(8) 0.5919(16) 0.2142(4)
O11 O 0.0586(11) 0.230(2) 0.2733(7)
O13 O -0.1434(3) 1.0333(9) 0.1851(3)
H29 H -0.150(8) 1.052(17) 0.1615(13)
H30 H -0.179(5) 1.050(15) 0.197(4)
O12? O 0.0000 0.315(14) 0.2500
O14? O -0.4665(8) 1.0231(14) 0.0230(4)
O15? O -0.3923(5) 0.2664(9) 0.0721(3)
O16? O 0.0269(10) 0.505(3) 0.2172(6)
O17? O -0.8016(7) -0.2741(11) -0.2472(4)
loop_
_geom_bond_atom_site_label_1
_geom_bond_atom_site_label_2
_geom_bond_site_symmetry_1
_geom_bond_site_symmetry_2
Zn1 O5 1_555 1_555
Zn2 O1 1_555 1_555
C1 H1 1_555 1_555
C2 H2 1_555 1_555
C3 C2 1_555 1_555
H3 C3 1_555 1_555
C4 H4 1_555 1_555
H5 C4 1_555 1_555
C5 C4 1_555 1_555
C6 C5 1_555 1_555
H6 C6 1_555 1_555
H7 C6 1_555 1_555
C7 H8 1_555 1_555
C8 H9 1_555 1_555
C9 C8 1_555 1_555
H10 C9 1_555 1_555
C10 C5 1_555 1_555
H11 C10 1_555 1_555
H12 C10 1_555 1_555
C11 H13 1_555 1_555
C12 H14 1_555 1_555
C13 C11 1_555 1_555
H15 C13 1_555 1_555
C14 C5 1_555 1_555
H16 C14 1_555 1_555
H17 C14 1_555 1_555
C15 H18 1_555 1_555
C16 C15 1_555 1_555
H19 C16 1_555 1_555
C17 H20 1_555 1_555
C18 C19 1_555 1_555
C19 C20 1_555 1_555
C20 C21 1_555 1_555
C21 H21 1_555 1_555
C22 C21 1_555 1_555
H22 C22 1_555 1_555
C23 C22 1_555 1_555
H23 C23 1_555 1_555
C24 C19 1_555 1_555
H24 C24 1_555 1_555
C25 C20 1_555 1_555
C26 C27 1_555 1_555
C27 C28 1_555 1_555
C28 C29 1_555 1_555
C29 H25 1_555 1_555
C30 C29 1_555 1_555
H26 C30 1_555 1_555
C31 C30 1_555 1_555
H27 C31 1_555 1_555
C32 C27 1_555 1_555
H28 C32 1_555 1_555
C33 C28 1_555 1_555
O1 C18 1_555 1_555
O2 C18 1_555 1_555
O3 C25 1_555 1_555
O4 C25 1_555 1_555
O5 C33 1_555 1_555
O6 Zn1 1_555 1_555
O7 C26 1_555 1_555
O8 C26 1_555 1_555
N1 Zn2 1_555 1_555
N2 C1 1_555 1_555
N3 C6 1_555 1_555
N4 Zn1 1_555 1_555
N5 C10 1_555 1_555
N6 C12 1_555 1_555
N7 C14 1_555 1_555
N8 C16 1_555 1_555
O13 H29 1_555 1_555
H30 O13 1_555 1_555
Zn1C O7 1_555 1_555
Zn1B N6 1_555 1_555
Zn2F O4 1_555 1_555
Zn2_2 N8 1_555 1_555
O4F Zn2 1_555 1_555
O7C Zn1 1_555 1_555
N6B Zn1 1_555 1_555
N8_2 Zn2 1_555 1_555
C1 N1 1_555 1_555
C2 N1 1_555 1_555
C3 N2 1_555 1_555
C4 N2 1_555 1_555
C7 N3 1_555 1_555
C7 N4 1_555 1_555
C8 N3 1_555 1_555
C9 N4 1_555 1_555
C11 N5 1_555 1_555
C12 N5 1_555 1_555
C13 N6 1_555 1_555
C15 N7 1_555 1_555
C17 N7 1_555 1_555
C17 N8 1_555 1_555
C23 C24 1_555 1_555
C31 C32 1_555 1_555
C33 O6 1_555 1_555

#END
