
#######################################################################
#
#                 Cambridge Crystallographic Data Centre
#                                CCDC 
#
#######################################################################
#
# If this CIF has been generated from an entry in the Cambridge 
# Structural Database, then it will include bibliographic, chemical, 
# crystal, experimental, refinement or atomic coordinate data resulting 
# from the CCDC's data processing and validation procedures.
#
#######################################################################

data_CUYTEW
_symmetry_cell_setting           triclinic
_symmetry_space_group_name_H-M   'P -1'
_symmetry_Int_Tables_number      2
_space_group_name_Hall           '-P 1'
loop_
_symmetry_equiv_pos_site_id
_symmetry_equiv_pos_as_xyz
1 x,y,z
2 -x,-y,-z
_cell_length_a                   9.7226(19)
_cell_length_b                   9.750(2)
_cell_length_c                   12.448(3)
_cell_angle_alpha                100.75(3)
_cell_angle_beta                 98.54(3)
_cell_angle_gamma                119.04(3)
_cell_volume                     973.516
loop_
_atom_site_label
_atom_site_type_symbol
_atom_site_fract_x
_atom_site_fract_y
_atom_site_fract_z
Cu1 Cu 0.39568(5) 0.04793(5) 0.31580(3)
S1 S 0.34412(10) -0.22695(10) 0.29738(6)
N1 N 0.4511(3) 0.1063(3) 0.1745(2)
N2 N 0.4246(3) 0.1359(3) -0.0002(2)
N3 N 0.0992(3) 0.1169(3) -0.2951(2)
N4 N -0.1723(3) -0.0159(3) -0.3225(2)
N5 N 0.4495(4) -0.1832(3) 0.5308(2)
C1 C 0.6036(4) 0.2223(4) 0.1668(2)
C2 C 0.7554(4) 0.3099(4) 0.2480(3)
H1 H 0.7660 0.2965 0.3210
C3 C 0.8890(4) 0.4161(4) 0.2181(3)
H2 H 0.9929 0.4762 0.2712
C4 C 0.8727(4) 0.4363(4) 0.1093(3)
H3 H 0.9664 0.5104 0.0914
C5 C 0.7229(4) 0.3506(4) 0.0274(3)
H4 H 0.7123 0.3648 -0.0454
C6 C 0.5897(4) 0.2430(4) 0.0588(2)
C7 C 0.3499(4) 0.0591(4) 0.0727(2)
H5 H 0.2373 -0.0200 0.0531
C8 C 0.3465(4) 0.1147(4) -0.1171(2)
H6 H 0.2344 0.0189 -0.1416
H7 H 0.4069 0.0940 -0.1678
C9 C 0.3425(4) 0.2655(4) -0.1267(3)
H8 H 0.4542 0.3620 -0.0981
H9 H 0.2776 0.2827 -0.0787
C10 C 0.2696(4) 0.2503(4) -0.2490(3)
H10 H 0.2776 0.3539 -0.2511
H11 H 0.3338 0.2319 -0.2971
C11 C 0.0360(4) -0.0377(4) -0.3702(2)
C12 C 0.1097(5) -0.1107(5) -0.4243(3)
H12 H 0.2235 -0.0544 -0.4136
C13 C 0.0078(5) -0.2686(5) -0.4937(3)
H13 H 0.0532 -0.3222 -0.5316
C14 C -0.1620(5) -0.3533(5) -0.5103(3)
H14 H -0.2273 -0.4629 -0.5571
C15 C -0.2354(5) -0.2785(4) -0.4589(3)
H15 H -0.3497 -0.3336 -0.4724
C16 C -0.1335(4) -0.1193(4) -0.3869(2)
C17 C -0.0310(4) 0.1197(4) -0.2710(3)
H16 H -0.0204 0.2118 -0.2214
C18 C 0.4058(4) -0.2021(4) 0.4353(3)
Cu1A Cu -0.39568(5) -0.04793(5) -0.31580(3)
Cu1A_2 Cu 0.60432(5) -0.04793(5) 0.68420(3)
N4A N 0.1723(3) 0.0159(3) 0.3225(2)
N5A N 0.5505(4) 0.1832(3) 0.4692(2)
N6 N 0.0532(7) 0.2072(8) 0.0524(6)
C19 C 0.3162(7) 0.3749(5) 0.2136(4)
H17 H 0.4073 0.4242 0.1813
H18 H 0.3293 0.3048 0.2546
H19 H 0.3138 0.4608 0.2654
C20 C 0.1675(7) 0.2798(6) 0.1249(5)
loop_
_geom_bond_atom_site_label_1
_geom_bond_atom_site_label_2
_geom_bond_site_symmetry_1
_geom_bond_site_symmetry_2
Cu1 S1 1_555 1_555
S1 C18 1_555 1_555
N1 Cu1 1_555 1_555
N2 C6 1_555 1_555
N3 C10 1_555 1_555
N4 C16 1_555 1_555
N5 C18 1_555 1_555
N6 C20 1_555 1_555
C1 N1 1_555 1_555
C2 C1 1_555 1_555
H1 C2 1_555 1_555
C3 C2 1_555 1_555
H2 C3 1_555 1_555
C4 C3 1_555 1_555
H3 C4 1_555 1_555
C5 C4 1_555 1_555
H4 C5 1_555 1_555
C6 C1 1_555 1_555
C7 N1 1_555 1_555
H5 C7 1_555 1_555
C8 N2 1_555 1_555
H6 C8 1_555 1_555
H7 C8 1_555 1_555
C9 C8 1_555 1_555
H8 C9 1_555 1_555
H9 C9 1_555 1_555
C10 C9 1_555 1_555
H10 C10 1_555 1_555
H11 C10 1_555 1_555
C11 N3 1_555 1_555
C12 C11 1_555 1_555
H12 C12 1_555 1_555
C13 C12 1_555 1_555
H13 C13 1_555 1_555
C14 C13 1_555 1_555
H14 C14 1_555 1_555
C15 C14 1_555 1_555
H15 C15 1_555 1_555
C16 C11 1_555 1_555
C17 N3 1_555 1_555
H16 C17 1_555 1_555
C19 H17 1_555 1_555
H18 C19 1_555 1_555
H19 C19 1_555 1_555
C20 C19 1_555 1_555
Cu1A N4 1_555 1_555
Cu1A_2 N5 1_555 1_555
N4A Cu1 1_555 1_555
N5A Cu1 1_555 1_555
N2 C7 1_555 1_555
N4 C17 1_555 1_555
C5 C6 1_555 1_555
C15 C16 1_555 1_555

#END
