
#######################################################################
#
#                 Cambridge Crystallographic Data Centre
#                                CCDC 
#
#######################################################################
#
# If this CIF has been generated from an entry in the Cambridge 
# Structural Database, then it will include bibliographic, chemical, 
# crystal, experimental, refinement or atomic coordinate data resulting 
# from the CCDC's data processing and validation procedures.
#
#######################################################################

data_CUYTAS
_symmetry_cell_setting           monoclinic
_symmetry_space_group_name_H-M   'C 2/c'
_symmetry_Int_Tables_number      15
_space_group_name_Hall           '-C 2yn'
loop_
_symmetry_equiv_pos_site_id
_symmetry_equiv_pos_as_xyz
1 x,y,z
2 -x,y,1/2-z
3 1/2+x,1/2+y,z
4 1/2-x,1/2+y,1/2-z
5 -x,-y,-z
6 x,-y,1/2+z
7 1/2-x,1/2-y,-z
8 1/2+x,1/2-y,1/2+z
_cell_length_a                   18.113(4)
_cell_length_b                   5.6189(11)
_cell_length_c                   18.304(4)
_cell_angle_alpha                90
_cell_angle_beta                 107.29(3)
_cell_angle_gamma                90
_cell_volume                     1778.71
loop_
_atom_site_label
_atom_site_type_symbol
_atom_site_fract_x
_atom_site_fract_y
_atom_site_fract_z
Cu1 Cu 0.07062(2) 0.41243(6) 0.066480(19)
S1 S 0.09243(4) 0.65807(12) -0.03316(4)
N1 N 0.07695(12) 0.6116(4) 0.15570(11)
N2 N 0.05334(12) 0.9153(4) 0.22488(11)
N3 N 0.09043(12) 1.1029(4) 0.03584(12)
C1 C 0.12942(14) 0.6000(4) 0.22954(14)
C2 C 0.18690(15) 0.4341(4) 0.26103(15)
H1 H 0.1966 0.3063 0.2320
C3 C 0.22936(16) 0.4648(5) 0.33697(15)
H2 H 0.2680 0.3537 0.3603
C4 C 0.21601(16) 0.6569(6) 0.37949(15)
H3 H 0.2470 0.6742 0.4305
C5 C 0.15885(15) 0.8227(5) 0.34931(14)
H4 H 0.1499 0.9519 0.3782
C6 C 0.11503(14) 0.7872(4) 0.27323(13)
C7 C 0.03375(15) 0.7983(5) 0.15648(14)
H5 H -0.0069 0.8471 0.1139
C8 C 0.0000 1.0646(6) 0.2500
H6 H -0.0289 1.1668 0.2078
C9 C 0.09165(14) 0.9193(4) 0.00785(14)
Cu1D Cu -0.07062(2) 0.58757(6) -0.066480(19)
Cu1_2 Cu 0.07062(2) 1.41243(6) 0.066480(19)
Cu1A Cu -0.07062(2) 0.41243(6) 0.433520(19)
Cu1D_2 Cu -0.07062(2) -0.41243(6) -0.066480(19)
S1D S -0.09243(4) 0.34193(12) 0.03316(4)
N1A N -0.07695(12) 0.6116(4) 0.34430(11)
N1D N -0.07695(12) 0.3884(4) -0.15570(11)
N2A N -0.05334(12) 0.9153(4) 0.27512(11)
N3D N -0.09043(12) -0.1029(4) -0.03584(12)
N3_2 N 0.09043(12) 0.1029(4) 0.03584(12)
N3D_2 N -0.09043(12) 0.8971(4) -0.03584(12)
C1A C -0.12942(14) 0.6000(4) 0.27046(14)
C2A C -0.18690(15) 0.4341(4) 0.23897(15)
H1A H -0.1966 0.3063 0.2680
C3A C -0.22936(16) 0.4648(5) 0.16303(15)
H2A H -0.2680 0.3537 0.1397
C4A C -0.21601(16) 0.6569(6) 0.12051(15)
H3A H -0.2470 0.6742 0.0695
C5A C -0.15885(15) 0.8227(5) 0.15069(14)
H4A H -0.1499 0.9519 0.1218
C6A C -0.11503(14) 0.7872(4) 0.22677(13)
C7A C -0.03375(15) 0.7983(5) 0.34352(14)
H5A H 0.0069 0.8471 0.3861
H6A H 0.0289 1.1668 0.2922
C9D C -0.09165(14) 0.0807(4) -0.00785(14)
loop_
_geom_bond_atom_site_label_1
_geom_bond_atom_site_label_2
_geom_bond_site_symmetry_1
_geom_bond_site_symmetry_2
Cu1 S1 1_555 1_555
S1 C9 1_555 1_555
N1 Cu1 1_555 1_555
N2 C6 1_555 1_555
N3 C9 1_555 1_555
C1 N1 1_555 1_555
C2 C1 1_555 1_555
H1 C2 1_555 1_555
C3 C2 1_555 1_555
H2 C3 1_555 1_555
C4 C3 1_555 1_555
H3 C4 1_555 1_555
C5 C4 1_555 1_555
H4 C5 1_555 1_555
C6 C1 1_555 1_555
C7 N1 1_555 1_555
H5 C7 1_555 1_555
C8 N2 1_555 1_555
H6 C8 1_555 1_555
Cu1D S1 1_555 1_555
Cu1_2 N3 1_555 1_555
Cu1A N1A 1_555 1_555
Cu1D_2 N3D 1_555 1_555
S1D Cu1 1_555 1_555
N1A C1A 1_555 1_555
N1D Cu1D 1_555 1_555
N2A C8 1_555 1_555
N3D C9D 1_555 1_555
N3_2 Cu1 1_555 1_555
N3D_2 Cu1D 1_555 1_555
C1A C2A 1_555 1_555
C2A H1A 1_555 1_555
C3A C2A 1_555 1_555
H2A C3A 1_555 1_555
C4A C3A 1_555 1_555
H3A C4A 1_555 1_555
C5A C4A 1_555 1_555
H4A C5A 1_555 1_555
C6A N2A 1_555 1_555
C7A N1A 1_555 1_555
H5A C7A 1_555 1_555
H6A C8 1_555 1_555
C9D S1D 1_555 1_555
N2 C7 1_555 1_555
C5 C6 1_555 1_555
Cu1D S1D 1_555 1_555
N2A C7A 1_555 1_555
C1A C6A 1_555 1_555
C5A C6A 1_555 1_555

#END
