
#######################################################################
#
#                 Cambridge Crystallographic Data Centre
#                                CCDC 
#
#######################################################################
#
# If this CIF has been generated from an entry in the Cambridge 
# Structural Database, then it will include bibliographic, chemical, 
# crystal, experimental, refinement or atomic coordinate data resulting 
# from the CCDC's data processing and validation procedures.
#
#######################################################################

data_CUYTIA
_symmetry_cell_setting           monoclinic
_symmetry_space_group_name_H-M   'P 21/c'
_symmetry_Int_Tables_number      14
_space_group_name_Hall           '-P 2ybc'
loop_
_symmetry_equiv_pos_site_id
_symmetry_equiv_pos_as_xyz
1 x,y,z
2 -x,1/2+y,1/2-z
3 -x,-y,-z
4 x,1/2-y,1/2+z
_cell_length_a                   16.9135(7)
_cell_length_b                   10.3252(4)
_cell_length_c                   14.3606(7)
_cell_angle_alpha                90
_cell_angle_beta                 98.519(4)
_cell_angle_gamma                90
_cell_volume                     2480.2
loop_
_atom_site_label
_atom_site_type_symbol
_atom_site_fract_x
_atom_site_fract_y
_atom_site_fract_z
Zn1 Zn 0.42804(3) 0.13469(4) 0.98100(4)
Zn2 Zn -0.00004(3) 0.49568(5) 0.65457(3)
C1 C 0.3663(2) 0.3862(3) 1.0371(3)
H1 H 0.3467 0.3485 1.0878
C2 C 0.4268(2) 0.4142(3) 0.9167(3)
H2 H 0.4565 0.3984 0.8683
C3 C 0.3962(2) 0.5292(3) 0.9363(3)
H3 H 0.4006 0.6066 0.9043
C4 C 0.3179(2) 0.6059(3) 1.0644(3)
H4 H 0.3464 0.6872 1.0630
H5 H 0.3236 0.5782 1.1296
C5 C 0.2287(2) 0.6317(3) 1.0303(3)
C6 C 0.1957(2) 0.6931(3) 1.1157(3)
H6 H 0.2361 0.7507 1.1479
H7 H 0.1495 0.7455 1.0920
C7 C 0.0995(2) 0.6004(4) 1.2097(3)
H8 H 0.0585 0.6565 1.1854
C8 C 0.2143(2) 0.5049(4) 1.2354(3)
H9 H 0.2672 0.4817 1.2335
C9 C 0.1645(3) 0.4504(4) 1.2886(3)
H10 H 0.1775 0.3816 1.3298
C10 C 0.2075(2) 0.4184(4) 0.8430(3)
H11 H 0.2583 0.3843 0.8613
C11 C 0.1649(2) 0.4144(4) 0.7561(3)
H12 H 0.1817 0.3763 0.7036
C12 C 0.0934(2) 0.5134(4) 0.8437(3)
H13 H 0.0512 0.5571 0.8645
C13 C 0.1779(2) 0.5089(4) 1.0003(3)
H14 H 0.2052 0.4345 1.0311
H15 H 0.1272 0.5173 1.0236
C14 C 0.2180(2) 0.7294(3) 0.9488(3)
H16 H 0.2431 0.6946 0.8976
H17 H 0.1613 0.7382 0.9260
C15 C 0.3218(2) 0.9029(3) 0.9548(3)
H18 H 0.3586 0.8543 0.9275
C16 C 0.2136(2) 0.9583(3) 1.0119(3)
H19 H 0.1634 0.9571 1.0309
C17 C 0.2653(2) 1.0591(4) 1.0171(3)
H20 H 0.2561 1.1402 1.0416
N1 N 0.40732(18) 0.3237(3) 0.9793(3)
N2 N 0.35703(17) 0.5110(3) 1.0126(2)
N3 N 0.17242(18) 0.6015(3) 1.1844(2)
N4 N 0.09252(18) 0.5103(3) 1.2733(2)
N5 N 0.09291(19) 0.4751(3) 0.7569(3)
N6 N 0.16154(17) 0.4825(3) 0.8994(2)
N7 N 0.25098(17) 0.8580(3) 0.9723(2)
N8 N 0.33267(17) 1.0248(3) 0.9815(2)
O1 O 0.42189(16) 0.0022(3) 1.1969(2)
O2 O 0.50593(15) 0.1008(2) 1.0936(2)
O3 O 0.56276(17) 0.0331(3) 1.2478(2)
O4 O 0.51622(17) -0.1252(2) 1.1295(2)
O5 O -0.02729(17) 0.3527(3) 0.5686(2)
O6 O 0.00454(18) 0.1535(2) 0.5021(3)
O7 O 0.10372(17) 0.3235(3) 0.5311(3)
O8 O -0.0093(2) 0.3416(3) 0.4076(2)
S1 S 0.50080(6) 0.00336(11) 1.16981(8)
S2 S 0.02162(6) 0.28978(9) 0.50309(9)
Zn1B Zn -0.42804(3) 0.86531(4) 0.01900(4)
Zn1_2 Zn -0.57196(3) 1.13469(4) -0.01900(4)
Zn1_3 Zn 0.42804(3) 1.13469(4) 0.98100(4)
Zn1B_2 Zn -0.42804(3) -0.13469(4) 0.01900(4)
Zn1B_3 Zn 0.57196(3) -0.13469(4) 1.01900(4)
Zn2B Zn 0.00004(3) 0.50432(5) 0.34543(3)
Zn2_2 Zn -0.00004(3) 0.49568(5) -0.34543(3)
Zn2B_2 Zn 0.00004(3) 0.50432(5) 1.34543(3)
C1B C -0.3663(2) 0.6138(3) -0.0371(3)
H1B H -0.3467 0.6515 -0.0878
C2B C -0.4268(2) 0.5858(3) 0.0833(3)
H2B H -0.4565 0.6016 0.1317
C3B C -0.3962(2) 0.4708(3) 0.0637(3)
H3B H -0.4006 0.3934 0.0957
C4B C -0.3179(2) 0.3941(3) -0.0644(3)
H4B H -0.3464 0.3128 -0.0630
H5B H -0.3236 0.4218 -0.1296
C5B C -0.2287(2) 0.3683(3) -0.0303(3)
C6B C -0.1957(2) 0.3069(3) -0.1157(3)
H6B H -0.2361 0.2493 -0.1479
H7B H -0.1495 0.2545 -0.0920
C7B C -0.0995(2) 0.3996(4) -0.2097(3)
H8B H -0.0585 0.3435 -0.1854
C8B C -0.2143(2) 0.4951(4) -0.2354(3)
H9B H -0.2672 0.5183 -0.2335
C9B C -0.1645(3) 0.5496(4) -0.2886(3)
H10B H -0.1775 0.6184 -0.3298
C10B C -0.2075(2) 0.5816(4) 0.1570(3)
H11B H -0.2583 0.6157 0.1387
C11B C -0.1649(2) 0.5856(4) 0.2439(3)
H12B H -0.1817 0.6237 0.2964
C12B C -0.0934(2) 0.4866(4) 0.1563(3)
H13B H -0.0512 0.4429 0.1355
C13B C -0.1779(2) 0.4911(4) -0.0003(3)
H14B H -0.2052 0.5655 -0.0311
H15B H -0.1272 0.4827 -0.0236
C14B C -0.2180(2) 0.2706(3) 0.0512(3)
H16B H -0.2431 0.3054 0.1024
H17B H -0.1613 0.2618 0.0740
C15B C -0.3218(2) 0.0971(3) 0.0452(3)
H18B H -0.3586 0.1457 0.0725
C16B C -0.2136(2) 0.0417(3) -0.0119(3)
H19B H -0.1634 0.0429 -0.0309
C17B C -0.2653(2) -0.0591(4) -0.0171(3)
H20B H -0.2561 -0.1402 -0.0416
N1B N -0.40732(18) 0.6763(3) 0.0207(3)
N2B N -0.35703(17) 0.4890(3) -0.0126(2)
N3B N -0.17242(18) 0.3985(3) -0.1844(2)
N4B N -0.09252(18) 0.4897(3) -0.2733(2)
N4_2 N 0.09252(18) 0.5103(3) 0.2733(2)
N4B_2 N -0.09252(18) 0.4897(3) 0.7267(2)
N5B N -0.09291(19) 0.5249(3) 0.2431(3)
N6B N -0.16154(17) 0.5175(3) 0.1006(2)
N7B N -0.25098(17) 0.1420(3) 0.0277(2)
N8B N -0.33267(17) -0.0248(3) 0.0185(2)
N8_2 N 0.33267(17) 0.0248(3) 0.9815(2)
N8B_2 N -0.33267(17) 0.9752(3) 0.0185(2)
O1B O -0.42189(16) 0.9978(3) -0.1969(2)
O2B O -0.50593(15) 0.8992(2) -0.0936(2)
O3B O -0.56276(17) 0.9669(3) -0.2478(2)
O4B O -0.51622(17) 1.1252(2) -0.1295(2)
O4_2 O -0.48378(17) 0.8748(2) 0.1295(2)
O4B_2 O 0.48378(17) 0.1252(2) 0.8705(2)
O5B O 0.02729(17) 0.6473(3) 0.4314(2)
O6B O -0.00454(18) 0.8465(2) 0.4979(3)
O7B O -0.10372(17) 0.6765(3) 0.4689(3)
O8B O 0.0093(2) 0.6584(3) 0.5924(2)
S1B S -0.50080(6) 0.99664(11) -0.16981(8)
S2B S -0.02162(6) 0.71022(9) 0.49691(9)
O9 O 0.3546(2) -0.2736(3) 0.7658(3)
H21 H 0.389(2) -0.212(3) 0.766(4)
H22 H 0.369(3) -0.334(3) 0.732(3)
O10 O 0.3429(2) 0.2476(3) 1.2271(3)
H23 H 0.381(2) 0.288(4) 1.262(3)
H24 H 0.361(3) 0.172(3) 1.216(4)
loop_
_geom_bond_atom_site_label_1
_geom_bond_atom_site_label_2
_geom_bond_site_symmetry_1
_geom_bond_site_symmetry_2
Zn1 N1 1_555 1_555
Zn2 N5 1_555 1_555
C1 H1 1_555 1_555
C2 H2 1_555 1_555
C3 C2 1_555 1_555
H3 C3 1_555 1_555
C4 H4 1_555 1_555
H5 C4 1_555 1_555
C5 C4 1_555 1_555
C6 C5 1_555 1_555
H6 C6 1_555 1_555
H7 C6 1_555 1_555
C7 H8 1_555 1_555
C8 H9 1_555 1_555
C9 C8 1_555 1_555
H10 C9 1_555 1_555
C10 H11 1_555 1_555
C11 C10 1_555 1_555
H12 C11 1_555 1_555
C12 H13 1_555 1_555
C13 C5 1_555 1_555
H14 C13 1_555 1_555
H15 C13 1_555 1_555
C14 C5 1_555 1_555
H16 C14 1_555 1_555
H17 C14 1_555 1_555
C15 H18 1_555 1_555
C16 H19 1_555 1_555
C17 C16 1_555 1_555
H20 C17 1_555 1_555
N1 C1 1_555 1_555
N2 C1 1_555 1_555
N3 C6 1_555 1_555
N4 C7 1_555 1_555
N5 C11 1_555 1_555
N6 C10 1_555 1_555
N7 C14 1_555 1_555
N8 C15 1_555 1_555
O1 S1 1_555 1_555
O2 Zn1 1_555 1_555
O3 S1 1_555 1_555
O4 S1 1_555 1_555
O5 Zn2 1_555 1_555
O6 S2 1_555 1_555
O7 S2 1_555 1_555
O8 S2 1_555 1_555
S1 O2 1_555 1_555
S2 O5 1_555 1_555
O9 H21 1_555 1_555
H22 O9 1_555 1_555
O10 H23 1_555 1_555
H24 O10 1_555 1_555
Zn1B N1B 1_555 1_555
Zn1_2 O4B 1_555 1_555
Zn1_3 N8 1_555 1_555
Zn1B_2 N8B 1_555 1_555
Zn1B_3 O4 1_555 1_555
Zn2B O8 1_555 1_555
Zn2_2 N4B 1_555 1_555
Zn2B_2 N4 1_555 1_555
C1B H1B 1_555 1_555
C2B H2B 1_555 1_555
C3B C2B 1_555 1_555
H3B C3B 1_555 1_555
C4B H4B 1_555 1_555
H5B C4B 1_555 1_555
C5B C4B 1_555 1_555
C6B C5B 1_555 1_555
H6B C6B 1_555 1_555
H7B C6B 1_555 1_555
C7B H8B 1_555 1_555
C8B H9B 1_555 1_555
C9B C8B 1_555 1_555
H10B C9B 1_555 1_555
C10B H11B 1_555 1_555
C11B C10B 1_555 1_555
H12B C11B 1_555 1_555
C12B H13B 1_555 1_555
C13B C5B 1_555 1_555
H14B C13B 1_555 1_555
H15B C13B 1_555 1_555
C14B C5B 1_555 1_555
H16B C14B 1_555 1_555
H17B C14B 1_555 1_555
C15B H18B 1_555 1_555
C16B H19B 1_555 1_555
C17B C16B 1_555 1_555
H20B C17B 1_555 1_555
N1B C1B 1_555 1_555
N2B C1B 1_555 1_555
N3B C6B 1_555 1_555
N4B C7B 1_555 1_555
N4_2 Zn2B 1_555 1_555
N4B_2 Zn2 1_555 1_555
N5B Zn2B 1_555 1_555
N6B C10B 1_555 1_555
N7B C14B 1_555 1_555
N8B C15B 1_555 1_555
N8_2 Zn1 1_555 1_555
N8B_2 Zn1B 1_555 1_555
O1B S1B 1_555 1_555
O2B Zn1B 1_555 1_555
O3B S1B 1_555 1_555
O4B S1B 1_555 1_555
O4_2 Zn1B 1_555 1_555
O4B_2 Zn1 1_555 1_555
O5B Zn2B 1_555 1_555
O6B S2B 1_555 1_555
O7B S2B 1_555 1_555
O8B Zn2 1_555 1_555
S1B O2B 1_555 1_555
S2B O5B 1_555 1_555
C2 N1 1_555 1_555
C3 N2 1_555 1_555
C4 N2 1_555 1_555
C7 N3 1_555 1_555
C8 N3 1_555 1_555
C9 N4 1_555 1_555
C12 N5 1_555 1_555
C12 N6 1_555 1_555
C13 N6 1_555 1_555
C15 N7 1_555 1_555
C16 N7 1_555 1_555
C17 N8 1_555 1_555
C2B N1B 1_555 1_555
C3B N2B 1_555 1_555
C4B N2B 1_555 1_555
C7B N3B 1_555 1_555
C8B N3B 1_555 1_555
C9B N4B 1_555 1_555
C11B N5B 1_555 1_555
C12B N5B 1_555 1_555
C12B N6B 1_555 1_555
C13B N6B 1_555 1_555
C15B N7B 1_555 1_555
C16B N7B 1_555 1_555
C17B N8B 1_555 1_555
O8B S2B 1_555 1_555

#END
