
#######################################################################
#
#                 Cambridge Crystallographic Data Centre
#                                CCDC 
#
#######################################################################
#
# If this CIF has been generated from an entry in the Cambridge 
# Structural Database, then it will include bibliographic, chemical, 
# crystal, experimental, refinement or atomic coordinate data resulting 
# from the CCDC's data processing and validation procedures.
#
#######################################################################

data_CUYVEY
_symmetry_cell_setting           monoclinic
_symmetry_space_group_name_H-M   'C 2/c'
_symmetry_Int_Tables_number      15
_space_group_name_Hall           '-C 2yn'
loop_
_symmetry_equiv_pos_site_id
_symmetry_equiv_pos_as_xyz
1 x,y,z
2 -x,y,1/2-z
3 1/2+x,1/2+y,z
4 1/2-x,1/2+y,1/2-z
5 -x,-y,-z
6 x,-y,1/2+z
7 1/2-x,1/2-y,-z
8 1/2+x,1/2-y,1/2+z
_cell_length_a                   44.844(3)
_cell_length_b                   11.1049(6)
_cell_length_c                   16.3434(8)
_cell_angle_alpha                90
_cell_angle_beta                 94.167(5)
_cell_angle_gamma                90
_cell_volume                     8117.3
loop_
_atom_site_label
_atom_site_type_symbol
_atom_site_fract_x
_atom_site_fract_y
_atom_site_fract_z
Zn1 Zn 0.243187(16) -0.04238(6) 0.47401(4)
Zn2 Zn 0.398780(16) -0.79012(5) 0.52430(4)
C1 C 0.30325(15) -0.1162(4) 0.4318(3)
H1 H 0.2959 -0.1266 0.3776
C2 C 0.30576(16) -0.0816(5) 0.5595(4)
H2 H 0.3004 -0.0623 0.6119
C3 C 0.33426(17) -0.1025(5) 0.5394(4)
H3 H 0.3516 -0.1025 0.5745
C4 C 0.35660(13) -0.1378(4) 0.4041(3)
H4 H 0.3720 -0.0802 0.4217
H5 H 0.3494 -0.1161 0.3487
C5 C 0.37139(12) -0.2634(4) 0.4007(3)
C6 C 0.35302(13) -0.3572(4) 0.3530(3)
H6 H 0.3532 -0.3369 0.2953
H7 H 0.3634 -0.4335 0.3607
C7 C 0.29794(16) -0.3780(5) 0.3138(4)
H8 H 0.2984 -0.3627 0.2580
C8 C 0.27360(15) -0.4046(5) 0.3527(4)
H9 H 0.2543 -0.4111 0.3281
C9 C 0.31045(14) -0.4031(4) 0.4416(3)
H10 H 0.3217 -0.4083 0.4915
C10 C 0.38075(12) -0.3019(4) 0.4898(3)
H11 H 0.3932 -0.2391 0.5156
H12 H 0.3629 -0.3084 0.5198
C11 C 0.42699(15) -0.4347(6) 0.4977(3)
H13 H 0.4416 -0.3766 0.4919
C12 C 0.43114(15) -0.5542(6) 0.5083(3)
H14 H 0.4497 -0.5921 0.5113
C13 C 0.38491(13) -0.5252(5) 0.5063(3)
H15 H 0.3644 -0.5384 0.5070
C14 C 0.40070(12) -0.2480(4) 0.3580(3)
H16 H 0.4144 -0.2003 0.3935
H17 H 0.4097 -0.3268 0.3527
C15 C 0.39714(13) -0.2465(5) 0.2039(3)
H18 H 0.3968 -0.3297 0.1972
C16 C 0.39957(12) -0.0700(5) 0.2615(3)
H19 H 0.4010 -0.0085 0.3002
C17 C 0.39864(12) -0.0576(5) 0.1795(3)
H20 H 0.3992 0.0153 0.1517
C18 C 0.24247(16) 0.2011(7) 0.4018(4)
C19 C 0.27160(13) 0.2289(4) 0.3612(3)
C20 C 0.29925(14) 0.1996(5) 0.3991(3)
H21 H 0.3006 0.1658 0.4513
C21 C 0.32493(14) 0.2206(4) 0.3590(3)
C22 C 0.35547(14) 0.1960(5) 0.3993(4)
C23 C 0.32261(14) 0.2711(5) 0.2811(3)
H22 H 0.3398 0.2833 0.2537
C24 C 0.29497(14) 0.3037(5) 0.2435(3)
C25 C 0.2924(2) 0.3614(5) 0.1598(4)
C26 C 0.26963(14) 0.2820(4) 0.2846(3)
H23 H 0.2510 0.3033 0.2603
C27 C 0.43988(14) -0.9503(6) 0.4699(3)
C28 C 0.46817(13) -0.9798(5) 0.4270(3)
C29 C 0.47630(13) -1.0992(5) 0.4151(3)
H24 H 0.4648 -1.1609 0.4347
C30 C 0.50168(14) -1.1270(5) 0.3739(3)
C31 C 0.50880(17) -1.2556(6) 0.3629(4)
C32 C 0.51887(12) -1.0349(5) 0.3470(3)
H25 H 0.5357 -1.0526 0.3193
C33 C 0.51137(14) -0.9162(5) 0.3605(3)
C34 C 0.53136(18) -0.8208(6) 0.3346(4)
C35 C 0.48575(14) -0.8916(5) 0.4008(3)
H26 H 0.4806 -0.8118 0.4099
N1 N 0.28612(11) -0.0927(4) 0.4923(3)
N2 N 0.33201(12) -0.1234(3) 0.4566(3)
N3 N 0.28133(11) -0.4207(3) 0.4330(3)
N4 N 0.32197(12) -0.3769(3) 0.3701(3)
N5 N 0.39718(12) -0.4170(4) 0.4973(2)
N6 N 0.40501(12) -0.6108(4) 0.5139(3)
N7 N 0.39805(9) -0.1912(4) 0.2767(2)
N8 N 0.39674(10) -0.1695(4) 0.1432(2)
O1 O 0.24378(11) 0.1264(3) 0.4597(2)
O2 O 0.21938(19) 0.2225(8) 0.3693(4)
O3 O 0.35823(8) 0.1784(3) 0.4765(2)
O4 O 0.37750(11) 0.1979(5) 0.3574(2)
O5 O 0.31566(12) 0.3902(4) 0.1283(2)
O6 O 0.26620(12) 0.3786(4) 0.1293(2)
O7 O 0.42254(9) -1.0334(4) 0.4881(2)
O8 O 0.43622(9) -0.8391(3) 0.4836(2)
O9 O 0.53130(11) -1.2741(3) 0.3183(3)
H27 H 0.5342 -1.3467 0.3144
O10 O 0.55294(12) -0.8517(4) 0.2923(3)
H28 H 0.5625 -0.7918 0.2810
O11 O 0.52626(13) -0.7139(5) 0.3490(3)
O12 O 0.49493(12) -1.3350(4) 0.3935(3)
Zn1F Zn 0.256813(16) -0.45762(6) 0.52599(4)
Zn1C Zn 0.256813(16) 0.45762(6) 0.02599(4)
Zn2E Zn 0.398780(16) -0.20988(5) 0.02430(4)
Zn2_2 Zn 0.398780(16) 0.20988(5) 0.52430(4)
N3F N 0.21867(11) -0.0793(3) 0.5670(3)
N8E N 0.39674(10) -0.8305(4) 0.6432(2)
O3_2 O 0.35823(8) -0.8216(3) 0.4765(2)
O6C O 0.23380(12) -0.1214(4) 0.3707(2)
O13 O 0.18409(19) 0.3935(7) 0.2751(4)
H29 H 0.1676(16) 0.410(11) 0.296(7)
H30 H 0.193(2) 0.332(8) 0.302(7)
O14 O 0.16650(17) 0.1608(5) 0.4055(5)
H31 H 0.163(3) 0.116(7) 0.362(4)
H32 H 0.163(3) 0.237(3) 0.400(6)
O15 O 0.54777(16) -0.4897(4) 0.2794(4)
H33 H 0.5645 -0.4842 0.2462
H34 H 0.5536 -0.5329 0.3289
O16 O 0.3688(2) 0.4796(7) 0.1871(4)
H35 H 0.3843(10) 0.446(7) 0.197(4)
O17 O 0.4776(2) -0.5632(7) 0.3571(6)
H36 H 0.4935(10) -0.556(6) 0.387(4)
O18 O 0.5779(3) 0.3084(9) 0.2026(7)
H37 H 0.5889(18) 0.259(6) 0.179(5)
H38? H 0.610(3) 0.246(11) 0.293(9)
O19? O 0.2220(2) 0.3004(8) 0.3837(5)
O20? O 0.5977(4) 0.3000(16) 0.2801(11)
loop_
_geom_bond_atom_site_label_1
_geom_bond_atom_site_label_2
_geom_bond_site_symmetry_1
_geom_bond_site_symmetry_2
Zn1 N1 1_555 1_555
Zn2 N6 1_555 1_555
C1 H1 1_555 1_555
C2 H2 1_555 1_555
C3 C2 1_555 1_555
H3 C3 1_555 1_555
C4 H4 1_555 1_555
H5 C4 1_555 1_555
C5 C4 1_555 1_555
C6 C5 1_555 1_555
H6 C6 1_555 1_555
H7 C6 1_555 1_555
C7 H8 1_555 1_555
C8 C7 1_555 1_555
H9 C8 1_555 1_555
C9 H10 1_555 1_555
C10 C5 1_555 1_555
H11 C10 1_555 1_555
H12 C10 1_555 1_555
C11 H13 1_555 1_555
C12 C11 1_555 1_555
H14 C12 1_555 1_555
C13 H15 1_555 1_555
C14 C5 1_555 1_555
H16 C14 1_555 1_555
H17 C14 1_555 1_555
C15 H18 1_555 1_555
C16 H19 1_555 1_555
C17 C16 1_555 1_555
H20 C17 1_555 1_555
C18 C19 1_555 1_555
C19 C20 1_555 1_555
C20 H21 1_555 1_555
C21 C20 1_555 1_555
C22 C21 1_555 1_555
C23 C21 1_555 1_555
H22 C23 1_555 1_555
C24 C23 1_555 1_555
C25 C24 1_555 1_555
C26 C19 1_555 1_555
H23 C26 1_555 1_555
C27 C28 1_555 1_555
C28 C29 1_555 1_555
C29 H24 1_555 1_555
C30 C29 1_555 1_555
C31 C30 1_555 1_555
C32 C30 1_555 1_555
H25 C32 1_555 1_555
C33 C32 1_555 1_555
C34 C33 1_555 1_555
C35 C28 1_555 1_555
H26 C35 1_555 1_555
N1 C1 1_555 1_555
N2 C1 1_555 1_555
N3 C8 1_555 1_555
N4 C6 1_555 1_555
N5 C10 1_555 1_555
N6 C12 1_555 1_555
N7 C14 1_555 1_555
N8 C15 1_555 1_555
O1 Zn1 1_555 1_555
O2 C18 1_555 1_555
O3 C22 1_555 1_555
O4 C22 1_555 1_555
O5 C25 1_555 1_555
O6 C25 1_555 1_555
O7 C27 1_555 1_555
O8 Zn2 1_555 1_555
O9 C31 1_555 1_555
H27 O9 1_555 1_555
O10 C34 1_555 1_555
H28 O10 1_555 1_555
O11 C34 1_555 1_555
O12 C31 1_555 1_555
O13 H29 1_555 1_555
H30 O13 1_555 1_555
O14 H31 1_555 1_555
H32 O14 1_555 1_555
O15 H33 1_555 1_555
H34 O15 1_555 1_555
O16 H35 1_555 1_555
O17 H36 1_555 1_555
O18 H37 1_555 1_555
Zn1F N3 1_555 1_555
Zn1C O6 1_555 1_555
Zn2E N8 1_555 1_555
Zn2_2 O3 1_555 1_555
N3F Zn1 1_555 1_555
N8E Zn2 1_555 1_555
O3_2 Zn2 1_555 1_555
O6C Zn1 1_555 1_555
C2 N1 1_555 1_555
C3 N2 1_555 1_555
C4 N2 1_555 1_555
C7 N4 1_555 1_555
C9 N3 1_555 1_555
C9 N4 1_555 1_555
C11 N5 1_555 1_555
C13 N5 1_555 1_555
C13 N6 1_555 1_555
C15 N7 1_555 1_555
C16 N7 1_555 1_555
C17 N8 1_555 1_555
C18 O1 1_555 1_555
C24 C26 1_555 1_555
C27 O8 1_555 1_555
C33 C35 1_555 1_555

#END
