
#######################################################################
#
#                 Cambridge Crystallographic Data Centre
#                                CCDC 
#
#######################################################################
#
# If this CIF has been generated from an entry in the Cambridge 
# Structural Database, then it will include bibliographic, chemical, 
# crystal, experimental, refinement or atomic coordinate data resulting 
# from the CCDC's data processing and validation procedures.
#
#######################################################################

data_CUYVAU
_symmetry_cell_setting           monoclinic
_symmetry_space_group_name_H-M   'C 2/c'
_symmetry_Int_Tables_number      15
_space_group_name_Hall           '-C 2yn'
loop_
_symmetry_equiv_pos_site_id
_symmetry_equiv_pos_as_xyz
1 x,y,z
2 -x,y,1/2-z
3 1/2+x,1/2+y,z
4 1/2-x,1/2+y,1/2-z
5 -x,-y,-z
6 x,-y,1/2+z
7 1/2-x,1/2-y,-z
8 1/2+x,1/2-y,1/2+z
_cell_length_a                   19.5199(10)
_cell_length_b                   10.3113(4)
_cell_length_c                   34.7941(16)
_cell_angle_alpha                90
_cell_angle_beta                 92.84(5)
_cell_angle_gamma                90
_cell_volume                     6994.6
loop_
_atom_site_label
_atom_site_type_symbol
_atom_site_fract_x
_atom_site_fract_y
_atom_site_fract_z
Co1 Co 0.83054(3) 0.75438(6) 0.533146(17)
Co2 Co 1.21113(3) 0.19507(5) 0.707763(16)
C1 C 0.7990(2) 0.4607(4) 0.68395(12)
H1 H 0.8205 0.4503 0.7082
C2 C 0.7694(2) 0.4319(5) 0.62366(12)
H2 H 0.7657 0.3990 0.5988
C3 C 0.7346(2) 0.5316(5) 0.63721(12)
H3 H 0.7030 0.5812 0.6228
C4 C 0.8601(2) 0.2768(4) 0.65452(11)
H4 H 0.8334 0.1974 0.6530
H5 H 0.8849 0.2773 0.6794
C5 C 0.9130(2) 0.2710(4) 0.62323(11)
C6 C 0.9575(2) 0.1477(4) 0.62997(11)
H6 H 0.9267 0.0752 0.6333
H7 H 0.9814 0.1314 0.6067
C7 C 1.0737(2) 0.1837(4) 0.66153(12)
H8 H 1.0923 0.2251 0.6407
C8 C 1.0020(3) 0.0837(7) 0.69583(15)
H9 H 0.9628 0.0436 0.7042
C9 C 1.0639(3) 0.0903(7) 0.71505(16)
H10 H 1.0740 0.0554 0.7393
C10 C 0.9616(2) 0.3886(4) 0.62339(12)
H11 H 0.9840 0.3954 0.6488
H12 H 0.9971 0.3709 0.6055
C11 C 0.9135(2) 0.5566(4) 0.57785(12)
H13 H 0.9200 0.5097 0.5555
C12 C 0.8869(3) 0.7071(4) 0.61667(14)
H14 H 0.8711 0.7854 0.6261
C13 C 0.9147(3) 0.6104(5) 0.63847(13)
H15 H 0.9211 0.6093 0.6651
C14 C 0.8807(2) 0.2523(4) 0.58187(11)
H16 H 0.8511 0.3255 0.5757
H17 H 0.9172 0.2527 0.5639
C15 C 0.8628(2) 0.0288(4) 0.55796(11)
H18 H 0.9055 0.0236 0.5472
C16 C 0.7630(2) -0.0187(5) 0.57562(13)
H19 H 0.7227 -0.0640 0.5794
C17 C 0.7763(2) 0.1022(4) 0.58784(13)
H20 H 0.7476 0.1553 0.6014
C18 C 0.7438(3) 0.5559(6) 0.52872(12)
C19 C 0.6810(2) 0.4757(4) 0.53118(11)
C20 C 0.6166(3) 0.5275(5) 0.53542(11)
C21 C 0.5994(3) 0.6695(6) 0.53778(16)
C22 C 0.5602(3) 0.4402(7) 0.53607(15)
H21 H 0.5164 0.4715 0.5397
C23 C 0.5708(4) 0.3088(7) 0.53122(16)
H22 H 0.5333 0.2529 0.5305
C24 C 0.6348(4) 0.2592(6) 0.52742(16)
H23 H 0.6417 0.1705 0.5247
C25 C 0.6873(3) 0.3426(5) 0.52771(13)
H24 H 0.7311 0.3087 0.5254
C26 C 1.2135(3) 0.6723(4) 0.73238(14)
C27 C 1.1716(2) 0.6654(4) 0.69482(12)
C28 C 1.1633(2) 0.5534(4) 0.67337(12)
C29 C 1.1875(2) 0.4242(4) 0.68733(13)
C30 C 1.1251(2) 0.5581(5) 0.63810(13)
H25 H 1.1200 0.4837 0.6231
C31 C 1.0956(3) 0.6713(6) 0.62572(14)
H26 H 1.0698 0.6732 0.6025
C32 C 1.1034(3) 0.7820(5) 0.64703(17)
H27 H 1.0836 0.8590 0.6381
C33 C 1.1410(3) 0.7798(5) 0.68179(15)
H28 H 1.1456 0.8550 0.6965
N1 N 0.81182(18) 0.3866(3) 0.65352(9)
N2 N 0.75202(19) 0.5507(3) 0.67540(10)
N3 N 1.10890(18) 0.1553(3) 0.69369(9)
N4 N 1.00820(17) 0.1466(3) 0.66209(9)
N5 N 0.93139(18) 0.5144(3) 0.61351(10)
N6 N 0.88559(19) 0.6729(3) 0.57854(10)
N7 N 0.84099(17) 0.1326(3) 0.57629(9)
N8 N 0.81780(19) -0.0659(3) 0.55661(9)
O1 O 0.7992(2) 0.5036(4) 0.52264(10)
O2 O 0.73817(18) 0.6761(3) 0.53262(11)
O3 O 0.5633(5) 0.7002(8) 0.5641(2)
O4 O 0.60295(18) 0.7375(3) 0.50631(9)
O6 O 1.18768(17) 0.7217(3) 0.76120(10)
O7 O 1.27497(16) 0.6335(3) 0.73452(8)
O8 O 1.18402(18) 0.3966(3) 0.72237(9)
O9 O 1.20746(17) 0.3417(3) 0.66395(10)
Co1F Co 0.66946(3) 0.74562(6) 0.466854(17)
Co1_2 Co 0.83054(3) -0.24562(6) 0.533146(17)
Co1F_2 Co 0.66946(3) 1.74562(6) 0.466854(17)
Co2F Co 0.28887(3) 1.30493(5) 0.292237(16)
Co2B Co 0.71113(3) 0.69507(5) 0.707763(16)
Co2C Co 1.28887(3) 0.69507(5) 0.792237(16)
Co2D Co 0.78887(3) 0.80493(5) 0.292237(16)
Co2E Co 0.21113(3) 0.80493(5) 0.207763(16)
C1F C 0.7010(2) 1.0393(4) 0.31605(12)
H1F H 0.6795 1.0497 0.2918
C2F C 0.7306(2) 1.0681(5) 0.37634(12)
H2F H 0.7343 1.1010 0.4012
C3F C 0.7654(2) 0.9684(5) 0.36279(12)
H3F H 0.7970 0.9188 0.3772
C4F C 0.6399(2) 1.2232(4) 0.34548(11)
H4F H 0.6666 1.3026 0.3470
H5F H 0.6151 1.2227 0.3206
C5F C 0.5870(2) 1.2290(4) 0.37677(11)
C6F C 0.5425(2) 1.3523(4) 0.37003(11)
H6F H 0.5733 1.4248 0.3667
H7F H 0.5186 1.3686 0.3933
C7F C 0.4263(2) 1.3163(4) 0.33847(12)
H8F H 0.4077 1.2749 0.3593
C8F C 0.4980(3) 1.4163(7) 0.30417(15)
H9F H 0.5372 1.4564 0.2958
C9F C 0.4361(3) 1.4097(7) 0.28495(16)
H10F H 0.4260 1.4446 0.2607
C10F C 0.5384(2) 1.1114(4) 0.37661(12)
H11F H 0.5160 1.1046 0.3512
H12F H 0.5029 1.1291 0.3945
C11F C 0.5865(2) 0.9434(4) 0.42215(12)
H13F H 0.5800 0.9903 0.4445
C12F C 0.6131(3) 0.7929(4) 0.38333(14)
H14F H 0.6289 0.7146 0.3739
C13F C 0.5853(3) 0.8896(5) 0.36153(13)
H15F H 0.5789 0.8907 0.3349
C14F C 0.6193(2) 1.2477(4) 0.41813(11)
H16F H 0.6489 1.1745 0.4243
H17F H 0.5828 1.2473 0.4361
C15F C 0.6372(2) 1.4712(4) 0.44204(11)
H18F H 0.5945 1.4764 0.4528
C16F C 0.7370(2) 1.5187(5) 0.42438(13)
H19F H 0.7773 1.5640 0.4206
C17F C 0.7237(2) 1.3978(4) 0.41216(13)
H20F H 0.7524 1.3447 0.3986
C18F C 0.7562(3) 0.9441(6) 0.47128(12)
C19F C 0.8190(2) 1.0243(4) 0.46882(11)
C20F C 0.8834(3) 0.9725(5) 0.46458(11)
C21F C 0.9006(3) 0.8305(6) 0.46222(16)
C22F C 0.9398(3) 1.0598(7) 0.46393(15)
H21F H 0.9836 1.0285 0.4603
C23F C 0.9292(4) 1.1912(7) 0.46878(16)
H22F H 0.9667 1.2471 0.4695
C24F C 0.8652(4) 1.2408(6) 0.47258(16)
H23F H 0.8583 1.3295 0.4753
C25F C 0.8127(3) 1.1574(5) 0.47229(13)
H24F H 0.7689 1.1913 0.4746
C26F C 0.2865(3) 0.8277(4) 0.26762(14)
C27F C 0.3284(2) 0.8346(4) 0.30518(12)
C28F C 0.3367(2) 0.9466(4) 0.32663(12)
C29F C 0.3125(2) 1.0758(4) 0.31267(13)
C30F C 0.3749(2) 0.9419(5) 0.36190(13)
H25F H 0.3800 1.0163 0.3769
C31F C 0.4044(3) 0.8287(6) 0.37428(14)
H26F H 0.4302 0.8268 0.3975
C32F C 0.3966(3) 0.7180(5) 0.35297(17)
H27F H 0.4164 0.6410 0.3619
C33F C 0.3590(3) 0.7202(5) 0.31821(15)
H28F H 0.3544 0.6450 0.3035
N1F N 0.68818(18) 1.1134(3) 0.34648(9)
N2F N 0.74798(19) 0.9493(3) 0.32460(10)
N2B N 1.25202(19) 0.0507(3) 0.67540(10)
N2D N 0.24798(19) 1.4493(3) 0.32460(10)
N3F N 0.39110(18) 1.3447(3) 0.30631(9)
N4F N 0.49180(17) 1.3534(3) 0.33791(9)
N5F N 0.56861(18) 0.9856(3) 0.38649(10)
N6F N 0.61441(19) 0.8271(3) 0.42146(10)
N7F N 0.65901(17) 1.3674(3) 0.42371(9)
N8F N 0.68220(19) 1.5659(3) 0.44339(9)
N8_2 N 0.81780(19) 0.9341(3) 0.55661(9)
N8F_2 N 0.68220(19) 0.5659(3) 0.44339(9)
O1F O 0.7008(2) 0.9964(4) 0.47736(10)
O2F O 0.76183(18) 0.8239(3) 0.46738(11)
O3F O 0.9367(5) 0.7998(8) 0.4359(2)
O4F O 0.89705(18) 0.7625(3) 0.49369(9)
O6F O 0.31232(17) 0.7783(3) 0.23880(10)
O6C O 1.31232(17) 0.2217(3) 0.73880(10)
O6E O 0.18768(17) 1.2783(3) 0.26120(10)
O7F O 0.22503(16) 0.8665(3) 0.26548(8)
O7C O 1.22503(16) 0.1335(3) 0.76548(8)
O7E O 0.27497(16) 1.3665(3) 0.23452(8)
O8F O 0.31598(18) 1.1034(3) 0.27763(9)
O9F O 0.29254(17) 1.1583(3) 0.33605(10)
O5 O 0.5719(7) 0.9720(9) 0.5398(3)
H29 H 0.340(3) 0.453(5) 0.6696(7)
H30 H 0.348(3) 0.389(3) 0.7040(13)
O10 O 0.3545(2) 0.4618(5) 0.69364(17)
H31 H 0.926(3) 0.344(3) 0.7331(15)
O11 O 0.9412(7) 0.4216(13) 0.7311(4)
O12? O 0.5955(6) 0.7318(11) 0.5710(3)
O13? O 0.5229(7) 0.9672(11) 0.5234(4)
loop_
_geom_bond_atom_site_label_1
_geom_bond_atom_site_label_2
_geom_bond_site_symmetry_1
_geom_bond_site_symmetry_2
Co1 N6 1_555 1_555
Co2 N3 1_555 1_555
C1 H1 1_555 1_555
C2 H2 1_555 1_555
C3 C2 1_555 1_555
H3 C3 1_555 1_555
C4 H4 1_555 1_555
H5 C4 1_555 1_555
C5 C4 1_555 1_555
C6 C5 1_555 1_555
H6 C6 1_555 1_555
H7 C6 1_555 1_555
C7 H8 1_555 1_555
C8 H9 1_555 1_555
C9 C8 1_555 1_555
H10 C9 1_555 1_555
C10 C5 1_555 1_555
H11 C10 1_555 1_555
H12 C10 1_555 1_555
C11 H13 1_555 1_555
C12 H14 1_555 1_555
C13 C12 1_555 1_555
H15 C13 1_555 1_555
C14 C5 1_555 1_555
H16 C14 1_555 1_555
H17 C14 1_555 1_555
C15 H18 1_555 1_555
C16 H19 1_555 1_555
C17 C16 1_555 1_555
H20 C17 1_555 1_555
C18 C19 1_555 1_555
C19 C20 1_555 1_555
C20 C21 1_555 1_555
C21 O3 1_555 1_555
C22 C20 1_555 1_555
H21 C22 1_555 1_555
C23 C22 1_555 1_555
H22 C23 1_555 1_555
C24 C23 1_555 1_555
H23 C24 1_555 1_555
C25 C19 1_555 1_555
H24 C25 1_555 1_555
C26 C27 1_555 1_555
C27 C28 1_555 1_555
C28 C29 1_555 1_555
C29 O8 1_555 1_555
C30 C28 1_555 1_555
H25 C30 1_555 1_555
C31 C30 1_555 1_555
H26 C31 1_555 1_555
C32 C31 1_555 1_555
H27 C32 1_555 1_555
C33 C27 1_555 1_555
H28 C33 1_555 1_555
N1 C1 1_555 1_555
N2 C1 1_555 1_555
N3 C7 1_555 1_555
N4 C6 1_555 1_555
N5 C10 1_555 1_555
N6 C11 1_555 1_555
N7 C14 1_555 1_555
N8 C15 1_555 1_555
O1 C18 1_555 1_555
O2 Co1 1_555 1_555
O4 C21 1_555 1_555
O6 C26 1_555 1_555
O7 C26 1_555 1_555
O8 Co2 1_555 1_555
O9 Co2 1_555 1_555
H29 O10 1_555 1_555
H30 O10 1_555 1_555
H31 O11 1_555 1_555
Co1F O4 1_555 1_555
Co1_2 N8 1_555 1_555
Co1F_2 N8F 1_555 1_555
Co2F N2D 1_555 1_555
Co2B N2 1_555 1_555
Co2C O6 1_555 1_555
Co2D N2F 1_555 1_555
Co2E O6F 1_555 1_555
C1F H1F 1_555 1_555
C2F H2F 1_555 1_555
C3F C2F 1_555 1_555
H3F C3F 1_555 1_555
C4F H4F 1_555 1_555
H5F C4F 1_555 1_555
C5F C4F 1_555 1_555
C6F C5F 1_555 1_555
H6F C6F 1_555 1_555
H7F C6F 1_555 1_555
C7F H8F 1_555 1_555
C8F H9F 1_555 1_555
C9F C8F 1_555 1_555
H10F C9F 1_555 1_555
C10F C5F 1_555 1_555
H11F C10F 1_555 1_555
H12F C10F 1_555 1_555
C11F H13F 1_555 1_555
C12F H14F 1_555 1_555
C13F C12F 1_555 1_555
H15F C13F 1_555 1_555
C14F C5F 1_555 1_555
H16F C14F 1_555 1_555
H17F C14F 1_555 1_555
C15F H18F 1_555 1_555
C16F H19F 1_555 1_555
C17F C16F 1_555 1_555
H20F C17F 1_555 1_555
C18F C19F 1_555 1_555
C19F C20F 1_555 1_555
C20F C21F 1_555 1_555
C21F O3F 1_555 1_555
C22F C20F 1_555 1_555
H21F C22F 1_555 1_555
C23F C22F 1_555 1_555
H22F C23F 1_555 1_555
C24F C23F 1_555 1_555
H23F C24F 1_555 1_555
C25F C19F 1_555 1_555
H24F C25F 1_555 1_555
C26F C27F 1_555 1_555
C27F C28F 1_555 1_555
C28F C29F 1_555 1_555
C29F O8F 1_555 1_555
C30F C28F 1_555 1_555
H25F C30F 1_555 1_555
C31F C30F 1_555 1_555
H26F C31F 1_555 1_555
C32F C31F 1_555 1_555
H27F C32F 1_555 1_555
C33F C27F 1_555 1_555
H28F C33F 1_555 1_555
N1F C1F 1_555 1_555
N2F C1F 1_555 1_555
N2B Co2 1_555 1_555
N3F Co2F 1_555 1_555
N4F C6F 1_555 1_555
N5F C10F 1_555 1_555
N6F Co1F 1_555 1_555
N7F C14F 1_555 1_555
N8F C15F 1_555 1_555
N8_2 Co1 1_555 1_555
N8F_2 Co1F 1_555 1_555
O1F C18F 1_555 1_555
O2F Co1F 1_555 1_555
O4F Co1 1_555 1_555
O6F C26F 1_555 1_555
O6C Co2 1_555 1_555
O6E Co2F 1_555 1_555
O7F Co2E 1_555 1_555
O7C Co2 1_555 1_555
O7E Co2F 1_555 1_555
O8F Co2F 1_555 1_555
O9F Co2F 1_555 1_555
C2 N1 1_555 1_555
C3 N2 1_555 1_555
C4 N1 1_555 1_555
C7 N4 1_555 1_555
C8 N4 1_555 1_555
C9 N3 1_555 1_555
C11 N5 1_555 1_555
C12 N6 1_555 1_555
C13 N5 1_555 1_555
C15 N7 1_555 1_555
C16 N8 1_555 1_555
C17 N7 1_555 1_555
C18 O2 1_555 1_555
C24 C25 1_555 1_555
C29 O9 1_555 1_555
C32 C33 1_555 1_555
O7 Co2C 1_555 1_555
C2F N1F 1_555 1_555
C3F N2F 1_555 1_555
C4F N1F 1_555 1_555
C7F N3F 1_555 1_555
C7F N4F 1_555 1_555
C8F N4F 1_555 1_555
C9F N3F 1_555 1_555
C11F N5F 1_555 1_555
C11F N6F 1_555 1_555
C12F N6F 1_555 1_555
C13F N5F 1_555 1_555
C15F N7F 1_555 1_555
C16F N8F 1_555 1_555
C17F N7F 1_555 1_555
C18F O2F 1_555 1_555
C21F O4F 1_555 1_555
C24F C25F 1_555 1_555
C26F O7F 1_555 1_555
C29F O9F 1_555 1_555
C32F C33F 1_555 1_555

#END
