
#######################################################################
#
#                 Cambridge Crystallographic Data Centre
#                                CCDC 
#
#######################################################################
#
# If this CIF has been generated from an entry in the Cambridge 
# Structural Database, then it will include bibliographic, chemical, 
# crystal, experimental, refinement or atomic coordinate data resulting 
# from the CCDC's data processing and validation procedures.
#
#######################################################################

data_CUYVIC
_symmetry_cell_setting           triclinic
_symmetry_space_group_name_H-M   'P -1'
_symmetry_Int_Tables_number      2
_space_group_name_Hall           '-P 1'
loop_
_symmetry_equiv_pos_site_id
_symmetry_equiv_pos_as_xyz
1 x,y,z
2 -x,-y,-z
_cell_length_a                   7.7765(12)
_cell_length_b                   12.553(2)
_cell_length_c                   14.8021(19)
_cell_angle_alpha                66.141(14)
_cell_angle_beta                 89.714(12)
_cell_angle_gamma                73.046(14)
_cell_volume                     1253.46
loop_
_atom_site_label
_atom_site_type_symbol
_atom_site_fract_x
_atom_site_fract_y
_atom_site_fract_z
Co1 Co 0.24837(11) 0.69048(7) -0.45023(5)
Co2 Co 0.0000 0.0000 0.0000
C1 C 0.4427(7) -0.2837(4) -0.2866(3)
H1 H 0.3431 -0.2208 -0.2867
C2 C 0.6126(8) -0.4276(5) -0.3182(4)
H2 H 0.6525 -0.4835 -0.3460
C3 C 0.7122(7) -0.4195(5) -0.2486(4)
H3 H 0.8306 -0.4676 -0.2198
C4 C 0.6417(6) -0.2878(4) -0.1511(3)
H4 H 0.7388 -0.3549 -0.1026
H5 H 0.5351 -0.2776 -0.1172
C5 C 0.6950(6) -0.1706(4) -0.1829(3)
C6 C 0.7078(6) -0.1462(4) -0.0890(3)
H6 H 0.8159 -0.2066 -0.0450
H7 H 0.7232 -0.0661 -0.1093
C7 C 0.3942(6) -0.0600(4) -0.0509(3)
H8 H 0.3663 0.0175 -0.1035
C8 C 0.5432(6) -0.2488(4) 0.0510(3)
H9 H 0.6329 -0.3245 0.0825
C9 C 0.3764(6) -0.2140(4) 0.0781(3)
H10 H 0.3316 -0.2634 0.1320
C10 C 0.8809(6) -0.1813(4) -0.2229(3)
H11 H 0.8719 -0.1918 -0.2840
H12 H 0.9054 -0.1044 -0.2398
C11 C 1.1164(7) -0.3907(4) -0.1587(3)
H13 H 1.0784 -0.4137 -0.2056
C12 C 1.2636(7) -0.3925(5) -0.0379(3)
H14 H 1.3484 -0.4183 0.0168
C13 C 1.1336(6) -0.2826(4) -0.0778(3)
H15 H 1.1138 -0.2197 -0.0570
C14 C 0.5521(6) -0.0642(4) -0.2678(3)
H16 H 0.5391 -0.0902 -0.3201
H17 H 0.4365 -0.0503 -0.2422
C15 C 0.6465(6) 0.0966(4) -0.4026(3)
H18 H 0.6703 0.0555 -0.4435
C16 C 0.5683(6) 0.1411(4) -0.2770(3)
H19 H 0.5295 0.1377 -0.2166
C17 C 0.6138(6) 0.2332(4) -0.3461(3)
H20 H 0.6122 0.3053 -0.3417
C18 C 0.0256(6) 0.1288(4) -0.1726(3)
C19 C 0.0698(6) 0.1994(4) -0.2727(3)
C20 C 0.0784(6) 0.1575(4) -0.3467(3)
H21 H 0.0493 0.0867 -0.3351
C21 C 0.1305(6) 0.2209(4) -0.4381(3)
C22 C 0.1722(6) 0.3268(4) -0.4542(3)
H22 H 0.2094 0.3686 -0.5146
C23 C 0.1596(6) 0.3713(4) -0.3822(3)
C24 C 0.1067(6) 0.3077(4) -0.2910(3)
H23 H 0.0961 0.3377 -0.2425
C25 C 0.1335(7) 0.1778(4) -0.5197(3)
C26 C 0.1959(6) 0.4879(4) -0.3988(3)
N1 N 0.4449(6) -0.3422(4) -0.3422(2)
N2 N 0.6029(5) -0.3255(3) -0.2287(2)
N3 N 0.5528(5) -0.1497(3) -0.0324(2)
N4 N 0.2833(5) -0.0946(3) 0.0139(2)
N5 N 1.0362(5) -0.2817(3) -0.1548(2)
N6 N 1.2547(6) -0.4605(4) -0.0882(3)
N7 N 0.6635(5) 0.2043(3) -0.4249(2)
N8 N 0.5897(5) 0.0521(3) -0.3119(2)
O1 O -0.0130(4) 0.0316(3) -0.15427(19)
O2 O 0.0392(4) 0.1622(3) -0.10349(18)
O3 O 0.2654(4) 0.5407(3) -0.4760(2)
O4 O 0.1559(6) 0.5338(3) -0.3381(2)
O5 O -0.0217(5) 0.1956(3) -0.5626(2)
O6 O 0.2793(6) 0.1299(4) -0.5414(3)
Co1A Co -0.24837(11) -0.69048(7) 0.45023(5)
Co1_2 Co -0.75163(11) -0.30952(7) 0.54977(5)
Co1_3 Co 0.24837(11) -0.30952(7) -0.45023(5)
Co1_4 Co 0.24837(11) -0.30952(7) 0.54977(5)
Co1A_2 Co -0.24837(11) 0.30952(7) -0.54977(5)
Co1A_3 Co -0.24837(11) 0.30952(7) 0.45023(5)
Co1A_4 Co 0.75163(11) 0.30952(7) -0.54977(5)
C1A C -0.4427(7) 0.2837(4) 0.2866(3)
H1A H -0.3431 0.2208 0.2867
C2A C -0.6126(8) 0.4276(5) 0.3182(4)
H2A H -0.6525 0.4835 0.3460
C3A C -0.7122(7) 0.4195(5) 0.2486(4)
H3A H -0.8306 0.4676 0.2198
C4A C -0.6417(6) 0.2878(4) 0.1511(3)
H4A H -0.7388 0.3549 0.1026
H5A H -0.5351 0.2776 0.1172
C5A C -0.6950(6) 0.1706(4) 0.1829(3)
C6A C -0.7078(6) 0.1462(4) 0.0890(3)
H6A H -0.8159 0.2066 0.0450
H7A H -0.7232 0.0661 0.1093
C7A C -0.3942(6) 0.0600(4) 0.0509(3)
H8A H -0.3663 -0.0175 0.1035
C8A C -0.5432(6) 0.2488(4) -0.0510(3)
H9A H -0.6329 0.3245 -0.0825
C9A C -0.3764(6) 0.2140(4) -0.0781(3)
H10A H -0.3316 0.2634 -0.1320
C10A C -0.8809(6) 0.1813(4) 0.2229(3)
H11A H -0.8719 0.1918 0.2840
H12A H -0.9054 0.1044 0.2398
C11A C -1.1164(7) 0.3907(4) 0.1587(3)
H13A H -1.0784 0.4137 0.2056
C12A C -1.2636(7) 0.3925(5) 0.0379(3)
H14A H -1.3484 0.4183 -0.0168
C13A C -1.1336(6) 0.2826(4) 0.0778(3)
H15A H -1.1138 0.2197 0.0570
C14A C -0.5521(6) 0.0642(4) 0.2678(3)
H16A H -0.5391 0.0902 0.3201
H17A H -0.4365 0.0503 0.2422
C15A C -0.6465(6) -0.0966(4) 0.4026(3)
H18A H -0.6703 -0.0555 0.4435
C16A C -0.5683(6) -0.1411(4) 0.2770(3)
H19A H -0.5295 -0.1377 0.2166
C17A C -0.6138(6) -0.2332(4) 0.3461(3)
H20A H -0.6122 -0.3053 0.3417
C18A C -0.0256(6) -0.1288(4) 0.1726(3)
C19A C -0.0698(6) -0.1994(4) 0.2727(3)
C20A C -0.0784(6) -0.1575(4) 0.3467(3)
H21A H -0.0493 -0.0867 0.3351
C21A C -0.1305(6) -0.2209(4) 0.4381(3)
C22A C -0.1722(6) -0.3268(4) 0.4542(3)
H22A H -0.2094 -0.3686 0.5146
C23A C -0.1596(6) -0.3713(4) 0.3822(3)
C24A C -0.1067(6) -0.3077(4) 0.2910(3)
H23A H -0.0961 -0.3377 0.2425
C25A C -0.1335(7) -0.1778(4) 0.5197(3)
C26A C -0.1959(6) -0.4879(4) 0.3988(3)
N1A N -0.4449(6) 0.3422(4) 0.3422(2)
N1_2 N 0.4449(6) 0.6578(4) -0.3422(2)
N1A_2 N -0.4449(6) -0.6578(4) 0.3422(2)
N2A N -0.6029(5) 0.3255(3) 0.2287(2)
N3A N -0.5528(5) 0.1497(3) 0.0324(2)
N4A N -0.2833(5) 0.0946(3) -0.0139(2)
N5A N -1.0362(5) 0.2817(3) 0.1548(2)
N6A N -1.2547(6) 0.4605(4) 0.0882(3)
N7A N -0.6635(5) -0.2043(3) 0.4249(2)
N7_2 N -0.3365(5) -0.7957(3) 0.5751(2)
N7A_2 N 0.3365(5) 0.7957(3) -0.5751(2)
N8A N -0.5897(5) -0.0521(3) 0.3119(2)
O1A O 0.0130(4) -0.0316(3) 0.15427(19)
O2A O -0.0392(4) -0.1622(3) 0.10349(18)
O3A O -0.2654(4) -0.5407(3) 0.4760(2)
O4A O -0.1559(6) -0.5338(3) 0.3381(2)
O5A O 0.0217(5) -0.1956(3) 0.5626(2)
O5_2 O -0.0217(5) -0.8044(3) 0.4374(2)
O5A_2 O 0.0217(5) 0.8044(3) -0.4374(2)
O6A O -0.2793(6) -0.1299(4) 0.5414(3)
loop_
_geom_bond_atom_site_label_1
_geom_bond_atom_site_label_2
_geom_bond_site_symmetry_1
_geom_bond_site_symmetry_2
Co1 O3 1_555 1_555
Co2 N4 1_555 1_555
C1 H1 1_555 1_555
C2 H2 1_555 1_555
C3 C2 1_555 1_555
H3 C3 1_555 1_555
C4 H4 1_555 1_555
H5 C4 1_555 1_555
C5 C4 1_555 1_555
C6 C5 1_555 1_555
H6 C6 1_555 1_555
H7 C6 1_555 1_555
C7 H8 1_555 1_555
C8 H9 1_555 1_555
C9 C8 1_555 1_555
H10 C9 1_555 1_555
C10 C5 1_555 1_555
H11 C10 1_555 1_555
H12 C10 1_555 1_555
C11 H13 1_555 1_555
C12 H14 1_555 1_555
C13 C12 1_555 1_555
H15 C13 1_555 1_555
C14 C5 1_555 1_555
H16 C14 1_555 1_555
H17 C14 1_555 1_555
C15 H18 1_555 1_555
C16 H19 1_555 1_555
C17 C16 1_555 1_555
H20 C17 1_555 1_555
C18 C19 1_555 1_555
C19 C20 1_555 1_555
C20 H21 1_555 1_555
C21 C20 1_555 1_555
C22 C21 1_555 1_555
H22 C22 1_555 1_555
C23 C22 1_555 1_555
C24 C19 1_555 1_555
H23 C24 1_555 1_555
C25 C21 1_555 1_555
C26 C23 1_555 1_555
N1 C1 1_555 1_555
N2 C1 1_555 1_555
N3 C6 1_555 1_555
N4 C7 1_555 1_555
N5 C10 1_555 1_555
N6 C11 1_555 1_555
N7 C15 1_555 1_555
N8 C14 1_555 1_555
O1 Co2 1_555 1_555
O2 Co2 1_555 1_555
O3 C26 1_555 1_555
O4 Co1 1_555 1_555
O5 C25 1_555 1_555
O6 C25 1_555 1_555
Co1A N1A_2 1_555 1_555
Co1_2 N7A 1_555 1_555
Co1_3 N1 1_555 1_555
Co1_4 O5A 1_555 1_555
Co1A_2 O5 1_555 1_555
Co1A_3 N1A 1_555 1_555
Co1A_4 N7 1_555 1_555
C1A H1A 1_555 1_555
C2A H2A 1_555 1_555
C3A C2A 1_555 1_555
H3A C3A 1_555 1_555
C4A H4A 1_555 1_555
H5A C4A 1_555 1_555
C5A C4A 1_555 1_555
C6A C5A 1_555 1_555
H6A C6A 1_555 1_555
H7A C6A 1_555 1_555
C7A H8A 1_555 1_555
C8A H9A 1_555 1_555
C9A C8A 1_555 1_555
H10A C9A 1_555 1_555
C10A C5A 1_555 1_555
H11A C10A 1_555 1_555
H12A C10A 1_555 1_555
C11A H13A 1_555 1_555
C12A H14A 1_555 1_555
C13A C12A 1_555 1_555
H15A C13A 1_555 1_555
C14A C5A 1_555 1_555
H16A C14A 1_555 1_555
H17A C14A 1_555 1_555
C15A H18A 1_555 1_555
C16A H19A 1_555 1_555
C17A C16A 1_555 1_555
H20A C17A 1_555 1_555
C18A C19A 1_555 1_555
C19A C20A 1_555 1_555
C20A H21A 1_555 1_555
C21A C20A 1_555 1_555
C22A C21A 1_555 1_555
H22A C22A 1_555 1_555
C23A C22A 1_555 1_555
C24A C19A 1_555 1_555
H23A C24A 1_555 1_555
C25A C21A 1_555 1_555
C26A C23A 1_555 1_555
N1A C1A 1_555 1_555
N1_2 Co1 1_555 1_555
N2A C1A 1_555 1_555
N3A C6A 1_555 1_555
N4A Co2 1_555 1_555
N5A C10A 1_555 1_555
N6A C11A 1_555 1_555
N7A C15A 1_555 1_555
N7_2 Co1A 1_555 1_555
N7A_2 Co1 1_555 1_555
N8A C14A 1_555 1_555
O1A Co2 1_555 1_555
O2A Co2 1_555 1_555
O3A Co1A 1_555 1_555
O4A Co1A 1_555 1_555
O5A C25A 1_555 1_555
O5_2 Co1A 1_555 1_555
O5A_2 Co1 1_555 1_555
O6A C25A 1_555 1_555
C2 N1 1_555 1_555
C3 N2 1_555 1_555
C4 N2 1_555 1_555
C7 N3 1_555 1_555
C8 N3 1_555 1_555
C9 N4 1_555 1_555
C11 N5 1_555 1_555
C12 N6 1_555 1_555
C13 N5 1_555 1_555
C15 N8 1_555 1_555
C16 N8 1_555 1_555
C17 N7 1_555 1_555
C18 O1 1_555 1_555
C18 O2 1_555 1_555
C23 C24 1_555 1_555
C26 O4 1_555 1_555
C2A N1A 1_555 1_555
C3A N2A 1_555 1_555
C4A N2A 1_555 1_555
C7A N3A 1_555 1_555
C7A N4A 1_555 1_555
C8A N3A 1_555 1_555
C9A N4A 1_555 1_555
C11A N5A 1_555 1_555
C12A N6A 1_555 1_555
C13A N5A 1_555 1_555
C15A N8A 1_555 1_555
C16A N8A 1_555 1_555
C17A N7A 1_555 1_555
C18A O1A 1_555 1_555
C18A O2A 1_555 1_555
C23A C24A 1_555 1_555
C26A O3A 1_555 1_555
C26A O4A 1_555 1_555

#END
