
#######################################################################
#
#                 Cambridge Crystallographic Data Centre
#                                CCDC 
#
#######################################################################
#
# If this CIF has been generated from an entry in the Cambridge 
# Structural Database, then it will include bibliographic, chemical, 
# crystal, experimental, refinement or atomic coordinate data resulting 
# from the CCDC's data processing and validation procedures.
#
#######################################################################

data_CUYVUO
_symmetry_cell_setting           monoclinic
_symmetry_space_group_name_H-M   'C 2/c'
_symmetry_Int_Tables_number      15
_space_group_name_Hall           '-C 2yn'
loop_
_symmetry_equiv_pos_site_id
_symmetry_equiv_pos_as_xyz
1 x,y,z
2 -x,y,1/2-z
3 1/2+x,1/2+y,z
4 1/2-x,1/2+y,1/2-z
5 -x,-y,-z
6 x,-y,1/2+z
7 1/2-x,1/2-y,-z
8 1/2+x,1/2-y,1/2+z
_cell_length_a                   17.532(5)
_cell_length_b                   12.212(5)
_cell_length_c                   27.703(5)
_cell_angle_alpha                90
_cell_angle_beta                 101.918(5)
_cell_angle_gamma                90
_cell_volume                     5803.38
loop_
_atom_site_label
_atom_site_type_symbol
_atom_site_fract_x
_atom_site_fract_y
_atom_site_fract_z
Co1 Co 0.52648(2) 0.16456(3) 0.112059(15)
C1 C 0.48016(17) -0.0860(2) 0.12375(12)
H1 H 0.4276 -0.0701 0.1210
C2 C 0.51179(17) -0.1867(2) 0.13230(12)
H2 H 0.4859 -0.2513 0.1366
C3 C 0.60152(16) -0.0672(2) 0.12638(10)
H3 H 0.6501 -0.0367 0.1263
C4 C 0.65018(16) -0.2598(2) 0.14334(9)
H4 H 0.6401 -0.3056 0.1699
H5 H 0.7002 -0.2246 0.1549
C5 C 0.65655(15) -0.3341(2) 0.09945(9)
C6 C 0.71753(15) -0.4237(2) 0.11931(10)
H6 H 0.7012 -0.4618 0.1462
H7 H 0.7183 -0.4766 0.0933
C7 C 0.85222(16) -0.3759(2) 0.11019(10)
H8 H 0.8447 -0.3949 0.0770
C8 C 0.82970(17) -0.3462(3) 0.18348(10)
H9 H 0.8057 -0.3407 0.2103
C9 C 0.90414(18) -0.3206(3) 0.18242(10)
H10 H 0.9404 -0.2938 0.2091
C10 C 0.58023(15) -0.3936(2) 0.07640(10)
H11 H 0.5380 -0.3409 0.0723
H12 H 0.5841 -0.4187 0.0438
C11 C 0.53255(19) -0.4906(2) 0.14717(11)
H13 H 0.5262 -0.4318 0.1673
C12 C 0.56003(16) -0.5909(2) 0.08778(10)
H14 H 0.5765 -0.6108 0.0592
C13 C 0.5173(2) -0.5975(2) 0.15440(12)
H15 H 0.4979 -0.6242 0.1809
C14 C 0.68661(15) -0.2749(2) 0.05736(9)
H16 H 0.7311 -0.2304 0.0722
H17 H 0.7052 -0.3302 0.0374
C15 C 0.63126(17) -0.0914(2) 0.02290(10)
H18 H 0.6646 -0.0447 0.0439
C16 C 0.57384(17) -0.0624(2) -0.01504(10)
H19 H 0.5601 0.0094 -0.0243
C17 C 0.57453(16) -0.2378(2) -0.01381(9)
H20 H 0.5629 -0.3107 -0.0217
N1 N 0.58984(13) -0.17439(18) 0.13341(8)
N2 N 0.53620(13) -0.01059(18) 0.11967(8)
N3 N 0.79644(12) -0.38219(18) 0.13683(8)
N4 N 0.91868(13) -0.33981(19) 0.13646(8)
N5 N 0.55935(13) -0.48723(18) 0.10397(8)
N6 N 0.53470(13) -0.66101(18) 0.11706(8)
N7 N 0.63087(13) -0.20475(18) 0.02434(8)
N8 N 0.53823(13) -0.15472(18) -0.03832(8)
O9 O 0.63132(12) 0.16261(18) 0.08044(8)
H25 H 0.627(2) 0.169(3) 0.0492(7)
H26 H 0.6738(14) 0.189(3) 0.0979(11)
O10 O 0.59588(14) 0.16844(19) 0.18367(8)
H27 H 0.594(2) 0.112(2) 0.2002(13)
H28 H 0.6363(16) 0.208(3) 0.1914(14)
Co1D Co 0.47352(2) -0.16456(3) -0.112059(15)
Co1_2 Co 0.52648(2) -0.83544(3) 0.112059(15)
Co1B Co 1.02648(2) -0.33544(3) 0.112059(15)
Co1D_2 Co 0.47352(2) 0.83544(3) -0.112059(15)
Co1F Co -0.02648(2) 0.33544(3) -0.112059(15)
C1D C 0.51984(17) 0.0860(2) -0.12375(12)
H1D H 0.5724 0.0701 -0.1210
C2D C 0.48821(17) 0.1867(2) -0.13230(12)
H2D H 0.5141 0.2513 -0.1366
C3D C 0.39848(16) 0.0672(2) -0.12638(10)
H3D H 0.3499 0.0367 -0.1263
C4D C 0.34982(16) 0.2598(2) -0.14334(9)
H4D H 0.3599 0.3056 -0.1699
H5D H 0.2998 0.2246 -0.1549
C5D C 0.34345(15) 0.3341(2) -0.09945(9)
C6D C 0.28247(15) 0.4237(2) -0.11931(10)
H6D H 0.2988 0.4618 -0.1462
H7D H 0.2817 0.4766 -0.0933
C7D C 0.14778(16) 0.3759(2) -0.11019(10)
H8D H 0.1553 0.3949 -0.0770
C8D C 0.17030(17) 0.3462(3) -0.18348(10)
H9D H 0.1943 0.3407 -0.2103
C9D C 0.09586(18) 0.3206(3) -0.18242(10)
H10D H 0.0596 0.2938 -0.2091
C10D C 0.41977(15) 0.3936(2) -0.07640(10)
H11D H 0.4620 0.3409 -0.0723
H12D H 0.4159 0.4187 -0.0438
C11D C 0.46745(19) 0.4906(2) -0.14717(11)
H13D H 0.4738 0.4318 -0.1673
C12D C 0.43997(16) 0.5909(2) -0.08778(10)
H14D H 0.4235 0.6108 -0.0592
C13D C 0.4827(2) 0.5975(2) -0.15440(12)
H15D H 0.5021 0.6242 -0.1809
C14D C 0.31339(15) 0.2749(2) -0.05736(9)
H16D H 0.2689 0.2304 -0.0722
H17D H 0.2948 0.3302 -0.0374
C15D C 0.36874(17) 0.0914(2) -0.02290(10)
H18D H 0.3354 0.0447 -0.0439
C16D C 0.42616(17) 0.0624(2) 0.01504(10)
H19D H 0.4399 -0.0094 0.0243
C17D C 0.42547(16) 0.2378(2) 0.01381(9)
H20D H 0.4371 0.3107 0.0217
N1D N 0.41016(13) 0.17439(18) -0.13341(8)
N2D N 0.46380(13) 0.01059(18) -0.11967(8)
N3D N 0.20356(12) 0.38219(18) -0.13683(8)
N4D N 0.08132(13) 0.33981(19) -0.13646(8)
N4B N 0.41868(13) 0.16019(19) 0.13646(8)
N4F N 0.58132(13) -0.16019(19) -0.13646(8)
N5D N 0.44065(13) 0.48723(18) -0.10397(8)
N6D N 0.46530(13) 0.66101(18) -0.11706(8)
N6_2 N 0.53470(13) 0.33899(18) 0.11706(8)
N6D_2 N 0.46530(13) -0.33899(18) -0.11706(8)
N7D N 0.36913(13) 0.20475(18) -0.02434(8)
N8D N 0.46177(13) 0.15472(18) 0.03832(8)
O9D O 0.36868(12) -0.16261(18) -0.08044(8)
H25D H 0.373(2) -0.169(3) -0.0492(7)
H26D H 0.3262(14) -0.189(3) -0.0979(11)
O10D O 0.40412(14) -0.16844(19) -0.18367(8)
H27D H 0.406(2) -0.112(2) -0.2002(13)
H28D H 0.3637(16) -0.208(3) -0.1914(14)
C18 C 0.84608(19) 0.0183(3) 0.04696(11)
C19 C 0.82842(16) 0.0921(2) 0.08768(10)
C20 C 0.82215(16) 0.2068(2) 0.08691(10)
C21 C 0.82832(19) 0.2855(3) 0.04500(11)
C22 C 0.80770(16) 0.2589(2) 0.12913(10)
H21 H 0.8019 0.3346 0.1287
C23 C 0.80168(16) 0.2021(2) 0.17161(10)
C24 C 0.79210(17) 0.2699(2) 0.21598(10)
C25 C 0.80626(16) 0.0885(2) 0.17192(10)
C26 C 0.79753(17) 0.0238(2) 0.21633(10)
C27 C 0.81888(16) 0.0355(2) 0.12972(10)
H22 H 0.8210 -0.0406 0.1296
O1 O 0.88720(15) 0.0597(2) 0.01751(9)
O2 O 0.82454(16) -0.0769(2) 0.04513(9)
O3 O 0.87006(16) 0.2550(2) 0.01385(9)
H23 H 0.8884 0.1941 0.0215
O4 O 0.79666(17) 0.3742(2) 0.04302(10)
O5 O 0.72384(13) 0.29594(18) 0.21875(8)
O6 O 0.85296(13) 0.2983(2) 0.24460(8)
O7 O 0.79352(16) 0.06677(19) 0.25514(8)
O8 O 0.79375(16) -0.08186(18) 0.20896(8)
H24 H 0.7869 -0.1207 0.2373
O11 O 0.9260(2) 0.4899(2) 0.26375(11)
H29 H 0.899(3) 0.426(3) 0.259(2)
H30 H 0.913(3) 0.521(4) 0.2351(12)
O12 O 1.0000 0.1723(4) 0.2500
H31 H 0.962(3) 0.214(4) 0.252(3)
H31A H 1.038(3) 0.214(4) 0.248(3)
loop_
_geom_bond_atom_site_label_1
_geom_bond_atom_site_label_2
_geom_bond_site_symmetry_1
_geom_bond_site_symmetry_2
Co1 N2 1_555 1_555
C1 H1 1_555 1_555
C2 C1 1_555 1_555
H2 C2 1_555 1_555
C3 H3 1_555 1_555
C4 H4 1_555 1_555
H5 C4 1_555 1_555
C5 C4 1_555 1_555
C6 C5 1_555 1_555
H6 C6 1_555 1_555
H7 C6 1_555 1_555
C7 H8 1_555 1_555
C8 H9 1_555 1_555
C9 C8 1_555 1_555
H10 C9 1_555 1_555
C10 C5 1_555 1_555
H11 C10 1_555 1_555
H12 C10 1_555 1_555
C11 H13 1_555 1_555
C12 H14 1_555 1_555
C13 C11 1_555 1_555
H15 C13 1_555 1_555
C14 C5 1_555 1_555
H16 C14 1_555 1_555
H17 C14 1_555 1_555
C15 H18 1_555 1_555
C16 C15 1_555 1_555
H19 C16 1_555 1_555
C17 H20 1_555 1_555
C18 C19 1_555 1_555
C19 C20 1_555 1_555
C20 C21 1_555 1_555
C21 O3 1_555 1_555
C22 C20 1_555 1_555
H21 C22 1_555 1_555
C23 C22 1_555 1_555
C24 C23 1_555 1_555
C25 C23 1_555 1_555
C26 C25 1_555 1_555
C27 C19 1_555 1_555
H22 C27 1_555 1_555
O1 C18 1_555 1_555
O2 C18 1_555 1_555
O3 H23 1_555 1_555
O4 C21 1_555 1_555
O5 C24 1_555 1_555
O6 C24 1_555 1_555
O7 C26 1_555 1_555
O8 C26 1_555 1_555
H24 O8 1_555 1_555
N1 C2 1_555 1_555
N2 C1 1_555 1_555
N3 C6 1_555 1_555
N4 C7 1_555 1_555
N5 C10 1_555 1_555
N6 C12 1_555 1_555
N7 C14 1_555 1_555
N8 C16 1_555 1_555
O9 Co1 1_555 1_555
H25 O9 1_555 1_555
H26 O9 1_555 1_555
O10 Co1 1_555 1_555
H27 O10 1_555 1_555
H28 O10 1_555 1_555
O11 H29 1_555 1_555
H30 O11 1_555 1_555
O12 H31 1_555 1_555
Co1D N8 1_555 1_555
Co1_2 N6 1_555 1_555
Co1B N4 1_555 1_555
Co1D_2 N6D 1_555 1_555
Co1F N4D 1_555 1_555
C1D H1D 1_555 1_555
C2D C1D 1_555 1_555
H2D C2D 1_555 1_555
C3D H3D 1_555 1_555
C4D H4D 1_555 1_555
H5D C4D 1_555 1_555
C5D C4D 1_555 1_555
C6D C5D 1_555 1_555
H6D C6D 1_555 1_555
H7D C6D 1_555 1_555
C7D H8D 1_555 1_555
C8D H9D 1_555 1_555
C9D C8D 1_555 1_555
H10D C9D 1_555 1_555
C10D C5D 1_555 1_555
H11D C10D 1_555 1_555
H12D C10D 1_555 1_555
C11D H13D 1_555 1_555
C12D H14D 1_555 1_555
C13D C11D 1_555 1_555
H15D C13D 1_555 1_555
C14D C5D 1_555 1_555
H16D C14D 1_555 1_555
H17D C14D 1_555 1_555
C15D H18D 1_555 1_555
C16D C15D 1_555 1_555
H19D C16D 1_555 1_555
C17D H20D 1_555 1_555
N1D C2D 1_555 1_555
N2D Co1D 1_555 1_555
N3D C6D 1_555 1_555
N4D C7D 1_555 1_555
N4B Co1 1_555 1_555
N4F Co1D 1_555 1_555
N5D C10D 1_555 1_555
N6D C12D 1_555 1_555
N6_2 Co1 1_555 1_555
N6D_2 Co1D 1_555 1_555
N7D C14D 1_555 1_555
N8D Co1 1_555 1_555
O9D Co1D 1_555 1_555
H25D O9D 1_555 1_555
H26D O9D 1_555 1_555
O10D Co1D 1_555 1_555
H27D O10D 1_555 1_555
H28D O10D 1_555 1_555
H31A O12 1_555 1_555
C3 N1 1_555 1_555
C3 N2 1_555 1_555
C4 N1 1_555 1_555
C7 N3 1_555 1_555
C8 N3 1_555 1_555
C9 N4 1_555 1_555
C11 N5 1_555 1_555
C12 N5 1_555 1_555
C13 N6 1_555 1_555
C15 N7 1_555 1_555
C17 N7 1_555 1_555
C17 N8 1_555 1_555
C25 C27 1_555 1_555
C1D N2D 1_555 1_555
C3D N1D 1_555 1_555
C3D N2D 1_555 1_555
C4D N1D 1_555 1_555
C7D N3D 1_555 1_555
C8D N3D 1_555 1_555
C9D N4D 1_555 1_555
C11D N5D 1_555 1_555
C12D N5D 1_555 1_555
C13D N6D 1_555 1_555
C15D N7D 1_555 1_555
C16D N8D 1_555 1_555
C17D N7D 1_555 1_555
C17D N8D 1_555 1_555

#END
