
#######################################################################
#
#                 Cambridge Crystallographic Data Centre
#                                CCDC 
#
#######################################################################
#
# If this CIF has been generated from an entry in the Cambridge 
# Structural Database, then it will include bibliographic, chemical, 
# crystal, experimental, refinement or atomic coordinate data resulting 
# from the CCDC's data processing and validation procedures.
#
#######################################################################

data_CUYWID
_symmetry_cell_setting           orthorhombic
_symmetry_space_group_name_H-M   'I b a m'
_symmetry_Int_Tables_number      72
_space_group_name_Hall           '-I 2 2c'
loop_
_symmetry_equiv_pos_site_id
_symmetry_equiv_pos_as_xyz
1 x,y,z
2 -x,-y,z
3 1/2-x,1/2+y,-z
4 1/2+x,1/2-y,-z
5 1/2+x,1/2+y,1/2+z
6 1/2-x,1/2-y,1/2+z
7 -x,y,1/2-z
8 x,-y,1/2-z
9 -x,-y,-z
10 x,y,-z
11 1/2+x,1/2-y,z
12 1/2-x,1/2+y,z
13 1/2-x,1/2-y,1/2-z
14 1/2+x,1/2+y,1/2-z
15 x,-y,1/2+z
16 -x,y,1/2+z
_cell_length_a                   14.128(8)
_cell_length_b                   16.005(10)
_cell_length_c                   18.140(11)
_cell_angle_alpha                90
_cell_angle_beta                 90
_cell_angle_gamma                90
_cell_volume                     4101.79
loop_
_atom_site_label
_atom_site_type_symbol
_atom_site_fract_x
_atom_site_fract_y
_atom_site_fract_z
Co1 Co 0.0000 0.0000 1.0000
O1 O -0.0754(3) 0.1156(3) 1.0000
H1 H -0.0679 0.1365 1.0409
O2 O 0.1652(3) 0.1730(4) 0.6522(3)
N1 N 0.0931(2) 0.0426(3) 0.9110(2)
N2 N 0.2698(3) 0.1326(4) 0.7420(3)
H6 H 0.3292 0.1286 0.7518
N3 N 0.3222(3) 0.1920(3) 0.6360(3)
H7 H 0.3777 0.1808 0.6527
C1 C 0.0588(3) 0.0902(3) 0.8556(3)
H8 H -0.0054 0.1030 0.8563
C2 C 0.1116(3) 0.1208(3) 0.7988(3)
H9 H 0.0835 0.1533 0.7624
C3 C 0.2078(3) 0.1029(4) 0.7958(3)
C4 C 0.2442(4) 0.0545(4) 0.8517(3)
H10 H 0.3085 0.0420 0.8526
C5 C 0.1861(3) 0.0248(4) 0.9061(3)
H11 H 0.2124 -0.0098 0.9419
C6 C 0.2466(4) 0.1675(4) 0.6752(3)
C7 C 0.3143(4) 0.2365(3) 0.5667(3)
H12 H 0.3648 0.2775 0.5641
H13 H 0.2547 0.2665 0.5662
C8 C 0.3191(5) 0.1829(5) 0.5000
H14 H 0.2667 0.1437 0.5000
H15 H 0.3777 0.1513 0.5000
Co1_2 Co 0.0000 0.0000 0.0000
O1A O 0.0754(3) -0.1156(3) 1.0000
H1I H -0.0679 0.1365 0.9591
H1A H 0.0679 -0.1365 1.0409
H1H H 0.0679 -0.1365 0.9591
O2I O 0.1652(3) 0.1730(4) 0.3478(3)
O2A O -0.1652(3) -0.1730(4) 0.6522(3)
O2H O -0.1652(3) -0.1730(4) 0.3478(3)
N1I N 0.0931(2) 0.0426(3) 0.0890(2)
N1A N -0.0931(2) -0.0426(3) 0.9110(2)
N1H N -0.0931(2) -0.0426(3) 0.0890(2)
N1H_2 N -0.0931(2) -0.0426(3) 1.0890(2)
N1I_2 N 0.0931(2) 0.0426(3) 1.0890(2)
N2I N 0.2698(3) 0.1326(4) 0.2580(3)
N2A N -0.2698(3) -0.1326(4) 0.7420(3)
N2H N -0.2698(3) -0.1326(4) 0.2580(3)
H6I H 0.3292 0.1286 0.2482
H6A H -0.3292 -0.1286 0.7518
H6H H -0.3292 -0.1286 0.2482
N3I N 0.3222(3) 0.1920(3) 0.3640(3)
N3A N -0.3222(3) -0.1920(3) 0.6360(3)
N3H N -0.3222(3) -0.1920(3) 0.3640(3)
H7I H 0.3777 0.1808 0.3473
H7A H -0.3777 -0.1808 0.6527
H7H H -0.3777 -0.1808 0.3473
C1I C 0.0588(3) 0.0902(3) 0.1444(3)
C1A C -0.0588(3) -0.0902(3) 0.8556(3)
C1H C -0.0588(3) -0.0902(3) 0.1444(3)
H8I H -0.0054 0.1030 0.1437
H8A H 0.0054 -0.1030 0.8563
H8H H 0.0054 -0.1030 0.1437
C2I C 0.1116(3) 0.1208(3) 0.2012(3)
C2A C -0.1116(3) -0.1208(3) 0.7988(3)
C2H C -0.1116(3) -0.1208(3) 0.2012(3)
H9I H 0.0835 0.1533 0.2376
H9A H -0.0835 -0.1533 0.7624
H9H H -0.0835 -0.1533 0.2376
C3I C 0.2078(3) 0.1029(4) 0.2042(3)
C3A C -0.2078(3) -0.1029(4) 0.7958(3)
C3H C -0.2078(3) -0.1029(4) 0.2042(3)
C4I C 0.2442(4) 0.0545(4) 0.1483(3)
C4A C -0.2442(4) -0.0545(4) 0.8517(3)
C4H C -0.2442(4) -0.0545(4) 0.1483(3)
H10I H 0.3085 0.0420 0.1474
H10A H -0.3085 -0.0420 0.8526
H10H H -0.3085 -0.0420 0.1474
C5I C 0.1861(3) 0.0248(4) 0.0939(3)
C5A C -0.1861(3) -0.0248(4) 0.9061(3)
C5H C -0.1861(3) -0.0248(4) 0.0939(3)
H11I H 0.2124 -0.0098 0.0581
H11A H -0.2124 0.0098 0.9419
H11H H -0.2124 0.0098 0.0581
C6I C 0.2466(4) 0.1675(4) 0.3248(3)
C6A C -0.2466(4) -0.1675(4) 0.6752(3)
C6H C -0.2466(4) -0.1675(4) 0.3248(3)
C7I C 0.3143(4) 0.2365(3) 0.4333(3)
C7A C -0.3143(4) -0.2365(3) 0.5667(3)
C7H C -0.3143(4) -0.2365(3) 0.4333(3)
H12I H 0.3648 0.2775 0.4359
H12A H -0.3648 -0.2775 0.5641
H12H H -0.3648 -0.2775 0.4359
H13I H 0.2547 0.2665 0.4338
H13A H -0.2547 -0.2665 0.5662
H13H H -0.2547 -0.2665 0.4338
C8A C -0.3191(5) -0.1829(5) 0.5000
H14A H -0.2667 -0.1437 0.5000
H15A H -0.3777 -0.1513 0.5000
Cl1 Cl 0.5000 0.1435(2) 0.7500
O3 O 0.0518(7) 0.2656(6) 0.5565(5)
H2 H 0.0012 0.2778 0.5766
H3 H 0.0982 0.2567 0.5839
O4 O 0.0880(14) 0.4286(10) 0.5000
H4 H 0.070(4) 0.445(4) 0.545(2)
H4I H 0.070(4) 0.445(4) 0.455(2)
O5 O 0.0000 0.5000 0.6273(5)
H5 H 0.004(6) 0.545(3) 0.654(4)
H5A H -0.004(6) 0.455(3) 0.654(4)
loop_
_geom_bond_atom_site_label_1
_geom_bond_atom_site_label_2
_geom_bond_site_symmetry_1
_geom_bond_site_symmetry_2
Co1 O1 1_555 1_555
O1 H1 1_555 1_555
O2 C6 1_555 1_555
O3 H2 1_555 1_555
H3 O3 1_555 1_555
O4 H4 1_555 1_555
O5 H5 1_555 1_555
N1 Co1 1_555 1_555
N2 H6 1_555 1_555
N3 H7 1_555 1_555
C1 N1 1_555 1_555
H8 C1 1_555 1_555
C2 C1 1_555 1_555
H9 C2 1_555 1_555
C3 N2 1_555 1_555
C4 C3 1_555 1_555
H10 C4 1_555 1_555
C5 N1 1_555 1_555
H11 C5 1_555 1_555
C6 N2 1_555 1_555
C7 N3 1_555 1_555
H12 C7 1_555 1_555
H13 C7 1_555 1_555
C8 C7 1_555 1_555
H14 C8 1_555 1_555
H15 C8 1_555 1_555
Co1_2 N1I 1_555 1_555
O1A Co1 1_555 1_555
H1I O1 1_555 1_555
H1A O1A 1_555 1_555
H1H O1A 1_555 1_555
O2I C6I 1_555 1_555
O2A C6A 1_555 1_555
O2H C6H 1_555 1_555
H4I O4 1_555 1_555
H5A O5 1_555 1_555
N1I C1I 1_555 1_555
N1A Co1 1_555 1_555
N1H Co1_2 1_555 1_555
N1H_2 Co1 1_555 1_555
N1I_2 Co1 1_555 1_555
N2I H6I 1_555 1_555
N2A H6A 1_555 1_555
N2H H6H 1_555 1_555
N3I H7I 1_555 1_555
N3A H7A 1_555 1_555
N3H H7H 1_555 1_555
C1I H8I 1_555 1_555
C1A N1A 1_555 1_555
C1H N1H 1_555 1_555
H8A C1A 1_555 1_555
H8H C1H 1_555 1_555
C2I C1I 1_555 1_555
C2A C1A 1_555 1_555
C2H C1H 1_555 1_555
H9I C2I 1_555 1_555
H9A C2A 1_555 1_555
H9H C2H 1_555 1_555
C3I N2I 1_555 1_555
C3A N2A 1_555 1_555
C3H N2H 1_555 1_555
C4I C3I 1_555 1_555
C4A C3A 1_555 1_555
C4H C3H 1_555 1_555
H10I C4I 1_555 1_555
H10A C4A 1_555 1_555
H10H C4H 1_555 1_555
C5I N1I 1_555 1_555
C5A N1A 1_555 1_555
C5H N1H 1_555 1_555
H11I C5I 1_555 1_555
H11A C5A 1_555 1_555
H11H C5H 1_555 1_555
C6I N2I 1_555 1_555
C6A N2A 1_555 1_555
C6H N2H 1_555 1_555
C7I C8 1_555 1_555
C7A N3A 1_555 1_555
C7H N3H 1_555 1_555
H12I C7I 1_555 1_555
H12A C7A 1_555 1_555
H12H C7H 1_555 1_555
H13I C7I 1_555 1_555
H13A C7A 1_555 1_555
H13H C7H 1_555 1_555
C8A C7A 1_555 1_555
H14A C8A 1_555 1_555
H15A C8A 1_555 1_555
N3 C6 1_555 1_555
C2 C3 1_555 1_555
C4 C5 1_555 1_555
N3I C6I 1_555 1_555
N3I C7I 1_555 1_555
N3A C6A 1_555 1_555
N3H C6H 1_555 1_555
C2I C3I 1_555 1_555
C2A C3A 1_555 1_555
C2H C3H 1_555 1_555
C4I C5I 1_555 1_555
C4A C5A 1_555 1_555
C4H C5H 1_555 1_555
C7H C8A 1_555 1_555

#END
