
#######################################################################
#
#                 Cambridge Crystallographic Data Centre
#                                CCDC 
#
#######################################################################
#
# If this CIF has been generated from an entry in the Cambridge 
# Structural Database, then it will include bibliographic, chemical, 
# crystal, experimental, refinement or atomic coordinate data resulting 
# from the CCDC's data processing and validation procedures.
#
#######################################################################

data_CUYWAV
_symmetry_cell_setting           orthorhombic
_symmetry_space_group_name_H-M   'I b a m'
_symmetry_Int_Tables_number      72
_space_group_name_Hall           '-I 2 2c'
loop_
_symmetry_equiv_pos_site_id
_symmetry_equiv_pos_as_xyz
1 x,y,z
2 -x,-y,z
3 1/2-x,1/2+y,-z
4 1/2+x,1/2-y,-z
5 1/2+x,1/2+y,1/2+z
6 1/2-x,1/2-y,1/2+z
7 -x,y,1/2-z
8 x,-y,1/2-z
9 -x,-y,-z
10 x,y,-z
11 1/2+x,1/2-y,z
12 1/2-x,1/2+y,z
13 1/2-x,1/2-y,1/2-z
14 1/2+x,1/2+y,1/2-z
15 x,-y,1/2+z
16 -x,y,1/2+z
_cell_length_a                   14.1957(10)
_cell_length_b                   15.7796(11)
_cell_length_c                   18.5297(12)
_cell_angle_alpha                90
_cell_angle_beta                 90
_cell_angle_gamma                90
_cell_volume                     4150.7
loop_
_atom_site_label
_atom_site_type_symbol
_atom_site_fract_x
_atom_site_fract_y
_atom_site_fract_z
Cd1 Cd 0.0000 0.0000 1.0000
O1 O -0.0795(3) 0.1288(3) 1.0000
H1 H -0.0587 0.1464 1.0355
O2 O 0.1670(2) 0.1787(3) 0.65294(18)
N1 N 0.0990(2) 0.0439(2) 0.90583(17)
N2 N 0.2721(2) 0.1356(3) 0.7396(2)
H2 H 0.3312 0.1324 0.7493
N3 N 0.3244(2) 0.1916(3) 0.6340(2)
H3 H 0.3795 0.1779 0.6494
C1 C 0.0632(3) 0.0905(3) 0.8518(2)
H4 H -0.0010 0.1022 0.8528
C2 C 0.1151(3) 0.1223(3) 0.7947(2)
H5 H 0.0862 0.1541 0.7586
C3 C 0.2113(3) 0.1059(4) 0.7923(2)
C4 C 0.2494(3) 0.0578(4) 0.8483(2)
H6 H 0.3135 0.0460 0.8491
C5 C 0.1917(3) 0.0277(3) 0.9024(2)
H7 H 0.2185 -0.0056 0.9384
C6 C 0.2488(3) 0.1699(4) 0.6734(2)
C7 C 0.3163(3) 0.2372(3) 0.56619(19)
H8 H 0.3675 0.2777 0.5631
H9 H 0.2578 0.2690 0.5665
C8 C 0.3183(4) 0.1822(3) 0.5000
H10 H 0.2642 0.1446 0.5000
H11 H 0.3749 0.1478 0.5000
Cd1_2 Cd 0.0000 0.0000 0.0000
O1A O 0.0795(3) -0.1288(3) 1.0000
H1I H -0.0587 0.1464 0.9645
H1A H 0.0587 -0.1464 1.0355
H1H H 0.0587 -0.1464 0.9645
O2I O 0.1670(2) 0.1787(3) 0.34706(18)
O2A O -0.1670(2) -0.1787(3) 0.65294(18)
O2H O -0.1670(2) -0.1787(3) 0.34706(18)
N1I N 0.0990(2) 0.0439(2) 0.09417(17)
N1A N -0.0990(2) -0.0439(2) 0.90583(17)
N1H N -0.0990(2) -0.0439(2) 0.09417(17)
N1H_2 N -0.0990(2) -0.0439(2) 1.09417(17)
N1I_2 N 0.0990(2) 0.0439(2) 1.09417(17)
N2I N 0.2721(2) 0.1356(3) 0.2604(2)
N2A N -0.2721(2) -0.1356(3) 0.7396(2)
N2H N -0.2721(2) -0.1356(3) 0.2604(2)
H2I H 0.3312 0.1324 0.2507
H2A H -0.3312 -0.1324 0.7493
H2H H -0.3312 -0.1324 0.2507
N3I N 0.3244(2) 0.1916(3) 0.3660(2)
N3A N -0.3244(2) -0.1916(3) 0.6340(2)
N3H N -0.3244(2) -0.1916(3) 0.3660(2)
H3I H 0.3795 0.1779 0.3506
H3A H -0.3795 -0.1779 0.6494
H3H H -0.3795 -0.1779 0.3506
C1I C 0.0632(3) 0.0905(3) 0.1482(2)
C1A C -0.0632(3) -0.0905(3) 0.8518(2)
C1H C -0.0632(3) -0.0905(3) 0.1482(2)
H4I H -0.0010 0.1022 0.1472
H4A H 0.0010 -0.1022 0.8528
H4H H 0.0010 -0.1022 0.1472
C2I C 0.1151(3) 0.1223(3) 0.2053(2)
C2A C -0.1151(3) -0.1223(3) 0.7947(2)
C2H C -0.1151(3) -0.1223(3) 0.2053(2)
H5I H 0.0862 0.1541 0.2414
H5A H -0.0862 -0.1541 0.7586
H5H H -0.0862 -0.1541 0.2414
C3I C 0.2113(3) 0.1059(4) 0.2077(2)
C3A C -0.2113(3) -0.1059(4) 0.7923(2)
C3H C -0.2113(3) -0.1059(4) 0.2077(2)
C4I C 0.2494(3) 0.0578(4) 0.1517(2)
C4A C -0.2494(3) -0.0578(4) 0.8483(2)
C4H C -0.2494(3) -0.0578(4) 0.1517(2)
H6I H 0.3135 0.0460 0.1509
H6A H -0.3135 -0.0460 0.8491
H6H H -0.3135 -0.0460 0.1509
C5I C 0.1917(3) 0.0277(3) 0.0976(2)
C5A C -0.1917(3) -0.0277(3) 0.9024(2)
C5H C -0.1917(3) -0.0277(3) 0.0976(2)
H7I H 0.2185 -0.0056 0.0616
H7A H -0.2185 0.0056 0.9384
H7H H -0.2185 0.0056 0.0616
C6I C 0.2488(3) 0.1699(4) 0.3266(2)
C6A C -0.2488(3) -0.1699(4) 0.6734(2)
C6H C -0.2488(3) -0.1699(4) 0.3266(2)
C7I C 0.3163(3) 0.2372(3) 0.43381(19)
C7A C -0.3163(3) -0.2372(3) 0.56619(19)
C7H C -0.3163(3) -0.2372(3) 0.43381(19)
H8I H 0.3675 0.2777 0.4369
H8A H -0.3675 -0.2777 0.5631
H8H H -0.3675 -0.2777 0.4369
H9I H 0.2578 0.2690 0.4335
H9A H -0.2578 -0.2690 0.5665
H9H H -0.2578 -0.2690 0.4335
C8A C -0.3183(4) -0.1822(3) 0.5000
H10A H -0.2642 -0.1446 0.5000
H11A H -0.3749 -0.1478 0.5000
Cl1 Cl 0.5000 0.14512(16) 0.7500
O3 O 0.0495(4) 0.2746(4) 0.5587(3)
H12 H -0.0011 0.2869 0.5788
H13 H 0.0959 0.2658 0.5862
O4 O 0.0916(7) 0.4385(6) 0.5000
H14 H 0.061(4) 0.461(4) 0.538(3)
H14I H 0.061(4) 0.461(4) 0.462(3)
O5 O 0.0000 0.5000 0.6290(3)
H15 H 0.006(5) 0.546(3) 0.652(4)
H15A H -0.006(5) 0.454(3) 0.652(4)
loop_
_geom_bond_atom_site_label_1
_geom_bond_atom_site_label_2
_geom_bond_site_symmetry_1
_geom_bond_site_symmetry_2
Cd1 O1 1_555 1_555
O1 H1 1_555 1_555
O2 C6 1_555 1_555
N1 Cd1 1_555 1_555
N2 H2 1_555 1_555
N3 H3 1_555 1_555
C1 N1 1_555 1_555
H4 C1 1_555 1_555
C2 C1 1_555 1_555
H5 C2 1_555 1_555
C3 N2 1_555 1_555
C4 C3 1_555 1_555
H6 C4 1_555 1_555
C5 N1 1_555 1_555
H7 C5 1_555 1_555
C6 N2 1_555 1_555
C7 N3 1_555 1_555
H8 C7 1_555 1_555
H9 C7 1_555 1_555
C8 C7 1_555 1_555
H10 C8 1_555 1_555
H11 C8 1_555 1_555
O3 H12 1_555 1_555
H13 O3 1_555 1_555
O4 H14 1_555 1_555
O5 H15 1_555 1_555
Cd1_2 N1I 1_555 1_555
O1A Cd1 1_555 1_555
H1I O1 1_555 1_555
H1A O1A 1_555 1_555
H1H O1A 1_555 1_555
O2I C6I 1_555 1_555
O2A C6A 1_555 1_555
O2H C6H 1_555 1_555
N1I C1I 1_555 1_555
N1A Cd1 1_555 1_555
N1H Cd1_2 1_555 1_555
N1H_2 Cd1 1_555 1_555
N1I_2 Cd1 1_555 1_555
N2I H2I 1_555 1_555
N2A H2A 1_555 1_555
N2H H2H 1_555 1_555
N3I H3I 1_555 1_555
N3A H3A 1_555 1_555
N3H H3H 1_555 1_555
C1I H4I 1_555 1_555
C1A N1A 1_555 1_555
C1H N1H 1_555 1_555
H4A C1A 1_555 1_555
H4H C1H 1_555 1_555
C2I C1I 1_555 1_555
C2A C1A 1_555 1_555
C2H C1H 1_555 1_555
H5I C2I 1_555 1_555
H5A C2A 1_555 1_555
H5H C2H 1_555 1_555
C3I N2I 1_555 1_555
C3A N2A 1_555 1_555
C3H N2H 1_555 1_555
C4I C3I 1_555 1_555
C4A C3A 1_555 1_555
C4H C3H 1_555 1_555
H6I C4I 1_555 1_555
H6A C4A 1_555 1_555
H6H C4H 1_555 1_555
C5I N1I 1_555 1_555
C5A N1A 1_555 1_555
C5H N1H 1_555 1_555
H7I C5I 1_555 1_555
H7A C5A 1_555 1_555
H7H C5H 1_555 1_555
C6I N2I 1_555 1_555
C6A N2A 1_555 1_555
C6H N2H 1_555 1_555
C7I C8 1_555 1_555
C7A N3A 1_555 1_555
C7H N3H 1_555 1_555
H8I C7I 1_555 1_555
H8A C7A 1_555 1_555
H8H C7H 1_555 1_555
H9I C7I 1_555 1_555
H9A C7A 1_555 1_555
H9H C7H 1_555 1_555
C8A C7A 1_555 1_555
H10A C8A 1_555 1_555
H11A C8A 1_555 1_555
H14I O4 1_555 1_555
H15A O5 1_555 1_555
N3 C6 1_555 1_555
C2 C3 1_555 1_555
C4 C5 1_555 1_555
N3I C6I 1_555 1_555
N3I C7I 1_555 1_555
N3A C6A 1_555 1_555
N3H C6H 1_555 1_555
C2I C3I 1_555 1_555
C2A C3A 1_555 1_555
C2H C3H 1_555 1_555
C4I C5I 1_555 1_555
C4A C5A 1_555 1_555
C4H C5H 1_555 1_555
C7H C8A 1_555 1_555

#END
