
#######################################################################
#
#                 Cambridge Crystallographic Data Centre
#                                CCDC 
#
#######################################################################
#
# If this CIF has been generated from an entry in the Cambridge 
# Structural Database, then it will include bibliographic, chemical, 
# crystal, experimental, refinement or atomic coordinate data resulting 
# from the CCDC's data processing and validation procedures.
#
#######################################################################

data_CUYWOJ
_symmetry_cell_setting           monoclinic
_symmetry_space_group_name_H-M   'C 2/c'
_symmetry_Int_Tables_number      15
_space_group_name_Hall           '-C 2yn'
loop_
_symmetry_equiv_pos_site_id
_symmetry_equiv_pos_as_xyz
1 x,y,z
2 -x,y,1/2-z
3 1/2+x,1/2+y,z
4 1/2-x,1/2+y,1/2-z
5 -x,-y,-z
6 x,-y,1/2+z
7 1/2-x,1/2-y,-z
8 1/2+x,1/2-y,1/2+z
_cell_length_a                   21.53(4)
_cell_length_b                   18.26(4)
_cell_length_c                   21.45(4)
_cell_angle_alpha                90
_cell_angle_beta                 96.11(3)
_cell_angle_gamma                90
_cell_volume                     8384.9
loop_
_atom_site_label
_atom_site_type_symbol
_atom_site_fract_x
_atom_site_fract_y
_atom_site_fract_z
Co1 Co 0.5000 1.25956(10) 0.7500
O1 O 0.5934(3) 1.2630(4) 0.7283(3)
H1 H 0.6116 1.3048 0.7315
H2 H 0.6005 1.2296 0.7016
O3 O 0.5199(4) 0.9231(5) 0.5747(4)
O4 O 0.5086(3) 0.5968(4) 0.5781(3)
N1 N 0.4777(4) 1.1714(5) 0.6836(3)
N2 N 0.4323(4) 0.9942(5) 0.5630(4)
H5 H 0.3942 0.9963 0.5437
N3 N 0.4377(4) 0.8889(5) 0.5078(4)
H6 H 0.3990 0.8995 0.4931
N4 N 0.4364(4) 0.6193(5) 0.4964(4)
H7 H 0.4014 0.6042 0.4755
N5 N 0.4327(4) 0.5130(5) 0.5483(4)
H8 H 0.4006 0.5046 0.5202
N6 N 0.4729(4) 0.3464(5) 0.6817(4)
C1 C 0.5185(4) 1.1184(6) 0.6766(5)
H13 H 0.5584 1.1225 0.6997
C2 C 0.5080(4) 1.0588(6) 0.6391(4)
H14 H 0.5395 1.0228 0.6371
C3 C 0.4501(4) 1.0513(6) 0.6035(5)
C4 C 0.4070(4) 1.1056(6) 0.6100(5)
H15 H 0.3665 1.1033 0.5877
C5 C 0.4234(5) 1.1627(6) 0.6491(5)
H16 H 0.3931 1.2000 0.6518
C6 C 0.4677(5) 0.9349(6) 0.5496(5)
C7 C 0.4648(6) 0.8237(6) 0.4858(5)
H17 H 0.5099 0.8234 0.5008
H18 H 0.4608 0.8247 0.4395
C8 C 0.4360(6) 0.7548(6) 0.5067(5)
H19 H 0.3905 0.7557 0.4941
H20 H 0.4428 0.7513 0.5530
C9 C 0.4644(6) 0.6893(6) 0.4781(5)
H21 H 0.4586 0.6940 0.4319
H22 H 0.5099 0.6885 0.4914
C10 C 0.4627(5) 0.5787(6) 0.5437(5)
C11 C 0.4478(5) 0.4575(5) 0.5931(4)
C12 C 0.5046(4) 0.4543(6) 0.6291(4)
H23 H 0.5360 0.4899 0.6251
C13 C 0.5139(4) 0.3980(6) 0.6710(5)
H24 H 0.5537 0.3955 0.6949
C14 C 0.4188(5) 0.3518(6) 0.6448(5)
H25 H 0.3881 0.3156 0.6498
C15 C 0.4039(5) 0.4051(6) 0.6005(5)
H26 H 0.3645 0.4055 0.5760
Co1_2 Co 0.5000 0.25956(10) 0.7500
Co1_3 Co 0.5000 2.25956(10) 0.7500
O1A O 0.4066(3) 1.2630(4) 0.7717(3)
H1A H 0.3884 1.3048 0.7685
H2A H 0.3995 1.2296 0.7984
O3_2 O 0.5199(4) 1.9231(5) 0.5747(4)
O4_2 O 0.5086(3) 1.5968(4) 0.5781(3)
N1_2 N 0.4777(4) 2.1714(5) 0.6836(3)
N1A N 0.5223(4) 1.1714(5) 0.8164(3)
N2_2 N 0.4323(4) 1.9942(5) 0.5630(4)
H5_2 H 0.3942 1.9963 0.5437
N3_2 N 0.4377(4) 1.8889(5) 0.5078(4)
H6_2 H 0.3990 1.8995 0.4931
N4_2 N 0.4364(4) 1.6193(5) 0.4964(4)
H7_2 H 0.4014 1.6042 0.4755
N5_2 N 0.4327(4) 1.5130(5) 0.5483(4)
H8_2 H 0.4006 1.5046 0.5202
N6_2 N 0.4729(4) 1.3464(5) 0.6817(4)
N6A N 0.5271(4) 1.3464(5) 0.8183(4)
C1_2 C 0.5185(4) 2.1184(6) 0.6766(5)
H13_2 H 0.5584 2.1225 0.6997
C2_2 C 0.5080(4) 2.0588(6) 0.6391(4)
H14_2 H 0.5395 2.0228 0.6371
C3_2 C 0.4501(4) 2.0513(6) 0.6035(5)
C4_2 C 0.4070(4) 2.1056(6) 0.6100(5)
H15_2 H 0.3665 2.1033 0.5877
C5_2 C 0.4234(5) 2.1627(6) 0.6491(5)
H16_2 H 0.3931 2.2000 0.6518
C6_2 C 0.4677(5) 1.9349(6) 0.5496(5)
C7_2 C 0.4648(6) 1.8237(6) 0.4858(5)
H17_2 H 0.5099 1.8234 0.5008
H18_2 H 0.4608 1.8247 0.4395
C8_2 C 0.4360(6) 1.7548(6) 0.5067(5)
H19_2 H 0.3905 1.7557 0.4941
H20_2 H 0.4428 1.7513 0.5530
C9_2 C 0.4644(6) 1.6893(6) 0.4781(5)
H21_2 H 0.4586 1.6940 0.4319
H22_2 H 0.5099 1.6885 0.4914
C10_2 C 0.4627(5) 1.5787(6) 0.5437(5)
C11_2 C 0.4478(5) 1.4575(5) 0.5931(4)
C12_2 C 0.5046(4) 1.4543(6) 0.6291(4)
H23_2 H 0.5360 1.4899 0.6251
C13_2 C 0.5139(4) 1.3980(6) 0.6710(5)
H24_2 H 0.5537 1.3955 0.6949
C14_2 C 0.4188(5) 1.3518(6) 0.6448(5)
H25_2 H 0.3881 1.3156 0.6498
C15_2 C 0.4039(5) 1.4051(6) 0.6005(5)
H26_2 H 0.3645 1.4055 0.5760
Co2 Co 0.5000 0.72753(11) 0.7500
O2 O 0.4809(3) 0.7239(4) 0.8449(3)
H3 H 0.4937 0.6909 0.8714
H4 H 0.4486 0.7513 0.8469
O5 O 0.3288(3) 0.3899(4) 0.7604(3)
O6 O 0.3249(4) 0.0632(5) 0.7710(4)
N7 N 0.4310(3) 0.6413(5) 0.7248(4)
N8 N 0.2997(4) 0.4739(5) 0.6835(4)
H9 H 0.2734 0.4817 0.6499
N9 N 0.2455(4) 0.3666(5) 0.6889(4)
H10 H 0.2231 0.3814 0.6544
N10 N 0.2597(4) 0.0986(5) 0.6861(5)
H11 H 0.2468 0.0888 0.6467
N11 N 0.3142(4) -0.0072(5) 0.6821(4)
H12 H 0.2950 -0.0093 0.6438
N12 N 0.4338(3) -0.1842(5) 0.7285(4)
C16 C 0.4227(4) 0.5893(6) 0.7653(5)
H27 H 0.4485 0.5907 0.8040
C17 C 0.3803(4) 0.5334(6) 0.7572(5)
H28 H 0.3762 0.4992 0.7898
C18 C 0.3430(4) 0.5276(6) 0.6995(5)
C19 C 0.3500(5) 0.5822(6) 0.6571(5)
H29 H 0.3245 0.5829 0.6181
C20 C 0.3949(5) 0.6372(6) 0.6711(5)
H30 H 0.3996 0.6735 0.6402
C21 C 0.2936(5) 0.4091(6) 0.7149(5)
C22 C 0.2306(5) 0.2975(6) 0.7171(5)
H31 H 0.1846 0.2919 0.7137
H32 H 0.2461 0.2987 0.7622
C23 C 0.2584(5) 0.2312(6) 0.6872(5)
H33 H 0.2466 0.2319 0.6414
H34 H 0.3046 0.2330 0.6949
C24 C 0.2355(6) 0.1632(7) 0.7139(6)
H35 H 0.2480 0.1626 0.7596
H36 H 0.1894 0.1624 0.7071
C25 C 0.3010(5) 0.0520(6) 0.7173(6)
C26 C 0.3545(5) -0.0645(6) 0.7001(5)
C27 C 0.3889(4) -0.0729(6) 0.7600(5)
H37 H 0.3854 -0.0379 0.7922
C28 C 0.4267(4) -0.1317(6) 0.7702(5)
H38 H 0.4500 -0.1359 0.8102
C29 C 0.4004(5) -0.1752(6) 0.6727(5)
H39 H 0.4043 -0.2118 0.6420
C30 C 0.3622(5) -0.1195(6) 0.6566(5)
H40 H 0.3405 -0.1173 0.6158
Co2_2 Co 0.5000 -0.27247(11) 0.7500
Co2_3 Co 0.5000 1.72753(11) 0.7500
O2A O 0.5191(3) 0.7239(4) 0.6551(3)
H3A H 0.5063 0.6909 0.6286
H4A H 0.5514 0.7513 0.6531
O5_2 O 0.3288(3) 1.3899(4) 0.7604(3)
O6_2 O 0.3249(4) 1.0632(5) 0.7710(4)
N7_2 N 0.4310(3) 1.6413(5) 0.7248(4)
N7A N 0.5690(3) 0.6413(5) 0.7752(4)
N8_2 N 0.2997(4) 1.4739(5) 0.6835(4)
H9_2 H 0.2734 1.4817 0.6499
N9_2 N 0.2455(4) 1.3666(5) 0.6889(4)
H10_2 H 0.2231 1.3814 0.6544
N10_2 N 0.2597(4) 1.0986(5) 0.6861(5)
H11_2 H 0.2468 1.0888 0.6467
N11_2 N 0.3142(4) 0.9928(5) 0.6821(4)
H12_2 H 0.2950 0.9907 0.6438
N12_2 N 0.4338(3) 0.8158(5) 0.7285(4)
N12A N 0.5662(3) 0.8158(5) 0.7715(4)
C16_2 C 0.4227(4) 1.5893(6) 0.7653(5)
H27_2 H 0.4485 1.5907 0.8040
C17_2 C 0.3803(4) 1.5334(6) 0.7572(5)
H28_2 H 0.3762 1.4992 0.7898
C18_2 C 0.3430(4) 1.5276(6) 0.6995(5)
C19_2 C 0.3500(5) 1.5822(6) 0.6571(5)
H29_2 H 0.3245 1.5829 0.6181
C20_2 C 0.3949(5) 1.6372(6) 0.6711(5)
H30_2 H 0.3996 1.6735 0.6402
C21_2 C 0.2936(5) 1.4091(6) 0.7149(5)
C22_2 C 0.2306(5) 1.2975(6) 0.7171(5)
H31_2 H 0.1846 1.2919 0.7137
H32_2 H 0.2461 1.2987 0.7622
C23_2 C 0.2584(5) 1.2312(6) 0.6872(5)
H33_2 H 0.2466 1.2319 0.6414
H34_2 H 0.3046 1.2330 0.6949
C24_2 C 0.2355(6) 1.1632(7) 0.7139(6)
H35_2 H 0.2480 1.1626 0.7596
H36_2 H 0.1894 1.1624 0.7071
C25_2 C 0.3010(5) 1.0520(6) 0.7173(6)
C26_2 C 0.3545(5) 0.9355(6) 0.7001(5)
C27_2 C 0.3889(4) 0.9271(6) 0.7600(5)
H37_2 H 0.3854 0.9621 0.7922
C28_2 C 0.4267(4) 0.8683(6) 0.7702(5)
H38_2 H 0.4500 0.8641 0.8102
C29_2 C 0.4004(5) 0.8248(6) 0.6727(5)
H39_2 H 0.4043 0.7882 0.6420
C30_2 C 0.3622(5) 0.8805(6) 0.6566(5)
H40_2 H 0.3405 0.8827 0.6158
S1 S 0.25022(15) 0.0021(4) 0.50654(17)
O7 O 0.3040(7) -0.0434(12) 0.5166(9)
O8 O 0.1903(7) -0.0358(13) 0.5070(9)
O9 O 0.2464(9) 0.0364(13) 0.4445(7)
O10 O 0.2554(9) 0.0589(11) 0.5565(8)
O11 O 0.1410(11) 0.1114(15) 0.5770(11)
O12 O 0.1691(7) 0.8863(9) 0.6068(7)
O13 O 0.254(3) 0.227(3) 0.951(3)
O14 O 0.3333(9) 0.0864(13) 0.9022(9)
O15 O 0.3459(6) 0.1970(10) 0.8563(6)
O16 O 0.6106(6) 0.7678(8) 0.5970(7)
O17 O 0.6485(6) 0.9013(9) 0.5837(6)
O18 O 0.2500 0.2500 0.5000
O19? O 0.2014(16) 0.045(2) 0.5335(17)
O20? O 0.3012(13) -0.012(2) 0.5527(15)
O21? O 0.220(2) -0.0698(15) 0.4860(19)
O22? O 0.2695(16) 0.037(2) 0.4508(13)
loop_
_geom_bond_atom_site_label_1
_geom_bond_atom_site_label_2
_geom_bond_site_symmetry_1
_geom_bond_site_symmetry_2
Co1 O1 1_555 1_555
Co2 O2 1_555 1_555
S1 O7 1_555 1_555
O1 H1 1_555 1_555
H2 O1 1_555 1_555
O2 H3 1_555 1_555
H4 O2 1_555 1_555
O3 C6 1_555 1_555
O4 C10 1_555 1_555
O5 C21 1_555 1_555
O6 C25 1_555 1_555
O8 S1 1_555 1_555
O9 S1 1_555 1_555
O10 S1 1_555 1_555
N1 Co1 1_555 1_555
N2 H5 1_555 1_555
N3 H6 1_555 1_555
N4 H7 1_555 1_555
N5 H8 1_555 1_555
N6 C13 1_555 1_555
N7 Co2 1_555 1_555
N8 H9 1_555 1_555
N9 H10 1_555 1_555
N10 H11 1_555 1_555
N11 H12 1_555 1_555
N12 C28 1_555 1_555
C1 N1 1_555 1_555
H13 C1 1_555 1_555
C2 C1 1_555 1_555
H14 C2 1_555 1_555
C3 N2 1_555 1_555
C4 C3 1_555 1_555
H15 C4 1_555 1_555
C5 N1 1_555 1_555
H16 C5 1_555 1_555
C6 N2 1_555 1_555
C7 N3 1_555 1_555
H17 C7 1_555 1_555
H18 C7 1_555 1_555
C8 C7 1_555 1_555
H19 C8 1_555 1_555
H20 C8 1_555 1_555
C9 N4 1_555 1_555
H21 C9 1_555 1_555
H22 C9 1_555 1_555
C10 N4 1_555 1_555
C11 N5 1_555 1_555
C12 C11 1_555 1_555
H23 C12 1_555 1_555
C13 C12 1_555 1_555
H24 C13 1_555 1_555
C14 N6 1_555 1_555
H25 C14 1_555 1_555
C15 C11 1_555 1_555
H26 C15 1_555 1_555
C16 N7 1_555 1_555
H27 C16 1_555 1_555
C17 C16 1_555 1_555
H28 C17 1_555 1_555
C18 N8 1_555 1_555
C19 C18 1_555 1_555
H29 C19 1_555 1_555
C20 N7 1_555 1_555
H30 C20 1_555 1_555
C21 N8 1_555 1_555
C22 N9 1_555 1_555
H31 C22 1_555 1_555
H32 C22 1_555 1_555
C23 C22 1_555 1_555
H33 C23 1_555 1_555
H34 C23 1_555 1_555
C24 N10 1_555 1_555
H35 C24 1_555 1_555
H36 C24 1_555 1_555
C25 N10 1_555 1_555
C26 N11 1_555 1_555
C27 C26 1_555 1_555
H37 C27 1_555 1_555
C28 C27 1_555 1_555
H38 C28 1_555 1_555
C29 N12 1_555 1_555
H39 C29 1_555 1_555
C30 C26 1_555 1_555
H40 C30 1_555 1_555
Co1_2 N6 1_555 1_555
Co1_3 N1_2 1_555 1_555
Co2_2 N12 1_555 1_555
Co2_3 N7_2 1_555 1_555
O1A Co1 1_555 1_555
H1A O1A 1_555 1_555
H2A O1A 1_555 1_555
O2A Co2 1_555 1_555
H3A O2A 1_555 1_555
H4A O2A 1_555 1_555
O3_2 C6_2 1_555 1_555
O4_2 C10_2 1_555 1_555
O5_2 C21_2 1_555 1_555
O6_2 C25_2 1_555 1_555
N1_2 C1_2 1_555 1_555
N1A Co1 1_555 1_555
N2_2 H5_2 1_555 1_555
N3_2 H6_2 1_555 1_555
N4_2 H7_2 1_555 1_555
N5_2 H8_2 1_555 1_555
N6_2 Co1 1_555 1_555
N6A Co1 1_555 1_555
N7_2 C16_2 1_555 1_555
N7A Co2 1_555 1_555
N8_2 H9_2 1_555 1_555
N9_2 H10_2 1_555 1_555
N10_2 H11_2 1_555 1_555
N11_2 H12_2 1_555 1_555
N12_2 Co2 1_555 1_555
N12A Co2 1_555 1_555
C1_2 H13_2 1_555 1_555
C2_2 C1_2 1_555 1_555
H14_2 C2_2 1_555 1_555
C3_2 N2_2 1_555 1_555
C4_2 C3_2 1_555 1_555
H15_2 C4_2 1_555 1_555
C5_2 N1_2 1_555 1_555
H16_2 C5_2 1_555 1_555
C6_2 N2_2 1_555 1_555
C7_2 N3_2 1_555 1_555
H17_2 C7_2 1_555 1_555
H18_2 C7_2 1_555 1_555
C8_2 C7_2 1_555 1_555
H19_2 C8_2 1_555 1_555
H20_2 C8_2 1_555 1_555
C9_2 N4_2 1_555 1_555
H21_2 C9_2 1_555 1_555
H22_2 C9_2 1_555 1_555
C10_2 N4_2 1_555 1_555
C11_2 N5_2 1_555 1_555
C12_2 C11_2 1_555 1_555
H23_2 C12_2 1_555 1_555
C13_2 N6_2 1_555 1_555
H24_2 C13_2 1_555 1_555
C14_2 N6_2 1_555 1_555
H25_2 C14_2 1_555 1_555
C15_2 C11_2 1_555 1_555
H26_2 C15_2 1_555 1_555
C16_2 H27_2 1_555 1_555
C17_2 C16_2 1_555 1_555
H28_2 C17_2 1_555 1_555
C18_2 N8_2 1_555 1_555
C19_2 C18_2 1_555 1_555
H29_2 C19_2 1_555 1_555
C20_2 N7_2 1_555 1_555
H30_2 C20_2 1_555 1_555
C21_2 N8_2 1_555 1_555
C22_2 N9_2 1_555 1_555
H31_2 C22_2 1_555 1_555
H32_2 C22_2 1_555 1_555
C23_2 C22_2 1_555 1_555
H33_2 C23_2 1_555 1_555
H34_2 C23_2 1_555 1_555
C24_2 N10_2 1_555 1_555
H35_2 C24_2 1_555 1_555
H36_2 C24_2 1_555 1_555
C25_2 N10_2 1_555 1_555
C26_2 N11_2 1_555 1_555
C27_2 C26_2 1_555 1_555
H37_2 C27_2 1_555 1_555
C28_2 N12_2 1_555 1_555
H38_2 C28_2 1_555 1_555
C29_2 N12_2 1_555 1_555
H39_2 C29_2 1_555 1_555
C30_2 C26_2 1_555 1_555
H40_2 C30_2 1_555 1_555
N3 C6 1_555 1_555
N5 C10 1_555 1_555
N9 C21 1_555 1_555
N11 C25 1_555 1_555
C2 C3 1_555 1_555
C4 C5 1_555 1_555
C8 C9 1_555 1_555
C14 C15 1_555 1_555
C17 C18 1_555 1_555
C19 C20 1_555 1_555
C23 C24 1_555 1_555
C29 C30 1_555 1_555
N3_2 C6_2 1_555 1_555
N5_2 C10_2 1_555 1_555
N9_2 C21_2 1_555 1_555
N11_2 C25_2 1_555 1_555
C2_2 C3_2 1_555 1_555
C4_2 C5_2 1_555 1_555
C8_2 C9_2 1_555 1_555
C12_2 C13_2 1_555 1_555
C14_2 C15_2 1_555 1_555
C17_2 C18_2 1_555 1_555
C19_2 C20_2 1_555 1_555
C23_2 C24_2 1_555 1_555
C27_2 C28_2 1_555 1_555
C29_2 C30_2 1_555 1_555

#END
