
#######################################################################
#
#                 Cambridge Crystallographic Data Centre
#                                CCDC 
#
#######################################################################
#
# If this CIF has been generated from an entry in the Cambridge 
# Structural Database, then it will include bibliographic, chemical, 
# crystal, experimental, refinement or atomic coordinate data resulting 
# from the CCDC's data processing and validation procedures.
#
#######################################################################

data_CUYXIE
_symmetry_cell_setting           monoclinic
_symmetry_space_group_name_H-M   'P 21/c'
_symmetry_Int_Tables_number      14
_space_group_name_Hall           '-P 2ybc'
loop_
_symmetry_equiv_pos_site_id
_symmetry_equiv_pos_as_xyz
1 x,y,z
2 -x,1/2+y,1/2-z
3 -x,-y,-z
4 x,1/2-y,1/2+z
_cell_length_a                   17.1160(8)
_cell_length_b                   33.9351(16)
_cell_length_c                   8.3694(4)
_cell_angle_alpha                90
_cell_angle_beta                 95.9240(10)
_cell_angle_gamma                90
_cell_volume                     4835.26
loop_
_atom_site_label
_atom_site_type_symbol
_atom_site_fract_x
_atom_site_fract_y
_atom_site_fract_z
Ag1 Ag 0.02953(2) 0.298702(16) 0.34117(6)
Ag2 Ag -0.01276(3) 0.459813(19) -0.11131(7)
Ag3 Ag 0.00264(3) 0.365307(19) -0.38715(7)
C1 C -0.3434(3) 0.27843(15) 0.2854(6)
C2 C -0.2571(3) 0.28809(14) 0.3141(6)
C3 C -0.2082(3) 0.26772(18) 0.4264(7)
H1 H -0.2287 0.2491 0.4922
C4 C -0.1294(3) 0.27508(19) 0.4402(7)
H2 H -0.0975 0.2610 0.5168
C5 C -0.1434(3) 0.32176(17) 0.2469(7)
H3 H -0.1215 0.3408 0.1852
C6 C -0.2231(3) 0.31645(16) 0.2260(6)
H4 H -0.2540 0.3319 0.1527
C7 C 0.2024(3) 0.27444(19) 0.4192(7)
H5 H 0.1821 0.2599 0.4996
C8 C 0.1869(3) 0.32101(17) 0.2216(7)
H6 H 0.1553 0.3394 0.1633
C9 C 0.2634(3) 0.31694(16) 0.1884(6)
H7 H 0.2825 0.3321 0.1084
C10 C 0.3115(3) 0.29025(15) 0.2744(6)
C11 C 0.2799(3) 0.26887(17) 0.3930(6)
H8 H 0.3108 0.2508 0.4547
C12 C 0.3941(3) 0.28198(15) 0.2359(6)
C13 C -0.3626(3) 0.36805(15) -0.2490(6)
C14 C -0.2800(3) 0.36644(14) -0.2943(6)
C15 C -0.2281(3) 0.3400(2) -0.2229(8)
H9 H -0.2445 0.3214 -0.1515
C16 C -0.1508(4) 0.3407(2) -0.2566(9)
H10 H -0.1161 0.3226 -0.2048
C17 C -0.1749(3) 0.38947(18) -0.4355(7)
H11 H -0.1581 0.4062 -0.5130
C18 C -0.2530(3) 0.39072(17) -0.4064(7)
H12 H -0.2873 0.4082 -0.4634
C19 C -0.6168(3) 0.35409(15) -0.3221(6)
C20 C -0.7050(3) 0.35731(15) -0.3402(6)
C21 C -0.7496(3) 0.33351(19) -0.2514(7)
H13 H -0.7253 0.3150 -0.1807
C22 C -0.7444(3) 0.38383(16) -0.4416(7)
H14 H -0.7170 0.4005 -0.5042
C23 C -0.8257(3) 0.38564(17) -0.4502(7)
H15 H -0.8516 0.4037 -0.5206
C24 C -0.8294(4) 0.3372(2) -0.2678(8)
H16 H -0.8582 0.3205 -0.2079
C25 C -0.6433(3) 0.42082(15) 0.0053(7)
C26 C -0.7295(3) 0.43195(15) -0.0151(6)
C27 C -0.7801(3) 0.41907(17) 0.0914(7)
H17 H -0.7613 0.4045 0.1813
C28 C -0.8591(3) 0.42798(19) 0.0636(7)
H18 H -0.8925 0.4189 0.1362
C29 C -0.8403(3) 0.4623(2) -0.1620(7)
H19 H -0.8601 0.4778 -0.2485
C30 C -0.7600(3) 0.45414(18) -0.1435(7)
H20 H -0.7276 0.4636 -0.2174
C31 C -0.3580(3) 0.50579(15) -0.4342(6)
C32 C -0.2778(3) 0.49540(15) -0.3524(6)
C33 C -0.2683(3) 0.47605(16) -0.2070(6)
H21 H -0.3118 0.4691 -0.1551
C34 C -0.1929(3) 0.46700(19) -0.1386(7)
H22 H -0.1869 0.4546 -0.0389
C35 C -0.1384(3) 0.4941(2) -0.3524(7)
H23 H -0.0944 0.5001 -0.4043
C36 C -0.2105(3) 0.50452(18) -0.4224(7)
H24 H -0.2147 0.5181 -0.5195
C37 C -0.4703(3) 0.48532(15) 0.0441(6)
La1 La -0.476789(15) 0.292349(8) -0.07047(3)
La2 La -0.515700(15) 0.442382(8) -0.31237(3)
N1 N -0.0954(2) 0.30108(14) 0.3510(6)
N2 N 0.1557(2) 0.29979(14) 0.3341(5)
N3 N -0.1236(3) 0.36584(17) -0.3591(6)
N4 N -0.1287(3) 0.47536(15) -0.2106(6)
N5 N -0.8898(3) 0.44905(16) -0.0625(6)
N6 N -0.8685(3) 0.36322(16) -0.3645(6)
O1 O -0.38251(19) 0.29572(10) 0.1731(4)
O2 O -0.36827(18) 0.25343(10) 0.3772(4)
O3 O 0.41389(19) 0.29559(11) 0.1082(4)
O4 O 0.43541(19) 0.26192(11) 0.3355(4)
O5 O -0.3851(2) 0.33868(11) -0.1766(4)
O6 O -0.40148(19) 0.39847(10) -0.2824(4)
O7 O -0.57937(19) 0.37942(10) -0.3927(4)
O8 O -0.5879(2) 0.32612(11) -0.2398(4)
O9 O -0.6057(2) 0.42787(12) -0.1120(4)
O10 O -0.6177(2) 0.40459(12) 0.1329(4)
O11 O -0.41595(18) 0.48747(11) -0.3954(4)
O12 O -0.35999(19) 0.53253(10) -0.5371(4)
O19 O -0.4448(2) 0.45777(11) -0.0354(4)
O20 O -0.4535(2) 0.49084(10) 0.1925(4)
O23 O -0.4716(2) 0.22009(11) 0.1125(4)
H29 H -0.5152 0.2200 0.0605
H30 H -0.4533 0.1986 0.0897
O24 O -0.4862(2) 0.36092(11) 0.0652(4)
H31 H -0.5248 0.3733 0.0869
H32 H -0.4535 0.3779 0.0535
O25 O -0.5010(2) 0.42783(10) -0.6123(4)
H33 H -0.4752 0.4435 -0.6608
H34 H -0.5359 0.4208 -0.6810
Ag1C Ag 0.02953(2) 0.201298(16) -0.15883(6)
Ag1_2 Ag -0.97047(2) 0.298702(16) 0.34117(6)
Ag2B Ag -0.98724(3) 0.540187(19) -0.88869(7)
Ag2_2 Ag -1.01276(3) 0.459813(19) -0.11131(7)
Ag2C Ag -1.01276(3) 0.040187(19) 0.38869(7)
Ag3C Ag 0.00264(3) 0.134693(19) 0.11285(7)
Ag3_2 Ag -0.99736(3) 0.365307(19) -0.38715(7)
Ag3C_2 Ag -0.99736(3) 0.134693(19) 0.11285(7)
C1C C -0.3434(3) 0.22157(15) -0.2146(6)
C2C C -0.2571(3) 0.21191(14) -0.1859(6)
C3C C -0.2082(3) 0.23228(18) -0.0736(7)
H1C H -0.2287 0.2509 -0.0078
C4C C -0.1294(3) 0.22492(19) -0.0598(7)
H2C H -0.0975 0.2390 0.0168
C5C C -0.1434(3) 0.17824(17) -0.2531(7)
H3C H -0.1215 0.1592 -0.3148
C6C C -0.2231(3) 0.18355(16) -0.2740(6)
H4C H -0.2540 0.1681 -0.3473
C7_2 C -0.7976(3) 0.27444(19) 0.4192(7)
H5_2 H -0.8179 0.2599 0.4996
C8_2 C -0.8131(3) 0.32101(17) 0.2216(7)
H6_2 H -0.8447 0.3394 0.1633
C9_2 C -0.7366(3) 0.31694(16) 0.1884(6)
H7_2 H -0.7175 0.3321 0.1084
C10_2 C -0.6885(3) 0.29025(15) 0.2744(6)
C11_2 C -0.7201(3) 0.26887(17) 0.3930(6)
H8_2 H -0.6892 0.2508 0.4547
C12_2 C -0.6059(3) 0.28198(15) 0.2359(6)
C13C C -0.3626(3) 0.13195(15) 0.2510(6)
C14C C -0.2800(3) 0.13356(14) 0.2057(6)
C15C C -0.2281(3) 0.1600(2) 0.2771(8)
H9C H -0.2445 0.1786 0.3485
C16C C -0.1508(4) 0.1593(2) 0.2434(9)
H10C H -0.1161 0.1774 0.2952
C17C C -0.1749(3) 0.11053(18) 0.0645(7)
H11C H -0.1581 0.0938 -0.0130
C18C C -0.2530(3) 0.10928(17) 0.0936(7)
H12C H -0.2873 0.0918 0.0366
C19C C -0.6168(3) 0.14591(15) 0.1779(6)
C20C C -0.7050(3) 0.14269(15) 0.1598(6)
C21C C -0.7496(3) 0.16649(19) 0.2486(7)
H13C H -0.7253 0.1850 0.3193
C22C C -0.7444(3) 0.11617(16) 0.0584(7)
H14C H -0.7170 0.0995 -0.0042
C23C C -0.8257(3) 0.11436(17) 0.0498(7)
H15C H -0.8516 0.0963 -0.0206
C24C C -0.8294(4) 0.1628(2) 0.2322(8)
H16C H -0.8582 0.1795 0.2921
C25C C -0.6433(3) 0.07918(15) 0.5053(7)
C26C C -0.7295(3) 0.06805(15) 0.4849(6)
C27C C -0.7801(3) 0.08093(17) 0.5914(7)
H17C H -0.7613 0.0955 0.6813
C28C C -0.8591(3) 0.07202(19) 0.5636(7)
H18C H -0.8925 0.0811 0.6362
C29C C -0.8403(3) 0.0377(2) 0.3380(7)
H19C H -0.8601 0.0222 0.2515
C30C C -0.7600(3) 0.04586(18) 0.3565(7)
H20C H -0.7276 0.0364 0.2826
C31B C -0.6420(3) 0.49421(15) -0.5658(6)
C32B C -0.7222(3) 0.50460(15) -0.6476(6)
C33B C -0.7317(3) 0.52395(16) -0.7930(6)
H21B H -0.6882 0.5309 -0.8449
C34B C -0.8071(3) 0.53300(19) -0.8614(7)
H22B H -0.8131 0.5454 -0.9611
C35B C -0.8616(3) 0.5059(2) -0.6476(7)
H23B H -0.9056 0.4999 -0.5957
C36B C -0.7895(3) 0.49548(18) -0.5776(7)
H24B H -0.7853 0.4819 -0.4805
C37B C -0.5297(3) 0.51468(15) -0.0441(6)
La1C La -0.476789(15) 0.207651(8) 0.42953(3)
La1_2 La 0.523211(15) 0.292349(8) -0.07047(3)
La1C_2 La 0.523211(15) 0.207651(8) 0.42953(3)
La1C_3 La -0.476789(15) 0.207651(8) -0.57047(3)
La2C La -0.515700(15) 0.057618(8) 0.18763(3)
La2B La -0.484300(15) 0.557618(8) -0.68763(3)
La2B_2 La -0.484300(15) 0.557618(8) 0.31237(3)
N1C N -0.0954(2) 0.19892(14) -0.1490(6)
N2_2 N -0.8443(2) 0.29979(14) 0.3341(5)
N2C N 0.1557(2) 0.20021(14) -0.1659(5)
N3C N -0.1236(3) 0.13416(17) 0.1409(6)
N4B N -0.8713(3) 0.52464(15) -0.7894(6)
N5C N -0.8898(3) 0.05095(16) 0.4375(6)
N5_2 N 0.1102(3) 0.44905(16) -0.0625(6)
N5B N -1.1102(3) 0.55095(16) -0.9375(6)
N6C N -0.8685(3) 0.13678(16) 0.1355(6)
N6_2 N 0.1315(3) 0.36322(16) -0.3645(6)
N6C_2 N 0.1315(3) 0.13678(16) 0.1355(6)
O1C O -0.38251(19) 0.20428(10) -0.3269(4)
O1C_2 O -0.38251(19) 0.20428(10) 0.6731(4)
O2C O -0.36827(18) 0.24657(10) -0.1228(4)
O3_2 O -0.58611(19) 0.29559(11) 0.1082(4)
O3C O -0.58611(19) 0.20441(11) 0.6082(4)
O4_2 O -0.56459(19) 0.26192(11) 0.3355(4)
O4C O -0.56459(19) 0.23808(11) -0.1645(4)
O5C O -0.3851(2) 0.16132(11) 0.3234(4)
O6C O -0.40148(19) 0.10153(10) 0.2176(4)
O7C O -0.57937(19) 0.12058(10) 0.1073(4)
O8C O -0.5879(2) 0.17388(11) 0.2602(4)
O9C O -0.6057(2) 0.07213(12) 0.3880(4)
O10C O -0.6177(2) 0.09541(12) 0.6329(4)
O11B O -0.58405(18) 0.51253(11) -0.6046(4)
O11C O -0.41595(18) 0.01253(11) 0.1046(4)
O12B O -0.64001(19) 0.46747(10) -0.4629(4)
O12A O -0.64001(19) 0.03253(10) 0.0371(4)
O19B O -0.5552(2) 0.54223(11) 0.0354(4)
O19C O -0.4448(2) 0.04223(11) 0.4646(4)
O20B O -0.5465(2) 0.50916(10) -0.1925(4)
O20A O -0.5465(2) -0.00916(10) 0.3075(4)
O23C O -0.4716(2) 0.27991(11) -0.3875(4)
O23C_2 O -0.4716(2) 0.27991(11) 0.6125(4)
H29C H -0.5152 0.2800 -0.4395
H29C_2 H -0.5152 0.2800 0.5605
H30C H -0.4533 0.3014 -0.4103
H30C_2 H -0.4533 0.3014 0.5897
O24C O -0.4862(2) 0.13908(11) 0.5652(4)
H31C H -0.5248 0.1267 0.5869
H32C H -0.4535 0.1221 0.5535
O25C O -0.5010(2) 0.07217(10) -0.1123(4)
H33C H -0.4752 0.0565 -0.1608
H34C H -0.5359 0.0792 -0.1810
N7 N 0.9769(3) 0.79627(18) 0.5600(7)
O16 O 0.9908(3) 0.78824(15) 0.7046(6)
O17 O 0.9589(3) 0.76898(15) 0.4637(6)
O18 O 0.9802(3) 0.83041(15) 0.5120(6)
N8 N 0.0168(5) 0.5637(3) 0.6440(15)
O13 O 0.0411(4) 0.5380(3) 0.7370(11)
O14 O -0.0051(6) 0.5550(3) 0.4994(13)
O15 O 0.0073(4) 0.5975(2) 0.6830(8)
O21 O 0.3357(7) 0.5917(4) 0.8511(14)
H25 H 0.3703 0.6019 0.7982
H26 H 0.3165 0.5712 0.7967
O22 O 0.4389(3) 0.65735(14) 0.5713(5)
H27 H 0.4536 0.6338 0.5498
H28 H 0.4310 0.6577 0.6717
O26 O -0.0675(5) 0.3989(2) 0.0111(10)
H35 H -0.0579 0.4092 0.1008
H36 H -0.1116 0.3898 0.0145
loop_
_geom_bond_atom_site_label_1
_geom_bond_atom_site_label_2
_geom_bond_site_symmetry_1
_geom_bond_site_symmetry_2
Ag1 N1 1_555 1_555
Ag2 N4 1_555 1_555
Ag3 N3 1_555 1_555
C1 C2 1_555 1_555
C2 C3 1_555 1_555
C3 H1 1_555 1_555
C4 C3 1_555 1_555
H2 C4 1_555 1_555
C5 H3 1_555 1_555
C6 C2 1_555 1_555
H4 C6 1_555 1_555
C7 H5 1_555 1_555
C8 H6 1_555 1_555
C9 C8 1_555 1_555
H7 C9 1_555 1_555
C10 C9 1_555 1_555
C11 C7 1_555 1_555
H8 C11 1_555 1_555
C12 C10 1_555 1_555
C13 C14 1_555 1_555
C14 C15 1_555 1_555
C15 H9 1_555 1_555
C16 C15 1_555 1_555
H10 C16 1_555 1_555
C17 H11 1_555 1_555
C18 C14 1_555 1_555
H12 C18 1_555 1_555
C19 C20 1_555 1_555
C20 C21 1_555 1_555
C21 H13 1_555 1_555
C22 C20 1_555 1_555
H14 C22 1_555 1_555
C23 C22 1_555 1_555
H15 C23 1_555 1_555
C24 C21 1_555 1_555
H16 C24 1_555 1_555
C25 C26 1_555 1_555
C26 C27 1_555 1_555
C27 H17 1_555 1_555
C28 C27 1_555 1_555
H18 C28 1_555 1_555
C29 H19 1_555 1_555
C30 C26 1_555 1_555
H20 C30 1_555 1_555
C31 C32 1_555 1_555
C32 C33 1_555 1_555
C33 H21 1_555 1_555
C34 C33 1_555 1_555
H22 C34 1_555 1_555
C35 H23 1_555 1_555
C36 C32 1_555 1_555
H24 C36 1_555 1_555
C37 O19 1_555 1_555
La1 O1 1_555 1_555
La2 O6 1_555 1_555
N1 C4 1_555 1_555
N2 Ag1 1_555 1_555
N3 C16 1_555 1_555
N4 C34 1_555 1_555
N5 C28 1_555 1_555
N6 C23 1_555 1_555
N7 O16 1_555 1_555
N8 O13 1_555 1_555
O1 C1 1_555 1_555
O2 C1 1_555 1_555
O3 C12 1_555 1_555
O4 C12 1_555 1_555
O5 C13 1_555 1_555
O6 C13 1_555 1_555
O7 C19 1_555 1_555
O8 C19 1_555 1_555
O9 C25 1_555 1_555
O10 C25 1_555 1_555
O11 C31 1_555 1_555
O12 C31 1_555 1_555
O14 N8 1_555 1_555
O15 N8 1_555 1_555
O17 N7 1_555 1_555
O18 N7 1_555 1_555
O19 La2 1_555 1_555
O20 C37 1_555 1_555
O21 H25 1_555 1_555
H26 O21 1_555 1_555
O22 H27 1_555 1_555
H28 O22 1_555 1_555
O23 La1 1_555 1_555
H29 O23 1_555 1_555
H30 O23 1_555 1_555
O24 La1 1_555 1_555
H31 O24 1_555 1_555
H32 O24 1_555 1_555
O25 La2 1_555 1_555
H33 O25 1_555 1_555
H34 O25 1_555 1_555
O26 H35 1_555 1_555
H36 O26 1_555 1_555
Ag1C N1C 1_555 1_555
Ag1_2 N2_2 1_555 1_555
Ag2B N4B 1_555 1_555
Ag2_2 N5 1_555 1_555
Ag2C N5C 1_555 1_555
Ag3C N3C 1_555 1_555
Ag3_2 N6 1_555 1_555
Ag3C_2 N6C 1_555 1_555
C1C C2C 1_555 1_555
C2C C3C 1_555 1_555
C3C H1C 1_555 1_555
C4C C3C 1_555 1_555
H2C C4C 1_555 1_555
C5C H3C 1_555 1_555
C6C C2C 1_555 1_555
H4C C6C 1_555 1_555
C7_2 H5_2 1_555 1_555
C8_2 H6_2 1_555 1_555
C9_2 C8_2 1_555 1_555
H7_2 C9_2 1_555 1_555
C10_2 C9_2 1_555 1_555
C11_2 C7_2 1_555 1_555
H8_2 C11_2 1_555 1_555
C12_2 C10_2 1_555 1_555
C13C C14C 1_555 1_555
C14C C15C 1_555 1_555
C15C H9C 1_555 1_555
C16C C15C 1_555 1_555
H10C C16C 1_555 1_555
C17C H11C 1_555 1_555
C18C C14C 1_555 1_555
H12C C18C 1_555 1_555
C19C C20C 1_555 1_555
C20C C21C 1_555 1_555
C21C H13C 1_555 1_555
C22C C20C 1_555 1_555
H14C C22C 1_555 1_555
C23C C22C 1_555 1_555
H15C C23C 1_555 1_555
C24C C21C 1_555 1_555
H16C C24C 1_555 1_555
C25C C26C 1_555 1_555
C26C C27C 1_555 1_555
C27C H17C 1_555 1_555
C28C C27C 1_555 1_555
H18C C28C 1_555 1_555
C29C H19C 1_555 1_555
C30C C26C 1_555 1_555
H20C C30C 1_555 1_555
C31B C32B 1_555 1_555
C32B C33B 1_555 1_555
C33B H21B 1_555 1_555
C34B C33B 1_555 1_555
H22B C34B 1_555 1_555
C35B H23B 1_555 1_555
C36B C32B 1_555 1_555
H24B C36B 1_555 1_555
C37B C37 1_555 1_555
La1C O2 1_555 1_555
La1_2 O3 1_555 1_555
La1C_2 O4 1_555 1_555
La1C_3 O1C 1_555 1_555
La2C O6C 1_555 1_555
La2B O12 1_555 1_555
La2B_2 O20 1_555 1_555
N1C C4C 1_555 1_555
N2_2 C7_2 1_555 1_555
N2C Ag1C 1_555 1_555
N3C C16C 1_555 1_555
N4B C34B 1_555 1_555
N5C C28C 1_555 1_555
N5_2 Ag2 1_555 1_555
N5B Ag2B 1_555 1_555
N6C C23C 1_555 1_555
N6_2 Ag3 1_555 1_555
N6C_2 Ag3C 1_555 1_555
O1C C1C 1_555 1_555
O1C_2 La1C 1_555 1_555
O2C La1 1_555 1_555
O3_2 La1 1_555 1_555
O3C La1C 1_555 1_555
O4_2 C12_2 1_555 1_555
O4C La1 1_555 1_555
O5C C13C 1_555 1_555
O6C C13C 1_555 1_555
O7C C19C 1_555 1_555
O8C C19C 1_555 1_555
O9C C25C 1_555 1_555
O10C C25C 1_555 1_555
O11B C31B 1_555 1_555
O11C La2C 1_555 1_555
O12B La2 1_555 1_555
O12A La2C 1_555 1_555
O19B C37B 1_555 1_555
O19C La2C 1_555 1_555
O20B La2 1_555 1_555
O20A La2C 1_555 1_555
O23C La1 1_555 1_555
O23C_2 La1C 1_555 1_555
H29C O23C 1_555 1_555
H29C_2 O23C_2 1_555 1_555
H30C O23C 1_555 1_555
H30C_2 O23C_2 1_555 1_555
O24C La1C 1_555 1_555
H31C O24C 1_555 1_555
H32C O24C 1_555 1_555
O25C La2C 1_555 1_555
H33C O25C 1_555 1_555
H34C O25C 1_555 1_555
C5 C6 1_555 1_555
C5 N1 1_555 1_555
C7 N2 1_555 1_555
C8 N2 1_555 1_555
C10 C11 1_555 1_555
C17 C18 1_555 1_555
C17 N3 1_555 1_555
C24 N6 1_555 1_555
C29 C30 1_555 1_555
C29 N5 1_555 1_555
C35 C36 1_555 1_555
C35 N4 1_555 1_555
La1 O5 1_555 1_555
La1 O8 1_555 1_555
La2 O7 1_555 1_555
La2 O9 1_555 1_555
La2 O11 1_555 1_555
O23 La1C 1_555 1_555
C1C O2C 1_555 1_555
C5C C6C 1_555 1_555
C5C N1C 1_555 1_555
C8_2 N2_2 1_555 1_555
C10_2 C11_2 1_555 1_555
C12_2 O3_2 1_555 1_555
C17C C18C 1_555 1_555
C17C N3C 1_555 1_555
C24C N6C 1_555 1_555
C29C C30C 1_555 1_555
C29C N5C 1_555 1_555
C31B O12B 1_555 1_555
C35B C36B 1_555 1_555
C35B N4B 1_555 1_555
C37B O20B 1_555 1_555
La1C O4_2 1_555 1_555
La1C O5C 1_555 1_555
La1C O8C 1_555 1_555
La1C_3 O23C 1_555 1_555
La2C O7C 1_555 1_555
La2C O9C 1_555 1_555
La2B O11B 1_555 1_555
La2B_2 O19B 1_555 1_555

#END
