
#######################################################################
#
#                 Cambridge Crystallographic Data Centre
#                                CCDC 
#
#######################################################################
#
# If this CIF has been generated from an entry in the Cambridge 
# Structural Database, then it will include bibliographic, chemical, 
# crystal, experimental, refinement or atomic coordinate data resulting 
# from the CCDC's data processing and validation procedures.
#
#######################################################################

data_CUYYAX
_symmetry_cell_setting           tetragonal
_symmetry_space_group_name_H-M   'P 43'
_symmetry_Int_Tables_number      78
_space_group_name_Hall           'P 4cw'
loop_
_symmetry_equiv_pos_site_id
_symmetry_equiv_pos_as_xyz
1 x,y,z
2 -x,-y,1/2+z
3 -y,x,3/4+z
4 y,-x,1/4+z
_cell_length_a                   9.0752(5)
_cell_length_b                   9.0752(5)
_cell_length_c                   27.014(3)
_cell_angle_alpha                90
_cell_angle_beta                 90
_cell_angle_gamma                90
_cell_volume                     2224.85
loop_
_atom_site_label
_atom_site_type_symbol
_atom_site_fract_x
_atom_site_fract_y
_atom_site_fract_z
C1 C 0.4737(6) 0.8842(6) 0.6966(2)
C2 C 0.5129(6) 0.7883(5) 0.7336(2)
H1 H 0.5850 0.8138 0.7565
C3 C 0.4436(5) 0.6539(5) 0.7362(2)
C4 C 0.3362(6) 0.6141(6) 0.70213(19)
H2 H 0.2928 0.5213 0.7034
C5 C 0.2945(6) 0.7158(6) 0.66591(19)
C6 C 0.3651(6) 0.8506(6) 0.6626(2)
H3 H 0.3399 0.9174 0.6379
C7 C 0.6223(6) 1.0799(6) 0.6553(2)
H4 H 0.6355 1.0322 0.6252
C8 C 0.6316(7) 1.2381(6) 0.7132(2)
H5 H 0.6539 1.3230 0.7309
C9 C 0.5510(7) 1.1262(6) 0.7305(2)
H6 H 0.5074 1.1193 0.7616
C10 C 0.4007(6) 0.4384(6) 0.7917(2)
H7 H 0.3076 0.4144 0.7798
C11 C 0.6007(6) 0.4341(6) 0.8328(2)
H8 H 0.6734 0.4057 0.8550
C12 C 0.6105(6) 0.5499(6) 0.8004(2)
H9 H 0.6892 0.6148 0.7970
C13 C 0.1230(5) 0.5480(6) 0.6238(2)
H10 H 0.1652 0.4604 0.6347
C14 C -0.0212(7) 0.7045(7) 0.5891(2)
H11 H -0.0995 0.7454 0.5716
C15 C 0.0879(7) 0.7805(6) 0.6112(2)
H12 H 0.0997 0.8823 0.6109
C16 C 1.1014(7) 1.0980(6) 0.5381(2)
C17 C 1.0621(7) 1.0100(7) 0.4995(2)
H13 H 0.9638 1.0032 0.4901
C18 C 1.1698(7) 0.9298(7) 0.4740(2)
H14 H 1.1419 0.8661 0.4487
C19 C 1.3158(7) 0.9441(6) 0.4859(3)
C20 C 1.3548(7) 1.0337(7) 0.5260(2)
H15 H 1.4533 1.0425 0.5351
C21 C 1.2488(7) 1.1087(6) 0.5521(2)
H16 H 1.2754 1.1666 0.5791
C22 C 0.9867(7) 1.1849(6) 0.5662(2)
C23 C 1.4336(8) 0.8712(7) 0.4542(2)
Cd1 Cd 0.81845(4) 1.37670(4) 0.625043(17)
N1 N 0.6765(5) 1.2105(5) 0.66603(17)
N2 N 0.5455(5) 1.0241(5) 0.69353(16)
N3 N 0.4673(5) 0.3671(5) 0.82711(17)
N4 N 0.4829(5) 0.5513(4) 0.77431(16)
N5 N 0.0027(5) 0.5535(6) 0.59675(19)
N6 N 0.1786(5) 0.6807(4) 0.63405(17)
O1 O 1.0157(5) 1.2224(5) 0.61014(16)
O2 O 0.8675(5) 1.2157(5) 0.54660(19)
O3 O 1.3984(6) 0.7712(5) 0.42630(18)
O4 O 1.5604(5) 0.9232(5) 0.45580(17)
Cd1C Cd 0.37670(4) 0.18155(4) 0.875043(17)
Cd1_2 Cd -0.18155(4) 0.37670(4) 0.625043(17)
Cd1B Cd 1.62330(4) 0.81845(4) 0.375043(17)
N3B N 0.6329(5) 1.4673(5) 0.57711(17)
N5_2 N 1.0027(5) 1.5535(6) 0.59675(19)
O3C O 0.7712(5) 1.6016(6) 0.67630(18)
O4C O 0.9232(5) 1.4396(5) 0.70580(17)
O5 O 0.7074(6) 0.9452(7) 0.5463(2)
O6 O 0.7661(7) 0.2340(7) 0.4397(3)
loop_
_geom_bond_atom_site_label_1
_geom_bond_atom_site_label_2
_geom_bond_site_symmetry_1
_geom_bond_site_symmetry_2
C1 C2 1_555 1_555
C2 H1 1_555 1_555
C3 C2 1_555 1_555
C4 C3 1_555 1_555
H2 C4 1_555 1_555
C5 C4 1_555 1_555
C6 C1 1_555 1_555
H3 C6 1_555 1_555
C7 H4 1_555 1_555
C8 H5 1_555 1_555
C9 C8 1_555 1_555
H6 C9 1_555 1_555
C10 H7 1_555 1_555
C11 H8 1_555 1_555
C12 C11 1_555 1_555
H9 C12 1_555 1_555
C13 H10 1_555 1_555
C14 H11 1_555 1_555
C15 C14 1_555 1_555
H12 C15 1_555 1_555
C16 C17 1_555 1_555
C17 H13 1_555 1_555
C18 C17 1_555 1_555
H14 C18 1_555 1_555
C19 C18 1_555 1_555
C20 C19 1_555 1_555
H15 C20 1_555 1_555
C21 C16 1_555 1_555
H16 C21 1_555 1_555
C22 C16 1_555 1_555
C23 C19 1_555 1_555
Cd1 N1 1_555 1_555
N1 C7 1_555 1_555
N2 C1 1_555 1_555
N3 C10 1_555 1_555
N4 C3 1_555 1_555
N5 C13 1_555 1_555
N6 C5 1_555 1_555
O1 C22 1_555 1_555
O2 C22 1_555 1_555
O3 C23 1_555 1_555
O4 C23 1_555 1_555
Cd1C N3 1_555 1_555
Cd1_2 N5 1_555 1_555
Cd1B O3 1_555 1_555
N3B Cd1 1_555 1_555
N5_2 Cd1 1_555 1_555
O3C Cd1 1_555 1_555
O4C Cd1 1_555 1_555
C5 C6 1_555 1_555
C7 N2 1_555 1_555
C8 N1 1_555 1_555
C9 N2 1_555 1_555
C10 N4 1_555 1_555
C11 N3 1_555 1_555
C12 N4 1_555 1_555
C13 N6 1_555 1_555
C14 N5 1_555 1_555
C15 N6 1_555 1_555
C20 C21 1_555 1_555
Cd1 O1 1_555 1_555
Cd1 O2 1_555 1_555
O4 Cd1B 1_555 1_555

#END
