
#######################################################################
#
#                 Cambridge Crystallographic Data Centre
#                                CCDC 
#
#######################################################################
#
# If this CIF has been generated from an entry in the Cambridge 
# Structural Database, then it will include bibliographic, chemical, 
# crystal, experimental, refinement or atomic coordinate data resulting 
# from the CCDC's data processing and validation procedures.
#
#######################################################################

data_CUYYEB
_symmetry_cell_setting           tetragonal
_symmetry_space_group_name_H-M   'P 41'
_symmetry_Int_Tables_number      76
_space_group_name_Hall           'P 4w'
loop_
_symmetry_equiv_pos_site_id
_symmetry_equiv_pos_as_xyz
1 x,y,z
2 -x,-y,1/2+z
3 -y,x,1/4+z
4 y,-x,3/4+z
_cell_length_a                   9.0723(10)
_cell_length_b                   9.0723(10)
_cell_length_c                   27.010(4)
_cell_angle_alpha                90
_cell_angle_beta                 90
_cell_angle_gamma                90
_cell_volume                     2223.1
loop_
_atom_site_label
_atom_site_type_symbol
_atom_site_fract_x
_atom_site_fract_y
_atom_site_fract_z
Cd1 Cd 1.87702(3) -0.68143(3) -0.077392(12)
C1 C 1.3840(5) -1.0262(4) -0.00629(16)
C2 C 1.3501(5) -1.1347(5) -0.04016(16)
H1 H 1.4166 -1.1602 -0.0649
C3 C 1.2152(4) -1.2050(4) -0.03658(15)
C4 C 1.1141(4) -1.1640(4) -0.00049(15)
H2 H 1.0216 -1.2081 0.0009
C5 C 1.1534(4) -1.0562(4) 0.03341(15)
C6 C 1.2875(4) -0.9867(4) 0.03106(15)
H3 H 1.3129 -0.9148 0.0540
C7 C 1.5798(5) -0.8779(5) -0.04753(17)
H4 H 1.5324 -0.8649 -0.0777
C8 C 1.7388(5) -0.8695(5) 0.01088(17)
H5 H 1.8244 -0.8483 0.0284
C9 C 1.6257(5) -0.9490(5) 0.02826(16)
H6 H 1.6179 -0.9917 0.0594
C10 C 0.9376(5) -1.0988(5) 0.08907(16)
H7 H 0.9132 -1.1918 0.0772
C11 C 0.9351(5) -0.8993(5) 0.13014(15)
H8 H 0.9076 -0.8271 0.1528
C12 C 1.0494(5) -0.8881(5) 0.09799(16)
H9 H 1.1134 -0.8087 0.0946
C13 C 1.0477(4) -1.3768(4) -0.07902(19)
H10 H 0.9600 -1.3344 -0.0684
C14 C 1.2038(5) -1.5201(5) -0.11369(18)
H11 H 1.2441 -1.5979 -0.1315
C15 C 1.2812(5) -1.4129(5) -0.09167(16)
H12 H 1.3832 -1.4021 -0.0918
C16 C 1.5983(5) -0.3980(5) -0.16405(17)
C17 C 1.5078(5) -0.4371(5) -0.20347(18)
H13 H 1.5006 -0.5353 -0.2130
C18 C 1.4289(5) -0.3312(5) -0.22843(17)
H14 H 1.3649 -0.3591 -0.2536
C19 C 1.4436(5) -0.1842(5) -0.21653(18)
C20 C 1.5338(5) -0.1455(5) -0.17696(19)
H15 H 1.5439 -0.0468 -0.1683
C21 C 1.6084(5) -0.2516(5) -0.15037(17)
H16 H 1.6655 -0.2246 -0.1232
C22 C 1.6839(5) -0.5141(5) -0.13591(18)
C23 C 1.3709(5) -0.0672(6) -0.24849(17)
N1 N 1.7101(4) -0.8240(4) -0.03672(13)
N2 N 1.5237(4) -0.9546(4) -0.00915(12)
N3 N 0.8664(4) -1.0319(4) 0.12436(13)
N4 N 1.0518(3) -1.0168(4) 0.07157(13)
N5 N 1.0546(4) -1.4973(4) -0.10586(14)
N6 N 1.1809(4) -1.3219(3) -0.06874(13)
O1 O 1.7149(4) -0.6331(4) -0.15608(14)
O2 O 1.7216(4) -0.4844(4) -0.09203(12)
O3 O 1.4226(4) 0.0606(4) -0.24703(12)
O4 O 1.2703(4) -0.1027(4) -0.27638(14)
Cd1B Cd 0.68143(3) -1.12298(3) 0.172608(12)
Cd1_2 Cd 0.87702(3) -1.68143(3) -0.077392(12)
Cd1C Cd 1.31857(3) 0.12298(3) -0.327392(12)
N3C N 1.9681(4) -0.8664(4) -0.12564(13)
N5_2 N 2.0546(4) -0.4973(4) -0.10586(14)
O3B O 1.9394(4) -0.5774(4) 0.00297(12)
O4B O 2.1027(4) -0.7297(4) -0.02638(14)
O5 O 1.4458(5) -0.7918(5) -0.15634(18)
O6 O 1.7340(6) -0.2653(5) -0.0130(2)
loop_
_geom_bond_atom_site_label_1
_geom_bond_atom_site_label_2
_geom_bond_site_symmetry_1
_geom_bond_site_symmetry_2
Cd1 N1 1_555 1_555
C1 C2 1_555 1_555
C2 H1 1_555 1_555
C3 C2 1_555 1_555
C4 C3 1_555 1_555
H2 C4 1_555 1_555
C5 C4 1_555 1_555
C6 C1 1_555 1_555
H3 C6 1_555 1_555
C7 H4 1_555 1_555
C8 H5 1_555 1_555
C9 C8 1_555 1_555
H6 C9 1_555 1_555
C10 H7 1_555 1_555
C11 H8 1_555 1_555
C12 C11 1_555 1_555
H9 C12 1_555 1_555
C13 H10 1_555 1_555
C14 H11 1_555 1_555
C15 C14 1_555 1_555
H12 C15 1_555 1_555
C16 C17 1_555 1_555
C17 H13 1_555 1_555
C18 C17 1_555 1_555
H14 C18 1_555 1_555
C19 C18 1_555 1_555
C20 C19 1_555 1_555
H15 C20 1_555 1_555
C21 C16 1_555 1_555
H16 C21 1_555 1_555
C22 C16 1_555 1_555
C23 C19 1_555 1_555
N1 C7 1_555 1_555
N2 C1 1_555 1_555
N3 C10 1_555 1_555
N4 C5 1_555 1_555
N5 C13 1_555 1_555
N6 C3 1_555 1_555
O1 Cd1 1_555 1_555
O2 Cd1 1_555 1_555
O3 C23 1_555 1_555
O4 C23 1_555 1_555
Cd1B N3 1_555 1_555
Cd1_2 N5 1_555 1_555
Cd1C O3 1_555 1_555
N3C Cd1 1_555 1_555
N5_2 Cd1 1_555 1_555
O3B Cd1 1_555 1_555
O4B Cd1 1_555 1_555
C5 C6 1_555 1_555
C7 N2 1_555 1_555
C8 N1 1_555 1_555
C9 N2 1_555 1_555
C10 N4 1_555 1_555
C11 N3 1_555 1_555
C12 N4 1_555 1_555
C13 N6 1_555 1_555
C14 N5 1_555 1_555
C15 N6 1_555 1_555
C20 C21 1_555 1_555
C22 O1 1_555 1_555
C22 O2 1_555 1_555
O4 Cd1C 1_555 1_555

#END
