
#######################################################################
#
#                 Cambridge Crystallographic Data Centre
#                                CCDC 
#
#######################################################################
#
# If this CIF has been generated from an entry in the Cambridge 
# Structural Database, then it will include bibliographic, chemical, 
# crystal, experimental, refinement or atomic coordinate data resulting 
# from the CCDC's data processing and validation procedures.
#
#######################################################################

data_CUZJEN
_symmetry_cell_setting           cubic
_symmetry_space_group_name_H-M   'P n -3'
_symmetry_Int_Tables_number      201
_space_group_name_Hall           '-P 2ab 2bc 3'
loop_
_symmetry_equiv_pos_site_id
_symmetry_equiv_pos_as_xyz
1 x,y,z
2 1/2-x,1/2-y,z
3 1/2-x,y,1/2-z
4 x,1/2-y,1/2-z
5 z,x,y
6 z,1/2-x,1/2-y
7 1/2-z,1/2-x,y
8 1/2-z,x,1/2-y
9 y,z,x
10 1/2-y,z,1/2-x
11 y,1/2-z,1/2-x
12 1/2-y,1/2-z,x
13 -x,-y,-z
14 1/2+x,1/2+y,-z
15 1/2+x,-y,1/2+z
16 -x,1/2+y,1/2+z
17 -z,-x,-y
18 -z,1/2+x,1/2+y
19 1/2+z,1/2+x,-y
20 1/2+z,-x,1/2+y
21 -y,-z,-x
22 1/2+y,-z,1/2+x
23 -y,1/2+z,1/2+x
24 1/2+y,1/2+z,-x
_cell_length_a                   13.9033(11)
_cell_length_b                   13.9033(11)
_cell_length_c                   13.9033(11)
_cell_angle_alpha                90
_cell_angle_beta                 90
_cell_angle_gamma                90
_cell_volume                     2687.53
loop_
_atom_site_label
_atom_site_type_symbol
_atom_site_fract_x
_atom_site_fract_y
_atom_site_fract_z
Sn1 Sn 0.357735(14) 0.357735(14) 0.142265(14)
O1 O 0.36836(14) 0.51485(15) 0.11801(15)
O2 O 0.21277(18) 0.48976(18) 0.1141(2)
C1 C 0.2817(2) 0.5456(2) 0.1156(2)
C2 C 0.2653(2) 0.6513(2) 0.1133(2)
C3 C 0.3411(2) 0.7141(3) 0.1127(3)
H1 H 0.4037 0.6905 0.1129
C4 C 0.1745(2) 0.6885(3) 0.1116(3)
H2 H 0.1221 0.6470 0.1097
Na1 Na 0.5000 0.5000 0.0000
Na2 Na 0.06709(17) 0.43291(17) 0.06709(17)
O3 O 0.0269(3) 0.4731(3) 0.0269(3)
Sn1A Sn 0.142265(14) 1.142265(14) 0.142265(14)
Sn1L Sn 0.642265(14) 0.642265(14) -0.142265(14)
Sn1M Sn 0.857735(14) -0.142265(14) -0.142265(14)
Sn1N Sn -0.142265(14) 0.642265(14) -0.357735(14)
O1A O 0.13164(14) 0.98515(15) 0.11801(15)
O1L O 0.63164(14) 0.48515(15) -0.11801(15)
O1M O 0.86836(14) 0.01485(15) -0.11801(15)
O1V O 0.48515(15) 0.61801(15) -0.13164(14)
O1W O 0.01485(15) 0.61801(15) -0.36836(14)
O1G O 0.38199(15) 0.36836(14) -0.01485(15)
O1J O 0.51485(15) 0.38199(15) 0.13164(14)
O1S O 0.61801(15) 0.63164(14) 0.01485(15)
O1E O 0.11801(15) 1.13164(14) -0.01485(15)
O1I O -0.01485(15) 1.11801(15) 0.13164(14)
O2A O 0.28723(18) 1.01024(18) 0.1141(2)
O2L O 0.78723(18) 0.51024(18) -0.1141(2)
O2M O 0.71277(18) -0.01024(18) -0.1141(2)
O2V O 0.51024(18) 0.6141(2) -0.28723(18)
O2W O -0.01024(18) 0.6141(2) -0.21277(18)
O2K O 0.01024(18) 0.3859(2) 0.21277(18)
O2E O 0.1141(2) 0.28723(18) 0.01024(18)
O2H O 0.48976(18) 1.1141(2) 0.21277(18)
O2G O 0.3859(2) 1.21277(18) 0.01024(18)
C1A C 0.2183(2) 0.9544(2) 0.1156(2)
C1L C 0.7183(2) 0.4544(2) -0.1156(2)
C1M C 0.7817(2) 0.0456(2) -0.1156(2)
C1V C 0.4544(2) 0.6156(2) -0.2183(2)
C1W C 0.0456(2) 0.6156(2) -0.2817(2)
C2A C 0.2347(2) 0.8487(2) 0.1133(2)
C2L C 0.7347(2) 0.3487(2) -0.1133(2)
C2M C 0.7653(2) 0.1513(2) -0.1133(2)
C2V C 0.3487(2) 0.6133(2) -0.2347(2)
C2W C 0.1513(2) 0.6133(2) -0.2653(2)
C3A C 0.1589(2) 0.7859(3) 0.1127(3)
C3L C 0.6589(2) 0.2859(3) -0.1127(3)
C3M C 0.8411(2) 0.2141(3) -0.1127(3)
C3V C 0.2859(3) 0.6127(3) -0.1589(2)
C3W C 0.2141(3) 0.6127(3) -0.3411(2)
H1A H 0.0963 0.8095 0.1129
H1L H 0.5963 0.3095 -0.1129
H1M H 0.9037 0.1905 -0.1129
H1V H 0.3095 0.6129 -0.0963
H1W H 0.1905 0.6129 -0.4037
C4A C 0.3255(2) 0.8115(3) 0.1116(3)
C4L C 0.8255(2) 0.3115(3) -0.1116(3)
C4M C 0.6745(2) 0.1885(3) -0.1116(3)
C4V C 0.3115(3) 0.6116(3) -0.3255(2)
C4W C 0.1885(3) 0.6116(3) -0.1745(2)
H2A H 0.3779 0.8530 0.1097
H2L H 0.8779 0.3530 -0.1097
H2M H 0.6221 0.1470 -0.1097
H2V H 0.3530 0.6097 -0.3779
H2W H 0.1470 0.6097 -0.1221
Na1A Na 0.0000 1.0000 0.0000
Na1A_2 Na 1.0000 0.0000 0.0000
Na1B Na 0.0000 0.5000 -0.5000
Na2A Na 0.43291(17) 1.06709(17) 0.06709(17)
Na2L Na -0.06709(17) 0.56709(17) -0.06709(17)
Na2L_2 Na 0.93291(17) 0.56709(17) -0.06709(17)
Na2M Na 0.56709(17) -0.06709(17) -0.06709(17)
Na2N Na 0.56709(17) 0.56709(17) -0.43291(17)
O3L O -0.0269(3) 0.5269(3) -0.0269(3)
O3A O 0.4731(3) 1.0269(3) 0.0269(3)
O3M O 0.5269(3) 0.9731(3) -0.0269(3)
loop_
_geom_bond_atom_site_label_1
_geom_bond_atom_site_label_2
_geom_bond_site_symmetry_1
_geom_bond_site_symmetry_2
Sn1 O1 1_555 1_555
O1 C1 1_555 1_555
O2 C1 1_555 1_555
C1 C2 1_555 1_555
C2 C3 1_555 1_555
C3 H1 1_555 1_555
C4 C2 1_555 1_555
H2 C4 1_555 1_555
Na1 O1 1_555 1_555
Na2 O2 1_555 1_555
O3 Na2 1_555 1_555
Sn1A O1A 1_555 1_555
Sn1L O1L 1_555 1_555
Sn1M O1M 1_555 1_555
Sn1N O1W 1_555 1_555
O1A C1A 1_555 1_555
O1L Na1 1_555 1_555
O1M C1M 1_555 1_555
O1V Na1 1_555 1_555
O1W C1W 1_555 1_555
O1G Sn1 1_555 1_555
O1J Sn1 1_555 1_555
O1S Na1 1_555 1_555
O1E Sn1A 1_555 1_555
O1I Sn1A 1_555 1_555
O2A C1A 1_555 1_555
O2L C1L 1_555 1_555
O2M C1M 1_555 1_555
O2V C1V 1_555 1_555
O2W C1W 1_555 1_555
O2K Na2 1_555 1_555
O2E Na2 1_555 1_555
O2H Na2A 1_555 1_555
O2G Na2A 1_555 1_555
C1A C2A 1_555 1_555
C1L O1L 1_555 1_555
C1M C2M 1_555 1_555
C1V O1V 1_555 1_555
C1W C2W 1_555 1_555
C2A C3A 1_555 1_555
C2L C1L 1_555 1_555
C2M C3M 1_555 1_555
C2V C1V 1_555 1_555
C2W C3W 1_555 1_555
C3A C4 1_555 1_555
C3L C2L 1_555 1_555
C3M H1M 1_555 1_555
C3V C2V 1_555 1_555
C3W H1W 1_555 1_555
H1A C3A 1_555 1_555
H1L C3L 1_555 1_555
H1V C3V 1_555 1_555
C4A C3 1_555 1_555
C4L C2L 1_555 1_555
C4M C2M 1_555 1_555
C4V C2V 1_555 1_555
C4W C2W 1_555 1_555
H2A C4A 1_555 1_555
H2L C4L 1_555 1_555
H2M C4M 1_555 1_555
H2V C4V 1_555 1_555
H2W C4W 1_555 1_555
Na1A O1A 1_555 1_555
Na1A_2 O1M 1_555 1_555
Na1B O1W 1_555 1_555
Na2A O2A 1_555 1_555
Na2L O3 1_555 1_555
Na2L_2 O2L 1_555 1_555
Na2M O2M 1_555 1_555
Na2N O2V 1_555 1_555
O3L Na2 1_555 1_555
O3A Na2A 1_555 1_555
O3M Na2A 1_555 1_555
Na1 O1G 1_555 1_555
Na1 O1J 1_555 1_555
O3 O3L 1_555 1_555
Sn1L O1V 1_555 1_555
Sn1L O1S 1_555 1_555
O1E Na1A 1_555 1_555
O1I Na1A 1_555 1_555
O2W Na2L 1_555 1_555
C2A C4A 1_555 1_555
C3L C4M 1_555 1_555
C3M C4L 1_555 1_555
C3V C4W 1_555 1_555
C3W C4V 1_555 1_555
Na2L O3L 1_555 1_555
O3A O3M 1_555 1_555

#END
