
#######################################################################
#
#                 Cambridge Crystallographic Data Centre
#                                CCDC 
#
#######################################################################
#
# If this CIF has been generated from an entry in the Cambridge 
# Structural Database, then it will include bibliographic, chemical, 
# crystal, experimental, refinement or atomic coordinate data resulting 
# from the CCDC's data processing and validation procedures.
#
#######################################################################

data_CUZJIR
_symmetry_cell_setting           cubic
_symmetry_space_group_name_H-M   'I 2 3'
_symmetry_Int_Tables_number      197
_space_group_name_Hall           'I 2 2 3'
loop_
_symmetry_equiv_pos_site_id
_symmetry_equiv_pos_as_xyz
1 x,y,z
2 -x,-y,z
3 -x,y,-z
4 x,-y,-z
5 z,x,y
6 z,-x,-y
7 -z,-x,y
8 -z,x,-y
9 y,z,x
10 -y,z,-x
11 y,-z,-x
12 -y,-z,x
13 1/2+x,1/2+y,1/2+z
14 1/2-x,1/2-y,1/2+z
15 1/2-x,1/2+y,1/2-z
16 1/2+x,1/2-y,1/2-z
17 1/2+z,1/2+x,1/2+y
18 1/2+z,1/2-x,1/2-y
19 1/2-z,1/2-x,1/2+y
20 1/2-z,1/2+x,1/2-y
21 1/2+y,1/2+z,1/2+x
22 1/2-y,1/2+z,1/2-x
23 1/2+y,1/2-z,1/2-x
24 1/2-y,1/2-z,1/2+x
_cell_length_a                   13.956(2)
_cell_length_b                   13.956(2)
_cell_length_c                   13.956(2)
_cell_angle_alpha                90
_cell_angle_beta                 90
_cell_angle_gamma                90
_cell_volume                     2718.21
loop_
_atom_site_label
_atom_site_type_symbol
_atom_site_fract_x
_atom_site_fract_y
_atom_site_fract_z
C1 C 0.0283(4) 0.8560(3) 0.7038(4)
C2 C 0.0136(3) 0.8584(3) 0.5982(4)
C3 C 0.0894(4) 0.8588(5) 0.5380(4)
H1 H 0.1514 0.8593 0.5625
C4 C -0.0751(4) 0.8585(6) 0.5598(4)
H2 H -0.1280 0.8584 0.6003
K1 K 0.28031(8) 0.71969(8) 0.71969(8)
O1 O 0.1145(2) 0.8660(2) 0.7343(2)
O2 O -0.0396(3) 0.8465(4) 0.7583(3)
Sn1 Sn 0.11141(3) 0.88859(3) 0.88859(3)
C1B C -0.0283(4) 0.8560(3) 0.2962(4)
C1O C 0.5283(4) 0.6440(3) 0.7962(4)
C1M C 0.4717(4) 0.6440(3) 1.2038(4)
C1F C 0.2962(4) 0.9717(4) 0.8560(3)
C1D C 0.7038(4) 1.0283(4) 0.8560(3)
C2B C -0.0136(3) 0.8584(3) 0.4018(4)
C2O C 0.5136(3) 0.6416(3) 0.9018(4)
C2M C 0.4864(3) 0.6416(3) 1.0982(4)
C2F C 0.4018(4) 0.9864(3) 0.8584(3)
C2D C 0.5982(4) 1.0136(3) 0.8584(3)
C3B C -0.0894(4) 0.8588(5) 0.4620(4)
C3O C 0.5894(4) 0.6412(5) 0.9620(4)
C3M C 0.4106(4) 0.6412(5) 1.0380(4)
C3F C 0.4620(4) 0.9106(4) 0.8588(5)
C3D C 0.5380(4) 1.0894(4) 0.8588(5)
H1B H -0.1514 0.8593 0.4375
H1O H 0.6514 0.6407 0.9375
H1M H 0.3486 0.6407 1.0625
H1F H 0.4375 0.8486 0.8593
H1D H 0.5625 1.1514 0.8593
C4B C 0.0751(4) 0.8585(6) 0.4402(4)
C4O C 0.4249(4) 0.6415(6) 0.9402(4)
C4M C 0.5751(4) 0.6415(6) 1.0598(4)
C4F C 0.4402(4) 1.0751(4) 0.8585(6)
C4D C 0.5598(4) 0.9249(4) 0.8585(6)
H2B H 0.1280 0.8584 0.3997
H2O H 0.3720 0.6416 0.8997
H2M H 0.6280 0.6416 1.1003
H2F H 0.3997 1.1280 0.8584
H2D H 0.6003 0.8720 0.8584
K1B K -0.28031(8) 0.71969(8) 0.28031(8)
K1O K -0.21969(8) 0.78031(8) 0.78031(8)
K1M K 0.21969(8) 0.78031(8) 0.21969(8)
K1O_2 K 0.78031(8) 0.78031(8) 0.78031(8)
K1M_2 K 0.21969(8) 0.78031(8) 1.21969(8)
K1B_2 K 0.71969(8) 0.71969(8) 1.28031(8)
K1N K 0.21969(8) 1.21969(8) 0.78031(8)
K1A K 0.71969(8) 1.28031(8) 0.71969(8)
O1B O -0.1145(2) 0.8660(2) 0.2657(2)
O1O O 0.6145(2) 0.6340(2) 0.7657(2)
O1M O 0.3855(2) 0.6340(2) 1.2343(2)
O1F O 0.2657(2) 0.8855(2) 0.8660(2)
O1D O 0.7343(2) 1.1145(2) 0.8660(2)
O1I O 0.1340(2) 0.7343(2) 0.8855(2)
O1E O -0.2657(2) 0.8855(2) 0.1340(2)
O1H O -0.1340(2) 0.7343(2) 0.1145(2)
O2B O 0.0396(3) 0.8465(4) 0.2417(3)
O2O O 0.4604(3) 0.6535(4) 0.7417(3)
O2M O 0.5396(3) 0.6535(4) 1.2583(3)
O2F O 0.2417(3) 1.0396(3) 0.8465(4)
O2D O 0.7583(3) 0.9604(3) 0.8465(4)
O2Q O 0.2583(3) 0.5396(3) 0.6535(4)
O2V O 0.3465(4) 0.7417(3) 0.5396(3)
O2M_2 O -0.4604(3) 0.6535(4) 0.2583(3)
O2R O -0.2583(3) 0.5396(3) 0.3465(4)
O2W O -0.3465(4) 0.7417(3) 0.4604(3)
Sn1B Sn -0.11141(3) 0.88859(3) 0.11141(3)
Sn1O Sn 0.61141(3) 0.61141(3) 0.61141(3)
Sn1M Sn 0.38859(3) 0.61141(3) 1.38859(3)
Sn1A Sn 0.88859(3) 1.11141(3) 0.88859(3)
loop_
_geom_bond_atom_site_label_1
_geom_bond_atom_site_label_2
_geom_bond_site_symmetry_1
_geom_bond_site_symmetry_2
C1 C2 1_555 1_555
C2 C3 1_555 1_555
C3 H1 1_555 1_555
C4 C2 1_555 1_555
H2 C4 1_555 1_555
K1 O1 1_555 1_555
O1 C1 1_555 1_555
O2 C1 1_555 1_555
Sn1 O1 1_555 1_555
C1B C2B 1_555 1_555
C1O C2O 1_555 1_555
C1M C2M 1_555 1_555
C1F C2F 1_555 1_555
C1D C2D 1_555 1_555
C2B C3B 1_555 1_555
C2O C3O 1_555 1_555
C2M C3M 1_555 1_555
C2F C3F 1_555 1_555
C2D C3D 1_555 1_555
C3B C4 1_555 1_555
C3O H1O 1_555 1_555
C3M H1M 1_555 1_555
C3F H1F 1_555 1_555
C3D H1D 1_555 1_555
H1B C3B 1_555 1_555
C4B C3 1_555 1_555
C4O C2O 1_555 1_555
C4M C2M 1_555 1_555
C4F C2F 1_555 1_555
C4D C2D 1_555 1_555
H2B C4B 1_555 1_555
H2O C4O 1_555 1_555
H2M C4M 1_555 1_555
H2F C4F 1_555 1_555
H2D C4D 1_555 1_555
K1B O1B 1_555 1_555
K1O O2 1_555 1_555
K1M O2B 1_555 1_555
K1O_2 O1O 1_555 1_555
K1M_2 O1M 1_555 1_555
K1B_2 O2M 1_555 1_555
K1N O2F 1_555 1_555
K1A O1D 1_555 1_555
O1B C1B 1_555 1_555
O1O C1O 1_555 1_555
O1M C1M 1_555 1_555
O1F K1 1_555 1_555
O1D C1D 1_555 1_555
O1I K1 1_555 1_555
O1E K1B 1_555 1_555
O1H K1B 1_555 1_555
O2B C1B 1_555 1_555
O2O K1 1_555 1_555
O2M C1M 1_555 1_555
O2F C1F 1_555 1_555
O2D C1D 1_555 1_555
O2Q K1 1_555 1_555
O2V K1 1_555 1_555
O2M_2 K1B 1_555 1_555
O2R K1B 1_555 1_555
O2W K1B 1_555 1_555
Sn1B O1B 1_555 1_555
Sn1O O1O 1_555 1_555
Sn1M O1M 1_555 1_555
Sn1A O1D 1_555 1_555
Sn1 O1F 1_555 1_555
Sn1 O1I 1_555 1_555
C1O O2O 1_555 1_555
C1F O1F 1_555 1_555
C2B C4B 1_555 1_555
C3O C4M 1_555 1_555
C3M C4O 1_555 1_555
C3F C4D 1_555 1_555
C3D C4F 1_555 1_555
K1O_2 O2D 1_555 1_555
O1E Sn1B 1_555 1_555
O1H Sn1B 1_555 1_555

#END
