
#######################################################################
#
#                 Cambridge Crystallographic Data Centre
#                                CCDC 
#
#######################################################################
#
# If this CIF has been generated from an entry in the Cambridge 
# Structural Database, then it will include bibliographic, chemical, 
# crystal, experimental, refinement or atomic coordinate data resulting 
# from the CCDC's data processing and validation procedures.
#
#######################################################################

data_CUZKIS
_symmetry_cell_setting           monoclinic
_symmetry_space_group_name_H-M   'C 2/m'
_symmetry_Int_Tables_number      12
_space_group_name_Hall           '-C 2y'
loop_
_symmetry_equiv_pos_site_id
_symmetry_equiv_pos_as_xyz
1 x,y,z
2 -x,y,-z
3 1/2+x,1/2+y,z
4 1/2-x,1/2+y,-z
5 -x,-y,-z
6 x,-y,z
7 1/2-x,1/2-y,-z
8 1/2+x,1/2-y,z
_cell_length_a                   27.5763(15)
_cell_length_b                   16.7925(9)
_cell_length_c                   16.2791(10)
_cell_angle_alpha                90
_cell_angle_beta                 97.954(3)
_cell_angle_gamma                90
_cell_volume                     7465.92
loop_
_atom_site_label
_atom_site_type_symbol
_atom_site_fract_x
_atom_site_fract_y
_atom_site_fract_z
O2 O 0.3933(7) 0.0000 0.2260(18)
O4 O -0.1008(8) -0.0989(15) 0.8287(13)
O11 O -0.0744(7) 0.0000 0.7527(12)
O13 O -0.0245(9) -0.203(2) 0.904(2)
O14 O 0.1455(13) 0.262(2) 0.263(3)
O22 O 0.0574(8) 0.0000 0.9048(17)
O31 O 0.0000 -0.5000 0.5000
C1 C 0.2008(5) -0.6904(11) 0.6589(10)
C2 C 0.2116(8) -0.7721(14) 0.6210(12)
C3 C 0.2400(5) -0.7344(9) 0.8064(10)
C4 C 0.2129(6) -0.6145(13) 0.6087(11)
C5 C 0.1595(6) -0.8499(9) 0.8481(14)
C6 C 0.0899(6) -0.5845(14) 1.1370(11)
C7 C 0.1242(6) -0.7986(9) 0.9959(13)
C8 C 0.2311(7) -0.6308(18) 0.5249(10)
C9 C 0.2168(4) -0.6811(7) 0.9356(8)
C10 C 0.2614(5) -0.6120(10) 0.7402(9)
C11 C 0.0554(5) -0.5000 0.9413(10)
C12 C 0.0611(4) -0.6469(7) 0.9552(9)
C13 C 0.1371(4) -0.7314(7) 0.9387(10)
C14 C 0.1869(7) -0.5000 1.0538(11)
C15 C 0.1081(4) -0.5459(8) 1.0595(8)
C16 C 0.1803(5) -0.6450(8) 1.0588(8)
C17 C 0.0855(5) -0.6846(7) 0.8237(10)
C18 C 0.1307(5) -0.6146(10) 0.6266(10)
C19 C 0.1572(5) -0.7604(7) 0.8580(10)
C20 C 0.2752(7) -0.5000 0.6484(13)
C21 C 0.1206(6) -0.7404(9) 0.7040(11)
C22 C 0.1542(7) -0.5000 0.5484(13)
O1 O 0.2323(4) -0.5000 1.0575(9)
N1 N 0.1586(4) -0.5660(6) 1.0554(6)
N2 N 0.0755(4) -0.5663(6) 0.9823(7)
N3 N 0.0944(4) -0.6834(6) 0.9079(8)
N4 N 0.1778(3) -0.6829(6) 0.9800(7)
N5 N 0.1504(4) -0.6793(8) 0.6634(8)
N6 N 0.1656(4) -0.5728(9) 0.5974(7)
N7 N 0.2333(4) -0.6780(7) 0.7387(7)
N8 N 0.2505(4) -0.5726(10) 0.6661(8)
N9 N 0.2049(4) -0.7238(7) 0.8649(8)
N10 N 0.1222(4) -0.7251(6) 0.7929(8)
O3 O 0.0580(7) -1.0000 0.5014(13)
O5 O 0.2553(3) -0.6468(6) 0.9575(6)
O6 O 0.1916(11) -0.5000 0.8490(18)
O7 O 0.2934(4) -0.5904(7) 0.7953(7)
O8 O 0.0503(4) -0.6526(7) 0.7814(8)
O9 O 0.0240(4) -0.5000 0.8816(8)
O10 O -0.0466(13) -0.695(2) 0.702(3)
O12 O 0.0178(5) -0.9203(9) 0.4471(9)
O15 O 0.0000 -0.6878(9) 0.5000
O16 O 0.0874(4) -0.5979(7) 0.6180(7)
O17 O 0.1456(5) -0.8451(9) 0.4028(9)
O18 O -0.0277(5) -0.8475(9) 0.2183(8)
O19 O 0.3561(6) -0.5000 0.9655(12)
O20 O -0.0086(9) -0.5000 0.7042(13)
O21 O 0.1113(8) -1.0000 0.3981(10)
O23 O 0.1691(8) -1.0000 0.6836(16)
O24 O 0.0527(5) -0.8883(10) 0.3346(11)
O25 O 0.1255(6) -0.9213(7) 0.5425(8)
O26 O -0.0663(5) -0.8093(12) 0.5214(10)
O27 O -0.0840(6) -0.9216(7) 0.3244(11)
O28 O -0.0086(8) -1.0000 0.2730(18)
O29 O -0.0210(5) -0.8053(10) 0.3801(9)
O30 O -0.0309(8) -1.0000 0.4047(15)
Na1 Na 0.2735(3) -0.5000 0.9225(6)
Na2 Na 0.0097(4) -0.6250(10) 0.6449(9)
W1 W 0.098820(18) -0.89346(3) 0.43407(4)
W2 W 0.0000 -0.79053(5) 0.5000
W3 W -0.01768(2) -0.89427(4) 0.31120(4)
W4 W 0.11586(2) -1.0000 0.62212(5)
Si1 Si 0.0000 -1.0000 0.5000
C1E C 0.2008(5) -0.3096(11) 0.6589(10)
C1A C -0.2008(5) -0.6904(11) 0.3411(10)
C1D C -0.2008(5) -0.3096(11) 0.3411(10)
C2E C 0.2116(8) -0.2279(14) 0.6210(12)
C2A C -0.2116(8) -0.7721(14) 0.3790(12)
C2D C -0.2116(8) -0.2279(14) 0.3790(12)
C3E C 0.2400(5) -0.2656(9) 0.8064(10)
C3A C -0.2400(5) -0.7344(9) 0.1936(10)
C3D C -0.2400(5) -0.2656(9) 0.1936(10)
C4E C 0.2129(6) -0.3855(13) 0.6087(11)
C4A C -0.2129(6) -0.6145(13) 0.3913(11)
C4D C -0.2129(6) -0.3855(13) 0.3913(11)
C5E C 0.1595(6) -0.1501(9) 0.8481(14)
C5A C -0.1595(6) -0.8499(9) 0.1519(14)
C5D C -0.1595(6) -0.1501(9) 0.1519(14)
C6E C 0.0899(6) -0.4155(14) 1.1370(11)
C6A C -0.0899(6) -0.5845(14) -0.1370(11)
C6D C -0.0899(6) -0.4155(14) -0.1370(11)
C7E C 0.1242(6) -0.2014(9) 0.9959(13)
C7A C -0.1242(6) -0.7986(9) 0.0041(13)
C7D C -0.1242(6) -0.2014(9) 0.0041(13)
C8E C 0.2311(7) -0.3692(18) 0.5249(10)
C8A C -0.2311(7) -0.6308(18) 0.4751(10)
C8D C -0.2311(7) -0.3692(18) 0.4751(10)
C9E C 0.2168(4) -0.3189(7) 0.9356(8)
C9A C -0.2168(4) -0.6811(7) 0.0644(8)
C9D C -0.2168(4) -0.3189(7) 0.0644(8)
C10E C 0.2614(5) -0.3880(10) 0.7402(9)
C10A C -0.2614(5) -0.6120(10) 0.2598(9)
C10D C -0.2614(5) -0.3880(10) 0.2598(9)
C11A C -0.0554(5) -0.5000 0.0587(10)
C12E C 0.0611(4) -0.3531(7) 0.9552(9)
C12A C -0.0611(4) -0.6469(7) 0.0448(9)
C12D C -0.0611(4) -0.3531(7) 0.0448(9)
C13E C 0.1371(4) -0.2686(7) 0.9387(10)
C13A C -0.1371(4) -0.7314(7) 0.0613(10)
C13D C -0.1371(4) -0.2686(7) 0.0613(10)
C14A C -0.1869(7) -0.5000 -0.0538(11)
C15E C 0.1081(4) -0.4541(8) 1.0595(8)
C15A C -0.1081(4) -0.5459(8) -0.0595(8)
C15D C -0.1081(4) -0.4541(8) -0.0595(8)
C16E C 0.1803(5) -0.3550(8) 1.0588(8)
C16A C -0.1803(5) -0.6450(8) -0.0588(8)
C16D C -0.1803(5) -0.3550(8) -0.0588(8)
C17E C 0.0855(5) -0.3154(7) 0.8237(10)
C17A C -0.0855(5) -0.6846(7) 0.1763(10)
C17D C -0.0855(5) -0.3154(7) 0.1763(10)
C18E C 0.1307(5) -0.3854(10) 0.6266(10)
C18A C -0.1307(5) -0.6146(10) 0.3734(10)
C18D C -0.1307(5) -0.3854(10) 0.3734(10)
C19E C 0.1572(5) -0.2396(7) 0.8580(10)
C19A C -0.1572(5) -0.7604(7) 0.1420(10)
C19D C -0.1572(5) -0.2396(7) 0.1420(10)
C20A C -0.2752(7) -0.5000 0.3516(13)
C21E C 0.1206(6) -0.2596(9) 0.7040(11)
C21A C -0.1206(6) -0.7404(9) 0.2960(11)
C21D C -0.1206(6) -0.2596(9) 0.2960(11)
C22A C -0.1542(7) -0.5000 0.4516(13)
O1A O -0.2323(4) -0.5000 -0.0575(9)
N1E N 0.1586(4) -0.4340(6) 1.0554(6)
N1A N -0.1586(4) -0.5660(6) -0.0554(6)
N1D N -0.1586(4) -0.4340(6) -0.0554(6)
N2E N 0.0755(4) -0.4337(6) 0.9823(7)
N2A N -0.0755(4) -0.5663(6) 0.0177(7)
N2D N -0.0755(4) -0.4337(6) 0.0177(7)
N3E N 0.0944(4) -0.3166(6) 0.9079(8)
N3A N -0.0944(4) -0.6834(6) 0.0921(8)
N3D N -0.0944(4) -0.3166(6) 0.0921(8)
N4E N 0.1778(3) -0.3171(6) 0.9800(7)
N4A N -0.1778(3) -0.6829(6) 0.0200(7)
N4D N -0.1778(3) -0.3171(6) 0.0200(7)
N5E N 0.1504(4) -0.3207(8) 0.6634(8)
N5A N -0.1504(4) -0.6793(8) 0.3366(8)
N5D N -0.1504(4) -0.3207(8) 0.3366(8)
N6E N 0.1656(4) -0.4272(9) 0.5974(7)
N6A N -0.1656(4) -0.5728(9) 0.4026(7)
N6D N -0.1656(4) -0.4272(9) 0.4026(7)
N7E N 0.2333(4) -0.3220(7) 0.7387(7)
N7A N -0.2333(4) -0.6780(7) 0.2613(7)
N7D N -0.2333(4) -0.3220(7) 0.2613(7)
N8E N 0.2505(4) -0.4274(10) 0.6661(8)
N8A N -0.2505(4) -0.5726(10) 0.3339(8)
N8D N -0.2505(4) -0.4274(10) 0.3339(8)
N9E N 0.2049(4) -0.2762(7) 0.8649(8)
N9A N -0.2049(4) -0.7238(7) 0.1351(8)
N9D N -0.2049(4) -0.2762(7) 0.1351(8)
N10E N 0.1222(4) -0.2749(6) 0.7929(8)
N10A N -0.1222(4) -0.7251(6) 0.2071(8)
N10D N -0.1222(4) -0.2749(6) 0.2071(8)
O3A O -0.0580(7) -1.0000 0.4986(13)
O5E O 0.2553(3) -0.3532(6) 0.9575(6)
O5A O -0.2553(3) -0.6468(6) 0.0425(6)
O5D O -0.2553(3) -0.3532(6) 0.0425(6)
O6A O -0.1916(11) -0.5000 0.1510(18)
O7E O 0.2934(4) -0.4096(7) 0.7953(7)
O7A O -0.2934(4) -0.5904(7) 0.2047(7)
O7D O -0.2934(4) -0.4096(7) 0.2047(7)
O8E O 0.0503(4) -0.3474(7) 0.7814(8)
O8A O -0.0503(4) -0.6526(7) 0.2186(8)
O8D O -0.0503(4) -0.3474(7) 0.2186(8)
O9A O -0.0240(4) -0.5000 0.1184(8)
O10E O -0.0466(13) -0.305(2) 0.702(3)
O10A O 0.0466(13) -0.695(2) 0.298(3)
O10D O 0.0466(13) -0.305(2) 0.298(3)
O12A O -0.0178(5) -0.9203(9) 0.5529(9)
O12D O -0.0178(5) -1.0797(9) 0.5529(9)
O12E O 0.0178(5) -1.0797(9) 0.4471(9)
O12E_2 O 0.0178(5) -0.0797(9) 0.4471(9)
O12D_2 O -0.0178(5) -0.0797(9) 0.5529(9)
O15D O 0.0000 -0.3122(9) 0.5000
O15D_2 O 0.0000 -1.3122(9) 0.5000
O16E O 0.0874(4) -0.4021(7) 0.6180(7)
O16A O -0.0874(4) -0.5979(7) 0.3820(7)
O16D O -0.0874(4) -0.4021(7) 0.3820(7)
O17A O -0.1456(5) -0.8451(9) 0.5972(9)
O17D O -0.1456(5) -1.1549(9) 0.5972(9)
O17E O 0.1456(5) -1.1549(9) 0.4028(9)
O18A O 0.0277(5) -0.8475(9) 0.7817(8)
O18D O 0.0277(5) -1.1525(9) 0.7817(8)
O18E O -0.0277(5) -1.1525(9) 0.2183(8)
O19A O -0.3561(6) -0.5000 0.0345(12)
O20A O 0.0086(9) -0.5000 0.2958(13)
O21A O -0.1113(8) -1.0000 0.6019(10)
O23A O -0.1691(8) -1.0000 0.3164(16)
O24A O -0.0527(5) -0.8883(10) 0.6654(11)
O24D O -0.0527(5) -1.1117(10) 0.6654(11)
O24E O 0.0527(5) -1.1117(10) 0.3346(11)
O25E O 0.1255(6) -1.0787(7) 0.5425(8)
O25A O -0.1255(6) -0.9213(7) 0.4575(8)
O25D O -0.1255(6) -1.0787(7) 0.4575(8)
O26A O 0.0663(5) -0.8093(12) 0.4786(10)
O26E O -0.0663(5) -0.1907(12) 0.5214(10)
O26D O 0.0663(5) -0.1907(12) 0.4786(10)
O26E_2 O -0.0663(5) -1.1907(12) 0.5214(10)
O26D_2 O 0.0663(5) -1.1907(12) 0.4786(10)
O27A O 0.0840(6) -0.9216(7) 0.6756(11)
O27D O 0.0840(6) -1.0784(7) 0.6756(11)
O27E O -0.0840(6) -1.0784(7) 0.3244(11)
O28A O 0.0086(8) -1.0000 0.7270(18)
O29A O 0.0210(5) -0.8053(10) 0.6199(9)
O29E O -0.0210(5) -0.1947(10) 0.3801(9)
O29D O 0.0210(5) -0.1947(10) 0.6199(9)
O29D_2 O 0.0210(5) -1.1947(10) 0.6199(9)
O29E_2 O -0.0210(5) -1.1947(10) 0.3801(9)
O30A O 0.0309(8) -1.0000 0.5953(15)
Na1A Na -0.2735(3) -0.5000 0.0775(6)
Na2E Na 0.0097(4) -0.3750(10) 0.6449(9)
Na2A Na -0.0097(4) -0.6250(10) 0.3551(9)
Na2D Na -0.0097(4) -0.3750(10) 0.3551(9)
Na2D_2 Na -0.0097(4) -1.3750(10) 0.3551(9)
Na2E_2 Na 0.0097(4) -1.3750(10) 0.6449(9)
W1A W -0.098820(18) -0.89346(3) 0.56593(4)
W1D W -0.098820(18) -1.10654(3) 0.56593(4)
W1E W 0.098820(18) -1.10654(3) 0.43407(4)
W1D_2 W -0.098820(18) -0.10654(3) 0.56593(4)
W1E_2 W 0.098820(18) -0.10654(3) 0.43407(4)
W2D W 0.0000 -0.20947(5) 0.5000
W2D_2 W 0.0000 -1.20947(5) 0.5000
W3A W 0.01768(2) -0.89427(4) 0.68880(4)
W3D W 0.01768(2) -1.10573(4) 0.68880(4)
W3E W -0.01768(2) -1.10573(4) 0.31120(4)
W3E_2 W -0.01768(2) -0.10573(4) 0.31120(4)
W3D_2 W 0.01768(2) -0.10573(4) 0.68880(4)
W4A W -0.11586(2) -1.0000 0.37788(5)
loop_
_geom_bond_atom_site_label_1
_geom_bond_atom_site_label_2
_geom_bond_site_symmetry_1
_geom_bond_site_symmetry_2
C1 C2 1_555 1_555
C3 N7 1_555 1_555
C4 C1 1_555 1_555
C5 C19 1_555 1_555
C6 C15 1_555 1_555
C7 C13 1_555 1_555
C8 C4 1_555 1_555
C9 N4 1_555 1_555
C10 N7 1_555 1_555
C11 N2 1_555 1_555
C12 N2 1_555 1_555
C13 C19 1_555 1_555
C14 O1 1_555 1_555
C15 N1 1_555 1_555
C16 N1 1_555 1_555
C17 N3 1_555 1_555
C18 N5 1_555 1_555
C19 N9 1_555 1_555
C20 N8 1_555 1_555
C21 N5 1_555 1_555
C22 N6 1_555 1_555
O1 Na1 1_555 1_555
N1 C14 1_555 1_555
N2 C15 1_555 1_555
N3 C12 1_555 1_555
N4 C13 1_555 1_555
N5 C1 1_555 1_555
N6 C4 1_555 1_555
N7 C1 1_555 1_555
N8 C4 1_555 1_555
N9 C3 1_555 1_555
N10 C17 1_555 1_555
O3 W4 1_555 1_555
O5 C9 1_555 1_555
O6 Na1 1_555 1_555
O7 C10 1_555 1_555
O8 C17 1_555 1_555
O9 C11 1_555 1_555
O10 Na2 1_555 1_555
O12 W1 1_555 1_555
O15 Na2 1_555 1_555
O16 C18 1_555 1_555
O17 W1 1_555 1_555
O18 W3 1_555 1_555
O19 Na1 1_555 1_555
O20 Na2 1_555 1_555
O21 W1 1_555 1_555
O23 W4 1_555 1_555
O24 W1 1_555 1_555
O25 W1 1_555 1_555
O26 W2 1_555 1_555
O27 W3 1_555 1_555
O28 W3 1_555 1_555
O29 W2 1_555 1_555
O30 W3 1_555 1_555
Na1 O5 1_555 1_555
Na2 O8 1_555 1_555
W1 O26A 1_555 1_555
W2 O12 1_555 1_555
W3 O12 1_555 1_555
W4 O25 1_555 1_555
Si1 O3 1_555 1_555
C1E C2E 1_555 1_555
C1A C2A 1_555 1_555
C1D C2D 1_555 1_555
C3E N7E 1_555 1_555
C3A N7A 1_555 1_555
C3D N7D 1_555 1_555
C4E C1E 1_555 1_555
C4A C1A 1_555 1_555
C4D C1D 1_555 1_555
C5E C19E 1_555 1_555
C5A C19A 1_555 1_555
C5D C19D 1_555 1_555
C6E C15E 1_555 1_555
C6A C15A 1_555 1_555
C6D C15D 1_555 1_555
C7E C13E 1_555 1_555
C7A C13A 1_555 1_555
C7D C13D 1_555 1_555
C8E C4E 1_555 1_555
C8A C4A 1_555 1_555
C8D C4D 1_555 1_555
C9E N4E 1_555 1_555
C9A N4A 1_555 1_555
C9D N4D 1_555 1_555
C10E N7E 1_555 1_555
C10A N7A 1_555 1_555
C10D N7D 1_555 1_555
C11A N2A 1_555 1_555
C12E N2E 1_555 1_555
C12A N2A 1_555 1_555
C12D N2D 1_555 1_555
C13E C19E 1_555 1_555
C13A C19A 1_555 1_555
C13D C19D 1_555 1_555
C14A O1A 1_555 1_555
C15E C15 1_555 1_555
C15A C15D 1_555 1_555
C15D N1D 1_555 1_555
C16E N1E 1_555 1_555
C16A N1A 1_555 1_555
C16D N1D 1_555 1_555
C17E N3E 1_555 1_555
C17A N3A 1_555 1_555
C17D N3D 1_555 1_555
C18E N5E 1_555 1_555
C18A N5A 1_555 1_555
C18D N5D 1_555 1_555
C19E N9E 1_555 1_555
C19A N9A 1_555 1_555
C19D N9D 1_555 1_555
C20A N8A 1_555 1_555
C21E N5E 1_555 1_555
C21A N5A 1_555 1_555
C21D N5D 1_555 1_555
C22A N6A 1_555 1_555
O1A Na1A 1_555 1_555
N1E C14 1_555 1_555
N1A C14A 1_555 1_555
N1D C14A 1_555 1_555
N2E C11 1_555 1_555
N2A C15A 1_555 1_555
N2D C11A 1_555 1_555
N3E C12E 1_555 1_555
N3A C12A 1_555 1_555
N3D C12D 1_555 1_555
N4E C13E 1_555 1_555
N4A C13A 1_555 1_555
N4D C13D 1_555 1_555
N5E C1E 1_555 1_555
N5A C1A 1_555 1_555
N5D C1D 1_555 1_555
N6E C22 1_555 1_555
N6A C4A 1_555 1_555
N6D C4D 1_555 1_555
N7E C1E 1_555 1_555
N7A C1A 1_555 1_555
N7D C1D 1_555 1_555
N8E C20 1_555 1_555
N8A C4A 1_555 1_555
N8D C4D 1_555 1_555
N9E C3E 1_555 1_555
N9A C3A 1_555 1_555
N9D C3D 1_555 1_555
N10E C17E 1_555 1_555
N10A C17A 1_555 1_555
N10D C17D 1_555 1_555
O3A Si1 1_555 1_555
O5E Na1 1_555 1_555
O5A C9A 1_555 1_555
O5D C9D 1_555 1_555
O6A Na1A 1_555 1_555
O7E Na1 1_555 1_555
O7A C10A 1_555 1_555
O7D C10D 1_555 1_555
O8E C17E 1_555 1_555
O8A C17A 1_555 1_555
O8D C17D 1_555 1_555
O9A C11A 1_555 1_555
O10E Na2E 1_555 1_555
O10A Na2A 1_555 1_555
O10D Na2D 1_555 1_555
O12A W2 1_555 1_555
O12D Si1 1_555 1_555
O12E Si1 1_555 1_555
O12E_2 W1E_2 1_555 1_555
O12D_2 W1D_2 1_555 1_555
O15D Na2E 1_555 1_555
O15D_2 Na2D_2 1_555 1_555
O16E C18E 1_555 1_555
O16A C18A 1_555 1_555
O16D C18D 1_555 1_555
O17A W1A 1_555 1_555
O17D W1D 1_555 1_555
O17E W1E 1_555 1_555
O18A W3A 1_555 1_555
O18D W3D 1_555 1_555
O18E W3E 1_555 1_555
O19A Na1A 1_555 1_555
O20A Na2A 1_555 1_555
O21A W1A 1_555 1_555
O23A W4A 1_555 1_555
O24A W1A 1_555 1_555
O24D W1D 1_555 1_555
O24E W1E 1_555 1_555
O25E W4 1_555 1_555
O25A W1A 1_555 1_555
O25D W1D 1_555 1_555
O26A W2 1_555 1_555
O26E W1D_2 1_555 1_555
O26D W1E_2 1_555 1_555
O26E_2 W1D 1_555 1_555
O26D_2 W1E 1_555 1_555
O27A W4 1_555 1_555
O27D W4 1_555 1_555
O27E W3E 1_555 1_555
O28A W3A 1_555 1_555
O29A W2 1_555 1_555
O29E W2D 1_555 1_555
O29D W2D 1_555 1_555
O29D_2 W2D_2 1_555 1_555
O29E_2 W2D_2 1_555 1_555
O30A W4 1_555 1_555
Na1A O5A 1_555 1_555
Na2E O20 1_555 1_555
Na2A O15 1_555 1_555
Na2D O8D 1_555 1_555
Na2E_2 O15D_2 1_555 1_555
W1A O26 1_555 1_555
W1D O12D 1_555 1_555
W1E O21 1_555 1_555
W2D O12E_2 1_555 1_555
W2D_2 O12D 1_555 1_555
W3A O12A 1_555 1_555
W3D O12D 1_555 1_555
W3E O28 1_555 1_555
W3E_2 O12E_2 1_555 1_555
W3D_2 O12D_2 1_555 1_555
W4A O27 1_555 1_555
C9 N9 1_555 1_555
C10 N8 1_555 1_555
C13 N3 1_555 1_555
C16 N4 1_555 1_555
C18 N6 1_555 1_555
C19 N10 1_555 1_555
C21 N10 1_555 1_555
O7 Na1 1_555 1_555
O12 Si1 1_555 1_555
O15 W2 1_555 1_555
O16 Na2 1_555 1_555
O24 W3 1_555 1_555
O29 W3 1_555 1_555
O30 Si1 1_555 1_555
O30 W3E 1_555 1_555
O30 W4A 1_555 1_555
Si1 O12A 1_555 1_555
Si1 O30A 1_555 1_555
C4E N6E 1_555 1_555
C4E N8E 1_555 1_555
C9E N9E 1_555 1_555
C9E O5E 1_555 1_555
C9A N9A 1_555 1_555
C9D N9D 1_555 1_555
C10E N8E 1_555 1_555
C10E O7E 1_555 1_555
C10A N8A 1_555 1_555
C10D N8D 1_555 1_555
C13E N3E 1_555 1_555
C13A N3A 1_555 1_555
C13D N3D 1_555 1_555
C15E N1E 1_555 1_555
C15E N2E 1_555 1_555
C15A N1A 1_555 1_555
C15D N2D 1_555 1_555
C16E N4E 1_555 1_555
C16A N4A 1_555 1_555
C16D N4D 1_555 1_555
C18E N6E 1_555 1_555
C18A N6A 1_555 1_555
C18D N6D 1_555 1_555
C19E N10E 1_555 1_555
C19A N10A 1_555 1_555
C19D N10D 1_555 1_555
C20A N8D 1_555 1_555
C21E N10E 1_555 1_555
C21A N10A 1_555 1_555
C21D N10D 1_555 1_555
C22A N6D 1_555 1_555
O3A W4A 1_555 1_555
O5D Na1A 1_555 1_555
O7A Na1A 1_555 1_555
O7D Na1A 1_555 1_555
O8E Na2E 1_555 1_555
O8A Na2A 1_555 1_555
O12A W1A 1_555 1_555
O12E W1E 1_555 1_555
O12E W2D_2 1_555 1_555
O12E W3E 1_555 1_555
O12D_2 W2D 1_555 1_555
O15D Na2D 1_555 1_555
O15D W2D 1_555 1_555
O15D_2 W2D_2 1_555 1_555
O16E Na2E 1_555 1_555
O16A Na2A 1_555 1_555
O16D Na2D 1_555 1_555
O20A Na2D 1_555 1_555
O21A W1D 1_555 1_555
O24A W3A 1_555 1_555
O24D W3D 1_555 1_555
O24E W3E 1_555 1_555
O25E W1E 1_555 1_555
O25A W4A 1_555 1_555
O25D W4A 1_555 1_555
O26E W2D 1_555 1_555
O26D W2D 1_555 1_555
O26E_2 W2D_2 1_555 1_555
O26D_2 W2D_2 1_555 1_555
O27A W3A 1_555 1_555
O27D W3D 1_555 1_555
O27E W4A 1_555 1_555
O28A W3D 1_555 1_555
O29A W3A 1_555 1_555
O29E W3E_2 1_555 1_555
O29D W3D_2 1_555 1_555
O29D_2 W3D 1_555 1_555
O29E_2 W3E 1_555 1_555
O30A W3A 1_555 1_555
O30A W3D 1_555 1_555

#END
