
#######################################################################
#
#                 Cambridge Crystallographic Data Centre
#                                CCDC 
#
#######################################################################
#
# If this CIF has been generated from an entry in the Cambridge 
# Structural Database, then it will include bibliographic, chemical, 
# crystal, experimental, refinement or atomic coordinate data resulting 
# from the CCDC's data processing and validation procedures.
#
#######################################################################

data_CUZNUH01
_symmetry_cell_setting           triclinic
_symmetry_space_group_name_H-M   'P -1'
_symmetry_Int_Tables_number      2
_space_group_name_Hall           '-P 1'
loop_
_symmetry_equiv_pos_site_id
_symmetry_equiv_pos_as_xyz
1 x,y,z
2 -x,-y,-z
_cell_length_a                   9.492(3)
_cell_length_b                   11.421(4)
_cell_length_c                   17.234(6)
_cell_angle_alpha                79.649(4)
_cell_angle_beta                 81.380(4)
_cell_angle_gamma                83.438(4)
_cell_volume                     1809.8
loop_
_atom_site_label
_atom_site_type_symbol
_atom_site_fract_x
_atom_site_fract_y
_atom_site_fract_z
Co1 Co 0.0000 0.0000 0.5000
Co2 Co 0.61234(7) 0.62766(5) 0.85840(4)
N1 N -0.2234(4) 0.0537(3) 0.5311(2)
N2 N -0.4269(4) 0.1618(3) 0.5291(2)
N3 N -0.4548(4) 0.0647(4) 0.5854(3)
N4 N 0.0363(4) -0.0330(3) 0.6240(2)
N5 N 0.0417(4) -0.1004(4) 0.7543(2)
N6 N 0.1184(5) -0.0063(4) 0.7304(3)
N7 N 0.2735(4) 0.6100(4) 0.7268(3)
N8 N 0.3182(5) 0.7127(4) 0.6838(3)
N9 N 0.4468(4) 0.6491(3) 0.7855(2)
N10 N 0.7811(4) 0.6167(3) 0.9285(2)
N11 N 0.8969(5) 0.6170(4) 1.0329(3)
N12 N 0.9584(4) 0.6867(3) 0.9673(3)
O1 O -0.0349(3) -0.1781(3) 0.50150(18)
O2 O -0.1830(3) -0.2604(3) 0.60551(19)
O3 O 0.4072(4) 0.8545(3) 0.9150(2)
O4 O 0.6140(3) 0.8111(2) 0.84093(19)
O5 O 0.6014(3) 1.4410(3) 0.87255(18)
O6 O 0.7079(4) 1.4156(3) 0.7512(2)
O7 O 0.7756(4) 0.6264(3) 0.7590(2)
O8 O 0.4440(4) 0.6244(3) 0.9581(2)
C1 C -0.0919(5) -0.2663(4) 0.5461(3)
C2 C 0.0271(4) -0.3975(4) 0.4466(3)
H1 H 0.0458 -0.3286 0.4102
C3 C -0.0438(4) -0.3877(4) 0.5218(3)
C4 C -0.0701(4) -0.4922(4) 0.5750(3)
H2 H -0.1174 -0.4876 0.6259
C5 C -0.2920(5) 0.1529(4) 0.4981(3)
H3 H -0.2501 0.2092 0.4580
C6 C -0.3273(5) 0.0038(4) 0.5841(3)
H4 H -0.3108 -0.0685 0.6176
C7 C -0.5447(5) 0.2510(4) 0.5064(3)
H5 H -0.6294 0.2352 0.5445
H6 H -0.5660 0.2411 0.4547
C8 C -0.4329(5) 0.4137(5) 0.5521(3)
H7 H -0.3856 0.3565 0.5870
C9 C -0.5147(5) 0.3784(4) 0.5024(3)
C10 C -0.5796(5) 0.4657(5) 0.4495(3)
H8 H -0.6327 0.4435 0.4142
C11 C 0.1140(6) 0.0315(5) 0.6534(3)
H9 H 0.1603 0.0959 0.6240
C12 C -0.0059(5) -0.1119(4) 0.6885(3)
H10 H -0.0649 -0.1708 0.6868
C13 C 0.1936(7) 0.0406(5) 0.7856(4)
H11 H 0.2931 0.0085 0.7804
H12 H 0.1510 0.0147 0.8399
C14 C 0.1856(7) 0.1740(5) 0.7687(3)
C15 C 0.0648(6) 0.2444(6) 0.7930(3)
H13 H -0.0135 0.2087 0.8230
C16 C 0.0590(6) 0.3656(6) 0.7736(4)
H14 H -0.0231 0.4112 0.7914
C17 C 0.1688(6) 0.4214(5) 0.7292(3)
C18 C 0.2902(6) 0.3525(5) 0.7065(3)
H15 H 0.3681 0.3897 0.6772
C19 C 0.3008(6) 0.2296(5) 0.7257(3)
H16 H 0.3848 0.1848 0.7098
C20 C 0.1561(6) 0.5567(5) 0.7051(4)
H17 H 0.1554 0.5767 0.6480
H18 H 0.0662 0.5898 0.7308
C21 C 0.3520(5) 0.5736(4) 0.7857(3)
H19 H 0.3413 0.5037 0.8223
C22 C 0.4202(6) 0.7327(5) 0.7230(3)
H20 H 0.4701 0.8005 0.7081
C23 C 0.5224(5) 0.8821(4) 0.8728(3)
C24 C 0.5511(5) 1.0115(4) 0.8581(3)
C25 C 0.6594(5) 1.0527(4) 0.8004(3)
H21 H 0.7149 0.9999 0.7704
C26 C 0.6862(5) 1.1717(4) 0.7866(3)
H22 H 0.7569 1.1990 0.7461
C27 C 0.6084(5) 1.2505(4) 0.8329(3)
C28 C 0.5020(5) 1.2091(4) 0.8912(3)
H23 H 0.4498 1.2610 0.9229
C29 C 0.4720(5) 1.0918(4) 0.9030(3)
H24 H 0.3977 1.0659 0.9417
C30 C 0.6426(5) 1.3788(4) 0.8179(3)
C31 C 0.8886(5) 0.6855(4) 0.9069(3)
H25 H 0.9116 0.7273 0.8559
C32 C 0.7930(5) 0.5767(4) 1.0062(3)
H26 H 0.7319 0.5243 1.0383
C33 C 1.0777(5) 0.7561(4) 0.9700(3)
H27 H 1.1386 0.7615 0.9192
H28 H 1.1341 0.7135 1.0105
C34 C 1.1236(5) 0.9377(4) 1.0211(3)
H29 H 1.2082 0.8959 1.0357
C35 C 1.0327(5) 0.8815(4) 0.9874(3)
C36 C 0.9078(5) 0.9467(4) 0.9665(3)
H30 H 0.8444 0.9113 0.9437
H31 H 0.750(5) 0.551(2) 0.756(2)
H32 H 0.765(4) 0.663(2) 0.7177(14)
H33 H 0.452(5) 0.604(4) 1.0048(13)
H34 H 0.422(5) 0.6908(19) 0.950(2)
Co1_2 Co -1.0000 1.0000 0.5000
Co1_3 Co 0.0000 -1.0000 0.5000
Co2A Co -0.61234(7) -0.62766(5) 0.14160(4)
Co2_2 Co 0.61234(7) 1.62766(5) 0.85840(4)
Co2A_2 Co 1.38766(7) 1.37234(5) 1.14160(4)
Co2A_3 Co -0.61234(7) -1.62766(5) 0.14160(4)
N1A N -0.7766(4) 0.9463(3) 0.4689(2)
N1A_2 N 0.2234(4) -0.0537(3) 0.4689(2)
N2A N -0.5731(4) 0.8382(3) 0.4709(2)
N3A N -0.5452(4) 0.9353(4) 0.4146(3)
N4A N -0.0363(4) 0.0330(3) 0.3760(2)
N5A N -0.0417(4) 0.1004(4) 0.2457(2)
N6A N -0.1184(5) 0.0063(4) 0.2696(3)
N7A N -0.2735(4) -0.6100(4) 0.2732(3)
N8A N -0.3182(5) -0.7127(4) 0.3162(3)
N9A N -0.4468(4) -0.6491(3) 0.2145(2)
N10A N 1.2189(4) 1.3833(3) 1.0715(2)
N10A_2 N -0.7811(4) -0.6167(3) 0.0715(2)
N11A N 1.1031(5) 1.3830(4) 0.9671(3)
N12A N 1.0416(4) 1.3133(3) 1.0327(3)
O1A O 0.0349(3) -0.8219(3) 0.49850(18)
O1A_2 O 0.0349(3) 0.1781(3) 0.49850(18)
O2A O 0.1830(3) -0.7396(3) 0.39449(19)
O3A O -0.4072(4) -0.8545(3) 0.0850(2)
O4A O -0.6140(3) -0.8111(2) 0.15907(19)
O5_2 O 0.6014(3) 0.4410(3) 0.87255(18)
O5A O -0.6014(3) -0.4410(3) 0.12745(18)
O5A_2 O -0.6014(3) -1.4410(3) 0.12745(18)
O6A O -0.7079(4) -1.4156(3) 0.2488(2)
O7A O -0.7756(4) -0.6264(3) 0.2410(2)
O8A O -0.4440(4) -0.6244(3) 0.0419(2)
C1A C 0.0919(5) -0.7337(4) 0.4539(3)
C2A C -0.0271(4) -0.6025(4) 0.5534(3)
H1A H -0.0458 -0.6714 0.5898
C3A C 0.0438(4) -0.6123(4) 0.4782(3)
C4A C 0.0701(4) -0.5078(4) 0.4250(3)
H2A H 0.1174 -0.5124 0.3741
C5A C -0.7080(5) 0.8471(4) 0.5019(3)
H3A H -0.7499 0.7908 0.5420
C6A C -0.6727(5) 0.9962(4) 0.4159(3)
H4A H -0.6892 1.0685 0.3824
C7A C -0.4553(5) 0.7490(4) 0.4936(3)
H5A H -0.3706 0.7648 0.4555
H6A H -0.4340 0.7589 0.5453
C8A C -0.5671(5) 0.5863(5) 0.4479(3)
H7A H -0.6144 0.6435 0.4130
C9A C -0.4853(5) 0.6216(4) 0.4976(3)
C10A C -0.4204(5) 0.5343(5) 0.5505(3)
H8A H -0.3673 0.5565 0.5858
C11A C -0.1140(6) -0.0315(5) 0.3466(3)
H9A H -0.1603 -0.0959 0.3760
C12A C 0.0059(5) 0.1119(4) 0.3115(3)
H10A H 0.0649 0.1708 0.3132
C13A C -0.1936(7) -0.0406(5) 0.2144(4)
H11A H -0.2931 -0.0085 0.2196
H12A H -0.1510 -0.0147 0.1601
C14A C -0.1856(7) -0.1740(5) 0.2313(3)
C15A C -0.0648(6) -0.2444(6) 0.2070(3)
H13A H 0.0135 -0.2087 0.1770
C16A C -0.0590(6) -0.3656(6) 0.2264(4)
H14A H 0.0231 -0.4112 0.2086
C17A C -0.1688(6) -0.4214(5) 0.2708(3)
C18A C -0.2902(6) -0.3525(5) 0.2935(3)
H15A H -0.3681 -0.3897 0.3228
C19A C -0.3008(6) -0.2296(5) 0.2743(3)
H16A H -0.3848 -0.1848 0.2902
C20A C -0.1561(6) -0.5567(5) 0.2949(4)
H17A H -0.1554 -0.5767 0.3520
H18A H -0.0662 -0.5898 0.2692
C21A C -0.3520(5) -0.5736(4) 0.2143(3)
H19A H -0.3413 -0.5037 0.1777
C22A C -0.4202(6) -0.7327(5) 0.2770(3)
H20A H -0.4701 -0.8005 0.2919
C23A C -0.5224(5) -0.8821(4) 0.1272(3)
C24A C -0.5511(5) -1.0115(4) 0.1419(3)
C25A C -0.6594(5) -1.0527(4) 0.1996(3)
H21A H -0.7149 -0.9999 0.2296
C26A C -0.6862(5) -1.1717(4) 0.2134(3)
H22A H -0.7569 -1.1990 0.2539
C27A C -0.6084(5) -1.2505(4) 0.1671(3)
C28A C -0.5020(5) -1.2091(4) 0.1088(3)
H23A H -0.4498 -1.2610 0.0771
C29A C -0.4720(5) -1.0918(4) 0.0970(3)
H24A H -0.3977 -1.0659 0.0583
C30A C -0.6426(5) -1.3788(4) 0.1821(3)
C31A C 1.1114(5) 1.3145(4) 1.0931(3)
H25A H 1.0884 1.2727 1.1441
C32A C 1.2070(5) 1.4233(4) 0.9938(3)
H26A H 1.2681 1.4757 0.9617
C33A C 0.9223(5) 1.2439(4) 1.0300(3)
H27A H 0.8614 1.2385 1.0808
H28A H 0.8659 1.2865 0.9895
C34A C 0.8764(5) 1.0623(4) 0.9789(3)
H29A H 0.7918 1.1041 0.9643
C35A C 0.9673(5) 1.1185(4) 1.0126(3)
C36A C 1.0922(5) 1.0533(4) 1.0335(3)
H30A H 1.1556 1.0887 1.0563
H31A H -0.750(5) -0.551(2) 0.244(2)
H32A H -0.765(4) -0.663(2) 0.2823(14)
H33A H -0.452(5) -0.604(4) -0.0048(13)
H34A H -0.422(5) -0.6908(19) 0.050(2)
loop_
_geom_bond_atom_site_label_1
_geom_bond_atom_site_label_2
_geom_bond_site_symmetry_1
_geom_bond_site_symmetry_2
Co1 N1 1_555 1_555
Co2 N9 1_555 1_555
N1 C5 1_555 1_555
N2 N3 1_555 1_555
N3 C6 1_555 1_555
N4 Co1 1_555 1_555
N5 N6 1_555 1_555
N6 C11 1_555 1_555
N7 N8 1_555 1_555
N8 C22 1_555 1_555
N9 C21 1_555 1_555
N10 Co2 1_555 1_555
N11 N12 1_555 1_555
N12 C31 1_555 1_555
O1 Co1 1_555 1_555
O2 C1 1_555 1_555
O3 C23 1_555 1_555
O4 Co2 1_555 1_555
O5 C30 1_555 1_555
O6 C30 1_555 1_555
O7 Co2 1_555 1_555
O8 Co2 1_555 1_555
C1 O1 1_555 1_555
C2 H1 1_555 1_555
C3 C1 1_555 1_555
C4 C3 1_555 1_555
H2 C4 1_555 1_555
C5 N2 1_555 1_555
H3 C5 1_555 1_555
C6 N1 1_555 1_555
H4 C6 1_555 1_555
C7 N2 1_555 1_555
H5 C7 1_555 1_555
H6 C7 1_555 1_555
C8 H7 1_555 1_555
C9 C7 1_555 1_555
C10 C9 1_555 1_555
H8 C10 1_555 1_555
C11 N4 1_555 1_555
H9 C11 1_555 1_555
C12 N4 1_555 1_555
H10 C12 1_555 1_555
C13 N6 1_555 1_555
H11 C13 1_555 1_555
H12 C13 1_555 1_555
C14 C13 1_555 1_555
C15 C14 1_555 1_555
H13 C15 1_555 1_555
C16 C15 1_555 1_555
H14 C16 1_555 1_555
C17 C16 1_555 1_555
C18 C17 1_555 1_555
H15 C18 1_555 1_555
C19 C14 1_555 1_555
H16 C19 1_555 1_555
C20 N7 1_555 1_555
H17 C20 1_555 1_555
H18 C20 1_555 1_555
C21 N7 1_555 1_555
H19 C21 1_555 1_555
C22 N9 1_555 1_555
H20 C22 1_555 1_555
C23 O4 1_555 1_555
C24 C23 1_555 1_555
C25 C24 1_555 1_555
H21 C25 1_555 1_555
C26 C25 1_555 1_555
H22 C26 1_555 1_555
C27 C26 1_555 1_555
C28 C27 1_555 1_555
H23 C28 1_555 1_555
C29 C24 1_555 1_555
H24 C29 1_555 1_555
C30 C27 1_555 1_555
C31 N10 1_555 1_555
H25 C31 1_555 1_555
C32 N10 1_555 1_555
H26 C32 1_555 1_555
C33 N12 1_555 1_555
H27 C33 1_555 1_555
H28 C33 1_555 1_555
C34 H29 1_555 1_555
C35 C33 1_555 1_555
C36 C35 1_555 1_555
H30 C36 1_555 1_555
H31 O7 1_555 1_555
H32 O7 1_555 1_555
H33 O8 1_555 1_555
H34 O8 1_555 1_555
Co1_2 N1A 1_555 1_555
Co1_3 O1A 1_555 1_555
Co2A N9A 1_555 1_555
Co2_2 O5 1_555 1_555
Co2A_2 N10A 1_555 1_555
Co2A_3 O5A_2 1_555 1_555
N1A C5A 1_555 1_555
N1A_2 Co1 1_555 1_555
N2A N3A 1_555 1_555
N3A C6A 1_555 1_555
N4A Co1 1_555 1_555
N5A N6A 1_555 1_555
N6A C11A 1_555 1_555
N7A N8A 1_555 1_555
N8A C22A 1_555 1_555
N9A C21A 1_555 1_555
N10A C31A 1_555 1_555
N10A_2 Co2A 1_555 1_555
N11A N12A 1_555 1_555
N12A C31A 1_555 1_555
O1A C1A 1_555 1_555
O1A_2 Co1 1_555 1_555
O2A C1A 1_555 1_555
O3A C23A 1_555 1_555
O4A Co2A 1_555 1_555
O5_2 Co2 1_555 1_555
O5A Co2A 1_555 1_555
O5A_2 C30A 1_555 1_555
O6A C30A 1_555 1_555
O7A Co2A 1_555 1_555
O8A Co2A 1_555 1_555
C1A C3A 1_555 1_555
C2A C4 1_555 1_555
H1A C2A 1_555 1_555
C3A C2A 1_555 1_555
C4A C2 1_555 1_555
H2A C4A 1_555 1_555
C5A N2A 1_555 1_555
H3A C5A 1_555 1_555
C6A N1A 1_555 1_555
H4A C6A 1_555 1_555
C7A N2A 1_555 1_555
H5A C7A 1_555 1_555
H6A C7A 1_555 1_555
C8A C10 1_555 1_555
H7A C8A 1_555 1_555
C9A C7A 1_555 1_555
C10A C8 1_555 1_555
H8A C10A 1_555 1_555
C11A N4A 1_555 1_555
H9A C11A 1_555 1_555
C12A N4A 1_555 1_555
H10A C12A 1_555 1_555
C13A N6A 1_555 1_555
H11A C13A 1_555 1_555
H12A C13A 1_555 1_555
C14A C13A 1_555 1_555
C15A C14A 1_555 1_555
H13A C15A 1_555 1_555
C16A C15A 1_555 1_555
H14A C16A 1_555 1_555
C17A C16A 1_555 1_555
C18A C17A 1_555 1_555
H15A C18A 1_555 1_555
C19A C14A 1_555 1_555
H16A C19A 1_555 1_555
C20A N7A 1_555 1_555
H17A C20A 1_555 1_555
H18A C20A 1_555 1_555
C21A N7A 1_555 1_555
H19A C21A 1_555 1_555
C22A N9A 1_555 1_555
H20A C22A 1_555 1_555
C23A O4A 1_555 1_555
C24A C23A 1_555 1_555
C25A C24A 1_555 1_555
H21A C25A 1_555 1_555
C26A C25A 1_555 1_555
H22A C26A 1_555 1_555
C27A C26A 1_555 1_555
C28A C27A 1_555 1_555
H23A C28A 1_555 1_555
C29A C24A 1_555 1_555
H24A C29A 1_555 1_555
C30A C27A 1_555 1_555
C31A H25A 1_555 1_555
C32A N10A 1_555 1_555
H26A C32A 1_555 1_555
C33A N12A 1_555 1_555
H27A C33A 1_555 1_555
H28A C33A 1_555 1_555
C34A C36 1_555 1_555
H29A C34A 1_555 1_555
C35A C33A 1_555 1_555
C36A C34 1_555 1_555
H30A C36A 1_555 1_555
H31A O7A 1_555 1_555
H32A O7A 1_555 1_555
H33A O8A 1_555 1_555
H34A O8A 1_555 1_555
N5 C12 1_555 1_555
N11 C32 1_555 1_555
C2 C3 1_555 1_555
C8 C9 1_555 1_555
C17 C20 1_555 1_555
C18 C19 1_555 1_555
C28 C29 1_555 1_555
C34 C35 1_555 1_555
N5A C12A 1_555 1_555
N11A C32A 1_555 1_555
C3A C4A 1_555 1_555
C8A C9A 1_555 1_555
C9A C10A 1_555 1_555
C17A C20A 1_555 1_555
C18A C19A 1_555 1_555
C28A C29A 1_555 1_555
C34A C35A 1_555 1_555
C35A C36A 1_555 1_555

#END
