
#######################################################################
#
#                 Cambridge Crystallographic Data Centre
#                                CCDC 
#
#######################################################################
#
# If this CIF has been generated from an entry in the Cambridge 
# Structural Database, then it will include bibliographic, chemical, 
# crystal, experimental, refinement or atomic coordinate data resulting 
# from the CCDC's data processing and validation procedures.
#
#######################################################################

data_CUZREU
_symmetry_cell_setting           monoclinic
_symmetry_space_group_name_H-M   'P 21/c'
_symmetry_Int_Tables_number      14
_space_group_name_Hall           '-P 2ybc'
loop_
_symmetry_equiv_pos_site_id
_symmetry_equiv_pos_as_xyz
1 x,y,z
2 -x,1/2+y,1/2-z
3 -x,-y,-z
4 x,1/2-y,1/2+z
_cell_length_a                   11.078(4)
_cell_length_b                   14.046(6)
_cell_length_c                   7.749(2)
_cell_angle_alpha                90
_cell_angle_beta                 103.71(2)
_cell_angle_gamma                90
_cell_volume                     1171.4
loop_
_atom_site_label
_atom_site_type_symbol
_atom_site_fract_x
_atom_site_fract_y
_atom_site_fract_z
Ag1 Ag 0.25043(8) 0.17195(7) 0.05211(13)
Cl1 Cl 0.1698(3) -0.0114(2) -0.0409(4)
S1 S 0.4825(3) 0.1529(2) 0.1366(5)
S2 S 0.1394(3) 0.2133(2) 0.3112(4)
N1 N 0.4248(10) -0.0143(7) 0.2671(14)
N2 N 0.6210(10) 0.0042(8) 0.2756(15)
N3 N -0.0096(10) 0.3648(8) 0.1967(13)
N4 N -0.0809(9) 0.2319(7) 0.0773(14)
C1 C 0.5092(10) 0.0436(8) 0.2262(15)
C2 C 0.4776(14) -0.1096(9) 0.3205(20)
C3 C 0.6165(13) -0.0929(10) 0.3428(21)
C4 C 0.0129(10) 0.2723(8) 0.1913(14)
C5 C -0.1242(14) 0.3929(11) 0.0718(21)
C6 C -0.1807(12) 0.2987(10) 0.0024(20)
H1 H 0.342(11) 0.002(8) 0.255(15)
H2 H 0.675(11) 0.029(8) 0.248(15)
H3 H 0.037(11) 0.397(8) 0.268(15)
H4 H -0.082(11) 0.173(9) 0.083(16)
H5 H 0.454(11) -0.147(9) 0.240(16)
H6 H 0.456(11) -0.131(8) 0.429(16)
H7 H 0.659(11) -0.098(8) 0.498(16)
H8 H 0.663(11) -0.132(9) 0.266(16)
H9 H -0.090(1) 0.443(9) -0.023(16)
H10 H -0.166(11) 0.413(9) 0.123(15)
H11 H -0.251(11) 0.293(9) 0.039(15)
H12 H -0.202(11) 0.296(8) -0.121(16)
S2C S 0.1394(3) 0.2867(2) -0.1888(4)
Ag1C Ag 0.25043(8) 0.32805(7) 0.55211(13)
Ag1C_2 Ag 0.25043(8) 0.32805(7) -0.44789(13)
C4C C 0.0129(10) 0.2277(8) -0.3087(14)
Cl1C Cl 0.1698(3) 0.5114(2) 0.4591(4)
S1C S 0.4825(3) 0.3471(2) 0.6366(5)
S2C_2 S 0.1394(3) 0.2867(2) 0.8112(4)
N3C N -0.0096(10) 0.1352(8) -0.3033(13)
N4C N -0.0809(9) 0.2681(7) -0.4227(14)
C1C C 0.5092(10) 0.4564(8) 0.7262(15)
C5C C -0.1242(14) 0.1071(11) -0.4282(21)
H3C H 0.037(11) 0.103(8) -0.232(15)
C6C C -0.1807(12) 0.2013(10) -0.4976(20)
H4C H -0.082(11) 0.327(9) -0.417(16)
N1C N 0.4248(10) 0.5143(7) 0.7671(14)
N2C N 0.6210(10) 0.4958(8) 0.7756(15)
H9C H -0.090(1) 0.057(9) -0.523(16)
H10C H -0.166(11) 0.087(9) -0.377(15)
H11C H -0.251(11) 0.207(9) -0.461(15)
H12C H -0.202(11) 0.204(8) -0.621(16)
C2C C 0.4776(14) 0.6096(9) 0.8205(20)
H1C H 0.342(11) 0.498(8) 0.755(15)
C3C C 0.6165(13) 0.5929(10) 0.8428(21)
H2C H 0.675(11) 0.471(8) 0.748(15)
H5C H 0.454(11) 0.647(9) 0.740(16)
H6C H 0.456(11) 0.631(8) 0.929(16)
H7C H 0.659(11) 0.598(8) 0.998(16)
H8C H 0.663(11) 0.632(9) 0.766(16)
loop_
_geom_bond_atom_site_label_1
_geom_bond_atom_site_label_2
_geom_bond_site_symmetry_1
_geom_bond_site_symmetry_2
Ag1 Cl1 1_555 1_555
S1 Ag1 1_555 1_555
S2 Ag1 1_555 1_555
N1 C1 1_555 1_555
N2 C1 1_555 1_555
N3 C4 1_555 1_555
N4 C4 1_555 1_555
C1 S1 1_555 1_555
C2 N1 1_555 1_555
C3 N2 1_555 1_555
C4 S2 1_555 1_555
C5 N3 1_555 1_555
C6 N4 1_555 1_555
H1 N1 1_555 1_555
H2 N2 1_555 1_555
H3 N3 1_555 1_555
H4 N4 1_555 1_555
H5 C2 1_555 1_555
H6 C2 1_555 1_555
H7 C3 1_555 1_555
H8 C3 1_555 1_555
H9 C5 1_555 1_555
H10 C5 1_555 1_555
H11 C6 1_555 1_555
H12 C6 1_555 1_555
S2C Ag1 1_555 1_555
Ag1C S2 1_555 1_555
Ag1C_2 S2C 1_555 1_555
C4C S2C 1_555 1_555
Cl1C Ag1C 1_555 1_555
S1C Ag1C 1_555 1_555
S2C_2 Ag1C 1_555 1_555
N3C C4C 1_555 1_555
N4C C4C 1_555 1_555
C1C S1C 1_555 1_555
C5C N3C 1_555 1_555
H3C N3C 1_555 1_555
C6C N4C 1_555 1_555
H4C N4C 1_555 1_555
N1C C1C 1_555 1_555
N2C C1C 1_555 1_555
H9C C5C 1_555 1_555
H10C C5C 1_555 1_555
H11C C6C 1_555 1_555
H12C C6C 1_555 1_555
C2C N1C 1_555 1_555
H1C N1C 1_555 1_555
C3C N2C 1_555 1_555
H2C N2C 1_555 1_555
H5C C2C 1_555 1_555
H6C C2C 1_555 1_555
H7C C3C 1_555 1_555
H8C C3C 1_555 1_555
C2 C3 1_555 1_555
C5 C6 1_555 1_555
C5C C6C 1_555 1_555
C2C C3C 1_555 1_555

#END
