
#######################################################################
#
#                 Cambridge Crystallographic Data Centre
#                                CCDC 
#
#######################################################################
#
# If this CIF has been generated from an entry in the Cambridge 
# Structural Database, then it will include bibliographic, chemical, 
# crystal, experimental, refinement or atomic coordinate data resulting 
# from the CCDC's data processing and validation procedures.
#
#######################################################################

data_CXAPAG
_symmetry_cell_setting           monoclinic
_symmetry_space_group_name_H-M   'P 21/n'
_symmetry_Int_Tables_number      14
_space_group_name_Hall           '-P 2yn'
loop_
_symmetry_equiv_pos_site_id
_symmetry_equiv_pos_as_xyz
1 x,y,z
2 1/2-x,1/2+y,1/2-z
3 -x,-y,-z
4 1/2+x,1/2-y,1/2+z
_cell_length_a                   12.810(2)
_cell_length_b                   24.710(5)
_cell_length_c                   6.051(1)
_cell_angle_alpha                90
_cell_angle_beta                 90.0(1)
_cell_angle_gamma                90
_cell_volume                     1915.35
loop_
_atom_site_label
_atom_site_type_symbol
_atom_site_fract_x
_atom_site_fract_y
_atom_site_fract_z
Ag1 Ag 0.66635 0.16626 0.37799
Ag2 Ag 0.60805 0.16986 -0.10850
Cl1 Cl 0.83567 0.20396 0.03600
Cl2 Cl 0.48431 0.09611 0.54987
O1 O 0.84050 0.14660 0.05570
O2 O 0.90540 0.22940 0.17590
O3 O 0.85110 0.22230 -0.17930
O4 O 0.43850 0.14820 0.52610
O5 O 0.43700 0.06600 0.71870
O6 O 0.48110 0.06740 0.34340
O7 O 0.43770 0.17630 0.05210
N1 N 0.71510 0.21850 0.11150
N2 N 0.60380 0.10880 0.61180
C1 C 0.70210 0.27950 0.12880
C2 C 0.61820 0.29710 -0.02490
C3 C 0.61270 0.36240 -0.00900
C4 C 0.57440 0.37410 0.21150
C5 C 0.66500 0.35820 0.36270
C6 C 0.66580 0.29060 0.34980
C7 C 0.66720 0.05670 0.63940
C8 C 0.77550 0.06790 0.55430
C9 C 0.84600 0.01640 0.59050
C10 C 0.84960 0.00280 0.84250
C11 C 0.74070 -0.00910 0.92830
C12 C 0.66610 0.04080 0.89570
N2_2 N 0.60380 0.10880 -0.38820
Ag2_2 Ag 0.60805 0.16986 0.89150
loop_
_geom_bond_atom_site_label_1
_geom_bond_atom_site_label_2
_geom_bond_site_symmetry_1
_geom_bond_site_symmetry_2
Ag1 N1 1_555 1_555
Ag2 O7 1_555 1_555
Cl1 O1 1_555 1_555
Cl2 O4 1_555 1_555
O2 Cl1 1_555 1_555
O3 Cl1 1_555 1_555
O5 Cl2 1_555 1_555
O6 Cl2 1_555 1_555
N1 Ag2 1_555 1_555
N2 Ag1 1_555 1_555
C1 N1 1_555 1_555
C2 C1 1_555 1_555
C3 C2 1_555 1_555
C4 C3 1_555 1_555
C5 C4 1_555 1_555
C6 C1 1_555 1_555
C7 N2 1_555 1_555
C8 C7 1_555 1_555
C9 C8 1_555 1_555
C10 C9 1_555 1_555
C11 C10 1_555 1_555
C12 C7 1_555 1_555
N2_2 Ag2 1_555 1_555
Ag2_2 N2 1_555 1_555
Cl1 N1 1_555 1_555
Cl2 N2 1_555 1_555
C5 C6 1_555 1_555
C11 C12 1_555 1_555

#END
