
#######################################################################
#
#                 Cambridge Crystallographic Data Centre
#                                CCDC 
#
#######################################################################
#
# If this CIF has been generated from an entry in the Cambridge 
# Structural Database, then it will include bibliographic, chemical, 
# crystal, experimental, refinement or atomic coordinate data resulting 
# from the CCDC's data processing and validation procedures.
#
#######################################################################

data_CYPCHO02
_symmetry_cell_setting           orthorhombic
_symmetry_space_group_name_H-M   'P 21 21 21'
_symmetry_Int_Tables_number      19
_space_group_name_Hall           'P 2ac 2ab'
loop_
_symmetry_equiv_pos_site_id
_symmetry_equiv_pos_as_xyz
1 x,y,z
2 1/2-x,-y,1/2+z
3 -x,1/2+y,1/2-z
4 1/2+x,1/2-y,-z
_cell_length_a                   6.9780(14)
_cell_length_b                   12.606(3)
_cell_length_c                   29.326(6)
_cell_angle_alpha                90
_cell_angle_beta                 90
_cell_angle_gamma                90
_cell_volume                     2579.65
loop_
_atom_site_label
_atom_site_type_symbol
_atom_site_fract_x
_atom_site_fract_y
_atom_site_fract_z
Na1 Na -0.3024(3) 0.46555(17) 0.18987(9)
P1 P -1.0411(2) 0.17814(11) 0.32121(5)
N1 N -0.8717(6) 0.8009(4) 0.32534(19)
C1 C -1.0558(8) 0.7757(4) 0.3227(2)
N2 N -1.1855(7) 0.8544(4) 0.3291(2)
H1 H -1.1472 0.9179 0.3346
H2 H -1.3061 0.8407 0.3277
P2 P -1.0799(3) 0.14370(14) 0.41976(6)
O1 O -0.5656(6) 0.7488(3) 0.32135(18)
N3 N -0.7941(6) 0.6181(4) 0.31451(18)
C2 C -0.7358(8) 0.7254(4) 0.3204(2)
O2 O -0.5697(6) 0.5358(3) 0.22803(15)
H3 H -0.6217 0.6009 0.2197
C3 C -0.9806(8) 0.5937(5) 0.3108(2)
H4 H -1.0159 0.5234 0.3060
O3 O -0.3366(6) 0.4004(3) 0.26904(16)
H5 H -0.2396 0.3930 0.2905
C4 C -1.1193(8) 0.6691(5) 0.3137(2)
H6 H -1.2483 0.6527 0.3101
C5 C -0.6474(8) 0.5360(4) 0.3093(2)
H7 H -0.5205 0.5673 0.3143
O4 O -0.4193(8) 0.5058(4) 0.11728(18)
H8 H -0.3501 0.5504 0.0981
H9 H -0.5350 0.4771 0.1075
O5 O -0.6798(6) 0.4530(3) 0.34244(14)
C6 C -0.6484(8) 0.4761(4) 0.2639(2)
H10 H -0.7804 0.4565 0.2562
O6 O -0.8802(6) 0.2655(3) 0.31149(16)
C7 C -0.5352(8) 0.3763(4) 0.2751(2)
H11 H -0.5751 0.3163 0.2561
O7 O -0.9652(6) 0.0674(3) 0.31988(16)
C8 C -0.5826(8) 0.3572(4) 0.3261(2)
H12 H -0.4614 0.3505 0.3427
O8 O -1.2044(6) 0.2058(3) 0.29070(15)
C9 C -0.7022(8) 0.2604(4) 0.3364(2)
H13 H -0.6324 0.1969 0.3278
H14 H -0.7284 0.2569 0.3689
O9 O -1.1037(7) 0.2083(3) 0.37233(15)
C10 C -1.0035(12) 0.3254(7) 0.4600(3)
H15 H -0.9573 0.3476 0.4303
H16 H -0.8941 0.3012 0.4776
O10 O -0.8807(7) 0.1140(4) 0.42651(18)
C11 C -1.0937(14) 0.4197(7) 0.4839(3)
H17 H -0.9920 0.4688 0.4919
H18 H -1.1497 0.3947 0.5122
O11 O -1.2319(8) 0.0624(4) 0.4243(2)
N4 N -1.2480(14) 0.4818(6) 0.4579(2)
O12 O -1.1342(7) 0.2397(4) 0.45433(18)
C12 C -1.1766(16) 0.5160(9) 0.4128(4)
H19 H -1.2750 0.5552 0.3973
H20 H -1.1427 0.4549 0.3951
H21 H -1.0659 0.5603 0.4167
C13 C -1.2900(17) 0.5751(9) 0.4881(4)
H22 H -1.3858 0.6189 0.4741
H23 H -1.1750 0.6157 0.4925
H24 H -1.3360 0.5504 0.5171
C14 C -1.4227(15) 0.4158(8) 0.4526(4)
H25 H -1.5185 0.4554 0.4363
H26 H -1.4710 0.3967 0.4821
H27 H -1.3917 0.3527 0.4358
Na1B Na -0.6976(3) 0.96555(17) 0.31013(9)
Na1B_2 Na -0.6976(3) -0.03445(17) 0.31013(9)
N1B N -0.1283(6) 0.3009(4) 0.17466(19)
O1B O -0.4344(6) 0.2488(3) 0.17865(18)
O7B O -0.0348(6) 0.5674(3) 0.18012(16)
O13 O 0.5237(17) 1.2645(11) 0.0820(3)
H28 H 0.5515 1.2713 0.0540
H29 H 0.5443 1.3162 0.1004
O14 O 0.2034(17) 1.3532(7) 0.0439(3)
H30 H 0.2727 1.3631 0.0673
H31 H 0.0997 1.3244 0.0530
O15 O 0.8455(17) 1.1831(12) 0.0463(4)
H32 H 0.7934 1.1872 0.0202
H33 H 0.7637 1.1545 0.0641
loop_
_geom_bond_atom_site_label_1
_geom_bond_atom_site_label_2
_geom_bond_site_symmetry_1
_geom_bond_site_symmetry_2
Na1 O2 1_555 1_555
P1 O6 1_555 1_555
N1 C1 1_555 1_555
C1 N2 1_555 1_555
N2 H1 1_555 1_555
H2 N2 1_555 1_555
P2 O9 1_555 1_555
O1 C2 1_555 1_555
N3 C2 1_555 1_555
C2 N1 1_555 1_555
O2 H3 1_555 1_555
C3 N3 1_555 1_555
H4 C3 1_555 1_555
O3 Na1 1_555 1_555
H5 O3 1_555 1_555
C4 C1 1_555 1_555
H6 C4 1_555 1_555
C5 N3 1_555 1_555
H7 C5 1_555 1_555
O4 Na1 1_555 1_555
H8 O4 1_555 1_555
H9 O4 1_555 1_555
O5 C5 1_555 1_555
C6 O2 1_555 1_555
H10 C6 1_555 1_555
O6 C9 1_555 1_555
C7 O3 1_555 1_555
H11 C7 1_555 1_555
O7 P1 1_555 1_555
C8 O5 1_555 1_555
H12 C8 1_555 1_555
O8 P1 1_555 1_555
C9 C8 1_555 1_555
H13 C9 1_555 1_555
H14 C9 1_555 1_555
O9 P1 1_555 1_555
C10 H15 1_555 1_555
H16 C10 1_555 1_555
O10 P2 1_555 1_555
C11 C10 1_555 1_555
H17 C11 1_555 1_555
H18 C11 1_555 1_555
O11 P2 1_555 1_555
N4 C11 1_555 1_555
O12 P2 1_555 1_555
C12 N4 1_555 1_555
H19 C12 1_555 1_555
H20 C12 1_555 1_555
H21 C12 1_555 1_555
C13 N4 1_555 1_555
H22 C13 1_555 1_555
H23 C13 1_555 1_555
H24 C13 1_555 1_555
C14 N4 1_555 1_555
H25 C14 1_555 1_555
H26 C14 1_555 1_555
H27 C14 1_555 1_555
O13 H28 1_555 1_555
H29 O13 1_555 1_555
O14 H30 1_555 1_555
H31 O14 1_555 1_555
O15 H32 1_555 1_555
H33 O15 1_555 1_555
Na1B N1 1_555 1_555
Na1B_2 O7 1_555 1_555
N1B Na1 1_555 1_555
O1B Na1 1_555 1_555
O7B Na1 1_555 1_555
O1 Na1B 1_555 1_555
C3 C4 1_555 1_555
C5 C6 1_555 1_555
C6 C7 1_555 1_555
C7 C8 1_555 1_555
C10 O12 1_555 1_555

#END
