
#######################################################################
#
#                 Cambridge Crystallographic Data Centre
#                                CCDC 
#
#######################################################################
#
# If this CIF has been generated from an entry in the Cambridge 
# Structural Database, then it will include bibliographic, chemical, 
# crystal, experimental, refinement or atomic coordinate data resulting 
# from the CCDC's data processing and validation procedures.
#
#######################################################################

data_CYPYCU10
_symmetry_cell_setting           orthorhombic
_symmetry_space_group_name_H-M   'P 21 21 21'
_symmetry_Int_Tables_number      19
_space_group_name_Hall           'P 2ac 2ab'
loop_
_symmetry_equiv_pos_site_id
_symmetry_equiv_pos_as_xyz
1 x,y,z
2 1/2-x,-y,1/2+z
3 1/2+x,1/2-y,-z
4 -x,1/2+y,1/2-z
_cell_length_a                   8.519(4)
_cell_length_b                   13.576(7)
_cell_length_c                   6.076(3)
_cell_angle_alpha                90
_cell_angle_beta                 90
_cell_angle_gamma                90
_cell_volume                     702.713
loop_
_atom_site_label
_atom_site_type_symbol
_atom_site_fract_x
_atom_site_fract_y
_atom_site_fract_z
Cu1 Cu 0.38750 -0.25180 -0.77850
C1 C 0.19050 -0.24390 -0.92680
C2 C 0.35120 -0.37410 -0.36590
C3 C 0.37910 -0.44570 -0.20940
C4 C 0.49070 -0.51700 -0.25690
C5 C 0.57000 -0.51550 -0.45620
C6 C 0.53410 -0.43990 -0.60060
C7 C 0.52960 -0.59120 -0.09290
H1 H 0.28300 -0.32200 -0.33500
H2 H 0.32000 -0.44100 -0.06800
H3 H 0.64400 -0.56800 -0.50500
H4 H 0.59100 -0.44100 -0.74800
N1 N 0.08050 -0.24260 -1.03510
N2 N 0.42620 -0.37100 -0.55920
N3 N 0.56220 -0.64590 0.04190
N1B N 0.58050 -0.25740 -0.96490
N3C N 0.43780 -0.14590 -0.54190
Cu1B Cu -0.11250 -0.24820 -1.22150
Cu1C Cu 0.61250 -0.75180 0.27850
loop_
_geom_bond_atom_site_label_1
_geom_bond_atom_site_label_2
_geom_bond_site_symmetry_1
_geom_bond_site_symmetry_2
Cu1 C1 1_555 1_555
C1 N1 1_555 1_555
C2 C3 1_555 1_555
C3 C4 1_555 1_555
C4 C5 1_555 1_555
C5 C6 1_555 1_555
C6 H4 1_555 1_555
C7 C4 1_555 1_555
H1 C2 1_555 1_555
H2 C3 1_555 1_555
H3 C5 1_555 1_555
N1 Cu1B 1_555 1_555
N2 Cu1 1_555 1_555
N3 C7 1_555 1_555
N1B Cu1 1_555 1_555
N3C Cu1 1_555 1_555
Cu1C N3 1_555 1_555
C2 N2 1_555 1_555
C6 N2 1_555 1_555

#END
