
#######################################################################
#
#                 Cambridge Crystallographic Data Centre
#                                CCDC 
#
#######################################################################
#
# If this CIF has been generated from an entry in the Cambridge 
# Structural Database, then it will include bibliographic, chemical, 
# crystal, experimental, refinement or atomic coordinate data resulting 
# from the CCDC's data processing and validation procedures.
#
#######################################################################

data_CYTPCO10
_symmetry_cell_setting           monoclinic
_symmetry_space_group_name_H-M   'P 21'
_symmetry_Int_Tables_number      4
_space_group_name_Hall           'P 2yb'
loop_
_symmetry_equiv_pos_site_id
_symmetry_equiv_pos_as_xyz
1 x,y,z
2 -x,1/2+y,-z
_cell_length_a                   10.002(1)
_cell_length_b                   7.459(1)
_cell_length_c                   9.429(1)
_cell_angle_alpha                90
_cell_angle_beta                 96.58(1)
_cell_angle_gamma                90
_cell_volume                     698.816
loop_
_atom_site_label
_atom_site_type_symbol
_atom_site_fract_x
_atom_site_fract_y
_atom_site_fract_z
Co1 Co 0.06720 0.25000 0.33990
P1 P 0.18680 0.61110 -0.48880
O1 O 0.27910 0.26140 0.19710
O2 O 0.24120 0.74640 -0.58380
O3 O 0.08780 0.48650 -0.56680
O4 O 0.12460 0.69880 -0.36750
O5 O 0.15580 0.06600 0.47100
O6 O 0.37360 0.44440 -0.12280
O7 O 0.42220 -0.02560 -0.16040
O8 O 0.62520 0.19020 -0.19560
O9 O 0.30430 0.48410 -0.42500
N1 N 0.21330 0.25440 -0.04470
N2 N 0.05890 0.24250 0.12840
N3 N -0.17080 0.23850 0.06090
C1 C 0.19010 0.24730 0.09610
C2 C -0.04690 0.24730 0.01960
C3 C -0.01890 0.26420 -0.12080
C4 C 0.10970 0.26180 -0.14960
C5 C 0.35280 0.26800 -0.07850
C6 C 0.38190 0.14960 -0.20160
C7 C 0.49650 0.25440 -0.26480
C8 C 0.47570 0.44590 -0.21860
C9 C 0.42240 0.56810 -0.34540
H1 H -0.07900 0.28470 -0.21480
H2 H 0.12890 0.26830 -0.25540
H3 H 0.41950 0.23840 0.00860
H4 H 0.29870 0.13820 -0.27410
H5 H 0.48470 0.24480 -0.37540
H6 H 0.39950 0.68470 -0.30380
O3_2 O 0.08780 0.48650 0.43320
O4A O -0.12460 0.19880 0.36750
Co1_2 Co 0.06720 0.25000 -0.66010
Co1A Co -0.06720 0.75000 -0.33990
loop_
_geom_bond_atom_site_label_1
_geom_bond_atom_site_label_2
_geom_bond_site_symmetry_1
_geom_bond_site_symmetry_2
Co1 O5 1_555 1_555
P1 O2 1_555 1_555
O1 C1 1_555 1_555
O3 P1 1_555 1_555
O4 P1 1_555 1_555
O6 C5 1_555 1_555
O7 C6 1_555 1_555
O8 C7 1_555 1_555
O9 P1 1_555 1_555
N1 C1 1_555 1_555
N2 Co1 1_555 1_555
N3 C2 1_555 1_555
C1 N2 1_555 1_555
C2 N2 1_555 1_555
C3 C2 1_555 1_555
C4 N1 1_555 1_555
C5 N1 1_555 1_555
C6 C5 1_555 1_555
C7 C6 1_555 1_555
C8 O6 1_555 1_555
C9 O9 1_555 1_555
H1 C3 1_555 1_555
H2 C4 1_555 1_555
H3 C5 1_555 1_555
H4 C6 1_555 1_555
H5 C7 1_555 1_555
H6 C9 1_555 1_555
O3_2 Co1 1_555 1_555
O4A Co1 1_555 1_555
Co1_2 O3 1_555 1_555
Co1A O4 1_555 1_555
C3 C4 1_555 1_555
C7 C8 1_555 1_555
C8 C9 1_555 1_555

#END
