
#######################################################################
#
#                 Cambridge Crystallographic Data Centre
#                                CCDC 
#
#######################################################################
#
# If this CIF has been generated from an entry in the Cambridge 
# Structural Database, then it will include bibliographic, chemical, 
# crystal, experimental, refinement or atomic coordinate data resulting 
# from the CCDC's data processing and validation procedures.
#
#######################################################################

data_DABFET
_symmetry_cell_setting           cubic
_symmetry_space_group_name_H-M   'P 21 3'
_symmetry_Int_Tables_number      198
_space_group_name_Hall           'P 2ac 2ab 3'
loop_
_symmetry_equiv_pos_site_id
_symmetry_equiv_pos_as_xyz
1 x,y,z
2 1/2-x,-y,1/2+z
3 1/2+x,1/2-y,-z
4 -x,1/2+y,1/2-z
5 z,x,y
6 1/2-z,-x,1/2+y
7 1/2+z,1/2-x,-y
8 -z,1/2+x,1/2-y
9 y,z,x
10 1/2+y,1/2-z,-x
11 -y,1/2+z,1/2-x
12 1/2-y,-z,1/2+x
_cell_length_a                   23.0065(2)
_cell_length_b                   23.0065(2)
_cell_length_c                   23.0065(2)
_cell_angle_alpha                90
_cell_angle_beta                 90
_cell_angle_gamma                90
_cell_volume                     12177.3
loop_
_atom_site_label
_atom_site_type_symbol
_atom_site_fract_x
_atom_site_fract_y
_atom_site_fract_z
Ag1 Ag 0.48961(4) 0.51039(4) 1.01039(4)
Ni1 Ni 0.61095(4) 0.88905(4) 1.11095(4)
N1 N 0.70171(15) 0.8985(2) 1.1137(2)
C1 C 0.7283(2) 0.9025(2) 1.05957(17)
C2 C 0.7883(2) 0.9085(3) 1.0558(2)
H1 H 0.8065 0.9113 1.0188
C3 C 0.82172(15) 0.9104(3) 1.1061(3)
H2 H 0.8627 0.9145 1.1034
C4 C 0.7951(2) 0.9063(3) 1.1602(2)
H3 H 0.8180 0.9076 1.1945
C5 C 0.7351(2) 0.9004(3) 1.16397(17)
H4 H 0.7170 0.8976 1.2009
N2 N 0.6045(2) 0.8982(2) 0.9662(2)
N3 N 0.6319(2) 0.8952(2) 1.02146(16)
C6 C 0.69267(19) 0.9018(3) 1.0130(2)
C7 C 0.7028(2) 0.9089(3) 0.9525(3)
H5 H 0.7396 0.9142 0.9345
C8 C 0.6483(3) 0.9066(3) 0.92361(16)
H6 H 0.6423 0.9101 0.8829
C9 C 0.5464(4) 0.8843(4) 0.9585(4)
H7 H 0.5318 0.9043 0.9233
H8 H 0.5239 0.8988 0.9922
C10 C 0.5356(2) 0.81742(15) 0.9519(2)
C11 C 0.58248(16) 0.7795(2) 0.9545(2)
H9 H 0.6208 0.7943 0.9588
C12 C 0.5734(2) 0.71985(19) 0.9507(3)
H10 H 0.6054 0.6939 0.9525
C13 C 0.5173(2) 0.69821(15) 0.9444(3)
C14 C 0.47038(18) 0.7362(2) 0.9418(2)
C15 C 0.47950(17) 0.7958(2) 0.9456(2)
C16 C 0.4153(2) 0.7126(2) 0.9338(5)
H11 H 0.4108 0.6718 0.9296
C17 C 0.36694(19) 0.7487(3) 0.9318(6)
H12 H 0.3287 0.7332 0.9310
C18 C 0.37659(18) 0.8083(3) 0.9311(4)
H13 H 0.3448 0.8337 0.9239
C19 C 0.4315(2) 0.83215(18) 0.9407(4)
H14 H 0.4361 0.8731 0.9438
C20 C 0.5112(6) 0.6376(6) 0.9479(5)
N4 N 0.5040(5) 0.5836(4) 0.9497(5)
Ni1C Ni 0.38905(4) 0.38905(4) 1.38905(4)
Ni1B Ni 0.11095(4) 0.61095(4) 0.88905(4)
N1E N 0.3863(2) 0.29829(15) 1.3985(2)
N1J N 0.1015(2) 0.6137(2) 0.79829(15)
N1F N 0.6137(2) 0.79829(15) 1.1015(2)
N1K N 0.6015(2) 0.8863(2) 1.20171(15)
C1E C 0.44043(17) 0.2717(2) 1.4025(2)
C1J C 0.0975(2) 0.55957(17) 0.7717(2)
C2E C 0.4442(2) 0.2117(2) 1.4085(3)
C2J C 0.0915(3) 0.5558(2) 0.7117(2)
H1E H 0.4812 0.1935 1.4113
H1J H 0.0887 0.5188 0.6935
C3E C 0.3939(3) 0.17828(15) 1.4104(3)
C3J C 0.0896(3) 0.6061(3) 0.67828(15)
H2E H 0.3966 0.1373 1.4145
H2J H 0.0855 0.6034 0.6373
C4E C 0.3398(2) 0.2049(2) 1.4063(3)
C4J C 0.0937(3) 0.6602(2) 0.7049(2)
H3E H 0.3055 0.1820 1.4076
H3J H 0.0924 0.6945 0.6820
C5E C 0.33603(17) 0.2649(2) 1.4004(3)
C5J C 0.0996(3) 0.66397(17) 0.7649(2)
H4E H 0.2991 0.2830 1.3976
H4J H 0.1024 0.7009 0.7830
N2E N 0.5338(2) 0.3955(2) 1.3982(2)
N2J N 0.1018(2) 0.4662(2) 0.8955(2)
N3E N 0.47854(16) 0.3681(2) 1.3952(2)
N3J N 0.1048(2) 0.52146(16) 0.8681(2)
N3F N 0.52146(16) 0.8681(2) 1.1048(2)
N3K N 0.6048(2) 0.97854(16) 1.1319(2)
C6E C 0.4870(2) 0.30733(19) 1.4018(3)
C6J C 0.0982(3) 0.5130(2) 0.80733(19)
C7E C 0.5475(3) 0.2972(2) 1.4089(3)
C7J C 0.0911(3) 0.4525(3) 0.7972(2)
H5E H 0.5655 0.2604 1.4142
H5J H 0.0858 0.4345 0.7604
C8E C 0.57639(16) 0.3517(3) 1.4066(3)
C8J C 0.0934(3) 0.42361(16) 0.8517(3)
H6E H 0.6171 0.3577 1.4101
H6J H 0.0899 0.3829 0.8577
C9E C 0.5415(4) 0.4536(4) 1.3843(4)
C9J C 0.1157(4) 0.4585(4) 0.9536(4)
H7E H 0.5767 0.4682 1.4043
H7J H 0.0957 0.4233 0.9682
H8E H 0.5078 0.4761 1.3988
H8J H 0.1012 0.4922 0.9761
C10E C 0.5481(2) 0.4644(2) 1.31742(15)
C10J C 0.18258(15) 0.4519(2) 0.9644(2)
C11E C 0.5455(2) 0.41752(16) 1.2795(2)
C11J C 0.2205(2) 0.4545(2) 0.91752(16)
H9E H 0.5412 0.3792 1.2943
H9J H 0.2057 0.4588 0.8792
C12E C 0.5493(3) 0.4266(2) 1.21985(19)
C12J C 0.28015(19) 0.4507(3) 0.9266(2)
H10E H 0.5475 0.3946 1.1939
H10J H 0.3061 0.4525 0.8946
C13E C 0.5556(3) 0.4827(2) 1.19821(15)
C13J C 0.30179(15) 0.4444(3) 0.9827(2)
C14E C 0.5582(2) 0.52962(18) 1.2362(2)
C14J C 0.2638(2) 0.4418(2) 1.02962(18)
C15E C 0.5544(2) 0.52050(17) 1.2958(2)
C15J C 0.2042(2) 0.4456(2) 1.02050(17)
C16E C 0.5662(5) 0.5847(2) 1.2126(2)
C16J C 0.2874(2) 0.4338(5) 1.0847(2)
H11E H 0.5704 0.5892 1.1718
H11J H 0.3282 0.4296 1.0892
C17E C 0.5682(6) 0.63306(19) 1.2487(3)
C17J C 0.2513(3) 0.4318(6) 1.13306(19)
H12E H 0.5690 0.6713 1.2332
H12J H 0.2668 0.4310 1.1713
C18E C 0.5689(4) 0.62341(18) 1.3083(3)
C18J C 0.1917(3) 0.4311(4) 1.12341(18)
H13E H 0.5761 0.6552 1.3337
H13J H 0.1663 0.4239 1.1552
C19E C 0.5593(4) 0.5685(2) 1.33215(18)
C19J C 0.16785(18) 0.4407(4) 1.0685(2)
H14E H 0.5562 0.5639 1.3731
H14J H 0.1269 0.4438 1.0639
C20E C 0.5521(5) 0.4888(6) 1.1376(6)
C20J C 0.3624(6) 0.4479(5) 0.9888(6)
N4E N 0.5503(5) 0.4960(5) 1.0836(4)
N4J N 0.4164(4) 0.4497(5) 0.9960(5)
Ag2 Ag 0.75736(6) 0.75736(6) 0.75736(6)
Ni2 Ni 0.61829(4) 0.38171(4) 0.88171(4)
N5 N 0.6122(2) 0.3681(2) 0.97231(16)
C21 C 0.6653(2) 0.3624(2) 1.0006(2)
C22 C 0.6668(3) 0.3501(3) 1.0597(2)
H15 H 0.7031 0.3462 1.0791
C23 C 0.6153(3) 0.3434(3) 1.09056(16)
H16 H 0.6163 0.3350 1.1310
C24 C 0.5622(3) 0.3491(3) 1.0623(2)
H17 H 0.5270 0.3445 1.0833
C25 C 0.5607(2) 0.3614(3) 1.0031(2)
H18 H 0.5244 0.3653 0.9838
N6 N 0.7624(2) 0.3722(2) 0.88015(19)
N7 N 0.70622(16) 0.3718(2) 0.90568(19)
C26 C 0.7130(2) 0.3653(3) 0.96667(18)
C27 C 0.7734(3) 0.3616(3) 0.9788(2)
H19 H 0.7904 0.3570 1.0162
C28 C 0.80395(16) 0.3658(3) 0.9254(3)
H20 H 0.8450 0.3647 0.9207
C29 C 0.7736(3) 0.3865(4) 0.8233(4)
H21 H 0.7407 0.3727 0.7992
H22 H 0.8087 0.3649 0.8107
C30 C 0.7831(2) 0.45004(17) 0.8104(2)
C31 C 0.7864(2) 0.4888(2) 0.85662(15)
H23 H 0.7835 0.4750 0.8954
C32 C 0.7941(2) 0.5478(2) 0.8461(2)
H24 H 0.7963 0.5743 0.8777
C33 C 0.7984(2) 0.56804(17) 0.7893(2)
C34 C 0.7951(2) 0.5293(2) 0.74310(17)
C35 C 0.7875(2) 0.4703(2) 0.75363(18)
C36 C 0.7937(5) 0.5502(2) 0.68644(19)
H25 H 0.7944 0.5909 0.6795
C37 C 0.7912(5) 0.5117(4) 0.6400(2)
H26 H 0.7921 0.5258 0.6012
C38 C 0.7874(5) 0.4523(4) 0.65052(17)
H27 H 0.7851 0.4259 0.6189
C39 C 0.7868(4) 0.4314(2) 0.7074(2)
H28 H 0.7860 0.3908 0.7145
C40 C 0.8058(6) 0.6290(6) 0.7838(7)
N8 N 0.8127(6) 0.6790(4) 0.7780(6)
Ni2A Ni 0.88171(4) 0.61829(4) 0.38171(4)
Ni2C Ni 0.38171(4) 0.88171(4) 0.61829(4)
N5D N 0.97231(16) 0.6122(2) 0.3681(2)
N5H N 0.3681(2) 0.97231(16) 0.6122(2)
N5E N 0.52769(16) 0.3878(2) 0.8681(2)
N5J N 0.6319(2) 0.47231(16) 0.8878(2)
C21D C 1.0006(2) 0.6653(2) 0.3624(2)
C21H C 0.3624(2) 1.0006(2) 0.6653(2)
C22D C 1.0597(2) 0.6668(3) 0.3501(3)
C22H C 0.3501(3) 1.0597(2) 0.6668(3)
H15D H 1.0791 0.7031 0.3462
H15H H 0.3462 1.0791 0.7031
C23D C 1.09056(16) 0.6153(3) 0.3434(3)
C23H C 0.3434(3) 1.09056(16) 0.6153(3)
H16D H 1.1310 0.6163 0.3350
H16H H 0.3350 1.1310 0.6163
C24D C 1.0623(2) 0.5622(3) 0.3491(3)
C24H C 0.3491(3) 1.0623(2) 0.5622(3)
H17D H 1.0833 0.5270 0.3445
H17H H 0.3445 1.0833 0.5270
C25D C 1.0031(2) 0.5607(2) 0.3614(3)
C25H C 0.3614(3) 1.0031(2) 0.5607(2)
H18D H 0.9838 0.5244 0.3653
H18H H 0.3653 0.9838 0.5244
N6D N 0.88015(19) 0.7624(2) 0.3722(2)
N6H N 0.3722(2) 0.88015(19) 0.7624(2)
N7D N 0.90568(19) 0.70622(16) 0.3718(2)
N7H N 0.3718(2) 0.90568(19) 0.70622(16)
N7E N 0.59432(19) 0.29378(16) 0.8718(2)
N7J N 0.6282(2) 0.40568(19) 0.79378(16)
C26D C 0.96667(18) 0.7130(2) 0.3653(3)
C26H C 0.3653(3) 0.96667(18) 0.7130(2)
C27D C 0.9788(2) 0.7734(3) 0.3616(3)
C27H C 0.3616(3) 0.9788(2) 0.7734(3)
H19D H 1.0162 0.7904 0.3570
H19H H 0.3570 1.0162 0.7904
C28D C 0.9254(3) 0.80395(16) 0.3658(3)
C28H C 0.3658(3) 0.9254(3) 0.80395(16)
H20D H 0.9207 0.8450 0.3647
H20H H 0.3647 0.9207 0.8450
C29D C 0.8233(4) 0.7736(3) 0.3865(4)
C29H C 0.3865(4) 0.8233(4) 0.7736(3)
H21D H 0.7992 0.7407 0.3727
H21H H 0.3727 0.7992 0.7407
H22D H 0.8107 0.8087 0.3649
H22H H 0.3649 0.8107 0.8087
C30D C 0.8104(2) 0.7831(2) 0.45004(17)
C30H C 0.45004(17) 0.8104(2) 0.7831(2)
C31D C 0.85662(15) 0.7864(2) 0.4888(2)
C31H C 0.4888(2) 0.85662(15) 0.7864(2)
H23D H 0.8954 0.7835 0.4750
H23H H 0.4750 0.8954 0.7835
C32D C 0.8461(2) 0.7941(2) 0.5478(2)
C32H C 0.5478(2) 0.8461(2) 0.7941(2)
H24D H 0.8777 0.7963 0.5743
H24H H 0.5743 0.8777 0.7963
C33D C 0.7893(2) 0.7984(2) 0.56804(17)
C33H C 0.56804(17) 0.7893(2) 0.7984(2)
C34D C 0.74310(17) 0.7951(2) 0.5293(2)
C34H C 0.5293(2) 0.74310(17) 0.7951(2)
C35D C 0.75363(18) 0.7875(2) 0.4703(2)
C35H C 0.4703(2) 0.75363(18) 0.7875(2)
C36D C 0.68644(19) 0.7937(5) 0.5502(2)
C36H C 0.5502(2) 0.68644(19) 0.7937(5)
H25D H 0.6795 0.7944 0.5909
H25H H 0.5909 0.6795 0.7944
C37D C 0.6400(2) 0.7912(5) 0.5117(4)
C37H C 0.5117(4) 0.6400(2) 0.7912(5)
H26D H 0.6012 0.7921 0.5258
H26H H 0.5258 0.6012 0.7921
C38D C 0.65052(17) 0.7874(5) 0.4523(4)
C38H C 0.4523(4) 0.65052(17) 0.7874(5)
H27D H 0.6189 0.7851 0.4259
H27H H 0.4259 0.6189 0.7851
C39D C 0.7074(2) 0.7868(4) 0.4314(2)
C39H C 0.4314(2) 0.7074(2) 0.7868(4)
H28D H 0.7145 0.7860 0.3908
H28H H 0.3908 0.7145 0.7860
C40D C 0.7838(7) 0.8058(6) 0.6290(6)
C40H C 0.6290(6) 0.7838(7) 0.8058(6)
N8D N 0.7780(6) 0.8127(6) 0.6790(4)
N8H N 0.6790(4) 0.7780(6) 0.8127(6)
B1 B 0.7588(2) 0.2412(2) 0.7412(2)
F1 F 0.7326(3) 0.2344(3) 0.6877(2)
F2 F 0.7241(2) 0.2759(2) 0.7759(2)
F1E F 0.8123(2) 0.2674(3) 0.7344(3)
F1J F 0.7656(3) 0.1877(2) 0.7674(3)
B2 B 0.5586(3) 0.0152(3) 0.7990(3)
F3 F 0.5509(4) 0.0647(3) 0.8318(4)
F4 F 0.6057(4) 0.0225(4) 0.7625(4)
F5 F 0.5685(5) -0.0315(3) 0.8352(4)
F6 F 0.5094(3) 0.0050(4) 0.7662(4)
O1 O 0.8021(9) 0.7403(16) 0.9340(14)
O2 O 0.7397(10) 0.7668(10) 0.9958(8)
N9 N 0.7489(7) 0.7368(7) 0.9499(7)
C41 C 0.7050(12) 0.7032(15) 0.9200(14)
H29 H 0.6919 0.7245 0.8854
H30 H 0.6719 0.6967 0.9460
H31 H 0.7213 0.6657 0.9081
O3? O 0.7205(9) 0.7350(10) 0.9673(9)
O4? O 0.7751(12) 0.6738(8) 0.9140(13)
N10? N 0.7633(7) 0.7262(7) 0.9315(7)
C42? C 0.7983(15) 0.7754(11) 0.9107(18)
H32? H 0.8305 0.7609 0.8870
H33? H 0.8137 0.7970 0.9441
H34? H 0.7739 0.8013 0.8872
F7? F 0.6082(8) -0.0133(8) 0.8169(10)
F8? F 0.5112(7) -0.0210(7) 0.8060(11)
F9? F 0.5639(14) 0.0301(5) 0.7411(3)
loop_
_geom_bond_atom_site_label_1
_geom_bond_atom_site_label_2
_geom_bond_site_symmetry_1
_geom_bond_site_symmetry_2
Ag1 N4 1_555 1_555
Ni1 N1 1_555 1_555
N1 C1 1_555 1_555
C1 C2 1_555 1_555
C2 H1 1_555 1_555
C3 C2 1_555 1_555
H2 C3 1_555 1_555
C4 C3 1_555 1_555
H3 C4 1_555 1_555
C5 N1 1_555 1_555
H4 C5 1_555 1_555
N2 N3 1_555 1_555
N3 Ni1 1_555 1_555
C6 C1 1_555 1_555
C7 C6 1_555 1_555
H5 C7 1_555 1_555
C8 N2 1_555 1_555
H6 C8 1_555 1_555
C9 N2 1_555 1_555
H7 C9 1_555 1_555
H8 C9 1_555 1_555
C10 C9 1_555 1_555
C11 C10 1_555 1_555
H9 C11 1_555 1_555
C12 C11 1_555 1_555
H10 C12 1_555 1_555
C13 C12 1_555 1_555
C14 C13 1_555 1_555
C15 C10 1_555 1_555
C16 C14 1_555 1_555
H11 C16 1_555 1_555
C17 C16 1_555 1_555
H12 C17 1_555 1_555
C18 C17 1_555 1_555
H13 C18 1_555 1_555
C19 C15 1_555 1_555
H14 C19 1_555 1_555
C20 C13 1_555 1_555
N4 C20 1_555 1_555
Ag2 N8 1_555 1_555
Ni2 N5 1_555 1_555
N5 C21 1_555 1_555
C21 C22 1_555 1_555
C22 H15 1_555 1_555
C23 C22 1_555 1_555
H16 C23 1_555 1_555
C24 C23 1_555 1_555
H17 C24 1_555 1_555
C25 N5 1_555 1_555
H18 C25 1_555 1_555
N6 N7 1_555 1_555
N7 Ni2 1_555 1_555
C26 C21 1_555 1_555
C27 C26 1_555 1_555
H19 C27 1_555 1_555
C28 N6 1_555 1_555
H20 C28 1_555 1_555
C29 N6 1_555 1_555
H21 C29 1_555 1_555
H22 C29 1_555 1_555
C30 C29 1_555 1_555
C31 C30 1_555 1_555
H23 C31 1_555 1_555
C32 C31 1_555 1_555
H24 C32 1_555 1_555
C33 C32 1_555 1_555
C34 C33 1_555 1_555
C35 C30 1_555 1_555
C36 C34 1_555 1_555
H25 C36 1_555 1_555
C37 C36 1_555 1_555
H26 C37 1_555 1_555
C38 C37 1_555 1_555
H27 C38 1_555 1_555
C39 C35 1_555 1_555
H28 C39 1_555 1_555
C40 C33 1_555 1_555
N8 C40 1_555 1_555
B1 F1 1_555 1_555
F2 B1 1_555 1_555
B2 F3 1_555 1_555
F4 B2 1_555 1_555
F5 B2 1_555 1_555
F6 B2 1_555 1_555
O1 N9 1_555 1_555
O2 N9 1_555 1_555
N9 C41 1_555 1_555
C41 H29 1_555 1_555
H30 C41 1_555 1_555
H31 C41 1_555 1_555
Ni1C N1E 1_555 1_555
Ni1B N1J 1_555 1_555
N1E C1E 1_555 1_555
N1J C1J 1_555 1_555
N1F Ni1 1_555 1_555
N1K Ni1 1_555 1_555
C1E C2E 1_555 1_555
C1J C2J 1_555 1_555
C2E H1E 1_555 1_555
C2J H1J 1_555 1_555
C3E C2E 1_555 1_555
C3J C2J 1_555 1_555
H2E C3E 1_555 1_555
H2J C3J 1_555 1_555
C4E C3E 1_555 1_555
C4J C3J 1_555 1_555
H3E C4E 1_555 1_555
H3J C4J 1_555 1_555
C5E N1E 1_555 1_555
C5J N1J 1_555 1_555
H4E C5E 1_555 1_555
H4J C5J 1_555 1_555
N2E N3E 1_555 1_555
N2J N3J 1_555 1_555
N3E Ni1C 1_555 1_555
N3J Ni1B 1_555 1_555
N3F Ni1 1_555 1_555
N3K Ni1 1_555 1_555
C6E C1E 1_555 1_555
C6J C1J 1_555 1_555
C7E C6E 1_555 1_555
C7J C6J 1_555 1_555
H5E C7E 1_555 1_555
H5J C7J 1_555 1_555
C8E N2E 1_555 1_555
C8J N2J 1_555 1_555
H6E C8E 1_555 1_555
H6J C8J 1_555 1_555
C9E N2E 1_555 1_555
C9J N2J 1_555 1_555
H7E C9E 1_555 1_555
H7J C9J 1_555 1_555
H8E C9E 1_555 1_555
H8J C9J 1_555 1_555
C10E C9E 1_555 1_555
C10J C9J 1_555 1_555
C11E C10E 1_555 1_555
C11J C10J 1_555 1_555
H9E C11E 1_555 1_555
H9J C11J 1_555 1_555
C12E C11E 1_555 1_555
C12J C11J 1_555 1_555
H10E C12E 1_555 1_555
H10J C12J 1_555 1_555
C13E C12E 1_555 1_555
C13J C12J 1_555 1_555
C14E C13E 1_555 1_555
C14J C13J 1_555 1_555
C15E C10E 1_555 1_555
C15J C10J 1_555 1_555
C16E C14E 1_555 1_555
C16J C14J 1_555 1_555
H11E C16E 1_555 1_555
H11J C16J 1_555 1_555
C17E C16E 1_555 1_555
C17J C16J 1_555 1_555
H12E C17E 1_555 1_555
H12J C17J 1_555 1_555
C18E C17E 1_555 1_555
C18J C17J 1_555 1_555
H13E C18E 1_555 1_555
H13J C18J 1_555 1_555
C19E C15E 1_555 1_555
C19J C15J 1_555 1_555
H14E C19E 1_555 1_555
H14J C19J 1_555 1_555
C20E C13E 1_555 1_555
C20J C13J 1_555 1_555
N4E Ag1 1_555 1_555
N4J Ag1 1_555 1_555
Ni2A N5D 1_555 1_555
Ni2C N5H 1_555 1_555
N5D C21D 1_555 1_555
N5H C21H 1_555 1_555
N5E Ni2 1_555 1_555
N5J Ni2 1_555 1_555
C21D C22D 1_555 1_555
C21H C22H 1_555 1_555
C22D H15D 1_555 1_555
C22H H15H 1_555 1_555
C23D C22D 1_555 1_555
C23H C22H 1_555 1_555
H16D C23D 1_555 1_555
H16H C23H 1_555 1_555
C24D C23D 1_555 1_555
C24H C23H 1_555 1_555
H17D C24D 1_555 1_555
H17H C24H 1_555 1_555
C25D N5D 1_555 1_555
C25H N5H 1_555 1_555
H18D C25D 1_555 1_555
H18H C25H 1_555 1_555
N6D N7D 1_555 1_555
N6H N7H 1_555 1_555
N7D Ni2A 1_555 1_555
N7H Ni2C 1_555 1_555
N7E Ni2 1_555 1_555
N7J Ni2 1_555 1_555
C26D C21D 1_555 1_555
C26H C21H 1_555 1_555
C27D C26D 1_555 1_555
C27H C26H 1_555 1_555
H19D C27D 1_555 1_555
H19H C27H 1_555 1_555
C28D N6D 1_555 1_555
C28H N6H 1_555 1_555
H20D C28D 1_555 1_555
H20H C28H 1_555 1_555
C29D N6D 1_555 1_555
C29H N6H 1_555 1_555
H21D C29D 1_555 1_555
H21H C29H 1_555 1_555
H22D C29D 1_555 1_555
H22H C29H 1_555 1_555
C30D C29D 1_555 1_555
C30H C29H 1_555 1_555
C31D C30D 1_555 1_555
C31H C30H 1_555 1_555
H23D C31D 1_555 1_555
H23H C31H 1_555 1_555
C32D C31D 1_555 1_555
C32H C31H 1_555 1_555
H24D C32D 1_555 1_555
H24H C32H 1_555 1_555
C33D C32D 1_555 1_555
C33H C32H 1_555 1_555
C34D C33D 1_555 1_555
C34H C33H 1_555 1_555
C35D C30D 1_555 1_555
C35H C30H 1_555 1_555
C36D C34D 1_555 1_555
C36H C34H 1_555 1_555
H25D C36D 1_555 1_555
H25H C36H 1_555 1_555
C37D C36D 1_555 1_555
C37H C36H 1_555 1_555
H26D C37D 1_555 1_555
H26H C37H 1_555 1_555
C38D C37D 1_555 1_555
C38H C37H 1_555 1_555
H27D C38D 1_555 1_555
H27H C38H 1_555 1_555
C39D C35D 1_555 1_555
C39H C35H 1_555 1_555
H28D C39D 1_555 1_555
H28H C39H 1_555 1_555
C40D C33D 1_555 1_555
C40H C33H 1_555 1_555
N8D Ag2 1_555 1_555
N8H Ag2 1_555 1_555
F1E B1 1_555 1_555
F1J B1 1_555 1_555
C4 C5 1_555 1_555
N3 C6 1_555 1_555
C7 C8 1_555 1_555
C14 C15 1_555 1_555
C18 C19 1_555 1_555
C24 C25 1_555 1_555
N7 C26 1_555 1_555
C27 C28 1_555 1_555
C34 C35 1_555 1_555
C38 C39 1_555 1_555
C4E C5E 1_555 1_555
C4J C5J 1_555 1_555
N3E C6E 1_555 1_555
N3J C6J 1_555 1_555
C7E C8E 1_555 1_555
C7J C8J 1_555 1_555
C14E C15E 1_555 1_555
C14J C15J 1_555 1_555
C18E C19E 1_555 1_555
C18J C19J 1_555 1_555
C20E N4E 1_555 1_555
C20J N4J 1_555 1_555
C24D C25D 1_555 1_555
C24H C25H 1_555 1_555
N7D C26D 1_555 1_555
N7H C26H 1_555 1_555
C27D C28D 1_555 1_555
C27H C28H 1_555 1_555
C34D C35D 1_555 1_555
C34H C35H 1_555 1_555
C38D C39D 1_555 1_555
C38H C39H 1_555 1_555
C40D N8D 1_555 1_555
C40H N8H 1_555 1_555

#END
