
#######################################################################
#
#                 Cambridge Crystallographic Data Centre
#                                CCDC 
#
#######################################################################
#
# If this CIF has been generated from an entry in the Cambridge 
# Structural Database, then it will include bibliographic, chemical, 
# crystal, experimental, refinement or atomic coordinate data resulting 
# from the CCDC's data processing and validation procedures.
#
#######################################################################

data_DABFOD
_symmetry_cell_setting           rhombohedral
_symmetry_space_group_name_H-M   'R -3'
_symmetry_Int_Tables_number      148
_space_group_name_Hall           '-R 3'
loop_
_symmetry_equiv_pos_site_id
_symmetry_equiv_pos_as_xyz
1 x,y,z
2 -y,x-y,z
3 -x+y,-x,z
4 2/3+x,1/3+y,1/3+z
5 2/3-y,1/3+x-y,1/3+z
6 2/3-x+y,1/3-x,1/3+z
7 1/3+x,2/3+y,2/3+z
8 1/3-y,2/3+x-y,2/3+z
9 1/3-x+y,2/3-x,2/3+z
10 -x,-y,-z
11 y,-x+y,-z
12 x-y,x,-z
13 1/3-x,2/3-y,2/3-z
14 1/3+y,2/3-x+y,2/3-z
15 1/3+x-y,2/3+x,2/3-z
16 2/3-x,1/3-y,1/3-z
17 2/3+y,1/3-x+y,1/3-z
18 2/3+x-y,1/3+x,1/3-z
_cell_length_a                   17.8044(4)
_cell_length_b                   17.8044(4)
_cell_length_c                   37.1701(6)
_cell_angle_alpha                90
_cell_angle_beta                 90
_cell_angle_gamma                120
_cell_volume                     10204.2
loop_
_atom_site_label
_atom_site_type_symbol
_atom_site_fract_x
_atom_site_fract_y
_atom_site_fract_z
Ag1 Ag 0.3333 0.6667 0.11735(4)
Ni1 Ni 0.0000 1.0000 0.11457(3)
N1 N -0.1129(3) 0.9568(3) 0.08329(11)
C1 C -0.1782(3) 0.8793(3) 0.09214(13)
C2 C -0.2547(4) 0.8378(4) 0.07196(15)
H1 H -0.3007 0.7825 0.0790
C3 C -0.2625(5) 0.8785(4) 0.04150(17)
H2 H -0.3134 0.8514 0.0271
C4 C -0.1939(4) 0.9599(4) 0.03261(17)
H3 H -0.1970 0.9890 0.0117
C5 C -0.1215(4) 0.9980(4) 0.05429(13)
H4 H -0.0762 1.0548 0.0487
N2 N -0.0970(3) 0.8400(3) 0.17163(12)
N3 N -0.0903(2) 0.8862(2) 0.14154(11)
C6 C -0.1660(3) 0.8416(3) 0.12464(14)
C7 C -0.2213(3) 0.7666(3) 0.14425(15)
H5 H -0.2792 0.7243 0.1383
C8 C -0.1759(4) 0.7668(4) 0.17299(17)
H6 H -0.1955 0.7234 0.1911
C9 C -0.0232(4) 0.8585(4) 0.19359(14)
H7 H -0.0437 0.8347 0.2180
H8 H 0.0139 0.9222 0.1959
C10 C 0.0304(4) 0.8223(3) 0.17932(15)
C11 C 0.0110(4) 0.7775(4) 0.14700(15)
H9 H -0.0375 0.7689 0.1331
C12 C 0.0641(4) 0.7448(4) 0.13502(19)
H10 H 0.0523 0.7147 0.1128
C13 C 0.1326(4) 0.7566(4) 0.1556(2)
C14 C 0.1511(4) 0.7994(5) 0.1892(2)
H11 H 0.1984 0.8059 0.2033
C15 C 0.0994(4) 0.8317(5) 0.20120(19)
H12 H 0.1101 0.8599 0.2239
C16 C 0.1881(4) 0.7243(5) 0.1418(3)
N4 N 0.2300(5) 0.6982(5) 0.1315(3)
Ni1_2 Ni 1.0000 1.0000 0.11457(3)
Ni1_3 Ni 0.0000 0.0000 0.11457(3)
N1B N 1.0697(4) 1.1129(3) 0.08329(11)
N1A N 0.0432(3) -0.0697(4) 0.08329(11)
N1A_2 N 0.0432(3) 0.9303(4) 0.08329(11)
N1B_2 N 0.0697(4) 1.1129(3) 0.08329(11)
C1B C 1.0575(4) 1.1782(3) 0.09214(13)
C1A C 0.1207(3) -0.0575(4) 0.09214(13)
C2B C 1.0925(6) 1.2547(4) 0.07196(15)
C2A C 0.1622(4) -0.0925(6) 0.07196(15)
H1B H 1.0832 1.3007 0.0790
H1A H 0.2175 -0.0832 0.0790
C3B C 1.1410(6) 1.2625(5) 0.04150(17)
C3A C 0.1215(4) -0.1410(6) 0.04150(17)
H2B H 1.1648 1.3134 0.0271
H2A H 0.1486 -0.1648 0.0271
C4B C 1.1538(6) 1.1939(4) 0.03261(17)
C4A C 0.0401(4) -0.1538(6) 0.03261(17)
H3B H 1.1860 1.1970 0.0117
H3A H 0.0110 -0.1860 0.0117
C5B C 1.1195(6) 1.1215(4) 0.05429(13)
C5A C 0.0020(4) -0.1195(6) 0.05429(13)
H4B H 1.1310 1.0762 0.0487
H4A H -0.0548 -0.1310 0.0487
N2B N 0.9370(4) 1.0970(3) 0.17163(12)
N2A N 0.1600(3) 0.0630(4) 0.17163(12)
N3B N 0.9765(3) 1.0903(2) 0.14154(11)
N3A N 0.1138(2) 0.0235(3) 0.14154(11)
N3A_2 N 0.1138(2) 1.0235(3) 0.14154(11)
N3B_2 N -0.0235(3) 1.0903(2) 0.14154(11)
C6B C 1.0076(4) 1.1660(3) 0.12464(14)
C6A C 0.1584(3) -0.0076(4) 0.12464(14)
C7B C 0.9879(4) 1.2213(3) 0.14425(15)
C7A C 0.2334(3) 0.0121(4) 0.14425(15)
H5B H 1.0035 1.2792 0.1383
H5A H 0.2757 -0.0035 0.1383
C8B C 0.9427(6) 1.1759(4) 0.17299(17)
C8A C 0.2332(4) 0.0573(6) 0.17299(17)
H6B H 0.9189 1.1955 0.1911
H6A H 0.2766 0.0811 0.1911
C9B C 0.8817(6) 1.0232(4) 0.19359(14)
C9A C 0.1415(4) 0.1183(6) 0.19359(14)
H7B H 0.8784 1.0437 0.2180
H7A H 0.1653 0.1216 0.2180
H8B H 0.9083 0.9861 0.1959
H8A H 0.0778 0.0917 0.1959
C10B C 0.7919(5) 0.9696(4) 0.17932(15)
C10A C 0.1777(3) 0.2081(5) 0.17932(15)
C11B C 0.7665(6) 0.9890(4) 0.14700(15)
C11A C 0.2225(4) 0.2335(6) 0.14700(15)
H9B H 0.8064 1.0375 0.1331
H9A H 0.2311 0.1936 0.1331
C12B C 0.6807(6) 0.9359(4) 0.13502(19)
C12A C 0.2552(4) 0.3193(6) 0.13502(19)
H10B H 0.6624 0.9477 0.1128
H10A H 0.2853 0.3376 0.1128
C13B C 0.6240(6) 0.8674(4) 0.1556(2)
C13A C 0.2434(4) 0.3760(6) 0.1556(2)
C14B C 0.6483(6) 0.8489(4) 0.1892(2)
C14A C 0.2006(5) 0.3517(6) 0.1892(2)
H11B H 0.6075 0.8016 0.2033
H11A H 0.1941 0.3925 0.2033
C15B C 0.7323(6) 0.9006(4) 0.20120(19)
C15A C 0.1683(5) 0.2677(6) 0.20120(19)
H12B H 0.7498 0.8899 0.2239
H12A H 0.1401 0.2502 0.2239
C16B C 0.5362(6) 0.8119(4) 0.1418(3)
C16A C 0.2757(5) 0.4638(6) 0.1418(3)
N4B N 0.4682(7) 0.7700(5) 0.1315(3)
N4A N 0.3018(5) 0.5318(7) 0.1315(3)
B1 B 0.3554(5) 0.1635(6) 0.0570(2)
F1 F 0.4108(6) 0.2112(8) 0.0295(2)
F2 F 0.3386(8) 0.2177(8) 0.0779(3)
F3 F 0.3881(7) 0.1219(7) 0.0777(2)
F4 F 0.2793(7) 0.0986(8) 0.0423(4)
B2? B 0.3606(6) 0.1727(8) 0.0552(2)
F5? F 0.3705(9) 0.2355(8) 0.0307(3)
F6? F 0.3437(9) 0.1917(11) 0.0892(3)
F7? F 0.2947(9) 0.0931(9) 0.0435(5)
F8? F 0.4372(7) 0.1711(10) 0.0567(3)
loop_
_geom_bond_atom_site_label_1
_geom_bond_atom_site_label_2
_geom_bond_site_symmetry_1
_geom_bond_site_symmetry_2
Ag1 N4 1_555 1_555
Ni1 N1 1_555 1_555
N1 C1 1_555 1_555
C1 C2 1_555 1_555
C2 H1 1_555 1_555
C3 C2 1_555 1_555
H2 C3 1_555 1_555
C4 C3 1_555 1_555
H3 C4 1_555 1_555
C5 N1 1_555 1_555
H4 C5 1_555 1_555
N2 N3 1_555 1_555
N3 Ni1 1_555 1_555
C6 C1 1_555 1_555
C7 C6 1_555 1_555
H5 C7 1_555 1_555
C8 N2 1_555 1_555
H6 C8 1_555 1_555
C9 N2 1_555 1_555
H7 C9 1_555 1_555
H8 C9 1_555 1_555
C10 C9 1_555 1_555
C11 C10 1_555 1_555
H9 C11 1_555 1_555
C12 C11 1_555 1_555
H10 C12 1_555 1_555
C13 C12 1_555 1_555
C14 C13 1_555 1_555
H11 C14 1_555 1_555
C15 C10 1_555 1_555
H12 C15 1_555 1_555
C16 C13 1_555 1_555
N4 C16 1_555 1_555
B1 F1 1_555 1_555
F2 B1 1_555 1_555
F3 B1 1_555 1_555
F4 B1 1_555 1_555
Ni1_2 N1B 1_555 1_555
Ni1_3 N1A 1_555 1_555
N1B C1B 1_555 1_555
N1A C1A 1_555 1_555
N1A_2 Ni1 1_555 1_555
N1B_2 Ni1 1_555 1_555
C1B C2B 1_555 1_555
C1A C2A 1_555 1_555
C2B H1B 1_555 1_555
C2A H1A 1_555 1_555
C3B C2B 1_555 1_555
C3A C2A 1_555 1_555
H2B C3B 1_555 1_555
H2A C3A 1_555 1_555
C4B C3B 1_555 1_555
C4A C3A 1_555 1_555
H3B C4B 1_555 1_555
H3A C4A 1_555 1_555
C5B N1B 1_555 1_555
C5A N1A 1_555 1_555
H4B C5B 1_555 1_555
H4A C5A 1_555 1_555
N2B N3B 1_555 1_555
N2A N3A 1_555 1_555
N3B Ni1_2 1_555 1_555
N3A Ni1_3 1_555 1_555
N3A_2 Ni1 1_555 1_555
N3B_2 Ni1 1_555 1_555
C6B C1B 1_555 1_555
C6A C1A 1_555 1_555
C7B C6B 1_555 1_555
C7A C6A 1_555 1_555
H5B C7B 1_555 1_555
H5A C7A 1_555 1_555
C8B N2B 1_555 1_555
C8A N2A 1_555 1_555
H6B C8B 1_555 1_555
H6A C8A 1_555 1_555
C9B N2B 1_555 1_555
C9A N2A 1_555 1_555
H7B C9B 1_555 1_555
H7A C9A 1_555 1_555
H8B C9B 1_555 1_555
H8A C9A 1_555 1_555
C10B C9B 1_555 1_555
C10A C9A 1_555 1_555
C11B C10B 1_555 1_555
C11A C10A 1_555 1_555
H9B C11B 1_555 1_555
H9A C11A 1_555 1_555
C12B C11B 1_555 1_555
C12A C11A 1_555 1_555
H10B C12B 1_555 1_555
H10A C12A 1_555 1_555
C13B C12B 1_555 1_555
C13A C12A 1_555 1_555
C14B C13B 1_555 1_555
C14A C13A 1_555 1_555
H11B C14B 1_555 1_555
H11A C14A 1_555 1_555
C15B C10B 1_555 1_555
C15A C10A 1_555 1_555
H12B C15B 1_555 1_555
H12A C15A 1_555 1_555
C16B C13B 1_555 1_555
C16A C13A 1_555 1_555
N4B Ag1 1_555 1_555
N4A Ag1 1_555 1_555
C4 C5 1_555 1_555
N3 C6 1_555 1_555
C7 C8 1_555 1_555
C14 C15 1_555 1_555
C4B C5B 1_555 1_555
C4A C5A 1_555 1_555
N3B C6B 1_555 1_555
N3A C6A 1_555 1_555
C7B C8B 1_555 1_555
C7A C8A 1_555 1_555
C14B C15B 1_555 1_555
C14A C15A 1_555 1_555
C16B N4B 1_555 1_555
C16A N4A 1_555 1_555

#END
