
#######################################################################
#
#                 Cambridge Crystallographic Data Centre
#                                CCDC 
#
#######################################################################
#
# If this CIF has been generated from an entry in the Cambridge 
# Structural Database, then it will include bibliographic, chemical, 
# crystal, experimental, refinement or atomic coordinate data resulting 
# from the CCDC's data processing and validation procedures.
#
#######################################################################

data_DACHAR
_symmetry_cell_setting           monoclinic
_symmetry_space_group_name_H-M   'P 21/n'
_symmetry_Int_Tables_number      14
_space_group_name_Hall           '-P 2yn'
loop_
_symmetry_equiv_pos_site_id
_symmetry_equiv_pos_as_xyz
1 x,y,z
2 1/2-x,1/2+y,1/2-z
3 -x,-y,-z
4 1/2+x,1/2-y,1/2+z
_cell_length_a                   12.381(4)
_cell_length_b                   8.029(2)
_cell_length_c                   7.340(3)
_cell_angle_alpha                90
_cell_angle_beta                 95.67(3)
_cell_angle_gamma                90
_cell_volume                     726.078
loop_
_atom_site_label
_atom_site_type_symbol
_atom_site_fract_x
_atom_site_fract_y
_atom_site_fract_z
Ag1 Ag 0.83758(4) 0.45213(7) -0.03153(8)
Ag2 Ag 1.28070(4) 0.41127(7) 0.55868(8)
O1 O 0.9890(4) 0.3414(6) 0.1008(7)
O2 O 1.1830(4) 0.3286(6) 0.2913(7)
N1 N 0.9494(4) 0.0749(7) 0.1795(8)
N2 N 1.1621(5) 0.0576(7) 0.3674(8)
N3 N 0.8617(5) -0.3213(8) 0.2464(9)
N4 N 1.1668(5) -0.3481(8) 0.5059(9)
C1 C 1.0153(5) 0.2084(8) 0.1807(8)
C2 C 1.1259(5) 0.1995(8) 0.2845(8)
C3 C 0.9906(5) -0.0672(7) 0.2660(8)
C4 C 1.0939(5) -0.0760(8) 0.3535(8)
C5 C 0.9207(5) -0.2096(8) 0.2572(9)
C6 C 1.1341(6) -0.2284(8) 0.4366(9)
Ag2C Ag 0.78070(4) 0.08873(7) 0.05868(8)
O2B O 0.8170(4) 0.6714(6) -0.2913(7)
N2C N 0.6621(5) 0.4424(7) -0.1326(8)
Ag1C Ag 1.33758(4) 0.04787(7) 0.46847(8)
N1C N 1.4494(4) 0.4251(7) 0.6795(8)
N3B N 1.1383(5) 0.3213(8) 0.7536(9)
N4_2 N 1.1668(5) 0.6519(8) 0.5059(9)
Ag1B Ag 1.16242(4) 0.54787(7) 0.03153(8)
Ag2B Ag 0.71930(4) -0.41127(7) 0.44132(8)
Ag2_2 Ag 1.28070(4) -0.58873(7) 0.55868(8)
loop_
_geom_bond_atom_site_label_1
_geom_bond_atom_site_label_2
_geom_bond_site_symmetry_1
_geom_bond_site_symmetry_2
Ag1 O1 1_555 1_555
Ag2 O2 1_555 1_555
O1 C1 1_555 1_555
O2 C2 1_555 1_555
N1 C1 1_555 1_555
N2 C2 1_555 1_555
N3 C5 1_555 1_555
N4 C6 1_555 1_555
C1 C2 1_555 1_555
C3 N1 1_555 1_555
C4 N2 1_555 1_555
C5 C3 1_555 1_555
C6 C4 1_555 1_555
Ag2C Ag1 1_555 1_555
O2B Ag1 1_555 1_555
N2C Ag1 1_555 1_555
Ag1C Ag2 1_555 1_555
N1C Ag2 1_555 1_555
N3B Ag2 1_555 1_555
N4_2 Ag2 1_555 1_555
Ag1B O2 1_555 1_555
Ag2B N3 1_555 1_555
Ag2_2 N4 1_555 1_555
N1 Ag2C 1_555 1_555
N2 Ag1C 1_555 1_555
C3 C4 1_555 1_555

#END
