
#######################################################################
#
#                 Cambridge Crystallographic Data Centre
#                                CCDC 
#
#######################################################################
#
# If this CIF has been generated from an entry in the Cambridge 
# Structural Database, then it will include bibliographic, chemical, 
# crystal, experimental, refinement or atomic coordinate data resulting 
# from the CCDC's data processing and validation procedures.
#
#######################################################################

data_DACKAV
_symmetry_cell_setting           monoclinic
_symmetry_space_group_name_H-M   'P 21/c'
_symmetry_Int_Tables_number      14
_space_group_name_Hall           '-P 2ybc'
loop_
_symmetry_equiv_pos_site_id
_symmetry_equiv_pos_as_xyz
1 x,y,z
2 -x,1/2+y,1/2-z
3 -x,-y,-z
4 x,1/2-y,1/2+z
_cell_length_a                   14.6049(11)
_cell_length_b                   17.4423(12)
_cell_length_c                   22.5810(11)
_cell_angle_alpha                90
_cell_angle_beta                 107.200(7)
_cell_angle_gamma                90
_cell_volume                     5495.1
loop_
_atom_site_label
_atom_site_type_symbol
_atom_site_fract_x
_atom_site_fract_y
_atom_site_fract_z
O2 O 0.7297(4) 0.4291(4) 0.9150(2)
H3 H 0.7091 0.4524 0.9425
H4 H 0.6952 0.4433 0.8790
O3 O 0.9165(5) 0.0712(5) 0.4752(3)
H5 H 0.8644 0.0532 0.4705
H6 H 0.9503 0.0374 0.4643
Ag1 Ag 0.89714(3) 0.25214(3) 0.970276(17)
N5 N 0.9059(3) 0.2532(2) 1.06605(17)
N6 N 0.8930(3) 0.2459(3) 1.37529(18)
C41 C 0.8907(4) 0.1892(3) 1.0932(2)
H47 H 0.8783 0.1446 1.0696
C42 C 0.8920(4) 0.1846(3) 1.1539(2)
H48 H 0.8814 0.1379 1.1708
C43 C 0.9094(3) 0.2500(3) 1.1899(2)
C44 C 0.9272(4) 0.3171(3) 1.1621(2)
H49 H 0.9409 0.3624 1.1847
C45 C 0.9241(4) 0.3156(3) 1.1009(2)
H50 H 0.9356 0.3611 1.0827
C46 C 0.9055(3) 0.2487(3) 1.25442(19)
C47 C 0.9184(4) 0.1815(3) 1.2891(2)
H51 H 0.9313 0.1356 1.2722
C48 C 0.9118(4) 0.1834(3) 1.3482(2)
H52 H 0.9211 0.1378 1.3706
C49 C 0.8798(4) 0.3110(3) 1.3422(2)
H53 H 0.8663 0.3557 1.3605
C50 C 0.8852(4) 0.3148(3) 1.2830(2)
H54 H 0.8754 0.3613 1.2619
Ag1C Ag 0.89714(3) 0.24786(3) 0.470276(17)
Ag1C_2 Ag 0.89714(3) 0.24786(3) 1.470276(17)
N5C N 0.9059(3) 0.2468(2) 0.56605(17)
N6C N 0.8930(3) 0.2541(3) 0.87529(18)
N6_2 N 0.8930(3) 0.2459(3) 0.37529(18)
C41C C 0.8907(4) 0.3108(3) 0.5932(2)
H47C H 0.8783 0.3554 0.5696
C42C C 0.8920(4) 0.3154(3) 0.6539(2)
H48C H 0.8814 0.3621 0.6708
C43C C 0.9094(3) 0.2500(3) 0.6899(2)
C44C C 0.9272(4) 0.1829(3) 0.6621(2)
H49C H 0.9409 0.1376 0.6847
C45C C 0.9241(4) 0.1844(3) 0.6009(2)
H50C H 0.9356 0.1389 0.5827
C46C C 0.9055(3) 0.2513(3) 0.75442(19)
C47C C 0.9184(4) 0.3185(3) 0.7891(2)
H51C H 0.9313 0.3644 0.7722
C48C C 0.9118(4) 0.3166(3) 0.8482(2)
H52C H 0.9211 0.3622 0.8706
C49C C 0.8798(4) 0.1890(3) 0.8422(2)
H53C H 0.8663 0.1443 0.8605
C50C C 0.8852(4) 0.1852(3) 0.7830(2)
H54C H 0.8754 0.1387 0.7619
Ag2 Ag 0.60365(3) -0.19261(3) 1.207925(16)
Ag3 Ag 0.34791(3) -0.19549(3) 1.113165(16)
Ag4 Ag 0.5000 0.0000 1.0000
O4 O 0.6434(2) -0.0526(2) 1.21035(15)
O5 O 0.6821(2) 0.0217(2) 1.29445(14)
O6 O 0.4593(2) -0.0883(2) 1.10175(14)
O7 O 0.5135(2) 0.02982(19) 1.09433(13)
O8 O 0.2360(2) -0.0675(2) 1.10176(14)
O9 O 0.2816(2) 0.0384(2) 1.06251(13)
O10 O 0.1840(2) 0.0046(2) 1.25332(16)
O11 O 0.1633(2) 0.0770(2) 1.16969(16)
N1 N 0.6069(3) -0.2146(2) 1.30376(16)
N2 N 0.6047(3) -0.2819(2) 1.61357(17)
N3 N 0.3568(3) -0.2212(2) 1.20928(16)
N4 N 0.3381(3) -0.2805(2) 1.51611(16)
C1 C 0.5169(3) 0.0118(3) 1.23611(18)
C2 C 0.4839(3) 0.0330(3) 1.2853(2)
H21 H 0.5274 0.0420 1.3241
C3 C 0.3864(3) 0.0411(3) 1.27701(19)
H22 H 0.3654 0.0537 1.3108
C4 C 0.3201(3) 0.0309(3) 1.21991(19)
C5 C 0.3517(3) 0.0122(2) 1.16944(18)
C6 C 0.4513(3) 0.0022(2) 1.17772(18)
C7 C 0.6225(3) -0.0072(3) 1.24787(19)
C8 C 0.4786(3) -0.0218(3) 1.12122(18)
C9 C 0.2831(3) -0.0060(3) 1.10573(19)
C10 C 0.2128(3) 0.0371(3) 1.2128(2)
C11 C 0.3396(4) -0.2905(3) 1.2293(2)
H23 H 0.3304 -0.3316 1.2020
C12 C 0.3718(4) -0.1639(3) 1.2506(2)
H24 H 0.3854 -0.1154 1.2384
C13 C 0.3679(4) -0.1731(3) 1.3099(2)
H25 H 0.3781 -0.1312 1.3366
C14 C 0.3490(3) -0.2444(3) 1.33070(19)
C15 C 0.3351(4) -0.3035(3) 1.2880(2)
H26 H 0.3226 -0.3527 1.2994
C16 C 0.3452(3) -0.2569(3) 1.39481(19)
C17 C 0.3300(4) -0.1966(3) 1.4310(2)
H27 H 0.3208 -0.1472 1.4149
C18 C 0.3286(4) -0.2104(3) 1.4909(2)
H28 H 0.3207 -0.1690 1.5148
C19 C 0.3498(4) -0.3377(3) 1.4804(2)
H29 H 0.3553 -0.3870 1.4967
C20 C 0.3542(4) -0.3289(3) 1.4212(2)
H30 H 0.3632 -0.3715 1.3987
C21 C 0.5903(3) -0.2848(3) 1.3231(2)
H31 H 0.5795 -0.3250 1.2948
C22 C 0.5884(3) -0.3001(3) 1.3822(2)
H32 H 0.5771 -0.3499 1.3931
C23 C 0.6032(3) -0.2420(3) 1.42596(19)
C24 C 0.6206(4) -0.1697(3) 1.4062(2)
H33 H 0.6313 -0.1285 1.4336
C25 C 0.6221(4) -0.1586(3) 1.3465(2)
H34 H 0.6344 -0.1095 1.3347
C26 C 0.6023(3) -0.2564(3) 1.49040(19)
C27 C 0.6253(3) -0.3271(3) 1.5185(2)
H35 H 0.6404 -0.3677 1.4964
C28 C 0.6259(3) -0.3377(3) 1.57893(19)
H36 H 0.6418 -0.3858 1.5966
C29 C 0.5819(4) -0.2136(3) 1.5858(2)
H37 H 0.5670 -0.1740 1.6090
C30 C 0.5790(4) -0.1984(3) 1.5265(2)
H38 H 0.5616 -0.1500 1.5098
Ag2B Ag 0.39635(3) 0.19261(3) 0.792075(16)
Ag2C Ag 0.60365(3) -0.30739(3) 1.707925(16)
Ag2C_2 Ag 0.60365(3) -0.30739(3) 0.707925(16)
Ag3B Ag 0.65209(3) 0.19549(3) 0.886835(16)
Ag3C Ag 0.34791(3) -0.30451(3) 1.613165(16)
Ag3C_2 Ag 0.34791(3) -0.30451(3) 0.613165(16)
O4B O 0.3566(2) 0.0526(2) 0.78965(15)
O5B O 0.3179(2) -0.0217(2) 0.70555(14)
O6B O 0.5407(2) 0.0883(2) 0.89825(14)
O7B O 0.4865(2) -0.02982(19) 0.90567(13)
O8B O 0.7640(2) 0.0675(2) 0.89824(14)
O9B O 0.7184(2) -0.0384(2) 0.93749(13)
O10B O 0.8160(2) -0.0046(2) 0.74668(16)
O11B O 0.8367(2) -0.0770(2) 0.83031(16)
N1C N 0.6069(3) -0.2854(2) 0.80376(16)
N1B N 0.3931(3) 0.2146(2) 0.69624(16)
N2C N 0.6047(3) -0.2181(2) 1.11357(17)
N2A N 0.3953(3) 0.2181(2) 0.88643(17)
N3C N 0.3568(3) -0.2788(2) 0.70928(16)
N3B N 0.6432(3) 0.2212(2) 0.79072(16)
N4C N 0.3381(3) -0.2195(2) 1.01611(16)
N4A N 0.6619(3) 0.2195(2) 0.98389(16)
C1B C 0.4831(3) -0.0118(3) 0.76389(18)
C2B C 0.5161(3) -0.0330(3) 0.7147(2)
H21B H 0.4726 -0.0420 0.6759
C3B C 0.6136(3) -0.0411(3) 0.72299(19)
H22B H 0.6346 -0.0537 0.6892
C4B C 0.6799(3) -0.0309(3) 0.78009(19)
C5B C 0.6483(3) -0.0122(2) 0.83056(18)
C6B C 0.5487(3) -0.0022(2) 0.82228(18)
C7B C 0.3775(3) 0.0072(3) 0.75213(19)
C8B C 0.5214(3) 0.0218(3) 0.87878(18)
C9B C 0.7169(3) 0.0060(3) 0.89427(19)
C10B C 0.7872(3) -0.0371(3) 0.7872(2)
C11C C 0.3396(4) -0.2095(3) 0.7293(2)
H23C H 0.3304 -0.1684 0.7020
C12C C 0.3718(4) -0.3361(3) 0.7506(2)
H24C H 0.3854 -0.3846 0.7384
C13C C 0.3679(4) -0.3269(3) 0.8099(2)
H25C H 0.3781 -0.3688 0.8366
C14C C 0.3490(3) -0.2556(3) 0.83070(19)
C15C C 0.3351(4) -0.1965(3) 0.7880(2)
H26C H 0.3226 -0.1473 0.7994
C16C C 0.3452(3) -0.2431(3) 0.89481(19)
C17C C 0.3300(4) -0.3034(3) 0.9310(2)
H27C H 0.3208 -0.3528 0.9149
C18C C 0.3286(4) -0.2896(3) 0.9909(2)
H28C H 0.3207 -0.3310 1.0148
C19C C 0.3498(4) -0.1623(3) 0.9804(2)
H29C H 0.3553 -0.1130 0.9967
C20C C 0.3542(4) -0.1711(3) 0.9212(2)
H30C H 0.3632 -0.1285 0.8987
C21C C 0.5903(3) -0.2152(3) 0.8231(2)
H31C H 0.5795 -0.1750 0.7948
C22C C 0.5884(3) -0.1999(3) 0.8822(2)
H32C H 0.5771 -0.1501 0.8931
C23C C 0.6032(3) -0.2580(3) 0.92596(19)
C24C C 0.6206(4) -0.3303(3) 0.9062(2)
H33C H 0.6313 -0.3715 0.9336
C25C C 0.6221(4) -0.3414(3) 0.8465(2)
H34C H 0.6344 -0.3905 0.8347
C26C C 0.6023(3) -0.2436(3) 0.99040(19)
C27C C 0.6253(3) -0.1729(3) 1.0185(2)
H35C H 0.6404 -0.1323 0.9964
C28C C 0.6259(3) -0.1623(3) 1.07893(19)
H36C H 0.6418 -0.1142 1.0966
C29C C 0.5819(4) -0.2864(3) 1.0858(2)
H37C H 0.5670 -0.3260 1.1090
C30C C 0.5790(4) -0.3016(3) 1.0265(2)
H38C H 0.5616 -0.3500 1.0098
Ag5 Ag 0.15646(3) 0.23977(4) 0.682783(18)
N7 N 0.1584(3) 0.2453(3) 0.77706(17)
N8 N 0.1478(3) 0.2601(3) 1.08702(18)
C31 C 0.1693(4) 0.3108(4) 0.8085(2)
H39 H 0.1798 0.3553 0.7888
C32 C 0.1659(4) 0.3161(3) 0.8680(2)
H40 H 0.1765 0.3631 0.8883
C33 C 0.1469(3) 0.2520(3) 0.8980(2)
C34 C 0.1349(4) 0.1838(3) 0.8654(2)
H41 H 0.1223 0.1388 0.8836
C35 C 0.1417(4) 0.1827(3) 0.8060(2)
H42 H 0.1342 0.1361 0.7851
C36 C 0.1440(3) 0.2556(3) 0.9629(2)
C37 C 0.1327(4) 0.3241(3) 0.9912(2)
H43 H 0.1233 0.3696 0.9688
C38 C 0.1355(4) 0.3241(3) 1.0531(2)
H44 H 0.1286 0.3704 1.0717
C39 C 0.1574(3) 0.1932(3) 1.0595(2)
H45 H 0.1657 0.1483 1.0828
C40 C 0.1552(3) 0.1890(3) 0.9994(2)
H46 H 0.1613 0.1417 0.9820
Ag5C Ag 0.15646(3) 0.26023(4) 0.182783(18)
Ag5C_2 Ag 0.15646(3) 0.26023(4) 1.182783(18)
N7C N 0.1584(3) 0.2547(3) 0.27706(17)
N8C N 0.1478(3) 0.2399(3) 0.58702(18)
N8_2 N 0.1478(3) 0.2601(3) 0.08702(18)
C31C C 0.1693(4) 0.1892(4) 0.3085(2)
H39C H 0.1798 0.1447 0.2888
C32C C 0.1659(4) 0.1839(3) 0.3680(2)
H40C H 0.1765 0.1369 0.3883
C33C C 0.1469(3) 0.2480(3) 0.3980(2)
C34C C 0.1349(4) 0.3162(3) 0.3654(2)
H41C H 0.1223 0.3612 0.3836
C35C C 0.1417(4) 0.3173(3) 0.3060(2)
H42C H 0.1342 0.3639 0.2851
C36C C 0.1440(3) 0.2444(3) 0.4629(2)
C37C C 0.1327(4) 0.1759(3) 0.4912(2)
H43C H 0.1233 0.1304 0.4688
C38C C 0.1355(4) 0.1759(3) 0.5531(2)
H44C H 0.1286 0.1296 0.5717
C39C C 0.1574(3) 0.3068(3) 0.5595(2)
H45C H 0.1657 0.3517 0.5828
C40C C 0.1552(3) 0.3110(3) 0.4994(2)
H46C H 0.1613 0.3583 0.4820
O12 O 0.6612(4) 0.9969(4) 0.5042(3)
N9 N 0.5817(10) 1.0072(8) 0.5026(7)
O20 O 0.4841(10) 0.9999(8) 0.4561(6)
O12B O 0.3388(4) 1.0031(4) 0.4958(3)
N9B N 0.4183(10) 0.9928(8) 0.4974(7)
O20B O 0.5159(10) 1.0001(8) 0.5439(6)
O13 O 0.7901(4) 0.0130(3) 0.6213(2)
H7 H 0.7876 0.0352 0.6543
H8 H 0.7754 0.0391 0.5881
O14 O 0.7960(3) 0.0142(2) 0.17779(17)
H9 H 0.7701 0.0165 0.2044
H10 H 0.8460 0.0236 0.1875
O15 O 0.9646(5) -0.0102(3) 0.5937(3)
H11 H 0.9233 0.0017 0.5631
H12 H 0.9420 0.0121 0.6199
O16 O 0.1383(3) 0.0588(3) 0.6774(2)
H13 H 0.1917 0.0355 0.6858
H14 H 0.0992 0.0387 0.6456
O17 O 0.0074(3) 0.0036(3) 0.7479(2)
H15 H 0.0416 0.0297 0.7280
H16 H -0.0405 0.0249 0.7454
O18 O 0.9354(2) 0.0953(2) 0.97492(15)
H17 H 0.9439 0.0915 1.0063
H18 H 0.9691 0.0681 0.9694
O19 O 0.7984(3) 0.9967(3) 0.05874(16)
H19 H 0.7585 0.9980 0.0795
H20 H 0.7738 0.9868 0.0271
O1 O 0.9974(3) 0.4867(3) 0.59218(19)
H1 H 0.9476 0.4781 0.5876
H2 H 1.0409 0.4704 0.6121
loop_
_geom_bond_atom_site_label_1
_geom_bond_atom_site_label_2
_geom_bond_site_symmetry_1
_geom_bond_site_symmetry_2
O1 H1 1_555 1_555
H2 O1 1_555 1_555
O2 H3 1_555 1_555
H4 O2 1_555 1_555
O3 H5 1_555 1_555
H6 O3 1_555 1_555
Ag1 N5 1_555 1_555
Ag2 O4 1_555 1_555
Ag3 O6 1_555 1_555
Ag4 O7 1_555 1_555
Ag5 N7 1_555 1_555
O4 C7 1_555 1_555
O5 C7 1_555 1_555
O6 C8 1_555 1_555
O7 C8 1_555 1_555
O8 C9 1_555 1_555
O9 C9 1_555 1_555
O10 C10 1_555 1_555
O11 C10 1_555 1_555
O12 N9 1_555 1_555
N1 Ag2 1_555 1_555
N2 C28 1_555 1_555
N3 Ag3 1_555 1_555
N4 C18 1_555 1_555
N5 C41 1_555 1_555
N6 C48 1_555 1_555
N7 C31 1_555 1_555
N8 C38 1_555 1_555
O13 H7 1_555 1_555
H8 O13 1_555 1_555
O14 H9 1_555 1_555
H10 O14 1_555 1_555
O15 H11 1_555 1_555
H12 O15 1_555 1_555
O16 H13 1_555 1_555
H14 O16 1_555 1_555
O17 H15 1_555 1_555
H16 O17 1_555 1_555
O18 H17 1_555 1_555
H18 O18 1_555 1_555
O19 H19 1_555 1_555
H20 O19 1_555 1_555
C1 C2 1_555 1_555
C2 H21 1_555 1_555
C3 C2 1_555 1_555
H22 C3 1_555 1_555
C4 C3 1_555 1_555
C5 C4 1_555 1_555
C6 C1 1_555 1_555
C7 C1 1_555 1_555
C8 C6 1_555 1_555
C9 C5 1_555 1_555
C10 C4 1_555 1_555
C11 N3 1_555 1_555
H23 C11 1_555 1_555
C12 N3 1_555 1_555
H24 C12 1_555 1_555
C13 C12 1_555 1_555
H25 C13 1_555 1_555
C14 C13 1_555 1_555
C15 C11 1_555 1_555
H26 C15 1_555 1_555
C16 C14 1_555 1_555
C17 C16 1_555 1_555
H27 C17 1_555 1_555
C18 C17 1_555 1_555
H28 C18 1_555 1_555
C19 N4 1_555 1_555
H29 C19 1_555 1_555
C20 C16 1_555 1_555
H30 C20 1_555 1_555
C21 N1 1_555 1_555
H31 C21 1_555 1_555
C22 C21 1_555 1_555
H32 C22 1_555 1_555
C23 C22 1_555 1_555
C24 C23 1_555 1_555
H33 C24 1_555 1_555
C25 N1 1_555 1_555
H34 C25 1_555 1_555
C26 C23 1_555 1_555
C27 C26 1_555 1_555
H35 C27 1_555 1_555
C28 C27 1_555 1_555
H36 C28 1_555 1_555
C29 N2 1_555 1_555
H37 C29 1_555 1_555
C30 C26 1_555 1_555
H38 C30 1_555 1_555
C31 H39 1_555 1_555
C32 C31 1_555 1_555
H40 C32 1_555 1_555
C33 C32 1_555 1_555
C34 C33 1_555 1_555
H41 C34 1_555 1_555
C35 N7 1_555 1_555
H42 C35 1_555 1_555
C36 C33 1_555 1_555
C37 C36 1_555 1_555
H43 C37 1_555 1_555
C38 C37 1_555 1_555
H44 C38 1_555 1_555
C39 N8 1_555 1_555
H45 C39 1_555 1_555
C40 C36 1_555 1_555
H46 C40 1_555 1_555
C41 H47 1_555 1_555
C42 C41 1_555 1_555
H48 C42 1_555 1_555
C43 C42 1_555 1_555
C44 C43 1_555 1_555
H49 C44 1_555 1_555
C45 N5 1_555 1_555
H50 C45 1_555 1_555
C46 C43 1_555 1_555
C47 C46 1_555 1_555
H51 C47 1_555 1_555
C48 C47 1_555 1_555
H52 C48 1_555 1_555
C49 N6 1_555 1_555
H53 C49 1_555 1_555
C50 C46 1_555 1_555
H54 C50 1_555 1_555
N9 O20 1_555 1_555
O20 N9B 1_555 1_555
Ag1C N5C 1_555 1_555
Ag1C_2 N6 1_555 1_555
Ag2B O4B 1_555 1_555
Ag2C N2 1_555 1_555
Ag2C_2 N1C 1_555 1_555
Ag3B O6B 1_555 1_555
Ag3C N4 1_555 1_555
Ag3C_2 N3C 1_555 1_555
Ag5C N7C 1_555 1_555
Ag5C_2 N8 1_555 1_555
O4B C7B 1_555 1_555
O5B C7B 1_555 1_555
O6B C8B 1_555 1_555
O7B Ag4 1_555 1_555
O8B C9B 1_555 1_555
O9B C9B 1_555 1_555
O10B C10B 1_555 1_555
O11B C10B 1_555 1_555
O12B N9B 1_555 1_555
N1C C21C 1_555 1_555
N1B Ag2B 1_555 1_555
N2C Ag2 1_555 1_555
N2A Ag2B 1_555 1_555
N3C C11C 1_555 1_555
N3B Ag3B 1_555 1_555
N4C Ag3 1_555 1_555
N4A Ag3B 1_555 1_555
N5C C41C 1_555 1_555
N6C Ag1 1_555 1_555
N6_2 Ag1C 1_555 1_555
N7C C31C 1_555 1_555
N8C Ag5 1_555 1_555
N8_2 Ag5C 1_555 1_555
C1B C2B 1_555 1_555
C2B H21B 1_555 1_555
C3B C2B 1_555 1_555
H22B C3B 1_555 1_555
C4B C3B 1_555 1_555
C5B C4B 1_555 1_555
C6B C1B 1_555 1_555
C7B C1B 1_555 1_555
C8B O7B 1_555 1_555
C9B C5B 1_555 1_555
C10B C4B 1_555 1_555
C11C H23C 1_555 1_555
C12C N3C 1_555 1_555
H24C C12C 1_555 1_555
C13C C12C 1_555 1_555
H25C C13C 1_555 1_555
C14C C13C 1_555 1_555
C15C C11C 1_555 1_555
H26C C15C 1_555 1_555
C16C C14C 1_555 1_555
C17C C16C 1_555 1_555
H27C C17C 1_555 1_555
C18C N4C 1_555 1_555
H28C C18C 1_555 1_555
C19C N4C 1_555 1_555
H29C C19C 1_555 1_555
C20C C16C 1_555 1_555
H30C C20C 1_555 1_555
C21C H31C 1_555 1_555
C22C C21C 1_555 1_555
H32C C22C 1_555 1_555
C23C C22C 1_555 1_555
C24C C23C 1_555 1_555
H33C C24C 1_555 1_555
C25C N1C 1_555 1_555
H34C C25C 1_555 1_555
C26C C23C 1_555 1_555
C27C C26C 1_555 1_555
H35C C27C 1_555 1_555
C28C N2C 1_555 1_555
H36C C28C 1_555 1_555
C29C N2C 1_555 1_555
H37C C29C 1_555 1_555
C30C C26C 1_555 1_555
H38C C30C 1_555 1_555
C31C H39C 1_555 1_555
C32C C31C 1_555 1_555
H40C C32C 1_555 1_555
C33C C32C 1_555 1_555
C34C C33C 1_555 1_555
H41C C34C 1_555 1_555
C35C N7C 1_555 1_555
H42C C35C 1_555 1_555
C36C C33C 1_555 1_555
C37C C36C 1_555 1_555
H43C C37C 1_555 1_555
C38C N8C 1_555 1_555
H44C C38C 1_555 1_555
C39C N8C 1_555 1_555
H45C C39C 1_555 1_555
C40C C36C 1_555 1_555
H46C C40C 1_555 1_555
C41C H47C 1_555 1_555
C42C C41C 1_555 1_555
H48C C42C 1_555 1_555
C43C C42C 1_555 1_555
C44C C43C 1_555 1_555
H49C C44C 1_555 1_555
C45C N5C 1_555 1_555
H50C C45C 1_555 1_555
C46C C43C 1_555 1_555
C47C C46C 1_555 1_555
H51C C47C 1_555 1_555
C48C N6C 1_555 1_555
H52C C48C 1_555 1_555
C49C N6C 1_555 1_555
H53C C49C 1_555 1_555
C50C C46C 1_555 1_555
H54C C50C 1_555 1_555
N9B O20B 1_555 1_555
O20B N9 1_555 1_555
C5 C6 1_555 1_555
C14 C15 1_555 1_555
C19 C20 1_555 1_555
C24 C25 1_555 1_555
C29 C30 1_555 1_555
C34 C35 1_555 1_555
C39 C40 1_555 1_555
C44 C45 1_555 1_555
C49 C50 1_555 1_555
C5B C6B 1_555 1_555
C6B C8B 1_555 1_555
C14C C15C 1_555 1_555
C17C C18C 1_555 1_555
C19C C20C 1_555 1_555
C24C C25C 1_555 1_555
C27C C28C 1_555 1_555
C29C C30C 1_555 1_555
C34C C35C 1_555 1_555
C37C C38C 1_555 1_555
C39C C40C 1_555 1_555
C44C C45C 1_555 1_555
C47C C48C 1_555 1_555
C49C C50C 1_555 1_555

#END
