
#######################################################################
#
#                 Cambridge Crystallographic Data Centre
#                                CCDC 
#
#######################################################################
#
# If this CIF has been generated from an entry in the Cambridge 
# Structural Database, then it will include bibliographic, chemical, 
# crystal, experimental, refinement or atomic coordinate data resulting 
# from the CCDC's data processing and validation procedures.
#
#######################################################################

data_DACKID
_symmetry_cell_setting           orthorhombic
_symmetry_space_group_name_H-M   'I 21 21 21'
_symmetry_Int_Tables_number      24
_space_group_name_Hall           'I 2b 2c'
loop_
_symmetry_equiv_pos_site_id
_symmetry_equiv_pos_as_xyz
1 x,y,z
2 1/2-x,-y,1/2+z
3 -x,1/2+y,1/2-z
4 1/2+x,1/2-y,-z
5 1/2+x,1/2+y,1/2+z
6 -x,1/2-y,z
7 1/2-x,y,-z
8 x,-y,1/2-z
_cell_length_a                   11.3486(8)
_cell_length_b                   14.1073(18)
_cell_length_c                   17.514(2)
_cell_angle_alpha                90
_cell_angle_beta                 90
_cell_angle_gamma                90
_cell_volume                     2803.96
loop_
_atom_site_label
_atom_site_type_symbol
_atom_site_fract_x
_atom_site_fract_y
_atom_site_fract_z
Ag1 Ag 0.07464(9) 0.0000 0.2500
N1 N -0.1130(10) 0.0000 0.2500
C1 C -0.1745(9) -0.0303(7) 0.3105(6)
H1 H -0.1332 -0.0530 0.3526
N2 N -0.7389(10) 0.0000 0.2500
C2 C -0.2950(8) -0.0296(7) 0.3136(6)
H2 H -0.3331 -0.0487 0.3580
C3 C -0.3620(11) 0.0000 0.2500
C4 C -0.4917(12) 0.0000 0.2500
C5 C -0.5547(8) -0.0163(7) 0.1830(6)
H3 H -0.5156 -0.0268 0.1371
C6 C -0.6750(8) -0.0165(8) 0.1859(6)
H4 H -0.7158 -0.0289 0.1410
Ag1_2 Ag -0.92536(9) 0.0000 0.2500
C1G C -0.1745(9) 0.0303(7) 0.1895(6)
H1G H -0.1332 0.0530 0.1474
N2_2 N 0.2611(10) 0.0000 0.2500
C2G C -0.2950(8) 0.0296(7) 0.1864(6)
H2G H -0.3331 0.0487 0.1420
C5G C -0.5547(8) 0.0163(7) 0.3170(6)
H3G H -0.5156 0.0268 0.3629
C6G C -0.6750(8) 0.0165(8) 0.3141(6)
H4G H -0.7158 0.0289 0.3590
O1 O 0.0747(6) -0.1071(5) 0.4143(4)
Ag2 Ag -0.2500 0.04802(9) 0.5000
Ag3 Ag 0.0000 -0.2500 0.42255(8)
O2 O -0.0649(6) 0.0498(6) 0.5134(4)
O3 O -0.0339(6) 0.1280(6) 0.4068(5)
O4 O 0.1229(9) -0.1555(7) 0.5293(4)
C7 C 0.1899(7) -0.0030(7) 0.4920(6)
C8 C 0.1314(8) 0.0821(7) 0.4820(4)
C9 C 0.1900(8) 0.1660(7) 0.4915(6)
H5 H 0.1498 0.2231 0.4865
C10 C 0.1244(9) -0.0979(7) 0.4782(6)
C11 C -0.0008(10) 0.0861(7) 0.4655(5)
O1F O 0.4253(6) -0.1071(5) 0.5857(4)
O1E O -0.0747(6) -0.3929(5) 0.4143(4)
Ag2_2 Ag 0.7500 0.04802(9) 0.5000
Ag3C Ag 0.5000 -0.2500 0.57745(8)
O2F O 0.5649(6) 0.0498(6) 0.4866(4)
O2F_2 O -0.4351(6) 0.0498(6) 0.4866(4)
O3F O 0.5339(6) 0.1280(6) 0.5932(5)
O4F O 0.3771(9) -0.1555(7) 0.4707(4)
O4E O -0.1229(9) -0.3445(7) 0.5293(4)
C7F C 0.3101(7) -0.0030(7) 0.5080(6)
C8F C 0.3686(8) 0.0821(7) 0.5180(4)
C9F C 0.3100(8) 0.1660(7) 0.5085(6)
H5F H 0.3502 0.2231 0.5135
C10F C 0.3756(9) -0.0979(7) 0.5218(6)
C11F C 0.5008(10) 0.0861(7) 0.5345(5)
Ag4 Ag 0.0000 0.2500 0.27329(9)
N3 N -0.1892(6) 0.2466(6) 0.2654(5)
C12 C -0.2506(10) 0.2189(7) 0.3273(5)
H6 H -0.2105 0.1988 0.3707
C13 C -0.2495(10) 0.2757(7) 0.2028(5)
H7 H -0.2074 0.2966 0.1605
C14 C -0.3715(8) 0.2198(7) 0.3273(5)
H8 H -0.4115 0.2006 0.3710
C15 C -0.4350(7) 0.2480(7) 0.2652(5)
C16 C -0.3708(8) 0.2755(7) 0.1994(6)
H9 H -0.4097 0.2930 0.1548
Ag4_2 Ag -1.0000 0.2500 0.27329(9)
N3E N -0.8108(6) 0.2534(6) 0.2654(5)
N3E_2 N 0.1892(6) 0.2534(6) 0.2654(5)
C12E C -0.7494(10) 0.2811(7) 0.3273(5)
H6E H -0.7895 0.3012 0.3707
C13E C -0.7505(10) 0.2243(7) 0.2028(5)
H7E H -0.7926 0.2034 0.1605
C14E C -0.6285(8) 0.2802(7) 0.3273(5)
H8E H -0.5885 0.2994 0.3710
C15E C -0.5650(7) 0.2520(7) 0.2652(5)
C16E C -0.6292(8) 0.2245(7) 0.1994(6)
H9E H -0.5903 0.2070 0.1548
O5 O -0.2500 -0.1531(12) 0.5000
H10 H -0.1920 -0.1908 0.5050
H10F H -0.3080 -0.1908 0.4950
loop_
_geom_bond_atom_site_label_1
_geom_bond_atom_site_label_2
_geom_bond_site_symmetry_1
_geom_bond_site_symmetry_2
Ag1 N1 1_555 1_555
N1 C1 1_555 1_555
C1 H1 1_555 1_555
N2 C6 1_555 1_555
C2 C1 1_555 1_555
H2 C2 1_555 1_555
C3 C2 1_555 1_555
C4 C3 1_555 1_555
C5 C4 1_555 1_555
H3 C5 1_555 1_555
C6 C5 1_555 1_555
H4 C6 1_555 1_555
O1 Ag3 1_555 1_555
Ag2 O2 1_555 1_555
Ag3 O4 1_555 1_555
O2 C11 1_555 1_555
O3 C11 1_555 1_555
O4 C10 1_555 1_555
C7 C8 1_555 1_555
C8 C9 1_555 1_555
C9 H5 1_555 1_555
C10 O1 1_555 1_555
C11 C8 1_555 1_555
Ag4 N3 1_555 1_555
N3 C12 1_555 1_555
C12 H6 1_555 1_555
C13 N3 1_555 1_555
H7 C13 1_555 1_555
C14 C12 1_555 1_555
H8 C14 1_555 1_555
C15 C14 1_555 1_555
C16 C13 1_555 1_555
H9 C16 1_555 1_555
O5 H10 1_555 1_555
Ag1_2 N2 1_555 1_555
C1G N1 1_555 1_555
H1G C1G 1_555 1_555
N2_2 Ag1 1_555 1_555
C2G C3 1_555 1_555
H2G C2G 1_555 1_555
C5G C4 1_555 1_555
H3G C5G 1_555 1_555
C6G N2 1_555 1_555
H4G C6G 1_555 1_555
O1F Ag3C 1_555 1_555
O1E Ag3 1_555 1_555
Ag2_2 O2F 1_555 1_555
Ag3C O4F 1_555 1_555
O2F C11F 1_555 1_555
O2F_2 Ag2 1_555 1_555
O3F C11F 1_555 1_555
O4F C10F 1_555 1_555
O4E Ag3 1_555 1_555
C7F C7 1_555 1_555
C8F C7F 1_555 1_555
C9F C9 1_555 1_555
H5F C9F 1_555 1_555
C10F O1F 1_555 1_555
C11F C8F 1_555 1_555
Ag4_2 N3E 1_555 1_555
N3E C12E 1_555 1_555
N3E_2 Ag4 1_555 1_555
C12E H6E 1_555 1_555
C13E N3E 1_555 1_555
H7E C13E 1_555 1_555
C14E C12E 1_555 1_555
H8E C14E 1_555 1_555
C15E C15 1_555 1_555
C16E C13E 1_555 1_555
H9E C16E 1_555 1_555
H10F O5 1_555 1_555
C7 C10 1_555 1_555
C15 C16 1_555 1_555
C1G C2G 1_555 1_555
C5G C6G 1_555 1_555
C7F C10F 1_555 1_555
C8F C9F 1_555 1_555
C14E C15E 1_555 1_555
C15E C16E 1_555 1_555

#END
