
#######################################################################
#
#                 Cambridge Crystallographic Data Centre
#                                CCDC 
#
#######################################################################
#
# If this CIF has been generated from an entry in the Cambridge 
# Structural Database, then it will include bibliographic, chemical, 
# crystal, experimental, refinement or atomic coordinate data resulting 
# from the CCDC's data processing and validation procedures.
#
#######################################################################

data_DACKEZ
_symmetry_cell_setting           monoclinic
_symmetry_space_group_name_H-M   'P 21/c'
_symmetry_Int_Tables_number      14
_space_group_name_Hall           '-P 2ybc'
loop_
_symmetry_equiv_pos_site_id
_symmetry_equiv_pos_as_xyz
1 x,y,z
2 -x,1/2+y,1/2-z
3 -x,-y,-z
4 x,1/2-y,1/2+z
_cell_length_a                   24.8903(7)
_cell_length_b                   17.4034(4)
_cell_length_c                   22.5431(3)
_cell_angle_alpha                90
_cell_angle_beta                 94.825(2)
_cell_angle_gamma                90
_cell_volume                     9730.52
loop_
_atom_site_label
_atom_site_type_symbol
_atom_site_fract_x
_atom_site_fract_y
_atom_site_fract_z
Ag1 Ag 0.299058(19) 0.30707(2) 0.442413(15)
Ag2 Ag 0.127346(18) 0.69350(2) 0.723052(15)
Ag3 Ag 0.14784(2) 0.31223(2) 0.385658(15)
Ag4 Ag 0.219303(16) 0.50436(2) 0.578988(14)
Ag5 Ag 0.273949(19) 0.68469(2) 0.763802(15)
N1 N 0.30493(17) 0.2813(2) 0.53784(15)
N2 N 0.29456(16) 0.2186(2) 0.84796(15)
N3 N 0.15117(16) 0.2891(2) 0.48115(15)
N4 N 0.14847(16) 0.2130(2) 0.79082(15)
N5 N 0.12315(16) 0.7161(2) 0.62770(15)
N6 N 0.13511(16) 0.7793(2) 0.31758(15)
N7 N 0.28015(16) 0.7149(2) 0.66943(15)
N8 N 0.27806(16) 0.7889(2) 0.35974(15)
O1 O 0.39122(14) 0.50607(19) 0.27189(14)
O2 O 0.40644(14) 0.5766(2) 0.35336(15)
O3 O 0.34459(13) 0.53853(17) 0.48079(12)
O4 O 0.36731(14) 0.43250(18) 0.43355(14)
O5 O 0.21400(13) 0.53426(16) 0.48659(12)
O6 O 0.24222(13) 0.41510(17) 0.47142(12)
O7 O 0.13880(13) 0.45182(17) 0.39234(13)
O8 O 0.11465(14) 0.52408(19) 0.31277(14)
O9 O 0.05942(14) 0.49009(19) 0.89322(14)
O10 O 0.04125(14) 0.4211(2) 0.81045(14)
O11 O 0.10089(14) 0.46572(18) 0.68130(13)
O12 O 0.07630(13) 0.56640(17) 0.73357(13)
O13 O 0.22718(13) 0.47383(17) 0.67063(12)
O14 O 0.20299(12) 0.59237(16) 0.69392(12)
O15 O 0.30862(13) 0.54751(18) 0.76587(13)
O16 O 0.33354(13) 0.47408(18) 0.84380(13)
C1 C 0.31797(18) 0.5311(2) 0.32886(17)
C2 C 0.30109(18) 0.5130(2) 0.38509(16)
C3 C 0.24628(17) 0.5046(2) 0.39275(17)
C4 C 0.20761(18) 0.5148(2) 0.34506(17)
C5 C 0.2246(2) 0.5358(2) 0.29082(18)
H37 H 0.1990 0.5452 0.2592
C6 C 0.27847(19) 0.5433(2) 0.28184(18)
H38 H 0.2886 0.5565 0.2444
C7 C 0.3767(2) 0.5381(3) 0.31780(19)
C8 C 0.34189(18) 0.4936(2) 0.43698(17)
C9 C 0.23197(17) 0.4817(2) 0.45466(18)
C10 C 0.14897(19) 0.4963(2) 0.35068(18)
C11 C 0.13039(18) 0.4659(2) 0.83285(17)
C12 C 0.14515(18) 0.4870(2) 0.77662(17)
C13 C 0.19981(18) 0.4962(2) 0.76734(17)
C14 C 0.24009(18) 0.4844(2) 0.81400(17)
C15 C 0.2241(2) 0.4601(2) 0.86916(18)
H39 H 0.2502 0.4491 0.9000
C16 C 0.1701(2) 0.4524(2) 0.87853(18)
H40 H 0.1604 0.4379 0.9159
C17 C 0.0720(2) 0.4582(2) 0.84600(19)
C18 C 0.10330(18) 0.5073(2) 0.72614(18)
C19 C 0.21195(18) 0.5243(2) 0.70610(17)
C20 C 0.29796(19) 0.5028(2) 0.80704(18)
C21 C 0.3100(2) 0.2099(3) 0.5615(2)
H41 H 0.3145 0.1687 0.5361
C22 C 0.3087(2) 0.1954(3) 0.6212(2)
H42 H 0.3131 0.1455 0.6355
C23 C 0.30079(19) 0.2553(2) 0.66054(18)
C24 C 0.2966(2) 0.3279(3) 0.63630(19)
H43 H 0.2921 0.3701 0.6607
C25 C 0.2989(2) 0.3381(3) 0.57597(19)
H44 H 0.2962 0.3879 0.5611
C26 C 0.29878(18) 0.2427(2) 0.72490(19)
C27 C 0.2845(2) 0.1727(3) 0.74761(19)
H45 H 0.2763 0.1317 0.7220
C28 C 0.2822(2) 0.1632(3) 0.80787(19)
H46 H 0.2715 0.1157 0.8216
C29 C 0.3081(2) 0.2869(2) 0.82566(19)
H47 H 0.3161 0.3271 0.8521
C30 C 0.3108(2) 0.3006(2) 0.76625(18)
H48 H 0.3207 0.3490 0.7535
C31 C 0.1603(2) 0.2187(3) 0.5041(2)
H49 H 0.1655 0.1786 0.4779
C32 C 0.1624(2) 0.2023(3) 0.5633(2)
H50 H 0.1697 0.1525 0.5766
C33 C 0.15339(19) 0.2606(2) 0.60417(17)
C34 C 0.14456(18) 0.3329(2) 0.58079(18)
H51 H 0.1392 0.3740 0.6059
C35 C 0.14368(19) 0.3446(2) 0.52001(18)
H52 H 0.1375 0.3942 0.5056
C36 C 0.15190(19) 0.2445(2) 0.66852(18)
C37 C 0.1349(2) 0.1731(2) 0.68916(19)
H53 H 0.1243 0.1344 0.6622
C38 C 0.1339(2) 0.1606(3) 0.74899(19)
H54 H 0.1224 0.1128 0.7614
C39 C 0.1646(2) 0.2815(3) 0.77036(18)
H55 H 0.1751 0.3192 0.7982
C40 C 0.1666(2) 0.2991(2) 0.71154(18)
H56 H 0.1778 0.3476 0.7004
C41 C 0.1323(2) 0.6593(3) 0.59018(18)
H57 H 0.1367 0.6100 0.6057
C42 C 0.1357(2) 0.6689(2) 0.53036(18)
H58 H 0.1425 0.6269 0.5066
C43 C 0.12895(17) 0.7413(2) 0.50535(18)
C44 C 0.1183(2) 0.8008(2) 0.54397(19)
H59 H 0.1128 0.8504 0.5294
C45 C 0.1159(2) 0.7864(3) 0.60334(19)
H60 H 0.1089 0.8272 0.6282
C46 C 0.13126(18) 0.7545(2) 0.44079(18)
C47 C 0.12056(19) 0.6961(2) 0.39901(18)
H61 H 0.1121 0.6470 0.4117
C48 C 0.1225(2) 0.7105(3) 0.33989(19)
H62 H 0.1146 0.6704 0.3133
C49 C 0.1461(2) 0.8351(3) 0.35774(19)
H63 H 0.1553 0.8833 0.3440
C50 C 0.1445(2) 0.8253(2) 0.41750(19)
H64 H 0.1525 0.8664 0.4430
C51 C 0.29217(18) 0.6603(2) 0.63157(18)
H65 H 0.3017 0.6120 0.6468
C52 C 0.29126(18) 0.6713(2) 0.57082(18)
H66 H 0.2997 0.6310 0.5461
C53 C 0.27759(18) 0.7434(2) 0.54665(18)
C54 C 0.2650(2) 0.7996(3) 0.58681(19)
H67 H 0.2554 0.8486 0.5732
C55 C 0.2666(2) 0.7835(3) 0.64656(19)
H68 H 0.2578 0.8224 0.6723
C56 C 0.27760(19) 0.7585(2) 0.48181(17)
C57 C 0.26569(19) 0.7021(2) 0.43947(18)
H69 H 0.2576 0.6525 0.4512
C58 C 0.2659(2) 0.7195(3) 0.38022(18)
H70 H 0.2570 0.6808 0.3526
C59 C 0.2906(2) 0.8427(3) 0.40091(19)
H71 H 0.2998 0.8913 0.3881
C60 C 0.2906(2) 0.8303(2) 0.46067(18)
H72 H 0.2994 0.8701 0.4873
Ag1C Ag 0.299058(19) 0.19293(2) 0.942413(15)
Ag2C Ag 0.127346(18) 0.80650(2) 0.223052(15)
Ag3C Ag 0.14784(2) 0.18777(2) 0.885658(15)
Ag5C Ag 0.273949(19) 0.81531(2) 0.263802(15)
N2C N 0.29456(16) 0.2814(2) 0.34796(15)
N4C N 0.14847(16) 0.2870(2) 0.29082(15)
N6C N 0.13511(16) 0.7207(2) 0.81758(15)
N8C N 0.27806(16) 0.7111(2) 0.85974(15)
Ag6 Ag 0.014766(19) 0.25659(2) 0.318249(15)
N9 N 0.01756(17) 0.2515(2) 0.41264(15)
N10 N 0.00940(16) 0.2466(2) 0.72369(16)
C61 C 0.0245(2) 0.1862(3) 0.4431(2)
H73 H 0.0306 0.1412 0.4226
C62 C 0.0228(2) 0.1833(3) 0.50371(19)
H74 H 0.0285 0.1369 0.5237
C63 C 0.01275(18) 0.2493(2) 0.53538(18)
C64 C 0.00502(19) 0.3169(2) 0.50297(18)
H75 H -0.0020 0.3627 0.5222
C65 C 0.0078(2) 0.3157(3) 0.44257(19)
H76 H 0.0027 0.3614 0.4215
C66 C 0.01040(18) 0.2486(2) 0.60025(18)
C67 C -0.00342(19) 0.1825(2) 0.63059(18)
H77 H -0.0126 0.1377 0.6096
C68 C -0.0035(2) 0.1839(3) 0.69081(19)
H78 H -0.0129 0.1393 0.7102
C69 C 0.02197(19) 0.3107(3) 0.69565(18)
H79 H 0.0304 0.3547 0.7180
C70 C 0.02290(19) 0.3141(2) 0.63471(18)
H80 H 0.0318 0.3598 0.6165
Ag6C Ag 0.014766(19) 0.24341(2) 0.818249(15)
N10C N 0.00940(16) 0.2534(2) 0.22369(16)
Ag7 Ag 0.43894(2) 0.24906(3) 0.480330(16)
N11 N 0.44317(17) 0.2443(2) 0.57476(15)
N12 N 0.43738(17) 0.2520(2) 0.88603(15)
C71 C 0.4544(2) 0.1818(3) 0.6070(2)
H81 H 0.4612 0.1364 0.5872
C72 C 0.4564(2) 0.1806(3) 0.6680(2)
H82 H 0.4646 0.1353 0.6888
C73 C 0.44616(19) 0.2477(2) 0.69871(18)
C74 C 0.4358(2) 0.3121(3) 0.6646(2)
H83 H 0.4295 0.3588 0.6830
C75 C 0.4345(2) 0.3083(3) 0.6041(2)
H84 H 0.4273 0.3531 0.5824
C76 C 0.44417(18) 0.2484(2) 0.76328(18)
C77 C 0.4301(2) 0.1836(2) 0.79474(19)
H85 H 0.4225 0.1377 0.7746
C78 C 0.4276(2) 0.1871(3) 0.85476(19)
H86 H 0.4188 0.1428 0.8749
C79 C 0.4511(2) 0.3146(3) 0.8562(2)
H87 H 0.4588 0.3595 0.8776
C80 C 0.4545(2) 0.3157(3) 0.79605(19)
H88 H 0.4636 0.3608 0.7771
Ag7C Ag 0.43894(2) 0.25094(3) 0.980330(16)
N12C N 0.43738(17) 0.2480(2) 0.38603(15)
Ag8 Ag 0.41347(2) 0.75681(3) 0.339643(17)
N13 N 0.41832(17) 0.7572(3) 0.43388(16)
N14 N 0.41282(17) 0.7457(2) 0.74583(16)
C81 C 0.4117(2) 0.6914(3) 0.4632(2)
H89 H 0.4057 0.6466 0.4412
C82 C 0.4133(2) 0.6871(3) 0.5231(2)
H90 H 0.4090 0.6398 0.5414
C83 C 0.42120(19) 0.7524(3) 0.55725(18)
C84 C 0.4295(2) 0.8215(3) 0.52751(19)
H91 H 0.4365 0.8668 0.5487
C85 C 0.4271(2) 0.8212(3) 0.4664(2)
H92 H 0.4318 0.8673 0.4467
C86 C 0.41933(19) 0.7503(2) 0.62319(18)
C87 C 0.4276(2) 0.6830(3) 0.6551(2)
H93 H 0.4356 0.6377 0.6358
C88 C 0.4241(2) 0.6833(3) 0.7150(2)
H94 H 0.4298 0.6373 0.7355
C89 C 0.4050(2) 0.8107(3) 0.7155(2)
H95 H 0.3978 0.8552 0.7362
C90 C 0.4071(2) 0.8152(3) 0.6549(2)
H96 H 0.4004 0.8616 0.6353
Ag8C Ag 0.41347(2) 0.74319(3) 0.839643(17)
N14C N 0.41282(17) 0.7543(2) 0.24583(16)
O17 O 0.11115(16) 0.5031(2) 0.00459(16)
H1 H 0.0914 0.4896 0.0317
H2 H 0.0929 0.5055 -0.0290
O18 O 0.2058(3) 0.5023(3) 0.0634(3)
H3 H 0.2397 0.5025 0.0609
H4 H 0.1921 0.5224 0.0468
O19 O 0.3093(2) 0.4993(3) 0.0456(2)
H5 H 0.3264 0.4621 0.0317
H6 H 0.3230 0.5416 0.0555
O20 O 0.3758(2) 0.4888(3) 0.14983(19)
H7 H 0.3808 0.4942 0.1874
H8 H 0.3441 0.4720 0.1407
O21 O 0.02462(14) 0.41206(19) 0.32261(15)
H9 H 0.0503 0.4438 0.3200
H10 H -0.0019 0.4248 0.2984
O22 O 0.05831(15) 0.5217(2) 0.45270(15)
H11 H 0.0828 0.5004 0.4342
H12 H 0.0618 0.5081 0.4890
O23 O 0.05196(17) 0.4965(2) 0.57151(15)
H13 H 0.0674 0.4869 0.6057
H14 H 0.0185 0.5038 0.5744
O24 O 0.38856(16) 0.5001(2) 0.58927(14)
H15 H 0.3744 0.5122 0.5550
H16 H 0.4214 0.4882 0.5870
O25 O 0.39270(16) 0.4836(2) 0.70907(15)
H17 H 0.3672 0.5034 0.7268
H18 H 0.3860 0.4886 0.6717
O26 O 0.3587(3) 0.4242(3) 0.9590(2)
H19 H 0.3508 0.4401 0.9237
H20 H 0.3912 0.4087 0.9625
O27 O 0.4620(5) 0.4518(6) 0.9788(5)
H21 H 0.4799 0.4616 0.9565
H22 H 0.4793 0.4447 1.0099
O28 O 0.5261(3) 0.4859(3) 0.9017(3)
H23 H 0.5111 0.5187 0.8816
H24 H 0.5590 0.4869 0.8876
O29 O 0.50163(17) 0.5054(2) 0.75471(18)
H25 H 0.5276 0.4743 0.7626
H26 H 0.4787 0.4740 0.7385
O30 O 0.50016(16) 0.5184(2) 0.40788(17)
H27 H 0.4712 0.5367 0.3908
H28 H 0.4933 0.4814 0.4270
O31 O 0.43222(19) 0.5533(3) 0.8457(2)
H29 H 0.4023 0.5296 0.8455
H30 H 0.4401 0.5323 0.8135
O32 O 0.46498(14) 0.40316(19) 0.48260(14)
H31 H 0.4354 0.4119 0.4676
H32 H 0.4656 0.4275 0.5169
O33 O 0.92953(16) 0.4183(2) 0.79771(15)
H33 H 0.8985 0.4223 0.7792
H34 H 0.9508 0.4504 0.7836
O34 O 0.95088(17) 0.5048(2) 0.90328(18)
H35 H 0.9843 0.4869 0.9124
H36 H 0.9372 0.4845 0.8746
H97? H 0.2296 0.5187 0.1124
H98? H 0.1736 0.5131 0.0931
O35? O 0.1959(4) 0.5140(4) 0.1237(4)
loop_
_geom_bond_atom_site_label_1
_geom_bond_atom_site_label_2
_geom_bond_site_symmetry_1
_geom_bond_site_symmetry_2
Ag1 N1 1_555 1_555
Ag2 N5 1_555 1_555
Ag3 N3 1_555 1_555
Ag4 O5 1_555 1_555
Ag5 N7 1_555 1_555
Ag6 N9 1_555 1_555
Ag7 N11 1_555 1_555
Ag8 N13 1_555 1_555
N1 C21 1_555 1_555
N2 C28 1_555 1_555
N3 C31 1_555 1_555
N4 C38 1_555 1_555
N5 C41 1_555 1_555
N6 C48 1_555 1_555
N7 C51 1_555 1_555
N8 C58 1_555 1_555
N9 C61 1_555 1_555
N10 C68 1_555 1_555
N11 C71 1_555 1_555
N12 C78 1_555 1_555
N13 C81 1_555 1_555
N14 C88 1_555 1_555
O1 C7 1_555 1_555
O2 C7 1_555 1_555
O3 C8 1_555 1_555
O4 C8 1_555 1_555
O5 C9 1_555 1_555
O6 Ag1 1_555 1_555
O7 Ag3 1_555 1_555
O8 C10 1_555 1_555
O9 C17 1_555 1_555
O10 C17 1_555 1_555
O11 C18 1_555 1_555
O12 Ag2 1_555 1_555
O13 Ag4 1_555 1_555
O14 C19 1_555 1_555
O15 Ag5 1_555 1_555
O16 C20 1_555 1_555
O17 H1 1_555 1_555
H2 O17 1_555 1_555
O18 H3 1_555 1_555
H4 O18 1_555 1_555
O19 H5 1_555 1_555
H6 O19 1_555 1_555
O20 H7 1_555 1_555
H8 O20 1_555 1_555
O21 H9 1_555 1_555
H10 O21 1_555 1_555
O22 H11 1_555 1_555
H12 O22 1_555 1_555
O23 H13 1_555 1_555
H14 O23 1_555 1_555
O24 H15 1_555 1_555
H16 O24 1_555 1_555
O25 H17 1_555 1_555
H18 O25 1_555 1_555
O26 H19 1_555 1_555
H20 O26 1_555 1_555
O27 H21 1_555 1_555
H22 O27 1_555 1_555
O28 H23 1_555 1_555
H24 O28 1_555 1_555
O29 H25 1_555 1_555
H26 O29 1_555 1_555
O30 H27 1_555 1_555
H28 O30 1_555 1_555
O31 H29 1_555 1_555
H30 O31 1_555 1_555
O32 H31 1_555 1_555
H32 O32 1_555 1_555
O33 H33 1_555 1_555
H34 O33 1_555 1_555
O34 H35 1_555 1_555
H36 O34 1_555 1_555
C1 C2 1_555 1_555
C2 C3 1_555 1_555
C3 C4 1_555 1_555
C4 C5 1_555 1_555
C5 H37 1_555 1_555
C6 C1 1_555 1_555
H38 C6 1_555 1_555
C7 C1 1_555 1_555
C8 C2 1_555 1_555
C9 O6 1_555 1_555
C10 O7 1_555 1_555
C11 C12 1_555 1_555
C12 C13 1_555 1_555
C13 C14 1_555 1_555
C14 C15 1_555 1_555
C15 H39 1_555 1_555
C16 C11 1_555 1_555
H40 C16 1_555 1_555
C17 C11 1_555 1_555
C18 O12 1_555 1_555
C19 O13 1_555 1_555
C20 O15 1_555 1_555
C21 H41 1_555 1_555
C22 C21 1_555 1_555
H42 C22 1_555 1_555
C23 C22 1_555 1_555
C24 C23 1_555 1_555
H43 C24 1_555 1_555
C25 N1 1_555 1_555
H44 C25 1_555 1_555
C26 C23 1_555 1_555
C27 C26 1_555 1_555
H45 C27 1_555 1_555
C28 C27 1_555 1_555
H46 C28 1_555 1_555
C29 N2 1_555 1_555
H47 C29 1_555 1_555
C30 C26 1_555 1_555
H48 C30 1_555 1_555
C31 H49 1_555 1_555
C32 C31 1_555 1_555
H50 C32 1_555 1_555
C33 C32 1_555 1_555
C34 C33 1_555 1_555
H51 C34 1_555 1_555
C35 N3 1_555 1_555
H52 C35 1_555 1_555
C36 C33 1_555 1_555
C37 C36 1_555 1_555
H53 C37 1_555 1_555
C38 C37 1_555 1_555
H54 C38 1_555 1_555
C39 N4 1_555 1_555
H55 C39 1_555 1_555
C40 C36 1_555 1_555
H56 C40 1_555 1_555
C41 H57 1_555 1_555
C42 C41 1_555 1_555
H58 C42 1_555 1_555
C43 C42 1_555 1_555
C44 C43 1_555 1_555
H59 C44 1_555 1_555
C45 N5 1_555 1_555
H60 C45 1_555 1_555
C46 C43 1_555 1_555
C47 C46 1_555 1_555
H61 C47 1_555 1_555
C48 C47 1_555 1_555
H62 C48 1_555 1_555
C49 N6 1_555 1_555
H63 C49 1_555 1_555
C50 C46 1_555 1_555
H64 C50 1_555 1_555
C51 H65 1_555 1_555
C52 C51 1_555 1_555
H66 C52 1_555 1_555
C53 C52 1_555 1_555
C54 C53 1_555 1_555
H67 C54 1_555 1_555
C55 N7 1_555 1_555
H68 C55 1_555 1_555
C56 C53 1_555 1_555
C57 C56 1_555 1_555
H69 C57 1_555 1_555
C58 C57 1_555 1_555
H70 C58 1_555 1_555
C59 N8 1_555 1_555
H71 C59 1_555 1_555
C60 C56 1_555 1_555
H72 C60 1_555 1_555
C61 H73 1_555 1_555
C62 C61 1_555 1_555
H74 C62 1_555 1_555
C63 C62 1_555 1_555
C64 C63 1_555 1_555
H75 C64 1_555 1_555
C65 N9 1_555 1_555
H76 C65 1_555 1_555
C66 C63 1_555 1_555
C67 C66 1_555 1_555
H77 C67 1_555 1_555
C68 C67 1_555 1_555
H78 C68 1_555 1_555
C69 N10 1_555 1_555
H79 C69 1_555 1_555
C70 C66 1_555 1_555
H80 C70 1_555 1_555
C71 H81 1_555 1_555
C72 C71 1_555 1_555
H82 C72 1_555 1_555
C73 C72 1_555 1_555
C74 C73 1_555 1_555
H83 C74 1_555 1_555
C75 N11 1_555 1_555
H84 C75 1_555 1_555
C76 C73 1_555 1_555
C77 C76 1_555 1_555
H85 C77 1_555 1_555
C78 C77 1_555 1_555
H86 C78 1_555 1_555
C79 N12 1_555 1_555
H87 C79 1_555 1_555
C80 C76 1_555 1_555
H88 C80 1_555 1_555
C81 H89 1_555 1_555
C82 C81 1_555 1_555
H90 C82 1_555 1_555
C83 C82 1_555 1_555
C84 C83 1_555 1_555
H91 C84 1_555 1_555
C85 N13 1_555 1_555
H92 C85 1_555 1_555
C86 C83 1_555 1_555
C87 C86 1_555 1_555
H93 C87 1_555 1_555
C88 C87 1_555 1_555
H94 C88 1_555 1_555
C89 N14 1_555 1_555
H95 C89 1_555 1_555
C90 C86 1_555 1_555
H96 C90 1_555 1_555
Ag1C N2 1_555 1_555
Ag2C N6 1_555 1_555
Ag3C N4 1_555 1_555
Ag5C N8 1_555 1_555
Ag6C N10 1_555 1_555
Ag7C N12 1_555 1_555
Ag8C N14 1_555 1_555
N2C Ag1 1_555 1_555
N4C Ag3 1_555 1_555
N6C Ag2 1_555 1_555
N8C Ag5 1_555 1_555
N10C Ag6 1_555 1_555
N12C Ag7 1_555 1_555
N14C Ag8 1_555 1_555
C3 C9 1_555 1_555
C4 C10 1_555 1_555
C5 C6 1_555 1_555
C12 C18 1_555 1_555
C13 C19 1_555 1_555
C14 C20 1_555 1_555
C15 C16 1_555 1_555
C24 C25 1_555 1_555
C29 C30 1_555 1_555
C34 C35 1_555 1_555
C39 C40 1_555 1_555
C44 C45 1_555 1_555
C49 C50 1_555 1_555
C54 C55 1_555 1_555
C59 C60 1_555 1_555
C64 C65 1_555 1_555
C69 C70 1_555 1_555
C74 C75 1_555 1_555
C79 C80 1_555 1_555
C84 C85 1_555 1_555
C89 C90 1_555 1_555

#END
