
#######################################################################
#
#                 Cambridge Crystallographic Data Centre
#                                CCDC 
#
#######################################################################
#
# If this CIF has been generated from an entry in the Cambridge 
# Structural Database, then it will include bibliographic, chemical, 
# crystal, experimental, refinement or atomic coordinate data resulting 
# from the CCDC's data processing and validation procedures.
#
#######################################################################

data_DACLAW
_symmetry_cell_setting           triclinic
_symmetry_space_group_name_H-M   'P -1'
_symmetry_Int_Tables_number      2
_space_group_name_Hall           '-P 1'
loop_
_symmetry_equiv_pos_site_id
_symmetry_equiv_pos_as_xyz
1 x,y,z
2 -x,-y,-z
_cell_length_a                   6.5160(4)
_cell_length_b                   10.1804(7)
_cell_length_c                   12.0390(8)
_cell_angle_alpha                102.9130(10)
_cell_angle_beta                 105.2700(10)
_cell_angle_gamma                93.2140(10)
_cell_volume                     745.305
loop_
_atom_site_label
_atom_site_type_symbol
_atom_site_fract_x
_atom_site_fract_y
_atom_site_fract_z
Co1 Co 0.31821(6) 1.07437(4) 1.03611(3)
Co2 Co 0.57662(6) 0.95094(4) 1.24090(3)
O1 O 0.6582(3) 1.1318(2) 1.37196(19)
O2 O 0.5591(3) 1.1820(2) 1.19825(18)
O3 O 0.5964(13) 1.6659(5) 1.1820(3)
O4 O 0.6292(4) 1.8235(3) 1.3480(3)
O5 O 0.9043(5) 1.7040(3) 1.7258(2)
O6 O 0.8888(5) 1.4951(3) 1.7341(2)
O7 O 0.4717(3) 0.90528(18) 1.06084(16)
H1 H 0.3873 0.8318 1.0300
O8 O 0.2202(6) 1.2634(3) 1.0246(3)
H2 H 0.2163 1.2770 0.9477
H3 H 0.0798 1.2667 1.0356
N1 N 0.2403(4) 0.9719(2) 1.2358(2)
N2 N 0.1314(4) 1.0079(2) 1.1374(2)
N3 N -0.0720(4) 0.9998(2) 1.12951(19)
N4 N -0.1036(4) 0.9613(2) 1.2244(2)
N5 N 0.1278(5) 0.9058(4) 1.3910(2)
H4 H 0.0230 0.8895 1.4188
H5 H 0.2563 0.8971 1.4285
N6 N 0.8629(4) 1.5826(3) 1.6789(2)
C1 C 0.0907(4) 0.9453(3) 1.2881(2)
C2 C 0.6673(4) 1.3642(3) 1.3711(3)
C3 C 0.6295(5) 1.4618(3) 1.3070(3)
H6 H 0.5795 1.4351 1.2245
C4 C 0.6652(5) 1.5992(3) 1.3639(3)
C5 C 0.7412(5) 1.6394(3) 1.4866(3)
H7 H 0.7654 1.7309 1.5261
C6 C 0.7800(4) 1.5407(3) 1.5489(3)
C7 C 0.7441(4) 1.4037(3) 1.4948(3)
H8 H 0.7703 1.3396 1.5394
C8 C 0.6246(4) 1.2163(3) 1.3098(3)
C9 C 0.6197(6) 1.7026(4) 1.2906(3)
Co1A Co 0.68179(6) 0.92563(4) 0.96389(3)
Co1A_2 Co -0.31821(6) 0.92563(4) 0.96389(3)
Co2_2 Co 0.57662(6) 1.95094(4) 1.24090(3)
Co2_3 Co -0.42338(6) 0.95094(4) 1.24090(3)
O4_2 O 0.6292(4) 0.8235(3) 1.3480(3)
O7A O 0.5283(3) 1.09472(18) 0.93916(16)
H1A H 0.6127 1.1682 0.9700
N3A N 0.0720(4) 1.0002(2) 0.87049(19)
N4_2 N 0.8964(4) 0.9613(2) 1.2244(2)
O9 O 0.1718(7) 0.6645(5) -0.0202(4)
H9 H 0.2115 0.5954 -0.0597
H10 H 0.1397 0.6565 0.0422
O10 O 0.3656(17) 0.4655(8) 0.9899(8)
O11? O 0.5157(18) 0.3202(15) 0.8077(7)
loop_
_geom_bond_atom_site_label_1
_geom_bond_atom_site_label_2
_geom_bond_site_symmetry_1
_geom_bond_site_symmetry_2
Co1 O2 1_555 1_555
Co2 O1 1_555 1_555
O1 C8 1_555 1_555
O2 C8 1_555 1_555
O3 C9 1_555 1_555
O4 C9 1_555 1_555
O5 N6 1_555 1_555
O6 N6 1_555 1_555
O7 Co1 1_555 1_555
H1 O7 1_555 1_555
O8 Co1 1_555 1_555
H2 O8 1_555 1_555
H3 O8 1_555 1_555
N1 Co2 1_555 1_555
N2 Co1 1_555 1_555
N3 N2 1_555 1_555
N4 N3 1_555 1_555
N5 H4 1_555 1_555
H5 N5 1_555 1_555
N6 C6 1_555 1_555
C1 N1 1_555 1_555
C2 C3 1_555 1_555
C3 H6 1_555 1_555
C4 C3 1_555 1_555
C5 C4 1_555 1_555
H7 C5 1_555 1_555
C6 C5 1_555 1_555
C7 C2 1_555 1_555
H8 C7 1_555 1_555
C8 C2 1_555 1_555
C9 C4 1_555 1_555
O9 H9 1_555 1_555
H10 O9 1_555 1_555
Co1A O7 1_555 1_555
Co1A_2 N3 1_555 1_555
Co2_2 O4 1_555 1_555
Co2_3 N4 1_555 1_555
O4_2 Co2 1_555 1_555
O7A Co1 1_555 1_555
H1A O7A 1_555 1_555
N3A Co1 1_555 1_555
N4_2 Co2 1_555 1_555
Co2 O7 1_555 1_555
N1 N2 1_555 1_555
N4 C1 1_555 1_555
N5 C1 1_555 1_555
C6 C7 1_555 1_555
Co1A O7A 1_555 1_555

#END
