
#######################################################################
#
#                 Cambridge Crystallographic Data Centre
#                                CCDC 
#
#######################################################################
#
# If this CIF has been generated from an entry in the Cambridge 
# Structural Database, then it will include bibliographic, chemical, 
# crystal, experimental, refinement or atomic coordinate data resulting 
# from the CCDC's data processing and validation procedures.
#
#######################################################################

data_DACMOK
_symmetry_cell_setting           triclinic
_symmetry_space_group_name_H-M   'P -1'
_symmetry_Int_Tables_number      2
_space_group_name_Hall           '-P 1'
loop_
_symmetry_equiv_pos_site_id
_symmetry_equiv_pos_as_xyz
1 x,y,z
2 -x,-y,-z
_cell_length_a                   8.9191(7)
_cell_length_b                   7.1394(6)
_cell_length_c                   6.9062(6)
_cell_angle_alpha                99.4770(10)
_cell_angle_beta                 108.8490(10)
_cell_angle_gamma                82.4050(10)
_cell_volume                     409.031
loop_
_atom_site_label
_atom_site_type_symbol
_atom_site_fract_x
_atom_site_fract_y
_atom_site_fract_z
Ba1 Ba 0.351620(16) -0.266220(19) -0.09302(2)
Co1 Co 0.0000 0.0000 0.0000
C1 C 0.1638(3) -0.2041(4) 0.3530(4)
H1 H 0.086(3) -0.126(4) 0.407(5)
O1 O 0.1635(2) -0.1935(3) 0.1711(3)
O2 O 0.2576(3) -0.3077(3) 0.4729(3)
C2 C 0.1996(3) 0.2726(4) -0.0535(5)
H2 H 0.105(3) 0.348(4) -0.041(5)
O3 O 0.3116(3) 0.3474(3) -0.0682(3)
O4 O 0.1858(2) 0.0967(3) -0.0729(3)
C3 C 0.1251(4) 0.2684(4) 0.3975(4)
H3 H 0.107(4) 0.373(4) 0.497(4)
O5 O 0.0051(3) 0.2174(3) 0.2516(3)
O6 O 0.2656(3) 0.2018(3) 0.4265(3)
O7 O 0.5034(3) -0.0172(3) -0.2402(3)
H4 H 0.435(3) 0.029(5) -0.343(4)
H5 H 0.580(3) -0.066(5) -0.285(5)
O8 O 0.5023(3) -0.5786(3) -0.2910(3)
H6 H 0.423(3) -0.634(5) -0.379(5)
H7 H 0.574(3) -0.588(5) -0.351(5)
C1A C -0.1638(3) 0.2041(4) -0.3530(4)
H1A H -0.086(3) 0.126(4) -0.407(5)
O1A O -0.1635(2) 0.1935(3) -0.1711(3)
O2A O -0.2576(3) 0.3077(3) -0.4729(3)
C2A C -0.1996(3) -0.2726(4) 0.0535(5)
H2A H -0.105(3) -0.348(4) 0.041(5)
O3A O -0.3116(3) -0.3474(3) 0.0682(3)
O4A O -0.1858(2) -0.0967(3) 0.0729(3)
C3A C -0.1251(4) -0.2684(4) -0.3975(4)
H3A H -0.107(4) -0.373(4) -0.497(4)
O5A O -0.0051(3) -0.2174(3) -0.2516(3)
O6A O -0.2656(3) -0.2018(3) -0.4265(3)
Ba1A Ba -0.351620(16) 0.266220(19) 0.09302(2)
O7A O 0.4966(3) 0.0172(3) 0.2402(3)
H4A H 0.565(3) -0.029(5) 0.343(4)
H5A H 0.420(3) 0.066(5) 0.285(5)
O8A O 0.4977(3) -0.4214(3) 0.2910(3)
H6A H 0.577(3) -0.366(5) 0.379(5)
H7A H 0.426(3) -0.412(5) 0.351(5)
O2_2 O 0.2576(3) -0.3077(3) -0.5271(3)
O3_2 O 0.3116(3) -0.6526(3) -0.0682(3)
O3A_2 O 0.6884(3) -0.3474(3) 0.0682(3)
Ba1_2 Ba 0.351620(16) -0.266220(19) 0.90698(2)
Ba1_3 Ba 0.351620(16) 0.733780(19) -0.09302(2)
Ba1A_2 Ba 0.648380(16) 0.266220(19) 0.09302(2)
Ba1A_3 Ba 0.648380(16) -0.733780(19) 0.09302(2)
Ba1A_4 Ba -0.351620(16) 0.266220(19) -0.90698(2)
Ba1_4 Ba -0.648380(16) -0.266220(19) -0.09302(2)
Ba1A_5 Ba -0.351620(16) -0.733780(19) 0.09302(2)
O2A_2 O -0.2576(3) 0.3077(3) 0.5271(3)
O3_3 O -0.6884(3) 0.3474(3) -0.0682(3)
O3A_3 O -0.3116(3) 0.6526(3) 0.0682(3)
O7_2 O -0.4966(3) -0.0172(3) -0.2402(3)
O7A_2 O -0.5034(3) 0.0172(3) 0.2402(3)
O8_2 O -0.4977(3) 0.4214(3) -0.2910(3)
O8A_2 O -0.5023(3) 0.5786(3) 0.2910(3)
H4_2 H -0.565(3) 0.029(5) -0.343(4)
H5_2 H -0.420(3) -0.066(5) -0.285(5)
H4A_2 H -0.435(3) -0.029(5) 0.343(4)
H5A_2 H -0.580(3) 0.066(5) 0.285(5)
H6_2 H -0.577(3) 0.366(5) -0.379(5)
H7_2 H -0.426(3) 0.412(5) -0.351(5)
H6A_2 H -0.423(3) 0.634(5) 0.379(5)
H7A_2 H -0.574(3) 0.588(5) 0.351(5)
loop_
_geom_bond_atom_site_label_1
_geom_bond_atom_site_label_2
_geom_bond_site_symmetry_1
_geom_bond_site_symmetry_2
Ba1 O1 1_555 1_555
Co1 O1 1_555 1_555
C1 H1 1_555 1_555
O1 C1 1_555 1_555
O2 C1 1_555 1_555
C2 H2 1_555 1_555
O3 C2 1_555 1_555
O4 Ba1 1_555 1_555
C3 H3 1_555 1_555
O5 Co1 1_555 1_555
O6 C3 1_555 1_555
O7 Ba1 1_555 1_555
H4 O7 1_555 1_555
H5 O7 1_555 1_555
O8 Ba1 1_555 1_555
H6 O8 1_555 1_555
H7 O8 1_555 1_555
C1A H1A 1_555 1_555
O1A Co1 1_555 1_555
O2A C1A 1_555 1_555
C2A H2A 1_555 1_555
O3A C2A 1_555 1_555
O4A Co1 1_555 1_555
C3A H3A 1_555 1_555
O5A Ba1 1_555 1_555
O6A C3A 1_555 1_555
Ba1A O5 1_555 1_555
O7A Ba1 1_555 1_555
H4A O7A 1_555 1_555
H5A O7A 1_555 1_555
O8A Ba1 1_555 1_555
H6A O8A 1_555 1_555
H7A O8A 1_555 1_555
O2_2 Ba1 1_555 1_555
O3_2 Ba1 1_555 1_555
O3A_2 Ba1 1_555 1_555
Ba1_2 O2 1_555 1_555
Ba1_3 O3 1_555 1_555
Ba1A_2 O3 1_555 1_555
Ba1A_3 O8 1_555 1_555
Ba1A_4 O2A 1_555 1_555
Ba1_4 O3A 1_555 1_555
Ba1A_5 O3A 1_555 1_555
O2A_2 Ba1A 1_555 1_555
O3_3 Ba1A 1_555 1_555
O3A_3 Ba1A 1_555 1_555
O7_2 Ba1A 1_555 1_555
O7A_2 Ba1A 1_555 1_555
O8_2 Ba1A 1_555 1_555
O8A_2 Ba1A 1_555 1_555
H4_2 O7_2 1_555 1_555
H5_2 O7_2 1_555 1_555
H4A_2 O7A_2 1_555 1_555
H5A_2 O7A_2 1_555 1_555
H6_2 O8_2 1_555 1_555
H7_2 O8_2 1_555 1_555
H6A_2 O8A_2 1_555 1_555
H7A_2 O8A_2 1_555 1_555
Co1 O4 1_555 1_555
Co1 O5A 1_555 1_555
C2 O4 1_555 1_555
C3 O5 1_555 1_555
O7 Ba1A_2 1_555 1_555
C1A O1A 1_555 1_555
O1A Ba1A 1_555 1_555
C2A O4A 1_555 1_555
O4A Ba1A 1_555 1_555
C3A O5A 1_555 1_555
O7A Ba1A_2 1_555 1_555
O8A Ba1A_3 1_555 1_555
O3_2 Ba1A_3 1_555 1_555
O3A_2 Ba1A_3 1_555 1_555
Ba1_4 O7_2 1_555 1_555
Ba1_4 O7A_2 1_555 1_555

#END
