
#######################################################################
#
#                 Cambridge Crystallographic Data Centre
#                                CCDC 
#
#######################################################################
#
# If this CIF has been generated from an entry in the Cambridge 
# Structural Database, then it will include bibliographic, chemical, 
# crystal, experimental, refinement or atomic coordinate data resulting 
# from the CCDC's data processing and validation procedures.
#
#######################################################################

data_DACNEB
_symmetry_cell_setting           triclinic
_symmetry_space_group_name_H-M   'P -1'
_symmetry_Int_Tables_number      2
_space_group_name_Hall           '-P 1'
loop_
_symmetry_equiv_pos_site_id
_symmetry_equiv_pos_as_xyz
1 x,y,z
2 -x,-y,-z
_cell_length_a                   8.8809(7)
_cell_length_b                   7.1281(5)
_cell_length_c                   6.8970(5)
_cell_angle_alpha                99.3400(10)
_cell_angle_beta                 108.8650(10)
_cell_angle_gamma                82.4450(10)
_cell_volume                     406.215
loop_
_atom_site_label
_atom_site_type_symbol
_atom_site_fract_x
_atom_site_fract_y
_atom_site_fract_z
Ba1 Ba 0.352590(17) -0.26644(2) -0.09306(2)
Zn1 Zn 0.0000 0.0000 0.0000
C1 C 0.1643(4) -0.2034(5) 0.3521(5)
H1 H 0.084(4) -0.130(5) 0.407(5)
O1 O 0.1644(2) -0.1927(3) 0.1714(3)
O2 O 0.2580(3) -0.3063(4) 0.4729(3)
C2 C 0.1997(4) 0.2730(4) -0.0541(5)
H2 H 0.108(3) 0.351(5) -0.041(6)
O3 O 0.3119(3) 0.3479(3) -0.0678(4)
O4 O 0.1863(2) 0.0965(3) -0.0734(3)
C3 C 0.1262(4) 0.2684(5) 0.3974(5)
H3 H 0.108(5) 0.374(4) 0.495(5)
O5 O 0.0050(3) 0.2177(3) 0.2517(3)
O6 O 0.2656(3) 0.2020(4) 0.4260(3)
O7 O 0.5037(3) -0.0173(3) -0.2401(3)
H4 H 0.443(4) 0.048(5) -0.333(5)
H5 H 0.578(3) -0.074(5) -0.284(5)
O8 O 0.5022(3) -0.5787(3) -0.2912(3)
H6 H 0.425(3) -0.641(5) -0.372(5)
H7 H 0.576(3) -0.588(5) -0.343(5)
C1A C -0.1643(4) 0.2034(5) -0.3521(5)
H1A H -0.084(4) 0.130(5) -0.407(5)
O1A O -0.1644(2) 0.1927(3) -0.1714(3)
O2A O -0.2580(3) 0.3063(4) -0.4729(3)
C2A C -0.1997(4) -0.2730(4) 0.0541(5)
H2A H -0.108(3) -0.351(5) 0.041(6)
O3A O -0.3119(3) -0.3479(3) 0.0678(4)
O4A O -0.1863(2) -0.0965(3) 0.0734(3)
C3A C -0.1262(4) -0.2684(5) -0.3974(5)
H3A H -0.108(5) -0.374(4) -0.495(5)
O5A O -0.0050(3) -0.2177(3) -0.2517(3)
O6A O -0.2656(3) -0.2020(4) -0.4260(3)
Ba1A Ba -0.352590(17) 0.26644(2) 0.09306(2)
O7A O 0.4963(3) 0.0173(3) 0.2401(3)
H4A H 0.557(4) -0.048(5) 0.333(5)
H5A H 0.422(3) 0.074(5) 0.284(5)
O8A O 0.4978(3) -0.4213(3) 0.2912(3)
H6A H 0.575(3) -0.359(5) 0.372(5)
H7A H 0.424(3) -0.412(5) 0.343(5)
O2_2 O 0.2580(3) -0.3063(4) -0.5271(3)
O3_2 O 0.3119(3) -0.6521(3) -0.0678(4)
O3A_2 O 0.6881(3) -0.3479(3) 0.0678(4)
Ba1_2 Ba 0.352590(17) -0.26644(2) 0.90694(2)
Ba1_3 Ba 0.352590(17) 0.73356(2) -0.09306(2)
Ba1A_2 Ba 0.647410(17) 0.26644(2) 0.09306(2)
Ba1A_3 Ba 0.647410(17) -0.73356(2) 0.09306(2)
Ba1A_4 Ba -0.352590(17) 0.26644(2) -0.90694(2)
Ba1_4 Ba -0.647410(17) -0.26644(2) -0.09306(2)
Ba1A_5 Ba -0.352590(17) -0.73356(2) 0.09306(2)
O2A_2 O -0.2580(3) 0.3063(4) 0.5271(3)
O3_3 O -0.6881(3) 0.3479(3) -0.0678(4)
O3A_3 O -0.3119(3) 0.6521(3) 0.0678(4)
O7_2 O -0.4963(3) -0.0173(3) -0.2401(3)
O7A_2 O -0.5037(3) 0.0173(3) 0.2401(3)
O8_2 O -0.4978(3) 0.4213(3) -0.2912(3)
O8A_2 O -0.5022(3) 0.5787(3) 0.2912(3)
H4_2 H -0.557(4) 0.048(5) -0.333(5)
H5_2 H -0.422(3) -0.074(5) -0.284(5)
H4A_2 H -0.443(4) -0.048(5) 0.333(5)
H5A_2 H -0.578(3) 0.074(5) 0.284(5)
H6_2 H -0.575(3) 0.359(5) -0.372(5)
H7_2 H -0.424(3) 0.412(5) -0.343(5)
H6A_2 H -0.425(3) 0.641(5) 0.372(5)
H7A_2 H -0.576(3) 0.588(5) 0.343(5)
loop_
_geom_bond_atom_site_label_1
_geom_bond_atom_site_label_2
_geom_bond_site_symmetry_1
_geom_bond_site_symmetry_2
Ba1 O1 1_555 1_555
Zn1 O1 1_555 1_555
C1 H1 1_555 1_555
O1 C1 1_555 1_555
O2 C1 1_555 1_555
C2 H2 1_555 1_555
O3 C2 1_555 1_555
O4 Ba1 1_555 1_555
C3 H3 1_555 1_555
O5 Zn1 1_555 1_555
O6 C3 1_555 1_555
O7 Ba1 1_555 1_555
H4 O7 1_555 1_555
H5 O7 1_555 1_555
O8 Ba1 1_555 1_555
H6 O8 1_555 1_555
H7 O8 1_555 1_555
C1A H1A 1_555 1_555
O1A Zn1 1_555 1_555
O2A C1A 1_555 1_555
C2A H2A 1_555 1_555
O3A C2A 1_555 1_555
O4A Zn1 1_555 1_555
C3A H3A 1_555 1_555
O5A Ba1 1_555 1_555
O6A C3A 1_555 1_555
Ba1A O5 1_555 1_555
O7A Ba1 1_555 1_555
H4A O7A 1_555 1_555
H5A O7A 1_555 1_555
O8A Ba1 1_555 1_555
H6A O8A 1_555 1_555
H7A O8A 1_555 1_555
O2_2 Ba1 1_555 1_555
O3_2 Ba1 1_555 1_555
O3A_2 Ba1 1_555 1_555
Ba1_2 O2 1_555 1_555
Ba1_3 O3 1_555 1_555
Ba1A_2 O3 1_555 1_555
Ba1A_3 O8 1_555 1_555
Ba1A_4 O2A 1_555 1_555
Ba1_4 O3A 1_555 1_555
Ba1A_5 O3A 1_555 1_555
O2A_2 Ba1A 1_555 1_555
O3_3 Ba1A 1_555 1_555
O3A_3 Ba1A 1_555 1_555
O7_2 Ba1A 1_555 1_555
O7A_2 Ba1A 1_555 1_555
O8_2 Ba1A 1_555 1_555
O8A_2 Ba1A 1_555 1_555
H4_2 O7_2 1_555 1_555
H5_2 O7_2 1_555 1_555
H4A_2 O7A_2 1_555 1_555
H5A_2 O7A_2 1_555 1_555
H6_2 O8_2 1_555 1_555
H7_2 O8_2 1_555 1_555
H6A_2 O8A_2 1_555 1_555
H7A_2 O8A_2 1_555 1_555
Zn1 O5A 1_555 1_555
Zn1 O4 1_555 1_555
C2 O4 1_555 1_555
C3 O5 1_555 1_555
O7 Ba1A_2 1_555 1_555
C1A O1A 1_555 1_555
O1A Ba1A 1_555 1_555
C2A O4A 1_555 1_555
O4A Ba1A 1_555 1_555
C3A O5A 1_555 1_555
O7A Ba1A_2 1_555 1_555
O8A Ba1A_3 1_555 1_555
O3_2 Ba1A_3 1_555 1_555
O3A_2 Ba1A_3 1_555 1_555
Ba1_4 O7_2 1_555 1_555
Ba1_4 O7A_2 1_555 1_555

#END
