
#######################################################################
#
#                 Cambridge Crystallographic Data Centre
#                                CCDC 
#
#######################################################################
#
# If this CIF has been generated from an entry in the Cambridge 
# Structural Database, then it will include bibliographic, chemical, 
# crystal, experimental, refinement or atomic coordinate data resulting 
# from the CCDC's data processing and validation procedures.
#
#######################################################################

data_DACVOT
_symmetry_cell_setting           monoclinic
_symmetry_space_group_name_H-M   'C 2/c'
_symmetry_Int_Tables_number      15
_space_group_name_Hall           '-C 2yn'
loop_
_symmetry_equiv_pos_site_id
_symmetry_equiv_pos_as_xyz
1 x,y,z
2 1/2+x,1/2+y,z
3 x,-y,1/2+z
4 1/2+x,1/2-y,1/2+z
5 -x,-y,-z
6 1/2-x,1/2-y,-z
7 -x,y,1/2-z
8 1/2-x,1/2+y,1/2-z
_cell_length_a                   17.1917(3)
_cell_length_b                   5.66040(10)
_cell_length_c                   18.5651(3)
_cell_angle_alpha                90
_cell_angle_beta                 92.4280(10)
_cell_angle_gamma                90
_cell_volume                     1804.98
loop_
_atom_site_label
_atom_site_type_symbol
_atom_site_fract_x
_atom_site_fract_y
_atom_site_fract_z
Cd1 Cd -0.5000 0.5000 0.5000
S1 S -0.38809(3) 0.73051(9) 0.57942(3)
N1 N -0.42430(9) 1.1696(3) 0.51705(9)
N2 N -0.43597(10) 0.6084(3) 0.39313(9)
N3 N -0.42104(10) -0.2321(4) 0.20777(9)
C1 C -0.40952(11) 0.9894(3) 0.54320(11)
C2 C -0.38516(11) 0.4323(4) 0.36711(10)
C3 C -0.41405(11) 0.2612(4) 0.32003(10)
H1 H -0.4661 0.2639 0.3044
C4 C -0.36497(11) 0.0853(4) 0.29622(10)
C5 C -0.28730(13) 0.0746(4) 0.32042(12)
H2 H -0.2547 -0.0441 0.3046
C6 C -0.25978(12) 0.2440(4) 0.36838(13)
H3 H -0.2082 0.2384 0.3855
C7 C -0.30779(12) 0.4220(4) 0.39145(12)
H4 H -0.2881 0.5357 0.4235
C8 C -0.39574(11) -0.0921(4) 0.24604(11)
H5 H -0.4108(12) 0.739(4) 0.4065(11)
H6 H -0.4739(12) 0.645(4) 0.3626(11)
N1_2 N -0.42430(9) 0.1696(3) 0.51705(9)
Cd1_2 Cd -0.5000 1.5000 0.5000
N1D N -0.57570(9) 0.8304(3) 0.48295(9)
S1D S -0.61191(3) 0.26949(9) 0.42058(3)
N2D N -0.56403(10) 0.3916(3) 0.60687(9)
C2D C -0.61484(11) 0.5677(4) 0.63289(10)
C3D C -0.58595(11) 0.7388(4) 0.67997(10)
H1D H -0.5339 0.7361 0.6956
C4D C -0.63503(11) 0.9147(4) 0.70378(10)
C5D C -0.71270(13) 0.9254(4) 0.67958(12)
H2D H -0.7453 1.0441 0.6954
C6D C -0.74022(12) 0.7560(4) 0.63162(13)
H3D H -0.7918 0.7616 0.6145
C7D C -0.69221(12) 0.5780(4) 0.60855(12)
H4D H -0.7119 0.4643 0.5765
C8D C -0.60426(11) 1.0921(4) 0.75396(11)
N3D N -0.57896(10) 1.2321(4) 0.79223(9)
H5D H -0.5892(12) 0.261(4) 0.5935(11)
H6D H -0.5261(12) 0.355(4) 0.6374(11)
C1D C -0.59048(11) 0.0106(3) 0.45680(11)
N1D_2 N -0.57570(9) -0.1696(3) 0.48295(9)
Cd1_3 Cd -0.5000 -0.5000 0.5000
loop_
_geom_bond_atom_site_label_1
_geom_bond_atom_site_label_2
_geom_bond_site_symmetry_1
_geom_bond_site_symmetry_2
Cd1 S1 1_555 1_555
S1 C1 1_555 1_555
N1 C1 1_555 1_555
N2 Cd1 1_555 1_555
N3 C8 1_555 1_555
C2 N2 1_555 1_555
C3 C2 1_555 1_555
H1 C3 1_555 1_555
C4 C3 1_555 1_555
C5 C4 1_555 1_555
H2 C5 1_555 1_555
C6 C5 1_555 1_555
H3 C6 1_555 1_555
C7 C2 1_555 1_555
H4 C7 1_555 1_555
C8 C4 1_555 1_555
H5 N2 1_555 1_555
H6 N2 1_555 1_555
N1_2 Cd1 1_555 1_555
Cd1_2 N1 1_555 1_555
N1D Cd1 1_555 1_555
S1D Cd1 1_555 1_555
N2D Cd1 1_555 1_555
C2D N2D 1_555 1_555
C3D C2D 1_555 1_555
H1D C3D 1_555 1_555
C4D C3D 1_555 1_555
C5D C4D 1_555 1_555
H2D C5D 1_555 1_555
C6D C5D 1_555 1_555
H3D C6D 1_555 1_555
C7D C2D 1_555 1_555
H4D C7D 1_555 1_555
C8D C4D 1_555 1_555
N3D C8D 1_555 1_555
H5D N2D 1_555 1_555
H6D N2D 1_555 1_555
C1D S1D 1_555 1_555
N1D_2 C1D 1_555 1_555
Cd1_3 N1D_2 1_555 1_555
C6 C7 1_555 1_555
C6D C7D 1_555 1_555

#END
