
#######################################################################
#
#                 Cambridge Crystallographic Data Centre
#                                CCDC 
#
#######################################################################
#
# If this CIF has been generated from an entry in the Cambridge 
# Structural Database, then it will include bibliographic, chemical, 
# crystal, experimental, refinement or atomic coordinate data resulting 
# from the CCDC's data processing and validation procedures.
#
#######################################################################

data_DACWAG
_symmetry_cell_setting           monoclinic
_symmetry_space_group_name_H-M   'P 21/n'
_symmetry_Int_Tables_number      14
_space_group_name_Hall           '-P 2yn'
loop_
_symmetry_equiv_pos_site_id
_symmetry_equiv_pos_as_xyz
1 x,y,z
2 1/2+x,1/2-y,1/2+z
3 -x,-y,-z
4 1/2-x,1/2+y,1/2-z
_cell_length_a                   7.5212(4)
_cell_length_b                   5.7460(3)
_cell_length_c                   20.6145(12)
_cell_angle_alpha                90
_cell_angle_beta                 93.284(3)
_cell_angle_gamma                90
_cell_volume                     889.43
loop_
_atom_site_label
_atom_site_type_symbol
_atom_site_fract_x
_atom_site_fract_y
_atom_site_fract_z
Cd1 Cd 0.0000 0.0000 0.0000
S1 S -0.29406(14) 0.25148(16) 0.02628(5)
N1 N -0.1786(5) 0.6819(5) -0.01965(17)
N2 N -0.0318(6) -0.8007(8) 0.37202(19)
N3 N 0.0314(5) -0.1356(6) 0.10712(14)
C1 C -0.2248(5) 0.5045(6) -0.00075(16)
C2 C -0.0126(5) -0.6678(7) 0.31817(17)
C3 C 0.0704(5) -0.4490(6) 0.32334(17)
H1 H 0.1130 -0.3947 0.3638
C4 C 0.0890(5) -0.3147(6) 0.26901(16)
H2 H 0.1450 -0.1707 0.2727
C5 C 0.0236(5) -0.3948(6) 0.20813(15)
C6 C -0.0567(5) -0.6130(6) 0.20259(17)
H3 H -0.0975 -0.6681 0.1620
C7 C -0.0758(5) -0.7472(6) 0.25696(18)
H4 H -0.1310 -0.8917 0.2530
C8 C 0.0317(5) -0.2503(7) 0.15204(16)
H5 H -0.092(7) -0.942(7) 0.369(3)
H6 H 0.019(6) -0.743(8) 0.4106(17)
N1B N 0.1786(5) 0.3181(5) 0.01965(17)
Cd1B Cd 0.0000 1.0000 0.0000
S1B S 0.29406(14) -0.25148(16) -0.02628(5)
N1_2 N -0.1786(5) -0.3181(5) -0.01965(17)
N3B N -0.0314(5) 0.1356(6) -0.10712(14)
C8B C -0.0317(5) 0.2503(7) -0.15204(16)
C5B C -0.0236(5) 0.3948(6) -0.20813(15)
C4B C -0.0890(5) 0.3147(6) -0.26901(16)
C3B C -0.0704(5) 0.4490(6) -0.32334(17)
C2B C 0.0126(5) 0.6678(7) -0.31817(17)
N2B N 0.0318(6) 0.8007(8) -0.37202(19)
H5B H 0.092(7) 0.942(7) -0.369(3)
H6B H -0.019(6) 0.743(8) -0.4106(17)
C7B C 0.0758(5) 0.7472(6) -0.25696(18)
C6B C 0.0567(5) 0.6130(6) -0.20259(17)
H3B H 0.0975 0.6681 -0.1620
H4B H 0.1310 0.8917 -0.2530
H1B H -0.1130 0.3947 -0.3638
H2B H -0.1450 0.1707 -0.2727
C1B C 0.2248(5) -0.5045(6) 0.00075(16)
N1B_2 N 0.1786(5) -0.6819(5) 0.01965(17)
Cd1_2 Cd 0.0000 -1.0000 0.0000
loop_
_geom_bond_atom_site_label_1
_geom_bond_atom_site_label_2
_geom_bond_site_symmetry_1
_geom_bond_site_symmetry_2
Cd1 S1 1_555 1_555
S1 C1 1_555 1_555
N1 C1 1_555 1_555
N2 C2 1_555 1_555
N3 Cd1 1_555 1_555
C2 C3 1_555 1_555
C3 H1 1_555 1_555
C4 C3 1_555 1_555
H2 C4 1_555 1_555
C5 C4 1_555 1_555
C6 C5 1_555 1_555
H3 C6 1_555 1_555
C7 C2 1_555 1_555
H4 C7 1_555 1_555
C8 N3 1_555 1_555
H5 N2 1_555 1_555
H6 N2 1_555 1_555
N1B Cd1 1_555 1_555
Cd1B N1 1_555 1_555
S1B Cd1 1_555 1_555
N1_2 Cd1 1_555 1_555
N3B Cd1 1_555 1_555
C8B N3B 1_555 1_555
C5B C8B 1_555 1_555
C4B C5B 1_555 1_555
C3B C4B 1_555 1_555
C2B C3B 1_555 1_555
N2B C2B 1_555 1_555
H5B N2B 1_555 1_555
H6B N2B 1_555 1_555
C7B C2B 1_555 1_555
C6B C5B 1_555 1_555
H3B C6B 1_555 1_555
H4B C7B 1_555 1_555
H1B C3B 1_555 1_555
H2B C4B 1_555 1_555
C1B S1B 1_555 1_555
N1B_2 C1B 1_555 1_555
Cd1_2 N1B_2 1_555 1_555
C5 C8 1_555 1_555
C6 C7 1_555 1_555
C7B C6B 1_555 1_555

#END
