
#######################################################################
#
#                 Cambridge Crystallographic Data Centre
#                                CCDC 
#
#######################################################################
#
# If this CIF has been generated from an entry in the Cambridge 
# Structural Database, then it will include bibliographic, chemical, 
# crystal, experimental, refinement or atomic coordinate data resulting 
# from the CCDC's data processing and validation procedures.
#
#######################################################################

data_DADGIZ
_symmetry_cell_setting           monoclinic
_symmetry_space_group_name_H-M   'C 2/c'
_symmetry_Int_Tables_number      15
_space_group_name_Hall           '-C 2yn'
loop_
_symmetry_equiv_pos_site_id
_symmetry_equiv_pos_as_xyz
1 x,y,z
2 1/2+x,1/2+y,z
3 x,-y,1/2+z
4 1/2+x,1/2-y,1/2+z
5 -x,-y,-z
6 1/2-x,1/2-y,-z
7 -x,y,1/2-z
8 1/2-x,1/2+y,1/2-z
_cell_length_a                   23.505(5)
_cell_length_b                   13.044(3)
_cell_length_c                   21.936(4)
_cell_angle_alpha                90
_cell_angle_beta                 115.33(3)
_cell_angle_gamma                90
_cell_volume                     6078.96
loop_
_atom_site_label
_atom_site_type_symbol
_atom_site_fract_x
_atom_site_fract_y
_atom_site_fract_z
Rh1 Rh 0.00745(7) 0.51960(15) 0.19154(9)
Rh2 Rh 0.00183(7) 0.50971(16) 0.06714(8)
O1 O -0.0811(6) 0.5806(11) 0.1406(7)
O2 O -0.0937(6) 0.5274(12) 0.0379(7)
O3 O -0.0331(7) 0.3765(11) 0.1705(8)
O4 O -0.0133(6) 0.3561(11) 0.0791(8)
N1 N 0.0541(8) 0.6525(15) 0.2136(9)
N2 N 0.0946(7) 0.4693(14) 0.2425(9)
N3 N 0.0190(7) 0.6540(13) 0.0559(9)
N4 N 0.0943(7) 0.5032(13) 0.0971(9)
C1 C 0.0278(12) 0.7472(16) 0.1961(13)
H1 H -0.0168 0.7533 0.1766
C2 C 0.0628(14) 0.8325(19) 0.2055(13)
H2 H 0.0431 0.8972 0.1910
C3 C 0.1281(13) 0.825(2) 0.2366(12)
H3 H 0.1536 0.8839 0.2431
C4 C 0.1549(11) 0.7302(18) 0.2579(11)
H4 H 0.1994 0.7243 0.2810
C5 C 0.1183(10) 0.6441(18) 0.2462(11)
C6 C 0.1402(9) 0.5434(19) 0.2623(10)
C7 C 0.2027(9) 0.5137(19) 0.2968(10)
H5 H 0.2343 0.5652 0.3119
C8 C 0.2210(10) 0.412(2) 0.3101(11)
H6 H 0.2641 0.3934 0.3323
C9 C 0.1729(11) 0.339(2) 0.2894(11)
H7 H 0.1827 0.2679 0.2980
C10 C 0.1124(11) 0.3701(19) 0.2570(11)
H8 H 0.0803 0.3194 0.2435
C11 C -0.0257(13) 0.7286(17) 0.0274(11)
H9 H -0.0687 0.7132 0.0150
C12 C -0.0092(12) 0.8231(18) 0.0167(13)
H10 H -0.0416 0.8714 -0.0063
C13 C 0.0489(13) 0.8516(18) 0.0365(14)
H11 H 0.0586 0.9205 0.0306
C14 C 0.0971(14) 0.779(2) 0.0667(13)
H12 H 0.1402 0.7978 0.0830
C15 C 0.0789(10) 0.6799(16) 0.0716(10)
C16 C 0.1228(11) 0.595(2) 0.0977(11)
C17 C 0.1873(10) 0.5984(19) 0.1196(12)
H13 H 0.2069 0.6624 0.1204
C18 C 0.2239(9) 0.512(2) 0.1401(12)
H14 H 0.2684 0.5170 0.1566
C19 C 0.1956(9) 0.419(2) 0.1366(11)
H15 H 0.2190 0.3574 0.1470
C20 C 0.1303(10) 0.420(2) 0.1170(11)
H16 H 0.1106 0.3567 0.1181
C21 C -0.1130(10) 0.5623(16) 0.0786(12)
H17 H -0.1568 0.5769 0.0610
C22 C -0.0292(11) 0.3248(18) 0.1233(14)
H18 H -0.0396 0.2542 0.1215
Rh1F Rh -0.00745(7) 0.51960(15) 0.30846(9)
Rh2F Rh -0.00183(7) 0.50971(16) 0.43286(8)
Rh2B Rh 0.00183(7) 0.49029(16) 0.56714(8)
O2F O 0.0937(6) 0.5274(12) 0.4621(7)
C21F C 0.1130(10) 0.5623(16) 0.4214(12)
O1F O 0.0811(6) 0.5806(11) 0.3594(7)
O3F O 0.0331(7) 0.3765(11) 0.3295(8)
C22F C 0.0292(11) 0.3248(18) 0.3767(14)
O4F O 0.0133(6) 0.3561(11) 0.4209(8)
N3F N -0.0190(7) 0.6540(13) 0.4441(9)
C11F C 0.0257(13) 0.7286(17) 0.4726(11)
H9F H 0.0687 0.7132 0.4850
C12F C 0.0092(12) 0.8231(18) 0.4833(13)
H10F H 0.0416 0.8714 0.5063
C13F C -0.0489(13) 0.8516(18) 0.4635(14)
H11F H -0.0586 0.9205 0.4694
C14F C -0.0971(14) 0.779(2) 0.4333(13)
H12F H -0.1402 0.7978 0.4170
C15F C -0.0789(10) 0.6799(16) 0.4284(10)
C16F C -0.1228(11) 0.595(2) 0.4023(11)
N4F N -0.0943(7) 0.5032(13) 0.4029(9)
C20F C -0.1303(10) 0.420(2) 0.3830(11)
C19F C -0.1956(9) 0.419(2) 0.3634(11)
C18F C -0.2239(9) 0.512(2) 0.3599(12)
C17F C -0.1873(10) 0.5984(19) 0.3804(12)
H13F H -0.2069 0.6624 0.3796
H14F H -0.2684 0.5170 0.3434
H15F H -0.2190 0.3574 0.3530
H16F H -0.1106 0.3567 0.3819
H18F H 0.0396 0.2542 0.3785
N1F N -0.0541(8) 0.6525(15) 0.2864(9)
C1F C -0.0278(12) 0.7472(16) 0.3039(13)
H1F H 0.0168 0.7533 0.3234
C2F C -0.0628(14) 0.8325(19) 0.2945(13)
H2F H -0.0431 0.8972 0.3090
C3F C -0.1281(13) 0.825(2) 0.2634(12)
H3F H -0.1536 0.8839 0.2569
C4F C -0.1549(11) 0.7302(18) 0.2421(11)
H4F H -0.1994 0.7243 0.2190
C5F C -0.1183(10) 0.6441(18) 0.2538(11)
C6F C -0.1402(9) 0.5434(19) 0.2377(10)
N2F N -0.0946(7) 0.4693(14) 0.2575(9)
C10F C -0.1124(11) 0.3701(19) 0.2430(11)
C9F C -0.1729(11) 0.339(2) 0.2106(11)
C8F C -0.2210(10) 0.412(2) 0.1899(11)
C7F C -0.2027(9) 0.5137(19) 0.2032(10)
H5F H -0.2343 0.5652 0.1881
H6F H -0.2641 0.3934 0.1677
H7F H -0.1827 0.2679 0.2020
H8F H -0.0803 0.3194 0.2565
H17F H 0.1568 0.5769 0.4390
Rh2D Rh -0.00183(7) 0.49029(16) -0.06714(8)
O5 O -0.2172(11) 0.2015(18) -0.0328(13)
C23 C -0.2711(18) 0.159(3) -0.026(2)
H19 H -0.2555 0.1189 0.0156
H20 H -0.2923 0.1119 -0.0622
C24 C -0.1862(15) 0.267(3) 0.0234(18)
H21 H -0.1510 0.3004 0.0200
H22 H -0.1698 0.2277 0.0646
C24E C -0.3138(15) 0.233(3) -0.0234(18)
O5E O -0.2828(11) 0.2985(18) 0.0328(13)
C23E C -0.2289(18) 0.341(3) 0.026(2)
H19E H -0.2445 0.3811 -0.0156
H20E H -0.2077 0.3881 0.0622
H21E H -0.3490 0.1996 -0.0200
H22E H -0.3302 0.2723 -0.0646
B1 B 0.1354(19) 0.113(3) 0.175(2)
F1 F 0.1766(10) 0.1831(17) 0.1696(12)
F2 F 0.1355(11) 0.027(2) 0.1367(12)
F3 F 0.1530(12) 0.085(2) 0.2369(14)
F4 F 0.0786(10) 0.1588(17) 0.1508(12)
loop_
_geom_bond_atom_site_label_1
_geom_bond_atom_site_label_2
_geom_bond_site_symmetry_1
_geom_bond_site_symmetry_2
Rh1 Rh2 1_555 1_555
Rh2 O2 1_555 1_555
O1 Rh1 1_555 1_555
O2 C21 1_555 1_555
O3 Rh1 1_555 1_555
O4 Rh2 1_555 1_555
O5 C23 1_555 1_555
N1 Rh1 1_555 1_555
N2 Rh1 1_555 1_555
N3 Rh2 1_555 1_555
N4 Rh2 1_555 1_555
C1 N1 1_555 1_555
H1 C1 1_555 1_555
C2 C1 1_555 1_555
H2 C2 1_555 1_555
C3 C2 1_555 1_555
H3 C3 1_555 1_555
C4 C3 1_555 1_555
H4 C4 1_555 1_555
C5 N1 1_555 1_555
C6 N2 1_555 1_555
C7 C6 1_555 1_555
H5 C7 1_555 1_555
C8 C7 1_555 1_555
H6 C8 1_555 1_555
C9 C8 1_555 1_555
H7 C9 1_555 1_555
C10 N2 1_555 1_555
H8 C10 1_555 1_555
C11 N3 1_555 1_555
H9 C11 1_555 1_555
C12 C11 1_555 1_555
H10 C12 1_555 1_555
C13 C12 1_555 1_555
H11 C13 1_555 1_555
C14 C13 1_555 1_555
H12 C14 1_555 1_555
C15 N3 1_555 1_555
C16 N4 1_555 1_555
C17 C16 1_555 1_555
H13 C17 1_555 1_555
C18 C17 1_555 1_555
H14 C18 1_555 1_555
C19 C18 1_555 1_555
H15 C19 1_555 1_555
C20 N4 1_555 1_555
H16 C20 1_555 1_555
C21 O1 1_555 1_555
H17 C21 1_555 1_555
C22 O3 1_555 1_555
H18 C22 1_555 1_555
C23 H19 1_555 1_555
H20 C23 1_555 1_555
C24 O5 1_555 1_555
H21 C24 1_555 1_555
H22 C24 1_555 1_555
B1 F1 1_555 1_555
F2 B1 1_555 1_555
F3 B1 1_555 1_555
F4 B1 1_555 1_555
Rh1F Rh1 1_555 1_555
Rh2F Rh1F 1_555 1_555
Rh2B Rh2F 1_555 1_555
O2F Rh2F 1_555 1_555
C21F O2F 1_555 1_555
O1F Rh1F 1_555 1_555
O3F Rh1F 1_555 1_555
C22F O3F 1_555 1_555
O4F Rh2F 1_555 1_555
N3F Rh2F 1_555 1_555
C11F N3F 1_555 1_555
H9F C11F 1_555 1_555
C12F C11F 1_555 1_555
H10F C12F 1_555 1_555
C13F C12F 1_555 1_555
H11F C13F 1_555 1_555
C14F C13F 1_555 1_555
H12F C14F 1_555 1_555
C15F N3F 1_555 1_555
C16F C15F 1_555 1_555
N4F Rh2F 1_555 1_555
C20F N4F 1_555 1_555
C19F C20F 1_555 1_555
C18F C19F 1_555 1_555
C17F C16F 1_555 1_555
H13F C17F 1_555 1_555
H14F C18F 1_555 1_555
H15F C19F 1_555 1_555
H16F C20F 1_555 1_555
H18F C22F 1_555 1_555
N1F Rh1F 1_555 1_555
C1F N1F 1_555 1_555
H1F C1F 1_555 1_555
C2F C1F 1_555 1_555
H2F C2F 1_555 1_555
C3F C2F 1_555 1_555
H3F C3F 1_555 1_555
C4F C3F 1_555 1_555
H4F C4F 1_555 1_555
C5F N1F 1_555 1_555
C6F C5F 1_555 1_555
N2F Rh1F 1_555 1_555
C10F N2F 1_555 1_555
C9F C10F 1_555 1_555
C8F C9F 1_555 1_555
C7F C6F 1_555 1_555
H5F C7F 1_555 1_555
H6F C8F 1_555 1_555
H7F C9F 1_555 1_555
H8F C10F 1_555 1_555
H17F C21F 1_555 1_555
Rh2D Rh2 1_555 1_555
C24E C23 1_555 1_555
O5E C24E 1_555 1_555
C23E C24 1_555 1_555
H19E C23E 1_555 1_555
H20E C23E 1_555 1_555
H21E C24E 1_555 1_555
H22E C24E 1_555 1_555
O4 C22 1_555 1_555
C4 C5 1_555 1_555
C5 C6 1_555 1_555
C9 C10 1_555 1_555
C14 C15 1_555 1_555
C15 C16 1_555 1_555
C19 C20 1_555 1_555
C21F O1F 1_555 1_555
C22F O4F 1_555 1_555
C14F C15F 1_555 1_555
C16F N4F 1_555 1_555
C18F C17F 1_555 1_555
C4F C5F 1_555 1_555
C6F N2F 1_555 1_555
C8F C7F 1_555 1_555
O5E C23E 1_555 1_555

#END
