
#######################################################################
#
#                 Cambridge Crystallographic Data Centre
#                                CCDC 
#
#######################################################################
#
# If this CIF has been generated from an entry in the Cambridge 
# Structural Database, then it will include bibliographic, chemical, 
# crystal, experimental, refinement or atomic coordinate data resulting 
# from the CCDC's data processing and validation procedures.
#
#######################################################################

data_DADLIF
_symmetry_cell_setting           monoclinic
_symmetry_space_group_name_H-M   'P 21/c'
_symmetry_Int_Tables_number      14
_space_group_name_Hall           '-P 2ybc'
loop_
_symmetry_equiv_pos_site_id
_symmetry_equiv_pos_as_xyz
1 x,y,z
2 -x,1/2+y,1/2-z
3 -x,-y,-z
4 x,1/2-y,1/2+z
_cell_length_a                   7.6301(3)
_cell_length_b                   16.0551(6)
_cell_length_c                   9.2431(3)
_cell_angle_alpha                90
_cell_angle_beta                 109.296(4)
_cell_angle_gamma                90
_cell_volume                     1068.69
loop_
_atom_site_label
_atom_site_type_symbol
_atom_site_fract_x
_atom_site_fract_y
_atom_site_fract_z
Zn1 Zn 0.49057(6) 0.20324(3) 0.30275(5)
O1 O 0.5557(3) 0.23287(16) 0.1113(3)
C1 C 0.6813(5) 0.2052(2) 0.0653(4)
O2 O 0.7003(3) 0.22822(17) -0.0588(3)
C2 C 0.8129(6) 0.1401(3) 0.1576(5)
H1 H 0.8299 0.1477 0.2644
H2 H 0.9304 0.1454 0.1414
H3 H 0.7625 0.0858 0.1259
N1 N 0.2873(4) 0.29768(16) 0.2601(3)
C3 C 0.2888(5) 0.3641(2) 0.1744(4)
H4 H 0.3841 0.3690 0.1331
C4 C 0.1585(7) 0.4249(3) 0.1443(6)
H5 H 0.1670 0.4710 0.0862
C5 C 0.0131(6) 0.4174(3) 0.2012(5)
H6 H -0.0801 0.4575 0.1794
C6 C 0.0092(5) 0.3499(3) 0.2901(5)
H7 H -0.0863 0.3434 0.3308
C7 C 0.1479(5) 0.2923(2) 0.3182(5)
H8 H 0.1459 0.2471 0.3806
C8 C 0.4124(7) 0.0862(3) 0.3167(4)
H9 H 0.5149 0.0568 0.3896
H10 H 0.3104 0.0866 0.3574
C9 C 0.3525(7) 0.0382(3) 0.1680(5)
H11 H 0.3174 -0.0173 0.1861
H12 H 0.4534 0.0357 0.1279
H13 H 0.2485 0.0656 0.0955
Zn1C Zn 0.49057(6) 0.29676(3) -0.19725(5)
O2C O 0.7003(3) 0.27178(17) 0.4412(3)
loop_
_geom_bond_atom_site_label_1
_geom_bond_atom_site_label_2
_geom_bond_site_symmetry_1
_geom_bond_site_symmetry_2
Zn1 O1 1_555 1_555
O1 C1 1_555 1_555
C1 O2 1_555 1_555
O2 Zn1C 1_555 1_555
C2 C1 1_555 1_555
H1 C2 1_555 1_555
H2 C2 1_555 1_555
H3 C2 1_555 1_555
N1 Zn1 1_555 1_555
C3 N1 1_555 1_555
H4 C3 1_555 1_555
C4 C3 1_555 1_555
H5 C4 1_555 1_555
C5 C4 1_555 1_555
H6 C5 1_555 1_555
C6 C5 1_555 1_555
H7 C6 1_555 1_555
C7 N1 1_555 1_555
H8 C7 1_555 1_555
C8 Zn1 1_555 1_555
H9 C8 1_555 1_555
H10 C8 1_555 1_555
C9 C8 1_555 1_555
H11 C9 1_555 1_555
H12 C9 1_555 1_555
H13 C9 1_555 1_555
O2C Zn1 1_555 1_555
C6 C7 1_555 1_555

#END
