
#######################################################################
#
#                 Cambridge Crystallographic Data Centre
#                                CCDC 
#
#######################################################################
#
# If this CIF has been generated from an entry in the Cambridge 
# Structural Database, then it will include bibliographic, chemical, 
# crystal, experimental, refinement or atomic coordinate data resulting 
# from the CCDC's data processing and validation procedures.
#
#######################################################################

data_DADYOX
_symmetry_cell_setting           monoclinic
_symmetry_space_group_name_H-M   'P 21/c'
_symmetry_Int_Tables_number      14
_space_group_name_Hall           '-P 2ybc'
loop_
_symmetry_equiv_pos_site_id
_symmetry_equiv_pos_as_xyz
1 x,y,z
2 x,1/2-y,1/2+z
3 -x,-y,-z
4 -x,1/2+y,1/2-z
_cell_length_a                   20.889(4)
_cell_length_b                   21.666(4)
_cell_length_c                   8.2232(16)
_cell_angle_alpha                90
_cell_angle_beta                 95.16(3)
_cell_angle_gamma                90
_cell_volume                     3706.58
loop_
_atom_site_label
_atom_site_type_symbol
_atom_site_fract_x
_atom_site_fract_y
_atom_site_fract_z
Mn1 Mn 0.50327(2) 0.692062(17) 0.27931(5)
Fe1 Fe 0.12933(2) 0.61003(2) -0.53859(6)
Fe2 Fe 0.89770(2) 0.627616(19) 1.06634(6)
N1 N 0.46043(11) 0.59706(9) 0.3341(3)
N2 N 0.56329(11) 0.61789(9) 0.1638(3)
C1 C 0.1737(6) 0.6154(4) -0.7412(11)
H1 H 0.1840 0.6537 -0.7968
C2 C 0.1186(4) 0.5818(4) -0.7722(7)
H2 H 0.0826 0.5921 -0.8524
C3 C 0.1224(3) 0.5316(3) -0.6724(11)
H3 H 0.0895 0.4995 -0.6674
C4 C 0.1802(5) 0.5341(3) -0.5786(8)
H4 H 0.1964 0.5038 -0.4964
C5 C 0.2122(3) 0.5866(5) -0.6250(13)
H5 H 0.2552 0.6001 -0.5816
C6 C 0.11551(17) 0.69613(15) -0.4559(5)
H6 H 0.1294 0.7343 -0.5061
C7 C 0.05636(17) 0.66653(18) -0.4932(5)
H7 H 0.0219 0.6805 -0.5734
C8 C 0.05532(17) 0.6133(2) -0.3982(5)
H8 H 0.0199 0.5836 -0.3995
C9 C 0.11383(17) 0.61033(17) -0.2978(5)
H9 H 0.1263 0.5775 -0.2193
C10 C 0.15242(15) 0.66119(14) -0.3340(4)
C11 C 0.31356(15) 0.73699(13) -0.2442(4)
H10 H 0.3357 0.7705 -0.2824
C12 C 0.25304(15) 0.72365(14) -0.3148(4)
H11 H 0.2353 0.7479 -0.4008
C13 C 0.21786(15) 0.67469(13) -0.2603(4)
C14 C 0.24620(15) 0.63995(12) -0.1313(4)
H12 H 0.2236 0.6073 -0.0906
C15 C 0.30768(14) 0.65327(11) -0.0623(4)
H13 H 0.3258 0.6290 0.0229
C16 C 0.34242(13) 0.70195(11) -0.1178(3)
C17 C 0.40883(14) 0.71755(12) -0.0433(4)
C18 C 0.8827(3) 0.6102(2) 1.3027(5)
H14 H 0.8855 0.6401 1.3924
C19 C 0.9320(2) 0.57330(18) 1.2564(6)
H15 H 0.9762 0.5730 1.3071
C20 C 0.9083(3) 0.53724(17) 1.1264(6)
H16 H 0.9329 0.5068 1.0695
C21 C 0.8439(3) 0.5514(2) 1.0895(6)
H17 H 0.8150 0.5324 1.0032
C22 C 0.8273(2) 0.5960(3) 1.1977(7)
H18 H 0.7846 0.6144 1.2017
C23 C 0.88821(15) 0.71894(13) 1.0145(4)
H19 H 0.8659 0.7491 1.0779
C24 C 0.95379(17) 0.70324(16) 1.0409(5)
H20 H 0.9849 0.7207 1.1249
C25 C 0.96664(17) 0.65926(19) 0.9256(5)
H21 H 1.0084 0.6398 0.9155
C26 C 0.90920(16) 0.64584(15) 0.8285(4)
H22 H 0.9046 0.6159 0.7389
C27 C 0.85932(14) 0.68310(12) 0.8818(4)
C28 C 0.68745(14) 0.73340(12) 0.8111(4)
H23 H 0.6611 0.7628 0.8534
C29 C 0.75060(14) 0.72892(13) 0.8732(4)
H24 H 0.7660 0.7556 0.9562
C30 C 0.79191(14) 0.68558(11) 0.8155(3)
C31 C 0.76653(14) 0.64637(11) 0.6906(4)
H25 H 0.7927 0.6164 0.6498
C32 C 0.70308(14) 0.65146(11) 0.6268(3)
H26 H 0.6875 0.6253 0.5426
C33 C 0.66238(13) 0.69501(11) 0.6867(3)
C34 C 0.59356(14) 0.70196(11) 0.6187(4)
C35 C 0.40905(15) 0.58719(13) 0.4115(4)
H27 H 0.3876 0.6210 0.4506
C36 C 0.38506(15) 0.52777(14) 0.4377(4)
H28 H 0.3481 0.5226 0.4914
C37 C 0.41657(17) 0.47791(14) 0.3834(4)
H29 H 0.4020 0.4383 0.4032
C38 C 0.47029(16) 0.48610(12) 0.2987(4)
C39 C 0.49112(14) 0.54750(12) 0.2763(3)
C40 C 0.54566(14) 0.55831(11) 0.1885(3)
C41 C 0.57972(16) 0.50812(13) 0.1285(4)
C42 C 0.63253(17) 0.52171(14) 0.0440(4)
H30 H 0.6565 0.4897 0.0044
C43 C 0.64973(16) 0.58104(14) 0.0182(4)
H31 H 0.6849 0.5903 -0.0392
C44 C 0.61317(15) 0.62752(13) 0.0802(4)
H32 H 0.6247 0.6682 0.0614
C45 C 0.50552(17) 0.43689(13) 0.2345(4)
H33 H 0.4924 0.3965 0.2498
C46 C 0.55676(18) 0.44714(13) 0.1532(4)
H34 H 0.5781 0.4138 0.1115
O1 O 0.43310(9) 0.68288(8) 0.0667(2)
O2 O 0.43404(10) 0.76563(9) -0.0924(3)
O3 O 0.57583(9) 0.67418(8) 0.4889(2)
O4 O 0.55836(10) 0.73474(9) 0.6989(3)
O2A O 0.43404(10) 0.73437(9) 0.4076(3)
O4A O 0.55836(10) 0.76526(9) 0.1989(3)
Mn1A Mn 0.50327(2) 0.807938(17) -0.22069(5)
Mn1A_2 Mn 0.50327(2) 0.807938(17) 0.77931(5)
loop_
_geom_bond_atom_site_label_1
_geom_bond_atom_site_label_2
_geom_bond_site_symmetry_1
_geom_bond_site_symmetry_2
Mn1 N1 1_555 1_555
Fe1 C1 1_555 1_555
Fe2 C18 1_555 1_555
N1 C35 1_555 1_555
N2 Mn1 1_555 1_555
C1 H1 1_555 1_555
C2 Fe1 1_555 1_555
H2 C2 1_555 1_555
C3 Fe1 1_555 1_555
H3 C3 1_555 1_555
C4 Fe1 1_555 1_555
H4 C4 1_555 1_555
C5 Fe1 1_555 1_555
H5 C5 1_555 1_555
C6 Fe1 1_555 1_555
H6 C6 1_555 1_555
C7 Fe1 1_555 1_555
H7 C7 1_555 1_555
C8 Fe1 1_555 1_555
H8 C8 1_555 1_555
C9 Fe1 1_555 1_555
H9 C9 1_555 1_555
C10 Fe1 1_555 1_555
C11 H10 1_555 1_555
C12 C11 1_555 1_555
H11 C12 1_555 1_555
C13 C10 1_555 1_555
C14 C13 1_555 1_555
H12 C14 1_555 1_555
C15 C14 1_555 1_555
H13 C15 1_555 1_555
C16 C11 1_555 1_555
C17 C16 1_555 1_555
C18 H14 1_555 1_555
C19 Fe2 1_555 1_555
H15 C19 1_555 1_555
C20 Fe2 1_555 1_555
H16 C20 1_555 1_555
C21 Fe2 1_555 1_555
H17 C21 1_555 1_555
C22 Fe2 1_555 1_555
H18 C22 1_555 1_555
C23 Fe2 1_555 1_555
H19 C23 1_555 1_555
C24 Fe2 1_555 1_555
H20 C24 1_555 1_555
C25 Fe2 1_555 1_555
H21 C25 1_555 1_555
C26 Fe2 1_555 1_555
H22 C26 1_555 1_555
C27 Fe2 1_555 1_555
C28 H23 1_555 1_555
C29 C28 1_555 1_555
H24 C29 1_555 1_555
C30 C27 1_555 1_555
C31 C30 1_555 1_555
H25 C31 1_555 1_555
C32 C31 1_555 1_555
H26 C32 1_555 1_555
C33 C28 1_555 1_555
C34 C33 1_555 1_555
C35 H27 1_555 1_555
C36 C35 1_555 1_555
H28 C36 1_555 1_555
C37 C36 1_555 1_555
H29 C37 1_555 1_555
C38 C37 1_555 1_555
C39 N1 1_555 1_555
C40 N2 1_555 1_555
C41 C40 1_555 1_555
C42 C41 1_555 1_555
H30 C42 1_555 1_555
C43 C42 1_555 1_555
H31 C43 1_555 1_555
C44 N2 1_555 1_555
H32 C44 1_555 1_555
C45 C38 1_555 1_555
H33 C45 1_555 1_555
C46 C41 1_555 1_555
H34 C46 1_555 1_555
O1 Mn1 1_555 1_555
O2 C17 1_555 1_555
O3 Mn1 1_555 1_555
O4 C34 1_555 1_555
O2A Mn1 1_555 1_555
O4A Mn1 1_555 1_555
Mn1A O2 1_555 1_555
Mn1A_2 O4 1_555 1_555
C1 C2 1_555 1_555
C1 C5 1_555 1_555
C2 C3 1_555 1_555
C3 C4 1_555 1_555
C4 C5 1_555 1_555
C6 C7 1_555 1_555
C6 C10 1_555 1_555
C7 C8 1_555 1_555
C8 C9 1_555 1_555
C9 C10 1_555 1_555
C12 C13 1_555 1_555
C15 C16 1_555 1_555
C17 O1 1_555 1_555
C18 C19 1_555 1_555
C18 C22 1_555 1_555
C19 C20 1_555 1_555
C20 C21 1_555 1_555
C21 C22 1_555 1_555
C23 C24 1_555 1_555
C23 C27 1_555 1_555
C24 C25 1_555 1_555
C25 C26 1_555 1_555
C26 C27 1_555 1_555
C29 C30 1_555 1_555
C32 C33 1_555 1_555
C34 O3 1_555 1_555
C38 C39 1_555 1_555
C39 C40 1_555 1_555
C43 C44 1_555 1_555
C45 C46 1_555 1_555

#END
