
#######################################################################
#
#                 Cambridge Crystallographic Data Centre
#                                CCDC 
#
#######################################################################
#
# If this CIF has been generated from an entry in the Cambridge 
# Structural Database, then it will include bibliographic, chemical, 
# crystal, experimental, refinement or atomic coordinate data resulting 
# from the CCDC's data processing and validation procedures.
#
#######################################################################

data_DADYUD
_symmetry_cell_setting           triclinic
_symmetry_space_group_name_H-M   'P -1'
_symmetry_Int_Tables_number      2
_space_group_name_Hall           '-P 1'
loop_
_symmetry_equiv_pos_site_id
_symmetry_equiv_pos_as_xyz
1 x,y,z
2 -x,-y,-z
_cell_length_a                   9.0012(18)
_cell_length_b                   12.354(3)
_cell_length_c                   19.981(4)
_cell_angle_alpha                93.79(3)
_cell_angle_beta                 96.53(3)
_cell_angle_gamma                106.03(3)
_cell_volume                     2110.57
loop_
_atom_site_label
_atom_site_type_symbol
_atom_site_fract_x
_atom_site_fract_y
_atom_site_fract_z
Cd1 Cd 0.41936(5) 0.87672(3) 0.40484(2)
Fe1 Fe 1.14835(9) 0.83994(7) 0.07179(4)
Fe2 Fe 0.51491(10) 1.40405(6) 0.12710(4)
N1 N 0.2323(6) 0.7000(4) 0.3585(2)
N2 N 0.2225(5) -0.0426(4) 0.3874(3)
O1 O 0.6260(5) 0.8193(4) 0.3695(2)
O2 O 0.4923(5) 0.8882(3) 0.2918(2)
O3 O 0.5849(5) 1.0570(3) 0.4371(2)
O4 O 0.5749(6) 1.2057(4) 0.5017(2)
C1 C 1.2074(9) 0.9974(6) 0.1229(5)
H2 H 1.1505 1.0227 0.1568
C2 C 1.1806(10) 1.0041(7) 0.0525(6)
H3 H 1.1035 1.0358 0.0288
C3 C 1.2884(11) 0.9571(8) 0.0228(5)
H4 H 1.2979 0.9502 -0.0255
C4 C 1.3788(8) 0.9235(7) 0.0742(4)
H5 H 1.4624 0.8885 0.0682
C5 C 1.3295(8) 0.9489(6) 0.1359(4)
H6 H 1.3721 0.9339 0.1806
C6 C 0.9262(7) 0.7487(5) 0.0353(3)
H7 H 0.8453 0.7783 0.0128
C7 C 1.0342(8) 0.7072(6) 0.0031(4)
H8 H 1.0409 0.7026 -0.0455
C8 C 1.1279(9) 0.6728(6) 0.0522(4)
H9 H 1.2130 0.6405 0.0442
C9 C 1.0827(8) 0.6944(6) 0.1157(4)
H10 H 1.1301 0.6792 0.1594
C10 C 0.9554(6) 0.7402(4) 0.1054(3)
C11 C 0.6866(7) 0.8631(5) 0.1962(3)
H11 H 0.6214 0.9087 0.1873
C12 C 0.7705(7) 0.8358(5) 0.1465(3)
H12 H 0.7577 0.8612 0.1040
C13 C 0.8720(6) 0.7720(4) 0.1591(3)
C14 C 0.8854(6) 0.7349(5) 0.2228(3)
H13 H 0.9533 0.6916 0.2326
C15 C 0.8011(7) 0.7601(4) 0.2721(3)
H14 H 0.8131 0.7343 0.3145
C16 C 0.7000(6) 0.8228(4) 0.2586(3)
C17 C 0.5999(7) 0.8466(5) 0.3099(3)
C18 C 0.6735(10) 1.4532(6) 0.0626(4)
H15 H 0.7041 1.5287 0.0470
C19 C 0.7445(8) 1.4218(6) 0.1208(4)
H16 H 0.8338 1.4696 0.1521
C20 C 0.6644(9) 1.3085(6) 0.1260(4)
H17 H 0.6881 1.2631 0.1620
C21 C 0.5447(9) 1.2710(6) 0.0711(4)
H18 H 0.4707 1.1951 0.0621
C22 C 0.5489(10) 1.3629(7) 0.0308(3)
H19 H 0.4802 1.3623 -0.0111
C23 C 0.5031(7) 1.5067(4) 0.2098(3)
H20 H 0.5924 1.5569 0.2400
C24 C 0.4290(8) 1.5352(5) 0.1511(3)
H21 H 0.4578 1.6093 0.1334
C25 C 0.3064(8) 1.4407(5) 0.1213(3)
H22 H 0.2348 1.4374 0.0799
C26 C 0.3071(7) 1.3501(5) 0.1622(3)
H23 H 0.2354 1.2733 0.1537
C27 C 0.4283(7) 1.3909(4) 0.2175(3)
C28 C 0.4988(6) 1.1592(4) 0.3193(3)
H24 H 0.4977 1.0838 0.3119
C29 C 0.4623(7) 1.2159(4) 0.2654(3)
H25 H 0.4330 1.1772 0.2223
C30 C 0.4686(6) 1.3285(4) 0.2743(3)
C31 C 0.5120(7) 1.3843(5) 0.3394(3)
H26 H 0.5197 1.4610 0.3464
C32 C 0.5437(8) 1.3266(5) 0.3938(3)
H27 H 0.5699 1.3646 0.4371
C33 C 0.5373(6) 1.2143(4) 0.3849(3)
C34 C 0.5661(7) 1.1524(5) 0.4451(3)
C35 C 0.1076(8) 0.6604(6) 0.3887(4)
H28 H 0.0872 0.7081 0.4222
C36 C 0.0067(8) 0.5535(6) 0.3738(4)
H29 H -0.0779 0.5307 0.3976
C37 C 0.0294(7) 0.4809(5) 0.3247(4)
C38 C 0.1581(8) 0.5232(5) 0.2915(4)
H30 H 0.1798 0.4779 0.2571
C39 C 0.2516(8) 0.6299(5) 0.3091(3)
H31 H 0.3349 0.6558 0.2851
C40 C -0.0708(8) 0.3592(5) 0.3092(4)
H32 H -0.1688 0.3504 0.3271
H33 H -0.0939 0.3399 0.2605
C41 C 0.0126(9) 0.2811(5) 0.3402(4)
H34 H 0.0472 0.3075 0.3877
H35 H 0.1047 0.2849 0.3185
C42 C -0.0874(8) 0.1571(5) 0.3342(5)
H36 H -0.1669 0.1492 0.3640
H37 H -0.1390 0.1337 0.2881
C43 C 0.1617(7) -0.0399(5) 0.3236(3)
H38 H 0.1899 -0.0824 0.2897
C44 C 0.0615(7) 0.0206(5) 0.3049(4)
H39 H 0.0239 0.0197 0.2594
C45 C 0.0167(7) 0.0829(5) 0.3537(4)
C46 C 0.0776(8) 0.0803(5) 0.4202(4)
H40 H 0.0495 0.1214 0.4548
C47 C 0.1787(7) 0.0180(5) 0.4355(3)
H41 H 0.2180 0.0177 0.4806
N2_2 N 0.2225(5) 0.9574(4) 0.3874(3)
O4A O 0.4251(6) 0.7943(4) 0.4983(2)
Cd1_2 Cd 0.41936(5) -0.12328(3) 0.40484(2)
Cd1A Cd 0.58064(5) 1.12328(3) 0.59516(2)
O5 O 0.7827(14) 0.6984(11) 0.4426(5)
H1 H 0.880(4) 0.694(13) 0.456(6)
C48 C 0.691(2) 0.6425(11) 0.4782(7)
H42 H 0.7242 0.5782 0.4905
H43 H 0.5879 0.6171 0.4532
H44 H 0.6899 0.6890 0.5185
loop_
_geom_bond_atom_site_label_1
_geom_bond_atom_site_label_2
_geom_bond_site_symmetry_1
_geom_bond_site_symmetry_2
Cd1 N1 1_555 1_555
Fe1 C1 1_555 1_555
Fe2 C18 1_555 1_555
N1 C35 1_555 1_555
N2 C43 1_555 1_555
O1 Cd1 1_555 1_555
O2 Cd1 1_555 1_555
O3 Cd1 1_555 1_555
O4 C34 1_555 1_555
O5 H1 1_555 1_555
C1 H2 1_555 1_555
C2 Fe1 1_555 1_555
H3 C2 1_555 1_555
C3 Fe1 1_555 1_555
H4 C3 1_555 1_555
C4 Fe1 1_555 1_555
H5 C4 1_555 1_555
C5 Fe1 1_555 1_555
H6 C5 1_555 1_555
C6 Fe1 1_555 1_555
H7 C6 1_555 1_555
C7 Fe1 1_555 1_555
H8 C7 1_555 1_555
C8 Fe1 1_555 1_555
H9 C8 1_555 1_555
C9 Fe1 1_555 1_555
H10 C9 1_555 1_555
C10 Fe1 1_555 1_555
C11 H11 1_555 1_555
C12 C11 1_555 1_555
H12 C12 1_555 1_555
C13 C10 1_555 1_555
C14 C13 1_555 1_555
H13 C14 1_555 1_555
C15 C14 1_555 1_555
H14 C15 1_555 1_555
C16 C11 1_555 1_555
C17 O1 1_555 1_555
C18 H15 1_555 1_555
C19 Fe2 1_555 1_555
H16 C19 1_555 1_555
C20 Fe2 1_555 1_555
H17 C20 1_555 1_555
C21 Fe2 1_555 1_555
H18 C21 1_555 1_555
C22 Fe2 1_555 1_555
H19 C22 1_555 1_555
C23 Fe2 1_555 1_555
H20 C23 1_555 1_555
C24 Fe2 1_555 1_555
H21 C24 1_555 1_555
C25 Fe2 1_555 1_555
H22 C25 1_555 1_555
C26 Fe2 1_555 1_555
H23 C26 1_555 1_555
C27 Fe2 1_555 1_555
C28 H24 1_555 1_555
C29 C28 1_555 1_555
H25 C29 1_555 1_555
C30 C27 1_555 1_555
C31 C30 1_555 1_555
H26 C31 1_555 1_555
C32 C31 1_555 1_555
H27 C32 1_555 1_555
C33 C28 1_555 1_555
C34 O3 1_555 1_555
C35 H28 1_555 1_555
C36 C35 1_555 1_555
H29 C36 1_555 1_555
C37 C36 1_555 1_555
C38 C37 1_555 1_555
H30 C38 1_555 1_555
C39 N1 1_555 1_555
H31 C39 1_555 1_555
C40 C37 1_555 1_555
H32 C40 1_555 1_555
H33 C40 1_555 1_555
C41 C40 1_555 1_555
H34 C41 1_555 1_555
H35 C41 1_555 1_555
C42 C41 1_555 1_555
H36 C42 1_555 1_555
H37 C42 1_555 1_555
C43 H38 1_555 1_555
C44 C43 1_555 1_555
H39 C44 1_555 1_555
C45 C42 1_555 1_555
C46 C45 1_555 1_555
H40 C46 1_555 1_555
C47 N2 1_555 1_555
H41 C47 1_555 1_555
C48 O5 1_555 1_555
H42 C48 1_555 1_555
H43 C48 1_555 1_555
H44 C48 1_555 1_555
N2_2 Cd1 1_555 1_555
O4A Cd1 1_555 1_555
Cd1_2 N2 1_555 1_555
Cd1A O4 1_555 1_555
O2 C17 1_555 1_555
C1 C2 1_555 1_555
C1 C5 1_555 1_555
C2 C3 1_555 1_555
C3 C4 1_555 1_555
C4 C5 1_555 1_555
C6 C10 1_555 1_555
C6 C7 1_555 1_555
C7 C8 1_555 1_555
C8 C9 1_555 1_555
C9 C10 1_555 1_555
C12 C13 1_555 1_555
C15 C16 1_555 1_555
C16 C17 1_555 1_555
C18 C19 1_555 1_555
C18 C22 1_555 1_555
C19 C20 1_555 1_555
C20 C21 1_555 1_555
C21 C22 1_555 1_555
C23 C27 1_555 1_555
C23 C24 1_555 1_555
C24 C25 1_555 1_555
C25 C26 1_555 1_555
C26 C27 1_555 1_555
C29 C30 1_555 1_555
C32 C33 1_555 1_555
C33 C34 1_555 1_555
C38 C39 1_555 1_555
C44 C45 1_555 1_555
C46 C47 1_555 1_555

#END
