
#######################################################################
#
#                 Cambridge Crystallographic Data Centre
#                                CCDC 
#
#######################################################################
#
# If this CIF has been generated from an entry in the Cambridge 
# Structural Database, then it will include bibliographic, chemical, 
# crystal, experimental, refinement or atomic coordinate data resulting 
# from the CCDC's data processing and validation procedures.
#
#######################################################################

data_DAFGUN
_symmetry_cell_setting           triclinic
_symmetry_space_group_name_H-M   'P -1'
_symmetry_Int_Tables_number      2
_space_group_name_Hall           '-P 1'
loop_
_symmetry_equiv_pos_site_id
_symmetry_equiv_pos_as_xyz
1 x,y,z
2 -x,-y,-z
_cell_length_a                   10.2524(6)
_cell_length_b                   10.3399(6)
_cell_length_c                   10.5488(7)
_cell_angle_alpha                63.8500(10)
_cell_angle_beta                 63.5550(10)
_cell_angle_gamma                81.5300(10)
_cell_volume                     897.097
loop_
_atom_site_label
_atom_site_type_symbol
_atom_site_fract_x
_atom_site_fract_y
_atom_site_fract_z
Cd1 Cd 0.11575(2) 0.287884(18) 0.399670(19)
S1 S 0.29343(8) 0.42285(9) 0.44040(10)
S2 S 0.13804(9) 0.06448(8) 0.64057(8)
N1 N 0.1048(3) 0.6449(3) 0.4586(3)
N2 N -0.0138(3) -0.1495(3) 0.6572(3)
N3 N 0.1304(2) 0.4925(2) 0.1826(2)
N4 N 0.2356(3) 0.6283(3) -0.0722(2)
N5 N 0.3463(2) 0.4087(2) 0.0205(2)
N6 N 0.3365(2) 0.2976(2) 0.1428(2)
C1 C 0.1820(3) 0.5543(3) 0.4503(3)
C2 C 0.0481(3) -0.0603(3) 0.6487(3)
C3 C 0.0550(3) 0.6133(3) 0.1464(3)
H1 H -0.0278 0.6349 0.2182
C4 C 0.1183(3) 0.6971(3) -0.0091(3)
H2 H 0.0875 0.7849 -0.0625
C5 C 0.2388(3) 0.5037(3) 0.0479(3)
C6 C 0.3382(4) 0.6786(4) -0.2393(3)
H3 H 0.3371 0.7826 -0.2922
H4 H 0.4365 0.6553 -0.2492
C7 C 0.2974(5) 0.6105(5) -0.3120(5)
H5 H 0.3651 0.6437 -0.4202
H6 H 0.2008 0.6352 -0.3038
H7 H 0.2993 0.5077 -0.2600
C8 C 0.4453(3) 0.1981(3) 0.1169(3)
C9 C 0.5613(3) 0.2222(3) -0.0276(3)
H8 H 0.5713 0.3076 -0.1150
C10 C 0.6611(3) 0.1183(3) -0.0399(3)
H9 H 0.7379 0.1346 -0.1370
C11 C 0.6508(3) -0.0091(3) 0.0871(3)
C12 C 0.5364(4) -0.0306(3) 0.2284(4)
H10 H 0.5277 -0.1156 0.3157
C13 C 0.4329(4) 0.0713(3) 0.2447(3)
H11 H 0.3556 0.0537 0.3417
C14 C 0.7626(4) -0.1204(4) 0.0706(5)
H12 H 0.8346 -0.0863 -0.0360
H13 H 0.7152 -0.2092 0.1000
H14 H 0.8090 -0.1363 0.1372
N1A N -0.1048(3) 0.3551(3) 0.5414(3)
N2A N 0.0138(3) 0.1495(3) 0.3428(3)
Cd1A Cd -0.11575(2) 0.712116(18) 0.600330(19)
Cd1A_2 Cd -0.11575(2) -0.287884(18) 0.600330(19)
loop_
_geom_bond_atom_site_label_1
_geom_bond_atom_site_label_2
_geom_bond_site_symmetry_1
_geom_bond_site_symmetry_2
Cd1 S1 1_555 1_555
S1 C1 1_555 1_555
S2 Cd1 1_555 1_555
N1 C1 1_555 1_555
N2 C2 1_555 1_555
N3 Cd1 1_555 1_555
N4 C4 1_555 1_555
N5 N6 1_555 1_555
N6 Cd1 1_555 1_555
C2 S2 1_555 1_555
C3 N3 1_555 1_555
H1 C3 1_555 1_555
C4 C3 1_555 1_555
H2 C4 1_555 1_555
C5 N3 1_555 1_555
C6 N4 1_555 1_555
H3 C6 1_555 1_555
H4 C6 1_555 1_555
C7 C6 1_555 1_555
H5 C7 1_555 1_555
H6 C7 1_555 1_555
H7 C7 1_555 1_555
C8 N6 1_555 1_555
C9 C8 1_555 1_555
H8 C9 1_555 1_555
C10 C9 1_555 1_555
H9 C10 1_555 1_555
C11 C10 1_555 1_555
C12 C11 1_555 1_555
H10 C12 1_555 1_555
C13 C8 1_555 1_555
H11 C13 1_555 1_555
C14 C11 1_555 1_555
H12 C14 1_555 1_555
H13 C14 1_555 1_555
H14 C14 1_555 1_555
N1A Cd1 1_555 1_555
N2A Cd1 1_555 1_555
Cd1A N1 1_555 1_555
Cd1A_2 N2 1_555 1_555
N4 C5 1_555 1_555
N5 C5 1_555 1_555
C12 C13 1_555 1_555

#END
