
#######################################################################
#
#                 Cambridge Crystallographic Data Centre
#                                CCDC 
#
#######################################################################
#
# If this CIF has been generated from an entry in the Cambridge 
# Structural Database, then it will include bibliographic, chemical, 
# crystal, experimental, refinement or atomic coordinate data resulting 
# from the CCDC's data processing and validation procedures.
#
#######################################################################

data_DAFGOG
_symmetry_cell_setting           triclinic
_symmetry_space_group_name_H-M   'P -1'
_symmetry_Int_Tables_number      2
_space_group_name_Hall           '-P 1'
loop_
_symmetry_equiv_pos_site_id
_symmetry_equiv_pos_as_xyz
1 x,y,z
2 -x,-y,-z
_cell_length_a                   8.190(2)
_cell_length_b                   9.758(2)
_cell_length_c                   15.848(3)
_cell_angle_alpha                80.36(3)
_cell_angle_beta                 81.09(3)
_cell_angle_gamma                80.53(3)
_cell_volume                     1221.04
loop_
_atom_site_label
_atom_site_type_symbol
_atom_site_fract_x
_atom_site_fract_y
_atom_site_fract_z
O1 O 0.2988(3) 0.1463(2) 0.4508(2)
O2 O 0.2473(3) 0.2368(3) 0.3192(2)
O3 O 0.5139(4) 0.3002(3) 0.5128(2)
O4 O 0.4492(4) 0.5778(2) 0.3871(2)
O5 O 0.4419(3) 0.4485(3) 0.2396(2)
O6 O 0.4973(4) 0.3914(4) 0.1071(2)
O7 O 0.0810(3) -0.3087(2) 0.5078(2)
O8 O 0.3819(3) -0.1516(2) 0.6684(2)
O9 O -0.1640(3) 0.6168(3) 0.2711(2)
N1 N 0.0721(3) -0.1999(3) 0.4442(2)
N2 N 0.5715(4) 1.0400(3) 0.3081(2)
N3 N -0.0468(4) 0.6000(3) 0.2037(2)
C1 C 0.1401(4) 0.0250(3) 0.3811(2)
C2 C 0.1458(4) -0.0869(3) 0.4477(2)
C3 C -0.0091(5) -0.2060(4) 0.3771(3)
C4 C -0.0169(5) -0.0962(4) 0.3096(3)
C5 C 0.0588(5) 0.0204(4) 0.3114(2)
C6 C 0.2325(4) 0.1451(3) 0.3844(2)
C7 C 0.5074(4) 0.8080(3) 0.3428(2)
C8 C 0.5560(4) 0.9244(3) 0.3663(2)
C9 C 0.5392(5) 1.0461(4) 0.2261(2)
C10 C 0.4940(6) 0.9322(4) 0.1999(2)
C11 C 0.4782(5) 0.8103(4) 0.2584(2)
C12 C 0.5190(4) 0.3162(3) 0.5889(2)
C13 C 0.2313(5) 0.5180(4) 0.1481(2)
C14 C 0.1084(5) 0.5372(4) 0.2167(2)
C15 C -0.0848(6) 0.6480(5) 0.1229(3)
C16 C 0.0349(6) 0.6309(5) 0.0530(3)
C17 C 0.1948(6) 0.5653(5) 0.0644(3)
C18 C 0.4032(5) 0.4464(4) 0.1658(2)
H1 H 0.8197(3) 0.3112(3) 0.3257(2)
H2 H 0.7682(3) 0.4703(3) 0.3356(2)
H3 H 0.1134(3) 0.3810(3) 0.4685(2)
H4 H 0.1788(3) 0.5251(3) 0.4623(2)
H5 H 0.2028(4) -0.0846(3) 0.4959(2)
H6 H -0.0614(5) -0.2870(4) 0.3767(3)
H7 H -0.0739(5) -0.1008(4) 0.2617(3)
H8 H 0.0548(5) 0.0977(4) 0.2651(2)
H9 H 0.5797(4) 0.9220(3) 0.4240(2)
H10 H 0.5481(5) 1.1310(4) 0.1862(2)
H11 H 0.4722(6) 0.9365(4) 0.1417(2)
H12 H 0.4494(5) 0.7287(4) 0.2410(2)
H13 H 0.1333(5) 0.5050(4) 0.2746(2)
H14 H -0.1954(6) 0.6938(5) 0.1147(3)
H15 H 0.0071(6) 0.6652(5) -0.0042(3)
H16 H 0.2785(6) 0.5524(5) 0.0157(3)
Er1 Er 0.44806(2) 0.34604(1) 0.37718(1)
O14 O 0.7348(3) 0.3785(3) 0.3506(2)
O15 O 0.1814(3) 0.4458(3) 0.4333(2)
O4A O 0.5508(4) 0.4222(2) 0.6129(2)
Er1A Er 0.55194(2) 0.65396(1) 0.62282(1)
O1A O 0.7012(3) 0.8537(2) 0.5492(2)
C6A C 0.7675(4) 0.8549(3) 0.6156(2)
O2A O 0.7527(3) 0.7632(3) 0.6808(2)
O3A O 0.4861(4) 0.6998(3) 0.4872(2)
C12A C 0.4810(4) 0.6838(3) 0.4111(2)
O5A O 0.5581(3) 0.5515(3) 0.7604(2)
C18A C 0.5968(5) 0.5536(4) 0.8342(2)
O6A O 0.5027(4) 0.6086(4) 0.8929(2)
C13A C 0.7687(5) 0.4820(4) 0.8519(2)
C14A C 0.8916(5) 0.4628(4) 0.7833(2)
N3A N 1.0468(4) 0.4000(3) 0.7963(2)
O9A O 1.1640(3) 0.3832(3) 0.7289(2)
C15A C 1.0848(6) 0.3520(5) 0.8771(3)
C16A C 0.9651(6) 0.3691(5) 0.9470(3)
C17A C 0.8052(6) 0.4347(5) 0.9356(3)
H16A H 0.7215(6) 0.4476(5) 0.9843(3)
H15A H 0.9929(6) 0.3348(5) 1.0042(3)
H14A H 1.1954(6) 0.3062(5) 0.8853(3)
H13A H 0.8667(5) 0.4950(4) 0.7254(2)
O8_2 O 0.3819(3) 0.8484(2) 0.6684(2)
O14A O 0.2652(3) 0.6215(3) 0.6494(2)
H1A H 0.1803(3) 0.6888(3) 0.6743(2)
H2A H 0.2318(3) 0.5297(3) 0.6644(2)
O15A O 0.8186(3) 0.5542(3) 0.5667(2)
H3A H 0.8866(3) 0.6190(3) 0.5315(2)
H4A H 0.8212(3) 0.4749(3) 0.5377(2)
C1A C 0.8599(4) 0.9750(3) 0.6189(2)
C2A C 0.8542(4) 1.0869(3) 0.5523(2)
N1A N 0.9279(3) 1.1999(3) 0.5558(2)
O7A O 0.9190(3) 1.3087(2) 0.4922(2)
C3A C 1.0091(5) 1.2060(4) 0.6229(3)
C4A C 1.0169(5) 1.0962(4) 0.6904(3)
C5A C 0.9412(5) 0.9796(4) 0.6886(2)
H8A H 0.9452(5) 0.9023(4) 0.7349(2)
H7A H 1.0739(5) 1.1008(4) 0.7383(3)
H6A H 1.0614(5) 1.2870(4) 0.6233(3)
H5A H 0.7972(4) 1.0846(3) 0.5041(2)
C7A C 0.4926(4) 0.1920(3) 0.6572(2)
Er1A_2 Er 0.55194(2) -0.34604(1) 0.62282(1)
Er1_2 Er 0.44806(2) 1.34604(1) 0.37718(1)
C8A C 0.4440(4) 0.0756(3) 0.6337(2)
C11A C 0.5218(5) 0.1897(4) 0.7416(2)
O8A O 0.6181(3) 0.1516(2) 0.3316(2)
O8A_2 O 0.6181(3) 1.1516(2) 0.3316(2)
N2A N 0.4285(4) -0.0400(3) 0.6919(2)
H9A H 0.4203(4) 0.0780(3) 0.5760(2)
C10A C 0.5060(6) 0.0678(4) 0.8001(2)
H12A H 0.5506(5) 0.2713(4) 0.7590(2)
C9A C 0.4608(5) -0.0461(4) 0.7739(2)
H11A H 0.5278(6) 0.0635(4) 0.8583(2)
H10A H 0.4519(5) -0.1310(4) 0.8138(2)
O10 O 0.8191(4) 0.2985(4) 0.1651(2)
H17 H 0.8086(4) 0.2900(4) 0.2269(2)
H18 H 0.8947(4) 0.3641(4) 0.1398(2)
O11 O 0.9324(5) 0.0396(4) 0.1113(2)
H19 H 1.0479(5) 0.0361(4) 0.0874(2)
H20 H 0.9211(5) -0.0329(4) 0.1600(2)
O12 O 0.7454(5) -0.0017(5) -0.0149(3)
H21 H 0.8106(5) 0.0065(5) -0.0709(3)
H22 H 0.7095(5) -0.0926(5) -0.0013(3)
O13 O 0.4640(6) 0.2131(5) -0.0100(3)
H23 H 0.3633(6) 0.1720(5) 0.0082(3)
H24 H 0.4594(6) 0.2666(5) -0.0664(3)
loop_
_geom_bond_atom_site_label_1
_geom_bond_atom_site_label_2
_geom_bond_site_symmetry_1
_geom_bond_site_symmetry_2
O1 C6 1_555 1_555
O2 C6 1_555 1_555
O3 C12 1_555 1_555
O4 Er1 1_555 1_555
O5 C18 1_555 1_555
O6 C18 1_555 1_555
O7 N1 1_555 1_555
O8 Er1A_2 1_555 1_555
O9 N3 1_555 1_555
N1 C2 1_555 1_555
N2 C8 1_555 1_555
N3 C14 1_555 1_555
C1 C2 1_555 1_555
C2 H5 1_555 1_555
C3 N1 1_555 1_555
C4 C3 1_555 1_555
C5 C1 1_555 1_555
C6 C1 1_555 1_555
C7 C8 1_555 1_555
C8 H9 1_555 1_555
C9 N2 1_555 1_555
C10 C9 1_555 1_555
C11 C7 1_555 1_555
C12 O4A 1_555 1_555
C13 C14 1_555 1_555
C14 H13 1_555 1_555
C15 N3 1_555 1_555
C16 C15 1_555 1_555
C17 C13 1_555 1_555
C18 C13 1_555 1_555
O10 H17 1_555 1_555
O11 H19 1_555 1_555
O12 H21 1_555 1_555
O13 H23 1_555 1_555
H1 O14 1_555 1_555
H2 O14 1_555 1_555
H3 O15 1_555 1_555
H4 O15 1_555 1_555
H6 C3 1_555 1_555
H7 C4 1_555 1_555
H8 C5 1_555 1_555
H10 C9 1_555 1_555
H11 C10 1_555 1_555
H12 C11 1_555 1_555
H14 C15 1_555 1_555
H15 C16 1_555 1_555
H16 C17 1_555 1_555
H18 O10 1_555 1_555
H20 O11 1_555 1_555
H22 O12 1_555 1_555
H24 O13 1_555 1_555
Er1 O1 1_555 1_555
O14 Er1 1_555 1_555
O15 Er1 1_555 1_555
O4A Er1A 1_555 1_555
Er1A O1A 1_555 1_555
O1A C6A 1_555 1_555
C6A O2A 1_555 1_555
O2A Er1A 1_555 1_555
O3A Er1A 1_555 1_555
C12A O4 1_555 1_555
O5A Er1A 1_555 1_555
C18A O5A 1_555 1_555
O6A C18A 1_555 1_555
C13A C18A 1_555 1_555
C14A C13A 1_555 1_555
N3A C14A 1_555 1_555
O9A N3A 1_555 1_555
C15A N3A 1_555 1_555
C16A C15A 1_555 1_555
C17A C13A 1_555 1_555
H16A C17A 1_555 1_555
H15A C16A 1_555 1_555
H14A C15A 1_555 1_555
H13A C14A 1_555 1_555
O8_2 Er1A 1_555 1_555
O14A Er1A 1_555 1_555
H1A O14A 1_555 1_555
H2A O14A 1_555 1_555
O15A Er1A 1_555 1_555
H3A O15A 1_555 1_555
H4A O15A 1_555 1_555
C1A C6A 1_555 1_555
C2A C1A 1_555 1_555
N1A C2A 1_555 1_555
O7A N1A 1_555 1_555
C3A N1A 1_555 1_555
C4A C3A 1_555 1_555
C5A C1A 1_555 1_555
H8A C5A 1_555 1_555
H7A C4A 1_555 1_555
H6A C3A 1_555 1_555
H5A C2A 1_555 1_555
C7A C12 1_555 1_555
Er1_2 O8A_2 1_555 1_555
C8A C7A 1_555 1_555
C11A C7A 1_555 1_555
O8A Er1 1_555 1_555
O8A_2 N2 1_555 1_555
N2A O8 1_555 1_555
H9A C8A 1_555 1_555
C10A C11A 1_555 1_555
H12A C11A 1_555 1_555
C9A N2A 1_555 1_555
H11A C10A 1_555 1_555
H10A C9A 1_555 1_555
O2 Er1 1_555 1_555
O3 Er1 1_555 1_555
O5 Er1 1_555 1_555
C4 C5 1_555 1_555
C7 C12A 1_555 1_555
C10 C11 1_555 1_555
C16 C17 1_555 1_555
O3A C12A 1_555 1_555
C16A C17A 1_555 1_555
C4A C5A 1_555 1_555
C8A N2A 1_555 1_555
C10A C9A 1_555 1_555

#END
