
#######################################################################
#
#                 Cambridge Crystallographic Data Centre
#                                CCDC 
#
#######################################################################
#
# If this CIF has been generated from an entry in the Cambridge 
# Structural Database, then it will include bibliographic, chemical, 
# crystal, experimental, refinement or atomic coordinate data resulting 
# from the CCDC's data processing and validation procedures.
#
#######################################################################

data_DAFJUP
_symmetry_cell_setting           orthorhombic
_symmetry_space_group_name_H-M   'C c c m'
_symmetry_Int_Tables_number      66
_space_group_name_Hall           '-C 2 2n'
loop_
_symmetry_equiv_pos_site_id
_symmetry_equiv_pos_as_xyz
1 x,y,z
2 -x,-y,z
3 x,-y,1/2-z
4 -x,y,1/2-z
5 1/2+x,1/2+y,z
6 1/2-x,1/2-y,z
7 1/2+x,1/2-y,1/2-z
8 1/2-x,1/2+y,1/2-z
9 -x,-y,-z
10 x,y,-z
11 -x,y,1/2+z
12 x,-y,1/2+z
13 1/2-x,1/2-y,-z
14 1/2+x,1/2+y,-z
15 1/2-x,1/2+y,1/2+z
16 1/2+x,1/2-y,1/2+z
_cell_length_a                   10.558(1)
_cell_length_b                   16.829(2)
_cell_length_c                   10.491(3)
_cell_angle_alpha                90
_cell_angle_beta                 90
_cell_angle_gamma                90
_cell_volume                     1864.05
loop_
_atom_site_label
_atom_site_type_symbol
_atom_site_fract_x
_atom_site_fract_y
_atom_site_fract_z
O4 O 0.0000 0.5000 -0.1957(22)
O4B O 0.0000 0.5000 -0.3043(22)
Eu1 Eu 0.0000 0.0000 0.2500
O1 O -0.0578(7) 0.1001(3) 0.1048(6)
C1 C -0.0645(10) 0.1325(5) 0.0000
C2 C -0.0854(11) 0.2211(6) 0.0000
C3 C -0.0964(13) 0.2630(6) 0.1093(17)
C4 C -0.1131(19) 0.3443(8) 0.1100(23)
N1 N -0.1236(17) 0.3801(10) 0.0000
O2 O -0.1378(14) 0.4598(6) 0.0000
O3 O 0.1952(6) 0.0546(3) 0.1561(6)
H1 H -0.0951(13) 0.2354(6) 0.1893(17)
H2 H -0.1179(19) 0.3744(8) 0.1875(23)
H3 H 0.2487(6) 0.0649(6) 0.2283(6)
H4 H 0.2286(6) 0.0105(3) 0.1086(6)
O1I O -0.0578(7) 0.1001(3) -0.1048(6)
Eu1I Eu 0.0000 0.0000 -0.2500
O1H O 0.0578(7) -0.1001(3) -0.1048(6)
C1H C 0.0645(10) -0.1325(5) 0.0000
O1A O 0.0578(7) -0.1001(3) 0.1048(6)
O1B O -0.0578(7) -0.1001(3) 0.3952(6)
O1C O 0.0578(7) 0.1001(3) 0.3952(6)
O3A O -0.1952(6) -0.0546(3) 0.1561(6)
H3A H -0.2487(6) -0.0649(6) 0.2283(6)
H4A H -0.2286(6) -0.0105(3) 0.1086(6)
O3B O 0.1952(6) -0.0546(3) 0.3439(6)
H3B H 0.2487(6) -0.0649(6) 0.2717(6)
H4B H 0.2286(6) -0.0105(3) 0.3914(6)
O3C O -0.1952(6) 0.0546(3) 0.3439(6)
H3C H -0.2487(6) 0.0649(6) 0.2717(6)
H4C H -0.2286(6) 0.0105(3) 0.3914(6)
C2H C 0.0854(11) -0.2211(6) 0.0000
C3H C 0.0964(13) -0.2630(6) -0.1093(17)
C4H C 0.1131(19) -0.3443(8) -0.1100(23)
N1H N 0.1236(17) -0.3801(10) 0.0000
C4A C 0.1131(19) -0.3443(8) 0.1100(23)
C3A C 0.0964(13) -0.2630(6) 0.1093(17)
H1A H 0.0951(13) -0.2354(6) 0.1893(17)
H2A H 0.1179(19) -0.3744(8) 0.1875(23)
O2H O 0.1378(14) -0.4598(6) 0.0000
H2H H 0.1179(19) -0.3744(8) -0.1875(23)
H1H H 0.0951(13) -0.2354(6) -0.1893(17)
C4I C -0.1131(19) 0.3443(8) -0.1100(23)
C3I C -0.0964(13) 0.2630(6) -0.1093(17)
H1I H -0.0951(13) 0.2354(6) -0.1893(17)
H2I H -0.1179(19) 0.3744(8) -0.1875(23)
N2? N 0.2500 0.2500 0.0000
O5? O 0.2349(36) 0.1784(9) 0.0000
O6? O 0.2578(22) 0.2892(9) 0.1007(19)
loop_
_geom_bond_atom_site_label_1
_geom_bond_atom_site_label_2
_geom_bond_site_symmetry_1
_geom_bond_site_symmetry_2
Eu1 O1 1_555 1_555
O1 C1 1_555 1_555
C1 C2 1_555 1_555
C2 C3 1_555 1_555
C3 C4 1_555 1_555
C4 N1 1_555 1_555
N1 O2 1_555 1_555
O3 Eu1 1_555 1_555
O4 O4B 1_555 1_555
H1 C3 1_555 1_555
H2 C4 1_555 1_555
H3 O3 1_555 1_555
H4 O3 1_555 1_555
O1I C1 1_555 1_555
Eu1I O1I 1_555 1_555
O1H Eu1I 1_555 1_555
C1H O1H 1_555 1_555
O1A Eu1 1_555 1_555
O1B Eu1 1_555 1_555
O1C Eu1 1_555 1_555
O3A Eu1 1_555 1_555
H3A O3A 1_555 1_555
H4A O3A 1_555 1_555
O3B Eu1 1_555 1_555
H3B O3B 1_555 1_555
H4B O3B 1_555 1_555
O3C Eu1 1_555 1_555
H3C O3C 1_555 1_555
H4C O3C 1_555 1_555
C2H C1H 1_555 1_555
C3H C2H 1_555 1_555
C4H C3H 1_555 1_555
N1H C4H 1_555 1_555
C4A N1H 1_555 1_555
C3A C2H 1_555 1_555
H1A C3A 1_555 1_555
H2A C4A 1_555 1_555
O2H N1H 1_555 1_555
H2H C4H 1_555 1_555
H1H C3H 1_555 1_555
C4I N1 1_555 1_555
C3I C2 1_555 1_555
H1I C3I 1_555 1_555
H2I C4I 1_555 1_555
C1H O1A 1_555 1_555
C4A C3A 1_555 1_555
C4I C3I 1_555 1_555

#END
