
#######################################################################
#
#                 Cambridge Crystallographic Data Centre
#                                CCDC 
#
#######################################################################
#
# If this CIF has been generated from an entry in the Cambridge 
# Structural Database, then it will include bibliographic, chemical, 
# crystal, experimental, refinement or atomic coordinate data resulting 
# from the CCDC's data processing and validation procedures.
#
#######################################################################

data_DAFSOT
_symmetry_cell_setting           monoclinic
_symmetry_space_group_name_H-M   'P 21/c'
_symmetry_Int_Tables_number      14
_space_group_name_Hall           '-P 2ybc'
loop_
_symmetry_equiv_pos_site_id
_symmetry_equiv_pos_as_xyz
1 x,y,z
2 x,1/2-y,1/2+z
3 -x,-y,-z
4 -x,1/2+y,1/2-z
_cell_length_a                   6.7350(2)
_cell_length_b                   10.8050(4)
_cell_length_c                   14.0540(5)
_cell_angle_alpha                90
_cell_angle_beta                 103.240(2)
_cell_angle_gamma                90
_cell_volume                     995.548
loop_
_atom_site_label
_atom_site_type_symbol
_atom_site_fract_x
_atom_site_fract_y
_atom_site_fract_z
Tl1 Tl 0.59530(4) 0.00964(2) 0.361385(19)
O1 O 0.6346(9) 0.1273(4) 0.5262(4)
O2 O 0.7383(8) 0.2238(5) 0.4072(3)
N1 N 0.7459(10) 0.4505(6) 0.7020(4)
N2 N 0.7272(11) 0.2389(5) 0.7051(5)
H1 H 0.7314 0.2440 0.7680
H2 H 0.7190 0.1661 0.6764
C1 C 0.6997(11) 0.2229(6) 0.4909(5)
C2 C 0.7331(12) 0.3401(7) 0.5506(5)
C3 C 0.7567(12) 0.4515(7) 0.5051(5)
H3 H 0.7586 0.4531 0.4377
C4 C 0.7772(14) 0.5601(8) 0.5586(6)
H4 H 0.7975 0.6365 0.5288
C5 C 0.7681(13) 0.5565(7) 0.6548(6)
H5 H 0.7779 0.6322 0.6900
C6 C 0.7334(11) 0.3427(6) 0.6526(5)
C7 C 0.3130(13) 0.0926(7) 0.2915(6)
H6 H 0.2289 0.0321 0.2483
H7 H 0.3389 0.1640 0.2531
H8 H 0.2413 0.1200 0.3411
C8 C 0.8413(13) -0.1110(7) 0.4176(6)
H9 H 0.8576 -0.1195 0.4884
H10 H 0.9668 -0.0770 0.4039
H11 H 0.8136 -0.1923 0.3865
N1A N 0.7459(10) 0.0495(6) 0.2020(4)
Tl1A Tl 0.59530(4) 0.49036(2) 0.861385(19)
loop_
_geom_bond_atom_site_label_1
_geom_bond_atom_site_label_2
_geom_bond_site_symmetry_1
_geom_bond_site_symmetry_2
Tl1 O1 1_555 1_555
O1 C1 1_555 1_555
O2 Tl1 1_555 1_555
N1 C5 1_555 1_555
N2 H1 1_555 1_555
H2 N2 1_555 1_555
C1 O2 1_555 1_555
C2 C1 1_555 1_555
C3 C2 1_555 1_555
H3 C3 1_555 1_555
C4 C3 1_555 1_555
H4 C4 1_555 1_555
C5 C4 1_555 1_555
H5 C5 1_555 1_555
C6 N1 1_555 1_555
C7 Tl1 1_555 1_555
H6 C7 1_555 1_555
H7 C7 1_555 1_555
H8 C7 1_555 1_555
C8 Tl1 1_555 1_555
H9 C8 1_555 1_555
H10 C8 1_555 1_555
H11 C8 1_555 1_555
N1A Tl1 1_555 1_555
Tl1A N1 1_555 1_555
N2 C6 1_555 1_555
C2 C6 1_555 1_555

#END
