
#######################################################################
#
#                 Cambridge Crystallographic Data Centre
#                                CCDC 
#
#######################################################################
#
# If this CIF has been generated from an entry in the Cambridge 
# Structural Database, then it will include bibliographic, chemical, 
# crystal, experimental, refinement or atomic coordinate data resulting 
# from the CCDC's data processing and validation procedures.
#
#######################################################################

data_DAFWEN
_symmetry_cell_setting           triclinic
_symmetry_space_group_name_H-M   'P -1'
_symmetry_Int_Tables_number      2
_space_group_name_Hall           '-P 1'
loop_
_symmetry_equiv_pos_site_id
_symmetry_equiv_pos_as_xyz
1 x,y,z
2 -x,-y,-z
_cell_length_a                   6.4779(13)
_cell_length_b                   8.0458(16)
_cell_length_c                   11.314(2)
_cell_angle_alpha                93.19(3)
_cell_angle_beta                 91.06(3)
_cell_angle_gamma                95.47(3)
_cell_volume                     585.921
loop_
_atom_site_label
_atom_site_type_symbol
_atom_site_fract_x
_atom_site_fract_y
_atom_site_fract_z
Cu1 Cu 1.0000 0.0000 1.0000
H3 H 0.641(8) 0.497(7) 0.899(5)
H5 H 0.898(8) 0.361(6) 0.988(4)
O1 O 0.8025(4) -0.1809(3) 0.9335(3)
O3 O 0.5194(5) -0.2270(4) 0.8178(3)
O4 O 0.1494(4) -0.0167(4) 0.8058(3)
O5 O 0.3229(5) 0.0302(4) 0.6421(3)
N1 N 0.7962(5) 0.1430(4) 0.9375(3)
N2 N 0.4863(6) 0.2993(4) 0.8298(3)
C1 C 0.6389(6) 0.0530(5) 0.8772(3)
C2 C 0.4841(6) 0.1311(5) 0.8235(3)
C3 C 0.6430(7) 0.3852(5) 0.8915(4)
C4 C 0.7966(7) 0.3086(5) 0.9456(4)
C5 C 0.6517(6) -0.1349(5) 0.8743(4)
C6 C 0.3038(6) 0.0385(5) 0.7520(4)
H3A H 1.359(8) -0.497(7) 1.101(5)
H5A H 1.102(8) -0.361(6) 1.012(4)
O1A O 1.1975(4) 0.1809(3) 1.0665(3)
O3A O 1.4806(5) 0.2270(4) 1.1822(3)
O4A O 1.8506(4) 0.0167(4) 1.1942(3)
O5A O 1.6771(5) -0.0302(4) 1.3579(3)
N1A N 1.2038(5) -0.1430(4) 1.0625(3)
N2A N 1.5137(6) -0.2993(4) 1.1702(3)
C1A C 1.3611(6) -0.0530(5) 1.1228(3)
C2A C 1.5159(6) -0.1311(5) 1.1765(3)
C3A C 1.3570(7) -0.3852(5) 1.1085(4)
C4A C 1.2034(7) -0.3086(5) 1.0544(4)
C5A C 1.3483(6) 0.1349(5) 1.1257(4)
C6A C 1.6962(6) -0.0385(5) 1.2480(4)
O4_2 O 1.1494(4) -0.0167(4) 0.8058(3)
O4A_2 O 0.8506(4) 0.0167(4) 1.1942(3)
Cu1_2 Cu 0.0000 0.0000 1.0000
Cu1_3 Cu 2.0000 0.0000 1.0000
H1 H 0.596(12) 0.170(10) 0.442(7)
H2 H 0.479(10) 0.173(8) 0.552(5)
O2 O 0.5428(6) 0.2452(5) 0.4980(4)
H4 H 1.039(11) 0.757(9) 0.724(6)
H6 H 0.770(10) 0.401(9) 0.581(6)
H9 H 0.752(9) 0.660(8) 0.618(5)
H10 H 1.057(12) 0.298(10) 0.649(7)
H11 H 1.255(11) 0.551(9) 0.758(6)
N3 N 1.0157(7) 0.6640(6) 0.7014(4)
N4 N 0.8507(7) 0.4469(6) 0.6181(4)
C7 C 0.8461(9) 0.6086(7) 0.6409(5)
C8 C 1.0290(10) 0.3993(8) 0.6657(5)
C9 C 1.1310(9) 0.5354(8) 0.7173(5)
O6 O 0.8889(12) 0.0045(12) 0.5777(7)
H7? H 0.96(2) -0.07(2) 0.523(15)
H8? H 0.98(2) 0.081(19) 0.516(14)
loop_
_geom_bond_atom_site_label_1
_geom_bond_atom_site_label_2
_geom_bond_site_symmetry_1
_geom_bond_site_symmetry_2
Cu1 O1 1_555 1_555
H1 O2 1_555 1_555
H2 O2 1_555 1_555
H3 C3 1_555 1_555
H4 N3 1_555 1_555
H5 C4 1_555 1_555
H6 N4 1_555 1_555
H9 C7 1_555 1_555
H10 C8 1_555 1_555
H11 C9 1_555 1_555
O1 C5 1_555 1_555
O3 C5 1_555 1_555
O4 C6 1_555 1_555
O5 C6 1_555 1_555
N1 Cu1 1_555 1_555
N2 C2 1_555 1_555
N3 C7 1_555 1_555
N4 C7 1_555 1_555
C1 N1 1_555 1_555
C2 C1 1_555 1_555
C3 N2 1_555 1_555
C4 N1 1_555 1_555
C5 C1 1_555 1_555
C6 C2 1_555 1_555
C8 N4 1_555 1_555
C9 N3 1_555 1_555
H3A C3A 1_555 1_555
H5A C4A 1_555 1_555
O1A Cu1 1_555 1_555
O3A C5A 1_555 1_555
O4A C6A 1_555 1_555
O5A C6A 1_555 1_555
N1A Cu1 1_555 1_555
N2A C2A 1_555 1_555
C1A N1A 1_555 1_555
C2A C1A 1_555 1_555
C3A N2A 1_555 1_555
C4A N1A 1_555 1_555
C5A O1A 1_555 1_555
C6A C2A 1_555 1_555
O4_2 Cu1 1_555 1_555
O4A_2 Cu1 1_555 1_555
Cu1_2 O4 1_555 1_555
Cu1_3 O4A 1_555 1_555
C3 C4 1_555 1_555
C8 C9 1_555 1_555
C1A C5A 1_555 1_555
C3A C4A 1_555 1_555

#END
