
#######################################################################
#
#                 Cambridge Crystallographic Data Centre
#                                CCDC 
#
#######################################################################
#
# If this CIF has been generated from an entry in the Cambridge 
# Structural Database, then it will include bibliographic, chemical, 
# crystal, experimental, refinement or atomic coordinate data resulting 
# from the CCDC's data processing and validation procedures.
#
#######################################################################

data_DAFZAM
_symmetry_cell_setting           monoclinic
_symmetry_space_group_name_H-M   'P 21/c'
_symmetry_Int_Tables_number      14
_space_group_name_Hall           '-P 2ybc'
loop_
_symmetry_equiv_pos_site_id
_symmetry_equiv_pos_as_xyz
1 x,y,z
2 x,1/2-y,1/2+z
3 -x,-y,-z
4 -x,1/2+y,1/2-z
_cell_length_a                   13.243(8)
_cell_length_b                   17.090(10)
_cell_length_c                   8.978(5)
_cell_angle_alpha                90
_cell_angle_beta                 108.489(11)
_cell_angle_gamma                90
_cell_volume                     1927.05
loop_
_atom_site_label
_atom_site_type_symbol
_atom_site_fract_x
_atom_site_fract_y
_atom_site_fract_z
Zn1 Zn 0.71902(6) 0.49372(4) 0.62002(9)
S1 S 0.77513(15) 0.58379(12) 1.2223(2)
S2 S 0.49786(16) 0.31202(10) 0.2464(2)
O1 O 0.7656(4) 0.5888(3) 0.8842(6)
O2 O 0.6776(4) 0.4785(3) 0.8093(5)
O3 O 0.6430(4) 0.4134(2) 0.4683(5)
O4 O 0.7265(4) 0.3246(2) 0.6428(5)
N1 N 1.1239(4) 0.5201(3) 1.3467(6)
N2 N 0.3459(4) 0.0917(3) -0.0034(6)
C1 C 1.0891(5) 0.5728(4) 1.4290(7)
H1 H 1.1377 0.5973 1.5144
C2 C 0.9825(6) 0.5916(4) 1.3902(8)
H2 H 0.9603 0.6288 1.4486
C3 C 0.9090(5) 0.5553(4) 1.2653(8)
C4 C 0.9450(5) 0.4994(4) 1.1853(8)
H3 H 0.8977 0.4720 1.1029
C5 C 1.0511(6) 0.4848(3) 1.2288(8)
H4 H 1.0746 0.4474 1.1720
C6 C 0.7044(6) 0.5192(4) 1.0681(8)
H5 H 0.6291 0.5235 1.0556
H6 H 0.7259 0.4661 1.1011
C7 C 0.7184(5) 0.5318(4) 0.9104(8)
C8 C 0.4358(5) 0.0880(4) 0.1142(8)
H7 H 0.4672 0.0391 0.1408
C9 C 0.4865(6) 0.1515(4) 0.2004(8)
H8 H 0.5488 0.1449 0.2841
C10 C 0.4438(5) 0.2245(3) 0.1607(7)
C11 C 0.3481(6) 0.2285(4) 0.0366(8)
H9 H 0.3153 0.2768 0.0075
C12 C 0.3023(6) 0.1632(3) -0.0422(8)
H10 H 0.2392 0.1678 -0.1252
C13 C 0.6099(6) 0.2781(4) 0.4028(8)
H11 H 0.5868 0.2379 0.4611
H12 H 0.6612 0.2548 0.3592
C14 C 0.6630(5) 0.3434(3) 0.5137(7)
N1B N 0.8761(4) 0.4799(3) 0.6533(6)
N2C N 0.6541(4) 0.5917(3) 0.5034(6)
Zn1B Zn 1.28098(6) 0.50628(4) 1.37998(9)
Zn1C Zn 0.28098(6) -0.00628(4) -0.12002(9)
O5 O 0.0774(6) 0.3046(3) 1.0258(8)
H13 H 0.0784 0.3430 0.9611
H14 H 0.0575 0.2601 0.9833
O6 O 0.0322(5) 0.2053(3) 0.7952(7)
H15 H 0.0109 0.2203 0.6994
H16 H -0.0156 0.1905 0.8341
O7 O 0.1376(5) 0.6426(3) 0.0617(6)
H17 H 0.1756 0.6660 0.1442
H18 H 0.0699 0.6455 0.0417
O8 O 0.1892(5) 0.6723(3) 0.7942(7)
H19 H 0.1208 0.6612 0.7752
H20 H 0.2046 0.7209 0.7981
loop_
_geom_bond_atom_site_label_1
_geom_bond_atom_site_label_2
_geom_bond_site_symmetry_1
_geom_bond_site_symmetry_2
Zn1 O2 1_555 1_555
S1 C3 1_555 1_555
S2 C10 1_555 1_555
O1 C7 1_555 1_555
O2 C7 1_555 1_555
O3 Zn1 1_555 1_555
O4 C14 1_555 1_555
N1 C1 1_555 1_555
N2 C8 1_555 1_555
C1 H1 1_555 1_555
C2 C1 1_555 1_555
H2 C2 1_555 1_555
C3 C2 1_555 1_555
C4 C3 1_555 1_555
H3 C4 1_555 1_555
C5 N1 1_555 1_555
H4 C5 1_555 1_555
C6 S1 1_555 1_555
H5 C6 1_555 1_555
H6 C6 1_555 1_555
C7 C6 1_555 1_555
C8 H7 1_555 1_555
C9 C8 1_555 1_555
H8 C9 1_555 1_555
C10 C9 1_555 1_555
C11 C10 1_555 1_555
H9 C11 1_555 1_555
C12 N2 1_555 1_555
H10 C12 1_555 1_555
C13 S2 1_555 1_555
H11 C13 1_555 1_555
H12 C13 1_555 1_555
C14 O3 1_555 1_555
O5 H13 1_555 1_555
H14 O5 1_555 1_555
O6 H15 1_555 1_555
H16 O6 1_555 1_555
O7 H17 1_555 1_555
H18 O7 1_555 1_555
O8 H19 1_555 1_555
H20 O8 1_555 1_555
N1B Zn1 1_555 1_555
N2C Zn1 1_555 1_555
Zn1B N1 1_555 1_555
Zn1C N2 1_555 1_555
C4 C5 1_555 1_555
C11 C12 1_555 1_555
C13 C14 1_555 1_555

#END
