
#######################################################################
#
#                 Cambridge Crystallographic Data Centre
#                                CCDC 
#
#######################################################################
#
# If this CIF has been generated from an entry in the Cambridge 
# Structural Database, then it will include bibliographic, chemical, 
# crystal, experimental, refinement or atomic coordinate data resulting 
# from the CCDC's data processing and validation procedures.
#
#######################################################################

data_DAFZIU
_symmetry_cell_setting           monoclinic
_symmetry_space_group_name_H-M   'C 2/c'
_symmetry_Int_Tables_number      15
_space_group_name_Hall           '-C 2yn'
loop_
_symmetry_equiv_pos_site_id
_symmetry_equiv_pos_as_xyz
1 x,y,z
2 1/2+x,1/2+y,z
3 x,-y,1/2+z
4 1/2+x,1/2-y,1/2+z
5 -x,-y,-z
6 1/2-x,1/2-y,-z
7 -x,y,1/2-z
8 1/2-x,1/2+y,1/2-z
_cell_length_a                   11.434(6)
_cell_length_b                   21.768(11)
_cell_length_c                   7.710(4)
_cell_angle_alpha                90
_cell_angle_beta                 126.711(6)
_cell_angle_gamma                90
_cell_volume                     1538.37
loop_
_atom_site_label
_atom_site_type_symbol
_atom_site_fract_x
_atom_site_fract_y
_atom_site_fract_z
Pb1 Pb 1.0000 0.945685(9) 1.2500
S1 S 0.66516(11) 0.80115(5) 0.57267(16)
O1 O 0.8548(4) 0.95149(13) 0.8039(5)
O2 O 0.9447(3) 0.86496(12) 0.9872(4)
N1 N 0.2532(4) 0.89720(15) 0.3884(5)
C1 C 0.3678(5) 0.92984(19) 0.4367(8)
H1 H 0.3597 0.9724 0.4297
C2 C 0.4973(5) 0.9046(2) 0.4963(7)
H2 H 0.5733 0.9298 0.5274
C3 C 0.5134(4) 0.84200(17) 0.5093(5)
C4 C 0.3952(4) 0.80729(18) 0.4616(6)
H3 H 0.4011 0.7646 0.4698
C5 C 0.2709(4) 0.83626(18) 0.4030(6)
H4 H 0.1932 0.8121 0.3710
C6 C 0.7891(4) 0.85883(19) 0.6042(6)
H5 H 0.8610 0.8391 0.5944
H6 H 0.7348 0.8874 0.4844
C7 C 0.8687(4) 0.89499(17) 0.8133(6)
S1F S 1.33484(11) 0.80115(5) 1.92733(16)
O1F O 1.1452(4) 0.95149(13) 1.6961(5)
O2F O 1.0553(3) 0.86496(12) 1.5128(4)
N1F N 1.7468(4) 0.89720(15) 2.1116(5)
C1F C 1.6322(5) 0.92984(19) 2.0633(8)
H1F H 1.6403 0.9724 2.0703
C2F C 1.5027(5) 0.9046(2) 2.0037(7)
H2F H 1.4267 0.9298 1.9726
C3F C 1.4866(4) 0.84200(17) 1.9907(5)
C4F C 1.6048(4) 0.80729(18) 2.0384(6)
H3F H 1.5989 0.7646 2.0302
C5F C 1.7291(4) 0.83626(18) 2.0970(6)
H4F H 1.8068 0.8121 2.1290
C6F C 1.2109(4) 0.85883(19) 1.8958(6)
H5F H 1.1390 0.8391 1.9056
H6F H 1.2652 0.8874 2.0156
C7F C 1.1313(4) 0.89499(17) 1.6867(6)
N1_2 N 1.2532(4) 0.89720(15) 1.3884(5)
N1F_2 N 0.7468(4) 0.89720(15) 1.1116(5)
Pb1_2 Pb 0.0000 0.945685(9) 0.2500
Pb1_3 Pb 2.0000 0.945685(9) 2.2500
loop_
_geom_bond_atom_site_label_1
_geom_bond_atom_site_label_2
_geom_bond_site_symmetry_1
_geom_bond_site_symmetry_2
Pb1 O2 1_555 1_555
S1 C3 1_555 1_555
O1 C7 1_555 1_555
O2 C7 1_555 1_555
N1 C1 1_555 1_555
C1 H1 1_555 1_555
C2 C1 1_555 1_555
H2 C2 1_555 1_555
C3 C2 1_555 1_555
C4 C3 1_555 1_555
H3 C4 1_555 1_555
C5 N1 1_555 1_555
H4 C5 1_555 1_555
C6 S1 1_555 1_555
H5 C6 1_555 1_555
H6 C6 1_555 1_555
C7 C6 1_555 1_555
S1F C3F 1_555 1_555
O1F C7F 1_555 1_555
O2F Pb1 1_555 1_555
N1F C1F 1_555 1_555
C1F H1F 1_555 1_555
C2F C1F 1_555 1_555
H2F C2F 1_555 1_555
C3F C2F 1_555 1_555
C4F C3F 1_555 1_555
H3F C4F 1_555 1_555
C5F N1F 1_555 1_555
H4F C5F 1_555 1_555
C6F S1F 1_555 1_555
H5F C6F 1_555 1_555
H6F C6F 1_555 1_555
C7F O2F 1_555 1_555
N1_2 Pb1 1_555 1_555
N1F_2 Pb1 1_555 1_555
Pb1_2 N1 1_555 1_555
Pb1_3 N1F 1_555 1_555
C4 C5 1_555 1_555
C4F C5F 1_555 1_555
C6F C7F 1_555 1_555

#END
