
#######################################################################
#
#                 Cambridge Crystallographic Data Centre
#                                CCDC 
#
#######################################################################
#
# If this CIF has been generated from an entry in the Cambridge 
# Structural Database, then it will include bibliographic, chemical, 
# crystal, experimental, refinement or atomic coordinate data resulting 
# from the CCDC's data processing and validation procedures.
#
#######################################################################

data_DAGDEV
_symmetry_cell_setting           triclinic
_symmetry_space_group_name_H-M   'P -1'
_symmetry_Int_Tables_number      2
_space_group_name_Hall           '-P 1'
loop_
_symmetry_equiv_pos_site_id
_symmetry_equiv_pos_as_xyz
1 x,y,z
2 -x,-y,-z
_cell_length_a                   8.907(4)
_cell_length_b                   9.145(4)
_cell_length_c                   9.402(3)
_cell_angle_alpha                93.02(3)
_cell_angle_beta                 96.91(5)
_cell_angle_gamma                114.96(3)
_cell_volume                     684.696
loop_
_atom_site_label
_atom_site_type_symbol
_atom_site_fract_x
_atom_site_fract_y
_atom_site_fract_z
Mn1 Mn 1.0000 0.5000 0.5000
Mn2 Mn 1.12156(7) 0.64168(7) 0.86670(6)
N1 N 1.3354(4) 0.3051(5) 0.8744(4)
O1 O 0.9480(3) 0.6999(3) 0.5566(3)
O2 O 0.9643(3) 0.7548(3) 0.7942(3)
O3 O 0.2683(3) 0.6479(3) 0.5751(3)
O4 O 0.3237(3) 0.8061(3) 0.7817(3)
O5 O 0.8868(3) 1.3034(3) 0.9173(3)
O6 O 0.9653(3) 1.4233(3) 0.7240(3)
O7 O 1.2847(4) 0.5260(4) 0.9214(3)
C1 C 0.9221(4) 0.7679(4) 0.6638(4)
C2 C 0.8267(4) 0.8718(4) 0.6331(4)
H1 H 0.8241 0.8892 0.5311
C3 C 0.6455(4) 0.7757(4) 0.6586(4)
H2 H 0.5941 0.6755 0.5938
H3 H 0.6468 0.7474 0.7565
C4 C 0.5383(4) 0.8691(4) 0.6352(4)
H4 H 0.5295 0.8875 0.5334
C5 C 0.3625(4) 0.7670(5) 0.6653(4)
C6 C 0.6255(4) 1.0362(4) 0.7259(4)
H5 H 0.5603 1.0971 0.7054
H6 H 0.6305 1.0216 0.8275
C7 C 0.8030(4) 1.1325(4) 0.6936(4)
H7 H 0.7958 1.1492 0.5913
C8 C 0.9082(4) 1.0382(4) 0.7231(4)
H8 H 1.0195 1.0998 0.7000
H9 H 0.9195 1.0240 0.8247
C9 C 0.8880(4) 1.2976(5) 0.7832(4)
C10 C 1.2724(5) 0.3896(7) 0.9457(4)
H10 H 1.2144 0.3429 1.0197
C11 C 1.4195(6) 0.3672(6) 0.7539(5)
H11 H 1.3925 0.4526 0.7223
H12 H 1.3833 0.2814 0.6763
H13 H 1.5385 0.4090 0.7829
C12 C 1.3277(6) 0.1519(6) 0.9159(5)
H14 H 1.4380 0.1661 0.9560
H15 H 1.2857 0.0724 0.8325
H16 H 1.2544 0.1156 0.9865
O1A O 1.0520(3) 0.3001(3) 0.4434(3)
O2A O 1.0357(3) 0.2452(3) 0.2058(3)
O3A O 1.7317(3) 0.3521(3) 0.4249(3)
O4A O 1.6763(3) 0.1939(3) 0.2183(3)
O5A O 1.1132(3) -0.3034(3) 0.0827(3)
O6A O 1.0347(3) -0.4233(3) 0.2760(3)
C1A C 1.0779(4) 0.2321(4) 0.3362(4)
C2A C 1.1733(4) 0.1282(4) 0.3669(4)
H1A H 1.1759 0.1108 0.4689
C3A C 1.3545(4) 0.2243(4) 0.3414(4)
H2A H 1.4059 0.3245 0.4062
H3A H 1.3532 0.2526 0.2435
C4A C 1.4617(4) 0.1309(4) 0.3648(4)
H4A H 1.4705 0.1125 0.4666
C5A C 1.6375(4) 0.2330(5) 0.3347(4)
C6A C 1.3745(4) -0.0362(4) 0.2741(4)
H5A H 1.4397 -0.0971 0.2946
H6A H 1.3695 -0.0216 0.1725
C7A C 1.1970(4) -0.1325(4) 0.3064(4)
H7A H 1.2042 -0.1492 0.4087
C8A C 1.0918(4) -0.0382(4) 0.2769(4)
H8A H 0.9805 -0.0998 0.3000
H9A H 1.0805 -0.0240 0.1753
C9A C 1.1120(4) -0.2976(5) 0.2168(4)
Mn2A Mn 0.87844(7) 0.35832(7) 0.13330(6)
N1A N 0.6646(4) 0.6949(5) 0.1256(4)
O7A O 0.7153(4) 0.4740(4) 0.0786(3)
C10A C 0.7276(5) 0.6104(7) 0.0543(4)
H10A H 0.7856 0.6571 -0.0197
C11A C 0.5805(6) 0.6328(6) 0.2461(5)
H11A H 0.6075 0.5474 0.2777
H12A H 0.6167 0.7186 0.3237
H13A H 0.4615 0.5910 0.2171
C12A C 0.6723(6) 0.8481(6) 0.0841(5)
H14A H 0.5620 0.8339 0.0440
H15A H 0.7143 0.9276 0.1675
H16A H 0.7456 0.8844 0.0135
O3_2 O 1.2683(3) 0.6479(3) 0.5751(3)
O3A_2 O 0.7317(3) 0.3521(3) 0.4249(3)
O6_2 O 0.9653(3) 0.4233(3) 0.7240(3)
O6A_2 O 1.0347(3) 0.5767(3) 0.2760(3)
O4_2 O 1.3237(3) 0.8061(3) 0.7817(3)
O5A_2 O 1.1132(3) 0.6966(3) 1.0827(3)
Mn1_2 Mn 0.0000 0.5000 0.5000
Mn2_2 Mn 0.12156(7) 0.64168(7) 0.86670(6)
Mn2A_2 Mn 0.87844(7) 1.35832(7) 1.13330(6)
Mn1_3 Mn 1.0000 1.5000 0.5000
Mn2_3 Mn 1.12156(7) 1.64168(7) 0.86670(6)
Mn1_4 Mn 2.0000 0.5000 0.5000
Mn2A_3 Mn 1.87844(7) 0.35832(7) 0.13330(6)
Mn2_4 Mn 1.12156(7) -0.35832(7) -0.13330(6)
Mn1_5 Mn 1.0000 -0.5000 0.5000
Mn2A_4 Mn 0.87844(7) -0.64168(7) 0.13330(6)
O4A_2 O 0.6763(3) 0.1939(3) 0.2183(3)
O5_2 O 0.8868(3) 0.3034(3) -0.0827(3)
loop_
_geom_bond_atom_site_label_1
_geom_bond_atom_site_label_2
_geom_bond_site_symmetry_1
_geom_bond_site_symmetry_2
Mn1 O1 1_555 1_555
Mn2 O2 1_555 1_555
N1 C10 1_555 1_555
O1 C1 1_555 1_555
O2 C1 1_555 1_555
O3 C5 1_555 1_555
O4 C5 1_555 1_555
O5 C9 1_555 1_555
O6 C9 1_555 1_555
O7 Mn2 1_555 1_555
C1 C2 1_555 1_555
C2 H1 1_555 1_555
C3 C2 1_555 1_555
H2 C3 1_555 1_555
H3 C3 1_555 1_555
C4 C3 1_555 1_555
H4 C4 1_555 1_555
C5 C4 1_555 1_555
C6 C4 1_555 1_555
H5 C6 1_555 1_555
H6 C6 1_555 1_555
C7 C6 1_555 1_555
H7 C7 1_555 1_555
C8 C2 1_555 1_555
H8 C8 1_555 1_555
H9 C8 1_555 1_555
C9 C7 1_555 1_555
C10 O7 1_555 1_555
H10 C10 1_555 1_555
C11 N1 1_555 1_555
H11 C11 1_555 1_555
H12 C11 1_555 1_555
H13 C11 1_555 1_555
C12 N1 1_555 1_555
H14 C12 1_555 1_555
H15 C12 1_555 1_555
H16 C12 1_555 1_555
O1A Mn1 1_555 1_555
O2A C1A 1_555 1_555
O3A C5A 1_555 1_555
O4A C5A 1_555 1_555
O5A C9A 1_555 1_555
O6A C9A 1_555 1_555
C1A O1A 1_555 1_555
C2A C1A 1_555 1_555
H1A C2A 1_555 1_555
C3A C2A 1_555 1_555
H2A C3A 1_555 1_555
H3A C3A 1_555 1_555
C4A C3A 1_555 1_555
H4A C4A 1_555 1_555
C5A C4A 1_555 1_555
C6A C4A 1_555 1_555
H5A C6A 1_555 1_555
H6A C6A 1_555 1_555
C7A C6A 1_555 1_555
H7A C7A 1_555 1_555
C8A C2A 1_555 1_555
H8A C8A 1_555 1_555
H9A C8A 1_555 1_555
C9A C7A 1_555 1_555
Mn2A O2A 1_555 1_555
N1A C10A 1_555 1_555
O7A Mn2A 1_555 1_555
C10A O7A 1_555 1_555
H10A C10A 1_555 1_555
C11A N1A 1_555 1_555
H11A C11A 1_555 1_555
H12A C11A 1_555 1_555
H13A C11A 1_555 1_555
C12A N1A 1_555 1_555
H14A C12A 1_555 1_555
H15A C12A 1_555 1_555
H16A C12A 1_555 1_555
O3_2 Mn1 1_555 1_555
O3A_2 Mn1 1_555 1_555
O6_2 Mn1 1_555 1_555
O6A_2 Mn1 1_555 1_555
O4_2 Mn2 1_555 1_555
O5A_2 Mn2 1_555 1_555
Mn1_2 O3 1_555 1_555
Mn2_2 O4 1_555 1_555
Mn2A_2 O5 1_555 1_555
Mn1_3 O6 1_555 1_555
Mn2_3 O6 1_555 1_555
Mn1_4 O3A 1_555 1_555
Mn2A_3 O4A 1_555 1_555
Mn2_4 O5A 1_555 1_555
Mn1_5 O6A 1_555 1_555
Mn2A_4 O6A 1_555 1_555
O4A_2 Mn2A 1_555 1_555
O5_2 Mn2A 1_555 1_555
Mn2 O6_2 1_555 1_555
C7 C8 1_555 1_555
C7A C8A 1_555 1_555
Mn2A O6A_2 1_555 1_555

#END
