
#######################################################################
#
#                 Cambridge Crystallographic Data Centre
#                                CCDC 
#
#######################################################################
#
# If this CIF has been generated from an entry in the Cambridge 
# Structural Database, then it will include bibliographic, chemical, 
# crystal, experimental, refinement or atomic coordinate data resulting 
# from the CCDC's data processing and validation procedures.
#
#######################################################################

data_DAGDIZ
_symmetry_cell_setting           monoclinic
_symmetry_space_group_name_H-M   'P 21/n'
_symmetry_Int_Tables_number      14
_space_group_name_Hall           '-P 2yn'
loop_
_symmetry_equiv_pos_site_id
_symmetry_equiv_pos_as_xyz
1 x,y,z
2 1/2+x,1/2-y,1/2+z
3 -x,-y,-z
4 1/2-x,1/2+y,1/2-z
_cell_length_a                   11.8055(4)
_cell_length_b                   17.0691(7)
_cell_length_c                   15.2668(5)
_cell_angle_alpha                90
_cell_angle_beta                 92.452(2)
_cell_angle_gamma                90
_cell_volume                     3073.58
loop_
_atom_site_label
_atom_site_type_symbol
_atom_site_fract_x
_atom_site_fract_y
_atom_site_fract_z
Cd1 Cd 0.69668(5) 0.12099(4) 0.72823(4)
Cd2 Cd 0.43301(5) 0.17455(4) 0.80611(4)
Cd3 Cd 1.25511(5) 0.30880(4) 1.00839(4)
O1 O 0.5402(5) 0.1909(4) 0.6717(4)
O2 O 1.2837(6) 0.2414(5) 0.7393(4)
O3 O 1.2799(5) 0.2508(5) 0.8801(4)
O4 O 0.5767(5) 0.2266(4) 0.5343(4)
O5 O 0.8236(8) 0.0379(6) 0.7980(8)
O6 O 1.4422(6) 0.3552(6) 0.9842(6)
O7 O 0.4269(9) 0.1136(7) 0.9472(7)
C1 C 0.5117(6) 0.2018(5) 0.5911(6)
C2 C 0.3919(6) 0.1773(6) 0.5580(6)
H1 H 0.3434 0.1759 0.6085
C3 C 0.4005(6) 0.0954(5) 0.5229(5)
H2 H 0.4307 0.0611 0.5688
H3 H 0.4525 0.0947 0.4754
C4 C 1.2364(6) 0.2631(5) 0.8050(6)
C5 C 1.1233(7) 0.3073(6) 0.7955(6)
H4 H 1.0870 0.3052 0.8520
C6 C 1.0450(7) 0.2649(6) 0.7265(6)
H5 H 1.0799 0.2653 0.6701
H6 H 1.0347 0.2108 0.7439
C7 C 0.9295(6) 0.3062(6) 0.7185(5)
H7 H 0.8920 0.3005 0.7742
C8 C 0.9435(7) 0.3932(5) 0.6994(6)
H8 H 0.9698 0.3992 0.6405
H9 H 0.8701 0.4184 0.7014
C9 C 0.3387(7) 0.2348(6) 0.4903(5)
H10 H 0.3876 0.2400 0.4412
H11 H 0.3305 0.2860 0.5168
C10 C 0.2215(7) 0.2037(6) 0.4579(6)
H12 H 0.1730 0.2010 0.5084
C11 C 0.1629(7) 0.2565(6) 0.3885(6)
C12 C 0.2310(7) 0.1217(6) 0.4205(5)
H13 H 0.2772 0.1231 0.3695
H14 H 0.1562 0.1029 0.4019
O10 O 0.2206(5) 0.3022(5) 0.3465(4)
O11 O 0.0576(5) 0.2460(5) 0.3764(5)
C13 C 0.2846(7) 0.0648(6) 0.4893(5)
H15 H 0.2351 0.0640 0.5393
C14 C 0.2939(7) -0.0184(5) 0.4569(6)
O12 O 0.3030(8) -0.0299(5) 0.3772(5)
O13 O 0.2952(7) -0.0694(4) 0.5157(5)
C15 C 1.1387(7) 0.3928(5) 0.7715(6)
H16 H 1.1864 0.4183 0.8163
H17 H 1.1763 0.3963 0.7164
C16 C 0.8590(7) 0.2650(6) 0.6477(6)
C17 C 1.0259(7) 0.4343(6) 0.7632(5)
H18 H 0.9929 0.4325 0.8209
O14 O 0.8265(5) 0.1964(4) 0.6598(4)
O15 O 0.8376(6) 0.2987(4) 0.5755(4)
C18 C 1.0386(7) 0.5208(6) 0.7393(6)
O16 O 0.9506(5) 0.5570(4) 0.7093(4)
O17 O 1.1314(5) 0.5548(4) 0.7477(5)
O10A O 0.7206(5) 0.1978(5) 0.8465(4)
O12B O 0.6970(8) 0.0299(5) 0.6228(5)
O16C O 0.5494(5) 0.0570(4) 0.7907(4)
O2_2 O 0.2837(6) 0.2414(5) 0.7393(4)
O3_2 O 0.2799(5) 0.2508(5) 0.8801(4)
O11A O 0.5576(5) 0.2540(5) 0.8764(5)
O17C O 0.3686(5) 0.0548(4) 0.7523(5)
O4A O 1.0767(5) 0.2734(4) 1.0343(4)
O13C O 1.2048(7) 0.4306(4) 0.9843(5)
O14A O 1.3265(5) 0.3036(4) 1.1598(4)
O15A O 1.3376(6) 0.2013(4) 1.0755(4)
Cd2_2 Cd 1.43301(5) 0.17455(4) 0.80611(4)
Cd3A Cd 0.75511(5) 0.19120(4) 0.50839(4)
Cd1A Cd 0.19668(5) 0.37901(4) 0.22823(4)
Cd2A Cd -0.06699(5) 0.32545(4) 0.30611(4)
Cd1B Cd 0.30332(5) -0.12099(4) 0.27177(4)
Cd3C Cd 0.24489(5) -0.19120(4) 0.49161(4)
Cd1C Cd 0.80332(5) 0.62099(4) 0.77177(4)
Cd2C Cd 1.06699(5) 0.67455(4) 0.69389(4)
O8 O 0.361(2) 0.9662(19) 0.9994(19)
O9 O 0.006(3) 0.025(2) 0.591(2)
loop_
_geom_bond_atom_site_label_1
_geom_bond_atom_site_label_2
_geom_bond_site_symmetry_1
_geom_bond_site_symmetry_2
Cd1 O1 1_555 1_555
Cd2 O1 1_555 1_555
Cd3 O3 1_555 1_555
O1 C1 1_555 1_555
O2 C4 1_555 1_555
O3 C4 1_555 1_555
O4 C1 1_555 1_555
O5 Cd1 1_555 1_555
O6 Cd3 1_555 1_555
O7 Cd2 1_555 1_555
C1 C2 1_555 1_555
C2 H1 1_555 1_555
C3 C2 1_555 1_555
H2 C3 1_555 1_555
H3 C3 1_555 1_555
C4 C5 1_555 1_555
C5 H4 1_555 1_555
C6 C5 1_555 1_555
H5 C6 1_555 1_555
H6 C6 1_555 1_555
C7 C6 1_555 1_555
H7 C7 1_555 1_555
C8 C7 1_555 1_555
H8 C8 1_555 1_555
H9 C8 1_555 1_555
C9 C2 1_555 1_555
H10 C9 1_555 1_555
H11 C9 1_555 1_555
C10 C9 1_555 1_555
H12 C10 1_555 1_555
C11 C10 1_555 1_555
C12 C10 1_555 1_555
H13 C12 1_555 1_555
H14 C12 1_555 1_555
O10 C11 1_555 1_555
O11 C11 1_555 1_555
C13 C3 1_555 1_555
H15 C13 1_555 1_555
C14 C13 1_555 1_555
O12 C14 1_555 1_555
O13 C14 1_555 1_555
C15 C5 1_555 1_555
H16 C15 1_555 1_555
H17 C15 1_555 1_555
C16 C7 1_555 1_555
C17 C8 1_555 1_555
H18 C17 1_555 1_555
O14 Cd1 1_555 1_555
O15 C16 1_555 1_555
C18 C17 1_555 1_555
O16 C18 1_555 1_555
O17 C18 1_555 1_555
O10A Cd1 1_555 1_555
O12B Cd1 1_555 1_555
O16C Cd1 1_555 1_555
O2_2 Cd2 1_555 1_555
O3_2 Cd2 1_555 1_555
O11A Cd2 1_555 1_555
O17C Cd2 1_555 1_555
O4A Cd3 1_555 1_555
O13C Cd3 1_555 1_555
O14A Cd3 1_555 1_555
O15A Cd3 1_555 1_555
Cd2_2 O2 1_555 1_555
Cd3A O4 1_555 1_555
Cd1A O10 1_555 1_555
Cd2A O11 1_555 1_555
Cd1B O12 1_555 1_555
Cd3C O13 1_555 1_555
Cd1C O16 1_555 1_555
Cd2C O16 1_555 1_555
Cd2 O16C 1_555 1_555
O3 Cd2_2 1_555 1_555
C12 C13 1_555 1_555
C15 C17 1_555 1_555
C16 O14 1_555 1_555
O14 Cd3A 1_555 1_555
O15 Cd3A 1_555 1_555
O17 Cd2C 1_555 1_555

#END
