
#######################################################################
#
#                 Cambridge Crystallographic Data Centre
#                                CCDC 
#
#######################################################################
#
# If this CIF has been generated from an entry in the Cambridge 
# Structural Database, then it will include bibliographic, chemical, 
# crystal, experimental, refinement or atomic coordinate data resulting 
# from the CCDC's data processing and validation procedures.
#
#######################################################################

data_DAGGUP
_symmetry_cell_setting           triclinic
_symmetry_space_group_name_H-M   'P -1'
_symmetry_Int_Tables_number      2
_space_group_name_Hall           '-P 1'
loop_
_symmetry_equiv_pos_site_id
_symmetry_equiv_pos_as_xyz
1 x,y,z
2 -x,-y,-z
_cell_length_a                   8.5151(7)
_cell_length_b                   10.0308(9)
_cell_length_c                   10.8385(10)
_cell_angle_alpha                66.6000(10)
_cell_angle_beta                 81.123(2)
_cell_angle_gamma                74.568(2)
_cell_volume                     817.743
loop_
_atom_site_label
_atom_site_type_symbol
_atom_site_fract_x
_atom_site_fract_y
_atom_site_fract_z
Ba1 Ba 0.25732(6) 0.98278(6) 0.01216(6)
N1 N 0.0185(9) 1.1543(8) -0.1733(8)
N2 N -0.0262(8) 1.2081(8) -0.0700(8)
C1 C -0.0696(13) 1.2505(12) -0.2801(11)
C2 C -0.1730(14) 1.3667(12) -0.2443(11)
H1 H -0.2484 1.4471 -0.2974
C3 C -0.1396(12) 1.3367(10) -0.1165(11)
C4 C -0.0456(15) 1.2291(15) -0.4082(12)
H2 H -0.0330 1.3206 -0.4803
H3 H -0.1386 1.2004 -0.4216
H4 H 0.0505 1.1523 -0.4066
C5 C -0.2131(14) 1.4254(12) -0.0307(12)
H5 H -0.2585 1.5264 -0.0870
H6 H -0.1303 1.4242 0.0210
H7 H -0.2976 1.3827 0.0291
C6 C 0.4730(11) 0.8520(10) -0.2716(10)
C7 C 0.6237(11) 0.8232(11) -0.3285(10)
H8 H 0.6525 0.7982 -0.4042
C8 C 0.7275(11) 0.8388(10) -0.2500(10)
C9 C 0.3096(12) 0.8580(14) -0.3146(13)
H9 H 0.3184 0.7746 -0.3397
H10 H 0.2772 0.9490 -0.3900
H11 H 0.2295 0.8542 -0.2412
C10 C 0.9092(12) 0.8142(15) -0.2633(13)
H12 H 0.9436 0.8581 -0.3563
H13 H 0.9570 0.7091 -0.2297
H14 H 0.9438 0.8597 -0.2123
N3 N 0.4757(8) 0.8824(9) -0.1638(8)
N4 N 0.6411(9) 0.8732(9) -0.1494(8)
O1 O 0.4497(9) 1.2065(7) -0.1712(7)
C11 C 0.3754(16) 1.3506(12) -0.1601(12)
H15 H 0.4577 1.3959 -0.1502
H16 H 0.2970 1.3399 -0.0836
C12 C 0.4641(18) 1.2308(14) -0.3115(12)
H17 H 0.5726 1.2441 -0.3485
H18 H 0.4462 1.1454 -0.3239
C13 C 0.346(2) 1.3601(16) -0.3781(14)
H19 H 0.2537 1.3330 -0.3972
H20 H 0.3925 1.4214 -0.4623
C14 C 0.294(2) 1.4403(15) -0.2872(14)
H21 H 0.1769 1.4574 -0.2704
H22 H 0.3238 1.5363 -0.3274
Ba1A Ba -0.25732(6) 1.01722(6) -0.01216(6)
Ba1A_2 Ba 0.74268(6) 1.01722(6) -0.01216(6)
N1A N -0.0185(9) 0.8457(8) 0.1733(8)
N2A N 0.0262(8) 0.7919(8) 0.0700(8)
N4A N 0.3589(9) 1.1268(9) 0.1494(8)
O1A O 0.5503(9) 0.7935(7) 0.1712(7)
loop_
_geom_bond_atom_site_label_1
_geom_bond_atom_site_label_2
_geom_bond_site_symmetry_1
_geom_bond_site_symmetry_2
Ba1 N1 1_555 1_555
N1 N2 1_555 1_555
N2 Ba1 1_555 1_555
C1 N1 1_555 1_555
C2 C1 1_555 1_555
H1 C2 1_555 1_555
C3 N2 1_555 1_555
C4 C1 1_555 1_555
H2 C4 1_555 1_555
H3 C4 1_555 1_555
H4 C4 1_555 1_555
C5 C3 1_555 1_555
H5 C5 1_555 1_555
H6 C5 1_555 1_555
H7 C5 1_555 1_555
C6 C7 1_555 1_555
C7 H8 1_555 1_555
C8 C7 1_555 1_555
C9 C6 1_555 1_555
H9 C9 1_555 1_555
H10 C9 1_555 1_555
H11 C9 1_555 1_555
C10 C8 1_555 1_555
H12 C10 1_555 1_555
H13 C10 1_555 1_555
H14 C10 1_555 1_555
N3 Ba1 1_555 1_555
N4 C8 1_555 1_555
O1 Ba1 1_555 1_555
C11 O1 1_555 1_555
H15 C11 1_555 1_555
H16 C11 1_555 1_555
C12 O1 1_555 1_555
H17 C12 1_555 1_555
H18 C12 1_555 1_555
C13 C12 1_555 1_555
H19 C13 1_555 1_555
H20 C13 1_555 1_555
C14 C11 1_555 1_555
H21 C14 1_555 1_555
H22 C14 1_555 1_555
Ba1A N1 1_555 1_555
Ba1A_2 N4 1_555 1_555
N1A Ba1 1_555 1_555
N2A Ba1 1_555 1_555
N4A Ba1 1_555 1_555
O1A Ba1 1_555 1_555
N2 Ba1A 1_555 1_555
C2 C3 1_555 1_555
C6 N3 1_555 1_555
N3 N4 1_555 1_555
O1 Ba1A_2 1_555 1_555
C13 C14 1_555 1_555
Ba1A N1A 1_555 1_555
Ba1A N2A 1_555 1_555
Ba1A_2 O1A 1_555 1_555
N1A N2A 1_555 1_555

#END
