
#######################################################################
#
#                 Cambridge Crystallographic Data Centre
#                                CCDC 
#
#######################################################################
#
# If this CIF has been generated from an entry in the Cambridge 
# Structural Database, then it will include bibliographic, chemical, 
# crystal, experimental, refinement or atomic coordinate data resulting 
# from the CCDC's data processing and validation procedures.
#
#######################################################################

data_DAHDOH
_symmetry_cell_setting           monoclinic
_symmetry_space_group_name_H-M   'P 21/n'
_symmetry_Int_Tables_number      14
_space_group_name_Hall           '-P 2yn'
loop_
_symmetry_equiv_pos_site_id
_symmetry_equiv_pos_as_xyz
1 x,y,z
2 1/2-x,1/2+y,1/2-z
3 -x,-y,-z
4 1/2+x,1/2-y,1/2+z
_cell_length_a                   12.2939(6)
_cell_length_b                   14.3955(6)
_cell_length_c                   14.8014(7)
_cell_angle_alpha                90
_cell_angle_beta                 103.430(1)
_cell_angle_gamma                90
_cell_volume                     2547.87
loop_
_atom_site_label
_atom_site_type_symbol
_atom_site_fract_x
_atom_site_fract_y
_atom_site_fract_z
Ag1 Ag 0.98777(4) 0.76433(4) 0.73389(4)
N1 N 0.8684(5) 0.6994(5) 0.6267(4)
N2 N 0.7291(5) 0.6876(5) 0.4928(4)
N3 N 0.6032(5) 0.6793(4) 0.3500(4)
C1 C 0.8157(6) 0.7300(5) 0.5475(6)
C2 C 0.6442(6) 0.7197(5) 0.4290(5)
C3 C 0.8724(7) 0.8113(6) 0.5074(6)
C4 C 0.9751(8) 0.7779(7) 0.4726(7)
C5 C 1.0183(10) 0.8427(11) 0.4108(11)
C6 C 0.5780(6) 0.8035(5) 0.4540(5)
C7 C 0.4662(7) 0.7741(5) 0.4779(6)
C8 C 0.4128(8) 0.8467(8) 0.5293(8)
C9 C 0.8244(6) 0.6152(5) 0.6585(5)
C10 C 0.8807(8) 0.5326(7) 0.6572(8)
C11 C 0.8449(9) 0.4507(7) 0.6910(9)
C12 C 0.7506(8) 0.4512(7) 0.7250(7)
C13 C 0.6915(8) 0.5315(7) 0.7247(7)
C14 C 0.7294(8) 0.6136(6) 0.6911(7)
C15 C 0.6609(5) 0.5974(5) 0.3325(5)
C16 C 0.6570(7) 0.5164(6) 0.3810(6)
C17 C 0.7127(8) 0.4371(6) 0.3645(7)
C18 C 0.7698(7) 0.4376(5) 0.2943(6)
C19 C 0.7751(8) 0.5169(6) 0.2451(6)
C20 C 0.7208(7) 0.5952(6) 0.2644(6)
F1 F 0.8007(4) 0.8499(4) 0.4342(4)
F2 F 0.9031(5) 0.8785(3) 0.5716(4)
F3 F 0.9500(7) 0.6924(6) 0.4285(6)
F4 F 1.0590(6) 0.7598(6) 0.5455(5)
F5 F 1.1120(6) 0.8129(6) 0.3934(5)
F6 F 1.0202(12) 0.9222(6) 0.4345(11)
F7 F 0.9459(8) 0.8314(11) 0.3218(7)
F8 F 0.6397(4) 0.8484(3) 0.5275(3)
F9 F 0.5531(4) 0.8646(3) 0.3829(3)
F10 F 0.4839(5) 0.6968(5) 0.5273(5)
F11 F 0.3914(5) 0.7536(5) 0.4009(5)
F12 F 0.4760(7) 0.8491(8) 0.6190(6)
F13 F 0.3134(5) 0.8225(4) 0.5358(4)
F14 F 0.4123(7) 0.9261(4) 0.4957(8)
F15 F 0.9738(6) 0.5311(4) 0.6258(6)
F16 F 0.9035(8) 0.3727(5) 0.6903(8)
F17 F 0.7158(6) 0.3729(4) 0.7571(5)
F18 F 0.5966(6) 0.5306(5) 0.7528(5)
F19 F 0.6701(6) 0.6917(5) 0.6914(5)
F20 F 0.6006(5) 0.5141(4) 0.4487(5)
F21 F 0.7119(7) 0.3605(4) 0.4140(6)
F22 F 0.8226(5) 0.3611(3) 0.2759(5)
F23 F 0.8313(6) 0.5169(4) 0.1788(5)
F24 F 0.7253(6) 0.6721(4) 0.2143(4)
Ag1C Ag 0.48777(4) 0.73567(4) 0.23389(4)
N3C N 1.1032(5) 0.8207(4) 0.8500(4)
loop_
_geom_bond_atom_site_label_1
_geom_bond_atom_site_label_2
_geom_bond_site_symmetry_1
_geom_bond_site_symmetry_2
Ag1 N1 1_555 1_555
N1 C1 1_555 1_555
N2 C1 1_555 1_555
N3 C2 1_555 1_555
C1 C3 1_555 1_555
C2 N2 1_555 1_555
C3 C4 1_555 1_555
C4 C5 1_555 1_555
C5 F5 1_555 1_555
C6 C2 1_555 1_555
C7 C6 1_555 1_555
C8 C7 1_555 1_555
C9 N1 1_555 1_555
C10 C9 1_555 1_555
C11 C10 1_555 1_555
C12 C11 1_555 1_555
C13 C12 1_555 1_555
C14 C9 1_555 1_555
C15 N3 1_555 1_555
C16 C15 1_555 1_555
C17 C16 1_555 1_555
C18 C17 1_555 1_555
C19 C18 1_555 1_555
C20 C15 1_555 1_555
F1 C3 1_555 1_555
F2 C3 1_555 1_555
F3 C4 1_555 1_555
F4 C4 1_555 1_555
F6 C5 1_555 1_555
F7 C5 1_555 1_555
F8 C6 1_555 1_555
F9 C6 1_555 1_555
F10 C7 1_555 1_555
F11 C7 1_555 1_555
F12 C8 1_555 1_555
F13 C8 1_555 1_555
F14 C8 1_555 1_555
F15 C10 1_555 1_555
F16 C11 1_555 1_555
F17 C12 1_555 1_555
F18 C13 1_555 1_555
F19 C14 1_555 1_555
F20 C16 1_555 1_555
F21 C17 1_555 1_555
F22 C18 1_555 1_555
F23 C19 1_555 1_555
F24 C20 1_555 1_555
Ag1C N3 1_555 1_555
N3C Ag1 1_555 1_555
C13 C14 1_555 1_555
C19 C20 1_555 1_555

#END
