
#######################################################################
#
#                 Cambridge Crystallographic Data Centre
#                                CCDC 
#
#######################################################################
#
# If this CIF has been generated from an entry in the Cambridge 
# Structural Database, then it will include bibliographic, chemical, 
# crystal, experimental, refinement or atomic coordinate data resulting 
# from the CCDC's data processing and validation procedures.
#
#######################################################################

data_DAHFAV
_symmetry_cell_setting           monoclinic
_symmetry_space_group_name_H-M   'P 21/c'
_symmetry_Int_Tables_number      14
_space_group_name_Hall           '-P 2ybc'
loop_
_symmetry_equiv_pos_site_id
_symmetry_equiv_pos_as_xyz
1 x,y,z
2 -x,1/2+y,1/2-z
3 -x,-y,-z
4 x,1/2-y,1/2+z
_cell_length_a                   20.1753(12)
_cell_length_b                   16.8846(10)
_cell_length_c                   18.9949(11)
_cell_angle_alpha                90
_cell_angle_beta                 116.350(1)
_cell_angle_gamma                90
_cell_volume                     5798.34
loop_
_atom_site_label
_atom_site_type_symbol
_atom_site_fract_x
_atom_site_fract_y
_atom_site_fract_z
Ag1 Ag 0.491087(17) 1.091638(17) 0.312387(18)
Cl1 Cl 0.66959(6) 0.98916(6) 0.36877(6)
Cl2 Cl 0.43231(6) 1.00487(6) 0.08460(6)
Cl3 Cl 0.59596(9) 0.78722(9) 0.10114(10)
Cl4 Cl 0.34403(7) 0.70180(7) 0.11203(7)
N1 N 0.50691(17) 0.98371(18) 0.25884(18)
N2 N 0.50144(18) 0.85398(18) 0.21406(18)
N3 N 0.50618(19) 0.72315(19) 0.1782(2)
N4 N 0.4741(4) 1.0807(3) 0.4267(3)
C1 C 0.4850(2) 0.9101(2) 0.2524(2)
C2 C 0.5185(2) 0.7785(2) 0.2304(2)
C3 C 0.4262(2) 0.8932(2) 0.2820(2)
C4 C 0.3476(2) 0.9249(2) 0.2269(2)
C5 C 0.2896(2) 0.9174(3) 0.2583(3)
C6 C 0.5664(2) 0.7529(2) 0.3158(2)
C7 C 0.6478(2) 0.7374(2) 0.3343(3)
C8 C 0.7028(3) 0.7312(3) 0.4224(3)
C9 C 0.5554(2) 1.0002(2) 0.2237(2)
C10 C 0.6315(2) 1.0083(2) 0.2686(2)
C11 C 0.6777(2) 1.0310(2) 0.2357(3)
H1 H 0.7292 1.0379 0.2678
C12 C 0.6481(3) 1.0435(3) 0.1563(3)
H2 H 0.6796 1.0585 0.1335
C13 C 0.5726(2) 1.0345(2) 0.1085(3)
H3 H 0.5527 1.0424 0.0534
C14 C 0.5274(2) 1.0140(2) 0.1425(2)
C15 C 0.4661(3) 0.7462(2) 0.0986(2)
C16 C 0.5016(3) 0.7729(3) 0.0546(3)
C17 C 0.4606(4) 0.7854(3) -0.0268(3)
H4 H 0.4854 0.8022 -0.0566
C18 C 0.3864(4) 0.7736(3) -0.0633(3)
H5 H 0.3598 0.7824 -0.1183
C19 C 0.3493(4) 0.7493(3) -0.0217(3)
H6 H 0.2973 0.7414 -0.0472
C20 C 0.3897(3) 0.7363(2) 0.0589(3)
C21 C 0.4362(4) 1.0726(3) 0.4573(3)
C22 C 0.3910(3) 1.0617(4) 0.4937(3)
H7 H 0.3394 1.0578 0.4539
H8 H 0.3964 1.1067 0.5284
H9 H 0.4051 1.0128 0.5247
F1 F 0.44703(12) 0.92458(13) 0.35441(13)
F2 F 0.41867(12) 0.81382(12) 0.28768(13)
F3 F 0.32319(13) 0.88539(14) 0.15876(13)
F4 F 0.35141(13) 1.00245(13) 0.21175(15)
F5 F 0.30448(14) 0.96740(18) 0.31746(17)
F6 F 0.22372(13) 0.93631(16) 0.20160(16)
F7 F 0.28651(14) 0.84517(16) 0.28240(17)
F8 F 0.56744(12) 0.80961(13) 0.36692(13)
F9 F 0.53928(12) 0.68592(13) 0.33315(13)
F10 F 0.65319(14) 0.66943(15) 0.29983(19)
F11 F 0.67112(13) 0.79730(15) 0.30354(17)
F12 F 0.71461(16) 0.80190(18) 0.45731(18)
F13 F 0.67758(17) 0.6830(2) 0.45943(19)
F14 F 0.76693(16) 0.7044(2) 0.4291(2)
Ag1A Ag 0.508913(17) 0.591638(17) 0.187613(18)
N3A N 0.49382(19) 1.22315(19) 0.3218(2)
Ag2 Ag 0.022251(17) 0.571001(17) 0.200651(18)
Cl5 Cl 0.17293(6) 0.66560(6) 0.27177(7)
Cl6 Cl -0.06652(6) 0.78476(6) 0.02479(6)
Cl7 Cl 0.02508(7) 0.99709(7) 0.11784(7)
Cl8 Cl -0.18761(6) 0.93216(7) 0.20760(7)
N5 N 0.01251(17) 0.70094(19) 0.1820(2)
N6 N -0.00922(19) 0.83248(18) 0.20575(19)
N7 N -0.03210(18) 0.96002(18) 0.23573(18)
N8 N 0.0687(3) 0.5418(3) 0.0994(3)
C23 C -0.0146(2) 0.7546(2) 0.2112(2)
C24 C -0.0012(2) 0.8911(2) 0.2549(2)
C25 C -0.0657(2) 0.7232(2) 0.2457(3)
C26 C -0.1432(2) 0.6989(2) 0.1824(3)
C27 C -0.2001(3) 0.6759(3) 0.2124(4)
C28 C 0.0585(2) 0.8821(2) 0.3401(2)
C29 C 0.1360(2) 0.9091(2) 0.3528(2)
C30 C 0.1920(3) 0.9232(3) 0.4380(3)
C31 C 0.0572(2) 0.7293(2) 0.1467(3)
C32 C 0.1329(2) 0.7139(2) 0.1813(3)
C33 C 0.1778(3) 0.7336(3) 0.1454(3)
H10 H 0.2290 0.7206 0.1697
C34 C 0.1468(3) 0.7724(3) 0.0741(3)
H11 H 0.1772 0.7878 0.0499
C35 C 0.0718(3) 0.7891(3) 0.0373(3)
H12 H 0.0506 0.8157 -0.0119
C36 C 0.0275(2) 0.7665(2) 0.0732(3)
C37 C -0.0862(2) 0.9684(2) 0.1552(2)
C38 C -0.0679(3) 0.9887(2) 0.0956(3)
C39 C -0.1215(3) 1.0017(3) 0.0198(3)
H13 H -0.1074 1.0168 -0.0198
C40 C -0.1945(3) 0.9931(3) 0.0014(3)
H14 H -0.2309 1.0019 -0.0510
C41 C -0.2159(3) 0.9715(3) 0.0591(3)
H15 H -0.2667 0.9649 0.0466
C42 C -0.1613(2) 0.9596(2) 0.1354(3)
C43 C 0.0882(4) 0.4843(4) 0.0812(4)
C44 C 0.1084(5) 0.4096(4) 0.0607(5)
H16 H 0.1025 0.3679 0.0934
H17 H 0.1600 0.4115 0.0695
H18 H 0.0764 0.3983 0.0052
F15 F -0.07735(12) 0.77944(14) 0.29010(14)
F16 F -0.03503(13) 0.66047(14) 0.29313(15)
F17 F -0.17167(13) 0.75964(15) 0.13197(16)
F18 F -0.13666(14) 0.63653(15) 0.14152(18)
F19 F -0.17461(18) 0.6189(2) 0.2648(2)
F20 F -0.26157(16) 0.6500(2) 0.1522(2)
F21 F -0.21855(16) 0.73680(19) 0.2430(2)
F22 F 0.04034(14) 0.92429(16) 0.38985(14)
F23 F 0.06542(13) 0.80567(14) 0.36367(15)
F24 F 0.16394(15) 0.85412(18) 0.32264(19)
F25 F 0.13169(15) 0.97613(17) 0.31274(18)
F26 F 0.17716(19) 0.9955(2) 0.46170(19)
F27 F 0.18901(16) 0.8726(2) 0.48608(17)
F28 F 0.25982(14) 0.92799(18) 0.44430(17)
Ag2A Ag -0.022251(17) 1.071001(17) 0.299349(18)
N7A N 0.03210(18) 0.46002(18) 0.26427(18)
loop_
_geom_bond_atom_site_label_1
_geom_bond_atom_site_label_2
_geom_bond_site_symmetry_1
_geom_bond_site_symmetry_2
Ag1 N1 1_555 1_555
Ag2 N5 1_555 1_555
Cl1 C10 1_555 1_555
Cl2 C14 1_555 1_555
Cl3 C16 1_555 1_555
Cl4 C20 1_555 1_555
Cl5 C32 1_555 1_555
Cl6 C36 1_555 1_555
Cl7 C38 1_555 1_555
Cl8 C42 1_555 1_555
N1 C1 1_555 1_555
N2 C1 1_555 1_555
N3 C2 1_555 1_555
N4 Ag1 1_555 1_555
N5 C23 1_555 1_555
N6 C23 1_555 1_555
N7 C24 1_555 1_555
N8 Ag2 1_555 1_555
C1 C3 1_555 1_555
C2 N2 1_555 1_555
C3 C4 1_555 1_555
C4 C5 1_555 1_555
C5 F5 1_555 1_555
C6 C2 1_555 1_555
C7 C6 1_555 1_555
C8 C7 1_555 1_555
C9 N1 1_555 1_555
C10 C9 1_555 1_555
C11 C10 1_555 1_555
H1 C11 1_555 1_555
C12 C11 1_555 1_555
H2 C12 1_555 1_555
C13 C12 1_555 1_555
H3 C13 1_555 1_555
C14 C9 1_555 1_555
C15 N3 1_555 1_555
C16 C15 1_555 1_555
C17 C16 1_555 1_555
H4 C17 1_555 1_555
C18 C17 1_555 1_555
H5 C18 1_555 1_555
C19 C18 1_555 1_555
H6 C19 1_555 1_555
C20 C15 1_555 1_555
C21 N4 1_555 1_555
C22 C21 1_555 1_555
H7 C22 1_555 1_555
H8 C22 1_555 1_555
H9 C22 1_555 1_555
C23 C25 1_555 1_555
C24 N6 1_555 1_555
C25 C26 1_555 1_555
C26 C27 1_555 1_555
C27 F19 1_555 1_555
C28 C24 1_555 1_555
C29 C28 1_555 1_555
C30 C29 1_555 1_555
C31 N5 1_555 1_555
C32 C31 1_555 1_555
C33 C32 1_555 1_555
H10 C33 1_555 1_555
C34 C33 1_555 1_555
H11 C34 1_555 1_555
C35 C34 1_555 1_555
H12 C35 1_555 1_555
C36 C31 1_555 1_555
C37 N7 1_555 1_555
C38 C37 1_555 1_555
C39 C38 1_555 1_555
H13 C39 1_555 1_555
C40 C39 1_555 1_555
H14 C40 1_555 1_555
C41 C40 1_555 1_555
H15 C41 1_555 1_555
C42 C37 1_555 1_555
C43 N8 1_555 1_555
C44 C43 1_555 1_555
H16 C44 1_555 1_555
H17 C44 1_555 1_555
H18 C44 1_555 1_555
F1 C3 1_555 1_555
F2 C3 1_555 1_555
F3 C4 1_555 1_555
F4 C4 1_555 1_555
F6 C5 1_555 1_555
F7 C5 1_555 1_555
F8 C6 1_555 1_555
F9 C6 1_555 1_555
F10 C7 1_555 1_555
F11 C7 1_555 1_555
F12 C8 1_555 1_555
F13 C8 1_555 1_555
F14 C8 1_555 1_555
F15 C25 1_555 1_555
F16 C25 1_555 1_555
F17 C26 1_555 1_555
F18 C26 1_555 1_555
F20 C27 1_555 1_555
F21 C27 1_555 1_555
F22 C28 1_555 1_555
F23 C28 1_555 1_555
F24 C29 1_555 1_555
F25 C29 1_555 1_555
F26 C30 1_555 1_555
F27 C30 1_555 1_555
F28 C30 1_555 1_555
Ag1A N3 1_555 1_555
Ag2A N7 1_555 1_555
N3A Ag1 1_555 1_555
N7A Ag2 1_555 1_555
C13 C14 1_555 1_555
C19 C20 1_555 1_555
C35 C36 1_555 1_555
C41 C42 1_555 1_555

#END
