
#######################################################################
#
#                 Cambridge Crystallographic Data Centre
#                                CCDC 
#
#######################################################################
#
# If this CIF has been generated from an entry in the Cambridge 
# Structural Database, then it will include bibliographic, chemical, 
# crystal, experimental, refinement or atomic coordinate data resulting 
# from the CCDC's data processing and validation procedures.
#
#######################################################################

data_DAHFEZ
_symmetry_cell_setting           triclinic
_symmetry_space_group_name_H-M   'P -1'
_symmetry_Int_Tables_number      2
_space_group_name_Hall           '-P 1'
loop_
_symmetry_equiv_pos_site_id
_symmetry_equiv_pos_as_xyz
1 x,y,z
2 -x,-y,-z
_cell_length_a                   9.5740(9)
_cell_length_b                   13.1644(12)
_cell_length_c                   19.7396(18)
_cell_angle_alpha                84.958(1)
_cell_angle_beta                 89.652(1)
_cell_angle_gamma                71.234(1)
_cell_volume                     2345.88
loop_
_atom_site_label
_atom_site_type_symbol
_atom_site_fract_x
_atom_site_fract_y
_atom_site_fract_z
Ag1 Ag 0.34617(2) 1.260807(14) 0.143505(9)
Ag2 Ag 0.20966(2) 0.770084(14) 0.357949(9)
N1 N 0.3894(2) 1.11970(15) 0.23724(10)
N2 N 0.5389(2) 0.94657(15) 0.29015(10)
N3 N 0.3521(2) 0.86011(16) 0.29113(10)
N4 N 0.2565(3) 1.2040(2) 0.05155(12)
N5 N 0.5488(3) 1.3027(2) 0.10060(12)
N6 N 0.1814(2) 0.66890(16) 0.26472(10)
N7 N 0.0346(2) 0.58877(16) 0.20261(10)
N8 N 0.2107(2) 0.40944(16) 0.20361(10)
N9 N 0.2555(3) 0.64696(19) 0.45274(12)
N10 N 0.0372(3) 0.9130(2) 0.40877(13)
C1 C 0.5044(2) 1.03269(18) 0.24533(12)
C2 C 0.4605(3) 0.88732(18) 0.31546(12)
C3 C 0.2742(3) 1.13427(17) 0.28385(12)
C4 C 0.1275(3) 1.17119(19) 0.26058(13)
C5 C 0.0104(3) 1.19744(19) 0.30427(15)
C6 C 0.0364(3) 1.1882(2) 0.37330(14)
C7 C 0.1794(3) 1.1527(2) 0.39835(13)
C8 C 0.2956(3) 1.12702(18) 0.35407(13)
C9 C 0.3064(3) 0.89268(18) 0.22247(12)
C10 C 0.4040(3) 0.86881(19) 0.16854(13)
C11 C 0.3565(3) 0.8948(2) 0.10153(13)
C12 C 0.2086(3) 0.9441(2) 0.08597(13)
C13 C 0.1095(3) 0.9669(2) 0.13753(13)
C14 C 0.1578(3) 0.94130(18) 0.20450(12)
C15 C 0.6329(3) 1.03660(19) 0.19937(13)
C16 C 0.5143(3) 0.83210(19) 0.38658(12)
C17 C 0.2235(3) 1.1925(2) -0.00184(13)
C18 C 0.1820(3) 1.1763(2) -0.07000(14)
H1 H 0.2346 1.1022 -0.0799
H2 H 0.2081 1.2266 -0.1033
H3 H 0.0754 1.1893 -0.0726
C19 C 0.6664(3) 1.2932(2) 0.08495(14)
C20 C 0.8170(3) 1.2801(3) 0.06426(17)
H4 H 0.8516 1.2185 0.0369
H5 H 0.8811 1.2674 0.1048
H6 H 0.8196 1.3455 0.0372
C21 C 0.0643(3) 0.64421(18) 0.25050(12)
C22 C 0.1135(3) 0.49905(19) 0.17728(12)
C23 C 0.3091(3) 0.63059(18) 0.22614(12)
C24 C 0.4451(3) 0.58165(19) 0.25980(12)
C25 C 0.5762(3) 0.5456(2) 0.22576(14)
C26 C 0.5756(3) 0.5592(2) 0.15619(15)
C27 C 0.4437(3) 0.6093(2) 0.12083(13)
C28 C 0.3139(3) 0.6452(2) 0.15555(13)
C29 C 0.2484(3) 0.39783(18) 0.27326(12)
C30 C 0.3961(3) 0.35839(18) 0.29461(12)
C31 C 0.4389(3) 0.33894(19) 0.36235(13)
C32 C 0.3352(3) 0.3578(2) 0.41171(13)
C33 C 0.1873(3) 0.39450(19) 0.39299(13)
C34 C 0.1452(3) 0.41266(18) 0.32510(13)
C35 C -0.0680(3) 0.69502(19) 0.29485(14)
C36 C 0.0770(3) 0.4950(2) 0.10198(13)
C37 C 0.2609(3) 0.5956(2) 0.50252(13)
C38 C 0.2692(3) 0.5292(2) 0.56625(13)
H7 H 0.2028 0.4864 0.5635
H8 H 0.2399 0.5756 0.6036
H9 H 0.3707 0.4809 0.5746
C39 C -0.0789(3) 0.9690(2) 0.41264(14)
C40 C -0.2290(3) 1.0418(3) 0.4169(2)
H10 H -0.2516 1.0955 0.3774
H11 H -0.2384 1.0783 0.4587
H12 H -0.2981 1.0006 0.4175
F1 F 0.09707(16) 1.18172(12) 0.19338(8)
F2 F -0.12871(16) 1.23195(13) 0.27954(9)
F3 F -0.07623(18) 1.21493(13) 0.41623(9)
F4 F 0.20576(19) 1.14743(13) 0.46534(8)
F5 F 0.43265(15) 1.10069(11) 0.38088(7)
F6 F 0.54737(16) 0.81530(12) 0.18167(7)
F7 F 0.45370(19) 0.87016(15) 0.05142(8)
F8 F 0.16184(19) 0.96831(14) 0.02073(8)
F9 F -0.03446(16) 1.01630(13) 0.12262(8)
F10 F 0.05742(15) 0.96542(11) 0.25333(7)
F11 F 0.74465(15) 0.94516(12) 0.20482(8)
F12 F 0.58943(17) 1.05616(12) 0.13345(7)
F13 F 0.68503(17) 1.11481(12) 0.21451(8)
F14 F 0.5358(2) 0.72641(12) 0.38923(8)
F15 F 0.41446(19) 0.87150(15) 0.43311(8)
F16 F 0.63974(18) 0.84348(14) 0.40605(8)
F17 F 0.44972(15) 0.56516(11) 0.32806(7)
F18 F 0.70230(16) 0.49579(13) 0.26083(9)
F19 F 0.70142(19) 0.52383(15) 0.12225(9)
F20 F 0.4423(2) 0.62491(16) 0.05289(8)
F21 F 0.18968(17) 0.69885(12) 0.11905(7)
F22 F 0.50223(15) 0.34022(11) 0.24797(7)
F23 F 0.58297(16) 0.30258(12) 0.37971(8)
F24 F 0.37612(19) 0.33917(13) 0.47760(8)
F25 F 0.08494(18) 0.40990(13) 0.44137(8)
F26 F 0.00054(15) 0.44043(11) 0.30901(7)
F27 F -0.08544(16) 0.79846(11) 0.30150(9)
F28 F -0.04626(18) 0.64486(13) 0.35776(8)
F29 F -0.19388(17) 0.69010(14) 0.27058(10)
F30 F 0.02882(18) 0.41179(12) 0.09349(8)
F31 F 0.19735(18) 0.48215(14) 0.06426(8)
F32 F -0.02589(19) 0.58326(12) 0.07533(8)
Ag1_2 Ag 0.34617(2) 0.260807(14) 0.143505(9)
N8_2 N 0.2107(2) 1.40944(16) 0.20361(10)
loop_
_geom_bond_atom_site_label_1
_geom_bond_atom_site_label_2
_geom_bond_site_symmetry_1
_geom_bond_site_symmetry_2
Ag1 N1 1_555 1_555
Ag2 N3 1_555 1_555
N1 C1 1_555 1_555
N2 C1 1_555 1_555
N3 C2 1_555 1_555
N4 Ag1 1_555 1_555
N5 Ag1 1_555 1_555
N6 Ag2 1_555 1_555
N7 C21 1_555 1_555
N8 C22 1_555 1_555
N9 Ag2 1_555 1_555
N10 Ag2 1_555 1_555
C1 C15 1_555 1_555
C2 N2 1_555 1_555
C3 N1 1_555 1_555
C4 C3 1_555 1_555
C5 C4 1_555 1_555
C6 C5 1_555 1_555
C7 C6 1_555 1_555
C8 C3 1_555 1_555
C9 N3 1_555 1_555
C10 C9 1_555 1_555
C11 C10 1_555 1_555
C12 C11 1_555 1_555
C13 C12 1_555 1_555
C14 C9 1_555 1_555
C15 F11 1_555 1_555
C16 C2 1_555 1_555
C17 N4 1_555 1_555
C18 C17 1_555 1_555
H1 C18 1_555 1_555
H2 C18 1_555 1_555
H3 C18 1_555 1_555
C19 N5 1_555 1_555
C20 C19 1_555 1_555
H4 C20 1_555 1_555
H5 C20 1_555 1_555
H6 C20 1_555 1_555
C21 N6 1_555 1_555
C22 N7 1_555 1_555
C23 N6 1_555 1_555
C24 C23 1_555 1_555
C25 C24 1_555 1_555
C26 C25 1_555 1_555
C27 C26 1_555 1_555
C28 C23 1_555 1_555
C29 N8 1_555 1_555
C30 C29 1_555 1_555
C31 C30 1_555 1_555
C32 C31 1_555 1_555
C33 C32 1_555 1_555
C34 C29 1_555 1_555
C35 C21 1_555 1_555
C36 C22 1_555 1_555
C37 N9 1_555 1_555
C38 C37 1_555 1_555
H7 C38 1_555 1_555
H8 C38 1_555 1_555
H9 C38 1_555 1_555
C39 N10 1_555 1_555
C40 C39 1_555 1_555
H10 C40 1_555 1_555
H11 C40 1_555 1_555
H12 C40 1_555 1_555
F1 C4 1_555 1_555
F2 C5 1_555 1_555
F3 C6 1_555 1_555
F4 C7 1_555 1_555
F5 C8 1_555 1_555
F6 C10 1_555 1_555
F7 C11 1_555 1_555
F8 C12 1_555 1_555
F9 C13 1_555 1_555
F10 C14 1_555 1_555
F12 C15 1_555 1_555
F13 C15 1_555 1_555
F14 C16 1_555 1_555
F15 C16 1_555 1_555
F16 C16 1_555 1_555
F17 C24 1_555 1_555
F18 C25 1_555 1_555
F19 C26 1_555 1_555
F20 C27 1_555 1_555
F21 C28 1_555 1_555
F22 C30 1_555 1_555
F23 C31 1_555 1_555
F24 C32 1_555 1_555
F25 C33 1_555 1_555
F26 C34 1_555 1_555
F27 C35 1_555 1_555
F28 C35 1_555 1_555
F29 C35 1_555 1_555
F30 C36 1_555 1_555
F31 C36 1_555 1_555
F32 C36 1_555 1_555
Ag1_2 N8 1_555 1_555
N8_2 Ag1 1_555 1_555
C7 C8 1_555 1_555
C13 C14 1_555 1_555
C27 C28 1_555 1_555
C33 C34 1_555 1_555

#END
