
#######################################################################
#
#                 Cambridge Crystallographic Data Centre
#                                CCDC 
#
#######################################################################
#
# If this CIF has been generated from an entry in the Cambridge 
# Structural Database, then it will include bibliographic, chemical, 
# crystal, experimental, refinement or atomic coordinate data resulting 
# from the CCDC's data processing and validation procedures.
#
#######################################################################

data_DAHJOM
_symmetry_cell_setting           orthorhombic
_symmetry_space_group_name_H-M   'P 21 21 2'
_symmetry_Int_Tables_number      18
_space_group_name_Hall           'P 2 2ab'
loop_
_symmetry_equiv_pos_site_id
_symmetry_equiv_pos_as_xyz
1 x,y,z
2 -x,-y,z
3 1/2+x,1/2-y,-z
4 1/2-x,1/2+y,-z
_cell_length_a                   17.6167(1)
_cell_length_b                   19.0794(3)
_cell_length_c                   11.1204(4)
_cell_angle_alpha                90
_cell_angle_beta                 90
_cell_angle_gamma                90
_cell_volume                     3737.75
loop_
_atom_site_label
_atom_site_type_symbol
_atom_site_fract_x
_atom_site_fract_y
_atom_site_fract_z
W1 W 0.772830(12) 0.549186(11) 1.718611(19)
Cu1 Cu 0.5000 0.5000 1.85957(9)
Cu2 Cu 0.96441(4) 0.31570(4) 1.73471(6)
C1 C 0.7946(4) 0.5360(5) 1.9088(7)
N1 N 0.8054(5) 0.5314(6) 2.0085(6)
C2 C 0.6618(3) 0.5469(3) 1.8022(5)
N2 N 0.6032(3) 0.5437(3) 1.8454(5)
C3 C 0.8546(3) 0.4641(3) 1.7366(5)
N3 N 0.8937(3) 0.4168(3) 1.7401(5)
C4 C 0.7177(4) 0.4546(4) 1.6567(7)
N4 N 0.6912(4) 0.4033(4) 1.6260(8)
C5 C 0.8807(4) 0.6052(3) 1.7270(6)
N5 N 0.9364(3) 0.6343(3) 1.7320(5)
C6 C 0.6977(4) 0.5970(4) 1.5874(7)
N6 N 0.6593(5) 0.6219(5) 1.5177(8)
C7 C 0.8246(4) 0.5361(4) 1.5408(6)
N7 N 0.8518(4) 0.5302(4) 1.4519(5)
C8 C 0.7490(4) 0.6529(4) 1.7888(10)
N8 N 0.7331(5) 0.7061(4) 1.8266(11)
N9 N 0.5000 0.5000 2.0420(7)
C9 C 0.5278(4) 0.5551(4) 2.1043(6)
H1 H 0.5474 0.5931 2.0622
C10 C 0.5282(4) 0.5567(4) 2.2277(6)
H2 H 0.5474 0.5958 2.2676
C11 C 0.5000 0.5000 2.2936(9)
C12 C 0.5000 0.5000 2.4273(8)
C13 C 0.5176(4) 0.4400(4) 2.4914(6)
H3 H 0.5290 0.3985 2.4515
C14 C 0.5179(4) 0.4427(4) 2.6157(6)
H4 H 0.5312 0.4026 2.6583
N10 N 0.5000 0.5000 2.6767(7)
O1 O 0.5636(3) 0.3862(3) 1.8841(5)
C15 C 0.6320(6) 0.3854(5) 1.9117(9)
H5 H 0.6587 0.4269 1.9006
N11 N 0.6703(4) 0.3328(4) 1.9544(6)
C16 C 0.6864(5) 0.2183(5) 1.6445(11)
H6 H 0.6536 0.1797 1.6635
H7 H 0.6940 0.2203 1.5591
H8 H 0.6636 0.2612 1.6714
C17 C 0.7706(5) 0.1414(5) 1.7650(9)
H9 H 0.7239 0.1155 1.7645
H10 H 0.7863 0.1494 1.8465
H11 H 0.8090 0.1151 1.7236
N12 N 0.9649(3) 0.3142(3) 1.5543(4)
C18 C 0.9551(4) 0.2551(4) 1.4924(6)
H12 H 0.9486 0.2136 1.5350
C19 C 0.9540(4) 0.2523(3) 1.3679(5)
H13 H 0.9455 0.2100 1.3286
C20 C 0.9656(4) 0.3132(3) 1.3023(5)
C21 C 0.9771(4) 0.3749(4) 1.3676(5)
H14 H 0.9857 0.4169 1.3275
C22 C 0.9756(5) 0.3733(4) 1.4921(6)
H15 H 0.9824 0.4150 1.5341
C23 C 0.9893(5) 0.3683(4) 0.9779(6)
H16 H 1.0066 0.4073 0.9358
C24 C 0.9896(5) 0.3707(4) 1.1023(6)
H17 H 1.0069 0.4104 1.1423
C25 C 0.9636(4) 0.3127(3) 1.1675(5)
C26 C 0.9377(4) 0.2570(4) 1.1040(6)
H18 H 0.9185 0.2182 1.1444
C27 C 0.9393(4) 0.2573(4) 0.9796(6)
H19 H 0.9219 0.2180 0.9385
N13 N 0.9653(3) 0.3129(3) 0.9152(4)
O2 O 0.8795(3) 0.2458(2) 1.7373(4)
C28 C 0.8142(4) 0.2541(4) 1.6935(6)
H20 H 0.8045 0.2950 1.6508
N14 N 0.7594(3) 0.2087(3) 1.7044(6)
C29 C 0.7517(5) 0.3384(6) 1.9813(11)
H21 H 0.7700 0.2943 2.0111
H22 H 0.7596 0.3741 2.0410
H23 H 0.7788 0.3506 1.9093
C30 C 0.6360(8) 0.2657(7) 1.9726(15)
H24 H 0.6730 0.2338 2.0043
H25 H 0.6173 0.2482 1.8973
H26 H 0.5947 0.2701 2.0284
C10A C 0.4718(4) 0.4433(4) 2.2277(6)
C9A C 0.4722(4) 0.4449(4) 2.1043(6)
H1A H 0.4526 0.4069 2.0622
H2A H 0.4526 0.4042 2.2676
C14A C 0.4821(4) 0.5573(4) 2.6157(6)
C13A C 0.4824(4) 0.5600(4) 2.4914(6)
H3A H 0.4710 0.6015 2.4515
H4A H 0.4688 0.5974 2.6583
C2A C 0.3382(3) 0.4531(3) 1.8022(5)
N2A N 0.3968(3) 0.4563(3) 1.8454(5)
O1A O 0.4364(3) 0.6138(3) 1.8841(5)
C15A C 0.3680(6) 0.6146(5) 1.9117(9)
H5A H 0.3413 0.5731 1.9006
N11A N 0.3297(4) 0.6672(4) 1.9544(6)
C29A C 0.2483(5) 0.6616(6) 1.9813(11)
H21A H 0.2300 0.7057 2.0111
H22A H 0.2404 0.6259 2.0410
H23A H 0.2212 0.6494 1.9093
C30A C 0.3640(8) 0.7343(7) 1.9726(15)
H24A H 0.3270 0.7662 2.0043
H25A H 0.3827 0.7518 1.8973
H26A H 0.4053 0.7299 2.0284
W1A W 0.227170(12) 0.450814(11) 1.718611(19)
C1A C 0.2054(4) 0.4640(5) 1.9088(7)
N1A N 0.1946(5) 0.4686(6) 2.0085(6)
C3A C 0.1454(3) 0.5359(3) 1.7366(5)
N3A N 0.1063(3) 0.5832(3) 1.7401(5)
C4A C 0.2823(4) 0.5454(4) 1.6567(7)
N4A N 0.3088(4) 0.5967(4) 1.6260(8)
C5A C 0.1193(4) 0.3948(3) 1.7270(6)
N5A N 0.0636(3) 0.3657(3) 1.7320(5)
C6A C 0.3023(4) 0.4030(4) 1.5874(7)
N6A N 0.3407(5) 0.3781(5) 1.5177(8)
C7A C 0.1754(4) 0.4639(4) 1.5408(6)
N7A N 0.1482(4) 0.4698(4) 1.4519(5)
C8A C 0.2510(4) 0.3471(4) 1.7888(10)
N8A N 0.2669(5) 0.2939(4) 1.8266(11)
Cu2A Cu 0.03559(4) 0.68430(4) 1.73471(6)
N12_2 N 0.9649(3) 0.3142(3) 2.5543(4)
C18_2 C 0.9551(4) 0.2551(4) 2.4924(6)
H12_2 H 0.9486 0.2136 2.5350
C19_2 C 0.9540(4) 0.2523(3) 2.3679(5)
H13_2 H 0.9455 0.2100 2.3286
C20_2 C 0.9656(4) 0.3132(3) 2.3023(5)
C21_2 C 0.9771(4) 0.3749(4) 2.3676(5)
H14_2 H 0.9857 0.4169 2.3275
C22_2 C 0.9756(5) 0.3733(4) 2.4921(6)
H15_2 H 0.9824 0.4150 2.5341
C23_2 C 0.9893(5) 0.3683(4) 1.9779(6)
H16_2 H 1.0066 0.4073 1.9358
C24_2 C 0.9896(5) 0.3707(4) 2.1023(6)
H17_2 H 1.0069 0.4104 2.1423
C25_2 C 0.9636(4) 0.3127(3) 2.1675(5)
C26_2 C 0.9377(4) 0.2570(4) 2.1040(6)
H18_2 H 0.9185 0.2182 2.1444
C27_2 C 0.9393(4) 0.2573(4) 1.9796(6)
H19_2 H 0.9219 0.2180 1.9385
N13_2 N 0.9653(3) 0.3129(3) 1.9152(4)
C16A C 0.3136(5) 0.7817(5) 1.6445(11)
H6A H 0.3464 0.8203 1.6635
H7A H 0.3060 0.7797 1.5591
H8A H 0.3364 0.7388 1.6714
C17A C 0.2294(5) 0.8586(5) 1.7650(9)
H9A H 0.2761 0.8845 1.7645
H10A H 0.2137 0.8506 1.8465
H11A H 0.1910 0.8849 1.7236
O2A O 0.1205(3) 0.7542(2) 1.7373(4)
C28A C 0.1858(4) 0.7459(4) 1.6935(6)
H20A H 0.1955 0.7050 1.6508
N14A N 0.2406(3) 0.7913(3) 1.7044(6)
N10_2 N 0.5000 0.5000 1.6767(7)
N5A_2 N 1.0636(3) 0.3657(3) 1.7320(5)
Cu2A_2 Cu 1.03559(4) 0.68430(4) 1.73471(6)
Cu1_2 Cu 0.5000 0.5000 2.85957(9)
Cu2_2 Cu 0.96441(4) 0.31570(4) 0.73471(6)
Cu2_3 Cu -0.03559(4) 0.31570(4) 1.73471(6)
N5_2 N -0.0636(3) 0.6343(3) 1.7320(5)
N12A N 0.0351(3) 0.6858(3) 1.5543(4)
N13A N 0.0347(3) 0.6871(3) 1.9152(4)
Cu2_4 Cu 0.96441(4) 0.31570(4) 2.73471(6)
O3 O 0.5667(4) 0.3042(4) 1.2867(8)
C31 C 0.6319(8) 0.2974(6) 1.3228(10)
H27 H 0.6438 0.2542 1.3569
N15 N 0.6881(6) 0.3443(6) 1.3193(9)
C32 C 0.6751(7) 0.4141(7) 1.2728(15)
H28 H 0.7215 0.4404 1.2762
H29 H 0.6371 0.4370 1.3204
H30 H 0.6582 0.4111 1.1909
C33 C 0.7654(7) 0.3283(9) 1.3620(12)
H31 H 0.7973 0.3687 1.3511
H32 H 0.7857 0.2897 1.3170
H33 H 0.7637 0.3163 1.4458
O4 O 0.3978(5) -0.0025(5) 0.7862(7)
loop_
_geom_bond_atom_site_label_1
_geom_bond_atom_site_label_2
_geom_bond_site_symmetry_1
_geom_bond_site_symmetry_2
W1 C1 1_555 1_555
Cu1 N2 1_555 1_555
Cu2 N3 1_555 1_555
C1 N1 1_555 1_555
C2 W1 1_555 1_555
N2 C2 1_555 1_555
C3 W1 1_555 1_555
N3 C3 1_555 1_555
C4 W1 1_555 1_555
N4 C4 1_555 1_555
C5 W1 1_555 1_555
N5 C5 1_555 1_555
C6 W1 1_555 1_555
N6 C6 1_555 1_555
C7 W1 1_555 1_555
N7 C7 1_555 1_555
C8 W1 1_555 1_555
N8 C8 1_555 1_555
N9 Cu1 1_555 1_555
C9 N9 1_555 1_555
H1 C9 1_555 1_555
C10 C9 1_555 1_555
H2 C10 1_555 1_555
C11 C10 1_555 1_555
C12 C11 1_555 1_555
C13 C12 1_555 1_555
H3 C13 1_555 1_555
C14 C13 1_555 1_555
H4 C14 1_555 1_555
N10 C14 1_555 1_555
O1 Cu1 1_555 1_555
C15 O1 1_555 1_555
H5 C15 1_555 1_555
N11 C15 1_555 1_555
C16 H6 1_555 1_555
H7 C16 1_555 1_555
H8 C16 1_555 1_555
C17 H9 1_555 1_555
H10 C17 1_555 1_555
H11 C17 1_555 1_555
N12 Cu2 1_555 1_555
C18 N12 1_555 1_555
H12 C18 1_555 1_555
C19 C18 1_555 1_555
H13 C19 1_555 1_555
C20 C19 1_555 1_555
C21 C20 1_555 1_555
H14 C21 1_555 1_555
C22 N12 1_555 1_555
H15 C22 1_555 1_555
C23 H16 1_555 1_555
C24 C23 1_555 1_555
H17 C24 1_555 1_555
C25 C20 1_555 1_555
C26 C25 1_555 1_555
H18 C26 1_555 1_555
C27 C26 1_555 1_555
H19 C27 1_555 1_555
N13 C23 1_555 1_555
O2 Cu2 1_555 1_555
C28 O2 1_555 1_555
H20 C28 1_555 1_555
N14 C16 1_555 1_555
C29 N11 1_555 1_555
H21 C29 1_555 1_555
H22 C29 1_555 1_555
H23 C29 1_555 1_555
C30 N11 1_555 1_555
H24 C30 1_555 1_555
H25 C30 1_555 1_555
H26 C30 1_555 1_555
O3 C31 1_555 1_555
C31 H27 1_555 1_555
N15 C31 1_555 1_555
C32 N15 1_555 1_555
H28 C32 1_555 1_555
H29 C32 1_555 1_555
H30 C32 1_555 1_555
C33 N15 1_555 1_555
H31 C33 1_555 1_555
H32 C33 1_555 1_555
H33 C33 1_555 1_555
C10A C11 1_555 1_555
C9A N9 1_555 1_555
H1A C9A 1_555 1_555
H2A C10A 1_555 1_555
C14A N10 1_555 1_555
C13A C12 1_555 1_555
H3A C13A 1_555 1_555
H4A C14A 1_555 1_555
C2A N2A 1_555 1_555
N2A Cu1 1_555 1_555
O1A Cu1 1_555 1_555
C15A O1A 1_555 1_555
H5A C15A 1_555 1_555
N11A C15A 1_555 1_555
C29A N11A 1_555 1_555
H21A C29A 1_555 1_555
H22A C29A 1_555 1_555
H23A C29A 1_555 1_555
C30A N11A 1_555 1_555
H24A C30A 1_555 1_555
H25A C30A 1_555 1_555
H26A C30A 1_555 1_555
W1A C2A 1_555 1_555
C1A W1A 1_555 1_555
N1A C1A 1_555 1_555
C3A W1A 1_555 1_555
N3A C3A 1_555 1_555
C4A W1A 1_555 1_555
N4A C4A 1_555 1_555
C5A W1A 1_555 1_555
N5A C5A 1_555 1_555
C6A W1A 1_555 1_555
N6A C6A 1_555 1_555
C7A W1A 1_555 1_555
N7A C7A 1_555 1_555
C8A W1A 1_555 1_555
N8A C8A 1_555 1_555
Cu2A N3A 1_555 1_555
N12_2 C18_2 1_555 1_555
C18_2 H12_2 1_555 1_555
C19_2 C18_2 1_555 1_555
H13_2 C19_2 1_555 1_555
C20_2 C19_2 1_555 1_555
C21_2 C20_2 1_555 1_555
H14_2 C21_2 1_555 1_555
C22_2 N12_2 1_555 1_555
H15_2 C22_2 1_555 1_555
C23_2 H16_2 1_555 1_555
C24_2 C23_2 1_555 1_555
H17_2 C24_2 1_555 1_555
C25_2 C20_2 1_555 1_555
C26_2 C25_2 1_555 1_555
H18_2 C26_2 1_555 1_555
C27_2 C26_2 1_555 1_555
H19_2 C27_2 1_555 1_555
N13_2 Cu2 1_555 1_555
C16A H6A 1_555 1_555
H7A C16A 1_555 1_555
H8A C16A 1_555 1_555
C17A H9A 1_555 1_555
H10A C17A 1_555 1_555
H11A C17A 1_555 1_555
O2A Cu2A 1_555 1_555
C28A O2A 1_555 1_555
H20A C28A 1_555 1_555
N14A C16A 1_555 1_555
N10_2 Cu1 1_555 1_555
N5A_2 Cu2 1_555 1_555
Cu2A_2 N5 1_555 1_555
Cu1_2 N10 1_555 1_555
Cu2_2 N13 1_555 1_555
Cu2_3 N5A 1_555 1_555
N5_2 Cu2A 1_555 1_555
N12A Cu2A 1_555 1_555
N13A Cu2A 1_555 1_555
Cu2_4 N12_2 1_555 1_555
C17 N14 1_555 1_555
C21 C22 1_555 1_555
C24 C25 1_555 1_555
C27 N13 1_555 1_555
C28 N14 1_555 1_555
C10A C9A 1_555 1_555
C14A C13A 1_555 1_555
C21_2 C22_2 1_555 1_555
C23_2 N13_2 1_555 1_555
C24_2 C25_2 1_555 1_555
C27_2 N13_2 1_555 1_555
C17A N14A 1_555 1_555
C28A N14A 1_555 1_555

#END
