
#######################################################################
#
#                 Cambridge Crystallographic Data Centre
#                                CCDC 
#
#######################################################################
#
# If this CIF has been generated from an entry in the Cambridge 
# Structural Database, then it will include bibliographic, chemical, 
# crystal, experimental, refinement or atomic coordinate data resulting 
# from the CCDC's data processing and validation procedures.
#
#######################################################################

data_DAHJUR
_symmetry_cell_setting           monoclinic
_symmetry_space_group_name_H-M   'C c'
_symmetry_Int_Tables_number      9
_space_group_name_Hall           'C -2yc'
loop_
_symmetry_equiv_pos_site_id
_symmetry_equiv_pos_as_xyz
1 x,y,z
2 x,-y,1/2+z
3 1/2+x,1/2+y,z
4 1/2+x,1/2-y,1/2+z
_cell_length_a                   11.055(16)
_cell_length_b                   11.250(16)
_cell_length_c                   7.452(7)
_cell_angle_alpha                90
_cell_angle_beta                 130.12(6)
_cell_angle_gamma                90
_cell_volume                     708.718
loop_
_atom_site_label
_atom_site_type_symbol
_atom_site_fract_x
_atom_site_fract_y
_atom_site_fract_z
Ag1 Ag 0.4825 0.3516(1) 0.0819
Cl1 Cl 0.5163(2) 0.5528(1) -0.0603(3)
S1 S 0.1846(2) 0.3100(1) -0.2514(3)
N1 N 0.1591(7) 0.5447(5) -0.2893(10)
C1 C 0.0845(6) 0.4439(5) -0.3145(10)
C2 C -0.0673(7) 0.4562(5) -0.3900(11)
C3 C -0.1330(8) 0.5656(6) -0.4307(13)
C4 C 0.0963(9) 0.6549(5) -0.3310(15)
C5 C -0.0514(9) 0.6666(6) -0.4019(13)
H1 H -0.1270 0.3867 -0.4157
H2 H 0.244(13) 0.543(10) -0.250(17)
H3 H -0.244(13) 0.5666(81) -0.475(18)
H4 H -0.099(11) 0.7291(99) -0.420(16)
H5 H 0.173(11) 0.7253(97) -0.290(17)
Ag1A Ag 0.4825 0.6484(1) -0.4181
Cl1A Cl 0.5163(2) 0.4472(1) 0.4397(3)
S1C S 0.6846(2) 0.1900(1) 0.2486(3)
Ag1C Ag -0.0175 0.1484(1) -0.4181
loop_
_geom_bond_atom_site_label_1
_geom_bond_atom_site_label_2
_geom_bond_site_symmetry_1
_geom_bond_site_symmetry_2
Ag1 Cl1 1_555 1_555
Cl1 Ag1A 1_555 1_555
S1 Ag1 1_555 1_555
N1 C1 1_555 1_555
C1 S1 1_555 1_555
C2 C1 1_555 1_555
C3 C2 1_555 1_555
C4 N1 1_555 1_555
C5 C3 1_555 1_555
H1 C2 1_555 1_555
H2 N1 1_555 1_555
H3 C3 1_555 1_555
H4 C5 1_555 1_555
H5 C4 1_555 1_555
Cl1A Ag1 1_555 1_555
S1C Ag1 1_555 1_555
Ag1C S1 1_555 1_555
C4 C5 1_555 1_555

#END
