
#######################################################################
#
#                 Cambridge Crystallographic Data Centre
#                                CCDC 
#
#######################################################################
#
# If this CIF has been generated from an entry in the Cambridge 
# Structural Database, then it will include bibliographic, chemical, 
# crystal, experimental, refinement or atomic coordinate data resulting 
# from the CCDC's data processing and validation procedures.
#
#######################################################################

data_DAHMEF
_symmetry_cell_setting           triclinic
_symmetry_space_group_name_H-M   'P -1'
_symmetry_Int_Tables_number      2
_space_group_name_Hall           '-P 1'
loop_
_symmetry_equiv_pos_site_id
_symmetry_equiv_pos_as_xyz
1 x,y,z
2 -x,-y,-z
_cell_length_a                   5.5948(11)
_cell_length_b                   7.7696(15)
_cell_length_c                   9.6847(18)
_cell_angle_alpha                111.926(2)
_cell_angle_beta                 101.783(2)
_cell_angle_gamma                98.284(2)
_cell_volume                     370.884
loop_
_atom_site_label
_atom_site_type_symbol
_atom_site_fract_x
_atom_site_fract_y
_atom_site_fract_z
Cd1 Cd 0.46226(10) 0.92665(8) 0.15850(6)
C1 C 0.2892(14) 1.2265(10) 0.3730(8)
C2 C 0.1399(14) 1.3706(10) 0.4372(9)
C3 C 0.1932(14) 1.4712(10) 0.5974(8)
C4 C -0.0558(13) 1.3984(10) 0.3395(8)
C5 C -0.1313(14) 1.2996(10) 0.1637(8)
O1 O 0.4177(10) 1.1725(8) 0.4636(6)
O2 O 0.2748(10) 1.1695(8) 0.2311(6)
O3 O -0.0624(10) 1.3926(7) 0.0922(6)
O4 O -0.2713(9) 1.1302(7) 0.0959(6)
O5 O 0.8032(12) 0.9432(9) 0.3430(7)
O6 O 0.6337(14) 0.6800(12) 0.0077(11)
O7 O 0.2200(13) 0.7592(9) 0.2592(8)
H1 H 0.339(15) 1.460(11) 0.660(9)
H2 H 0.297(15) 0.763(11) 0.329(10)
H3 H 0.95(3) 0.90(2) 0.341(16)
H4 H 0.12(2) 0.656(16) 0.203(13)
H5 H 0.69(4) 0.62(3) 0.02(3)
H6 H 0.76(3) 0.91(2) 0.41(2)
H7 H 0.74(4) 0.69(3) -0.03(3)
C4A C 0.0558(13) 1.6016(10) 0.6605(8)
C2A C -0.1399(14) 1.6294(10) 0.5628(9)
C1A C -0.2892(14) 1.7735(10) 0.6270(8)
O1A O -0.4177(10) 1.8275(8) 0.5364(6)
O2A O -0.2748(10) 1.8305(8) 0.7689(6)
C3A C -0.1932(14) 1.5288(10) 0.4026(8)
H1A H -0.339(15) 1.540(11) 0.340(9)
C5A C 0.1313(14) 1.7004(10) 0.8363(8)
O3A O 0.0624(10) 1.6074(7) 0.9078(6)
O4A O 0.2713(9) 1.8698(7) 0.9041(6)
Cd1A Cd -0.46226(10) 2.07335(8) 0.84150(6)
O5A O -0.8032(12) 2.0568(9) 0.6570(7)
H3A H -0.95(3) 2.10(2) 0.659(16)
H6A H -0.76(3) 2.09(2) 0.59(2)
O6A O -0.6337(14) 2.3200(12) 0.9923(11)
H5A H -0.69(4) 2.38(3) 0.98(3)
H7A H -0.74(4) 2.31(3) 1.03(3)
O7A O -0.2200(13) 2.2408(9) 0.7408(8)
H2A H -0.297(15) 2.237(11) 0.671(10)
H4A H -0.12(2) 2.344(16) 0.797(13)
O4_2 O 0.7287(9) 1.1302(7) 0.0959(6)
O4A_2 O 0.2713(9) 0.8698(7) -0.0959(6)
Cd1_2 Cd -0.53774(10) 0.92665(8) 0.15850(6)
Cd1A_2 Cd -0.46226(10) 1.07335(8) -0.15850(6)
Cd1_3 Cd 0.46226(10) 1.92665(8) 1.15850(6)
Cd1A_3 Cd 0.53774(10) 2.07335(8) 0.84150(6)
O4_3 O -0.2713(9) 2.1302(7) 1.0959(6)
O4A_3 O -0.7287(9) 1.8698(7) 0.9041(6)
loop_
_geom_bond_atom_site_label_1
_geom_bond_atom_site_label_2
_geom_bond_site_symmetry_1
_geom_bond_site_symmetry_2
Cd1 O2 1_555 1_555
C1 C2 1_555 1_555
C2 C3 1_555 1_555
C3 H1 1_555 1_555
C4 C2 1_555 1_555
C5 C4 1_555 1_555
O1 C1 1_555 1_555
O2 C1 1_555 1_555
O3 C5 1_555 1_555
O4 C5 1_555 1_555
O5 Cd1 1_555 1_555
O6 Cd1 1_555 1_555
O7 Cd1 1_555 1_555
H2 O7 1_555 1_555
H3 O5 1_555 1_555
H4 O7 1_555 1_555
H5 O6 1_555 1_555
H6 O5 1_555 1_555
H7 O6 1_555 1_555
C4A C3 1_555 1_555
C2A C4A 1_555 1_555
C1A C2A 1_555 1_555
O1A C1A 1_555 1_555
O2A C1A 1_555 1_555
C3A C4 1_555 1_555
H1A C3A 1_555 1_555
C5A C4A 1_555 1_555
O3A C5A 1_555 1_555
O4A C5A 1_555 1_555
Cd1A O2A 1_555 1_555
O5A Cd1A 1_555 1_555
H3A O5A 1_555 1_555
H6A O5A 1_555 1_555
O6A Cd1A 1_555 1_555
H5A O6A 1_555 1_555
H7A O6A 1_555 1_555
O7A Cd1A 1_555 1_555
H2A O7A 1_555 1_555
H4A O7A 1_555 1_555
O4_2 Cd1 1_555 1_555
O4A_2 Cd1 1_555 1_555
Cd1_2 O4 1_555 1_555
Cd1A_2 O4 1_555 1_555
Cd1_3 O4A 1_555 1_555
Cd1A_3 O4A 1_555 1_555
O4_3 Cd1A 1_555 1_555
O4A_3 Cd1A 1_555 1_555
C2A C3A 1_555 1_555

#END
