
#######################################################################
#
#                 Cambridge Crystallographic Data Centre
#                                CCDC 
#
#######################################################################
#
# If this CIF has been generated from an entry in the Cambridge 
# Structural Database, then it will include bibliographic, chemical, 
# crystal, experimental, refinement or atomic coordinate data resulting 
# from the CCDC's data processing and validation procedures.
#
#######################################################################

data_DAHMIJ
_symmetry_cell_setting           monoclinic
_symmetry_space_group_name_H-M   'C 2/m'
_symmetry_Int_Tables_number      12
_space_group_name_Hall           '-C 2y'
loop_
_symmetry_equiv_pos_site_id
_symmetry_equiv_pos_as_xyz
1 x,y,z
2 1/2+x,1/2+y,z
3 x,-y,z
4 1/2+x,1/2-y,z
5 -x,-y,-z
6 1/2-x,1/2-y,-z
7 -x,y,-z
8 1/2-x,1/2+y,-z
_cell_length_a                   6.5881(19)
_cell_length_b                   18.038(5)
_cell_length_c                   4.7284(14)
_cell_angle_alpha                90
_cell_angle_beta                 116.488(3)
_cell_angle_gamma                90
_cell_volume                     502.92
loop_
_atom_site_label
_atom_site_type_symbol
_atom_site_fract_x
_atom_site_fract_y
_atom_site_fract_z
Cd1 Cd 0.0000 0.70857(4) 0.5000
O1 O -0.2142(10) 0.6301(4) 0.1347(13)
C1 C -0.2930(12) 0.6350(4) -0.1620(18)
O2 O -0.2651(10) 0.6927(3) -0.3000(14)
C2 C -0.3252(19) 0.5000 -0.203(3)
C3 C -0.4099(13) 0.5674(4) -0.3468(18)
H1 H -0.21(3) 0.5000 0.00(4)
C3B C -0.4099(13) 0.4326(4) -0.3468(18)
C1B C -0.2930(12) 0.3650(4) -0.1620(18)
O1B O -0.2142(10) 0.3699(4) 0.1347(13)
O2B O -0.2651(10) 0.3073(3) -0.3000(14)
C3D C -0.5901(13) 0.4326(4) -0.6532(18)
C1D C -0.7070(12) 0.3650(4) -0.8380(18)
O1D O -0.7858(10) 0.3699(4) -1.1347(13)
O2D O -0.7349(10) 0.3073(3) -0.7000(14)
C2D C -0.6748(19) 0.5000 -0.797(3)
C3F C -0.5901(13) 0.5674(4) -0.6532(18)
C1F C -0.7070(12) 0.6350(4) -0.8380(18)
O1F O -0.7858(10) 0.6301(4) -1.1347(13)
O2F O -0.7349(10) 0.6927(3) -0.7000(14)
H1D H -0.79(3) 0.5000 -1.00(4)
Cd1B Cd 0.0000 0.29143(4) 0.5000
O1F_2 O 0.2142(10) 0.6301(4) 0.8653(13)
O2_2 O -0.2651(10) 0.6927(3) 0.7000(14)
O2C O 0.2349(10) 0.8073(3) 0.7000(14)
O2E O -0.2349(10) 0.8073(3) 0.3000(14)
O2F_2 O 0.2651(10) 0.6927(3) 0.3000(14)
Cd1_2 Cd 0.0000 0.70857(4) -0.5000
Cd1C Cd -0.5000 0.79143(4) -0.5000
Cd1A Cd -0.5000 0.20857(4) -0.5000
Cd1B_2 Cd 0.0000 0.29143(4) -0.5000
Cd1B_3 Cd -1.0000 0.29143(4) -1.5000
Cd1B_4 Cd -1.0000 0.29143(4) -0.5000
Cd1_3 Cd -1.0000 0.70857(4) -1.5000
Cd1_4 Cd -1.0000 0.70857(4) -0.5000
O1D_2 O 0.2142(10) 0.3699(4) 0.8653(13)
O2A O 0.2349(10) 0.1927(3) 0.7000(14)
O2B_2 O -0.2651(10) 0.3073(3) 0.7000(14)
O2D_2 O 0.2651(10) 0.3073(3) 0.3000(14)
O2G O -0.2349(10) 0.1927(3) 0.3000(14)
loop_
_geom_bond_atom_site_label_1
_geom_bond_atom_site_label_2
_geom_bond_site_symmetry_1
_geom_bond_site_symmetry_2
Cd1 O1 1_555 1_555
O1 C1 1_555 1_555
C1 O2 1_555 1_555
O2 Cd1_2 1_555 1_555
C2 C3 1_555 1_555
C3 C1 1_555 1_555
H1 C2 1_555 1_555
C3B C2 1_555 1_555
C1B C3B 1_555 1_555
O1B C1B 1_555 1_555
O2B C1B 1_555 1_555
C3D C3B 1_555 1_555
C1D C3D 1_555 1_555
O1D C1D 1_555 1_555
O2D C1D 1_555 1_555
C2D C3D 1_555 1_555
C3F C3 1_555 1_555
C1F C3F 1_555 1_555
O1F C1F 1_555 1_555
O2F C1F 1_555 1_555
H1D C2D 1_555 1_555
Cd1B O1B 1_555 1_555
O1F_2 Cd1 1_555 1_555
O2_2 Cd1 1_555 1_555
O2C Cd1 1_555 1_555
O2E Cd1 1_555 1_555
O2F_2 Cd1 1_555 1_555
Cd1C O2 1_555 1_555
Cd1A O2B 1_555 1_555
Cd1B_2 O2B 1_555 1_555
Cd1B_3 O1D 1_555 1_555
Cd1B_4 O2D 1_555 1_555
Cd1_3 O1F 1_555 1_555
Cd1_4 O2F 1_555 1_555
O1D_2 Cd1B 1_555 1_555
O2A Cd1B 1_555 1_555
O2B_2 Cd1B 1_555 1_555
O2D_2 Cd1B 1_555 1_555
O2G Cd1B 1_555 1_555
O2D Cd1A 1_555 1_555
C2D C3F 1_555 1_555
O2F Cd1C 1_555 1_555

#END
