
#######################################################################
#
#                 Cambridge Crystallographic Data Centre
#                                CCDC 
#
#######################################################################
#
# If this CIF has been generated from an entry in the Cambridge 
# Structural Database, then it will include bibliographic, chemical, 
# crystal, experimental, refinement or atomic coordinate data resulting 
# from the CCDC's data processing and validation procedures.
#
#######################################################################

data_DAHMEF02
_symmetry_cell_setting           triclinic
_symmetry_space_group_name_H-M   'P -1'
_symmetry_Int_Tables_number      2
_space_group_name_Hall           '-P 1'
loop_
_symmetry_equiv_pos_site_id
_symmetry_equiv_pos_as_xyz
1 x,y,z
2 -x,-y,-z
_cell_length_a                   5.5929(14)
_cell_length_b                   9.715(3)
_cell_length_c                   14.502(5)
_cell_angle_alpha                101.628(3)
_cell_angle_beta                 93.406(3)
_cell_angle_gamma                104.912(2)
_cell_volume                     740.63
loop_
_atom_site_label
_atom_site_type_symbol
_atom_site_fract_x
_atom_site_fract_y
_atom_site_fract_z
Cd1 Cd 1.17016(8) 0.70715(4) 0.86548(3)
Cd2 Cd 0.32931(8) 0.79275(4) 0.63441(3)
O1 O 0.5366(11) 0.7589(5) 0.5000(4)
H1 H 0.4704 0.6884 0.4529
H2 H 0.6782 0.8166 0.4981
O2 O 0.9636(11) 0.7411(5) 1.0000(4)
H3 H 1.0299 0.8115 1.0470
H4 H 0.8223 0.6831 1.0019
C1 C 0.7415(13) 0.4505(7) 0.8243(5)
O3 O 0.8267(9) 0.5521(5) 0.7827(3)
O4 O 0.8513(8) 0.4303(5) 0.8951(3)
O5 O 1.4064(10) 0.6068(6) 0.9479(4)
H5 H 1.5522 0.6565 0.9732
H6 H 1.3499 0.5195 0.9539
O6 O 0.0925(11) 0.8936(6) 0.5517(4)
H7 H -0.0535 0.8442 0.5266
H8 H 0.1494 0.9809 0.5456
C2 C 0.4902(11) 0.3467(7) 0.7843(4)
C3 C 0.4103(11) 0.2190(7) 0.8138(4)
C4 C 0.3264(12) 0.3824(6) 0.7218(4)
C5 C 0.1738(11) 0.1166(6) 0.7778(4)
C6 C 0.1070(11) -0.0193(6) 0.8178(4)
C7 C 0.0095(11) 0.1533(6) 0.7151(4)
C8 C 0.0875(11) 0.2812(6) 0.6869(4)
C9 C -0.2423(14) 0.0504(7) 0.6741(5)
C10 C 0.3933(11) 0.5177(6) 0.6815(4)
O7 O 0.3634(10) 0.6365(5) 0.7317(3)
O8 O 0.4470(9) 0.5078(5) 0.5999(3)
O9 O 0.1346(9) -0.1379(5) 0.7680(3)
O10 O 0.0532(9) -0.0078(5) 0.8995(3)
O11 O -0.3270(9) -0.0498(5) 0.7171(3)
O12 O -0.3525(9) 0.0696(5) 0.6042(3)
O13 O 1.5399(11) 0.9050(7) 0.9125(5)
H9 H 1.5605 0.9626 0.9667
H10 H 1.6509 0.9180 0.8751
O14 O -0.0406(12) 0.5947(7) 0.5876(5)
H11 H -0.0616 0.5369 0.5335
H12 H -0.1515 0.5822 0.6250
Cd1_2 Cd 0.17016(8) -0.29285(4) 0.86548(3)
Cd1_3 Cd 0.17016(8) 0.70715(4) 0.86548(3)
Cd2_2 Cd -0.67069(8) -0.20725(4) 0.63441(3)
Cd2_3 Cd 0.32931(8) -0.20725(4) 0.63441(3)
O7_2 O 1.3634(10) 0.6365(5) 0.7317(3)
O9_2 O 0.1346(9) 0.8621(5) 0.7680(3)
O9_3 O 1.1346(9) 0.8621(5) 0.7680(3)
O11_2 O 0.6730(9) 0.9502(5) 0.7171(3)
loop_
_geom_bond_atom_site_label_1
_geom_bond_atom_site_label_2
_geom_bond_site_symmetry_1
_geom_bond_site_symmetry_2
Cd1 O2 1_555 1_555
Cd2 O1 1_555 1_555
O1 H1 1_555 1_555
H2 O1 1_555 1_555
O2 H3 1_555 1_555
H4 O2 1_555 1_555
C1 O3 1_555 1_555
O3 Cd1 1_555 1_555
O4 C1 1_555 1_555
O5 Cd1 1_555 1_555
H5 O5 1_555 1_555
H6 O5 1_555 1_555
O6 Cd2 1_555 1_555
H7 O6 1_555 1_555
H8 O6 1_555 1_555
C2 C1 1_555 1_555
C3 C2 1_555 1_555
C4 C2 1_555 1_555
C5 C3 1_555 1_555
C6 C5 1_555 1_555
C7 C5 1_555 1_555
C8 C4 1_555 1_555
C9 C7 1_555 1_555
C10 C4 1_555 1_555
O7 Cd2 1_555 1_555
O8 C10 1_555 1_555
O9 C6 1_555 1_555
O10 C6 1_555 1_555
O11 C9 1_555 1_555
O12 C9 1_555 1_555
O13 Cd1 1_555 1_555
H9 O13 1_555 1_555
H10 O13 1_555 1_555
O14 Cd2 1_555 1_555
H11 O14 1_555 1_555
H12 O14 1_555 1_555
Cd1_2 O9 1_555 1_555
Cd1_3 O7 1_555 1_555
Cd2_2 O11 1_555 1_555
Cd2_3 O9 1_555 1_555
O7_2 Cd1 1_555 1_555
O9_2 Cd2 1_555 1_555
O9_3 Cd1 1_555 1_555
O11_2 Cd2 1_555 1_555
C7 C8 1_555 1_555
C10 O7 1_555 1_555
Cd1_3 O9_2 1_555 1_555

#END
