
#######################################################################
#
#                 Cambridge Crystallographic Data Centre
#                                CCDC 
#
#######################################################################
#
# If this CIF has been generated from an entry in the Cambridge 
# Structural Database, then it will include bibliographic, chemical, 
# crystal, experimental, refinement or atomic coordinate data resulting 
# from the CCDC's data processing and validation procedures.
#
#######################################################################

data_DAHNIK
_symmetry_cell_setting           orthorhombic
_symmetry_space_group_name_H-M   'P c c n'
_symmetry_Int_Tables_number      56
_space_group_name_Hall           '-P 2ab 2ac'
loop_
_symmetry_equiv_pos_site_id
_symmetry_equiv_pos_as_xyz
1 x,y,z
2 1/2+x,1/2+y,-z
3 x,1/2-y,1/2+z
4 1/2-x,y,1/2+z
5 -x,-y,-z
6 1/2-x,1/2-y,z
7 -x,1/2+y,1/2-z
8 1/2+x,-y,1/2-z
_cell_length_a                   20.8234(9)
_cell_length_b                   14.5079(6)
_cell_length_c                   20.3537(9)
_cell_angle_alpha                90
_cell_angle_beta                 90
_cell_angle_gamma                90
_cell_volume                     6148.93
loop_
_atom_site_label
_atom_site_type_symbol
_atom_site_fract_x
_atom_site_fract_y
_atom_site_fract_z
Ag1 Ag 0.7500 0.2500 0.284008(18)
Ag2 Ag 0.7500 0.2500 0.10517(2)
Ag3 Ag 0.822250(12) 0.751530(16) 0.172820(12)
Mo1 Mo 0.840340(12) 0.964640(17) 0.055430(12)
Mo2 Mo 0.871090(12) 1.036370(17) -0.091900(13)
Mo3 Mo 1.014600(12) 0.881470(16) -0.002040(12)
Mo4 Mo 0.967910(12) 0.931680(18) 0.144900(12)
O1 O 0.78108(11) 1.04487(16) 0.06541(11)
O2 O 0.80727(11) 0.86276(16) 0.08218(11)
O3 O 0.89042(10) 0.99787(15) 0.13180(11)
O4 O 0.94284(11) 0.83280(16) 0.18260(12)
O5 O 1.00053(11) 0.99788(17) 0.20504(11)
O6 O 0.93956(10) 0.89141(14) 0.04815(10)
O7 O 0.90138(10) 1.07155(14) 0.00562(10)
O8 O 0.83688(11) 0.94165(15) -0.03862(11)
O9 O 1.01954(11) 0.76855(15) -0.02308(12)
O10 O 1.04884(10) 0.88863(14) 0.10097(10)
O11 O 0.87241(12) 0.97974(17) -0.16540(11)
O12 O 0.81061(11) 1.11554(17) -0.09955(12)
O13 O 0.98620(11) 0.94313(16) -0.07058(11)
O14 O 0.7321(3) 0.2355(6) -0.0103(3)
N1 N 0.66594(13) 0.33506(18) 0.31399(14)
N2 N 0.75842(12) 0.39838(17) 0.22999(13)
N3 N 0.84362(14) 0.27839(19) 0.15275(15)
N4 N 0.82070(13) 0.79998(17) 0.27647(13)
N5 N 0.77296(12) 0.58340(17) 0.20380(12)
N6 N 0.86487(12) 0.63928(17) 0.10998(12)
C1 C 0.61580(17) 0.2985(2) 0.34510(19)
H1 H 0.6193 0.2369 0.3605
C2 C 0.55859(16) 0.3455(2) 0.35635(18)
H2 H 0.5241 0.3170 0.3792
C3 C 0.55338(15) 0.4350(2) 0.33342(16)
H3 H 0.5150 0.4691 0.3399
C4 C 0.60541(14) 0.4742(2) 0.30063(15)
H4 H 0.6028 0.5354 0.2842
C5 C 0.66102(14) 0.4228(2) 0.29224(14)
C6 C 0.71800(14) 0.4598(2) 0.25657(14)
C7 C 0.80590(14) 0.4280(2) 0.19163(14)
C8 C 0.85852(14) 0.3600(2) 0.18025(14)
C9 C 0.91986(16) 0.3810(2) 0.20161(17)
H5 H 0.9293 0.4401 0.2192
C10 C 0.96758(18) 0.3141(3) 0.19685(18)
H6 H 1.0102 0.3268 0.2108
C11 C 0.9516(2) 0.2291(3) 0.17136(18)
H7 H 0.9828 0.1814 0.1689
C12 C 0.8897(2) 0.2142(2) 0.14949(19)
H8 H 0.8794 0.1557 0.1313
C13 C 0.84500(16) 0.7413(2) 0.32145(18)
H9 H 0.8657 0.6869 0.3065
C14 C 0.84116(17) 0.7568(2) 0.38838(18)
H10 H 0.8594 0.7143 0.4185
C15 C 0.81040(16) 0.8351(3) 0.41071(17)
H11 H 0.8052 0.8457 0.4565
C16 C 0.78725(15) 0.8979(2) 0.36521(15)
H12 H 0.7676 0.9536 0.3792
C17 C 0.70673(14) 0.6221(2) 0.29850(15)
C18 C 0.73234(13) 0.55472(19) 0.25009(14)
C19 C 0.80732(13) 0.52070(19) 0.17042(14)
C20 C 0.84675(13) 0.55005(19) 0.11369(14)
C21 C 0.86405(14) 0.4868(2) 0.06500(15)
H13 H 0.8478 0.4257 0.0661
C22 C 0.90529(15) 0.5144(2) 0.01502(16)
H14 H 0.9187 0.4718 -0.0177
C23 C 0.92655(15) 0.6048(2) 0.01354(16)
H15 H 0.9562 0.6248 -0.0190
C24 C 0.90361(15) 0.6653(2) 0.06067(15)
H16 H 0.9159 0.7283 0.0579
N1E N 0.83406(13) 0.16494(18) 0.31399(14)
N2E N 0.74158(12) 0.10162(17) 0.22999(13)
O14E O 0.7679(3) 0.2645(6) -0.0103(3)
N3E N 0.65638(14) 0.22161(19) 0.15275(15)
Ag3E Ag 0.677750(12) 0.748470(16) 0.172820(12)
O10D O 0.95116(10) 1.11137(14) -0.10097(10)
O7D O 1.09862(10) 0.92845(14) -0.00562(10)
Mo3D Mo 0.985400(12) 1.118530(16) 0.002040(12)
Mo2D Mo 1.128910(12) 0.963630(17) 0.091900(13)
C17E C 0.79327(14) 0.8779(2) 0.29850(15)
N4E N 0.67930(13) 0.70002(17) 0.27647(13)
C16E C 0.71275(15) 0.6021(2) 0.36521(15)
loop_
_geom_bond_atom_site_label_1
_geom_bond_atom_site_label_2
_geom_bond_site_symmetry_1
_geom_bond_site_symmetry_2
Ag1 N1 1_555 1_555
Ag2 O14 1_555 1_555
Ag3 O2 1_555 1_555
Mo1 O1 1_555 1_555
Mo2 O7 1_555 1_555
Mo3 O6 1_555 1_555
Mo4 O3 1_555 1_555
O2 Mo1 1_555 1_555
O3 Mo1 1_555 1_555
O4 Mo4 1_555 1_555
O5 Mo4 1_555 1_555
O6 Mo1 1_555 1_555
O7 Mo1 1_555 1_555
O8 Mo1 1_555 1_555
O9 Mo3 1_555 1_555
O10 Mo3 1_555 1_555
O11 Mo2 1_555 1_555
O12 Mo2 1_555 1_555
O13 Mo3 1_555 1_555
O14 O14E 1_555 1_555
N1 C1 1_555 1_555
N2 Ag1 1_555 1_555
N3 Ag2 1_555 1_555
N4 Ag3 1_555 1_555
N5 Ag3 1_555 1_555
N6 Ag3 1_555 1_555
C1 H1 1_555 1_555
C2 C1 1_555 1_555
H2 C2 1_555 1_555
C3 C2 1_555 1_555
H3 C3 1_555 1_555
C4 C3 1_555 1_555
H4 C4 1_555 1_555
C5 N1 1_555 1_555
C6 N2 1_555 1_555
C7 N2 1_555 1_555
C8 N3 1_555 1_555
C9 C8 1_555 1_555
H5 C9 1_555 1_555
C10 C9 1_555 1_555
H6 C10 1_555 1_555
C11 C10 1_555 1_555
H7 C11 1_555 1_555
C12 N3 1_555 1_555
H8 C12 1_555 1_555
C13 N4 1_555 1_555
H9 C13 1_555 1_555
C14 C13 1_555 1_555
H10 C14 1_555 1_555
C15 C14 1_555 1_555
H11 C15 1_555 1_555
C16 C15 1_555 1_555
H12 C16 1_555 1_555
C17 C18 1_555 1_555
C18 N5 1_555 1_555
C19 N5 1_555 1_555
C20 N6 1_555 1_555
C21 C20 1_555 1_555
H13 C21 1_555 1_555
C22 C21 1_555 1_555
H14 C22 1_555 1_555
C23 C22 1_555 1_555
H15 C23 1_555 1_555
C24 N6 1_555 1_555
H16 C24 1_555 1_555
N1E Ag1 1_555 1_555
N2E Ag1 1_555 1_555
O14E Ag2 1_555 1_555
N3E Ag2 1_555 1_555
Ag3E Ag3 1_555 1_555
O10D Mo2 1_555 1_555
O7D Mo3 1_555 1_555
Mo3D O7 1_555 1_555
Mo2D O10 1_555 1_555
C17E N4 1_555 1_555
N4E C17 1_555 1_555
C16E C17 1_555 1_555
Mo2 O8 1_555 1_555
Mo4 O6 1_555 1_555
Mo4 O10 1_555 1_555
C4 C5 1_555 1_555
C5 C6 1_555 1_555
C6 C18 1_555 1_555
C7 C8 1_555 1_555
C7 C19 1_555 1_555
C11 C12 1_555 1_555
C16 C17E 1_555 1_555
C19 C20 1_555 1_555
C23 C24 1_555 1_555
Ag3E N4E 1_555 1_555
O10D Mo3D 1_555 1_555
O7D Mo2D 1_555 1_555

#END
