
#######################################################################
#
#                 Cambridge Crystallographic Data Centre
#                                CCDC 
#
#######################################################################
#
# If this CIF has been generated from an entry in the Cambridge 
# Structural Database, then it will include bibliographic, chemical, 
# crystal, experimental, refinement or atomic coordinate data resulting 
# from the CCDC's data processing and validation procedures.
#
#######################################################################

data_DAHPAE
_symmetry_cell_setting           tetragonal
_symmetry_space_group_name_H-M   'I 41/a'
_symmetry_Int_Tables_number      88
_space_group_name_Hall           '-I 4ad'
loop_
_symmetry_equiv_pos_site_id
_symmetry_equiv_pos_as_xyz
1 x,y,z
2 3/4-y,1/4+x,1/4+z
3 1/4+y,1/4-x,1/4+z
4 1/2+x,1/2+y,1/2+z
5 1/4-y,3/4+x,3/4+z
6 x,1/2+y,-z
7 1/2+x,y,1/2-z
8 1/4-y,1/4+x,1/4-z
9 -x,-y,-z
10 1/4+y,3/4-x,3/4-z
11 3/4-y,3/4+x,3/4-z
12 1/2-x,1/2-y,1/2-z
13 3/4+y,1/4-x,1/4-z
14 -x,1/2-y,z
15 1/2-x,-y,1/2+z
16 3/4+y,3/4-x,3/4+z
_cell_length_a                   8.4410(4)
_cell_length_b                   8.4410(4)
_cell_length_c                   17.5000(5)
_cell_angle_alpha                90
_cell_angle_beta                 90
_cell_angle_gamma                90
_cell_volume                     1246.88
loop_
_atom_site_label
_atom_site_type_symbol
_atom_site_fract_x
_atom_site_fract_y
_atom_site_fract_z
Yb1 Yb 0.0000 0.2500 0.1250
O1 O 0.1386(3) 0.1479(3) 0.01736(14)
O2 O 0.1265(3) -0.0297(3) -0.07737(13)
C1 C 0.0772(3) 0.0341(4) -0.01712(18)
C1H C -0.0772(3) -0.0341(4) 0.01712(18)
O1H O -0.1386(3) -0.1479(3) -0.01736(14)
O2H O -0.1265(3) 0.0297(3) 0.07737(13)
O1G O 0.1021(3) 0.3886(3) 0.23264(14)
O2G O 0.2797(3) 0.3765(3) 0.32737(13)
C1G C 0.2159(4) 0.3272(3) 0.26712(18)
C1B C 0.2841(4) 0.1728(3) 0.23288(18)
O1B O 0.3979(3) 0.1114(3) 0.26736(14)
O2B O 0.2203(3) 0.1235(3) 0.17263(13)
O1L O -0.1021(3) 0.1114(3) 0.23264(14)
O1M O -0.1386(3) 0.3521(3) 0.01736(14)
O2A O -0.2203(3) 0.3765(3) 0.17263(13)
O2E O 0.1265(3) 0.4703(3) 0.07737(13)
Yb1D Yb 0.0000 -0.2500 -0.1250
Yb1A Yb 0.5000 0.2500 0.3750
N1 N 0.5000 0.7500 0.1250
C2 C 0.6397(8) 0.7824(8) 0.1733(4)
H1 H 0.6612 0.6920 0.2049
H2 H 0.6191 0.8729 0.2050
H3 H 0.7298 0.8035 0.1413
C2G C 0.4676(8) 0.8897(8) 0.0767(4)
H1G H 0.5580 0.9112 0.0451
H2G H 0.3771 0.8691 0.0450
H3G H 0.4465 0.9798 0.1087
C2L C 0.5324(8) 0.6103(8) 0.0767(4)
H1L H 0.4420 0.5888 0.0451
H2L H 0.6229 0.6309 0.0450
H3L H 0.5535 0.5202 0.1087
C2M C 0.3603(8) 0.7176(8) 0.1733(4)
H1M H 0.3388 0.8080 0.2049
H2M H 0.3809 0.6271 0.2050
H3M H 0.2702 0.6965 0.1413
loop_
_geom_bond_atom_site_label_1
_geom_bond_atom_site_label_2
_geom_bond_site_symmetry_1
_geom_bond_site_symmetry_2
Yb1 O1 1_555 1_555
O1 C1 1_555 1_555
O2 C1 1_555 1_555
N1 C2 1_555 1_555
C1 C1H 1_555 1_555
C2 H1 1_555 1_555
H2 C2 1_555 1_555
H3 C2 1_555 1_555
C1H O1H 1_555 1_555
O1H Yb1D 1_555 1_555
O2H Yb1 1_555 1_555
C2G N1 1_555 1_555
H1G C2G 1_555 1_555
H2G C2G 1_555 1_555
H3G C2G 1_555 1_555
C2L N1 1_555 1_555
H1L C2L 1_555 1_555
H2L C2L 1_555 1_555
H3L C2L 1_555 1_555
C2M N1 1_555 1_555
H1M C2M 1_555 1_555
H2M C2M 1_555 1_555
H3M C2M 1_555 1_555
O1G Yb1 1_555 1_555
O2G C1G 1_555 1_555
C1G O1G 1_555 1_555
C1B C1G 1_555 1_555
O1B C1B 1_555 1_555
O2B Yb1 1_555 1_555
O1L Yb1 1_555 1_555
O1M Yb1 1_555 1_555
O2A Yb1 1_555 1_555
O2E Yb1 1_555 1_555
Yb1D O2 1_555 1_555
Yb1A O2G 1_555 1_555
C1H O2H 1_555 1_555
C1B O2B 1_555 1_555
O1B Yb1A 1_555 1_555

#END
