
#######################################################################
#
#                 Cambridge Crystallographic Data Centre
#                                CCDC 
#
#######################################################################
#
# If this CIF has been generated from an entry in the Cambridge 
# Structural Database, then it will include bibliographic, chemical, 
# crystal, experimental, refinement or atomic coordinate data resulting 
# from the CCDC's data processing and validation procedures.
#
#######################################################################

data_DAHXUH
_symmetry_cell_setting           triclinic
_symmetry_space_group_name_H-M   'P -1'
_symmetry_Int_Tables_number      2
_space_group_name_Hall           '-P 1'
loop_
_symmetry_equiv_pos_site_id
_symmetry_equiv_pos_as_xyz
1 x,y,z
2 -x,-y,-z
_cell_length_a                   8.762(3)
_cell_length_b                   10.216(3)
_cell_length_c                   12.869(4)
_cell_angle_alpha                82.39(3)
_cell_angle_beta                 74.85(3)
_cell_angle_gamma                84.15(2)
_cell_volume                     1099.38
loop_
_atom_site_label
_atom_site_type_symbol
_atom_site_fract_x
_atom_site_fract_y
_atom_site_fract_z
Zn1 Zn 0.5000 0.5000 0.5000
Zn2 Zn 0.5000 0.0000 0.0000
S1 S 0.52970(18) 0.24485(14) 0.51592(12)
S2 S 0.5561(2) 0.12969(16) 0.14319(14)
O1 O 0.6470(6) 0.1362(5) -0.1109(4)
H1 H 0.594(9) 0.195(7) -0.142(7)
H2 H 0.738(5) 0.128(9) -0.152(6)
N1 N 0.7429(5) 0.4779(4) 0.4392(4)
N2 N 0.3036(6) 0.1405(5) 0.0140(4)
C1 C 0.8242(7) 0.5753(6) 0.3799(5)
H3 H 0.7703 0.6563 0.3662
C2 C 0.9862(8) 0.5620(7) 0.3374(6)
H4 H 1.0402 0.6328 0.2962
C3 C 1.0648(7) 0.4445(7) 0.3566(5)
H5 H 1.1741 0.4334 0.3298
C4 C 0.9819(7) 0.3426(6) 0.4157(6)
H6 H 1.0346 0.2606 0.4281
C5 C 0.8200(7) 0.3598(6) 0.4574(5)
C6 C 0.7292(7) 0.2487(6) 0.5272(5)
H7 H 0.7260 0.2555 0.6022
H8 H 0.7866 0.1653 0.5084
C7 C 0.5668(7) 0.1833(6) 0.3844(5)
H9 H 0.6222 0.2474 0.3284
H10 H 0.6332 0.1013 0.3838
C8 C 0.4124(7) 0.1599(6) 0.3620(5)
H11 H 0.3606 0.2447 0.3424
H12 H 0.3441 0.1194 0.4279
C9 C 0.4295(8) 0.0721(6) 0.2720(5)
H13 H 0.3250 0.0636 0.2623
H14 H 0.4706 -0.0156 0.2953
C10 C 0.4426(9) 0.2726(6) 0.0983(5)
H15 H 0.4093 0.3286 0.1566
H16 H 0.5122 0.3221 0.0380
C11 C 0.2997(8) 0.2481(6) 0.0638(5)
C12 C 0.1658(11) 0.3345(7) 0.0828(6)
H17 H 0.1628 0.4064 0.1209
C13 C 0.0377(11) 0.3150(9) 0.0460(8)
H18 H -0.0519 0.3736 0.0580
C14 C 0.0439(9) 0.2080(8) -0.0085(7)
H19 H -0.0406 0.1927 -0.0355
C15 C 0.1794(9) 0.1225(7) -0.0225(6)
H20 H 0.1836 0.0491 -0.0593
Cl1 Cl 0.5274(2) 0.56723(16) 0.22724(14)
O2 O 0.4559(5) 0.5095(4) 0.3300(4)
O3 O 0.6626(7) 0.4862(6) 0.1805(5)
O4 O 0.4126(7) 0.5785(5) 0.1644(4)
O5 O 0.5709(7) 0.6977(5) 0.2325(4)
Zn1_2 Zn 0.5000 -0.5000 -0.5000
S1A S 0.47030(18) 0.75515(14) 0.48408(12)
S1A_2 S 0.47030(18) -0.24485(14) -0.51592(12)
S2A S 0.4439(2) -0.12969(16) -0.14319(14)
O1A O 0.3530(6) -0.1362(5) 0.1109(4)
H1A H 0.406(9) -0.195(7) 0.142(7)
H2A H 0.262(5) -0.128(9) 0.152(6)
N1A N 0.2571(5) 0.5221(4) 0.5608(4)
N1A_2 N 0.2571(5) -0.4779(4) -0.4392(4)
N2A N 0.6964(6) -0.1405(5) -0.0140(4)
C1A C 0.1758(7) -0.5753(6) -0.3799(5)
H3A H 0.2297 -0.6563 -0.3662
C2A C 0.0138(8) -0.5620(7) -0.3374(6)
H4A H -0.0402 -0.6328 -0.2962
C3A C -0.0648(7) -0.4445(7) -0.3566(5)
H5A H -0.1741 -0.4334 -0.3298
C4A C 0.0181(7) -0.3426(6) -0.4157(6)
H6A H -0.0346 -0.2606 -0.4281
C5A C 0.1800(7) -0.3598(6) -0.4574(5)
C6A C 0.2708(7) -0.2487(6) -0.5272(5)
H7A H 0.2740 -0.2555 -0.6022
H8A H 0.2134 -0.1653 -0.5084
C7A C 0.4332(7) -0.1833(6) -0.3844(5)
H9A H 0.3778 -0.2474 -0.3284
H10A H 0.3668 -0.1013 -0.3838
C8A C 0.5876(7) -0.1599(6) -0.3620(5)
H11A H 0.6394 -0.2447 -0.3424
H12A H 0.6559 -0.1194 -0.4279
C9A C 0.5705(8) -0.0721(6) -0.2720(5)
H13A H 0.6750 -0.0636 -0.2623
H14A H 0.5294 0.0156 -0.2953
C10A C 0.5574(9) -0.2726(6) -0.0983(5)
H15A H 0.5907 -0.3286 -0.1566
H16A H 0.4878 -0.3221 -0.0380
C11A C 0.7003(8) -0.2481(6) -0.0638(5)
C12A C 0.8342(11) -0.3345(7) -0.0828(6)
H17A H 0.8372 -0.4064 -0.1209
C13A C 0.9623(11) -0.3150(9) -0.0460(8)
H18A H 1.0519 -0.3736 -0.0580
C14A C 0.9561(9) -0.2080(8) 0.0085(7)
H19A H 1.0406 -0.1927 0.0355
C15A C 0.8206(9) -0.1225(7) 0.0225(6)
H20A H 0.8164 -0.0491 0.0593
Cl1A Cl 0.4726(2) 0.43277(16) 0.77276(14)
O2A O 0.5441(5) 0.4905(4) 0.6700(4)
O3A O 0.3374(7) 0.5138(6) 0.8195(5)
O4A O 0.5874(7) 0.4215(5) 0.8356(4)
O5A O 0.4291(7) 0.3023(5) 0.7675(4)
Cl2 Cl 0.9618(2) 0.96066(16) 0.30286(15)
O6 O 0.8418(13) 0.9402(12) 0.2660(11)
O7 O 0.8913(13) 0.9291(10) 0.4047(8)
O8 O 0.9875(12) 1.0870(7) 0.2789(10)
O9 O 1.0916(7) 0.8732(6) 0.2723(7)
loop_
_geom_bond_atom_site_label_1
_geom_bond_atom_site_label_2
_geom_bond_site_symmetry_1
_geom_bond_site_symmetry_2
Zn1 S1 1_555 1_555
Zn2 S2 1_555 1_555
S1 C6 1_555 1_555
S2 C9 1_555 1_555
O1 Zn2 1_555 1_555
H1 O1 1_555 1_555
H2 O1 1_555 1_555
N1 Zn1 1_555 1_555
N2 Zn2 1_555 1_555
C1 N1 1_555 1_555
H3 C1 1_555 1_555
C2 C1 1_555 1_555
H4 C2 1_555 1_555
C3 C2 1_555 1_555
H5 C3 1_555 1_555
C4 C3 1_555 1_555
H6 C4 1_555 1_555
C5 N1 1_555 1_555
C6 C5 1_555 1_555
H7 C6 1_555 1_555
H8 C6 1_555 1_555
C7 S1 1_555 1_555
H9 C7 1_555 1_555
H10 C7 1_555 1_555
C8 C7 1_555 1_555
H11 C8 1_555 1_555
H12 C8 1_555 1_555
C9 C8 1_555 1_555
H13 C9 1_555 1_555
H14 C9 1_555 1_555
C10 S2 1_555 1_555
H15 C10 1_555 1_555
H16 C10 1_555 1_555
C11 N2 1_555 1_555
C12 C11 1_555 1_555
H17 C12 1_555 1_555
C13 C12 1_555 1_555
H18 C13 1_555 1_555
C14 C13 1_555 1_555
H19 C14 1_555 1_555
C15 N2 1_555 1_555
H20 C15 1_555 1_555
Cl1 O2 1_555 1_555
Cl2 O6 1_555 1_555
O2 Zn1 1_555 1_555
O3 Cl1 1_555 1_555
O4 Cl1 1_555 1_555
O5 Cl1 1_555 1_555
O7 Cl2 1_555 1_555
O8 Cl2 1_555 1_555
O9 Cl2 1_555 1_555
Zn1_2 S1A_2 1_555 1_555
S1A Zn1 1_555 1_555
S1A_2 C6A 1_555 1_555
S2A Zn2 1_555 1_555
O1A Zn2 1_555 1_555
H1A O1A 1_555 1_555
H2A O1A 1_555 1_555
N1A Zn1 1_555 1_555
N1A_2 Zn1_2 1_555 1_555
N2A Zn2 1_555 1_555
C1A N1A_2 1_555 1_555
H3A C1A 1_555 1_555
C2A C1A 1_555 1_555
H4A C2A 1_555 1_555
C3A C2A 1_555 1_555
H5A C3A 1_555 1_555
C4A C3A 1_555 1_555
H6A C4A 1_555 1_555
C5A N1A_2 1_555 1_555
C6A C5A 1_555 1_555
H7A C6A 1_555 1_555
H8A C6A 1_555 1_555
C7A S1A_2 1_555 1_555
H9A C7A 1_555 1_555
H10A C7A 1_555 1_555
C8A C7A 1_555 1_555
H11A C8A 1_555 1_555
H12A C8A 1_555 1_555
C9A S2A 1_555 1_555
H13A C9A 1_555 1_555
H14A C9A 1_555 1_555
C10A S2A 1_555 1_555
H15A C10A 1_555 1_555
H16A C10A 1_555 1_555
C11A N2A 1_555 1_555
C12A C11A 1_555 1_555
H17A C12A 1_555 1_555
C13A C12A 1_555 1_555
H18A C13A 1_555 1_555
C14A C13A 1_555 1_555
H19A C14A 1_555 1_555
C15A N2A 1_555 1_555
H20A C15A 1_555 1_555
Cl1A O2A 1_555 1_555
O2A Zn1 1_555 1_555
O3A Cl1A 1_555 1_555
O4A Cl1A 1_555 1_555
O5A Cl1A 1_555 1_555
C4 C5 1_555 1_555
C10 C11 1_555 1_555
C14 C15 1_555 1_555
C4A C5A 1_555 1_555
C8A C9A 1_555 1_555
C10A C11A 1_555 1_555
C14A C15A 1_555 1_555

#END
