
#######################################################################
#
#                 Cambridge Crystallographic Data Centre
#                                CCDC 
#
#######################################################################
#
# If this CIF has been generated from an entry in the Cambridge 
# Structural Database, then it will include bibliographic, chemical, 
# crystal, experimental, refinement or atomic coordinate data resulting 
# from the CCDC's data processing and validation procedures.
#
#######################################################################

data_DAHXIU
_symmetry_cell_setting           triclinic
_symmetry_space_group_name_H-M   'P -1'
_symmetry_Int_Tables_number      2
_space_group_name_Hall           '-P 1'
loop_
_symmetry_equiv_pos_site_id
_symmetry_equiv_pos_as_xyz
1 x,y,z
2 -x,-y,-z
_cell_length_a                   7.6146(9)
_cell_length_b                   8.6691(11)
_cell_length_c                   10.3440(11)
_cell_angle_alpha                88.311(3)
_cell_angle_beta                 76.992(3)
_cell_angle_gamma                75.809(3)
_cell_volume                     644.762
loop_
_atom_site_label
_atom_site_type_symbol
_atom_site_fract_x
_atom_site_fract_y
_atom_site_fract_z
Co1 Co 0.0000 0.0000 0.0000
O1 O 0.2794(2) -0.1140(2) -0.01502(16)
O2 O 0.2749(3) -0.2846(3) 0.15081(18)
O3 O -0.0742(3) -0.1558(2) 0.15198(17)
N1 N 0.0077(3) 0.1772(2) 0.14066(18)
C1 C 0.0695(4) 0.1317(3) 0.2510(2)
H1 H 0.1166 0.0224 0.2615
C2 C 0.0682(4) 0.2358(3) 0.3496(2)
H2 H 0.1137 0.1974 0.4247
C3 C -0.0013(3) 0.3983(3) 0.3368(2)
C4 C -0.0612(3) 0.4465(3) 0.2205(2)
H3 H -0.1052 0.5553 0.2058
C5 C -0.0551(3) 0.3331(3) 0.1270(2)
H4 H -0.0975 0.3679 0.0500
C6 C -0.0174(3) 0.5168(3) 0.4404(2)
H5 H -0.0554 0.6247 0.4208
C7 C 0.3583(4) -0.2201(3) 0.0535(2)
C8 C 0.5667(4) -0.2734(4) 0.0152(3)
H6 H 0.6100 -0.3566 0.0736
H7 H 0.6195 -0.1840 0.0231
H8 H 0.6053 -0.3141 -0.0758
H13 H 0.029(3) -0.200(3) 0.161(3)
H14 H -0.139(4) -0.116(4) 0.221(3)
C6A C 0.0174(3) 0.4832(3) 0.5596(2)
C3A C 0.0013(3) 0.6017(3) 0.6632(2)
C2A C -0.0682(4) 0.7642(3) 0.6504(2)
C1A C -0.0695(4) 0.8683(3) 0.7490(2)
N1A N -0.0077(3) 0.8228(2) 0.85934(18)
C5A C 0.0551(3) 0.6669(3) 0.8730(2)
C4A C 0.0612(3) 0.5535(3) 0.7795(2)
H3A H 0.1052 0.4447 0.7942
H4A H 0.0975 0.6321 0.9500
H1A H -0.1166 0.9776 0.7385
H2A H -0.1137 0.8026 0.5753
H5A H 0.0554 0.3753 0.5792
O1A O -0.2794(2) 0.1140(2) 0.01502(16)
O2A O -0.2749(3) 0.2846(3) -0.15081(18)
C7A C -0.3583(4) 0.2201(3) -0.0535(2)
C8A C -0.5667(4) 0.2734(4) -0.0152(3)
H6A H -0.6100 0.3566 -0.0736
H7A H -0.6195 0.1840 -0.0231
H8A H -0.6053 0.3141 0.0758
O3A O 0.0742(3) 0.1558(2) -0.15198(17)
H13A H -0.029(3) 0.200(3) -0.161(3)
H14A H 0.139(4) 0.116(4) -0.221(3)
N1A_2 N -0.0077(3) -0.1772(2) -0.14066(18)
Co1_2 Co 0.0000 1.0000 1.0000
O4 O 0.7260(3) -1.0651(3) 0.39834(18)
N2 N 0.6589(3) -0.9122(3) 0.4257(2)
C9 C 0.6574(5) -0.8515(4) 0.5455(3)
H9 H 0.6996 -0.9212 0.6095
C10 C 0.5969(4) -0.6932(4) 0.5757(2)
H10 H 0.6004 -0.6557 0.6592
C11 C 0.5298(3) -0.5853(3) 0.4852(2)
C12 C 0.5263(4) -0.6530(3) 0.3647(2)
H11 H 0.4772 -0.5864 0.3014
C13 C 0.5916(4) -0.8123(4) 0.3360(2)
H12 H 0.594(4) -0.861(4) 0.254(3)
C11A C 0.4702(3) -0.4147(3) 0.5148(2)
C10A C 0.4031(4) -0.3068(4) 0.4243(2)
C9A C 0.3426(5) -0.1485(4) 0.4545(3)
N2A N 0.3411(3) -0.0878(3) 0.5743(2)
O4A O 0.2740(3) 0.0651(3) 0.60166(18)
C13A C 0.4084(4) -0.1877(4) 0.6640(2)
C12A C 0.4737(4) -0.3470(3) 0.6353(2)
H11A H 0.5228 -0.4136 0.6986
H12A H 0.406(4) -0.139(4) 0.746(3)
H9A H 0.3004 -0.0788 0.3905
H10A H 0.3996 -0.3443 0.3408
loop_
_geom_bond_atom_site_label_1
_geom_bond_atom_site_label_2
_geom_bond_site_symmetry_1
_geom_bond_site_symmetry_2
Co1 O1 1_555 1_555
O1 C7 1_555 1_555
O2 C7 1_555 1_555
O3 Co1 1_555 1_555
O4 N2 1_555 1_555
N1 Co1 1_555 1_555
N2 C9 1_555 1_555
C1 N1 1_555 1_555
H1 C1 1_555 1_555
C2 C1 1_555 1_555
H2 C2 1_555 1_555
C3 C2 1_555 1_555
C4 C3 1_555 1_555
H3 C4 1_555 1_555
C5 N1 1_555 1_555
H4 C5 1_555 1_555
C6 C3 1_555 1_555
H5 C6 1_555 1_555
C7 C8 1_555 1_555
C8 H6 1_555 1_555
H7 C8 1_555 1_555
H8 C8 1_555 1_555
C9 H9 1_555 1_555
C10 C9 1_555 1_555
H10 C10 1_555 1_555
C11 C10 1_555 1_555
C12 C11 1_555 1_555
H11 C12 1_555 1_555
C13 N2 1_555 1_555
H12 C13 1_555 1_555
H13 O3 1_555 1_555
H14 O3 1_555 1_555
C11A C11 1_555 1_555
C10A C11A 1_555 1_555
C9A C10A 1_555 1_555
N2A C9A 1_555 1_555
O4A N2A 1_555 1_555
C13A N2A 1_555 1_555
C12A C11A 1_555 1_555
H11A C12A 1_555 1_555
H12A C13A 1_555 1_555
H9A C9A 1_555 1_555
H10A C10A 1_555 1_555
C6A C6 1_555 1_555
C3A C6A 1_555 1_555
C2A C3A 1_555 1_555
C1A C2A 1_555 1_555
N1A C1A 1_555 1_555
C5A N1A 1_555 1_555
C4A C3A 1_555 1_555
H3A C4A 1_555 1_555
H4A C5A 1_555 1_555
H1A C1A 1_555 1_555
H2A C2A 1_555 1_555
H5A C6A 1_555 1_555
O1A Co1 1_555 1_555
O2A C7A 1_555 1_555
C7A O1A 1_555 1_555
C8A C7A 1_555 1_555
H6A C8A 1_555 1_555
H7A C8A 1_555 1_555
H8A C8A 1_555 1_555
O3A Co1 1_555 1_555
H13A O3A 1_555 1_555
H14A O3A 1_555 1_555
N1A_2 Co1 1_555 1_555
Co1_2 N1A 1_555 1_555
C4 C5 1_555 1_555
C12 C13 1_555 1_555
C13A C12A 1_555 1_555
C5A C4A 1_555 1_555

#END
