
#######################################################################
#
#                 Cambridge Crystallographic Data Centre
#                                CCDC 
#
#######################################################################
#
# If this CIF has been generated from an entry in the Cambridge 
# Structural Database, then it will include bibliographic, chemical, 
# crystal, experimental, refinement or atomic coordinate data resulting 
# from the CCDC's data processing and validation procedures.
#
#######################################################################

data_DAHZUJ
_symmetry_cell_setting           triclinic
_symmetry_space_group_name_H-M   'P -1'
_symmetry_Int_Tables_number      2
_space_group_name_Hall           '-P 1'
loop_
_symmetry_equiv_pos_site_id
_symmetry_equiv_pos_as_xyz
1 x,y,z
2 -x,-y,-z
_cell_length_a                   8.0270(3)
_cell_length_b                   10.2815(3)
_cell_length_c                   10.4761(4)
_cell_angle_alpha                103.631(3)
_cell_angle_beta                 102.694(3)
_cell_angle_gamma                105.864(3)
_cell_volume                     769.988
loop_
_atom_site_label
_atom_site_type_symbol
_atom_site_fract_x
_atom_site_fract_y
_atom_site_fract_z
Cd1 Cd 0.67825(6) 0.56050(5) 0.41845(5)
N1 N 0.4565(7) 0.5571(6) 0.2225(6)
N2 N 0.5156(7) 0.6472(6) 0.5611(6)
N3 N 0.8337(7) 0.7728(6) 0.3795(6)
N4 N 0.4362(7) 0.6812(6) 0.2064(6)
N5 N 0.9550(8) 0.4097(6) 0.3401(6)
N6 N 0.8139(8) 0.4234(7) 0.3000(6)
N7 N 0.5374(7) 0.7667(5) 0.6184(6)
N8 N 0.7390(7) 0.8470(6) 0.3193(6)
N9 N 1.0924(9) 0.3896(8) 0.3718(7)
N10 N 0.5623(9) 0.8816(7) 0.6828(8)
C1 C 0.5503(9) 0.8140(7) 0.3098(7)
H1 H 0.5109 0.8899 0.2891
H2 H 0.5357 0.8102 0.3985
C2 C 0.7789(12) 1.0337(8) 0.1998(9)
H3 H 0.7179 1.0826 0.2527
H4 H 0.6958 0.9766 0.1102
H5 H 0.8801 1.1021 0.1903
C3 C 1.1463(10) 0.7674(10) 0.4212(9)
H6 H 1.1290 0.6773 0.3573
H7 H 1.1413 0.7555 0.5087
H8 H 1.2627 0.8342 0.4325
C4 C 1.0005(9) 0.8217(7) 0.3675(7)
C5 C 0.3415(10) 0.4541(7) 0.1107(7)
C6 C 0.8459(10) 0.9395(7) 0.2723(7)
C7 C 0.2477(11) 0.5115(9) 0.0232(8)
H9 H 0.1589 0.4610 -0.0613
C8 C 1.0113(10) 0.9271(8) 0.3028(8)
H10 H 1.1132 0.9786 0.2845
C9 C 0.3103(10) 0.6551(8) 0.0844(7)
C10 C 0.3209(13) 0.3022(8) 0.0913(9)
H11 H 0.4374 0.2948 0.1277
H12 H 0.2723 0.2494 -0.0052
H13 H 0.2397 0.2642 0.1389
C11 C 0.2592(13) 0.7691(9) 0.0397(9)
H14 H 0.3555 0.8231 0.0127
H15 H 0.2390 0.8309 0.1145
H16 H 0.1500 0.7271 -0.0371
Cd1A Cd 0.32175(6) 0.43950(5) 0.58155(5)
Cd1A_2 Cd 1.32175(6) 0.43950(5) 0.58155(5)
N2A N 0.4844(7) 0.3528(6) 0.4389(6)
N9A N 0.9076(9) 0.6104(8) 0.6282(7)
loop_
_geom_bond_atom_site_label_1
_geom_bond_atom_site_label_2
_geom_bond_site_symmetry_1
_geom_bond_site_symmetry_2
Cd1 N1 1_555 1_555
N1 N4 1_555 1_555
N2 Cd1 1_555 1_555
N3 Cd1 1_555 1_555
N4 C1 1_555 1_555
N5 N6 1_555 1_555
N6 Cd1 1_555 1_555
N7 N2 1_555 1_555
N8 N3 1_555 1_555
N9 N5 1_555 1_555
N10 N7 1_555 1_555
C1 N8 1_555 1_555
H1 C1 1_555 1_555
H2 C1 1_555 1_555
C2 H3 1_555 1_555
H4 C2 1_555 1_555
H5 C2 1_555 1_555
C3 H6 1_555 1_555
H7 C3 1_555 1_555
H8 C3 1_555 1_555
C4 N3 1_555 1_555
C5 N1 1_555 1_555
C6 N8 1_555 1_555
C7 C5 1_555 1_555
H9 C7 1_555 1_555
C8 C4 1_555 1_555
H10 C8 1_555 1_555
C9 N4 1_555 1_555
C10 C5 1_555 1_555
H11 C10 1_555 1_555
H12 C10 1_555 1_555
H13 C10 1_555 1_555
C11 C9 1_555 1_555
H14 C11 1_555 1_555
H15 C11 1_555 1_555
H16 C11 1_555 1_555
Cd1A N2 1_555 1_555
Cd1A_2 N9 1_555 1_555
N2A Cd1 1_555 1_555
N9A Cd1 1_555 1_555
C2 C6 1_555 1_555
C3 C4 1_555 1_555
C6 C8 1_555 1_555
C7 C9 1_555 1_555
Cd1A N2A 1_555 1_555

#END
