
#######################################################################
#
#                 Cambridge Crystallographic Data Centre
#                                CCDC 
#
#######################################################################
#
# If this CIF has been generated from an entry in the Cambridge 
# Structural Database, then it will include bibliographic, chemical, 
# crystal, experimental, refinement or atomic coordinate data resulting 
# from the CCDC's data processing and validation procedures.
#
#######################################################################

data_DAHZAO
_symmetry_cell_setting           triclinic
_symmetry_space_group_name_H-M   'P -1'
_symmetry_Int_Tables_number      2
_space_group_name_Hall           '-P 1'
loop_
_symmetry_equiv_pos_site_id
_symmetry_equiv_pos_as_xyz
1 x,y,z
2 -x,-y,-z
_cell_length_a                   8.137(3)
_cell_length_b                   9.527(3)
_cell_length_c                   10.737(4)
_cell_angle_alpha                96.305(6)
_cell_angle_beta                 102.996(5)
_cell_angle_gamma                101.511(6)
_cell_volume                     784.212
loop_
_atom_site_label
_atom_site_type_symbol
_atom_site_fract_x
_atom_site_fract_y
_atom_site_fract_z
Cd1 Cd 1.00864(9) 0.06974(8) 0.85284(7)
N1 N 0.7418(9) -0.5137(9) 0.7707(7)
N2 N 1.0993(9) 0.2597(8) 0.7512(7)
N3 N 0.8592(9) 0.0156(9) 0.6398(7)
O1 O 0.9455(7) -0.1434(6) 0.9235(5)
O2 O 1.0361(8) -0.2507(7) 0.7668(6)
O3 O 0.7433(7) -0.8820(6) 0.8807(6)
O4 O 0.5721(7) -0.7316(7) 0.9110(7)
O5 O 0.7163(9) -0.6189(8) 0.6869(6)
O6 O 0.6722(8) -0.4126(7) 0.7585(7)
O7 O 1.2954(9) 0.0580(8) 0.9197(7)
C1 C 0.9966(10) -0.3771(9) 0.9381(8)
C2 C 0.8698(10) -0.6293(8) 0.9504(7)
C3 C 0.8735(10) -0.5065(9) 0.8923(7)
C4 C 0.9941(10) -0.2489(9) 0.8662(8)
C5 C 0.7142(11) -0.7608(9) 0.9089(8)
C6 C 1.2234(12) 0.3769(11) 0.8105(9)
H1 H 1.2723 0.3865 0.8989
C7 C 1.2817(13) 0.4856(11) 0.7426(13)
H2 H 1.3674 0.5672 0.7858
C8 C 1.2128(16) 0.4712(13) 0.6142(12)
H3 H 1.2511 0.5411 0.5666
C9 C 1.0861(13) 0.3518(12) 0.5566(10)
H4 H 1.0374 0.3411 0.4681
C10 C 1.0266(11) 0.2466(11) 0.6224(9)
C11 C 0.8865(11) 0.1165(11) 0.5666(8)
C12 C 0.7879(13) 0.0996(13) 0.4413(9)
H5 H 0.8078 0.1706 0.3900
C13 C 0.6574(13) -0.0265(15) 0.3931(10)
H6 H 0.5895 -0.0412 0.3085
C14 C 0.6310(14) -0.1254(14) 0.4690(11)
H7 H 0.5424 -0.2087 0.4387
C15 C 0.7327(13) -0.1044(11) 0.5898(10)
H8 H 0.7149 -0.1759 0.6409
H9 H 1.377(10) 0.134(7) 0.922(8)
H10 H 1.294(4) 0.040(10) 0.997(4)
C2A C 1.1302(10) -0.3707(8) 1.0496(7)
C3A C 1.1265(10) -0.4935(9) 1.1077(7)
N1A N 1.2582(9) -0.4863(9) 1.2293(7)
O5A O 1.2837(9) -0.3811(8) 1.3131(6)
O6A O 1.3278(8) -0.5874(7) 1.2415(7)
C1A C 1.0034(10) -0.6229(9) 1.0619(8)
C4A C 1.0059(10) -0.7511(9) 1.1338(8)
O1A O 1.0545(7) -0.8566(6) 1.0765(5)
O2A O 0.9639(8) -0.7493(7) 1.2332(6)
C5A C 1.2858(11) -0.2392(9) 1.0911(8)
O3A O 1.2567(7) -0.1180(6) 1.1193(6)
O4A O 1.4279(7) -0.2684(7) 1.0890(7)
Cd1A Cd 0.99136(9) -1.06974(8) 1.14716(7)
N2A N 0.9007(9) -1.2597(8) 1.2488(7)
N3A N 1.1408(9) -1.0156(9) 1.3602(7)
C6A C 0.7766(12) -1.3769(11) 1.1895(9)
H1A H 0.7277 -1.3865 1.1011
C7A C 0.7183(13) -1.4856(11) 1.2574(13)
H2A H 0.6326 -1.5672 1.2142
C8A C 0.7872(16) -1.4712(13) 1.3858(12)
H3A H 0.7489 -1.5411 1.4334
C9A C 0.9139(13) -1.3518(12) 1.4434(10)
H4A H 0.9626 -1.3411 1.5319
C10A C 0.9734(11) -1.2466(11) 1.3776(9)
C11A C 1.1135(11) -1.1165(11) 1.4334(8)
C12A C 1.2121(13) -1.0996(13) 1.5587(9)
H5A H 1.1922 -1.1706 1.6100
C13A C 1.3426(13) -0.9735(15) 1.6069(10)
H6A H 1.4105 -0.9588 1.6915
C14A C 1.3690(14) -0.8746(14) 1.5310(11)
H7A H 1.4576 -0.7913 1.5613
C15A C 1.2673(13) -0.8956(11) 1.4102(10)
H8A H 1.2851 -0.8241 1.3591
O7A O 0.7046(9) -1.0580(8) 1.0803(7)
H9A H 0.623(10) -1.134(7) 1.078(8)
H10A H 0.706(4) -1.040(10) 1.003(4)
O1A_2 O 1.0545(7) 0.1434(6) 1.0765(5)
O3_2 O 0.7433(7) 0.1180(6) 0.8807(6)
Cd1A_2 Cd 0.99136(9) -0.06974(8) 1.14716(7)
Cd1_2 Cd 1.00864(9) -0.93026(8) 0.85284(7)
O1_2 O 0.9455(7) -1.1434(6) 0.9235(5)
O3A_2 O 1.2567(7) -1.1180(6) 1.1193(6)
loop_
_geom_bond_atom_site_label_1
_geom_bond_atom_site_label_2
_geom_bond_site_symmetry_1
_geom_bond_site_symmetry_2
Cd1 N2 1_555 1_555
N1 O5 1_555 1_555
N2 C6 1_555 1_555
N3 Cd1 1_555 1_555
O1 Cd1 1_555 1_555
O2 C4 1_555 1_555
O3 C5 1_555 1_555
O4 C5 1_555 1_555
O6 N1 1_555 1_555
O7 Cd1 1_555 1_555
C1 C3 1_555 1_555
C2 C3 1_555 1_555
C3 N1 1_555 1_555
C4 O1 1_555 1_555
C5 C2 1_555 1_555
C6 H1 1_555 1_555
C7 C6 1_555 1_555
H2 C7 1_555 1_555
C8 C7 1_555 1_555
H3 C8 1_555 1_555
C9 C8 1_555 1_555
H4 C9 1_555 1_555
C10 N2 1_555 1_555
C11 N3 1_555 1_555
C12 C11 1_555 1_555
H5 C12 1_555 1_555
C13 C12 1_555 1_555
H6 C13 1_555 1_555
C14 C13 1_555 1_555
H7 C14 1_555 1_555
C15 N3 1_555 1_555
H8 C15 1_555 1_555
H9 O7 1_555 1_555
H10 O7 1_555 1_555
C2A C1 1_555 1_555
C3A C2A 1_555 1_555
N1A C3A 1_555 1_555
O5A N1A 1_555 1_555
O6A N1A 1_555 1_555
C1A C2 1_555 1_555
C4A C1A 1_555 1_555
O1A C4A 1_555 1_555
O2A C4A 1_555 1_555
C5A C2A 1_555 1_555
O3A C5A 1_555 1_555
O4A C5A 1_555 1_555
Cd1A O1A 1_555 1_555
N2A Cd1A 1_555 1_555
N3A Cd1A 1_555 1_555
C6A N2A 1_555 1_555
H1A C6A 1_555 1_555
C7A C6A 1_555 1_555
H2A C7A 1_555 1_555
C8A C7A 1_555 1_555
H3A C8A 1_555 1_555
C9A C8A 1_555 1_555
H4A C9A 1_555 1_555
C10A N2A 1_555 1_555
C11A N3A 1_555 1_555
C12A C11A 1_555 1_555
H5A C12A 1_555 1_555
C13A C12A 1_555 1_555
H6A C13A 1_555 1_555
C14A C13A 1_555 1_555
H7A C14A 1_555 1_555
C15A N3A 1_555 1_555
H8A C15A 1_555 1_555
O7A Cd1A 1_555 1_555
H9A O7A 1_555 1_555
H10A O7A 1_555 1_555
O1A_2 Cd1 1_555 1_555
O3_2 Cd1 1_555 1_555
Cd1A_2 O1 1_555 1_555
Cd1_2 O3 1_555 1_555
O1_2 Cd1A 1_555 1_555
O3A_2 Cd1A 1_555 1_555
C1 C4 1_555 1_555
C9 C10 1_555 1_555
C10 C11 1_555 1_555
C14 C15 1_555 1_555
C3A C1A 1_555 1_555
O1A Cd1_2 1_555 1_555
O3A Cd1A_2 1_555 1_555
C9A C10A 1_555 1_555
C10A C11A 1_555 1_555
C14A C15A 1_555 1_555
O1A_2 Cd1A_2 1_555 1_555
Cd1_2 O1_2 1_555 1_555

#END
