
#######################################################################
#
#                 Cambridge Crystallographic Data Centre
#                                CCDC 
#
#######################################################################
#
# If this CIF has been generated from an entry in the Cambridge 
# Structural Database, then it will include bibliographic, chemical, 
# crystal, experimental, refinement or atomic coordinate data resulting 
# from the CCDC's data processing and validation procedures.
#
#######################################################################

data_DAJBEW02
_symmetry_cell_setting           triclinic
_symmetry_space_group_name_H-M   'P -1'
_symmetry_Int_Tables_number      2
_space_group_name_Hall           '-P 1'
loop_
_symmetry_equiv_pos_site_id
_symmetry_equiv_pos_as_xyz
1 x,y,z
2 -x,-y,-z
_cell_length_a                   7.1170(8)
_cell_length_b                   8.9584(10)
_cell_length_c                   9.7560(11)
_cell_angle_alpha                90.865(2)
_cell_angle_beta                 101.405(2)
_cell_angle_gamma                108.179(2)
_cell_volume                     577.324
loop_
_atom_site_label
_atom_site_type_symbol
_atom_site_fract_x
_atom_site_fract_y
_atom_site_fract_z
Co1 Co 0.0000 0.0000 0.0000
Co2 Co 0.5000 0.0000 0.5000
O1 O 0.1751(2) 0.00496(17) 0.19723(16)
O2 O 0.2213(2) -0.04281(18) -0.09586(18)
O3 O 0.2352(2) -0.14641(18) 0.37014(16)
O4 O 0.3308(3) 0.1185(2) 0.57992(19)
O5 O 0.4395(3) -0.1646(2) 0.65053(18)
O6 O -0.4344(3) -0.79399(19) -0.0695(2)
O7 O -0.4906(3) -0.62853(19) -0.22615(18)
N1 N -0.0958(2) -0.24329(19) 0.03689(18)
C1 C -0.0080(3) -0.2691(2) 0.1661(2)
C2 C -0.0480(3) -0.4170(3) 0.2150(2)
C3 C -0.1809(3) -0.5445(3) 0.1273(2)
C4 C -0.2697(3) -0.5211(2) -0.0073(2)
C5 C -0.2232(3) -0.3675(2) -0.0475(2)
C6 C -0.4101(3) -0.6588(2) -0.1094(2)
C7 C 0.1455(3) -0.1257(2) 0.2522(2)
H1 H 0.3237 0.0367 -0.0940
H2 H 0.2873 -0.0994 -0.0396
H3 H 0.0107 -0.4351 0.3015
H4 H -0.2073 -0.6431 0.1540
H5 H 0.3904 0.1962 0.6468
H6 H 0.2440 0.1342 0.5282
H7 H 0.4093 -0.2622 0.6182
H8 H 0.5426 -0.1428 0.7158
H9 H -0.2827 -0.3492 -0.1447
Co2_2 Co -0.5000 0.0000 -0.5000
O1A O -0.1751(2) -0.00496(17) -0.19723(16)
O2A O -0.2213(2) 0.04281(18) 0.09586(18)
O3A O -0.2352(2) 0.14641(18) -0.37014(16)
O3A_2 O 0.7648(2) 0.14641(18) 0.62986(16)
O4A O 0.6692(3) -0.1185(2) 0.42008(19)
O5A O 0.5605(3) 0.1646(2) 0.34947(18)
O6A O 0.4344(3) 0.79399(19) 0.0695(2)
O7A O 0.4906(3) 0.62853(19) 0.22615(18)
N1A N 0.0958(2) 0.24329(19) -0.03689(18)
C1A C 0.0080(3) 0.2691(2) -0.1661(2)
C2A C 0.0480(3) 0.4170(3) -0.2150(2)
C3A C 0.1809(3) 0.5445(3) -0.1273(2)
C4A C 0.2697(3) 0.5211(2) 0.0073(2)
C5A C 0.2232(3) 0.3675(2) 0.0475(2)
C6A C 0.4101(3) 0.6588(2) 0.1094(2)
C7A C -0.1455(3) 0.1257(2) -0.2522(2)
H1A H -0.3237 -0.0367 0.0940
H2A H -0.2873 0.0994 0.0396
H3A H -0.0107 0.4351 -0.3015
H4A H 0.2073 0.6431 -0.1540
H5A H 0.6096 -0.1962 0.3532
H6A H 0.7560 -0.1342 0.4718
H7A H 0.5907 0.2622 0.3818
H8A H 0.4574 0.1428 0.2842
H9A H 0.2827 0.3492 0.1447
O8 O 0.0346(3) 0.2124(3) 0.3979(2)
H10 H -0.0265 0.1473 0.3215
H11 H -0.0815 0.1998 0.4343
O9 O 0.3387(5) -0.4704(3) 0.5607(3)
H12 H 0.3015 -0.4609 0.4672
H13 H 0.4026 -0.5398 0.6403
loop_
_geom_bond_atom_site_label_1
_geom_bond_atom_site_label_2
_geom_bond_site_symmetry_1
_geom_bond_site_symmetry_2
Co1 O1 1_555 1_555
Co2 O3 1_555 1_555
O1 C7 1_555 1_555
O2 Co1 1_555 1_555
O3 C7 1_555 1_555
O4 Co2 1_555 1_555
O5 Co2 1_555 1_555
O6 C6 1_555 1_555
O7 C6 1_555 1_555
N1 Co1 1_555 1_555
C1 N1 1_555 1_555
C2 C1 1_555 1_555
C3 C2 1_555 1_555
C4 C3 1_555 1_555
C5 N1 1_555 1_555
C6 C4 1_555 1_555
C7 C1 1_555 1_555
H1 O2 1_555 1_555
H2 O2 1_555 1_555
H3 C2 1_555 1_555
H4 C3 1_555 1_555
H5 O4 1_555 1_555
H6 O4 1_555 1_555
H7 O5 1_555 1_555
H8 O5 1_555 1_555
H9 C5 1_555 1_555
O8 H10 1_555 1_555
H11 O8 1_555 1_555
O9 H12 1_555 1_555
H13 O9 1_555 1_555
Co2_2 O3A 1_555 1_555
O1A Co1 1_555 1_555
O2A Co1 1_555 1_555
O3A C7A 1_555 1_555
O3A_2 Co2 1_555 1_555
O4A Co2 1_555 1_555
O5A Co2 1_555 1_555
O6A C6A 1_555 1_555
O7A C6A 1_555 1_555
N1A Co1 1_555 1_555
C1A N1A 1_555 1_555
C2A C1A 1_555 1_555
C3A C2A 1_555 1_555
C4A C3A 1_555 1_555
C5A N1A 1_555 1_555
C6A C4A 1_555 1_555
C7A O1A 1_555 1_555
H1A O2A 1_555 1_555
H2A O2A 1_555 1_555
H3A C2A 1_555 1_555
H4A C3A 1_555 1_555
H5A O4A 1_555 1_555
H6A O4A 1_555 1_555
H7A O5A 1_555 1_555
H8A O5A 1_555 1_555
H9A C5A 1_555 1_555
C4 C5 1_555 1_555
C1A C7A 1_555 1_555
C4A C5A 1_555 1_555

#END
