
#######################################################################
#
#                 Cambridge Crystallographic Data Centre
#                                CCDC 
#
#######################################################################
#
# If this CIF has been generated from an entry in the Cambridge 
# Structural Database, then it will include bibliographic, chemical, 
# crystal, experimental, refinement or atomic coordinate data resulting 
# from the CCDC's data processing and validation procedures.
#
#######################################################################

data_DAJBEW01
_symmetry_cell_setting           triclinic
_symmetry_space_group_name_H-M   'P -1'
_symmetry_Int_Tables_number      2
_space_group_name_Hall           '-P 1'
loop_
_symmetry_equiv_pos_site_id
_symmetry_equiv_pos_as_xyz
1 x,y,z
2 -x,-y,-z
_cell_length_a                   7.112(2)
_cell_length_b                   8.939(3)
_cell_length_c                   9.719(3)
_cell_angle_alpha                91.153(5)
_cell_angle_beta                 101.136(5)
_cell_angle_gamma                108.001(4)
_cell_volume                     574.456
loop_
_atom_site_label
_atom_site_type_symbol
_atom_site_fract_x
_atom_site_fract_y
_atom_site_fract_z
Co1 Co 0.5000 0.5000 0.0000
Co2 Co 1.0000 0.5000 0.5000
N1 N 0.4056(4) 0.2572(3) 0.0382(3)
O1 O 0.6749(3) 0.5063(3) 0.1974(2)
O2 O 0.7350(4) 0.3548(3) 0.3699(2)
O3 O 0.0134(4) -0.1280(3) -0.2260(3)
O4 O 0.0649(4) -0.2931(3) -0.0683(3)
C1 C 0.4913(4) 0.2312(3) 0.1667(3)
C2 C 0.4510(5) 0.0843(4) 0.2164(3)
H1 H 0.5121 0.0709 0.3069
C3 C 0.3173(5) -0.0434(4) 0.1285(4)
H2 H 0.2852 -0.1440 0.1598
C4 C 0.2318(4) -0.0204(3) -0.0060(3)
C5 C 0.2786(4) 0.1326(3) -0.0464(3)
H3 H 0.2191 0.1492 -0.1363
C6 C 0.6458(5) 0.3754(4) 0.2526(3)
C7 C 0.0915(4) -0.1578(4) -0.1087(4)
O5 O 0.2776(3) 0.5426(3) 0.0955(3)
H4 H 0.2242 0.6027 0.0470
H5 H 0.1885 0.4564 0.1038
O6 O 1.0594(4) 0.6656(3) 0.3502(3)
H6 H 0.9501 0.6378 0.2882
H7 H 1.0842 0.7588 0.3863
O7 O 1.1696(4) 0.3816(3) 0.4174(3)
H8 H 1.2670 0.3648 0.4737
H9 H 1.1174 0.3074 0.3518
Co2_2 Co 0.0000 0.5000 -0.5000
N1A N 0.5944(4) 0.7428(3) -0.0382(3)
O1A O 0.3251(3) 0.4937(3) -0.1974(2)
O2A O 0.2650(4) 0.6452(3) -0.3699(2)
O2A_2 O 1.2650(4) 0.6452(3) 0.6301(2)
O3A O 0.9866(4) 1.1280(3) 0.2260(3)
O4A O 0.9351(4) 1.2931(3) 0.0683(3)
C1A C 0.5087(4) 0.7688(3) -0.1667(3)
C2A C 0.5490(5) 0.9157(4) -0.2164(3)
H1A H 0.4879 0.9291 -0.3069
C3A C 0.6827(5) 1.0434(4) -0.1285(4)
H2A H 0.7148 1.1440 -0.1598
C4A C 0.7682(4) 1.0204(3) 0.0060(3)
C5A C 0.7214(4) 0.8674(3) 0.0464(3)
H3A H 0.7809 0.8508 0.1363
C6A C 0.3542(5) 0.6246(4) -0.2526(3)
C7A C 0.9085(4) 1.1578(4) 0.1087(4)
O5A O 0.7224(3) 0.4574(3) -0.0955(3)
H4A H 0.7758 0.3973 -0.0470
H5A H 0.8115 0.5436 -0.1038
O6A O 0.9406(4) 0.3344(3) 0.6498(3)
H6A H 1.0499 0.3622 0.7118
H7A H 0.9158 0.2412 0.6137
O7A O 0.8304(4) 0.6184(3) 0.5826(3)
H8A H 0.7330 0.6352 0.5263
H9A H 0.8826 0.6926 0.6482
O8 O 0.4661(5) 0.2873(4) 0.6008(3)
H10 H 0.4831 0.3447 0.6758
H11 H 0.5707 0.3147 0.5653
O9 O 0.1655(8) 0.9690(5) 0.4524(7)
H12 H 0.0467 0.9732 0.4185
H13 H 0.2477 1.0559 0.4937
loop_
_geom_bond_atom_site_label_1
_geom_bond_atom_site_label_2
_geom_bond_site_symmetry_1
_geom_bond_site_symmetry_2
Co1 N1 1_555 1_555
Co2 O2 1_555 1_555
N1 C1 1_555 1_555
O1 Co1 1_555 1_555
O2 C6 1_555 1_555
O3 C7 1_555 1_555
O4 C7 1_555 1_555
C1 C2 1_555 1_555
C2 H1 1_555 1_555
C3 C2 1_555 1_555
H2 C3 1_555 1_555
C4 C3 1_555 1_555
C5 N1 1_555 1_555
H3 C5 1_555 1_555
C6 O1 1_555 1_555
C7 C4 1_555 1_555
O5 Co1 1_555 1_555
H4 O5 1_555 1_555
H5 O5 1_555 1_555
O6 Co2 1_555 1_555
H6 O6 1_555 1_555
H7 O6 1_555 1_555
O7 Co2 1_555 1_555
H8 O7 1_555 1_555
H9 O7 1_555 1_555
O8 H10 1_555 1_555
H11 O8 1_555 1_555
O9 H12 1_555 1_555
H13 O9 1_555 1_555
Co2_2 O2A 1_555 1_555
N1A Co1 1_555 1_555
O1A Co1 1_555 1_555
O2A C6A 1_555 1_555
O2A_2 Co2 1_555 1_555
O3A C7A 1_555 1_555
O4A C7A 1_555 1_555
C1A N1A 1_555 1_555
C2A C1A 1_555 1_555
H1A C2A 1_555 1_555
C3A C2A 1_555 1_555
H2A C3A 1_555 1_555
C4A C3A 1_555 1_555
C5A N1A 1_555 1_555
H3A C5A 1_555 1_555
C6A O1A 1_555 1_555
C7A C4A 1_555 1_555
O5A Co1 1_555 1_555
H4A O5A 1_555 1_555
H5A O5A 1_555 1_555
O6A Co2 1_555 1_555
H6A O6A 1_555 1_555
H7A O6A 1_555 1_555
O7A Co2 1_555 1_555
H8A O7A 1_555 1_555
H9A O7A 1_555 1_555
C1 C6 1_555 1_555
C4 C5 1_555 1_555
C1A C6A 1_555 1_555
C4A C5A 1_555 1_555

#END
