
#######################################################################
#
#                 Cambridge Crystallographic Data Centre
#                                CCDC 
#
#######################################################################
#
# If this CIF has been generated from an entry in the Cambridge 
# Structural Database, then it will include bibliographic, chemical, 
# crystal, experimental, refinement or atomic coordinate data resulting 
# from the CCDC's data processing and validation procedures.
#
#######################################################################

data_DAJBIA
_symmetry_cell_setting           monoclinic
_symmetry_space_group_name_H-M   'C 2/c'
_symmetry_Int_Tables_number      15
_space_group_name_Hall           '-C 2yn'
loop_
_symmetry_equiv_pos_site_id
_symmetry_equiv_pos_as_xyz
1 x,y,z
2 x,-y,1/2+z
3 1/2+x,1/2+y,z
4 1/2+x,1/2-y,1/2+z
5 -x,-y,-z
6 -x,y,1/2-z
7 1/2-x,1/2-y,-z
8 1/2-x,1/2+y,1/2-z
_cell_length_a                   14.9075(6)
_cell_length_b                   8.2523(3)
_cell_length_c                   16.9643(2)
_cell_angle_alpha                90
_cell_angle_beta                 100.982(2)
_cell_angle_gamma                90
_cell_volume                     2048.75
loop_
_atom_site_label
_atom_site_type_symbol
_atom_site_fract_x
_atom_site_fract_y
_atom_site_fract_z
Co1 Co 0.0000 0.08503(8) 0.2500
O1 O 0.00493(15) 0.1186(3) 0.37247(14)
O2 O 0.08766(19) 0.2267(5) 0.48338(15)
O3 O 0.2904(2) 0.4029(5) 0.13592(19)
O4 O 0.40405(16) 0.4022(3) 0.24143(19)
N1 N 0.11250(17) 0.2452(3) 0.28151(15)
C1 C 0.1704(2) 0.2915(4) 0.2347(2)
H3 H 0.1527 0.2787 0.1795
C2 C 0.2554(2) 0.3578(4) 0.2643(2)
C3 C 0.2787(2) 0.3850(5) 0.3461(2)
H4 H 0.3345 0.4322 0.3680
C4 C 0.2188(2) 0.3418(5) 0.3948(2)
H5 H 0.2330 0.3621 0.4497
C5 C 0.1376(2) 0.2682(4) 0.36130(19)
C6 C 0.0716(2) 0.2002(5) 0.4104(2)
C7 C 0.3206(3) 0.3926(5) 0.2085(3)
O1E O -0.00493(15) 0.1186(3) 0.12753(14)
O2E O -0.08766(19) 0.2267(5) 0.01662(15)
O3E O -0.2904(2) 0.4029(5) 0.36408(19)
O4E O -0.40405(16) 0.4022(3) 0.25857(19)
N1E N -0.11250(17) 0.2452(3) 0.21849(15)
C1E C -0.1704(2) 0.2915(4) 0.2653(2)
H3E H -0.1527 0.2787 0.3205
C2E C -0.2554(2) 0.3578(4) 0.2357(2)
C3E C -0.2787(2) 0.3850(5) 0.1539(2)
H4E H -0.3345 0.4322 0.1320
C4E C -0.2188(2) 0.3418(5) 0.1052(2)
H5E H -0.2330 0.3621 0.0503
C5E C -0.1376(2) 0.2682(4) 0.13870(19)
C6E C -0.0716(2) 0.2002(5) 0.0896(2)
C7E C -0.3206(3) 0.3926(5) 0.2915(3)
O4B O -0.09595(16) -0.0978(3) 0.24143(19)
O4G O 0.09595(16) -0.0978(3) 0.25857(19)
Co1B Co 0.5000 0.58503(8) 0.2500
Co1B_2 Co -0.5000 0.58503(8) 0.2500
N2 N -0.0471(3) -0.2344(4) 0.0736(2)
H1 H -0.0024 -0.1919 0.0510
H2 H -0.0678 -0.1552 0.1019
C8 C -0.1217(3) -0.2868(8) 0.0097(3)
H6 H -0.1436 -0.1960 -0.0238
H7 H -0.1705 -0.3298 0.0331
H8 H -0.0999 -0.3690 -0.0220
C9 C -0.0087(4) -0.3613(7) 0.1280(3)
H9 H 0.0396 -0.3177 0.1680
H10 H 0.0152 -0.4451 0.0986
H11 H -0.0554 -0.4056 0.1536
loop_
_geom_bond_atom_site_label_1
_geom_bond_atom_site_label_2
_geom_bond_site_symmetry_1
_geom_bond_site_symmetry_2
Co1 O1 1_555 1_555
O1 C6 1_555 1_555
O2 C6 1_555 1_555
O3 C7 1_555 1_555
O4 C7 1_555 1_555
N1 Co1 1_555 1_555
N2 H1 1_555 1_555
H2 N2 1_555 1_555
C1 N1 1_555 1_555
H3 C1 1_555 1_555
C2 C1 1_555 1_555
C3 C2 1_555 1_555
H4 C3 1_555 1_555
C4 C3 1_555 1_555
H5 C4 1_555 1_555
C5 N1 1_555 1_555
C6 C5 1_555 1_555
C7 C2 1_555 1_555
C8 N2 1_555 1_555
H6 C8 1_555 1_555
H7 C8 1_555 1_555
H8 C8 1_555 1_555
C9 N2 1_555 1_555
H9 C9 1_555 1_555
H10 C9 1_555 1_555
H11 C9 1_555 1_555
O1E Co1 1_555 1_555
O2E C6E 1_555 1_555
O3E C7E 1_555 1_555
O4E C7E 1_555 1_555
N1E Co1 1_555 1_555
C1E N1E 1_555 1_555
H3E C1E 1_555 1_555
C2E C1E 1_555 1_555
C3E C2E 1_555 1_555
H4E C3E 1_555 1_555
C4E C3E 1_555 1_555
H5E C4E 1_555 1_555
C5E N1E 1_555 1_555
C6E O1E 1_555 1_555
C7E C2E 1_555 1_555
O4B Co1 1_555 1_555
O4G Co1 1_555 1_555
Co1B O4 1_555 1_555
Co1B_2 O4E 1_555 1_555
C4 C5 1_555 1_555
C4E C5E 1_555 1_555
C5E C6E 1_555 1_555

#END
