
#######################################################################
#
#                 Cambridge Crystallographic Data Centre
#                                CCDC 
#
#######################################################################
#
# If this CIF has been generated from an entry in the Cambridge 
# Structural Database, then it will include bibliographic, chemical, 
# crystal, experimental, refinement or atomic coordinate data resulting 
# from the CCDC's data processing and validation procedures.
#
#######################################################################

data_DAJBEW04
_symmetry_cell_setting           triclinic
_symmetry_space_group_name_H-M   'P -1'
_symmetry_Int_Tables_number      2
_space_group_name_Hall           '-P 1'
loop_
_symmetry_equiv_pos_site_id
_symmetry_equiv_pos_as_xyz
1 x,y,z
2 -x,-y,-z
_cell_length_a                   7.128(13)
_cell_length_b                   8.951(16)
_cell_length_c                   9.750(18)
_cell_angle_alpha                90.91(3)
_cell_angle_beta                 101.34(2)
_cell_angle_gamma                108.06(2)
_cell_volume                     577.909
loop_
_atom_site_label
_atom_site_type_symbol
_atom_site_fract_x
_atom_site_fract_y
_atom_site_fract_z
Co1 Co 0.5000 0.5000 1.0000
Co2 Co 1.0000 0.5000 1.5000
N1 N 0.4049(10) 0.2593(9) 1.0374(8)
O1 O 0.6750(9) 0.5057(7) 1.1968(7)
O2 O 0.7350(10) 0.3533(8) 1.3701(7)
O3 O 0.0661(10) -0.2942(8) 0.9322(8)
O4 O 0.0112(11) -0.1283(9) 0.7738(8)
O5 O 0.2780(9) 0.5409(8) 1.0932(7)
H1 H 0.1978 0.4655 1.1257
H2 H 0.2681 0.6330 1.0985
O6 O 1.0571(10) 0.6638(9) 1.3516(7)
H3 H 1.1276 0.6543 1.2932
H4 H 1.0097 0.7402 1.3494
O7 O 1.1675(10) 0.3800(8) 1.4186(7)
H5 H 1.2210 0.4139 1.3499
H6 H 1.1823 0.2972 1.4542
C1 C 0.4917(13) 0.2300(11) 1.1648(9)
C2 C 0.4505(14) 0.0846(11) 1.2151(10)
H7 H 0.5103 0.0719 1.3061
C3 C 0.3180(14) -0.0435(12) 1.1280(10)
H8 H 0.2873 -0.1440 1.1595
C4 C 0.2315(13) -0.0204(10) 0.9934(10)
C5 C 0.2752(13) 0.1314(12) 0.9535(9)
H9 H 0.2127 0.1474 0.8644
C6 C 0.0904(13) -0.1602(13) 0.8919(11)
C7 C 0.6451(13) 0.3761(12) 1.2524(10)
Co2_2 Co 0.0000 0.5000 0.5000
N1A N 0.5951(10) 0.7407(9) 0.9626(8)
O1A O 0.3250(9) 0.4943(7) 0.8032(7)
O2A O 0.2650(10) 0.6467(8) 0.6299(7)
O2A_2 O 1.2650(10) 0.6467(8) 1.6299(7)
O3A O 0.9339(10) 1.2942(8) 1.0678(8)
O4A O 0.9888(11) 1.1283(9) 1.2262(8)
O5A O 0.7220(9) 0.4591(8) 0.9068(7)
H1A H 0.8022 0.5345 0.8743
H2A H 0.7319 0.3670 0.9015
O6A O 0.9429(10) 0.3362(9) 1.6484(7)
H3A H 0.8724 0.3457 1.7068
H4A H 0.9903 0.2598 1.6506
O7A O 0.8325(10) 0.6200(8) 1.5814(7)
H5A H 0.7790 0.5861 1.6501
H6A H 0.8177 0.7028 1.5458
C1A C 0.5083(13) 0.7700(11) 0.8352(9)
C2A C 0.5495(14) 0.9154(11) 0.7849(10)
H7A H 0.4897 0.9281 0.6939
C3A C 0.6820(14) 1.0435(12) 0.8720(10)
H8A H 0.7127 1.1440 0.8405
C4A C 0.7685(13) 1.0204(10) 1.0066(10)
C5A C 0.7248(13) 0.8686(12) 1.0465(9)
H9A H 0.7873 0.8526 1.1356
C6A C 0.9096(13) 1.1602(13) 1.1081(11)
C7A C 0.3549(13) 0.6239(12) 0.7476(10)
O8 O 0.1604(17) 0.9714(12) 0.4481(14)
H10 H 0.1469 0.9429 0.3622
H11 H 0.1350 1.0542 0.4704
O9 O 0.4671(12) 0.2902(11) 0.6038(8)
H12 H 0.4300 0.3318 0.5299
H13 H 0.4977 0.2062 0.5975
loop_
_geom_bond_atom_site_label_1
_geom_bond_atom_site_label_2
_geom_bond_site_symmetry_1
_geom_bond_site_symmetry_2
Co1 N1 1_555 1_555
Co2 O2 1_555 1_555
N1 C1 1_555 1_555
O1 Co1 1_555 1_555
O2 C7 1_555 1_555
O3 C6 1_555 1_555
O4 C6 1_555 1_555
O5 Co1 1_555 1_555
H1 O5 1_555 1_555
H2 O5 1_555 1_555
O6 Co2 1_555 1_555
H3 O6 1_555 1_555
H4 O6 1_555 1_555
O7 Co2 1_555 1_555
H5 O7 1_555 1_555
H6 O7 1_555 1_555
C1 C2 1_555 1_555
C2 H7 1_555 1_555
C3 C2 1_555 1_555
H8 C3 1_555 1_555
C4 C3 1_555 1_555
C5 N1 1_555 1_555
H9 C5 1_555 1_555
C6 C4 1_555 1_555
C7 O1 1_555 1_555
O8 H10 1_555 1_555
H11 O8 1_555 1_555
O9 H12 1_555 1_555
H13 O9 1_555 1_555
Co2_2 O2A 1_555 1_555
N1A Co1 1_555 1_555
O1A Co1 1_555 1_555
O2A C7A 1_555 1_555
O2A_2 Co2 1_555 1_555
O3A C6A 1_555 1_555
O4A C6A 1_555 1_555
O5A Co1 1_555 1_555
H1A O5A 1_555 1_555
H2A O5A 1_555 1_555
O6A Co2 1_555 1_555
H3A O6A 1_555 1_555
H4A O6A 1_555 1_555
O7A Co2 1_555 1_555
H5A O7A 1_555 1_555
H6A O7A 1_555 1_555
C1A N1A 1_555 1_555
C2A C1A 1_555 1_555
H7A C2A 1_555 1_555
C3A C2A 1_555 1_555
H8A C3A 1_555 1_555
C4A C3A 1_555 1_555
C5A N1A 1_555 1_555
H9A C5A 1_555 1_555
C6A C4A 1_555 1_555
C7A O1A 1_555 1_555
C1 C7 1_555 1_555
C4 C5 1_555 1_555
C1A C7A 1_555 1_555
C4A C5A 1_555 1_555

#END
