
#######################################################################
#
#                 Cambridge Crystallographic Data Centre
#                                CCDC 
#
#######################################################################
#
# If this CIF has been generated from an entry in the Cambridge 
# Structural Database, then it will include bibliographic, chemical, 
# crystal, experimental, refinement or atomic coordinate data resulting 
# from the CCDC's data processing and validation procedures.
#
#######################################################################

data_DAJBEW03
_symmetry_cell_setting           triclinic
_symmetry_space_group_name_H-M   'P -1'
_symmetry_Int_Tables_number      2
_space_group_name_Hall           '-P 1'
loop_
_symmetry_equiv_pos_site_id
_symmetry_equiv_pos_as_xyz
1 x,y,z
2 -x,-y,-z
_cell_length_a                   7.056(1)
_cell_length_b                   8.926(1)
_cell_length_c                   9.658(1)
_cell_angle_alpha                90.929(4)
_cell_angle_beta                 100.750(6)
_cell_angle_gamma                108.077(6)
_cell_volume                     566.316
loop_
_atom_site_label
_atom_site_type_symbol
_atom_site_fract_x
_atom_site_fract_y
_atom_site_fract_z
Co1 Co 0.0000 0.0000 0.0000
Co2 Co -0.5000 0.0000 -0.5000
O1 O -0.1756(2) -0.0043(2) -0.1973(2)
O2 O -0.2338(3) 0.1474(2) -0.3713(2)
O3 O 0.4331(3) 0.7955(2) 0.0693(3)
O4 O 0.4914(3) 0.6288(2) 0.2261(2)
O5 O 0.2217(3) -0.0437(2) -0.0986(2)
O6 O -0.3274(3) -0.1174(2) -0.5813(2)
O7 O -0.4420(3) 0.1653(2) -0.6518(2)
N1 N 0.0959(3) 0.2435(2) -0.0379(2)
C1 C 0.0087(3) 0.2697(3) -0.1667(2)
C2 C 0.0486(4) 0.4188(3) -0.2168(2)
C3 C 0.1826(4) 0.5463(3) -0.1271(3)
C4 C 0.2695(3) 0.5221(2) 0.0061(2)
C5 C 0.2240(3) 0.3687(2) 0.0477(2)
C6 C -0.1454(3) 0.1261(3) -0.2531(2)
C7 C 0.4099(3) 0.6593(3) 0.1087(3)
H1 H -0.0099 0.4366 -0.3109
H2 H 0.2166 0.6502 -0.1591
H3 H 0.2826 0.3416 0.1398
H4 H -0.3790 -0.1922 -0.6550
H5 H -0.2470 -0.1454 -0.5267
H6 H -0.4097 0.2594 -0.6094
H7 H -0.5724 0.1332 -0.7198
H8 H 0.3240 0.0408 -0.0995
H9 H 0.2881 -0.1048 -0.0396
Co2_2 Co 0.5000 0.0000 0.5000
O1A O 0.1756(2) 0.0043(2) 0.1973(2)
O2A O 0.2338(3) -0.1474(2) 0.3713(2)
O2A_2 O -0.7662(3) -0.1474(2) -0.6287(2)
O3A O -0.4331(3) -0.7955(2) -0.0693(3)
O4A O -0.4914(3) -0.6288(2) -0.2261(2)
O5A O -0.2217(3) 0.0437(2) 0.0986(2)
O6A O -0.6726(3) 0.1174(2) -0.4187(2)
O7A O -0.5580(3) -0.1653(2) -0.3482(2)
N1A N -0.0959(3) -0.2435(2) 0.0379(2)
C1A C -0.0087(3) -0.2697(3) 0.1667(2)
C2A C -0.0486(4) -0.4188(3) 0.2168(2)
C3A C -0.1826(4) -0.5463(3) 0.1271(3)
C4A C -0.2695(3) -0.5221(2) -0.0061(2)
C5A C -0.2240(3) -0.3687(2) -0.0477(2)
C6A C 0.1454(3) -0.1261(3) 0.2531(2)
C7A C -0.4099(3) -0.6593(3) -0.1087(3)
H1A H 0.0099 -0.4366 0.3109
H2A H -0.2166 -0.6502 0.1591
H3A H -0.2826 -0.3416 -0.1398
H4A H -0.6210 0.1922 -0.3450
H5A H -0.7530 0.1454 -0.4733
H6A H -0.5903 -0.2594 -0.3906
H7A H -0.4276 -0.1332 -0.2802
H8A H -0.3240 -0.0408 0.0995
H9A H -0.2881 0.1048 0.0396
O8 O 0.0353(4) 0.2140(3) 0.3997(3)
H10 H -0.0847 0.1902 0.4518
H11 H -0.0360 0.1463 0.3284
O9 O 0.6547(6) 0.4699(4) 0.4340(4)
H12 H 0.6297 0.5724 0.4281
H13 H 0.7034 0.4554 0.5281
loop_
_geom_bond_atom_site_label_1
_geom_bond_atom_site_label_2
_geom_bond_site_symmetry_1
_geom_bond_site_symmetry_2
Co1 O1 1_555 1_555
Co2 O2 1_555 1_555
O1 C6 1_555 1_555
O2 C6 1_555 1_555
O3 C7 1_555 1_555
O4 C7 1_555 1_555
O5 Co1 1_555 1_555
O6 Co2 1_555 1_555
O7 Co2 1_555 1_555
N1 Co1 1_555 1_555
C1 N1 1_555 1_555
C2 C1 1_555 1_555
C3 C2 1_555 1_555
C4 C3 1_555 1_555
C5 N1 1_555 1_555
C6 C1 1_555 1_555
C7 C4 1_555 1_555
H1 C2 1_555 1_555
H2 C3 1_555 1_555
H3 C5 1_555 1_555
H4 O6 1_555 1_555
H5 O6 1_555 1_555
H6 O7 1_555 1_555
H7 O7 1_555 1_555
H8 O5 1_555 1_555
H9 O5 1_555 1_555
O8 H10 1_555 1_555
H11 O8 1_555 1_555
O9 H12 1_555 1_555
H13 O9 1_555 1_555
Co2_2 O2A 1_555 1_555
O1A Co1 1_555 1_555
O2A C6A 1_555 1_555
O2A_2 Co2 1_555 1_555
O3A C7A 1_555 1_555
O4A C7A 1_555 1_555
O5A Co1 1_555 1_555
O6A Co2 1_555 1_555
O7A Co2 1_555 1_555
N1A Co1 1_555 1_555
C1A N1A 1_555 1_555
C2A C1A 1_555 1_555
C3A C2A 1_555 1_555
C4A C3A 1_555 1_555
C5A N1A 1_555 1_555
C6A O1A 1_555 1_555
C7A C4A 1_555 1_555
H1A C2A 1_555 1_555
H2A C3A 1_555 1_555
H3A C5A 1_555 1_555
H4A O6A 1_555 1_555
H5A O6A 1_555 1_555
H6A O7A 1_555 1_555
H7A O7A 1_555 1_555
H8A O5A 1_555 1_555
H9A O5A 1_555 1_555
C4 C5 1_555 1_555
C1A C6A 1_555 1_555
C4A C5A 1_555 1_555

#END
