
#######################################################################
#
#                 Cambridge Crystallographic Data Centre
#                                CCDC 
#
#######################################################################
#
# If this CIF has been generated from an entry in the Cambridge 
# Structural Database, then it will include bibliographic, chemical, 
# crystal, experimental, refinement or atomic coordinate data resulting 
# from the CCDC's data processing and validation procedures.
#
#######################################################################

data_DAJHOM
_symmetry_cell_setting           triclinic
_symmetry_space_group_name_H-M   'P -1'
_symmetry_Int_Tables_number      2
_space_group_name_Hall           '-P 1'
loop_
_symmetry_equiv_pos_site_id
_symmetry_equiv_pos_as_xyz
1 x,y,z
2 -x,-y,-z
_cell_length_a                   13.1717(12)
_cell_length_b                   13.1901(14)
_cell_length_c                   16.2347(19)
_cell_angle_alpha                97.293(7)
_cell_angle_beta                 94.437(7)
_cell_angle_gamma                90.523(5)
_cell_volume                     2788.84
loop_
_atom_site_label
_atom_site_type_symbol
_atom_site_fract_x
_atom_site_fract_y
_atom_site_fract_z
Co1 Co 0.32505(4) 1.22875(4) 0.11183(3)
Co3 Co 0.32060(4) 1.23846(4) 0.28227(3)
O1 O 0.4786(2) 1.2325(3) 0.1315(2)
O2 O 0.4727(2) 1.2377(3) 0.2687(2)
O3 O 0.1671(2) 1.2360(3) 0.2622(2)
O4 O 0.1730(2) 1.2288(3) 0.1249(2)
O5 O 0.3217(3) 1.0821(2) 0.2529(2)
O6 O 0.3268(3) 1.0743(2) 0.1149(2)
O7 O 0.3257(3) 1.3846(2) 0.1382(2)
O8 O 0.3189(3) 1.3917(2) 0.2758(2)
N1 N 0.3099(3) 1.2263(3) -0.0160(2)
N2 N 0.3369(3) 1.2458(3) 0.4106(2)
C1 C 0.6336(3) 1.2326(3) 0.2147(3)
C2 C 0.6908(3) 1.2349(4) 0.1469(3)
H1 H 0.6577 1.2351 0.0942
C3 C 0.7976(3) 1.2368(4) 0.1559(3)
C4 C 0.8580(3) 1.2439(4) 0.0886(3)
H2 H 0.8268 1.2483 0.0359
C5 C 0.9625(4) 1.2442(4) 0.1002(3)
H3 H 1.0012 1.2486 0.0552
C6 C 1.0113(3) 1.2379(3) 0.1791(3)
C7 C 0.9553(3) 1.2316(3) 0.2457(3)
H4 H 0.9883 1.2266 0.2977
C8 C 0.8472(3) 1.2328(3) 0.2364(3)
C9 C 0.7874(3) 1.2271(4) 0.3045(3)
H5 H 0.8192 1.2224 0.3570
C10 C 0.6839(3) 1.2284(4) 0.2940(3)
H6 H 0.6458 1.2265 0.3397
C11 C 0.5201(3) 1.2344(3) 0.2037(3)
C12 C 0.1265(3) 1.2346(3) 0.1904(3)
C13 C 0.3317(3) 0.9197(3) 0.1735(3)
C14 C 0.3144(4) 0.8693(4) 0.2403(3)
H7 H 0.3020 0.9070 0.2908
C15 C 0.3150(4) 0.7616(3) 0.2340(3)
C16 C 0.2963(5) 0.7082(4) 0.3026(3)
H8 H 0.2825 0.7445 0.3533
C17 C 0.2985(5) 0.6044(4) 0.2939(3)
H9 H 0.2858 0.5706 0.3391
C18 C 0.3197(4) 0.5464(3) 0.2177(3)
C19 C 0.3381(4) 0.5975(4) 0.1512(3)
H10 H 0.3521 0.5601 0.1009
C20 C 0.3362(4) 0.7050(4) 0.1576(3)
C21 C 0.3533(4) 0.7582(4) 0.0895(3)
H11 H 0.3671 0.7216 0.0389
C22 C 0.3500(4) 0.8613(4) 0.0966(3)
H12 H 0.3598 0.8944 0.0505
C23 C 0.3260(3) 1.0343(3) 0.1810(3)
C24 C 0.3210(4) 1.4331(4) 0.2099(3)
C25 C 0.2267(4) 1.2564(4) -0.0554(3)
H13 H 0.1720 1.2765 -0.0246
C26 C 0.2167(4) 1.2595(5) -0.1403(3)
H14 H 0.1560 1.2806 -0.1654
C27 C 0.2961(4) 1.2315(4) -0.1879(3)
C28 C 0.3817(5) 1.1961(6) -0.1482(3)
C29 C 0.3865(5) 1.1939(6) -0.0624(3)
C30 C 0.2863(4) 1.2368(4) -0.2784(3)
H15 H 0.2207 1.2373 -0.3040
C31 C 0.3619(4) 1.2410(4) -0.3259(3)
H16 H 0.4276 1.2408 -0.3004
C32 C 0.3515(4) 1.2458(4) -0.4168(3)
C33 C 0.2581(4) 1.2379(4) -0.4622(3)
H17 H 0.1986 1.2335 -0.4354
C34 C 0.2534(4) 1.2366(4) 0.4521(3)
H18 H 0.1901 1.2291 0.4222
C35 C 0.4278(4) 1.2558(4) 0.4558(3)
H19 H 0.4862 1.2626 0.4280
C36 C 0.4383(4) 1.2566(4) -0.4592(3)
C33_2 C 0.2581(4) 1.2379(4) 0.5378(3)
C32_2 C 0.3515(4) 1.2458(4) 0.5832(3)
C31_2 C 0.3619(4) 1.2410(4) 0.6741(3)
C30_2 C 0.2863(4) 1.2368(4) 0.7216(3)
C27_2 C 0.2961(4) 1.2315(4) 0.8121(3)
C26_2 C 0.2167(4) 1.2595(5) 0.8597(3)
C25_2 C 0.2267(4) 1.2564(4) 0.9446(3)
N1_2 N 0.3099(3) 1.2263(3) 0.9840(2)
Co1_2 Co 0.32505(4) 1.22875(4) 1.11183(3)
C29_2 C 0.3865(5) 1.1939(6) 0.9376(3)
C28_2 C 0.3817(5) 1.1961(6) 0.8518(3)
H13_2 H 0.1720 1.2765 0.9754
H14_2 H 0.1560 1.2806 0.8346
H15_2 H 0.2207 1.2373 0.6960
H16_2 H 0.4276 1.2408 0.6996
C36_2 C 0.4383(4) 1.2566(4) 0.5408(3)
H17_2 H 0.1986 1.2335 0.5646
C18_2 C 0.3197(4) 1.5464(3) 0.2177(3)
C17_2 C 0.2985(5) 1.6044(4) 0.2939(3)
C16_2 C 0.2963(5) 1.7082(4) 0.3026(3)
C15_2 C 0.3150(4) 1.7616(3) 0.2340(3)
C14_2 C 0.3144(4) 1.8693(4) 0.2403(3)
C13_2 C 0.3317(3) 1.9197(3) 0.1735(3)
C22_2 C 0.3500(4) 1.8613(4) 0.0966(3)
C21_2 C 0.3533(4) 1.7582(4) 0.0895(3)
C20_2 C 0.3362(4) 1.7050(4) 0.1576(3)
C19_2 C 0.3381(4) 1.5975(4) 0.1512(3)
H10_2 H 0.3521 1.5601 0.1009
H11_2 H 0.3671 1.7216 0.0389
H12_2 H 0.3598 1.8944 0.0505
C23_2 C 0.3260(3) 2.0343(3) 0.1810(3)
O5_2 O 0.3217(3) 2.0821(2) 0.2529(2)
O6_2 O 0.3268(3) 2.0743(2) 0.1149(2)
H7_2 H 0.3020 1.9070 0.2908
H8_2 H 0.2825 1.7445 0.3533
H9_2 H 0.2858 1.5706 0.3391
C6_2 C 0.0113(3) 1.2379(3) 0.1791(3)
C5_2 C -0.0375(4) 1.2442(4) 0.1002(3)
C4_2 C -0.1420(3) 1.2439(4) 0.0886(3)
C3_2 C -0.2024(3) 1.2368(4) 0.1559(3)
C2_2 C -0.3092(3) 1.2349(4) 0.1469(3)
C1_2 C -0.3664(3) 1.2326(3) 0.2147(3)
C10_2 C -0.3161(3) 1.2284(4) 0.2940(3)
C9_2 C -0.2126(3) 1.2271(4) 0.3045(3)
C8_2 C -0.1528(3) 1.2328(3) 0.2364(3)
C7_2 C -0.0447(3) 1.2316(3) 0.2457(3)
H4_2 H -0.0117 1.2266 0.2977
H5_2 H -0.1808 1.2224 0.3570
H6_2 H -0.3542 1.2265 0.3397
C11_2 C -0.4799(3) 1.2344(3) 0.2037(3)
O1_2 O -0.5214(2) 1.2325(3) 0.1315(2)
O2_2 O -0.5273(2) 1.2377(3) 0.2687(2)
H1_2 H -0.3423 1.2351 0.0942
H2_2 H -0.1732 1.2483 0.0359
H3_2 H 0.0012 1.2486 0.0552
C12_2 C 1.1265(3) 1.2346(3) 0.1904(3)
C24_2 C 0.3210(4) 0.4331(4) 0.2099(3)
C34_2 C 0.2534(4) 1.2366(4) -0.5479(3)
C35_2 C 0.4278(4) 1.2558(4) -0.5442(3)
N2_2 N 0.3369(3) 1.2458(3) -0.5894(2)
H19_2 H 0.4862 1.2626 -0.5720
H18_2 H 0.1901 1.2291 -0.5778
Co3_2 Co 0.32060(4) 1.23846(4) -0.71773(3)
Co3_3 Co -0.67940(4) 1.23846(4) 0.28227(3)
Co1_3 Co -0.67495(4) 1.22875(4) 0.11183(3)
Co3_4 Co 0.32060(4) 2.23846(4) 0.28227(3)
Co1_4 Co 0.32505(4) 2.22875(4) 0.11183(3)
O3_2 O 1.1671(2) 1.2360(3) 0.2622(2)
O4_2 O 1.1730(2) 1.2288(3) 0.1249(2)
O7_2 O 0.3257(3) 0.3846(2) 0.1382(2)
O8_2 O 0.3189(3) 0.3917(2) 0.2758(2)
Co1_5 Co 1.32505(4) 1.22875(4) 0.11183(3)
Co3_5 Co 1.32060(4) 1.23846(4) 0.28227(3)
Co1_6 Co 0.32505(4) 0.22875(4) 0.11183(3)
Co3_6 Co 0.32060(4) 0.23846(4) 0.28227(3)
O2_3 O 1.4727(2) 1.2377(3) 0.2687(2)
O5_3 O 1.3217(3) 1.0821(2) 0.2529(2)
O8_3 O 1.3189(3) 1.3917(2) 0.2758(2)
N2_3 N 1.3369(3) 1.2458(3) 0.4106(2)
O1_3 O 1.4786(2) 1.2325(3) 0.1315(2)
O6_3 O 1.3268(3) 1.0743(2) 0.1149(2)
O7_3 O 1.3257(3) 1.3846(2) 0.1382(2)
N1_3 N 1.3099(3) 1.2263(3) -0.0160(2)
C25_3 C 1.2267(4) 1.2564(4) -0.0554(3)
C29_3 C 1.3865(5) 1.1939(6) -0.0624(3)
H13_3 H 1.1720 1.2765 -0.0246
C26_3 C 1.2167(4) 1.2595(5) -0.1403(3)
C28_3 C 1.3817(5) 1.1961(6) -0.1482(3)
H14_3 H 1.1560 1.2806 -0.1654
C27_3 C 1.2961(4) 1.2315(4) -0.1879(3)
C30_3 C 1.2863(4) 1.2368(4) -0.2784(3)
H15_3 H 1.2207 1.2373 -0.3040
C31_3 C 1.3619(4) 1.2410(4) -0.3259(3)
H16_3 H 1.4276 1.2408 -0.3004
C32_3 C 1.3515(4) 1.2458(4) -0.4168(3)
C33_3 C 1.2581(4) 1.2379(4) -0.4622(3)
C36_3 C 1.4383(4) 1.2566(4) -0.4592(3)
H17_3 H 1.1986 1.2335 -0.4354
C34_3 C 1.2534(4) 1.2366(4) -0.5479(3)
C35_3 C 1.4278(4) 1.2558(4) -0.5442(3)
N2_4 N 1.3369(3) 1.2458(3) -0.5894(2)
H18_3 H 1.1901 1.2291 -0.5778
H19_3 H 1.4862 1.2626 -0.5720
Co3_7 Co 1.32060(4) 1.23846(4) -0.71773(3)
C23_3 C 1.3260(3) 1.0343(3) 0.1810(3)
C11_3 C 1.5201(3) 1.2344(3) 0.2037(3)
C13_3 C 1.3317(3) 0.9197(3) 0.1735(3)
C1_3 C 1.6336(3) 1.2326(3) 0.2147(3)
C14_3 C 1.3144(4) 0.8693(4) 0.2403(3)
C22_3 C 1.3500(4) 0.8613(4) 0.0966(3)
C2_3 C 1.6908(3) 1.2349(4) 0.1469(3)
C10_3 C 1.6839(3) 1.2284(4) 0.2940(3)
H7_3 H 1.3020 0.9070 0.2908
C15_3 C 1.3150(4) 0.7616(3) 0.2340(3)
C21_3 C 1.3533(4) 0.7582(4) 0.0895(3)
H12_3 H 1.3598 0.8944 0.0505
C9_3 C 1.7874(3) 1.2271(4) 0.3045(3)
H6_3 H 1.6458 1.2265 0.3397
H1_3 H 1.6577 1.2351 0.0942
C3_3 C 1.7976(3) 1.2368(4) 0.1559(3)
C16_3 C 1.2963(5) 0.7082(4) 0.3026(3)
C20_3 C 1.3362(4) 0.7050(4) 0.1576(3)
H11_3 H 1.3671 0.7216 0.0389
C8_3 C 1.8472(3) 1.2328(3) 0.2364(3)
H5_3 H 1.8192 1.2224 0.3570
C4_3 C 1.8580(3) 1.2439(4) 0.0886(3)
C7_3 C 1.9553(3) 1.2316(3) 0.2457(3)
H2_3 H 1.8268 1.2483 0.0359
C5_3 C 1.9625(4) 1.2442(4) 0.1002(3)
C19_3 C 1.3381(4) 0.5975(4) 0.1512(3)
H8_3 H 1.2825 0.7445 0.3533
C17_3 C 1.2985(5) 0.6044(4) 0.2939(3)
C6_3 C 2.0113(3) 1.2379(3) 0.1791(3)
H4_3 H 1.9883 1.2266 0.2977
H3_3 H 2.0012 1.2486 0.0552
H9_3 H 1.2858 0.5706 0.3391
C18_3 C 1.3197(4) 0.5464(3) 0.2177(3)
H10_3 H 1.3521 0.5601 0.1009
C12_3 C 2.1265(3) 1.2346(3) 0.1904(3)
C24_3 C 1.3210(4) 0.4331(4) 0.2099(3)
O3_3 O 2.1671(2) 1.2360(3) 0.2622(2)
O4_3 O 2.1730(2) 1.2288(3) 0.1249(2)
O7_4 O 1.3257(3) 0.3846(2) 0.1382(2)
O8_4 O 1.3189(3) 0.3917(2) 0.2758(2)
Co3_8 Co 2.32060(4) 1.23846(4) 0.28227(3)
Co1_7 Co 2.32505(4) 1.22875(4) 0.11183(3)
Co3_9 Co 1.32060(4) 0.23846(4) 0.28227(3)
Co1_8 Co 1.32505(4) 0.22875(4) 0.11183(3)
O2_4 O 2.4727(2) 1.2377(3) 0.2687(2)
O5_4 O 2.3217(3) 1.0821(2) 0.2529(2)
O8_5 O 2.3189(3) 1.3917(2) 0.2758(2)
N2_5 N 2.3369(3) 1.2458(3) 0.4106(2)
O1_4 O 2.4786(2) 1.2325(3) 0.1315(2)
O6_4 O 2.3268(3) 1.0743(2) 0.1149(2)
O7_5 O 2.3257(3) 1.3846(2) 0.1382(2)
N1_4 N 2.3099(3) 1.2263(3) -0.0160(2)
Co2 Co 0.00227(4) 0.99492(4) 0.41409(3)
O9 O -0.1507(2) 0.9973(3) 0.4277(2)
O10 O 0.1558(2) 0.9947(3) 0.4348(2)
O11 O 0.0043(3) 1.1512(2) 0.4418(2)
O12 O 0.0026(3) 0.8413(2) 0.4210(2)
N3 N -0.0128(3) 0.9854(3) 0.2858(2)
C37 C -0.1033(4) 0.9817(4) 0.2419(3)
H20 H -0.162(4) 0.981(4) 0.270(3)
C38 C -0.1136(4) 0.9792(4) 0.1559(3)
H21 H -0.178(4) 0.975(4) 0.128(3)
C39 C -0.0271(4) 0.9830(4) 0.1122(3)
C40 C 0.0664(4) 0.9853(5) 0.1584(3)
H22 H 0.126(4) 0.986(4) 0.132(4)
C41 C 0.0712(4) 0.9871(4) 0.2437(3)
H23 H 0.135(4) 0.990(4) 0.273(4)
C42 C -0.0374(4) 0.9872(4) 0.0222(3)
H24 H -0.101(4) 0.971(4) -0.006(4)
C43 C -0.1976(3) 1.0032(3) 0.4923(3)
C44 C -0.3111(3) 1.0075(3) 0.4825(3)
C45 C -0.3676(3) 0.9935(3) 0.5478(3)
H25 H -0.3344 0.9841 0.5989
C46 C -0.4748(3) 0.9930(3) 0.5392(3)
C47 C -0.5355(3) 0.9785(4) 0.6058(3)
H26 H -0.5038 0.9689 0.6573
C48 C -0.3616(3) 1.0215(4) 0.4045(3)
H27 H -0.3237 1.0307 0.3600
C49 C -0.0030(3) 1.1994(3) 0.5130(3)
C50 C -0.0095(3) 1.3129(3) 0.5204(3)
C51 C 0.0216(4) 1.3654(4) 0.4580(3)
H28 H 0.0453 1.3290 0.4106
C52 C 0.0185(4) 1.4723(3) 0.4645(3)
C53 C 0.0523(4) 1.5279(4) 0.4010(3)
H29 H 0.0788 1.4929 0.3543
C54 C -0.0457(5) 1.3688(4) 0.5914(3)
H30 H -0.0657 1.3342 0.6342
Co2A Co -0.00227(4) 1.00508(4) 0.58591(3)
O9A O 0.1507(2) 1.0027(3) 0.5723(2)
C43A C 0.1976(3) 0.9968(3) 0.5077(3)
O10A O -0.1558(2) 1.0053(3) 0.5652(2)
O11A O -0.0043(3) 0.8488(2) 0.5582(2)
C49A C 0.0030(3) 0.8006(3) 0.4870(3)
O12A O -0.0026(3) 1.1587(2) 0.5790(2)
N3A N 0.0128(3) 1.0146(3) 0.7142(2)
C37A C 0.1033(4) 1.0183(4) 0.7581(3)
H20A H 0.162(4) 1.019(4) 0.730(3)
C38A C 0.1136(4) 1.0208(4) 0.8441(3)
H21A H 0.178(4) 1.025(4) 0.872(3)
C39A C 0.0271(4) 1.0170(4) 0.8878(3)
C40A C -0.0664(4) 1.0147(5) 0.8416(3)
H22A H -0.126(4) 1.014(4) 0.868(4)
C41A C -0.0712(4) 1.0129(4) 0.7563(3)
H23A H -0.135(4) 1.010(4) 0.727(4)
C42A C 0.0374(4) 1.0128(4) 0.9778(3)
C42_2 C -0.0374(4) 0.9872(4) 1.0222(3)
C39_2 C -0.0271(4) 0.9830(4) 1.1122(3)
C38_2 C -0.1136(4) 0.9792(4) 1.1559(3)
C37_2 C -0.1033(4) 0.9817(4) 1.2419(3)
N3_2 N -0.0128(3) 0.9854(3) 1.2858(2)
Co2_2 Co 0.00227(4) 0.99492(4) 1.41409(3)
C41_2 C 0.0712(4) 0.9871(4) 1.2437(3)
C40_2 C 0.0664(4) 0.9853(5) 1.1584(3)
H22_2 H 0.126(4) 0.986(4) 1.132(4)
H23_2 H 0.135(4) 0.990(4) 1.273(4)
H20_2 H -0.162(4) 0.981(4) 1.270(3)
H21_2 H -0.178(4) 0.975(4) 1.128(3)
H24_2 H -0.101(4) 0.971(4) 0.994(4)
H24A H 0.101(4) 1.029(4) 1.006(4)
C52A C -0.0185(4) 1.5277(3) 0.5355(3)
C51A C -0.0216(4) 1.6346(4) 0.5420(3)
C50A C 0.0095(3) 1.6871(3) 0.4796(3)
C49A_2 C 0.0030(3) 1.8006(3) 0.4870(3)
O11A_2 O -0.0043(3) 1.8488(2) 0.5582(2)
O12_2 O 0.0026(3) 1.8413(2) 0.4210(2)
C54A C 0.0457(5) 1.6312(4) 0.4086(3)
H30A H 0.0657 1.6658 0.3658
H28A H -0.0453 1.6710 0.5894
C53A C -0.0523(4) 1.4721(4) 0.5990(3)
H29A H -0.0788 1.5071 0.6457
C50A_2 C 0.0095(3) 0.6871(3) 0.4796(3)
C46A C -0.5252(3) 1.0070(3) 0.4608(3)
C45A C -0.6324(3) 1.0065(3) 0.4522(3)
C44A C -0.6889(3) 0.9925(3) 0.5175(3)
C43A_2 C -0.8024(3) 0.9968(3) 0.5077(3)
O9A_2 O -0.8493(2) 1.0027(3) 0.5723(2)
O10_2 O -0.8442(2) 0.9947(3) 0.4348(2)
C48A C -0.6384(3) 0.9785(4) 0.5955(3)
H27A H -0.6763 0.9693 0.6400
H25A H -0.6656 1.0159 0.4011
C47A C -0.4645(3) 1.0215(4) 0.3942(3)
H26A H -0.4962 1.0311 0.3427
C44A_2 C 0.3111(3) 0.9925(3) 0.5175(3)
C42A_2 C 0.0374(4) 1.0128(4) -0.0222(3)
C39A_2 C 0.0271(4) 1.0170(4) -0.1122(3)
H24A_2 H 0.101(4) 1.029(4) 0.006(4)
C38A_2 C 0.1136(4) 1.0208(4) -0.1559(3)
C40A_2 C -0.0664(4) 1.0147(5) -0.1584(3)
C37A_2 C 0.1033(4) 1.0183(4) -0.2419(3)
H21A_2 H 0.178(4) 1.025(4) -0.128(3)
H22A_2 H -0.126(4) 1.014(4) -0.132(4)
C41A_2 C -0.0712(4) 1.0129(4) -0.2437(3)
N3A_2 N 0.0128(3) 1.0146(3) -0.2858(2)
H20A_2 H 0.162(4) 1.019(4) -0.270(3)
H23A_2 H -0.135(4) 1.010(4) -0.273(4)
Co2A_2 Co -0.00227(4) 1.00508(4) -0.41409(3)
C51A_2 C -0.0216(4) 0.6346(4) 0.5420(3)
C54A_2 C 0.0457(5) 0.6312(4) 0.4086(3)
C45A_2 C 0.3676(3) 1.0065(3) 0.4522(3)
C48A_2 C 0.3616(3) 0.9785(4) 0.5955(3)
C47_2 C 0.4645(3) 0.9785(4) 0.6058(3)
H27A_2 H 0.3237 0.9693 0.6400
H25A_2 H 0.3344 1.0159 0.4011
C46A_2 C 0.4748(3) 1.0070(3) 0.4608(3)
H28A_2 H -0.0453 0.6710 0.5894
C52A_2 C -0.0185(4) 0.5277(3) 0.5355(3)
C53_2 C 0.0523(4) 0.5279(4) 0.4010(3)
H30A_2 H 0.0657 0.6658 0.3658
C46_2 C 0.5252(3) 0.9930(3) 0.5392(3)
H26_2 H 0.4962 0.9689 0.6573
C47A_2 C 0.5355(3) 1.0215(4) 0.3942(3)
C52_2 C 0.0185(4) 0.4723(3) 0.4645(3)
C53A_2 C -0.0523(4) 0.4721(4) 0.5990(3)
H29_2 H 0.0788 0.4929 0.3543
C45_2 C 0.6324(3) 0.9935(3) 0.5478(3)
C51_2 C 0.0216(4) 0.3654(4) 0.4580(3)
C44_2 C 0.6889(3) 1.0075(3) 0.4825(3)
H25_2 H 0.6656 0.9841 0.5989
C50_2 C -0.0095(3) 0.3129(3) 0.5204(3)
H28_2 H 0.0453 0.3290 0.4106
C43_2 C 0.8024(3) 1.0032(3) 0.4923(3)
C48_2 C 0.6384(3) 1.0215(4) 0.4045(3)
H26A_2 H 0.5038 1.0311 0.3427
C49_2 C -0.0030(3) 0.1994(3) 0.5130(3)
C54_2 C -0.0457(5) 0.3688(4) 0.5914(3)
H29A_2 H -0.0788 0.5071 0.6457
O9_2 O 0.8493(2) 0.9973(3) 0.4277(2)
O10A_2 O 0.8442(2) 1.0053(3) 0.5652(2)
O11_2 O 0.0043(3) 0.1512(2) 0.4418(2)
O12A_2 O -0.0026(3) 0.1587(2) 0.5790(2)
Co2A_3 Co 0.99773(4) 1.00508(4) 0.58591(3)
Co2_3 Co 1.00227(4) 0.99492(4) 0.41409(3)
Co2A_4 Co -0.00227(4) 0.00508(4) 0.58591(3)
Co2_4 Co 0.00227(4) -0.00508(4) 0.41409(3)
Co2A_5 Co -0.00227(4) 2.00508(4) 0.58591(3)
Co2_5 Co 0.00227(4) 1.99492(4) 0.41409(3)
Co2A_6 Co -1.00227(4) 1.00508(4) 0.58591(3)
Co2_6 Co -0.99773(4) 0.99492(4) 0.41409(3)
O10A_3 O -1.1558(2) 1.0053(3) 0.5652(2)
O11A_3 O -1.0043(3) 0.8488(2) 0.5582(2)
O12A_3 O -1.0026(3) 1.1587(2) 0.5790(2)
N3A_3 N -0.9872(3) 1.0146(3) 0.7142(2)
O9_3 O -1.1507(2) 0.9973(3) 0.4277(2)
O11_3 O -0.9957(3) 1.1512(2) 0.4418(2)
O12_3 O -0.9974(3) 0.8413(2) 0.4210(2)
N3_3 N -1.0128(3) 0.9854(3) 0.2858(2)
C37_3 C -1.1033(4) 0.9817(4) 0.2419(3)
C41_3 C -0.9288(4) 0.9871(4) 0.2437(3)
C40_3 C -0.9336(4) 0.9853(5) 0.1584(3)
H23_3 H -0.865(4) 0.990(4) 0.273(4)
H20_3 H -1.162(4) 0.981(4) 0.270(3)
C38_3 C -1.1136(4) 0.9792(4) 0.1559(3)
C39_3 C -1.0271(4) 0.9830(4) 0.1122(3)
H22_3 H -0.874(4) 0.986(4) 0.132(4)
H21_3 H -1.178(4) 0.975(4) 0.128(3)
C42_3 C -1.0374(4) 0.9872(4) 0.0222(3)
C42A_3 C -0.9626(4) 1.0128(4) -0.0222(3)
H24_3 H -1.101(4) 0.971(4) -0.006(4)
C39A_3 C -0.9729(4) 1.0170(4) -0.1122(3)
H24A_3 H -0.899(4) 1.029(4) 0.006(4)
C38A_3 C -0.8864(4) 1.0208(4) -0.1559(3)
C40A_3 C -1.0664(4) 1.0147(5) -0.1584(3)
C37A_3 C -0.8967(4) 1.0183(4) -0.2419(3)
H21A_3 H -0.822(4) 1.025(4) -0.128(3)
H22A_3 H -1.126(4) 1.014(4) -0.132(4)
C41A_3 C -1.0712(4) 1.0129(4) -0.2437(3)
N3A_4 N -0.9872(3) 1.0146(3) -0.2858(2)
H20A_3 H -0.838(4) 1.019(4) -0.270(3)
H23A_3 H -1.135(4) 1.010(4) -0.273(4)
Co2A_7 Co -1.00227(4) 1.00508(4) -0.41409(3)
C49_3 C -1.0030(3) 1.1994(3) 0.5130(3)
C43_3 C -1.1976(3) 1.0032(3) 0.4923(3)
C50_3 C -1.0095(3) 1.3129(3) 0.5204(3)
C44_3 C -1.3111(3) 1.0075(3) 0.4825(3)
C51_3 C -0.9784(4) 1.3654(4) 0.4580(3)
C54_3 C -1.0457(5) 1.3688(4) 0.5914(3)
C45_3 C -1.3676(3) 0.9935(3) 0.5478(3)
C48_3 C -1.3616(3) 1.0215(4) 0.4045(3)
C53A_3 C -1.0523(4) 1.4721(4) 0.5990(3)
H30_2 H -1.0657 1.3342 0.6342
H28_3 H -0.9547 1.3290 0.4106
C52_3 C -0.9815(4) 1.4723(3) 0.4645(3)
H25_3 H -1.3344 0.9841 0.5989
C46_3 C -1.4748(3) 0.9930(3) 0.5392(3)
C47A_3 C -1.4645(3) 1.0215(4) 0.3942(3)
H27_2 H -1.3237 1.0307 0.3600
C52A_3 C -1.0185(4) 1.5277(3) 0.5355(3)
H29A_3 H -1.0788 1.5071 0.6457
C53_3 C -0.9477(4) 1.5279(4) 0.4010(3)
C46A_3 C -1.5252(3) 1.0070(3) 0.4608(3)
C47_3 C -1.5355(3) 0.9785(4) 0.6058(3)
H26A_3 H -1.4962 1.0311 0.3427
C51A_3 C -1.0216(4) 1.6346(4) 0.5420(3)
H29_3 H -0.9212 1.4929 0.3543
C54A_3 C -0.9543(5) 1.6312(4) 0.4086(3)
H26_3 H -1.5038 0.9689 0.6573
C48A_3 C -1.6384(3) 0.9785(4) 0.5955(3)
C45A_3 C -1.6324(3) 1.0065(3) 0.4522(3)
C50A_3 C -0.9905(3) 1.6871(3) 0.4796(3)
H28A_3 H -1.0453 1.6710 0.5894
H30A_3 H -0.9343 1.6658 0.3658
C44A_3 C -1.6889(3) 0.9925(3) 0.5175(3)
H27A_3 H -1.6763 0.9693 0.6400
H25A_3 H -1.6656 1.0159 0.4011
C49A_3 C -0.9970(3) 1.8006(3) 0.4870(3)
C43A_3 C -1.8024(3) 0.9968(3) 0.5077(3)
O11A_4 O -1.0043(3) 1.8488(2) 0.5582(2)
O12_4 O -0.9974(3) 1.8413(2) 0.4210(2)
O9A_3 O -1.8493(2) 1.0027(3) 0.5723(2)
O10_3 O -1.8442(2) 0.9947(3) 0.4348(2)
Co2A_8 Co -1.00227(4) 2.00508(4) 0.58591(3)
Co2_7 Co -0.99773(4) 1.99492(4) 0.41409(3)
Co2A_9 Co -2.00227(4) 1.00508(4) 0.58591(3)
Co2_8 Co -1.99773(4) 0.99492(4) 0.41409(3)
O10A_4 O -2.1558(2) 1.0053(3) 0.5652(2)
O11A_5 O -2.0043(3) 0.8488(2) 0.5582(2)
O12A_4 O -2.0026(3) 1.1587(2) 0.5790(2)
N3A_5 N -1.9872(3) 1.0146(3) 0.7142(2)
O9_4 O -2.1507(2) 0.9973(3) 0.4277(2)
O11_4 O -1.9957(3) 1.1512(2) 0.4418(2)
O12_5 O -1.9974(3) 0.8413(2) 0.4210(2)
N3_4 N -2.0128(3) 0.9854(3) 0.2858(2)
H27_3 H 0.6763 1.0307 0.3600
H30_3 H -0.0657 0.3342 0.6342
O13 O 0.5302(11) 0.4280(11) 0.0482(9)
loop_
_geom_bond_atom_site_label_1
_geom_bond_atom_site_label_2
_geom_bond_site_symmetry_1
_geom_bond_site_symmetry_2
Co1 Co3 1_555 1_555
Co2 O9 1_555 1_555
Co3 O2 1_555 1_555
O1 Co1 1_555 1_555
O2 C11 1_555 1_555
O3 Co3 1_555 1_555
O4 Co1 1_555 1_555
O5 Co3 1_555 1_555
O6 Co1 1_555 1_555
O7 Co1 1_555 1_555
O8 Co3 1_555 1_555
O9 C43 1_555 1_555
O10 Co2 1_555 1_555
O11 Co2 1_555 1_555
O12 Co2 1_555 1_555
N1 Co1 1_555 1_555
N2 Co3 1_555 1_555
N3 Co2 1_555 1_555
C1 C2 1_555 1_555
C2 H1 1_555 1_555
C3 C2 1_555 1_555
C4 C3 1_555 1_555
H2 C4 1_555 1_555
C5 C4 1_555 1_555
H3 C5 1_555 1_555
C6 C5 1_555 1_555
C7 C6 1_555 1_555
H4 C7 1_555 1_555
C8 C3 1_555 1_555
C9 C8 1_555 1_555
H5 C9 1_555 1_555
C10 C1 1_555 1_555
H6 C10 1_555 1_555
C11 O1 1_555 1_555
C12 O3 1_555 1_555
C13 C14 1_555 1_555
C14 H7 1_555 1_555
C15 C14 1_555 1_555
C16 C15 1_555 1_555
H8 C16 1_555 1_555
C17 C16 1_555 1_555
H9 C17 1_555 1_555
C18 C17 1_555 1_555
C19 C18 1_555 1_555
H10 C19 1_555 1_555
C20 C15 1_555 1_555
C21 C20 1_555 1_555
H11 C21 1_555 1_555
C22 C13 1_555 1_555
H12 C22 1_555 1_555
C23 O5 1_555 1_555
C24 O7 1_555 1_555
C25 N1 1_555 1_555
H13 C25 1_555 1_555
C26 C25 1_555 1_555
H14 C26 1_555 1_555
C27 C26 1_555 1_555
C28 C27 1_555 1_555
C29 N1 1_555 1_555
C30 C27 1_555 1_555
H15 C30 1_555 1_555
C31 C30 1_555 1_555
H16 C31 1_555 1_555
C32 C31 1_555 1_555
C33 C32 1_555 1_555
H17 C33 1_555 1_555
C34 N2 1_555 1_555
H18 C34 1_555 1_555
C35 N2 1_555 1_555
H19 C35 1_555 1_555
C36 C32 1_555 1_555
C37 N3 1_555 1_555
H20 C37 1_555 1_555
C38 C37 1_555 1_555
H21 C38 1_555 1_555
C39 C38 1_555 1_555
C40 C39 1_555 1_555
H22 C40 1_555 1_555
C41 N3 1_555 1_555
H23 C41 1_555 1_555
C42 C39 1_555 1_555
H24 C42 1_555 1_555
C43 C44 1_555 1_555
C44 C45 1_555 1_555
C45 H25 1_555 1_555
C46 C45 1_555 1_555
C47 C46 1_555 1_555
H26 C47 1_555 1_555
C48 C44 1_555 1_555
H27 C48 1_555 1_555
C49 O11 1_555 1_555
C50 C49 1_555 1_555
C51 C50 1_555 1_555
H28 C51 1_555 1_555
C52 C51 1_555 1_555
C53 C52 1_555 1_555
H29 C53 1_555 1_555
C54 C50 1_555 1_555
H30 C54 1_555 1_555
C33_2 C34 1_555 1_555
C32_2 C33_2 1_555 1_555
C31_2 C32_2 1_555 1_555
C30_2 C31_2 1_555 1_555
C27_2 C30_2 1_555 1_555
C26_2 C27_2 1_555 1_555
C25_2 C26_2 1_555 1_555
N1_2 C25_2 1_555 1_555
Co1_2 N1_2 1_555 1_555
C29_2 N1_2 1_555 1_555
C28_2 C27_2 1_555 1_555
H13_2 C25_2 1_555 1_555
H14_2 C26_2 1_555 1_555
H15_2 C30_2 1_555 1_555
H16_2 C31_2 1_555 1_555
C36_2 C35 1_555 1_555
H17_2 C33_2 1_555 1_555
C18_2 C24 1_555 1_555
C17_2 C18_2 1_555 1_555
C16_2 C17_2 1_555 1_555
C15_2 C16_2 1_555 1_555
C14_2 C15_2 1_555 1_555
C13_2 C14_2 1_555 1_555
C22_2 C13_2 1_555 1_555
C21_2 C22_2 1_555 1_555
C20_2 C15_2 1_555 1_555
C19_2 C18_2 1_555 1_555
H10_2 C19_2 1_555 1_555
H11_2 C21_2 1_555 1_555
H12_2 C22_2 1_555 1_555
C23_2 C13_2 1_555 1_555
O5_2 C23_2 1_555 1_555
O6_2 C23_2 1_555 1_555
H7_2 C14_2 1_555 1_555
H8_2 C16_2 1_555 1_555
H9_2 C17_2 1_555 1_555
C6_2 C12 1_555 1_555
C5_2 C6_2 1_555 1_555
C4_2 C5_2 1_555 1_555
C3_2 C4_2 1_555 1_555
C2_2 C3_2 1_555 1_555
C1_2 C2_2 1_555 1_555
C10_2 C1_2 1_555 1_555
C9_2 C10_2 1_555 1_555
C8_2 C3_2 1_555 1_555
C7_2 C6_2 1_555 1_555
H4_2 C7_2 1_555 1_555
H5_2 C9_2 1_555 1_555
H6_2 C10_2 1_555 1_555
C11_2 C1_2 1_555 1_555
O1_2 C11_2 1_555 1_555
O2_2 C11_2 1_555 1_555
H1_2 C2_2 1_555 1_555
H2_2 C4_2 1_555 1_555
H3_2 C5_2 1_555 1_555
Co2A Co2 1_555 1_555
O9A Co2A 1_555 1_555
C43A O10 1_555 1_555
O10A C43 1_555 1_555
O11A Co2A 1_555 1_555
C49A O12 1_555 1_555
O12A C49 1_555 1_555
N3A Co2A 1_555 1_555
C37A N3A 1_555 1_555
H20A C37A 1_555 1_555
C38A C37A 1_555 1_555
H21A C38A 1_555 1_555
C39A C38A 1_555 1_555
C40A C39A 1_555 1_555
H22A C40A 1_555 1_555
C41A N3A 1_555 1_555
H23A C41A 1_555 1_555
C42A C39A 1_555 1_555
C42_2 C42A 1_555 1_555
C39_2 C42_2 1_555 1_555
C38_2 C39_2 1_555 1_555
C37_2 C38_2 1_555 1_555
N3_2 C37_2 1_555 1_555
Co2_2 N3_2 1_555 1_555
C41_2 N3_2 1_555 1_555
C40_2 C39_2 1_555 1_555
H22_2 C40_2 1_555 1_555
H23_2 C41_2 1_555 1_555
H20_2 C37_2 1_555 1_555
H21_2 C38_2 1_555 1_555
H24_2 C42_2 1_555 1_555
H24A C42A 1_555 1_555
C52A C52 1_555 1_555
C51A C52A 1_555 1_555
C50A C51A 1_555 1_555
C49A_2 C50A 1_555 1_555
O11A_2 C49A_2 1_555 1_555
O12_2 C49A_2 1_555 1_555
C54A C53 1_555 1_555
H30A C54A 1_555 1_555
H28A C51A 1_555 1_555
C53A C54 1_555 1_555
H29A C53A 1_555 1_555
C50A_2 C49A 1_555 1_555
C46A C46 1_555 1_555
C45A C46A 1_555 1_555
C44A C45A 1_555 1_555
C43A_2 C44A 1_555 1_555
O9A_2 C43A_2 1_555 1_555
O10_2 C43A_2 1_555 1_555
C48A C47 1_555 1_555
H27A C48A 1_555 1_555
H25A C45A 1_555 1_555
C47A C48 1_555 1_555
H26A C47A 1_555 1_555
C44A_2 C43A 1_555 1_555
C12_2 C6 1_555 1_555
C24_2 C18 1_555 1_555
C34_2 C33 1_555 1_555
C35_2 C36 1_555 1_555
C42A_2 C42 1_555 1_555
C39A_2 C42A_2 1_555 1_555
H24A_2 C42A_2 1_555 1_555
N2_2 C34_2 1_555 1_555
H19_2 C35_2 1_555 1_555
H18_2 C34_2 1_555 1_555
Co3_2 N2_2 1_555 1_555
Co3_3 O2_2 1_555 1_555
Co1_3 O1_2 1_555 1_555
Co3_4 O5_2 1_555 1_555
Co1_4 O6_2 1_555 1_555
O3_2 C12_2 1_555 1_555
O4_2 C12_2 1_555 1_555
O7_2 C24_2 1_555 1_555
O8_2 C24_2 1_555 1_555
Co1_5 O4_2 1_555 1_555
Co3_5 O3_2 1_555 1_555
Co1_6 O7_2 1_555 1_555
Co3_6 O8_2 1_555 1_555
O2_3 Co3_5 1_555 1_555
O5_3 Co3_5 1_555 1_555
O8_3 Co3_5 1_555 1_555
N2_3 Co3_5 1_555 1_555
O1_3 Co1_5 1_555 1_555
O6_3 Co1_5 1_555 1_555
O7_3 Co1_5 1_555 1_555
N1_3 Co1_5 1_555 1_555
C25_3 N1_3 1_555 1_555
C29_3 N1_3 1_555 1_555
H13_3 C25_3 1_555 1_555
C26_3 C25_3 1_555 1_555
C28_3 C29_3 1_555 1_555
H14_3 C26_3 1_555 1_555
C27_3 C26_3 1_555 1_555
C30_3 C27_3 1_555 1_555
H15_3 C30_3 1_555 1_555
C31_3 C30_3 1_555 1_555
H16_3 C31_3 1_555 1_555
C32_3 C31_3 1_555 1_555
C33_3 C32_3 1_555 1_555
C36_3 C32_3 1_555 1_555
H17_3 C33_3 1_555 1_555
C34_3 C33_3 1_555 1_555
C35_3 C36_3 1_555 1_555
N2_4 C34_3 1_555 1_555
H18_3 C34_3 1_555 1_555
H19_3 C35_3 1_555 1_555
Co3_7 N2_4 1_555 1_555
C23_3 O5_3 1_555 1_555
C11_3 O2_3 1_555 1_555
C13_3 C23_3 1_555 1_555
C1_3 C11_3 1_555 1_555
C14_3 C13_3 1_555 1_555
C22_3 C13_3 1_555 1_555
C2_3 C1_3 1_555 1_555
C10_3 C1_3 1_555 1_555
H7_3 C14_3 1_555 1_555
C15_3 C14_3 1_555 1_555
C21_3 C22_3 1_555 1_555
H12_3 C22_3 1_555 1_555
C9_3 C10_3 1_555 1_555
H6_3 C10_3 1_555 1_555
H1_3 C2_3 1_555 1_555
C3_3 C2_3 1_555 1_555
C16_3 C15_3 1_555 1_555
C20_3 C15_3 1_555 1_555
H11_3 C21_3 1_555 1_555
C8_3 C9_3 1_555 1_555
H5_3 C9_3 1_555 1_555
C4_3 C3_3 1_555 1_555
C7_3 C8_3 1_555 1_555
H2_3 C4_3 1_555 1_555
C5_3 C4_3 1_555 1_555
C19_3 C20_3 1_555 1_555
H8_3 C16_3 1_555 1_555
C17_3 C16_3 1_555 1_555
C6_3 C7_3 1_555 1_555
H4_3 C7_3 1_555 1_555
H3_3 C5_3 1_555 1_555
H9_3 C17_3 1_555 1_555
C18_3 C19_3 1_555 1_555
H10_3 C19_3 1_555 1_555
C12_3 C6_3 1_555 1_555
C24_3 C18_3 1_555 1_555
O3_3 C12_3 1_555 1_555
O4_3 C12_3 1_555 1_555
O7_4 C24_3 1_555 1_555
O8_4 C24_3 1_555 1_555
Co3_8 O3_3 1_555 1_555
Co1_7 O4_3 1_555 1_555
Co3_9 O8_4 1_555 1_555
Co1_8 O7_4 1_555 1_555
O2_4 Co3_8 1_555 1_555
O5_4 Co3_8 1_555 1_555
O8_5 Co3_8 1_555 1_555
N2_5 Co3_8 1_555 1_555
O1_4 Co1_7 1_555 1_555
O6_4 Co1_7 1_555 1_555
O7_5 Co1_7 1_555 1_555
N1_4 Co1_7 1_555 1_555
C38A_2 C39A_2 1_555 1_555
C40A_2 C39A_2 1_555 1_555
C37A_2 C38A_2 1_555 1_555
H21A_2 C38A_2 1_555 1_555
H22A_2 C40A_2 1_555 1_555
C41A_2 C40A_2 1_555 1_555
N3A_2 C37A_2 1_555 1_555
H20A_2 C37A_2 1_555 1_555
H23A_2 C41A_2 1_555 1_555
Co2A_2 N3A_2 1_555 1_555
C51A_2 C50A_2 1_555 1_555
C54A_2 C50A_2 1_555 1_555
C45A_2 C44A_2 1_555 1_555
C48A_2 C44A_2 1_555 1_555
C47_2 C48A_2 1_555 1_555
H27A_2 C48A_2 1_555 1_555
H25A_2 C45A_2 1_555 1_555
C46A_2 C45A_2 1_555 1_555
H28A_2 C51A_2 1_555 1_555
C52A_2 C51A_2 1_555 1_555
C53_2 C54A_2 1_555 1_555
H30A_2 C54A_2 1_555 1_555
C46_2 C47_2 1_555 1_555
H26_2 C47_2 1_555 1_555
C47A_2 C46A_2 1_555 1_555
C52_2 C52A_2 1_555 1_555
C53A_2 C52A_2 1_555 1_555
H29_2 C53_2 1_555 1_555
C45_2 C46_2 1_555 1_555
C51_2 C52_2 1_555 1_555
C44_2 C45_2 1_555 1_555
H25_2 C45_2 1_555 1_555
C50_2 C51_2 1_555 1_555
H28_2 C51_2 1_555 1_555
C43_2 C44_2 1_555 1_555
C48_2 C47A_2 1_555 1_555
H26A_2 C47A_2 1_555 1_555
C49_2 C50_2 1_555 1_555
C54_2 C53A_2 1_555 1_555
H29A_2 C53A_2 1_555 1_555
O9_2 C43_2 1_555 1_555
O10A_2 C43_2 1_555 1_555
O11_2 C49_2 1_555 1_555
O12A_2 C49_2 1_555 1_555
Co2A_3 O10A_2 1_555 1_555
Co2_3 O9_2 1_555 1_555
Co2A_4 O12A_2 1_555 1_555
Co2_4 O11_2 1_555 1_555
Co2A_5 O11A_2 1_555 1_555
Co2_5 O12_2 1_555 1_555
Co2A_6 O9A_2 1_555 1_555
Co2_6 O10_2 1_555 1_555
O10A_3 Co2A_6 1_555 1_555
O11A_3 Co2A_6 1_555 1_555
O12A_3 Co2A_6 1_555 1_555
N3A_3 Co2A_6 1_555 1_555
O9_3 Co2_6 1_555 1_555
O11_3 Co2_6 1_555 1_555
O12_3 Co2_6 1_555 1_555
N3_3 Co2_6 1_555 1_555
C37_3 N3_3 1_555 1_555
C41_3 N3_3 1_555 1_555
C40_3 C41_3 1_555 1_555
H23_3 C41_3 1_555 1_555
H20_3 C37_3 1_555 1_555
C38_3 C37_3 1_555 1_555
C39_3 C40_3 1_555 1_555
H22_3 C40_3 1_555 1_555
H21_3 C38_3 1_555 1_555
C42_3 C39_3 1_555 1_555
C42A_3 C42_3 1_555 1_555
H24_3 C42_3 1_555 1_555
C39A_3 C42A_3 1_555 1_555
H24A_3 C42A_3 1_555 1_555
C38A_3 C39A_3 1_555 1_555
C40A_3 C39A_3 1_555 1_555
C37A_3 C38A_3 1_555 1_555
H21A_3 C38A_3 1_555 1_555
H22A_3 C40A_3 1_555 1_555
C41A_3 C40A_3 1_555 1_555
N3A_4 C37A_3 1_555 1_555
H20A_3 C37A_3 1_555 1_555
H23A_3 C41A_3 1_555 1_555
Co2A_7 N3A_4 1_555 1_555
C49_3 O12A_3 1_555 1_555
C43_3 O10A_3 1_555 1_555
C50_3 C49_3 1_555 1_555
C44_3 C43_3 1_555 1_555
C51_3 C50_3 1_555 1_555
C54_3 C50_3 1_555 1_555
C45_3 C44_3 1_555 1_555
C48_3 C44_3 1_555 1_555
C53A_3 C54_3 1_555 1_555
H30_2 C54_3 1_555 1_555
H28_3 C51_3 1_555 1_555
C52_3 C51_3 1_555 1_555
H25_3 C45_3 1_555 1_555
C46_3 C45_3 1_555 1_555
C47A_3 C48_3 1_555 1_555
H27_2 C48_3 1_555 1_555
C52A_3 C53A_3 1_555 1_555
H29A_3 C53A_3 1_555 1_555
C53_3 C52_3 1_555 1_555
C46A_3 C46_3 1_555 1_555
C47_3 C46_3 1_555 1_555
H26A_3 C47A_3 1_555 1_555
C51A_3 C52A_3 1_555 1_555
H29_3 C53_3 1_555 1_555
C54A_3 C53_3 1_555 1_555
H26_3 C47_3 1_555 1_555
C48A_3 C47_3 1_555 1_555
C45A_3 C46A_3 1_555 1_555
C50A_3 C51A_3 1_555 1_555
H28A_3 C51A_3 1_555 1_555
H30A_3 C54A_3 1_555 1_555
C44A_3 C48A_3 1_555 1_555
H27A_3 C48A_3 1_555 1_555
H25A_3 C45A_3 1_555 1_555
C49A_3 C50A_3 1_555 1_555
C43A_3 C44A_3 1_555 1_555
O11A_4 C49A_3 1_555 1_555
O12_4 C49A_3 1_555 1_555
O9A_3 C43A_3 1_555 1_555
O10_3 C43A_3 1_555 1_555
Co2A_8 O11A_4 1_555 1_555
Co2_7 O12_4 1_555 1_555
Co2A_9 O9A_3 1_555 1_555
Co2_8 O10_3 1_555 1_555
O10A_4 Co2A_9 1_555 1_555
O11A_5 Co2A_9 1_555 1_555
O12A_4 Co2A_9 1_555 1_555
N3A_5 Co2A_9 1_555 1_555
O9_4 Co2_8 1_555 1_555
O11_4 Co2_8 1_555 1_555
O12_5 Co2_8 1_555 1_555
N3_4 Co2_8 1_555 1_555
H27_3 C48_2 1_555 1_555
H30_3 C54_2 1_555 1_555
O4 C12 1_555 1_555
O6 C23 1_555 1_555
O8 C24 1_555 1_555
C1 C11 1_555 1_555
C7 C8 1_555 1_555
C9 C10 1_555 1_555
C13 C23 1_555 1_555
C19 C20 1_555 1_555
C21 C22 1_555 1_555
C28 C29 1_555 1_555
C40 C41 1_555 1_555
C32_2 C36_2 1_555 1_555
C29_2 C28_2 1_555 1_555
C21_2 C20_2 1_555 1_555
C20_2 C19_2 1_555 1_555
C9_2 C8_2 1_555 1_555
C8_2 C7_2 1_555 1_555
Co2A O10A 1_555 1_555
Co2A O12A 1_555 1_555
O9A C43A 1_555 1_555
O11A C49A 1_555 1_555
C40A C41A 1_555 1_555
C41_2 C40_2 1_555 1_555
C52A C53A 1_555 1_555
C50A C54A 1_555 1_555
C46A C47A 1_555 1_555
C44A C48A 1_555 1_555
C35_2 N2_2 1_555 1_555
Co3_3 Co1_3 1_555 1_555
Co3_4 Co1_4 1_555 1_555
Co1_5 Co3_5 1_555 1_555
Co1_6 Co3_6 1_555 1_555
O1_3 C11_3 1_555 1_555
O6_3 C23_3 1_555 1_555
C28_3 C27_3 1_555 1_555
C35_3 N2_4 1_555 1_555
C21_3 C20_3 1_555 1_555
C3_3 C8_3 1_555 1_555
C5_3 C6_3 1_555 1_555
C17_3 C18_3 1_555 1_555
Co3_8 Co1_7 1_555 1_555
Co3_9 Co1_8 1_555 1_555
C41A_2 N3A_2 1_555 1_555
C46A_2 C46_2 1_555 1_555
C53_2 C52_2 1_555 1_555
C44_2 C48_2 1_555 1_555
C50_2 C54_2 1_555 1_555
Co2A_3 Co2_3 1_555 1_555
Co2A_4 Co2_4 1_555 1_555
Co2A_5 Co2_5 1_555 1_555
Co2A_6 Co2_6 1_555 1_555
O9_3 C43_3 1_555 1_555
O11_3 C49_3 1_555 1_555
C38_3 C39_3 1_555 1_555
C41A_3 N3A_4 1_555 1_555
C52_3 C52A_3 1_555 1_555
C47A_3 C46A_3 1_555 1_555
C54A_3 C50A_3 1_555 1_555
C45A_3 C44A_3 1_555 1_555
Co2A_8 Co2_7 1_555 1_555
Co2A_9 Co2_8 1_555 1_555

#END
