
#######################################################################
#
#                 Cambridge Crystallographic Data Centre
#                                CCDC 
#
#######################################################################
#
# If this CIF has been generated from an entry in the Cambridge 
# Structural Database, then it will include bibliographic, chemical, 
# crystal, experimental, refinement or atomic coordinate data resulting 
# from the CCDC's data processing and validation procedures.
#
#######################################################################

data_DAKDEZ
_symmetry_cell_setting           monoclinic
_symmetry_space_group_name_H-M   'P 21/n'
_symmetry_Int_Tables_number      14
_space_group_name_Hall           '-P 2yn'
loop_
_symmetry_equiv_pos_site_id
_symmetry_equiv_pos_as_xyz
1 x,y,z
2 1/2+x,1/2-y,1/2+z
3 -x,-y,-z
4 1/2-x,1/2+y,1/2-z
_cell_length_a                   7.8435(16)
_cell_length_b                   8.3375(17)
_cell_length_c                   12.786(3)
_cell_angle_alpha                90
_cell_angle_beta                 102.27(3)
_cell_angle_gamma                90
_cell_volume                     817.043
loop_
_atom_site_label
_atom_site_type_symbol
_atom_site_fract_x
_atom_site_fract_y
_atom_site_fract_z
Cd1 Cd 0.19987(5) 0.40233(4) 0.07865(3)
O1 O 0.4163(5) 0.2561(5) 0.1927(3)
O2 O 0.4461(5) 0.2793(5) 0.0268(3)
O3 O 0.4431(6) -0.1068(5) 0.2575(4)
O4 O 0.5640(5) 0.0134(5) 0.4059(3)
O5 O 0.3468(6) 0.6416(6) 0.1077(4)
C1 C 0.4915(7) 0.2183(7) 0.1189(4)
C2 C 0.6374(8) 0.0954(7) 0.1395(5)
H1 H 0.7352 0.1369 0.1124
H2 H 0.5972 -0.0014 0.0997
C3 C 0.7004(7) 0.0520(8) 0.2575(4)
H3 H 0.7962 -0.0234 0.2642
H4 H 0.7448 0.1481 0.2969
C4 C 0.5597(7) -0.0210(6) 0.3083(4)
C5 C 0.0827(8) 0.0312(7) 0.1004(4)
H5 H 0.1399 0.0498 0.1708
C6 C 0.0131(8) -0.1180(7) 0.0719(5)
N1 N 0.0699(6) 0.1503(6) 0.0286(4)
H6 H 0.024(9) -0.190(9) 0.130(6)
N1B N -0.0699(6) -0.1503(6) -0.0286(4)
C5B C -0.0827(8) -0.0312(7) -0.1004(4)
H5B H -0.1399 -0.0498 -0.1708
C6B C -0.0131(8) 0.1180(7) -0.0719(5)
H6B H -0.024(9) 0.190(9) -0.130(6)
O1C O 0.0837(5) 0.7561(5) 0.3073(3)
O2C O 0.0539(5) 0.7793(5) 0.4732(3)
O3C O 0.0569(6) 0.3932(5) 0.2425(4)
O4C O -0.0640(5) 0.5134(5) 0.0941(3)
C1C C 0.0085(7) 0.7183(7) 0.3811(4)
C2C C -0.1374(8) 0.5954(7) 0.3605(5)
H1C H -0.2352 0.6369 0.3876
H2C H -0.0972 0.4986 0.4003
C3C C -0.2004(7) 0.5520(8) 0.2425(4)
H3C H -0.2962 0.4766 0.2358
H4C H -0.2448 0.6481 0.2031
C4C C -0.0597(7) 0.4790(6) 0.1917(4)
Cd1C Cd 0.30013(5) 0.90233(4) 0.42135(3)
O5C O 0.1532(6) 1.1416(6) 0.3923(4)
O4A O 0.0640(5) 0.4866(5) -0.0941(3)
Cd1C_2 Cd 0.30013(5) -0.09767(4) 0.42135(3)
Cd1A Cd 0.69987(5) 0.09767(4) 0.57865(3)
Cd1B Cd -0.19987(5) -0.40233(4) -0.07865(3)
Cd1B_2 Cd -0.19987(5) 0.59767(4) -0.07865(3)
O3_2 O 0.4431(6) 0.8932(5) 0.2575(4)
O4_2 O 0.5640(5) 1.0134(5) 0.4059(3)
O4B O 0.4360(5) 0.9866(5) 0.5941(3)
N1C N 0.4301(6) 0.6503(6) 0.4714(4)
loop_
_geom_bond_atom_site_label_1
_geom_bond_atom_site_label_2
_geom_bond_site_symmetry_1
_geom_bond_site_symmetry_2
Cd1 O1 1_555 1_555
O1 C1 1_555 1_555
O2 Cd1 1_555 1_555
O3 C4 1_555 1_555
O4 C4 1_555 1_555
O5 Cd1 1_555 1_555
C1 O2 1_555 1_555
C2 C1 1_555 1_555
H1 C2 1_555 1_555
H2 C2 1_555 1_555
C3 C2 1_555 1_555
H3 C3 1_555 1_555
H4 C3 1_555 1_555
C4 C3 1_555 1_555
C5 H5 1_555 1_555
C6 C5 1_555 1_555
N1 Cd1 1_555 1_555
H6 C6 1_555 1_555
N1B C6 1_555 1_555
C5B N1B 1_555 1_555
H5B C5B 1_555 1_555
C6B N1 1_555 1_555
H6B C6B 1_555 1_555
O1C C1C 1_555 1_555
O2C C1C 1_555 1_555
O3C Cd1 1_555 1_555
O4C Cd1 1_555 1_555
C1C C2C 1_555 1_555
C2C H1C 1_555 1_555
H2C C2C 1_555 1_555
C3C C2C 1_555 1_555
H3C C3C 1_555 1_555
H4C C3C 1_555 1_555
C4C O3C 1_555 1_555
Cd1C O1C 1_555 1_555
O5C Cd1C 1_555 1_555
O4A Cd1 1_555 1_555
Cd1C_2 O3 1_555 1_555
Cd1A O4 1_555 1_555
Cd1B N1B 1_555 1_555
Cd1B_2 O4C 1_555 1_555
O3_2 Cd1C 1_555 1_555
O4_2 Cd1C 1_555 1_555
O4B Cd1C 1_555 1_555
N1C Cd1C 1_555 1_555
O4 Cd1C_2 1_555 1_555
C5 N1 1_555 1_555
C5B C6B 1_555 1_555
O2C Cd1C 1_555 1_555
O4C C4C 1_555 1_555
C3C C4C 1_555 1_555
O4A Cd1B_2 1_555 1_555

#END
