
#######################################################################
#
#                 Cambridge Crystallographic Data Centre
#                                CCDC 
#
#######################################################################
#
# If this CIF has been generated from an entry in the Cambridge 
# Structural Database, then it will include bibliographic, chemical, 
# crystal, experimental, refinement or atomic coordinate data resulting 
# from the CCDC's data processing and validation procedures.
#
#######################################################################

data_DAKDAV
_symmetry_cell_setting           monoclinic
_symmetry_space_group_name_H-M   'P 21/n'
_symmetry_Int_Tables_number      14
_space_group_name_Hall           '-P 2yn'
loop_
_symmetry_equiv_pos_site_id
_symmetry_equiv_pos_as_xyz
1 x,y,z
2 1/2+x,1/2-y,1/2+z
3 -x,-y,-z
4 1/2-x,1/2+y,1/2-z
_cell_length_a                   7.0701(14)
_cell_length_b                   14.165(3)
_cell_length_c                   7.6942(15)
_cell_angle_alpha                90
_cell_angle_beta                 92.55(3)
_cell_angle_gamma                90
_cell_volume                     769.795
loop_
_atom_site_label
_atom_site_type_symbol
_atom_site_fract_x
_atom_site_fract_y
_atom_site_fract_z
Cd1 Cd 0.11772(4) 0.81477(2) 0.41371(4)
N1 N 0.3580(5) 0.9339(3) 0.4644(5)
C1 C 0.3726(6) 0.6505(3) 0.5759(5)
C2 C 0.3232(6) 0.5994(3) 0.4052(5)
H1 H 0.1888 0.5853 0.3990
H2 H 0.3911 0.5399 0.4039
C3 C 0.3723(6) 0.6573(3) 0.2448(5)
C4 C 0.5159(7) 0.9353(4) 0.3780(7)
C5 C 0.3430(8) 0.9993(4) 0.5873(7)
O1 O 0.2900(6) 0.7258(3) 0.6094(4)
O2 O 0.4907(5) 0.6123(2) 0.6785(4)
O3 O 0.3030(6) 0.7380(3) 0.2248(4)
O4 O 0.4776(5) 0.6179(2) 0.1397(4)
O5 O -0.1021(6) 0.6900(2) 0.4129(5)
H3 H 0.235(9) 1.004(5) 0.642(8)
H4 H 0.519(11) 0.883(4) 0.299(8)
C5B C 0.6570(8) 1.0007(4) 0.4127(7)
N1B N 0.6420(5) 1.0661(3) 0.5356(5)
C4B C 0.4841(7) 1.0647(4) 0.6220(7)
H4B H 0.481(11) 1.117(4) 0.701(8)
H3B H 0.765(9) 0.996(5) 0.358(8)
C1A C -0.1274(6) 0.8495(3) 0.0759(5)
C2A C -0.1768(6) 0.9006(3) -0.0948(5)
H1A H -0.3112 0.9147 -0.1010
H2A H -0.1089 0.9601 -0.0961
C3A C -0.1277(6) 0.8427(3) -0.2552(5)
O1A O -0.2100(6) 0.7742(3) 0.1094(4)
O2A O -0.0093(5) 0.8877(2) 0.1785(4)
O3A O -0.1970(6) 0.7620(3) -0.2752(4)
O4A O -0.0224(5) 0.8821(2) -0.3603(4)
Cd1B Cd 0.88228(4) 1.18523(2) 0.58629(4)
O5B O 1.1021(6) 1.3100(2) 0.5871(5)
O4A_2 O -0.0224(5) 0.8821(2) 0.6397(4)
Cd1A Cd 0.61772(4) 0.68523(2) 0.91371(4)
Cd1A_2 Cd 0.61772(4) 0.68523(2) -0.08629(4)
Cd1A_3 Cd -0.38228(4) 0.68523(2) -0.08629(4)
Cd1_2 Cd 0.11772(4) 0.81477(2) -0.58629(4)
O1B O 0.7100(6) 1.2742(3) 0.3906(4)
O2C O 1.0093(5) 1.1123(2) 0.8215(4)
O3B O 0.6970(6) 1.2620(3) 0.7752(4)
O4C O 1.0224(5) 1.1179(2) 0.3603(4)
loop_
_geom_bond_atom_site_label_1
_geom_bond_atom_site_label_2
_geom_bond_site_symmetry_1
_geom_bond_site_symmetry_2
Cd1 N1 1_555 1_555
N1 C4 1_555 1_555
C1 C2 1_555 1_555
C2 H1 1_555 1_555
H2 C2 1_555 1_555
C3 C2 1_555 1_555
C4 H4 1_555 1_555
C5 N1 1_555 1_555
O1 Cd1 1_555 1_555
O2 C1 1_555 1_555
O3 Cd1 1_555 1_555
O4 C3 1_555 1_555
O5 Cd1 1_555 1_555
H3 C5 1_555 1_555
C5B C4 1_555 1_555
N1B C5B 1_555 1_555
C4B C5 1_555 1_555
H4B C4B 1_555 1_555
H3B C5B 1_555 1_555
C1A C2A 1_555 1_555
C2A H1A 1_555 1_555
H2A C2A 1_555 1_555
C3A C2A 1_555 1_555
O1A C1A 1_555 1_555
O2A Cd1 1_555 1_555
O3A C3A 1_555 1_555
O4A C3A 1_555 1_555
Cd1B N1B 1_555 1_555
O5B Cd1B 1_555 1_555
O4A_2 Cd1 1_555 1_555
Cd1A O2 1_555 1_555
Cd1A_2 O4 1_555 1_555
Cd1A_3 O1A 1_555 1_555
Cd1_2 O4A 1_555 1_555
O1B Cd1B 1_555 1_555
O2C Cd1B 1_555 1_555
O3B Cd1B 1_555 1_555
O4C Cd1B 1_555 1_555
C1 O1 1_555 1_555
C3 O3 1_555 1_555
N1B C4B 1_555 1_555
C1A O2A 1_555 1_555
O3A Cd1A_3 1_555 1_555

#END
