
#######################################################################
#
#                 Cambridge Crystallographic Data Centre
#                                CCDC 
#
#######################################################################
#
# If this CIF has been generated from an entry in the Cambridge 
# Structural Database, then it will include bibliographic, chemical, 
# crystal, experimental, refinement or atomic coordinate data resulting 
# from the CCDC's data processing and validation procedures.
#
#######################################################################

data_DAKJOQ
_symmetry_cell_setting           triclinic
_symmetry_space_group_name_H-M   'P -1'
_symmetry_Int_Tables_number      2
_space_group_name_Hall           '-P 1'
loop_
_symmetry_equiv_pos_site_id
_symmetry_equiv_pos_as_xyz
1 x,y,z
2 -x,-y,-z
_cell_length_a                   9.042(6)
_cell_length_b                   11.069(7)
_cell_length_c                   11.521(8)
_cell_angle_alpha                108.170(11)
_cell_angle_beta                 107.570(11)
_cell_angle_gamma                106.341(11)
_cell_volume                     950.513
loop_
_atom_site_label
_atom_site_type_symbol
_atom_site_fract_x
_atom_site_fract_y
_atom_site_fract_z
Cu1 Cu 0.12235(8) 0.95237(6) -0.14108(7)
S1 S 0.59623(17) 1.07729(14) 0.30878(14)
O1 O 0.3026(5) 1.0609(4) 0.0435(4)
O2 O 0.1585(5) 1.1298(4) 0.1577(4)
O3 O 0.4317(5) 0.9955(4) 0.2976(4)
O4 O 0.6209(5) 1.0185(4) 0.1889(4)
O5 O 0.7386(5) 1.1053(5) 0.4304(4)
O6 O -0.0055(5) 0.8525(4) -0.3476(4)
H1 H 0.0604 0.8740 -0.3808
N1 N 0.1272(6) 0.7732(4) -0.1394(5)
N2 N 0.1176(6) 0.1320(4) -0.1440(5)
C1 C -0.0163(7) 0.6565(5) -0.2057(6)
H2 H -0.1171 0.6608 -0.2521
C2 C -0.0221(7) 0.5296(5) -0.2085(6)
H3 H -0.1250 0.4507 -0.2553
C3 C 0.1266(7) 0.5210(5) -0.1411(6)
C4 C 0.2765(7) 0.6423(6) -0.0746(6)
H4 H 0.3795 0.6399 -0.0302
C5 C 0.2728(7) 0.7666(5) -0.0743(6)
H5 H 0.3737 0.8473 -0.0278
C6 C 0.1257(7) 0.3868(5) -0.1412(6)
C7 C -0.0074(8) 0.2959(6) -0.1338(6)
H6 H -0.0974 0.3185 -0.1284
C8 C -0.0066(7) 0.1706(6) -0.1346(6)
H7 H -0.0965 0.1111 -0.1283
C9 C 0.2475(7) 0.2201(6) -0.1504(6)
H8 H 0.3354 0.1946 -0.1565
C10 C 0.2559(7) 0.3471(6) -0.1482(6)
H9 H 0.3493 0.4062 -0.1514
C11 C 0.2902(7) 1.1379(5) 0.1435(5)
C12 C 0.4573(7) 1.2582(5) 0.2534(5)
C13 C 0.5978(7) 1.2440(5) 0.3293(5)
C14 C 0.7463(8) 1.3619(6) 0.4225(6)
H10 H 0.8406 1.3516 0.4719
C15 C 0.7560(8) 1.4935(6) 0.4428(7)
H11 H 0.8561 1.5717 0.5055
C16 C 0.6170(8) 1.5088(6) 0.3699(7)
H12 H 0.6225 1.5976 0.3833
C17 C 0.4682(8) 1.3915(6) 0.2761(6)
H13 H 0.3742 1.4027 0.2276
H14 H -0.085(6) 0.870(7) -0.384(6)
Cu1A Cu -0.12235(8) 1.04763(6) 0.14108(7)
Cu1_2 Cu 0.12235(8) -0.04763(6) -0.14108(7)
O2A O -0.1585(5) 0.8702(4) -0.1577(4)
N2_2 N 0.1176(6) 1.1320(4) -0.1440(5)
O7 O 0.4232(9) 0.7180(7) 0.2720(9)
H15 H 0.395(9) 0.773(6) 0.249(7)
H18 H 0.427(14) 0.746(11) 0.348(5)
O8 O 0.7272(6) 0.9078(6) 0.5385(5)
H16 H 0.676(8) 0.926(7) 0.585(6)
H17 H 0.735(9) 0.974(5) 0.521(7)
loop_
_geom_bond_atom_site_label_1
_geom_bond_atom_site_label_2
_geom_bond_site_symmetry_1
_geom_bond_site_symmetry_2
Cu1 O1 1_555 1_555
S1 O3 1_555 1_555
O1 C11 1_555 1_555
O2 C11 1_555 1_555
O4 S1 1_555 1_555
O5 S1 1_555 1_555
O6 Cu1 1_555 1_555
H1 O6 1_555 1_555
O7 H15 1_555 1_555
O8 H16 1_555 1_555
N1 Cu1 1_555 1_555
N2 C8 1_555 1_555
C1 N1 1_555 1_555
H2 C1 1_555 1_555
C2 C1 1_555 1_555
H3 C2 1_555 1_555
C3 C2 1_555 1_555
C4 C3 1_555 1_555
H4 C4 1_555 1_555
C5 N1 1_555 1_555
H5 C5 1_555 1_555
C6 C3 1_555 1_555
C7 C6 1_555 1_555
H6 C7 1_555 1_555
C8 C7 1_555 1_555
H7 C8 1_555 1_555
C9 N2 1_555 1_555
H8 C9 1_555 1_555
C10 C6 1_555 1_555
H9 C10 1_555 1_555
C11 C12 1_555 1_555
C12 C13 1_555 1_555
C13 S1 1_555 1_555
C14 C13 1_555 1_555
H10 C14 1_555 1_555
C15 C14 1_555 1_555
H11 C15 1_555 1_555
C16 C15 1_555 1_555
H12 C16 1_555 1_555
C17 C12 1_555 1_555
H13 C17 1_555 1_555
H14 O6 1_555 1_555
H17 O8 1_555 1_555
H18 O7 1_555 1_555
Cu1A O2 1_555 1_555
Cu1_2 N2 1_555 1_555
O2A Cu1 1_555 1_555
N2_2 Cu1 1_555 1_555
C4 C5 1_555 1_555
C9 C10 1_555 1_555
C16 C17 1_555 1_555

#END
