
#######################################################################
#
#                 Cambridge Crystallographic Data Centre
#                                CCDC 
#
#######################################################################
#
# If this CIF has been generated from an entry in the Cambridge 
# Structural Database, then it will include bibliographic, chemical, 
# crystal, experimental, refinement or atomic coordinate data resulting 
# from the CCDC's data processing and validation procedures.
#
#######################################################################

data_DAKJEG
_symmetry_cell_setting           monoclinic
_symmetry_space_group_name_H-M   'P 21/c'
_symmetry_Int_Tables_number      14
_space_group_name_Hall           '-P 2ybc'
loop_
_symmetry_equiv_pos_site_id
_symmetry_equiv_pos_as_xyz
1 x,y,z
2 -x,1/2+y,1/2-z
3 -x,-y,-z
4 x,1/2-y,1/2+z
_cell_length_a                   12.1051(7)
_cell_length_b                   9.6921(7)
_cell_length_c                   20.8430(13)
_cell_angle_alpha                90
_cell_angle_beta                 98.2730(10)
_cell_angle_gamma                90
_cell_volume                     2419.93
loop_
_atom_site_label
_atom_site_type_symbol
_atom_site_fract_x
_atom_site_fract_y
_atom_site_fract_z
O5 O 0.0054(7) 0.9678(9) 0.0456(4)
C27 C 0.0309(6) 0.8889(9) 0.0894(4)
N3 N -0.0387(3) 0.3838(4) -0.03598(18)
C25 C 0.0203(4) 0.3723(5) 0.0240(2)
H19 H 0.0361 0.2830 0.0418
C26 C -0.0577(4) 0.5150(5) -0.0593(2)
H20 H -0.0981 0.5276 -0.1015
N3B N 0.0387(3) 0.6162(4) 0.03598(18)
C25B C -0.0203(4) 0.6277(5) -0.0240(2)
H19B H -0.0361 0.7170 -0.0418
C26B C 0.0577(4) 0.4850(5) 0.0593(2)
H20B H 0.0981 0.4724 0.1015
Cd1 Cd 0.378799(15) 0.02417(2) 0.055551(8)
N1 N 0.42567(19) -0.1832(2) 0.10950(10)
N2 N 0.3217(2) 0.2123(2) -0.01137(11)
O1 O 0.21831(17) 0.0457(2) 0.10902(10)
O2 O 0.36099(16) 0.1760(2) 0.14499(10)
O3 O -0.28213(16) 0.1091(2) 0.02318(9)
O4 O -0.43944(16) 0.0869(3) 0.06233(12)
C1 C 0.2615(2) 0.1433(3) 0.14342(12)
C2 C 0.1888(2) 0.2271(3) 0.18154(11)
C3 C 0.0747(2) 0.2042(2) 0.17583(11)
H1 H 0.0432 0.1285 0.1506
C4 C 0.0051(2) 0.2895(2) 0.20623(11)
C5 C 0.0548(2) 0.3973(3) 0.24429(13)
H2 H 0.0096 0.4564 0.2659
C6 C 0.1686(2) 0.4195(3) 0.25106(14)
H3 H 0.2010 0.4926 0.2777
C7 C 0.2352(2) 0.3363(3) 0.21941(13)
H4 H 0.3132 0.3535 0.2234
C8 C -0.3404(2) 0.1254(2) 0.06717(12)
C9 C -0.2872(2) 0.1918(2) 0.12906(11)
C10 C -0.3505(2) 0.2339(3) 0.17609(13)
H5 H -0.4291 0.2208 0.1697
C11 C -0.2979(2) 0.2951(3) 0.23234(14)
H6 H -0.3409 0.3259 0.2642
C12 C -0.1837(2) 0.3116(3) 0.24251(13)
H7 H -0.1491 0.3521 0.2818
C13 C -0.1178(2) 0.2703(2) 0.19625(11)
C14 C -0.1724(2) 0.2112(2) 0.13913(11)
H8 H -0.1299 0.1836 0.1064
C15 C 0.5197(3) -0.2070(3) 0.14937(15)
H9 H 0.5735 -0.1352 0.1569
C16 C 0.5421(3) -0.3314(4) 0.18011(18)
H10 H 0.6100 -0.3450 0.2085
C17 C 0.4658(3) -0.4350(4) 0.16940(18)
H11 H 0.4796 -0.5219 0.1902
C18 C 0.3693(3) -0.4122(4) 0.12848(17)
H12 H 0.3150 -0.4832 0.1201
C19 C 0.3515(3) -0.2850(3) 0.09946(14)
H13 H 0.2838 -0.2694 0.0712
C20 C 0.3713(3) 0.3341(3) -0.00118(18)
H14 H 0.4321 0.3426 0.0329
C21 C 0.3381(4) 0.4484(4) -0.0379(2)
H15 H 0.3749 0.5343 -0.0289
C22 C 0.2513(4) 0.4372(4) -0.0876(2)
H16 H 0.2274 0.5148 -0.1138
C23 C 0.2002(3) 0.3128(4) -0.09870(19)
H17 H 0.1403 0.3018 -0.1331
C24 C 0.2363(3) 0.2033(3) -0.05943(16)
H18 H 0.1990 0.1173 -0.0668
Cd1B Cd -0.378799(15) -0.02417(2) -0.055551(8)
Cd1_2 Cd -0.621201(15) 0.02417(2) 0.055551(8)
Cd1B_2 Cd 0.621201(15) -0.02417(2) -0.055551(8)
N1B N -0.42567(19) 0.1832(2) -0.10950(10)
N2B N -0.3217(2) -0.2123(2) 0.01137(11)
O1B O -0.21831(17) -0.0457(2) -0.10902(10)
O2B O -0.36099(16) -0.1760(2) -0.14499(10)
O3B O 0.28213(16) -0.1091(2) -0.02318(9)
O4B O 0.43944(16) -0.0869(3) -0.06233(12)
O4_2 O 0.56056(16) 0.0869(3) 0.06233(12)
O4B_2 O -0.56056(16) -0.0869(3) -0.06233(12)
C1B C -0.2615(2) -0.1433(3) -0.14342(12)
C2B C -0.1888(2) -0.2271(3) -0.18154(11)
C3B C -0.0747(2) -0.2042(2) -0.17583(11)
H1B H -0.0432 -0.1285 -0.1506
C4B C -0.0051(2) -0.2895(2) -0.20623(11)
C5B C -0.0548(2) -0.3973(3) -0.24429(13)
H2B H -0.0096 -0.4564 -0.2659
C6B C -0.1686(2) -0.4195(3) -0.25106(14)
H3B H -0.2010 -0.4926 -0.2777
C7B C -0.2352(2) -0.3363(3) -0.21941(13)
H4B H -0.3132 -0.3535 -0.2234
C8B C 0.3404(2) -0.1254(2) -0.06717(12)
C9B C 0.2872(2) -0.1918(2) -0.12906(11)
C10B C 0.3505(2) -0.2339(3) -0.17609(13)
H5B H 0.4291 -0.2208 -0.1697
C11B C 0.2979(2) -0.2951(3) -0.23234(14)
H6B H 0.3409 -0.3259 -0.2642
C12B C 0.1837(2) -0.3116(3) -0.24251(13)
H7B H 0.1491 -0.3521 -0.2818
C13B C 0.1178(2) -0.2703(2) -0.19625(11)
C14B C 0.1724(2) -0.2112(2) -0.13913(11)
H8B H 0.1299 -0.1836 -0.1064
C15B C -0.5197(3) 0.2070(3) -0.14937(15)
H9B H -0.5735 0.1352 -0.1569
C16B C -0.5421(3) 0.3314(4) -0.18011(18)
H10B H -0.6100 0.3450 -0.2085
C17B C -0.4658(3) 0.4350(4) -0.16940(18)
H11B H -0.4796 0.5219 -0.1902
C18B C -0.3693(3) 0.4122(4) -0.12848(17)
H12B H -0.3150 0.4832 -0.1201
C19B C -0.3515(3) 0.2850(3) -0.09946(14)
H13B H -0.2838 0.2694 -0.0712
C20B C -0.3713(3) -0.3341(3) 0.00118(18)
H14B H -0.4321 -0.3426 -0.0329
C21B C -0.3381(4) -0.4484(4) 0.0379(2)
H15B H -0.3749 -0.5343 0.0289
C22B C -0.2513(4) -0.4372(4) 0.0876(2)
H16B H -0.2274 -0.5148 0.1138
C23B C -0.2002(3) -0.3128(4) 0.09870(19)
H17B H -0.1403 -0.3018 0.1331
C24B C -0.2363(3) -0.2033(3) 0.05943(16)
H18B H -0.1990 -0.1173 0.0668
loop_
_geom_bond_atom_site_label_1
_geom_bond_atom_site_label_2
_geom_bond_site_symmetry_1
_geom_bond_site_symmetry_2
Cd1 N1 1_555 1_555
N1 C15 1_555 1_555
N2 Cd1 1_555 1_555
O1 Cd1 1_555 1_555
O2 Cd1 1_555 1_555
O3 C8 1_555 1_555
O4 C8 1_555 1_555
O5 C27 1_555 1_555
C1 O1 1_555 1_555
C2 C1 1_555 1_555
C3 C2 1_555 1_555
H1 C3 1_555 1_555
C4 C3 1_555 1_555
C5 C4 1_555 1_555
H2 C5 1_555 1_555
C6 C5 1_555 1_555
H3 C6 1_555 1_555
C7 C2 1_555 1_555
H4 C7 1_555 1_555
C8 C9 1_555 1_555
C9 C10 1_555 1_555
C10 H5 1_555 1_555
C11 C10 1_555 1_555
H6 C11 1_555 1_555
C12 C11 1_555 1_555
H7 C12 1_555 1_555
C13 C4 1_555 1_555
C14 C9 1_555 1_555
H8 C14 1_555 1_555
C15 H9 1_555 1_555
C16 C15 1_555 1_555
H10 C16 1_555 1_555
C17 C16 1_555 1_555
H11 C17 1_555 1_555
C18 C17 1_555 1_555
H12 C18 1_555 1_555
C19 N1 1_555 1_555
H13 C19 1_555 1_555
C20 N2 1_555 1_555
H14 C20 1_555 1_555
C21 C20 1_555 1_555
H15 C21 1_555 1_555
C22 C21 1_555 1_555
H16 C22 1_555 1_555
C23 C22 1_555 1_555
H17 C23 1_555 1_555
C24 N2 1_555 1_555
H18 C24 1_555 1_555
N3 C25 1_555 1_555
C25 H19 1_555 1_555
C26 N3 1_555 1_555
H20 C26 1_555 1_555
Cd1B O3 1_555 1_555
Cd1_2 O4 1_555 1_555
Cd1B_2 O4B 1_555 1_555
N1B Cd1B 1_555 1_555
N2B Cd1B 1_555 1_555
O1B Cd1B 1_555 1_555
O2B Cd1B 1_555 1_555
O3B Cd1 1_555 1_555
O4B C8B 1_555 1_555
O4_2 Cd1 1_555 1_555
O4B_2 Cd1B 1_555 1_555
C1B O1B 1_555 1_555
C2B C1B 1_555 1_555
C3B C2B 1_555 1_555
H1B C3B 1_555 1_555
C4B C3B 1_555 1_555
C5B C4B 1_555 1_555
H2B C5B 1_555 1_555
C6B C5B 1_555 1_555
H3B C6B 1_555 1_555
C7B C2B 1_555 1_555
H4B C7B 1_555 1_555
C8B O3B 1_555 1_555
C9B C8B 1_555 1_555
C10B C9B 1_555 1_555
H5B C10B 1_555 1_555
C11B C10B 1_555 1_555
H6B C11B 1_555 1_555
C12B C11B 1_555 1_555
H7B C12B 1_555 1_555
C13B C4B 1_555 1_555
C14B C9B 1_555 1_555
H8B C14B 1_555 1_555
C15B N1B 1_555 1_555
H9B C15B 1_555 1_555
C16B C15B 1_555 1_555
H10B C16B 1_555 1_555
C17B C16B 1_555 1_555
H11B C17B 1_555 1_555
C18B C17B 1_555 1_555
H12B C18B 1_555 1_555
C19B N1B 1_555 1_555
H13B C19B 1_555 1_555
C20B N2B 1_555 1_555
H14B C20B 1_555 1_555
C21B C20B 1_555 1_555
H15B C21B 1_555 1_555
C22B C21B 1_555 1_555
H16B C22B 1_555 1_555
C23B C22B 1_555 1_555
H17B C23B 1_555 1_555
C24B N2B 1_555 1_555
H18B C24B 1_555 1_555
N3B C25B 1_555 1_555
C25B C26 1_555 1_555
H19B C25B 1_555 1_555
C26B C25 1_555 1_555
H20B C26B 1_555 1_555
O2 C1 1_555 1_555
C6 C7 1_555 1_555
C12 C13 1_555 1_555
C13 C14 1_555 1_555
C18 C19 1_555 1_555
C23 C24 1_555 1_555
O2B C1B 1_555 1_555
C6B C7B 1_555 1_555
C12B C13B 1_555 1_555
C13B C14B 1_555 1_555
C18B C19B 1_555 1_555
C23B C24B 1_555 1_555
N3B C26B 1_555 1_555

#END
