
#######################################################################
#
#                 Cambridge Crystallographic Data Centre
#                                CCDC 
#
#######################################################################
#
# If this CIF has been generated from an entry in the Cambridge 
# Structural Database, then it will include bibliographic, chemical, 
# crystal, experimental, refinement or atomic coordinate data resulting 
# from the CCDC's data processing and validation procedures.
#
#######################################################################

data_DAKJAC
_symmetry_cell_setting           triclinic
_symmetry_space_group_name_H-M   'P -1'
_symmetry_Int_Tables_number      2
_space_group_name_Hall           '-P 1'
loop_
_symmetry_equiv_pos_site_id
_symmetry_equiv_pos_as_xyz
1 x,y,z
2 -x,-y,-z
_cell_length_a                   11.3595(9)
_cell_length_b                   13.0837(10)
_cell_length_c                   18.4001(14)
_cell_angle_alpha                84.5740(10)
_cell_angle_beta                 78.6820(10)
_cell_angle_gamma                74.1200(10)
_cell_volume                     2576.76
loop_
_atom_site_label
_atom_site_type_symbol
_atom_site_fract_x
_atom_site_fract_y
_atom_site_fract_z
Co1 Co -0.18794(3) 0.58933(2) 0.729156(15)
Co2 Co 0.47885(3) 0.21665(2) 0.242764(15)
N1 N 0.01163(17) 0.54748(14) 0.69001(10)
N2 N 0.26410(18) 0.46573(16) 0.63944(11)
N3 N -0.15241(18) 0.46555(15) 0.81796(11)
N4 N -0.0839(2) 0.3116(2) 0.92697(14)
N5 N 0.61783(18) 0.24009(15) 0.29924(11)
N6 N 0.7883(2) 0.2565(2) 0.38324(14)
N7 N 0.56806(17) 0.04622(15) 0.23572(11)
N8 N 0.6493(2) -0.17294(18) 0.22636(16)
O1 O -0.38597(15) 0.45636(15) 0.69294(11)
O2 O -0.19135(14) 0.47081(12) 0.66318(8)
O3 O 0.38570(14) 0.18467(13) 0.34600(9)
O4 O 0.19825(15) 0.29959(12) 0.35854(8)
O5 O -0.17115(14) 0.69118(12) 0.80197(9)
O6 O -0.34897(16) 0.81790(13) 0.80736(10)
O7 O -0.52313(18) 1.39341(13) 1.09924(9)
O8 O -0.41615(15) 1.23660(12) 1.14012(8)
O9 O -0.38538(13) 0.61693(11) 0.76277(8)
C1 C -0.2728(2) 0.42004(18) 0.66862(12)
C2 C -0.2284(2) 0.30726(18) 0.64537(11)
C3 C -0.1084(2) 0.26912(17) 0.60587(11)
H1 H -0.0567 0.3164 0.5921
C4 C -0.0626(2) 0.16407(18) 0.58610(12)
C5 C -0.1390(2) 0.0955(2) 0.60776(13)
H2 H -0.1090 0.0229 0.5955
C6 C -0.2583(3) 0.1322(2) 0.64689(14)
H3 H -0.3096 0.0847 0.6613
C7 C -0.3036(2) 0.2381(2) 0.66518(13)
H4 H -0.3862 0.2631 0.6913
C8 C 0.0660(2) 0.12656(17) 0.54362(12)
C9 C 0.1464(3) 0.03198(19) 0.56438(14)
H5 H 0.1177 -0.0107 0.6051
C10 C 0.2668(3) -0.00052(19) 0.52676(14)
H6 H 0.3208 -0.0648 0.5420
C11 C 0.3094(2) 0.06009(18) 0.46689(13)
H7 H 0.3927 0.0377 0.4413
C12 C 0.2306(2) 0.15348(16) 0.44434(11)
C13 C 0.1099(2) 0.18587(17) 0.48278(11)
H8 H 0.0560 0.2500 0.4672
C14 C 0.2750(2) 0.21837(17) 0.37740(11)
C15 C -0.1851(2) 0.4863(2) 0.88953(13)
H9 H -0.2333 0.5555 0.9035
C16 C -0.1509(3) 0.4097(3) 0.94437(15)
C17 C -0.1889(4) 0.4358(3) 1.02475(17)
H10 H -0.1863 0.3700 1.0554
H11 H -0.2737 0.4824 1.0332
H12 H -0.1317 0.4720 1.0381
C18 C -0.0859(2) 0.36648(19) 0.80145(14)
H13 H -0.0607 0.3488 0.7508
C19 C -0.0527(2) 0.2891(2) 0.85555(17)
C20 C 0.0203(3) 0.1782(2) 0.8350(2)
H14 H 0.0930 0.1566 0.8596
H15 H 0.0480 0.1765 0.7811
H16 H -0.0324 0.1292 0.8508
C21 C 0.0951(2) 0.53651(18) 0.73378(13)
H17 H 0.0671 0.5571 0.7837
C22 C 0.2215(2) 0.49609(19) 0.70906(13)
C23 C 0.3137(3) 0.4834(3) 0.75949(16)
H18 H 0.3241 0.4136 0.7857
H19 H 0.2836 0.5394 0.7956
H20 H 0.3939 0.4889 0.7302
C24 C 0.0561(2) 0.51813(18) 0.62025(12)
H21 H -0.0005 0.5262 0.5870
C25 C 0.1813(2) 0.47653(19) 0.59486(13)
C26 C 0.2282(3) 0.4391(3) 0.51712(15)
H22 H 0.3151 0.4414 0.5017
H23 H 0.1775 0.4854 0.4835
H24 H 0.2225 0.3659 0.5155
C27 C -0.2430(2) 0.77945(17) 0.82182(12)
C28 C -0.1976(2) 0.84521(17) 0.86721(12)
C29 C -0.0989(2) 0.7999(2) 0.90396(14)
H25 H -0.0569 0.7266 0.8991
C30 C -0.0617(3) 0.8613(2) 0.94756(15)
H26 H 0.0054 0.8302 0.9731
C31 C -0.1220(2) 0.9681(2) 0.95404(14)
H27 H -0.0960 1.0095 0.9843
C32 C -0.2200(2) 1.01589(18) 0.91710(12)
C33 C -0.2561(2) 0.95256(17) 0.87359(12)
H28 H -0.3227 0.9838 0.8476
C34 C -0.4495(2) 1.30389(18) 1.08916(12)
C35 C -0.3987(2) 1.27047(17) 1.01068(12)
C36 C -0.3272(2) 1.16721(17) 0.99803(12)
H29 H -0.3047 1.1213 1.0390
C37 C -0.2878(2) 1.12918(17) 0.92687(12)
C38 C -0.3181(2) 1.19952(19) 0.86738(12)
H30 H -0.2930 1.1753 0.8182
C39 C -0.3843(2) 1.30385(19) 0.87913(13)
H31 H -0.4014 1.3515 0.8379
C40 C -0.4259(2) 1.33960(18) 0.95031(13)
H32 H -0.4728 1.4111 0.9580
C41 C 0.5965(2) -0.0172(2) 0.29398(15)
H33 H 0.5899 0.0136 0.3398
C42 C 0.6350(3) -0.1258(2) 0.29029(18)
C43 C 0.6645(5) -0.1969(3) 0.3573(2)
H34 H 0.6183 -0.2513 0.3639
H35 H 0.6404 -0.1543 0.4014
H36 H 0.7539 -0.2313 0.3501
C44 C 0.5820(2) -0.00114(19) 0.17231(14)
H37 H 0.5630 0.0416 0.1293
C45 C 0.6232(2) -0.1104(2) 0.16697(16)
C46 C 0.6397(3) -0.1621(3) 0.09471(18)
H38 H 0.7275 -0.1787 0.0712
H39 H 0.5896 -0.1134 0.0618
H40 H 0.6125 -0.2279 0.1041
C47 C 0.5837(3) 0.2838(2) 0.36539(13)
H41 H 0.4975 0.3106 0.3841
C48 C 0.6675(3) 0.2918(2) 0.40737(15)
C49 C 0.6249(4) 0.3394(4) 0.48260(18)
H42 H 0.6968 0.3299 0.5069
H43 H 0.5655 0.3037 0.5130
H44 H 0.5847 0.4154 0.4768
C50 C 0.7389(2) 0.2055(2) 0.27464(15)
H45 H 0.7672 0.1747 0.2276
C51 C 0.8259(2) 0.2136(2) 0.31666(18)
C52 C 0.9608(3) 0.1738(3) 0.2896(2)
H46 H 0.9918 0.2299 0.2593
H47 H 0.9763 0.1120 0.2596
H48 H 1.0040 0.1532 0.3321
Co1A Co 0.18794(3) 0.41067(2) 0.270844(15)
Co2A Co -0.47885(3) 0.78335(2) 0.757236(15)
Co2_2 Co -0.52115(3) 1.21665(2) 1.242764(15)
O4A O -0.19825(15) 0.70041(12) 0.64146(8)
O6A O 0.34897(16) 0.18210(13) 0.19264(10)
O8_2 O 0.58385(15) 0.23660(12) 0.14012(8)
O9A O 0.38538(13) 0.38307(11) 0.23723(8)
loop_
_geom_bond_atom_site_label_1
_geom_bond_atom_site_label_2
_geom_bond_site_symmetry_1
_geom_bond_site_symmetry_2
Co1 N1 1_555 1_555
Co2 N5 1_555 1_555
N1 C21 1_555 1_555
N2 C22 1_555 1_555
N3 Co1 1_555 1_555
N4 C16 1_555 1_555
N5 C47 1_555 1_555
N6 C48 1_555 1_555
N7 Co2 1_555 1_555
N8 C42 1_555 1_555
O1 C1 1_555 1_555
O2 Co1 1_555 1_555
O3 Co2 1_555 1_555
O4 C14 1_555 1_555
O5 Co1 1_555 1_555
O6 C27 1_555 1_555
O7 C34 1_555 1_555
O8 C34 1_555 1_555
O9 Co1 1_555 1_555
C1 O2 1_555 1_555
C2 C1 1_555 1_555
C3 C2 1_555 1_555
H1 C3 1_555 1_555
C4 C3 1_555 1_555
C5 C4 1_555 1_555
H2 C5 1_555 1_555
C6 C5 1_555 1_555
H3 C6 1_555 1_555
C7 C2 1_555 1_555
H4 C7 1_555 1_555
C8 C4 1_555 1_555
C9 C8 1_555 1_555
H5 C9 1_555 1_555
C10 C9 1_555 1_555
H6 C10 1_555 1_555
C11 C10 1_555 1_555
H7 C11 1_555 1_555
C12 C11 1_555 1_555
C13 C8 1_555 1_555
H8 C13 1_555 1_555
C14 O3 1_555 1_555
C15 N3 1_555 1_555
H9 C15 1_555 1_555
C16 C15 1_555 1_555
C17 C16 1_555 1_555
H10 C17 1_555 1_555
H11 C17 1_555 1_555
H12 C17 1_555 1_555
C18 N3 1_555 1_555
H13 C18 1_555 1_555
C19 N4 1_555 1_555
C20 C19 1_555 1_555
H14 C20 1_555 1_555
H15 C20 1_555 1_555
H16 C20 1_555 1_555
C21 H17 1_555 1_555
C22 C21 1_555 1_555
C23 C22 1_555 1_555
H18 C23 1_555 1_555
H19 C23 1_555 1_555
H20 C23 1_555 1_555
C24 N1 1_555 1_555
H21 C24 1_555 1_555
C25 N2 1_555 1_555
C26 C25 1_555 1_555
H22 C26 1_555 1_555
H23 C26 1_555 1_555
H24 C26 1_555 1_555
C27 O5 1_555 1_555
C28 C27 1_555 1_555
C29 C28 1_555 1_555
H25 C29 1_555 1_555
C30 C29 1_555 1_555
H26 C30 1_555 1_555
C31 C30 1_555 1_555
H27 C31 1_555 1_555
C32 C31 1_555 1_555
C33 C28 1_555 1_555
H28 C33 1_555 1_555
C34 C35 1_555 1_555
C35 C36 1_555 1_555
C36 H29 1_555 1_555
C37 C32 1_555 1_555
C38 C37 1_555 1_555
H30 C38 1_555 1_555
C39 C38 1_555 1_555
H31 C39 1_555 1_555
C40 C35 1_555 1_555
H32 C40 1_555 1_555
C41 N7 1_555 1_555
H33 C41 1_555 1_555
C42 C41 1_555 1_555
C43 C42 1_555 1_555
H34 C43 1_555 1_555
H35 C43 1_555 1_555
H36 C43 1_555 1_555
C44 N7 1_555 1_555
H37 C44 1_555 1_555
C45 N8 1_555 1_555
C46 C45 1_555 1_555
H38 C46 1_555 1_555
H39 C46 1_555 1_555
H40 C46 1_555 1_555
C47 H41 1_555 1_555
C48 C47 1_555 1_555
C49 C48 1_555 1_555
H42 C49 1_555 1_555
H43 C49 1_555 1_555
H44 C49 1_555 1_555
C50 N5 1_555 1_555
H45 C50 1_555 1_555
C51 N6 1_555 1_555
C52 C51 1_555 1_555
H46 C52 1_555 1_555
H47 C52 1_555 1_555
H48 C52 1_555 1_555
Co1A O4 1_555 1_555
Co2A O6 1_555 1_555
Co2_2 O8 1_555 1_555
O4A Co1 1_555 1_555
O6A Co2 1_555 1_555
O8_2 Co2 1_555 1_555
O9A Co2 1_555 1_555
O9 Co2A 1_555 1_555
C6 C7 1_555 1_555
C12 C13 1_555 1_555
C12 C14 1_555 1_555
C18 C19 1_555 1_555
C24 C25 1_555 1_555
C32 C33 1_555 1_555
C36 C37 1_555 1_555
C39 C40 1_555 1_555
C44 C45 1_555 1_555
C50 C51 1_555 1_555
Co1A O9A 1_555 1_555

#END
