
#######################################################################
#
#                 Cambridge Crystallographic Data Centre
#                                CCDC 
#
#######################################################################
#
# If this CIF has been generated from an entry in the Cambridge 
# Structural Database, then it will include bibliographic, chemical, 
# crystal, experimental, refinement or atomic coordinate data resulting 
# from the CCDC's data processing and validation procedures.
#
#######################################################################

data_DAKJUW
_symmetry_cell_setting           monoclinic
_symmetry_space_group_name_H-M   'C 2/c'
_symmetry_Int_Tables_number      15
_space_group_name_Hall           '-C 2yn'
loop_
_symmetry_equiv_pos_site_id
_symmetry_equiv_pos_as_xyz
1 x,y,z
2 -x,y,1/2-z
3 1/2+x,1/2+y,z
4 1/2-x,1/2+y,1/2-z
5 -x,-y,-z
6 x,-y,1/2+z
7 1/2-x,1/2-y,-z
8 1/2+x,1/2-y,1/2+z
_cell_length_a                   16.7240(17)
_cell_length_b                   11.6650(17)
_cell_length_c                   20.861(3)
_cell_angle_alpha                90
_cell_angle_beta                 111.904(3)
_cell_angle_gamma                90
_cell_volume                     3775.89
loop_
_atom_site_label
_atom_site_type_symbol
_atom_site_fract_x
_atom_site_fract_y
_atom_site_fract_z
Mn1 Mn 1.0000 0.55982(9) 0.7500
Mn2 Mn 1.0000 0.5000 1.0000
S1 S 0.79153(9) 0.47852(13) 0.94265(8)
O1 O 0.8915(3) 0.5739(4) 0.7830(2)
O2 O 0.9485(2) 0.5120(3) 0.89109(19)
O3 O 0.8726(2) 0.4862(3) 1.0032(2)
O4 O 0.7942(3) 0.3916(4) 0.8942(3)
O5 O 0.7191(3) 0.4704(4) 0.9630(3)
O6 O 0.9002(3) 0.5602(4) 0.6478(2)
H1 H 0.9075 0.5334 0.6124
H2 H 0.8499 0.5889 0.6313
N1 N 1.0000 0.7591(5) 0.7500
N2 N 1.0000 1.3665(6) 0.7500
N3 N 0.9992(3) 0.3045(4) 0.9963(2)
C1 C 1.0711(4) 0.8192(5) 0.7844(3)
H5 H 1.1211 0.7792 0.8095
C2 C 1.0744(4) 0.9368(5) 0.7848(3)
H6 H 1.1261 0.9747 0.8082
C3 C 1.0000 0.9983(7) 0.7500
C4 C 1.0000 1.1264(7) 0.7500
C5 C 0.9400(5) 1.1874(5) 0.7666(4)
H7 H 0.8977 1.1493 0.7773
C6 C 0.9432(5) 1.3063(6) 0.7671(4)
H8 H 0.9035 1.3462 0.7802
C7 C 1.0323(5) 0.2433(5) 0.9591(4)
H9 H 1.0556 0.2821 0.9312
C8 C 1.0343(5) 0.1248(5) 0.9593(4)
H10 H 1.0590 0.0862 0.9322
C9 C 0.9998(4) 0.0636(4) 0.9995(3)
C10 C 0.9657(4) 0.1272(5) 1.0381(4)
H11 H 0.9419 0.0908 1.0664
C11 C 0.9666(5) 0.2453(5) 1.0351(4)
H12 H 0.9427 0.2860 1.0619
C12 C 0.8922(4) 0.5651(5) 0.8431(3)
C13 C 0.8282(4) 0.6428(5) 0.8598(3)
C14 C 0.8183(5) 0.7532(6) 0.8331(4)
H13 H 0.8455 0.7730 0.8031
C15 C 0.7695(5) 0.8341(6) 0.8496(4)
H14 H 0.7658 0.9082 0.8323
C16 C 0.7261(5) 0.8057(7) 0.8916(4)
H15 H 0.6923 0.8598 0.9025
C17 C 0.7332(4) 0.6961(6) 0.9174(4)
H16 H 0.7034 0.6763 0.9456
C18 C 0.7833(3) 0.6150(5) 0.9025(3)
Mn1_2 Mn 1.0000 1.55982(9) 0.7500
Mn2_2 Mn 1.0000 -0.5000 1.0000
Mn2A Mn 1.0000 0.5000 0.5000
S1A S 1.20847(9) 0.47852(13) 0.55735(8)
O1A O 1.1085(3) 0.5739(4) 0.7170(2)
O2A O 1.0515(2) 0.5120(3) 0.60891(19)
O2D O 1.0515(2) 0.4880(3) 1.10891(19)
O3A O 1.1274(2) 0.4862(3) 0.4968(2)
O3D O 1.1274(2) 0.5138(3) 0.9968(2)
O4A O 1.2058(3) 0.3916(4) 0.6058(3)
O5A O 1.2809(3) 0.4704(4) 0.5370(3)
O6A O 1.0998(3) 0.5602(4) 0.8522(2)
H1A H 1.0925 0.5334 0.8876
H2A H 1.1501 0.5889 0.8687
N2_2 N 1.0000 0.3665(6) 0.7500
N3D N 1.0008(3) -0.3045(4) 1.0037(2)
N3D_2 N 1.0008(3) 0.6955(4) 1.0037(2)
C1A C 0.9289(4) 0.8192(5) 0.7156(3)
H5A H 0.8789 0.7792 0.6905
C2A C 0.9256(4) 0.9368(5) 0.7152(3)
H6A H 0.8739 0.9747 0.6918
C5A C 1.0600(5) 1.1874(5) 0.7334(4)
H7A H 1.1023 1.1493 0.7227
C6A C 1.0568(5) 1.3063(6) 0.7329(4)
H8A H 1.0965 1.3462 0.7198
C7D C 0.9677(5) -0.2433(5) 1.0409(4)
H9D H 0.9444 -0.2821 1.0688
C8D C 0.9657(5) -0.1248(5) 1.0407(4)
H10D H 0.9410 -0.0862 1.0678
C9D C 1.0002(4) -0.0636(4) 1.0005(3)
C10D C 1.0343(4) -0.1272(5) 0.9619(4)
H11D H 1.0581 -0.0908 0.9336
C11D C 1.0334(5) -0.2453(5) 0.9649(4)
H12D H 1.0573 -0.2860 0.9381
C12A C 1.1078(4) 0.5651(5) 0.6569(3)
C13A C 1.1718(4) 0.6428(5) 0.6402(3)
C14A C 1.1817(5) 0.7532(6) 0.6669(4)
H13A H 1.1545 0.7730 0.6969
C15A C 1.2305(5) 0.8341(6) 0.6504(4)
H14A H 1.2342 0.9082 0.6677
C16A C 1.2739(5) 0.8057(7) 0.6084(4)
H15A H 1.3077 0.8598 0.5975
C17A C 1.2668(4) 0.6961(6) 0.5826(4)
H16A H 1.2966 0.6763 0.5544
C18A C 1.2167(3) 0.6150(5) 0.5975(3)
O7 O 0.7406(5) 0.6485(6) 0.5942(4)
H3 H 0.7141 0.6399 0.5510
H4 H 0.7235 0.6807 0.6253
loop_
_geom_bond_atom_site_label_1
_geom_bond_atom_site_label_2
_geom_bond_site_symmetry_1
_geom_bond_site_symmetry_2
Mn1 O1 1_555 1_555
Mn2 O2 1_555 1_555
S1 O3 1_555 1_555
O1 C12 1_555 1_555
O2 C12 1_555 1_555
O3 Mn2 1_555 1_555
O4 S1 1_555 1_555
O5 S1 1_555 1_555
O6 Mn1 1_555 1_555
H1 O6 1_555 1_555
H2 O6 1_555 1_555
O7 H3 1_555 1_555
H4 O7 1_555 1_555
N1 Mn1 1_555 1_555
N2 C6 1_555 1_555
N3 Mn2 1_555 1_555
C1 N1 1_555 1_555
H5 C1 1_555 1_555
C2 C1 1_555 1_555
H6 C2 1_555 1_555
C3 C2 1_555 1_555
C4 C3 1_555 1_555
C5 C4 1_555 1_555
H7 C5 1_555 1_555
C6 C5 1_555 1_555
H8 C6 1_555 1_555
C7 N3 1_555 1_555
H9 C7 1_555 1_555
C8 C7 1_555 1_555
H10 C8 1_555 1_555
C9 C8 1_555 1_555
C10 C9 1_555 1_555
H11 C10 1_555 1_555
C11 N3 1_555 1_555
H12 C11 1_555 1_555
C12 C13 1_555 1_555
C13 C14 1_555 1_555
C14 H13 1_555 1_555
C15 C14 1_555 1_555
H14 C15 1_555 1_555
C16 C15 1_555 1_555
H15 C16 1_555 1_555
C17 C16 1_555 1_555
H16 C17 1_555 1_555
C18 S1 1_555 1_555
Mn1_2 N2 1_555 1_555
Mn2_2 N3D 1_555 1_555
Mn2A O2A 1_555 1_555
S1A O3A 1_555 1_555
O1A Mn1 1_555 1_555
O2A C12A 1_555 1_555
O2D Mn2 1_555 1_555
O3A Mn2A 1_555 1_555
O3D Mn2 1_555 1_555
O4A S1A 1_555 1_555
O5A S1A 1_555 1_555
O6A Mn1 1_555 1_555
H1A O6A 1_555 1_555
H2A O6A 1_555 1_555
N2_2 Mn1 1_555 1_555
N3D C7D 1_555 1_555
N3D_2 Mn2 1_555 1_555
C1A N1 1_555 1_555
H5A C1A 1_555 1_555
C2A C3 1_555 1_555
H6A C2A 1_555 1_555
C5A C4 1_555 1_555
H7A C5A 1_555 1_555
C6A N2 1_555 1_555
H8A C6A 1_555 1_555
C7D H9D 1_555 1_555
C8D C7D 1_555 1_555
H10D C8D 1_555 1_555
C9D C9 1_555 1_555
C10D C9D 1_555 1_555
H11D C10D 1_555 1_555
C11D N3D 1_555 1_555
H12D C11D 1_555 1_555
C12A O1A 1_555 1_555
C13A C12A 1_555 1_555
C14A C13A 1_555 1_555
H13A C14A 1_555 1_555
C15A C14A 1_555 1_555
H14A C15A 1_555 1_555
C16A C15A 1_555 1_555
H15A C16A 1_555 1_555
C17A C16A 1_555 1_555
H16A C17A 1_555 1_555
C18A S1A 1_555 1_555
C10 C11 1_555 1_555
C13 C18 1_555 1_555
C17 C18 1_555 1_555
C1A C2A 1_555 1_555
C5A C6A 1_555 1_555
C8D C9D 1_555 1_555
C10D C11D 1_555 1_555
C13A C18A 1_555 1_555
C17A C18A 1_555 1_555

#END
