
#######################################################################
#
#                 Cambridge Crystallographic Data Centre
#                                CCDC 
#
#######################################################################
#
# If this CIF has been generated from an entry in the Cambridge 
# Structural Database, then it will include bibliographic, chemical, 
# crystal, experimental, refinement or atomic coordinate data resulting 
# from the CCDC's data processing and validation procedures.
#
#######################################################################

data_DAKKUX
_symmetry_cell_setting           monoclinic
_symmetry_space_group_name_H-M   'P 21/c'
_symmetry_Int_Tables_number      14
_space_group_name_Hall           '-P 2ybc'
loop_
_symmetry_equiv_pos_site_id
_symmetry_equiv_pos_as_xyz
1 x,y,z
2 -x,1/2+y,1/2-z
3 -x,-y,-z
4 x,1/2-y,1/2+z
_cell_length_a                   15.376(3)
_cell_length_b                   8.9859(16)
_cell_length_c                   14.724(3)
_cell_angle_alpha                90
_cell_angle_beta                 91.620(3)
_cell_angle_gamma                90
_cell_volume                     2033.56
loop_
_atom_site_label
_atom_site_type_symbol
_atom_site_fract_x
_atom_site_fract_y
_atom_site_fract_z
Co1 Co 0.25939(4) 1.03915(8) 0.18133(5)
C1 C 0.3759(3) 0.8144(6) 0.0975(3)
H1 H 0.3271 0.7586 0.0807
C2 C 0.4578(3) 0.9899(5) 0.1513(3)
C3 C 0.4910(3) 1.1193(6) 0.1906(3)
H2 H 0.4549 1.1914 0.2148
C4 C 0.5800(3) 1.1352(7) 0.1919(4)
H3 H 0.6042 1.2215 0.2166
C5 C 0.6352(3) 1.0270(6) 0.1577(4)
H4 H 0.6950 1.0425 0.1605
C6 C 0.6028(3) 0.8985(6) 0.1200(4)
H5 H 0.6394 0.8248 0.0985
C7 C 0.5124(3) 0.8830(5) 0.1153(3)
C8 C 0.4801(3) 0.6325(5) 0.0404(3)
C9 C 0.5462(3) 0.6267(6) -0.0218(3)
H6 H 0.5773 0.7120 -0.0358
C10 C 0.4352(3) 0.5062(5) 0.0622(3)
H7 H 0.3918 0.5110 0.1048
C11 C 0.1406(3) 0.8048(6) 0.0965(3)
H8 H 0.1497 0.7422 0.1461
C12 C 0.1485(3) 0.9917(5) 0.0051(3)
C13 C 0.1676(3) 1.1248(6) -0.0375(4)
H9 H 0.2048 1.1942 -0.0102
C14 C 0.1296(4) 1.1503(6) -0.1213(4)
H10 H 0.1429 1.2368 -0.1527
C15 C 0.0715(4) 1.0488(7) -0.1600(4)
H11 H 0.0454 1.0711 -0.2161
C16 C 0.0511(3) 0.9175(6) -0.1191(4)
H12 H 0.0118 0.8510 -0.1459
C17 C 0.0918(3) 0.8881(6) -0.0355(3)
C18 C 0.0435(3) 0.6321(5) 0.0116(3)
C19 C 0.0032(3) 0.5675(5) 0.0840(3)
H13 H 0.0053 0.6137 0.1406
C20 C 0.0407(3) 0.5667(5) -0.0725(3)
H14 H 0.0678 0.6115 -0.1212
N1 N 0.3718(2) 0.9434(4) 0.1392(3)
N2 N 0.4582(2) 0.7712(4) 0.0816(3)
N3 N 0.1773(2) 0.9366(4) 0.0893(3)
N4 N 0.0881(2) 0.7699(4) 0.0242(3)
N5 N 0.2161(3) 1.3186(6) 0.1611(3)
N6 N 0.2573(3) 0.9431(7) 0.3466(4)
O1 O 0.2079(3) 1.4516(5) 0.1511(3)
O2 O 0.1564(2) 1.2320(5) 0.1835(3)
O3 O 0.2888(2) 1.2537(4) 0.1483(3)
O4 O 0.2582(3) 0.8985(6) 0.4250(3)
O5 O 0.2882(4) 1.0645(6) 0.3237(3)
O6 O 0.2233(3) 0.8757(7) 0.2836(3)
Co1B Co 0.74061(4) -0.03915(8) -0.18133(5)
Co1B_2 Co -0.25939(4) -0.03915(8) -0.18133(5)
C1B C 0.6241(3) 0.1856(6) -0.0975(3)
H1B H 0.6729 0.2414 -0.0807
C2B C 0.5422(3) 0.0101(5) -0.1513(3)
C3B C 0.5090(3) -0.1193(6) -0.1906(3)
H2B H 0.5451 -0.1914 -0.2148
C4B C 0.4200(3) -0.1352(7) -0.1919(4)
H3B H 0.3958 -0.2215 -0.2166
C5B C 0.3648(3) -0.0270(6) -0.1577(4)
H4B H 0.3050 -0.0425 -0.1605
C6B C 0.3972(3) 0.1015(6) -0.1200(4)
H5B H 0.3606 0.1752 -0.0985
C7B C 0.4876(3) 0.1170(5) -0.1153(3)
C8B C 0.5199(3) 0.3675(5) -0.0404(3)
C9B C 0.4538(3) 0.3733(6) 0.0218(3)
H6B H 0.4227 0.2880 0.0358
C10B C 0.5648(3) 0.4938(5) -0.0622(3)
H7B H 0.6082 0.4890 -0.1048
C11B C -0.1406(3) 0.1952(6) -0.0965(3)
H8B H -0.1497 0.2578 -0.1461
C12B C -0.1485(3) 0.0083(5) -0.0051(3)
C13B C -0.1676(3) -0.1248(6) 0.0375(4)
H9B H -0.2048 -0.1942 0.0102
C14B C -0.1296(4) -0.1503(6) 0.1213(4)
H10B H -0.1429 -0.2368 0.1527
C15B C -0.0715(4) -0.0488(7) 0.1600(4)
H11B H -0.0454 -0.0711 0.2161
C16B C -0.0511(3) 0.0825(6) 0.1191(4)
H12B H -0.0118 0.1490 0.1459
C17B C -0.0918(3) 0.1119(6) 0.0355(3)
C18B C -0.0435(3) 0.3679(5) -0.0116(3)
C19B C -0.0032(3) 0.4325(5) -0.0840(3)
H13B H -0.0053 0.3863 -0.1406
C20B C -0.0407(3) 0.4333(5) 0.0725(3)
H14B H -0.0678 0.3885 0.1212
N1B N 0.6282(2) 0.0566(4) -0.1392(3)
N2B N 0.5418(2) 0.2288(4) -0.0816(3)
N3B N -0.1773(2) 0.0634(4) -0.0893(3)
N3B_2 N 0.8227(2) 0.0634(4) -0.0893(3)
N4B N -0.0881(2) 0.2301(4) -0.0242(3)
N5B N 0.7839(3) -0.3186(6) -0.1611(3)
N6B N 0.7427(3) 0.0569(7) -0.3466(4)
O1B O 0.7921(3) -0.4516(5) -0.1511(3)
O2B O 0.8436(2) -0.2320(5) -0.1835(3)
O3B O 0.7112(2) -0.2537(4) -0.1483(3)
O4B O 0.7418(3) 0.1015(6) -0.4250(3)
O5B O 0.7118(4) -0.0645(6) -0.3237(3)
O6B O 0.7767(3) 0.1243(7) -0.2836(3)
loop_
_geom_bond_atom_site_label_1
_geom_bond_atom_site_label_2
_geom_bond_site_symmetry_1
_geom_bond_site_symmetry_2
Co1 N1 1_555 1_555
C1 H1 1_555 1_555
C2 C3 1_555 1_555
C3 H2 1_555 1_555
C4 C3 1_555 1_555
H3 C4 1_555 1_555
C5 C4 1_555 1_555
H4 C5 1_555 1_555
C6 C5 1_555 1_555
H5 C6 1_555 1_555
C7 C2 1_555 1_555
C8 C9 1_555 1_555
C9 H6 1_555 1_555
C10 C8 1_555 1_555
H7 C10 1_555 1_555
C11 H8 1_555 1_555
C12 C13 1_555 1_555
C13 H9 1_555 1_555
C14 C13 1_555 1_555
H10 C14 1_555 1_555
C15 C14 1_555 1_555
H11 C15 1_555 1_555
C16 C15 1_555 1_555
H12 C16 1_555 1_555
C17 C12 1_555 1_555
C18 C19 1_555 1_555
C19 H13 1_555 1_555
C20 C18 1_555 1_555
H14 C20 1_555 1_555
N1 C1 1_555 1_555
N2 C1 1_555 1_555
N3 Co1 1_555 1_555
N4 C11 1_555 1_555
N5 O1 1_555 1_555
N6 O4 1_555 1_555
O2 Co1 1_555 1_555
O3 Co1 1_555 1_555
O5 Co1 1_555 1_555
O6 Co1 1_555 1_555
Co1B N1B 1_555 1_555
Co1B_2 N3B 1_555 1_555
C1B H1B 1_555 1_555
C2B C3B 1_555 1_555
C3B H2B 1_555 1_555
C4B C3B 1_555 1_555
H3B C4B 1_555 1_555
C5B C4B 1_555 1_555
H4B C5B 1_555 1_555
C6B C5B 1_555 1_555
H5B C6B 1_555 1_555
C7B C2B 1_555 1_555
C8B C9B 1_555 1_555
C9B C10 1_555 1_555
H6B C9B 1_555 1_555
C10B C9 1_555 1_555
H7B C10B 1_555 1_555
C11B H8B 1_555 1_555
C12B C13B 1_555 1_555
C13B H9B 1_555 1_555
C14B C13B 1_555 1_555
H10B C14B 1_555 1_555
C15B C14B 1_555 1_555
H11B C15B 1_555 1_555
C16B C15B 1_555 1_555
H12B C16B 1_555 1_555
C17B C12B 1_555 1_555
C18B C19B 1_555 1_555
C19B C20 1_555 1_555
H13B C19B 1_555 1_555
C20B C19 1_555 1_555
H14B C20B 1_555 1_555
N1B C1B 1_555 1_555
N2B C1B 1_555 1_555
N3B C11B 1_555 1_555
N3B_2 Co1B 1_555 1_555
N4B C11B 1_555 1_555
N5B O1B 1_555 1_555
N6B O4B 1_555 1_555
O2B Co1B 1_555 1_555
O3B Co1B 1_555 1_555
O5B Co1B 1_555 1_555
O6B Co1B 1_555 1_555
C2 N1 1_555 1_555
C6 C7 1_555 1_555
C7 N2 1_555 1_555
C8 N2 1_555 1_555
C11 N3 1_555 1_555
C12 N3 1_555 1_555
C16 C17 1_555 1_555
C17 N4 1_555 1_555
C18 N4 1_555 1_555
N5 O2 1_555 1_555
N5 O3 1_555 1_555
N6 O5 1_555 1_555
N6 O6 1_555 1_555
C2B N1B 1_555 1_555
C6B C7B 1_555 1_555
C7B N2B 1_555 1_555
C8B C10B 1_555 1_555
C8B N2B 1_555 1_555
C12B N3B 1_555 1_555
C16B C17B 1_555 1_555
C17B N4B 1_555 1_555
C18B C20B 1_555 1_555
C18B N4B 1_555 1_555
N5B O2B 1_555 1_555
N5B O3B 1_555 1_555
N6B O5B 1_555 1_555
N6B O6B 1_555 1_555

#END
