
#######################################################################
#
#                 Cambridge Crystallographic Data Centre
#                                CCDC 
#
#######################################################################
#
# If this CIF has been generated from an entry in the Cambridge 
# Structural Database, then it will include bibliographic, chemical, 
# crystal, experimental, refinement or atomic coordinate data resulting 
# from the CCDC's data processing and validation procedures.
#
#######################################################################

data_DAKKOR
_symmetry_cell_setting           monoclinic
_symmetry_space_group_name_H-M   'P 21/n'
_symmetry_Int_Tables_number      14
_space_group_name_Hall           '-P 2yn'
loop_
_symmetry_equiv_pos_site_id
_symmetry_equiv_pos_as_xyz
1 x,y,z
2 1/2-x,1/2+y,1/2-z
3 -x,-y,-z
4 1/2+x,1/2-y,1/2+z
_cell_length_a                   12.948(3)
_cell_length_b                   13.681(3)
_cell_length_c                   16.034(3)
_cell_angle_alpha                90
_cell_angle_beta                 97.63(3)
_cell_angle_gamma                90
_cell_volume                     2815.14
loop_
_atom_site_label
_atom_site_type_symbol
_atom_site_fract_x
_atom_site_fract_y
_atom_site_fract_z
Co1 Co 0.31967(5) 0.66757(4) 0.20549(4)
C1 C 0.1764(4) 0.8212(3) 0.1258(3)
C2 C 0.1032(4) 0.7554(3) 0.2263(3)
C3 C 0.0800(5) 0.7017(5) 0.2952(4)
C4 C -0.0155(6) 0.7173(6) 0.3194(5)
H1 H -0.0337 0.6829 0.3654
C5 C -0.0879(6) 0.7838(6) 0.2775(5)
H2 H -0.1520 0.7924 0.2968
C6 C -0.0660(4) 0.8357(4) 0.2092(4)
H3 H -0.1133 0.8796 0.1812
C7 C 0.0311(4) 0.8192(3) 0.1839(3)
C8 C 0.0384(4) 0.9322(3) 0.0587(3)
C9 C 0.0970(4) 1.0137(3) 0.0457(3)
C10 C -0.0582(4) 0.9174(3) 0.0128(3)
C11 C 0.4030(4) 0.8092(3) 0.3396(3)
C12 C 0.5184(4) 0.6976(3) 0.3298(3)
C13 C 0.5736(4) 0.6169(4) 0.3082(3)
C14 C 0.6749(4) 0.6077(4) 0.3462(3)
H4 H 0.7145 0.5548 0.3326
C15 C 0.7192(4) 0.6762(4) 0.4045(4)
C16 C 0.6659(4) 0.7568(4) 0.4268(3)
C17 C 0.5630(4) 0.7649(3) 0.3888(3)
C18 C 0.4937(4) 0.9198(3) 0.4486(3)
C19 C 0.5337(5) 0.9100(4) 0.5316(3)
C20 C 0.4604(4) 1.0093(4) 0.4153(3)
Cl1 Cl 0.27438(12) 0.51610(9) 0.23926(9)
Cl2 Cl 0.39086(12) 0.67986(11) 0.08512(9)
H13 H 0.224(4) 0.840(3) 0.087(3)
H14 H 0.133(5) 0.653(5) 0.322(4)
H15 H 0.159(4) 1.030(4) 0.078(3)
H16 H -0.094(3) 0.861(3) 0.021(3)
H17 H 0.342(3) 0.843(3) 0.336(3)
H18 H 0.539(4) 0.573(4) 0.271(3)
H19 H 0.784(6) 0.665(5) 0.426(4)
H20 H 0.691(4) 0.806(4) 0.467(4)
H21 H 0.551(4) 0.849(4) 0.545(3)
H22 H 0.434(4) 1.020(4) 0.355(3)
N1 N 0.1939(3) 0.7567(3) 0.1876(2)
N2 N 0.0794(3) 0.8611(3) 0.1197(2)
N3 N 0.4167(3) 0.7281(3) 0.2997(2)
N4 N 0.4870(3) 0.8361(3) 0.3941(2)
Co1B Co -0.31967(5) 1.33243(4) -0.20549(4)
Co1B_2 Co 0.68033(5) 1.33243(4) 0.79451(4)
C1B C -0.1764(4) 1.1788(3) -0.1258(3)
C2B C -0.1032(4) 1.2446(3) -0.2263(3)
C3B C -0.0800(5) 1.2983(5) -0.2952(4)
C4B C 0.0155(6) 1.2827(6) -0.3194(5)
H1B H 0.0337 1.3171 -0.3654
C5B C 0.0879(6) 1.2162(6) -0.2775(5)
H2B H 0.1520 1.2076 -0.2968
C6B C 0.0660(4) 1.1643(4) -0.2092(4)
H3B H 0.1133 1.1204 -0.1812
C7B C -0.0311(4) 1.1808(3) -0.1839(3)
C8B C -0.0384(4) 1.0678(3) -0.0587(3)
C9B C -0.0970(4) 0.9863(3) -0.0457(3)
C10B C 0.0582(4) 1.0826(3) -0.0128(3)
C11B C 0.5970(4) 1.1908(3) 0.6604(3)
C12B C 0.4816(4) 1.3024(3) 0.6702(3)
C13B C 0.4264(4) 1.3831(4) 0.6918(3)
C14B C 0.3251(4) 1.3923(4) 0.6538(3)
H4B H 0.2855 1.4452 0.6674
C15B C 0.2808(4) 1.3238(4) 0.5955(4)
C16B C 0.3341(4) 1.2432(4) 0.5732(3)
C17B C 0.4370(4) 1.2351(3) 0.6112(3)
C18B C 0.5063(4) 1.0802(3) 0.5514(3)
C19B C 0.4663(5) 1.0900(4) 0.4684(3)
C20B C 0.5396(4) 0.9907(4) 0.5847(3)
Cl1B Cl -0.27438(12) 1.48390(9) -0.23926(9)
Cl2B Cl -0.39086(12) 1.32014(11) -0.08512(9)
H13B H -0.224(4) 1.160(3) -0.087(3)
H14B H -0.133(5) 1.347(5) -0.322(4)
H15B H -0.159(4) 0.970(4) -0.078(3)
H16B H 0.094(3) 1.139(3) -0.021(3)
H17B H 0.658(3) 1.157(3) 0.664(3)
H18B H 0.461(4) 1.427(4) 0.729(3)
H19B H 0.216(6) 1.335(5) 0.574(4)
H20B H 0.309(4) 1.194(4) 0.533(4)
H21B H 0.449(4) 1.151(4) 0.455(3)
H22B H 0.566(4) 0.980(4) 0.645(3)
N1B N -0.1939(3) 1.2433(3) -0.1876(2)
N2B N -0.0794(3) 1.1389(3) -0.1197(2)
N3B N 0.5833(3) 1.2719(3) 0.7003(2)
N3B_2 N -0.4167(3) 1.2719(3) -0.2997(2)
N4B N 0.5130(3) 1.1639(3) 0.6059(2)
C21 C 0.9442(6) 0.3767(6) 0.3652(5)
H5 H 0.9651 0.3081 0.3727
Cl3 Cl 0.8540(3) 0.3845(4) 0.2772(2)
Cl4 Cl 0.8858(3) 0.4114(4) 0.4514(2)
Cl5 Cl 1.0531(3) 0.4438(2) 0.3522(3)
C22 C 0.2762(10) 0.8463(9) 0.5578(14)
H6 H 0.3165 0.8488 0.6103
C23 C 0.1316(12) 0.8959(10) 0.4605(7)
H7 H 0.1557 0.8457 0.4259
H8 H 0.1332 0.9579 0.4325
H9 H 0.0616 0.8817 0.4701
C24 C 0.1676(10) 0.9746(9) 0.5966(8)
H10 H 0.2136 0.9757 0.6487
H11 H 0.0980 0.9609 0.6075
H12 H 0.1691 1.0370 0.5693
N5 N 0.2008(6) 0.8999(5) 0.5429(5)
O1 O 0.3020(6) 0.7838(6) 0.4998(6)
loop_
_geom_bond_atom_site_label_1
_geom_bond_atom_site_label_2
_geom_bond_site_symmetry_1
_geom_bond_site_symmetry_2
Co1 Cl1 1_555 1_555
C1 H13 1_555 1_555
C2 C3 1_555 1_555
C3 C4 1_555 1_555
C4 H1 1_555 1_555
C5 C4 1_555 1_555
H2 C5 1_555 1_555
C6 C5 1_555 1_555
H3 C6 1_555 1_555
C7 C2 1_555 1_555
C8 C9 1_555 1_555
C9 H15 1_555 1_555
C10 C8 1_555 1_555
C11 H17 1_555 1_555
C12 C13 1_555 1_555
C13 C14 1_555 1_555
C14 H4 1_555 1_555
C15 C14 1_555 1_555
C16 C15 1_555 1_555
C17 C12 1_555 1_555
C18 C19 1_555 1_555
C19 H21 1_555 1_555
C20 C18 1_555 1_555
C21 H5 1_555 1_555
C22 H6 1_555 1_555
C23 H7 1_555 1_555
H8 C23 1_555 1_555
H9 C23 1_555 1_555
C24 H10 1_555 1_555
H11 C24 1_555 1_555
H12 C24 1_555 1_555
Cl2 Co1 1_555 1_555
Cl3 C21 1_555 1_555
Cl4 C21 1_555 1_555
Cl5 C21 1_555 1_555
H14 C3 1_555 1_555
H16 C10 1_555 1_555
H18 C13 1_555 1_555
H19 C15 1_555 1_555
H20 C16 1_555 1_555
H22 C20 1_555 1_555
N1 Co1 1_555 1_555
N2 C1 1_555 1_555
N3 Co1 1_555 1_555
N4 C11 1_555 1_555
N5 C22 1_555 1_555
O1 C22 1_555 1_555
Co1B Cl1B 1_555 1_555
Co1B_2 N3B 1_555 1_555
C1B H13B 1_555 1_555
C2B C3B 1_555 1_555
C3B C4B 1_555 1_555
C4B H1B 1_555 1_555
C5B C4B 1_555 1_555
H2B C5B 1_555 1_555
C6B C5B 1_555 1_555
H3B C6B 1_555 1_555
C7B C2B 1_555 1_555
C8B C9B 1_555 1_555
C9B C10 1_555 1_555
C10B C9 1_555 1_555
C11B H17B 1_555 1_555
C12B C13B 1_555 1_555
C13B C14B 1_555 1_555
C14B H4B 1_555 1_555
C15B C14B 1_555 1_555
C16B C15B 1_555 1_555
C17B C12B 1_555 1_555
C18B C19B 1_555 1_555
C19B C20 1_555 1_555
C20B C19 1_555 1_555
Cl2B Co1B 1_555 1_555
H14B C3B 1_555 1_555
H15B C9B 1_555 1_555
H16B C10B 1_555 1_555
H18B C13B 1_555 1_555
H19B C15B 1_555 1_555
H20B C16B 1_555 1_555
H21B C19B 1_555 1_555
H22B C20B 1_555 1_555
N1B Co1B 1_555 1_555
N2B C1B 1_555 1_555
N3B C11B 1_555 1_555
N3B_2 Co1B 1_555 1_555
N4B C11B 1_555 1_555
C1 N1 1_555 1_555
C2 N1 1_555 1_555
C6 C7 1_555 1_555
C7 N2 1_555 1_555
C8 N2 1_555 1_555
C11 N3 1_555 1_555
C12 N3 1_555 1_555
C16 C17 1_555 1_555
C17 N4 1_555 1_555
C18 N4 1_555 1_555
C23 N5 1_555 1_555
C24 N5 1_555 1_555
C1B N1B 1_555 1_555
C2B N1B 1_555 1_555
C6B C7B 1_555 1_555
C7B N2B 1_555 1_555
C8B C10B 1_555 1_555
C8B N2B 1_555 1_555
C12B N3B 1_555 1_555
C16B C17B 1_555 1_555
C17B N4B 1_555 1_555
C18B C20B 1_555 1_555
C18B N4B 1_555 1_555

#END
