
#######################################################################
#
#                 Cambridge Crystallographic Data Centre
#                                CCDC 
#
#######################################################################
#
# If this CIF has been generated from an entry in the Cambridge 
# Structural Database, then it will include bibliographic, chemical, 
# crystal, experimental, refinement or atomic coordinate data resulting 
# from the CCDC's data processing and validation procedures.
#
#######################################################################

data_DAKLIM
_symmetry_cell_setting           triclinic
_symmetry_space_group_name_H-M   'P -1'
_symmetry_Int_Tables_number      2
_space_group_name_Hall           '-P 1'
loop_
_symmetry_equiv_pos_site_id
_symmetry_equiv_pos_as_xyz
1 x,y,z
2 -x,-y,-z
_cell_length_a                   8.82050(10)
_cell_length_b                   8.99550(10)
_cell_length_c                   11.5582(2)
_cell_angle_alpha                74.7460(10)
_cell_angle_beta                 87.9420(10)
_cell_angle_gamma                84.1910(10)
_cell_volume                     880.189
loop_
_atom_site_label
_atom_site_type_symbol
_atom_site_fract_x
_atom_site_fract_y
_atom_site_fract_z
Hg1 Hg 0.783743(19) 0.47555(2) 0.333482(16)
I1 I 0.62544(4) 0.71341(4) 0.39144(3)
I2 I 1.06542(3) 0.48349(4) 0.22841(4)
N1 N 0.6374(4) 0.3870(4) 0.2051(3)
N2 N 0.5709(4) 0.3050(4) 0.0533(3)
N3 N 0.8985(4) 0.0526(4) -0.3773(3)
C1 C 0.7404(5) 0.1050(5) -0.5248(4)
H1 H 0.6670 0.0962 -0.5778
C2 C 0.6776(4) 0.3692(5) 0.0988(4)
H2 H 0.7685 0.3974 0.0599
C3 C 0.4975(5) 0.3324(6) 0.2283(4)
H3 H 0.4399 0.3303 0.2976
C4 C 0.4559(5) 0.2822(6) 0.1355(4)
H4 H 0.3656 0.2400 0.1288
C5 C 0.8165(5) -0.1248(5) 0.0499(4)
H5 H 0.8302 -0.2049 0.1194
C6 C 0.5821(5) 0.2615(5) -0.0601(4)
H6 H 0.6151 0.3473 -0.1227
H7 H 0.4820 0.2416 -0.0812
C7 C 0.6922(4) 0.1196(5) -0.0542(4)
C8 C 0.7737(4) 0.1099(5) -0.1563(4)
H8 H 0.7582 0.1889 -0.2263
C9 C 0.8784(4) -0.0160(5) -0.1560(4)
C10 C 0.8987(5) -0.1339(5) -0.0515(4)
H9 H 0.9682 -0.2193 -0.0501
C11 C 0.7135(5) 0.0018(5) 0.0501(4)
H10 H 0.6593 0.0077 0.1194
C12 C 0.9770(5) -0.0225(6) -0.2656(4)
H11 H 1.0687 0.0274 -0.2626
H12 H 1.0073 -0.1298 -0.2636
C13 C 0.7930(5) -0.0079(6) -0.4311(4)
H13 H 0.7637 -0.1079 -0.4071
N4 N 0.8105(4) 0.2356(4) -0.5312(3)
C14 C 0.9050(5) 0.1994(5) -0.4402(4)
H14 H 0.9678 0.2671 -0.4222
Hg1_2 Hg 0.783743(19) 0.47555(2) -0.666518(16)
N4_2 N 0.8105(4) 0.2356(4) 0.4688(3)
loop_
_geom_bond_atom_site_label_1
_geom_bond_atom_site_label_2
_geom_bond_site_symmetry_1
_geom_bond_site_symmetry_2
Hg1 I1 1_555 1_555
I2 Hg1 1_555 1_555
N1 Hg1 1_555 1_555
N2 C2 1_555 1_555
N3 C12 1_555 1_555
C1 H1 1_555 1_555
C2 N1 1_555 1_555
H2 C2 1_555 1_555
C3 N1 1_555 1_555
H3 C3 1_555 1_555
C4 N2 1_555 1_555
H4 C4 1_555 1_555
C5 H5 1_555 1_555
C6 N2 1_555 1_555
H6 C6 1_555 1_555
H7 C6 1_555 1_555
C7 C6 1_555 1_555
C8 C7 1_555 1_555
H8 C8 1_555 1_555
C9 C8 1_555 1_555
C10 C5 1_555 1_555
H9 C10 1_555 1_555
C11 C5 1_555 1_555
H10 C11 1_555 1_555
C12 C9 1_555 1_555
H11 C12 1_555 1_555
H12 C12 1_555 1_555
C13 N3 1_555 1_555
H13 C13 1_555 1_555
N4 C1 1_555 1_555
C14 N3 1_555 1_555
H14 C14 1_555 1_555
Hg1_2 N4 1_555 1_555
N4_2 Hg1 1_555 1_555
C1 C13 1_555 1_555
C3 C4 1_555 1_555
C7 C11 1_555 1_555
C9 C10 1_555 1_555
N4 C14 1_555 1_555

#END
