
#######################################################################
#
#                 Cambridge Crystallographic Data Centre
#                                CCDC 
#
#######################################################################
#
# If this CIF has been generated from an entry in the Cambridge 
# Structural Database, then it will include bibliographic, chemical, 
# crystal, experimental, refinement or atomic coordinate data resulting 
# from the CCDC's data processing and validation procedures.
#
#######################################################################

data_DAKLAE
_symmetry_cell_setting           monoclinic
_symmetry_space_group_name_H-M   'C 2/c'
_symmetry_Int_Tables_number      15
_space_group_name_Hall           '-C 2yn'
loop_
_symmetry_equiv_pos_site_id
_symmetry_equiv_pos_as_xyz
1 x,y,z
2 -x,y,1/2-z
3 1/2+x,1/2+y,z
4 1/2-x,1/2+y,1/2-z
5 -x,-y,-z
6 x,-y,1/2+z
7 1/2-x,1/2-y,-z
8 1/2+x,1/2-y,1/2+z
_cell_length_a                   24.7444(11)
_cell_length_b                   13.0461(6)
_cell_length_c                   27.9175(12)
_cell_angle_alpha                90
_cell_angle_beta                 97.1970(10)
_cell_angle_gamma                90
_cell_volume                     8941.26
loop_
_atom_site_label
_atom_site_type_symbol
_atom_site_fract_x
_atom_site_fract_y
_atom_site_fract_z
Co1 Co 1.08253(3) 0.21945(6) 0.19390(3)
Co2 Co 0.72590(3) 0.93438(6) 0.21535(2)
C1 C 1.0008(3) 0.3379(5) 0.1611(2)
C2 C 0.9672(2) 0.4199(5) 0.1345(2)
C3 C 0.9896(2) 0.4930(5) 0.1068(3)
H1 H 1.0269 0.4930 0.1054
C4 C 0.9577(2) 0.5646(5) 0.0817(3)
H2 H 0.9736 0.6122 0.0629
C5 C 0.9016(2) 0.5679(4) 0.0836(2)
C6 C 0.8791(2) 0.4941(5) 0.1113(2)
H3 H 0.8419 0.4942 0.1131
C7 C 0.9116(2) 0.4214(5) 0.1360(2)
H4 H 0.8959 0.3722 0.1540
C8 C 0.8623(2) 0.6425(4) 0.0543(2)
C9 C 0.8145(2) 0.6699(4) 0.0828(2)
C10 C 0.7600(2) 0.6585(5) 0.0641(2)
H5 H 0.7509 0.6379 0.0322
C11 C 0.7193(2) 0.6776(5) 0.0927(2)
H6 H 0.6831 0.6668 0.0802
C12 C 0.7316(2) 0.7122(5) 0.1394(2)
C13 C 0.7859(3) 0.7263(6) 0.1578(2)
H7 H 0.7947 0.7509 0.1891
C14 C 0.6862(3) 0.7339(5) 0.1686(2)
C15 C 0.8436(3) 0.5873(5) 0.0062(2)
C16 C 0.8890(3) 0.7439(5) 0.0423(3)
C17 C 0.7387(3) 0.8800(6) 0.3142(2)
C18 C 0.7753(2) 0.8734(5) 0.3606(2)
C19 C 0.7637(3) 0.8117(6) 0.3984(2)
H8 H 0.7314 0.7745 0.3956
C20 C 0.7996(3) 0.8049(5) 0.4400(2)
H9 H 0.7905 0.7643 0.4653
C21 C 0.8492(2) 0.8573(4) 0.44554(19)
C22 C 0.8601(3) 0.9198(5) 0.4080(2)
H10 H 0.8924 0.9570 0.4107
C23 C 0.8236(3) 0.9278(5) 0.3665(2)
H11 H 0.8318 0.9709 0.3419
C24 C 0.8885(2) 0.8428(4) 0.4924(2)
C25 C 0.8620(2) 0.8729(4) 0.53724(19)
C26 C 0.8212(3) 0.9453(5) 0.5332(2)
H12 H 0.8079 0.9706 0.5029
C27 C 0.7993(3) 0.9812(6) 0.5733(2)
H13 H 0.7714 1.0296 0.5695
C28 C 0.8183(3) 0.9461(6) 0.6186(2)
C29 C 0.8590(3) 0.8740(7) 0.6226(2)
H14 H 0.8721 0.8485 0.6530
C30 C 0.8810(3) 0.8386(6) 0.5829(2)
H15 H 0.9091 0.7908 0.5869
C31 C 0.7947(5) 0.9850(11) 0.6615(4)
C32 C 0.9401(3) 0.9093(6) 0.4932(2)
C33 C 0.9071(3) 0.7300(6) 0.4941(3)
C34 C 1.0856(3) 0.0032(5) 0.2203(2)
H16 H 1.1166 0.0256 0.2397
C35 C 1.0755(3) -0.1010(6) 0.2180(3)
H17 H 1.0988 -0.1467 0.2359
C36 C 1.0308(3) -0.1353(5) 0.1889(3)
C37 C 0.9966(3) -0.0634(6) 0.1647(4)
H18 H 0.9652 -0.0842 0.1454
C38 C 1.0093(3) 0.0385(6) 0.1692(3)
H19 H 0.9859 0.0857 0.1525
C39 C 1.0730(3) -0.3348(6) 0.1960(3)
C40 C 1.0754(4) -0.4110(7) 0.2284(5)
H20 H 1.0464 -0.4224 0.2459
C41 C 1.1212(4) -0.4727(7) 0.2356(3)
H21 H 1.1223 -0.5242 0.2587
C42 C 1.1590(4) -0.3859(6) 0.1801(3)
H22 H 1.1879 -0.3757 0.1624
C43 C 1.1150(5) -0.3205(9) 0.1720(4)
H23 H 1.1150 -0.2671 0.1500
C44 C 0.8266(3) 0.7042(5) 0.1302(2)
H24 H 0.8628 0.7122 0.1433
F1 F 0.81288(15) 0.5065(3) 0.01333(13)
F2 F 0.81381(17) 0.6473(3) -0.02584(13)
F3 F 0.88516(17) 0.5529(3) -0.01475(14)
F4 F 0.85234(17) 0.8127(3) 0.02453(17)
F5 F 0.91702(18) 0.7862(3) 0.08138(18)
F6 F 0.92425(18) 0.7348(3) 0.00987(17)
F7 F 0.9184(2) 0.6977(4) 0.45126(18)
F8 F 0.8685(2) 0.6694(3) 0.50714(19)
F9 F 0.9517(2) 0.7110(4) 0.52495(18)
F10 F 0.97215(16) 0.9024(4) 0.53484(16)
F11 F 0.96984(16) 0.8865(4) 0.45854(16)
F12 F 0.92623(17) 1.0088(3) 0.48814(16)
N1 N 1.05392(17) 0.0732(3) 0.19645(16)
N2 N 1.1627(3) -0.4625(5) 0.2116(3)
O1 O 0.9803(2) 0.2746(4) 0.18644(19)
O2 O 1.05104(14) 0.3354(3) 0.15617(13)
O3 O 0.64376(18) 0.6802(4) 0.15908(18)
O4 O 0.6905(2) 0.8009(4) 0.20109(17)
O5 O 0.6913(2) 0.8482(5) 0.31139(17)
O6 O 0.7610(2) 0.9187(5) 0.27939(17)
O7 O 0.8095(3) 0.9498(7) 0.7016(2)
O8 O 0.7533(3) 1.0330(7) 0.6557(2)
O9 O 1.10166(14) 0.2555(3) 0.26171(13)
S1 S 1.01112(10) -0.26439(17) 0.18171(13)
H25 H 1.1347(11) 0.270(4) 0.276(2)
H26 H 1.0805(17) 0.305(3) 0.266(2)
Co1B Co 0.58253(3) 0.71945(6) 0.19390(3)
Co2B Co 1.22590(3) -0.56562(6) 0.21535(2)
Co2E Co 0.72590(3) 1.06562(6) 0.71535(2)
N2B N 0.6627(3) 1.0375(5) 0.2116(3)
O3B O 1.14376(18) 0.1802(4) 0.15908(18)
O8E O 0.7533(3) 0.9670(7) 0.1557(2)
loop_
_geom_bond_atom_site_label_1
_geom_bond_atom_site_label_2
_geom_bond_site_symmetry_1
_geom_bond_site_symmetry_2
Co1 N1 1_555 1_555
Co2 O4 1_555 1_555
C1 C2 1_555 1_555
C2 C3 1_555 1_555
C3 H1 1_555 1_555
C4 C3 1_555 1_555
H2 C4 1_555 1_555
C5 C4 1_555 1_555
C6 C5 1_555 1_555
H3 C6 1_555 1_555
C7 C2 1_555 1_555
H4 C7 1_555 1_555
C8 C5 1_555 1_555
C9 C8 1_555 1_555
C10 C9 1_555 1_555
H5 C10 1_555 1_555
C11 C10 1_555 1_555
H6 C11 1_555 1_555
C12 C11 1_555 1_555
C13 C12 1_555 1_555
H7 C13 1_555 1_555
C14 C12 1_555 1_555
C15 C8 1_555 1_555
C16 C8 1_555 1_555
C17 C18 1_555 1_555
C18 C19 1_555 1_555
C19 H8 1_555 1_555
C20 C19 1_555 1_555
H9 C20 1_555 1_555
C21 C20 1_555 1_555
C22 C21 1_555 1_555
H10 C22 1_555 1_555
C23 C18 1_555 1_555
H11 C23 1_555 1_555
C24 C21 1_555 1_555
C25 C24 1_555 1_555
C26 C25 1_555 1_555
H12 C26 1_555 1_555
C27 C26 1_555 1_555
H13 C27 1_555 1_555
C28 C27 1_555 1_555
C29 C28 1_555 1_555
H14 C29 1_555 1_555
C30 C25 1_555 1_555
H15 C30 1_555 1_555
C31 C28 1_555 1_555
C32 C24 1_555 1_555
C33 C24 1_555 1_555
C34 H16 1_555 1_555
C35 C34 1_555 1_555
H17 C35 1_555 1_555
C36 C35 1_555 1_555
C37 C36 1_555 1_555
H18 C37 1_555 1_555
C38 C37 1_555 1_555
H19 C38 1_555 1_555
C39 C40 1_555 1_555
C40 H20 1_555 1_555
C41 C40 1_555 1_555
H21 C41 1_555 1_555
C42 H22 1_555 1_555
C43 C39 1_555 1_555
H23 C43 1_555 1_555
C44 C9 1_555 1_555
H24 C44 1_555 1_555
F1 C15 1_555 1_555
F2 C15 1_555 1_555
F3 C15 1_555 1_555
F4 C16 1_555 1_555
F5 C16 1_555 1_555
F6 C16 1_555 1_555
F7 C33 1_555 1_555
F8 C33 1_555 1_555
F9 C33 1_555 1_555
F10 C32 1_555 1_555
F11 C32 1_555 1_555
F12 C32 1_555 1_555
N1 C34 1_555 1_555
N2 C41 1_555 1_555
O1 C1 1_555 1_555
O2 Co1 1_555 1_555
O3 C14 1_555 1_555
O4 C14 1_555 1_555
O5 C17 1_555 1_555
O6 Co2 1_555 1_555
O7 C31 1_555 1_555
O8 C31 1_555 1_555
O9 Co1 1_555 1_555
S1 C36 1_555 1_555
H25 O9 1_555 1_555
H26 O9 1_555 1_555
Co1B O3 1_555 1_555
Co2B N2 1_555 1_555
Co2E O8 1_555 1_555
N2B Co2 1_555 1_555
O3B Co1 1_555 1_555
O8E Co2 1_555 1_555
C1 O2 1_555 1_555
C6 C7 1_555 1_555
C13 C44 1_555 1_555
C17 O6 1_555 1_555
C22 C23 1_555 1_555
C29 C30 1_555 1_555
C38 N1 1_555 1_555
C39 S1 1_555 1_555
C42 C43 1_555 1_555
C42 N2 1_555 1_555

#END
