
#######################################################################
#
#                 Cambridge Crystallographic Data Centre
#                                CCDC 
#
#######################################################################
#
# If this CIF has been generated from an entry in the Cambridge 
# Structural Database, then it will include bibliographic, chemical, 
# crystal, experimental, refinement or atomic coordinate data resulting 
# from the CCDC's data processing and validation procedures.
#
#######################################################################

data_DAKLOS
_symmetry_cell_setting           triclinic
_symmetry_space_group_name_H-M   'P -1'
_symmetry_Int_Tables_number      2
_space_group_name_Hall           '-P 1'
loop_
_symmetry_equiv_pos_site_id
_symmetry_equiv_pos_as_xyz
1 x,y,z
2 -x,-y,-z
_cell_length_a                   7.4270(15)
_cell_length_b                   9.2199(18)
_cell_length_c                   11.543(2)
_cell_angle_alpha                74.06(3)
_cell_angle_beta                 71.83(3)
_cell_angle_gamma                79.94(3)
_cell_volume                     718.693
loop_
_atom_site_label
_atom_site_type_symbol
_atom_site_fract_x
_atom_site_fract_y
_atom_site_fract_z
C1 C 0.1605(7) 0.2598(6) 0.3624(5)
C2 C 0.2100(7) 0.1022(6) 0.4320(5)
C3 C 0.2358(7) 0.0752(6) 0.5502(5)
H1 H 0.2164 0.1539 0.5900
C4 C 0.2908(7) -0.0706(6) 0.6077(5)
C5 C 0.3215(7) -0.1915(6) 0.5517(5)
H2 H 0.3641 -0.2878 0.5911
C6 C 0.2875(7) -0.1660(5) 0.4356(5)
C7 C 0.2304(7) -0.0191(6) 0.3772(5)
H3 H 0.2056 -0.0017 0.3001
C8 C 0.3129(7) -0.2910(5) 0.3704(4)
C9 C -0.1060(7) 0.5055(5) 0.0381(4)
Ho1 Ho 0.10561(3) 0.55412(2) 0.220974(19)
N1 N 0.3228(7) -0.0964(5) 0.7318(4)
O1 O 0.1671(5) 0.3716(4) 0.4043(3)
O2 O 0.1166(5) 0.2809(4) 0.2615(3)
O3 O 0.1821(5) -0.2891(4) 0.3206(3)
O4 O 0.4544(5) -0.3857(4) 0.3672(4)
O5 O 0.3734(9) -0.2252(5) 0.7817(4)
O6 O 0.3031(8) 0.0115(5) 0.7772(4)
O7 O -0.1449(5) 0.5330(4) 0.1431(3)
O8 O -0.2217(5) 0.4862(4) -0.0152(3)
O9 O -0.1788(5) 0.5780(4) 0.3758(3)
H4 H -0.1796 0.5799 0.4477
H5 H -0.2911 0.5982 0.3724
O10 O 0.4339(5) 0.5367(5) 0.1635(4)
H6 H 0.4826 0.5567 0.2118
H7 H 0.5160 0.5094 0.1043
O11 O 0.0636(6) 0.8001(4) 0.1007(4)
H8 H 0.0005 0.8182 0.0492
H9 H 0.0804 0.8819 0.1108
C1A C -0.1605(7) 0.7402(6) -0.3624(5)
C2A C -0.2100(7) 0.8978(6) -0.4320(5)
C3A C -0.2358(7) 0.9248(6) -0.5502(5)
H1A H -0.2164 0.8461 -0.5900
C4A C -0.2908(7) 1.0706(6) -0.6077(5)
C5A C -0.3215(7) 1.1915(6) -0.5517(5)
H2A H -0.3641 1.2878 -0.5911
C6A C -0.2875(7) 1.1660(5) -0.4356(5)
C7A C -0.2304(7) 1.0191(6) -0.3772(5)
H3A H -0.2056 1.0017 -0.3001
C8A C -0.3129(7) 1.2910(5) -0.3704(4)
C9A C 0.1060(7) 0.4945(5) -0.0381(4)
Ho1A Ho -0.10561(3) 0.44588(2) -0.220974(19)
Ho1_2 Ho 0.10561(3) -0.44588(2) 0.220974(19)
Ho1A_2 Ho -0.10561(3) 1.44588(2) -0.220974(19)
N1A N -0.3228(7) 1.0964(5) -0.7318(4)
O1A O -0.1671(5) 0.6284(4) -0.4043(3)
O2A O -0.1166(5) 0.7191(4) -0.2615(3)
O3A O -0.1821(5) 1.2891(4) -0.3206(3)
O3_2 O 0.1821(5) 0.7109(4) 0.3206(3)
O3A_2 O -0.1821(5) 0.2891(4) -0.3206(3)
O4A O -0.4544(5) 1.3857(4) -0.3672(4)
O5A O -0.3734(9) 1.2252(5) -0.7817(4)
O6A O -0.3031(8) 0.9885(5) -0.7772(4)
O7A O 0.1449(5) 0.4670(4) -0.1431(3)
O8A O 0.2217(5) 0.5138(4) 0.0152(3)
O9A O 0.1788(5) 0.4220(4) -0.3758(3)
H4A H 0.1796 0.4201 -0.4477
H5A H 0.2911 0.4018 -0.3724
O10A O -0.4339(5) 0.4633(5) -0.1635(4)
H6A H -0.4826 0.4433 -0.2118
H7A H -0.5160 0.4906 -0.1043
O11A O -0.0636(6) 0.1999(4) -0.1007(4)
H8A H -0.0005 0.1818 -0.0492
H9A H -0.0804 0.1181 -0.1108
O12 O 0.1207(7) 0.1153(5) 0.0851(4)
H10 H 0.0900 0.1759 0.1339
H11 H 0.2407 0.1107 0.0543
O13 O 0.5055(15) 0.8590(13) 0.0008(11)
H12 H 0.4364 0.7892 0.0116
H13 H 0.5376 0.8427 0.0663
loop_
_geom_bond_atom_site_label_1
_geom_bond_atom_site_label_2
_geom_bond_site_symmetry_1
_geom_bond_site_symmetry_2
C1 C2 1_555 1_555
C2 C3 1_555 1_555
C3 H1 1_555 1_555
C4 C3 1_555 1_555
C5 C4 1_555 1_555
H2 C5 1_555 1_555
C6 C5 1_555 1_555
C7 C2 1_555 1_555
H3 C7 1_555 1_555
C8 C6 1_555 1_555
C9 O7 1_555 1_555
Ho1 O1 1_555 1_555
N1 C4 1_555 1_555
O1 C1 1_555 1_555
O2 C1 1_555 1_555
O3 C8 1_555 1_555
O4 C8 1_555 1_555
O5 N1 1_555 1_555
O6 N1 1_555 1_555
O7 Ho1 1_555 1_555
O8 C9 1_555 1_555
O9 Ho1 1_555 1_555
H4 O9 1_555 1_555
H5 O9 1_555 1_555
O10 Ho1 1_555 1_555
H6 O10 1_555 1_555
H7 O10 1_555 1_555
O11 Ho1 1_555 1_555
H8 O11 1_555 1_555
H9 O11 1_555 1_555
O12 H10 1_555 1_555
H11 O12 1_555 1_555
O13 H12 1_555 1_555
H13 O13 1_555 1_555
C1A C2A 1_555 1_555
C2A C3A 1_555 1_555
C3A H1A 1_555 1_555
C4A C3A 1_555 1_555
C5A C4A 1_555 1_555
H2A C5A 1_555 1_555
C6A C5A 1_555 1_555
C7A C2A 1_555 1_555
H3A C7A 1_555 1_555
C8A C6A 1_555 1_555
C9A C9 1_555 1_555
Ho1A O8 1_555 1_555
Ho1_2 O3 1_555 1_555
Ho1A_2 O3A 1_555 1_555
N1A C4A 1_555 1_555
O1A C1A 1_555 1_555
O2A C1A 1_555 1_555
O3A C8A 1_555 1_555
O3_2 Ho1 1_555 1_555
O3A_2 Ho1A 1_555 1_555
O4A C8A 1_555 1_555
O5A N1A 1_555 1_555
O6A N1A 1_555 1_555
O7A C9A 1_555 1_555
O8A Ho1 1_555 1_555
O9A Ho1A 1_555 1_555
H4A O9A 1_555 1_555
H5A O9A 1_555 1_555
O10A Ho1A 1_555 1_555
H6A O10A 1_555 1_555
H7A O10A 1_555 1_555
O11A Ho1A 1_555 1_555
H8A O11A 1_555 1_555
H9A O11A 1_555 1_555
C6 C7 1_555 1_555
Ho1 O2 1_555 1_555
C6A C7A 1_555 1_555
C9A O8A 1_555 1_555
Ho1A O1A 1_555 1_555
Ho1A O2A 1_555 1_555
Ho1A O7A 1_555 1_555

#END
