
#######################################################################
#
#                 Cambridge Crystallographic Data Centre
#                                CCDC 
#
#######################################################################
#
# If this CIF has been generated from an entry in the Cambridge 
# Structural Database, then it will include bibliographic, chemical, 
# crystal, experimental, refinement or atomic coordinate data resulting 
# from the CCDC's data processing and validation procedures.
#
#######################################################################

data_DAKMOT
_symmetry_cell_setting           monoclinic
_symmetry_space_group_name_H-M   'P 21/c'
_symmetry_Int_Tables_number      14
_space_group_name_Hall           '-P 2ybc'
loop_
_symmetry_equiv_pos_site_id
_symmetry_equiv_pos_as_xyz
1 x,y,z
2 -x,1/2+y,1/2-z
3 -x,-y,-z
4 x,1/2-y,1/2+z
_cell_length_a                   18.032(5)
_cell_length_b                   10.825(5)
_cell_length_c                   16.346(5)
_cell_angle_alpha                90
_cell_angle_beta                 98.608(5)
_cell_angle_gamma                90
_cell_volume                     3154.74
loop_
_atom_site_label
_atom_site_type_symbol
_atom_site_fract_x
_atom_site_fract_y
_atom_site_fract_z
Zn1 Zn 0.21648(4) 0.10053(7) 0.07817(5)
N1 N 0.2369(3) 0.2441(4) 0.1821(3)
N2 N 0.2817(3) 0.0030(4) 0.1939(3)
O1 O 0.2051(2) -0.0610(4) 0.0040(3)
O2 O 0.3455(3) -0.5521(4) 0.0479(3)
O3 O 0.1504(2) -0.2349(4) -0.0398(3)
N3 N -0.0210(3) 0.1037(4) 0.0814(3)
H1 H -0.0629 0.1374 0.0609
O4 O 0.3963(2) -0.7755(4) -0.0475(2)
N4 N 0.2942(3) 0.2908(4) 0.3094(3)
H2 H 0.3203 0.2814 0.3575
C1 C 0.2596(3) 0.3971(5) 0.2784(3)
O5 O 0.3050(2) -0.8486(4) 0.0122(2)
N5 N 0.1357(3) 0.2345(5) -0.0047(3)
C2 C 0.2818(3) -0.2389(5) 0.0039(3)
C3 C 0.2238(3) 0.3669(5) 0.1974(4)
C4 C 0.3652(3) -0.7909(5) 0.0127(3)
N6 N 0.1018(3) 0.0670(4) 0.1068(3)
C5 C 0.2823(3) -0.3655(5) 0.0165(3)
H3 H 0.2376 -0.4100 0.0100
C6 C -0.0122(3) 0.0095(5) 0.1370(3)
C7 C 0.3020(3) -0.1156(5) 0.1998(4)
H4 H 0.2843 -0.1677 0.1559
C8 C 0.3898(3) -0.6139(5) 0.1111(4)
C9 C 0.3999(3) -0.7383(5) 0.0951(3)
C10 C 0.2065(3) -0.1722(5) -0.0116(3)
C11 C 0.3506(3) -0.4247(5) 0.0388(3)
C12 C 0.4400(3) -0.8091(6) 0.1585(4)
H5 H 0.4480 -0.8926 0.1494
C13 C 0.0479(3) 0.1357(5) 0.0636(3)
C14 C 0.3514(4) 0.0328(6) 0.3281(4)
H6 H 0.3668 0.0858 0.3722
C15 C 0.2793(3) 0.2032(5) 0.2496(3)
C16 C 0.3059(3) 0.0743(5) 0.2581(3)
C17 C 0.0665(3) -0.0118(5) 0.1532(3)
C18 C 0.3479(4) -0.1661(6) 0.2674(4)
H7 H 0.3606 -0.2494 0.2691
C19 C 0.0126(4) 0.3123(6) -0.0325(4)
H8 H -0.0369 0.3081 -0.0228
C20 C 0.0955(4) -0.1031(5) 0.2085(4)
H9 H 0.1467 -0.1184 0.2201
C21 C 0.1829(3) 0.4579(5) 0.1488(4)
H10 H 0.1591 0.4413 0.0954
C22 C 0.3483(3) -0.1727(5) 0.0128(3)
H11 H 0.3478 -0.0874 0.0060
C23 C -0.0613(4) -0.0599(6) 0.1762(4)
H12 H -0.1128 -0.0460 0.1655
C24 C 0.0648(3) 0.2305(5) 0.0068(4)
C25 C 0.2560(4) 0.5145(6) 0.3109(4)
H13 H 0.2804 0.5334 0.3636
C26 C 0.1085(4) 0.4052(7) -0.0977(5)
H14 H 0.1250 0.4643 -0.1321
C27 C 0.1562(4) 0.3203(6) -0.0566(4)
H15 H 0.2060 0.3218 -0.0650
C28 C 0.4164(3) -0.3619(6) 0.0469(4)
H16 H 0.4615 -0.4032 0.0621
C29 C 0.3735(4) -0.0889(6) 0.3312(4)
H17 H 0.4058 -0.1184 0.3767
C30 C 0.4164(4) -0.5635(6) 0.1875(4)
H18 H 0.4080 -0.4806 0.1978
C31 C 0.4160(3) -0.2363(6) 0.0323(4)
H19 H 0.4611 -0.1937 0.0354
C32 C 0.2161(4) 0.6004(6) 0.2640(4)
H20 H 0.2124 0.6797 0.2849
C33 C 0.1797(4) 0.5725(6) 0.1839(4)
H21 H 0.1524 0.6343 0.1534
C34 C 0.4551(4) -0.6364(7) 0.2482(4)
H22 H 0.4729 -0.6028 0.2998
C35 C -0.0325(4) -0.1484(7) 0.2303(5)
H23 H -0.0646 -0.1949 0.2575
C36 C 0.4675(4) -0.7584(7) 0.2329(4)
H24 H 0.4950 -0.8069 0.2736
C37 C 0.0438(4) -0.1709(7) 0.2458(5)
H25 H 0.0613 -0.2336 0.2826
C38 C 0.0327(5) 0.3987(7) -0.0852(5)
H26 H -0.0028 0.4526 -0.1127
Zn1_2 Zn 0.21648(4) -0.89947(7) 0.07817(5)
O5_2 O 0.3050(2) 0.1514(4) 0.0122(2)
loop_
_geom_bond_atom_site_label_1
_geom_bond_atom_site_label_2
_geom_bond_site_symmetry_1
_geom_bond_site_symmetry_2
Zn1 N1 1_555 1_555
N1 C3 1_555 1_555
N2 Zn1 1_555 1_555
O1 Zn1 1_555 1_555
O2 C8 1_555 1_555
O3 C10 1_555 1_555
N3 H1 1_555 1_555
O4 C4 1_555 1_555
N4 H2 1_555 1_555
C1 N4 1_555 1_555
O5 C4 1_555 1_555
N5 Zn1 1_555 1_555
C2 C5 1_555 1_555
C3 C1 1_555 1_555
C4 C9 1_555 1_555
N6 Zn1 1_555 1_555
C5 H3 1_555 1_555
C6 N3 1_555 1_555
C7 N2 1_555 1_555
H4 C7 1_555 1_555
C8 C9 1_555 1_555
C9 C12 1_555 1_555
C10 O1 1_555 1_555
C11 O2 1_555 1_555
C12 H5 1_555 1_555
C13 N3 1_555 1_555
C14 H6 1_555 1_555
C15 N1 1_555 1_555
C16 N2 1_555 1_555
C17 N6 1_555 1_555
C18 C7 1_555 1_555
H7 C18 1_555 1_555
C19 H8 1_555 1_555
C20 C17 1_555 1_555
H9 C20 1_555 1_555
C21 C3 1_555 1_555
H10 C21 1_555 1_555
C22 C2 1_555 1_555
H11 C22 1_555 1_555
C23 C6 1_555 1_555
H12 C23 1_555 1_555
C24 N5 1_555 1_555
C25 C1 1_555 1_555
H13 C25 1_555 1_555
C26 H14 1_555 1_555
C27 N5 1_555 1_555
H15 C27 1_555 1_555
C28 C11 1_555 1_555
H16 C28 1_555 1_555
C29 C14 1_555 1_555
H17 C29 1_555 1_555
C30 C8 1_555 1_555
H18 C30 1_555 1_555
C31 C22 1_555 1_555
H19 C31 1_555 1_555
C32 C25 1_555 1_555
H20 C32 1_555 1_555
C33 C21 1_555 1_555
H21 C33 1_555 1_555
C34 C30 1_555 1_555
H22 C34 1_555 1_555
C35 C23 1_555 1_555
H23 C35 1_555 1_555
C36 C12 1_555 1_555
H24 C36 1_555 1_555
C37 C20 1_555 1_555
H25 C37 1_555 1_555
C38 C19 1_555 1_555
H26 C38 1_555 1_555
Zn1_2 O5 1_555 1_555
O5_2 Zn1 1_555 1_555
N4 C15 1_555 1_555
C2 C10 1_555 1_555
N6 C13 1_555 1_555
C5 C11 1_555 1_555
C6 C17 1_555 1_555
C13 C24 1_555 1_555
C14 C16 1_555 1_555
C15 C16 1_555 1_555
C18 C29 1_555 1_555
C19 C24 1_555 1_555
C26 C27 1_555 1_555
C26 C38 1_555 1_555
C28 C31 1_555 1_555
C32 C33 1_555 1_555
C34 C36 1_555 1_555
C35 C37 1_555 1_555

#END
