
#######################################################################
#
#                 Cambridge Crystallographic Data Centre
#                                CCDC 
#
#######################################################################
#
# If this CIF has been generated from an entry in the Cambridge 
# Structural Database, then it will include bibliographic, chemical, 
# crystal, experimental, refinement or atomic coordinate data resulting 
# from the CCDC's data processing and validation procedures.
#
#######################################################################

data_DAKNAG
_symmetry_cell_setting           monoclinic
_symmetry_space_group_name_H-M   'P 21/n'
_symmetry_Int_Tables_number      14
_space_group_name_Hall           '-P 2yn'
loop_
_symmetry_equiv_pos_site_id
_symmetry_equiv_pos_as_xyz
1 x,y,z
2 1/2-x,1/2+y,1/2-z
3 -x,-y,-z
4 1/2+x,1/2-y,1/2+z
_cell_length_a                   7.9474(7)
_cell_length_b                   15.7511(10)
_cell_length_c                   14.1292(12)
_cell_angle_alpha                90
_cell_angle_beta                 95.049(7)
_cell_angle_gamma                90
_cell_volume                     1761.83
loop_
_atom_site_label
_atom_site_type_symbol
_atom_site_fract_x
_atom_site_fract_y
_atom_site_fract_z
C1 C 0.2703(3) 0.34951(16) -0.06250(18)
C2 C 0.3901(3) 0.69821(15) 0.74324(18)
H1 H 0.2849 0.7151 0.7606
C3 C 0.5315(3) 0.71371(17) 0.80530(18)
H2 H 0.5209 0.7403 0.8633
C4 C 0.6903(3) 0.68903(16) 0.77995(17)
H3 H 0.7867 0.6975 0.8211
C5 C 0.7003(3) 0.65137(15) 0.69146(17)
C6 C 0.8667(3) 0.62922(14) 0.65526(17)
C7 C 0.5516(3) 0.63720(14) 0.63363(17)
H4 H 0.5585 0.6110 0.5751
C8 C 0.3757(3) 0.50229(15) 0.11291(19)
H5 H 0.4015 0.4776 0.0562
C9 C 0.5057(3) 0.51478(16) 0.18392(19)
H6 H 0.6158 0.4991 0.1746
C10 C 0.4682(3) 0.55106(16) 0.26899(18)
H7 H 0.5531 0.5615 0.3171
C11 C 0.3000(3) 0.57164(15) 0.28099(16)
C12 C 0.2504(3) 0.60312(15) 0.37471(16)
C13 C 0.1775(3) 0.55770(15) 0.20590(17)
H8 H 0.0661 0.5720 0.2138
N1 N 0.3988(2) 0.65973(13) 0.65883(15)
N2 N 0.1511(3) 0.39186(15) -0.06034(18)
N3 N 0.2141(3) 0.52430(14) 0.12223(15)
O1 O 0.1915(2) 0.49222(11) 0.58203(14)
H9 H 0.114(7) 0.488(4) 0.608(4)
H10 H 0.194(5) 0.463(3) 0.532(3)
O2 O 0.8685(2) 0.62166(11) 0.56531(13)
O3 O 0.9972(2) 0.62203(13) 0.71112(14)
O4 O 0.3629(3) 0.63322(13) 0.43435(15)
O5 O 0.0988(2) 0.59584(12) 0.39355(13)
O6 O 0.1244(2) 0.59503(13) -0.10069(14)
H11 H 0.079(4) 0.600(2) -0.159(3)
H12 H 0.141(5) 0.648(3) -0.082(3)
S1 S 0.44510(7) 0.29352(4) -0.06562(5)
Cd1 Cd 0.163110(19) 0.636520(10) 0.556740(11)
Cd2 Cd 0.0000 0.5000 0.0000
C1B C -0.2703(3) 0.65049(16) 0.06250(18)
C2_2 C -0.6099(3) 0.69821(15) 0.74324(18)
H1_2 H -0.7151 0.7151 0.7606
C3_2 C -0.4685(3) 0.71371(17) 0.80530(18)
H2_2 H -0.4791 0.7403 0.8633
C4_2 C -0.3097(3) 0.68903(16) 0.77995(17)
H3_2 H -0.2133 0.6975 0.8211
C5_2 C -0.2997(3) 0.65137(15) 0.69146(17)
C6_2 C -0.1333(3) 0.62922(14) 0.65526(17)
C7_2 C -0.4484(3) 0.63720(14) 0.63363(17)
H4_2 H -0.4415 0.6110 0.5751
C8B C -0.3757(3) 0.49771(15) -0.11291(19)
H5B H -0.4015 0.5224 -0.0562
C9B C -0.5057(3) 0.48522(16) -0.18392(19)
H6B H -0.6158 0.5009 -0.1746
C10B C -0.4682(3) 0.44894(16) -0.26899(18)
H7B H -0.5531 0.4385 -0.3171
C11B C -0.3000(3) 0.42836(15) -0.28099(16)
C12B C -0.2504(3) 0.39688(15) -0.37471(16)
C13B C -0.1775(3) 0.44230(15) -0.20590(17)
H8B H -0.0661 0.4280 -0.2138
N1_2 N -0.6012(2) 0.65973(13) 0.65883(15)
N1B N -0.3988(2) 0.34027(13) -0.65883(15)
N2B N -0.1511(3) 0.60814(15) 0.06034(18)
N3B N -0.2141(3) 0.47570(14) -0.12223(15)
O1B O -0.1915(2) 0.50778(11) -0.58203(14)
H9B H -0.114(7) 0.512(4) -0.608(4)
H10B H -0.194(5) 0.537(3) -0.532(3)
O2_2 O -0.1315(2) 0.62166(11) 0.56531(13)
O2B O 0.1315(2) 0.37834(11) -0.56531(13)
O3_2 O -0.0028(2) 0.62203(13) 0.71112(14)
O4B O -0.3629(3) 0.36678(13) -0.43435(15)
O5B O -0.0988(2) 0.40416(12) -0.39355(13)
O6B O -0.1244(2) 0.40497(13) 0.10069(14)
H11B H -0.079(4) 0.400(2) 0.159(3)
H12B H -0.141(5) 0.352(3) 0.082(3)
S1B S -0.44510(7) 0.70648(4) 0.06562(5)
S1A S 0.05490(7) 0.79352(4) 0.56562(5)
S1C S -0.05490(7) 0.20648(4) -0.56562(5)
Cd1B Cd -0.163110(19) 0.363480(10) -0.556740(11)
Cd1_2 Cd 1.163110(19) 0.636520(10) 0.556740(11)
Cd1A Cd 0.336890(19) 0.136520(10) -0.056740(11)
Cd1C Cd -0.336890(19) 0.863480(10) 0.056740(11)
Cd1_3 Cd -0.836890(19) 0.636520(10) 0.556740(11)
O7 O 0.3365(3) 0.26746(14) 0.57241(17)
H13 H 0.431(5) 0.289(3) 0.579(3)
H14 H 0.278(6) 0.282(3) 0.537(4)
loop_
_geom_bond_atom_site_label_1
_geom_bond_atom_site_label_2
_geom_bond_site_symmetry_1
_geom_bond_site_symmetry_2
C1 N2 1_555 1_555
C2 H1 1_555 1_555
C3 C2 1_555 1_555
H2 C3 1_555 1_555
C4 C3 1_555 1_555
H3 C4 1_555 1_555
C5 C4 1_555 1_555
C6 C5 1_555 1_555
C7 C5 1_555 1_555
H4 C7 1_555 1_555
C8 H5 1_555 1_555
C9 C8 1_555 1_555
H6 C9 1_555 1_555
C10 C9 1_555 1_555
H7 C10 1_555 1_555
C11 C10 1_555 1_555
C12 C11 1_555 1_555
C13 C11 1_555 1_555
H8 C13 1_555 1_555
N1 C2 1_555 1_555
N2 Cd2 1_555 1_555
N3 C8 1_555 1_555
O1 H9 1_555 1_555
H10 O1 1_555 1_555
O2 C6 1_555 1_555
O3 C6 1_555 1_555
O4 C12 1_555 1_555
O5 C12 1_555 1_555
O6 H11 1_555 1_555
H12 O6 1_555 1_555
O7 H13 1_555 1_555
H14 O7 1_555 1_555
S1 C1 1_555 1_555
Cd1 N1 1_555 1_555
Cd2 N3 1_555 1_555
C1B N2B 1_555 1_555
C2_2 H1_2 1_555 1_555
C3_2 C2_2 1_555 1_555
H2_2 C3_2 1_555 1_555
C4_2 C3_2 1_555 1_555
H3_2 C4_2 1_555 1_555
C5_2 C4_2 1_555 1_555
C6_2 C5_2 1_555 1_555
C7_2 C5_2 1_555 1_555
H4_2 C7_2 1_555 1_555
C8B H5B 1_555 1_555
C9B C8B 1_555 1_555
H6B C9B 1_555 1_555
C10B C9B 1_555 1_555
H7B C10B 1_555 1_555
C11B C10B 1_555 1_555
C12B C11B 1_555 1_555
C13B C11B 1_555 1_555
H8B C13B 1_555 1_555
N1_2 C2_2 1_555 1_555
N1B Cd1B 1_555 1_555
N2B Cd2 1_555 1_555
N3B Cd2 1_555 1_555
O1B H9B 1_555 1_555
H10B O1B 1_555 1_555
O2_2 Cd1 1_555 1_555
O2B Cd1B 1_555 1_555
O3_2 C6_2 1_555 1_555
O4B C12B 1_555 1_555
O5B C12B 1_555 1_555
O6B Cd2 1_555 1_555
H11B O6B 1_555 1_555
H12B O6B 1_555 1_555
S1B C1B 1_555 1_555
S1A Cd1 1_555 1_555
S1C Cd1B 1_555 1_555
Cd1B O1B 1_555 1_555
Cd1_2 O2 1_555 1_555
Cd1A S1 1_555 1_555
Cd1C S1B 1_555 1_555
Cd1_3 N1_2 1_555 1_555
C7 N1 1_555 1_555
C13 N3 1_555 1_555
O1 Cd1 1_555 1_555
O4 Cd1 1_555 1_555
O5 Cd1 1_555 1_555
O6 Cd2 1_555 1_555
C6_2 O2_2 1_555 1_555
C7_2 N1_2 1_555 1_555
C8B N3B 1_555 1_555
C13B N3B 1_555 1_555
O4B Cd1B 1_555 1_555
O5B Cd1B 1_555 1_555

#END
