
#######################################################################
#
#                 Cambridge Crystallographic Data Centre
#                                CCDC 
#
#######################################################################
#
# If this CIF has been generated from an entry in the Cambridge 
# Structural Database, then it will include bibliographic, chemical, 
# crystal, experimental, refinement or atomic coordinate data resulting 
# from the CCDC's data processing and validation procedures.
#
#######################################################################

data_DAKWUJ
_symmetry_cell_setting           monoclinic
_symmetry_space_group_name_H-M   'C 2/c'
_symmetry_Int_Tables_number      15
_space_group_name_Hall           '-C 2yn'
loop_
_symmetry_equiv_pos_site_id
_symmetry_equiv_pos_as_xyz
1 x,y,z
2 -x,y,1/2-z
3 1/2+x,1/2+y,z
4 1/2-x,1/2+y,1/2-z
5 -x,-y,-z
6 x,-y,1/2+z
7 1/2-x,1/2-y,-z
8 1/2+x,1/2-y,1/2+z
_cell_length_a                   27.990(4)
_cell_length_b                   11.112(6)
_cell_length_c                   17.2816(18)
_cell_angle_alpha                90
_cell_angle_beta                 102.175(11)
_cell_angle_gamma                90
_cell_volume                     5254.11
loop_
_atom_site_label
_atom_site_type_symbol
_atom_site_fract_x
_atom_site_fract_y
_atom_site_fract_z
Cu1 Cu 0.20394(3) 0.00020(8) 0.07393(5)
N1 N 0.2311(2) -0.1486(5) 0.0303(4)
C1 C 0.2627(3) -0.2217(7) 0.0763(5)
H1 H 0.2728 -0.2045 0.1305
C2 C 0.2193(3) -0.1772(7) -0.0453(5)
H2 H 0.1976 -0.1268 -0.0798
N2 N 0.2330(2) 0.1470(6) 0.0306(4)
C3 C 0.2413(3) 0.2491(7) 0.0723(4)
H3 H 0.2355 0.2514 0.1240
C4 C 0.2421(3) 0.1507(7) -0.0416(5)
H4 H 0.2367 0.0808 -0.0730
P1 P 0.12536(7) 0.00391(18) 0.06519(11)
C5 C 0.0971(3) -0.1074(7) 0.1179(4)
C6 C 0.1247(3) -0.2054(7) 0.1492(5)
H5 H 0.1577 -0.2102 0.1456
C7 C 0.1045(4) -0.2960(8) 0.1855(5)
H6 H 0.1235 -0.3630 0.2060
C8 C 0.0564(4) -0.2890(8) 0.1920(5)
H7 H 0.0427 -0.3509 0.2174
C9 C 0.0283(3) -0.1912(8) 0.1612(5)
H8 H -0.0046 -0.1862 0.1654
C10 C 0.0487(3) -0.1019(8) 0.1247(4)
H9 H 0.0296 -0.0353 0.1037
C11 C 0.0991(3) 0.1473(7) 0.0858(5)
C12 C 0.0559(3) 0.1927(8) 0.0393(6)
H10 H 0.0385 0.1477 -0.0035
C13 C 0.0389(4) 0.3039(9) 0.0567(8)
H11 H 0.0098 0.3346 0.0258
C14 C 0.0642(4) 0.3690(10) 0.1186(9)
H12 H 0.0523 0.4447 0.1297
C15 C 0.1064(4) 0.3270(10) 0.1646(8)
H13 H 0.1234 0.3729 0.2073
C16 C 0.1240(3) 0.2154(9) 0.1477(6)
H14 H 0.1533 0.1860 0.1790
C17 C 0.0987(3) -0.0258(7) -0.0378(5)
C18 C 0.1130(3) 0.0470(10) -0.0940(5)
H15 H 0.1334 0.1134 -0.0776
C19 C 0.0975(4) 0.0230(11) -0.1740(6)
H16 H 0.1074 0.0729 -0.2117
C20 C 0.0680(4) -0.0730(10) -0.1978(6)
H17 H 0.0576 -0.0893 -0.2522
C21 C 0.0533(4) -0.1454(9) -0.1444(5)
H18 H 0.0330 -0.2118 -0.1614
C22 C 0.0685(3) -0.1210(8) -0.0641(5)
H19 H 0.0579 -0.1707 -0.0271
Cl1 Cl 0.25238(9) 0.0233(2) 0.26234(12)
O1 O 0.2569(3) -0.0011(8) 0.1850(4)
O2 O 0.2502(7) 0.1577(11) 0.2606(8)
O3 O 0.2913(4) 0.0008(12) 0.3195(5)
O4 O 0.2081(3) -0.0029(13) 0.2792(6)
Cu1F Cu 0.29606(3) -0.50020(8) -0.07393(5)
Cu1F_2 Cu 0.29606(3) 0.49980(8) -0.07393(5)
N1F N 0.2689(2) -0.3514(5) -0.0303(4)
C1F C 0.2373(3) -0.2783(7) -0.0763(5)
H1F H 0.2272 -0.2955 -0.1305
C2F C 0.2807(3) -0.3228(7) 0.0453(5)
H2F H 0.3024 -0.3732 0.0798
N2F N 0.2670(2) 0.3530(6) -0.0306(4)
N2F_2 N 0.2670(2) -0.6470(6) -0.0306(4)
C3F C 0.2587(3) 0.2509(7) -0.0723(4)
H3F H 0.2645 0.2486 -0.1240
C4F C 0.2579(3) 0.3493(7) 0.0416(5)
H4F H 0.2633 0.4192 0.0730
P1F P 0.37464(7) -0.50391(18) -0.06519(11)
C5F C 0.4029(3) -0.3926(7) -0.1179(4)
C6F C 0.3753(3) -0.2946(7) -0.1492(5)
H5F H 0.3423 -0.2898 -0.1456
C7F C 0.3955(4) -0.2040(8) -0.1855(5)
H6F H 0.3765 -0.1370 -0.2060
C8F C 0.4436(4) -0.2110(8) -0.1920(5)
H7F H 0.4573 -0.1491 -0.2174
C9F C 0.4717(3) -0.3088(8) -0.1612(5)
H8F H 0.5046 -0.3138 -0.1654
C10F C 0.4513(3) -0.3981(8) -0.1247(4)
H9F H 0.4704 -0.4647 -0.1037
C11F C 0.4009(3) -0.6473(7) -0.0858(5)
C12F C 0.4441(3) -0.6927(8) -0.0393(6)
H10F H 0.4615 -0.6477 0.0035
C13F C 0.4611(4) -0.8039(9) -0.0567(8)
H11F H 0.4902 -0.8346 -0.0258
C14F C 0.4358(4) -0.8690(10) -0.1186(9)
H12F H 0.4477 -0.9447 -0.1297
C15F C 0.3936(4) -0.8270(10) -0.1646(8)
H13F H 0.3766 -0.8729 -0.2073
C16F C 0.3760(3) -0.7154(9) -0.1477(6)
H14F H 0.3467 -0.6860 -0.1790
C17F C 0.4013(3) -0.4742(7) 0.0378(5)
C18F C 0.3870(3) -0.5470(10) 0.0940(5)
H15F H 0.3666 -0.6134 0.0776
C19F C 0.4025(4) -0.5230(11) 0.1740(6)
H16F H 0.3926 -0.5729 0.2117
C20F C 0.4320(4) -0.4270(10) 0.1978(6)
H17F H 0.4424 -0.4107 0.2522
C21F C 0.4467(4) -0.3546(9) 0.1444(5)
H18F H 0.4670 -0.2882 0.1614
C22F C 0.4315(3) -0.3790(8) 0.0641(5)
H19F H 0.4421 -0.3293 0.0271
Cl1F Cl 0.24762(9) -0.5233(2) -0.26234(12)
O1F O 0.2431(3) -0.4989(8) -0.1850(4)
O2F O 0.2498(7) -0.6577(11) -0.2606(8)
O3F O 0.2087(4) -0.5008(12) -0.3195(5)
O4F O 0.2919(3) -0.4971(13) -0.2792(6)
C23 C 0.3880(8) -0.005(4) 0.584(3)
H20 H 0.3821 0.0655 0.6158
Cl2 Cl 0.4446(2) -0.0032(6) 0.6172(4)
Cl3 Cl 0.3617(2) 0.0653(5) 0.4925(3)
Cl4 Cl 0.3521(2) -0.0818(11) 0.6125(4)
loop_
_geom_bond_atom_site_label_1
_geom_bond_atom_site_label_2
_geom_bond_site_symmetry_1
_geom_bond_site_symmetry_2
Cu1 N1 1_555 1_555
N1 C1 1_555 1_555
C1 H1 1_555 1_555
C2 N1 1_555 1_555
H2 C2 1_555 1_555
N2 Cu1 1_555 1_555
C3 N2 1_555 1_555
H3 C3 1_555 1_555
C4 N2 1_555 1_555
H4 C4 1_555 1_555
P1 Cu1 1_555 1_555
C5 P1 1_555 1_555
C6 C5 1_555 1_555
H5 C6 1_555 1_555
C7 C6 1_555 1_555
H6 C7 1_555 1_555
C8 C7 1_555 1_555
H7 C8 1_555 1_555
C9 C8 1_555 1_555
H8 C9 1_555 1_555
C10 C5 1_555 1_555
H9 C10 1_555 1_555
C11 P1 1_555 1_555
C12 C11 1_555 1_555
H10 C12 1_555 1_555
C13 C12 1_555 1_555
H11 C13 1_555 1_555
C14 C13 1_555 1_555
H12 C14 1_555 1_555
C15 C14 1_555 1_555
H13 C15 1_555 1_555
C16 C11 1_555 1_555
H14 C16 1_555 1_555
C17 P1 1_555 1_555
C18 C17 1_555 1_555
H15 C18 1_555 1_555
C19 C18 1_555 1_555
H16 C19 1_555 1_555
C20 C19 1_555 1_555
H17 C20 1_555 1_555
C21 C20 1_555 1_555
H18 C21 1_555 1_555
C22 C17 1_555 1_555
H19 C22 1_555 1_555
Cl1 O1 1_555 1_555
O1 Cu1 1_555 1_555
O2 Cl1 1_555 1_555
O3 Cl1 1_555 1_555
O4 Cl1 1_555 1_555
C23 H20 1_555 1_555
Cl2 C23 1_555 1_555
Cl3 C23 1_555 1_555
Cl4 C23 1_555 1_555
Cu1F N1F 1_555 1_555
Cu1F_2 N2F 1_555 1_555
N1F C1F 1_555 1_555
C1F C2 1_555 1_555
H1F C1F 1_555 1_555
C2F C1 1_555 1_555
H2F C2F 1_555 1_555
N2F C3F 1_555 1_555
N2F_2 Cu1F 1_555 1_555
C3F C4 1_555 1_555
H3F C3F 1_555 1_555
C4F C3 1_555 1_555
H4F C4F 1_555 1_555
P1F Cu1F 1_555 1_555
C5F P1F 1_555 1_555
C6F C5F 1_555 1_555
H5F C6F 1_555 1_555
C7F C6F 1_555 1_555
H6F C7F 1_555 1_555
C8F C7F 1_555 1_555
H7F C8F 1_555 1_555
C9F C8F 1_555 1_555
H8F C9F 1_555 1_555
C10F C5F 1_555 1_555
H9F C10F 1_555 1_555
C11F P1F 1_555 1_555
C12F C11F 1_555 1_555
H10F C12F 1_555 1_555
C13F C12F 1_555 1_555
H11F C13F 1_555 1_555
C14F C13F 1_555 1_555
H12F C14F 1_555 1_555
C15F C14F 1_555 1_555
H13F C15F 1_555 1_555
C16F C11F 1_555 1_555
H14F C16F 1_555 1_555
C17F P1F 1_555 1_555
C18F C17F 1_555 1_555
H15F C18F 1_555 1_555
C19F C18F 1_555 1_555
H16F C19F 1_555 1_555
C20F C19F 1_555 1_555
H17F C20F 1_555 1_555
C21F C20F 1_555 1_555
H18F C21F 1_555 1_555
C22F C17F 1_555 1_555
H19F C22F 1_555 1_555
Cl1F O1F 1_555 1_555
O1F Cu1F 1_555 1_555
O2F Cl1F 1_555 1_555
O3F Cl1F 1_555 1_555
O4F Cl1F 1_555 1_555
C9 C10 1_555 1_555
C15 C16 1_555 1_555
C21 C22 1_555 1_555
N1F C2F 1_555 1_555
N2F C4F 1_555 1_555
C9F C10F 1_555 1_555
C15F C16F 1_555 1_555
C21F C22F 1_555 1_555

#END
