
#######################################################################
#
#                 Cambridge Crystallographic Data Centre
#                                CCDC 
#
#######################################################################
#
# If this CIF has been generated from an entry in the Cambridge 
# Structural Database, then it will include bibliographic, chemical, 
# crystal, experimental, refinement or atomic coordinate data resulting 
# from the CCDC's data processing and validation procedures.
#
#######################################################################

data_DAKWIX
_symmetry_cell_setting           triclinic
_symmetry_space_group_name_H-M   'P -1'
_symmetry_Int_Tables_number      2
_space_group_name_Hall           '-P 1'
loop_
_symmetry_equiv_pos_site_id
_symmetry_equiv_pos_as_xyz
1 x,y,z
2 -x,-y,-z
_cell_length_a                   9.9318(12)
_cell_length_b                   10.9980(8)
_cell_length_c                   14.4510(4)
_cell_angle_alpha                99.617(5)
_cell_angle_beta                 107.067(7)
_cell_angle_gamma                103.331(7)
_cell_volume                     1420.79
loop_
_atom_site_label
_atom_site_type_symbol
_atom_site_fract_x
_atom_site_fract_y
_atom_site_fract_z
Cu1 Cu -0.00842(3) 0.28134(2) 0.146506(18)
N1 N -0.00820(19) 0.41068(16) 0.05769(13)
C1 C 0.0375(3) 0.3931(2) -0.02026(16)
H1 H 0.0653 0.3185 -0.0366
C2 C -0.0452(3) 0.5187(2) 0.07744(16)
H2 H -0.0774 0.5352 0.1320
N2 N -0.00214(18) 0.11573(15) 0.05567(12)
C3 C 0.1221(2) 0.08288(19) 0.06771(15)
H3 H 0.2109 0.1395 0.1150
C4 C -0.1238(2) 0.03118(19) -0.01302(15)
H4 H -0.2139 0.0503 -0.0244
N3 N -0.22609(19) 0.21765(17) 0.13606(13)
C5 C -0.2651(3) 0.1254(3) 0.1803(2)
H5 H -0.1913 0.0998 0.2229
C6 C -0.4107(3) 0.0662(3) 0.1654(2)
H6 H -0.4328 0.0011 0.1980
N4 N -0.5204(2) 0.0973(2) 0.1074(2)
C7 C -0.4822(3) 0.1886(3) 0.0633(2)
H7 H -0.5566 0.2139 0.0210
C8 C -0.3367(3) 0.2485(2) 0.07692(17)
H8 H -0.3154 0.3128 0.0435
C9 C 0.1749(2) 0.50761(19) 0.36277(15)
C10 C 0.0427(3) 0.5133(3) 0.3738(2)
H9 H -0.0414 0.4412 0.3427
C11 C 0.0321(4) 0.6229(3) 0.4297(2)
H10 H -0.0586 0.6248 0.4366
C12 C 0.1525(5) 0.7282(3) 0.4750(2)
H11 H 0.1453 0.8026 0.5137
C13 C 0.2843(4) 0.7255(3) 0.4642(2)
H12 H 0.3671 0.7988 0.4949
C14 C 0.2972(3) 0.6150(2) 0.40816(19)
H13 H 0.3882 0.6136 0.4014
C15 C 0.3559(2) 0.39531(19) 0.27572(15)
C16 C 0.3762(3) 0.4708(3) 0.21029(19)
H14 H 0.2967 0.4957 0.1734
C17 C 0.5111(3) 0.5100(3) 0.1984(2)
H15 H 0.5237 0.5627 0.1548
C18 C 0.6271(3) 0.4719(3) 0.25071(19)
H16 H 0.7195 0.4989 0.2433
C19 C 0.6076(3) 0.3943(3) 0.31362(19)
H17 H 0.6865 0.3671 0.3484
C20 C 0.4724(2) 0.3555(2) 0.32647(17)
H18 H 0.4601 0.3021 0.3697
C21 C 0.1892(2) 0.25727(19) 0.37943(15)
C22 C 0.2717(2) 0.3082(2) 0.48049(16)
H19 H 0.3257 0.3962 0.5041
C23 C 0.2751(3) 0.2305(2) 0.54655(17)
H20 H 0.3316 0.2656 0.6148
C24 C 0.1954(3) 0.1017(2) 0.51229(19)
H21 H 0.1968 0.0491 0.5574
C25 C 0.1138(3) 0.0494(2) 0.41231(19)
H22 H 0.0601 -0.0387 0.3891
C26 C 0.1111(2) 0.1270(2) 0.34604(16)
H23 H 0.0557 0.0911 0.2777
P1 P 0.17608(5) 0.35620(5) 0.29019(4)
Cu1A Cu 0.00842(3) 0.71866(2) -0.146506(18)
Cu1A_2 Cu 0.00842(3) -0.28134(2) -0.146506(18)
N1A N 0.00820(19) 0.58932(16) -0.05769(13)
C1A C -0.0375(3) 0.6069(2) 0.02026(16)
H1A H -0.0653 0.6815 0.0366
C2A C 0.0452(3) 0.4813(2) -0.07744(16)
H2A H 0.0774 0.4648 -0.1320
N2A N 0.00214(18) -0.11573(15) -0.05567(12)
N2A_2 N 0.00214(18) 0.88427(15) -0.05567(12)
C3A C -0.1221(2) -0.08288(19) -0.06771(15)
H3A H -0.2109 -0.1395 -0.1150
C4A C 0.1238(2) -0.03118(19) 0.01302(15)
H4A H 0.2139 -0.0503 0.0244
N3A N 0.22609(19) 0.78235(17) -0.13606(13)
C5A C 0.2651(3) 0.8746(3) -0.1803(2)
H5A H 0.1913 0.9002 -0.2229
C6A C 0.4107(3) 0.9338(3) -0.1654(2)
H6A H 0.4328 0.9989 -0.1980
N4A N 0.5204(2) 0.9027(2) -0.1074(2)
C7A C 0.4822(3) 0.8114(3) -0.0633(2)
H7A H 0.5566 0.7861 -0.0210
C8A C 0.3367(3) 0.7515(2) -0.07692(17)
H8A H 0.3154 0.6872 -0.0435
C9A C -0.1749(2) 0.49239(19) -0.36277(15)
C10A C -0.0427(3) 0.4867(3) -0.3738(2)
H9A H 0.0414 0.5588 -0.3427
C11A C -0.0321(4) 0.3771(3) -0.4297(2)
H10A H 0.0586 0.3752 -0.4366
C12A C -0.1525(5) 0.2718(3) -0.4750(2)
H11A H -0.1453 0.1974 -0.5137
C13A C -0.2843(4) 0.2745(3) -0.4642(2)
H12A H -0.3671 0.2012 -0.4949
C14A C -0.2972(3) 0.3850(2) -0.40816(19)
H13A H -0.3882 0.3864 -0.4014
C15A C -0.3559(2) 0.60469(19) -0.27572(15)
C16A C -0.3762(3) 0.5292(3) -0.21029(19)
H14A H -0.2967 0.5043 -0.1734
C17A C -0.5111(3) 0.4900(3) -0.1984(2)
H15A H -0.5237 0.4373 -0.1548
C18A C -0.6271(3) 0.5281(3) -0.25071(19)
H16A H -0.7195 0.5011 -0.2433
C19A C -0.6076(3) 0.6057(3) -0.31362(19)
H17A H -0.6865 0.6329 -0.3484
C20A C -0.4724(2) 0.6445(2) -0.32647(17)
H18A H -0.4601 0.6979 -0.3697
C21A C -0.1892(2) 0.74273(19) -0.37943(15)
C22A C -0.2717(2) 0.6918(2) -0.48049(16)
H19A H -0.3257 0.6038 -0.5041
C23A C -0.2751(3) 0.7695(2) -0.54655(17)
H20A H -0.3316 0.7344 -0.6148
C24A C -0.1954(3) 0.8983(2) -0.51229(19)
H21A H -0.1968 0.9509 -0.5574
C25A C -0.1138(3) 0.9506(2) -0.41231(19)
H22A H -0.0601 1.0387 -0.3891
C26A C -0.1111(2) 0.8730(2) -0.34604(16)
H23A H -0.0557 0.9089 -0.2777
P1A P -0.17608(5) 0.64380(5) -0.29019(4)
B1 B 0.1785(3) 0.2070(3) 0.8200(2)
F1 F 0.0973(2) 0.27041(19) 0.76318(14)
F2 F 0.2404(2) 0.1415(2) 0.76431(16)
F3 F 0.2822(2) 0.2976(2) 0.90247(14)
F4 F 0.0853(2) 0.12307(17) 0.85039(14)
C27 C 0.7293(4) 0.1247(4) 0.7393(2)
H24 H 0.7908 0.1790 0.7109
H25 H 0.7872 0.0741 0.7739
Cl1 Cl 0.68334(11) 0.22250(8) 0.82505(7)
Cl2 Cl 0.57441(13) 0.02059(12) 0.64351(8)
loop_
_geom_bond_atom_site_label_1
_geom_bond_atom_site_label_2
_geom_bond_site_symmetry_1
_geom_bond_site_symmetry_2
Cu1 N1 1_555 1_555
N1 C1 1_555 1_555
C1 H1 1_555 1_555
C2 N1 1_555 1_555
H2 C2 1_555 1_555
N2 Cu1 1_555 1_555
C3 N2 1_555 1_555
H3 C3 1_555 1_555
C4 N2 1_555 1_555
H4 C4 1_555 1_555
N3 Cu1 1_555 1_555
C5 N3 1_555 1_555
H5 C5 1_555 1_555
C6 C5 1_555 1_555
H6 C6 1_555 1_555
N4 C6 1_555 1_555
C7 N4 1_555 1_555
H7 C7 1_555 1_555
C8 N3 1_555 1_555
H8 C8 1_555 1_555
C9 C10 1_555 1_555
C10 H9 1_555 1_555
C11 C10 1_555 1_555
H10 C11 1_555 1_555
C12 C11 1_555 1_555
H11 C12 1_555 1_555
C13 C12 1_555 1_555
H12 C13 1_555 1_555
C14 C9 1_555 1_555
H13 C14 1_555 1_555
C15 C16 1_555 1_555
C16 H14 1_555 1_555
C17 C16 1_555 1_555
H15 C17 1_555 1_555
C18 C17 1_555 1_555
H16 C18 1_555 1_555
C19 C18 1_555 1_555
H17 C19 1_555 1_555
C20 C15 1_555 1_555
H18 C20 1_555 1_555
C21 C22 1_555 1_555
C22 H19 1_555 1_555
C23 C22 1_555 1_555
H20 C23 1_555 1_555
C24 C23 1_555 1_555
H21 C24 1_555 1_555
C25 C24 1_555 1_555
H22 C25 1_555 1_555
C26 C21 1_555 1_555
H23 C26 1_555 1_555
P1 Cu1 1_555 1_555
B1 F1 1_555 1_555
F2 B1 1_555 1_555
F3 B1 1_555 1_555
F4 B1 1_555 1_555
C27 H24 1_555 1_555
H25 C27 1_555 1_555
Cl1 C27 1_555 1_555
Cl2 C27 1_555 1_555
Cu1A N1A 1_555 1_555
Cu1A_2 N2A 1_555 1_555
N1A C1A 1_555 1_555
C1A C2 1_555 1_555
H1A C1A 1_555 1_555
C2A C1 1_555 1_555
H2A C2A 1_555 1_555
N2A C3A 1_555 1_555
N2A_2 Cu1A 1_555 1_555
C3A C4 1_555 1_555
H3A C3A 1_555 1_555
C4A C3 1_555 1_555
H4A C4A 1_555 1_555
N3A Cu1A 1_555 1_555
C5A N3A 1_555 1_555
H5A C5A 1_555 1_555
C6A C5A 1_555 1_555
H6A C6A 1_555 1_555
N4A C6A 1_555 1_555
C7A N4A 1_555 1_555
H7A C7A 1_555 1_555
C8A N3A 1_555 1_555
H8A C8A 1_555 1_555
C9A C10A 1_555 1_555
C10A H9A 1_555 1_555
C11A C10A 1_555 1_555
H10A C11A 1_555 1_555
C12A C11A 1_555 1_555
H11A C12A 1_555 1_555
C13A C12A 1_555 1_555
H12A C13A 1_555 1_555
C14A C9A 1_555 1_555
H13A C14A 1_555 1_555
C15A C16A 1_555 1_555
C16A H14A 1_555 1_555
C17A C16A 1_555 1_555
H15A C17A 1_555 1_555
C18A C17A 1_555 1_555
H16A C18A 1_555 1_555
C19A C18A 1_555 1_555
H17A C19A 1_555 1_555
C20A C15A 1_555 1_555
H18A C20A 1_555 1_555
C21A C22A 1_555 1_555
C22A H19A 1_555 1_555
C23A C22A 1_555 1_555
H20A C23A 1_555 1_555
C24A C23A 1_555 1_555
H21A C24A 1_555 1_555
C25A C24A 1_555 1_555
H22A C25A 1_555 1_555
C26A C21A 1_555 1_555
H23A C26A 1_555 1_555
P1A Cu1A 1_555 1_555
C7 C8 1_555 1_555
C9 P1 1_555 1_555
C13 C14 1_555 1_555
C15 P1 1_555 1_555
C19 C20 1_555 1_555
C21 P1 1_555 1_555
C25 C26 1_555 1_555
N1A C2A 1_555 1_555
N2A C4A 1_555 1_555
C7A C8A 1_555 1_555
C9A P1A 1_555 1_555
C13A C14A 1_555 1_555
C15A P1A 1_555 1_555
C19A C20A 1_555 1_555
C21A P1A 1_555 1_555
C25A C26A 1_555 1_555

#END
