
#######################################################################
#
#                 Cambridge Crystallographic Data Centre
#                                CCDC 
#
#######################################################################
#
# If this CIF has been generated from an entry in the Cambridge 
# Structural Database, then it will include bibliographic, chemical, 
# crystal, experimental, refinement or atomic coordinate data resulting 
# from the CCDC's data processing and validation procedures.
#
#######################################################################

data_DAKXOE
_symmetry_cell_setting           triclinic
_symmetry_space_group_name_H-M   'P -1'
_symmetry_Int_Tables_number      2
_space_group_name_Hall           '-P 1'
loop_
_symmetry_equiv_pos_site_id
_symmetry_equiv_pos_as_xyz
1 x,y,z
2 -x,-y,-z
_cell_length_a                   12.8820(9)
_cell_length_b                   15.9637(15)
_cell_length_c                   16.7495(14)
_cell_angle_alpha                67.131(8)
_cell_angle_beta                 89.524(5)
_cell_angle_gamma                72.358(9)
_cell_volume                     3000.83
loop_
_atom_site_label
_atom_site_type_symbol
_atom_site_fract_x
_atom_site_fract_y
_atom_site_fract_z
Cu1 Cu 0.19240(8) 0.10563(7) 0.21266(6)
C1 C 0.3176(7) -0.0130(7) 0.1180(6)
H1 H 0.2775 -0.0538 0.1472
C2 C 0.3925(8) -0.0418(7) 0.0683(6)
H2 H 0.4010 -0.0995 0.0622
C3 C 0.4571(7) 0.0155(6) 0.0263(5)
C4 C 0.4372(8) 0.0995(7) 0.0371(6)
H3 H 0.4776 0.1409 0.0102
C5 C 0.3580(8) 0.1232(7) 0.0872(6)
H4 H 0.3458 0.1815 0.0931
C6 C 0.0986(9) 0.2833(7) 0.0521(6)
H5 H 0.1130 0.2371 0.0282
C7 C 0.0491(9) 0.3771(7) -0.0018(6)
H6 H 0.0299 0.3937 -0.0613
C8 C 0.0263(7) 0.4487(6) 0.0290(5)
C9 C 0.0563(8) 0.4175(6) 0.1173(6)
H7 H 0.0430 0.4624 0.1426
C10 C 0.1054(8) 0.3212(6) 0.1688(6)
H8 H 0.1240 0.3023 0.2288
C11 C 0.2559(7) 0.1283(6) 0.4046(6)
C12 C 0.1442(7) 0.1515(7) 0.4110(6)
H9 H 0.0983 0.1392 0.3765
C13 C 0.1005(8) 0.1923(8) 0.4675(7)
H10 H 0.0252 0.2056 0.4730
C14 C 0.1654(8) 0.2139(8) 0.5160(7)
H11 H 0.1347 0.2429 0.5537
C15 C 0.2759(9) 0.1925(9) 0.5089(7)
H12 H 0.3208 0.2077 0.5414
C16 C 0.3213(8) 0.1488(8) 0.4542(7)
H13 H 0.3972 0.1330 0.4508
C17 C 0.4276(7) 0.1152(7) 0.2959(6)
C18 C 0.5353(8) 0.0541(8) 0.3155(7)
H14 H 0.5509 -0.0122 0.3481
C19 C 0.6215(8) 0.0916(10) 0.2866(8)
H15 H 0.6945 0.0501 0.2992
C20 C 0.5987(11) 0.1878(11) 0.2403(8)
H16 H 0.6562 0.2122 0.2202
C21 C 0.4931(9) 0.2495(9) 0.2225(7)
H17 H 0.4782 0.3160 0.1916
C22 C 0.4085(8) 0.2127(7) 0.2506(6)
H18 H 0.3361 0.2552 0.2385
C23 C 0.3746(6) -0.0546(6) 0.3969(6)
C24 C 0.3765(7) -0.0932(7) 0.4860(6)
H19 H 0.3458 -0.0525 0.5143
C25 C 0.4225(8) -0.1897(7) 0.5340(7)
H20 H 0.4246 -0.2149 0.5951
C26 C 0.4658(9) -0.2504(8) 0.4930(8)
H21 H 0.4968 -0.3170 0.5259
C27 C 0.4634(9) -0.2125(8) 0.4029(8)
H22 H 0.4928 -0.2537 0.3748
C28 C 0.4186(8) -0.1154(7) 0.3543(7)
H23 H 0.4173 -0.0899 0.2933
C29 C 0.0635(7) -0.0694(6) 0.2696(5)
C30 C 0.1571(9) -0.1287(8) 0.3235(9)
H24 H 0.2102 -0.1026 0.3322
C31 C 0.1770(11) -0.2263(9) 0.3659(9)
H25 H 0.2417 -0.2655 0.4046
C32 C 0.1029(11) -0.2657(9) 0.3516(8)
H26 H 0.1169 -0.3324 0.3791
C33 C 0.0103(11) -0.2090(9) 0.2985(8)
H27 H -0.0407 -0.2366 0.2890
C34 C -0.0129(8) -0.1110(7) 0.2572(6)
H28 H -0.0796 -0.0723 0.2208
C35 C -0.0440(7) 0.1010(7) 0.1173(6)
C36 C 0.0083(9) 0.0979(8) 0.0450(6)
H29 H 0.0853 0.0743 0.0501
C37 C -0.0542(11) 0.1300(9) -0.0346(7)
H30 H -0.0182 0.1249 -0.0824
C38 C -0.1624(13) 0.1673(9) -0.0459(9)
H31 H -0.2020 0.1921 -0.1015
C39 C -0.2166(10) 0.1693(11) 0.0259(9)
H32 H -0.2937 0.1925 0.0200
C40 C -0.1563(9) 0.1372(9) 0.1054(8)
H33 H -0.1933 0.1401 0.1533
C41 C -0.0502(7) 0.1064(7) 0.2862(6)
C42 C -0.0672(7) 0.0490(8) 0.3684(6)
H34 H -0.0378 -0.0182 0.3883
C43 C -0.1261(8) 0.0880(9) 0.4217(7)
H35 H -0.1375 0.0475 0.4769
C44 C -0.1678(8) 0.1850(9) 0.3944(7)
H36 H -0.2066 0.2115 0.4314
C45 C -0.1535(8) 0.2450(8) 0.3128(7)
H37 H -0.1822 0.3121 0.2942
C46 C -0.0958(7) 0.2050(7) 0.2582(7)
H38 H -0.0880 0.2455 0.2018
N1 N 0.2973(6) 0.0685(5) 0.1281(5)
N2 N 0.1278(6) 0.2537(5) 0.1373(4)
P1 P 0.31076(17) 0.07357(16) 0.32841(14)
P2 P 0.04196(17) 0.05884(16) 0.21999(14)
Cu1A Cu 0.80760(8) -0.10563(7) -0.21266(6)
Cu1A_2 Cu -0.19240(8) 0.89437(7) -0.21266(6)
C1A C 0.6824(7) 0.0130(7) -0.1180(6)
H1A H 0.7225 0.0538 -0.1472
C2A C 0.6075(8) 0.0418(7) -0.0683(6)
H2A H 0.5990 0.0995 -0.0622
C3A C 0.5429(7) -0.0155(6) -0.0263(5)
C4A C 0.5628(8) -0.0995(7) -0.0371(6)
H3A H 0.5224 -0.1409 -0.0102
C5A C 0.6420(8) -0.1232(7) -0.0872(6)
H4A H 0.6542 -0.1815 -0.0931
C6A C -0.0986(9) 0.7167(7) -0.0521(6)
H5A H -0.1130 0.7629 -0.0282
C7A C -0.0491(9) 0.6229(7) 0.0018(6)
H6A H -0.0299 0.6063 0.0613
C8A C -0.0263(7) 0.5513(6) -0.0290(5)
C9A C -0.0563(8) 0.5825(6) -0.1173(6)
H7A H -0.0430 0.5376 -0.1426
C10A C -0.1054(8) 0.6788(6) -0.1688(6)
H8A H -0.1240 0.6977 -0.2288
C11A C -0.2559(7) 0.8717(6) -0.4046(6)
C12A C -0.1442(7) 0.8485(7) -0.4110(6)
H9A H -0.0983 0.8608 -0.3765
C13A C -0.1005(8) 0.8077(8) -0.4675(7)
H10A H -0.0252 0.7944 -0.4730
C14A C -0.1654(8) 0.7861(8) -0.5160(7)
H11A H -0.1347 0.7571 -0.5537
C15A C -0.2759(9) 0.8075(9) -0.5089(7)
H12A H -0.3208 0.7923 -0.5414
C16A C -0.3213(8) 0.8512(8) -0.4542(7)
H13A H -0.3972 0.8670 -0.4508
C17A C -0.4276(7) 0.8848(7) -0.2959(6)
C18A C -0.5353(8) 0.9459(8) -0.3155(7)
H14A H -0.5509 1.0122 -0.3481
C19A C -0.6215(8) 0.9084(10) -0.2866(8)
H15A H -0.6945 0.9499 -0.2992
C20A C -0.5987(11) 0.8122(11) -0.2403(8)
H16A H -0.6562 0.7878 -0.2202
C21A C -0.4931(9) 0.7505(9) -0.2225(7)
H17A H -0.4782 0.6840 -0.1916
C22A C -0.4085(8) 0.7873(7) -0.2506(6)
H18A H -0.3361 0.7448 -0.2385
C23A C -0.3746(6) 1.0546(6) -0.3969(6)
C24A C -0.3765(7) 1.0932(7) -0.4860(6)
H19A H -0.3458 1.0525 -0.5143
C25A C -0.4225(8) 1.1897(7) -0.5340(7)
H20A H -0.4246 1.2149 -0.5951
C26A C -0.4658(9) 1.2504(8) -0.4930(8)
H21A H -0.4968 1.3170 -0.5259
C27A C -0.4634(9) 1.2125(8) -0.4029(8)
H22A H -0.4928 1.2537 -0.3748
C28A C -0.4186(8) 1.1154(7) -0.3543(7)
H23A H -0.4173 1.0899 -0.2933
C29A C -0.0635(7) 1.0694(6) -0.2696(5)
C30A C -0.1571(9) 1.1287(8) -0.3235(9)
H24A H -0.2102 1.1026 -0.3322
C31A C -0.1770(11) 1.2263(9) -0.3659(9)
H25A H -0.2417 1.2655 -0.4046
C32A C -0.1029(11) 1.2657(9) -0.3516(8)
H26A H -0.1169 1.3324 -0.3791
C33A C -0.0103(11) 1.2090(9) -0.2985(8)
H27A H 0.0407 1.2366 -0.2890
C34A C 0.0129(8) 1.1110(7) -0.2572(6)
H28A H 0.0796 1.0723 -0.2208
C35A C 0.0440(7) 0.8990(7) -0.1173(6)
C36A C -0.0083(9) 0.9021(8) -0.0450(6)
H29A H -0.0853 0.9257 -0.0501
C37A C 0.0542(11) 0.8700(9) 0.0346(7)
H30A H 0.0182 0.8751 0.0824
C38A C 0.1624(13) 0.8327(9) 0.0459(9)
H31A H 0.2020 0.8079 0.1015
C39A C 0.2166(10) 0.8307(11) -0.0259(9)
H32A H 0.2937 0.8075 -0.0200
C40A C 0.1563(9) 0.8628(9) -0.1054(8)
H33A H 0.1933 0.8599 -0.1533
C41A C 0.0502(7) 0.8936(7) -0.2862(6)
C42A C 0.0672(7) 0.9510(8) -0.3684(6)
H34A H 0.0378 1.0182 -0.3883
C43A C 0.1261(8) 0.9120(9) -0.4217(7)
H35A H 0.1375 0.9525 -0.4769
C44A C 0.1678(8) 0.8150(9) -0.3944(7)
H36A H 0.2066 0.7885 -0.4314
C45A C 0.1535(8) 0.7550(8) -0.3128(7)
H37A H 0.1822 0.6879 -0.2942
C46A C 0.0958(7) 0.7950(7) -0.2582(7)
H38A H 0.0880 0.7545 -0.2018
N1A N 0.7027(6) -0.0685(5) -0.1281(5)
N1A_2 N -0.2973(6) 0.9315(5) -0.1281(5)
N2A N -0.1278(6) 0.7463(5) -0.1373(4)
P1A P -0.31076(17) 0.92643(16) -0.32841(14)
P2A P -0.04196(17) 0.94116(16) -0.21999(14)
B1 B 0.4624(14) 0.6919(11) 0.2022(11)
F1 F 0.4786(11) 0.7260(6) 0.1155(7)
F2 F 0.4680(16) 0.6018(10) 0.2237(9)
F3 F 0.3659(8) 0.7416(11) 0.2128(7)
F4 F 0.5397(10) 0.6928(14) 0.2483(11)
C47 C 0.7518(12) 0.4646(10) 0.7692(9)
H39 H 0.7110 0.4264 0.7572
Cl1 Cl 0.8893(4) 0.4064(4) 0.7780(4)
Cl2 Cl 0.7218(5) 0.4711(5) 0.8702(4)
Cl3 Cl 0.7105(7) 0.5764(5) 0.6884(4)
C48 C 0.3589(14) 0.4597(9) -0.0956(8)
H40 H 0.4251 0.4375 -0.1220
Cl4 Cl 0.3698(7) 0.3767(3) 0.0097(3)
Cl5 Cl 0.2416(5) 0.4684(6) -0.1570(4)
Cl6 Cl 0.3479(9) 0.5695(4) -0.0989(5)
C49 C 0.7172(11) 0.7926(11) 0.1933(8)
H41 H 0.6537 0.7830 0.1695
Cl7 Cl 0.8115(4) 0.7998(6) 0.1244(3)
Cl8 Cl 0.7780(8) 0.6960(8) 0.2955(5)
Cl9 Cl 0.6757(5) 0.8818(8) 0.2250(6)
C50 C 0.7255(17) 0.5082(15) 0.3982(15)
H42 H 0.6925 0.5657 0.3435
Cl10 Cl 0.6809(11) 0.4173(5) 0.4039(6)
Cl11 Cl 0.8637(11) 0.4476(9) 0.3907(8)
Cl12 Cl 0.7241(10) 0.5391(6) 0.4832(5)
loop_
_geom_bond_atom_site_label_1
_geom_bond_atom_site_label_2
_geom_bond_site_symmetry_1
_geom_bond_site_symmetry_2
Cu1 N1 1_555 1_555
C1 H1 1_555 1_555
C2 C1 1_555 1_555
H2 C2 1_555 1_555
C3 C2 1_555 1_555
C4 C3 1_555 1_555
H3 C4 1_555 1_555
C5 C4 1_555 1_555
H4 C5 1_555 1_555
C6 H5 1_555 1_555
C7 C6 1_555 1_555
H6 C7 1_555 1_555
C8 C7 1_555 1_555
C9 C8 1_555 1_555
H7 C9 1_555 1_555
C10 C9 1_555 1_555
H8 C10 1_555 1_555
C11 C12 1_555 1_555
C12 H9 1_555 1_555
C13 C12 1_555 1_555
H10 C13 1_555 1_555
C14 C13 1_555 1_555
H11 C14 1_555 1_555
C15 C14 1_555 1_555
H12 C15 1_555 1_555
C16 C11 1_555 1_555
H13 C16 1_555 1_555
C17 C18 1_555 1_555
C18 H14 1_555 1_555
C19 C18 1_555 1_555
H15 C19 1_555 1_555
C20 C19 1_555 1_555
H16 C20 1_555 1_555
C21 C20 1_555 1_555
H17 C21 1_555 1_555
C22 C17 1_555 1_555
H18 C22 1_555 1_555
C23 C24 1_555 1_555
C24 H19 1_555 1_555
C25 C24 1_555 1_555
H20 C25 1_555 1_555
C26 C25 1_555 1_555
H21 C26 1_555 1_555
C27 C26 1_555 1_555
H22 C27 1_555 1_555
C28 C23 1_555 1_555
H23 C28 1_555 1_555
C29 C30 1_555 1_555
C30 H24 1_555 1_555
C31 C30 1_555 1_555
H25 C31 1_555 1_555
C32 C31 1_555 1_555
H26 C32 1_555 1_555
C33 C32 1_555 1_555
H27 C33 1_555 1_555
C34 C29 1_555 1_555
H28 C34 1_555 1_555
C35 C36 1_555 1_555
C36 H29 1_555 1_555
C37 C36 1_555 1_555
H30 C37 1_555 1_555
C38 C37 1_555 1_555
H31 C38 1_555 1_555
C39 C38 1_555 1_555
H32 C39 1_555 1_555
C40 C35 1_555 1_555
H33 C40 1_555 1_555
C41 C42 1_555 1_555
C42 H34 1_555 1_555
C43 C42 1_555 1_555
H35 C43 1_555 1_555
C44 C43 1_555 1_555
H36 C44 1_555 1_555
C45 C44 1_555 1_555
H37 C45 1_555 1_555
C46 C41 1_555 1_555
H38 C46 1_555 1_555
N1 C1 1_555 1_555
N2 Cu1 1_555 1_555
P1 Cu1 1_555 1_555
P2 Cu1 1_555 1_555
B1 F1 1_555 1_555
F2 B1 1_555 1_555
F3 B1 1_555 1_555
F4 B1 1_555 1_555
C47 H39 1_555 1_555
Cl1 C47 1_555 1_555
Cl2 C47 1_555 1_555
Cl3 C47 1_555 1_555
C48 H40 1_555 1_555
Cl4 C48 1_555 1_555
Cl5 C48 1_555 1_555
Cl6 C48 1_555 1_555
C49 H41 1_555 1_555
Cl7 C49 1_555 1_555
Cl8 C49 1_555 1_555
Cl9 C49 1_555 1_555
C50 H42 1_555 1_555
Cl10 C50 1_555 1_555
Cl11 C50 1_555 1_555
Cl12 C50 1_555 1_555
Cu1A N1A 1_555 1_555
Cu1A_2 N1A_2 1_555 1_555
C1A H1A 1_555 1_555
C2A C1A 1_555 1_555
H2A C2A 1_555 1_555
C3A C3 1_555 1_555
C4A C3A 1_555 1_555
H3A C4A 1_555 1_555
C5A C4A 1_555 1_555
H4A C5A 1_555 1_555
C6A H5A 1_555 1_555
C7A C6A 1_555 1_555
H6A C7A 1_555 1_555
C8A C8 1_555 1_555
C9A C8A 1_555 1_555
H7A C9A 1_555 1_555
C10A C9A 1_555 1_555
H8A C10A 1_555 1_555
C11A C12A 1_555 1_555
C12A H9A 1_555 1_555
C13A C12A 1_555 1_555
H10A C13A 1_555 1_555
C14A C13A 1_555 1_555
H11A C14A 1_555 1_555
C15A C14A 1_555 1_555
H12A C15A 1_555 1_555
C16A C11A 1_555 1_555
H13A C16A 1_555 1_555
C17A C18A 1_555 1_555
C18A H14A 1_555 1_555
C19A C18A 1_555 1_555
H15A C19A 1_555 1_555
C20A C19A 1_555 1_555
H16A C20A 1_555 1_555
C21A C20A 1_555 1_555
H17A C21A 1_555 1_555
C22A C17A 1_555 1_555
H18A C22A 1_555 1_555
C23A C24A 1_555 1_555
C24A H19A 1_555 1_555
C25A C24A 1_555 1_555
H20A C25A 1_555 1_555
C26A C25A 1_555 1_555
H21A C26A 1_555 1_555
C27A C26A 1_555 1_555
H22A C27A 1_555 1_555
C28A C23A 1_555 1_555
H23A C28A 1_555 1_555
C29A C30A 1_555 1_555
C30A H24A 1_555 1_555
C31A C30A 1_555 1_555
H25A C31A 1_555 1_555
C32A C31A 1_555 1_555
H26A C32A 1_555 1_555
C33A C32A 1_555 1_555
H27A C33A 1_555 1_555
C34A C29A 1_555 1_555
H28A C34A 1_555 1_555
C35A C36A 1_555 1_555
C36A H29A 1_555 1_555
C37A C36A 1_555 1_555
H30A C37A 1_555 1_555
C38A C37A 1_555 1_555
H31A C38A 1_555 1_555
C39A C38A 1_555 1_555
H32A C39A 1_555 1_555
C40A C35A 1_555 1_555
H33A C40A 1_555 1_555
C41A C42A 1_555 1_555
C42A H34A 1_555 1_555
C43A C42A 1_555 1_555
H35A C43A 1_555 1_555
C44A C43A 1_555 1_555
H36A C44A 1_555 1_555
C45A C44A 1_555 1_555
H37A C45A 1_555 1_555
C46A C41A 1_555 1_555
H38A C46A 1_555 1_555
N1A C1A 1_555 1_555
N2A Cu1A_2 1_555 1_555
P1A Cu1A_2 1_555 1_555
P2A Cu1A_2 1_555 1_555
C5 N1 1_555 1_555
C6 N2 1_555 1_555
C10 N2 1_555 1_555
C11 P1 1_555 1_555
C15 C16 1_555 1_555
C17 P1 1_555 1_555
C21 C22 1_555 1_555
C23 P1 1_555 1_555
C27 C28 1_555 1_555
C29 P2 1_555 1_555
C33 C34 1_555 1_555
C35 P2 1_555 1_555
C39 C40 1_555 1_555
C41 P2 1_555 1_555
C45 C46 1_555 1_555
C2A C3A 1_555 1_555
C5A N1A 1_555 1_555
C6A N2A 1_555 1_555
C7A C8A 1_555 1_555
C10A N2A 1_555 1_555
C11A P1A 1_555 1_555
C15A C16A 1_555 1_555
C17A P1A 1_555 1_555
C21A C22A 1_555 1_555
C23A P1A 1_555 1_555
C27A C28A 1_555 1_555
C29A P2A 1_555 1_555
C33A C34A 1_555 1_555
C35A P2A 1_555 1_555
C39A C40A 1_555 1_555
C41A P2A 1_555 1_555
C45A C46A 1_555 1_555

#END
