
#######################################################################
#
#                 Cambridge Crystallographic Data Centre
#                                CCDC 
#
#######################################################################
#
# If this CIF has been generated from an entry in the Cambridge 
# Structural Database, then it will include bibliographic, chemical, 
# crystal, experimental, refinement or atomic coordinate data resulting 
# from the CCDC's data processing and validation procedures.
#
#######################################################################

data_DAKXEU
_symmetry_cell_setting           monoclinic
_symmetry_space_group_name_H-M   'P 21/a'
_symmetry_Int_Tables_number      14
_space_group_name_Hall           '-P 2yab'
loop_
_symmetry_equiv_pos_site_id
_symmetry_equiv_pos_as_xyz
1 x,y,z
2 1/2-x,1/2+y,-z
3 -x,-y,-z
4 1/2+x,1/2-y,z
_cell_length_a                   19.039(3)
_cell_length_b                   23.6793(17)
_cell_length_c                   26.077(4)
_cell_angle_alpha                90
_cell_angle_beta                 94.572(11)
_cell_angle_gamma                90
_cell_volume                     11718.9
loop_
_atom_site_label
_atom_site_type_symbol
_atom_site_fract_x
_atom_site_fract_y
_atom_site_fract_z
Cl1 Cl 0.19841(12) 0.30766(7) 0.55328(6)
O1 O 0.1575(4) 0.2607(2) 0.5370(2)
O2 O 0.1561(3) 0.3503(2) 0.5730(2)
O3 O 0.2504(4) 0.2909(2) 0.5926(2)
O4 O 0.2329(4) 0.3305(2) 0.5113(2)
Cl2 Cl 0.51623(10) 0.07190(7) 0.87036(9)
O5 O 0.4501(3) 0.0929(2) 0.8821(3)
O6 O 0.5234(3) 0.0134(2) 0.88283(19)
O7 O 0.5702(3) 0.1031(3) 0.8938(4)
O8 O 0.5195(4) 0.0764(3) 0.8137(2)
Cl3 Cl 0.08583(10) 0.13647(7) 0.26670(7)
O9 O 0.0808(4) 0.0921(3) 0.2308(3)
O10 O 0.0588(3) 0.1862(2) 0.2428(2)
O11 O 0.0454(3) 0.1231(3) 0.3085(2)
O12 O 0.1564(3) 0.1432(3) 0.2851(3)
O13 O 0.7476(4) 0.2561(5) 0.1710(4)
C100 C 0.7079(8) 0.2224(7) 0.1993(6)
H82 H 0.6908 0.2439 0.2279
H83 H 0.7364 0.1908 0.2136
C101 C 0.6508(7) 0.2019(7) 0.1677(6)
H84 H 0.6630 0.1667 0.1508
H85 H 0.6099 0.1952 0.1874
C102 C 0.6374(8) 0.2446(8) 0.1322(7)
H86 H 0.5978 0.2679 0.1414
H87 H 0.6262 0.2289 0.0977
C103 C 0.7005(9) 0.2775(8) 0.1335(7)
H88 H 0.7205 0.2758 0.1000
H89 H 0.6901 0.3170 0.1410
O14 O 0.0626(4) 0.6781(3) 0.3889(3)
C104 C 0.0153(6) 0.7180(5) 0.3708(4)
H90 H -0.0326 0.7027 0.3701
H91 H 0.0245 0.7286 0.3357
C105 C 0.0210(9) 0.7667(5) 0.4032(4)
H92 H 0.0490 0.7963 0.3884
H93 H -0.0256 0.7818 0.4092
C106 C 0.0555(9) 0.7449(5) 0.4490(4)
H94 H 0.0948 0.7694 0.4612
H95 H 0.0226 0.7422 0.4760
C107 C 0.0802(8) 0.6914(4) 0.4369(4)
H96 H 0.1316 0.6906 0.4431
H97 H 0.0607 0.6633 0.4594
O15 O 0.4175(10) 0.3793(5) 0.0895(5)
C108 C 0.3573(11) 0.4109(10) 0.0892(8)
H98 H 0.3164 0.3876 0.0956
H99 H 0.3479 0.4314 0.0567
C109 C 0.3755(15) 0.4490(9) 0.1315(9)
H100 H 0.4125 0.4757 0.1235
H101 H 0.3344 0.4700 0.1416
C110 C 0.4001(14) 0.4095(12) 0.1697(6)
H102 H 0.4251 0.4277 0.1996
H103 H 0.3622 0.3855 0.1808
C111 C 0.4454(13) 0.3803(10) 0.1397(7)
H104 H 0.4916 0.3989 0.1418
H105 H 0.4519 0.3416 0.1525
O16 O 0.7432(10) 0.6808(7) 0.0430(10)
C112 C 0.7303(13) 0.7343(10) 0.0559(10)
H106 H 0.7550 0.7444 0.0891
H107 H 0.6797 0.7413 0.0572
C113 C 0.7578(12) 0.7638(8) 0.0148(10)
H108 H 0.7551 0.8049 0.0182
H109 H 0.7374 0.7517 -0.0191
C114 C 0.8274(8) 0.7415(10) 0.0277(10)
H110 H 0.8597 0.7502 0.0013
H111 H 0.8475 0.7551 0.0612
C115 C 0.8103(11) 0.6841(9) 0.0287(12)
H112 H 0.8133 0.6672 -0.0053
H113 H 0.8428 0.6640 0.0535
O17 O 0.7907(9) 0.4991(10) 0.0300(8)
C116 C 0.8380(14) 0.4542(10) 0.0375(8)
H114 H 0.8137 0.4185 0.0291
H115 H 0.8565 0.4528 0.0736
C117 C 0.8948(11) 0.4616(11) 0.0051(9)
H116 H 0.8925 0.4336 -0.0227
H117 H 0.9406 0.4587 0.0249
C118 C 0.8825(13) 0.5178(11) -0.0146(9)
H118 H 0.9058 0.5461 0.0082
H119 H 0.8991 0.5218 -0.0491
C119 C 0.8076(13) 0.5226(9) -0.0160(8)
H120 H 0.7929 0.5622 -0.0184
H121 H 0.7849 0.5018 -0.0453
Cu1 Cu 0.06884(3) 0.63528(2) 0.77262(2)
Cu2 Cu 0.22089(3) 1.01291(3) 0.55025(2)
Cu3 Cu 0.01438(3) 0.80871(3) 1.16506(2)
N1 N 0.1150(2) 0.70252(18) 0.73722(17)
C1 C 0.1705(3) 0.7020(2) 0.7090(2)
H1 H 0.1978 0.6690 0.7090
C2 C 0.1901(3) 0.7470(2) 0.6799(2)
H2 H 0.2296 0.7440 0.6605
C3 C 0.1515(3) 0.7969(2) 0.67905(19)
C4 C 0.0947(3) 0.7974(2) 0.7091(2)
H3 H 0.0666 0.8299 0.7106
C5 C 0.0798(3) 0.7500(2) 0.7365(3)
H4 H 0.0409 0.7518 0.7565
C6 C 0.1682(3) 0.8462(2) 0.64757(19)
C7 C 0.2242(3) 0.8478(2) 0.6177(2)
H5 H 0.2543 0.8164 0.6169
C8 C 0.2369(3) 0.8944(2) 0.5890(2)
H6 H 0.2761 0.8939 0.5693
N2 N 0.1970(2) 0.94049(17) 0.58750(16)
C9 C 0.1424(3) 0.9393(2) 0.6161(2)
H7 H 0.1128 0.9711 0.6157
C10 C 0.1266(3) 0.8944(2) 0.6462(2)
H8 H 0.0875 0.8962 0.6661
N3 N 0.2311(2) 1.06856(17) 0.61397(16)
C11 C 0.2644(3) 1.0503(2) 0.6579(2)
H9 H 0.2636 1.0114 0.6649
C12 C 0.2997(3) 1.0849(2) 0.6935(2)
H10 H 0.3212 1.0696 0.7241
C13 C 0.3035(3) 1.1422(2) 0.6843(2)
C14 C 0.2657(3) 1.1613(2) 0.6402(2)
H11 H 0.2638 1.2002 0.6332
C15 C 0.2310(3) 1.1244(2) 0.6068(2)
H12 H 0.2058 1.1391 0.5773
C16 C 0.3452(3) 1.1803(2) 0.7192(2)
C17 C 0.3295(3) 1.2376(2) 0.7228(2)
H13 H 0.2913 1.2530 0.7024
C18 C 0.3697(3) 1.2713(2) 0.7559(2)
H14 H 0.3574 1.3096 0.7577
N4 N 0.4249(2) 1.25334(18) 0.78568(17)
C19 C 0.4409(3) 1.1991(2) 0.7810(2)
H15 H 0.4809 1.1853 0.8005
C20 C 0.4028(3) 1.1621(2) 0.7496(2)
H16 H 0.4162 1.1239 0.7489
N5 N 0.0542(2) 0.66689(18) 0.84465(16)
C21 C 0.0165(4) 0.6415(3) 0.8770(2)
H17 H -0.0070 0.6081 0.8662
C22 C 0.0088(4) 0.6605(3) 0.9259(2)
H18 H -0.0186 0.6399 0.9478
C23 C 0.0407(3) 0.7089(2) 0.9427(2)
C24 C 0.0808(5) 0.7348(3) 0.9097(3)
H19 H 0.1040 0.7686 0.9195
C25 C 0.0884(4) 0.7123(3) 0.8618(3)
H20 H 0.1193 0.7301 0.8405
C26 C 0.0322(3) 0.7323(2) 0.9948(2)
C27 C 0.0285(4) 0.6984(3) 1.0367(2)
H21 H 0.0297 0.6589 1.0329
C28 C 0.0231(4) 0.7216(2) 1.0838(2)
H22 H 0.0220 0.6969 1.1120
N6 N 0.0192(2) 0.77609(18) 1.09297(16)
C29 C 0.0228(4) 0.8090(2) 1.0523(2)
H23 H 0.0205 0.8483 1.0570
C30 C 0.0296(4) 0.7891(3) 1.0036(2)
H24 H 0.0324 0.8145 0.9762
N7 N 0.1490(2) 0.58007(17) 0.79433(17)
C31 C 0.1351(3) 0.5257(2) 0.8016(3)
H25 H 0.0879 0.5137 0.7978
C32 C 0.1863(3) 0.4865(2) 0.8144(3)
H26 H 0.1739 0.4485 0.8190
C33 C 0.2551(3) 0.5023(2) 0.8204(2)
C34 C 0.2695(3) 0.5582(2) 0.8146(3)
H27 H 0.3162 0.5713 0.8192
C35 C 0.2156(3) 0.5955(2) 0.8019(2)
H28 H 0.2267 0.6339 0.7984
C36 C 0.3114(3) 0.4596(2) 0.8297(2)
C37 C 0.3011(3) 0.4092(2) 0.8536(2)
H29 H 0.2579 0.4020 0.8674
C38 C 0.3533(3) 0.3690(2) 0.8578(2)
H30 H 0.3442 0.3348 0.8743
N8 N 0.4163(2) 0.37604(18) 0.83955(17)
C39 C 0.4274(3) 0.4265(2) 0.8187(2)
H31 H 0.4721 0.4336 0.8071
C40 C 0.3782(3) 0.4685(2) 0.8131(2)
H32 H 0.3894 0.5032 0.7981
N9 N 0.3270(2) 1.00146(17) 0.54160(16)
C41 C 0.3479(3) 0.9636(2) 0.5077(2)
H33 H 0.3147 0.9368 0.4947
C42 C 0.4136(3) 0.9612(2) 0.4909(2)
H34 H 0.4246 0.9331 0.4673
C43 C 0.4644(3) 1.0002(2) 0.50845(19)
C44 C 0.4431(3) 1.0398(3) 0.5433(2)
H35 H 0.4749 1.0675 0.5564
C45 C 0.3762(3) 1.0387(3) 0.5585(2)
H36 H 0.3640 1.0659 0.5824
P1 P -0.01468(7) 0.59817(5) 0.72014(5)
C46 C 0.2421(3) 1.1079(2) 0.46014(19)
C47 C 0.2301(3) 1.1644(2) 0.4705(2)
H37 H 0.1884 1.1756 0.4847
C48 C 0.2807(4) 1.2045(3) 0.4597(2)
H38 H 0.2726 1.2429 0.4664
C49 C 0.3418(4) 1.1888(3) 0.4395(3)
H39 H 0.3752 1.2164 0.4322
C50 C 0.3544(4) 1.1340(3) 0.4299(3)
H40 H 0.3967 1.1234 0.4162
C51 C 0.3048(3) 1.0928(3) 0.4402(2)
H41 H 0.3140 1.0546 0.4337
C52 C 0.1799(3) 1.0092(3) 0.4183(2)
C53 C 0.1847(3) 0.9513(3) 0.4234(3)
H42 H 0.1866 0.9344 0.4561
C54 C 0.1868(4) 0.9182(3) 0.3792(3)
H43 H 0.1901 0.8787 0.3818
C55 C 0.1839(4) 0.9436(4) 0.3325(3)
H44 H 0.1869 0.9215 0.3029
C56 C 0.1767(4) 0.9995(4) 0.3279(3)
H45 H 0.1727 1.0161 0.2950
C57 C 0.1753(4) 1.0330(3) 0.3709(2)
H46 H 0.1711 1.0724 0.3675
C58 C 0.0957(3) 1.0847(2) 0.4762(2)
C59 C 0.0689(3) 1.1229(3) 0.4389(3)
H47 H 0.0967 1.1337 0.4123
C60 C 0.0031(4) 1.1448(3) 0.4406(3)
H48 H -0.0141 1.1707 0.4153
C61 C -0.0379(4) 1.1294(3) 0.4785(3)
H49 H -0.0833 1.1448 0.4794
C62 C -0.0136(4) 1.0917(3) 0.5154(3)
H50 H -0.0425 1.0801 0.5410
C63 C 0.0544(3) 1.0706(3) 0.5145(2)
H51 H 0.0722 1.0461 0.5409
P2 P 0.18204(8) 1.05229(6) 0.47710(5)
C64 C 0.0185(3) 0.5350(2) 0.69030(19)
C65 C 0.0862(3) 0.5369(3) 0.6743(2)
H52 H 0.1122 0.5706 0.6775
C66 C 0.1152(4) 0.4899(3) 0.6539(2)
H53 H 0.1607 0.4918 0.6425
C67 C 0.0783(4) 0.4402(3) 0.6501(2)
H54 H 0.0989 0.4079 0.6366
C68 C 0.0130(4) 0.4377(3) 0.6656(3)
H55 H -0.0123 0.4035 0.6628
C69 C -0.0179(4) 0.4851(2) 0.6859(2)
H56 H -0.0638 0.4829 0.6965
C70 C -0.0469(3) 0.6425(2) 0.6663(2)
C71 C -0.0493(3) 0.6256(2) 0.6159(2)
H57 H -0.0346 0.5889 0.6080
C72 C -0.0729(3) 0.6614(3) 0.5766(2)
H58 H -0.0743 0.6492 0.5423
C73 C -0.0946(4) 0.7152(3) 0.5879(2)
H59 H -0.1096 0.7402 0.5612
C74 C -0.0940(4) 0.7320(3) 0.6383(3)
H60 H -0.1105 0.7682 0.6463
C75 C -0.0695(4) 0.6962(2) 0.6772(2)
H61 H -0.0682 0.7084 0.7115
C76 C -0.0950(3) 0.5735(2) 0.7470(2)
C77 C -0.1623(3) 0.5861(2) 0.7269(2)
H62 H -0.1690 0.6090 0.6975
C78 C -0.2194(3) 0.5655(3) 0.7496(3)
H63 H -0.2651 0.5749 0.7358
C79 C -0.2109(3) 0.5317(3) 0.7919(3)
H64 H -0.2504 0.5176 0.8072
C80 C -0.1445(4) 0.5183(3) 0.8119(2)
H65 H -0.1383 0.4947 0.8409
C81 C -0.0873(3) 0.5391(2) 0.7902(2)
H66 H -0.0419 0.5300 0.8046
P3 P -0.08343(8) 0.82854(6) 1.20051(5)
C82 C -0.1591(3) 0.8554(2) 1.1619(2)
C83 C -0.1488(4) 0.8861(3) 1.1182(2)
H67 H -0.1029 0.8905 1.1078
C84 C -0.2049(4) 0.9104(4) 1.0894(3)
H68 H -0.1971 0.9320 1.0601
C85 C -0.2715(4) 0.9029(4) 1.1035(3)
H69 H -0.3097 0.9187 1.0834
C86 C -0.2833(4) 0.8728(3) 1.1465(3)
H70 H -0.3294 0.8681 1.1562
C87 C -0.2265(3) 0.8492(3) 1.1758(2)
H71 H -0.2346 0.8286 1.2056
C88 C -0.1178(3) 0.7681(3) 1.2324(2)
C89 C -0.1311(8) 0.7203(6) 1.1932(7)
H72 H -0.1255 0.7264 1.1581
C90 C -0.1512(9) 0.6690(7) 1.2102(8)
H73 H -0.1580 0.6382 1.1876
C91 C -0.1610(9) 0.6640(8) 1.2602(9)
H74 H -0.1747 0.6281 1.2711
C92 C -0.1540(7) 0.7026(8) 1.2958(6)
H75 H -0.1627 0.6958 1.3303
C93 C -0.1313(7) 0.7575(7) 1.2775(5)
H76 H -0.1265 0.7871 1.3016
C94 C -0.0686(3) 0.8813(2) 1.2506(2)
C95 C -0.0997(4) 0.9337(3) 1.2480(3)
H77 H -0.1365 0.9410 1.2226
C96 C -0.0778(5) 0.9757(4) 1.2820(4)
H78 H -0.0990 1.0116 1.2792
C97 C -0.0267(5) 0.9659(4) 1.3191(4)
H79 H -0.0115 0.9949 1.3420
C98 C 0.0034(4) 0.9138(4) 1.3238(3)
H80 H 0.0382 0.9066 1.3506
C99 C -0.0169(3) 0.8713(3) 1.2893(2)
H81 H 0.0046 0.8357 1.2924
Cu1A Cu 0.43116(3) 0.13528(2) 1.22738(2)
Cu1A_2 Cu 0.43116(3) 1.13528(2) 1.22738(2)
Cu2A Cu 0.27911(3) 0.51291(3) 1.44975(2)
Cu2B Cu 0.77911(3) 0.98709(3) 0.44975(2)
Cu3A Cu 0.48562(3) 0.30871(3) 0.83494(2)
Cu3A_2 Cu 0.48562(3) 1.30871(3) 0.83494(2)
N1A N 0.3850(2) 0.20252(18) 1.26278(17)
C1A C 0.3295(3) 0.2020(2) 1.2910(2)
H1A H 0.3022 0.1690 1.2910
C2A C 0.3099(3) 0.2470(2) 1.3201(2)
H2A H 0.2704 0.2440 1.3395
C3A C 0.3485(3) 0.2969(2) 1.32095(19)
C4A C 0.4053(3) 0.2974(2) 1.2909(2)
H3A H 0.4334 0.3299 1.2894
C5A C 0.4202(3) 0.2500(2) 1.2635(3)
H4A H 0.4591 0.2518 1.2435
C6A C 0.3318(3) 0.3462(2) 1.35243(19)
C7A C 0.2758(3) 0.3478(2) 1.3823(2)
H5A H 0.2457 0.3164 1.3831
C8A C 0.2631(3) 0.3944(2) 1.4110(2)
H6A H 0.2239 0.3939 1.4307
N2A N 0.3030(2) 0.44049(17) 1.41250(16)
C9A C 0.3576(3) 0.4393(2) 1.3839(2)
H7A H 0.3872 0.4711 1.3843
C10A C 0.3734(3) 0.3944(2) 1.3538(2)
H8A H 0.4125 0.3962 1.3339
N3A N 0.2689(2) 0.56856(17) 1.38603(16)
C11A C 0.2356(3) 0.5503(2) 1.3421(2)
H9A H 0.2364 0.5114 1.3351
C12A C 0.2003(3) 0.5849(2) 1.3065(2)
H10A H 0.1788 0.5696 1.2759
C13A C 0.1965(3) 0.6422(2) 1.3157(2)
C14A C 0.2343(3) 0.6613(2) 1.3598(2)
H11A H 0.2362 0.7002 1.3668
C15A C 0.2690(3) 0.6244(2) 1.3932(2)
H12A H 0.2942 0.6391 1.4227
C16A C 0.1548(3) 0.6803(2) 1.2808(2)
C17A C 0.1705(3) 0.7376(2) 1.2772(2)
H13A H 0.2087 0.7530 1.2976
C18A C 0.1303(3) 0.7713(2) 1.2441(2)
H14A H 0.1426 0.8096 1.2423
N4A N 0.0751(2) 0.75334(18) 1.21432(17)
N4_2 N 0.4249(2) 0.25334(18) 0.78568(17)
C19A C 0.0591(3) 0.6991(2) 1.2190(2)
H15A H 0.0191 0.6853 1.1995
C20A C 0.0972(3) 0.6621(2) 1.2504(2)
H16A H 0.0838 0.6239 1.2511
N5A N 0.4458(2) 0.16689(18) 1.15535(16)
C21A C 0.4835(4) 0.1415(3) 1.1230(2)
H17A H 0.5070 0.1081 1.1338
C22A C 0.4912(4) 0.1605(3) 1.0741(2)
H18A H 0.5186 0.1399 1.0522
C23A C 0.4593(3) 0.2089(2) 1.0573(2)
C24A C 0.4192(5) 0.2348(3) 1.0903(3)
H19A H 0.3960 0.2686 1.0805
C25A C 0.4116(4) 0.2123(3) 1.1382(3)
H20A H 0.3807 0.2301 1.1595
C26A C 0.4678(3) 0.2323(2) 1.0052(2)
C27A C 0.4715(4) 0.1984(3) 0.9633(2)
H21A H 0.4703 0.1589 0.9671
C28A C 0.4769(4) 0.2216(2) 0.9162(2)
H22A H 0.4780 0.1969 0.8880
N6A N 0.4808(2) 0.27609(18) 0.90703(16)
C29A C 0.4772(4) 0.3090(2) 0.9477(2)
H23A H 0.4795 0.3483 0.9430
C30A C 0.4704(4) 0.2891(3) 0.9964(2)
H24A H 0.4676 0.3145 1.0238
N7A N 0.3510(2) 1.08007(17) 1.20567(17)
N7A_2 N 0.3510(2) 0.08007(17) 1.20567(17)
C31A C 0.3649(3) 1.0257(2) 1.1984(3)
H25A H 0.4121 1.0137 1.2022
C32A C 0.3137(3) 0.9865(2) 1.1856(3)
H26A H 0.3261 0.9485 1.1810
C33A C 0.2449(3) 1.0023(2) 1.1796(2)
C34A C 0.2305(3) 1.0582(2) 1.1854(3)
H27A H 0.1838 1.0713 1.1808
C35A C 0.2844(3) 1.0955(2) 1.1981(2)
H28A H 0.2733 1.1339 1.2016
C36A C 0.1886(3) 0.9596(2) 1.1703(2)
C37A C 0.1989(3) 0.9092(2) 1.1464(2)
H29A H 0.2421 0.9020 1.1326
C38A C 0.1467(3) 0.8690(2) 1.1422(2)
H30A H 0.1558 0.8348 1.1257
N8A N 0.0837(2) 0.87604(18) 1.16045(17)
C39A C 0.0726(3) 0.9265(2) 1.1813(2)
H31A H 0.0279 0.9336 1.1929
C40A C 0.1218(3) 0.9685(2) 1.1869(2)
H32A H 0.1106 1.0032 1.2019
N9B N 0.6730(2) 0.99854(17) 0.45840(16)
N9A N 0.1730(2) 0.50146(17) 1.45840(16)
C41B C 0.6521(3) 1.0364(2) 0.4923(2)
H33B H 0.6853 1.0632 0.5053
C42B C 0.5864(3) 1.0388(2) 0.5091(2)
H34B H 0.5754 1.0669 0.5327
C43B C 0.5356(3) 0.9998(2) 0.49155(19)
C44B C 0.5569(3) 0.9602(3) 0.4567(2)
H35B H 0.5251 0.9325 0.4436
C45B C 0.6238(3) 0.9613(3) 0.4415(2)
H36B H 0.6360 0.9341 0.4176
P1A P 0.51468(7) 0.09817(5) 1.27986(5)
C46A C 0.2579(3) 0.6079(2) 1.53986(19)
C47A C 0.2699(3) 0.6644(2) 1.5295(2)
H37A H 0.3116 0.6756 1.5153
C48A C 0.2193(4) 0.7045(3) 1.5403(2)
H38A H 0.2274 0.7429 1.5336
C49A C 0.1582(4) 0.6888(3) 1.5605(3)
H39A H 0.1248 0.7164 1.5678
C50A C 0.1456(4) 0.6340(3) 1.5701(3)
H40A H 0.1033 0.6234 1.5838
C51A C 0.1952(3) 0.5928(3) 1.5598(2)
H41A H 0.1860 0.5546 1.5663
C52A C 0.3201(3) 0.5092(3) 1.5817(2)
C53A C 0.3153(3) 0.4513(3) 1.5766(3)
H42A H 0.3134 0.4344 1.5439
C54A C 0.3132(4) 0.4182(3) 1.6208(3)
H43A H 0.3099 0.3787 1.6182
C55A C 0.3161(4) 0.4436(4) 1.6675(3)
H44A H 0.3131 0.4215 1.6971
C56A C 0.3233(4) 0.4995(4) 1.6721(3)
H45A H 0.3273 0.5161 1.7050
C57A C 0.3247(4) 0.5330(3) 1.6291(2)
H46A H 0.3289 0.5724 1.6325
C58A C 0.4043(3) 0.5847(2) 1.5238(2)
C59A C 0.4311(3) 0.6229(3) 1.5611(3)
H47A H 0.4033 0.6337 1.5877
C60A C 0.4969(4) 0.6448(3) 1.5594(3)
H48A H 0.5141 0.6707 1.5847
C61A C 0.5379(4) 0.6294(3) 1.5215(3)
H49A H 0.5833 0.6448 1.5206
C62A C 0.5136(4) 0.5917(3) 1.4846(3)
H50A H 0.5425 0.5801 1.4590
C63A C 0.4456(3) 0.5706(3) 1.4855(2)
H51A H 0.4278 0.5461 1.4591
P2A P 0.31796(8) 0.55229(6) 1.52290(5)
C64A C 0.4815(3) 0.0350(2) 1.30970(19)
C65A C 0.4138(3) 0.0369(3) 1.3257(2)
H52A H 0.3878 0.0706 1.3225
C66A C 0.3848(4) -0.0101(3) 1.3461(2)
H53A H 0.3393 -0.0082 1.3575
C67A C 0.4217(4) -0.0598(3) 1.3499(2)
H54A H 0.4011 -0.0921 1.3634
C68A C 0.4870(4) -0.0623(3) 1.3344(3)
H55A H 0.5123 -0.0965 1.3372
C69A C 0.5179(4) -0.0149(2) 1.3141(2)
H56A H 0.5638 -0.0171 1.3035
C70A C 0.5469(3) 0.1425(2) 1.3337(2)
C71A C 0.5493(3) 0.1256(2) 1.3841(2)
H57A H 0.5346 0.0889 1.3920
C72A C 0.5729(3) 0.1614(3) 1.4234(2)
H58A H 0.5743 0.1492 1.4577
C73A C 0.5946(4) 0.2152(3) 1.4121(2)
H59A H 0.6096 0.2402 1.4388
C74A C 0.5940(4) 0.2320(3) 1.3617(3)
H60A H 0.6105 0.2682 1.3537
C75A C 0.5695(4) 0.1962(2) 1.3228(2)
H61A H 0.5682 0.2084 1.2885
C76A C 0.5950(3) 0.0735(2) 1.2530(2)
C77A C 0.6623(3) 0.0861(2) 1.2731(2)
H62A H 0.6690 0.1090 1.3025
C78A C 0.7194(3) 0.0655(3) 1.2504(3)
H63A H 0.7651 0.0749 1.2642
C79A C 0.7109(3) 0.0317(3) 1.2081(3)
H64A H 0.7504 0.0176 1.1928
C80A C 0.6445(4) 0.0183(3) 1.1881(2)
H65A H 0.6383 -0.0053 1.1591
C81A C 0.5873(3) 0.0391(2) 1.2098(2)
H66A H 0.5419 0.0300 1.1954
P3A P 0.58343(8) 0.32854(6) 0.79949(5)
C82A C 0.6591(3) 0.3554(2) 0.8381(2)
C83A C 0.6488(4) 0.3861(3) 0.8818(2)
H67A H 0.6029 0.3905 0.8922
C84A C 0.7049(4) 0.4104(4) 0.9106(3)
H68A H 0.6971 0.4320 0.9399
C85A C 0.7715(4) 0.4029(4) 0.8965(3)
H69A H 0.8097 0.4187 0.9166
C86A C 0.7833(4) 0.3728(3) 0.8535(3)
H70A H 0.8294 0.3681 0.8438
C87A C 0.7265(3) 0.3492(3) 0.8242(2)
H71A H 0.7346 0.3286 0.7944
C88A C 0.6178(3) 0.2681(3) 0.7676(2)
C89A C 0.6311(8) 0.2203(6) 0.8068(7)
H72A H 0.6255 0.2264 0.8419
C90A C 0.6512(9) 0.1690(7) 0.7898(8)
H73A H 0.6580 0.1382 0.8124
C91A C 0.6610(9) 0.1640(8) 0.7398(9)
H74A H 0.6747 0.1281 0.7289
C92A C 0.6540(7) 0.2026(8) 0.7042(6)
H75A H 0.6627 0.1958 0.6697
C93A C 0.6313(7) 0.2575(7) 0.7225(5)
H76A H 0.6265 0.2871 0.6984
C94A C 0.5686(3) 0.3813(2) 0.7494(2)
C95A C 0.5997(4) 0.4337(3) 0.7520(3)
H77A H 0.6365 0.4410 0.7774
C96A C 0.5778(5) 0.4757(4) 0.7180(4)
H78A H 0.5990 0.5116 0.7208
C97A C 0.5267(5) 0.4659(4) 0.6809(4)
H79A H 0.5115 0.4949 0.6580
C98A C 0.4966(4) 0.4138(4) 0.6762(3)
H80A H 0.4618 0.4066 0.6494
C99A C 0.5169(3) 0.3713(3) 0.7107(2)
H81A H 0.4954 0.3357 0.7076
C120? C 0.6189(9) 1.2194(7) 0.7845(8)
C121? C 0.6474(12) 1.1712(10) 0.7617(12)
C122? C 0.6651(9) 1.1781(9) 0.7130(8)
C123? C 0.6577(8) 1.2295(8) 0.6871(7)
C124? C 0.6348(9) 1.2787(9) 0.7119(6)
H122? H 0.5987 1.2138 0.8158
H123? H 0.6535 1.1366 0.7792
H124? H 0.6833 1.1471 0.6959
H125? H 0.6680 1.2315 0.6525
H126? H 0.6305 1.3143 0.6959
loop_
_geom_bond_atom_site_label_1
_geom_bond_atom_site_label_2
_geom_bond_site_symmetry_1
_geom_bond_site_symmetry_2
Cu1 N1 1_555 1_555
Cu2 N2 1_555 1_555
Cu3 N6 1_555 1_555
N1 C1 1_555 1_555
C1 H1 1_555 1_555
C2 C1 1_555 1_555
H2 C2 1_555 1_555
C3 C2 1_555 1_555
C4 C3 1_555 1_555
H3 C4 1_555 1_555
C5 N1 1_555 1_555
H4 C5 1_555 1_555
C6 C3 1_555 1_555
C7 C6 1_555 1_555
H5 C7 1_555 1_555
C8 C7 1_555 1_555
H6 C8 1_555 1_555
N2 C8 1_555 1_555
C9 N2 1_555 1_555
H7 C9 1_555 1_555
C10 C6 1_555 1_555
H8 C10 1_555 1_555
N3 Cu2 1_555 1_555
C11 N3 1_555 1_555
H9 C11 1_555 1_555
C12 C11 1_555 1_555
H10 C12 1_555 1_555
C13 C12 1_555 1_555
C14 C13 1_555 1_555
H11 C14 1_555 1_555
C15 N3 1_555 1_555
H12 C15 1_555 1_555
C16 C13 1_555 1_555
C17 C16 1_555 1_555
H13 C17 1_555 1_555
C18 C17 1_555 1_555
H14 C18 1_555 1_555
N4 C18 1_555 1_555
C19 N4 1_555 1_555
H15 C19 1_555 1_555
C20 C16 1_555 1_555
H16 C20 1_555 1_555
N5 Cu1 1_555 1_555
C21 N5 1_555 1_555
H17 C21 1_555 1_555
C22 C21 1_555 1_555
H18 C22 1_555 1_555
C23 C22 1_555 1_555
C24 C23 1_555 1_555
H19 C24 1_555 1_555
C25 N5 1_555 1_555
H20 C25 1_555 1_555
C26 C23 1_555 1_555
C27 C26 1_555 1_555
H21 C27 1_555 1_555
C28 C27 1_555 1_555
H22 C28 1_555 1_555
N6 C28 1_555 1_555
C29 N6 1_555 1_555
H23 C29 1_555 1_555
C30 C26 1_555 1_555
H24 C30 1_555 1_555
N7 Cu1 1_555 1_555
C31 N7 1_555 1_555
H25 C31 1_555 1_555
C32 C31 1_555 1_555
H26 C32 1_555 1_555
C33 C32 1_555 1_555
C34 C33 1_555 1_555
H27 C34 1_555 1_555
C35 N7 1_555 1_555
H28 C35 1_555 1_555
C36 C33 1_555 1_555
C37 C36 1_555 1_555
H29 C37 1_555 1_555
C38 C37 1_555 1_555
H30 C38 1_555 1_555
N8 C38 1_555 1_555
C39 N8 1_555 1_555
H31 C39 1_555 1_555
C40 C36 1_555 1_555
H32 C40 1_555 1_555
N9 Cu2 1_555 1_555
C41 N9 1_555 1_555
H33 C41 1_555 1_555
C42 C41 1_555 1_555
H34 C42 1_555 1_555
C43 C42 1_555 1_555
C44 C43 1_555 1_555
H35 C44 1_555 1_555
C45 N9 1_555 1_555
H36 C45 1_555 1_555
P1 Cu1 1_555 1_555
C46 C47 1_555 1_555
C47 H37 1_555 1_555
C48 C47 1_555 1_555
H38 C48 1_555 1_555
C49 C48 1_555 1_555
H39 C49 1_555 1_555
C50 C49 1_555 1_555
H40 C50 1_555 1_555
C51 C46 1_555 1_555
H41 C51 1_555 1_555
C52 C53 1_555 1_555
C53 H42 1_555 1_555
C54 C53 1_555 1_555
H43 C54 1_555 1_555
C55 C54 1_555 1_555
H44 C55 1_555 1_555
C56 C55 1_555 1_555
H45 C56 1_555 1_555
C57 C52 1_555 1_555
H46 C57 1_555 1_555
C58 C59 1_555 1_555
C59 H47 1_555 1_555
C60 C59 1_555 1_555
H48 C60 1_555 1_555
C61 C60 1_555 1_555
H49 C61 1_555 1_555
C62 C61 1_555 1_555
H50 C62 1_555 1_555
C63 C58 1_555 1_555
H51 C63 1_555 1_555
P2 Cu2 1_555 1_555
C64 P1 1_555 1_555
C65 C64 1_555 1_555
H52 C65 1_555 1_555
C66 C65 1_555 1_555
H53 C66 1_555 1_555
C67 C66 1_555 1_555
H54 C67 1_555 1_555
C68 C67 1_555 1_555
H55 C68 1_555 1_555
C69 C64 1_555 1_555
H56 C69 1_555 1_555
C70 P1 1_555 1_555
C71 C70 1_555 1_555
H57 C71 1_555 1_555
C72 C71 1_555 1_555
H58 C72 1_555 1_555
C73 C72 1_555 1_555
H59 C73 1_555 1_555
C74 C73 1_555 1_555
H60 C74 1_555 1_555
C75 C70 1_555 1_555
H61 C75 1_555 1_555
C76 P1 1_555 1_555
C77 C76 1_555 1_555
H62 C77 1_555 1_555
C78 C77 1_555 1_555
H63 C78 1_555 1_555
C79 C78 1_555 1_555
H64 C79 1_555 1_555
C80 C79 1_555 1_555
H65 C80 1_555 1_555
C81 C76 1_555 1_555
H66 C81 1_555 1_555
P3 Cu3 1_555 1_555
C82 P3 1_555 1_555
C83 C82 1_555 1_555
H67 C83 1_555 1_555
C84 C83 1_555 1_555
H68 C84 1_555 1_555
C85 C84 1_555 1_555
H69 C85 1_555 1_555
C86 C85 1_555 1_555
H70 C86 1_555 1_555
C87 C82 1_555 1_555
H71 C87 1_555 1_555
C88 P3 1_555 1_555
C89 C88 1_555 1_555
H72 C89 1_555 1_555
C90 C89 1_555 1_555
H73 C90 1_555 1_555
C91 C90 1_555 1_555
H74 C91 1_555 1_555
C92 C91 1_555 1_555
H75 C92 1_555 1_555
C93 C88 1_555 1_555
H76 C93 1_555 1_555
C94 P3 1_555 1_555
C95 C94 1_555 1_555
H77 C95 1_555 1_555
C96 C95 1_555 1_555
H78 C96 1_555 1_555
C97 C96 1_555 1_555
H79 C97 1_555 1_555
C98 C97 1_555 1_555
H80 C98 1_555 1_555
C99 C94 1_555 1_555
H81 C99 1_555 1_555
Cl1 O1 1_555 1_555
O2 Cl1 1_555 1_555
O3 Cl1 1_555 1_555
O4 Cl1 1_555 1_555
Cl2 O5 1_555 1_555
O6 Cl2 1_555 1_555
O7 Cl2 1_555 1_555
O8 Cl2 1_555 1_555
Cl3 O9 1_555 1_555
O10 Cl3 1_555 1_555
O11 Cl3 1_555 1_555
O12 Cl3 1_555 1_555
O13 C100 1_555 1_555
C100 H82 1_555 1_555
H83 C100 1_555 1_555
C101 C100 1_555 1_555
H84 C101 1_555 1_555
H85 C101 1_555 1_555
C102 C101 1_555 1_555
H86 C102 1_555 1_555
H87 C102 1_555 1_555
C103 O13 1_555 1_555
H88 C103 1_555 1_555
H89 C103 1_555 1_555
O14 C104 1_555 1_555
C104 H90 1_555 1_555
H91 C104 1_555 1_555
C105 C104 1_555 1_555
H92 C105 1_555 1_555
H93 C105 1_555 1_555
C106 C105 1_555 1_555
H94 C106 1_555 1_555
H95 C106 1_555 1_555
C107 O14 1_555 1_555
H96 C107 1_555 1_555
H97 C107 1_555 1_555
O15 C108 1_555 1_555
C108 H98 1_555 1_555
H99 C108 1_555 1_555
C109 C108 1_555 1_555
H100 C109 1_555 1_555
H101 C109 1_555 1_555
C110 C109 1_555 1_555
H102 C110 1_555 1_555
H103 C110 1_555 1_555
C111 O15 1_555 1_555
H104 C111 1_555 1_555
H105 C111 1_555 1_555
O16 C112 1_555 1_555
C112 H106 1_555 1_555
H107 C112 1_555 1_555
C113 C112 1_555 1_555
H108 C113 1_555 1_555
H109 C113 1_555 1_555
C114 C113 1_555 1_555
H110 C114 1_555 1_555
H111 C114 1_555 1_555
C115 O16 1_555 1_555
H112 C115 1_555 1_555
H113 C115 1_555 1_555
O17 C116 1_555 1_555
C116 H114 1_555 1_555
H115 C116 1_555 1_555
C117 C116 1_555 1_555
H116 C117 1_555 1_555
H117 C117 1_555 1_555
C118 C117 1_555 1_555
H118 C118 1_555 1_555
H119 C118 1_555 1_555
C119 O17 1_555 1_555
H120 C119 1_555 1_555
H121 C119 1_555 1_555
Cu1A N1A 1_555 1_555
Cu1A_2 N7A 1_555 1_555
Cu2A N2A 1_555 1_555
Cu2B N9B 1_555 1_555
Cu3A N8 1_555 1_555
Cu3A_2 N4 1_555 1_555
N1A C1A 1_555 1_555
C1A H1A 1_555 1_555
C2A C1A 1_555 1_555
H2A C2A 1_555 1_555
C3A C2A 1_555 1_555
C4A C3A 1_555 1_555
H3A C4A 1_555 1_555
C5A N1A 1_555 1_555
H4A C5A 1_555 1_555
C6A C3A 1_555 1_555
C7A C6A 1_555 1_555
H5A C7A 1_555 1_555
C8A C7A 1_555 1_555
H6A C8A 1_555 1_555
N2A C8A 1_555 1_555
C9A N2A 1_555 1_555
H7A C9A 1_555 1_555
C10A C6A 1_555 1_555
H8A C10A 1_555 1_555
N3A Cu2A 1_555 1_555
C11A N3A 1_555 1_555
H9A C11A 1_555 1_555
C12A C11A 1_555 1_555
H10A C12A 1_555 1_555
C13A C12A 1_555 1_555
C14A C13A 1_555 1_555
H11A C14A 1_555 1_555
C15A N3A 1_555 1_555
H12A C15A 1_555 1_555
C16A C13A 1_555 1_555
C17A C16A 1_555 1_555
H13A C17A 1_555 1_555
C18A C17A 1_555 1_555
H14A C18A 1_555 1_555
N4A Cu3 1_555 1_555
N4_2 Cu3A 1_555 1_555
C19A N4A 1_555 1_555
H15A C19A 1_555 1_555
C20A C16A 1_555 1_555
H16A C20A 1_555 1_555
N5A Cu1A 1_555 1_555
C21A N5A 1_555 1_555
H17A C21A 1_555 1_555
C22A C21A 1_555 1_555
H18A C22A 1_555 1_555
C23A C22A 1_555 1_555
C24A C23A 1_555 1_555
H19A C24A 1_555 1_555
C25A N5A 1_555 1_555
H20A C25A 1_555 1_555
C26A C23A 1_555 1_555
C27A C26A 1_555 1_555
H21A C27A 1_555 1_555
C28A C27A 1_555 1_555
H22A C28A 1_555 1_555
N6A Cu3A 1_555 1_555
C29A N6A 1_555 1_555
H23A C29A 1_555 1_555
C30A C26A 1_555 1_555
H24A C30A 1_555 1_555
N7A C31A 1_555 1_555
N7A_2 Cu1A 1_555 1_555
C31A H25A 1_555 1_555
C32A C31A 1_555 1_555
H26A C32A 1_555 1_555
C33A C32A 1_555 1_555
C34A C33A 1_555 1_555
H27A C34A 1_555 1_555
C35A N7A 1_555 1_555
H28A C35A 1_555 1_555
C36A C33A 1_555 1_555
C37A C36A 1_555 1_555
H29A C37A 1_555 1_555
C38A C37A 1_555 1_555
H30A C38A 1_555 1_555
N8A Cu3 1_555 1_555
C39A N8A 1_555 1_555
H31A C39A 1_555 1_555
C40A C36A 1_555 1_555
H32A C40A 1_555 1_555
N9B C41B 1_555 1_555
N9A Cu2A 1_555 1_555
C41B H33B 1_555 1_555
C42B C41B 1_555 1_555
H34B C42B 1_555 1_555
C43B C43 1_555 1_555
C44B C43B 1_555 1_555
H35B C44B 1_555 1_555
C45B N9B 1_555 1_555
H36B C45B 1_555 1_555
P1A Cu1A 1_555 1_555
C46A C47A 1_555 1_555
C47A H37A 1_555 1_555
C48A C47A 1_555 1_555
H38A C48A 1_555 1_555
C49A C48A 1_555 1_555
H39A C49A 1_555 1_555
C50A C49A 1_555 1_555
H40A C50A 1_555 1_555
C51A C46A 1_555 1_555
H41A C51A 1_555 1_555
C52A C53A 1_555 1_555
C53A H42A 1_555 1_555
C54A C53A 1_555 1_555
H43A C54A 1_555 1_555
C55A C54A 1_555 1_555
H44A C55A 1_555 1_555
C56A C55A 1_555 1_555
H45A C56A 1_555 1_555
C57A C52A 1_555 1_555
H46A C57A 1_555 1_555
C58A C59A 1_555 1_555
C59A H47A 1_555 1_555
C60A C59A 1_555 1_555
H48A C60A 1_555 1_555
C61A C60A 1_555 1_555
H49A C61A 1_555 1_555
C62A C61A 1_555 1_555
H50A C62A 1_555 1_555
C63A C58A 1_555 1_555
H51A C63A 1_555 1_555
P2A Cu2A 1_555 1_555
C64A P1A 1_555 1_555
C65A C64A 1_555 1_555
H52A C65A 1_555 1_555
C66A C65A 1_555 1_555
H53A C66A 1_555 1_555
C67A C66A 1_555 1_555
H54A C67A 1_555 1_555
C68A C67A 1_555 1_555
H55A C68A 1_555 1_555
C69A C64A 1_555 1_555
H56A C69A 1_555 1_555
C70A P1A 1_555 1_555
C71A C70A 1_555 1_555
H57A C71A 1_555 1_555
C72A C71A 1_555 1_555
H58A C72A 1_555 1_555
C73A C72A 1_555 1_555
H59A C73A 1_555 1_555
C74A C73A 1_555 1_555
H60A C74A 1_555 1_555
C75A C70A 1_555 1_555
H61A C75A 1_555 1_555
C76A P1A 1_555 1_555
C77A C76A 1_555 1_555
H62A C77A 1_555 1_555
C78A C77A 1_555 1_555
H63A C78A 1_555 1_555
C79A C78A 1_555 1_555
H64A C79A 1_555 1_555
C80A C79A 1_555 1_555
H65A C80A 1_555 1_555
C81A C76A 1_555 1_555
H66A C81A 1_555 1_555
P3A Cu3A 1_555 1_555
C82A P3A 1_555 1_555
C83A C82A 1_555 1_555
H67A C83A 1_555 1_555
C84A C83A 1_555 1_555
H68A C84A 1_555 1_555
C85A C84A 1_555 1_555
H69A C85A 1_555 1_555
C86A C85A 1_555 1_555
H70A C86A 1_555 1_555
C87A C82A 1_555 1_555
H71A C87A 1_555 1_555
C88A P3A 1_555 1_555
C89A C88A 1_555 1_555
H72A C89A 1_555 1_555
C90A C89A 1_555 1_555
H73A C90A 1_555 1_555
C91A C90A 1_555 1_555
H74A C91A 1_555 1_555
C92A C91A 1_555 1_555
H75A C92A 1_555 1_555
C93A C88A 1_555 1_555
H76A C93A 1_555 1_555
C94A P3A 1_555 1_555
C95A C94A 1_555 1_555
H77A C95A 1_555 1_555
C96A C95A 1_555 1_555
H78A C96A 1_555 1_555
C97A C96A 1_555 1_555
H79A C97A 1_555 1_555
C98A C97A 1_555 1_555
H80A C98A 1_555 1_555
C99A C94A 1_555 1_555
H81A C99A 1_555 1_555
C4 C5 1_555 1_555
C9 C10 1_555 1_555
C14 C15 1_555 1_555
C19 C20 1_555 1_555
C24 C25 1_555 1_555
C29 C30 1_555 1_555
C34 C35 1_555 1_555
C39 C40 1_555 1_555
C44 C45 1_555 1_555
C46 P2 1_555 1_555
C50 C51 1_555 1_555
C52 P2 1_555 1_555
C56 C57 1_555 1_555
C58 P2 1_555 1_555
C62 C63 1_555 1_555
C68 C69 1_555 1_555
C74 C75 1_555 1_555
C80 C81 1_555 1_555
C86 C87 1_555 1_555
C92 C93 1_555 1_555
C98 C99 1_555 1_555
C102 C103 1_555 1_555
C106 C107 1_555 1_555
C110 C111 1_555 1_555
C114 C115 1_555 1_555
C118 C119 1_555 1_555
C4A C5A 1_555 1_555
C9A C10A 1_555 1_555
C14A C15A 1_555 1_555
C18A N4A 1_555 1_555
C19A C20A 1_555 1_555
C24A C25A 1_555 1_555
C28A N6A 1_555 1_555
C29A C30A 1_555 1_555
C34A C35A 1_555 1_555
C38A N8A 1_555 1_555
C39A C40A 1_555 1_555
C42B C43B 1_555 1_555
C44B C45B 1_555 1_555
C46A P2A 1_555 1_555
C50A C51A 1_555 1_555
C52A P2A 1_555 1_555
C56A C57A 1_555 1_555
C58A P2A 1_555 1_555
C62A C63A 1_555 1_555
C68A C69A 1_555 1_555
C74A C75A 1_555 1_555
C80A C81A 1_555 1_555
C86A C87A 1_555 1_555
C92A C93A 1_555 1_555
C98A C99A 1_555 1_555

#END
