
#######################################################################
#
#                 Cambridge Crystallographic Data Centre
#                                CCDC 
#
#######################################################################
#
# If this CIF has been generated from an entry in the Cambridge 
# Structural Database, then it will include bibliographic, chemical, 
# crystal, experimental, refinement or atomic coordinate data resulting 
# from the CCDC's data processing and validation procedures.
#
#######################################################################

data_DAKXAQ
_symmetry_cell_setting           triclinic
_symmetry_space_group_name_H-M   'P -1'
_symmetry_Int_Tables_number      2
_space_group_name_Hall           '-P 1'
loop_
_symmetry_equiv_pos_site_id
_symmetry_equiv_pos_as_xyz
1 x,y,z
2 -x,-y,-z
_cell_length_a                   9.9525(12)
_cell_length_b                   11.0093(11)
_cell_length_c                   14.5265(16)
_cell_angle_alpha                99.609(6)
_cell_angle_beta                 107.635(9)
_cell_angle_gamma                103.227(7)
_cell_volume                     1427.95
loop_
_atom_site_label
_atom_site_type_symbol
_atom_site_fract_x
_atom_site_fract_y
_atom_site_fract_z
Cu1 Cu -0.00968(4) 0.28101(3) 0.14553(2)
P1 P 0.17498(8) 0.35594(7) 0.28993(5)
N1 N -0.0096(3) 0.4106(2) 0.05701(16)
C1 C -0.0441(3) 0.5191(3) 0.0770(2)
H1 H -0.0763 0.5359 0.1310
C2 C 0.0340(3) 0.3922(3) -0.0209(2)
H2 H 0.0587 0.3163 -0.0383
N2 N -0.0024(2) 0.1158(2) 0.05509(16)
C3 C 0.1209(3) 0.0823(3) 0.0685(2)
H3 H 0.2096 0.1387 0.1166
C4 C -0.1236(3) 0.0316(3) -0.0146(2)
H4 H -0.2138 0.0506 -0.0273
N3 N -0.2268(2) 0.2173(2) 0.13418(17)
C5 C -0.2656(3) 0.1278(3) 0.1797(3)
H5 H -0.1914 0.1032 0.2232
C6 C -0.4104(4) 0.0698(4) 0.1657(3)
H6 H -0.4317 0.0061 0.1993
N4 N -0.5208(3) 0.1000(3) 0.1069(3)
C7 C -0.4825(4) 0.1888(4) 0.0616(3)
H7 H -0.5571 0.2135 0.0186
C8 C -0.3381(3) 0.2469(3) 0.0745(2)
H8 H -0.3175 0.3096 0.0399
C9 C 0.1757(3) 0.5083(3) 0.3618(2)
C10 C 0.0455(4) 0.5140(3) 0.3754(3)
H9 H -0.0387 0.4416 0.3461
C11 C 0.0378(5) 0.6242(4) 0.4313(3)
H10 H -0.0514 0.6265 0.4402
C12 C 0.1580(6) 0.7296(4) 0.4738(3)
H11 H 0.1522 0.8045 0.5123
C13 C 0.2874(6) 0.7269(3) 0.4606(3)
H12 H 0.3702 0.8006 0.4896
C14 C 0.2982(4) 0.6161(3) 0.4047(2)
H13 H 0.3878 0.6146 0.3962
C15 C 0.3543(3) 0.3929(3) 0.2759(2)
C16 C 0.3731(3) 0.4636(3) 0.2081(2)
H14 H 0.2930 0.4867 0.1697
C17 C 0.5073(4) 0.5007(4) 0.1960(3)
H15 H 0.5189 0.5502 0.1505
C18 C 0.6238(3) 0.4653(3) 0.2503(2)
H16 H 0.7158 0.4912 0.2428
C19 C 0.6062(3) 0.3923(3) 0.3155(2)
H17 H 0.6859 0.3666 0.3515
C20 C 0.4720(3) 0.3556(3) 0.3292(2)
H18 H 0.4610 0.3056 0.3744
C21 C 0.1879(3) 0.2583(3) 0.37957(19)
C22 C 0.2699(3) 0.3104(3) 0.4808(2)
H19 H 0.3228 0.3987 0.5042
C23 C 0.2745(4) 0.2344(3) 0.5470(2)
H20 H 0.3310 0.2705 0.6151
C24 C 0.1962(4) 0.1054(3) 0.5134(2)
H21 H 0.1982 0.0536 0.5588
C25 C 0.1152(4) 0.0523(3) 0.4135(2)
H22 H 0.0622 -0.0359 0.3906
C26 C 0.1114(3) 0.1284(3) 0.3468(2)
H23 H 0.0564 0.0915 0.2785
Cu1A Cu 0.00968(4) -0.28101(3) -0.14553(2)
Cu1A_2 Cu 0.00968(4) 0.71899(3) -0.14553(2)
P1A P -0.17498(8) -0.35594(7) -0.28993(5)
N1A N 0.0096(3) 0.5894(2) -0.05701(16)
N1A_2 N 0.0096(3) -0.4106(2) -0.05701(16)
C1A C 0.0441(3) 0.4809(3) -0.0770(2)
H1A H 0.0763 0.4641 -0.1310
C2A C -0.0340(3) 0.6078(3) 0.0209(2)
H2A H -0.0587 0.6837 0.0383
N2A N 0.0024(2) -0.1158(2) -0.05509(16)
C3A C -0.1209(3) -0.0823(3) -0.0685(2)
H3A H -0.2096 -0.1387 -0.1166
C4A C 0.1236(3) -0.0316(3) 0.0146(2)
H4A H 0.2138 -0.0506 0.0273
N3A N 0.2268(2) -0.2173(2) -0.13418(17)
C5A C 0.2656(3) -0.1278(3) -0.1797(3)
H5A H 0.1914 -0.1032 -0.2232
C6A C 0.4104(4) -0.0698(4) -0.1657(3)
H6A H 0.4317 -0.0061 -0.1993
N4A N 0.5208(3) -0.1000(3) -0.1069(3)
C7A C 0.4825(4) -0.1888(4) -0.0616(3)
H7A H 0.5571 -0.2135 -0.0186
C8A C 0.3381(3) -0.2469(3) -0.0745(2)
H8A H 0.3175 -0.3096 -0.0399
C9A C -0.1757(3) -0.5083(3) -0.3618(2)
C10A C -0.0455(4) -0.5140(3) -0.3754(3)
H9A H 0.0387 -0.4416 -0.3461
C11A C -0.0378(5) -0.6242(4) -0.4313(3)
H10A H 0.0514 -0.6265 -0.4402
C12A C -0.1580(6) -0.7296(4) -0.4738(3)
H11A H -0.1522 -0.8045 -0.5123
C13A C -0.2874(6) -0.7269(3) -0.4606(3)
H12A H -0.3702 -0.8006 -0.4896
C14A C -0.2982(4) -0.6161(3) -0.4047(2)
H13A H -0.3878 -0.6146 -0.3962
C15A C -0.3543(3) -0.3929(3) -0.2759(2)
C16A C -0.3731(3) -0.4636(3) -0.2081(2)
H14A H -0.2930 -0.4867 -0.1697
C17A C -0.5073(4) -0.5007(4) -0.1960(3)
H15A H -0.5189 -0.5502 -0.1505
C18A C -0.6238(3) -0.4653(3) -0.2503(2)
H16A H -0.7158 -0.4912 -0.2428
C19A C -0.6062(3) -0.3923(3) -0.3155(2)
H17A H -0.6859 -0.3666 -0.3515
C20A C -0.4720(3) -0.3556(3) -0.3292(2)
H18A H -0.4610 -0.3056 -0.3744
C21A C -0.1879(3) -0.2583(3) -0.37957(19)
C22A C -0.2699(3) -0.3104(3) -0.4808(2)
H19A H -0.3228 -0.3987 -0.5042
C23A C -0.2745(4) -0.2344(3) -0.5470(2)
H20A H -0.3310 -0.2705 -0.6151
C24A C -0.1962(4) -0.1054(3) -0.5134(2)
H21A H -0.1982 -0.0536 -0.5588
C25A C -0.1152(4) -0.0523(3) -0.4135(2)
H22A H -0.0622 0.0359 -0.3906
C26A C -0.1114(3) -0.1284(3) -0.3468(2)
H23A H -0.0564 -0.0915 -0.2785
Cl1 Cl 0.18393(8) 0.21186(7) -0.18057(5)
O1 O 0.0944(3) 0.1219(2) -0.1476(2)
O2 O 0.2576(3) 0.1484(3) -0.2332(2)
O3 O 0.0923(3) 0.2679(3) -0.2450(2)
O4 O 0.2866(3) 0.3116(3) -0.09630(19)
C27 C 0.7279(5) 0.1238(5) 0.7396(3)
H24 H 0.7882 0.1767 0.7103
H25 H 0.7878 0.0765 0.7770
Cl2 Cl 0.67847(14) 0.22328(11) 0.82092(9)
Cl3 Cl 0.57496(16) 0.01485(15) 0.64515(11)
loop_
_geom_bond_atom_site_label_1
_geom_bond_atom_site_label_2
_geom_bond_site_symmetry_1
_geom_bond_site_symmetry_2
Cu1 P1 1_555 1_555
P1 C9 1_555 1_555
N1 Cu1 1_555 1_555
C1 N1 1_555 1_555
H1 C1 1_555 1_555
C2 N1 1_555 1_555
H2 C2 1_555 1_555
N2 Cu1 1_555 1_555
C3 N2 1_555 1_555
H3 C3 1_555 1_555
C4 N2 1_555 1_555
H4 C4 1_555 1_555
N3 Cu1 1_555 1_555
C5 N3 1_555 1_555
H5 C5 1_555 1_555
C6 C5 1_555 1_555
H6 C6 1_555 1_555
N4 C6 1_555 1_555
C7 N4 1_555 1_555
H7 C7 1_555 1_555
C8 N3 1_555 1_555
H8 C8 1_555 1_555
C9 C10 1_555 1_555
C10 H9 1_555 1_555
C11 C10 1_555 1_555
H10 C11 1_555 1_555
C12 C11 1_555 1_555
H11 C12 1_555 1_555
C13 C12 1_555 1_555
H12 C13 1_555 1_555
C14 C9 1_555 1_555
H13 C14 1_555 1_555
C15 P1 1_555 1_555
C16 C15 1_555 1_555
H14 C16 1_555 1_555
C17 C16 1_555 1_555
H15 C17 1_555 1_555
C18 C17 1_555 1_555
H16 C18 1_555 1_555
C19 C18 1_555 1_555
H17 C19 1_555 1_555
C20 C15 1_555 1_555
H18 C20 1_555 1_555
C21 P1 1_555 1_555
C22 C21 1_555 1_555
H19 C22 1_555 1_555
C23 C22 1_555 1_555
H20 C23 1_555 1_555
C24 C23 1_555 1_555
H21 C24 1_555 1_555
C25 C24 1_555 1_555
H22 C25 1_555 1_555
C26 C21 1_555 1_555
H23 C26 1_555 1_555
Cl1 O1 1_555 1_555
O2 Cl1 1_555 1_555
O3 Cl1 1_555 1_555
O4 Cl1 1_555 1_555
C27 H24 1_555 1_555
H25 C27 1_555 1_555
Cl2 C27 1_555 1_555
Cl3 C27 1_555 1_555
Cu1A P1A 1_555 1_555
Cu1A_2 N1A 1_555 1_555
P1A C9A 1_555 1_555
N1A C1A 1_555 1_555
N1A_2 Cu1A 1_555 1_555
C1A C2 1_555 1_555
H1A C1A 1_555 1_555
C2A C1 1_555 1_555
H2A C2A 1_555 1_555
N2A Cu1A 1_555 1_555
C3A C4 1_555 1_555
H3A C3A 1_555 1_555
C4A C3 1_555 1_555
H4A C4A 1_555 1_555
N3A Cu1A 1_555 1_555
C5A N3A 1_555 1_555
H5A C5A 1_555 1_555
C6A C5A 1_555 1_555
H6A C6A 1_555 1_555
N4A C6A 1_555 1_555
C7A N4A 1_555 1_555
H7A C7A 1_555 1_555
C8A N3A 1_555 1_555
H8A C8A 1_555 1_555
C9A C10A 1_555 1_555
C10A H9A 1_555 1_555
C11A C10A 1_555 1_555
H10A C11A 1_555 1_555
C12A C11A 1_555 1_555
H11A C12A 1_555 1_555
C13A C12A 1_555 1_555
H12A C13A 1_555 1_555
C14A C9A 1_555 1_555
H13A C14A 1_555 1_555
C15A P1A 1_555 1_555
C16A C15A 1_555 1_555
H14A C16A 1_555 1_555
C17A C16A 1_555 1_555
H15A C17A 1_555 1_555
C18A C17A 1_555 1_555
H16A C18A 1_555 1_555
C19A C18A 1_555 1_555
H17A C19A 1_555 1_555
C20A C15A 1_555 1_555
H18A C20A 1_555 1_555
C21A P1A 1_555 1_555
C22A C21A 1_555 1_555
H19A C22A 1_555 1_555
C23A C22A 1_555 1_555
H20A C23A 1_555 1_555
C24A C23A 1_555 1_555
H21A C24A 1_555 1_555
C25A C24A 1_555 1_555
H22A C25A 1_555 1_555
C26A C21A 1_555 1_555
H23A C26A 1_555 1_555
C7 C8 1_555 1_555
C13 C14 1_555 1_555
C19 C20 1_555 1_555
C25 C26 1_555 1_555
N1A C2A 1_555 1_555
N2A C3A 1_555 1_555
N2A C4A 1_555 1_555
C7A C8A 1_555 1_555
C13A C14A 1_555 1_555
C19A C20A 1_555 1_555
C25A C26A 1_555 1_555

#END
