
#######################################################################
#
#                 Cambridge Crystallographic Data Centre
#                                CCDC 
#
#######################################################################
#
# If this CIF has been generated from an entry in the Cambridge 
# Structural Database, then it will include bibliographic, chemical, 
# crystal, experimental, refinement or atomic coordinate data resulting 
# from the CCDC's data processing and validation procedures.
#
#######################################################################

data_DAKXIY
_symmetry_cell_setting           monoclinic
_symmetry_space_group_name_H-M   'P 21/c'
_symmetry_Int_Tables_number      14
_space_group_name_Hall           '-P 2ybc'
loop_
_symmetry_equiv_pos_site_id
_symmetry_equiv_pos_as_xyz
1 x,y,z
2 -x,1/2+y,1/2-z
3 -x,-y,-z
4 x,1/2-y,1/2+z
_cell_length_a                   11.0417(11)
_cell_length_b                   17.3398(14)
_cell_length_c                   19.8809(12)
_cell_angle_alpha                90
_cell_angle_beta                 102.275(6)
_cell_angle_gamma                90
_cell_volume                     3719.39
loop_
_atom_site_label
_atom_site_type_symbol
_atom_site_fract_x
_atom_site_fract_y
_atom_site_fract_z
Cu1 Cu 0.20075(4) -0.00387(3) 0.28026(2)
P1 P 0.09902(9) 0.00539(6) 0.36248(5)
N1 N 0.3294(3) -0.09075(18) 0.28816(15)
N2 N 0.6964(3) -0.40941(18) 0.23952(16)
N3 N 0.1021(3) -0.02020(19) 0.18024(16)
C1 C 0.4184(4) -0.0860(2) 0.2522(2)
H1 H 0.4320 -0.0381 0.2328
C2 C 0.4910(4) -0.1471(2) 0.2422(2)
H2 H 0.5506 -0.1413 0.2152
C3 C 0.4759(4) -0.2172(2) 0.27211(18)
C4 C 0.3879(4) -0.2220(2) 0.3117(2)
H3 H 0.3770 -0.2682 0.3344
C5 C 0.3161(4) -0.1583(2) 0.31768(19)
H4 H 0.2548 -0.1628 0.3438
C6 C 0.5511(4) -0.2843(2) 0.26080(19)
C7 C 0.5706(4) -0.3013(2) 0.1964(2)
H5 H 0.5353 -0.2703 0.1585
C8 C 0.6421(4) -0.3639(2) 0.1877(2)
H6 H 0.6533 -0.3752 0.1431
C9 C 0.6761(4) -0.3928(2) 0.30147(19)
H7 H 0.7131 -0.4244 0.3386
C10 C 0.6043(4) -0.3322(2) 0.3143(2)
H8 H 0.5916 -0.3236 0.3590
C11 C 0.0176(4) 0.0324(3) 0.1528(2)
H9 H -0.0148 0.0646 0.1827
C12 C -0.0245(4) 0.0420(3) 0.0829(2)
H10 H -0.0833 0.0804 0.0661
C13 C 0.0198(4) -0.0049(2) 0.03794(18)
C14 C 0.1046(4) -0.0610(2) 0.0662(2)
H11 H 0.1365 -0.0951 0.0375
C15 C 0.1416(4) -0.0664(2) 0.1362(2)
H12 H 0.1986 -0.1053 0.1543
C16 C -0.0208(4) 0.0788(2) 0.35271(19)
C17 C -0.1231(4) 0.0728(3) 0.3819(2)
H13 H -0.1366 0.0273 0.4049
C18 C -0.2058(4) 0.1334(3) 0.3775(2)
H14 H -0.2748 0.1293 0.3980
C19 C -0.1871(5) 0.1994(3) 0.3431(3)
H15 H -0.2429 0.2408 0.3405
C20 C -0.0878(5) 0.2054(3) 0.3124(3)
H16 H -0.0759 0.2505 0.2884
C21 C -0.0051(4) 0.1451(3) 0.3169(2)
H17 H 0.0625 0.1491 0.2953
C22 C 0.0221(4) -0.0859(2) 0.3714(2)
C23 C 0.0561(4) -0.1343(2) 0.4272(2)
H18 H 0.1132 -0.1173 0.4664
C24 C 0.0069(5) -0.2076(3) 0.4259(3)
H19 H 0.0315 -0.2402 0.4641
C25 C -0.0773(5) -0.2331(3) 0.3697(3)
H20 H -0.1098 -0.2833 0.3689
C26 C -0.1137(6) -0.1850(3) 0.3145(3)
H21 H -0.1731 -0.2018 0.2762
C27 C -0.0640(5) -0.1120(3) 0.3147(2)
H22 H -0.0885 -0.0799 0.2761
C28 C 0.1971(4) 0.0269(2) 0.44642(18)
C29 C 0.2975(4) -0.0211(3) 0.4713(2)
H23 H 0.3110 -0.0648 0.4458
C30 C 0.3775(4) -0.0050(3) 0.5330(2)
H24 H 0.4431 -0.0388 0.5507
C31 C 0.3608(5) 0.0608(3) 0.5685(2)
H25 H 0.4164 0.0727 0.6100
C32 C 0.2638(5) 0.1089(3) 0.5438(2)
H26 H 0.2534 0.1539 0.5683
C33 C 0.1810(4) 0.0923(3) 0.4833(2)
H27 H 0.1137 0.1253 0.4672
Cu1A Cu 0.79925(4) 0.49613(3) 0.21974(2)
Cu1A_2 Cu 0.79925(4) -0.50387(3) 0.21974(2)
Cu1B Cu -0.20075(4) 0.00387(3) -0.28026(2)
P1A P 0.90098(9) 0.50539(6) 0.13752(5)
N1A N 0.6706(3) 0.40925(18) 0.21184(15)
N2A N 0.3036(3) 0.09059(18) 0.26048(16)
N2_2 N 0.6964(3) 0.59059(18) 0.23952(16)
N3B N -0.1021(3) 0.02020(19) -0.18024(16)
N3A N 0.8979(3) 0.47980(19) 0.31976(16)
C1A C 0.5816(4) 0.4140(2) 0.2478(2)
H1A H 0.5680 0.4619 0.2672
C2A C 0.5090(4) 0.3529(2) 0.2578(2)
H2A H 0.4494 0.3587 0.2848
C3A C 0.5241(4) 0.2828(2) 0.22789(18)
C4A C 0.6121(4) 0.2780(2) 0.1883(2)
H3A H 0.6230 0.2318 0.1656
C5A C 0.6839(4) 0.3417(2) 0.18232(19)
H4A H 0.7452 0.3372 0.1562
C6A C 0.4489(4) 0.2157(2) 0.23920(19)
C7A C 0.4294(4) 0.1987(2) 0.3036(2)
H5A H 0.4647 0.2297 0.3415
C8A C 0.3579(4) 0.1361(2) 0.3123(2)
H6A H 0.3467 0.1248 0.3569
C9A C 0.3239(4) 0.1072(2) 0.19853(19)
H7A H 0.2869 0.0756 0.1614
C10A C 0.3957(4) 0.1678(2) 0.1857(2)
H8A H 0.4084 0.1764 0.1410
C11B C -0.0176(4) -0.0324(3) -0.1528(2)
H9B H 0.0148 -0.0646 -0.1827
C12B C 0.0245(4) -0.0420(3) -0.0829(2)
H10B H 0.0833 -0.0804 -0.0661
C13B C -0.0198(4) 0.0049(2) -0.03794(18)
C14B C -0.1046(4) 0.0610(2) -0.0662(2)
H11B H -0.1365 0.0951 -0.0375
C15B C -0.1416(4) 0.0664(2) -0.1362(2)
H12B H -0.1986 0.1053 -0.1543
C16A C 1.0208(4) 0.5788(2) 0.14729(19)
C17A C 1.1231(4) 0.5728(3) 0.1181(2)
H13A H 1.1366 0.5273 0.0951
C18A C 1.2058(4) 0.6334(3) 0.1225(2)
H14A H 1.2748 0.6293 0.1020
C19A C 1.1871(5) 0.6994(3) 0.1569(3)
H15A H 1.2429 0.7408 0.1595
C20A C 1.0878(5) 0.7054(3) 0.1876(3)
H16A H 1.0759 0.7505 0.2116
C21A C 1.0051(4) 0.6451(3) 0.1831(2)
H17A H 0.9375 0.6491 0.2047
C22A C 0.9779(4) 0.4141(2) 0.1286(2)
C23A C 0.9439(4) 0.3657(2) 0.0728(2)
H18A H 0.8868 0.3827 0.0336
C24A C 0.9931(5) 0.2924(3) 0.0741(3)
H19A H 0.9685 0.2598 0.0359
C25A C 1.0773(5) 0.2669(3) 0.1303(3)
H20A H 1.1098 0.2167 0.1311
C26A C 1.1137(6) 0.3150(3) 0.1855(3)
H21A H 1.1731 0.2982 0.2238
C27A C 1.0640(5) 0.3880(3) 0.1853(2)
H22A H 1.0885 0.4201 0.2239
C28A C 0.8029(4) 0.5269(2) 0.05358(18)
C29A C 0.7025(4) 0.4789(3) 0.0287(2)
H23A H 0.6890 0.4352 0.0542
C30A C 0.6225(4) 0.4950(3) -0.0330(2)
H24A H 0.5569 0.4612 -0.0507
C31A C 0.6392(5) 0.5608(3) -0.0685(2)
H25A H 0.5836 0.5727 -0.1100
C32A C 0.7362(5) 0.6089(3) -0.0438(2)
H26A H 0.7466 0.6539 -0.0683
C33A C 0.8190(4) 0.5923(3) 0.0167(2)
H27A H 0.8863 0.6253 0.0328
Cl1 Cl -0.36505(11) 0.21793(6) -0.00048(6)
O1 O -0.4650(4) 0.1938(3) 0.0293(2)
O2 O -0.2589(4) 0.1790(3) 0.0354(3)
O3 O -0.3840(5) 0.1959(3) -0.0698(2)
O4 O -0.3470(6) 0.2971(2) 0.0062(3)
C34 C 0.6279(7) 1.0327(4) 0.1087(4)
H28 H 0.6056 1.0827 0.0864
H29 H 0.6926 1.0097 0.0882
Cl2 Cl 0.5004(2) 0.97401(11) 0.09349(8)
Cl3 Cl 0.6858(2) 1.04713(12) 0.19609(12)
C35 C 0.7336(8) 0.8113(5) 0.0558(3)
H30 H 0.7508 0.7562 0.0521
H31 H 0.6438 0.8173 0.0505
Cl4 Cl 0.8051(2) 0.84282(15) 0.13518(9)
Cl5 Cl 0.7794(2) 0.8591(2) -0.00890(9)
loop_
_geom_bond_atom_site_label_1
_geom_bond_atom_site_label_2
_geom_bond_site_symmetry_1
_geom_bond_site_symmetry_2
Cu1 P1 1_555 1_555
P1 C16 1_555 1_555
N1 Cu1 1_555 1_555
N2 C8 1_555 1_555
N3 Cu1 1_555 1_555
C1 N1 1_555 1_555
H1 C1 1_555 1_555
C2 C1 1_555 1_555
H2 C2 1_555 1_555
C3 C2 1_555 1_555
C4 C3 1_555 1_555
H3 C4 1_555 1_555
C5 N1 1_555 1_555
H4 C5 1_555 1_555
C6 C3 1_555 1_555
C7 C6 1_555 1_555
H5 C7 1_555 1_555
C8 C7 1_555 1_555
H6 C8 1_555 1_555
C9 N2 1_555 1_555
H7 C9 1_555 1_555
C10 C6 1_555 1_555
H8 C10 1_555 1_555
C11 N3 1_555 1_555
H9 C11 1_555 1_555
C12 C11 1_555 1_555
H10 C12 1_555 1_555
C13 C12 1_555 1_555
C14 C13 1_555 1_555
H11 C14 1_555 1_555
C15 N3 1_555 1_555
H12 C15 1_555 1_555
C16 C17 1_555 1_555
C17 H13 1_555 1_555
C18 C17 1_555 1_555
H14 C18 1_555 1_555
C19 C18 1_555 1_555
H15 C19 1_555 1_555
C20 C19 1_555 1_555
H16 C20 1_555 1_555
C21 C16 1_555 1_555
H17 C21 1_555 1_555
C22 P1 1_555 1_555
C23 C22 1_555 1_555
H18 C23 1_555 1_555
C24 C23 1_555 1_555
H19 C24 1_555 1_555
C25 C24 1_555 1_555
H20 C25 1_555 1_555
C26 C25 1_555 1_555
H21 C26 1_555 1_555
C27 C22 1_555 1_555
H22 C27 1_555 1_555
C28 P1 1_555 1_555
C29 C28 1_555 1_555
H23 C29 1_555 1_555
C30 C29 1_555 1_555
H24 C30 1_555 1_555
C31 C30 1_555 1_555
H25 C31 1_555 1_555
C32 C31 1_555 1_555
H26 C32 1_555 1_555
C33 C28 1_555 1_555
H27 C33 1_555 1_555
Cl1 O1 1_555 1_555
O2 Cl1 1_555 1_555
O3 Cl1 1_555 1_555
O4 Cl1 1_555 1_555
C34 H28 1_555 1_555
H29 C34 1_555 1_555
Cl2 C34 1_555 1_555
Cl3 C34 1_555 1_555
C35 H30 1_555 1_555
H31 C35 1_555 1_555
Cl4 C35 1_555 1_555
Cl5 C35 1_555 1_555
Cu1A P1A 1_555 1_555
Cu1A_2 N2 1_555 1_555
Cu1B N3B 1_555 1_555
P1A C16A 1_555 1_555
N1A Cu1A 1_555 1_555
N2A Cu1 1_555 1_555
N2_2 Cu1A 1_555 1_555
N3B C11B 1_555 1_555
N3A Cu1A 1_555 1_555
C1A N1A 1_555 1_555
H1A C1A 1_555 1_555
C2A C1A 1_555 1_555
H2A C2A 1_555 1_555
C3A C2A 1_555 1_555
C4A C3A 1_555 1_555
H3A C4A 1_555 1_555
C5A N1A 1_555 1_555
H4A C5A 1_555 1_555
C6A C3A 1_555 1_555
C7A C6A 1_555 1_555
H5A C7A 1_555 1_555
C8A N2A 1_555 1_555
H6A C8A 1_555 1_555
C9A N2A 1_555 1_555
H7A C9A 1_555 1_555
C10A C6A 1_555 1_555
H8A C10A 1_555 1_555
C11B H9B 1_555 1_555
C12B C11B 1_555 1_555
H10B C12B 1_555 1_555
C13B C13 1_555 1_555
C14B C13B 1_555 1_555
H11B C14B 1_555 1_555
C15B N3B 1_555 1_555
H12B C15B 1_555 1_555
C16A C17A 1_555 1_555
C17A H13A 1_555 1_555
C18A C17A 1_555 1_555
H14A C18A 1_555 1_555
C19A C18A 1_555 1_555
H15A C19A 1_555 1_555
C20A C19A 1_555 1_555
H16A C20A 1_555 1_555
C21A C16A 1_555 1_555
H17A C21A 1_555 1_555
C22A P1A 1_555 1_555
C23A C22A 1_555 1_555
H18A C23A 1_555 1_555
C24A C23A 1_555 1_555
H19A C24A 1_555 1_555
C25A C24A 1_555 1_555
H20A C25A 1_555 1_555
C26A C25A 1_555 1_555
H21A C26A 1_555 1_555
C27A C22A 1_555 1_555
H22A C27A 1_555 1_555
C28A P1A 1_555 1_555
C29A C28A 1_555 1_555
H23A C29A 1_555 1_555
C30A C29A 1_555 1_555
H24A C30A 1_555 1_555
C31A C30A 1_555 1_555
H25A C31A 1_555 1_555
C32A C31A 1_555 1_555
H26A C32A 1_555 1_555
C33A C28A 1_555 1_555
H27A C33A 1_555 1_555
C4 C5 1_555 1_555
C9 C10 1_555 1_555
C14 C15 1_555 1_555
C20 C21 1_555 1_555
C26 C27 1_555 1_555
C32 C33 1_555 1_555
C4A C5A 1_555 1_555
C7A C8A 1_555 1_555
C9A C10A 1_555 1_555
C12B C13B 1_555 1_555
C14B C15B 1_555 1_555
C20A C21A 1_555 1_555
C26A C27A 1_555 1_555
C32A C33A 1_555 1_555

#END
