
#######################################################################
#
#                 Cambridge Crystallographic Data Centre
#                                CCDC 
#
#######################################################################
#
# If this CIF has been generated from an entry in the Cambridge 
# Structural Database, then it will include bibliographic, chemical, 
# crystal, experimental, refinement or atomic coordinate data resulting 
# from the CCDC's data processing and validation procedures.
#
#######################################################################

data_DAKXUK
_symmetry_cell_setting           monoclinic
_symmetry_space_group_name_H-M   'P 21/c'
_symmetry_Int_Tables_number      14
_space_group_name_Hall           '-P 2ybc'
loop_
_symmetry_equiv_pos_site_id
_symmetry_equiv_pos_as_xyz
1 x,y,z
2 -x,1/2+y,1/2-z
3 -x,-y,-z
4 x,1/2-y,1/2+z
_cell_length_a                   11.0271(15)
_cell_length_b                   17.337(2)
_cell_length_c                   19.9735(16)
_cell_angle_alpha                90
_cell_angle_beta                 102.459(8)
_cell_angle_gamma                90
_cell_volume                     3728.55
loop_
_atom_site_label
_atom_site_type_symbol
_atom_site_fract_x
_atom_site_fract_y
_atom_site_fract_z
Cu1 Cu 0.19857(4) -0.00243(2) 0.280343(19)
C1 C 0.4179(3) -0.0843(2) 0.25234(19)
H1 H 0.4313 -0.0365 0.2329
C2 C 0.4905(3) -0.1455(2) 0.24229(19)
H2 H 0.5497 -0.1396 0.2151
C3 C 0.4764(3) -0.2157(2) 0.27224(17)
C4 C 0.3889(3) -0.2206(2) 0.31254(18)
H3 H 0.3789 -0.2666 0.3357
C5 C 0.3164(3) -0.1568(2) 0.31821(18)
H4 H 0.2554 -0.1613 0.3444
C6 C 0.5516(3) -0.2829(2) 0.26110(18)
C7 C 0.5715(3) -0.3000(2) 0.19640(18)
H5 H 0.5360 -0.2691 0.1586
C8 C 0.6437(3) -0.3624(2) 0.18808(18)
H6 H 0.6554 -0.3735 0.1438
C9 C 0.6778(3) -0.3914(2) 0.30165(18)
H7 H 0.7153 -0.4230 0.3386
C10 C 0.6053(3) -0.3310(2) 0.31449(18)
H8 H 0.5925 -0.3225 0.3589
C11 C 0.0152(3) 0.0335(2) 0.15228(19)
H9 H -0.0174 0.0661 0.1817
C12 C -0.0263(3) 0.0430(2) 0.08265(18)
H10 H -0.0849 0.0814 0.0655
C13 C 0.0192(3) -0.0049(2) 0.03791(16)
C14 C 0.1028(4) -0.0610(2) 0.06682(18)
H11 H 0.1347 -0.0957 0.0387
C15 C 0.1394(4) -0.0661(2) 0.13723(19)
H12 H 0.1963 -0.1050 0.1557
C16 C -0.0238(3) 0.0796(2) 0.35297(17)
C17 C -0.0085(4) 0.1462(2) 0.3175(2)
H13 H 0.0590 0.1502 0.2959
C18 C -0.0908(4) 0.2068(3) 0.3134(2)
H14 H -0.0791 0.2519 0.2895
C19 C -0.1907(4) 0.2008(3) 0.3448(2)
H15 H -0.2466 0.2421 0.3427
C20 C -0.2078(4) 0.1344(3) 0.3788(2)
H16 H -0.2766 0.1302 0.3993
C21 C -0.1254(3) 0.0738(2) 0.38324(19)
H17 H -0.1381 0.0286 0.4068
C22 C 0.1958(3) 0.0280(2) 0.44647(17)
C23 C 0.1794(4) 0.0935(2) 0.48330(19)
H18 H 0.1118 0.1264 0.4670
C24 C 0.2625(4) 0.1105(3) 0.5442(2)
H19 H 0.2518 0.1553 0.5687
C25 C 0.3606(4) 0.0619(3) 0.5687(2)
H20 H 0.4166 0.0736 0.6100
C26 C 0.3771(3) -0.0037(3) 0.5332(2)
H21 H 0.4432 -0.0373 0.5508
C27 C 0.2967(3) -0.0202(2) 0.47175(19)
H22 H 0.3100 -0.0642 0.4468
C28 C 0.0209(3) -0.0855(2) 0.37101(17)
C29 C -0.0663(4) -0.1109(3) 0.3146(2)
H23 H -0.0923 -0.0780 0.2769
C30 C -0.1154(5) -0.1849(3) 0.3136(2)
H24 H -0.1756 -0.2016 0.2756
C31 C -0.0759(4) -0.2334(3) 0.3681(3)
H25 H -0.1072 -0.2839 0.3668
C32 C 0.0089(4) -0.2085(2) 0.4246(3)
H26 H 0.0348 -0.2417 0.4622
C33 C 0.0566(3) -0.1345(2) 0.4263(2)
H27 H 0.1137 -0.1174 0.4654
N1 N 0.3286(3) -0.08891(17) 0.28839(14)
N2 N 0.6980(3) -0.40783(16) 0.23967(14)
N3 N 0.0992(3) -0.01939(17) 0.18047(14)
P1 P 0.09712(7) 0.00647(5) 0.36253(4)
Cu1A Cu 0.80143(4) 0.49757(2) 0.219657(19)
Cu1A_2 Cu 0.80143(4) -0.50243(2) 0.219657(19)
Cu1B Cu -0.19857(4) 0.00243(2) -0.280343(19)
C1A C 0.5821(3) 0.4157(2) 0.24766(19)
H1A H 0.5687 0.4635 0.2671
C2A C 0.5095(3) 0.3545(2) 0.25771(19)
H2A H 0.4503 0.3604 0.2849
C3A C 0.5236(3) 0.2843(2) 0.22776(17)
C4A C 0.6111(3) 0.2794(2) 0.18746(18)
H3A H 0.6211 0.2334 0.1643
C5A C 0.6836(3) 0.3432(2) 0.18179(18)
H4A H 0.7446 0.3387 0.1556
C6A C 0.4484(3) 0.2171(2) 0.23890(18)
C7A C 0.4285(3) 0.2000(2) 0.30360(18)
H5A H 0.4640 0.2309 0.3414
C8A C 0.3563(3) 0.1376(2) 0.31192(18)
H6A H 0.3446 0.1265 0.3562
C9A C 0.3222(3) 0.1086(2) 0.19835(18)
H7A H 0.2847 0.0770 0.1614
C10A C 0.3947(3) 0.1690(2) 0.18551(18)
H8A H 0.4075 0.1775 0.1411
C11B C -0.0152(3) -0.0335(2) -0.15228(19)
H9B H 0.0174 -0.0661 -0.1817
C12B C 0.0263(3) -0.0430(2) -0.08265(18)
H10B H 0.0849 -0.0814 -0.0655
C13B C -0.0192(3) 0.0049(2) -0.03791(16)
C14B C -0.1028(4) 0.0610(2) -0.06682(18)
H11B H -0.1347 0.0957 -0.0387
C15B C -0.1394(4) 0.0661(2) -0.13723(19)
H12B H -0.1963 0.1050 -0.1557
C16A C 1.0238(3) 0.5796(2) 0.14703(17)
C17A C 1.0085(4) 0.6462(2) 0.1825(2)
H13A H 0.9410 0.6502 0.2041
C18A C 1.0908(4) 0.7068(3) 0.1866(2)
H14A H 1.0791 0.7519 0.2105
C19A C 1.1907(4) 0.7008(3) 0.1552(2)
H15A H 1.2466 0.7421 0.1573
C20A C 1.2078(4) 0.6344(3) 0.1212(2)
H16A H 1.2766 0.6302 0.1007
C21A C 1.1254(3) 0.5738(2) 0.11676(19)
H17A H 1.1381 0.5286 0.0932
C22A C 0.8042(3) 0.5280(2) 0.05353(17)
C23A C 0.8206(4) 0.5935(2) 0.01670(19)
H18A H 0.8882 0.6264 0.0330
C24A C 0.7375(4) 0.6105(3) -0.0442(2)
H19A H 0.7482 0.6553 -0.0687
C25A C 0.6394(4) 0.5619(3) -0.0687(2)
H20A H 0.5834 0.5736 -0.1100
C26A C 0.6229(3) 0.4963(3) -0.0332(2)
H21A H 0.5568 0.4627 -0.0508
C27A C 0.7033(3) 0.4798(2) 0.02825(19)
H22A H 0.6900 0.4358 0.0532
C28A C 0.9791(3) 0.4145(2) 0.12899(17)
C29A C 1.0663(4) 0.3891(3) 0.1854(2)
H23A H 1.0923 0.4220 0.2231
C30A C 1.1154(5) 0.3151(3) 0.1864(2)
H24A H 1.1756 0.2984 0.2244
C31A C 1.0759(4) 0.2666(3) 0.1319(3)
H25A H 1.1072 0.2161 0.1332
C32A C 0.9911(4) 0.2915(2) 0.0754(3)
H26A H 0.9652 0.2583 0.0378
C33A C 0.9434(3) 0.3655(2) 0.0737(2)
H27A H 0.8863 0.3826 0.0346
N1A N 0.6714(3) 0.41109(17) 0.21161(14)
N2A N 0.3020(3) 0.09217(16) 0.26033(14)
N2_2 N 0.6980(3) 0.59217(16) 0.23967(14)
N3B N -0.0992(3) 0.01939(17) -0.18047(14)
N3A N 0.9008(3) 0.48061(17) 0.31953(14)
P1A P 0.90288(7) 0.50647(5) 0.13747(4)
B1 B -0.3636(5) 0.2186(3) 0.0010(3)
F1 F -0.3350(4) 0.29313(19) 0.0132(2)
F2 F -0.4568(3) 0.19596(18) 0.03343(16)
F3 F -0.2624(3) 0.1735(2) 0.0265(2)
F4 F -0.3987(4) 0.2043(2) -0.06696(16)
C34 C -0.6245(6) -0.0328(3) -0.1062(3)
H28 H -0.6892 -0.0094 -0.0860
H29 H -0.6023 -0.0826 -0.0836
Cl1 Cl -0.68322(16) -0.04812(11) -0.19353(9)
Cl2 Cl -0.49543(16) 0.02634(10) -0.09138(7)
C35 C 0.2761(6) 0.1880(4) -0.0532(3)
H30 H 0.3652 0.1779 -0.0474
H31 H 0.2648 0.2437 -0.0489
Cl3 Cl 0.2224(2) 0.14179(17) 0.00949(8)
Cl4 Cl 0.19978(18) 0.15831(13) -0.13411(8)
loop_
_geom_bond_atom_site_label_1
_geom_bond_atom_site_label_2
_geom_bond_site_symmetry_1
_geom_bond_site_symmetry_2
Cu1 N1 1_555 1_555
C1 H1 1_555 1_555
C2 C1 1_555 1_555
H2 C2 1_555 1_555
C3 C2 1_555 1_555
C4 C3 1_555 1_555
H3 C4 1_555 1_555
C5 C4 1_555 1_555
H4 C5 1_555 1_555
C6 C3 1_555 1_555
C7 C6 1_555 1_555
H5 C7 1_555 1_555
C8 C7 1_555 1_555
H6 C8 1_555 1_555
C9 H7 1_555 1_555
C10 C6 1_555 1_555
H8 C10 1_555 1_555
C11 H9 1_555 1_555
C12 C11 1_555 1_555
H10 C12 1_555 1_555
C13 C12 1_555 1_555
C14 C13 1_555 1_555
H11 C14 1_555 1_555
C15 C14 1_555 1_555
H12 C15 1_555 1_555
C16 C17 1_555 1_555
C17 H13 1_555 1_555
C18 C17 1_555 1_555
H14 C18 1_555 1_555
C19 C18 1_555 1_555
H15 C19 1_555 1_555
C20 C19 1_555 1_555
H16 C20 1_555 1_555
C21 C16 1_555 1_555
H17 C21 1_555 1_555
C22 C23 1_555 1_555
C23 H18 1_555 1_555
C24 C23 1_555 1_555
H19 C24 1_555 1_555
C25 C24 1_555 1_555
H20 C25 1_555 1_555
C26 C25 1_555 1_555
H21 C26 1_555 1_555
C27 C22 1_555 1_555
H22 C27 1_555 1_555
C28 C29 1_555 1_555
C29 H23 1_555 1_555
C30 C29 1_555 1_555
H24 C30 1_555 1_555
C31 C30 1_555 1_555
H25 C31 1_555 1_555
C32 C31 1_555 1_555
H26 C32 1_555 1_555
C33 C28 1_555 1_555
H27 C33 1_555 1_555
N1 C1 1_555 1_555
N2 C8 1_555 1_555
N3 Cu1 1_555 1_555
P1 Cu1 1_555 1_555
B1 F1 1_555 1_555
F2 B1 1_555 1_555
F3 B1 1_555 1_555
F4 B1 1_555 1_555
C34 H28 1_555 1_555
H29 C34 1_555 1_555
Cl1 C34 1_555 1_555
Cl2 C34 1_555 1_555
C35 H30 1_555 1_555
H31 C35 1_555 1_555
Cl3 C35 1_555 1_555
Cl4 C35 1_555 1_555
Cu1A N1A 1_555 1_555
Cu1A_2 N2 1_555 1_555
Cu1B N3B 1_555 1_555
C1A H1A 1_555 1_555
C2A C1A 1_555 1_555
H2A C2A 1_555 1_555
C3A C2A 1_555 1_555
C4A C3A 1_555 1_555
H3A C4A 1_555 1_555
C5A C4A 1_555 1_555
H4A C5A 1_555 1_555
C6A C3A 1_555 1_555
C7A C6A 1_555 1_555
H5A C7A 1_555 1_555
C8A C7A 1_555 1_555
H6A C8A 1_555 1_555
C9A H7A 1_555 1_555
C10A C6A 1_555 1_555
H8A C10A 1_555 1_555
C11B H9B 1_555 1_555
C12B C11B 1_555 1_555
H10B C12B 1_555 1_555
C13B C13 1_555 1_555
C14B C13B 1_555 1_555
H11B C14B 1_555 1_555
C15B C14B 1_555 1_555
H12B C15B 1_555 1_555
C16A C17A 1_555 1_555
C17A H13A 1_555 1_555
C18A C17A 1_555 1_555
H14A C18A 1_555 1_555
C19A C18A 1_555 1_555
H15A C19A 1_555 1_555
C20A C19A 1_555 1_555
H16A C20A 1_555 1_555
C21A C16A 1_555 1_555
H17A C21A 1_555 1_555
C22A C23A 1_555 1_555
C23A H18A 1_555 1_555
C24A C23A 1_555 1_555
H19A C24A 1_555 1_555
C25A C24A 1_555 1_555
H20A C25A 1_555 1_555
C26A C25A 1_555 1_555
H21A C26A 1_555 1_555
C27A C22A 1_555 1_555
H22A C27A 1_555 1_555
C28A C29A 1_555 1_555
C29A H23A 1_555 1_555
C30A C29A 1_555 1_555
H24A C30A 1_555 1_555
C31A C30A 1_555 1_555
H25A C31A 1_555 1_555
C32A C31A 1_555 1_555
H26A C32A 1_555 1_555
C33A C28A 1_555 1_555
H27A C33A 1_555 1_555
N1A C1A 1_555 1_555
N2A Cu1 1_555 1_555
N2_2 Cu1A 1_555 1_555
N3B C11B 1_555 1_555
N3A Cu1A 1_555 1_555
P1A Cu1A 1_555 1_555
C5 N1 1_555 1_555
C9 C10 1_555 1_555
C9 N2 1_555 1_555
C11 N3 1_555 1_555
C15 N3 1_555 1_555
C16 P1 1_555 1_555
C20 C21 1_555 1_555
C22 P1 1_555 1_555
C26 C27 1_555 1_555
C28 P1 1_555 1_555
C32 C33 1_555 1_555
C5A N1A 1_555 1_555
C8A N2A 1_555 1_555
C9A C10A 1_555 1_555
C9A N2A 1_555 1_555
C12B C13B 1_555 1_555
C15B N3B 1_555 1_555
C16A P1A 1_555 1_555
C20A C21A 1_555 1_555
C22A P1A 1_555 1_555
C26A C27A 1_555 1_555
C28A P1A 1_555 1_555
C32A C33A 1_555 1_555

#END
