
#######################################################################
#
#                 Cambridge Crystallographic Data Centre
#                                CCDC 
#
#######################################################################
#
# If this CIF has been generated from an entry in the Cambridge 
# Structural Database, then it will include bibliographic, chemical, 
# crystal, experimental, refinement or atomic coordinate data resulting 
# from the CCDC's data processing and validation procedures.
#
#######################################################################

data_DAKYIZ
_symmetry_cell_setting           monoclinic
_symmetry_space_group_name_H-M   'P 21/c'
_symmetry_Int_Tables_number      14
_space_group_name_Hall           '-P 2ybc'
loop_
_symmetry_equiv_pos_site_id
_symmetry_equiv_pos_as_xyz
1 x,y,z
2 -x,1/2+y,1/2-z
3 -x,-y,-z
4 x,1/2-y,1/2+z
_cell_length_a                   11.1330(14)
_cell_length_b                   17.542(2)
_cell_length_c                   20.2848(13)
_cell_angle_alpha                90
_cell_angle_beta                 103.652(6)
_cell_angle_gamma                90
_cell_volume                     3849.6
loop_
_atom_site_label
_atom_site_type_symbol
_atom_site_fract_x
_atom_site_fract_y
_atom_site_fract_z
Cu1 Cu 0.20482(6) 0.00275(4) 0.27864(3)
N1 N 0.1032(5) 0.0168(3) 0.1789(2)
C1 C 0.1359(7) 0.0655(4) 0.1374(3)
H1 H 0.1881 0.1060 0.1563
C2 C 0.0986(7) 0.0612(4) 0.0680(3)
H2 H 0.1266 0.0975 0.0410
C3 C 0.0202(6) 0.0038(4) 0.0378(3)
C4 C -0.0194(6) -0.0454(4) 0.0807(3)
H3 H -0.0753 -0.0847 0.0632
C5 C 0.0234(6) -0.0369(4) 0.1499(3)
H4 H -0.0056 -0.0710 0.1784
N2 N 0.3311(5) 0.0903(3) 0.2841(2)
C6 C 0.3171(6) 0.1577(3) 0.3112(3)
H5 H 0.2548 0.1627 0.3351
C7 C 0.3880(6) 0.2204(3) 0.3063(3)
H6 H 0.3763 0.2662 0.3281
C8 C 0.4769(6) 0.2157(3) 0.2691(3)
C9 C 0.4939(6) 0.1454(4) 0.2414(4)
H7 H 0.5549 0.1391 0.2168
C10 C 0.4210(6) 0.0854(4) 0.2503(3)
H8 H 0.4346 0.0381 0.2316
C11 C 0.5512(5) 0.2821(3) 0.2589(3)
C12 C 0.6012(6) 0.3318(3) 0.3111(3)
H9 H 0.5872 0.3240 0.3545
C13 C 0.6706(6) 0.3920(3) 0.2996(3)
H10 H 0.7052 0.4240 0.3363
N3 N 0.6926(5) 0.4084(3) 0.2389(2)
C14 C 0.6434(6) 0.3608(4) 0.1885(3)
H11 H 0.6573 0.3705 0.1454
C15 C 0.5738(6) 0.2982(4) 0.1961(3)
H12 H 0.5414 0.2665 0.1588
P1 P 0.10688(13) -0.00388(9) 0.36023(7)
C16 C 0.0263(5) 0.0847(3) 0.3675(3)
C17 C -0.0550(7) 0.1114(5) 0.3089(4)
H13 H -0.0706 0.0818 0.2692
C18 C -0.1125(8) 0.1807(6) 0.3089(5)
H14 H -0.1699 0.1971 0.2696
C19 C -0.0869(8) 0.2265(5) 0.3656(5)
H15 H -0.1229 0.2751 0.3646
C20 C -0.0079(7) 0.2001(4) 0.4239(5)
H16 H 0.0083 0.2301 0.4633
C21 C 0.0472(6) 0.1303(4) 0.4246(4)
H17 H 0.1006 0.1130 0.4648
C22 C -0.0109(6) -0.0768(3) 0.3512(3)
C23 C 0.0013(7) -0.1421(4) 0.3149(4)
H18 H 0.0669 -0.1456 0.2931
C24 C -0.0808(8) -0.2021(4) 0.3098(4)
H19 H -0.0706 -0.2462 0.2853
C25 C -0.1774(7) -0.1968(5) 0.3410(4)
H20 H -0.2332 -0.2375 0.3380
C26 C -0.1928(7) -0.1324(5) 0.3765(4)
H21 H -0.2598 -0.1289 0.3972
C27 C -0.1095(6) -0.0721(4) 0.3819(3)
H22 H -0.1203 -0.0281 0.4065
C28 C 0.2046(5) -0.0212(3) 0.4450(3)
C29 C 0.1899(7) -0.0832(4) 0.4842(3)
H23 H 0.1245 -0.1176 0.4687
C30 C 0.2714(8) -0.0948(5) 0.5462(4)
H24 H 0.2618 -0.1374 0.5726
C31 C 0.3668(7) -0.0443(6) 0.5697(4)
H25 H 0.4224 -0.0530 0.6117
C32 C 0.3810(6) 0.0178(5) 0.5326(4)
H26 H 0.4441 0.0531 0.5497
C33 C 0.3027(6) 0.0293(4) 0.4693(3)
H27 H 0.3154 0.0710 0.4426
Cu1B Cu -0.20482(6) -0.00275(4) -0.27864(3)
Cu1A Cu 0.79518(6) 0.50275(4) 0.22136(3)
Cu1A_2 Cu 0.79518(6) -0.49725(4) 0.22136(3)
N1B N -0.1032(5) -0.0168(3) -0.1789(2)
C1B C -0.1359(7) -0.0655(4) -0.1374(3)
H1B H -0.1881 -0.1060 -0.1563
C2B C -0.0986(7) -0.0612(4) -0.0680(3)
H2B H -0.1266 -0.0975 -0.0410
C3B C -0.0202(6) -0.0038(4) -0.0378(3)
C4B C 0.0194(6) 0.0454(4) -0.0807(3)
H3B H 0.0753 0.0847 -0.0632
C5B C -0.0234(6) 0.0369(4) -0.1499(3)
H4B H 0.0056 0.0710 -0.1784
N2A N 0.6689(5) -0.4097(3) 0.2159(2)
N2B N -0.3311(5) -0.0903(3) -0.2841(2)
C6A C 0.6829(6) -0.3423(3) 0.1888(3)
H5A H 0.7452 -0.3373 0.1649
C7A C 0.6120(6) -0.2796(3) 0.1937(3)
H6A H 0.6237 -0.2338 0.1719
C8A C 0.5231(6) -0.2843(3) 0.2309(3)
C9A C 0.5061(6) -0.3546(4) 0.2586(4)
H7A H 0.4451 -0.3609 0.2832
C10A C 0.5790(6) -0.4146(4) 0.2497(3)
H8A H 0.5654 -0.4619 0.2684
C11A C 0.4488(5) -0.2179(3) 0.2411(3)
C12A C 0.3988(6) -0.1682(3) 0.1889(3)
H9A H 0.4128 -0.1760 0.1455
C13A C 0.3294(6) -0.1080(3) 0.2004(3)
H10A H 0.2948 -0.0760 0.1637
N3A N 0.3074(5) -0.0916(3) 0.2611(2)
N3C N -0.3074(5) 0.0916(3) -0.2611(2)
C14A C 0.3566(6) -0.1392(4) 0.3115(3)
H11A H 0.3427 -0.1295 0.3546
C15A C 0.4262(6) -0.2018(4) 0.3039(3)
H12A H 0.4586 -0.2335 0.3412
P1B P -0.10688(13) 0.00388(9) -0.36023(7)
C16B C -0.0263(5) -0.0847(3) -0.3675(3)
C17B C 0.0550(7) -0.1114(5) -0.3089(4)
H13B H 0.0706 -0.0818 -0.2692
C18B C 0.1125(8) -0.1807(6) -0.3089(5)
H14B H 0.1699 -0.1971 -0.2696
C19B C 0.0869(8) -0.2265(5) -0.3656(5)
H15B H 0.1229 -0.2751 -0.3646
C20B C 0.0079(7) -0.2001(4) -0.4239(5)
H16B H -0.0083 -0.2301 -0.4633
C21B C -0.0472(6) -0.1303(4) -0.4246(4)
H17B H -0.1006 -0.1130 -0.4648
C22B C 0.0109(6) 0.0768(3) -0.3512(3)
C23B C -0.0013(7) 0.1421(4) -0.3149(4)
H18B H -0.0669 0.1456 -0.2931
C24B C 0.0808(8) 0.2021(4) -0.3098(4)
H19B H 0.0706 0.2462 -0.2853
C25B C 0.1774(7) 0.1968(5) -0.3410(4)
H20B H 0.2332 0.2375 -0.3380
C26B C 0.1928(7) 0.1324(5) -0.3765(4)
H21B H 0.2598 0.1289 -0.3972
C27B C 0.1095(6) 0.0721(4) -0.3819(3)
H22B H 0.1203 0.0281 -0.4065
C28B C -0.2046(5) 0.0212(3) -0.4450(3)
C29B C -0.1899(7) 0.0832(4) -0.4842(3)
H23B H -0.1245 0.1176 -0.4687
C30B C -0.2714(8) 0.0948(5) -0.5462(4)
H24B H -0.2618 0.1374 -0.5726
C31B C -0.3668(7) 0.0443(6) -0.5697(4)
H25B H -0.4224 0.0530 -0.6117
C32B C -0.3810(6) -0.0178(5) -0.5326(4)
H26B H -0.4441 -0.0531 -0.5497
C33B C -0.3027(6) -0.0293(4) -0.4693(3)
H27B H -0.3154 -0.0710 -0.4426
C34 C -0.6447(12) -0.5312(8) 0.3645(11)
H28 H -0.6399 -0.5832 0.3826
H29 H -0.7102 -0.5052 0.3808
Cl1 Cl -0.6897(4) -0.5377(3) 0.2871(3)
Cl2 Cl -0.5101(4) -0.4875(2) 0.40166(17)
C35 C 0.737(2) 0.1893(13) 1.0492(9)
H30 H 0.6477 0.1803 1.0405
H31 H 0.7493 0.2446 1.0480
Cl3 Cl 0.7880(4) 0.1505(3) 0.98688(16)
Cl4 Cl 0.8023(4) 0.1583(3) 1.12847(17)
P2 P 0.3549(3) 0.21070(16) 0.99628(13)
F1 F 0.4556(5) 0.1880(3) 0.9565(3)
F2 F 0.386(2) 0.2905(4) 0.9988(10)
F3 F 0.4344(11) 0.1931(6) 1.0642(3)
F4 F 0.2670(12) 0.2250(13) 0.9284(6)
F5 F 0.2426(11) 0.2256(6) 1.0316(5)
F6 F 0.3061(9) 0.1290(6) 0.9893(5)
loop_
_geom_bond_atom_site_label_1
_geom_bond_atom_site_label_2
_geom_bond_site_symmetry_1
_geom_bond_site_symmetry_2
Cu1 N1 1_555 1_555
N1 C1 1_555 1_555
C1 H1 1_555 1_555
C2 C1 1_555 1_555
H2 C2 1_555 1_555
C3 C2 1_555 1_555
C4 C3 1_555 1_555
H3 C4 1_555 1_555
C5 N1 1_555 1_555
H4 C5 1_555 1_555
N2 Cu1 1_555 1_555
C6 N2 1_555 1_555
H5 C6 1_555 1_555
C7 C6 1_555 1_555
H6 C7 1_555 1_555
C8 C7 1_555 1_555
C9 C8 1_555 1_555
H7 C9 1_555 1_555
C10 N2 1_555 1_555
H8 C10 1_555 1_555
C11 C8 1_555 1_555
C12 C11 1_555 1_555
H9 C12 1_555 1_555
C13 C12 1_555 1_555
H10 C13 1_555 1_555
N3 C13 1_555 1_555
C14 N3 1_555 1_555
H11 C14 1_555 1_555
C15 C11 1_555 1_555
H12 C15 1_555 1_555
P1 Cu1 1_555 1_555
C16 P1 1_555 1_555
C17 C16 1_555 1_555
H13 C17 1_555 1_555
C18 C17 1_555 1_555
H14 C18 1_555 1_555
C19 C18 1_555 1_555
H15 C19 1_555 1_555
C20 C19 1_555 1_555
H16 C20 1_555 1_555
C21 C16 1_555 1_555
H17 C21 1_555 1_555
C22 P1 1_555 1_555
C23 C22 1_555 1_555
H18 C23 1_555 1_555
C24 C23 1_555 1_555
H19 C24 1_555 1_555
C25 C24 1_555 1_555
H20 C25 1_555 1_555
C26 C25 1_555 1_555
H21 C26 1_555 1_555
C27 C22 1_555 1_555
H22 C27 1_555 1_555
C28 P1 1_555 1_555
C29 C28 1_555 1_555
H23 C29 1_555 1_555
C30 C29 1_555 1_555
H24 C30 1_555 1_555
C31 C30 1_555 1_555
H25 C31 1_555 1_555
C32 C31 1_555 1_555
H26 C32 1_555 1_555
C33 C28 1_555 1_555
H27 C33 1_555 1_555
C34 H28 1_555 1_555
H29 C34 1_555 1_555
Cl1 C34 1_555 1_555
Cl2 C34 1_555 1_555
C35 H30 1_555 1_555
H31 C35 1_555 1_555
Cl3 C35 1_555 1_555
Cl4 C35 1_555 1_555
P2 F1 1_555 1_555
F2 P2 1_555 1_555
F3 P2 1_555 1_555
F4 P2 1_555 1_555
F5 P2 1_555 1_555
F6 P2 1_555 1_555
Cu1B N1B 1_555 1_555
Cu1A N3 1_555 1_555
Cu1A_2 N2A 1_555 1_555
N1B C1B 1_555 1_555
C1B H1B 1_555 1_555
C2B C1B 1_555 1_555
H2B C2B 1_555 1_555
C3B C3 1_555 1_555
C4B C3B 1_555 1_555
H3B C4B 1_555 1_555
C5B N1B 1_555 1_555
H4B C5B 1_555 1_555
N2A C6A 1_555 1_555
N2B Cu1B 1_555 1_555
C6A H5A 1_555 1_555
C7A C6A 1_555 1_555
H6A C7A 1_555 1_555
C8A C7A 1_555 1_555
C9A C8A 1_555 1_555
H7A C9A 1_555 1_555
C10A N2A 1_555 1_555
H8A C10A 1_555 1_555
C11A C8A 1_555 1_555
C12A C11A 1_555 1_555
H9A C12A 1_555 1_555
C13A C12A 1_555 1_555
H10A C13A 1_555 1_555
N3A Cu1 1_555 1_555
N3C Cu1B 1_555 1_555
C14A N3A 1_555 1_555
H11A C14A 1_555 1_555
C15A C11A 1_555 1_555
H12A C15A 1_555 1_555
P1B Cu1B 1_555 1_555
C16B P1B 1_555 1_555
C17B C16B 1_555 1_555
H13B C17B 1_555 1_555
C18B C17B 1_555 1_555
H14B C18B 1_555 1_555
C19B C18B 1_555 1_555
H15B C19B 1_555 1_555
C20B C19B 1_555 1_555
H16B C20B 1_555 1_555
C21B C16B 1_555 1_555
H17B C21B 1_555 1_555
C22B P1B 1_555 1_555
C23B C22B 1_555 1_555
H18B C23B 1_555 1_555
C24B C23B 1_555 1_555
H19B C24B 1_555 1_555
C25B C24B 1_555 1_555
H20B C25B 1_555 1_555
C26B C25B 1_555 1_555
H21B C26B 1_555 1_555
C27B C22B 1_555 1_555
H22B C27B 1_555 1_555
C28B P1B 1_555 1_555
C29B C28B 1_555 1_555
H23B C29B 1_555 1_555
C30B C29B 1_555 1_555
H24B C30B 1_555 1_555
C31B C30B 1_555 1_555
H25B C31B 1_555 1_555
C32B C31B 1_555 1_555
H26B C32B 1_555 1_555
C33B C28B 1_555 1_555
H27B C33B 1_555 1_555
C4 C5 1_555 1_555
C9 C10 1_555 1_555
C14 C15 1_555 1_555
C20 C21 1_555 1_555
C26 C27 1_555 1_555
C32 C33 1_555 1_555
C2B C3B 1_555 1_555
C4B C5B 1_555 1_555
C9A C10A 1_555 1_555
C13A N3A 1_555 1_555
C14A C15A 1_555 1_555
C20B C21B 1_555 1_555
C26B C27B 1_555 1_555
C32B C33B 1_555 1_555

#END
