
#######################################################################
#
#                 Cambridge Crystallographic Data Centre
#                                CCDC 
#
#######################################################################
#
# If this CIF has been generated from an entry in the Cambridge 
# Structural Database, then it will include bibliographic, chemical, 
# crystal, experimental, refinement or atomic coordinate data resulting 
# from the CCDC's data processing and validation procedures.
#
#######################################################################

data_DAKYEV
_symmetry_cell_setting           orthorhombic
_symmetry_space_group_name_H-M   'P c a b'
_symmetry_Int_Tables_number      61
_space_group_name_Hall           '-P 2bc 2ac'
loop_
_symmetry_equiv_pos_site_id
_symmetry_equiv_pos_as_xyz
1 x,y,z
2 -x,1/2-y,1/2+z
3 1/2+x,-y,1/2-z
4 1/2-x,1/2+y,-z
5 -x,-y,-z
6 x,1/2+y,1/2-z
7 1/2-x,y,1/2+z
8 1/2+x,1/2-y,z
_cell_length_a                   19.0455(15)
_cell_length_b                   19.2388(12)
_cell_length_c                   24.4262(10)
_cell_angle_alpha                90
_cell_angle_beta                 90
_cell_angle_gamma                90
_cell_volume                     8950.07
loop_
_atom_site_label
_atom_site_type_symbol
_atom_site_fract_x
_atom_site_fract_y
_atom_site_fract_z
Cu1 Cu 0.05070(3) 0.25003(4) 0.10738(2)
N1 N -0.0153(2) 0.2533(3) 0.17601(17)
N2 N -0.3487(2) 0.2532(3) 0.14016(17)
C1 C 0.0008(3) 0.2741(3) 0.2262(2)
H1 H 0.0485 0.2784 0.2357
C2 C -0.0486(3) 0.2898(4) 0.2649(2)
H2 H -0.0348 0.3031 0.3004
C3 C -0.1185(3) 0.2859(4) 0.2515(2)
H3 H -0.1531 0.2980 0.2773
C4 C -0.1376(3) 0.2641(3) 0.2000(2)
C5 C -0.0836(2) 0.2474(3) 0.1647(2)
H4 H -0.0960 0.2304 0.1299
C6 C -0.2112(3) 0.2592(3) 0.1807(2)
C7 C -0.2622(3) 0.3047(3) 0.1982(2)
H5 H -0.2514 0.3392 0.2241
C8 C -0.3292(3) 0.2993(3) 0.1774(2)
H6 H -0.3633 0.3305 0.1904
C9 C -0.2986(3) 0.2085(3) 0.1232(2)
H7 H -0.3106 0.1748 0.0970
C10 C -0.2308(3) 0.2098(3) 0.1425(2)
H8 H -0.1979 0.1772 0.1298
P1 P 0.03010(8) 0.35232(9) 0.06376(7)
C11 C 0.0455(3) 0.3493(3) -0.0095(2)
C12 C -0.0042(4) 0.3656(3) -0.0489(3)
H9 H -0.0484 0.3823 -0.0381
C13 C 0.0103(4) 0.3576(4) -0.1035(3)
H10 H -0.0243 0.3677 -0.1297
C14 C 0.0752(5) 0.3350(4) -0.1201(3)
H11 H 0.0852 0.3308 -0.1576
C15 C 0.1254(4) 0.3187(4) -0.0824(3)
H12 H 0.1699 0.3031 -0.0937
C16 C 0.1101(4) 0.3254(3) -0.0270(3)
H13 H 0.1444 0.3135 -0.0010
C17 C -0.0580(3) 0.3883(3) 0.0702(2)
C18 C -0.1141(3) 0.3454(4) 0.0598(3)
H14 H -0.1061 0.2991 0.0492
C19 C -0.1821(4) 0.3697(4) 0.0647(3)
H15 H -0.2199 0.3395 0.0579
C20 C -0.1952(4) 0.4373(5) 0.0794(3)
H16 H -0.2416 0.4534 0.0825
C21 C -0.1403(4) 0.4805(4) 0.0895(3)
H17 H -0.1487 0.5270 0.0994
C22 C -0.0711(3) 0.4560(3) 0.0851(3)
H18 H -0.0334 0.4861 0.0925
C23 C 0.0841(3) 0.4239(3) 0.0881(2)
C24 C 0.1169(3) 0.4710(3) 0.0541(3)
H19 H 0.1129 0.4661 0.0160
C25 C 0.1555(3) 0.5252(3) 0.0754(3)
H20 H 0.1772 0.5572 0.0517
C26 C 0.1623(4) 0.5328(4) 0.1304(3)
H21 H 0.1886 0.5700 0.1446
C27 C 0.1308(4) 0.4861(4) 0.1654(3)
H22 H 0.1355 0.4914 0.2034
C28 C 0.0925(3) 0.4318(4) 0.1443(3)
H23 H 0.0716 0.3996 0.1682
P2 P 0.02914(8) 0.14872(8) 0.06263(6)
C29 C -0.0625(3) 0.1291(3) 0.0446(2)
C30 C -0.0966(3) 0.1728(3) 0.0081(2)
H24 H -0.0725 0.2105 -0.0075
C31 C -0.1660(3) 0.1608(4) -0.0053(3)
H25 H -0.1891 0.1908 -0.0297
C32 C -0.2013(3) 0.1056(4) 0.0167(3)
H26 H -0.2484 0.0975 0.0072
C33 C -0.1678(3) 0.0619(3) 0.0526(3)
H27 H -0.1922 0.0240 0.0678
C34 C -0.0989(3) 0.0732(3) 0.0664(2)
H28 H -0.0762 0.0428 0.0908
C35 C 0.0554(3) 0.0741(3) 0.1034(2)
C36 C 0.0942(3) 0.0185(3) 0.0837(3)
H29 H 0.1084 0.0181 0.0468
C37 C 0.1122(4) -0.0357(3) 0.1170(3)
H30 H 0.1396 -0.0723 0.1030
C38 C 0.0909(4) -0.0373(4) 0.1706(3)
H31 H 0.1027 -0.0753 0.1930
C39 C 0.0521(4) 0.0171(4) 0.1914(3)
H32 H 0.0371 0.0163 0.2280
C40 C 0.0354(3) 0.0730(3) 0.1584(3)
H33 H 0.0102 0.1106 0.1730
C41 C 0.0761(3) 0.1377(3) -0.0016(2)
C42 C 0.1459(3) 0.1567(3) -0.0025(3)
H34 H 0.1672 0.1737 0.0295
C43 C 0.1849(3) 0.1510(3) -0.0500(3)
H35 H 0.2326 0.1634 -0.0500
C44 C 0.1541(4) 0.1274(3) -0.0973(3)
H36 H 0.1802 0.1243 -0.1298
C45 C 0.0851(4) 0.1084(4) -0.0964(3)
H37 H 0.0641 0.0914 -0.1286
C46 C 0.0454(3) 0.1137(3) -0.0493(2)
H38 H -0.0022 0.1010 -0.0497
Cu1G Cu -0.44930(3) 0.24997(4) 0.10738(2)
N2G N 0.1513(2) 0.2468(3) 0.14016(17)
P3 P 0.16203(9) 0.25392(12) 0.33887(7)
F1 F 0.1598(2) 0.2124(2) 0.39522(16)
F2 F 0.1635(2) 0.2980(2) 0.28341(17)
F3 F 0.1225(2) 0.1937(2) 0.30751(16)
F4 F 0.0907(2) 0.2904(2) 0.3545(2)
F5 F 0.2042(2) 0.3155(3) 0.36750(19)
F6 F 0.2342(2) 0.2181(3) 0.32453(19)
O1 O 0.3076(8) 0.0401(7) 0.2625(6)
C47 C 0.2708(9) -0.0008(8) 0.2250(7)
H39 H 0.2821 0.0132 0.1875
H40 H 0.2201 0.0041 0.2306
C48 C 0.2925(8) -0.0719(8) 0.2347(6)
H41 H 0.2591 -0.0957 0.2589
H42 H 0.2957 -0.0976 0.2002
C49 C 0.3606(9) -0.0667(9) 0.2604(7)
H43 H 0.3968 -0.0894 0.2382
H44 H 0.3602 -0.0878 0.2970
C50 C 0.3722(13) 0.0077(12) 0.2636(10)
H45 H 0.3971 0.0194 0.2975
H46 H 0.4009 0.0232 0.2325
loop_
_geom_bond_atom_site_label_1
_geom_bond_atom_site_label_2
_geom_bond_site_symmetry_1
_geom_bond_site_symmetry_2
Cu1 N1 1_555 1_555
N1 C1 1_555 1_555
N2 C8 1_555 1_555
C1 H1 1_555 1_555
C2 C1 1_555 1_555
H2 C2 1_555 1_555
C3 C2 1_555 1_555
H3 C3 1_555 1_555
C4 C3 1_555 1_555
C5 N1 1_555 1_555
H4 C5 1_555 1_555
C6 C4 1_555 1_555
C7 C6 1_555 1_555
H5 C7 1_555 1_555
C8 C7 1_555 1_555
H6 C8 1_555 1_555
C9 N2 1_555 1_555
H7 C9 1_555 1_555
C10 C6 1_555 1_555
H8 C10 1_555 1_555
P1 Cu1 1_555 1_555
C11 P1 1_555 1_555
C12 C11 1_555 1_555
H9 C12 1_555 1_555
C13 C12 1_555 1_555
H10 C13 1_555 1_555
C14 C13 1_555 1_555
H11 C14 1_555 1_555
C15 C14 1_555 1_555
H12 C15 1_555 1_555
C16 C11 1_555 1_555
H13 C16 1_555 1_555
C17 P1 1_555 1_555
C18 C17 1_555 1_555
H14 C18 1_555 1_555
C19 C18 1_555 1_555
H15 C19 1_555 1_555
C20 C19 1_555 1_555
H16 C20 1_555 1_555
C21 C20 1_555 1_555
H17 C21 1_555 1_555
C22 C17 1_555 1_555
H18 C22 1_555 1_555
C23 P1 1_555 1_555
C24 C23 1_555 1_555
H19 C24 1_555 1_555
C25 C24 1_555 1_555
H20 C25 1_555 1_555
C26 C25 1_555 1_555
H21 C26 1_555 1_555
C27 C26 1_555 1_555
H22 C27 1_555 1_555
C28 C23 1_555 1_555
H23 C28 1_555 1_555
P2 Cu1 1_555 1_555
C29 P2 1_555 1_555
C30 C29 1_555 1_555
H24 C30 1_555 1_555
C31 C30 1_555 1_555
H25 C31 1_555 1_555
C32 C31 1_555 1_555
H26 C32 1_555 1_555
C33 C32 1_555 1_555
H27 C33 1_555 1_555
C34 C29 1_555 1_555
H28 C34 1_555 1_555
C35 P2 1_555 1_555
C36 C35 1_555 1_555
H29 C36 1_555 1_555
C37 C36 1_555 1_555
H30 C37 1_555 1_555
C38 C37 1_555 1_555
H31 C38 1_555 1_555
C39 C38 1_555 1_555
H32 C39 1_555 1_555
C40 C35 1_555 1_555
H33 C40 1_555 1_555
C41 P2 1_555 1_555
C42 C41 1_555 1_555
H34 C42 1_555 1_555
C43 C42 1_555 1_555
H35 C43 1_555 1_555
C44 C43 1_555 1_555
H36 C44 1_555 1_555
C45 C44 1_555 1_555
H37 C45 1_555 1_555
C46 C41 1_555 1_555
H38 C46 1_555 1_555
P3 F1 1_555 1_555
F2 P3 1_555 1_555
F3 P3 1_555 1_555
F4 P3 1_555 1_555
F5 P3 1_555 1_555
F6 P3 1_555 1_555
O1 C47 1_555 1_555
C47 H39 1_555 1_555
H40 C47 1_555 1_555
C48 C47 1_555 1_555
H41 C48 1_555 1_555
H42 C48 1_555 1_555
C49 C48 1_555 1_555
H43 C49 1_555 1_555
H44 C49 1_555 1_555
C50 O1 1_555 1_555
H45 C50 1_555 1_555
H46 C50 1_555 1_555
Cu1G N2 1_555 1_555
N2G Cu1 1_555 1_555
C4 C5 1_555 1_555
C9 C10 1_555 1_555
C15 C16 1_555 1_555
C21 C22 1_555 1_555
C27 C28 1_555 1_555
C33 C34 1_555 1_555
C39 C40 1_555 1_555
C45 C46 1_555 1_555
C49 C50 1_555 1_555

#END
