
#######################################################################
#
#                 Cambridge Crystallographic Data Centre
#                                CCDC 
#
#######################################################################
#
# If this CIF has been generated from an entry in the Cambridge 
# Structural Database, then it will include bibliographic, chemical, 
# crystal, experimental, refinement or atomic coordinate data resulting 
# from the CCDC's data processing and validation procedures.
#
#######################################################################

data_DAKYAR
_symmetry_cell_setting           monoclinic
_symmetry_space_group_name_H-M   'P 21/a'
_symmetry_Int_Tables_number      14
_space_group_name_Hall           '-P 2yab'
loop_
_symmetry_equiv_pos_site_id
_symmetry_equiv_pos_as_xyz
1 x,y,z
2 1/2-x,1/2+y,-z
3 -x,-y,-z
4 1/2+x,1/2-y,z
_cell_length_a                   19.044(2)
_cell_length_b                   23.6112(8)
_cell_length_c                   26.174(4)
_cell_angle_alpha                90
_cell_angle_beta                 94.589(10)
_cell_angle_gamma                90
_cell_volume                     11731.5
loop_
_atom_site_label
_atom_site_type_symbol
_atom_site_fract_x
_atom_site_fract_y
_atom_site_fract_z
B1 B 0.4171(6) 0.1362(5) 0.2323(5)
F1 F 0.4438(3) 0.1838(2) 0.2564(3)
F2 F 0.3491(4) 0.1434(3) 0.2137(3)
F3 F 0.4197(4) 0.0924(3) 0.2661(3)
F4 F 0.4572(4) 0.1230(3) 0.1924(3)
B2 B 0.8001(8) 0.1907(4) 0.9495(4)
F5 F 0.8393(4) 0.1494(2) 0.9282(2)
F6 F 0.7630(5) 0.1669(2) 0.9877(3)
F7 F 0.7502(4) 0.2099(3) 0.9110(3)
F8 F 0.8383(4) 0.2357(3) 0.9666(3)
B3 B 0.9809(8) 0.0722(5) 0.6281(7)
F9 F 0.9299(4) 0.1018(4) 0.6090(5)
F10 F 0.9802(6) 0.0774(3) 0.6830(5)
F11 F 0.9753(3) 0.0149(2) 0.6201(2)
F12 F 1.0448(3) 0.0923(3) 0.6194(3)
O1 O 0.7543(6) 0.2566(6) 0.3268(7)
C100 C 0.7966(11) 0.2241(10) 0.2994(8)
H82 H 0.8173 0.2474 0.2735
H83 H 0.7688 0.1940 0.2818
C101 C 0.8489(11) 0.2010(10) 0.3319(9)
H84 H 0.8323 0.1671 0.3489
H85 H 0.8902 0.1911 0.3137
C102 C 0.8637(11) 0.2434(11) 0.3659(10)
H86 H 0.9041 0.2656 0.3565
H87 H 0.8740 0.2284 0.4006
C103 C 0.8032(13) 0.2760(10) 0.3631(10)
H88 H 0.7833 0.2758 0.3965
H89 H 0.8153 0.3152 0.3551
O2 O 0.0839(11) 0.3770(6) 0.4099(6)
C104 C 0.1407(13) 0.4115(11) 0.4077(9)
H90 H 0.1823 0.3892 0.4008
H91 H 0.1505 0.4312 0.4404
C105 C 0.1255(17) 0.4501(10) 0.3689(10)
H92 H 0.0955 0.4808 0.3799
H93 H 0.1685 0.4662 0.3566
C106 C 0.0908(17) 0.4169(12) 0.3327(7)
H94 H 0.1238 0.3962 0.3127
H95 H 0.0591 0.4394 0.3094
C107 C 0.0541(15) 0.3810(11) 0.3613(8)
H96 H 0.0056 0.3946 0.3620
H97 H 0.0525 0.3434 0.3454
O3 O 0.4390(5) 0.6804(4) 0.1104(4)
C108 C 0.4243(11) 0.6931(7) 0.0615(6)
H98 H 0.3730 0.6945 0.0540
H99 H 0.4429 0.6635 0.0401
C109 C 0.4527(14) 0.7440(8) 0.0498(6)
H100 H 0.4154 0.7709 0.0388
H101 H 0.4837 0.7395 0.0220
C110 C 0.4905(13) 0.7635(7) 0.0934(6)
H102 H 0.5403 0.7687 0.0875
H103 H 0.4715 0.7997 0.1046
C111 C 0.4827(11) 0.7224(7) 0.1286(6)
H104 H 0.4638 0.7393 0.1589
H105 H 0.5290 0.7063 0.1393
O4 O 0.7494(12) 0.6818(10) 0.4437(12)
C112 C 0.7801(12) 0.7284(13) 0.4621(16)
H106 H 0.8011 0.7486 0.4344
H107 H 0.8180 0.7183 0.4880
C113 C 0.7331(15) 0.7632(10) 0.4836(16)
H108 H 0.7433 0.7656 0.5208
H109 H 0.7340 0.8014 0.4690
C114 C 0.6698(11) 0.7376(12) 0.4714(15)
H110 H 0.6483 0.7507 0.4382
H111 H 0.6371 0.7440 0.4978
C115 C 0.6898(14) 0.6818(10) 0.4694(15)
H112 H 0.6994 0.6663 0.5040
H113 H 0.6527 0.6591 0.4511
Cu1 Cu 0.21934(4) 0.51361(3) 0.04909(3)
Cu2 Cu 0.07066(4) 0.13481(3) 0.27369(3)
Cu3 Cu 0.49067(5) 0.80686(3) 0.33452(3)
C1 C 0.1412(4) 0.4400(3) 0.1151(3)
H1 H 0.1115 0.4718 0.1141
C2 C 0.1251(4) 0.3959(3) 0.1459(3)
H2 H 0.0859 0.3983 0.1655
C3 C 0.1672(4) 0.3468(3) 0.1482(3)
C4 C 0.2247(4) 0.3484(3) 0.1188(3)
H3 H 0.2552 0.3171 0.1186
C5 C 0.2374(4) 0.3954(3) 0.0897(3)
H4 H 0.2776 0.3954 0.0711
C6 C 0.1504(4) 0.2982(3) 0.1798(3)
C7 C 0.0959(4) 0.2993(3) 0.2113(3)
H5 H 0.0689 0.3324 0.2133
C8 C 0.0804(4) 0.2527(3) 0.2399(3)
H6 H 0.0430 0.2552 0.2611
C9 C 0.1702(4) 0.2024(3) 0.2089(3)
H7 H 0.1968 0.1689 0.2080
C10 C 0.1893(4) 0.2483(3) 0.1791(3)
H8 H 0.2278 0.2455 0.1589
C11 C 0.2645(4) 0.5511(3) 0.1563(3)
H9 H 0.2639 0.5119 0.1626
C12 C 0.3001(4) 0.5842(3) 0.1920(3)
H10 H 0.3213 0.5686 0.2225
C13 C 0.3044(4) 0.6433(3) 0.1819(3)
C14 C 0.2677(5) 0.6618(3) 0.1394(3)
H11 H 0.2669 0.7008 0.1324
C15 C 0.2315(4) 0.6261(3) 0.1059(3)
H12 H 0.2065 0.6412 0.0766
C16 C 0.3486(4) 0.6802(3) 0.2182(3)
C17 C 0.4053(4) 0.6611(3) 0.2483(3)
H13 H 0.4179 0.6227 0.2470
C18 C 0.4443(4) 0.6972(3) 0.2807(3)
H14 H 0.4832 0.6826 0.3009
C19 C 0.3734(4) 0.7709(3) 0.2548(3)
H15 H 0.3609 0.8093 0.2571
C20 C 0.3338(4) 0.7379(3) 0.2216(3)
H16 H 0.2964 0.7537 0.2007
C21 C 0.3472(4) 0.4631(3) 0.0069(3)
H17 H 0.3142 0.4361 -0.0060
C22 C 0.4129(4) 0.4608(3) -0.0091(3)
H18 H 0.4245 0.4324 -0.0322
C23 C 0.4639(4) 0.5006(3) 0.0087(3)
C24 C 0.4417(4) 0.5418(4) 0.0419(4)
H19 H 0.4730 0.5702 0.0545
C25 C 0.3745(4) 0.5408(4) 0.0562(3)
H20 H 0.3611 0.5691 0.0787
C26 C 0.0184(6) 0.2191(3) 0.5848(3)
H21 H 0.0161 0.1945 0.6128
C27 C 0.0247(5) 0.1959(3) 0.5374(3)
H22 H 0.0242 0.1564 0.5331
C28 C 0.0317(4) 0.2310(3) 0.4957(3)
C29 C 0.0290(6) 0.2885(3) 0.5048(3)
H23 H 0.0322 0.3146 0.4781
C30 C 0.0214(6) 0.3065(3) 0.5537(3)
H24 H 0.0204 0.3459 0.5592
C31 C 0.0402(4) 0.2080(3) 0.4441(3)
C32 C 0.0075(5) 0.1584(3) 0.4267(3)
H25 H -0.0204 0.1374 0.4479
C33 C 0.0167(5) 0.1404(3) 0.3773(3)
H26 H -0.0071 0.1074 0.3656
C34 C 0.0905(5) 0.2111(4) 0.3641(3)
H27 H 0.1225 0.2285 0.3435
C35 C 0.0819(5) 0.2339(4) 0.4115(3)
H28 H 0.1052 0.2677 0.4215
C36 C 0.3583(4) -0.1317(3) 0.3571(3)
H29 H 0.3496 -0.1660 0.3737
C37 C 0.3054(4) -0.0925(3) 0.3529(4)
H30 H 0.2619 -0.1003 0.3660
C38 C 0.3163(4) -0.0413(3) 0.3293(3)
C39 C 0.3825(4) -0.0324(3) 0.3128(3)
H31 H 0.3932 0.0022 0.2974
C40 C 0.4331(4) -0.0744(3) 0.3189(3)
H32 H 0.4781 -0.0671 0.3080
C41 C 0.2593(4) 0.0020(3) 0.3206(3)
C42 C 0.1903(4) -0.0130(3) 0.3172(4)
H33 H 0.1776 -0.0506 0.3236
C43 C 0.1397(4) 0.0261(3) 0.3047(4)
H34 H 0.0925 0.0142 0.3028
C44 C 0.2192(4) 0.0944(3) 0.2996(4)
H35 H 0.2305 0.1327 0.2950
C45 C 0.2740(4) 0.0573(3) 0.3108(4)
H36 H 0.3209 0.0699 0.3117
P1 P 0.17992(10) 0.55333(8) -0.02372(8)
C46 C 0.1776(5) 0.5096(3) -0.0818(4)
C47 C 0.1855(4) 0.4514(3) -0.0773(4)
H37 H 0.1900 0.4347 -0.0446
C48 C 0.1868(5) 0.4180(4) -0.1202(4)
H38 H 0.1912 0.3784 -0.1171
C49 C 0.1818(5) 0.4426(5) -0.1668(5)
H39 H 0.1841 0.4197 -0.1961
C50 C 0.1734(6) 0.5007(4) -0.1729(4)
H40 H 0.1694 0.5172 -0.2057
C51 C 0.1710(5) 0.5329(4) -0.1303(3)
H41 H 0.1647 0.5722 -0.1339
C52 C 0.2401(4) 0.6088(3) -0.0400(3)
C53 C 0.3021(4) 0.5954(4) -0.0613(3)
H42 H 0.3104 0.5574 -0.0697
C54 C 0.3523(5) 0.6352(4) -0.0709(4)
H43 H 0.3942 0.6241 -0.0848
C55 C 0.3408(5) 0.6906(4) -0.0600(3)
H44 H 0.3745 0.7181 -0.0667
C56 C 0.2797(5) 0.7062(4) -0.0392(4)
H45 H 0.2721 0.7446 -0.0319
C57 C 0.2287(4) 0.6660(3) -0.0287(3)
H46 H 0.1872 0.6772 -0.0142
C58 C 0.0934(4) 0.5867(3) -0.0240(3)
C59 C 0.0674(4) 0.6249(4) -0.0604(4)
H47 H 0.0957 0.6357 -0.0865
C60 C 0.0019(5) 0.6477(4) -0.0595(5)
H48 H -0.0141 0.6748 -0.0841
C61 C -0.0412(5) 0.6307(4) -0.0220(5)
H49 H -0.0873 0.6448 -0.0222
C62 C -0.0168(5) 0.5935(4) 0.0151(4)
H50 H -0.0451 0.5834 0.0415
C63 C 0.0502(4) 0.5709(4) 0.0135(4)
H51 H 0.0666 0.5443 0.0384
P2 P 0.58849(10) 0.82619(8) 0.29881(8)
C64 C 0.6647(4) 0.8525(4) 0.3377(3)
C65 C 0.7329(4) 0.8461(4) 0.3240(4)
H52 H 0.7416 0.8263 0.2941
C66 C 0.7885(5) 0.8690(5) 0.3549(4)
H53 H 0.8348 0.8636 0.3459
C67 C 0.7775(5) 0.8990(5) 0.3974(4)
H54 H 0.8157 0.9140 0.4180
C68 C 0.7109(6) 0.9073(5) 0.4099(4)
H55 H 0.7032 0.9295 0.4387
C69 C 0.6531(5) 0.8839(4) 0.3813(4)
H56 H 0.6072 0.8892 0.3912
C70 C 0.5733(4) 0.8798(3) 0.2497(3)
C71 C 0.5205(5) 0.8710(4) 0.2116(4)
H57 H 0.4987 0.8353 0.2086
C72 C 0.5299(7) 0.9665(6) 0.1829(5)
H58 H 0.5146 0.9963 0.1609
C73 C 0.4983(5) 0.9142(5) 0.1772(4)
H59 H 0.4627 0.9075 0.1508
C74 C 0.5825(7) 0.9757(5) 0.2196(6)
H60 H 0.6048 1.0112 0.2226
C75 C 0.6029(5) 0.9327(4) 0.2524(4)
H61 H 0.6391 0.9398 0.2782
C76 C 0.6217(4) 0.7667(3) 0.2647(4)
C77 C 0.6369(5) 0.7670(5) 0.2148(5)
H62 H 0.6319 0.8003 0.1953
C78 C 0.6598(6) 0.7175(9) 0.1931(7)
H63 H 0.6690 0.7183 0.1583
C79 C 0.6694(8) 0.6706(8) 0.2177(12)
H64 H 0.6878 0.6387 0.2019
C80 C 0.6514(9) 0.6684(6) 0.2686(10)
H65 H 0.6549 0.6342 0.2870
C81 C 0.6281(6) 0.7177(5) 0.2921(6)
H66 H 0.6171 0.7169 0.3264
P3 P -0.01279(10) 0.09749(7) 0.22104(8)
C82 C 0.0204(4) 0.0342(3) 0.1909(3)
C83 C 0.0889(4) 0.0364(4) 0.1752(3)
H67 H 0.1147 0.0702 0.1793
C84 C 0.0796(6) -0.0599(4) 0.1478(4)
H68 H 0.0991 -0.0922 0.1334
C85 C 0.1196(5) -0.0103(4) 0.1538(4)
H69 H 0.1658 -0.0086 0.1436
C86 C 0.0129(6) -0.0618(3) 0.1626(4)
H70 H -0.0133 -0.0955 0.1581
C87 C -0.0174(5) -0.0150(3) 0.1841(3)
H71 H -0.0637 -0.0170 0.1941
C88 C -0.0459(4) 0.1417(3) 0.1677(3)
C89 C -0.0507(4) 0.1249(3) 0.1175(3)
H72 H -0.0378 0.0877 0.1096
C90 C -0.0741(5) 0.1613(4) 0.0778(4)
H73 H -0.0752 0.1499 0.0433
C91 C -0.0961(5) 0.2158(4) 0.0915(4)
H74 H -0.1139 0.2407 0.0656
C92 C -0.0925(5) 0.2330(4) 0.1403(4)
H75 H -0.1075 0.2696 0.1485
C93 C -0.0666(4) 0.1966(3) 0.1784(3)
H76 H -0.0628 0.2092 0.2126
C94 C -0.0933(4) 0.0716(3) 0.2476(3)
C95 C -0.1606(4) 0.0857(3) 0.2280(3)
H77 H -0.1670 0.1099 0.1995
C96 C -0.2176(4) 0.0644(3) 0.2499(4)
H78 H -0.2632 0.0739 0.2361
C97 C -0.2092(5) 0.0288(4) 0.2927(4)
H79 H -0.2486 0.0152 0.3083
C98 C -0.1417(4) 0.0141(4) 0.3117(3)
H80 H -0.1350 -0.0115 0.3391
C99 C -0.0851(4) 0.0370(3) 0.2905(3)
H81 H -0.0395 0.0291 0.3052
N1 N 0.1957(3) 0.4414(2) 0.0864(2)
N2 N 0.1163(3) 0.2036(2) 0.2387(2)
N3 N 0.2308(3) 0.5695(2) 0.1137(2)
N4 N 0.4290(3) 0.7525(2) 0.2846(2)
N5 N 0.3261(3) 0.5019(2) 0.0402(2)
N6 N 0.0154(3) 0.2740(2) 0.5933(2)
N7 N 0.0558(3) 0.1656(2) 0.3458(2)
N8 N 0.4211(3) -0.1250(2) 0.3394(2)
N9 N 0.1524(3) 0.0804(2) 0.2949(2)
Cu1B Cu 0.78066(4) 0.48639(3) -0.04909(3)
Cu2B Cu 0.92934(4) 0.86519(3) -0.27369(3)
Cu2A Cu 0.42934(4) 0.63481(3) 0.72631(3)
Cu2_2 Cu 0.07066(4) 1.13481(3) 0.27369(3)
Cu3B Cu 0.50933(5) 0.19314(3) -0.33452(3)
Cu3A Cu 0.00933(5) 0.30686(3) 0.66548(3)
Cu3_2 Cu 0.49067(5) -0.19314(3) 0.33452(3)
C1B C 0.8588(4) 0.5600(3) -0.1151(3)
H1B H 0.8885 0.5282 -0.1141
C2B C 0.8749(4) 0.6041(3) -0.1459(3)
H2B H 0.9141 0.6017 -0.1655
C3B C 0.8328(4) 0.6532(3) -0.1482(3)
C4B C 0.7753(4) 0.6516(3) -0.1188(3)
H3B H 0.7448 0.6829 -0.1186
C5B C 0.7626(4) 0.6046(3) -0.0897(3)
H4B H 0.7224 0.6046 -0.0711
C6B C 0.8496(4) 0.7018(3) -0.1798(3)
C7B C 0.9041(4) 0.7007(3) -0.2113(3)
H5B H 0.9311 0.6676 -0.2133
C8B C 0.9196(4) 0.7473(3) -0.2399(3)
H6B H 0.9570 0.7448 -0.2611
C9B C 0.8298(4) 0.7976(3) -0.2089(3)
H7B H 0.8032 0.8311 -0.2080
C10B C 0.8107(4) 0.7517(3) -0.1791(3)
H8B H 0.7722 0.7545 -0.1589
C11B C 0.7355(4) 0.4489(3) -0.1563(3)
H9B H 0.7361 0.4881 -0.1626
C12B C 0.6999(4) 0.4158(3) -0.1920(3)
H10B H 0.6787 0.4314 -0.2225
C13B C 0.6956(4) 0.3567(3) -0.1819(3)
C14B C 0.7323(5) 0.3382(3) -0.1394(3)
H11B H 0.7331 0.2992 -0.1324
C15B C 0.7685(4) 0.3739(3) -0.1059(3)
H12B H 0.7935 0.3588 -0.0766
C16B C 0.6514(4) 0.3198(3) -0.2182(3)
C17B C 0.5947(4) 0.3389(3) -0.2483(3)
H13B H 0.5821 0.3773 -0.2470
C18B C 0.5557(4) 0.3028(3) -0.2807(3)
H14B H 0.5168 0.3174 -0.3009
C19B C 0.6266(4) 0.2291(3) -0.2548(3)
H15B H 0.6391 0.1907 -0.2571
C20B C 0.6662(4) 0.2621(3) -0.2216(3)
H16B H 0.7036 0.2463 -0.2007
C21B C 0.6528(4) 0.5369(3) -0.0069(3)
H17B H 0.6858 0.5639 0.0060
C22B C 0.5871(4) 0.5392(3) 0.0091(3)
H18B H 0.5755 0.5676 0.0322
C23B C 0.5361(4) 0.4994(3) -0.0087(3)
C24B C 0.5583(4) 0.4582(4) -0.0419(4)
H19B H 0.5270 0.4298 -0.0545
C25B C 0.6255(4) 0.4592(4) -0.0562(3)
H20B H 0.6389 0.4309 -0.0787
C26A C 0.4816(6) 0.7191(3) 0.4152(3)
H21A H 0.4839 0.6945 0.3872
C27A C 0.4753(5) 0.6959(3) 0.4626(3)
H22A H 0.4758 0.6564 0.4669
C28A C 0.4683(4) 0.7310(3) 0.5043(3)
C29A C 0.4710(6) 0.7885(3) 0.4952(3)
H23A H 0.4678 0.8146 0.5219
C30A C 0.4786(6) 0.8065(3) 0.4463(3)
H24A H 0.4796 0.8459 0.4408
C31A C 0.4598(4) 0.7080(3) 0.5559(3)
C32A C 0.4925(5) 0.6584(3) 0.5733(3)
H25A H 0.5204 0.6374 0.5521
C33A C 0.4833(5) 0.6404(3) 0.6227(3)
H26A H 0.5071 0.6074 0.6344
C34A C 0.4095(5) 0.7111(4) 0.6359(3)
H27A H 0.3775 0.7285 0.6565
C35A C 0.4181(5) 0.7339(4) 0.5885(3)
H28A H 0.3948 0.7677 0.5785
C36_2 C 0.3583(4) 0.8683(3) 0.3571(3)
H29_2 H 0.3496 0.8340 0.3737
C37_2 C 0.3054(4) 0.9075(3) 0.3529(4)
H30_2 H 0.2619 0.8997 0.3660
C38_2 C 0.3163(4) 0.9587(3) 0.3293(3)
C39_2 C 0.3825(4) 0.9676(3) 0.3128(3)
H31_2 H 0.3932 1.0022 0.2974
C40_2 C 0.4331(4) 0.9256(3) 0.3189(3)
H32_2 H 0.4781 0.9329 0.3080
C41_2 C 0.2593(4) 1.0020(3) 0.3206(3)
C42_2 C 0.1903(4) 0.9870(3) 0.3172(4)
H33_2 H 0.1776 0.9494 0.3236
C43_2 C 0.1397(4) 1.0261(3) 0.3047(4)
H34_2 H 0.0925 1.0142 0.3028
C44_2 C 0.2192(4) 1.0944(3) 0.2996(4)
H35_2 H 0.2305 1.1327 0.2950
C45_2 C 0.2740(4) 1.0573(3) 0.3108(4)
H36_2 H 0.3209 1.0699 0.3117
P1B P 0.82008(10) 0.44667(8) 0.02372(8)
C46B C 0.8224(5) 0.4904(3) 0.0818(4)
C47B C 0.8145(4) 0.5486(3) 0.0773(4)
H37B H 0.8100 0.5653 0.0446
C48B C 0.8132(5) 0.5820(4) 0.1202(4)
H38B H 0.8088 0.6216 0.1171
C49B C 0.8182(5) 0.5574(5) 0.1668(5)
H39B H 0.8159 0.5803 0.1961
C50B C 0.8266(6) 0.4993(4) 0.1729(4)
H40B H 0.8306 0.4828 0.2057
C51B C 0.8290(5) 0.4671(4) 0.1303(3)
H41B H 0.8353 0.4278 0.1339
C52B C 0.7599(4) 0.3912(3) 0.0400(3)
C53B C 0.6979(4) 0.4046(4) 0.0613(3)
H42B H 0.6896 0.4426 0.0697
C54B C 0.6477(5) 0.3648(4) 0.0709(4)
H43B H 0.6058 0.3759 0.0848
C55B C 0.6592(5) 0.3094(4) 0.0600(3)
H44B H 0.6255 0.2819 0.0667
C56B C 0.7203(5) 0.2938(4) 0.0392(4)
H45B H 0.7279 0.2554 0.0319
C57B C 0.7713(4) 0.3340(3) 0.0287(3)
H46B H 0.8128 0.3228 0.0142
C58B C 0.9066(4) 0.4133(3) 0.0240(3)
C59B C 0.9326(4) 0.3751(4) 0.0604(4)
H47B H 0.9043 0.3643 0.0865
C60B C 0.9981(5) 0.3523(4) 0.0595(5)
H48B H 1.0141 0.3252 0.0841
C61B C 1.0412(5) 0.3693(4) 0.0220(5)
H49B H 1.0873 0.3552 0.0222
C62B C 1.0168(5) 0.4065(4) -0.0151(4)
H50B H 1.0451 0.4166 -0.0415
C63B C 0.9498(4) 0.4291(4) -0.0135(4)
H51B H 0.9334 0.4557 -0.0384
P2B P 0.41151(10) 0.17381(8) -0.29881(8)
C64B C 0.3353(4) 0.1475(4) -0.3377(3)
C65B C 0.2671(4) 0.1539(4) -0.3240(4)
H52B H 0.2584 0.1737 -0.2941
C66B C 0.2115(5) 0.1310(5) -0.3549(4)
H53B H 0.1652 0.1364 -0.3459
C67B C 0.2225(5) 0.1010(5) -0.3974(4)
H54B H 0.1843 0.0860 -0.4180
C68B C 0.2891(6) 0.0927(5) -0.4099(4)
H55B H 0.2968 0.0705 -0.4387
C69B C 0.3469(5) 0.1161(4) -0.3813(4)
H56B H 0.3928 0.1108 -0.3912
C70B C 0.4267(4) 0.1202(3) -0.2497(3)
C71B C 0.4795(5) 0.1290(4) -0.2116(4)
H57B H 0.5013 0.1647 -0.2086
C72B C 0.4701(7) 0.0335(6) -0.1829(5)
H58B H 0.4854 0.0037 -0.1609
C73B C 0.5017(5) 0.0858(5) -0.1772(4)
H59B H 0.5373 0.0925 -0.1508
C74B C 0.4175(7) 0.0243(5) -0.2196(6)
H60B H 0.3952 -0.0112 -0.2226
C75B C 0.3971(5) 0.0673(4) -0.2524(4)
H61B H 0.3609 0.0602 -0.2782
C76B C 0.3783(4) 0.2333(3) -0.2647(4)
C77B C 0.3631(5) 0.2330(5) -0.2148(5)
H62B H 0.3681 0.1997 -0.1953
C78B C 0.3402(6) 0.2825(9) -0.1931(7)
H63B H 0.3310 0.2817 -0.1583
C79B C 0.3306(8) 0.3294(8) -0.2177(12)
H64B H 0.3122 0.3613 -0.2019
C80B C 0.3486(9) 0.3316(6) -0.2686(10)
H65B H 0.3451 0.3658 -0.2870
C81B C 0.3719(6) 0.2823(5) -0.2921(6)
H66B H 0.3829 0.2831 -0.3264
P3B P 1.01279(10) 0.90251(7) -0.22104(8)
C82B C 0.9796(4) 0.9658(3) -0.1909(3)
C83B C 0.9111(4) 0.9636(4) -0.1752(3)
H67B H 0.8853 0.9298 -0.1793
C84B C 0.9204(6) 1.0599(4) -0.1478(4)
H68B H 0.9009 1.0922 -0.1334
C85B C 0.8804(5) 1.0103(4) -0.1538(4)
H69B H 0.8342 1.0086 -0.1436
C86B C 0.9871(6) 1.0618(3) -0.1626(4)
H70B H 1.0133 1.0955 -0.1581
C87B C 1.0174(5) 1.0150(3) -0.1841(3)
H71B H 1.0637 1.0170 -0.1941
C88B C 1.0459(4) 0.8583(3) -0.1677(3)
C89B C 1.0507(4) 0.8751(3) -0.1175(3)
H72B H 1.0378 0.9123 -0.1096
C90B C 1.0741(5) 0.8387(4) -0.0778(4)
H73B H 1.0752 0.8501 -0.0433
C91B C 1.0961(5) 0.7842(4) -0.0915(4)
H74B H 1.1139 0.7593 -0.0656
C92B C 1.0925(5) 0.7670(4) -0.1403(4)
H75B H 1.1075 0.7304 -0.1485
C93B C 1.0666(4) 0.8034(3) -0.1784(3)
H76B H 1.0628 0.7908 -0.2126
C94B C 1.0933(4) 0.9284(3) -0.2476(3)
C95B C 1.1606(4) 0.9143(3) -0.2280(3)
H77B H 1.1670 0.8901 -0.1995
C96B C 1.2176(4) 0.9356(3) -0.2499(4)
H78B H 1.2632 0.9261 -0.2361
C97B C 1.2092(5) 0.9712(4) -0.2927(4)
H79B H 1.2486 0.9848 -0.3083
C98B C 1.1417(4) 0.9859(4) -0.3117(3)
H80B H 1.1350 1.0115 -0.3391
C99B C 1.0851(4) 0.9630(3) -0.2905(3)
H81B H 1.0395 0.9709 -0.3052
N1B N 0.8043(3) 0.5586(2) -0.0864(2)
N2B N 0.8837(3) 0.7964(2) -0.2387(2)
N3B N 0.7692(3) 0.4305(2) -0.1137(2)
N4B N 0.5710(3) 0.2475(2) -0.2846(2)
N5B N 0.6739(3) 0.4981(2) -0.0402(2)
N6A N 0.4846(3) 0.7740(2) 0.4067(2)
N6C N 0.5154(3) 0.2260(2) -0.4067(2)
N7A N 0.4442(3) 0.6656(2) 0.6542(2)
N7B N 0.9442(3) 0.8344(2) -0.3458(2)
N8_2 N 0.4211(3) 0.8750(2) 0.3394(2)
N8B N 0.5789(3) 0.1250(2) -0.3394(2)
N9_2 N 0.1524(3) 1.0804(2) 0.2949(2)
N9B N 0.8476(3) 0.9196(2) -0.2949(2)
loop_
_geom_bond_atom_site_label_1
_geom_bond_atom_site_label_2
_geom_bond_site_symmetry_1
_geom_bond_site_symmetry_2
Cu1 P1 1_555 1_555
Cu2 P3 1_555 1_555
Cu3 P2 1_555 1_555
C1 H1 1_555 1_555
C2 C1 1_555 1_555
H2 C2 1_555 1_555
C3 C2 1_555 1_555
C4 C3 1_555 1_555
H3 C4 1_555 1_555
C5 C4 1_555 1_555
H4 C5 1_555 1_555
C6 C3 1_555 1_555
C7 C6 1_555 1_555
H5 C7 1_555 1_555
C8 C7 1_555 1_555
H6 C8 1_555 1_555
C9 H7 1_555 1_555
C10 C6 1_555 1_555
H8 C10 1_555 1_555
C11 H9 1_555 1_555
C12 C11 1_555 1_555
H10 C12 1_555 1_555
C13 C12 1_555 1_555
C14 C13 1_555 1_555
H11 C14 1_555 1_555
C15 C14 1_555 1_555
H12 C15 1_555 1_555
C16 C13 1_555 1_555
C17 C16 1_555 1_555
H13 C17 1_555 1_555
C18 C17 1_555 1_555
H14 C18 1_555 1_555
C19 H15 1_555 1_555
C20 C16 1_555 1_555
H16 C20 1_555 1_555
C21 H17 1_555 1_555
C22 C21 1_555 1_555
H18 C22 1_555 1_555
C23 C22 1_555 1_555
C24 C23 1_555 1_555
H19 C24 1_555 1_555
C25 C24 1_555 1_555
H20 C25 1_555 1_555
C26 H21 1_555 1_555
C27 C26 1_555 1_555
H22 C27 1_555 1_555
C28 C27 1_555 1_555
C29 C28 1_555 1_555
H23 C29 1_555 1_555
C30 C29 1_555 1_555
H24 C30 1_555 1_555
C31 C28 1_555 1_555
C32 C31 1_555 1_555
H25 C32 1_555 1_555
C33 C32 1_555 1_555
H26 C33 1_555 1_555
C34 H27 1_555 1_555
C35 C31 1_555 1_555
H28 C35 1_555 1_555
C36 H29 1_555 1_555
C37 C36 1_555 1_555
H30 C37 1_555 1_555
C38 C37 1_555 1_555
C39 C38 1_555 1_555
H31 C39 1_555 1_555
C40 C39 1_555 1_555
H32 C40 1_555 1_555
C41 C38 1_555 1_555
C42 C41 1_555 1_555
H33 C42 1_555 1_555
C43 C42 1_555 1_555
H34 C43 1_555 1_555
C44 H35 1_555 1_555
C45 C41 1_555 1_555
H36 C45 1_555 1_555
P1 C46 1_555 1_555
C46 C47 1_555 1_555
C47 H37 1_555 1_555
C48 C47 1_555 1_555
H38 C48 1_555 1_555
C49 C48 1_555 1_555
H39 C49 1_555 1_555
C50 C49 1_555 1_555
H40 C50 1_555 1_555
C51 C46 1_555 1_555
H41 C51 1_555 1_555
C52 P1 1_555 1_555
C53 C52 1_555 1_555
H42 C53 1_555 1_555
C54 C53 1_555 1_555
H43 C54 1_555 1_555
C55 C54 1_555 1_555
H44 C55 1_555 1_555
C56 C55 1_555 1_555
H45 C56 1_555 1_555
C57 C52 1_555 1_555
H46 C57 1_555 1_555
C58 P1 1_555 1_555
C59 C58 1_555 1_555
H47 C59 1_555 1_555
C60 C59 1_555 1_555
H48 C60 1_555 1_555
C61 C60 1_555 1_555
H49 C61 1_555 1_555
C62 C61 1_555 1_555
H50 C62 1_555 1_555
C63 C58 1_555 1_555
H51 C63 1_555 1_555
P2 C64 1_555 1_555
C64 C65 1_555 1_555
C65 H52 1_555 1_555
C66 C65 1_555 1_555
H53 C66 1_555 1_555
C67 C66 1_555 1_555
H54 C67 1_555 1_555
C68 C67 1_555 1_555
H55 C68 1_555 1_555
C69 C64 1_555 1_555
H56 C69 1_555 1_555
C70 P2 1_555 1_555
C71 C70 1_555 1_555
H57 C71 1_555 1_555
C72 H58 1_555 1_555
C73 C71 1_555 1_555
H59 C73 1_555 1_555
C74 C72 1_555 1_555
H60 C74 1_555 1_555
C75 C70 1_555 1_555
H61 C75 1_555 1_555
C76 P2 1_555 1_555
C77 C76 1_555 1_555
H62 C77 1_555 1_555
C78 C77 1_555 1_555
H63 C78 1_555 1_555
C79 C78 1_555 1_555
H64 C79 1_555 1_555
C80 C79 1_555 1_555
H65 C80 1_555 1_555
C81 C76 1_555 1_555
H66 C81 1_555 1_555
P3 C82 1_555 1_555
C82 C83 1_555 1_555
C83 H67 1_555 1_555
C84 H68 1_555 1_555
C85 C83 1_555 1_555
H69 C85 1_555 1_555
C86 C84 1_555 1_555
H70 C86 1_555 1_555
C87 C82 1_555 1_555
H71 C87 1_555 1_555
C88 P3 1_555 1_555
C89 C88 1_555 1_555
H72 C89 1_555 1_555
C90 C89 1_555 1_555
H73 C90 1_555 1_555
C91 C90 1_555 1_555
H74 C91 1_555 1_555
C92 C91 1_555 1_555
H75 C92 1_555 1_555
C93 C88 1_555 1_555
H76 C93 1_555 1_555
C94 P3 1_555 1_555
C95 C94 1_555 1_555
H77 C95 1_555 1_555
C96 C95 1_555 1_555
H78 C96 1_555 1_555
C97 C96 1_555 1_555
H79 C97 1_555 1_555
C98 C97 1_555 1_555
H80 C98 1_555 1_555
C99 C94 1_555 1_555
H81 C99 1_555 1_555
N1 Cu1 1_555 1_555
N2 Cu2 1_555 1_555
N3 Cu1 1_555 1_555
N4 Cu3 1_555 1_555
N5 Cu1 1_555 1_555
N6 C26 1_555 1_555
N7 Cu2 1_555 1_555
N8 C36 1_555 1_555
N9 Cu2 1_555 1_555
B1 F1 1_555 1_555
F2 B1 1_555 1_555
F3 B1 1_555 1_555
F4 B1 1_555 1_555
B2 F5 1_555 1_555
F6 B2 1_555 1_555
F7 B2 1_555 1_555
F8 B2 1_555 1_555
B3 F9 1_555 1_555
F10 B3 1_555 1_555
F11 B3 1_555 1_555
F12 B3 1_555 1_555
O1 C100 1_555 1_555
C100 H82 1_555 1_555
H83 C100 1_555 1_555
C101 C100 1_555 1_555
H84 C101 1_555 1_555
H85 C101 1_555 1_555
C102 C101 1_555 1_555
H86 C102 1_555 1_555
H87 C102 1_555 1_555
C103 O1 1_555 1_555
H88 C103 1_555 1_555
H89 C103 1_555 1_555
O2 C104 1_555 1_555
C104 H90 1_555 1_555
H91 C104 1_555 1_555
C105 C104 1_555 1_555
H92 C105 1_555 1_555
H93 C105 1_555 1_555
C106 C105 1_555 1_555
H94 C106 1_555 1_555
H95 C106 1_555 1_555
C107 O2 1_555 1_555
H96 C107 1_555 1_555
H97 C107 1_555 1_555
O3 C108 1_555 1_555
C108 H98 1_555 1_555
H99 C108 1_555 1_555
C109 C108 1_555 1_555
H100 C109 1_555 1_555
H101 C109 1_555 1_555
C110 C109 1_555 1_555
H102 C110 1_555 1_555
H103 C110 1_555 1_555
C111 O3 1_555 1_555
H104 C111 1_555 1_555
H105 C111 1_555 1_555
O4 C112 1_555 1_555
C112 H106 1_555 1_555
H107 C112 1_555 1_555
C113 C112 1_555 1_555
H108 C113 1_555 1_555
H109 C113 1_555 1_555
C114 C113 1_555 1_555
H110 C114 1_555 1_555
H111 C114 1_555 1_555
C115 O4 1_555 1_555
H112 C115 1_555 1_555
H113 C115 1_555 1_555
Cu1B P1B 1_555 1_555
Cu2B P3B 1_555 1_555
Cu2A N7A 1_555 1_555
Cu2_2 N9_2 1_555 1_555
Cu3B P2B 1_555 1_555
Cu3A N6 1_555 1_555
Cu3_2 N8 1_555 1_555
C1B H1B 1_555 1_555
C2B C1B 1_555 1_555
H2B C2B 1_555 1_555
C3B C2B 1_555 1_555
C4B C3B 1_555 1_555
H3B C4B 1_555 1_555
C5B C4B 1_555 1_555
H4B C5B 1_555 1_555
C6B C3B 1_555 1_555
C7B C6B 1_555 1_555
H5B C7B 1_555 1_555
C8B C7B 1_555 1_555
H6B C8B 1_555 1_555
C9B H7B 1_555 1_555
C10B C6B 1_555 1_555
H8B C10B 1_555 1_555
C11B H9B 1_555 1_555
C12B C11B 1_555 1_555
H10B C12B 1_555 1_555
C13B C12B 1_555 1_555
C14B C13B 1_555 1_555
H11B C14B 1_555 1_555
C15B C14B 1_555 1_555
H12B C15B 1_555 1_555
C16B C13B 1_555 1_555
C17B C16B 1_555 1_555
H13B C17B 1_555 1_555
C18B C17B 1_555 1_555
H14B C18B 1_555 1_555
C19B H15B 1_555 1_555
C20B C16B 1_555 1_555
H16B C20B 1_555 1_555
C21B H17B 1_555 1_555
C22B C21B 1_555 1_555
H18B C22B 1_555 1_555
C23B C23 1_555 1_555
C24B C23B 1_555 1_555
H19B C24B 1_555 1_555
C25B C24B 1_555 1_555
H20B C25B 1_555 1_555
C26A H21A 1_555 1_555
C27A C26A 1_555 1_555
H22A C27A 1_555 1_555
C28A C27A 1_555 1_555
C29A C28A 1_555 1_555
H23A C29A 1_555 1_555
C30A C29A 1_555 1_555
H24A C30A 1_555 1_555
C31A C28A 1_555 1_555
C32A C31A 1_555 1_555
H25A C32A 1_555 1_555
C33A C32A 1_555 1_555
H26A C33A 1_555 1_555
C34A H27A 1_555 1_555
C35A C31A 1_555 1_555
H28A C35A 1_555 1_555
C36_2 H29_2 1_555 1_555
C37_2 C36_2 1_555 1_555
H30_2 C37_2 1_555 1_555
C38_2 C37_2 1_555 1_555
C39_2 C38_2 1_555 1_555
H31_2 C39_2 1_555 1_555
C40_2 C39_2 1_555 1_555
H32_2 C40_2 1_555 1_555
C41_2 C38_2 1_555 1_555
C42_2 C41_2 1_555 1_555
H33_2 C42_2 1_555 1_555
C43_2 C42_2 1_555 1_555
H34_2 C43_2 1_555 1_555
C44_2 H35_2 1_555 1_555
C45_2 C41_2 1_555 1_555
H36_2 C45_2 1_555 1_555
P1B C46B 1_555 1_555
C46B C47B 1_555 1_555
C47B H37B 1_555 1_555
C48B C47B 1_555 1_555
H38B C48B 1_555 1_555
C49B C48B 1_555 1_555
H39B C49B 1_555 1_555
C50B C49B 1_555 1_555
H40B C50B 1_555 1_555
C51B C46B 1_555 1_555
H41B C51B 1_555 1_555
C52B P1B 1_555 1_555
C53B C52B 1_555 1_555
H42B C53B 1_555 1_555
C54B C53B 1_555 1_555
H43B C54B 1_555 1_555
C55B C54B 1_555 1_555
H44B C55B 1_555 1_555
C56B C55B 1_555 1_555
H45B C56B 1_555 1_555
C57B C52B 1_555 1_555
H46B C57B 1_555 1_555
C58B P1B 1_555 1_555
C59B C58B 1_555 1_555
H47B C59B 1_555 1_555
C60B C59B 1_555 1_555
H48B C60B 1_555 1_555
C61B C60B 1_555 1_555
H49B C61B 1_555 1_555
C62B C61B 1_555 1_555
H50B C62B 1_555 1_555
C63B C58B 1_555 1_555
H51B C63B 1_555 1_555
P2B C64B 1_555 1_555
C64B C65B 1_555 1_555
C65B H52B 1_555 1_555
C66B C65B 1_555 1_555
H53B C66B 1_555 1_555
C67B C66B 1_555 1_555
H54B C67B 1_555 1_555
C68B C67B 1_555 1_555
H55B C68B 1_555 1_555
C69B C64B 1_555 1_555
H56B C69B 1_555 1_555
C70B P2B 1_555 1_555
C71B C70B 1_555 1_555
H57B C71B 1_555 1_555
C72B H58B 1_555 1_555
C73B C71B 1_555 1_555
H59B C73B 1_555 1_555
C74B C72B 1_555 1_555
H60B C74B 1_555 1_555
C75B C70B 1_555 1_555
H61B C75B 1_555 1_555
C76B P2B 1_555 1_555
C77B C76B 1_555 1_555
H62B C77B 1_555 1_555
C78B C77B 1_555 1_555
H63B C78B 1_555 1_555
C79B C78B 1_555 1_555
H64B C79B 1_555 1_555
C80B C79B 1_555 1_555
H65B C80B 1_555 1_555
C81B C76B 1_555 1_555
H66B C81B 1_555 1_555
P3B C82B 1_555 1_555
C82B C83B 1_555 1_555
C83B H67B 1_555 1_555
C84B H68B 1_555 1_555
C85B C83B 1_555 1_555
H69B C85B 1_555 1_555
C86B C84B 1_555 1_555
H70B C86B 1_555 1_555
C87B C82B 1_555 1_555
H71B C87B 1_555 1_555
C88B P3B 1_555 1_555
C89B C88B 1_555 1_555
H72B C89B 1_555 1_555
C90B C89B 1_555 1_555
H73B C90B 1_555 1_555
C91B C90B 1_555 1_555
H74B C91B 1_555 1_555
C92B C91B 1_555 1_555
H75B C92B 1_555 1_555
C93B C88B 1_555 1_555
H76B C93B 1_555 1_555
C94B P3B 1_555 1_555
C95B C94B 1_555 1_555
H77B C95B 1_555 1_555
C96B C95B 1_555 1_555
H78B C96B 1_555 1_555
C97B C96B 1_555 1_555
H79B C97B 1_555 1_555
C98B C97B 1_555 1_555
H80B C98B 1_555 1_555
C99B C94B 1_555 1_555
H81B C99B 1_555 1_555
N1B Cu1B 1_555 1_555
N2B Cu2B 1_555 1_555
N3B Cu1B 1_555 1_555
N4B Cu3B 1_555 1_555
N5B Cu1B 1_555 1_555
N6A Cu3 1_555 1_555
N6C Cu3B 1_555 1_555
N7A C33A 1_555 1_555
N7B Cu2B 1_555 1_555
N8_2 Cu3 1_555 1_555
N8B Cu3B 1_555 1_555
N9_2 C43_2 1_555 1_555
N9B Cu2B 1_555 1_555
C1 N1 1_555 1_555
C5 N1 1_555 1_555
C8 N2 1_555 1_555
C9 C10 1_555 1_555
C9 N2 1_555 1_555
C11 N3 1_555 1_555
C15 N3 1_555 1_555
C18 N4 1_555 1_555
C19 C20 1_555 1_555
C19 N4 1_555 1_555
C21 N5 1_555 1_555
C25 N5 1_555 1_555
C30 N6 1_555 1_555
C33 N7 1_555 1_555
C34 C35 1_555 1_555
C34 N7 1_555 1_555
C40 N8 1_555 1_555
C43 N9 1_555 1_555
C44 C45 1_555 1_555
C44 N9 1_555 1_555
C50 C51 1_555 1_555
C56 C57 1_555 1_555
C62 C63 1_555 1_555
C68 C69 1_555 1_555
C72 C73 1_555 1_555
C74 C75 1_555 1_555
C80 C81 1_555 1_555
C84 C85 1_555 1_555
C86 C87 1_555 1_555
C92 C93 1_555 1_555
C98 C99 1_555 1_555
C102 C103 1_555 1_555
C106 C107 1_555 1_555
C110 C111 1_555 1_555
C114 C115 1_555 1_555
C1B N1B 1_555 1_555
C5B N1B 1_555 1_555
C8B N2B 1_555 1_555
C9B C10B 1_555 1_555
C9B N2B 1_555 1_555
C11B N3B 1_555 1_555
C15B N3B 1_555 1_555
C18B N4B 1_555 1_555
C19B C20B 1_555 1_555
C19B N4B 1_555 1_555
C21B N5B 1_555 1_555
C22B C23B 1_555 1_555
C25B N5B 1_555 1_555
C26A N6A 1_555 1_555
C30A N6A 1_555 1_555
C34A C35A 1_555 1_555
C34A N7A 1_555 1_555
C36_2 N8_2 1_555 1_555
C40_2 N8_2 1_555 1_555
C44_2 C45_2 1_555 1_555
C44_2 N9_2 1_555 1_555
C50B C51B 1_555 1_555
C56B C57B 1_555 1_555
C62B C63B 1_555 1_555
C68B C69B 1_555 1_555
C72B C73B 1_555 1_555
C74B C75B 1_555 1_555
C80B C81B 1_555 1_555
C84B C85B 1_555 1_555
C86B C87B 1_555 1_555
C92B C93B 1_555 1_555
C98B C99B 1_555 1_555

#END
