
#######################################################################
#
#                 Cambridge Crystallographic Data Centre
#                                CCDC 
#
#######################################################################
#
# If this CIF has been generated from an entry in the Cambridge 
# Structural Database, then it will include bibliographic, chemical, 
# crystal, experimental, refinement or atomic coordinate data resulting 
# from the CCDC's data processing and validation procedures.
#
#######################################################################

data_DAKYUL
_symmetry_cell_setting           monoclinic
_symmetry_space_group_name_H-M   'P 21/c'
_symmetry_Int_Tables_number      14
_space_group_name_Hall           '-P 2ybc'
loop_
_symmetry_equiv_pos_site_id
_symmetry_equiv_pos_as_xyz
1 x,y,z
2 -x,1/2+y,1/2-z
3 -x,-y,-z
4 x,1/2-y,1/2+z
_cell_length_a                   19.034(4)
_cell_length_b                   16.284(2)
_cell_length_c                   17.279(2)
_cell_angle_alpha                90
_cell_angle_beta                 92.493(12)
_cell_angle_gamma                90
_cell_volume                     5350.55
loop_
_atom_site_label
_atom_site_type_symbol
_atom_site_fract_x
_atom_site_fract_y
_atom_site_fract_z
Cu1 Cu 0.25725(5) -0.13913(6) 0.10756(5)
P1 P 0.35930(10) -0.08979(12) 0.06191(12)
P2 P 0.14993(11) -0.09580(13) 0.06169(12)
N1 N 0.2635(4) -0.1319(4) 0.2270(4)
N2 N 0.2616(3) -0.2335(4) 0.5839(3)
C1 C 0.2202(5) -0.0859(6) 0.2667(5)
H1 H 0.1884 -0.0518 0.2387
C2 C 0.2188(5) -0.0848(6) 0.3470(5)
H2 H 0.1870 -0.0507 0.3719
C3 C 0.2649(4) -0.1346(5) 0.3900(4)
C4 C 0.3109(4) -0.1822(5) 0.3493(5)
H3 H 0.3439 -0.2162 0.3757
C5 C 0.3078(4) -0.1790(5) 0.2693(5)
H4 H 0.3390 -0.2124 0.2429
C6 C 0.2611(4) -0.1421(5) 0.4741(4)
C7 C 0.2474(6) -0.0760(5) 0.5229(5)
H5 H 0.2421 -0.0226 0.5029
C8 C 0.2419(6) -0.0904(5) 0.6002(5)
H6 H 0.2340 -0.0464 0.6339
C9 C 0.2478(5) -0.1683(5) 0.6288(5)
H7 H 0.2421 -0.1768 0.6819
C10 C 0.2683(4) -0.2183(5) 0.5086(4)
H8 H 0.2787 -0.2630 0.4766
C11 C 0.4387(4) -0.1323(5) 0.1104(4)
C12 C 0.4952(4) -0.0840(6) 0.1352(5)
H9 H 0.4931 -0.0268 0.1284
C13 C 0.5545(5) -0.1189(6) 0.1697(6)
H10 H 0.5927 -0.0856 0.1858
C14 C 0.5575(5) -0.2021(6) 0.1804(6)
H11 H 0.5978 -0.2255 0.2048
C15 C 0.5025(5) -0.2521(6) 0.1560(6)
H12 H 0.5054 -0.3092 0.1632
C16 C 0.4427(5) -0.2172(5) 0.1206(5)
H13 H 0.4050 -0.2508 0.1035
C17 C 0.3674(4) 0.0198(5) 0.0781(5)
C18 C 0.3769(4) 0.0763(5) 0.0185(5)
H14 H 0.3837 0.0576 -0.0321
C19 C 0.3763(5) 0.1610(5) 0.0341(6)
H15 H 0.3836 0.1988 -0.0058
C20 C 0.3649(5) 0.1885(6) 0.1078(7)
H16 H 0.3634 0.2451 0.1179
C21 C 0.3559(5) 0.1329(6) 0.1671(6)
H17 H 0.3497 0.1518 0.2178
C22 C 0.3558(5) 0.0494(6) 0.1517(5)
H18 H 0.3478 0.0121 0.1919
C23 C 0.3741(4) -0.1022(5) -0.0405(4)
C24 C 0.3216(4) -0.0771(5) -0.0944(5)
H19 H 0.2792 -0.0561 -0.0768
C25 C 0.3308(5) -0.0824(6) -0.1730(5)
H20 H 0.2957 -0.0628 -0.2082
C26 C 0.3915(5) -0.1165(6) -0.1999(5)
H21 H 0.3975 -0.1205 -0.2535
C27 C 0.4434(5) -0.1448(6) -0.1483(5)
H22 H 0.4840 -0.1697 -0.1667
C28 C 0.4356(4) -0.1362(5) -0.0688(5)
H23 H 0.4718 -0.1535 -0.0338
C29 C 0.0754(4) -0.1571(5) 0.0892(5)
C30 C 0.0805(6) -0.2061(9) 0.1534(8)
H24 H 0.1241 -0.2121 0.1805
C31 C 0.0230(7) -0.2466(13) 0.1787(11)
H25 H 0.0270 -0.2774 0.2246
C32 C -0.0393(6) -0.2431(11) 0.1389(10)
H26 H -0.0779 -0.2728 0.1563
C33 C -0.0464(5) -0.1967(7) 0.0735(7)
H27 H -0.0899 -0.1944 0.0457
C34 C 0.0103(5) -0.1529(6) 0.0482(6)
H28 H 0.0052 -0.1202 0.0035
C35 C 0.1291(4) 0.0073(5) 0.0935(4)
C36 C 0.0671(5) 0.0273(6) 0.1282(5)
H29 H 0.0319 -0.0127 0.1330
C37 C 0.0567(5) 0.1060(6) 0.1558(6)
H30 H 0.0145 0.1185 0.1796
C38 C 0.1067(6) 0.1663(7) 0.1491(6)
H31 H 0.0990 0.2195 0.1681
C39 C 0.1687(5) 0.1472(6) 0.1140(6)
H32 H 0.2034 0.1876 0.1081
C40 C 0.1792(5) 0.0690(6) 0.0879(6)
H33 H 0.2219 0.0565 0.0652
C41 C 0.1386(4) -0.0937(5) -0.0435(5)
C42 C 0.1339(4) -0.0216(6) -0.0870(5)
H34 H 0.1331 0.0296 -0.0620
C43 C 0.1305(5) -0.0256(7) -0.1664(5)
H35 H 0.1260 0.0233 -0.1951
C44 C 0.1335(5) -0.0992(8) -0.2049(5)
H36 H 0.1320 -0.1005 -0.2594
C45 C 0.1386(6) -0.1719(8) -0.1629(6)
H37 H 0.1412 -0.2227 -0.1884
C46 C 0.1399(5) -0.1683(6) -0.0825(5)
H38 H 0.1418 -0.2174 -0.0539
Cu1C Cu 0.25725(5) -0.36087(6) 0.60756(5)
N2C N 0.2616(3) -0.2665(4) 0.0839(3)
Cl1 Cl 0.24416(19) -0.63779(19) 0.2402(2)
O1 O 0.2738(7) -0.7093(7) 0.2218(9)
O2 O 0.2726(14) -0.5713(9) 0.2161(9)
O3 O 0.1755(9) -0.6370(15) 0.2163(14)
O4 O 0.2519(8) -0.6308(8) 0.3231(8)
Cl2 Cl 0.7989(2) -0.3688(2) 0.1765(3)
Cl3 Cl 0.7823(3) -0.3273(4) 0.0152(3)
Cl4 Cl 0.66530(19) -0.3762(3) 0.0985(3)
C47 C 0.7455(7) -0.3244(9) 0.1043(8)
H39 H 0.7369 -0.2664 0.1182
Cl5 Cl 0.4625(3) -0.0102(3) 0.3341(3)
Cl6 Cl 0.5051(3) -0.1429(3) 0.4352(5)
Cl7 Cl 0.5869(4) 0.0023(8) 0.4198(6)
C48 C 0.558(2) -0.0654(10) 0.3730(8)
H40 H 0.5883 -0.0888 0.3333
Cl8 Cl -0.0197(5) -0.5136(8) 0.1722(7)
Cl9 Cl 0.0741(6) -0.5117(10) 0.0792(7)
Cl10 Cl -0.0061(6) -0.6503(4) 0.0704(6)
C49 C 0.0377(10) -0.5830(9) 0.1312(8)
H41 H 0.0707 -0.6097 0.1693
loop_
_geom_bond_atom_site_label_1
_geom_bond_atom_site_label_2
_geom_bond_site_symmetry_1
_geom_bond_site_symmetry_2
Cu1 P1 1_555 1_555
P1 C11 1_555 1_555
P2 Cu1 1_555 1_555
N1 Cu1 1_555 1_555
N2 C9 1_555 1_555
C1 N1 1_555 1_555
H1 C1 1_555 1_555
C2 C1 1_555 1_555
H2 C2 1_555 1_555
C3 C2 1_555 1_555
C4 C3 1_555 1_555
H3 C4 1_555 1_555
C5 N1 1_555 1_555
H4 C5 1_555 1_555
C6 C3 1_555 1_555
C7 C6 1_555 1_555
H5 C7 1_555 1_555
C8 C7 1_555 1_555
H6 C8 1_555 1_555
C9 C8 1_555 1_555
H7 C9 1_555 1_555
C10 N2 1_555 1_555
H8 C10 1_555 1_555
C11 C12 1_555 1_555
C12 H9 1_555 1_555
C13 C12 1_555 1_555
H10 C13 1_555 1_555
C14 C13 1_555 1_555
H11 C14 1_555 1_555
C15 C14 1_555 1_555
H12 C15 1_555 1_555
C16 C11 1_555 1_555
H13 C16 1_555 1_555
C17 P1 1_555 1_555
C18 C17 1_555 1_555
H14 C18 1_555 1_555
C19 C18 1_555 1_555
H15 C19 1_555 1_555
C20 C19 1_555 1_555
H16 C20 1_555 1_555
C21 C20 1_555 1_555
H17 C21 1_555 1_555
C22 C17 1_555 1_555
H18 C22 1_555 1_555
C23 P1 1_555 1_555
C24 C23 1_555 1_555
H19 C24 1_555 1_555
C25 C24 1_555 1_555
H20 C25 1_555 1_555
C26 C25 1_555 1_555
H21 C26 1_555 1_555
C27 C26 1_555 1_555
H22 C27 1_555 1_555
C28 C23 1_555 1_555
H23 C28 1_555 1_555
C29 P2 1_555 1_555
C30 C29 1_555 1_555
H24 C30 1_555 1_555
C31 C30 1_555 1_555
H25 C31 1_555 1_555
C32 C31 1_555 1_555
H26 C32 1_555 1_555
C33 C32 1_555 1_555
H27 C33 1_555 1_555
C34 C29 1_555 1_555
H28 C34 1_555 1_555
C35 P2 1_555 1_555
C36 C35 1_555 1_555
H29 C36 1_555 1_555
C37 C36 1_555 1_555
H30 C37 1_555 1_555
C38 C37 1_555 1_555
H31 C38 1_555 1_555
C39 C38 1_555 1_555
H32 C39 1_555 1_555
C40 C35 1_555 1_555
H33 C40 1_555 1_555
C41 P2 1_555 1_555
C42 C41 1_555 1_555
H34 C42 1_555 1_555
C43 C42 1_555 1_555
H35 C43 1_555 1_555
C44 C43 1_555 1_555
H36 C44 1_555 1_555
C45 C44 1_555 1_555
H37 C45 1_555 1_555
C46 C41 1_555 1_555
H38 C46 1_555 1_555
Cl1 O1 1_555 1_555
O2 Cl1 1_555 1_555
O3 Cl1 1_555 1_555
O4 Cl1 1_555 1_555
Cl2 C47 1_555 1_555
Cl3 C47 1_555 1_555
Cl4 C47 1_555 1_555
C47 H39 1_555 1_555
Cl5 C48 1_555 1_555
Cl6 C48 1_555 1_555
Cl7 C48 1_555 1_555
C48 H40 1_555 1_555
Cl8 C49 1_555 1_555
Cl9 C49 1_555 1_555
Cl10 C49 1_555 1_555
C49 H41 1_555 1_555
Cu1C N2 1_555 1_555
N2C Cu1 1_555 1_555
C4 C5 1_555 1_555
C6 C10 1_555 1_555
C15 C16 1_555 1_555
C21 C22 1_555 1_555
C27 C28 1_555 1_555
C33 C34 1_555 1_555
C39 C40 1_555 1_555
C45 C46 1_555 1_555

#END
