
#######################################################################
#
#                 Cambridge Crystallographic Data Centre
#                                CCDC 
#
#######################################################################
#
# If this CIF has been generated from an entry in the Cambridge 
# Structural Database, then it will include bibliographic, chemical, 
# crystal, experimental, refinement or atomic coordinate data resulting 
# from the CCDC's data processing and validation procedures.
#
#######################################################################

data_DAKZEW
_symmetry_cell_setting           triclinic
_symmetry_space_group_name_H-M   'P -1'
_symmetry_Int_Tables_number      2
_space_group_name_Hall           '-P 1'
loop_
_symmetry_equiv_pos_site_id
_symmetry_equiv_pos_as_xyz
1 x,y,z
2 -x,-y,-z
_cell_length_a                   12.8791(15)
_cell_length_b                   15.598(3)
_cell_length_c                   16.470(2)
_cell_angle_alpha                63.679(10)
_cell_angle_beta                 79.279(12)
_cell_angle_gamma                80.168(14)
_cell_volume                     2899.16
loop_
_atom_site_label
_atom_site_type_symbol
_atom_site_fract_x
_atom_site_fract_y
_atom_site_fract_z
Cu1 Cu 0.78565(7) 0.69743(6) 0.19899(6)
N1 N 0.6930(5) 0.6129(4) 0.3149(4)
C1 C 0.6781(6) 0.6272(6) 0.3908(5)
H1 H 0.7207 0.6687 0.3940
C2 C 0.6051(7) 0.5853(6) 0.4633(5)
H2 H 0.5978 0.5984 0.5146
C3 C 0.5415(6) 0.5233(6) 0.4618(5)
C4 C 0.5585(7) 0.5063(7) 0.3844(6)
H3 H 0.5186 0.4636 0.3801
C5 C 0.6340(7) 0.5521(7) 0.3141(6)
H4 H 0.6442 0.5394 0.2623
N2 N 0.8291(5) 0.6130(5) 0.1269(4)
C6 C 0.8496(7) 0.6538(7) 0.0377(6)
H5 H 0.8179 0.7165 0.0068
C7 C 0.9136(7) 0.6122(7) -0.0141(6)
H6 H 0.9237 0.6459 -0.0781
C8 C 0.9623(6) 0.5223(6) 0.0271(5)
C9 C 0.9384(9) 0.4760(7) 0.1192(6)
H7 H 0.9669 0.4122 0.1509
C10 C 0.8715(8) 0.5235(7) 0.1660(6)
H8 H 0.8555 0.4897 0.2296
P1 P 0.94515(15) 0.71352(15) 0.22695(13)
C11 C 1.0376(5) 0.7560(6) 0.1220(5)
C12 C 1.0628(6) 0.8492(6) 0.0765(5)
H9 H 1.0400 0.8926 0.1030
C13 C 1.1229(7) 0.8792(8) -0.0100(6)
H10 H 1.1412 0.9427 -0.0407
C14 C 1.1545(7) 0.8186(9) -0.0494(7)
H11 H 1.1912 0.8409 -0.1088
C15 C 1.1339(7) 0.7256(8) -0.0044(6)
H12 H 1.1600 0.6827 -0.0311
C16 C 1.0744(6) 0.6934(7) 0.0812(6)
H13 H 1.0588 0.6290 0.1117
C17 C 0.9422(6) 0.7979(6) 0.2741(5)
C18 C 1.0080(9) 0.7864(8) 0.3370(7)
H14 H 1.0596 0.7332 0.3551
C19 C 0.9979(13) 0.8532(10) 0.3731(9)
H15 H 1.0432 0.8459 0.4149
C20 C 0.9189(12) 0.9327(9) 0.3464(8)
H16 H 0.9102 0.9769 0.3722
C21 C 0.8561(9) 0.9451(8) 0.2839(8)
H17 H 0.8050 0.9985 0.2651
C22 C 0.8677(8) 0.8784(7) 0.2479(7)
H18 H 0.8239 0.8877 0.2044
C23 C 1.0205(6) 0.6066(6) 0.3008(5)
C24 C 0.9682(7) 0.5296(6) 0.3645(6)
H19 H 0.8941 0.5318 0.3684
C25 C 1.0247(10) 0.4490(7) 0.4229(7)
H20 H 0.9888 0.3967 0.4668
C26 C 1.1339(10) 0.4450(9) 0.4171(8)
H21 H 1.1719 0.3901 0.4570
C27 C 1.1855(9) 0.5196(10) 0.3543(8)
H22 H 1.2598 0.5159 0.3495
C28 C 1.1298(7) 0.6024(8) 0.2963(7)
H23 H 1.1661 0.6553 0.2543
P2 P 0.66994(14) 0.82008(14) 0.11905(13)
C29 C 0.7170(6) 0.8849(5) -0.0017(5)
C30 C 0.6538(6) 0.9114(6) -0.0699(5)
H24 H 0.5823 0.8986 -0.0546
C31 C 0.6951(7) 0.9565(7) -0.1598(6)
H25 H 0.6521 0.9733 -0.2060
C32 C 0.7987(7) 0.9772(6) -0.1827(6)
H26 H 0.8258 1.0097 -0.2444
C33 C 0.8628(7) 0.9507(7) -0.1161(6)
H27 H 0.9341 0.9641 -0.1318
C34 C 0.8218(6) 0.9042(6) -0.0258(6)
H28 H 0.8658 0.8854 0.0201
C35 C 0.5467(6) 0.7791(6) 0.1189(5)
C36 C 0.4468(6) 0.8253(6) 0.1318(6)
H29 H 0.4404 0.8813 0.1411
C37 C 0.3574(7) 0.7882(8) 0.1309(7)
H30 H 0.2902 0.8194 0.1406
C38 C 0.3630(7) 0.7083(8) 0.1166(6)
H31 H 0.3009 0.6843 0.1165
C39 C 0.4607(8) 0.6635(8) 0.1023(7)
H32 H 0.4660 0.6087 0.0911
C40 C 0.5517(7) 0.6979(7) 0.1040(6)
H33 H 0.6182 0.6655 0.0950
C41 C 0.6263(6) 0.9161(6) 0.1571(5)
C42 C 0.5901(7) 0.8893(7) 0.2479(6)
H34 H 0.5858 0.8239 0.2874
C43 C 0.5599(8) 0.9582(8) 0.2821(7)
H35 H 0.5348 0.9394 0.3443
C44 C 0.5664(7) 1.0519(8) 0.2256(8)
H36 H 0.5468 1.0984 0.2489
C45 C 0.6017(7) 1.0801(7) 0.1342(7)
H37 H 0.6055 1.1457 0.0951
C46 C 0.6316(6) 1.0115(6) 0.1001(6)
H38 H 0.6556 1.0306 0.0377
Cu1A Cu 0.21435(7) 0.30257(6) 0.80101(6)
Cu1A_2 Cu 1.21435(7) 0.30257(6) -0.19899(6)
N1A N 0.3070(5) 0.3871(4) 0.6851(4)
C1A C 0.3219(6) 0.3728(6) 0.6092(5)
H1A H 0.2793 0.3313 0.6060
C2A C 0.3949(7) 0.4147(6) 0.5367(5)
H2A H 0.4022 0.4016 0.4854
C3A C 0.4585(6) 0.4767(6) 0.5382(5)
C4A C 0.4415(7) 0.4937(7) 0.6156(6)
H3A H 0.4814 0.5364 0.6199
C5A C 0.3660(7) 0.4479(7) 0.6859(6)
H4A H 0.3558 0.4606 0.7377
N2A N 1.1709(5) 0.3870(5) -0.1269(4)
N2A_2 N 0.1709(5) 0.3870(5) 0.8731(4)
C6A C 1.1504(7) 0.3462(7) -0.0377(6)
H5A H 1.1821 0.2835 -0.0068
C7A C 1.0864(7) 0.3878(7) 0.0141(6)
H6A H 1.0763 0.3541 0.0781
C8A C 1.0377(6) 0.4777(6) -0.0271(5)
C9A C 1.0616(9) 0.5240(7) -0.1192(6)
H7A H 1.0331 0.5878 -0.1509
C10A C 1.1285(8) 0.4765(7) -0.1660(6)
H8A H 1.1445 0.5103 -0.2296
P1A P 0.05485(15) 0.28648(15) 0.77305(13)
C11A C -0.0376(5) 0.2440(6) 0.8780(5)
C12A C -0.0628(6) 0.1508(6) 0.9235(5)
H9A H -0.0400 0.1074 0.8970
C13A C -0.1229(7) 0.1208(8) 1.0100(6)
H10A H -0.1412 0.0573 1.0407
C14A C -0.1545(7) 0.1814(9) 1.0494(7)
H11A H -0.1912 0.1591 1.1088
C15A C -0.1339(7) 0.2744(8) 1.0044(6)
H12A H -0.1600 0.3173 1.0311
C16A C -0.0744(6) 0.3066(7) 0.9188(6)
H13A H -0.0588 0.3710 0.8883
C17A C 0.0578(6) 0.2021(6) 0.7259(5)
C18A C -0.0080(9) 0.2136(8) 0.6630(7)
H14A H -0.0596 0.2668 0.6449
C19A C 0.0021(13) 0.1468(10) 0.6269(9)
H15A H -0.0432 0.1541 0.5851
C20A C 0.0811(12) 0.0673(9) 0.6536(8)
H16A H 0.0898 0.0231 0.6278
C21A C 0.1439(9) 0.0549(8) 0.7161(8)
H17A H 0.1950 0.0015 0.7349
C22A C 0.1323(8) 0.1216(7) 0.7521(7)
H18A H 0.1761 0.1123 0.7956
C23A C -0.0205(6) 0.3934(6) 0.6992(5)
C24A C 0.0318(7) 0.4704(6) 0.6355(6)
H19A H 0.1059 0.4682 0.6316
C25A C -0.0247(10) 0.5510(7) 0.5771(7)
H20A H 0.0112 0.6033 0.5332
C26A C -0.1339(10) 0.5550(9) 0.5829(8)
H21A H -0.1719 0.6099 0.5430
C27A C -0.1855(9) 0.4804(10) 0.6457(8)
H22A H -0.2598 0.4841 0.6505
C28A C -0.1298(7) 0.3976(8) 0.7037(7)
H23A H -0.1661 0.3447 0.7457
P2A P 0.33006(14) 0.17992(14) 0.88095(13)
C29A C 0.2830(6) 0.1151(5) 1.0017(5)
C30A C 0.3462(6) 0.0886(6) 1.0699(5)
H24A H 0.4177 0.1014 1.0546
C31A C 0.3049(7) 0.0435(7) 1.1598(6)
H25A H 0.3479 0.0267 1.2060
C32A C 0.2013(7) 0.0228(6) 1.1827(6)
H26A H 0.1742 -0.0097 1.2444
C33A C 0.1372(7) 0.0493(7) 1.1161(6)
H27A H 0.0659 0.0359 1.1318
C34A C 0.1782(6) 0.0958(6) 1.0258(6)
H28A H 0.1342 0.1146 0.9799
C35A C 0.4533(6) 0.2209(6) 0.8811(5)
C36A C 0.5532(6) 0.1747(6) 0.8682(6)
H29A H 0.5596 0.1187 0.8589
C37A C 0.6426(7) 0.2118(8) 0.8691(7)
H30A H 0.7098 0.1806 0.8594
C38A C 0.6370(7) 0.2917(8) 0.8834(6)
H31A H 0.6991 0.3157 0.8835
C39A C 0.5393(8) 0.3365(8) 0.8977(7)
H32A H 0.5340 0.3913 0.9089
C40A C 0.4483(7) 0.3021(7) 0.8960(6)
H33A H 0.3818 0.3345 0.9050
C41A C 0.3737(6) 0.0839(6) 0.8429(5)
C42A C 0.4099(7) 0.1107(7) 0.7521(6)
H34A H 0.4142 0.1761 0.7126
C43A C 0.4401(8) 0.0418(8) 0.7179(7)
H35A H 0.4652 0.0606 0.6557
C44A C 0.4336(7) -0.0519(8) 0.7744(8)
H36A H 0.4532 -0.0984 0.7511
C45A C 0.3983(7) -0.0801(7) 0.8658(7)
H37A H 0.3945 -0.1457 0.9049
C46A C 0.3684(6) -0.0115(6) 0.8999(6)
H38A H 0.3444 -0.0306 0.9623
P3 P 0.6285(4) 0.3066(3) 0.2654(3)
F1 F 0.5679(13) 0.3044(10) 0.3609(9)
F2 F 0.7120(9) 0.3437(9) 0.2923(10)
F3 F 0.5761(11) 0.4097(7) 0.2220(8)
F4 F 0.6763(12) 0.2038(7) 0.3129(9)
F5 F 0.6832(19) 0.3138(10) 0.1787(9)
F6 F 0.5334(11) 0.2655(10) 0.2595(13)
C47 C 0.3562(10) 0.4005(9) 0.1169(9)
H39 H 0.4275 0.3966 0.1335
Cl1 Cl 0.3373(3) 0.2879(2) 0.1267(2)
Cl2 Cl 0.2617(4) 0.4334(4) 0.1912(3)
Cl3 Cl 0.3504(3) 0.4866(3) 0.0067(2)
C48 C -0.0516(14) 0.2056(9) 0.3305(9)
H40 H -0.1287 0.2262 0.3354
Cl4 Cl -0.0197(5) 0.1875(3) 0.2361(3)
Cl5 Cl 0.0128(4) 0.2925(3) 0.3334(3)
Cl6 Cl -0.0294(9) 0.1010(4) 0.4268(4)
C49 C 0.6880(12) 0.2611(13) 0.5392(10)
H41 H 0.6292 0.2871 0.5009
Cl7 Cl 0.7204(7) 0.1423(5) 0.5594(4)
Cl8 Cl 0.7890(3) 0.3298(3) 0.4844(3)
Cl9 Cl 0.6427(5) 0.2708(5) 0.6427(4)
C50 C 0.6357(18) 0.8778(19) 0.5552(12)
H42 H 0.5611 0.8701 0.5839
Cl10 Cl 0.6425(5) 0.9912(4) 0.4688(4)
Cl11 Cl 0.6769(7) 0.7949(4) 0.5033(5)
Cl12 Cl 0.7094(10) 0.8644(9) 0.6317(6)
loop_
_geom_bond_atom_site_label_1
_geom_bond_atom_site_label_2
_geom_bond_site_symmetry_1
_geom_bond_site_symmetry_2
Cu1 N1 1_555 1_555
N1 C1 1_555 1_555
C1 H1 1_555 1_555
C2 C1 1_555 1_555
H2 C2 1_555 1_555
C3 C2 1_555 1_555
C4 C3 1_555 1_555
H3 C4 1_555 1_555
C5 N1 1_555 1_555
H4 C5 1_555 1_555
N2 Cu1 1_555 1_555
C6 N2 1_555 1_555
H5 C6 1_555 1_555
C7 C6 1_555 1_555
H6 C7 1_555 1_555
C8 C7 1_555 1_555
C9 C8 1_555 1_555
H7 C9 1_555 1_555
C10 N2 1_555 1_555
H8 C10 1_555 1_555
P1 Cu1 1_555 1_555
C11 P1 1_555 1_555
C12 C11 1_555 1_555
H9 C12 1_555 1_555
C13 C12 1_555 1_555
H10 C13 1_555 1_555
C14 C13 1_555 1_555
H11 C14 1_555 1_555
C15 C14 1_555 1_555
H12 C15 1_555 1_555
C16 C11 1_555 1_555
H13 C16 1_555 1_555
C17 P1 1_555 1_555
C18 C17 1_555 1_555
H14 C18 1_555 1_555
C19 C18 1_555 1_555
H15 C19 1_555 1_555
C20 C19 1_555 1_555
H16 C20 1_555 1_555
C21 C20 1_555 1_555
H17 C21 1_555 1_555
C22 C17 1_555 1_555
H18 C22 1_555 1_555
C23 P1 1_555 1_555
C24 C23 1_555 1_555
H19 C24 1_555 1_555
C25 C24 1_555 1_555
H20 C25 1_555 1_555
C26 C25 1_555 1_555
H21 C26 1_555 1_555
C27 C26 1_555 1_555
H22 C27 1_555 1_555
C28 C23 1_555 1_555
H23 C28 1_555 1_555
P2 Cu1 1_555 1_555
C29 P2 1_555 1_555
C30 C29 1_555 1_555
H24 C30 1_555 1_555
C31 C30 1_555 1_555
H25 C31 1_555 1_555
C32 C31 1_555 1_555
H26 C32 1_555 1_555
C33 C32 1_555 1_555
H27 C33 1_555 1_555
C34 C29 1_555 1_555
H28 C34 1_555 1_555
C35 P2 1_555 1_555
C36 C35 1_555 1_555
H29 C36 1_555 1_555
C37 C36 1_555 1_555
H30 C37 1_555 1_555
C38 C37 1_555 1_555
H31 C38 1_555 1_555
C39 C38 1_555 1_555
H32 C39 1_555 1_555
C40 C35 1_555 1_555
H33 C40 1_555 1_555
C41 P2 1_555 1_555
C42 C41 1_555 1_555
H34 C42 1_555 1_555
C43 C42 1_555 1_555
H35 C43 1_555 1_555
C44 C43 1_555 1_555
H36 C44 1_555 1_555
C45 C44 1_555 1_555
H37 C45 1_555 1_555
C46 C41 1_555 1_555
H38 C46 1_555 1_555
P3 F1 1_555 1_555
F2 P3 1_555 1_555
F3 P3 1_555 1_555
F4 P3 1_555 1_555
F5 P3 1_555 1_555
F6 P3 1_555 1_555
C47 H39 1_555 1_555
Cl1 C47 1_555 1_555
Cl2 C47 1_555 1_555
Cl3 C47 1_555 1_555
C48 H40 1_555 1_555
Cl4 C48 1_555 1_555
Cl5 C48 1_555 1_555
Cl6 C48 1_555 1_555
C49 H41 1_555 1_555
Cl7 C49 1_555 1_555
Cl8 C49 1_555 1_555
Cl9 C49 1_555 1_555
C50 H42 1_555 1_555
Cl10 C50 1_555 1_555
Cl11 C50 1_555 1_555
Cl12 C50 1_555 1_555
Cu1A N1A 1_555 1_555
Cu1A_2 N2A 1_555 1_555
N1A C1A 1_555 1_555
C1A H1A 1_555 1_555
C2A C1A 1_555 1_555
H2A C2A 1_555 1_555
C3A C3 1_555 1_555
C4A C3A 1_555 1_555
H3A C4A 1_555 1_555
C5A N1A 1_555 1_555
H4A C5A 1_555 1_555
N2A C6A 1_555 1_555
N2A_2 Cu1A 1_555 1_555
C6A H5A 1_555 1_555
C7A C6A 1_555 1_555
H6A C7A 1_555 1_555
C8A C8 1_555 1_555
C9A C8A 1_555 1_555
H7A C9A 1_555 1_555
C10A N2A 1_555 1_555
H8A C10A 1_555 1_555
P1A Cu1A 1_555 1_555
C11A P1A 1_555 1_555
C12A C11A 1_555 1_555
H9A C12A 1_555 1_555
C13A C12A 1_555 1_555
H10A C13A 1_555 1_555
C14A C13A 1_555 1_555
H11A C14A 1_555 1_555
C15A C14A 1_555 1_555
H12A C15A 1_555 1_555
C16A C11A 1_555 1_555
H13A C16A 1_555 1_555
C17A P1A 1_555 1_555
C18A C17A 1_555 1_555
H14A C18A 1_555 1_555
C19A C18A 1_555 1_555
H15A C19A 1_555 1_555
C20A C19A 1_555 1_555
H16A C20A 1_555 1_555
C21A C20A 1_555 1_555
H17A C21A 1_555 1_555
C22A C17A 1_555 1_555
H18A C22A 1_555 1_555
C23A P1A 1_555 1_555
C24A C23A 1_555 1_555
H19A C24A 1_555 1_555
C25A C24A 1_555 1_555
H20A C25A 1_555 1_555
C26A C25A 1_555 1_555
H21A C26A 1_555 1_555
C27A C26A 1_555 1_555
H22A C27A 1_555 1_555
C28A C23A 1_555 1_555
H23A C28A 1_555 1_555
P2A Cu1A 1_555 1_555
C29A P2A 1_555 1_555
C30A C29A 1_555 1_555
H24A C30A 1_555 1_555
C31A C30A 1_555 1_555
H25A C31A 1_555 1_555
C32A C31A 1_555 1_555
H26A C32A 1_555 1_555
C33A C32A 1_555 1_555
H27A C33A 1_555 1_555
C34A C29A 1_555 1_555
H28A C34A 1_555 1_555
C35A P2A 1_555 1_555
C36A C35A 1_555 1_555
H29A C36A 1_555 1_555
C37A C36A 1_555 1_555
H30A C37A 1_555 1_555
C38A C37A 1_555 1_555
H31A C38A 1_555 1_555
C39A C38A 1_555 1_555
H32A C39A 1_555 1_555
C40A C35A 1_555 1_555
H33A C40A 1_555 1_555
C41A P2A 1_555 1_555
C42A C41A 1_555 1_555
H34A C42A 1_555 1_555
C43A C42A 1_555 1_555
H35A C43A 1_555 1_555
C44A C43A 1_555 1_555
H36A C44A 1_555 1_555
C45A C44A 1_555 1_555
H37A C45A 1_555 1_555
C46A C41A 1_555 1_555
H38A C46A 1_555 1_555
C4 C5 1_555 1_555
C9 C10 1_555 1_555
C15 C16 1_555 1_555
C21 C22 1_555 1_555
C27 C28 1_555 1_555
C33 C34 1_555 1_555
C39 C40 1_555 1_555
C45 C46 1_555 1_555
C2A C3A 1_555 1_555
C4A C5A 1_555 1_555
C7A C8A 1_555 1_555
C9A C10A 1_555 1_555
C15A C16A 1_555 1_555
C21A C22A 1_555 1_555
C27A C28A 1_555 1_555
C33A C34A 1_555 1_555
C39A C40A 1_555 1_555
C45A C46A 1_555 1_555

#END
