
#######################################################################
#
#                 Cambridge Crystallographic Data Centre
#                                CCDC 
#
#######################################################################
#
# If this CIF has been generated from an entry in the Cambridge 
# Structural Database, then it will include bibliographic, chemical, 
# crystal, experimental, refinement or atomic coordinate data resulting 
# from the CCDC's data processing and validation procedures.
#
#######################################################################

data_DAKZIA
_symmetry_cell_setting           triclinic
_symmetry_space_group_name_H-M   'P -1'
_symmetry_Int_Tables_number      2
_space_group_name_Hall           '-P 1'
loop_
_symmetry_equiv_pos_site_id
_symmetry_equiv_pos_as_xyz
1 x,y,z
2 -x,-y,-z
_cell_length_a                   10.6227(4)
_cell_length_b                   12.5763(16)
_cell_length_c                   14.1396(8)
_cell_angle_alpha                63.634(6)
_cell_angle_beta                 72.594(4)
_cell_angle_gamma                74.095(6)
_cell_volume                     1592.79
loop_
_atom_site_label
_atom_site_type_symbol
_atom_site_fract_x
_atom_site_fract_y
_atom_site_fract_z
P2 P -0.3852(3) -0.3003(3) 0.1405(2)
F1 F -0.2884(5) -0.3879(6) 0.2198(5)
F2 F -0.4834(7) -0.2173(7) 0.0617(5)
F3 F -0.3455(7) -0.1915(7) 0.1448(6)
F4 F -0.2673(7) -0.2941(7) 0.0397(5)
F5 F -0.4225(6) -0.4155(6) 0.1416(5)
F6 F -0.5068(5) -0.3012(6) 0.2389(4)
Cu1 Cu 0.18839(9) 0.47304(9) 0.17227(7)
P1 P 0.19109(18) 0.32011(18) 0.32743(16)
N1 N 0.0764(6) 0.4873(6) 0.0694(5)
C1 C -0.0441(9) 0.4619(10) 0.1038(7)
H1 H -0.0801 0.4333 0.1783
C2 C 0.1196(9) 0.5250(11) -0.0360(7)
H2 H 0.2066 0.5436 -0.0654
N2 N 0.3772(5) 0.4904(6) 0.0685(5)
C3 C 0.4733(7) 0.3957(7) 0.0725(6)
H3 H 0.4565 0.3192 0.1243
C4 C 0.4066(7) 0.5946(8) -0.0052(6)
H4 H 0.3420 0.6642 -0.0112
N3 N 0.1297(6) 0.6468(6) 0.1687(5)
C5 C 0.0147(10) 0.7164(10) 0.1422(10)
H5 H -0.0459 0.6856 0.1282
C6 C -0.0151(13) 0.8332(14) 0.1355(13)
H6 H -0.1006 0.8768 0.1251
N4 N 0.0664(15) 0.8844(14) 0.1425(16)
C7 C 0.1748(13) 0.8215(12) 0.1672(13)
H7 H 0.2378 0.8581 0.1716
C8 C 0.2050(10) 0.7002(10) 0.1881(10)
H8 H 0.2810 0.6542 0.2169
C9 C 0.2820(7) 0.3322(6) 0.4125(6)
C10 C 0.3935(7) 0.3877(7) 0.3626(6)
H9 H 0.4186 0.4206 0.2870
C11 C 0.4679(8) 0.3949(8) 0.4235(8)
H10 H 0.5467 0.4286 0.3897
C12 C 0.4270(8) 0.3529(7) 0.5337(7)
H11 H 0.4769 0.3602 0.5747
C13 C 0.3148(8) 0.3006(8) 0.5846(7)
H12 H 0.2875 0.2721 0.6601
C14 C 0.2424(7) 0.2902(7) 0.5242(6)
H13 H 0.1651 0.2543 0.5587
C15 C 0.0323(7) 0.2866(7) 0.4151(6)
C16 C -0.0654(8) 0.3831(8) 0.4237(7)
H14 H -0.0491 0.4622 0.3809
C17 C -0.1859(9) 0.3631(10) 0.4945(9)
H15 H -0.2517 0.4291 0.4991
C18 C -0.2112(8) 0.2509(9) 0.5573(8)
H16 H -0.2929 0.2392 0.6072
C19 C -0.1186(8) 0.1527(8) 0.5490(7)
H17 H -0.1376 0.0742 0.5906
C20 C 0.0020(8) 0.1721(8) 0.4789(7)
H18 H 0.0662 0.1055 0.4738
C21 C 0.2783(7) 0.1801(7) 0.3143(6)
C22 C 0.3553(8) 0.0919(8) 0.3829(7)
H19 H 0.3616 0.1009 0.4438
C23 C 0.4240(9) -0.0095(9) 0.3654(9)
H20 H 0.4733 -0.0705 0.4155
C24 C 0.4203(9) -0.0212(9) 0.2760(9)
H21 H 0.4716 -0.0885 0.2619
C25 C 0.3434(10) 0.0632(9) 0.2058(8)
H22 H 0.3381 0.0520 0.1457
C26 C 0.2729(8) 0.1658(8) 0.2230(7)
H23 H 0.2218 0.2254 0.1736
Cu1A Cu -0.18839(9) 0.52696(9) -0.17227(7)
Cu1A_2 Cu 0.81161(9) 0.52696(9) -0.17227(7)
P1A P -0.19109(18) 0.67989(18) -0.32743(16)
N1A N -0.0764(6) 0.5127(6) -0.0694(5)
C1A C 0.0441(9) 0.5381(10) -0.1038(7)
H1A H 0.0801 0.5667 -0.1783
C2A C -0.1196(9) 0.4750(11) 0.0360(7)
H2A H -0.2066 0.4564 0.0654
N2A N 0.6228(5) 0.5096(6) -0.0685(5)
N2A_2 N -0.3772(5) 0.5096(6) -0.0685(5)
C3A C 0.5267(7) 0.6043(7) -0.0725(6)
H3A H 0.5435 0.6808 -0.1243
C4A C 0.5934(7) 0.4054(8) 0.0052(6)
H4A H 0.6580 0.3358 0.0112
N3A N -0.1297(6) 0.3532(6) -0.1687(5)
C5A C -0.0147(10) 0.2836(10) -0.1422(10)
H5A H 0.0459 0.3144 -0.1282
C6A C 0.0151(13) 0.1668(14) -0.1355(13)
H6A H 0.1006 0.1232 -0.1251
N4A N -0.0664(15) 0.1156(14) -0.1425(16)
C7A C -0.1748(13) 0.1785(12) -0.1672(13)
H7A H -0.2378 0.1419 -0.1716
C8A C -0.2050(10) 0.2998(10) -0.1881(10)
H8A H -0.2810 0.3458 -0.2169
C9A C -0.2820(7) 0.6678(6) -0.4125(6)
C10A C -0.3935(7) 0.6123(7) -0.3626(6)
H9A H -0.4186 0.5794 -0.2870
C11A C -0.4679(8) 0.6051(8) -0.4235(8)
H10A H -0.5467 0.5714 -0.3897
C12A C -0.4270(8) 0.6471(7) -0.5337(7)
H11A H -0.4769 0.6398 -0.5747
C13A C -0.3148(8) 0.6994(8) -0.5846(7)
H12A H -0.2875 0.7279 -0.6601
C14A C -0.2424(7) 0.7098(7) -0.5242(6)
H13A H -0.1651 0.7457 -0.5587
C15A C -0.0323(7) 0.7134(7) -0.4151(6)
C16A C 0.0654(8) 0.6169(8) -0.4237(7)
H14A H 0.0491 0.5378 -0.3809
C17A C 0.1859(9) 0.6369(10) -0.4945(9)
H15A H 0.2517 0.5709 -0.4991
C18A C 0.2112(8) 0.7491(9) -0.5573(8)
H16A H 0.2929 0.7608 -0.6072
C19A C 0.1186(8) 0.8473(8) -0.5490(7)
H17A H 0.1376 0.9258 -0.5906
C20A C -0.0020(8) 0.8279(8) -0.4789(7)
H18A H -0.0662 0.8945 -0.4738
C21A C -0.2783(7) 0.8199(7) -0.3143(6)
C22A C -0.3553(8) 0.9081(8) -0.3829(7)
H19A H -0.3616 0.8991 -0.4438
C23A C -0.4240(9) 1.0095(9) -0.3654(9)
H20A H -0.4733 1.0705 -0.4155
C24A C -0.4203(9) 1.0212(9) -0.2760(9)
H21A H -0.4716 1.0885 -0.2619
C25A C -0.3434(10) 0.9368(9) -0.2058(8)
H22A H -0.3381 0.9480 -0.1457
C26A C -0.2729(8) 0.8342(8) -0.2230(7)
H23A H -0.2218 0.7746 -0.1736
loop_
_geom_bond_atom_site_label_1
_geom_bond_atom_site_label_2
_geom_bond_site_symmetry_1
_geom_bond_site_symmetry_2
Cu1 P1 1_555 1_555
P1 C9 1_555 1_555
N1 Cu1 1_555 1_555
C1 N1 1_555 1_555
H1 C1 1_555 1_555
C2 N1 1_555 1_555
H2 C2 1_555 1_555
N2 Cu1 1_555 1_555
C3 N2 1_555 1_555
H3 C3 1_555 1_555
C4 N2 1_555 1_555
H4 C4 1_555 1_555
N3 Cu1 1_555 1_555
C5 N3 1_555 1_555
H5 C5 1_555 1_555
C6 C5 1_555 1_555
H6 C6 1_555 1_555
N4 C6 1_555 1_555
C7 N4 1_555 1_555
H7 C7 1_555 1_555
C8 N3 1_555 1_555
H8 C8 1_555 1_555
C9 C10 1_555 1_555
C10 H9 1_555 1_555
C11 C10 1_555 1_555
H10 C11 1_555 1_555
C12 C11 1_555 1_555
H11 C12 1_555 1_555
C13 C12 1_555 1_555
H12 C13 1_555 1_555
C14 C9 1_555 1_555
H13 C14 1_555 1_555
C15 P1 1_555 1_555
C16 C15 1_555 1_555
H14 C16 1_555 1_555
C17 C16 1_555 1_555
H15 C17 1_555 1_555
C18 C17 1_555 1_555
H16 C18 1_555 1_555
C19 C18 1_555 1_555
H17 C19 1_555 1_555
C20 C15 1_555 1_555
H18 C20 1_555 1_555
C21 P1 1_555 1_555
C22 C21 1_555 1_555
H19 C22 1_555 1_555
C23 C22 1_555 1_555
H20 C23 1_555 1_555
C24 C23 1_555 1_555
H21 C24 1_555 1_555
C25 C24 1_555 1_555
H22 C25 1_555 1_555
C26 C21 1_555 1_555
H23 C26 1_555 1_555
P2 F1 1_555 1_555
F2 P2 1_555 1_555
F3 P2 1_555 1_555
F4 P2 1_555 1_555
F5 P2 1_555 1_555
F6 P2 1_555 1_555
Cu1A P1A 1_555 1_555
Cu1A_2 N2A 1_555 1_555
P1A C9A 1_555 1_555
N1A Cu1A 1_555 1_555
C1A C2 1_555 1_555
H1A C1A 1_555 1_555
C2A C1 1_555 1_555
H2A C2A 1_555 1_555
N2A C3A 1_555 1_555
N2A_2 Cu1A 1_555 1_555
C3A C4 1_555 1_555
H3A C3A 1_555 1_555
C4A C3 1_555 1_555
H4A C4A 1_555 1_555
N3A Cu1A 1_555 1_555
C5A N3A 1_555 1_555
H5A C5A 1_555 1_555
C6A C5A 1_555 1_555
H6A C6A 1_555 1_555
N4A C6A 1_555 1_555
C7A N4A 1_555 1_555
H7A C7A 1_555 1_555
C8A N3A 1_555 1_555
H8A C8A 1_555 1_555
C9A C10A 1_555 1_555
C10A H9A 1_555 1_555
C11A C10A 1_555 1_555
H10A C11A 1_555 1_555
C12A C11A 1_555 1_555
H11A C12A 1_555 1_555
C13A C12A 1_555 1_555
H12A C13A 1_555 1_555
C14A C9A 1_555 1_555
H13A C14A 1_555 1_555
C15A P1A 1_555 1_555
C16A C15A 1_555 1_555
H14A C16A 1_555 1_555
C17A C16A 1_555 1_555
H15A C17A 1_555 1_555
C18A C17A 1_555 1_555
H16A C18A 1_555 1_555
C19A C18A 1_555 1_555
H17A C19A 1_555 1_555
C20A C15A 1_555 1_555
H18A C20A 1_555 1_555
C21A P1A 1_555 1_555
C22A C21A 1_555 1_555
H19A C22A 1_555 1_555
C23A C22A 1_555 1_555
H20A C23A 1_555 1_555
C24A C23A 1_555 1_555
H21A C24A 1_555 1_555
C25A C24A 1_555 1_555
H22A C25A 1_555 1_555
C26A C21A 1_555 1_555
H23A C26A 1_555 1_555
C7 C8 1_555 1_555
C13 C14 1_555 1_555
C19 C20 1_555 1_555
C25 C26 1_555 1_555
N1A C1A 1_555 1_555
N1A C2A 1_555 1_555
N2A C4A 1_555 1_555
C7A C8A 1_555 1_555
C13A C14A 1_555 1_555
C19A C20A 1_555 1_555
C25A C26A 1_555 1_555

#END
