
#######################################################################
#
#                 Cambridge Crystallographic Data Centre
#                                CCDC 
#
#######################################################################
#
# If this CIF has been generated from an entry in the Cambridge 
# Structural Database, then it will include bibliographic, chemical, 
# crystal, experimental, refinement or atomic coordinate data resulting 
# from the CCDC's data processing and validation procedures.
#
#######################################################################

data_DALCEZ
_symmetry_cell_setting           orthorhombic
_symmetry_space_group_name_H-M   'P 21 21 21'
_symmetry_Int_Tables_number      19
_space_group_name_Hall           'P 2ac 2ab'
loop_
_symmetry_equiv_pos_site_id
_symmetry_equiv_pos_as_xyz
1 x,y,z
2 1/2-x,-y,1/2+z
3 -x,1/2+y,1/2-z
4 1/2+x,1/2-y,-z
_cell_length_a                   10.0500(6)
_cell_length_b                   18.3035(10)
_cell_length_c                   24.8967(13)
_cell_angle_alpha                90
_cell_angle_beta                 90
_cell_angle_gamma                90
_cell_volume                     4579.75
loop_
_atom_site_label
_atom_site_type_symbol
_atom_site_fract_x
_atom_site_fract_y
_atom_site_fract_z
Cu1 Cu 0.94771(4) 0.56845(2) 1.152811(15)
C1 C 1.0240(3) 0.06963(19) 0.96546(13)
H1 H 0.9817 0.0276 0.9828
N1 N 0.2003(3) 0.69967(16) 0.84594(13)
H2 H 0.2057 0.6689 0.8719
C2 C 0.5421(3) 0.69507(17) 0.92767(11)
C3 C 0.4374(3) 0.67604(17) 0.83726(12)
H3 H 0.4218 0.6248 0.8467
N2 N 0.9458(3) 0.46476(16) 1.12932(12)
N3 N 0.8411(3) 0.61713(15) 1.09624(12)
C4 C 0.7029(3) 0.65471(19) 1.01419(13)
N4 N 0.4630(3) 0.71674(15) 0.88629(10)
H4 H 0.4245 0.7585 0.8895
N5 N -0.3705(3) 0.8901(2) 0.84456(18)
C5 C 1.1153(3) 0.0983(2) 1.05759(14)
C6 C -0.0465(4) 0.8383(2) 0.80718(17)
H5 H -0.0559 0.8777 0.7839
N6 N 0.8422(3) 0.15194(16) 0.99516(12)
H6 H 0.7753 0.1269 1.0064
C7 C 0.7806(4) 0.63406(19) 1.05916(14)
C8 C 0.6787(4) 0.60592(19) 0.97236(15)
H7 H 0.7164 0.5595 0.9731
N7 N 1.1182(3) 0.10141(18) 1.00326(11)
H8 H 1.1837 0.1250 0.9894
C9 C 0.0714(4) 0.7995(2) 0.80832(15)
H9 H 0.1420 0.8143 0.7867
C10 C 1.0149(4) 0.0612(2) 1.14107(14)
H10 H 0.9459 0.0383 1.1594
C11 C 0.5995(4) 0.62626(18) 0.93014(14)
H11 H 0.5838 0.5932 0.9025
N8 N 1.1150(4) 0.0825(2) 1.27252(13)
C12 C -0.1511(3) 0.8188(2) 0.84063(18)
C13 C 0.8706(3) 0.21417(17) 1.02207(13)
C14 C 0.3134(3) 0.7059(2) 0.81042(12)
H12 H 0.3281 0.7579 0.8034
C15 C 0.9147(4) 0.1231(2) 0.94865(13)
H13 H 0.9572 0.1644 0.9303
C16 C 0.9580(4) 0.26832(18) 1.00328(14)
H14 H 1.0036 0.2609 0.9712
C17 C 0.5713(4) 0.74527(18) 0.96858(13)
H15 H 0.5367 0.7924 0.9669
C18 C 0.9130(4) 0.34301(18) 1.07981(15)
C19 C 0.0857(3) 0.73889(19) 0.84133(14)
C20 C 1.0116(4) 0.0645(2) 1.08568(14)
H16 H 0.9404 0.0443 1.0670
C21 C 1.1188(4) 0.0913(2) 1.16960(14)
C22 C 0.9774(4) 0.3316(2) 1.03112(16)
H17 H 1.0339 0.3673 1.0175
C23 C 0.9314(4) 0.41065(19) 1.10821(15)
C24 C 0.8278(4) 0.28944(19) 1.09950(15)
H18 H 0.7858 0.2964 1.1324
C25 C 0.5564(4) 0.6800(2) 0.79945(14)
H19 H 0.6335 0.6587 0.8169
H20 H 0.5765 0.7308 0.7918
C26 C -0.1360(4) 0.7586(2) 0.87390(18)
H21 H -0.2051 0.7452 0.8966
C27 C 0.8052(4) 0.22726(19) 1.07148(15)
H22 H 0.7459 0.1927 1.0849
C28 C 0.6502(4) 0.7254(2) 1.01085(13)
H23 H 0.6690 0.7591 1.0377
C29 C 1.2210(5) 0.1242(4) 1.14150(18)
H24 H 1.2927 0.1439 1.1602
C30 C 1.2187(5) 0.1284(3) 1.08716(17)
H25 H 1.2878 0.1519 1.0693
C31 C 1.0973(5) 0.0425(3) 0.91601(17)
H26 H 1.1645 0.0073 0.9267
H27 H 1.1417 0.0831 0.8986
C32 C 0.4078(5) 0.6736(4) 0.71920(17)
H28 H 0.4256 0.7245 0.7109
H29 H 0.3891 0.6483 0.6858
C33 C 0.2893(4) 0.6682(3) 0.75623(17)
H30 H 0.2689 0.6171 0.7624
H31 H 0.2127 0.6903 0.7390
C34 C 0.8193(5) 0.0869(3) 0.90903(18)
H32 H 0.7732 0.0472 0.9269
H33 H 0.7532 0.1223 0.8976
C35 C -0.0229(4) 0.7194(2) 0.87377(18)
H34 H -0.0164 0.6785 0.8957
C36 C 1.0014(6) 0.0068(3) 0.87661(19)
H35 H 1.0498 -0.0080 0.8447
H36 H 0.9639 -0.0367 0.8929
C37 C 0.5294(5) 0.6394(3) 0.74651(17)
H37 H 0.6062 0.6431 0.7231
H38 H 0.5128 0.5881 0.7537
C38 C 0.8901(6) 0.0577(3) 0.86071(18)
H39 H 0.9262 0.0981 0.8401
H40 H 0.8273 0.0318 0.8381
C39 C -0.2719(4) 0.8592(2) 0.8426(2)
C40 C 1.1197(5) 0.0868(2) 1.22690(16)
N5C N 1.1295(3) 0.6099(2) 1.15544(18)
N8B N 0.8850(4) 0.5825(2) 1.22748(13)
Cu1C Cu -0.55229(4) 0.93155(2) 0.847189(15)
Cu1B Cu 1.05229(4) 0.06845(2) 1.347189(15)
P1 P 0.6052(2) 0.98763(11) 0.06644(13)
F1 F 0.7038(8) 1.0124(5) 0.0266(4)
F2 F 0.6185(12) 1.0656(3) 0.0842(4)
F3 F 0.5010(7) 0.9710(4) 0.1094(4)
F4 F 0.7132(7) 0.9656(4) 0.1057(3)
F5 F 0.5946(9) 0.9066(3) 0.0464(3)
F6 F 0.4938(8) 1.0081(4) 0.0278(4)
loop_
_geom_bond_atom_site_label_1
_geom_bond_atom_site_label_2
_geom_bond_site_symmetry_1
_geom_bond_site_symmetry_2
Cu1 N2 1_555 1_555
C1 H1 1_555 1_555
N1 H2 1_555 1_555
C2 N4 1_555 1_555
C3 H3 1_555 1_555
N2 C23 1_555 1_555
N3 Cu1 1_555 1_555
C4 C7 1_555 1_555
N4 C3 1_555 1_555
H4 N4 1_555 1_555
N5 C39 1_555 1_555
C5 N7 1_555 1_555
C6 H5 1_555 1_555
N6 H6 1_555 1_555
C7 N3 1_555 1_555
C8 C4 1_555 1_555
H7 C8 1_555 1_555
N7 C1 1_555 1_555
H8 N7 1_555 1_555
C9 C6 1_555 1_555
H9 C9 1_555 1_555
C10 H10 1_555 1_555
C11 C2 1_555 1_555
H11 C11 1_555 1_555
N8 C40 1_555 1_555
C12 C6 1_555 1_555
C13 N6 1_555 1_555
C14 N1 1_555 1_555
H12 C14 1_555 1_555
C15 C1 1_555 1_555
H13 C15 1_555 1_555
C16 C13 1_555 1_555
H14 C16 1_555 1_555
C17 C2 1_555 1_555
H15 C17 1_555 1_555
C18 C22 1_555 1_555
C19 N1 1_555 1_555
C20 C5 1_555 1_555
H16 C20 1_555 1_555
C21 C10 1_555 1_555
C22 C16 1_555 1_555
H17 C22 1_555 1_555
C23 C18 1_555 1_555
C24 C18 1_555 1_555
H18 C24 1_555 1_555
C25 C3 1_555 1_555
H19 C25 1_555 1_555
H20 C25 1_555 1_555
C26 C12 1_555 1_555
H21 C26 1_555 1_555
C27 C13 1_555 1_555
H22 C27 1_555 1_555
C28 C4 1_555 1_555
H23 C28 1_555 1_555
C29 C21 1_555 1_555
H24 C29 1_555 1_555
C30 C5 1_555 1_555
H25 C30 1_555 1_555
C31 C1 1_555 1_555
H26 C31 1_555 1_555
H27 C31 1_555 1_555
C32 H28 1_555 1_555
H29 C32 1_555 1_555
C33 C14 1_555 1_555
H30 C33 1_555 1_555
H31 C33 1_555 1_555
C34 C15 1_555 1_555
H32 C34 1_555 1_555
H33 C34 1_555 1_555
C35 C19 1_555 1_555
H34 C35 1_555 1_555
C36 C31 1_555 1_555
H35 C36 1_555 1_555
H36 C36 1_555 1_555
C37 C25 1_555 1_555
H37 C37 1_555 1_555
H38 C37 1_555 1_555
C38 C34 1_555 1_555
H39 C38 1_555 1_555
H40 C38 1_555 1_555
C39 C12 1_555 1_555
C40 C21 1_555 1_555
P1 F1 1_555 1_555
F2 P1 1_555 1_555
F3 P1 1_555 1_555
F4 P1 1_555 1_555
F5 P1 1_555 1_555
F6 P1 1_555 1_555
N5C Cu1 1_555 1_555
N8B Cu1 1_555 1_555
Cu1C N5 1_555 1_555
Cu1B N8 1_555 1_555
C3 C14 1_555 1_555
N6 C15 1_555 1_555
C8 C11 1_555 1_555
C9 C19 1_555 1_555
C10 C20 1_555 1_555
C17 C28 1_555 1_555
C24 C27 1_555 1_555
C26 C35 1_555 1_555
C29 C30 1_555 1_555
C32 C37 1_555 1_555
C32 C33 1_555 1_555
C36 C38 1_555 1_555

#END
