
#######################################################################
#
#                 Cambridge Crystallographic Data Centre
#                                CCDC 
#
#######################################################################
#
# If this CIF has been generated from an entry in the Cambridge 
# Structural Database, then it will include bibliographic, chemical, 
# crystal, experimental, refinement or atomic coordinate data resulting 
# from the CCDC's data processing and validation procedures.
#
#######################################################################

data_DALLUY
_symmetry_cell_setting           monoclinic
_symmetry_space_group_name_H-M   'P 2/c'
_symmetry_Int_Tables_number      13
_space_group_name_Hall           '-P 2yc'
loop_
_symmetry_equiv_pos_site_id
_symmetry_equiv_pos_as_xyz
1 x,y,z
2 x,-y,1/2+z
3 -x,-y,-z
4 -x,y,1/2-z
_cell_length_a                   11.32(2)
_cell_length_b                   11.410(5)
_cell_length_c                   22.795(18)
_cell_angle_alpha                90
_cell_angle_beta                 92.951(14)
_cell_angle_gamma                90
_cell_volume                     2940.33
loop_
_atom_site_label
_atom_site_type_symbol
_atom_site_fract_x
_atom_site_fract_y
_atom_site_fract_z
Co1 Co 0.0000 0.79706(5) 0.2500
Co2 Co 0.5000 0.83508(5) 0.2500
Co3 Co 0.5000 1.0000 0.5000
O1 O -0.2370(2) 0.5703(2) 0.45034(15)
H1 H -0.260(5) 0.501(2) 0.453(2)
O3 O 0.1046(2) 0.7985(2) 0.17781(10)
H4 H 0.143(3) 0.854(3) 0.1695(18)
H5 H 0.091(4) 0.766(3) 0.1461(12)
O4 O -0.0782(2) 0.6601(2) 0.42187(11)
O5 O 0.49001(19) 0.8500(2) 0.55001(11)
H6 H 0.541(3) 0.801(3) 0.5548(18)
H7 H 0.426(2) 0.831(4) 0.5604(18)
O6 O -0.2808(2) 0.2085(2) 0.40199(13)
O7 O -0.3191(2) 0.3778(3) 0.44164(14)
O8 O 0.49772(19) 0.8996(2) 0.42254(9)
O9 O 0.56230(18) 0.84153(18) 0.33751(9)
O10 O 0.15154(17) 0.78028(19) 0.30771(9)
O11 O 0.32669(18) 0.84182(19) 0.27962(9)
O12 O 0.3202(2) 0.2984(2) 0.41757(11)
N1 N 0.6874(2) 0.9923(2) 0.50684(10)
N2 N 0.0000 0.6066(3) 0.2500
N3 N 0.0000 -0.0169(3) 0.2500
N4 N 0.5000 0.6463(3) 0.2500
N5 N 0.5000 0.0250(3) 0.2500
C1 C 0.3137(2) 0.5025(3) 0.40095(12)
C2 C 0.2624(2) 0.5891(3) 0.36420(12)
H8 H 0.1882 0.5761 0.3459
C3 C 0.3209(2) 0.6948(2) 0.35456(12)
C4 C 0.4290(2) 0.7167(3) 0.38559(12)
C5 C 0.4783(3) 0.6317(3) 0.42407(12)
H9 H 0.5483 0.6477 0.4457
C6 C 0.4236(3) 0.5246(3) 0.43003(12)
H10 H 0.4598 0.4668 0.4534
C7 C 0.2624(2) 0.7795(2) 0.31025(12)
C8 C 0.4998(2) 0.8291(3) 0.38108(12)
C9 C 0.1265(3) 0.3726(3) 0.40934(12)
C10 C 0.0526(3) 0.4663(3) 0.41999(12)
H11 H 0.0857 0.5405 0.4251
C11 C -0.0692(3) 0.4536(3) 0.42327(12)
C12 C -0.1184(3) 0.3404(3) 0.41561(12)
C13 C -0.0436(3) 0.2471(3) 0.40360(13)
H12 H -0.0761 0.1731 0.3973
C14 C 0.0772(3) 0.2613(3) 0.40084(13)
H13 H 0.1252 0.1974 0.3934
C15 C 0.2580(3) 0.3851(3) 0.40961(13)
C16 C -0.1319(3) 0.5697(3) 0.43191(14)
C17 C -0.2480(3) 0.3064(3) 0.41962(14)
C18 C 0.7519(3) 1.0823(3) 0.52884(16)
H14 H 0.7122 1.1442 0.5457
C19 C 0.8737(3) 1.0884(3) 0.52797(17)
H15 H 0.9143 1.1523 0.5444
C20 C 0.9346(2) 0.9982(3) 0.50228(12)
C21 C 0.8686(3) 0.9038(3) 0.48120(14)
H16 H 0.9061 0.8401 0.4648
C22 C 0.7466(3) 0.9042(3) 0.48449(14)
H17 H 0.7043 0.8394 0.4703
C23 C 0.0924(3) 0.5451(3) 0.23239(13)
H18 H 0.1575 0.5860 0.2197
C24 C 0.0963(3) 0.4238(3) 0.23200(14)
H19 H 0.1631 0.3853 0.2197
C25 C 0.0000 0.3593(3) 0.2500
C26 C 0.0000 0.2284(3) 0.2500
C27 C 0.1010(3) 0.0444(3) 0.25980(14)
H20 H 0.1713 0.0035 0.2670
C28 C 0.4325(3) 0.5854(3) 0.21032(13)
H21 H 0.3840 0.6266 0.1834
C29 C 0.4322(3) 0.4637(3) 0.20784(13)
H22 H 0.3874 0.4250 0.1785
C30 C 0.5000 0.3998(4) 0.2500
C31 C 0.5000 0.2712(4) 0.2500
C32 C 0.5280(3) 0.2074(3) 0.20064(14)
H23 H 0.5466 0.2461 0.1664
C33 C 0.5281(3) 0.0864(3) 0.20259(14)
H24 H 0.5488 0.0455 0.1693
C34 C 0.1043(3) 0.1658(3) 0.25954(14)
H25 H 0.1759 0.2050 0.2657
C20B C 1.0654(2) 1.0018(3) 0.49772(12)
C19B C 1.1263(3) 0.9116(3) 0.47203(17)
C18B C 1.2481(3) 0.9177(3) 0.47116(16)
N1B N 1.3126(2) 1.0077(2) 0.49316(10)
C22B C 1.2534(3) 1.0958(3) 0.51551(14)
C21B C 1.1314(3) 1.0962(3) 0.51880(14)
H16B H 1.0939 1.1599 0.5352
H17B H 1.2957 1.1606 0.5297
H14B H 1.2878 0.8558 0.4543
H15B H 1.0857 0.8477 0.4556
C24C C -0.0963(3) 0.4238(3) 0.26800(14)
C23C C -0.0924(3) 0.5451(3) 0.26761(13)
H18C H -0.1575 0.5860 0.2803
H19C H -0.1631 0.3853 0.2803
C27C C -0.1010(3) 0.0444(3) 0.24020(14)
H20C H -0.1713 0.0035 0.2330
C34C C -0.1043(3) 0.1658(3) 0.24046(14)
H25C H -0.1759 0.2050 0.2343
C29C C 0.5678(3) 0.4637(3) 0.29216(13)
C28C C 0.5675(3) 0.5854(3) 0.28968(13)
H21C H 0.6160 0.6266 0.3166
H22C H 0.6126 0.4250 0.3215
C33C C 0.4719(3) 0.0864(3) 0.29741(14)
C32C C 0.4720(3) 0.2074(3) 0.29936(14)
H23C H 0.4534 0.2461 0.3336
H24C H 0.4512 0.0455 0.3307
O3C O -0.1046(2) 0.7985(2) 0.32219(10)
H4C H -0.143(3) 0.854(3) 0.3305(18)
H5C H -0.091(4) 0.766(3) 0.3539(12)
O1C O 0.2370(2) 0.5703(2) 0.04966(15)
H1C H 0.260(5) 0.501(2) 0.047(2)
O4C O 0.0782(2) 0.6601(2) 0.07813(11)
O6C O 0.2808(2) 0.2085(2) 0.09801(13)
O7C O 0.3191(2) 0.3778(3) 0.05836(14)
O8C O -0.49772(19) 0.8996(2) 0.07746(9)
O9C O -0.56230(18) 0.84153(18) 0.16249(9)
O10C O -0.15154(17) 0.78028(19) 0.19229(9)
O11C O -0.32669(18) 0.84182(19) 0.22038(9)
O12C O -0.3202(2) 0.2984(2) 0.08243(11)
C1C C -0.3137(2) 0.5025(3) 0.09905(12)
C2C C -0.2624(2) 0.5891(3) 0.13580(12)
H8C H -0.1882 0.5761 0.1541
C3C C -0.3209(2) 0.6948(2) 0.14544(12)
C4C C -0.4290(2) 0.7167(3) 0.11441(12)
C5C C -0.4783(3) 0.6317(3) 0.07593(12)
H9C H -0.5483 0.6477 0.0543
C6C C -0.4236(3) 0.5246(3) 0.06997(12)
H10C H -0.4598 0.4668 0.0466
C7C C -0.2624(2) 0.7795(2) 0.18975(12)
C8C C -0.4998(2) 0.8291(3) 0.11892(12)
C9C C -0.1265(3) 0.3726(3) 0.09066(12)
C10C C -0.0526(3) 0.4663(3) 0.08001(12)
H11C H -0.0857 0.5405 0.0749
C11C C 0.0692(3) 0.4536(3) 0.07673(12)
C12C C 0.1184(3) 0.3404(3) 0.08439(12)
C13C C 0.0436(3) 0.2471(3) 0.09640(13)
H12C H 0.0761 0.1731 0.1027
C14C C -0.0772(3) 0.2613(3) 0.09916(13)
H13C H -0.1252 0.1974 0.1066
C15C C -0.2580(3) 0.3851(3) 0.09039(13)
C16C C 0.1319(3) 0.5697(3) 0.06809(14)
C17C C 0.2480(3) 0.3064(3) 0.08038(14)
O5B O 0.50999(19) 1.1500(2) 0.44999(11)
H6B H 0.459(3) 1.199(3) 0.4452(18)
H7B H 0.574(2) 1.169(4) 0.4396(18)
N3_2 N 0.0000 0.9831(3) 0.2500
O9C_2 O 0.43770(18) 0.84153(18) 0.16249(9)
O11C_2 O 0.67331(18) 0.84182(19) 0.22038(9)
N5_2 N 0.5000 1.0250(3) 0.2500
O8B O 0.50228(19) 1.1004(2) 0.57746(9)
N1B_2 N 0.3126(2) 1.0077(2) 0.49316(10)
Co1_2 Co 0.0000 -0.20294(5) 0.2500
Co2_2 Co 0.5000 -0.16492(5) 0.2500
Co3_2 Co 1.5000 1.0000 0.5000
Co3A Co -0.5000 1.0000 0.0000
Co2_3 Co -0.5000 0.83508(5) 0.2500
O2 O 0.2405(2) 0.9869(2) 0.15402(13)
H2 H 0.305(3) 0.950(4) 0.151(2)
H3 H 0.241(4) 1.051(3) 0.1341(18)
loop_
_geom_bond_atom_site_label_1
_geom_bond_atom_site_label_2
_geom_bond_site_symmetry_1
_geom_bond_site_symmetry_2
Co1 O3 1_555 1_555
Co2 O9 1_555 1_555
Co3 O5 1_555 1_555
O1 H1 1_555 1_555
O2 H2 1_555 1_555
H3 O2 1_555 1_555
O3 H4 1_555 1_555
H5 O3 1_555 1_555
O4 C16 1_555 1_555
O5 H6 1_555 1_555
H7 O5 1_555 1_555
O6 C17 1_555 1_555
O7 C17 1_555 1_555
O8 Co3 1_555 1_555
O9 C8 1_555 1_555
O10 Co1 1_555 1_555
O11 Co2 1_555 1_555
O12 C15 1_555 1_555
N1 Co3 1_555 1_555
N2 Co1 1_555 1_555
N3 C27 1_555 1_555
N4 Co2 1_555 1_555
N5 C33 1_555 1_555
C1 C2 1_555 1_555
C2 H8 1_555 1_555
C3 C2 1_555 1_555
C4 C3 1_555 1_555
C5 C4 1_555 1_555
H9 C5 1_555 1_555
C6 C1 1_555 1_555
H10 C6 1_555 1_555
C7 O10 1_555 1_555
C8 O8 1_555 1_555
C9 C10 1_555 1_555
C10 H11 1_555 1_555
C11 C10 1_555 1_555
C12 C11 1_555 1_555
C13 C12 1_555 1_555
H12 C13 1_555 1_555
C14 C9 1_555 1_555
H13 C14 1_555 1_555
C15 C1 1_555 1_555
C16 O1 1_555 1_555
C17 C12 1_555 1_555
C18 N1 1_555 1_555
H14 C18 1_555 1_555
C19 C18 1_555 1_555
H15 C19 1_555 1_555
C20 C19 1_555 1_555
C21 C20 1_555 1_555
H16 C21 1_555 1_555
C22 N1 1_555 1_555
H17 C22 1_555 1_555
C23 N2 1_555 1_555
H18 C23 1_555 1_555
C24 C23 1_555 1_555
H19 C24 1_555 1_555
C25 C24 1_555 1_555
C26 C25 1_555 1_555
C27 H20 1_555 1_555
C28 N4 1_555 1_555
H21 C28 1_555 1_555
C29 C28 1_555 1_555
H22 C29 1_555 1_555
C30 C29 1_555 1_555
C31 C30 1_555 1_555
C32 C31 1_555 1_555
H23 C32 1_555 1_555
C33 C32 1_555 1_555
H24 C33 1_555 1_555
C34 C26 1_555 1_555
H25 C34 1_555 1_555
C20B C20 1_555 1_555
C19B C20B 1_555 1_555
C18B C19B 1_555 1_555
N1B C18B 1_555 1_555
C22B N1B 1_555 1_555
C21B C20B 1_555 1_555
H16B C21B 1_555 1_555
H17B C22B 1_555 1_555
H14B C18B 1_555 1_555
H15B C19B 1_555 1_555
C24C C25 1_555 1_555
C23C N2 1_555 1_555
H18C C23C 1_555 1_555
H19C C24C 1_555 1_555
C27C N3 1_555 1_555
H20C C27C 1_555 1_555
C34C C26 1_555 1_555
H25C C34C 1_555 1_555
C29C C30 1_555 1_555
C28C N4 1_555 1_555
H21C C28C 1_555 1_555
H22C C29C 1_555 1_555
C33C N5 1_555 1_555
C32C C31 1_555 1_555
H23C C32C 1_555 1_555
H24C C33C 1_555 1_555
O3C Co1 1_555 1_555
H4C O3C 1_555 1_555
H5C O3C 1_555 1_555
O1C H1C 1_555 1_555
O4C C16C 1_555 1_555
O6C C17C 1_555 1_555
O7C C17C 1_555 1_555
O8C C8C 1_555 1_555
O9C C8C 1_555 1_555
O10C Co1 1_555 1_555
O11C C7C 1_555 1_555
O12C C15C 1_555 1_555
C1C C2C 1_555 1_555
C2C H8C 1_555 1_555
C3C C2C 1_555 1_555
C4C C3C 1_555 1_555
C5C C4C 1_555 1_555
H9C C5C 1_555 1_555
C6C C1C 1_555 1_555
H10C C6C 1_555 1_555
C7C O10C 1_555 1_555
C8C C4C 1_555 1_555
C9C C10C 1_555 1_555
C10C H11C 1_555 1_555
C11C C10C 1_555 1_555
C12C C11C 1_555 1_555
C13C C12C 1_555 1_555
H12C C13C 1_555 1_555
C14C C9C 1_555 1_555
H13C C14C 1_555 1_555
C15C C1C 1_555 1_555
C16C O1C 1_555 1_555
C17C C12C 1_555 1_555
O5B Co3 1_555 1_555
H6B O5B 1_555 1_555
H7B O5B 1_555 1_555
N3_2 Co1 1_555 1_555
O9C_2 Co2 1_555 1_555
O11C_2 Co2 1_555 1_555
N5_2 Co2 1_555 1_555
O8B Co3 1_555 1_555
N1B_2 Co3 1_555 1_555
Co1_2 N3 1_555 1_555
Co2_2 N5 1_555 1_555
Co3_2 N1B 1_555 1_555
Co3A O8C 1_555 1_555
Co2_3 O9C 1_555 1_555
O11 C7 1_555 1_555
C3 C7 1_555 1_555
C4 C8 1_555 1_555
C5 C6 1_555 1_555
C9 C15 1_555 1_555
C11 C16 1_555 1_555
C13 C14 1_555 1_555
C21 C22 1_555 1_555
C27 C34 1_555 1_555
C22B C21B 1_555 1_555
C24C C23C 1_555 1_555
C27C C34C 1_555 1_555
C29C C28C 1_555 1_555
C33C C32C 1_555 1_555
O11C Co2_3 1_555 1_555
C3C C7C 1_555 1_555
C5C C6C 1_555 1_555
C9C C15C 1_555 1_555
C11C C16C 1_555 1_555
C13C C14C 1_555 1_555

#END
