
#######################################################################
#
#                 Cambridge Crystallographic Data Centre
#                                CCDC 
#
#######################################################################
#
# If this CIF has been generated from an entry in the Cambridge 
# Structural Database, then it will include bibliographic, chemical, 
# crystal, experimental, refinement or atomic coordinate data resulting 
# from the CCDC's data processing and validation procedures.
#
#######################################################################

data_DALLOS
_symmetry_cell_setting           triclinic
_symmetry_space_group_name_H-M   'P -1'
_symmetry_Int_Tables_number      2
_space_group_name_Hall           '-P 1'
loop_
_symmetry_equiv_pos_site_id
_symmetry_equiv_pos_as_xyz
1 x,y,z
2 -x,-y,-z
_cell_length_a                   7.52480(10)
_cell_length_b                   10.8479(3)
_cell_length_c                   20.2178(5)
_cell_angle_alpha                79.0110(10)
_cell_angle_beta                 87.8000(10)
_cell_angle_gamma                80.9930(10)
_cell_volume                     1600.04
loop_
_atom_site_label
_atom_site_type_symbol
_atom_site_fract_x
_atom_site_fract_y
_atom_site_fract_z
Cd1 Cd 0.91700(5) -0.15288(3) 0.307320(19)
Cu1 Cu 0.0000 0.0000 0.5000
O1 O 0.7561(6) -0.2557(4) 0.3951(2)
H1 H 0.669(7) -0.200(5) 0.394(4)
O2 O 0.6882(5) 0.0121(4) 0.2952(2)
O3 O 0.6998(6) 0.5980(4) 0.3041(2)
O4 O 0.4912(5) -0.0606(4) 0.3736(2)
O5 O 0.7976(5) 0.7521(4) 0.23007(19)
O6 O 0.0577(5) -0.0352(3) 0.37267(19)
O7 O 0.9673(6) 0.7443(5) 0.0676(2)
H2 H 1.073(4) 0.753(9) 0.062(4)
O8 O 0.1659(5) 0.0827(3) 0.43444(17)
O9 O 1.1036(6) 0.6288(4) 0.1601(2)
O10 O 0.2711(6) 0.4063(4) 0.0924(2)
N1 N -0.8575(6) 0.6712(4) 0.3485(2)
N2 N -0.1865(6) 0.1499(4) 0.4705(2)
N3 N 1.1019(6) -0.0776(4) 0.2203(2)
N4 N 1.7453(7) 0.1643(5) -0.0127(3)
C1 C 0.3089(7) 0.3102(5) 0.2065(2)
C2 C 0.5256(7) 0.4557(5) 0.1413(3)
C3 C 0.4389(7) 0.2171(5) 0.2404(3)
H3 H 0.5588 0.2154 0.2270
C4 C 0.5650(7) 0.5117(5) 0.1939(3)
H4 H 0.4957 0.5024 0.2331
C5 C 0.3926(7) 0.1255(5) 0.2944(2)
C6 C 0.7068(7) 0.5819(5) 0.1893(3)
C7 C 0.2136(7) 0.1344(5) 0.3167(2)
C8 C 0.8137(7) 0.5905(5) 0.1302(3)
C9 C 0.0847(7) 0.2296(5) 0.2833(3)
H5 H -0.0339 0.2358 0.2987
C10 C 0.7767(8) 0.5313(5) 0.0789(3)
H6 H 0.8504 0.5353 0.0408
C11 C 0.1299(7) 0.3157(5) 0.2274(3)
H7 H 0.0414 0.3763 0.2043
C12 C 0.6318(8) 0.4660(5) 0.0832(3)
H8 H 0.6054 0.4293 0.0475
C13 C 0.5354(7) 0.0168(5) 0.3239(3)
C14 C 0.7366(7) 0.6489(5) 0.2460(3)
C15 C 0.1455(6) 0.0491(4) 0.3783(3)
C16 C 0.9771(7) 0.6567(5) 0.1233(3)
C17 C 0.3603(8) 0.3933(5) 0.1428(3)
C18 C -0.7215(7) 0.6837(5) 0.3862(3)
H9 H -0.7147 0.7639 0.3950
C19 C -0.5911(7) 0.5849(5) 0.4128(3)
H10 H -0.5004 0.5988 0.4392
C20 C -0.5955(7) 0.4649(5) 0.4000(2)
C21 C -0.7376(8) 0.4512(5) 0.3616(3)
H11 H -0.7485 0.3719 0.3524
C22 C -0.8615(8) 0.5551(5) 0.3371(3)
H12 H -0.9542 0.5435 0.3108
C23 C -0.4537(7) 0.3560(5) 0.4249(2)
C24 C -0.2759(7) 0.3716(5) 0.4303(3)
H13 H -0.2429 0.4521 0.4185
C25 C -0.1485(8) 0.2686(5) 0.4531(3)
H14 H -0.0303 0.2817 0.4567
C26 C -0.4930(7) 0.2331(5) 0.4423(3)
H15 H -0.6099 0.2175 0.4386
C27 C -0.3574(7) 0.1339(5) 0.4653(3)
H16 H -0.3868 0.0524 0.4777
C28 C 1.2648(9) -0.1424(6) 0.2123(3)
H17 H 1.2938 -0.2233 0.2382
C29 C 1.3914(8) -0.0961(6) 0.1681(3)
H18 H 1.5043 -0.1442 0.1656
C30 C 1.3522(7) 0.0214(5) 0.1273(3)
C31 C 1.1802(8) 0.0888(6) 0.1338(3)
H19 H 1.1457 0.1678 0.1067
C32 C 1.0624(8) 0.0367(6) 0.1810(3)
H20 H 0.9495 0.0835 0.1856
C33 C 1.4873(8) 0.0748(5) 0.0786(3)
C34 C 1.6688(8) 0.0286(7) 0.0882(3)
H21 H 1.7071 -0.0333 0.1255
C35 C 1.7911(9) 0.0758(7) 0.0419(3)
H22 H 1.9125 0.0443 0.0489
C36 C 1.4391(9) 0.1656(5) 0.0219(3)
H23 H 1.3186 0.1975 0.0129
C37 C 1.5721(9) 0.2081(6) -0.0210(3)
H24 H 1.5380 0.2716 -0.0580
O2A O -0.6882(5) -0.0121(4) 0.7048(2)
O3A O -0.6998(6) -0.5980(4) 0.6959(2)
O4A O -0.4912(5) 0.0606(4) 0.6264(2)
O5A O -0.7976(5) -0.7521(4) 0.76993(19)
O6A O -0.0577(5) 0.0352(3) 0.62733(19)
O7A O -0.9673(6) -0.7443(5) 0.9324(2)
H2A H -1.073(4) -0.753(9) 0.938(4)
O8A O -0.1659(5) -0.0827(3) 0.56556(17)
O9A O -1.1036(6) -0.6288(4) 0.8399(2)
O10A O -0.2711(6) -0.4063(4) 0.9076(2)
C1A C -0.3089(7) -0.3102(5) 0.7935(2)
C2A C -0.5256(7) -0.4557(5) 0.8587(3)
C3A C -0.4389(7) -0.2171(5) 0.7596(3)
H3A H -0.5588 -0.2154 0.7730
C4A C -0.5650(7) -0.5117(5) 0.8061(3)
H4A H -0.4957 -0.5024 0.7669
C5A C -0.3926(7) -0.1255(5) 0.7056(2)
C6A C -0.7068(7) -0.5819(5) 0.8107(3)
C7A C -0.2136(7) -0.1344(5) 0.6833(2)
C8A C -0.8137(7) -0.5905(5) 0.8698(3)
C9A C -0.0847(7) -0.2296(5) 0.7167(3)
H5A H 0.0339 -0.2358 0.7013
C10A C -0.7767(8) -0.5313(5) 0.9211(3)
H6A H -0.8504 -0.5353 0.9592
C11A C -0.1299(7) -0.3157(5) 0.7726(3)
H7A H -0.0414 -0.3763 0.7957
C12A C -0.6318(8) -0.4660(5) 0.9168(3)
H8A H -0.6054 -0.4293 0.9525
C13A C -0.5354(7) -0.0168(5) 0.6761(3)
C14A C -0.7366(7) -0.6489(5) 0.7540(3)
C15A C -0.1455(6) -0.0491(4) 0.6217(3)
C16A C -0.9771(7) -0.6567(5) 0.8767(3)
C17A C -0.3603(8) -0.3933(5) 0.8572(3)
N1A N 0.8575(6) -0.6712(4) 0.6515(2)
N2A N 0.1865(6) -0.1499(4) 0.5295(2)
C18A C 0.7215(7) -0.6837(5) 0.6138(3)
H9A H 0.7147 -0.7639 0.6050
C19A C 0.5911(7) -0.5849(5) 0.5872(3)
H10A H 0.5004 -0.5988 0.5608
C20A C 0.5955(7) -0.4649(5) 0.6000(2)
C21A C 0.7376(8) -0.4512(5) 0.6384(3)
H11A H 0.7485 -0.3719 0.6476
C22A C 0.8615(8) -0.5551(5) 0.6629(3)
H12A H 0.9542 -0.5435 0.6892
C23A C 0.4537(7) -0.3560(5) 0.5751(2)
C24A C 0.2759(7) -0.3716(5) 0.5697(3)
H13A H 0.2429 -0.4521 0.5815
C25A C 0.1485(8) -0.2686(5) 0.5469(3)
H14A H 0.0303 -0.2817 0.5433
C26A C 0.4930(7) -0.2331(5) 0.5577(3)
H15A H 0.6099 -0.2175 0.5614
C27A C 0.3574(7) -0.1339(5) 0.5347(3)
H16A H 0.3868 -0.0524 0.5223
Cd1A Cd -0.91700(5) 0.15288(3) 0.692680(19)
O1A O -0.7561(6) 0.2557(4) 0.6049(2)
H1A H -0.669(7) 0.200(5) 0.606(4)
N3A N -1.1019(6) 0.0776(4) 0.7797(2)
N4A N -1.7453(7) -0.1643(5) 1.0127(3)
C28A C -1.2648(9) 0.1424(6) 0.7877(3)
H17A H -1.2938 0.2233 0.7618
C29A C -1.3914(8) 0.0961(6) 0.8319(3)
H18A H -1.5043 0.1442 0.8344
C30A C -1.3522(7) -0.0214(5) 0.8727(3)
C31A C -1.1802(8) -0.0888(6) 0.8662(3)
H19A H -1.1457 -0.1678 0.8933
C32A C -1.0624(8) -0.0367(6) 0.8190(3)
H20A H -0.9495 -0.0835 0.8144
C33A C -1.4873(8) -0.0748(5) 0.9214(3)
C34A C -1.6688(8) -0.0286(7) 0.9118(3)
H21A H -1.7071 0.0333 0.8745
C35A C -1.7911(9) -0.0758(7) 0.9581(3)
H22A H -1.9125 -0.0443 0.9511
C36A C -1.4391(9) -0.1656(5) 0.9781(3)
H23A H -1.3186 -0.1975 0.9871
C37A C -1.5721(9) -0.2081(6) 1.0210(3)
H24A H -1.5380 -0.2716 1.0580
O5_2 O 0.7976(5) -0.2479(4) 0.23007(19)
O6_2 O 1.0577(5) -0.0352(3) 0.37267(19)
N1_2 N 1.1425(6) -0.3288(4) 0.3485(2)
Cd1_2 Cd 0.91700(5) 0.84712(3) 0.307320(19)
Cd1_3 Cd -0.08300(5) -0.15288(3) 0.307320(19)
Cd1_4 Cd -1.08300(5) 0.84712(3) 0.307320(19)
Cd1A_2 Cd -0.91700(5) -0.84712(3) 0.692680(19)
Cd1A_3 Cd 0.08300(5) 0.15288(3) 0.692680(19)
Cd1A_4 Cd 1.08300(5) -0.84712(3) 0.692680(19)
O5A_2 O -0.7976(5) 0.2479(4) 0.76993(19)
O6A_2 O -1.0577(5) 0.0352(3) 0.62733(19)
N1A_2 N -1.1425(6) 0.3288(4) 0.6515(2)
loop_
_geom_bond_atom_site_label_1
_geom_bond_atom_site_label_2
_geom_bond_site_symmetry_1
_geom_bond_site_symmetry_2
Cd1 O1 1_555 1_555
Cu1 O6 1_555 1_555
O1 H1 1_555 1_555
O2 Cd1 1_555 1_555
O3 C14 1_555 1_555
O4 C13 1_555 1_555
O5 C14 1_555 1_555
O6 C15 1_555 1_555
O7 H2 1_555 1_555
O8 Cu1 1_555 1_555
O9 C16 1_555 1_555
O10 C17 1_555 1_555
N1 C18 1_555 1_555
N2 Cu1 1_555 1_555
N3 Cd1 1_555 1_555
N4 C35 1_555 1_555
C1 C3 1_555 1_555
C2 C4 1_555 1_555
C3 H3 1_555 1_555
C4 H4 1_555 1_555
C5 C3 1_555 1_555
C6 C4 1_555 1_555
C7 C5 1_555 1_555
C8 C6 1_555 1_555
C9 C7 1_555 1_555
H5 C9 1_555 1_555
C10 C8 1_555 1_555
H6 C10 1_555 1_555
C11 C1 1_555 1_555
H7 C11 1_555 1_555
C12 C2 1_555 1_555
H8 C12 1_555 1_555
C13 O2 1_555 1_555
C14 C6 1_555 1_555
C15 O8 1_555 1_555
C16 O7 1_555 1_555
C17 C1 1_555 1_555
C18 H9 1_555 1_555
C19 C18 1_555 1_555
H10 C19 1_555 1_555
C20 C19 1_555 1_555
C21 C20 1_555 1_555
H11 C21 1_555 1_555
C22 N1 1_555 1_555
H12 C22 1_555 1_555
C23 C20 1_555 1_555
C24 C23 1_555 1_555
H13 C24 1_555 1_555
C25 N2 1_555 1_555
H14 C25 1_555 1_555
C26 C23 1_555 1_555
H15 C26 1_555 1_555
C27 N2 1_555 1_555
H16 C27 1_555 1_555
C28 N3 1_555 1_555
H17 C28 1_555 1_555
C29 C28 1_555 1_555
H18 C29 1_555 1_555
C30 C29 1_555 1_555
C31 C30 1_555 1_555
H19 C31 1_555 1_555
C32 N3 1_555 1_555
H20 C32 1_555 1_555
C33 C30 1_555 1_555
C34 C33 1_555 1_555
H21 C34 1_555 1_555
C35 C34 1_555 1_555
H22 C35 1_555 1_555
C36 C33 1_555 1_555
H23 C36 1_555 1_555
C37 N4 1_555 1_555
H24 C37 1_555 1_555
O2A C13A 1_555 1_555
O3A C14A 1_555 1_555
O4A C13A 1_555 1_555
O5A C14A 1_555 1_555
O6A Cu1 1_555 1_555
O7A H2A 1_555 1_555
O8A Cu1 1_555 1_555
O9A C16A 1_555 1_555
O10A C17A 1_555 1_555
C1A C3A 1_555 1_555
C2A C4A 1_555 1_555
C3A H3A 1_555 1_555
C4A H4A 1_555 1_555
C5A C3A 1_555 1_555
C6A C4A 1_555 1_555
C7A C5A 1_555 1_555
C8A C6A 1_555 1_555
C9A C7A 1_555 1_555
H5A C9A 1_555 1_555
C10A C8A 1_555 1_555
H6A C10A 1_555 1_555
C11A C1A 1_555 1_555
H7A C11A 1_555 1_555
C12A C2A 1_555 1_555
H8A C12A 1_555 1_555
C13A C5A 1_555 1_555
C14A C6A 1_555 1_555
C15A O6A 1_555 1_555
C16A O7A 1_555 1_555
C17A C1A 1_555 1_555
N1A C18A 1_555 1_555
N2A Cu1 1_555 1_555
C18A H9A 1_555 1_555
C19A C18A 1_555 1_555
H10A C19A 1_555 1_555
C20A C19A 1_555 1_555
C21A C20A 1_555 1_555
H11A C21A 1_555 1_555
C22A N1A 1_555 1_555
H12A C22A 1_555 1_555
C23A C20A 1_555 1_555
C24A C23A 1_555 1_555
H13A C24A 1_555 1_555
C25A N2A 1_555 1_555
H14A C25A 1_555 1_555
C26A C23A 1_555 1_555
H15A C26A 1_555 1_555
C27A N2A 1_555 1_555
H16A C27A 1_555 1_555
Cd1A O2A 1_555 1_555
O1A Cd1A 1_555 1_555
H1A O1A 1_555 1_555
N3A Cd1A 1_555 1_555
N4A C35A 1_555 1_555
C28A N3A 1_555 1_555
H17A C28A 1_555 1_555
C29A C28A 1_555 1_555
H18A C29A 1_555 1_555
C30A C29A 1_555 1_555
C31A C30A 1_555 1_555
H19A C31A 1_555 1_555
C32A N3A 1_555 1_555
H20A C32A 1_555 1_555
C33A C30A 1_555 1_555
C34A C33A 1_555 1_555
H21A C34A 1_555 1_555
C35A C34A 1_555 1_555
H22A C35A 1_555 1_555
C36A C33A 1_555 1_555
H23A C36A 1_555 1_555
C37A N4A 1_555 1_555
H24A C37A 1_555 1_555
O5_2 Cd1 1_555 1_555
O6_2 Cd1 1_555 1_555
N1_2 Cd1 1_555 1_555
Cd1_2 O5 1_555 1_555
Cd1_3 O6 1_555 1_555
Cd1_4 N1 1_555 1_555
Cd1A_2 O5A 1_555 1_555
Cd1A_3 O6A 1_555 1_555
Cd1A_4 N1A 1_555 1_555
O5A_2 Cd1A 1_555 1_555
O6A_2 Cd1A 1_555 1_555
N1A_2 Cd1A 1_555 1_555
C2 C17 1_555 1_555
C5 C13 1_555 1_555
C7 C15 1_555 1_555
C8 C16 1_555 1_555
C9 C11 1_555 1_555
C10 C12 1_555 1_555
C21 C22 1_555 1_555
C24 C25 1_555 1_555
C26 C27 1_555 1_555
C31 C32 1_555 1_555
C36 C37 1_555 1_555
O8A C15A 1_555 1_555
C2A C17A 1_555 1_555
C7A C15A 1_555 1_555
C8A C16A 1_555 1_555
C9A C11A 1_555 1_555
C10A C12A 1_555 1_555
C21A C22A 1_555 1_555
C24A C25A 1_555 1_555
C26A C27A 1_555 1_555
C31A C32A 1_555 1_555
C36A C37A 1_555 1_555

#END
