
#######################################################################
#
#                 Cambridge Crystallographic Data Centre
#                                CCDC 
#
#######################################################################
#
# If this CIF has been generated from an entry in the Cambridge 
# Structural Database, then it will include bibliographic, chemical, 
# crystal, experimental, refinement or atomic coordinate data resulting 
# from the CCDC's data processing and validation procedures.
#
#######################################################################

data_DALQEO
_symmetry_cell_setting           monoclinic
_symmetry_space_group_name_H-M   'P 21/c'
_symmetry_Int_Tables_number      14
_space_group_name_Hall           '-P 2ybc'
loop_
_symmetry_equiv_pos_site_id
_symmetry_equiv_pos_as_xyz
1 x,y,z
2 -x,1/2+y,1/2-z
3 -x,-y,-z
4 x,1/2-y,1/2+z
_cell_length_a                   15.4528(10)
_cell_length_b                   7.8242(5)
_cell_length_c                   12.7421(8)
_cell_angle_alpha                90
_cell_angle_beta                 109.4630(10)
_cell_angle_gamma                90
_cell_volume                     1452.56
loop_
_atom_site_label
_atom_site_type_symbol
_atom_site_fract_x
_atom_site_fract_y
_atom_site_fract_z
Bi1 Bi 0.243010(7) -0.302700(13) -0.579780(9)
C1 C 0.4337(2) -0.4823(4) -0.4152(2)
C2 C 0.5193(2) -0.5249(4) -0.3443(2)
H1 H 0.5332 -0.6372 -0.3208
C3 C 0.5847(2) -0.3963(4) -0.3081(2)
H2 H 0.6434 -0.4212 -0.2600
C4 C 0.5609(2) -0.2304(4) -0.3449(3)
C5 C 0.4716(2) -0.1973(4) -0.4128(3)
H3 H 0.4547 -0.0852 -0.4343
C6 C 0.3636(2) -0.6205(4) -0.4677(2)
C7 C 0.6308(2) -0.0909(4) -0.3184(2)
C8 C 0.0713(2) -0.2829(3) -0.4801(2)
C9 C -0.0149(2) -0.2805(4) -0.4695(3)
H4 H -0.0256 -0.3325 -0.4093
C10 C -0.0851(2) -0.1979(4) -0.5516(3)
H5 H -0.1439 -0.1941 -0.5473
C11 C -0.0667(2) -0.1209(4) -0.6403(2)
C12 C 0.0212(2) -0.1340(4) -0.6451(2)
H6 H 0.0337 -0.0850 -0.7050
C13 C 0.1529(2) -0.3643(4) -0.3952(2)
C14 C -0.1379(2) -0.0182(4) -0.7269(2)
N1 N 0.40900(17) -0.3212(3) -0.4484(2)
N2 N 0.08842(17) -0.2140(3) -0.5675(2)
O1 O 0.29139(15) -0.5750(3) -0.54611(18)
O2 O 0.38255(17) -0.7683(3) -0.4358(2)
O3 O 0.61510(17) 0.0552(3) -0.3504(2)
O4 O 0.71298(17) -0.1470(3) -0.2590(2)
H7 H 0.752(2) -0.072(4) -0.247(3)
O5 O 0.22627(15) -0.3751(3) -0.42004(17)
O6 O 0.14727(15) -0.4184(3) -0.30660(17)
O7 O -0.20692(14) 0.0346(3) -0.70836(18)
O8 O -0.11978(15) 0.0165(3) -0.81515(17)
O9 O 0.26423(18) -0.0266(3) -0.4768(2)
H8 H 0.247(3) -0.027(6) -0.423(3)
H9 H 0.299(3) 0.055(4) -0.466(4)
Bi1A Bi -0.243010(7) 0.197300(13) -0.920220(9)
O7A O 0.20692(14) -0.4654(3) -0.79164(18)
O8A O 0.11978(15) -0.4835(3) -0.68485(17)
loop_
_geom_bond_atom_site_label_1
_geom_bond_atom_site_label_2
_geom_bond_site_symmetry_1
_geom_bond_site_symmetry_2
Bi1 N1 1_555 1_555
C1 C2 1_555 1_555
C2 H1 1_555 1_555
C3 C2 1_555 1_555
H2 C3 1_555 1_555
C4 C3 1_555 1_555
C5 C4 1_555 1_555
H3 C5 1_555 1_555
C6 C1 1_555 1_555
C7 C4 1_555 1_555
C8 C9 1_555 1_555
C9 H4 1_555 1_555
C10 C9 1_555 1_555
H5 C10 1_555 1_555
C11 C10 1_555 1_555
C12 C11 1_555 1_555
H6 C12 1_555 1_555
C13 C8 1_555 1_555
C14 C11 1_555 1_555
N1 C1 1_555 1_555
N2 Bi1 1_555 1_555
O1 Bi1 1_555 1_555
O2 C6 1_555 1_555
O3 C7 1_555 1_555
O4 C7 1_555 1_555
H7 O4 1_555 1_555
O5 Bi1 1_555 1_555
O6 C13 1_555 1_555
O7 C14 1_555 1_555
O8 C14 1_555 1_555
O9 Bi1 1_555 1_555
H8 O9 1_555 1_555
H9 O9 1_555 1_555
Bi1A O7 1_555 1_555
O7A Bi1 1_555 1_555
O8A Bi1 1_555 1_555
C5 N1 1_555 1_555
C6 O1 1_555 1_555
C8 N2 1_555 1_555
C12 N2 1_555 1_555
C13 O5 1_555 1_555
O8 Bi1A 1_555 1_555

#END
