
#######################################################################
#
#                 Cambridge Crystallographic Data Centre
#                                CCDC 
#
#######################################################################
#
# If this CIF has been generated from an entry in the Cambridge 
# Structural Database, then it will include bibliographic, chemical, 
# crystal, experimental, refinement or atomic coordinate data resulting 
# from the CCDC's data processing and validation procedures.
#
#######################################################################

data_DALQUD
_symmetry_cell_setting           triclinic
_symmetry_space_group_name_H-M   'P -1'
_symmetry_Int_Tables_number      2
_space_group_name_Hall           '-P 1'
loop_
_symmetry_equiv_pos_site_id
_symmetry_equiv_pos_as_xyz
1 x,y,z
2 -x,-y,-z
_cell_length_a                   5.835(5)
_cell_length_b                   5.977(5)
_cell_length_c                   12.413(10)
_cell_angle_alpha                83.685(14)
_cell_angle_beta                 78.448(14)
_cell_angle_gamma                77.818(12)
_cell_volume                     413.555
loop_
_atom_site_label
_atom_site_type_symbol
_atom_site_fract_x
_atom_site_fract_y
_atom_site_fract_z
Cu1 Cu 0.21048(12) 0.77858(12) 1.00846(6)
P1 P 0.3097(3) 0.3142(3) 0.92631(13)
O1 O 0.1980(7) 0.5602(7) 0.9096(3)
O2 O 0.4435(7) 0.2652(7) 1.0191(3)
O3 O 0.1253(7) 0.1479(7) 0.9346(3)
O4 O 0.7459(7) 0.0873(6) 0.8485(3)
H1 H 0.7032 -0.0267 0.8887
C1 C 0.5483(11) 0.2143(10) 0.8054(5)
C2 C 0.6282(10) 0.4295(9) 0.7400(5)
H2 H 0.6995 0.5074 0.7854
H3 H 0.4918 0.5353 0.7183
C3 C 0.8131(10) 0.3499(10) 0.6360(5)
H4 H 0.8627 0.4838 0.5941
H5 H 0.9528 0.2536 0.6596
C4 C 0.7236(11) 0.2195(10) 0.5616(5)
H6 H 0.8490 0.1699 0.5001
H7 H 0.5902 0.3157 0.5329
C5 C 0.6440(11) 0.0085(10) 0.6321(5)
H8 H 0.5813 -0.0779 0.5870
H9 H 0.7816 -0.0906 0.6562
C6 C 0.4559(10) 0.0779(10) 0.7320(5)
H10 H 0.4115 -0.0583 0.7737
H11 H 0.3148 0.1705 0.7082
O2A O 0.5565(7) 0.7348(7) 0.9809(3)
O3_2 O 0.1253(7) 1.1479(7) 0.9346(3)
O3A O -0.1253(7) 0.8521(7) 1.0654(3)
O4A O 0.2541(7) 0.9127(6) 1.1515(3)
Cu1A Cu 0.78952(12) 0.22142(12) 0.99154(6)
Cu1_2 Cu 0.21048(12) -0.22142(12) 1.00846(6)
Cu1A_2 Cu -0.21048(12) 0.22142(12) 0.99154(6)
H1A H 0.2968 1.0267 1.1113
loop_
_geom_bond_atom_site_label_1
_geom_bond_atom_site_label_2
_geom_bond_site_symmetry_1
_geom_bond_site_symmetry_2
Cu1 O1 1_555 1_555
P1 O1 1_555 1_555
O2 P1 1_555 1_555
O3 P1 1_555 1_555
O4 H1 1_555 1_555
C1 P1 1_555 1_555
C2 C1 1_555 1_555
H2 C2 1_555 1_555
H3 C2 1_555 1_555
C3 C2 1_555 1_555
H4 C3 1_555 1_555
H5 C3 1_555 1_555
C4 C3 1_555 1_555
H6 C4 1_555 1_555
H7 C4 1_555 1_555
C5 C4 1_555 1_555
H8 C5 1_555 1_555
H9 C5 1_555 1_555
C6 C1 1_555 1_555
H10 C6 1_555 1_555
H11 C6 1_555 1_555
O2A Cu1 1_555 1_555
O3_2 Cu1 1_555 1_555
O3A Cu1 1_555 1_555
O4A Cu1 1_555 1_555
Cu1A O2 1_555 1_555
Cu1_2 O3 1_555 1_555
Cu1A_2 O3 1_555 1_555
H1A O4A 1_555 1_555
O4 C1 1_555 1_555
O4 Cu1A 1_555 1_555
C5 C6 1_555 1_555

#END
