
#######################################################################
#
#                 Cambridge Crystallographic Data Centre
#                                CCDC 
#
#######################################################################
#
# If this CIF has been generated from an entry in the Cambridge 
# Structural Database, then it will include bibliographic, chemical, 
# crystal, experimental, refinement or atomic coordinate data resulting 
# from the CCDC's data processing and validation procedures.
#
#######################################################################

data_DALRAK
_symmetry_cell_setting           monoclinic
_symmetry_space_group_name_H-M   'P 21/n'
_symmetry_Int_Tables_number      14
_space_group_name_Hall           '-P 2yn'
loop_
_symmetry_equiv_pos_site_id
_symmetry_equiv_pos_as_xyz
1 x,y,z
2 1/2+x,1/2-y,1/2+z
3 -x,-y,-z
4 1/2-x,1/2+y,1/2-z
_cell_length_a                   6.0115(16)
_cell_length_b                   8.630(2)
_cell_length_c                   8.462(2)
_cell_angle_alpha                90
_cell_angle_beta                 97.693(4)
_cell_angle_gamma                90
_cell_volume                     435.051
loop_
_atom_site_label
_atom_site_type_symbol
_atom_site_fract_x
_atom_site_fract_y
_atom_site_fract_z
Ag1 Ag 0.0576(2) -0.34013(17) -0.56190(18)
Ag2 Ag -0.4943(2) -0.42944(17) -0.32637(18)
P1 P 0.0438(6) -0.3200(5) -0.1825(5)
O1 O -0.1013(19) -0.3927(13) -0.3232(13)
O2 O 0.270(2) -0.2668(14) -0.2356(14)
O3 O -0.073(2) -0.1841(13) -0.1144(14)
C1 C 0.107(3) -0.4630(19) -0.0286(19)
H1 H 0.1961 -0.5447 -0.0680
H2 H 0.1974 -0.4153 0.0620
C1B C -0.107(3) -0.5370(19) 0.0286(19)
P1B P -0.0438(6) -0.6800(5) 0.1825(5)
O1B O 0.1013(19) -0.6073(13) 0.3232(13)
O2B O -0.270(2) -0.7332(14) 0.2356(14)
O3B O 0.073(2) -0.8159(13) 0.1144(14)
H1B H -0.1961 -0.4553 0.0680
H2B H -0.1974 -0.5847 -0.0620
Ag1B Ag -0.0576(2) -0.65987(17) 0.56190(18)
Ag2B Ag 0.4943(2) -0.57056(17) 0.32637(18)
Ag1B_2 Ag -0.0576(2) -0.65987(17) -0.43810(18)
Ag2_2 Ag 0.5057(2) -0.42944(17) -0.32637(18)
Ag2A Ag 0.0057(2) -0.07056(17) -0.82637(18)
O1B_2 O 0.1013(19) -0.6073(13) -0.6768(13)
O2A O -0.230(2) -0.2332(14) -0.7356(14)
O3A O 0.427(2) -0.3159(13) -0.6144(14)
Ag1_2 Ag -0.9424(2) -0.34013(17) -0.56190(18)
Ag1A Ag -0.4424(2) -0.15987(17) -0.06190(18)
Ag2B_2 Ag -0.5057(2) -0.57056(17) -0.67363(18)
O2_2 O -0.730(2) -0.2668(14) -0.2356(14)
O3C O -0.427(2) -0.6841(13) -0.3856(14)
Ag1A_2 Ag 0.5576(2) -0.15987(17) -0.06190(18)
Ag2C Ag -0.0057(2) 0.07056(17) -0.17363(18)
Ag1_3 Ag 0.0576(2) -0.34013(17) 0.43810(18)
Ag1C Ag -0.5576(2) -0.84013(17) 0.06190(18)
Ag2B_3 Ag -0.5057(2) -0.57056(17) 0.32637(18)
Ag1C_2 Ag 0.4424(2) -0.84013(17) 0.06190(18)
Ag2A_2 Ag 0.0057(2) -1.07056(17) 0.17363(18)
Ag2C_2 Ag -0.0057(2) -0.92944(17) 0.82637(18)
O1_2 O -0.1013(19) -0.3927(13) 0.6768(13)
O2C O 0.230(2) -0.7668(14) 0.7356(14)
O3C_2 O -0.427(2) -0.6841(13) 0.6144(14)
Ag1B_3 Ag 0.9424(2) -0.65987(17) 0.56190(18)
Ag2_3 Ag 0.5057(2) -0.42944(17) 0.67363(18)
O2B_2 O 0.730(2) -0.7332(14) 0.2356(14)
O3A_2 O 0.427(2) -0.3159(13) 0.3856(14)
loop_
_geom_bond_atom_site_label_1
_geom_bond_atom_site_label_2
_geom_bond_site_symmetry_1
_geom_bond_site_symmetry_2
Ag1 O1 1_555 1_555
Ag2 O1 1_555 1_555
P1 O1 1_555 1_555
O1 Ag1B_2 1_555 1_555
O2 P1 1_555 1_555
O3 P1 1_555 1_555
C1 P1 1_555 1_555
H1 C1 1_555 1_555
H2 C1 1_555 1_555
C1B C1 1_555 1_555
P1B C1B 1_555 1_555
O1B P1B 1_555 1_555
O2B P1B 1_555 1_555
O3B P1B 1_555 1_555
H1B C1B 1_555 1_555
H2B C1B 1_555 1_555
Ag1B O1B 1_555 1_555
Ag2B O1B 1_555 1_555
Ag1B_2 Ag1 1_555 1_555
Ag2_2 Ag1 1_555 1_555
Ag2A Ag1 1_555 1_555
O1B_2 Ag1 1_555 1_555
O2A Ag1 1_555 1_555
O3A Ag1 1_555 1_555
Ag1_2 Ag2 1_555 1_555
Ag1A Ag2 1_555 1_555
Ag2B_2 Ag2 1_555 1_555
O2_2 Ag2 1_555 1_555
O3C Ag2 1_555 1_555
Ag1A_2 O2 1_555 1_555
Ag2C O3 1_555 1_555
Ag1_3 O1B 1_555 1_555
Ag1C O2B 1_555 1_555
Ag2B_3 O2B 1_555 1_555
Ag1C_2 O3B 1_555 1_555
Ag2A_2 O3B 1_555 1_555
Ag2C_2 Ag1B 1_555 1_555
O1_2 Ag1B 1_555 1_555
O2C Ag1B 1_555 1_555
O3C_2 Ag1B 1_555 1_555
Ag1B_3 Ag2B 1_555 1_555
Ag2_3 Ag2B 1_555 1_555
O2B_2 Ag2B 1_555 1_555
O3A_2 Ag2B 1_555 1_555
O2 Ag2_2 1_555 1_555
O3 Ag1A 1_555 1_555
Ag1B Ag1_3 1_555 1_555
Ag1B Ag2B_3 1_555 1_555
Ag2B Ag1C_2 1_555 1_555
Ag1B_2 Ag2B_2 1_555 1_555
Ag1B_2 O1B_2 1_555 1_555
Ag1B_2 O3C 1_555 1_555
Ag2_2 Ag1A_2 1_555 1_555
Ag2A O2A 1_555 1_555
Ag1A O2_2 1_555 1_555
Ag1_3 Ag2_3 1_555 1_555
Ag1_3 O1_2 1_555 1_555
Ag1_3 O3A_2 1_555 1_555
Ag1C Ag2B_3 1_555 1_555
Ag1C_2 O2B_2 1_555 1_555
Ag2C_2 O2C 1_555 1_555

#END
