
#######################################################################
#
#                 Cambridge Crystallographic Data Centre
#                                CCDC 
#
#######################################################################
#
# If this CIF has been generated from an entry in the Cambridge 
# Structural Database, then it will include bibliographic, chemical, 
# crystal, experimental, refinement or atomic coordinate data resulting 
# from the CCDC's data processing and validation procedures.
#
#######################################################################

data_DALSIU
_symmetry_cell_setting           monoclinic
_symmetry_space_group_name_H-M   'P 21/n'
_symmetry_Int_Tables_number      14
_space_group_name_Hall           '-P 2yn'
loop_
_symmetry_equiv_pos_site_id
_symmetry_equiv_pos_as_xyz
1 x,y,z
2 1/2-x,1/2+y,1/2-z
3 -x,-y,-z
4 1/2+x,1/2-y,1/2+z
_cell_length_a                   8.232(3)
_cell_length_b                   15.432(6)
_cell_length_c                   10.804(4)
_cell_angle_alpha                90
_cell_angle_beta                 98.440(7)
_cell_angle_gamma                90
_cell_volume                     1357.64
loop_
_atom_site_label
_atom_site_type_symbol
_atom_site_fract_x
_atom_site_fract_y
_atom_site_fract_z
Co1 Co 0.13467(4) 0.04914(2) 0.96111(3)
O1 O -0.1934(3) 0.21013(14) 1.4936(2)
H1 H -0.2151 0.2569 1.5275
O2 O 0.2334(2) 0.13278(12) 1.10625(17)
O3 O 0.0398(2) 0.04748(12) 1.15816(17)
O4 O 0.4448(2) 0.36822(12) 1.41331(17)
O5 O 0.2427(2) 0.43968(12) 1.48840(17)
N1 N 0.4508(3) 0.08576(16) 0.6991(2)
N2 N 0.2545(3) 0.07876(15) 0.8160(2)
C1 C 0.5609(5) 0.0230(5) 0.5237(6)
H2 H 0.5639 0.0712 0.4636
H3 H 0.6581 -0.0132 0.5157
C2 C 0.5998(4) 0.0637(2) 0.6465(3)
H4 H 0.6645 0.1170 0.6389
H5 H 0.6679 0.0237 0.7041
C3 C 0.3393(4) 0.1481(2) 0.6575(3)
H6 H 0.3453 0.1875 0.5907
C4 C 0.2181(4) 0.1433(2) 0.7296(3)
H7 H 0.1230 0.1789 0.7214
C5 C 0.3957(3) 0.04566(18) 0.7944(2)
H8 H 0.4510 -0.0007 0.8407
C6 C 0.3010(3) 0.37452(16) 1.4394(2)
C7 C 0.1894(3) 0.29860(16) 1.4085(2)
C8 C 0.0502(3) 0.29002(17) 1.4677(2)
H9 H 0.0284 0.3314 1.5283
C9 C -0.0562(3) 0.22061(18) 1.4378(3)
C10 C -0.0256(3) 0.16095(18) 1.3479(3)
H10 H -0.0977 0.1132 1.3282
C11 C 0.1105(3) 0.17095(16) 1.2867(2)
C12 C 0.2199(3) 0.23873(17) 1.3185(2)
H11 H 0.3152 0.2441 1.2790
C13 C 0.1297(3) 0.11267(17) 1.1789(2)
Co1B Co -0.13467(4) -0.04914(2) 1.03889(3)
Co1C Co 0.63467(4) 0.45086(2) 1.46111(3)
Co1A Co 0.36533(4) 0.54914(2) 1.53889(3)
Co1B_2 Co 0.86533(4) -0.04914(2) 0.03889(3)
Co1A_2 Co -0.63467(4) -0.45086(2) 0.53889(3)
Co1C_2 Co -0.36533(4) -0.54914(2) 0.46111(3)
O1B O 0.1934(3) -0.21013(14) 0.5064(2)
H1B H 0.2151 -0.2569 0.4725
O2B O -0.2334(2) -0.13278(12) 0.89375(17)
O3B O -0.0398(2) -0.04748(12) 0.84184(17)
O4B O -0.4448(2) -0.36822(12) 0.58669(17)
O4C O -0.0552(2) 0.13178(12) 0.91331(17)
O4A O 0.0552(2) -0.13178(12) 1.08669(17)
O5B O -0.2427(2) -0.43968(12) 0.51160(17)
O5A O 0.2573(2) -0.06032(12) 1.01160(17)
O5C O -0.2573(2) 0.06032(12) 0.98840(17)
N1B N 0.5492(3) -0.08576(16) 0.3009(2)
N2B N 0.7455(3) -0.07876(15) 0.1840(2)
N2B_2 N -0.2545(3) -0.07876(15) 1.1840(2)
C1B C 0.4391(5) -0.0230(5) 0.4763(6)
H2B H 0.4361 -0.0712 0.5364
H3B H 0.3419 0.0132 0.4843
C2B C 0.4002(4) -0.0637(2) 0.3535(3)
H4B H 0.3355 -0.1170 0.3611
H5B H 0.3321 -0.0237 0.2959
C3B C 0.6607(4) -0.1481(2) 0.3425(3)
H6B H 0.6547 -0.1875 0.4093
C4B C 0.7819(4) -0.1433(2) 0.2704(3)
H7B H 0.8770 -0.1789 0.2786
C5B C 0.6043(3) -0.04566(18) 0.2056(2)
H8B H 0.5490 0.0007 0.1593
C6B C -0.3010(3) -0.37452(16) 0.5606(2)
C7B C -0.1894(3) -0.29860(16) 0.5915(2)
C8B C -0.0502(3) -0.29002(17) 0.5323(2)
H9B H -0.0284 -0.3314 0.4717
C9B C 0.0562(3) -0.22061(18) 0.5622(3)
C10B C 0.0256(3) -0.16095(18) 0.6521(3)
H10B H 0.0977 -0.1132 0.6718
C11B C -0.1105(3) -0.17095(16) 0.7133(2)
C12B C -0.2199(3) -0.23873(17) 0.6815(2)
H11B H -0.3152 -0.2441 0.7210
C13B C -0.1297(3) -0.11267(17) 0.8211(2)
loop_
_geom_bond_atom_site_label_1
_geom_bond_atom_site_label_2
_geom_bond_site_symmetry_1
_geom_bond_site_symmetry_2
Co1 O2 1_555 1_555
O1 H1 1_555 1_555
O2 C13 1_555 1_555
O3 Co1 1_555 1_555
O4 C6 1_555 1_555
O5 C6 1_555 1_555
N1 C2 1_555 1_555
N2 Co1 1_555 1_555
C1 H2 1_555 1_555
H3 C1 1_555 1_555
C2 C1 1_555 1_555
H4 C2 1_555 1_555
H5 C2 1_555 1_555
C3 N1 1_555 1_555
H6 C3 1_555 1_555
C4 N2 1_555 1_555
H7 C4 1_555 1_555
C5 N1 1_555 1_555
H8 C5 1_555 1_555
C6 C7 1_555 1_555
C7 C8 1_555 1_555
C8 H9 1_555 1_555
C9 O1 1_555 1_555
C10 C9 1_555 1_555
H10 C10 1_555 1_555
C11 C10 1_555 1_555
C12 C7 1_555 1_555
H11 C12 1_555 1_555
C13 O3 1_555 1_555
Co1B O3 1_555 1_555
Co1C O4 1_555 1_555
Co1A O5 1_555 1_555
Co1B_2 N2B 1_555 1_555
Co1A_2 O4B 1_555 1_555
Co1C_2 O5B 1_555 1_555
O1B H1B 1_555 1_555
O2B Co1B 1_555 1_555
O3B Co1 1_555 1_555
O4B C6B 1_555 1_555
O4C Co1 1_555 1_555
O4A Co1B 1_555 1_555
O5B C6B 1_555 1_555
O5A Co1 1_555 1_555
O5C Co1B 1_555 1_555
N1B C2B 1_555 1_555
N2B C4B 1_555 1_555
N2B_2 Co1B 1_555 1_555
C1B C1 1_555 1_555
H2B C1B 1_555 1_555
H3B C1B 1_555 1_555
C2B C1B 1_555 1_555
H4B C2B 1_555 1_555
H5B C2B 1_555 1_555
C3B N1B 1_555 1_555
H6B C3B 1_555 1_555
C4B C3B 1_555 1_555
H7B C4B 1_555 1_555
C5B N1B 1_555 1_555
H8B C5B 1_555 1_555
C6B C7B 1_555 1_555
C7B C8B 1_555 1_555
C8B H9B 1_555 1_555
C9B O1B 1_555 1_555
C10B C9B 1_555 1_555
H10B C10B 1_555 1_555
C11B C10B 1_555 1_555
C12B C7B 1_555 1_555
H11B C12B 1_555 1_555
C13B O2B 1_555 1_555
N2 C5 1_555 1_555
C3 C4 1_555 1_555
C8 C9 1_555 1_555
C11 C12 1_555 1_555
C11 C13 1_555 1_555
Co1B O3B 1_555 1_555
O3B C13B 1_555 1_555
N2B C5B 1_555 1_555
C8B C9B 1_555 1_555
C11B C12B 1_555 1_555
C11B C13B 1_555 1_555

#END
