
#######################################################################
#
#                 Cambridge Crystallographic Data Centre
#                                CCDC 
#
#######################################################################
#
# If this CIF has been generated from an entry in the Cambridge 
# Structural Database, then it will include bibliographic, chemical, 
# crystal, experimental, refinement or atomic coordinate data resulting 
# from the CCDC's data processing and validation procedures.
#
#######################################################################

data_DALSEQ
_symmetry_cell_setting           monoclinic
_symmetry_space_group_name_H-M   'P 21/n'
_symmetry_Int_Tables_number      14
_space_group_name_Hall           '-P 2yn'
loop_
_symmetry_equiv_pos_site_id
_symmetry_equiv_pos_as_xyz
1 x,y,z
2 1/2-x,1/2+y,1/2-z
3 -x,-y,-z
4 1/2+x,1/2-y,1/2+z
_cell_length_a                   8.238
_cell_length_b                   15.232
_cell_length_c                   10.754
_cell_angle_alpha                90
_cell_angle_beta                 97.902(4)
_cell_angle_gamma                90
_cell_volume                     1336.61
loop_
_atom_site_label
_atom_site_type_symbol
_atom_site_fract_x
_atom_site_fract_y
_atom_site_fract_z
Ni1 Ni -0.12411(4) 0.545585(19) 0.54190(3)
O1 O 0.2001(3) 0.70968(14) 0.0095(2)
H1 H 0.2223 0.7573 -0.0238
O2 O -0.2281(2) 0.62923(12) 0.39869(16)
O3 O -0.0314(2) 0.54462(11) 0.34715(17)
O4 O -0.2398(2) 0.93990(11) 0.01543(17)
O5 O -0.4447(2) 0.86391(11) 0.08453(16)
N1 N -0.4457(3) 0.58412(16) 0.7977(2)
N2 N -0.2485(3) 0.57747(14) 0.68032(19)
C1 C -0.5608(5) 0.5189(6) 0.9719(6)
H2 H -0.5867 0.5643 1.0322
H3 H -0.6492 0.4747 0.9699
C2 C -0.5954(4) 0.5623(2) 0.8506(3)
H4 H -0.6578 0.6169 0.8603
H5 H -0.6647 0.5235 0.7916
C3 C -0.3333(4) 0.6466(2) 0.8409(3)
H6 H -0.3392 0.6858 0.9087
C4 C -0.2120(4) 0.6420(2) 0.7688(3)
H7 H -0.1165 0.6777 0.7778
C5 C -0.3900(3) 0.54440(17) 0.7012(2)
H8 H -0.4455 0.4981 0.6537
C6 C -0.2996(3) 0.87276(16) 0.0615(2)
C7 C -0.1860(3) 0.79649(16) 0.0928(2)
C8 C -0.0461(3) 0.78861(16) 0.0346(2)
H9 H -0.0241 0.8308 -0.0260
C9 C 0.0613(3) 0.71952(17) 0.0645(3)
C10 C 0.0318(3) 0.65865(17) 0.1554(3)
H10 H 0.1051 0.6110 0.1758
C11 C -0.1057(3) 0.66813(16) 0.2163(2)
C12 C -0.2167(3) 0.73569(16) 0.1837(2)
H11 H -0.3128 0.7404 0.2231
C13 C -0.1240(3) 0.61001(16) 0.3259(2)
Ni1B Ni 0.12411(4) 0.454415(19) 0.45810(3)
Ni1A Ni -0.37589(4) 1.045585(19) -0.04190(3)
Ni1C Ni -0.62411(4) 0.954415(19) 0.04190(3)
Ni1B_2 Ni -0.87589(4) 0.454415(19) 1.45810(3)
Ni1C_2 Ni 0.37589(4) -0.045585(19) 1.04190(3)
Ni1A_2 Ni 0.62411(4) 0.045585(19) 0.95810(3)
O1B O -0.2001(3) 0.29032(14) 0.9905(2)
H1B H -0.2223 0.2427 1.0238
O2B O 0.2281(2) 0.37077(12) 0.60131(16)
O3B O 0.0314(2) 0.45538(11) 0.65285(17)
O4B O 0.2398(2) 0.06010(11) 0.98457(17)
O4A O -0.2602(2) 0.43990(11) 0.48457(17)
O4C O 0.2602(2) 0.56010(11) 0.51543(17)
O5B O 0.4447(2) 0.13609(11) 0.91547(16)
O5C O 0.0553(2) 0.63609(11) 0.58453(16)
O5A O -0.0553(2) 0.36391(11) 0.41547(16)
N1B N -0.5543(3) 0.41588(16) 1.2023(2)
N2B N -0.7515(3) 0.42253(14) 1.31968(19)
N2B_2 N 0.2485(3) 0.42253(14) 0.31968(19)
C1B C -0.4392(5) 0.4811(6) 1.0281(6)
H2B H -0.4133 0.4357 0.9678
H3B H -0.3508 0.5253 1.0301
C2B C -0.4046(4) 0.4377(2) 1.1494(3)
H4B H -0.3422 0.3831 1.1397
H5B H -0.3353 0.4765 1.2084
C3B C -0.6667(4) 0.3534(2) 1.1591(3)
H6B H -0.6608 0.3142 1.0913
C4B C -0.7880(4) 0.3580(2) 1.2312(3)
H7B H -0.8835 0.3223 1.2222
C5B C -0.6100(3) 0.45560(17) 1.2988(2)
H8B H -0.5545 0.5019 1.3463
C6B C 0.2996(3) 0.12724(16) 0.9385(2)
C7B C 0.1860(3) 0.20351(16) 0.9072(2)
C8B C 0.0461(3) 0.21139(16) 0.9654(2)
H9B H 0.0241 0.1692 1.0260
C9B C -0.0613(3) 0.28048(17) 0.9355(3)
C10B C -0.0318(3) 0.34135(17) 0.8446(3)
H10B H -0.1051 0.3890 0.8242
C11B C 0.1057(3) 0.33187(16) 0.7837(2)
C12B C 0.2167(3) 0.26431(16) 0.8163(2)
H11B H 0.3128 0.2596 0.7769
C13B C 0.1240(3) 0.38999(16) 0.6741(2)
loop_
_geom_bond_atom_site_label_1
_geom_bond_atom_site_label_2
_geom_bond_site_symmetry_1
_geom_bond_site_symmetry_2
Ni1 O2 1_555 1_555
O1 H1 1_555 1_555
O2 C13 1_555 1_555
O3 Ni1 1_555 1_555
O4 C6 1_555 1_555
O5 C6 1_555 1_555
N1 C2 1_555 1_555
N2 Ni1 1_555 1_555
C1 H2 1_555 1_555
H3 C1 1_555 1_555
C2 C1 1_555 1_555
H4 C2 1_555 1_555
H5 C2 1_555 1_555
C3 N1 1_555 1_555
H6 C3 1_555 1_555
C4 N2 1_555 1_555
H7 C4 1_555 1_555
C5 N1 1_555 1_555
H8 C5 1_555 1_555
C6 C7 1_555 1_555
C7 C8 1_555 1_555
C8 H9 1_555 1_555
C9 O1 1_555 1_555
C10 C9 1_555 1_555
H10 C10 1_555 1_555
C11 C10 1_555 1_555
C12 C7 1_555 1_555
H11 C12 1_555 1_555
C13 O3 1_555 1_555
Ni1B O3 1_555 1_555
Ni1A O4 1_555 1_555
Ni1C O5 1_555 1_555
Ni1B_2 N2B 1_555 1_555
Ni1C_2 O4B 1_555 1_555
Ni1A_2 O5B 1_555 1_555
O1B H1B 1_555 1_555
O2B Ni1B 1_555 1_555
O3B Ni1 1_555 1_555
O4B C6B 1_555 1_555
O4A Ni1 1_555 1_555
O4C Ni1B 1_555 1_555
O5B C6B 1_555 1_555
O5C Ni1 1_555 1_555
O5A Ni1B 1_555 1_555
N1B C2B 1_555 1_555
N2B C4B 1_555 1_555
N2B_2 Ni1B 1_555 1_555
C1B C1 1_555 1_555
H2B C1B 1_555 1_555
H3B C1B 1_555 1_555
C2B C1B 1_555 1_555
H4B C2B 1_555 1_555
H5B C2B 1_555 1_555
C3B N1B 1_555 1_555
H6B C3B 1_555 1_555
C4B C3B 1_555 1_555
H7B C4B 1_555 1_555
C5B N1B 1_555 1_555
H8B C5B 1_555 1_555
C6B C7B 1_555 1_555
C7B C8B 1_555 1_555
C8B H9B 1_555 1_555
C9B O1B 1_555 1_555
C10B C9B 1_555 1_555
H10B C10B 1_555 1_555
C11B C10B 1_555 1_555
C12B C7B 1_555 1_555
H11B C12B 1_555 1_555
C13B O2B 1_555 1_555
N2 C5 1_555 1_555
C3 C4 1_555 1_555
C8 C9 1_555 1_555
C11 C12 1_555 1_555
C11 C13 1_555 1_555
Ni1B O3B 1_555 1_555
O3B C13B 1_555 1_555
N2B C5B 1_555 1_555
C8B C9B 1_555 1_555
C11B C12B 1_555 1_555
C11B C13B 1_555 1_555

#END
