
#######################################################################
#
#                 Cambridge Crystallographic Data Centre
#                                CCDC 
#
#######################################################################
#
# If this CIF has been generated from an entry in the Cambridge 
# Structural Database, then it will include bibliographic, chemical, 
# crystal, experimental, refinement or atomic coordinate data resulting 
# from the CCDC's data processing and validation procedures.
#
#######################################################################

data_DALTOA
_symmetry_cell_setting           monoclinic
_symmetry_space_group_name_H-M   'P 21/c'
_symmetry_Int_Tables_number      14
_space_group_name_Hall           '-P 2ybc'
loop_
_symmetry_equiv_pos_site_id
_symmetry_equiv_pos_as_xyz
1 x,y,z
2 x,1/2-y,1/2+z
3 -x,-y,-z
4 -x,1/2+y,1/2-z
_cell_length_a                   9.5667(6)
_cell_length_b                   24.3911(15)
_cell_length_c                   14.0448(9)
_cell_angle_alpha                90
_cell_angle_beta                 109.245(2)
_cell_angle_gamma                90
_cell_volume                     3094.11
loop_
_atom_site_label
_atom_site_type_symbol
_atom_site_fract_x
_atom_site_fract_y
_atom_site_fract_z
La1 La 0.776395(14) 0.003732(5) 0.014129(9)
C1 C 0.5824(3) -0.06140(11) -0.2342(2)
H1 H 0.5003 -0.0561 -0.2950
H2 H 0.5690 -0.0949 -0.2023
H3 H 0.6724 -0.0634 -0.2501
C2 C 1.0524(3) -0.03260(11) 0.2585(2)
H4 H 1.1147 -0.0619 0.2942
H5 H 0.9854 -0.0222 0.2933
H6 H 1.1126 -0.0017 0.2548
O1 O 0.55947(19) 0.05910(7) -0.00273(12)
O2 O 0.58433(19) 0.08057(7) -0.24286(13)
O3 O 1.05536(17) 0.04865(6) 0.05650(12)
O4 O 0.59046(19) -0.01639(6) -0.16717(12)
O5 O 0.96934(18) -0.05052(6) 0.15811(12)
O6 O 0.70717(18) -0.00140(6) 0.17916(12)
H7 H 0.6184 0.0045 0.1657
O7 O 0.89956(18) 0.08394(6) 0.12557(13)
O8 O 0.78990(18) 0.08048(6) -0.10839(12)
O9 O 0.33449(18) 0.08810(6) -0.01400(12)
O11 O 0.5335(2) 0.42325(7) -0.01156(15)
H9 H 0.4552 0.4401 -0.0244
O12 O 1.3052(2) 0.39483(6) 0.23367(14)
H10 H 1.3932 0.3947 0.2392
O13 O 0.8867(2) 0.42404(7) -0.16206(14)
H11 H 0.8244 0.4373 -0.2118
C4 C 0.4669(2) 0.09698(9) -0.00782(16)
C5 C 0.5201(3) 0.15445(9) -0.00422(17)
H15 H 0.6211 0.1613 0.0140
C6 C 0.4252(3) 0.19618(9) -0.02672(17)
H16 H 0.3255 0.1869 -0.0453
C7 C 0.4582(3) 0.25485(9) -0.02591(18)
C8 C 0.6013(3) 0.27659(10) 0.01402(19)
H17 H 0.6816 0.2530 0.0385
C9 C 0.6248(3) 0.33249(10) 0.0176(2)
H18 H 0.7203 0.3464 0.0442
C10 C 0.5054(3) 0.36793(10) -0.01868(19)
C11 C 0.3640(3) 0.34769(10) -0.0607(2)
H19 H 0.2847 0.3715 -0.0873
C12 C 0.3407(3) 0.29151(10) -0.06314(19)
H20 H 0.2448 0.2780 -0.0901
C13 C 1.0129(3) 0.08864(9) 0.09962(17)
C14 C 1.0982(3) 0.14035(9) 0.11596(18)
H21 H 1.1788 0.1435 0.0932
C15 C 1.0607(3) 0.18266(9) 0.16301(17)
H22 H 0.9814 0.1770 0.1863
C16 C 1.1300(3) 0.23690(9) 0.18220(17)
C17 C 1.2600(3) 0.24977(9) 0.16189(19)
H23 H 1.3077 0.2227 0.1375
C18 C 1.3184(3) 0.30223(10) 0.17757(19)
H24 H 1.4032 0.3104 0.1619
C19 C 1.2505(3) 0.34260(9) 0.21658(18)
C20 C 1.1222(3) 0.33068(9) 0.23804(19)
H25 H 1.0763 0.3576 0.2642
C21 C 1.0632(3) 0.27848(9) 0.22014(18)
H26 H 0.9764 0.2709 0.2338
C22 C 0.6950(3) 0.10458(10) -0.18220(19)
C23 C 0.7135(3) 0.16369(10) -0.1992(2)
H27 H 0.6592 0.1784 -0.2616
C24 C 0.8018(3) 0.19688(10) -0.13185(19)
H28 H 0.8602 0.1809 -0.0718
C25 C 0.8178(3) 0.25631(10) -0.14144(18)
C26 C 0.9298(3) 0.28442(11) -0.06888(19)
H29 H 0.9917 0.2652 -0.0139
C27 C 0.9520(3) 0.34007(11) -0.0760(2)
H30 H 1.0272 0.3579 -0.0261
C28 C 0.8613(3) 0.36909(10) -0.15779(19)
C29 C 0.7472(3) 0.34238(10) -0.23106(19)
H31 H 0.6856 0.3619 -0.2857
C30 C 0.7254(3) 0.28674(10) -0.22249(19)
H32 H 0.6481 0.2693 -0.2713
O3B O 0.94464(17) -0.04865(6) -0.05650(12)
O9B O 0.66551(18) -0.08810(6) 0.01400(12)
La1B La 1.223605(14) -0.003732(5) -0.014129(9)
La1B_2 La 0.223605(14) -0.003732(5) -0.014129(9)
O10 O 0.7042(3) -0.48617(9) 0.04971(18)
H8 H 0.6672 -0.5168 0.0449
C3 C 0.7830(5) -0.48124(18) -0.0197(3)
H12 H 0.8659 -0.4571 0.0076
H13 H 0.7186 -0.4666 -0.0822
H14 H 0.8178 -0.5167 -0.0314
loop_
_geom_bond_atom_site_label_1
_geom_bond_atom_site_label_2
_geom_bond_site_symmetry_1
_geom_bond_site_symmetry_2
La1 O1 1_555 1_555
C1 H1 1_555 1_555
H2 C1 1_555 1_555
H3 C1 1_555 1_555
C2 H4 1_555 1_555
H5 C2 1_555 1_555
H6 C2 1_555 1_555
O1 C4 1_555 1_555
O2 C22 1_555 1_555
O3 La1 1_555 1_555
O4 La1 1_555 1_555
O5 La1 1_555 1_555
O6 La1 1_555 1_555
H7 O6 1_555 1_555
O7 La1 1_555 1_555
O8 La1 1_555 1_555
O9 C4 1_555 1_555
O10 H8 1_555 1_555
O11 H9 1_555 1_555
O12 H10 1_555 1_555
O13 H11 1_555 1_555
C3 O10 1_555 1_555
H12 C3 1_555 1_555
H13 C3 1_555 1_555
H14 C3 1_555 1_555
C4 C5 1_555 1_555
C5 H15 1_555 1_555
C6 C5 1_555 1_555
H16 C6 1_555 1_555
C7 C6 1_555 1_555
C8 C7 1_555 1_555
H17 C8 1_555 1_555
C9 C8 1_555 1_555
H18 C9 1_555 1_555
C10 O11 1_555 1_555
C11 C10 1_555 1_555
H19 C11 1_555 1_555
C12 C7 1_555 1_555
H20 C12 1_555 1_555
C13 O3 1_555 1_555
C14 C13 1_555 1_555
H21 C14 1_555 1_555
C15 C14 1_555 1_555
H22 C15 1_555 1_555
C16 C15 1_555 1_555
C17 C16 1_555 1_555
H23 C17 1_555 1_555
C18 C17 1_555 1_555
H24 C18 1_555 1_555
C19 O12 1_555 1_555
C20 C19 1_555 1_555
H25 C20 1_555 1_555
C21 C16 1_555 1_555
H26 C21 1_555 1_555
C22 O8 1_555 1_555
C23 C22 1_555 1_555
H27 C23 1_555 1_555
C24 C23 1_555 1_555
H28 C24 1_555 1_555
C25 C24 1_555 1_555
C26 C25 1_555 1_555
H29 C26 1_555 1_555
C27 C26 1_555 1_555
H30 C27 1_555 1_555
C28 O13 1_555 1_555
C29 C28 1_555 1_555
H31 C29 1_555 1_555
C30 C25 1_555 1_555
H32 C30 1_555 1_555
O3B La1 1_555 1_555
O9B La1 1_555 1_555
La1B O3 1_555 1_555
La1B_2 O9 1_555 1_555
C1 O4 1_555 1_555
C2 O5 1_555 1_555
O7 C13 1_555 1_555
C9 C10 1_555 1_555
C11 C12 1_555 1_555
C18 C19 1_555 1_555
C20 C21 1_555 1_555
C27 C28 1_555 1_555
C29 C30 1_555 1_555
O3B La1B 1_555 1_555

#END
