
#######################################################################
#
#                 Cambridge Crystallographic Data Centre
#                                CCDC 
#
#######################################################################
#
# If this CIF has been generated from an entry in the Cambridge 
# Structural Database, then it will include bibliographic, chemical, 
# crystal, experimental, refinement or atomic coordinate data resulting 
# from the CCDC's data processing and validation procedures.
#
#######################################################################

data_DAMBNI
_symmetry_cell_setting           monoclinic
_symmetry_space_group_name_H-M   'P 21/a'
_symmetry_Int_Tables_number      14
_space_group_name_Hall           '-P 2yab'
loop_
_symmetry_equiv_pos_site_id
_symmetry_equiv_pos_as_xyz
1 x,y,z
2 1/2-x,1/2+y,-z
3 -x,-y,-z
4 1/2+x,1/2-y,z
_cell_length_a                   11.721(12)
_cell_length_b                   7.643(6)
_cell_length_c                   8.590(9)
_cell_angle_alpha                90
_cell_angle_beta                 109.74(8)
_cell_angle_gamma                90
_cell_volume                     724.302
loop_
_atom_site_label
_atom_site_type_symbol
_atom_site_fract_x
_atom_site_fract_y
_atom_site_fract_z
Ni1 Ni 0.50000 0.50000 0.00000
O1 O 0.37000 0.43860 -0.21700
O2 O 0.20810 0.38030 -0.13820
O3 O 0.62770 0.44550 -0.10600
N1 N -0.01050 0.27040 -0.93050
C1 C 0.26090 0.39800 -0.24590
C2 C 0.18440 0.36820 -0.42690
C3 C 0.06830 0.30400 -0.47320
C4 C 0.00440 0.27460 -0.63570
C5 C 0.05500 0.31280 -0.75590
C6 C 0.17000 0.37800 -0.71130
C7 C 0.23670 0.40700 -0.54600
H1 H 0.02700 0.30600 -0.42600
H2 H -0.07000 0.27500 -0.67400
H3 H 0.20500 0.41000 -0.78300
H4 H 0.30600 0.46600 -0.52000
O1B O 0.63000 0.56140 0.21700
O3B O 0.37230 0.55450 0.10600
N1C N 0.48950 0.22960 0.06950
C1B C 0.73910 0.60200 0.24590
N1A N 0.51050 0.77040 -0.06950
O2B O 0.79190 0.61970 0.13820
C2B C 0.81560 0.63180 0.42690
Ni1A Ni 0.00000 0.00000 -1.00000
C3B C 0.93170 0.69600 0.47320
C7B C 0.76330 0.59300 0.54600
C4B C 0.99560 0.72540 0.63570
H1B H 0.97300 0.69400 0.42600
C6B C 0.83000 0.62200 0.71130
H4B H 0.69400 0.53400 0.52000
C5B C 0.94500 0.68720 0.75590
H2B H 1.07000 0.72500 0.67400
H3B H 0.79500 0.59000 0.78300
N1B N 1.01050 0.72960 0.93050
Ni1A_2 Ni 1.00000 1.00000 1.00000
loop_
_geom_bond_atom_site_label_1
_geom_bond_atom_site_label_2
_geom_bond_site_symmetry_1
_geom_bond_site_symmetry_2
Ni1 O1 1_555 1_555
O1 C1 1_555 1_555
O2 C1 1_555 1_555
O3 Ni1 1_555 1_555
N1 C5 1_555 1_555
C1 C2 1_555 1_555
C2 C3 1_555 1_555
C3 C4 1_555 1_555
C4 C5 1_555 1_555
C5 C6 1_555 1_555
C6 C7 1_555 1_555
C7 C2 1_555 1_555
H1 C3 1_555 1_555
H2 C4 1_555 1_555
H3 C6 1_555 1_555
H4 C7 1_555 1_555
O1B Ni1 1_555 1_555
O3B Ni1 1_555 1_555
N1C Ni1 1_555 1_555
C1B O1B 1_555 1_555
N1A Ni1 1_555 1_555
O2B C1B 1_555 1_555
C2B C1B 1_555 1_555
Ni1A N1 1_555 1_555
C3B C2B 1_555 1_555
C7B C2B 1_555 1_555
C4B C3B 1_555 1_555
H1B C3B 1_555 1_555
C6B C7B 1_555 1_555
H4B C7B 1_555 1_555
C5B C4B 1_555 1_555
H2B C4B 1_555 1_555
H3B C6B 1_555 1_555
N1B C5B 1_555 1_555
Ni1A_2 N1B 1_555 1_555
C6B C5B 1_555 1_555

#END
