
#######################################################################
#
#                 Cambridge Crystallographic Data Centre
#                                CCDC 
#
#######################################################################
#
# If this CIF has been generated from an entry in the Cambridge 
# Structural Database, then it will include bibliographic, chemical, 
# crystal, experimental, refinement or atomic coordinate data resulting 
# from the CCDC's data processing and validation procedures.
#
#######################################################################

data_DAMGOP
_symmetry_cell_setting           monoclinic
_symmetry_space_group_name_H-M   'P 2/n'
_symmetry_Int_Tables_number      13
_space_group_name_Hall           '-P 2yac'
loop_
_symmetry_equiv_pos_site_id
_symmetry_equiv_pos_as_xyz
1 x,y,z
2 1/2-x,y,1/2-z
3 -x,-y,-z
4 1/2+x,-y,1/2+z
_cell_length_a                   13.578(6)
_cell_length_b                   7.960(4)
_cell_length_c                   14.258(7)
_cell_angle_alpha                90
_cell_angle_beta                 90.343(19)
_cell_angle_gamma                90
_cell_volume                     1540.99
loop_
_atom_site_label
_atom_site_type_symbol
_atom_site_fract_x
_atom_site_fract_y
_atom_site_fract_z
Er1 Er 0.7500 0.58856(5) 0.7500
K1 K 0.7500 0.0876(2) 0.7500
O1 O 0.8127(3) 0.3593(5) 0.8279(2)
O2 O 0.6484(3) 0.8175(5) 0.7661(2)
N1 N 0.7954(3) 0.6519(6) 0.9215(3)
N2 N 0.5935(3) 0.5204(6) 0.8396(3)
C1 C 0.7856(4) 0.7963(8) 0.9683(3)
H1 H 0.7539 0.8877 0.9377
C2 C 0.5665(4) 0.3730(8) 0.8761(4)
H2 H 0.6139 0.2854 0.8792
C3 C 0.8202(4) 0.8197(8) 1.0613(3)
H3 H 0.8132 0.9254 1.0914
C4 C 0.4717(5) 0.3410(9) 0.9102(4)
H4 H 0.4557 0.2342 0.9357
C5 C 0.8638(4) 0.6882(8) 1.1071(3)
H5 H 0.8858 0.7024 1.1700
C6 C 0.4020(4) 0.4666(9) 0.9060(4)
H6 H 0.3376 0.4460 0.9289
C7 C 0.8765(4) 0.5315(8) 1.0621(3)
C8 C 0.4253(4) 0.6259(8) 0.8681(4)
C9 C 0.9220(4) 0.3875(8) 1.1024(4)
H7 H 0.9469 0.3928 1.1647
C10 C 0.3587(4) 0.7621(10) 0.8600(4)
H8 H 0.2928 0.7502 0.8810
C11 C 0.9304(4) 0.2413(9) 1.0524(3)
H9 H 0.9616 0.1471 1.0809
C12 C 0.3896(5) 0.9121(10) 0.8215(4)
H10 H 0.3441 1.0025 0.8164
C13 C 0.8937(4) 0.2266(8) 0.9588(3)
H11 H 0.8998 0.1231 0.9261
C14 C 0.4873(4) 0.9349(8) 0.7895(4)
H12 H 0.5059 1.0396 0.7631
C15 C 0.8484(4) 0.3646(7) 0.9147(3)
C16 C 0.5568(4) 0.8053(8) 0.7962(3)
C17 C 0.8393(4) 0.5193(8) 0.9667(3)
C18 C 0.5241(4) 0.6479(8) 0.8367(3)
K1_2 K 0.7500 1.0876(2) 0.7500
O1A O 0.6873(3) 0.3593(5) 0.6721(2)
O2A O 0.8516(3) 0.8175(5) 0.7339(2)
O2_2 O 0.6484(3) -0.1825(5) 0.7661(2)
O2A_2 O 0.8516(3) -0.1825(5) 0.7339(2)
N1A N 0.7046(3) 0.6519(6) 0.5785(3)
N2A N 0.9065(3) 0.5204(6) 0.6604(3)
C1A C 0.7144(4) 0.7963(8) 0.5317(3)
H1A H 0.7461 0.8877 0.5623
C2A C 0.9335(4) 0.3730(8) 0.6239(4)
H2A H 0.8861 0.2854 0.6208
C3A C 0.6798(4) 0.8197(8) 0.4387(3)
H3A H 0.6868 0.9254 0.4086
C4A C 1.0283(5) 0.3410(9) 0.5898(4)
H4A H 1.0443 0.2342 0.5643
C5A C 0.6362(4) 0.6882(8) 0.3929(3)
H5A H 0.6142 0.7024 0.3300
C6A C 1.0980(4) 0.4666(9) 0.5940(4)
H6A H 1.1624 0.4460 0.5711
C7A C 0.6235(4) 0.5315(8) 0.4379(3)
C8A C 1.0747(4) 0.6259(8) 0.6319(4)
C9A C 0.5780(4) 0.3875(8) 0.3976(4)
H7A H 0.5531 0.3928 0.3353
C10A C 1.1413(4) 0.7621(10) 0.6400(4)
H8A H 1.2072 0.7502 0.6190
C11A C 0.5696(4) 0.2413(9) 0.4476(3)
H9A H 0.5384 0.1471 0.4191
C12A C 1.1104(5) 0.9121(10) 0.6785(4)
H10A H 1.1559 1.0025 0.6836
C13A C 0.6063(4) 0.2266(8) 0.5412(3)
H11A H 0.6002 0.1231 0.5739
C14A C 1.0127(4) 0.9349(8) 0.7105(4)
H12A H 0.9941 1.0396 0.7369
C15A C 0.6516(4) 0.3646(7) 0.5853(3)
C16A C 0.9432(4) 0.8053(8) 0.7038(3)
C17A C 0.6607(4) 0.5193(8) 0.5333(3)
C18A C 0.9759(4) 0.6479(8) 0.6633(3)
loop_
_geom_bond_atom_site_label_1
_geom_bond_atom_site_label_2
_geom_bond_site_symmetry_1
_geom_bond_site_symmetry_2
Er1 O1 1_555 1_555
K1 O1 1_555 1_555
O1 C15 1_555 1_555
O2 Er1 1_555 1_555
N1 Er1 1_555 1_555
N2 Er1 1_555 1_555
C1 N1 1_555 1_555
H1 C1 1_555 1_555
C2 N2 1_555 1_555
H2 C2 1_555 1_555
C3 C1 1_555 1_555
H3 C3 1_555 1_555
C4 C2 1_555 1_555
H4 C4 1_555 1_555
C5 C3 1_555 1_555
H5 C5 1_555 1_555
C6 C4 1_555 1_555
H6 C6 1_555 1_555
C7 C5 1_555 1_555
C8 C6 1_555 1_555
C9 C7 1_555 1_555
H7 C9 1_555 1_555
C10 C8 1_555 1_555
H8 C10 1_555 1_555
C11 C9 1_555 1_555
H9 C11 1_555 1_555
C12 C10 1_555 1_555
H10 C12 1_555 1_555
C13 C11 1_555 1_555
H11 C13 1_555 1_555
C14 C12 1_555 1_555
H12 C14 1_555 1_555
C15 C13 1_555 1_555
C16 O2 1_555 1_555
C17 N1 1_555 1_555
C18 N2 1_555 1_555
K1_2 O2 1_555 1_555
O1A Er1 1_555 1_555
O2A Er1 1_555 1_555
O2_2 K1 1_555 1_555
O2A_2 K1 1_555 1_555
N1A Er1 1_555 1_555
N2A Er1 1_555 1_555
C1A N1A 1_555 1_555
H1A C1A 1_555 1_555
C2A N2A 1_555 1_555
H2A C2A 1_555 1_555
C3A C1A 1_555 1_555
H3A C3A 1_555 1_555
C4A C2A 1_555 1_555
H4A C4A 1_555 1_555
C5A C3A 1_555 1_555
H5A C5A 1_555 1_555
C6A C4A 1_555 1_555
H6A C6A 1_555 1_555
C7A C5A 1_555 1_555
C8A C6A 1_555 1_555
C9A C7A 1_555 1_555
H7A C9A 1_555 1_555
C10A C8A 1_555 1_555
H8A C10A 1_555 1_555
C11A C9A 1_555 1_555
H9A C11A 1_555 1_555
C12A C10A 1_555 1_555
H10A C12A 1_555 1_555
C13A C11A 1_555 1_555
H11A C13A 1_555 1_555
C14A C12A 1_555 1_555
H12A C14A 1_555 1_555
C15A O1A 1_555 1_555
C16A O2A 1_555 1_555
C17A N1A 1_555 1_555
C18A N2A 1_555 1_555
K1 O1A 1_555 1_555
C7 C17 1_555 1_555
C8 C18 1_555 1_555
C14 C16 1_555 1_555
C15 C17 1_555 1_555
C16 C18 1_555 1_555
K1_2 O2A 1_555 1_555
C7A C17A 1_555 1_555
C8A C18A 1_555 1_555
C13A C15A 1_555 1_555
C14A C16A 1_555 1_555
C15A C17A 1_555 1_555
C16A C18A 1_555 1_555

#END
