
#######################################################################
#
#                 Cambridge Crystallographic Data Centre
#                                CCDC 
#
#######################################################################
#
# If this CIF has been generated from an entry in the Cambridge 
# Structural Database, then it will include bibliographic, chemical, 
# crystal, experimental, refinement or atomic coordinate data resulting 
# from the CCDC's data processing and validation procedures.
#
#######################################################################

data_DAMGIJ
_symmetry_cell_setting           tetragonal
_symmetry_space_group_name_H-M   'P 4/n c c'
_symmetry_Int_Tables_number      130
_space_group_name_Hall           '-P 4a 2ac'
loop_
_symmetry_equiv_pos_site_id
_symmetry_equiv_pos_as_xyz
1 x,y,z
2 1/2-y,x,z
3 1/2-x,1/2-y,z
4 y,1/2-x,z
5 1/2+x,-y,1/2-z
6 -x,1/2+y,1/2-z
7 1/2+y,1/2+x,1/2-z
8 -y,-x,1/2-z
9 -x,-y,-z
10 1/2+y,-x,-z
11 1/2+x,1/2+y,-z
12 -y,1/2+x,-z
13 1/2-x,y,1/2+z
14 x,1/2-y,1/2+z
15 1/2-y,1/2-x,1/2+z
16 y,x,1/2+z
_cell_length_a                   14.6496(2)
_cell_length_b                   14.6496(2)
_cell_length_c                   13.8779(2)
_cell_angle_alpha                90
_cell_angle_beta                 90
_cell_angle_gamma                90
_cell_volume                     2978.35
loop_
_atom_site_label
_atom_site_type_symbol
_atom_site_fract_x
_atom_site_fract_y
_atom_site_fract_z
Er1 Er 0.7500 0.2500 1.0000
O1 O 0.72010(14) 0.16813(14) 0.86020(13)
N1 N 0.65842(18) 0.10675(17) 1.02815(17)
C1 C 0.6211(2) 0.0788(2) 1.1095(2)
H1 H 0.6179 0.1204 1.1619
C2 C 0.5859(3) -0.0092(2) 1.1222(3)
H2 H 0.5580 -0.0258 1.1815
C3 C 0.5920(3) -0.0707(2) 1.0495(3)
H3 H 0.5702 -0.1312 1.0584
C4 C 0.6307(2) -0.0448(2) 0.9607(2)
C5 C 0.6388(3) -0.1025(2) 0.8801(3)
H4 H 0.6204 -0.1646 0.8842
C6 C 0.6730(2) -0.0692(2) 0.7963(3)
H5 H 0.6792 -0.1091 0.7428
C7 C 0.6997(2) 0.0225(2) 0.7862(2)
H6 H 0.7214 0.0439 0.7258
C8 C 0.6947(2) 0.08173(19) 0.8635(2)
C9 C 0.66131(19) 0.0468(2) 0.9527(2)
Li1 Li 0.7500 0.2500 0.7500
O1B O 0.77990(14) 0.33187(14) 0.86020(13)
O1I O 0.66813(14) 0.27990(14) 1.13980(13)
O1K O 0.83187(14) 0.22010(14) 1.13980(13)
O1F O 0.66813(14) 0.22010(14) 0.63980(13)
O1G O 0.83187(14) 0.27990(14) 0.63980(13)
N1B N 0.84158(18) 0.39325(17) 1.02815(17)
N1I N 0.60675(17) 0.34158(18) 0.97185(17)
N1K N 0.89325(17) 0.15842(18) 0.97185(17)
C1B C 0.8789(2) 0.4212(2) 1.1095(2)
C1I C 0.5788(2) 0.3789(2) 0.8905(2)
C1K C 0.9212(2) 0.1211(2) 0.8905(2)
H1B H 0.8821 0.3796 1.1619
H1I H 0.6204 0.3821 0.8381
H1K H 0.8796 0.1179 0.8381
C2B C 0.9141(3) 0.5092(2) 1.1222(3)
C2I C 0.4908(2) 0.4141(3) 0.8778(3)
C2K C 1.0092(2) 0.0859(3) 0.8778(3)
H2B H 0.9420 0.5258 1.1815
H2I H 0.4742 0.4420 0.8185
H2K H 1.0258 0.0580 0.8185
C3B C 0.9080(3) 0.5707(2) 1.0495(3)
C3I C 0.4293(2) 0.4080(3) 0.9505(3)
C3K C 1.0707(2) 0.0920(3) 0.9505(3)
H3B H 0.9298 0.6312 1.0584
H3I H 0.3688 0.4298 0.9416
H3K H 1.1312 0.0702 0.9416
C4B C 0.8693(2) 0.5448(2) 0.9607(2)
C4I C 0.4552(2) 0.3693(2) 1.0393(2)
C4K C 1.0448(2) 0.1307(2) 1.0393(2)
C5B C 0.8612(3) 0.6025(2) 0.8801(3)
C5I C 0.3975(2) 0.3612(3) 1.1199(3)
C5K C 1.1025(2) 0.1388(3) 1.1199(3)
H4B H 0.8796 0.6646 0.8842
H4I H 0.3354 0.3796 1.1158
H4K H 1.1646 0.1204 1.1158
C6B C 0.8270(2) 0.5692(2) 0.7963(3)
C6I C 0.4308(2) 0.3270(2) 1.2037(3)
C6K C 1.0692(2) 0.1730(2) 1.2037(3)
H5B H 0.8208 0.6091 0.7428
H5I H 0.3909 0.3208 1.2572
H5K H 1.1091 0.1792 1.2572
C7B C 0.8003(2) 0.4775(2) 0.7862(2)
C7I C 0.5225(2) 0.3003(2) 1.2138(2)
C7K C 0.9775(2) 0.1997(2) 1.2138(2)
H6B H 0.7786 0.4561 0.7258
H6I H 0.5439 0.2786 1.2742
H6K H 0.9561 0.2214 1.2742
C8B C 0.8053(2) 0.41827(19) 0.8635(2)
C8I C 0.58173(19) 0.3053(2) 1.1365(2)
C8K C 0.91827(19) 0.1947(2) 1.1365(2)
C9B C 0.83869(19) 0.4532(2) 0.9527(2)
C9I C 0.5468(2) 0.33869(19) 1.0473(2)
C9K C 0.9532(2) 0.16131(19) 1.0473(2)
Li1I Li 0.7500 0.2500 1.2500
loop_
_geom_bond_atom_site_label_1
_geom_bond_atom_site_label_2
_geom_bond_site_symmetry_1
_geom_bond_site_symmetry_2
Er1 O1 1_555 1_555
O1 C8 1_555 1_555
N1 Er1 1_555 1_555
C1 N1 1_555 1_555
H1 C1 1_555 1_555
C2 C1 1_555 1_555
H2 C2 1_555 1_555
C3 C2 1_555 1_555
H3 C3 1_555 1_555
C4 C3 1_555 1_555
C5 C4 1_555 1_555
H4 C5 1_555 1_555
C6 C5 1_555 1_555
H5 C6 1_555 1_555
C7 C6 1_555 1_555
H6 C7 1_555 1_555
C8 C7 1_555 1_555
C9 N1 1_555 1_555
Li1 O1 1_555 1_555
O1B Er1 1_555 1_555
O1I Er1 1_555 1_555
O1K Er1 1_555 1_555
O1F Li1 1_555 1_555
O1G Li1 1_555 1_555
N1B Er1 1_555 1_555
N1I Er1 1_555 1_555
N1K Er1 1_555 1_555
C1B N1B 1_555 1_555
C1I N1I 1_555 1_555
C1K N1K 1_555 1_555
H1B C1B 1_555 1_555
H1I C1I 1_555 1_555
H1K C1K 1_555 1_555
C2B C1B 1_555 1_555
C2I C1I 1_555 1_555
C2K C1K 1_555 1_555
H2B C2B 1_555 1_555
H2I C2I 1_555 1_555
H2K C2K 1_555 1_555
C3B C2B 1_555 1_555
C3I C2I 1_555 1_555
C3K C2K 1_555 1_555
H3B C3B 1_555 1_555
H3I C3I 1_555 1_555
H3K C3K 1_555 1_555
C4B C3B 1_555 1_555
C4I C3I 1_555 1_555
C4K C3K 1_555 1_555
C5B C4B 1_555 1_555
C5I C4I 1_555 1_555
C5K C4K 1_555 1_555
H4B C5B 1_555 1_555
H4I C5I 1_555 1_555
H4K C5K 1_555 1_555
C6B C5B 1_555 1_555
C6I C5I 1_555 1_555
C6K C5K 1_555 1_555
H5B C6B 1_555 1_555
H5I C6I 1_555 1_555
H5K C6K 1_555 1_555
C7B C6B 1_555 1_555
C7I C6I 1_555 1_555
C7K C6K 1_555 1_555
H6B C7B 1_555 1_555
H6I C7I 1_555 1_555
H6K C7K 1_555 1_555
C8B O1B 1_555 1_555
C8I O1I 1_555 1_555
C8K O1K 1_555 1_555
C9B N1B 1_555 1_555
C9I N1I 1_555 1_555
C9K N1K 1_555 1_555
Li1I O1I 1_555 1_555
C4 C9 1_555 1_555
C8 C9 1_555 1_555
Li1 O1B 1_555 1_555
O1K Li1I 1_555 1_555
C4B C9B 1_555 1_555
C4I C9I 1_555 1_555
C4K C9K 1_555 1_555
C7B C8B 1_555 1_555
C7I C8I 1_555 1_555
C7K C8K 1_555 1_555
C8B C9B 1_555 1_555
C8I C9I 1_555 1_555
C8K C9K 1_555 1_555

#END
