
#######################################################################
#
#                 Cambridge Crystallographic Data Centre
#                                CCDC 
#
#######################################################################
#
# If this CIF has been generated from an entry in the Cambridge 
# Structural Database, then it will include bibliographic, chemical, 
# crystal, experimental, refinement or atomic coordinate data resulting 
# from the CCDC's data processing and validation procedures.
#
#######################################################################

data_DAMGAB
_symmetry_cell_setting           tetragonal
_symmetry_space_group_name_H-M   'P 4/n c c'
_symmetry_Int_Tables_number      130
_space_group_name_Hall           '-P 4a 2ac'
loop_
_symmetry_equiv_pos_site_id
_symmetry_equiv_pos_as_xyz
1 x,y,z
2 1/2-y,x,z
3 1/2-x,1/2-y,z
4 y,1/2-x,z
5 1/2+x,-y,1/2-z
6 -x,1/2+y,1/2-z
7 1/2+y,1/2+x,1/2-z
8 -y,-x,1/2-z
9 -x,-y,-z
10 1/2+y,-x,-z
11 1/2+x,1/2+y,-z
12 -y,1/2+x,-z
13 1/2-x,y,1/2+z
14 x,1/2-y,1/2+z
15 1/2-y,1/2-x,1/2+z
16 y,x,1/2+z
_cell_length_a                   14.6097(2)
_cell_length_b                   14.6097(2)
_cell_length_c                   13.9396(2)
_cell_angle_alpha                90
_cell_angle_beta                 90
_cell_angle_gamma                90
_cell_volume                     2975.31
loop_
_atom_site_label
_atom_site_type_symbol
_atom_site_fract_x
_atom_site_fract_y
_atom_site_fract_z
Tb1 Tb 0.7500 0.2500 1.0000
O1 O 0.72066(18) 0.16652(19) 0.8600(2)
N1 N 0.6558(2) 0.1048(2) 1.0274(2)
C1 C 0.6176(3) 0.0769(3) 1.1077(3)
H1 H 0.6136 0.1187 1.1597
C2 C 0.5823(3) -0.0118(3) 1.1202(4)
H2 H 0.5540 -0.0286 1.1790
C3 C 0.5892(3) -0.0734(3) 1.0474(3)
H3 H 0.5674 -0.1341 1.0558
C4 C 0.6283(3) -0.0472(3) 0.9597(3)
C5 C 0.6375(3) -0.1052(3) 0.8790(4)
H4 H 0.6192 -0.1675 0.8829
C6 C 0.6725(3) -0.0715(3) 0.7959(3)
H5 H 0.6785 -0.1113 0.7424
C7 C 0.7001(3) 0.0201(3) 0.7864(3)
H6 H 0.7227 0.0415 0.7265
C8 C 0.6948(3) 0.0795(3) 0.8637(3)
C9 C 0.6595(3) 0.0448(3) 0.9517(3)
Li1 Li 0.7500 0.2500 0.7500
O1B O 0.77934(18) 0.33348(19) 0.8600(2)
O1I O 0.66652(19) 0.27934(18) 1.1400(2)
O1K O 0.83348(19) 0.22066(18) 1.1400(2)
O1F O 0.66652(19) 0.22066(18) 0.6400(2)
O1G O 0.83348(19) 0.27934(18) 0.6400(2)
N1B N 0.8442(2) 0.3952(2) 1.0274(2)
N1I N 0.6048(2) 0.3442(2) 0.9726(2)
N1K N 0.8952(2) 0.1558(2) 0.9726(2)
C1B C 0.8824(3) 0.4231(3) 1.1077(3)
C1I C 0.5769(3) 0.3824(3) 0.8923(3)
C1K C 0.9231(3) 0.1176(3) 0.8923(3)
H1B H 0.8864 0.3813 1.1597
H1I H 0.6187 0.3864 0.8403
H1K H 0.8813 0.1136 0.8403
C2B C 0.9177(3) 0.5118(3) 1.1202(4)
C2I C 0.4882(3) 0.4177(3) 0.8798(4)
C2K C 1.0118(3) 0.0823(3) 0.8798(4)
H2B H 0.9460 0.5286 1.1790
H2I H 0.4714 0.4460 0.8210
H2K H 1.0286 0.0540 0.8210
C3B C 0.9108(3) 0.5734(3) 1.0474(3)
C3I C 0.4266(3) 0.4108(3) 0.9526(3)
C3K C 1.0734(3) 0.0892(3) 0.9526(3)
H3B H 0.9326 0.6341 1.0558
H3I H 0.3659 0.4326 0.9442
H3K H 1.1341 0.0674 0.9442
C4B C 0.8717(3) 0.5472(3) 0.9597(3)
C4I C 0.4528(3) 0.3717(3) 1.0403(3)
C4K C 1.0472(3) 0.1283(3) 1.0403(3)
C5B C 0.8625(3) 0.6052(3) 0.8790(4)
C5I C 0.3948(3) 0.3625(3) 1.1210(4)
C5K C 1.1052(3) 0.1375(3) 1.1210(4)
H4B H 0.8808 0.6675 0.8829
H4I H 0.3325 0.3808 1.1171
H4K H 1.1675 0.1192 1.1171
C6B C 0.8275(3) 0.5715(3) 0.7959(3)
C6I C 0.4285(3) 0.3275(3) 1.2041(3)
C6K C 1.0715(3) 0.1725(3) 1.2041(3)
H5B H 0.8215 0.6113 0.7424
H5I H 0.3887 0.3215 1.2576
H5K H 1.1113 0.1785 1.2576
C7B C 0.7999(3) 0.4799(3) 0.7864(3)
C7I C 0.5201(3) 0.2999(3) 1.2136(3)
C7K C 0.9799(3) 0.2001(3) 1.2136(3)
H6B H 0.7773 0.4585 0.7265
H6I H 0.5415 0.2773 1.2735
H6K H 0.9585 0.2227 1.2735
C8B C 0.8052(3) 0.4205(3) 0.8637(3)
C8I C 0.5795(3) 0.3052(3) 1.1363(3)
C8K C 0.9205(3) 0.1948(3) 1.1363(3)
C9B C 0.8405(3) 0.4552(3) 0.9517(3)
C9I C 0.5448(3) 0.3405(3) 1.0483(3)
C9K C 0.9552(3) 0.1595(3) 1.0483(3)
Li1I Li 0.7500 0.2500 1.2500
loop_
_geom_bond_atom_site_label_1
_geom_bond_atom_site_label_2
_geom_bond_site_symmetry_1
_geom_bond_site_symmetry_2
Tb1 O1 1_555 1_555
O1 C8 1_555 1_555
N1 Tb1 1_555 1_555
C1 N1 1_555 1_555
H1 C1 1_555 1_555
C2 C1 1_555 1_555
H2 C2 1_555 1_555
C3 C2 1_555 1_555
H3 C3 1_555 1_555
C4 C3 1_555 1_555
C5 C4 1_555 1_555
H4 C5 1_555 1_555
C6 C5 1_555 1_555
H5 C6 1_555 1_555
C7 C6 1_555 1_555
H6 C7 1_555 1_555
C8 C7 1_555 1_555
C9 N1 1_555 1_555
Li1 O1 1_555 1_555
O1B Tb1 1_555 1_555
O1I Tb1 1_555 1_555
O1K Tb1 1_555 1_555
O1F Li1 1_555 1_555
O1G Li1 1_555 1_555
N1B Tb1 1_555 1_555
N1I Tb1 1_555 1_555
N1K Tb1 1_555 1_555
C1B N1B 1_555 1_555
C1I N1I 1_555 1_555
C1K N1K 1_555 1_555
H1B C1B 1_555 1_555
H1I C1I 1_555 1_555
H1K C1K 1_555 1_555
C2B C1B 1_555 1_555
C2I C1I 1_555 1_555
C2K C1K 1_555 1_555
H2B C2B 1_555 1_555
H2I C2I 1_555 1_555
H2K C2K 1_555 1_555
C3B C2B 1_555 1_555
C3I C2I 1_555 1_555
C3K C2K 1_555 1_555
H3B C3B 1_555 1_555
H3I C3I 1_555 1_555
H3K C3K 1_555 1_555
C4B C3B 1_555 1_555
C4I C3I 1_555 1_555
C4K C3K 1_555 1_555
C5B C4B 1_555 1_555
C5I C4I 1_555 1_555
C5K C4K 1_555 1_555
H4B C5B 1_555 1_555
H4I C5I 1_555 1_555
H4K C5K 1_555 1_555
C6B C5B 1_555 1_555
C6I C5I 1_555 1_555
C6K C5K 1_555 1_555
H5B C6B 1_555 1_555
H5I C6I 1_555 1_555
H5K C6K 1_555 1_555
C7B C6B 1_555 1_555
C7I C6I 1_555 1_555
C7K C6K 1_555 1_555
H6B C7B 1_555 1_555
H6I C7I 1_555 1_555
H6K C7K 1_555 1_555
C8B O1B 1_555 1_555
C8I O1I 1_555 1_555
C8K O1K 1_555 1_555
C9B N1B 1_555 1_555
C9I N1I 1_555 1_555
C9K N1K 1_555 1_555
Li1I O1I 1_555 1_555
C4 C9 1_555 1_555
C8 C9 1_555 1_555
Li1 O1B 1_555 1_555
O1K Li1I 1_555 1_555
C4B C9B 1_555 1_555
C4I C9I 1_555 1_555
C4K C9K 1_555 1_555
C7B C8B 1_555 1_555
C7I C8I 1_555 1_555
C7K C8K 1_555 1_555
C8B C9B 1_555 1_555
C8I C9I 1_555 1_555
C8K C9K 1_555 1_555

#END
