
#######################################################################
#
#                 Cambridge Crystallographic Data Centre
#                                CCDC 
#
#######################################################################
#
# If this CIF has been generated from an entry in the Cambridge 
# Structural Database, then it will include bibliographic, chemical, 
# crystal, experimental, refinement or atomic coordinate data resulting 
# from the CCDC's data processing and validation procedures.
#
#######################################################################

data_DAMMOU
_symmetry_cell_setting           triclinic
_symmetry_space_group_name_H-M   'P -1'
_symmetry_Int_Tables_number      2
_space_group_name_Hall           '-P 1'
loop_
_symmetry_equiv_pos_site_id
_symmetry_equiv_pos_as_xyz
1 x,y,z
2 -x,-y,-z
_cell_length_a                   10.640(4)
_cell_length_b                   13.525(5)
_cell_length_c                   13.566(4)
_cell_angle_alpha                101.278(6)
_cell_angle_beta                 101.665(6)
_cell_angle_gamma                96.568(6)
_cell_volume                     1850.75
loop_
_atom_site_label
_atom_site_type_symbol
_atom_site_fract_x
_atom_site_fract_y
_atom_site_fract_z
Cu1 Cu -0.64930(6) 0.34962(5) -0.65664(5)
Cu2 Cu -1.11381(6) 0.58037(5) -0.23267(5)
Cu3 Cu -0.25013(5) 0.52091(5) -0.50408(4)
Cu4 Cu -0.94051(5) 0.53687(5) -0.37870(4)
Cl1 Cl -0.42078(12) 0.39625(11) -0.65029(10)
O1 O -0.6380(3) 0.2053(3) -0.6716(2)
O2 O -0.6689(3) 0.3564(2) -0.5104(2)
O3 O -0.8461(3) 0.4239(3) -0.4017(2)
O4 O -0.9862(3) 0.4917(3) -0.2605(2)
O5 O -1.1564(3) 0.5097(3) -0.1316(2)
O6 O -0.6987(3) 0.4857(2) -0.6249(2)
O7 O -0.7754(3) 0.3204(3) -0.7892(2)
O8 O -1.0425(3) 0.6367(2) -0.3351(2)
O9 O -0.1202(3) 0.4312(2) -0.5037(2)
C1 C -0.6621(5) 0.0366(4) -0.6515(4)
C2 C -0.6842(6) 0.0017(4) -0.7580(4)
H1 H -0.6923 0.0473 -0.8013
C3 C -0.6939(6) -0.1016(5) -0.7988(5)
H2 H -0.7121 -0.1250 -0.8701
C4 C -0.6778(5) -0.1695(4) -0.7381(5)
H3 H -0.6818 -0.2383 -0.7675
C5 C -0.6556(6) -0.1366(4) -0.6332(5)
H4 H -0.6449 -0.1828 -0.5907
C6 C -0.6490(5) -0.0337(4) -0.5907(4)
H5 H -0.6356 -0.0117 -0.5195
C7 C -0.6545(5) 0.1490(4) -0.6100(4)
C8 C -0.6716(4) 0.1829(4) -0.5095(4)
H6 H -0.6767 0.1345 -0.4697
C9 C -0.6816(4) 0.2818(4) -0.4648(4)
C10 C -0.7105(4) 0.3035(4) -0.3599(3)
C11 C -0.6510(5) 0.2541(4) -0.2869(4)
H7 H -0.5913 0.2125 -0.3039
C12 C -0.6772(5) 0.2645(4) -0.1897(4)
C13 C -0.7750(5) 0.3200(4) -0.1711(4)
H8 H -0.7986 0.3242 -0.1083
C14 C -0.8400(4) 0.3697(4) -0.2422(4)
C15 C -0.7982(4) 0.3692(4) -0.3355(4)
C16 C -0.6048(6) 0.2138(5) -0.1099(4)
H9 H -0.6137 0.2457 -0.0425
H10 H -0.5144 0.2212 -0.1114
H11 H -0.6405 0.1426 -0.1254
C17 C -0.9518(4) 0.4178(4) -0.2167(3)
C18 C -1.0183(5) 0.3846(4) -0.1477(4)
H12 H -0.9980 0.3258 -0.1265
C19 C -1.1129(5) 0.4317(4) -0.1077(4)
C20 C -1.1718(5) 0.3899(4) -0.0295(4)
C21 C -1.1264(5) 0.3151(4) 0.0161(4)
H13 H -1.0573 0.2864 -0.0035
C22 C -1.1805(6) 0.2808(5) 0.0906(4)
H14 H -1.1490 0.2291 0.1196
C23 C -1.2824(6) 0.3247(5) 0.1214(5)
H15 H -1.3191 0.3033 0.1718
C24 C -1.3266(6) 0.3978(5) 0.0777(5)
H16 H -1.3944 0.4271 0.0989
C25 C -1.2750(5) 0.4321(4) 0.0016(4)
H17 H -1.3091 0.4825 -0.0283
C26 C -1.0263(5) 0.7414(4) -0.3375(4)
H18 H -0.9356 0.7696 -0.3163
H19 H -1.0723 0.7770 -0.2915
H20 H -1.0601 0.7485 -0.4065
C27 C -0.7277(7) 0.2966(6) -0.8774(4)
H21 H -0.7981 0.2835 -0.9374
H22 H -0.6652 0.3529 -0.8794
H23 H -0.6870 0.2369 -0.8766
C28 C -0.6260(5) 0.5742(4) -0.6415(4)
H24 H -0.5656 0.5536 -0.6823
H25 H -0.6843 0.6117 -0.6771
H26 H -0.5793 0.6168 -0.5761
C29 C -0.1496(5) 0.3313(4) -0.4858(4)
O6A O -1.3013(3) 0.5143(2) -0.3751(2)
O7A O -1.2246(3) 0.6796(3) -0.2108(2)
O2A O -0.3311(3) 0.6436(2) -0.4896(2)
O3A O -0.1539(3) 0.5761(3) -0.5983(2)
O6A_2 O -0.3013(3) 0.5143(2) -0.3751(2)
O9_2 O -1.1202(3) 0.4312(2) -0.5037(2)
O9A O -0.8798(3) 0.5688(2) -0.4963(2)
Cu3A Cu -0.74987(5) 0.47909(5) -0.49592(4)
Cu2A Cu -0.88619(6) 0.41963(5) -0.76733(5)
Cu4_2 Cu 0.05949(5) 0.53687(5) -0.37870(4)
Cu4A Cu -0.05949(5) 0.46313(5) -0.62130(4)
loop_
_geom_bond_atom_site_label_1
_geom_bond_atom_site_label_2
_geom_bond_site_symmetry_1
_geom_bond_site_symmetry_2
Cu1 Cl1 1_555 1_555
Cu2 O4 1_555 1_555
Cu3 Cl1 1_555 1_555
Cu4 O3 1_555 1_555
O1 Cu1 1_555 1_555
O2 Cu1 1_555 1_555
O3 C15 1_555 1_555
O4 Cu4 1_555 1_555
O5 Cu2 1_555 1_555
O6 Cu1 1_555 1_555
O7 Cu1 1_555 1_555
O8 Cu2 1_555 1_555
O9 Cu3 1_555 1_555
C1 C2 1_555 1_555
C2 H1 1_555 1_555
C3 C2 1_555 1_555
H2 C3 1_555 1_555
C4 C3 1_555 1_555
H3 C4 1_555 1_555
C5 C4 1_555 1_555
H4 C5 1_555 1_555
C6 C1 1_555 1_555
H5 C6 1_555 1_555
C7 O1 1_555 1_555
C8 C7 1_555 1_555
H6 C8 1_555 1_555
C9 O2 1_555 1_555
C10 C9 1_555 1_555
C11 C10 1_555 1_555
H7 C11 1_555 1_555
C12 C11 1_555 1_555
C13 C12 1_555 1_555
H8 C13 1_555 1_555
C14 C13 1_555 1_555
C15 C10 1_555 1_555
C16 C12 1_555 1_555
H9 C16 1_555 1_555
H10 C16 1_555 1_555
H11 C16 1_555 1_555
C17 O4 1_555 1_555
C18 C17 1_555 1_555
H12 C18 1_555 1_555
C19 O5 1_555 1_555
C20 C19 1_555 1_555
C21 C20 1_555 1_555
H13 C21 1_555 1_555
C22 C21 1_555 1_555
H14 C22 1_555 1_555
C23 C22 1_555 1_555
H15 C23 1_555 1_555
C24 C23 1_555 1_555
H16 C24 1_555 1_555
C25 C20 1_555 1_555
H17 C25 1_555 1_555
C26 O8 1_555 1_555
H18 C26 1_555 1_555
H19 C26 1_555 1_555
H20 C26 1_555 1_555
C27 O7 1_555 1_555
H21 C27 1_555 1_555
H22 C27 1_555 1_555
H23 C27 1_555 1_555
C28 O6 1_555 1_555
H24 C28 1_555 1_555
H25 C28 1_555 1_555
H26 C28 1_555 1_555
C29 O9 1_555 1_555
O6A Cu2 1_555 1_555
O7A Cu2 1_555 1_555
O2A Cu3 1_555 1_555
O3A Cu3 1_555 1_555
O6A_2 Cu3 1_555 1_555
O9_2 Cu4 1_555 1_555
O9A Cu4 1_555 1_555
Cu3A O2 1_555 1_555
Cu2A O6 1_555 1_555
Cu4_2 O9 1_555 1_555
Cu4A O9 1_555 1_555
Cu4 O8 1_555 1_555
O3 Cu3A 1_555 1_555
O6 Cu3A 1_555 1_555
O7 Cu2A 1_555 1_555
C1 C7 1_555 1_555
C5 C6 1_555 1_555
C8 C9 1_555 1_555
C14 C15 1_555 1_555
C14 C17 1_555 1_555
C18 C19 1_555 1_555
C24 C25 1_555 1_555
O3A Cu4A 1_555 1_555
O9A Cu3A 1_555 1_555

#END
