
#######################################################################
#
#                 Cambridge Crystallographic Data Centre
#                                CCDC 
#
#######################################################################
#
# If this CIF has been generated from an entry in the Cambridge 
# Structural Database, then it will include bibliographic, chemical, 
# crystal, experimental, refinement or atomic coordinate data resulting 
# from the CCDC's data processing and validation procedures.
#
#######################################################################

data_DAMQUF
_symmetry_cell_setting           triclinic
_symmetry_space_group_name_H-M   'P -1'
_symmetry_Int_Tables_number      2
_space_group_name_Hall           '-P 1'
loop_
_symmetry_equiv_pos_site_id
_symmetry_equiv_pos_as_xyz
1 x,y,z
2 -x,-y,-z
_cell_length_a                   11.727(3)
_cell_length_b                   12.652(3)
_cell_length_c                   13.879(3)
_cell_angle_alpha                95.064(3)
_cell_angle_beta                 105.759(3)
_cell_angle_gamma                104.946(3)
_cell_volume                     1886.82
loop_
_atom_site_label
_atom_site_type_symbol
_atom_site_fract_x
_atom_site_fract_y
_atom_site_fract_z
Pb1 Pb 1.42196(6) 0.70180(5) 0.53432(5)
Pb2 Pb 1.33836(6) 0.38788(5) 0.62297(4)
Pb3 Pb 0.50830(6) 0.34828(5) 0.15731(4)
Pb4 Pb 1.76752(6) 1.61177(5) 1.10296(5)
P1 P 1.3708(4) 0.4376(3) 0.3743(3)
P2 P 1.5548(4) 1.4108(3) 0.9171(3)
O1 O 1.4156(11) 0.5634(9) 0.3885(9)
O2 O 1.4748(10) 0.3924(9) 0.3581(8)
O3 O 1.3213(10) 0.3903(10) 0.4559(8)
O4 O 0.7415(12) 0.4580(11) 0.2486(10)
O5 O 0.7730(12) 0.4625(12) 0.4150(10)
O6 O 2.1289(12) 1.2725(12) 0.5388(10)
O7 O 2.1578(15) 1.2697(13) 0.7016(10)
O8 O 1.6092(12) 0.8043(10) 0.4304(10)
O9 O 1.6108(15) 0.8420(12) 0.5879(12)
O10 O 1.6412(10) 1.5293(8) 0.9330(8)
O11 O 1.5728(12) 1.3622(10) 1.0141(9)
O12 O 1.4217(10) 1.4025(9) 0.8604(9)
O13 O 1.4080(15) 0.7768(10) 0.7005(10)
O14 O 1.4265(14) 0.8221(11) 0.8594(10)
O15 O 0.2406(14) 0.2160(11) -0.0550(12)
O16 O 0.3070(14) 0.2013(12) 0.1063(13)
N1 N 1.1207(13) 0.3957(13) 0.2540(10)
H1 H 1.0757 0.3897 0.1888
N2 N 1.5681(13) 1.2055(11) 0.8402(10)
C1 C 1.2436(16) 0.3814(15) 0.2560(12)
H2 H 1.2650 0.4513 0.2334
H3 H 1.2558 0.3448 0.1977
C2 C 1.0497(16) 0.3056(15) 0.2989(14)
H4 H 1.0954 0.3119 0.3690
H5 H 1.0417 0.2337 0.2642
C3 C 0.9210(16) 0.3177(14) 0.2922(14)
H6 H 0.8781 0.2615 0.3226
H7 H 0.8741 0.3071 0.2218
C4 C 0.9305(15) 0.4346(13) 0.3444(12)
H8 H 0.9755 0.4440 0.4152
C5 C 1.0028(19) 0.5212(16) 0.2993(18)
H9 H 1.0119 0.5943 0.3322
H10 H 0.9581 0.5134 0.2287
C6 C 1.1283(15) 0.5046(14) 0.3077(16)
H11 H 1.1764 0.5629 0.2826
H12 H 1.1708 0.5095 0.3784
C7 C 0.8040(16) 0.4526(14) 0.3359(14)
C8 C 2.0946(18) 1.2355(16) 0.6126(14)
C9 C 1.9754(17) 1.1446(14) 0.5840(14)
C10 C 1.9182(15) 1.0898(15) 0.4863(13)
H13 H 1.9493 1.1155 0.4327
C11 C 1.8162(17) 0.9977(15) 0.4644(14)
H14 H 1.7817 0.9553 0.3970
C12 C 1.7639(18) 0.9643(14) 0.5396(13)
C13 C 1.821(2) 1.020(2) 0.6358(17)
H15 H 1.7882 0.9955 0.6889
C14 C 1.921(2) 1.1137(18) 0.6595(15)
H16 H 1.9553 1.1563 0.7269
C15 C 1.6534(18) 0.8630(15) 0.5157(15)
C16 C 1.6083(15) 1.3273(12) 0.8359(12)
H17 H 1.6972 1.3531 0.8558
H18 H 1.5774 1.3379 0.7671
C17 C 1.6153(18) 1.1413(14) 0.7702(15)
H19 H 1.7035 1.1721 0.7871
H20 H 1.5789 1.1486 0.7012
C18 C 1.5839(18) 1.0199(14) 0.7782(16)
H21 H 1.6277 1.0120 0.8452
H22 H 1.6105 0.9807 0.7303
C19 C 1.4417(18) 0.9659(13) 0.7592(12)
H23 H 1.3987 0.9677 0.6901
C20 C 1.3995(18) 1.0355(14) 0.8289(15)
H24 H 1.3115 1.0061 0.8146
H25 H 1.4382 1.0295 0.8978
C21 C 1.4316(16) 1.1582(13) 0.8181(14)
H26 H 1.3898 1.1652 0.7502
H27 H 1.4042 1.1992 0.8643
C22 C 1.4215(16) 0.8481(13) 0.7728(13)
C23 C 0.2266(17) 0.1739(14) 0.0217(15)
C24 C 0.1089(17) 0.0841(14) 0.0114(14)
C25 C 0.085(2) 0.044(2) 0.0931(17)
H28 H 0.1433 0.0693 0.1568
C26 C 0.026(2) 0.036(2) -0.0833(16)
H29 H 0.0445 0.0564 -0.1411
Pb1A Pb 1.57804(6) 0.29820(5) 0.46568(5)
Pb1_2 Pb 0.42196(6) -0.29820(5) 0.53432(5)
Pb1A_2 Pb 0.57804(6) 1.29820(5) 0.46568(5)
Pb2A Pb 1.66164(6) 0.61212(5) 0.37703(4)
Pb2A_2 Pb 0.66164(6) 0.61212(5) 0.37703(4)
Pb2_2 Pb 2.33836(6) 1.38788(5) 0.62297(4)
Pb2_3 Pb 2.33836(6) 0.38788(5) 0.62297(4)
Pb2A_3 Pb 0.66164(6) -0.38788(5) 0.37703(4)
Pb3A Pb 2.49170(6) 0.65172(5) 0.84269(4)
Pb3A_2 Pb 1.49170(6) 1.65172(5) 0.84269(4)
Pb3_2 Pb 1.50830(6) 1.34828(5) 1.15731(4)
Pb3A_3 Pb 1.49170(6) 0.65172(5) 0.84269(4)
Pb3A_4 Pb -0.50830(6) -0.34828(5) -0.15731(4)
Pb3A_5 Pb 0.49170(6) 0.65172(5) -0.15731(4)
Pb3_3 Pb 0.50830(6) 1.34828(5) 0.15731(4)
Pb4A Pb 1.23248(6) 1.38823(5) 0.89704(5)
Pb4A_2 Pb 0.23248(6) 0.38823(5) -0.10296(5)
Pb4_2 Pb -0.23248(6) -0.38823(5) 0.10296(5)
Pb4_3 Pb 0.76752(6) 0.61177(5) 0.10296(5)
P1A P 1.6292(4) 0.5624(3) 0.6257(3)
P2A P 0.4452(4) 0.5892(3) 0.0829(3)
O1A O 1.5844(11) 0.4366(9) 0.6115(9)
O2A O 1.5252(10) 0.6076(9) 0.6419(8)
O3A O 1.6787(10) 0.6097(10) 0.5441(8)
O4A O 2.2585(12) 0.5420(11) 0.7514(10)
O5A O 2.2270(12) 0.5375(12) 0.5850(10)
O5A_2 O 1.2270(12) 0.5375(12) 0.5850(10)
O5_2 O 1.7730(12) 0.4625(12) 0.4150(10)
O6_2 O 1.1289(12) 0.2725(12) 0.5388(10)
O6A O 1.8711(12) 0.7275(12) 0.4612(10)
O7_2 O 1.1578(15) 0.2697(13) 0.7016(10)
O8_2 O 0.6092(12) -0.1957(10) 0.4304(10)
O8A O 1.3908(12) 0.1957(10) 0.5696(10)
O9_2 O 0.6108(15) -0.1580(12) 0.5879(12)
O9A O 1.3892(15) 0.1580(12) 0.4121(12)
O10A O 0.3588(10) 0.4707(8) 0.0670(8)
O10_2 O 2.6412(10) 0.5293(8) 0.9330(8)
O10A_2 O 1.3588(10) 1.4707(8) 1.0670(8)
O11A O 0.4272(12) 0.6378(10) -0.0141(9)
O11_2 O 0.5728(12) 0.3622(10) 0.0141(9)
O11A_2 O 2.4272(12) 0.6378(10) 0.9859(9)
O12A O 0.5783(10) 0.5975(9) 0.1396(9)
O12A_2 O 1.5783(10) 1.5975(9) 1.1396(9)
O13A O 0.5920(15) 1.2232(10) 0.2995(10)
O13A_2 O 1.5920(15) 0.2232(10) 0.2995(10)
O14A O 0.5735(14) 1.1779(11) 0.1406(10)
O14A_2 O 0.5735(14) 0.1779(11) 0.1406(10)
O14_2 O 2.4265(14) 0.8221(11) 0.8594(10)
O15A O -0.2406(14) -0.2160(11) 0.0550(12)
O15A_2 O 1.7594(14) 1.7840(11) 1.0550(12)
O15_2 O 1.2406(14) 1.2160(11) 0.9450(12)
O16A O -0.3070(14) -0.2013(12) -0.1063(13)
O16A_2 O 2.6930(14) 0.7987(12) 0.8937(13)
N1A N 1.8793(13) 0.6043(13) 0.7460(10)
H1A H 1.9243 0.6103 0.8112
N2A N 0.4319(13) 0.7945(11) 0.1598(10)
C1A C 1.7564(16) 0.6186(15) 0.7440(12)
H2A H 1.7350 0.5487 0.7666
H3A H 1.7442 0.6552 0.8023
C2A C 1.9503(16) 0.6944(15) 0.7011(14)
H4A H 1.9046 0.6881 0.6310
H5A H 1.9583 0.7663 0.7358
C3A C 2.0790(16) 0.6823(14) 0.7078(14)
H6A H 2.1219 0.7385 0.6774
H7A H 2.1259 0.6929 0.7782
C4A C 2.0695(15) 0.5654(13) 0.6556(12)
H8A H 2.0245 0.5560 0.5848
C5A C 1.9972(19) 0.4788(16) 0.7007(18)
H9A H 1.9881 0.4057 0.6678
H10A H 2.0419 0.4866 0.7713
C6A C 1.8717(15) 0.4954(14) 0.6923(16)
H11A H 1.8236 0.4371 0.7174
H12A H 1.8292 0.4905 0.6216
C7A C 2.1960(16) 0.5474(14) 0.6641(14)
C8_2 C 1.0946(18) 0.2355(16) 0.6126(14)
C9_2 C 0.9754(17) 0.1446(14) 0.5840(14)
C10_2 C 0.9182(15) 0.0898(15) 0.4863(13)
H13_2 H 0.9493 0.1155 0.4327
C11_2 C 0.8162(17) -0.0023(15) 0.4644(14)
H14_2 H 0.7817 -0.0447 0.3970
C12_2 C 0.7639(18) -0.0357(14) 0.5396(13)
C13_2 C 0.821(2) 0.020(2) 0.6358(17)
H15_2 H 0.7882 -0.0045 0.6889
C14_2 C 0.921(2) 0.1137(18) 0.6595(15)
H16_2 H 0.9553 0.1563 0.7269
C15_2 C 0.6534(18) -0.1370(15) 0.5157(15)
C16A C 0.3917(15) 0.6727(12) 0.1641(12)
H17A H 0.3028 0.6469 0.1442
H18A H 0.4226 0.6621 0.2329
C17A C 0.3847(18) 0.8587(14) 0.2298(15)
H19A H 0.2965 0.8279 0.2129
H20A H 0.4211 0.8514 0.2988
C18A C 0.4161(18) 0.9801(14) 0.2218(16)
H21A H 0.3723 0.9880 0.1548
H22A H 0.3895 1.0193 0.2697
C19A C 0.5583(18) 1.0341(13) 0.2408(12)
H23A H 0.6013 1.0323 0.3099
C20A C 0.6005(18) 0.9645(14) 0.1711(15)
H24A H 0.6885 0.9939 0.1854
H25A H 0.5618 0.9705 0.1022
C21A C 0.5684(16) 0.8418(13) 0.1819(14)
H26A H 0.6102 0.8348 0.2498
H27A H 0.5958 0.8008 0.1357
C22A C 0.5785(16) 1.1519(13) 0.2272(13)
C23A C -0.2266(17) -0.1739(14) -0.0217(15)
C24A C -0.1089(17) -0.0841(14) -0.0114(14)
C25A C -0.085(2) -0.044(2) -0.0931(17)
H28A H -0.1433 -0.0693 -0.1568
C26A C -0.026(2) -0.036(2) 0.0833(16)
H29A H -0.0445 -0.0564 0.1411
O17 O 0.2879(16) 0.8336(14) 0.9838(11)
H30 H 0.2583 0.7736 1.0035
H31 H 0.2315 0.8464 0.9373
O18 O 0.974(3) 0.643(2) 0.9928(17)
H32 H 0.9290 0.5763 0.9854
H33 H 0.9518 0.6855 1.0300
loop_
_geom_bond_atom_site_label_1
_geom_bond_atom_site_label_2
_geom_bond_site_symmetry_1
_geom_bond_site_symmetry_2
Pb1 O1 1_555 1_555
Pb2 O3 1_555 1_555
Pb3 O4 1_555 1_555
Pb4 O10 1_555 1_555
P1 O1 1_555 1_555
P2 O10 1_555 1_555
O2 P1 1_555 1_555
O3 P1 1_555 1_555
O4 C7 1_555 1_555
O5 C7 1_555 1_555
O6 C8 1_555 1_555
O7 C8 1_555 1_555
O8 C15 1_555 1_555
O9 Pb1 1_555 1_555
O10 Pb3A_2 1_555 1_555
O11 P2 1_555 1_555
O12 P2 1_555 1_555
O13 Pb1 1_555 1_555
O14 C22 1_555 1_555
O15 C23 1_555 1_555
O16 Pb3 1_555 1_555
N1 H1 1_555 1_555
N2 C16 1_555 1_555
C1 P1 1_555 1_555
H2 C1 1_555 1_555
H3 C1 1_555 1_555
C2 N1 1_555 1_555
H4 C2 1_555 1_555
H5 C2 1_555 1_555
C3 C2 1_555 1_555
H6 C3 1_555 1_555
H7 C3 1_555 1_555
C4 C3 1_555 1_555
H8 C4 1_555 1_555
C5 C4 1_555 1_555
H9 C5 1_555 1_555
H10 C5 1_555 1_555
C6 N1 1_555 1_555
H11 C6 1_555 1_555
H12 C6 1_555 1_555
C7 C4 1_555 1_555
C8 C9 1_555 1_555
C9 C10 1_555 1_555
C10 H13 1_555 1_555
C11 C10 1_555 1_555
H14 C11 1_555 1_555
C12 C11 1_555 1_555
C13 C12 1_555 1_555
H15 C13 1_555 1_555
C14 C9 1_555 1_555
H16 C14 1_555 1_555
C15 O9 1_555 1_555
C16 P2 1_555 1_555
H17 C16 1_555 1_555
H18 C16 1_555 1_555
C17 N2 1_555 1_555
H19 C17 1_555 1_555
H20 C17 1_555 1_555
C18 C17 1_555 1_555
H21 C18 1_555 1_555
H22 C18 1_555 1_555
C19 C18 1_555 1_555
H23 C19 1_555 1_555
C20 C19 1_555 1_555
H24 C20 1_555 1_555
H25 C20 1_555 1_555
C21 N2 1_555 1_555
H26 C21 1_555 1_555
H27 C21 1_555 1_555
C22 O13 1_555 1_555
C23 O16 1_555 1_555
C24 C23 1_555 1_555
C25 C24 1_555 1_555
H28 C25 1_555 1_555
C26 C24 1_555 1_555
H29 C26 1_555 1_555
O17 H30 1_555 1_555
H31 O17 1_555 1_555
O18 H32 1_555 1_555
H33 O18 1_555 1_555
Pb1A O2 1_555 1_555
Pb1_2 O9_2 1_555 1_555
Pb1A_2 O13A 1_555 1_555
Pb2A O8 1_555 1_555
Pb2A_2 O5 1_555 1_555
Pb2_2 O6 1_555 1_555
Pb2_3 O5A 1_555 1_555
Pb2A_3 O8_2 1_555 1_555
Pb3A O4A 1_555 1_555
Pb3_2 O11 1_555 1_555
Pb3A_3 O14 1_555 1_555
Pb3A_4 O16A 1_555 1_555
Pb3A_5 O11A 1_555 1_555
Pb3_3 O14A 1_555 1_555
Pb4A O12 1_555 1_555
Pb4A_2 O15 1_555 1_555
Pb4_2 O15A 1_555 1_555
Pb4_3 O12A 1_555 1_555
P1A O1A 1_555 1_555
P2A O10A 1_555 1_555
O1A Pb1A 1_555 1_555
O2A Pb1 1_555 1_555
O3A Pb2A 1_555 1_555
O4A C7A 1_555 1_555
O5A C7A 1_555 1_555
O5A_2 Pb2 1_555 1_555
O5_2 Pb2A 1_555 1_555
O6_2 Pb2 1_555 1_555
O6A Pb2A 1_555 1_555
O7_2 C8_2 1_555 1_555
O8_2 C15_2 1_555 1_555
O8A Pb2 1_555 1_555
O9_2 C15_2 1_555 1_555
O9A Pb1A 1_555 1_555
O10A Pb3 1_555 1_555
O10_2 Pb3A 1_555 1_555
O10A_2 Pb3_2 1_555 1_555
O11A P2A 1_555 1_555
O11_2 Pb3 1_555 1_555
O11A_2 Pb3A 1_555 1_555
O12A P2A 1_555 1_555
O12A_2 Pb4 1_555 1_555
O13A C22A 1_555 1_555
O13A_2 Pb1A 1_555 1_555
O14A C22A 1_555 1_555
O14A_2 Pb3 1_555 1_555
O14_2 Pb3A 1_555 1_555
O15A C23A 1_555 1_555
O15A_2 Pb4 1_555 1_555
O15_2 Pb4A 1_555 1_555
O16A C23A 1_555 1_555
O16A_2 Pb3A 1_555 1_555
N1A H1A 1_555 1_555
N2A C16A 1_555 1_555
C1A P1A 1_555 1_555
H2A C1A 1_555 1_555
H3A C1A 1_555 1_555
C2A N1A 1_555 1_555
H4A C2A 1_555 1_555
H5A C2A 1_555 1_555
C3A C2A 1_555 1_555
H6A C3A 1_555 1_555
H7A C3A 1_555 1_555
C4A C3A 1_555 1_555
H8A C4A 1_555 1_555
C5A C4A 1_555 1_555
H9A C5A 1_555 1_555
H10A C5A 1_555 1_555
C6A N1A 1_555 1_555
H11A C6A 1_555 1_555
H12A C6A 1_555 1_555
C7A C4A 1_555 1_555
C8_2 O6_2 1_555 1_555
C9_2 C8_2 1_555 1_555
C10_2 C9_2 1_555 1_555
H13_2 C10_2 1_555 1_555
C11_2 C10_2 1_555 1_555
H14_2 C11_2 1_555 1_555
C12_2 C11_2 1_555 1_555
C13_2 C12_2 1_555 1_555
H15_2 C13_2 1_555 1_555
C14_2 C9_2 1_555 1_555
H16_2 C14_2 1_555 1_555
C15_2 C12_2 1_555 1_555
C16A P2A 1_555 1_555
H17A C16A 1_555 1_555
H18A C16A 1_555 1_555
C17A N2A 1_555 1_555
H19A C17A 1_555 1_555
H20A C17A 1_555 1_555
C18A C17A 1_555 1_555
H21A C18A 1_555 1_555
H22A C18A 1_555 1_555
C19A C18A 1_555 1_555
H23A C19A 1_555 1_555
C20A C19A 1_555 1_555
H24A C20A 1_555 1_555
H25A C20A 1_555 1_555
C21A N2A 1_555 1_555
H26A C21A 1_555 1_555
H27A C21A 1_555 1_555
C22A C19A 1_555 1_555
C23A C24A 1_555 1_555
C24A C25A 1_555 1_555
C25A C26 1_555 1_555
H28A C25A 1_555 1_555
C26A C25 1_555 1_555
H29A C26A 1_555 1_555
N1 C1 1_555 1_555
C5 C6 1_555 1_555
C12 C15 1_555 1_555
C13 C14 1_555 1_555
C19 C22 1_555 1_555
C20 C21 1_555 1_555
Pb4A O10A_2 1_555 1_555
Pb4A_2 O10A 1_555 1_555
P1A O2A 1_555 1_555
P1A O3A 1_555 1_555
N1A C1A 1_555 1_555
C5A C6A 1_555 1_555
C13_2 C14_2 1_555 1_555
C20A C21A 1_555 1_555
C24A C26A 1_555 1_555

#END
