
#######################################################################
#
#                 Cambridge Crystallographic Data Centre
#                                CCDC 
#
#######################################################################
#
# If this CIF has been generated from an entry in the Cambridge 
# Structural Database, then it will include bibliographic, chemical, 
# crystal, experimental, refinement or atomic coordinate data resulting 
# from the CCDC's data processing and validation procedures.
#
#######################################################################

data_DAMQOY
_symmetry_cell_setting           monoclinic
_symmetry_space_group_name_H-M   'P 21/c'
_symmetry_Int_Tables_number      14
_space_group_name_Hall           '-P 2ybc'
loop_
_symmetry_equiv_pos_site_id
_symmetry_equiv_pos_as_xyz
1 x,y,z
2 -x,1/2+y,1/2-z
3 -x,-y,-z
4 x,1/2-y,1/2+z
_cell_length_a                   7.6511(7)
_cell_length_b                   10.6581(10)
_cell_length_c                   15.0566(14)
_cell_angle_alpha                90
_cell_angle_beta                 93.076(2)
_cell_angle_gamma                90
_cell_volume                     1226.04
loop_
_atom_site_label
_atom_site_type_symbol
_atom_site_fract_x
_atom_site_fract_y
_atom_site_fract_z
Cu1 Cu 0.11937(5) 0.91288(4) 0.00649(3)
O1 O -0.0449(3) 0.8333(2) -0.08135(17)
O2 O -0.2493(3) 0.9813(2) -0.09263(17)
O3 O -0.0212(4) 0.6438(3) -0.39510(17)
O4 O -0.2322(3) 0.5003(2) -0.41180(17)
O5 O -0.7223(4) 0.7274(3) -0.26177(19)
H1 H -0.7586 0.6808 -0.3020
O6 O 0.2729(4) 0.7443(3) 0.02248(18)
N1 N 0.2566(6) 0.5391(4) -0.0083(3)
C1 C -0.1839(5) 0.8786(3) -0.1141(2)
C2 C -0.2791(5) 0.8034(3) -0.1855(2)
C3 C -0.4597(5) 0.8025(4) -0.1937(2)
H2 H -0.5244 0.8516 -0.1563
C4 C -0.5437(5) 0.7281(4) -0.2580(3)
C5 C -0.1655(5) 0.5968(3) -0.3773(2)
C6 C -0.2675(5) 0.6638(3) -0.3095(2)
C7 C -0.4482(5) 0.6578(4) -0.3154(2)
H3 H -0.5052 0.6067 -0.3578
C8 C -0.1821(5) 0.7350(3) -0.2435(2)
H4 H -0.0604 0.7368 -0.2382
C9 C 0.2551(6) 0.6582(4) -0.0304(3)
H5 H 0.2393 0.6781 -0.0904
C10 C 0.2749(10) 0.5015(6) 0.0826(5)
H6 H 0.2931 0.5742 0.1196
H7 H 0.3733 0.4461 0.0909
H8 H 0.1706 0.4588 0.0986
C11 C 0.2414(11) 0.4410(6) -0.0746(7)
H9 H 0.2441 0.4773 -0.1328
H10 H 0.1328 0.3971 -0.0693
H11 H 0.3371 0.3833 -0.0656
Cu1B Cu -0.11937(5) 1.08712(4) -0.00649(3)
O2B O 0.2493(3) 1.0187(2) 0.09263(17)
O3C O -0.0212(4) 0.8562(3) 0.10490(17)
O4A O 0.2322(3) 1.0003(2) -0.08820(17)
Cu1C Cu 0.11937(5) 0.58712(4) -0.49351(3)
Cu1A Cu -0.11937(5) 0.41288(4) -0.50649(3)
loop_
_geom_bond_atom_site_label_1
_geom_bond_atom_site_label_2
_geom_bond_site_symmetry_1
_geom_bond_site_symmetry_2
Cu1 O1 1_555 1_555
O1 C1 1_555 1_555
O2 C1 1_555 1_555
O3 C5 1_555 1_555
O4 C5 1_555 1_555
O5 H1 1_555 1_555
O6 Cu1 1_555 1_555
N1 C9 1_555 1_555
C1 C2 1_555 1_555
C2 C3 1_555 1_555
C3 H2 1_555 1_555
C4 O5 1_555 1_555
C5 C6 1_555 1_555
C6 C7 1_555 1_555
C7 C4 1_555 1_555
H3 C7 1_555 1_555
C8 C2 1_555 1_555
H4 C8 1_555 1_555
C9 O6 1_555 1_555
H5 C9 1_555 1_555
C10 N1 1_555 1_555
H6 C10 1_555 1_555
H7 C10 1_555 1_555
H8 C10 1_555 1_555
C11 N1 1_555 1_555
H9 C11 1_555 1_555
H10 C11 1_555 1_555
H11 C11 1_555 1_555
Cu1B Cu1 1_555 1_555
O2B Cu1 1_555 1_555
O3C Cu1 1_555 1_555
O4A Cu1 1_555 1_555
Cu1C O3 1_555 1_555
Cu1A O4 1_555 1_555
O2 Cu1B 1_555 1_555
C3 C4 1_555 1_555
C6 C8 1_555 1_555
Cu1C Cu1A 1_555 1_555

#END
