
#######################################################################
#
#                 Cambridge Crystallographic Data Centre
#                                CCDC 
#
#######################################################################
#
# If this CIF has been generated from an entry in the Cambridge 
# Structural Database, then it will include bibliographic, chemical, 
# crystal, experimental, refinement or atomic coordinate data resulting 
# from the CCDC's data processing and validation procedures.
#
#######################################################################

data_DAMROA
_symmetry_cell_setting           hexagonal
_symmetry_space_group_name_H-M   'P 61 2 2'
_symmetry_Int_Tables_number      178
_space_group_name_Hall           "P 61 2' (0,0,5)"
loop_
_symmetry_equiv_pos_site_id
_symmetry_equiv_pos_as_xyz
1 x,y,z
2 x-y,x,1/6+z
3 -y,x-y,1/3+z
4 -x,-y,1/2+z
5 -x+y,-x,2/3+z
6 y,-x+y,5/6+z
7 x-y,-y,-z
8 -x,-x+y,2/3-z
9 y,x,1/3-z
10 -y,-x,5/6-z
11 -x+y,y,1/2-z
12 x,x-y,1/6-z
_cell_length_a                   18.3733(5)
_cell_length_b                   18.3733(5)
_cell_length_c                   73.386(2)
_cell_angle_alpha                90
_cell_angle_beta                 90
_cell_angle_gamma                120
_cell_volume                     21454.5
loop_
_atom_site_label
_atom_site_type_symbol
_atom_site_fract_x
_atom_site_fract_y
_atom_site_fract_z
K2 K 0.2163(8) 0.2129(8) 0.9659(2)
K3 K 0.7135(10) 0.0817(8) 0.9642(3)
Na1 Na 0.3633(10) 0.0000 1.0000
Na2 Na 0.9263(9) 0.4373(10) 0.9992(2)
O1 O 0.155(10) 0.066(10) 0.9833(18)
O2 O 0.180(7) 0.139(7) 0.9336(13)
O3 O 0.856(8) 0.148(8) 0.9730(17)
O4 O 0.987(7) 0.754(7) 0.9352(14)
O5 O 0.029(8) 0.341(9) 0.9361(15)
O6 O 0.177(7) 0.308(7) 0.9305(15)
O7 O 0.977(8) 0.911(8) 0.9699(18)
O8 O 0.809(8) 0.777(7) 0.9400(15)
O9 O 0.841(9) 0.895(8) 1.0147(17)
O10 O 0.980(11) 0.902(11) 0.933(2)
O11 O 0.138(13) 0.052(12) 0.977(2)
O12 O 0.831(8) 0.907(8) 0.9894(17)
O13 O 1.014(8) 1.019(8) 0.9377(16)
O14 O 0.502(7) 0.728(7) 0.9344(14)
O15 O 0.831(12) 0.969(9) 0.9389(19)
O16 O 0.755(11) 0.0000 1.0000
O17 O 0.115(7) 0.629(7) 0.9258(14)
O18 O 0.752(7) 0.757(7) 0.9785(14)
O19 O 0.773(8) 0.125(8) 0.9313(15)
O20 O 0.666(7) -0.127(7) 0.9645(14)
O21 O 0.990(8) 0.202(8) 0.9412(16)
O22 O 0.624(8) -0.053(7) 0.9328(14)
O23 O 0.764(8) -0.031(7) 0.9762(15)
O24 O 1.017(10) 0.867(10) 0.951(2)
O25 O 0.950(7) 0.120(8) 0.9265(15)
O26 O 0.449(7) 0.776(7) 0.9152(14)
O27 O 0.924(14) 0.892(11) 1.013(3)
O28 O 1.096(11) 0.982(11) 0.925(2)
O29 O 0.881(8) 0.810(8) 0.9847(15)
O30 O 0.902(9) 0.997(9) 0.9772(17)
O31 O 0.876(9) 0.174(7) 0.9401(15)
O32 O 0.94(2) 1.0000 1.0000
O33 O 0.124(8) 0.300(7) 0.8981(14)
O34 O 0.062(7) 0.206(7) 0.9703(15)
O35 O 0.921(8) 0.218(8) 0.9849(16)
O36 O 0.080(9) 0.434(11) 0.9333(18)
O37 O 0.759(9) 0.013(10) 0.9379(17)
O38 O 0.174(7) 0.896(7) 0.9350(13)
O39 O 0.992(10) 1.011(9) 0.964(2)
O40 O 0.972(8) 0.885(8) 0.995(2)
O41 O 0.915(11) 0.986(7) 0.9461(18)
O42 O 1.055(11) 1.120(11) 0.918(2)
O43 O 0.190(9) 0.778(10) 0.9321(17)
O44 O 0.229(9) 0.280(10) 0.9073(19)
Sb1 Sb 0.51392(15) 0.20560(15) 1.02284(3)
Sb2 Sb 0.72076(14) 0.38148(15) 1.02239(3)
Sb3 Sb 0.54425(15) 0.41241(15) 1.02303(3)
Sb4 Sb 0.62285(15) 0.24129(15) 0.94054(3)
Sb5 Sb 0.68036(15) 0.45744(15) 0.94072(3)
Sb6 Sb 1.16417(15) 0.70136(16) 1.05885(3)
Fe1 Fe 0.5916(3) 0.3335(3) 0.98190(7)
Fe2 Fe 0.6309(3) 0.5186(3) 0.98180(7)
Fe3 Fe 0.4064(3) 0.1869(3) 0.98227(7)
Fe4 Fe 0.7372(3) 0.2957(3) 0.98139(7)
Fe5 Fe 0.5523(5) 0.1281(5) 0.98128(12)
Fe6 Fe 0.7959(5) 0.4981(5) 0.98102(13)
Fe7 Fe 1.0535(5) 0.6272(5) 1.01787(11)
O45 O 1.1636(18) 0.9054(18) 0.9730(4)
O46 O 1.2327(17) 0.8885(17) 0.9963(4)
O47 O 1.1067(15) 0.7556(15) 1.0082(3)
O48 O 1.1462(14) 0.7081(14) 0.9755(3)
O49 O 0.9194(14) 0.6160(14) 0.9794(3)
O50 O 1.0019(15) 0.5698(15) 0.9872(3)
O51 O 0.6209(14) 0.5818(13) 1.0035(3)
O52 O 0.6937(18) 0.6696(18) 1.0265(4)
O53 O 0.7475(14) 0.5768(14) 0.9907(3)
O54 O 0.7137(17) 0.4832(17) 1.0235(4)
O55 O 0.8477(18) 0.5000(18) 1.0109(4)
O56 O 0.9296(18) 0.6293(18) 1.0195(4)
O57 O 0.8142(15) 0.3028(15) 1.0027(3)
O58 O 0.8262(19) 0.232(2) 1.0258(4)
O59 O 0.6830(15) 0.1791(15) 0.9908(3)
O60 O 0.6248(13) 0.2161(13) 1.0241(3)
O61 O 0.4968(15) 0.0750(15) 1.0122(3)
O62 O 0.569(2) 0.001(2) 1.0180(4)
O63 O 0.269(2) 0.053(2) 0.9382(5)
O64 O 0.3225(13) 0.1425(14) 0.9615(3)
O65 O 0.4233(15) 0.0938(15) 0.9734(3)
O66 O 0.4976(11) 0.1756(12) 0.9381(3)
O67 O 0.5842(15) 0.1042(15) 0.9499(3)
O68 O 0.4792(18) -0.0297(17) 0.9407(4)
O69 O 0.7770(16) 0.2536(16) 0.9600(3)
O70 O 0.881(2) 0.306(2) 0.9387(4)
O71 O 0.8323(16) 0.4053(17) 0.9712(3)
O72 O 0.7472(18) 0.3897(18) 0.9395(4)
O73 O 0.8172(17) 0.5526(17) 0.9475(4)
O74 O 0.9475(15) 0.5759(15) 0.9417(3)
O75 O 1.0633(18) 0.4000(18) 1.0397(4)
O76 O 0.979(3) 0.355(3) 1.0630(5)
O77 O 1.0188(13) 0.4922(13) 1.0273(3)
O78 O 1.0927(16) 0.5742(16) 1.0607(4)
O79 O 1.0294(17) 0.6614(16) 1.0498(3)
O80 O 0.896(3) 0.563(3) 1.0583(6)
O81 O 0.5893(14) 0.3297(14) 0.9361(3)
O82 O 0.5952(15) 0.3340(15) 1.0272(3)
O83 O 0.5166(12) 0.2274(12) 0.9961(3)
O84 O 0.6989(13) 0.3648(13) 0.9963(3)
O85 O 0.5667(14) 0.4093(14) 0.9966(3)
O86 O 0.6322(15) 0.2628(15) 0.9678(3)
O87 O 0.6601(14) 0.4386(15) 0.9671(3)
O88 O 1.1915(14) 0.7088(14) 1.0327(3)
C1 C 1.164(3) 0.869(3) 0.9835(6)
C2 C 1.0863(18) 0.7751(18) 0.9913(4)
C3 C 1.074(2) 0.721(3) 0.9770(5)
C4 C 0.990(2) 0.641(2) 0.9807(5)
C5 C 0.681(3) 0.616(3) 1.0133(5)
C6 C 0.761(3) 0.619(3) 1.0070(5)
C7 C 0.7840(19) 0.5649(19) 1.0223(4)
C8 C 0.868(3) 0.579(3) 1.0168(6)
C9 C 0.788(2) 0.236(2) 1.0116(5)
C10 C 0.705(2) 0.164(3) 1.0071(5)
C11 C 0.637(2) 0.143(2) 1.0223(5)
C12 C 0.5596(18) 0.0708(17) 1.0185(4)
C13 C 0.326(2) 0.089(2) 0.9500(4)
C14 C 0.382(2) 0.059(2) 0.9554(5)
C15 C 0.440(2) 0.086(2) 0.9401(4)
C16 C 0.5142(19) 0.0547(19) 0.9447(4)
C17 C 0.839(3) 0.304(2) 0.9522(5)
C18 C 0.868(2) 0.404(2) 0.9556(4)
C19 C 0.835(2) 0.447(2) 0.9399(5)
C20 C 0.874(2) 0.533(2) 0.9433(5)
C21 C 1.012(2) 0.407(2) 1.0508(5)
C22 C 0.983(2) 0.464(2) 1.0424(5)
C23 C 0.995(2) 0.523(2) 1.0590(5)
C24 C 0.972(2) 0.587(2) 1.0541(5)
Sb1F Sb 0.30832(21) 0.79440(15) 0.97716(3)
Sb1F_2 Sb 1.30832(21) 0.79440(15) 0.97716(3)
Sb2F Sb 0.33928(21) 0.61852(15) 0.97761(3)
Sb3F Sb 1.13184(21) 0.58759(15) 0.97697(3)
Sb3F_2 Sb 0.13184(21) 0.58759(15) 0.97697(3)
Sb4F Sb 1.38156(21) 0.75871(15) 1.05946(3)
Sb5F Sb 0.22292(21) 0.54256(15) 1.05928(3)
Sb5F_2 Sb 1.22292(21) 0.54256(15) 1.05928(3)
Sb6F Sb 0.46281(22) 0.29864(16) 0.94115(3)
Fe1F Fe 1.2581(4) 0.6665(3) 1.01810(7)
Fe1F_2 Fe 0.2581(4) 0.6665(3) 1.01810(7)
Fe2F Fe 0.1123(4) 0.4814(3) 1.01820(7)
Fe2F_2 Fe 1.1123(4) 0.4814(3) 1.01820(7)
Fe3F Fe 1.2195(4) 0.8131(3) 1.01773(7)
Fe4F Fe 0.4415(4) 0.7043(3) 1.01861(7)
Fe4F_2 Fe 1.4415(4) 0.7043(3) 1.01861(7)
Fe5F Fe 1.4242(7) 0.8719(5) 1.01872(12)
Fe5F_2 Fe 0.4242(7) 0.8719(5) 1.01872(12)
Fe6F Fe 0.2978(7) 0.5019(5) 1.01898(13)
Fe6F_2 Fe 1.2978(7) 0.5019(5) 1.01898(13)
Fe7F Fe 0.4263(7) 0.3728(5) 0.98213(11)
O45F O 0.2582(25) 0.0946(18) 1.0270(4)
O46F O 0.3442(24) 0.1115(17) 1.0037(4)
O47F O 0.3511(21) 0.2444(15) 0.9918(3)
O48F O 0.4381(20) 0.2919(14) 1.0245(3)
O49F O 0.3034(20) 0.3840(14) 1.0206(3)
O50F O 0.4321(21) 0.4302(15) 1.0128(3)
O51F O 0.0391(19) 0.4182(13) 0.9965(3)
O52F O 0.0241(25) 0.3304(18) 0.9735(4)
O53F O 0.1707(20) 0.4232(14) 1.0093(3)
O54F O 0.2305(24) 0.5168(17) 0.9765(4)
O55F O 0.3477(25) 0.5000(18) 0.9891(4)
O56F O 0.3003(25) 0.3707(18) 0.9805(4)
O57F O 0.5114(21) 0.6972(15) 0.9973(3)
O58F O 0.5942(28) 0.768(2) 0.9742(4)
O59F O 0.5039(21) 0.8209(15) 1.0092(3)
O59F_2 O 1.5039(21) 0.8209(15) 1.0092(3)
O60F O 0.4087(18) 0.7839(13) 0.9759(3)
O61F O 0.4218(21) 0.9250(15) 0.9878(3)
O61F_2 O 1.4218(21) 0.9250(15) 0.9878(3)
O62F O 0.568(3) 0.999(2) 0.9820(4)
O63F O 1.216(3) 0.947(2) 1.0618(5)
O64F O 1.1800(19) 0.8575(14) 1.0385(3)
O65F O 1.3295(21) 0.9062(15) 1.0266(3)
O66F O 1.3220(16) 0.8244(12) 1.0619(3)
O67F O 1.4800(21) 0.8958(15) 1.0501(3)
O68F O 1.5089(25) 1.0297(17) 1.0593(4)
O69F O 0.5234(23) 0.7464(16) 1.0400(3)
O70F O 0.575(3) 0.694(2) 1.0613(4)
O71F O 0.4270(23) 0.5947(17) 1.0288(3)
O72F O 0.3575(25) 0.6103(18) 1.0605(4)
O73F O 0.2646(24) 0.4474(17) 1.0525(4)
O74F O 0.3716(21) 0.4241(15) 1.0583(3)
O75F O 0.6633(25) 0.6000(18) 0.9603(4)
O75_2 O 0.0633(18) 0.4000(18) 1.0397(4)
O76F O 0.624(4) 0.645(3) 0.9370(5)
O77F O 0.5266(18) 0.5078(13) 0.9727(3)
O77_2 O 0.0188(13) 0.4922(13) 1.0273(3)
O78F O 0.5185(23) 0.4258(16) 0.9393(4)
O79F O 0.3680(23) 0.3386(16) 0.9502(3)
O80F O 0.333(4) 0.437(3) 0.9417(6)
O81F O 1.2596(20) 0.6703(14) 1.0639(3)
O81F_2 O 0.2596(20) 0.6703(14) 1.0639(3)
O82F O 0.2612(21) 0.6660(15) 0.9728(3)
O82F_2 O 1.2612(21) 0.6660(15) 0.9728(3)
O83F O 1.2892(17) 0.7726(12) 1.0039(3)
O83F_2 O 0.2892(17) 0.7726(12) 1.0039(3)
O84F O 0.3341(18) 0.6352(13) 1.0037(3)
O84F_2 O 1.3341(18) 0.6352(13) 1.0037(3)
O85F O 1.1574(20) 0.5907(14) 1.0034(3)
O85F_2 O 0.1574(20) 0.5907(14) 1.0034(3)
O86F O 1.3694(21) 0.7372(15) 1.0322(3)
O86F_2 O 0.3694(21) 0.7372(15) 1.0322(3)
O87F O 1.2215(21) 0.5614(15) 1.0329(3)
O87F_2 O 0.2215(21) 0.5614(15) 1.0329(3)
O88F O 0.4827(20) 0.2912(14) 0.9673(3)
C1F C 0.295(4) 0.131(3) 1.0165(6)
C2F C 0.3112(25) 0.2249(18) 1.0087(4)
C3F C 0.353(4) 0.279(3) 1.0230(5)
C4F C 0.349(3) 0.359(2) 1.0193(5)
C5F C 0.065(4) 0.384(3) 0.9867(5)
C6F C 0.142(4) 0.381(3) 0.9930(5)
C7F C 0.2191(27) 0.4351(19) 0.9777(4)
C8F C 0.289(4) 0.421(3) 0.9832(6)
C9F C 0.552(3) 0.764(2) 0.9884(5)
C10F C 0.541(4) 0.836(3) 0.9929(5)
C11F C 0.494(3) 0.857(2) 0.9777(5)
C12F C 0.4888(25) 0.9292(17) 0.9815(4)
C13F C 1.237(3) 0.911(2) 1.0500(4)
C14F C 1.323(3) 0.941(2) 1.0446(5)
C15F C 1.354(3) 0.914(2) 1.0599(4)
C16F C 1.4595(27) 0.9453(19) 1.0553(4)
C17F C 0.535(4) 0.696(2) 1.0478(5)
C18F C 0.464(3) 0.596(2) 1.0444(4)
C19F C 0.388(3) 0.553(2) 1.0601(5)
C20F C 0.341(3) 0.467(2) 1.0567(5)
C21F C 0.605(3) 0.593(2) 0.9492(5)
C22F C 0.519(3) 0.536(2) 0.9576(5)
C23F C 0.472(3) 0.477(2) 0.9410(5)
C24F C 0.385(3) 0.413(2) 0.9459(5)
K1 K 0.8418(8) 0.7053(8) 0.96309(18)
O89? O 0.836(10) 0.377(10) 0.931(2)
loop_
_geom_bond_atom_site_label_1
_geom_bond_atom_site_label_2
_geom_bond_site_symmetry_1
_geom_bond_site_symmetry_2
Sb1 O60 1_555 1_555
Sb2 O54 1_555 1_555
Sb3 O82 1_555 1_555
Sb4 O66 1_555 1_555
Sb5 O72 1_555 1_555
Sb6 O78 1_555 1_555
Fe1 O83 1_555 1_555
Fe2 O51 1_555 1_555
Fe3 O64 1_555 1_555
Fe4 O57 1_555 1_555
Fe5 O59 1_555 1_555
Fe6 O49 1_555 1_555
Fe7 O47 1_555 1_555
O45 C1 1_555 1_555
O46 C1 1_555 1_555
O47 C2 1_555 1_555
O48 C3 1_555 1_555
O49 C4 1_555 1_555
O50 Fe7 1_555 1_555
O51 C5 1_555 1_555
O52 C5 1_555 1_555
O53 Fe2 1_555 1_555
O54 C7 1_555 1_555
O55 Fe6 1_555 1_555
O56 Fe7 1_555 1_555
O57 C9 1_555 1_555
O58 C9 1_555 1_555
O59 Fe4 1_555 1_555
O60 C11 1_555 1_555
O61 Sb1 1_555 1_555
O62 C12 1_555 1_555
O63 C13 1_555 1_555
O64 C13 1_555 1_555
O65 Fe3 1_555 1_555
O66 C15 1_555 1_555
O67 Sb4 1_555 1_555
O68 C16 1_555 1_555
O69 Fe4 1_555 1_555
O70 C17 1_555 1_555
O71 Fe4 1_555 1_555
O72 C19 1_555 1_555
O73 Sb5 1_555 1_555
O74 C20 1_555 1_555
O75 C21 1_555 1_555
O76 C21 1_555 1_555
O77 Fe7 1_555 1_555
O78 C23 1_555 1_555
O79 Sb6 1_555 1_555
O80 C24 1_555 1_555
O81 Sb4 1_555 1_555
O82 Sb1 1_555 1_555
O83 Sb1 1_555 1_555
O84 Sb2 1_555 1_555
O85 Sb3 1_555 1_555
O86 Sb4 1_555 1_555
O87 Sb5 1_555 1_555
O88 Sb6 1_555 1_555
C1 C2 1_555 1_555
C2 C3 1_555 1_555
C3 C4 1_555 1_555
C4 O50 1_555 1_555
C5 C6 1_555 1_555
C6 O53 1_555 1_555
C7 C6 1_555 1_555
C8 O55 1_555 1_555
C9 C10 1_555 1_555
C10 O59 1_555 1_555
C11 C10 1_555 1_555
C12 O61 1_555 1_555
C13 C14 1_555 1_555
C14 O65 1_555 1_555
C15 C14 1_555 1_555
C16 O67 1_555 1_555
C17 O69 1_555 1_555
C18 O71 1_555 1_555
C19 C18 1_555 1_555
C20 O73 1_555 1_555
C21 C22 1_555 1_555
C22 O77 1_555 1_555
C23 C22 1_555 1_555
C24 O79 1_555 1_555
Sb1F O60F 1_555 1_555
Sb1F_2 O61F_2 1_555 1_555
Sb2F O54F 1_555 1_555
Sb3F O48 1_555 1_555
Sb3F_2 O82F 1_555 1_555
Sb4F O66F 1_555 1_555
Sb5F O72F 1_555 1_555
Sb5F_2 O81F 1_555 1_555
Sb6F O81 1_555 1_555
Fe1F O88 1_555 1_555
Fe1F_2 O83F_2 1_555 1_555
Fe2F O51F 1_555 1_555
Fe2F_2 O75 1_555 1_555
Fe3F O46 1_555 1_555
Fe4F O57F 1_555 1_555
Fe4F_2 O59F_2 1_555 1_555
Fe5F O59F_2 1_555 1_555
Fe5F_2 O59F 1_555 1_555
Fe6F O49F 1_555 1_555
Fe6F_2 O84F_2 1_555 1_555
Fe7F O47F 1_555 1_555
O45F C1F 1_555 1_555
O46F Fe3 1_555 1_555
O47F Fe3 1_555 1_555
O48F Sb3 1_555 1_555
O49F C4F 1_555 1_555
O50F Sb3 1_555 1_555
O51F C5F 1_555 1_555
O52F C5F 1_555 1_555
O53F Fe2F 1_555 1_555
O54F C7F 1_555 1_555
O55F Fe6F 1_555 1_555
O56F Fe7F 1_555 1_555
O57F C9F 1_555 1_555
O58F C9F 1_555 1_555
O59F Fe4F 1_555 1_555
O60F C11F 1_555 1_555
O61F Sb1F 1_555 1_555
O61F_2 Fe5F 1_555 1_555
O62F C12F 1_555 1_555
O63F C13F 1_555 1_555
O64F Fe3F 1_555 1_555
O65F Fe3F 1_555 1_555
O66F C15F 1_555 1_555
O67F Sb4F 1_555 1_555
O68F C16F 1_555 1_555
O69F Fe4F 1_555 1_555
O70F C17F 1_555 1_555
O71F Fe4F 1_555 1_555
O72F C19F 1_555 1_555
O73F Sb5F 1_555 1_555
O74F C20F 1_555 1_555
O75F Fe2 1_555 1_555
O75_2 Fe2F 1_555 1_555
O76F C21F 1_555 1_555
O77F Fe2 1_555 1_555
O77_2 Fe2F 1_555 1_555
O78F Sb6F 1_555 1_555
O79F Sb6F 1_555 1_555
O80F C24F 1_555 1_555
O81F Sb6 1_555 1_555
O81F_2 Sb5F 1_555 1_555
O82F Sb1F 1_555 1_555
O82F_2 Sb1F_2 1_555 1_555
O83F Sb1F_2 1_555 1_555
O83F_2 Sb1F 1_555 1_555
O84F Sb2F 1_555 1_555
O84F_2 Fe1F 1_555 1_555
O85F Sb3F 1_555 1_555
O85F_2 Sb3F_2 1_555 1_555
O86F Sb4F 1_555 1_555
O86F_2 Fe1F_2 1_555 1_555
O87F Sb5F_2 1_555 1_555
O87F_2 Sb5F 1_555 1_555
O88F Fe1 1_555 1_555
C1F O46F 1_555 1_555
C2F O47F 1_555 1_555
C3F O48F 1_555 1_555
C4F O50F 1_555 1_555
C5F C6F 1_555 1_555
C6F O53F 1_555 1_555
C7F C6F 1_555 1_555
C8F O55F 1_555 1_555
C9F C10F 1_555 1_555
C10F O59F 1_555 1_555
C11F C10F 1_555 1_555
C12F O61F 1_555 1_555
C13F O64F 1_555 1_555
C14F O65F 1_555 1_555
C15F C14F 1_555 1_555
C16F O67F 1_555 1_555
C17F O69F 1_555 1_555
C18F O71F 1_555 1_555
C19F C18F 1_555 1_555
C20F O73F 1_555 1_555
C21F O75F 1_555 1_555
C22F O77F 1_555 1_555
C23F O78F 1_555 1_555
C24F O79F 1_555 1_555
Sb2 O82 1_555 1_555
Sb5 O81 1_555 1_555
Fe1 O84 1_555 1_555
Fe1 O85 1_555 1_555
Fe1 O86 1_555 1_555
Fe1 O87 1_555 1_555
Fe2 O85 1_555 1_555
Fe2 O87 1_555 1_555
Fe3 O83 1_555 1_555
Fe3 O88F 1_555 1_555
Fe4 O84 1_555 1_555
Fe4 O86 1_555 1_555
Fe5 O61 1_555 1_555
Fe5 O65 1_555 1_555
Fe5 O67 1_555 1_555
Fe5 O83 1_555 1_555
Fe5 O86 1_555 1_555
Fe6 O53 1_555 1_555
Fe6 O71 1_555 1_555
Fe6 O84 1_555 1_555
Fe6 O87 1_555 1_555
Fe7 O88 1_555 1_555
O47 Fe3F 1_555 1_555
O50 Sb3F 1_555 1_555
O56 C8 1_555 1_555
O77 Fe2F_2 1_555 1_555
O88 Fe3F 1_555 1_555
C7 C8 1_555 1_555
C11 C12 1_555 1_555
C15 C16 1_555 1_555
C17 C18 1_555 1_555
C19 C20 1_555 1_555
C23 C24 1_555 1_555
Sb2F O82F 1_555 1_555
Sb3F O82F_2 1_555 1_555
Sb4F O81F 1_555 1_555
Sb6F O88F 1_555 1_555
Fe1F O83F 1_555 1_555
Fe1F O85F 1_555 1_555
Fe1F O86F 1_555 1_555
Fe1F O87F 1_555 1_555
Fe1F_2 O84F 1_555 1_555
Fe1F_2 O85F_2 1_555 1_555
Fe1F_2 O87F_2 1_555 1_555
Fe2F O85F_2 1_555 1_555
Fe2F O87F_2 1_555 1_555
Fe2F_2 O85F 1_555 1_555
Fe2F_2 O87F 1_555 1_555
Fe3F O83F 1_555 1_555
Fe4F O84F 1_555 1_555
Fe4F O86F_2 1_555 1_555
Fe4F_2 O84F_2 1_555 1_555
Fe4F_2 O86F 1_555 1_555
Fe5F O65F 1_555 1_555
Fe5F O67F 1_555 1_555
Fe5F O83F 1_555 1_555
Fe5F O86F 1_555 1_555
Fe5F_2 O61F 1_555 1_555
Fe5F_2 O83F_2 1_555 1_555
Fe5F_2 O86F_2 1_555 1_555
Fe6F O53F 1_555 1_555
Fe6F O71F 1_555 1_555
Fe6F O84F 1_555 1_555
Fe6F O87F_2 1_555 1_555
Fe6F_2 O87F 1_555 1_555
Fe7F O50F 1_555 1_555
Fe7F O77F 1_555 1_555
Fe7F O88F 1_555 1_555
O56F C8F 1_555 1_555
C1F C2F 1_555 1_555
C2F C3F 1_555 1_555
C3F C4F 1_555 1_555
C7F C8F 1_555 1_555
C11F C12F 1_555 1_555
C13F C14F 1_555 1_555
C15F C16F 1_555 1_555
C17F C18F 1_555 1_555
C19F C20F 1_555 1_555
C21F C22F 1_555 1_555
C22F C23F 1_555 1_555
C23F C24F 1_555 1_555

#END
