
#######################################################################
#
#                 Cambridge Crystallographic Data Centre
#                                CCDC 
#
#######################################################################
#
# If this CIF has been generated from an entry in the Cambridge 
# Structural Database, then it will include bibliographic, chemical, 
# crystal, experimental, refinement or atomic coordinate data resulting 
# from the CCDC's data processing and validation procedures.
#
#######################################################################

data_DAMRIU
_symmetry_cell_setting           hexagonal
_symmetry_space_group_name_H-M   'P 63 2 2'
_symmetry_Int_Tables_number      182
_space_group_name_Hall           "P 6c 2'c"
loop_
_symmetry_equiv_pos_site_id
_symmetry_equiv_pos_as_xyz
1 x,y,z
2 x-y,x,1/2+z
3 -y,x-y,z
4 -x,-y,1/2+z
5 -x+y,-x,z
6 y,-x+y,1/2+z
7 x-y,-y,-z
8 -x,-x+y,-z
9 y,x,-z
10 -y,-x,1/2-z
11 -x+y,y,1/2-z
12 x,x-y,1/2-z
_cell_length_a                   19.0892(9)
_cell_length_b                   19.0892(9)
_cell_length_c                   24.5573(12)
_cell_angle_alpha                90
_cell_angle_beta                 90
_cell_angle_gamma                120
_cell_volume                     7749.73
loop_
_atom_site_label
_atom_site_type_symbol
_atom_site_fract_x
_atom_site_fract_y
_atom_site_fract_z
K1 K 1.0000 0.36918(13) 0.5000
O17 O 0.9998(9) 0.2554(7) 0.5780(7)
O18 O 0.3056(15) 0.2627(13) 0.3857(13)
Sb1 Sb 0.78436(4) 0.35475(3) 0.56707(2)
Sb2 Sb 0.76990(4) 0.44758(3) 0.32028(2)
Fe1 Fe 0.86686(6) 0.45907(6) 0.44217(5)
Fe2 Fe 0.78311(7) 0.26407(5) 0.44407(4)
Fe3 Fe 0.6667 0.3333 0.44348(7)
O1 O 0.6667 0.3333 0.5754(3)
O2 O 0.6667 0.3333 0.3126(4)
O3 O 0.7696(4) 0.3475(3) 0.48630(19)
O4 O 0.7516(4) 0.4363(3) 0.4000(2)
O5 O 0.9200(3) 0.4449(4) 0.5403(3)
O6 O 1.0146(3) 0.5723(3) 0.5588(2)
O7 O 0.8002(4) 0.4665(3) 0.5742(2)
O8 O 0.7499(4) 0.5933(3) 0.5070(2)
O9 O 0.8305(6) 0.6645(4) 0.5757(3)
O10 O 0.8401(4) 0.5400(3) 0.4736(2)
O11 O 0.9044(6) 0.5236(4) 0.3430(3)
O12 O 1.0206(6) 0.5297(4) 0.3246(3)
O13 O 0.8157(4) 0.3727(3) 0.3141(3)
O14 O 0.8168(4) 0.2188(3) 0.3820(2)
O15 O 0.9051(7) 0.2467(5) 0.3155(3)
O16 O 0.8802(3) 0.3647(4) 0.4161(2)
C1 C 0.8986(7) 0.3992(5) 0.3192(4)
H1 H 0.9176 0.3868 0.2855
C2 C 0.9485(8) 0.4939(5) 0.3292(4)
C3 C 0.8785(7) 0.2686(5) 0.3526(4)
C4 C 0.8148(6) 0.6189(4) 0.5368(3)
C5 C 0.9144(6) 0.3574(5) 0.3666(3)
H2 H 0.9730 0.3815 0.3714
C6 C 0.8712(6) 0.5872(4) 0.5204(3)
H3 H 0.9253 0.6328 0.5128
C7 C 0.8757(6) 0.5368(4) 0.5672(3)
H4 H 0.8894 0.5689 0.6007
C8 C 0.9436(6) 0.5173(4) 0.5550(3)
Sb1B Sb 0.64525(3) 0.42961(5) 0.56707(2)
Sb1D Sb 0.57039(5) 0.21564(4) 0.56707(2)
Sb1G Sb 1.21564(4) 0.57039(5) 0.43293(2)
Sb1F Sb 0.42961(5) 0.64525(3) 0.43293(2)
Sb1H Sb 0.35475(3) -0.21564(4) 0.43293(2)
Sb1F_2 Sb 1.42961(5) 0.64525(3) 0.43293(2)
Sb1H_2 Sb 1.35475(3) 0.78436(4) 0.43293(2)
Sb2B Sb 0.55242(3) 0.32232(5) 0.32028(2)
Sb2D Sb 0.67768(5) 0.23010(4) 0.32028(2)
Sb2G Sb 1.23010(4) 0.67768(5) 0.67972(2)
Sb2H Sb 0.44758(3) -0.23010(4) 0.67972(2)
Sb2F Sb 0.32232(5) 0.55242(3) 0.67972(2)
Sb2F_2 Sb 1.32232(5) 0.55242(3) 0.67972(2)
Sb2H_2 Sb 1.44758(3) 0.76990(4) 0.67972(2)
Fe1B Fe 0.54093(6) 0.40779(8) 0.44217(5)
Fe1D Fe 0.59221(8) 0.13314(6) 0.44217(5)
Fe1G Fe 1.13314(6) 0.59221(8) 0.55783(5)
Fe1H Fe 0.45907(6) -0.13314(6) 0.55783(5)
Fe1F Fe 0.40779(8) 0.54093(6) 0.55783(5)
Fe2B Fe 0.73593(5) 0.51904(9) 0.44407(4)
Fe2D Fe 0.48096(9) 0.21689(7) 0.44407(4)
Fe2H Fe 1.26407(5) 0.78311(7) 0.55593(4)
Fe2G Fe 0.21689(7) 0.48096(9) 0.55593(4)
Fe2F Fe 0.51904(9) -0.26407(5) 0.55593(4)
Fe2G_2 Fe 1.21689(7) 0.48096(9) 0.55593(4)
Fe2F_2 Fe 0.51904(9) 0.73593(5) 0.55593(4)
Fe2H_2 Fe 0.26407(5) -0.21689(7) 0.55593(4)
Fe3G Fe 1.3333 0.6666 0.55652(7)
Fe3F Fe 0.3334 0.6667 0.55652(7)
Fe3H Fe 0.3333 -0.3333 0.55652(7)
O1G O 1.3333 0.6666 0.4246(3)
O1F O 0.3334 0.6667 0.4246(3)
O1H O 0.3333 -0.3333 0.4246(3)
O2G O 1.3333 0.6666 0.6874(4)
O2H O 0.3333 -0.3333 0.6874(4)
O2F O 0.3334 0.6667 0.6874(4)
O3B O 0.6525(3) 0.4221(5) 0.48630(19)
O3D O 0.5779(5) 0.2304(4) 0.48630(19)
O3G O 1.2304(4) 0.5779(5) 0.51370(19)
O3F O 0.4221(5) 0.6525(3) 0.51370(19)
O3H O 0.3475(3) -0.2304(4) 0.51370(19)
O3H_2 O 1.3475(3) 0.7696(4) 0.51370(19)
O3G_2 O 0.2304(4) 0.5779(5) 0.51370(19)
O3F_2 O 0.4221(5) -0.3475(3) 0.51370(19)
O3F_3 O 1.4221(5) 0.6525(3) 0.51370(19)
O4B O 0.5637(3) 0.3153(5) 0.4000(2)
O4D O 0.6847(5) 0.2484(4) 0.4000(2)
O4G O 1.2484(4) 0.6847(5) 0.6000(2)
O4H O 0.4363(3) -0.2484(4) 0.6000(2)
O4F O 0.3153(5) 0.5637(3) 0.6000(2)
O4H_2 O 1.4363(3) 0.7516(4) 0.6000(2)
O4F_2 O 1.3153(5) 0.5637(3) 0.6000(2)
O5G O 1.0800(3) 0.5249(5) 0.4597(3)
O5D O 0.5249(5) 0.0800(3) 0.5403(3)
O5B O 0.5551(4) 0.4751(5) 0.5403(3)
O5F O 0.4751(5) 0.5551(4) 0.4597(3)
O5H O 0.4449(4) -0.0800(3) 0.4597(3)
O6G O 0.9854(3) 0.5577(4) 0.4412(2)
O6D O 0.5577(4) -0.0146(3) 0.5588(2)
O6B O 0.4277(3) 0.4423(4) 0.5588(2)
O6F O 0.4423(4) 0.4277(3) 0.4412(2)
O6H O 0.5723(3) 0.0146(3) 0.4412(2)
O7G O 1.1998(4) 0.6663(5) 0.4258(2)
O7D O 0.6663(5) 0.1998(4) 0.5742(2)
O7B O 0.5335(3) 0.3337(5) 0.5742(2)
O7F O 0.3337(5) 0.5335(3) 0.4258(2)
O7H O 0.4665(3) -0.1998(4) 0.4258(2)
O8G O 1.2501(4) 0.8434(5) 0.4930(2)
O8D O 0.8434(5) 0.2501(4) 0.5070(2)
O8B O 0.4067(3) 0.1566(5) 0.5070(2)
O8F O 0.1566(5) 0.4067(3) 0.4930(2)
O8H O 0.5933(3) -0.2501(4) 0.4930(2)
O9G O 1.1695(6) 0.8340(7) 0.4243(3)
O9D O 0.8340(7) 0.1695(6) 0.5757(3)
O9B O 0.3355(4) 0.1660(7) 0.5757(3)
O9F O 0.1660(7) 0.3355(4) 0.4243(3)
O9H O 0.6645(4) -0.1695(6) 0.4243(3)
O10G O 1.1599(4) 0.6999(5) 0.5264(2)
O10D O 0.6999(5) 0.1599(4) 0.4736(2)
O10B O 0.4600(3) 0.3001(5) 0.4736(2)
O10F O 0.3001(5) 0.4600(3) 0.5264(2)
O10H O 0.5400(3) -0.1599(4) 0.5264(2)
O11B O 0.4764(4) 0.3808(7) 0.3430(3)
O11D O 0.6192(7) 0.0956(6) 0.3430(3)
O11G O 1.0956(6) 0.6192(7) 0.6570(3)
O11H O 0.5236(4) -0.0956(6) 0.6570(3)
O11F O 0.3808(7) 0.4764(4) 0.6570(3)
O12B O 0.4703(4) 0.4909(7) 0.3246(3)
O12D O 0.5091(7) -0.0206(6) 0.3246(3)
O12G O 0.9794(6) 0.5091(7) 0.6754(3)
O12H O 0.5297(4) 0.0206(6) 0.6754(3)
O12F O 0.4909(7) 0.4703(4) 0.6754(3)
O13B O 0.6273(3) 0.4430(5) 0.3141(3)
O13D O 0.5570(5) 0.1843(4) 0.3141(3)
O13G O 1.1843(4) 0.5570(5) 0.6859(3)
O13H O 0.3727(3) -0.1843(4) 0.6859(3)
O13F O 0.4430(5) 0.6273(3) 0.6859(3)
O14B O 0.7812(3) 0.5980(5) 0.3820(2)
O14D O 0.4020(5) 0.1832(4) 0.3820(2)
O14G O 1.1832(4) 0.4020(5) 0.6180(2)
O14H O 0.2188(3) -0.1832(4) 0.6180(2)
O14F O 0.5980(5) 0.7812(3) 0.6180(2)
O14H_2 O 1.2188(3) 0.8168(4) 0.6180(2)
O14G_2 O 0.1832(4) 0.4020(5) 0.6180(2)
O14F_2 O 0.5980(5) -0.2188(3) 0.6180(2)
O15B O 0.7533(5) 0.6584(9) 0.3155(3)
O15D O 0.3416(9) 0.0949(7) 0.3155(3)
O15G O 1.0949(7) 0.3416(9) 0.6845(3)
O15H O 0.2467(5) -0.0949(7) 0.6845(3)
O15F O 0.6584(9) 0.7533(5) 0.6845(3)
O16B O 0.6353(4) 0.5155(5) 0.4161(2)
O16D O 0.4845(5) 0.1198(3) 0.4161(2)
O16G O 1.1198(3) 0.4845(5) 0.5839(2)
O16H O 0.3647(4) -0.1198(3) 0.5839(2)
O16F O 0.5155(5) 0.6353(4) 0.5839(2)
O16H_2 O 1.3647(4) 0.8802(3) 0.5839(2)
O16G_2 O 0.1198(3) 0.4845(5) 0.5839(2)
O16F_2 O 0.5155(5) -0.3647(4) 0.5839(2)
C1B C 0.6008(5) 0.4994(9) 0.3192(4)
C1D C 0.5006(9) 0.1014(7) 0.3192(4)
C1G C 1.1014(7) 0.5006(9) 0.6808(4)
C1H C 0.3992(5) -0.1014(7) 0.6808(4)
C1F C 0.4994(9) 0.6008(5) 0.6808(4)
H1B H 0.6132 0.5308 0.2855
H1D H 0.4692 0.0824 0.2855
H1G H 1.0824 0.4692 0.7145
H1H H 0.3868 -0.0824 0.7145
H1F H 0.5308 0.6132 0.7145
C2B C 0.5061(5) 0.4546(9) 0.3292(4)
C2D C 0.5454(9) 0.0515(8) 0.3292(4)
C2G C 1.0515(8) 0.5454(9) 0.6708(4)
C2H C 0.4939(5) -0.0515(8) 0.6708(4)
C2F C 0.4546(9) 0.5061(5) 0.6708(4)
C3B C 0.7314(5) 0.6099(9) 0.3526(4)
C3D C 0.3901(9) 0.1215(7) 0.3526(4)
C3G C 1.1215(7) 0.3901(9) 0.6474(4)
C3H C 0.2686(5) -0.1215(7) 0.6474(4)
C3F C 0.6099(9) 0.7314(5) 0.6474(4)
C4G C 1.1852(6) 0.8041(7) 0.4632(3)
C4D C 0.8041(7) 0.1852(6) 0.5368(3)
C4B C 0.3811(4) 0.1959(7) 0.5368(3)
C4F C 0.1959(7) 0.3811(4) 0.4632(3)
C4H C 0.6189(4) -0.1852(6) 0.4632(3)
C5B C 0.6426(5) 0.5570(8) 0.3666(3)
C5D C 0.4430(8) 0.0856(6) 0.3666(3)
C5G C 1.0856(6) 0.4430(8) 0.6334(3)
C5H C 0.3574(5) -0.0856(6) 0.6334(3)
C5F C 0.5570(8) 0.6426(5) 0.6334(3)
H2B H 0.6185 0.5915 0.3714
H2D H 0.4085 0.0270 0.3714
H2G H 1.0270 0.4085 0.6286
H2H H 0.3815 -0.0270 0.6286
H2F H 0.5915 0.6185 0.6286
C6G C 1.1288(6) 0.7160(7) 0.4796(3)
C6D C 0.7160(7) 0.1288(6) 0.5204(3)
C6B C 0.4128(4) 0.2840(7) 0.5204(3)
C6F C 0.2840(7) 0.4128(4) 0.4796(3)
C6H C 0.5872(4) -0.1288(6) 0.4796(3)
H3G H 1.0747 0.7075 0.4872
H3D H 0.7075 0.0747 0.5128
H3B H 0.3672 0.2925 0.5128
H3F H 0.2925 0.3672 0.4872
H3H H 0.6328 -0.0747 0.4872
C7G C 1.1243(6) 0.6611(7) 0.4328(3)
C7D C 0.6611(7) 0.1243(6) 0.5672(3)
C7B C 0.4632(4) 0.3389(7) 0.5672(3)
C7F C 0.3389(7) 0.4632(4) 0.4328(3)
C7H C 0.5368(4) -0.1243(6) 0.4328(3)
H4G H 1.1106 0.6795 0.3993
H4D H 0.6795 0.1106 0.6007
H4B H 0.4311 0.3205 0.6007
H4F H 0.3205 0.4311 0.3993
H4H H 0.5689 -0.1106 0.3993
C8G C 1.0564(6) 0.5737(7) 0.4450(3)
C8D C 0.5737(7) 0.0564(6) 0.5550(3)
C8B C 0.4827(4) 0.4263(7) 0.5550(3)
C8F C 0.4263(7) 0.4827(4) 0.4450(3)
C8H C 0.5173(4) -0.0564(6) 0.4450(3)
loop_
_geom_bond_atom_site_label_1
_geom_bond_atom_site_label_2
_geom_bond_site_symmetry_1
_geom_bond_site_symmetry_2
Sb1 O1 1_555 1_555
Sb2 O2 1_555 1_555
Fe1 O3 1_555 1_555
Fe2 O3 1_555 1_555
Fe3 O3 1_555 1_555
O1 Sb1B 1_555 1_555
O2 Sb2B 1_555 1_555
O3 Sb1 1_555 1_555
O4 Sb2 1_555 1_555
O5 Sb1 1_555 1_555
O6 C8 1_555 1_555
O7 Sb1 1_555 1_555
O8 C4 1_555 1_555
O9 C4 1_555 1_555
O10 Fe1 1_555 1_555
O11 Sb2 1_555 1_555
O12 C2 1_555 1_555
O13 Sb2 1_555 1_555
O14 Fe2 1_555 1_555
O15 C3 1_555 1_555
O16 Fe1 1_555 1_555
C1 O13 1_555 1_555
H1 C1 1_555 1_555
C2 O11 1_555 1_555
C3 O14 1_555 1_555
C4 C6 1_555 1_555
C5 O16 1_555 1_555
H2 C5 1_555 1_555
C6 O10 1_555 1_555
H3 C6 1_555 1_555
C7 O7 1_555 1_555
H4 C7 1_555 1_555
C8 O5 1_555 1_555
Sb1B O3B 1_555 1_555
Sb1D O1 1_555 1_555
Sb1G O1G 1_555 1_555
Sb1F O1F 1_555 1_555
Sb1H O1H 1_555 1_555
Sb1F_2 O1G 1_555 1_555
Sb1H_2 O1G 1_555 1_555
Sb2B O4B 1_555 1_555
Sb2D O2 1_555 1_555
Sb2G O2G 1_555 1_555
Sb2H O2H 1_555 1_555
Sb2F O2F 1_555 1_555
Sb2F_2 O2G 1_555 1_555
Sb2H_2 O2G 1_555 1_555
Fe1B O3B 1_555 1_555
Fe1D O3D 1_555 1_555
Fe1G O6 1_555 1_555
Fe1H O3H 1_555 1_555
Fe1F O3F 1_555 1_555
Fe2B O4 1_555 1_555
Fe2D O3D 1_555 1_555
Fe2H O3H_2 1_555 1_555
Fe2G O3G_2 1_555 1_555
Fe2F O3F_2 1_555 1_555
Fe2G_2 O3G 1_555 1_555
Fe2F_2 O3F 1_555 1_555
Fe2H_2 O3H 1_555 1_555
Fe3G O3G 1_555 1_555
Fe3F O3F 1_555 1_555
Fe3H O3H 1_555 1_555
O3B Fe3 1_555 1_555
O3D Fe3 1_555 1_555
O3G Sb1G 1_555 1_555
O3F Sb1F 1_555 1_555
O3H Sb1H 1_555 1_555
O3H_2 Sb1H_2 1_555 1_555
O3G_2 Fe3F 1_555 1_555
O3F_2 Fe3H 1_555 1_555
O3F_3 Sb1F_2 1_555 1_555
O4B Fe3 1_555 1_555
O4D Fe2 1_555 1_555
O4G Sb2G 1_555 1_555
O4H Sb2H 1_555 1_555
O4F Sb2F 1_555 1_555
O4H_2 Sb2H_2 1_555 1_555
O4F_2 Sb2F_2 1_555 1_555
O5G Sb1G 1_555 1_555
O5D Sb1D 1_555 1_555
O5B Sb1B 1_555 1_555
O5F Sb1F 1_555 1_555
O5H Sb1H 1_555 1_555
O6G Fe1 1_555 1_555
O6D Fe1H 1_555 1_555
O6B Fe1F 1_555 1_555
O6F Fe1B 1_555 1_555
O6H Fe1D 1_555 1_555
O7G Sb1G 1_555 1_555
O7D Sb1D 1_555 1_555
O7B Sb1B 1_555 1_555
O7F Sb1F 1_555 1_555
O7H Sb1H 1_555 1_555
O8G Fe2H 1_555 1_555
O8D Fe2 1_555 1_555
O8B Fe2D 1_555 1_555
O8F Fe2G 1_555 1_555
O8H Fe2F 1_555 1_555
O9G C4G 1_555 1_555
O9D C4D 1_555 1_555
O9B C4B 1_555 1_555
O9F C4F 1_555 1_555
O9H C4H 1_555 1_555
O10G Fe1G 1_555 1_555
O10D Fe2 1_555 1_555
O10B Fe1B 1_555 1_555
O10F Fe1F 1_555 1_555
O10H Fe1H 1_555 1_555
O11B Sb2B 1_555 1_555
O11D Sb2D 1_555 1_555
O11G Sb2G 1_555 1_555
O11H Sb2H 1_555 1_555
O11F Sb2F 1_555 1_555
O12B C2B 1_555 1_555
O12D C2D 1_555 1_555
O12G C2G 1_555 1_555
O12H C2H 1_555 1_555
O12F C2F 1_555 1_555
O13B Sb2B 1_555 1_555
O13D Sb2D 1_555 1_555
O13G Sb2G 1_555 1_555
O13H Sb2H 1_555 1_555
O13F Sb2F 1_555 1_555
O14B Fe2B 1_555 1_555
O14D Fe2D 1_555 1_555
O14G Fe2G_2 1_555 1_555
O14H Fe2H_2 1_555 1_555
O14F Fe2F_2 1_555 1_555
O14H_2 Fe2H 1_555 1_555
O14G_2 Fe2G 1_555 1_555
O14F_2 Fe2F 1_555 1_555
O15B C3B 1_555 1_555
O15D C3D 1_555 1_555
O15G C3G 1_555 1_555
O15H C3H 1_555 1_555
O15F C3F 1_555 1_555
O16B Fe1B 1_555 1_555
O16D Fe1D 1_555 1_555
O16G Fe1G 1_555 1_555
O16H Fe1H 1_555 1_555
O16F Fe1F 1_555 1_555
O16H_2 Fe2H 1_555 1_555
O16G_2 Fe2G 1_555 1_555
O16F_2 Fe2F 1_555 1_555
C1B O13B 1_555 1_555
C1D O13D 1_555 1_555
C1G O13G 1_555 1_555
C1H O13H 1_555 1_555
C1F O13F 1_555 1_555
H1B C1B 1_555 1_555
H1D C1D 1_555 1_555
H1G C1G 1_555 1_555
H1H C1H 1_555 1_555
H1F C1F 1_555 1_555
C2B O11B 1_555 1_555
C2D O11D 1_555 1_555
C2G O11G 1_555 1_555
C2H O11H 1_555 1_555
C2F O11F 1_555 1_555
C3B O14B 1_555 1_555
C3D O14D 1_555 1_555
C3G O14G 1_555 1_555
C3H O14H 1_555 1_555
C3F O14F 1_555 1_555
C4G O8G 1_555 1_555
C4D O8D 1_555 1_555
C4B O8B 1_555 1_555
C4F O8F 1_555 1_555
C4H O8H 1_555 1_555
C5B O16B 1_555 1_555
C5D O16D 1_555 1_555
C5G O16G 1_555 1_555
C5H O16H 1_555 1_555
C5F O16F 1_555 1_555
H2B C5B 1_555 1_555
H2D C5D 1_555 1_555
H2G C5G 1_555 1_555
H2H C5H 1_555 1_555
H2F C5F 1_555 1_555
C6G O10G 1_555 1_555
C6D O10D 1_555 1_555
C6B O10B 1_555 1_555
C6F O10F 1_555 1_555
C6H O10H 1_555 1_555
H3G C6G 1_555 1_555
H3D C6D 1_555 1_555
H3B C6B 1_555 1_555
H3F C6F 1_555 1_555
H3H C6H 1_555 1_555
C7G O7G 1_555 1_555
C7D O7D 1_555 1_555
C7B O7B 1_555 1_555
C7F O7F 1_555 1_555
C7H O7H 1_555 1_555
H4G C7G 1_555 1_555
H4D C7D 1_555 1_555
H4B C7B 1_555 1_555
H4F C7F 1_555 1_555
H4H C7H 1_555 1_555
C8G O5G 1_555 1_555
C8D O5D 1_555 1_555
C8B O5B 1_555 1_555
C8F O5F 1_555 1_555
C8H O5H 1_555 1_555
Fe1 O4 1_555 1_555
Fe2 O16 1_555 1_555
Fe3 O4 1_555 1_555
Fe3 O4D 1_555 1_555
O8 Fe2B 1_555 1_555
O10 Fe2B 1_555 1_555
C1 C2 1_555 1_555
C1 C5 1_555 1_555
C3 C5 1_555 1_555
C6 C7 1_555 1_555
C7 C8 1_555 1_555
Sb1D O3D 1_555 1_555
Sb2D O4D 1_555 1_555
Fe1B O4B 1_555 1_555
Fe1D O4D 1_555 1_555
Fe1D O10D 1_555 1_555
Fe1G O3G 1_555 1_555
Fe1G O4G 1_555 1_555
Fe1H O4H 1_555 1_555
Fe1F O4F 1_555 1_555
Fe2B O3B 1_555 1_555
Fe2B O16B 1_555 1_555
Fe2D O4B 1_555 1_555
Fe2D O10B 1_555 1_555
Fe2D O16D 1_555 1_555
Fe2H O4G 1_555 1_555
Fe2H O10G 1_555 1_555
Fe2G O4F 1_555 1_555
Fe2G O10F 1_555 1_555
Fe2F O4H 1_555 1_555
Fe2F O10H 1_555 1_555
Fe2G_2 O4F_2 1_555 1_555
Fe2G_2 O16G 1_555 1_555
Fe2F_2 O16F 1_555 1_555
Fe2H_2 O16H 1_555 1_555
Fe3G O3H_2 1_555 1_555
Fe3G O3F_3 1_555 1_555
Fe3G O4G 1_555 1_555
Fe3G O4H_2 1_555 1_555
Fe3G O4F_2 1_555 1_555
Fe3F O4F 1_555 1_555
Fe3H O4H 1_555 1_555
O6G C8G 1_555 1_555
O6D C8D 1_555 1_555
O6B C8B 1_555 1_555
O6F C8F 1_555 1_555
O6H C8H 1_555 1_555
C1B C2B 1_555 1_555
C1B C5B 1_555 1_555
C1D C2D 1_555 1_555
C1D C5D 1_555 1_555
C1G C2G 1_555 1_555
C1G C5G 1_555 1_555
C1H C2H 1_555 1_555
C1H C5H 1_555 1_555
C1F C2F 1_555 1_555
C1F C5F 1_555 1_555
C3B C5B 1_555 1_555
C3D C5D 1_555 1_555
C3G C5G 1_555 1_555
C3H C5H 1_555 1_555
C3F C5F 1_555 1_555
C4G C6G 1_555 1_555
C4D C6D 1_555 1_555
C4B C6B 1_555 1_555
C4F C6F 1_555 1_555
C4H C6H 1_555 1_555
C6G C7G 1_555 1_555
C6D C7D 1_555 1_555
C6B C7B 1_555 1_555
C6F C7F 1_555 1_555
C6H C7H 1_555 1_555
C7G C8G 1_555 1_555
C7D C8D 1_555 1_555
C7B C8B 1_555 1_555
C7F C8F 1_555 1_555
C7H C8H 1_555 1_555

#END
