
#######################################################################
#
#                 Cambridge Crystallographic Data Centre
#                                CCDC 
#
#######################################################################
#
# If this CIF has been generated from an entry in the Cambridge 
# Structural Database, then it will include bibliographic, chemical, 
# crystal, experimental, refinement or atomic coordinate data resulting 
# from the CCDC's data processing and validation procedures.
#
#######################################################################

data_DANDIG
_symmetry_cell_setting           triclinic
_symmetry_space_group_name_H-M   'P -1'
_symmetry_Int_Tables_number      2
_space_group_name_Hall           '-P 1'
loop_
_symmetry_equiv_pos_site_id
_symmetry_equiv_pos_as_xyz
1 x,y,z
2 -x,-y,-z
_cell_length_a                   11.006(2)
_cell_length_b                   13.471(3)
_cell_length_c                   16.514(3)
_cell_angle_alpha                93.792(3)
_cell_angle_beta                 94.251(4)
_cell_angle_gamma                112.956(4)
_cell_volume                     2236.22
loop_
_atom_site_label
_atom_site_type_symbol
_atom_site_fract_x
_atom_site_fract_y
_atom_site_fract_z
C1 C 0.3163(8) 0.4775(6) 0.2019(5)
H1 H 0.3240 0.5066 0.1521
C2 C 0.3288(10) 0.5436(7) 0.2705(6)
H2 H 0.3454 0.6161 0.2664
C3 C 0.3172(10) 0.5045(8) 0.3471(6)
C4 C 0.2943(11) 0.3963(7) 0.3478(6)
H3 H 0.2850 0.3660 0.3971
C5 C 0.2847(9) 0.3318(6) 0.2771(5)
C6 C 0.2650(9) 0.2157(6) 0.2746(5)
C7 C 0.2498(10) 0.1603(7) 0.3435(5)
H4 H 0.2509 0.1959 0.3939
C8 C 0.2329(9) 0.0514(7) 0.3384(5)
C9 C 0.2266(9) 0.0032(7) 0.2604(5)
H5 H 0.2124 -0.0697 0.2529
C10 C 0.2411(8) 0.0619(6) 0.1939(5)
H6 H 0.2361 0.0269 0.1426
C11 C 0.3197(12) 0.5768(8) 0.4240(6)
C12 C 0.2133(14) 0.6212(10) 0.4119(7)
H7 H 0.2236 0.6573 0.3631
H8 H 0.2215 0.6716 0.4580
H9 H 0.1273 0.5626 0.4070
C13 C 0.4560(15) 0.6733(11) 0.4339(9)
H10 H 0.4670 0.7101 0.3855
H11 H 0.5251 0.6471 0.4425
H12 H 0.4609 0.7226 0.4800
C14 C 0.3010(18) 0.5201(10) 0.5008(7)
H13 H 0.3028 0.5695 0.5460
H14 H 0.3713 0.4957 0.5113
H15 H 0.2172 0.4589 0.4940
C15 C 0.2215(12) -0.0126(8) 0.4114(6)
C16 C 0.211(2) 0.0486(11) 0.4889(7)
H16 H 0.2865 0.1162 0.4995
H17 H 0.2073 0.0061 0.5338
H18 H 0.1313 0.0622 0.4827
C17 C 0.3419(15) -0.0407(14) 0.4209(10)
H19 H 0.4208 0.0247 0.4309
H20 H 0.3453 -0.0815 0.3718
H21 H 0.3359 -0.0833 0.4660
C18 C 0.0985(13) -0.1227(10) 0.3958(8)
H22 H 0.0189 -0.1094 0.3902
H23 H 0.0967 -0.1645 0.4409
H24 H 0.1042 -0.1621 0.3466
C19 C 0.2692(8) 0.3587(6) 0.0171(5)
C20 C 0.0392(11) 0.5767(9) -0.1354(7)
H25 H 0.0935 0.6530 -0.1369
H26 H -0.0466 0.5700 -0.1197
C21 C 0.0221(10) 0.5171(9) -0.2176(6)
H27 H -0.0447 0.4439 -0.2194
H28 H -0.0058 0.5537 -0.2592
C22 C 0.1466(13) 0.4306(11) -0.2970(7)
H29 H 0.1365 0.4545 -0.3503
H30 H 0.0710 0.3636 -0.2932
C23 C 0.2719(16) 0.4121(13) -0.2868(7)
H31 H 0.2642 0.3498 -0.3231
H32 H 0.3458 0.4749 -0.3002
C24 C 0.5283(8) 0.6797(6) -0.1079(5)
C25 C 0.0678(9) 0.1972(6) 0.0976(5)
C26 C -0.4604(10) 0.0684(10) 0.1110(9)
H33 H -0.5112 0.1133 0.1107
H34 H -0.5017 0.0089 0.0682
C27 C -0.4590(11) 0.0264(9) 0.1899(8)
H35 H -0.5482 -0.0210 0.1992
H36 H -0.4249 0.0855 0.2333
C28 C -0.3327(15) -0.0565(14) 0.2710(9)
H37 H -0.3199 0.0042 0.3105
H38 H -0.4027 -0.1203 0.2866
C29 C -0.2173(14) -0.0732(12) 0.2715(9)
H39 H -0.2373 -0.1455 0.2457
H40 H -0.1816 -0.0696 0.3276
C30 C 0.2573(9) 0.1471(6) 0.0135(5)
Cu1 Cu 0.23780(10) 0.48809(8) -0.12626(6)
Cu2 Cu -0.21022(10) 0.05082(9) 0.13411(7)
N1 N 0.2929(6) 0.3703(5) 0.2027(4)
N2 N 0.2620(6) 0.1677(5) 0.1998(4)
N3 N 0.2672(8) 0.4198(6) -0.0303(5)
N4 N 0.1036(8) 0.5309(7) -0.0753(5)
H41 H 0.0418 0.4725 -0.0575
H42 H 0.1437 0.5804 -0.0321
N5 N 0.1520(8) 0.5148(6) -0.2318(5)
H43 H 0.2052 0.5809 -0.2457
N6 N 0.2948(11) 0.3932(9) -0.2020(6)
H44 H 0.3815 0.4083 -0.1892
H45 H 0.2484 0.3230 -0.1957
N7 N 0.4112(7) 0.6393(6) -0.1145(5)
N8 N -0.0427(7) 0.1535(6) 0.1033(5)
N9 N -0.3224(8) 0.1332(6) 0.0961(6)
H46 H -0.2927 0.1992 0.1243
H47 H -0.3178 0.1416 0.0427
N10 N -0.3731(8) -0.0339(7) 0.1885(5)
H48 H -0.4183 -0.0984 0.1576
N11 N -0.1143(9) 0.0074(7) 0.2284(5)
H49 H -0.0603 -0.0220 0.2087
H50 H -0.0649 0.0661 0.2632
N12 N 0.2496(7) 0.0784(6) -0.0368(5)
Ru1 Ru 0.27127(6) 0.26097(5) 0.10054(4)
Ru1A Ru 0.72873(6) 0.73903(5) -0.10054(4)
N12A N -0.2496(7) -0.0784(6) 0.0368(5)
Cu2A Cu 0.21022(10) -0.05082(9) -0.13411(7)
C24A C 0.4717(8) 0.3203(6) 0.1079(5)
Cl1 Cl 0.8634(5) 0.2497(3) 0.3613(2)
O1 O 0.9354(16) 0.3576(9) 0.3983(7)
O2 O 0.8305(18) 0.2406(10) 0.2772(7)
O3 O 0.7630(16) 0.1934(10) 0.4017(7)
O4 O 0.9521(19) 0.2050(19) 0.3795(12)
Cl2 Cl 0.7762(3) 0.25698(19) 0.87678(18)
O5 O 0.7329(15) 0.2352(8) 0.7940(6)
O6 O 0.7567(10) 0.3482(8) 0.9083(6)
O7 O 0.9129(11) 0.2876(10) 0.8891(13)
O8 O 0.7158(13) 0.1632(9) 0.9116(6)
O9 O 0.617(5) 0.301(4) 0.313(3)
O10 O 0.0724(9) 0.1755(8) 0.8569(6)
O11 O 0.4658(11) 0.2881(9) 0.8865(6)
loop_
_geom_bond_atom_site_label_1
_geom_bond_atom_site_label_2
_geom_bond_site_symmetry_1
_geom_bond_site_symmetry_2
C1 H1 1_555 1_555
C2 C1 1_555 1_555
H2 C2 1_555 1_555
C3 C2 1_555 1_555
C4 C3 1_555 1_555
H3 C4 1_555 1_555
C5 C4 1_555 1_555
C6 C5 1_555 1_555
C7 C6 1_555 1_555
H4 C7 1_555 1_555
C8 C7 1_555 1_555
C9 C8 1_555 1_555
H5 C9 1_555 1_555
C10 C9 1_555 1_555
H6 C10 1_555 1_555
C11 C3 1_555 1_555
C12 C11 1_555 1_555
H7 C12 1_555 1_555
H8 C12 1_555 1_555
H9 C12 1_555 1_555
C13 C11 1_555 1_555
H10 C13 1_555 1_555
H11 C13 1_555 1_555
H12 C13 1_555 1_555
C14 C11 1_555 1_555
H13 C14 1_555 1_555
H14 C14 1_555 1_555
H15 C14 1_555 1_555
C15 C8 1_555 1_555
C16 C15 1_555 1_555
H16 C16 1_555 1_555
H17 C16 1_555 1_555
H18 C16 1_555 1_555
C17 C15 1_555 1_555
H19 C17 1_555 1_555
H20 C17 1_555 1_555
H21 C17 1_555 1_555
C18 C15 1_555 1_555
H22 C18 1_555 1_555
H23 C18 1_555 1_555
H24 C18 1_555 1_555
C19 N3 1_555 1_555
C20 H25 1_555 1_555
H26 C20 1_555 1_555
C21 C20 1_555 1_555
H27 C21 1_555 1_555
H28 C21 1_555 1_555
C22 H29 1_555 1_555
H30 C22 1_555 1_555
C23 C22 1_555 1_555
H31 C23 1_555 1_555
H32 C23 1_555 1_555
C24 N7 1_555 1_555
C25 N8 1_555 1_555
C26 H33 1_555 1_555
H34 C26 1_555 1_555
C27 C26 1_555 1_555
H35 C27 1_555 1_555
H36 C27 1_555 1_555
C28 H37 1_555 1_555
H38 C28 1_555 1_555
C29 C28 1_555 1_555
H39 C29 1_555 1_555
H40 C29 1_555 1_555
C30 N12 1_555 1_555
Cl1 O1 1_555 1_555
Cl2 O5 1_555 1_555
Cu1 N3 1_555 1_555
Cu2 N8 1_555 1_555
N1 C1 1_555 1_555
N2 C6 1_555 1_555
N4 C20 1_555 1_555
H41 N4 1_555 1_555
H42 N4 1_555 1_555
N5 C21 1_555 1_555
H43 N5 1_555 1_555
N6 C23 1_555 1_555
H44 N6 1_555 1_555
H45 N6 1_555 1_555
N7 Cu1 1_555 1_555
N9 C26 1_555 1_555
H46 N9 1_555 1_555
H47 N9 1_555 1_555
N10 C27 1_555 1_555
H48 N10 1_555 1_555
N11 C29 1_555 1_555
H49 N11 1_555 1_555
H50 N11 1_555 1_555
N12 Cu2A 1_555 1_555
O2 Cl1 1_555 1_555
O3 Cl1 1_555 1_555
O4 Cl1 1_555 1_555
O6 Cl2 1_555 1_555
O7 Cl2 1_555 1_555
O8 Cl2 1_555 1_555
Ru1 C19 1_555 1_555
Ru1A C24 1_555 1_555
N12A Cu2 1_555 1_555
C24A Ru1 1_555 1_555
C5 N1 1_555 1_555
C10 N2 1_555 1_555
C22 N5 1_555 1_555
C25 Ru1 1_555 1_555
C28 N10 1_555 1_555
C30 Ru1 1_555 1_555
Cu1 N4 1_555 1_555
Cu1 N5 1_555 1_555
Cu1 N6 1_555 1_555
Cu2 N9 1_555 1_555
Cu2 N10 1_555 1_555
Cu2 N11 1_555 1_555
N1 Ru1 1_555 1_555
N2 Ru1 1_555 1_555

#END
