
#######################################################################
#
#                 Cambridge Crystallographic Data Centre
#                                CCDC 
#
#######################################################################
#
# If this CIF has been generated from an entry in the Cambridge 
# Structural Database, then it will include bibliographic, chemical, 
# crystal, experimental, refinement or atomic coordinate data resulting 
# from the CCDC's data processing and validation procedures.
#
#######################################################################

data_DANFOO
_symmetry_cell_setting           monoclinic
_symmetry_space_group_name_H-M   'P 21/c'
_symmetry_Int_Tables_number      14
_space_group_name_Hall           '-P 2ybc'
loop_
_symmetry_equiv_pos_site_id
_symmetry_equiv_pos_as_xyz
1 x,y,z
2 x,1/2-y,1/2+z
3 -x,-y,-z
4 -x,1/2+y,1/2-z
_cell_length_a                   13.3699(4)
_cell_length_b                   11.7277(4)
_cell_length_c                   11.5495(3)
_cell_angle_alpha                90
_cell_angle_beta                 105.978(2)
_cell_angle_gamma                90
_cell_volume                     1740.98
loop_
_atom_site_label
_atom_site_type_symbol
_atom_site_fract_x
_atom_site_fract_y
_atom_site_fract_z
Mn1 Mn 1.09617(3) 0.29667(4) 0.54734(4)
Br1 Br 0.54324(2) 0.13907(3) 0.43866(3)
Br2 Br 1.60856(2) 0.58533(3) 0.71176(3)
O1 O 1.17166(14) 0.41355(16) 0.64480(16)
O2 O 0.97276(14) 0.34164(16) 0.58252(17)
N1 N 1.22212(17) 0.23744(19) 0.51005(18)
N2 N 1.02764(17) 0.16698(19) 0.44461(19)
N3 N 1.0647(2) 0.3980(2) 0.3762(2)
H1 H 1.0281 0.4589 0.3721
N4 N 1.1311(2) 0.3440(2) 0.2051(2)
C1 C 1.2658(2) 0.4511(2) 0.6509(2)
C2 C 1.3007(2) 0.5516(3) 0.7157(2)
H2 H 1.2556 0.5916 0.7495
C3 C 1.3999(2) 0.5923(3) 0.7305(3)
H3 H 1.4212 0.6588 0.7741
C4 C 1.4683(2) 0.5340(3) 0.6802(2)
C5 C 1.4370(2) 0.4369(3) 0.6156(2)
H4 H 1.4833 0.3987 0.5820
C6 C 1.3363(2) 0.3934(2) 0.5988(2)
C7 C 1.3104(2) 0.2871(2) 0.5345(2)
H5 H 1.3627 0.2518 0.5086
C8 C 1.2079(2) 0.1224(2) 0.4562(3)
H6 H 1.2259 0.0653 0.5193
H7 H 1.2535 0.1126 0.4045
C9 C 1.0960(2) 0.1069(2) 0.3834(3)
H8 H 1.0861 0.1378 0.3031
H9 H 1.0787 0.0265 0.3762
C10 C 0.9310(2) 0.1408(2) 0.4216(2)
H10 H 0.9074 0.0799 0.3697
C11 C 0.8558(2) 0.1984(2) 0.4701(2)
C12 C 0.8802(2) 0.2937(2) 0.5486(2)
C13 C 0.8001(2) 0.3388(2) 0.5921(3)
H11 H 0.8141 0.4016 0.6432
C14 C 0.7027(2) 0.2934(3) 0.5616(3)
H12 H 0.6517 0.3240 0.5934
C15 C 0.6794(2) 0.2013(3) 0.4831(3)
C16 C 0.7537(2) 0.1564(2) 0.4361(3)
H13 H 0.7365 0.0971 0.3807
C17 C 1.0966(2) 0.3730(2) 0.2832(3)
N4A N 1.1311(2) 0.1560(2) 0.7051(2)
Mn1A Mn 1.09617(3) 0.20333(4) 0.04734(4)
loop_
_geom_bond_atom_site_label_1
_geom_bond_atom_site_label_2
_geom_bond_site_symmetry_1
_geom_bond_site_symmetry_2
Mn1 O1 1_555 1_555
Br1 C15 1_555 1_555
Br2 C4 1_555 1_555
O1 C1 1_555 1_555
O2 Mn1 1_555 1_555
N1 Mn1 1_555 1_555
N2 Mn1 1_555 1_555
N3 Mn1 1_555 1_555
H1 N3 1_555 1_555
N4 C17 1_555 1_555
C1 C2 1_555 1_555
C2 H2 1_555 1_555
C3 C2 1_555 1_555
H3 C3 1_555 1_555
C4 C3 1_555 1_555
C5 C4 1_555 1_555
H4 C5 1_555 1_555
C6 C1 1_555 1_555
C7 N1 1_555 1_555
H5 C7 1_555 1_555
C8 N1 1_555 1_555
H6 C8 1_555 1_555
H7 C8 1_555 1_555
C9 N2 1_555 1_555
H8 C9 1_555 1_555
H9 C9 1_555 1_555
C10 N2 1_555 1_555
H10 C10 1_555 1_555
C11 C10 1_555 1_555
C12 O2 1_555 1_555
C13 C12 1_555 1_555
H11 C13 1_555 1_555
C14 C13 1_555 1_555
H12 C14 1_555 1_555
C15 C14 1_555 1_555
C16 C11 1_555 1_555
H13 C16 1_555 1_555
C17 N3 1_555 1_555
N4A Mn1 1_555 1_555
Mn1A N4 1_555 1_555
C5 C6 1_555 1_555
C6 C7 1_555 1_555
C8 C9 1_555 1_555
C11 C12 1_555 1_555
C15 C16 1_555 1_555

#END
