
#######################################################################
#
#                 Cambridge Crystallographic Data Centre
#                                CCDC 
#
#######################################################################
#
# If this CIF has been generated from an entry in the Cambridge 
# Structural Database, then it will include bibliographic, chemical, 
# crystal, experimental, refinement or atomic coordinate data resulting 
# from the CCDC's data processing and validation procedures.
#
#######################################################################

data_DANHIL
_symmetry_cell_setting           triclinic
_symmetry_space_group_name_H-M   'P -1'
_symmetry_Int_Tables_number      2
_space_group_name_Hall           '-P 1'
loop_
_symmetry_equiv_pos_site_id
_symmetry_equiv_pos_as_xyz
1 x,y,z
2 -x,-y,-z
_cell_length_a                   7.120(3)
_cell_length_b                   11.738(5)
_cell_length_c                   13.284(6)
_cell_angle_alpha                103.958(5)
_cell_angle_beta                 97.313(5)
_cell_angle_gamma                93.986(5)
_cell_volume                     1062.85
loop_
_atom_site_label
_atom_site_type_symbol
_atom_site_fract_x
_atom_site_fract_y
_atom_site_fract_z
Ag1 Ag 0.46979(6) 0.12298(4) 0.20036(3)
Ag2 Ag 0.16220(6) 0.18105(4) 0.56507(3)
N1 N 0.2972(5) 0.2028(3) 0.4205(3)
N2 N 0.3518(5) 0.1065(3) 0.3484(3)
O1 O 0.2562(5) 0.4232(3) 0.5547(3)
O2 O 0.4470(5) -0.1108(3) 0.2265(3)
C1 C 0.2301(8) 0.5384(5) 0.5932(4)
H1 H 0.2170 0.5721 0.6626
C2 C 0.2258(8) 0.5969(5) 0.5184(5)
H2 H 0.2079 0.6761 0.5256
C3 C 0.2537(8) 0.5148(4) 0.4265(4)
H3 H 0.2593 0.5296 0.3612
C4 C 0.2710(7) 0.4105(4) 0.4512(4)
C5 C 0.3055(6) 0.2989(4) 0.3897(4)
H4 H 0.3361 0.2950 0.3230
C6 C 0.3408(6) 0.0108(4) 0.3784(4)
H5 H 0.2971 0.0137 0.4419
C7 C 0.3902(7) -0.0995(4) 0.3222(4)
C8 C 0.3934(8) -0.2038(5) 0.3489(4)
H6 H 0.3616 -0.2192 0.4105
C9 C 0.4542(8) -0.2843(5) 0.2656(5)
H7 H 0.4704 -0.3631 0.2613
C10 C 0.4840(8) -0.2251(5) 0.1938(4)
H8 H 0.5246 -0.2576 0.1301
N3 N 0.4342(5) 0.0352(3) 0.0243(3)
O3 O 0.1361(5) 0.1597(3) 0.0953(3)
C11 C -0.0254(8) 0.2164(5) 0.1013(5)
H9 H -0.0660 0.2536 0.1637
C12 C -0.1161(8) 0.2114(5) 0.0067(5)
H10 H -0.2282 0.2441 -0.0089
C13 C -0.0094(7) 0.1469(5) -0.0659(4)
H11 H -0.0383 0.1282 -0.1386
C14 C 0.1433(7) 0.1173(4) -0.0093(4)
C15 C 0.2956(7) 0.0513(4) -0.0407(3)
H12 H 0.2945 0.0183 -0.1118
N4 N 0.0649(7) 0.3047(4) 0.7036(4)
C16 C 0.0693(8) 0.3691(5) 0.7807(4)
C17 C 0.0773(13) 0.4525(6) 0.8819(5)
H13 H 0.1098 0.4138 0.9368
H14 H -0.0446 0.4816 0.8877
H15 H 0.1720 0.5172 0.8883
N5 N 0.4522(8) 0.3697(4) 0.1302(4)
O4 O 0.5738(7) 0.3150(4) 0.1701(4)
O5 O 0.3415(8) 0.4202(4) 0.1848(4)
O6 O 0.4438(9) 0.3669(6) 0.0389(4)
N6 N 0.8433(5) 0.0604(4) 0.3546(3)
O7 O 0.8377(6) 0.0980(4) 0.4508(3)
O8 O 0.8208(6) 0.1273(4) 0.2965(3)
O9 O 0.8677(7) -0.0440(4) 0.3197(3)
Ag1A Ag 0.53021(6) -0.12298(4) -0.20036(3)
Ag1_2 Ag -0.53021(6) 0.12298(4) 0.20036(3)
Ag2_2 Ag 1.16220(6) 0.18105(4) 0.56507(3)
Ag2A Ag 0.83780(6) -0.18105(4) 0.43493(3)
Ag2A_2 Ag -0.16220(6) -0.18105(4) 0.43493(3)
Ag2A_3 Ag 0.83780(6) -0.18105(4) -0.56507(3)
N1A N 0.7028(5) -0.2028(3) -0.4205(3)
N1_2 N 1.2972(5) 0.2028(3) 0.4205(3)
N2A N 0.6482(5) -0.1065(3) -0.3484(3)
O1A O 0.7438(5) -0.4232(3) -0.5547(3)
O2A O 0.5530(5) 0.1108(3) -0.2265(3)
C1A C 0.7699(8) -0.5384(5) -0.5932(4)
H1A H 0.7830 -0.5721 -0.6626
C2A C 0.7742(8) -0.5969(5) -0.5184(5)
H2A H 0.7921 -0.6761 -0.5256
C3A C 0.7463(8) -0.5148(4) -0.4265(4)
H3A H 0.7407 -0.5296 -0.3612
C4A C 0.7290(7) -0.4105(4) -0.4512(4)
C5A C 0.6945(6) -0.2989(4) -0.3897(4)
H4A H 0.6639 -0.2950 -0.3230
C6A C 0.6592(6) -0.0108(4) -0.3784(4)
H5A H 0.7029 -0.0137 -0.4419
C7A C 0.6098(7) 0.0995(4) -0.3222(4)
C8A C 0.6066(8) 0.2038(5) -0.3489(4)
H6A H 0.6384 0.2192 -0.4105
C9A C 0.5458(8) 0.2843(5) -0.2656(5)
H7A H 0.5296 0.3631 -0.2613
C10A C 0.5160(8) 0.2251(5) -0.1938(4)
H8A H 0.4754 0.2576 -0.1301
N3A N 0.5658(5) -0.0352(3) -0.0243(3)
O3A O 0.8639(5) -0.1597(3) -0.0953(3)
C11A C 1.0254(8) -0.2164(5) -0.1013(5)
H9A H 1.0660 -0.2536 -0.1637
C12A C 1.1161(8) -0.2114(5) -0.0067(5)
H10A H 1.2282 -0.2441 0.0089
C13A C 1.0094(7) -0.1469(5) 0.0659(4)
H11A H 1.0383 -0.1282 0.1386
C14A C 0.8567(7) -0.1173(4) 0.0093(4)
C15A C 0.7044(7) -0.0513(4) 0.0407(3)
H12A H 0.7055 -0.0183 0.1118
N4_2 N 1.0649(7) 0.3047(4) 0.7036(4)
C16_2 C 1.0693(8) 0.3691(5) 0.7807(4)
C17_2 C 1.0773(13) 0.4525(6) 0.8819(5)
H13_2 H 1.1098 0.4138 0.9368
H14_2 H 0.9554 0.4816 0.8877
H15_2 H 1.1720 0.5172 0.8883
N5A N 0.5478(8) -0.3697(4) -0.1302(4)
O4A O 0.4262(7) -0.3150(4) -0.1701(4)
O5A O 0.6585(8) -0.4202(4) -0.1848(4)
O6A O 0.5562(9) -0.3669(6) -0.0389(4)
N6_2 N -0.1567(5) 0.0604(4) 0.3546(3)
O7_2 O -0.1623(6) 0.0980(4) 0.4508(3)
O8_2 O -0.1792(6) 0.1273(4) 0.2965(3)
O8A O 0.1792(6) -0.1273(4) -0.2965(3)
O9_2 O -0.1323(7) -0.0440(4) 0.3197(3)
O9A O 0.1323(7) 0.0440(4) 0.6803(3)
O9A_2 O 1.1323(7) 0.0440(4) 0.6803(3)
loop_
_geom_bond_atom_site_label_1
_geom_bond_atom_site_label_2
_geom_bond_site_symmetry_1
_geom_bond_site_symmetry_2
Ag1 N2 1_555 1_555
Ag2 N1 1_555 1_555
N1 N2 1_555 1_555
N2 C6 1_555 1_555
O1 C1 1_555 1_555
O2 C7 1_555 1_555
C1 H1 1_555 1_555
C2 C1 1_555 1_555
H2 C2 1_555 1_555
C3 C2 1_555 1_555
H3 C3 1_555 1_555
C4 O1 1_555 1_555
C5 N1 1_555 1_555
H4 C5 1_555 1_555
C6 H5 1_555 1_555
C7 C6 1_555 1_555
C8 C7 1_555 1_555
H6 C8 1_555 1_555
C9 C8 1_555 1_555
H7 C9 1_555 1_555
C10 O2 1_555 1_555
H8 C10 1_555 1_555
N3 Ag1 1_555 1_555
O3 Ag1 1_555 1_555
C11 O3 1_555 1_555
H9 C11 1_555 1_555
C12 C11 1_555 1_555
H10 C12 1_555 1_555
C13 C12 1_555 1_555
H11 C13 1_555 1_555
C14 O3 1_555 1_555
C15 N3 1_555 1_555
H12 C15 1_555 1_555
N4 Ag2 1_555 1_555
C16 N4 1_555 1_555
C17 C16 1_555 1_555
H13 C17 1_555 1_555
H14 C17 1_555 1_555
H15 C17 1_555 1_555
N5 O4 1_555 1_555
O4 Ag1 1_555 1_555
O5 N5 1_555 1_555
O6 N5 1_555 1_555
N6 O7 1_555 1_555
O7 Ag2_2 1_555 1_555
O8 Ag1 1_555 1_555
O9 N6 1_555 1_555
Ag1A N2A 1_555 1_555
Ag1_2 O8_2 1_555 1_555
Ag2_2 N1_2 1_555 1_555
Ag2A O9 1_555 1_555
Ag2A_2 O9_2 1_555 1_555
Ag2A_3 N1A 1_555 1_555
N1A N2A 1_555 1_555
N2A C6A 1_555 1_555
O1A C1A 1_555 1_555
O2A C7A 1_555 1_555
C1A H1A 1_555 1_555
C2A C1A 1_555 1_555
H2A C2A 1_555 1_555
C3A C2A 1_555 1_555
H3A C3A 1_555 1_555
C4A O1A 1_555 1_555
C5A N1A 1_555 1_555
H4A C5A 1_555 1_555
C6A H5A 1_555 1_555
C7A C6A 1_555 1_555
C8A C7A 1_555 1_555
H6A C8A 1_555 1_555
C9A C8A 1_555 1_555
H7A C9A 1_555 1_555
C10A O2A 1_555 1_555
H8A C10A 1_555 1_555
N3A N3 1_555 1_555
O3A Ag1A 1_555 1_555
C11A O3A 1_555 1_555
H9A C11A 1_555 1_555
C12A C11A 1_555 1_555
H10A C12A 1_555 1_555
C13A C12A 1_555 1_555
H11A C13A 1_555 1_555
C14A O3A 1_555 1_555
C15A N3A 1_555 1_555
H12A C15A 1_555 1_555
N4_2 Ag2_2 1_555 1_555
C16_2 N4_2 1_555 1_555
C17_2 C16_2 1_555 1_555
H13_2 C17_2 1_555 1_555
H14_2 C17_2 1_555 1_555
H15_2 C17_2 1_555 1_555
N5A O4A 1_555 1_555
O4A Ag1A 1_555 1_555
O5A N5A 1_555 1_555
O6A N5A 1_555 1_555
N6_2 O7_2 1_555 1_555
O7_2 Ag2 1_555 1_555
O8_2 N6_2 1_555 1_555
O8A Ag1A 1_555 1_555
O9_2 N6_2 1_555 1_555
O9A Ag2 1_555 1_555
O9A_2 Ag2_2 1_555 1_555
C3 C4 1_555 1_555
C4 C5 1_555 1_555
C9 C10 1_555 1_555
C13 C14 1_555 1_555
C14 C15 1_555 1_555
N6 O8 1_555 1_555
Ag1A N3A 1_555 1_555
C3A C4A 1_555 1_555
C4A C5A 1_555 1_555
C9A C10A 1_555 1_555
C13A C14A 1_555 1_555
C14A C15A 1_555 1_555

#END
