
#######################################################################
#
#                 Cambridge Crystallographic Data Centre
#                                CCDC 
#
#######################################################################
#
# If this CIF has been generated from an entry in the Cambridge 
# Structural Database, then it will include bibliographic, chemical, 
# crystal, experimental, refinement or atomic coordinate data resulting 
# from the CCDC's data processing and validation procedures.
#
#######################################################################

data_DANKAE
_symmetry_cell_setting           monoclinic
_symmetry_space_group_name_H-M   'P n'
_symmetry_Int_Tables_number      7
_space_group_name_Hall           'P -2yac'
loop_
_symmetry_equiv_pos_site_id
_symmetry_equiv_pos_as_xyz
1 x,y,z
2 1/2+x,-y,1/2+z
_cell_length_a                   9.681(2)
_cell_length_b                   9.651(2)
_cell_length_c                   27.593(6)
_cell_angle_alpha                90
_cell_angle_beta                 98.71(3)
_cell_angle_gamma                90
_cell_volume                     2548.32
loop_
_atom_site_label
_atom_site_type_symbol
_atom_site_fract_x
_atom_site_fract_y
_atom_site_fract_z
La1 La 0.42480 0.01911(4) 0.28220
La2 La 0.27977(5) -0.50401(4) 0.33533(2)
O1 O 0.2877(5) -0.1875(6) 0.2573(2)
O2 O 0.1659(6) -0.3819(6) 0.2576(2)
O3 O -1.0433(5) -0.2183(7) -0.1581(2)
O4 O -0.9905(6) -0.4140(6) -0.1197(2)
N1 N -0.0114(6) -0.3052(7) 0.1741(2)
N2 N -0.7705(6) -0.3118(7) -0.0602(2)
C1 C 0.1894(8) -0.2650(9) 0.2421(3)
C2 C 0.0887(8) -0.2053(9) 0.1989(3)
C3 C 0.0092(9) -0.3681(10) 0.1320(3)
C4 C -0.0873(10) -0.4585(12) 0.1082(3)
C5 C -0.1243(8) -0.3417(11) 0.1947(3)
C6 C -0.2222(8) -0.4345(11) 0.1722(3)
C7 C -0.2061(10) -0.4935(8) 0.1276(3)
C8 C -0.3116(8) -0.5884(9) 0.1005(3)
C9 C -0.4056(13) -0.5050(8) 0.0608(4)
C10 C -0.5039(8) -0.5970(9) 0.0266(3)
C11 C -0.6027(10) -0.5034(8) -0.0063(3)
C12 C -0.5661(9) -0.4528(13) -0.0494(3)
C13 C -0.6532(9) -0.3564(11) -0.0757(3)
C14 C -0.7269(9) -0.4615(11) 0.0085(3)
C15 C -0.8088(8) -0.3629(10) -0.0188(3)
C16 C -0.8638(8) -0.2127(9) -0.0900(3)
C17 C -0.9740(7) -0.2898(8) -0.1257(3)
O5 O 0.5211(6) -0.0975(7) 0.3629(2)
O6 O 0.3875(6) -0.2862(6) 0.3619(2)
O7 O 1.6921(5) -0.1150(6) 0.7374(2)
O8 O 1.7041(7) -0.3143(7) 0.7758(2)
N3 N 0.7036(6) -0.1861(7) 0.4417(2)
N4 N 1.4547(7) -0.1899(8) 0.6764(2)
C18 C 0.4929(8) -0.2139(8) 0.3771(3)
C19 C 0.5968(8) -0.2808(9) 0.4172(3)
C20 C 0.8150(9) -0.1518(11) 0.4198(3)
C21 C 0.9147(10) -0.0609(12) 0.4421(3)
C22 C 0.6846(9) -0.1301(11) 0.4844(3)
C23 C 0.7775(10) -0.0371(12) 0.5070(3)
C24 C 0.9000(11) 0.0006(8) 0.4863(4)
C25 C 1.0060(8) 0.0927(9) 0.5148(3)
C26 C 1.0967(12) 0.0078(8) 0.5541(4)
C27 C 1.1988(8) 0.1005(9) 0.5889(3)
C28 C 1.2905(12) 0.0069(8) 0.6219(4)
C29 C 1.4140(11) -0.0412(12) 0.6088(3)
C30 C 1.4952(8) -0.1368(11) 0.6368(3)
C31 C 1.2545(10) -0.0474(13) 0.6653(4)
C32 C 1.3356(9) -0.1433(11) 0.6918(3)
C33 C 1.5358(9) -0.2962(10) 0.7057(3)
C34 C 1.6548(8) -0.2366(8) 0.7427(3)
O9 O 0.4219(9) -0.0073(6) 0.1882(3)
O10 O 0.5856(6) -0.1892(7) 0.2653(3)
O11 O 0.6877(5) 0.0818(7) 0.3010(2)
O12 O 0.2216(7) 0.0137(6) 0.3368(3)
O13 O 0.4872(7) 0.2353(7) 0.2352(2)
O14 O 0.1745(6) -0.7160(7) 0.3753(2)
O15 O 0.0254(6) -0.4269(7) 0.3419(2)
O16 O 0.2667(9) -0.4784(7) 0.4281(3)
O17 O 0.4677(7) -0.4671(7) 0.2804(3)
H1 H 0.0384 -0.1297 0.2106
H2 H 0.1429 -0.1689 0.1754
H3 H 0.0938 -0.3505 0.1189
H4 H -0.0733 -0.4966 0.0772
H5 H -0.1370 -0.3009 0.2254
H6 H -0.3026 -0.4580 0.1870
H7 H -0.3653 -0.6319 0.1228
H8 H -0.2649 -0.6593 0.0847
H9 H -0.3498 -0.4503 0.0421
H10 H -0.4611 -0.4431 0.0771
H11 H -0.4502 -0.6530 0.0075
H12 H -0.5558 -0.6570 0.0450
H13 H -0.4812 -0.4817 -0.0604
H14 H -0.6306 -0.3232 -0.1063
H15 H -0.7556 -0.4980 0.0377
H16 H -0.8951 -0.3336 -0.0090
H17 H -0.9084 -0.1526 -0.0693
H18 H -0.8087 -0.1564 -0.1085
H19 H 0.5477 -0.3235 0.4410
H20 H 0.6439 -0.3528 0.4021
H21 H 0.8264 -0.1926 0.3890
H22 H 0.9939 -0.0380 0.4265
H23 H 0.6049 -0.1558 0.4993
H24 H 0.7617 0.0053 0.5372
H25 H 0.9585 0.1650 0.5296
H26 H 1.0646 0.1349 0.4939
H27 H 1.1486 -0.0603 0.5390
H28 H 1.0369 -0.0400 0.5733
H29 H 1.2525 0.1566 0.5699
H30 H 1.1485 0.1604 0.6079
H31 H 1.4448 -0.0039 0.5800
H32 H 1.5813 -0.1678 0.6271
H33 H 1.1712 -0.0139 0.6763
H34 H 1.3088 -0.1800 0.7214
H35 H 1.4758 -0.3516 0.7226
H36 H 1.5755 -0.3556 0.6835
H37 H 0.4929 -0.0606 0.1760
H38 H 0.3349 -0.0178 0.1666
H39 H 0.6306 -0.1909 0.2367
H40 H 0.6429 -0.2366 0.2916
H41 H 0.7466 0.0033 0.2980
H42 H 0.7122 0.1558 0.2807
H43 H 0.1795 -0.0724 0.3441
H44 H 0.2221 0.0762 0.3638
H45 H 0.4235 0.3120 0.2302
H46 H 0.5815 0.2692 0.2396
H47 H 0.0764 -0.7362 0.3679
H48 H 0.2261 -0.8011 0.3803
H49 H -0.0482 -0.4940 0.3407
H50 H 0.0076 -0.3514 0.3628
H51 H 0.3507 -0.4808 0.4517
H52 H 0.2010 -0.4159 0.4393
H53 H 0.5453 -0.5250 0.2933
H54 H 0.4279 -0.4999 0.2484
O3A O 0.4567(5) 0.2183(7) 0.3419(2)
O7A O 0.1921(5) 0.1150(6) 0.2374(2)
La1A La 1.92480 -0.01911(4) 0.78220
La1A_2 La -1.07520 -0.01911(4) -0.21780
La2A La -1.22023(5) -0.49599(4) -0.16467(2)
La2A_2 La 1.77977(5) -0.49599(4) 0.83533(2)
O4A O 0.5095(6) -0.5860(6) 0.3803(2)
O8A O 0.2041(7) -0.6857(7) 0.2758(2)
O18 O 0.4226(12) 0.5436(11) 0.1824(3)
H55 H 0.5223 0.5464 0.1915
H56 H 0.3790 0.5533 0.2113
O19 O 0.2651(10) 0.9584(10) 0.4340(3)
H57 H 0.2903 1.0456 0.4211
H58 H 0.1735 0.9653 0.4432
Cl1 Cl 0.8755(3) 0.2722(3) 0.0088(1)
Cl2 Cl 0.3246(3) 0.7761(3) 0.1088(1)
Cl3 Cl 0.3306(3) 0.2684(4) 0.1285(1)
Cl4 Cl 0.3482(3) 0.2455(3) 0.4834(1)
Cl5 Cl 0.9229(2) 0.8654(3) 0.3044(1)
Cl6 Cl 0.7696(2) 0.3931(3) 0.2921(1)
loop_
_geom_bond_atom_site_label_1
_geom_bond_atom_site_label_2
_geom_bond_site_symmetry_1
_geom_bond_site_symmetry_2
La1 O1 1_555 1_555
La2 O2 1_555 1_555
O1 C1 1_555 1_555
O2 C1 1_555 1_555
O3 C17 1_555 1_555
O4 C17 1_555 1_555
N1 C2 1_555 1_555
N2 C13 1_555 1_555
C1 C2 1_555 1_555
C2 H1 1_555 1_555
C3 N1 1_555 1_555
C4 C3 1_555 1_555
C5 N1 1_555 1_555
C6 C5 1_555 1_555
C7 C4 1_555 1_555
C8 C7 1_555 1_555
C9 C8 1_555 1_555
C10 C9 1_555 1_555
C11 C10 1_555 1_555
C12 C11 1_555 1_555
C13 C12 1_555 1_555
C14 C11 1_555 1_555
C15 N2 1_555 1_555
C16 N2 1_555 1_555
C17 C16 1_555 1_555
O5 La1 1_555 1_555
O6 La2 1_555 1_555
O7 C34 1_555 1_555
O8 C34 1_555 1_555
N3 C19 1_555 1_555
N4 C30 1_555 1_555
C18 O5 1_555 1_555
C19 C18 1_555 1_555
C20 N3 1_555 1_555
C21 C20 1_555 1_555
C22 N3 1_555 1_555
C23 C22 1_555 1_555
C24 C21 1_555 1_555
C25 C24 1_555 1_555
C26 C25 1_555 1_555
C27 C26 1_555 1_555
C28 C27 1_555 1_555
C29 C28 1_555 1_555
C30 C29 1_555 1_555
C31 C28 1_555 1_555
C32 N4 1_555 1_555
C33 N4 1_555 1_555
C34 C33 1_555 1_555
O9 La1 1_555 1_555
O10 La1 1_555 1_555
O11 La1 1_555 1_555
O12 La1 1_555 1_555
O13 La1 1_555 1_555
O14 La2 1_555 1_555
O15 La2 1_555 1_555
O16 La2 1_555 1_555
O17 La2 1_555 1_555
O18 H55 1_555 1_555
O19 H57 1_555 1_555
H2 C2 1_555 1_555
H3 C3 1_555 1_555
H4 C4 1_555 1_555
H5 C5 1_555 1_555
H6 C6 1_555 1_555
H7 C8 1_555 1_555
H8 C8 1_555 1_555
H9 C9 1_555 1_555
H10 C9 1_555 1_555
H11 C10 1_555 1_555
H12 C10 1_555 1_555
H13 C12 1_555 1_555
H14 C13 1_555 1_555
H15 C14 1_555 1_555
H16 C15 1_555 1_555
H17 C16 1_555 1_555
H18 C16 1_555 1_555
H19 C19 1_555 1_555
H20 C19 1_555 1_555
H21 C20 1_555 1_555
H22 C21 1_555 1_555
H23 C22 1_555 1_555
H24 C23 1_555 1_555
H25 C25 1_555 1_555
H26 C25 1_555 1_555
H27 C26 1_555 1_555
H28 C26 1_555 1_555
H29 C27 1_555 1_555
H30 C27 1_555 1_555
H31 C29 1_555 1_555
H32 C30 1_555 1_555
H33 C31 1_555 1_555
H34 C32 1_555 1_555
H35 C33 1_555 1_555
H36 C33 1_555 1_555
H37 O9 1_555 1_555
H38 O9 1_555 1_555
H39 O10 1_555 1_555
H40 O10 1_555 1_555
H41 O11 1_555 1_555
H42 O11 1_555 1_555
H43 O12 1_555 1_555
H44 O12 1_555 1_555
H45 O13 1_555 1_555
H46 O13 1_555 1_555
H47 O14 1_555 1_555
H48 O14 1_555 1_555
H49 O15 1_555 1_555
H50 O15 1_555 1_555
H51 O16 1_555 1_555
H52 O16 1_555 1_555
H53 O17 1_555 1_555
H54 O17 1_555 1_555
H56 O18 1_555 1_555
H58 O19 1_555 1_555
O3A La1 1_555 1_555
O7A La1 1_555 1_555
La1A O7 1_555 1_555
La1A_2 O3 1_555 1_555
La2A O4 1_555 1_555
La2A_2 O8 1_555 1_555
O4A La2 1_555 1_555
O8A La2 1_555 1_555
C6 C7 1_555 1_555
C14 C15 1_555 1_555
O6 C18 1_555 1_555
C23 C24 1_555 1_555
C31 C32 1_555 1_555

#END
