
#######################################################################
#
#                 Cambridge Crystallographic Data Centre
#                                CCDC 
#
#######################################################################
#
# If this CIF has been generated from an entry in the Cambridge 
# Structural Database, then it will include bibliographic, chemical, 
# crystal, experimental, refinement or atomic coordinate data resulting 
# from the CCDC's data processing and validation procedures.
#
#######################################################################

data_DANMIP01
_symmetry_cell_setting           orthorhombic
_symmetry_space_group_name_H-M   'P 21 21 21'
_symmetry_Int_Tables_number      19
_space_group_name_Hall           'P 2ac 2ab'
loop_
_symmetry_equiv_pos_site_id
_symmetry_equiv_pos_as_xyz
1 x,y,z
2 1/2-x,-y,1/2+z
3 1/2+x,1/2-y,-z
4 -x,1/2+y,1/2-z
_cell_length_a                   8.3030(6)
_cell_length_b                   8.5660(6)
_cell_length_c                   17.3550(13)
_cell_angle_alpha                90
_cell_angle_beta                 90
_cell_angle_gamma                90
_cell_volume                     1234.35
loop_
_atom_site_label
_atom_site_type_symbol
_atom_site_fract_x
_atom_site_fract_y
_atom_site_fract_z
Cu1 Cu -0.47864(3) -0.13353(3) 0.372270(15)
C1 C -0.2168(3) -0.1830(3) 0.46660(13)
C2 C -0.2377(3) -0.3403(2) 0.42532(12)
H1 H -0.2980 -0.4142 0.4593
C3 C -0.0771(3) -0.4143(3) 0.40074(14)
H2 H 0.0148 -0.3579 0.4242
H3 H -0.0723 -0.5251 0.4167
C4 C -0.0727(3) -0.4004(3) 0.31257(15)
H4 H 0.0337 -0.3629 0.2946
H5 H -0.0965 -0.5019 0.2878
C5 C -0.2040(3) -0.2814(3) 0.29515(13)
H6 H -0.1621 -0.1736 0.3002
H7 H -0.2464 -0.2958 0.2423
C6 C -0.4376(3) -0.4425(2) 0.32940(13)
H8 H -0.4782 -0.4983 0.3754
H9 H -0.3763 -0.5176 0.2975
C7 C -0.5791(3) -0.3770(3) 0.28313(12)
C8 C -0.7891(3) 0.0272(3) 0.38655(13)
H10 H -0.8457 -0.0637 0.3707
C9 C -0.5996(3) 0.1861(3) 0.41889(14)
H11 H -0.4960 0.2275 0.4299
C10 C -0.7398(3) 0.2659(3) 0.42391(15)
H12 H -0.7532 0.3717 0.4390
N1 N -0.3311(2) -0.3121(2) 0.35338(9)
N2 N -0.6302(2) 0.0359(2) 0.39540(10)
N3 N -0.8578(2) 0.1640(2) 0.40303(11)
H13 H -0.9774 0.1683 0.3949
O1 O -0.6227(2) -0.23695(18) 0.29938(9)
O2 O -0.6457(2) -0.45944(19) 0.23390(10)
O3 O -0.31447(18) -0.07239(17) 0.44753(9)
O4 O -0.1125(3) -0.1680(2) 0.51668(11)
Cu1C Cu -0.52136(3) -0.63353(3) 0.127730(15)
O2C O -0.3543(2) 0.04056(19) 0.26610(10)
O5 O -0.1835(2) -0.8045(2) 0.38036(12)
H14 H -0.2022 -0.8492 0.3311
H15 H -0.2162 -0.8689 0.4137
loop_
_geom_bond_atom_site_label_1
_geom_bond_atom_site_label_2
_geom_bond_site_symmetry_1
_geom_bond_site_symmetry_2
Cu1 N1 1_555 1_555
C1 C2 1_555 1_555
C2 H1 1_555 1_555
C3 C2 1_555 1_555
H2 C3 1_555 1_555
H3 C3 1_555 1_555
C4 C3 1_555 1_555
H4 C4 1_555 1_555
H5 C4 1_555 1_555
C5 C4 1_555 1_555
H6 C5 1_555 1_555
H7 C5 1_555 1_555
C6 H8 1_555 1_555
H9 C6 1_555 1_555
C7 C6 1_555 1_555
C8 H10 1_555 1_555
C9 H11 1_555 1_555
C10 C9 1_555 1_555
H12 C10 1_555 1_555
N1 C2 1_555 1_555
N2 Cu1 1_555 1_555
N3 C8 1_555 1_555
H13 N3 1_555 1_555
O1 Cu1 1_555 1_555
O2 C7 1_555 1_555
O3 Cu1 1_555 1_555
O4 C1 1_555 1_555
O5 H14 1_555 1_555
H15 O5 1_555 1_555
Cu1C O2 1_555 1_555
O2C Cu1 1_555 1_555
C1 O3 1_555 1_555
C5 N1 1_555 1_555
C6 N1 1_555 1_555
C7 O1 1_555 1_555
C8 N2 1_555 1_555
C9 N2 1_555 1_555
C10 N3 1_555 1_555

#END
