
#######################################################################
#
#                 Cambridge Crystallographic Data Centre
#                                CCDC 
#
#######################################################################
#
# If this CIF has been generated from an entry in the Cambridge 
# Structural Database, then it will include bibliographic, chemical, 
# crystal, experimental, refinement or atomic coordinate data resulting 
# from the CCDC's data processing and validation procedures.
#
#######################################################################

data_DANMIO
_symmetry_cell_setting           monoclinic
_symmetry_space_group_name_H-M   'C 2/m'
_symmetry_Int_Tables_number      12
_space_group_name_Hall           '-C 2y'
loop_
_symmetry_equiv_pos_site_id
_symmetry_equiv_pos_as_xyz
1 x,y,z
2 -x,y,-z
3 1/2+x,1/2+y,z
4 1/2-x,1/2+y,-z
5 -x,-y,-z
6 x,-y,z
7 1/2-x,1/2-y,-z
8 1/2+x,1/2-y,z
_cell_length_a                   16.626(2)
_cell_length_b                   15.878(4)
_cell_length_c                   11.808(2)
_cell_angle_alpha                90
_cell_angle_beta                 122.234(7)
_cell_angle_gamma                90
_cell_volume                     2636.74
loop_
_atom_site_label
_atom_site_type_symbol
_atom_site_fract_x
_atom_site_fract_y
_atom_site_fract_z
Tb1 Tb 0.10666(2) 0.00000 -0.56399(3)
O1 O 0.0213(2) 0.0933(2) -0.3144(4)
O2 O 0.1098(2) 0.0886(2) -0.4057(4)
N1 N 0.2271(3) 0.3436(2) -0.1284(4)
C1 C 0.0850(3) 0.1195(3) -0.3312(4)
C2 C 0.1372(3) 0.1981(3) -0.2555(4)
C3 C 0.2123(3) 0.2290(3) -0.2647(5)
C4 C 0.2549(3) 0.3029(3) -0.2008(5)
C5 C 0.1099(3) 0.2418(3) -0.1798(5)
C6 C 0.1550(3) 0.3150(3) -0.1179(5)
C7 C 0.2747(3) 0.4233(3) -0.0586(5)
C8 C 0.2260(5) 0.5000 -0.1433(8)
O3 O 0.0797(4) 0.0000 -0.7868(5)
O4 O 0.2716(4) 0.0000 -0.3947(5)
O5 O 0.1787(3) 0.1282(2) -0.5889(4)
H1 H 0.2325 0.1992 -0.3151
H2 H 0.3053 0.3253 -0.2072
H3 H 0.0601 0.2210 -0.1709
H4 H 0.1364 0.3463 -0.0668
H5 H 0.3385 0.4220 -0.0368
H6 H 0.2762 0.4278 0.0229
H7 H 0.1607 0.5000 -0.1718
H8 H 0.2303 0.5000 -0.2206
H9 H 0.0568 0.0445 -0.8381
H10 H 0.3076 0.0000 -0.4286
H11 H 0.2818 0.0000 -0.3150
H12 H 0.1640 0.1830 -0.6026
H13 H 0.2428 0.1418 -0.5181
C7E C 0.2747(3) 0.5767(3) -0.0586(5)
N1E N 0.2271(3) 0.6564(2) -0.1284(4)
C4E C 0.2549(3) 0.6971(3) -0.2008(5)
C3E C 0.2123(3) 0.7710(3) -0.2647(5)
C2E C 0.1372(3) 0.8019(3) -0.2555(4)
C1E C 0.0850(3) 0.8805(3) -0.3312(4)
O1E O 0.0213(2) 0.9067(2) -0.3144(4)
O2E O 0.1098(2) 0.9114(2) -0.4057(4)
C5E C 0.1099(3) 0.7582(3) -0.1798(5)
C6E C 0.1550(3) 0.6850(3) -0.1179(5)
H4E H 0.1364 0.6537 -0.0668
H3E H 0.0601 0.7790 -0.1709
H1E H 0.2325 0.8008 -0.3151
H2E H 0.3053 0.6747 -0.2072
H5E H 0.3385 0.5780 -0.0368
H6E H 0.2762 0.5722 0.0229
O2E_2 O 0.1098(2) -0.0886(2) -0.4057(4)
O1A O -0.0213(2) 0.0933(2) -0.6856(4)
O1D O -0.0213(2) -0.0933(2) -0.6856(4)
Tb1A Tb -0.10666(2) 1.00000 -0.43601(3)
Tb1A_2 Tb -0.10666(2) 0.00000 -0.43601(3)
Tb1_2 Tb 0.10666(2) 1.00000 -0.56399(3)
H9E H 0.0568 -0.0445 -0.8381
O5E O 0.1787(3) -0.1282(2) -0.5889(4)
H12E H 0.1640 -0.1830 -0.6026
H13E H 0.2428 -0.1418 -0.5181
O6 O 0.1355(3) 0.2987(3) -0.5962(5)
H14 H 0.1018 0.3262 -0.6747
H15 H 0.0915 0.3099 -0.5710
O7 O 0.5543(5) 0.1495(8) -0.8499(8)
H16 H 0.5250 0.1040 -0.8409
H17 H 0.6042 0.1286 -0.8595
O8 O 0.4430(13) 0.0000 -0.3807(22)
Cl1 Cl 0.0000 0.1498(1) -1.0000
Cl2 Cl 0.5000 0.1506(2) -0.5000
Cl3 Cl 0.3441(2) 0.0000 -0.0906(3)
O9? O 0.3860(12) 0.0000 0.5138(21)
loop_
_geom_bond_atom_site_label_1
_geom_bond_atom_site_label_2
_geom_bond_site_symmetry_1
_geom_bond_site_symmetry_2
Tb1 O2 1_555 1_555
O1 C1 1_555 1_555
O2 C1 1_555 1_555
N1 C4 1_555 1_555
C1 C2 1_555 1_555
C2 C3 1_555 1_555
C3 C4 1_555 1_555
C4 H2 1_555 1_555
C5 C2 1_555 1_555
C6 N1 1_555 1_555
C7 N1 1_555 1_555
C8 C7 1_555 1_555
O3 Tb1 1_555 1_555
O4 Tb1 1_555 1_555
O5 Tb1 1_555 1_555
O6 H14 1_555 1_555
O7 H16 1_555 1_555
H1 C3 1_555 1_555
H3 C5 1_555 1_555
H4 C6 1_555 1_555
H5 C7 1_555 1_555
H6 C7 1_555 1_555
H7 C8 1_555 1_555
H8 C8 1_555 1_555
H9 O3 1_555 1_555
H10 O4 1_555 1_555
H11 O4 1_555 1_555
H12 O5 1_555 1_555
H13 O5 1_555 1_555
H15 O6 1_555 1_555
H17 O7 1_555 1_555
C7E C8 1_555 1_555
N1E C7E 1_555 1_555
C4E N1E 1_555 1_555
C3E C4E 1_555 1_555
C2E C3E 1_555 1_555
C1E C2E 1_555 1_555
O1E C1E 1_555 1_555
O2E C1E 1_555 1_555
C5E C2E 1_555 1_555
C6E N1E 1_555 1_555
H4E C6E 1_555 1_555
H3E C5E 1_555 1_555
H1E C3E 1_555 1_555
H2E C4E 1_555 1_555
H5E C7E 1_555 1_555
H6E C7E 1_555 1_555
O2E_2 Tb1 1_555 1_555
O1A Tb1 1_555 1_555
O1D Tb1 1_555 1_555
Tb1A O1E 1_555 1_555
Tb1A_2 O1 1_555 1_555
Tb1_2 O2E 1_555 1_555
H9E O3 1_555 1_555
O5E Tb1 1_555 1_555
H12E O5E 1_555 1_555
H13E O5E 1_555 1_555
C5 C6 1_555 1_555
C5E C6E 1_555 1_555

#END
