
#######################################################################
#
#                 Cambridge Crystallographic Data Centre
#                                CCDC 
#
#######################################################################
#
# If this CIF has been generated from an entry in the Cambridge 
# Structural Database, then it will include bibliographic, chemical, 
# crystal, experimental, refinement or atomic coordinate data resulting 
# from the CCDC's data processing and validation procedures.
#
#######################################################################

data_DANQEO
_symmetry_cell_setting           orthorhombic
_symmetry_space_group_name_H-M   'P n a 21'
_symmetry_Int_Tables_number      33
_space_group_name_Hall           'P 2c -2n'
loop_
_symmetry_equiv_pos_site_id
_symmetry_equiv_pos_as_xyz
1 x,y,z
2 -x,-y,1/2+z
3 1/2+x,1/2-y,z
4 1/2-x,1/2+y,1/2+z
_cell_length_a                   8.106(5)
_cell_length_b                   20.495(6)
_cell_length_c                   14.886(2)
_cell_angle_alpha                90
_cell_angle_beta                 90
_cell_angle_gamma                90
_cell_volume                     2473.05
loop_
_atom_site_label
_atom_site_type_symbol
_atom_site_fract_x
_atom_site_fract_y
_atom_site_fract_z
Bi1 Bi 0.7945(2) 0.77661(8) 0.6478
S1 S 0.840(2) 0.8906(6) 0.5654(9)
S2 S 0.560(2) 0.7678(6) 0.5103(8)
S3 S 0.330(2) 0.8780(7) 0.474(1)
S4 S 0.565(2) 0.9791(7) 0.512(1)
S5 S 0.233(2) 1.0167(9) 0.450(1)
S6 S 0.594(2) 0.8488(7) 0.749(1)
S7 S 0.573(2) 0.6804(6) 0.751(1)
S8 S 0.440(2) 0.8405(7) 0.927(1)
S9 S 0.418(2) 0.7026(7) 0.932(1)
S10 S 0.286(2) 0.7784(7) 1.086(1)
C1 C 0.639(6) 0.896(2) 0.527(3)
C2 C 0.530(5) 0.853(2) 0.506(3)
C3 C 0.365(7) 0.960(3) 0.480(4)
C4 C 0.520(5) 0.802(2) 0.839(3)
C5 C 0.510(5) 0.732(2) 0.831(3)
C6 C 0.381(6) 0.771(2) 0.989(3)
S2B S 1.060(2) 0.7322(6) 0.5103(8)
S7B S 1.073(2) 0.8196(6) 0.751(1)
Bi1B Bi 0.2945(2) 0.72339(8) 0.6478
N1 N 0.877(5) 0.922(2) 0.239(3)
C7 C 0.934(8) 0.873(3) 0.321(5)
C8 C 1.009(8) 0.822(3) 0.287(5)
C9 C 0.820(7) 0.982(2) 0.283(4)
C10 C 0.743(8) 1.028(3) 0.214(5)
C11 C 0.743(7) 0.885(3) 0.193(4)
C12 C 0.592(8) 0.881(3) 0.253(5)
C13 C 1.012(7) 0.932(3) 0.155(7)
C14 C 1.168(9) 0.965(3) 0.216(5)
H1 H 0.83869 0.85946 0.35471
H2 H 1.00713 0.89513 0.36075
H3 H 1.03573 0.79598 0.33499
H4 H 1.09636 0.83862 0.25546
H5 H 0.92793 0.80295 0.24942
H6 H 0.91404 1.00182 0.31227
H7 H 0.74312 0.97013 0.32944
H8 H 0.71065 1.06489 0.24889
H9 H 0.654 1.00586 0.19141
H10 H 0.82492 1.03755 0.17424
H11 H 0.78029 0.84531 0.17145
H12 H 0.71146 0.91153 0.13763
H13 H 0.5044 0.85891 0.22788
H14 H 0.55744 0.92332 0.27438
H15 H 0.62627 0.8571 0.3082
H16 H 0.9709 0.96085 0.10943
H17 H 1.04034 0.89153 0.12736
H18 H 1.25449 0.97341 0.17863
H19 H 1.19468 0.93401 0.26144
H20 H 1.12523 1.00333 0.24351
loop_
_geom_bond_atom_site_label_1
_geom_bond_atom_site_label_2
_geom_bond_site_symmetry_1
_geom_bond_site_symmetry_2
Bi1 S1 1_555 1_555
S1 C1 1_555 1_555
S2 Bi1 1_555 1_555
S3 C2 1_555 1_555
S4 C1 1_555 1_555
S5 C3 1_555 1_555
S6 Bi1 1_555 1_555
S7 Bi1 1_555 1_555
S8 C4 1_555 1_555
S9 C5 1_555 1_555
S10 C6 1_555 1_555
C1 C2 1_555 1_555
C2 S2 1_555 1_555
C3 S3 1_555 1_555
C4 S6 1_555 1_555
C5 S7 1_555 1_555
C6 S8 1_555 1_555
N1 C7 1_555 1_555
C7 C8 1_555 1_555
C8 H3 1_555 1_555
C9 N1 1_555 1_555
C10 C9 1_555 1_555
C11 N1 1_555 1_555
C12 C11 1_555 1_555
C13 N1 1_555 1_555
C14 C13 1_555 1_555
H1 C7 1_555 1_555
H2 C7 1_555 1_555
H4 C8 1_555 1_555
H5 C8 1_555 1_555
H6 C9 1_555 1_555
H7 C9 1_555 1_555
H8 C10 1_555 1_555
H9 C10 1_555 1_555
H10 C10 1_555 1_555
H11 C11 1_555 1_555
H12 C11 1_555 1_555
H13 C12 1_555 1_555
H14 C12 1_555 1_555
H15 C12 1_555 1_555
H16 C13 1_555 1_555
H17 C13 1_555 1_555
H18 C14 1_555 1_555
H19 C14 1_555 1_555
H20 C14 1_555 1_555
S2B Bi1 1_555 1_555
S7B Bi1 1_555 1_555
Bi1B S2 1_555 1_555
S4 C3 1_555 1_555
S7 Bi1B 1_555 1_555
S9 C6 1_555 1_555
C4 C5 1_555 1_555

#END
