
#######################################################################
#
#                 Cambridge Crystallographic Data Centre
#                                CCDC 
#
#######################################################################
#
# If this CIF has been generated from an entry in the Cambridge 
# Structural Database, then it will include bibliographic, chemical, 
# crystal, experimental, refinement or atomic coordinate data resulting 
# from the CCDC's data processing and validation procedures.
#
#######################################################################

data_DANTUI
_symmetry_cell_setting           triclinic
_symmetry_space_group_name_H-M   'P -1'
_symmetry_Int_Tables_number      2
_space_group_name_Hall           '-P 1'
loop_
_symmetry_equiv_pos_site_id
_symmetry_equiv_pos_as_xyz
1 x,y,z
2 -x,-y,-z
_cell_length_a                   11.1074(8)
_cell_length_b                   16.5400(11)
_cell_length_c                   18.6656(13)
_cell_angle_alpha                77.0820(10)
_cell_angle_beta                 80.9110(10)
_cell_angle_gamma                76.9680(10)
_cell_volume                     3235.35
loop_
_atom_site_label
_atom_site_type_symbol
_atom_site_fract_x
_atom_site_fract_y
_atom_site_fract_z
Ag1 Ag 0.78478(5) -0.27772(3) 0.97467(3)
Ag2 Ag 0.68018(4) -0.67785(3) 1.50550(3)
Si1 Si 0.77973(18) -0.27013(11) 1.34772(10)
Si2 Si 1.38551(16) -0.44330(12) 0.82292(10)
Si3 Si 0.7615(2) 0.16198(12) 0.87880(11)
Si4 Si 1.28748(16) -0.86858(12) 1.36916(12)
N1 N 0.6963(5) -0.5375(3) 1.4680(3)
N2 N 0.7929(5) -0.2789(3) 1.0969(3)
N3 N 0.9824(5) -0.3486(4) 0.9319(3)
N4 N 1.6531(4) -0.3382(3) 0.9325(3)
N5 N 0.7748(6) -0.1313(3) 0.9322(3)
N6 N 0.6840(4) 0.2714(3) 0.6315(3)
N7 N 0.8834(4) -0.7488(4) 1.4596(3)
N8 N 1.5517(4) -0.7354(3) 1.4556(3)
C1 C 0.6208(6) -0.4816(4) 1.4238(4)
H1 H 0.5463 -0.4969 1.4158
C2 C 0.6431(6) -0.4034(4) 1.3892(3)
H2 H 0.5851 -0.3665 1.3575
C3 C 0.7493(5) -0.3761(4) 1.3991(3)
C4 C 0.8249(6) -0.4341(4) 1.4459(4)
H3 H 0.8993 -0.4203 1.4558
C5 C 0.7965(6) -0.5113(4) 1.4786(4)
H4 H 0.8521 -0.5492 1.5114
C6 C 0.8546(6) -0.3421(4) 1.1437(4)
H5 H 0.9032 -0.3905 1.1251
C7 C 0.8516(6) -0.3409(4) 1.2167(4)
H6 H 0.8978 -0.3883 1.2477
C8 C 0.7838(6) -0.2734(3) 1.2477(3)
C9 C 0.7194(8) -0.2085(4) 1.1995(4)
H7 H 0.6689 -0.1599 1.2169
C10 C 0.7280(8) -0.2139(5) 1.1260(5)
H8 H 0.6836 -0.1671 1.0936
C11 C 0.6570(7) -0.1819(4) 1.3720(4)
H9 H 0.6547 -0.1807 1.4234
H10 H 0.5780 -0.1895 1.3628
H11 H 0.6744 -0.1295 1.3424
C12 C 0.9326(7) -0.2563(4) 1.3665(4)
H12 H 0.9297 -0.2553 1.4180
H13 H 0.9508 -0.2039 1.3371
H14 H 0.9964 -0.3024 1.3540
C13 C 1.0037(6) -0.3836(5) 0.8724(4)
H15 H 0.9333 -0.3892 0.8512
C14 C 1.1202(6) -0.4123(4) 0.8394(4)
H16 H 1.1289 -0.4359 0.7959
C15 C 1.2255(5) -0.4075(4) 0.8683(4)
C16 C 1.2014(6) -0.3731(5) 0.9313(4)
H17 H 1.2698 -0.3686 0.9549
C17 C 1.0830(7) -0.3455(5) 0.9607(4)
H18 H 1.0714 -0.3225 1.0047
C18 C 1.6631(6) -0.4198(4) 0.9370(4)
H19 H 1.7282 -0.4574 0.9632
C19 C 1.5879(6) -0.4551(4) 0.9073(4)
H20 H 1.6002 -0.5155 0.9136
C20 C 1.4945(5) -0.4043(4) 0.8681(3)
C21 C 1.4826(6) -0.3186(4) 0.8637(4)
H21 H 1.4175 -0.2798 0.8384
C22 C 1.5629(6) -0.2881(4) 0.8950(4)
H22 H 1.5534 -0.2279 0.8897
C23 C 1.4260(7) -0.5605(4) 0.8369(5)
H23 H 1.5083 -0.5775 0.8133
H24 H 1.3676 -0.5805 0.8157
H25 H 1.4229 -0.5842 0.8889
C24 C 1.3905(7) -0.3924(6) 0.7248(4)
H26 H 1.4719 -0.4096 0.7001
H27 H 1.3724 -0.3320 0.7205
H28 H 1.3299 -0.4088 0.7026
C25 C 0.6697(7) -0.0759(5) 0.9241(4)
H29 H 0.5945 -0.0970 0.9290
C26 C 0.6609(6) 0.0113(4) 0.9091(4)
H30 H 0.5809 0.0480 0.9048
C27 C 0.7673(6) 0.0460(4) 0.9001(3)
C28 C 0.8772(7) -0.0137(5) 0.9079(4)
H31 H 0.9547 0.0048 0.9023
C29 C 0.8766(7) -0.0981(5) 0.9235(4)
H32 H 0.9550 -0.1366 0.9286
C30 C 0.7082(6) 0.3166(4) 0.6758(4)
H33 H 0.7101 0.3752 0.6560
C31 C 0.7306(6) 0.2858(4) 0.7478(4)
H34 H 0.7470 0.3231 0.7762
C32 C 0.7303(5) 0.2023(4) 0.7806(3)
C33 C 0.7051(7) 0.1550(4) 0.7334(4)
H35 H 0.7028 0.0962 0.7514
C34 C 0.6837(6) 0.1909(4) 0.6625(4)
H36 H 0.6672 0.1554 0.6325
C35 C 0.6398(12) 0.2178(6) 0.9381(5)
H37 H 0.6550 0.1972 0.9889
H38 H 0.5604 0.2081 0.9317
H39 H 0.6397 0.2773 0.9250
C36 C 0.9152(10) 0.1827(5) 0.8885(6)
H40 H 0.9330 0.1623 0.9387
H41 H 0.9135 0.2424 0.8753
H42 H 0.9784 0.1541 0.8563
C37 C 0.9443(6) -0.7111(4) 1.3988(4)
H43 H 0.9045 -0.6571 1.3732
C38 C 1.0617(6) -0.7461(4) 1.3710(4)
H44 H 1.1013 -0.7162 1.3267
C39 C 1.1238(5) -0.8238(4) 1.4057(4)
C40 C 1.0589(6) -0.8623(4) 1.4685(4)
H45 H 1.0958 -0.9168 1.4948
C41 C 0.9423(6) -0.8235(5) 1.4936(4)
H46 H 0.9008 -0.8516 1.5381
C42 C 1.5892(6) -0.8130(4) 1.4420(4)
H47 H 1.6727 -0.8415 1.4500
C43 C 1.5150(6) -0.8552(4) 1.4170(5)
H48 H 1.5475 -0.9115 1.4082
C44 C 1.3934(5) -0.8161(4) 1.4045(3)
C45 C 1.3561(5) -0.7344(4) 1.4177(3)
H49 H 1.2738 -0.7034 1.4092
C46 C 1.4364(5) -0.6974(4) 1.4430(3)
H50 H 1.4072 -0.6409 1.4520
C47 C 1.3041(7) -0.8440(6) 1.2678(5)
H51 H 1.2865 -0.7838 1.2509
H52 H 1.2470 -0.8687 1.2502
H53 H 1.3877 -0.8667 1.2491
C48 C 1.3215(7) -0.9839(4) 1.4076(6)
H54 H 1.3113 -0.9931 1.4607
H55 H 1.4054 -1.0075 1.3906
H56 H 1.2652 -1.0107 1.3915
Ag1_2 Ag 1.78478(5) -0.27772(3) 0.97467(3)
Ag2_2 Ag 0.68018(4) 0.32215(3) 0.50550(3)
Ag2_3 Ag 1.68018(4) -0.67785(3) 1.50550(3)
N4_2 N 0.6531(4) -0.3382(3) 0.9325(3)
N6_2 N 0.6840(4) -0.7286(3) 1.6315(3)
N8_2 N 0.5517(4) -0.7354(3) 1.4556(3)
O1 O 1.1522(10) -0.0449(6) 0.6079(7)
C49 C 1.0920(16) -0.0604(11) 0.6664(8)
C50 C 1.1197(14) -0.1444(9) 0.7114(9)
H57 H 1.1929 -0.1767 0.6888
H58 H 1.0509 -0.1719 0.7155
H59 H 1.1337 -0.1402 0.7598
C51 C 0.9919(12) -0.0042(9) 0.6895(9)
H60 H 0.9847 0.0483 0.6543
H61 H 1.0024 0.0054 0.7368
H62 H 0.9180 -0.0265 0.6937
P1 P 0.83890(17) 0.51758(11) 0.71612(13)
F1 F 0.8436(7) 0.4695(4) 0.7977(3)
F2 F 0.9728(4) 0.5340(3) 0.7174(3)
F3 F 0.7093(4) 0.4998(4) 0.7172(6)
F4 F 0.8459(6) 0.5655(3) 0.6336(3)
F5 F 0.7775(4) 0.6044(2) 0.7411(3)
F6 F 0.9005(4) 0.4313(2) 0.6894(3)
P2 P 1.2993(2) -0.04527(15) 0.84410(16)
F7 F 1.4022(6) 0.0077(4) 0.8103(5)
F8 F 1.3900(7) -0.1069(4) 0.8928(6)
F9 F 1.3471(8) -0.1040(5) 0.7878(6)
F10 F 1.2506(10) 0.0123(5) 0.8962(5)
F11 F 1.2157(7) 0.0149(5) 0.7906(5)
F12 F 1.1994(6) -0.0979(5) 0.8726(5)
loop_
_geom_bond_atom_site_label_1
_geom_bond_atom_site_label_2
_geom_bond_site_symmetry_1
_geom_bond_site_symmetry_2
Ag1 N2 1_555 1_555
Ag2 N1 1_555 1_555
Si1 C3 1_555 1_555
Si2 C15 1_555 1_555
Si3 C27 1_555 1_555
Si4 C39 1_555 1_555
N1 C1 1_555 1_555
N2 C6 1_555 1_555
N3 Ag1 1_555 1_555
N4 C18 1_555 1_555
N5 Ag1 1_555 1_555
N6 C30 1_555 1_555
N7 Ag2 1_555 1_555
N8 C42 1_555 1_555
C1 H1 1_555 1_555
C2 C1 1_555 1_555
H2 C2 1_555 1_555
C3 C2 1_555 1_555
C4 C3 1_555 1_555
H3 C4 1_555 1_555
C5 N1 1_555 1_555
H4 C5 1_555 1_555
C6 H5 1_555 1_555
C7 C6 1_555 1_555
H6 C7 1_555 1_555
C8 Si1 1_555 1_555
C9 C8 1_555 1_555
H7 C9 1_555 1_555
C10 N2 1_555 1_555
H8 C10 1_555 1_555
C11 Si1 1_555 1_555
H9 C11 1_555 1_555
H10 C11 1_555 1_555
H11 C11 1_555 1_555
C12 Si1 1_555 1_555
H12 C12 1_555 1_555
H13 C12 1_555 1_555
H14 C12 1_555 1_555
C13 N3 1_555 1_555
H15 C13 1_555 1_555
C14 C13 1_555 1_555
H16 C14 1_555 1_555
C15 C14 1_555 1_555
C16 C15 1_555 1_555
H17 C16 1_555 1_555
C17 N3 1_555 1_555
H18 C17 1_555 1_555
C18 H19 1_555 1_555
C19 C18 1_555 1_555
H20 C19 1_555 1_555
C20 Si2 1_555 1_555
C21 C20 1_555 1_555
H21 C21 1_555 1_555
C22 N4 1_555 1_555
H22 C22 1_555 1_555
C23 Si2 1_555 1_555
H23 C23 1_555 1_555
H24 C23 1_555 1_555
H25 C23 1_555 1_555
C24 Si2 1_555 1_555
H26 C24 1_555 1_555
H27 C24 1_555 1_555
H28 C24 1_555 1_555
C25 N5 1_555 1_555
H29 C25 1_555 1_555
C26 C25 1_555 1_555
H30 C26 1_555 1_555
C27 C26 1_555 1_555
C28 C27 1_555 1_555
H31 C28 1_555 1_555
C29 N5 1_555 1_555
H32 C29 1_555 1_555
C30 H33 1_555 1_555
C31 C30 1_555 1_555
H34 C31 1_555 1_555
C32 Si3 1_555 1_555
C33 C32 1_555 1_555
H35 C33 1_555 1_555
C34 N6 1_555 1_555
H36 C34 1_555 1_555
C35 Si3 1_555 1_555
H37 C35 1_555 1_555
H38 C35 1_555 1_555
H39 C35 1_555 1_555
C36 Si3 1_555 1_555
H40 C36 1_555 1_555
H41 C36 1_555 1_555
H42 C36 1_555 1_555
C37 N7 1_555 1_555
H43 C37 1_555 1_555
C38 C37 1_555 1_555
H44 C38 1_555 1_555
C39 C38 1_555 1_555
C40 C39 1_555 1_555
H45 C40 1_555 1_555
C41 N7 1_555 1_555
H46 C41 1_555 1_555
C42 H47 1_555 1_555
C43 C42 1_555 1_555
H48 C43 1_555 1_555
C44 Si4 1_555 1_555
C45 C44 1_555 1_555
H49 C45 1_555 1_555
C46 N8 1_555 1_555
H50 C46 1_555 1_555
C47 Si4 1_555 1_555
H51 C47 1_555 1_555
H52 C47 1_555 1_555
H53 C47 1_555 1_555
C48 Si4 1_555 1_555
H54 C48 1_555 1_555
H55 C48 1_555 1_555
H56 C48 1_555 1_555
O1 C49 1_555 1_555
C49 C50 1_555 1_555
C50 H57 1_555 1_555
H58 C50 1_555 1_555
H59 C50 1_555 1_555
C51 C49 1_555 1_555
H60 C51 1_555 1_555
H61 C51 1_555 1_555
H62 C51 1_555 1_555
P1 F1 1_555 1_555
F2 P1 1_555 1_555
F3 P1 1_555 1_555
F4 P1 1_555 1_555
F5 P1 1_555 1_555
F6 P1 1_555 1_555
P2 F7 1_555 1_555
F8 P2 1_555 1_555
F9 P2 1_555 1_555
F10 P2 1_555 1_555
F11 P2 1_555 1_555
F12 P2 1_555 1_555
Ag1_2 N4 1_555 1_555
Ag2_2 N6 1_555 1_555
Ag2_3 N8 1_555 1_555
N4_2 Ag1 1_555 1_555
N6_2 Ag2 1_555 1_555
N8_2 Ag2 1_555 1_555
C4 C5 1_555 1_555
C7 C8 1_555 1_555
C9 C10 1_555 1_555
C16 C17 1_555 1_555
C19 C20 1_555 1_555
C21 C22 1_555 1_555
C28 C29 1_555 1_555
C31 C32 1_555 1_555
C33 C34 1_555 1_555
C40 C41 1_555 1_555
C43 C44 1_555 1_555
C45 C46 1_555 1_555

#END
