
#######################################################################
#
#                 Cambridge Crystallographic Data Centre
#                                CCDC 
#
#######################################################################
#
# If this CIF has been generated from an entry in the Cambridge 
# Structural Database, then it will include bibliographic, chemical, 
# crystal, experimental, refinement or atomic coordinate data resulting 
# from the CCDC's data processing and validation procedures.
#
#######################################################################

data_DANTIW
_symmetry_cell_setting           monoclinic
_symmetry_space_group_name_H-M   'C 2/c'
_symmetry_Int_Tables_number      15
_space_group_name_Hall           '-C 2yn'
loop_
_symmetry_equiv_pos_site_id
_symmetry_equiv_pos_as_xyz
1 x,y,z
2 1/2+x,1/2+y,z
3 -x,y,1/2-z
4 1/2-x,1/2+y,1/2-z
5 -x,-y,-z
6 1/2-x,1/2-y,-z
7 x,-y,1/2+z
8 1/2+x,1/2-y,1/2+z
_cell_length_a                   24.557(3)
_cell_length_b                   9.649(2)
_cell_length_c                   13.906(2)
_cell_angle_alpha                90.00(2)
_cell_angle_beta                 115.63(2)
_cell_angle_gamma                90.00(2)
_cell_volume                     2970.82
loop_
_atom_site_label
_atom_site_type_symbol
_atom_site_fract_x
_atom_site_fract_y
_atom_site_fract_z
Ag1 Ag 0.94831(3) 0.94755(8) 0.40092(7)
Si1 Si 0.82106(11) 1.5432(2) 0.1145(3)
N1 N 0.9126(3) 1.1472(8) 0.3160(6)
N2 N 0.9728(4) 1.8269(8) 0.0951(7)
N3 N 0.8640(5) 0.7917(13) 0.4579(11)
C1 C 0.8511(4) 1.1645(11) 0.2616(10)
H1 H 0.8262 1.0920 0.2617
C2 C 0.8253(4) 1.2802(11) 0.2086(10)
H2 H 0.7835 1.2877 0.1778
C3 C 0.8590(4) 1.3888(9) 0.1982(8)
C4 C 0.9217(4) 1.3725(11) 0.2549(9)
H3 H 0.9474 1.4443 0.2566
C5 C 0.9449(4) 1.2527(11) 0.3070(9)
H4 H 0.9867 1.2434 0.3391
C6 C 0.9325(5) 1.8763(12) 0.1291(10)
H5 H 0.9348 1.9694 0.1478
C7 C 0.8881(4) 1.7961(10) 0.1377(8)
H6 H 0.8623 1.8355 0.1631
C8 C 0.8817(4) 1.6572(9) 0.1086(8)
C9 C 0.9222(5) 1.6076(10) 0.0699(10)
H7 H 0.9198 1.5156 0.0486
C10 C 0.9648(5) 1.6920(10) 0.0631(8)
H8 H 0.9899 1.6554 0.0350
C11 C 0.7711(6) 1.4787(14) -0.0244(12)
H9 H 0.7953 1.4303 -0.0525
H10 H 0.7516 1.5560 -0.0697
H11 H 0.7412 1.4170 -0.0217
C12 C 0.7767(6) 1.6364(13) 0.1723(14)
H12 H 0.7575 1.7153 0.1287
H13 H 0.8030 1.6668 0.2430
H14 H 0.7465 1.5756 0.1751
O1 O 0.9193(5) 0.7792(15) 0.5005(11)
O2 O 0.8478(5) 0.8821(14) 0.3931(14)
Ag1D Ag 1.05169(3) 1.05245(8) 0.59908(7)
Ag1B Ag 1.05169(3) 1.94755(8) 0.09908(7)
N2B N 1.0272(4) 0.8269(8) 0.4049(7)
loop_
_geom_bond_atom_site_label_1
_geom_bond_atom_site_label_2
_geom_bond_site_symmetry_1
_geom_bond_site_symmetry_2
Ag1 N1 1_555 1_555
Si1 C3 1_555 1_555
N1 C1 1_555 1_555
N2 C6 1_555 1_555
N3 O1 1_555 1_555
C1 H1 1_555 1_555
C2 C1 1_555 1_555
H2 C2 1_555 1_555
C3 C2 1_555 1_555
C4 C3 1_555 1_555
H3 C4 1_555 1_555
C5 N1 1_555 1_555
H4 C5 1_555 1_555
C6 H5 1_555 1_555
C7 C6 1_555 1_555
H6 C7 1_555 1_555
C8 Si1 1_555 1_555
C9 C8 1_555 1_555
H7 C9 1_555 1_555
C10 N2 1_555 1_555
H8 C10 1_555 1_555
C11 Si1 1_555 1_555
H9 C11 1_555 1_555
H10 C11 1_555 1_555
H11 C11 1_555 1_555
C12 Si1 1_555 1_555
H12 C12 1_555 1_555
H13 C12 1_555 1_555
H14 C12 1_555 1_555
O1 Ag1 1_555 1_555
O2 Ag1 1_555 1_555
Ag1D Ag1 1_555 1_555
Ag1B N2 1_555 1_555
N2B Ag1 1_555 1_555
N3 O2 1_555 1_555
C4 C5 1_555 1_555
C7 C8 1_555 1_555
C9 C10 1_555 1_555

#END
