
#######################################################################
#
#                 Cambridge Crystallographic Data Centre
#                                CCDC 
#
#######################################################################
#
# If this CIF has been generated from an entry in the Cambridge 
# Structural Database, then it will include bibliographic, chemical, 
# crystal, experimental, refinement or atomic coordinate data resulting 
# from the CCDC's data processing and validation procedures.
#
#######################################################################

data_DANTOC
_symmetry_cell_setting           monoclinic
_symmetry_space_group_name_H-M   'C 2/c'
_symmetry_Int_Tables_number      15
_space_group_name_Hall           '-C 2yn'
loop_
_symmetry_equiv_pos_site_id
_symmetry_equiv_pos_as_xyz
1 x,y,z
2 1/2+x,1/2+y,z
3 -x,y,1/2-z
4 1/2-x,1/2+y,1/2-z
5 -x,-y,-z
6 1/2-x,1/2-y,-z
7 x,-y,1/2+z
8 1/2+x,1/2-y,1/2+z
_cell_length_a                   22.117(6)
_cell_length_b                   12.714(3)
_cell_length_c                   21.976(6)
_cell_angle_alpha                90.00
_cell_angle_beta                 99.218(5)
_cell_angle_gamma                90.00
_cell_volume                     6099.75
loop_
_atom_site_label
_atom_site_type_symbol
_atom_site_fract_x
_atom_site_fract_y
_atom_site_fract_z
Ag1 Ag 0.75313(4) 0.12424(6) 0.25239(4)
Si1 Si 0.89212(13) 0.1919(2) -0.00886(12)
Si2 Si 0.5000 0.4468(3) 0.2500
N1 N 0.8004(4) 0.1423(7) 0.1665(3)
N2 N 0.7935(4) -0.0244(6) -0.1668(3)
N3 N 0.6714(4) 0.2278(6) 0.2551(4)
C1 C 0.7820(5) 0.0854(7) 0.1155(5)
H1 H 0.7496 0.0351 0.1151
C2 C 0.8092(5) 0.0983(7) 0.0630(4)
H2 H 0.7960 0.0550 0.0276
C3 C 0.8546(4) 0.1716(7) 0.0606(4)
C4 C 0.8709(4) 0.2297(7) 0.1133(4)
H3 H 0.9014 0.2836 0.1140
C5 C 0.8449(5) 0.2129(8) 0.1647(5)
H4 H 0.8591 0.2534 0.2011
C6 C 0.7754(5) 0.0730(10) -0.1600(5)
H5 H 0.7411 0.0992 -0.1882
C7 C 0.8031(5) 0.1376(7) -0.1151(5)
H6 H 0.7878 0.2079 -0.1127
C8 C 0.8532(4) 0.1054(6) -0.0721(4)
C9 C 0.8689(5) 0.0026(8) -0.0800(5)
H7 H 0.9020 -0.0276 -0.0518
C10 C 0.8392(5) -0.0583(7) -0.1265(5)
H8 H 0.8526 -0.1296 -0.1298
C11 C 0.6732(5) 0.3121(10) 0.2899(5)
H9 H 0.7105 0.3279 0.3172
C12 C 0.6234(5) 0.3797(8) 0.2889(6)
H10 H 0.6275 0.4413 0.3144
C13 C 0.5687(4) 0.3593(6) 0.2519(5)
C14 C 0.5667(4) 0.2686(8) 0.2174(5)
H11 H 0.5292 0.2480 0.1919
C15 C 0.6190(6) 0.2068(7) 0.2194(5)
H12 H 0.6168 0.1458 0.1935
C16 C 0.8870(6) 0.3342(8) -0.0305(5)
H13 H 0.8448 0.3541 -0.0411
H14 H 0.9075 0.3457 -0.0653
H15 H 0.9061 0.3758 0.0037
C17 C 0.9726(4) 0.1520(9) 0.0107(5)
H16 H 0.9929 0.1965 0.0429
H17 H 0.9922 0.1583 -0.0250
H18 H 0.9747 0.0803 0.0245
C18 C 0.5085(5) 0.5303(9) 0.3195(7)
H19 H 0.5438 0.5746 0.3207
H20 H 0.5134 0.4866 0.3556
H21 H 0.4726 0.5733 0.3185
Ag1F Ag 0.75313(4) -0.12424(6) 0.75239(4)
Ag1F_2 Ag 0.75313(4) -0.12424(6) -0.24761(4)
Ag1B Ag 0.24687(4) 0.12424(6) 0.24761(4)
Si1F Si 0.89212(13) -0.1919(2) 0.49114(12)
N1F N 0.8004(4) -0.1423(7) 0.6665(3)
N2F N 0.7935(4) 0.0244(6) 0.3332(3)
N2_2 N 0.7935(4) -0.0244(6) 0.8332(3)
N3B N 0.3286(4) 0.2278(6) 0.2449(4)
N3F N 0.6714(4) -0.2278(6) 0.7551(4)
C1F C 0.7820(5) -0.0854(7) 0.6155(5)
H1F H 0.7496 -0.0351 0.6151
C2F C 0.8092(5) -0.0983(7) 0.5630(4)
H2F H 0.7960 -0.0550 0.5276
C3F C 0.8546(4) -0.1716(7) 0.5606(4)
C4F C 0.8709(4) -0.2297(7) 0.6133(4)
H3F H 0.9014 -0.2836 0.6140
C5F C 0.8449(5) -0.2129(8) 0.6647(5)
H4F H 0.8591 -0.2534 0.7011
C6F C 0.7754(5) -0.0730(10) 0.3400(5)
H5F H 0.7411 -0.0992 0.3118
C7F C 0.8031(5) -0.1376(7) 0.3849(5)
H6F H 0.7878 -0.2079 0.3873
C8F C 0.8532(4) -0.1054(6) 0.4279(4)
C9F C 0.8689(5) -0.0026(8) 0.4200(5)
H7F H 0.9020 0.0276 0.4482
C10F C 0.8392(5) 0.0583(7) 0.3735(5)
H8F H 0.8526 0.1296 0.3702
C11B C 0.3268(5) 0.3121(10) 0.2101(5)
H9B H 0.2895 0.3279 0.1828
C12B C 0.3766(5) 0.3797(8) 0.2111(6)
H10B H 0.3725 0.4413 0.1856
C13B C 0.4313(4) 0.3593(6) 0.2481(5)
C14B C 0.4333(4) 0.2686(8) 0.2826(5)
H11B H 0.4708 0.2480 0.3081
C15B C 0.3810(6) 0.2068(7) 0.2806(5)
H12B H 0.3832 0.1458 0.3065
C16F C 0.8870(6) -0.3342(8) 0.4695(5)
H13F H 0.8448 -0.3541 0.4589
H14F H 0.9075 -0.3457 0.4347
H15F H 0.9061 -0.3758 0.5037
C17F C 0.9726(4) -0.1520(9) 0.5107(5)
H16F H 0.9929 -0.1965 0.5429
H17F H 0.9922 -0.1583 0.4750
H18F H 0.9747 -0.0803 0.5245
C18B C 0.4915(5) 0.5303(9) 0.1805(7)
H19B H 0.4562 0.5746 0.1793
H20B H 0.4866 0.4866 0.1444
H21B H 0.5274 0.5733 0.1815
S1 S 0.14789(15) 0.3833(2) 0.16658(17)
C19 C 0.0659(10) 0.3925(16) 0.1669(14)
O1 O 0.1670(4) 0.2908(6) 0.1945(4)
O2 O 0.1673(4) 0.4718(7) 0.1879(8)
O3 O 0.1538(13) 0.3712(13) 0.0989(7)
F1 F 0.0444(5) 0.4668(11) 0.1389(10)
F2 F 0.0442(6) 0.3158(12) 0.1338(11)
F3 F 0.0647(12) 0.389(2) 0.2218(14)
O4 O 0.4089(11) 0.230(2) 0.0818(11)
H22 H 0.4175 0.2482 0.0485
C20 C 0.367(2) 0.156(5) 0.073(3)
H23 H 0.3841 0.0910 0.0901
H24 H 0.3529 0.1476 0.0298
H25 H 0.3331 0.1756 0.0932
loop_
_geom_bond_atom_site_label_1
_geom_bond_atom_site_label_2
_geom_bond_site_symmetry_1
_geom_bond_site_symmetry_2
Ag1 N1 1_555 1_555
Si1 C3 1_555 1_555
Si2 C13 1_555 1_555
S1 C19 1_555 1_555
N1 C1 1_555 1_555
N2 C6 1_555 1_555
N3 Ag1 1_555 1_555
C1 H1 1_555 1_555
C2 C1 1_555 1_555
H2 C2 1_555 1_555
C3 C2 1_555 1_555
C4 C3 1_555 1_555
H3 C4 1_555 1_555
C5 N1 1_555 1_555
H4 C5 1_555 1_555
C6 H5 1_555 1_555
C7 C6 1_555 1_555
H6 C7 1_555 1_555
C8 Si1 1_555 1_555
C9 C8 1_555 1_555
H7 C9 1_555 1_555
C10 N2 1_555 1_555
H8 C10 1_555 1_555
C11 N3 1_555 1_555
H9 C11 1_555 1_555
C12 C11 1_555 1_555
H10 C12 1_555 1_555
C13 C12 1_555 1_555
C14 C13 1_555 1_555
H11 C14 1_555 1_555
C15 N3 1_555 1_555
H12 C15 1_555 1_555
C16 Si1 1_555 1_555
H13 C16 1_555 1_555
H14 C16 1_555 1_555
H15 C16 1_555 1_555
C17 Si1 1_555 1_555
H16 C17 1_555 1_555
H17 C17 1_555 1_555
H18 C17 1_555 1_555
C18 Si2 1_555 1_555
H19 C18 1_555 1_555
H20 C18 1_555 1_555
H21 C18 1_555 1_555
C19 F1 1_555 1_555
O1 S1 1_555 1_555
O2 S1 1_555 1_555
O3 S1 1_555 1_555
F2 C19 1_555 1_555
F3 C19 1_555 1_555
O4 H22 1_555 1_555
C20 O4 1_555 1_555
H23 C20 1_555 1_555
H24 C20 1_555 1_555
H25 C20 1_555 1_555
Ag1F N1F 1_555 1_555
Ag1F_2 N2 1_555 1_555
Ag1B N3B 1_555 1_555
Si1F C3F 1_555 1_555
N1F C1F 1_555 1_555
N2F Ag1 1_555 1_555
N2_2 Ag1F 1_555 1_555
N3B C11B 1_555 1_555
N3F Ag1F 1_555 1_555
C1F H1F 1_555 1_555
C2F C1F 1_555 1_555
H2F C2F 1_555 1_555
C3F C2F 1_555 1_555
C4F C3F 1_555 1_555
H3F C4F 1_555 1_555
C5F N1F 1_555 1_555
H4F C5F 1_555 1_555
C6F N2F 1_555 1_555
H5F C6F 1_555 1_555
C7F C6F 1_555 1_555
H6F C7F 1_555 1_555
C8F Si1F 1_555 1_555
C9F C8F 1_555 1_555
H7F C9F 1_555 1_555
C10F N2F 1_555 1_555
H8F C10F 1_555 1_555
C11B H9B 1_555 1_555
C12B C11B 1_555 1_555
H10B C12B 1_555 1_555
C13B Si2 1_555 1_555
C14B C13B 1_555 1_555
H11B C14B 1_555 1_555
C15B N3B 1_555 1_555
H12B C15B 1_555 1_555
C16F Si1F 1_555 1_555
H13F C16F 1_555 1_555
H14F C16F 1_555 1_555
H15F C16F 1_555 1_555
C17F Si1F 1_555 1_555
H16F C17F 1_555 1_555
H17F C17F 1_555 1_555
H18F C17F 1_555 1_555
C18B Si2 1_555 1_555
H19B C18B 1_555 1_555
H20B C18B 1_555 1_555
H21B C18B 1_555 1_555
C4 C5 1_555 1_555
C7 C8 1_555 1_555
C9 C10 1_555 1_555
C14 C15 1_555 1_555
C4F C5F 1_555 1_555
C7F C8F 1_555 1_555
C9F C10F 1_555 1_555
C12B C13B 1_555 1_555
C14B C15B 1_555 1_555

#END
