
#######################################################################
#
#                 Cambridge Crystallographic Data Centre
#                                CCDC 
#
#######################################################################
#
# If this CIF has been generated from an entry in the Cambridge 
# Structural Database, then it will include bibliographic, chemical, 
# crystal, experimental, refinement or atomic coordinate data resulting 
# from the CCDC's data processing and validation procedures.
#
#######################################################################

data_DANTUJ
_symmetry_cell_setting           monoclinic
_symmetry_space_group_name_H-M   'P 21/a'
_symmetry_Int_Tables_number      14
_space_group_name_Hall           '-P 2yab'
loop_
_symmetry_equiv_pos_site_id
_symmetry_equiv_pos_as_xyz
1 x,y,z
2 1/2-x,1/2+y,-z
3 -x,-y,-z
4 1/2+x,1/2-y,z
_cell_length_a                   7.4373
_cell_length_b                   7.6111
_cell_length_c                   12.011
_cell_angle_alpha                90
_cell_angle_beta                 97.7817
_cell_angle_gamma                90
_cell_volume                     673.634
loop_
_atom_site_label
_atom_site_type_symbol
_atom_site_fract_x
_atom_site_fract_y
_atom_site_fract_z
Cu1 Cu 0.444203(19) 0.190061(17) 0.033685(14)
P1 P 0.12918(4) 0.05048(4) -0.13245(3)
O1 O 0.36215(13) 0.06285(12) 0.16340(9)
O2 O 0.31360(11) 0.00853(11) -0.06357(9)
O3 O 0.05076(14) 0.22439(11) -0.09627(9)
O4 O -0.00206(12) -0.10362(11) -0.12556(9)
C1 C 0.2219(3) -0.0855(2) -0.33413(15)
C2 C 0.2739(5) -0.0457(3) -0.4491(2)
C3 C 0.1605(2) 0.08006(18) -0.27723(12)
H1 H 0.028670 0.123630 -0.319440
H2 H 0.116380 -0.18389 -0.336240
H3 H 0.337260 -0.144890 -0.278220
H4 H 0.246760 0.17715 -0.274180
H5 H 0.18296 0.038260 -0.501760
H6 H 0.372440 0.066600 -0.45337
H7 H 0.315770 -0.158990 -0.484110
H8 H 0.381067 -0.054938 0.15283
H9 H 0.247346 0.078269 0.154747
Cu1B Cu 0.555797(19) -0.190061(17) -0.033685(14)
Cu1C Cu -0.055797(19) 0.309939(17) 0.033685(14)
Cu1A Cu 0.055797(19) -0.309939(17) -0.033685(14)
Cu1C_2 Cu 0.944203(19) 0.309939(17) 0.033685(14)
Cu1A_2 Cu 1.055797(19) -0.309939(17) -0.033685(14)
P1B P 0.87082(4) -0.05048(4) 0.13245(3)
O1B O 0.63785(13) -0.06285(12) -0.16340(9)
O2B O 0.68640(11) -0.00853(11) 0.06357(9)
O3C O 0.55076(14) 0.27561(11) -0.09627(9)
O3A O 0.44924(14) -0.27561(11) 0.09627(9)
O3B O 0.94924(14) -0.22439(11) 0.09627(9)
O4A O 0.50206(12) 0.39638(11) 0.12556(9)
O4C O 0.49794(12) -0.39638(11) -0.12556(9)
O4B O 1.00206(12) 0.10362(11) 0.12556(9)
C1B C 0.7781(3) 0.0855(2) 0.33413(15)
C2B C 0.7261(5) 0.0457(3) 0.4491(2)
C3B C 0.8395(2) -0.08006(18) 0.27723(12)
H1B H 0.971330 -0.123630 0.319440
H2B H 0.883620 0.18389 0.336240
H3B H 0.662740 0.144890 0.278220
H4B H 0.753240 -0.17715 0.274180
H5B H 0.81704 -0.038260 0.501760
H6B H 0.627560 -0.066600 0.45337
H7B H 0.684230 0.158990 0.484110
H8B H 0.618933 0.054938 -0.15283
H9B H 0.752654 -0.078269 -0.154747
loop_
_geom_bond_atom_site_label_1
_geom_bond_atom_site_label_2
_geom_bond_site_symmetry_1
_geom_bond_site_symmetry_2
Cu1 O1 1_555 1_555
P1 O2 1_555 1_555
O1 H8 1_555 1_555
O2 Cu1 1_555 1_555
O3 P1 1_555 1_555
O4 P1 1_555 1_555
C1 C2 1_555 1_555
C2 H5 1_555 1_555
C3 P1 1_555 1_555
H1 C3 1_555 1_555
H2 C1 1_555 1_555
H3 C1 1_555 1_555
H4 C3 1_555 1_555
H6 C2 1_555 1_555
H7 C2 1_555 1_555
H9 O1 1_555 1_555
Cu1B O2 1_555 1_555
Cu1C O3 1_555 1_555
Cu1A O4 1_555 1_555
Cu1C_2 O4B 1_555 1_555
Cu1A_2 O3B 1_555 1_555
P1B O2B 1_555 1_555
O1B Cu1B 1_555 1_555
O2B Cu1 1_555 1_555
O3C Cu1 1_555 1_555
O3A Cu1B 1_555 1_555
O3B P1B 1_555 1_555
O4A Cu1 1_555 1_555
O4C Cu1B 1_555 1_555
O4B P1B 1_555 1_555
C1B C2B 1_555 1_555
C2B H5B 1_555 1_555
C3B P1B 1_555 1_555
H1B C3B 1_555 1_555
H2B C1B 1_555 1_555
H3B C1B 1_555 1_555
H4B C3B 1_555 1_555
H6B C2B 1_555 1_555
H7B C2B 1_555 1_555
H8B O1B 1_555 1_555
H9B O1B 1_555 1_555
C1 C3 1_555 1_555
Cu1B O2B 1_555 1_555
C1B C3B 1_555 1_555

#END
