
#######################################################################
#
#                 Cambridge Crystallographic Data Centre
#                                CCDC 
#
#######################################################################
#
# If this CIF has been generated from an entry in the Cambridge 
# Structural Database, then it will include bibliographic, chemical, 
# crystal, experimental, refinement or atomic coordinate data resulting 
# from the CCDC's data processing and validation procedures.
#
#######################################################################

data_DANVAQ
_symmetry_cell_setting           cubic
_symmetry_space_group_name_H-M   'P a -3'
_symmetry_Int_Tables_number      205
_space_group_name_Hall           '-P 2ac 2ab 3'
loop_
_symmetry_equiv_pos_site_id
_symmetry_equiv_pos_as_xyz
1 x,y,z
2 z,x,y
3 y,z,x
4 1/2-x,-y,1/2+z
5 -x,1/2+y,1/2-z
6 1/2+x,1/2-y,-z
7 1/2+z,1/2-x,-y
8 1/2-z,-x,1/2+y
9 -z,1/2+x,1/2-y
10 -y,1/2+z,1/2-x
11 1/2+y,1/2-z,-x
12 1/2-y,-z,1/2+x
13 -x,-y,-z
14 -z,-x,-y
15 -y,-z,-x
16 1/2+x,y,1/2-z
17 x,1/2-y,1/2+z
18 1/2-x,1/2+y,z
19 1/2-z,1/2+x,y
20 1/2+z,x,1/2-y
21 z,1/2-x,1/2+y
22 y,1/2-z,1/2+x
23 1/2-y,1/2+z,x
24 1/2+y,z,1/2-x
_cell_length_a                   19.9818(6)
_cell_length_b                   19.9818(6)
_cell_length_c                   19.9818(6)
_cell_angle_alpha                90
_cell_angle_beta                 90
_cell_angle_gamma                90
_cell_volume                     7978.18
loop_
_atom_site_label
_atom_site_type_symbol
_atom_site_fract_x
_atom_site_fract_y
_atom_site_fract_z
La1 La 0.74739(4) 0.15339(4) 0.00707(4)
O1 O 0.6443(5) 0.2098(6) 0.0467(6)
O2 O 0.5858(6) 0.2981(7) 0.0809(6)
O3 O 0.8437(6) 0.2147(6) -0.0414(6)
O4 O 0.8891(6) 0.3017(7) -0.0939(6)
O5 O 0.6555(8) 0.0695(7) -0.0238(7)
O6 O 0.8464(7) 0.0805(6) 0.0447(6)
O7 O 0.6931(6) 0.1887(6) -0.1035(5)
O8 O 0.7912(7) 0.2076(8) 0.1169(6)
N1 N 0.7424(6) 0.2826(7) -0.0006(6)
C1 C 0.6348(9) 0.2734(9) 0.0530(9)
C2 C 0.6882(9) 0.3175(8) 0.0247(9)
C3 C 0.6865(10) 0.3860(9) 0.0270(10)
H1 H 0.6508 0.4079 0.0473
C4 C 0.7371(12) 0.4214(10) -0.0007(11)
H2 H 0.7357 0.4679 0.0003
C5 C 0.7917(10) 0.3890(8) -0.0309(10)
H3 H 0.8257 0.4126 -0.0521
C6 C 0.7916(8) 0.3193(9) -0.0270(8)
C7 C 0.8455(8) 0.2773(9) -0.0559(8)
La1W La 0.65339(4) 0.00707(4) -0.24739(4)
La1N La 0.84661(4) -0.00707(4) 0.25261(4)
La1R La 0.49293(4) 0.24739(4) 0.15339(4)
La1C La 0.75261(4) -0.15339(4) 0.50707(4)
La1M La 0.99293(4) 0.25261(4) -0.15339(4)
La1C_2 La 0.75261(4) -0.15339(4) -0.49293(4)
O1W O 0.7098(6) 0.0467(6) -0.1443(5)
O1N O 0.7902(6) -0.0467(6) 0.3557(5)
O2W O 0.7981(7) 0.0809(6) -0.0858(6)
O2N O 0.7019(7) -0.0809(6) 0.4142(6)
O2F O 0.5809(6) -0.0858(6) -0.2981(7)
O2H O 0.9191(6) 0.0858(6) 0.2019(7)
O3W O 0.7147(6) -0.0414(6) -0.3437(6)
O3N O 0.7853(6) 0.0414(6) 0.1563(6)
O4W O 0.8017(7) -0.0939(6) -0.3891(6)
O4N O 0.6983(7) 0.0939(6) 0.1109(6)
O4G O 0.5939(6) 0.1109(6) -0.1983(7)
O4A O 0.9061(6) -0.1109(6) 0.3017(7)
O5W O 0.5695(7) -0.0238(7) -0.1555(8)
O5N O 0.9305(7) 0.0238(7) 0.3445(8)
O6W O 0.5805(6) 0.0447(6) -0.3464(7)
O6N O 0.9195(6) -0.0447(6) 0.1536(7)
O7W O 0.6887(6) -0.1035(5) -0.1931(6)
O7N O 0.8113(6) 0.1035(5) 0.3069(6)
O8W O 0.7076(8) 0.1169(6) -0.2912(7)
O8N O 0.7924(8) -0.1169(6) 0.2088(7)
N1W N 0.7826(7) -0.0006(6) -0.2424(6)
N1N N 0.7174(7) 0.0006(6) 0.2576(6)
C1W C 0.7734(9) 0.0530(9) -0.1348(9)
C1N C 0.7266(9) -0.0530(9) 0.3652(9)
C2W C 0.8175(8) 0.0247(9) -0.1882(9)
C2N C 0.6825(8) -0.0247(9) 0.3118(9)
C3W C 0.8860(9) 0.0270(10) -0.1865(10)
C3N C 0.6140(9) -0.0270(10) 0.3135(10)
H1W H 0.9079 0.0473 -0.1508
H1N H 0.5921 -0.0473 0.3492
C4W C 0.9214(10) -0.0007(11) -0.2371(12)
C4N C 0.5786(10) 0.0007(11) 0.2629(12)
H2W H 0.9679 0.0003 -0.2357
H2N H 0.5321 -0.0003 0.2643
C5W C 0.8890(8) -0.0309(10) -0.2917(10)
C5N C 0.6110(8) 0.0309(10) 0.2083(10)
H3W H 0.9126 -0.0521 -0.3257
H3N H 0.5874 0.0521 0.1743
C6W C 0.8193(9) -0.0270(8) -0.2916(8)
C6N C 0.6807(9) 0.0270(8) 0.2084(8)
C7W C 0.7773(9) -0.0559(8) -0.3455(8)
C7N C 0.7227(9) 0.0559(8) 0.1545(8)
Cl1 Cl 0.8489(3) 0.3489(3) 0.1511(3)
Cl2 Cl 0.7278(3) 0.2722(3) 0.7722(3)
Cl3 Cl 1.0000 0.0000 0.0000
loop_
_geom_bond_atom_site_label_1
_geom_bond_atom_site_label_2
_geom_bond_site_symmetry_1
_geom_bond_site_symmetry_2
La1 O1 1_555 1_555
O1 C1 1_555 1_555
O2 C1 1_555 1_555
O3 La1 1_555 1_555
O4 C7 1_555 1_555
O5 La1 1_555 1_555
O6 La1 1_555 1_555
O7 La1 1_555 1_555
O8 La1 1_555 1_555
N1 La1 1_555 1_555
C1 C2 1_555 1_555
C2 N1 1_555 1_555
C3 C2 1_555 1_555
H1 C3 1_555 1_555
C4 C3 1_555 1_555
H2 C4 1_555 1_555
C5 C4 1_555 1_555
H3 C5 1_555 1_555
C6 N1 1_555 1_555
C7 O3 1_555 1_555
La1W O1W 1_555 1_555
La1N O1N 1_555 1_555
La1R O2 1_555 1_555
La1C O2N 1_555 1_555
La1M O4 1_555 1_555
La1C_2 O4W 1_555 1_555
O1W C1W 1_555 1_555
O1N C1N 1_555 1_555
O2W La1 1_555 1_555
O2N C1N 1_555 1_555
O2F La1W 1_555 1_555
O2H La1N 1_555 1_555
O3W La1W 1_555 1_555
O3N La1N 1_555 1_555
O4W C7W 1_555 1_555
O4N La1 1_555 1_555
O4G La1W 1_555 1_555
O4A La1N 1_555 1_555
O5W La1W 1_555 1_555
O5N La1N 1_555 1_555
O6W La1W 1_555 1_555
O6N La1N 1_555 1_555
O7W La1W 1_555 1_555
O7N La1N 1_555 1_555
O8W La1W 1_555 1_555
O8N La1N 1_555 1_555
N1W La1W 1_555 1_555
N1N La1N 1_555 1_555
C1W O2W 1_555 1_555
C1N C2N 1_555 1_555
C2W N1W 1_555 1_555
C2N N1N 1_555 1_555
C3W C2W 1_555 1_555
C3N C2N 1_555 1_555
H1W C3W 1_555 1_555
H1N C3N 1_555 1_555
C4W C3W 1_555 1_555
C4N C3N 1_555 1_555
H2W C4W 1_555 1_555
H2N C4N 1_555 1_555
C5W C4W 1_555 1_555
C5N C4N 1_555 1_555
H3W C5W 1_555 1_555
H3N C5N 1_555 1_555
C6W N1W 1_555 1_555
C6N N1N 1_555 1_555
C7W O3W 1_555 1_555
C7N O3N 1_555 1_555
C5 C6 1_555 1_555
C6 C7 1_555 1_555
O4N C7N 1_555 1_555
C1W C2W 1_555 1_555
C5W C6W 1_555 1_555
C5N C6N 1_555 1_555
C6W C7W 1_555 1_555
C6N C7N 1_555 1_555

#END
