
#######################################################################
#
#                 Cambridge Crystallographic Data Centre
#                                CCDC 
#
#######################################################################
#
# If this CIF has been generated from an entry in the Cambridge 
# Structural Database, then it will include bibliographic, chemical, 
# crystal, experimental, refinement or atomic coordinate data resulting 
# from the CCDC's data processing and validation procedures.
#
#######################################################################

data_DANVIY
_symmetry_cell_setting           triclinic
_symmetry_space_group_name_H-M   'P -1'
_symmetry_Int_Tables_number      2
_space_group_name_Hall           '-P 1'
loop_
_symmetry_equiv_pos_site_id
_symmetry_equiv_pos_as_xyz
1 x,y,z
2 -x,-y,-z
_cell_length_a                   10.456(3)
_cell_length_b                   11.859(2)
_cell_length_c                   13.731(3)
_cell_angle_alpha                93.939(4)
_cell_angle_beta                 110.801(5)
_cell_angle_gamma                111.043(3)
_cell_volume                     1447.44
loop_
_atom_site_label
_atom_site_type_symbol
_atom_site_fract_x
_atom_site_fract_y
_atom_site_fract_z
La1 La 0.36702(4) 0.06387(3) 0.36697(3)
La2 La -0.26951(4) -0.34310(3) 0.04258(3)
O1 O 0.1295(5) -0.0258(4) 0.1988(4)
O2 O -0.1218(5) -0.1128(4) 0.1169(4)
O3 O 0.3783(5) 0.1639(5) 0.5405(4)
O4 O 0.2829(6) 0.2281(5) 0.6423(4)
O5 O 0.4171(7) 0.4525(5) 0.3022(4)
O6 O 0.3392(6) 0.2523(4) 0.3032(4)
O7 O 0.6248(5) 0.0844(4) 0.4996(4)
O8 O 0.8460(5) 0.1823(5) 0.6309(4)
O9 O -0.0043(5) -0.3062(4) 0.0872(4)
O10 O 0.1998(5) -0.3431(5) 0.1415(4)
O11 O -0.4406(5) -0.5398(4) 0.0794(4)
O12 O -0.5120(6) -0.7283(5) 0.1073(5)
O13 O 0.4845(8) 0.1034(6) 0.2317(5)
O14 O 0.4087(7) -0.1227(5) 0.2935(5)
O15 O -0.1463(7) -0.3078(6) 0.2481(5)
O16 O -0.4252(8) -0.2764(7) 0.1293(5)
O17 O -0.3324(7) -0.5139(5) -0.1133(4)
O18 O -0.1786(7) -0.2370(6) -0.0907(5)
N1 N 0.1202(6) 0.0718(5) 0.3733(4)
N2 N 0.6039(6) 0.2857(5) 0.4485(4)
N3 N -0.1684(6) -0.5157(5) 0.1161(4)
C1 C -0.0012(8) -0.0454(6) 0.1924(5)
C2 C -0.0075(8) 0.0220(6) 0.2868(6)
C3 C -0.1392(8) 0.0278(7) 0.2834(6)
H1 H -0.2284 -0.0109 0.2226
C4 C -0.1338(9) 0.0922(7) 0.3725(6)
H2 H -0.2189 0.1008 0.3722
C5 C -0.0015(8) 0.1438(7) 0.4621(6)
H3 H 0.0033 0.1871 0.5233
C6 C 0.1244(8) 0.1315(7) 0.4612(6)
C7 C 0.2727(9) 0.1800(6) 0.5559(6)
C8 C 0.5894(9) 0.3850(7) 0.4159(6)
C9 C 0.4358(9) 0.3625(7) 0.3340(6)
C10 C 0.7057(10) 0.5004(8) 0.4538(7)
H4 H 0.6925 0.5682 0.4289
C11 C 0.8418(11) 0.5144(8) 0.5289(8)
H5 H 0.9221 0.5919 0.5558
C12 C 0.8582(9) 0.4118(7) 0.5642(7)
H6 H 0.9491 0.4187 0.6153
C13 C 0.7355(8) 0.2990(7) 0.5214(6)
C14 C 0.7406(7) 0.1825(6) 0.5547(5)
C15 C -0.4130(8) -0.6313(7) 0.1072(5)
C16 C -0.2545(7) -0.6181(6) 0.1347(5)
C17 C -0.2021(8) -0.7038(7) 0.1757(6)
H7 H -0.2651 -0.7756 0.1865
C18 C -0.0540(9) -0.6798(7) 0.1999(7)
H8 H -0.0152 -0.7356 0.2275
C19 C 0.0348(8) -0.5745(7) 0.1832(6)
H9 H 0.1353 -0.5570 0.2003
C20 C -0.0246(7) -0.4931(6) 0.1407(5)
C21 C 0.0647(8) -0.3718(6) 0.1214(5)
H10 H -0.038(7) -0.263(5) 0.284(5)
H11 H -0.380(9) -0.496(7) -0.165(6)
H12 H -0.180(9) -0.286(7) 0.274(6)
H13 H -0.281(9) -0.543(7) -0.106(6)
H14 H 0.333(8) -0.186(7) 0.241(6)
H15 H 0.437(10) -0.159(8) 0.334(7)
H16 H 0.565(15) 0.151(13) 0.278(11)
H17 H -0.094(11) -0.183(8) -0.073(7)
H18 H -0.230(10) -0.244(8) -0.160(8)
H22 H -0.486(11) -0.319(9) 0.120(8)
H24 H -0.441(11) -0.236(9) 0.102(8)
H25 H 0.475(10) 0.060(9) 0.199(7)
La1A La 0.63298(4) -0.06387(3) 0.63303(3)
La2A La -0.73049(4) -0.65690(3) -0.04258(3)
O7A O 0.3752(5) -0.0844(4) 0.5004(4)
O11A O -0.5594(5) -0.4602(4) -0.0794(4)
O12A O -0.4880(6) -0.2717(5) -0.1073(5)
O19 O 0.1438(9) -0.0887(8) 0.0016(6)
H19 H 0.078(12) -0.107(9) -0.039(8)
H20 H 0.197(11) -0.021(9) 0.012(7)
O20 O 0.4504(10) -0.0773(8) 0.0682(6)
H21 H 0.495(11) -0.037(8) 0.031(8)
H23 H 0.421(10) -0.139(8) 0.032(8)
loop_
_geom_bond_atom_site_label_1
_geom_bond_atom_site_label_2
_geom_bond_site_symmetry_1
_geom_bond_site_symmetry_2
La1 O1 1_555 1_555
La2 O2 1_555 1_555
O1 C1 1_555 1_555
O2 C1 1_555 1_555
O3 La1 1_555 1_555
O4 C7 1_555 1_555
O5 C9 1_555 1_555
O6 La1 1_555 1_555
O7 La1 1_555 1_555
O8 C14 1_555 1_555
O9 La2 1_555 1_555
O10 C21 1_555 1_555
O11 La2 1_555 1_555
O12 C15 1_555 1_555
O13 La1 1_555 1_555
O14 La1 1_555 1_555
O15 La2 1_555 1_555
O16 La2 1_555 1_555
O17 La2 1_555 1_555
O18 La2 1_555 1_555
O19 H19 1_555 1_555
O20 H21 1_555 1_555
N1 La1 1_555 1_555
N2 La1 1_555 1_555
N3 La2 1_555 1_555
C1 C2 1_555 1_555
C2 N1 1_555 1_555
C3 C2 1_555 1_555
H1 C3 1_555 1_555
C4 C3 1_555 1_555
H2 C4 1_555 1_555
C5 C4 1_555 1_555
H3 C5 1_555 1_555
C6 N1 1_555 1_555
C7 O3 1_555 1_555
C8 N2 1_555 1_555
C9 O6 1_555 1_555
C10 C8 1_555 1_555
H4 C10 1_555 1_555
C11 C10 1_555 1_555
H5 C11 1_555 1_555
C12 C11 1_555 1_555
H6 C12 1_555 1_555
C13 N2 1_555 1_555
C14 O7 1_555 1_555
C15 O11 1_555 1_555
C16 N3 1_555 1_555
C17 C16 1_555 1_555
H7 C17 1_555 1_555
C18 C17 1_555 1_555
H8 C18 1_555 1_555
C19 C18 1_555 1_555
H9 C19 1_555 1_555
C20 N3 1_555 1_555
C21 O9 1_555 1_555
H10 O15 1_555 1_555
H11 O17 1_555 1_555
H12 O15 1_555 1_555
H13 O17 1_555 1_555
H14 O14 1_555 1_555
H15 O14 1_555 1_555
H16 O13 1_555 1_555
H17 O18 1_555 1_555
H18 O18 1_555 1_555
H20 O19 1_555 1_555
H22 O16 1_555 1_555
H23 O20 1_555 1_555
H24 O16 1_555 1_555
H25 O13 1_555 1_555
La1A O7 1_555 1_555
La2A O11 1_555 1_555
O7A La1 1_555 1_555
O11A La2 1_555 1_555
O12A La2 1_555 1_555
O12 La2A 1_555 1_555
C5 C6 1_555 1_555
C6 C7 1_555 1_555
C8 C9 1_555 1_555
C12 C13 1_555 1_555
C13 C14 1_555 1_555
C15 C16 1_555 1_555
C19 C20 1_555 1_555
C20 C21 1_555 1_555
La1A O7A 1_555 1_555
La2A O11A 1_555 1_555

#END
