
#######################################################################
#
#                 Cambridge Crystallographic Data Centre
#                                CCDC 
#
#######################################################################
#
# If this CIF has been generated from an entry in the Cambridge 
# Structural Database, then it will include bibliographic, chemical, 
# crystal, experimental, refinement or atomic coordinate data resulting 
# from the CCDC's data processing and validation procedures.
#
#######################################################################

data_DANZEX
_symmetry_cell_setting           orthorhombic
_symmetry_space_group_name_H-M   'P n n m'
_symmetry_Int_Tables_number      58
_space_group_name_Hall           '-P 2 2n'
loop_
_symmetry_equiv_pos_site_id
_symmetry_equiv_pos_as_xyz
1 x,y,z
2 x,y,-z
3 1/2+x,1/2-y,1/2+z
4 1/2-x,1/2+y,1/2+z
5 -x,-y,-z
6 -x,-y,z
7 1/2-x,1/2+y,1/2-z
8 1/2+x,1/2-y,1/2-z
_cell_length_a                   7.2723(3)
_cell_length_b                   6.1126(3)
_cell_length_c                   7.5563(4)
_cell_angle_alpha                90
_cell_angle_beta                 90
_cell_angle_gamma                90
_cell_volume                     335.898
loop_
_atom_site_label
_atom_site_type_symbol
_atom_site_fract_x
_atom_site_fract_y
_atom_site_fract_z
Mn1 Mn 0.0000 0.0000 0.0000
N1 N -0.0905(2) 0.2175(2) 0.2130(2)
N2 N -0.2145(3) 0.3419(3) 0.5000
C1 C -0.1431(2) 0.2705(2) 0.3502(2)
N2B N 0.2855(3) 0.1581(3) 0.0000
Mn1B Mn -0.5000 0.5000 0.5000
Mn1F Mn -0.5000 -0.5000 0.5000
N1F N -0.4095(2) -0.2825(2) 0.2870(2)
C1F C -0.3569(2) -0.2295(2) 0.1498(2)
N2C N -0.2855(3) -0.1581(3) 0.0000
N1A N -0.0905(2) 0.2175(2) -0.2130(2)
N1D N 0.0905(2) -0.2175(2) -0.2130(2)
N1E N 0.0905(2) -0.2175(2) 0.2130(2)
C1C C -0.3569(2) -0.2295(2) -0.1498(2)
N1C N -0.4095(2) -0.2825(2) -0.2870(2)
Mn1C Mn -0.5000 -0.5000 -0.5000
C1A C -0.1431(2) 0.2705(2) 0.6498(2)
N1A_2 N -0.0905(2) 0.2175(2) 0.7870(2)
Mn1_2 Mn 0.0000 0.0000 1.0000
loop_
_geom_bond_atom_site_label_1
_geom_bond_atom_site_label_2
_geom_bond_site_symmetry_1
_geom_bond_site_symmetry_2
Mn1 N1 1_555 1_555
N1 C1 1_555 1_555
N2 C1 1_555 1_555
N2B Mn1 1_555 1_555
Mn1B N2 1_555 1_555
Mn1F N1F 1_555 1_555
N1F C1F 1_555 1_555
C1F N2C 1_555 1_555
N2C Mn1 1_555 1_555
N1A Mn1 1_555 1_555
N1D Mn1 1_555 1_555
N1E Mn1 1_555 1_555
C1C N2C 1_555 1_555
N1C C1C 1_555 1_555
Mn1C N1C 1_555 1_555
C1A N2 1_555 1_555
N1A_2 C1A 1_555 1_555
Mn1_2 N1A_2 1_555 1_555

#END
