
#######################################################################
#
#                 Cambridge Crystallographic Data Centre
#                                CCDC 
#
#######################################################################
#
# If this CIF has been generated from an entry in the Cambridge 
# Structural Database, then it will include bibliographic, chemical, 
# crystal, experimental, refinement or atomic coordinate data resulting 
# from the CCDC's data processing and validation procedures.
#
#######################################################################

data_DANZID
_symmetry_cell_setting           tetragonal
_symmetry_space_group_name_H-M   'P 4/n'
_symmetry_Int_Tables_number      85
_space_group_name_Hall           '-P 4a'
loop_
_symmetry_equiv_pos_site_id
_symmetry_equiv_pos_as_xyz
1 x,y,z
2 1/2-x,1/2-y,z
3 1/2-y,x,z
4 y,1/2-x,z
5 -x,-y,-z
6 1/2+x,1/2+y,-z
7 1/2+y,-x,-z
8 -y,1/2+x,-z
_cell_length_a                   29.2846(9)
_cell_length_b                   29.2846(9)
_cell_length_c                   9.9941(4)
_cell_angle_alpha                90
_cell_angle_beta                 90
_cell_angle_gamma                90
_cell_volume                     8570.82
loop_
_atom_site_label
_atom_site_type_symbol
_atom_site_fract_x
_atom_site_fract_y
_atom_site_fract_z
Cu2 Cu 0.2500 0.2500 0.3548(3)
N1 N 0.2570(2) 0.3171(2) 0.3595(8)
N2 N 0.0861(3) 0.4498(3) 0.4059(10)
C10 C 0.1249(3) 0.3992(3) 0.2689(11)
H5 H 0.1320 0.3884 0.1839
C12 C 0.1448(4) 0.3794(4) 0.3780(12)
C13 C 0.2237(3) 0.3492(3) 0.3622(11)
C17 C 0.2415(3) 0.3950(3) 0.3687(11)
H7 H 0.2253 0.4223 0.3750
C18 C 0.1780(3) 0.3412(3) 0.3657(10)
C19 C 0.0526(3) 0.4886(3) 0.4319(11)
H8 H 0.0496 0.4932 0.5266
H9 H 0.0234 0.4809 0.3947
H10 H 0.0637 0.5160 0.3910
C20 C 0.2861(3) 0.3891(4) 0.3637(11)
H11 H 0.3077 0.4124 0.3613
C21 C 0.2963(3) 0.3418(3) 0.3627(10)
C22 C 0.1344(4) 0.3945(4) 0.4985(14)
H12 H 0.1468 0.3796 0.5723
C25 C 0.0941(3) 0.4353(4) 0.2825(12)
H15 H 0.0799 0.4485 0.2088
C26 C 0.1049(4) 0.4328(4) 0.5211(13)
H16 H 0.0991 0.4449 0.6055
N1B N 0.1829(2) 0.2570(2) 0.3595(8)
N1A N 0.2430(2) 0.1829(2) 0.3595(8)
N1C N 0.3171(2) 0.2430(2) 0.3595(8)
N2B N 0.0502(3) 0.0861(3) 0.4059(10)
N2A N 0.4139(3) 0.0502(3) 0.4059(10)
N2C N 0.4498(3) 0.4139(3) 0.4059(10)
C10B C 0.1008(3) 0.1249(3) 0.2689(11)
C10A C 0.3751(3) 0.1008(3) 0.2689(11)
C10C C 0.3992(3) 0.3751(3) 0.2689(11)
H5B H 0.1116 0.1320 0.1839
H5A H 0.3680 0.1116 0.1839
H5C H 0.3884 0.3680 0.1839
C12B C 0.1206(4) 0.1448(4) 0.3780(12)
C12A C 0.3552(4) 0.1206(4) 0.3780(12)
C12C C 0.3794(4) 0.3552(4) 0.3780(12)
C13B C 0.1508(3) 0.2237(3) 0.3622(11)
C13A C 0.2763(3) 0.1508(3) 0.3622(11)
C13C C 0.3492(3) 0.2763(3) 0.3622(11)
C17C C 0.3950(3) 0.2585(3) 0.3687(11)
C17A C 0.2585(3) 0.1050(3) 0.3687(11)
C17B C 0.1050(3) 0.2415(3) 0.3687(11)
H7C H 0.4223 0.2747 0.3750
H7A H 0.2747 0.0777 0.3750
H7B H 0.0777 0.2253 0.3750
C18B C 0.1588(3) 0.1780(3) 0.3657(10)
C18A C 0.3220(3) 0.1588(3) 0.3657(10)
C18C C 0.3412(3) 0.3220(3) 0.3657(10)
C19B C 0.0114(3) 0.0526(3) 0.4319(11)
C19A C 0.4474(3) 0.0114(3) 0.4319(11)
C19C C 0.4886(3) 0.4474(3) 0.4319(11)
H8B H 0.0068 0.0496 0.5266
H8A H 0.4504 0.0068 0.5266
H8C H 0.4932 0.4504 0.5266
H9B H 0.0191 0.0234 0.3947
H9A H 0.4766 0.0191 0.3947
H9C H 0.4809 0.4766 0.3947
H10B H -0.0160 0.0637 0.3910
H10A H 0.4363 -0.0160 0.3910
H10C H 0.5160 0.4363 0.3910
C20C C 0.3891(4) 0.2139(3) 0.3637(11)
C20A C 0.2139(3) 0.1109(4) 0.3637(11)
C20B C 0.1109(4) 0.2861(3) 0.3637(11)
H11C H 0.4124 0.1923 0.3613
H11A H 0.1923 0.0876 0.3613
H11B H 0.0876 0.3077 0.3613
C21B C 0.1582(3) 0.2963(3) 0.3627(10)
C21A C 0.2037(3) 0.1582(3) 0.3627(10)
C21C C 0.3418(3) 0.2037(3) 0.3627(10)
C22B C 0.1055(4) 0.1344(4) 0.4985(14)
C22A C 0.3656(4) 0.1055(4) 0.4985(14)
C22C C 0.3945(4) 0.3656(4) 0.4985(14)
H12B H 0.1204 0.1468 0.5723
H12A H 0.3532 0.1204 0.5723
H12C H 0.3796 0.3532 0.5723
C25B C 0.0647(4) 0.0941(3) 0.2825(12)
C25A C 0.4059(3) 0.0647(4) 0.2825(12)
C25C C 0.4353(4) 0.4059(3) 0.2825(12)
H15B H 0.0515 0.0799 0.2088
H15A H 0.4201 0.0515 0.2088
H15C H 0.4485 0.4201 0.2088
C26B C 0.0672(4) 0.1049(4) 0.5211(13)
C26A C 0.3951(4) 0.0672(4) 0.5211(13)
C26C C 0.4328(4) 0.3951(4) 0.5211(13)
H16B H 0.0551 0.0991 0.6055
H16A H 0.4009 0.0551 0.6055
H16C H 0.4449 0.4009 0.6055
O7 O 0.2500 0.2500 0.058(3)
Cd1 Cd 0.0000 0.5000 0.0000
Cu1 Cu 0.00710(4) 0.59791(4) 0.21312(12)
Cl1 Cl -0.0463(4) 0.5388(7) 0.1899(14)
O1 O 0.06977(18) 0.5177(2) 0.0879(6)
O2 O 0.3769(2) 0.50770(19) -0.0361(6)
O3 O 0.4038(2) 0.5051(2) 0.5921(6)
O4 O 0.4336(2) 0.4960(2) 0.1100(6)
O5 O 0.07321(19) 0.5815(2) 0.2090(6)
O6 O 0.3347(3) 0.5133(3) 0.6641(8)
C1 C 0.2980(3) 0.5163(3) 0.3995(9)
H1 H 0.2775 0.5206 0.4693
C2 C 0.3748(3) 0.5071(3) 0.3232(8)
H2 H 0.4059 0.5060 0.3414
C3 C 0.3598(3) 0.5054(3) 0.1926(8)
C4 C 0.3140(3) 0.5098(3) 0.1666(9)
H3 H 0.3037 0.5089 0.0787
C5 C 0.3436(3) 0.5105(3) 0.4285(9)
C6 C 0.2092(3) 0.4987(3) 0.1428(9)
H4 H 0.2251 0.4762 0.0967
C7 C 0.1401(3) 0.5389(3) 0.1854(9)
C8 C 0.2318(3) 0.5247(3) 0.2422(9)
C9 C 0.3935(3) 0.5020(3) 0.0806(10)
C11 C 0.3636(4) 0.5106(3) 0.5703(10)
C14 C 0.0887(3) 0.5451(3) 0.1555(9)
C15 C 0.2822(3) 0.5157(3) 0.2718(10)
C16 C 0.1640(3) 0.5066(3) 0.1140(9)
H6 H 0.1497 0.4902 0.0464
C23 C 0.1621(3) 0.5633(3) 0.2868(10)
H13 H 0.1466 0.5856 0.3348
C24 C 0.2075(3) 0.5538(3) 0.3149(9)
H14 H 0.2213 0.5684 0.3870
O8 O -0.0604(8) 0.6404(8) 0.214(2)
Cd1B Cd 0.0000 0.0000 0.0000
Cd1C Cd 0.5000 0.5000 0.0000
Cd1B_2 Cd 0.0000 1.0000 0.0000
Cd1C_2 Cd -0.5000 0.5000 0.0000
Cu1D Cu -0.00710(4) 0.40209(4) -0.21312(12)
Cu1B Cu -0.09791(4) 0.00710(4) 0.21312(12)
Cu1F Cu 0.09791(4) 0.99290(4) -0.21312(12)
Cu1G Cu 0.40209(4) 0.50710(4) -0.21312(12)
Cu1G_2 Cu 0.40209(4) 0.50710(4) 0.78688(12)
Cu1D_2 Cu -0.00710(4) 0.40209(4) 0.78688(12)
Cu1_2 Cu 0.00710(4) 0.59791(4) -0.78688(12)
Cu1C Cu -0.40209(4) 0.49290(4) 0.21312(12)
Cu1C_2 Cu -0.40209(4) 0.49290(4) -0.78688(12)
Cu1F_2 Cu 0.09791(4) -0.00710(4) -0.21312(12)
Cl1D Cl 0.0463(4) 0.4612(7) -0.1899(14)
Cl1B Cl -0.0388(7) -0.0463(4) 0.1899(14)
Cl1F Cl 0.0388(7) 0.0463(4) -0.1899(14)
Cl1F_2 Cl 0.0388(7) 1.0463(4) -0.1899(14)
O1B O -0.0177(2) 0.06977(18) 0.0879(6)
O1F O 0.0177(2) 0.93023(18) -0.0879(6)
O1D O -0.06977(18) 0.4823(2) -0.0879(6)
O1F_2 O 0.0177(2) -0.06977(18) -0.0879(6)
O2B O -0.00770(19) 0.3769(2) -0.0361(6)
O2F O 0.00770(19) 0.6231(2) 0.0361(6)
O2D O -0.3769(2) 0.49230(19) 0.0361(6)
O2E O -0.1231(2) 0.00770(19) 0.0361(6)
O2A O 0.1231(2) 0.99230(19) -0.0361(6)
O3B O -0.0051(2) 0.4038(2) 0.5921(6)
O3F O 0.0051(2) 0.5962(2) -0.5921(6)
O3D O -0.4038(2) 0.4949(2) -0.5921(6)
O3F_2 O 0.0051(2) 0.5962(2) 0.4079(6)
O3B_2 O -0.0051(2) 0.4038(2) -0.4079(6)
O3E O -0.0962(2) 0.0051(2) 0.4079(6)
O3A O 0.0962(2) 0.9949(2) -0.4079(6)
O4B O 0.0040(2) 0.4336(2) 0.1100(6)
O4F O -0.0040(2) 0.5664(2) -0.1100(6)
O4D O -0.4336(2) 0.5040(2) -0.1100(6)
O4A O 0.0664(2) 0.0040(2) 0.1100(6)
O4E O -0.0664(2) -0.0040(2) -0.1100(6)
O5B O -0.0815(2) 0.07321(19) 0.2090(6)
O5F O 0.0815(2) 0.92679(19) -0.2090(6)
O5D O -0.07321(19) 0.4185(2) -0.2090(6)
O6B O -0.0133(3) 0.3347(3) 0.6641(8)
O6F O 0.0133(3) 0.6653(3) -0.6641(8)
O6D O -0.3347(3) 0.4867(3) -0.6641(8)
O6F_2 O 0.0133(3) 0.6653(3) 0.3359(8)
O6B_2 O -0.0133(3) 0.3347(3) -0.3359(8)
O6E O -0.1653(3) 0.0133(3) 0.3359(8)
O6A O 0.1653(3) 0.9867(3) -0.3359(8)
C1B C -0.0163(3) 0.2980(3) 0.3995(9)
C1F C 0.0163(3) 0.7020(3) -0.3995(9)
C1D C -0.2980(3) 0.4837(3) -0.3995(9)
H1B H -0.0206 0.2775 0.4693
H1F H 0.0206 0.7225 -0.4693
H1D H -0.2775 0.4794 -0.4693
C2B C -0.0071(3) 0.3748(3) 0.3232(8)
C2F C 0.0071(3) 0.6252(3) -0.3232(8)
C2D C -0.3748(3) 0.4929(3) -0.3232(8)
H2B H -0.0060 0.4059 0.3414
H2F H 0.0060 0.5941 -0.3414
H2D H -0.4059 0.4940 -0.3414
C3B C -0.0054(3) 0.3598(3) 0.1926(8)
C3F C 0.0054(3) 0.6402(3) -0.1926(8)
C3D C -0.3598(3) 0.4946(3) -0.1926(8)
C4B C -0.0098(3) 0.3140(3) 0.1666(9)
C4F C 0.0098(3) 0.6860(3) -0.1666(9)
C4D C -0.3140(3) 0.4902(3) -0.1666(9)
H3B H -0.0089 0.3037 0.0787
H3F H 0.0089 0.6963 -0.0787
H3D H -0.3037 0.4911 -0.0787
C5B C -0.0105(3) 0.3436(3) 0.4285(9)
C5F C 0.0105(3) 0.6564(3) -0.4285(9)
C5D C -0.3436(3) 0.4895(3) -0.4285(9)
C6B C 0.0013(3) 0.2092(3) 0.1428(9)
C6F C -0.0013(3) 0.7908(3) -0.1428(9)
C6D C -0.2092(3) 0.5013(3) -0.1428(9)
H4B H 0.0238 0.2251 0.0967
H4F H -0.0238 0.7749 -0.0967
H4D H -0.2251 0.5238 -0.0967
C7B C -0.0389(3) 0.1401(3) 0.1854(9)
C7F C 0.0389(3) 0.8599(3) -0.1854(9)
C7D C -0.1401(3) 0.4611(3) -0.1854(9)
C8B C -0.0247(3) 0.2318(3) 0.2422(9)
C8F C 0.0247(3) 0.7682(3) -0.2422(9)
C8D C -0.2318(3) 0.4753(3) -0.2422(9)
C9B C -0.0020(3) 0.3935(3) 0.0806(10)
C9F C 0.0020(3) 0.6065(3) -0.0806(10)
C9D C -0.3935(3) 0.4980(3) -0.0806(10)
C11B C -0.0106(3) 0.3636(4) 0.5703(10)
C11F C 0.0106(3) 0.6364(4) -0.5703(10)
C11D C -0.3636(4) 0.4894(3) -0.5703(10)
C14B C -0.0451(3) 0.0887(3) 0.1555(9)
C14F C 0.0451(3) 0.9113(3) -0.1555(9)
C14D C -0.0887(3) 0.4549(3) -0.1555(9)
C15B C -0.0157(3) 0.2822(3) 0.2718(10)
C15F C 0.0157(3) 0.7178(3) -0.2718(10)
C15D C -0.2822(3) 0.4843(3) -0.2718(10)
C16B C -0.0066(3) 0.1640(3) 0.1140(9)
C16F C 0.0066(3) 0.8360(3) -0.1140(9)
C16D C -0.1640(3) 0.4934(3) -0.1140(9)
H6B H 0.0098 0.1497 0.0464
H6F H -0.0098 0.8503 -0.0464
H6D H -0.1497 0.5098 -0.0464
C23B C -0.0633(3) 0.1621(3) 0.2868(10)
C23F C 0.0633(3) 0.8379(3) -0.2868(10)
C23D C -0.1621(3) 0.4367(3) -0.2868(10)
H13B H -0.0856 0.1466 0.3348
H13F H 0.0856 0.8534 -0.3348
H13D H -0.1466 0.4144 -0.3348
C24B C -0.0538(3) 0.2075(3) 0.3149(9)
C24F C 0.0538(3) 0.7925(3) -0.3149(9)
C24D C -0.2075(3) 0.4462(3) -0.3149(9)
H14B H -0.0684 0.2213 0.3870
H14F H 0.0684 0.7787 -0.3870
H14D H -0.2213 0.4316 -0.3870
O8D O 0.0604(8) 0.3596(8) -0.214(2)
O8B O -0.1404(8) -0.0604(8) 0.214(2)
O8F O 0.1404(8) 1.0604(8) -0.214(2)
Cl2? Cl -0.0374(10) 0.5237(13) 0.224(4)
loop_
_geom_bond_atom_site_label_1
_geom_bond_atom_site_label_2
_geom_bond_site_symmetry_1
_geom_bond_site_symmetry_2
Cd1 Cl1 1_555 1_555
Cu1 Cl1 1_555 1_555
Cu2 N1 1_555 1_555
O1 Cd1 1_555 1_555
O2 C9 1_555 1_555
O3 C11 1_555 1_555
O4 C9 1_555 1_555
O5 Cu1 1_555 1_555
O6 C11 1_555 1_555
N1 C13 1_555 1_555
C1 H1 1_555 1_555
C2 H2 1_555 1_555
N2 C19 1_555 1_555
C3 C2 1_555 1_555
C4 C3 1_555 1_555
H3 C4 1_555 1_555
C5 C1 1_555 1_555
C6 H4 1_555 1_555
C7 C14 1_555 1_555
C8 C6 1_555 1_555
C9 C3 1_555 1_555
C10 H5 1_555 1_555
C11 C5 1_555 1_555
C12 C10 1_555 1_555
C13 C17 1_555 1_555
C14 O1 1_555 1_555
C15 C1 1_555 1_555
C16 C6 1_555 1_555
H6 C16 1_555 1_555
C17 H7 1_555 1_555
C18 C12 1_555 1_555
C19 H8 1_555 1_555
H9 C19 1_555 1_555
H10 C19 1_555 1_555
C20 C17 1_555 1_555
H11 C20 1_555 1_555
C21 N1 1_555 1_555
C22 C12 1_555 1_555
H12 C22 1_555 1_555
C23 C7 1_555 1_555
H13 C23 1_555 1_555
C24 C8 1_555 1_555
H14 C24 1_555 1_555
C25 N2 1_555 1_555
H15 C25 1_555 1_555
C26 N2 1_555 1_555
H16 C26 1_555 1_555
O8 Cu1 1_555 1_555
Cd1B Cl1B 1_555 1_555
Cd1C O4 1_555 1_555
Cd1B_2 Cl1F_2 1_555 1_555
Cd1C_2 O4D 1_555 1_555
Cu1D Cl1D 1_555 1_555
Cu1B Cl1B 1_555 1_555
Cu1F Cl1F_2 1_555 1_555
Cu1G O2 1_555 1_555
Cu1G_2 O3 1_555 1_555
Cu1D_2 O3B 1_555 1_555
Cu1_2 O3F 1_555 1_555
Cu1C O2D 1_555 1_555
Cu1C_2 O3D 1_555 1_555
Cu1F_2 Cl1F 1_555 1_555
Cl1D Cd1 1_555 1_555
Cl1F Cd1B 1_555 1_555
O1B Cd1B 1_555 1_555
O1F Cd1B_2 1_555 1_555
O1D Cd1 1_555 1_555
O1F_2 Cd1B 1_555 1_555
O2B Cu1D 1_555 1_555
O2F Cu1 1_555 1_555
O2D C9D 1_555 1_555
O2E Cu1B 1_555 1_555
O2A Cu1F 1_555 1_555
O3B C11B 1_555 1_555
O3F C11F 1_555 1_555
O3D C11D 1_555 1_555
O3F_2 Cu1 1_555 1_555
O3B_2 Cu1D 1_555 1_555
O3E Cu1B 1_555 1_555
O3A Cu1F 1_555 1_555
O4B Cd1 1_555 1_555
O4F Cd1 1_555 1_555
O4D C9D 1_555 1_555
O4A Cd1B 1_555 1_555
O4E Cd1B 1_555 1_555
O5B Cu1B 1_555 1_555
O5F Cu1F 1_555 1_555
O5D Cu1D 1_555 1_555
O6B Cu1D_2 1_555 1_555
O6F Cu1_2 1_555 1_555
O6D Cu1C_2 1_555 1_555
O6F_2 Cu1 1_555 1_555
O6B_2 Cu1D 1_555 1_555
O6E Cu1B 1_555 1_555
O6A Cu1F 1_555 1_555
N1B Cu2 1_555 1_555
N1A Cu2 1_555 1_555
N1C Cu2 1_555 1_555
C1B H1B 1_555 1_555
C1F H1F 1_555 1_555
C1D H1D 1_555 1_555
C2B H2B 1_555 1_555
C2F H2F 1_555 1_555
C2D H2D 1_555 1_555
N2B C19B 1_555 1_555
N2A C19A 1_555 1_555
N2C C19C 1_555 1_555
C3B C2B 1_555 1_555
C3F C2F 1_555 1_555
C3D C2D 1_555 1_555
C4B C3B 1_555 1_555
C4F C3F 1_555 1_555
C4D C3D 1_555 1_555
H3B C4B 1_555 1_555
H3F C4F 1_555 1_555
H3D C4D 1_555 1_555
C5B C1B 1_555 1_555
C5F C1F 1_555 1_555
C5D C1D 1_555 1_555
C6B H4B 1_555 1_555
C6F H4F 1_555 1_555
C6D H4D 1_555 1_555
C7B C14B 1_555 1_555
C7F C14F 1_555 1_555
C7D C14D 1_555 1_555
C8B C6B 1_555 1_555
C8F C6F 1_555 1_555
C8D C6D 1_555 1_555
C9B O2B 1_555 1_555
C9F O2F 1_555 1_555
C9D C3D 1_555 1_555
C10B H5B 1_555 1_555
C10A H5A 1_555 1_555
C10C H5C 1_555 1_555
C11B O6B 1_555 1_555
C11F O6F 1_555 1_555
C11D O6D 1_555 1_555
C12B C10B 1_555 1_555
C12A C10A 1_555 1_555
C12C C10C 1_555 1_555
C13B N1B 1_555 1_555
C13A N1A 1_555 1_555
C13C N1C 1_555 1_555
C14B O1B 1_555 1_555
C14F O1F 1_555 1_555
C14D O1D 1_555 1_555
C15B C1B 1_555 1_555
C15F C1F 1_555 1_555
C15D C1D 1_555 1_555
C16B C6B 1_555 1_555
C16F C6F 1_555 1_555
C16D C6D 1_555 1_555
H6B C16B 1_555 1_555
H6F C16F 1_555 1_555
H6D C16D 1_555 1_555
C17C C13C 1_555 1_555
C17A C13A 1_555 1_555
C17B C13B 1_555 1_555
H7C C17C 1_555 1_555
H7A C17A 1_555 1_555
H7B C17B 1_555 1_555
C18B C12B 1_555 1_555
C18A C12A 1_555 1_555
C18C C21 1_555 1_555
C19B H8B 1_555 1_555
C19A H8A 1_555 1_555
C19C H8C 1_555 1_555
H9B C19B 1_555 1_555
H9A C19A 1_555 1_555
H9C C19C 1_555 1_555
H10B C19B 1_555 1_555
H10A C19A 1_555 1_555
H10C C19C 1_555 1_555
C20C C17C 1_555 1_555
C20A C17A 1_555 1_555
C20B C17B 1_555 1_555
H11C C20C 1_555 1_555
H11A C20A 1_555 1_555
H11B C20B 1_555 1_555
C21B C18 1_555 1_555
C21A N1A 1_555 1_555
C21C N1C 1_555 1_555
C22B C12B 1_555 1_555
C22A C12A 1_555 1_555
C22C C12C 1_555 1_555
H12B C22B 1_555 1_555
H12A C22A 1_555 1_555
H12C C22C 1_555 1_555
C23B C7B 1_555 1_555
C23F C7F 1_555 1_555
C23D C7D 1_555 1_555
H13B C23B 1_555 1_555
H13F C23F 1_555 1_555
H13D C23D 1_555 1_555
C24B C8B 1_555 1_555
C24F C8F 1_555 1_555
C24D C8D 1_555 1_555
H14B C24B 1_555 1_555
H14F C24F 1_555 1_555
H14D C24D 1_555 1_555
C25B N2B 1_555 1_555
C25A N2A 1_555 1_555
C25C N2C 1_555 1_555
H15B C25B 1_555 1_555
H15A C25A 1_555 1_555
H15C C25C 1_555 1_555
C26B N2B 1_555 1_555
C26A N2A 1_555 1_555
C26C N2C 1_555 1_555
H16B C26B 1_555 1_555
H16A C26A 1_555 1_555
H16C C26C 1_555 1_555
O8D Cu1D 1_555 1_555
O8B Cu1B 1_555 1_555
O8F Cu1F 1_555 1_555
O5 C14 1_555 1_555
O6 Cu1G_2 1_555 1_555
C2 C5 1_555 1_555
C4 C15 1_555 1_555
C7 C16 1_555 1_555
C8 C15 1_555 1_555
C10 C25 1_555 1_555
C13 C18 1_555 1_555
C20 C21 1_555 1_555
C22 C26 1_555 1_555
C23 C24 1_555 1_555
O4B C9B 1_555 1_555
O4F C9F 1_555 1_555
O5B C14B 1_555 1_555
O5F C14F 1_555 1_555
O5D C14D 1_555 1_555
N1B C21B 1_555 1_555
C2B C5B 1_555 1_555
C2F C5F 1_555 1_555
C2D C5D 1_555 1_555
C3B C9B 1_555 1_555
C3F C9F 1_555 1_555
C4B C15B 1_555 1_555
C4F C15F 1_555 1_555
C4D C15D 1_555 1_555
C5B C11B 1_555 1_555
C5F C11F 1_555 1_555
C5D C11D 1_555 1_555
C7B C16B 1_555 1_555
C7F C16F 1_555 1_555
C7D C16D 1_555 1_555
C8B C15B 1_555 1_555
C8F C15F 1_555 1_555
C8D C15D 1_555 1_555
C10B C25B 1_555 1_555
C10A C25A 1_555 1_555
C10C C25C 1_555 1_555
C12C C18C 1_555 1_555
C13B C18B 1_555 1_555
C13A C18A 1_555 1_555
C13C C18C 1_555 1_555
C18B C21A 1_555 1_555
C18A C21C 1_555 1_555
C20C C21C 1_555 1_555
C20A C21A 1_555 1_555
C20B C21B 1_555 1_555
C22B C26B 1_555 1_555
C22A C26A 1_555 1_555
C22C C26C 1_555 1_555
C23B C24B 1_555 1_555
C23F C24F 1_555 1_555
C23D C24D 1_555 1_555

#END
