
#######################################################################
#
#                 Cambridge Crystallographic Data Centre
#                                CCDC 
#
#######################################################################
#
# If this CIF has been generated from an entry in the Cambridge 
# Structural Database, then it will include bibliographic, chemical, 
# crystal, experimental, refinement or atomic coordinate data resulting 
# from the CCDC's data processing and validation procedures.
#
#######################################################################

data_DAPBIH
_symmetry_cell_setting           cubic
_symmetry_space_group_name_H-M   'F m -3 m'
_symmetry_Int_Tables_number      225
_space_group_name_Hall           '-F 4 2 3'
loop_
_symmetry_equiv_pos_site_id
_symmetry_equiv_pos_as_xyz
1 x,y,z
2 -x,-y,z
3 -x,y,-z
4 x,-y,-z
5 z,x,y
6 z,-x,-y
7 -z,-x,y
8 -z,x,-y
9 y,z,x
10 -y,z,-x
11 y,-z,-x
12 -y,-z,x
13 y,x,-z
14 -y,-x,-z
15 y,-x,z
16 -y,x,z
17 x,z,-y
18 -x,z,y
19 -x,-z,-y
20 x,-z,y
21 z,y,-x
22 z,-y,x
23 -z,y,x
24 -z,-y,-x
25 x,1/2+y,1/2+z
26 -x,1/2-y,1/2+z
27 -x,1/2+y,1/2-z
28 x,1/2-y,1/2-z
29 z,1/2+x,1/2+y
30 z,1/2-x,1/2-y
31 -z,1/2-x,1/2+y
32 -z,1/2+x,1/2-y
33 y,1/2+z,1/2+x
34 -y,1/2+z,1/2-x
35 y,1/2-z,1/2-x
36 -y,1/2-z,1/2+x
37 y,1/2+x,1/2-z
38 -y,1/2-x,1/2-z
39 y,1/2-x,1/2+z
40 -y,1/2+x,1/2+z
41 x,1/2+z,1/2-y
42 -x,1/2+z,1/2+y
43 -x,1/2-z,1/2-y
44 x,1/2-z,1/2+y
45 z,1/2+y,1/2-x
46 z,1/2-y,1/2+x
47 -z,1/2+y,1/2+x
48 -z,1/2-y,1/2-x
49 1/2+x,y,1/2+z
50 1/2-x,-y,1/2+z
51 1/2-x,y,1/2-z
52 1/2+x,-y,1/2-z
53 1/2+z,x,1/2+y
54 1/2+z,-x,1/2-y
55 1/2-z,-x,1/2+y
56 1/2-z,x,1/2-y
57 1/2+y,z,1/2+x
58 1/2-y,z,1/2-x
59 1/2+y,-z,1/2-x
60 1/2-y,-z,1/2+x
61 1/2+y,x,1/2-z
62 1/2-y,-x,1/2-z
63 1/2+y,-x,1/2+z
64 1/2-y,x,1/2+z
65 1/2+x,z,1/2-y
66 1/2-x,z,1/2+y
67 1/2-x,-z,1/2-y
68 1/2+x,-z,1/2+y
69 1/2+z,y,1/2-x
70 1/2+z,-y,1/2+x
71 1/2-z,y,1/2+x
72 1/2-z,-y,1/2-x
73 1/2+x,1/2+y,z
74 1/2-x,1/2-y,z
75 1/2-x,1/2+y,-z
76 1/2+x,1/2-y,-z
77 1/2+z,1/2+x,y
78 1/2+z,1/2-x,-y
79 1/2-z,1/2-x,y
80 1/2-z,1/2+x,-y
81 1/2+y,1/2+z,x
82 1/2-y,1/2+z,-x
83 1/2+y,1/2-z,-x
84 1/2-y,1/2-z,x
85 1/2+y,1/2+x,-z
86 1/2-y,1/2-x,-z
87 1/2+y,1/2-x,z
88 1/2-y,1/2+x,z
89 1/2+x,1/2+z,-y
90 1/2-x,1/2+z,y
91 1/2-x,1/2-z,-y
92 1/2+x,1/2-z,y
93 1/2+z,1/2+y,-x
94 1/2+z,1/2-y,x
95 1/2-z,1/2+y,x
96 1/2-z,1/2-y,-x
97 -x,-y,-z
98 x,y,-z
99 x,-y,z
100 -x,y,z
101 -z,-x,-y
102 -z,x,y
103 z,x,-y
104 z,-x,y
105 -y,-z,-x
106 y,-z,x
107 -y,z,x
108 y,z,-x
109 -y,-x,z
110 y,x,z
111 -y,x,-z
112 y,-x,-z
113 -x,-z,y
114 x,-z,-y
115 x,z,y
116 -x,z,-y
117 -z,-y,x
118 -z,y,-x
119 z,-y,-x
120 z,y,x
121 -x,1/2-y,1/2-z
122 x,1/2+y,1/2-z
123 x,1/2-y,1/2+z
124 -x,1/2+y,1/2+z
125 -z,1/2-x,1/2-y
126 -z,1/2+x,1/2+y
127 z,1/2+x,1/2-y
128 z,1/2-x,1/2+y
129 -y,1/2-z,1/2-x
130 y,1/2-z,1/2+x
131 -y,1/2+z,1/2+x
132 y,1/2+z,1/2-x
133 -y,1/2-x,1/2+z
134 y,1/2+x,1/2+z
135 -y,1/2+x,1/2-z
136 y,1/2-x,1/2-z
137 -x,1/2-z,1/2+y
138 x,1/2-z,1/2-y
139 x,1/2+z,1/2+y
140 -x,1/2+z,1/2-y
141 -z,1/2-y,1/2+x
142 -z,1/2+y,1/2-x
143 z,1/2-y,1/2-x
144 z,1/2+y,1/2+x
145 1/2-x,-y,1/2-z
146 1/2+x,y,1/2-z
147 1/2+x,-y,1/2+z
148 1/2-x,y,1/2+z
149 1/2-z,-x,1/2-y
150 1/2-z,x,1/2+y
151 1/2+z,x,1/2-y
152 1/2+z,-x,1/2+y
153 1/2-y,-z,1/2-x
154 1/2+y,-z,1/2+x
155 1/2-y,z,1/2+x
156 1/2+y,z,1/2-x
157 1/2-y,-x,1/2+z
158 1/2+y,x,1/2+z
159 1/2-y,x,1/2-z
160 1/2+y,-x,1/2-z
161 1/2-x,-z,1/2+y
162 1/2+x,-z,1/2-y
163 1/2+x,z,1/2+y
164 1/2-x,z,1/2-y
165 1/2-z,-y,1/2+x
166 1/2-z,y,1/2-x
167 1/2+z,-y,1/2-x
168 1/2+z,y,1/2+x
169 1/2-x,1/2-y,-z
170 1/2+x,1/2+y,-z
171 1/2+x,1/2-y,z
172 1/2-x,1/2+y,z
173 1/2-z,1/2-x,-y
174 1/2-z,1/2+x,y
175 1/2+z,1/2+x,-y
176 1/2+z,1/2-x,y
177 1/2-y,1/2-z,-x
178 1/2+y,1/2-z,x
179 1/2-y,1/2+z,x
180 1/2+y,1/2+z,-x
181 1/2-y,1/2-x,z
182 1/2+y,1/2+x,z
183 1/2-y,1/2+x,-z
184 1/2+y,1/2-x,-z
185 1/2-x,1/2-z,y
186 1/2+x,1/2-z,-y
187 1/2+x,1/2+z,y
188 1/2-x,1/2+z,-y
189 1/2-z,1/2-y,x
190 1/2-z,1/2+y,-x
191 1/2+z,1/2-y,-x
192 1/2+z,1/2+y,x
_cell_length_a                   26.4292(11)
_cell_length_b                   26.4292(11)
_cell_length_c                   26.4292(11)
_cell_angle_alpha                90
_cell_angle_beta                 90
_cell_angle_gamma                90
_cell_volume                     18460.9
loop_
_atom_site_label
_atom_site_type_symbol
_atom_site_fract_x
_atom_site_fract_y
_atom_site_fract_z
Co2 Co 0.5000 0.0000 0.5000
C4 C 0.5000 -0.1301(4) 0.5000
C5 C 0.5000 -0.1859(5) 0.5000
C6 C 0.5446(4) -0.2138(10) 0.5000
H2 H 0.5762 -0.1967 0.5000
C7 C 0.5433(4) -0.2649(10) 0.5000
H3 H 0.5744 -0.2830 0.5000
C8 C 0.4530(6) -0.1046(5) 0.5000
C9 C 0.4056(6) -0.1308(6) 0.5000
H4 H 0.4003 -0.1658 0.5000
N1 N 0.4474(3) -0.0526(3) 0.5000
N2 N 0.5000 -0.2911(11) 0.5000
C10 C 0.5000 -0.3469(13) 0.5000
C4BC C 0.3699(4) 0.0000 0.5000
C4A C 0.5000 0.1301(4) 0.5000
C4CC C 0.6301(4) 0.0000 0.5000
C4CA C 0.5000 0.0000 0.6301(4)
C4BA C 0.5000 0.0000 0.3699(4)
C5BC C 0.3141(5) 0.0000 0.5000
C5A C 0.5000 0.1859(5) 0.5000
C5CC C 0.6859(5) 0.0000 0.5000
C5CA C 0.5000 0.0000 0.6859(5)
C5BA C 0.5000 0.0000 0.3141(5)
C6V C 0.5000 -0.2138(10) 0.5446(4)
C6B C 0.4554(4) -0.2138(10) 0.5000
C6T C 0.5000 -0.2138(10) 0.4554(4)
C6FC C 0.2862(10) 0.0446(4) 0.5000
C6DC C 0.2862(10) 0.0000 0.4554(4)
C6HC C 0.2862(10) -0.0446(4) 0.5000
C6BC C 0.2862(10) 0.0000 0.5446(4)
C6C C 0.5446(4) 0.2138(10) 0.5000
C6W C 0.5000 0.2138(10) 0.4554(4)
C6A C 0.4554(4) 0.2138(10) 0.5000
C6U C 0.5000 0.2138(10) 0.5446(4)
C6GC C 0.7138(10) -0.0446(4) 0.5000
C6CC C 0.7138(10) 0.0000 0.4554(4)
C6EC C 0.7138(10) 0.0000 0.5446(4)
C6IC C 0.7138(10) 0.0446(4) 0.5000
C6EA C 0.5000 0.0446(4) 0.7138(10)
C6PA C 0.4554(4) 0.0000 0.7138(10)
C6CA C 0.5000 -0.0446(4) 0.7138(10)
C6NA C 0.5446(4) 0.0000 0.7138(10)
C6DA C 0.5000 -0.0446(4) 0.2862(10)
C6OA C 0.4554(4) 0.0000 0.2862(10)
C6QA C 0.5446(4) 0.0000 0.2862(10)
C6BA C 0.5000 0.0446(4) 0.2862(10)
H2B H 0.4238 -0.1967 0.5000
H2V H 0.5000 -0.1967 0.5762
H2T H 0.5000 -0.1967 0.4238
H2FC H 0.3033 0.0762 0.5000
H2HC H 0.3033 -0.0762 0.5000
H2DC H 0.3033 0.0000 0.4238
H2BC H 0.3033 0.0000 0.5762
H2A H 0.4238 0.1967 0.5000
H2C H 0.5762 0.1967 0.5000
H2W H 0.5000 0.1967 0.4238
H2U H 0.5000 0.1967 0.5762
H2GC H 0.6967 -0.0762 0.5000
H2EC H 0.6967 0.0000 0.5762
H2CC H 0.6967 0.0000 0.4238
H2IC H 0.6967 0.0762 0.5000
H2EA H 0.5000 0.0762 0.6967
H2CA H 0.5000 -0.0762 0.6967
H2PA H 0.4238 0.0000 0.6967
H2NA H 0.5762 0.0000 0.6967
H2DA H 0.5000 -0.0762 0.3033
H2QA H 0.5762 0.0000 0.3033
H2OA H 0.4238 0.0000 0.3033
H2BA H 0.5000 0.0762 0.3033
C7B C 0.4567(4) -0.2649(10) 0.5000
C7V C 0.5000 -0.2649(10) 0.5433(4)
C7T C 0.5000 -0.2649(10) 0.4567(4)
C7FC C 0.2351(10) 0.0433(4) 0.5000
C7HC C 0.2351(10) -0.0433(4) 0.5000
C7DC C 0.2351(10) 0.0000 0.4567(4)
C7BC C 0.2351(10) 0.0000 0.5433(4)
C7A C 0.4567(4) 0.2649(10) 0.5000
C7C C 0.5433(4) 0.2649(10) 0.5000
C7U C 0.5000 0.2649(10) 0.5433(4)
C7W C 0.5000 0.2649(10) 0.4567(4)
C7GC C 0.7649(10) -0.0433(4) 0.5000
C7IC C 0.7649(10) 0.0433(4) 0.5000
C7EC C 0.7649(10) 0.0000 0.5433(4)
C7CC C 0.7649(10) 0.0000 0.4567(4)
C7EA C 0.5000 0.0433(4) 0.7649(10)
C7CA C 0.5000 -0.0433(4) 0.7649(10)
C7PA C 0.4567(4) 0.0000 0.7649(10)
C7NA C 0.5433(4) 0.0000 0.7649(10)
C7DA C 0.5000 -0.0433(4) 0.2351(10)
C7BA C 0.5000 0.0433(4) 0.2351(10)
C7QA C 0.5433(4) 0.0000 0.2351(10)
C7OA C 0.4567(4) 0.0000 0.2351(10)
H3B H 0.4256 -0.2830 0.5000
H3V H 0.5000 -0.2830 0.5744
H3T H 0.5000 -0.2830 0.4256
H3FC H 0.2170 0.0744 0.5000
H3HC H 0.2170 -0.0744 0.5000
H3DC H 0.2170 0.0000 0.4256
H3BC H 0.2170 0.0000 0.5744
H3A H 0.4256 0.2830 0.5000
H3C H 0.5744 0.2830 0.5000
H3W H 0.5000 0.2830 0.4256
H3U H 0.5000 0.2830 0.5744
H3GC H 0.7830 -0.0744 0.5000
H3EC H 0.7830 0.0000 0.5744
H3CC H 0.7830 0.0000 0.4256
H3IC H 0.7830 0.0744 0.5000
H3EA H 0.5000 0.0744 0.7830
H3CA H 0.5000 -0.0744 0.7830
H3PA H 0.4256 0.0000 0.7830
H3NA H 0.5744 0.0000 0.7830
H3DA H 0.5000 -0.0744 0.2170
H3QA H 0.5744 0.0000 0.2170
H3OA H 0.4256 0.0000 0.2170
H3BA H 0.5000 0.0744 0.2170
C8FC C 0.3954(5) -0.0470(6) 0.5000
C8HC C 0.3954(5) 0.0470(6) 0.5000
C8C C 0.4530(6) 0.1046(5) 0.5000
C8A C 0.5470(6) 0.1046(5) 0.5000
C8GC C 0.6046(5) 0.0470(6) 0.5000
C8IC C 0.6046(5) -0.0470(6) 0.5000
C8B C 0.5470(6) -0.1046(5) 0.5000
C8T C 0.5000 -0.1046(5) 0.5470(6)
C8EA C 0.5000 -0.0470(6) 0.6046(5)
C8CA C 0.5000 0.0470(6) 0.6046(5)
C8W C 0.5000 0.1046(5) 0.5470(6)
C8U C 0.5000 0.1046(5) 0.4530(6)
C8DA C 0.5000 0.0470(6) 0.3954(5)
C8BA C 0.5000 -0.0470(6) 0.3954(5)
C8V C 0.5000 -0.1046(5) 0.4530(6)
C8QA C 0.4530(6) 0.0000 0.3954(5)
C8OA C 0.5470(6) 0.0000 0.3954(5)
C8EC C 0.6046(5) 0.0000 0.4530(6)
C8CC C 0.6046(5) 0.0000 0.5470(6)
C8PA C 0.5470(6) 0.0000 0.6046(5)
C8NA C 0.4530(6) 0.0000 0.6046(5)
C8DC C 0.3954(5) 0.0000 0.5470(6)
C8BC C 0.3954(5) 0.0000 0.4530(6)
C9FC C 0.3692(6) -0.0944(6) 0.5000
C9HC C 0.3692(6) 0.0944(6) 0.5000
C9C C 0.4056(6) 0.1308(6) 0.5000
C9A C 0.5944(6) 0.1308(6) 0.5000
C9GC C 0.6308(6) 0.0944(6) 0.5000
C9IC C 0.6308(6) -0.0944(6) 0.5000
C9B C 0.5944(6) -0.1308(6) 0.5000
C9T C 0.5000 -0.1308(6) 0.5944(6)
C9EA C 0.5000 -0.0944(6) 0.6308(6)
C9CA C 0.5000 0.0944(6) 0.6308(6)
C9W C 0.5000 0.1308(6) 0.5944(6)
C9U C 0.5000 0.1308(6) 0.4056(6)
C9DA C 0.5000 0.0944(6) 0.3692(6)
C9BA C 0.5000 -0.0944(6) 0.3692(6)
C9V C 0.5000 -0.1308(6) 0.4056(6)
C9OA C 0.5944(6) 0.0000 0.3692(6)
C9EC C 0.6308(6) 0.0000 0.4056(6)
C9CC C 0.6308(6) 0.0000 0.5944(6)
C9PA C 0.5944(6) 0.0000 0.6308(6)
C9NA C 0.4056(6) 0.0000 0.6308(6)
C9DC C 0.3692(6) 0.0000 0.5944(6)
C9BC C 0.3692(6) 0.0000 0.4056(6)
C9QA C 0.4056(6) 0.0000 0.3692(6)
H4HC H 0.3342 0.0997 0.5000
H4A H 0.5997 0.1658 0.5000
H4IC H 0.6658 -0.0997 0.5000
H4T H 0.5000 -0.1658 0.5997
H4CA H 0.5000 0.0997 0.6658
H4U H 0.5000 0.1658 0.4003
H4BA H 0.5000 -0.0997 0.3342
H4OA H 0.5997 0.0000 0.3342
H4CC H 0.6658 0.0000 0.5997
H4NA H 0.4003 0.0000 0.6658
H4BC H 0.3342 0.0000 0.4003
H4QA H 0.4003 0.0000 0.3342
H4DC H 0.3342 0.0000 0.5997
H4PA H 0.5997 0.0000 0.6658
H4EC H 0.6658 0.0000 0.4003
H4V H 0.5000 -0.1658 0.4003
H4DA H 0.5000 0.0997 0.3342
H4W H 0.5000 0.1658 0.5997
H4EA H 0.5000 -0.0997 0.6658
H4B H 0.5997 -0.1658 0.5000
H4GC H 0.6658 0.0997 0.5000
H4C H 0.4003 0.1658 0.5000
H4FC H 0.3342 -0.0997 0.5000
N1V N 0.5000 -0.0526(3) 0.4474(3)
N1QA N 0.4474(3) 0.0000 0.4474(3)
N1B N 0.5526(3) -0.0526(3) 0.5000
N1OA N 0.5526(3) 0.0000 0.4474(3)
N1A N 0.5526(3) 0.0526(3) 0.5000
N1U N 0.5000 0.0526(3) 0.4474(3)
N1C N 0.4474(3) 0.0526(3) 0.5000
N1NA N 0.4474(3) 0.0000 0.5526(3)
N1T N 0.5000 -0.0526(3) 0.5526(3)
N1PA N 0.5526(3) 0.0000 0.5526(3)
N1W N 0.5000 0.0526(3) 0.5526(3)
N2BC N 0.2089(11) 0.0000 0.5000
N2A N 0.5000 0.2911(11) 0.5000
N2CC N 0.7911(11) 0.0000 0.5000
N2CA N 0.5000 0.0000 0.7911(11)
N2BA N 0.5000 0.0000 0.2089(11)
C10BC C 0.1531(13) 0.0000 0.5000
C10A C 0.5000 0.3469(13) 0.5000
C10CC C 0.8469(13) 0.0000 0.5000
C10CA C 0.5000 0.0000 0.8469(13)
C10BA C 0.5000 0.0000 0.1531(13)
Cl1 Cl 0.364(2) 0.636(2) 0.636(2)
Cl4 Cl 0.5000 -0.5000 0.5000
O3 O 0.7500 -0.2500 0.2500
Co1 Co 0.71048(4) 0.0000 0.21048(4)
C1 C 0.6777(3) -0.1121(4) 0.3223(3)
C2 C 0.6343(3) -0.1343(3) 0.3003(4)
H1 H 0.6200 -0.1200 0.2706
C3 C 0.7026(3) -0.0693(4) 0.2974(3)
O1 O 0.6823(2) -0.05320(19) 0.2576(2)
O2 O 0.6525(9) 0.0232(12) 0.1525(9)
Co1W Co 0.78952(4) 0.0000 0.28952(4)
Co1NA Co 0.71048(4) -0.28952(4) 0.5000
Co1DA Co 0.78952(4) -0.21048(4) 0.5000
Co1GB Co 0.5000 -0.21048(4) 0.21048(4)
Co1HB Co 0.5000 -0.28952(4) 0.28952(4)
Co1QA Co 0.71048(4) 0.28952(4) 0.5000
Co1EA Co 0.78952(4) 0.21048(4) 0.5000
Co1DB Co 0.5000 0.21048(4) 0.21048(4)
Co1IB Co 0.5000 0.28952(4) 0.28952(4)
Co1N Co 1.0000 0.28952(4) 0.21048(4)
Co1I Co 1.0000 0.21048(4) 0.28952(4)
Co1P Co 0.71048(4) 0.21048(4) 0.0000
Co1F Co 0.78952(4) 0.28952(4) 0.0000
Co1O Co 1.0000 -0.28952(4) 0.21048(4)
Co1J Co 1.0000 -0.21048(4) 0.28952(4)
Co1S Co 0.71048(4) -0.21048(4) 0.0000
Co1G Co 0.78952(4) -0.28952(4) 0.0000
Co1C Co 0.71048(4) 0.0000 0.78952(4)
Co1V Co 0.78952(4) 0.0000 0.71048(4)
Co1KB Co 0.5000 -0.28952(4) 0.71048(4)
Co1FB Co 0.5000 -0.21048(4) 0.78952(4)
Co1L Co 1.0000 -0.28952(4) 0.78952(4)
Co1K Co 1.0000 -0.21048(4) 0.71048(4)
Co1X Co 0.71048(4) -0.5000 0.71048(4)
Co1UA Co 0.78952(4) -0.5000 0.78952(4)
Co1AA Co 0.71048(4) -0.5000 0.28952(4)
Co1TA Co 0.78952(4) -0.5000 0.21048(4)
Co1CA Co 0.21048(4) -0.21048(4) 0.5000
Co1OA Co 0.28952(4) -0.28952(4) 0.5000
Co1A Co 0.28952(4) 0.0000 0.21048(4)
Co1T Co 0.21048(4) 0.0000 0.28952(4)
C1CC C 0.6121(4) -0.1777(3) 0.3223(3)
C1DA C 0.6777(3) -0.1777(3) 0.3879(4)
C1W C 0.6777(3) 0.1121(4) 0.3223(3)
C1IC C 0.6121(4) 0.1777(3) 0.3223(3)
C1QA C 0.6777(3) 0.1777(3) 0.3879(4)
C1QB C 0.8223(3) 0.1121(4) 0.1777(3)
C1LC C 0.8223(3) 0.1777(3) 0.1121(4)
C1JA C 0.8879(4) 0.1777(3) 0.1777(3)
C1XA C 0.8223(3) -0.1121(4) 0.1777(3)
C1YB C 0.8223(3) -0.1777(3) 0.1121(4)
C1FA C 0.8879(4) -0.1777(3) 0.1777(3)
C1NA C 0.6777(3) -0.1777(3) 0.6121(4)
C1GC C 0.6121(4) -0.1777(3) 0.6777(3)
C1V C 0.6777(3) -0.1121(4) 0.6777(3)
C1NB C 0.8223(3) -0.3223(3) 0.6121(4)
C1OC C 0.8223(3) -0.3879(4) 0.6777(3)
C1L C 0.8879(4) -0.3223(3) 0.6777(3)
C1ZA C 0.8223(3) -0.3223(3) 0.3879(4)
C1UB C 0.8223(3) -0.3879(4) 0.3223(3)
C1J C 0.8879(4) -0.3223(3) 0.3223(3)
C1HC C 0.3879(4) -0.1777(3) 0.3223(3)
C1T C 0.3223(3) -0.1121(4) 0.3223(3)
C1OA C 0.3223(3) -0.1777(3) 0.3879(4)
C2CC C 0.6343(3) -0.1997(4) 0.3657(3)
C2DA C 0.6997(4) -0.1343(3) 0.3657(3)
C2IC C 0.6343(3) 0.1343(3) 0.3003(4)
C2QA C 0.6343(3) 0.1997(4) 0.3657(3)
C2W C 0.6997(4) 0.1343(3) 0.3657(3)
C2QB C 0.8003(4) 0.1343(3) 0.1343(3)
C2LC C 0.8657(3) 0.1997(4) 0.1343(3)
C2JA C 0.8657(3) 0.1343(3) 0.1997(4)
C2YB C 0.8003(4) -0.1343(3) 0.1343(3)
C2FA C 0.8657(3) -0.1997(4) 0.1343(3)
C2XA C 0.8657(3) -0.1343(3) 0.1997(4)
C2NA C 0.6343(3) -0.1997(4) 0.6343(3)
C2GC C 0.6343(3) -0.1343(3) 0.6997(4)
C2V C 0.6997(4) -0.1343(3) 0.6343(3)
C2OC C 0.8003(4) -0.3657(3) 0.6343(3)
C2L C 0.8657(3) -0.3657(3) 0.6997(4)
C2NB C 0.8657(3) -0.3003(4) 0.6343(3)
C2ZA C 0.8003(4) -0.3657(3) 0.3657(3)
C2UB C 0.8657(3) -0.3657(3) 0.3003(4)
C2J C 0.8657(3) -0.3003(4) 0.3657(3)
C2HC C 0.3657(3) -0.1343(3) 0.3003(4)
C2T C 0.3003(4) -0.1343(3) 0.3657(3)
C2OA C 0.3657(3) -0.1997(4) 0.3657(3)
H1DA H 0.7294 -0.1200 0.3800
H1CC H 0.6200 -0.2294 0.3800
H1IC H 0.6200 0.1200 0.2706
H1W H 0.7294 0.1200 0.3800
H1QA H 0.6200 0.2294 0.3800
H1QB H 0.7706 0.1200 0.1200
H1JA H 0.8800 0.1200 0.2294
H1LC H 0.8800 0.2294 0.1200
H1YB H 0.7706 -0.1200 0.1200
H1XA H 0.8800 -0.1200 0.2294
H1FA H 0.8800 -0.2294 0.1200
H1NA H 0.6200 -0.2294 0.6200
H1V H 0.7294 -0.1200 0.6200
H1GC H 0.6200 -0.1200 0.7294
H1OC H 0.7706 -0.3800 0.6200
H1NB H 0.8800 -0.2706 0.6200
H1L H 0.8800 -0.3800 0.7294
H1ZA H 0.7706 -0.3800 0.3800
H1J H 0.8800 -0.2706 0.3800
H1UB H 0.8800 -0.3800 0.2706
H1HC H 0.3800 -0.1200 0.2706
H1OA H 0.3800 -0.2294 0.3800
H1T H 0.2706 -0.1200 0.3800
C3DA C 0.7026(3) -0.2026(3) 0.4307(4)
C3CC C 0.5693(4) -0.2026(3) 0.2974(3)
C3W C 0.7026(3) 0.0693(4) 0.2974(3)
C3QA C 0.7026(3) 0.2026(3) 0.4307(4)
C3IC C 0.5693(4) 0.2026(3) 0.2974(3)
C3QB C 0.7974(3) 0.0693(4) 0.2026(3)
C3JA C 0.9307(4) 0.2026(3) 0.2026(3)
C3LC C 0.7974(3) 0.2026(3) 0.0693(4)
C3XA C 0.7974(3) -0.0693(4) 0.2026(3)
C3FA C 0.9307(4) -0.2026(3) 0.2026(3)
C3YB C 0.7974(3) -0.2026(3) 0.0693(4)
C3NA C 0.7026(3) -0.2026(3) 0.5693(4)
C3V C 0.7026(3) -0.0693(4) 0.7026(3)
C3GC C 0.5693(4) -0.2026(3) 0.7026(3)
C3NB C 0.7974(3) -0.2974(3) 0.5693(4)
C3L C 0.9307(4) -0.2974(3) 0.7026(3)
C3OC C 0.7974(3) -0.4307(4) 0.7026(3)
C3ZA C 0.7974(3) -0.2974(3) 0.4307(4)
C3J C 0.9307(4) -0.2974(3) 0.2974(3)
C3UB C 0.7974(3) -0.4307(4) 0.2974(3)
C3HC C 0.4307(4) -0.2026(3) 0.2974(3)
C3OA C 0.2974(3) -0.2026(3) 0.4307(4)
C3T C 0.2974(3) -0.0693(4) 0.2974(3)
O1MD O 0.7424(2) -0.05320(19) 0.3177(2)
O1HE O 0.6823(2) -0.2424(2) 0.44680(19)
O1DA O 0.7424(2) -0.1823(2) 0.44680(19)
O1XF O 0.55320(19) -0.1823(2) 0.2576(2)
O1CC O 0.55320(19) -0.2424(2) 0.3177(2)
O1TC O 0.6823(2) 0.05320(19) 0.2576(2)
O1W O 0.7424(2) 0.05320(19) 0.3177(2)
O1QA O 0.6823(2) 0.2424(2) 0.44680(19)
O1UD O 0.7424(2) 0.1823(2) 0.44680(19)
O1IC O 0.55320(19) 0.1823(2) 0.2576(2)
O1TF O 0.55320(19) 0.2424(2) 0.3177(2)
O1QB O 0.7576(2) 0.05320(19) 0.1823(2)
O1NE O 0.8177(2) 0.05320(19) 0.2424(2)
O1YD O 0.94680(19) 0.2424(2) 0.1823(2)
O1JA O 0.94680(19) 0.1823(2) 0.2424(2)
O1RF O 0.7576(2) 0.1823(2) 0.05320(19)
O1LC O 0.8177(2) 0.2424(2) 0.05320(19)
O1KF O 0.7576(2) -0.05320(19) 0.1823(2)
O1XA O 0.8177(2) -0.05320(19) 0.2424(2)
O1FA O 0.94680(19) -0.2424(2) 0.1823(2)
O1EE O 0.94680(19) -0.1823(2) 0.2424(2)
O1YB O 0.7576(2) -0.1823(2) 0.05320(19)
O1EG O 0.8177(2) -0.2424(2) 0.05320(19)
O1NA O 0.6823(2) -0.2424(2) 0.55320(19)
O1TD O 0.7424(2) -0.1823(2) 0.55320(19)
O1SC O 0.6823(2) -0.05320(19) 0.7424(2)
O1V O 0.7424(2) -0.05320(19) 0.6823(2)
O1VF O 0.55320(19) -0.2424(2) 0.6823(2)
O1GC O 0.55320(19) -0.1823(2) 0.7424(2)
O1TE O 0.7576(2) -0.3177(2) 0.55320(19)
O1NB O 0.8177(2) -0.2576(2) 0.55320(19)
O1L O 0.94680(19) -0.3177(2) 0.7424(2)
O1AD O 0.94680(19) -0.2576(2) 0.6823(2)
O1OC O 0.7576(2) -0.44680(19) 0.6823(2)
O1LF O 0.8177(2) -0.44680(19) 0.7424(2)
O1ZA O 0.7576(2) -0.3177(2) 0.44680(19)
O1DF O 0.8177(2) -0.2576(2) 0.44680(19)
O1ED O 0.94680(19) -0.3177(2) 0.2576(2)
O1J O 0.94680(19) -0.2576(2) 0.3177(2)
O1HG O 0.7576(2) -0.44680(19) 0.3177(2)
O1UB O 0.8177(2) -0.44680(19) 0.2576(2)
O1HC O 0.44680(19) -0.1823(2) 0.2576(2)
O1WF O 0.44680(19) -0.2424(2) 0.3177(2)
O1WD O 0.2576(2) -0.1823(2) 0.44680(19)
O1OA O 0.3177(2) -0.2424(2) 0.44680(19)
O1UC O 0.3177(2) -0.05320(19) 0.2576(2)
O1T O 0.2576(2) -0.05320(19) 0.3177(2)
O1WE O 0.44680(19) -0.2576(2) 0.1823(2)
O1GB O 0.55320(19) -0.2576(2) 0.1823(2)
O1HB O 0.44680(19) -0.3177(2) 0.2424(2)
O1BF O 0.55320(19) -0.3177(2) 0.2424(2)
O1GE O 0.6823(2) 0.2424(2) 0.55320(19)
O1AB O 0.7576(2) 0.3177(2) 0.55320(19)
O1UE O 0.7576(2) 0.3177(2) 0.44680(19)
O1EA O 0.7424(2) 0.1823(2) 0.55320(19)
O1GF O 0.8177(2) 0.2576(2) 0.55320(19)
O1MB O 0.8177(2) 0.2576(2) 0.44680(19)
O1YF O 0.44680(19) 0.1823(2) 0.2576(2)
O1DB O 0.44680(19) 0.2576(2) 0.1823(2)
O1XE O 0.55320(19) 0.2576(2) 0.1823(2)
O1DC O 0.44680(19) 0.2424(2) 0.3177(2)
O1CF O 0.44680(19) 0.3177(2) 0.2424(2)
O1IB O 0.55320(19) 0.3177(2) 0.2424(2)
O1IA O 1.05320(19) 0.2424(2) 0.1823(2)
O1DD O 1.05320(19) 0.3177(2) 0.2576(2)
O1N O 0.94680(19) 0.3177(2) 0.2576(2)
O1DE O 1.05320(19) 0.1823(2) 0.2424(2)
O1I O 1.05320(19) 0.2576(2) 0.3177(2)
O1CD O 0.94680(19) 0.2576(2) 0.3177(2)
O2QB O 0.6525(9) -0.0232(12) 0.1525(9)
O2XA O 0.8475(9) 0.0232(12) 0.3475(9)
O2W O 0.8475(9) -0.0232(12) 0.3475(9)
O2ZA O 0.6525(9) -0.3475(9) 0.5232(12)
O2NA O 0.6525(9) -0.3475(9) 0.4768(12)
O2DA O 0.8475(9) -0.1525(9) 0.5232(12)
O2NB O 0.8475(9) -0.1525(9) 0.4768(12)
O2GB O 0.4768(12) -0.1525(9) 0.1525(9)
O2HC O 0.5232(12) -0.1525(9) 0.1525(9)
O2CC O 0.4768(12) -0.3475(9) 0.3475(9)
O2HB O 0.5232(12) -0.3475(9) 0.3475(9)
O2QA O 0.6525(9) 0.3475(9) 0.5232(12)
O2AB O 0.6525(9) 0.3475(9) 0.4768(12)
O2MB O 0.8475(9) 0.1525(9) 0.5232(12)
O2EA O 0.8475(9) 0.1525(9) 0.4768(12)
O2IC O 0.4768(12) 0.1525(9) 0.1525(9)
O2DB O 0.5232(12) 0.1525(9) 0.1525(9)
O2IB O 0.4768(12) 0.3475(9) 0.3475(9)
O2DC O 0.5232(12) 0.3475(9) 0.3475(9)
O2N O 1.0232(12) 0.3475(9) 0.1525(9)
O2IA O 0.9768(12) 0.3475(9) 0.1525(9)
O2JA O 1.0232(12) 0.1525(9) 0.3475(9)
O2I O 0.9768(12) 0.1525(9) 0.3475(9)
H5? H 0.5000 -0.3591 0.4655
H6? H 0.4701 -0.3591 0.5172
Cl2? Cl 0.410(4) 0.590(4) 0.590(4)
Cl3? Cl 0.3699(12) 0.601(2) 0.6301(12)
Cl5? Cl 0.5000 -0.466(5) 0.5000
O4? O 0.740(7) -0.240(7) 0.240(7)
O5? O 0.718(2) -0.218(2) 0.218(2)
O6? O 0.3459(17) -0.3589(17) 0.5000
loop_
_geom_bond_atom_site_label_1
_geom_bond_atom_site_label_2
_geom_bond_site_symmetry_1
_geom_bond_site_symmetry_2
Co1 O1 1_555 1_555
C1 C2 1_555 1_555
C2 H1 1_555 1_555
C3 C1 1_555 1_555
O1 C3 1_555 1_555
O2 Co1 1_555 1_555
Co2 N1 1_555 1_555
C4 C5 1_555 1_555
C5 C6 1_555 1_555
C6 H2 1_555 1_555
C7 C6 1_555 1_555
H3 C7 1_555 1_555
C8 C4 1_555 1_555
C9 C8 1_555 1_555
H4 C9 1_555 1_555
N1 C8 1_555 1_555
N2 C7 1_555 1_555
C10 N2 1_555 1_555
Co1W Co1 1_555 1_555
Co1NA Co1DA 1_555 1_555
Co1DA O1DA 1_555 1_555
Co1GB Co1HB 1_555 1_555
Co1HB O1CC 1_555 1_555
Co1QA Co1EA 1_555 1_555
Co1EA O1UD 1_555 1_555
Co1DB Co1IB 1_555 1_555
Co1IB O1TF 1_555 1_555
Co1N Co1I 1_555 1_555
Co1I O1JA 1_555 1_555
Co1P Co1F 1_555 1_555
Co1F O1LC 1_555 1_555
Co1O Co1J 1_555 1_555
Co1J O1EE 1_555 1_555
Co1S Co1G 1_555 1_555
Co1G O1EG 1_555 1_555
Co1C Co1V 1_555 1_555
Co1V O1V 1_555 1_555
Co1KB Co1FB 1_555 1_555
Co1FB O1GC 1_555 1_555
Co1L Co1K 1_555 1_555
Co1K O1AD 1_555 1_555
Co1X Co1UA 1_555 1_555
Co1UA O1LF 1_555 1_555
Co1AA Co1TA 1_555 1_555
Co1TA O1UB 1_555 1_555
Co1CA Co1OA 1_555 1_555
Co1OA O1OA 1_555 1_555
Co1A Co1T 1_555 1_555
Co1T O1T 1_555 1_555
C1CC C2 1_555 1_555
C1DA C2CC 1_555 1_555
C1W C2IC 1_555 1_555
C1IC C2IC 1_555 1_555
C1QA C2QA 1_555 1_555
C1QB C2QB 1_555 1_555
C1LC C2QB 1_555 1_555
C1JA C2LC 1_555 1_555
C1XA C2YB 1_555 1_555
C1YB C2YB 1_555 1_555
C1FA C2FA 1_555 1_555
C1NA C2NA 1_555 1_555
C1GC C2NA 1_555 1_555
C1V C2GC 1_555 1_555
C1NB C2OC 1_555 1_555
C1OC C2OC 1_555 1_555
C1L C2L 1_555 1_555
C1ZA C2ZA 1_555 1_555
C1UB C2ZA 1_555 1_555
C1J C2UB 1_555 1_555
C1HC C2HC 1_555 1_555
C1T C2HC 1_555 1_555
C1OA C2T 1_555 1_555
C2CC C1CC 1_555 1_555
C2DA C1 1_555 1_555
C2IC H1IC 1_555 1_555
C2QA C1IC 1_555 1_555
C2W C1W 1_555 1_555
C2QB H1QB 1_555 1_555
C2LC C1LC 1_555 1_555
C2JA C1QB 1_555 1_555
C2YB H1YB 1_555 1_555
C2FA C1YB 1_555 1_555
C2XA C1XA 1_555 1_555
C2NA H1NA 1_555 1_555
C2GC C1GC 1_555 1_555
C2V C1NA 1_555 1_555
C2OC H1OC 1_555 1_555
C2L C1OC 1_555 1_555
C2NB C1NB 1_555 1_555
C2ZA H1ZA 1_555 1_555
C2UB C1UB 1_555 1_555
C2J C1ZA 1_555 1_555
C2HC H1HC 1_555 1_555
C2T C1T 1_555 1_555
C2OA C1HC 1_555 1_555
H1DA C2DA 1_555 1_555
H1CC C2CC 1_555 1_555
H1W C2W 1_555 1_555
H1QA C2QA 1_555 1_555
H1JA C2JA 1_555 1_555
H1LC C2LC 1_555 1_555
H1XA C2XA 1_555 1_555
H1FA C2FA 1_555 1_555
H1V C2V 1_555 1_555
H1GC C2GC 1_555 1_555
H1NB C2NB 1_555 1_555
H1L C2L 1_555 1_555
H1J C2J 1_555 1_555
H1UB C2UB 1_555 1_555
H1OA C2OA 1_555 1_555
H1T C2T 1_555 1_555
C3DA C1DA 1_555 1_555
C3CC C1CC 1_555 1_555
C3W C1W 1_555 1_555
C3QA C1QA 1_555 1_555
C3IC C1IC 1_555 1_555
C3QB C1QB 1_555 1_555
C3JA C1JA 1_555 1_555
C3LC C1LC 1_555 1_555
C3XA C1XA 1_555 1_555
C3FA C1FA 1_555 1_555
C3YB C1YB 1_555 1_555
C3NA C1NA 1_555 1_555
C3V C1V 1_555 1_555
C3GC C1GC 1_555 1_555
C3NB C1NB 1_555 1_555
C3L C1L 1_555 1_555
C3OC C1OC 1_555 1_555
C3ZA C1ZA 1_555 1_555
C3J C1J 1_555 1_555
C3UB C1UB 1_555 1_555
C3HC C1HC 1_555 1_555
C3OA C1OA 1_555 1_555
C3T C1T 1_555 1_555
O1MD C3 1_555 1_555
O1HE Co1NA 1_555 1_555
O1DA C3DA 1_555 1_555
O1XF Co1GB 1_555 1_555
O1CC C3CC 1_555 1_555
O1TC Co1 1_555 1_555
O1W Co1W 1_555 1_555
O1QA Co1QA 1_555 1_555
O1UD C3QA 1_555 1_555
O1IC Co1DB 1_555 1_555
O1TF C3IC 1_555 1_555
O1QB Co1 1_555 1_555
O1NE Co1W 1_555 1_555
O1YD Co1N 1_555 1_555
O1JA C3JA 1_555 1_555
O1RF Co1P 1_555 1_555
O1LC C3LC 1_555 1_555
O1KF Co1 1_555 1_555
O1XA Co1W 1_555 1_555
O1FA Co1O 1_555 1_555
O1EE C3FA 1_555 1_555
O1YB Co1S 1_555 1_555
O1EG C3YB 1_555 1_555
O1NA Co1NA 1_555 1_555
O1TD Co1DA 1_555 1_555
O1SC Co1C 1_555 1_555
O1V C3V 1_555 1_555
O1VF Co1KB 1_555 1_555
O1GC C3GC 1_555 1_555
O1TE Co1NA 1_555 1_555
O1NB Co1DA 1_555 1_555
O1L Co1L 1_555 1_555
O1AD C3L 1_555 1_555
O1OC Co1X 1_555 1_555
O1LF C3OC 1_555 1_555
O1ZA Co1NA 1_555 1_555
O1DF Co1DA 1_555 1_555
O1ED Co1O 1_555 1_555
O1J Co1J 1_555 1_555
O1HG Co1AA 1_555 1_555
O1UB C3UB 1_555 1_555
O1HC Co1GB 1_555 1_555
O1WF Co1HB 1_555 1_555
O1WD Co1CA 1_555 1_555
O1OA C3OA 1_555 1_555
O1UC Co1A 1_555 1_555
O1T C3T 1_555 1_555
O1WE Co1GB 1_555 1_555
O1GB Co1GB 1_555 1_555
O1HB Co1HB 1_555 1_555
O1BF Co1HB 1_555 1_555
O1GE Co1QA 1_555 1_555
O1AB Co1QA 1_555 1_555
O1UE Co1QA 1_555 1_555
O1EA Co1EA 1_555 1_555
O1GF Co1EA 1_555 1_555
O1MB Co1EA 1_555 1_555
O1YF Co1DB 1_555 1_555
O1DB Co1DB 1_555 1_555
O1XE Co1DB 1_555 1_555
O1DC Co1IB 1_555 1_555
O1CF Co1IB 1_555 1_555
O1IB Co1IB 1_555 1_555
O1IA Co1N 1_555 1_555
O1DD Co1N 1_555 1_555
O1N Co1N 1_555 1_555
O1DE Co1I 1_555 1_555
O1I Co1I 1_555 1_555
O1CD Co1I 1_555 1_555
O2QB Co1 1_555 1_555
O2XA Co1W 1_555 1_555
O2W Co1W 1_555 1_555
O2ZA Co1NA 1_555 1_555
O2NA Co1NA 1_555 1_555
O2DA Co1DA 1_555 1_555
O2NB Co1DA 1_555 1_555
O2GB Co1GB 1_555 1_555
O2HC Co1GB 1_555 1_555
O2CC Co1HB 1_555 1_555
O2HB Co1HB 1_555 1_555
O2QA Co1QA 1_555 1_555
O2AB Co1QA 1_555 1_555
O2MB Co1EA 1_555 1_555
O2EA Co1EA 1_555 1_555
O2IC Co1DB 1_555 1_555
O2DB Co1DB 1_555 1_555
O2IB Co1IB 1_555 1_555
O2DC Co1IB 1_555 1_555
O2N Co1N 1_555 1_555
O2IA Co1N 1_555 1_555
O2JA Co1I 1_555 1_555
O2I Co1I 1_555 1_555
C4BC C5BC 1_555 1_555
C4A C5A 1_555 1_555
C4CC C5CC 1_555 1_555
C4CA C5CA 1_555 1_555
C4BA C5BA 1_555 1_555
C5BC C6FC 1_555 1_555
C5A C6C 1_555 1_555
C5CC C6GC 1_555 1_555
C5CA C6EA 1_555 1_555
C5BA C6DA 1_555 1_555
C6V C5 1_555 1_555
C6B C5 1_555 1_555
C6T C5 1_555 1_555
C6FC C6DC 1_555 1_555
C6DC C5BC 1_555 1_555
C6HC C5BC 1_555 1_555
C6BC C5BC 1_555 1_555
C6C C6W 1_555 1_555
C6W C5A 1_555 1_555
C6A C5A 1_555 1_555
C6U C5A 1_555 1_555
C6GC C6CC 1_555 1_555
C6CC C5CC 1_555 1_555
C6EC C5CC 1_555 1_555
C6IC C5CC 1_555 1_555
C6EA C6PA 1_555 1_555
C6PA C5CA 1_555 1_555
C6CA C5CA 1_555 1_555
C6NA C5CA 1_555 1_555
C6DA C6OA 1_555 1_555
C6OA C5BA 1_555 1_555
C6QA C5BA 1_555 1_555
C6BA C5BA 1_555 1_555
H2B C6B 1_555 1_555
H2V C6V 1_555 1_555
H2T C6T 1_555 1_555
H2FC C6FC 1_555 1_555
H2HC C6HC 1_555 1_555
H2DC C6DC 1_555 1_555
H2BC C6BC 1_555 1_555
H2A C6A 1_555 1_555
H2C C6C 1_555 1_555
H2W C6W 1_555 1_555
H2U C6U 1_555 1_555
H2GC C6GC 1_555 1_555
H2EC C6EC 1_555 1_555
H2CC C6CC 1_555 1_555
H2IC C6IC 1_555 1_555
H2EA C6EA 1_555 1_555
H2CA C6CA 1_555 1_555
H2PA C6PA 1_555 1_555
H2NA C6NA 1_555 1_555
H2DA C6DA 1_555 1_555
H2QA C6QA 1_555 1_555
H2OA C6OA 1_555 1_555
H2BA C6BA 1_555 1_555
C7B N2 1_555 1_555
C7V C7 1_555 1_555
C7T C7 1_555 1_555
C7FC C6FC 1_555 1_555
C7HC C6HC 1_555 1_555
C7DC C6DC 1_555 1_555
C7BC C6BC 1_555 1_555
C7A C6A 1_555 1_555
C7C C6C 1_555 1_555
C7U C6U 1_555 1_555
C7W C6W 1_555 1_555
C7GC C6GC 1_555 1_555
C7IC C6IC 1_555 1_555
C7EC C6EC 1_555 1_555
C7CC C6CC 1_555 1_555
C7EA C6EA 1_555 1_555
C7CA C6CA 1_555 1_555
C7PA C6PA 1_555 1_555
C7NA C6NA 1_555 1_555
C7DA C6DA 1_555 1_555
C7BA C6BA 1_555 1_555
C7QA C6QA 1_555 1_555
C7OA C6OA 1_555 1_555
H3B C7B 1_555 1_555
H3V C7V 1_555 1_555
H3T C7T 1_555 1_555
H3FC C7FC 1_555 1_555
H3HC C7HC 1_555 1_555
H3DC C7DC 1_555 1_555
H3BC C7BC 1_555 1_555
H3A C7A 1_555 1_555
H3C C7C 1_555 1_555
H3W C7W 1_555 1_555
H3U C7U 1_555 1_555
H3GC C7GC 1_555 1_555
H3EC C7EC 1_555 1_555
H3CC C7CC 1_555 1_555
H3IC C7IC 1_555 1_555
H3EA C7EA 1_555 1_555
H3CA C7CA 1_555 1_555
H3PA C7PA 1_555 1_555
H3NA C7NA 1_555 1_555
H3DA C7DA 1_555 1_555
H3QA C7QA 1_555 1_555
H3OA C7OA 1_555 1_555
H3BA C7BA 1_555 1_555
C8FC N1 1_555 1_555
C8HC C4BC 1_555 1_555
C8C C4A 1_555 1_555
C8A C4A 1_555 1_555
C8GC C4CC 1_555 1_555
C8IC C4CC 1_555 1_555
C8B C4 1_555 1_555
C8T C4 1_555 1_555
C8EA C4CA 1_555 1_555
C8CA C4CA 1_555 1_555
C8W C4A 1_555 1_555
C8U C4A 1_555 1_555
C8DA C4BA 1_555 1_555
C8BA C4BA 1_555 1_555
C8V C4 1_555 1_555
C8QA C4BA 1_555 1_555
C8OA C4BA 1_555 1_555
C8EC C4CC 1_555 1_555
C8CC C4CC 1_555 1_555
C8PA C4CA 1_555 1_555
C8NA C4CA 1_555 1_555
C8DC C4BC 1_555 1_555
C8BC C4BC 1_555 1_555
C9FC C9 1_555 1_555
C9HC C8HC 1_555 1_555
C9C C8C 1_555 1_555
C9A C8A 1_555 1_555
C9GC C8GC 1_555 1_555
C9IC C8IC 1_555 1_555
C9B C8B 1_555 1_555
C9T C8T 1_555 1_555
C9EA C8EA 1_555 1_555
C9CA C8CA 1_555 1_555
C9W C8W 1_555 1_555
C9U C8U 1_555 1_555
C9DA C8DA 1_555 1_555
C9BA C8BA 1_555 1_555
C9V C8V 1_555 1_555
C9OA C8OA 1_555 1_555
C9EC C8EC 1_555 1_555
C9CC C8CC 1_555 1_555
C9PA C8PA 1_555 1_555
C9NA C8NA 1_555 1_555
C9DC C8DC 1_555 1_555
C9BC C8BC 1_555 1_555
C9QA C8QA 1_555 1_555
H4HC C9HC 1_555 1_555
H4A C9A 1_555 1_555
H4IC C9IC 1_555 1_555
H4T C9T 1_555 1_555
H4CA C9CA 1_555 1_555
H4U C9U 1_555 1_555
H4BA C9BA 1_555 1_555
H4OA C9OA 1_555 1_555
H4CC C9CC 1_555 1_555
H4NA C9NA 1_555 1_555
H4BC C9BC 1_555 1_555
H4QA C9QA 1_555 1_555
H4DC C9DC 1_555 1_555
H4PA C9PA 1_555 1_555
H4EC C9EC 1_555 1_555
H4V C9V 1_555 1_555
H4DA C9DA 1_555 1_555
H4W C9W 1_555 1_555
H4EA C9EA 1_555 1_555
H4B C9B 1_555 1_555
H4GC C9GC 1_555 1_555
H4C C9C 1_555 1_555
H4FC C9FC 1_555 1_555
N1V Co2 1_555 1_555
N1QA Co2 1_555 1_555
N1B Co2 1_555 1_555
N1OA Co2 1_555 1_555
N1A Co2 1_555 1_555
N1U Co2 1_555 1_555
N1C Co2 1_555 1_555
N1NA Co2 1_555 1_555
N1T Co2 1_555 1_555
N1PA Co2 1_555 1_555
N1W Co2 1_555 1_555
N2BC C7FC 1_555 1_555
N2A C7A 1_555 1_555
N2CC C7GC 1_555 1_555
N2CA C7EA 1_555 1_555
N2BA C7DA 1_555 1_555
C10BC N2BC 1_555 1_555
C10A N2A 1_555 1_555
C10CC N2CC 1_555 1_555
C10CA N2CA 1_555 1_555
C10BA N2BA 1_555 1_555
O2 O2QB 1_555 1_555
C6 C6V 1_555 1_555
C6 C6T 1_555 1_555
C8 C8T 1_555 1_555
C8 C8V 1_555 1_555
N2 C7V 1_555 1_555
N2 C7T 1_555 1_555
Co1W O1MD 1_555 1_555
C1DA C2DA 1_555 1_555
C1QA C2W 1_555 1_555
C1JA C2JA 1_555 1_555
C1FA C2XA 1_555 1_555
C1V C2V 1_555 1_555
C1L C2NB 1_555 1_555
C1J C2J 1_555 1_555
C1OA C2OA 1_555 1_555
C3DA O1HE 1_555 1_555
C3CC O1XF 1_555 1_555
C3W O1TC 1_555 1_555
C3W O1W 1_555 1_555
C3QA O1QA 1_555 1_555
C3IC O1IC 1_555 1_555
C3QB O1QB 1_555 1_555
C3QB O1NE 1_555 1_555
C3JA O1YD 1_555 1_555
C3LC O1RF 1_555 1_555
C3XA O1KF 1_555 1_555
C3XA O1XA 1_555 1_555
C3FA O1FA 1_555 1_555
C3YB O1YB 1_555 1_555
C3NA O1NA 1_555 1_555
C3NA O1TD 1_555 1_555
C3V O1SC 1_555 1_555
C3GC O1VF 1_555 1_555
C3NB O1TE 1_555 1_555
C3NB O1NB 1_555 1_555
C3L O1L 1_555 1_555
C3OC O1OC 1_555 1_555
C3ZA O1ZA 1_555 1_555
C3ZA O1DF 1_555 1_555
C3J O1ED 1_555 1_555
C3J O1J 1_555 1_555
C3UB O1HG 1_555 1_555
C3HC O1HC 1_555 1_555
C3HC O1WF 1_555 1_555
C3OA O1WD 1_555 1_555
C3T O1UC 1_555 1_555
O2XA O2W 1_555 1_555
O2ZA O2NA 1_555 1_555
O2DA O2NB 1_555 1_555
O2GB O2HC 1_555 1_555
O2CC O2HB 1_555 1_555
O2QA O2AB 1_555 1_555
O2MB O2EA 1_555 1_555
O2IC O2DB 1_555 1_555
O2IB O2DC 1_555 1_555
O2N O2IA 1_555 1_555
O2JA O2I 1_555 1_555
C4BC C8FC 1_555 1_555
C6V C6B 1_555 1_555
C6V C7V 1_555 1_555
C6B C6T 1_555 1_555
C6B C7B 1_555 1_555
C6T C7T 1_555 1_555
C6FC C6BC 1_555 1_555
C6DC C6HC 1_555 1_555
C6HC C6BC 1_555 1_555
C6C C6U 1_555 1_555
C6W C6A 1_555 1_555
C6A C6U 1_555 1_555
C6GC C6EC 1_555 1_555
C6CC C6IC 1_555 1_555
C6EC C6IC 1_555 1_555
C6EA C6NA 1_555 1_555
C6PA C6CA 1_555 1_555
C6CA C6NA 1_555 1_555
C6DA C6QA 1_555 1_555
C6OA C6BA 1_555 1_555
C6QA C6BA 1_555 1_555
C7B C7V 1_555 1_555
C7B C7T 1_555 1_555
C7FC C7DC 1_555 1_555
C7FC C7BC 1_555 1_555
C7HC C7DC 1_555 1_555
C7HC C7BC 1_555 1_555
C7HC N2BC 1_555 1_555
C7DC N2BC 1_555 1_555
C7BC N2BC 1_555 1_555
C7A C7U 1_555 1_555
C7A C7W 1_555 1_555
C7C C7U 1_555 1_555
C7C C7W 1_555 1_555
C7C N2A 1_555 1_555
C7U N2A 1_555 1_555
C7W N2A 1_555 1_555
C7GC C7EC 1_555 1_555
C7GC C7CC 1_555 1_555
C7IC C7EC 1_555 1_555
C7IC C7CC 1_555 1_555
C7IC N2CC 1_555 1_555
C7EC N2CC 1_555 1_555
C7CC N2CC 1_555 1_555
C7EA C7PA 1_555 1_555
C7EA C7NA 1_555 1_555
C7CA C7PA 1_555 1_555
C7CA C7NA 1_555 1_555
C7CA N2CA 1_555 1_555
C7PA N2CA 1_555 1_555
C7NA N2CA 1_555 1_555
C7DA C7QA 1_555 1_555
C7DA C7OA 1_555 1_555
C7BA C7QA 1_555 1_555
C7BA C7OA 1_555 1_555
C7BA N2BA 1_555 1_555
C7QA N2BA 1_555 1_555
C7OA N2BA 1_555 1_555
C8FC C8DC 1_555 1_555
C8FC C8BC 1_555 1_555
C8FC C9FC 1_555 1_555
C8HC C8DC 1_555 1_555
C8HC C8BC 1_555 1_555
C8HC N1C 1_555 1_555
C8C C8W 1_555 1_555
C8C C8U 1_555 1_555
C8C N1C 1_555 1_555
C8A C8W 1_555 1_555
C8A C8U 1_555 1_555
C8A N1A 1_555 1_555
C8GC C8EC 1_555 1_555
C8GC C8CC 1_555 1_555
C8GC N1A 1_555 1_555
C8IC C8EC 1_555 1_555
C8IC C8CC 1_555 1_555
C8IC N1B 1_555 1_555
C8B C8T 1_555 1_555
C8B C8V 1_555 1_555
C8B N1B 1_555 1_555
C8T N1T 1_555 1_555
C8EA C8PA 1_555 1_555
C8EA C8NA 1_555 1_555
C8EA N1T 1_555 1_555
C8CA C8PA 1_555 1_555
C8CA C8NA 1_555 1_555
C8CA N1W 1_555 1_555
C8W N1W 1_555 1_555
C8U N1U 1_555 1_555
C8DA C8QA 1_555 1_555
C8DA C8OA 1_555 1_555
C8DA N1U 1_555 1_555
C8BA C8QA 1_555 1_555
C8BA C8OA 1_555 1_555
C8BA N1V 1_555 1_555
C8V N1V 1_555 1_555
C8QA N1QA 1_555 1_555
C8OA N1OA 1_555 1_555
C8EC N1OA 1_555 1_555
C8CC N1PA 1_555 1_555
C8PA N1PA 1_555 1_555
C8NA N1NA 1_555 1_555
C8DC N1NA 1_555 1_555
C8BC N1QA 1_555 1_555
C9HC C9C 1_555 1_555
C9A C9GC 1_555 1_555
C9IC C9B 1_555 1_555
C9T C9EA 1_555 1_555
C9CA C9W 1_555 1_555
C9U C9DA 1_555 1_555
C9BA C9V 1_555 1_555
C9OA C9EC 1_555 1_555
C9CC C9PA 1_555 1_555
C9NA C9DC 1_555 1_555
C9BC C9QA 1_555 1_555

#END
