
#######################################################################
#
#                 Cambridge Crystallographic Data Centre
#                                CCDC 
#
#######################################################################
#
# If this CIF has been generated from an entry in the Cambridge 
# Structural Database, then it will include bibliographic, chemical, 
# crystal, experimental, refinement or atomic coordinate data resulting 
# from the CCDC's data processing and validation procedures.
#
#######################################################################

data_DAPCOM
_symmetry_cell_setting           monoclinic
_symmetry_space_group_name_H-M   'C 2/m'
_symmetry_Int_Tables_number      12
_space_group_name_Hall           '-C 2y'
loop_
_symmetry_equiv_pos_site_id
_symmetry_equiv_pos_as_xyz
1 x,y,z
2 1/2+x,1/2+y,z
3 x,-y,z
4 1/2+x,1/2-y,z
5 -x,-y,-z
6 1/2-x,1/2-y,-z
7 -x,y,-z
8 1/2-x,1/2+y,-z
_cell_length_a                   12.2247(7)
_cell_length_b                   7.3921(5)
_cell_length_c                   6.4610(4)
_cell_angle_alpha                90.00
_cell_angle_beta                 120.1190(10)
_cell_angle_gamma                90.00
_cell_volume                     505.027
loop_
_atom_site_label
_atom_site_type_symbol
_atom_site_fract_x
_atom_site_fract_y
_atom_site_fract_z
Fe1 Fe 0.0000 0.0000 0.0000
O1 O -0.1820(3) 0.0000 -0.0475(5)
N1 N 0.0545(2) -0.7902(3) 0.2642(4)
N2 N 0.1269(3) -0.5000 0.4787(5)
C1 C 0.0855(2) -0.6520(3) 0.3573(4)
C2 C -0.2244(4) 0.0000 0.1218(8)
H1 H -0.153(5) 0.0000 0.287(10)
H2 H -0.276(3) -0.094(5) 0.101(6)
H3 H -0.241(5) 0.0000 -0.177(9)
C1B C 0.0855(2) -0.3480(3) 0.3573(4)
N1B N 0.0545(2) -0.2098(3) 0.2642(4)
Fe1_2 Fe 0.0000 -1.0000 0.0000
O1D O 0.1820(3) 0.0000 0.0475(5)
N1_2 N 0.0545(2) 0.2098(3) 0.2642(4)
N1F N -0.0545(2) 0.2098(3) -0.2642(4)
Fe1_3 Fe 0.0000 1.0000 0.0000
N1B_2 N 0.0545(2) 0.7902(3) 0.2642(4)
N1D N -0.0545(2) -0.2098(3) -0.2642(4)
C2D C 0.2244(4) 0.0000 -0.1218(8)
H3D H 0.241(5) 0.0000 0.177(9)
C1_2 C 0.0855(2) 0.3480(3) 0.3573(4)
C1B_2 C 0.0855(2) 0.6520(3) 0.3573(4)
H2B H -0.276(3) 0.094(5) 0.101(6)
H1D H 0.153(5) 0.0000 -0.287(10)
H2D H 0.276(3) 0.094(5) -0.101(6)
H2F H 0.276(3) -0.094(5) -0.101(6)
N2_2 N 0.1269(3) 0.5000 0.4787(5)
loop_
_geom_bond_atom_site_label_1
_geom_bond_atom_site_label_2
_geom_bond_site_symmetry_1
_geom_bond_site_symmetry_2
Fe1 O1 1_555 1_555
O1 C2 1_555 1_555
N1 C1 1_555 1_555
N2 C1 1_555 1_555
C2 H1 1_555 1_555
H2 C2 1_555 1_555
H3 O1 1_555 1_555
C1B N2 1_555 1_555
N1B Fe1 1_555 1_555
Fe1_2 N1 1_555 1_555
O1D Fe1 1_555 1_555
N1_2 Fe1 1_555 1_555
N1F Fe1 1_555 1_555
Fe1_3 N1B_2 1_555 1_555
N1B_2 C1B_2 1_555 1_555
N1D Fe1 1_555 1_555
C2D O1D 1_555 1_555
H3D O1D 1_555 1_555
C1_2 N1_2 1_555 1_555
C1B_2 N2_2 1_555 1_555
H2B C2 1_555 1_555
H1D C2D 1_555 1_555
H2D C2D 1_555 1_555
H2F C2D 1_555 1_555
N2_2 C1_2 1_555 1_555
C1B N1B 1_555 1_555

#END
