
#######################################################################
#
#                 Cambridge Crystallographic Data Centre
#                                CCDC 
#
#######################################################################
#
# If this CIF has been generated from an entry in the Cambridge 
# Structural Database, then it will include bibliographic, chemical, 
# crystal, experimental, refinement or atomic coordinate data resulting 
# from the CCDC's data processing and validation procedures.
#
#######################################################################

data_DAPGEG01
_symmetry_cell_setting           monoclinic
_symmetry_space_group_name_H-M   'P 21/n'
_symmetry_Int_Tables_number      14
_space_group_name_Hall           '-P 2yn'
loop_
_symmetry_equiv_pos_site_id
_symmetry_equiv_pos_as_xyz
1 x,y,z
2 1/2+x,1/2-y,1/2+z
3 -x,-y,-z
4 1/2-x,1/2+y,1/2-z
_cell_length_a                   7.327(1)
_cell_length_b                   11.634(1)
_cell_length_c                   11.368(1)
_cell_angle_alpha                90
_cell_angle_beta                 102.98(1)
_cell_angle_gamma                90
_cell_volume                     944.274
loop_
_atom_site_label
_atom_site_type_symbol
_atom_site_fract_x
_atom_site_fract_y
_atom_site_fract_z
Mn1 Mn 0.0000 0.0000 0.0000
O1 O 0.2382(5) 0.0352(3) -0.0855(4)
H1 H 0.3099(70) 0.0728(44) -0.0451(44)
H2 H 0.2927(84) -0.0163(48) -0.0868(53)
N1 N 0.0266(6) 0.1668(3) 0.0889(4)
N2 N 0.2931(6) 0.4274(4) 0.3454(4)
N5 N 0.0237(6) 0.3479(4) 0.2006(4)
C1 C 0.0345(7) 0.2500(4) 0.1446(4)
C2 C 0.1709(7) 0.3860(4) 0.2782(4)
O1B O -0.2382(5) -0.0352(3) 0.0855(4)
H1B H -0.3099(70) -0.0728(44) 0.0451(44)
H2B H -0.2927(84) 0.0163(48) 0.0868(53)
N1B N -0.0266(6) -0.1668(3) -0.0889(4)
N2B N -0.2931(6) -0.4274(4) -0.3454(4)
N5B N -0.0237(6) -0.3479(4) -0.2006(4)
C1B C -0.0345(7) -0.2500(4) -0.1446(4)
C2B C -0.1709(7) -0.3860(4) -0.2782(4)
N2A N -0.2069(6) 0.0726(4) -0.1546(4)
N2C N 0.2069(6) -0.0726(4) 0.1546(4)
Mn1A Mn 0.5000 0.5000 0.5000
Mn1A_2 Mn -0.5000 -0.5000 -0.5000
Mn2 Mn 0.0000 0.0000 0.5000
O2 O -0.1198(7) -0.1030(4) 0.3358(4)
H3 H -0.1056(89) -0.0840(56) 0.2712(56)
H4 H -0.2262(84) -0.1132(53) 0.3135(53)
N3 N 0.2161(6) -0.1319(4) 0.5581(4)
N4 N 0.8095(6) -0.0971(4) 0.5845(4)
N6 N 0.5432(5) -0.1518(3) 0.6709(4)
C3 C 0.3708(7) -0.1400(4) 0.6077(4)
C4 C 0.6809(7) -0.1216(4) 0.6210(4)
O2B O 0.1198(7) 0.1030(4) 0.6642(4)
H3B H 0.1056(89) 0.0840(56) 0.7288(56)
H4B H 0.2262(84) 0.1132(53) 0.6865(53)
N3B N -0.2161(6) 0.1319(4) 0.4419(4)
N4B N -0.8095(6) 0.0971(4) 0.4155(4)
N6B N -0.5432(5) 0.1518(3) 0.3291(4)
C3B C -0.3708(7) 0.1400(4) 0.3923(4)
C4B C -0.6809(7) 0.1216(4) 0.3790(4)
N4_2 N -0.1905(6) -0.0971(4) 0.5845(4)
N4B_2 N 0.1905(6) 0.0971(4) 0.4155(4)
Mn2_2 Mn 1.0000 0.0000 0.5000
Mn2_3 Mn -1.0000 0.0000 0.5000
O3 O 0.0113(6) 0.3503(4) 0.5803(4)
H5 H -0.0131(77) 0.3575(50) 0.6575(53)
H6 H 0.034(11) 0.2955(59) 0.5714(69)
loop_
_geom_bond_atom_site_label_1
_geom_bond_atom_site_label_2
_geom_bond_site_symmetry_1
_geom_bond_site_symmetry_2
Mn1 O1 1_555 1_555
Mn2 O2 1_555 1_555
O1 H1 1_555 1_555
H2 O1 1_555 1_555
O2 H3 1_555 1_555
H4 O2 1_555 1_555
O3 H5 1_555 1_555
H6 O3 1_555 1_555
N1 Mn1 1_555 1_555
N2 C2 1_555 1_555
N3 Mn2 1_555 1_555
N4 C4 1_555 1_555
N5 C1 1_555 1_555
N6 C3 1_555 1_555
C1 N1 1_555 1_555
C2 N5 1_555 1_555
C3 N3 1_555 1_555
C4 N6 1_555 1_555
O1B Mn1 1_555 1_555
H1B O1B 1_555 1_555
H2B O1B 1_555 1_555
N1B Mn1 1_555 1_555
N2B C2B 1_555 1_555
N5B C1B 1_555 1_555
C1B N1B 1_555 1_555
C2B N5B 1_555 1_555
O2B Mn2 1_555 1_555
H3B O2B 1_555 1_555
H4B O2B 1_555 1_555
N3B Mn2 1_555 1_555
N4B C4B 1_555 1_555
N6B C3B 1_555 1_555
C3B N3B 1_555 1_555
C4B N6B 1_555 1_555
N2A Mn1 1_555 1_555
N2C Mn1 1_555 1_555
N4_2 Mn2 1_555 1_555
N4B_2 Mn2 1_555 1_555
Mn1A N2 1_555 1_555
Mn2_2 N4 1_555 1_555
Mn1A_2 N2B 1_555 1_555
Mn2_3 N4B 1_555 1_555

#END
