
#######################################################################
#
#                 Cambridge Crystallographic Data Centre
#                                CCDC 
#
#######################################################################
#
# If this CIF has been generated from an entry in the Cambridge 
# Structural Database, then it will include bibliographic, chemical, 
# crystal, experimental, refinement or atomic coordinate data resulting 
# from the CCDC's data processing and validation procedures.
#
#######################################################################

data_DAPGEG
_symmetry_cell_setting           monoclinic
_symmetry_space_group_name_H-M   'P 21/n'
_symmetry_Int_Tables_number      14
_space_group_name_Hall           '-P 2yn'
loop_
_symmetry_equiv_pos_site_id
_symmetry_equiv_pos_as_xyz
1 x,y,z
2 1/2+x,1/2-y,1/2+z
3 -x,-y,-z
4 1/2-x,1/2+y,1/2-z
_cell_length_a                   7.3165(2)
_cell_length_b                   11.6229(5)
_cell_length_c                   11.3590(5)
_cell_angle_alpha                90
_cell_angle_beta                 103.241(5)
_cell_angle_gamma                90
_cell_volume                     940.278
loop_
_atom_site_label
_atom_site_type_symbol
_atom_site_fract_x
_atom_site_fract_y
_atom_site_fract_z
Mn1 Mn 0.0000 0.0000 0.0000
N1 N -0.4775(3) -0.1505(2) -0.3028(2)
C1 C -0.3293(3) -0.1121(2) -0.2246(2)
N2 N -0.2067(3) -0.0709(2) -0.1550(2)
C2 C -0.4665(3) -0.2479(2) -0.3582(2)
N3 N -0.4728(2) -0.3318(2) -0.4130(2)
O1 O 0.2394(2) -0.0341(2) -0.0859(2)
H1 H 0.3126(42) -0.0791(27) -0.0407(28)
H2 H 0.2969(46) 0.0273(31) -0.0842(30)
N3A N 0.0272(2) -0.1682(2) 0.0870(2)
Mn1A Mn -0.5000 -0.5000 -0.5000
Mn1C Mn -0.5000 0.5000 -0.5000
N2C N -0.2933(3) 0.4291(2) -0.3450(2)
C1C C -0.1707(3) 0.3879(2) -0.2754(2)
N1C N -0.0225(3) 0.3495(2) -0.1972(2)
C2C C -0.0335(3) 0.2521(2) -0.1418(2)
N3C N -0.0272(2) 0.1682(2) -0.0870(2)
N2B N 0.2067(3) 0.0709(2) 0.1550(2)
O1B O -0.2394(2) 0.0341(2) 0.0859(2)
H1B H -0.3126(42) 0.0791(27) 0.0407(28)
H2B H -0.2969(46) -0.0273(31) 0.0842(30)
Mn2 Mn 0.0000 0.0000 -0.5000
N4 N -0.4564(2) 0.1520(2) -0.3270(2)
C3 C -0.3186(3) 0.1215(2) -0.3774(2)
N5 N -0.1902(3) 0.0967(2) -0.4141(2)
C4 C -0.6277(3) 0.1413(2) -0.3922(2)
N6 N -0.7841(3) 0.1333(2) -0.4429(2)
O2 O 0.1243(2) -0.10256(15) -0.3360(2)
H3 H 0.1053(44) -0.0859(30) -0.2688(33)
H4 H 0.2425(58) -0.1045(36) -0.3289(36)
N6_2 N 0.2159(3) 0.1333(2) -0.4429(2)
Mn2_2 Mn -1.0000 0.0000 -0.5000
N6B N -0.2159(3) -0.1333(2) -0.5571(2)
N5B N 0.1902(3) -0.0967(2) -0.5859(2)
O2B O -0.1243(2) 0.10256(15) -0.6640(2)
H3B H -0.1053(44) 0.0859(30) -0.7312(33)
H4B H -0.2425(58) 0.1045(36) -0.6711(36)
C3B C 0.3186(3) -0.1215(2) -0.6226(2)
N4B N 0.4564(2) -0.1520(2) -0.6730(2)
C4B C 0.6277(3) -0.1413(2) -0.6078(2)
N6B_2 N 0.7841(3) -0.1333(2) -0.5571(2)
Mn2_3 Mn 1.0000 0.0000 -0.5000
O3 O 0.5099(2) -0.1497(2) 0.0817(2)
H5 H 0.4717(53) -0.1577(33) 0.1572(36)
H6 H 0.5172(49) -0.2134(39) 0.0721(34)
loop_
_geom_bond_atom_site_label_1
_geom_bond_atom_site_label_2
_geom_bond_site_symmetry_1
_geom_bond_site_symmetry_2
Mn1 N2 1_555 1_555
Mn2 N5 1_555 1_555
N1 C1 1_555 1_555
C1 N2 1_555 1_555
C2 N1 1_555 1_555
N3 C2 1_555 1_555
O1 Mn1 1_555 1_555
H1 O1 1_555 1_555
H2 O1 1_555 1_555
N4 C3 1_555 1_555
C3 N5 1_555 1_555
C4 N4 1_555 1_555
N6 C4 1_555 1_555
O2 Mn2 1_555 1_555
H3 O2 1_555 1_555
H4 O2 1_555 1_555
O3 H5 1_555 1_555
H6 O3 1_555 1_555
N3A Mn1 1_555 1_555
Mn1A N3 1_555 1_555
Mn1C N2C 1_555 1_555
N2C C1C 1_555 1_555
C1C N1C 1_555 1_555
N1C C2C 1_555 1_555
C2C N3C 1_555 1_555
N3C Mn1 1_555 1_555
N2B Mn1 1_555 1_555
O1B Mn1 1_555 1_555
H1B O1B 1_555 1_555
H2B O1B 1_555 1_555
N6_2 Mn2 1_555 1_555
Mn2_2 N6 1_555 1_555
N6B Mn2 1_555 1_555
N5B Mn2 1_555 1_555
O2B Mn2 1_555 1_555
H3B O2B 1_555 1_555
H4B O2B 1_555 1_555
C3B N5B 1_555 1_555
N4B C3B 1_555 1_555
C4B N4B 1_555 1_555
N6B_2 C4B 1_555 1_555
Mn2_3 N6B_2 1_555 1_555

#END
