
#######################################################################
#
#                 Cambridge Crystallographic Data Centre
#                                CCDC 
#
#######################################################################
#
# If this CIF has been generated from an entry in the Cambridge 
# Structural Database, then it will include bibliographic, chemical, 
# crystal, experimental, refinement or atomic coordinate data resulting 
# from the CCDC's data processing and validation procedures.
#
#######################################################################

data_DAPHAD01
_symmetry_cell_setting           monoclinic
_symmetry_space_group_name_H-M   'P 21/n'
_symmetry_Int_Tables_number      14
_space_group_name_Hall           '-P 2yn'
loop_
_symmetry_equiv_pos_site_id
_symmetry_equiv_pos_as_xyz
1 x,y,z
2 1/2-x,1/2+y,1/2-z
3 -x,-y,-z
4 1/2+x,1/2-y,1/2+z
_cell_length_a                   5.831(2)
_cell_length_b                   5.123(2)
_cell_length_c                   5.331(2)
_cell_angle_alpha                90
_cell_angle_beta                 113.20(2)
_cell_angle_gamma                90
_cell_volume                     146.371
loop_
_atom_site_label
_atom_site_type_symbol
_atom_site_fract_x
_atom_site_fract_y
_atom_site_fract_z
Zn1 Zn 0.000 0.000 0.000
O1 O 0.179(9) 0.195(9) 0.361(10)
O2 O 0.139(8) 0.186(9) 0.775(10)
C1 C 0.073(14) 0.128(17) 0.548(21)
C1B C -0.073(14) -0.128(17) 0.452(21)
O1B O -0.179(9) -0.195(9) 0.639(10)
O2B O -0.139(8) -0.186(9) 0.225(10)
O1A O 0.321(9) -0.305(9) 0.139(10)
O1B_2 O -0.179(9) -0.195(9) -0.361(10)
O1C O -0.321(9) 0.305(9) -0.139(10)
O2_2 O 0.139(8) 0.186(9) -0.225(10)
Zn1A Zn 0.500 0.500 0.500
Zn1_2 Zn 0.000 0.000 1.000
Zn1A_2 Zn -0.500 -0.500 0.500
loop_
_geom_bond_atom_site_label_1
_geom_bond_atom_site_label_2
_geom_bond_site_symmetry_1
_geom_bond_site_symmetry_2
Zn1 O1 1_555 1_555
O1 C1 1_555 1_555
O2 C1 1_555 1_555
C1 C1B 1_555 1_555
C1B O1B 1_555 1_555
O1B Zn1_2 1_555 1_555
O2B Zn1 1_555 1_555
O1A Zn1 1_555 1_555
O1B_2 Zn1 1_555 1_555
O1C Zn1 1_555 1_555
O2_2 Zn1 1_555 1_555
Zn1A O1 1_555 1_555
Zn1_2 O2 1_555 1_555
Zn1A_2 O1B 1_555 1_555
C1B O2B 1_555 1_555

#END
