
#######################################################################
#
#                 Cambridge Crystallographic Data Centre
#                                CCDC 
#
#######################################################################
#
# If this CIF has been generated from an entry in the Cambridge 
# Structural Database, then it will include bibliographic, chemical, 
# crystal, experimental, refinement or atomic coordinate data resulting 
# from the CCDC's data processing and validation procedures.
#
#######################################################################

data_DAPJUB
_symmetry_cell_setting           monoclinic
_symmetry_space_group_name_H-M   'C 2'
_symmetry_Int_Tables_number      5
_space_group_name_Hall           'C 2y'
loop_
_symmetry_equiv_pos_site_id
_symmetry_equiv_pos_as_xyz
1 x,y,z
2 -x,y,-z
3 1/2+x,1/2+y,z
4 1/2-x,1/2+y,-z
_cell_length_a                   16.124(5)
_cell_length_b                   4.7856(14)
_cell_length_c                   15.443(5)
_cell_angle_alpha                90
_cell_angle_beta                 117.911(9)
_cell_angle_gamma                90
_cell_volume                     1053.01
loop_
_atom_site_label
_atom_site_type_symbol
_atom_site_fract_x
_atom_site_fract_y
_atom_site_fract_z
Ag1 Ag 0.467531(18) 0.37578(10) 0.57307(2)
C1 C 0.6675(3) 0.5995(10) 0.6260(4)
C2 C 0.7503(3) 0.7747(10) 0.6977(3)
H1 H 0.7291 0.9737 0.6904
C3 C 0.8326(3) 0.7598(10) 0.6747(4)
H2 H 0.8145 0.8516 0.6110
H3 H 0.8865 0.8635 0.7256
C4 C 0.8622(3) 0.4614(10) 0.6707(4)
H4 H 0.8111 0.3662 0.6138
H5 H 0.8709 0.3621 0.7306
C5 C 1.0561(4) 0.5152(13) 0.7835(4)
H6 H 1.0287 0.6393 0.8138
H7 H 1.1097 0.6081 0.7823
H8 H 1.0772 0.3420 0.8215
C6 C 0.8157(4) 0.8621(17) 0.8745(3)
C7 C 0.8398(6) 0.7441(15) 0.9737(4)
H9 H 0.9066 0.7751 1.0182
H10 H 0.8266 0.5431 0.9679
H11 H 0.8020 0.8371 0.9997
N1 N 0.7780(3) 0.6875(8) 0.7997(3)
H12 H 0.7690 0.5126 0.8108
O1 O 0.6311(2) 0.4251(7) 0.6595(3)
O2 O 0.6420(3) 0.6471(8) 0.5369(3)
O3 O 0.8302(4) 1.1132(9) 0.8639(3)
S1 S 0.96954(7) 0.4354(2) 0.66073(8)
Ag1A Ag 0.532469(18) 0.37578(10) 0.42693(2)
Ag1B Ag 0.967531(18) 0.87578(10) 0.57307(2)
Ag1B_2 Ag 0.967531(18) -0.12422(10) 0.57307(2)
O2A O 0.3580(3) 0.6471(8) 0.4631(3)
S1B S 0.46954(7) -0.0646(2) 0.66073(8)
S1B_2 S 0.46954(7) 0.9354(2) 0.66073(8)
loop_
_geom_bond_atom_site_label_1
_geom_bond_atom_site_label_2
_geom_bond_site_symmetry_1
_geom_bond_site_symmetry_2
Ag1 O1 1_555 1_555
C1 C2 1_555 1_555
C2 H1 1_555 1_555
C3 C2 1_555 1_555
H2 C3 1_555 1_555
H3 C3 1_555 1_555
C4 C3 1_555 1_555
H4 C4 1_555 1_555
H5 C4 1_555 1_555
C5 H6 1_555 1_555
H7 C5 1_555 1_555
H8 C5 1_555 1_555
C6 C7 1_555 1_555
C7 H9 1_555 1_555
H10 C7 1_555 1_555
H11 C7 1_555 1_555
N1 C2 1_555 1_555
H12 N1 1_555 1_555
O1 C1 1_555 1_555
O2 C1 1_555 1_555
O3 C6 1_555 1_555
S1 C4 1_555 1_555
Ag1A Ag1 1_555 1_555
Ag1B S1 1_555 1_555
Ag1B_2 S1 1_555 1_555
O2A Ag1 1_555 1_555
S1B Ag1 1_555 1_555
S1B_2 Ag1 1_555 1_555
C5 S1 1_555 1_555
C6 N1 1_555 1_555
O2 Ag1A 1_555 1_555

#END
