
#######################################################################
#
#                 Cambridge Crystallographic Data Centre
#                                CCDC 
#
#######################################################################
#
# If this CIF has been generated from an entry in the Cambridge 
# Structural Database, then it will include bibliographic, chemical, 
# crystal, experimental, refinement or atomic coordinate data resulting 
# from the CCDC's data processing and validation procedures.
#
#######################################################################

data_DAPMAK
_symmetry_cell_setting           triclinic
_symmetry_space_group_name_H-M   'P -1'
_symmetry_Int_Tables_number      2
_space_group_name_Hall           '-P 1'
loop_
_symmetry_equiv_pos_site_id
_symmetry_equiv_pos_as_xyz
1 x,y,z
2 -x,-y,-z
_cell_length_a                   7.454(4)
_cell_length_b                   12.280(5)
_cell_length_c                   12.905(5)
_cell_angle_alpha                64.89(4)
_cell_angle_beta                 83.52(4)
_cell_angle_gamma                88.19(4)
_cell_volume                     1062.62
loop_
_atom_site_label
_atom_site_type_symbol
_atom_site_fract_x
_atom_site_fract_y
_atom_site_fract_z
Mn1 Mn 0.0000 0.0000 0.0000
N1 N -0.2391(3) 0.0852(2) 0.0517(2)
C1 C -0.3793(4) 0.1215(3) 0.0639(3)
N2 N -0.5303(4) 0.1706(3) 0.0810(3)
C2 C -0.6800(4) 0.1275(3) 0.0687(3)
N3 N -0.8193(3) 0.0964(2) 0.0599(2)
N9 N 0.0205(4) 0.1568(2) -0.1773(2)
C10 C 0.0233(5) 0.2691(3) -0.1853(3)
H5 H 0.0253 0.2794 -0.1181
C11 C 0.0232(5) 0.3705(3) -0.2881(3)
H6 H 0.0264 0.4471 -0.2904
C12 C 0.0183(4) 0.3543(2) -0.3880(2)
C13 C 0.0184(5) 0.2396(3) -0.3814(3)
H7 H 0.0187 0.2266 -0.4474
C14 C 0.0182(5) 0.1444(3) -0.2747(3)
H8 H 0.0164 0.0669 -0.2705
N10 N 0.0140(4) 0.4504(2) -0.5011(2)
Mn1_2 Mn -1.0000 0.0000 0.0000
Mn1_3 Mn 0.0000 1.0000 -1.0000
Mn1_4 Mn 1.0000 0.0000 0.0000
N1_2 N 0.7609(3) 0.0852(2) 0.0517(2)
N1A N 0.2391(3) -0.0852(2) -0.0517(2)
C1_2 C 0.6207(4) 0.1215(3) 0.0639(3)
N2_2 N 0.4697(4) 0.1706(3) 0.0810(3)
C2_2 C 0.3200(4) 0.1275(3) 0.0687(3)
N3_2 N 0.1807(3) 0.0964(2) 0.0599(2)
N3A N -0.1807(3) -0.0964(2) -0.0599(2)
N9A N -0.0205(4) 0.8432(2) -0.8227(2)
N9A_2 N -0.0205(4) -0.1568(2) 0.1773(2)
C10A C -0.0233(5) 0.7309(3) -0.8147(3)
H5A H -0.0253 0.7206 -0.8819
C11A C -0.0232(5) 0.6295(3) -0.7119(3)
H6A H -0.0264 0.5529 -0.7096
C12A C -0.0183(4) 0.6457(2) -0.6120(2)
C13A C -0.0184(5) 0.7604(3) -0.6186(3)
H7A H -0.0187 0.7734 -0.5526
C14A C -0.0182(5) 0.8556(3) -0.7253(3)
H8A H -0.0164 0.9331 -0.7295
N10A N -0.0140(4) 0.5496(2) -0.4989(2)
Mn2 Mn 0.0000 0.5000 0.0000
N4 N -0.2231(4) 0.5559(2) 0.0919(2)
C3 C -0.3713(5) 0.5622(3) 0.1231(3)
N5 N -0.5364(4) 0.5693(4) 0.1674(3)
C4 C -0.6689(4) 0.5700(3) 0.1105(3)
N6 N -0.7960(3) 0.5683(2) 0.0702(2)
N7 N 0.0052(4) 0.6809(2) -0.1577(2)
C5 C 0.1719(5) 0.8544(3) -0.2950(3)
H1 H 0.2772 0.9011 -0.3171
C6 C 0.1545(5) 0.7480(3) -0.1958(3)
H2 H 0.2530 0.7224 -0.1537
C7 C 0.0281(5) 0.8892(3) -0.3601(3)
C8 C -0.1305(5) 0.8235(3) -0.3209(3)
H3 H -0.2306 0.8473 -0.3618
C9 C -0.1369(5) 0.7198(3) -0.2177(3)
H4 H -0.2447 0.6758 -0.1893
N8 N 0.0528(4) 0.9973(2) -0.4648(2)
Mn2_2 Mn -1.0000 0.5000 0.0000
Mn2_3 Mn 0.0000 1.5000 -1.0000
Mn2_4 Mn 1.0000 0.5000 0.0000
N4_2 N 0.7769(4) 0.5559(2) 0.0919(2)
N4A N 0.2231(4) 0.4441(2) -0.0919(2)
C3_2 C 0.6287(5) 0.5622(3) 0.1231(3)
N5_2 N 0.4636(4) 0.5693(4) 0.1674(3)
C4_2 C 0.3311(4) 0.5700(3) 0.1105(3)
N6_2 N 0.2040(3) 0.5683(2) 0.0702(2)
N6A N -0.2040(3) 0.4317(2) -0.0702(2)
N7A N -0.0052(4) 1.3191(2) -0.8423(2)
N7A_2 N -0.0052(4) 0.3191(2) 0.1577(2)
C5A C -0.1719(5) 1.1456(3) -0.7050(3)
H1A H -0.2772 1.0989 -0.6829
C6A C -0.1545(5) 1.2520(3) -0.8042(3)
H2A H -0.2530 1.2776 -0.8463
C7A C -0.0281(5) 1.1108(3) -0.6399(3)
C8A C 0.1305(5) 1.1765(3) -0.6791(3)
H3A H 0.2306 1.1527 -0.6382
C9A C 0.1369(5) 1.2802(3) -0.7823(3)
H4A H 0.2447 1.3242 -0.8107
N8A N -0.0528(4) 1.0027(2) -0.5352(2)
N11 N -0.5101(6) -0.0965(4) 0.3664(5)
C15 C -0.5118(8) -0.1591(5) 0.3005(5)
H9 H -0.5109 -0.1167 0.2212
C16 C -0.5145(6) -0.2801(4) 0.3469(4)
H10 H -0.5158 -0.3202 0.2999
C17 C -0.5156(6) -0.3438(4) 0.4633(4)
C18 C -0.5154(7) -0.2838(5) 0.5333(5)
H11 H -0.5176 -0.3247 0.6128
C19 C -0.5116(7) -0.1569(5) 0.4764(6)
H12 H -0.5102 -0.1141 0.5210
N12 N -0.5281(6) -0.4765(4) 0.5291(4)
N11A N -0.4899(6) -0.9035(4) 0.6336(5)
C15A C -0.4882(8) -0.8409(5) 0.6995(5)
H9A H -0.4891 -0.8833 0.7788
C16A C -0.4855(6) -0.7199(4) 0.6531(4)
H10A H -0.4842 -0.6798 0.7001
C17A C -0.4844(6) -0.6562(4) 0.5367(4)
C18A C -0.4846(7) -0.7162(5) 0.4667(5)
H11A H -0.4824 -0.6753 0.3872
C19A C -0.4884(7) -0.8431(5) 0.5236(6)
H12A H -0.4898 -0.8859 0.4790
N12A N -0.4719(6) -0.5235(4) 0.4709(4)
loop_
_geom_bond_atom_site_label_1
_geom_bond_atom_site_label_2
_geom_bond_site_symmetry_1
_geom_bond_site_symmetry_2
Mn1 N1 1_555 1_555
Mn2 N4 1_555 1_555
N1 C1 1_555 1_555
C1 N2 1_555 1_555
N2 C2 1_555 1_555
C2 N3 1_555 1_555
N3 Mn1_2 1_555 1_555
N4 C3 1_555 1_555
C3 N5 1_555 1_555
N5 C4 1_555 1_555
C4 N6 1_555 1_555
N6 Mn2_2 1_555 1_555
N7 Mn2 1_555 1_555
C5 H1 1_555 1_555
C6 N7 1_555 1_555
H2 C6 1_555 1_555
C7 C5 1_555 1_555
C8 C7 1_555 1_555
H3 C8 1_555 1_555
C9 N7 1_555 1_555
H4 C9 1_555 1_555
N8 C7 1_555 1_555
N9 Mn1 1_555 1_555
C10 N9 1_555 1_555
H5 C10 1_555 1_555
C11 C10 1_555 1_555
H6 C11 1_555 1_555
C12 C11 1_555 1_555
C13 C12 1_555 1_555
H7 C13 1_555 1_555
C14 N9 1_555 1_555
H8 C14 1_555 1_555
N10 C12 1_555 1_555
N11 C15 1_555 1_555
C15 H9 1_555 1_555
C16 C15 1_555 1_555
H10 C16 1_555 1_555
C17 C16 1_555 1_555
C18 C17 1_555 1_555
H11 C18 1_555 1_555
C19 N11 1_555 1_555
H12 C19 1_555 1_555
N12 C17 1_555 1_555
Mn1_3 N9A 1_555 1_555
Mn1_4 N1_2 1_555 1_555
Mn2_3 N7A 1_555 1_555
Mn2_4 N4_2 1_555 1_555
N1_2 C1_2 1_555 1_555
N1A Mn1 1_555 1_555
C1_2 N2_2 1_555 1_555
N2_2 C2_2 1_555 1_555
C2_2 N3_2 1_555 1_555
N3_2 Mn1 1_555 1_555
N3A Mn1 1_555 1_555
N4_2 C3_2 1_555 1_555
N4A Mn2 1_555 1_555
C3_2 N5_2 1_555 1_555
N5_2 C4_2 1_555 1_555
C4_2 N6_2 1_555 1_555
N6_2 Mn2 1_555 1_555
N6A Mn2 1_555 1_555
N7A C6A 1_555 1_555
N7A_2 Mn2 1_555 1_555
C5A H1A 1_555 1_555
C6A C5A 1_555 1_555
H2A C6A 1_555 1_555
C7A C5A 1_555 1_555
C8A C7A 1_555 1_555
H3A C8A 1_555 1_555
C9A N7A 1_555 1_555
H4A C9A 1_555 1_555
N8A N8 1_555 1_555
N9A C10A 1_555 1_555
N9A_2 Mn1 1_555 1_555
C10A H5A 1_555 1_555
C11A C10A 1_555 1_555
H6A C11A 1_555 1_555
C12A C11A 1_555 1_555
C13A C12A 1_555 1_555
H7A C13A 1_555 1_555
C14A N9A 1_555 1_555
H8A C14A 1_555 1_555
N10A N10 1_555 1_555
N11A C15A 1_555 1_555
C15A H9A 1_555 1_555
C16A C15A 1_555 1_555
H10A C16A 1_555 1_555
C17A C16A 1_555 1_555
C18A C17A 1_555 1_555
H11A C18A 1_555 1_555
C19A N11A 1_555 1_555
H12A C19A 1_555 1_555
N12A N12 1_555 1_555
C5 C6 1_555 1_555
C8 C9 1_555 1_555
C13 C14 1_555 1_555
C18 C19 1_555 1_555
C7A N8A 1_555 1_555
C8A C9A 1_555 1_555
C12A N10A 1_555 1_555
C13A C14A 1_555 1_555
C17A N12A 1_555 1_555
C18A C19A 1_555 1_555

#END
