
#######################################################################
#
#                 Cambridge Crystallographic Data Centre
#                                CCDC 
#
#######################################################################
#
# If this CIF has been generated from an entry in the Cambridge 
# Structural Database, then it will include bibliographic, chemical, 
# crystal, experimental, refinement or atomic coordinate data resulting 
# from the CCDC's data processing and validation procedures.
#
#######################################################################

data_DAPPEQ
_symmetry_cell_setting           orthorhombic
_symmetry_space_group_name_H-M   'C c c a'
_symmetry_Int_Tables_number      68
_space_group_name_Hall           '-C 2b 2bc'
loop_
_symmetry_equiv_pos_site_id
_symmetry_equiv_pos_as_xyz
1 x,y,z
2 1/2+x,1/2+y,z
3 1/2-x,-y,z
4 -x,y,1/2-z
5 1/2+x,-y,1/2-z
6 -x,1/2-y,z
7 1/2-x,1/2+y,1/2-z
8 x,1/2-y,1/2-z
9 -x,-y,-z
10 1/2-x,1/2-y,-z
11 1/2+x,y,-z
12 x,-y,1/2+z
13 1/2-x,y,1/2+z
14 x,1/2+y,-z
15 1/2+x,1/2-y,1/2+z
16 -x,1/2+y,1/2+z
_cell_length_a                   20.715(4)
_cell_length_b                   20.718(4)
_cell_length_c                   17.131(3)
_cell_angle_alpha                90
_cell_angle_beta                 90
_cell_angle_gamma                90
_cell_volume                     7352.17
loop_
_atom_site_label
_atom_site_type_symbol
_atom_site_fract_x
_atom_site_fract_y
_atom_site_fract_z
Fe1 Fe 0.2500 0.0000 0.24245(12)
Mn1 Mn 0.20040(10) -0.2500 0.2500
Mn2 Mn 0.0000 0.04956(10) 0.2500
O1 O 0.1395(4) -0.2358(3) 0.3291(7)
O2 O -0.0144(3) 0.1107(3) 0.1704(7)
N1 N -0.0130(5) -0.0228(4) 0.1750(7)
C1 C 0.1492(6) -0.2050(5) 0.3958(10)
N2 N 0.2724(4) -0.2377(5) 0.3249(7)
N3 N 0.1084(5) 0.0435(5) 0.2293(7)
C2 C -0.0451(5) 0.1001(6) 0.1041(10)
C3 C -0.0619(6) 0.0393(6) 0.0706(9)
N4 N 0.2063(5) -0.1417(4) 0.2288(7)
C4 C 0.2116(5) -0.1884(6) 0.4284(8)
C5 C -0.0949(6) 0.0329(7) 0.0027(10)
C6 C 0.1618(5) 0.0285(4) 0.2330(6)
C7 C 0.2173(7) -0.1549(6) 0.4994(9)
C8 C 0.2208(5) -0.0884(5) 0.2327(7)
C9 C 0.0955(6) -0.1892(6) 0.4429(11)
C10 C -0.1109(6) 0.0866(7) -0.0450(13)
C11 C 0.0109(10) -0.0862(5) 0.2071(9)
C12 C -0.0608(6) 0.1550(7) 0.0565(12)
C13 C 0.1636(8) -0.1390(6) 0.5442(12)
C14 C -0.0414(7) -0.0205(6) 0.1094(9)
C15 C -0.0935(6) 0.1488(8) -0.0104(15)
C16 C 0.2705(5) -0.2087(6) 0.3916(8)
C17 C 0.3359(6) -0.2591(10) 0.2932(9)
C18 C 0.1016(9) -0.1565(7) 0.5116(15)
N5 N 0.2500 0.0000 0.3395(10)
N6 N 0.2500 0.0000 0.1323(13)
O3 O 0.2500 0.0000 0.0665(12)
C19 C 0.2500 0.0000 0.403(2)
Mn1B Mn 0.29960(10) 0.2500 0.2500
Mn2B Mn 0.5000 -0.04956(10) 0.2500
O1G O 0.1395(4) -0.2642(3) 0.1709(7)
O2C O 0.0144(3) 0.1107(3) 0.3296(7)
N1C N 0.0130(5) -0.0228(4) 0.3250(7)
C1G C 0.1492(6) -0.2950(5) 0.1042(10)
N2G N 0.2724(4) -0.2623(5) 0.1751(7)
N3B N 0.3916(5) -0.0435(5) 0.2293(7)
N3C N -0.1084(5) 0.0435(5) 0.2707(7)
C2C C 0.0451(5) 0.1001(6) 0.3959(10)
C3C C 0.0619(6) 0.0393(6) 0.4294(9)
N4B N 0.2937(5) 0.1417(4) 0.2288(7)
N4G N 0.2063(5) -0.3583(4) 0.2712(7)
C4G C 0.2116(5) -0.3116(6) 0.0716(8)
C5C C 0.0949(6) 0.0329(7) 0.4973(10)
C6B C 0.3382(5) -0.0285(4) 0.2330(6)
C7G C 0.2173(7) -0.3451(6) 0.0006(9)
C8B C 0.2792(5) 0.0884(5) 0.2327(7)
C9G C 0.0955(6) -0.3108(6) 0.0571(11)
C10C C 0.1109(6) 0.0866(7) 0.5450(13)
C11C C -0.0109(10) -0.0862(5) 0.2929(9)
C12C C 0.0608(6) 0.1550(7) 0.4435(12)
C13G C 0.1636(8) -0.3610(6) -0.0442(12)
C14C C 0.0414(7) -0.0205(6) 0.3906(9)
C15C C 0.0935(6) 0.1488(8) 0.5104(15)
C16G C 0.2705(5) -0.2913(6) 0.1084(8)
C17G C 0.3359(6) -0.2409(10) 0.2068(9)
C18G C 0.1016(9) -0.3435(7) -0.0116(15)
loop_
_geom_bond_atom_site_label_1
_geom_bond_atom_site_label_2
_geom_bond_site_symmetry_1
_geom_bond_site_symmetry_2
Fe1 C6 1_555 1_555
Mn1 O1 1_555 1_555
Mn2 O2 1_555 1_555
O1 C1 1_555 1_555
O2 C2 1_555 1_555
N1 Mn2 1_555 1_555
C1 C4 1_555 1_555
N2 Mn1 1_555 1_555
N3 Mn2 1_555 1_555
C2 C3 1_555 1_555
C3 C5 1_555 1_555
N4 Mn1 1_555 1_555
C4 C7 1_555 1_555
C5 C10 1_555 1_555
C6 N3 1_555 1_555
C7 C13 1_555 1_555
C8 Fe1 1_555 1_555
C9 C1 1_555 1_555
C10 C15 1_555 1_555
C11 N1 1_555 1_555
C12 C2 1_555 1_555
C13 C18 1_555 1_555
C14 N1 1_555 1_555
C15 C12 1_555 1_555
C16 N2 1_555 1_555
C17 N2 1_555 1_555
C18 C9 1_555 1_555
N5 Fe1 1_555 1_555
N6 Fe1 1_555 1_555
O3 N6 1_555 1_555
C19 N5 1_555 1_555
Mn1B N4B 1_555 1_555
Mn2B N3B 1_555 1_555
O1G Mn1 1_555 1_555
O2C Mn2 1_555 1_555
N1C Mn2 1_555 1_555
C1G O1G 1_555 1_555
N2G Mn1 1_555 1_555
N3B C6B 1_555 1_555
N3C Mn2 1_555 1_555
C2C O2C 1_555 1_555
C3C C2C 1_555 1_555
N4B C8B 1_555 1_555
N4G Mn1 1_555 1_555
C4G C1G 1_555 1_555
C5C C3C 1_555 1_555
C6B Fe1 1_555 1_555
C7G C4G 1_555 1_555
C8B Fe1 1_555 1_555
C9G C1G 1_555 1_555
C10C C5C 1_555 1_555
C11C C11 1_555 1_555
C12C C2C 1_555 1_555
C13G C7G 1_555 1_555
C14C N1C 1_555 1_555
C15C C10C 1_555 1_555
C16G N2G 1_555 1_555
C17G C17 1_555 1_555
C18G C9G 1_555 1_555
C3 C14 1_555 1_555
N4 C8 1_555 1_555
C4 C16 1_555 1_555
N1C C11C 1_555 1_555
N2G C17G 1_555 1_555
C3C C14C 1_555 1_555
C4G C16G 1_555 1_555
C12C C15C 1_555 1_555
C13G C18G 1_555 1_555

#END
