
#######################################################################
#
#                 Cambridge Crystallographic Data Centre
#                                CCDC 
#
#######################################################################
#
# If this CIF has been generated from an entry in the Cambridge 
# Structural Database, then it will include bibliographic, chemical, 
# crystal, experimental, refinement or atomic coordinate data resulting 
# from the CCDC's data processing and validation procedures.
#
#######################################################################

data_DAPPER
_symmetry_cell_setting           trigonal
_symmetry_space_group_name_H-M   'P -3 c 1'
_symmetry_Int_Tables_number      165
_space_group_name_Hall           '-P 3 2"c'
loop_
_symmetry_equiv_pos_site_id
_symmetry_equiv_pos_as_xyz
1 x,y,z
2 -y,x-y,z
3 -x+y,-x,z
4 y,x,1/2-z
5 x-y,-y,1/2-z
6 -x,-x+y,1/2-z
7 -x,-y,-z
8 y,-x+y,-z
9 x-y,x,-z
10 -y,-x,1/2+z
11 -x+y,y,1/2+z
12 x,x-y,1/2+z
_cell_length_a                   25.2196(2)
_cell_length_b                   25.2196(2)
_cell_length_c                   13.23610(10)
_cell_angle_alpha                90
_cell_angle_beta                 90
_cell_angle_gamma                120
_cell_volume                     7290.66
loop_
_atom_site_label
_atom_site_type_symbol
_atom_site_fract_x
_atom_site_fract_y
_atom_site_fract_z
C1 C 0.89064(13) 0.31408(13) 0.3486(2)
H1 H 0.8680 0.3043 0.2838
H2 H 0.8737 0.2758 0.3883
C2 C 0.88967(13) 0.41077(14) 0.3478(2)
H3 H 0.8718 0.4317 0.3865
H4 H 0.8677 0.3975 0.2825
C3 C 0.96700(14) 0.50996(14) 0.2687(2)
H5 H 0.9596 0.5378 0.3116
H6 H 0.9386 0.4973 0.2104
C4 C 0.96658(14) 0.29220(14) 0.2682(2)
H7 H 0.9385 0.2770 0.2095
H8 H 0.9587 0.2568 0.3108
C5 C 1.08060(14) 0.44047(14) 0.4425(2)
C6 C 1.13910(13) 0.48285(13) 0.4966(2)
C7 C 1.18279(13) 0.53843(13) 0.4552(2)
H9 H 1.1762 0.5499 0.3901
C8 C 1.23588(13) 0.57738(14) 0.5076(2)
H10 H 1.2654 0.6150 0.4778
C9 C 1.24632(13) 0.56174(13) 0.6036(2)
C10 C 1.20326(14) 0.50604(14) 0.6443(2)
H11 H 1.2101 0.4946 0.7092
C11 C 1.15060(14) 0.46692(14) 0.5921(2)
H12 H 1.1218 0.4288 0.6214
C12 C 1.30441(14) 0.60307(14) 0.6619(2)
H13 H 1.2945 0.6005 0.7348
H14 H 1.3337 0.5881 0.6529
F1 F 0.93902(17) 0.25142(19) 0.7551(3)
C13 C 0.90379(16) 0.37124(15) 0.5065(2)
H15 H 0.8929 0.4003 0.5371
H16 H 0.9490 0.3914 0.5042
C14 C 0.8791(2) 0.3146(2) 0.5726(4)
C15 C 0.9209(2) 0.3085(2) 0.6330(4)
H17 H 0.9627 0.3398 0.6335
C16 C 0.9015(2) 0.2567(2) 0.6925(3)
C17 C 0.8403(3) 0.2109(2) 0.6918(4)
H18 H 0.8271 0.1754 0.7325
C18 C 0.7985(2) 0.2169(2) 0.6315(5)
H19 H 0.7567 0.1856 0.6310
C19 C 0.8179(2) 0.2688(3) 0.5719(5)
H20 H 0.7894 0.2729 0.5307
N1 N 0.95610(10) 0.33570(11) 0.32686(18)
H21 H 0.9759 0.3415 0.3886
N2 N 0.87983(11) 0.35729(12) 0.40312(18)
N3 N 0.95584(11) 0.45559(11) 0.32742(17)
H22 H 0.9753 0.4692 0.3895
N4 N 1.3333 0.6666 0.6300(3)
Ni1 Ni 1.0000 0.41728(2) 0.2500
O1 O 1.07172(9) 0.45886(10) 0.35835(14)
O2 O 1.04531(12) 0.39016(15) 0.4830(2)
C1E C 1.10936(13) 0.42344(18) 0.1514(2)
C1B C 1.42344(18) 1.10936(13) 0.3486(2)
C1C C 1.31408(13) 0.89064(13) 0.1514(2)
C1A C 1.68592(13) 0.57656(18) 0.3486(2)
C1D C 1.57656(18) 0.68592(13) 0.1514(2)
H1E H 1.1320 0.4363 0.2162
H1B H 1.4363 1.1320 0.2838
H1C H 1.3043 0.8680 0.2162
H1A H 1.6957 0.5637 0.2838
H1D H 1.5637 0.6957 0.2162
H2E H 1.1263 0.4021 0.1117
H2B H 1.4021 1.1263 0.3883
H2C H 1.2758 0.8737 0.1117
H2A H 1.7242 0.5979 0.3883
H2D H 1.5979 0.7242 0.1117
C2E C 1.11033(13) 0.52110(19) 0.1522(2)
C2B C 1.52110(19) 1.11033(13) 0.3478(2)
C2C C 1.41077(14) 0.88967(13) 0.1522(2)
C2A C 1.58923(14) 0.47890(19) 0.3478(2)
C2D C 1.47890(19) 0.58923(14) 0.1522(2)
H3E H 1.1282 0.5599 0.1135
H3B H 1.5599 1.1282 0.3865
H3C H 1.4317 0.8718 0.1135
H3A H 1.5683 0.4401 0.3865
H3D H 1.4401 0.5683 0.1135
H4E H 1.1323 0.5298 0.2175
H4B H 1.5298 1.1323 0.2825
H4C H 1.3975 0.8677 0.2175
H4A H 1.6025 0.4702 0.2825
H4D H 1.4702 0.6025 0.2175
C3E C 1.03300(14) 0.54296(20) 0.2313(2)
C3B C 1.54296(20) 1.03300(14) 0.2687(2)
C3C C 1.50996(14) 0.96700(14) 0.2313(2)
C3A C 1.49004(14) 0.45704(20) 0.2687(2)
C3D C 1.45704(20) 0.49004(14) 0.2313(2)
H5E H 1.0404 0.5782 0.1884
H5B H 1.5782 1.0404 0.3116
H5C H 1.5378 0.9596 0.1884
H5A H 1.4622 0.4218 0.3116
H5D H 1.4218 0.4622 0.1884
H6E H 1.0614 0.5587 0.2896
H6B H 1.5587 1.0614 0.2104
H6C H 1.4973 0.9386 0.2896
H6A H 1.5027 0.4413 0.2104
H6D H 1.4413 0.5027 0.2896
C4E C 1.03342(14) 0.32562(20) 0.2318(2)
C4B C 1.32562(20) 1.03342(14) 0.2682(2)
C4C C 1.29220(14) 0.96658(14) 0.2318(2)
C4A C 1.70780(14) 0.67438(20) 0.2682(2)
C4D C 1.67438(20) 0.70780(14) 0.2318(2)
H7E H 1.0615 0.3385 0.2905
H7B H 1.3385 1.0615 0.2095
H7C H 1.2770 0.9385 0.2905
H7A H 1.7230 0.6615 0.2095
H7D H 1.6615 0.7230 0.2905
H8E H 1.0413 0.2981 0.1892
H8B H 1.2981 1.0413 0.3108
H8C H 1.2568 0.9587 0.1892
H8A H 1.7432 0.7019 0.3108
H8D H 1.7019 0.7432 0.1892
C5B C 1.35987(20) 0.91940(14) 0.4425(2)
C5A C 1.55953(14) 0.64013(20) 0.4425(2)
C5E C 0.91940(14) 0.35987(20) 0.0575(2)
C5D C 0.64013(20) 0.55953(14) 0.0575(2)
C5C C 0.44047(14) 0.08060(14) 0.0575(2)
C6B C 1.34375(18) 0.86090(13) 0.4966(2)
C6A C 1.51715(13) 0.65625(18) 0.4966(2)
C6E C 0.86090(13) 0.34375(18) 0.0034(2)
C6D C 0.65625(18) 0.51715(13) 0.0034(2)
C6C C 0.48285(13) 0.13910(13) 0.0034(2)
C7B C 1.35564(18) 0.81721(13) 0.4552(2)
C7A C 1.46157(13) 0.64436(18) 0.4552(2)
C7E C 0.81721(13) 0.35564(18) 0.0448(2)
C7D C 0.64436(18) 0.46157(13) 0.0448(2)
C7C C 0.53843(13) 0.18279(13) 0.0448(2)
H9B H 1.3737 0.8238 0.3901
H9A H 1.4501 0.6263 0.3901
H9E H 0.8238 0.3737 0.1099
H9D H 0.6263 0.4501 0.1099
H9C H 0.5499 0.1762 0.1099
C8B C 1.34150(19) 0.76412(13) 0.5076(2)
C8A C 1.42262(14) 0.65850(19) 0.5076(2)
C8E C 0.76412(13) 0.34150(19) -0.0076(2)
C8D C 0.65850(19) 0.42262(14) -0.0076(2)
C8C C 0.57738(14) 0.23588(13) -0.0076(2)
H10B H 1.3496 0.7346 0.4778
H10A H 1.3850 0.6504 0.4778
H10E H 0.7346 0.3496 0.0222
H10D H 0.6504 0.3850 0.0222
H10C H 0.6150 0.2654 0.0222
C9B C 1.31542(18) 0.75368(13) 0.6036(2)
C9A C 1.43826(13) 0.68458(18) 0.6036(2)
C9E C 0.75368(13) 0.31542(18) -0.1036(2)
C9D C 0.68458(18) 0.43826(13) -0.1036(2)
C9C C 0.56174(13) 0.24632(13) -0.1036(2)
C10B C 1.30278(20) 0.79674(14) 0.6443(2)
C10A C 1.49396(14) 0.69722(20) 0.6443(2)
C10E C 0.79674(14) 0.30278(20) -0.1443(2)
C10D C 0.69722(20) 0.49396(14) -0.1443(2)
C10C C 0.50604(14) 0.20326(14) -0.1443(2)
H11B H 1.2845 0.7899 0.7092
H11A H 1.5054 0.7155 0.7092
H11E H 0.7899 0.2845 -0.2092
H11D H 0.7155 0.5054 -0.2092
H11C H 0.4946 0.2101 -0.2092
C11B C 1.31632(20) 0.84940(14) 0.5921(2)
C11A C 1.53308(14) 0.68368(20) 0.5921(2)
C11E C 0.84940(14) 0.31632(20) -0.0921(2)
C11D C 0.68368(20) 0.53308(14) -0.0921(2)
C11C C 0.46692(14) 0.15060(14) -0.0921(2)
H12B H 1.3070 0.8782 0.6214
H12A H 1.5712 0.6930 0.6214
H12E H 0.8782 0.3070 -0.1214
H12D H 0.6930 0.5712 -0.1214
H12C H 0.4288 0.1218 -0.1214
C12B C 1.29866(20) 0.69559(14) 0.6619(2)
C12A C 1.39693(14) 0.70134(20) 0.6619(2)
C12E C 0.69559(14) 0.29866(20) -0.1619(2)
C12D C 0.70134(20) 0.39693(14) -0.1619(2)
C12C C 0.60307(14) 0.30441(14) -0.1619(2)
H13B H 1.3060 0.7055 0.7348
H13A H 1.3995 0.6940 0.7348
H13E H 0.7055 0.3060 -0.2348
H13D H 0.6940 0.3995 -0.2348
H13C H 0.6005 0.2945 -0.2348
H14B H 1.2544 0.6663 0.6529
H14A H 1.4119 0.7456 0.6529
H14E H 0.6663 0.2544 -0.1529
H14D H 0.7456 0.4119 -0.1529
H14C H 0.5881 0.3337 -0.1529
F1E F 1.06098(17) 0.31240(25) -0.2551(3)
F1B F 1.31240(25) 1.06098(17) 0.7551(3)
F1C F 1.25142(19) 0.93902(17) -0.2551(3)
F1A F 1.74858(19) 0.68760(25) 0.7551(3)
F1D F 1.68760(25) 0.74858(19) -0.2551(3)
C13E C 1.09621(16) 0.46745(22) -0.0065(2)
C13B C 1.46745(22) 1.09621(16) 0.5065(2)
C13C C 1.37124(15) 0.90379(16) -0.0065(2)
C13A C 1.62876(15) 0.53255(22) 0.5065(2)
C13D C 1.53255(22) 0.62876(15) -0.0065(2)
H15E H 1.1071 0.5074 -0.0371
H15B H 1.5074 1.1071 0.5371
H15C H 1.4003 0.8929 -0.0371
H15A H 1.5997 0.4926 0.5371
H15D H 1.4926 0.5997 -0.0371
H16E H 1.0510 0.4424 -0.0042
H16B H 1.4424 1.0510 0.5042
H16C H 1.3914 0.9490 -0.0042
H16A H 1.6086 0.5576 0.5042
H16D H 1.5576 0.6086 -0.0042
C14E C 1.1209(2) 0.4355(3) -0.0726(4)
C14B C 1.4355(3) 1.1209(2) 0.5726(4)
C14C C 1.3146(2) 0.8791(2) -0.0726(4)
C14A C 1.6854(2) 0.5645(3) 0.5726(4)
C14D C 1.5645(3) 0.6854(2) -0.0726(4)
C15E C 1.0791(2) 0.3876(3) -0.1330(4)
C15B C 1.3876(3) 1.0791(2) 0.6330(4)
C15C C 1.3085(2) 0.9209(2) -0.1330(4)
C15A C 1.6915(2) 0.6124(3) 0.6330(4)
C15D C 1.6124(3) 0.6915(2) -0.1330(4)
H17E H 1.0373 0.3771 -0.1335
H17B H 1.3771 1.0373 0.6335
H17C H 1.3398 0.9627 -0.1335
H17A H 1.6602 0.6229 0.6335
H17D H 1.6229 0.6602 -0.1335
C16E C 1.0985(2) 0.3552(3) -0.1925(3)
C16B C 1.3552(3) 1.0985(2) 0.6925(3)
C16C C 1.2567(2) 0.9015(2) -0.1925(3)
C16A C 1.7433(2) 0.6448(3) 0.6925(3)
C16D C 1.6448(3) 0.7433(2) -0.1925(3)
C17E C 1.1597(3) 0.3706(4) -0.1918(4)
C17B C 1.3706(4) 1.1597(3) 0.6918(4)
C17C C 1.2109(2) 0.8403(3) -0.1918(4)
C17A C 1.7891(2) 0.6294(4) 0.6918(4)
C17D C 1.6294(4) 0.7891(2) -0.1918(4)
H18E H 1.1729 0.3483 -0.2325
H18B H 1.3483 1.1729 0.7325
H18C H 1.1754 0.8271 -0.2325
H18A H 1.8246 0.6517 0.7325
H18D H 1.6517 0.8246 -0.2325
C18E C 1.2015(2) 0.4184(3) -0.1315(5)
C18B C 1.4184(3) 1.2015(2) 0.6315(5)
C18C C 1.2169(2) 0.7985(2) -0.1315(5)
C18A C 1.7831(2) 0.5816(3) 0.6315(5)
C18D C 1.5816(3) 0.7831(2) -0.1315(5)
H19E H 1.2433 0.4289 -0.1310
H19B H 1.4289 1.2433 0.6310
H19C H 1.1856 0.7567 -0.1310
H19A H 1.8144 0.5711 0.6310
H19D H 1.5711 0.8144 -0.1310
C19E C 1.1821(2) 0.4509(4) -0.0719(5)
C19B C 1.4509(4) 1.1821(2) 0.5719(5)
C19C C 1.2688(3) 0.8179(2) -0.0719(5)
C19A C 1.7312(3) 0.5491(4) 0.5719(5)
C19D C 1.5491(4) 0.7312(3) -0.0719(5)
H20E H 1.2106 0.4835 -0.0307
H20B H 1.4835 1.2106 0.5307
H20C H 1.2729 0.7894 -0.0307
H20A H 1.7271 0.5165 0.5307
H20D H 1.5165 0.7271 -0.0307
N1E N 1.04390(10) 0.37960(15) 0.17314(18)
N1B N 1.37960(15) 1.04390(10) 0.32686(18)
N1C N 1.33570(11) 0.95610(10) 0.17314(18)
N1A N 1.66430(11) 0.62040(15) 0.32686(18)
N1D N 1.62040(15) 0.66430(11) 0.17314(18)
H21E H 1.0241 0.3656 0.1114
H21B H 1.3656 1.0241 0.3886
H21C H 1.3415 0.9759 0.1114
H21A H 1.6585 0.6344 0.3886
H21D H 1.6344 0.6585 0.1114
N2E N 1.12017(11) 0.47746(16) 0.09688(18)
N2B N 1.47746(16) 1.12017(11) 0.40312(18)
N2C N 1.35729(12) 0.87983(11) 0.09688(18)
N2A N 1.64271(12) 0.52254(16) 0.40312(18)
N2D N 1.52254(16) 0.64271(12) 0.09688(18)
N3E N 1.04416(11) 0.49975(16) 0.17258(17)
N3B N 1.49975(16) 1.04416(11) 0.32742(17)
N3C N 1.45559(11) 0.95584(11) 0.17258(17)
N3A N 1.54441(11) 0.50025(16) 0.32742(17)
N3D N 1.50025(16) 0.54441(11) 0.17258(17)
H22E H 1.0247 0.4939 0.1105
H22B H 1.4939 1.0247 0.3895
H22C H 1.4692 0.9753 0.1105
H22A H 1.5308 0.5061 0.3895
H22D H 1.5061 0.5308 0.1105
N4E N 0.6667 0.3333 -0.1300(3)
Ni1B Ni 1.41728(2) 1.0000 0.2500
Ni1A Ni 1.58272(2) 0.58272(2) 0.2500
Ni1A_2 Ni 0.58272(2) 0.58272(2) 0.2500
Ni1B_2 Ni 0.41728(2) 0.0000 0.2500
O1B O 1.38714(13) 0.92828(9) 0.35835(14)
O1A O 1.54114(10) 0.61286(13) 0.35835(14)
O1E O 0.92828(9) 0.38714(13) 0.14165(14)
O1D O 0.61286(13) 0.54114(10) 0.14165(14)
O1C O 0.45886(10) 0.07172(9) 0.14165(14)
O1C_2 O 1.45886(10) 1.07172(9) 0.14165(14)
O1D_2 O 1.61286(13) 0.54114(10) 0.14165(14)
O2B O 1.34485(19) 0.95469(12) 0.4830(2)
O2A O 1.60984(15) 0.65515(19) 0.4830(2)
O2E O 0.95469(12) 0.34485(19) 0.0170(2)
O2D O 0.65515(19) 0.60984(15) 0.0170(2)
O2C O 0.39016(15) 0.04531(12) 0.0170(2)
N5 N 0.9324(3) 0.1736(3) 0.9372(5)
O3 O 0.8615(3) 0.1001(3) 0.8351(5)
C20 C 0.9179(4) 0.1355(4) 0.8615(6)
H23 H 0.9494 0.1338 0.8250
C21 C 0.9934(4) 0.2188(4) 0.9639(7)
H24 H 0.9983 0.2597 0.9561
H25 H 1.0225 0.2150 0.9197
H26 H 1.0013 0.2128 1.0343
C22 C 0.8835(4) 0.1760(5) 0.9879(7)
H27 H 0.8443 0.1450 0.9593
H28 H 0.8882 0.2167 0.9790
H29 H 0.8846 0.1679 1.0601
O4 O 0.8507(10) 0.0301(9) 0.6961(13)
C23? C 0.9191(5) 0.2634(6) 0.6929(9)
C24? C 0.9353(5) 0.3121(6) 0.6271(10)
C25? C 0.90379(16) 0.37124(15) 0.5065(2)
C26? C 0.8908(5) 0.3145(5) 0.5688(10)
C27? C 0.8300(5) 0.2683(6) 0.5762(9)
C28? C 0.8138(5) 0.2196(5) 0.6420(9)
C29? C 0.8583(5) 0.2171(5) 0.7003(9)
F2? F 0.7556(3) 0.1790(4) 0.6479(6)
H30? H 0.9496 0.2617 0.7327
H31? H 0.9769 0.3437 0.6220
H32? H 0.8856 0.3930 0.5416
H33? H 0.9486 0.3993 0.5036
H34? H 0.7995 0.2700 0.5364
H35? H 0.8472 0.1838 0.7452
O5? O 0.937(2) 0.021(2) 0.550(3)
loop_
_geom_bond_atom_site_label_1
_geom_bond_atom_site_label_2
_geom_bond_site_symmetry_1
_geom_bond_site_symmetry_2
C1 H1 1_555 1_555
H2 C1 1_555 1_555
C2 H3 1_555 1_555
H4 C2 1_555 1_555
C3 H5 1_555 1_555
H6 C3 1_555 1_555
C4 H7 1_555 1_555
H8 C4 1_555 1_555
C5 C6 1_555 1_555
C6 C7 1_555 1_555
C7 H9 1_555 1_555
C8 C7 1_555 1_555
H10 C8 1_555 1_555
C9 C8 1_555 1_555
C10 C9 1_555 1_555
H11 C10 1_555 1_555
C11 C6 1_555 1_555
H12 C11 1_555 1_555
C12 C9 1_555 1_555
H13 C12 1_555 1_555
H14 C12 1_555 1_555
F1 C16 1_555 1_555
C13 H15 1_555 1_555
H16 C13 1_555 1_555
C14 C13 1_555 1_555
C15 C14 1_555 1_555
H17 C15 1_555 1_555
C16 C15 1_555 1_555
C17 C16 1_555 1_555
H18 C17 1_555 1_555
C18 C17 1_555 1_555
H19 C18 1_555 1_555
C19 C14 1_555 1_555
H20 C19 1_555 1_555
N1 C1 1_555 1_555
H21 N1 1_555 1_555
N2 C1 1_555 1_555
N3 C2 1_555 1_555
H22 N3 1_555 1_555
N4 C12 1_555 1_555
Ni1 N1 1_555 1_555
O1 C5 1_555 1_555
O2 C5 1_555 1_555
N5 C20 1_555 1_555
O3 C20 1_555 1_555
C20 H23 1_555 1_555
C21 N5 1_555 1_555
H24 C21 1_555 1_555
H25 C21 1_555 1_555
H26 C21 1_555 1_555
C22 N5 1_555 1_555
H27 C22 1_555 1_555
H28 C22 1_555 1_555
H29 C22 1_555 1_555
C1E H1E 1_555 1_555
C1B H1B 1_555 1_555
C1C H1C 1_555 1_555
C1A H1A 1_555 1_555
C1D H1D 1_555 1_555
H2E C1E 1_555 1_555
H2B C1B 1_555 1_555
H2C C1C 1_555 1_555
H2A C1A 1_555 1_555
H2D C1D 1_555 1_555
C2E H3E 1_555 1_555
C2B H3B 1_555 1_555
C2C H3C 1_555 1_555
C2A H3A 1_555 1_555
C2D H3D 1_555 1_555
H4E C2E 1_555 1_555
H4B C2B 1_555 1_555
H4C C2C 1_555 1_555
H4A C2A 1_555 1_555
H4D C2D 1_555 1_555
C3E C3 1_555 1_555
C3B C3C 1_555 1_555
C3C H5C 1_555 1_555
C3A C3D 1_555 1_555
C3D H5D 1_555 1_555
H5E C3E 1_555 1_555
H5B C3B 1_555 1_555
H5A C3A 1_555 1_555
H6E C3E 1_555 1_555
H6B C3B 1_555 1_555
H6C C3C 1_555 1_555
H6A C3A 1_555 1_555
H6D C3D 1_555 1_555
C4E C4 1_555 1_555
C4B C4C 1_555 1_555
C4C H7C 1_555 1_555
C4A C4D 1_555 1_555
C4D H7D 1_555 1_555
H7E C4E 1_555 1_555
H7B C4B 1_555 1_555
H7A C4A 1_555 1_555
H8E C4E 1_555 1_555
H8B C4B 1_555 1_555
H8C C4C 1_555 1_555
H8A C4A 1_555 1_555
H8D C4D 1_555 1_555
C5B C6B 1_555 1_555
C5A C6A 1_555 1_555
C5E C6E 1_555 1_555
C5D C6D 1_555 1_555
C5C C6C 1_555 1_555
C6B C7B 1_555 1_555
C6A C7A 1_555 1_555
C6E C7E 1_555 1_555
C6D C7D 1_555 1_555
C6C C7C 1_555 1_555
C7B H9B 1_555 1_555
C7A H9A 1_555 1_555
C7E H9E 1_555 1_555
C7D H9D 1_555 1_555
C7C H9C 1_555 1_555
C8B C7B 1_555 1_555
C8A C7A 1_555 1_555
C8E C7E 1_555 1_555
C8D C7D 1_555 1_555
C8C C7C 1_555 1_555
H10B C8B 1_555 1_555
H10A C8A 1_555 1_555
H10E C8E 1_555 1_555
H10D C8D 1_555 1_555
H10C C8C 1_555 1_555
C9B C8B 1_555 1_555
C9A C8A 1_555 1_555
C9E C8E 1_555 1_555
C9D C8D 1_555 1_555
C9C C8C 1_555 1_555
C10B C9B 1_555 1_555
C10A C9A 1_555 1_555
C10E C9E 1_555 1_555
C10D C9D 1_555 1_555
C10C C9C 1_555 1_555
H11B C10B 1_555 1_555
H11A C10A 1_555 1_555
H11E C10E 1_555 1_555
H11D C10D 1_555 1_555
H11C C10C 1_555 1_555
C11B C6B 1_555 1_555
C11A C6A 1_555 1_555
C11E C6E 1_555 1_555
C11D C6D 1_555 1_555
C11C C6C 1_555 1_555
H12B C11B 1_555 1_555
H12A C11A 1_555 1_555
H12E C11E 1_555 1_555
H12D C11D 1_555 1_555
H12C C11C 1_555 1_555
C12B N4 1_555 1_555
C12A N4 1_555 1_555
C12E C9E 1_555 1_555
C12D C9D 1_555 1_555
C12C C9C 1_555 1_555
H13B C12B 1_555 1_555
H13A C12A 1_555 1_555
H13E C12E 1_555 1_555
H13D C12D 1_555 1_555
H13C C12C 1_555 1_555
H14B C12B 1_555 1_555
H14A C12A 1_555 1_555
H14E C12E 1_555 1_555
H14D C12D 1_555 1_555
H14C C12C 1_555 1_555
F1E C16E 1_555 1_555
F1B C16B 1_555 1_555
F1C C16C 1_555 1_555
F1A C16A 1_555 1_555
F1D C16D 1_555 1_555
C13E H15E 1_555 1_555
C13B H15B 1_555 1_555
C13C H15C 1_555 1_555
C13A H15A 1_555 1_555
C13D H15D 1_555 1_555
H16E C13E 1_555 1_555
H16B C13B 1_555 1_555
H16C C13C 1_555 1_555
H16A C13A 1_555 1_555
H16D C13D 1_555 1_555
C14E C13E 1_555 1_555
C14B C13B 1_555 1_555
C14C C13C 1_555 1_555
C14A C13A 1_555 1_555
C14D C13D 1_555 1_555
C15E C14E 1_555 1_555
C15B C14B 1_555 1_555
C15C C14C 1_555 1_555
C15A C14A 1_555 1_555
C15D C14D 1_555 1_555
H17E C15E 1_555 1_555
H17B C15B 1_555 1_555
H17C C15C 1_555 1_555
H17A C15A 1_555 1_555
H17D C15D 1_555 1_555
C16E C15E 1_555 1_555
C16B C15B 1_555 1_555
C16C C15C 1_555 1_555
C16A C15A 1_555 1_555
C16D C15D 1_555 1_555
C17E C16E 1_555 1_555
C17B C16B 1_555 1_555
C17C C16C 1_555 1_555
C17A C16A 1_555 1_555
C17D C16D 1_555 1_555
H18E C17E 1_555 1_555
H18B C17B 1_555 1_555
H18C C17C 1_555 1_555
H18A C17A 1_555 1_555
H18D C17D 1_555 1_555
C18E C17E 1_555 1_555
C18B C17B 1_555 1_555
C18C C17C 1_555 1_555
C18A C17A 1_555 1_555
C18D C17D 1_555 1_555
H19E C18E 1_555 1_555
H19B C18B 1_555 1_555
H19C C18C 1_555 1_555
H19A C18A 1_555 1_555
H19D C18D 1_555 1_555
C19E C14E 1_555 1_555
C19B C14B 1_555 1_555
C19C C14C 1_555 1_555
C19A C14A 1_555 1_555
C19D C14D 1_555 1_555
H20E C19E 1_555 1_555
H20B C19B 1_555 1_555
H20C C19C 1_555 1_555
H20A C19A 1_555 1_555
H20D C19D 1_555 1_555
N1E Ni1 1_555 1_555
N1B C1B 1_555 1_555
N1C C1C 1_555 1_555
N1A C1A 1_555 1_555
N1D C1D 1_555 1_555
H21E N1E 1_555 1_555
H21B N1B 1_555 1_555
H21C N1C 1_555 1_555
H21A N1A 1_555 1_555
H21D N1D 1_555 1_555
N2E C1E 1_555 1_555
N2B C1B 1_555 1_555
N2C C1C 1_555 1_555
N2A C1A 1_555 1_555
N2D C1D 1_555 1_555
N3E Ni1 1_555 1_555
N3B C2B 1_555 1_555
N3C C2C 1_555 1_555
N3A C2A 1_555 1_555
N3D C2D 1_555 1_555
H22E N3E 1_555 1_555
H22B N3B 1_555 1_555
H22C N3C 1_555 1_555
H22A N3A 1_555 1_555
H22D N3D 1_555 1_555
N4E C12E 1_555 1_555
Ni1B N1B 1_555 1_555
Ni1A N1A 1_555 1_555
Ni1A_2 O1D 1_555 1_555
Ni1B_2 O1C 1_555 1_555
O1B C5B 1_555 1_555
O1A C5A 1_555 1_555
O1E Ni1 1_555 1_555
O1D C5D 1_555 1_555
O1C C5C 1_555 1_555
O1C_2 Ni1B 1_555 1_555
O1D_2 Ni1A 1_555 1_555
O2B C5B 1_555 1_555
O2A C5A 1_555 1_555
O2E C5E 1_555 1_555
O2D C5D 1_555 1_555
O2C C5C 1_555 1_555
C2 N2 1_555 1_555
C3 N3 1_555 1_555
C4 N1 1_555 1_555
C10 C11 1_555 1_555
C13 N2 1_555 1_555
C18 C19 1_555 1_555
N3 Ni1 1_555 1_555
Ni1 O1 1_555 1_555
C1E N1E 1_555 1_555
C2E N2E 1_555 1_555
C2E N3E 1_555 1_555
C2B N2B 1_555 1_555
C2C N2C 1_555 1_555
C2A N2A 1_555 1_555
C2D N2D 1_555 1_555
C3E N3E 1_555 1_555
C3B N3B 1_555 1_555
C3C N3C 1_555 1_555
C3A N3A 1_555 1_555
C3D N3D 1_555 1_555
C4E N1E 1_555 1_555
C4B N1B 1_555 1_555
C4C N1C 1_555 1_555
C4A N1A 1_555 1_555
C4D N1D 1_555 1_555
C5E O1E 1_555 1_555
C9B C12B 1_555 1_555
C9A C12A 1_555 1_555
C10B C11B 1_555 1_555
C10A C11A 1_555 1_555
C10E C11E 1_555 1_555
C10D C11D 1_555 1_555
C10C C11C 1_555 1_555
C12D N4E 1_555 1_555
C12C N4E 1_555 1_555
C13E N2E 1_555 1_555
C13B N2B 1_555 1_555
C13C N2C 1_555 1_555
C13A N2A 1_555 1_555
C13D N2D 1_555 1_555
C18E C19E 1_555 1_555
C18B C19B 1_555 1_555
C18C C19C 1_555 1_555
C18A C19A 1_555 1_555
C18D C19D 1_555 1_555
N1C Ni1B 1_555 1_555
N1D Ni1A 1_555 1_555
N3B Ni1B 1_555 1_555
N3C Ni1B 1_555 1_555
N3A Ni1A 1_555 1_555
N3D Ni1A 1_555 1_555
Ni1B O1B 1_555 1_555
Ni1A O1A 1_555 1_555

#END
