
#######################################################################
#
#                 Cambridge Crystallographic Data Centre
#                                CCDC 
#
#######################################################################
#
# If this CIF has been generated from an entry in the Cambridge 
# Structural Database, then it will include bibliographic, chemical, 
# crystal, experimental, refinement or atomic coordinate data resulting 
# from the CCDC's data processing and validation procedures.
#
#######################################################################

data_DAPPIU
_symmetry_cell_setting           monoclinic
_symmetry_space_group_name_H-M   'C c'
_symmetry_Int_Tables_number      9
_space_group_name_Hall           'C -2yc'
loop_
_symmetry_equiv_pos_site_id
_symmetry_equiv_pos_as_xyz
1 x,y,z
2 x,-y,1/2+z
3 1/2+x,1/2+y,z
4 1/2+x,1/2-y,1/2+z
_cell_length_a                   14.384(3)
_cell_length_b                   7.339(3)
_cell_length_c                   21.550(4)
_cell_angle_alpha                90
_cell_angle_beta                 99.62(2)
_cell_angle_gamma                90
_cell_volume                     2242.92
loop_
_atom_site_label
_atom_site_type_symbol
_atom_site_fract_x
_atom_site_fract_y
_atom_site_fract_z
Cu1 Cu 1.02733(6) 0.6817(2) 0.38255(4)
Cu2 Cu 0.95019(5) 0.3185(2) 0.17283(4)
O1 O 1.0535(7) 0.4382(14) 0.3499(4)
O2 O 0.9526(8) 0.7141(16) 0.2974(4)
O3 O 1.0248(9) 0.2844(17) 0.2597(6)
O4 O 0.9236(9) 0.5654(14) 0.2062(5)
O5 O 0.8284(8) 0.1763(18) 0.1978(6)
O6 O 0.7236(7) 0.1101(12) 0.2580(4)
O7 O 0.8118(8) 0.3504(13) 0.2756(4)
O8 O 1.1612(9) 0.8187(16) 0.3560(6)
N1 N 0.7889(6) 0.2121(13) 0.2422(4)
N2 N 1.0797(8) 0.6970(16) 0.5230(5)
N3 N 1.0874(9) 0.610(2) 0.4673(5)
N4 N 0.9634(8) 0.9485(15) 0.4702(5)
N5 N 0.9703(9) 0.9073(19) 0.4093(5)
N6 N 1.0197(10) 0.9428(17) 0.5842(6)
N7 N 1.0033(8) 0.9005(17) 0.6432(5)
N8 N 0.9070(7) 0.7022(16) 0.5352(5)
N9 N 0.8956(7) 0.6068(16) 0.5868(5)
C1 C 1.0188(9) 0.4156(19) 0.2918(6)
C2 C 0.9604(10) 0.574(2) 0.2611(7)
C3 C 1.1455(8) 0.6324(18) 0.5678(6)
H1 H 1.1545 0.6714 0.6094
C4 C 1.1955(10) 0.510(2) 0.5470(6)
H2 H 1.2456 0.4449 0.5695
C5 C 1.1590(10) 0.494(3) 0.4842(7)
H3 H 1.1811 0.4129 0.4569
C6 C 0.9108(11) 1.103(3) 0.4706(8)
H4 H 0.8944 1.1597 0.5059
C7 C 0.8863(14) 1.160(2) 0.4088(8)
H5 H 0.8463 1.2549 0.3936
C8 C 0.9349(12) 1.042(2) 0.3742(7)
H6 H 0.9409 1.0587 0.3322
C9 C 1.0680(9) 1.100(2) 0.5869(6)
H7 H 1.0881 1.1553 0.5526
C10 C 1.0836(11) 1.1678(19) 0.6468(7)
H8 H 1.1101 1.2790 0.6609
C11 C 1.0507(13) 1.033(2) 0.6810(7)
H9 H 1.0594 1.0308 0.7247
C12 C 0.8446(12) 0.646(2) 0.4862(7)
H10 H 0.8397 0.6868 0.4449
C13 C 0.7843(10) 0.507(3) 0.5098(9)
H11 H 0.7335 0.4430 0.4877
C14 C 0.8229(11) 0.496(2) 0.5732(7)
H12 H 0.8006 0.4204 0.6021
B1 B 0.9926(15) 0.8224(10) 0.5321(9)
Cu2A Cu 0.95019(5) 0.6815(2) 0.67283(4)
N7A N 1.0033(8) 0.0995(17) 0.1432(5)
N9A N 0.8956(7) 0.3932(16) 0.0868(5)
O9 O 0.7575(12) -0.193(3) 0.2091(7)
O10 O 1.2292(13) 1.219(3) 0.3383(9)
loop_
_geom_bond_atom_site_label_1
_geom_bond_atom_site_label_2
_geom_bond_site_symmetry_1
_geom_bond_site_symmetry_2
Cu1 O1 1_555 1_555
Cu2 O3 1_555 1_555
O1 C1 1_555 1_555
O2 Cu1 1_555 1_555
O3 C1 1_555 1_555
O4 Cu2 1_555 1_555
O5 Cu2 1_555 1_555
O6 N1 1_555 1_555
O7 N1 1_555 1_555
O8 Cu1 1_555 1_555
N1 O5 1_555 1_555
N2 N3 1_555 1_555
N3 Cu1 1_555 1_555
N4 N5 1_555 1_555
N5 Cu1 1_555 1_555
N6 N7 1_555 1_555
N7 C11 1_555 1_555
N8 N9 1_555 1_555
N9 C14 1_555 1_555
C1 C2 1_555 1_555
C2 O2 1_555 1_555
C3 N2 1_555 1_555
H1 C3 1_555 1_555
C4 C3 1_555 1_555
H2 C4 1_555 1_555
C5 N3 1_555 1_555
H3 C5 1_555 1_555
C6 N4 1_555 1_555
H4 C6 1_555 1_555
C7 C6 1_555 1_555
H5 C7 1_555 1_555
C8 N5 1_555 1_555
H6 C8 1_555 1_555
C9 N6 1_555 1_555
H7 C9 1_555 1_555
C10 C9 1_555 1_555
H8 C10 1_555 1_555
C11 C10 1_555 1_555
H9 C11 1_555 1_555
C12 N8 1_555 1_555
H10 C12 1_555 1_555
C13 C12 1_555 1_555
H11 C13 1_555 1_555
C14 C13 1_555 1_555
H12 C14 1_555 1_555
B1 N2 1_555 1_555
Cu2A N7 1_555 1_555
N7A Cu2 1_555 1_555
N9A Cu2 1_555 1_555
O4 C2 1_555 1_555
N4 B1 1_555 1_555
N6 B1 1_555 1_555
N8 B1 1_555 1_555
N9 Cu2A 1_555 1_555
C4 C5 1_555 1_555
C7 C8 1_555 1_555

#END
