
#######################################################################
#
#                 Cambridge Crystallographic Data Centre
#                                CCDC 
#
#######################################################################
#
# If this CIF has been generated from an entry in the Cambridge 
# Structural Database, then it will include bibliographic, chemical, 
# crystal, experimental, refinement or atomic coordinate data resulting 
# from the CCDC's data processing and validation procedures.
#
#######################################################################

data_DAPPUG
_symmetry_cell_setting           monoclinic
_symmetry_space_group_name_H-M   'P 21/c'
_symmetry_Int_Tables_number      14
_space_group_name_Hall           '-P 2ybc'
loop_
_symmetry_equiv_pos_site_id
_symmetry_equiv_pos_as_xyz
1 x,y,z
2 -x,1/2+y,1/2-z
3 -x,-y,-z
4 x,1/2-y,1/2+z
_cell_length_a                   15.8848(17)
_cell_length_b                   7.5365(8)
_cell_length_c                   19.926(2)
_cell_angle_alpha                90
_cell_angle_beta                 108.434(2)
_cell_angle_gamma                90
_cell_volume                     2263.06
loop_
_atom_site_label
_atom_site_type_symbol
_atom_site_fract_x
_atom_site_fract_y
_atom_site_fract_z
Cu1 Cu 0.67951(3) 0.55550(6) 0.543747(19)
Cu2 Cu 0.80502(3) 0.83174(6) 0.391542(18)
O1 O 0.82047(17) 1.0359(4) 0.45737(13)
O2 O 0.64878(18) 0.2545(4) 0.58331(14)
O3 O 0.7157(3) 0.0547(4) 0.54299(18)
O4 O 0.72052(19) 0.3269(3) 0.51269(12)
O5 O 0.70655(16) 0.7009(4) 0.44518(11)
O6 O 0.58805(16) 0.5675(4) 0.44711(11)
O7 O 0.59708(19) 0.6665(5) 0.34823(12)
O8 O 0.9735(2) 0.8752(5) 0.41891(18)
O9 O 0.89873(18) 0.7101(4) 0.46824(13)
O10 O 1.0420(2) 0.7305(5) 0.5120(2)
N1 N 0.6942(2) 0.2089(5) 0.54689(16)
N2 N 0.6304(2) 0.6470(4) 0.41133(14)
N3 N 0.9740(2) 0.7731(5) 0.46642(19)
N4 N 0.79634(17) 0.6445(4) 0.68717(13)
N5 N 0.78725(19) 0.5668(4) 0.62380(14)
N6 N 0.64220(18) 0.7906(4) 0.64992(13)
N7 N 0.61462(18) 0.7235(4) 0.58193(13)
N8 N 0.68179(17) 0.5799(4) 0.74930(12)
N9 N 0.72060(17) 0.5279(4) 0.81767(13)
N10 N 0.75885(18) 0.8806(3) 0.75865(13)
N11 N 0.79967(18) 0.8736(4) 0.82959(13)
C1 C 0.8818(2) 0.6338(6) 0.7269(2)
H1 H 0.9053 0.6767 0.7728
C2 C 0.9290(2) 0.5500(5) 0.68955(17)
H2 H 0.9893 0.5242 0.7042
C3 C 0.8669(2) 0.5125(5) 0.62547(17)
H3 H 0.8793 0.4562 0.5881
C4 C 0.5772(2) 0.8977(5) 0.65695(18)
H4 H 0.5784 0.9574 0.6981
C5 C 0.5103(3) 0.9044(5) 0.59523(19)
H5 H 0.4580 0.9693 0.5853
C6 C 0.5360(2) 0.7954(5) 0.55021(17)
H6 H 0.5025 0.7745 0.5034
C7 C 0.6106(2) 0.4777(5) 0.71955(17)
H7 H 0.5729 0.4875 0.6733
C8 C 0.6024(3) 0.3574(5) 0.76797(18)
H8 H 0.5593 0.2701 0.7619
C9 C 0.6723(2) 0.3932(5) 0.82805(18)
H9 H 0.6841 0.3311 0.8704
C10 C 0.7759(3) 1.0397(5) 0.73564(19)
H10 H 0.7562 1.0772 0.6888
C11 C 0.8262(3) 1.1377(5) 0.7908(2)
H11 H 0.8471 1.2527 0.7899
C12 C 0.83929(17) 1.0277(4) 0.84837(13)
H12 H 0.8718 1.0582 0.8945
B1 B 0.71991(17) 0.7214(4) 0.71126(13)
Cu2C Cu 0.80502(3) 0.66826(6) 0.891542(18)
N9C N 0.72060(17) 0.9721(4) 0.31767(13)
N11C N 0.79967(18) 0.6264(4) 0.32959(13)
loop_
_geom_bond_atom_site_label_1
_geom_bond_atom_site_label_2
_geom_bond_site_symmetry_1
_geom_bond_site_symmetry_2
Cu1 O2 1_555 1_555
Cu2 O1 1_555 1_555
O2 N1 1_555 1_555
O3 N1 1_555 1_555
O4 Cu1 1_555 1_555
O5 Cu1 1_555 1_555
O6 Cu1 1_555 1_555
O7 N2 1_555 1_555
O8 N3 1_555 1_555
O9 Cu2 1_555 1_555
O10 N3 1_555 1_555
N1 O4 1_555 1_555
N2 O5 1_555 1_555
N3 O9 1_555 1_555
N4 N5 1_555 1_555
N5 Cu1 1_555 1_555
N6 N7 1_555 1_555
N7 Cu1 1_555 1_555
N8 N9 1_555 1_555
N9 C9 1_555 1_555
N10 N11 1_555 1_555
N11 C12 1_555 1_555
C1 N4 1_555 1_555
H1 C1 1_555 1_555
C2 C1 1_555 1_555
H2 C2 1_555 1_555
C3 N5 1_555 1_555
H3 C3 1_555 1_555
C4 N6 1_555 1_555
H4 C4 1_555 1_555
C5 C4 1_555 1_555
H5 C5 1_555 1_555
C6 N7 1_555 1_555
H6 C6 1_555 1_555
C7 N8 1_555 1_555
H7 C7 1_555 1_555
C8 C7 1_555 1_555
H8 C8 1_555 1_555
C9 C8 1_555 1_555
H9 C9 1_555 1_555
C10 N10 1_555 1_555
H10 C10 1_555 1_555
C11 C10 1_555 1_555
H11 C11 1_555 1_555
C12 C11 1_555 1_555
H12 C12 1_555 1_555
B1 N4 1_555 1_555
Cu2C N9 1_555 1_555
N9C Cu2 1_555 1_555
N11C Cu2 1_555 1_555
Cu2 O5 1_555 1_555
O6 N2 1_555 1_555
N6 B1 1_555 1_555
N8 B1 1_555 1_555
N10 B1 1_555 1_555
N11 Cu2C 1_555 1_555
C2 C3 1_555 1_555
C5 C6 1_555 1_555

#END
