
#######################################################################
#
#                 Cambridge Crystallographic Data Centre
#                                CCDC 
#
#######################################################################
#
# If this CIF has been generated from an entry in the Cambridge 
# Structural Database, then it will include bibliographic, chemical, 
# crystal, experimental, refinement or atomic coordinate data resulting 
# from the CCDC's data processing and validation procedures.
#
#######################################################################

data_DAPVOG
_symmetry_cell_setting           monoclinic
_symmetry_space_group_name_H-M   'P 21/n'
_symmetry_Int_Tables_number      14
_space_group_name_Hall           '-P 2yn'
loop_
_symmetry_equiv_pos_site_id
_symmetry_equiv_pos_as_xyz
1 x,y,z
2 1/2-x,1/2+y,1/2-z
3 -x,-y,-z
4 1/2+x,1/2-y,1/2+z
_cell_length_a                   13.850(5)
_cell_length_b                   18.677(7)
_cell_length_c                   15.719(6)
_cell_angle_alpha                90
_cell_angle_beta                 99.893(6)
_cell_angle_gamma                90
_cell_volume                     4005.67
loop_
_atom_site_label
_atom_site_type_symbol
_atom_site_fract_x
_atom_site_fract_y
_atom_site_fract_z
Ag1 Ag 0.33080(2) 0.100063(16) 0.531439(19)
N1 N 0.4223(3) 0.12458(19) 0.6668(2)
N2 N 0.4865(3) 0.10116(17) 0.8020(2)
P1 P 0.36802(7) 0.18617(5) 0.42371(6)
P2 P 0.69761(8) 0.03037(5) 0.47726(7)
C1 C 0.4360(4) 0.0760(3) 0.7282(3)
H1 H 0.4129 0.0292 0.7210
C2 C 0.4668(4) 0.1825(3) 0.7030(3)
H2 H 0.4698 0.2260 0.6748
C3 C 0.5067(4) 0.1704(3) 0.7855(3)
H3 H 0.5413 0.2030 0.8239
C4 C 0.5083(4) 0.0645(3) 0.8862(3)
H4 H 0.4621 0.0802 0.9223
H5 H 0.5736 0.0776 0.9149
C5 C 0.5022(4) -0.0155(2) 0.8761(3)
C6 C 0.4124(4) -0.0500(3) 0.8648(3)
H6 H 0.3556 -0.0237 0.8664
C7 C 0.4063(4) -0.1231(3) 0.8510(3)
H7 H 0.3451 -0.1450 0.8399
C8 C 0.4896(3) -0.1640(2) 0.8534(3)
C9 C 0.5779(3) -0.1296(3) 0.8666(3)
H8 H 0.6350 -0.1562 0.8680
C10 C 0.5847(3) -0.0566(3) 0.8779(3)
H9 H 0.6460 -0.0349 0.8869
C11 C 0.4815(4) -0.2424(3) 0.8373(3)
H10 H 0.4445 -0.2501 0.7798
H11 H 0.5467 -0.2616 0.8383
C12 C 0.4810(3) 0.1763(2) 0.3780(3)
H12 H 0.4652 0.1860 0.3165
H13 H 0.5268 0.2130 0.4032
C13 C 0.5330(3) 0.1043(2) 0.3900(3)
H14 H 0.4842 0.0666 0.3831
H15 H 0.5724 0.0985 0.3451
C14 C 0.5972(4) 0.0957(3) 0.4752(3)
H16 H 0.5571 0.0811 0.5171
H17 H 0.6255 0.1419 0.4934
C15 C 0.2764(3) 0.1849(2) 0.3255(2)
C16 C 0.2688(4) 0.2407(3) 0.2664(3)
H18 H 0.3074 0.2814 0.2786
C17 C 0.2039(4) 0.2358(3) 0.1896(3)
H19 H 0.1994 0.2733 0.1502
C18 C 0.1467(4) 0.1773(3) 0.1703(3)
H20 H 0.1031 0.1748 0.1184
C19 C 0.1535(5) 0.1214(4) 0.2283(4)
H21 H 0.112(3) 0.084(2) 0.219(3)
C20 C 0.2175(4) 0.1261(3) 0.3056(3)
H22 H 0.2208 0.0887 0.3451
C21 C 0.3670(3) 0.2798(2) 0.4567(2)
C22 C 0.2823(4) 0.3076(3) 0.4802(4)
H23 H 0.2276 0.2784 0.4785
C23 C 0.2783(5) 0.3787(3) 0.5062(4)
H24 H 0.2205 0.3967 0.5204
C24 C 0.3570(5) 0.4215(3) 0.5110(4)
H25 H 0.3548 0.4685 0.5300
C25 C 0.4399(5) 0.3950(3) 0.4877(5)
H26 H 0.4938 0.4248 0.4886
C26 C 0.4458(4) 0.3245(3) 0.4626(4)
H27 H 0.5045 0.3072 0.4495
C27 C 0.7745(4) 0.0534(2) 0.5797(3)
C28 C 0.7339(5) 0.0618(3) 0.6534(4)
H28 H 0.6663 0.0593 0.6502
C29 C 0.7948(7) 0.0742(3) 0.7337(4)
H29 H 0.7670 0.0812 0.7828
C30 C 0.8927(9) 0.0759(4) 0.7395(5)
H30 H 0.9326 0.0829 0.7927
C31 C 0.9334(6) 0.0674(4) 0.6668(6)
H31 H 1.0011 0.0694 0.6708
C32 C 0.8750(4) 0.0557(3) 0.5877(4)
H32 H 0.9040 0.0493 0.5390
C33 C 0.7653(3) 0.0649(2) 0.3960(3)
C34 C 0.7926(3) 0.0195(2) 0.3363(3)
H33 H 0.7770 -0.0289 0.3384
C35 C 0.8426(4) 0.0432(3) 0.2725(4)
H34 H 0.8613 0.0111 0.2331
C36 C 0.8642(4) 0.1146(3) 0.2686(4)
H35 H 0.8972 0.1313 0.2258
C37 C 0.8374(4) 0.1615(3) 0.3272(3)
H36 H 0.8522 0.2099 0.3241
C38 C 0.7880(4) 0.1370(2) 0.3912(3)
H37 H 0.7702 0.1690 0.4311
N3 N 0.4347(3) -0.28247(19) 0.8988(2)
N4 N 0.3290(3) -0.34936(19) 0.9522(2)
C39 C 0.3481(3) -0.3160(2) 0.8841(3)
H38 H 0.3060 -0.3155 0.8312
C40 C 0.4738(3) -0.2953(3) 0.9831(3)
H39 H 0.5338 -0.2791 1.0127
C41 C 0.4090(3) -0.3357(3) 1.0147(3)
H40 H 0.4169 -0.3523 1.0712
Ag1B Ag 0.66920(2) -0.100063(16) 0.468561(19)
Ag1A Ag 0.16920(2) -0.399937(16) 0.968561(19)
P2B P 0.30239(8) -0.03037(5) 0.52274(7)
N4A N 0.1710(3) 0.15064(19) 0.5478(2)
P3 P 0.21974(9) 0.14371(7) -0.10331(8)
F1 F 0.2631(3) 0.0742(3) -0.0584(4)
F2 F 0.2554(4) 0.1172(3) -0.1866(3)
F3 F 0.1187(3) 0.1059(2) -0.1350(3)
F4 F 0.3222(2) 0.18073(19) -0.0719(2)
F5 F 0.1840(3) 0.1738(4) -0.0252(3)
F6 F 0.1769(4) 0.2112(2) -0.1522(4)
loop_
_geom_bond_atom_site_label_1
_geom_bond_atom_site_label_2
_geom_bond_site_symmetry_1
_geom_bond_site_symmetry_2
Ag1 N1 1_555 1_555
N1 C1 1_555 1_555
N2 C1 1_555 1_555
P1 Ag1 1_555 1_555
P2 C14 1_555 1_555
P3 F1 1_555 1_555
C1 H1 1_555 1_555
C2 N1 1_555 1_555
H2 C2 1_555 1_555
C3 N2 1_555 1_555
H3 C3 1_555 1_555
C4 N2 1_555 1_555
H4 C4 1_555 1_555
H5 C4 1_555 1_555
C5 C4 1_555 1_555
C6 C5 1_555 1_555
H6 C6 1_555 1_555
C7 C6 1_555 1_555
H7 C7 1_555 1_555
C8 C7 1_555 1_555
C9 C8 1_555 1_555
H8 C9 1_555 1_555
C10 C5 1_555 1_555
H9 C10 1_555 1_555
C11 C8 1_555 1_555
H10 C11 1_555 1_555
H11 C11 1_555 1_555
C12 P1 1_555 1_555
H12 C12 1_555 1_555
H13 C12 1_555 1_555
C13 C12 1_555 1_555
H14 C13 1_555 1_555
H15 C13 1_555 1_555
C14 C13 1_555 1_555
H16 C14 1_555 1_555
H17 C14 1_555 1_555
C15 P1 1_555 1_555
C16 C15 1_555 1_555
H18 C16 1_555 1_555
C17 C16 1_555 1_555
H19 C17 1_555 1_555
C18 C17 1_555 1_555
H20 C18 1_555 1_555
C19 C18 1_555 1_555
H21 C19 1_555 1_555
C20 C15 1_555 1_555
H22 C20 1_555 1_555
C21 P1 1_555 1_555
C22 C21 1_555 1_555
H23 C22 1_555 1_555
C23 C22 1_555 1_555
H24 C23 1_555 1_555
C24 C23 1_555 1_555
H25 C24 1_555 1_555
C25 C24 1_555 1_555
H26 C25 1_555 1_555
C26 C21 1_555 1_555
H27 C26 1_555 1_555
C27 P2 1_555 1_555
C28 C27 1_555 1_555
H28 C28 1_555 1_555
C29 C28 1_555 1_555
H29 C29 1_555 1_555
C30 C29 1_555 1_555
H30 C30 1_555 1_555
C31 C30 1_555 1_555
H31 C31 1_555 1_555
C32 C27 1_555 1_555
H32 C32 1_555 1_555
C33 P2 1_555 1_555
C34 C33 1_555 1_555
H33 C34 1_555 1_555
C35 C34 1_555 1_555
H34 C35 1_555 1_555
C36 C35 1_555 1_555
H35 C36 1_555 1_555
C37 C36 1_555 1_555
H36 C37 1_555 1_555
C38 C33 1_555 1_555
H37 C38 1_555 1_555
F2 P3 1_555 1_555
F3 P3 1_555 1_555
F4 P3 1_555 1_555
F5 P3 1_555 1_555
F6 P3 1_555 1_555
N3 C11 1_555 1_555
N4 C39 1_555 1_555
C39 N3 1_555 1_555
H38 C39 1_555 1_555
C40 N3 1_555 1_555
H39 C40 1_555 1_555
C41 N4 1_555 1_555
H40 C41 1_555 1_555
Ag1B P2 1_555 1_555
Ag1A N4 1_555 1_555
P2B Ag1 1_555 1_555
N4A Ag1 1_555 1_555
C2 C3 1_555 1_555
C9 C10 1_555 1_555
C19 C20 1_555 1_555
C25 C26 1_555 1_555
C31 C32 1_555 1_555
C37 C38 1_555 1_555
C40 C41 1_555 1_555

#END
