
#######################################################################
#
#                 Cambridge Crystallographic Data Centre
#                                CCDC 
#
#######################################################################
#
# If this CIF has been generated from an entry in the Cambridge 
# Structural Database, then it will include bibliographic, chemical, 
# crystal, experimental, refinement or atomic coordinate data resulting 
# from the CCDC's data processing and validation procedures.
#
#######################################################################

data_DAPVUM
_symmetry_cell_setting           monoclinic
_symmetry_space_group_name_H-M   'C 2/c'
_symmetry_Int_Tables_number      15
_space_group_name_Hall           '-C 2yn'
loop_
_symmetry_equiv_pos_site_id
_symmetry_equiv_pos_as_xyz
1 x,y,z
2 1/2+x,1/2+y,z
3 -x,y,1/2-z
4 1/2-x,1/2+y,1/2-z
5 -x,-y,-z
6 1/2-x,1/2-y,-z
7 x,-y,1/2+z
8 1/2+x,1/2-y,1/2+z
_cell_length_a                   27.514(9)
_cell_length_b                   14.252(4)
_cell_length_c                   24.004(7)
_cell_angle_alpha                90
_cell_angle_beta                 113.521(5)
_cell_angle_gamma                90
_cell_volume                     8630.61
loop_
_atom_site_label
_atom_site_type_symbol
_atom_site_fract_x
_atom_site_fract_y
_atom_site_fract_z
P3 P 0.01709(7) 0.72085(12) 0.40704(8)
F1 F 0.0763(3) 0.6993(6) 0.4396(5)
F2 F 0.0151(3) 0.7270(5) 0.4696(2)
F3 F -0.0396(2) 0.7543(6) 0.3816(3)
F4 F 0.0016(4) 0.6214(4) 0.4040(4)
F5 F 0.0204(4) 0.7203(5) 0.3444(3)
F6 F 0.0362(3) 0.8255(4) 0.4098(3)
C41 C 0.4720(4) 0.5091(11) 0.3088(7)
H39 H 0.4653 0.5694 0.3222
H40 H 0.4970 0.4752 0.3427
H41 H 0.4395 0.4744 0.2916
O1 O 0.5000 0.5255(7) 0.2500
C41B C 0.5280(4) 0.5091(11) 0.1912(7)
Ag1 Ag 0.250695(16) 0.78135(2) 0.219206(16)
P1 P 0.25191(5) 0.62858(8) 0.17324(5)
P2 P 0.24666(5) 0.93949(8) 0.17801(5)
N1 N 0.33864(19) 0.7916(3) 0.2969(2)
N2 N 0.42139(18) 0.8369(4) 0.3419(2)
N3 N 0.16426(18) 0.8008(3) 0.34130(19)
N4 N 0.19511(18) 0.7698(3) 0.27181(19)
C1 C 0.2739(2) 0.5360(3) 0.2312(2)
H1 H 0.2725 0.4756 0.2119
H2 H 0.3103 0.5475 0.2591
C2 C 0.2620(2) 1.0350(3) 0.2342(2)
H3 H 0.2985 1.0287 0.2630
H4 H 0.2587 1.0945 0.2134
C3 C 0.1899(2) 0.5862(4) 0.1178(2)
C4 C 0.1499(3) 0.6488(6) 0.0895(3)
H5 H 0.1557 0.7122 0.0992
C5 C 0.1013(3) 0.6205(10) 0.0469(4)
H6 H 0.0745 0.6638 0.0278
C6 C 0.0933(3) 0.5240(9) 0.0330(4)
H7 H 0.0607 0.5029 0.0051
C7 C 0.1316(4) 0.4643(7) 0.0594(4)
H8 H 0.1265 0.4010 0.0492
C8 C 0.1787(3) 0.4940(5) 0.1017(3)
H9 H 0.2047 0.4494 0.1207
C9 C 0.2975(2) 0.6180(3) 0.1359(2)
C10 C 0.2812(2) 0.6085(4) 0.0745(3)
H10 H 0.2452 0.6028 0.0502
C11 C 0.3174(3) 0.6073(5) 0.0479(3)
H11 H 0.3056 0.6010 0.0060
C12 C 0.3702(3) 0.6151(6) 0.0826(4)
H12 H 0.3944 0.6136 0.0645
C13 C 0.3874(3) 0.6251(7) 0.1435(4)
H13 H 0.4233 0.6301 0.1678
C14 C 0.3501(3) 0.6277(5) 0.1687(3)
H14 H 0.3619 0.6365 0.2105
C15 C 0.1857(2) 0.9770(3) 0.1177(2)
C16 C 0.1395(2) 0.9301(4) 0.1089(3)
H15 H 0.1404 0.8804 0.1344
C17 C 0.0911(3) 0.9556(5) 0.0624(3)
H16 H 0.0604 0.9220 0.0562
C18 C 0.0898(3) 1.0302(5) 0.0266(3)
H17 H 0.0576 1.0488 -0.0034
C19 C 0.1346(3) 1.0781(4) 0.0340(2)
H18 H 0.1329 1.1292 0.0091
C20 C 0.1833(2) 1.0507(4) 0.0788(2)
H19 H 0.2141 1.0820 0.0826
C21 C 0.2963(2) 0.9541(3) 0.1470(2)
C22 C 0.3331(2) 1.0279(4) 0.1621(3)
H20 H 0.3308 1.0759 0.1871
C23 C 0.3725(2) 1.0304(5) 0.1406(3)
H21 H 0.3971 1.0791 0.1523
C24 C 0.3762(3) 0.9628(6) 0.1024(3)
H22 H 0.4027 0.9655 0.0876
C25 C 0.3392(3) 0.8884(6) 0.0856(3)
H23 H 0.3411 0.8419 0.0594
C26 C 0.3003(3) 0.8847(4) 0.1081(3)
H24 H 0.2763 0.8351 0.0971
C27 C 0.3758(2) 0.8465(4) 0.2942(3)
H25 H 0.3708 0.8876 0.2623
C28 C 0.3629(3) 0.7469(5) 0.3506(3)
H26 H 0.3467 0.7032 0.3664
C29 C 0.4135(3) 0.7741(5) 0.3780(3)
H27 H 0.4382 0.7529 0.4151
C30 C 0.4696(3) 0.8887(6) 0.3539(3)
H28 H 0.4981 0.8612 0.3886
H29 H 0.4649 0.9529 0.3642
C31 C 0.4853(3) 0.8888(5) 0.2995(3)
C32 C 0.4926(3) 0.8074(5) 0.2730(4)
H30 H 0.4869 0.7502 0.2881
C33 C 0.4917(3) 0.9704(5) 0.2741(3)
H31 H 0.4851 1.0271 0.2889
C34 C 0.2050(3) 0.6983(5) 0.4701(3)
H32 H 0.1746 0.6631 0.4500
C35 C 0.2530(3) 0.8408(4) 0.4827(3)
H33 H 0.2552 0.9024 0.4712
C36 C 0.2077(2) 0.7898(4) 0.4523(2)
C37 C 0.1625(2) 0.8332(5) 0.3993(3)
H34 H 0.1290 0.8154 0.4006
H35 H 0.1653 0.9011 0.4018
C38 C 0.2076(2) 0.7936(3) 0.3290(2)
H36 H 0.2420 0.8042 0.3571
C39 C 0.1219(2) 0.7785(4) 0.2886(3)
H37 H 0.0865 0.7765 0.2831
C40 C 0.1410(2) 0.7605(4) 0.2468(3)
H38 H 0.1207 0.7441 0.2067
C1C C 0.2261(2) 1.0360(3) 0.2688(2)
C2C C 0.2380(2) 0.5350(3) 0.2658(2)
C32B C 0.5074(3) 0.8074(5) 0.2270(4)
C33B C 0.5083(3) 0.9704(5) 0.2259(3)
C34E C 0.2950(3) 0.8017(5) 0.5299(3)
C35E C 0.2470(3) 0.6592(4) 0.5173(3)
loop_
_geom_bond_atom_site_label_1
_geom_bond_atom_site_label_2
_geom_bond_site_symmetry_1
_geom_bond_site_symmetry_2
Ag1 P1 1_555 1_555
P1 C1 1_555 1_555
P2 Ag1 1_555 1_555
P3 F1 1_555 1_555
N1 Ag1 1_555 1_555
N2 C27 1_555 1_555
N3 C37 1_555 1_555
N4 Ag1 1_555 1_555
C1 H1 1_555 1_555
H2 C1 1_555 1_555
C2 P2 1_555 1_555
H3 C2 1_555 1_555
H4 C2 1_555 1_555
C3 P1 1_555 1_555
C4 C3 1_555 1_555
H5 C4 1_555 1_555
C5 C4 1_555 1_555
H6 C5 1_555 1_555
C6 C5 1_555 1_555
H7 C6 1_555 1_555
C7 C6 1_555 1_555
H8 C7 1_555 1_555
C8 C3 1_555 1_555
H9 C8 1_555 1_555
C9 P1 1_555 1_555
C10 C9 1_555 1_555
H10 C10 1_555 1_555
C11 C10 1_555 1_555
H11 C11 1_555 1_555
C12 C11 1_555 1_555
H12 C12 1_555 1_555
C13 C12 1_555 1_555
H13 C13 1_555 1_555
C14 C9 1_555 1_555
H14 C14 1_555 1_555
C15 P2 1_555 1_555
C16 C15 1_555 1_555
H15 C16 1_555 1_555
C17 C16 1_555 1_555
H16 C17 1_555 1_555
C18 C17 1_555 1_555
H17 C18 1_555 1_555
C19 C18 1_555 1_555
H18 C19 1_555 1_555
C20 C15 1_555 1_555
H19 C20 1_555 1_555
C21 P2 1_555 1_555
C22 C21 1_555 1_555
H20 C22 1_555 1_555
C23 C22 1_555 1_555
H21 C23 1_555 1_555
C24 C23 1_555 1_555
H22 C24 1_555 1_555
C25 C24 1_555 1_555
H23 C25 1_555 1_555
C26 C21 1_555 1_555
H24 C26 1_555 1_555
C27 N1 1_555 1_555
H25 C27 1_555 1_555
C28 N1 1_555 1_555
H26 C28 1_555 1_555
C29 N2 1_555 1_555
H27 C29 1_555 1_555
C30 N2 1_555 1_555
H28 C30 1_555 1_555
H29 C30 1_555 1_555
C31 C30 1_555 1_555
C32 C31 1_555 1_555
H30 C32 1_555 1_555
C33 C31 1_555 1_555
H31 C33 1_555 1_555
C34 H32 1_555 1_555
C35 H33 1_555 1_555
C36 C34 1_555 1_555
C37 C36 1_555 1_555
H34 C37 1_555 1_555
H35 C37 1_555 1_555
C38 N3 1_555 1_555
H36 C38 1_555 1_555
C39 N3 1_555 1_555
H37 C39 1_555 1_555
C40 N4 1_555 1_555
H38 C40 1_555 1_555
C41 H39 1_555 1_555
H40 C41 1_555 1_555
H41 C41 1_555 1_555
F2 P3 1_555 1_555
F3 P3 1_555 1_555
F4 P3 1_555 1_555
F5 P3 1_555 1_555
F6 P3 1_555 1_555
O1 C41 1_555 1_555
C1C C2 1_555 1_555
C2C C1 1_555 1_555
C32B C32 1_555 1_555
C33B C33 1_555 1_555
C34E C35 1_555 1_555
C35E C34 1_555 1_555
C41B O1 1_555 1_555
N4 C38 1_555 1_555
C7 C8 1_555 1_555
C13 C14 1_555 1_555
C19 C20 1_555 1_555
C25 C26 1_555 1_555
C28 C29 1_555 1_555
C35 C36 1_555 1_555
C39 C40 1_555 1_555

#END
