
#######################################################################
#
#                 Cambridge Crystallographic Data Centre
#                                CCDC 
#
#######################################################################
#
# If this CIF has been generated from an entry in the Cambridge 
# Structural Database, then it will include bibliographic, chemical, 
# crystal, experimental, refinement or atomic coordinate data resulting 
# from the CCDC's data processing and validation procedures.
#
#######################################################################

data_DAPVIA
_symmetry_cell_setting           monoclinic
_symmetry_space_group_name_H-M   'P 21/n'
_symmetry_Int_Tables_number      14
_space_group_name_Hall           '-P 2yn'
loop_
_symmetry_equiv_pos_site_id
_symmetry_equiv_pos_as_xyz
1 x,y,z
2 1/2-x,1/2+y,1/2-z
3 -x,-y,-z
4 1/2+x,1/2-y,1/2+z
_cell_length_a                   16.729(3)
_cell_length_b                   11.5593(17)
_cell_length_c                   20.933(3)
_cell_angle_alpha                90
_cell_angle_beta                 104.578(2)
_cell_angle_gamma                90
_cell_volume                     3917.61
loop_
_atom_site_label
_atom_site_type_symbol
_atom_site_fract_x
_atom_site_fract_y
_atom_site_fract_z
Ag1 Ag 0.853508(19) 0.27238(3) 0.024128(15)
P1 P 0.94536(7) 0.11173(9) 0.06766(6)
P2 P 0.87079(5) 0.44054(8) -0.04230(4)
N1 N 0.8228(2) 0.3598(3) 0.11624(17)
N2 N 0.7595(2) 0.4463(3) 0.18276(16)
C1 C 0.9946(7) 0.0460(5) 0.0075(5)
H1 H 0.9664 0.0822 -0.0339
H2 H 1.0496 0.0794 0.0186
C2 C 0.96023(19) 0.5339(3) -0.00706(18)
H3 H 0.9626 0.5959 -0.0378
H4 H 0.9536 0.5685 0.0335
C3 C 1.0302(3) 0.1467(4) 0.1379(3)
C4 C 1.1090(3) 0.1697(6) 0.1297(4)
H5 H 1.1206 0.1639 0.0886
C5 C 1.1703(5) 0.2021(10) 0.1866(8)
H6 H 1.2233 0.2192 0.1829
C6 C 1.1534(7) 0.2088(11) 0.2460(7)
H7 H 1.1961 0.2253 0.2829
C7 C 1.0784(5) 0.1925(8) 0.2536(4)
H8 H 1.0673 0.2030 0.2946
C8 C 1.0156(3) 0.1593(6) 0.1988(3)
H9 H 0.9628 0.1454 0.2041
C9 C 0.8936(2) -0.0087(3) 0.0966(2)
C10 C 0.8095(3) -0.0048(4) 0.0879(2)
H10 H 0.7799 0.0595 0.0681
C11 C 0.7685(3) -0.0955(4) 0.1086(3)
H11 H 0.7116 -0.0916 0.1028
C12 C 0.8102(4) -0.1899(5) 0.1372(3)
H12 H 0.7819 -0.2517 0.1496
C13 C 0.8949(3) -0.1943(4) 0.1479(3)
H13 H 0.9243 -0.2580 0.1686
C14 C 0.9357(3) -0.1035(4) 0.1277(3)
H14 H 0.9928 -0.1063 0.1352
C15 C 0.7826(2) 0.5379(4) -0.05911(19)
C16 C 0.7786(4) 0.6318(7) -0.0221(3)
H15 H 0.8239 0.6524 0.0119
C17 C 0.7069(5) 0.6984(9) -0.0344(4)
H16 H 0.7058 0.7639 -0.0088
C18 C 0.6405(4) 0.6717(8) -0.0813(4)
H17 H 0.5925 0.7155 -0.0875
C19 C 0.6439(3) 0.5807(7) -0.1193(4)
H18 H 0.5982 0.5620 -0.1534
C20 C 0.7147(3) 0.5132(5) -0.1088(3)
H19 H 0.7158 0.4501 -0.1361
C21 C 0.8831(2) 0.4061(4) -0.12413(18)
C22 C 0.8984(3) 0.4894(5) -0.1667(2)
H20 H 0.9023 0.5666 -0.1538
C23 C 0.9078(4) 0.4596(8) -0.2284(3)
H21 H 0.9193 0.5166 -0.2562
C24 C 0.9003(3) 0.3479(8) -0.2486(3)
H22 H 0.9062 0.3285 -0.2903
C25 C 0.8843(3) 0.2637(6) -0.2078(3)
H23 H 0.8789 0.1871 -0.2217
C26 C 0.8762(3) 0.2932(4) -0.1451(2)
H24 H 0.8659 0.2356 -0.1172
C27 C 0.7553(3) 0.3651(4) 0.1362(2)
H25 H 0.7095 0.3182 0.1202
C28 C 0.8737(3) 0.4411(4) 0.1530(2)
H26 H 0.9274 0.4565 0.1504
C29 C 0.8352(3) 0.4953(4) 0.1933(2)
H27 H 0.8563 0.5548 0.2227
C30 C 0.6916(3) 0.4812(4) 0.2121(2)
H28 H 0.7146 0.5076 0.2569
H29 H 0.6570 0.4146 0.2139
C31 C 0.6393(3) 0.5759(4) 0.1734(2)
C32 C 0.5896(4) 0.5551(5) 0.1102(3)
H30 H 0.5878 0.4813 0.0922
C33 C 0.6383(3) 0.6860(4) 0.1975(2)
H31 H 0.6701 0.7030 0.2397
C34 C 0.5434(4) 0.6418(5) 0.0742(3)
H32 H 0.5109 0.6252 0.0322
C35 C 0.5912(3) 0.7724(4) 0.1606(2)
H33 H 0.5919 0.8463 0.1783
C36 C 0.5434(2) 0.7509(4) 0.0979(2)
C37 C 0.4945(2) 0.8461(4) 0.0572(2)
H34 H 0.5194 0.9198 0.0730
H35 H 0.4973 0.8372 0.0117
N3 N 0.40717(19) 0.8475(3) 0.05930(16)
N4 N 0.2764(2) 0.8012(3) 0.03938(19)
C38 C 0.3479(3) 0.7753(4) 0.0290(2)
H36 H 0.3564 0.7132 0.0033
C39 C 0.3712(3) 0.9249(5) 0.0913(2)
H37 H 0.3969 0.9868 0.1168
C40 C 0.2907(3) 0.8956(5) 0.0793(2)
H38 H 0.2512 0.9339 0.0958
Ag1B Ag 1.146492(19) -0.27238(3) -0.024128(15)
Ag1B_2 Ag 0.146492(19) 0.72762(3) -0.024128(15)
Ag1B_3 Ag 1.146492(19) 0.72762(3) -0.024128(15)
P1B P 1.05464(7) -0.11173(9) -0.06766(6)
P2B P 1.12921(5) 0.55946(8) 0.04230(4)
P2B_2 P 1.12921(5) -0.44054(8) 0.04230(4)
N1B N 0.1772(2) 0.6402(3) -0.11624(17)
N1B_2 N 1.1772(2) -0.3598(3) -0.11624(17)
N2B N 0.2405(2) 0.5537(3) -0.18276(16)
C1B C 1.0054(7) -0.0460(5) -0.0075(5)
H1B H 1.0336 -0.0822 0.0339
H2B H 0.9504 -0.0794 -0.0186
C2B C 1.03977(19) 0.4661(3) 0.00706(18)
H3B H 1.0374 0.4041 0.0378
H4B H 1.0464 0.4315 -0.0335
C3B C 0.9698(3) -0.1467(4) -0.1379(3)
C4B C 0.8910(3) -0.1697(6) -0.1297(4)
H5B H 0.8794 -0.1639 -0.0886
C5B C 0.8297(5) -0.2021(10) -0.1866(8)
H6B H 0.7767 -0.2192 -0.1829
C6B C 0.8466(7) -0.2088(11) -0.2460(7)
H7B H 0.8039 -0.2253 -0.2829
C7B C 0.9216(5) -0.1925(8) -0.2536(4)
H8B H 0.9327 -0.2030 -0.2946
C8B C 0.9844(3) -0.1593(6) -0.1988(3)
H9B H 1.0372 -0.1454 -0.2041
C9B C 1.1064(2) 0.0087(3) -0.0966(2)
C10B C 1.1905(3) 0.0048(4) -0.0879(2)
H10B H 1.2201 -0.0595 -0.0681
C11B C 1.2315(3) 0.0955(4) -0.1086(3)
H11B H 1.2884 0.0916 -0.1028
C12B C 1.1898(4) 0.1899(5) -0.1372(3)
H12B H 1.2181 0.2517 -0.1496
C13B C 1.1051(3) 0.1943(4) -0.1479(3)
H13B H 1.0757 0.2580 -0.1686
C14B C 1.0643(3) 0.1035(4) -0.1277(3)
H14B H 1.0072 0.1063 -0.1352
C15B C 1.2174(2) 0.4621(4) 0.05911(19)
C16B C 1.2214(4) 0.3682(7) 0.0221(3)
H15B H 1.1761 0.3476 -0.0119
C17B C 1.2931(5) 0.3016(9) 0.0344(4)
H16B H 1.2942 0.2361 0.0088
C18B C 1.3595(4) 0.3283(8) 0.0813(4)
H17B H 1.4075 0.2845 0.0875
C19B C 1.3561(3) 0.4193(7) 0.1193(4)
H18B H 1.4018 0.4380 0.1534
C20B C 1.2853(3) 0.4868(5) 0.1088(3)
H19B H 1.2842 0.5499 0.1361
C21B C 1.1169(2) 0.5939(4) 0.12413(18)
C22B C 1.1016(3) 0.5106(5) 0.1667(2)
H20B H 1.0977 0.4334 0.1538
C23B C 1.0922(4) 0.5404(8) 0.2284(3)
H21B H 1.0807 0.4834 0.2562
C24B C 1.0997(3) 0.6521(8) 0.2486(3)
H22B H 1.0938 0.6715 0.2903
C25B C 1.1157(3) 0.7363(6) 0.2078(3)
H23B H 1.1211 0.8129 0.2217
C26B C 1.1238(3) 0.7068(4) 0.1451(2)
H24B H 1.1341 0.7644 0.1172
C27B C 0.2447(3) 0.6349(4) -0.1362(2)
H25B H 0.2905 0.6818 -0.1202
C28B C 0.1263(3) 0.5589(4) -0.1530(2)
H26B H 0.0726 0.5435 -0.1504
C29B C 0.1648(3) 0.5047(4) -0.1933(2)
H27B H 0.1437 0.4452 -0.2227
C30B C 0.3084(3) 0.5188(4) -0.2121(2)
H28B H 0.2854 0.4924 -0.2569
H29B H 0.3430 0.5854 -0.2139
C31B C 0.3607(3) 0.4241(4) -0.1734(2)
C32B C 0.4104(4) 0.4449(5) -0.1102(3)
H30B H 0.4122 0.5187 -0.0922
C33B C 0.3617(3) 0.3140(4) -0.1975(2)
H31B H 0.3299 0.2970 -0.2397
C34B C 0.4566(4) 0.3582(5) -0.0742(3)
H32B H 0.4891 0.3748 -0.0322
C35B C 0.4088(3) 0.2276(4) -0.1606(2)
H33B H 0.4081 0.1537 -0.1783
C36B C 0.4566(2) 0.2491(4) -0.0979(2)
C37B C 0.5055(2) 0.1539(4) -0.0572(2)
H34B H 0.4806 0.0802 -0.0730
H35B H 0.5027 0.1628 -0.0117
N3B N 0.59283(19) 0.1525(3) -0.05930(16)
N4B N 0.7236(2) 0.1988(3) -0.03938(19)
N4_2 N 1.2764(2) -0.1988(3) 0.03938(19)
C38B C 0.6521(3) 0.2247(4) -0.0290(2)
H36B H 0.6436 0.2868 -0.0033
C39B C 0.6288(3) 0.0751(5) -0.0913(2)
H37B H 0.6031 0.0132 -0.1168
C40B C 0.7093(3) 0.1044(5) -0.0793(2)
H38B H 0.7488 0.0661 -0.0958
B1 B 0.5822(3) 0.1664(5) 0.1428(3)
F1 F 0.6295(4) 0.0966(5) 0.1178(4)
F2 F 0.5654(2) 0.2571(3) 0.10027(17)
F3 F 0.6299(5) 0.1984(5) 0.1979(2)
F4 F 0.5206(3) 0.1017(4) 0.1490(3)
loop_
_geom_bond_atom_site_label_1
_geom_bond_atom_site_label_2
_geom_bond_site_symmetry_1
_geom_bond_site_symmetry_2
Ag1 P1 1_555 1_555
P1 C1 1_555 1_555
P2 Ag1 1_555 1_555
N1 Ag1 1_555 1_555
N2 C27 1_555 1_555
C1 H1 1_555 1_555
H2 C1 1_555 1_555
C2 P2 1_555 1_555
H3 C2 1_555 1_555
H4 C2 1_555 1_555
C3 P1 1_555 1_555
C4 C3 1_555 1_555
H5 C4 1_555 1_555
C5 C4 1_555 1_555
H6 C5 1_555 1_555
C6 C5 1_555 1_555
H7 C6 1_555 1_555
C7 C6 1_555 1_555
H8 C7 1_555 1_555
C8 C3 1_555 1_555
H9 C8 1_555 1_555
C9 P1 1_555 1_555
C10 C9 1_555 1_555
H10 C10 1_555 1_555
C11 C10 1_555 1_555
H11 C11 1_555 1_555
C12 C11 1_555 1_555
H12 C12 1_555 1_555
C13 C12 1_555 1_555
H13 C13 1_555 1_555
C14 C9 1_555 1_555
H14 C14 1_555 1_555
C15 P2 1_555 1_555
C16 C15 1_555 1_555
H15 C16 1_555 1_555
C17 C16 1_555 1_555
H16 C17 1_555 1_555
C18 C17 1_555 1_555
H17 C18 1_555 1_555
C19 C18 1_555 1_555
H18 C19 1_555 1_555
C20 C15 1_555 1_555
H19 C20 1_555 1_555
C21 P2 1_555 1_555
C22 C21 1_555 1_555
H20 C22 1_555 1_555
C23 C22 1_555 1_555
H21 C23 1_555 1_555
C24 C23 1_555 1_555
H22 C24 1_555 1_555
C25 C24 1_555 1_555
H23 C25 1_555 1_555
C26 C21 1_555 1_555
H24 C26 1_555 1_555
C27 N1 1_555 1_555
H25 C27 1_555 1_555
C28 N1 1_555 1_555
H26 C28 1_555 1_555
C29 N2 1_555 1_555
H27 C29 1_555 1_555
C30 N2 1_555 1_555
H28 C30 1_555 1_555
H29 C30 1_555 1_555
C31 C30 1_555 1_555
C32 C31 1_555 1_555
H30 C32 1_555 1_555
C33 C31 1_555 1_555
H31 C33 1_555 1_555
C34 C32 1_555 1_555
H32 C34 1_555 1_555
C35 C33 1_555 1_555
H33 C35 1_555 1_555
C36 C34 1_555 1_555
C37 C36 1_555 1_555
H34 C37 1_555 1_555
H35 C37 1_555 1_555
B1 F1 1_555 1_555
F2 B1 1_555 1_555
F3 B1 1_555 1_555
F4 B1 1_555 1_555
N3 C37 1_555 1_555
N4 C38 1_555 1_555
C38 N3 1_555 1_555
H36 C38 1_555 1_555
C39 N3 1_555 1_555
H37 C39 1_555 1_555
C40 N4 1_555 1_555
H38 C40 1_555 1_555
Ag1B P1B 1_555 1_555
Ag1B_2 N4 1_555 1_555
Ag1B_3 P2B 1_555 1_555
P1B C1B 1_555 1_555
P2B C2B 1_555 1_555
P2B_2 Ag1B 1_555 1_555
N1B Ag1B_2 1_555 1_555
N1B_2 Ag1B 1_555 1_555
N2B C27B 1_555 1_555
C1B C1 1_555 1_555
H1B C1B 1_555 1_555
H2B C1B 1_555 1_555
C2B C2 1_555 1_555
H3B C2B 1_555 1_555
H4B C2B 1_555 1_555
C3B P1B 1_555 1_555
C4B C3B 1_555 1_555
H5B C4B 1_555 1_555
C5B C4B 1_555 1_555
H6B C5B 1_555 1_555
C6B C5B 1_555 1_555
H7B C6B 1_555 1_555
C7B C6B 1_555 1_555
H8B C7B 1_555 1_555
C8B C3B 1_555 1_555
H9B C8B 1_555 1_555
C9B P1B 1_555 1_555
C10B C9B 1_555 1_555
H10B C10B 1_555 1_555
C11B C10B 1_555 1_555
H11B C11B 1_555 1_555
C12B C11B 1_555 1_555
H12B C12B 1_555 1_555
C13B C12B 1_555 1_555
H13B C13B 1_555 1_555
C14B C9B 1_555 1_555
H14B C14B 1_555 1_555
C15B P2B 1_555 1_555
C16B C15B 1_555 1_555
H15B C16B 1_555 1_555
C17B C16B 1_555 1_555
H16B C17B 1_555 1_555
C18B C17B 1_555 1_555
H17B C18B 1_555 1_555
C19B C18B 1_555 1_555
H18B C19B 1_555 1_555
C20B C15B 1_555 1_555
H19B C20B 1_555 1_555
C21B P2B 1_555 1_555
C22B C21B 1_555 1_555
H20B C22B 1_555 1_555
C23B C22B 1_555 1_555
H21B C23B 1_555 1_555
C24B C23B 1_555 1_555
H22B C24B 1_555 1_555
C25B C24B 1_555 1_555
H23B C25B 1_555 1_555
C26B C21B 1_555 1_555
H24B C26B 1_555 1_555
C27B N1B 1_555 1_555
H25B C27B 1_555 1_555
C28B N1B 1_555 1_555
H26B C28B 1_555 1_555
C29B N2B 1_555 1_555
H27B C29B 1_555 1_555
C30B N2B 1_555 1_555
H28B C30B 1_555 1_555
H29B C30B 1_555 1_555
C31B C30B 1_555 1_555
C32B C31B 1_555 1_555
H30B C32B 1_555 1_555
C33B C31B 1_555 1_555
H31B C33B 1_555 1_555
C34B C32B 1_555 1_555
H32B C34B 1_555 1_555
C35B C33B 1_555 1_555
H33B C35B 1_555 1_555
C36B C34B 1_555 1_555
C37B C36B 1_555 1_555
H34B C37B 1_555 1_555
H35B C37B 1_555 1_555
N3B C37B 1_555 1_555
N4B Ag1 1_555 1_555
N4_2 Ag1B 1_555 1_555
C38B N3B 1_555 1_555
H36B C38B 1_555 1_555
C39B N3B 1_555 1_555
H37B C39B 1_555 1_555
C40B N4B 1_555 1_555
H38B C40B 1_555 1_555
C7 C8 1_555 1_555
C13 C14 1_555 1_555
C19 C20 1_555 1_555
C25 C26 1_555 1_555
C28 C29 1_555 1_555
C35 C36 1_555 1_555
C39 C40 1_555 1_555
C7B C8B 1_555 1_555
C13B C14B 1_555 1_555
C19B C20B 1_555 1_555
C25B C26B 1_555 1_555
C28B C29B 1_555 1_555
C35B C36B 1_555 1_555
N4B C38B 1_555 1_555
C39B C40B 1_555 1_555

#END
