
#######################################################################
#
#                 Cambridge Crystallographic Data Centre
#                                CCDC 
#
#######################################################################
#
# If this CIF has been generated from an entry in the Cambridge 
# Structural Database, then it will include bibliographic, chemical, 
# crystal, experimental, refinement or atomic coordinate data resulting 
# from the CCDC's data processing and validation procedures.
#
#######################################################################

data_DAPXUP
_symmetry_cell_setting           monoclinic
_symmetry_space_group_name_H-M   'C 2/c'
_symmetry_Int_Tables_number      15
_space_group_name_Hall           '-C 2yn'
loop_
_symmetry_equiv_pos_site_id
_symmetry_equiv_pos_as_xyz
1 x,y,z
2 -x,y,1/2-z
3 1/2+x,1/2+y,z
4 1/2-x,1/2+y,1/2-z
5 -x,-y,-z
6 x,-y,1/2+z
7 1/2-x,1/2-y,-z
8 1/2+x,1/2-y,1/2+z
_cell_length_a                   10.2064(2)
_cell_length_b                   28.9067(4)
_cell_length_c                   20.2929(5)
_cell_angle_alpha                90
_cell_angle_beta                 105.763(2)
_cell_angle_gamma                90
_cell_volume                     5761.93
loop_
_atom_site_label
_atom_site_type_symbol
_atom_site_fract_x
_atom_site_fract_y
_atom_site_fract_z
Ag1 Ag 0.5000 -0.100284(11) 0.7500
P1 P 0.51067(9) -0.05653(3) 0.85683(5)
N1 N 0.1717(3) 0.34011(11) 0.77260(18)
N2 N 1.0839(4) 0.28166(14) 0.9783(3)
N3 N 0.5923(3) 0.24920(10) 0.86576(16)
C1 C 0.4675(3) 0.23231(12) 0.83759(18)
C2 C 0.4412(3) 0.18525(12) 0.82852(18)
H1 H 0.3527 0.1747 0.8104
C3 C 0.5490(4) 0.15418(12) 0.84695(18)
C4 C 0.6786(3) 0.17223(12) 0.87379(19)
H2 H 0.7535 0.1526 0.8853
C5 C 0.6966(3) 0.21961(12) 0.88350(18)
C6 C 0.5295(3) 0.10296(12) 0.84313(18)
C7 C 0.6249(3) 0.07455(12) 0.82497(18)
H3 H 0.6970 0.0877 0.8118
C8 C 0.6124(4) 0.02710(12) 0.82654(18)
H4 H 0.6745 0.0085 0.8128
C9 C 0.5079(3) 0.00663(12) 0.84837(17)
C10 C 0.4115(4) 0.03453(13) 0.86392(19)
H5 H 0.3393 0.0212 0.8768
C11 C 0.4205(4) 0.08252(13) 0.86065(19)
H6 H 0.3532 0.1009 0.8702
C12 C 0.3605(4) 0.26854(12) 0.81586(19)
C13 C 0.3793(4) 0.31168(14) 0.8460(3)
H7 H 0.4563 0.3177 0.8818
C14 C 0.2839(4) 0.34574(14) 0.8231(3)
H8 H 0.2991 0.3745 0.8444
C15 C 0.1530(4) 0.29842(15) 0.7435(2)
H9 H 0.0754 0.2935 0.7076
C16 C 0.2429(4) 0.26209(14) 0.7638(2)
H10 H 0.2243 0.2334 0.7424
C17 C 0.8318(4) 0.24058(13) 0.91584(19)
C18 C 0.9527(4) 0.22016(16) 0.9117(3)
H11 H 0.9522 0.1924 0.8885
C19 C 1.0739(5) 0.24241(18) 0.9430(4)
H12 H 1.1541 0.2289 0.9391
C20 C 0.9656(5) 0.30076(16) 0.9806(3)
H13 H 0.9688 0.3283 1.0045
C21 C 0.8411(4) 0.28247(14) 0.9501(2)
H14 H 0.7625 0.2980 0.9522
C22 C 0.3629(4) -0.07030(12) 0.8872(2)
C23 C 0.3633(5) -0.07105(15) 0.9553(2)
H15 H 0.4421 -0.0631 0.9888
C24 C 0.2483(6) -0.08347(17) 0.9741(3)
H16 H 0.2508 -0.0842 1.0203
C25 C 0.1311(6) -0.0946(2) 0.9261(3)
H17 H 0.0535 -0.1027 0.9391
C26 C 0.1289(6) -0.0938(3) 0.8584(3)
H18 H 0.0491 -0.1011 0.8251
C27 C 0.2443(5) -0.0822(2) 0.8394(2)
H19 H 0.2420 -0.0825 0.7933
C28 C 0.6556(4) -0.06651(13) 0.93176(19)
C29 C 0.7404(5) -0.03235(17) 0.9666(2)
H20 H 0.7254 -0.0018 0.9522
C30 C 0.8482(5) -0.0431(2) 1.0229(3)
H21 H 0.9056 -0.0197 1.0455
C31 C 0.8705(5) -0.0875(2) 1.0452(3)
H22 H 0.9426 -0.0946 1.0830
C32 C 0.7861(6) -0.1216(2) 1.0117(3)
H23 H 0.7995 -0.1519 1.0275
C33 C 0.6814(5) -0.11174(16) 0.9547(3)
H24 H 0.6272 -0.1356 0.9313
Ag1B Ag 0.0000 0.399716(11) 0.7500
Ag1B_2 Ag 1.0000 0.399716(11) 0.7500
P1A P 0.48933(9) -0.05653(3) 0.64317(5)
N1A N 0.8283(3) 0.34011(11) 0.72740(18)
N1B N 0.6717(3) -0.15989(11) 0.77260(18)
N1C N 0.3283(3) -0.15989(11) 0.72740(18)
N2A N -0.0839(4) 0.28166(14) 0.5217(3)
N3A N 0.4077(3) 0.24920(10) 0.63424(16)
C1A C 0.5325(3) 0.23231(12) 0.66241(18)
C2A C 0.5588(3) 0.18525(12) 0.67148(18)
H1A H 0.6473 0.1747 0.6896
C3A C 0.4510(4) 0.15418(12) 0.65305(18)
C4A C 0.3214(3) 0.17223(12) 0.62621(19)
H2A H 0.2465 0.1526 0.6147
C5A C 0.3034(3) 0.21961(12) 0.61650(18)
C6A C 0.4705(3) 0.10296(12) 0.65687(18)
C7A C 0.3751(3) 0.07455(12) 0.67503(18)
H3A H 0.3030 0.0877 0.6882
C8A C 0.3876(4) 0.02710(12) 0.67346(18)
H4A H 0.3255 0.0085 0.6872
C9A C 0.4921(3) 0.00663(12) 0.65163(17)
C10A C 0.5885(4) 0.03453(13) 0.63608(19)
H5A H 0.6607 0.0212 0.6232
C11A C 0.5795(4) 0.08252(13) 0.63935(19)
H6A H 0.6468 0.1009 0.6298
C12A C 0.6395(4) 0.26854(12) 0.68414(19)
C13A C 0.6207(4) 0.31168(14) 0.6540(3)
H7A H 0.5437 0.3177 0.6182
C14A C 0.7161(4) 0.34574(14) 0.6769(3)
H8A H 0.7009 0.3745 0.6556
C15A C 0.8470(4) 0.29842(15) 0.7565(2)
H9A H 0.9246 0.2935 0.7924
C16A C 0.7571(4) 0.26209(14) 0.7362(2)
H10A H 0.7757 0.2334 0.7576
C17A C 0.1682(4) 0.24058(13) 0.58416(19)
C18A C 0.0473(4) 0.22016(16) 0.5883(3)
H11A H 0.0478 0.1924 0.6115
C19A C -0.0739(5) 0.24241(18) 0.5570(4)
H12A H -0.1541 0.2289 0.5609
C20A C 0.0344(5) 0.30076(16) 0.5194(3)
H13A H 0.0312 0.3283 0.4955
C21A C 0.1589(4) 0.28247(14) 0.5499(2)
H14A H 0.2375 0.2980 0.5478
C22A C 0.6371(4) -0.07030(12) 0.6128(2)
C23A C 0.6367(5) -0.07105(15) 0.5447(2)
H15A H 0.5579 -0.0631 0.5112
C24A C 0.7517(6) -0.08347(17) 0.5259(3)
H16A H 0.7492 -0.0842 0.4797
C25A C 0.8689(6) -0.0946(2) 0.5739(3)
H17A H 0.9465 -0.1027 0.5609
C26A C 0.8711(6) -0.0938(3) 0.6416(3)
H18A H 0.9509 -0.1011 0.6749
C27A C 0.7557(5) -0.0822(2) 0.6606(2)
H19A H 0.7580 -0.0825 0.7067
C28A C 0.3444(4) -0.06651(13) 0.56824(19)
C29A C 0.2596(5) -0.03235(17) 0.5334(2)
H20A H 0.2746 -0.0018 0.5478
C30A C 0.1518(5) -0.0431(2) 0.4771(3)
H21A H 0.0944 -0.0197 0.4545
C31A C 0.1295(5) -0.0875(2) 0.4548(3)
H22A H 0.0574 -0.0946 0.4170
C32A C 0.2139(6) -0.1216(2) 0.4883(3)
H23A H 0.2005 -0.1519 0.4725
C33A C 0.3186(5) -0.11174(16) 0.5453(3)
H24A H 0.3728 -0.1356 0.5687
O1 O 0.0514(13) 0.0031(5) 0.7147(7)
B1 B 0.0000 0.1447(3) 0.7500
F1 F 0.0715(11) 0.1257(4) 0.7068(5)
F3 F 0.0997(12) 0.1508(4) 0.8083(6)
F1A F -0.0715(11) 0.1257(4) 0.7932(5)
F3A F -0.0997(12) 0.1508(4) 0.6917(6)
F2? F 0.0000 0.1910(6) 0.7500
F4? F -0.114(2) 0.1204(8) 0.7493(13)
loop_
_geom_bond_atom_site_label_1
_geom_bond_atom_site_label_2
_geom_bond_site_symmetry_1
_geom_bond_site_symmetry_2
Ag1 P1 1_555 1_555
P1 C9 1_555 1_555
N1 C14 1_555 1_555
N2 C19 1_555 1_555
N3 C1 1_555 1_555
C1 C2 1_555 1_555
C2 H1 1_555 1_555
C3 C2 1_555 1_555
C4 C3 1_555 1_555
H2 C4 1_555 1_555
C5 N3 1_555 1_555
C6 C3 1_555 1_555
C7 C6 1_555 1_555
H3 C7 1_555 1_555
C8 C7 1_555 1_555
H4 C8 1_555 1_555
C9 C8 1_555 1_555
C10 C9 1_555 1_555
H5 C10 1_555 1_555
C11 C6 1_555 1_555
H6 C11 1_555 1_555
C12 C1 1_555 1_555
C13 C12 1_555 1_555
H7 C13 1_555 1_555
C14 C13 1_555 1_555
H8 C14 1_555 1_555
C15 N1 1_555 1_555
H9 C15 1_555 1_555
C16 C12 1_555 1_555
H10 C16 1_555 1_555
C17 C5 1_555 1_555
C18 C17 1_555 1_555
H11 C18 1_555 1_555
C19 C18 1_555 1_555
H12 C19 1_555 1_555
C20 N2 1_555 1_555
H13 C20 1_555 1_555
C21 C17 1_555 1_555
H14 C21 1_555 1_555
C22 P1 1_555 1_555
C23 C22 1_555 1_555
H15 C23 1_555 1_555
C24 C23 1_555 1_555
H16 C24 1_555 1_555
C25 C24 1_555 1_555
H17 C25 1_555 1_555
C26 C25 1_555 1_555
H18 C26 1_555 1_555
C27 C22 1_555 1_555
H19 C27 1_555 1_555
C28 P1 1_555 1_555
C29 C28 1_555 1_555
H20 C29 1_555 1_555
C30 C29 1_555 1_555
H21 C30 1_555 1_555
C31 C30 1_555 1_555
H22 C31 1_555 1_555
C32 C31 1_555 1_555
H23 C32 1_555 1_555
C33 C28 1_555 1_555
H24 C33 1_555 1_555
B1 F1 1_555 1_555
F3 B1 1_555 1_555
Ag1B N1 1_555 1_555
Ag1B_2 N1A 1_555 1_555
P1A Ag1 1_555 1_555
N1A C14A 1_555 1_555
N1B Ag1 1_555 1_555
N1C Ag1 1_555 1_555
N2A C19A 1_555 1_555
N3A C1A 1_555 1_555
C1A C2A 1_555 1_555
C2A H1A 1_555 1_555
C3A C2A 1_555 1_555
C4A C3A 1_555 1_555
H2A C4A 1_555 1_555
C5A N3A 1_555 1_555
C6A C3A 1_555 1_555
C7A C6A 1_555 1_555
H3A C7A 1_555 1_555
C8A C7A 1_555 1_555
H4A C8A 1_555 1_555
C9A P1A 1_555 1_555
C10A C9A 1_555 1_555
H5A C10A 1_555 1_555
C11A C6A 1_555 1_555
H6A C11A 1_555 1_555
C12A C1A 1_555 1_555
C13A C12A 1_555 1_555
H7A C13A 1_555 1_555
C14A C13A 1_555 1_555
H8A C14A 1_555 1_555
C15A N1A 1_555 1_555
H9A C15A 1_555 1_555
C16A C12A 1_555 1_555
H10A C16A 1_555 1_555
C17A C5A 1_555 1_555
C18A C17A 1_555 1_555
H11A C18A 1_555 1_555
C19A C18A 1_555 1_555
H12A C19A 1_555 1_555
C20A N2A 1_555 1_555
H13A C20A 1_555 1_555
C21A C17A 1_555 1_555
H14A C21A 1_555 1_555
C22A P1A 1_555 1_555
C23A C22A 1_555 1_555
H15A C23A 1_555 1_555
C24A C23A 1_555 1_555
H16A C24A 1_555 1_555
C25A C24A 1_555 1_555
H17A C25A 1_555 1_555
C26A C25A 1_555 1_555
H18A C26A 1_555 1_555
C27A C22A 1_555 1_555
H19A C27A 1_555 1_555
C28A P1A 1_555 1_555
C29A C28A 1_555 1_555
H20A C29A 1_555 1_555
C30A C29A 1_555 1_555
H21A C30A 1_555 1_555
C31A C30A 1_555 1_555
H22A C31A 1_555 1_555
C32A C31A 1_555 1_555
H23A C32A 1_555 1_555
C33A C28A 1_555 1_555
H24A C33A 1_555 1_555
F1A B1 1_555 1_555
F3A B1 1_555 1_555
C4 C5 1_555 1_555
C10 C11 1_555 1_555
C15 C16 1_555 1_555
C20 C21 1_555 1_555
C26 C27 1_555 1_555
C32 C33 1_555 1_555
C4A C5A 1_555 1_555
C8A C9A 1_555 1_555
C10A C11A 1_555 1_555
C15A C16A 1_555 1_555
C20A C21A 1_555 1_555
C26A C27A 1_555 1_555
C32A C33A 1_555 1_555

#END
