
#######################################################################
#
#                 Cambridge Crystallographic Data Centre
#                                CCDC 
#
#######################################################################
#
# If this CIF has been generated from an entry in the Cambridge 
# Structural Database, then it will include bibliographic, chemical, 
# crystal, experimental, refinement or atomic coordinate data resulting 
# from the CCDC's data processing and validation procedures.
#
#######################################################################

data_DAPXOJ
_symmetry_cell_setting           monoclinic
_symmetry_space_group_name_H-M   'C 2/c'
_symmetry_Int_Tables_number      15
_space_group_name_Hall           '-C 2yn'
loop_
_symmetry_equiv_pos_site_id
_symmetry_equiv_pos_as_xyz
1 x,y,z
2 -x,y,1/2-z
3 1/2+x,1/2+y,z
4 1/2-x,1/2+y,1/2-z
5 -x,-y,-z
6 x,-y,1/2+z
7 1/2-x,1/2-y,-z
8 1/2+x,1/2-y,1/2+z
_cell_length_a                   10.0247(2)
_cell_length_b                   28.8156(4)
_cell_length_c                   20.0865(4)
_cell_angle_alpha                90
_cell_angle_beta                 103.282(2)
_cell_angle_gamma                90
_cell_volume                     5647.14
loop_
_atom_site_label
_atom_site_type_symbol
_atom_site_fract_x
_atom_site_fract_y
_atom_site_fract_z
C34 C 0.5000 0.43500(13) 0.7500
S1 S 0.5000 0.37232(3) 0.7500
F1 F 0.4546(4) 0.44859(12) 0.81154(19)
F2 F 0.6204(4) 0.45541(15) 0.7620(3)
O1 O 0.6054(4) 0.35941(13) 0.8140(2)
O2 O 0.3724(4) 0.35755(14) 0.7483(3)
O3 O 0.5602(5) 0.36626(14) 0.6911(2)
F3 F 0.4129(5) 0.45336(15) 0.7028(3)
F1A F 0.5454(4) 0.44859(12) 0.68846(19)
F2A F 0.3796(4) 0.45541(15) 0.7380(3)
O1A O 0.3946(4) 0.35941(13) 0.6860(2)
O2A O 0.6276(4) 0.35755(14) 0.7517(3)
O3A O 0.4398(5) 0.36626(14) 0.8089(2)
F3A F 0.5871(5) 0.45336(15) 0.7972(3)
Ag1 Ag 1.0000 0.598923(7) 0.7500
P1 P 1.00763(6) 0.554535(18) 0.85582(3)
N1 N 0.6735(2) 0.15726(6) 0.76624(11)
N2 N 1.5905(2) 0.21783(8) 0.97570(14)
N3 N 1.0958(2) 0.24766(6) 0.86490(10)
C1 C 1.2002(2) 0.27772(8) 0.88221(12)
C2 C 1.1835(2) 0.32525(8) 0.87290(12)
H1 H 1.2607 0.3453 0.8837
C3 C 1.0528(2) 0.34341(7) 0.84759(12)
C4 C 0.9437(2) 0.31220(7) 0.82889(12)
H2 H 0.8531 0.3231 0.8111
C5 C 0.9707(2) 0.26472(7) 0.83683(12)
C6 C 1.0334(2) 0.39457(7) 0.84390(11)
C7 C 1.1303(2) 0.42310(8) 0.82422(12)
H3 H 1.2055 0.4096 0.8099
C8 C 1.1173(2) 0.47092(7) 0.82552(12)
H4 H 1.1819 0.4900 0.8105
C9 C 1.0098(2) 0.49133(7) 0.84866(11)
C10 C 0.9122(2) 0.46293(8) 0.86671(12)
H5 H 0.8375 0.4764 0.8814
C11 C 0.9227(2) 0.41490(8) 0.86350(12)
H6 H 0.8537 0.3959 0.8748
C12 C 1.3362(2) 0.25701(8) 0.91379(13)
C13 C 1.4580(3) 0.27773(8) 0.90758(15)
H7 H 1.4569 0.3059 0.8828
C14 C 1.5814(3) 0.25655(9) 0.93824(18)
H8 H 1.6639 0.2704 0.9322
C15 C 1.4724(3) 0.19846(9) 0.98109(15)
H9 H 1.4766 0.1710 1.0077
C16 C 1.3447(3) 0.21578(8) 0.95050(13)
H10 H 1.2639 0.1998 0.9545
C17 C 0.8639(2) 0.22863(8) 0.81328(12)
C18 C 0.8867(3) 0.18338(8) 0.83685(15)
H11 H 0.9687 0.1757 0.8692
C19 C 0.7901(3) 0.14969(8) 0.81312(15)
H12 H 0.8071 0.1192 0.8311
C20 C 0.6545(3) 0.20077(8) 0.74240(13)
H13 H 0.5746 0.2071 0.7078
C21 C 0.7435(3) 0.23702(8) 0.76494(13)
H14 H 0.7224 0.2674 0.7474
C22 C 1.1490(2) 0.56607(8) 0.92950(12)
C23 C 1.2275(3) 0.53175(9) 0.96813(13)
H15 H 1.2073 0.5000 0.9574
C24 C 1.3356(3) 0.54332(10) 1.02252(14)
H16 H 1.3897 0.5195 1.0483
C25 C 1.3646(3) 0.58943(10) 1.03922(14)
H17 H 1.4376 0.5973 1.0768
C26 C 1.2872(3) 0.62374(10) 1.00114(15)
H18 H 1.3066 0.6554 1.0126
C27 C 1.1808(3) 0.61228(9) 0.94590(14)
H19 H 1.1293 0.6362 0.9192
C28 C 0.8519(3) 0.56669(7) 0.88512(12)
C29 C 0.8491(3) 0.57585(8) 0.95272(13)
H20 H 0.9319 0.5755 0.9871
C30 C 0.7261(3) 0.58553(9) 0.97020(15)
H21 H 0.7256 0.5925 1.0164
C31 C 0.6046(3) 0.58517(10) 0.92131(16)
H22 H 0.5205 0.5917 0.9337
C32 C 0.6059(3) 0.57523(11) 0.85375(16)
H23 H 0.5225 0.5741 0.8199
C33 C 0.7291(3) 0.56697(10) 0.83608(14)
H24 H 0.7298 0.5614 0.7896
Ag1B Ag 0.5000 0.098923(7) 0.7500
Ag1B_2 Ag 1.5000 0.098923(7) 0.7500
P1A P 0.99237(6) 0.554535(18) 0.64418(3)
N1A N 1.3265(2) 0.15726(6) 0.73376(11)
N1B N 1.1735(2) 0.65726(6) 0.76624(11)
N1C N 0.8265(2) 0.65726(6) 0.73376(11)
N2A N 0.4095(2) 0.21783(8) 0.52430(14)
N3A N 0.9042(2) 0.24766(6) 0.63510(10)
C1A C 0.7998(2) 0.27772(8) 0.61779(12)
C2A C 0.8165(2) 0.32525(8) 0.62710(12)
H1A H 0.7393 0.3453 0.6163
C3A C 0.9472(2) 0.34341(7) 0.65241(12)
C4A C 1.0563(2) 0.31220(7) 0.67111(12)
H2A H 1.1469 0.3231 0.6889
C5A C 1.0293(2) 0.26472(7) 0.66317(12)
C6A C 0.9666(2) 0.39457(7) 0.65610(11)
C7A C 0.8697(2) 0.42310(8) 0.67578(12)
H3A H 0.7945 0.4096 0.6901
C8A C 0.8827(2) 0.47092(7) 0.67448(12)
H4A H 0.8181 0.4900 0.6895
C9A C 0.9902(2) 0.49133(7) 0.65134(11)
C10A C 1.0878(2) 0.46293(8) 0.63329(12)
H5A H 1.1625 0.4764 0.6186
C11A C 1.0773(2) 0.41490(8) 0.63650(12)
H6A H 1.1463 0.3959 0.6252
C12A C 0.6638(2) 0.25701(8) 0.58621(13)
C13A C 0.5420(3) 0.27773(8) 0.59242(15)
H7A H 0.5431 0.3059 0.6172
C14A C 0.4186(3) 0.25655(9) 0.56176(18)
H8A H 0.3361 0.2704 0.5678
C15A C 0.5276(3) 0.19846(9) 0.51891(15)
H9A H 0.5234 0.1710 0.4923
C16A C 0.6553(3) 0.21578(8) 0.54950(13)
H10A H 0.7361 0.1998 0.5455
C17A C 1.1361(2) 0.22863(8) 0.68672(12)
C18A C 1.1133(3) 0.18338(8) 0.66315(15)
H11A H 1.0313 0.1757 0.6308
C19A C 1.2099(3) 0.14969(8) 0.68688(15)
H12A H 1.1929 0.1192 0.6689
C20A C 1.3455(3) 0.20077(8) 0.75760(13)
H13A H 1.4254 0.2071 0.7922
C21A C 1.2565(3) 0.23702(8) 0.73506(13)
H14A H 1.2776 0.2674 0.7526
C22A C 0.8510(2) 0.56607(8) 0.57050(12)
C23A C 0.7725(3) 0.53175(9) 0.53187(13)
H15A H 0.7927 0.5000 0.5426
C24A C 0.6644(3) 0.54332(10) 0.47748(14)
H16A H 0.6103 0.5195 0.4517
C25A C 0.6354(3) 0.58943(10) 0.46078(14)
H17A H 0.5624 0.5973 0.4232
C26A C 0.7128(3) 0.62374(10) 0.49886(15)
H18A H 0.6934 0.6554 0.4874
C27A C 0.8192(3) 0.61228(9) 0.55410(14)
H19A H 0.8707 0.6362 0.5808
C28A C 1.1481(3) 0.56669(7) 0.61488(12)
C29A C 1.1509(3) 0.57585(8) 0.54728(13)
H20A H 1.0681 0.5755 0.5129
C30A C 1.2739(3) 0.58553(9) 0.52980(15)
H21A H 1.2744 0.5925 0.4836
C31A C 1.3954(3) 0.58517(10) 0.57869(16)
H22A H 1.4795 0.5917 0.5663
C32A C 1.3941(3) 0.57523(11) 0.64625(16)
H23A H 1.4775 0.5741 0.6801
C33A C 1.2709(3) 0.56697(10) 0.66392(14)
H24A H 1.2702 0.5614 0.7104
loop_
_geom_bond_atom_site_label_1
_geom_bond_atom_site_label_2
_geom_bond_site_symmetry_1
_geom_bond_site_symmetry_2
Ag1 P1 1_555 1_555
P1 C9 1_555 1_555
N1 C19 1_555 1_555
N2 C14 1_555 1_555
N3 C1 1_555 1_555
C1 C2 1_555 1_555
C2 H1 1_555 1_555
C3 C2 1_555 1_555
C4 C3 1_555 1_555
H2 C4 1_555 1_555
C5 N3 1_555 1_555
C6 C3 1_555 1_555
C7 C6 1_555 1_555
H3 C7 1_555 1_555
C8 C7 1_555 1_555
H4 C8 1_555 1_555
C9 C8 1_555 1_555
C10 C9 1_555 1_555
H5 C10 1_555 1_555
C11 C6 1_555 1_555
H6 C11 1_555 1_555
C12 C1 1_555 1_555
C13 C12 1_555 1_555
H7 C13 1_555 1_555
C14 C13 1_555 1_555
H8 C14 1_555 1_555
C15 N2 1_555 1_555
H9 C15 1_555 1_555
C16 C12 1_555 1_555
H10 C16 1_555 1_555
C17 C5 1_555 1_555
C18 C17 1_555 1_555
H11 C18 1_555 1_555
C19 C18 1_555 1_555
H12 C19 1_555 1_555
C20 N1 1_555 1_555
H13 C20 1_555 1_555
C21 C17 1_555 1_555
H14 C21 1_555 1_555
C22 P1 1_555 1_555
C23 C22 1_555 1_555
H15 C23 1_555 1_555
C24 C23 1_555 1_555
H16 C24 1_555 1_555
C25 C24 1_555 1_555
H17 C25 1_555 1_555
C26 C25 1_555 1_555
H18 C26 1_555 1_555
C27 C22 1_555 1_555
H19 C27 1_555 1_555
C28 P1 1_555 1_555
C29 C28 1_555 1_555
H20 C29 1_555 1_555
C30 C29 1_555 1_555
H21 C30 1_555 1_555
C31 C30 1_555 1_555
H22 C31 1_555 1_555
C32 C31 1_555 1_555
H23 C32 1_555 1_555
C33 C28 1_555 1_555
H24 C33 1_555 1_555
C34 S1 1_555 1_555
S1 O1 1_555 1_555
F1 C34 1_555 1_555
F2 C34 1_555 1_555
O1 O2A 1_555 1_555
O2 S1 1_555 1_555
O3 S1 1_555 1_555
F3 C34 1_555 1_555
Ag1B N1 1_555 1_555
Ag1B_2 N1A 1_555 1_555
P1A Ag1 1_555 1_555
N1A C19A 1_555 1_555
N1B Ag1 1_555 1_555
N1C Ag1 1_555 1_555
N2A C14A 1_555 1_555
N3A C1A 1_555 1_555
C1A C2A 1_555 1_555
C2A H1A 1_555 1_555
C3A C2A 1_555 1_555
C4A C3A 1_555 1_555
H2A C4A 1_555 1_555
C5A N3A 1_555 1_555
C6A C3A 1_555 1_555
C7A C6A 1_555 1_555
H3A C7A 1_555 1_555
C8A C7A 1_555 1_555
H4A C8A 1_555 1_555
C9A P1A 1_555 1_555
C10A C9A 1_555 1_555
H5A C10A 1_555 1_555
C11A C6A 1_555 1_555
H6A C11A 1_555 1_555
C12A C1A 1_555 1_555
C13A C12A 1_555 1_555
H7A C13A 1_555 1_555
C14A C13A 1_555 1_555
H8A C14A 1_555 1_555
C15A N2A 1_555 1_555
H9A C15A 1_555 1_555
C16A C12A 1_555 1_555
H10A C16A 1_555 1_555
C17A C5A 1_555 1_555
C18A C17A 1_555 1_555
H11A C18A 1_555 1_555
C19A C18A 1_555 1_555
H12A C19A 1_555 1_555
C20A N1A 1_555 1_555
H13A C20A 1_555 1_555
C21A C17A 1_555 1_555
H14A C21A 1_555 1_555
C22A P1A 1_555 1_555
C23A C22A 1_555 1_555
H15A C23A 1_555 1_555
C24A C23A 1_555 1_555
H16A C24A 1_555 1_555
C25A C24A 1_555 1_555
H17A C25A 1_555 1_555
C26A C25A 1_555 1_555
H18A C26A 1_555 1_555
C27A C22A 1_555 1_555
H19A C27A 1_555 1_555
C28A P1A 1_555 1_555
C29A C28A 1_555 1_555
H20A C29A 1_555 1_555
C30A C29A 1_555 1_555
H21A C30A 1_555 1_555
C31A C30A 1_555 1_555
H22A C31A 1_555 1_555
C32A C31A 1_555 1_555
H23A C32A 1_555 1_555
C33A C28A 1_555 1_555
H24A C33A 1_555 1_555
F1A C34 1_555 1_555
F2A C34 1_555 1_555
O1A S1 1_555 1_555
O2A S1 1_555 1_555
O3A S1 1_555 1_555
F3A C34 1_555 1_555
C4 C5 1_555 1_555
C10 C11 1_555 1_555
C15 C16 1_555 1_555
C20 C21 1_555 1_555
C26 C27 1_555 1_555
C32 C33 1_555 1_555
F1 F2A 1_555 1_555
F1 F3A 1_555 1_555
F2 F1A 1_555 1_555
F2 F3A 1_555 1_555
O1 O3A 1_555 1_555
O2 O1A 1_555 1_555
O2 O3A 1_555 1_555
O3 O1A 1_555 1_555
O3 O2A 1_555 1_555
F3 F1A 1_555 1_555
F3 F2A 1_555 1_555
C4A C5A 1_555 1_555
C8A C9A 1_555 1_555
C10A C11A 1_555 1_555
C15A C16A 1_555 1_555
C20A C21A 1_555 1_555
C26A C27A 1_555 1_555
C32A C33A 1_555 1_555

#END
