
#######################################################################
#
#                 Cambridge Crystallographic Data Centre
#                                CCDC 
#
#######################################################################
#
# If this CIF has been generated from an entry in the Cambridge 
# Structural Database, then it will include bibliographic, chemical, 
# crystal, experimental, refinement or atomic coordinate data resulting 
# from the CCDC's data processing and validation procedures.
#
#######################################################################

data_DAPYUP
_symmetry_cell_setting           monoclinic
_symmetry_space_group_name_H-M   'P 21/c'
_symmetry_Int_Tables_number      14
_space_group_name_Hall           '-P 2ybc'
loop_
_symmetry_equiv_pos_site_id
_symmetry_equiv_pos_as_xyz
1 x,y,z
2 -x,1/2+y,1/2-z
3 -x,-y,-z
4 x,1/2-y,1/2+z
_cell_length_a                   8.87700(10)
_cell_length_b                   6.71200(10)
_cell_length_c                   14.4640(2)
_cell_angle_alpha                90
_cell_angle_beta                 101.8990(10)
_cell_angle_gamma                90
_cell_volume                     843.282
loop_
_atom_site_label
_atom_site_type_symbol
_atom_site_fract_x
_atom_site_fract_y
_atom_site_fract_z
Ag1 Ag 0.182285(17) 0.02251(3) 0.108387(11)
O1 O 0.09561(18) -0.2969(3) 0.17121(11)
O2 O -0.04854(19) -0.2649(3) 0.27396(13)
O3 O 0.08944(17) -0.3778(3) 0.44770(11)
O4 O 0.33274(16) -0.3073(2) 0.48990(10)
O5 O 0.37246(18) -0.1256(3) 0.22572(11)
N1 N 0.0808(2) -0.2763(3) 0.25410(13)
C1 C 0.2166(2) -0.2635(3) 0.32635(14)
C2 C 0.2026(2) -0.3177(3) 0.42015(14)
C3 C 0.4726(2) -0.2509(3) 0.47205(15)
C4 C 0.5943(2) -0.2480(3) 0.55117(15)
H1 H 0.5783 -0.2847 0.6118
C5 C 0.7389(2) -0.1900(3) 0.53845(16)
H2 H 0.8234 -0.1875 0.5908
C6 C 0.7604(2) -0.1351(3) 0.44844(17)
H3 H 0.8596 -0.0953 0.4404
C7 C 0.6381(2) -0.1385(3) 0.37101(15)
H4 H 0.6535 -0.1009 0.3103
C8 C 0.4914(2) -0.1979(3) 0.38304(14)
C9 C 0.3571(2) -0.1928(3) 0.30301(14)
Ag1C Ag 0.182285(17) -0.52251(3) 0.608387(11)
Ag1A Ag -0.182285(17) -0.47749(3) 0.391613(11)
Ag1A_2 Ag 0.817715(17) -0.47749(3) 0.391613(11)
O3C O 0.08944(17) -0.1222(3) -0.05230(11)
O3A O -0.08944(17) 0.1222(3) 0.05230(11)
C6A C 0.2396(2) 0.3649(3) 0.05156(17)
H3A H 0.1404 0.4047 0.0596
loop_
_geom_bond_atom_site_label_1
_geom_bond_atom_site_label_2
_geom_bond_site_symmetry_1
_geom_bond_site_symmetry_2
Ag1 O1 1_555 1_555
O1 N1 1_555 1_555
O2 N1 1_555 1_555
O3 C2 1_555 1_555
O4 C2 1_555 1_555
O5 Ag1 1_555 1_555
N1 C1 1_555 1_555
C1 C2 1_555 1_555
C3 O4 1_555 1_555
C4 C3 1_555 1_555
H1 C4 1_555 1_555
C5 C4 1_555 1_555
H2 C5 1_555 1_555
C6 C5 1_555 1_555
H3 C6 1_555 1_555
C7 C6 1_555 1_555
H4 C7 1_555 1_555
C8 C3 1_555 1_555
C9 O5 1_555 1_555
Ag1C O3 1_555 1_555
Ag1A O3 1_555 1_555
Ag1A_2 C6 1_555 1_555
O3C Ag1 1_555 1_555
O3A Ag1 1_555 1_555
C6A Ag1 1_555 1_555
H3A C6A 1_555 1_555
C1 C9 1_555 1_555
C7 C8 1_555 1_555
C8 C9 1_555 1_555

#END
