
#######################################################################
#
#                 Cambridge Crystallographic Data Centre
#                                CCDC 
#
#######################################################################
#
# If this CIF has been generated from an entry in the Cambridge 
# Structural Database, then it will include bibliographic, chemical, 
# crystal, experimental, refinement or atomic coordinate data resulting 
# from the CCDC's data processing and validation procedures.
#
#######################################################################

data_DAPYEA
_symmetry_cell_setting           triclinic
_symmetry_space_group_name_H-M   'P -1'
_symmetry_Int_Tables_number      2
_space_group_name_Hall           '-P 1'
loop_
_symmetry_equiv_pos_site_id
_symmetry_equiv_pos_as_xyz
1 x,y,z
2 -x,-y,-z
_cell_length_a                   10.0514(6)
_cell_length_b                   14.6745(8)
_cell_length_c                   14.8435(8)
_cell_angle_alpha                69.202(3)
_cell_angle_beta                 83.200(4)
_cell_angle_gamma                88.432(4)
_cell_volume                     2032.09
loop_
_atom_site_label
_atom_site_type_symbol
_atom_site_fract_x
_atom_site_fract_y
_atom_site_fract_z
Cd1 Cd 0.5000 -0.5000 0.5000
Cd2 Cd 0.39858(5) -0.61563(3) 0.31979(3)
O1 O 0.3630(5) -0.4590(3) 0.2588(3)
O2 O 0.3710(5) -0.4136(3) 0.3863(3)
O3 O -0.4067(5) 0.3914(4) 0.2135(4)
O4 O -0.4700(5) 0.2492(4) 0.3201(3)
O5 O 0.4339(4) 0.3566(3) -0.5153(2)
O6 O 0.2417(4) 0.3142(3) -0.5448(3)
C1 C 0.1783(5) -0.0124(4) 0.0774(4)
C2 C 0.0819(6) 0.0314(4) 0.1213(4)
H1 H 0.0542 0.0012 0.1872
C3 C 0.0242(6) 0.1195(4) 0.0704(4)
C4 C 0.0686(5) 0.1637(4) -0.0286(4)
H2 H 0.0314 0.2225 -0.0637
C5 C 0.1653(5) 0.1229(4) -0.0754(3)
C6 C 0.2196(6) 0.0350(4) -0.0223(4)
H3 H 0.2849 0.0066 -0.0533
C7 C 0.2279(5) -0.1102(4) 0.1327(4)
C8 C 0.2561(6) -0.1803(4) 0.0928(4)
H4 H 0.2504 -0.1645 0.0269
C9 C 0.2927(6) -0.2735(4) 0.1458(4)
H5 H 0.3081 -0.3194 0.1160
C10 C 0.3066(6) -0.2986(4) 0.2427(4)
C11 C 0.2810(6) -0.2282(4) 0.2839(4)
H6 H 0.2898 -0.2437 0.3494
C12 C 0.2430(6) -0.1359(4) 0.2308(4)
H7 H 0.2272 -0.0900 0.2606
C13 C -0.0824(6) 0.1665(4) 0.1203(4)
C14 C -0.0836(7) 0.2666(5) 0.0980(5)
H8 H -0.0163 0.3052 0.0534
C15 C -0.1806(8) 0.3089(5) 0.1396(5)
H9 H -0.1788 0.3761 0.1240
C16 C -0.2821(7) 0.2542(5) 0.2048(4)
C17 C -0.2769(7) 0.1533(5) 0.2318(4)
H10 H -0.3415 0.1142 0.2787
C18 C -0.1773(6) 0.1113(4) 0.1897(4)
H11 H -0.1744 0.0437 0.2088
C19 C 0.2073(6) 0.1711(4) -0.1800(4)
C20 C 0.1115(6) 0.2092(5) -0.2432(4)
H12 H 0.0216 0.2047 -0.2182
C21 C 0.1456(6) 0.2534(4) -0.3422(4)
H13 H 0.0787 0.2750 -0.3829
C22 C 0.2805(6) 0.2658(4) -0.3814(4)
C23 C 0.3765(6) 0.2315(5) -0.3185(4)
H14 H 0.4668 0.2397 -0.3428
C24 C 0.3404(6) 0.1846(5) -0.2189(4)
H15 H 0.4070 0.1621 -0.1781
C25 C 0.3512(6) -0.3996(4) 0.2999(4)
C26 C -0.3912(7) 0.3034(6) 0.2485(5)
C27 C 0.3205(6) 0.3165(4) -0.4870(4)
O7 O 0.6833(6) -0.5025(4) 0.3908(4)
O8 O 0.2553(6) -0.6503(5) 0.2273(4)
C28 C 0.2967(11) -0.6815(8) 0.1635(7)
N1 N 0.3142(9) -0.7709(7) 0.1720(6)
N2 N 0.3214(10) -0.6187(7) 0.0758(6)
C29 C 0.3781(12) -0.8086(8) 0.1022(8)
H16 H 0.4601 -0.8406 0.1244
H17 H 0.3197 -0.8570 0.0957
C30 C 0.2658(14) -0.8419(9) 0.2639(8)
H18 H 0.2258 -0.8095 0.3061
H19 H 0.3391 -0.8806 0.2922
H20 H 0.2001 -0.8833 0.2550
C31 C 0.4078(13) -0.7358(9) 0.0129(8)
H21 H 0.3705 -0.7573 -0.0336
H22 H 0.5044 -0.7355 -0.0022
C32 C 0.3702(14) -0.6341(8) -0.0096(7)
H23 H 0.4476 -0.5921 -0.0413
H24 H 0.3019 -0.6183 -0.0535
C33 C 0.3172(16) -0.5171(9) 0.0519(9)
H25 H 0.2846 -0.5025 0.1087
H26 H 0.2584 -0.4897 0.0028
H27 H 0.4056 -0.4897 0.0279
Cd1_2 Cd 0.5000 0.5000 -0.5000
Cd1_3 Cd 0.5000 -1.5000 1.5000
Cd2_2 Cd 0.39858(5) -1.61563(3) 1.31979(3)
Cd2_3 Cd -0.60142(5) 0.38437(3) 0.31979(3)
Cd2_4 Cd 0.39858(5) 0.38437(3) -0.68021(3)
Cd2_5 Cd -0.60142(5) -0.61563(3) 1.31979(3)
O1_2 O 0.3630(5) -1.4590(3) 1.2588(3)
O2_2 O 0.3710(5) -1.4136(3) 1.3863(3)
O2A O 0.6290(5) -0.5864(3) 0.6137(3)
O3_2 O -0.4067(5) -0.6086(4) 1.2135(4)
O3_3 O 0.5933(5) -0.6086(4) 0.2135(4)
O3_4 O 0.5933(5) -1.6086(4) 1.2135(4)
O4_2 O -0.4700(5) -0.7508(4) 1.3201(3)
O4_3 O 0.5300(5) -0.7508(4) 0.3201(3)
O4_4 O 0.5300(5) -1.7508(4) 1.3201(3)
O5_2 O 0.4339(4) -0.6434(3) 0.4847(2)
O5A O 0.5661(4) -0.3566(3) 0.5153(2)
O5_3 O 0.4339(4) -1.6434(3) 1.4847(2)
O6_2 O 0.2417(4) -0.6858(3) 0.4552(3)
O6_3 O 0.2417(4) -1.6858(3) 1.4552(3)
C1_2 C 0.1783(5) -1.0124(4) 1.0774(4)
C2_2 C 0.0819(6) -0.9686(4) 1.1213(4)
H1_2 H 0.0542 -0.9988 1.1872
C3_2 C 0.0242(6) -0.8805(4) 1.0704(4)
C4_2 C 0.0686(5) -0.8363(4) 0.9714(4)
H2_2 H 0.0314 -0.7775 0.9363
C5_2 C 0.1653(5) -0.8771(4) 0.9246(3)
C6_2 C 0.2196(6) -0.9650(4) 0.9777(4)
H3_2 H 0.2849 -0.9934 0.9467
C7_2 C 0.2279(5) -1.1102(4) 1.1327(4)
C8_2 C 0.2561(6) -1.1803(4) 1.0928(4)
H4_2 H 0.2504 -1.1645 1.0269
C9_2 C 0.2927(6) -1.2735(4) 1.1458(4)
H5_2 H 0.3081 -1.3194 1.1160
C10_2 C 0.3066(6) -1.2986(4) 1.2427(4)
C11_2 C 0.2810(6) -1.2282(4) 1.2839(4)
H6_2 H 0.2898 -1.2437 1.3494
C12_2 C 0.2430(6) -1.1359(4) 1.2308(4)
H7_2 H 0.2272 -1.0900 1.2606
C13_2 C -0.0824(6) -0.8335(4) 1.1203(4)
C14_2 C -0.0836(7) -0.7334(5) 1.0980(5)
H8_2 H -0.0163 -0.6948 1.0534
C15_2 C -0.1806(8) -0.6911(5) 1.1396(5)
H9_2 H -0.1788 -0.6239 1.1240
C16_2 C -0.2821(7) -0.7458(5) 1.2048(4)
C17_2 C -0.2769(7) -0.8467(5) 1.2318(4)
H10_2 H -0.3415 -0.8858 1.2787
C18_2 C -0.1773(6) -0.8887(4) 1.1897(4)
H11_2 H -0.1744 -0.9563 1.2088
C19_2 C 0.2073(6) -0.8289(4) 0.8200(4)
C20_2 C 0.1115(6) -0.7908(5) 0.7568(4)
H12_2 H 0.0216 -0.7953 0.7818
C21_2 C 0.1456(6) -0.7466(4) 0.6578(4)
H13_2 H 0.0787 -0.7250 0.6171
C22_2 C 0.2805(6) -0.7342(4) 0.6186(4)
C23_2 C 0.3765(6) -0.7685(5) 0.6815(4)
H14_2 H 0.4668 -0.7603 0.6572
C24_2 C 0.3404(6) -0.8154(5) 0.7811(4)
H15_2 H 0.4070 -0.8379 0.8219
C25_2 C 0.3512(6) -1.3996(4) 1.2999(4)
C26_2 C -0.3912(7) -0.6966(6) 1.2485(5)
C27_2 C 0.3205(6) -0.6835(4) 0.5130(4)
O7A O 0.3167(6) -0.4975(4) 0.6092(4)
O8_2 O 0.2553(6) -1.6503(5) 1.2273(4)
C28_2 C 0.2967(11) -1.6815(8) 1.1635(7)
N1_2 N 0.3142(9) -1.7709(7) 1.1720(6)
N2_2 N 0.3214(10) -1.6187(7) 1.0758(6)
C29_2 C 0.3781(12) -1.8086(8) 1.1022(8)
H16_2 H 0.4601 -1.8406 1.1244
H17_2 H 0.3197 -1.8570 1.0957
C30_2 C 0.2658(14) -1.8419(9) 1.2639(8)
H18_2 H 0.2258 -1.8095 1.3061
H19_2 H 0.3391 -1.8806 1.2922
H20_2 H 0.2001 -1.8833 1.2550
C31_2 C 0.4078(13) -1.7358(9) 1.0129(8)
H21_2 H 0.3705 -1.7573 0.9664
H22_2 H 0.5044 -1.7355 0.9978
C32_2 C 0.3702(14) -1.6341(8) 0.9904(7)
H23_2 H 0.4476 -1.5921 0.9587
H24_2 H 0.3019 -1.6183 0.9465
C33_2 C 0.3172(16) -1.5171(9) 1.0519(9)
H25_2 H 0.2846 -1.5025 1.1087
H26_2 H 0.2584 -1.4897 1.0028
H27_2 H 0.4056 -1.4897 1.0279
loop_
_geom_bond_atom_site_label_1
_geom_bond_atom_site_label_2
_geom_bond_site_symmetry_1
_geom_bond_site_symmetry_2
Cd1 O2 1_555 1_555
Cd2 O1 1_555 1_555
O1 C25 1_555 1_555
O2 C25 1_555 1_555
O3 C26 1_555 1_555
O4 C26 1_555 1_555
O5 C27 1_555 1_555
O6 C27 1_555 1_555
C1 C2 1_555 1_555
C2 H1 1_555 1_555
C3 C2 1_555 1_555
C4 C3 1_555 1_555
H2 C4 1_555 1_555
C5 C4 1_555 1_555
C6 C1 1_555 1_555
H3 C6 1_555 1_555
C7 C1 1_555 1_555
C8 C7 1_555 1_555
H4 C8 1_555 1_555
C9 C8 1_555 1_555
H5 C9 1_555 1_555
C10 C9 1_555 1_555
C11 C10 1_555 1_555
H6 C11 1_555 1_555
C12 C7 1_555 1_555
H7 C12 1_555 1_555
C13 C3 1_555 1_555
C14 C13 1_555 1_555
H8 C14 1_555 1_555
C15 C14 1_555 1_555
H9 C15 1_555 1_555
C16 C15 1_555 1_555
C17 C16 1_555 1_555
H10 C17 1_555 1_555
C18 C13 1_555 1_555
H11 C18 1_555 1_555
C19 C5 1_555 1_555
C20 C19 1_555 1_555
H12 C20 1_555 1_555
C21 C20 1_555 1_555
H13 C21 1_555 1_555
C22 C21 1_555 1_555
C23 C22 1_555 1_555
H14 C23 1_555 1_555
C24 C19 1_555 1_555
H15 C24 1_555 1_555
C25 C10 1_555 1_555
C26 C16 1_555 1_555
C27 C22 1_555 1_555
O7 Cd1 1_555 1_555
O8 Cd2 1_555 1_555
C28 O8 1_555 1_555
N1 C28 1_555 1_555
N2 C28 1_555 1_555
C29 N1 1_555 1_555
H16 C29 1_555 1_555
H17 C29 1_555 1_555
C30 N1 1_555 1_555
H18 C30 1_555 1_555
H19 C30 1_555 1_555
H20 C30 1_555 1_555
C31 C29 1_555 1_555
H21 C31 1_555 1_555
H22 C31 1_555 1_555
C32 N2 1_555 1_555
H23 C32 1_555 1_555
H24 C32 1_555 1_555
C33 N2 1_555 1_555
H25 C33 1_555 1_555
H26 C33 1_555 1_555
H27 C33 1_555 1_555
Cd1_2 O5 1_555 1_555
Cd1_3 O2_2 1_555 1_555
Cd2_2 O1_2 1_555 1_555
Cd2_3 O3 1_555 1_555
Cd2_4 O5 1_555 1_555
Cd2_5 O3_2 1_555 1_555
O1_2 C25_2 1_555 1_555
O2_2 C25_2 1_555 1_555
O2A Cd1 1_555 1_555
O3_2 C26_2 1_555 1_555
O3_3 Cd2 1_555 1_555
O3_4 Cd2_2 1_555 1_555
O4_2 Cd2_5 1_555 1_555
O4_3 Cd2 1_555 1_555
O4_4 Cd2_2 1_555 1_555
O5_2 Cd1 1_555 1_555
O5A Cd1 1_555 1_555
O5_3 Cd1_3 1_555 1_555
O6_2 Cd2 1_555 1_555
O6_3 Cd2_2 1_555 1_555
C1_2 C2_2 1_555 1_555
C2_2 H1_2 1_555 1_555
C3_2 C2_2 1_555 1_555
C4_2 C3_2 1_555 1_555
H2_2 C4_2 1_555 1_555
C5_2 C4_2 1_555 1_555
C6_2 C1_2 1_555 1_555
H3_2 C6_2 1_555 1_555
C7_2 C1_2 1_555 1_555
C8_2 C7_2 1_555 1_555
H4_2 C8_2 1_555 1_555
C9_2 C8_2 1_555 1_555
H5_2 C9_2 1_555 1_555
C10_2 C9_2 1_555 1_555
C11_2 C10_2 1_555 1_555
H6_2 C11_2 1_555 1_555
C12_2 C7_2 1_555 1_555
H7_2 C12_2 1_555 1_555
C13_2 C3_2 1_555 1_555
C14_2 C13_2 1_555 1_555
H8_2 C14_2 1_555 1_555
C15_2 C14_2 1_555 1_555
H9_2 C15_2 1_555 1_555
C16_2 C15_2 1_555 1_555
C17_2 C16_2 1_555 1_555
H10_2 C17_2 1_555 1_555
C18_2 C13_2 1_555 1_555
H11_2 C18_2 1_555 1_555
C19_2 C5_2 1_555 1_555
C20_2 C19_2 1_555 1_555
H12_2 C20_2 1_555 1_555
C21_2 C20_2 1_555 1_555
H13_2 C21_2 1_555 1_555
C22_2 C21_2 1_555 1_555
C23_2 C22_2 1_555 1_555
H14_2 C23_2 1_555 1_555
C24_2 C19_2 1_555 1_555
H15_2 C24_2 1_555 1_555
C25_2 C10_2 1_555 1_555
C26_2 O4_2 1_555 1_555
C27_2 O5_2 1_555 1_555
O7A Cd1 1_555 1_555
O8_2 Cd2_2 1_555 1_555
C28_2 O8_2 1_555 1_555
N1_2 C28_2 1_555 1_555
N2_2 C28_2 1_555 1_555
C29_2 N1_2 1_555 1_555
H16_2 C29_2 1_555 1_555
H17_2 C29_2 1_555 1_555
C30_2 N1_2 1_555 1_555
H18_2 C30_2 1_555 1_555
H19_2 C30_2 1_555 1_555
H20_2 C30_2 1_555 1_555
C31_2 C29_2 1_555 1_555
H21_2 C31_2 1_555 1_555
H22_2 C31_2 1_555 1_555
C32_2 N2_2 1_555 1_555
H23_2 C32_2 1_555 1_555
H24_2 C32_2 1_555 1_555
C33_2 N2_2 1_555 1_555
H25_2 C33_2 1_555 1_555
H26_2 C33_2 1_555 1_555
H27_2 C33_2 1_555 1_555
Cd2 O5_2 1_555 1_555
O4 Cd2_3 1_555 1_555
O6 Cd2_4 1_555 1_555
C5 C6 1_555 1_555
C11 C12 1_555 1_555
C17 C18 1_555 1_555
C23 C24 1_555 1_555
C31 C32 1_555 1_555
Cd2_2 O5_3 1_555 1_555
O6_2 C27_2 1_555 1_555
C5_2 C6_2 1_555 1_555
C11_2 C12_2 1_555 1_555
C16_2 C26_2 1_555 1_555
C17_2 C18_2 1_555 1_555
C22_2 C27_2 1_555 1_555
C23_2 C24_2 1_555 1_555
C31_2 C32_2 1_555 1_555

#END
