
#######################################################################
#
#                 Cambridge Crystallographic Data Centre
#                                CCDC 
#
#######################################################################
#
# If this CIF has been generated from an entry in the Cambridge 
# Structural Database, then it will include bibliographic, chemical, 
# crystal, experimental, refinement or atomic coordinate data resulting 
# from the CCDC's data processing and validation procedures.
#
#######################################################################

data_DAQFAC
_symmetry_cell_setting           monoclinic
_symmetry_space_group_name_H-M   'P 21/c'
_symmetry_Int_Tables_number      14
_space_group_name_Hall           '-P 2ybc'
loop_
_symmetry_equiv_pos_site_id
_symmetry_equiv_pos_as_xyz
1 x,y,z
2 x,1/2-y,1/2+z
3 -x,-y,-z
4 -x,1/2+y,1/2-z
_cell_length_a                   10.7824(15)
_cell_length_b                   17.348(2)
_cell_length_c                   14.0835(18)
_cell_angle_alpha                90
_cell_angle_beta                 97.405(3)
_cell_angle_gamma                90
_cell_volume                     2612.39
loop_
_atom_site_label
_atom_site_type_symbol
_atom_site_fract_x
_atom_site_fract_y
_atom_site_fract_z
Cu1 Cu -0.39279(6) 0.17679(4) -0.23243(4)
Cu2 Cu -0.88805(6) 0.21779(4) -0.17204(5)
S1 S -0.81154(14) 0.10114(8) -0.21497(11)
S2 S -0.29502(13) 0.20729(9) -0.07975(10)
N1 N -0.5595(4) 0.1341(2) -0.2299(3)
N2 N -1.0463(5) 0.2167(3) -0.1169(3)
N3 N -0.4291(4) 0.2810(2) -0.3109(3)
N4 N -0.2688(4) 0.1182(2) -0.3038(3)
N5 N -0.0651(4) 0.7072(2) -0.7103(3)
N6 N 0.2435(4) 0.2888(2) -0.0930(3)
C1 C -0.6633(5) 0.1214(3) -0.2231(3)
C2 C -0.1481(5) 0.2133(3) -0.1022(3)
C3 C -0.3889(5) 0.3504(3) -0.2807(4)
H1 H -0.3334 0.3535 -0.2245
C4 C -0.4247(6) 0.4176(3) -0.3276(4)
H2 H -0.3944 0.4645 -0.3024
C5 C -0.5054(5) 0.4160(3) -0.4119(4)
C6 C -0.5463(5) 0.3442(3) -0.4448(4)
H3 H -0.6000 0.3396 -0.5017
C7 C -0.5072(5) 0.2798(3) -0.3931(4)
H4 H -0.5369 0.2323 -0.4165
C8 C -0.5458(6) 0.4886(3) -0.4675(4)
H5 H -0.6267 0.4800 -0.5049
H6 H -0.5548 0.5303 -0.4229
C9 C -0.2244(5) 0.1465(3) -0.3808(4)
H7 H -0.2520 0.1951 -0.4022
C10 C -0.1411(6) 0.1091(3) -0.4308(4)
H8 H -0.1157 0.1319 -0.4849
C11 C -0.0953(4) 0.0382(3) -0.4008(4)
C12 C -0.1390(5) 0.0085(3) -0.3210(4)
H9 H -0.1117 -0.0395 -0.2975
C13 C -0.2232(5) 0.0499(3) -0.2757(4)
H10 H -0.2500 0.0283 -0.2214
C14 C -0.0025(5) -0.0070(3) -0.4492(3)
H11 H 0.0801 0.0030 -0.4152
H12 H -0.0198 -0.0614 -0.4413
C15 C -0.1467(6) 0.6858(3) -0.6516(4)
H13 H -0.2252 0.7088 -0.6587
C16 C -0.1197(6) 0.6310(3) -0.5807(4)
H14 H -0.1801 0.6173 -0.5422
C17 C -0.0042(6) 0.5967(3) -0.5668(4)
C18 C 0.0787(6) 0.6180(3) -0.6274(4)
H15 H 0.1575 0.5954 -0.6223
C19 C 0.0453(5) 0.6729(3) -0.6955(4)
H16 H 0.1047 0.6872 -0.7345
C20 C 0.0286(6) 0.5380(3) -0.4881(4)
H17 H -0.0007 0.4432 -0.5705
H18 H -0.1188 0.4678 -0.5235
C21 C 0.3501(5) 0.3081(3) -0.1256(4)
H19 H 0.3751 0.2800 -0.1761
C22 C 0.4248(5) 0.3683(3) -0.0875(4)
H20 H 0.4976 0.3804 -0.1133
C23 C 0.3921(5) 0.4105(3) -0.0116(4)
C24 C 0.2843(5) 0.3884(3) 0.0227(4)
H21 H 0.2593 0.4142 0.0749
C25 C 0.2127(5) 0.3290(3) -0.0184(4)
H22 H 0.1397 0.3161 0.0065
C26 C 0.4679(6) 0.4780(3) 0.0306(4)
H23 H 0.5879 0.4878 -0.0594
H24 H 0.4713 0.5412 -0.0819
N2_2 N -0.0463(5) 0.2167(3) -0.1169(3)
Cu2_2 Cu 0.11195(6) 0.21779(4) -0.17204(5)
S1_2 S 0.18846(14) 0.10114(8) -0.21497(11)
C1_2 C 0.3367(5) 0.1214(3) -0.2231(3)
N1_2 N 0.4405(4) 0.1341(2) -0.2299(3)
Cu1_2 Cu 0.60721(6) 0.17679(4) -0.23243(4)
S2_2 S 0.70498(13) 0.20729(9) -0.07975(10)
N3_2 N 0.5709(4) 0.2810(2) -0.3109(3)
Cu2B Cu -0.11195(6) 0.78221(4) -0.82796(5)
Cu1B Cu -0.60721(6) 0.82321(4) -0.76757(4)
N3B N -0.5709(4) 0.7190(2) -0.6891(3)
N5B N -0.9349(4) 0.2928(2) -0.2897(3)
C20B C -0.0286(6) 0.4620(3) -0.5119(4)
C17B C 0.0042(6) 0.4033(3) -0.4332(4)
C16B C 0.1197(6) 0.3690(3) -0.4193(4)
C15B C 0.1467(6) 0.3142(3) -0.3484(4)
N5B_2 N 0.0651(4) 0.2928(2) -0.2897(3)
N6_2 N -0.7565(4) 0.2888(2) -0.0930(3)
C26B C 0.5321(6) 0.5220(3) -0.0306(4)
C23B C 0.6079(5) 0.5895(3) 0.0116(4)
C22B C 0.5752(5) 0.6317(3) 0.0875(4)
C21B C 0.6499(5) 0.6919(3) 0.1256(4)
N6B N 0.7565(4) 0.7112(2) 0.0930(3)
Cu2B_2 Cu 0.88805(6) 0.78221(4) 0.17204(5)
C25B C 0.7873(5) 0.6710(3) 0.0184(4)
C24B C 0.7157(5) 0.6116(3) -0.0227(4)
H21B H 0.7407 0.5858 -0.0749
H22B H 0.8603 0.6839 -0.0065
H19B H 0.6249 0.7200 0.1761
H20B H 0.5024 0.6196 0.1133
H23B H 0.4121 0.5122 0.0594
H24B H 0.5287 0.4588 0.0819
C19B C -0.0453(5) 0.3271(3) -0.3045(4)
C18B C -0.0787(6) 0.3820(3) -0.3726(4)
H15B H -0.1575 0.4046 -0.3777
H16B H -0.1047 0.3128 -0.2655
H13B H 0.2252 0.2912 -0.3413
H14B H 0.1801 0.3827 -0.4578
H17B H 0.0007 0.5568 -0.4295
H18B H 0.1188 0.5322 -0.4765
N4_2 N 0.7312(4) 0.1182(2) -0.3038(3)
C2_2 C -1.1481(5) 0.2133(3) -0.1022(3)
C8B C -0.4542(6) 0.5114(3) -0.5325(4)
C14B C 0.0025(5) 0.0070(3) -0.5508(3)
C11B C 0.0953(4) -0.0382(3) -0.5992(4)
H11B H -0.0801 -0.0030 -0.5848
H12B H 0.0198 0.0614 -0.5587
C3B C -0.6111(5) 0.6496(3) -0.7193(4)
C7B C -0.4928(5) 0.7202(3) -0.6069(4)
S2_3 S -1.29502(13) 0.20729(9) -0.07975(10)
C5B C -0.4946(5) 0.5840(3) -0.5881(4)
H5B H -0.3733 0.5200 -0.4951
H6B H -0.4452 0.4697 -0.5771
C10B C 0.1411(6) -0.1091(3) -0.5692(4)
C12B C 0.1390(5) -0.0085(3) -0.6790(4)
H1B H -0.6666 0.6465 -0.7755
C4B C -0.5753(6) 0.5824(3) -0.6724(4)
C6B C -0.4537(5) 0.6558(3) -0.5552(4)
H4B H -0.4631 0.7677 -0.5835
Cu1_3 Cu -1.39279(6) 0.17679(4) -0.23243(4)
C9B C 0.2244(5) -0.1465(3) -0.6192(4)
H8B H 0.1157 -0.1319 -0.5151
H9B H 0.1117 0.0395 -0.7025
C13B C 0.2232(5) -0.0499(3) -0.7243(4)
H2B H -0.6056 0.5355 -0.6976
H3B H -0.4000 0.6604 -0.4983
N4B N 0.2688(4) -0.1182(2) -0.6962(3)
H7B H 0.2520 -0.1951 -0.5978
H10B H 0.2500 -0.0283 -0.7786
Cu1B_2 Cu 0.39279(6) -0.17679(4) -0.76757(4)
loop_
_geom_bond_atom_site_label_1
_geom_bond_atom_site_label_2
_geom_bond_site_symmetry_1
_geom_bond_site_symmetry_2
Cu1 S2 1_555 1_555
Cu2 S1 1_555 1_555
S1 C1 1_555 1_555
S2 C2 1_555 1_555
N1 Cu1 1_555 1_555
N2 Cu2 1_555 1_555
N3 Cu1 1_555 1_555
N4 Cu1 1_555 1_555
N5 C15 1_555 1_555
N6 C21 1_555 1_555
C1 N1 1_555 1_555
C2 N2_2 1_555 1_555
C3 N3 1_555 1_555
H1 C3 1_555 1_555
C4 C3 1_555 1_555
H2 C4 1_555 1_555
C5 C4 1_555 1_555
C6 C5 1_555 1_555
H3 C6 1_555 1_555
C7 N3 1_555 1_555
H4 C7 1_555 1_555
C8 C5 1_555 1_555
H5 C8 1_555 1_555
H6 C8 1_555 1_555
C9 N4 1_555 1_555
H7 C9 1_555 1_555
C10 C9 1_555 1_555
H8 C10 1_555 1_555
C11 C10 1_555 1_555
C12 C11 1_555 1_555
H9 C12 1_555 1_555
C13 N4 1_555 1_555
H10 C13 1_555 1_555
C14 C11 1_555 1_555
H11 C14 1_555 1_555
H12 C14 1_555 1_555
C15 H13 1_555 1_555
C16 C15 1_555 1_555
H14 C16 1_555 1_555
C17 C16 1_555 1_555
C18 C17 1_555 1_555
H15 C18 1_555 1_555
C19 N5 1_555 1_555
H16 C19 1_555 1_555
C20 C17 1_555 1_555
H17 C20B 1_555 1_555
H18 C20B 1_555 1_555
C21 H19 1_555 1_555
C22 C21 1_555 1_555
H20 C22 1_555 1_555
C23 C22 1_555 1_555
C24 C23 1_555 1_555
H21 C24 1_555 1_555
C25 N6 1_555 1_555
H22 C25 1_555 1_555
C26 C23 1_555 1_555
H23 C26B 1_555 1_555
H24 C26B 1_555 1_555
N2_2 Cu2_2 1_555 1_555
Cu2_2 N6 1_555 1_555
S1_2 Cu2_2 1_555 1_555
C1_2 S1_2 1_555 1_555
N1_2 C1_2 1_555 1_555
Cu1_2 N1_2 1_555 1_555
S2_2 Cu1_2 1_555 1_555
N3_2 Cu1_2 1_555 1_555
Cu2B N5 1_555 1_555
Cu1B N3B 1_555 1_555
N3B C3B 1_555 1_555
N5B Cu2 1_555 1_555
C20B C20 1_555 1_555
C17B C20B 1_555 1_555
C16B C17B 1_555 1_555
C15B C16B 1_555 1_555
N5B_2 Cu2_2 1_555 1_555
N6_2 Cu2 1_555 1_555
C26B C26 1_555 1_555
C23B C26B 1_555 1_555
C22B C23B 1_555 1_555
C21B C22B 1_555 1_555
N6B C21B 1_555 1_555
Cu2B_2 N6B 1_555 1_555
C25B N6B 1_555 1_555
C24B C23B 1_555 1_555
H21B C24B 1_555 1_555
H22B C25B 1_555 1_555
H19B C21B 1_555 1_555
H20B C22B 1_555 1_555
H23B C26 1_555 1_555
H24B C26 1_555 1_555
C19B N5B_2 1_555 1_555
C18B C17B 1_555 1_555
H15B C18B 1_555 1_555
H16B C19B 1_555 1_555
H13B C15B 1_555 1_555
H14B C16B 1_555 1_555
H17B C20 1_555 1_555
H18B C20 1_555 1_555
N4_2 Cu1_2 1_555 1_555
C2_2 N2 1_555 1_555
C8B C8 1_555 1_555
C14B C14 1_555 1_555
C11B C14B 1_555 1_555
H11B C14B 1_555 1_555
H12B C14B 1_555 1_555
C3B H1B 1_555 1_555
C7B N3B 1_555 1_555
S2_3 C2_2 1_555 1_555
C5B C8B 1_555 1_555
H5B C8B 1_555 1_555
H6B C8B 1_555 1_555
C10B C11B 1_555 1_555
C12B C11B 1_555 1_555
C4B C3B 1_555 1_555
C6B C7B 1_555 1_555
H4B C7B 1_555 1_555
Cu1_3 S2_3 1_555 1_555
C9B C10B 1_555 1_555
H8B C10B 1_555 1_555
H9B C12B 1_555 1_555
C13B C12B 1_555 1_555
H2B C4B 1_555 1_555
H3B C6B 1_555 1_555
N4B C9B 1_555 1_555
H7B C9B 1_555 1_555
H10B C13B 1_555 1_555
Cu1B_2 N4B 1_555 1_555
C6 C7 1_555 1_555
C12 C13 1_555 1_555
C18 C19 1_555 1_555
C24 C25 1_555 1_555
C15B N5B_2 1_555 1_555
C25B C24B 1_555 1_555
C19B C18B 1_555 1_555
C5B C4B 1_555 1_555
C5B C6B 1_555 1_555
C13B N4B 1_555 1_555

#END
