
#######################################################################
#
#                 Cambridge Crystallographic Data Centre
#                                CCDC 
#
#######################################################################
#
# If this CIF has been generated from an entry in the Cambridge 
# Structural Database, then it will include bibliographic, chemical, 
# crystal, experimental, refinement or atomic coordinate data resulting 
# from the CCDC's data processing and validation procedures.
#
#######################################################################

data_DAQKEN
_symmetry_cell_setting           monoclinic
_symmetry_space_group_name_H-M   'C 2/c'
_symmetry_Int_Tables_number      15
_space_group_name_Hall           '-C 2yn'
loop_
_symmetry_equiv_pos_site_id
_symmetry_equiv_pos_as_xyz
1 x,y,z
2 -x,y,1/2-z
3 1/2+x,1/2+y,z
4 1/2-x,1/2+y,1/2-z
5 -x,-y,-z
6 x,-y,1/2+z
7 1/2-x,1/2-y,-z
8 1/2+x,1/2-y,1/2+z
_cell_length_a                   20.517(11)
_cell_length_b                   18.239(9)
_cell_length_c                   18.608(9)
_cell_angle_alpha                90
_cell_angle_beta                 102.650(10)
_cell_angle_gamma                90
_cell_volume                     6794.26
loop_
_atom_site_label
_atom_site_type_symbol
_atom_site_fract_x
_atom_site_fract_y
_atom_site_fract_z
N1 N 0.4174(10) 0.3969(12) -0.1232(12)
C2 C 0.4451(18) 0.3220(13) -0.113(2)
H1 H 0.4307 0.2944 -0.1571
H2 H 0.4294 0.2985 -0.0733
H3 H 0.4930 0.3244 -0.1003
C3 C 0.4409(19) 0.4395(19) -0.0559(17)
H4 H 0.4222 0.4879 -0.0623
H5 H 0.4888 0.4427 -0.0456
H6 H 0.4272 0.4159 -0.0155
C4 C 0.3443(10) 0.393(3) -0.141(2)
H7 H 0.3259 0.4411 -0.1485
H8 H 0.3295 0.3702 -0.1002
H9 H 0.3295 0.3638 -0.1843
C5 C 0.440(2) 0.431(2) -0.185(2)
H10 H 0.4203 0.4792 -0.1939
H11 H 0.4256 0.4017 -0.2286
H12 H 0.4874 0.4351 -0.1737
N2 N 0.782(2) 0.604(2) -0.1453(17)
C6 C 0.826(3) 0.668(3) -0.133(3)
H13 H 0.8687 0.6549 -0.1023
H14 H 0.8063 0.7063 -0.1092
H15 H 0.8331 0.6862 -0.1794
C7 C 0.814(4) 0.546(3) -0.180(5)
H16 H 0.8551 0.5316 -0.1484
H17 H 0.8219 0.5630 -0.2262
H18 H 0.7843 0.5039 -0.1893
C8 C 0.718(2) 0.625(4) -0.194(4)
H19 H 0.6889 0.5831 -0.2013
H20 H 0.7259 0.6409 -0.2404
H21 H 0.6982 0.6637 -0.1716
C9 C 0.770(5) 0.578(5) -0.075(3)
H22 H 0.8119 0.5624 -0.0437
H23 H 0.7399 0.5374 -0.0831
H24 H 0.7517 0.6169 -0.0509
O24 O 0.693(3) 0.828(2) -0.104(3)
O25 O -0.104(2) 0.5795(18) 0.062(3)
O26 O 0.065(4) 0.561(5) 0.242(5)
W1 W 0.72193(5) 0.07285(6) -0.08270(5)
W2 W 0.62676(5) 0.22405(5) -0.16498(5)
W3 W 0.87409(5) 0.17058(7) -0.08261(6)
W4 W 0.84428(5) 0.09846(7) 0.08364(6)
W5 W 0.77913(5) 0.32178(6) -0.16692(5)
Tm1 Tm 0.58750(7) 0.14415(6) 0.00157(6)
P1 P 0.7500 0.2500 0.0000
O1 O 0.7113(13) -0.0103(10) -0.1230(12)
O2 O 0.6529(9) 0.0755(8) -0.0354(11)
O3 O 0.6753(9) 0.1338(9) -0.1587(10)
O4 O 0.7795(12) 0.0621(14) 0.0086(14)
O5 O 0.7836(13) 0.1723(10) -0.0093(15)
O6 O 0.5740(11) 0.2140(19) -0.2499(11)
O7 O 0.5770(9) 0.1927(9) -0.1033(10)
O8 O 0.6136(9) 0.3229(9) -0.1411(11)
O9 O 0.7002(11) 0.2654(9) -0.1987(12)
O10 O 0.6966(10) 0.2047(12) -0.0510(12)
O12 O 0.9305(9) 0.1330(10) -0.1244(11)
O13 O 0.9184(9) 0.2432(10) -0.0322(10)
O14 O 0.8313(16) 0.2312(15) -0.1566(13)
O15 O 0.8016(11) 0.099(2) -0.1122(11)
O16 O 0.8921(9) 0.1168(12) 0.0085(10)
O17 O 0.8879(10) 0.0266(9) 0.1251(12)
O18 O 0.7831(10) 0.1056(9) 0.1424(13)
O19 O 0.7920(13) 0.3548(14) -0.2502(11)
O20 O 0.6492(14) 0.1348(13) 0.0993(14)
O22 O 0.5589(14) 0.0416(15) 0.0707(16)
O23 O 0.4836(19) 0.1762(19) 0.035(3)
O27 O 0.4986(16) -0.0720(15) 0.0596(18)
C1 C 0.519(2) -0.0094(18) 0.0392(11)
W1F W 0.77807(5) 0.42715(6) 0.08270(5)
W2F W 0.87324(5) 0.27595(5) 0.16498(5)
W3F W 0.62591(5) 0.32942(7) 0.08261(6)
W4F W 0.65572(5) 0.40154(7) -0.08364(6)
W5F W 0.72087(5) 0.17822(6) 0.16692(5)
Tm1F Tm 0.91250(7) 0.35585(6) -0.00157(6)
Tm1D Tm 0.41250(7) -0.14415(6) -0.00157(6)
O1F O 0.7887(13) 0.5103(10) 0.1230(12)
O2F O 0.8471(9) 0.4245(8) 0.0354(11)
O3F O 0.8247(9) 0.3662(9) 0.1587(10)
O4F O 0.7205(12) 0.4379(14) -0.0086(14)
O5F O 0.7164(13) 0.3277(10) 0.0093(15)
O6F O 0.9260(11) 0.2860(19) 0.2499(11)
O7F O 0.9230(9) 0.3073(9) 0.1033(10)
O8F O 0.8864(9) 0.1771(9) 0.1411(11)
O9F O 0.7998(11) 0.2346(9) 0.1987(12)
O10F O 0.8034(10) 0.2953(12) 0.0510(12)
O12F O 0.5695(9) 0.3670(10) 0.1244(11)
O13F O 0.5816(9) 0.2568(10) 0.0322(10)
O14F O 0.6687(16) 0.2688(15) 0.1566(13)
O15F O 0.6984(11) 0.401(2) 0.1122(11)
O16F O 0.6079(9) 0.3832(12) -0.0085(10)
O17F O 0.6121(10) 0.4734(9) -0.1251(12)
O18F O 0.7169(10) 0.3944(9) -0.1424(13)
O19F O 0.7080(13) 0.1452(14) 0.2502(11)
O20F O 0.8508(14) 0.3652(13) -0.0993(14)
O22D O 0.4411(14) -0.0416(15) -0.0707(16)
O22F O 0.9411(14) 0.4584(15) -0.0707(16)
O23F O 1.0164(19) 0.3238(19) -0.035(3)
O27D O 0.5014(16) 0.0720(15) -0.0596(18)
O27B O 0.9986(16) 0.4280(15) 0.0596(18)
C1D C 0.481(2) 0.0094(18) -0.0392(11)
O11? O 0.7153(11) 0.2786(13) -0.0757(10)
O21? O 0.8024(11) 0.2736(13) -0.0474(14)
loop_
_geom_bond_atom_site_label_1
_geom_bond_atom_site_label_2
_geom_bond_site_symmetry_1
_geom_bond_site_symmetry_2
W1 O1 1_555 1_555
W2 O3 1_555 1_555
W3 O12 1_555 1_555
W4 O4 1_555 1_555
W5 O9 1_555 1_555
Tm1 O2 1_555 1_555
P1 O5 1_555 1_555
O2 W1 1_555 1_555
O3 W1 1_555 1_555
O4 W1 1_555 1_555
O5 W1 1_555 1_555
O6 W2 1_555 1_555
O7 W2 1_555 1_555
O8 W2 1_555 1_555
O9 W2 1_555 1_555
O10 W2 1_555 1_555
O13 W3 1_555 1_555
O14 W3 1_555 1_555
O15 W1 1_555 1_555
O16 W3 1_555 1_555
O17 W4 1_555 1_555
O18 W4 1_555 1_555
O19 W5 1_555 1_555
O20 Tm1 1_555 1_555
O22 Tm1 1_555 1_555
N1 C2 1_555 1_555
N2 C6 1_555 1_555
O23 Tm1 1_555 1_555
O27 C1 1_555 1_555
C1 O22 1_555 1_555
C2 H1 1_555 1_555
H2 C2 1_555 1_555
H3 C2 1_555 1_555
C3 N1 1_555 1_555
H4 C3 1_555 1_555
H5 C3 1_555 1_555
H6 C3 1_555 1_555
C4 N1 1_555 1_555
H7 C4 1_555 1_555
H8 C4 1_555 1_555
H9 C4 1_555 1_555
C5 N1 1_555 1_555
H10 C5 1_555 1_555
H11 C5 1_555 1_555
H12 C5 1_555 1_555
C6 H13 1_555 1_555
H14 C6 1_555 1_555
H15 C6 1_555 1_555
C7 N2 1_555 1_555
H16 C7 1_555 1_555
H17 C7 1_555 1_555
H18 C7 1_555 1_555
C8 N2 1_555 1_555
H19 C8 1_555 1_555
H20 C8 1_555 1_555
H21 C8 1_555 1_555
C9 N2 1_555 1_555
H22 C9 1_555 1_555
H23 C9 1_555 1_555
H24 C9 1_555 1_555
W1F O1F 1_555 1_555
W2F O3F 1_555 1_555
W3F O12F 1_555 1_555
W4F O8 1_555 1_555
W5F O18 1_555 1_555
Tm1F O13 1_555 1_555
Tm1D O27 1_555 1_555
O2F W1F 1_555 1_555
O3F W1F 1_555 1_555
O4F W1F 1_555 1_555
O5F P1 1_555 1_555
O6F W2F 1_555 1_555
O7F W2F 1_555 1_555
O8F W4 1_555 1_555
O9F W2F 1_555 1_555
O10F P1 1_555 1_555
O13F Tm1 1_555 1_555
O14F W3F 1_555 1_555
O15F W1F 1_555 1_555
O16F W3F 1_555 1_555
O17F W4F 1_555 1_555
O18F W5 1_555 1_555
O19F W5F 1_555 1_555
O20F W5 1_555 1_555
O22D Tm1D 1_555 1_555
O22F Tm1F 1_555 1_555
O23F Tm1F 1_555 1_555
O27D Tm1 1_555 1_555
O27B Tm1F 1_555 1_555
C1D C1 1_555 1_555
W3 O15 1_555 1_555
W4 O5 1_555 1_555
W4 O16 1_555 1_555
W5 O14 1_555 1_555
Tm1 O7 1_555 1_555
P1 O10 1_555 1_555
O20 W5F 1_555 1_555
W1F O5F 1_555 1_555
W2F O8F 1_555 1_555
W2F O10F 1_555 1_555
W3F O13F 1_555 1_555
W3F O15F 1_555 1_555
W4F O4F 1_555 1_555
W4F O5F 1_555 1_555
W4F O16F 1_555 1_555
W4F O18F 1_555 1_555
W5F O9F 1_555 1_555
W5F O14F 1_555 1_555
Tm1F O2F 1_555 1_555
Tm1F O7F 1_555 1_555
Tm1F O20F 1_555 1_555
O22D C1D 1_555 1_555
O27D C1D 1_555 1_555

#END
