
#######################################################################
#
#                 Cambridge Crystallographic Data Centre
#                                CCDC 
#
#######################################################################
#
# If this CIF has been generated from an entry in the Cambridge 
# Structural Database, then it will include bibliographic, chemical, 
# crystal, experimental, refinement or atomic coordinate data resulting 
# from the CCDC's data processing and validation procedures.
#
#######################################################################

data_DAQQOC
_symmetry_cell_setting           triclinic
_symmetry_space_group_name_H-M   'P -1'
_symmetry_Int_Tables_number      2
_space_group_name_Hall           '-P 1'
loop_
_symmetry_equiv_pos_site_id
_symmetry_equiv_pos_as_xyz
1 x,y,z
2 -x,-y,-z
_cell_length_a                   8.291(4)
_cell_length_b                   12.833(7)
_cell_length_c                   12.913(6)
_cell_angle_alpha                115.732(7)
_cell_angle_beta                 105.030(7)
_cell_angle_gamma                90.912(8)
_cell_volume                     1182.23
loop_
_atom_site_label
_atom_site_type_symbol
_atom_site_fract_x
_atom_site_fract_y
_atom_site_fract_z
Ni1 Ni 0.5000 1.0000 1.0000
Na1 Na 0.75662(17) 0.67268(11) 0.38382(11)
N1 N 0.6736(5) 0.7017(3) 0.5613(3)
N2 N 0.4742(5) 0.5005(3) 0.7128(3)
O1 O 0.8113(3) 0.89364(19) 0.45494(19)
O2 O 1.0226(3) 0.80573(19) 0.5574(2)
O3 O 1.0068(3) 0.5736(2) 0.4141(2)
O4 O 0.8393(3) 0.5760(2) 0.1997(2)
O5 O 0.6124(3) 0.73732(19) 0.23532(19)
S1 S 0.58381(12) 0.94079(7) 0.83596(8)
S2 S 0.44472(13) 0.80802(8) 0.92461(8)
C1 C 0.8591(4) 0.9554(3) 0.5769(3)
C2 C 0.8018(4) 1.0548(3) 0.6418(3)
H1 H 0.7254 1.0875 0.6023
C3 C 0.8579(4) 1.1086(3) 0.7692(3)
C4 C 0.7970(5) 1.2095(3) 0.8403(3)
H2 H 0.7179 1.2427 0.8032
C5 C 0.8534(5) 1.2587(3) 0.9636(4)
H3 H 0.8115 1.3245 1.0093
C6 C 0.9731(6) 1.2108(4) 1.0206(4)
H4 H 1.0118 1.2453 1.1042
C7 C 1.0339(5) 1.1134(3) 0.9545(3)
H5 H 1.1142 1.0826 0.9938
C8 C 0.9770(4) 1.0584(3) 0.8272(3)
C9 C 1.0351(4) 0.9551(3) 0.7574(3)
H6 H 1.1134 0.9220 0.7952
C10 C 0.9770(4) 0.9046(3) 0.6357(3)
C11 C 1.1159(5) 0.7355(3) 0.6046(3)
H7 H 1.0483 0.7029 0.6376
H8 H 1.2176 0.7821 0.6681
C12 C 1.1600(5) 0.6397(3) 0.5026(3)
H9 H 1.2263 0.6725 0.4691
H10 H 1.2258 0.5901 0.5306
C13 C 1.0320(6) 0.4973(3) 0.3024(3)
H11 H 0.9523 0.4258 0.2642
H12 H 1.1451 0.4770 0.3164
C14 C 1.0086(5) 0.5539(3) 0.2210(3)
H13 H 1.0860 0.6265 0.2587
H14 H 1.0295 0.5025 0.1459
C15 C 0.7840(5) 0.6199(3) 0.1153(3)
H15 H 0.7797 0.5613 0.0353
H16 H 0.8604 0.6888 0.1362
C16 C 0.6116(5) 0.6503(3) 0.1196(3)
H17 H 0.5674 0.6784 0.0606
H18 H 0.5370 0.5804 0.0981
C17 C 0.6686(5) 0.8540(3) 0.2587(3)
H19 H 0.5873 0.8773 0.2067
H20 H 0.7762 0.8572 0.2428
C18 C 0.6864(5) 0.9338(3) 0.3865(3)
H21 H 0.7229 1.0138 0.4052
H22 H 0.5799 0.9301 0.4036
C19 C 0.5345(4) 0.8011(3) 0.8159(3)
C20 C 0.5588(4) 0.7003(3) 0.7270(3)
C21 C 0.6240(5) 0.7011(3) 0.6354(3)
C22 C 0.5139(5) 0.5892(3) 0.7196(3)
Na1A Na 0.24338(17) 1.32732(11) 1.61618(11)
Na1A_2 Na 0.24338(17) 0.32732(11) 0.61618(11)
Na1_2 Na 0.75662(17) 1.67268(11) 1.38382(11)
N1A N 0.3264(5) 1.2983(3) 1.4387(3)
N2A N 0.5258(5) 1.4995(3) 1.2872(3)
N2A_2 N 0.5258(5) 0.4995(3) 0.2872(3)
N2_2 N 0.4742(5) 1.5005(3) 1.7128(3)
O1A O 0.1887(3) 1.10636(19) 1.54506(19)
O2A O -0.0226(3) 1.19427(19) 1.4426(2)
O3A O -0.0068(3) 1.4264(2) 1.5859(2)
O4A O 0.1607(3) 1.4240(2) 1.8003(2)
O5A O 0.3876(3) 1.26268(19) 1.76468(19)
S1A S 0.41619(12) 1.05921(7) 1.16404(8)
S2A S 0.55528(13) 1.19198(8) 1.07539(8)
C1A C 0.1409(4) 1.0446(3) 1.4231(3)
C2A C 0.1982(4) 0.9452(3) 1.3582(3)
H1A H 0.2746 0.9125 1.3977
C3A C 0.1421(4) 0.8914(3) 1.2308(3)
C4A C 0.2030(5) 0.7905(3) 1.1597(3)
H2A H 0.2821 0.7573 1.1968
C5A C 0.1466(5) 0.7413(3) 1.0364(4)
H3A H 0.1885 0.6755 0.9907
C6A C 0.0269(6) 0.7892(4) 0.9794(4)
H4A H -0.0118 0.7547 0.8958
C7A C -0.0339(5) 0.8866(3) 1.0455(3)
H5A H -0.1142 0.9174 1.0062
C8A C 0.0230(4) 0.9416(3) 1.1728(3)
C9A C -0.0351(4) 1.0449(3) 1.2426(3)
H6A H -0.1134 1.0780 1.2048
C10A C 0.0230(4) 1.0954(3) 1.3643(3)
C11A C -0.1159(5) 1.2645(3) 1.3954(3)
H7A H -0.0483 1.2971 1.3624
H8A H -0.2176 1.2179 1.3319
C12A C -0.1600(5) 1.3603(3) 1.4974(3)
H9A H -0.2263 1.3275 1.5309
H10A H -0.2258 1.4099 1.4694
C13A C -0.0320(6) 1.5027(3) 1.6976(3)
H11A H 0.0477 1.5742 1.7358
H12A H -0.1451 1.5230 1.6836
C14A C -0.0086(5) 1.4461(3) 1.7790(3)
H13A H -0.0860 1.3735 1.7413
H14A H -0.0295 1.4975 1.8541
C15A C 0.2160(5) 1.3801(3) 1.8847(3)
H15A H 0.2203 1.4387 1.9647
H16A H 0.1396 1.3112 1.8638
C16A C 0.3884(5) 1.3497(3) 1.8804(3)
H17A H 0.4326 1.3216 1.9394
H18A H 0.4630 1.4196 1.9019
C17A C 0.3314(5) 1.1460(3) 1.7413(3)
H19A H 0.4127 1.1227 1.7933
H20A H 0.2238 1.1428 1.7572
C18A C 0.3136(5) 1.0662(3) 1.6135(3)
H21A H 0.2771 0.9862 1.5948
H22A H 0.4201 1.0699 1.5964
C19A C 0.4655(4) 1.1989(3) 1.1841(3)
C20A C 0.4412(4) 1.2997(3) 1.2730(3)
C21A C 0.3760(5) 1.2989(3) 1.3646(3)
C22A C 0.4861(5) 1.4108(3) 1.2804(3)
loop_
_geom_bond_atom_site_label_1
_geom_bond_atom_site_label_2
_geom_bond_site_symmetry_1
_geom_bond_site_symmetry_2
Ni1 S1 1_555 1_555
Na1 N1 1_555 1_555
N1 C21 1_555 1_555
N2 C22 1_555 1_555
O1 Na1 1_555 1_555
O2 Na1 1_555 1_555
O3 Na1 1_555 1_555
O4 Na1 1_555 1_555
O5 Na1 1_555 1_555
S1 C19 1_555 1_555
S2 Ni1 1_555 1_555
C1 O1 1_555 1_555
C2 C1 1_555 1_555
H1 C2 1_555 1_555
C3 C2 1_555 1_555
C4 C3 1_555 1_555
H2 C4 1_555 1_555
C5 C4 1_555 1_555
H3 C5 1_555 1_555
C6 C5 1_555 1_555
H4 C6 1_555 1_555
C7 C6 1_555 1_555
H5 C7 1_555 1_555
C8 C3 1_555 1_555
C9 C8 1_555 1_555
H6 C9 1_555 1_555
C10 O2 1_555 1_555
C11 O2 1_555 1_555
H7 C11 1_555 1_555
H8 C11 1_555 1_555
C12 O3 1_555 1_555
H9 C12 1_555 1_555
H10 C12 1_555 1_555
C13 O3 1_555 1_555
H11 C13 1_555 1_555
H12 C13 1_555 1_555
C14 O4 1_555 1_555
H13 C14 1_555 1_555
H14 C14 1_555 1_555
C15 O4 1_555 1_555
H15 C15 1_555 1_555
H16 C15 1_555 1_555
C16 O5 1_555 1_555
H17 C16 1_555 1_555
H18 C16 1_555 1_555
C17 O5 1_555 1_555
H19 C17 1_555 1_555
H20 C17 1_555 1_555
C18 O1 1_555 1_555
H21 C18 1_555 1_555
H22 C18 1_555 1_555
C19 S2 1_555 1_555
C20 C19 1_555 1_555
C21 C20 1_555 1_555
C22 C20 1_555 1_555
Na1A N1A 1_555 1_555
Na1A_2 N2 1_555 1_555
Na1_2 N2A 1_555 1_555
N1A C21A 1_555 1_555
N2A C22A 1_555 1_555
N2A_2 Na1 1_555 1_555
N2_2 Na1A 1_555 1_555
O1A Na1A 1_555 1_555
O2A Na1A 1_555 1_555
O3A Na1A 1_555 1_555
O4A Na1A 1_555 1_555
O5A Na1A 1_555 1_555
S1A Ni1 1_555 1_555
S2A Ni1 1_555 1_555
C1A O1A 1_555 1_555
C2A C1A 1_555 1_555
H1A C2A 1_555 1_555
C3A C2A 1_555 1_555
C4A C3A 1_555 1_555
H2A C4A 1_555 1_555
C5A C4A 1_555 1_555
H3A C5A 1_555 1_555
C6A C5A 1_555 1_555
H4A C6A 1_555 1_555
C7A C6A 1_555 1_555
H5A C7A 1_555 1_555
C8A C3A 1_555 1_555
C9A C8A 1_555 1_555
H6A C9A 1_555 1_555
C10A O2A 1_555 1_555
C11A O2A 1_555 1_555
H7A C11A 1_555 1_555
H8A C11A 1_555 1_555
C12A O3A 1_555 1_555
H9A C12A 1_555 1_555
H10A C12A 1_555 1_555
C13A O3A 1_555 1_555
H11A C13A 1_555 1_555
H12A C13A 1_555 1_555
C14A O4A 1_555 1_555
H13A C14A 1_555 1_555
H14A C14A 1_555 1_555
C15A O4A 1_555 1_555
H15A C15A 1_555 1_555
H16A C15A 1_555 1_555
C16A O5A 1_555 1_555
H17A C16A 1_555 1_555
H18A C16A 1_555 1_555
C17A O5A 1_555 1_555
H19A C17A 1_555 1_555
H20A C17A 1_555 1_555
C18A O1A 1_555 1_555
H21A C18A 1_555 1_555
H22A C18A 1_555 1_555
C19A S1A 1_555 1_555
C20A C19A 1_555 1_555
C21A C20A 1_555 1_555
C22A C20A 1_555 1_555
C1 C10 1_555 1_555
C7 C8 1_555 1_555
C9 C10 1_555 1_555
C11 C12 1_555 1_555
C13 C14 1_555 1_555
C15 C16 1_555 1_555
C17 C18 1_555 1_555
S2A C19A 1_555 1_555
C1A C10A 1_555 1_555
C7A C8A 1_555 1_555
C9A C10A 1_555 1_555
C11A C12A 1_555 1_555
C13A C14A 1_555 1_555
C15A C16A 1_555 1_555
C17A C18A 1_555 1_555

#END
