
#######################################################################
#
#                 Cambridge Crystallographic Data Centre
#                                CCDC 
#
#######################################################################
#
# If this CIF has been generated from an entry in the Cambridge 
# Structural Database, then it will include bibliographic, chemical, 
# crystal, experimental, refinement or atomic coordinate data resulting 
# from the CCDC's data processing and validation procedures.
#
#######################################################################

data_DAQRUK
_symmetry_cell_setting           orthorhombic
_symmetry_space_group_name_H-M   'C 2 2 21'
_symmetry_Int_Tables_number      20
_space_group_name_Hall           'C 2n 2'
loop_
_symmetry_equiv_pos_site_id
_symmetry_equiv_pos_as_xyz
1 x,y,z
2 -x,-y,1/2+z
3 -x,y,1/2-z
4 x,-y,-z
5 1/2+x,1/2+y,z
6 1/2-x,1/2-y,1/2+z
7 1/2-x,1/2+y,1/2-z
8 1/2+x,1/2-y,-z
_cell_length_a                   6.94220(10)
_cell_length_b                   30.5658(5)
_cell_length_c                   7.58420(10)
_cell_angle_alpha                90
_cell_angle_beta                 90
_cell_angle_gamma                90
_cell_volume                     1609.32
loop_
_atom_site_label
_atom_site_type_symbol
_atom_site_fract_x
_atom_site_fract_y
_atom_site_fract_z
O1 O 0.0433(6) 0.25875(13) 0.9352(5)
C1 C 0.3299(9) 0.46798(19) 1.254(2)
H1 H 0.2135 0.4529 1.2559
O2 O 0.0725(6) 0.18014(13) 1.0599(5)
C2 C 0.1067(8) 0.25732(17) 1.0895(8)
C3 C 0.0891(8) 0.21435(18) 1.1882(7)
C4 C 0.5000 0.5362(2) 1.2500
C5 C 0.3295(9) 0.51325(19) 1.255(2)
H2 H 0.2131 0.5283 1.2581
C6 C 0.5000 0.5855(2) 1.2500
O3 O 0.6527(6) 0.60505(13) 1.2092(6)
Na1 Na 0.0000 0.35970(10) 1.2500
O4 O -0.0077(12) 0.3963(2) 1.5164(7)
O5 O 0.1815(6) 0.28942(13) 1.1688(6)
H3 H 0.203(7) 0.209(2) 1.255(10)
H4 H 0.112(11) 0.1563(14) 1.099(9)
H5 H 0.107(5) 0.406(2) 1.575(6)
H6 H -0.104(7) 0.390(2) 1.604(5)
Sm1 Sm 0.0000 0.195576(10) 0.7500
O6 O 0.3425(5) 0.37552(11) 1.2464(10)
C7 C 0.5000 0.4449(2) 1.2500
C8 C 0.5000 0.3964(2) 1.2500
O1B O -0.0433(6) 0.25875(13) 1.5648(5)
O1B_2 O -0.0433(6) 0.25875(13) 0.5648(5)
C1B C 0.6701(9) 0.46798(19) 1.246(2)
H1B H 0.7865 0.4529 1.2441
O2B O -0.0725(6) 0.18014(13) 1.4401(5)
O2B_2 O -0.0725(6) 0.18014(13) 0.4401(5)
C2B C -0.1067(8) 0.25732(17) 1.4105(8)
C3B C -0.0891(8) 0.21435(18) 1.3118(7)
C5B C 0.6705(9) 0.51325(19) 1.245(2)
H2B H 0.7869 0.5283 1.2419
O3B O 0.3473(6) 0.60505(13) 1.2908(6)
Na1_2 Na 1.0000 0.35970(10) 1.2500
O4B O 0.0077(12) 0.3963(2) 0.9836(7)
O5B O -0.1815(6) 0.28942(13) 1.3312(6)
O5E O 0.3185(6) 0.21058(13) 0.6688(6)
O5G O -0.3185(6) 0.21058(13) 0.8312(6)
H3B H -0.203(7) 0.209(2) 1.245(10)
H4B H -0.112(11) 0.1563(14) 1.401(9)
H4B_2 H -0.112(11) 0.1563(14) 0.401(9)
H5B H -0.107(5) 0.406(2) 0.925(6)
H6B H 0.104(7) 0.390(2) 0.896(5)
Sm1E Sm 0.5000 0.304424(10) 1.2500
Sm1_2 Sm 0.0000 0.195576(10) 1.7500
Sm1E_2 Sm -0.5000 0.304424(10) 1.2500
O6B O 0.6575(5) 0.37552(11) 1.2536(10)
O6B_2 O -0.3425(5) 0.37552(11) 1.2536(10)
O6E O 0.1575(5) 0.12448(11) 0.7464(10)
O6G O -0.1575(5) 0.12448(11) 0.7536(10)
loop_
_geom_bond_atom_site_label_1
_geom_bond_atom_site_label_2
_geom_bond_site_symmetry_1
_geom_bond_site_symmetry_2
O1 C2 1_555 1_555
C1 H1 1_555 1_555
O2 C3 1_555 1_555
C2 C3 1_555 1_555
C3 H3 1_555 1_555
C4 C5 1_555 1_555
C5 C1 1_555 1_555
H2 C5 1_555 1_555
C6 C4 1_555 1_555
O3 C6 1_555 1_555
Na1 O4 1_555 1_555
O4 H5 1_555 1_555
O5 C2 1_555 1_555
H4 O2 1_555 1_555
H6 O4 1_555 1_555
Sm1 O1 1_555 1_555
O6 Na1 1_555 1_555
C7 C1 1_555 1_555
C8 O6 1_555 1_555
O1B C2B 1_555 1_555
O1B_2 Sm1 1_555 1_555
C1B C7 1_555 1_555
H1B C1B 1_555 1_555
O2B C3B 1_555 1_555
O2B_2 Sm1 1_555 1_555
C2B C3B 1_555 1_555
C3B C3 1_555 1_555
C5B C4 1_555 1_555
H2B C5B 1_555 1_555
O3B C6 1_555 1_555
Na1_2 O6B 1_555 1_555
O4B Na1 1_555 1_555
O5B Na1 1_555 1_555
O5E Sm1 1_555 1_555
O5G Sm1 1_555 1_555
H3B C3B 1_555 1_555
H4B O2B 1_555 1_555
H4B_2 O2B_2 1_555 1_555
H5B O4B 1_555 1_555
H6B O4B 1_555 1_555
Sm1E O5 1_555 1_555
Sm1_2 O1B 1_555 1_555
Sm1E_2 O5B 1_555 1_555
O6B C8 1_555 1_555
O6B_2 Na1 1_555 1_555
O6E Sm1 1_555 1_555
O6G Sm1 1_555 1_555
O2 Sm1 1_555 1_555
Na1 O5 1_555 1_555
O6 Sm1E 1_555 1_555
C7 C8 1_555 1_555
C1B C5B 1_555 1_555
O2B Sm1_2 1_555 1_555
C2B O5B 1_555 1_555
Sm1E O6B 1_555 1_555
Sm1E_2 O6B_2 1_555 1_555

#END
