
#######################################################################
#
#                 Cambridge Crystallographic Data Centre
#                                CCDC 
#
#######################################################################
#
# If this CIF has been generated from an entry in the Cambridge 
# Structural Database, then it will include bibliographic, chemical, 
# crystal, experimental, refinement or atomic coordinate data resulting 
# from the CCDC's data processing and validation procedures.
#
#######################################################################

data_DAQRET
_symmetry_cell_setting           monoclinic
_symmetry_space_group_name_H-M   'P 21/n'
_symmetry_Int_Tables_number      14
_space_group_name_Hall           '-P 2yn'
loop_
_symmetry_equiv_pos_site_id
_symmetry_equiv_pos_as_xyz
1 x,y,z
2 1/2-x,1/2+y,1/2-z
3 -x,-y,-z
4 1/2+x,1/2-y,1/2+z
_cell_length_a                   9.475(3)
_cell_length_b                   14.700(5)
_cell_length_c                   14.810(4)
_cell_angle_alpha                90
_cell_angle_beta                 91.250(5)
_cell_angle_gamma                90
_cell_volume                     2062.28
loop_
_atom_site_label
_atom_site_type_symbol
_atom_site_fract_x
_atom_site_fract_y
_atom_site_fract_z
Eu1 Eu 0.47294(3) 0.83625(3) 0.75451(2)
Eu2 Eu 0.68903(3) 0.65431(3) 0.59350(2)
O1 O 0.7111(5) 0.8535(4) 0.8251(3)
O2 O 0.7169(5) 0.7773(4) 0.6990(3)
O3 O 1.2347(5) 0.8202(4) 0.7931(3)
O4 O 1.2047(5) 0.8720(4) 0.9320(3)
O5 O 0.4107(5) 0.8466(4) 0.5934(3)
O6 O 0.5915(6) 0.7824(4) 0.5222(3)
O7 O 0.6494(5) 1.0146(4) 0.2825(3)
O8 O 0.4220(5) 1.0237(4) 0.3048(3)
O9 O 0.4609(5) 0.6854(3) 0.6854(3)
O10 O 0.4407(5) 0.6058(4) 0.5607(3)
O11 O -0.0652(5) 0.6131(4) 0.6328(3)
O12 O -0.0884(5) 0.7295(4) 0.5414(3)
O13 O 0.4676(5) 0.9278(4) 0.8924(3)
H1 H 0.5373 0.9268 0.9296
H2 H 0.3960 0.9605 0.9032
O14 O 0.4820(6) 0.7207(4) 0.8702(3)
H3 H 0.5219 0.6701 0.8599
H4 H 0.4456 0.7305 0.9212
O15 O 0.6888(5) 0.5737(4) 0.7361(3)
H5 H 0.6498 0.5973 0.7816
H6 H 0.7279 0.5218 0.7406
O16 O 0.7136(6) 0.4960(4) 0.5597(3)
H7 H 0.6643 0.4570 0.5873
H8 H 0.7715 0.4789 0.5202
C1 C 0.7797(7) 0.8145(5) 0.7660(5)
C2 C 0.9366(8) 0.8132(5) 0.7719(5)
H9 H 0.9875 0.7978 0.7212
C3 C 1.0035(8) 0.8333(6) 0.8464(5)
H10 H 0.9498 0.8441 0.8971
C4 C 1.1584(7) 0.8402(5) 0.8570(5)
C5 C 0.4905(8) 0.8374(6) 0.5268(5)
C6 C 0.4607(8) 0.8972(6) 0.4490(5)
H11 H 0.3737 0.9263 0.4445
C7 C 0.5538(9) 0.9107(5) 0.3856(5)
H12 H 0.6312 0.8720 0.3827
C8 C 0.5399(9) 0.9857(6) 0.3183(5)
C9 C 0.3839(7) 0.6455(5) 0.6259(5)
C10 C 0.2302(7) 0.6452(5) 0.6342(5)
H13 H 0.1926 0.6252 0.6882
C11 C 0.1423(7) 0.6718(6) 0.5695(5)
H14 H 0.1779 0.6913 0.5148
C12 C -0.0112(7) 0.6712(6) 0.5819(5)
Eu1_2 Eu 1.47294(3) 0.83625(3) 0.75451(2)
Eu1B Eu 0.52706(3) 1.16375(3) 0.24549(2)
Eu2C Eu 1.18903(3) 0.84569(3) 1.09350(2)
Eu2_2 Eu -0.31097(3) 0.65431(3) 0.59350(2)
O3_2 O 0.2347(5) 0.8202(4) 0.7931(3)
O4C O 0.7047(5) 0.6280(4) 0.4320(3)
O7B O 0.3506(5) 0.9854(4) 0.7175(3)
O8B O 0.5780(5) 0.9763(4) 0.6952(3)
O11_2 O 0.9348(5) 0.6131(4) 0.6328(3)
O12_2 O 0.9116(5) 0.7295(4) 0.5414(3)
O17 O 0.8444(10) 0.9348(7) 0.5721(6)
H15 H 0.7705 0.9005 0.5458
H16 H 0.8927 0.9251 0.5252
O18 O 0.1292(11) 0.9107(8) 0.5369(8)
H17 H 0.0614 0.9286 0.5774
H18 H 0.1355 0.8605 0.5822
O19 O 0.0643(6) 0.0343(4) 0.6735(4)
H19 H 0.1392 0.0087 0.6329
H20 H 0.0724 0.0908 0.6335
loop_
_geom_bond_atom_site_label_1
_geom_bond_atom_site_label_2
_geom_bond_site_symmetry_1
_geom_bond_site_symmetry_2
Eu1 O1 1_555 1_555
Eu2 O2 1_555 1_555
O1 C1 1_555 1_555
O2 Eu1 1_555 1_555
O3 C4 1_555 1_555
O4 C4 1_555 1_555
O5 Eu1 1_555 1_555
O6 Eu2 1_555 1_555
O7 C8 1_555 1_555
O8 C8 1_555 1_555
O9 Eu1 1_555 1_555
O10 Eu2 1_555 1_555
O11 C12 1_555 1_555
O12 C12 1_555 1_555
O13 Eu1 1_555 1_555
H1 O13 1_555 1_555
H2 O13 1_555 1_555
O14 Eu1 1_555 1_555
H3 O14 1_555 1_555
H4 O14 1_555 1_555
O15 Eu2 1_555 1_555
H5 O15 1_555 1_555
H6 O15 1_555 1_555
O16 Eu2 1_555 1_555
H7 O16 1_555 1_555
H8 O16 1_555 1_555
C1 O2 1_555 1_555
C2 C1 1_555 1_555
H9 C2 1_555 1_555
C3 C2 1_555 1_555
H10 C3 1_555 1_555
C4 C3 1_555 1_555
C5 O5 1_555 1_555
C6 C5 1_555 1_555
H11 C6 1_555 1_555
C7 C6 1_555 1_555
H12 C7 1_555 1_555
C8 C7 1_555 1_555
C9 O9 1_555 1_555
C10 C9 1_555 1_555
H13 C10 1_555 1_555
C11 C10 1_555 1_555
H14 C11 1_555 1_555
C12 C11 1_555 1_555
O17 H15 1_555 1_555
H16 O17 1_555 1_555
O18 H17 1_555 1_555
H18 O18 1_555 1_555
O19 H19 1_555 1_555
H20 O19 1_555 1_555
Eu1_2 O3 1_555 1_555
Eu1B O7 1_555 1_555
Eu2C O4 1_555 1_555
Eu2_2 O11 1_555 1_555
O3_2 Eu1 1_555 1_555
O4C Eu2 1_555 1_555
O7B Eu1 1_555 1_555
O8B Eu1 1_555 1_555
O11_2 Eu2 1_555 1_555
O12_2 Eu2 1_555 1_555
Eu2 O9 1_555 1_555
O6 C5 1_555 1_555
O8 Eu1B 1_555 1_555
O10 C9 1_555 1_555
O12 Eu2_2 1_555 1_555

#END
