
#######################################################################
#
#                 Cambridge Crystallographic Data Centre
#                                CCDC 
#
#######################################################################
#
# If this CIF has been generated from an entry in the Cambridge 
# Structural Database, then it will include bibliographic, chemical, 
# crystal, experimental, refinement or atomic coordinate data resulting 
# from the CCDC's data processing and validation procedures.
#
#######################################################################

data_DAQRET01
_symmetry_cell_setting           monoclinic
_symmetry_space_group_name_H-M   'P 21/n'
_symmetry_Int_Tables_number      14
_space_group_name_Hall           '-P 2yn'
loop_
_symmetry_equiv_pos_site_id
_symmetry_equiv_pos_as_xyz
1 x,y,z
2 1/2-x,1/2+y,1/2-z
3 -x,-y,-z
4 1/2+x,1/2-y,1/2+z
_cell_length_a                   9.4983(19)
_cell_length_b                   14.764(3)
_cell_length_c                   14.825(3)
_cell_angle_alpha                90
_cell_angle_beta                 91.57(3)
_cell_angle_gamma                90
_cell_volume                     2078.17
loop_
_atom_site_label
_atom_site_type_symbol
_atom_site_fract_x
_atom_site_fract_y
_atom_site_fract_z
Eu1 Eu -0.02672(2) -0.163791(16) 0.754111(15)
Eu2 Eu 0.18929(2) -0.346112(16) 0.593803(15)
O1 O 0.2119(4) -0.1470(3) 0.8248(2)
O2 O 0.2167(4) -0.2225(3) 0.6987(2)
O3 O 0.7060(4) -0.1275(3) 0.9324(2)
O4 O 0.7347(4) -0.1807(3) 0.7931(2)
O5 O 0.0907(4) -0.2187(3) 0.5218(2)
O6 O -0.0878(4) -0.1560(3) 0.5938(3)
O7 O -0.0790(4) 0.0241(3) 0.3049(2)
O8 O 0.1488(4) 0.0150(3) 0.2839(2)
O9 O -0.5657(4) -0.3870(3) 0.6323(2)
O10 O -0.5870(4) -0.2706(3) 0.5420(2)
O11 O -0.0390(3) -0.3159(2) 0.6867(2)
O12 O -0.0578(4) -0.3951(3) 0.5622(2)
O13 O -0.0150(4) -0.2793(3) 0.8708(2)
O14 O -0.0327(4) -0.0724(3) 0.8929(2)
O15 O 0.2147(4) -0.5048(3) 0.5601(3)
O16 O 0.1911(4) -0.4264(3) 0.7379(2)
C1 C 0.2818(5) -0.1852(4) 0.7653(3)
C2 C 0.4350(5) -0.1864(4) 0.7715(3)
H1 H 0.4851 -0.2018 0.7207
C3 C 0.5039(5) -0.1666(4) 0.8460(4)
H2 H 0.4509 -0.1566 0.8969
C4 C 0.6594(5) -0.1586(3) 0.8573(3)
C5 C -0.0109(6) -0.1647(3) 0.5263(3)
C6 C -0.0393(6) -0.1028(4) 0.4484(3)
H3 H -0.1251 -0.0724 0.4446
C7 C 0.0520(6) -0.0896(4) 0.3851(4)
H4 H 0.1282 -0.1289 0.3816
C8 C 0.0388(6) -0.0144(4) 0.3188(3)
C9 C -0.5120(5) -0.3288(4) 0.5818(3)
C10 C -0.3579(5) -0.3280(4) 0.5701(4)
H5 H -0.3228 -0.3079 0.5157
C11 C -0.2688(5) -0.3550(4) 0.6344(4)
H6 H -0.3061 -0.3754 0.6881
C12 C -0.1147(5) -0.3551(3) 0.6274(3)
Eu1_2 Eu 0.97328(2) -0.163791(16) 0.754111(15)
Eu1B Eu 0.02672(2) 0.163791(16) 0.245889(15)
Eu2C Eu 0.68929(2) -0.153888(16) 1.093803(15)
Eu2_2 Eu -0.81071(2) -0.346112(16) 0.593803(15)
O3C O 0.2060(4) -0.3725(3) 0.4324(2)
O4_2 O -0.2653(4) -0.1807(3) 0.7931(2)
O7B O 0.0790(4) -0.0241(3) 0.6951(2)
O8B O -0.1488(4) -0.0150(3) 0.7161(2)
O9_2 O 0.4343(4) -0.3870(3) 0.6323(2)
O10_2 O 0.4130(4) -0.2706(3) 0.5420(2)
O17 O 0.0656(5) 0.4630(3) 0.1655(3)
O18 O 0.1303(14) 0.5949(12) 0.0443(10)
O19 O -0.1498(9) 0.5667(6) 0.0674(5)
loop_
_geom_bond_atom_site_label_1
_geom_bond_atom_site_label_2
_geom_bond_site_symmetry_1
_geom_bond_site_symmetry_2
Eu1 O1 1_555 1_555
Eu2 O2 1_555 1_555
O1 C1 1_555 1_555
O2 Eu1 1_555 1_555
O3 C4 1_555 1_555
O4 C4 1_555 1_555
O5 Eu2 1_555 1_555
O6 Eu1 1_555 1_555
O7 C8 1_555 1_555
O8 C8 1_555 1_555
O9 C9 1_555 1_555
O10 C9 1_555 1_555
O11 Eu1 1_555 1_555
O12 Eu2 1_555 1_555
O13 Eu1 1_555 1_555
O14 Eu1 1_555 1_555
O15 Eu2 1_555 1_555
O16 Eu2 1_555 1_555
C1 O2 1_555 1_555
C2 C1 1_555 1_555
H1 C2 1_555 1_555
C3 C2 1_555 1_555
H2 C3 1_555 1_555
C4 C3 1_555 1_555
C5 O5 1_555 1_555
C6 C5 1_555 1_555
H3 C6 1_555 1_555
C7 C6 1_555 1_555
H4 C7 1_555 1_555
C8 C7 1_555 1_555
C9 C10 1_555 1_555
C10 H5 1_555 1_555
C11 C10 1_555 1_555
H6 C11 1_555 1_555
C12 O11 1_555 1_555
Eu1_2 O4 1_555 1_555
Eu1B O7 1_555 1_555
Eu2C O3 1_555 1_555
Eu2_2 O9 1_555 1_555
O3C Eu2 1_555 1_555
O4_2 Eu1 1_555 1_555
O7B Eu1 1_555 1_555
O8B Eu1 1_555 1_555
O9_2 Eu2 1_555 1_555
O10_2 Eu2 1_555 1_555
Eu2 O11 1_555 1_555
O6 C5 1_555 1_555
O8 Eu1B 1_555 1_555
O10 Eu2_2 1_555 1_555
O12 C12 1_555 1_555
C11 C12 1_555 1_555

#END
