
#######################################################################
#
#                 Cambridge Crystallographic Data Centre
#                                CCDC 
#
#######################################################################
#
# If this CIF has been generated from an entry in the Cambridge 
# Structural Database, then it will include bibliographic, chemical, 
# crystal, experimental, refinement or atomic coordinate data resulting 
# from the CCDC's data processing and validation procedures.
#
#######################################################################

data_DAQSOF
_symmetry_cell_setting           orthorhombic
_symmetry_space_group_name_H-M   'C 2 2 21'
_symmetry_Int_Tables_number      20
_space_group_name_Hall           'C 2n 2'
loop_
_symmetry_equiv_pos_site_id
_symmetry_equiv_pos_as_xyz
1 x,y,z
2 -x,-y,1/2+z
3 -x,y,1/2-z
4 x,-y,-z
5 1/2+x,1/2+y,z
6 1/2-x,1/2-y,1/2+z
7 1/2-x,1/2+y,1/2-z
8 1/2+x,1/2-y,-z
_cell_length_a                   6.920(2)
_cell_length_b                   30.559(7)
_cell_length_c                   7.5478(14)
_cell_angle_alpha                90
_cell_angle_beta                 90
_cell_angle_gamma                90
_cell_volume                     1596.12
loop_
_atom_site_label
_atom_site_type_symbol
_atom_site_fract_x
_atom_site_fract_y
_atom_site_fract_z
O1 O -0.1580(9) -0.37435(17) -0.2457(16)
C1 C 0.0000 -0.3953(3) -0.2500
O2 O -0.4295(10) -0.1800(2) -0.0577(8)
C2 C 0.0000 -0.4446(4) -0.2500
Na1 Na -0.5 -0.35917(16) -0.2500
O3 O -0.493(2) -0.3962(3) 0.0154(11)
C3 C -0.4144(15) -0.2137(3) -0.1857(12)
C4 C -0.3908(15) -0.2568(3) -0.0882(12)
C5 C -0.1714(14) -0.4669(3) -0.254(3)
H1 H -0.2879 -0.4518 -0.2604
C6 C 0.0000 -0.5354(4) -0.2500
C7 C -0.1697(15) -0.5128(3) -0.249(3)
H2 H -0.286 -0.528 -0.2448
C8 C 0.0000 -0.5850(4) -0.2500
O4 O 0.1533(12) -0.6048(2) -0.2090(11)
O5 O -0.3166(11) -0.2889(2) -0.1719(9)
H3 H -0.614(10) -0.395(4) 0.080(15)
H4 H -0.291(10) -0.213(3) -0.250(16)
H5 H -0.399(14) -0.409(3) 0.095(13)
H6 H -0.394(17) -0.159(2) -0.121(12)
Gd1 Gd -0.5000 -0.19591(2) 0.2500
O6 O -0.4538(11) -0.25857(19) 0.0666(8)
O1B O 0.1580(9) -0.37435(17) -0.2543(16)
O1B_2 O -0.8420(9) -0.37435(17) -0.2543(16)
O1E O -0.3420(9) -0.12565(17) 0.2543(16)
O1G O -0.6580(9) -0.12565(17) 0.2457(16)
O2B O -0.5705(10) -0.1800(2) 0.5577(8)
O2B_2 O -0.5705(10) -0.1800(2) -0.4423(8)
Na1_2 Na 0.5 -0.35917(16) -0.2500
O3B O -0.507(2) -0.3962(3) -0.5154(11)
C3B C -0.5856(15) -0.2137(3) -0.3143(12)
C4B C -0.6092(15) -0.2568(3) -0.4118(12)
C5B C 0.1714(14) -0.4669(3) -0.246(3)
H1B H 0.2879 -0.4518 -0.2396
C7B C 0.1697(15) -0.5128(3) -0.251(3)
H2B H 0.286 -0.528 -0.2552
O4B O -0.1533(12) -0.6048(2) -0.2910(11)
O5B O -0.6834(11) -0.2889(2) -0.3281(9)
O5E O -0.1834(11) -0.2111(2) 0.3281(9)
O5G O -0.8166(11) -0.2111(2) 0.1719(9)
H3B H -0.386(10) -0.395(4) -0.580(15)
H4B H -0.709(10) -0.213(3) -0.250(16)
H5B H -0.601(14) -0.409(3) -0.595(13)
H6B H -0.606(17) -0.159(2) 0.621(12)
H6B_2 H -0.606(17) -0.159(2) -0.379(12)
Gd1E Gd 0.0000 -0.30409(2) -0.2500
Gd1E_2 Gd -1.0000 -0.30409(2) -0.2500
Gd1_2 Gd -0.5000 -0.19591(2) -0.7500
O6B O -0.5462(11) -0.25857(19) 0.4334(8)
O6B_2 O -0.5462(11) -0.25857(19) -0.5666(8)
loop_
_geom_bond_atom_site_label_1
_geom_bond_atom_site_label_2
_geom_bond_site_symmetry_1
_geom_bond_site_symmetry_2
O1 C1 1_555 1_555
C1 C2 1_555 1_555
O2 C3 1_555 1_555
C2 C5 1_555 1_555
Na1 O1 1_555 1_555
O3 Na1 1_555 1_555
C3 C4 1_555 1_555
C4 O5 1_555 1_555
C5 H1 1_555 1_555
C6 C7 1_555 1_555
C7 C5 1_555 1_555
H2 C7 1_555 1_555
C8 C6 1_555 1_555
O4 C8 1_555 1_555
O5 Na1 1_555 1_555
H3 O3 1_555 1_555
H4 C3 1_555 1_555
H5 O3 1_555 1_555
H6 O2 1_555 1_555
Gd1 O2 1_555 1_555
O6 C4 1_555 1_555
O1B C1 1_555 1_555
O1B_2 Na1 1_555 1_555
O1E Gd1 1_555 1_555
O1G Gd1 1_555 1_555
O2B Gd1 1_555 1_555
O2B_2 C3B 1_555 1_555
Na1_2 O1B 1_555 1_555
O3B Na1 1_555 1_555
C3B C3 1_555 1_555
C4B C3B 1_555 1_555
C5B C2 1_555 1_555
H1B C5B 1_555 1_555
C7B C6 1_555 1_555
H2B C7B 1_555 1_555
O4B C8 1_555 1_555
O5B Na1 1_555 1_555
O5E Gd1 1_555 1_555
O5G Gd1 1_555 1_555
H3B O3B 1_555 1_555
H4B C3B 1_555 1_555
H5B O3B 1_555 1_555
H6B O2B 1_555 1_555
H6B_2 O2B_2 1_555 1_555
Gd1E O1 1_555 1_555
Gd1E_2 O1B_2 1_555 1_555
Gd1_2 O2B_2 1_555 1_555
O6B Gd1 1_555 1_555
O6B_2 C4B 1_555 1_555
O5 Gd1E 1_555 1_555
Gd1 O6 1_555 1_555
O1B Gd1E 1_555 1_555
C4B O5B 1_555 1_555
C5B C7B 1_555 1_555
O5B Gd1E_2 1_555 1_555
Gd1_2 O6B_2 1_555 1_555

#END
