
#######################################################################
#
#                 Cambridge Crystallographic Data Centre
#                                CCDC 
#
#######################################################################
#
# If this CIF has been generated from an entry in the Cambridge 
# Structural Database, then it will include bibliographic, chemical, 
# crystal, experimental, refinement or atomic coordinate data resulting 
# from the CCDC's data processing and validation procedures.
#
#######################################################################

data_DAQSAR
_symmetry_cell_setting           orthorhombic
_symmetry_space_group_name_H-M   'C 2 2 21'
_symmetry_Int_Tables_number      20
_space_group_name_Hall           'C 2n 2'
loop_
_symmetry_equiv_pos_site_id
_symmetry_equiv_pos_as_xyz
1 x,y,z
2 -x,-y,1/2+z
3 x,-y,-z
4 -x,y,1/2-z
5 1/2+x,1/2+y,z
6 1/2-x,1/2-y,1/2+z
7 1/2+x,1/2-y,-z
8 1/2-x,1/2+y,1/2-z
_cell_length_a                   6.9094(2)
_cell_length_b                   39.2050(8)
_cell_length_c                   7.5963(2)
_cell_angle_alpha                90
_cell_angle_beta                 90
_cell_angle_gamma                90
_cell_volume                     2057.71
loop_
_atom_site_label
_atom_site_type_symbol
_atom_site_fract_x
_atom_site_fract_y
_atom_site_fract_z
Sm1 Sm -0.5000 -0.292470(4) -0.2500
Na1 Na -0.5000 -0.16423(4) 0.2500
O1 O -0.1578(3) -0.15195(5) 0.2369(5)
C1 C 0.0000 -0.09783(9) 0.2500
C2 C 0.0000 -0.13596(9) 0.2500
O2 O -0.5429(3) -0.24332(5) 0.5659(3)
O3 O -0.4951(7) -0.13617(9) -0.0170(4)
C3 C 0.0000 -0.02667(10) 0.2500
C4 C 0.0000 0.01148(10) 0.2500
C5 C -0.1653(5) -0.08015(8) 0.2034(5)
H1 H -0.277 -0.092 0.1727
C6 C -0.1644(6) -0.04477(8) 0.2027(5)
H2 H -0.2757 -0.033 0.17
C7 C 0.0000 0.08303(9) 0.2500
C8 C 0.1636(6) 0.02968(9) 0.1986(5)
H3 H 0.2744 0.018 0.1644
C9 C 0.1636(6) 0.06497(9) 0.1979(5)
H4 H 0.2738 0.0767 0.1624
C10 C 0.0000 0.12129(9) 0.2500
O4 O 0.1509(3) 0.13674(6) 0.2024(3)
O5 O -0.5702(3) -0.30441(5) 0.4404(3)
C11 C -0.4117(4) -0.27797(8) 0.1881(4)
C12 C -0.3945(4) -0.24447(7) 0.0886(4)
O6 O -0.3194(3) -0.21937(5) 0.1691(3)
H5 H -0.296(4) -0.2814(8) 0.256(5)
H6 H -0.590(5) -0.3234(6) 0.395(5)
H7 H -0.611(4) -0.1301(9) -0.080(4)
H8 H -0.403(4) -0.1457(9) -0.101(3)
Sm1_2 Sm -0.5000 -0.292470(4) 0.7500
Sm1E Sm -1.0000 -0.207530(4) 0.2500
Sm1E_2 Sm 0.0000 -0.207530(4) 0.2500
Na1_2 Na 0.5000 -0.16423(4) 0.2500
O1C O 0.1578(3) -0.15195(5) 0.2631(5)
O1C_2 O -0.8422(3) -0.15195(5) 0.2631(5)
O1E O -0.3422(3) -0.34805(5) -0.2631(5)
O1F O -0.6578(3) -0.34805(5) -0.2369(5)
O2C O -0.4571(3) -0.24332(5) -0.0659(3)
O2_2 O -0.5429(3) -0.24332(5) -0.4341(3)
O3C O -0.5049(7) -0.13617(9) 0.5170(4)
C5C C 0.1653(5) -0.08015(8) 0.2966(5)
H1C H 0.277 -0.092 0.3273
C6C C 0.1644(6) -0.04477(8) 0.2973(5)
H2C H 0.2757 -0.033 0.33
C8C C -0.1636(6) 0.02968(9) 0.3014(5)
H3C H -0.2744 0.018 0.3356
C9C C -0.1636(6) 0.06497(9) 0.3021(5)
H4C H -0.2738 0.0767 0.3376
O4C O -0.1509(3) 0.13674(6) 0.2976(3)
O5C O -0.4298(3) -0.30441(5) 0.0596(3)
O5_2 O -0.5702(3) -0.30441(5) -0.5596(3)
C11C C -0.5883(4) -0.27797(8) 0.3119(4)
C12C C -0.6055(4) -0.24447(7) 0.4114(4)
O6C O -0.6806(3) -0.21937(5) 0.3309(3)
O6E O -0.1806(3) -0.28063(5) -0.3309(3)
O6F O -0.8194(3) -0.28063(5) -0.1691(3)
H5C H -0.704(4) -0.2814(8) 0.244(5)
H6C H -0.410(5) -0.3234(6) 0.105(5)
H6_2 H -0.590(5) -0.3234(6) -0.605(5)
H7C H -0.389(4) -0.1301(9) 0.580(4)
H8C H -0.597(4) -0.1457(9) 0.601(3)
loop_
_geom_bond_atom_site_label_1
_geom_bond_atom_site_label_2
_geom_bond_site_symmetry_1
_geom_bond_site_symmetry_2
Sm1 O1E 1_555 1_555
Na1 O1 1_555 1_555
O1 C2 1_555 1_555
C1 C2 1_555 1_555
C2 O1C 1_555 1_555
O2 Sm1_2 1_555 1_555
O3 Na1 1_555 1_555
C3 C4 1_555 1_555
C4 C8 1_555 1_555
C5 C1 1_555 1_555
H1 C5 1_555 1_555
C6 C3 1_555 1_555
H2 C6 1_555 1_555
C7 C9 1_555 1_555
C8 H3 1_555 1_555
C9 C8 1_555 1_555
H4 C9 1_555 1_555
C10 C7 1_555 1_555
O4 C10 1_555 1_555
O5 H6 1_555 1_555
C11 C12 1_555 1_555
C12 O6 1_555 1_555
O6 Na1 1_555 1_555
H5 C11 1_555 1_555
H7 O3 1_555 1_555
H8 O3 1_555 1_555
Sm1_2 O5 1_555 1_555
Sm1E O1C_2 1_555 1_555
Sm1E_2 O1 1_555 1_555
Na1_2 O1C 1_555 1_555
O1C Sm1E_2 1_555 1_555
O1C_2 Na1 1_555 1_555
O1F Sm1 1_555 1_555
O2C Sm1 1_555 1_555
O2_2 Sm1 1_555 1_555
O3C Na1 1_555 1_555
C5C C1 1_555 1_555
H1C C5C 1_555 1_555
C6C C3 1_555 1_555
H2C C6C 1_555 1_555
C8C C4 1_555 1_555
H3C C8C 1_555 1_555
C9C C7 1_555 1_555
H4C C9C 1_555 1_555
O4C C10 1_555 1_555
O5C Sm1 1_555 1_555
O5_2 Sm1 1_555 1_555
C11C O5 1_555 1_555
C12C O2 1_555 1_555
O6C Na1 1_555 1_555
O6E Sm1 1_555 1_555
O6F Sm1 1_555 1_555
H5C C11C 1_555 1_555
H6C O5C 1_555 1_555
H6_2 O5_2 1_555 1_555
H7C O3C 1_555 1_555
H8C O3C 1_555 1_555
C5 C6 1_555 1_555
C11 O5C 1_555 1_555
C11 C11C 1_555 1_555
C12 O2C 1_555 1_555
O6 Sm1E_2 1_555 1_555
Sm1E O6C 1_555 1_555
C5C C6C 1_555 1_555
C8C C9C 1_555 1_555
C11C C12C 1_555 1_555
C12C O6C 1_555 1_555

#END
