
#######################################################################
#
#                 Cambridge Crystallographic Data Centre
#                                CCDC 
#
#######################################################################
#
# If this CIF has been generated from an entry in the Cambridge 
# Structural Database, then it will include bibliographic, chemical, 
# crystal, experimental, refinement or atomic coordinate data resulting 
# from the CCDC's data processing and validation procedures.
#
#######################################################################

data_DAQSEV
_symmetry_cell_setting           orthorhombic
_symmetry_space_group_name_H-M   'C 2 2 21'
_symmetry_Int_Tables_number      20
_space_group_name_Hall           'C 2n 2'
loop_
_symmetry_equiv_pos_site_id
_symmetry_equiv_pos_as_xyz
1 x,y,z
2 -x,-y,1/2+z
3 x,-y,-z
4 -x,y,1/2-z
5 1/2+x,1/2+y,z
6 1/2-x,1/2-y,1/2+z
7 1/2+x,1/2-y,-z
8 1/2-x,1/2+y,1/2-z
_cell_length_a                   6.9287(3)
_cell_length_b                   30.460(2)
_cell_length_c                   7.5611(4)
_cell_angle_alpha                90
_cell_angle_beta                 90
_cell_angle_gamma                90
_cell_volume                     1595.76
loop_
_atom_site_label
_atom_site_type_symbol
_atom_site_fract_x
_atom_site_fract_y
_atom_site_fract_z
Eu1 Eu 0.0000 0.30426(2) 0.7500
Na1 Na 0.0000 0.14061(18) 0.2500
C1 C 0.5000 -0.0359(4) 0.2500
O1 O 0.3421(8) 0.1248(2) 0.2549(17)
C2 C 0.5000 0.1043(4) 0.2500
C3 C 0.5000 0.0556(4) 0.2500
O2 O 0.1844(10) 0.2106(2) 0.3298(9)
O3 O -0.0055(18) 0.1039(4) -0.0166(12)
C4 C 0.3293(15) 0.0325(3) 0.252(4)
H1 H 0.2125 0.0475 0.2565
C5 C 0.3301(16) -0.0130(4) 0.247(4)
H2 H 0.2138 -0.0282 0.2406
C6 C 0.5000 -0.0850(4) 0.2500
O4 O 0.6523(11) -0.1049(2) 0.2905(11)
O5 O 0.0435(10) 0.2412(2) 0.5650(9)
O6 O 0.0720(11) 0.3200(2) 0.4399(9)
C7 C 0.1077(13) 0.2425(3) 0.4128(11)
C8 C 0.0899(14) 0.2856(3) 0.3102(11)
H3 H 0.202(16) 0.288(3) 0.26(2)
H4 H 0.118(16) 0.343(2) 0.396(15)
H5 H 0.123(6) 0.096(4) -0.053(11)
H6 H -0.095(10) 0.105(4) -0.115(8)
Eu1E Eu 0.5000 0.19574(2) 0.2500
Eu1_2 Eu 0.0000 0.30426(2) -0.2500
Eu1E_2 Eu -0.5000 0.19574(2) 0.2500
Na1_2 Na 1.0000 0.14061(18) 0.2500
O1C O 0.6579(8) 0.1248(2) 0.2451(17)
O1C_2 O -0.3421(8) 0.1248(2) 0.2451(17)
O1E O 0.1579(8) 0.3752(2) 0.7549(17)
O1F O -0.1579(8) 0.3752(2) 0.7451(17)
O2C O -0.1844(10) 0.2106(2) 0.1702(9)
O2E O 0.3156(10) 0.2894(2) 0.8298(9)
O2F O -0.3156(10) 0.2894(2) 0.6702(9)
O3C O 0.0055(18) 0.1039(4) 0.5166(12)
C4C C 0.6707(15) 0.0325(3) 0.248(4)
H1C H 0.7875 0.0475 0.2435
C5C C 0.6699(16) -0.0130(4) 0.253(4)
H2C H 0.7862 -0.0282 0.2594
O4C O 0.3477(11) -0.1049(2) 0.2095(11)
O5C O -0.0435(10) 0.2412(2) -0.0650(9)
O5C_2 O -0.0435(10) 0.2412(2) 0.9350(9)
O6C O -0.0720(11) 0.3200(2) 0.0601(9)
O6C_2 O -0.0720(11) 0.3200(2) 1.0601(9)
C7C C -0.1077(13) 0.2425(3) 0.0872(11)
C8C C -0.0899(14) 0.2856(3) 0.1898(11)
H3C H -0.202(16) 0.288(3) 0.24(2)
H4C H -0.118(16) 0.343(2) 0.104(15)
H4C_2 H -0.118(16) 0.343(2) 1.104(15)
H5C H -0.123(6) 0.096(4) 0.553(11)
H6C H 0.095(10) 0.105(4) 0.615(8)
loop_
_geom_bond_atom_site_label_1
_geom_bond_atom_site_label_2
_geom_bond_site_symmetry_1
_geom_bond_site_symmetry_2
Eu1 O5 1_555 1_555
Na1 O1 1_555 1_555
C1 C5 1_555 1_555
O1 C2 1_555 1_555
C2 C3 1_555 1_555
C3 C4 1_555 1_555
O2 Na1 1_555 1_555
O3 Na1 1_555 1_555
C4 H1 1_555 1_555
C5 C4 1_555 1_555
H2 C5 1_555 1_555
C6 C1 1_555 1_555
O4 C6 1_555 1_555
O5 C7 1_555 1_555
O6 Eu1 1_555 1_555
C7 O2 1_555 1_555
C8 O6 1_555 1_555
H3 C8 1_555 1_555
H4 O6 1_555 1_555
H5 O3 1_555 1_555
H6 O3 1_555 1_555
Eu1E O1 1_555 1_555
Eu1_2 O5C 1_555 1_555
Eu1E_2 O1C_2 1_555 1_555
Na1_2 O1C 1_555 1_555
O1C C2 1_555 1_555
O1C_2 Na1 1_555 1_555
O1E Eu1 1_555 1_555
O1F Eu1 1_555 1_555
O2C Na1 1_555 1_555
O2E Eu1 1_555 1_555
O2F Eu1 1_555 1_555
O3C Na1 1_555 1_555
C4C C3 1_555 1_555
H1C C4C 1_555 1_555
C5C C1 1_555 1_555
H2C C5C 1_555 1_555
O4C C6 1_555 1_555
O5C C7C 1_555 1_555
O5C_2 Eu1 1_555 1_555
O6C Eu1_2 1_555 1_555
O6C_2 Eu1 1_555 1_555
C7C O2C 1_555 1_555
C8C C8 1_555 1_555
H3C C8C 1_555 1_555
H4C O6C 1_555 1_555
H4C_2 O6C_2 1_555 1_555
H5C O3C 1_555 1_555
H6C O3C 1_555 1_555
O2 Eu1E 1_555 1_555
C7 C8 1_555 1_555
Eu1E O1C 1_555 1_555
Eu1E_2 O2C 1_555 1_555
C4C C5C 1_555 1_555
O6C C8C 1_555 1_555
C7C C8C 1_555 1_555

#END
