
#######################################################################
#
#                 Cambridge Crystallographic Data Centre
#                                CCDC 
#
#######################################################################
#
# If this CIF has been generated from an entry in the Cambridge 
# Structural Database, then it will include bibliographic, chemical, 
# crystal, experimental, refinement or atomic coordinate data resulting 
# from the CCDC's data processing and validation procedures.
#
#######################################################################

data_DAQSUL
_symmetry_cell_setting           orthorhombic
_symmetry_space_group_name_H-M   'C 2 2 21'
_symmetry_Int_Tables_number      20
_space_group_name_Hall           'C 2n 2'
loop_
_symmetry_equiv_pos_site_id
_symmetry_equiv_pos_as_xyz
1 x,y,z
2 -x,-y,1/2+z
3 -x,y,1/2-z
4 x,-y,-z
5 1/2+x,1/2+y,z
6 1/2-x,1/2-y,1/2+z
7 1/2-x,1/2+y,1/2-z
8 1/2+x,1/2-y,-z
_cell_length_a                   6.89120(10)
_cell_length_b                   39.1425(5)
_cell_length_c                   7.55970(10)
_cell_angle_alpha                90
_cell_angle_beta                 90
_cell_angle_gamma                90
_cell_volume                     2039.14
loop_
_atom_site_label
_atom_site_type_symbol
_atom_site_fract_x
_atom_site_fract_y
_atom_site_fract_z
C1 C 0.0000 -0.62111(7) 0.2500
O1 O -0.1512(3) -0.63652(4) 0.2012(3)
C2 C 0.1642(4) -0.52910(7) 0.3007(4)
H1 H 0.2755 -0.5174 0.3344
O2 O 0.1583(2) -0.34715(4) 0.2374(3)
C3 C 0.0000 -0.36351(7) 0.2500
O3 O 0.4545(2) -0.25661(4) -0.0663(2)
C4 C 0.0000 -0.40141(7) 0.2500
O4 O 0.4309(3) -0.19526(4) 0.0576(2)
C5 C 0.4113(3) -0.22158(6) 0.1872(3)
C6 C 0.1667(4) -0.41932(7) 0.2037(4)
H2 H 0.2789 -0.4075 0.1731
C7 C 0.0000 -0.47276(8) 0.2500
C8 C 0.1658(4) -0.45466(7) 0.2032(4)
H3 H 0.2775 -0.4665 0.171
C9 C 0.0000 -0.51093(8) 0.2500
Na1 Na 0.5000 -0.33520(3) 0.2500
O5 O 0.4937(5) -0.36395(7) -0.0169(3)
O6 O 0.3177(2) -0.28028(4) 0.1695(2)
C10 C 0.3928(3) -0.25535(6) 0.0882(3)
H4 H 0.294(4) -0.2172(6) 0.248(5)
H5 H 0.607(3) -0.3707(7) -0.075(3)
H6 H 0.404(3) -0.3547(7) -0.100(3)
H7 H 0.410(4) -0.1758(5) 0.098(4)
Gd1 Gd 0.5000 -0.207840(3) -0.2500
C11 C 0.0000 -0.58260(7) 0.2500
C12 C 0.1640(4) -0.56478(7) 0.3016(4)
H8 H 0.2744 -0.5766 0.3371
O1B O 0.1512(3) -0.63652(4) 0.2988(3)
C2B C -0.1642(4) -0.52910(7) 0.1993(4)
H1B H -0.2755 -0.5174 0.1656
O2B O -0.1583(2) -0.34715(4) 0.2626(3)
O2B_2 O 0.8417(2) -0.34715(4) 0.2626(3)
O2E O 0.3417(2) -0.15285(4) -0.2626(3)
O2G O 0.6583(2) -0.15285(4) -0.2374(3)
O3B O 0.5455(2) -0.25661(4) 0.5663(2)
O3B_2 O 0.5455(2) -0.25661(4) -0.4337(2)
O4B O 0.5691(3) -0.19526(4) 0.4424(2)
O4B_2 O 0.5691(3) -0.19526(4) -0.5576(2)
C5B C 0.5887(3) -0.22158(6) 0.3128(3)
C6B C -0.1667(4) -0.41932(7) 0.2963(4)
H2B H -0.2789 -0.4075 0.3269
C8B C -0.1658(4) -0.45466(7) 0.2968(4)
H3B H -0.2775 -0.4665 0.329
Na1_2 Na -0.5000 -0.33520(3) 0.2500
O5B O 0.5063(5) -0.36395(7) 0.5169(3)
O6B O 0.6823(2) -0.28028(4) 0.3305(2)
O6E O 0.1823(2) -0.21972(4) -0.3305(2)
O6G O 0.8177(2) -0.21972(4) -0.1695(2)
C10B C 0.6072(3) -0.25535(6) 0.4118(3)
H4B H 0.706(4) -0.2172(6) 0.252(5)
H5B H 0.393(3) -0.3707(7) 0.575(3)
H6B H 0.596(3) -0.3547(7) 0.600(3)
H7B H 0.590(4) -0.1758(5) 0.402(4)
H7B_2 H 0.590(4) -0.1758(5) -0.598(4)
Gd1E Gd 0.0000 -0.292160(3) 0.2500
Gd1_2 Gd 0.5000 -0.207840(3) 0.7500
Gd1E_2 Gd 1.0000 -0.292160(3) 0.2500
C12B C -0.1640(4) -0.56478(7) 0.1984(4)
H8B H -0.2744 -0.5766 0.1629
loop_
_geom_bond_atom_site_label_1
_geom_bond_atom_site_label_2
_geom_bond_site_symmetry_1
_geom_bond_site_symmetry_2
C1 O1 1_555 1_555
C2 H1 1_555 1_555
O2 C3 1_555 1_555
C3 C4 1_555 1_555
O3 C10 1_555 1_555
C4 C6 1_555 1_555
O4 C5 1_555 1_555
C5 C10 1_555 1_555
C6 H2 1_555 1_555
C7 C8 1_555 1_555
C8 C6 1_555 1_555
H3 C8 1_555 1_555
C9 C2 1_555 1_555
Na1 O2 1_555 1_555
O5 Na1 1_555 1_555
O6 Na1 1_555 1_555
C10 O6 1_555 1_555
H4 C5 1_555 1_555
H5 O5 1_555 1_555
H6 O5 1_555 1_555
H7 O4 1_555 1_555
Gd1 O3 1_555 1_555
C11 C1 1_555 1_555
C12 C2 1_555 1_555
H8 C12 1_555 1_555
O1B C1 1_555 1_555
C2B C9 1_555 1_555
H1B C2B 1_555 1_555
O2B C3 1_555 1_555
O2B_2 Na1 1_555 1_555
O2E Gd1 1_555 1_555
O2G Gd1 1_555 1_555
O3B C10B 1_555 1_555
O3B_2 Gd1 1_555 1_555
O4B C5B 1_555 1_555
O4B_2 Gd1 1_555 1_555
C5B C5 1_555 1_555
C6B C4 1_555 1_555
H2B C6B 1_555 1_555
C8B C7 1_555 1_555
H3B C8B 1_555 1_555
Na1_2 O2B 1_555 1_555
O5B Na1 1_555 1_555
O6B Na1 1_555 1_555
O6E Gd1 1_555 1_555
O6G Gd1 1_555 1_555
C10B C5B 1_555 1_555
H4B C5B 1_555 1_555
H5B O5B 1_555 1_555
H6B O5B 1_555 1_555
H7B O4B 1_555 1_555
H7B_2 O4B_2 1_555 1_555
Gd1E O2 1_555 1_555
Gd1_2 O3B 1_555 1_555
Gd1E_2 O2B_2 1_555 1_555
C12B C11 1_555 1_555
H8B C12B 1_555 1_555
O4 Gd1 1_555 1_555
C7 C9 1_555 1_555
O6 Gd1E 1_555 1_555
C11 C12 1_555 1_555
C2B C12B 1_555 1_555
O2B Gd1E 1_555 1_555
O4B Gd1_2 1_555 1_555
C6B C8B 1_555 1_555
O6B C10B 1_555 1_555
O6B Gd1E_2 1_555 1_555

#END
