
#######################################################################
#
#                 Cambridge Crystallographic Data Centre
#                                CCDC 
#
#######################################################################
#
# If this CIF has been generated from an entry in the Cambridge 
# Structural Database, then it will include bibliographic, chemical, 
# crystal, experimental, refinement or atomic coordinate data resulting 
# from the CCDC's data processing and validation procedures.
#
#######################################################################

data_DAQTIA
_symmetry_cell_setting           orthorhombic
_symmetry_space_group_name_H-M   'C 2 2 21'
_symmetry_Int_Tables_number      20
_space_group_name_Hall           'C 2n 2'
loop_
_symmetry_equiv_pos_site_id
_symmetry_equiv_pos_as_xyz
1 x,y,z
2 -x,-y,1/2+z
3 -x,y,1/2-z
4 x,-y,-z
5 1/2+x,1/2+y,z
6 1/2-x,1/2-y,1/2+z
7 1/2-x,1/2+y,1/2-z
8 1/2+x,1/2-y,-z
_cell_length_a                   6.89600(10)
_cell_length_b                   30.4341(8)
_cell_length_c                   7.4984(2)
_cell_angle_alpha                90
_cell_angle_beta                 90
_cell_angle_gamma                90
_cell_volume                     1573.72
loop_
_atom_site_label
_atom_site_type_symbol
_atom_site_fract_x
_atom_site_fract_y
_atom_site_fract_z
Na1 Na 0.0000 -0.14190(10) 0.2500
O1 O -0.3426(5) -0.12630(11) 0.2586(11)
C1 C -0.5000 -0.1056(2) 0.2500
C2 C -0.5000 -0.0566(2) 0.2500
O2 O -0.0454(5) -0.24146(12) 0.5674(5)
O3 O 0.0086(12) -0.10371(19) -0.0156(6)
O4 O -0.0706(6) -0.32022(13) 0.4436(6)
O5 O -0.1856(5) -0.21134(14) 0.3301(6)
C3 C -0.0892(8) -0.28674(19) 0.3123(7)
C4 C -0.1097(7) -0.24309(19) 0.4124(8)
H1 H -0.215(8) -0.2917(17) 0.258(15)
H2 H -0.096(10) -0.3452(12) 0.397(8)
H3 H 0.103(6) -0.1098(17) -0.111(4)
H4 H -0.098(5) -0.0875(18) -0.070(5)
Dy1 Dy 0.0000 -0.303750(12) 0.7500
C5 C -0.5000 0.0351(2) 0.2500
C6 C -0.5000 0.0842(2) 0.2500
O6 O -0.3471(6) 0.10419(14) 0.2066(7)
C7 C -0.6724(8) 0.01209(19) 0.253(2)
H5 H -0.7895 0.0272 0.2528
C8 C -0.6721(8) -0.03391(17) 0.255(2)
H6 H -0.7888 -0.0492 0.2606
Na1_2 Na -1.0000 -0.14190(10) 0.2500
O1B O -0.6574(5) -0.12630(11) 0.2414(11)
O1B_2 O 0.3426(5) -0.12630(11) 0.2414(11)
O1E O -0.1574(5) -0.37370(11) 0.7586(11)
O1G O 0.1574(5) -0.37370(11) 0.7414(11)
O2B O 0.0454(5) -0.24146(12) -0.0674(5)
O2B_2 O 0.0454(5) -0.24146(12) 0.9326(5)
O3B O -0.0086(12) -0.10371(19) 0.5156(6)
O4B O 0.0706(6) -0.32022(13) 0.0564(6)
O4B_2 O 0.0706(6) -0.32022(13) 1.0564(6)
O5B O 0.1856(5) -0.21134(14) 0.1699(6)
O5E O -0.3144(5) -0.28866(14) 0.8301(6)
O5G O 0.3144(5) -0.28866(14) 0.6699(6)
C3B C 0.0892(8) -0.28674(19) 0.1877(7)
C4B C 0.1097(7) -0.24309(19) 0.0876(8)
H1B H 0.215(8) -0.2917(17) 0.242(15)
H2B H 0.096(10) -0.3452(12) 0.103(8)
H2B_2 H 0.096(10) -0.3452(12) 1.103(8)
H3B H -0.103(6) -0.1098(17) 0.611(4)
H4B H 0.098(5) -0.0875(18) 0.570(5)
Dy1E Dy -0.5000 -0.196250(12) 0.2500
Dy1_2 Dy 0.0000 -0.303750(12) -0.2500
Dy1E_2 Dy 0.5000 -0.196250(12) 0.2500
O6B O -0.6529(6) 0.10419(14) 0.2934(7)
C7B C -0.3276(8) 0.01209(19) 0.247(2)
H5B H -0.2105 0.0272 0.2472
C8B C -0.3279(8) -0.03391(17) 0.245(2)
H6B H -0.2112 -0.0492 0.2394
loop_
_geom_bond_atom_site_label_1
_geom_bond_atom_site_label_2
_geom_bond_site_symmetry_1
_geom_bond_site_symmetry_2
Na1 O1 1_555 1_555
O1 C1 1_555 1_555
C1 C2 1_555 1_555
C2 C8 1_555 1_555
O2 C4 1_555 1_555
O3 Na1 1_555 1_555
O4 C3 1_555 1_555
O5 Na1 1_555 1_555
C3 C4 1_555 1_555
C4 O5 1_555 1_555
H1 C3 1_555 1_555
H2 O4 1_555 1_555
H3 O3 1_555 1_555
H4 O3 1_555 1_555
Dy1 O2 1_555 1_555
C5 C6 1_555 1_555
C6 O6 1_555 1_555
C7 C5 1_555 1_555
H5 C7 1_555 1_555
C8 C7 1_555 1_555
H6 C8 1_555 1_555
Na1_2 O1B 1_555 1_555
O1B C1 1_555 1_555
O1B_2 Na1 1_555 1_555
O1E Dy1 1_555 1_555
O1G Dy1 1_555 1_555
O2B C4B 1_555 1_555
O2B_2 Dy1 1_555 1_555
O3B Na1 1_555 1_555
O4B C3B 1_555 1_555
O4B_2 Dy1 1_555 1_555
O5B Na1 1_555 1_555
O5E Dy1 1_555 1_555
O5G Dy1 1_555 1_555
C3B C3 1_555 1_555
C4B O5B 1_555 1_555
H1B C3B 1_555 1_555
H2B O4B 1_555 1_555
H2B_2 O4B_2 1_555 1_555
H3B O3B 1_555 1_555
H4B O3B 1_555 1_555
Dy1E O1 1_555 1_555
Dy1_2 O2B 1_555 1_555
Dy1E_2 O1B_2 1_555 1_555
O6B C6 1_555 1_555
C7B C5 1_555 1_555
H5B C7B 1_555 1_555
C8B C2 1_555 1_555
H6B C8B 1_555 1_555
O4 Dy1 1_555 1_555
O5 Dy1E 1_555 1_555
O1B Dy1E 1_555 1_555
O4B Dy1_2 1_555 1_555
O5B Dy1E_2 1_555 1_555
C3B C4B 1_555 1_555
C7B C8B 1_555 1_555

#END
