
#######################################################################
#
#                 Cambridge Crystallographic Data Centre
#                                CCDC 
#
#######################################################################
#
# If this CIF has been generated from an entry in the Cambridge 
# Structural Database, then it will include bibliographic, chemical, 
# crystal, experimental, refinement or atomic coordinate data resulting 
# from the CCDC's data processing and validation procedures.
#
#######################################################################

data_DAQTEW
_symmetry_cell_setting           orthorhombic
_symmetry_space_group_name_H-M   'C 2 2 21'
_symmetry_Int_Tables_number      20
_space_group_name_Hall           'C 2n 2'
loop_
_symmetry_equiv_pos_site_id
_symmetry_equiv_pos_as_xyz
1 x,y,z
2 -x,-y,1/2+z
3 x,-y,-z
4 -x,y,1/2-z
5 1/2+x,1/2+y,z
6 1/2-x,1/2-y,1/2+z
7 1/2+x,1/2-y,-z
8 1/2-x,1/2+y,1/2-z
_cell_length_a                   6.8767(2)
_cell_length_b                   39.1054(14)
_cell_length_c                   7.5359(3)
_cell_angle_alpha                90
_cell_angle_beta                 90
_cell_angle_gamma                90
_cell_volume                     2026.52
loop_
_atom_site_label
_atom_site_type_symbol
_atom_site_fract_x
_atom_site_fract_y
_atom_site_fract_z
O1 O -0.1581(4) -0.34664(7) -0.2363(9)
C1 C 0.0000 -0.47226(15) -0.2500
C2 C 0.0000 -0.36302(14) -0.2500
C3 C 0.0000 -0.40105(15) -0.2500
C4 C 0.0000 -0.51076(16) -0.2500
C5 C -0.1647(9) -0.45439(14) -0.2053(8)
H1 H -0.2767 -0.4664 -0.175
C6 C -0.1685(8) -0.41905(14) -0.2041(8)
H2 H -0.2815 -0.4074 -0.1733
Na1 Na -0.5000 -0.33480(7) -0.2500
C7 C 0.0000 -0.58255(16) -0.2500
C8 C 0.1639(8) -0.56433(15) -0.1997(8)
H3 H 0.2753 -0.576 -0.1645
C9 C 0.0000 -0.62105(15) -0.2500
O2 O -0.4936(12) -0.36357(13) 0.0171(6)
O3 O 0.1508(5) -0.63635(9) -0.2008(5)
O4 O -0.4549(5) -0.25638(9) 0.0676(5)
O5 O -0.4319(5) -0.19531(9) -0.0552(5)
C10 C -0.4106(7) -0.22156(12) -0.1869(6)
C11 C -0.3935(7) -0.25524(13) -0.0880(7)
O6 O -0.3153(5) -0.28001(9) -0.1713(5)
C12 C 0.1637(9) -0.52924(15) -0.2012(9)
H4 H 0.276 -0.5176 -0.1687
Tb1 Tb -0.5000 -0.207980(9) 0.2500
H5 H -0.284(4) -0.2168(10) -0.239(9)
H6 H -0.402(7) -0.1759(8) -0.094(7)
H7 H -0.574(6) -0.3538(11) 0.110(4)
H8 H -0.373(4) -0.3710(12) 0.063(5)
O1C O 0.1581(4) -0.34664(7) -0.2637(9)
O1C_2 O -0.8419(4) -0.34664(7) -0.2637(9)
O1E O -0.3419(4) -0.15336(7) 0.2637(9)
O1F O -0.6581(4) -0.15336(7) 0.2363(9)
C5C C 0.1647(9) -0.45439(14) -0.2947(8)
H1C H 0.2767 -0.4664 -0.325
C6C C 0.1685(8) -0.41905(14) -0.2959(8)
H2C H 0.2815 -0.4074 -0.3267
Na1_2 Na 0.5000 -0.33480(7) -0.2500
C8C C -0.1639(8) -0.56433(15) -0.3003(8)
H3C H -0.2753 -0.576 -0.3355
O2C O -0.5064(12) -0.36357(13) -0.5171(6)
O3C O -0.1508(5) -0.63635(9) -0.2992(5)
O4C O -0.5451(5) -0.25638(9) -0.5676(5)
O4C_2 O -0.5451(5) -0.25638(9) 0.4324(5)
O5C O -0.5681(5) -0.19531(9) -0.4448(5)
O5C_2 O -0.5681(5) -0.19531(9) 0.5552(5)
C10C C -0.5894(7) -0.22156(12) -0.3131(6)
C11C C -0.6065(7) -0.25524(13) -0.4120(7)
O6C O -0.6847(5) -0.28001(9) -0.3287(5)
O6E O -0.1847(5) -0.21999(9) 0.3287(5)
O6F O -0.8153(5) -0.21999(9) 0.1713(5)
C12C C -0.1637(9) -0.52924(15) -0.2988(9)
H4C H -0.276 -0.5176 -0.3313
Tb1E Tb 0.0000 -0.292020(9) -0.2500
Tb1_2 Tb -0.5000 -0.207980(9) -0.7500
Tb1E_2 Tb -1.0000 -0.292020(9) -0.2500
H5C H -0.716(4) -0.2168(10) -0.261(9)
H6C H -0.598(7) -0.1759(8) -0.406(7)
H6C_2 H -0.598(7) -0.1759(8) 0.594(7)
H7C H -0.426(6) -0.3538(11) -0.610(4)
H8C H -0.627(4) -0.3710(12) -0.563(5)
loop_
_geom_bond_atom_site_label_1
_geom_bond_atom_site_label_2
_geom_bond_site_symmetry_1
_geom_bond_site_symmetry_2
O1 C2 1_555 1_555
C1 C4 1_555 1_555
C2 C3 1_555 1_555
C3 C6 1_555 1_555
C4 C12 1_555 1_555
C5 C1 1_555 1_555
H1 C5 1_555 1_555
C6 C5 1_555 1_555
H2 C6 1_555 1_555
Na1 O1 1_555 1_555
C7 C8 1_555 1_555
C8 H3 1_555 1_555
C9 C7 1_555 1_555
O2 Na1 1_555 1_555
O3 C9 1_555 1_555
O4 C11 1_555 1_555
O5 C10 1_555 1_555
C10 C11 1_555 1_555
C11 O6 1_555 1_555
O6 Na1 1_555 1_555
C12 C8 1_555 1_555
H4 C12 1_555 1_555
Tb1 O4 1_555 1_555
H5 C10 1_555 1_555
H6 O5 1_555 1_555
H7 O2 1_555 1_555
H8 O2 1_555 1_555
O1C C2 1_555 1_555
O1C_2 Na1 1_555 1_555
O1E Tb1 1_555 1_555
O1F Tb1 1_555 1_555
C5C C1 1_555 1_555
H1C C5C 1_555 1_555
C6C C3 1_555 1_555
H2C C6C 1_555 1_555
Na1_2 O1C 1_555 1_555
C8C C7 1_555 1_555
H3C C8C 1_555 1_555
O2C Na1 1_555 1_555
O3C C9 1_555 1_555
O4C C11C 1_555 1_555
O4C_2 Tb1 1_555 1_555
O5C C10C 1_555 1_555
O5C_2 Tb1 1_555 1_555
C10C C10 1_555 1_555
C11C C10C 1_555 1_555
O6C Na1 1_555 1_555
O6E Tb1 1_555 1_555
O6F Tb1 1_555 1_555
C12C C4 1_555 1_555
H4C C12C 1_555 1_555
Tb1E O1 1_555 1_555
Tb1_2 O4C 1_555 1_555
Tb1E_2 O1C_2 1_555 1_555
H5C C10C 1_555 1_555
H6C O5C 1_555 1_555
H6C_2 O5C_2 1_555 1_555
H7C O2C 1_555 1_555
H8C O2C 1_555 1_555
O5 Tb1 1_555 1_555
O6 Tb1E 1_555 1_555
O1C Tb1E 1_555 1_555
C5C C6C 1_555 1_555
C8C C12C 1_555 1_555
O5C Tb1_2 1_555 1_555
C11C O6C 1_555 1_555
O6C Tb1E_2 1_555 1_555

#END
