
#######################################################################
#
#                 Cambridge Crystallographic Data Centre
#                                CCDC 
#
#######################################################################
#
# If this CIF has been generated from an entry in the Cambridge 
# Structural Database, then it will include bibliographic, chemical, 
# crystal, experimental, refinement or atomic coordinate data resulting 
# from the CCDC's data processing and validation procedures.
#
#######################################################################

data_DAQTUM
_symmetry_cell_setting           orthorhombic
_symmetry_space_group_name_H-M   'C 2 2 21'
_symmetry_Int_Tables_number      20
_space_group_name_Hall           'C 2n 2'
loop_
_symmetry_equiv_pos_site_id
_symmetry_equiv_pos_as_xyz
1 x,y,z
2 -x,-y,1/2+z
3 x,-y,-z
4 -x,y,1/2-z
5 1/2+x,1/2+y,z
6 1/2-x,1/2-y,1/2+z
7 1/2+x,1/2-y,-z
8 1/2-x,1/2+y,1/2-z
_cell_length_a                   6.8860(3)
_cell_length_b                   30.3878(12)
_cell_length_c                   7.4722(4)
_cell_angle_alpha                90
_cell_angle_beta                 90
_cell_angle_gamma                90
_cell_volume                     1563.56
loop_
_atom_site_label
_atom_site_type_symbol
_atom_site_fract_x
_atom_site_fract_y
_atom_site_fract_z
Ho1 Ho 0.0000 -0.303630(16) 0.2500
O1 O -0.3410(4) -0.12680(11) -0.2441(13)
C1 C -0.5000 -0.0566(2) -0.2500
C2 C -0.5000 -0.1059(2) -0.2500
C3 C -0.3290(8) -0.03386(18) -0.254(3)
H1 H -0.212 -0.0491 -0.26
C4 C -0.5000 0.0349(2) -0.2500
C5 C -0.3281(8) 0.01184(18) -0.249(3)
H2 H -0.2107 0.0269 -0.2454
O2 O -0.0461(6) -0.24166(13) 0.0690(6)
O3 O -0.0696(6) -0.32053(14) -0.0547(6)
C6 C -0.0895(9) -0.28713(18) -0.1856(9)
C7 C -0.5000 0.0839(2) -0.2500
O4 O -0.6535(6) 0.10398(13) -0.2061(7)
Na1 Na 0.0000 -0.14184(10) -0.2500
O5 O 0.0079(14) -0.1035(2) -0.5152(7)
C8 C -0.1087(8) -0.24303(18) -0.0884(9)
O6 O -0.1871(5) -0.21158(13) -0.1704(6)
H3 H -0.205(7) -0.2924(17) -0.256(10)
H4 H -0.106(10) -0.3453(13) -0.097(10)
H5 H -0.111(5) -0.092(2) -0.566(6)
H6 H 0.106(7) -0.1105(19) -0.604(5)
Ho1E Ho -0.5000 -0.196370(16) -0.2500
Ho1_2 Ho 0.0000 -0.303630(16) -0.7500
Ho1E_2 Ho 0.5000 -0.196370(16) -0.2500
O1C O -0.6590(4) -0.12680(11) -0.2559(13)
O1C_2 O 0.3410(4) -0.12680(11) -0.2559(13)
O1E O -0.1590(4) -0.37320(11) 0.2559(13)
O1F O 0.1590(4) -0.37320(11) 0.2441(13)
C3C C -0.6710(8) -0.03386(18) -0.246(3)
H1C H -0.788 -0.0491 -0.24
C5C C -0.6719(8) 0.01184(18) -0.251(3)
H2C H -0.7893 0.0269 -0.2546
O2C O 0.0461(6) -0.24166(13) -0.5690(6)
O2C_2 O 0.0461(6) -0.24166(13) 0.4310(6)
O3C O 0.0696(6) -0.32053(14) -0.4453(6)
O3C_2 O 0.0696(6) -0.32053(14) 0.5547(6)
C6C C 0.0895(9) -0.28713(18) -0.3144(9)
O4C O -0.3465(6) 0.10398(13) -0.2939(7)
Na1_2 Na -1.0000 -0.14184(10) -0.2500
O5C O -0.0079(14) -0.1035(2) 0.0152(7)
C8C C 0.1087(8) -0.24303(18) -0.4116(9)
O6C O 0.1871(5) -0.21158(13) -0.3296(6)
O6E O -0.3129(5) -0.28842(13) 0.3296(6)
O6F O 0.3129(5) -0.28842(13) 0.1704(6)
H3C H 0.205(7) -0.2924(17) -0.244(10)
H4C H 0.106(10) -0.3453(13) -0.403(10)
H4C_2 H 0.106(10) -0.3453(13) 0.597(10)
H5C H 0.111(5) -0.092(2) 0.066(6)
H6C H -0.106(7) -0.1105(19) 0.104(5)
loop_
_geom_bond_atom_site_label_1
_geom_bond_atom_site_label_2
_geom_bond_site_symmetry_1
_geom_bond_site_symmetry_2
Ho1 O2 1_555 1_555
O1 C2 1_555 1_555
C1 C2 1_555 1_555
C2 O1C 1_555 1_555
C3 C1 1_555 1_555
H1 C3 1_555 1_555
C4 C5 1_555 1_555
C5 C3 1_555 1_555
H2 C5 1_555 1_555
O2 C8 1_555 1_555
O3 Ho1 1_555 1_555
C6 O3 1_555 1_555
C7 C4 1_555 1_555
O4 C7 1_555 1_555
Na1 O1 1_555 1_555
O5 Na1 1_555 1_555
C8 C6 1_555 1_555
O6 Na1 1_555 1_555
H3 C6 1_555 1_555
H4 O3 1_555 1_555
H5 O5 1_555 1_555
H6 O5 1_555 1_555
Ho1E O1 1_555 1_555
Ho1_2 O2C 1_555 1_555
Ho1E_2 O1C_2 1_555 1_555
O1C Ho1E 1_555 1_555
O1C_2 Na1 1_555 1_555
O1E Ho1 1_555 1_555
O1F Ho1 1_555 1_555
C3C C1 1_555 1_555
H1C C3C 1_555 1_555
C5C C4 1_555 1_555
H2C C5C 1_555 1_555
O2C C8C 1_555 1_555
O2C_2 Ho1 1_555 1_555
O3C Ho1_2 1_555 1_555
O3C_2 Ho1 1_555 1_555
C6C C6 1_555 1_555
O4C C7 1_555 1_555
Na1_2 O1C 1_555 1_555
O5C Na1 1_555 1_555
C8C C6C 1_555 1_555
O6C Na1 1_555 1_555
O6E Ho1 1_555 1_555
O6F Ho1 1_555 1_555
H3C C6C 1_555 1_555
H4C O3C 1_555 1_555
H4C_2 O3C_2 1_555 1_555
H5C O5C 1_555 1_555
H6C O5C 1_555 1_555
C8 O6 1_555 1_555
O6 Ho1E 1_555 1_555
Ho1E_2 O6C 1_555 1_555
C3C C5C 1_555 1_555
O3C C6C 1_555 1_555
C8C O6C 1_555 1_555

#END
