
#######################################################################
#
#                 Cambridge Crystallographic Data Centre
#                                CCDC 
#
#######################################################################
#
# If this CIF has been generated from an entry in the Cambridge 
# Structural Database, then it will include bibliographic, chemical, 
# crystal, experimental, refinement or atomic coordinate data resulting 
# from the CCDC's data processing and validation procedures.
#
#######################################################################

data_DAQTUL
_symmetry_cell_setting           monoclinic
_symmetry_space_group_name_H-M   'P 21/c'
_symmetry_Int_Tables_number      14
_space_group_name_Hall           '-P 2ybc'
loop_
_symmetry_equiv_pos_site_id
_symmetry_equiv_pos_as_xyz
1 x,y,z
2 -x,1/2+y,1/2-z
3 -x,-y,-z
4 x,1/2-y,1/2+z
_cell_length_a                   11.231(2)
_cell_length_b                   16.360(3)
_cell_length_c                   22.088(4)
_cell_angle_alpha                90
_cell_angle_beta                 103.33(3)
_cell_angle_gamma                90
_cell_volume                     3949.09
loop_
_atom_site_label
_atom_site_type_symbol
_atom_site_fract_x
_atom_site_fract_y
_atom_site_fract_z
Se1 Se 1.12890(4) 0.75837(2) 0.325483(17)
Se2 Se 0.93718(3) 0.91916(2) 0.222199(15)
Ga1 Ga 1.14411(3) 0.86557(2) 0.253305(16)
K1 K 1.04334(8) 0.60446(5) 0.21454(4)
N1 N 1.2142(3) 0.82625(15) 0.18778(12)
N2 N 1.2648(3) 0.94894(15) 0.26922(11)
C1 C 1.3254(3) 0.86858(19) 0.19243(15)
H1 H 1.3820 0.8525 0.1687
C2 C 1.3483(3) 0.93214(19) 0.23136(15)
H2 H 1.4187 0.9653 0.2337
C3 C 1.1850(3) 0.75562(18) 0.15042(15)
C4 C 1.2553(3) 0.68324(19) 0.16325(15)
C5 C 1.2192(3) 0.6148(2) 0.12543(16)
H3 H 1.2673 0.5665 0.1327
C6 C 1.1154(4) 0.6161(2) 0.07791(16)
H4 H 1.0910 0.5686 0.0535
C7 C 1.0463(4) 0.6876(2) 0.06597(16)
H5 H 0.9736 0.6880 0.0339
C8 C 1.0820(3) 0.7578(2) 0.10010(15)
C9 C 1.3688(3) 0.6780(2) 0.21598(16)
H6 H 1.3735 0.7296 0.2407
C10 C 1.3636(4) 0.6065(2) 0.26007(17)
H7 H 1.2939 0.6139 0.2793
H8 H 1.4395 0.6047 0.2925
H9 H 1.3540 0.5552 0.2366
C11 C 1.4843(4) 0.6733(3) 0.1904(2)
H10 H 1.4845 0.6218 0.1678
H11 H 1.5568 0.6759 0.2249
H12 H 1.4853 0.7192 0.1620
C12 C 1.0166(4) 0.8385(2) 0.07941(16)
H13 H 1.0139 0.8700 0.1179
C13 C 1.0968(4) 0.8875(2) 0.04418(17)
H14 H 1.1787 0.8947 0.0710
H15 H 1.0597 0.9412 0.0327
H16 H 1.1029 0.8578 0.0065
C14 C 0.8857(4) 0.8306(3) 0.04152(19)
H17 H 0.8857 0.8063 0.0010
H18 H 0.8477 0.8848 0.0354
H19 H 0.8392 0.7956 0.0637
C15 C 1.2404(3) 1.03199(18) 0.28172(14)
C16 C 1.2499(3) 1.05561(19) 0.34394(14)
C17 C 1.2296(3) 1.13720(19) 0.35689(15)
H20 H 1.2357 1.1534 0.3988
C18 C 1.2008(3) 1.1951(2) 0.31015(15)
H21 H 1.1896 1.2507 0.3199
C19 C 1.1886(3) 1.17106(19) 0.24912(16)
H22 H 1.1683 1.2108 0.2171
C20 C 1.2053(3) 1.09013(18) 0.23317(14)
C21 C 1.2915(3) 0.9939(2) 0.39616(14)
H23 H 1.2544 0.9400 0.3808
C22 C 1.4289(3) 0.9837(2) 0.41018(17)
H24 H 1.4542 0.9699 0.3718
H25 H 1.4534 0.9396 0.4406
H26 H 1.4684 1.0348 0.4272
C23 C 1.2493(4) 1.0145(2) 0.45587(16)
H27 H 1.2926 1.0632 0.4753
H28 H 1.2674 0.9684 0.4849
H29 H 1.1610 1.0250 0.4455
C24 C 1.1825(3) 1.0669(2) 0.16436(15)
H30 H 1.1887 1.0060 0.1620
C25 C 1.0555(3) 1.0912(2) 0.12813(15)
H31 H 0.9942 1.0697 0.1492
H32 H 1.0408 1.0686 0.0860
H33 H 1.0494 1.1509 0.1259
C26 C 1.2796(4) 1.1034(3) 0.13432(17)
H34 H 1.2618 1.0884 0.0902
H35 H 1.3602 1.0821 0.1552
H36 H 1.2792 1.1630 0.1383
C27 C 1.2739(4) 0.7655(2) 0.39156(16)
C28 C 1.2565(4) 0.7761(2) 0.45155(18)
H37 H 1.1763 0.7834 0.4579
C29 C 1.3567(5) 0.7760(3) 0.5022(2)
H38 H 1.3443 0.7837 0.5429
C30 C 1.4732(5) 0.7649(3) 0.4942(2)
H39 H 1.5409 0.7638 0.5291
C31 C 1.4907(4) 0.7555(2) 0.4343(2)
H40 H 1.5710 0.7484 0.4281
C32 C 1.3910(4) 0.7564(2) 0.38346(18)
H41 H 1.4039 0.7506 0.3427
C33 C 0.8637(3) 0.90086(19) 0.29177(15)
C34 C 0.7398(4) 0.8813(2) 0.27856(18)
H42 H 0.6958 0.8751 0.2366
C35 C 0.6802(4) 0.8709(2) 0.3266(2)
H43 H 0.5955 0.8578 0.3175
C36 C 0.7444(5) 0.8794(2) 0.3877(2)
H44 H 0.7039 0.8714 0.4206
C37 C 0.8663(4) 0.8996(2) 0.40100(18)
H45 H 0.9098 0.9058 0.4431
C38 C 0.9263(4) 0.9108(2) 0.35342(16)
H46 H 1.0105 0.9254 0.3629
Se2A Se 1.06282(3) 0.41916(2) 0.277801(15)
K1A K 0.95666(8) 1.10446(5) 0.28546(4)
C15A C 0.7596(3) 0.53199(18) 0.21828(14)
C16A C 0.7501(3) 0.55561(19) 0.15606(14)
C17A C 0.7704(3) 0.63720(19) 0.14311(15)
H20A H 0.7643 0.6534 0.1012
C18A C 0.7992(3) 0.6951(2) 0.18985(15)
H21A H 0.8104 0.7507 0.1801
C19A C 0.8114(3) 0.67106(19) 0.25088(16)
H22A H 0.8317 0.7108 0.2829
C20A C 0.7947(3) 0.59013(18) 0.26683(14)
loop_
_geom_bond_atom_site_label_1
_geom_bond_atom_site_label_2
_geom_bond_site_symmetry_1
_geom_bond_site_symmetry_2
Se1 Ga1 1_555 1_555
Se2 Ga1 1_555 1_555
Ga1 N1 1_555 1_555
K1 Se1 1_555 1_555
N1 C1 1_555 1_555
N2 Ga1 1_555 1_555
C1 H1 1_555 1_555
C2 N2 1_555 1_555
H2 C2 1_555 1_555
C3 K1 1_555 1_555
C4 K1 1_555 1_555
C5 K1 1_555 1_555
H3 C5 1_555 1_555
C6 K1 1_555 1_555
H4 C6 1_555 1_555
C7 C6 1_555 1_555
H5 C7 1_555 1_555
C8 C3 1_555 1_555
C9 C4 1_555 1_555
H6 C9 1_555 1_555
C10 C9 1_555 1_555
H7 C10 1_555 1_555
H8 C10 1_555 1_555
H9 C10 1_555 1_555
C11 C9 1_555 1_555
H10 C11 1_555 1_555
H11 C11 1_555 1_555
H12 C11 1_555 1_555
C12 C8 1_555 1_555
H13 C12 1_555 1_555
C13 C12 1_555 1_555
H14 C13 1_555 1_555
H15 C13 1_555 1_555
H16 C13 1_555 1_555
C14 C12 1_555 1_555
H17 C14 1_555 1_555
H18 C14 1_555 1_555
H19 C14 1_555 1_555
C15 N2 1_555 1_555
C16 C15 1_555 1_555
C17 C16 1_555 1_555
H20 C17 1_555 1_555
C18 C17 1_555 1_555
H21 C18 1_555 1_555
C19 C18 1_555 1_555
H22 C19 1_555 1_555
C20 C15 1_555 1_555
C21 C16 1_555 1_555
H23 C21 1_555 1_555
C22 C21 1_555 1_555
H24 C22 1_555 1_555
H25 C22 1_555 1_555
H26 C22 1_555 1_555
C23 C21 1_555 1_555
H27 C23 1_555 1_555
H28 C23 1_555 1_555
H29 C23 1_555 1_555
C24 C20 1_555 1_555
H30 C24 1_555 1_555
C25 C24 1_555 1_555
H31 C25 1_555 1_555
H32 C25 1_555 1_555
H33 C25 1_555 1_555
C26 C24 1_555 1_555
H34 C26 1_555 1_555
H35 C26 1_555 1_555
H36 C26 1_555 1_555
C27 Se1 1_555 1_555
C28 C27 1_555 1_555
H37 C28 1_555 1_555
C29 C28 1_555 1_555
H38 C29 1_555 1_555
C30 C29 1_555 1_555
H39 C30 1_555 1_555
C31 C30 1_555 1_555
H40 C31 1_555 1_555
C32 C27 1_555 1_555
H41 C32 1_555 1_555
C33 Se2 1_555 1_555
C34 C33 1_555 1_555
H42 C34 1_555 1_555
C35 C34 1_555 1_555
H43 C35 1_555 1_555
C36 C35 1_555 1_555
H44 C36 1_555 1_555
C37 C36 1_555 1_555
H45 C37 1_555 1_555
C38 C33 1_555 1_555
H46 C38 1_555 1_555
Se2A K1 1_555 1_555
K1A Se2 1_555 1_555
C15A K1 1_555 1_555
C16A K1 1_555 1_555
C17A K1 1_555 1_555
H20A C17A 1_555 1_555
C18A K1 1_555 1_555
H21A C18A 1_555 1_555
C19A K1 1_555 1_555
H22A C19A 1_555 1_555
C20A K1 1_555 1_555
N1 C3 1_555 1_555
C1 C2 1_555 1_555
C3 C4 1_555 1_555
C4 C5 1_555 1_555
C5 C6 1_555 1_555
C7 C8 1_555 1_555
C15 K1A 1_555 1_555
C16 K1A 1_555 1_555
C17 K1A 1_555 1_555
C18 K1A 1_555 1_555
C19 C20 1_555 1_555
C19 K1A 1_555 1_555
C20 K1A 1_555 1_555
C31 C32 1_555 1_555
C37 C38 1_555 1_555
C15A C16A 1_555 1_555
C15A C20A 1_555 1_555
C16A C17A 1_555 1_555
C17A C18A 1_555 1_555
C18A C19A 1_555 1_555
C19A C20A 1_555 1_555

#END
