
#######################################################################
#
#                 Cambridge Crystallographic Data Centre
#                                CCDC 
#
#######################################################################
#
# If this CIF has been generated from an entry in the Cambridge 
# Structural Database, then it will include bibliographic, chemical, 
# crystal, experimental, refinement or atomic coordinate data resulting 
# from the CCDC's data processing and validation procedures.
#
#######################################################################

data_DAQTEV
_symmetry_cell_setting           monoclinic
_symmetry_space_group_name_H-M   'P 21/c'
_symmetry_Int_Tables_number      14
_space_group_name_Hall           '-P 2ybc'
loop_
_symmetry_equiv_pos_site_id
_symmetry_equiv_pos_as_xyz
1 x,y,z
2 -x,1/2+y,1/2-z
3 -x,-y,-z
4 x,1/2-y,1/2+z
_cell_length_a                   10.7604(6)
_cell_length_b                   12.8589(7)
_cell_length_c                   16.3444(9)
_cell_angle_alpha                90
_cell_angle_beta                 105.549(1)
_cell_angle_gamma                90
_cell_volume                     2178.76
loop_
_atom_site_label
_atom_site_type_symbol
_atom_site_fract_x
_atom_site_fract_y
_atom_site_fract_z
Li1 Li 0.9533(2) 0.60938(17) 0.26515(14)
N1 N 1.15308(10) 0.41310(9) 0.24570(7)
N2 N 0.82206(10) 0.48994(9) 0.24548(7)
N3 N 1.03653(10) 0.63513(9) 0.39160(7)
O1 O 1.09442(9) 0.59268(7) 0.21404(6)
O2 O 1.31750(9) 0.55730(7) 0.29695(6)
O3 O 1.15357(9) 0.22894(7) 0.27052(6)
O4 O 1.34582(9) 0.30280(8) 0.23910(6)
S1 S 1.20640(3) 0.52441(2) 0.230820(18)
S2 S 1.24265(3) 0.31514(2) 0.279040(18)
C1 C 1.25270(12) 0.52324(10) 0.13476(8)
C2 C 1.35697(13) 0.58351(11) 0.12881(9)
H1 H 1.4049 0.6223 0.1763
C3 C 1.39028(14) 0.58628(14) 0.05222(10)
H2 H 1.4616 0.6270 0.0473
C4 C 1.32014(17) 0.53005(13) -0.01652(10)
H3 H 1.3446 0.5311 -0.0682
C5 C 1.21423(19) 0.47199(13) -0.01080(10)
H4 H 1.1652 0.4347 -0.0588
C6 C 1.18003(16) 0.46847(12) 0.06529(9)
H5 H 1.1075 0.4289 0.0697
C7 C 1.31298(12) 0.32818(9) 0.38953(8)
C8 C 1.23935(14) 0.30428(11) 0.44509(9)
H6 H 1.1523 0.2823 0.4239
C9 C 1.29456(17) 0.31286(13) 0.53196(10)
H7 H 1.2453 0.2963 0.5705
C10 C 1.42092(16) 0.34549(12) 0.56247(9)
H8 H 1.4578 0.3521 0.6219
C11 C 1.49379(15) 0.36857(12) 0.50707(10)
H9 H 1.5807 0.3906 0.5285
C12 C 1.44015(13) 0.35970(12) 0.41984(9)
H10 H 1.4902 0.3751 0.3815
C13 C 0.70516(12) 0.51193(11) 0.25613(9)
H11 H 0.6899 0.5801 0.2736
C14 C 0.60586(12) 0.43990(11) 0.24286(9)
H12 H 0.5252 0.4581 0.2522
C15 C 0.62633(12) 0.34098(11) 0.21579(9)
H13 H 0.5597 0.2903 0.2058
C16 C 0.74573(13) 0.31709(10) 0.20355(9)
H14 H 0.7622 0.2501 0.1843
C17 C 0.84065(12) 0.39327(10) 0.22007(8)
H15 H 0.9230 0.3761 0.2130
C18 C 1.02909(14) 0.72724(11) 0.42726(9)
H16 H 0.9798 0.7804 0.3931
C19 C 1.08916(16) 0.74975(13) 0.51139(10)
H17 H 1.0805 0.8164 0.5343
C20 C 1.16164(16) 0.67341(15) 0.56109(10)
H18 H 1.2041 0.6862 0.6191
C21 C 1.17127(19) 0.57814(16) 0.52501(11)
H19 H 1.2212 0.5241 0.5577
C22 C 1.10732(17) 0.56215(13) 0.44059(10)
H20 H 1.1142 0.4960 0.4163
Li1A Li 1.0467(2) 0.10938(17) 0.23485(14)
O3A O 0.84643(9) 0.72894(7) 0.22948(6)
loop_
_geom_bond_atom_site_label_1
_geom_bond_atom_site_label_2
_geom_bond_site_symmetry_1
_geom_bond_site_symmetry_2
Li1 N2 1_555 1_555
N1 S1 1_555 1_555
N2 C13 1_555 1_555
N3 Li1 1_555 1_555
O1 Li1 1_555 1_555
O2 S1 1_555 1_555
O3 S2 1_555 1_555
O4 S2 1_555 1_555
S1 O1 1_555 1_555
S2 N1 1_555 1_555
C1 S1 1_555 1_555
C2 C1 1_555 1_555
H1 C2 1_555 1_555
C3 C2 1_555 1_555
H2 C3 1_555 1_555
C4 C3 1_555 1_555
H3 C4 1_555 1_555
C5 C4 1_555 1_555
H4 C5 1_555 1_555
C6 C1 1_555 1_555
H5 C6 1_555 1_555
C7 S2 1_555 1_555
C8 C7 1_555 1_555
H6 C8 1_555 1_555
C9 C8 1_555 1_555
H7 C9 1_555 1_555
C10 C9 1_555 1_555
H8 C10 1_555 1_555
C11 C10 1_555 1_555
H9 C11 1_555 1_555
C12 C7 1_555 1_555
H10 C12 1_555 1_555
C13 H11 1_555 1_555
C14 C13 1_555 1_555
H12 C14 1_555 1_555
C15 C14 1_555 1_555
H13 C15 1_555 1_555
C16 C15 1_555 1_555
H14 C16 1_555 1_555
C17 N2 1_555 1_555
H15 C17 1_555 1_555
C18 N3 1_555 1_555
H16 C18 1_555 1_555
C19 C18 1_555 1_555
H17 C19 1_555 1_555
C20 C19 1_555 1_555
H18 C20 1_555 1_555
C21 C20 1_555 1_555
H19 C21 1_555 1_555
C22 N3 1_555 1_555
H20 C22 1_555 1_555
Li1A O3 1_555 1_555
O3A Li1 1_555 1_555
C5 C6 1_555 1_555
C11 C12 1_555 1_555
C16 C17 1_555 1_555
C21 C22 1_555 1_555

#END
