
#######################################################################
#
#                 Cambridge Crystallographic Data Centre
#                                CCDC 
#
#######################################################################
#
# If this CIF has been generated from an entry in the Cambridge 
# Structural Database, then it will include bibliographic, chemical, 
# crystal, experimental, refinement or atomic coordinate data resulting 
# from the CCDC's data processing and validation procedures.
#
#######################################################################

data_DAQTOG
_symmetry_cell_setting           orthorhombic
_symmetry_space_group_name_H-M   'C 2 2 21'
_symmetry_Int_Tables_number      20
_space_group_name_Hall           'C 2n 2'
loop_
_symmetry_equiv_pos_site_id
_symmetry_equiv_pos_as_xyz
1 x,y,z
2 -x,-y,1/2+z
3 x,-y,-z
4 -x,y,1/2-z
5 1/2+x,1/2+y,z
6 1/2-x,1/2-y,1/2+z
7 1/2+x,1/2-y,-z
8 1/2-x,1/2+y,1/2-z
_cell_length_a                   6.8673(2)
_cell_length_b                   39.0815(9)
_cell_length_c                   7.5196(2)
_cell_angle_alpha                90
_cell_angle_beta                 90
_cell_angle_gamma                90
_cell_volume                     2018.14
loop_
_atom_site_label
_atom_site_type_symbol
_atom_site_fract_x
_atom_site_fract_y
_atom_site_fract_z
O1 O -0.1581(5) -0.34640(8) 0.2630(8)
C1 C 0.0000 -0.36275(14) 0.2500
C2 C 0.0000 -0.40077(16) 0.2500
C3 C 0.0000 -0.47233(16) 0.2500
C4 C 0.0000 -0.51055(16) 0.2500
C5 C -0.1671(8) -0.41866(14) 0.2960(8)
H1 H -0.2797 -0.4068 0.3266
C6 C -0.1669(10) -0.45418(15) 0.2966(9)
H2 H -0.2793 -0.466 0.3283
C7 C 0.0000 -0.58224(16) 0.2500
C8 C 0.1656(10) -0.52863(15) 0.2998(9)
H3 H 0.2777 -0.5168 0.3326
C9 C 0.0000 -0.62085(16) 0.2500
O2 O 0.1515(6) -0.63616(10) 0.2993(6)
Na1 Na -0.5000 -0.33460(7) 0.2500
O3 O -0.4954(11) -0.36356(16) 0.5165(6)
O4 O -0.4535(5) -0.25644(9) 0.5681(4)
O5 O -0.4324(6) -0.19519(9) 0.4452(5)
C10 C -0.4122(7) -0.22108(13) 0.3137(6)
O6 O -0.3143(5) -0.28005(10) 0.3286(5)
C11 C -0.3915(7) -0.25501(12) 0.4127(7)
C12 C 0.1649(9) -0.56426(15) 0.3011(8)
H4 H 0.2758 -0.5761 0.3365
H5 H -0.299(10) -0.2183(16) 0.245(15)
H6 H -0.396(11) -0.1771(12) 0.396(9)
H7 H -0.380(5) -0.3730(17) 0.575(5)
H8 H -0.589(7) -0.3600(15) 0.614(4)
Dy1 Dy -0.5000 -0.208120(8) 0.7500
O1C O 0.1581(5) -0.34640(8) 0.2370(8)
O1C_2 O -0.8419(5) -0.34640(8) 0.2370(8)
O1E O -0.3419(5) -0.15360(8) 0.7630(8)
O1F O -0.6581(5) -0.15360(8) 0.7370(8)
C5C C 0.1671(8) -0.41866(14) 0.2040(8)
H1C H 0.2797 -0.4068 0.1734
C6C C 0.1669(10) -0.45418(15) 0.2034(9)
H2C H 0.2793 -0.466 0.1717
C8C C -0.1656(10) -0.52863(15) 0.2002(9)
H3C H -0.2777 -0.5168 0.1674
O2C O -0.1515(6) -0.63616(10) 0.2007(6)
Na1_2 Na 0.5000 -0.33460(7) 0.2500
O3C O -0.5046(11) -0.36356(16) -0.0165(6)
O4C O -0.5465(5) -0.25644(9) -0.0681(4)
O4C_2 O -0.5465(5) -0.25644(9) 0.9319(4)
O5C O -0.5676(6) -0.19519(9) 0.0548(5)
O5C_2 O -0.5676(6) -0.19519(9) 1.0548(5)
C10C C -0.5878(7) -0.22108(13) 0.1863(6)
O6C O -0.6857(5) -0.28005(10) 0.1714(5)
O6E O -0.1857(5) -0.21995(10) 0.8286(5)
O6F O -0.8143(5) -0.21995(10) 0.6714(5)
C11C C -0.6085(7) -0.25501(12) 0.0873(7)
C12C C -0.1649(9) -0.56426(15) 0.1989(8)
H4C H -0.2758 -0.5761 0.1635
H5C H -0.701(10) -0.2183(16) 0.255(15)
H6C H -0.604(11) -0.1771(12) 0.104(9)
H6C_2 H -0.604(11) -0.1771(12) 1.104(9)
H7C H -0.620(5) -0.3730(17) -0.075(5)
H8C H -0.411(7) -0.3600(15) -0.114(4)
Dy1E Dy 0.0000 -0.291880(8) 0.2500
Dy1_2 Dy -0.5000 -0.208120(8) -0.2500
Dy1E_2 Dy -1.0000 -0.291880(8) 0.2500
loop_
_geom_bond_atom_site_label_1
_geom_bond_atom_site_label_2
_geom_bond_site_symmetry_1
_geom_bond_site_symmetry_2
O1 C1 1_555 1_555
C1 C2 1_555 1_555
C2 C5 1_555 1_555
C3 C4 1_555 1_555
C4 C8 1_555 1_555
C5 H1 1_555 1_555
C6 C3 1_555 1_555
H2 C6 1_555 1_555
C7 C9 1_555 1_555
C8 H3 1_555 1_555
C9 O2 1_555 1_555
Na1 O1 1_555 1_555
O3 Na1 1_555 1_555
O4 C11 1_555 1_555
O5 C10 1_555 1_555
C10 C11 1_555 1_555
O6 Na1 1_555 1_555
C11 O6 1_555 1_555
C12 C7 1_555 1_555
H4 C12 1_555 1_555
H5 C10 1_555 1_555
H6 O5 1_555 1_555
H7 O3 1_555 1_555
H8 O3 1_555 1_555
Dy1 O4 1_555 1_555
O1C C1 1_555 1_555
O1C_2 Na1 1_555 1_555
O1E Dy1 1_555 1_555
O1F Dy1 1_555 1_555
C5C C2 1_555 1_555
H1C C5C 1_555 1_555
C6C C3 1_555 1_555
H2C C6C 1_555 1_555
C8C C4 1_555 1_555
H3C C8C 1_555 1_555
O2C C9 1_555 1_555
Na1_2 O1C 1_555 1_555
O3C Na1 1_555 1_555
O4C C11C 1_555 1_555
O4C_2 Dy1 1_555 1_555
O5C C10C 1_555 1_555
O5C_2 Dy1 1_555 1_555
C10C C10 1_555 1_555
O6C Na1 1_555 1_555
O6E Dy1 1_555 1_555
O6F Dy1 1_555 1_555
C11C C10C 1_555 1_555
C12C C7 1_555 1_555
H4C C12C 1_555 1_555
H5C C10C 1_555 1_555
H6C O5C 1_555 1_555
H6C_2 O5C_2 1_555 1_555
H7C O3C 1_555 1_555
H8C O3C 1_555 1_555
Dy1E O1 1_555 1_555
Dy1_2 O4C 1_555 1_555
Dy1E_2 O1C_2 1_555 1_555
C5 C6 1_555 1_555
C8 C12 1_555 1_555
O5 Dy1 1_555 1_555
O6 Dy1E 1_555 1_555
O1C Dy1E 1_555 1_555
C5C C6C 1_555 1_555
C8C C12C 1_555 1_555
O5C Dy1_2 1_555 1_555
O6C C11C 1_555 1_555
O6C Dy1E_2 1_555 1_555

#END
