
#######################################################################
#
#                 Cambridge Crystallographic Data Centre
#                                CCDC 
#
#######################################################################
#
# If this CIF has been generated from an entry in the Cambridge 
# Structural Database, then it will include bibliographic, chemical, 
# crystal, experimental, refinement or atomic coordinate data resulting 
# from the CCDC's data processing and validation procedures.
#
#######################################################################

data_DAQVOI
_symmetry_cell_setting           orthorhombic
_symmetry_space_group_name_H-M   'C 2 2 21'
_symmetry_Int_Tables_number      20
_space_group_name_Hall           'C 2n 2'
loop_
_symmetry_equiv_pos_site_id
_symmetry_equiv_pos_as_xyz
1 x,y,z
2 -x,-y,1/2+z
3 x,-y,-z
4 -x,y,1/2-z
5 1/2+x,1/2+y,z
6 1/2-x,1/2-y,1/2+z
7 1/2+x,1/2-y,-z
8 1/2-x,1/2+y,1/2-z
_cell_length_a                   6.8598(2)
_cell_length_b                   30.3257(8)
_cell_length_c                   7.4274(2)
_cell_angle_alpha                90
_cell_angle_beta                 90
_cell_angle_gamma                90
_cell_volume                     1545.11
loop_
_atom_site_label
_atom_site_type_symbol
_atom_site_fract_x
_atom_site_fract_y
_atom_site_fract_z
Yb1 Yb 0.0000 -0.303220(8) 0.2500
O1 O -0.3420(4) -0.12831(9) -0.2416(11)
C1 C -0.5000 -0.10709(15) -0.2500
Na1 Na 0.0000 -0.14295(7) -0.2500
O2 O 0.0092(11) -0.10355(17) -0.5153(5)
O3 O 0.0483(4) -0.24199(10) -0.5698(4)
O4 O 0.0698(5) -0.32072(10) -0.4485(4)
C2 C -0.1111(6) -0.24357(14) -0.0869(6)
C3 C -0.0895(7) -0.28743(14) -0.1865(6)
C4 C -0.5000 -0.05802(16) -0.2500
C5 C -0.5000 0.03408(16) -0.2500
C6 C -0.5000 0.08374(16) -0.2500
O5 O -0.6532(5) 0.10358(11) -0.2041(5)
O6 O -0.1901(5) -0.21180(10) -0.1710(4)
C7 C -0.3257(6) -0.03470(13) -0.251(2)
H1 H -0.2078 -0.0498 -0.249
C8 C -0.3263(6) 0.01073(14) -0.254(2)
H2 H -0.2087 0.0259 -0.2581
H3 H -0.214(7) -0.2911(19) -0.249(13)
H4 H 0.116(11) -0.3433(15) -0.402(9)
H5 H -0.113(4) -0.100(2) -0.575(6)
H6 H 0.098(7) -0.1163(18) -0.600(5)
Yb1_2 Yb 0.0000 -0.303220(8) -0.7500
Yb1E Yb 0.5000 -0.196780(8) -0.2500
Yb1E_2 Yb -0.5000 -0.196780(8) -0.2500
O1C O -0.6580(4) -0.12831(9) -0.2584(11)
O1C_2 O 0.3420(4) -0.12831(9) -0.2584(11)
O1E O -0.1580(4) -0.37169(9) 0.2584(11)
O1F O 0.1580(4) -0.37169(9) 0.2416(11)
Na1_2 Na -1.0000 -0.14295(7) -0.2500
O2C O -0.0092(11) -0.10355(17) 0.0153(5)
O3C O -0.0483(4) -0.24199(10) 0.0698(4)
O3_2 O 0.0483(4) -0.24199(10) 0.4302(4)
O4C O -0.0698(5) -0.32072(10) -0.0515(4)
O4_2 O 0.0698(5) -0.32072(10) 0.5515(4)
C2C C 0.1111(6) -0.24357(14) -0.4131(6)
C3C C 0.0895(7) -0.28743(14) -0.3135(6)
O5C O -0.3468(5) 0.10358(11) -0.2959(5)
O6C O 0.1901(5) -0.21180(10) -0.3290(4)
O6E O -0.3099(5) -0.28820(10) 0.3290(4)
O6F O 0.3099(5) -0.28820(10) 0.1710(4)
C7C C -0.6743(6) -0.03470(13) -0.249(2)
H1C H -0.7922 -0.0498 -0.251
C8C C -0.6737(6) 0.01073(14) -0.246(2)
H2C H -0.7913 0.0259 -0.2419
H3C H 0.214(7) -0.2911(19) -0.251(13)
H4C H -0.116(11) -0.3433(15) -0.098(9)
H4_2 H 0.116(11) -0.3433(15) 0.598(9)
H5C H 0.113(4) -0.100(2) 0.075(6)
H6C H -0.098(7) -0.1163(18) 0.100(5)
loop_
_geom_bond_atom_site_label_1
_geom_bond_atom_site_label_2
_geom_bond_site_symmetry_1
_geom_bond_site_symmetry_2
Yb1 O1E 1_555 1_555
O1 C1 1_555 1_555
C1 C4 1_555 1_555
Na1 O1 1_555 1_555
O2 Na1 1_555 1_555
O3 Yb1_2 1_555 1_555
O4 H4 1_555 1_555
C2 C3 1_555 1_555
C3 H3 1_555 1_555
C4 C7 1_555 1_555
C5 C6 1_555 1_555
C6 O5 1_555 1_555
O6 Na1 1_555 1_555
C7 H1 1_555 1_555
C8 C5 1_555 1_555
H2 C8 1_555 1_555
H5 O2 1_555 1_555
H6 O2 1_555 1_555
Yb1_2 O4 1_555 1_555
Yb1E O1C_2 1_555 1_555
Yb1E_2 O1 1_555 1_555
O1C C1 1_555 1_555
O1C_2 Na1 1_555 1_555
O1F Yb1 1_555 1_555
Na1_2 O1C 1_555 1_555
O2C Na1 1_555 1_555
O3C Yb1 1_555 1_555
O3_2 Yb1 1_555 1_555
O4C Yb1 1_555 1_555
O4_2 Yb1 1_555 1_555
C2C O3 1_555 1_555
C3C O4 1_555 1_555
O5C C6 1_555 1_555
O6C Na1 1_555 1_555
O6E Yb1 1_555 1_555
O6F Yb1 1_555 1_555
C7C C4 1_555 1_555
H1C C7C 1_555 1_555
C8C C5 1_555 1_555
H2C C8C 1_555 1_555
H3C C3C 1_555 1_555
H4C O4C 1_555 1_555
H4_2 O4_2 1_555 1_555
H5C O2C 1_555 1_555
H6C O2C 1_555 1_555
C2 O6 1_555 1_555
C2 O3C 1_555 1_555
C3 O4C 1_555 1_555
C3 C3C 1_555 1_555
O6 Yb1E_2 1_555 1_555
C7 C8 1_555 1_555
Yb1E O6C 1_555 1_555
Yb1E_2 O1C 1_555 1_555
C2C C3C 1_555 1_555
C2C O6C 1_555 1_555
C7C C8C 1_555 1_555

#END
