
#######################################################################
#
#                 Cambridge Crystallographic Data Centre
#                                CCDC 
#
#######################################################################
#
# If this CIF has been generated from an entry in the Cambridge 
# Structural Database, then it will include bibliographic, chemical, 
# crystal, experimental, refinement or atomic coordinate data resulting 
# from the CCDC's data processing and validation procedures.
#
#######################################################################

data_DAQVUO
_symmetry_cell_setting           orthorhombic
_symmetry_space_group_name_H-M   'C 2 2 21'
_symmetry_Int_Tables_number      20
_space_group_name_Hall           'C 2n 2'
loop_
_symmetry_equiv_pos_site_id
_symmetry_equiv_pos_as_xyz
1 x,y,z
2 -x,-y,1/2+z
3 x,-y,-z
4 -x,y,1/2-z
5 1/2+x,1/2+y,z
6 1/2-x,1/2-y,1/2+z
7 1/2+x,1/2-y,-z
8 1/2-x,1/2+y,1/2-z
_cell_length_a                   6.82900(10)
_cell_length_b                   38.9781(6)
_cell_length_c                   7.45680(10)
_cell_angle_alpha                90
_cell_angle_beta                 90
_cell_angle_gamma                90
_cell_volume                     1984.86
loop_
_atom_site_label
_atom_site_type_symbol
_atom_site_fract_x
_atom_site_fract_y
_atom_site_fract_z
C1 C 1.0000 0.52858(15) 0.7500
C2 C 1.0000 0.49021(16) 0.7500
Na1 Na 0.5000 0.66663(7) 0.7500
O1 O 0.5050(15) 0.63628(15) 1.0166(6)
C3 C 1.0000 0.41828(16) 0.7500
C4 C 1.1658(9) 0.47192(15) 0.7982(9)
H1 H 1.2789 0.4837 0.8302
C5 C 1.0000 0.37954(15) 0.7500
O2 O 0.5489(5) 0.74363(9) 1.0695(5)
O3 O 0.6892(6) 0.72036(9) 0.8283(5)
O4 O 0.5672(6) 0.80506(9) 0.9489(5)
C6 C 1.1663(9) 0.43626(15) 0.7995(8)
H2 H 1.2786 0.4244 0.8337
C7 C 0.8309(9) 0.58266(14) 0.7941(8)
H3 H 0.7171 0.5946 0.8225
C8 C 0.8321(10) 0.54672(14) 0.7956(8)
H4 H 0.7191 0.5349 0.8275
C9 C 0.5889(8) 0.77922(13) 0.8143(7)
C10 C 0.6101(7) 0.74526(13) 0.9134(7)
O5 O 1.1505(6) 0.36419(9) 0.8018(6)
Yb1 Yb 0.5000 0.791400(7) 1.2500
C11 C 1.0000 0.60036(15) 0.7500
O6 O 0.8414(5) 0.65506(8) 0.7632(11)
C12 C 1.0000 0.63849(14) 0.7500
H5 H 0.709(6) 0.7836(13) 0.754(11)
H6 H 0.601(10) 0.8247(9) 0.910(8)
H7 H 0.410(6) 0.6382(15) 1.114(5)
H8 H 0.630(5) 0.6291(16) 1.068(6)
Na1_2 Na 1.5000 0.66663(7) 0.7500
O1C O 0.4950(15) 0.63628(15) 0.4834(6)
C4C C 0.8342(9) 0.47192(15) 0.7018(9)
H1C H 0.7211 0.4837 0.6698
O2C O 0.4511(5) 0.74363(9) 0.4305(5)
O2C_2 O 0.4511(5) 0.74363(9) 1.4305(5)
O3C O 0.3108(6) 0.72036(9) 0.6717(5)
O3E O 0.8108(6) 0.77964(9) 1.3283(5)
O3F O 0.1892(6) 0.77964(9) 1.1717(5)
O4C O 0.4328(6) 0.80506(9) 0.5511(5)
O4C_2 O 0.4328(6) 0.80506(9) 1.5511(5)
C6C C 0.8337(9) 0.43626(15) 0.7005(8)
H2C H 0.7214 0.4244 0.6663
C7C C 1.1691(9) 0.58266(14) 0.7059(8)
H3C H 1.2829 0.5946 0.6775
C8C C 1.1679(10) 0.54672(14) 0.7044(8)
H4C H 1.2809 0.5349 0.6725
C9C C 0.4111(8) 0.77922(13) 0.6857(7)
C10C C 0.3899(7) 0.74526(13) 0.5866(7)
O5C O 0.8495(6) 0.36419(9) 0.6982(6)
Yb1E Yb 1.0000 0.708600(7) 0.7500
Yb1_2 Yb 0.5000 0.791400(7) 0.2500
Yb1E_2 Yb 0.0000 0.708600(7) 0.7500
O6C O 1.1586(5) 0.65506(8) 0.7368(11)
O6C_2 O 0.1586(5) 0.65506(8) 0.7368(11)
O6E O 0.6586(5) 0.84494(8) 1.2632(11)
O6F O 0.3414(5) 0.84494(8) 1.2368(11)
H5C H 0.291(6) 0.7836(13) 0.746(11)
H6C H 0.399(10) 0.8247(9) 0.590(8)
H6C_2 H 0.399(10) 0.8247(9) 1.590(8)
H7C H 0.590(6) 0.6382(15) 0.386(5)
H8C H 0.370(5) 0.6291(16) 0.432(6)
loop_
_geom_bond_atom_site_label_1
_geom_bond_atom_site_label_2
_geom_bond_site_symmetry_1
_geom_bond_site_symmetry_2
C1 C2 1_555 1_555
C2 C4 1_555 1_555
Na1 O1 1_555 1_555
O1 H7 1_555 1_555
C3 C5 1_555 1_555
C4 H1 1_555 1_555
C5 O5 1_555 1_555
O2 C10 1_555 1_555
O3 Na1 1_555 1_555
O4 C9 1_555 1_555
C6 C3 1_555 1_555
H2 C6 1_555 1_555
C7 H3 1_555 1_555
C8 C1 1_555 1_555
H4 C8 1_555 1_555
C9 C10 1_555 1_555
C10 O3 1_555 1_555
Yb1 O2 1_555 1_555
C11 C7 1_555 1_555
O6 Na1 1_555 1_555
C12 C11 1_555 1_555
H5 C9 1_555 1_555
H6 O4 1_555 1_555
H8 O1 1_555 1_555
Na1_2 O6C 1_555 1_555
O1C Na1 1_555 1_555
C4C C2 1_555 1_555
H1C C4C 1_555 1_555
O2C C10C 1_555 1_555
O2C_2 Yb1 1_555 1_555
O3C Na1 1_555 1_555
O3E Yb1 1_555 1_555
O3F Yb1 1_555 1_555
O4C C9C 1_555 1_555
O4C_2 Yb1 1_555 1_555
C6C C3 1_555 1_555
H2C C6C 1_555 1_555
C7C C11 1_555 1_555
H3C C7C 1_555 1_555
C8C C1 1_555 1_555
H4C C8C 1_555 1_555
C9C C9 1_555 1_555
C10C O3C 1_555 1_555
O5C C5 1_555 1_555
Yb1E O3 1_555 1_555
Yb1_2 O2C 1_555 1_555
Yb1E_2 O3C 1_555 1_555
O6C C12 1_555 1_555
O6C_2 Na1 1_555 1_555
O6E Yb1 1_555 1_555
O6F Yb1 1_555 1_555
H5C C9C 1_555 1_555
H6C O4C 1_555 1_555
H6C_2 O4C_2 1_555 1_555
H7C O1C 1_555 1_555
H8C O1C 1_555 1_555
C4 C6 1_555 1_555
O4 Yb1 1_555 1_555
C7 C8 1_555 1_555
O6 C12 1_555 1_555
O6 Yb1E 1_555 1_555
C4C C6C 1_555 1_555
O4C Yb1_2 1_555 1_555
C7C C8C 1_555 1_555
C9C C10C 1_555 1_555
Yb1E O6C 1_555 1_555
Yb1E_2 O6C_2 1_555 1_555

#END
