
#######################################################################
#
#                 Cambridge Crystallographic Data Centre
#                                CCDC 
#
#######################################################################
#
# If this CIF has been generated from an entry in the Cambridge 
# Structural Database, then it will include bibliographic, chemical, 
# crystal, experimental, refinement or atomic coordinate data resulting 
# from the CCDC's data processing and validation procedures.
#
#######################################################################

data_DAQVIC
_symmetry_cell_setting           orthorhombic
_symmetry_space_group_name_H-M   'C 2 2 21'
_symmetry_Int_Tables_number      20
_space_group_name_Hall           'C 2n 2'
loop_
_symmetry_equiv_pos_site_id
_symmetry_equiv_pos_as_xyz
1 x,y,z
2 -x,-y,1/2+z
3 -x,y,1/2-z
4 x,-y,-z
5 1/2+x,1/2+y,z
6 1/2-x,1/2-y,1/2+z
7 1/2-x,1/2+y,1/2-z
8 1/2+x,1/2-y,-z
_cell_length_a                   6.8454(2)
_cell_length_b                   39.0033(10)
_cell_length_c                   7.4816(2)
_cell_angle_alpha                90
_cell_angle_beta                 90
_cell_angle_gamma                90
_cell_volume                     1997.54
loop_
_atom_site_label
_atom_site_type_symbol
_atom_site_fract_x
_atom_site_fract_y
_atom_site_fract_z
Na1 Na 0.5000 0.33388(6) 0.7500
C1 C 0.0000 0.47195(14) 0.7500
C2 C 0.0000 0.51001(15) 0.7500
O1 O 0.5044(14) 0.36379(14) 0.4829(6)
C3 C 0.1665(10) 0.45340(14) 0.7952(9)
H1 H 0.2797 0.4652 0.8264
C4 C 0.1679(8) 0.41798(13) 0.7950(8)
H2 H 0.2812 0.4061 0.8249
C5 C -0.1650(9) 0.52830(14) 0.7987(8)
H3 H -0.2776 0.5165 0.8308
C6 C 0.0000 0.58227(14) 0.7500
C7 C -0.1659(9) 0.56406(13) 0.8008(8)
H4 H -0.2777 0.5758 0.8362
C8 C 0.0000 0.62038(14) 0.7500
O2 O -0.1514(6) 0.63603(9) 0.8013(6)
O3 O 0.4527(5) 0.25639(9) 1.0680(5)
O4 O 0.3118(5) 0.27967(9) 0.8279(5)
O5 O 0.4327(5) 0.19510(9) 0.9469(5)
C9 C 0.4107(7) 0.22098(12) 0.8147(7)
C10 C 0.3906(7) 0.25492(12) 0.9124(7)
Er1 Er 0.5000 0.208360(8) 1.2500
C11 C 0.0000 0.40026(14) 0.7500
O6 O 0.1584(4) 0.34559(7) 0.7634(10)
C12 C 0.0000 0.36221(14) 0.7500
H5 H 0.292(6) 0.2159(12) 0.750(10)
H6 H 0.401(9) 0.1753(8) 0.909(8)
H7 H 0.408(6) 0.3555(15) 0.398(6)
H8 H 0.628(5) 0.3684(15) 0.425(7)
Na1_2 Na -0.5000 0.33388(6) 0.7500
O1B O 0.4956(14) 0.36379(14) 1.0171(6)
C3B C -0.1665(10) 0.45340(14) 0.7048(9)
H1B H -0.2797 0.4652 0.6736
C4B C -0.1679(8) 0.41798(13) 0.7050(8)
H2B H -0.2812 0.4061 0.6751
C5B C 0.1650(9) 0.52830(14) 0.7013(8)
H3B H 0.2776 0.5165 0.6692
C7B C 0.1659(9) 0.56406(13) 0.6992(8)
H4B H 0.2777 0.5758 0.6638
O2B O 0.1514(6) 0.63603(9) 0.6987(6)
O3B O 0.5473(5) 0.25639(9) 0.4320(5)
O3B_2 O 0.5473(5) 0.25639(9) 1.4320(5)
O4B O 0.6882(5) 0.27967(9) 0.6721(5)
O4E O 0.1882(5) 0.22033(9) 1.3279(5)
O4G O 0.8118(5) 0.22033(9) 1.1721(5)
O5B O 0.5673(5) 0.19510(9) 0.5531(5)
O5B_2 O 0.5673(5) 0.19510(9) 1.5531(5)
C9B C 0.5893(7) 0.22098(12) 0.6853(7)
C10B C 0.6094(7) 0.25492(12) 0.5876(7)
Er1E Er 0.0000 0.291640(8) 0.7500
Er1_2 Er 0.5000 0.208360(8) 0.2500
Er1E_2 Er 1.0000 0.291640(8) 0.7500
O6B O -0.1584(4) 0.34559(7) 0.7366(10)
O6B_2 O 0.8416(4) 0.34559(7) 0.7366(10)
O6E O 0.3416(4) 0.15441(7) 1.2634(10)
O6G O 0.6584(4) 0.15441(7) 1.2366(10)
H5B H 0.708(6) 0.2159(12) 0.750(10)
H6B H 0.599(9) 0.1753(8) 0.591(8)
H6B_2 H 0.599(9) 0.1753(8) 1.591(8)
H7B H 0.592(6) 0.3555(15) 1.102(6)
H8B H 0.372(5) 0.3684(15) 1.075(7)
loop_
_geom_bond_atom_site_label_1
_geom_bond_atom_site_label_2
_geom_bond_site_symmetry_1
_geom_bond_site_symmetry_2
Na1 O1 1_555 1_555
C1 C2 1_555 1_555
C2 C5 1_555 1_555
O1 H7 1_555 1_555
C3 C1 1_555 1_555
H1 C3 1_555 1_555
C4 C3 1_555 1_555
H2 C4 1_555 1_555
C5 H3 1_555 1_555
C6 C7 1_555 1_555
C7 C5 1_555 1_555
H4 C7 1_555 1_555
C8 C6 1_555 1_555
O2 C8 1_555 1_555
O3 C10 1_555 1_555
O4 Na1 1_555 1_555
O5 C9 1_555 1_555
C9 C10 1_555 1_555
C10 O4 1_555 1_555
Er1 O3 1_555 1_555
C11 C4 1_555 1_555
O6 Na1 1_555 1_555
C12 C11 1_555 1_555
H5 C9 1_555 1_555
H6 O5 1_555 1_555
H8 O1 1_555 1_555
Na1_2 O6B 1_555 1_555
O1B Na1 1_555 1_555
C3B C1 1_555 1_555
H1B C3B 1_555 1_555
C4B C11 1_555 1_555
H2B C4B 1_555 1_555
C5B C2 1_555 1_555
H3B C5B 1_555 1_555
C7B C6 1_555 1_555
H4B C7B 1_555 1_555
O2B C8 1_555 1_555
O3B C10B 1_555 1_555
O3B_2 Er1 1_555 1_555
O4B Na1 1_555 1_555
O4E Er1 1_555 1_555
O4G Er1 1_555 1_555
O5B C9B 1_555 1_555
O5B_2 Er1 1_555 1_555
C9B C9 1_555 1_555
C10B O4B 1_555 1_555
Er1E O4 1_555 1_555
Er1_2 O3B 1_555 1_555
Er1E_2 O4B 1_555 1_555
O6B C12 1_555 1_555
O6B_2 Na1 1_555 1_555
O6E Er1 1_555 1_555
O6G Er1 1_555 1_555
H5B C9B 1_555 1_555
H6B O5B 1_555 1_555
H6B_2 O5B_2 1_555 1_555
H7B O1B 1_555 1_555
H8B O1B 1_555 1_555
O5 Er1 1_555 1_555
O6 C12 1_555 1_555
O6 Er1E 1_555 1_555
C3B C4B 1_555 1_555
C5B C7B 1_555 1_555
O5B Er1_2 1_555 1_555
C9B C10B 1_555 1_555
Er1E O6B 1_555 1_555
Er1E_2 O6B_2 1_555 1_555

#END
