
#######################################################################
#
#                 Cambridge Crystallographic Data Centre
#                                CCDC 
#
#######################################################################
#
# If this CIF has been generated from an entry in the Cambridge 
# Structural Database, then it will include bibliographic, chemical, 
# crystal, experimental, refinement or atomic coordinate data resulting 
# from the CCDC's data processing and validation procedures.
#
#######################################################################

data_DAQVEY
_symmetry_cell_setting           orthorhombic
_symmetry_space_group_name_H-M   'C 2 2 21'
_symmetry_Int_Tables_number      20
_space_group_name_Hall           'C 2n 2'
loop_
_symmetry_equiv_pos_site_id
_symmetry_equiv_pos_as_xyz
1 x,y,z
2 -x,-y,1/2+z
3 -x,y,1/2-z
4 x,-y,-z
5 1/2+x,1/2+y,z
6 1/2-x,1/2-y,1/2+z
7 1/2-x,1/2+y,1/2-z
8 1/2+x,1/2-y,-z
_cell_length_a                   6.8781(7)
_cell_length_b                   30.389(3)
_cell_length_c                   7.4593(6)
_cell_angle_alpha                90
_cell_angle_beta                 90
_cell_angle_gamma                90
_cell_volume                     1559.13
loop_
_atom_site_label
_atom_site_type_symbol
_atom_site_fract_x
_atom_site_fract_y
_atom_site_fract_z
O1 O 0.4304(6) 0.32044(13) 0.0524(5)
Na1 Na 0.5000 0.14232(9) 0.2500
O2 O 0.5091(17) 0.1037(2) 0.5142(6)
C1 C 0.0000 0.10610(19) 0.2500
C2 C 0.0000 0.0569(2) 0.2500
O3 O 0.1582(5) 0.12721(10) 0.2444(14)
O4 O 0.3126(6) 0.21178(13) 0.1710(6)
O5 O 0.4530(5) 0.24195(12) -0.0683(5)
Er1 Er 0.5000 0.303480(13) -0.2500
C3 C 0.4113(9) 0.28690(17) 0.1866(7)
C4 C 0.3884(9) 0.24368(18) 0.0873(7)
C5 C 0.1728(8) 0.03452(16) 0.251(3)
H1 H 0.29 0.0498 0.252
C6 C 0.0000 -0.0343(2) 0.2500
C7 C 0.1711(8) -0.01127(17) 0.251(3)
H2 H 0.2884 -0.0265 0.2507
C8 C 0.0000 -0.0842(2) 0.2500
O6 O -0.1523(6) -0.10377(13) 0.2056(6)
H3 H 0.284(7) 0.2908(18) 0.241(14)
H4 H 0.390(11) 0.3434(15) 0.101(9)
H5 H 0.391(5) 0.097(2) 0.580(6)
H6 H 0.598(7) 0.1137(19) 0.606(5)
O1B O 0.5696(6) 0.32044(13) 0.4476(5)
O1B_2 O 0.5696(6) 0.32044(13) -0.5524(5)
Na1_2 Na -0.5000 0.14232(9) 0.2500
O2B O 0.4909(17) 0.1037(2) -0.0142(6)
O3B O -0.1582(5) 0.12721(10) 0.2556(14)
O3B_2 O 0.8418(5) 0.12721(10) 0.2556(14)
O3E O 0.3418(5) 0.37279(10) -0.2556(14)
O3G O 0.6582(5) 0.37279(10) -0.2444(14)
O4B O 0.6874(6) 0.21178(13) 0.3290(6)
O4E O 0.1874(6) 0.28822(13) -0.3290(6)
O4G O 0.8126(6) 0.28822(13) -0.1710(6)
O5B O 0.5470(5) 0.24195(12) 0.5683(5)
O5B_2 O 0.5470(5) 0.24195(12) -0.4317(5)
Er1E Er 0.0000 0.196520(13) 0.2500
Er1_2 Er 0.5000 0.303480(13) 0.7500
Er1E_2 Er 1.0000 0.196520(13) 0.2500
C3B C 0.5887(9) 0.28690(17) 0.3134(7)
C4B C 0.6116(9) 0.24368(18) 0.4127(7)
C5B C -0.1728(8) 0.03452(16) 0.249(3)
H1B H -0.29 0.0498 0.248
C7B C -0.1711(8) -0.01127(17) 0.249(3)
H2B H -0.2884 -0.0265 0.2493
O6B O 0.1523(6) -0.10377(13) 0.2944(6)
H3B H 0.716(7) 0.2908(18) 0.259(14)
H4B H 0.610(11) 0.3434(15) 0.399(9)
H4B_2 H 0.610(11) 0.3434(15) -0.601(9)
H5B H 0.609(5) 0.097(2) -0.080(6)
H6B H 0.402(7) 0.1137(19) -0.106(5)
loop_
_geom_bond_atom_site_label_1
_geom_bond_atom_site_label_2
_geom_bond_site_symmetry_1
_geom_bond_site_symmetry_2
O1 Er1 1_555 1_555
Na1 O2 1_555 1_555
O2 H5 1_555 1_555
C1 C2 1_555 1_555
C2 C5 1_555 1_555
O3 Na1 1_555 1_555
O4 Na1 1_555 1_555
O5 Er1 1_555 1_555
Er1 O1B_2 1_555 1_555
C3 O1 1_555 1_555
C4 O4 1_555 1_555
C5 H1 1_555 1_555
C6 C7 1_555 1_555
C7 C5 1_555 1_555
H2 C7 1_555 1_555
C8 C6 1_555 1_555
O6 C8 1_555 1_555
H3 C3 1_555 1_555
H4 O1 1_555 1_555
H6 O2 1_555 1_555
O1B Er1_2 1_555 1_555
O1B_2 H4B_2 1_555 1_555
Na1_2 O3B 1_555 1_555
O2B Na1 1_555 1_555
O3B C1 1_555 1_555
O3B_2 Na1 1_555 1_555
O3E Er1 1_555 1_555
O3G Er1 1_555 1_555
O4B Na1 1_555 1_555
O4E Er1 1_555 1_555
O4G Er1 1_555 1_555
O5B Er1_2 1_555 1_555
O5B_2 Er1 1_555 1_555
Er1E O3 1_555 1_555
Er1E_2 O3B_2 1_555 1_555
C3B C3 1_555 1_555
C4B O4B 1_555 1_555
C5B C2 1_555 1_555
H1B C5B 1_555 1_555
C7B C6 1_555 1_555
H2B C7B 1_555 1_555
O6B C8 1_555 1_555
H3B C3B 1_555 1_555
H4B O1B 1_555 1_555
H5B O2B 1_555 1_555
H6B O2B 1_555 1_555
C1 O3 1_555 1_555
O4 Er1E 1_555 1_555
O5 C4 1_555 1_555
C3 C4 1_555 1_555
O1B C3B 1_555 1_555
O3B Er1E 1_555 1_555
O4B Er1E_2 1_555 1_555
O5B C4B 1_555 1_555
C3B C4B 1_555 1_555
C5B C7B 1_555 1_555

#END
