
#######################################################################
#
#                 Cambridge Crystallographic Data Centre
#                                CCDC 
#
#######################################################################
#
# If this CIF has been generated from an entry in the Cambridge 
# Structural Database, then it will include bibliographic, chemical, 
# crystal, experimental, refinement or atomic coordinate data resulting 
# from the CCDC's data processing and validation procedures.
#
#######################################################################

data_DAQYUP
_symmetry_cell_setting           orthorhombic
_symmetry_space_group_name_H-M   'P n m a'
_symmetry_Int_Tables_number      62
_space_group_name_Hall           '-P 2ac 2n'
loop_
_symmetry_equiv_pos_site_id
_symmetry_equiv_pos_as_xyz
1 x,y,z
2 1/2+x,y,1/2-z
3 x,1/2-y,z
4 1/2-x,1/2+y,1/2+z
5 -x,-y,-z
6 1/2-x,-y,1/2+z
7 -x,1/2+y,-z
8 1/2+x,1/2-y,1/2-z
_cell_length_a                   26.648(5)
_cell_length_b                   11.386(2)
_cell_length_c                   7.1460(14)
_cell_angle_alpha                90
_cell_angle_beta                 90
_cell_angle_gamma                90
_cell_volume                     2168.2
loop_
_atom_site_label
_atom_site_type_symbol
_atom_site_fract_x
_atom_site_fract_y
_atom_site_fract_z
Ag1 Ag -0.16280(4) 0.2500 0.2341(2)
Ag2 Ag 0.0000 0.5000 1.0000
Cl1 Cl -0.1748(2) 0.2500 0.7759(5)
S1 S -0.08262(10) 0.1084(3) 0.2605(4)
O1 O -0.1968(3) 0.0507(7) 0.3271(10)
O2 O -0.2532(4) 0.2500 0.2139(14)
N1 N -0.0212(4) 0.0808(10) 0.7297(14)
C1 C -0.0566(3) 0.1897(10) 0.4417(12)
C2 C -0.1132(5) -0.0150(10) 0.3840(18)
H1 H -0.0916(5) -0.0835(10) 0.3824(18)
H2 H -0.1197(5) 0.0062(10) 0.5133(18)
C3 C -0.1623(4) -0.0418(11) 0.2846(19)
H3 H -0.1569(4) -0.0463(11) 0.1506(19)
H4 H -0.1756(4) -0.1165(11) 0.3271(19)
C4 C -0.2433(4) 0.0442(12) 0.2262(17)
H5 H -0.2601(4) -0.0292(12) 0.2543(17)
H6 H -0.2369(4) 0.0471(12) 0.0927(17)
C5 C -0.2759(4) 0.1457(11) 0.2828(18)
H7 H -0.3092(4) 0.1367(11) 0.2303(18)
H8 H -0.2788(4) 0.1492(11) 0.4180(18)
C6 C -0.0347(4) 0.1292(10) 0.6022(16)
O3 O -0.2290(5) 0.2500 0.7401(23)
O4 O -0.1633(4) 0.1493(10) 0.8794(16)
O5 O -0.1530(6) 0.2500 0.6031(17)
C1B C -0.0566(3) 0.3103(10) 0.4417(12)
S1B S -0.08262(10) 0.3916(3) 0.2605(4)
O1B O -0.1968(3) 0.4493(7) 0.3271(10)
C3B C -0.1623(4) 0.5418(11) 0.2846(19)
C2B C -0.1132(5) 0.5150(10) 0.3840(18)
H1B H -0.0916(5) 0.5835(10) 0.3824(18)
H2B H -0.1197(5) 0.4938(10) 0.5133(18)
H3B H -0.1569(4) 0.5463(11) 0.1506(19)
H4B H -0.1756(4) 0.6165(11) 0.3271(19)
C4B C -0.2433(4) 0.4558(12) 0.2262(17)
H5B H -0.2601(4) 0.5292(12) 0.2543(17)
H6B H -0.2369(4) 0.4529(12) 0.0927(17)
C5B C -0.2759(4) 0.3543(11) 0.2828(18)
H7B H -0.3092(4) 0.3633(11) 0.2303(18)
H8B H -0.2788(4) 0.3508(11) 0.4180(18)
O4B O -0.1633(4) 0.3507(10) 0.8794(16)
C6B C -0.0347(4) 0.3708(10) 0.6022(16)
N1B N -0.0212(4) 0.4192(10) 0.7297(14)
Ag2B Ag 0.0000 0.0000 1.0000
N1F N 0.0212(4) 0.5808(10) 1.2703(14)
Cl2 Cl 0.0697(2) 0.2500 0.1276(7)
O6 O 0.0167(5) 0.2500 0.0941(23)
O7 O 0.0872(6) 0.1488(16) 0.0502(30)
O8 O 0.0802(9) 0.2500 0.3211(27)
O7B O 0.0872(6) 0.3512(16) 0.0502(30)
loop_
_geom_bond_atom_site_label_1
_geom_bond_atom_site_label_2
_geom_bond_site_symmetry_1
_geom_bond_site_symmetry_2
Ag1 S1 1_555 1_555
Ag2 N1B 1_555 1_555
Cl1 O3 1_555 1_555
Cl2 O6 1_555 1_555
S1 C1 1_555 1_555
O1 Ag1 1_555 1_555
O2 Ag1 1_555 1_555
N1 C6 1_555 1_555
C1 C6 1_555 1_555
C2 S1 1_555 1_555
H1 C2 1_555 1_555
H2 C2 1_555 1_555
C3 O1 1_555 1_555
H3 C3 1_555 1_555
H4 C3 1_555 1_555
C4 O1 1_555 1_555
H5 C4 1_555 1_555
H6 C4 1_555 1_555
C5 O2 1_555 1_555
H7 C5 1_555 1_555
H8 C5 1_555 1_555
O4 Cl1 1_555 1_555
O5 Ag1 1_555 1_555
O7 Cl2 1_555 1_555
O8 Cl2 1_555 1_555
C1B C1 1_555 1_555
S1B Ag1 1_555 1_555
O1B Ag1 1_555 1_555
C3B O1B 1_555 1_555
C2B S1B 1_555 1_555
H1B C2B 1_555 1_555
H2B C2B 1_555 1_555
H3B C3B 1_555 1_555
H4B C3B 1_555 1_555
C4B O1B 1_555 1_555
H5B C4B 1_555 1_555
H6B C4B 1_555 1_555
C5B O2 1_555 1_555
H7B C5B 1_555 1_555
H8B C5B 1_555 1_555
O4B Cl1 1_555 1_555
C6B C1B 1_555 1_555
N1B C6B 1_555 1_555
Ag2B N1 1_555 1_555
N1F Ag2 1_555 1_555
O7B Cl2 1_555 1_555
Cl1 O5 1_555 1_555
C2 C3 1_555 1_555
C4 C5 1_555 1_555
C1B S1B 1_555 1_555
C3B C2B 1_555 1_555
C4B C5B 1_555 1_555

#END
