
#######################################################################
#
#                 Cambridge Crystallographic Data Centre
#                                CCDC 
#
#######################################################################
#
# If this CIF has been generated from an entry in the Cambridge 
# Structural Database, then it will include bibliographic, chemical, 
# crystal, experimental, refinement or atomic coordinate data resulting 
# from the CCDC's data processing and validation procedures.
#
#######################################################################

data_DARPUJ
_symmetry_cell_setting           monoclinic
_symmetry_space_group_name_H-M   'I 2/a'
_symmetry_Int_Tables_number      15
_space_group_name_Hall           '-I 2ya'
loop_
_symmetry_equiv_pos_site_id
_symmetry_equiv_pos_as_xyz
1 x,y,z
2 1/2-x,y,-z
3 1/2+x,1/2+y,1/2+z
4 -x,1/2+y,1/2-z
5 -x,-y,-z
6 1/2+x,-y,z
7 1/2-x,1/2-y,1/2-z
8 x,1/2-y,1/2+z
_cell_length_a                   12.4825(8)
_cell_length_b                   14.2559(8)
_cell_length_c                   27.235(2)
_cell_angle_alpha                90
_cell_angle_beta                 90.00
_cell_angle_gamma                90
_cell_volume                     4846.45
loop_
_atom_site_label
_atom_site_type_symbol
_atom_site_fract_x
_atom_site_fract_y
_atom_site_fract_z
Fe1 Fe 0.25002(8) 0.09497(8) 0.13880(3)
Co1 Co 0.5000 0.0000 0.0000
O1 O 0.5991(6) 0.1217(6) 0.0000(2)
N1 N 0.2500(7) -0.1171(6) 0.1598(3)
N2 N 0.2499(9) 0.3026(7) 0.1102(3)
N3 N 0.4075(6) 0.0578(6) 0.0556(2)
N4 N 0.4072(6) 0.0580(6) -0.0555(2)
N5 N 0.1473(5) 0.1138(4) 0.1931(2)
N6 N 0.3524(5) 0.1138(4) 0.1932(2)
C1 C 0.2495(6) -0.0383(7) 0.1519(3)
C2 C 0.2499(7) 0.2278(7) 0.1207(3)
C3 C 0.3515(7) 0.0737(6) 0.0877(3)
C4 C 0.3513(7) 0.0737(6) -0.0875(3)
C5 C 0.0402(7) 0.1165(6) 0.1901(3)
H1 H 0.0089 0.1121 0.1592
C6 C -0.0255(7) 0.1253(7) 0.2299(3)
H2 H -0.0993 0.1288 0.2255
C7 C 0.0173(7) 0.1291(7) 0.2766(3)
C8 C 0.1286(7) 0.1254(6) 0.2802(3)
H3 H 0.1610 0.1270 0.3109
C9 C 0.1912(6) 0.1195(5) 0.2385(2)
C10 C 0.3084(6) 0.1190(5) 0.2387(2)
C11 C 0.3708(7) 0.1255(6) 0.2803(3)
H4 H 0.3385 0.1273 0.3111
C12 C 0.4826(7) 0.1293(7) 0.2765(3)
C13 C 0.5251(7) 0.1248(7) 0.2302(3)
H5 H 0.5990 0.1271 0.2260
C14 C 0.4596(7) 0.1168(6) 0.1900(3)
H6 H 0.4910 0.1133 0.1591
C15 C 0.5508(9) 0.1330(8) 0.3225(4)
H7 H 0.5051 0.1359 0.3509
H8 H 0.5957 0.1877 0.3216
H9 H 0.5947 0.0778 0.3243
C16 C -0.0512(9) 0.1331(8) 0.3224(4)
H10 H -0.0059 0.1351 0.3508
H11 H -0.0960 0.0784 0.3238
H12 H -0.0952 0.1883 0.3215
Fe1D Fe 0.74998(8) -0.09497(8) -0.13880(3)
Fe1A Fe 0.24998(8) 0.09497(8) -0.13880(3)
Fe1E Fe 0.75002(8) -0.09497(8) 0.13880(3)
O1D O 0.4009(6) -0.1217(6) 0.0000(2)
N1D N 0.7500(7) 0.1171(6) -0.1598(3)
N2D N 0.7501(9) -0.3026(7) -0.1102(3)
N3D N 0.5925(6) -0.0578(6) -0.0556(2)
N4D N 0.5928(6) -0.0580(6) 0.0555(2)
N5D N 0.8527(5) -0.1138(4) -0.1931(2)
N6D N 0.6476(5) -0.1138(4) -0.1932(2)
C1D C 0.7505(6) 0.0383(7) -0.1519(3)
C2D C 0.7501(7) -0.2278(7) -0.1207(3)
C3D C 0.6485(7) -0.0737(6) -0.0877(3)
C4D C 0.6487(7) -0.0737(6) 0.0875(3)
C4A C 0.1487(7) 0.0737(6) 0.0875(3)
C4E C 0.8513(7) -0.0737(6) -0.0875(3)
C5D C 0.9598(7) -0.1165(6) -0.1901(3)
H1D H 0.9911 -0.1121 -0.1592
C6D C 1.0255(7) -0.1253(7) -0.2299(3)
H2D H 1.0993 -0.1288 -0.2255
C7D C 0.9827(7) -0.1291(7) -0.2766(3)
C8D C 0.8714(7) -0.1254(6) -0.2802(3)
H3D H 0.8390 -0.1270 -0.3109
C9D C 0.8088(6) -0.1195(5) -0.2385(2)
C10D C 0.6916(6) -0.1190(5) -0.2387(2)
C11D C 0.6292(7) -0.1255(6) -0.2803(3)
H4D H 0.6615 -0.1273 -0.3111
C12D C 0.5174(7) -0.1293(7) -0.2765(3)
C13D C 0.4749(7) -0.1248(7) -0.2302(3)
H5D H 0.4010 -0.1271 -0.2260
C14D C 0.5404(7) -0.1168(6) -0.1900(3)
H6D H 0.5090 -0.1133 -0.1591
C15D C 0.4492(9) -0.1330(8) -0.3225(4)
H7D H 0.4949 -0.1359 -0.3509
H8D H 0.4043 -0.1877 -0.3216
H9D H 0.4053 -0.0778 -0.3243
C16D C 1.0512(9) -0.1331(8) -0.3224(4)
H10D H 1.0059 -0.1351 -0.3508
H11D H 1.0960 -0.0784 -0.3238
H12D H 1.0952 -0.1883 -0.3215
O2 O -0.2503(14) 0.1976(10) -0.0633(5)
loop_
_geom_bond_atom_site_label_1
_geom_bond_atom_site_label_2
_geom_bond_site_symmetry_1
_geom_bond_site_symmetry_2
Fe1 N5 1_555 1_555
Co1 O1 1_555 1_555
N1 C1 1_555 1_555
N2 C2 1_555 1_555
N3 Co1 1_555 1_555
N4 Co1 1_555 1_555
N5 C5 1_555 1_555
N6 Fe1 1_555 1_555
C1 Fe1 1_555 1_555
C2 Fe1 1_555 1_555
C3 Fe1 1_555 1_555
C4 N4 1_555 1_555
C5 H1 1_555 1_555
C6 C5 1_555 1_555
H2 C6 1_555 1_555
C7 C6 1_555 1_555
C8 C7 1_555 1_555
H3 C8 1_555 1_555
C9 N5 1_555 1_555
C10 N6 1_555 1_555
C11 C10 1_555 1_555
H4 C11 1_555 1_555
C12 C11 1_555 1_555
C13 C12 1_555 1_555
H5 C13 1_555 1_555
C14 N6 1_555 1_555
H6 C14 1_555 1_555
C15 C12 1_555 1_555
H7 C15 1_555 1_555
H8 C15 1_555 1_555
H9 C15 1_555 1_555
C16 C7 1_555 1_555
H10 C16 1_555 1_555
H11 C16 1_555 1_555
H12 C16 1_555 1_555
Fe1D N5D 1_555 1_555
Fe1A C4 1_555 1_555
Fe1E C4D 1_555 1_555
O1D Co1 1_555 1_555
N1D C1D 1_555 1_555
N2D C2D 1_555 1_555
N3D Co1 1_555 1_555
N4D Co1 1_555 1_555
N5D C5D 1_555 1_555
N6D Fe1D 1_555 1_555
C1D Fe1D 1_555 1_555
C2D Fe1D 1_555 1_555
C3D Fe1D 1_555 1_555
C4D N4D 1_555 1_555
C4A Fe1 1_555 1_555
C4E Fe1D 1_555 1_555
C5D H1D 1_555 1_555
C6D C5D 1_555 1_555
H2D C6D 1_555 1_555
C7D C6D 1_555 1_555
C8D C7D 1_555 1_555
H3D C8D 1_555 1_555
C9D N5D 1_555 1_555
C10D N6D 1_555 1_555
C11D C10D 1_555 1_555
H4D C11D 1_555 1_555
C12D C11D 1_555 1_555
C13D C12D 1_555 1_555
H5D C13D 1_555 1_555
C14D N6D 1_555 1_555
H6D C14D 1_555 1_555
C15D C12D 1_555 1_555
H7D C15D 1_555 1_555
H8D C15D 1_555 1_555
H9D C15D 1_555 1_555
C16D C7D 1_555 1_555
H10D C16D 1_555 1_555
H11D C16D 1_555 1_555
H12D C16D 1_555 1_555
N3 C3 1_555 1_555
C8 C9 1_555 1_555
C9 C10 1_555 1_555
C13 C14 1_555 1_555
N3D C3D 1_555 1_555
C8D C9D 1_555 1_555
C9D C10D 1_555 1_555
C13D C14D 1_555 1_555

#END
