
#######################################################################
#
#                 Cambridge Crystallographic Data Centre
#                                CCDC 
#
#######################################################################
#
# If this CIF has been generated from an entry in the Cambridge 
# Structural Database, then it will include bibliographic, chemical, 
# crystal, experimental, refinement or atomic coordinate data resulting 
# from the CCDC's data processing and validation procedures.
#
#######################################################################

data_DARPAO
_symmetry_cell_setting           triclinic
_symmetry_space_group_name_H-M   'P -1'
_symmetry_Int_Tables_number      2
_space_group_name_Hall           '-P 1'
loop_
_symmetry_equiv_pos_site_id
_symmetry_equiv_pos_as_xyz
1 x,y,z
2 -x,-y,-z
_cell_length_a                   11.4854(18)
_cell_length_b                   11.7200(18)
_cell_length_c                   11.7770(18)
_cell_angle_alpha                67.254(3)
_cell_angle_beta                 61.284(3)
_cell_angle_gamma                64.113(3)
_cell_volume                     1218.97
loop_
_atom_site_label
_atom_site_type_symbol
_atom_site_fract_x
_atom_site_fract_y
_atom_site_fract_z
Ru1 Ru -0.00827(5) 0.91610(5) 0.59855(5)
Fe1 Fe 0.0000 0.5000 1.0000
Na1 Na 0.5665(3) 0.6032(3) 0.5114(3)
Na2 Na 0.3841(3) 0.6704(3) 0.8283(3)
Na3 Na 0.4730(4) 0.8810(3) 0.8846(3)
Na4 Na 0.0000 1.0000 1.0000
P1 P -0.14277(17) 1.18433(15) 0.65662(15)
P2 P 0.17262(17) 1.07086(15) 0.54823(15)
O1 O -0.1475(4) 1.0424(4) 0.7193(4)
O2 O -0.1318(4) 1.2187(4) 0.5120(4)
O3 O -0.2635(4) 1.2796(4) 0.7340(4)
O4 O 0.1492(4) 0.9350(4) 0.6181(4)
O5 O 0.1677(4) 1.1100(4) 0.4092(4)
O6 O 0.3058(5) 1.0708(4) 0.5418(4)
O7 O 0.0196(5) 1.1476(5) 0.7764(4)
H1 H 0.0921 1.1477 0.7738
N1 N -0.0176(6) 0.7449(5) 0.7763(5)
N2 N 0.1024(7) 0.3019(6) 0.8384(6)
N3 N 0.3053(6) 0.4678(6) 0.9310(5)
C1 C 0.0223(7) 1.1869(5) 0.6425(6)
C2 C 0.0319(7) 1.3252(6) 0.5782(6)
H2 H 0.1181 1.3273 0.5706
H3 H -0.0451 1.3835 0.6323
H4 H 0.0287 1.3517 0.4915
C3 C -0.0122(6) 0.6520(6) 0.8584(5)
C4 C 0.0630(7) 0.3812(6) 0.8949(6)
C5 C 0.1906(7) 0.4809(6) 0.9552(6)
O8 O 0.4962(5) 0.6015(5) 0.3470(4)
H5 H 0.5721 0.5846 0.2733
H6 H 0.4156 0.6559 0.3372
O9 O 0.7770(5) 0.4743(5) 0.3941(5)
H7 H 0.8409 0.5073 0.3210
H8 H 0.8059 0.3901 0.4334
O10 O 0.6297(6) 0.7886(5) 0.3697(5)
H9 H 0.7083 0.7775 0.2973
H10 H 0.6284 0.8534 0.3930
O11 O 0.3374(5) 0.6888(4) 0.6433(5)
H11 H 0.3064 0.6302 0.6443
H12 H 0.2794 0.7702 0.6473
O12 O 0.6265(5) 0.5612(5) 0.7014(5)
H13 H 0.6602 0.4738 0.7235
H14 H 0.6575 0.6052 0.7233
O13 O 0.4545(5) 0.8670(5) 0.6944(4)
H15 H 0.5421 0.8681 0.6641
H16 H 0.4025 0.9192 0.6450
O14 O 0.4218(6) 0.6771(6) 1.0065(5)
H17 H 0.4985 0.6245 1.0252
H18 H 0.3445 0.7106 1.0719
O15 O 0.5890(8) 0.8368(6) 1.0237(6)
H19 H 0.5087 0.8565 1.0842
H20 H 0.6265 0.7661 0.9898
O16 O 0.5579(6) 1.0579(6) 0.7564(5)
H21 H 0.6505 1.0347 0.7324
H22 H 0.5203 1.1028 0.6944
O17 O 0.2200(8) 1.0146(7) 0.9941(6)
H23 H 0.2820 1.0251 1.0123
H24 H 0.1359 1.0409 1.0560
O18 O 0.1384(6) 0.8217(6) 0.8976(6)
H25 H 0.0921 0.8759 0.8430
H26 H 0.1047 0.7601 0.9590
O19 O 0.7134(6) 0.6974(6) 0.7802(5)
H27 H 0.7435 0.7670 0.7284
H28 H 0.7606 0.6222 0.8101
Ru1A Ru 0.00827(5) 0.08390(5) 1.40145(5)
Ru1A_2 Ru 0.00827(5) 1.08390(5) 0.40145(5)
Ru1_2 Ru -0.00827(5) -0.08390(5) 1.59855(5)
Na1A Na -0.5665(3) 1.3968(3) 1.4886(3)
Na1A_2 Na 0.4335(3) 0.3968(3) 0.4886(3)
Na1_2 Na -0.4335(3) 1.6032(3) 1.5114(3)
Na2A Na -0.3841(3) 1.3296(3) 1.1717(3)
Na3A Na -0.4730(4) 1.1190(3) 1.1154(3)
Na4_2 Na 0.0000 1.0000 0.0000
P1A P 0.14277(17) 0.81567(15) 0.34338(15)
P2A P -0.17262(17) 0.92914(15) 0.45177(15)
O1A O 0.1475(4) 0.9576(4) 0.2807(4)
O1A_2 O 0.1475(4) -0.0424(4) 1.2807(4)
O2A O 0.1318(4) 0.7813(4) 0.4880(4)
O2_2 O -0.1318(4) 0.2187(4) 1.5120(4)
O3A O 0.2635(4) 0.7204(4) 0.2660(4)
O4A O -0.1492(4) 1.0650(4) 0.3819(4)
O4A_2 O -0.1492(4) 0.0650(4) 1.3819(4)
O5A O -0.1677(4) 0.8900(4) 0.5908(4)
O5_2 O 0.1677(4) 0.1100(4) 1.4092(4)
O6A O -0.3058(5) 0.9292(4) 0.4582(4)
O7A O -0.0196(5) 0.8524(5) 0.2236(4)
O7A_2 O -0.0196(5) 0.8524(5) 1.2236(4)
H1A H -0.0921 0.8523 0.2262
H1A_2 H -0.0921 0.8523 1.2262
N1A N 0.0176(6) 0.2551(5) 1.2237(5)
N2A N -0.1024(7) 0.6981(6) 1.1616(6)
N3A N -0.3053(6) 0.5322(6) 1.0690(5)
C1A C -0.0223(7) 0.8131(5) 0.3575(6)
C2A C -0.0319(7) 0.6748(6) 0.4218(6)
H2A H -0.1181 0.6727 0.4294
H3A H 0.0451 0.6165 0.3677
H4A H -0.0287 0.6483 0.5085
C3A C 0.0122(6) 0.3480(6) 1.1416(5)
C4A C -0.0630(7) 0.6188(6) 1.1051(6)
C5A C -0.1906(7) 0.5191(6) 1.0448(6)
O8A O 0.5038(5) 0.3985(5) 0.6530(4)
O8_2 O -0.5038(5) 1.6015(5) 1.3470(4)
O8A_2 O -0.4962(5) 1.3985(5) 1.6530(4)
H5A H 0.4279 0.4154 0.7267
H5_2 H -0.4279 1.5846 1.2733
H5A_2 H -0.5721 1.4154 1.7267
H6A H 0.5844 0.3441 0.6628
H6_2 H -0.5844 1.6559 1.3372
H6A_2 H -0.4156 1.3441 1.6628
O9A O -0.7770(5) 1.5257(5) 1.6059(5)
H7A H -0.8409 1.4927 1.6790
H8A H -0.8059 1.6099 1.5666
O10A O -0.6297(6) 1.2114(5) 1.6303(5)
H9A H -0.7083 1.2225 1.7027
H10A H -0.6284 1.1466 1.6070
O11A O -0.3374(5) 1.3112(4) 1.3567(5)
H11A H -0.3064 1.3698 1.3557
H12A H -0.2794 1.2298 1.3527
O12A O -0.6265(5) 1.4388(5) 1.2986(5)
H13A H -0.6602 1.5262 1.2765
H14A H -0.6575 1.3948 1.2767
O13A O -0.4545(5) 1.1330(5) 1.3056(4)
H15A H -0.5421 1.1319 1.3359
H16A H -0.4025 1.0808 1.3550
O14A O -0.4218(6) 1.3229(6) 0.9935(5)
H17A H -0.4985 1.3755 0.9748
H18A H -0.3445 1.2894 0.9281
O15A O -0.5890(8) 1.1632(6) 0.9763(6)
H19A H -0.5087 1.1435 0.9158
H20A H -0.6265 1.2339 1.0102
O16A O -0.5579(6) 0.9421(6) 1.2436(5)
H21A H -0.6505 0.9653 1.2676
H22A H -0.5203 0.8972 1.3056
O17A O -0.2200(8) 0.9854(7) 1.0059(6)
H23A H -0.2820 0.9749 0.9877
H24A H -0.1359 0.9591 0.9440
O18A O -0.1384(6) 1.1783(6) 1.1024(6)
H25A H -0.0921 1.1241 1.1570
H26A H -0.1047 1.2399 1.0410
O19A O -0.7134(6) 1.3026(6) 1.2198(5)
H27A H -0.7435 1.2330 1.2716
H28A H -0.7606 1.3778 1.1899
loop_
_geom_bond_atom_site_label_1
_geom_bond_atom_site_label_2
_geom_bond_site_symmetry_1
_geom_bond_site_symmetry_2
Ru1 O1 1_555 1_555
Fe1 C3 1_555 1_555
Na1 O8 1_555 1_555
Na2 O11 1_555 1_555
Na3 O13 1_555 1_555
Na4 O7 1_555 1_555
P1 O1 1_555 1_555
P2 O4 1_555 1_555
O2 P1 1_555 1_555
O3 P1 1_555 1_555
O4 Ru1 1_555 1_555
O5 P2 1_555 1_555
O6 P2 1_555 1_555
O7 H1 1_555 1_555
N1 Ru1 1_555 1_555
N2 C4 1_555 1_555
N3 C5 1_555 1_555
C1 P1 1_555 1_555
C2 C1 1_555 1_555
H2 C2 1_555 1_555
H3 C2 1_555 1_555
H4 C2 1_555 1_555
C3 N1 1_555 1_555
C4 Fe1 1_555 1_555
C5 Fe1 1_555 1_555
O8 H5 1_555 1_555
H6 O8 1_555 1_555
O9 Na1 1_555 1_555
H7 O9 1_555 1_555
H8 O9 1_555 1_555
O10 Na1 1_555 1_555
H9 O10 1_555 1_555
H10 O10 1_555 1_555
O11 Na1 1_555 1_555
H11 O11 1_555 1_555
H12 O11 1_555 1_555
O12 Na1 1_555 1_555
H13 O12 1_555 1_555
H14 O12 1_555 1_555
O13 Na2 1_555 1_555
H15 O13 1_555 1_555
H16 O13 1_555 1_555
O14 Na2 1_555 1_555
H17 O14 1_555 1_555
H18 O14 1_555 1_555
O15 Na3 1_555 1_555
H19 O15 1_555 1_555
H20 O15 1_555 1_555
O16 Na3 1_555 1_555
H21 O16 1_555 1_555
H22 O16 1_555 1_555
O17 Na3 1_555 1_555
H23 O17 1_555 1_555
H24 O17 1_555 1_555
O18 Na2 1_555 1_555
H25 O18 1_555 1_555
H26 O18 1_555 1_555
O19 Na3 1_555 1_555
H27 O19 1_555 1_555
H28 O19 1_555 1_555
Ru1A Ru1_2 1_555 1_555
Ru1A_2 Ru1 1_555 1_555
Na1A O8_2 1_555 1_555
Na1A_2 O8 1_555 1_555
Na1_2 O8_2 1_555 1_555
Na2A O11A 1_555 1_555
Na3A O13A 1_555 1_555
Na4_2 O7A 1_555 1_555
P1A O1A 1_555 1_555
P2A O4A 1_555 1_555
O1A Ru1A_2 1_555 1_555
O1A_2 Ru1A 1_555 1_555
O2A Ru1 1_555 1_555
O2_2 Ru1A 1_555 1_555
O3A P1A 1_555 1_555
O4A Ru1A_2 1_555 1_555
O4A_2 Ru1A 1_555 1_555
O5A Ru1 1_555 1_555
O5_2 Ru1A 1_555 1_555
O6A P2A 1_555 1_555
O7A H1A 1_555 1_555
O7A_2 Na4 1_555 1_555
H1A_2 O7A_2 1_555 1_555
N1A Ru1A 1_555 1_555
N2A C4A 1_555 1_555
N3A C5A 1_555 1_555
C1A P1A 1_555 1_555
C2A C1A 1_555 1_555
H2A C2A 1_555 1_555
H3A C2A 1_555 1_555
H4A C2A 1_555 1_555
C3A Fe1 1_555 1_555
C4A Fe1 1_555 1_555
C5A Fe1 1_555 1_555
O8A Na1 1_555 1_555
O8_2 H5_2 1_555 1_555
O8A_2 Na1A 1_555 1_555
H5A O8A 1_555 1_555
H5A_2 O8A_2 1_555 1_555
H6A O8A 1_555 1_555
H6_2 O8_2 1_555 1_555
H6A_2 O8A_2 1_555 1_555
O9A Na1A 1_555 1_555
H7A O9A 1_555 1_555
H8A O9A 1_555 1_555
O10A Na1A 1_555 1_555
H9A O10A 1_555 1_555
H10A O10A 1_555 1_555
O11A Na1A 1_555 1_555
H11A O11A 1_555 1_555
H12A O11A 1_555 1_555
O12A Na1A 1_555 1_555
H13A O12A 1_555 1_555
H14A O12A 1_555 1_555
O13A Na2A 1_555 1_555
H15A O13A 1_555 1_555
H16A O13A 1_555 1_555
O14A Na2A 1_555 1_555
H17A O14A 1_555 1_555
H18A O14A 1_555 1_555
O15A Na3A 1_555 1_555
H19A O15A 1_555 1_555
H20A O15A 1_555 1_555
O16A Na3A 1_555 1_555
H21A O16A 1_555 1_555
H22A O16A 1_555 1_555
O17A Na4 1_555 1_555
H23A O17A 1_555 1_555
H24A O17A 1_555 1_555
O18A Na4 1_555 1_555
H25A O18A 1_555 1_555
H26A O18A 1_555 1_555
O19A Na3A 1_555 1_555
H27A O19A 1_555 1_555
H28A O19A 1_555 1_555
Na2 O12 1_555 1_555
Na3 O14 1_555 1_555
Na4 O17 1_555 1_555
Na4 O18 1_555 1_555
P2 C1 1_555 1_555
O2 Ru1A_2 1_555 1_555
O5 Ru1A_2 1_555 1_555
O7 C1 1_555 1_555
Na1A_2 O8A 1_555 1_555
Na1_2 O8A_2 1_555 1_555
Na2A O12A 1_555 1_555
Na2A O18A 1_555 1_555
Na3A O14A 1_555 1_555
Na3A O17A 1_555 1_555
P1A O2A 1_555 1_555
P2A O5A 1_555 1_555
P2A C1A 1_555 1_555
O7A C1A 1_555 1_555
N1A C3A 1_555 1_555

#END
