
#######################################################################
#
#                 Cambridge Crystallographic Data Centre
#                                CCDC 
#
#######################################################################
#
# If this CIF has been generated from an entry in the Cambridge 
# Structural Database, then it will include bibliographic, chemical, 
# crystal, experimental, refinement or atomic coordinate data resulting 
# from the CCDC's data processing and validation procedures.
#
#######################################################################

data_DARQEU
_symmetry_cell_setting           monoclinic
_symmetry_space_group_name_H-M   'P 21/n'
_symmetry_Int_Tables_number      14
_space_group_name_Hall           '-P 2yn'
loop_
_symmetry_equiv_pos_site_id
_symmetry_equiv_pos_as_xyz
1 x,y,z
2 1/2-x,1/2+y,1/2-z
3 -x,-y,-z
4 1/2+x,1/2-y,1/2+z
_cell_length_a                   14.0828(10)
_cell_length_b                   29.6541(19)
_cell_length_c                   17.4065(12)
_cell_angle_alpha                90
_cell_angle_beta                 105.545(2)
_cell_angle_gamma                90
_cell_volume                     7003.27
loop_
_atom_site_label
_atom_site_type_symbol
_atom_site_fract_x
_atom_site_fract_y
_atom_site_fract_z
In1 In 1.02130(10) 0.18431(4) 1.07524(7)
In2 In 1.23853(10) 0.29640(4) 1.15367(7)
In3 In 0.93697(10) 0.20660(4) 0.84160(7)
In4 In 0.97296(10) 0.31684(4) 0.99511(8)
In5 In 1.24608(10) 0.17310(4) 1.28390(8)
Te1 Te 1.20715(9) 0.21814(4) 1.05305(7)
Te2 Te 0.96199(11) 0.13199(4) 0.94012(8)
Te3 Te 0.89381(12) 0.25400(5) 1.07536(10)
Te4 Te 1.12102(12) 0.36807(4) 1.09357(9)
Te5 Te 1.43467(10) 0.31943(4) 1.18836(7)
Te6 Te 1.06905(9) 0.27597(4) 0.89417(7)
Te7 Te 1.23295(9) 0.26719(4) 1.30822(7)
Te8 Te 0.82501(11) 0.37531(4) 0.91996(8)
Te9 Te 1.05870(10) 0.13855(5) 1.21795(7)
Te10 Te 1.34507(10) 0.16704(4) 1.16695(8)
In3C In 1.43697(10) 0.29340(4) 1.34160(7)
In5C In 0.74608(10) 0.32690(4) 0.78390(8)
Te5C Te 0.93467(10) 0.18057(4) 0.68836(7)
Te7C Te 0.73295(9) 0.23281(4) 0.80822(7)
Te8C Te 1.32501(11) 0.12469(4) 1.41996(8)
Mn1 Mn 0.2982(3) -0.00390(12) 0.2029(2)
N1 N 0.2060(18) -0.0631(6) 0.2313(14)
N2 N 0.2316(17) 0.0249(6) 0.2979(13)
N3 N 0.4240(19) 0.0473(8) 0.2339(15)
N4 N 0.4366(16) -0.0466(7) 0.2556(13)
N5 N 0.262(2) -0.0341(9) 0.0766(14)
N6 N 0.2076(17) 0.0513(7) 0.1209(12)
C1 C 0.147(3) -0.0489(11) 0.2883(19)
H1 H 0.1436 -0.0745 0.3230
C2 C 0.050(3) -0.0383(11) 0.2417(17)
H2 H 0.0229 -0.0645 0.2098
H3 H 0.0541 -0.0141 0.2052
C3 C -0.025(3) -0.0233(11) 0.2934(19)
H4 H -0.0882 -0.0141 0.2583
H5 H -0.0366 -0.0482 0.3261
C4 C 0.023(3) 0.0156(12) 0.3451(19)
H6 H 0.0222 0.0419 0.3119
H7 H -0.0150 0.0227 0.3826
C5 C 0.127(2) 0.0053(12) 0.3902(19)
H8 H 0.1264 -0.0178 0.4296
H9 H 0.1562 0.0322 0.4187
C6 C 0.190(2) -0.0105(10) 0.3383(17)
H10 H 0.2484 -0.0233 0.3763
C7 C 0.503(3) 0.0298(12) 0.299(2)
H11 H 0.4635 0.0301 0.3373
C8 C 0.578(3) 0.0606(12) 0.347(2)
H12 H 0.6169 0.0722 0.3125
H13 H 0.5445 0.0860 0.3625
C9 C 0.641(3) 0.0427(14) 0.413(2)
H14 H 0.6141 0.0484 0.4581
H15 H 0.7031 0.0591 0.4235
C10 C 0.664(3) -0.0064(13) 0.413(2)
H16 H 0.6769 -0.0167 0.4681
H17 H 0.7263 -0.0090 0.3992
C11 C 0.593(3) -0.0402(12) 0.362(2)
H18 H 0.6289 -0.0600 0.3349
H19 H 0.5635 -0.0586 0.3951
C12 C 0.517(2) -0.0177(10) 0.304(2)
H20 H 0.5544 -0.0181 0.2633
C13 C 0.162(2) -0.0136(10) 0.027(2)
H21 H 0.1301 -0.0154 0.0703
C14 C 0.065(2) -0.0074(14) -0.039(2)
H22 H 0.0466 0.0234 -0.0551
H23 H 0.0103 -0.0261 -0.0356
C15 C 0.145(3) -0.0302(13) -0.078(2)
H24 H 0.1735 -0.0560 -0.0456
H25 H 0.1114 -0.0412 -0.1305
C16 C 0.226(3) 0.0009(12) -0.084(2)
H26 H 0.2060 0.0174 -0.1342
H27 H 0.2840 -0.0168 -0.0853
C17 C 0.255(3) 0.0351(13) -0.014(2)
H28 H 0.3192 0.0271 0.0199
H29 H 0.2599 0.0649 -0.0355
C18 C 0.182(2) 0.0365(10) 0.0354(14)
H30 H 0.1229 0.0528 0.0058
Mn2 Mn -0.0044(3) 0.27314(12) 0.4449(2)
N7 N -0.1180(17) 0.2156(8) 0.4453(13)
N8 N 0.0825(17) 0.2093(8) 0.4356(15)
N9 N 0.0337(15) 0.2752(8) 0.5802(11)
N10 N 0.1253(15) 0.3207(7) 0.4761(11)
N11 N -0.048(3) 0.2859(12) 0.3131(17)
N12 N -0.124(2) 0.3264(10) 0.430(2)
C19 C -0.078(2) 0.1737(9) 0.422(2)
H31 H -0.0857 0.1740 0.3641
C20 C -0.138(2) 0.1372(9) 0.442(2)
H32 H -0.1635 0.1481 0.4852
H33 H -0.1949 0.1332 0.3962
C21 C -0.097(2) 0.0929(11) 0.465(2)
H34 H -0.1055 0.0742 0.4175
H35 H -0.1313 0.0785 0.4997
C22 C 0.007(2) 0.0974(13) 0.505(2)
H36 H 0.0103 0.1013 0.5612
H37 H 0.0358 0.0680 0.5011
C23 C 0.077(3) 0.1298(11) 0.489(3)
H38 H 0.1306 0.1343 0.5369
H39 H 0.1047 0.1182 0.4477
C24 C 0.028(2) 0.1724(13) 0.464(3)
H40 H 0.0258 0.1847 0.5158
C25 C 0.118(2) 0.3029(11) 0.6126(13)
H41 H 0.1664 0.2785 0.6166
C26 C 0.142(2) 0.3115(11) 0.6973(14)
H42 H 0.0836 0.3215 0.7113
H43 H 0.1643 0.2837 0.7259
C27 C 0.217(3) 0.3449(12) 0.7219(18)
H44 H 0.2745 0.3288 0.7536
H45 H 0.1954 0.3641 0.7589
C28 C 0.255(3) 0.3749(11) 0.6734(14)
H46 H 0.3262 0.3759 0.6932
H47 H 0.2300 0.4049 0.6783
C29 C 0.229(2) 0.3625(10) 0.5904(14)
H48 H 0.2096 0.3899 0.5600
H49 H 0.2893 0.3522 0.5788
C30 C 0.155(2) 0.3294(9) 0.5581(14)
H50 H 0.1022 0.3517 0.5534
C31 C -0.127(4) 0.3180(18) 0.295(3)
H51 H -0.1729 0.2953 0.2652
C32 C -0.149(4) 0.3481(17) 0.225(3)
H52 H -0.0910 0.3664 0.2289
H53 H -0.1581 0.3293 0.1783
C33 C -0.233(4) 0.3788(19) 0.211(3)
H54 H -0.2092 0.4095 0.2196
H55 H -0.2711 0.3761 0.1557
C34 C -0.298(3) 0.370(2) 0.262(3)
H56 H -0.3400 0.3965 0.2581
H57 H -0.3407 0.3454 0.2379
C35 C -0.260(4) 0.3598(17) 0.346(3)
H58 H -0.3131 0.3494 0.3678
H59 H -0.2304 0.3862 0.3754
C36 C -0.187(3) 0.3243(17) 0.350(2)
H60 H -0.2238 0.2960 0.3482
O1 O 0.9891(7) 0.5743(3) 0.5792(5)
O2 O 0.5206(14) 0.0360(6) 0.0986(11)
loop_
_geom_bond_atom_site_label_1
_geom_bond_atom_site_label_2
_geom_bond_site_symmetry_1
_geom_bond_site_symmetry_2
In1 Te1 1_555 1_555
In2 Te1 1_555 1_555
In3 Te2 1_555 1_555
In4 Te3 1_555 1_555
In5 Te7 1_555 1_555
Mn1 N1 1_555 1_555
Mn2 N7 1_555 1_555
Te1 Te10 1_555 1_555
Te2 In1 1_555 1_555
Te3 In1 1_555 1_555
Te4 In2 1_555 1_555
Te5 In2 1_555 1_555
Te6 In3 1_555 1_555
Te7 In2 1_555 1_555
Te8 In4 1_555 1_555
Te9 In1 1_555 1_555
Te10 In5 1_555 1_555
N1 C1 1_555 1_555
N2 Mn1 1_555 1_555
N3 Mn1 1_555 1_555
N4 Mn1 1_555 1_555
N5 Mn1 1_555 1_555
N6 Mn1 1_555 1_555
N7 C19 1_555 1_555
N8 Mn2 1_555 1_555
N9 Mn2 1_555 1_555
N10 Mn2 1_555 1_555
N11 Mn2 1_555 1_555
N12 Mn2 1_555 1_555
C1 H1 1_555 1_555
C2 C1 1_555 1_555
H2 C2 1_555 1_555
H3 C2 1_555 1_555
C3 C2 1_555 1_555
H4 C3 1_555 1_555
H5 C3 1_555 1_555
C4 C3 1_555 1_555
H6 C4 1_555 1_555
H7 C4 1_555 1_555
C5 C4 1_555 1_555
H8 C5 1_555 1_555
H9 C5 1_555 1_555
C6 N2 1_555 1_555
H10 C6 1_555 1_555
C7 N3 1_555 1_555
H11 C7 1_555 1_555
C8 C7 1_555 1_555
H12 C8 1_555 1_555
H13 C8 1_555 1_555
C9 C8 1_555 1_555
H14 C9 1_555 1_555
H15 C9 1_555 1_555
C10 C9 1_555 1_555
H16 C10 1_555 1_555
H17 C10 1_555 1_555
C11 C10 1_555 1_555
H18 C11 1_555 1_555
H19 C11 1_555 1_555
C12 N4 1_555 1_555
H20 C12 1_555 1_555
C13 N5 1_555 1_555
H21 C13 1_555 1_555
C14 C13 1_555 1_555
H22 C14 1_555 1_555
H23 C14 1_555 1_555
C15 C14 1_555 1_555
H24 C15 1_555 1_555
H25 C15 1_555 1_555
C16 C15 1_555 1_555
H26 C16 1_555 1_555
H27 C16 1_555 1_555
C17 C16 1_555 1_555
H28 C17 1_555 1_555
H29 C17 1_555 1_555
C18 N6 1_555 1_555
H30 C18 1_555 1_555
C19 H31 1_555 1_555
C20 C19 1_555 1_555
H32 C20 1_555 1_555
H33 C20 1_555 1_555
C21 C20 1_555 1_555
H34 C21 1_555 1_555
H35 C21 1_555 1_555
C22 C21 1_555 1_555
H36 C22 1_555 1_555
H37 C22 1_555 1_555
C23 C22 1_555 1_555
H38 C23 1_555 1_555
H39 C23 1_555 1_555
C24 N8 1_555 1_555
H40 C24 1_555 1_555
C25 N9 1_555 1_555
H41 C25 1_555 1_555
C26 C25 1_555 1_555
H42 C26 1_555 1_555
H43 C26 1_555 1_555
C27 C26 1_555 1_555
H44 C27 1_555 1_555
H45 C27 1_555 1_555
C28 C27 1_555 1_555
H46 C28 1_555 1_555
H47 C28 1_555 1_555
C29 C28 1_555 1_555
H48 C29 1_555 1_555
H49 C29 1_555 1_555
C30 N10 1_555 1_555
H50 C30 1_555 1_555
C31 N11 1_555 1_555
H51 C31 1_555 1_555
C32 C31 1_555 1_555
H52 C32 1_555 1_555
H53 C32 1_555 1_555
C33 C32 1_555 1_555
H54 C33 1_555 1_555
H55 C33 1_555 1_555
C34 C33 1_555 1_555
H56 C34 1_555 1_555
H57 C34 1_555 1_555
C35 C34 1_555 1_555
H58 C35 1_555 1_555
H59 C35 1_555 1_555
C36 N12 1_555 1_555
H60 C36 1_555 1_555
In3C Te5 1_555 1_555
In5C Te8 1_555 1_555
Te5C In3 1_555 1_555
Te7C In3 1_555 1_555
Te8C In5 1_555 1_555
In4 Te4 1_555 1_555
In4 Te6 1_555 1_555
In5 Te9 1_555 1_555
Te7 In3C 1_555 1_555
C1 C6 1_555 1_555
C5 C6 1_555 1_555
C7 C12 1_555 1_555
C11 C12 1_555 1_555
C13 C18 1_555 1_555
C17 C18 1_555 1_555
C19 C24 1_555 1_555
C23 C24 1_555 1_555
C25 C30 1_555 1_555
C29 C30 1_555 1_555
C31 C36 1_555 1_555
C35 C36 1_555 1_555
In5C Te7C 1_555 1_555

#END
