
#######################################################################
#
#                 Cambridge Crystallographic Data Centre
#                                CCDC 
#
#######################################################################
#
# If this CIF has been generated from an entry in the Cambridge 
# Structural Database, then it will include bibliographic, chemical, 
# crystal, experimental, refinement or atomic coordinate data resulting 
# from the CCDC's data processing and validation procedures.
#
#######################################################################

data_DARYIF
_symmetry_cell_setting           orthorhombic
_symmetry_space_group_name_H-M   'P n a 21'
_symmetry_Int_Tables_number      33
_space_group_name_Hall           'P 2c -2n'
loop_
_symmetry_equiv_pos_site_id
_symmetry_equiv_pos_as_xyz
1 x,y,z
2 -x,-y,1/2+z
3 1/2+x,1/2-y,z
4 1/2-x,1/2+y,1/2+z
_cell_length_a                   21.795(5)
_cell_length_b                   9.318(3)
_cell_length_c                   6.012(3)
_cell_angle_alpha                90
_cell_angle_beta                 90
_cell_angle_gamma                90
_cell_volume                     1220.95
loop_
_atom_site_label
_atom_site_type_symbol
_atom_site_fract_x
_atom_site_fract_y
_atom_site_fract_z
Zn1 Zn 0.411567(14) 0.10990(3) 0.37664(10)
O1 O 0.47344(10) 0.0638(3) 0.5958(4)
O2 O 0.57642(11) 0.0804(3) 0.6589(5)
O3 O 0.34757(10) 0.2069(3) 0.1994(4)
O4 O 0.33385(13) 0.3391(3) 0.4882(5)
N1 N 0.48183(12) 0.2329(3) 0.2669(4)
N2 N 0.15685(12) 0.5001(3) 0.0238(4)
C1 C 0.48299(18) 0.3181(4) 0.0972(7)
H1 H 0.4482 0.3271 0.0088
C2 C 0.5359(2) 0.3973(4) 0.0438(9)
H2 H 0.5348 0.4589 -0.0778
C3 C 0.58894(19) 0.3867(5) 0.1651(11)
H3 H 0.6238 0.4387 0.1276
C4 C 0.58814(16) 0.2975(4) 0.3410(9)
H4 H 0.6225 0.2875 0.4315
C5 C 0.53408(12) 0.2194(3) 0.3852(7)
C6 C 0.52846(15) 0.1134(3) 0.5628(6)
C7 C 0.31941(17) 0.3037(4) 0.3095(6)
C8 C 0.26285(16) 0.3742(3) 0.2065(6)
C9 C 0.22297(15) 0.4648(4) 0.3195(5)
H5 H 0.2318 0.4866 0.4670
C10 C 0.17092(15) 0.5245(4) 0.2255(6)
H6 H 0.1459 0.5834 0.3112
C11 C 0.19505(15) 0.4123(4) -0.0851(6)
H7 H 0.1852 0.3913 -0.2320
C12 C 0.24789(16) 0.3493(4) -0.0012(6)
H8 H 0.2722 0.2906 -0.0902
Zn1A Zn 0.588433(14) -0.10990(3) 0.87664(10)
Zn1C Zn 0.088433(14) 0.60990(3) -0.12336(10)
O2A O 0.42358(11) -0.0804(3) 0.1589(5)
N2C N 0.34315(12) 0.0001(3) 0.5238(4)
loop_
_geom_bond_atom_site_label_1
_geom_bond_atom_site_label_2
_geom_bond_site_symmetry_1
_geom_bond_site_symmetry_2
Zn1 O1 1_555 1_555
O1 C6 1_555 1_555
O2 C6 1_555 1_555
O3 Zn1 1_555 1_555
O4 C7 1_555 1_555
N1 Zn1 1_555 1_555
N2 C10 1_555 1_555
C1 N1 1_555 1_555
H1 C1 1_555 1_555
C2 C1 1_555 1_555
H2 C2 1_555 1_555
C3 C2 1_555 1_555
H3 C3 1_555 1_555
C4 C3 1_555 1_555
H4 C4 1_555 1_555
C5 N1 1_555 1_555
C6 C5 1_555 1_555
C7 O3 1_555 1_555
C8 C7 1_555 1_555
C9 C8 1_555 1_555
H5 C9 1_555 1_555
C10 C9 1_555 1_555
H6 C10 1_555 1_555
C11 N2 1_555 1_555
H7 C11 1_555 1_555
C12 C8 1_555 1_555
H8 C12 1_555 1_555
Zn1A O2 1_555 1_555
Zn1C N2 1_555 1_555
O2A Zn1 1_555 1_555
N2C Zn1 1_555 1_555
C4 C5 1_555 1_555
C11 C12 1_555 1_555

#END
