
#######################################################################
#
#                 Cambridge Crystallographic Data Centre
#                                CCDC 
#
#######################################################################
#
# If this CIF has been generated from an entry in the Cambridge 
# Structural Database, then it will include bibliographic, chemical, 
# crystal, experimental, refinement or atomic coordinate data resulting 
# from the CCDC's data processing and validation procedures.
#
#######################################################################

data_DARYEB
_symmetry_cell_setting           monoclinic
_symmetry_space_group_name_H-M   'P 21'
_symmetry_Int_Tables_number      4
_space_group_name_Hall           'P 2yb'
loop_
_symmetry_equiv_pos_site_id
_symmetry_equiv_pos_as_xyz
1 x,y,z
2 -x,1/2+y,-z
_cell_length_a                   9.6001(10)
_cell_length_b                   8.6181(9)
_cell_length_c                   11.4781(12)
_cell_angle_alpha                90
_cell_angle_beta                 107.693(2)
_cell_angle_gamma                90
_cell_volume                     904.717
loop_
_atom_site_label
_atom_site_type_symbol
_atom_site_fract_x
_atom_site_fract_y
_atom_site_fract_z
Cd1 Cd 0.50578(2) 0.50398(8) 0.094978(19)
O1 O 0.5238(4) 0.7677(4) 0.0527(3)
O2 O 0.5452(4) 0.2885(5) 0.2302(4)
H1 H 0.5706 0.3030 0.3070
H2 H 0.5338 0.1968 0.2016
O3 O 0.5579(4) 1.0063(7) 0.1205(2)
O4 O 0.2644(3) 0.5007(11) 0.0801(3)
O5 O 0.2764(4) 0.3272(7) 0.2265(4)
C1 C 0.5977(7) 0.5960(7) 0.3951(5)
H3 H 0.5944 0.4894 0.4062
C2 C 0.6314(8) 0.6932(9) 0.4961(5)
H4 H 0.6487 0.6519 0.5740
C3 C 0.6392(8) 0.8478(8) 0.4809(5)
H5 H 0.6614 0.9133 0.5485
C4 C 0.6143(6) 0.9091(7) 0.3651(4)
H6 H 0.6208 1.0153 0.3531
C5 C 0.5793(5) 0.8065(7) 0.2674(4)
C6 C 0.5513(5) 0.8642(6) 0.1372(4)
C7 C 0.2103(5) 0.4187(7) 0.1461(4)
C8 C 0.0486(5) 0.4409(7) 0.1312(5)
C9 C -0.0127(6) 0.3651(10) 0.2067(6)
H7 H 0.0446 0.3053 0.2709
C10 C -0.1621(6) 0.3778(10) 0.1869(6)
H8 H -0.2055 0.3143 0.2315
C11 C -0.1849(6) 0.5525(8) 0.0352(5)
H9 H -0.2429 0.6190 -0.0236
C12 C -0.0388(6) 0.5377(9) 0.0433(6)
H10 H -0.0001 0.5922 -0.0096
N1 N 0.5691(5) 0.6544(5) 0.2794(4)
N2 N -0.2458(4) 0.4766(8) 0.1073(4)
Cd1A Cd 0.49422(2) 1.00398(8) -0.094978(19)
Cd1_2 Cd -0.49422(2) 0.50398(8) 0.094978(19)
O1A O 0.4762(4) 0.2677(4) -0.0527(3)
O3A O 0.4421(4) 0.5063(7) -0.1205(2)
N2_2 N 0.7542(4) 0.4766(8) 0.1073(4)
N3 N 0.8063(16) 0.298(3) 0.658(2)
H11 H 0.7458 0.3754 0.6717
H12 H 0.7823 0.1940 0.6634
N4 N 0.943(4) 0.348(8) 0.630(3)
H13 H 1.0036 0.2703 0.6162
H14 H 0.9671 0.4516 0.6245
loop_
_geom_bond_atom_site_label_1
_geom_bond_atom_site_label_2
_geom_bond_site_symmetry_1
_geom_bond_site_symmetry_2
Cd1 O1 1_555 1_555
O1 C6 1_555 1_555
O2 Cd1 1_555 1_555
H1 O2 1_555 1_555
H2 O2 1_555 1_555
O3 C6 1_555 1_555
O4 Cd1 1_555 1_555
O5 C7 1_555 1_555
C1 H3 1_555 1_555
C2 C1 1_555 1_555
H4 C2 1_555 1_555
C3 C2 1_555 1_555
H5 C3 1_555 1_555
C4 C3 1_555 1_555
H6 C4 1_555 1_555
C5 C4 1_555 1_555
C6 C5 1_555 1_555
C7 O4 1_555 1_555
C8 C7 1_555 1_555
C9 C8 1_555 1_555
H7 C9 1_555 1_555
C10 C9 1_555 1_555
H8 C10 1_555 1_555
C11 H9 1_555 1_555
C12 C8 1_555 1_555
H10 C12 1_555 1_555
N1 Cd1 1_555 1_555
N2 C10 1_555 1_555
N3 H11 1_555 1_555
H12 N3 1_555 1_555
N4 N3 1_555 1_555
H13 N4 1_555 1_555
H14 N4 1_555 1_555
Cd1A O1 1_555 1_555
Cd1_2 N2 1_555 1_555
O1A Cd1 1_555 1_555
O3A Cd1 1_555 1_555
N2_2 Cd1 1_555 1_555
O3 Cd1A 1_555 1_555
C1 N1 1_555 1_555
C5 N1 1_555 1_555
C11 C12 1_555 1_555
C11 N2 1_555 1_555

#END
