
#######################################################################
#
#                 Cambridge Crystallographic Data Centre
#                                CCDC 
#
#######################################################################
#
# If this CIF has been generated from an entry in the Cambridge 
# Structural Database, then it will include bibliographic, chemical, 
# crystal, experimental, refinement or atomic coordinate data resulting 
# from the CCDC's data processing and validation procedures.
#
#######################################################################

data_DASCIK
_symmetry_cell_setting           triclinic
_symmetry_space_group_name_H-M   'P -1'
_symmetry_Int_Tables_number      2
_space_group_name_Hall           '-P 1'
loop_
_symmetry_equiv_pos_site_id
_symmetry_equiv_pos_as_xyz
1 x,y,z
2 -x,-y,-z
_cell_length_a                   7.9259(6)
_cell_length_b                   9.0991(7)
_cell_length_c                   10.0530(7)
_cell_angle_alpha                90.4310(10)
_cell_angle_beta                 100.3980(10)
_cell_angle_gamma                105.8980(10)
_cell_volume                     684.582
loop_
_atom_site_label
_atom_site_type_symbol
_atom_site_fract_x
_atom_site_fract_y
_atom_site_fract_z
Cd1 Cd 0.43568(2) 0.65572(2) 0.848291(18)
C1 C 0.0392(4) 0.4139(4) 0.6592(3)
H1 H 0.0865 0.3615 0.6024
C2 C -0.1370(5) 0.3952(4) 0.6552(4)
H2 H -0.2318 0.3288 0.5963
C3 C 0.0198(4) 0.5686(3) 0.8149(3)
C4 C 0.0822(4) 0.6914(3) 0.9200(3)
C5 C 0.1091(5) 0.8685(4) 1.0769(3)
H3 H 0.0830 0.9324 1.1380
C6 C 0.2730(4) 0.8700(4) 1.0549(3)
H4 H 0.3804 0.9355 1.1001
C7 C 0.6510(4) 0.8337(3) 0.5117(3)
C8 C 0.6018(4) 0.7391(3) 0.3934(3)
H5 H 0.5365 0.6373 0.3946
C9 C 0.6494(4) 0.7957(3) 0.2740(3)
C10 C 0.7487(4) 0.9466(4) 0.2731(3)
H6 H 0.7819 0.9850 0.1933
C11 C 0.7989(5) 1.0410(4) 0.3910(3)
H7 H 0.8660 1.1423 0.3903
C12 C 0.7492(5) 0.9844(4) 0.5088(3)
H8 H 0.7819 1.0482 0.5873
C13 C 0.5882(4) 0.7721(4) 0.6377(3)
C14 C 0.5872(4) 0.6941(3) 0.1454(3)
N1 N 0.1376(3) 0.5223(3) 0.7603(3)
N2 N -0.1480(3) 0.4936(3) 0.7553(3)
H9 H -0.2445 0.5051 0.7760
N3 N 0.2559(3) 0.7598(3) 0.9556(2)
N4 N -0.0102(4) 0.7549(3) 0.9917(3)
H10 H -0.1243 0.7284 0.9851
O1 O 0.4644(4) 0.6524(3) 0.6243(3)
O2 O 0.6509(5) 0.8378(4) 0.7481(3)
O3 O 0.4745(3) 0.5660(2) 0.1457(2)
O4 O 0.6461(3) 0.7447(2) 0.04218(19)
Cd1A Cd 0.56432(2) 0.34428(2) 0.151709(18)
Cd1_2 Cd 0.43568(2) 0.65572(2) -0.151709(18)
O3A O 0.5255(3) 0.4340(2) 0.8543(2)
O4_2 O 0.6461(3) 0.7447(2) 1.04218(19)
loop_
_geom_bond_atom_site_label_1
_geom_bond_atom_site_label_2
_geom_bond_site_symmetry_1
_geom_bond_site_symmetry_2
Cd1 N1 1_555 1_555
C1 H1 1_555 1_555
C2 C1 1_555 1_555
H2 C2 1_555 1_555
C3 C4 1_555 1_555
C4 N3 1_555 1_555
C5 H3 1_555 1_555
C6 C5 1_555 1_555
H4 C6 1_555 1_555
C7 C8 1_555 1_555
C8 H5 1_555 1_555
C9 C8 1_555 1_555
C10 C9 1_555 1_555
H6 C10 1_555 1_555
C11 C10 1_555 1_555
H7 C11 1_555 1_555
C12 C7 1_555 1_555
H8 C12 1_555 1_555
C13 C7 1_555 1_555
C14 C9 1_555 1_555
N1 C1 1_555 1_555
N2 C2 1_555 1_555
H9 N2 1_555 1_555
N3 Cd1 1_555 1_555
N4 C4 1_555 1_555
H10 N4 1_555 1_555
O1 Cd1 1_555 1_555
O2 Cd1 1_555 1_555
O3 C14 1_555 1_555
O4 C14 1_555 1_555
Cd1A O3 1_555 1_555
Cd1_2 O4 1_555 1_555
O3A Cd1 1_555 1_555
O4_2 Cd1 1_555 1_555
C3 N1 1_555 1_555
C3 N2 1_555 1_555
C5 N4 1_555 1_555
C6 N3 1_555 1_555
C11 C12 1_555 1_555
C13 O1 1_555 1_555
C13 O2 1_555 1_555

#END
