
#######################################################################
#
#                 Cambridge Crystallographic Data Centre
#                                CCDC 
#
#######################################################################
#
# If this CIF has been generated from an entry in the Cambridge 
# Structural Database, then it will include bibliographic, chemical, 
# crystal, experimental, refinement or atomic coordinate data resulting 
# from the CCDC's data processing and validation procedures.
#
#######################################################################

data_DASCOQ
_symmetry_cell_setting           triclinic
_symmetry_space_group_name_H-M   'P -1'
_symmetry_Int_Tables_number      2
_space_group_name_Hall           '-P 1'
loop_
_symmetry_equiv_pos_site_id
_symmetry_equiv_pos_as_xyz
1 x,y,z
2 -x,-y,-z
_cell_length_a                   9.9002(8)
_cell_length_b                   10.4185(8)
_cell_length_c                   11.5481(9)
_cell_angle_alpha                113.5080(10)
_cell_angle_beta                 97.7890(10)
_cell_angle_gamma                110.2960(10)
_cell_volume                     971.126
loop_
_atom_site_label
_atom_site_type_symbol
_atom_site_fract_x
_atom_site_fract_y
_atom_site_fract_z
Cd1 Cd 0.330676(17) 0.649808(17) 0.284203(15)
Cd2 Cd 0.0000 0.5000 0.0000
C1 C 0.5704(4) 0.4707(4) 0.1709(3)
H1 H 0.5305 0.4254 0.0789
C2 C 0.6921(4) 0.4690(4) 0.2357(3)
H2 H 0.7514 0.4231 0.1974
C3 C 0.6029(3) 0.5946(3) 0.3796(2)
C4 C 0.5812(3) 0.6893(3) 0.4997(2)
C5 C 0.5907(4) 0.8169(4) 0.7041(3)
H3 H 0.6161 0.8606 0.7963
C6 C 0.4911(4) 0.8307(4) 0.6232(3)
H4 H 0.4355 0.8865 0.6509
C7 C 0.0785(3) 0.7678(3) 0.3193(2)
C8 C 0.0381(3) 0.8900(3) 0.4125(2)
C9 C -0.1017(3) 0.8889(3) 0.3741(2)
H5 H -0.1705 0.8147 0.2897
C10 C 0.1389(3) 1.0015(3) 0.5384(2)
H6 H 0.2328 1.0032 0.5649
C11 C 0.3384(3) 0.7747(3) 0.0787(2)
C12 C 0.4233(2) 0.8909(2) 0.0370(2)
C13 C 0.3436(3) 0.9201(3) -0.0505(2)
H7 H 0.2382 0.8659 -0.0847
C14 C 0.5805(3) 0.9711(3) 0.0868(2)
H8 H 0.6347 0.9515 0.1448
C15 C 0.1283(3) 0.3344(3) 0.1617(2)
C16 C 0.0580(3) 0.1604(2) 0.0772(2)
C17 C 0.0405(3) 0.0961(3) -0.0571(2)
H9 H 0.0675 0.1603 -0.0958
C18 C 0.0172(3) 0.0642(3) 0.1347(3)
H10 H 0.0286 0.1074 0.2252
N1 N 0.5136(2) 0.5500(2) 0.2618(2)
N2 N 0.7126(3) 0.5470(3) 0.3679(3)
H11 H 0.7826 0.5628 0.4320
N3 N 0.4847(2) 0.7499(3) 0.49444(19)
N4 N 0.6470(3) 0.7262(3) 0.6241(2)
H12 H 0.7126 0.6983 0.6494
O1 O 0.1885(2) 0.7557(2) 0.37632(19)
O2 O 0.0023(2) 0.6881(2) 0.20062(16)
O3 O 0.2016(2) 0.6866(2) 0.01130(19)
O4 O 0.4116(2) 0.7760(2) 0.1760(2)
O5 O 0.1771(2) 0.3924(2) 0.28530(17)
O6 O 0.14568(18) 0.41875(17) 0.10555(16)
Cd1A Cd -0.330676(17) 1.350192(17) 0.715797(15)
Cd1A_2 Cd 0.669324(17) 1.350192(17) -0.284203(15)
Cd1A_3 Cd -0.330676(17) -0.649808(17) -0.284203(15)
Cd2_2 Cd 0.0000 1.5000 1.0000
Cd2_3 Cd 1.0000 1.5000 0.0000
Cd2_4 Cd 0.0000 -0.5000 0.0000
C1A C -0.5704(4) 1.5293(4) 0.8291(3)
H1A H -0.5305 1.5746 0.9211
C2A C -0.6921(4) 1.5310(4) 0.7643(3)
H2A H -0.7514 1.5769 0.8026
C3A C -0.6029(3) 1.4054(3) 0.6204(2)
C4A C -0.5812(3) 1.3107(3) 0.5003(2)
C5A C -0.5907(4) 1.1831(4) 0.2959(3)
H3A H -0.6161 1.1394 0.2037
C6A C -0.4911(4) 1.1693(4) 0.3768(3)
H4A H -0.4355 1.1135 0.3491
C7A C -0.0785(3) 1.2322(3) 0.6807(2)
C8A C -0.0381(3) 1.1100(3) 0.5875(2)
C9A C 0.1017(3) 1.1111(3) 0.6259(2)
H5A H 0.1705 1.1853 0.7103
C10A C -0.1389(3) 0.9985(3) 0.4616(2)
H6A H -0.2328 0.9968 0.4351
C11A C 0.6616(3) 1.2253(3) -0.0787(2)
C12A C 0.5767(2) 1.1091(2) -0.0370(2)
C13A C 0.6564(3) 1.0799(3) 0.0505(2)
H7A H 0.7618 1.1341 0.0847
C14A C 0.4195(3) 1.0289(3) -0.0868(2)
H8A H 0.3653 1.0485 -0.1448
C15A C -0.1283(3) -0.3344(3) -0.1617(2)
C16A C -0.0580(3) -0.1604(2) -0.0772(2)
C17A C -0.0405(3) -0.0961(3) 0.0571(2)
H9A H -0.0675 -0.1603 0.0958
C18A C -0.0172(3) -0.0642(3) -0.1347(3)
H10A H -0.0286 -0.1074 -0.2252
N1A N -0.5136(2) 1.4500(2) 0.7382(2)
N2A N -0.7126(3) 1.4530(3) 0.6321(3)
H11A H -0.7826 1.4372 0.5680
N3A N -0.4847(2) 1.2501(3) 0.50556(19)
N4A N -0.6470(3) 1.2738(3) 0.3759(2)
H12A H -0.7126 1.3017 0.3506
O1A O -0.1885(2) 1.2443(2) 0.62368(19)
O2A O -0.0023(2) 1.3119(2) 0.79938(16)
O2A_2 O -0.0023(2) 0.3119(2) -0.20062(16)
O3A O 0.7984(2) 1.3134(2) -0.01130(19)
O3A_2 O -0.2016(2) 0.3134(2) -0.01130(19)
O4A O 0.5884(2) 1.2240(2) -0.1760(2)
O4A_2 O -0.4116(2) 1.2240(2) 0.8240(2)
O5A O -0.1771(2) -0.3924(2) -0.28530(17)
O5A_2 O -0.1771(2) 1.6076(2) 0.71470(17)
O6A O -0.14568(18) -0.41875(17) -0.10555(16)
O6A_2 O -0.14568(18) 0.58125(17) -0.10555(16)
O6A_3 O -0.14568(18) 1.58125(17) 0.89445(16)
O7 O 0.0098(6) 0.6504(8) 0.5383(6)
H13 H 0.038(15) 0.626(14) 0.594(11)
H14 H 0.108(10) 0.680(10) 0.529(8)
O8? O 0.136(3) 0.634(3) 0.566(2)
loop_
_geom_bond_atom_site_label_1
_geom_bond_atom_site_label_2
_geom_bond_site_symmetry_1
_geom_bond_site_symmetry_2
Cd1 N1 1_555 1_555
Cd2 O2 1_555 1_555
C1 H1 1_555 1_555
C2 C1 1_555 1_555
H2 C2 1_555 1_555
C3 C4 1_555 1_555
C4 N3 1_555 1_555
C5 H3 1_555 1_555
C6 C5 1_555 1_555
H4 C6 1_555 1_555
C7 C8 1_555 1_555
C8 C9 1_555 1_555
C9 H5 1_555 1_555
C10 C8 1_555 1_555
H6 C10 1_555 1_555
C11 C12 1_555 1_555
C12 C13 1_555 1_555
C13 H7 1_555 1_555
C14 C12 1_555 1_555
H8 C14 1_555 1_555
C15 C16 1_555 1_555
C16 C17 1_555 1_555
C17 H9 1_555 1_555
C18 C16 1_555 1_555
H10 C18 1_555 1_555
N1 C1 1_555 1_555
N2 C2 1_555 1_555
H11 N2 1_555 1_555
N3 Cd1 1_555 1_555
N4 C4 1_555 1_555
H12 N4 1_555 1_555
O1 Cd1 1_555 1_555
O2 C7 1_555 1_555
O3 Cd2 1_555 1_555
O4 Cd1 1_555 1_555
O5 Cd1 1_555 1_555
O6 Cd1 1_555 1_555
O7 H13 1_555 1_555
H14 O7 1_555 1_555
Cd1A N1A 1_555 1_555
Cd1A_2 O4A 1_555 1_555
Cd1A_3 O5A 1_555 1_555
Cd2_2 O2A 1_555 1_555
Cd2_3 O3A 1_555 1_555
Cd2_4 O6A 1_555 1_555
C1A H1A 1_555 1_555
C2A C1A 1_555 1_555
H2A C2A 1_555 1_555
C3A C4A 1_555 1_555
C4A N3A 1_555 1_555
C5A H3A 1_555 1_555
C6A C5A 1_555 1_555
H4A C6A 1_555 1_555
C7A C8A 1_555 1_555
C8A C9A 1_555 1_555
C9A C10 1_555 1_555
H5A C9A 1_555 1_555
C10A C9 1_555 1_555
H6A C10A 1_555 1_555
C11A C12A 1_555 1_555
C12A C13A 1_555 1_555
C13A C14 1_555 1_555
H7A C13A 1_555 1_555
C14A C13 1_555 1_555
H8A C14A 1_555 1_555
C15A C16A 1_555 1_555
C16A C17A 1_555 1_555
C17A C18 1_555 1_555
H9A C17A 1_555 1_555
C18A C17 1_555 1_555
H10A C18A 1_555 1_555
N1A C1A 1_555 1_555
N2A C2A 1_555 1_555
H11A N2A 1_555 1_555
N3A Cd1A 1_555 1_555
N4A C4A 1_555 1_555
H12A N4A 1_555 1_555
O1A Cd1A 1_555 1_555
O2A C7A 1_555 1_555
O2A_2 Cd2 1_555 1_555
O3A C11A 1_555 1_555
O3A_2 Cd2 1_555 1_555
O4A C11A 1_555 1_555
O4A_2 Cd1A 1_555 1_555
O5A C15A 1_555 1_555
O5A_2 Cd1A 1_555 1_555
O6A Cd1A_3 1_555 1_555
O6A_2 Cd2 1_555 1_555
O6A_3 Cd1A 1_555 1_555
Cd2 O6 1_555 1_555
C3 N1 1_555 1_555
C3 N2 1_555 1_555
C5 N4 1_555 1_555
C6 N3 1_555 1_555
C7 O1 1_555 1_555
C11 O3 1_555 1_555
C11 O4 1_555 1_555
C15 O5 1_555 1_555
C15 O6 1_555 1_555
Cd2_2 O6A_3 1_555 1_555
C3A N1A 1_555 1_555
C3A N2A 1_555 1_555
C5A N4A 1_555 1_555
C6A N3A 1_555 1_555
C7A O1A 1_555 1_555
C8A C10A 1_555 1_555
C12A C14A 1_555 1_555
C15A O6A 1_555 1_555
C16A C18A 1_555 1_555

#END
