
#######################################################################
#
#                 Cambridge Crystallographic Data Centre
#                                CCDC 
#
#######################################################################
#
# If this CIF has been generated from an entry in the Cambridge 
# Structural Database, then it will include bibliographic, chemical, 
# crystal, experimental, refinement or atomic coordinate data resulting 
# from the CCDC's data processing and validation procedures.
#
#######################################################################

data_DASLAL
_symmetry_cell_setting           monoclinic
_symmetry_space_group_name_H-M   'P 21/c'
_symmetry_Int_Tables_number      14
_space_group_name_Hall           '-P 2ybc'
loop_
_symmetry_equiv_pos_site_id
_symmetry_equiv_pos_as_xyz
1 x,y,z
2 -x,1/2+y,1/2-z
3 -x,-y,-z
4 x,1/2-y,1/2+z
_cell_length_a                   7.46447(11)
_cell_length_b                   8.94720(16)
_cell_length_c                   7.61664(11)
_cell_angle_alpha                90
_cell_angle_beta                 92.1978(24)
_cell_angle_gamma                90
_cell_volume                     508.312
loop_
_atom_site_label
_atom_site_type_symbol
_atom_site_fract_x
_atom_site_fract_y
_atom_site_fract_z
Mn1 Mn 0.0000 0.0000 0.0000
C1 C 0.3902(13) -0.1172(10) 0.0174(12)
C2 C 0.5750(13) -0.1356(9) 0.0112(12)
C3 C 0.2508(10) -0.2396(10) 0.0282(12)
C4 C 0.6729(9) -0.2866(8) 0.0220(11)
O1 O 0.0916(6) -0.2229(6) -0.0152(8)
O2 O 0.3085(7) -0.3649(6) 0.1076(8)
O3 O -0.0139(5) -0.0206(7) 0.2899(6)
N1 N 0.3123(7) 0.0210(10) 0.0134(9)
H1 H 0.766(5) -0.2813(25) 0.117(5)
H2 H 0.5864(24) -0.3642(15) 0.048(6)
H3 H 0.730(5) -0.3046(29) -0.0897(30)
Mn1_2 Mn 1.0000 0.0000 0.0000
C1B C 0.6098(13) 0.1172(10) -0.0174(12)
C2B C 0.4250(13) 0.1356(9) -0.0112(12)
C3B C 0.7492(10) 0.2396(10) -0.0282(12)
C4B C 0.3271(9) 0.2866(8) -0.0220(11)
O1B O 0.9084(6) 0.2229(6) 0.0152(8)
O1B_2 O -0.0916(6) 0.2229(6) 0.0152(8)
O2B O 0.6915(7) 0.3649(6) -0.1076(8)
O3B O 0.0139(5) 0.0206(7) -0.2899(6)
N1B N 0.6877(7) -0.0210(10) -0.0134(9)
N1B_2 N -0.3123(7) -0.0210(10) -0.0134(9)
H1B H 0.234(5) 0.2813(25) -0.117(5)
H2B H 0.4136(24) 0.3642(15) -0.048(6)
H3B H 0.270(5) 0.3046(29) 0.0897(30)
loop_
_geom_bond_atom_site_label_1
_geom_bond_atom_site_label_2
_geom_bond_site_symmetry_1
_geom_bond_site_symmetry_2
Mn1 O1 1_555 1_555
C1 C2 1_555 1_555
C2 C4 1_555 1_555
C3 C1 1_555 1_555
C4 H1 1_555 1_555
O1 C3 1_555 1_555
O2 C3 1_555 1_555
O3 Mn1 1_555 1_555
N1 Mn1 1_555 1_555
H2 C4 1_555 1_555
H3 C4 1_555 1_555
Mn1_2 O1B 1_555 1_555
C1B C2B 1_555 1_555
C2B N1 1_555 1_555
C3B C1B 1_555 1_555
C4B C2B 1_555 1_555
O1B C3B 1_555 1_555
O1B_2 Mn1 1_555 1_555
O2B C3B 1_555 1_555
O3B Mn1 1_555 1_555
N1B C2 1_555 1_555
N1B_2 Mn1 1_555 1_555
H1B C4B 1_555 1_555
H2B C4B 1_555 1_555
H3B C4B 1_555 1_555
C1 N1 1_555 1_555
Mn1_2 N1B 1_555 1_555
C1B N1B 1_555 1_555

#END
