
#######################################################################
#
#                 Cambridge Crystallographic Data Centre
#                                CCDC 
#
#######################################################################
#
# If this CIF has been generated from an entry in the Cambridge 
# Structural Database, then it will include bibliographic, chemical, 
# crystal, experimental, refinement or atomic coordinate data resulting 
# from the CCDC's data processing and validation procedures.
#
#######################################################################

data_DASLIT
_symmetry_cell_setting           monoclinic
_symmetry_space_group_name_H-M   'P 21/c'
_symmetry_Int_Tables_number      14
_space_group_name_Hall           '-P 2ybc'
loop_
_symmetry_equiv_pos_site_id
_symmetry_equiv_pos_as_xyz
1 x,y,z
2 -x,1/2+y,1/2-z
3 -x,-y,-z
4 x,1/2-y,1/2+z
_cell_length_a                   6.9376(9)
_cell_length_b                   7.1306(12)
_cell_length_c                   8.5852(20)
_cell_angle_alpha                90
_cell_angle_beta                 113.299(18)
_cell_angle_gamma                90
_cell_volume                     390.07
loop_
_atom_site_label
_atom_site_type_symbol
_atom_site_fract_x
_atom_site_fract_y
_atom_site_fract_z
Ni1 Ni 0.5000 0.0000 0.5000
O1 O 0.4859(9) 0.1976(12) 0.3419(10)
O2 O 0.6739(10) 0.3178(9) 0.2030(8)
N1 N 0.8031(6) -0.0439(8) 0.4858(10)
C1 C 0.8359(6) 0.1137(7) 0.4136(6)
C2 C 1.0386(9) 0.1681(4) 0.4438(8)
C3 C 0.6407(8) 0.2203(7) 0.3074(6)
C4 C 1.1175(13) 0.3427(6) 0.3860(10)
H1 H 1.031(8) 0.4508(21) 0.387(9)
H2 H 1.110(11) 0.324(4) 0.271(4)
H3 H 1.264(4) 0.367(6) 0.463(6)
Ni1A Ni 0.5000 0.5000 0.0000
Ni1_2 Ni 1.5000 0.0000 0.5000
Ni1A_2 Ni 1.5000 -0.5000 1.0000
O1B O 1.5141(9) -0.1976(12) 0.6581(10)
O1B_2 O 0.5141(9) -0.1976(12) 0.6581(10)
O2B O 1.3261(10) -0.3178(9) 0.7970(8)
O2C O 0.6739(10) 0.1822(9) 0.7030(8)
O2A O 0.3261(10) -0.1822(9) 0.2970(8)
N1B N 1.1969(6) 0.0439(8) 0.5142(10)
N1B_2 N 0.1969(6) 0.0439(8) 0.5142(10)
C1B C 1.1641(6) -0.1137(7) 0.5864(6)
C2B C 0.9614(9) -0.1681(4) 0.5562(8)
C3B C 1.3593(8) -0.2203(7) 0.6926(6)
C4B C 0.8825(13) -0.3427(6) 0.6140(10)
H1B H 0.969(8) -0.4508(21) 0.613(9)
H2B H 0.890(11) -0.324(4) 0.729(4)
H3B H 0.736(4) -0.367(6) 0.537(6)
loop_
_geom_bond_atom_site_label_1
_geom_bond_atom_site_label_2
_geom_bond_site_symmetry_1
_geom_bond_site_symmetry_2
Ni1 O1 1_555 1_555
O1 C3 1_555 1_555
O2 C3 1_555 1_555
N1 Ni1 1_555 1_555
C1 N1 1_555 1_555
C2 C1 1_555 1_555
C3 C1 1_555 1_555
C4 C2 1_555 1_555
H1 C4 1_555 1_555
H2 C4 1_555 1_555
H3 C4 1_555 1_555
Ni1A O2 1_555 1_555
Ni1_2 O1B 1_555 1_555
Ni1A_2 O2B 1_555 1_555
O1B C3B 1_555 1_555
O1B_2 Ni1 1_555 1_555
O2B C3B 1_555 1_555
O2C Ni1 1_555 1_555
O2A Ni1 1_555 1_555
N1B C2 1_555 1_555
N1B_2 Ni1 1_555 1_555
C1B N1B 1_555 1_555
C2B N1 1_555 1_555
C3B C1B 1_555 1_555
C4B C2B 1_555 1_555
H1B C4B 1_555 1_555
H2B C4B 1_555 1_555
H3B C4B 1_555 1_555
Ni1_2 N1B 1_555 1_555
C1B C2B 1_555 1_555

#END
