
#######################################################################
#
#                 Cambridge Crystallographic Data Centre
#                                CCDC 
#
#######################################################################
#
# If this CIF has been generated from an entry in the Cambridge 
# Structural Database, then it will include bibliographic, chemical, 
# crystal, experimental, refinement or atomic coordinate data resulting 
# from the CCDC's data processing and validation procedures.
#
#######################################################################

data_DASLUF
_symmetry_cell_setting           orthorhombic
_symmetry_space_group_name_H-M   'P b c n'
_symmetry_Int_Tables_number      60
_space_group_name_Hall           '-P 2n 2ab'
loop_
_symmetry_equiv_pos_site_id
_symmetry_equiv_pos_as_xyz
1 x,y,z
2 1/2+x,1/2-y,-z
3 -x,y,1/2-z
4 1/2-x,1/2-y,1/2+z
5 -x,-y,-z
6 1/2-x,1/2+y,z
7 x,-y,1/2+z
8 1/2+x,1/2+y,1/2-z
_cell_length_a                   8.97260(13)
_cell_length_b                   7.23533(10)
_cell_length_c                   15.04429(20)
_cell_angle_alpha                90
_cell_angle_beta                 90
_cell_angle_gamma                90
_cell_volume                     976.671
loop_
_atom_site_label
_atom_site_type_symbol
_atom_site_fract_x
_atom_site_fract_y
_atom_site_fract_z
Cu1 Cu 0.00000 0.0000 0.00000
C1 C 0.11810(35) -0.0091(6) -0.19204(21)
C2 C 0.13829(30) -0.0063(7) -0.28423(26)
C3 C 0.2348(4) -0.0189(6) -0.11898(22)
C4 C 0.29351(34) -0.0047(8) -0.32503(24)
N1 N -0.0201(4) -0.0094(9) -0.15912(14)
O1 O 0.2048(4) 0.0134(8) -0.04014(18)
O2 O 0.3613(4) -0.0711(5) -0.14386(22)
O3 O 0.0135(7) -0.2865(4) 0.0040(5)
H1 H 0.3323(16) -0.1312(11) -0.3281(20)
H2 H 0.3602(10) 0.071(4) -0.2884(13)
H3 H 0.2888(9) 0.047(4) -0.3852(9)
Cu1B Cu 0.00000 0.0000 -0.50000
C1B C -0.11810(35) -0.0091(6) -0.30796(21)
C2B C -0.13829(30) -0.0063(7) -0.21577(26)
C3B C -0.2348(4) -0.0189(6) -0.38102(22)
C4B C -0.29351(34) -0.0047(8) -0.17497(24)
N1B N 0.0201(4) -0.0094(9) -0.34088(14)
N1D N 0.0201(4) 0.0094(9) 0.15912(14)
O1B O -0.2048(4) 0.0134(8) -0.45986(18)
O1D O -0.2048(4) -0.0134(8) 0.04014(18)
O2B O -0.3613(4) -0.0711(5) -0.35614(22)
O3D O -0.0135(7) 0.2865(4) -0.0040(5)
H1B H -0.3323(16) -0.1312(11) -0.1719(20)
H2B H -0.3602(10) 0.071(4) -0.2116(13)
H3B H -0.2888(9) 0.047(4) -0.1148(9)
loop_
_geom_bond_atom_site_label_1
_geom_bond_atom_site_label_2
_geom_bond_site_symmetry_1
_geom_bond_site_symmetry_2
Cu1 N1 1_555 1_555
C1 C2 1_555 1_555
C2 C4 1_555 1_555
C3 C1 1_555 1_555
C4 H1 1_555 1_555
N1 C1 1_555 1_555
O1 Cu1 1_555 1_555
O2 C3 1_555 1_555
O3 Cu1 1_555 1_555
H2 C4 1_555 1_555
H3 C4 1_555 1_555
Cu1B N1B 1_555 1_555
C1B C2B 1_555 1_555
C2B N1 1_555 1_555
C3B C1B 1_555 1_555
C4B C2B 1_555 1_555
N1B C2 1_555 1_555
N1D Cu1 1_555 1_555
O1B Cu1B 1_555 1_555
O1D Cu1 1_555 1_555
O2B C3B 1_555 1_555
O3D Cu1 1_555 1_555
H1B C4B 1_555 1_555
H2B C4B 1_555 1_555
H3B C4B 1_555 1_555
C3 O1 1_555 1_555
C1B N1B 1_555 1_555
C3B O1B 1_555 1_555

#END
