
#######################################################################
#
#                 Cambridge Crystallographic Data Centre
#                                CCDC 
#
#######################################################################
#
# If this CIF has been generated from an entry in the Cambridge 
# Structural Database, then it will include bibliographic, chemical, 
# crystal, experimental, refinement or atomic coordinate data resulting 
# from the CCDC's data processing and validation procedures.
#
#######################################################################

data_DASLOZ
_symmetry_cell_setting           orthorhombic
_symmetry_space_group_name_H-M   'P b c n'
_symmetry_Int_Tables_number      60
_space_group_name_Hall           '-P 2n 2ab'
loop_
_symmetry_equiv_pos_site_id
_symmetry_equiv_pos_as_xyz
1 x,y,z
2 1/2+x,1/2-y,-z
3 -x,y,1/2-z
4 1/2-x,1/2-y,1/2+z
5 -x,-y,-z
6 1/2-x,1/2+y,z
7 x,-y,1/2+z
8 1/2+x,1/2+y,1/2-z
_cell_length_a                   9.05934(17)
_cell_length_b                   7.44099(10)
_cell_length_c                   14.66969(22)
_cell_angle_alpha                90
_cell_angle_beta                 90
_cell_angle_gamma                90
_cell_volume                     988.891
loop_
_atom_site_label
_atom_site_type_symbol
_atom_site_fract_x
_atom_site_fract_y
_atom_site_fract_z
Zn1 Zn 0.0000 0.0000 0.00000
C1 C 0.1172(5) -0.0076(6) -0.19271(30)
C2 C 0.1366(4) -0.0009(7) -0.28657(35)
C3 C 0.2375(5) -0.0240(6) -0.12178(29)
C4 C 0.2885(4) 0.0087(9) -0.33115(32)
N1 N -0.0188(6) -0.0112(9) -0.15559(19)
O1 O 0.2158(4) 0.0176(8) -0.04183(24)
O2 O 0.3590(5) -0.0870(6) -0.14946(28)
O3 O 0.0075(10) -0.2895(5) 0.0050(8)
H1 H 0.3538(18) -0.080(5) -0.3030(27)
H2 H 0.3298(27) 0.1294(24) -0.3228(32)
H3 H 0.2792(12) -0.017(7) -0.3965(8)
Zn1B Zn 0.0000 0.0000 -0.50000
C1B C -0.1172(5) -0.0076(6) -0.30729(30)
C2B C -0.1366(4) -0.0009(7) -0.21343(35)
C3B C -0.2375(5) -0.0240(6) -0.37822(29)
C4B C -0.2885(4) 0.0087(9) -0.16885(32)
N1B N 0.0188(6) -0.0112(9) -0.34441(19)
N1D N 0.0188(6) 0.0112(9) 0.15559(19)
O1B O -0.2158(4) 0.0176(8) -0.45817(24)
O1D O -0.2158(4) -0.0176(8) 0.04183(24)
O2B O -0.3590(5) -0.0870(6) -0.35054(28)
O3D O -0.0075(10) 0.2895(5) -0.0050(8)
H1B H -0.3538(18) -0.080(5) -0.1970(27)
H2B H -0.3298(27) 0.1294(24) -0.1772(32)
H3B H -0.2792(12) -0.017(7) -0.1035(8)
loop_
_geom_bond_atom_site_label_1
_geom_bond_atom_site_label_2
_geom_bond_site_symmetry_1
_geom_bond_site_symmetry_2
Zn1 N1 1_555 1_555
C1 C2 1_555 1_555
C2 C4 1_555 1_555
C3 C1 1_555 1_555
C4 H1 1_555 1_555
N1 C1 1_555 1_555
O1 Zn1 1_555 1_555
O2 C3 1_555 1_555
O3 Zn1 1_555 1_555
H2 C4 1_555 1_555
H3 C4 1_555 1_555
Zn1B N1B 1_555 1_555
C1B C2B 1_555 1_555
C2B N1 1_555 1_555
C3B C1B 1_555 1_555
C4B C2B 1_555 1_555
N1B C2 1_555 1_555
N1D Zn1 1_555 1_555
O1B Zn1B 1_555 1_555
O1D Zn1 1_555 1_555
O2B C3B 1_555 1_555
O3D Zn1 1_555 1_555
H1B C4B 1_555 1_555
H2B C4B 1_555 1_555
H3B C4B 1_555 1_555
C3 O1 1_555 1_555
C1B N1B 1_555 1_555
C3B O1B 1_555 1_555

#END
