
#######################################################################
#
#                 Cambridge Crystallographic Data Centre
#                                CCDC 
#
#######################################################################
#
# If this CIF has been generated from an entry in the Cambridge 
# Structural Database, then it will include bibliographic, chemical, 
# crystal, experimental, refinement or atomic coordinate data resulting 
# from the CCDC's data processing and validation procedures.
#
#######################################################################

data_DASNAM
_symmetry_cell_setting           orthorhombic
_symmetry_space_group_name_H-M   'P 21 21 21'
_symmetry_Int_Tables_number      19
_space_group_name_Hall           'P 2ac 2ab'
loop_
_symmetry_equiv_pos_site_id
_symmetry_equiv_pos_as_xyz
1 x,y,z
2 1/2-x,-y,1/2+z
3 1/2+x,1/2-y,-z
4 -x,1/2+y,1/2-z
_cell_length_a                   5.618(2)
_cell_length_b                   11.211(3)
_cell_length_c                   21.447(5)
_cell_angle_alpha                90
_cell_angle_beta                 90
_cell_angle_gamma                90
_cell_volume                     1350.8
loop_
_atom_site_label
_atom_site_type_symbol
_atom_site_fract_x
_atom_site_fract_y
_atom_site_fract_z
Mn1 Mn 0.0000(7) -0.3195(2) 0.5000(2)
O1 O -0.345(3) -0.346(1) 0.459(1)
O2 O -0.687(2) -0.414(1) 0.503(1)
O3 O 0.112(3) -0.261(1) 0.412(1)
O4 O -0.132(3) -0.392(1) 0.584(1)
N1 N -0.299(4) -0.893(1) 0.377(1)
N2 N -0.273(4) 0.029(2) 0.180(1)
C1 C -0.506(5) -0.432(2) 0.470(1)
C2 C -0.444(3) -0.550(1) 0.444(1)
C3 C -0.615(6) -0.645(2) 0.459(1)
C4 C -0.569(4) -0.758(2) 0.437(1)
C5 C -0.358(5) -0.775(2) 0.397(1)
C6 C -0.199(4) -0.682(2) 0.383(1)
C7 C -0.233(4) -0.569(2) 0.409(1)
C8 C 0.173(4) -0.163(2) 0.393(1)
C9 C 0.087(4) -0.111(2) 0.336(1)
C10 C 0.168(5) -0.011(2) 0.301(1)
C11 C 0.072(5) 0.031(2) 0.247(1)
C12 C -0.156(6) -0.012(2) 0.230(1)
C13 C -0.251(5) -0.115(2) 0.263(1)
C14 C -0.141(5) -0.156(2) 0.317(1)
O1B O 0.155(3) -0.154(1) 0.541(1)
Mn1B Mn -0.5000(7) -0.1805(2) 0.5000(2)
C8B C -0.327(4) -0.337(2) 0.607(1)
O2_2 O 0.313(2) -0.414(1) 0.503(1)
O4B O 0.368(3) -0.108(1) 0.416(1)
Mn1B_2 Mn 0.5000(7) -0.1805(2) 0.5000(2)
C1B C -0.006(5) -0.068(2) 0.530(1)
O1B_2 O -0.845(3) -0.154(1) 0.541(1)
O2B O -0.187(2) -0.086(1) 0.497(1)
O3B O -0.388(3) -0.239(1) 0.588(1)
O4B_2 O -0.632(3) -0.108(1) 0.416(1)
C9B C -0.413(4) -0.389(2) 0.664(1)
Mn1_2 Mn -1.0000(7) -0.3195(2) 0.5000(2)
C2B C 0.056(3) 0.050(1) 0.556(1)
C10B C -0.332(5) -0.489(2) 0.699(1)
C14B C -0.641(5) -0.344(2) 0.683(1)
C3B C -0.115(6) 0.145(2) 0.541(1)
C7B C 0.267(4) 0.069(2) 0.591(1)
C11B C -0.428(5) -0.531(2) 0.753(1)
C13B C -0.751(5) -0.385(2) 0.737(1)
C4B C -0.069(4) 0.258(2) 0.563(1)
C6B C 0.301(4) 0.182(2) 0.617(1)
C12B C -0.656(6) -0.488(2) 0.770(1)
C5B C 0.142(5) 0.275(2) 0.603(1)
N2B N -0.773(4) -0.529(2) 0.820(1)
N1B N 0.201(4) 0.393(1) 0.623(1)
loop_
_geom_bond_atom_site_label_1
_geom_bond_atom_site_label_2
_geom_bond_site_symmetry_1
_geom_bond_site_symmetry_2
Mn1 O1 1_555 1_555
O1 C1 1_555 1_555
O2 C1 1_555 1_555
O3 Mn1 1_555 1_555
O4 Mn1 1_555 1_555
N1 C5 1_555 1_555
N2 C12 1_555 1_555
C1 C2 1_555 1_555
C2 C3 1_555 1_555
C3 C4 1_555 1_555
C4 C5 1_555 1_555
C5 C6 1_555 1_555
C6 C7 1_555 1_555
C7 C2 1_555 1_555
C8 O3 1_555 1_555
C9 C8 1_555 1_555
C10 C9 1_555 1_555
C11 C10 1_555 1_555
C12 C11 1_555 1_555
C13 C12 1_555 1_555
C14 C9 1_555 1_555
O1B Mn1 1_555 1_555
Mn1B O1 1_555 1_555
C8B O4 1_555 1_555
O2_2 Mn1 1_555 1_555
O4B C8 1_555 1_555
Mn1B_2 O1B 1_555 1_555
C1B O1B 1_555 1_555
O1B_2 Mn1B 1_555 1_555
O2B Mn1B 1_555 1_555
O3B Mn1B 1_555 1_555
O4B_2 Mn1B 1_555 1_555
C9B C8B 1_555 1_555
Mn1_2 O2 1_555 1_555
C2B C1B 1_555 1_555
C10B C9B 1_555 1_555
C14B C9B 1_555 1_555
C3B C2B 1_555 1_555
C7B C2B 1_555 1_555
C11B C10B 1_555 1_555
C13B C14B 1_555 1_555
C4B C3B 1_555 1_555
C6B C7B 1_555 1_555
C12B C11B 1_555 1_555
C5B C4B 1_555 1_555
N2B C12B 1_555 1_555
N1B C5B 1_555 1_555
C13 C14 1_555 1_555
C8B O3B 1_555 1_555
O4B Mn1B_2 1_555 1_555
C1B O2B 1_555 1_555
O1B_2 Mn1_2 1_555 1_555
C13B C12B 1_555 1_555
C6B C5B 1_555 1_555

#END
