
#######################################################################
#
#                 Cambridge Crystallographic Data Centre
#                                CCDC 
#
#######################################################################
#
# If this CIF has been generated from an entry in the Cambridge 
# Structural Database, then it will include bibliographic, chemical, 
# crystal, experimental, refinement or atomic coordinate data resulting 
# from the CCDC's data processing and validation procedures.
#
#######################################################################

data_DASTEY01
_symmetry_cell_setting           triclinic
_symmetry_space_group_name_H-M   'P -1'
_symmetry_Int_Tables_number      2
_space_group_name_Hall           '-P 1'
loop_
_symmetry_equiv_pos_site_id
_symmetry_equiv_pos_as_xyz
1 x,y,z
2 -x,-y,-z
_cell_length_a                   12.7693(10)
_cell_length_b                   12.7842(9)
_cell_length_c                   14.7758(11)
_cell_angle_alpha                85.019(2)
_cell_angle_beta                 65.8700(10)
_cell_angle_gamma                89.613(2)
_cell_volume                     2191.9
loop_
_atom_site_label
_atom_site_type_symbol
_atom_site_fract_x
_atom_site_fract_y
_atom_site_fract_z
C1 C 0.26509(15) 0.37997(15) 0.06895(14)
C2 C 0.19927(16) 0.33185(15) 0.17113(14)
C3 C 0.18196(19) 0.36203(17) 0.26181(15)
H1 H 0.2132 0.4215 0.2747
C4 C 0.10655(19) 0.28451(17) 0.33314(15)
H2 H 0.0786 0.2833 0.4021
C5 C 0.08348(15) 0.21286(15) 0.28099(13)
C6 C 0.00599(15) 0.11849(14) 0.31046(13)
C7 C 0.11435(17) 0.15325(14) -0.41578(13)
C8 C 0.09417(18) 0.25005(15) -0.36389(15)
C9 C 0.0090(2) 0.31970(18) -0.3427(2)
H3 H -0.0503 0.3211 -0.3639
C10 C 0.0288(2) 0.39057(19) -0.2814(2)
H4 H -0.0156 0.4472 -0.2544
C11 C 0.12451(19) 0.35936(16) -0.27026(16)
C12 C 0.18340(18) 0.39754(16) -0.21080(16)
C13 C 0.76734(15) 0.07116(15) -0.36805(13)
C14 C 0.73696(16) 0.12619(15) -0.27742(14)
C15 C 0.77882(19) 0.12111(18) -0.20644(17)
H5 H 0.8361 0.0779 -0.2028
C16 C 0.7177(2) 0.19508(19) -0.13857(17)
H6 H 0.7267 0.2098 -0.0816
C17 C 0.64324(17) 0.23999(15) -0.17403(15)
C18 C 0.55454(16) 0.31947(15) -0.13587(14)
C19 C 0.45122(15) 0.60590(14) -0.17412(13)
C20 C 0.47381(16) 0.70450(15) -0.23987(14)
C21 C 0.56495(19) 0.77308(18) -0.2822(2)
H7 H 0.6332 0.7703 -0.2736
C22 C 0.5350(2) 0.8501(2) -0.3422(2)
H8 H 0.5804 0.9071 -0.3818
C23 C 0.42779(18) 0.82417(17) -0.33039(16)
C24 C 0.3498(2) 0.87344(19) -0.37215(18)
O1 O 0.25734(14) 0.33340(13) -0.00054(11)
O2 O 0.32040(11) 0.46396(11) 0.05710(11)
O3 O 0.13998(11) 0.23971(11) 0.18111(10)
O4 O -0.00256(14) 0.06644(12) 0.24826(11)
O5 O -0.05449(10) 0.10176(10) 0.40651(9)
O6 O 0.20070(12) 0.10081(11) -0.41959(11)
O7 O 0.04310(13) 0.13244(11) -0.44964(11)
O8 O 0.16679(12) 0.27278(11) -0.32045(11)
O9 O 0.14176(15) 0.47030(15) -0.15991(15)
O10 O 0.27315(13) 0.34896(12) -0.21579(12)
O11 O 0.71612(12) 0.09677(12) -0.42396(10)
O12 O 0.84143(11) 0.00296(11) -0.38292(10)
O13 O 0.65326(12) 0.19904(11) -0.25892(10)
O14 O 0.49426(13) 0.33907(12) -0.18524(11)
O15 O 0.54625(13) 0.35773(11) -0.05877(11)
O16 O 0.36229(12) 0.55381(10) -0.16413(11)
O17 O 0.51971(11) 0.58240(11) -0.13619(10)
O18 O 0.38857(11) 0.73469(11) -0.26919(10)
O19 O 0.25154(15) 0.83810(17) -0.34624(13)
O20 O 0.3862(2) 0.95238(19) -0.4326(2)
Zn1 Zn 0.343786(18) 0.402721(16) -0.132753(15)
Zn2 Zn -0.215161(17) 0.048732(16) 0.440998(15)
Zn3 Zn 0.5000 0.5000 0.0000
Zn4 Zn 1.0000 0.0000 -0.5000
C1A C 0.73491(15) 0.62003(15) -0.06895(14)
C2A C 0.80073(16) 0.66815(15) -0.17113(14)
C3A C 0.81804(19) 0.63797(17) -0.26181(15)
H1A H 0.7868 0.5785 -0.2747
C4A C 0.89345(19) 0.71549(17) -0.33314(15)
H2A H 0.9214 0.7167 -0.4021
C5A C 0.91652(15) 0.78714(15) -0.28099(13)
C6A C 0.99401(15) 0.88151(14) -0.31046(13)
C7A C -0.11435(17) -0.15325(14) 0.41578(13)
C8A C -0.09417(18) -0.25005(15) 0.36389(15)
C9A C -0.0090(2) -0.31970(18) 0.3427(2)
H3A H 0.0503 -0.3211 0.3639
C10A C -0.0288(2) -0.39057(19) 0.2814(2)
H4A H 0.0156 -0.4472 0.2544
C11A C -0.12451(19) -0.35936(16) 0.27026(16)
C12A C -0.18340(18) -0.39754(16) 0.21080(16)
C13A C 0.23266(15) 0.92884(15) 0.36805(13)
C14A C 0.26304(16) 0.87381(15) 0.27742(14)
C15A C 0.22118(19) 0.87889(18) 0.20644(17)
H5A H 0.1639 0.9221 0.2028
C16A C 0.2823(2) 0.80492(19) 0.13857(17)
H6A H 0.2733 0.7902 0.0816
C17A C 0.35676(17) 0.76001(15) 0.17403(15)
C18A C 0.44546(16) 0.68053(15) 0.13587(14)
C19A C 0.54878(15) 0.39410(14) 0.17412(13)
C20A C 0.52619(16) 0.29550(15) 0.23987(14)
C21A C 0.43505(19) 0.22692(18) 0.2822(2)
H7A H 0.3668 0.2297 0.2736
C22A C 0.4650(2) 0.1499(2) 0.3422(2)
H8A H 0.4196 0.0929 0.3818
C23A C 0.57221(18) 0.17583(17) 0.33039(16)
C24A C 0.6502(2) 0.12656(19) 0.37215(18)
O1A O 0.74266(14) 0.66660(13) 0.00054(11)
O2A O 0.67960(11) 0.53604(11) -0.05710(11)
O3A O 0.86002(11) 0.76029(11) -0.18111(10)
O4A O 1.00256(14) 0.93356(12) -0.24826(11)
O5A O 1.05449(10) 0.89824(10) -0.40651(9)
O5_2 O 0.94551(10) 0.10176(10) -0.59349(9)
O5A_2 O 1.05449(10) -0.10176(10) -0.40651(9)
O6A O -0.20070(12) -0.10081(11) 0.41959(11)
O6_2 O 1.20070(12) 1.10081(11) -0.41959(11)
O7A O -0.04310(13) -0.13244(11) 0.44964(11)
O7A_2 O 0.95690(13) -0.13244(11) -0.55036(11)
O7_2 O 1.04310(13) 0.13244(11) -0.44964(11)
O8A O -0.16679(12) -0.27278(11) 0.32045(11)
O9A O -0.14176(15) -0.47030(15) 0.15991(15)
O10A O -0.27315(13) -0.34896(12) 0.21579(12)
O10A_2 O 0.72685(13) 0.65104(12) 0.21579(12)
O11A O 0.28388(12) 0.90323(12) 0.42396(10)
O11_2 O -0.28388(12) 0.09677(12) 0.57604(10)
O11A_2 O 1.28388(12) 0.90323(12) -0.57604(10)
O12A O 0.15857(11) 0.99704(11) 0.38292(10)
O12A_2 O 1.15857(11) -0.00296(11) -0.61708(10)
O13A O 0.34674(12) 0.80096(11) 0.25892(10)
O14A O 0.50574(13) 0.66093(12) 0.18524(11)
O15A O 0.45375(13) 0.64227(11) 0.05877(11)
O16A O 0.63771(12) 0.44619(10) 0.16413(11)
O17A O 0.48029(11) 0.41760(11) 0.13619(10)
O18A O 0.61143(11) 0.26531(11) 0.26919(10)
O19A O 0.74846(15) 0.16190(17) 0.34624(13)
O19A_2 O -0.25154(15) 0.16190(17) 0.34624(13)
O19_2 O 1.25154(15) 0.83810(17) -0.34624(13)
O20A O 0.6138(2) 0.04762(19) 0.4326(2)
O20A_2 O -0.3862(2) 0.04762(19) 0.4326(2)
O20_2 O 1.3862(2) 0.95238(19) -0.4326(2)
Zn1A Zn 0.656214(18) 0.597279(16) 0.132753(15)
Zn1A_2 Zn -0.343786(18) -0.402721(16) 0.132753(15)
Zn2A Zn 1.215161(17) 0.951268(16) -0.440998(15)
Zn2A_2 Zn 0.215161(17) -0.048732(16) -0.440998(15)
Zn2_2 Zn 0.784839(17) 0.048732(16) -0.559002(15)
Zn2A_3 Zn 0.215161(17) 0.951268(16) -0.440998(15)
Zn2A_4 Zn 0.215161(17) 0.951268(16) 0.559002(15)
Zn2_3 Zn 0.784839(17) 0.048732(16) 0.440998(15)
Zn4_2 Zn 0.0000 0.0000 0.5000
Zn4_3 Zn 0.0000 0.0000 -0.5000
Zn4_4 Zn 1.0000 1.0000 -0.5000
Zn4_5 Zn 0.0000 1.0000 0.5000
C25 C 0.0560(3) 0.6919(2) -0.1211(3)
H9 H 0.0108 0.6285 -0.1097
H10 H 0.0835 0.7180 -0.1900
H11 H 0.0096 0.7436 -0.0804
C26 C 0.1231(3) 0.6288(2) 0.0089(2)
H12 H 0.0874 0.6827 0.0519
H13 H 0.1909 0.6071 0.0174
H14 H 0.0705 0.5697 0.0255
N1 N 0.15442(15) 0.66977(14) -0.09532(15)
H15 H 0.1984 0.6228 -0.1353
H16 H 0.1971 0.7294 -0.1078
C27 C -0.5269(5) 0.2555(4) 0.5804(4)
H17 H -0.5831 0.3086 0.5905
H18 H -0.4803 0.2546 0.5104
H19 H -0.4791 0.2706 0.6140
C28 C -0.5953(4) 0.1200(4) 0.7193(4)
H20 H -0.5233 0.1292 0.7241
H21 H -0.6184 0.0470 0.7331
H22 H -0.6525 0.1599 0.7667
N2 N -0.5829(5) 0.1566(4) 0.6189(4)
H23 H -0.5437 0.1087 0.5775
H24 H -0.6533 0.1593 0.6188
loop_
_geom_bond_atom_site_label_1
_geom_bond_atom_site_label_2
_geom_bond_site_symmetry_1
_geom_bond_site_symmetry_2
C1 C2 1_555 1_555
C2 C3 1_555 1_555
C3 H1 1_555 1_555
C4 C3 1_555 1_555
H2 C4 1_555 1_555
C5 C4 1_555 1_555
C6 C5 1_555 1_555
C7 C8 1_555 1_555
C8 C9 1_555 1_555
C9 H3 1_555 1_555
C10 C9 1_555 1_555
H4 C10 1_555 1_555
C11 C10 1_555 1_555
C12 C11 1_555 1_555
C13 C14 1_555 1_555
C14 C15 1_555 1_555
C15 H5 1_555 1_555
C16 C15 1_555 1_555
H6 C16 1_555 1_555
C17 C16 1_555 1_555
C18 C17 1_555 1_555
C19 C20 1_555 1_555
C20 C21 1_555 1_555
C21 H7 1_555 1_555
C22 C21 1_555 1_555
H8 C22 1_555 1_555
C23 C22 1_555 1_555
C24 C23 1_555 1_555
O1 C1 1_555 1_555
O2 C1 1_555 1_555
O3 C2 1_555 1_555
O4 C6 1_555 1_555
O5 C6 1_555 1_555
O6 C7 1_555 1_555
O7 C7 1_555 1_555
O8 C8 1_555 1_555
O9 C12 1_555 1_555
O10 C12 1_555 1_555
O11 C13 1_555 1_555
O12 C13 1_555 1_555
O13 C14 1_555 1_555
O14 C18 1_555 1_555
O15 C18 1_555 1_555
O16 C19 1_555 1_555
O17 C19 1_555 1_555
O18 C20 1_555 1_555
O19 C24 1_555 1_555
O20 C24 1_555 1_555
Zn1 O1 1_555 1_555
Zn2 O5 1_555 1_555
Zn3 O2 1_555 1_555
Zn4 O12 1_555 1_555
C25 H9 1_555 1_555
H10 C25 1_555 1_555
H11 C25 1_555 1_555
C26 H12 1_555 1_555
H13 C26 1_555 1_555
H14 C26 1_555 1_555
N1 C25 1_555 1_555
H15 N1 1_555 1_555
H16 N1 1_555 1_555
C27 H17 1_555 1_555
H18 C27 1_555 1_555
H19 C27 1_555 1_555
C28 H20 1_555 1_555
H21 C28 1_555 1_555
H22 C28 1_555 1_555
N2 C27 1_555 1_555
H23 N2 1_555 1_555
H24 N2 1_555 1_555
C1A C2A 1_555 1_555
C2A C3A 1_555 1_555
C3A H1A 1_555 1_555
C4A C3A 1_555 1_555
H2A C4A 1_555 1_555
C5A C4A 1_555 1_555
C6A C5A 1_555 1_555
C7A C8A 1_555 1_555
C8A C9A 1_555 1_555
C9A H3A 1_555 1_555
C10A C9A 1_555 1_555
H4A C10A 1_555 1_555
C11A C10A 1_555 1_555
C12A C11A 1_555 1_555
C13A C14A 1_555 1_555
C14A C15A 1_555 1_555
C15A H5A 1_555 1_555
C16A C15A 1_555 1_555
H6A C16A 1_555 1_555
C17A C16A 1_555 1_555
C18A C17A 1_555 1_555
C19A C20A 1_555 1_555
C20A C21A 1_555 1_555
C21A H7A 1_555 1_555
C22A C21A 1_555 1_555
H8A C22A 1_555 1_555
C23A C22A 1_555 1_555
C24A C23A 1_555 1_555
O1A C1A 1_555 1_555
O2A Zn3 1_555 1_555
O3A C2A 1_555 1_555
O4A C6A 1_555 1_555
O5A C6A 1_555 1_555
O5_2 Zn4 1_555 1_555
O5A_2 Zn4 1_555 1_555
O6A Zn2 1_555 1_555
O6_2 Zn2A 1_555 1_555
O7A C7A 1_555 1_555
O7A_2 Zn4 1_555 1_555
O7_2 Zn4 1_555 1_555
O8A C8A 1_555 1_555
O9A C12A 1_555 1_555
O10A C12A 1_555 1_555
O10A_2 Zn1A 1_555 1_555
O11A C13A 1_555 1_555
O11_2 Zn2 1_555 1_555
O11A_2 Zn2A 1_555 1_555
O12A C13A 1_555 1_555
O12A_2 Zn4 1_555 1_555
O13A C14A 1_555 1_555
O14A C18A 1_555 1_555
O15A Zn3 1_555 1_555
O16A C19A 1_555 1_555
O17A Zn3 1_555 1_555
O18A C20A 1_555 1_555
O19A C24A 1_555 1_555
O19A_2 Zn2 1_555 1_555
O19_2 Zn2A 1_555 1_555
O20A C24A 1_555 1_555
O20A_2 Zn2 1_555 1_555
O20_2 Zn2A 1_555 1_555
Zn1A O1A 1_555 1_555
Zn1A_2 O10A 1_555 1_555
Zn2A O5A 1_555 1_555
Zn2A_2 O6 1_555 1_555
Zn2_2 O11 1_555 1_555
Zn2A_3 O19 1_555 1_555
Zn2A_4 O11A 1_555 1_555
Zn2_3 O19A 1_555 1_555
Zn4_2 O5 1_555 1_555
Zn4_3 O7 1_555 1_555
Zn4_4 O5A 1_555 1_555
Zn4_5 O12A 1_555 1_555
C5 O3 1_555 1_555
C11 O8 1_555 1_555
C17 O13 1_555 1_555
C23 O18 1_555 1_555
O10 Zn1 1_555 1_555
O14 Zn1 1_555 1_555
O15 Zn3 1_555 1_555
O16 Zn1 1_555 1_555
O17 Zn3 1_555 1_555
O20 Zn2A_3 1_555 1_555
C26 N1 1_555 1_555
C28 N2 1_555 1_555
C1A O2A 1_555 1_555
C5A O3A 1_555 1_555
C7A O6A 1_555 1_555
C11A O8A 1_555 1_555
C17A O13A 1_555 1_555
C18A O15A 1_555 1_555
C19A O17A 1_555 1_555
C23A O18A 1_555 1_555
O5_2 Zn2_2 1_555 1_555
O7A Zn4_2 1_555 1_555
O14A Zn1A 1_555 1_555
O16A Zn1A 1_555 1_555
O20A Zn2_3 1_555 1_555

#END
