
#######################################################################
#
#                 Cambridge Crystallographic Data Centre
#                                CCDC 
#
#######################################################################
#
# If this CIF has been generated from an entry in the Cambridge 
# Structural Database, then it will include bibliographic, chemical, 
# crystal, experimental, refinement or atomic coordinate data resulting 
# from the CCDC's data processing and validation procedures.
#
#######################################################################

data_DASTEY
_symmetry_cell_setting           triclinic
_symmetry_space_group_name_H-M   'P -1'
_symmetry_Int_Tables_number      2
_space_group_name_Hall           '-P 1'
loop_
_symmetry_equiv_pos_site_id
_symmetry_equiv_pos_as_xyz
1 x,y,z
2 -x,-y,-z
_cell_length_a                   9.3167(16)
_cell_length_b                   9.8122(17)
_cell_length_c                   11.596(2)
_cell_angle_alpha                95.596(4)
_cell_angle_beta                 97.431(3)
_cell_angle_gamma                97.238(3)
_cell_volume                     1035.79
loop_
_atom_site_label
_atom_site_type_symbol
_atom_site_fract_x
_atom_site_fract_y
_atom_site_fract_z
Zn1 Zn 0.40150(3) 0.26895(3) 0.26366(2)
Zn2 Zn 0.5000 0.5000 0.5000
C1 C 0.4107(2) 0.5459(2) 0.2305(2)
C2 C 0.3901(3) 0.6590(2) 0.1564(2)
C3 C 0.3787(4) 0.6640(3) 0.0391(2)
H1 H 0.3828 0.5901 -0.0192
C4 C 0.3595(4) 0.8020(4) 0.0209(3)
H2 H 0.3478 0.8384 -0.0522
C5 C 0.3609(3) 0.8713(3) 0.1271(3)
C6 C 0.3579(4) 1.0184(3) 0.1678(5)
C7 C 1.2045(2) 0.3352(2) 0.4319(2)
C8 C 1.0566(2) 0.3297(2) 0.4671(2)
C9 C 1.0112(2) 0.3467(2) 0.5735(2)
H3 H 1.0714 0.3629 0.6474
C10 C 0.8566(2) 0.3356(2) 0.5529(2)
H4 H 0.7929 0.3425 0.6102
C11 C 0.8180(2) 0.3132(2) 0.4349(2)
C12 C 0.6774(2) 0.2981(2) 0.3579(2)
O1 O 0.4113(2) 0.42866(19) 0.17403(15)
O2 O 0.42370(18) 0.57420(19) 0.33914(14)
O3 O 0.38047(19) 0.78606(18) 0.21260(15)
O4 O 0.3898(3) 1.0568(3) 0.2747(4)
O5 O 0.3295(4) 1.1013(3) 0.0990(4)
O6 O 1.21362(17) 0.29016(19) 0.32799(16)
O7 O 1.30788(16) 0.38423(18) 0.51144(15)
O8 O 0.93921(16) 0.30708(17) 0.37975(14)
O9 O 0.6679(2) 0.2605(3) 0.25281(17)
O10 O 0.56306(16) 0.31991(17) 0.40710(14)
Zn1A Zn 0.59850(3) 0.73105(3) 0.73634(2)
Zn1_2 Zn 0.40150(3) 1.26895(3) 0.26366(2)
Zn1_3 Zn 1.40150(3) 0.26895(3) 0.26366(2)
Zn1A_2 Zn 0.59850(3) -0.26895(3) 0.73634(2)
Zn1A_3 Zn -0.40150(3) 0.73105(3) 0.73634(2)
Zn2_2 Zn 1.5000 0.5000 0.5000
Zn2_3 Zn -0.5000 0.5000 0.5000
C1A C 0.5893(2) 0.4541(2) 0.7695(2)
C2A C 0.6099(3) 0.3410(2) 0.8436(2)
C3A C 0.6213(4) 0.3360(3) 0.9609(2)
H1A H 0.6172 0.4099 1.0192
C4A C 0.6405(4) 0.1980(4) 0.9791(3)
H2A H 0.6522 0.1616 1.0522
C5A C 0.6391(3) 0.1287(3) 0.8729(3)
C6A C 0.6421(4) -0.0184(3) 0.8322(5)
C7A C -0.2045(2) 0.6648(2) 0.5681(2)
C8A C -0.0566(2) 0.6703(2) 0.5329(2)
C9A C -0.0112(2) 0.6533(2) 0.4265(2)
H3A H -0.0714 0.6371 0.3526
C10A C 0.1434(2) 0.6644(2) 0.4471(2)
H4A H 0.2071 0.6575 0.3898
C11A C 0.1820(2) 0.6868(2) 0.5651(2)
C12A C 0.3226(2) 0.7019(2) 0.6421(2)
O1A O 0.5887(2) 0.57134(19) 0.82597(15)
O2A O 0.57630(18) 0.42580(19) 0.66086(14)
O3A O 0.61953(19) 0.21394(18) 0.78740(15)
O4A O 0.6102(3) -0.0568(3) 0.7253(4)
O4_2 O 0.3898(3) 0.0568(3) 0.2747(4)
O4A_2 O 0.6102(3) 0.9432(3) 0.7253(4)
O5A O 0.6705(4) -0.1013(3) 0.9010(4)
O5_2 O 0.3295(4) 0.1013(3) 0.0990(4)
O5A_2 O 0.6705(4) 0.8987(3) 0.9010(4)
O6A O -0.21362(17) 0.70984(19) 0.67201(16)
O6_2 O 0.21362(17) 0.29016(19) 0.32799(16)
O6A_2 O 0.78638(17) 0.70984(19) 0.67201(16)
O7A O -0.30788(16) 0.61577(18) 0.48856(15)
O7_2 O 0.30788(16) 0.38423(18) 0.51144(15)
O7A_2 O 0.69212(16) 0.61577(18) 0.48856(15)
O8A O 0.06079(16) 0.69292(17) 0.62025(14)
O9A O 0.3321(2) 0.7395(3) 0.74719(17)
O10A O 0.43694(16) 0.68009(17) 0.59290(14)
C13 C 0.0321(11) 0.9841(12) -0.2027(18)
H5 H -0.0627 0.9796 -0.2517
H6 H 0.0199 1.0007 -0.1200
H7 H 0.0705 0.8964 -0.2167
C14 C 0.2591(9) 1.1225(11) -0.2033(10)
H8 H 0.2773 1.1979 -0.2514
H9 H 0.3171 1.0494 -0.2237
H10 H 0.2868 1.1578 -0.1204
N1 N 0.1082(10) 1.0679(10) -0.224(2)
H11 H 0.0655 1.1441 -0.2025
H12 H 0.0901 1.0566 -0.3049
loop_
_geom_bond_atom_site_label_1
_geom_bond_atom_site_label_2
_geom_bond_site_symmetry_1
_geom_bond_site_symmetry_2
Zn1 O1 1_555 1_555
Zn2 O2 1_555 1_555
C1 C2 1_555 1_555
C2 C3 1_555 1_555
C3 H1 1_555 1_555
C4 C3 1_555 1_555
H2 C4 1_555 1_555
C5 C4 1_555 1_555
C6 C5 1_555 1_555
C7 C8 1_555 1_555
C8 C9 1_555 1_555
C9 H3 1_555 1_555
C10 C9 1_555 1_555
H4 C10 1_555 1_555
C11 C10 1_555 1_555
C12 C11 1_555 1_555
C13 H5 1_555 1_555
H6 C13 1_555 1_555
H7 C13 1_555 1_555
C14 H8 1_555 1_555
H9 C14 1_555 1_555
H10 C14 1_555 1_555
O1 C1 1_555 1_555
O2 C1 1_555 1_555
O3 C2 1_555 1_555
O4 C6 1_555 1_555
O5 C6 1_555 1_555
O6 C7 1_555 1_555
O7 C7 1_555 1_555
O8 C8 1_555 1_555
O9 C12 1_555 1_555
O10 Zn1 1_555 1_555
N1 C13 1_555 1_555
H11 N1 1_555 1_555
H12 N1 1_555 1_555
Zn1A O1A 1_555 1_555
Zn1_2 O4 1_555 1_555
Zn1_3 O6 1_555 1_555
Zn1A_2 O4A 1_555 1_555
Zn1A_3 O6A 1_555 1_555
Zn2_2 O7 1_555 1_555
Zn2_3 O7A 1_555 1_555
C1A C2A 1_555 1_555
C2A C3A 1_555 1_555
C3A H1A 1_555 1_555
C4A C3A 1_555 1_555
H2A C4A 1_555 1_555
C5A C4A 1_555 1_555
C6A C5A 1_555 1_555
C7A C8A 1_555 1_555
C8A C9A 1_555 1_555
C9A H3A 1_555 1_555
C10A C9A 1_555 1_555
H4A C10A 1_555 1_555
C11A C10A 1_555 1_555
C12A C11A 1_555 1_555
O1A C1A 1_555 1_555
O2A Zn2 1_555 1_555
O3A C2A 1_555 1_555
O4A C6A 1_555 1_555
O4_2 Zn1 1_555 1_555
O4A_2 Zn1A 1_555 1_555
O5A Zn1A_2 1_555 1_555
O5_2 Zn1 1_555 1_555
O5A_2 Zn1A 1_555 1_555
O6A C7A 1_555 1_555
O6_2 Zn1 1_555 1_555
O6A_2 Zn1A 1_555 1_555
O7A C7A 1_555 1_555
O7_2 Zn2 1_555 1_555
O7A_2 Zn2 1_555 1_555
O8A C8A 1_555 1_555
O9A C12A 1_555 1_555
O10A Zn2 1_555 1_555
Zn2 O10 1_555 1_555
C5 O3 1_555 1_555
C11 O8 1_555 1_555
C12 O10 1_555 1_555
C14 N1 1_555 1_555
O5 Zn1_2 1_555 1_555
Zn1A O10A 1_555 1_555
C1A O2A 1_555 1_555
C5A O3A 1_555 1_555
C6A O5A 1_555 1_555
C11A O8A 1_555 1_555
C12A O10A 1_555 1_555

#END
