
#######################################################################
#
#                 Cambridge Crystallographic Data Centre
#                                CCDC 
#
#######################################################################
#
# If this CIF has been generated from an entry in the Cambridge 
# Structural Database, then it will include bibliographic, chemical, 
# crystal, experimental, refinement or atomic coordinate data resulting 
# from the CCDC's data processing and validation procedures.
#
#######################################################################

data_DASTEY02
_symmetry_cell_setting           monoclinic
_symmetry_space_group_name_H-M   'P 21/c'
_symmetry_Int_Tables_number      14
_space_group_name_Hall           '-P 2ybc'
loop_
_symmetry_equiv_pos_site_id
_symmetry_equiv_pos_as_xyz
1 x,y,z
2 -x,1/2+y,1/2-z
3 -x,-y,-z
4 x,1/2-y,1/2+z
_cell_length_a                   9.426(5)
_cell_length_b                   15.424(5)
_cell_length_c                   17.359(5)
_cell_angle_alpha                90
_cell_angle_beta                 92.474(5)
_cell_angle_gamma                90
_cell_volume                     2521.41
loop_
_atom_site_label
_atom_site_type_symbol
_atom_site_fract_x
_atom_site_fract_y
_atom_site_fract_z
C1 C 0.7856(5) 0.0071(4) 0.1056(3)
C2 C 0.9386(5) -0.0156(4) 0.1008(3)
C3 C 1.0046(6) -0.0860(4) 0.0728(3)
H1 H 0.9610 -0.1369 0.0520
C4 C 1.1528(6) -0.0683(4) 0.0807(3)
H2 H 1.2279 -0.1049 0.0658
C5 C 1.1658(5) 0.0107(3) 0.1135(3)
C6 C 1.2900(5) 0.0662(4) 0.1362(3)
C7 C 0.4350(6) -0.2233(3) -0.0288(3)
C8 C 0.4136(6) -0.3080(4) 0.0070(3)
C9 C 0.3847(11) -0.3871(4) -0.0236(4)
H3 H 0.3731 -0.4016 -0.0767
C10 C 0.3751(9) -0.4437(4) 0.0405(4)
H4 H 0.3579 -0.5044 0.0384
C11 C 0.3947(6) -0.3963(3) 0.1040(3)
C12 C 0.4046(6) -0.4202(4) 0.1869(3)
O1 O 0.6985(4) -0.0441(3) 0.0769(3)
O2 O 0.7590(4) 0.0772(3) 0.1389(2)
O3 O 1.0360(3) 0.0451(3) 0.1260(2)
O4 O 1.2721(5) 0.1370(4) 0.1657(4)
O5 O 1.4116(3) 0.0328(2) 0.12245(18)
O6 O 0.4386(5) -0.2261(3) -0.1032(2)
O7 O 0.4451(4) -0.1565(2) 0.0106(2)
O8 O 0.4218(4) -0.3118(2) 0.08494(19)
O9 O 0.4287(4) -0.3575(3) 0.23332(19)
O10 O 0.3906(6) -0.4975(3) 0.2048(3)
Zn1 Zn 1.56336(5) 0.11449(4) 0.15741(3)
Zn2 Zn 0.5000 0.0000 0.0000
C1B C 0.2144(5) -0.0071(4) -0.1056(3)
C2B C 0.0614(5) 0.0156(4) -0.1008(3)
C3B C -0.0046(6) 0.0860(4) -0.0728(3)
H1B H 0.0390 0.1369 -0.0520
C4B C -0.1528(6) 0.0683(4) -0.0807(3)
H2B H -0.2279 0.1049 -0.0658
C5B C -0.1658(5) -0.0107(3) -0.1135(3)
C6B C -0.2900(5) -0.0662(4) -0.1362(3)
C7B C 0.5650(6) 0.2233(3) 0.0288(3)
C8B C 0.5864(6) 0.3080(4) -0.0070(3)
C9B C 0.6153(11) 0.3871(4) 0.0236(4)
H3B H 0.6269 0.4016 0.0767
C10B C 0.6249(9) 0.4437(4) -0.0405(4)
H4B H 0.6421 0.5044 -0.0384
C11B C 0.6053(6) 0.3963(3) -0.1040(3)
C12B C 0.5954(6) 0.4202(4) -0.1869(3)
O1B O 0.3015(4) 0.0441(3) -0.0769(3)
O2B O 0.2410(4) -0.0772(3) -0.1389(2)
O2_2 O 1.7590(4) 0.0772(3) 0.1389(2)
O2B_2 O -0.7590(4) -0.0772(3) -0.1389(2)
O3B O -0.0360(3) -0.0451(3) -0.1260(2)
O4B O -0.2721(5) -0.1370(4) -0.1657(4)
O5B O -0.4116(3) -0.0328(2) -0.12245(18)
O5_2 O 0.4116(3) 0.0328(2) 0.12245(18)
O5B_2 O 0.5884(3) -0.0328(2) -0.12245(18)
O6B O 0.5614(5) 0.2261(3) 0.1032(2)
O6B_2 O 1.5614(5) 0.2261(3) 0.1032(2)
O6_2 O -0.5614(5) -0.2261(3) -0.1032(2)
O7B O 0.5549(4) 0.1565(2) -0.0106(2)
O8B O 0.5782(4) 0.3118(2) -0.08494(19)
O9B O 0.5713(4) 0.3575(3) -0.23332(19)
O9A O 1.5713(4) 0.1425(3) 0.26668(19)
O9C O -0.5713(4) -0.1425(3) -0.26668(19)
O10B O 0.6094(6) 0.4975(3) -0.2048(3)
Zn1B Zn -0.56336(5) -0.11449(4) -0.15741(3)
Zn1_2 Zn 0.56336(5) 0.11449(4) 0.15741(3)
Zn1B_2 Zn 0.43664(5) -0.11449(4) -0.15741(3)
Zn1A Zn 0.43664(5) -0.38551(4) 0.34259(3)
Zn1C Zn 0.56336(5) 0.38551(4) -0.34259(3)
Zn2_2 Zn 1.5000 0.0000 0.0000
Zn2_3 Zn -0.5000 0.0000 0.0000
C13 C 0.6543(9) -0.1899(5) 0.2036(5)
H5 H 0.7344 -0.1702 0.1740
H6 H 0.6369 -0.2516 0.1934
H7 H 0.6765 -0.1814 0.2588
C14 C 0.4062(9) -0.1515(4) 0.2302(4)
H8 H 0.3328 -0.1862 0.2028
H9 H 0.3672 -0.0946 0.2429
H10 H 0.4377 -0.1813 0.2777
N1 N 0.5276(8) -0.1401(5) 0.1807(4)
H11 H 0.5512 -0.0822 0.1802
H12 H 0.4996 -0.1554 0.1312
loop_
_geom_bond_atom_site_label_1
_geom_bond_atom_site_label_2
_geom_bond_site_symmetry_1
_geom_bond_site_symmetry_2
C1 C2 1_555 1_555
C2 C3 1_555 1_555
C3 H1 1_555 1_555
C4 C3 1_555 1_555
H2 C4 1_555 1_555
C5 C4 1_555 1_555
C6 C5 1_555 1_555
C7 C8 1_555 1_555
C8 C9 1_555 1_555
C9 H3 1_555 1_555
C10 C9 1_555 1_555
H4 C10 1_555 1_555
C11 C10 1_555 1_555
C12 C11 1_555 1_555
C13 H5 1_555 1_555
H6 C13 1_555 1_555
H7 C13 1_555 1_555
C14 H8 1_555 1_555
H9 C14 1_555 1_555
H10 C14 1_555 1_555
N1 C13 1_555 1_555
H11 N1 1_555 1_555
H12 N1 1_555 1_555
O1 C1 1_555 1_555
O2 C1 1_555 1_555
O3 C2 1_555 1_555
O4 C6 1_555 1_555
O5 C6 1_555 1_555
O6 C7 1_555 1_555
O7 C7 1_555 1_555
O8 C8 1_555 1_555
O9 C12 1_555 1_555
O10 C12 1_555 1_555
Zn1 O5 1_555 1_555
Zn2 O1 1_555 1_555
C1B C2B 1_555 1_555
C2B C3B 1_555 1_555
C3B H1B 1_555 1_555
C4B C3B 1_555 1_555
H2B C4B 1_555 1_555
C5B C4B 1_555 1_555
C6B C5B 1_555 1_555
C7B C8B 1_555 1_555
C8B C9B 1_555 1_555
C9B H3B 1_555 1_555
C10B C9B 1_555 1_555
H4B C10B 1_555 1_555
C11B C10B 1_555 1_555
C12B C11B 1_555 1_555
O1B Zn2 1_555 1_555
O2B C1B 1_555 1_555
O2_2 Zn1 1_555 1_555
O2B_2 Zn1B 1_555 1_555
O3B C2B 1_555 1_555
O4B C6B 1_555 1_555
O5B C6B 1_555 1_555
O5_2 Zn2 1_555 1_555
O5B_2 Zn2 1_555 1_555
O6B C7B 1_555 1_555
O6B_2 Zn1 1_555 1_555
O6_2 Zn1B 1_555 1_555
O7B Zn2 1_555 1_555
O8B C8B 1_555 1_555
O9B C12B 1_555 1_555
O9A Zn1 1_555 1_555
O9C Zn1B 1_555 1_555
O10B C12B 1_555 1_555
Zn1B O5B 1_555 1_555
Zn1_2 O2 1_555 1_555
Zn1B_2 O6 1_555 1_555
Zn1A O9 1_555 1_555
Zn1C O9B 1_555 1_555
Zn2_2 O5 1_555 1_555
Zn2_3 O5B 1_555 1_555
C5 O3 1_555 1_555
C11 O8 1_555 1_555
C14 N1 1_555 1_555
O7 Zn2 1_555 1_555
C1B O1B 1_555 1_555
C5B O3B 1_555 1_555
C7B O7B 1_555 1_555
C11B O8B 1_555 1_555
O2B Zn1B_2 1_555 1_555
O5_2 Zn1_2 1_555 1_555
O5B_2 Zn1B_2 1_555 1_555
O6B Zn1_2 1_555 1_555

#END
