
#######################################################################
#
#                 Cambridge Crystallographic Data Centre
#                                CCDC 
#
#######################################################################
#
# If this CIF has been generated from an entry in the Cambridge 
# Structural Database, then it will include bibliographic, chemical, 
# crystal, experimental, refinement or atomic coordinate data resulting 
# from the CCDC's data processing and validation procedures.
#
#######################################################################

data_DASTIB
_symmetry_cell_setting           orthorhombic
_symmetry_space_group_name_H-M   'P c a b'
_symmetry_Int_Tables_number      61
_space_group_name_Hall           '-P 2bc 2ac'
loop_
_symmetry_equiv_pos_site_id
_symmetry_equiv_pos_as_xyz
1 x,y,z
2 -x,1/2-y,1/2+z
3 1/2+x,-y,1/2-z
4 1/2-x,1/2+y,-z
5 -x,-y,-z
6 x,1/2+y,1/2-z
7 1/2-x,y,1/2+z
8 1/2+x,1/2-y,z
_cell_length_a                   25.3228
_cell_length_b                   9.62696
_cell_length_c                   9.43197
_cell_angle_alpha                90
_cell_angle_beta                 90
_cell_angle_gamma                90
_cell_volume                     2299.34
loop_
_atom_site_label
_atom_site_type_symbol
_atom_site_fract_x
_atom_site_fract_y
_atom_site_fract_z
N1 N 0.193770 0.597890 0.543810
Zn1 Zn 0.18297 0.55227 0.7515
N2 N 0.010120 0.698740 1.073550
C1 C 0.051450 0.736360 0.982740
C2 C 0.059110 0.875720 0.947130
C3 C 0.085620 0.635930 0.928820
N3 N 0.099740 0.915260 0.857400
N4 N 0.12701 0.673560 0.838340
C4 C 0.133360 0.814040 0.801670
H1 H 0.033040 0.953640 0.990040
O1 O 0.169420 0.848750 0.718410
H2 H 0.080120 0.528370 0.957050
O2 O -0.026790 0.781920 1.096670
O3 O 0.010130 0.581970 1.131500
N5 N 0.133960 0.828030 0.272670
C5 C 0.169270 0.737960 0.340450
C6 C 0.216140 0.699420 0.273060
C7 C 0.158420 0.687650 0.475900
N6 N 0.251630 0.610370 0.338170
C8 C 0.240200 0.558300 0.472920
H3 H 0.224840 0.739510 0.168930
O4 O 0.271550 0.475710 0.530990
H4 H 0.122500 0.718120 0.528800
O5 O 0.146770 0.885360 0.158840
O6 O 0.089630 0.851110 0.325980
Zn1E Zn 0.18297 1.05227 0.7485
Zn1F Zn 0.31703 0.55227 0.2515
O1E O 0.169420 0.348750 0.781590
N6F N 0.248370 0.610370 0.838170
loop_
_geom_bond_atom_site_label_1
_geom_bond_atom_site_label_2
_geom_bond_site_symmetry_1
_geom_bond_site_symmetry_2
N1 Zn1 1_555 1_555
Zn1 N4 1_555 1_555
N2 C1 1_555 1_555
C1 C2 1_555 1_555
C2 N3 1_555 1_555
C3 C1 1_555 1_555
N3 C4 1_555 1_555
N4 C3 1_555 1_555
C4 N4 1_555 1_555
H1 C2 1_555 1_555
O1 C4 1_555 1_555
H2 C3 1_555 1_555
O2 N2 1_555 1_555
O3 N2 1_555 1_555
N5 C5 1_555 1_555
C5 C6 1_555 1_555
C6 N6 1_555 1_555
C7 N1 1_555 1_555
N6 C8 1_555 1_555
C8 N1 1_555 1_555
H3 C6 1_555 1_555
O4 C8 1_555 1_555
H4 C7 1_555 1_555
O5 N5 1_555 1_555
O6 N5 1_555 1_555
Zn1E O1 1_555 1_555
Zn1F N6 1_555 1_555
O1E Zn1 1_555 1_555
N6F Zn1 1_555 1_555
C5 C7 1_555 1_555

#END
