
#######################################################################
#
#                 Cambridge Crystallographic Data Centre
#                                CCDC 
#
#######################################################################
#
# If this CIF has been generated from an entry in the Cambridge 
# Structural Database, then it will include bibliographic, chemical, 
# crystal, experimental, refinement or atomic coordinate data resulting 
# from the CCDC's data processing and validation procedures.
#
#######################################################################

data_DASVOK
_symmetry_cell_setting           monoclinic
_symmetry_space_group_name_H-M   'C 2/c'
_symmetry_Int_Tables_number      15
_space_group_name_Hall           '-C 2yn'
loop_
_symmetry_equiv_pos_site_id
_symmetry_equiv_pos_as_xyz
1 x,y,z
2 -x,y,1/2-z
3 1/2+x,1/2+y,z
4 1/2-x,1/2+y,1/2-z
5 -x,-y,-z
6 x,-y,1/2+z
7 1/2-x,1/2-y,-z
8 1/2+x,1/2-y,1/2+z
_cell_length_a                   12.918(3)
_cell_length_b                   10.348(2)
_cell_length_c                   20.404(4)
_cell_angle_alpha                90
_cell_angle_beta                 108.09(3)
_cell_angle_gamma                90
_cell_volume                     2592.69
loop_
_atom_site_label
_atom_site_type_symbol
_atom_site_fract_x
_atom_site_fract_y
_atom_site_fract_z
Cu1 Cu 0.10006(2) 0.98497(2) 0.419439(15)
O1 O 0.16687(13) 1.14397(15) 0.40630(9)
O2 O 0.22820(14) 0.91199(16) 0.48432(10)
O3 O 0.30344(14) 1.27761(16) 0.41482(10)
O4 O 0.40596(14) 0.89204(17) 0.52900(11)
C1 C 0.26689(18) 1.1757(2) 0.43127(12)
C2 C 0.3448(2) 1.0962(2) 0.48763(14)
C3 C 0.32355(19) 0.9556(2) 0.49874(12)
O5 O 0.15767(16) 0.90436(15) 0.32737(10)
N1 N 0.15163(16) 0.78622(17) 0.30234(11)
C4 C 0.1869(2) 0.6839(2) 0.34493(13)
C5 C 0.1103(2) 0.7675(2) 0.23360(13)
C6 C 0.17843(19) 0.5600(2) 0.31864(12)
C7 C 0.09921(19) 0.6456(2) 0.20602(13)
C8 C 0.13195(17) 0.5366(2) 0.24804(12)
C9 C 0.11360(17) 0.4045(2) 0.21871(12)
C10 C 0.0708(2) 0.3830(2) 0.14779(13)
C11 C 0.13468(18) 0.2954(2) 0.26069(12)
C12 C 0.10986(18) 0.1728(2) 0.23313(12)
C13 C 0.0490(2) 0.2599(2) 0.12185(13)
N2 N 0.06651(15) 0.15780(17) 0.16476(10)
O6 O 0.04530(13) 0.03826(14) 0.13851(9)
O7 O 0.02111(17) 0.84140(19) 0.44354(13)
H1 H 0.418(2) 1.101(3) 0.4824(15)
H2 H 0.349(2) 1.143(3) 0.5371(16)
H3 H 0.212(2) 0.699(3) 0.3895(15)
H4 H 0.090(2) 0.839(3) 0.2102(15)
H5 H 0.203(2) 0.491(3) 0.3481(16)
H6 H 0.071(2) 0.640(3) 0.1610(15)
H7 H 0.052(3) 0.450(3) 0.1162(18)
H8 H 0.166(2) 0.301(2) 0.3102(14)
H9 H 0.1189(19) 0.101(2) 0.2571(13)
H10 H 0.022(2) 0.239(3) 0.0743(15)
H11 H -0.042(3) 0.832(3) 0.4299(19)
H12 H 0.047(4) 0.779(4) 0.453(2)
Cu1A Cu -0.10006(2) -0.01503(2) 0.080561(15)
O6A O -0.04530(13) 1.03826(14) 0.36149(9)
loop_
_geom_bond_atom_site_label_1
_geom_bond_atom_site_label_2
_geom_bond_site_symmetry_1
_geom_bond_site_symmetry_2
Cu1 O1 1_555 1_555
O1 C1 1_555 1_555
O2 Cu1 1_555 1_555
O3 C1 1_555 1_555
O4 C3 1_555 1_555
C1 C2 1_555 1_555
C2 C3 1_555 1_555
C3 O2 1_555 1_555
O5 Cu1 1_555 1_555
N1 O5 1_555 1_555
C4 N1 1_555 1_555
C5 N1 1_555 1_555
C6 C4 1_555 1_555
C7 C5 1_555 1_555
C8 C6 1_555 1_555
C9 C8 1_555 1_555
C10 C9 1_555 1_555
C11 C9 1_555 1_555
C12 C11 1_555 1_555
C13 C10 1_555 1_555
N2 C12 1_555 1_555
O6 N2 1_555 1_555
O7 Cu1 1_555 1_555
H1 C2 1_555 1_555
H2 C2 1_555 1_555
H3 C4 1_555 1_555
H4 C5 1_555 1_555
H5 C6 1_555 1_555
H6 C7 1_555 1_555
H7 C10 1_555 1_555
H8 C11 1_555 1_555
H9 C12 1_555 1_555
H10 C13 1_555 1_555
H11 O7 1_555 1_555
H12 O7 1_555 1_555
Cu1A O6 1_555 1_555
O6A Cu1 1_555 1_555
C7 C8 1_555 1_555
C13 N2 1_555 1_555

#END
