
#######################################################################
#
#                 Cambridge Crystallographic Data Centre
#                                CCDC 
#
#######################################################################
#
# If this CIF has been generated from an entry in the Cambridge 
# Structural Database, then it will include bibliographic, chemical, 
# crystal, experimental, refinement or atomic coordinate data resulting 
# from the CCDC's data processing and validation procedures.
#
#######################################################################

data_DASWOL01
_symmetry_cell_setting           orthorhombic
_symmetry_space_group_name_H-M   'F d d d'
_symmetry_Int_Tables_number      70
_space_group_name_Hall           '-F 2uv 2vw'
loop_
_symmetry_equiv_pos_site_id
_symmetry_equiv_pos_as_xyz
1 x,y,z
2 3/4-x,3/4-y,z
3 3/4-x,y,3/4-z
4 x,3/4-y,3/4-z
5 x,1/2+y,1/2+z
6 3/4-x,1/4-y,1/2+z
7 3/4-x,1/2+y,1/4-z
8 x,1/4-y,1/4-z
9 1/2+x,y,1/2+z
10 1/4-x,3/4-y,1/2+z
11 1/4-x,y,1/4-z
12 1/2+x,3/4-y,1/4-z
13 1/2+x,1/2+y,z
14 1/4-x,1/4-y,z
15 1/4-x,1/2+y,3/4-z
16 1/2+x,1/4-y,3/4-z
17 -x,-y,-z
18 1/4+x,1/4+y,-z
19 1/4+x,-y,1/4+z
20 -x,1/4+y,1/4+z
21 -x,1/2-y,1/2-z
22 1/4+x,3/4+y,1/2-z
23 1/4+x,1/2-y,3/4+z
24 -x,3/4+y,3/4+z
25 1/2-x,-y,1/2-z
26 3/4+x,1/4+y,1/2-z
27 3/4+x,-y,3/4+z
28 1/2-x,1/4+y,3/4+z
29 1/2-x,1/2-y,-z
30 3/4+x,3/4+y,-z
31 3/4+x,1/2-y,1/4+z
32 1/2-x,3/4+y,1/4+z
_cell_length_a                   22.264(12)
_cell_length_b                   28.623(16)
_cell_length_c                   29.104(15)
_cell_angle_alpha                90
_cell_angle_beta                 90
_cell_angle_gamma                90
_cell_volume                     18546.9
loop_
_atom_site_label
_atom_site_type_symbol
_atom_site_fract_x
_atom_site_fract_y
_atom_site_fract_z
C1 C 0.7199(3) 0.0785(2) 0.7890(2)
C2 C 0.7331(3) 0.1146(2) 0.8252(2)
C3 C 0.7825(3) 0.1100(2) 0.8544(2)
H1 H 0.8060 0.0832 0.8533
C4 C 0.7963(3) 0.1449(3) 0.8847(2)
H2 H 0.8294 0.1416 0.9040
C5 C 0.7613(3) 0.1856(2) 0.8873(2)
C6 C 0.7116(3) 0.1894(2) 0.8580(2)
H3 H 0.6876 0.2159 0.8592
C7 C 0.6980(3) 0.1543(3) 0.8276(2)
H4 H 0.6648 0.1574 0.8084
C8 C 0.7775(3) 0.2239(2) 0.9188(2)
C9 C 1.0492(3) 0.2310(3) 1.0857(2)
C10 C 0.9951(3) 0.2380(3) 1.0559(2)
C11 C 0.9893(3) 0.2128(3) 1.0155(2)
H5 H 1.0191 0.1917 1.0071
C12 C 0.9398(3) 0.2189(3) 0.9878(3)
H6 H 0.9364 0.2020 0.9606
C13 C 0.8951(3) 0.2498(3) 1.0003(2)
C14 C 0.9011(3) 0.2760(3) 1.0407(2)
H7 H 0.8722 0.2980 1.0486
C15 C 0.9507(3) 0.2688(3) 1.0686(2)
H8 H 0.9539 0.2849 1.0962
C16 C 0.8399(3) 0.2546(2) 0.9719(2)
C17 C 0.5933(3) 0.4480(3) 0.9699(3)
C18 C 0.6375(3) 0.4093(3) 0.9638(2)
C19 C 0.6903(4) 0.4079(3) 0.9888(3)
H9 H 0.6996 0.4322 1.0087
C20 C 0.7293(4) 0.3708(3) 0.9846(3)
H10 H 0.7645 0.3703 1.0017
C21 C 0.7162(3) 0.3341(3) 0.9548(2)
C22 C 0.6636(3) 0.3359(3) 0.9299(2)
H11 H 0.6541 0.3117 0.9099
C23 C 0.6248(3) 0.3732(3) 0.9342(2)
H12 H 0.5897 0.3739 0.9169
C24 C 0.7565(3) 0.2936(3) 0.9508(2)
Eu1 Eu 1.195432(14) 0.221669(11) 1.047814(10)
N1 N 0.7405(3) 0.2603(2) 0.9213(2)
N2 N 0.8058(3) 0.2919(2) 0.9775(2)
N3 N 0.8286(3) 0.2195(2) 0.94311(19)
O1 O 0.6815(2) 0.08784(18) 0.75881(17)
O2 O 0.7479(2) 0.04079(17) 0.78882(17)
O3 O 1.0944(2) 0.2112(2) 1.06785(17)
O4 O 1.0467(2) 0.2452(2) 1.12650(16)
O5 O 0.6068(2) 0.48029(19) 0.99713(19)
O6 O 0.5449(2) 0.4454(2) 0.94772(18)
O7 O 1.1898(4) 0.1445(3) 1.0854(3)
H13 H 1.207(3) 0.1454(8) 1.1101(12)
H14 H 1.202(4) 0.1243(3) 1.0677(10)
Eu1A Eu 0.554568(14) 0.528331(11) 1.047814(10)
Eu1J Eu 1.054568(14) 0.221669(11) 1.202186(10)
Eu1O Eu 0.695432(14) 0.028331(11) 0.702186(10)
Eu1Q Eu 0.445432(14) 0.471669(11) 0.952186(10)
Eu1W Eu 0.804568(14) -0.028331(11) 0.797814(10)
O1O O 1.1815(2) 0.16216(18) 0.99119(17)
O2O O 1.2479(2) 0.20921(17) 0.96118(17)
O2S O 1.2521(2) 0.29079(17) 1.03882(17)
O4J O 1.2033(2) 0.2452(2) 1.12350(16)
O5A O 1.1432(2) 0.26971(19) 0.99713(19)
O6CA O 1.2949(2) 0.1954(2) 1.05228(18)
loop_
_geom_bond_atom_site_label_1
_geom_bond_atom_site_label_2
_geom_bond_site_symmetry_1
_geom_bond_site_symmetry_2
C1 C2 1_555 1_555
C2 C3 1_555 1_555
C3 H1 1_555 1_555
C4 C3 1_555 1_555
H2 C4 1_555 1_555
C5 C4 1_555 1_555
C6 C5 1_555 1_555
H3 C6 1_555 1_555
C7 C2 1_555 1_555
H4 C7 1_555 1_555
C8 C5 1_555 1_555
C9 C10 1_555 1_555
C10 C11 1_555 1_555
C11 H5 1_555 1_555
C12 C11 1_555 1_555
H6 C12 1_555 1_555
C13 C12 1_555 1_555
C14 C13 1_555 1_555
H7 C14 1_555 1_555
C15 C10 1_555 1_555
H8 C15 1_555 1_555
C16 C13 1_555 1_555
C17 C18 1_555 1_555
C18 C19 1_555 1_555
C19 H9 1_555 1_555
C20 C19 1_555 1_555
H10 C20 1_555 1_555
C21 C20 1_555 1_555
C22 C21 1_555 1_555
H11 C22 1_555 1_555
C23 C18 1_555 1_555
H12 C23 1_555 1_555
C24 C21 1_555 1_555
Eu1 O3 1_555 1_555
N1 C8 1_555 1_555
N2 C16 1_555 1_555
N3 C8 1_555 1_555
O1 C1 1_555 1_555
O2 C1 1_555 1_555
O3 C9 1_555 1_555
O4 C9 1_555 1_555
O5 C17 1_555 1_555
O6 C17 1_555 1_555
O7 Eu1 1_555 1_555
H13 O7 1_555 1_555
H14 O7 1_555 1_555
Eu1A O5 1_555 1_555
Eu1J O4 1_555 1_555
Eu1O O1 1_555 1_555
Eu1Q O6 1_555 1_555
Eu1W O2 1_555 1_555
O1O Eu1 1_555 1_555
O2O Eu1 1_555 1_555
O2S Eu1 1_555 1_555
O4J Eu1 1_555 1_555
O5A Eu1 1_555 1_555
O6CA Eu1 1_555 1_555
C6 C7 1_555 1_555
C14 C15 1_555 1_555
C16 N3 1_555 1_555
C22 C23 1_555 1_555
C24 N1 1_555 1_555
C24 N2 1_555 1_555
O2 Eu1O 1_555 1_555

#END
