
#######################################################################
#
#                 Cambridge Crystallographic Data Centre
#                                CCDC 
#
#######################################################################
#
# If this CIF has been generated from an entry in the Cambridge 
# Structural Database, then it will include bibliographic, chemical, 
# crystal, experimental, refinement or atomic coordinate data resulting 
# from the CCDC's data processing and validation procedures.
#
#######################################################################

data_DASWOL
_symmetry_cell_setting           orthorhombic
_symmetry_space_group_name_H-M   'F d d d'
_symmetry_Int_Tables_number      70
_space_group_name_Hall           '-F 2uv 2vw'
loop_
_symmetry_equiv_pos_site_id
_symmetry_equiv_pos_as_xyz
1 x,y,z
2 3/4-x,3/4-y,z
3 3/4-x,y,3/4-z
4 x,3/4-y,3/4-z
5 x,1/2+y,1/2+z
6 3/4-x,1/4-y,1/2+z
7 3/4-x,1/2+y,1/4-z
8 x,1/4-y,1/4-z
9 1/2+x,y,1/2+z
10 1/4-x,3/4-y,1/2+z
11 1/4-x,y,1/4-z
12 1/2+x,3/4-y,1/4-z
13 1/2+x,1/2+y,z
14 1/4-x,1/4-y,z
15 1/4-x,1/2+y,3/4-z
16 1/2+x,1/4-y,3/4-z
17 -x,-y,-z
18 1/4+x,1/4+y,-z
19 1/4+x,-y,1/4+z
20 -x,1/4+y,1/4+z
21 -x,1/2-y,1/2-z
22 1/4+x,3/4+y,1/2-z
23 1/4+x,1/2-y,3/4+z
24 -x,3/4+y,3/4+z
25 1/2-x,-y,1/2-z
26 3/4+x,1/4+y,1/2-z
27 3/4+x,-y,3/4+z
28 1/2-x,1/4+y,3/4+z
29 1/2-x,1/2-y,-z
30 3/4+x,3/4+y,-z
31 3/4+x,1/2-y,1/4+z
32 1/2-x,3/4+y,1/4+z
_cell_length_a                   22.252(4)
_cell_length_b                   28.629(5)
_cell_length_c                   29.191(5)
_cell_angle_alpha                90
_cell_angle_beta                 90
_cell_angle_gamma                90
_cell_volume                     18596.2
loop_
_atom_site_label
_atom_site_type_symbol
_atom_site_fract_x
_atom_site_fract_y
_atom_site_fract_z
Eu1 Eu 0.195210(12) 0.221352(8) 0.047205(9)
O1 O 0.1424(2) 0.26962(18) -0.00286(19)
O2 O 0.2051(2) 0.30496(19) -0.05162(18)
O3 O 0.0023(2) 0.70945(14) -0.21116(16)
O4 O 0.0693(2) 0.66169(17) -0.24056(17)
O5 O -0.34450(19) 0.54056(19) 0.06867(15)
O6 O -0.2959(2) 0.50602(17) 0.12700(14)
O7 O 0.1917(4) 0.1420(2) 0.0832(3)
N1 N 0.0090(2) 0.48955(18) -0.07887(19)
N2 N -0.0560(2) 0.45802(19) -0.0221(2)
N3 N -0.0796(2) 0.53046(18) -0.05747(19)
C1 C -0.0068(3) 0.4566(2) -0.0488(2)
C2 C -0.0905(3) 0.4957(2) -0.0277(2)
C3 C -0.0285(3) 0.5261(2) -0.0814(2)
C4 C 0.0334(3) 0.4159(2) -0.0448(2)
C5 C 0.0200(3) 0.3790(3) -0.0158(3)
H1 H -0.0154 0.3795 0.0010
C6 C 0.0584(3) 0.3420(3) -0.0117(3)
H2 H 0.0485 0.3174 0.0077
C7 C 0.1121(3) 0.3408(2) -0.0361(2)
C8 C 0.1254(3) 0.3771(2) -0.0653(2)
H3 H 0.1609 0.3766 -0.0821
C9 C 0.0861(3) 0.4144(2) -0.0698(2)
H4 H 0.0952 0.4386 -0.0899
C10 C 0.1566(3) 0.3022(2) -0.0299(2)
C11 C -0.1456(3) 0.4998(2) 0.0005(2)
C12 C -0.1899(3) 0.5312(2) -0.0117(2)
H5 H -0.1860 0.5486 -0.0384
C13 C -0.2402(3) 0.5370(2) 0.0156(2)
H6 H -0.2704 0.5575 0.0067
C14 C -0.2455(2) 0.5123(2) 0.05608(19)
C15 C -0.2007(3) 0.4811(3) 0.0688(2)
H7 H -0.2038 0.4650 0.0964
C16 C -0.1518(3) 0.4739(2) 0.0407(2)
H8 H -0.1229 0.4518 0.0486
C17 C -0.2993(2) 0.5197(2) 0.08596(19)
C18 C -0.0122(3) 0.5643(2) -0.1129(2)
C19 C -0.0464(3) 0.6054(2) -0.1146(2)
H9 H -0.0785 0.6092 -0.0946
C20 C -0.0329(3) 0.6403(2) -0.1455(2)
H10 H -0.0567 0.6670 -0.1470
C21 C 0.0163(3) 0.63544(18) -0.17430(19)
C22 C 0.0519(3) 0.5957(2) -0.1721(2)
H11 H 0.0852 0.5927 -0.1911
C23 C 0.0374(3) 0.5605(2) -0.1414(2)
H12 H 0.0614 0.5339 -0.1399
C24 C 0.0301(3) 0.67153(19) -0.21030(19)
Eu1BA Eu 0.304790(12) 0.278648(8) -0.047205(9)
Eu1N Eu 0.054790(12) 0.721352(8) -0.297205(9)
Eu1Z Eu -0.054790(12) 0.778648(8) -0.202795(9)
Eu1A Eu -0.445210(12) 0.528648(8) 0.047205(9)
Eu1K Eu -0.304790(12) 0.528648(8) 0.202795(9)
O2BA O 0.2949(2) 0.19504(19) 0.05162(18)
O3N O 0.2477(2) 0.20945(14) -0.03884(16)
O3R O 0.2523(2) 0.29055(14) 0.03884(16)
O4N O 0.1807(2) 0.16169(17) -0.00944(17)
O5A O 0.09450(19) 0.20944(19) 0.06867(15)
O6K O 0.2041(2) 0.24398(17) 0.12300(14)
loop_
_geom_bond_atom_site_label_1
_geom_bond_atom_site_label_2
_geom_bond_site_symmetry_1
_geom_bond_site_symmetry_2
Eu1 O1 1_555 1_555
O1 C10 1_555 1_555
O2 C10 1_555 1_555
O3 C24 1_555 1_555
O4 C24 1_555 1_555
O5 C17 1_555 1_555
O6 C17 1_555 1_555
O7 Eu1 1_555 1_555
N1 C1 1_555 1_555
N2 C1 1_555 1_555
N3 C2 1_555 1_555
C1 C4 1_555 1_555
C2 N2 1_555 1_555
C3 N1 1_555 1_555
C4 C5 1_555 1_555
C5 H1 1_555 1_555
C6 C5 1_555 1_555
H2 C6 1_555 1_555
C7 C6 1_555 1_555
C8 C7 1_555 1_555
H3 C8 1_555 1_555
C9 C4 1_555 1_555
H4 C9 1_555 1_555
C10 C7 1_555 1_555
C11 C2 1_555 1_555
C12 C11 1_555 1_555
H5 C12 1_555 1_555
C13 C12 1_555 1_555
H6 C13 1_555 1_555
C14 C13 1_555 1_555
C15 C14 1_555 1_555
H7 C15 1_555 1_555
C16 C11 1_555 1_555
H8 C16 1_555 1_555
C17 C14 1_555 1_555
C18 C3 1_555 1_555
C19 C18 1_555 1_555
H9 C19 1_555 1_555
C20 C19 1_555 1_555
H10 C20 1_555 1_555
C21 C20 1_555 1_555
C22 C21 1_555 1_555
H11 C22 1_555 1_555
C23 C18 1_555 1_555
H12 C23 1_555 1_555
C24 C21 1_555 1_555
Eu1BA O2 1_555 1_555
Eu1N O3 1_555 1_555
Eu1Z O3 1_555 1_555
Eu1A O5 1_555 1_555
Eu1K O6 1_555 1_555
O2BA Eu1 1_555 1_555
O3N Eu1 1_555 1_555
O3R Eu1 1_555 1_555
O4N Eu1 1_555 1_555
O5A Eu1 1_555 1_555
O6K Eu1 1_555 1_555
O4 Eu1N 1_555 1_555
N3 C3 1_555 1_555
C8 C9 1_555 1_555
C15 C16 1_555 1_555
C22 C23 1_555 1_555
Eu1BA O3N 1_555 1_555
Eu1BA O3R 1_555 1_555

#END
