
#######################################################################
#
#                 Cambridge Crystallographic Data Centre
#                                CCDC 
#
#######################################################################
#
# If this CIF has been generated from an entry in the Cambridge 
# Structural Database, then it will include bibliographic, chemical, 
# crystal, experimental, refinement or atomic coordinate data resulting 
# from the CCDC's data processing and validation procedures.
#
#######################################################################

data_DASXAY
_symmetry_cell_setting           orthorhombic
_symmetry_space_group_name_H-M   'F d d d'
_symmetry_Int_Tables_number      70
_space_group_name_Hall           '-F 2uv 2vw'
loop_
_symmetry_equiv_pos_site_id
_symmetry_equiv_pos_as_xyz
1 x,y,z
2 1/4-x,1/4-y,z
3 x,1/4-y,1/4-z
4 1/4-x,y,1/4-z
5 x,1/2+y,1/2+z
6 1/4-x,3/4-y,1/2+z
7 x,3/4-y,3/4-z
8 1/4-x,1/2+y,3/4-z
9 1/2+x,y,1/2+z
10 3/4-x,1/4-y,1/2+z
11 1/2+x,1/4-y,3/4-z
12 3/4-x,y,3/4-z
13 1/2+x,1/2+y,z
14 3/4-x,3/4-y,z
15 1/2+x,3/4-y,1/4-z
16 3/4-x,1/2+y,1/4-z
17 -x,-y,-z
18 3/4+x,3/4+y,-z
19 -x,3/4+y,3/4+z
20 3/4+x,-y,3/4+z
21 -x,1/2-y,1/2-z
22 3/4+x,1/4+y,1/2-z
23 -x,1/4+y,1/4+z
24 3/4+x,1/2-y,1/4+z
25 1/2-x,-y,1/2-z
26 1/4+x,3/4+y,1/2-z
27 1/2-x,3/4+y,1/4+z
28 1/4+x,-y,1/4+z
29 1/2-x,1/2-y,-z
30 1/4+x,1/4+y,-z
31 1/2-x,1/4+y,3/4+z
32 1/4+x,1/2-y,3/4+z
_cell_length_a                   28.6140(12)
_cell_length_b                   22.2004(7)
_cell_length_c                   29.1229(14)
_cell_angle_alpha                90
_cell_angle_beta                 90
_cell_angle_gamma                90
_cell_volume                     18500.1
loop_
_atom_site_label
_atom_site_type_symbol
_atom_site_fract_x
_atom_site_fract_y
_atom_site_fract_z
Tb1 Tb -0.221508(7) 0.444912(9) 0.297008(7)
O1 O -0.16382(14) 0.43087(18) 0.23998(13)
O2 O 0.23017(14) 0.35640(17) 0.00245(15)
O3 O -0.04069(15) 0.84550(15) -0.06823(12)
O4 O -0.14141(16) 0.4416(2) 0.33117(18)
O5 O -0.21078(13) 0.49810(19) 0.20973(13)
O6 O 0.19396(15) 0.29300(18) 0.05057(14)
O7 O -0.00825(15) 0.79609(17) -0.12726(12)
N1 N 0.01024(16) 0.4907(2) 0.07892(16)
N2 N 0.04183(18) 0.5559(2) 0.02188(17)
N3 N -0.03043(16) 0.5794(2) 0.05745(16)
C1 C -0.02043(18) 0.7997(2) -0.08610(16)
C2 C -0.02627(18) 0.5284(2) 0.08132(17)
C3 C -0.09647(18) 0.4479(2) 0.17212(17)
H1 H -0.0935 0.4148 0.1914
C4 C 0.04354(19) 0.5068(2) 0.04890(18)
C5 C -0.0308(2) 0.6907(2) 0.01225(19)
H2 H -0.0477 0.6870 0.0394
C6 C -0.13635(17) 0.4833(2) 0.17382(16)
C7 C 0.1581(2) 0.4406(3) 0.0113(2)
H3 H 0.1827 0.4500 -0.0083
C8 C -0.06458(18) 0.5117(2) 0.11261(17)
C9 C 0.0840(2) 0.4663(2) 0.04499(18)
C10 C -0.01270(18) 0.7460(2) -0.05601(16)
C11 C 0.0180(2) 0.7008(2) -0.06917(18)
H4 H 0.0335 0.7036 -0.0972
C12 C -0.06092(18) 0.4621(2) 0.14156(18)
H5 H -0.0343 0.4381 0.1404
C13 C -0.14080(18) 0.5323(2) 0.14448(19)
H6 H -0.1677 0.5558 0.1454
C14 C 0.00446(18) 0.5904(2) 0.02812(18)
C15 C 0.1973(2) 0.3424(2) 0.02926(19)
C16 C -0.17285(16) 0.4698(2) 0.20934(16)
C17 C 0.0255(2) 0.6520(2) -0.04102(19)
H7 H 0.0476 0.6232 -0.0491
C18 C -0.0368(2) 0.7409(2) -0.01486(18)
H8 H -0.0569 0.7714 -0.0056
C19 C 0.0856(2) 0.4133(3) 0.0699(2)
H9 H 0.0615 0.4041 0.0901
C20 C 0.1211(2) 0.4798(3) 0.0159(2)
H10 H 0.1209 0.5156 -0.0007
C21 C 0.15886(19) 0.3871(2) 0.03583(18)
C22 C -0.10565(19) 0.5463(2) 0.11412(19)
H11 H -0.1091 0.5789 0.0944
C23 C 0.00013(19) 0.6457(2) -0.00040(18)
C24 C 0.1227(2) 0.3739(2) 0.06531(19)
H12 H 0.1232 0.3384 0.0822
Tb1N Tb 0.278492(7) 0.305088(9) -0.047008(7)
Tb1O Tb -0.028492(7) 0.944912(9) -0.047008(7)
Tb1X Tb -0.278492(7) 0.555088(9) 0.202992(7)
Tb1R Tb 0.221508(7) 0.194912(9) 0.047008(7)
Tb1I Tb -0.028492(7) 0.805088(9) -0.202992(7)
O2N O -0.26983(14) 0.39360(17) 0.24755(15)
O3O O -0.20931(15) 0.34550(15) 0.31823(12)
O5X O -0.28922(13) 0.50190(19) 0.29027(13)
O6V O -0.19396(15) 0.54300(18) 0.30057(14)
O7I O -0.24175(15) 0.45391(17) 0.37274(12)
loop_
_geom_bond_atom_site_label_1
_geom_bond_atom_site_label_2
_geom_bond_site_symmetry_1
_geom_bond_site_symmetry_2
Tb1 O1 1_555 1_555
O1 C16 1_555 1_555
O2 C15 1_555 1_555
O3 C1 1_555 1_555
O4 Tb1 1_555 1_555
O5 Tb1 1_555 1_555
O6 C15 1_555 1_555
O7 C1 1_555 1_555
N1 C2 1_555 1_555
N2 C4 1_555 1_555
N3 C2 1_555 1_555
C1 C10 1_555 1_555
C2 C8 1_555 1_555
C3 H1 1_555 1_555
C4 N1 1_555 1_555
C5 H2 1_555 1_555
C6 C3 1_555 1_555
C7 H3 1_555 1_555
C8 C12 1_555 1_555
C9 C4 1_555 1_555
C10 C11 1_555 1_555
C11 H4 1_555 1_555
C12 C3 1_555 1_555
H5 C12 1_555 1_555
C13 C6 1_555 1_555
H6 C13 1_555 1_555
C14 N2 1_555 1_555
C15 C21 1_555 1_555
C16 O5 1_555 1_555
C17 C11 1_555 1_555
H7 C17 1_555 1_555
C18 C5 1_555 1_555
H8 C18 1_555 1_555
C19 C9 1_555 1_555
H9 C19 1_555 1_555
C20 C7 1_555 1_555
H10 C20 1_555 1_555
C21 C7 1_555 1_555
C22 C8 1_555 1_555
H11 C22 1_555 1_555
C23 C5 1_555 1_555
C24 C19 1_555 1_555
H12 C24 1_555 1_555
Tb1N O2 1_555 1_555
Tb1O O3 1_555 1_555
Tb1X O5 1_555 1_555
Tb1R O6 1_555 1_555
Tb1I O7 1_555 1_555
O2N Tb1 1_555 1_555
O3O Tb1 1_555 1_555
O5X Tb1 1_555 1_555
O6V Tb1 1_555 1_555
O7I Tb1 1_555 1_555
N3 C14 1_555 1_555
C6 C16 1_555 1_555
C9 C20 1_555 1_555
C10 C18 1_555 1_555
C13 C22 1_555 1_555
C14 C23 1_555 1_555
C17 C23 1_555 1_555
C21 C24 1_555 1_555
Tb1X O5X 1_555 1_555

#END
