
#######################################################################
#
#                 Cambridge Crystallographic Data Centre
#                                CCDC 
#
#######################################################################
#
# If this CIF has been generated from an entry in the Cambridge 
# Structural Database, then it will include bibliographic, chemical, 
# crystal, experimental, refinement or atomic coordinate data resulting 
# from the CCDC's data processing and validation procedures.
#
#######################################################################

data_DASXOM
_symmetry_cell_setting           orthorhombic
_symmetry_space_group_name_H-M   'F d d d'
_symmetry_Int_Tables_number      70
_space_group_name_Hall           '-F 2uv 2vw'
loop_
_symmetry_equiv_pos_site_id
_symmetry_equiv_pos_as_xyz
1 x,y,z
2 3/4-x,3/4-y,z
3 3/4-x,y,3/4-z
4 x,3/4-y,3/4-z
5 x,1/2+y,1/2+z
6 3/4-x,1/4-y,1/2+z
7 3/4-x,1/2+y,1/4-z
8 x,1/4-y,1/4-z
9 1/2+x,y,1/2+z
10 1/4-x,3/4-y,1/2+z
11 1/4-x,y,1/4-z
12 1/2+x,3/4-y,1/4-z
13 1/2+x,1/2+y,z
14 1/4-x,1/4-y,z
15 1/4-x,1/2+y,3/4-z
16 1/2+x,1/4-y,3/4-z
17 -x,-y,-z
18 1/4+x,1/4+y,-z
19 1/4+x,-y,1/4+z
20 -x,1/4+y,1/4+z
21 -x,1/2-y,1/2-z
22 1/4+x,3/4+y,1/2-z
23 1/4+x,1/2-y,3/4+z
24 -x,3/4+y,3/4+z
25 1/2-x,-y,1/2-z
26 3/4+x,1/4+y,1/2-z
27 3/4+x,-y,3/4+z
28 1/2-x,1/4+y,3/4+z
29 1/2-x,1/2-y,-z
30 3/4+x,3/4+y,-z
31 3/4+x,1/2-y,1/4+z
32 1/2-x,3/4+y,1/4+z
_cell_length_a                   22.1535(11)
_cell_length_b                   28.595(3)
_cell_length_c                   29.043(3)
_cell_angle_alpha                90
_cell_angle_beta                 90
_cell_angle_gamma                90
_cell_volume                     18398.1
loop_
_atom_site_label
_atom_site_type_symbol
_atom_site_fract_x
_atom_site_fract_y
_atom_site_fract_z
Er1 Er 0.055152(18) 0.528559(14) 0.047195(14)
N1 N 0.0097(4) 0.7608(3) -0.1711(3)
N2 N -0.0557(4) 0.7926(3) -0.2285(3)
N3 N -0.0791(4) 0.7203(3) -0.1925(3)
C1 C 0.0295(5) 0.5763(3) -0.0409(3)
C2 C 0.0168(5) 0.6133(3) -0.0765(3)
C3 C -0.0325(5) 0.6090(3) -0.1061(4)
H1 H -0.0562 0.5822 -0.1055
C4 C -0.0459(5) 0.6447(3) -0.1362(4)
H2 H -0.0784 0.6415 -0.1563
C5 C -0.0118(4) 0.6855(3) -0.1370(3)
C6 C 0.0383(5) 0.6892(4) -0.1081(3)
H3 H 0.0628 0.7156 -0.1093
C7 C 0.0517(5) 0.6532(3) -0.0774(3)
H4 H 0.0842 0.6561 -0.0574
C8 C -0.0282(4) 0.7239(3) -0.1685(3)
C9 C -0.0063(4) 0.7936(4) -0.2010(4)
C10 C 0.0344(5) 0.8343(3) -0.2054(4)
C11 C 0.0875(5) 0.8365(4) -0.1800(4)
H5 H 0.0967 0.8126 -0.1594
C12 C 0.1265(5) 0.8737(4) -0.1850(4)
H6 H 0.1620 0.8745 -0.1679
C13 C 0.1140(4) 0.9094(4) -0.2144(4)
C14 C 0.0602(6) 0.9081(5) -0.2391(5)
H7 H 0.0507 0.9325 -0.2590
C15 C 0.0210(5) 0.8714(4) -0.2345(4)
H8 H -0.0149 0.8712 -0.2511
C16 C 0.1588(5) 0.9475(4) -0.2215(4)
C17 C -0.0903(4) 0.7546(4) -0.2221(4)
C18 C -0.1459(4) 0.7507(4) -0.2507(4)
C19 C -0.1909(5) 0.7197(4) -0.2380(4)
H9 H -0.1870 0.7026 -0.2109
C20 C -0.2411(5) 0.7140(4) -0.2650(4)
H10 H -0.2720 0.6944 -0.2552
C21 C -0.2464(4) 0.7370(3) -0.3063(3)
C22 C -0.2014(5) 0.7680(4) -0.3197(4)
H11 H -0.2046 0.7837 -0.3477
C23 C -0.1518(4) 0.7755(4) -0.2916(4)
H12 H -0.1226 0.7972 -0.3001
C24 C -0.2999(4) 0.7297(3) -0.3366(3)
O1 O 0.0680(4) 0.5849(3) -0.0098(3)
O2 O 0.0010(4) 0.5382(2) -0.0419(3)
O3 O 0.2085(3) 0.9442(3) -0.2006(3)
O4 O 0.1445(3) 0.9805(3) -0.2483(3)
O5 O -0.3464(3) 0.7098(3) -0.3183(2)
O6 O -0.2965(3) 0.7413(3) -0.3779(2)
O7 O 0.0599(5) 0.6080(3) 0.0812(3)
Er1P Er -0.055152(18) 0.471441(14) -0.047195(14)
Er1V Er 0.305152(18) 0.971441(14) -0.202805(14)
Er1N Er 0.194848(18) 1.028559(14) -0.297195(14)
Er1O Er -0.444848(18) 0.721441(14) -0.297195(14)
Er1E Er -0.305152(18) 0.721441(14) -0.452805(14)
O2P O -0.0010(4) 0.4618(2) 0.0419(3)
O3DA O -0.0415(3) 0.5558(3) 0.0494(3)
O4N O 0.1055(3) 0.4805(3) -0.0017(3)
O5O O 0.1536(3) 0.5402(3) 0.0683(2)
O6E O 0.0465(3) 0.5087(3) 0.1221(2)
loop_
_geom_bond_atom_site_label_1
_geom_bond_atom_site_label_2
_geom_bond_site_symmetry_1
_geom_bond_site_symmetry_2
Er1 O1 1_555 1_555
N1 C8 1_555 1_555
N2 C9 1_555 1_555
N3 C8 1_555 1_555
C1 C2 1_555 1_555
C2 C3 1_555 1_555
C3 H1 1_555 1_555
C4 C3 1_555 1_555
H2 C4 1_555 1_555
C5 C4 1_555 1_555
C6 C5 1_555 1_555
H3 C6 1_555 1_555
C7 C2 1_555 1_555
H4 C7 1_555 1_555
C8 C5 1_555 1_555
C9 N1 1_555 1_555
C10 C9 1_555 1_555
C11 C10 1_555 1_555
H5 C11 1_555 1_555
C12 C11 1_555 1_555
H6 C12 1_555 1_555
C13 C12 1_555 1_555
C14 C13 1_555 1_555
H7 C14 1_555 1_555
C15 C10 1_555 1_555
H8 C15 1_555 1_555
C16 C13 1_555 1_555
C17 N2 1_555 1_555
C18 C17 1_555 1_555
C19 C18 1_555 1_555
H9 C19 1_555 1_555
C20 C19 1_555 1_555
H10 C20 1_555 1_555
C21 C20 1_555 1_555
C22 C21 1_555 1_555
H11 C22 1_555 1_555
C23 C18 1_555 1_555
H12 C23 1_555 1_555
C24 C21 1_555 1_555
O1 C1 1_555 1_555
O2 Er1 1_555 1_555
O3 C16 1_555 1_555
O4 C16 1_555 1_555
O5 C24 1_555 1_555
O6 C24 1_555 1_555
O7 Er1 1_555 1_555
Er1P O2 1_555 1_555
Er1V O3 1_555 1_555
Er1N O4 1_555 1_555
Er1O O5 1_555 1_555
Er1E O6 1_555 1_555
O2P Er1 1_555 1_555
O3DA Er1 1_555 1_555
O4N Er1 1_555 1_555
O5O Er1 1_555 1_555
O6E Er1 1_555 1_555
N3 C17 1_555 1_555
C1 O2 1_555 1_555
C6 C7 1_555 1_555
C14 C15 1_555 1_555
C22 C23 1_555 1_555
Er1P O2P 1_555 1_555

#END
