
#######################################################################
#
#                 Cambridge Crystallographic Data Centre
#                                CCDC 
#
#######################################################################
#
# If this CIF has been generated from an entry in the Cambridge 
# Structural Database, then it will include bibliographic, chemical, 
# crystal, experimental, refinement or atomic coordinate data resulting 
# from the CCDC's data processing and validation procedures.
#
#######################################################################

data_DASXEC
_symmetry_cell_setting           orthorhombic
_symmetry_space_group_name_H-M   'F d d d'
_symmetry_Int_Tables_number      70
_space_group_name_Hall           '-F 2uv 2vw'
loop_
_symmetry_equiv_pos_site_id
_symmetry_equiv_pos_as_xyz
1 x,y,z
2 3/4-x,3/4-y,z
3 3/4-x,y,3/4-z
4 x,3/4-y,3/4-z
5 x,1/2+y,1/2+z
6 3/4-x,1/4-y,1/2+z
7 3/4-x,1/2+y,1/4-z
8 x,1/4-y,1/4-z
9 1/2+x,y,1/2+z
10 1/4-x,3/4-y,1/2+z
11 1/4-x,y,1/4-z
12 1/2+x,3/4-y,1/4-z
13 1/2+x,1/2+y,z
14 1/4-x,1/4-y,z
15 1/4-x,1/2+y,3/4-z
16 1/2+x,1/4-y,3/4-z
17 -x,-y,-z
18 1/4+x,1/4+y,-z
19 1/4+x,-y,1/4+z
20 -x,1/4+y,1/4+z
21 -x,1/2-y,1/2-z
22 1/4+x,3/4+y,1/2-z
23 1/4+x,1/2-y,3/4+z
24 -x,3/4+y,3/4+z
25 1/2-x,-y,1/2-z
26 3/4+x,1/4+y,1/2-z
27 3/4+x,-y,3/4+z
28 1/2-x,1/4+y,3/4+z
29 1/2-x,1/2-y,-z
30 3/4+x,3/4+y,-z
31 3/4+x,1/2-y,1/4+z
32 1/2-x,3/4+y,1/4+z
_cell_length_a                   22.262(9)
_cell_length_b                   28.637(11)
_cell_length_c                   29.118(11)
_cell_angle_alpha                90
_cell_angle_beta                 90
_cell_angle_gamma                90
_cell_volume                     18563.2
loop_
_atom_site_label
_atom_site_type_symbol
_atom_site_fract_x
_atom_site_fract_y
_atom_site_fract_z
Dy1 Dy 0.305025(14) 0.471392(10) 0.297486(11)
N1 N 0.4905(3) 0.7391(2) 0.1709(2)
N2 N 0.5555(3) 0.7076(2) 0.2279(3)
N3 N 0.5795(3) 0.7800(2) 0.1924(2)
O1 O 0.3562(3) 0.5191(2) 0.2477(2)
O2 O 0.2927(3) 0.5551(2) 0.1990(2)
O3 O 0.4992(3) 0.96070(18) 0.0402(2)
O4 O 0.4314(3) 0.9134(2) 0.0089(2)
O5 O 0.8456(2) 0.7894(2) 0.3182(2)
O6 O 0.7962(3) 0.7562(2) 0.37776(18)
O7 O 0.3103(4) 0.3938(3) 0.3340(4)
C1 C 0.3421(4) 0.5518(3) 0.2202(3)
C2 C 0.3869(4) 0.5902(3) 0.2140(3)
C3 C 0.3739(4) 0.6268(3) 0.1846(3)
H1 H 0.3385 0.6262 0.1676
C4 C 0.4126(4) 0.6642(3) 0.1802(3)
H2 H 0.4032 0.6886 0.1604
C5 C 0.4656(4) 0.6654(3) 0.2052(3)
C6 C 0.4798(4) 0.6285(3) 0.2343(3)
H3 H 0.5157 0.6286 0.2507
C7 C 0.4402(4) 0.5917(3) 0.2386(4)
H4 H 0.4495 0.5674 0.2586
C8 C 0.4706(4) 0.9225(2) 0.0401(3)
C9 C 0.4840(3) 0.8859(2) 0.0756(3)
C10 C 0.4479(3) 0.8464(2) 0.0771(3)
H5 H 0.4147 0.8439 0.0578
C11 C 0.4621(4) 0.8104(3) 0.1079(3)
H6 H 0.4384 0.7837 0.1089
C12 C 0.5117(3) 0.8147(3) 0.1371(3)
C13 C 0.5468(4) 0.8552(3) 0.1352(3)
H7 H 0.5799 0.8582 0.1545
C14 C 0.5328(4) 0.8904(3) 0.1050(3)
H8 H 0.5561 0.9174 0.1042
C15 C 0.7997(3) 0.7691(3) 0.3366(3)
C16 C 0.7460(3) 0.7624(3) 0.3062(2)
C17 C 0.7408(4) 0.7865(3) 0.2658(3)
H9 H 0.7710 0.8071 0.2568
C18 C 0.6900(4) 0.7803(3) 0.2379(3)
H10 H 0.6863 0.7971 0.2107
C19 C 0.6456(3) 0.7493(3) 0.2508(3)
C20 C 0.6516(4) 0.7234(3) 0.2912(3)
H11 H 0.6225 0.7015 0.2993
C21 C 0.7012(4) 0.7306(3) 0.3191(3)
H12 H 0.7047 0.7143 0.3466
C22 C 0.5066(3) 0.7058(3) 0.2010(3)
C23 C 0.5278(3) 0.7759(2) 0.1686(3)
C24 C 0.5898(3) 0.7448(3) 0.2219(3)
Dy1X Dy 0.194975(14) 0.528608(10) 0.202514(11)
Dy1F Dy 0.444975(14) 0.971392(10) -0.047486(11)
Dy1V Dy 0.555025(14) 1.028608(10) 0.047486(11)
Dy1M Dy 0.944975(14) 0.778608(10) 0.297486(11)
Dy1O Dy 0.805025(14) 0.778608(10) 0.452514(11)
O2X O 0.2073(3) 0.4449(2) 0.3010(2)
O3F O 0.2508(3) 0.46070(18) 0.2098(2)
O3DA O 0.2492(3) 0.53930(18) 0.2902(2)
O4F O 0.3186(3) 0.4134(2) 0.2411(2)
O5M O 0.4044(2) 0.4606(2) 0.3182(2)
O6O O 0.2962(3) 0.4938(2) 0.37224(18)
loop_
_geom_bond_atom_site_label_1
_geom_bond_atom_site_label_2
_geom_bond_site_symmetry_1
_geom_bond_site_symmetry_2
Dy1 O1 1_555 1_555
N1 C22 1_555 1_555
N2 C22 1_555 1_555
N3 C23 1_555 1_555
O1 C1 1_555 1_555
O2 C1 1_555 1_555
O3 C8 1_555 1_555
O4 C8 1_555 1_555
O5 C15 1_555 1_555
O6 C15 1_555 1_555
O7 Dy1 1_555 1_555
C1 C2 1_555 1_555
C2 C3 1_555 1_555
C3 H1 1_555 1_555
C4 C3 1_555 1_555
H2 C4 1_555 1_555
C5 C4 1_555 1_555
C6 C5 1_555 1_555
H3 C6 1_555 1_555
C7 C2 1_555 1_555
H4 C7 1_555 1_555
C8 C9 1_555 1_555
C9 C10 1_555 1_555
C10 H5 1_555 1_555
C11 C10 1_555 1_555
H6 C11 1_555 1_555
C12 C11 1_555 1_555
C13 C12 1_555 1_555
H7 C13 1_555 1_555
C14 C9 1_555 1_555
H8 C14 1_555 1_555
C15 C16 1_555 1_555
C16 C17 1_555 1_555
C17 H9 1_555 1_555
C18 C17 1_555 1_555
H10 C18 1_555 1_555
C19 C18 1_555 1_555
C20 C19 1_555 1_555
H11 C20 1_555 1_555
C21 C16 1_555 1_555
H12 C21 1_555 1_555
C22 C5 1_555 1_555
C23 N1 1_555 1_555
C24 N2 1_555 1_555
Dy1X O2 1_555 1_555
Dy1F O3 1_555 1_555
Dy1V O3 1_555 1_555
Dy1M O5 1_555 1_555
Dy1O O6 1_555 1_555
O2X Dy1 1_555 1_555
O3F Dy1 1_555 1_555
O3DA Dy1 1_555 1_555
O4F Dy1 1_555 1_555
O5M Dy1 1_555 1_555
O6O Dy1 1_555 1_555
N3 C24 1_555 1_555
O4 Dy1F 1_555 1_555
C6 C7 1_555 1_555
C12 C23 1_555 1_555
C13 C14 1_555 1_555
C19 C24 1_555 1_555
C20 C21 1_555 1_555
Dy1X O3F 1_555 1_555
Dy1X O3DA 1_555 1_555

#END
