
#######################################################################
#
#                 Cambridge Crystallographic Data Centre
#                                CCDC 
#
#######################################################################
#
# If this CIF has been generated from an entry in the Cambridge 
# Structural Database, then it will include bibliographic, chemical, 
# crystal, experimental, refinement or atomic coordinate data resulting 
# from the CCDC's data processing and validation procedures.
#
#######################################################################

data_DATGEM
_symmetry_cell_setting           triclinic
_symmetry_space_group_name_H-M   'P -1'
_symmetry_Int_Tables_number      2
_space_group_name_Hall           '-P 1'
loop_
_symmetry_equiv_pos_site_id
_symmetry_equiv_pos_as_xyz
1 x,y,z
2 -x,-y,-z
_cell_length_a                   9.9223(17)
_cell_length_b                   10.0790(17)
_cell_length_c                   10.9222(18)
_cell_angle_alpha                111.266(18)
_cell_angle_beta                 111.231(18)
_cell_angle_gamma                90.15(2)
_cell_volume                     937.478
loop_
_atom_site_label
_atom_site_type_symbol
_atom_site_fract_x
_atom_site_fract_y
_atom_site_fract_z
Ag1 Ag 0.32399(4) 0.20568(4) 0.99816(3)
C1 C 0.2706(4) -0.0537(5) 0.6020(4)
H1 H 0.3586 0.0001 0.6240
C2 C 0.2453(4) -0.0847(4) 0.7067(3)
C3 C 0.1642(5) -0.1036(5) 0.4648(4)
H2 H 0.1813 -0.0840 0.3944
C4 C 0.0327(4) -0.1822(4) 0.4319(4)
C5 C 0.0084(5) -0.2150(5) 0.5364(4)
H3 H -0.0790 -0.2698 0.5145
C6 C 0.1151(5) -0.1654(5) 0.6728(4)
H4 H 0.0988 -0.1868 0.7428
C7 C -0.0784(5) -0.2243(5) 0.2926(4)
C8 C 0.2238(4) 0.2712(4) 1.2692(4)
C9 C 0.3229(5) 0.2304(4) 1.3722(4)
H5 H 0.3449 0.1370 1.3462
C10 C 0.3888(4) 0.3262(5) 1.5118(4)
H6 H 0.4541 0.2973 1.5798
C11 C 0.3576(4) 0.4658(4) 1.5507(3)
C12 C 0.2580(5) 0.5075(4) 1.4488(4)
H7 H 0.2360 0.6008 1.4750
C13 C 0.1915(4) 0.4105(5) 1.3087(4)
H8 H 0.1251 0.4387 1.2409
C14 C 0.4314(4) 0.5690(5) 1.6940(4)
N1 N 0.3503(4) -0.0273(4) 0.8478(3)
H9 H 0.4396 -0.0210 0.8450
H10 H 0.3470 -0.0897 0.8886
N2 N -0.1677(5) -0.2542(5) 0.1814(4)
N3 N 0.1641(4) 0.1754(4) 1.1256(3)
H11 H 0.1571 0.0843 1.1203
H12 H 0.0736 0.1923 1.0826
N4 N 0.4933(4) 0.6520(5) 1.8067(4)
Ag1A Ag -0.32399(4) -0.20568(4) 0.00184(3)
Ag1A_2 Ag 0.67601(4) 0.79432(4) 2.00184(3)
N2A N 0.1677(5) 0.2542(5) 0.8186(4)
N4A N 0.5067(4) 0.3480(5) 1.1933(4)
C15 C 0.2533(7) -0.3716(6) 1.0295(7)
S1 S 0.28278(12) -0.18136(12) 1.13099(11)
O1 O 0.1391(4) -0.1437(5) 1.1097(5)
O2 O 0.3685(5) -0.1630(5) 1.2757(4)
O3 O 0.3625(6) -0.1208(5) 1.0724(5)
F1 F 0.1804(6) -0.4001(5) 0.8909(4)
F2 F 0.3765(6) -0.4223(5) 1.0414(6)
F3 F 0.1802(9) -0.4428(5) 1.0664(7)
loop_
_geom_bond_atom_site_label_1
_geom_bond_atom_site_label_2
_geom_bond_site_symmetry_1
_geom_bond_site_symmetry_2
Ag1 N1 1_555 1_555
C1 H1 1_555 1_555
C2 C1 1_555 1_555
C3 C1 1_555 1_555
H2 C3 1_555 1_555
C4 C3 1_555 1_555
C5 C4 1_555 1_555
H3 C5 1_555 1_555
C6 C2 1_555 1_555
H4 C6 1_555 1_555
C7 C4 1_555 1_555
C8 C9 1_555 1_555
C9 H5 1_555 1_555
C10 C9 1_555 1_555
H6 C10 1_555 1_555
C11 C10 1_555 1_555
C12 C11 1_555 1_555
H7 C12 1_555 1_555
C13 C8 1_555 1_555
H8 C13 1_555 1_555
C14 C11 1_555 1_555
C15 S1 1_555 1_555
S1 O1 1_555 1_555
N1 C2 1_555 1_555
H9 N1 1_555 1_555
H10 N1 1_555 1_555
N2 C7 1_555 1_555
N3 Ag1 1_555 1_555
H11 N3 1_555 1_555
H12 N3 1_555 1_555
N4 C14 1_555 1_555
O2 S1 1_555 1_555
O3 S1 1_555 1_555
F1 C15 1_555 1_555
F2 C15 1_555 1_555
F3 C15 1_555 1_555
Ag1A N2 1_555 1_555
Ag1A_2 N4 1_555 1_555
N2A Ag1 1_555 1_555
N4A Ag1 1_555 1_555
C5 C6 1_555 1_555
C8 N3 1_555 1_555
C12 C13 1_555 1_555

#END
