
#######################################################################
#
#                 Cambridge Crystallographic Data Centre
#                                CCDC 
#
#######################################################################
#
# If this CIF has been generated from an entry in the Cambridge 
# Structural Database, then it will include bibliographic, chemical, 
# crystal, experimental, refinement or atomic coordinate data resulting 
# from the CCDC's data processing and validation procedures.
#
#######################################################################

data_DATHEN
_symmetry_cell_setting           monoclinic
_symmetry_space_group_name_H-M   'C 2/c'
_symmetry_Int_Tables_number      15
_space_group_name_Hall           '-C 2yn'
loop_
_symmetry_equiv_pos_site_id
_symmetry_equiv_pos_as_xyz
1 x,y,z
2 -x,y,1/2-z
3 1/2+x,1/2+y,z
4 1/2-x,1/2+y,1/2-z
5 -x,-y,-z
6 x,-y,1/2+z
7 1/2-x,1/2-y,-z
8 1/2+x,1/2-y,1/2+z
_cell_length_a                   33.595(3)
_cell_length_b                   9.1560(7)
_cell_length_c                   13.0325(10)
_cell_angle_alpha                90
_cell_angle_beta                 92.0960(10)
_cell_angle_gamma                90
_cell_volume                     4006.06
loop_
_atom_site_label
_atom_site_type_symbol
_atom_site_fract_x
_atom_site_fract_y
_atom_site_fract_z
O13 O 0.47333(12) 0.1761(5) 0.6033(3)
H5 H 0.478(2) 0.264(3) 0.589(5)
H6 H 0.477(2) 0.145(8) 0.664(2)
Y1 Y 0.611533(8) 0.07327(3) 0.62059(2)
Y2 Y 0.5000 0.62423(4) 0.7500
O1 O 0.60093(7) -0.0397(2) 0.77697(15)
O2 O 0.60820(7) -0.0715(2) 0.94363(16)
O3 O 0.67402(7) -0.0167(3) 1.07910(17)
O4 O 0.72741(12) 0.1192(6) 1.0695(3)
O5 O 0.57218(7) 0.2350(2) 0.71514(18)
O6 O 0.54783(8) 0.4507(3) 0.75493(19)
O7 O 0.55242(7) 0.7336(3) 0.65952(19)
O8 O 0.60482(7) 0.8244(2) 0.58138(17)
O9 O 0.5035(3) 0.5056(8) 0.9165(6)
O11 O 0.54295(8) 0.0384(3) 0.5718(3)
H1 H 0.5348(6) -0.034(4) 0.538(4)
H2 H 0.5244(5) 0.075(5) 0.604(3)
O12 O 0.46774(8) 0.8117(3) 0.6543(2)
H3 H 0.4492(10) 0.860(4) 0.6802(16)
H4 H 0.4625(11) 0.801(4) 0.5913(10)
N1 N 0.65814(8) 0.1618(3) 0.76738(19)
N2 N 0.70670(9) 0.2194(4) 0.8779(2)
H7 H 0.7285(8) 0.266(4) 0.899(3)
N3 N 0.61731(8) 0.3375(3) 0.56708(19)
N4 N 0.62681(9) 0.5599(3) 0.5121(2)
H8 H 0.6359(12) 0.637(3) 0.480(3)
C1 C 0.61878(9) -0.0138(3) 0.8628(2)
C2 C 0.65278(9) 0.0876(3) 0.8587(2)
C3 C 0.68326(10) 0.1228(4) 0.9288(2)
C4 C 0.69569(11) 0.0723(5) 1.0347(3)
C5 C 0.69111(10) 0.2400(4) 0.7820(3)
C6 C 0.71000(12) 0.3385(5) 0.7063(3)
H9 H 0.7145 0.4332 0.7380
H10 H 0.6916 0.3523 0.6480
C7 C 0.74751(18) 0.2842(8) 0.6695(5)
H11 H 0.7580 0.3526 0.6217
H12 H 0.7662 0.2722 0.7265
H13 H 0.7432 0.1918 0.6361
C8 C 0.56888(9) 0.3704(3) 0.7018(2)
C9 C 0.59312(9) 0.4333(3) 0.6195(2)
C10 C 0.59855(10) 0.5727(3) 0.5852(2)
C11 C 0.58365(9) 0.7204(3) 0.6121(2)
C12 C 0.63708(10) 0.4184(4) 0.5022(3)
C13 C 0.66590(11) 0.3661(4) 0.4259(3)
H14 H 0.6729 0.2653 0.4406
H15 H 0.6900 0.4242 0.4317
C14 C 0.64827(13) 0.3774(5) 0.3176(3)
H16 H 0.6673 0.3430 0.2700
H17 H 0.6418 0.4774 0.3026
H18 H 0.6246 0.3189 0.3116
C15 C 0.4983(4) 0.5288(8) 1.0096(6)
H19 H 0.4982 0.6251 1.0322
Y1A Y 0.388467(8) 0.07327(3) 0.87941(2)
Y1E Y 0.611533(8) -0.07327(3) 1.12059(2)
Y1_2 Y 0.611533(8) 1.07327(3) 0.62059(2)
Y1A_2 Y 0.388467(8) 1.07327(3) 0.87941(2)
Y1E_2 Y 0.611533(8) -0.07327(3) 0.12059(2)
Y2D Y 0.5000 0.37577(4) 1.2500
O1E O 0.60093(7) 0.0397(2) 0.27697(15)
O1A O 0.39907(7) -0.0397(2) 0.72303(15)
O2E O 0.60820(7) 0.0715(2) 0.44363(16)
O2D O 0.39180(7) 0.0715(2) 1.05637(16)
O3E O 0.67402(7) 0.0167(3) 0.57910(17)
O3D O 0.32598(7) 0.0167(3) 0.92090(17)
O4E O 0.72741(12) -0.1192(6) 0.5695(3)
O5A O 0.42782(7) 0.2350(2) 0.78486(18)
O6A O 0.45217(8) 0.4507(3) 0.74507(19)
O7A O 0.44758(7) 0.7336(3) 0.84048(19)
O8A O 0.39518(7) 0.8244(2) 0.91862(17)
O8_2 O 0.60482(7) -0.1756(2) 0.58138(17)
O8A_2 O 0.39518(7) -0.1756(2) 0.91862(17)
O9D O 0.4965(3) 0.4944(8) 1.0835(6)
O9A O 0.4965(3) 0.5056(8) 0.5835(6)
O11A O 0.45705(8) 0.0384(3) 0.9282(3)
H1A H 0.4652(6) -0.034(4) 0.962(4)
H2A H 0.4756(5) 0.075(5) 0.896(3)
O12A O 0.53226(8) 0.8117(3) 0.8457(2)
H3A H 0.5508(10) 0.860(4) 0.8198(16)
H4A H 0.5375(11) 0.801(4) 0.9087(10)
N1E N 0.65814(8) -0.1618(3) 0.26738(19)
N1A N 0.34186(8) 0.1618(3) 0.73262(19)
N2E N 0.70670(9) -0.2194(4) 0.3779(2)
H7E H 0.7285(8) -0.266(4) 0.399(3)
N3A N 0.38269(8) 0.3375(3) 0.93292(19)
N4A N 0.37319(9) 0.5599(3) 0.9879(2)
H8A H 0.3641(12) 0.637(3) 1.020(3)
C1E C 0.61878(9) 0.0138(3) 0.3628(2)
C2E C 0.65278(9) -0.0876(3) 0.3587(2)
C3E C 0.68326(10) -0.1228(4) 0.4288(2)
C4E C 0.69569(11) -0.0723(5) 0.5347(3)
C5E C 0.69111(10) -0.2400(4) 0.2820(3)
C6E C 0.71000(12) -0.3385(5) 0.2063(3)
H9E H 0.7145 -0.4332 0.2380
H10E H 0.6916 -0.3523 0.1480
C7E C 0.74751(18) -0.2842(8) 0.1695(5)
H11E H 0.7580 -0.3526 0.1217
H12E H 0.7662 -0.2722 0.2265
H13E H 0.7432 -0.1918 0.1361
C8A C 0.43112(9) 0.3704(3) 0.7982(2)
C9A C 0.40688(9) 0.4333(3) 0.8805(2)
C10A C 0.40145(10) 0.5727(3) 0.9148(2)
C11A C 0.41635(9) 0.7204(3) 0.8879(2)
C12A C 0.36292(10) 0.4184(4) 0.9978(3)
C13A C 0.33410(11) 0.3661(4) 1.0741(3)
H14A H 0.3271 0.2653 1.0594
H15A H 0.3100 0.4242 1.0683
C14A C 0.35173(13) 0.3774(5) 1.1824(3)
H16A H 0.3327 0.3430 1.2300
H17A H 0.3582 0.4774 1.1974
H18A H 0.3754 0.3189 1.1884
C15D C 0.5017(4) 0.4712(8) 0.9904(6)
H19D H 0.5018 0.3749 0.9678
O10? O 0.4934(3) 0.4304(8) 1.0736(6)
loop_
_geom_bond_atom_site_label_1
_geom_bond_atom_site_label_2
_geom_bond_site_symmetry_1
_geom_bond_site_symmetry_2
Y1 O1 1_555 1_555
Y2 O6 1_555 1_555
O1 C1 1_555 1_555
O2 C1 1_555 1_555
O3 C4 1_555 1_555
O4 C4 1_555 1_555
O5 Y1 1_555 1_555
O6 C8 1_555 1_555
O7 Y2 1_555 1_555
O8 C11 1_555 1_555
O9 Y2 1_555 1_555
O11 Y1 1_555 1_555
H1 O11 1_555 1_555
H2 O11 1_555 1_555
O12 Y2 1_555 1_555
H3 O12 1_555 1_555
H4 O12 1_555 1_555
O13 H5 1_555 1_555
H6 O13 1_555 1_555
N1 Y1 1_555 1_555
N2 H7 1_555 1_555
N3 Y1 1_555 1_555
N4 H8 1_555 1_555
C1 C2 1_555 1_555
C2 N1 1_555 1_555
C3 N2 1_555 1_555
C4 C3 1_555 1_555
C5 N1 1_555 1_555
C6 C5 1_555 1_555
H9 C6 1_555 1_555
H10 C6 1_555 1_555
C7 C6 1_555 1_555
H11 C7 1_555 1_555
H12 C7 1_555 1_555
H13 C7 1_555 1_555
C8 O5 1_555 1_555
C9 N3 1_555 1_555
C10 N4 1_555 1_555
C11 O7 1_555 1_555
C12 N3 1_555 1_555
C13 C12 1_555 1_555
H14 C13 1_555 1_555
H15 C13 1_555 1_555
C14 C13 1_555 1_555
H16 C14 1_555 1_555
H17 C14 1_555 1_555
H18 C14 1_555 1_555
C15 O9 1_555 1_555
H19 C15 1_555 1_555
Y1A O1A 1_555 1_555
Y1E O2 1_555 1_555
Y1_2 O8 1_555 1_555
Y1A_2 O8A 1_555 1_555
Y1E_2 O1E 1_555 1_555
Y2D O9D 1_555 1_555
O1E C1E 1_555 1_555
O2E Y1 1_555 1_555
O2D Y1A 1_555 1_555
O3E Y1 1_555 1_555
O3D Y1A 1_555 1_555
O4E C4E 1_555 1_555
O5A Y1A 1_555 1_555
O6A Y2 1_555 1_555
O7A Y2 1_555 1_555
O8A C11A 1_555 1_555
O8_2 Y1 1_555 1_555
O8A_2 Y1A 1_555 1_555
O9D C15 1_555 1_555
O9A Y2 1_555 1_555
O11A Y1A 1_555 1_555
H1A O11A 1_555 1_555
H2A O11A 1_555 1_555
O12A Y2 1_555 1_555
H3A O12A 1_555 1_555
H4A O12A 1_555 1_555
N1E Y1E_2 1_555 1_555
N1A Y1A 1_555 1_555
N2E H7E 1_555 1_555
N3A Y1A 1_555 1_555
N4A H8A 1_555 1_555
C1E O2E 1_555 1_555
C2E N1E 1_555 1_555
C3E N2E 1_555 1_555
C4E O3E 1_555 1_555
C5E N1E 1_555 1_555
C6E C5E 1_555 1_555
H9E C6E 1_555 1_555
H10E C6E 1_555 1_555
C7E C6E 1_555 1_555
H11E C7E 1_555 1_555
H12E C7E 1_555 1_555
H13E C7E 1_555 1_555
C8A O5A 1_555 1_555
C9A N3A 1_555 1_555
C10A N4A 1_555 1_555
C11A O7A 1_555 1_555
C12A N3A 1_555 1_555
C13A C12A 1_555 1_555
H14A C13A 1_555 1_555
H15A C13A 1_555 1_555
C14A C13A 1_555 1_555
H16A C14A 1_555 1_555
H17A C14A 1_555 1_555
H18A C14A 1_555 1_555
C15D O9 1_555 1_555
H19D C15D 1_555 1_555
O3 Y1E 1_555 1_555
N2 C5 1_555 1_555
N4 C12 1_555 1_555
C2 C3 1_555 1_555
C8 C9 1_555 1_555
C9 C10 1_555 1_555
C10 C11 1_555 1_555
C15 C15D 1_555 1_555
O6A C8A 1_555 1_555
O9D C15D 1_555 1_555
N2E C5E 1_555 1_555
N4A C12A 1_555 1_555
C1E C2E 1_555 1_555
C2E C3E 1_555 1_555
C3E C4E 1_555 1_555
C8A C9A 1_555 1_555
C9A C10A 1_555 1_555
C10A C11A 1_555 1_555

#END
