
#######################################################################
#
#                 Cambridge Crystallographic Data Centre
#                                CCDC 
#
#######################################################################
#
# If this CIF has been generated from an entry in the Cambridge 
# Structural Database, then it will include bibliographic, chemical, 
# crystal, experimental, refinement or atomic coordinate data resulting 
# from the CCDC's data processing and validation procedures.
#
#######################################################################

data_DATJOZ
_symmetry_cell_setting           triclinic
_symmetry_space_group_name_H-M   'P -1'
_symmetry_Int_Tables_number      2
_space_group_name_Hall           '-P 1'
loop_
_symmetry_equiv_pos_site_id
_symmetry_equiv_pos_as_xyz
1 x,y,z
2 -x,-y,-z
_cell_length_a                   9.7697(4)
_cell_length_b                   14.8807(6)
_cell_length_c                   18.5813(8)
_cell_angle_alpha                90.600(2)
_cell_angle_beta                 102.707(2)
_cell_angle_gamma                104.455(2)
_cell_volume                     2545.65
loop_
_atom_site_label
_atom_site_type_symbol
_atom_site_fract_x
_atom_site_fract_y
_atom_site_fract_z
Ag1 Ag 1.0000 1.0000 1.0000
Ag2 Ag 0.24316(2) -0.002152(13) 0.490043(15)
Ag3 Ag -0.5000 -1.0000 0.0000
O1 O 0.3303(2) 0.76957(14) 0.73570(13)
O2 O 0.2766(2) 0.35702(12) 0.52021(11)
O3 O 0.2199(2) -0.34492(13) 0.45682(13)
O4 O 0.1683(2) -0.77333(14) 0.26840(13)
N1 N 0.7958(3) 0.97008(17) 0.91692(14)
N2 N 0.5621(2) 0.77672(15) 0.79319(14)
H1 H 0.6249 0.7443 0.8016
N3 N 0.0343(2) 0.30383(13) 0.50844(13)
H2 H -0.0415 0.3161 0.5181
N4 N 0.0933(2) 0.08188(14) 0.45295(13)
N5 N 0.3966(2) -0.07946(14) 0.53801(14)
N6 N 0.4636(2) -0.30176(13) 0.49084(13)
H3 H 0.5417 -0.3181 0.4900
N7 N -0.0623(3) -0.77967(17) 0.20867(14)
H4 H -0.1239 -0.7466 0.1989
N8 N -0.2954(3) -0.9743(2) 0.08515(15)
C1 C 0.7247(4) 1.0364(2) 0.8996(2)
H5 H 0.7633 1.0948 0.9248
C2 C 0.5989(4) 1.0217(2) 0.84701(18)
H6 H 0.5538 1.0697 0.8363
C3 C 0.5384(3) 0.93597(19) 0.80967(16)
H7 H 0.4528 0.9251 0.7733
C4 C 0.6080(3) 0.86631(18) 0.82743(15)
C5 C 0.7365(3) 0.88641(19) 0.88154(17)
H8 H 0.7831 0.8394 0.8936
C6 C 0.4318(3) 0.73374(18) 0.74841(16)
C7 C 0.4250(3) 0.63898(18) 0.71713(17)
H9 H 0.4323 0.5981 0.7573
H10 H 0.5087 0.6435 0.6960
C8 C 0.2896(3) 0.59506(17) 0.65864(16)
H11 H 0.2055 0.5866 0.6800
H12 H 0.2791 0.6365 0.6190
C9 C 0.2944(3) 0.50219(18) 0.62728(17)
H13 H 0.3747 0.5114 0.6030
H14 H 0.3122 0.4625 0.6675
C10 C 0.1556(3) 0.45394(17) 0.57260(17)
H15 H 0.0778 0.4375 0.5986
H16 H 0.1309 0.4971 0.5363
C11 C 0.1641(3) 0.36756(17) 0.53294(15)
C12 C 0.0159(3) 0.21919(16) 0.46832(15)
C13 C -0.0980(3) 0.18933(17) 0.40811(16)
H17 H -0.1621 0.2258 0.3922
C14 C -0.1161(3) 0.10482(19) 0.37159(16)
H18 H -0.1938 0.0829 0.3313
C15 C -0.0187(3) 0.05344(19) 0.39517(18)
H19 H -0.0312 -0.0034 0.3699
C16 C 0.1095(3) 0.16292(16) 0.48937(16)
H20 H 0.1865 0.1824 0.5304
C17 C 0.4983(3) -0.05155(19) 0.60026(18)
H21 H 0.5048 0.0044 0.6253
C18 C 0.5940(3) -0.10322(19) 0.62854(17)
H22 H 0.6650 -0.0817 0.6717
C19 C 0.5844(3) -0.18732(18) 0.59270(16)
H23 H 0.6484 -0.2229 0.6111
C20 C 0.4780(3) -0.21683(16) 0.52932(15)
C21 C 0.3882(3) -0.15988(16) 0.50306(16)
H24 H 0.3188 -0.1787 0.4590
C22 C 0.3364(3) -0.35945(17) 0.45519(16)
C23 C 0.3485(3) -0.44514(17) 0.41603(17)
H25 H 0.3820 -0.4855 0.4527
H26 H 0.4210 -0.4270 0.3870
C24 C 0.2076(3) -0.49898(18) 0.36575(17)
H27 H 0.1324 -0.5111 0.3935
H28 H 0.1797 -0.4610 0.3258
C25 C 0.2158(3) -0.59008(18) 0.33313(17)
H29 H 0.2894 -0.5782 0.3044
H30 H 0.2448 -0.6281 0.3728
C26 C 0.0729(3) -0.64247(19) 0.28446(18)
H31 H -0.0014 -0.6484 0.3125
H32 H 0.0487 -0.6056 0.2431
C27 C 0.0672(3) -0.73721(19) 0.25456(16)
C28 C -0.1087(3) -0.8699(2) 0.17525(16)
C29 C -0.0406(3) -0.9392(2) 0.19428(17)
H33 H 0.0452 -0.9280 0.2307
C30 C -0.1025(4) -1.0259(2) 0.1580(2)
H34 H -0.0589 -1.0743 0.1700
C31 C -0.2279(4) -1.0409(3) 0.1045(2)
H35 H -0.2678 -1.0999 0.0806
C32 C -0.2356(3) -0.8897(2) 0.12028(18)
H36 H -0.2811 -0.8424 0.1072
Ag2A Ag 1.75684(2) 2.002152(13) 1.509957(15)
Ag3_2 Ag 2.5000 3.0000 2.0000
O1A O 1.6697(2) 1.23043(14) 1.26430(13)
O2A O 1.7234(2) 1.64298(12) 1.47979(11)
O3A O 1.7801(2) 2.34492(13) 1.54318(13)
O4A O 1.8317(2) 2.77333(14) 1.73160(13)
N1A N 1.2042(3) 1.02992(17) 1.08308(14)
N2A N 1.4379(2) 1.22328(15) 1.20681(14)
H1A H 1.3751 1.2557 1.1984
N3A N 1.9657(2) 1.69617(13) 1.49156(13)
H2A H 2.0415 1.6839 1.4819
N4A N 1.9067(2) 1.91812(14) 1.54705(13)
N5A N 1.6034(2) 2.07946(14) 1.46199(14)
N6A N 1.5364(2) 2.30176(13) 1.50916(13)
H3A H 1.4583 2.3181 1.5100
N7A N 2.0623(3) 2.77967(17) 1.79133(14)
H4A H 2.1239 2.7466 1.8011
N8A N 2.2954(3) 2.9743(2) 1.91485(15)
N8A_2 N -0.7046(3) -1.0257(2) -0.08515(15)
C1A C 1.2753(4) 0.9636(2) 1.1004(2)
H5A H 1.2367 0.9052 1.0752
C2A C 1.4011(4) 0.9783(2) 1.15299(18)
H6A H 1.4462 0.9303 1.1637
C3A C 1.4616(3) 1.06403(19) 1.19033(16)
H7A H 1.5472 1.0749 1.2267
C4A C 1.3920(3) 1.13369(18) 1.17257(15)
C5A C 1.2635(3) 1.11359(19) 1.11846(17)
H8A H 1.2169 1.1606 1.1064
C6A C 1.5682(3) 1.26626(18) 1.25159(16)
C7A C 1.5750(3) 1.36102(18) 1.28287(17)
H9A H 1.5677 1.4019 1.2427
H10A H 1.4913 1.3565 1.3040
C8A C 1.7104(3) 1.40494(17) 1.34136(16)
H11A H 1.7945 1.4134 1.3200
H12A H 1.7209 1.3635 1.3810
C9A C 1.7056(3) 1.49781(18) 1.37272(17)
H13A H 1.6253 1.4886 1.3970
H14A H 1.6878 1.5375 1.3325
C10A C 1.8444(3) 1.54606(17) 1.42740(17)
H15A H 1.9222 1.5625 1.4014
H16A H 1.8691 1.5029 1.4637
C11A C 1.8359(3) 1.63244(17) 1.46706(15)
C12A C 1.9841(3) 1.78081(16) 1.53168(15)
C13A C 2.0980(3) 1.81067(17) 1.59189(16)
H17A H 2.1621 1.7742 1.6078
C14A C 2.1161(3) 1.89518(19) 1.62841(16)
H18A H 2.1938 1.9171 1.6687
C15A C 2.0187(3) 1.94656(19) 1.60483(18)
H19A H 2.0312 2.0034 1.6301
C16A C 1.8905(3) 1.83708(16) 1.51063(16)
H20A H 1.8135 1.8176 1.4696
C17A C 1.5017(3) 2.05155(19) 1.39974(18)
H21A H 1.4952 1.9956 1.3747
C18A C 1.4060(3) 2.10322(19) 1.37146(17)
H22A H 1.3350 2.0817 1.3283
C19A C 1.4156(3) 2.18732(18) 1.40730(16)
H23A H 1.3516 2.2229 1.3889
C20A C 1.5220(3) 2.21683(16) 1.47068(15)
C21A C 1.6118(3) 2.15988(16) 1.49694(16)
H24A H 1.6812 2.1787 1.5410
C22A C 1.6636(3) 2.35945(17) 1.54481(16)
C23A C 1.6515(3) 2.44514(17) 1.58397(17)
H25A H 1.6180 2.4855 1.5473
H26A H 1.5790 2.4270 1.6130
C24A C 1.7924(3) 2.49898(18) 1.63425(17)
H27A H 1.8676 2.5111 1.6065
H28A H 1.8203 2.4610 1.6742
C25A C 1.7842(3) 2.59008(18) 1.66687(17)
H29A H 1.7106 2.5782 1.6956
H30A H 1.7552 2.6281 1.6272
C26A C 1.9271(3) 2.64247(19) 1.71554(18)
H31A H 2.0014 2.6484 1.6875
H32A H 1.9513 2.6056 1.7569
C27A C 1.9328(3) 2.73721(19) 1.74544(16)
C28A C 2.1087(3) 2.8699(2) 1.82475(16)
C29A C 2.0406(3) 2.9392(2) 1.80572(17)
H33A H 1.9548 2.9280 1.7693
C30A C 2.1025(4) 3.0259(2) 1.8420(2)
H34A H 2.0589 3.0743 1.8300
C31A C 2.2279(4) 3.0409(3) 1.8955(2)
H35A H 2.2678 3.0999 1.9194
C32A C 2.2356(3) 2.8897(2) 1.87972(18)
H36A H 2.2811 2.8424 1.8928
N9 N 1.0389(5) 1.1879(3) 0.9876(3)
C33 C 0.9428(6) 1.3290(3) 1.0025(3)
H37 H 0.8446 1.3173 0.9741
H38 H 1.0020 1.3822 0.9853
H39 H 0.9455 1.3409 1.0537
C34 C 0.9975(5) 1.2491(3) 0.9940(3)
N10 N 0.7270(5) 0.6246(3) 0.8591(2)
C35 C 0.6629(6) 0.4472(4) 0.8480(3)
H40 H 0.5852 0.4241 0.8054
H41 H 0.6335 0.4231 0.8915
H42 H 0.7469 0.4275 0.8428
C36 C 0.6973(5) 0.5460(4) 0.8545(2)
N11 N 0.1313(4) -0.1179(3) 0.3633(2)
C37 C 0.0351(8) -0.2582(4) 0.2725(3)
H43 H -0.0566 -0.2556 0.2418
H44 H 0.0216 -0.3127 0.3001
H45 H 0.1017 -0.2610 0.2420
C38 C 0.0914(5) -0.1783(3) 0.3217(3)
N12 N -0.5409(5) -1.1932(3) 0.0027(3)
C39 C -0.4249(6) -1.3280(3) 0.0119(4)
H46 H -0.3288 -1.3079 0.0429
H47 H -0.4196 -1.3481 -0.0364
H48 H -0.4814 -1.3786 0.0331
C40 C -0.4921(5) -1.2524(3) 0.0062(3)
P1 P 0.18278(12) 0.49729(8) 0.86713(6)
F1 F 0.2168(3) 0.60551(16) 0.85472(15)
F2 F 0.1457(3) 0.38872(16) 0.87835(15)
F3 F 0.1315(4) 0.47724(18) 0.78110(15)
F4 F 0.2300(3) 0.51667(19) 0.95274(14)
F5 F 0.0252(3) 0.4975(2) 0.86977(18)
F6 F 0.3395(3) 0.4974(2) 0.86463(19)
P2 P 0.41186(15) 0.19159(7) 0.70300(6)
F7 F 0.3657(4) 0.08806(19) 0.71968(18)
F8 F 0.4503(7) 0.2912(2) 0.6852(2)
F9 F 0.2497(4) 0.1893(4) 0.6816(2)
F10 F 0.5639(4) 0.1837(4) 0.7188(2)
F11 F 0.3966(4) 0.1599(2) 0.61880(15)
F12 F 0.4308(6) 0.2181(2) 0.78385(17)
loop_
_geom_bond_atom_site_label_1
_geom_bond_atom_site_label_2
_geom_bond_site_symmetry_1
_geom_bond_site_symmetry_2
Ag1 N1 1_555 1_555
Ag2 N4 1_555 1_555
Ag3 N8 1_555 1_555
O1 C6 1_555 1_555
O2 C11 1_555 1_555
O3 C22 1_555 1_555
O4 C27 1_555 1_555
N1 C1 1_555 1_555
N2 H1 1_555 1_555
N3 H2 1_555 1_555
N4 C15 1_555 1_555
N5 Ag2 1_555 1_555
N6 H3 1_555 1_555
N7 H4 1_555 1_555
N8 C31 1_555 1_555
N9 C34 1_555 1_555
N10 C36 1_555 1_555
N11 C38 1_555 1_555
N12 C40 1_555 1_555
C1 H5 1_555 1_555
C2 C1 1_555 1_555
H6 C2 1_555 1_555
C3 C2 1_555 1_555
H7 C3 1_555 1_555
C4 N2 1_555 1_555
C5 N1 1_555 1_555
H8 C5 1_555 1_555
C6 N2 1_555 1_555
C7 C6 1_555 1_555
H9 C7 1_555 1_555
H10 C7 1_555 1_555
C8 C7 1_555 1_555
H11 C8 1_555 1_555
H12 C8 1_555 1_555
C9 C8 1_555 1_555
H13 C9 1_555 1_555
H14 C9 1_555 1_555
C10 C9 1_555 1_555
H15 C10 1_555 1_555
H16 C10 1_555 1_555
C11 N3 1_555 1_555
C12 N3 1_555 1_555
C13 C12 1_555 1_555
H17 C13 1_555 1_555
C14 C13 1_555 1_555
H18 C14 1_555 1_555
C15 C14 1_555 1_555
H19 C15 1_555 1_555
C16 N4 1_555 1_555
H20 C16 1_555 1_555
C17 N5 1_555 1_555
H21 C17 1_555 1_555
C18 C17 1_555 1_555
H22 C18 1_555 1_555
C19 C18 1_555 1_555
H23 C19 1_555 1_555
C20 N6 1_555 1_555
C21 N5 1_555 1_555
H24 C21 1_555 1_555
C22 N6 1_555 1_555
C23 C22 1_555 1_555
H25 C23 1_555 1_555
H26 C23 1_555 1_555
C24 C23 1_555 1_555
H27 C24 1_555 1_555
H28 C24 1_555 1_555
C25 C24 1_555 1_555
H29 C25 1_555 1_555
H30 C25 1_555 1_555
C26 C25 1_555 1_555
H31 C26 1_555 1_555
H32 C26 1_555 1_555
C27 N7 1_555 1_555
C28 N7 1_555 1_555
C29 C28 1_555 1_555
H33 C29 1_555 1_555
C30 C29 1_555 1_555
H34 C30 1_555 1_555
C31 C30 1_555 1_555
H35 C31 1_555 1_555
C32 N8 1_555 1_555
H36 C32 1_555 1_555
C33 H37 1_555 1_555
H38 C33 1_555 1_555
H39 C33 1_555 1_555
C34 C33 1_555 1_555
C35 H40 1_555 1_555
H41 C35 1_555 1_555
H42 C35 1_555 1_555
C36 C35 1_555 1_555
C37 H43 1_555 1_555
H44 C37 1_555 1_555
H45 C37 1_555 1_555
C38 C37 1_555 1_555
C39 H46 1_555 1_555
H47 C39 1_555 1_555
H48 C39 1_555 1_555
C40 C39 1_555 1_555
P1 F1 1_555 1_555
P2 F7 1_555 1_555
F2 P1 1_555 1_555
F3 P1 1_555 1_555
F4 P1 1_555 1_555
F5 P1 1_555 1_555
F6 P1 1_555 1_555
F8 P2 1_555 1_555
F9 P2 1_555 1_555
F10 P2 1_555 1_555
F11 P2 1_555 1_555
F12 P2 1_555 1_555
Ag2A N4A 1_555 1_555
Ag3_2 N8A 1_555 1_555
O1A C6A 1_555 1_555
O2A C11A 1_555 1_555
O3A C22A 1_555 1_555
O4A C27A 1_555 1_555
N1A Ag1 1_555 1_555
N2A H1A 1_555 1_555
N3A H2A 1_555 1_555
N4A C15A 1_555 1_555
N5A Ag2A 1_555 1_555
N6A H3A 1_555 1_555
N7A H4A 1_555 1_555
N8A C31A 1_555 1_555
N8A_2 Ag3 1_555 1_555
C1A N1A 1_555 1_555
H5A C1A 1_555 1_555
C2A C1A 1_555 1_555
H6A C2A 1_555 1_555
C3A C2A 1_555 1_555
H7A C3A 1_555 1_555
C4A N2A 1_555 1_555
C5A N1A 1_555 1_555
H8A C5A 1_555 1_555
C6A N2A 1_555 1_555
C7A C6A 1_555 1_555
H9A C7A 1_555 1_555
H10A C7A 1_555 1_555
C8A C7A 1_555 1_555
H11A C8A 1_555 1_555
H12A C8A 1_555 1_555
C9A C8A 1_555 1_555
H13A C9A 1_555 1_555
H14A C9A 1_555 1_555
C10A C9A 1_555 1_555
H15A C10A 1_555 1_555
H16A C10A 1_555 1_555
C11A N3A 1_555 1_555
C12A N3A 1_555 1_555
C13A C12A 1_555 1_555
H17A C13A 1_555 1_555
C14A C13A 1_555 1_555
H18A C14A 1_555 1_555
C15A C14A 1_555 1_555
H19A C15A 1_555 1_555
C16A N4A 1_555 1_555
H20A C16A 1_555 1_555
C17A N5A 1_555 1_555
H21A C17A 1_555 1_555
C18A C17A 1_555 1_555
H22A C18A 1_555 1_555
C19A C18A 1_555 1_555
H23A C19A 1_555 1_555
C20A N6A 1_555 1_555
C21A N5A 1_555 1_555
H24A C21A 1_555 1_555
C22A N6A 1_555 1_555
C23A C22A 1_555 1_555
H25A C23A 1_555 1_555
H26A C23A 1_555 1_555
C24A C23A 1_555 1_555
H27A C24A 1_555 1_555
H28A C24A 1_555 1_555
C25A C24A 1_555 1_555
H29A C25A 1_555 1_555
H30A C25A 1_555 1_555
C26A C25A 1_555 1_555
H31A C26A 1_555 1_555
H32A C26A 1_555 1_555
C27A N7A 1_555 1_555
C28A N7A 1_555 1_555
C29A C28A 1_555 1_555
H33A C29A 1_555 1_555
C30A C29A 1_555 1_555
H34A C30A 1_555 1_555
C31A C30A 1_555 1_555
H35A C31A 1_555 1_555
C32A N8A 1_555 1_555
H36A C32A 1_555 1_555
C3 C4 1_555 1_555
C4 C5 1_555 1_555
C10 C11 1_555 1_555
C12 C16 1_555 1_555
C19 C20 1_555 1_555
C20 C21 1_555 1_555
C26 C27 1_555 1_555
C28 C32 1_555 1_555
C3A C4A 1_555 1_555
C4A C5A 1_555 1_555
C10A C11A 1_555 1_555
C12A C16A 1_555 1_555
C19A C20A 1_555 1_555
C20A C21A 1_555 1_555
C26A C27A 1_555 1_555
C28A C32A 1_555 1_555

#END
