
#######################################################################
#
#                 Cambridge Crystallographic Data Centre
#                                CCDC 
#
#######################################################################
#
# If this CIF has been generated from an entry in the Cambridge 
# Structural Database, then it will include bibliographic, chemical, 
# crystal, experimental, refinement or atomic coordinate data resulting 
# from the CCDC's data processing and validation procedures.
#
#######################################################################

data_DATJAL
_symmetry_cell_setting           monoclinic
_symmetry_space_group_name_H-M   'C 2/c'
_symmetry_Int_Tables_number      15
_space_group_name_Hall           '-C 2yn'
loop_
_symmetry_equiv_pos_site_id
_symmetry_equiv_pos_as_xyz
1 x,y,z
2 -x,y,1/2-z
3 1/2+x,1/2+y,z
4 1/2-x,1/2+y,1/2-z
5 -x,-y,-z
6 x,-y,1/2+z
7 1/2-x,1/2-y,-z
8 1/2+x,1/2-y,1/2+z
_cell_length_a                   25.3479(18)
_cell_length_b                   5.0801(5)
_cell_length_c                   14.1456(16)
_cell_angle_alpha                90
_cell_angle_beta                 98.728(9)
_cell_angle_gamma                90
_cell_volume                     1800.43
loop_
_atom_site_label
_atom_site_type_symbol
_atom_site_fract_x
_atom_site_fract_y
_atom_site_fract_z
Ag1 Ag 0.5000 0.0000 0.0000
O1 O 0.31844(9) -0.9043(4) -0.26420(14)
N1 N 0.43700(9) -0.2968(5) -0.03227(15)
N2 N 0.33564(10) -0.4720(4) -0.23396(16)
H1 H 0.3303 -0.3164 -0.2574
C1 C 0.42997(13) -0.4822(5) 0.0316(2)
H2 H 0.4513 -0.4798 0.0911
C2 C 0.39203(12) -0.6770(6) 0.01198(19)
H3 H 0.3880 -0.8039 0.0577
C3 C 0.35999(11) -0.6817(5) -0.07658(18)
H4 H 0.3341 -0.8114 -0.0911
C4 C 0.36710(11) -0.4912(5) -0.14262(19)
C5 C 0.40604(10) -0.3011(5) -0.11772(18)
H5 H 0.4108 -0.1717 -0.1622
C6 C 0.31309(10) -0.6741(5) -0.28822(17)
C7 C 0.27787(12) -0.5888(6) -0.37901(19)
H6 H 0.2435 -0.5367 -0.3632
H7 H 0.2937 -0.4351 -0.4041
C8 C 0.26909(11) -0.7941(5) -0.45593(17)
H8 H 0.2550 -0.9517 -0.4302
H9 H 0.3032 -0.8390 -0.4749
Ag1B Ag 0.0000 -1.5000 -1.0000
O1F O 0.18156(9) -0.5957(4) -0.73580(14)
N1F N 0.06300(9) -1.2032(5) -0.96773(15)
N1D N 0.56300(9) 0.2968(5) 0.03227(15)
N2F N 0.16436(10) -1.0280(4) -0.76604(16)
H1F H 0.1697 -1.1836 -0.7426
C1F C 0.07003(13) -1.0178(5) -1.0316(2)
H2F H 0.0487 -1.0202 -1.0911
C2F C 0.10797(12) -0.8230(6) -1.01198(19)
H3F H 0.1120 -0.6961 -1.0577
C3F C 0.14001(11) -0.8183(5) -0.92342(18)
H4F H 0.1659 -0.6886 -0.9089
C4F C 0.13290(11) -1.0088(5) -0.85738(19)
C5F C 0.09396(10) -1.1989(5) -0.88228(18)
H5F H 0.0892 -1.3283 -0.8378
C6F C 0.18691(10) -0.8259(5) -0.71178(17)
C7F C 0.22213(12) -0.9112(6) -0.62099(19)
H6F H 0.2565 -0.9633 -0.6368
H7F H 0.2063 -1.0649 -0.5959
C8F C 0.23091(11) -0.7059(5) -0.54407(17)
H8F H 0.2450 -0.5483 -0.5698
H9F H 0.1968 -0.6610 -0.5251
Cl1 Cl 0.5000 -0.0819(2) 0.2500
O2 O 0.46432(16) 0.0778(8) 0.1891(2)
O3 O 0.52827(11) -0.2381(6) 0.19215(19)
O2A O 0.53568(16) 0.0778(8) 0.3109(2)
O3A O 0.47173(11) -0.2381(6) 0.30785(19)
loop_
_geom_bond_atom_site_label_1
_geom_bond_atom_site_label_2
_geom_bond_site_symmetry_1
_geom_bond_site_symmetry_2
Ag1 N1 1_555 1_555
O1 C6 1_555 1_555
N1 C1 1_555 1_555
N2 H1 1_555 1_555
C1 H2 1_555 1_555
C2 C1 1_555 1_555
H3 C2 1_555 1_555
C3 C2 1_555 1_555
H4 C3 1_555 1_555
C4 N2 1_555 1_555
C5 N1 1_555 1_555
H5 C5 1_555 1_555
C6 N2 1_555 1_555
C7 C6 1_555 1_555
H6 C7 1_555 1_555
H7 C7 1_555 1_555
C8 C7 1_555 1_555
H8 C8 1_555 1_555
H9 C8 1_555 1_555
Cl1 O2 1_555 1_555
O3 Cl1 1_555 1_555
Ag1B N1F 1_555 1_555
O1F C6F 1_555 1_555
N1F C1F 1_555 1_555
N1D Ag1 1_555 1_555
N2F H1F 1_555 1_555
C1F H2F 1_555 1_555
C2F C1F 1_555 1_555
H3F C2F 1_555 1_555
C3F C2F 1_555 1_555
H4F C3F 1_555 1_555
C4F N2F 1_555 1_555
C5F N1F 1_555 1_555
H5F C5F 1_555 1_555
C6F N2F 1_555 1_555
C7F C6F 1_555 1_555
H6F C7F 1_555 1_555
H7F C7F 1_555 1_555
C8F C8 1_555 1_555
H8F C8F 1_555 1_555
H9F C8F 1_555 1_555
O2A Cl1 1_555 1_555
O3A Cl1 1_555 1_555
C3 C4 1_555 1_555
C4 C5 1_555 1_555
C3F C4F 1_555 1_555
C4F C5F 1_555 1_555
C7F C8F 1_555 1_555

#END
