
#######################################################################
#
#                 Cambridge Crystallographic Data Centre
#                                CCDC 
#
#######################################################################
#
# If this CIF has been generated from an entry in the Cambridge 
# Structural Database, then it will include bibliographic, chemical, 
# crystal, experimental, refinement or atomic coordinate data resulting 
# from the CCDC's data processing and validation procedures.
#
#######################################################################

data_DATKAM
_symmetry_cell_setting           monoclinic
_symmetry_space_group_name_H-M   'P 21/c'
_symmetry_Int_Tables_number      14
_space_group_name_Hall           '-P 2ybc'
loop_
_symmetry_equiv_pos_site_id
_symmetry_equiv_pos_as_xyz
1 x,y,z
2 -x,1/2+y,1/2-z
3 -x,-y,-z
4 x,1/2-y,1/2+z
_cell_length_a                   11.1897(18)
_cell_length_b                   13.3167(16)
_cell_length_c                   13.6307(19)
_cell_angle_alpha                90
_cell_angle_beta                 92.044(11)
_cell_angle_gamma                90
_cell_volume                     2029.82
loop_
_atom_site_label
_atom_site_type_symbol
_atom_site_fract_x
_atom_site_fract_y
_atom_site_fract_z
Ag1 Ag 1.61117(3) 0.52363(3) 0.58463(3)
O1 O 1.3362(3) 0.8322(3) 0.6156(3)
O2 O 0.9192(3) 1.2356(2) 0.6092(2)
N1 N 1.4725(3) 0.5526(3) 0.6882(3)
N2 N 1.2480(3) 0.7473(3) 0.7364(3)
H1 H 1.1913 0.7517 0.7772
N3 N 0.9875(3) 1.2909(3) 0.4659(3)
H2 H 1.0340 1.2750 0.4195
N4 N 0.7572(3) 1.4880(3) 0.4896(3)
C1 C 1.4395(5) 0.4824(4) 0.7514(4)
H3 H 1.4809 0.4219 0.7539
C2 C 1.3474(5) 0.4962(4) 0.8124(4)
H4 H 1.3271 0.4461 0.8564
C3 C 1.2838(4) 0.5860(4) 0.8084(4)
H5 H 1.2205 0.5967 0.8496
C4 C 1.3160(4) 0.6592(3) 0.7423(3)
C5 C 1.4133(4) 0.6398(3) 0.6842(4)
H6 H 1.4379 0.6891 0.6410
C6 C 1.2592(4) 0.8263(3) 0.6754(3)
C7 C 1.1665(4) 0.9081(3) 0.6879(4)
H7 H 1.0875 0.8783 0.6837
H8 H 1.1776 0.9373 0.7528
C8 C 1.1731(5) 0.9903(4) 0.6125(4)
H9 H 1.1699 0.9602 0.5477
H10 H 1.2497 1.0240 0.6209
C9 C 1.0752(4) 1.0677(4) 0.6173(4)
H11 H 1.0758 1.0960 0.6829
H12 H 0.9986 1.0350 0.6055
C10 C 1.0877(4) 1.1518(4) 0.5440(4)
H13 H 1.1632 1.1856 0.5577
H14 H 1.0909 1.1227 0.4789
C11 C 0.9890(4) 1.2289(3) 0.5433(3)
C12 C 0.9190(4) 1.3791(3) 0.4508(3)
C13 C 0.9553(4) 1.4476(4) 0.3811(3)
H15 H 1.0220 1.4347 0.3443
C14 C 0.8917(4) 1.5342(4) 0.3673(4)
H16 H 0.9143 1.5807 0.3205
C15 C 0.7937(5) 1.5524(4) 0.4231(4)
H17 H 0.7516 1.6121 0.4136
C16 C 0.8178(4) 1.4008(3) 0.5025(3)
H18 H 0.7907 1.3541 0.5473
Ag1_2 Ag 0.61117(3) 1.52363(3) 0.58463(3)
N4_2 N 1.7572(3) 0.4880(3) 0.4896(3)
O3 O 1.1349(5) 1.2255(4) 0.2994(4)
O4 O 1.2517(6) 1.3056(7) 0.3779(5)
O5 O 1.3004(5) 1.2601(5) 0.2393(4)
N5 N 1.2323(4) 1.2649(4) 0.3047(4)
N6 N 1.5448(7) 0.3300(5) 0.5816(6)
C17 C 1.4996(6) 0.2572(5) 0.5624(5)
C18 C 1.4501(6) 0.1623(6) 0.5409(5)
H19 H 1.5112 0.1188 0.5173
H20 H 1.4181 0.1343 0.5993
H21 H 1.3874 0.1692 0.4914
loop_
_geom_bond_atom_site_label_1
_geom_bond_atom_site_label_2
_geom_bond_site_symmetry_1
_geom_bond_site_symmetry_2
Ag1 N1 1_555 1_555
O1 C6 1_555 1_555
O2 C11 1_555 1_555
N1 C1 1_555 1_555
N2 H1 1_555 1_555
N3 H2 1_555 1_555
N4 C15 1_555 1_555
C1 H3 1_555 1_555
C2 C1 1_555 1_555
H4 C2 1_555 1_555
C3 C2 1_555 1_555
H5 C3 1_555 1_555
C4 N2 1_555 1_555
C5 N1 1_555 1_555
H6 C5 1_555 1_555
C6 N2 1_555 1_555
C7 C6 1_555 1_555
H7 C7 1_555 1_555
H8 C7 1_555 1_555
C8 C7 1_555 1_555
H9 C8 1_555 1_555
H10 C8 1_555 1_555
C9 C8 1_555 1_555
H11 C9 1_555 1_555
H12 C9 1_555 1_555
C10 C9 1_555 1_555
H13 C10 1_555 1_555
H14 C10 1_555 1_555
C11 N3 1_555 1_555
C12 N3 1_555 1_555
C13 C12 1_555 1_555
H15 C13 1_555 1_555
C14 C13 1_555 1_555
H16 C14 1_555 1_555
C15 C14 1_555 1_555
H17 C15 1_555 1_555
C16 N4 1_555 1_555
H18 C16 1_555 1_555
O3 N5 1_555 1_555
O4 N5 1_555 1_555
O5 N5 1_555 1_555
N6 C17 1_555 1_555
C17 C18 1_555 1_555
C18 H19 1_555 1_555
H20 C18 1_555 1_555
H21 C18 1_555 1_555
Ag1_2 N4 1_555 1_555
N4_2 Ag1 1_555 1_555
C3 C4 1_555 1_555
C4 C5 1_555 1_555
C10 C11 1_555 1_555
C12 C16 1_555 1_555

#END
