
#######################################################################
#
#                 Cambridge Crystallographic Data Centre
#                                CCDC 
#
#######################################################################
#
# If this CIF has been generated from an entry in the Cambridge 
# Structural Database, then it will include bibliographic, chemical, 
# crystal, experimental, refinement or atomic coordinate data resulting 
# from the CCDC's data processing and validation procedures.
#
#######################################################################

data_DATKOA
_symmetry_cell_setting           triclinic
_symmetry_space_group_name_H-M   'P -1'
_symmetry_Int_Tables_number      2
_space_group_name_Hall           '-P 1'
loop_
_symmetry_equiv_pos_site_id
_symmetry_equiv_pos_as_xyz
1 x,y,z
2 -x,-y,-z
_cell_length_a                   13.0295(5)
_cell_length_b                   14.1039(6)
_cell_length_c                   14.5684(6)
_cell_angle_alpha                82.237(2)
_cell_angle_beta                 88.474(2)
_cell_angle_gamma                71.598(2)
_cell_volume                     2516.64
loop_
_atom_site_label
_atom_site_type_symbol
_atom_site_fract_x
_atom_site_fract_y
_atom_site_fract_z
Ag1 Ag 0.22396(2) -0.66698(3) 0.52542(2)
Ag2 Ag -0.28269(2) -1.12369(3) 1.54561(2)
O1 O 0.0445(2) -0.7830(4) 0.8172(2)
O2 O -0.16639(19) -0.9424(2) 1.24341(18)
O3 O 0.5647(2) -0.2741(4) -0.1578(3)
O4 O 0.35302(18) -0.4444(2) 0.26487(17)
N1 N 0.0567(2) -0.6507(2) 0.5535(2)
N2 N -0.1150(2) -0.6931(2) 0.7494(2)
H1 H -0.1837 -0.6728 0.7580
N3 N 0.0043(2) -1.0234(2) 1.29760(19)
H2 H 0.0709 -1.0364 1.2819
N4 N -0.1275(2) -1.1124(2) 1.50302(19)
N5 N 0.5586(2) -0.1312(2) -0.4204(2)
N6 N 0.4020(2) -0.1895(3) -0.2202(2)
H3 H 0.3341 -0.1673 -0.2086
N7 N 0.5206(2) -0.5450(2) 0.3118(2)
H4 H 0.5869 -0.5651 0.2949
N8 N 0.3792(2) -0.6427(2) 0.5031(2)
C1 C -0.0194(3) -0.6069(3) 0.4881(2)
H5 H 0.0016 -0.5888 0.4285
C2 C -0.1272(3) -0.5876(3) 0.5055(2)
H6 H -0.1784 -0.5558 0.4587
C3 C -0.1589(3) -0.6155(3) 0.5929(2)
H7 H -0.2319 -0.6029 0.6059
C4 C -0.0807(3) -0.6629(3) 0.6617(2)
C5 C 0.0260(3) -0.6789(3) 0.6394(2)
H8 H 0.0789 -0.7103 0.6850
C6 C -0.0529(3) -0.7507(3) 0.8229(2)
C7 C -0.1132(3) -0.7754(3) 0.9068(2)
H9 H -0.1568 -0.8157 0.8913
H10 H -0.1618 -0.7133 0.9249
C8 C -0.0395(3) -0.8321(3) 0.9873(2)
H11 H -0.0019 -0.7886 1.0068
H12 H 0.0145 -0.8898 0.9667
C9 C -0.0961(3) -0.8684(3) 1.0694(2)
H13 H -0.1318 -0.9138 1.0509
H14 H -0.1513 -0.8112 1.0896
C10 C -0.0186(3) -0.9227(4) 1.1501(3)
H15 H 0.0375 -0.9784 1.1287
H16 H 0.0161 -0.8764 1.1685
C11 C -0.0691(3) -0.9625(3) 1.2333(2)
C12 C -0.0132(2) -1.0679(2) 1.3856(2)
C13 C 0.0759(3) -1.1143(3) 1.4443(2)
H17 H 0.1449 -1.1159 1.4249
C14 C 0.0603(3) -1.1578(3) 1.5317(3)
H18 H 0.1190 -1.1888 1.5720
C15 C -0.0410(3) -1.1555(3) 1.5593(2)
H19 H -0.0505 -1.1845 1.6188
C16 C -0.1132(3) -1.0698(3) 1.4175(2)
H20 H -0.1732 -1.0403 1.3782
C17 C 0.4850(3) -0.1138(3) -0.4881(2)
H21 H 0.5037 -0.0981 -0.5490
C18 C 0.3827(3) -0.1183(3) -0.4703(2)
H22 H 0.3322 -0.1036 -0.5183
C19 C 0.3553(3) -0.1447(3) -0.3817(2)
H23 H 0.2868 -0.1496 -0.3690
C20 C 0.4314(2) -0.1641(3) -0.3105(2)
C21 C 0.5319(3) -0.1559(3) -0.3324(2)
H24 H 0.5828 -0.1676 -0.2851
C22 C 0.4668(3) -0.2445(3) -0.1492(3)
C23 C 0.4114(3) -0.2691(3) -0.0623(3)
H25 H 0.3734 -0.2069 -0.0381
H26 H 0.3579 -0.2995 -0.0774
C24 C 0.4852(3) -0.3381(4) 0.0107(3)
H27 H 0.5347 -0.3053 0.0299
H28 H 0.5278 -0.3980 -0.0150
C25 C 0.4269(3) -0.3694(4) 0.0948(3)
H29 H 0.3854 -0.3097 0.1215
H30 H 0.3765 -0.4013 0.0757
C26 C 0.5023(3) -0.4402(4) 0.1667(3)
H31 H 0.5516 -0.4073 0.1861
H32 H 0.5451 -0.4985 0.1389
C27 C 0.4496(3) -0.4759(3) 0.2506(2)
C28 C 0.4979(2) -0.5870(2) 0.3991(2)
C29 C 0.5776(3) -0.6168(3) 0.4674(3)
H33 H 0.6451 -0.6090 0.4554
C30 C 0.5550(3) -0.6582(3) 0.5539(3)
H34 H 0.6072 -0.6786 0.6010
C31 C 0.4560(3) -0.6689(3) 0.5696(3)
H35 H 0.4409 -0.6954 0.6285
C32 C 0.4005(3) -0.6028(3) 0.4187(2)
H36 H 0.3478 -0.5854 0.3721
Ag2_2 Ag 0.71731(2) -0.12369(3) -0.45439(2)
N5_2 N -0.4414(2) -1.1312(2) 1.5796(2)
S1 S -0.18419(9) 0.38029(11) 0.23908(8)
F1 F -0.0969(5) 0.5041(5) 0.1573(7)
F2 F -0.0994(5) 0.3958(5) 0.0832(3)
F3 F -0.2416(4) 0.5221(5) 0.1023(4)
O5 O -0.2467(3) 0.4528(6) 0.2952(3)
O6 O -0.2542(5) 0.3391(5) 0.2009(6)
O7 O -0.0811(3) 0.3194(5) 0.2712(4)
C33 C -0.1558(5) 0.4539(6) 0.1417(5)
S2 S 0.31313(9) -0.07248(11) 0.25700(7)
F4 F 0.2543(4) 0.0150(6) 0.0933(3)
F5 F 0.4025(5) -0.0988(4) 0.0998(3)
F6 F 0.3895(5) 0.0350(4) 0.1345(4)
O8 O 0.2443(5) 0.0141(5) 0.2896(4)
O9 O 0.2520(6) -0.1312(6) 0.2473(4)
O10 O 0.4130(4) -0.1136(7) 0.2979(4)
C34 C 0.3436(4) -0.0300(5) 0.1419(3)
N9 N 0.3082(3) -0.8497(3) 0.7999(2)
O11 O 0.3157(3) -0.8323(3) 0.6435(2)
C35 C 0.3053(6) -0.9152(7) 0.8839(4)
H37 H 0.3056 -0.9795 0.8690
H38 H 0.2409 -0.8858 0.9169
H39 H 0.3677 -0.9239 0.9217
C36 C 0.2902(6) -0.7464(7) 0.8033(5)
H40 H 0.2801 -0.7109 0.7415
H41 H 0.3515 -0.7378 0.8321
H42 H 0.2267 -0.7202 0.8385
C37 C 0.3187(4) -0.8826(4) 0.7194(3)
H43 H 0.3296 -0.9510 0.7198
N10 N -0.1796(3) -1.3530(3) 0.8125(2)
O12 O -0.1905(3) -1.3147(4) 0.6584(2)
C38 C -0.1847(12) -1.4475(10) 0.8212(10)
H44 H -0.1444 -1.4861 0.8754
H45 H -0.1545 -1.4781 0.7675
H46 H -0.2588 -1.4458 0.8269
C39 C -0.1787(9) -1.3125(10) 0.9047(6)
H47 H -0.1215 -1.3585 0.9439
H48 H -0.2468 -1.3055 0.9345
H49 H -0.1673 -1.2479 0.8934
C40 C -0.1835(6) -1.2953(7) 0.7388(3)
H50 H -0.1808 -1.2311 0.7443
C41? C -0.1875(19) -1.4316(19) 0.8849(13)
C42? C -0.1870(8) -1.2648(7) 0.8231(6)
C43? C -0.1837(8) -1.3837(7) 0.7238(6)
H51? H -0.1858 -1.4098 0.9443
H52? H -0.1279 -1.4917 0.8809
H53? H -0.2542 -1.4453 0.8774
H54? H -0.1847 -1.2597 0.8880
H55? H -0.2541 -1.2196 0.7964
H56? H -0.1279 -1.2471 0.7929
H57? H -0.1815 -1.4485 0.7153
loop_
_geom_bond_atom_site_label_1
_geom_bond_atom_site_label_2
_geom_bond_site_symmetry_1
_geom_bond_site_symmetry_2
Ag1 N1 1_555 1_555
Ag2 N4 1_555 1_555
O1 C6 1_555 1_555
O2 C11 1_555 1_555
O3 C22 1_555 1_555
O4 C27 1_555 1_555
N1 C1 1_555 1_555
N2 H1 1_555 1_555
N3 H2 1_555 1_555
N4 C15 1_555 1_555
N5 C17 1_555 1_555
N6 H3 1_555 1_555
N7 H4 1_555 1_555
N8 Ag1 1_555 1_555
C1 H5 1_555 1_555
C2 C1 1_555 1_555
H6 C2 1_555 1_555
C3 C2 1_555 1_555
H7 C3 1_555 1_555
C4 N2 1_555 1_555
C5 N1 1_555 1_555
H8 C5 1_555 1_555
C6 N2 1_555 1_555
C7 C6 1_555 1_555
H9 C7 1_555 1_555
H10 C7 1_555 1_555
C8 C7 1_555 1_555
H11 C8 1_555 1_555
H12 C8 1_555 1_555
C9 C8 1_555 1_555
H13 C9 1_555 1_555
H14 C9 1_555 1_555
C10 C9 1_555 1_555
H15 C10 1_555 1_555
H16 C10 1_555 1_555
C11 N3 1_555 1_555
C12 N3 1_555 1_555
C13 C12 1_555 1_555
H17 C13 1_555 1_555
C14 C13 1_555 1_555
H18 C14 1_555 1_555
C15 C14 1_555 1_555
H19 C15 1_555 1_555
C16 N4 1_555 1_555
H20 C16 1_555 1_555
C17 H21 1_555 1_555
C18 C17 1_555 1_555
H22 C18 1_555 1_555
C19 C18 1_555 1_555
H23 C19 1_555 1_555
C20 N6 1_555 1_555
C21 N5 1_555 1_555
H24 C21 1_555 1_555
C22 N6 1_555 1_555
C23 C22 1_555 1_555
H25 C23 1_555 1_555
H26 C23 1_555 1_555
C24 C23 1_555 1_555
H27 C24 1_555 1_555
H28 C24 1_555 1_555
C25 C24 1_555 1_555
H29 C25 1_555 1_555
H30 C25 1_555 1_555
C26 C25 1_555 1_555
H31 C26 1_555 1_555
H32 C26 1_555 1_555
C27 N7 1_555 1_555
C28 N7 1_555 1_555
C29 C28 1_555 1_555
H33 C29 1_555 1_555
C30 C29 1_555 1_555
H34 C30 1_555 1_555
C31 N8 1_555 1_555
H35 C31 1_555 1_555
C32 N8 1_555 1_555
H36 C32 1_555 1_555
S1 O5 1_555 1_555
S2 O8 1_555 1_555
F1 C33 1_555 1_555
F2 C33 1_555 1_555
F3 C33 1_555 1_555
F4 C34 1_555 1_555
F5 C34 1_555 1_555
F6 C34 1_555 1_555
O6 S1 1_555 1_555
O7 S1 1_555 1_555
O9 S2 1_555 1_555
O10 S2 1_555 1_555
C33 S1 1_555 1_555
C34 S2 1_555 1_555
N9 C35 1_555 1_555
O11 C37 1_555 1_555
C35 H37 1_555 1_555
H38 C35 1_555 1_555
H39 C35 1_555 1_555
C36 N9 1_555 1_555
H40 C36 1_555 1_555
H41 C36 1_555 1_555
H42 C36 1_555 1_555
C37 N9 1_555 1_555
H43 C37 1_555 1_555
N10 C38 1_555 1_555
O12 C40 1_555 1_555
C38 H44 1_555 1_555
H45 C38 1_555 1_555
H46 C38 1_555 1_555
C39 N10 1_555 1_555
H47 C39 1_555 1_555
H48 C39 1_555 1_555
H49 C39 1_555 1_555
C40 N10 1_555 1_555
H50 C40 1_555 1_555
Ag2_2 N5 1_555 1_555
N5_2 Ag2 1_555 1_555
C3 C4 1_555 1_555
C4 C5 1_555 1_555
C10 C11 1_555 1_555
C12 C16 1_555 1_555
C19 C20 1_555 1_555
C20 C21 1_555 1_555
C26 C27 1_555 1_555
C28 C32 1_555 1_555
C30 C31 1_555 1_555

#END
