
#######################################################################
#
#                 Cambridge Crystallographic Data Centre
#                                CCDC 
#
#######################################################################
#
# If this CIF has been generated from an entry in the Cambridge 
# Structural Database, then it will include bibliographic, chemical, 
# crystal, experimental, refinement or atomic coordinate data resulting 
# from the CCDC's data processing and validation procedures.
#
#######################################################################

data_DATKEQ
_symmetry_cell_setting           monoclinic
_symmetry_space_group_name_H-M   'P 21/c'
_symmetry_Int_Tables_number      14
_space_group_name_Hall           '-P 2ybc'
loop_
_symmetry_equiv_pos_site_id
_symmetry_equiv_pos_as_xyz
1 x,y,z
2 -x,1/2+y,1/2-z
3 -x,-y,-z
4 x,1/2-y,1/2+z
_cell_length_a                   8.4346(4)
_cell_length_b                   31.3587(13)
_cell_length_c                   14.0692(6)
_cell_angle_alpha                90
_cell_angle_beta                 98.772(4)
_cell_angle_gamma                90
_cell_volume                     3677.75
loop_
_atom_site_label
_atom_site_type_symbol
_atom_site_fract_x
_atom_site_fract_y
_atom_site_fract_z
Ag1 Ag 0.15525(4) 0.742678(11) 0.49868(2)
O1 O -0.1598(4) 0.74206(10) 0.7797(2)
O2 O -0.5871(4) 0.74088(10) 1.1780(2)
N1 N 0.0838(4) 0.68898(11) 0.5761(2)
N2 N -0.1237(4) 0.67043(11) 0.7850(2)
H1 H -0.1471 0.6479 0.8147
N3 N -0.5365(4) 0.81074(11) 1.2125(2)
H2 H -0.4847 0.8325 1.1961
N4 N -0.7679(4) 0.79223(11) 1.4120(2)
C1 C -0.0017(5) 0.69657(13) 0.6479(3)
H3 H -0.0342 0.7243 0.6584
C2 C -0.0423(5) 0.66387(13) 0.7066(3)
C3 C 0.0055(5) 0.62245(14) 0.6885(3)
H4 H -0.0214 0.5998 0.7257
C4 C 0.0929(6) 0.61554(14) 0.6151(3)
H5 H 0.1257 0.5881 0.6023
C5 C 0.1319(5) 0.64943(14) 0.5603(3)
H6 H 0.1928 0.6446 0.5115
C6 C -0.1704(5) 0.70823(13) 0.8200(3)
C7 C -0.2357(5) 0.70370(14) 0.9141(3)
H7 H -0.1513 0.6929 0.9627
H8 H -0.3217 0.6829 0.9058
C8 C -0.2990(5) 0.74516(14) 0.9501(3)
H9 H -0.2118 0.7655 0.9625
H10 H -0.3795 0.7569 0.9004
C9 C -0.3726(5) 0.73892(14) 1.0417(3)
H11 H -0.4600 0.7186 1.0295
H12 H -0.2923 0.7273 1.0916
C10 C -0.4352(5) 0.78056(13) 1.0763(3)
H13 H -0.5062 0.7937 1.0237
H14 H -0.3457 0.7998 1.0949
C11 C -0.5249(5) 0.77456(14) 1.1606(3)
C12 C -0.6225(5) 0.81708(13) 1.2894(3)
C13 C -0.6409(5) 0.85868(14) 1.3190(3)
H15 H -0.5974 0.8812 1.2884
C14 C -0.7244(5) 0.86640(14) 1.3941(3)
H16 H -0.7383 0.8942 1.4146
C15 C -0.7872(5) 0.83250(14) 1.4386(3)
H17 H -0.8447 0.8379 1.4887
C16 C -0.6886(4) 0.78442(13) 1.3378(3)
H18 H -0.6776 0.7564 1.3183
Ag1_2 Ag -0.84475(4) 0.742678(11) 1.49868(2)
N4_2 N 0.2321(4) 0.79223(11) 0.4120(2)
O3 O 0.3376(5) 0.66758(14) 0.3897(3)
N5 N 0.3462(5) 0.62283(13) 0.2638(3)
C17 C 0.3753(8) 0.61813(19) 0.1657(4)
H19 H 0.4145 0.6446 0.1439
H20 H 0.2771 0.6106 0.1253
H21 H 0.4535 0.5961 0.1627
C18 C 0.2779(10) 0.5868(2) 0.3053(5)
H22 H 0.2634 0.5935 0.3700
H23 H 0.3486 0.5628 0.3058
H24 H 0.1761 0.5800 0.2680
C19 C 0.3700(6) 0.65962(16) 0.3101(4)
H25 H 0.4159 0.6815 0.2789
O4 O 0.0441(4) 0.80283(10) 0.6103(2)
N6 N -0.0723(5) 0.84052(12) 0.7183(3)
C20 C -0.1053(9) 0.84410(18) 0.8163(4)
H26 H -0.0438 0.8232 0.8559
H27 H -0.2175 0.8394 0.8173
H28 H -0.0765 0.8721 0.8406
C21 C -0.1654(7) 0.86707(17) 0.6459(4)
H29 H -0.1374 0.8605 0.5839
H30 H -0.1427 0.8966 0.6605
H31 H -0.2776 0.8617 0.6453
C22 C 0.0222(5) 0.81020(14) 0.6929(3)
H32 H 0.0761 0.7932 0.7415
O5 O -0.1085(5) 0.90045(12) 1.4142(3)
N7 N -0.2449(5) 0.96167(12) 1.4293(3)
C23 C -0.2467(7) 1.00764(17) 1.4254(5)
H33 H -0.1510 1.0176 1.4035
H34 H -0.2515 1.0189 1.4884
H35 H -0.3389 1.0170 1.3818
C24 C -0.3836(7) 0.9409(2) 1.4575(5)
H36 H -0.3690 0.9105 1.4568
H37 H -0.4776 0.9485 1.4133
H38 H -0.3962 0.9499 1.5212
C25 C -0.1208(7) 0.93930(16) 1.4109(4)
H39 H -0.0346 0.9545 1.3938
P1 P 0.20001(19) 0.49540(4) 0.75122(10)
F1 F 0.2449(5) 0.53554(12) 0.8173(3)
F2 F 0.1151(5) 0.47409(12) 0.8326(3)
F3 F 0.0308(6) 0.51952(15) 0.7191(4)
F4 F 0.1451(8) 0.45597(13) 0.6857(3)
F5 F 0.3558(6) 0.47200(17) 0.7878(5)
F6 F 0.2662(8) 0.51729(13) 0.6678(3)
O6 O -0.4167(6) 0.89039(14) 1.1659(4)
N8 N -0.3310(6) 0.93840(16) 1.0681(4)
C26 C -0.3686(10) 0.9269(3) 1.1455(6)
H40 H -0.3608 0.9473 1.1940
C27 C -0.2643(12) 0.9775(3) 1.0424(7)
H41 H -0.2637 0.9976 1.0939
H42 H -0.3277 0.9885 0.9852
H43 H -0.1564 0.9728 1.0308
C28 C -0.3353(12) 0.9059(3) 0.9889(6)
H44 H -0.3819 0.8799 1.0078
H45 H -0.2281 0.9005 0.9770
H46 H -0.3986 0.9167 0.9314
loop_
_geom_bond_atom_site_label_1
_geom_bond_atom_site_label_2
_geom_bond_site_symmetry_1
_geom_bond_site_symmetry_2
Ag1 N1 1_555 1_555
O1 C6 1_555 1_555
O2 C11 1_555 1_555
N1 C1 1_555 1_555
N2 H1 1_555 1_555
N3 H2 1_555 1_555
N4 C15 1_555 1_555
C1 H3 1_555 1_555
C2 N2 1_555 1_555
C3 C2 1_555 1_555
H4 C3 1_555 1_555
C4 C3 1_555 1_555
H5 C4 1_555 1_555
C5 N1 1_555 1_555
H6 C5 1_555 1_555
C6 N2 1_555 1_555
C7 C6 1_555 1_555
H7 C7 1_555 1_555
H8 C7 1_555 1_555
C8 C7 1_555 1_555
H9 C8 1_555 1_555
H10 C8 1_555 1_555
C9 C8 1_555 1_555
H11 C9 1_555 1_555
H12 C9 1_555 1_555
C10 C9 1_555 1_555
H13 C10 1_555 1_555
H14 C10 1_555 1_555
C11 N3 1_555 1_555
C12 N3 1_555 1_555
C13 C12 1_555 1_555
H15 C13 1_555 1_555
C14 C13 1_555 1_555
H16 C14 1_555 1_555
C15 C14 1_555 1_555
H17 C15 1_555 1_555
C16 N4 1_555 1_555
H18 C16 1_555 1_555
O3 C19 1_555 1_555
N5 C17 1_555 1_555
C17 H19 1_555 1_555
H20 C17 1_555 1_555
H21 C17 1_555 1_555
C18 N5 1_555 1_555
H22 C18 1_555 1_555
H23 C18 1_555 1_555
H24 C18 1_555 1_555
C19 N5 1_555 1_555
H25 C19 1_555 1_555
O4 C22 1_555 1_555
N6 C20 1_555 1_555
C20 H26 1_555 1_555
H27 C20 1_555 1_555
H28 C20 1_555 1_555
C21 N6 1_555 1_555
H29 C21 1_555 1_555
H30 C21 1_555 1_555
H31 C21 1_555 1_555
C22 N6 1_555 1_555
H32 C22 1_555 1_555
O5 C25 1_555 1_555
N7 C23 1_555 1_555
C23 H33 1_555 1_555
H34 C23 1_555 1_555
H35 C23 1_555 1_555
C24 N7 1_555 1_555
H36 C24 1_555 1_555
H37 C24 1_555 1_555
H38 C24 1_555 1_555
C25 N7 1_555 1_555
H39 C25 1_555 1_555
P1 F1 1_555 1_555
F2 P1 1_555 1_555
F3 P1 1_555 1_555
F4 P1 1_555 1_555
F5 P1 1_555 1_555
F6 P1 1_555 1_555
O6 C26 1_555 1_555
N8 C26 1_555 1_555
C26 H40 1_555 1_555
C27 N8 1_555 1_555
H41 C27 1_555 1_555
H42 C27 1_555 1_555
H43 C27 1_555 1_555
C28 N8 1_555 1_555
H44 C28 1_555 1_555
H45 C28 1_555 1_555
H46 C28 1_555 1_555
Ag1_2 N4 1_555 1_555
N4_2 Ag1 1_555 1_555
C1 C2 1_555 1_555
C4 C5 1_555 1_555
C10 C11 1_555 1_555
C12 C16 1_555 1_555

#END
