
#######################################################################
#
#                 Cambridge Crystallographic Data Centre
#                                CCDC 
#
#######################################################################
#
# If this CIF has been generated from an entry in the Cambridge 
# Structural Database, then it will include bibliographic, chemical, 
# crystal, experimental, refinement or atomic coordinate data resulting 
# from the CCDC's data processing and validation procedures.
#
#######################################################################

data_DATMOB
_symmetry_cell_setting           orthorhombic
_symmetry_space_group_name_H-M   'C c c a'
_symmetry_Int_Tables_number      68
_space_group_name_Hall           '-C 2a 2bc'
loop_
_symmetry_equiv_pos_site_id
_symmetry_equiv_pos_as_xyz
1 x,y,z
2 -x,1/2-y,z
3 1/2+x,-y,1/2-z
4 1/2-x,1/2+y,1/2-z
5 1/2+x,1/2+y,z
6 1/2-x,-y,z
7 x,1/2-y,1/2-z
8 -x,y,1/2-z
9 -x,-y,-z
10 x,1/2+y,-z
11 1/2-x,y,1/2+z
12 1/2+x,1/2-y,1/2+z
13 1/2-x,1/2-y,-z
14 1/2+x,y,-z
15 -x,1/2+y,1/2+z
16 x,-y,1/2+z
_cell_length_a                   20.390(4)
_cell_length_b                   20.701(4)
_cell_length_c                   16.779(3)
_cell_angle_alpha                90
_cell_angle_beta                 90
_cell_angle_gamma                90
_cell_volume                     7082.3
loop_
_atom_site_label
_atom_site_type_symbol
_atom_site_fract_x
_atom_site_fract_y
_atom_site_fract_z
Ni1 Ni 0.2500 0.0000 0.21596(16)
Mn1 Mn 0.2092(2) -0.2500 0.2500
Mn2 Mn 0.0000 0.0480(2) 0.2500
O1 O 0.1473(6) -0.2326(6) 0.3312(6)
O2 O -0.0197(6) 0.1109(6) 0.1710(6)
N1 N 0.2832(9) -0.2321(10) 0.3233(8)
N2 N -0.0245(9) -0.0234(9) 0.1791(8)
N3 N 0.2128(7) -0.1435(7) 0.2220(9)
N4 N 0.1073(8) 0.0402(8) 0.2117(8)
C1 C 0.2254(9) -0.0878(10) 0.2158(9)
C2 C 0.3483(14) -0.251(2) 0.2922(14)
H1 H 0.3617 -0.2943 0.3076
H2 H 0.3834 -0.2224 0.3112
C3 C 0.2778(12) -0.2060(13) 0.3930(10)
H3 H 0.3227 -0.1997 0.4198
C4 C 0.2201(11) -0.1887(10) 0.4319(10)
C5 C 0.2260(12) -0.1567(12) 0.5050(12)
H4 H 0.2711 -0.1473 0.5263
C6 C 0.1738(15) -0.1408(13) 0.5493(11)
H5 H 0.1784 -0.1177 0.5989
C7 C 0.1130(13) -0.1545(13) 0.5190(11)
H6 H 0.0735 -0.1454 0.5511
C8 C 0.1014(12) -0.1866(12) 0.4463(11)
H7 H 0.0561 -0.1944 0.4263
C9 C 0.1576(10) -0.2031(9) 0.4002(9)
C10 C 0.1613(8) 0.0240(8) 0.2153(9)
C11 C -0.0192(17) -0.0862(14) 0.2168(14)
H8 H -0.0637 -0.1013 0.2314
H9 H -0.0009 -0.1173 0.1779
C12 C -0.0515(11) -0.0195(10) 0.1074(10)
H10 H -0.0643 -0.0592 0.0802
C13 C -0.0600(10) 0.0399(11) 0.0677(9)
C14 C -0.0898(12) 0.0331(12) -0.0095(11)
H11 H -0.1027 -0.0114 -0.0302
C15 C -0.0988(14) 0.0894(14) -0.0553(12)
H12 H -0.1191 0.0849 -0.1073
C16 C -0.0808(14) 0.1508(14) -0.0268(11)
H13 H -0.0864 0.1886 -0.0603
C17 C -0.0556(11) 0.1548(11) 0.0491(10)
H14 H -0.0460 0.1964 0.0708
C18 C -0.0455(9) 0.0992(10) 0.0990(10)
Mn1C Mn 0.2908(2) 0.2500 0.2500
Mn2B Mn 0.5000 -0.0480(2) 0.2500
O1F O 0.1473(6) -0.2674(6) 0.1688(6)
O2G O 0.0197(6) 0.1109(6) 0.3290(6)
N1F N 0.2832(9) -0.2679(10) 0.1767(8)
N2G N 0.0245(9) -0.0234(9) 0.3209(8)
N3E N 0.2872(7) 0.1435(7) 0.2220(9)
N3F N 0.2128(7) -0.3565(7) 0.2780(9)
N4E N 0.3927(8) -0.0402(8) 0.2117(8)
N4G N -0.1073(8) 0.0402(8) 0.2883(8)
C1E C 0.2746(9) 0.0878(10) 0.2158(9)
C2F C 0.3483(14) -0.249(2) 0.2078(14)
H1F H 0.3617 -0.2057 0.1924
H2F H 0.3834 -0.2776 0.1888
C3F C 0.2778(12) -0.2940(13) 0.1070(10)
H3F H 0.3227 -0.3003 0.0802
C4F C 0.2201(11) -0.3113(10) 0.0681(10)
C5F C 0.2260(12) -0.3433(12) -0.0050(12)
H4F H 0.2711 -0.3527 -0.0263
C6F C 0.1738(15) -0.3592(13) -0.0493(11)
H5F H 0.1784 -0.3823 -0.0989
C7F C 0.1130(13) -0.3455(13) -0.0190(11)
H6F H 0.0735 -0.3546 -0.0511
C8F C 0.1014(12) -0.3134(12) 0.0537(11)
H7F H 0.0561 -0.3056 0.0737
C9F C 0.1576(10) -0.2969(9) 0.0998(9)
C10E C 0.3387(8) -0.0240(8) 0.2153(9)
C11G C 0.0192(17) -0.0862(14) 0.2832(14)
H8G H 0.0637 -0.1013 0.2686
H9G H 0.0009 -0.1173 0.3221
C12G C 0.0515(11) -0.0195(10) 0.3926(10)
H10G H 0.0643 -0.0592 0.4198
C13G C 0.0600(10) 0.0399(11) 0.4323(9)
C14G C 0.0898(12) 0.0331(12) 0.5095(11)
H11G H 0.1027 -0.0114 0.5302
C15G C 0.0988(14) 0.0894(14) 0.5553(12)
H12G H 0.1191 0.0849 0.6073
C16G C 0.0808(14) 0.1508(14) 0.5268(11)
H13G H 0.0864 0.1886 0.5603
C17G C 0.0556(11) 0.1548(11) 0.4509(10)
H14G H 0.0460 0.1964 0.4292
C18G C 0.0455(9) 0.0992(10) 0.4010(10)
loop_
_geom_bond_atom_site_label_1
_geom_bond_atom_site_label_2
_geom_bond_site_symmetry_1
_geom_bond_site_symmetry_2
Ni1 C1 1_555 1_555
Mn1 O1 1_555 1_555
Mn2 O2 1_555 1_555
O1 C9 1_555 1_555
O2 C18 1_555 1_555
N1 Mn1 1_555 1_555
N2 Mn2 1_555 1_555
N3 Mn1 1_555 1_555
N4 Mn2 1_555 1_555
C1 N3 1_555 1_555
C2 N1 1_555 1_555
H1 C2 1_555 1_555
H2 C2 1_555 1_555
C3 N1 1_555 1_555
H3 C3 1_555 1_555
C4 C3 1_555 1_555
C5 C4 1_555 1_555
H4 C5 1_555 1_555
C6 C5 1_555 1_555
H5 C6 1_555 1_555
C7 C6 1_555 1_555
H6 C7 1_555 1_555
C8 C7 1_555 1_555
H7 C8 1_555 1_555
C9 C4 1_555 1_555
C10 Ni1 1_555 1_555
C11 N2 1_555 1_555
H8 C11 1_555 1_555
H9 C11 1_555 1_555
C12 N2 1_555 1_555
H10 C12 1_555 1_555
C13 C12 1_555 1_555
C14 C13 1_555 1_555
H11 C14 1_555 1_555
C15 C14 1_555 1_555
H12 C15 1_555 1_555
C16 C15 1_555 1_555
H13 C16 1_555 1_555
C17 C16 1_555 1_555
H14 C17 1_555 1_555
C18 C13 1_555 1_555
Mn1C N3E 1_555 1_555
Mn2B N4E 1_555 1_555
O1F Mn1 1_555 1_555
O2G Mn2 1_555 1_555
N1F Mn1 1_555 1_555
N2G Mn2 1_555 1_555
N3E C1E 1_555 1_555
N3F Mn1 1_555 1_555
N4E C10E 1_555 1_555
N4G Mn2 1_555 1_555
C1E Ni1 1_555 1_555
C2F C2 1_555 1_555
H1F C2F 1_555 1_555
H2F C2F 1_555 1_555
C3F N1F 1_555 1_555
H3F C3F 1_555 1_555
C4F C3F 1_555 1_555
C5F C4F 1_555 1_555
H4F C5F 1_555 1_555
C6F C5F 1_555 1_555
H5F C6F 1_555 1_555
C7F C6F 1_555 1_555
H6F C7F 1_555 1_555
C8F C7F 1_555 1_555
H7F C8F 1_555 1_555
C9F O1F 1_555 1_555
C10E Ni1 1_555 1_555
C11G C11 1_555 1_555
H8G C11G 1_555 1_555
H9G C11G 1_555 1_555
C12G N2G 1_555 1_555
H10G C12G 1_555 1_555
C13G C12G 1_555 1_555
C14G C13G 1_555 1_555
H11G C14G 1_555 1_555
C15G C14G 1_555 1_555
H12G C15G 1_555 1_555
C16G C15G 1_555 1_555
H13G C16G 1_555 1_555
C17G C16G 1_555 1_555
H14G C17G 1_555 1_555
C18G O2G 1_555 1_555
N4 C10 1_555 1_555
C8 C9 1_555 1_555
C17 C18 1_555 1_555
N1F C2F 1_555 1_555
N2G C11G 1_555 1_555
C4F C9F 1_555 1_555
C8F C9F 1_555 1_555
C13G C18G 1_555 1_555
C17G C18G 1_555 1_555

#END
