
#######################################################################
#
#                 Cambridge Crystallographic Data Centre
#                                CCDC 
#
#######################################################################
#
# If this CIF has been generated from an entry in the Cambridge 
# Structural Database, then it will include bibliographic, chemical, 
# crystal, experimental, refinement or atomic coordinate data resulting 
# from the CCDC's data processing and validation procedures.
#
#######################################################################

data_DATNAO
_symmetry_cell_setting           monoclinic
_symmetry_space_group_name_H-M   'P 21/c'
_symmetry_Int_Tables_number      14
_space_group_name_Hall           '-P 2ybc'
loop_
_symmetry_equiv_pos_site_id
_symmetry_equiv_pos_as_xyz
1 x,y,z
2 -x,1/2+y,1/2-z
3 -x,-y,-z
4 x,1/2-y,1/2+z
_cell_length_a                   10.643(2)
_cell_length_b                   10.408(2)
_cell_length_c                   13.714(3)
_cell_angle_alpha                90
_cell_angle_beta                 90.92(3)
_cell_angle_gamma                90
_cell_volume                     1518.94
loop_
_atom_site_label
_atom_site_type_symbol
_atom_site_fract_x
_atom_site_fract_y
_atom_site_fract_z
Cd1 Cd 0.325604(15) 0.111004(17) 0.179197(13)
C1 C 0.2190(3) -0.1914(3) 0.1581(2)
H1 H 0.3031 -0.2127 0.1683
C2 C 0.1312(3) -0.2909(3) 0.1511(2)
H2 H 0.1565 -0.3761 0.1566
C3 C 0.0075(3) -0.2608(3) 0.1358(2)
H3 H -0.0524 -0.3256 0.1310
C4 C -0.0285(2) -0.1323(3) 0.12742(19)
C5 C -0.1566(3) -0.0944(3) 0.1085(2)
H4 H -0.2188 -0.1567 0.1023
C6 C -0.1869(2) 0.0306(3) 0.0998(2)
H5 H -0.2702 0.0533 0.0876
C7 C -0.0942(2) 0.1294(3) 0.10875(19)
C8 C -0.1217(3) 0.2598(3) 0.0993(2)
H6 H -0.2042 0.2860 0.0880
C9 C -0.0282(3) 0.3493(3) 0.1064(2)
H7 H -0.0463 0.4363 0.0995
C10 C 0.0951(3) 0.3082(3) 0.1244(2)
H8 H 0.1585 0.3695 0.1290
C11 C 0.0328(2) 0.0958(2) 0.12682(17)
C12 C 0.0656(2) -0.0378(2) 0.13591(16)
C13 C 0.4960(2) 0.3370(2) 0.12689(16)
C14 C 0.5692(2) 0.4403(2) 0.15583(16)
C15 C 0.4568(2) 0.3812(2) 0.27600(18)
H9 H 0.4224 0.3775 0.3378
C16 C 0.6664(2) 0.5146(2) 0.10448(17)
C17 C 0.4876(2) 0.2636(2) 0.03520(17)
N1 N 0.18870(19) -0.0689(2) 0.15101(15)
N2 N 0.12507(19) 0.1853(2) 0.13525(15)
N3 N 0.42463(18) 0.3002(2) 0.20438(14)
N4 N 0.54271(17) 0.46764(19) 0.25084(14)
O1 O 0.55411(18) 0.30367(19) -0.03659(13)
O2 O 0.41999(18) 0.16629(19) 0.02997(13)
O3 O 0.68371(17) 0.48787(18) 0.01375(12)
O4 O 0.72886(17) 0.59614(17) 0.14941(14)
Cd1A Cd 0.674396(15) 0.611004(17) 0.320803(13)
N4A N 0.45729(17) -0.03236(19) 0.24916(14)
O4A O 0.27114(17) 0.09614(17) 0.35059(14)
loop_
_geom_bond_atom_site_label_1
_geom_bond_atom_site_label_2
_geom_bond_site_symmetry_1
_geom_bond_site_symmetry_2
Cd1 N1 1_555 1_555
C1 H1 1_555 1_555
C2 C1 1_555 1_555
H2 C2 1_555 1_555
C3 C2 1_555 1_555
H3 C3 1_555 1_555
C4 C3 1_555 1_555
C5 C4 1_555 1_555
H4 C5 1_555 1_555
C6 C5 1_555 1_555
H5 C6 1_555 1_555
C7 C6 1_555 1_555
C8 C7 1_555 1_555
H6 C8 1_555 1_555
C9 C8 1_555 1_555
H7 C9 1_555 1_555
C10 C9 1_555 1_555
H8 C10 1_555 1_555
C11 C7 1_555 1_555
C12 C4 1_555 1_555
C13 C14 1_555 1_555
C14 C16 1_555 1_555
C15 H9 1_555 1_555
C16 O3 1_555 1_555
C17 C13 1_555 1_555
N1 C1 1_555 1_555
N2 Cd1 1_555 1_555
N3 Cd1 1_555 1_555
N4 C14 1_555 1_555
O1 C17 1_555 1_555
O2 Cd1 1_555 1_555
O4 C16 1_555 1_555
Cd1A N4 1_555 1_555
N4A Cd1 1_555 1_555
O4A Cd1 1_555 1_555
C10 N2 1_555 1_555
C11 C12 1_555 1_555
C11 N2 1_555 1_555
C12 N1 1_555 1_555
C13 N3 1_555 1_555
C15 N3 1_555 1_555
C15 N4 1_555 1_555
C17 O2 1_555 1_555
O4 Cd1A 1_555 1_555

#END
