
#######################################################################
#
#                 Cambridge Crystallographic Data Centre
#                                CCDC 
#
#######################################################################
#
# If this CIF has been generated from an entry in the Cambridge 
# Structural Database, then it will include bibliographic, chemical, 
# crystal, experimental, refinement or atomic coordinate data resulting 
# from the CCDC's data processing and validation procedures.
#
#######################################################################

data_DATPAP
_symmetry_cell_setting           monoclinic
_symmetry_space_group_name_H-M   'P 21/c'
_symmetry_Int_Tables_number      14
_space_group_name_Hall           '-P 2ybc'
loop_
_symmetry_equiv_pos_site_id
_symmetry_equiv_pos_as_xyz
1 x,y,z
2 -x,1/2+y,1/2-z
3 -x,-y,-z
4 x,1/2-y,1/2+z
_cell_length_a                   5.668(2)
_cell_length_b                   17.307(3)
_cell_length_c                   6.500(2)
_cell_angle_alpha                90
_cell_angle_beta                 125.11(2)
_cell_angle_gamma                90
_cell_volume                     521.608
loop_
_atom_site_label
_atom_site_type_symbol
_atom_site_fract_x
_atom_site_fract_y
_atom_site_fract_z
C1 C -0.012(5) 0.313(1) 0.849(4)
Ag1 Ag 0.3101(3) 0.4962(1) 0.1633(2)
O1 O -0.321(3) 0.351(1) 0.449(2)
O2 O 0.225(3) 0.443(1) 0.428(2)
O3 O -0.254(3) 0.439(1) 0.152(2)
C2 C -0.050(2) 0.376(1) 0.524(3)
C3 C 0.146(5) 0.356(1) 0.771(4)
C4 C -0.287(5) 0.313(1) 0.648(4)
C5 C -0.019(4) 0.425(1) 0.356(3)
H1 H 0.347(61) 0.366(17) 0.916(52)
H2 H 0.074(56) 0.293(19) 0.992(49)
H3 H -0.406(62) 0.295(18) 0.736(53)
Ag1B Ag -0.3101(3) 0.5038(1) -0.1633(2)
O2B O 0.775(3) 0.557(1) 0.572(2)
O3_2 O 0.746(3) 0.439(1) 0.152(2)
O3B O 0.254(3) 0.561(1) -0.152(2)
Ag1B_2 Ag 0.6899(3) 0.5038(1) 0.8367(2)
Ag1_2 Ag -0.6899(3) 0.4962(1) 0.1633(2)
C5B C 1.019(4) 0.575(1) 0.644(3)
O3B_2 O 1.254(3) 0.561(1) 0.848(2)
C2B C 1.050(2) 0.624(1) 0.476(3)
Ag1_3 Ag 1.3101(3) 0.4962(1) 1.1633(2)
Ag1B_3 Ag 1.6899(3) 0.5038(1) 0.8367(2)
O1B O 1.321(3) 0.649(1) 0.551(2)
C3B C 0.854(5) 0.644(1) 0.229(4)
C4B C 1.287(5) 0.687(1) 0.352(4)
C1B C 1.012(5) 0.687(1) 0.151(4)
H1B H 0.653(61) 0.634(17) 0.084(52)
H3B H 1.406(62) 0.705(18) 0.264(53)
H2B H 0.926(56) 0.707(19) 0.008(49)
O2_2 O -0.775(3) 0.443(1) -0.572(2)
O2B_2 O -0.225(3) 0.557(1) -0.428(2)
O3B_3 O -0.746(3) 0.561(1) -0.152(2)
loop_
_geom_bond_atom_site_label_1
_geom_bond_atom_site_label_2
_geom_bond_site_symmetry_1
_geom_bond_site_symmetry_2
C1 C3 1_555 1_555
Ag1 O2 1_555 1_555
O1 C2 1_555 1_555
O2 C5 1_555 1_555
O3 C5 1_555 1_555
C2 C3 1_555 1_555
C3 H1 1_555 1_555
C4 C1 1_555 1_555
C5 C2 1_555 1_555
H2 C1 1_555 1_555
H3 C4 1_555 1_555
Ag1B Ag1 1_555 1_555
O2B Ag1 1_555 1_555
O3_2 Ag1 1_555 1_555
O3B Ag1 1_555 1_555
Ag1B_2 O2 1_555 1_555
Ag1_2 O3 1_555 1_555
C5B O2B 1_555 1_555
O3B_2 C5B 1_555 1_555
C2B C5B 1_555 1_555
Ag1_3 Ag1B_2 1_555 1_555
Ag1B_3 O3B_2 1_555 1_555
O1B C2B 1_555 1_555
C3B C2B 1_555 1_555
C4B O1B 1_555 1_555
C1B C3B 1_555 1_555
H1B C3B 1_555 1_555
H3B C4B 1_555 1_555
H2B C1B 1_555 1_555
O2_2 Ag1B 1_555 1_555
O2B_2 Ag1B 1_555 1_555
O3B_3 Ag1B 1_555 1_555
O1 C4 1_555 1_555
O3 Ag1B 1_555 1_555
O2B Ag1B_2 1_555 1_555
Ag1_2 O3B_3 1_555 1_555
O3B_2 Ag1_3 1_555 1_555
C4B C1B 1_555 1_555

#END
