
#######################################################################
#
#                 Cambridge Crystallographic Data Centre
#                                CCDC 
#
#######################################################################
#
# If this CIF has been generated from an entry in the Cambridge 
# Structural Database, then it will include bibliographic, chemical, 
# crystal, experimental, refinement or atomic coordinate data resulting 
# from the CCDC's data processing and validation procedures.
#
#######################################################################

data_DATROG
_symmetry_cell_setting           monoclinic
_symmetry_space_group_name_H-M   'P 21/n'
_symmetry_Int_Tables_number      14
_space_group_name_Hall           '-P 2yn'
loop_
_symmetry_equiv_pos_site_id
_symmetry_equiv_pos_as_xyz
1 x,y,z
2 1/2-x,1/2+y,1/2-z
3 -x,-y,-z
4 1/2+x,1/2-y,1/2+z
_cell_length_a                   9.22810(10)
_cell_length_b                   11.24820(10)
_cell_length_c                   14.33530(10)
_cell_angle_alpha                90
_cell_angle_beta                 95.7380(10)
_cell_angle_gamma                90
_cell_volume                     1480.54
loop_
_atom_site_label
_atom_site_type_symbol
_atom_site_fract_x
_atom_site_fract_y
_atom_site_fract_z
Ag1 Ag 0.15826(3) 0.09689(2) -0.325440(17)
S1 S -0.01662(8) 0.23831(7) -0.25787(5)
C1 C 0.0910(4) 0.3536(3) -0.1951(2)
H1 H 0.1482 0.3177 -0.1410
H2 H 0.0251 0.4120 -0.1713
C2 C -0.1224(3) 0.3255(3) -0.3442(2)
C3 C -0.2342(4) 0.3941(3) -0.3151(3)
H3 H -0.2530 0.3939 -0.2519
C4 C -0.1800(5) 0.3920(4) -0.5016(3)
H4 H -0.1615 0.3924 -0.5649
C5 C -0.0951(4) 0.3225(4) -0.4376(3)
H5 H -0.0205 0.2744 -0.4570
C6 C -0.2916(5) 0.4607(4) -0.4731(3)
H6 H -0.3499 0.5061 -0.5173
C7 C -0.3177(4) 0.4627(3) -0.3799(3)
H7 H -0.3923 0.5109 -0.3605
S2 S 0.21393(9) 0.43014(7) -0.26655(5)
F1 F 0.1330(3) 0.1171(3) -0.50245(18)
C8 C 0.3499(4) 0.3183(3) -0.2742(2)
C9 C 0.5492(4) 0.2023(3) -0.2041(3)
H8 H 0.6112 0.1795 -0.1511
C10 C 0.4417(4) 0.2876(3) -0.1958(2)
H9 H 0.4318 0.3238 -0.1377
C11 C 0.3626(4) 0.2649(3) -0.3610(2)
H10 H 0.2981 0.2852 -0.4135
C12 C 0.4725(4) 0.1809(3) -0.3687(3)
H11 H 0.4835 0.1451 -0.4268
C13 C 0.5648(4) 0.1509(3) -0.2904(3)
H12 H 0.6392 0.0949 -0.2957
B1 B 0.2068(4) 0.0287(4) -0.5453(3)
F2 F 0.1205(2) -0.0167(2) -0.62198(15)
F3 F 0.3310(3) 0.0743(3) -0.57521(19)
F4 F 0.2420(4) -0.0575(3) -0.4804(2)
Ag1A Ag 0.34174(3) 0.59689(2) -0.174560(17)
S2A S 0.28607(9) -0.06986(7) -0.23345(5)
loop_
_geom_bond_atom_site_label_1
_geom_bond_atom_site_label_2
_geom_bond_site_symmetry_1
_geom_bond_site_symmetry_2
Ag1 S1 1_555 1_555
S1 C1 1_555 1_555
C1 H1 1_555 1_555
H2 C1 1_555 1_555
C2 S1 1_555 1_555
C3 C2 1_555 1_555
H3 C3 1_555 1_555
C4 H4 1_555 1_555
C5 C2 1_555 1_555
H5 C5 1_555 1_555
C6 C4 1_555 1_555
H6 C6 1_555 1_555
C7 C3 1_555 1_555
H7 C7 1_555 1_555
S2 C1 1_555 1_555
F1 Ag1 1_555 1_555
C8 S2 1_555 1_555
C9 H8 1_555 1_555
C10 C8 1_555 1_555
H9 C10 1_555 1_555
C11 C8 1_555 1_555
H10 C11 1_555 1_555
C12 C11 1_555 1_555
H11 C12 1_555 1_555
C13 C9 1_555 1_555
H12 C13 1_555 1_555
B1 F1 1_555 1_555
F2 B1 1_555 1_555
F3 B1 1_555 1_555
F4 B1 1_555 1_555
Ag1A S2 1_555 1_555
S2A Ag1 1_555 1_555
C4 C5 1_555 1_555
C6 C7 1_555 1_555
C9 C10 1_555 1_555
C12 C13 1_555 1_555

#END
