
#######################################################################
#
#                 Cambridge Crystallographic Data Centre
#                                CCDC 
#
#######################################################################
#
# If this CIF has been generated from an entry in the Cambridge 
# Structural Database, then it will include bibliographic, chemical, 
# crystal, experimental, refinement or atomic coordinate data resulting 
# from the CCDC's data processing and validation procedures.
#
#######################################################################

data_DATRIA
_symmetry_cell_setting           monoclinic
_symmetry_space_group_name_H-M   'P 21/n'
_symmetry_Int_Tables_number      14
_space_group_name_Hall           '-P 2yn'
loop_
_symmetry_equiv_pos_site_id
_symmetry_equiv_pos_as_xyz
1 x,y,z
2 1/2-x,1/2+y,1/2-z
3 -x,-y,-z
4 1/2+x,1/2-y,1/2+z
_cell_length_a                   9.32420(10)
_cell_length_b                   11.1757(2)
_cell_length_c                   14.5623(2)
_cell_angle_alpha                90
_cell_angle_beta                 96.6710(10)
_cell_angle_gamma                90
_cell_volume                     1507.18
loop_
_atom_site_label
_atom_site_type_symbol
_atom_site_fract_x
_atom_site_fract_y
_atom_site_fract_z
Ag1 Ag -0.15274(2) 0.407960(19) 0.331140(14)
Cl1 Cl -0.21197(7) 0.46943(7) 0.54756(4)
S1 S 0.01416(7) 0.26382(6) 0.26082(4)
S2 S -0.21764(7) 0.07264(6) 0.26340(5)
O1 O -0.1279(3) 0.3894(2) 0.49726(16)
O2 O -0.1241(2) 0.5117(2) 0.62859(15)
O3 O -0.3330(3) 0.4078(3) 0.5752(2)
O4 O -0.2590(4) 0.5672(3) 0.4891(2)
C1 C 0.0891(4) 0.1678(3) 0.4352(2)
H1 H 0.0104 0.2102 0.4539
C2 C 0.1755(5) 0.0970(4) 0.4984(3)
H2 H 0.1556 0.0919 0.5601
C3 C 0.2895(4) 0.0351(3) 0.4703(3)
H3 H 0.3481 -0.0117 0.5132
C4 C 0.3194(3) 0.0408(3) 0.3798(3)
H4 H 0.3967 -0.0034 0.3611
C5 C 0.2355(3) 0.1116(3) 0.3165(2)
H5 H 0.2562 0.1168 0.2549
C6 C 0.1205(3) 0.1746(3) 0.34523(19)
C7 C -0.0929(3) 0.1498(3) 0.19688(19)
H6 H -0.0277 0.0907 0.1742
H7 H -0.1480 0.1869 0.1429
C8 C -0.3512(3) 0.1857(2) 0.26953(19)
C9 C -0.3683(3) 0.2358(3) 0.3553(2)
H8 H -0.3077 0.2127 0.4084
C10 C -0.4759(4) 0.3202(3) 0.3613(2)
H9 H -0.4884 0.3544 0.4188
C11 C -0.5647(3) 0.3542(3) 0.2832(2)
H10 H -0.6387 0.4102 0.2879
C12 C -0.5448(4) 0.3059(3) 0.1978(2)
H11 H -0.6034 0.3315 0.1445
C13 C -0.4392(3) 0.2203(3) 0.19061(19)
H12 H -0.4273 0.1861 0.1330
Ag1A Ag -0.34726(2) -0.092040(19) 0.168860(14)
S2A S -0.28236(7) 0.57264(6) 0.23660(5)
loop_
_geom_bond_atom_site_label_1
_geom_bond_atom_site_label_2
_geom_bond_site_symmetry_1
_geom_bond_site_symmetry_2
Ag1 S1 1_555 1_555
Cl1 O1 1_555 1_555
S1 C6 1_555 1_555
S2 C7 1_555 1_555
O1 Ag1 1_555 1_555
O2 Cl1 1_555 1_555
O3 Cl1 1_555 1_555
O4 Cl1 1_555 1_555
C1 H1 1_555 1_555
C2 C1 1_555 1_555
H2 C2 1_555 1_555
C3 C2 1_555 1_555
H3 C3 1_555 1_555
C4 C3 1_555 1_555
H4 C4 1_555 1_555
C5 C4 1_555 1_555
H5 C5 1_555 1_555
C6 C1 1_555 1_555
C7 S1 1_555 1_555
H6 C7 1_555 1_555
H7 C7 1_555 1_555
C8 S2 1_555 1_555
C9 C8 1_555 1_555
H8 C9 1_555 1_555
C10 C9 1_555 1_555
H9 C10 1_555 1_555
C11 C10 1_555 1_555
H10 C11 1_555 1_555
C12 C11 1_555 1_555
H11 C12 1_555 1_555
C13 C8 1_555 1_555
H12 C13 1_555 1_555
Ag1A S2 1_555 1_555
S2A Ag1 1_555 1_555
C5 C6 1_555 1_555
C12 C13 1_555 1_555

#END
