
#######################################################################
#
#                 Cambridge Crystallographic Data Centre
#                                CCDC 
#
#######################################################################
#
# If this CIF has been generated from an entry in the Cambridge 
# Structural Database, then it will include bibliographic, chemical, 
# crystal, experimental, refinement or atomic coordinate data resulting 
# from the CCDC's data processing and validation procedures.
#
#######################################################################

data_DATSAT
_symmetry_cell_setting           monoclinic
_symmetry_space_group_name_H-M   'P 21/n'
_symmetry_Int_Tables_number      14
_space_group_name_Hall           '-P 2yn'
loop_
_symmetry_equiv_pos_site_id
_symmetry_equiv_pos_as_xyz
1 x,y,z
2 1/2-x,1/2+y,1/2-z
3 -x,-y,-z
4 1/2+x,1/2-y,1/2+z
_cell_length_a                   8.953(2)
_cell_length_b                   19.407(2)
_cell_length_c                   10.506(2)
_cell_angle_alpha                90
_cell_angle_beta                 110.00(2)
_cell_angle_gamma                90
_cell_volume                     1715.34
loop_
_atom_site_label
_atom_site_type_symbol
_atom_site_fract_x
_atom_site_fract_y
_atom_site_fract_z
Ag1 Ag 0.54208(7) 0.19836(3) -0.37334(5)
S1 S 0.5159(2) 0.14768(8) -0.59180(16)
S2 S 0.2690(2) 0.15816(11) -0.1788(2)
C1 C 0.3909(8) 0.2073(3) -0.7151(7)
H1 H 0.3575 0.1857 -0.8038
H2 H 0.4528 0.2478 -0.7187
C2 C 0.3915(8) 0.0738(3) -0.6193(7)
C3 C 0.3009(9) 0.0591(4) -0.5423(8)
H3 H 0.2993 0.0893 -0.4740
C4 C 0.2109(10) -0.0004(5) -0.5648(10)
H4 H 0.1506 -0.0110 -0.5108
C5 C 0.2115(11) -0.0444(5) -0.6692(11)
H5 H 0.1493 -0.0841 -0.6866
O1 O 0.3983(6) 0.1640(3) -0.2310(6)
O2 O 0.2866(8) 0.1954(4) -0.0580(7)
O3 O 0.1137(6) 0.1632(3) -0.2750(6)
C6 C 0.3932(9) 0.0287(4) -0.7216(8)
H6 H 0.4557 0.0380 -0.7743
C7 C 0.3010(11) -0.0299(4) -0.7441(10)
H7 H 0.3013 -0.0600 -0.8130
F1 F 0.1710(8) 0.0523(3) -0.0779(6)
F2 F 0.2682(11) 0.0282(3) -0.2307(9)
F3 F 0.4235(11) 0.0593(5) -0.0347(9)
C8 C 0.2830(14) 0.0711(6) -0.1285(12)
S3 S 0.21405(19) 0.23431(8) -0.67776(16)
C9 C 0.2910(7) 0.2918(3) -0.5389(6)
C10 C 0.4173(8) 0.3364(3) -0.5214(7)
H8 H 0.4705 0.3362 -0.5835
C11 C 0.2157(10) 0.2907(4) -0.4454(8)
H9 H 0.1329 0.2600 -0.4544
C12 C 0.2651(11) 0.3364(5) -0.3362(8)
H10 H 0.2137 0.3362 -0.2728
C13 C 0.3852(10) 0.3805(4) -0.3210(8)
H11 H 0.4155 0.4110 -0.2483
C14 C 0.4643(9) 0.3806(4) -0.4142(7)
H12 H 0.5487 0.4106 -0.4034
Ag1C Ag 0.04208(7) 0.30164(3) -0.87334(5)
S3C S 0.71405(19) 0.26569(8) -0.17776(16)
loop_
_geom_bond_atom_site_label_1
_geom_bond_atom_site_label_2
_geom_bond_site_symmetry_1
_geom_bond_site_symmetry_2
Ag1 S1 1_555 1_555
S1 C1 1_555 1_555
S2 O1 1_555 1_555
C1 H1 1_555 1_555
H2 C1 1_555 1_555
C2 S1 1_555 1_555
C3 C2 1_555 1_555
H3 C3 1_555 1_555
C4 C3 1_555 1_555
H4 C4 1_555 1_555
C5 C4 1_555 1_555
H5 C5 1_555 1_555
O1 Ag1 1_555 1_555
O2 S2 1_555 1_555
O3 S2 1_555 1_555
C6 C2 1_555 1_555
H6 C6 1_555 1_555
C7 C5 1_555 1_555
H7 C7 1_555 1_555
F1 C8 1_555 1_555
F2 C8 1_555 1_555
F3 C8 1_555 1_555
C8 S2 1_555 1_555
S3 C1 1_555 1_555
C9 S3 1_555 1_555
C10 C9 1_555 1_555
H8 C10 1_555 1_555
C11 C9 1_555 1_555
H9 C11 1_555 1_555
C12 C11 1_555 1_555
H10 C12 1_555 1_555
C13 C12 1_555 1_555
H11 C13 1_555 1_555
C14 C10 1_555 1_555
H12 C14 1_555 1_555
Ag1C S3 1_555 1_555
S3C Ag1 1_555 1_555
C6 C7 1_555 1_555
C13 C14 1_555 1_555

#END
