
#######################################################################
#
#                 Cambridge Crystallographic Data Centre
#                                CCDC 
#
#######################################################################
#
# If this CIF has been generated from an entry in the Cambridge 
# Structural Database, then it will include bibliographic, chemical, 
# crystal, experimental, refinement or atomic coordinate data resulting 
# from the CCDC's data processing and validation procedures.
#
#######################################################################

data_DATSUN
_symmetry_cell_setting           triclinic
_symmetry_space_group_name_H-M   'P -1'
_symmetry_Int_Tables_number      2
_space_group_name_Hall           '-P 1'
loop_
_symmetry_equiv_pos_site_id
_symmetry_equiv_pos_as_xyz
1 x,y,z
2 -x,-y,-z
_cell_length_a                   10.9903(2)
_cell_length_b                   11.3039(2)
_cell_length_c                   13.0694(2)
_cell_angle_alpha                99.3390(10)
_cell_angle_beta                 90.3830(10)
_cell_angle_gamma                99.4910(10)
_cell_volume                     1579.27
loop_
_atom_site_label
_atom_site_type_symbol
_atom_site_fract_x
_atom_site_fract_y
_atom_site_fract_z
Ag1 Ag 0.40002(2) 0.06425(2) -0.529000(19)
Ag2 Ag 0.42139(2) 0.09363(2) -0.015380(18)
S1 S 0.39625(8) 0.23684(7) -0.37371(7)
S2 S 0.23049(7) 0.10682(7) -0.65411(6)
S3 S 0.40884(8) 0.25679(7) -0.13829(6)
S4 S 0.23693(7) 0.10402(7) -0.88755(6)
F1 F 0.82963(18) 0.30769(17) -0.60008(16)
F2 F 0.84684(18) 0.13396(19) -0.69388(17)
F3 F 0.65276(19) 0.34526(17) -0.72051(16)
F4 F 0.81654(19) 0.30680(19) -0.80522(16)
O1 O 0.5568(2) 0.1239(2) -0.63621(19)
O2 O 0.7035(2) 0.1124(2) -0.5195(2)
O3 O 0.6606(2) 0.0546(2) -0.85096(19)
O4 O 0.5635(2) 0.2011(2) -0.8926(2)
C1 C 0.6643(3) 0.1421(3) -0.5992(3)
C2 C 0.7643(3) 0.2089(3) -0.6628(3)
C3 C 0.7159(3) 0.2550(3) -0.7573(3)
C4 C 0.6371(3) 0.1599(3) -0.8412(3)
C5 C 0.2366(3) 0.2495(3) -0.3640(3)
C6 C 0.1446(3) 0.1487(3) -0.3942(3)
H1 H 0.1657 0.0710 -0.4179
C7 C 0.0217(3) 0.1635(3) -0.3892(3)
H2 H -0.0416 0.0955 -0.4101
C8 C -0.0092(4) 0.2769(4) -0.3541(3)
H3 H -0.0934 0.2867 -0.3515
C9 C 0.0834(4) 0.3763(4) -0.3226(3)
H4 H 0.0622 0.4538 -0.2978
C10 C 0.2058(4) 0.3628(3) -0.3273(3)
H5 H 0.2688 0.4308 -0.3055
C11 C 0.2501(3) 0.2688(3) -0.6297(3)
C12 C 0.1459(3) 0.3231(3) -0.6143(3)
H6 H 0.0662 0.2745 -0.6202
C13 C 0.1588(4) 0.4484(4) -0.5902(3)
H7 H 0.0878 0.4856 -0.5775
C14 C 0.2749(4) 0.5199(3) -0.5846(3)
H8 H 0.2829 0.6060 -0.5696
C15 C 0.3793(4) 0.4656(3) -0.6008(3)
H9 H 0.4588 0.5145 -0.5975
C16 C 0.3671(3) 0.3396(3) -0.6219(3)
H10 H 0.4383 0.3019 -0.6309
C17 C 0.4212(3) 0.1638(3) -0.2632(3)
H11 H 0.3602 0.0880 -0.2682
H12 H 0.5044 0.1409 -0.2670
C18 C 0.5412(3) 0.3714(3) -0.1352(3)
C19 C 0.6600(4) 0.3437(3) -0.1362(3)
H13 H 0.6718 0.2622 -0.1368
C20 C 0.7613(4) 0.4353(4) -0.1364(3)
H14 H 0.8424 0.4163 -0.1388
C21 C 0.7433(4) 0.5550(4) -0.1330(3)
H15 H 0.8124 0.6178 -0.1328
C22 C 0.6261(4) 0.5826(3) -0.1301(3)
H16 H 0.6146 0.6647 -0.1264
C23 C 0.5233(3) 0.4904(3) -0.1324(3)
H17 H 0.4421 0.5093 -0.1320
C24 C 0.1162(3) -0.0244(3) -0.9042(3)
C25 C 0.1363(3) -0.1369(3) -0.9570(3)
H18 H 0.2141 -0.1459 -0.9857
C26 C 0.3147(3) 0.0789(3) -0.7718(3)
H19 H 0.3294 -0.0063 -0.7822
H20 H 0.3962 0.1325 -0.7626
C27 C -0.0726(3) -0.2217(3) -0.9230(3)
H21 H -0.1373 -0.2897 -0.9286
C28 C -0.0911(3) -0.1097(4) -0.8713(3)
H22 H -0.1685 -0.1010 -0.8416
C29 C 0.0402(4) -0.2353(3) -0.9667(3)
H23 H 0.0517 -0.3122 -1.0034
C30 C 0.0030(3) -0.0096(3) -0.8625(3)
H24 H -0.0100 0.0679 -0.8283
Ag1A Ag 0.59998(2) -0.06425(2) -0.471000(19)
Ag2A Ag 0.57861(2) -0.09363(2) 0.015380(18)
Ag2_2 Ag 0.42139(2) 0.09363(2) -1.015380(18)
Ag2A_2 Ag 0.57861(2) -0.09363(2) -0.984620(18)
S4_2 S 0.23693(7) 0.10402(7) 0.11245(6)
O2A O 0.2965(2) -0.1124(2) -0.4805(2)
O3A O 0.3394(2) -0.0546(2) -0.14904(19)
O4_2 O 0.5635(2) 0.2011(2) 0.1074(2)
loop_
_geom_bond_atom_site_label_1
_geom_bond_atom_site_label_2
_geom_bond_site_symmetry_1
_geom_bond_site_symmetry_2
Ag1 S1 1_555 1_555
Ag2 S3 1_555 1_555
S1 C5 1_555 1_555
S2 Ag1 1_555 1_555
S3 C17 1_555 1_555
S4 C24 1_555 1_555
F1 C2 1_555 1_555
F2 C2 1_555 1_555
F3 C3 1_555 1_555
F4 C3 1_555 1_555
O1 Ag1 1_555 1_555
O2 C1 1_555 1_555
O3 C4 1_555 1_555
O4 C4 1_555 1_555
C1 O1 1_555 1_555
C2 C1 1_555 1_555
C3 C2 1_555 1_555
C4 C3 1_555 1_555
C5 C6 1_555 1_555
C6 H1 1_555 1_555
C7 C6 1_555 1_555
H2 C7 1_555 1_555
C8 C7 1_555 1_555
H3 C8 1_555 1_555
C9 C8 1_555 1_555
H4 C9 1_555 1_555
C10 C5 1_555 1_555
H5 C10 1_555 1_555
C11 S2 1_555 1_555
C12 C11 1_555 1_555
H6 C12 1_555 1_555
C13 C12 1_555 1_555
H7 C13 1_555 1_555
C14 C13 1_555 1_555
H8 C14 1_555 1_555
C15 C14 1_555 1_555
H9 C15 1_555 1_555
C16 C11 1_555 1_555
H10 C16 1_555 1_555
C17 S1 1_555 1_555
H11 C17 1_555 1_555
H12 C17 1_555 1_555
C18 S3 1_555 1_555
C19 C18 1_555 1_555
H13 C19 1_555 1_555
C20 C19 1_555 1_555
H14 C20 1_555 1_555
C21 C20 1_555 1_555
H15 C21 1_555 1_555
C22 C21 1_555 1_555
H16 C22 1_555 1_555
C23 C18 1_555 1_555
H17 C23 1_555 1_555
C24 C25 1_555 1_555
C25 H18 1_555 1_555
C26 S2 1_555 1_555
H19 C26 1_555 1_555
H20 C26 1_555 1_555
C27 H21 1_555 1_555
C28 C27 1_555 1_555
H22 C28 1_555 1_555
C29 C25 1_555 1_555
H23 C29 1_555 1_555
C30 C24 1_555 1_555
H24 C30 1_555 1_555
Ag1A Ag1 1_555 1_555
Ag2A Ag2 1_555 1_555
Ag2_2 S4 1_555 1_555
Ag2A_2 O3 1_555 1_555
S4_2 Ag2 1_555 1_555
O2A Ag1 1_555 1_555
O3A Ag2 1_555 1_555
O4_2 Ag2 1_555 1_555
S4 C26 1_555 1_555
O2 Ag1A 1_555 1_555
O4 Ag2_2 1_555 1_555
C9 C10 1_555 1_555
C15 C16 1_555 1_555
C22 C23 1_555 1_555
C27 C29 1_555 1_555
C28 C30 1_555 1_555
Ag2_2 Ag2A_2 1_555 1_555

#END
