
#######################################################################
#
#                 Cambridge Crystallographic Data Centre
#                                CCDC 
#
#######################################################################
#
# If this CIF has been generated from an entry in the Cambridge 
# Structural Database, then it will include bibliographic, chemical, 
# crystal, experimental, refinement or atomic coordinate data resulting 
# from the CCDC's data processing and validation procedures.
#
#######################################################################

data_DATSOH
_symmetry_cell_setting           triclinic
_symmetry_space_group_name_H-M   'P -1'
_symmetry_Int_Tables_number      2
_space_group_name_Hall           '-P 1'
loop_
_symmetry_equiv_pos_site_id
_symmetry_equiv_pos_as_xyz
1 x,y,z
2 -x,-y,-z
_cell_length_a                   6.92240(10)
_cell_length_b                   11.1849(2)
_cell_length_c                   12.8590(2)
_cell_angle_alpha                87.8310(10)
_cell_angle_beta                 84.0590(10)
_cell_angle_gamma                76.0270(10)
_cell_volume                     960.89
loop_
_atom_site_label
_atom_site_type_symbol
_atom_site_fract_x
_atom_site_fract_y
_atom_site_fract_z
Ag1 Ag -0.53891(2) 0.366390(15) -0.497080(13)
S1 S 0.22848(9) 0.21389(6) -0.49895(5)
S2 S -0.21156(9) 0.23247(6) -0.43464(5)
F1 F -0.1561(3) 0.53861(16) -0.83683(14)
F2 F -0.2755(3) 0.3821(2) -0.86666(14)
F3 F 0.0070(4) 0.2350(2) -0.7541(2)
F4 F 0.1282(3) 0.3899(3) -0.72590(16)
F5 F 0.2047(4) 0.4234(2) -0.9332(2)
F6 F 0.3366(4) 0.2453(3) -0.8801(2)
F7 F 0.0851(4) 0.2747(4) -0.9652(2)
O1 O -0.4363(3) 0.38930(18) -0.67278(14)
O2 O -0.2475(3) 0.51482(17) -0.63007(14)
C1 C -0.3037(4) 0.4459(2) -0.6885(2)
C2 C -0.1799(4) 0.4288(2) -0.7982(2)
C3 C 0.0287(5) 0.3435(3) -0.7927(2)
C4 C 0.1655(5) 0.3204(3) -0.8956(2)
C5 C 0.2769(4) 0.1294(2) -0.3799(2)
C6 C 0.2750(4) 0.1895(2) -0.2872(2)
H1 H 0.2496 0.2769 -0.2864
C7 C 0.3103(4) 0.1216(3) -0.1963(2)
H2 H 0.3056 0.1623 -0.1322
C8 C 0.3527(4) -0.0064(3) -0.1985(2)
H3 H 0.3779 -0.0529 -0.1359
C9 C 0.3584(5) -0.0663(3) -0.2908(3)
H4 H 0.3900 -0.1538 -0.2919
C10 C 0.3175(4) 0.0016(3) -0.3828(2)
H5 H 0.3175 -0.0390 -0.4463
C11 C -0.0148(4) 0.3146(2) -0.4617(2)
H6 H -0.0505 0.3754 -0.5187
H7 H -0.0066 0.3605 -0.3986
C12 C -0.2268(4) 0.2154(2) -0.2958(2)
C13 C -0.2862(4) 0.3181(3) -0.2322(2)
H8 H -0.3200 0.3984 -0.2622
C14 C -0.2956(5) 0.3020(3) -0.1243(2)
H9 H -0.3344 0.3716 -0.0800
C15 C -0.2483(5) 0.1844(3) -0.0814(3)
H10 H -0.2541 0.1736 -0.0076
C16 C -0.1929(5) 0.0825(3) -0.1451(3)
H11 H -0.1620 0.0021 -0.1150
C17 C -0.1822(4) 0.0975(3) -0.2531(2)
H12 H -0.1449 0.0277 -0.2971
Ag1A Ag -0.46109(2) 0.633610(15) -0.502920(13)
Ag1_2 Ag 0.46109(2) 0.366390(15) -0.497080(13)
S1_2 S -0.77152(9) 0.21389(6) -0.49895(5)
O2A O -0.7525(3) 0.48518(17) -0.36993(14)
loop_
_geom_bond_atom_site_label_1
_geom_bond_atom_site_label_2
_geom_bond_site_symmetry_1
_geom_bond_site_symmetry_2
Ag1 S2 1_555 1_555
S1 C5 1_555 1_555
S2 C11 1_555 1_555
F1 C2 1_555 1_555
F2 C2 1_555 1_555
F3 C3 1_555 1_555
F4 C3 1_555 1_555
F5 C4 1_555 1_555
F6 C4 1_555 1_555
F7 C4 1_555 1_555
O1 Ag1 1_555 1_555
O2 C1 1_555 1_555
C1 O1 1_555 1_555
C2 C1 1_555 1_555
C3 C2 1_555 1_555
C4 C3 1_555 1_555
C5 C6 1_555 1_555
C6 H1 1_555 1_555
C7 C6 1_555 1_555
H2 C7 1_555 1_555
C8 C7 1_555 1_555
H3 C8 1_555 1_555
C9 C8 1_555 1_555
H4 C9 1_555 1_555
C10 C5 1_555 1_555
H5 C10 1_555 1_555
C11 S1 1_555 1_555
H6 C11 1_555 1_555
H7 C11 1_555 1_555
C12 S2 1_555 1_555
C13 C12 1_555 1_555
H8 C13 1_555 1_555
C14 C13 1_555 1_555
H9 C14 1_555 1_555
C15 C14 1_555 1_555
H10 C15 1_555 1_555
C16 C15 1_555 1_555
H11 C16 1_555 1_555
C17 C12 1_555 1_555
H12 C17 1_555 1_555
Ag1A Ag1 1_555 1_555
Ag1_2 S1 1_555 1_555
S1_2 Ag1 1_555 1_555
O2A Ag1 1_555 1_555
O2 Ag1A 1_555 1_555
C9 C10 1_555 1_555
C16 C17 1_555 1_555

#END
