
#######################################################################
#
#                 Cambridge Crystallographic Data Centre
#                                CCDC 
#
#######################################################################
#
# If this CIF has been generated from an entry in the Cambridge 
# Structural Database, then it will include bibliographic, chemical, 
# crystal, experimental, refinement or atomic coordinate data resulting 
# from the CCDC's data processing and validation procedures.
#
#######################################################################

data_DATYOM01
_symmetry_cell_setting           tetragonal
_symmetry_space_group_name_H-M   'P -4 21 c'
_symmetry_Int_Tables_number      114
_space_group_name_Hall           'P -4 2n'
loop_
_symmetry_equiv_pos_site_id
_symmetry_equiv_pos_as_xyz
1 x,y,z
2 -x,-y,z
3 y,-x,-z
4 -y,x,-z
5 1/2-x,1/2+y,1/2-z
6 1/2+x,1/2-y,1/2-z
7 1/2-y,1/2-x,1/2+z
8 1/2+y,1/2+x,1/2+z
_cell_length_a                   8.0820(10)
_cell_length_b                   8.0820(10)
_cell_length_c                   9.542(2)
_cell_angle_alpha                90
_cell_angle_beta                 90
_cell_angle_gamma                90
_cell_volume                     623.271
loop_
_atom_site_label
_atom_site_type_symbol
_atom_site_fract_x
_atom_site_fract_y
_atom_site_fract_z
Mn1 Mn 0.5000 0.5000 0.0000
O1 O 0.71889(19) 0.34602(19) 0.02796(12)
O2 O 0.76215(19) 0.12818(19) -0.10992(14)
O3 O 0.5000 0.5000 0.22467(19)
N1 N 1.0000 0.5000 -0.0653(2)
C1 C 0.7915(3) 0.2724(3) -0.0705(2)
C2 C 0.9208(3) 0.3692(3) -0.1523(2)
H1 H 1.0052 0.2936 -0.1858
H2 H 0.8689 0.4200 -0.2332
H3 H 1.077(4) 0.436(4) -0.005(3)
H4 H 0.452(5) 0.578(4) 0.273(4)
C2A C 1.0792(3) 0.6308(3) -0.1523(2)
C1A C 1.2085(3) 0.7276(3) -0.0705(2)
O1A O 1.28111(19) 0.65398(19) 0.02796(12)
O2A O 1.23785(19) 0.87182(19) -0.10992(14)
H1A H 0.9948 0.7064 -0.1858
H2A H 1.1311 0.5800 -0.2332
H3A H 0.923(4) 0.564(4) -0.005(3)
H4A H 0.548(5) 0.422(4) 0.273(4)
O1A_2 O 0.28111(19) 0.65398(19) 0.02796(12)
O2A_2 O 0.23785(19) 0.87182(19) -0.10992(14)
N1A N 0.0000 0.5000 -0.0653(2)
C1A_2 C 0.2085(3) 0.7276(3) -0.0705(2)
C2A_2 C 0.0792(3) 0.6308(3) -0.1523(2)
H1A_2 H -0.0052 0.7064 -0.1858
H2A_2 H 0.1311 0.5800 -0.2332
H3A_2 H -0.077(4) 0.564(4) -0.005(3)
C2_2 C -0.0792(3) 0.3692(3) -0.1523(2)
C1_2 C -0.2085(3) 0.2724(3) -0.0705(2)
O1_2 O -0.28111(19) 0.34602(19) 0.02796(12)
O2_2 O -0.23785(19) 0.12818(19) -0.10992(14)
H1_2 H 0.0052 0.2936 -0.1858
H2_2 H -0.1311 0.4200 -0.2332
H3_2 H 0.077(4) 0.436(4) -0.005(3)
O3B O 0.5000 0.5000 -0.22467(19)
H4B H 0.578(4) 0.548(5) -0.273(4)
H4C H 0.422(4) 0.452(5) -0.273(4)
O1B O 0.34602(19) 0.28111(19) -0.02796(12)
O1C O 0.65398(19) 0.71889(19) -0.02796(12)
Mn1_2 Mn 1.5000 0.5000 0.0000
Mn1_3 Mn -0.5000 0.5000 0.0000
loop_
_geom_bond_atom_site_label_1
_geom_bond_atom_site_label_2
_geom_bond_site_symmetry_1
_geom_bond_site_symmetry_2
Mn1 O1 1_555 1_555
O1 C1 1_555 1_555
O2 C1 1_555 1_555
O3 Mn1 1_555 1_555
N1 C2 1_555 1_555
C1 C2 1_555 1_555
C2 H1 1_555 1_555
H2 C2 1_555 1_555
H3 N1 1_555 1_555
H4 O3 1_555 1_555
C2A N1 1_555 1_555
C1A C2A 1_555 1_555
O1A C1A 1_555 1_555
O2A C1A 1_555 1_555
H1A C2A 1_555 1_555
H2A C2A 1_555 1_555
H3A N1 1_555 1_555
H4A O3 1_555 1_555
O1A_2 Mn1 1_555 1_555
O2A_2 C1A_2 1_555 1_555
N1A C2A_2 1_555 1_555
C1A_2 O1A_2 1_555 1_555
C2A_2 C1A_2 1_555 1_555
H1A_2 C2A_2 1_555 1_555
H2A_2 C2A_2 1_555 1_555
H3A_2 N1A 1_555 1_555
C2_2 N1A 1_555 1_555
C1_2 C2_2 1_555 1_555
O1_2 C1_2 1_555 1_555
O2_2 C1_2 1_555 1_555
H1_2 C2_2 1_555 1_555
H2_2 C2_2 1_555 1_555
H3_2 N1A 1_555 1_555
O3B Mn1 1_555 1_555
H4B O3B 1_555 1_555
H4C O3B 1_555 1_555
O1B Mn1 1_555 1_555
O1C Mn1 1_555 1_555
Mn1_2 O1A 1_555 1_555
Mn1_3 O1_2 1_555 1_555

#END
