
#######################################################################
#
#                 Cambridge Crystallographic Data Centre
#                                CCDC 
#
#######################################################################
#
# If this CIF has been generated from an entry in the Cambridge 
# Structural Database, then it will include bibliographic, chemical, 
# crystal, experimental, refinement or atomic coordinate data resulting 
# from the CCDC's data processing and validation procedures.
#
#######################################################################

data_DATYOM05
_symmetry_cell_setting           tetragonal
_symmetry_space_group_name_H-M   'P -4 21 c'
_symmetry_Int_Tables_number      114
_space_group_name_Hall           'P -4 2n'
loop_
_symmetry_equiv_pos_site_id
_symmetry_equiv_pos_as_xyz
1 x,y,z
2 -x,-y,z
3 y,-x,-z
4 -y,x,-z
5 1/2-x,1/2+y,1/2-z
6 1/2+x,1/2-y,1/2-z
7 1/2-y,1/2-x,1/2+z
8 1/2+y,1/2+x,1/2+z
_cell_length_a                   8.0934(2)
_cell_length_b                   8.0934(2)
_cell_length_c                   9.5446(4)
_cell_angle_alpha                90
_cell_angle_beta                 90
_cell_angle_gamma                90
_cell_volume                     625.201
loop_
_atom_site_label
_atom_site_type_symbol
_atom_site_fract_x
_atom_site_fract_y
_atom_site_fract_z
Mn1 Mn 0.5000 0.5000 0.5000
O1 O 0.5000 0.5000 0.72439(12)
N1 N 0.0000 0.5000 0.43458(12)
O2 O 0.23751(11) 0.87191(11) 0.38989(8)
O3 O 0.28107(10) 0.65386(10) 0.52790(8)
C1 C 0.20810(13) 0.72775(13) 0.42966(11)
C2 C 0.07862(13) 0.63077(13) 0.34776(11)
H1 H -0.0076 0.7077 0.3137
H2 H 0.1314 0.5792 0.2651
H3 H -0.0733 0.5438 0.4922
H4 H 0.4728 0.5763 0.7766
Mn1_2 Mn -0.5000 0.5000 0.5000
Mn1_3 Mn 1.5000 0.5000 0.5000
O1B O 0.5000 0.5000 0.27561(12)
N1_2 N 1.0000 0.5000 0.43458(12)
O2A O -0.23751(11) 0.12809(11) 0.38989(8)
O2A_2 O 0.76249(11) 0.12809(11) 0.38989(8)
O2_2 O 1.23751(11) 0.87191(11) 0.38989(8)
O3A O -0.28107(10) 0.34614(10) 0.52790(8)
O3A_2 O 0.71893(10) 0.34614(10) 0.52790(8)
O3_2 O 1.28107(10) 0.65386(10) 0.52790(8)
O3B O 0.65386(10) 0.71893(10) 0.47210(8)
O3C O 0.34614(10) 0.28107(10) 0.47210(8)
C1A C -0.20810(13) 0.27225(13) 0.42966(11)
C1A_2 C 0.79190(13) 0.27225(13) 0.42966(11)
C1_2 C 1.20810(13) 0.72775(13) 0.42966(11)
C2A C -0.07862(13) 0.36923(13) 0.34776(11)
C2A_2 C 0.92138(13) 0.36923(13) 0.34776(11)
C2_2 C 1.07862(13) 0.63077(13) 0.34776(11)
H1A H 0.0076 0.2923 0.3137
H1A_2 H 1.0076 0.2923 0.3137
H1_2 H 0.9924 0.7077 0.3137
H2A H -0.1314 0.4208 0.2651
H2A_2 H 0.8686 0.4208 0.2651
H2_2 H 1.1314 0.5792 0.2651
H3A H 0.0733 0.4562 0.4922
H3A_2 H 1.0733 0.4562 0.4922
H3_2 H 0.9267 0.5438 0.4922
H4A H 0.5272 0.4237 0.7766
H4B H 0.5763 0.5272 0.2234
H4C H 0.4237 0.4728 0.2234
loop_
_geom_bond_atom_site_label_1
_geom_bond_atom_site_label_2
_geom_bond_site_symmetry_1
_geom_bond_site_symmetry_2
Mn1 O1 1_555 1_555
O1 H4 1_555 1_555
N1 C2 1_555 1_555
O2 C1 1_555 1_555
O3 Mn1 1_555 1_555
C1 O3 1_555 1_555
C2 C1 1_555 1_555
H1 C2 1_555 1_555
H2 C2 1_555 1_555
H3 N1 1_555 1_555
Mn1_2 O3A 1_555 1_555
Mn1_3 O3_2 1_555 1_555
O1B Mn1 1_555 1_555
N1_2 C2A_2 1_555 1_555
O2A C1A 1_555 1_555
O2A_2 C1A_2 1_555 1_555
O2_2 C1_2 1_555 1_555
O3A C1A 1_555 1_555
O3A_2 Mn1 1_555 1_555
O3_2 C1_2 1_555 1_555
O3B Mn1 1_555 1_555
O3C Mn1 1_555 1_555
C1A C2A 1_555 1_555
C1A_2 O3A_2 1_555 1_555
C1_2 C2_2 1_555 1_555
C2A N1 1_555 1_555
C2A_2 C1A_2 1_555 1_555
C2_2 N1_2 1_555 1_555
H1A C2A 1_555 1_555
H1A_2 C2A_2 1_555 1_555
H1_2 C2_2 1_555 1_555
H2A C2A 1_555 1_555
H2A_2 C2A_2 1_555 1_555
H2_2 C2_2 1_555 1_555
H3A N1 1_555 1_555
H3A_2 N1_2 1_555 1_555
H3_2 N1_2 1_555 1_555
H4A O1 1_555 1_555
H4B O1B 1_555 1_555
H4C O1B 1_555 1_555

#END
