
#######################################################################
#
#                 Cambridge Crystallographic Data Centre
#                                CCDC 
#
#######################################################################
#
# If this CIF has been generated from an entry in the Cambridge 
# Structural Database, then it will include bibliographic, chemical, 
# crystal, experimental, refinement or atomic coordinate data resulting 
# from the CCDC's data processing and validation procedures.
#
#######################################################################

data_DATYOM
_symmetry_cell_setting           tetragonal
_symmetry_space_group_name_H-M   'P -4 21 c'
_symmetry_Int_Tables_number      114
_space_group_name_Hall           'P -4 2n'
loop_
_symmetry_equiv_pos_site_id
_symmetry_equiv_pos_as_xyz
1 x,y,z
2 -y,x,-z
3 -x,-y,z
4 y,-x,-z
5 1/2-x,1/2+y,1/2-z
6 1/2+y,1/2+x,1/2+z
7 1/2+x,1/2-y,1/2-z
8 1/2-y,1/2-x,1/2+z
_cell_length_a                   8.088(5)
_cell_length_b                   8.088(5)
_cell_length_c                   9.592(5)
_cell_angle_alpha                90
_cell_angle_beta                 90
_cell_angle_gamma                90
_cell_volume                     627.468
loop_
_atom_site_label
_atom_site_type_symbol
_atom_site_fract_x
_atom_site_fract_y
_atom_site_fract_z
Mn1 Mn 0.0000 0.0000 0.0000
O1 O 0.1541(7) 0.2204(7) 0.0288(5)
O2 O 0.3773(9) 0.2630(9) -0.1197(7)
O3 O 0.0000 0.0000 0.2248(6)
N1 N 0.0000 0.5000 -0.0687(6)
C1 C 0.2242(9) 0.2946(8) -0.0762(7)
C2 C 0.1304(9) 0.4239(9) -0.1615(8)
H1 H 0.191(12) 0.524(12) -0.208(9)
H2 H 0.089(10) 0.384(10) -0.245(8)
H3 H 0.064(10) 0.591(10) -0.016(8)
H4 H -0.116(12) 0.003(17) 0.279(10)
O1A O -0.2204(7) 0.1541(7) -0.0288(5)
O1B O -0.1541(7) -0.2204(7) 0.0288(5)
O1C O 0.2204(7) -0.1541(7) -0.0288(5)
O3A O 0.0000 0.0000 -0.2248(6)
H4B H 0.116(12) -0.003(17) 0.279(10)
C2B C -0.1304(9) 0.5761(9) -0.1615(8)
H3B H -0.064(10) 0.409(10) -0.016(8)
C1A C -0.2946(8) 0.2242(9) 0.0762(7)
H4A H -0.003(17) -0.116(12) -0.279(10)
H4C H 0.003(17) 0.116(12) -0.279(10)
C1B C -0.2242(9) 0.7054(8) -0.0762(7)
H1B H -0.191(12) 0.476(12) -0.208(9)
H2B H -0.089(10) 0.616(10) -0.245(8)
O2A O -0.2630(9) 0.3773(9) 0.1197(7)
C2A C -0.4239(9) 0.1304(9) 0.1615(8)
N1A N -0.5000 0.0000 0.0687(6)
H1A H -0.524(12) 0.191(12) 0.208(9)
H2A H -0.384(10) 0.089(10) 0.245(8)
C2C C -0.5761(9) -0.1304(9) 0.1615(8)
H3A H -0.591(10) 0.064(10) 0.016(8)
H3C H -0.409(10) -0.064(10) 0.016(8)
O1B_2 O -0.1541(7) 0.7796(7) 0.0288(5)
O2B O -0.3773(9) 0.7370(9) -0.1197(7)
C1C C -0.7054(8) -0.2242(9) 0.0762(7)
H1C H -0.476(12) -0.191(12) 0.208(9)
H2C H -0.616(10) -0.089(10) 0.245(8)
Mn1_2 Mn 0.0000 1.0000 0.0000
O1C_2 O -0.7796(7) -0.1541(7) -0.0288(5)
O2C O -0.7370(9) -0.3773(9) 0.1197(7)
Mn1_3 Mn -1.0000 0.0000 0.0000
loop_
_geom_bond_atom_site_label_1
_geom_bond_atom_site_label_2
_geom_bond_site_symmetry_1
_geom_bond_site_symmetry_2
Mn1 O1 1_555 1_555
O1 C1 1_555 1_555
O2 C1 1_555 1_555
O3 Mn1 1_555 1_555
N1 C2 1_555 1_555
C1 C2 1_555 1_555
C2 H1 1_555 1_555
H2 C2 1_555 1_555
H3 N1 1_555 1_555
H4 O3 1_555 1_555
O1A Mn1 1_555 1_555
O1B Mn1 1_555 1_555
O1C Mn1 1_555 1_555
O3A Mn1 1_555 1_555
H4B O3 1_555 1_555
C2B N1 1_555 1_555
H3B N1 1_555 1_555
C1A O1A 1_555 1_555
H4A O3A 1_555 1_555
H4C O3A 1_555 1_555
C1B C2B 1_555 1_555
H1B C2B 1_555 1_555
H2B C2B 1_555 1_555
O2A C1A 1_555 1_555
C2A C1A 1_555 1_555
N1A C2A 1_555 1_555
H1A C2A 1_555 1_555
H2A C2A 1_555 1_555
C2C N1A 1_555 1_555
H3A N1A 1_555 1_555
H3C N1A 1_555 1_555
O1B_2 C1B 1_555 1_555
O2B C1B 1_555 1_555
C1C C2C 1_555 1_555
H1C C2C 1_555 1_555
H2C C2C 1_555 1_555
Mn1_2 O1B_2 1_555 1_555
O1C_2 C1C 1_555 1_555
O2C C1C 1_555 1_555
Mn1_3 O1C_2 1_555 1_555

#END
