
#######################################################################
#
#                 Cambridge Crystallographic Data Centre
#                                CCDC 
#
#######################################################################
#
# If this CIF has been generated from an entry in the Cambridge 
# Structural Database, then it will include bibliographic, chemical, 
# crystal, experimental, refinement or atomic coordinate data resulting 
# from the CCDC's data processing and validation procedures.
#
#######################################################################

data_DATYOM02
_symmetry_cell_setting           tetragonal
_symmetry_space_group_name_H-M   'P -4 21 c'
_symmetry_Int_Tables_number      114
_space_group_name_Hall           'P -4 2n'
loop_
_symmetry_equiv_pos_site_id
_symmetry_equiv_pos_as_xyz
1 x,y,z
2 -x,-y,z
3 y,-x,-z
4 -y,x,-z
5 1/2-x,1/2+y,1/2-z
6 1/2+x,1/2-y,1/2-z
7 1/2-y,1/2-x,1/2+z
8 1/2+y,1/2+x,1/2+z
_cell_length_a                   8.0990(19)
_cell_length_b                   8.0990(19)
_cell_length_c                   9.605(3)
_cell_angle_alpha                90
_cell_angle_beta                 90
_cell_angle_gamma                90
_cell_volume                     630.028
loop_
_atom_site_label
_atom_site_type_symbol
_atom_site_fract_x
_atom_site_fract_y
_atom_site_fract_z
Mn1 Mn 0.0000 0.0000 0.0000
O1 O 0.1545(5) 0.2187(5) -0.0257(4)
O2 O 0.3716(6) 0.2642(6) 0.1116(5)
O3 O 0.0000 0.0000 -0.2242(5)
C1 C 0.1300(8) 0.4224(8) 0.1516(7)
H1 H 0.070(6) 0.359(7) 0.240(6)
H2 H 0.206(11) 0.513(14) 0.202(7)
C2 C 0.2278(8) 0.2919(7) 0.0717(7)
N1 N 0.0000 0.5000 0.0662(8)
H3 H -0.047(10) 0.434(10) 0.006(8)
C1A C -0.1300(8) 0.5776(8) 0.1516(7)
H1A H -0.070(6) 0.641(7) 0.240(6)
H2A H -0.206(11) 0.487(14) 0.202(7)
C2A C -0.2278(8) 0.7081(7) 0.0717(7)
O1A O -0.1545(5) 0.7813(5) -0.0257(4)
O2A O -0.3716(6) 0.7358(6) 0.1116(5)
H3A H 0.047(10) 0.566(10) 0.006(8)
O1A_2 O -0.1545(5) -0.2187(5) -0.0257(4)
O2A_2 O -0.3716(6) -0.2642(6) 0.1116(5)
C1A_2 C -0.1300(8) -0.4224(8) 0.1516(7)
H1A_2 H -0.070(6) -0.359(7) 0.240(6)
H2A_2 H -0.206(11) -0.513(14) 0.202(7)
C2A_2 C -0.2278(8) -0.2919(7) 0.0717(7)
N1A N 0.0000 -0.5000 0.0662(8)
H3A_2 H 0.047(10) -0.434(10) 0.006(8)
C1_2 C 0.1300(8) -0.5776(8) 0.1516(7)
H1_2 H 0.070(6) -0.641(7) 0.240(6)
H2_2 H 0.206(11) -0.487(14) 0.202(7)
C2_2 C 0.2278(8) -0.7081(7) 0.0717(7)
O1_2 O 0.1545(5) -0.7813(5) -0.0257(4)
O2_2 O 0.3716(6) -0.7358(6) 0.1116(5)
H3_2 H -0.047(10) -0.566(10) 0.006(8)
O3B O 0.0000 0.0000 0.2242(5)
O1B O 0.2187(5) -0.1545(5) 0.0257(4)
O1C O -0.2187(5) 0.1545(5) 0.0257(4)
Mn1_2 Mn 0.0000 1.0000 0.0000
Mn1_3 Mn 0.0000 -1.0000 0.0000
loop_
_geom_bond_atom_site_label_1
_geom_bond_atom_site_label_2
_geom_bond_site_symmetry_1
_geom_bond_site_symmetry_2
Mn1 O1 1_555 1_555
O1 C2 1_555 1_555
O2 C2 1_555 1_555
O3 Mn1 1_555 1_555
C1 H1 1_555 1_555
H2 C1 1_555 1_555
C2 C1 1_555 1_555
N1 C1 1_555 1_555
H3 N1 1_555 1_555
C1A N1 1_555 1_555
H1A C1A 1_555 1_555
H2A C1A 1_555 1_555
C2A C1A 1_555 1_555
O1A C2A 1_555 1_555
O2A C2A 1_555 1_555
H3A N1 1_555 1_555
O1A_2 Mn1 1_555 1_555
O2A_2 C2A_2 1_555 1_555
C1A_2 H1A_2 1_555 1_555
H2A_2 C1A_2 1_555 1_555
C2A_2 O1A_2 1_555 1_555
N1A C1A_2 1_555 1_555
H3A_2 N1A 1_555 1_555
C1_2 N1A 1_555 1_555
H1_2 C1_2 1_555 1_555
H2_2 C1_2 1_555 1_555
C2_2 C1_2 1_555 1_555
O1_2 C2_2 1_555 1_555
O2_2 C2_2 1_555 1_555
H3_2 N1A 1_555 1_555
O3B Mn1 1_555 1_555
O1B Mn1 1_555 1_555
O1C Mn1 1_555 1_555
Mn1_2 O1A 1_555 1_555
Mn1_3 O1_2 1_555 1_555
C1A_2 C2A_2 1_555 1_555

#END
