
#######################################################################
#
#                 Cambridge Crystallographic Data Centre
#                                CCDC 
#
#######################################################################
#
# If this CIF has been generated from an entry in the Cambridge 
# Structural Database, then it will include bibliographic, chemical, 
# crystal, experimental, refinement or atomic coordinate data resulting 
# from the CCDC's data processing and validation procedures.
#
#######################################################################

data_DAVGOW
_symmetry_cell_setting           monoclinic
_symmetry_space_group_name_H-M   'P 21/n'
_symmetry_Int_Tables_number      14
_space_group_name_Hall           '-P 2yn'
loop_
_symmetry_equiv_pos_site_id
_symmetry_equiv_pos_as_xyz
1 x,y,z
2 1/2-x,1/2+y,1/2-z
3 -x,-y,-z
4 1/2+x,1/2-y,1/2+z
_cell_length_a                   23.41(1)
_cell_length_b                   10.538(7)
_cell_length_c                   8.372(6)
_cell_angle_alpha                90
_cell_angle_beta                 91.3(1)
_cell_angle_gamma                90
_cell_volume                     2064.8
loop_
_atom_site_label
_atom_site_type_symbol
_atom_site_fract_x
_atom_site_fract_y
_atom_site_fract_z
Cu1 Cu 0.0789 0.2547(1) 0.2803(1)
N1 N 0.0527(2) 0.1839(6) 0.0675(7)
N2 N -0.0032(2) 0.2717(5) 0.3018(7)
N3 N 0.0754(2) 0.3247(6) 0.5062(7)
N4 N 0.2525(2) 0.5280(6) 0.1718(8)
O1 O 0.1026(2) 0.4389(5) 0.1851(7)
O2 O 0.1475(3) 0.6238(6) 0.1977(9)
O3 O 0.3479(2) 0.6635(5) 0.2049(6)
O4 O 0.4030(2) 0.5234(6) 0.0796(7)
C1 C 0.0864(3) 0.1393(7) -0.0486(9)
C2 C 0.0645(4) 0.0935(7) -0.1942(9)
C3 C 0.0059(4) 0.0954(8) -0.2204(9)
C4 C -0.0299(3) 0.1432(8) -0.1016(10)
C5 C -0.0053(3) 0.1871(7) 0.0413(9)
C6 C -0.0377(3) 0.2341(8) 0.1795(8)
C7 C -0.0971(3) 0.2343(8) 0.1939(10)
C8 C -0.1185(3) 0.2742(8) 0.3412(11)
C9 C -0.0826(3) 0.3114(6) 0.4689(10)
C10 C -0.0235(3) 0.3108(7) 0.4421(9)
C11 C 0.0215(3) 0.3479(7) 0.5587(9)
C12 C 0.0111(4) 0.4032(7) 0.7064(9)
C13 C 0.0585(4) 0.4339(8) 0.8051(9)
C14 C 0.1130(4) 0.4098(8) 0.7533(10)
C15 C 0.1201(4) 0.3545(8) 0.6041(10)
C16 C 0.1464(3) 0.5076(8) 0.1849(9)
C17 C 0.2031(3) 0.4357(8) 0.1675(10)
C18 C 0.3087(3) 0.4662(8) 0.1199(9)
C19 C 0.3569(3) 0.5579(8) 0.1355(8)
H1 H 0.129 0.136 -0.028
H2 H 0.091 0.061 -0.280
H3 H -0.012 0.062 -0.323
H4 H -0.073 0.146 -0.120
H5 H -0.123 0.206 0.102
H6 H -0.161 0.277 0.355
H7 H -0.098 0.338 0.575
H8 H -0.029 0.421 0.741
H9 H 0.053 0.474 0.913
H10 H 0.147 0.432 0.824
H11 H 0.160 0.336 0.567
H12 H 0.208 0.372 0.258
H13 H 0.202 0.387 0.064
H14 H 0.302 0.437 0.006
H15 H 0.315 0.389 0.189
H16 H 0.258 0.560 0.283
O3A O 0.1521(2) 0.1635(5) 0.2951(6)
Cu1A Cu 0.4211 0.7547(1) 0.2197(1)
C20 C 0.2292(5) 0.0226(11) 0.9034(12)
C21 C 0.2334(5) -0.0205(12) 0.7702(16)
C22 C 0.2405(5) 0.1226(12) 0.9414(15)
O5 O 0.2119(5) -0.0545(10) 1.0031(12)
O6 O 0.2576(4) 0.1966(9) 0.5792(10)
loop_
_geom_bond_atom_site_label_1
_geom_bond_atom_site_label_2
_geom_bond_site_symmetry_1
_geom_bond_site_symmetry_2
Cu1 N1 1_555 1_555
N1 C1 1_555 1_555
N2 Cu1 1_555 1_555
N3 Cu1 1_555 1_555
N4 C17 1_555 1_555
O1 Cu1 1_555 1_555
O2 C16 1_555 1_555
O3 C19 1_555 1_555
O4 C19 1_555 1_555
C1 C2 1_555 1_555
C2 C3 1_555 1_555
C3 C4 1_555 1_555
C4 C5 1_555 1_555
C5 N1 1_555 1_555
C6 N2 1_555 1_555
C7 C6 1_555 1_555
C8 C7 1_555 1_555
C9 C8 1_555 1_555
C10 N2 1_555 1_555
C11 N3 1_555 1_555
C12 C11 1_555 1_555
C13 C12 1_555 1_555
C14 C13 1_555 1_555
C15 N3 1_555 1_555
C16 O1 1_555 1_555
C17 C16 1_555 1_555
C18 N4 1_555 1_555
C19 C18 1_555 1_555
C20 C21 1_555 1_555
C22 C20 1_555 1_555
O5 C20 1_555 1_555
H1 C1 1_555 1_555
H2 C2 1_555 1_555
H3 C3 1_555 1_555
H4 C4 1_555 1_555
H5 C7 1_555 1_555
H6 C8 1_555 1_555
H7 C9 1_555 1_555
H8 C12 1_555 1_555
H9 C13 1_555 1_555
H10 C14 1_555 1_555
H11 C15 1_555 1_555
H12 C17 1_555 1_555
H13 C17 1_555 1_555
H14 C18 1_555 1_555
H15 C18 1_555 1_555
H16 N4 1_555 1_555
O3A Cu1 1_555 1_555
Cu1A O3 1_555 1_555
C5 C6 1_555 1_555
C9 C10 1_555 1_555
C10 C11 1_555 1_555
C14 C15 1_555 1_555

#END
