
#######################################################################
#
#                 Cambridge Crystallographic Data Centre
#                                CCDC 
#
#######################################################################
#
# If this CIF has been generated from an entry in the Cambridge 
# Structural Database, then it will include bibliographic, chemical, 
# crystal, experimental, refinement or atomic coordinate data resulting 
# from the CCDC's data processing and validation procedures.
#
#######################################################################

data_DAVJOB
_symmetry_cell_setting           monoclinic
_symmetry_space_group_name_H-M   'P 21/c'
_symmetry_Int_Tables_number      14
_space_group_name_Hall           '-P 2ybc'
loop_
_symmetry_equiv_pos_site_id
_symmetry_equiv_pos_as_xyz
1 x,y,z
2 -x,1/2+y,1/2-z
3 -x,-y,-z
4 x,1/2-y,1/2+z
_cell_length_a                   19.0940(9)
_cell_length_b                   7.3781(4)
_cell_length_c                   8.0083(4)
_cell_angle_alpha                90
_cell_angle_beta                 101.134(4)
_cell_angle_gamma                90
_cell_volume                     1106.95
loop_
_atom_site_label
_atom_site_type_symbol
_atom_site_fract_x
_atom_site_fract_y
_atom_site_fract_z
Zn1 Zn 0.5000 0.5000 0.5000
C1 C 0.1749(3) 0.0636(7) 0.5510(7)
C2 C 0.1043(3) 0.0924(8) 0.4844(7)
H1 H 0.0718 -0.0029 0.4748
C3 C 0.0814(3) 0.2657(8) 0.4313(7)
C4 C 0.1284(3) 0.4055(8) 0.4432(8)
H2 H 0.1126 0.5208 0.4067
C5 C 0.2005(3) 0.3750(7) 0.5109(8)
H3 H 0.2326 0.4710 0.5195
C6 C 0.2248(2) 0.2063(6) 0.5648(6)
Cl1 Cl -0.00847(7) 0.2999(2) 0.3463(2)
Cl2 Cl 0.20321(8) -0.15017(19) 0.6236(2)
O1 O 0.29375(17) 0.1628(5) 0.6337(5)
C7 C 0.3466(2) 0.2951(6) 0.6218(6)
H4 H 0.3360 0.4065 0.6762
H5 H 0.3468 0.3211 0.5032
C8 C 0.4189(2) 0.2250(6) 0.7077(6)
O2 O 0.47285(17) 0.3077(5) 0.6776(4)
O3 O 0.42120(16) 0.0929(4) 0.8061(4)
O4 O 0.42668(17) 0.6833(5) 0.5671(4)
H6 H 0.4508 0.7411 0.6514
C9 C 0.3791(3) 0.7992(9) 0.4570(8)
H7 H 0.4059 0.8929 0.4145
H8 H 0.3461 0.8530 0.5189
H9 H 0.3534 0.7301 0.3635
Zn1A Zn 0.5000 0.0000 1.0000
Zn1A_2 Zn 0.5000 1.0000 1.0000
C1A C 0.8251(3) 0.5636(7) 0.9490(7)
C2A C 0.8957(3) 0.5924(8) 1.0156(7)
H1A H 0.9282 0.4971 1.0252
C3A C 0.9186(3) 0.7657(8) 1.0687(7)
C4A C 0.8716(3) 0.9055(8) 1.0568(8)
H2A H 0.8874 1.0208 1.0933
C5A C 0.7995(3) 0.8750(7) 0.9891(8)
H3A H 0.7674 0.9710 0.9805
C6A C 0.7752(2) 0.7063(6) 0.9352(6)
Cl1A Cl 1.00847(7) 0.7999(2) 1.1537(2)
Cl2A Cl 0.79679(8) 0.34983(19) 0.8764(2)
O1A O 0.70625(17) 0.6628(5) 0.8663(5)
C7A C 0.6534(2) 0.7951(6) 0.8782(6)
H4A H 0.6640 0.9065 0.8238
H5A H 0.6532 0.8211 0.9968
C8A C 0.5811(2) 0.7250(6) 0.7923(6)
O2A O 0.52715(17) 0.8077(5) 0.8224(4)
O2B O 0.52715(17) 0.6923(5) 0.3224(4)
O3A O 0.57880(16) 0.5929(4) 0.6939(4)
O3C O 0.42120(16) 0.4071(4) 0.3061(4)
O4B O 0.57332(17) 0.3167(5) 0.4329(4)
H6B H 0.5492 0.2589 0.3486
C9B C 0.6209(3) 0.2008(9) 0.5430(8)
H7B H 0.5941 0.1071 0.5855
H8B H 0.6539 0.1470 0.4811
H9B H 0.6466 0.2699 0.6365
loop_
_geom_bond_atom_site_label_1
_geom_bond_atom_site_label_2
_geom_bond_site_symmetry_1
_geom_bond_site_symmetry_2
Zn1 O2 1_555 1_555
C1 C2 1_555 1_555
C2 H1 1_555 1_555
C3 C2 1_555 1_555
C4 C3 1_555 1_555
H2 C4 1_555 1_555
C5 C4 1_555 1_555
H3 C5 1_555 1_555
C6 C1 1_555 1_555
Cl1 C3 1_555 1_555
Cl2 C1 1_555 1_555
O1 C6 1_555 1_555
C7 O1 1_555 1_555
H4 C7 1_555 1_555
H5 C7 1_555 1_555
C8 C7 1_555 1_555
O2 C8 1_555 1_555
O3 C8 1_555 1_555
O4 Zn1 1_555 1_555
H6 O4 1_555 1_555
C9 O4 1_555 1_555
H7 C9 1_555 1_555
H8 C9 1_555 1_555
H9 C9 1_555 1_555
Zn1A O3 1_555 1_555
Zn1A_2 O2A 1_555 1_555
C1A C2A 1_555 1_555
C2A H1A 1_555 1_555
C3A C2A 1_555 1_555
C4A C3A 1_555 1_555
H2A C4A 1_555 1_555
C5A C4A 1_555 1_555
H3A C5A 1_555 1_555
C6A C1A 1_555 1_555
Cl1A C3A 1_555 1_555
Cl2A C1A 1_555 1_555
O1A C6A 1_555 1_555
C7A O1A 1_555 1_555
H4A C7A 1_555 1_555
H5A C7A 1_555 1_555
C8A C7A 1_555 1_555
O2A C8A 1_555 1_555
O2B Zn1 1_555 1_555
O3A Zn1 1_555 1_555
O3C Zn1 1_555 1_555
O4B Zn1 1_555 1_555
H6B O4B 1_555 1_555
C9B O4B 1_555 1_555
H7B C9B 1_555 1_555
H8B C9B 1_555 1_555
H9B C9B 1_555 1_555
C5 C6 1_555 1_555
C5A C6A 1_555 1_555
C8A O3A 1_555 1_555

#END
