
#######################################################################
#
#                 Cambridge Crystallographic Data Centre
#                                CCDC 
#
#######################################################################
#
# If this CIF has been generated from an entry in the Cambridge 
# Structural Database, then it will include bibliographic, chemical, 
# crystal, experimental, refinement or atomic coordinate data resulting 
# from the CCDC's data processing and validation procedures.
#
#######################################################################

data_DAVKIV
_symmetry_cell_setting           triclinic
_symmetry_space_group_name_H-M   'P -1'
_symmetry_Int_Tables_number      2
_space_group_name_Hall           '-P 1'
loop_
_symmetry_equiv_pos_site_id
_symmetry_equiv_pos_as_xyz
1 x,y,z
2 -x,-y,-z
_cell_length_a                   9.7756(9)
_cell_length_b                   12.0232(11)
_cell_length_c                   12.7493(12)
_cell_angle_alpha                66.8900(10)
_cell_angle_beta                 86.717(2)
_cell_angle_gamma                84.285(2)
_cell_volume                     1371.11
loop_
_atom_site_label
_atom_site_type_symbol
_atom_site_fract_x
_atom_site_fract_y
_atom_site_fract_z
Ag1 Ag 0.27335(5) 0.44936(5) 0.09369(4)
Se1 Se 0.56655(6) 0.37227(6) -0.05620(5)
P1 P 0.29862(16) 0.24587(14) 0.24047(13)
Fe1 Fe 0.64382(8) 0.15336(8) 0.21179(7)
C1 C 0.6559(6) 0.2208(5) 0.0388(5)
C2 C 0.5919(6) 0.1093(6) 0.0828(5)
H1 H 0.5013 0.0977 0.0681
C3 C 0.6901(7) 0.0189(6) 0.1529(6)
H2 H 0.6770 -0.0649 0.1916
C4 C 0.8092(7) 0.0737(6) 0.1556(5)
H3 H 0.8888 0.0341 0.1985
C5 C 0.7905(6) 0.1971(5) 0.0839(5)
H4 H 0.8563 0.2549 0.0683
C6 C 0.4730(6) 0.2004(6) 0.2895(5)
C7 C 0.5346(6) 0.0836(6) 0.3614(5)
H5 H 0.4912 0.0099 0.3894
C8 C 0.6719(6) 0.0970(6) 0.3836(5)
H6 H 0.7357 0.0337 0.4287
C9 C 0.6967(6) 0.2206(6) 0.3269(5)
H7 H 0.7801 0.2549 0.3269
C10 C 0.5759(6) 0.2836(6) 0.2705(5)
H8 H 0.5643 0.3684 0.2266
C11 C 0.5873(7) 0.3590(6) -0.2036(5)
C12 C 0.6912(8) 0.4129(6) -0.2787(6)
H9 H 0.7557 0.4541 -0.2575
C13 C 0.7011(9) 0.4067(7) -0.3858(7)
H10 H 0.7724 0.4440 -0.4378
C14 C 0.6088(9) 0.3475(8) -0.4162(7)
H11 H 0.6122 0.3469 -0.4906
C15 C 0.5116(8) 0.2891(9) -0.3385(8)
H12 H 0.4524 0.2416 -0.3569
C16 C 0.4974(8) 0.2978(8) -0.2337(7)
H13 H 0.4251 0.2611 -0.1826
C17 C 0.2060(6) 0.2211(5) 0.3756(5)
C18 C 0.0822(6) 0.1654(5) 0.4041(5)
H14 H 0.0458 0.1343 0.3546
C19 C 0.0130(7) 0.1562(6) 0.5051(6)
H15 H -0.0700 0.1172 0.5253
C20 C 0.0639(7) 0.2031(7) 0.5756(6)
H16 H 0.0146 0.1991 0.6433
C21 C 0.1859(7) 0.2555(7) 0.5482(6)
H17 H 0.2224 0.2854 0.5985
C22 C 0.2561(7) 0.2654(6) 0.4496(6)
H18 H 0.3401 0.3031 0.4317
C23 C 0.2449(6) 0.1330(6) 0.1934(5)
C24 C 0.1961(7) 0.1728(7) 0.0840(6)
H19 H 0.1878 0.2571 0.0377
C25 C 0.1590(7) 0.0901(7) 0.0409(6)
H20 H 0.1275 0.1179 -0.0350
C26 C 0.1682(7) -0.0308(7) 0.1082(7)
H21 H 0.1415 -0.0869 0.0791
C27 C 0.2152(7) -0.0723(6) 0.2172(6)
H22 H 0.2225 -0.1568 0.2627
C28 C 0.2526(6) 0.0093(6) 0.2616(6)
H23 H 0.2831 -0.0192 0.3379
S1 S -0.07240(16) 0.49311(15) 0.14873(14)
O1 O 0.0386(4) 0.5657(4) 0.0898(4)
O2 O -0.0341(4) 0.3646(4) 0.1988(4)
O3 O -0.2026(4) 0.5264(4) 0.0929(4)
C29 C -0.1071(8) 0.5369(7) 0.2687(6)
F1 F -0.0039(5) 0.5058(5) 0.3395(4)
F2 F -0.1373(5) 0.6560(4) 0.2340(4)
F3 F -0.2170(4) 0.4847(5) 0.3311(4)
Ag1A Ag 0.72665(5) 0.55064(5) -0.09369(4)
Ag1A_2 Ag -0.27335(5) 0.55064(5) -0.09369(4)
Se1A Se 0.43345(6) 0.62773(6) 0.05620(5)
O3A O 0.2026(4) 0.4736(4) -0.0929(4)
loop_
_geom_bond_atom_site_label_1
_geom_bond_atom_site_label_2
_geom_bond_site_symmetry_1
_geom_bond_site_symmetry_2
Ag1 P1 1_555 1_555
Se1 C1 1_555 1_555
P1 C6 1_555 1_555
Fe1 C1 1_555 1_555
C1 C2 1_555 1_555
C2 Fe1 1_555 1_555
H1 C2 1_555 1_555
C3 Fe1 1_555 1_555
H2 C3 1_555 1_555
C4 Fe1 1_555 1_555
H3 C4 1_555 1_555
C5 Fe1 1_555 1_555
H4 C5 1_555 1_555
C6 Fe1 1_555 1_555
C7 Fe1 1_555 1_555
H5 C7 1_555 1_555
C8 Fe1 1_555 1_555
H6 C8 1_555 1_555
C9 Fe1 1_555 1_555
H7 C9 1_555 1_555
C10 Fe1 1_555 1_555
H8 C10 1_555 1_555
C11 Se1 1_555 1_555
C12 C11 1_555 1_555
H9 C12 1_555 1_555
C13 C12 1_555 1_555
H10 C13 1_555 1_555
C14 C13 1_555 1_555
H11 C14 1_555 1_555
C15 C14 1_555 1_555
H12 C15 1_555 1_555
C16 C11 1_555 1_555
H13 C16 1_555 1_555
C17 P1 1_555 1_555
C18 C17 1_555 1_555
H14 C18 1_555 1_555
C19 C18 1_555 1_555
H15 C19 1_555 1_555
C20 C19 1_555 1_555
H16 C20 1_555 1_555
C21 C20 1_555 1_555
H17 C21 1_555 1_555
C22 C17 1_555 1_555
H18 C22 1_555 1_555
C23 P1 1_555 1_555
C24 C23 1_555 1_555
H19 C24 1_555 1_555
C25 C24 1_555 1_555
H20 C25 1_555 1_555
C26 C25 1_555 1_555
H21 C26 1_555 1_555
C27 C26 1_555 1_555
H22 C27 1_555 1_555
C28 C23 1_555 1_555
H23 C28 1_555 1_555
S1 O1 1_555 1_555
O1 Ag1 1_555 1_555
O2 S1 1_555 1_555
O3 S1 1_555 1_555
C29 S1 1_555 1_555
F1 C29 1_555 1_555
F2 C29 1_555 1_555
F3 C29 1_555 1_555
Ag1A Se1 1_555 1_555
Ag1A_2 O3 1_555 1_555
Se1A Ag1 1_555 1_555
O3A Ag1 1_555 1_555
C1 C5 1_555 1_555
C2 C3 1_555 1_555
C3 C4 1_555 1_555
C4 C5 1_555 1_555
C6 C7 1_555 1_555
C6 C10 1_555 1_555
C7 C8 1_555 1_555
C8 C9 1_555 1_555
C9 C10 1_555 1_555
C15 C16 1_555 1_555
C21 C22 1_555 1_555
C27 C28 1_555 1_555

#END
