
#######################################################################
#
#                 Cambridge Crystallographic Data Centre
#                                CCDC 
#
#######################################################################
#
# If this CIF has been generated from an entry in the Cambridge 
# Structural Database, then it will include bibliographic, chemical, 
# crystal, experimental, refinement or atomic coordinate data resulting 
# from the CCDC's data processing and validation procedures.
#
#######################################################################

data_DAVKAO
_symmetry_cell_setting           orthorhombic
_symmetry_space_group_name_H-M   'C m c 21'
_symmetry_Int_Tables_number      36
_space_group_name_Hall           'C 2n -2'
loop_
_symmetry_equiv_pos_site_id
_symmetry_equiv_pos_as_xyz
1 x,y,z
2 -x,-y,1/2+z
3 x,-y,1/2+z
4 -x,y,z
5 1/2+x,1/2+y,z
6 1/2-x,1/2-y,1/2+z
7 1/2+x,1/2-y,1/2+z
8 1/2-x,1/2+y,z
_cell_length_a                   12.563(5)
_cell_length_b                   17.122(6)
_cell_length_c                   8.661(3)
_cell_angle_alpha                90
_cell_angle_beta                 90
_cell_angle_gamma                90
_cell_volume                     1863.01
loop_
_atom_site_label
_atom_site_type_symbol
_atom_site_fract_x
_atom_site_fract_y
_atom_site_fract_z
Zn1 Zn 0.0000 0.95437(4) 0.63516(6)
N1 N 0.1336(4) 0.9087(2) 0.5551(5)
N2 N 0.2507(3) 0.8589(2) 0.3981(6)
O1 O 0.0000 0.9494(3) 0.8606(6)
O2 O 0.0000 0.9308(3) 1.1288(7)
O3 O 0.0938(5) 0.8419(3) 0.9702(7)
S1 S 0.0000 0.88749(9) 0.9802(2)
C1 C 0.2155(4) 0.8790(3) 0.6405(9)
H2 H 0.2203 0.8800 0.7476
C2 C 0.2883(5) 0.8480(4) 0.5436(8)
H3 H 0.3519 0.8239 0.5712
C3 C 0.1573(4) 0.8954(3) 0.4085(7)
H4 H 0.1149 0.9095 0.3249
C4 C 0.3012(4) 0.8313(4) 0.2541(7)
H5 H 0.3152 0.7758 0.2622
H6 H 0.2527 0.8394 0.1685
C5 C 0.4051(4) 0.8742(3) 0.2220(7)
C6 C 0.4050(6) 0.9474(4) 0.1552(13)
H7 H 0.3411 0.9720 0.1311
C7 C 0.5000 0.9833(7) 0.125(3)
H8 H 0.5000 1.0333 0.0827
C8 C 0.5000 0.8389(4) 0.2540(9)
H9 H 0.5000 0.7895 0.2988
Zn1A Zn 0.0000 1.04563(4) 1.13516(6)
Zn1_2 Zn 1.0000 0.95437(4) 0.63516(6)
N1C N 0.8664(4) 0.9087(2) 0.5551(5)
N1C_2 N -0.1336(4) 0.9087(2) 0.5551(5)
N2C N 0.7493(3) 0.8589(2) 0.3981(6)
O2A O 0.0000 1.0692(3) 0.6288(7)
O3C O -0.0938(5) 0.8419(3) 0.9702(7)
C1C C 0.7845(4) 0.8790(3) 0.6405(9)
H2C H 0.7797 0.8800 0.7476
C2C C 0.7117(5) 0.8480(4) 0.5436(8)
H3C H 0.6481 0.8239 0.5712
C3C C 0.8427(4) 0.8954(3) 0.4085(7)
H4C H 0.8851 0.9095 0.3249
C4C C 0.6988(4) 0.8313(4) 0.2541(7)
H5C H 0.6848 0.7758 0.2622
H6C H 0.7473 0.8394 0.1685
C5C C 0.5949(4) 0.8742(3) 0.2220(7)
C6C C 0.5950(6) 0.9474(4) 0.1552(13)
H7C H 0.6589 0.9720 0.1311
O4 O 0.0000 0.7187(7) 0.2078(15)
C9 C 0.0000 0.7128(11) 0.3550(16)
H1? H 0.0210 0.7623 0.1831
H10? H -0.0125 0.6594 0.3836
H11? H -0.0552 0.7452 0.3972
H12? H 0.0677 0.7293 0.3947
loop_
_geom_bond_atom_site_label_1
_geom_bond_atom_site_label_2
_geom_bond_site_symmetry_1
_geom_bond_site_symmetry_2
Zn1 N1 1_555 1_555
N1 C1 1_555 1_555
N2 C2 1_555 1_555
O1 Zn1 1_555 1_555
O2 S1 1_555 1_555
O3 S1 1_555 1_555
O4 C9 1_555 1_555
S1 O1 1_555 1_555
C1 H2 1_555 1_555
C2 C1 1_555 1_555
H3 C2 1_555 1_555
C3 N1 1_555 1_555
H4 C3 1_555 1_555
C4 N2 1_555 1_555
H5 C4 1_555 1_555
H6 C4 1_555 1_555
C5 C4 1_555 1_555
C6 C5 1_555 1_555
H7 C6 1_555 1_555
C7 C6 1_555 1_555
H8 C7 1_555 1_555
C8 C5 1_555 1_555
H9 C8 1_555 1_555
Zn1A O2 1_555 1_555
Zn1_2 N1C 1_555 1_555
N1C C1C 1_555 1_555
N1C_2 Zn1 1_555 1_555
N2C C2C 1_555 1_555
O2A Zn1 1_555 1_555
O3C S1 1_555 1_555
C1C H2C 1_555 1_555
C2C C1C 1_555 1_555
H3C C2C 1_555 1_555
C3C N1C 1_555 1_555
H4C C3C 1_555 1_555
C4C N2C 1_555 1_555
H5C C4C 1_555 1_555
H6C C4C 1_555 1_555
C5C C8 1_555 1_555
C6C C7 1_555 1_555
H7C C6C 1_555 1_555
N2 C3 1_555 1_555
N2C C3C 1_555 1_555
C4C C5C 1_555 1_555
C5C C6C 1_555 1_555

#END
