
#######################################################################
#
#                 Cambridge Crystallographic Data Centre
#                                CCDC 
#
#######################################################################
#
# If this CIF has been generated from an entry in the Cambridge 
# Structural Database, then it will include bibliographic, chemical, 
# crystal, experimental, refinement or atomic coordinate data resulting 
# from the CCDC's data processing and validation procedures.
#
#######################################################################

data_DAVMOD01
_symmetry_cell_setting           monoclinic
_symmetry_space_group_name_H-M   'C 2/c'
_symmetry_Int_Tables_number      15
_space_group_name_Hall           '-C 2yn'
loop_
_symmetry_equiv_pos_site_id
_symmetry_equiv_pos_as_xyz
1 x,y,z
2 1/2+x,1/2+y,z
3 -x,y,1/2-z
4 1/2-x,1/2+y,1/2-z
5 -x,-y,-z
6 1/2-x,1/2-y,-z
7 x,-y,1/2+z
8 1/2+x,1/2-y,1/2+z
_cell_length_a                   23.631(5)
_cell_length_b                   7.1049(14)
_cell_length_c                   25.554(5)
_cell_angle_alpha                90
_cell_angle_beta                 117.12(3)
_cell_angle_gamma                90
_cell_volume                     3818.7
loop_
_atom_site_label
_atom_site_type_symbol
_atom_site_fract_x
_atom_site_fract_y
_atom_site_fract_z
Ag1 Ag 0.77916(4) 0.68351(14) 0.77044(3)
N1 N 0.8379(3) 0.7032(11) 0.8644(3)
C1 C 0.8206(4) 0.6394(13) 0.9040(4)
H1 H 0.7792 0.5958 0.8906
C2 C 0.8596(4) 0.6340(13) 0.9628(3)
H2 H 0.8449 0.5891 0.9886
C3 C 0.9220(4) 0.6966(14) 0.9840(3)
C4 C 0.9417(4) 0.7611(16) 0.9439(4)
H3 H 0.9833 0.8004 0.9560
C5 C 0.8967(4) 0.7653(17) 0.8841(4)
H4 H 0.9091 0.8143 0.8572
C6 C 0.9697(4) 0.6851(15) 1.0467(4)
O1 O 0.9439(3) 0.6336(10) 1.0806(2)
O2 O 1.0249(3) 0.7267(15) 1.0655(3)
C7 C 0.9861(5) 0.5943(18) 1.1433(4)
H5 H 0.9823 0.6919 1.1681
H6 H 1.0300 0.5860 1.1507
C8 C 0.9622(9) 0.400(2) 1.1550(5)
H7 H 0.9849 0.3692 1.1965
H8 H 0.9172 0.4078 1.1443
O3 O 0.9715(4) 0.2700(15) 1.1245(4)
C9 C 0.9475(5) 0.1008(17) 1.1344(4)
H9 H 0.9579 0.0978 1.1757
H10 H 0.9712 -0.0004 1.1280
C10 C 0.8788(4) 0.0532(18) 1.1006(4)
H11 H 0.8715 -0.0753 1.1089
H12 H 0.8536 0.1365 1.1118
O4 O 0.8610(3) 0.0743(11) 1.0393(2)
O5 O 0.7609(3) 0.0078(14) 1.0175(3)
C11 C 0.8007(4) 0.0512(15) 1.0021(4)
C12 C 0.7101(4) 0.0740(18) 0.8390(4)
H13 H 0.6692 0.0469 0.8101
C13 C 0.7240(4) 0.0449(16) 0.8964(4)
H14 H 0.6932 -0.0002 0.9062
C14 C 0.7857(4) 0.0842(14) 0.9402(4)
C15 C 0.8295(4) 0.1500(13) 0.9234(4)
H15 H 0.8709 0.1760 0.9513
C16 C 0.8113(4) 0.1772(14) 0.8644(4)
H16 H 0.8411 0.2235 0.8533
N2 N 0.7522(3) 0.1392(12) 0.8223(3)
Ag1C Ag 0.72084(4) 0.18351(14) 0.72956(3)
N2C N 0.7478(3) 0.6392(12) 0.6777(3)
Cl1 Cl 0.87250(11) 0.1285(5) 0.73973(9)
O6 O 0.9100(6) 0.2174(18) 0.7186(6)
O7 O 0.8553(6) 0.280(2) 0.7697(5)
O8 O 0.8168(4) 0.0613(19) 0.6955(5)
O9 O 0.9064(7) 0.000(4) 0.7792(9)
loop_
_geom_bond_atom_site_label_1
_geom_bond_atom_site_label_2
_geom_bond_site_symmetry_1
_geom_bond_site_symmetry_2
Ag1 N1 1_555 1_555
N1 C1 1_555 1_555
C1 H1 1_555 1_555
C2 C1 1_555 1_555
H2 C2 1_555 1_555
C3 C2 1_555 1_555
C4 C3 1_555 1_555
H3 C4 1_555 1_555
C5 N1 1_555 1_555
H4 C5 1_555 1_555
C6 C3 1_555 1_555
O1 C6 1_555 1_555
O2 C6 1_555 1_555
C7 O1 1_555 1_555
H5 C7 1_555 1_555
H6 C7 1_555 1_555
C8 C7 1_555 1_555
H7 C8 1_555 1_555
H8 C8 1_555 1_555
O3 C8 1_555 1_555
C9 O3 1_555 1_555
H9 C9 1_555 1_555
H10 C9 1_555 1_555
C10 C9 1_555 1_555
H11 C10 1_555 1_555
H12 C10 1_555 1_555
O4 C10 1_555 1_555
O5 C11 1_555 1_555
C11 O4 1_555 1_555
C12 H13 1_555 1_555
C13 C12 1_555 1_555
H14 C13 1_555 1_555
C14 C11 1_555 1_555
C15 C14 1_555 1_555
H15 C15 1_555 1_555
C16 C15 1_555 1_555
H16 C16 1_555 1_555
N2 C12 1_555 1_555
Cl1 O6 1_555 1_555
O7 Cl1 1_555 1_555
O8 Cl1 1_555 1_555
O9 Cl1 1_555 1_555
Ag1C N2 1_555 1_555
N2C Ag1 1_555 1_555
C4 C5 1_555 1_555
C13 C14 1_555 1_555
C16 N2 1_555 1_555

#END
