
#######################################################################
#
#                 Cambridge Crystallographic Data Centre
#                                CCDC 
#
#######################################################################
#
# If this CIF has been generated from an entry in the Cambridge 
# Structural Database, then it will include bibliographic, chemical, 
# crystal, experimental, refinement or atomic coordinate data resulting 
# from the CCDC's data processing and validation procedures.
#
#######################################################################

data_DAVPUN
_symmetry_cell_setting           monoclinic
_symmetry_space_group_name_H-M   'C 2/c'
_symmetry_Int_Tables_number      15
_space_group_name_Hall           '-C 2yn'
loop_
_symmetry_equiv_pos_site_id
_symmetry_equiv_pos_as_xyz
1 x,y,z
2 -x,y,1/2-z
3 1/2+x,1/2+y,z
4 1/2-x,1/2+y,1/2-z
5 -x,-y,-z
6 x,-y,1/2+z
7 1/2-x,1/2-y,-z
8 1/2+x,1/2-y,1/2+z
_cell_length_a                   21.1106(9)
_cell_length_b                   6.9695(2)
_cell_length_c                   14.9454(7)
_cell_angle_alpha                90
_cell_angle_beta                 115.284(3)
_cell_angle_gamma                90
_cell_volume                     1988.27
loop_
_atom_site_label
_atom_site_type_symbol
_atom_site_fract_x
_atom_site_fract_y
_atom_site_fract_z
C1 C 0.32062(10) 0.9027(3) 0.55553(14)
C2 C 0.35665(11) 0.7463(3) 0.61223(15)
C3 C 0.33551(12) 0.8570(3) 0.74083(16)
H1 H 0.3389 0.8425 0.8046
C4 C 0.30060(12) 1.0158(3) 0.68592(16)
H2 H 0.2819 1.1068 0.7133
C5 C 0.30550(10) 0.9370(3) 0.44776(15)
C6 C 0.39164(10) 0.5944(3) 0.57603(15)
C7 C 0.54427(15) 0.2849(4) 0.6748(2)
H3 H 0.5134 0.3543 0.6963
H4 H 0.5816 0.2288 0.7328
C8 C 0.50422(17) 0.1293(4) 0.6051(3)
H5 H 0.5360 0.0518 0.5889
H6 H 0.4828 0.0470 0.6367
N1 N 0.29407(9) 1.0374(2) 0.59439(13)
N2 N 0.36428(11) 0.7250(3) 0.70583(14)
N3 N 0.57415(10) 0.4178(3) 0.62768(14)
H7 H 0.6088 0.3598 0.6180
H8 H 0.5922 0.5205 0.6669
O1 O 0.27764(8) 1.0999(2) 0.41375(11)
O2 O 0.31882(9) 0.8114(2) 0.40142(11)
O3 O 0.44785(8) 0.6442(2) 0.57353(12)
O4 O 0.36342(9) 0.4329(2) 0.55604(14)
O5 O 0.45053(10) 0.2082(3) 0.51536(16)
Cu1 Cu 0.2500 1.2500 0.5000
Cu2 Cu 0.5000 0.5000 0.5000
H9 H 0.422(2) 0.259(6) 0.528(3)
C1F C 0.17938(10) 1.5973(3) 0.44447(14)
C2F C 0.14335(11) 1.7537(3) 0.38777(15)
C3F C 0.16449(12) 1.6430(3) 0.25917(16)
H1F H 0.1611 1.6575 0.1954
C4F C 0.19940(12) 1.4842(3) 0.31408(16)
H2F H 0.2181 1.3932 0.2867
C5F C 0.19450(10) 1.5630(3) 0.55224(15)
C6F C 0.10836(10) 1.9056(3) 0.42397(15)
C7D C 0.45573(15) 0.7151(4) 0.3252(2)
H3D H 0.4866 0.6457 0.3037
H4D H 0.4184 0.7712 0.2672
C8D C 0.49578(17) 0.8707(4) 0.3949(3)
H5D H 0.4640 0.9482 0.4111
H6D H 0.5172 0.9530 0.3633
N1F N 0.20593(9) 1.4626(2) 0.40561(13)
N2F N 0.13572(11) 1.7750(3) 0.29417(14)
N3D N 0.42585(10) 0.5822(3) 0.37232(14)
H7D H 0.3912 0.6402 0.3820
H8D H 0.4078 0.4795 0.3331
O1F O 0.22236(8) 1.4001(2) 0.58625(11)
O2F O 0.18118(9) 1.6886(2) 0.59858(11)
O3F O 0.05215(8) 1.8558(2) 0.42647(12)
O3D O 0.55215(8) 0.3558(2) 0.42647(12)
O4F O 0.13658(9) 2.0671(2) 0.44396(14)
O5D O 0.54947(10) 0.7918(3) 0.48464(16)
Cu2B Cu 0.0000 2.0000 0.5000
H9D H 0.578(2) 0.741(6) 0.472(3)
loop_
_geom_bond_atom_site_label_1
_geom_bond_atom_site_label_2
_geom_bond_site_symmetry_1
_geom_bond_site_symmetry_2
C1 C2 1_555 1_555
C2 C6 1_555 1_555
C3 H1 1_555 1_555
C4 C3 1_555 1_555
H2 C4 1_555 1_555
C5 C1 1_555 1_555
C6 O3 1_555 1_555
C7 H3 1_555 1_555
H4 C7 1_555 1_555
C8 C7 1_555 1_555
H5 C8 1_555 1_555
H6 C8 1_555 1_555
N1 C1 1_555 1_555
N2 C2 1_555 1_555
N3 C7 1_555 1_555
H7 N3 1_555 1_555
H8 N3 1_555 1_555
O1 C5 1_555 1_555
O2 C5 1_555 1_555
O3 Cu2 1_555 1_555
O4 C6 1_555 1_555
O5 C8 1_555 1_555
Cu1 N1 1_555 1_555
Cu2 N3 1_555 1_555
H9 O5 1_555 1_555
C1F C2F 1_555 1_555
C2F C6F 1_555 1_555
C3F H1F 1_555 1_555
C4F C3F 1_555 1_555
H2F C4F 1_555 1_555
C5F C1F 1_555 1_555
C6F O3F 1_555 1_555
C7D H3D 1_555 1_555
H4D C7D 1_555 1_555
C8D C7D 1_555 1_555
H5D C8D 1_555 1_555
H6D C8D 1_555 1_555
N1F Cu1 1_555 1_555
N2F C2F 1_555 1_555
N3D Cu2 1_555 1_555
H7D N3D 1_555 1_555
H8D N3D 1_555 1_555
O1F Cu1 1_555 1_555
O2F C5F 1_555 1_555
O3F Cu2B 1_555 1_555
O3D Cu2 1_555 1_555
O4F C6F 1_555 1_555
O5D Cu2 1_555 1_555
H9D O5D 1_555 1_555
C3 N2 1_555 1_555
C4 N1 1_555 1_555
O1 Cu1 1_555 1_555
O5 Cu2 1_555 1_555
C1F N1F 1_555 1_555
C3F N2F 1_555 1_555
C4F N1F 1_555 1_555
C5F O1F 1_555 1_555
C7D N3D 1_555 1_555
C8D O5D 1_555 1_555

#END
