
#######################################################################
#
#                 Cambridge Crystallographic Data Centre
#                                CCDC 
#
#######################################################################
#
# If this CIF has been generated from an entry in the Cambridge 
# Structural Database, then it will include bibliographic, chemical, 
# crystal, experimental, refinement or atomic coordinate data resulting 
# from the CCDC's data processing and validation procedures.
#
#######################################################################

data_DAVQIC
_symmetry_cell_setting           triclinic
_symmetry_space_group_name_H-M   'P -1'
_symmetry_Int_Tables_number      2
_space_group_name_Hall           '-P 1'
loop_
_symmetry_equiv_pos_site_id
_symmetry_equiv_pos_as_xyz
1 x,y,z
2 -x,-y,-z
_cell_length_a                   5.580(4)
_cell_length_b                   6.709(4)
_cell_length_c                   12.846(4)
_cell_angle_alpha                71.52(5)
_cell_angle_beta                 79.41(7)
_cell_angle_gamma                83.40(8)
_cell_volume                     447.509
loop_
_atom_site_label
_atom_site_type_symbol
_atom_site_fract_x
_atom_site_fract_y
_atom_site_fract_z
Pd1 Pd 0.0000 0.5000 1.0000
Co1 Co 1.0000 0.0000 0.5000
Cl1 Cl -0.02611(11) 0.82290(9) 0.86685(5)
O1 O 0.8115(4) 0.1321(3) 0.61645(14)
O2 O 1.0515(3) 0.3688(3) 0.63024(14)
O3 O 1.1837(3) -0.2409(3) 0.62043(13)
O4 O 1.2855(4) 0.1976(3) 0.47580(15)
N1 N 0.2867(4) 0.4131(4) 0.89940(17)
C1 C 0.6596(5) 0.3179(4) 0.74440(19)
C2 C 0.2765(5) 0.2443(4) 0.8655(2)
C3 C 0.6709(5) 0.4872(4) 0.7827(2)
C4 C 0.4832(5) 0.5319(4) 0.8594(2)
C5 C 0.4580(5) 0.1936(4) 0.7878(2)
C6 C 0.8586(5) 0.2698(4) 0.65672(18)
H1 H 0.8080 0.5716 0.7566
H2 H 0.4460 0.0752 0.7640
H3 H 0.1410 0.1587 0.8956
H4 H 0.4905 0.6491 0.8849
H5 H 1.2723 0.2944 0.5172
H6 H 1.4277 0.1899 0.4234
H7 H 1.1519 -0.2453 0.6963
H8 H 1.2959 -0.3423 0.5976
Co1_2 Co -1.0000 1.0000 1.5000
Cl1A Cl 0.02611(11) 0.17710(9) 1.13315(5)
O1A O -0.8115(4) 0.8679(3) 1.38355(14)
O1A_2 O 1.1885(4) -0.1321(3) 0.38355(14)
O2A O -1.0515(3) 0.6312(3) 1.36976(14)
O3A O 0.8163(3) 0.2409(3) 0.37957(13)
O4A O 0.7145(4) -0.1976(3) 0.52420(15)
N1A N -0.2867(4) 0.5869(4) 1.10060(17)
C1A C -0.6596(5) 0.6821(4) 1.25560(19)
C2A C -0.2765(5) 0.7557(4) 1.1345(2)
C3A C -0.6709(5) 0.5128(4) 1.2173(2)
C4A C -0.4832(5) 0.4681(4) 1.1406(2)
C5A C -0.4580(5) 0.8064(4) 1.2122(2)
C6A C -0.8586(5) 0.7302(4) 1.34328(18)
H1A H -0.8080 0.4284 1.2434
H2A H -0.4460 0.9248 1.2360
H3A H -0.1410 0.8413 1.1044
H4A H -0.4905 0.3509 1.1151
H5A H 0.7277 -0.2944 0.4828
H6A H 0.5723 -0.1899 0.5766
H7A H 0.8481 0.2453 0.3037
H8A H 0.7041 0.3423 0.4024
loop_
_geom_bond_atom_site_label_1
_geom_bond_atom_site_label_2
_geom_bond_site_symmetry_1
_geom_bond_site_symmetry_2
Pd1 Cl1 1_555 1_555
Co1 O1 1_555 1_555
O1 C6 1_555 1_555
O2 C6 1_555 1_555
O3 Co1 1_555 1_555
O4 Co1 1_555 1_555
N1 Pd1 1_555 1_555
C1 C3 1_555 1_555
C2 N1 1_555 1_555
C3 C4 1_555 1_555
C4 N1 1_555 1_555
C5 C1 1_555 1_555
C6 C1 1_555 1_555
H1 C3 1_555 1_555
H2 C5 1_555 1_555
H3 C2 1_555 1_555
H4 C4 1_555 1_555
H5 O4 1_555 1_555
H6 O4 1_555 1_555
H7 O3 1_555 1_555
H8 O3 1_555 1_555
Co1_2 O1A 1_555 1_555
Cl1A Pd1 1_555 1_555
O1A C6A 1_555 1_555
O1A_2 Co1 1_555 1_555
O2A C6A 1_555 1_555
O3A Co1 1_555 1_555
O4A Co1 1_555 1_555
N1A Pd1 1_555 1_555
C1A C3A 1_555 1_555
C2A N1A 1_555 1_555
C3A C4A 1_555 1_555
C4A N1A 1_555 1_555
C5A C1A 1_555 1_555
C6A C1A 1_555 1_555
H1A C3A 1_555 1_555
H2A C5A 1_555 1_555
H3A C2A 1_555 1_555
H4A C4A 1_555 1_555
H5A O4A 1_555 1_555
H6A O4A 1_555 1_555
H7A O3A 1_555 1_555
H8A O3A 1_555 1_555
C2 C5 1_555 1_555
C2A C5A 1_555 1_555

#END
