
#######################################################################
#
#                 Cambridge Crystallographic Data Centre
#                                CCDC 
#
#######################################################################
#
# If this CIF has been generated from an entry in the Cambridge 
# Structural Database, then it will include bibliographic, chemical, 
# crystal, experimental, refinement or atomic coordinate data resulting 
# from the CCDC's data processing and validation procedures.
#
#######################################################################

data_DAVXUV
_symmetry_cell_setting           triclinic
_symmetry_space_group_name_H-M   'P -1'
_symmetry_Int_Tables_number      2
_space_group_name_Hall           '-P 1'
loop_
_symmetry_equiv_pos_site_id
_symmetry_equiv_pos_as_xyz
1 x,y,z
2 -x,-y,-z
_cell_length_a                   8.370(4)
_cell_length_b                   10.357(5)
_cell_length_c                   13.037(6)
_cell_angle_alpha                101.575(6)
_cell_angle_beta                 90.785(6)
_cell_angle_gamma                101.798(7)
_cell_volume                     1082.01
loop_
_atom_site_label
_atom_site_type_symbol
_atom_site_fract_x
_atom_site_fract_y
_atom_site_fract_z
C1 C -0.1404(3) 0.3071(2) 0.79848(18)
H1 H -0.2372 0.2754 0.8282
C2 C -0.1032(3) 0.2616(2) 0.69923(18)
H2 H -0.1674 0.1938 0.6488
C3 C 0.0957(3) 0.4198(3) 0.77953(18)
H3 H 0.1956 0.4809 0.7927
C4 C 0.1558(3) 0.3148(4) 0.60093(19)
H4 H 0.2305 0.2605 0.6173
H5 H 0.2204 0.4016 0.5946
C5 C -0.1118(3) 0.2595(3) 0.09349(18)
H6 H -0.2092 0.2857 0.1120
C6 C 0.1210(3) 0.2527(3) 0.03013(19)
H7 H 0.2159 0.2736 -0.0049
C7 C 0.0826(3) 0.1481(3) 0.07868(19)
H8 H 0.1457 0.0854 0.0845
C8 C -0.1518(3) 0.0715(3) 0.18865(19)
H9 H -0.1390 -0.0209 0.1673
H10 H -0.2677 0.0715 0.1849
C9 C -0.0827(3) 0.1281(2) 0.29936(18)
C10 C -0.1269(3) 0.2408(3) 0.35779(19)
H11 H -0.2074 0.2770 0.3311
C11 C -0.0524(3) 0.2995(3) 0.45506(19)
H12 H -0.0819 0.3762 0.4932
C12 C 0.0651(3) 0.2469(3) 0.49736(17)
C13 C 0.1055(3) 0.1326(3) 0.44026(19)
H13 H 0.1822 0.0938 0.4683
C14 C 0.0330(4) 0.0752(3) 0.3416(2)
H14 H 0.0634 -0.0010 0.3032
O1 O 0.3075(2) 0.5571(2) 1.00405(17)
Cu1 Cu 0.0000 0.5000 1.0000
N1 N -0.0152(2) 0.4064(2) 0.84853(13)
N2 N 0.0477(2) 0.3351(2) 0.68791(14)
N3 N -0.0016(2) 0.3239(2) 0.04037(14)
N4 N -0.0675(2) 0.1525(2) 0.11771(14)
H19 H 0.342(4) 0.533(3) 1.049(3)
H20 H 0.364(4) 0.536(3) 0.955(2)
C1A C 0.1404(3) 0.6929(2) 1.20152(18)
H1A H 0.2372 0.7246 1.1718
C2A C 0.1032(3) 0.7384(2) 1.30077(18)
H2A H 0.1674 0.8062 1.3512
C3A C -0.0957(3) 0.5802(3) 1.22047(18)
H3A H -0.1956 0.5191 1.2073
C4A C -0.1558(3) 0.6852(4) 1.39907(19)
H4A H -0.2305 0.7395 1.3827
H5A H -0.2204 0.5984 1.4054
C5A C 0.1118(3) 0.7405(3) 1.90651(18)
H6A H 0.2092 0.7143 1.8880
C6A C -0.1210(3) 0.7473(3) 1.96987(19)
H7A H -0.2159 0.7264 2.0049
C7A C -0.0826(3) 0.8519(3) 1.92132(19)
H8A H -0.1457 0.9146 1.9155
C8A C 0.1518(3) 0.9285(3) 1.81135(19)
H9A H 0.1390 1.0209 1.8327
H10A H 0.2677 0.9285 1.8151
C9A C 0.0827(3) 0.8719(2) 1.70064(18)
C10A C 0.1269(3) 0.7592(3) 1.64221(19)
H11A H 0.2074 0.7230 1.6689
C11A C 0.0524(3) 0.7005(3) 1.54494(19)
H12A H 0.0819 0.6238 1.5068
C12A C -0.0651(3) 0.7531(3) 1.50264(17)
C13A C -0.1055(3) 0.8674(3) 1.55974(19)
H13A H -0.1822 0.9062 1.5317
C14A C -0.0330(4) 0.9248(3) 1.6584(2)
H14A H -0.0634 1.0010 1.6968
O1A O -0.3075(2) 0.4429(2) 0.99595(17)
Cu1_2 Cu 0.0000 0.5000 0.0000
Cu1_3 Cu 0.0000 0.5000 2.0000
N1A N 0.0152(2) 0.5936(2) 1.15147(13)
N2A N -0.0477(2) 0.6649(2) 1.31209(14)
N3A N 0.0016(2) 0.6761(2) 1.95963(14)
N3_2 N -0.0016(2) 0.3239(2) 1.04037(14)
N3A_2 N 0.0016(2) 0.6761(2) 0.95963(14)
N4A N 0.0675(2) 0.8475(2) 1.88229(14)
H19A H -0.342(4) 0.467(3) 0.951(3)
H20A H -0.364(4) 0.464(3) 1.045(2)
C15 C 0.4632(3) 0.3935(3) 0.20732(17)
C16 C 0.3384(3) 0.3974(3) 0.29101(17)
H15 H 0.2655 0.4549 0.2782
H16 H 0.2734 0.3073 0.2869
C17 C 0.4209(3) 0.4500(2) 0.39925(17)
C18 C 0.4955(3) 0.3700(2) 0.44931(18)
H17 H 0.4937 0.2815 0.4157
C19 C 0.4277(3) 0.5814(2) 0.45211(18)
H18 H 0.3795 0.6379 0.4205
O2 O 0.5295(3) 0.2954(2) 0.18803(16)
O3 O 0.4962(2) 0.49188(17) 0.16264(13)
C15A C 0.5368(3) 0.6065(3) 0.79268(17)
C16A C 0.6616(3) 0.6026(3) 0.70899(17)
H15A H 0.7345 0.5451 0.7218
H16A H 0.7266 0.6927 0.7131
C17A C 0.5791(3) 0.5500(2) 0.60075(17)
C18A C 0.5045(3) 0.6300(2) 0.55069(18)
H17A H 0.5063 0.7185 0.5843
C19A C 0.5723(3) 0.4186(2) 0.54789(18)
H18A H 0.6205 0.3621 0.5795
O2A O 0.4705(3) 0.7046(2) 0.81197(16)
O3A O 0.5038(2) 0.50812(17) 0.83736(13)
O4 O 0.3933(4) 0.0422(3) 0.2185(3)
H23 H 0.433(6) 0.106(4) 0.207(4)
O5 O 0.5965(4) 0.7754(3) 0.2244(3)
H24 H 0.562(5) 0.712(3) 0.221(3)
O6 O 0.5051(5) 0.8723(4) 0.0422(3)
H25 H 0.486(6) 0.821(4) 0.017(4)
O7 O 0.5311(7) 0.0580(4) 0.6085(4)
H21 H 0.547(11) 0.012(9) 0.658(7)
H22 H 0.435(6) 0.021(4) 0.584(4)
loop_
_geom_bond_atom_site_label_1
_geom_bond_atom_site_label_2
_geom_bond_site_symmetry_1
_geom_bond_site_symmetry_2
C1 H1 1_555 1_555
C2 C1 1_555 1_555
H2 C2 1_555 1_555
C3 H3 1_555 1_555
C4 H4 1_555 1_555
H5 C4 1_555 1_555
C5 H6 1_555 1_555
C6 H7 1_555 1_555
C7 C6 1_555 1_555
H8 C7 1_555 1_555
C8 H9 1_555 1_555
H10 C8 1_555 1_555
C9 C8 1_555 1_555
C10 C9 1_555 1_555
H11 C10 1_555 1_555
C11 C10 1_555 1_555
H12 C11 1_555 1_555
C12 C4 1_555 1_555
C13 C12 1_555 1_555
H13 C13 1_555 1_555
C14 C9 1_555 1_555
H14 C14 1_555 1_555
C15 C16 1_555 1_555
C16 H15 1_555 1_555
H16 C16 1_555 1_555
C17 C16 1_555 1_555
C18 C17 1_555 1_555
H17 C18 1_555 1_555
C19 C17 1_555 1_555
H18 C19 1_555 1_555
O1 Cu1 1_555 1_555
Cu1 N1 1_555 1_555
N1 C1 1_555 1_555
N2 C2 1_555 1_555
N3 C5 1_555 1_555
N4 C5 1_555 1_555
O2 C15 1_555 1_555
O3 C15 1_555 1_555
O4 H23 1_555 1_555
O5 H24 1_555 1_555
O6 H25 1_555 1_555
O7 H21 1_555 1_555
H19 O1 1_555 1_555
H20 O1 1_555 1_555
H22 O7 1_555 1_555
C1A H1A 1_555 1_555
C2A C1A 1_555 1_555
H2A C2A 1_555 1_555
C3A H3A 1_555 1_555
C4A H4A 1_555 1_555
H5A C4A 1_555 1_555
C5A H6A 1_555 1_555
C6A H7A 1_555 1_555
C7A C6A 1_555 1_555
H8A C7A 1_555 1_555
C8A H9A 1_555 1_555
H10A C8A 1_555 1_555
C9A C8A 1_555 1_555
C10A C9A 1_555 1_555
H11A C10A 1_555 1_555
C11A C10A 1_555 1_555
H12A C11A 1_555 1_555
C12A C4A 1_555 1_555
C13A C12A 1_555 1_555
H13A C13A 1_555 1_555
C14A C9A 1_555 1_555
H14A C14A 1_555 1_555
C15A C16A 1_555 1_555
C16A H15A 1_555 1_555
H16A C16A 1_555 1_555
C17A C16A 1_555 1_555
C18A C19 1_555 1_555
H17A C18A 1_555 1_555
C19A C18 1_555 1_555
H18A C19A 1_555 1_555
O1A Cu1 1_555 1_555
Cu1_2 N3 1_555 1_555
Cu1_3 N3A 1_555 1_555
N1A Cu1 1_555 1_555
N2A C2A 1_555 1_555
N3A C5A 1_555 1_555
N3_2 Cu1 1_555 1_555
N3A_2 Cu1 1_555 1_555
N4A C5A 1_555 1_555
O2A C15A 1_555 1_555
O3A C15A 1_555 1_555
H19A O1A 1_555 1_555
H20A O1A 1_555 1_555
C3 N1 1_555 1_555
C3 N2 1_555 1_555
C4 N2 1_555 1_555
C6 N3 1_555 1_555
C7 N4 1_555 1_555
C8 N4 1_555 1_555
C11 C12 1_555 1_555
C13 C14 1_555 1_555
C1A N1A 1_555 1_555
C3A N1A 1_555 1_555
C3A N2A 1_555 1_555
C4A N2A 1_555 1_555
C6A N3A 1_555 1_555
C7A N4A 1_555 1_555
C8A N4A 1_555 1_555
C11A C12A 1_555 1_555
C13A C14A 1_555 1_555
C17A C18A 1_555 1_555
C17A C19A 1_555 1_555

#END
