
#######################################################################
#
#                 Cambridge Crystallographic Data Centre
#                                CCDC 
#
#######################################################################
#
# If this CIF has been generated from an entry in the Cambridge 
# Structural Database, then it will include bibliographic, chemical, 
# crystal, experimental, refinement or atomic coordinate data resulting 
# from the CCDC's data processing and validation procedures.
#
#######################################################################

data_DAVXOP
_symmetry_cell_setting           monoclinic
_symmetry_space_group_name_H-M   'P 21/n'
_symmetry_Int_Tables_number      14
_space_group_name_Hall           '-P 2yn'
loop_
_symmetry_equiv_pos_site_id
_symmetry_equiv_pos_as_xyz
1 x,y,z
2 1/2-x,1/2+y,1/2-z
3 -x,-y,-z
4 1/2+x,1/2-y,1/2+z
_cell_length_a                   8.655(4)
_cell_length_b                   10.949(6)
_cell_length_c                   23.799(12)
_cell_angle_alpha                90
_cell_angle_beta                 100.017(7)
_cell_angle_gamma                90
_cell_volume                     2220.9
loop_
_atom_site_label
_atom_site_type_symbol
_atom_site_fract_x
_atom_site_fract_y
_atom_site_fract_z
Ni1 Ni 0.19106(3) 0.31991(2) 0.011411(10)
O1 O 0.08546(18) 0.17107(13) -0.03645(6)
O2 O -0.06059(17) 0.32916(13) -0.02622(6)
O3 O -0.37447(18) 0.25830(14) -0.41682(6)
N1 N 0.7330(2) 0.09490(16) 0.43782(7)
N2 N 0.4094(2) 0.24500(16) 0.03162(7)
N3 N 0.8362(2) 0.04095(17) 0.36356(7)
N4 N 0.5838(2) 0.10259(17) 0.06060(7)
C1 C 0.4318(3) 0.1319(2) 0.04989(9)
H1 H 0.3514 0.0787 0.0548
C2 C -0.1582(3) 0.3033(2) -0.16627(9)
H2 H -0.0798 0.3471 -0.1431
C3 C -0.2270(3) 0.2051(2) -0.14409(9)
C4 C -0.3294(3) 0.2271(2) -0.36562(8)
O4 O -0.2576(3) 0.13260(19) -0.34966(7)
C5 C -0.3900(3) 0.1778(2) -0.23650(10)
H3 H -0.4690 0.1343 -0.2595
C6 C 0.7235(3) 0.00303(19) 0.14835(9)
C7 C 0.8649(2) 0.0232(2) 0.26273(9)
C8 C -0.1820(3) 0.1609(2) -0.08273(9)
H4 H -0.2726 0.1702 -0.0641
H5 H -0.1586 0.0744 -0.0835
C9 C 0.7179(3) -0.0393(2) 0.36693(9)
H6 H 0.6867 -0.1046 0.3426
C10 C 0.8408(3) 0.1192(2) 0.40692(9)
H7 H 0.9119 0.1833 0.4143
C11 C 0.9124(3) -0.0657(2) 0.22844(9)
H8 H 0.9920 -0.1195 0.2435
C12 C 0.6507(3) -0.0111(2) 0.08615(9)
H9 H 0.7302 -0.0397 0.0651
H10 H 0.5689 -0.0726 0.0828
C13 C 0.8423(3) -0.0753(2) 0.17169(9)
H11 H 0.8759 -0.1355 0.1490
C14 C -0.0445(3) 0.2242(2) -0.04662(8)
C15 C -0.2047(3) 0.3378(2) -0.22315(9)
H12 H -0.1560 0.4041 -0.2372
C16 C 0.7452(3) 0.1019(2) 0.23944(9)
H13 H 0.7119 0.1620 0.2622
C17 C 0.6547(3) -0.0054(2) 0.41269(9)
H14 H 0.5711 -0.0441 0.4252
C18 C -0.3213(3) 0.2759(2) -0.25921(9)
C19 C -0.3734(3) 0.3140(2) -0.32083(9)
H15 H -0.4866 0.3233 -0.3277
H16 H -0.3286 0.3935 -0.3261
C20 C 0.6747(3) 0.0921(2) 0.18283(9)
H17 H 0.5943 0.1454 0.1679
C21 C 0.5567(3) 0.2906(2) 0.03117(10)
H18 H 0.5785 0.3693 0.0201
C22 C 0.9469(3) 0.0366(3) 0.32357(9)
H19 H 1.0088 0.1110 0.3272
H20 H 1.0180 -0.0316 0.3333
C23 C 0.6653(3) 0.2044(2) 0.04910(10)
H21 H 0.7736 0.2124 0.0529
C24 C -0.3438(3) 0.1432(2) -0.18039(9)
H22 H -0.3921 0.0765 -0.1665
O5 O 0.2595(2) 0.47961(16) 0.05487(7)
H23 H 0.200(3) 0.544(3) 0.0489(12)
H24 H 0.258(4) 0.464(3) 0.0845(14)
Ni1C Ni -0.30894(3) 0.18009(2) -0.488589(10)
Ni1C_2 Ni 0.69106(3) 0.18009(2) 0.511411(10)
O3C O 0.12553(18) 0.24170(14) 0.08318(6)
N1C N 0.2330(2) 0.40510(16) -0.06218(7)
loop_
_geom_bond_atom_site_label_1
_geom_bond_atom_site_label_2
_geom_bond_site_symmetry_1
_geom_bond_site_symmetry_2
Ni1 O1 1_555 1_555
O1 C14 1_555 1_555
O2 Ni1 1_555 1_555
O3 C4 1_555 1_555
N1 C10 1_555 1_555
N2 Ni1 1_555 1_555
N3 C9 1_555 1_555
N4 C1 1_555 1_555
C1 N2 1_555 1_555
H1 C1 1_555 1_555
C2 H2 1_555 1_555
C3 C2 1_555 1_555
C4 O4 1_555 1_555
C5 H3 1_555 1_555
C6 C12 1_555 1_555
C7 C11 1_555 1_555
C8 C3 1_555 1_555
H4 C8 1_555 1_555
H5 C8 1_555 1_555
C9 H6 1_555 1_555
C10 N3 1_555 1_555
H7 C10 1_555 1_555
C11 H8 1_555 1_555
C12 N4 1_555 1_555
H9 C12 1_555 1_555
H10 C12 1_555 1_555
C13 C6 1_555 1_555
H11 C13 1_555 1_555
C14 O2 1_555 1_555
C15 C2 1_555 1_555
H12 C15 1_555 1_555
C16 C7 1_555 1_555
H13 C16 1_555 1_555
C17 N1 1_555 1_555
H14 C17 1_555 1_555
C18 C5 1_555 1_555
C19 C4 1_555 1_555
H15 C19 1_555 1_555
H16 C19 1_555 1_555
C20 C6 1_555 1_555
H17 C20 1_555 1_555
C21 N2 1_555 1_555
H18 C21 1_555 1_555
C22 N3 1_555 1_555
H19 C22 1_555 1_555
H20 C22 1_555 1_555
C23 N4 1_555 1_555
H21 C23 1_555 1_555
C24 C3 1_555 1_555
H22 C24 1_555 1_555
O5 Ni1 1_555 1_555
H23 O5 1_555 1_555
H24 O5 1_555 1_555
Ni1C O3 1_555 1_555
Ni1C_2 N1 1_555 1_555
O3C Ni1 1_555 1_555
N1C Ni1 1_555 1_555
C5 C24 1_555 1_555
C7 C22 1_555 1_555
C8 C14 1_555 1_555
C9 C17 1_555 1_555
C11 C13 1_555 1_555
C15 C18 1_555 1_555
C16 C20 1_555 1_555
C18 C19 1_555 1_555
C21 C23 1_555 1_555

#END
