
#######################################################################
#
#                 Cambridge Crystallographic Data Centre
#                                CCDC 
#
#######################################################################
#
# If this CIF has been generated from an entry in the Cambridge 
# Structural Database, then it will include bibliographic, chemical, 
# crystal, experimental, refinement or atomic coordinate data resulting 
# from the CCDC's data processing and validation procedures.
#
#######################################################################

data_DAWFEO
_symmetry_cell_setting           rhombohedral
_symmetry_space_group_name_H-M   'R -3'
_symmetry_Int_Tables_number      148
_space_group_name_Hall           '-R 3'
loop_
_symmetry_equiv_pos_site_id
_symmetry_equiv_pos_as_xyz
1 x,y,z
2 -y,x-y,z
3 -x+y,-x,z
4 2/3+x,1/3+y,1/3+z
5 2/3-y,1/3+x-y,1/3+z
6 2/3-x+y,1/3-x,1/3+z
7 1/3+x,2/3+y,2/3+z
8 1/3-y,2/3+x-y,2/3+z
9 1/3-x+y,2/3-x,2/3+z
10 -x,-y,-z
11 y,-x+y,-z
12 x-y,x,-z
13 1/3-x,2/3-y,2/3-z
14 1/3+y,2/3-x+y,2/3-z
15 1/3+x-y,2/3+x,2/3-z
16 2/3-x,1/3-y,1/3-z
17 2/3+y,1/3-x+y,1/3-z
18 2/3+x-y,1/3+x,1/3-z
_cell_length_a                   24.388(3)
_cell_length_b                   24.388(3)
_cell_length_c                   14.249(2)
_cell_angle_alpha                90
_cell_angle_beta                 90
_cell_angle_gamma                120
_cell_volume                     7339.52
loop_
_atom_site_label
_atom_site_type_symbol
_atom_site_fract_x
_atom_site_fract_y
_atom_site_fract_z
H1 H 0.256(4) 0.376(4) 0.456(6)
Co1 Co 0.25396(3) 0.26748(3) 0.48146(4)
Co2 Co 0.1667 0.3333 0.8333
O1 O 0.25701(15) 0.28285(16) 0.6266(2)
O2 O 0.08469(16) 0.28873(19) 0.7639(2)
O3 O 0.00942(15) 0.26726(15) 0.6618(2)
O4 O 0.1320(2) 0.2517(2) 0.9245(3)
H2 H 0.1031 0.2479 0.9545
H3 H 0.1605 0.2458 0.9395
O5 O 0.21078(16) 0.29996(18) 0.7468(2)
O6 O 0.35522(16) 0.31255(18) 0.4899(2)
H4 H 0.3698 0.3480 0.5073
H5 H 0.3653 0.2919 0.5221
O7 O 0.2791(2) 0.3650(2) 0.4491(3)
H6 H 0.3022 0.3775 0.4034
N1 N 0.16348(18) 0.25395(19) 0.5078(2)
N2 N 0.06723(18) 0.24494(19) 0.5211(2)
C1 C 0.0912(2) 0.2113(2) 0.3698(3)
C2 C 0.1338(3) 0.2351(3) 0.2960(3)
H7 H 0.1736 0.2704 0.3047
C3 C 0.0319(3) 0.1587(3) 0.3544(3)
H8 H 0.0031 0.1431 0.4038
C4 C 0.0140(3) 0.1287(3) 0.2681(4)
C5 C 0.1165(3) 0.2058(3) 0.2092(3)
H9 H 0.1448 0.2223 0.1593
C6 C 0.0581(3) 0.1525(3) 0.1951(4)
C7 C -0.0502(3) 0.0706(3) 0.2568(4)
H10 H -0.0453 0.0348 0.2432
H11 H -0.0724 0.0769 0.2061
H12 H -0.0739 0.0630 0.3138
C8 C 0.0418(4) 0.1205(3) 0.1009(4)
H13 H 0.0308 0.0771 0.1080
H14 H 0.0777 0.1416 0.0598
H15 H 0.0066 0.1225 0.0746
C9 C 0.1085(2) 0.2390(2) 0.4656(3)
C10 C 0.1576(2) 0.2711(2) 0.5977(3)
C11 C 0.2109(2) 0.2865(2) 0.6620(3)
C12 C 0.0985(2) 0.2650(2) 0.6059(3)
C13 C 0.0632(2) 0.2750(2) 0.6821(3)
H1L H 0.077(4) 0.291(4) 1.211(6)
Co1L Co 0.07937(3) 0.39919(3) 1.18521(4)
Co1K Co -0.01352(4) 0.25396(3) 0.51854(4)
Co1H Co 0.34685(4) 0.41271(3) 1.14813(4)
O1L O 0.07632(15) 0.38382(16) 1.0401(2)
O2L O 0.24864(16) 0.37794(19) 0.9028(2)
O3L O 0.32391(15) 0.39941(15) 1.0049(2)
O3J O 0.26726(15) 0.25784(21) 0.3382(2)
O3G O 0.06607(15) 0.40883(21) 1.3285(2)
O4L O 0.2013(2) 0.4150(2) 0.7422(3)
H2L H 0.2302 0.4188 0.7122
H3L H 0.1728 0.4209 0.7272
O5L O 0.12255(16) 0.36671(18) 0.9199(2)
O6L O -0.02189(16) 0.35412(18) 1.1768(2)
H4L H -0.0365 0.3187 1.1594
H5L H -0.0320 0.3748 1.1446
O7L O 0.0542(2) 0.3017(2) 1.2176(3)
H6L H 0.0311 0.2892 1.2633
N1L N 0.16985(18) 0.41272(19) 1.1589(2)
N2L N 0.26610(18) 0.42173(19) 1.1456(2)
N2J N 0.24494(19) 0.17771(26) 0.4789(2)
N2G N 0.08839(19) 0.48896(26) 1.1878(2)
C1L C 0.2421(2) 0.4554(2) 1.2969(3)
C2L C 0.1995(3) 0.4316(3) 1.3707(3)
H7L H 0.1597 0.3963 1.3620
C3L C 0.3014(3) 0.5080(3) 1.3123(3)
H8L H 0.3302 0.5236 1.2629
C4L C 0.3193(3) 0.5380(3) 1.3986(4)
C5L C 0.2168(3) 0.4609(3) 1.4575(3)
H9L H 0.1885 0.4444 1.5074
C6L C 0.2752(3) 0.5142(3) 1.4716(4)
C7L C 0.3835(3) 0.5961(3) 1.4099(4)
H10L H 0.3786 0.6319 1.4235
H11L H 0.4057 0.5898 1.4606
H12L H 0.4072 0.6037 1.3529
C8L C 0.2915(4) 0.5462(3) 1.5658(4)
H13L H 0.3025 0.5896 1.5587
H14L H 0.2556 0.5251 1.6069
H15L H 0.3267 0.5442 1.5921
C9L C 0.2248(2) 0.4277(2) 1.2011(3)
C10L C 0.1757(2) 0.3956(2) 1.0690(3)
C11L C 0.1224(2) 0.3802(2) 1.0047(3)
C12L C 0.2348(2) 0.4017(2) 1.0608(3)
C13L C 0.2701(2) 0.3917(2) 0.9846(3)
O8 O 0.2283(4) 0.9973(4) 0.0259(8)
H16 H 0.249(5) 1.008(5) -0.012(7)
H17 H 0.231(5) 0.979(5) 0.069(7)
loop_
_geom_bond_atom_site_label_1
_geom_bond_atom_site_label_2
_geom_bond_site_symmetry_1
_geom_bond_site_symmetry_2
H1 O7 1_555 1_555
Co1 O1 1_555 1_555
Co2 O2 1_555 1_555
O1 C11 1_555 1_555
O2 C13 1_555 1_555
O3 C13 1_555 1_555
O4 Co2 1_555 1_555
H2 O4 1_555 1_555
H3 O4 1_555 1_555
O5 Co2 1_555 1_555
O6 Co1 1_555 1_555
H4 O6 1_555 1_555
H5 O6 1_555 1_555
O7 Co1 1_555 1_555
H6 O7 1_555 1_555
N1 Co1 1_555 1_555
N2 C9 1_555 1_555
C1 C2 1_555 1_555
C2 H7 1_555 1_555
C3 C1 1_555 1_555
H8 C3 1_555 1_555
C4 C3 1_555 1_555
C5 C2 1_555 1_555
H9 C5 1_555 1_555
C6 C4 1_555 1_555
C7 C4 1_555 1_555
H10 C7 1_555 1_555
H11 C7 1_555 1_555
H12 C7 1_555 1_555
C8 C6 1_555 1_555
H13 C8 1_555 1_555
H14 C8 1_555 1_555
H15 C8 1_555 1_555
C9 N1 1_555 1_555
C10 N1 1_555 1_555
C11 O5 1_555 1_555
C12 N2 1_555 1_555
C13 C12 1_555 1_555
O8 H16 1_555 1_555
H17 O8 1_555 1_555
H1L O7L 1_555 1_555
Co1L O1L 1_555 1_555
Co1K O3 1_555 1_555
Co1H O3L 1_555 1_555
O1L C11L 1_555 1_555
O2L Co2 1_555 1_555
O3L C13L 1_555 1_555
O3J Co1 1_555 1_555
O3G Co1L 1_555 1_555
O4L Co2 1_555 1_555
H2L O4L 1_555 1_555
H3L O4L 1_555 1_555
O5L Co2 1_555 1_555
O6L Co1L 1_555 1_555
H4L O6L 1_555 1_555
H5L O6L 1_555 1_555
O7L Co1L 1_555 1_555
H6L O7L 1_555 1_555
N1L Co1L 1_555 1_555
N2L Co1H 1_555 1_555
N2J Co1 1_555 1_555
N2G Co1L 1_555 1_555
C1L C2L 1_555 1_555
C2L H7L 1_555 1_555
C3L C1L 1_555 1_555
H8L C3L 1_555 1_555
C4L C3L 1_555 1_555
C5L C2L 1_555 1_555
H9L C5L 1_555 1_555
C6L C4L 1_555 1_555
C7L C4L 1_555 1_555
H10L C7L 1_555 1_555
H11L C7L 1_555 1_555
H12L C7L 1_555 1_555
C8L C6L 1_555 1_555
H13L C8L 1_555 1_555
H14L C8L 1_555 1_555
H15L C8L 1_555 1_555
C9L N1L 1_555 1_555
C10L N1L 1_555 1_555
C11L O5L 1_555 1_555
C12L N2L 1_555 1_555
C13L O2L 1_555 1_555
N2 Co1K 1_555 1_555
C1 C9 1_555 1_555
C5 C6 1_555 1_555
C10 C11 1_555 1_555
C10 C12 1_555 1_555
N2L C9L 1_555 1_555
C1L C9L 1_555 1_555
C5L C6L 1_555 1_555
C10L C11L 1_555 1_555
C10L C12L 1_555 1_555
C12L C13L 1_555 1_555

#END
