
#######################################################################
#
#                 Cambridge Crystallographic Data Centre
#                                CCDC 
#
#######################################################################
#
# If this CIF has been generated from an entry in the Cambridge 
# Structural Database, then it will include bibliographic, chemical, 
# crystal, experimental, refinement or atomic coordinate data resulting 
# from the CCDC's data processing and validation procedures.
#
#######################################################################

data_DAWFIS
_symmetry_cell_setting           orthorhombic
_symmetry_space_group_name_H-M   'P c c n'
_symmetry_Int_Tables_number      56
_space_group_name_Hall           '-P 2ab 2ac'
loop_
_symmetry_equiv_pos_site_id
_symmetry_equiv_pos_as_xyz
1 x,y,z
2 1/2-x,1/2-y,z
3 -x,1/2+y,1/2-z
4 1/2+x,-y,1/2-z
5 -x,-y,-z
6 1/2+x,1/2+y,-z
7 x,1/2-y,1/2+z
8 1/2-x,y,1/2+z
_cell_length_a                   21.9033(16)
_cell_length_b                   22.7086(16)
_cell_length_c                   21.3286(16)
_cell_angle_alpha                90
_cell_angle_beta                 90
_cell_angle_gamma                90
_cell_volume                     10608.7
loop_
_atom_site_label
_atom_site_type_symbol
_atom_site_fract_x
_atom_site_fract_y
_atom_site_fract_z
Mn1 Mn 0.89940(3) 0.91911(2) 0.85793(3)
Mn2 Mn 0.7500 0.7500 0.69202(3)
Mn3 Mn 0.98419(3) 0.63864(3) 0.81643(3)
N1 N 0.94830(15) 0.72901(13) 0.82661(15)
N2 N 0.92297(14) 0.82390(12) 0.84000(14)
N3 N 0.92715(13) 0.99083(12) 0.79311(13)
N4 N 0.97021(14) 1.06412(13) 0.73666(14)
N5 N 0.98269(16) 0.93167(14) 0.92001(15)
N6 N 0.86848(18) 0.90240(14) 0.95650(16)
N7 N 1.0375(2) 0.62783(18) 0.9082(2)
N8 N 0.9223(2) 0.59194(16) 0.88690(17)
N9 N 0.80654(15) 0.77143(14) 0.60245(15)
O1 O 0.82903(12) 0.88775(11) 0.79744(14)
O2 O 0.79638(14) 0.81887(12) 0.73393(17)
O3 O 0.82888(11) 0.69570(11) 0.71706(12)
O4 O 0.90628(12) 0.64386(11) 0.75347(13)
O5 O 0.83015(12) 0.99389(11) 0.87371(13)
O6 O 0.80568(14) 1.08515(12) 0.84578(16)
O7 O 0.85008(17) 1.16440(13) 0.78227(19)
H1 H 0.8352 1.1375 0.8029
O8 O 0.93237(15) 1.17891(12) 0.72413(15)
C1 C 1.0317(2) 0.8038(2) 0.6924(3)
H3 H 0.9887 0.7995 0.7000
H4 H 1.0539 0.7769 0.7185
H5 H 1.0402 0.7955 0.6491
C2 C 0.88185(16) 0.79851(15) 0.79881(15)
C3 C 0.89773(16) 0.74023(15) 0.78996(16)
C4 C 0.87548(17) 0.69085(15) 0.75078(16)
C5 C 0.96147(17) 0.78070(16) 0.85462(17)
C6 C 1.0154(2) 0.78649(18) 0.8970(2)
C7 C 1.0093(3) 0.7811(2) 0.9610(3)
H6 H 0.9707 0.7760 0.9782
C8 C 1.0597(4) 0.7831(3) 1.0003(4)
H7 H 1.0540 0.7785 1.0432
C9 C 1.0731(2) 0.7951(3) 0.8724(3)
H8 H 1.0786 0.7987 0.8294
C10 C 1.1233(3) 0.7982(3) 0.9132(5)
C11 C 1.1827(4) 0.8070(7) 0.8891(6)
H9 H 1.2117 0.8064 0.9229
H10 H 1.1846 0.8444 0.8683
H11 H 1.1922 0.7762 0.8599
C12 C 1.1157(5) 0.7914(3) 0.9785(6)
C13 C 1.1705(4) 0.7946(4) 1.0224(5)
H12 H 1.1966 0.8264 1.0099
H13 H 1.1927 0.7582 1.0206
H14 H 1.1566 0.8012 1.0646
C14 C 0.8627(2) 0.7912(2) 0.6029(2)
H15 H 0.8811 0.7982 0.6415
C15 C 0.8962(3) 0.8023(3) 0.5488(3)
H16 H 0.9361 0.8163 0.5513
C16 C 0.8696(3) 0.7924(3) 0.4923(3)
H17 H 0.8913 0.7995 0.4556
C17 C 0.8101(2) 0.7716(2) 0.4892(2)
C18 C 0.78022(18) 0.76111(17) 0.54638(18)
C19 C 0.7787(3) 0.7601(3) 0.4315(2)
H18 H 0.7984 0.7667 0.3936
C20 C 0.8657(3) 0.5739(2) 0.8766(3)
H19 H 0.8486 0.5810 0.8374
C21 C 0.8297(3) 0.5443(3) 0.9222(3)
H20 H 0.7904 0.5313 0.9129
C22 C 0.8547(4) 0.5355(3) 0.9801(3)
H21 H 0.8318 0.5173 1.0112
C23 C 0.9137(4) 0.5534(3) 0.9930(3)
C24 C 0.9470(3) 0.5820(2) 0.9445(2)
C25 C 0.9452(5) 0.5451(3) 1.0538(3)
H22 H 0.9243 0.5276 1.0868
C26 C 1.0027(5) 0.5621(4) 1.0623(3)
H23 H 1.0215 0.5550 1.1006
C27 C 1.0358(4) 0.5909(3) 1.0142(3)
C28 C 1.0958(4) 0.6086(3) 1.0220(4)
H24 H 1.1155 0.6023 1.0600
C29 C 1.1259(4) 0.6355(3) 0.9737(4)
H25 H 1.1663 0.6474 0.9782
C30 C 1.0946(3) 0.6446(2) 0.9172(3)
H26 H 1.1149 0.6633 0.8845
C31 C 1.0083(3) 0.6011(2) 0.9555(2)
C32 C 1.0383(2) 0.9457(2) 0.9024(2)
H27 H 1.0451 0.9535 0.8601
C33 C 1.0881(2) 0.9495(2) 0.9439(3)
H28 H 1.1268 0.9595 0.9296
C34 C 1.0777(3) 0.9381(2) 1.0051(3)
H29 H 1.1097 0.9404 1.0336
C35 C 1.0196(3) 0.9230(2) 1.0260(2)
C36 C 0.9732(2) 0.91971(16) 0.98161(19)
C37 C 0.9120(3) 0.90500(17) 1.0008(2)
C38 C 0.8996(4) 0.8946(2) 1.0644(2)
C39 C 0.9479(5) 0.8959(3) 1.1081(3)
H30 H 0.9402 0.8867 1.1498
C40 C 1.0042(4) 0.9100(3) 1.0906(3)
H31 H 1.0347 0.9115 1.1208
C41 C 0.8385(4) 0.8849(2) 1.0810(3)
H32 H 0.8281 0.8782 1.1226
C42 C 0.7946(4) 0.8853(2) 1.0361(3)
H33 H 0.7537 0.8806 1.0469
C43 C 0.8113(3) 0.89256(19) 0.9746(2)
H34 H 0.7811 0.8905 0.9440
C44 C 0.83882(17) 1.03872(17) 0.84191(18)
C45 C 0.89132(16) 1.03952(15) 0.79891(16)
C46 C 0.91735(18) 1.08441(16) 0.76440(18)
C47 C 0.8995(2) 1.14647(18) 0.7559(2)
C48 C 0.97354(16) 1.00736(15) 0.75532(17)
C49 C 1.02163(17) 0.96578(16) 0.73630(16)
C50 C 1.08228(19) 0.98299(19) 0.7323(2)
H35 H 1.0933 1.0218 0.7403
C51 C 1.1265(2) 0.9418(2) 0.7162(2)
H36 H 1.1671 0.9537 0.7136
C52 C 1.1121(2) 0.8837(2) 0.7040(2)
C53 C 1.1617(2) 0.8402(3) 0.6873(3)
H37 H 1.2005 0.8597 0.6876
H38 H 1.1540 0.8244 0.6463
H39 H 1.1619 0.8088 0.7175
C54 C 1.0510(2) 0.86643(18) 0.70746(19)
C55 C 1.00693(18) 0.90753(16) 0.72412(17)
H40 H 0.9664 0.8956 0.7272
C56 C 0.83227(17) 0.83625(16) 0.77515(18)
Mn1A Mn 0.60060(3) 0.58089(2) 0.85793(3)
Mn1B Mn 1.10060(3) 0.41911(2) 0.64207(3)
Mn3A Mn 0.51581(3) 0.86136(3) 0.81643(3)
Mn3B Mn 1.01581(3) 1.13864(3) 0.68357(3)
N1A N 0.55170(15) 0.77099(13) 0.82661(15)
N2A N 0.57703(14) 0.67610(12) 0.84000(14)
N3B N 1.07285(13) 0.49083(12) 0.70689(13)
N3A N 0.57285(13) 0.50917(12) 0.79311(13)
N4B N 1.02979(14) 0.56412(13) 0.76334(14)
N4C N 0.47021(14) 0.93588(13) 0.76334(14)
N5A N 0.51731(16) 0.56833(14) 0.92001(15)
N6A N 0.63152(18) 0.59760(14) 0.95650(16)
N7A N 0.4625(2) 0.87217(18) 0.9082(2)
N8A N 0.5777(2) 0.90806(16) 0.88690(17)
N9A N 0.69346(15) 0.72857(14) 0.60245(15)
O1A O 0.67097(12) 0.61225(11) 0.79744(14)
O2A O 0.70362(14) 0.68113(12) 0.73393(17)
O3A O 0.67112(11) 0.80430(11) 0.71706(12)
O4A O 0.59372(12) 0.85614(11) 0.75347(13)
O5B O 1.16985(12) 0.49389(11) 0.62629(13)
O5A O 0.66985(12) 0.50611(11) 0.87371(13)
O6B O 1.19432(14) 0.58515(12) 0.65422(16)
O7B O 1.14992(17) 0.66440(13) 0.71773(19)
H1B H 1.1648 0.6375 0.6971
O8B O 1.06763(15) 0.67891(12) 0.77587(15)
O8C O 0.43237(15) 0.82109(12) 0.77587(15)
C1B C 0.9683(2) 0.3038(2) 0.8076(3)
H3B H 1.0113 0.2995 0.8000
H4B H 0.9461 0.2769 0.7815
H5B H 0.9598 0.2955 0.8509
C2A C 0.61815(16) 0.70149(15) 0.79881(15)
C3A C 0.60227(16) 0.75977(15) 0.78996(16)
C4A C 0.62452(17) 0.80915(15) 0.75078(16)
C5A C 0.53853(17) 0.71930(16) 0.85462(17)
C6A C 0.4846(2) 0.71351(18) 0.8970(2)
C7A C 0.4907(3) 0.7189(2) 0.9610(3)
H6A H 0.5293 0.7240 0.9782
C8A C 0.4403(4) 0.7169(3) 1.0003(4)
H7A H 0.4460 0.7215 1.0432
C9A C 0.4269(2) 0.7049(3) 0.8724(3)
H8A H 0.4214 0.7013 0.8294
C10A C 0.3767(3) 0.7018(3) 0.9132(5)
C11A C 0.3173(4) 0.6930(7) 0.8891(6)
H9A H 0.2883 0.6936 0.9229
H10A H 0.3154 0.6556 0.8683
H11A H 0.3078 0.7238 0.8599
C12A C 0.3843(5) 0.7086(3) 0.9785(6)
C13A C 0.3295(4) 0.7054(4) 1.0224(5)
H12A H 0.3034 0.6736 1.0099
H13A H 0.3073 0.7418 1.0206
H14A H 0.3434 0.6988 1.0646
C14A C 0.6373(2) 0.7088(2) 0.6029(2)
H15A H 0.6189 0.7018 0.6415
C15A C 0.6038(3) 0.6977(3) 0.5488(3)
H16A H 0.5639 0.6837 0.5513
C16A C 0.6304(3) 0.7076(3) 0.4923(3)
H17A H 0.6087 0.7005 0.4556
C17A C 0.6899(2) 0.7284(2) 0.4892(2)
C18A C 0.71978(18) 0.73889(17) 0.54638(18)
C19A C 0.7213(3) 0.7399(3) 0.4315(2)
H18A H 0.7016 0.7333 0.3936
C20A C 0.6343(3) 0.9261(2) 0.8766(3)
H19A H 0.6514 0.9190 0.8374
C21A C 0.6703(3) 0.9557(3) 0.9222(3)
H20A H 0.7096 0.9687 0.9129
C22A C 0.6453(4) 0.9645(3) 0.9801(3)
H21A H 0.6682 0.9827 1.0112
C23A C 0.5863(4) 0.9466(3) 0.9930(3)
C24A C 0.5530(3) 0.9180(2) 0.9445(2)
C25A C 0.5548(5) 0.9549(3) 1.0538(3)
H22A H 0.5757 0.9724 1.0868
C26A C 0.4973(5) 0.9379(4) 1.0623(3)
H23A H 0.4785 0.9450 1.1006
C27A C 0.4642(4) 0.9091(3) 1.0142(3)
C28A C 0.4042(4) 0.8914(3) 1.0220(4)
H24A H 0.3845 0.8977 1.0600
C29A C 0.3741(4) 0.8645(3) 0.9737(4)
H25A H 0.3337 0.8526 0.9782
C30A C 0.4054(3) 0.8554(2) 0.9172(3)
H26A H 0.3851 0.8367 0.8845
C31A C 0.4917(3) 0.8989(2) 0.9555(2)
C32A C 0.4617(2) 0.5543(2) 0.9024(2)
H27A H 0.4549 0.5465 0.8601
C33A C 0.4119(2) 0.5505(2) 0.9439(3)
H28A H 0.3732 0.5405 0.9296
C34A C 0.4223(3) 0.5619(2) 1.0051(3)
H29A H 0.3903 0.5596 1.0336
C35A C 0.4804(3) 0.5770(2) 1.0260(2)
C36A C 0.5268(2) 0.58029(16) 0.98161(19)
C37A C 0.5880(3) 0.59500(17) 1.0008(2)
C38A C 0.6004(4) 0.6054(2) 1.0644(2)
C39A C 0.5521(5) 0.6041(3) 1.1081(3)
H30A H 0.5598 0.6133 1.1498
C40A C 0.4958(4) 0.5900(3) 1.0906(3)
H31A H 0.4653 0.5885 1.1208
C41A C 0.6615(4) 0.6151(2) 1.0810(3)
H32A H 0.6719 0.6218 1.1226
C42A C 0.7054(4) 0.6147(2) 1.0361(3)
H33A H 0.7463 0.6194 1.0469
C43A C 0.6887(3) 0.60744(19) 0.9746(2)
H34A H 0.7189 0.6095 0.9440
C44B C 1.16118(17) 0.53872(17) 0.65809(18)
C45B C 1.10868(16) 0.53952(15) 0.70109(16)
C46B C 1.08265(18) 0.58441(16) 0.73560(18)
C47B C 1.1005(2) 0.64647(18) 0.7441(2)
C48B C 1.02646(16) 0.50736(15) 0.74468(17)
C49B C 0.97837(17) 0.46578(16) 0.76370(16)
C50B C 0.91772(19) 0.48299(19) 0.7677(2)
H35B H 0.9067 0.5218 0.7597
C51B C 0.8735(2) 0.4418(2) 0.7838(2)
H36B H 0.8329 0.4537 0.7864
C52B C 0.8879(2) 0.3837(2) 0.7960(2)
C53B C 0.8383(2) 0.3402(3) 0.8127(3)
H37B H 0.7995 0.3597 0.8124
H38B H 0.8460 0.3244 0.8537
H39B H 0.8381 0.3088 0.7825
C54B C 0.9490(2) 0.36643(18) 0.79254(19)
C55B C 0.99307(18) 0.40753(16) 0.77588(17)
H40B H 1.0336 0.3956 0.7728
C56A C 0.66773(17) 0.66375(16) 0.77515(18)
O9 O 0.7202(2) 0.93262(18) 0.7383(2)
H44 H 0.699(3) 0.901(2) 0.734(5)
H45 H 0.755(2) 0.924(5) 0.752(5)
O10 O 0.7565(5) 0.0608(7) 0.9863(7)
O11 O 0.7454(6) 0.0060(4) 0.6360(4)
H2 H 0.7482 0.0080 0.5977
C57 C 0.7795(7) 0.0466(8) 0.6615(6)
H41 H 0.7566 0.0668 0.6933
H42 H 0.7923 0.0741 0.6300
H43 H 0.8148 0.0286 0.6802
loop_
_geom_bond_atom_site_label_1
_geom_bond_atom_site_label_2
_geom_bond_site_symmetry_1
_geom_bond_site_symmetry_2
Mn1 N2 1_555 1_555
Mn2 N9 1_555 1_555
Mn3 N1 1_555 1_555
N1 C3 1_555 1_555
N2 C2 1_555 1_555
N3 Mn1 1_555 1_555
N4 C46 1_555 1_555
N5 Mn1 1_555 1_555
N6 Mn1 1_555 1_555
N7 Mn3 1_555 1_555
N8 Mn3 1_555 1_555
N9 C14 1_555 1_555
O1 Mn1 1_555 1_555
O2 Mn2 1_555 1_555
O3 Mn2 1_555 1_555
O4 Mn3 1_555 1_555
O5 Mn1 1_555 1_555
O6 C44 1_555 1_555
O7 H1 1_555 1_555
O8 C47 1_555 1_555
O9 H44 1_555 1_555
O11 H2 1_555 1_555
C1 H3 1_555 1_555
H4 C1 1_555 1_555
H5 C1 1_555 1_555
C2 C3 1_555 1_555
C3 C4 1_555 1_555
C4 O3 1_555 1_555
C5 N1 1_555 1_555
C6 C5 1_555 1_555
C7 C6 1_555 1_555
H6 C7 1_555 1_555
C8 C7 1_555 1_555
H7 C8 1_555 1_555
C9 C6 1_555 1_555
H8 C9 1_555 1_555
C10 C9 1_555 1_555
C11 C10 1_555 1_555
H9 C11 1_555 1_555
H10 C11 1_555 1_555
H11 C11 1_555 1_555
C12 C8 1_555 1_555
C13 C12 1_555 1_555
H12 C13 1_555 1_555
H13 C13 1_555 1_555
H14 C13 1_555 1_555
C14 H15 1_555 1_555
C15 C14 1_555 1_555
H16 C15 1_555 1_555
C16 C15 1_555 1_555
H17 C16 1_555 1_555
C17 C16 1_555 1_555
C18 N9 1_555 1_555
C19 C17 1_555 1_555
H18 C19 1_555 1_555
C20 N8 1_555 1_555
H19 C20 1_555 1_555
C21 C20 1_555 1_555
H20 C21 1_555 1_555
C22 C21 1_555 1_555
H21 C22 1_555 1_555
C23 C22 1_555 1_555
C24 N8 1_555 1_555
C25 C23 1_555 1_555
H22 C25 1_555 1_555
C26 C25 1_555 1_555
H23 C26 1_555 1_555
C27 C26 1_555 1_555
C28 C27 1_555 1_555
H24 C28 1_555 1_555
C29 C28 1_555 1_555
H25 C29 1_555 1_555
C30 N7 1_555 1_555
H26 C30 1_555 1_555
C31 N7 1_555 1_555
C32 N5 1_555 1_555
H27 C32 1_555 1_555
C33 C32 1_555 1_555
H28 C33 1_555 1_555
C34 C33 1_555 1_555
H29 C34 1_555 1_555
C35 C34 1_555 1_555
C36 N5 1_555 1_555
C37 N6 1_555 1_555
C38 C37 1_555 1_555
C39 C38 1_555 1_555
H30 C39 1_555 1_555
C40 C35 1_555 1_555
H31 C40 1_555 1_555
C41 C38 1_555 1_555
H32 C41 1_555 1_555
C42 C41 1_555 1_555
H33 C42 1_555 1_555
C43 N6 1_555 1_555
H34 C43 1_555 1_555
C44 O5 1_555 1_555
C45 N3 1_555 1_555
C46 C45 1_555 1_555
C47 O7 1_555 1_555
C48 N3 1_555 1_555
C49 C48 1_555 1_555
C50 C49 1_555 1_555
H35 C50 1_555 1_555
C51 C50 1_555 1_555
H36 C51 1_555 1_555
C52 C51 1_555 1_555
C53 C52 1_555 1_555
H37 C53 1_555 1_555
H38 C53 1_555 1_555
H39 C53 1_555 1_555
C54 C1 1_555 1_555
C55 C49 1_555 1_555
H40 C55 1_555 1_555
C56 O1 1_555 1_555
C57 O11 1_555 1_555
H41 C57 1_555 1_555
H42 C57 1_555 1_555
H43 C57 1_555 1_555
H45 O9 1_555 1_555
Mn1A N2A 1_555 1_555
Mn1B N3B 1_555 1_555
Mn3A N1A 1_555 1_555
Mn3B N4 1_555 1_555
N1A C3A 1_555 1_555
N2A C2A 1_555 1_555
N3B C45B 1_555 1_555
N3A Mn1A 1_555 1_555
N4B Mn3 1_555 1_555
N4C Mn3A 1_555 1_555
N5A Mn1A 1_555 1_555
N6A Mn1A 1_555 1_555
N7A Mn3A 1_555 1_555
N8A Mn3A 1_555 1_555
N9A Mn2 1_555 1_555
O1A Mn1A 1_555 1_555
O2A Mn2 1_555 1_555
O3A Mn2 1_555 1_555
O4A Mn3A 1_555 1_555
O5B Mn1B 1_555 1_555
O5A Mn1A 1_555 1_555
O6B C44B 1_555 1_555
O7B H1B 1_555 1_555
O8B Mn3 1_555 1_555
O8C Mn3A 1_555 1_555
C1B H3B 1_555 1_555
H4B C1B 1_555 1_555
H5B C1B 1_555 1_555
C2A C3A 1_555 1_555
C3A C4A 1_555 1_555
C4A O3A 1_555 1_555
C5A N1A 1_555 1_555
C6A C5A 1_555 1_555
C7A C6A 1_555 1_555
H6A C7A 1_555 1_555
C8A C7A 1_555 1_555
H7A C8A 1_555 1_555
C9A C6A 1_555 1_555
H8A C9A 1_555 1_555
C10A C9A 1_555 1_555
C11A C10A 1_555 1_555
H9A C11A 1_555 1_555
H10A C11A 1_555 1_555
H11A C11A 1_555 1_555
C12A C8A 1_555 1_555
C13A C12A 1_555 1_555
H12A C13A 1_555 1_555
H13A C13A 1_555 1_555
H14A C13A 1_555 1_555
C14A N9A 1_555 1_555
H15A C14A 1_555 1_555
C15A C14A 1_555 1_555
H16A C15A 1_555 1_555
C16A C15A 1_555 1_555
H17A C16A 1_555 1_555
C17A C16A 1_555 1_555
C18A C18 1_555 1_555
C19A C19 1_555 1_555
H18A C19A 1_555 1_555
C20A N8A 1_555 1_555
H19A C20A 1_555 1_555
C21A C20A 1_555 1_555
H20A C21A 1_555 1_555
C22A C21A 1_555 1_555
H21A C22A 1_555 1_555
C23A C22A 1_555 1_555
C24A N8A 1_555 1_555
C25A C23A 1_555 1_555
H22A C25A 1_555 1_555
C26A C25A 1_555 1_555
H23A C26A 1_555 1_555
C27A C26A 1_555 1_555
C28A C27A 1_555 1_555
H24A C28A 1_555 1_555
C29A C28A 1_555 1_555
H25A C29A 1_555 1_555
C30A N7A 1_555 1_555
H26A C30A 1_555 1_555
C31A N7A 1_555 1_555
C32A N5A 1_555 1_555
H27A C32A 1_555 1_555
C33A C32A 1_555 1_555
H28A C33A 1_555 1_555
C34A C33A 1_555 1_555
H29A C34A 1_555 1_555
C35A C34A 1_555 1_555
C36A N5A 1_555 1_555
C37A N6A 1_555 1_555
C38A C37A 1_555 1_555
C39A C38A 1_555 1_555
H30A C39A 1_555 1_555
C40A C35A 1_555 1_555
H31A C40A 1_555 1_555
C41A C38A 1_555 1_555
H32A C41A 1_555 1_555
C42A C41A 1_555 1_555
H33A C42A 1_555 1_555
C43A N6A 1_555 1_555
H34A C43A 1_555 1_555
C44B O5B 1_555 1_555
C45B C44B 1_555 1_555
C46B N4B 1_555 1_555
C47B O7B 1_555 1_555
C48B N3B 1_555 1_555
C49B C48B 1_555 1_555
C50B C49B 1_555 1_555
H35B C50B 1_555 1_555
C51B C50B 1_555 1_555
H36B C51B 1_555 1_555
C52B C51B 1_555 1_555
C53B C52B 1_555 1_555
H37B C53B 1_555 1_555
H38B C53B 1_555 1_555
H39B C53B 1_555 1_555
C54B C1B 1_555 1_555
C55B C49B 1_555 1_555
H40B C55B 1_555 1_555
C56A O1A 1_555 1_555
N2 C5 1_555 1_555
N4 C48 1_555 1_555
O2 C56 1_555 1_555
O4 C4 1_555 1_555
O8 Mn3B 1_555 1_555
C2 C56 1_555 1_555
C10 C12 1_555 1_555
C17 C18 1_555 1_555
C23 C24 1_555 1_555
C24 C31 1_555 1_555
C27 C31 1_555 1_555
C29 C30 1_555 1_555
C35 C36 1_555 1_555
C36 C37 1_555 1_555
C39 C40 1_555 1_555
C42 C43 1_555 1_555
C44 C45 1_555 1_555
C46 C47 1_555 1_555
C52 C54 1_555 1_555
C54 C55 1_555 1_555
N2A C5A 1_555 1_555
N4B C48B 1_555 1_555
N9A C18A 1_555 1_555
O2A C56A 1_555 1_555
O4A C4A 1_555 1_555
O8B C47B 1_555 1_555
C2A C56A 1_555 1_555
C10A C12A 1_555 1_555
C17A C18A 1_555 1_555
C17A C19A 1_555 1_555
C23A C24A 1_555 1_555
C24A C31A 1_555 1_555
C27A C31A 1_555 1_555
C29A C30A 1_555 1_555
C35A C36A 1_555 1_555
C36A C37A 1_555 1_555
C39A C40A 1_555 1_555
C42A C43A 1_555 1_555
C45B C46B 1_555 1_555
C46B C47B 1_555 1_555
C52B C54B 1_555 1_555
C54B C55B 1_555 1_555

#END
