
#######################################################################
#
#                 Cambridge Crystallographic Data Centre
#                                CCDC 
#
#######################################################################
#
# If this CIF has been generated from an entry in the Cambridge 
# Structural Database, then it will include bibliographic, chemical, 
# crystal, experimental, refinement or atomic coordinate data resulting 
# from the CCDC's data processing and validation procedures.
#
#######################################################################

data_DAWHEQ
_symmetry_cell_setting           monoclinic
_symmetry_space_group_name_H-M   'C 2/c'
_symmetry_Int_Tables_number      15
_space_group_name_Hall           '-C 2yn'
loop_
_symmetry_equiv_pos_site_id
_symmetry_equiv_pos_as_xyz
1 x,y,z
2 -x,y,1/2-z
3 1/2+x,1/2+y,z
4 1/2-x,1/2+y,1/2-z
5 -x,-y,-z
6 x,-y,1/2+z
7 1/2-x,1/2-y,-z
8 1/2+x,1/2-y,1/2+z
_cell_length_a                   15.991(10)
_cell_length_b                   15.206(10)
_cell_length_c                   9.272(6)
_cell_angle_alpha                90
_cell_angle_beta                 115.343(7)
_cell_angle_gamma                90
_cell_volume                     2037.6
loop_
_atom_site_label
_atom_site_type_symbol
_atom_site_fract_x
_atom_site_fract_y
_atom_site_fract_z
C1 C 0.1698(2) 0.1646(2) 0.5630(4)
C2 C 0.1353(2) 0.1733(2) 0.3887(4)
C3 C 0.1270(3) 0.0985(3) 0.2970(4)
H1 H 0.1408 0.0436 0.3458
C4 C 0.0984(3) 0.1050(3) 0.1335(5)
H2 H 0.0928 0.0548 0.0728
C5 C 0.0783(3) 0.1868(2) 0.0615(4)
H3 H 0.0602 0.1916 -0.0478
C6 C 0.0849(2) 0.2622(2) 0.1512(4)
C7 C 0.1127(2) 0.2550(2) 0.3142(4)
H4 H 0.1164 0.3051 0.3742
C8 C 0.0626(2) 0.3495(2) 0.0685(4)
Cu1 Cu 0.2500 0.2500 1.0000
Eu1 Eu 0.0000 0.531117(16) 0.2500
N1 N 0.2143(2) 0.0925(2) 0.6423(3)
N2 N 0.2373(2) 0.1096(2) 0.7951(4)
N3 N 0.2077(2) 0.1889(2) 0.8064(4)
N4 N 0.1645(2) 0.2258(2) 0.6614(3)
O1 O 0.04627(18) 0.41525(16) 0.1352(3)
O2 O 0.06140(18) 0.35236(16) -0.0676(3)
O3 O -0.12612(18) 0.59603(17) 0.2993(3)
H5 H -0.1314 0.6493 0.3031
H6 H -0.1415 0.5709 0.3616
O4 O -0.15619(17) 0.48519(16) 0.0387(3)
H7 H -0.1879 0.4609 0.0768
H8 H -0.1814 0.5290 -0.0116
C1E C 0.1698(2) 0.8354(2) 1.0630(4)
C2E C 0.1353(2) 0.8267(2) 0.8887(4)
C3E C 0.1270(3) 0.9015(3) 0.7970(4)
H1E H 0.1408 0.9564 0.8458
C4E C 0.0984(3) 0.8950(3) 0.6335(5)
H2E H 0.0928 0.9452 0.5728
C5E C 0.0783(3) 0.8132(2) 0.5615(4)
H3E H 0.0602 0.8084 0.4522
C6E C 0.0849(2) 0.7378(2) 0.6512(4)
C7E C 0.1127(2) 0.7450(2) 0.8142(4)
H4E H 0.1164 0.6949 0.8742
C8E C 0.0626(2) 0.6505(2) 0.5685(4)
Cu1C Cu 0.2500 0.7500 1.5000
Eu1D Eu 0.0000 0.468883(16) -0.2500
Eu1D_2 Eu 0.0000 0.468883(16) 0.7500
N1E N 0.2143(2) 0.9075(2) 1.1423(3)
N2E N 0.2373(2) 0.8904(2) 1.2951(4)
N3F N 0.2923(2) 0.3111(2) 1.1936(4)
N3E N 0.2077(2) 0.8111(2) 1.3064(4)
N4E N 0.1645(2) 0.7742(2) 1.1614(3)
O1A O -0.04627(18) 0.41525(16) 0.3648(3)
O1E O 0.04627(18) 0.58475(16) 0.6352(3)
O2D O -0.06140(18) 0.64764(16) 0.0676(3)
O2E O 0.06140(18) 0.64764(16) 0.4324(3)
O3A O 0.12612(18) 0.59603(17) 0.2007(3)
H5A H 0.1314 0.6493 0.1969
H6A H 0.1415 0.5709 0.1384
O4A O 0.15619(17) 0.48519(16) 0.4613(3)
H7A H 0.1879 0.4609 0.4232
H8A H 0.1814 0.5290 0.5116
loop_
_geom_bond_atom_site_label_1
_geom_bond_atom_site_label_2
_geom_bond_site_symmetry_1
_geom_bond_site_symmetry_2
C1 C2 1_555 1_555
C2 C3 1_555 1_555
C3 H1 1_555 1_555
C4 C3 1_555 1_555
H2 C4 1_555 1_555
C5 C4 1_555 1_555
H3 C5 1_555 1_555
C6 C5 1_555 1_555
C7 C2 1_555 1_555
H4 C7 1_555 1_555
C8 C6 1_555 1_555
Cu1 N3 1_555 1_555
Eu1 O1 1_555 1_555
N1 C1 1_555 1_555
N2 N1 1_555 1_555
N3 N2 1_555 1_555
N4 C1 1_555 1_555
O1 C8 1_555 1_555
O2 C8 1_555 1_555
O3 Eu1 1_555 1_555
H5 O3 1_555 1_555
H6 O3 1_555 1_555
O4 Eu1 1_555 1_555
H7 O4 1_555 1_555
H8 O4 1_555 1_555
C1E C2E 1_555 1_555
C2E C3E 1_555 1_555
C3E H1E 1_555 1_555
C4E C3E 1_555 1_555
H2E C4E 1_555 1_555
C5E C4E 1_555 1_555
H3E C5E 1_555 1_555
C6E C5E 1_555 1_555
C7E C2E 1_555 1_555
H4E C7E 1_555 1_555
C8E C6E 1_555 1_555
Cu1C N3E 1_555 1_555
Eu1D O2 1_555 1_555
Eu1D_2 O1E 1_555 1_555
N1E C1E 1_555 1_555
N2E N1E 1_555 1_555
N3F Cu1 1_555 1_555
N3E N2E 1_555 1_555
N4E C1E 1_555 1_555
O1A Eu1 1_555 1_555
O1E C8E 1_555 1_555
O2D Eu1 1_555 1_555
O2E Eu1 1_555 1_555
O3A Eu1 1_555 1_555
H5A O3A 1_555 1_555
H6A O3A 1_555 1_555
O4A Eu1 1_555 1_555
H7A O4A 1_555 1_555
H8A O4A 1_555 1_555
C6 C7 1_555 1_555
N3 N4 1_555 1_555
C6E C7E 1_555 1_555
C8E O2E 1_555 1_555
N3E N4E 1_555 1_555

#END
