
#######################################################################
#
#                 Cambridge Crystallographic Data Centre
#                                CCDC 
#
#######################################################################
#
# If this CIF has been generated from an entry in the Cambridge 
# Structural Database, then it will include bibliographic, chemical, 
# crystal, experimental, refinement or atomic coordinate data resulting 
# from the CCDC's data processing and validation procedures.
#
#######################################################################

data_DAWHUG
_symmetry_cell_setting           monoclinic
_symmetry_space_group_name_H-M   'C 2/c'
_symmetry_Int_Tables_number      15
_space_group_name_Hall           '-C 2yn'
loop_
_symmetry_equiv_pos_site_id
_symmetry_equiv_pos_as_xyz
1 x,y,z
2 -x,y,1/2-z
3 1/2+x,1/2+y,z
4 1/2-x,1/2+y,1/2-z
5 -x,-y,-z
6 x,-y,1/2+z
7 1/2-x,1/2-y,-z
8 1/2+x,1/2-y,1/2+z
_cell_length_a                   16.0231(17)
_cell_length_b                   15.1138(16)
_cell_length_c                   9.2701(10)
_cell_angle_alpha                90
_cell_angle_beta                 115.4840(10)
_cell_angle_gamma                90
_cell_volume                     2026.52
loop_
_atom_site_label
_atom_site_type_symbol
_atom_site_fract_x
_atom_site_fract_y
_atom_site_fract_z
C1 C 0.1704(3) 0.3356(3) 0.5630(5)
C2 C 0.1357(3) 0.3267(3) 0.3884(5)
C3 C 0.1280(3) 0.4015(3) 0.2963(6)
H1 H 0.1425 0.4567 0.3449
C4 C 0.0990(4) 0.3945(3) 0.1328(6)
H2 H 0.0935 0.4450 0.0720
C5 C 0.0781(3) 0.3124(3) 0.0599(5)
H3 H 0.0601 0.3075 -0.0494
C6 C 0.0840(3) 0.2367(3) 0.1508(5)
C7 C 0.1122(3) 0.2443(3) 0.3143(5)
H4 H 0.1155 0.1942 0.3748
C8 C 0.0611(3) 0.1488(3) 0.0681(5)
Cu1 Cu 0.2500 0.2500 1.0000
Dy1 Dy 0.0000 -0.030923(18) 0.2500
N1 N 0.1644(3) 0.2745(3) 0.6611(4)
N2 N 0.2082(3) 0.3114(3) 0.8068(4)
N3 N 0.2384(3) 0.3908(3) 0.7960(5)
N4 N 0.2158(3) 0.4077(3) 0.6427(4)
O1 O 0.0452(2) 0.0834(2) 0.1366(4)
O2 O 0.05921(13) 0.14536(12) -0.0686(2)
O3 O -0.12589(13) -0.09481(12) 0.2956(2)
H5 H -0.1374 -0.0684 0.3625
H6 H -0.1317 -0.1484 0.3034
O4 O -0.15366(13) 0.01592(12) 0.0396(2)
H7 H -0.1837 0.0340 0.0859
H8 H -0.1781 -0.0273 -0.0157
C1E C 0.1704(3) -0.3356(3) 1.0630(5)
C2E C 0.1357(3) -0.3267(3) 0.8884(5)
C3E C 0.1280(3) -0.4015(3) 0.7963(6)
H1E H 0.1425 -0.4567 0.8449
C4E C 0.0990(4) -0.3945(3) 0.6328(6)
H2E H 0.0935 -0.4450 0.5720
C5E C 0.0781(3) -0.3124(3) 0.5599(5)
H3E H 0.0601 -0.3075 0.4506
C6E C 0.0840(3) -0.2367(3) 0.6508(5)
C7E C 0.1122(3) -0.2443(3) 0.8143(5)
H4E H 0.1155 -0.1942 0.8748
C8E C 0.0611(3) -0.1488(3) 0.5681(5)
Cu1C Cu 0.2500 -0.2500 1.5000
Dy1D Dy 0.0000 0.030923(18) -0.2500
Dy1D_2 Dy 0.0000 0.030923(18) 0.7500
N1E N 0.1644(3) -0.2745(3) 1.1611(4)
N2F N 0.2918(3) 0.1886(3) 1.1932(4)
N2E N 0.2082(3) -0.3114(3) 1.3068(4)
N3E N 0.2384(3) -0.3908(3) 1.2960(5)
N4E N 0.2158(3) -0.4077(3) 1.1427(4)
O1A O -0.0452(2) 0.0834(2) 0.3634(4)
O1E O 0.0452(2) -0.0834(2) 0.6366(4)
O2D O -0.05921(13) -0.14536(12) 0.0686(2)
O2E O 0.05921(13) -0.14536(12) 0.4314(2)
O3A O 0.12589(13) -0.09481(12) 0.2044(2)
H5A H 0.1374 -0.0684 0.1375
H6A H 0.1317 -0.1484 0.1966
O4A O 0.15366(13) 0.01592(12) 0.4604(2)
H7A H 0.1837 0.0340 0.4141
H8A H 0.1781 -0.0273 0.5157
loop_
_geom_bond_atom_site_label_1
_geom_bond_atom_site_label_2
_geom_bond_site_symmetry_1
_geom_bond_site_symmetry_2
C1 C2 1_555 1_555
C2 C3 1_555 1_555
C3 H1 1_555 1_555
C4 C3 1_555 1_555
H2 C4 1_555 1_555
C5 C4 1_555 1_555
H3 C5 1_555 1_555
C6 C5 1_555 1_555
C7 C2 1_555 1_555
H4 C7 1_555 1_555
C8 C6 1_555 1_555
Cu1 N2 1_555 1_555
Dy1 O1 1_555 1_555
N1 C1 1_555 1_555
N2 N1 1_555 1_555
N3 N2 1_555 1_555
N4 C1 1_555 1_555
O1 C8 1_555 1_555
O2 C8 1_555 1_555
O3 Dy1 1_555 1_555
H5 O3 1_555 1_555
H6 O3 1_555 1_555
O4 Dy1 1_555 1_555
H7 O4 1_555 1_555
H8 O4 1_555 1_555
C1E C2E 1_555 1_555
C2E C3E 1_555 1_555
C3E H1E 1_555 1_555
C4E C3E 1_555 1_555
H2E C4E 1_555 1_555
C5E C4E 1_555 1_555
H3E C5E 1_555 1_555
C6E C5E 1_555 1_555
C7E C2E 1_555 1_555
H4E C7E 1_555 1_555
C8E C6E 1_555 1_555
Cu1C N2E 1_555 1_555
Dy1D O2 1_555 1_555
Dy1D_2 O1E 1_555 1_555
N1E C1E 1_555 1_555
N2F Cu1 1_555 1_555
N2E N1E 1_555 1_555
N3E N2E 1_555 1_555
N4E C1E 1_555 1_555
O1A Dy1 1_555 1_555
O1E C8E 1_555 1_555
O2D Dy1 1_555 1_555
O2E Dy1 1_555 1_555
O3A Dy1 1_555 1_555
H5A O3A 1_555 1_555
H6A O3A 1_555 1_555
O4A Dy1 1_555 1_555
H7A O4A 1_555 1_555
H8A O4A 1_555 1_555
C6 C7 1_555 1_555
N3 N4 1_555 1_555
C6E C7E 1_555 1_555
C8E O2E 1_555 1_555
N3E N4E 1_555 1_555

#END
