
#######################################################################
#
#                 Cambridge Crystallographic Data Centre
#                                CCDC 
#
#######################################################################
#
# If this CIF has been generated from an entry in the Cambridge 
# Structural Database, then it will include bibliographic, chemical, 
# crystal, experimental, refinement or atomic coordinate data resulting 
# from the CCDC's data processing and validation procedures.
#
#######################################################################

data_DAWJUI
_symmetry_cell_setting           monoclinic
_symmetry_space_group_name_H-M   'P 21/c'
_symmetry_Int_Tables_number      14
_space_group_name_Hall           '-P 2ybc'
loop_
_symmetry_equiv_pos_site_id
_symmetry_equiv_pos_as_xyz
1 x,y,z
2 -x,1/2+y,1/2-z
3 -x,-y,-z
4 x,1/2-y,1/2+z
_cell_length_a                   15.131(4)
_cell_length_b                   19.269(10)
_cell_length_c                   18.433(6)
_cell_angle_alpha                90
_cell_angle_beta                 108.89(3)
_cell_angle_gamma                90
_cell_volume                     5084.86
loop_
_atom_site_label
_atom_site_type_symbol
_atom_site_fract_x
_atom_site_fract_y
_atom_site_fract_z
Co1 Co 1.06206(5) 0.69522(4) 0.69340(4)
Co2 Co 0.46861(5) 1.19991(4) 0.80667(4)
O1 O 0.3085(3) 1.3620(2) 0.3375(2)
O2 O 0.4283(3) 1.2942(2) 0.39704(19)
O3 O 0.4884(3) 1.2247(2) 0.66801(19)
O4 O 0.3786(3) 1.2458(2) 0.71871(18)
O5 O 1.0965(3) 0.70732(19) 0.60025(18)
O6 O 1.2045(3) 0.6286(2) 0.6539(2)
O7 O 1.0474(3) 0.7849(2) 0.33131(19)
O8 O 1.1552(2) 0.7577(2) 0.28049(18)
N1 N 0.9486(3) 0.7585(2) 0.6592(2)
N2 N 0.8164(3) 0.8099(3) 0.6489(3)
N3 N 0.5976(3) 1.0156(3) 0.7869(3)
N4 N 0.5064(3) 1.1012(2) 0.7951(2)
N5 N 1.0143(3) 0.5978(2) 0.6974(2)
N6 N 0.9148(3) 0.5181(3) 0.7041(3)
N7 N 0.7058(4) 0.3256(3) 0.8636(3)
N8 N 0.5801(3) 0.2630(2) 0.8476(2)
I1 I 0.09589(3) 1.40411(3) 0.52948(3)
I2 I 1.41095(3) 0.57419(3) 0.46070(2)
C1 C 0.2194(4) 1.3556(3) 0.5291(3)
C2 C 0.2477(4) 1.3595(3) 0.4657(3)
H7 H 0.2120 1.3841 0.4228
C3 C 0.3286(4) 1.3273(3) 0.4650(3)
C4 C 0.3823(4) 1.2928(3) 0.5301(3)
H8 H 0.4384 1.2727 0.5308
C5 C 0.3542(4) 1.2878(3) 0.5935(3)
C6 C 0.2721(4) 1.3192(3) 0.5925(3)
H9 H 0.2521 1.3158 0.6350
C7 C 0.3565(4) 1.3292(3) 0.3936(3)
C8 C 0.4126(4) 1.2497(3) 0.6638(3)
C9 C 1.2964(4) 0.6338(3) 0.4640(3)
C10 C 1.2513(4) 0.6759(3) 0.4031(3)
H10 H 1.2730 0.6794 0.3614
C11 C 1.1730(4) 0.7135(3) 0.4040(3)
C12 C 1.1446(4) 0.7103(3) 0.4674(3)
H11 H 1.0929 0.7359 0.4686
C13 C 1.1919(3) 0.6695(3) 0.5298(3)
C14 C 1.2676(4) 0.6301(3) 0.5277(3)
H12 H 1.2987 0.6016 0.5687
C15 C 1.1199(4) 0.7557(3) 0.3346(3)
C16 C 1.1636(4) 0.6673(3) 0.6008(3)
C17 C 0.9189(4) 0.7941(3) 0.5918(3)
H13 H 0.9502 0.7956 0.5559
C18 C 0.8386(5) 0.8266(4) 0.5846(3)
H14 H 0.8046 0.8547 0.5442
C19 C 0.8846(4) 0.7696(3) 0.6921(3)
H15 H 0.8868 0.7516 0.7395
C20 C 0.7336(4) 0.8333(3) 0.6661(4)
H16 H 0.7125 0.7965 0.6925
H17 H 0.6840 0.8427 0.6185
C21 C 0.7515(4) 0.8971(3) 0.7147(4)
H18 H 0.7791 0.9324 0.6913
H19 H 0.7955 0.8864 0.7648
C22 C 0.6612(4) 0.9246(3) 0.7237(3)
H20 H 0.6213 0.9428 0.6750
H21 H 0.6281 0.8872 0.7390
C23 C 0.6824(4) 0.9803(3) 0.7822(4)
H22 H 0.7159 0.9605 0.8319
H23 H 0.7228 1.0143 0.7702
C24 C 0.5239(5) 0.9864(3) 0.8026(4)
H24 H 0.5137 0.9395 0.8088
C25 C 0.4686(4) 1.0402(3) 0.8071(4)
H25 H 0.4124 1.0360 0.8171
C26 C 0.5849(4) 1.0840(3) 0.7832(3)
H26 H 0.6261 1.1156 0.7735
C27 C 0.9373(4) 0.5847(3) 0.7137(3)
H27 H 0.9031 0.6179 0.7299
C28 C 1.0416(4) 0.5350(3) 0.6768(3)
H28 H 1.0946 0.5275 0.6627
C29 C 0.9794(5) 0.4859(3) 0.6802(4)
H29 H 0.9808 0.4390 0.6684
C30 C 0.8310(4) 0.4871(4) 0.7157(4)
H30 H 0.7927 0.5238 0.7260
H31 H 0.7944 0.4638 0.6690
C31 C 0.8551(4) 0.4370(3) 0.7798(4)
H32 H 0.8974 0.4587 0.8252
H33 H 0.8868 0.3975 0.7669
C32 C 0.7672(4) 0.4119(3) 0.7967(4)
H34 H 0.7418 0.4497 0.8185
H35 H 0.7202 0.3979 0.7493
C33 C 0.7894(5) 0.3530(4) 0.8506(4)
H36 H 0.8187 0.3165 0.8302
H37 H 0.8335 0.3680 0.8991
C34 C 0.6465(4) 0.2793(3) 0.8199(3)
H38 H 0.6519 0.2608 0.7749
C35 C 0.5990(5) 0.3018(4) 0.9128(3)
H39 H 0.5635 0.3014 0.9456
C36 C 0.6748(5) 0.3404(4) 0.9230(4)
H40 H 0.7013 0.3713 0.9629
Co1C Co 1.06206(5) 0.80478(4) 0.19340(4)
Co2C Co 0.46861(5) 1.30009(4) 0.30667(4)
Co2_2 Co 0.46861(5) 0.19991(4) 0.80667(4)
O2C O 0.4283(3) 1.2058(2) 0.89704(19)
O8C O 1.1552(2) 0.7423(2) 0.78049(18)
N8_2 N 0.5801(3) 1.2630(2) 0.8476(2)
O9 O 0.8582(5) 0.4431(4) 0.0308(3)
H1 H 0.8894 0.4083 0.0306
O10 O 0.6960(4) 0.4511(3) 0.0797(3)
H2 H 0.6527 0.4308 0.0881
C37 C 0.8579(6) 0.4558(5) 0.1056(4)
H41 H 0.8523 0.5053 0.1124
H42 H 0.9169 0.4407 0.1417
C38 C 0.7813(6) 0.4200(4) 0.1225(4)
H43 H 0.7809 0.3713 0.1091
H44 H 0.7897 0.4232 0.1768
O11 O 0.0184(4) 0.3507(4) 0.0628(3)
H3 H 0.0107 0.3340 0.1012
O12 O 0.1800(4) 0.3286(4) 0.1922(3)
H4 H 0.2293 0.3358 0.2268
C39 C 0.0974(7) 0.3923(5) 0.0841(5)
H45 H 0.0885 0.4289 0.1172
H46 H 0.1030 0.4142 0.0384
C40 C 0.1850(7) 0.3571(5) 0.1234(5)
H47 H 0.1959 0.3207 0.0911
H48 H 0.2364 0.3898 0.1344
O13 O 0.3133(5) 0.0498(5) 0.5329(6)
H5 H 0.3125 0.0308 0.4911
O14 O 0.5437(5) 0.1205(5) 0.5875(4)
H6 H 0.5389 0.1533 0.6143
C41 C 0.4487(10) 0.0995(7) 0.5363(6)
H49 H 0.4095 0.1399 0.5186
H50 H 0.4531 0.0742 0.4921
C42 C 0.4108(10) 0.0553(6) 0.5833(6)
H51 H 0.4154 0.0771 0.6318
H52 H 0.4414 0.0104 0.5928
loop_
_geom_bond_atom_site_label_1
_geom_bond_atom_site_label_2
_geom_bond_site_symmetry_1
_geom_bond_site_symmetry_2
Co1 O5 1_555 1_555
Co2 O4 1_555 1_555
O1 C7 1_555 1_555
O2 C7 1_555 1_555
O3 C8 1_555 1_555
O4 C8 1_555 1_555
O5 C16 1_555 1_555
O6 C16 1_555 1_555
O7 C15 1_555 1_555
O8 C15 1_555 1_555
O9 H1 1_555 1_555
O10 H2 1_555 1_555
O11 H3 1_555 1_555
O12 H4 1_555 1_555
O13 H5 1_555 1_555
O14 H6 1_555 1_555
N1 Co1 1_555 1_555
N2 C18 1_555 1_555
N3 C23 1_555 1_555
N4 Co2 1_555 1_555
N5 Co1 1_555 1_555
N6 C27 1_555 1_555
N7 C33 1_555 1_555
N8 C34 1_555 1_555
I1 C1 1_555 1_555
I2 C9 1_555 1_555
C1 C2 1_555 1_555
C2 H7 1_555 1_555
C3 C2 1_555 1_555
C4 C3 1_555 1_555
H8 C4 1_555 1_555
C5 C4 1_555 1_555
C6 C1 1_555 1_555
H9 C6 1_555 1_555
C7 C3 1_555 1_555
C8 C5 1_555 1_555
C9 C10 1_555 1_555
C10 H10 1_555 1_555
C11 C10 1_555 1_555
C12 C11 1_555 1_555
H11 C12 1_555 1_555
C13 C12 1_555 1_555
C14 C9 1_555 1_555
H12 C14 1_555 1_555
C15 C11 1_555 1_555
C16 C13 1_555 1_555
C17 N1 1_555 1_555
H13 C17 1_555 1_555
C18 C17 1_555 1_555
H14 C18 1_555 1_555
C19 N1 1_555 1_555
H15 C19 1_555 1_555
C20 N2 1_555 1_555
H16 C20 1_555 1_555
H17 C20 1_555 1_555
C21 C20 1_555 1_555
H18 C21 1_555 1_555
H19 C21 1_555 1_555
C22 C21 1_555 1_555
H20 C22 1_555 1_555
H21 C22 1_555 1_555
C23 C22 1_555 1_555
H22 C23 1_555 1_555
H23 C23 1_555 1_555
C24 N3 1_555 1_555
H24 C24 1_555 1_555
C25 N4 1_555 1_555
H25 C25 1_555 1_555
C26 N3 1_555 1_555
H26 C26 1_555 1_555
C27 N5 1_555 1_555
H27 C27 1_555 1_555
C28 N5 1_555 1_555
H28 C28 1_555 1_555
C29 N6 1_555 1_555
H29 C29 1_555 1_555
C30 N6 1_555 1_555
H30 C30 1_555 1_555
H31 C30 1_555 1_555
C31 C30 1_555 1_555
H32 C31 1_555 1_555
H33 C31 1_555 1_555
C32 C31 1_555 1_555
H34 C32 1_555 1_555
H35 C32 1_555 1_555
C33 C32 1_555 1_555
H36 C33 1_555 1_555
H37 C33 1_555 1_555
C34 N7 1_555 1_555
H38 C34 1_555 1_555
C35 N8 1_555 1_555
H39 C35 1_555 1_555
C36 N7 1_555 1_555
H40 C36 1_555 1_555
C37 O9 1_555 1_555
H41 C37 1_555 1_555
H42 C37 1_555 1_555
C38 O10 1_555 1_555
H43 C38 1_555 1_555
H44 C38 1_555 1_555
C39 O11 1_555 1_555
H45 C39 1_555 1_555
H46 C39 1_555 1_555
C40 O12 1_555 1_555
H47 C40 1_555 1_555
H48 C40 1_555 1_555
C41 O14 1_555 1_555
H49 C41 1_555 1_555
H50 C41 1_555 1_555
C42 O13 1_555 1_555
H51 C42 1_555 1_555
H52 C42 1_555 1_555
Co1C O8 1_555 1_555
Co2C O2 1_555 1_555
Co2_2 N8 1_555 1_555
O2C Co2 1_555 1_555
O8C Co1 1_555 1_555
N8_2 Co2 1_555 1_555
N2 C19 1_555 1_555
N4 C26 1_555 1_555
C5 C6 1_555 1_555
C13 C14 1_555 1_555
C24 C25 1_555 1_555
C28 C29 1_555 1_555
C35 C36 1_555 1_555
C37 C38 1_555 1_555
C39 C40 1_555 1_555
C41 C42 1_555 1_555

#END
