
#######################################################################
#
#                 Cambridge Crystallographic Data Centre
#                                CCDC 
#
#######################################################################
#
# If this CIF has been generated from an entry in the Cambridge 
# Structural Database, then it will include bibliographic, chemical, 
# crystal, experimental, refinement or atomic coordinate data resulting 
# from the CCDC's data processing and validation procedures.
#
#######################################################################

data_DAWKET
_symmetry_cell_setting           orthorhombic
_symmetry_space_group_name_H-M   'P n a 21'
_symmetry_Int_Tables_number      33
_space_group_name_Hall           'P 2c -2n'
loop_
_symmetry_equiv_pos_site_id
_symmetry_equiv_pos_as_xyz
1 x,y,z
2 -x,-y,1/2+z
3 1/2-x,1/2+y,1/2+z
4 1/2+x,1/2-y,z
_cell_length_a                   24.7094(17)
_cell_length_b                   19.5965(10)
_cell_length_c                   11.1511(6)
_cell_angle_alpha                90
_cell_angle_beta                 90
_cell_angle_gamma                90
_cell_volume                     5399.56
loop_
_atom_site_label
_atom_site_type_symbol
_atom_site_fract_x
_atom_site_fract_y
_atom_site_fract_z
Co1 Co 0.60335(5) 0.73104(5) 0.33473(16)
Co2 Co 0.38391(4) 0.75960(5) -0.18577(17)
O1 O 0.6340(3) 0.6596(3) 0.4418(7)
O2 O 0.6081(3) 0.5950(4) 0.2919(8)
O3 O 0.6134(3) 0.3377(3) 0.3734(7)
O4 O 0.6919(4) 0.3061(4) 0.4409(9)
O5 O 0.6241(3) 0.8081(3) 0.4418(6)
O6 O 0.5785(3) 0.8681(3) 0.3092(8)
O7 O 0.6303(3) 1.1720(3) 0.4435(7)
O8 O 0.6055(3) 1.1164(3) 0.2842(6)
N1 N 0.6489(3) 0.7415(5) 0.1841(8)
N2 N 0.6932(4) 0.7205(5) 0.0202(9)
N3 N 0.5432(4) 0.7161(6) -0.2808(8)
N4 N 0.4605(3) 0.7548(4) -0.2479(8)
N5 N 0.5263(3) 0.7207(4) 0.2788(8)
N6 N 0.4431(3) 0.7432(5) 0.2276(9)
N7 N 0.2927(3) 0.7861(5) 0.5006(9)
N8 N 0.3319(3) 0.7591(4) 0.6717(7)
C1 C 0.6303(4) 0.6038(5) 0.3896(10)
C2 C 0.6561(4) 0.3485(4) 0.4258(9)
C3 C 0.6536(4) 0.5419(4) 0.4554(8)
C4 C 0.6876(4) 0.5512(4) 0.5500(9)
H1 H 0.6941 0.5949 0.5795
C5 C 0.7124(4) 0.4954(5) 0.6017(9)
C6 C 0.7015(4) 0.4307(5) 0.5648(8)
H2 H 0.7177 0.3935 0.6023
C7 C 0.6658(3) 0.4210(4) 0.4705(8)
C8 C 0.6420(4) 0.4762(4) 0.4180(9)
H3 H 0.6174 0.4695 0.3559
C9 C 0.6067(4) 0.8641(5) 0.3979(9)
C10 C 0.6200(4) 1.1178(4) 0.3887(9)
C11 C 0.6257(3) 0.9291(4) 0.4578(8)
C12 C 0.6135(4) 0.9909(4) 0.4060(8)
H4 H 0.5921 0.9916 0.3374
C13 C 0.6320(4) 1.0522(4) 0.4529(8)
C14 C 0.6629(4) 1.0498(4) 0.5568(9)
H5 H 0.6760 1.0899 0.5909
C15 C 0.6743(5) 0.9872(4) 0.6095(10)
C16 C 0.6568(4) 0.9271(4) 0.5606(9)
H6 H 0.6658 0.8856 0.5959
C17 C 0.6648(5) 0.8037(6) 0.1360(11)
H7 H 0.6575 0.8469 0.1665
C18 C 0.6931(6) 0.7883(8) 0.0352(12)
H8 H 0.7098 0.8198 -0.0153
C19 C 0.6658(5) 0.6958(5) 0.1124(9)
H9 H 0.6595 0.6494 0.1236
C20 C 0.7142(6) 0.6831(8) -0.0796(13)
H10 H 0.7408 0.7112 -0.1203
H11 H 0.7327 0.6429 -0.0496
C21 C 0.6769(6) 0.6631(8) -0.1600(14)
H12 H 0.6600 0.6222 -0.1281
H13 H 0.6963 0.6495 -0.2317
C22 C 0.6324(6) 0.7091(10) -0.1989(14)
H14 H 0.6475 0.7456 -0.2473
H15 H 0.6159 0.7296 -0.1287
C23 C 0.5899(6) 0.6733(9) -0.2695(14)
H16 H 0.6038 0.6621 -0.3484
H17 H 0.5800 0.6311 -0.2296
C24 C 0.4957(4) 0.7086(6) -0.2199(10)
H18 H 0.4893 0.6741 -0.1643
C25 C 0.5360(6) 0.7689(7) -0.3541(12)
H19 H 0.5610 0.7860 -0.4088
C26 C 0.4856(5) 0.7933(6) -0.3341(10)
H20 H 0.4702 0.8305 -0.3730
C27 C 0.5118(5) 0.6782(7) 0.1838(13)
H21 H 0.5337 0.6456 0.1472
C28 C 0.4600(5) 0.6933(7) 0.1548(13)
H22 H 0.4397 0.6726 0.0948
C29 C 0.4841(4) 0.7596(5) 0.3001(11)
H23 H 0.4830 0.7938 0.3577
C30 C 0.3891(4) 0.7772(6) 0.2299(11)
H24 H 0.3909 0.8180 0.2790
H25 H 0.3790 0.7907 0.1492
C31 C 0.3471(4) 0.7297(7) 0.2796(13)
H26 H 0.3568 0.7168 0.3608
H27 H 0.3457 0.6885 0.2314
C32 C 0.2894(5) 0.7652(9) 0.2800(14)
H28 H 0.2833 0.7870 0.2031
H29 H 0.2616 0.7309 0.2911
C33 C 0.2850(5) 0.8186(7) 0.3798(11)
H30 H 0.3122 0.8536 0.3680
H31 H 0.2497 0.8402 0.3764
C34 C 0.2646(6) 0.7331(8) 0.5484(14)
H32 H 0.2344 0.7119 0.5155
C35 C 0.2887(6) 0.7173(7) 0.6512(13)
H33 H 0.2777 0.6825 0.7022
C36 C 0.3317(4) 0.7990(5) 0.5786(10)
H34 H 0.3568 0.8338 0.5678
I1 I 0.76805(5) 0.50832(6) 0.74435(16)
I2 I 0.72309(5) 0.98382(5) 0.76543(15)
Co2_2 Co 0.38391(4) 0.75960(5) 0.81423(17)
Co2A Co 0.61609(4) 0.24040(5) 0.31423(17)
Co2A_2 Co 0.61609(4) 1.24040(5) 0.31423(17)
O3A O 0.3866(3) 0.6623(3) -0.1266(7)
O7A O 0.3697(3) 0.8280(3) -0.0565(7)
N8_2 N 0.3319(3) 0.7591(4) -0.3283(7)
O9 O 0.4186(6) -0.0955(6) 0.4171(11)
N9 N 0.4340(9) 0.0116(12) 0.427(3)
C37 C 0.4015(11) 0.0075(10) 0.5507(17)
H35 H 0.3634 0.0118 0.5352
H36 H 0.4130 0.0439 0.6024
H37 H 0.4085 -0.0355 0.5887
C38 C 0.4509(10) 0.0846(8) 0.392(3)
H38 H 0.4694 0.0836 0.3162
H39 H 0.4747 0.1027 0.4522
H40 H 0.4193 0.1128 0.3857
C39 C 0.4366(9) -0.0404(11) 0.3753(19)
C40 C 0.4625(8) -0.0375(13) 0.2451(18)
H41 H 0.4805 0.0055 0.2342
H42 H 0.4346 -0.0425 0.1860
H43 H 0.4883 -0.0739 0.2365
O10 O 0.5610(14) 0.5617(10) 0.958(2)
N10 N 0.5700(10) 0.4599(10) 1.0034(15)
C41 C 0.5361(12) 0.5080(11) 0.970(2)
C42 C 0.6276(13) 0.4719(18) 1.022(5)
H44 H 0.6473 0.4297 1.0185
H45 H 0.6297 0.4904 1.1013
H46 H 0.6430 0.5037 0.9659
C43 C 0.5536(12) 0.3896(11) 1.026(3)
H47 H 0.5224 0.3878 1.0770
H48 H 0.5827 0.3646 1.0618
H49 H 0.5448 0.3698 0.9494
C44 C 0.4811(13) 0.489(3) 0.955(6)
H50 H 0.4788 0.4409 0.9444
H51 H 0.4700 0.5120 0.8831
H52 H 0.4577 0.5028 1.0200
loop_
_geom_bond_atom_site_label_1
_geom_bond_atom_site_label_2
_geom_bond_site_symmetry_1
_geom_bond_site_symmetry_2
Co1 O1 1_555 1_555
Co2 N4 1_555 1_555
O1 C1 1_555 1_555
O2 C1 1_555 1_555
O3 C2 1_555 1_555
O4 C2 1_555 1_555
O5 Co1 1_555 1_555
O6 C9 1_555 1_555
O7 C10 1_555 1_555
O8 C10 1_555 1_555
O9 C39 1_555 1_555
O10 C41 1_555 1_555
N1 Co1 1_555 1_555
N2 C18 1_555 1_555
N3 C23 1_555 1_555
N4 C24 1_555 1_555
N5 Co1 1_555 1_555
N6 C28 1_555 1_555
N7 C33 1_555 1_555
N8 C35 1_555 1_555
N9 C37 1_555 1_555
N10 C41 1_555 1_555
C1 C3 1_555 1_555
C2 C7 1_555 1_555
C3 C4 1_555 1_555
C4 H1 1_555 1_555
C5 C4 1_555 1_555
C6 C5 1_555 1_555
H2 C6 1_555 1_555
C7 C6 1_555 1_555
C8 C3 1_555 1_555
H3 C8 1_555 1_555
C9 O5 1_555 1_555
C10 C13 1_555 1_555
C11 C9 1_555 1_555
C12 C11 1_555 1_555
H4 C12 1_555 1_555
C13 C12 1_555 1_555
C14 C13 1_555 1_555
H5 C14 1_555 1_555
C15 C14 1_555 1_555
C16 C11 1_555 1_555
H6 C16 1_555 1_555
C17 N1 1_555 1_555
H7 C17 1_555 1_555
C18 C17 1_555 1_555
H8 C18 1_555 1_555
C19 N1 1_555 1_555
H9 C19 1_555 1_555
C20 N2 1_555 1_555
H10 C20 1_555 1_555
H11 C20 1_555 1_555
C21 C20 1_555 1_555
H12 C21 1_555 1_555
H13 C21 1_555 1_555
C22 C21 1_555 1_555
H14 C22 1_555 1_555
H15 C22 1_555 1_555
C23 C22 1_555 1_555
H16 C23 1_555 1_555
H17 C23 1_555 1_555
C24 N3 1_555 1_555
H18 C24 1_555 1_555
C25 N3 1_555 1_555
H19 C25 1_555 1_555
C26 N4 1_555 1_555
H20 C26 1_555 1_555
C27 N5 1_555 1_555
H21 C27 1_555 1_555
C28 C27 1_555 1_555
H22 C28 1_555 1_555
C29 N5 1_555 1_555
H23 C29 1_555 1_555
C30 N6 1_555 1_555
H24 C30 1_555 1_555
H25 C30 1_555 1_555
C31 C30 1_555 1_555
H26 C31 1_555 1_555
H27 C31 1_555 1_555
C32 C31 1_555 1_555
H28 C32 1_555 1_555
H29 C32 1_555 1_555
C33 C32 1_555 1_555
H30 C33 1_555 1_555
H31 C33 1_555 1_555
C34 N7 1_555 1_555
H32 C34 1_555 1_555
C35 C34 1_555 1_555
H33 C35 1_555 1_555
C36 N7 1_555 1_555
H34 C36 1_555 1_555
C37 H35 1_555 1_555
H36 C37 1_555 1_555
H37 C37 1_555 1_555
C38 N9 1_555 1_555
H38 C38 1_555 1_555
H39 C38 1_555 1_555
H40 C38 1_555 1_555
C39 N9 1_555 1_555
C40 C39 1_555 1_555
H41 C40 1_555 1_555
H42 C40 1_555 1_555
H43 C40 1_555 1_555
C41 C44 1_555 1_555
C42 N10 1_555 1_555
H44 C42 1_555 1_555
H45 C42 1_555 1_555
H46 C42 1_555 1_555
C43 N10 1_555 1_555
H47 C43 1_555 1_555
H48 C43 1_555 1_555
H49 C43 1_555 1_555
C44 H50 1_555 1_555
H51 C44 1_555 1_555
H52 C44 1_555 1_555
I1 C5 1_555 1_555
I2 C15 1_555 1_555
Co2_2 N8 1_555 1_555
Co2A O3 1_555 1_555
Co2A_2 O7 1_555 1_555
O3A Co2 1_555 1_555
O7A Co2 1_555 1_555
N8_2 Co2 1_555 1_555
N2 C19 1_555 1_555
N6 C29 1_555 1_555
N8 C36 1_555 1_555
C7 C8 1_555 1_555
C15 C16 1_555 1_555
C25 C26 1_555 1_555

#END
