
#######################################################################
#
#                 Cambridge Crystallographic Data Centre
#                                CCDC 
#
#######################################################################
#
# If this CIF has been generated from an entry in the Cambridge 
# Structural Database, then it will include bibliographic, chemical, 
# crystal, experimental, refinement or atomic coordinate data resulting 
# from the CCDC's data processing and validation procedures.
#
#######################################################################

data_DAWKUJ
_symmetry_cell_setting           monoclinic
_symmetry_space_group_name_H-M   'C 2/c'
_symmetry_Int_Tables_number      15
_space_group_name_Hall           '-C 2yn'
loop_
_symmetry_equiv_pos_site_id
_symmetry_equiv_pos_as_xyz
1 x,y,z
2 -x,y,1/2-z
3 1/2+x,1/2+y,z
4 1/2-x,1/2+y,1/2-z
5 -x,-y,-z
6 x,-y,1/2+z
7 1/2-x,1/2-y,-z
8 1/2+x,1/2-y,1/2+z
_cell_length_a                   19.0944(8)
_cell_length_b                   15.4582(4)
_cell_length_c                   18.8603(10)
_cell_angle_alpha                90
_cell_angle_beta                 116.906(2)
_cell_angle_gamma                90
_cell_volume                     4964.29
loop_
_atom_site_label
_atom_site_type_symbol
_atom_site_fract_x
_atom_site_fract_y
_atom_site_fract_z
Nd1 Nd 0.04477(2) 0.63031(2) 0.01285(2)
O1 O -0.1029(3) 0.6520(3) -0.1013(3)
O2 O -0.0043(3) 0.6028(3) 0.1039(3)
H1 H 0.0051 0.5545 0.1279
H2 H -0.0384 0.6358 0.1068
O3 O 0.1696(4) 0.6550(3) 0.1411(3)
O4 O 0.0060(4) 0.7695(3) 0.0479(3)
O5 O -0.0488(3) 0.5685(3) -0.3986(3)
O6 O -0.0818(3) 0.5203(3) -0.0549(3)
O7 O 0.0492(3) 0.7800(3) -0.0338(3)
O8 O -0.1614(3) 0.6312(3) -0.4911(3)
N1 N 0.3049(5) 0.6772(5) 0.2345(5)
C1 C -0.1317(4) 0.5789(4) -0.1017(4)
C2 C -0.2191(4) 0.5609(4) -0.1497(4)
C3 C -0.2613(5) 0.5459(5) -0.1110(5)
H3 H -0.2362 0.5420 -0.0558
C4 C -0.3456(6) 0.5358(7) -0.1532(6)
H4 H -0.3720 0.5269 -0.1227
C5 C -0.3899(6) 0.5382(8) -0.2337(6)
H5 H -0.4441 0.5306 -0.2581
C6 C -0.3505(5) 0.5520(6) -0.2734(5)
H6 H -0.3770 0.5551 -0.3286
C7 C -0.2658(4) 0.5626(5) -0.2335(4)
C8 C -0.2267(4) 0.5732(4) -0.2808(4)
C9 C -0.1551(4) 0.5280(5) -0.2610(4)
H7 H -0.1327 0.4938 -0.2156
C10 C -0.1212(4) 0.5353(5) -0.3074(4)
H8 H -0.0740 0.5076 -0.2959
C11 C -0.1590(4) 0.5865(4) -0.3747(4)
C12 C -0.2312(4) 0.6288(5) -0.3962(4)
H9 H -0.2548 0.6606 -0.4431
C13 C -0.2644(4) 0.6226(5) -0.3490(4)
H10 H -0.3116 0.6504 -0.3609
C14 C -0.1214(4) 0.5959(4) -0.4252(4)
C15 C -0.0345(5) 0.9477(4) 0.0314(4)
H11 H -0.0593 0.9132 0.0536
C16 C 0.0094(4) 0.9111(4) 0.0014(4)
C17 C 0.0433(5) 0.9638(4) -0.0298(5)
H12 H 0.0741 0.9399 -0.0514
C18 C 0.0220(4) 0.8150(4) 0.0043(4)
C19 C 0.3890(7) 0.6981(8) 0.2512(8)
H13 H 0.3930 0.6972 0.2023
H14 H 0.4240 0.6559 0.2870
H15 H 0.4029 0.7545 0.2748
C20 C 0.2903(8) 0.6749(7) 0.2999(6)
H16 H 0.2360 0.6616 0.2831
H17 H 0.3024 0.7302 0.3259
H18 H 0.3226 0.6312 0.3363
C21 C 0.2423(6) 0.6665(5) 0.1607(5)
H19 H 0.2548 0.6679 0.1185
Nd1A Nd -0.04477(2) 0.63031(2) -0.51285(2)
Nd1D Nd -0.04477(2) 0.36969(2) -0.01285(2)
Nd1D_2 Nd -0.04477(2) 1.36969(2) -0.01285(2)
Nd1E Nd 0.04477(2) 0.36969(2) -0.48715(2)
O1A O 0.1029(3) 0.6520(3) -0.3987(3)
O2A O 0.0043(3) 0.6028(3) -0.6039(3)
H1A H -0.0051 0.5545 -0.6279
H2A H 0.0384 0.6358 -0.6068
O3A O -0.1696(4) 0.6550(3) -0.6411(3)
O4D O -0.0060(4) 1.2305(3) -0.0479(3)
O4A O -0.0060(4) 0.7695(3) -0.5479(3)
O5A O 0.0488(3) 0.5685(3) -0.1014(3)
O6A O 0.0818(3) 0.5203(3) -0.4451(3)
O6D O 0.0818(3) 0.4797(3) 0.0549(3)
O6E O -0.0818(3) 0.4797(3) -0.5549(3)
O7D O -0.0492(3) 1.2200(3) 0.0338(3)
O7A O -0.0492(3) 0.7800(3) -0.4662(3)
O8A O 0.1614(3) 0.6312(3) -0.0089(3)
N1A N -0.3049(5) 0.6772(5) -0.7345(5)
C1A C 0.1317(4) 0.5789(4) -0.3983(4)
C2A C 0.2191(4) 0.5609(4) -0.3503(4)
C3A C 0.2613(5) 0.5459(5) -0.3890(5)
H3A H 0.2362 0.5420 -0.4442
C4A C 0.3456(6) 0.5358(7) -0.3468(6)
H4A H 0.3720 0.5269 -0.3773
C5A C 0.3899(6) 0.5382(8) -0.2663(6)
H5A H 0.4441 0.5306 -0.2419
C6A C 0.3505(5) 0.5520(6) -0.2266(5)
H6A H 0.3770 0.5551 -0.1714
C7A C 0.2658(4) 0.5626(5) -0.2665(4)
C8A C 0.2267(4) 0.5732(4) -0.2192(4)
C9A C 0.1551(4) 0.5280(5) -0.2390(4)
H7A H 0.1327 0.4938 -0.2844
C10A C 0.1212(4) 0.5353(5) -0.1926(4)
H8A H 0.0740 0.5076 -0.2041
C11A C 0.1590(4) 0.5865(4) -0.1253(4)
C12A C 0.2312(4) 0.6288(5) -0.1038(4)
H9A H 0.2548 0.6606 -0.0569
C13A C 0.2644(4) 0.6226(5) -0.1510(4)
H10A H 0.3116 0.6504 -0.1391
C14A C 0.1214(4) 0.5959(4) -0.0748(4)
C15D C 0.0345(5) 1.0523(4) -0.0314(4)
H11D H 0.0593 1.0868 -0.0536
C16D C -0.0094(4) 1.0889(4) -0.0014(4)
C17D C -0.0433(5) 1.0362(4) 0.0298(5)
H12D H -0.0741 1.0601 0.0514
C18D C -0.0220(4) 1.1850(4) -0.0043(4)
C19A C -0.3890(7) 0.6981(8) -0.7512(8)
H13A H -0.3930 0.6972 -0.7023
H14A H -0.4240 0.6559 -0.7870
H15A H -0.4029 0.7545 -0.7748
C20A C -0.2903(8) 0.6749(7) -0.7999(6)
H16A H -0.2360 0.6616 -0.7831
H17A H -0.3024 0.7302 -0.8259
H18A H -0.3226 0.6312 -0.8363
C21A C -0.2423(6) 0.6665(5) -0.6607(5)
H19A H -0.2548 0.6679 -0.6185
O9 O -0.2500 0.7500 0.0000
O10 O 0.0381(16) 0.7305(16) 0.2161(14)
H20? H -0.2239 0.7967 0.0153
H21? H 0.0162 0.7387 0.2460
H22? H 0.0877 0.7306 0.2441
H23? H -0.2509 0.7330 -0.0433
loop_
_geom_bond_atom_site_label_1
_geom_bond_atom_site_label_2
_geom_bond_site_symmetry_1
_geom_bond_site_symmetry_2
Nd1 O1 1_555 1_555
O1 C1 1_555 1_555
O2 Nd1 1_555 1_555
H1 O2 1_555 1_555
H2 O2 1_555 1_555
O3 Nd1 1_555 1_555
O4 Nd1 1_555 1_555
O5 C14 1_555 1_555
O6 Nd1 1_555 1_555
O7 Nd1 1_555 1_555
O8 C14 1_555 1_555
N1 C19 1_555 1_555
C1 O6 1_555 1_555
C2 C1 1_555 1_555
C3 C2 1_555 1_555
H3 C3 1_555 1_555
C4 C3 1_555 1_555
H4 C4 1_555 1_555
C5 C4 1_555 1_555
H5 C5 1_555 1_555
C6 C5 1_555 1_555
H6 C6 1_555 1_555
C7 C2 1_555 1_555
C8 C7 1_555 1_555
C9 C8 1_555 1_555
H7 C9 1_555 1_555
C10 C9 1_555 1_555
H8 C10 1_555 1_555
C11 C10 1_555 1_555
C12 C11 1_555 1_555
H9 C12 1_555 1_555
C13 C8 1_555 1_555
H10 C13 1_555 1_555
C14 C11 1_555 1_555
C15 H11 1_555 1_555
C16 C15 1_555 1_555
C17 C16 1_555 1_555
H12 C17 1_555 1_555
C18 O4 1_555 1_555
C19 H13 1_555 1_555
H14 C19 1_555 1_555
H15 C19 1_555 1_555
C20 N1 1_555 1_555
H16 C20 1_555 1_555
H17 C20 1_555 1_555
H18 C20 1_555 1_555
C21 O3 1_555 1_555
H19 C21 1_555 1_555
Nd1A O5 1_555 1_555
Nd1D O6 1_555 1_555
Nd1D_2 O4D 1_555 1_555
Nd1E O6A 1_555 1_555
O1A Nd1A 1_555 1_555
O2A Nd1A 1_555 1_555
H1A O2A 1_555 1_555
H2A O2A 1_555 1_555
O3A Nd1A 1_555 1_555
O4D C18D 1_555 1_555
O4A Nd1A 1_555 1_555
O5A Nd1 1_555 1_555
O6A Nd1A 1_555 1_555
O6D Nd1 1_555 1_555
O6E Nd1A 1_555 1_555
O7D Nd1D_2 1_555 1_555
O7A Nd1A 1_555 1_555
O8A Nd1 1_555 1_555
N1A C19A 1_555 1_555
C1A O1A 1_555 1_555
C2A C1A 1_555 1_555
C3A C2A 1_555 1_555
H3A C3A 1_555 1_555
C4A C3A 1_555 1_555
H4A C4A 1_555 1_555
C5A C4A 1_555 1_555
H5A C5A 1_555 1_555
C6A C5A 1_555 1_555
H6A C6A 1_555 1_555
C7A C2A 1_555 1_555
C8A C7A 1_555 1_555
C9A C8A 1_555 1_555
H7A C9A 1_555 1_555
C10A C9A 1_555 1_555
H8A C10A 1_555 1_555
C11A C10A 1_555 1_555
C12A C11A 1_555 1_555
H9A C12A 1_555 1_555
C13A C8A 1_555 1_555
H10A C13A 1_555 1_555
C14A O5A 1_555 1_555
C15D C17 1_555 1_555
H11D C15D 1_555 1_555
C16D C15D 1_555 1_555
C17D C15 1_555 1_555
H12D C17D 1_555 1_555
C18D O7D 1_555 1_555
C19A H13A 1_555 1_555
H14A C19A 1_555 1_555
H15A C19A 1_555 1_555
C20A N1A 1_555 1_555
H16A C20A 1_555 1_555
H17A C20A 1_555 1_555
H18A C20A 1_555 1_555
C21A O3A 1_555 1_555
H19A C21A 1_555 1_555
O7 C18 1_555 1_555
O8 Nd1A 1_555 1_555
N1 C21 1_555 1_555
C6 C7 1_555 1_555
C12 C13 1_555 1_555
C16 C18 1_555 1_555
Nd1D O6D 1_555 1_555
Nd1E O6E 1_555 1_555
O6A C1A 1_555 1_555
O8A C14A 1_555 1_555
N1A C21A 1_555 1_555
C6A C7A 1_555 1_555
C11A C14A 1_555 1_555
C12A C13A 1_555 1_555
C16D C17D 1_555 1_555
C16D C18D 1_555 1_555

#END
