
#######################################################################
#
#                 Cambridge Crystallographic Data Centre
#                                CCDC 
#
#######################################################################
#
# If this CIF has been generated from an entry in the Cambridge 
# Structural Database, then it will include bibliographic, chemical, 
# crystal, experimental, refinement or atomic coordinate data resulting 
# from the CCDC's data processing and validation procedures.
#
#######################################################################

data_DAWLUK
_symmetry_cell_setting           monoclinic
_symmetry_space_group_name_H-M   'C 2/c'
_symmetry_Int_Tables_number      15
_space_group_name_Hall           '-C 2yn'
loop_
_symmetry_equiv_pos_site_id
_symmetry_equiv_pos_as_xyz
1 x,y,z
2 -x,y,1/2-z
3 1/2+x,1/2+y,z
4 1/2-x,1/2+y,1/2-z
5 -x,-y,-z
6 x,-y,1/2+z
7 1/2-x,1/2-y,-z
8 1/2+x,1/2-y,1/2+z
_cell_length_a                   19.094(4)
_cell_length_b                   15.375(3)
_cell_length_c                   18.899(4)
_cell_angle_alpha                90
_cell_angle_beta                 117.10(3)
_cell_angle_gamma                90
_cell_volume                     4939.06
loop_
_atom_site_label
_atom_site_type_symbol
_atom_site_fract_x
_atom_site_fract_y
_atom_site_fract_z
Eu1 Eu -0.218920(13) 0.379991(13) -0.013085(12)
O1 O -0.0817(2) 0.3812(3) 0.0077(2)
O2 O -0.10207(19) 0.3191(2) 0.1011(2)
O3 O 0.2528(2) 0.4017(2) 0.4012(2)
O4 O 0.2762(2) 0.2690(2) 0.44558(18)
O5 O -0.2241(3) 0.4053(3) -0.1404(2)
O6 O -0.1669(2) 0.5281(2) 0.0343(2)
O7 O -0.2921(2) 0.5181(2) -0.0487(2)
O8 O -0.3572(2) 0.3526(2) -0.1013(2)
H1 H -0.3663 0.3617 -0.1491
H2 H -0.3680 0.3001 -0.0962
N1 N -0.1828(4) 0.4266(4) -0.2349(3)
C1 C -0.0554(3) 0.3458(3) 0.0745(3)
C2 C 0.0317(3) 0.3365(3) 0.1244(3)
C3 C 0.0627(3) 0.2854(4) 0.1927(3)
H3 H 0.0289 0.2557 0.2074
C4 C 0.1431(3) 0.2784(4) 0.2391(3)
H4 H 0.1628 0.2438 0.2844
C5 C 0.1946(3) 0.3225(3) 0.2187(3)
C6 C 0.1638(3) 0.3728(4) 0.1497(3)
H5 H 0.1978 0.4021 0.1350
C7 C 0.0830(3) 0.3798(4) 0.1027(3)
H6 H 0.0632 0.4134 0.0567
C8 C 0.2812(3) 0.3134(4) 0.2668(3)
C9 C 0.3258(4) 0.3020(6) 0.2262(4)
H7 H 0.3011 0.3031 0.1709
C10 C 0.4060(4) 0.2891(7) 0.2667(5)
H8 H 0.4350 0.2821 0.2387
C11 C 0.4430(3) 0.2864(6) 0.3477(4)
H9 H 0.4972 0.2784 0.3749
C12 C 0.3996(3) 0.2957(4) 0.3895(3)
H10 H 0.4246 0.2915 0.4446
C13 C 0.3193(3) 0.3110(3) 0.3498(3)
C14 C 0.2793(3) 0.3284(3) 0.4004(3)
C15 C -0.1705(5) 0.4158(5) -0.1612(4)
H11 H -0.1187 0.4159 -0.1215
C16 C -0.1175(7) 0.4478(7) -0.2536(6)
H12 H -0.0682 0.4390 -0.2072
H13 H -0.1217 0.5075 -0.2701
H14 H -0.1203 0.4108 -0.2957
C17 C -0.2624(6) 0.4261(6) -0.2987(5)
H15 H -0.2989 0.4215 -0.2769
H16 H -0.2691 0.3773 -0.3330
H17 H -0.2720 0.4790 -0.3287
C18 C -0.2327(3) 0.5628(3) -0.0044(3)
C19 C -0.2421(3) 0.6603(3) -0.0015(3)
C20 C -0.3149(3) 0.6972(3) -0.0316(3)
H18 H -0.3594 0.6620 -0.0527
C21 C -0.1764(3) 0.7129(3) 0.0310(3)
H19 H -0.1265 0.6884 0.0524
Eu1A Eu 0.218920(13) 0.379991(13) 0.513085(12)
Eu1G Eu 0.281080(13) 0.120009(13) 0.486915(12)
Eu1F Eu -0.281080(13) 1.120009(13) 0.013085(12)
Eu1F_2 Eu -0.281080(13) 0.120009(13) 0.013085(12)
O1A O 0.0817(2) 0.3812(3) 0.4923(2)
O2A O 0.10207(19) 0.3191(2) 0.3989(2)
O3A O -0.2528(2) 0.4017(2) 0.0988(2)
O4A O -0.2762(2) 0.2690(2) 0.05442(18)
O4G O -0.2238(2) 0.2310(2) -0.05442(18)
O4F O 0.2238(2) 0.2310(2) 0.55442(18)
O5A O 0.2241(3) 0.4053(3) 0.6404(2)
O6F O -0.3331(2) 0.9719(2) -0.0343(2)
O6A O 0.1669(2) 0.5281(2) 0.4657(2)
O7F O -0.2079(2) 0.9819(2) 0.0487(2)
O7A O 0.2921(2) 0.5181(2) 0.5487(2)
O8A O 0.3572(2) 0.3526(2) 0.6013(2)
H1A H 0.3663 0.3617 0.6491
H2A H 0.3680 0.3001 0.5962
N1A N 0.1828(4) 0.4266(4) 0.7349(3)
C1A C 0.0554(3) 0.3458(3) 0.4255(3)
C2A C -0.0317(3) 0.3365(3) 0.3756(3)
C3A C -0.0627(3) 0.2854(4) 0.3073(3)
H3A H -0.0289 0.2557 0.2926
C4A C -0.1431(3) 0.2784(4) 0.2609(3)
H4A H -0.1628 0.2438 0.2156
C5A C -0.1946(3) 0.3225(3) 0.2813(3)
C6A C -0.1638(3) 0.3728(4) 0.3503(3)
H5A H -0.1978 0.4021 0.3650
C7A C -0.0830(3) 0.3798(4) 0.3973(3)
H6A H -0.0632 0.4134 0.4433
C8A C -0.2812(3) 0.3134(4) 0.2332(3)
C9A C -0.3258(4) 0.3020(6) 0.2738(4)
H7A H -0.3011 0.3031 0.3291
C10A C -0.4060(4) 0.2891(7) 0.2333(5)
H8A H -0.4350 0.2821 0.2613
C11A C -0.4430(3) 0.2864(6) 0.1523(4)
H9A H -0.4972 0.2784 0.1251
C12A C -0.3996(3) 0.2957(4) 0.1105(3)
H10A H -0.4246 0.2915 0.0554
C13A C -0.3193(3) 0.3110(3) 0.1502(3)
C14A C -0.2793(3) 0.3284(3) 0.0996(3)
C15A C 0.1705(5) 0.4158(5) 0.6612(4)
H11A H 0.1187 0.4159 0.6215
C16A C 0.1175(7) 0.4478(7) 0.7536(6)
H12A H 0.0682 0.4390 0.7072
H13A H 0.1217 0.5075 0.7701
H14A H 0.1203 0.4108 0.7957
C17A C 0.2624(6) 0.4261(6) 0.7987(5)
H15A H 0.2989 0.4215 0.7769
H16A H 0.2691 0.3773 0.8330
H17A H 0.2720 0.4790 0.8287
C18F C -0.2673(3) 0.9372(3) 0.0044(3)
C19F C -0.2579(3) 0.8397(3) 0.0015(3)
C20F C -0.1851(3) 0.8028(3) 0.0316(3)
H18F H -0.1406 0.8380 0.0527
C21F C -0.3236(3) 0.7871(3) -0.0310(3)
H19F H -0.3735 0.8116 -0.0524
O9 O 0.5000 0.5000 0.5000
O10 O -0.4265(13) 0.4748(15) -0.2198(10)
H21 H -0.4562 0.5189 -0.2385
H22 H -0.4058 0.4619 -0.2498
H20? H 0.5488 0.4901 0.5282
H23? H 0.4940 0.5402 0.4668
loop_
_geom_bond_atom_site_label_1
_geom_bond_atom_site_label_2
_geom_bond_site_symmetry_1
_geom_bond_site_symmetry_2
Eu1 O1 1_555 1_555
O1 C1 1_555 1_555
O2 Eu1 1_555 1_555
O3 C14 1_555 1_555
O4 C14 1_555 1_555
O5 Eu1 1_555 1_555
O6 Eu1 1_555 1_555
O7 Eu1 1_555 1_555
O8 Eu1 1_555 1_555
H1 O8 1_555 1_555
H2 O8 1_555 1_555
N1 C15 1_555 1_555
C1 O2 1_555 1_555
C2 C1 1_555 1_555
C3 C2 1_555 1_555
H3 C3 1_555 1_555
C4 C3 1_555 1_555
H4 C4 1_555 1_555
C5 C4 1_555 1_555
C6 C5 1_555 1_555
H5 C6 1_555 1_555
C7 C2 1_555 1_555
H6 C7 1_555 1_555
C8 C5 1_555 1_555
C9 C8 1_555 1_555
H7 C9 1_555 1_555
C10 C9 1_555 1_555
H8 C10 1_555 1_555
C11 C10 1_555 1_555
H9 C11 1_555 1_555
C12 C11 1_555 1_555
H10 C12 1_555 1_555
C13 C8 1_555 1_555
C14 C13 1_555 1_555
C15 O5 1_555 1_555
H11 C15 1_555 1_555
C16 N1 1_555 1_555
H12 C16 1_555 1_555
H13 C16 1_555 1_555
H14 C16 1_555 1_555
C17 N1 1_555 1_555
H15 C17 1_555 1_555
H16 C17 1_555 1_555
H17 C17 1_555 1_555
C18 O6 1_555 1_555
C19 C18 1_555 1_555
C20 C19 1_555 1_555
H18 C20 1_555 1_555
C21 C19 1_555 1_555
H19 C21 1_555 1_555
O10 H21 1_555 1_555
H22 O10 1_555 1_555
Eu1A O3 1_555 1_555
Eu1G O4 1_555 1_555
Eu1F O6F 1_555 1_555
Eu1F_2 O4A 1_555 1_555
O1A Eu1A 1_555 1_555
O2A Eu1A 1_555 1_555
O3A Eu1 1_555 1_555
O4A Eu1 1_555 1_555
O4G Eu1 1_555 1_555
O4F Eu1A 1_555 1_555
O5A Eu1A 1_555 1_555
O6F C18F 1_555 1_555
O6A Eu1A 1_555 1_555
O7F Eu1F 1_555 1_555
O7A Eu1A 1_555 1_555
O8A Eu1A 1_555 1_555
H1A O8A 1_555 1_555
H2A O8A 1_555 1_555
N1A C15A 1_555 1_555
C1A O1A 1_555 1_555
C2A C1A 1_555 1_555
C3A C2A 1_555 1_555
H3A C3A 1_555 1_555
C4A C3A 1_555 1_555
H4A C4A 1_555 1_555
C5A C4A 1_555 1_555
C6A C5A 1_555 1_555
H5A C6A 1_555 1_555
C7A C2A 1_555 1_555
H6A C7A 1_555 1_555
C8A C5A 1_555 1_555
C9A C8A 1_555 1_555
H7A C9A 1_555 1_555
C10A C9A 1_555 1_555
H8A C10A 1_555 1_555
C11A C10A 1_555 1_555
H9A C11A 1_555 1_555
C12A C11A 1_555 1_555
H10A C12A 1_555 1_555
C13A C8A 1_555 1_555
C14A O3A 1_555 1_555
C15A O5A 1_555 1_555
H11A C15A 1_555 1_555
C16A N1A 1_555 1_555
H12A C16A 1_555 1_555
H13A C16A 1_555 1_555
H14A C16A 1_555 1_555
C17A N1A 1_555 1_555
H15A C17A 1_555 1_555
H16A C17A 1_555 1_555
H17A C17A 1_555 1_555
C18F O7F 1_555 1_555
C19F C18F 1_555 1_555
C20F C21 1_555 1_555
H18F C20F 1_555 1_555
C21F C20 1_555 1_555
H19F C21F 1_555 1_555
O4 Eu1A 1_555 1_555
O7 C18 1_555 1_555
C6 C7 1_555 1_555
C12 C13 1_555 1_555
Eu1G O4F 1_555 1_555
Eu1F_2 O4G 1_555 1_555
O2A C1A 1_555 1_555
O4A C14A 1_555 1_555
C6A C7A 1_555 1_555
C12A C13A 1_555 1_555
C13A C14A 1_555 1_555
C19F C20F 1_555 1_555
C19F C21F 1_555 1_555

#END
