
#######################################################################
#
#                 Cambridge Crystallographic Data Centre
#                                CCDC 
#
#######################################################################
#
# If this CIF has been generated from an entry in the Cambridge 
# Structural Database, then it will include bibliographic, chemical, 
# crystal, experimental, refinement or atomic coordinate data resulting 
# from the CCDC's data processing and validation procedures.
#
#######################################################################

data_DAWLIY
_symmetry_cell_setting           triclinic
_symmetry_space_group_name_H-M   'P -1'
_symmetry_Int_Tables_number      2
_space_group_name_Hall           '-P 1'
loop_
_symmetry_equiv_pos_site_id
_symmetry_equiv_pos_as_xyz
1 x,y,z
2 -x,-y,-z
_cell_length_a                   9.2634(19)
_cell_length_b                   9.4204(19)
_cell_length_c                   15.549(3)
_cell_angle_alpha                83.92(3)
_cell_angle_beta                 75.00(3)
_cell_angle_gamma                74.13(3)
_cell_volume                     1259.79
loop_
_atom_site_label
_atom_site_type_symbol
_atom_site_fract_x
_atom_site_fract_y
_atom_site_fract_z
Eu1 Eu 0.70099(2) -0.03119(2) 0.031015(15)
O1 O 0.6122(7) 0.8584(5) 0.3498(3)
H1 H 0.5982 0.8953 0.3015
O2 O 0.7132(9) 0.6628(6) 0.2693(4)
O3 O 0.8440(4) 0.0374(5) 0.1138(3)
O4 O 0.5464(4) -0.0403(4) 0.1927(2)
O5 O 0.4223(4) -0.0514(4) 0.0924(2)
O6 O 0.5580(4) -0.7863(4) 0.0564(3)
O7 O 0.3271(4) -0.7511(4) 0.0265(3)
O8 O 1.0796(4) 0.0701(5) 0.0796(3)
O9 O 0.8213(5) -0.2702(5) 0.0972(3)
H2 H 0.8647 -0.3319 0.0563
H3 H 0.7523 -0.3021 0.1354
C1 C 0.7768(7) 0.4815(6) 0.4224(4)
C2 C 0.7187(6) 0.6359(6) 0.4221(3)
C3 C 0.6855(8) 0.7124(6) 0.5007(4)
H4 H 0.6463 0.8144 0.5005
C4 C 0.7113(9) 0.6355(7) 0.5782(4)
H5 H 0.6920 0.6864 0.6298
C5 C 0.7654(11) 0.4846(8) 0.5798(4)
H6 H 0.7812 0.4332 0.6324
C6 C 0.7966(10) 0.4083(8) 0.5019(4)
H7 H 0.8315 0.3058 0.5037
C7 C 0.8170(6) 0.3903(6) 0.3420(3)
C8 C 0.7188(7) 0.3054(7) 0.3339(4)
H8 H 0.6271 0.3098 0.3770
C9 C 0.7569(6) 0.2147(7) 0.2623(4)
H9 H 0.6893 0.1612 0.2567
C10 C 0.8957(5) 0.2040(5) 0.1990(3)
C11 C 0.9938(6) 0.2873(6) 0.2069(4)
H10 H 1.0870 0.2809 0.1648
C12 C 0.9527(7) 0.3801(6) 0.2776(4)
H11 H 1.0185 0.4368 0.2816
C13 C 0.6840(7) 0.7202(6) 0.3411(4)
C14 C 0.9425(5) 0.0978(5) 0.1246(3)
C15 C 0.2025(5) -0.1642(5) 0.2422(3)
C16 C 0.2877(6) -0.0641(5) 0.2448(3)
C17 C 0.2370(7) 0.0365(6) 0.3131(4)
H12 H 0.2970 0.0995 0.3163
C18 C 0.1001(8) 0.0433(7) 0.3755(4)
H13 H 0.0680 0.1103 0.4208
C19 C 0.0099(7) -0.0498(7) 0.3708(4)
H14 H -0.0853 -0.0420 0.4111
C20 C 0.0620(6) -0.1555(6) 0.3053(4)
H15 H 0.0030 -0.2203 0.3037
C21 C 0.2663(5) -0.2936(5) 0.1827(3)
C22 C 0.1759(6) -0.3328(6) 0.1347(4)
H16 H 0.0800 -0.2705 0.1319
C23 C 0.2294(6) -0.4646(6) 0.0913(4)
H17 H 0.1688 -0.4902 0.0593
C24 C 0.3723(6) -0.5594(5) 0.0947(3)
C25 C 0.4655(6) -0.5181(5) 0.1399(3)
H18 H 0.5631 -0.5785 0.1406
C26 C 0.4112(6) -0.3857(6) 0.1839(4)
H19 H 0.4729 -0.3585 0.2145
C27 C 0.4257(5) -0.0533(5) 0.1730(3)
C28 C 0.4248(6) -0.7102(5) 0.0552(3)
Eu1A Eu 0.29901(2) 0.03119(2) -0.031015(15)
Eu1_2 Eu 0.70099(2) -1.03119(2) 0.031015(15)
Eu1A_2 Eu 0.29901(2) -0.96881(2) -0.031015(15)
Eu1A_3 Eu 1.29901(2) 0.03119(2) -0.031015(15)
O5A O 0.5777(4) 0.0514(4) -0.0924(2)
O6_2 O 0.5580(4) 0.2137(4) 0.0564(3)
O7A O 0.6729(4) -0.2489(4) -0.0265(3)
O8A O 0.9204(4) -0.0701(5) -0.0796(3)
loop_
_geom_bond_atom_site_label_1
_geom_bond_atom_site_label_2
_geom_bond_site_symmetry_1
_geom_bond_site_symmetry_2
Eu1 O3 1_555 1_555
O1 H1 1_555 1_555
O2 C13 1_555 1_555
O3 C14 1_555 1_555
O4 Eu1 1_555 1_555
O5 Eu1 1_555 1_555
O6 C28 1_555 1_555
O7 C28 1_555 1_555
O8 C14 1_555 1_555
O9 Eu1 1_555 1_555
H2 O9 1_555 1_555
H3 O9 1_555 1_555
C1 C2 1_555 1_555
C2 C3 1_555 1_555
C3 H4 1_555 1_555
C4 C3 1_555 1_555
H5 C4 1_555 1_555
C5 C4 1_555 1_555
H6 C5 1_555 1_555
C6 C1 1_555 1_555
H7 C6 1_555 1_555
C7 C1 1_555 1_555
C8 C7 1_555 1_555
H8 C8 1_555 1_555
C9 C8 1_555 1_555
H9 C9 1_555 1_555
C10 C9 1_555 1_555
C11 C10 1_555 1_555
H10 C11 1_555 1_555
C12 C7 1_555 1_555
H11 C12 1_555 1_555
C13 O1 1_555 1_555
C14 C10 1_555 1_555
C15 C16 1_555 1_555
C16 C17 1_555 1_555
C17 H12 1_555 1_555
C18 C17 1_555 1_555
H13 C18 1_555 1_555
C19 C18 1_555 1_555
H14 C19 1_555 1_555
C20 C15 1_555 1_555
H15 C20 1_555 1_555
C21 C15 1_555 1_555
C22 C21 1_555 1_555
H16 C22 1_555 1_555
C23 C22 1_555 1_555
H17 C23 1_555 1_555
C24 C23 1_555 1_555
C25 C24 1_555 1_555
H18 C25 1_555 1_555
C26 C21 1_555 1_555
H19 C26 1_555 1_555
C27 O4 1_555 1_555
C28 C24 1_555 1_555
Eu1A O5 1_555 1_555
Eu1_2 O6 1_555 1_555
Eu1A_2 O7 1_555 1_555
Eu1A_3 O8 1_555 1_555
O5A Eu1 1_555 1_555
O6_2 Eu1 1_555 1_555
O7A Eu1 1_555 1_555
O8A Eu1 1_555 1_555
O5 C27 1_555 1_555
C2 C13 1_555 1_555
C5 C6 1_555 1_555
C11 C12 1_555 1_555
C16 C27 1_555 1_555
C19 C20 1_555 1_555
C25 C26 1_555 1_555
Eu1A O5A 1_555 1_555

#END
