
#######################################################################
#
#                 Cambridge Crystallographic Data Centre
#                                CCDC 
#
#######################################################################
#
# If this CIF has been generated from an entry in the Cambridge 
# Structural Database, then it will include bibliographic, chemical, 
# crystal, experimental, refinement or atomic coordinate data resulting 
# from the CCDC's data processing and validation procedures.
#
#######################################################################

data_DAWLEU
_symmetry_cell_setting           monoclinic
_symmetry_space_group_name_H-M   'P 21/c'
_symmetry_Int_Tables_number      14
_space_group_name_Hall           '-P 2ybc'
loop_
_symmetry_equiv_pos_site_id
_symmetry_equiv_pos_as_xyz
1 x,y,z
2 -x,1/2+y,1/2-z
3 -x,-y,-z
4 x,1/2-y,1/2+z
_cell_length_a                   11.8455(3)
_cell_length_b                   12.1329(3)
_cell_length_c                   16.4482(4)
_cell_angle_alpha                90
_cell_angle_beta                 91.892(2)
_cell_angle_gamma                90
_cell_volume                     2362.65
loop_
_atom_site_label
_atom_site_type_symbol
_atom_site_fract_x
_atom_site_fract_y
_atom_site_fract_z
Nd1 Nd 0.87912(2) 0.37893(2) 0.496098(16)
O1 O 0.6955(4) 0.4154(5) 0.4300(4)
O2 O 0.9325(4) 0.4375(4) 0.3646(2)
O3 O 1.0348(4) 0.5924(4) 0.3709(3)
O4 O 0.8279(5) 0.2173(4) 0.4153(3)
O5 O 0.9543(3) 0.7555(3) 0.0042(3)
O6 O 0.8846(3) 0.9231(4) 0.0037(2)
O7 O 0.7982(6) 0.2321(6) 0.5883(4)
O8 O 0.7282(6) 0.3896(6) 0.6067(5)
O9 O 0.6794(7) 0.2532(7) 0.6814(5)
N1 N 0.8263(7) 0.0455(5) 0.3690(4)
N2 N 0.5448(5) 0.4080(7) 0.3448(4)
N3 N 0.7353(6) 0.2866(7) 0.6189(5)
C1 C 0.9640(6) 0.5307(6) 0.3373(3)
C2 C 0.9050(5) 0.5706(5) 0.2600(3)
C3 C 0.9087(6) 0.6822(5) 0.2393(3)
H1 H 0.9510 0.7311 0.2714
C4 C 0.8499(6) 0.7197(5) 0.1715(4)
H2 H 0.8505 0.7946 0.1593
C5 C 0.7894(6) 0.6476(5) 0.1207(4)
C6 C 0.7908(7) 0.5362(5) 0.1391(4)
H3 H 0.7536 0.4862 0.1048
C7 C 0.8483(6) 0.4992(5) 0.2092(4)
H4 H 0.8479 0.4245 0.2217
C8 C 0.7210(6) 0.6886(5) 0.0485(4)
C9 C 0.6112(7) 0.6462(7) 0.0334(6)
H5 H 0.5837 0.5928 0.0681
C10 C 0.5432(8) 0.6817(8) -0.0316(6)
H6 H 0.4724 0.6504 -0.0414
C11 C 0.5803(7) 0.7616(7) -0.0801(5)
H7 H 0.5344 0.7859 -0.1234
C12 C 0.6861(6) 0.8086(6) -0.0668(4)
H8 H 0.7098 0.8652 -0.1004
C13 C 0.7569(5) 0.7711(4) -0.0032(3)
C14 C 0.8733(5) 0.8206(5) 0.0037(3)
C15 C 0.6412(11) 0.3900(9) 0.3783(8)
H9 H 0.6392 0.3116 0.3862
C16 C 0.4654(13) 0.4470(15) 0.3986(10)
H10 H 0.5036 0.4824 0.4439
H11 H 0.4215 0.3864 0.4178
H12 H 0.4165 0.4990 0.3711
C17 C 0.467(2) 0.358(2) 0.2977(18)
H13 H 0.5023 0.3261 0.2516
H14 H 0.4118 0.4113 0.2792
H15 H 0.4308 0.3016 0.3281
C18 C 0.8610(11) 0.1285(9) 0.4038(9)
H16 H 0.8821 0.1028 0.4574
C19 C 0.727(3) 0.054(3) 0.337(2)
H17 H 0.6967 0.1254 0.3480
H18 H 0.6789 -0.0016 0.3594
H19 H 0.7298 0.0434 0.2791
C20 C 0.8578(13) -0.0540(13) 0.3519(10)
H20 H 0.7972 -0.0917 0.3234
H21 H 0.8771 -0.0926 0.4013
H22 H 0.9224 -0.0512 0.3182
Nd1B Nd 1.12088(2) 0.62107(2) 0.503902(16)
Nd1A Nd 1.12088(2) 0.87893(2) 0.003902(16)
Nd1C Nd 0.87912(2) 1.12107(2) -0.003902(16)
O3B O 0.9652(4) 0.4076(4) 0.6291(3)
O5A O 1.0457(3) 0.2555(3) 0.4958(3)
O6A O 1.1154(3) 0.4231(4) 0.4963(2)
O6C O 0.8846(3) 0.5769(4) 0.5037(2)
loop_
_geom_bond_atom_site_label_1
_geom_bond_atom_site_label_2
_geom_bond_site_symmetry_1
_geom_bond_site_symmetry_2
Nd1 O1 1_555 1_555
O1 C15 1_555 1_555
O2 Nd1 1_555 1_555
O3 C1 1_555 1_555
O4 Nd1 1_555 1_555
O5 C14 1_555 1_555
O6 C14 1_555 1_555
O7 Nd1 1_555 1_555
O8 Nd1 1_555 1_555
O9 N3 1_555 1_555
N1 C18 1_555 1_555
N2 C15 1_555 1_555
N3 O7 1_555 1_555
C1 O2 1_555 1_555
C2 C1 1_555 1_555
C3 C2 1_555 1_555
H1 C3 1_555 1_555
C4 C3 1_555 1_555
H2 C4 1_555 1_555
C5 C4 1_555 1_555
C6 C5 1_555 1_555
H3 C6 1_555 1_555
C7 C2 1_555 1_555
H4 C7 1_555 1_555
C8 C5 1_555 1_555
C9 C8 1_555 1_555
H5 C9 1_555 1_555
C10 C9 1_555 1_555
H6 C10 1_555 1_555
C11 C10 1_555 1_555
H7 C11 1_555 1_555
C12 C11 1_555 1_555
H8 C12 1_555 1_555
C13 C8 1_555 1_555
C14 C13 1_555 1_555
C15 H9 1_555 1_555
C16 N2 1_555 1_555
H10 C16 1_555 1_555
H11 C16 1_555 1_555
H12 C16 1_555 1_555
C17 N2 1_555 1_555
H13 C17 1_555 1_555
H14 C17 1_555 1_555
H15 C17 1_555 1_555
C18 O4 1_555 1_555
H16 C18 1_555 1_555
C19 N1 1_555 1_555
H17 C19 1_555 1_555
H18 C19 1_555 1_555
H19 C19 1_555 1_555
C20 N1 1_555 1_555
H20 C20 1_555 1_555
H21 C20 1_555 1_555
H22 C20 1_555 1_555
Nd1B O3 1_555 1_555
Nd1A O5 1_555 1_555
Nd1C O6 1_555 1_555
O3B Nd1 1_555 1_555
O5A Nd1 1_555 1_555
O6A Nd1 1_555 1_555
O6C Nd1 1_555 1_555
O6 Nd1A 1_555 1_555
O8 N3 1_555 1_555
C6 C7 1_555 1_555
C12 C13 1_555 1_555
Nd1B O6A 1_555 1_555
Nd1B O6C 1_555 1_555

#END
