
#######################################################################
#
#                 Cambridge Crystallographic Data Centre
#                                CCDC 
#
#######################################################################
#
# If this CIF has been generated from an entry in the Cambridge 
# Structural Database, then it will include bibliographic, chemical, 
# crystal, experimental, refinement or atomic coordinate data resulting 
# from the CCDC's data processing and validation procedures.
#
#######################################################################

data_DAWLOE
_symmetry_cell_setting           monoclinic
_symmetry_space_group_name_H-M   'P 21/c'
_symmetry_Int_Tables_number      14
_space_group_name_Hall           '-P 2ybc'
loop_
_symmetry_equiv_pos_site_id
_symmetry_equiv_pos_as_xyz
1 x,y,z
2 -x,1/2+y,1/2-z
3 -x,-y,-z
4 x,1/2-y,1/2+z
_cell_length_a                   11.803(2)
_cell_length_b                   12.148(2)
_cell_length_c                   16.464(3)
_cell_angle_alpha                90
_cell_angle_beta                 92.07(3)
_cell_angle_gamma                90
_cell_volume                     2359.11
loop_
_atom_site_label
_atom_site_type_symbol
_atom_site_fract_x
_atom_site_fract_y
_atom_site_fract_z
Eu1 Eu 0.87944(2) 0.379045(19) 0.494730(15)
O1 O 0.9330(4) 0.4381(3) 0.3660(2)
O2 O 1.0340(4) 0.5949(4) 0.3742(2)
O3 O 0.8799(3) 0.9273(3) 0.0049(2)
O4 O 0.9552(3) 0.7619(3) 0.0062(2)
O5 O 0.6969(4) 0.4140(5) 0.4299(3)
O6 O 0.8310(4) 0.2195(4) 0.4137(3)
O7 O 0.7300(5) 0.3848(5) 0.6015(4)
O8 O 0.8063(6) 0.2290(5) 0.5841(4)
O9 O 0.6841(6) 0.2485(8) 0.6775(4)
N1 N 0.7399(5) 0.2832(7) 0.6204(5)
N2 N 0.5466(5) 0.4068(6) 0.3437(4)
N3 N 0.8294(7) 0.0453(5) 0.3693(4)
C1 C 0.9632(5) 0.5316(5) 0.3397(3)
C2 C 0.9061(5) 0.5718(4) 0.2625(3)
C3 C 0.9086(5) 0.6826(5) 0.2417(3)
H1 H 0.9503 0.7317 0.2741
C4 C 0.8498(5) 0.7202(5) 0.1734(3)
H2 H 0.8505 0.7951 0.1616
C5 C 0.7897(5) 0.6496(5) 0.1218(3)
C6 C 0.7919(6) 0.5369(5) 0.1405(4)
H3 H 0.7553 0.4870 0.1057
C7 C 0.8484(6) 0.4996(5) 0.2106(4)
H4 H 0.8476 0.4249 0.2229
C8 C 0.7201(5) 0.6888(5) 0.0503(3)
C9 C 0.7545(4) 0.7744(4) -0.0012(3)
C10 C 0.6825(5) 0.8102(5) -0.0645(4)
H5 H 0.7052 0.8673 -0.0978
C11 C 0.5771(6) 0.7615(6) -0.0787(5)
H6 H 0.5302 0.7848 -0.1220
C12 C 0.5427(7) 0.6789(7) -0.0286(5)
H7 H 0.4720 0.6463 -0.0375
C13 C 0.6121(6) 0.6442(6) 0.0347(5)
H8 H 0.5866 0.5890 0.0687
C14 C 0.8706(5) 0.8242(4) 0.0049(3)
C15 C 0.6448(8) 0.3887(8) 0.3776(8)
H9 H 0.6521 0.3100 0.3769
C16 C 0.4666(11) 0.4487(12) 0.3938(9)
H10 H 0.5022 0.4687 0.4450
H11 H 0.4095 0.3941 0.4023
H12 H 0.4323 0.5126 0.3690
C17 C 0.4891(19) 0.3656(15) 0.2796(15)
H13 H 0.5411 0.3338 0.2427
H14 H 0.4470 0.4234 0.2526
H15 H 0.4378 0.3100 0.2973
C18 C 0.8678(8) 0.1279(6) 0.4070(7)
H16 H 0.9466 0.1342 0.3951
C19 C 0.8704(13) -0.0586(8) 0.3586(12)
H17 H 0.8163 -0.1009 0.3269
H18 H 0.8832 -0.0930 0.4106
H19 H 0.9405 -0.0549 0.3309
C20 C 0.7373(19) 0.0591(19) 0.3251(15)
H20 H 0.7086 0.1321 0.3333
H21 H 0.6816 0.0061 0.3405
H22 H 0.7534 0.0493 0.2688
Eu1B Eu 1.12056(2) 0.620955(19) 0.505270(15)
Eu1A Eu 1.12056(2) 0.879045(19) 0.005270(15)
Eu1C Eu 0.87944(2) 1.120955(19) -0.005270(15)
O2B O 0.9660(4) 0.4051(4) 0.6258(2)
O3A O 1.1201(3) 0.4273(3) 0.4951(2)
O3C O 0.8799(3) 0.5727(3) 0.5049(2)
O4A O 1.0448(3) 0.2619(3) 0.4938(2)
loop_
_geom_bond_atom_site_label_1
_geom_bond_atom_site_label_2
_geom_bond_site_symmetry_1
_geom_bond_site_symmetry_2
Eu1 O1 1_555 1_555
O1 C1 1_555 1_555
O2 C1 1_555 1_555
O3 C14 1_555 1_555
O4 C14 1_555 1_555
O5 Eu1 1_555 1_555
O6 Eu1 1_555 1_555
O7 Eu1 1_555 1_555
O8 Eu1 1_555 1_555
O9 N1 1_555 1_555
N1 O7 1_555 1_555
N2 C15 1_555 1_555
N3 C18 1_555 1_555
C1 C2 1_555 1_555
C2 C3 1_555 1_555
C3 H1 1_555 1_555
C4 C3 1_555 1_555
H2 C4 1_555 1_555
C5 C4 1_555 1_555
C6 C5 1_555 1_555
H3 C6 1_555 1_555
C7 C2 1_555 1_555
H4 C7 1_555 1_555
C8 C5 1_555 1_555
C9 C8 1_555 1_555
C10 C9 1_555 1_555
H5 C10 1_555 1_555
C11 C10 1_555 1_555
H6 C11 1_555 1_555
C12 C11 1_555 1_555
H7 C12 1_555 1_555
C13 C8 1_555 1_555
H8 C13 1_555 1_555
C14 C9 1_555 1_555
C15 O5 1_555 1_555
H9 C15 1_555 1_555
C16 N2 1_555 1_555
H10 C16 1_555 1_555
H11 C16 1_555 1_555
H12 C16 1_555 1_555
C17 N2 1_555 1_555
H13 C17 1_555 1_555
H14 C17 1_555 1_555
H15 C17 1_555 1_555
C18 O6 1_555 1_555
H16 C18 1_555 1_555
C19 N3 1_555 1_555
H17 C19 1_555 1_555
H18 C19 1_555 1_555
H19 C19 1_555 1_555
C20 N3 1_555 1_555
H20 C20 1_555 1_555
H21 C20 1_555 1_555
H22 C20 1_555 1_555
Eu1B O2 1_555 1_555
Eu1A O3 1_555 1_555
Eu1C O3 1_555 1_555
O2B Eu1 1_555 1_555
O3A Eu1 1_555 1_555
O3C Eu1 1_555 1_555
O4A Eu1 1_555 1_555
O4 Eu1A 1_555 1_555
O8 N1 1_555 1_555
C6 C7 1_555 1_555
C12 C13 1_555 1_555
Eu1B O3A 1_555 1_555
Eu1B O3C 1_555 1_555

#END
