
#######################################################################
#
#                 Cambridge Crystallographic Data Centre
#                                CCDC 
#
#######################################################################
#
# If this CIF has been generated from an entry in the Cambridge 
# Structural Database, then it will include bibliographic, chemical, 
# crystal, experimental, refinement or atomic coordinate data resulting 
# from the CCDC's data processing and validation procedures.
#
#######################################################################

data_DAWLAQ
_symmetry_cell_setting           monoclinic
_symmetry_space_group_name_H-M   'C 2/c'
_symmetry_Int_Tables_number      15
_space_group_name_Hall           '-C 2yn'
loop_
_symmetry_equiv_pos_site_id
_symmetry_equiv_pos_as_xyz
1 x,y,z
2 -x,y,1/2-z
3 1/2+x,1/2+y,z
4 1/2-x,1/2+y,1/2-z
5 -x,-y,-z
6 x,-y,1/2+z
7 1/2-x,1/2-y,-z
8 1/2+x,1/2-y,1/2+z
_cell_length_a                   19.117(4)
_cell_length_b                   15.511(3)
_cell_length_c                   18.916(4)
_cell_angle_alpha                90
_cell_angle_beta                 116.72(3)
_cell_angle_gamma                90
_cell_volume                     5010.08
loop_
_atom_site_label
_atom_site_type_symbol
_atom_site_fract_x
_atom_site_fract_y
_atom_site_fract_z
Pr1 Pr 0.217618(10) 0.619569(11) 0.012782(11)
O1 O 0.09870(16) 0.6841(2) -0.10121(17)
O2 O 0.07773(18) 0.6173(2) -0.01022(19)
O3 O 0.29178(19) 0.47946(19) 0.0482(2)
O4 O 0.16694(19) 0.46907(19) -0.0335(2)
O5 O -0.2508(2) 0.5987(2) -0.3977(2)
O6 O -0.27682(16) 0.72893(16) -0.44520(15)
O7 O 0.35853(17) 0.6477(2) 0.10334(19)
H1 H 0.3671 0.6386 0.1509
H2 H 0.3869 0.6142 0.0916
O8 O 0.2199(2) 0.5950(2) 0.14136(19)
N1 N 0.1796(4) 0.5726(4) 0.2350(3)
C1 C -0.2824(2) 0.6874(3) -0.2670(2)
C2 C -0.3201(2) 0.6895(3) -0.3493(2)
C3 C -0.3998(2) 0.7051(3) -0.3892(3)
H3 H -0.4243 0.7086 -0.4442
C4 C -0.4437(3) 0.7157(5) -0.3477(4)
H4 H -0.4975 0.7243 -0.3747
C5 C -0.4071(3) 0.7132(6) -0.2670(4)
H5 H -0.4362 0.7206 -0.2391
C6 C -0.3274(3) 0.6999(5) -0.2264(3)
H6 H -0.3032 0.6992 -0.1714
C7 C -0.1963(2) 0.6773(3) -0.2191(2)
C8 C -0.1446(2) 0.7224(3) -0.2391(2)
H7 H -0.1641 0.7573 -0.2838
C9 C -0.0646(2) 0.7154(3) -0.1928(2)
H8 H -0.0306 0.7455 -0.2069
C10 C -0.0344(2) 0.6636(3) -0.1253(2)
C11 C -0.0859(3) 0.6199(3) -0.1044(3)
H9 H -0.0667 0.5861 -0.0590
C12 C -0.1657(3) 0.6270(3) -0.1512(3)
H10 H -0.1996 0.5973 -0.1369
C13 C 0.0524(2) 0.6544(3) -0.0758(2)
C14 C -0.2786(2) 0.6709(2) -0.3990(2)
C15 C 0.2326(2) 0.4349(3) 0.0049(2)
C16 C 0.2423(2) 0.3387(2) 0.0016(2)
C17 C 0.3150(2) 0.3021(3) 0.0314(3)
H11 H 0.3592 0.3371 0.0529
C18 C 0.1764(3) 0.2860(3) -0.0301(3)
H12 H 0.1266 0.3102 -0.0503
C19 C 0.1674(4) 0.5841(4) 0.1620(3)
H13 H 0.1158 0.5842 0.1228
C20 C 0.1150(6) 0.5512(6) 0.2545(5)
H14 H 0.0662 0.5524 0.2072
H15 H 0.1136 0.5926 0.2916
H16 H 0.1233 0.4947 0.2775
C21 C 0.2592(5) 0.5740(5) 0.2982(4)
H17 H 0.2947 0.5879 0.2768
H18 H 0.2721 0.5184 0.3231
H19 H 0.2633 0.6167 0.3367
O3F O 0.20822(19) 0.02054(19) -0.0482(2)
O4F O 0.33306(19) 0.03093(19) 0.0335(2)
C15F C 0.2674(2) 0.0651(3) -0.0049(2)
C16F C 0.2577(2) 0.1613(2) -0.0016(2)
C17F C 0.1850(2) 0.1979(3) -0.0314(3)
H11F H 0.1408 0.1629 -0.0529
C18F C 0.3236(3) 0.2140(3) 0.0301(3)
H12F H 0.3734 0.1898 0.0503
Pr1A Pr -0.217618(10) 0.619569(11) -0.512782(11)
O1A O -0.09870(16) 0.6841(2) -0.39879(17)
O2A O -0.07773(18) 0.6173(2) -0.48978(19)
O5A O 0.2508(2) 0.5987(2) -0.1023(2)
O6A O 0.27682(16) 0.72893(16) -0.05480(15)
O7A O -0.35853(17) 0.6477(2) -0.60334(19)
H1A H -0.3671 0.6386 -0.6509
H2A H -0.3869 0.6142 -0.5916
O8A O -0.2199(2) 0.5950(2) -0.64136(19)
N1A N -0.1796(4) 0.5726(4) -0.7350(3)
C1A C 0.2824(2) 0.6874(3) -0.2330(2)
C2A C 0.3201(2) 0.6895(3) -0.1507(2)
C3A C 0.3998(2) 0.7051(3) -0.1108(3)
H3A H 0.4243 0.7086 -0.0558
C4A C 0.4437(3) 0.7157(5) -0.1523(4)
H4A H 0.4975 0.7243 -0.1253
C5A C 0.4071(3) 0.7132(6) -0.2330(4)
H5A H 0.4362 0.7206 -0.2609
C6A C 0.3274(3) 0.6999(5) -0.2736(3)
H6A H 0.3032 0.6992 -0.3286
C7A C 0.1963(2) 0.6773(3) -0.2809(2)
C8A C 0.1446(2) 0.7224(3) -0.2609(2)
H7A H 0.1641 0.7573 -0.2162
C9A C 0.0646(2) 0.7154(3) -0.3072(2)
H8A H 0.0306 0.7455 -0.2931
C10A C 0.0344(2) 0.6636(3) -0.3747(2)
C11A C 0.0859(3) 0.6199(3) -0.3956(3)
H9A H 0.0667 0.5861 -0.4410
C12A C 0.1657(3) 0.6270(3) -0.3488(3)
H10A H 0.1996 0.5973 -0.3631
C13A C -0.0524(2) 0.6544(3) -0.4242(2)
C14A C 0.2786(2) 0.6709(2) -0.1010(2)
C19A C -0.1674(4) 0.5841(4) -0.6620(3)
H13A H -0.1158 0.5842 -0.6228
C20A C -0.1150(6) 0.5512(6) -0.7545(5)
H14A H -0.0662 0.5524 -0.7072
H15A H -0.1136 0.5926 -0.7916
H16A H -0.1233 0.4947 -0.7775
C21A C -0.2592(5) 0.5740(5) -0.7982(4)
H17A H -0.2947 0.5879 -0.7768
H18A H -0.2721 0.5184 -0.8231
H19A H -0.2633 0.6167 -0.8367
Pr1F Pr 0.282382(10) -0.119569(11) -0.012782(11)
Pr1F_2 Pr 0.282382(10) 0.880431(11) -0.012782(11)
Pr1G Pr -0.282382(10) 0.880431(11) -0.487218(11)
O3A O -0.29178(19) 0.47946(19) -0.5482(2)
O4A O -0.16694(19) 0.46907(19) -0.4665(2)
O6F O -0.22318(16) 0.77107(16) -0.55480(15)
O6G O 0.22318(16) 0.77107(16) 0.05480(15)
O9 O 0.4220(11) 0.5220(13) 0.2182(10)
H20 H 0.4078 0.5064 0.2529
H21 H 0.4409 0.4791 0.2048
O10 O -0.5000 0.5000 -0.5000
O11 O -0.5600 0.5002 -0.4886
H22 H -0.5891 0.5015 -0.4654
H23 H -0.5697 0.5438 -0.5188
H24? H -0.5267 0.4845 -0.4764
H25? H -0.5186 0.5467 -0.5250
loop_
_geom_bond_atom_site_label_1
_geom_bond_atom_site_label_2
_geom_bond_site_symmetry_1
_geom_bond_site_symmetry_2
Pr1 O1 1_555 1_555
O1 C13 1_555 1_555
O2 Pr1 1_555 1_555
O3 Pr1 1_555 1_555
O4 Pr1 1_555 1_555
O5 C14 1_555 1_555
O6 C14 1_555 1_555
O7 Pr1 1_555 1_555
H1 O7 1_555 1_555
H2 O7 1_555 1_555
O8 Pr1 1_555 1_555
N1 C19 1_555 1_555
C1 C2 1_555 1_555
C2 C3 1_555 1_555
C3 H3 1_555 1_555
C4 C3 1_555 1_555
H4 C4 1_555 1_555
C5 C4 1_555 1_555
H5 C5 1_555 1_555
C6 C1 1_555 1_555
H6 C6 1_555 1_555
C7 C1 1_555 1_555
C8 C7 1_555 1_555
H7 C8 1_555 1_555
C9 C8 1_555 1_555
H8 C9 1_555 1_555
C10 C9 1_555 1_555
C11 C10 1_555 1_555
H9 C11 1_555 1_555
C12 C7 1_555 1_555
H10 C12 1_555 1_555
C13 O2 1_555 1_555
C14 C2 1_555 1_555
C15 O3 1_555 1_555
C16 C15 1_555 1_555
C17 C16 1_555 1_555
H11 C17 1_555 1_555
C18 C16 1_555 1_555
H12 C18 1_555 1_555
C19 O8 1_555 1_555
H13 C19 1_555 1_555
C20 N1 1_555 1_555
H14 C20 1_555 1_555
H15 C20 1_555 1_555
H16 C20 1_555 1_555
C21 N1 1_555 1_555
H17 C21 1_555 1_555
H18 C21 1_555 1_555
H19 C21 1_555 1_555
O9 H20 1_555 1_555
H21 O9 1_555 1_555
O11 H22 1_555 1_555
H23 O11 1_555 1_555
O3F C15F 1_555 1_555
O4F C15F 1_555 1_555
C15F C16F 1_555 1_555
C16F C17F 1_555 1_555
C17F C18 1_555 1_555
H11F C17F 1_555 1_555
C18F C17 1_555 1_555
H12F C18F 1_555 1_555
Pr1A O5 1_555 1_555
O1A Pr1A 1_555 1_555
O2A Pr1A 1_555 1_555
O5A Pr1 1_555 1_555
O6A Pr1 1_555 1_555
O7A Pr1A 1_555 1_555
H1A O7A 1_555 1_555
H2A O7A 1_555 1_555
O8A Pr1A 1_555 1_555
N1A C19A 1_555 1_555
C1A C2A 1_555 1_555
C2A C3A 1_555 1_555
C3A H3A 1_555 1_555
C4A C3A 1_555 1_555
H4A C4A 1_555 1_555
C5A C4A 1_555 1_555
H5A C5A 1_555 1_555
C6A C1A 1_555 1_555
H6A C6A 1_555 1_555
C7A C1A 1_555 1_555
C8A C7A 1_555 1_555
H7A C8A 1_555 1_555
C9A C8A 1_555 1_555
H8A C9A 1_555 1_555
C10A C9A 1_555 1_555
C11A C10A 1_555 1_555
H9A C11A 1_555 1_555
C12A C7A 1_555 1_555
H10A C12A 1_555 1_555
C13A O1A 1_555 1_555
C14A O5A 1_555 1_555
C19A O8A 1_555 1_555
H13A C19A 1_555 1_555
C20A N1A 1_555 1_555
H14A C20A 1_555 1_555
H15A C20A 1_555 1_555
H16A C20A 1_555 1_555
C21A N1A 1_555 1_555
H17A C21A 1_555 1_555
H18A C21A 1_555 1_555
H19A C21A 1_555 1_555
Pr1F O3F 1_555 1_555
Pr1F_2 O6A 1_555 1_555
Pr1G O6 1_555 1_555
O3A Pr1A 1_555 1_555
O4A Pr1A 1_555 1_555
O6F Pr1A 1_555 1_555
O6G Pr1 1_555 1_555
O4 C15 1_555 1_555
O6 Pr1A 1_555 1_555
C5 C6 1_555 1_555
C10 C13 1_555 1_555
C11 C12 1_555 1_555
O4F Pr1F 1_555 1_555
C16F C18F 1_555 1_555
O2A C13A 1_555 1_555
O6A C14A 1_555 1_555
C2A C14A 1_555 1_555
C5A C6A 1_555 1_555
C10A C13A 1_555 1_555
C11A C12A 1_555 1_555
Pr1F_2 O6G 1_555 1_555
Pr1G O6F 1_555 1_555

#END
