
#######################################################################
#
#                 Cambridge Crystallographic Data Centre
#                                CCDC 
#
#######################################################################
#
# If this CIF has been generated from an entry in the Cambridge 
# Structural Database, then it will include bibliographic, chemical, 
# crystal, experimental, refinement or atomic coordinate data resulting 
# from the CCDC's data processing and validation procedures.
#
#######################################################################

data_DAWMEV
_symmetry_cell_setting           monoclinic
_symmetry_space_group_name_H-M   'P 21/c'
_symmetry_Int_Tables_number      14
_space_group_name_Hall           '-P 2ybc'
loop_
_symmetry_equiv_pos_site_id
_symmetry_equiv_pos_as_xyz
1 x,y,z
2 -x,1/2+y,1/2-z
3 -x,-y,-z
4 x,1/2-y,1/2+z
_cell_length_a                   11.741(2)
_cell_length_b                   12.136(2)
_cell_length_c                   16.414(3)
_cell_angle_alpha                90
_cell_angle_beta                 91.92(3)
_cell_angle_gamma                90
_cell_volume                     2337.5
loop_
_atom_site_label
_atom_site_type_symbol
_atom_site_fract_x
_atom_site_fract_y
_atom_site_fract_z
Gd1 Gd -0.120910(15) -0.379050(14) -0.005520(11)
O1 O -0.0350(3) -0.4055(3) 0.12511(17)
O2 O 0.0651(3) -0.5618(2) 0.13378(16)
O3 O -0.2703(4) -0.3834(4) 0.1008(3)
O4 O -0.1914(4) -0.2279(3) 0.0831(3)
O5 O -0.3158(4) -0.2460(5) 0.1761(3)
O6 O -0.1682(3) -0.2210(2) -0.0869(2)
O7 O -0.3019(3) -0.4137(3) -0.0711(2)
O8 O 0.0470(2) -0.2371(2) 0.49297(18)
O9 O 0.1221(3) -0.0709(2) 0.49532(17)
N1 N -0.2605(4) -0.2831(4) 0.1195(3)
N2 N -0.1693(4) -0.0459(3) -0.1310(3)
N3 N -0.4535(3) -0.4077(4) -0.1557(3)
C1 C 0.0359(4) -0.4683(3) 0.1596(2)
C2 C 0.0922(4) -0.4281(3) 0.2375(2)
C3 C 0.1510(4) -0.5004(3) 0.2887(3)
H1 H 0.1522 -0.5751 0.2761
C4 C 0.2078(4) -0.4625(4) 0.3581(3)
H2 H 0.2453 -0.5125 0.3926
C5 C 0.2100(4) -0.3509(3) 0.3775(2)
C6 C 0.1500(4) -0.2787(3) 0.3261(2)
H3 H 0.1498 -0.2037 0.3379
C7 C 0.0905(4) -0.3173(3) 0.2576(2)
H4 H 0.0490 -0.2683 0.2248
C8 C 0.2797(4) -0.3111(3) 0.4488(2)
C9 C 0.3868(4) -0.3573(4) 0.4641(3)
H5 H 0.4117 -0.4134 0.4304
C10 C 0.4571(4) -0.3218(5) 0.5280(4)
H6 H 0.5281 -0.3544 0.5371
C11 C 0.4232(4) -0.2397(4) 0.5774(3)
H7 H 0.4706 -0.2166 0.6206
C12 C 0.3180(4) -0.1900(4) 0.5639(3)
H8 H 0.2959 -0.1323 0.5971
C13 C 0.2455(3) -0.2262(3) 0.5006(2)
C14 C -0.1314(6) -0.1293(4) -0.0922(4)
H9 H -0.0634 -0.1172 -0.0630
C15 C -0.2649(14) -0.0590(14) -0.1750(10)
H10 H -0.2897 0.0110 -0.1963
H11 H -0.3226 -0.0889 -0.1413
H12 H -0.2518 -0.1086 -0.2193
C16 C -0.1240(9) 0.0605(5) -0.1374(7)
H13 H -0.0514 0.0636 -0.1089
H14 H -0.1750 0.1126 -0.1139
H15 H -0.1147 0.0781 -0.1938
C17 C -0.3566(5) -0.3872(6) -0.1213(5)
H16 H -0.3298 -0.3150 -0.1424
C18 C -0.5364(7) -0.4455(10) -0.1053(7)
H17 H -0.5027 -0.4938 -0.0650
H18 H -0.5933 -0.4848 -0.1371
H19 H -0.5711 -0.3841 -0.0788
C19 C -0.5087(15) -0.3664(13) -0.2196(10)
H20 H -0.5778 -0.4072 -0.2297
H21 H -0.4619 -0.3714 -0.2663
H22 H -0.5268 -0.2906 -0.2095
C20 C 0.1300(3) -0.1741(3) 0.4948(2)
Gd1B Gd 0.120910(15) -0.620950(14) 0.005520(11)
Gd1C Gd -0.120910(15) -0.120950(14) 0.494480(11)
Gd1A Gd 0.120910(15) 0.120950(14) 0.505520(11)
O2B O -0.0651(3) -0.4382(2) -0.13378(16)
O8C O 0.0470(2) -0.2629(2) -0.00703(18)
O9C O 0.1221(3) -0.4291(2) -0.00468(17)
O9A O -0.1221(3) -0.5709(2) 0.00468(17)
loop_
_geom_bond_atom_site_label_1
_geom_bond_atom_site_label_2
_geom_bond_site_symmetry_1
_geom_bond_site_symmetry_2
Gd1 O1 1_555 1_555
O1 C1 1_555 1_555
O2 C1 1_555 1_555
O3 Gd1 1_555 1_555
O4 Gd1 1_555 1_555
O5 N1 1_555 1_555
O6 Gd1 1_555 1_555
O7 Gd1 1_555 1_555
O8 C20 1_555 1_555
O9 C20 1_555 1_555
N1 O3 1_555 1_555
N2 C14 1_555 1_555
N3 C17 1_555 1_555
C1 C2 1_555 1_555
C2 C3 1_555 1_555
C3 H1 1_555 1_555
C4 C3 1_555 1_555
H2 C4 1_555 1_555
C5 C4 1_555 1_555
C6 C5 1_555 1_555
H3 C6 1_555 1_555
C7 C2 1_555 1_555
H4 C7 1_555 1_555
C8 C5 1_555 1_555
C9 C8 1_555 1_555
H5 C9 1_555 1_555
C10 C9 1_555 1_555
H6 C10 1_555 1_555
C11 C10 1_555 1_555
H7 C11 1_555 1_555
C12 C11 1_555 1_555
H8 C12 1_555 1_555
C13 C8 1_555 1_555
C14 O6 1_555 1_555
H9 C14 1_555 1_555
C15 N2 1_555 1_555
H10 C15 1_555 1_555
H11 C15 1_555 1_555
H12 C15 1_555 1_555
C16 N2 1_555 1_555
H13 C16 1_555 1_555
H14 C16 1_555 1_555
H15 C16 1_555 1_555
C17 O7 1_555 1_555
H16 C17 1_555 1_555
C18 N3 1_555 1_555
H17 C18 1_555 1_555
H18 C18 1_555 1_555
H19 C18 1_555 1_555
C19 N3 1_555 1_555
H20 C19 1_555 1_555
H21 C19 1_555 1_555
H22 C19 1_555 1_555
C20 C13 1_555 1_555
Gd1B O2 1_555 1_555
Gd1C O8 1_555 1_555
Gd1A O9 1_555 1_555
O2B Gd1 1_555 1_555
O8C Gd1 1_555 1_555
O9C Gd1 1_555 1_555
O9A Gd1 1_555 1_555
O4 N1 1_555 1_555
O9 Gd1C 1_555 1_555
C6 C7 1_555 1_555
C12 C13 1_555 1_555
Gd1B O9C 1_555 1_555
Gd1B O9A 1_555 1_555

#END
