
#######################################################################
#
#                 Cambridge Crystallographic Data Centre
#                                CCDC 
#
#######################################################################
#
# If this CIF has been generated from an entry in the Cambridge 
# Structural Database, then it will include bibliographic, chemical, 
# crystal, experimental, refinement or atomic coordinate data resulting 
# from the CCDC's data processing and validation procedures.
#
#######################################################################

data_DAWMAR
_symmetry_cell_setting           monoclinic
_symmetry_space_group_name_H-M   'P 21/c'
_symmetry_Int_Tables_number      14
_space_group_name_Hall           '-P 2ybc'
loop_
_symmetry_equiv_pos_site_id
_symmetry_equiv_pos_as_xyz
1 x,y,z
2 -x,1/2+y,1/2-z
3 -x,-y,-z
4 x,1/2-y,1/2+z
_cell_length_a                   19.239(4)
_cell_length_b                   16.373(3)
_cell_length_c                   9.3961(19)
_cell_angle_alpha                90
_cell_angle_beta                 102.68(3)
_cell_angle_gamma                90
_cell_volume                     2887.59
loop_
_atom_site_label
_atom_site_type_symbol
_atom_site_fract_x
_atom_site_fract_y
_atom_site_fract_z
Eu1 Eu -0.365548(17) 0.247448(18) -0.54536(3)
Eu2 Eu -0.126988(17) 0.262616(17) -0.43140(3)
O1 O -0.4558(3) 0.1987(4) -0.4404(6)
O2 O -0.4669(3) 0.2142(4) -0.2153(6)
O3 O -0.6024(3) 0.6106(3) -0.5284(5)
O4 O -0.6654(3) 0.6161(3) -0.3595(5)
O5 O -0.0328(3) 0.3165(3) -0.5227(6)
O6 O -0.0322(3) 0.2687(3) -0.7427(6)
O7 O 0.0819(3) -0.1200(3) -0.5079(5)
O8 O 0.1621(3) -0.1248(3) -0.6421(5)
O9 O -0.2467(3) 0.2853(3) -0.4048(5)
O10 O -0.1823(3) 0.2811(3) -0.1814(6)
O11 O -0.3044(3) 0.2808(3) -0.2281(7)
O12 O -0.0798(3) 0.3891(3) -0.2908(5)
H1 H -0.0345 0.3885 -0.2725
H2 H -0.0939 0.3903 -0.2112
O13 O -0.1816(3) 0.3815(3) -0.5760(5)
H3 H -0.1488 0.4135 -0.5895
H4 H -0.2057 0.3653 -0.6580
O14 O -0.4230(3) 0.1236(3) -0.6885(5)
H5 H -0.4680 0.1279 -0.7032
H6 H -0.4106 0.1215 -0.7699
O15 O -0.3109(3) 0.1242(3) -0.4180(5)
H7 H -0.3185 0.1230 -0.3356
N1 N -0.2453(4) 0.2851(4) -0.2635(7)
C1 C -0.4909(4) 0.1971(4) -0.3457(7)
C2 C -0.5665(3) 0.1685(4) -0.3822(6)
C3 C -0.5796(4) 0.0852(4) -0.3970(7)
H8 H -0.5421 0.0496 -0.3986
C4 C -0.6481(4) 0.0544(4) -0.4094(8)
H9 H -0.6564 -0.0014 -0.4215
C5 C -0.7030(4) 0.1062(4) -0.4039(8)
H10 H -0.7486 0.0857 -0.4094
C6 C -0.6905(4) 0.1899(4) -0.3901(8)
H11 H -0.7284 0.2247 -0.3868
C7 C -0.6234(3) 0.2231(4) -0.3811(7)
C8 C -0.6161(4) 0.3136(4) -0.3820(7)
C9 C -0.6478(4) 0.3627(4) -0.2906(7)
H12 H -0.6671 0.3382 -0.2187
C10 C -0.6506(4) 0.4466(4) -0.3065(8)
H13 H -0.6724 0.4778 -0.2460
C11 C -0.6216(4) 0.4850(4) -0.4110(7)
C12 C -0.5866(4) 0.4369(4) -0.4975(7)
H14 H -0.5647 0.4619 -0.5651
C13 C -0.5843(4) 0.3526(4) -0.4831(7)
H15 H -0.5611 0.3217 -0.5417
C14 C -0.6295(4) 0.5755(4) -0.4350(7)
C15 C -0.0029(4) 0.3013(4) -0.6252(7)
C16 C 0.0731(3) 0.3261(4) -0.6113(6)
C17 C 0.0888(4) 0.4093(4) -0.5989(7)
H16 H 0.0538 0.4461 -0.5865
C18 C 0.1559(4) 0.4381(4) -0.6050(8)
H17 H 0.1655 0.4938 -0.5985
C19 C 0.2080(4) 0.3836(4) -0.6206(8)
H18 H 0.2532 0.4025 -0.6238
C20 C 0.1934(4) 0.3003(4) -0.6316(7)
H19 H 0.2291 0.2641 -0.6427
C21 C 0.1261(4) 0.2701(4) -0.6262(6)
C22 C 0.1170(3) 0.1791(4) -0.6244(6)
C23 C 0.1451(4) 0.1301(4) -0.7188(7)
H20 H 0.1639 0.1541 -0.7917
C24 C 0.1454(4) 0.0448(4) -0.7052(7)
H21 H 0.1656 0.0130 -0.7676
C25 C 0.1162(3) 0.0074(4) -0.6003(6)
C26 C 0.0855(4) 0.0563(4) -0.5085(7)
H22 H 0.0645 0.0320 -0.4390
C27 C 0.0862(4) 0.1411(4) -0.5203(7)
H23 H 0.0660 0.1728 -0.4580
C28 C 0.1194(4) -0.0837(3) -0.5812(7)
Eu1C Eu -0.365548(17) 0.252552(18) -0.04536(3)
Eu1B Eu -0.634452(17) 0.752552(18) -0.45464(3)
Eu2C Eu -0.126988(17) 0.237384(17) -0.93140(3)
Eu2B Eu 0.126988(17) -0.262616(17) -0.56860(3)
Eu2C_2 Eu -0.126988(17) 0.237384(17) 0.06860(3)
O2C O -0.4669(3) 0.2858(4) -0.7153(6)
O3B O -0.3976(3) 0.3894(3) -0.4716(5)
O4B O -0.3346(3) 0.3839(3) -0.6405(5)
O6C O -0.0322(3) 0.2313(3) -0.2427(6)
O7B O -0.0819(3) 0.1200(3) -0.4921(5)
O8B O -0.1621(3) 0.1248(3) -0.3579(5)
O10C O -0.1823(3) 0.2189(3) -0.6814(6)
O11C O -0.3044(3) 0.2192(3) -0.7281(7)
loop_
_geom_bond_atom_site_label_1
_geom_bond_atom_site_label_2
_geom_bond_site_symmetry_1
_geom_bond_site_symmetry_2
Eu1 O1 1_555 1_555
Eu2 O5 1_555 1_555
O1 C1 1_555 1_555
O2 C1 1_555 1_555
O3 C14 1_555 1_555
O4 C14 1_555 1_555
O5 C15 1_555 1_555
O6 C15 1_555 1_555
O7 C28 1_555 1_555
O8 C28 1_555 1_555
O9 Eu1 1_555 1_555
O10 Eu2 1_555 1_555
O11 N1 1_555 1_555
O12 Eu2 1_555 1_555
H1 O12 1_555 1_555
H2 O12 1_555 1_555
O13 Eu2 1_555 1_555
H3 O13 1_555 1_555
H4 O13 1_555 1_555
O14 Eu1 1_555 1_555
H5 O14 1_555 1_555
H6 O14 1_555 1_555
O15 Eu1 1_555 1_555
H7 O15 1_555 1_555
N1 O9 1_555 1_555
C1 C2 1_555 1_555
C2 C3 1_555 1_555
C3 H8 1_555 1_555
C4 C3 1_555 1_555
H9 C4 1_555 1_555
C5 C4 1_555 1_555
H10 C5 1_555 1_555
C6 C5 1_555 1_555
H11 C6 1_555 1_555
C7 C2 1_555 1_555
C8 C7 1_555 1_555
C9 C8 1_555 1_555
H12 C9 1_555 1_555
C10 C9 1_555 1_555
H13 C10 1_555 1_555
C11 C10 1_555 1_555
C12 C11 1_555 1_555
H14 C12 1_555 1_555
C13 C8 1_555 1_555
H15 C13 1_555 1_555
C14 C11 1_555 1_555
C15 C16 1_555 1_555
C16 C17 1_555 1_555
C17 H16 1_555 1_555
C18 C17 1_555 1_555
H17 C18 1_555 1_555
C19 C18 1_555 1_555
H18 C19 1_555 1_555
C20 C19 1_555 1_555
H19 C20 1_555 1_555
C21 C16 1_555 1_555
C22 C21 1_555 1_555
C23 C22 1_555 1_555
H20 C23 1_555 1_555
C24 C23 1_555 1_555
H21 C24 1_555 1_555
C25 C24 1_555 1_555
C26 C25 1_555 1_555
H22 C26 1_555 1_555
C27 C22 1_555 1_555
H23 C27 1_555 1_555
C28 C25 1_555 1_555
Eu1C O2 1_555 1_555
Eu1B O3 1_555 1_555
Eu2C O6 1_555 1_555
Eu2B O7 1_555 1_555
Eu2C_2 O10 1_555 1_555
O2C Eu1 1_555 1_555
O3B Eu1 1_555 1_555
O4B Eu1 1_555 1_555
O6C Eu2 1_555 1_555
O7B Eu2 1_555 1_555
O8B Eu2 1_555 1_555
O10C Eu2 1_555 1_555
O11C Eu1 1_555 1_555
Eu2 O9 1_555 1_555
O4 Eu1B 1_555 1_555
O8 Eu2B 1_555 1_555
O10 N1 1_555 1_555
O11 Eu1C 1_555 1_555
C6 C7 1_555 1_555
C12 C13 1_555 1_555
C20 C21 1_555 1_555
C26 C27 1_555 1_555
Eu2C O10C 1_555 1_555

#END
