
#######################################################################
#
#                 Cambridge Crystallographic Data Centre
#                                CCDC 
#
#######################################################################
#
# If this CIF has been generated from an entry in the Cambridge 
# Structural Database, then it will include bibliographic, chemical, 
# crystal, experimental, refinement or atomic coordinate data resulting 
# from the CCDC's data processing and validation procedures.
#
#######################################################################

data_DAWPUO
_symmetry_cell_setting           orthorhombic
_symmetry_space_group_name_H-M   'P n m a'
_symmetry_Int_Tables_number      62
_space_group_name_Hall           '-P 2ac 2n'
loop_
_symmetry_equiv_pos_site_id
_symmetry_equiv_pos_as_xyz
1 x,y,z
2 1/2-x,-y,1/2+z
3 1/2+x,1/2-y,1/2-z
4 -x,1/2+y,-z
5 -x,-y,-z
6 1/2+x,y,1/2-z
7 1/2-x,1/2+y,1/2+z
8 x,1/2-y,z
_cell_length_a                   16.481(3)
_cell_length_b                   17.086(3)
_cell_length_c                   10.267(2)
_cell_angle_alpha                90
_cell_angle_beta                 90
_cell_angle_gamma                90
_cell_volume                     2891.13
loop_
_atom_site_label
_atom_site_type_symbol
_atom_site_fract_x
_atom_site_fract_y
_atom_site_fract_z
Zn1 Zn -0.04193(5) 0.2500 0.46888(8)
N1 N -0.0723(3) 0.1477(3) 0.5558(4)
N2 N -0.1261(4) 0.0293(4) 0.5826(7)
N3 N -0.0572(3) 0.0350(3) 0.6504(5)
C1 C 0.1172(7) 0.2500 0.5342(12)
C2 C 0.2103(4) 0.2500 0.5203(7)
C3 C 0.2416(3) 0.3233(3) 0.5930(6)
H1 H 0.2223 0.3702 0.5497
H2 H 0.2211 0.3234 0.6815
C4 C 0.3329(3) 0.3225(4) 0.5944(6)
H3 H 0.3528 0.3693 0.6393
C5 C 0.3630(5) 0.2500 0.6651(10)
H4 H 0.4219 0.2500 0.6677
H5 H 0.3431 0.2500 0.7540
C6 C 0.3649(4) 0.3223(4) 0.4523(6)
H6 H 0.3465 0.3691 0.4077
H7 H 0.4238 0.3225 0.4527
C7 C 0.3344(5) 0.2500 0.3805(7)
C8 C 0.2413(5) 0.2500 0.3820(7)
H8 H 0.2213 0.2960 0.3368
C9 C 0.3637(8) 0.2500 0.2388(10)
C10 C -0.1323(4) 0.0980(5) 0.5284(7)
H9 H -0.1755 0.1113 0.4745
C11 C -0.0260(3) 0.1049(4) 0.6333(6)
H10 H 0.0222 0.1222 0.6707
C12 C -0.0244(4) -0.0322(4) 0.7250(6)
H11 H 0.0270 -0.0479 0.6871
H12 H -0.0615 -0.0760 0.7174
C13 C -0.0116(3) -0.0140(3) 0.8678(6)
C14 C 0.0638(3) 0.0129(3) 0.9099(6)
C15 C 0.1330(4) 0.0291(4) 0.8197(7)
H13 H 0.1441 0.0842 0.8187
H14 H 0.1191 0.0120 0.7335
H15 H 0.1802 0.0013 0.8491
C16 C -0.0754(3) -0.0253(3) 0.9575(7)
C17 C -0.1588(4) -0.0512(4) 0.9080(7)
H16 H -0.1613 -0.1074 0.9065
H17 H -0.1671 -0.0313 0.8216
H18 H -0.2002 -0.0313 0.9647
O1 O 0.0770(5) 0.2500 0.4367(9)
O2 O 0.0833(4) 0.2500 0.6462(8)
O3 O 0.3102(6) 0.2500 0.1460(9)
O4 O 0.4300(5) 0.2500 0.2159(7)
Zn1B Zn 0.45807(5) 0.2500 0.03112(8)
Zn1C Zn 0.04193(5) -0.2500 1.53112(8)
N1D N 0.0723(3) -0.1477(3) 1.4442(4)
N1G N -0.0723(3) 0.3523(3) 0.5558(4)
N2D N 0.1261(4) -0.0293(4) 1.4174(7)
N3D N 0.0572(3) -0.0350(3) 1.3496(5)
C3G C 0.2416(3) 0.1767(3) 0.5930(6)
H1G H 0.2223 0.1298 0.5497
H2G H 0.2211 0.1766 0.6815
C4G C 0.3329(3) 0.1775(4) 0.5944(6)
H3G H 0.3528 0.1307 0.6393
C6G C 0.3649(4) 0.1777(4) 0.4523(6)
H6G H 0.3465 0.1309 0.4077
H7G H 0.4238 0.1775 0.4527
H8G H 0.2213 0.2040 0.3368
C10D C 0.1323(4) -0.0980(5) 1.4716(7)
H9D H 0.1755 -0.1113 1.5255
C11D C 0.0260(3) -0.1049(4) 1.3667(6)
H10D H -0.0222 -0.1222 1.3293
C12D C 0.0244(4) 0.0322(4) 1.2750(6)
H11D H -0.0270 0.0479 1.3129
H12D H 0.0615 0.0760 1.2826
C13D C 0.0116(3) 0.0140(3) 1.1322(6)
C14D C -0.0638(3) -0.0129(3) 1.0901(6)
C15D C -0.1330(4) -0.0291(4) 1.1803(7)
H13D H -0.1441 -0.0842 1.1813
H14D H -0.1191 -0.0120 1.2665
H15D H -0.1802 -0.0013 1.1509
C16D C 0.0754(3) 0.0253(3) 1.0425(7)
C17D C 0.1588(4) 0.0512(4) 1.0920(7)
H16D H 0.1613 0.1074 1.0935
H17D H 0.1671 0.0313 1.1784
H18D H 0.2002 0.0313 1.0353
O4B O -0.0700(5) 0.2500 0.2841(7)
O5 O 0.0812(6) 0.2500 0.1444(8)
H19 H 0.0308 0.2500 0.1264
H20 H 0.1070 0.2500 0.0742
O6 O 0.1699(14) 0.2500 0.9143(17)
H21 H 0.2179 0.2500 0.9583
H22 H 0.1781 0.2500 0.8311
loop_
_geom_bond_atom_site_label_1
_geom_bond_atom_site_label_2
_geom_bond_site_symmetry_1
_geom_bond_site_symmetry_2
Zn1 N1 1_555 1_555
N1 C10 1_555 1_555
N2 N3 1_555 1_555
N3 C11 1_555 1_555
C1 C2 1_555 1_555
C2 C3 1_555 1_555
C3 H1 1_555 1_555
H2 C3 1_555 1_555
C4 C3 1_555 1_555
H3 C4 1_555 1_555
C5 C4 1_555 1_555
H4 C5 1_555 1_555
H5 C5 1_555 1_555
C6 C4 1_555 1_555
H6 C6 1_555 1_555
H7 C6 1_555 1_555
C7 C6 1_555 1_555
C8 C2 1_555 1_555
H8 C8 1_555 1_555
C9 C7 1_555 1_555
C10 N2 1_555 1_555
H9 C10 1_555 1_555
C11 N1 1_555 1_555
H10 C11 1_555 1_555
C12 N3 1_555 1_555
H11 C12 1_555 1_555
H12 C12 1_555 1_555
C13 C12 1_555 1_555
C14 C13 1_555 1_555
C15 C14 1_555 1_555
H13 C15 1_555 1_555
H14 C15 1_555 1_555
H15 C15 1_555 1_555
C16 C13 1_555 1_555
C17 C16 1_555 1_555
H16 C17 1_555 1_555
H17 C17 1_555 1_555
H18 C17 1_555 1_555
O1 Zn1 1_555 1_555
O2 C1 1_555 1_555
O3 C9 1_555 1_555
O4 C9 1_555 1_555
O5 H19 1_555 1_555
H20 O5 1_555 1_555
O6 H21 1_555 1_555
H22 O6 1_555 1_555
Zn1B O4 1_555 1_555
Zn1C N1D 1_555 1_555
N1D C10D 1_555 1_555
N1G Zn1 1_555 1_555
N2D N3D 1_555 1_555
N3D C11D 1_555 1_555
C3G C2 1_555 1_555
H1G C3G 1_555 1_555
H2G C3G 1_555 1_555
C4G C5 1_555 1_555
H3G C4G 1_555 1_555
C6G C7 1_555 1_555
H6G C6G 1_555 1_555
H7G C6G 1_555 1_555
H8G C8 1_555 1_555
C10D N2D 1_555 1_555
H9D C10D 1_555 1_555
C11D N1D 1_555 1_555
H10D C11D 1_555 1_555
C12D N3D 1_555 1_555
H11D C12D 1_555 1_555
H12D C12D 1_555 1_555
C13D C12D 1_555 1_555
C14D C16 1_555 1_555
C15D C14D 1_555 1_555
H13D C15D 1_555 1_555
H14D C15D 1_555 1_555
H15D C15D 1_555 1_555
C16D C14 1_555 1_555
C17D C16D 1_555 1_555
H16D C17D 1_555 1_555
H17D C17D 1_555 1_555
H18D C17D 1_555 1_555
O4B Zn1 1_555 1_555
C1 O1 1_555 1_555
C7 C8 1_555 1_555
C3G C4G 1_555 1_555
C4G C6G 1_555 1_555
C13D C14D 1_555 1_555
C13D C16D 1_555 1_555

#END
