
#######################################################################
#
#                 Cambridge Crystallographic Data Centre
#                                CCDC 
#
#######################################################################
#
# If this CIF has been generated from an entry in the Cambridge 
# Structural Database, then it will include bibliographic, chemical, 
# crystal, experimental, refinement or atomic coordinate data resulting 
# from the CCDC's data processing and validation procedures.
#
#######################################################################

data_DAWQEZ
_symmetry_cell_setting           monoclinic
_symmetry_space_group_name_H-M   'C 2/c'
_symmetry_Int_Tables_number      15
_space_group_name_Hall           '-C 2yn'
loop_
_symmetry_equiv_pos_site_id
_symmetry_equiv_pos_as_xyz
1 x,y,z
2 -x,y,1/2-z
3 1/2+x,1/2+y,z
4 1/2-x,1/2+y,1/2-z
5 -x,-y,-z
6 x,-y,1/2+z
7 1/2-x,1/2-y,-z
8 1/2+x,1/2-y,1/2+z
_cell_length_a                   21.598(4)
_cell_length_b                   19.922(4)
_cell_length_c                   24.788(5)
_cell_angle_alpha                90
_cell_angle_beta                 98.60(3)
_cell_angle_gamma                90
_cell_volume                     10545.7
loop_
_atom_site_label
_atom_site_type_symbol
_atom_site_fract_x
_atom_site_fract_y
_atom_site_fract_z
Zn1 Zn 0.25485(2) 0.73047(2) 0.402196(19)
Zn2 Zn 0.38565(3) 1.02569(3) 0.19071(2)
N1 N 0.20633(15) 0.65747(17) 0.43563(14)
N2 N 0.16974(19) 0.5566(2) 0.45699(17)
N3 N 0.14390(16) 0.60699(19) 0.48338(14)
N4 N 0.23109(16) 0.73388(18) 0.32010(15)
N5 N 0.2030(2) 0.7720(2) 0.23478(17)
N6 N 0.21381(18) 0.7045(2) 0.23497(15)
N7 N 0.4186(2) 0.8607(2) 0.10176(19)
N8 N 0.4748(2) 0.8884(3) 0.0975(2)
N9 N 0.4180(2) 0.9551(2) 0.14480(18)
C1 C 0.16645(19) 0.6658(2) 0.47095(17)
H1 H 0.1559 0.7069 0.4849
C2 C 0.2069(2) 0.5894(2) 0.42863(19)
H2 H 0.2314 0.5681 0.4059
C3 C 0.1039(2) 0.5920(3) 0.52573(19)
H3 H 0.0858 0.6337 0.5362
H4 H 0.1303 0.5744 0.5577
C4 C 0.0516(2) 0.5427(3) 0.50899(18)
C5 C -0.0047(2) 0.5656(3) 0.47920(19)
C6 C -0.0104(3) 0.6363(3) 0.4563(2)
H5 H -0.0318 0.6641 0.4792
H6 H -0.0336 0.6353 0.4201
H7 H 0.0306 0.6541 0.4550
C7 C 0.0571(2) 0.4768(3) 0.5291(2)
C8 C 0.1191(3) 0.4512(3) 0.5588(3)
H8 H 0.1232 0.4635 0.5966
H9 H 0.1528 0.4706 0.5428
H10 H 0.1205 0.4032 0.5557
C9 C 0.2301(2) 0.6834(2) 0.28549(18)
H11 H 0.2396 0.6391 0.2954
C10 C 0.2132(2) 0.7866(3) 0.28645(19)
H12 H 0.2087 0.8298 0.2995
C11 C 0.2131(3) 0.6691(3) 0.18263(19)
H13 H 0.1720 0.6729 0.1610
H14 H 0.2219 0.6218 0.1894
C12 C 0.2613(2) 0.6985(2) 0.15169(18)
C13 C 0.3247(2) 0.6857(2) 0.1694(2)
C14 C 0.3453(3) 0.6364(3) 0.2151(3)
H15 H 0.3109 0.6075 0.2197
H16 H 0.3584 0.6605 0.2483
H17 H 0.3795 0.6100 0.2061
C15 C 0.3704(2) 0.7192(3) 0.1443(2)
C16 C 0.4391(3) 0.7103(4) 0.1666(4)
H18 H 0.4580 0.6805 0.1433
H19 H 0.4432 0.6918 0.2027
H20 H 0.4597 0.7531 0.1678
C17 C 0.3506(3) 0.7626(3) 0.1006(2)
C18 C 0.2878(3) 0.7764(3) 0.0834(2)
C19 C 0.2675(4) 0.8285(3) 0.0393(2)
H21 H 0.3037 0.8514 0.0303
H22 H 0.2399 0.8603 0.0524
H23 H 0.2461 0.8066 0.0073
C20 C 0.2428(3) 0.7438(2) 0.10886(19)
C21 C 0.1745(3) 0.7603(3) 0.0913(2)
H24 H 0.1631 0.7979 0.1119
H25 H 0.1493 0.7222 0.0976
H26 H 0.1676 0.7711 0.0531
C22 C 0.3863(3) 0.9007(3) 0.1294(3)
H27 H 0.3463 0.8915 0.1370
C23 C 0.4720(3) 0.9451(3) 0.1232(3)
H28 H 0.5043 0.9765 0.1265
C24 C 0.36417(19) 0.6710(2) 0.41126(18)
C25 C 0.43141(18) 0.6515(2) 0.43078(18)
C26 C 0.4579(2) 0.5993(2) 0.40533(19)
H29 H 0.4349 0.5782 0.3754
C27 C 0.4660(2) 0.6821(2) 0.47542(19)
H30 H 0.4485 0.7170 0.4929
C28 C 0.5263(2) 0.6613(2) 0.4943(2)
H31 H 0.5489 0.6818 0.5248
C29 C 0.5186(2) 0.5781(2) 0.42395(19)
H32 H 0.5360 0.5426 0.4070
C30 C 0.69954(18) 0.4262(2) 0.43386(17)
C31 C 0.73146(19) 0.3657(2) 0.41510(17)
C32 C 0.7116(2) 0.4895(2) 0.41492(19)
H33 H 0.7397 0.4943 0.3901
C33 C 0.6828(2) 0.5457(2) 0.4323(2)
H34 H 0.6911 0.5881 0.4194
C34 C 0.6414(2) 0.5378(2) 0.4691(2)
C35 C 0.6285(2) 0.4757(2) 0.4886(2)
H35 H 0.6006 0.4711 0.5135
C36 C 0.6577(2) 0.4200(2) 0.47055(19)
H36 H 0.6490 0.3777 0.4834
C37 C 0.55293(19) 0.6105(2) 0.46835(19)
C38 C 0.7640(2) 1.4979(2) 0.2168(2)
C39 C 0.6979(2) 1.4724(2) 0.2019(2)
C40 C 0.6742(2) 1.4582(2) 0.1481(2)
H37 H 0.6994 1.4630 0.1210
C41 C 0.6118(2) 1.4364(3) 0.1347(2)
H38 H 0.5950 1.4273 0.0986
C42 C 0.5767(2) 1.4288(2) 0.1751(3)
C43 C 0.5992(3) 1.4430(3) 0.2288(3)
H39 H 0.5739 1.4380 0.2557
C44 C 0.6600(2) 1.4648(3) 0.2418(2)
H40 H 0.6759 1.4746 0.2779
C45 C 0.4531(2) 1.1341(2) 0.17718(19)
C46 C 0.47014(19) 1.2058(2) 0.17148(17)
C47 C 0.4256(2) 1.2534(2) 0.1517(2)
H41 H 0.3844 1.2399 0.1408
C48 C 0.4411(2) 1.3199(2) 0.1478(2)
H42 H 0.4108 1.3511 0.1338
C49 C 0.5020(2) 1.3401(2) 0.1648(2)
C50 C 0.5483(2) 1.2936(2) 0.1837(2)
H43 H 0.5896 1.3070 0.1940
C51 C 0.4002(3) 0.7973(3) 0.0745(3)
H44 H 0.4366 0.7683 0.0763
H45 H 0.3846 0.8058 0.0364
C52 C 0.5313(2) 1.2267(2) 0.18693(19)
H46 H 0.5617 1.1951 0.1998
O1 O 0.34445(13) 0.72434(15) 0.43213(13)
O2 O 0.33075(15) 0.63567(18) 0.37841(15)
O3 O 0.71416(14) 0.30851(15) 0.43102(13)
O4 O 0.77256(16) 0.37210(19) 0.38565(15)
O5 O 0.61406(14) 0.59467(16) 0.48878(15)
O6 O 0.39488(15) 1.12084(17) 0.17669(16)
O7 O 0.49426(17) 1.09009(18) 0.18255(17)
O8 O 0.79764(16) 1.4977(2) 0.17895(16)
O9 O 0.78136(19) 1.5183(2) 0.26322(19)
O10 O 0.51341(16) 1.40836(17) 0.1614(2)
O11 O 0.4247(2) 1.0032(3) 0.26578(18)
H47 H 0.4449 1.0365 0.2811
H48 H 0.4012 1.0358 0.2718
Zn1D Zn -0.25485(2) 0.26953(2) 0.597804(19)
Zn1B Zn 0.75485(2) 0.23047(2) 0.402196(19)
Zn1B_2 Zn -0.24515(2) 1.23047(2) 0.402196(19)
Zn2D Zn -0.38565(3) -0.02569(3) 0.80929(2)
Zn2B Zn 0.88565(3) 1.52569(3) 0.19071(2)
Zn2B_2 Zn -0.11435(3) 0.52569(3) 0.19071(2)
N1D N -0.20633(15) 0.34253(17) 0.56437(14)
N2D N -0.16974(19) 0.4434(2) 0.54301(17)
N3D N -0.14390(16) 0.39301(19) 0.51662(14)
N4D N -0.23109(16) 0.26612(18) 0.67990(15)
N5D N -0.2030(2) 0.2280(2) 0.76522(17)
N6D N -0.21381(18) 0.2955(2) 0.76503(15)
N7D N -0.4186(2) 0.1393(2) 0.89824(19)
N8D N -0.4748(2) 0.1116(3) 0.9025(2)
N9D N -0.4180(2) 0.0449(2) 0.85520(18)
C1D C -0.16645(19) 0.3342(2) 0.52905(17)
H1D H -0.1559 0.2931 0.5151
C2D C -0.2069(2) 0.4106(2) 0.57137(19)
H2D H -0.2314 0.4319 0.5941
C3D C -0.1039(2) 0.4080(3) 0.47427(19)
H3D H -0.0858 0.3663 0.4638
H4D H -0.1303 0.4256 0.4423
C4D C -0.0516(2) 0.4573(3) 0.49101(18)
C5D C 0.0047(2) 0.4344(3) 0.52080(19)
C6D C 0.0104(3) 0.3637(3) 0.5437(2)
H5D H 0.0318 0.3359 0.5208
H6D H 0.0336 0.3647 0.5799
H7D H -0.0306 0.3459 0.5450
C7D C -0.0571(2) 0.5232(3) 0.4709(2)
C8D C -0.1191(3) 0.5488(3) 0.4412(3)
H8D H -0.1232 0.5365 0.4034
H9D H -0.1528 0.5294 0.4572
H10D H -0.1205 0.5968 0.4443
C9D C -0.2301(2) 0.3166(2) 0.71451(18)
H11D H -0.2396 0.3609 0.7046
C10D C -0.2132(2) 0.2134(3) 0.71355(19)
H12D H -0.2087 0.1702 0.7005
C11D C -0.2131(3) 0.3309(3) 0.81737(19)
H13D H -0.1720 0.3271 0.8390
H14D H -0.2219 0.3782 0.8106
C12D C -0.2613(2) 0.3015(2) 0.84831(18)
C13D C -0.3247(2) 0.3143(2) 0.8306(2)
C14D C -0.3453(3) 0.3636(3) 0.7849(3)
H15D H -0.3109 0.3925 0.7803
H16D H -0.3584 0.3395 0.7517
H17D H -0.3795 0.3900 0.7939
C15D C -0.3704(2) 0.2808(3) 0.8557(2)
C16D C -0.4391(3) 0.2897(4) 0.8334(4)
H18D H -0.4580 0.3195 0.8567
H19D H -0.4432 0.3082 0.7973
H20D H -0.4597 0.2469 0.8322
C17D C -0.3506(3) 0.2374(3) 0.8994(2)
C18D C -0.2878(3) 0.2236(3) 0.9166(2)
C19D C -0.2675(4) 0.1715(3) 0.9607(2)
H21D H -0.3037 0.1486 0.9697
H22D H -0.2399 0.1397 0.9476
H23D H -0.2461 0.1934 0.9927
C20D C -0.2428(3) 0.2562(2) 0.89114(19)
C21D C -0.1745(3) 0.2397(3) 0.9087(2)
H24D H -0.1631 0.2021 0.8881
H25D H -0.1493 0.2778 0.9024
H26D H -0.1676 0.2289 0.9469
C22D C -0.3863(3) 0.0993(3) 0.8706(3)
H27D H -0.3463 0.1085 0.8630
C23D C -0.4720(3) 0.0549(3) 0.8768(3)
H28D H -0.5043 0.0235 0.8735
C24B C -0.13583(19) 1.1710(2) 0.41126(18)
C25B C -0.06859(18) 1.1515(2) 0.43078(18)
C26B C -0.0421(2) 1.0993(2) 0.40533(19)
H29B H -0.0651 1.0782 0.3754
C27B C -0.0340(2) 1.1821(2) 0.47542(19)
H30B H -0.0515 1.2170 0.4929
C28B C 0.0263(2) 1.1613(2) 0.4943(2)
H31B H 0.0489 1.1818 0.5248
C29B C 0.0186(2) 1.0781(2) 0.42395(19)
H32B H 0.0360 1.0426 0.4070
C30B C 0.19954(18) 0.9262(2) 0.43386(17)
C31B C 0.23146(19) 0.8657(2) 0.41510(17)
C32B C 0.2116(2) 0.9895(2) 0.41492(19)
H33B H 0.2397 0.9943 0.3901
C33B C 0.1828(2) 1.0457(2) 0.4323(2)
H34B H 0.1911 1.0881 0.4194
C34B C 0.1414(2) 1.0378(2) 0.4691(2)
C35B C 0.1285(2) 0.9757(2) 0.4886(2)
H35B H 0.1006 0.9711 0.5135
C36B C 0.1577(2) 0.9200(2) 0.47055(19)
H36B H 0.1490 0.8777 0.4834
C37B C 0.05293(19) 1.1105(2) 0.46835(19)
C38B C 0.2640(2) 0.9979(2) 0.2168(2)
C39B C 0.1979(2) 0.9724(2) 0.2019(2)
C40B C 0.1742(2) 0.9582(2) 0.1481(2)
H37B H 0.1994 0.9630 0.1210
C41B C 0.1118(2) 0.9364(3) 0.1347(2)
H38B H 0.0950 0.9273 0.0986
C42B C 0.0767(2) 0.9288(2) 0.1751(3)
C43B C 0.0992(3) 0.9430(3) 0.2288(3)
H39B H 0.0739 0.9380 0.2557
C44B C 0.1600(2) 0.9648(3) 0.2418(2)
H40B H 0.1759 0.9746 0.2779
C45B C -0.0469(2) 0.6341(2) 0.17718(19)
C46B C -0.02986(19) 0.7058(2) 0.17148(17)
C47B C -0.0744(2) 0.7534(2) 0.1517(2)
H41B H -0.1156 0.7399 0.1408
C48B C -0.0589(2) 0.8199(2) 0.1478(2)
H42B H -0.0892 0.8511 0.1338
C49B C 0.0020(2) 0.8401(2) 0.1648(2)
C50B C 0.0483(2) 0.7936(2) 0.1837(2)
H43B H 0.0896 0.8070 0.1940
C51D C -0.4002(3) 0.2027(3) 0.9255(3)
H44D H -0.4366 0.2317 0.9237
H45D H -0.3846 0.1942 0.9636
C52B C 0.0313(2) 0.7267(2) 0.18693(19)
H46B H 0.0617 0.6951 0.1998
O1B O -0.15555(13) 1.22434(15) 0.43213(13)
O1D O -0.34445(13) 0.27566(15) 0.56787(13)
O2B O -0.16925(15) 1.13567(18) 0.37841(15)
O3B O 0.21416(14) 0.80851(15) 0.43102(13)
O3F O -0.21416(14) 0.19149(15) 0.56898(13)
O4B O 0.27256(16) 0.87210(19) 0.38565(15)
O5B O 0.11406(14) 1.09467(16) 0.48878(15)
O6B O -0.10512(15) 0.62084(17) 0.17669(16)
O6D O -0.39488(15) -0.12084(17) 0.82331(16)
O7B O -0.00574(17) 0.59009(18) 0.18255(17)
O8B O 0.29764(16) 0.9977(2) 0.17895(16)
O8F O -0.29764(16) 0.0023(2) 0.82105(16)
O9B O 0.28136(19) 1.0183(2) 0.26322(19)
O10B O 0.01341(16) 0.90836(17) 0.1614(2)
O11D O -0.4247(2) -0.0032(3) 0.73422(18)
H47D H -0.4449 -0.0365 0.7189
H48D H -0.4012 -0.0358 0.7282
O12 O 0.3632(4) 0.9256(6) 0.3304(3)
H49 H 0.3825 0.9497 0.3100
H50 H 0.3295 0.9357 0.3423
O13 O 0.4020(9) 0.8007(9) 0.3300(13)
H51 H 0.3873 0.7815 0.3560
H52 H 0.3895 0.8410 0.3315
O14 O 0.5000 0.8593(8) 0.2500
H53 H 0.5279 0.8896 0.2560
H53A H 0.4721 0.8896 0.2440
H54? H 0.4764 0.8822 0.2263
loop_
_geom_bond_atom_site_label_1
_geom_bond_atom_site_label_2
_geom_bond_site_symmetry_1
_geom_bond_site_symmetry_2
Zn1 N1 1_555 1_555
Zn2 N9 1_555 1_555
N1 C1 1_555 1_555
N2 N3 1_555 1_555
N3 C1 1_555 1_555
N4 Zn1 1_555 1_555
N5 N6 1_555 1_555
N6 C9 1_555 1_555
N7 N8 1_555 1_555
N8 C23 1_555 1_555
N9 C22 1_555 1_555
C1 H1 1_555 1_555
C2 N1 1_555 1_555
H2 C2 1_555 1_555
C3 N3 1_555 1_555
H3 C3 1_555 1_555
H4 C3 1_555 1_555
C4 C3 1_555 1_555
C5 C4 1_555 1_555
C6 C5 1_555 1_555
H5 C6 1_555 1_555
H6 C6 1_555 1_555
H7 C6 1_555 1_555
C7 C4 1_555 1_555
C8 C7 1_555 1_555
H8 C8 1_555 1_555
H9 C8 1_555 1_555
H10 C8 1_555 1_555
C9 N4 1_555 1_555
H11 C9 1_555 1_555
C10 N4 1_555 1_555
H12 C10 1_555 1_555
C11 N6 1_555 1_555
H13 C11 1_555 1_555
H14 C11 1_555 1_555
C12 C11 1_555 1_555
C13 C12 1_555 1_555
C14 C13 1_555 1_555
H15 C14 1_555 1_555
H16 C14 1_555 1_555
H17 C14 1_555 1_555
C15 C13 1_555 1_555
C16 C15 1_555 1_555
H18 C16 1_555 1_555
H19 C16 1_555 1_555
H20 C16 1_555 1_555
C17 C15 1_555 1_555
C18 C17 1_555 1_555
C19 C18 1_555 1_555
H21 C19 1_555 1_555
H22 C19 1_555 1_555
H23 C19 1_555 1_555
C20 C12 1_555 1_555
C21 C20 1_555 1_555
H24 C21 1_555 1_555
H25 C21 1_555 1_555
H26 C21 1_555 1_555
C22 N7 1_555 1_555
H27 C22 1_555 1_555
C23 N9 1_555 1_555
H28 C23 1_555 1_555
C24 C25 1_555 1_555
C25 C26 1_555 1_555
C26 H29 1_555 1_555
C27 C25 1_555 1_555
H30 C27 1_555 1_555
C28 C27 1_555 1_555
H31 C28 1_555 1_555
C29 C26 1_555 1_555
H32 C29 1_555 1_555
C30 C31 1_555 1_555
C31 O3 1_555 1_555
C32 C30 1_555 1_555
H33 C32 1_555 1_555
C33 C32 1_555 1_555
H34 C33 1_555 1_555
C34 C33 1_555 1_555
C35 C34 1_555 1_555
H35 C35 1_555 1_555
C36 C30 1_555 1_555
H36 C36 1_555 1_555
C37 C28 1_555 1_555
C38 C39 1_555 1_555
C39 C40 1_555 1_555
C40 H37 1_555 1_555
C41 C40 1_555 1_555
H38 C41 1_555 1_555
C42 C41 1_555 1_555
C43 C42 1_555 1_555
H39 C43 1_555 1_555
C44 C39 1_555 1_555
H40 C44 1_555 1_555
C45 C46 1_555 1_555
C46 C47 1_555 1_555
C47 H41 1_555 1_555
C48 C47 1_555 1_555
H42 C48 1_555 1_555
C49 C48 1_555 1_555
C50 C49 1_555 1_555
H43 C50 1_555 1_555
C51 N7 1_555 1_555
H44 C51 1_555 1_555
H45 C51 1_555 1_555
C52 C46 1_555 1_555
H46 C52 1_555 1_555
O1 Zn1 1_555 1_555
O2 C24 1_555 1_555
O3 Zn1B 1_555 1_555
O4 C31 1_555 1_555
O5 C34 1_555 1_555
O6 Zn2 1_555 1_555
O7 C45 1_555 1_555
O8 C38 1_555 1_555
O9 C38 1_555 1_555
O10 C42 1_555 1_555
O11 Zn2 1_555 1_555
H47 O11 1_555 1_555
H48 O11 1_555 1_555
O12 H49 1_555 1_555
H50 O12 1_555 1_555
O13 H51 1_555 1_555
H52 O13 1_555 1_555
O14 H53 1_555 1_555
Zn1D N1D 1_555 1_555
Zn1B_2 O1B 1_555 1_555
Zn2D N9D 1_555 1_555
Zn2B O8 1_555 1_555
Zn2B_2 O6B 1_555 1_555
N1D C1D 1_555 1_555
N2D N3D 1_555 1_555
N3D C1D 1_555 1_555
N4D Zn1D 1_555 1_555
N5D N6D 1_555 1_555
N6D C9D 1_555 1_555
N7D N8D 1_555 1_555
N8D C23D 1_555 1_555
N9D C22D 1_555 1_555
C1D H1D 1_555 1_555
C2D N1D 1_555 1_555
H2D C2D 1_555 1_555
C3D N3D 1_555 1_555
H3D C3D 1_555 1_555
H4D C3D 1_555 1_555
C4D C3D 1_555 1_555
C5D C7 1_555 1_555
C6D C5D 1_555 1_555
H5D C6D 1_555 1_555
H6D C6D 1_555 1_555
H7D C6D 1_555 1_555
C7D C5 1_555 1_555
C8D C7D 1_555 1_555
H8D C8D 1_555 1_555
H9D C8D 1_555 1_555
H10D C8D 1_555 1_555
C9D N4D 1_555 1_555
H11D C9D 1_555 1_555
C10D N4D 1_555 1_555
H12D C10D 1_555 1_555
C11D N6D 1_555 1_555
H13D C11D 1_555 1_555
H14D C11D 1_555 1_555
C12D C11D 1_555 1_555
C13D C12D 1_555 1_555
C14D C13D 1_555 1_555
H15D C14D 1_555 1_555
H16D C14D 1_555 1_555
H17D C14D 1_555 1_555
C15D C13D 1_555 1_555
C16D C15D 1_555 1_555
H18D C16D 1_555 1_555
H19D C16D 1_555 1_555
H20D C16D 1_555 1_555
C17D C15D 1_555 1_555
C18D C17D 1_555 1_555
C19D C18D 1_555 1_555
H21D C19D 1_555 1_555
H22D C19D 1_555 1_555
H23D C19D 1_555 1_555
C20D C12D 1_555 1_555
C21D C20D 1_555 1_555
H24D C21D 1_555 1_555
H25D C21D 1_555 1_555
H26D C21D 1_555 1_555
C22D N7D 1_555 1_555
H27D C22D 1_555 1_555
C23D N9D 1_555 1_555
H28D C23D 1_555 1_555
C24B C25B 1_555 1_555
C25B C26B 1_555 1_555
C26B H29B 1_555 1_555
C27B C25B 1_555 1_555
H30B C27B 1_555 1_555
C28B C27B 1_555 1_555
H31B C28B 1_555 1_555
C29B C26B 1_555 1_555
H32B C29B 1_555 1_555
C30B C31B 1_555 1_555
C31B O3B 1_555 1_555
C32B C30B 1_555 1_555
H33B C32B 1_555 1_555
C33B C32B 1_555 1_555
H34B C33B 1_555 1_555
C34B C33B 1_555 1_555
C35B C34B 1_555 1_555
H35B C35B 1_555 1_555
C36B C30B 1_555 1_555
H36B C36B 1_555 1_555
C37B C28B 1_555 1_555
C38B C39B 1_555 1_555
C39B C40B 1_555 1_555
C40B H37B 1_555 1_555
C41B C40B 1_555 1_555
H38B C41B 1_555 1_555
C42B C41B 1_555 1_555
C43B C42B 1_555 1_555
H39B C43B 1_555 1_555
C44B C39B 1_555 1_555
H40B C44B 1_555 1_555
C45B C46B 1_555 1_555
C46B C47B 1_555 1_555
C47B H41B 1_555 1_555
C48B C47B 1_555 1_555
H42B C48B 1_555 1_555
C49B C48B 1_555 1_555
C50B C49B 1_555 1_555
H43B C50B 1_555 1_555
C51D N7D 1_555 1_555
H44D C51D 1_555 1_555
H45D C51D 1_555 1_555
C52B C46B 1_555 1_555
H46B C52B 1_555 1_555
O1B C24B 1_555 1_555
O1D Zn1D 1_555 1_555
O2B C24B 1_555 1_555
O3B Zn1 1_555 1_555
O3F Zn1D 1_555 1_555
O4B C31B 1_555 1_555
O5B C34B 1_555 1_555
O6B C45B 1_555 1_555
O6D Zn2D 1_555 1_555
O7B C45B 1_555 1_555
O8B Zn2 1_555 1_555
O8F Zn2D 1_555 1_555
O9B C38B 1_555 1_555
O10B C42B 1_555 1_555
O11D Zn2D 1_555 1_555
H47D O11D 1_555 1_555
H48D O11D 1_555 1_555
H53A O14 1_555 1_555
N2 C2 1_555 1_555
N5 C10 1_555 1_555
C17 C51 1_555 1_555
C18 C20 1_555 1_555
C24 O1 1_555 1_555
C29 C37 1_555 1_555
C35 C36 1_555 1_555
C37 O5 1_555 1_555
C43 C44 1_555 1_555
C45 O6 1_555 1_555
C49 O10 1_555 1_555
C50 C52 1_555 1_555
N2D C2D 1_555 1_555
N5D C10D 1_555 1_555
C4D C5D 1_555 1_555
C4D C7D 1_555 1_555
C17D C51D 1_555 1_555
C18D C20D 1_555 1_555
C29B C37B 1_555 1_555
C35B C36B 1_555 1_555
C37B O5B 1_555 1_555
C38B O8B 1_555 1_555
C43B C44B 1_555 1_555
C49B O10B 1_555 1_555
C50B C52B 1_555 1_555

#END
