
#######################################################################
#
#                 Cambridge Crystallographic Data Centre
#                                CCDC 
#
#######################################################################
#
# If this CIF has been generated from an entry in the Cambridge 
# Structural Database, then it will include bibliographic, chemical, 
# crystal, experimental, refinement or atomic coordinate data resulting 
# from the CCDC's data processing and validation procedures.
#
#######################################################################

data_DAWQUP
_symmetry_cell_setting           triclinic
_symmetry_space_group_name_H-M   'P -1'
_symmetry_Int_Tables_number      2
_space_group_name_Hall           '-P 1'
loop_
_symmetry_equiv_pos_site_id
_symmetry_equiv_pos_as_xyz
1 x,y,z
2 -x,-y,-z
_cell_length_a                   7.5343(15)
_cell_length_b                   15.432(3)
_cell_length_c                   16.814(3)
_cell_angle_alpha                116.35(3)
_cell_angle_beta                 92.04(3)
_cell_angle_gamma                90.63(3)
_cell_volume                     1749.94
loop_
_atom_site_label
_atom_site_type_symbol
_atom_site_fract_x
_atom_site_fract_y
_atom_site_fract_z
Cu1 Cu 0.99112(3) 0.247223(17) -0.009417(16)
Cu2 Cu 2.01150(4) 0.275280(18) 0.495500(15)
C1 C 1.3290(3) 0.52932(15) 0.31503(14)
C2 C 1.4937(3) 0.51154(16) 0.34266(14)
H1 H 1.5110 0.5171 0.3998
C3 C 1.6344(3) 0.48524(17) 0.28539(16)
H2 H 1.7458 0.4745 0.3043
C4 C 1.6055(3) 0.47542(17) 0.20008(16)
H3 H 1.6985 0.4573 0.1615
C5 C 1.4402(3) 0.49210(16) 0.17073(15)
H4 H 1.4218 0.4841 0.1128
C6 C 1.3036(3) 0.52086(15) 0.22921(14)
C7 C 1.1767(3) 0.55932(15) 0.37590(13)
C8 C 1.0980(3) 0.53586(15) 0.12393(13)
H5 H 1.1948 0.5665 0.1084
H6 H 0.9906 0.5702 0.1245
C9 C 1.0743(3) 0.43114(15) 0.05407(13)
C10 C 0.5530(3) 0.00415(16) -0.18194(15)
H7 H 0.5662 0.0183 -0.1222
C11 C 0.3936(3) 0.02224(17) -0.21587(16)
H8 H 0.3001 0.0476 -0.1784
C12 C 0.3720(4) 0.00314(18) -0.30436(17)
H9 H 0.2650 0.0151 -0.3265
C13 C 0.5134(3) -0.03426(17) -0.35964(15)
H10 H 0.5014 -0.0461 -0.4189
C14 C 0.6712(3) -0.05392(15) -0.32748(14)
C15 C 0.6910(3) -0.03498(15) -0.23770(14)
C16 C 0.8165(3) -0.10261(16) -0.38910(14)
C17 C 0.8832(3) -0.03979(15) -0.12338(13)
H11 H 0.9868 -0.0742 -0.1186
H12 H 0.7824 -0.0639 -0.1041
C18 C 0.9127(3) 0.06661(15) -0.06248(13)
C19 C 0.8196(3) 0.20097(15) -0.18161(13)
H13 H 0.9218 0.1658 -0.2014
C20 C 0.6980(3) 0.20362(15) -0.24352(13)
H14 H 0.7206 0.1722 -0.3036
C21 C 0.5408(3) 0.25346(15) -0.21615(14)
C22 C 0.5145(3) 0.29848(15) -0.12454(14)
H15 H 0.4097 0.3303 -0.1032
C23 C 0.6453(3) 0.29523(15) -0.06651(14)
H16 H 0.6282 0.3277 -0.0059
C24 C 0.4698(3) 0.25344(16) -0.36154(14)
H17 H 0.5894 0.2457 -0.3743
C25 C 0.3462(3) 0.26006(17) -0.42121(14)
H18 H 0.3864 0.2571 -0.4740
C26 C 0.1161(3) 0.27513(15) -0.33102(14)
H19 H -0.0046 0.2816 -0.3207
C27 C 0.2314(3) 0.27071(16) -0.26692(14)
H20 H 0.1880 0.2758 -0.2140
C28 C 0.4116(3) 0.25863(15) -0.28165(13)
C29 C 1.3399(3) 0.20081(15) 0.04831(14)
H21 H 1.3586 0.1685 -0.0122
C30 C 1.4710(3) 0.19962(16) 0.10715(14)
H22 H 1.5762 0.1682 0.0863
C31 C 1.4448(3) 0.24604(15) 0.19854(13)
C32 C 1.2848(3) 0.29311(15) 0.22449(14)
H23 H 1.2611 0.3248 0.2845
C33 C 1.1626(3) 0.29285(15) 0.16219(14)
H24 H 1.0585 0.3263 0.1816
C34 C 1.5778(3) 0.24786(15) 0.26547(14)
C35 C 1.5284(3) 0.26624(18) 0.35043(14)
H25 H 1.4097 0.2742 0.3647
C36 C 1.6583(3) 0.27261(18) 0.41360(15)
H26 H 1.6231 0.2860 0.4703
C37 C 1.8778(3) 0.23917(17) 0.31468(14)
H27 H 1.9968 0.2282 0.3015
C38 C 1.7571(3) 0.23283(17) 0.24831(14)
H28 H 1.7958 0.2185 0.1920
N1 N 1.8298(3) 0.26062(13) 0.39766(11)
N2 N 0.1735(3) 0.27036(13) -0.40773(11)
N3 N 0.7970(3) 0.24707(13) -0.09367(11)
N4 N 1.1858(3) 0.24661(12) 0.07436(11)
O1 O 1.0857(2) 0.49725(11) 0.38482(11)
O2 O 1.1550(2) 0.65054(11) 0.41502(9)
O3 O 0.9559(2) 0.38148(11) 0.07069(10)
O4 O 1.1634(2) 0.39866(12) -0.01245(10)
O5 O 0.8352(2) 0.10588(12) 0.00776(10)
O6 O 1.0231(2) 0.11144(11) -0.08876(9)
O7 O 0.9029(3) -0.05993(13) -0.42255(12)
O8 O 0.8353(2) -0.19135(11) -0.40555(9)
O9 O 0.8517(2) -0.05980(11) -0.21396(10)
O10 O 1.1350(2) 0.54292(11) 0.21049(9)
O12 O 2.1665(2) 0.40798(11) 0.49695(10)
H31 H 2.0963 0.4489 0.5414
H32 H 2.1464 0.4170 0.4478
Cu2_2 Cu 0.01150(4) 0.275280(18) -0.504500(15)
Cu2A Cu 0.98850(4) 0.724720(18) 0.504500(15)
Cu2A_2 Cu 0.98850(4) -0.275280(18) -0.495500(15)
N2_2 N 2.1735(3) 0.27036(13) 0.59227(11)
O2A O 1.8450(2) 0.34946(11) 0.58498(9)
O8A O 2.1647(2) 0.19135(11) 0.40555(9)
O11 O 0.8122(3) 0.09842(13) 0.54101(12)
H29 H 0.8948 0.0997 0.5054
H30 H 0.8321 0.0509 0.5537
loop_
_geom_bond_atom_site_label_1
_geom_bond_atom_site_label_2
_geom_bond_site_symmetry_1
_geom_bond_site_symmetry_2
Cu1 N3 1_555 1_555
Cu2 N1 1_555 1_555
C1 C2 1_555 1_555
C2 H1 1_555 1_555
C3 C2 1_555 1_555
H2 C3 1_555 1_555
C4 C3 1_555 1_555
H3 C4 1_555 1_555
C5 C4 1_555 1_555
H4 C5 1_555 1_555
C6 C1 1_555 1_555
C7 C1 1_555 1_555
C8 H5 1_555 1_555
H6 C8 1_555 1_555
C9 C8 1_555 1_555
C10 H7 1_555 1_555
C11 C10 1_555 1_555
H8 C11 1_555 1_555
C12 C11 1_555 1_555
H9 C12 1_555 1_555
C13 C12 1_555 1_555
H10 C13 1_555 1_555
C14 C13 1_555 1_555
C15 C10 1_555 1_555
C16 C14 1_555 1_555
C17 H11 1_555 1_555
H12 C17 1_555 1_555
C18 C17 1_555 1_555
C19 H13 1_555 1_555
C20 C19 1_555 1_555
H14 C20 1_555 1_555
C21 C20 1_555 1_555
C22 C21 1_555 1_555
H15 C22 1_555 1_555
C23 C22 1_555 1_555
H16 C23 1_555 1_555
C24 H17 1_555 1_555
C25 C24 1_555 1_555
H18 C25 1_555 1_555
C26 H19 1_555 1_555
C27 C26 1_555 1_555
H20 C27 1_555 1_555
C28 C21 1_555 1_555
C29 H21 1_555 1_555
C30 C29 1_555 1_555
H22 C30 1_555 1_555
C31 C30 1_555 1_555
C32 C31 1_555 1_555
H23 C32 1_555 1_555
C33 C32 1_555 1_555
H24 C33 1_555 1_555
C34 C31 1_555 1_555
C35 C34 1_555 1_555
H25 C35 1_555 1_555
C36 C35 1_555 1_555
H26 C36 1_555 1_555
C37 H27 1_555 1_555
C38 C34 1_555 1_555
H28 C38 1_555 1_555
N1 C36 1_555 1_555
N2 C25 1_555 1_555
N3 C19 1_555 1_555
N4 Cu1 1_555 1_555
O1 C7 1_555 1_555
O2 C7 1_555 1_555
O3 Cu1 1_555 1_555
O4 C9 1_555 1_555
O5 C18 1_555 1_555
O6 Cu1 1_555 1_555
O7 C16 1_555 1_555
O8 C16 1_555 1_555
O9 C15 1_555 1_555
O10 C6 1_555 1_555
O11 H29 1_555 1_555
H30 O11 1_555 1_555
O12 Cu2 1_555 1_555
H31 O12 1_555 1_555
H32 O12 1_555 1_555
Cu2_2 N2 1_555 1_555
Cu2A O2 1_555 1_555
Cu2A_2 O8 1_555 1_555
N2_2 Cu2 1_555 1_555
O2A Cu2 1_555 1_555
O8A Cu2 1_555 1_555
C5 C6 1_555 1_555
C8 O10 1_555 1_555
C9 O3 1_555 1_555
C14 C15 1_555 1_555
C17 O9 1_555 1_555
C18 O6 1_555 1_555
C23 N3 1_555 1_555
C24 C28 1_555 1_555
C26 N2 1_555 1_555
C27 C28 1_555 1_555
C29 N4 1_555 1_555
C33 N4 1_555 1_555
C37 C38 1_555 1_555
C37 N1 1_555 1_555

#END
