
#######################################################################
#
#                 Cambridge Crystallographic Data Centre
#                                CCDC 
#
#######################################################################
#
# If this CIF has been generated from an entry in the Cambridge 
# Structural Database, then it will include bibliographic, chemical, 
# crystal, experimental, refinement or atomic coordinate data resulting 
# from the CCDC's data processing and validation procedures.
#
#######################################################################

data_DAWRUQ
_symmetry_cell_setting           monoclinic
_symmetry_space_group_name_H-M   'P 21/c'
_symmetry_Int_Tables_number      14
_space_group_name_Hall           '-P 2ybc'
loop_
_symmetry_equiv_pos_site_id
_symmetry_equiv_pos_as_xyz
1 x,y,z
2 -x,1/2+y,1/2-z
3 -x,-y,-z
4 x,1/2-y,1/2+z
_cell_length_a                   11.370(2)
_cell_length_b                   14.137(3)
_cell_length_c                   15.113(3)
_cell_angle_alpha                90
_cell_angle_beta                 107.63(3)
_cell_angle_gamma                90
_cell_volume                     2315.13
loop_
_atom_site_label
_atom_site_type_symbol
_atom_site_fract_x
_atom_site_fract_y
_atom_site_fract_z
Ni1 Ni 0.21175(6) 0.71982(4) 0.81672(4)
O1 O 0.2477(3) 0.6095(2) 0.9060(2)
O2 O 0.3624(4) 0.5627(3) 1.0465(3)
O3 O 0.1875(3) 0.8459(2) 0.7575(2)
O4 O 0.1152(6) 0.9908(3) 0.7435(3)
O5 O 0.2847(3) 0.7909(2) 0.9465(2)
N1 N 0.0250(4) 0.7256(3) 0.8206(3)
N2 N -0.6042(4) 0.7135(3) 0.8055(3)
N3 N 0.1460(4) 0.6402(3) 0.6980(3)
C1 C 0.3040(5) 0.8881(3) 0.9624(4)
C2 C 0.3709(6) 0.9203(4) 1.0511(4)
H1 H 0.4043 0.8771 1.0984
C3 C 0.3874(6) 1.0164(4) 1.0682(5)
H2 H 0.4358 1.0376 1.1260
C4 C 0.3323(7) 1.0803(4) 0.9998(5)
H3 H 0.3389 1.1449 1.0119
C5 C 0.2667(6) 1.0472(4) 0.9125(4)
H4 H 0.2311 1.0908 0.8661
C6 C 0.2520(5) 0.9509(4) 0.8918(4)
C7 C 0.1800(6) 0.9274(4) 0.7909(4)
C8 C 0.3464(6) 0.7259(4) 1.0198(4)
H5 H 0.3200 0.7378 1.0741
H6 H 0.4349 0.7358 1.0369
C9 C 0.3166(5) 0.6250(4) 0.9881(4)
C10 C -0.5300(5) 0.6386(4) 0.8347(4)
H7 H -0.5620 0.5857 0.8558
C11 C -0.4096(5) 0.6365(4) 0.8347(4)
H8 H -0.3617 0.5831 0.8562
C12 C -0.3586(5) 0.7144(3) 0.8025(3)
C13 C -0.4381(5) 0.7890(4) 0.7662(3)
H9 H -0.4110 0.8404 0.7393
C14 C -0.5579(5) 0.7862(3) 0.7705(3)
H10 H -0.6089 0.8377 0.7477
C15 C -0.2265(5) 0.7180(3) 0.8072(4)
C16 C -0.1378(5) 0.6740(3) 0.8789(3)
H11 H -0.1605 0.6412 0.9246
H12 H 0.0441 0.6485 0.9304
H13 H -0.0358 0.8010 0.7054
C17 C -0.0148(5) 0.6791(4) 0.8819(4)
C18 C -0.0621(5) 0.7689(3) 0.7500(4)
C19 C -0.1865(5) 0.7671(3) 0.7410(4)
H14 H -0.2428 0.7980 0.6919
C20 C 0.1414(6) 0.5453(4) 0.7020(4)
H15 H 0.1777 0.5159 0.7588
C21 C 0.0864(6) 0.4901(4) 0.6272(4)
H16 H 0.0854 0.4248 0.6345
C22 C 0.0324(4) 0.5286(3) 0.5413(3)
C23 C 0.0395(6) 0.6267(4) 0.5365(3)
H17 H 0.0057 0.6573 0.4800
C24 C 0.0963(5) 0.6784(3) 0.6149(3)
H18 H 0.1001 0.7438 0.6093
Ni1_2 Ni 1.21175(6) 0.71982(4) 0.81672(4)
Ni1_3 Ni -0.78825(6) 0.71982(4) 0.81672(4)
Ni1B Ni -0.21175(6) 0.28018(4) 0.18328(4)
O1_2 O 1.2477(3) 0.6095(2) 0.9060(2)
O2_2 O 1.3624(4) 0.5627(3) 1.0465(3)
O3_2 O 1.1875(3) 0.8459(2) 0.7575(2)
O4_2 O 1.1152(6) 0.9908(3) 0.7435(3)
O5_2 O 1.2847(3) 0.7909(2) 0.9465(2)
N1_2 N 1.0250(4) 0.7256(3) 0.8206(3)
N2_2 N 0.3958(4) 0.7135(3) 0.8055(3)
N2_3 N 1.3958(4) 0.7135(3) 0.8055(3)
N3B N -0.1460(4) 0.3598(3) 0.3020(3)
N3_2 N 1.1460(4) 0.6402(3) 0.6980(3)
C1_2 C 1.3040(5) 0.8881(3) 0.9624(4)
C2_2 C 1.3709(6) 0.9203(4) 1.0511(4)
H1_2 H 1.4043 0.8771 1.0984
C3_2 C 1.3874(6) 1.0164(4) 1.0682(5)
H2_2 H 1.4358 1.0376 1.1260
C4_2 C 1.3323(7) 1.0803(4) 0.9998(5)
H3_2 H 1.3389 1.1449 1.0119
C5_2 C 1.2667(6) 1.0472(4) 0.9125(4)
H4_2 H 1.2311 1.0908 0.8661
C6_2 C 1.2520(5) 0.9509(4) 0.8918(4)
C7_2 C 1.1800(6) 0.9274(4) 0.7909(4)
C8_2 C 1.3464(6) 0.7259(4) 1.0198(4)
H5_2 H 1.3200 0.7378 1.0741
H6_2 H 1.4349 0.7358 1.0369
C9_2 C 1.3166(5) 0.6250(4) 0.9881(4)
C10_2 C 0.4700(5) 0.6386(4) 0.8347(4)
H7_2 H 0.4380 0.5857 0.8558
C11_2 C 0.5904(5) 0.6365(4) 0.8347(4)
H8_2 H 0.6383 0.5831 0.8562
C12_2 C 0.6414(5) 0.7144(3) 0.8025(3)
C13_2 C 0.5619(5) 0.7890(4) 0.7662(3)
H9_2 H 0.5890 0.8404 0.7393
C14_2 C 0.4421(5) 0.7862(3) 0.7705(3)
H10_2 H 0.3911 0.8377 0.7477
C15_2 C 0.7735(5) 0.7180(3) 0.8072(4)
C16_2 C 0.8622(5) 0.6740(3) 0.8789(3)
H11_2 H 0.8395 0.6412 0.9246
H12_2 H 1.0441 0.6485 0.9304
H13_2 H 0.9642 0.8010 0.7054
C17_2 C 0.9852(5) 0.6791(4) 0.8819(4)
C18_2 C 0.9379(5) 0.7689(3) 0.7500(4)
C19_2 C 0.8135(5) 0.7671(3) 0.7410(4)
H14_2 H 0.7572 0.7980 0.6919
C20B C -0.1414(6) 0.4547(4) 0.2980(4)
H15B H -0.1777 0.4841 0.2412
C21B C -0.0864(6) 0.5099(4) 0.3728(4)
H16B H -0.0854 0.5752 0.3655
C22B C -0.0324(4) 0.4714(3) 0.4587(3)
C23B C -0.0395(6) 0.3733(4) 0.4635(3)
H17B H -0.0057 0.3427 0.5200
C24B C -0.0963(5) 0.3216(3) 0.3851(3)
H18B H -0.1001 0.2562 0.3907
O6 O 0.6163(7) 0.9118(5) 0.5930(5)
H21 H 0.6168 0.8533 0.5788
H22 H 0.6402 0.9448 0.5547
H19 H -0.1203 0.9123 0.5820
H20 H -0.1058 1.0048 0.5575
O7 O -0.0684(9) 0.9523(5) 0.5736(5)
H23? H 0.1026 0.9214 0.5702
H24? H 0.0240 0.9676 0.6125
O8? O 0.0273(11) 0.9286(7) 0.5693(7)
loop_
_geom_bond_atom_site_label_1
_geom_bond_atom_site_label_2
_geom_bond_site_symmetry_1
_geom_bond_site_symmetry_2
Ni1 O1 1_555 1_555
O1 C9 1_555 1_555
O2 C9 1_555 1_555
O3 Ni1 1_555 1_555
O4 C7 1_555 1_555
O5 Ni1 1_555 1_555
N1 Ni1 1_555 1_555
N2 C10 1_555 1_555
N3 Ni1 1_555 1_555
C1 O5 1_555 1_555
C2 C1 1_555 1_555
H1 C2 1_555 1_555
C3 C2 1_555 1_555
H2 C3 1_555 1_555
C4 C3 1_555 1_555
H3 C4 1_555 1_555
C5 C4 1_555 1_555
H4 C5 1_555 1_555
C6 C1 1_555 1_555
C7 O3 1_555 1_555
C8 O5 1_555 1_555
H5 C8 1_555 1_555
H6 C8 1_555 1_555
C9 C8 1_555 1_555
C10 H7 1_555 1_555
C11 C10 1_555 1_555
H8 C11 1_555 1_555
C12 C11 1_555 1_555
C13 C12 1_555 1_555
H9 C13 1_555 1_555
C14 N2 1_555 1_555
H10 C14 1_555 1_555
C15 C12 1_555 1_555
C16 C15 1_555 1_555
H11 C16 1_555 1_555
H12 C17 1_555 1_555
H13 C18 1_555 1_555
C17 N1 1_555 1_555
C18 N1 1_555 1_555
C19 C15 1_555 1_555
H14 C19 1_555 1_555
C20 N3 1_555 1_555
H15 C20 1_555 1_555
C21 C20 1_555 1_555
H16 C21 1_555 1_555
C22 C21 1_555 1_555
C23 C22 1_555 1_555
H17 C23 1_555 1_555
C24 N3 1_555 1_555
H18 C24 1_555 1_555
O6 H21 1_555 1_555
H19 O7 1_555 1_555
H20 O7 1_555 1_555
H22 O6 1_555 1_555
Ni1_2 O1_2 1_555 1_555
Ni1_3 N2 1_555 1_555
Ni1B N3B 1_555 1_555
O1_2 C9_2 1_555 1_555
O2_2 C9_2 1_555 1_555
O3_2 Ni1_2 1_555 1_555
O4_2 C7_2 1_555 1_555
O5_2 Ni1_2 1_555 1_555
N1_2 Ni1_2 1_555 1_555
N2_2 Ni1 1_555 1_555
N2_3 Ni1_2 1_555 1_555
N3B C20B 1_555 1_555
N3_2 Ni1_2 1_555 1_555
C1_2 O5_2 1_555 1_555
C2_2 C1_2 1_555 1_555
H1_2 C2_2 1_555 1_555
C3_2 C2_2 1_555 1_555
H2_2 C3_2 1_555 1_555
C4_2 C3_2 1_555 1_555
H3_2 C4_2 1_555 1_555
C5_2 C4_2 1_555 1_555
H4_2 C5_2 1_555 1_555
C6_2 C1_2 1_555 1_555
C7_2 O3_2 1_555 1_555
C8_2 O5_2 1_555 1_555
H5_2 C8_2 1_555 1_555
H6_2 C8_2 1_555 1_555
C9_2 C8_2 1_555 1_555
C10_2 N2_2 1_555 1_555
H7_2 C10_2 1_555 1_555
C11_2 C10_2 1_555 1_555
H8_2 C11_2 1_555 1_555
C12_2 C11_2 1_555 1_555
C13_2 C12_2 1_555 1_555
H9_2 C13_2 1_555 1_555
C14_2 N2_2 1_555 1_555
H10_2 C14_2 1_555 1_555
C15_2 C12_2 1_555 1_555
C16_2 C15_2 1_555 1_555
H11_2 C16_2 1_555 1_555
H12_2 C17_2 1_555 1_555
H13_2 C18_2 1_555 1_555
C17_2 N1_2 1_555 1_555
C18_2 N1_2 1_555 1_555
C19_2 C15_2 1_555 1_555
H14_2 C19_2 1_555 1_555
C20B H15B 1_555 1_555
C21B C20B 1_555 1_555
H16B C21B 1_555 1_555
C22B C22 1_555 1_555
C23B C22B 1_555 1_555
H17B C23B 1_555 1_555
C24B N3B 1_555 1_555
H18B C24B 1_555 1_555
C5 C6 1_555 1_555
C6 C7 1_555 1_555
C13 C14 1_555 1_555
C16 C17 1_555 1_555
C18 C19 1_555 1_555
C23 C24 1_555 1_555
C5_2 C6_2 1_555 1_555
C6_2 C7_2 1_555 1_555
C13_2 C14_2 1_555 1_555
C16_2 C17_2 1_555 1_555
C18_2 C19_2 1_555 1_555
C21B C22B 1_555 1_555
C23B C24B 1_555 1_555

#END
