
#######################################################################
#
#                 Cambridge Crystallographic Data Centre
#                                CCDC 
#
#######################################################################
#
# If this CIF has been generated from an entry in the Cambridge 
# Structural Database, then it will include bibliographic, chemical, 
# crystal, experimental, refinement or atomic coordinate data resulting 
# from the CCDC's data processing and validation procedures.
#
#######################################################################

data_DAWREA
_symmetry_cell_setting           monoclinic
_symmetry_space_group_name_H-M   'C 2/c'
_symmetry_Int_Tables_number      15
_space_group_name_Hall           '-C 2yn'
loop_
_symmetry_equiv_pos_site_id
_symmetry_equiv_pos_as_xyz
1 x,y,z
2 -x,y,1/2-z
3 1/2+x,1/2+y,z
4 1/2-x,1/2+y,1/2-z
5 -x,-y,-z
6 x,-y,1/2+z
7 1/2-x,1/2-y,-z
8 1/2+x,1/2-y,1/2+z
_cell_length_a                   29.703(4)
_cell_length_b                   5.1857(7)
_cell_length_c                   19.504(3)
_cell_angle_alpha                90
_cell_angle_beta                 109.106(4)
_cell_angle_gamma                90
_cell_volume                     2838.73
loop_
_atom_site_label
_atom_site_type_symbol
_atom_site_fract_x
_atom_site_fract_y
_atom_site_fract_z
Co1 Co 0.107689(10) 0.04693(6) 0.299943(15)
C1 C 0.14896(7) 0.3028(4) 0.46203(12)
C2 C 0.17523(8) 0.2800(5) 0.53606(13)
H1 H 0.1977 0.1492 0.5516
C3 C 0.16796(9) 0.4513(5) 0.58629(13)
H2 H 0.1855 0.4342 0.6352
C4 C 0.13457(9) 0.6479(5) 0.56353(14)
H3 H 0.1293 0.7610 0.5971
C5 C 0.10918(8) 0.6736(5) 0.49014(13)
H4 H 0.0875 0.8081 0.4752
C6 C 0.11519(7) 0.5030(4) 0.43768(12)
C7 C 0.08577(7) 0.5554(4) 0.35904(12)
C8 C 0.19819(8) -0.0266(5) 0.43399(13)
H5 H 0.1986 -0.1235 0.4767
H6 H 0.2266 0.0801 0.4466
C9 C 0.19833(8) -0.2130(4) 0.37332(13)
C10 C 0.07212(13) -0.1724(6) 0.14647(15)
H7 H 0.0957 -0.2950 0.1662
C11 C 0.04864(13) -0.1774(6) 0.07221(15)
H8 H 0.0571 -0.2998 0.0437
C12 C 0.01283(8) -0.0023(4) 0.04015(11)
C13 C 0.00279(10) 0.1691(7) 0.08673(15)
H9 H -0.0212 0.2905 0.0687
C14 C 0.02818(10) 0.1633(7) 0.16070(15)
H10 H 0.0203 0.2827 0.1905
N1 N 0.06288(7) -0.0026(4) 0.19095(10)
O1 O 0.07170(6) 0.7851(3) 0.34386(9)
O2 O 0.07508(6) 0.3748(3) 0.31312(9)
O3 O 0.15628(5) 0.1353(3) 0.41092(8)
O4 O 0.16302(5) -0.2148(3) 0.31429(9)
O5 O 0.23375(6) -0.3574(4) 0.38785(10)
O6 O 0.14998(7) 0.2915(4) 0.25262(11)
H11 H 0.1567(12) 0.439(7) 0.2710(19)
H12 H 0.1704(12) 0.226(7) 0.2472(18)
Co1D Co -0.107689(10) -0.04693(6) -0.299943(15)
Co1_2 Co 0.107689(10) 1.04693(6) 0.299943(15)
Co1D_2 Co -0.107689(10) -1.04693(6) -0.299943(15)
C1D C -0.14896(7) -0.3028(4) -0.46203(12)
C2D C -0.17523(8) -0.2800(5) -0.53606(13)
H1D H -0.1977 -0.1492 -0.5516
C3D C -0.16796(9) -0.4513(5) -0.58629(13)
H2D H -0.1855 -0.4342 -0.6352
C4D C -0.13457(9) -0.6479(5) -0.56353(14)
H3D H -0.1293 -0.7610 -0.5971
C5D C -0.10918(8) -0.6736(5) -0.49014(13)
H4D H -0.0875 -0.8081 -0.4752
C6D C -0.11519(7) -0.5030(4) -0.43768(12)
C7D C -0.08577(7) -0.5554(4) -0.35904(12)
C8D C -0.19819(8) 0.0266(5) -0.43399(13)
H5D H -0.1986 0.1235 -0.4767
H6D H -0.2266 -0.0801 -0.4466
C9D C -0.19833(8) 0.2130(4) -0.37332(13)
C10D C -0.07212(13) 0.1724(6) -0.14647(15)
H7D H -0.0957 0.2950 -0.1662
C11D C -0.04864(13) 0.1774(6) -0.07221(15)
H8D H -0.0571 0.2998 -0.0437
C12D C -0.01283(8) 0.0023(4) -0.04015(11)
C13D C -0.00279(10) -0.1691(7) -0.08673(15)
H9D H 0.0212 -0.2905 -0.0687
C14D C -0.02818(10) -0.1633(7) -0.16070(15)
H10D H -0.0203 -0.2827 -0.1905
N1D N -0.06288(7) 0.0026(4) -0.19095(10)
O1_2 O 0.07170(6) -0.2149(3) 0.34386(9)
O1D O -0.07170(6) 0.2149(3) -0.34386(9)
O1D_2 O -0.07170(6) -0.7851(3) -0.34386(9)
O2D O -0.07508(6) -0.3748(3) -0.31312(9)
O3D O -0.15628(5) -0.1353(3) -0.41092(8)
O4D O -0.16302(5) 0.2148(3) -0.31429(9)
O5D O -0.23375(6) 0.3574(4) -0.38785(10)
O6D O -0.14998(7) -0.2915(4) -0.25262(11)
H11D H -0.1567(12) -0.439(7) -0.2710(19)
H12D H -0.1704(12) -0.226(7) -0.2472(18)
O7 O 0.27060(8) 0.5689(5) 0.27764(14)
H13 H 0.2630(14) 0.431(8) 0.263(2)
H14 H 0.2614(12) 0.582(7) 0.3127(19)
loop_
_geom_bond_atom_site_label_1
_geom_bond_atom_site_label_2
_geom_bond_site_symmetry_1
_geom_bond_site_symmetry_2
Co1 N1 1_555 1_555
C1 C2 1_555 1_555
C2 H1 1_555 1_555
C3 C2 1_555 1_555
H2 C3 1_555 1_555
C4 C3 1_555 1_555
H3 C4 1_555 1_555
C5 C4 1_555 1_555
H4 C5 1_555 1_555
C6 C1 1_555 1_555
C7 C6 1_555 1_555
C8 H5 1_555 1_555
H6 C8 1_555 1_555
C9 C8 1_555 1_555
C10 H7 1_555 1_555
C11 C10 1_555 1_555
H8 C11 1_555 1_555
C12 C11 1_555 1_555
C13 C12 1_555 1_555
H9 C13 1_555 1_555
C14 C13 1_555 1_555
H10 C14 1_555 1_555
N1 C10 1_555 1_555
O1 C7 1_555 1_555
O2 Co1 1_555 1_555
O3 Co1 1_555 1_555
O4 Co1 1_555 1_555
O5 C9 1_555 1_555
O6 Co1 1_555 1_555
H11 O6 1_555 1_555
H12 O6 1_555 1_555
O7 H13 1_555 1_555
H14 O7 1_555 1_555
Co1D N1D 1_555 1_555
Co1_2 O1 1_555 1_555
Co1D_2 O1D_2 1_555 1_555
C1D C2D 1_555 1_555
C2D H1D 1_555 1_555
C3D C2D 1_555 1_555
H2D C3D 1_555 1_555
C4D C3D 1_555 1_555
H3D C4D 1_555 1_555
C5D C4D 1_555 1_555
H4D C5D 1_555 1_555
C6D C1D 1_555 1_555
C7D C6D 1_555 1_555
C8D H5D 1_555 1_555
H6D C8D 1_555 1_555
C9D C8D 1_555 1_555
C10D H7D 1_555 1_555
C11D C10D 1_555 1_555
H8D C11D 1_555 1_555
C12D C12 1_555 1_555
C13D C12D 1_555 1_555
H9D C13D 1_555 1_555
C14D C13D 1_555 1_555
H10D C14D 1_555 1_555
N1D C10D 1_555 1_555
O1_2 Co1 1_555 1_555
O1D Co1D 1_555 1_555
O1D_2 C7D 1_555 1_555
O2D Co1D 1_555 1_555
O3D Co1D 1_555 1_555
O4D Co1D 1_555 1_555
O5D C9D 1_555 1_555
O6D Co1D 1_555 1_555
H11D O6D 1_555 1_555
H12D O6D 1_555 1_555
C1 O3 1_555 1_555
C5 C6 1_555 1_555
C7 O2 1_555 1_555
C8 O3 1_555 1_555
C9 O4 1_555 1_555
C14 N1 1_555 1_555
C1D O3D 1_555 1_555
C5D C6D 1_555 1_555
C7D O2D 1_555 1_555
C8D O3D 1_555 1_555
C9D O4D 1_555 1_555
C11D C12D 1_555 1_555
C14D N1D 1_555 1_555

#END
