
#######################################################################
#
#                 Cambridge Crystallographic Data Centre
#                                CCDC 
#
#######################################################################
#
# If this CIF has been generated from an entry in the Cambridge 
# Structural Database, then it will include bibliographic, chemical, 
# crystal, experimental, refinement or atomic coordinate data resulting 
# from the CCDC's data processing and validation procedures.
#
#######################################################################

data_DAWSAX
_symmetry_cell_setting           monoclinic
_symmetry_space_group_name_H-M   'C 2/c'
_symmetry_Int_Tables_number      15
_space_group_name_Hall           '-C 2yn'
loop_
_symmetry_equiv_pos_site_id
_symmetry_equiv_pos_as_xyz
1 x,y,z
2 -x,y,1/2-z
3 1/2+x,1/2+y,z
4 1/2-x,1/2+y,1/2-z
5 -x,-y,-z
6 x,-y,1/2+z
7 1/2-x,1/2-y,-z
8 1/2+x,1/2-y,1/2+z
_cell_length_a                   29.479(3)
_cell_length_b                   5.1262(5)
_cell_length_c                   19.3570(17)
_cell_angle_alpha                90
_cell_angle_beta                 109.018(3)
_cell_angle_gamma                90
_cell_volume                     2765.47
loop_
_atom_site_label
_atom_site_type_symbol
_atom_site_fract_x
_atom_site_fract_y
_atom_site_fract_z
Zn1 Zn 0.106141(9) 0.03276(5) 0.297821(13)
C1 C 0.14948(7) 0.3009(4) 0.46268(11)
C2 C 0.17581(8) 0.2831(4) 0.53616(12)
H1 H 0.1987 0.1523 0.5524
C3 C 0.16829(10) 0.4584(5) 0.58549(13)
H2 H 0.1861 0.4449 0.6348
C4 C 0.13459(9) 0.6528(5) 0.56227(13)
H3 H 0.1292 0.7689 0.5957
C5 C 0.10891(8) 0.6736(4) 0.48902(12)
H4 H 0.0869 0.8088 0.4734
C6 C 0.11487(8) 0.4981(4) 0.43741(12)
C7 C 0.08495(8) 0.5416(4) 0.35929(12)
C8 C 0.19807(8) -0.0306(4) 0.43460(13)
H5 H 0.1988 -0.1281 0.4779
H6 H 0.2266 0.0772 0.4467
C9 C 0.19753(8) -0.2173(4) 0.37389(12)
C10 C 0.07236(12) -0.1801(6) 0.14485(14)
H7 H 0.0963 -0.3033 0.1641
C11 C 0.04893(12) -0.1812(6) 0.07079(14)
H8 H 0.0575 -0.3017 0.0413
C12 C 0.01272(8) -0.0046(4) 0.03997(12)
C13 C 0.00266(10) 0.1653(6) 0.08743(14)
H9 H -0.0216 0.2882 0.0700
C14 C 0.02808(10) 0.1557(7) 0.16058(14)
H10 H 0.0205 0.2755 0.1912
N1 N 0.06268(7) -0.0133(3) 0.19015(10)
O1 O 0.14957(7) 0.2880(4) 0.25107(11)
H11 H 0.1711(13) 0.239(7) 0.246(2)
H12 H 0.1559(13) 0.458(6) 0.2694(19)
O2 O 0.16210(6) -0.2193(3) 0.31567(8)
O3 O 0.23295(6) -0.3610(4) 0.38729(10)
O4 O 0.07470(6) 0.3538(3) 0.31565(8)
O5 O 0.06994(6) 0.7680(3) 0.34186(9)
O6 O 0.15624(5) 0.1311(3) 0.41192(8)
Zn1D Zn -0.106141(9) -0.03276(5) -0.297821(13)
Zn1_2 Zn 0.106141(9) 1.03276(5) 0.297821(13)
Zn1D_2 Zn -0.106141(9) -1.03276(5) -0.297821(13)
C1D C -0.14948(7) -0.3009(4) -0.46268(11)
C2D C -0.17581(8) -0.2831(4) -0.53616(12)
H1D H -0.1987 -0.1523 -0.5524
C3D C -0.16829(10) -0.4584(5) -0.58549(13)
H2D H -0.1861 -0.4449 -0.6348
C4D C -0.13459(9) -0.6528(5) -0.56227(13)
H3D H -0.1292 -0.7689 -0.5957
C5D C -0.10891(8) -0.6736(4) -0.48902(12)
H4D H -0.0869 -0.8088 -0.4734
C6D C -0.11487(8) -0.4981(4) -0.43741(12)
C7D C -0.08495(8) -0.5416(4) -0.35929(12)
C8D C -0.19807(8) 0.0306(4) -0.43460(13)
H5D H -0.1988 0.1281 -0.4779
H6D H -0.2266 -0.0772 -0.4467
C9D C -0.19753(8) 0.2173(4) -0.37389(12)
C10D C -0.07236(12) 0.1801(6) -0.14485(14)
H7D H -0.0963 0.3033 -0.1641
C11D C -0.04893(12) 0.1812(6) -0.07079(14)
H8D H -0.0575 0.3017 -0.0413
C12D C -0.01272(8) 0.0046(4) -0.03997(12)
C13D C -0.00266(10) -0.1653(6) -0.08743(14)
H9D H 0.0216 -0.2882 -0.0700
C14D C -0.02808(10) -0.1557(7) -0.16058(14)
H10D H -0.0205 -0.2755 -0.1912
N1D N -0.06268(7) 0.0133(3) -0.19015(10)
O1D O -0.14957(7) -0.2880(4) -0.25107(11)
H11D H -0.1711(13) -0.239(7) -0.246(2)
H12D H -0.1559(13) -0.458(6) -0.2694(19)
O2D O -0.16210(6) 0.2193(3) -0.31567(8)
O3D O -0.23295(6) 0.3610(4) -0.38729(10)
O4D O -0.07470(6) -0.3538(3) -0.31565(8)
O5_2 O 0.06994(6) -0.2320(3) 0.34186(9)
O5D O -0.06994(6) 0.2320(3) -0.34186(9)
O5D_2 O -0.06994(6) -0.7680(3) -0.34186(9)
O6D O -0.15624(5) -0.1311(3) -0.41192(8)
O7 O 0.27017(9) 0.5634(5) 0.27791(14)
H13 H 0.2600(14) 0.576(7) 0.307(2)
H14 H 0.2632(13) 0.417(7) 0.264(2)
loop_
_geom_bond_atom_site_label_1
_geom_bond_atom_site_label_2
_geom_bond_site_symmetry_1
_geom_bond_site_symmetry_2
Zn1 N1 1_555 1_555
C1 C2 1_555 1_555
C2 H1 1_555 1_555
C3 C2 1_555 1_555
H2 C3 1_555 1_555
C4 C3 1_555 1_555
H3 C4 1_555 1_555
C5 C4 1_555 1_555
H4 C5 1_555 1_555
C6 C1 1_555 1_555
C7 C6 1_555 1_555
C8 H5 1_555 1_555
H6 C8 1_555 1_555
C9 C8 1_555 1_555
C10 H7 1_555 1_555
C11 C10 1_555 1_555
H8 C11 1_555 1_555
C12 C11 1_555 1_555
C13 C12 1_555 1_555
H9 C13 1_555 1_555
C14 C13 1_555 1_555
H10 C14 1_555 1_555
N1 C10 1_555 1_555
O1 Zn1 1_555 1_555
H11 O1 1_555 1_555
H12 O1 1_555 1_555
O2 Zn1 1_555 1_555
O3 C9 1_555 1_555
O4 Zn1 1_555 1_555
O5 C7 1_555 1_555
O6 Zn1 1_555 1_555
O7 H13 1_555 1_555
H14 O7 1_555 1_555
Zn1D N1D 1_555 1_555
Zn1_2 O5 1_555 1_555
Zn1D_2 O5D_2 1_555 1_555
C1D C2D 1_555 1_555
C2D H1D 1_555 1_555
C3D C2D 1_555 1_555
H2D C3D 1_555 1_555
C4D C3D 1_555 1_555
H3D C4D 1_555 1_555
C5D C4D 1_555 1_555
H4D C5D 1_555 1_555
C6D C1D 1_555 1_555
C7D C6D 1_555 1_555
C8D H5D 1_555 1_555
H6D C8D 1_555 1_555
C9D C8D 1_555 1_555
C10D H7D 1_555 1_555
C11D C10D 1_555 1_555
H8D C11D 1_555 1_555
C12D C12 1_555 1_555
C13D C12D 1_555 1_555
H9D C13D 1_555 1_555
C14D C13D 1_555 1_555
H10D C14D 1_555 1_555
N1D C10D 1_555 1_555
O1D Zn1D 1_555 1_555
H11D O1D 1_555 1_555
H12D O1D 1_555 1_555
O2D Zn1D 1_555 1_555
O3D C9D 1_555 1_555
O4D Zn1D 1_555 1_555
O5_2 Zn1 1_555 1_555
O5D Zn1D 1_555 1_555
O5D_2 C7D 1_555 1_555
O6D Zn1D 1_555 1_555
C1 O6 1_555 1_555
C5 C6 1_555 1_555
C7 O4 1_555 1_555
C8 O6 1_555 1_555
C9 O2 1_555 1_555
C14 N1 1_555 1_555
C1D O6D 1_555 1_555
C5D C6D 1_555 1_555
C7D O4D 1_555 1_555
C8D O6D 1_555 1_555
C9D O2D 1_555 1_555
C11D C12D 1_555 1_555
C14D N1D 1_555 1_555

#END
