
#######################################################################
#
#                 Cambridge Crystallographic Data Centre
#                                CCDC 
#
#######################################################################
#
# If this CIF has been generated from an entry in the Cambridge 
# Structural Database, then it will include bibliographic, chemical, 
# crystal, experimental, refinement or atomic coordinate data resulting 
# from the CCDC's data processing and validation procedures.
#
#######################################################################

data_DAWSEB
_symmetry_cell_setting           monoclinic
_symmetry_space_group_name_H-M   'P 21'
_symmetry_Int_Tables_number      4
_space_group_name_Hall           'P 2yb'
loop_
_symmetry_equiv_pos_site_id
_symmetry_equiv_pos_as_xyz
1 x,y,z
2 -x,1/2+y,-z
_cell_length_a                   5.2040(11)
_cell_length_b                   9.634(2)
_cell_length_c                   9.777(2)
_cell_angle_alpha                90
_cell_angle_beta                 91.737(4)
_cell_angle_gamma                90
_cell_volume                     489.948
loop_
_atom_site_label
_atom_site_type_symbol
_atom_site_fract_x
_atom_site_fract_y
_atom_site_fract_z
Mn1 Mn 1.24439(5) 0.37758(3) 0.43979(3)
O1 O 1.1252(3) 0.21889(15) 0.26097(14)
O2 O 0.9259(3) 0.47692(14) 0.35052(15)
O3 O 0.5064(2) 0.47729(15) 0.30382(14)
O4 O 0.9911(3) 0.25904(15) 0.57398(15)
H1 H 0.8494 0.2392 0.5419
H2 H 1.0556 0.1831 0.5909
O5 O 1.6091(3) -0.01129(16) 0.38958(15)
O6 O 1.5049(3) 0.20436(14) 0.45125(14)
C1 C 0.7632(4) 0.34079(18) 0.15986(19)
C2 C 0.9544(4) 0.2379(2) 0.1503(2)
C3 C 0.9649(4) 0.1567(2) 0.0322(2)
H3 H 1.0877 0.0870 0.0270
C4 C 0.7947(4) 0.1789(3) -0.0770(2)
H4 H 0.8084 0.1263 -0.1562
C5 C 0.6034(4) 0.2789(2) -0.0694(2)
H5 H 0.4879 0.2932 -0.1425
C6 C 0.5882(4) 0.3570(2) 0.04952(19)
H6 H 0.4573 0.4222 0.0560
C7 C 0.7297(4) 0.4362(2) 0.28089(19)
C8 C 1.2787(4) 0.0945(2) 0.2613(2)
H7 H 1.3646 0.0866 0.1750
H8 H 1.1682 0.0142 0.2707
C9 C 1.4781(4) 0.0968(2) 0.3784(2)
Mn1_2 Mn 0.24439(5) 0.37758(3) 0.43979(3)
Mn1A Mn 1.75561(5) -0.12242(3) 0.56021(3)
O3_2 O 1.5064(2) 0.47729(15) 0.30382(14)
O5A O 1.3909(3) 0.48871(16) 0.61042(15)
loop_
_geom_bond_atom_site_label_1
_geom_bond_atom_site_label_2
_geom_bond_site_symmetry_1
_geom_bond_site_symmetry_2
Mn1 O1 1_555 1_555
O1 C2 1_555 1_555
O2 Mn1 1_555 1_555
O3 C7 1_555 1_555
O4 Mn1 1_555 1_555
H1 O4 1_555 1_555
H2 O4 1_555 1_555
O5 C9 1_555 1_555
O6 Mn1 1_555 1_555
C1 C2 1_555 1_555
C2 C3 1_555 1_555
C3 H3 1_555 1_555
C4 C3 1_555 1_555
H4 C4 1_555 1_555
C5 C4 1_555 1_555
H5 C5 1_555 1_555
C6 C1 1_555 1_555
H6 C6 1_555 1_555
C7 O2 1_555 1_555
C8 O1 1_555 1_555
H7 C8 1_555 1_555
H8 C8 1_555 1_555
C9 O6 1_555 1_555
Mn1_2 O3 1_555 1_555
Mn1A O5 1_555 1_555
O3_2 Mn1 1_555 1_555
O5A Mn1 1_555 1_555
C1 C7 1_555 1_555
C5 C6 1_555 1_555
C8 C9 1_555 1_555

#END
