
#######################################################################
#
#                 Cambridge Crystallographic Data Centre
#                                CCDC 
#
#######################################################################
#
# If this CIF has been generated from an entry in the Cambridge 
# Structural Database, then it will include bibliographic, chemical, 
# crystal, experimental, refinement or atomic coordinate data resulting 
# from the CCDC's data processing and validation procedures.
#
#######################################################################

data_DAWVOO
_symmetry_cell_setting           triclinic
_symmetry_space_group_name_H-M   'P -1'
_symmetry_Int_Tables_number      2
_space_group_name_Hall           '-P 1'
loop_
_symmetry_equiv_pos_site_id
_symmetry_equiv_pos_as_xyz
1 x,y,z
2 -x,-y,-z
_cell_length_a                   14.2938(27)
_cell_length_b                   14.8561(28)
_cell_length_c                   23.1087(44)
_cell_angle_alpha                92.7867(23)
_cell_angle_beta                 91.5679(23)
_cell_angle_gamma                109.8888(21)
_cell_volume                     4603.95
loop_
_atom_site_label
_atom_site_type_symbol
_atom_site_fract_x
_atom_site_fract_y
_atom_site_fract_z
W1 W 1.64475(11) 0.45195(12) -0.38685(8)
W2 W 1.54361(11) 0.63730(11) -0.36697(7)
W3 W 1.59585(11) 0.71236(10) -0.57388(7)
W4 W 1.40116(10) 0.68570(10) -0.47961(7)
W5 W 1.73970(10) 0.66432(10) -0.46098(8)
W6 W 1.30414(10) 0.47424(10) -0.40692(6)
W7 W 1.24802(10) 0.97295(10) -0.02758(6)
W8 W 1.33307(11) 0.94501(9) 0.11229(5)
W9 W 1.68395(10) 1.22814(8) 0.00089(6)
W10 W 1.43170(9) 1.20356(8) -0.02352(5)
W11 W 1.41686(9) 1.03448(9) -0.13930(5)
W12 W 1.52188(8) 1.17209(8) 0.11546(5)
Cu1 Cu 1.1456(2) 0.7703(2) 0.19256(14)
Cu2 Cu 1.0678(2) 0.4279(2) 0.02455(13)
Cu3 Cu 1.0788(2) 0.3212(2) -0.33905(13)
Cu4 Cu 1.1365(3) 1.0279(3) 0.40075(15)
Cu5 Cu 0.9624(3) 0.2038(3) 0.22981(17)
Cu6 Cu 1.5000 0.5000 0.0000
Cu7 Cu 1.0787(2) -0.0436(2) -0.46196(14)
Cu8 Cu 1.5000 1.0000 0.5000
Cu9 Cu 1.1282(2) 0.5189(3) -0.10525(14)
Si1 Si 1.5000 1.0000 0.0000
Si2 Si 1.5000 0.5000 -0.5000
N1 N 1.0432(17) 0.8073(17) 0.1484(10)
N2 N 1.1181(17) 0.6759(17) 0.1252(9)
N3 N 1.0935(17) 0.8773(17) 0.2994(10)
N4 N 1.1421(17) 0.8275(17) 0.2673(10)
C1 C 1.5571(12) 1.0382(15) 0.3757(9)
H1 H 1.6142 1.0230 0.3826
N5 N 1.2680(17) 0.7499(17) 0.2260(10)
N6 N 0.9855(17) 0.3425(17) 0.0812(10)
N7 N 1.3679(19) 1.018(2) 0.4983(11)
N8 N 0.9475(18) 0.2536(18) 0.1545(10)
N9 N 1.2988(19) 0.9892(19) 0.5357(11)
N10 N 1.0724(16) 0.5514(17) 0.0688(9)
N11 N 1.2189(18) 1.0007(18) 0.5104(10)
N12 N 1.1400(17) 0.9051(18) 0.3500(10)
N13 N 1.0542(16) 0.0923(17) 0.3654(10)
N14 N 1.0515(17) 0.3969(17) -0.2765(10)
N15 N 0.8549(18) 0.2609(18) 0.2502(10)
N16 N 1.0061(18) 0.2785(18) 0.1088(10)
N17 N 1.0105(16) 0.4878(16) -0.2127(9)
N18 N 0.9268(17) 0.1440(17) 0.3568(10)
N19 N 1.2204(16) 0.4823(16) -0.0564(9)
N20 N 0.9884(17) 0.3440(17) -0.4046(9)
N21 N 1.1069(16) 0.1426(17) -0.3961(10)
N22 N 1.0181(16) 0.6043(17) 0.0511(9)
N23 N 1.0746(16) 0.4553(17) -0.1836(9)
N24 N 0.9100(18) 0.3649(18) 0.1086(10)
N25 N 1.2357(18) 1.0324(18) 0.4573(11)
N26 N 0.9942(17) 0.4537(17) -0.2676(10)
N27 N 1.0788(17) 0.2176(17) -0.3944(9)
N28 N 1.2044(16) 0.4556(16) -0.0010(9)
N29 N 1.1349(16) 0.5958(17) 0.1134(9)
N30 N 1.1662(17) 0.2984(17) -0.2744(10)
N31 N 1.0662(16) 0.0882(17) -0.4389(9)
N32 N 1.0047(17) 0.1257(17) -0.4709(10)
N33 N 1.2208(17) 0.8788(18) 0.3533(10)
N34 N 1.3670(16) 0.4994(17) -0.0195(9)
N35 N 0.9869(18) 0.1738(18) 0.3090(10)
N36 N 1.3164(16) 0.5091(17) -0.0715(9)
N37 N 0.9745(16) 0.1036(16) 0.3882(9)
N38 N 1.4380(17) 0.4630(18) 0.0797(10)
C2 C 0.801(2) 0.257(2) 0.2966(13)
H2 H 0.8157 0.2255 0.3278
C3 C 0.751(2) 0.341(2) 0.2045(13)
H3 H 0.7299 0.3654 0.1719
C4 C 0.728(2) 0.293(2) 0.3027(13)
H4 H 0.6945 0.2869 0.3370
C5 C 0.703(2) 0.339(2) 0.2573(13)
H5 H 0.6559 0.3689 0.2617
C6 C 1.330(2) 0.718(2) 0.2012(13)
H6 H 1.3134 0.6941 0.1629
C7 C 1.415(2) 0.715(2) 0.2241(12)
H7 H 1.4519 0.6824 0.2053
C8 C 1.446(2) 0.764(2) 0.2778(12)
H8 H 1.5104 0.7744 0.2928
C9 C 1.383(2) 0.798(2) 0.3093(13)
H9 H 1.4000 0.8257 0.3468
C10 C 1.425(2) 0.427(2) 0.1791(13)
H10 H 1.4581 0.4217 0.2134
C11 C 1.338(2) 0.455(2) 0.0750(13)
C12 C 1.474(2) 0.445(2) 0.1284(12)
H11 H 1.5394 0.4446 0.1289
C13 C 1.322(2) 0.416(2) 0.1776(13)
H12 H 1.2836 0.3978 0.2099
C14 C 1.278(2) 0.434(2) 0.1234(13)
H13 H 1.2125 0.4321 0.1209
C15 C 0.828(2) 0.307(2) 0.2026(12)
C16 C 1.290(2) 0.788(2) 0.2810(12)
C17 C 0.922(2) 0.862(2) 0.0713(12)
H14 H 0.8833 0.8807 0.0442
C18 C 0.953(2) 0.786(2) 0.0606(12)
H15 H 0.9318 0.7491 0.0260
C19 C 1.014(2) 0.762(2) 0.0992(12)
C20 C 1.011(2) 0.882(2) 0.1637(12)
H16 H 1.0286 0.9156 0.1997
C21 C 0.949(2) 0.907(2) 0.1209(12)
H17 H 0.9270 0.9577 0.1303
C22 C 1.161(2) 0.344(2) -0.2231(12)
C23 C 1.216(2) 0.329(2) -0.1733(12)
H18 H 1.2120 0.3581 -0.1373
C24 C 1.220(2) 0.240(2) -0.2756(12)
H19 H 1.2192 0.2046 -0.3100
C25 C 1.276(2) 0.270(2) -0.1794(12)
H20 H 1.3131 0.2618 -0.1479
C26 C 1.277(2) 0.229(2) -0.2296(12)
H21 H 1.3173 0.1920 -0.2346
N39 N 1.4901(14) 1.0308(14) 0.4192(6)
C27 C 0.923(2) 0.289(2) -0.5010(12)
H22 H 0.9173 0.2482 -0.5340
C28 C 0.889(2) 0.362(2) -0.5006(12)
H23 H 0.8556 0.3690 -0.5343
C29 C 0.968(2) 0.276(2) -0.4496(12)
C30 C 0.958(2) 0.415(2) -0.4074(12)
H24 H 0.9747 0.4615 -0.3768
C31 C 0.898(2) 0.427(2) -0.4559(12)
H25 H 0.8690 0.4739 -0.4562
C32 C 1.4048(13) 1.0536(15) 0.4089(7)
C33 C 1.3864(13) 1.0838(16) 0.3551(9)
H26 H 1.3293 1.0990 0.3482
C34 C 1.4535(15) 1.0911(15) 0.3116(7)
H27 H 1.4412 1.1113 0.2756
C35 C 1.5388(14) 1.0683(16) 0.3219(7)
H28 H 1.5836 1.0733 0.2928
C36 C 1.047(2) 0.681(2) 0.0882(12)
C37 C 1.218(2) 0.831(2) 0.3037(12)
C38 C 1.331(2) 1.038(2) 0.4527(14)
C39 C 1.300(2) 0.470(2) 0.0180(11)
C40 C 1.017(2) 0.206(2) -0.4410(12)
C41 C 0.891(2) 0.307(2) 0.1540(13)
C42 C 1.099(2) 0.401(2) -0.2246(12)
C43 C 1.058(2) 0.130(2) 0.3123(12)
O1 O 0.8529(18) 0.045(2) 0.2043(11)
O2 O 1.518(3) 1.110(3) 0.0209(17)
O3 O 1.429(3) 1.041(3) -0.0376(17)
O4 O 1.473(3) 0.591(3) -0.522(2)
O5 O 1.379(3) 0.941(3) 0.0179(17)
O6 O 1.446(3) 0.552(3) -0.459(2)
O7 O 1.579(3) 0.547(3) -0.440(2)
O8 O 1.505(3) 0.984(3) -0.0670(16)
O9 O 1.404(3) 0.432(3) -0.467(2)
O10 O 1.5173(16) 0.3521(17) -0.3802(10)
O11 O 1.2554(15) 0.9181(15) 0.1659(9)
O12 O 1.6631(16) 0.6354(17) -0.6093(11)
O13 O 1.7707(15) 1.3356(15) -0.0010(8)
O14 O 1.4855(16) 0.7052(17) -0.4144(11)
O15 O 1.3969(15) 1.0751(15) 0.1291(9)
O16 O 1.5970(17) 0.5392(17) -0.3424(11)
O17 O 1.2518(16) 0.8526(15) -0.0335(9)
O18 O 1.4138(16) 0.5504(16) -0.3577(10)
O19 O 1.4310(15) 1.1521(15) -0.1002(9)
O20 O 1.5668(17) 0.6991(17) -0.3028(11)
O21 O 1.4163(15) 0.9067(15) -0.1472(9)
O22 O 1.4476(16) 1.2165(15) 0.0582(9)
O23 O 1.6418(17) 0.8125(16) -0.6118(11)
O24 O 1.1298(14) 0.9626(16) -0.0422(9)
O25 O 1.4057(15) 1.3002(15) -0.0335(8)
O26 O 1.6917(17) 0.7404(17) -0.5137(11)
O27 O 1.3809(17) 1.0542(17) -0.2066(10)
O28 O 1.8572(15) 0.7412(15) -0.4430(10)
O29 O 1.6616(16) 0.3706(17) -0.4523(11)
O30 O 1.2525(16) 0.9685(15) 0.0549(9)
O31 O 1.2151(16) 0.4590(17) -0.3610(10)
O32 O 1.5312(16) 1.2548(15) 0.1686(9)
O33 O 1.7140(16) 0.4292(17) -0.3348(10)
O34 O 1.3044(16) 0.5854(16) -0.4418(10)
O35 O 1.6384(15) 1.2307(15) 0.0764(9)
O36 O 1.6971(15) 1.1759(15) -0.0719(9)
O37 O 1.5080(16) 0.7479(17) -0.5195(11)
O38 O 1.2945(15) 0.9790(15) -0.1033(9)
O39 O 1.7330(16) 0.5507(16) -0.4214(11)
O40 O 1.3064(15) 1.1102(15) -0.0172(9)
O41 O 1.7698(16) 0.5974(17) -0.5292(10)
O42 O 1.5722(15) 1.2538(15) -0.0305(9)
O43 O 1.5550(15) 1.0777(15) -0.1488(9)
O44 O 1.6533(16) 0.6907(17) -0.4089(11)
O45 O 1.3580(18) 0.7764(18) -0.4753(12)
C44 C 1.2300(13) 0.1586(15) 0.1697(7)
H29 H 1.2669 0.1651 0.1367
C45 C 1.1400(13) 0.1751(14) 0.1682(6)
H30 H 1.1166 0.1927 0.1341
N40 N 1.0849(11) 0.1655(14) 0.2175(8)
C46 C 1.1198(13) 0.1393(15) 0.2685(6)
C47 C 1.2099(14) 0.1228(15) 0.2701(6)
H31 H 1.2332 0.1052 0.3042
C48 C 1.2650(11) 0.1324(15) 0.2207(8)
H32 H 1.3252 0.1214 0.2217
W1A W 1.35525(11) 0.54805(12) -0.61315(8)
W2A W 1.45639(11) 0.36270(11) -0.63303(7)
W3A W 1.40415(11) 0.28764(10) -0.42612(7)
W4A W 1.59884(10) 0.31430(10) -0.52039(7)
W5A W 1.26030(10) 0.33568(10) -0.53902(8)
W6A W 1.69586(10) 0.52576(10) -0.59308(6)
W7A W 1.75198(10) 1.02705(10) 0.02758(6)
W8A W 1.66693(11) 1.05499(9) -0.11229(5)
W9A W 1.31605(10) 0.77186(8) -0.00089(6)
W10A W 1.56830(9) 0.79644(8) 0.02352(5)
W11A W 1.58314(9) 0.96552(9) 0.13930(5)
W12A W 1.47812(8) 0.82791(8) -0.11546(5)
Cu1A Cu 0.8544(2) 0.2297(2) -0.19256(14)
Cu1A_2 Cu 1.8544(2) 1.2297(2) -0.19256(14)
Cu2A Cu 1.9322(2) 0.5721(2) -0.02455(13)
Cu2A_2 Cu 0.9322(2) 0.5721(2) -0.02455(13)
Cu3A Cu 1.9212(2) 0.6788(2) 0.33905(13)
Cu3A_2 Cu 1.9212(2) 0.6788(2) -0.66095(13)
Cu4A Cu 0.8635(3) -0.0279(3) -0.40075(15)
Cu4_2 Cu 1.1365(3) 0.0279(3) 0.40075(15)
Cu4A_2 Cu 0.8635(3) 0.9721(3) -0.40075(15)
Cu4_3 Cu 1.1365(3) 0.0279(3) -0.59925(15)
Cu5A Cu 1.0376(3) 0.7962(3) -0.22981(17)
Cu7A Cu 1.9213(2) 1.0436(2) 0.46196(14)
Cu7_2 Cu 1.0787(2) 0.9564(2) 0.53804(14)
Cu7A_2 Cu 0.9213(2) 0.0436(2) -0.53804(14)
Cu7A_3 Cu 0.9213(2) 0.0436(2) 0.46196(14)
Cu7_3 Cu 2.0787(2) 0.9564(2) 0.53804(14)
Cu7_4 Cu 1.0787(2) 0.9564(2) -0.46196(14)
Cu8_2 Cu 1.5000 0.0000 -0.5000
Cu9A Cu 1.8718(2) 0.4811(3) 0.10525(14)
Cu9A_2 Cu 0.8718(2) 0.4811(3) 0.10525(14)
N1A N 0.9568(17) 0.1927(17) -0.1484(10)
N2A N 0.8819(17) 0.3241(17) -0.1252(9)
N3A N 0.9065(17) 0.1227(17) -0.2994(10)
N4A N 0.8579(17) 0.1725(17) -0.2673(10)
C1_2 C 1.5571(12) 0.0382(15) -0.6243(9)
H1_2 H 1.6142 0.0230 -0.6174
N5A N 0.7320(17) 0.2501(17) -0.2260(10)
N6A N 1.0145(17) 0.6575(17) -0.0812(10)
N6A_2 N 2.0145(17) 0.6575(17) -0.0812(10)
N7_2 N 1.3679(19) 0.018(2) -0.5017(11)
N7A N 1.6321(19) 0.982(2) 0.5017(11)
N8A N 1.0525(18) 0.7464(18) -0.1545(10)
N9_2 N 1.2988(19) -0.0108(19) -0.4643(11)
N10A N 0.9276(16) 0.4486(17) -0.0688(9)
N10A_2 N 1.9276(16) 0.4486(17) -0.0688(9)
N11_2 N 1.2189(18) 0.0007(18) -0.4896(10)
N11A N 1.7811(18) 0.9993(18) 0.4896(10)
N12A N 0.8600(17) 0.0949(18) -0.3500(10)
N13A N 0.9458(16) 0.9077(17) -0.3654(10)
N13_2 N 1.0542(16) 1.0923(17) 0.3654(10)
N13A_2 N 0.9458(16) -0.0923(17) -0.3654(10)
N14A N 1.9485(17) 0.6031(17) 0.2765(10)
N15A N 1.1451(18) 0.7391(18) -0.2502(10)
N16A N 0.9939(18) 0.7215(18) -0.1088(10)
N17A N 1.9895(16) 0.5122(16) 0.2127(9)
N18A N 1.0732(17) 0.8560(17) -0.3568(10)
N19A N 1.7796(16) 0.5177(16) 0.0564(9)
N20A N 2.0116(17) 0.6560(17) 0.4046(9)
N21A N 1.8931(16) 0.8574(17) 0.3961(10)
N22A N 0.9819(16) 0.3957(17) -0.0511(9)
N22_2 N 2.0181(16) 0.6043(17) 0.0511(9)
N23A N 1.9254(16) 0.5447(17) 0.1836(9)
N24A N 1.0900(18) 0.6351(18) -0.1086(10)
N24_2 N 1.9100(18) 0.3649(18) 0.1086(10)
N25_2 N 1.2357(18) 0.0324(18) -0.5427(11)
N25A N 0.7643(18) -0.0324(18) -0.4573(11)
N26A N 2.0058(17) 0.5463(17) 0.2676(10)
N27A N 1.9212(17) 0.7824(17) 0.3944(9)
N28A N 1.7956(16) 0.5444(16) 0.0010(9)
N29A N 0.8651(16) 0.4042(17) -0.1134(9)
N30A N 1.8338(17) 0.7016(17) 0.2744(10)
N31A N 1.9338(16) 0.9118(17) 0.4389(9)
N32A N 1.9953(17) 0.8743(17) 0.4709(10)
N32A_2 N 0.9953(17) -0.1257(17) -0.5291(10)
N32_2 N 2.0047(17) 1.1257(17) 0.5291(10)
N33A N 0.7792(17) 0.1212(18) -0.3533(10)
N34A N 1.6330(16) 0.5006(17) 0.0195(9)
N35A N 1.0131(18) 0.8262(18) -0.3090(10)
N36A N 1.6836(16) 0.4909(17) 0.0715(9)
N37A N 1.0255(16) 0.8964(16) -0.3882(9)
N37A_2 N 1.0255(16) -0.1036(16) -0.3882(9)
N37_2 N 1.9745(16) 1.1036(16) 0.3882(9)
N38A N 1.5620(17) 0.5370(18) -0.0797(10)
C2A C 1.199(2) 0.743(2) -0.2966(13)
H2A H 1.1843 0.7745 -0.3278
C3A C 1.249(2) 0.659(2) -0.2045(13)
H3A H 1.2701 0.6346 -0.1719
C4A C 1.272(2) 0.707(2) -0.3027(13)
H4A H 1.3055 0.7131 -0.3370
C5A C 1.297(2) 0.661(2) -0.2573(13)
H5A H 1.3441 0.6311 -0.2617
C6A C 0.670(2) 0.282(2) -0.2012(13)
H6A H 0.6866 0.3059 -0.1629
C7A C 0.585(2) 0.285(2) -0.2241(12)
H7A H 0.5481 0.3176 -0.2053
C8A C 0.554(2) 0.236(2) -0.2778(12)
H8A H 0.4896 0.2256 -0.2928
C9A C 0.617(2) 0.202(2) -0.3093(13)
H9A H 0.6000 0.1743 -0.3468
C10A C 1.575(2) 0.573(2) -0.1791(13)
H10A H 1.5419 0.5783 -0.2134
C11A C 1.662(2) 0.545(2) -0.0750(13)
C12A C 1.526(2) 0.555(2) -0.1284(12)
H11A H 1.4606 0.5554 -0.1289
C13A C 1.678(2) 0.584(2) -0.1776(13)
H12A H 1.7164 0.6022 -0.2099
C14A C 1.722(2) 0.566(2) -0.1234(13)
H13A H 1.7875 0.5679 -0.1209
C15A C 1.172(2) 0.693(2) -0.2026(12)
C16A C 0.710(2) 0.212(2) -0.2810(12)
C17A C 1.078(2) 0.138(2) -0.0713(12)
H14A H 1.1167 0.1193 -0.0442
C18A C 1.047(2) 0.214(2) -0.0606(12)
H15A H 1.0682 0.2509 -0.0260
C19A C 0.986(2) 0.238(2) -0.0992(12)
C20A C 0.989(2) 0.118(2) -0.1637(12)
H16A H 0.9714 0.0844 -0.1997
C21A C 1.051(2) 0.093(2) -0.1209(12)
H17A H 1.0730 0.0423 -0.1303
C22A C 1.839(2) 0.656(2) 0.2231(12)
C23A C 1.784(2) 0.671(2) 0.1733(12)
H18A H 1.7880 0.6419 0.1373
C24A C 1.780(2) 0.760(2) 0.2756(12)
H19A H 1.7808 0.7954 0.3100
C25A C 1.724(2) 0.730(2) 0.1794(12)
H20A H 1.6869 0.7382 0.1479
C26A C 1.723(2) 0.771(2) 0.2296(12)
H21A H 1.6827 0.8080 0.2346
N39_2 N 1.4901(14) 0.0308(14) -0.5808(6)
N39A N 1.5099(14) 0.9692(14) 0.5808(6)
C27A C 2.077(2) 0.711(2) 0.5010(12)
H22A H 2.0827 0.7518 0.5340
C28A C 2.111(2) 0.638(2) 0.5006(12)
H23A H 2.1444 0.6310 0.5343
C29A C 2.032(2) 0.724(2) 0.4496(12)
C30A C 2.042(2) 0.585(2) 0.4074(12)
H24A H 2.0253 0.5385 0.3768
C31A C 2.102(2) 0.573(2) 0.4559(12)
H25A H 2.1310 0.5261 0.4562
C32_2 C 1.4048(13) 0.0536(15) -0.5911(7)
C33_2 C 1.3864(13) 0.0838(16) -0.6449(9)
H26_2 H 1.3293 0.0990 -0.6518
C34_2 C 1.4535(15) 0.0911(15) -0.6884(7)
H27_2 H 1.4412 0.1113 -0.7244
C35_2 C 1.5388(14) 0.0683(16) -0.6781(7)
H28_2 H 1.5836 0.0733 -0.7072
C36A C 0.953(2) 0.319(2) -0.0882(12)
C37A C 0.782(2) 0.169(2) -0.3037(12)
C38_2 C 1.331(2) 0.038(2) -0.5473(14)
C39A C 1.700(2) 0.530(2) -0.0180(11)
C40A C 1.983(2) 0.794(2) 0.4410(12)
C41A C 1.109(2) 0.693(2) -0.1540(13)
C42A C 1.901(2) 0.599(2) 0.2246(12)
C43A C 0.942(2) 0.870(2) -0.3123(12)
O1A O 1.1471(18) 0.955(2) -0.2043(11)
O2A O 1.482(3) 0.890(3) -0.0209(17)
O3A O 1.571(3) 0.959(3) 0.0376(17)
O4A O 1.527(3) 0.409(3) -0.478(2)
O5A O 1.621(3) 1.059(3) -0.0179(17)
O6A O 1.554(3) 0.448(3) -0.541(2)
O7A O 1.421(3) 0.453(3) -0.560(2)
O8A O 1.495(3) 1.016(3) 0.0670(16)
O9A O 1.596(3) 0.568(3) -0.533(2)
O10A O 1.4827(16) 0.6479(17) -0.6198(10)
O11A O 1.7446(15) 1.0819(15) -0.1659(9)
O11A_2 O 0.7446(15) 0.0819(15) -0.1659(9)
O12A O 1.3369(16) 0.3646(17) -0.3907(11)
O13A O 1.2293(15) 0.6644(15) 0.0010(8)
O14A O 1.5145(16) 0.2948(17) -0.5856(11)
O15A O 1.6031(15) 0.9249(15) -0.1291(9)
O16A O 1.4030(17) 0.4608(17) -0.6576(11)
O17A O 1.7482(16) 1.1474(15) 0.0335(9)
O18A O 1.5862(16) 0.4496(16) -0.6423(10)
O19A O 1.5690(15) 0.8479(15) 0.1002(9)
O20A O 1.4332(17) 0.3009(17) -0.6972(11)
O21A O 1.5837(15) 1.0933(15) 0.1472(9)
O22A O 1.5524(16) 0.7835(15) -0.0582(9)
O23A O 1.3582(17) 0.1875(16) -0.3882(11)
O24A O 1.8702(14) 1.0374(16) 0.0422(9)
O25A O 1.5943(15) 0.6998(15) 0.0335(8)
O26A O 1.3083(17) 0.2596(17) -0.4863(11)
O27A O 1.6191(17) 0.9458(17) 0.2066(10)
O28A O 1.1428(15) 0.2588(15) -0.5570(10)
O29A O 1.3384(16) 0.6294(17) -0.5477(11)
O30A O 1.7475(16) 1.0315(15) -0.0549(9)
O31A O 1.7849(16) 0.5410(17) -0.6390(10)
O31A_2 O 1.7849(16) 0.5410(17) 0.3610(10)
O32A O 1.4688(16) 0.7452(15) -0.1686(9)
O33A O 1.2860(16) 0.5708(17) -0.6652(10)
O34A O 1.6956(16) 0.4146(16) -0.5582(10)
O35A O 1.3616(15) 0.7693(15) -0.0764(9)
O36A O 1.3029(15) 0.8241(15) 0.0719(9)
O37A O 1.4920(16) 0.2521(17) -0.4805(11)
O38A O 1.7055(15) 1.0210(15) 0.1033(9)
O39A O 1.2670(16) 0.4493(16) -0.5786(11)
O40A O 1.6936(15) 0.8898(15) 0.0172(9)
O41A O 1.2302(16) 0.4026(17) -0.4708(10)
O42A O 1.4278(15) 0.7462(15) 0.0305(9)
O43A O 1.4450(15) 0.9223(15) 0.1488(9)
O44A O 1.3467(16) 0.3093(17) -0.5911(11)
O45A O 1.6420(18) 0.2236(18) -0.5247(12)
C44A C 0.7700(13) 0.8414(15) -0.1697(7)
H29A H 0.7331 0.8349 -0.1367
C45A C 0.8600(13) 0.8249(14) -0.1682(6)
H30A H 0.8834 0.8073 -0.1341
N40A N 0.9151(11) 0.8345(14) -0.2175(8)
C46A C 0.8802(13) 0.8607(15) -0.2685(6)
C47A C 0.7901(14) 0.8772(15) -0.2701(6)
H31A H 0.7668 0.8948 -0.3042
C48A C 0.7350(11) 0.8676(15) -0.2207(8)
H32A H 0.6748 0.8786 -0.2217
loop_
_geom_bond_atom_site_label_1
_geom_bond_atom_site_label_2
_geom_bond_site_symmetry_1
_geom_bond_site_symmetry_2
W1 O7 1_555 1_555
W2 O7 1_555 1_555
W3 O4 1_555 1_555
W4 O4 1_555 1_555
W5 O7 1_555 1_555
W6 O6 1_555 1_555
W7 O3 1_555 1_555
W8 O5 1_555 1_555
W9 O2 1_555 1_555
W10 O2 1_555 1_555
W11 O3 1_555 1_555
W12 O2 1_555 1_555
Cu1 N1 1_555 1_555
Cu2 N6 1_555 1_555
Cu3 N14 1_555 1_555
Cu4 N12 1_555 1_555
Cu5 N8 1_555 1_555
Cu6 N34 1_555 1_555
Cu7 N31 1_555 1_555
Cu8 N7 1_555 1_555
Cu9 N19 1_555 1_555
Si1 O2 1_555 1_555
Si2 O4 1_555 1_555
N1 C19 1_555 1_555
N2 Cu1 1_555 1_555
N3 N4 1_555 1_555
N4 Cu1 1_555 1_555
C1 H1 1_555 1_555
N5 Cu1 1_555 1_555
N6 N16 1_555 1_555
N7 N9 1_555 1_555
N8 N16 1_555 1_555
N9 N11 1_555 1_555
N10 Cu2 1_555 1_555
N11 N25 1_555 1_555
N12 N3 1_555 1_555
N13 N37 1_555 1_555
N14 N26 1_555 1_555
N15 Cu5 1_555 1_555
N17 N23 1_555 1_555
N18 N35 1_555 1_555
N19 N28 1_555 1_555
N20 Cu3 1_555 1_555
N21 N27 1_555 1_555
N22 N10 1_555 1_555
N23 Cu9 1_555 1_555
N24 N6 1_555 1_555
N25 Cu4 1_555 1_555
N26 N17 1_555 1_555
N27 Cu3 1_555 1_555
N28 Cu2 1_555 1_555
N29 N2 1_555 1_555
N30 Cu3 1_555 1_555
N31 N21 1_555 1_555
N32 N31 1_555 1_555
N33 N12 1_555 1_555
N34 N36 1_555 1_555
N35 Cu5 1_555 1_555
N36 N19 1_555 1_555
N37 N18 1_555 1_555
N38 Cu6 1_555 1_555
C2 N15 1_555 1_555
H2 C2 1_555 1_555
C3 H3 1_555 1_555
C4 C2 1_555 1_555
H4 C4 1_555 1_555
C5 C3 1_555 1_555
H5 C5 1_555 1_555
C6 N5 1_555 1_555
H6 C6 1_555 1_555
C7 C6 1_555 1_555
H7 C7 1_555 1_555
C8 C7 1_555 1_555
H8 C8 1_555 1_555
C9 C8 1_555 1_555
H9 C9 1_555 1_555
C10 H10 1_555 1_555
C11 N38 1_555 1_555
C12 N38 1_555 1_555
H11 C12 1_555 1_555
C13 C10 1_555 1_555
H12 C13 1_555 1_555
C14 C11 1_555 1_555
H13 C14 1_555 1_555
C15 N15 1_555 1_555
C16 N5 1_555 1_555
C17 H14 1_555 1_555
C18 C17 1_555 1_555
H15 C18 1_555 1_555
C19 C18 1_555 1_555
C20 N1 1_555 1_555
H16 C20 1_555 1_555
C21 C17 1_555 1_555
H17 C21 1_555 1_555
C22 N30 1_555 1_555
C23 C22 1_555 1_555
H18 C23 1_555 1_555
C24 N30 1_555 1_555
H19 C24 1_555 1_555
C25 C23 1_555 1_555
H20 C25 1_555 1_555
C26 C24 1_555 1_555
H21 C26 1_555 1_555
N39 Cu8 1_555 1_555
C27 H22 1_555 1_555
C28 C27 1_555 1_555
H23 C28 1_555 1_555
C29 N20 1_555 1_555
C30 N20 1_555 1_555
H24 C30 1_555 1_555
C31 C28 1_555 1_555
H25 C31 1_555 1_555
C32 N39 1_555 1_555
C33 C32 1_555 1_555
H26 C33 1_555 1_555
C34 C33 1_555 1_555
H27 C34 1_555 1_555
C35 C1 1_555 1_555
H28 C35 1_555 1_555
C36 N2 1_555 1_555
C37 N4 1_555 1_555
C38 N7 1_555 1_555
C39 N28 1_555 1_555
C40 N27 1_555 1_555
C41 N8 1_555 1_555
C42 N14 1_555 1_555
C43 N13 1_555 1_555
O1 Cu5 1_555 1_555
O3 W10 1_555 1_555
O5 W7 1_555 1_555
O6 W4 1_555 1_555
O7 Si2 1_555 1_555
O8 W11 1_555 1_555
O9 W6 1_555 1_555
O10 W1 1_555 1_555
O11 W8 1_555 1_555
O12 W3 1_555 1_555
O13 W9 1_555 1_555
O14 W2 1_555 1_555
O15 W8 1_555 1_555
O16 W1 1_555 1_555
O17 W7 1_555 1_555
O18 W2 1_555 1_555
O19 W10 1_555 1_555
O20 W2 1_555 1_555
O21 W11 1_555 1_555
O22 W10 1_555 1_555
O23 W3 1_555 1_555
O24 W7 1_555 1_555
O25 W10 1_555 1_555
O26 W3 1_555 1_555
O27 W11 1_555 1_555
O28 W5 1_555 1_555
O29 W1 1_555 1_555
O30 W7 1_555 1_555
O31 W6 1_555 1_555
O32 W12 1_555 1_555
O33 W1 1_555 1_555
O34 W4 1_555 1_555
O35 W9 1_555 1_555
O36 W9 1_555 1_555
O37 W3 1_555 1_555
O38 W7 1_555 1_555
O39 W1 1_555 1_555
O40 W7 1_555 1_555
O41 W5 1_555 1_555
O42 W9 1_555 1_555
O43 W11 1_555 1_555
O44 W2 1_555 1_555
O45 W4 1_555 1_555
C44 H29 1_555 1_555
C45 C44 1_555 1_555
H30 C45 1_555 1_555
N40 Cu5 1_555 1_555
C46 C43 1_555 1_555
C47 C46 1_555 1_555
H31 C47 1_555 1_555
C48 C44 1_555 1_555
H32 C48 1_555 1_555
W1A O7A 1_555 1_555
W2A O7A 1_555 1_555
W3A O9 1_555 1_555
W4A O29 1_555 1_555
W5A O7A 1_555 1_555
W6A O12 1_555 1_555
W7A O3A 1_555 1_555
W8A O8 1_555 1_555
W9A O5 1_555 1_555
W10A O2A 1_555 1_555
W11A O3A 1_555 1_555
W12A O8 1_555 1_555
Cu1A N1A 1_555 1_555
Cu1A_2 O11A 1_555 1_555
Cu2A N6A_2 1_555 1_555
Cu2A_2 N22 1_555 1_555
Cu3A N14A 1_555 1_555
Cu3A_2 O31A 1_555 1_555
Cu4A N12A 1_555 1_555
Cu4_2 N13 1_555 1_555
Cu4A_2 N13A 1_555 1_555
Cu4_3 N25_2 1_555 1_555
Cu5A N8A 1_555 1_555
Cu7A N11A 1_555 1_555
Cu7_2 N11 1_555 1_555
Cu7A_2 N32 1_555 1_555
Cu7A_3 N37 1_555 1_555
Cu7_3 N32A 1_555 1_555
Cu7_4 N37A 1_555 1_555
Cu8_2 N7_2 1_555 1_555
Cu9A N19A 1_555 1_555
Cu9A_2 N24 1_555 1_555
N1A C19A 1_555 1_555
N2A Cu1A 1_555 1_555
N3A N4A 1_555 1_555
N4A Cu1A 1_555 1_555
C1_2 H1_2 1_555 1_555
N5A Cu1A 1_555 1_555
N6A Cu2A_2 1_555 1_555
N7_2 N9_2 1_555 1_555
N7A Cu8 1_555 1_555
N8A N16A 1_555 1_555
N9_2 N11_2 1_555 1_555
N10A Cu2A_2 1_555 1_555
N10A_2 Cu2A 1_555 1_555
N11_2 Cu7 1_555 1_555
N12A N3A 1_555 1_555
N13A N37A 1_555 1_555
N13_2 Cu4 1_555 1_555
N13A_2 Cu4A 1_555 1_555
N14A N26A 1_555 1_555
N15A Cu5A 1_555 1_555
N16A N6A 1_555 1_555
N17A N23A 1_555 1_555
N18A N35A 1_555 1_555
N19A N28A 1_555 1_555
N20A Cu3A 1_555 1_555
N21A N27A 1_555 1_555
N22A Cu2 1_555 1_555
N22_2 Cu2A 1_555 1_555
N23A Cu9A 1_555 1_555
N24A Cu9 1_555 1_555
N24_2 Cu9A 1_555 1_555
N25_2 N11_2 1_555 1_555
N25A Cu4A 1_555 1_555
N26A N17A 1_555 1_555
N27A Cu3A 1_555 1_555
N28A Cu2A 1_555 1_555
N29A N2A 1_555 1_555
N30A Cu3A 1_555 1_555
N31A Cu7A 1_555 1_555
N32A N31A 1_555 1_555
N32A_2 Cu7 1_555 1_555
N32_2 Cu7A 1_555 1_555
N33A N12A 1_555 1_555
N34A Cu6 1_555 1_555
N35A Cu5A 1_555 1_555
N36A N19A 1_555 1_555
N37A N18A 1_555 1_555
N37A_2 Cu7 1_555 1_555
N37_2 Cu7A 1_555 1_555
N38A Cu6 1_555 1_555
C2A N15A 1_555 1_555
H2A C2A 1_555 1_555
C3A H3A 1_555 1_555
C4A C2A 1_555 1_555
H4A C4A 1_555 1_555
C5A C3A 1_555 1_555
H5A C5A 1_555 1_555
C6A N5A 1_555 1_555
H6A C6A 1_555 1_555
C7A C6A 1_555 1_555
H7A C7A 1_555 1_555
C8A C7A 1_555 1_555
H8A C8A 1_555 1_555
C9A C8A 1_555 1_555
H9A C9A 1_555 1_555
C10A H10A 1_555 1_555
C11A N38A 1_555 1_555
C12A N38A 1_555 1_555
H11A C12A 1_555 1_555
C13A C10A 1_555 1_555
H12A C13A 1_555 1_555
C14A C11A 1_555 1_555
H13A C14A 1_555 1_555
C15A N15A 1_555 1_555
C16A N5A 1_555 1_555
C17A H14A 1_555 1_555
C18A C17A 1_555 1_555
H15A C18A 1_555 1_555
C19A C18A 1_555 1_555
C20A N1A 1_555 1_555
H16A C20A 1_555 1_555
C21A C17A 1_555 1_555
H17A C21A 1_555 1_555
C22A N30A 1_555 1_555
C23A C22A 1_555 1_555
H18A C23A 1_555 1_555
C24A N30A 1_555 1_555
H19A C24A 1_555 1_555
C25A C23A 1_555 1_555
H20A C25A 1_555 1_555
C26A C24A 1_555 1_555
H21A C26A 1_555 1_555
N39_2 Cu8_2 1_555 1_555
N39A Cu8 1_555 1_555
C27A H22A 1_555 1_555
C28A C27A 1_555 1_555
H23A C28A 1_555 1_555
C29A N20A 1_555 1_555
C30A N20A 1_555 1_555
H24A C30A 1_555 1_555
C31A C28A 1_555 1_555
H25A C31A 1_555 1_555
C32_2 N39_2 1_555 1_555
C33_2 C32_2 1_555 1_555
H26_2 C33_2 1_555 1_555
C34_2 C33_2 1_555 1_555
H27_2 C34_2 1_555 1_555
C35_2 C1_2 1_555 1_555
H28_2 C35_2 1_555 1_555
C36A N2A 1_555 1_555
C37A N4A 1_555 1_555
C38_2 N7_2 1_555 1_555
C39A N28A 1_555 1_555
C40A N27A 1_555 1_555
C41A N8A 1_555 1_555
C42A N14A 1_555 1_555
C43A N13A 1_555 1_555
O1A Cu5A 1_555 1_555
O2A Si1 1_555 1_555
O3A Si1 1_555 1_555
O4A Si2 1_555 1_555
O5A W9 1_555 1_555
O6A Si2 1_555 1_555
O7A Si2 1_555 1_555
O8A W8 1_555 1_555
O9A W3 1_555 1_555
O10A W3 1_555 1_555
O11A W8A 1_555 1_555
O11A_2 Cu1A 1_555 1_555
O12A W6 1_555 1_555
O13A W9A 1_555 1_555
O14A W2A 1_555 1_555
O15A W8A 1_555 1_555
O16A W1A 1_555 1_555
O17A W9 1_555 1_555
O18A W2A 1_555 1_555
O19A W10A 1_555 1_555
O20A W2A 1_555 1_555
O21A W12 1_555 1_555
O22A W10A 1_555 1_555
O23A W3A 1_555 1_555
O24A W7A 1_555 1_555
O25A W10A 1_555 1_555
O26A W3A 1_555 1_555
O27A W11A 1_555 1_555
O28A W5A 1_555 1_555
O29A W4 1_555 1_555
O30A W7A 1_555 1_555
O31A W6A 1_555 1_555
O31A_2 Cu3A 1_555 1_555
O32A W12A 1_555 1_555
O33A W1A 1_555 1_555
O34A W4A 1_555 1_555
O35A W9A 1_555 1_555
O36A W8 1_555 1_555
O37A W3A 1_555 1_555
O38A W7A 1_555 1_555
O39A W1A 1_555 1_555
O40A W7A 1_555 1_555
O41A W6 1_555 1_555
O42A W9A 1_555 1_555
O43A W8 1_555 1_555
O44A W2A 1_555 1_555
O45A W4A 1_555 1_555
C44A H29A 1_555 1_555
C45A C44A 1_555 1_555
H30A C45A 1_555 1_555
N40A Cu5A 1_555 1_555
C46A C43A 1_555 1_555
C47A C46A 1_555 1_555
H31A C47A 1_555 1_555
C48A C44A 1_555 1_555
H32A C48A 1_555 1_555
W2 O16 1_555 1_555
W4 O14 1_555 1_555
W4 O37 1_555 1_555
W5 O26 1_555 1_555
W5 O39 1_555 1_555
W5 O44 1_555 1_555
W6 O18 1_555 1_555
W6 O34 1_555 1_555
W8 O30 1_555 1_555
W10 O40 1_555 1_555
W10 O42 1_555 1_555
W11 O19 1_555 1_555
W11 O38 1_555 1_555
W12 O15 1_555 1_555
W12 O22 1_555 1_555
W12 O35 1_555 1_555
W12 O8A 1_555 1_555
Cu1 O11 1_555 1_555
Cu3 O31 1_555 1_555
Si1 O3 1_555 1_555
Si1 O5 1_555 1_555
Si1 O8 1_555 1_555
Si1 O5A 1_555 1_555
Si1 O8A 1_555 1_555
Si2 O6 1_555 1_555
Si2 O9 1_555 1_555
Si2 O9A 1_555 1_555
C1 N39 1_555 1_555
N10 N29 1_555 1_555
N22 C36 1_555 1_555
N23 C42 1_555 1_555
N24 C41 1_555 1_555
N25 C38 1_555 1_555
N32 C40 1_555 1_555
N33 C37 1_555 1_555
N34 C39 1_555 1_555
N35 C43 1_555 1_555
C3 C15 1_555 1_555
C4 C5 1_555 1_555
C9 C16 1_555 1_555
C10 C12 1_555 1_555
C11 C39 1_555 1_555
C13 C14 1_555 1_555
C15 C41 1_555 1_555
C16 C37 1_555 1_555
C19 C36 1_555 1_555
C20 C21 1_555 1_555
C22 C42 1_555 1_555
C25 C26 1_555 1_555
C27 C29 1_555 1_555
C29 C40 1_555 1_555
C30 C31 1_555 1_555
C32 C38 1_555 1_555
C34 C35 1_555 1_555
O10 W3A 1_555 1_555
O17 W9A 1_555 1_555
O21 W12A 1_555 1_555
O36 W8A 1_555 1_555
O41 W6A 1_555 1_555
O43 W8A 1_555 1_555
C45 N40 1_555 1_555
N40 C46 1_555 1_555
C47 C48 1_555 1_555
W1A O10A 1_555 1_555
W1A O29A 1_555 1_555
W2A O16A 1_555 1_555
W3A O4A 1_555 1_555
W3A O12A 1_555 1_555
W4A O4A 1_555 1_555
W4A O6A 1_555 1_555
W4A O14A 1_555 1_555
W4A O37A 1_555 1_555
W5A O26A 1_555 1_555
W5A O39A 1_555 1_555
W5A O41A 1_555 1_555
W5A O44A 1_555 1_555
W6A O6A 1_555 1_555
W6A O9A 1_555 1_555
W6A O18A 1_555 1_555
W6A O34A 1_555 1_555
W7A O5A 1_555 1_555
W7A O17A 1_555 1_555
W8A O5A 1_555 1_555
W8A O30A 1_555 1_555
W9A O2A 1_555 1_555
W9A O36A 1_555 1_555
W10A O3A 1_555 1_555
W10A O40A 1_555 1_555
W10A O42A 1_555 1_555
W11A O8A 1_555 1_555
W11A O19A 1_555 1_555
W11A O21A 1_555 1_555
W11A O38A 1_555 1_555
W11A O43A 1_555 1_555
W12A O2A 1_555 1_555
W12A O15A 1_555 1_555
W12A O22A 1_555 1_555
W12A O35A 1_555 1_555
C1_2 N39_2 1_555 1_555
N6A N24A 1_555 1_555
N10A N22A 1_555 1_555
N10A N29A 1_555 1_555
N13A_2 N37A_2 1_555 1_555
N21A N31A 1_555 1_555
N22A C36A 1_555 1_555
N23A C42A 1_555 1_555
N24A C41A 1_555 1_555
N25_2 C38_2 1_555 1_555
N32A C40A 1_555 1_555
N33A C37A 1_555 1_555
N34A N36A 1_555 1_555
N34A C39A 1_555 1_555
N35A C43A 1_555 1_555
C3A C15A 1_555 1_555
C4A C5A 1_555 1_555
C9A C16A 1_555 1_555
C10A C12A 1_555 1_555
C11A C39A 1_555 1_555
C13A C14A 1_555 1_555
C15A C41A 1_555 1_555
C16A C37A 1_555 1_555
C19A C36A 1_555 1_555
C20A C21A 1_555 1_555
C22A C42A 1_555 1_555
C25A C26A 1_555 1_555
C27A C29A 1_555 1_555
C29A C40A 1_555 1_555
C30A C31A 1_555 1_555
C32_2 C38_2 1_555 1_555
C34_2 C35_2 1_555 1_555
C45A N40A 1_555 1_555
N40A C46A 1_555 1_555
C47A C48A 1_555 1_555

#END
