
#######################################################################
#
#                 Cambridge Crystallographic Data Centre
#                                CCDC 
#
#######################################################################
#
# If this CIF has been generated from an entry in the Cambridge 
# Structural Database, then it will include bibliographic, chemical, 
# crystal, experimental, refinement or atomic coordinate data resulting 
# from the CCDC's data processing and validation procedures.
#
#######################################################################

data_DAWVUU
_symmetry_cell_setting           triclinic
_symmetry_space_group_name_H-M   'P -1'
_symmetry_Int_Tables_number      2
_space_group_name_Hall           '-P 1'
loop_
_symmetry_equiv_pos_site_id
_symmetry_equiv_pos_as_xyz
1 x,y,z
2 -x,-y,-z
_cell_length_a                   11.3850(4)
_cell_length_b                   12.3920(4)
_cell_length_c                   15.0540(3)
_cell_angle_alpha                99.216(2)
_cell_angle_beta                 95.468(2)
_cell_angle_gamma                110.979(3)
_cell_volume                     1930.45
loop_
_atom_site_label
_atom_site_type_symbol
_atom_site_fract_x
_atom_site_fract_y
_atom_site_fract_z
O24 O 0.9064(17) 1.0319(14) 0.5552(11)
W1 W -0.13561(5) -0.30983(4) -0.01046(3)
W2 W -0.10235(5) -0.10668(4) 0.19586(3)
W3 W 0.17225(5) -0.13672(4) 0.11839(3)
W4 W -0.03541(5) -0.20253(4) -0.20674(3)
W5 W 0.27506(4) -0.03225(4) -0.07885(3)
W6 W -0.31014(5) -0.17219(4) -0.12674(3)
Cu1 Cu -0.58652(13) -0.43661(11) -0.29004(9)
Cu2 Cu -0.38984(13) -0.28059(11) -0.47579(8)
P1 P 0.0000 0.0000 0.0000
O1 O -0.2725(9) -0.1195(7) -0.3759(6)
O2 O 0.2755(12) 0.0261(7) 0.1622(5)
O3 O -0.2038(12) -0.2012(13) -0.2085(8)
O4 O -0.0796(11) -0.3046(12) -0.1245(8)
O5 O 0.1386(10) -0.1583(7) -0.1594(7)
O6 O -0.1675(9) -0.2475(9) 0.1030(7)
O7 O -0.2773(12) -0.2798(12) -0.0629(7)
O8 O 0.0635(14) -0.0178(11) -0.0808(9)
O9 O -0.0873(14) -0.1243(12) -0.0621(9)
O10 O 0.3472(11) 0.1036(7) 0.0166(5)
O11 O 0.0335(9) -0.2697(9) 0.0469(6)
O12 O 0.0596(9) -0.1183(9) 0.1963(8)
O13 O -0.2409(10) -0.0696(7) 0.1521(7)
O14 O -0.0108(10) 0.0559(7) 0.2446(7)
O15 O -0.1497(9) -0.1571(10) 0.2882(6)
O16 O 0.2462(12) -0.1263(8) 0.0116(6)
O17 O -0.0486(11) -0.2961(8) -0.3036(6)
O18 O 0.4041(11) -0.0472(9) -0.1168(8)
O19 O 0.2517(12) -0.2019(9) 0.1756(6)
O20 O -0.2005(10) -0.4553(7) -0.0136(7)
O21 O -0.4594(8) -0.2542(7) -0.1862(5)
O22 O 0.0075(13) 0.0919(11) -0.0556(9)
O23 O -0.1302(13) 0.0035(12) -0.0272(9)
Cu3 Cu -0.9076(3) -0.2951(3) -0.5146(2)
N1 N -0.7366(11) -0.3290(11) -0.3892(7)
N2 N -0.3752(9) -0.4078(7) -0.4125(6)
N3 N -0.4366(9) -0.4383(7) -0.3450(6)
N4 N -0.5545(9) -0.2909(8) -0.4335(6)
N5 N -0.8690(10) -0.7591(9) -0.4884(8)
N6 N -0.5250(9) -0.5290(7) -0.2064(6)
N7 N -0.7240(9) -0.6239(8) -0.3806(6)
N8 N -0.6295(9) -0.3428(8) -0.3771(6)
N9 N -0.7477(9) -0.7064(8) -0.4566(6)
N10 N -0.7348(11) -0.2691(11) -0.4545(8)
N11 N -0.3008(11) -0.5288(9) -0.3639(7)
N12 N -0.2939(10) -0.4600(9) -0.4247(6)
N13 N -0.7493(9) -0.4620(8) -0.2405(6)
N14 N -0.4503(10) -0.1865(8) -0.5590(7)
N15 N -0.9291(10) -0.7077(9) -0.4307(7)
C1 C -0.3855(14) -0.1290(11) -0.6166(8)
H1 H -0.3075 -0.1336 -0.6253
C2 C -0.6126(15) -0.1157(11) -0.5951(8)
H2 H -0.6927 -0.1148 -0.5885
C3 C -0.3880(14) -0.6342(11) -0.1949(9)
H3 H -0.3211 -0.6522 -0.2150
C4 C -0.8707(13) -0.4143(10) -0.1338(8)
H4 H -0.8735 -0.3628 -0.0826
C5 C -0.3878(11) -0.5120(9) -0.3138(7)
C6 C -0.8561(11) -0.5566(9) -0.2865(8)
C7 C -0.4323(15) -0.0622(12) -0.6639(9)
H5 H -0.3867 -0.0236 -0.7053
C8 C -0.4321(11) -0.5625(9) -0.2355(7)
C9 C -0.4397(15) -0.6787(12) -0.1272(9)
H6 H -0.4141 -0.7321 -0.1020
C10 C -0.8387(11) -0.6289(10) -0.3650(7)
C11 C -0.5729(12) -0.5678(11) -0.1356(8)
H7 H -0.6347 -0.5437 -0.1130
C12 C -0.9786(14) -0.5110(11) -0.1747(9)
H8 H -1.0535 -0.5291 -0.1502
C13 C -0.6234(11) -0.2461(10) -0.4794(7)
C14 C -0.7592(13) -0.3932(10) -0.1678(8)
H9 H -0.6875 -0.3275 -0.1384
C15 C -0.5625(13) -0.1805(11) -0.5491(8)
C16 C -0.5416(17) -0.0531(12) -0.6504(9)
H10 H -0.5699 -0.0036 -0.6790
C17 C -0.9704(13) -0.5816(11) -0.2558(9)
H11 H -1.0425 -0.6447 -0.2882
C18 C -0.5329(13) -0.6435(12) -0.0948(8)
H12 H -0.5684 -0.6709 -0.0457
O25 O -0.972(2) -0.5095(19) -0.5505(15)
W1A W 0.13561(5) 0.30983(4) 0.01046(3)
W2A W 0.10235(5) 0.10668(4) -0.19586(3)
W3A W -0.17225(5) 0.13672(4) -0.11839(3)
W4A W 0.03541(5) 0.20253(4) 0.20674(3)
W5A W -0.27506(4) 0.03225(4) 0.07885(3)
W6A W 0.31014(5) 0.17219(4) 0.12674(3)
Cu1A Cu 0.58652(13) 0.43661(11) 0.29004(9)
Cu2A Cu 0.38984(13) 0.28059(11) 0.47579(8)
Cu2A_2 Cu -0.61016(13) -0.71941(11) -0.52421(8)
Cu2_2 Cu 0.61016(13) 0.71941(11) 0.52421(8)
O1A O 0.2725(9) 0.1195(7) 0.3759(6)
O2A O -0.2755(12) -0.0261(7) -0.1622(5)
O3A O 0.2038(12) 0.2012(13) 0.2085(8)
O4A O 0.0796(11) 0.3046(12) 0.1245(8)
O5A O -0.1386(10) 0.1583(7) 0.1594(7)
O6A O 0.1675(9) 0.2475(9) -0.1030(7)
O7A O 0.2773(12) 0.2798(12) 0.0629(7)
O8A O -0.0635(14) 0.0178(11) 0.0808(9)
O9A O 0.0873(14) 0.1243(12) 0.0621(9)
O10A O -0.3472(11) -0.1036(7) -0.0166(5)
O11A O -0.0335(9) 0.2697(9) -0.0469(6)
O12A O -0.0596(9) 0.1183(9) -0.1963(8)
O13A O 0.2409(10) 0.0696(7) -0.1521(7)
O14A O 0.0108(10) -0.0559(7) -0.2446(7)
O15A O 0.1497(9) 0.1571(10) -0.2882(6)
O16A O -0.2462(12) 0.1263(8) -0.0116(6)
O17A O 0.0486(11) 0.2961(8) 0.3036(6)
O18A O -0.4041(11) 0.0472(9) 0.1168(8)
O19A O -0.2517(12) 0.2019(9) -0.1756(6)
O20A O 0.2005(10) 0.4553(7) 0.0136(7)
O21A O 0.4594(8) 0.2542(7) 0.1862(5)
O22A O -0.0075(13) -0.0919(11) 0.0556(9)
O23A O 0.1302(13) -0.0035(12) 0.0272(9)
Cu3A Cu 0.9076(3) 0.2951(3) 0.5146(2)
Cu3A_2 Cu -1.0924(3) -0.7049(3) -0.4854(2)
Cu3_2 Cu 1.0924(3) 0.7049(3) 0.4854(2)
N1A N 0.7366(11) 0.3290(11) 0.3892(7)
N2A N 0.3752(9) 0.4078(7) 0.4125(6)
N3A N 0.4366(9) 0.4383(7) 0.3450(6)
N4A N 0.5545(9) 0.2909(8) 0.4335(6)
N5A N 0.8690(10) 0.7591(9) 0.4884(8)
N6A N 0.5250(9) 0.5290(7) 0.2064(6)
N7A N 0.7240(9) 0.6239(8) 0.3806(6)
N8A N 0.6295(9) 0.3428(8) 0.3771(6)
N9A N 0.7477(9) 0.7064(8) 0.4566(6)
N9A_2 N -0.2523(9) -0.2936(8) -0.5434(6)
N9_2 N 0.2523(9) 0.2936(8) 0.5434(6)
N10A N 0.7348(11) 0.2691(11) 0.4545(8)
N11A N 0.3008(11) 0.5288(9) 0.3639(7)
N12A N 0.2939(10) 0.4600(9) 0.4247(6)
N13A N 0.7493(9) 0.4620(8) 0.2405(6)
N14A N 0.4503(10) 0.1865(8) 0.5590(7)
N15A N 0.9291(10) 0.7077(9) 0.4307(7)
N15A_2 N -1.0709(10) -0.2923(9) -0.5693(7)
N15_2 N 1.0709(10) 0.2923(9) 0.5693(7)
C1A C 0.3855(14) 0.1290(11) 0.6166(8)
H1A H 0.3075 0.1336 0.6253
C2A C 0.6126(15) 0.1157(11) 0.5951(8)
H2A H 0.6927 0.1148 0.5885
C3A C 0.3880(14) 0.6342(11) 0.1949(9)
H3A H 0.3211 0.6522 0.2150
C4A C 0.8707(13) 0.4143(10) 0.1338(8)
H4A H 0.8735 0.3628 0.0826
C5A C 0.3878(11) 0.5120(9) 0.3138(7)
C6A C 0.8561(11) 0.5566(9) 0.2865(8)
C7A C 0.4323(15) 0.0622(12) 0.6639(9)
H5A H 0.3867 0.0236 0.7053
C8A C 0.4321(11) 0.5625(9) 0.2355(7)
C9A C 0.4397(15) 0.6787(12) 0.1272(9)
H6A H 0.4141 0.7321 0.1020
C10A C 0.8387(11) 0.6289(10) 0.3650(7)
C11A C 0.5729(12) 0.5678(11) 0.1356(8)
H7A H 0.6347 0.5437 0.1130
C12A C 0.9786(14) 0.5110(11) 0.1747(9)
H8A H 1.0535 0.5291 0.1502
C13A C 0.6234(11) 0.2461(10) 0.4794(7)
C14A C 0.7592(13) 0.3932(10) 0.1678(8)
H9A H 0.6875 0.3275 0.1384
C15A C 0.5625(13) 0.1805(11) 0.5491(8)
C16A C 0.5416(17) 0.0531(12) 0.6504(9)
H10A H 0.5699 0.0036 0.6790
C17A C 0.9704(13) 0.5816(11) 0.2558(9)
H11A H 1.0425 0.6447 0.2882
C18A C 0.5329(13) 0.6435(12) 0.0948(8)
H12A H 0.5684 0.6709 0.0457
O25A O -1.028(2) -0.4905(19) -0.4495(15)
O25A_2 O 0.972(2) 0.5095(19) 0.5505(15)
O25_2 O 1.028(2) 0.4905(19) 0.4495(15)
loop_
_geom_bond_atom_site_label_1
_geom_bond_atom_site_label_2
_geom_bond_site_symmetry_1
_geom_bond_site_symmetry_2
W1 O4 1_555 1_555
W2 O6 1_555 1_555
W3 O2 1_555 1_555
W4 O3 1_555 1_555
W5 O5 1_555 1_555
W6 O3 1_555 1_555
Cu1 O21 1_555 1_555
Cu2 O1 1_555 1_555
P1 O8 1_555 1_555
O2 W6A 1_555 1_555
O4 W4 1_555 1_555
O5 W4 1_555 1_555
O6 W1 1_555 1_555
O7 W1 1_555 1_555
O8 W5 1_555 1_555
O9 W1 1_555 1_555
O10 W5 1_555 1_555
O11 W1 1_555 1_555
O12 W2 1_555 1_555
O13 W2 1_555 1_555
O14 W2 1_555 1_555
O15 W2 1_555 1_555
O16 W3 1_555 1_555
O17 W4 1_555 1_555
O18 W5 1_555 1_555
O19 W3 1_555 1_555
O20 W1 1_555 1_555
O21 W6 1_555 1_555
O22 P1 1_555 1_555
O23 W6 1_555 1_555
Cu3 N10 1_555 1_555
N1 N8 1_555 1_555
N2 Cu2 1_555 1_555
N3 Cu1 1_555 1_555
N4 Cu2 1_555 1_555
N5 N9 1_555 1_555
N6 Cu1 1_555 1_555
N7 Cu1 1_555 1_555
N8 Cu1 1_555 1_555
N9 N7 1_555 1_555
N10 N1 1_555 1_555
N11 N12 1_555 1_555
N12 N2 1_555 1_555
N13 Cu1 1_555 1_555
N14 Cu2 1_555 1_555
N15 N5 1_555 1_555
C1 N14 1_555 1_555
H1 C1 1_555 1_555
C2 H2 1_555 1_555
C3 H3 1_555 1_555
C4 H4 1_555 1_555
C5 N3 1_555 1_555
C6 N13 1_555 1_555
C7 C1 1_555 1_555
H5 C7 1_555 1_555
C8 N6 1_555 1_555
C9 C3 1_555 1_555
H6 C9 1_555 1_555
C10 N7 1_555 1_555
C11 N6 1_555 1_555
H7 C11 1_555 1_555
C12 C4 1_555 1_555
H8 C12 1_555 1_555
C13 N4 1_555 1_555
C14 N13 1_555 1_555
H9 C14 1_555 1_555
C15 N14 1_555 1_555
C16 C2 1_555 1_555
H10 C16 1_555 1_555
C17 C6 1_555 1_555
H11 C17 1_555 1_555
C18 C9 1_555 1_555
H12 C18 1_555 1_555
O25 Cu3 1_555 1_555
W1A O4A 1_555 1_555
W2A O8 1_555 1_555
W3A O22 1_555 1_555
W4A O14 1_555 1_555
W5A O13 1_555 1_555
W6A O10 1_555 1_555
Cu1A O21A 1_555 1_555
Cu2A O1A 1_555 1_555
Cu2A_2 N9 1_555 1_555
Cu2_2 N9A 1_555 1_555
O2A W6 1_555 1_555
O3A W4A 1_555 1_555
O4A W4A 1_555 1_555
O5A W4A 1_555 1_555
O6A W1A 1_555 1_555
O7A W1A 1_555 1_555
O8A W2 1_555 1_555
O9A P1 1_555 1_555
O10A W6 1_555 1_555
O11A W1A 1_555 1_555
O12A W2A 1_555 1_555
O13A W5 1_555 1_555
O14A W4 1_555 1_555
O15A W2A 1_555 1_555
O16A W3A 1_555 1_555
O17A W4A 1_555 1_555
O18A W5A 1_555 1_555
O19A W3A 1_555 1_555
O20A W1A 1_555 1_555
O21A W6A 1_555 1_555
O22A W2 1_555 1_555
O23A W3 1_555 1_555
Cu3A N10A 1_555 1_555
Cu3A_2 N15 1_555 1_555
Cu3_2 N15A 1_555 1_555
N1A N8A 1_555 1_555
N2A Cu2A 1_555 1_555
N3A Cu1A 1_555 1_555
N4A Cu2A 1_555 1_555
N5A N9A 1_555 1_555
N6A Cu1A 1_555 1_555
N7A Cu1A 1_555 1_555
N8A Cu1A 1_555 1_555
N9A N7A 1_555 1_555
N9A_2 Cu2 1_555 1_555
N9_2 Cu2A 1_555 1_555
N10A N1A 1_555 1_555
N11A N12A 1_555 1_555
N12A N2A 1_555 1_555
N13A Cu1A 1_555 1_555
N14A Cu2A 1_555 1_555
N15A N5A 1_555 1_555
N15A_2 Cu3 1_555 1_555
N15_2 Cu3A 1_555 1_555
C1A N14A 1_555 1_555
H1A C1A 1_555 1_555
C2A H2A 1_555 1_555
C3A H3A 1_555 1_555
C4A H4A 1_555 1_555
C5A N3A 1_555 1_555
C6A N13A 1_555 1_555
C7A C1A 1_555 1_555
H5A C7A 1_555 1_555
C8A N6A 1_555 1_555
C9A C3A 1_555 1_555
H6A C9A 1_555 1_555
C10A N7A 1_555 1_555
C11A N6A 1_555 1_555
H7A C11A 1_555 1_555
C12A C4A 1_555 1_555
H8A C12A 1_555 1_555
C13A N4A 1_555 1_555
C14A N13A 1_555 1_555
H9A C14A 1_555 1_555
C15A N14A 1_555 1_555
C16A C2A 1_555 1_555
H10A C16A 1_555 1_555
C17A C6A 1_555 1_555
H11A C17A 1_555 1_555
C18A C9A 1_555 1_555
H12A C18A 1_555 1_555
O25A Cu3 1_555 1_555
O25A_2 Cu3A 1_555 1_555
O25_2 Cu3A 1_555 1_555
W3 O11 1_555 1_555
W3 O12 1_555 1_555
W3 O22A 1_555 1_555
W4 O9 1_555 1_555
W5 O16 1_555 1_555
W5 O23A 1_555 1_555
W6 O7 1_555 1_555
W6 O9 1_555 1_555
P1 O9 1_555 1_555
P1 O23 1_555 1_555
P1 O8A 1_555 1_555
P1 O22A 1_555 1_555
P1 O23A 1_555 1_555
O22 W2A 1_555 1_555
O23 W3A 1_555 1_555
O23 W5A 1_555 1_555
N2 N3 1_555 1_555
N4 N8 1_555 1_555
N10 C13 1_555 1_555
N11 C5 1_555 1_555
N15 C10 1_555 1_555
C2 C15 1_555 1_555
C3 C8 1_555 1_555
C4 C14 1_555 1_555
C5 C8 1_555 1_555
C6 C10 1_555 1_555
C7 C16 1_555 1_555
C11 C18 1_555 1_555
C12 C17 1_555 1_555
C13 C15 1_555 1_555
O25 Cu3A_2 1_555 1_555
W1A O9A 1_555 1_555
W2A O6A 1_555 1_555
W2A O13A 1_555 1_555
W2A O14A 1_555 1_555
W3A O2A 1_555 1_555
W3A O11A 1_555 1_555
W3A O12A 1_555 1_555
W4A O9A 1_555 1_555
W5A O5A 1_555 1_555
W5A O8A 1_555 1_555
W5A O10A 1_555 1_555
W5A O16A 1_555 1_555
W6A O3A 1_555 1_555
W6A O7A 1_555 1_555
W6A O9A 1_555 1_555
W6A O23A 1_555 1_555
Cu3A_2 O25A 1_555 1_555
Cu3_2 O25A_2 1_555 1_555
Cu3_2 O25_2 1_555 1_555
N2A N3A 1_555 1_555
N4A N8A 1_555 1_555
N10A C13A 1_555 1_555
N11A C5A 1_555 1_555
N15A C10A 1_555 1_555
C2A C15A 1_555 1_555
C3A C8A 1_555 1_555
C4A C14A 1_555 1_555
C5A C8A 1_555 1_555
C6A C10A 1_555 1_555
C7A C16A 1_555 1_555
C11A C18A 1_555 1_555
C12A C17A 1_555 1_555
C13A C15A 1_555 1_555

#END
