
#######################################################################
#
#                 Cambridge Crystallographic Data Centre
#                                CCDC 
#
#######################################################################
#
# If this CIF has been generated from an entry in the Cambridge 
# Structural Database, then it will include bibliographic, chemical, 
# crystal, experimental, refinement or atomic coordinate data resulting 
# from the CCDC's data processing and validation procedures.
#
#######################################################################

data_DAWWEF
_symmetry_cell_setting           tetragonal
_symmetry_space_group_name_H-M   'P 43 21 2'
_symmetry_Int_Tables_number      96
_space_group_name_Hall           'P 4nw 2abw'
loop_
_symmetry_equiv_pos_site_id
_symmetry_equiv_pos_as_xyz
1 x,y,z
2 -x,-y,1/2+z
3 1/2-y,1/2+x,3/4+z
4 1/2+y,1/2-x,1/4+z
5 1/2-x,1/2+y,3/4-z
6 1/2+x,1/2-y,1/4-z
7 y,x,-z
8 -y,-x,1/2-z
_cell_length_a                   12.5879(18)
_cell_length_b                   12.5879(18)
_cell_length_c                   25.090(5)
_cell_angle_alpha                90
_cell_angle_beta                 90
_cell_angle_gamma                90
_cell_volume                     3975.64
loop_
_atom_site_label
_atom_site_type_symbol
_atom_site_fract_x
_atom_site_fract_y
_atom_site_fract_z
Co1 Co 0.32282(6) 1.74949(7) 0.12457(3)
Co2 Co 0.56919(7) 1.43081(7) 0.2500
O1 O 0.3397(3) 1.6046(4) 0.16802(17)
N1 N 0.6613(4) 1.7423(4) 0.13595(18)
O2 O 0.8061(3) 1.6126(4) 0.17447(18)
O3 O 0.4550(4) 1.4872(4) 0.1975(2)
N2 N 0.4853(3) 1.7372(4) 0.13206(17)
N3 N 0.6573(4) 1.8122(4) -0.0544(2)
O4 O 0.6920(4) 1.5183(5) 0.2209(2)
C1 C 0.4342(4) 1.5756(5) 0.1778(2)
N4 N 0.5914(4) 1.8412(4) 0.02518(19)
C2 C 0.5191(4) 1.6507(5) 0.1614(2)
C3 C 0.5722(4) 1.7885(5) 0.1172(2)
C4 C 0.7120(5) 1.5912(5) 0.1891(2)
N5 N 0.5290(6) 1.7644(6) 0.0031(3)
C5 C 0.6273(4) 1.6562(5) 0.1644(2)
C6 C 0.5726(7) 1.7500(7) -0.0444(3)
H1 H 0.5468 1.7009 -0.0688
C7 C 0.5722(5) 1.8785(5) 0.0789(2)
H2 H 0.5042 1.9147 0.0804
H3 H 0.6270 1.9290 0.0888
C8 C 0.6675(5) 1.8689(5) -0.0095(2)
H4 H 0.7196 1.9198 -0.0033
O5 O 0.3417(4) 1.6600(5) 0.0493(2)
O6 O 0.6171(7) 1.3137(6) 0.1934(3)
Co1G Co 0.25051(7) 1.67718(6) 0.37543(3)
Co1E Co 0.82282(6) 1.75051(7) 0.12543(3)
Co1B Co 0.75051(7) 1.82282(6) -0.12543(3)
Co1C Co 0.24949(7) 1.17718(6) 0.37457(3)
Co1D Co 0.17718(6) 1.24949(7) 0.62543(3)
O1G O 0.3954(4) 1.6603(3) 0.33198(17)
N1G N 0.2577(4) 1.3387(4) 0.36405(18)
N1E N 0.1613(4) 1.7577(4) 0.11405(18)
N1C N 0.2423(4) 1.8387(4) 0.38595(18)
O2G O 0.3874(4) 1.1939(3) 0.32553(18)
O2E O 0.3061(3) 1.8874(4) 0.07553(18)
O2C O 0.1126(4) 1.6939(3) 0.42447(18)
O3G O 0.5128(4) 1.5450(4) 0.3025(2)
N2G N 0.2628(4) 1.5147(3) 0.36794(17)
N3G N 0.1878(4) 1.3427(4) 0.5544(2)
N3C N 0.3122(4) 1.8427(4) 0.1956(2)
N3E N 0.1573(4) 1.6878(4) 0.3044(2)
O4G O 0.4817(5) 1.3080(4) 0.2791(2)
C1G C 0.4244(5) 1.5658(4) 0.3222(2)
N4G N 0.1588(4) 1.4086(4) 0.47482(19)
C2G C 0.3493(5) 1.4809(4) 0.3386(2)
C3G C 0.2115(5) 1.4278(4) 0.3828(2)
C4G C 0.4088(5) 1.2880(5) 0.3109(2)
N5G N 0.2356(6) 1.4710(6) 0.4969(3)
C5G C 0.3438(5) 1.3727(4) 0.3356(2)
C6G C 0.2500(7) 1.4274(7) 0.5444(3)
H1G H 0.2991 1.4532 0.5688
C7G C 0.1215(5) 1.4278(5) 0.4211(2)
H2G H 0.0853 1.4958 0.4196
H3G H 0.0710 1.3730 0.4112
C8G C 0.1311(5) 1.3325(5) 0.5095(2)
H4G H 0.0802 1.2804 0.5033
O5G O 0.3400(5) 1.6583(4) 0.4507(2)
O6G O 0.6863(6) 1.3829(7) 0.3066(3)
O7 O 0.5945(17) 1.3771(15) 0.0885(6)
O8 O 0.2757(17) 1.3621(16) 0.1771(8)
O9 O 0.177(2) 1.606(2) -0.0181(9)
O10 O 0.404(3) 1.4487(17) 0.0580(10)
loop_
_geom_bond_atom_site_label_1
_geom_bond_atom_site_label_2
_geom_bond_site_symmetry_1
_geom_bond_site_symmetry_2
Co1 O1 1_555 1_555
Co2 O3 1_555 1_555
O1 C1 1_555 1_555
N1 C3 1_555 1_555
O2 C4 1_555 1_555
O3 C1 1_555 1_555
N2 Co1 1_555 1_555
N3 C6 1_555 1_555
O4 Co2 1_555 1_555
C1 C2 1_555 1_555
N4 N5 1_555 1_555
C2 N2 1_555 1_555
C3 N2 1_555 1_555
C4 O4 1_555 1_555
N5 C6 1_555 1_555
C5 N1 1_555 1_555
C6 H1 1_555 1_555
C7 N4 1_555 1_555
H2 C7 1_555 1_555
H3 C7 1_555 1_555
C8 N3 1_555 1_555
H4 C8 1_555 1_555
O5 Co1 1_555 1_555
O6 Co2 1_555 1_555
Co1G O1G 1_555 1_555
Co1E N1 1_555 1_555
Co1B N3 1_555 1_555
Co1C N1G 1_555 1_555
Co1D N3G 1_555 1_555
O1G C1G 1_555 1_555
N1G C3G 1_555 1_555
N1E Co1 1_555 1_555
N1C Co1G 1_555 1_555
O2G Co1C 1_555 1_555
O2E Co1 1_555 1_555
O2C Co1G 1_555 1_555
O3G Co2 1_555 1_555
N2G Co1G 1_555 1_555
N3G C6G 1_555 1_555
N3C Co1 1_555 1_555
N3E Co1G 1_555 1_555
O4G Co2 1_555 1_555
C1G O3G 1_555 1_555
N4G N5G 1_555 1_555
C2G N2G 1_555 1_555
C3G N2G 1_555 1_555
C4G O2G 1_555 1_555
N5G C6G 1_555 1_555
C5G N1G 1_555 1_555
C6G H1G 1_555 1_555
C7G N4G 1_555 1_555
H2G C7G 1_555 1_555
H3G C7G 1_555 1_555
C8G N3G 1_555 1_555
H4G C8G 1_555 1_555
O5G Co1G 1_555 1_555
O6G Co2 1_555 1_555
O2 Co1E 1_555 1_555
N4 C8 1_555 1_555
C2 C5 1_555 1_555
C3 C7 1_555 1_555
C4 C5 1_555 1_555
O4G C4G 1_555 1_555
C1G C2G 1_555 1_555
N4G C8G 1_555 1_555
C2G C5G 1_555 1_555
C3G C7G 1_555 1_555
C4G C5G 1_555 1_555

#END
