
#######################################################################
#
#                 Cambridge Crystallographic Data Centre
#                                CCDC 
#
#######################################################################
#
# If this CIF has been generated from an entry in the Cambridge 
# Structural Database, then it will include bibliographic, chemical, 
# crystal, experimental, refinement or atomic coordinate data resulting 
# from the CCDC's data processing and validation procedures.
#
#######################################################################

data_DAWWOP
_symmetry_cell_setting           monoclinic
_symmetry_space_group_name_H-M   'P 21/c'
_symmetry_Int_Tables_number      14
_space_group_name_Hall           '-P 2ybc'
loop_
_symmetry_equiv_pos_site_id
_symmetry_equiv_pos_as_xyz
1 x,y,z
2 -x,1/2+y,1/2-z
3 -x,-y,-z
4 x,1/2-y,1/2+z
_cell_length_a                   11.271(2)
_cell_length_b                   15.663(3)
_cell_length_c                   12.609(3)
_cell_angle_alpha                90
_cell_angle_beta                 104.43(3)
_cell_angle_gamma                90
_cell_volume                     2155.74
loop_
_atom_site_label
_atom_site_type_symbol
_atom_site_fract_x
_atom_site_fract_y
_atom_site_fract_z
C1 C 0.7844(12) 0.3455(8) 0.7970(10)
H1 H 0.7155 0.3312 0.8211
C2 C 0.9643(11) 0.3464(7) 0.7751(10)
H2 H 1.0460 0.3342 0.7788
C3 C 0.9367(10) 0.4628(6) 0.6333(9)
H3 H 0.9487 0.5196 0.6646
H4 H 0.8729 0.4659 0.5656
C4 C 1.0524(9) 0.4331(6) 0.6089(8)
C5 C 1.1836(9) 0.3640(6) 0.5433(8)
C6 C 1.2136(9) 0.2948(6) 0.4750(9)
C7 C 1.2494(9) 0.4228(6) 0.6164(9)
C8 C 1.3787(9) 0.4476(6) 0.6643(9)
C9 C 0.2196(19) 0.4673(14) 1.0061(18)
H5 H 0.1452 0.4953 0.9987
C10 C 0.3747(15) 0.4195(10) 0.9727(14)
H6 H 0.4375 0.4087 0.9386
C11 C 0.4610(10) 0.3383(8) 1.1558(11)
H7 H 0.4175 0.2882 1.1709
H8 H 0.4889 0.3700 1.2235
C12 C 0.5676(8) 0.3117(7) 1.1156(8)
C13 C 0.7539(9) 0.3086(6) 1.0970(8)
C14 C 0.8831(10) 0.3390(6) 1.1272(10)
C15 C 0.6893(9) 0.2437(6) 1.0380(8)
C16 C 0.7085(9) 0.1713(6) 0.9692(9)
Cu1 Cu 0.96290(10) 0.22055(8) 0.95036(10)
Cu2 Cu 0.46960(11) 0.15191(8) 0.98029(11)
Cu3 Cu 1.24383(11) 0.54820(8) 0.77177(11)
N1 N 0.8973(8) 0.4048(5) 0.7102(7)
N2 N 0.7826(9) 0.4047(7) 0.7222(8)
N3 N 0.8947(8) 0.3069(5) 0.8360(7)
N4 N 1.0611(7) 0.3710(5) 0.5403(6)
N5 N 1.1633(7) 0.4662(5) 0.6591(6)
N6 N 0.3762(11) 0.3929(9) 1.0728(11)
N7 N 0.2803(16) 0.4274(12) 1.1014(15)
N8 N 0.2752(11) 0.4626(8) 0.9267(11)
N9 N 0.6767(8) 0.3522(5) 1.1464(7)
N10 N 0.5708(7) 0.2469(5) 1.0496(7)
O1 O 1.1246(6) 0.2471(5) 0.4306(7)
O2 O 1.3188(6) 0.2814(4) 0.4650(6)
O3 O 1.3942(6) 0.4990(4) 0.7441(6)
O4 O 1.4629(6) 0.4188(5) 0.6273(6)
O5 O 0.9631(6) 0.3055(5) 1.0892(6)
O6 O 0.9057(7) 0.3997(5) 1.1965(7)
O7 O 0.8051(6) 0.1631(4) 0.9361(6)
O8 O 0.6218(6) 0.1189(4) 0.9409(6)
O9 O 0.3802(7) 0.0621(5) 0.8821(7)
Cu1C Cu 0.96290(10) 0.27945(8) 0.45036(10)
Cu2C Cu 1.46960(11) 0.34809(8) 0.48029(11)
Cu3_2 Cu 0.24383(11) 0.54820(8) 0.77177(11)
Cu3B Cu 0.75617(11) 0.45180(8) 1.22823(11)
N4C N 1.0611(7) 0.1290(5) 1.0403(6)
N8_2 N 1.2752(11) 0.4626(8) 0.9267(11)
N9B N 1.3233(8) 0.6478(5) 0.8536(7)
O1C O 1.1246(6) 0.2529(5) 0.9306(7)
O2C O 0.3188(6) 0.2186(4) 0.9650(6)
O4C O 0.4629(6) 0.0812(5) 1.1273(6)
O6B O 1.0943(7) 0.6003(5) 0.8035(7)
O10 O 0.1868(18) 0.134(2) 0.7474(19)
loop_
_geom_bond_atom_site_label_1
_geom_bond_atom_site_label_2
_geom_bond_site_symmetry_1
_geom_bond_site_symmetry_2
C1 H1 1_555 1_555
C2 H2 1_555 1_555
C3 H3 1_555 1_555
H4 C3 1_555 1_555
C4 C3 1_555 1_555
C5 C6 1_555 1_555
C6 O1 1_555 1_555
C7 C5 1_555 1_555
C8 C7 1_555 1_555
C9 H5 1_555 1_555
C10 H6 1_555 1_555
C11 H7 1_555 1_555
H8 C11 1_555 1_555
C12 C11 1_555 1_555
C13 C14 1_555 1_555
C14 O5 1_555 1_555
C15 C13 1_555 1_555
C16 C15 1_555 1_555
Cu1 N3 1_555 1_555
Cu2 N10 1_555 1_555
Cu3 N5 1_555 1_555
N1 C2 1_555 1_555
N2 C1 1_555 1_555
N3 C1 1_555 1_555
N4 C4 1_555 1_555
N5 C4 1_555 1_555
N6 C10 1_555 1_555
N7 C9 1_555 1_555
N8 C9 1_555 1_555
N9 C12 1_555 1_555
N10 C12 1_555 1_555
O1 Cu1C 1_555 1_555
O2 C6 1_555 1_555
O3 C8 1_555 1_555
O4 C8 1_555 1_555
O5 Cu1 1_555 1_555
O6 C14 1_555 1_555
O7 C16 1_555 1_555
O8 C16 1_555 1_555
O9 Cu2 1_555 1_555
Cu1C N4 1_555 1_555
Cu2C O2 1_555 1_555
Cu3_2 N8 1_555 1_555
Cu3B N9 1_555 1_555
N4C Cu1 1_555 1_555
N8_2 Cu3 1_555 1_555
N9B Cu3 1_555 1_555
O1C Cu1 1_555 1_555
O2C Cu2 1_555 1_555
O4C Cu2 1_555 1_555
O6B Cu3 1_555 1_555
C2 N3 1_555 1_555
C3 N1 1_555 1_555
C5 N4 1_555 1_555
C7 N5 1_555 1_555
C10 N8 1_555 1_555
C11 N6 1_555 1_555
C13 N9 1_555 1_555
C15 N10 1_555 1_555
Cu1 O7 1_555 1_555
Cu2 O8 1_555 1_555
Cu3 O3 1_555 1_555
N1 N2 1_555 1_555
N6 N7 1_555 1_555
O4 Cu2C 1_555 1_555
O6 Cu3B 1_555 1_555

#END
