
#######################################################################
#
#                 Cambridge Crystallographic Data Centre
#                                CCDC 
#
#######################################################################
#
# If this CIF has been generated from an entry in the Cambridge 
# Structural Database, then it will include bibliographic, chemical, 
# crystal, experimental, refinement or atomic coordinate data resulting 
# from the CCDC's data processing and validation procedures.
#
#######################################################################

data_DAWWIJ
_symmetry_cell_setting           orthorhombic
_symmetry_space_group_name_H-M   'P b c a'
_symmetry_Int_Tables_number      61
_space_group_name_Hall           '-P 2ac 2ab'
loop_
_symmetry_equiv_pos_site_id
_symmetry_equiv_pos_as_xyz
1 x,y,z
2 1/2-x,-y,1/2+z
3 -x,1/2+y,1/2-z
4 1/2+x,1/2-y,-z
5 -x,-y,-z
6 1/2+x,y,1/2-z
7 x,1/2-y,1/2+z
8 1/2-x,1/2+y,z
_cell_length_a                   12.170(2)
_cell_length_b                   13.601(3)
_cell_length_c                   17.400(4)
_cell_angle_alpha                90
_cell_angle_beta                 90
_cell_angle_gamma                90
_cell_volume                     2880.12
loop_
_atom_site_label
_atom_site_type_symbol
_atom_site_fract_x
_atom_site_fract_y
_atom_site_fract_z
Mn1 Mn 0.78734(4) -0.75497(4) -0.21202(3)
Mn2 Mn 0.5000 -0.5000 -0.5000
N1 N 0.8023(2) -0.4839(2) -0.34624(18)
N2 N 0.9118(3) -0.4938(3) -0.3380(3)
N3 N 0.8241(3) -0.6082(2) -0.2691(2)
N4 N 0.6217(2) -0.3311(2) -0.30357(16)
N5 N 0.5507(2) -0.4188(2) -0.39992(16)
C1 C 0.9208(4) -0.5696(3) -0.2920(3)
H1 H 0.9883 -0.5947 -0.2764
C2 C 0.7520(3) -0.5523(3) -0.3052(3)
H2 H 0.6762 -0.5600 -0.3022
C3 C 0.7549(3) -0.4071(3) -0.3949(2)
H3 H 0.8004 -0.3486 -0.3929
H4 H 0.7518 -0.4295 -0.4478
C4 C 0.6416(3) -0.3837(2) -0.36693(19)
C5 C 0.5089(3) -0.3303(3) -0.29612(19)
C6 C 0.4644(3) -0.2746(3) -0.2296(2)
C7 C 0.4648(3) -0.3854(2) -0.35612(19)
C8 C 0.3524(3) -0.4193(3) -0.3772(2)
O1 O 0.5337(2) -0.24889(18) -0.17913(15)
O2 O 0.3646(2) -0.25183(19) -0.22624(16)
O3 O 0.3484(2) -0.48473(19) -0.42944(15)
O4 O 0.2678(2) -0.3864(2) -0.34552(16)
O5 O 0.7456(3) -0.6730(2) -0.10635(17)
H5 H 0.7632 -0.6131 -0.1000
H6 H 0.6863 -0.6783 -0.0809
O6 O 0.4544(3) -0.3522(2) -0.55402(17)
H7 H 0.4810 -0.3241 -0.5928
H8 H 0.3871 -0.3593 -0.5650
Mn1D Mn 0.21266(4) -0.24503(4) -0.78798(3)
Mn1G Mn 0.71266(4) -0.25497(4) -0.21202(3)
Mn1B Mn 0.21266(4) -0.25497(4) -0.28798(3)
Mn1C Mn 0.28734(4) -0.74503(4) -0.78798(3)
Mn1F Mn 0.78734(4) -0.74503(4) -0.71202(3)
N1D N 0.1977(2) -0.5161(2) -0.65376(18)
N2D N 0.0882(3) -0.5062(3) -0.6620(3)
N3D N 0.1759(3) -0.3918(2) -0.7309(2)
N4D N 0.3783(2) -0.6689(2) -0.69643(16)
N4G N 0.8783(2) -0.8311(2) -0.30357(16)
N4C N 0.1217(2) -0.1689(2) -0.69643(16)
N5D N 0.4493(2) -0.5812(2) -0.60008(16)
C1D C 0.0792(4) -0.4304(3) -0.7080(3)
H1D H 0.0117 -0.4053 -0.7236
C2D C 0.2480(3) -0.4477(3) -0.6948(3)
H2D H 0.3238 -0.4400 -0.6978
C3D C 0.2451(3) -0.5929(3) -0.6051(2)
H3D H 0.1996 -0.6514 -0.6071
H4D H 0.2482 -0.5705 -0.5522
C4D C 0.3584(3) -0.6163(2) -0.63307(19)
C5D C 0.4911(3) -0.6697(3) -0.70388(19)
C6D C 0.5356(3) -0.7254(3) -0.7704(2)
C7D C 0.5352(3) -0.6146(2) -0.64388(19)
C8D C 0.6476(3) -0.5807(3) -0.6228(2)
O1D O 0.4663(2) -0.75111(18) -0.82087(15)
O1G O 0.9663(2) -0.74889(18) -0.17913(15)
O1C O 0.0337(2) -0.25111(18) -0.82087(15)
O2D O 0.6354(2) -0.74817(19) -0.77376(16)
O2B O 0.6354(2) -0.75183(19) -0.27376(16)
O2F O 0.3646(2) -0.24817(19) -0.72624(16)
O3D O 0.6516(2) -0.51527(19) -0.57056(15)
O4D O 0.7322(2) -0.6136(2) -0.65448(16)
O4B O 0.7322(2) -0.8864(2) -0.15448(16)
O4F O 0.2678(2) -0.1136(2) -0.84552(16)
O5D O 0.2544(3) -0.3270(2) -0.89365(17)
H5D H 0.2368 -0.3869 -0.9000
H6D H 0.3137 -0.3217 -0.9191
O6D O 0.5456(3) -0.6478(2) -0.44598(17)
H7D H 0.5190 -0.6759 -0.4072
H8D H 0.6129 -0.6407 -0.4350
O7 O 0.9082(3) 0.4578(3) -0.5538(2)
H9 H 0.9688 0.4686 -0.5765
H10 H 0.8568 0.4470 -0.5858
O8 O 1.2731(4) 0.2009(4) -0.5261(3)
H11 H 1.2807 0.1630 -0.5646
H12 H 1.3424 0.1981 -0.5205
O9 O 1.0243(5) 0.3187(3) -0.4570(3)
H13 H 1.0017 0.3546 -0.4941
H14 H 1.0472 0.2765 -0.4894
loop_
_geom_bond_atom_site_label_1
_geom_bond_atom_site_label_2
_geom_bond_site_symmetry_1
_geom_bond_site_symmetry_2
Mn1 N3 1_555 1_555
Mn2 N5 1_555 1_555
N1 N2 1_555 1_555
N2 C1 1_555 1_555
N3 C1 1_555 1_555
N4 C4 1_555 1_555
N5 C4 1_555 1_555
C1 H1 1_555 1_555
C2 N1 1_555 1_555
H2 C2 1_555 1_555
C3 N1 1_555 1_555
H3 C3 1_555 1_555
H4 C3 1_555 1_555
C4 C3 1_555 1_555
C5 N4 1_555 1_555
C6 C5 1_555 1_555
C7 N5 1_555 1_555
C8 C7 1_555 1_555
O1 C6 1_555 1_555
O2 C6 1_555 1_555
O3 Mn2 1_555 1_555
O4 C8 1_555 1_555
O5 Mn1 1_555 1_555
H5 O5 1_555 1_555
H6 O5 1_555 1_555
O6 Mn2 1_555 1_555
H7 O6 1_555 1_555
H8 O6 1_555 1_555
O7 H9 1_555 1_555
H10 O7 1_555 1_555
O8 H11 1_555 1_555
H12 O8 1_555 1_555
O9 H13 1_555 1_555
H14 O9 1_555 1_555
Mn1D N3D 1_555 1_555
Mn1G N4 1_555 1_555
Mn1B O2 1_555 1_555
Mn1C N4D 1_555 1_555
Mn1F O2D 1_555 1_555
N1D N2D 1_555 1_555
N2D C1D 1_555 1_555
N3D C1D 1_555 1_555
N4D C4D 1_555 1_555
N4G Mn1 1_555 1_555
N4C Mn1D 1_555 1_555
N5D Mn2 1_555 1_555
C1D H1D 1_555 1_555
C2D N1D 1_555 1_555
H2D C2D 1_555 1_555
C3D N1D 1_555 1_555
H3D C3D 1_555 1_555
H4D C3D 1_555 1_555
C4D N5D 1_555 1_555
C5D N4D 1_555 1_555
C6D C5D 1_555 1_555
C7D N5D 1_555 1_555
C8D C7D 1_555 1_555
O1D Mn1C 1_555 1_555
O1G Mn1 1_555 1_555
O1C Mn1D 1_555 1_555
O2D C6D 1_555 1_555
O2B Mn1 1_555 1_555
O2F Mn1D 1_555 1_555
O3D Mn2 1_555 1_555
O4D Mn1F 1_555 1_555
O4B Mn1 1_555 1_555
O4F Mn1D 1_555 1_555
O5D Mn1D 1_555 1_555
H5D O5D 1_555 1_555
H6D O5D 1_555 1_555
O6D Mn2 1_555 1_555
H7D O6D 1_555 1_555
H8D O6D 1_555 1_555
N3 C2 1_555 1_555
C5 C7 1_555 1_555
C8 O3 1_555 1_555
O1 Mn1G 1_555 1_555
O4 Mn1B 1_555 1_555
N3D C2D 1_555 1_555
C3D C4D 1_555 1_555
C5D C7D 1_555 1_555
C6D O1D 1_555 1_555
C8D O3D 1_555 1_555
C8D O4D 1_555 1_555

#END
