
#######################################################################
#
#                 Cambridge Crystallographic Data Centre
#                                CCDC 
#
#######################################################################
#
# If this CIF has been generated from an entry in the Cambridge 
# Structural Database, then it will include bibliographic, chemical, 
# crystal, experimental, refinement or atomic coordinate data resulting 
# from the CCDC's data processing and validation procedures.
#
#######################################################################

data_DAWXOQ
_symmetry_cell_setting           monoclinic
_symmetry_space_group_name_H-M   'P 21/c'
_symmetry_Int_Tables_number      14
_space_group_name_Hall           '-P 2ybc'
loop_
_symmetry_equiv_pos_site_id
_symmetry_equiv_pos_as_xyz
1 x,y,z
2 -x,1/2+y,1/2-z
3 -x,-y,-z
4 x,1/2-y,1/2+z
_cell_length_a                   13.9491(7)
_cell_length_b                   18.6397(7)
_cell_length_c                   16.7980(14)
_cell_angle_alpha                90
_cell_angle_beta                 101.633(7)
_cell_angle_gamma                90
_cell_volume                     4277.88
loop_
_atom_site_label
_atom_site_type_symbol
_atom_site_fract_x
_atom_site_fract_y
_atom_site_fract_z
C1 C 0.3752(2) 0.22618(14) -0.31679(19)
C2 C 0.3952(2) 0.29066(15) -0.3505(2)
H1 H 0.4061 0.3320 -0.3191
C3 C 0.3985(2) 0.29216(16) -0.4324(2)
H2 H 0.4120 0.3350 -0.4563
C4 C 0.3821(2) 0.23051(15) -0.4789(2)
H3 H 0.3832 0.2314 -0.5340
C5 C 0.3639(2) 0.16740(15) -0.4410(2)
C6 C 0.3484(2) 0.09391(15) -0.4782(2)
C7 C 0.3191(2) -0.02780(15) -0.4463(2)
C8 C 0.2292(2) -0.06260(18) -0.4548(2)
H4 H 0.1733 -0.0363 -0.4522
C9 C 0.2226(3) -0.13601(19) -0.4670(3)
H5 H 0.1622 -0.1588 -0.4731
C10 C 0.3060(3) -0.17571(17) -0.4701(3)
C11 C 0.3943(3) -0.14210(17) -0.4632(2)
H6 H 0.4499 -0.1685 -0.4666
C12 C 0.4008(2) -0.06772(16) -0.4511(2)
H7 H 0.4611 -0.0450 -0.4461
C13 C 0.3683(4) -0.2890(2) -0.4991(4)
H8 H 0.3487 -0.3384 -0.5066
H9 H 0.4229 -0.2852 -0.4543
H10 H 0.3868 -0.2715 -0.5476
C14 C 0.3635(2) 0.21288(14) -0.2313(2)
C15 C 0.3241(2) 0.11895(15) -0.1457(2)
C16 C 0.2395(3) 0.1434(2) -0.1208(3)
H11 H 0.2023 0.1795 -0.1505
C17 C 0.2105(3) 0.1157(2) -0.0545(3)
H12 H 0.1554 0.1340 -0.0382
C18 C 0.2617(3) 0.0617(2) -0.0125(3)
C19 C 0.3454(3) 0.03617(19) -0.0325(3)
H13 H 0.3811 -0.0001 -0.0020
C20 C 0.3776(3) 0.06620(18) -0.1015(2)
H14 H 0.4347 0.0497 -0.1158
C21 C 0.2725(5) -0.0157(3) 0.0989(4)
H15 H 0.2391 -0.0281 0.1416
H16 H 0.3375 0.0004 0.1220
H17 H 0.2759 -0.0569 0.0654
C22 C 0.2102(2) -0.01875(16) -0.2701(2)
C23 C 0.1850(3) -0.08556(18) -0.2431(3)
H18 H 0.1208 -0.0956 -0.2392
C24 C 0.2570(3) -0.13603(18) -0.2226(3)
H19 H 0.2412 -0.1810 -0.2049
C25 C 0.3524(3) -0.12152(17) -0.2277(3)
H20 H 0.4009 -0.1562 -0.2145
C26 C 0.3741(2) -0.05301(15) -0.2533(2)
C27 C 0.1426(2) 0.04132(18) -0.3044(2)
C28 C 0.1360(2) 0.15041(17) -0.3788(2)
C29 C 0.1349(2) 0.21857(18) -0.3464(3)
H21 H 0.1676 0.2271 -0.2933
C30 C 0.0859(3) 0.2744(2) -0.3918(3)
H22 H 0.0856 0.3199 -0.3691
C31 C 0.0379(3) 0.2623(2) -0.4703(3)
C32 C 0.0377(3) 0.1957(2) -0.5034(3)
H23 H 0.0045 0.1874 -0.5564
C33 C 0.0879(3) 0.1393(2) -0.4574(3)
H24 H 0.0885 0.0939 -0.4804
C34 C -0.0618(4) 0.3115(3) -0.5907(4)
H25 H -0.0909 0.3562 -0.6113
H26 H -0.1122 0.2764 -0.5910
H27 H -0.0180 0.2953 -0.6243
C35 C 0.4713(2) -0.02488(15) -0.2625(2)
C36 C 0.5554(2) 0.08209(14) -0.2840(2)
C37 C 0.5840(2) 0.13722(17) -0.2285(2)
H28 H 0.5438 0.1500 -0.1928
C38 C 0.6712(2) 0.17322(17) -0.2256(2)
H29 H 0.6892 0.2101 -0.1883
C39 C 0.7319(2) 0.15461(17) -0.2782(2)
C40 C 0.7040(2) 0.10104(18) -0.3347(2)
H30 H 0.7437 0.0889 -0.3710
C41 C 0.6154(2) 0.06513(16) -0.3370(2)
H31 H 0.5966 0.0290 -0.3751
C42 C 0.8858(3) 0.1724(3) -0.3178(4)
H32 H 0.9420 0.2032 -0.3058
H33 H 0.8558 0.1766 -0.3743
H34 H 0.9056 0.1236 -0.3058
C44 C 0.1302(5) 0.1314(4) -0.6701(5)
H38 H 0.0615 0.1258 -0.6918
H39 H 0.1475 0.1058 -0.6197
H40 H 0.1451 0.1814 -0.6609
N1 N 0.36086(16) 0.16692(12) -0.36204(15)
N2 N 0.32690(17) 0.04633(12) -0.42592(16)
N3 N 0.34641(17) 0.14342(12) -0.21925(16)
N4 N 0.30248(18) -0.00496(12) -0.27316(16)
N5 N 0.18974(18) 0.09331(13) -0.33420(18)
N6 N 0.46660(16) 0.04457(12) -0.28284(16)
O1 O 0.35595(18) 0.08407(11) -0.54994(15)
O2 O 0.37049(18) 0.26306(11) -0.18128(15)
O3 O 0.54586(15) -0.06423(11) -0.24927(16)
O4 O 0.05244(17) 0.03696(15) -0.3060(2)
O5 O 0.2907(2) -0.24852(13) -0.4831(2)
O6 O 0.2238(3) 0.0367(2) 0.0538(2)
O7 O -0.0091(2) 0.32136(17) -0.5102(2)
O8 O 0.81738(17) 0.19292(13) -0.2695(2)
O10 O 0.1838(2) 0.1040(2) -0.7257(3)
H42 H 0.1337 0.0704 -0.7508
Na1 Na 0.34887(10) 0.11409(7) -0.67954(9)
Co1 Co 0.33253(3) 0.082040(18) -0.31559(3)
O2C O 0.37049(18) 0.23694(11) -0.68128(15)
O3B O 0.45414(15) 0.06423(11) -0.75073(16)
Na1C Na 0.34887(10) 0.38591(7) -0.17954(9)
Na1B Na 0.65113(10) -0.11409(7) -0.32046(9)
C43 C 0.0074(5) -0.0167(4) -0.1149(5)
H35 H 0.0762 -0.0169 -0.1149
H36 H -0.0096 -0.0596 -0.0894
H37 H -0.0081 0.0244 -0.0854
O9 O -0.0450(3) -0.0136(3) -0.1944(3)
H41 H -0.0276 0.0215 -0.2172
loop_
_geom_bond_atom_site_label_1
_geom_bond_atom_site_label_2
_geom_bond_site_symmetry_1
_geom_bond_site_symmetry_2
C1 C2 1_555 1_555
C2 H1 1_555 1_555
C3 C2 1_555 1_555
H2 C3 1_555 1_555
C4 C3 1_555 1_555
H3 C4 1_555 1_555
C5 C4 1_555 1_555
C6 C5 1_555 1_555
C7 C8 1_555 1_555
C8 H4 1_555 1_555
C9 C8 1_555 1_555
H5 C9 1_555 1_555
C10 C9 1_555 1_555
C11 C10 1_555 1_555
H6 C11 1_555 1_555
C12 C7 1_555 1_555
H7 C12 1_555 1_555
C13 H8 1_555 1_555
H9 C13 1_555 1_555
H10 C13 1_555 1_555
C14 C1 1_555 1_555
C15 C16 1_555 1_555
C16 H11 1_555 1_555
C17 C16 1_555 1_555
H12 C17 1_555 1_555
C18 C17 1_555 1_555
C19 C18 1_555 1_555
H13 C19 1_555 1_555
C20 C15 1_555 1_555
H14 C20 1_555 1_555
C21 H15 1_555 1_555
H16 C21 1_555 1_555
H17 C21 1_555 1_555
C22 C23 1_555 1_555
C23 H18 1_555 1_555
C24 C23 1_555 1_555
H19 C24 1_555 1_555
C25 C24 1_555 1_555
H20 C25 1_555 1_555
C26 C25 1_555 1_555
C27 C22 1_555 1_555
C28 C29 1_555 1_555
C29 H21 1_555 1_555
C30 C29 1_555 1_555
H22 C30 1_555 1_555
C31 C30 1_555 1_555
C32 C31 1_555 1_555
H23 C32 1_555 1_555
C33 C28 1_555 1_555
H24 C33 1_555 1_555
C34 H25 1_555 1_555
H26 C34 1_555 1_555
H27 C34 1_555 1_555
C35 C26 1_555 1_555
C36 C37 1_555 1_555
C37 H28 1_555 1_555
C38 C37 1_555 1_555
H29 C38 1_555 1_555
C39 C38 1_555 1_555
C40 C39 1_555 1_555
H30 C40 1_555 1_555
C41 C36 1_555 1_555
H31 C41 1_555 1_555
C42 H32 1_555 1_555
H33 C42 1_555 1_555
H34 C42 1_555 1_555
C43 H35 1_555 1_555
H36 C43 1_555 1_555
H37 C43 1_555 1_555
C44 H38 1_555 1_555
H39 C44 1_555 1_555
H40 C44 1_555 1_555
N1 C1 1_555 1_555
N2 C6 1_555 1_555
N3 C14 1_555 1_555
N4 C22 1_555 1_555
N5 C27 1_555 1_555
N6 C35 1_555 1_555
O1 C6 1_555 1_555
O2 C14 1_555 1_555
O3 C35 1_555 1_555
O4 C27 1_555 1_555
O5 C10 1_555 1_555
O6 C18 1_555 1_555
O7 C31 1_555 1_555
O8 C39 1_555 1_555
O9 C43 1_555 1_555
H41 O9 1_555 1_555
O10 C44 1_555 1_555
H42 O10 1_555 1_555
Na1 O1 1_555 1_555
Co1 N1 1_555 1_555
O2C Na1 1_555 1_555
O3B Na1 1_555 1_555
Na1C O2 1_555 1_555
Na1B O3 1_555 1_555
C5 N1 1_555 1_555
C7 N2 1_555 1_555
C11 C12 1_555 1_555
C13 O5 1_555 1_555
C15 N3 1_555 1_555
C19 C20 1_555 1_555
C21 O6 1_555 1_555
C26 N4 1_555 1_555
C28 N5 1_555 1_555
C32 C33 1_555 1_555
C34 O7 1_555 1_555
C36 N6 1_555 1_555
C40 C41 1_555 1_555
C42 O8 1_555 1_555
N2 Co1 1_555 1_555
N3 Co1 1_555 1_555
N4 Co1 1_555 1_555
N5 Co1 1_555 1_555
N6 Co1 1_555 1_555
O10 Na1 1_555 1_555

#END
