
#######################################################################
#
#                 Cambridge Crystallographic Data Centre
#                                CCDC 
#
#######################################################################
#
# If this CIF has been generated from an entry in the Cambridge 
# Structural Database, then it will include bibliographic, chemical, 
# crystal, experimental, refinement or atomic coordinate data resulting 
# from the CCDC's data processing and validation procedures.
#
#######################################################################

data_DAWYOR
_symmetry_cell_setting           monoclinic
_symmetry_space_group_name_H-M   'C 2/c'
_symmetry_Int_Tables_number      15
_space_group_name_Hall           '-C 2yn'
loop_
_symmetry_equiv_pos_site_id
_symmetry_equiv_pos_as_xyz
1 x,y,z
2 -x,y,1/2-z
3 1/2+x,1/2+y,z
4 1/2-x,1/2+y,1/2-z
5 -x,-y,-z
6 x,-y,1/2+z
7 1/2-x,1/2-y,-z
8 1/2+x,1/2-y,1/2+z
_cell_length_a                   30.300(3)
_cell_length_b                   7.6201(7)
_cell_length_c                   16.7339(16)
_cell_angle_alpha                90
_cell_angle_beta                 101.458(3)
_cell_angle_gamma                90
_cell_volume                     3786.67
loop_
_atom_site_label
_atom_site_type_symbol
_atom_site_fract_x
_atom_site_fract_y
_atom_site_fract_z
Ag1 Ag 0.207668(12) 0.24949(5) 0.16959(2)
S1 S 0.22603(3) 0.57390(15) 0.26872(7)
S2 S 0.12572(4) 0.10973(17) 0.11269(8)
N1 N 0.17634(12) 0.4729(5) 0.0853(2)
H1 H 0.1996 0.5178 0.0605
C1 C 0.13664(15) 0.3516(7) 0.2794(3)
H2 H 0.1609 0.2705 0.2901
C2 C 0.14326(15) 0.5205(7) 0.3093(3)
C3 C 0.10705(16) 0.6357(7) 0.3001(3)
H3 H 0.1110 0.7510 0.3220
C4 C 0.06510(17) 0.5808(9) 0.2587(3)
H4 H 0.0400 0.6577 0.2539
C5 C 0.05932(17) 0.4143(9) 0.2242(4)
H5 H 0.0307 0.3804 0.1939
C6 C 0.09535(17) 0.2968(7) 0.2339(3)
C7 C 0.09142(17) 0.1229(7) 0.1908(3)
H6 H 0.0595 0.1024 0.1651
H7 H 0.1008 0.0288 0.2314
C8 C 0.10450(17) 0.2958(7) 0.0483(3)
H8 H 0.0826 0.2532 0.0003
H9 H 0.0884 0.3761 0.0792
C9 C 0.14205(16) 0.3981(7) 0.0190(3)
H10 H 0.1571 0.3186 -0.0139
H11 H 0.1282 0.4947 -0.0170
C10 C 0.15902(15) 0.6226(6) 0.1258(3)
H12 H 0.1353 0.5806 0.1542
H13 H 0.1452 0.7091 0.0841
C11 C 0.19592(16) 0.7114(6) 0.1868(3)
H14 H 0.1824 0.8108 0.2116
H15 H 0.2181 0.7610 0.1568
C12 C 0.19039(15) 0.5820(7) 0.3453(3)
H16 H 0.2035 0.5064 0.3921
H17 H 0.1893 0.7037 0.3655
Ag1C Ag 0.292332(12) 0.74949(5) 0.33041(2)
S1C S 0.27397(3) 0.07390(15) 0.23128(7)
Cl1 Cl 0.19592(4) 0.94214(16) -0.05637(8)
O1 O 0.19135(16) 0.7667(5) -0.0300(3)
O2 O 0.21852(14) 0.9409(6) -0.1234(3)
O3 O 0.15193(12) 1.0161(5) -0.0826(3)
O4 O 0.22085(15) 1.0473(6) 0.0076(3)
Cl2 Cl 0.03043(7) 0.7034(4) -0.01787(17)
Cl3 Cl 0.03570(5) 0.9847(3) -0.13250(11)
C13 C 0.0645(2) 0.8223(10) -0.0696(4)
H18 H 0.0786 0.7408 -0.1031
H19 H 0.0889 0.8778 -0.0294
loop_
_geom_bond_atom_site_label_1
_geom_bond_atom_site_label_2
_geom_bond_site_symmetry_1
_geom_bond_site_symmetry_2
Ag1 S1 1_555 1_555
Cl1 O1 1_555 1_555
Cl2 C13 1_555 1_555
Cl3 C13 1_555 1_555
S1 C11 1_555 1_555
S2 Ag1 1_555 1_555
O2 Cl1 1_555 1_555
O3 Cl1 1_555 1_555
O4 Cl1 1_555 1_555
N1 Ag1 1_555 1_555
H1 N1 1_555 1_555
C1 H2 1_555 1_555
C2 C1 1_555 1_555
C3 C2 1_555 1_555
H3 C3 1_555 1_555
C4 C3 1_555 1_555
H4 C4 1_555 1_555
C5 C4 1_555 1_555
H5 C5 1_555 1_555
C6 C1 1_555 1_555
C7 S2 1_555 1_555
H6 C7 1_555 1_555
H7 C7 1_555 1_555
C8 S2 1_555 1_555
H8 C8 1_555 1_555
H9 C8 1_555 1_555
C9 N1 1_555 1_555
H10 C9 1_555 1_555
H11 C9 1_555 1_555
C10 N1 1_555 1_555
H12 C10 1_555 1_555
H13 C10 1_555 1_555
C11 C10 1_555 1_555
H14 C11 1_555 1_555
H15 C11 1_555 1_555
C12 S1 1_555 1_555
H16 C12 1_555 1_555
H17 C12 1_555 1_555
C13 H18 1_555 1_555
H19 C13 1_555 1_555
Ag1C S1 1_555 1_555
S1C Ag1 1_555 1_555
C2 C12 1_555 1_555
C5 C6 1_555 1_555
C6 C7 1_555 1_555
C8 C9 1_555 1_555

#END
