
#######################################################################
#
#                 Cambridge Crystallographic Data Centre
#                                CCDC 
#
#######################################################################
#
# If this CIF has been generated from an entry in the Cambridge 
# Structural Database, then it will include bibliographic, chemical, 
# crystal, experimental, refinement or atomic coordinate data resulting 
# from the CCDC's data processing and validation procedures.
#
#######################################################################

data_DAWZAD
_symmetry_cell_setting           monoclinic
_symmetry_space_group_name_H-M   'C 2/c'
_symmetry_Int_Tables_number      15
_space_group_name_Hall           '-C 2yn'
loop_
_symmetry_equiv_pos_site_id
_symmetry_equiv_pos_as_xyz
1 x,y,z
2 1/2+x,1/2+y,z
3 -x,y,1/2-z
4 1/2-x,1/2+y,1/2-z
5 -x,-y,-z
6 1/2-x,1/2-y,-z
7 x,-y,1/2+z
8 1/2+x,1/2-y,1/2+z
_cell_length_a                   31.5032(5)
_cell_length_b                   30.1445(5)
_cell_length_c                   61.3699(10)
_cell_angle_alpha                90
_cell_angle_beta                 94.9820(10)
_cell_angle_gamma                90
_cell_volume                     58059.6
loop_
_atom_site_label
_atom_site_type_symbol
_atom_site_fract_x
_atom_site_fract_y
_atom_site_fract_z
Cd1 Cd 0.29332(3) 1.04855(3) -0.614064(16)
Cd2 Cd 0.31312(4) 0.91702(3) -0.606585(17)
Cd3 Cd 0.19282(3) 0.96356(3) -0.614153(17)
Cd4 Cd 0.24153(4) 1.09776(4) -0.672121(17)
Cd5 Cd 0.21310(4) 0.82995(4) -0.608372(18)
Cd6 Cd 0.21953(4) 1.04467(3) -0.561078(17)
Cd7 Cd 0.26439(4) 0.96363(3) -0.665259(16)
Cd8 Cd 0.27977(4) 0.83040(4) -0.658493(18)
Cd9 Cd 0.16314(4) 0.87625(4) -0.665165(18)
Cd10 Cd 0.17116(4) 1.09550(3) -0.622404(17)
Cd11 Cd 0.41361(4) 1.00833(4) -0.607744(18)
Cd12 Cd 0.23686(4) 0.91809(4) -0.553668(18)
Cd13 Cd 0.14448(4) 1.01555(4) -0.673612(18)
Cd14 Cd 0.36674(4) 1.04851(4) -0.666387(17)
Cd15 Cd 0.07093(4) 1.01155(4) -0.625661(18)
Cd16 Cd 0.33499(4) 0.99485(4) -0.553137(17)
Cd17 Cd 0.09602(4) 0.87727(4) -0.612225(19)
Cd18 Cd 0.11861(4) 0.97134(4) -0.561557(18)
Cd19 Cd 0.22209(4) 1.02202(4) -0.723487(18)
Cd20 Cd 0.38896(4) 0.92187(4) -0.655963(19)
Cd21 Cd 0.32552(4) 1.12449(4) -0.562279(17)
Cd22 Cd 0.22776(4) 0.88088(4) -0.716237(18)
Cd23 Cd 0.26588(4) 1.18137(4) -0.618367(18)
Cd24 Cd 0.39180(4) 1.13989(4) -0.621565(19)
Cd25 Cd 0.43370(4) 0.77422(4) -0.558724(19)
Cd26 Cd 0.33949(4) 0.95790(4) -0.716284(18)
Cd27 Cd 0.42852(4) 0.90232(4) -0.568185(19)
Cd28 Cd 0.00492(4) 0.93986(4) -0.58682(2)
Cd29 Cd 0.36008(4) 1.23824(4) -0.583496(18)
Cd30 Cd 0.38392(4) 0.80804(4) -0.61766(2)
Cd31 Cd 0.32198(4) 0.81951(4) -0.56163(2)
Cd32 Cd 0.26100(5) 0.94155(4) -0.767877(19)
S1 S 0.22774(15) 0.87038(15) -0.75789(7)
S2 S 0.33986(16) 0.94977(15) -0.75768(7)
S3 S 0.38987(14) 1.12987(13) -0.66245(7)
S4 S 0.41570(14) 1.21831(13) -0.60865(7)
S5 S 0.41865(13) 0.99672(14) -0.64742(6)
S6 S 0.15844(14) 0.90128(13) -0.54837(7)
S7 S 0.43428(15) 0.75053(14) -0.59773(7)
S8 S 0.28263(14) 1.16647(13) -0.65729(6)
S9 S 0.38165(14) 0.93001(14) -0.53856(7)
S10 S 0.01814(13) 0.86606(13) -0.60348(7)
S11 S 0.15294(15) 0.86949(16) -0.70664(7)
S12 S 0.34870(15) 1.20102(13) -0.54783(6)
S13 S 0.36727(15) 0.76044(15) -0.54054(7)
S14 S 0.24459(14) 1.12597(13) -0.56124(6)
S15 S 0.10254(13) 1.07685(13) -0.60374(6)
S16 S 0.24384(15) 1.10006(14) -0.71375(6)
S17 S -0.00405(13) 1.00491(13) -0.61261(7)
S18 S 0.21773(17) 1.01101(16) -0.76525(7)
S19 S 0.34592(15) 1.04035(14) -0.70769(6)
S20 S 0.08737(14) 0.88867(15) -0.65322(7)
S21 S 0.15041(16) 0.9943(2) -0.71356(8)
S22 S 0.19019(13) 1.17450(12) -0.60875(6)
S23 S 0.28658(14) 0.83072(13) -0.69961(6)
S24 S 0.29442(14) 1.25957(12) -0.60783(6)
S25 S 0.04194(13) 0.95751(13) -0.54988(6)
S26 S 0.37355(13) 1.06773(13) -0.54363(6)
S27 S 0.14092(13) 0.81874(13) -0.59248(6)
S28 S 0.20695(13) 0.81505(13) -0.64815(6)
S29 S 0.36529(13) 0.86094(13) -0.58770(6)
S30 S 0.14451(13) 1.04541(12) -0.54675(6)
S31 S 0.28289(15) 0.85731(14) -0.53300(6)
S32 S 0.16711(13) 1.09153(12) -0.66274(6)
S33 S 0.26354(13) 0.99022(13) -0.53894(6)
S34 S 0.26256(13) 0.95540(12) -0.70662(6)
S35 S 0.21916(12) 1.03924(11) -0.60227(6)
S36 S 0.18922(12) 0.95404(12) -0.65493(6)
S37 S 0.34114(12) 0.99193(11) -0.59426(6)
S38 S 0.31297(12) 0.90535(12) -0.64727(6)
S39 S 0.23930(12) 0.90548(12) -0.59446(6)
S40 S 0.29195(12) 1.03998(11) -0.65481(5)
S41 S 0.11719(12) 0.95643(12) -0.60228(6)
S42 S 0.32192(13) 1.12550(12) -0.60370(6)
S43 S 0.47716(14) 0.84297(14) -0.54966(7)
S44 S 0.46691(15) 0.96963(15) -0.57987(7)
S45 S 0.32819(16) 0.76827(15) -0.64129(8)
S46 S 0.43296(15) 1.08804(14) -0.59511(7)
S47 S 0.39038(15) 0.90411(15) -0.69688(7)
S48 S 0.27576(17) 0.78167(16) -0.59231(9)
S49 S 0.43349(17) 0.8637(2) -0.63361(9)
S50 S 0.06599(13) 1.00460(13) -0.66638(6)
C1 C -0.2056(6) 0.9471(8) -0.5895(3)
C2 C -0.2253(9) 0.9373(8) -0.6135(4)
C3 C -0.2140(8) 0.9734(12) -0.6262(4)
C4 C 0.4104(6) 1.4150(5) -0.5221(2)
C5 C 0.4247(5) 1.3640(5) -0.4893(3)
C6 C 0.4430(5) 1.4019(5) -0.5034(2)
N1 N -0.0681(2) 0.9410(3) -0.58398(15)
C7 C -0.0887(3) 0.9785(3) -0.57698(16)
C8 C -0.1330(3) 0.9803(3) -0.57879(17)
C9 C -0.1566(2) 0.9447(4) -0.58759(17)
C10 C -0.1360(3) 0.9072(3) -0.59458(16)
C11 C -0.0917(3) 0.9053(3) -0.59277(16)
N2 N 0.3786(3) 1.3029(3) -0.56458(14)
C12 C 0.3468(2) 1.3251(3) -0.55458(16)
C13 C 0.3571(3) 1.3614(3) -0.54116(15)
C14 C 0.3992(3) 1.3755(3) -0.53775(14)
C15 C 0.4310(2) 1.3533(3) -0.54775(17)
C16 C 0.4207(3) 1.3170(3) -0.56117(16)
N3 N 0.5200(3) 1.2773(3) -0.45757(14)
C17 C 0.5214(3) 1.2875(3) -0.47959(14)
C18 C 0.4909(4) 1.3155(3) -0.48992(11)
C19 C 0.4591(3) 1.3334(3) -0.47824(16)
C20 C 0.4578(3) 1.3232(3) -0.45622(16)
C21 C 0.4882(3) 1.2951(3) -0.44589(11)
N4 N -0.2591(5) 0.9397(5) -0.69447(16)
C22 C -0.2818(4) 0.9715(5) -0.6840(2)
C23 C -0.2719(5) 0.9801(5) -0.6619(2)
C24 C -0.2392(5) 0.9569(6) -0.65026(16)
C25 C -0.2164(5) 0.9251(6) -0.6608(2)
C26 C -0.2263(5) 0.9164(5) -0.6829(2)
C27 C 0.4013(4) 1.1942(4) -0.5357(2)
C28 C 0.4112(5) 1.2139(4) -0.5154(2)
C29 C 0.4515(5) 1.2084(5) -0.50463(18)
C30 C 0.4819(4) 1.1832(5) -0.5141(3)
C31 C 0.4721(4) 1.1635(4) -0.5344(3)
C32 C 0.4318(5) 1.1690(4) -0.54518(17)
C33 C 0.3986(3) 1.2596(3) -0.62893(15)
C34 C 0.4145(3) 1.3023(3) -0.62554(15)
C35 C 0.4008(4) 1.3363(2) -0.63973(18)
C36 C 0.3711(4) 1.3277(3) -0.65730(17)
C37 C 0.3551(3) 1.2850(4) -0.66069(16)
C38 C 0.3688(4) 1.2510(3) -0.64650(18)
C39 C 0.2615(3) 1.2813(3) -0.58801(15)
C40 C 0.2487(4) 1.3253(3) -0.59017(16)
C41 C 0.2245(4) 1.3443(3) -0.5748(2)
C42 C 0.2129(4) 1.3193(4) -0.55720(18)
C43 C 0.2257(4) 1.2752(4) -0.55504(15)
C44 C 0.2499(4) 1.2562(3) -0.57044(17)
C45 C 0.1642(3) 1.2137(3) -0.62738(16)
C46 C 0.1709(4) 1.2584(3) -0.62279(17)
C47 C 0.1504(5) 1.2904(2) -0.6362(2)
C48 C 0.1233(4) 1.2777(4) -0.6542(2)
C49 C 0.1167(4) 1.2330(4) -0.65877(17)
C50 C 0.1371(4) 1.2009(3) -0.64537(18)
C51 C 0.2663(4) 1.2103(3) -0.67532(16)
C52 C 0.2835(4) 1.2120(4) -0.69540(18)
C53 C 0.2720(5) 1.2459(4) -0.71007(15)
C54 C 0.2432(5) 1.2782(4) -0.70467(19)
C55 C 0.2260(4) 1.2766(4) -0.6846(2)
C56 C 0.2375(4) 1.2426(4) -0.66992(16)
C57 C 0.4440(3) 1.1322(4) -0.6696(2)
C58 C 0.4638(5) 1.0965(3) -0.6788(3)
C59 C 0.5043(5) 1.1015(5) -0.6859(3)
C60 C 0.5249(4) 1.1422(6) -0.6838(3)
C61 C 0.5051(5) 1.1779(5) -0.6746(4)
C62 C 0.4647(5) 1.1729(4) -0.6674(3)
C63 C 0.4878(3) 1.0852(4) -0.5989(2)
C64 C 0.5027(5) 1.0828(5) -0.6195(2)
C65 C 0.5459(5) 1.0768(5) -0.6216(3)
C66 C 0.5743(3) 1.0733(5) -0.6030(4)
C67 C 0.5594(5) 1.0757(5) -0.5824(3)
C68 C 0.5162(5) 1.0817(5) -0.5803(2)
C69 C 0.4686(5) 0.8421(6) -0.6501(3)
C70 C 0.4719(5) 0.7963(6) -0.6523(3)
C71 C 0.4995(6) 0.7784(5) -0.6664(3)
C72 C 0.5238(5) 0.8063(7) -0.6784(3)
C73 C 0.5206(6) 0.8520(6) -0.6762(3)
C74 C 0.4929(7) 0.8699(5) -0.6621(4)
C75 C 0.3782(4) 0.7810(4) -0.51323(16)
C76 C 0.3912(4) 0.8245(4) -0.50905(19)
C77 C 0.3982(5) 0.8394(4) -0.4876(2)
C78 C 0.3922(6) 0.8109(6) -0.47035(16)
C79 C 0.3792(6) 0.7674(5) -0.47453(19)
C80 C 0.3722(5) 0.7525(4) -0.4960(2)
C81 C 0.5158(4) 0.9576(4) -0.5915(2)
C82 C 0.5524(5) 0.9516(4) -0.57741(18)
C83 C 0.5913(4) 0.9443(5) -0.5858(3)
C84 C 0.5938(4) 0.9430(5) -0.6083(3)
C85 C 0.5573(5) 0.9491(6) -0.6224(2)
C86 C 0.5183(4) 0.9564(5) -0.6140(2)
C87 C 0.4121(4) 0.9483(4) -0.51423(15)
C88 C 0.4555(4) 0.9398(4) -0.5104(2)
C89 C 0.4774(3) 0.9528(5) -0.4908(2)
C90 C 0.4558(5) 0.9741(5) -0.47499(17)
C91 C 0.4125(5) 0.9826(4) -0.47878(17)
C92 C 0.3906(3) 0.9696(4) -0.4984(2)
C93 C 0.1603(3) 1.0331(3) -0.51857(11)
C94 C 0.1411(3) 0.9988(3) -0.50789(16)
C95 C 0.1536(4) 0.9899(3) -0.48604(16)
C96 C 0.1852(4) 1.0154(4) -0.47487(12)
C97 C 0.2043(3) 1.0497(4) -0.48555(16)
C98 C 0.1918(3) 1.0586(3) -0.50740(16)
C99 C 0.0734(4) 1.1267(3) -0.6089(2)
C100 C 0.0403(4) 1.1300(4) -0.6253(2)
C101 C 0.0202(4) 1.1705(5) -0.6296(2)
C102 C 0.0333(5) 1.2078(4) -0.6175(3)
C103 C 0.0664(5) 1.2045(3) -0.6010(2)
C104 C 0.0864(4) 1.1640(4) -0.59673(17)
C105 C 0.1968(3) 1.1306(4) -0.72327(18)
C106 C 0.1806(4) 1.1628(4) -0.71008(15)
C107 C 0.1450(4) 1.1873(4) -0.7178(2)
C108 C 0.1257(4) 1.1796(5) -0.7387(2)
C109 C 0.1420(5) 1.1474(5) -0.75187(17)
C110 C 0.1775(4) 1.1229(4) -0.74416(17)
C111 C -0.0385(3) 0.9818(4) -0.63448(16)
C112 C -0.0260(3) 0.9471(4) -0.64744(19)
C113 C -0.0533(4) 0.9320(4) -0.66485(18)
C114 C -0.0931(4) 0.9514(5) -0.66930(19)
C115 C -0.1056(3) 0.9861(5) -0.6563(2)
C116 C -0.0783(4) 1.0013(4) -0.6389(2)
C117 C 0.1406(5) 0.8115(4) -0.7111(3)
C118 C 0.1354(7) 0.7987(7) -0.7329(2)
C119 C 0.1211(9) 0.7562(9) -0.7385(3)
C120 C 0.1121(8) 0.7265(6) -0.7222(4)
C121 C 0.1173(7) 0.7393(6) -0.7004(4)
C122 C 0.1316(6) 0.7818(6) -0.6948(2)
C123 C 0.1730(3) 0.8772(5) -0.76787(19)
C124 C 0.1552(5) 0.8445(4) -0.7818(2)
C125 C 0.1121(5) 0.8462(5) -0.7889(2)
C126 C 0.0869(3) 0.8805(6) -0.7822(2)
C127 C 0.1048(4) 0.9132(5) -0.7683(2)
C128 C 0.1478(5) 0.9115(4) -0.76111(18)
C129 C 0.2539(4) 1.0492(4) -0.7768(2)
C130 C 0.2423(4) 1.0651(5) -0.7977(2)
C131 C 0.2704(6) 1.0916(6) -0.80819(19)
C132 C 0.3100(5) 1.1022(5) -0.7977(3)
C133 C 0.3215(4) 1.0863(5) -0.7768(3)
C134 C 0.2934(5) 1.0598(5) -0.76630(17)
C135 C 0.3566(5) 0.8956(4) -0.7642(2)
C136 C 0.3708(6) 0.8906(5) -0.7849(2)
C137 C 0.3832(6) 0.8490(6) -0.7918(2)
C138 C 0.3814(5) 0.8125(4) -0.7781(3)
C139 C 0.3673(6) 0.8175(4) -0.7574(3)
C140 C 0.3549(6) 0.8591(5) -0.7505(2)
C141 C 0.4403(4) 0.9235(5) -0.7042(2)
C142 C 0.4618(5) 0.8947(4) -0.7172(2)
C143 C 0.5010(5) 0.9069(5) -0.7241(2)
C144 C 0.5188(4) 0.9478(6) -0.7181(3)
C145 C 0.4973(5) 0.9765(4) -0.7051(3)
C146 C 0.4581(5) 0.9644(5) -0.6982(2)
C147 C 0.0493(5) 0.8543(5) -0.6676(2)
C148 C 0.0469(5) 0.8588(5) -0.6902(2)
C149 C 0.0175(5) 0.8340(5) -0.70330(16)
C150 C -0.0095(4) 0.8047(5) -0.6938(2)
C151 C -0.0071(4) 0.8002(5) -0.6711(2)
C152 C 0.0223(5) 0.8250(5) -0.65807(16)
C153 C 0.2522(6) 0.7315(5) -0.5853(4)
C154 C 0.2446(6) 0.7192(5) -0.5641(3)
C155 C 0.2291(7) 0.6771(6) -0.5601(3)
C156 C 0.2211(6) 0.6473(5) -0.5773(3)
C157 C 0.2287(8) 0.6596(7) -0.5984(3)
C158 C 0.2443(9) 0.7017(8) -0.6024(3)
C159 C 0.0242(4) 0.8249(3) -0.58243(19)
C160 C 0.0393(4) 0.8354(3) -0.5611(2)
C161 C 0.0418(4) 0.8028(5) -0.54503(17)
C162 C 0.0293(4) 0.7597(4) -0.5503(2)
C163 C 0.0142(4) 0.7491(3) -0.5716(3)
C164 C 0.0117(4) 0.7817(4) -0.58768(19)
C165 C 0.0165(3) 1.0093(3) -0.54664(16)
C166 C -0.0127(3) 1.0123(3) -0.53096(15)
C167 C -0.0373(3) 1.0503(4) -0.52963(16)
C168 C -0.0327(3) 1.0853(3) -0.54399(19)
C169 C -0.0036(4) 1.0823(3) -0.55967(16)
C170 C 0.0211(3) 1.0443(3) -0.56099(15)
C171 C 0.0367(4) 1.0542(4) -0.6748(2)
C172 C -0.0075(4) 1.0523(4) -0.6759(2)
C173 C -0.0315(3) 1.0892(5) -0.6828(3)
C174 C -0.0113(5) 1.1280(4) -0.6885(3)
C175 C 0.0329(5) 1.1299(4) -0.6873(3)
C176 C 0.0569(3) 1.0930(5) -0.6805(2)
C177 C 0.1148(4) 1.0345(5) -0.7300(3)
C178 C 0.1068(5) 1.0269(5) -0.7523(3)
C179 C 0.0743(6) 1.0497(7) -0.7642(2)
C180 C 0.0497(5) 1.0801(6) -0.7539(3)
C181 C 0.0576(5) 1.0877(5) -0.7315(3)
C182 C 0.0902(5) 1.0649(5) -0.71959(19)
C183 C 0.5199(3) 0.8314(4) -0.56621(18)
C184 C 0.5168(3) 0.8405(4) -0.58850(18)
C185 C 0.5519(5) 0.8340(4) -0.60043(15)
C186 C 0.5900(4) 0.8184(4) -0.5901(2)
C187 C 0.5930(3) 0.8093(4) -0.5678(2)
C188 C 0.5580(4) 0.8158(4) -0.55585(15)
C189 C 0.2272(4) 1.1551(3) -0.53814(15)
C190 C 0.2547(3) 1.1647(4) -0.51983(19)
C191 C 0.2402(5) 1.1886(4) -0.50258(15)
C192 C 0.1981(5) 1.2029(4) -0.50364(19)
C193 C 0.1706(3) 1.1933(4) -0.5220(2)
C194 C 0.1851(3) 1.1694(4) -0.53921(18)
C195 C 0.1197(4) 0.7691(3) -0.6054(2)
C196 C 0.1077(5) 0.7674(4) -0.62771(19)
C197 C 0.0896(4) 0.7290(4) -0.63696(15)
C198 C 0.0836(4) 0.6923(3) -0.6239(2)
C199 C 0.0956(4) 0.6940(3) -0.6016(2)
C200 C 0.1137(4) 0.7324(4) -0.59232(15)
C201 C 0.2727(4) 0.7767(3) -0.7091(2)
C202 C 0.2823(4) 0.7636(4) -0.72981(19)
C203 C 0.2739(5) 0.7205(5) -0.73689(17)
C204 C 0.2559(5) 0.6903(3) -0.7232(2)
C205 C 0.2462(4) 0.7034(4) -0.7025(2)
C206 C 0.2546(5) 0.7466(4) -0.69544(17)
C207 C 0.4102(5) 0.6986(4) -0.5978(3)
C208 C 0.3684(5) 0.6929(5) -0.5927(3)
C209 C 0.3515(4) 0.6505(6) -0.5915(3)
C210 C 0.3764(6) 0.6138(4) -0.5954(3)
C211 C 0.4182(6) 0.6194(4) -0.6005(3)
C212 C 0.4351(4) 0.6619(6) -0.6017(3)
C213 C 0.3596(4) 0.7556(5) -0.66475(19)
C214 C 0.3803(4) 0.7848(3) -0.6778(2)
C215 C 0.4016(4) 0.7687(4) -0.6951(2)
C216 C 0.4020(4) 0.7235(5) -0.69933(19)
C217 C 0.3813(4) 0.6943(3) -0.6863(2)
C218 C 0.3600(4) 0.7104(4) -0.6690(2)
C219 C 0.1524(4) 0.8889(4) -0.52044(15)
C220 C 0.1117(4) 0.8815(4) -0.5141(2)
C221 C 0.1063(4) 0.8686(4) -0.4927(2)
C222 C 0.1417(5) 0.8630(4) -0.47778(16)
C223 C 0.1823(4) 0.8704(6) -0.4842(2)
C224 C 0.1877(3) 0.8834(5) -0.5055(2)
C225 C 0.3685(4) 1.0794(3) -0.51542(12)
C226 C 0.3303(3) 1.0750(4) -0.50590(16)
C227 C 0.3286(4) 1.0841(4) -0.48379(17)
C228 C 0.3651(5) 1.0977(4) -0.47121(12)
C229 C 0.4033(4) 1.1021(4) -0.48073(18)
C230 C 0.4050(3) 1.0930(4) -0.50284(19)
C231 C 0.3831(4) 1.0680(4) -0.72300(18)
C232 C 0.4108(4) 1.0458(3) -0.73566(19)
C233 C 0.4389(4) 1.0696(5) -0.7474(2)
C234 C 0.4393(4) 1.1156(5) -0.7466(2)
C235 C 0.4116(5) 1.1379(3) -0.7339(2)
C236 C 0.3835(4) 1.1141(4) -0.7221(2)
Cd25D Cd 0.56630(4) 1.22578(4) -0.441276(19)
Cd32B Cd -0.26100(5) 0.94155(4) -0.732123(19)
N3D N 0.4800(3) 0.7227(3) -0.54243(14)
N4B N 0.2591(5) 0.9397(5) -0.80553(16)
loop_
_geom_bond_atom_site_label_1
_geom_bond_atom_site_label_2
_geom_bond_site_symmetry_1
_geom_bond_site_symmetry_2
Cd1 S35 1_555 1_555
Cd2 S29 1_555 1_555
Cd3 S35 1_555 1_555
Cd4 S8 1_555 1_555
Cd5 S27 1_555 1_555
Cd6 S14 1_555 1_555
Cd7 S34 1_555 1_555
Cd8 S23 1_555 1_555
Cd9 S11 1_555 1_555
Cd10 S15 1_555 1_555
Cd11 S5 1_555 1_555
Cd12 S6 1_555 1_555
Cd13 S21 1_555 1_555
Cd14 S3 1_555 1_555
Cd15 S15 1_555 1_555
Cd16 S9 1_555 1_555
Cd17 S10 1_555 1_555
Cd18 S6 1_555 1_555
Cd19 S16 1_555 1_555
Cd20 S5 1_555 1_555
Cd21 S12 1_555 1_555
Cd22 S1 1_555 1_555
Cd23 S8 1_555 1_555
Cd24 S3 1_555 1_555
Cd25 S7 1_555 1_555
Cd26 S2 1_555 1_555
Cd27 S9 1_555 1_555
Cd28 S10 1_555 1_555
Cd29 S4 1_555 1_555
Cd30 S7 1_555 1_555
Cd31 S13 1_555 1_555
Cd32 S1 1_555 1_555
S1 C123 1_555 1_555
S2 Cd32 1_555 1_555
S3 C57 1_555 1_555
S4 Cd24 1_555 1_555
S5 Cd14 1_555 1_555
S6 C219 1_555 1_555
S7 C207 1_555 1_555
S8 C51 1_555 1_555
S9 C87 1_555 1_555
S10 C159 1_555 1_555
S11 Cd22 1_555 1_555
S12 Cd29 1_555 1_555
S13 Cd25 1_555 1_555
S14 Cd21 1_555 1_555
S15 C99 1_555 1_555
S16 Cd4 1_555 1_555
S17 Cd15 1_555 1_555
S18 Cd19 1_555 1_555
S19 Cd14 1_555 1_555
S20 Cd9 1_555 1_555
S21 Cd19 1_555 1_555
S22 Cd10 1_555 1_555
S23 Cd22 1_555 1_555
S24 Cd23 1_555 1_555
S25 Cd18 1_555 1_555
S26 Cd16 1_555 1_555
S27 Cd17 1_555 1_555
S28 Cd5 1_555 1_555
S29 Cd27 1_555 1_555
S30 Cd6 1_555 1_555
S31 Cd12 1_555 1_555
S32 Cd4 1_555 1_555
S33 Cd6 1_555 1_555
S34 Cd19 1_555 1_555
S35 Cd6 1_555 1_555
S36 Cd3 1_555 1_555
S37 Cd1 1_555 1_555
S38 Cd2 1_555 1_555
S39 Cd2 1_555 1_555
S40 Cd1 1_555 1_555
S41 Cd3 1_555 1_555
S42 Cd1 1_555 1_555
S43 Cd25 1_555 1_555
S44 Cd11 1_555 1_555
S45 Cd8 1_555 1_555
S46 Cd11 1_555 1_555
S47 Cd20 1_555 1_555
S48 Cd5 1_555 1_555
S49 Cd20 1_555 1_555
S50 Cd13 1_555 1_555
C1 C2 1_555 1_555
C2 C3 1_555 1_555
C3 C24 1_555 1_555
C4 C6 1_555 1_555
C5 C6 1_555 1_555
N1 Cd28 1_555 1_555
C7 N1 1_555 1_555
C8 C7 1_555 1_555
C9 C1 1_555 1_555
C10 C9 1_555 1_555
C11 N1 1_555 1_555
N2 Cd29 1_555 1_555
C12 N2 1_555 1_555
C13 C12 1_555 1_555
C14 C4 1_555 1_555
C15 C14 1_555 1_555
C16 N2 1_555 1_555
N3 C17 1_555 1_555
C17 C18 1_555 1_555
C18 C19 1_555 1_555
C19 C5 1_555 1_555
C20 C19 1_555 1_555
C21 N3 1_555 1_555
N4 C22 1_555 1_555
C22 C23 1_555 1_555
C23 C24 1_555 1_555
C24 C25 1_555 1_555
C25 C26 1_555 1_555
C26 N4 1_555 1_555
C27 S12 1_555 1_555
C28 C27 1_555 1_555
C29 C28 1_555 1_555
C30 C29 1_555 1_555
C31 C30 1_555 1_555
C32 C27 1_555 1_555
C33 S4 1_555 1_555
C34 C33 1_555 1_555
C35 C34 1_555 1_555
C36 C35 1_555 1_555
C37 C36 1_555 1_555
C38 C33 1_555 1_555
C39 S24 1_555 1_555
C40 C39 1_555 1_555
C41 C40 1_555 1_555
C42 C41 1_555 1_555
C43 C42 1_555 1_555
C44 C39 1_555 1_555
C45 S22 1_555 1_555
C46 C45 1_555 1_555
C47 C46 1_555 1_555
C48 C47 1_555 1_555
C49 C48 1_555 1_555
C50 C45 1_555 1_555
C51 C52 1_555 1_555
C52 C53 1_555 1_555
C53 C54 1_555 1_555
C54 C55 1_555 1_555
C55 C56 1_555 1_555
C56 C51 1_555 1_555
C57 C58 1_555 1_555
C58 C59 1_555 1_555
C59 C60 1_555 1_555
C60 C61 1_555 1_555
C61 C62 1_555 1_555
C62 C57 1_555 1_555
C63 S46 1_555 1_555
C64 C63 1_555 1_555
C65 C64 1_555 1_555
C66 C65 1_555 1_555
C67 C66 1_555 1_555
C68 C63 1_555 1_555
C69 S49 1_555 1_555
C70 C69 1_555 1_555
C71 C70 1_555 1_555
C72 C71 1_555 1_555
C73 C72 1_555 1_555
C74 C69 1_555 1_555
C75 S13 1_555 1_555
C76 C75 1_555 1_555
C77 C76 1_555 1_555
C78 C77 1_555 1_555
C79 C78 1_555 1_555
C80 C75 1_555 1_555
C81 S44 1_555 1_555
C82 C81 1_555 1_555
C83 C82 1_555 1_555
C84 C83 1_555 1_555
C85 C84 1_555 1_555
C86 C81 1_555 1_555
C87 C88 1_555 1_555
C88 C89 1_555 1_555
C89 C90 1_555 1_555
C90 C91 1_555 1_555
C91 C92 1_555 1_555
C92 C87 1_555 1_555
C93 S30 1_555 1_555
C94 C93 1_555 1_555
C95 C94 1_555 1_555
C96 C95 1_555 1_555
C97 C96 1_555 1_555
C98 C93 1_555 1_555
C99 C100 1_555 1_555
C100 C101 1_555 1_555
C101 C102 1_555 1_555
C102 C103 1_555 1_555
C103 C104 1_555 1_555
C104 C99 1_555 1_555
C105 S16 1_555 1_555
C106 C105 1_555 1_555
C107 C106 1_555 1_555
C108 C107 1_555 1_555
C109 C108 1_555 1_555
C110 C105 1_555 1_555
C111 S17 1_555 1_555
C112 C111 1_555 1_555
C113 C112 1_555 1_555
C114 C113 1_555 1_555
C115 C114 1_555 1_555
C116 C111 1_555 1_555
C117 S11 1_555 1_555
C118 C117 1_555 1_555
C119 C118 1_555 1_555
C120 C119 1_555 1_555
C121 C120 1_555 1_555
C122 C117 1_555 1_555
C123 C124 1_555 1_555
C124 C125 1_555 1_555
C125 C126 1_555 1_555
C126 C127 1_555 1_555
C127 C128 1_555 1_555
C128 C123 1_555 1_555
C129 S18 1_555 1_555
C130 C129 1_555 1_555
C131 C130 1_555 1_555
C132 C131 1_555 1_555
C133 C132 1_555 1_555
C134 C129 1_555 1_555
C135 S2 1_555 1_555
C136 C135 1_555 1_555
C137 C136 1_555 1_555
C138 C137 1_555 1_555
C139 C138 1_555 1_555
C140 C135 1_555 1_555
C141 S47 1_555 1_555
C142 C141 1_555 1_555
C143 C142 1_555 1_555
C144 C143 1_555 1_555
C145 C144 1_555 1_555
C146 C141 1_555 1_555
C147 S20 1_555 1_555
C148 C147 1_555 1_555
C149 C148 1_555 1_555
C150 C149 1_555 1_555
C151 C150 1_555 1_555
C152 C147 1_555 1_555
C153 S48 1_555 1_555
C154 C153 1_555 1_555
C155 C154 1_555 1_555
C156 C155 1_555 1_555
C157 C156 1_555 1_555
C158 C153 1_555 1_555
C159 C160 1_555 1_555
C160 C161 1_555 1_555
C161 C162 1_555 1_555
C162 C163 1_555 1_555
C163 C164 1_555 1_555
C164 C159 1_555 1_555
C165 S25 1_555 1_555
C166 C165 1_555 1_555
C167 C166 1_555 1_555
C168 C167 1_555 1_555
C169 C168 1_555 1_555
C170 C165 1_555 1_555
C171 S50 1_555 1_555
C172 C171 1_555 1_555
C173 C172 1_555 1_555
C174 C173 1_555 1_555
C175 C174 1_555 1_555
C176 C171 1_555 1_555
C177 S21 1_555 1_555
C178 C177 1_555 1_555
C179 C178 1_555 1_555
C180 C179 1_555 1_555
C181 C180 1_555 1_555
C182 C177 1_555 1_555
C183 S43 1_555 1_555
C184 C183 1_555 1_555
C185 C184 1_555 1_555
C186 C185 1_555 1_555
C187 C186 1_555 1_555
C188 C183 1_555 1_555
C189 S14 1_555 1_555
C190 C189 1_555 1_555
C191 C190 1_555 1_555
C192 C191 1_555 1_555
C193 C192 1_555 1_555
C194 C189 1_555 1_555
C195 S27 1_555 1_555
C196 C195 1_555 1_555
C197 C196 1_555 1_555
C198 C197 1_555 1_555
C199 C198 1_555 1_555
C200 C195 1_555 1_555
C201 S23 1_555 1_555
C202 C201 1_555 1_555
C203 C202 1_555 1_555
C204 C203 1_555 1_555
C205 C204 1_555 1_555
C206 C201 1_555 1_555
C207 C208 1_555 1_555
C208 C209 1_555 1_555
C209 C210 1_555 1_555
C210 C211 1_555 1_555
C211 C212 1_555 1_555
C212 C207 1_555 1_555
C213 S45 1_555 1_555
C214 C213 1_555 1_555
C215 C214 1_555 1_555
C216 C215 1_555 1_555
C217 C216 1_555 1_555
C218 C213 1_555 1_555
C219 C220 1_555 1_555
C220 C221 1_555 1_555
C221 C222 1_555 1_555
C222 C223 1_555 1_555
C223 C224 1_555 1_555
C224 C219 1_555 1_555
C225 S26 1_555 1_555
C226 C225 1_555 1_555
C227 C226 1_555 1_555
C228 C227 1_555 1_555
C229 C228 1_555 1_555
C230 C225 1_555 1_555
C231 S19 1_555 1_555
C232 C231 1_555 1_555
C233 C232 1_555 1_555
C234 C233 1_555 1_555
C235 C234 1_555 1_555
C236 C231 1_555 1_555
Cd25D N3 1_555 1_555
Cd32B N4 1_555 1_555
N3D Cd25 1_555 1_555
N4B Cd32 1_555 1_555
Cd2 S37 1_555 1_555
Cd3 S39 1_555 1_555
Cd4 S40 1_555 1_555
Cd5 S39 1_555 1_555
Cd7 S36 1_555 1_555
Cd7 S38 1_555 1_555
Cd7 S40 1_555 1_555
Cd8 S28 1_555 1_555
Cd8 S38 1_555 1_555
Cd9 S28 1_555 1_555
Cd9 S36 1_555 1_555
Cd10 S32 1_555 1_555
Cd10 S35 1_555 1_555
Cd11 S37 1_555 1_555
Cd12 S33 1_555 1_555
Cd12 S39 1_555 1_555
Cd13 S32 1_555 1_555
Cd13 S36 1_555 1_555
Cd14 S40 1_555 1_555
Cd15 S41 1_555 1_555
Cd15 S50 1_555 1_555
Cd16 S33 1_555 1_555
Cd16 S37 1_555 1_555
Cd17 S20 1_555 1_555
Cd17 S41 1_555 1_555
Cd18 S30 1_555 1_555
Cd18 S41 1_555 1_555
Cd20 S38 1_555 1_555
Cd21 S26 1_555 1_555
Cd21 S42 1_555 1_555
Cd22 S34 1_555 1_555
Cd23 S22 1_555 1_555
Cd23 S42 1_555 1_555
Cd24 S42 1_555 1_555
Cd24 S46 1_555 1_555
Cd26 S19 1_555 1_555
Cd26 S34 1_555 1_555
Cd26 S47 1_555 1_555
Cd27 S43 1_555 1_555
Cd27 S44 1_555 1_555
Cd28 S17 1_555 1_555
Cd28 S25 1_555 1_555
Cd29 S24 1_555 1_555
Cd30 S29 1_555 1_555
Cd30 S45 1_555 1_555
Cd30 S49 1_555 1_555
Cd31 S29 1_555 1_555
Cd31 S31 1_555 1_555
Cd31 S48 1_555 1_555
Cd32 S18 1_555 1_555
C8 C9 1_555 1_555
C10 C11 1_555 1_555
C13 C14 1_555 1_555
C15 C16 1_555 1_555
C20 C21 1_555 1_555
C31 C32 1_555 1_555
C37 C38 1_555 1_555
C43 C44 1_555 1_555
C49 C50 1_555 1_555
C67 C68 1_555 1_555
C73 C74 1_555 1_555
C79 C80 1_555 1_555
C85 C86 1_555 1_555
C97 C98 1_555 1_555
C109 C110 1_555 1_555
C115 C116 1_555 1_555
C121 C122 1_555 1_555
C133 C134 1_555 1_555
C139 C140 1_555 1_555
C145 C146 1_555 1_555
C151 C152 1_555 1_555
C157 C158 1_555 1_555
C169 C170 1_555 1_555
C175 C176 1_555 1_555
C181 C182 1_555 1_555
C187 C188 1_555 1_555
C193 C194 1_555 1_555
C199 C200 1_555 1_555
C205 C206 1_555 1_555
C217 C218 1_555 1_555
C229 C230 1_555 1_555
C235 C236 1_555 1_555

#END
