
#######################################################################
#
#                 Cambridge Crystallographic Data Centre
#                                CCDC 
#
#######################################################################
#
# If this CIF has been generated from an entry in the Cambridge 
# Structural Database, then it will include bibliographic, chemical, 
# crystal, experimental, refinement or atomic coordinate data resulting 
# from the CCDC's data processing and validation procedures.
#
#######################################################################

data_DAWZOR
_symmetry_cell_setting           monoclinic
_symmetry_space_group_name_H-M   'P 21/n'
_symmetry_Int_Tables_number      14
_space_group_name_Hall           '-P 2yn'
loop_
_symmetry_equiv_pos_site_id
_symmetry_equiv_pos_as_xyz
1 x,y,z
2 1/2-x,1/2+y,1/2-z
3 -x,-y,-z
4 1/2+x,1/2-y,1/2+z
_cell_length_a                   23.4374(4)
_cell_length_b                   18.9054(3)
_cell_length_c                   24.3535(4)
_cell_angle_alpha                90
_cell_angle_beta                 108.5460(10)
_cell_angle_gamma                90
_cell_volume                     10230.5
loop_
_atom_site_label
_atom_site_type_symbol
_atom_site_fract_x
_atom_site_fract_y
_atom_site_fract_z
C1 C 1.2472(2) 0.3093(2) 0.1596(2)
C2 C 1.21462(17) 0.3590(3) 0.1198(2)
H1 H 1.1745 0.3504 0.0989
C3 C 1.2420(3) 0.4215(3) 0.1115(3)
H2 H 1.2202 0.4548 0.0849
C4 C 1.3019(3) 0.4344(3) 0.1429(3)
H3 H 1.3202 0.4762 0.1373
C5 C 1.33445(19) 0.3846(4) 0.1826(3)
H4 H 1.3745 0.3932 0.2036
C6 C 1.3071(2) 0.3221(4) 0.1909(2)
H5 H 1.3289 0.2888 0.2175
C7 C 1.14588(17) 0.41073(19) 0.27652(17)
C8 C 1.1405(2) 0.4587(3) 0.3178(2)
H6 H 1.1158 0.4484 0.3400
C9 C 1.1721(3) 0.5222(3) 0.3260(3)
H7 H 1.1685 0.5543 0.3536
C10 C 1.2090(3) 0.5377(2) 0.2928(3)
H8 H 1.2301 0.5801 0.2982
C11 C 1.2143(2) 0.4897(3) 0.2515(2)
H9 H 1.2390 0.5000 0.2293
C12 C 1.1828(2) 0.4262(2) 0.24333(19)
H10 H 1.1864 0.3941 0.2157
C13 C 0.9855(2) 0.5468(2) 0.2153(2)
C14 C 0.9432(3) 0.5718(4) 0.2398(4)
H11 H 0.9079 0.5466 0.2351
C15 C 0.9538(4) 0.6345(4) 0.2712(4)
H12 H 0.9255 0.6513 0.2876
C16 C 1.0065(5) 0.6722(3) 0.2782(3)
H13 H 1.0136 0.7142 0.2992
C17 C 1.0488(4) 0.6472(3) 0.2537(3)
H14 H 1.0841 0.6724 0.2584
C18 C 1.0382(2) 0.5845(3) 0.2223(3)
H15 H 1.0665 0.5678 0.2059
C19 C 0.86660(17) 0.40777(19) -0.01173(13)
C20 C 0.90514(17) 0.4657(2) 0.00002(14)
H16 H 0.9219 0.4815 0.0379
C21 C 0.91862(19) 0.4999(2) -0.0449(2)
H17 H 0.9444 0.5386 -0.0370
C22 C 0.8936(2) 0.4762(3) -0.10148(17)
H18 H 0.9026 0.4991 -0.1315
C23 C 0.8550(2) 0.4183(3) -0.11323(12)
H19 H 0.8383 0.4024 -0.1511
C24 C 0.84155(18) 0.38406(19) -0.06835(16)
H20 H 0.8158 0.3453 -0.0762
C25 C 0.73572(18) 0.4231(3) 0.1712(2)
C26 C 0.7179(3) 0.4920(3) 0.1770(3)
H21 H 0.7466 0.5266 0.1931
C27 C 0.6571(3) 0.5094(3) 0.1587(3)
H22 H 0.6451 0.5555 0.1625
C28 C 0.6141(2) 0.4578(5) 0.1346(4)
H23 H 0.5735 0.4694 0.1224
C29 C 0.6320(2) 0.3888(4) 0.1288(4)
H24 H 0.6033 0.3543 0.1127
C30 C 0.6928(3) 0.3715(3) 0.1471(4)
H25 H 0.7048 0.3253 0.1433
C31 C 0.7690(2) 0.2614(2) 0.3010(3)
C32 C 0.7743(2) 0.3315(3) 0.3193(3)
H26 H 0.8113 0.3542 0.3286
C33 C 0.7242(4) 0.3674(3) 0.3238(3)
H27 H 0.7278 0.4143 0.3360
C34 C 0.6689(3) 0.3334(5) 0.3099(4)
H28 H 0.6354 0.3574 0.3129
C35 C 0.6636(2) 0.2633(5) 0.2916(6)
H29 H 0.6266 0.2405 0.2824
C36 C 0.7137(3) 0.2273(3) 0.2872(4)
H30 H 0.7102 0.1805 0.2749
C37 C 0.9395(3) 0.2039(4) 0.5008(3)
C38 C 0.9498(4) 0.2108(5) 0.5599(3)
H31 H 0.9554 0.2554 0.5770
C39 C 0.9517(4) 0.1510(7) 0.5937(2)
H32 H 0.9586 0.1556 0.6333
C40 C 0.9433(4) 0.0844(6) 0.5683(4)
H33 H 0.9445 0.0444 0.5909
C41 C 0.9330(4) 0.0775(4) 0.5091(4)
H34 H 0.9273 0.0329 0.4921
C42 C 0.9311(3) 0.1373(4) 0.4753(2)
H35 H 0.9242 0.1327 0.4357
C43 C 0.7159(2) 0.1499(3) 0.1253(2)
C44 C 0.7325(2) 0.0970(3) 0.1670(2)
H36 H 0.7729 0.0901 0.1879
C45 C 0.6888(4) 0.0543(4) 0.1775(3)
H37 H 0.6999 0.0189 0.2054
C46 C 0.6284(3) 0.0646(5) 0.1463(4)
H38 H 0.5991 0.0361 0.1533
C47 C 0.6118(2) 0.1176(6) 0.1046(4)
H39 H 0.5714 0.1244 0.0837
C48 C 0.6555(2) 0.1602(4) 0.0941(3)
H40 H 0.6444 0.1956 0.0662
C49 C 0.85843(16) 0.1833(2) -0.03873(12)
C50 C 0.88620(17) 0.2037(2) -0.07887(17)
H41 H 0.9279 0.2062 -0.0680
C51 C 0.8516(3) 0.2202(3) -0.13524(15)
H42 H 0.8702 0.2338 -0.1621
C52 C 0.7892(2) 0.2164(3) -0.15145(14)
H43 H 0.7660 0.2275 -0.1892
C53 C 0.76141(16) 0.1961(3) -0.1113(2)
H44 H 0.7197 0.1936 -0.1222
C54 C 0.79604(16) 0.1795(3) -0.05494(17)
H45 H 0.7775 0.1659 -0.0281
C55 C 1.08567(18) 0.08274(19) 0.16887(15)
C56 C 1.05071(18) 0.09702(19) 0.11215(18)
H46 H 1.0273 0.1377 0.1037
C57 C 1.0508(2) 0.0504(3) 0.06802(15)
H47 H 1.0274 0.0600 0.0301
C58 C 1.0859(3) -0.0104(2) 0.0806(2)
H48 H 1.0859 -0.0416 0.0511
C59 C 1.1208(2) -0.0247(2) 0.1373(3)
H49 H 1.1443 -0.0654 0.1457
C60 C 1.12072(19) 0.0219(2) 0.18146(19)
H50 H 1.1441 0.0123 0.2194
C61 C 0.94052(18) -0.01043(19) 0.18995(19)
C62 C 0.9614(3) -0.0485(3) 0.24131(17)
H51 H 0.9532 -0.0328 0.2742
C63 C 0.9945(3) -0.1100(3) 0.2435(3)
H52 H 1.0085 -0.1355 0.2779
C64 C 1.0067(2) -0.1335(2) 0.1943(3)
H53 H 1.0289 -0.1747 0.1958
C65 C 0.9858(3) -0.0955(3) 0.1429(3)
H54 H 0.9940 -0.1112 0.1100
C66 C 0.9527(2) -0.0339(3) 0.14077(18)
H55 H 0.9388 -0.0085 0.1064
C67 C 1.0160(4) 0.4064(5) 0.3815(3)
C68 C 1.0650(5) 0.3636(5) 0.4093(5)
H56 H 1.0647 0.3160 0.3995
C69 C 1.1143(4) 0.3920(8) 0.4517(5)
H57 H 1.1471 0.3634 0.4702
C70 C 1.1147(5) 0.4631(9) 0.4663(5)
H58 H 1.1478 0.4821 0.4946
C71 C 1.0658(7) 0.5058(6) 0.4385(7)
H59 H 1.0661 0.5534 0.4483
C72 C 1.0165(6) 0.4775(5) 0.3961(6)
H60 H 0.9837 0.5061 0.3775
C73 C 1.04617(17) 0.2919(2) 0.02700(13)
C74 C 1.01408(18) 0.3308(2) -0.02142(17)
H61 H 0.9894 0.3677 -0.0177
C75 C 1.0189(2) 0.3144(3) -0.07542(14)
H62 H 0.9974 0.3404 -0.1078
C76 C 1.0558(2) 0.2592(3) -0.08100(15)
H63 H 1.0590 0.2483 -0.1171
C77 C 1.0879(2) 0.2203(3) -0.0326(2)
H64 H 1.1126 0.1834 -0.0363
C78 C 1.08308(19) 0.2367(2) 0.02141(17)
H65 H 1.1046 0.2106 0.0538
C79 C 1.0619(2) 0.1516(4) 0.3901(2)
C80 C 1.0686(3) 0.1605(7) 0.4485(3)
H66 H 1.0348 0.1668 0.4603
C81 C 1.1256(4) 0.1599(9) 0.4893(2)
H67 H 1.1301 0.1658 0.5284
C82 C 1.1760(3) 0.1505(7) 0.4717(4)
H68 H 1.2142 0.1501 0.4990
C83 C 1.1694(2) 0.1417(7) 0.4133(5)
H69 H 1.2031 0.1354 0.4016
C84 C 1.1123(3) 0.1422(6) 0.3725(3)
H70 H 1.1078 0.1363 0.3335
N1 N 0.79288(17) 0.01601(18) 0.04140(16)
C85 C 0.80796(19) -0.0110(2) -0.00526(19)
H71 H 0.8379 0.0107 -0.0169
C86 C 0.7784(2) -0.0703(2) -0.03454(17)
H72 H 0.7884 -0.0883 -0.0658
C87 C 0.73366(18) -0.10260(18) -0.01715(18)
C88 C 0.7186(2) -0.0756(2) 0.0295(2)
H73 H 0.6887 -0.0973 0.0411
C89 C 0.7482(2) -0.0163(2) 0.05879(19)
H74 H 0.7381 0.0017 0.0900
C90 C 0.6995(3) -0.1666(3) -0.0506(3)
H75 H 0.6964 -0.1621 -0.0911
H76 H 0.6590 -0.1670 -0.0480
C91 C 0.7307(4) -0.2369(4) -0.0269(4)
H77 H 0.7119 -0.2746 -0.0534
H78 H 0.7725 -0.2342 -0.0253
C92 C 0.7282(5) -0.2538(5) 0.0292(4)
H79 H 0.6873 -0.2504 0.0304
H80 H 0.7537 -0.2223 0.0582
N2 N 0.8137(2) -0.4592(2) 0.0871(2)
C93 C 0.7543(2) -0.4626(3) 0.0513(3)
H81 H 0.7350 -0.5061 0.0430
C94 C 0.7239(2) -0.4010(4) 0.0278(3)
H82 H 0.6842 -0.4033 0.0038
C95 C 0.7529(3) -0.3360(3) 0.0402(4)
C96 C 0.8123(3) -0.3326(2) 0.0760(5)
H83 H 0.8317 -0.2891 0.0843
C97 C 0.8427(2) -0.3942(3) 0.0995(4)
H84 H 0.8825 -0.3919 0.1235
Cd1 Cd 0.830275(18) 0.26807(2) 0.196967(18)
Cd2 Cd 0.934710(16) 0.27573(2) 0.084847(15)
Cd3 Cd 0.998268(17) 0.36598(2) 0.245098(16)
Cd4 Cd 0.987539(19) 0.15409(2) 0.237710(16)
Cd5 Cd 1.118088(18) 0.25910(2) 0.183709(18)
Cd6 Cd 0.843080(19) 0.11214(2) 0.091170(18)
Cd7 Cd 0.862588(19) 0.44306(2) 0.128022(19)
Cd8 Cd 0.93001(2) 0.25733(3) 0.36365(2)
S1 S 0.93630(14) 0.28394(17) 0.46348(10)
S2 S 1.21483(8) 0.22854(10) 0.17132(9)
S3 S 0.93503(5) 0.26533(6) 0.18833(5)
S4 S 1.03916(6) 0.31775(8) 0.09508(6)
S5 S 0.84727(6) 0.35999(8) 0.04327(6)
S6 S 1.10689(6) 0.32938(7) 0.26989(6)
S7 S 0.90582(6) 0.15809(7) 0.03171(6)
S8 S 0.97409(6) 0.46903(7) 0.17298(6)
S9 S 0.98701(7) 0.14970(9) 0.34139(6)
S10 S 1.09010(7) 0.14283(8) 0.22622(7)
S11 S 0.90077(7) 0.06835(8) 0.19105(6)
S12 S 0.82974(6) 0.21292(8) 0.29062(6)
S13 S 0.76934(6) 0.20303(9) 0.10508(7)
S14 S 0.81221(7) 0.40140(8) 0.19928(7)
S15 S 0.95349(7) 0.37871(9) 0.32587(7)
N2_2 N 0.8137(2) 0.5408(2) 0.0871(2)
Cd7_2 Cd 0.862588(19) -0.55694(2) 0.128022(19)
loop_
_geom_bond_atom_site_label_1
_geom_bond_atom_site_label_2
_geom_bond_site_symmetry_1
_geom_bond_site_symmetry_2
C1 C2 1_555 1_555
C2 H1 1_555 1_555
C3 C2 1_555 1_555
H2 C3 1_555 1_555
C4 C3 1_555 1_555
H3 C4 1_555 1_555
C5 C4 1_555 1_555
H4 C5 1_555 1_555
C6 C1 1_555 1_555
H5 C6 1_555 1_555
C7 C8 1_555 1_555
C8 H6 1_555 1_555
C9 C8 1_555 1_555
H7 C9 1_555 1_555
C10 C9 1_555 1_555
H8 C10 1_555 1_555
C11 C10 1_555 1_555
H9 C11 1_555 1_555
C12 C7 1_555 1_555
H10 C12 1_555 1_555
C13 C14 1_555 1_555
C14 H11 1_555 1_555
C15 C14 1_555 1_555
H12 C15 1_555 1_555
C16 C15 1_555 1_555
H13 C16 1_555 1_555
C17 C16 1_555 1_555
H14 C17 1_555 1_555
C18 C13 1_555 1_555
H15 C18 1_555 1_555
C19 C20 1_555 1_555
C20 H16 1_555 1_555
C21 C20 1_555 1_555
H17 C21 1_555 1_555
C22 C21 1_555 1_555
H18 C22 1_555 1_555
C23 C22 1_555 1_555
H19 C23 1_555 1_555
C24 C19 1_555 1_555
H20 C24 1_555 1_555
C25 C26 1_555 1_555
C26 H21 1_555 1_555
C27 C26 1_555 1_555
H22 C27 1_555 1_555
C28 C27 1_555 1_555
H23 C28 1_555 1_555
C29 C28 1_555 1_555
H24 C29 1_555 1_555
C30 C25 1_555 1_555
H25 C30 1_555 1_555
C31 C32 1_555 1_555
C32 H26 1_555 1_555
C33 C32 1_555 1_555
H27 C33 1_555 1_555
C34 C33 1_555 1_555
H28 C34 1_555 1_555
C35 C34 1_555 1_555
H29 C35 1_555 1_555
C36 C31 1_555 1_555
H30 C36 1_555 1_555
C37 C38 1_555 1_555
C38 H31 1_555 1_555
C39 C38 1_555 1_555
H32 C39 1_555 1_555
C40 C39 1_555 1_555
H33 C40 1_555 1_555
C41 C40 1_555 1_555
H34 C41 1_555 1_555
C42 C37 1_555 1_555
H35 C42 1_555 1_555
C43 C44 1_555 1_555
C44 H36 1_555 1_555
C45 C44 1_555 1_555
H37 C45 1_555 1_555
C46 C45 1_555 1_555
H38 C46 1_555 1_555
C47 C46 1_555 1_555
H39 C47 1_555 1_555
C48 C43 1_555 1_555
H40 C48 1_555 1_555
C49 C50 1_555 1_555
C50 H41 1_555 1_555
C51 C50 1_555 1_555
H42 C51 1_555 1_555
C52 C51 1_555 1_555
H43 C52 1_555 1_555
C53 C52 1_555 1_555
H44 C53 1_555 1_555
C54 C49 1_555 1_555
H45 C54 1_555 1_555
C55 C56 1_555 1_555
C56 H46 1_555 1_555
C57 C56 1_555 1_555
H47 C57 1_555 1_555
C58 C57 1_555 1_555
H48 C58 1_555 1_555
C59 C58 1_555 1_555
H49 C59 1_555 1_555
C60 C55 1_555 1_555
H50 C60 1_555 1_555
C61 C62 1_555 1_555
C62 H51 1_555 1_555
C63 C62 1_555 1_555
H52 C63 1_555 1_555
C64 C63 1_555 1_555
H53 C64 1_555 1_555
C65 C64 1_555 1_555
H54 C65 1_555 1_555
C66 C61 1_555 1_555
H55 C66 1_555 1_555
C67 C68 1_555 1_555
C68 H56 1_555 1_555
C69 C68 1_555 1_555
H57 C69 1_555 1_555
C70 C69 1_555 1_555
H58 C70 1_555 1_555
C71 C70 1_555 1_555
H59 C71 1_555 1_555
C72 C67 1_555 1_555
H60 C72 1_555 1_555
C73 C74 1_555 1_555
C74 H61 1_555 1_555
C75 C74 1_555 1_555
H62 C75 1_555 1_555
C76 C75 1_555 1_555
H63 C76 1_555 1_555
C77 C76 1_555 1_555
H64 C77 1_555 1_555
C78 C73 1_555 1_555
H65 C78 1_555 1_555
C79 C80 1_555 1_555
C80 H66 1_555 1_555
C81 C80 1_555 1_555
H67 C81 1_555 1_555
C82 C81 1_555 1_555
H68 C82 1_555 1_555
C83 C82 1_555 1_555
H69 C83 1_555 1_555
C84 C79 1_555 1_555
H70 C84 1_555 1_555
N1 C85 1_555 1_555
C85 H71 1_555 1_555
C86 C85 1_555 1_555
H72 C86 1_555 1_555
C87 C86 1_555 1_555
C88 C87 1_555 1_555
H73 C88 1_555 1_555
C89 N1 1_555 1_555
H74 C89 1_555 1_555
C90 C87 1_555 1_555
H75 C90 1_555 1_555
H76 C90 1_555 1_555
C91 C90 1_555 1_555
H77 C91 1_555 1_555
H78 C91 1_555 1_555
C92 C91 1_555 1_555
H79 C92 1_555 1_555
H80 C92 1_555 1_555
N2 C93 1_555 1_555
C93 H81 1_555 1_555
C94 C93 1_555 1_555
H82 C94 1_555 1_555
C95 C92 1_555 1_555
C96 C95 1_555 1_555
H83 C96 1_555 1_555
C97 N2 1_555 1_555
H84 C97 1_555 1_555
Cd1 S3 1_555 1_555
Cd2 S3 1_555 1_555
Cd3 S3 1_555 1_555
Cd4 S3 1_555 1_555
Cd5 S2 1_555 1_555
Cd6 N1 1_555 1_555
Cd7 S5 1_555 1_555
Cd8 S1 1_555 1_555
S1 C37 1_555 1_555
S2 C1 1_555 1_555
S4 C73 1_555 1_555
S5 C19 1_555 1_555
S6 C7 1_555 1_555
S7 C49 1_555 1_555
S8 C13 1_555 1_555
S9 C79 1_555 1_555
S10 C55 1_555 1_555
S11 C61 1_555 1_555
S12 C31 1_555 1_555
S13 C43 1_555 1_555
S14 C25 1_555 1_555
S15 C67 1_555 1_555
N2_2 Cd7 1_555 1_555
Cd7_2 N2 1_555 1_555
C5 C6 1_555 1_555
C11 C12 1_555 1_555
C17 C18 1_555 1_555
C23 C24 1_555 1_555
C29 C30 1_555 1_555
C35 C36 1_555 1_555
C41 C42 1_555 1_555
C47 C48 1_555 1_555
C53 C54 1_555 1_555
C59 C60 1_555 1_555
C65 C66 1_555 1_555
C71 C72 1_555 1_555
C77 C78 1_555 1_555
C83 C84 1_555 1_555
C88 C89 1_555 1_555
C94 C95 1_555 1_555
C96 C97 1_555 1_555
Cd1 S12 1_555 1_555
Cd1 S13 1_555 1_555
Cd1 S14 1_555 1_555
Cd2 S4 1_555 1_555
Cd2 S5 1_555 1_555
Cd2 S7 1_555 1_555
Cd3 S6 1_555 1_555
Cd3 S8 1_555 1_555
Cd3 S15 1_555 1_555
Cd4 S9 1_555 1_555
Cd4 S10 1_555 1_555
Cd4 S11 1_555 1_555
Cd5 S4 1_555 1_555
Cd5 S6 1_555 1_555
Cd5 S10 1_555 1_555
Cd6 S7 1_555 1_555
Cd6 S11 1_555 1_555
Cd6 S13 1_555 1_555
Cd7 S8 1_555 1_555
Cd7 S14 1_555 1_555
Cd8 S9 1_555 1_555
Cd8 S12 1_555 1_555
Cd8 S15 1_555 1_555

#END
