
#######################################################################
#
#                 Cambridge Crystallographic Data Centre
#                                CCDC 
#
#######################################################################
#
# If this CIF has been generated from an entry in the Cambridge 
# Structural Database, then it will include bibliographic, chemical, 
# crystal, experimental, refinement or atomic coordinate data resulting 
# from the CCDC's data processing and validation procedures.
#
#######################################################################

data_DAWZEH
_symmetry_cell_setting           orthorhombic
_symmetry_space_group_name_H-M   'I b c a'
_symmetry_Int_Tables_number      73
_space_group_name_Hall           '-I 2b 2c'
loop_
_symmetry_equiv_pos_site_id
_symmetry_equiv_pos_as_xyz
1 x,y,z
2 1/2+x,1/2+y,1/2+z
3 1/2-x,-y,1/2+z
4 -x,1/2+y,1/2-z
5 1/2+x,1/2-y,-z
6 -x,1/2-y,z
7 1/2-x,y,-z
8 x,-y,1/2-z
9 -x,-y,-z
10 1/2-x,1/2-y,1/2-z
11 1/2+x,y,1/2-z
12 x,1/2-y,1/2+z
13 1/2-x,1/2+y,z
14 x,1/2+y,-z
15 1/2+x,-y,z
16 -x,y,1/2+z
_cell_length_a                   26.3539(8)
_cell_length_b                   34.5150(10)
_cell_length_c                   73.258(2)
_cell_angle_alpha                90
_cell_angle_beta                 90
_cell_angle_gamma                90
_cell_volume                     66635.8
loop_
_atom_site_label
_atom_site_type_symbol
_atom_site_fract_x
_atom_site_fract_y
_atom_site_fract_z
C1 C 0.0146(13) 0.7154(10) 0.2605(6)
C2 C 0.0000 0.7500 0.2498(6)
N1 N 0.1547(7) 0.7285(7) 0.2903(3)
C3 C 0.1451(10) 0.7532(6) 0.2757(4)
C4 C 0.0995(13) 0.7503(8) 0.2662(3)
C5 C 0.0637(8) 0.7229(10) 0.2713(4)
C6 C 0.0734(10) 0.6982(7) 0.2859(5)
C7 C 0.1189(12) 0.7010(7) 0.2954(3)
C24 C 0.5945(10) 0.8251(9) 0.4732(3)
C25 C 0.6284(11) 0.8546(7) 0.4775(4)
C26 C 0.6521(11) 0.8552(9) 0.4944(5)
C27 C 0.6420(15) 0.8263(12) 0.5071(3)
C28 C 0.6081(17) 0.7968(10) 0.5029(4)
C29 C 0.5843(13) 0.7962(8) 0.4859(5)
C30 C 0.6195(14) 0.6983(15) 0.4729(6)
C31 C 0.6167(13) 0.6858(15) 0.4909(6)
C32 C 0.661(2) 0.6750(18) 0.5001(4)
C33 C 0.7073(14) 0.6767(18) 0.4913(7)
C34 C 0.7100(14) 0.6892(18) 0.4733(7)
C35 C 0.666(2) 0.7000(18) 0.4641(4)
C36 C 0.7187(11) 0.6427(8) 0.4318(4)
C37 C 0.7152(11) 0.6365(10) 0.4505(5)
C38 C 0.7590(16) 0.6345(10) 0.4610(3)
C39 C 0.8063(12) 0.6388(10) 0.4529(5)
C40 C 0.8098(10) 0.6450(11) 0.4341(5)
C41 C 0.7660(15) 0.6470(10) 0.4236(3)
C42 C 0.5694(10) 0.5932(7) 0.4815(3)
C43 C 0.5973(8) 0.5803(7) 0.4964(4)
C44 C 0.5798(11) 0.5871(7) 0.5140(3)
C45 C 0.5344(11) 0.6068(7) 0.5167(3)
C46 C 0.5065(8) 0.6197(7) 0.5018(4)
C47 C 0.5240(10) 0.6129(7) 0.4842(3)
Cd1 Cd 0.50723(6) 0.69114(4) 0.39622(2)
Cd2 Cd 0.42283(6) 0.74577(4) 0.35810(2)
Cd3 Cd 0.57897(7) 0.75750(5) 0.43611(2)
Cd4 Cd 0.66171(7) 0.70053(5) 0.39887(2)
Cd5 Cd 0.58735(7) 0.63685(5) 0.35480(2)
Cd6 Cd 0.35149(7) 0.68641(5) 0.39845(2)
Cd7 Cd 0.49853(7) 0.68785(5) 0.31910(2)
Cd8 Cd 0.53276(7) 0.57337(5) 0.39534(2)
Cd9 Cd 0.30739(7) 0.67565(5) 0.34302(2)
Cd10 Cd 0.58472(9) 0.64357(6) 0.43942(2)
Cd11 Cd 0.53010(9) 0.53412(7) 0.44766(3)
Cd12 Cd 0.43326(8) 0.62142(6) 0.43329(3)
Cd13 Cd 0.37293(8) 0.75250(5) 0.30462(2)
Cd14 Cd 0.22744(9) 0.73354(6) 0.30759(3)
Cd15 Cd 0.28443(7) 0.79421(5) 0.34765(2)
C48 C 0.2320(10) 0.8466(5) 0.3794(3)
C49 C 0.1795(9) 0.8509(7) 0.3791(3)
C50 C 0.1582(7) 0.8877(9) 0.3781(4)
C51 C 0.1893(12) 0.9202(6) 0.3774(3)
C52 C 0.2417(11) 0.9159(6) 0.3777(3)
C53 C 0.2631(6) 0.8791(8) 0.3787(3)
C54 C 0.6105(6) 0.5038(7) 0.4163(2)
C55 C 0.6449(9) 0.5339(5) 0.4185(2)
C56 C 0.6966(8) 0.5261(6) 0.4194(2)
C57 C 0.7138(6) 0.4882(7) 0.4180(3)
C58 C 0.6794(10) 0.4581(5) 0.4157(3)
C59 C 0.6277(9) 0.4659(6) 0.4148(2)
C60 C 0.3046(10) 0.8909(5) 0.3284(3)
C61 C 0.2523(10) 0.8941(7) 0.3305(3)
C62 C 0.2277(7) 0.9281(10) 0.3256(3)
C63 C 0.2554(13) 0.9591(6) 0.3186(3)
C64 C 0.3076(13) 0.9559(6) 0.3165(4)
C65 C 0.3322(7) 0.9218(8) 0.3214(4)
C66 C 0.6027(11) 0.5367(6) 0.3625(3)
C67 C 0.6345(9) 0.5060(10) 0.3669(3)
C68 C 0.6318(12) 0.4716(8) 0.3571(5)
C69 C 0.5972(14) 0.4679(7) 0.3429(5)
C70 C 0.5653(11) 0.4986(10) 0.3385(3)
C71 C 0.5681(9) 0.5330(7) 0.3483(4)
C72 C 0.4444(8) 0.5240(5) 0.3671(3)
C73 C 0.4633(9) 0.4907(8) 0.3753(3)
C74 C 0.4601(11) 0.4553(5) 0.3664(5)
C75 C 0.4380(11) 0.4533(7) 0.3492(4)
C76 C 0.4191(10) 0.4866(10) 0.3409(3)
C77 C 0.4224(9) 0.5220(7) 0.3499(3)
C78 C 0.4140(9) 0.8379(7) 0.2826(3)
C79 C 0.4164(10) 0.8744(9) 0.2905(3)
C80 C 0.3975(11) 0.9064(6) 0.2813(4)
C81 C 0.3762(11) 0.9020(7) 0.2641(4)
C82 C 0.3737(9) 0.8655(9) 0.2561(3)
C83 C 0.3926(9) 0.8334(6) 0.2653(3)
C84 C 0.4181(10) 0.6614(7) 0.2833(3)
C85 C 0.4595(9) 0.6371(8) 0.2804(3)
C86 C 0.4669(10) 0.6202(8) 0.2634(4)
C87 C 0.4329(13) 0.6274(9) 0.2492(3)
C88 C 0.3916(11) 0.6516(9) 0.2521(3)
C89 C 0.3842(9) 0.6686(7) 0.2691(4)
C90 C 0.2344(13) 0.6316(7) 0.3089(3)
C91 C 0.2792(11) 0.6299(8) 0.2990(4)
C92 C 0.2866(11) 0.6003(11) 0.2864(4)
C93 C 0.2493(16) 0.5724(8) 0.2838(4)
C94 C 0.2045(12) 0.5741(8) 0.2937(5)
C95 C 0.1970(9) 0.6037(10) 0.3063(4)
C96 C 0.1554(12) 0.7688(11) 0.3397(5)
C97 C 0.1618(11) 0.7420(10) 0.3537(5)
C98 C 0.1200(17) 0.7288(10) 0.3634(5)
C99 C 0.0717(13) 0.7422(13) 0.3591(6)
C100 C 0.0653(11) 0.7690(12) 0.3451(6)
C101 C 0.1071(17) 0.7823(10) 0.3354(5)
C102 C 0.2756(7) 0.7949(5) 0.2773(3)
C103 C 0.2733(8) 0.8265(7) 0.28898(19)
C104 C 0.2573(8) 0.8624(6) 0.2825(3)
C105 C 0.2435(9) 0.8666(5) 0.2643(4)
C106 C 0.2458(9) 0.8350(7) 0.2526(2)
C107 C 0.2618(9) 0.7991(6) 0.2590(3)
C108 C 0.3079(7) 0.6215(7) 0.4329(2)
C109 C 0.2978(8) 0.5862(6) 0.4413(3)
C110 C 0.2636(10) 0.5843(6) 0.4557(3)
C111 C 0.2396(9) 0.6178(9) 0.4618(3)
C112 C 0.2498(11) 0.6531(7) 0.4534(4)
C113 C 0.2840(10) 0.6549(6) 0.4390(4)
C114 C 0.2264(7) 0.6705(7) 0.3834(3)
C115 C 0.1997(11) 0.6424(8) 0.3738(3)
C116 C 0.1568(10) 0.6255(6) 0.3814(4)
C117 C 0.1406(8) 0.6366(8) 0.3987(5)
C118 C 0.1673(11) 0.6646(9) 0.4083(3)
C119 C 0.2102(10) 0.6816(7) 0.4007(3)
C120 C 0.4030(8) 0.5239(6) 0.4416(4)
C121 C 0.3742(10) 0.4988(8) 0.4521(2)
C122 C 0.3441(8) 0.4709(6) 0.4438(4)
C123 C 0.3429(8) 0.4681(6) 0.4249(4)
C124 C 0.3717(10) 0.4933(8) 0.4143(2)
C125 C 0.4018(8) 0.5212(6) 0.4227(4)
C126 C 0.3186(7) 0.5837(5) 0.3519(3)
C127 C 0.2922(9) 0.5541(7) 0.3431(2)
C128 C 0.2636(9) 0.5281(6) 0.3533(4)
C129 C 0.2613(9) 0.5315(6) 0.3722(4)
C130 C 0.2877(9) 0.5610(7) 0.3809(2)
C131 C 0.3163(7) 0.5871(5) 0.3708(3)
S1 S 0.4280(2) 0.68456(15) 0.37710(7)
S2 S 0.5000 0.7500 0.41646(10)
S3 S 0.6605(2) 0.75779(17) 0.41939(8)
S4 S 0.5868(2) 0.69380(15) 0.37702(7)
S5 S 0.5000 0.7500 0.33763(10)
S6 S 0.5158(3) 0.63107(18) 0.41609(8)
S7 S 0.3456(2) 0.74206(16) 0.33750(8)
S8 S 0.4470(2) 0.56801(18) 0.37946(9)
S9 S 0.5114(2) 0.62620(16) 0.33549(8)
S10 S 0.6622(3) 0.63958(18) 0.41844(8)
S11 S 0.6094(2) 0.57911(18) 0.37518(8)
S12 S 0.5613(3) 0.8204(2) 0.45401(10)
S13 S 0.4406(3) 0.5600(2) 0.45282(10)
S14 S 0.3528(3) 0.62060(18) 0.41454(9)
S15 S 0.5698(3) 0.7019(2) 0.45895(9)
S16 S 0.2559(2) 0.79848(17) 0.38004(8)
S17 S 0.2795(3) 0.69451(18) 0.37514(9)
S18 S 0.4089(3) 0.68325(19) 0.30533(9)
S19 S 0.2056(3) 0.7910(2) 0.32717(11)
S20 S 0.2949(3) 0.7491(2) 0.28418(10)
S21 S 0.3564(2) 0.61464(18) 0.33831(9)
S22 S 0.2243(3) 0.6712(2) 0.32511(11)
S23 S 0.3383(3) 0.84665(18) 0.33327(8)
S24 S 0.4409(3) 0.7951(2) 0.29289(9)
S25 S 0.5435(3) 0.51268(19) 0.41517(9)
S26 S 0.5936(3) 0.5828(2) 0.45883(10)
S27 S 0.5420(5) 0.4743(3) 0.46660(14)
Cd16 Cd 0.43823(7) 0.62443(5) 0.35690(2)
C1E C -0.0146(13) 0.7846(10) 0.2605(6)
N1E N -0.1547(7) 0.7715(7) 0.2903(3)
N1E_2 N 0.8453(7) 0.7715(7) 0.2903(3)
C3E C -0.1451(10) 0.7468(6) 0.2757(4)
C4E C -0.0995(13) 0.7497(8) 0.2662(3)
C5E C -0.0637(8) 0.7771(10) 0.2713(4)
C6E C -0.0734(10) 0.8018(7) 0.2859(5)
C7E C -0.1189(12) 0.7990(7) 0.2954(3)
C24E C 0.4055(10) 0.6749(9) 0.4732(3)
C25E C 0.3716(11) 0.6454(7) 0.4775(4)
C26E C 0.3479(11) 0.6448(9) 0.4944(5)
C27E C 0.3580(15) 0.6737(12) 0.5071(3)
C28E C 0.3919(17) 0.7032(10) 0.5029(4)
C29E C 0.4157(13) 0.7038(8) 0.4859(5)
C30E C 0.3805(14) 0.8017(15) 0.4729(6)
C31E C 0.3833(13) 0.8142(15) 0.4909(6)
C32E C 0.339(2) 0.8250(18) 0.5001(4)
C33E C 0.2927(14) 0.8233(18) 0.4913(7)
C34E C 0.2900(14) 0.8108(18) 0.4733(7)
C35E C 0.334(2) 0.8000(18) 0.4641(4)
C36E C 0.2813(11) 0.8573(8) 0.4318(4)
C37E C 0.2848(11) 0.8635(10) 0.4505(5)
C38E C 0.2410(16) 0.8655(10) 0.4610(3)
C39E C 0.1937(12) 0.8612(10) 0.4529(5)
C40E C 0.1902(10) 0.8550(11) 0.4341(5)
C41E C 0.2340(15) 0.8530(10) 0.4236(3)
C42E C 0.4306(10) 0.9068(7) 0.4815(3)
C43E C 0.4027(8) 0.9197(7) 0.4964(4)
C44E C 0.4202(11) 0.9129(7) 0.5140(3)
C45E C 0.4656(11) 0.8932(7) 0.5167(3)
C46E C 0.4935(8) 0.8803(7) 0.5018(4)
C47E C 0.4760(10) 0.8871(7) 0.4842(3)
Cd1E Cd 0.49277(6) 0.80886(4) 0.39622(2)
Cd2E Cd 0.57717(6) 0.75423(4) 0.35810(2)
Cd3E Cd 0.42103(7) 0.74250(5) 0.43611(2)
Cd4E Cd 0.33829(7) 0.79947(5) 0.39887(2)
Cd5E Cd 0.41265(7) 0.86315(5) 0.35480(2)
Cd6E Cd 0.64851(7) 0.81359(5) 0.39845(2)
Cd7E Cd 0.50147(7) 0.81215(5) 0.31910(2)
Cd8E Cd 0.46724(7) 0.92663(5) 0.39534(2)
Cd9E Cd 0.69261(7) 0.82435(5) 0.34302(2)
Cd10E Cd 0.41528(9) 0.85643(6) 0.43942(2)
Cd11E Cd 0.46990(9) 0.96588(7) 0.44766(3)
Cd12E Cd 0.56674(8) 0.87858(6) 0.43329(3)
Cd13E Cd 0.62707(8) 0.74750(5) 0.30462(2)
Cd14E Cd -0.22744(9) 0.76646(6) 0.30759(3)
Cd14E_2 Cd 0.77256(9) 0.76646(6) 0.30759(3)
Cd15E Cd 0.71557(7) 0.70579(5) 0.34765(2)
C48E C 0.7680(10) 0.6534(5) 0.3794(3)
C49E C 0.8205(9) 0.6491(7) 0.3791(3)
C50E C 0.8418(7) 0.6123(9) 0.3781(4)
C51E C 0.8107(12) 0.5798(6) 0.3774(3)
C52E C 0.7583(11) 0.5841(6) 0.3777(3)
C53E C 0.7369(6) 0.6209(8) 0.3787(3)
C54E C 0.3895(6) 0.9962(7) 0.4163(2)
C55E C 0.3551(9) 0.9661(5) 0.4185(2)
C56E C 0.3034(8) 0.9739(6) 0.4194(2)
C57E C 0.2862(6) 1.0118(7) 0.4180(3)
C58E C 0.3206(10) 1.0419(5) 0.4157(3)
C59E C 0.3723(9) 1.0341(6) 0.4148(2)
C60E C 0.6954(10) 0.6091(5) 0.3284(3)
C61E C 0.7477(10) 0.6059(7) 0.3305(3)
C62E C 0.7723(7) 0.5719(10) 0.3256(3)
C63E C 0.7446(13) 0.5409(6) 0.3186(3)
C64E C 0.6924(13) 0.5441(6) 0.3165(4)
C65E C 0.6678(7) 0.5782(8) 0.3214(4)
C66E C 0.3973(11) 0.9633(6) 0.3625(3)
C67E C 0.3655(9) 0.9940(10) 0.3669(3)
C68E C 0.3682(12) 1.0284(8) 0.3571(5)
C69E C 0.4028(14) 1.0321(7) 0.3429(5)
C70E C 0.4347(11) 1.0014(10) 0.3385(3)
C71E C 0.4319(9) 0.9670(7) 0.3483(4)
C72E C 0.5556(8) 0.9760(5) 0.3671(3)
C73E C 0.5367(9) 1.0093(8) 0.3753(3)
C74E C 0.5399(11) 1.0447(5) 0.3664(5)
C75E C 0.5620(11) 1.0467(7) 0.3492(4)
C76E C 0.5809(10) 1.0134(10) 0.3409(3)
C77E C 0.5776(9) 0.9780(7) 0.3499(3)
C78E C 0.5860(9) 0.6621(7) 0.2826(3)
C79E C 0.5836(10) 0.6256(9) 0.2905(3)
C80E C 0.6025(11) 0.5936(6) 0.2813(4)
C81E C 0.6238(11) 0.5980(7) 0.2641(4)
C82E C 0.6263(9) 0.6345(9) 0.2561(3)
C83E C 0.6074(9) 0.6666(6) 0.2653(3)
C84E C 0.5819(10) 0.8386(7) 0.2833(3)
C85E C 0.5405(9) 0.8629(8) 0.2804(3)
C86E C 0.5331(10) 0.8798(8) 0.2634(4)
C87E C 0.5671(13) 0.8726(9) 0.2492(3)
C88E C 0.6084(11) 0.8484(9) 0.2521(3)
C89E C 0.6158(9) 0.8314(7) 0.2691(4)
C90E C 0.7656(13) 0.8684(7) 0.3089(3)
C91E C 0.7208(11) 0.8701(8) 0.2990(4)
C92E C 0.7134(11) 0.8997(11) 0.2864(4)
C93E C 0.7507(16) 0.9276(8) 0.2838(4)
C94E C 0.7955(12) 0.9259(8) 0.2937(5)
C95E C 0.8030(9) 0.8963(10) 0.3063(4)
C96E C 0.8446(12) 0.7312(11) 0.3397(5)
C97E C 0.8382(11) 0.7580(10) 0.3537(5)
C98E C 0.8800(17) 0.7712(10) 0.3634(5)
C99E C 0.9283(13) 0.7578(13) 0.3591(6)
C100E C 0.9347(11) 0.7310(12) 0.3451(6)
C101E C 0.8929(17) 0.7177(10) 0.3354(5)
C102E C 0.7244(7) 0.7051(5) 0.2773(3)
C103E C 0.7267(8) 0.6735(7) 0.28898(19)
C104E C 0.7427(8) 0.6376(6) 0.2825(3)
C105E C 0.7565(9) 0.6334(5) 0.2643(4)
C106E C 0.7542(9) 0.6650(7) 0.2526(2)
C107E C 0.7382(9) 0.7009(6) 0.2590(3)
C108E C 0.6921(7) 0.8785(7) 0.4329(2)
C109E C 0.7022(8) 0.9138(6) 0.4413(3)
C110E C 0.7364(10) 0.9157(6) 0.4557(3)
C111E C 0.7604(9) 0.8822(9) 0.4618(3)
C112E C 0.7502(11) 0.8469(7) 0.4534(4)
C113E C 0.7160(10) 0.8451(6) 0.4390(4)
C114E C 0.7736(7) 0.8295(7) 0.3834(3)
C115E C 0.8003(11) 0.8576(8) 0.3738(3)
C116E C 0.8432(10) 0.8745(6) 0.3814(4)
C117E C 0.8594(8) 0.8634(8) 0.3987(5)
C118E C 0.8327(11) 0.8354(9) 0.4083(3)
C119E C 0.7898(10) 0.8184(7) 0.4007(3)
C120E C 0.5970(8) 0.9761(6) 0.4416(4)
C121E C 0.6258(10) 1.0012(8) 0.4521(2)
C122E C 0.6559(8) 1.0291(6) 0.4438(4)
C123E C 0.6571(8) 1.0319(6) 0.4249(4)
C124E C 0.6283(10) 1.0067(8) 0.4143(2)
C125E C 0.5982(8) 0.9788(6) 0.4227(4)
C126E C 0.6814(7) 0.9163(5) 0.3519(3)
C127E C 0.7078(9) 0.9459(7) 0.3431(2)
C128E C 0.7364(9) 0.9719(6) 0.3533(4)
C129E C 0.7387(9) 0.9685(6) 0.3722(4)
C130E C 0.7123(9) 0.9390(7) 0.3809(2)
C131E C 0.6837(7) 0.9129(5) 0.3708(3)
S1E S 0.5720(2) 0.81544(15) 0.37710(7)
S3E S 0.3395(2) 0.74221(17) 0.41939(8)
S4E S 0.4132(2) 0.80620(15) 0.37702(7)
S6E S 0.4842(3) 0.86893(18) 0.41609(8)
S7E S 0.6544(2) 0.75794(16) 0.33750(8)
S8E S 0.5530(2) 0.93199(18) 0.37946(9)
S9E S 0.4886(2) 0.87380(16) 0.33549(8)
S10E S 0.3378(3) 0.86042(18) 0.41844(8)
S11E S 0.3906(2) 0.92089(18) 0.37518(8)
S12E S 0.4387(3) 0.6796(2) 0.45401(10)
S13E S 0.5594(3) 0.9400(2) 0.45282(10)
S14E S 0.6472(3) 0.87940(18) 0.41454(9)
S15E S 0.4302(3) 0.7981(2) 0.45895(9)
S16E S 0.7441(2) 0.70152(17) 0.38004(8)
S17E S 0.7205(3) 0.80549(18) 0.37514(9)
S18E S 0.5911(3) 0.81675(19) 0.30533(9)
S19E S 0.7944(3) 0.7090(2) 0.32717(11)
S20E S 0.7051(3) 0.7509(2) 0.28418(10)
S21E S 0.6436(2) 0.88536(18) 0.33831(9)
S22E S 0.7757(3) 0.8288(2) 0.32511(11)
S23E S 0.6617(3) 0.65335(18) 0.33327(8)
S24E S 0.5591(3) 0.7049(2) 0.29289(9)
S25E S 0.4565(3) 0.98732(19) 0.41517(9)
S26E S 0.4064(3) 0.9172(2) 0.45883(10)
S27E S 0.4580(5) 1.0257(3) 0.46660(14)
Cd16E Cd 0.56177(7) 0.87557(5) 0.35690(2)
C8 C 0.0961(11) 0.7658(6) 0.4354(5)
C9 C 0.1242(17) 0.7763(10) 0.4201(4)
C10 C 0.1757(16) 0.7676(12) 0.4193(5)
C11 C 0.1990(11) 0.7486(10) 0.4338(6)
C12 C 0.1708(15) 0.7382(10) 0.4491(5)
C13 C 0.1194(15) 0.7468(10) 0.4499(4)
C14 C 0.0491(14) 0.861(2) 0.4279(5)
C15 C 0.031(2) 0.8984(17) 0.4278(6)
C16 C -0.018(3) 0.9060(13) 0.4340(6)
C17 C -0.0485(15) 0.876(2) 0.4404(6)
C18 C -0.030(2) 0.8382(16) 0.4405(5)
C19 C 0.019(2) 0.8306(13) 0.4342(4)
C20 C 0.012(2) 0.7677(15) 0.4597(7)
C21 C 0.025(2) 0.7875(16) 0.4753(8)
C22 C 0.003(3) 0.7733(18) 0.4933(8)
C23 C 0.016(2) 0.7355(14) 0.4143(5)
P1 P 0.0319(8) 0.7768(5) 0.4363(3)
C8E C -0.0961(11) 0.7342(6) 0.4354(5)
C9E C -0.1242(17) 0.7237(10) 0.4201(4)
C10E C -0.1757(16) 0.7324(12) 0.4193(5)
C11E C -0.1990(11) 0.7514(10) 0.4338(6)
C12E C -0.1708(15) 0.7618(10) 0.4491(5)
C13E C -0.1194(15) 0.7532(10) 0.4499(4)
C14E C -0.0491(14) 0.639(2) 0.4279(5)
C15E C -0.031(2) 0.6016(17) 0.4278(6)
C16E C 0.018(3) 0.5940(13) 0.4340(6)
C17E C 0.0485(15) 0.624(2) 0.4404(6)
C18E C 0.030(2) 0.6618(16) 0.4405(5)
C19E C -0.019(2) 0.6694(13) 0.4342(4)
C20E C -0.012(2) 0.7323(15) 0.4597(7)
C21E C -0.025(2) 0.7125(16) 0.4753(8)
C22E C -0.003(3) 0.7267(18) 0.4933(8)
C23E C -0.016(2) 0.7645(14) 0.4143(5)
P1E P -0.0319(8) 0.7232(5) 0.4363(3)
loop_
_geom_bond_atom_site_label_1
_geom_bond_atom_site_label_2
_geom_bond_site_symmetry_1
_geom_bond_site_symmetry_2
C1 C2 1_555 1_555
C2 C1E 1_555 1_555
N1 C3 1_555 1_555
C3 C4 1_555 1_555
C4 C5 1_555 1_555
C5 C1 1_555 1_555
C6 C5 1_555 1_555
C7 N1 1_555 1_555
C8 C9 1_555 1_555
C9 C10 1_555 1_555
C10 C11 1_555 1_555
C11 C12 1_555 1_555
C12 C13 1_555 1_555
C13 C8 1_555 1_555
C14 C15 1_555 1_555
C15 C16 1_555 1_555
C16 C17 1_555 1_555
C17 C18 1_555 1_555
C18 C19 1_555 1_555
C19 C14 1_555 1_555
C20 C21 1_555 1_555
C21 C22 1_555 1_555
C22 C22E 1_555 1_555
C23 P1 1_555 1_555
C24 C25 1_555 1_555
C25 C26 1_555 1_555
C26 C27 1_555 1_555
C27 C28 1_555 1_555
C28 C29 1_555 1_555
C29 C24 1_555 1_555
C30 C31 1_555 1_555
C31 C32 1_555 1_555
C32 C33 1_555 1_555
C33 C34 1_555 1_555
C34 C35 1_555 1_555
C35 C30 1_555 1_555
C36 C37 1_555 1_555
C37 C38 1_555 1_555
C38 C39 1_555 1_555
C39 C40 1_555 1_555
C40 C41 1_555 1_555
C41 C36 1_555 1_555
C42 C43 1_555 1_555
C43 C44 1_555 1_555
C44 C45 1_555 1_555
C45 C46 1_555 1_555
C46 C47 1_555 1_555
C47 C42 1_555 1_555
Cd1 S1 1_555 1_555
Cd2 S1 1_555 1_555
Cd3 S2 1_555 1_555
Cd4 S3 1_555 1_555
Cd5 S4 1_555 1_555
Cd6 S1 1_555 1_555
Cd7 S5 1_555 1_555
Cd8 S6 1_555 1_555
Cd9 S7 1_555 1_555
Cd10 S6 1_555 1_555
Cd11 S13 1_555 1_555
Cd12 S6 1_555 1_555
Cd13 S7 1_555 1_555
Cd14 N1 1_555 1_555
Cd15 S7 1_555 1_555
C48 C49 1_555 1_555
C49 C50 1_555 1_555
C50 C51 1_555 1_555
C51 C52 1_555 1_555
C52 C53 1_555 1_555
C53 C48 1_555 1_555
C54 C55 1_555 1_555
C55 C56 1_555 1_555
C56 C57 1_555 1_555
C57 C58 1_555 1_555
C58 C59 1_555 1_555
C59 C54 1_555 1_555
C60 C61 1_555 1_555
C61 C62 1_555 1_555
C62 C63 1_555 1_555
C63 C64 1_555 1_555
C64 C65 1_555 1_555
C65 C60 1_555 1_555
C66 C67 1_555 1_555
C67 C68 1_555 1_555
C68 C69 1_555 1_555
C69 C70 1_555 1_555
C70 C71 1_555 1_555
C71 C66 1_555 1_555
C72 C73 1_555 1_555
C73 C74 1_555 1_555
C74 C75 1_555 1_555
C75 C76 1_555 1_555
C76 C77 1_555 1_555
C77 C72 1_555 1_555
C78 C79 1_555 1_555
C79 C80 1_555 1_555
C80 C81 1_555 1_555
C81 C82 1_555 1_555
C82 C83 1_555 1_555
C83 C78 1_555 1_555
C84 C85 1_555 1_555
C85 C86 1_555 1_555
C86 C87 1_555 1_555
C87 C88 1_555 1_555
C88 C89 1_555 1_555
C89 C84 1_555 1_555
C90 C91 1_555 1_555
C91 C92 1_555 1_555
C92 C93 1_555 1_555
C93 C94 1_555 1_555
C94 C95 1_555 1_555
C95 C90 1_555 1_555
C96 C97 1_555 1_555
C97 C98 1_555 1_555
C98 C99 1_555 1_555
C99 C100 1_555 1_555
C100 C101 1_555 1_555
C101 C96 1_555 1_555
C102 C103 1_555 1_555
C103 C104 1_555 1_555
C104 C105 1_555 1_555
C105 C106 1_555 1_555
C106 C107 1_555 1_555
C107 C102 1_555 1_555
C108 C109 1_555 1_555
C109 C110 1_555 1_555
C110 C111 1_555 1_555
C111 C112 1_555 1_555
C112 C113 1_555 1_555
C113 C108 1_555 1_555
C114 C115 1_555 1_555
C115 C116 1_555 1_555
C116 C117 1_555 1_555
C117 C118 1_555 1_555
C118 C119 1_555 1_555
C119 C114 1_555 1_555
C120 C121 1_555 1_555
C121 C122 1_555 1_555
C122 C123 1_555 1_555
C123 C124 1_555 1_555
C124 C125 1_555 1_555
C125 C120 1_555 1_555
C126 C127 1_555 1_555
C127 C128 1_555 1_555
C128 C129 1_555 1_555
C129 C130 1_555 1_555
C130 C131 1_555 1_555
C131 C126 1_555 1_555
P1 C8 1_555 1_555
S1 Cd16 1_555 1_555
S2 Cd1 1_555 1_555
S3 Cd3 1_555 1_555
S4 Cd1 1_555 1_555
S5 Cd2 1_555 1_555
S6 Cd1 1_555 1_555
S7 Cd2 1_555 1_555
S8 Cd8 1_555 1_555
S9 Cd5 1_555 1_555
S10 C36 1_555 1_555
S11 Cd5 1_555 1_555
S12 C24 1_555 1_555
S13 Cd12 1_555 1_555
S14 Cd6 1_555 1_555
S15 C30 1_555 1_555
S16 Cd15 1_555 1_555
S17 Cd6 1_555 1_555
S18 Cd7 1_555 1_555
S19 Cd14 1_555 1_555
S20 Cd13 1_555 1_555
S21 Cd9 1_555 1_555
S22 Cd9 1_555 1_555
S23 Cd15 1_555 1_555
S24 Cd13 1_555 1_555
S25 Cd8 1_555 1_555
S26 C42 1_555 1_555
S27 Cd11 1_555 1_555
Cd16 S8 1_555 1_555
C1E C5E 1_555 1_555
N1E C3E 1_555 1_555
N1E_2 Cd14E_2 1_555 1_555
C3E C4E 1_555 1_555
C4E C5E 1_555 1_555
C5E C6E 1_555 1_555
C6E C7E 1_555 1_555
C7E N1E 1_555 1_555
C8E C9E 1_555 1_555
C9E C10E 1_555 1_555
C10E C11E 1_555 1_555
C11E C12E 1_555 1_555
C12E C13E 1_555 1_555
C13E C8E 1_555 1_555
C14E C15E 1_555 1_555
C15E C16E 1_555 1_555
C16E C17E 1_555 1_555
C17E C18E 1_555 1_555
C18E C19E 1_555 1_555
C19E C14E 1_555 1_555
C20E C20 1_555 1_555
C21E C20E 1_555 1_555
C22E C21E 1_555 1_555
C23E C23 1_555 1_555
C24E C25E 1_555 1_555
C25E C26E 1_555 1_555
C26E C27E 1_555 1_555
C27E C28E 1_555 1_555
C28E C29E 1_555 1_555
C29E C24E 1_555 1_555
C30E C31E 1_555 1_555
C31E C32E 1_555 1_555
C32E C33E 1_555 1_555
C33E C34E 1_555 1_555
C34E C35E 1_555 1_555
C35E C30E 1_555 1_555
C36E C37E 1_555 1_555
C37E C38E 1_555 1_555
C38E C39E 1_555 1_555
C39E C40E 1_555 1_555
C40E C41E 1_555 1_555
C41E C36E 1_555 1_555
C42E C43E 1_555 1_555
C43E C44E 1_555 1_555
C44E C45E 1_555 1_555
C45E C46E 1_555 1_555
C46E C47E 1_555 1_555
C47E C42E 1_555 1_555
Cd1E S2 1_555 1_555
Cd2E S4 1_555 1_555
Cd3E S2 1_555 1_555
Cd4E S16 1_555 1_555
Cd5E S23 1_555 1_555
Cd6E S3 1_555 1_555
Cd7E S5 1_555 1_555
Cd8E S6E 1_555 1_555
Cd9E S7E 1_555 1_555
Cd10E S6E 1_555 1_555
Cd11E S13E 1_555 1_555
Cd12E S12 1_555 1_555
Cd13E S7E 1_555 1_555
Cd14E N1E 1_555 1_555
Cd14E_2 S19E 1_555 1_555
Cd15E S7E 1_555 1_555
C48E C49E 1_555 1_555
C49E C50E 1_555 1_555
C50E C51E 1_555 1_555
C51E C52E 1_555 1_555
C52E C53E 1_555 1_555
C53E C48E 1_555 1_555
C54E C55E 1_555 1_555
C55E C56E 1_555 1_555
C56E C57E 1_555 1_555
C57E C58E 1_555 1_555
C58E C59E 1_555 1_555
C59E C54E 1_555 1_555
C60E C61E 1_555 1_555
C61E C62E 1_555 1_555
C62E C63E 1_555 1_555
C63E C64E 1_555 1_555
C64E C65E 1_555 1_555
C65E C60E 1_555 1_555
C66E C67E 1_555 1_555
C67E C68E 1_555 1_555
C68E C69E 1_555 1_555
C69E C70E 1_555 1_555
C70E C71E 1_555 1_555
C71E C66E 1_555 1_555
C72E C73E 1_555 1_555
C73E C74E 1_555 1_555
C74E C75E 1_555 1_555
C75E C76E 1_555 1_555
C76E C77E 1_555 1_555
C77E C72E 1_555 1_555
C78E C79E 1_555 1_555
C79E C80E 1_555 1_555
C80E C81E 1_555 1_555
C81E C82E 1_555 1_555
C82E C83E 1_555 1_555
C83E C78E 1_555 1_555
C84E C85E 1_555 1_555
C85E C86E 1_555 1_555
C86E C87E 1_555 1_555
C87E C88E 1_555 1_555
C88E C89E 1_555 1_555
C89E C84E 1_555 1_555
C90E C91E 1_555 1_555
C91E C92E 1_555 1_555
C92E C93E 1_555 1_555
C93E C94E 1_555 1_555
C94E C95E 1_555 1_555
C95E C90E 1_555 1_555
C96E C97E 1_555 1_555
C97E C98E 1_555 1_555
C98E C99E 1_555 1_555
C99E C100E 1_555 1_555
C100E C101E 1_555 1_555
C101E C96E 1_555 1_555
C102E C103E 1_555 1_555
C103E C104E 1_555 1_555
C104E C105E 1_555 1_555
C105E C106E 1_555 1_555
C106E C107E 1_555 1_555
C107E C102E 1_555 1_555
C108E C109E 1_555 1_555
C109E C110E 1_555 1_555
C110E C111E 1_555 1_555
C111E C112E 1_555 1_555
C112E C113E 1_555 1_555
C113E C108E 1_555 1_555
C114E C115E 1_555 1_555
C115E C116E 1_555 1_555
C116E C117E 1_555 1_555
C117E C118E 1_555 1_555
C118E C119E 1_555 1_555
C119E C114E 1_555 1_555
C120E C121E 1_555 1_555
C121E C122E 1_555 1_555
C122E C123E 1_555 1_555
C123E C124E 1_555 1_555
C124E C125E 1_555 1_555
C125E C120E 1_555 1_555
C126E C127E 1_555 1_555
C127E C128E 1_555 1_555
C128E C129E 1_555 1_555
C129E C130E 1_555 1_555
C130E C131E 1_555 1_555
C131E C126E 1_555 1_555
P1E C23 1_555 1_555
S1E Cd1E 1_555 1_555
S3E Cd6 1_555 1_555
S4E Cd2 1_555 1_555
S6E Cd1E 1_555 1_555
S7E Cd2E 1_555 1_555
S8E Cd8E 1_555 1_555
S9E Cd5E 1_555 1_555
S10E C36E 1_555 1_555
S11E Cd5E 1_555 1_555
S12E Cd12 1_555 1_555
S13E Cd12E 1_555 1_555
S14E Cd6E 1_555 1_555
S15E C30E 1_555 1_555
S16E Cd4 1_555 1_555
S17E Cd6E 1_555 1_555
S18E Cd7E 1_555 1_555
S19E Cd15E 1_555 1_555
S20E Cd13E 1_555 1_555
S21E Cd9E 1_555 1_555
S22E Cd9E 1_555 1_555
S23E Cd5 1_555 1_555
S24E Cd7 1_555 1_555
S25E Cd8E 1_555 1_555
S26E C42E 1_555 1_555
S27E Cd11E 1_555 1_555
Cd16E S1E 1_555 1_555
C6 C7 1_555 1_555
C19 P1 1_555 1_555
C20 P1 1_555 1_555
Cd3 S12 1_555 1_555
Cd3 S15 1_555 1_555
Cd4 S4 1_555 1_555
Cd4 S10 1_555 1_555
Cd7 S9 1_555 1_555
Cd8 S11 1_555 1_555
Cd9 S17 1_555 1_555
Cd10 S10 1_555 1_555
Cd10 S15 1_555 1_555
Cd10 S26 1_555 1_555
Cd11 S25 1_555 1_555
Cd11 S26 1_555 1_555
Cd12 S14 1_555 1_555
Cd13 S18 1_555 1_555
Cd14 S20 1_555 1_555
Cd14 S22 1_555 1_555
Cd15 S19 1_555 1_555
C48 S16 1_555 1_555
C54 S25 1_555 1_555
C60 S23 1_555 1_555
C66 S11 1_555 1_555
C72 S8 1_555 1_555
C78 S24 1_555 1_555
C84 S18 1_555 1_555
C90 S22 1_555 1_555
C96 S19 1_555 1_555
C102 S20 1_555 1_555
C108 S14 1_555 1_555
C114 S17 1_555 1_555
C120 S13 1_555 1_555
C126 S21 1_555 1_555
P1 C23E 1_555 1_555
P1 P1E 1_555 1_555
S5 Cd2E 1_555 1_555
S9 Cd16 1_555 1_555
S21 Cd16 1_555 1_555
S24 Cd7E 1_555 1_555
C8E P1E 1_555 1_555
C19E P1E 1_555 1_555
C20E P1E 1_555 1_555
C23E P1E 1_555 1_555
C24E S12E 1_555 1_555
Cd1E S4E 1_555 1_555
Cd2E S1E 1_555 1_555
Cd3E S3E 1_555 1_555
Cd3E S12E 1_555 1_555
Cd3E S15E 1_555 1_555
Cd4E S3E 1_555 1_555
Cd4E S4E 1_555 1_555
Cd4E S10E 1_555 1_555
Cd5E S4E 1_555 1_555
Cd6E S1E 1_555 1_555
Cd7E S9E 1_555 1_555
Cd8E S11E 1_555 1_555
Cd9E S17E 1_555 1_555
Cd10E S10E 1_555 1_555
Cd10E S15E 1_555 1_555
Cd10E S26E 1_555 1_555
Cd11E S25E 1_555 1_555
Cd11E S26E 1_555 1_555
Cd12E S6E 1_555 1_555
Cd12E S14E 1_555 1_555
Cd13E S18E 1_555 1_555
Cd13E S24E 1_555 1_555
Cd14E_2 S20E 1_555 1_555
Cd14E_2 S22E 1_555 1_555
Cd15E S16E 1_555 1_555
Cd15E S23E 1_555 1_555
C48E S16E 1_555 1_555
C54E S25E 1_555 1_555
C60E S23E 1_555 1_555
C66E S11E 1_555 1_555
C72E S8E 1_555 1_555
C78E S24E 1_555 1_555
C84E S18E 1_555 1_555
C90E S22E 1_555 1_555
C96E S19E 1_555 1_555
C102E S20E 1_555 1_555
C108E S14E 1_555 1_555
C114E S17E 1_555 1_555
C120E S13E 1_555 1_555
C126E S21E 1_555 1_555
S8E Cd16E 1_555 1_555
S9E Cd16E 1_555 1_555
S21E Cd16E 1_555 1_555

#END
