
#######################################################################
#
#                 Cambridge Crystallographic Data Centre
#                                CCDC 
#
#######################################################################
#
# If this CIF has been generated from an entry in the Cambridge 
# Structural Database, then it will include bibliographic, chemical, 
# crystal, experimental, refinement or atomic coordinate data resulting 
# from the CCDC's data processing and validation procedures.
#
#######################################################################

data_DAWZIL
_symmetry_cell_setting           monoclinic
_symmetry_space_group_name_H-M   'C 2/c'
_symmetry_Int_Tables_number      15
_space_group_name_Hall           '-C 2yn'
loop_
_symmetry_equiv_pos_site_id
_symmetry_equiv_pos_as_xyz
1 x,y,z
2 1/2+x,1/2+y,z
3 -x,y,1/2-z
4 1/2-x,1/2+y,1/2-z
5 -x,-y,-z
6 1/2-x,1/2-y,-z
7 x,-y,1/2+z
8 1/2+x,1/2-y,1/2+z
_cell_length_a                   30.0750(5)
_cell_length_b                   58.6144(10)
_cell_length_c                   31.8999(5)
_cell_angle_alpha                90
_cell_angle_beta                 101.9450(10)
_cell_angle_gamma                90
_cell_volume                     55016.4
loop_
_atom_site_label
_atom_site_type_symbol
_atom_site_fract_x
_atom_site_fract_y
_atom_site_fract_z
C1 C 0.4529(6) 0.2074(3) 0.0654(9)
C2 C 0.4578(7) 0.2270(6) 0.0905(5)
C3 C 0.4739(8) 0.2470(4) 0.0755(10)
C4 C 0.4851(7) 0.2474(4) 0.0354(11)
C5 C 0.4803(7) 0.2278(6) 0.0103(6)
C6 C 0.4642(7) 0.2078(4) 0.0253(8)
C7 C 0.3968(9) 0.2367(3) 0.1800(7)
C8 C 0.3717(5) 0.2523(5) 0.1519(6)
C9 C 0.3896(9) 0.2737(4) 0.1466(6)
C10 C 0.4326(10) 0.2795(3) 0.1694(8)
C11 C 0.4577(5) 0.2639(5) 0.1976(7)
C12 C 0.4398(8) 0.2425(4) 0.2029(5)
C13 C 0.5640(6) 0.2199(3) 0.1739(8)
C14 C 0.5929(9) 0.2359(5) 0.1976(5)
C15 C 0.6180(7) 0.2505(3) 0.1771(11)
C16 C 0.6142(8) 0.2490(4) 0.1330(11)
C17 C 0.5853(10) 0.2330(5) 0.1094(5)
C18 C 0.5602(7) 0.2184(4) 0.1299(8)
C19 C 0.6852(9) 0.1696(8) 0.2197(8)
C20 C 0.7163(15) 0.1560(3) 0.2045(10)
C21 C 0.7502(10) 0.1660(8) 0.1871(10)
C22 C 0.7531(12) 0.1896(9) 0.1849(11)
C23 C 0.7221(18) 0.2032(3) 0.2000(13)
C24 C 0.6881(12) 0.1932(8) 0.2175(11)
C25 C 0.5729(14) 0.1608(4) 0.0894(13)
C26 C 0.6121(14) 0.1728(7) 0.1074(7)
C27 C 0.6302(10) 0.1885(7) 0.0830(16)
C28 C 0.6091(17) 0.1924(6) 0.0406(15)
C29 C 0.5699(17) 0.1804(8) 0.0225(7)
C30 C 0.5518(10) 0.1647(7) 0.0469(15)
C31 C 0.6900(10) 0.1084(4) 0.1311(7)
C32 C 0.6686(5) 0.1220(4) 0.0972(10)
C33 C 0.6932(12) 0.1310(3) 0.0688(6)
C34 C 0.7394(11) 0.1264(4) 0.0741(8)
C35 C 0.7609(5) 0.1127(5) 0.1079(10)
C36 C 0.7362(10) 0.1037(3) 0.1364(6)
C37 C 0.6945(5) 0.0868(3) 0.3368(3)
C38 C 0.7349(6) 0.09887(17) 0.3489(5)
C39 C 0.7704(4) 0.0898(3) 0.3792(5)
C40 C 0.7656(4) 0.0687(3) 0.3975(4)
C41 C 0.7252(6) 0.05659(18) 0.3855(4)
C42 C 0.6897(4) 0.0656(2) 0.3551(5)
C43 C 0.6035(7) 0.0172(2) 0.2132(4)
C44 C 0.5568(7) 0.0160(3) 0.2104(5)
C45 C 0.5346(4) -0.0049(5) 0.2025(5)
C46 C 0.5591(8) -0.0245(3) 0.1976(5)
C47 C 0.6057(8) -0.0232(3) 0.2004(5)
C48 C 0.6279(4) -0.0023(4) 0.2082(5)
C49 C 0.6327(7) 0.0218(5) 0.0668(11)
C50 C 0.6200(10) 0.0276(3) 0.0238(13)
C51 C 0.5891(11) 0.0141(7) -0.0040(6)
C52 C 0.5710(7) -0.0052(6) 0.0113(12)
C53 C 0.5837(11) -0.0111(4) 0.0544(14)
C54 C 0.6146(11) 0.0024(7) 0.0821(6)
C55 C 0.4176(4) 0.0354(2) 0.1552(4)
C56 C 0.4107(4) 0.03832(19) 0.1111(5)
C57 C 0.3804(5) 0.0243(2) 0.0839(3)
C58 C 0.3571(4) 0.0073(2) 0.1009(4)
C59 C 0.3641(4) 0.00435(19) 0.1450(5)
C60 C 0.3943(5) 0.0184(2) 0.1722(3)
C61 C 0.5406(6) 0.0713(4) 0.0604(5)
C62 C 0.5555(6) 0.0936(4) 0.0573(7)
C63 C 0.5524(7) 0.1036(3) 0.0173(10)
C64 C 0.5345(7) 0.0913(5) -0.0196(6)
C65 C 0.5196(6) 0.0691(5) -0.0165(6)
C66 C 0.5227(6) 0.0591(2) 0.0235(9)
C67 C 0.3996(5) 0.09472(19) 0.0659(4)
C68 C 0.3532(5) 0.0917(2) 0.0631(4)
C69 C 0.3280(3) 0.0790(2) 0.0296(5)
C70 C 0.3491(6) 0.0693(2) -0.0009(4)
C71 C 0.3955(6) 0.0723(2) 0.0020(4)
C72 C 0.4207(3) 0.0850(2) 0.0354(5)
C73 C 0.2964(6) 0.1487(2) 0.0750(4)
C74 C 0.3183(4) 0.1476(2) 0.0407(6)
C75 C 0.2943(7) 0.1414(2) 0.0003(5)
C76 C 0.2483(7) 0.1361(2) -0.0058(4)
C77 C 0.2264(4) 0.1371(3) 0.0285(7)
C78 C 0.2504(6) 0.1434(3) 0.0689(5)
N3 N 0.3232(6) 0.2131(2) 0.0704(4)
C245 C 0.2783(7) 0.2157(3) 0.0742(4)
C246 C 0.2496(4) 0.2303(3) 0.0468(6)
C247 C 0.2658(6) 0.2423(2) 0.0155(5)
C248 C 0.3107(7) 0.2397(3) 0.0117(4)
C249 C 0.3394(4) 0.2251(3) 0.0391(6)
Cd2 Cd 0.5000 0.12625(3) 0.2500
Cd4 Cd 0.49212(5) 0.08360(2) 0.14880(4)
Cd7 Cd 0.60513(5) 0.12685(2) 0.18644(5)
Cd9 Cd 0.59084(5) 0.07116(2) 0.26148(4)
Cd12 Cd 0.38578(5) 0.12650(2) 0.15807(4)
Cd15 Cd 0.58395(5) 0.18280(2) 0.25844(4)
Cd17 Cd 0.49421(5) 0.16987(3) 0.14950(4)
Cd18 Cd 0.62408(5) 0.05995(3) 0.14600(5)
Cd19 Cd 0.36956(5) 0.18987(2) 0.11707(5)
S3 S 0.43561(19) 0.18170(10) 0.08312(17)
S7 S 0.52887(18) 0.20212(9) 0.19922(16)
S8 S 0.6698(2) 0.03812(13) 0.1045(2)
S9 S 0.5475(2) 0.14290(11) 0.12300(18)
S10 S 0.54650(16) 0.10141(8) 0.21167(14)
S11 S 0.44817(16) 0.15249(8) 0.19886(14)
S19 S 0.63322(17) 0.04405(9) 0.22323(15)
S20 S 0.45715(17) 0.05322(9) 0.19151(15)
S22 S 0.53987(17) 0.05869(9) 0.11017(16)
S25 S 0.66137(18) 0.09825(9) 0.17078(18)
S26 S 0.65063(17) 0.09995(8) 0.29654(15)
S36 S 0.6427(2) 0.15580(10) 0.2414(2)
S37 S 0.3720(2) 0.21043(9) 0.18613(18)
S41 S 0.43391(17) 0.11127(9) 0.10720(15)
S44 S 0.32364(16) 0.15545(8) 0.12808(15)
C1B C 0.5471(6) 0.2074(3) 0.4346(9)
C2B C 0.5422(7) 0.2270(6) 0.4095(5)
C3B C 0.5261(8) 0.2470(4) 0.4245(10)
C4B C 0.5149(7) 0.2474(4) 0.4646(11)
C5B C 0.5197(7) 0.2278(6) 0.4897(6)
C6B C 0.5358(7) 0.2078(4) 0.4747(8)
C7B C 0.6032(9) 0.2367(3) 0.3200(7)
C8B C 0.6283(5) 0.2523(5) 0.3481(6)
C9B C 0.6104(9) 0.2737(4) 0.3534(6)
C10B C 0.5674(10) 0.2795(3) 0.3306(8)
C11B C 0.5423(5) 0.2639(5) 0.3024(7)
C12B C 0.5602(8) 0.2425(4) 0.2971(5)
C13B C 0.4360(6) 0.2199(3) 0.3261(8)
C14B C 0.4071(9) 0.2359(5) 0.3024(5)
C15B C 0.3820(7) 0.2505(3) 0.3229(11)
C16B C 0.3858(8) 0.2490(4) 0.3670(11)
C17B C 0.4147(10) 0.2330(5) 0.3906(5)
C18B C 0.4398(7) 0.2184(4) 0.3701(8)
C19B C 0.3148(9) 0.1696(8) 0.2803(8)
C20B C 0.2837(15) 0.1560(3) 0.2955(10)
C21B C 0.2498(10) 0.1660(8) 0.3129(10)
C22B C 0.2469(12) 0.1896(9) 0.3151(11)
C23B C 0.2779(18) 0.2032(3) 0.3000(13)
C24B C 0.3119(12) 0.1932(8) 0.2825(11)
C25B C 0.4271(14) 0.1608(4) 0.4106(13)
C26B C 0.3879(14) 0.1728(7) 0.3926(7)
C27B C 0.3698(10) 0.1885(7) 0.4170(16)
C28B C 0.3909(17) 0.1924(6) 0.4594(15)
C29B C 0.4301(17) 0.1804(8) 0.4775(7)
C30B C 0.4482(10) 0.1647(7) 0.4531(15)
C31B C 0.3100(10) 0.1084(4) 0.3689(7)
C32B C 0.3314(5) 0.1220(4) 0.4028(10)
C33B C 0.3068(12) 0.1310(3) 0.4312(6)
C34B C 0.2606(11) 0.1264(4) 0.4259(8)
C35B C 0.2391(5) 0.1127(5) 0.3921(10)
C36B C 0.2638(10) 0.1037(3) 0.3636(6)
C37B C 0.3055(5) 0.0868(3) 0.1632(3)
C38B C 0.2651(6) 0.09887(17) 0.1511(5)
C39B C 0.2296(4) 0.0898(3) 0.1208(5)
C40B C 0.2344(4) 0.0687(3) 0.1025(4)
C41B C 0.2748(6) 0.05659(18) 0.1145(4)
C42B C 0.3103(4) 0.0656(2) 0.1449(5)
C43B C 0.3965(7) 0.0172(2) 0.2868(4)
C44B C 0.4432(7) 0.0160(3) 0.2896(5)
C45B C 0.4654(4) -0.0049(5) 0.2975(5)
C46B C 0.4409(8) -0.0245(3) 0.3024(5)
C47B C 0.3943(8) -0.0232(3) 0.2996(5)
C48B C 0.3721(4) -0.0023(4) 0.2918(5)
C49B C 0.3673(7) 0.0218(5) 0.4332(11)
C50B C 0.3800(10) 0.0276(3) 0.4762(13)
C51B C 0.4109(11) 0.0141(7) 0.5040(6)
C52B C 0.4290(7) -0.0052(6) 0.4887(12)
C53B C 0.4163(11) -0.0111(4) 0.4456(14)
C54B C 0.3854(11) 0.0024(7) 0.4179(6)
C55B C 0.5824(4) 0.0354(2) 0.3448(4)
C56B C 0.5893(4) 0.03832(19) 0.3889(5)
C57B C 0.6196(5) 0.0243(2) 0.4161(3)
C58B C 0.6429(4) 0.0073(2) 0.3991(4)
C59B C 0.6359(4) 0.00435(19) 0.3550(5)
C60B C 0.6057(5) 0.0184(2) 0.3278(3)
C61B C 0.4594(6) 0.0713(4) 0.4396(5)
C62B C 0.4445(6) 0.0936(4) 0.4427(7)
C63B C 0.4476(7) 0.1036(3) 0.4827(10)
C64B C 0.4655(7) 0.0913(5) 0.5196(6)
C65B C 0.4804(6) 0.0691(5) 0.5165(6)
C66B C 0.4773(6) 0.0591(2) 0.4765(9)
C67B C 0.6004(5) 0.09472(19) 0.4341(4)
C68B C 0.6468(5) 0.0917(2) 0.4369(4)
C69B C 0.6720(3) 0.0790(2) 0.4704(5)
C70B C 0.6509(6) 0.0693(2) 0.5009(4)
C71B C 0.6045(6) 0.0723(2) 0.4980(4)
C72B C 0.5793(3) 0.0850(2) 0.4646(5)
C73B C 0.7036(6) 0.1487(2) 0.4250(4)
C74B C 0.6817(4) 0.1476(2) 0.4593(6)
C75B C 0.7057(7) 0.1414(2) 0.4997(5)
C76B C 0.7517(7) 0.1361(2) 0.5058(4)
C77B C 0.7736(4) 0.1371(3) 0.4715(7)
C78B C 0.7496(6) 0.1434(3) 0.4311(5)
N3B N 0.6768(6) 0.2131(2) 0.4296(4)
N3E N 0.1768(6) 0.2869(2) -0.0704(4)
C245E C 0.2217(7) 0.2843(3) -0.0742(4)
C246E C 0.2504(4) 0.2697(3) -0.0468(6)
C247E C 0.2342(6) 0.2577(2) -0.0155(5)
C248E C 0.1893(7) 0.2603(3) -0.0117(4)
C249E C 0.1606(4) 0.2749(3) -0.0391(6)
Cd4B Cd 0.50788(5) 0.08360(2) 0.35120(4)
Cd7B Cd 0.39487(5) 0.12685(2) 0.31356(5)
Cd9B Cd 0.40916(5) 0.07116(2) 0.23852(4)
Cd12B Cd 0.61422(5) 0.12650(2) 0.34193(4)
Cd15B Cd 0.41605(5) 0.18280(2) 0.24156(4)
Cd17B Cd 0.50579(5) 0.16987(3) 0.35050(4)
Cd18B Cd 0.37592(5) 0.05995(3) 0.35400(5)
Cd19B Cd 0.63044(5) 0.18987(2) 0.38293(5)
Cd19E Cd 0.13044(5) 0.31013(2) -0.11707(5)
S3B S 0.56439(19) 0.18170(10) 0.41688(17)
S7B S 0.47113(18) 0.20212(9) 0.30078(16)
S8B S 0.3302(2) 0.03812(13) 0.3955(2)
S9B S 0.4525(2) 0.14290(11) 0.37700(18)
S10B S 0.45350(16) 0.10141(8) 0.28833(14)
S11B S 0.55183(16) 0.15249(8) 0.30114(14)
S19B S 0.36678(17) 0.04405(9) 0.27677(15)
S20B S 0.54285(17) 0.05322(9) 0.30849(15)
S22B S 0.46013(17) 0.05869(9) 0.38983(16)
S25B S 0.33863(18) 0.09825(9) 0.32922(18)
S26B S 0.34937(17) 0.09995(8) 0.20346(15)
S36B S 0.3573(2) 0.15580(10) 0.2586(2)
S37B S 0.6280(2) 0.21043(9) 0.31387(18)
S41B S 0.56609(17) 0.11127(9) 0.39280(15)
S44B S 0.67636(16) 0.15545(8) 0.37192(15)
C79 C 0.2092(5) -0.0131(2) 0.4180(3)
C80 C 0.1875(3) -0.0183(2) 0.4513(5)
C81 C 0.2129(5) -0.0223(2) 0.4922(4)
C82 C 0.2601(5) -0.0210(2) 0.5000(3)
C83 C 0.2818(3) -0.0157(2) 0.4667(6)
C84 C 0.2564(5) -0.0118(2) 0.4258(4)
C85 C 0.1580(6) 0.0566(4) 0.2885(6)
C86 C 0.1979(9) 0.0441(2) 0.3010(5)
C87 C 0.2371(6) 0.0508(4) 0.2877(6)
C88 C 0.2365(7) 0.0699(4) 0.2619(6)
C89 C 0.1967(10) 0.0824(3) 0.2494(5)
C90 C 0.1574(6) 0.0758(4) 0.2627(6)
C91 C 0.0540(5) 0.0393(2) 0.4372(6)
C92 C 0.0550(5) 0.0404(3) 0.4810(5)
C93 C 0.0395(5) 0.0597(4) 0.4985(4)
C94 C 0.0229(5) 0.0781(2) 0.4724(7)
C95 C 0.0219(5) 0.0771(2) 0.4286(6)
C96 C 0.0375(5) 0.0577(3) 0.4111(3)
C97 C 0.1810(4) -0.0010(3) 0.2202(4)
C98 C 0.2202(6) -0.01424(18) 0.2267(4)
C99 C 0.2585(4) -0.0063(3) 0.2134(4)
C100 C 0.2577(4) 0.0148(3) 0.1934(4)
C101 C 0.2185(6) 0.02801(19) 0.1869(4)
C102 C 0.1801(4) 0.0201(2) 0.2002(4)
C103 C 0.1961(5) -0.0773(3) 0.3376(4)
C104 C 0.1937(5) -0.0996(3) 0.3522(5)
C105 C 0.2250(6) -0.10720(19) 0.3877(6)
C106 C 0.2589(5) -0.0926(3) 0.4087(4)
C107 C 0.2613(4) -0.0704(3) 0.3941(5)
C108 C 0.2299(6) -0.06275(19) 0.3586(5)
C109 C 0.1784(6) -0.0548(2) 0.1216(5)
C110 C 0.1511(4) -0.0540(2) 0.0808(6)
C111 C 0.1675(7) -0.0442(3) 0.0473(4)
C112 C 0.2112(7) -0.0353(2) 0.0546(6)
C113 C 0.2386(4) -0.0361(3) 0.0954(7)
C114 C 0.2222(6) -0.0459(3) 0.1289(4)
C115 C -0.0725(6) -0.0044(2) 0.4116(5)
C116 C -0.0466(3) 0.0070(3) 0.4465(5)
C117 C -0.0669(6) 0.0229(2) 0.4688(4)
C118 C -0.1131(6) 0.0274(2) 0.4563(5)
C119 C -0.1390(4) 0.0160(3) 0.4215(5)
C120 C -0.1187(5) 0.0001(2) 0.3991(4)
C121 C 0.0979(5) -0.0679(2) 0.4338(4)
C122 C 0.1443(5) -0.0721(2) 0.4410(4)
C123 C 0.1660(3) -0.0828(2) 0.4787(5)
C124 C 0.1413(6) -0.0891(2) 0.5091(4)
C125 C 0.0949(6) -0.0848(2) 0.5019(4)
C126 C 0.0732(3) -0.0742(2) 0.4643(5)
C127 C -0.0868(4) -0.1308(3) 0.1556(5)
C128 C -0.1055(5) -0.1498(3) 0.1713(4)
C129 C -0.1366(5) -0.1634(2) 0.1439(6)
C130 C -0.1491(4) -0.1578(3) 0.1007(6)
C131 C -0.1304(6) -0.1388(3) 0.0849(3)
C132 C -0.0993(5) -0.1253(2) 0.1123(6)
C133 C 0.1032(9) -0.1480(3) 0.2142(5)
C134 C 0.1282(5) -0.1678(5) 0.2125(6)
C135 C 0.1068(11) -0.1890(3) 0.2102(7)
C136 C 0.0605(11) -0.1903(4) 0.2096(7)
C137 C 0.0356(5) -0.1704(6) 0.2113(6)
C138 C 0.0569(9) -0.1493(4) 0.2136(6)
C139 C 0.1686(12) -0.1521(4) 0.1150(9)
C140 C 0.1372(8) -0.1689(7) 0.0984(8)
C141 C 0.1466(10) -0.1917(5) 0.1089(9)
C142 C 0.1874(12) -0.1977(4) 0.1358(10)
C143 C 0.2188(8) -0.1809(6) 0.1524(7)
C144 C 0.2094(10) -0.1581(5) 0.1419(9)
C151 C 0.0153(9) -0.1255(4) 0.0833(12)
C152 C -0.0047(13) -0.1281(5) 0.0402(10)
C153 C -0.0182(14) -0.1495(7) 0.0239(7)
C154 C -0.0118(11) -0.1685(4) 0.0507(14)
C155 C 0.0081(12) -0.1659(5) 0.0938(12)
C156 C 0.0217(10) -0.1444(7) 0.1101(6)
C157 C -0.0492(5) 0.0550(3) 0.3267(5)
C158 C -0.0768(6) 0.0512(2) 0.3560(5)
C159 C -0.1005(5) 0.0692(4) 0.3694(4)
C160 C -0.0966(5) 0.0911(3) 0.3534(6)
C161 C -0.0690(6) 0.0948(2) 0.3241(6)
C162 C -0.0453(5) 0.0768(4) 0.3108(4)
C163 C 0.3114(8) 0.1136(3) 0.6995(4)
C164 C 0.2713(6) 0.1116(3) 0.7144(5)
C165 C 0.2606(5) 0.0911(4) 0.7318(5)
C166 C 0.2899(8) 0.0726(3) 0.7343(5)
C167 C 0.3300(7) 0.0746(3) 0.7193(6)
C168 C 0.3407(4) 0.0951(4) 0.7019(5)
C169 C 0.4413(5) 0.0888(2) 0.6472(6)
C170 C 0.4244(5) 0.0709(4) 0.6199(4)
C171 C 0.4193(5) 0.0494(3) 0.6366(6)
C172 C 0.4311(6) 0.0458(2) 0.6806(7)
C173 C 0.4480(5) 0.0637(4) 0.7078(4)
C174 C 0.4531(5) 0.0852(3) 0.6911(6)
C175 C 0.3191(6) 0.1770(3) 0.5546(10)
C176 C 0.2839(12) 0.1798(5) 0.5764(5)
C177 C 0.2408(9) 0.1859(6) 0.5540(11)
C178 C 0.2329(7) 0.1891(4) 0.5099(11)
C179 C 0.2681(13) 0.1863(4) 0.4882(5)
C180 C 0.3112(9) 0.1803(4) 0.5106(10)
C181 C 0.4110(7) 0.1089(3) 0.8105(5)
C182 C 0.4341(4) 0.0923(4) 0.8377(7)
C183 C 0.4112(8) 0.0794(3) 0.8630(5)
C184 C 0.3651(8) 0.0831(3) 0.8611(5)
C185 C 0.3420(4) 0.0996(4) 0.8339(7)
C186 C 0.3649(7) 0.1125(2) 0.8085(5)
C187 C 0.5513(8) 0.1556(3) 0.5843(7)
C188 C 0.5925(9) 0.1451(5) 0.6010(5)
C189 C 0.6150(7) 0.1329(4) 0.5742(10)
C190 C 0.5961(9) 0.1314(3) 0.5307(9)
C191 C 0.5549(10) 0.1419(5) 0.5140(5)
C192 C 0.5325(7) 0.1541(4) 0.5408(8)
C193 C 0.3131(11) 0.2357(5) 0.6446(8)
C194 C 0.2668(13) 0.2314(5) 0.6380(12)
C195 C 0.2363(7) 0.2452(8) 0.6107(13)
C196 C 0.2521(13) 0.2634(6) 0.5898(9)
C197 C 0.2985(15) 0.2677(5) 0.5964(11)
C198 C 0.3290(7) 0.2538(7) 0.6237(12)
C199 C 0.4236(11) 0.2421(5) 0.5648(6)
C200 C 0.3797(12) 0.2349(3) 0.5468(10)
C201 C 0.3543(6) 0.2466(6) 0.5120(10)
C202 C 0.3728(13) 0.2654(6) 0.4952(6)
C203 C 0.4166(13) 0.2725(3) 0.5132(11)
C204 C 0.4421(6) 0.2609(6) 0.5480(11)
C205 C 0.3160(6) 0.1717(3) 0.7979(9)
C206 C 0.3162(7) 0.1679(3) 0.8410(7)
C207 C 0.2788(11) 0.1579(4) 0.8530(6)
C208 C 0.2412(7) 0.1517(3) 0.8219(11)
C209 C 0.2410(6) 0.1554(4) 0.7788(9)
C210 C 0.2784(10) 0.1655(4) 0.7669(5)
C211 C 0.3437(8) 0.2178(4) 0.9017(10)
C212 C 0.3443(9) 0.2038(4) 0.9369(8)
C213 C 0.3037(14) 0.1960(3) 0.9460(7)
C214 C 0.2625(9) 0.2022(5) 0.9199(12)
C215 C 0.2620(7) 0.2163(5) 0.8848(10)
C216 C 0.3026(13) 0.2241(3) 0.8757(6)
C217 C 0.3480(10) 0.2948(6) 0.9353(5)
C218 C 0.3813(9) 0.2811(4) 0.9597(12)
C219 C 0.3933(7) 0.2840(5) 1.0038(12)
C220 C 0.3719(12) 0.3007(6) 1.0235(5)
C221 C 0.3386(11) 0.3144(4) 0.9991(12)
C222 C 0.3267(7) 0.3115(4) 0.9549(12)
C223 C 0.2894(7) 0.2524(8) 0.7703(10)
C224 C 0.2579(17) 0.2651(3) 0.7867(8)
C225 C 0.2155(13) 0.2559(8) 0.7876(9)
C226 C 0.2046(8) 0.2340(9) 0.7721(11)
C227 C 0.2361(18) 0.2213(4) 0.7557(9)
C228 C 0.2785(14) 0.2305(7) 0.7547(8)
C229 C 0.4108(8) 0.2919(5) 0.6781(13)
C230 C 0.4037(11) 0.2904(5) 0.6337(14)
C231 C 0.3764(12) 0.3064(7) 0.6083(6)
C232 C 0.3562(9) 0.3238(5) 0.6272(14)
C233 C 0.3633(11) 0.3253(5) 0.6716(15)
C234 C 0.3906(12) 0.3094(7) 0.6970(6)
N1 N 0.3234(5) 0.1119(2) 0.5768(4)
C235 C 0.2797(6) 0.1065(2) 0.5815(4)
C236 C 0.2510(4) 0.0940(2) 0.5499(6)
C237 C 0.2662(6) 0.0868(2) 0.5138(4)
C238 C 0.3099(6) 0.0922(2) 0.5092(4)
C239 C 0.3386(4) 0.1047(3) 0.5407(6)
N2 N 0.1764(5) 0.0505(2) 0.4163(3)
C240 C 0.1594(3) 0.0672(2) 0.4396(5)
C241 C 0.1889(6) 0.07951(19) 0.4708(4)
C242 C 0.2353(5) 0.0751(2) 0.4787(4)
C243 C 0.2522(3) 0.0583(3) 0.4554(5)
C244 C 0.2228(5) 0.04602(19) 0.4242(4)
Cd1 Cd 0.0000 -0.04069(3) 0.2500
Cd3 Cd 0.09864(5) -0.03960(2) 0.18091(4)
Cd5 Cd 0.12068(5) -0.10407(2) 0.14198(4)
Cd6 Cd -0.01188(5) -0.08366(2) 0.15047(4)
Cd8 Cd 0.5000 0.19851(3) 0.7500
Cd10 Cd 0.09374(5) -0.09435(2) 0.26110(4)
Cd11 Cd 0.11856(5) -0.03777(2) 0.33610(4)
Cd13 Cd 0.00981(5) 0.00028(2) 0.35766(4)
Cd14 Cd 0.12920(5) 0.02652(2) 0.37211(4)
Cd16 Cd 0.07534(5) 0.01747(2) 0.25455(4)
Cd20 Cd 0.57786(5) 0.20016(2) 0.65725(5)
Cd21 Cd 0.37739(6) 0.26614(3) 0.85245(5)
Cd22 Cd 0.36939(5) 0.13487(3) 0.62290(5)
Cd23 Cd 0.49741(5) 0.14441(2) 0.66980(5)
Cd24 Cd 0.39182(5) 0.15599(3) 0.73847(5)
Cd25 Cd 0.40663(6) 0.19907(3) 0.63631(5)
Cd26 Cd 0.50688(6) 0.25367(3) 0.83223(6)
Cd27 Cd 0.39169(6) 0.24147(3) 0.73482(5)
S1 S 0.4584(3) 0.28146(15) 0.8649(3)
S2 S 0.32699(18) 0.14045(10) 0.68098(17)
S4 S 0.3436(2) 0.26598(11) 0.77135(19)
S5 S 0.3761(2) 0.16986(10) 0.57898(17)
S6 S 0.44506(18) 0.11624(9) 0.62285(16)
S12 S 0.4422(2) 0.27183(11) 0.7105(2)
S13 S 0.05035(15) -0.01410(8) 0.30051(14)
S14 S 0.04580(15) -0.06567(8) 0.21134(14)
S15 S 0.44769(16) 0.17350(8) 0.69727(15)
S16 S -0.04630(17) -0.11369(9) 0.19230(16)
S17 S 0.13270(17) -0.12148(8) 0.21841(15)
S18 S 0.3494(2) 0.21518(11) 0.67670(19)
S21 S 0.06931(16) -0.05397(8) 0.38651(15)
S23 S 0.54427(17) 0.22370(8) 0.71028(16)
S24 S 0.52116(18) 0.17183(9) 0.61666(16)
S27 S 0.15518(16) -0.06592(8) 0.29387(15)
S28 S 0.13323(16) -0.01116(8) 0.23821(15)
S29 S 0.15935(16) -0.06607(8) 0.16672(15)
S30 S 0.07380(17) 0.01386(9) 0.41724(15)
S31 S -0.01800(16) 0.03343(8) 0.30698(15)
S32 S -0.04428(16) -0.02532(9) 0.38601(15)
S33 S 0.17879(16) -0.00759(8) 0.36405(15)
S34 S 0.3959(2) 0.22814(9) 0.89183(17)
S35 S 0.44176(18) 0.12469(9) 0.77730(17)
S38 S 0.03806(17) -0.09797(9) 0.10120(15)
S39 S 0.3236(2) 0.29005(11) 0.8808(2)
S40 S 0.10732(18) 0.04973(9) 0.30427(16)
S42 S 0.1659(3) -0.12459(12) 0.0991(3)
S43 S 0.4572(2) 0.22644(10) 0.6072(2)
S45 S 0.36098(18) 0.18519(9) 0.78201(17)
Cd3B Cd -0.09864(5) -0.03960(2) 0.31909(4)
Cd6B Cd 0.01188(5) -0.08366(2) 0.34953(4)
Cd10B Cd -0.09374(5) -0.09435(2) 0.23890(4)
Cd16B Cd -0.07534(5) 0.01747(2) 0.24545(4)
Cd20B Cd 0.42214(5) 0.20016(2) 0.84275(5)
Cd23B Cd 0.50259(5) 0.14441(2) 0.83020(5)
Cd26B Cd 0.49312(6) 0.25367(3) 0.66777(6)
Cd27B Cd 0.60831(6) 0.24147(3) 0.76518(5)
S12B S 0.5578(2) 0.27183(11) 0.7895(2)
S13B S -0.05035(15) -0.01410(8) 0.19949(14)
S14B S -0.04580(15) -0.06567(8) 0.28866(14)
S15B S 0.55231(16) 0.17350(8) 0.80273(15)
S16B S 0.04630(17) -0.11369(9) 0.30770(16)
S21B S -0.06931(16) -0.05397(8) 0.11349(15)
S23B S 0.45573(17) 0.22370(8) 0.78972(16)
S31B S 0.01800(16) 0.03343(8) 0.19302(15)
S32B S 0.04428(16) -0.02532(9) 0.11399(15)
S34B S 0.6041(2) 0.22814(9) 0.60817(17)
S35B S 0.55824(18) 0.12469(9) 0.72270(17)
S43B S 0.5428(2) 0.22644(10) 0.8928(2)
S45B S 0.63902(18) 0.18519(9) 0.71799(17)
C145? C 0.150(2) -0.1334(9) 0.0466(8)
C146? C 0.1119(18) -0.1218(7) 0.0253(16)
C147? C 0.0978(10) -0.1240(6) -0.0189(16)
C148? C 0.1221(15) -0.1378(7) -0.0417(8)
C149? C 0.1604(14) -0.1494(6) -0.0203(17)
C150? C 0.1746(13) -0.1472(8) 0.0238(17)
loop_
_geom_bond_atom_site_label_1
_geom_bond_atom_site_label_2
_geom_bond_site_symmetry_1
_geom_bond_site_symmetry_2
C1 C2 1_555 1_555
C2 C3 1_555 1_555
C3 C4 1_555 1_555
C4 C5 1_555 1_555
C5 C6 1_555 1_555
C6 C1 1_555 1_555
C7 C8 1_555 1_555
C8 C9 1_555 1_555
C9 C10 1_555 1_555
C10 C11 1_555 1_555
C11 C12 1_555 1_555
C12 C7 1_555 1_555
C13 C14 1_555 1_555
C14 C15 1_555 1_555
C15 C16 1_555 1_555
C16 C17 1_555 1_555
C17 C18 1_555 1_555
C18 C13 1_555 1_555
C19 C20 1_555 1_555
C20 C21 1_555 1_555
C21 C22 1_555 1_555
C22 C23 1_555 1_555
C23 C24 1_555 1_555
C24 C19 1_555 1_555
C25 C26 1_555 1_555
C26 C27 1_555 1_555
C27 C28 1_555 1_555
C28 C29 1_555 1_555
C29 C30 1_555 1_555
C30 C25 1_555 1_555
C31 C32 1_555 1_555
C32 C33 1_555 1_555
C33 C34 1_555 1_555
C34 C35 1_555 1_555
C35 C36 1_555 1_555
C36 C31 1_555 1_555
C37 C38 1_555 1_555
C38 C39 1_555 1_555
C39 C40 1_555 1_555
C40 C41 1_555 1_555
C41 C42 1_555 1_555
C42 C37 1_555 1_555
C43 C44 1_555 1_555
C44 C45 1_555 1_555
C45 C46 1_555 1_555
C46 C47 1_555 1_555
C47 C48 1_555 1_555
C48 C43 1_555 1_555
C49 C50 1_555 1_555
C50 C51 1_555 1_555
C51 C52 1_555 1_555
C52 C53 1_555 1_555
C53 C54 1_555 1_555
C54 C49 1_555 1_555
C55 C56 1_555 1_555
C56 C57 1_555 1_555
C57 C58 1_555 1_555
C58 C59 1_555 1_555
C59 C60 1_555 1_555
C60 C55 1_555 1_555
C61 C62 1_555 1_555
C62 C63 1_555 1_555
C63 C64 1_555 1_555
C64 C65 1_555 1_555
C65 C66 1_555 1_555
C66 C61 1_555 1_555
C67 C68 1_555 1_555
C68 C69 1_555 1_555
C69 C70 1_555 1_555
C70 C71 1_555 1_555
C71 C72 1_555 1_555
C72 C67 1_555 1_555
C73 C74 1_555 1_555
C74 C75 1_555 1_555
C75 C76 1_555 1_555
C76 C77 1_555 1_555
C77 C78 1_555 1_555
C78 C73 1_555 1_555
C79 C80 1_555 1_555
C80 C81 1_555 1_555
C81 C82 1_555 1_555
C82 C83 1_555 1_555
C83 C84 1_555 1_555
C84 C79 1_555 1_555
C85 C86 1_555 1_555
C86 C87 1_555 1_555
C87 C88 1_555 1_555
C88 C89 1_555 1_555
C89 C90 1_555 1_555
C90 C85 1_555 1_555
C91 C92 1_555 1_555
C92 C93 1_555 1_555
C93 C94 1_555 1_555
C94 C95 1_555 1_555
C95 C96 1_555 1_555
C96 C91 1_555 1_555
C97 C98 1_555 1_555
C98 C99 1_555 1_555
C99 C100 1_555 1_555
C100 C101 1_555 1_555
C101 C102 1_555 1_555
C102 C97 1_555 1_555
C103 C104 1_555 1_555
C104 C105 1_555 1_555
C105 C106 1_555 1_555
C106 C107 1_555 1_555
C107 C108 1_555 1_555
C108 C103 1_555 1_555
C109 C110 1_555 1_555
C110 C111 1_555 1_555
C111 C112 1_555 1_555
C112 C113 1_555 1_555
C113 C114 1_555 1_555
C114 C109 1_555 1_555
C115 C116 1_555 1_555
C116 C117 1_555 1_555
C117 C118 1_555 1_555
C118 C119 1_555 1_555
C119 C120 1_555 1_555
C120 C115 1_555 1_555
C121 C122 1_555 1_555
C122 C123 1_555 1_555
C123 C124 1_555 1_555
C124 C125 1_555 1_555
C125 C126 1_555 1_555
C126 C121 1_555 1_555
C127 C128 1_555 1_555
C128 C129 1_555 1_555
C129 C130 1_555 1_555
C130 C131 1_555 1_555
C131 C132 1_555 1_555
C132 C127 1_555 1_555
C133 C134 1_555 1_555
C134 C135 1_555 1_555
C135 C136 1_555 1_555
C136 C137 1_555 1_555
C137 C138 1_555 1_555
C138 C133 1_555 1_555
C139 C140 1_555 1_555
C140 C141 1_555 1_555
C141 C142 1_555 1_555
C142 C143 1_555 1_555
C143 C144 1_555 1_555
C144 C139 1_555 1_555
C151 C152 1_555 1_555
C152 C153 1_555 1_555
C153 C154 1_555 1_555
C154 C155 1_555 1_555
C155 C156 1_555 1_555
C156 C151 1_555 1_555
C157 C158 1_555 1_555
C158 C159 1_555 1_555
C159 C160 1_555 1_555
C160 C161 1_555 1_555
C161 C162 1_555 1_555
C162 C157 1_555 1_555
C163 C164 1_555 1_555
C164 C165 1_555 1_555
C165 C166 1_555 1_555
C166 C167 1_555 1_555
C167 C168 1_555 1_555
C168 C163 1_555 1_555
C169 C170 1_555 1_555
C170 C171 1_555 1_555
C171 C172 1_555 1_555
C172 C173 1_555 1_555
C173 C174 1_555 1_555
C174 C169 1_555 1_555
C175 C176 1_555 1_555
C176 C177 1_555 1_555
C177 C178 1_555 1_555
C178 C179 1_555 1_555
C179 C180 1_555 1_555
C180 C175 1_555 1_555
C181 C182 1_555 1_555
C182 C183 1_555 1_555
C183 C184 1_555 1_555
C184 C185 1_555 1_555
C185 C186 1_555 1_555
C186 C181 1_555 1_555
C187 C188 1_555 1_555
C188 C189 1_555 1_555
C189 C190 1_555 1_555
C190 C191 1_555 1_555
C191 C192 1_555 1_555
C192 C187 1_555 1_555
C193 C194 1_555 1_555
C194 C195 1_555 1_555
C195 C196 1_555 1_555
C196 C197 1_555 1_555
C197 C198 1_555 1_555
C198 C193 1_555 1_555
C199 C200 1_555 1_555
C200 C201 1_555 1_555
C201 C202 1_555 1_555
C202 C203 1_555 1_555
C203 C204 1_555 1_555
C204 C199 1_555 1_555
C205 C206 1_555 1_555
C206 C207 1_555 1_555
C207 C208 1_555 1_555
C208 C209 1_555 1_555
C209 C210 1_555 1_555
C210 C205 1_555 1_555
C211 C212 1_555 1_555
C212 C213 1_555 1_555
C213 C214 1_555 1_555
C214 C215 1_555 1_555
C215 C216 1_555 1_555
C216 C211 1_555 1_555
C217 C218 1_555 1_555
C218 C219 1_555 1_555
C219 C220 1_555 1_555
C220 C221 1_555 1_555
C221 C222 1_555 1_555
C222 C217 1_555 1_555
C223 C224 1_555 1_555
C224 C225 1_555 1_555
C225 C226 1_555 1_555
C226 C227 1_555 1_555
C227 C228 1_555 1_555
C228 C223 1_555 1_555
C229 C230 1_555 1_555
C230 C231 1_555 1_555
C231 C232 1_555 1_555
C232 C233 1_555 1_555
C233 C234 1_555 1_555
C234 C229 1_555 1_555
N1 C235 1_555 1_555
C235 C236 1_555 1_555
C236 C237 1_555 1_555
C237 C238 1_555 1_555
C238 C239 1_555 1_555
C239 N1 1_555 1_555
N2 C240 1_555 1_555
C240 C241 1_555 1_555
C241 C242 1_555 1_555
C242 C237 1_555 1_555
C243 C242 1_555 1_555
C244 N2 1_555 1_555
N3 C245 1_555 1_555
C245 C246 1_555 1_555
C246 C247 1_555 1_555
C247 C248 1_555 1_555
C248 C249 1_555 1_555
C249 N3 1_555 1_555
Cd1 S13 1_555 1_555
Cd2 S10 1_555 1_555
Cd3 S14 1_555 1_555
Cd4 S10 1_555 1_555
Cd5 S17 1_555 1_555
Cd6 S14 1_555 1_555
Cd7 S9 1_555 1_555
Cd8 S15 1_555 1_555
Cd9 S10 1_555 1_555
Cd10 S14 1_555 1_555
Cd11 S13 1_555 1_555
Cd12 S11 1_555 1_555
Cd13 S13 1_555 1_555
Cd14 N2 1_555 1_555
Cd15 S7 1_555 1_555
Cd16 S13 1_555 1_555
Cd17 S3 1_555 1_555
Cd18 S8 1_555 1_555
Cd19 N3 1_555 1_555
Cd20 S23 1_555 1_555
Cd21 S1 1_555 1_555
Cd22 N1 1_555 1_555
Cd23 S6 1_555 1_555
Cd24 S2 1_555 1_555
Cd25 S5 1_555 1_555
Cd26 S1 1_555 1_555
Cd27 S4 1_555 1_555
S2 C163 1_555 1_555
S3 C1 1_555 1_555
S4 C223 1_555 1_555
S5 C175 1_555 1_555
S6 C169 1_555 1_555
S7 C13 1_555 1_555
S8 C49 1_555 1_555
S9 C25 1_555 1_555
S10 Cd7 1_555 1_555
S11 Cd2 1_555 1_555
S12 C229 1_555 1_555
S14 Cd1 1_555 1_555
S15 Cd23 1_555 1_555
S16 C127 1_555 1_555
S17 C133 1_555 1_555
S18 C193 1_555 1_555
S19 C43 1_555 1_555
S20 C55 1_555 1_555
S21 C121 1_555 1_555
S22 C61 1_555 1_555
S23 Cd8 1_555 1_555
S24 C187 1_555 1_555
S25 C31 1_555 1_555
S26 C37 1_555 1_555
S27 C103 1_555 1_555
S28 C97 1_555 1_555
S29 C109 1_555 1_555
S30 C91 1_555 1_555
S31 C157 1_555 1_555
S32 C115 1_555 1_555
S33 C79 1_555 1_555
S34 C211 1_555 1_555
S35 C181 1_555 1_555
S36 C19 1_555 1_555
S37 C7 1_555 1_555
S38 C151 1_555 1_555
S39 C217 1_555 1_555
S40 C85 1_555 1_555
S41 C67 1_555 1_555
S42 C139 1_555 1_555
S43 C199 1_555 1_555
S44 C73 1_555 1_555
S45 C205 1_555 1_555
C1B C2B 1_555 1_555
C2B C3B 1_555 1_555
C3B C4B 1_555 1_555
C4B C5B 1_555 1_555
C5B C6B 1_555 1_555
C6B C1B 1_555 1_555
C7B C8B 1_555 1_555
C8B C9B 1_555 1_555
C9B C10B 1_555 1_555
C10B C11B 1_555 1_555
C11B C12B 1_555 1_555
C12B C7B 1_555 1_555
C13B C14B 1_555 1_555
C14B C15B 1_555 1_555
C15B C16B 1_555 1_555
C16B C17B 1_555 1_555
C17B C18B 1_555 1_555
C18B C13B 1_555 1_555
C19B C20B 1_555 1_555
C20B C21B 1_555 1_555
C21B C22B 1_555 1_555
C22B C23B 1_555 1_555
C23B C24B 1_555 1_555
C24B C19B 1_555 1_555
C25B C26B 1_555 1_555
C26B C27B 1_555 1_555
C27B C28B 1_555 1_555
C28B C29B 1_555 1_555
C29B C30B 1_555 1_555
C30B C25B 1_555 1_555
C31B C32B 1_555 1_555
C32B C33B 1_555 1_555
C33B C34B 1_555 1_555
C34B C35B 1_555 1_555
C35B C36B 1_555 1_555
C36B C31B 1_555 1_555
C37B C38B 1_555 1_555
C38B C39B 1_555 1_555
C39B C40B 1_555 1_555
C40B C41B 1_555 1_555
C41B C42B 1_555 1_555
C42B C37B 1_555 1_555
C43B C44B 1_555 1_555
C44B C45B 1_555 1_555
C45B C46B 1_555 1_555
C46B C47B 1_555 1_555
C47B C48B 1_555 1_555
C48B C43B 1_555 1_555
C49B C50B 1_555 1_555
C50B C51B 1_555 1_555
C51B C52B 1_555 1_555
C52B C53B 1_555 1_555
C53B C54B 1_555 1_555
C54B C49B 1_555 1_555
C55B C56B 1_555 1_555
C56B C57B 1_555 1_555
C57B C58B 1_555 1_555
C58B C59B 1_555 1_555
C59B C60B 1_555 1_555
C60B C55B 1_555 1_555
C61B C62B 1_555 1_555
C62B C63B 1_555 1_555
C63B C64B 1_555 1_555
C64B C65B 1_555 1_555
C65B C66B 1_555 1_555
C66B C61B 1_555 1_555
C67B C68B 1_555 1_555
C68B C69B 1_555 1_555
C69B C70B 1_555 1_555
C70B C71B 1_555 1_555
C71B C72B 1_555 1_555
C72B C67B 1_555 1_555
C73B C74B 1_555 1_555
C74B C75B 1_555 1_555
C75B C76B 1_555 1_555
C76B C77B 1_555 1_555
C77B C78B 1_555 1_555
C78B C73B 1_555 1_555
N3B Cd19B 1_555 1_555
N3E C245E 1_555 1_555
C245E C246E 1_555 1_555
C246E C247E 1_555 1_555
C247E C247 1_555 1_555
C248E C247E 1_555 1_555
C249E N3E 1_555 1_555
Cd3B S32 1_555 1_555
Cd4B S10B 1_555 1_555
Cd6B S21 1_555 1_555
Cd7B S9B 1_555 1_555
Cd9B S20 1_555 1_555
Cd10B S16 1_555 1_555
Cd12B S26 1_555 1_555
Cd15B S11 1_555 1_555
Cd16B S31 1_555 1_555
Cd17B S3B 1_555 1_555
Cd18B S8B 1_555 1_555
Cd19B S3B 1_555 1_555
Cd19E N3E 1_555 1_555
Cd20B S34 1_555 1_555
Cd23B S35 1_555 1_555
Cd26B S12 1_555 1_555
Cd27B S23 1_555 1_555
S3B C1B 1_555 1_555
S7B C13B 1_555 1_555
S8B C49B 1_555 1_555
S9B C25B 1_555 1_555
S10B Cd2 1_555 1_555
S11B Cd2 1_555 1_555
S12B Cd26 1_555 1_555
S13B Cd1 1_555 1_555
S14B Cd1 1_555 1_555
S15B Cd8 1_555 1_555
S16B Cd10 1_555 1_555
S19B C43B 1_555 1_555
S20B Cd9 1_555 1_555
S21B Cd6 1_555 1_555
S22B C61B 1_555 1_555
S23B Cd8 1_555 1_555
S25B C31B 1_555 1_555
S26B Cd12 1_555 1_555
S31B Cd16 1_555 1_555
S32B Cd3 1_555 1_555
S34B Cd20 1_555 1_555
S35B Cd23 1_555 1_555
S36B C19B 1_555 1_555
S37B Cd15 1_555 1_555
S41B C67B 1_555 1_555
S43B Cd26 1_555 1_555
S44B C73B 1_555 1_555
S45B Cd20 1_555 1_555
C243 C244 1_555 1_555
Cd3 S28 1_555 1_555
Cd3 S29 1_555 1_555
Cd4 S20 1_555 1_555
Cd4 S22 1_555 1_555
Cd4 S41 1_555 1_555
Cd5 S29 1_555 1_555
Cd5 S38 1_555 1_555
Cd5 S42 1_555 1_555
Cd6 S16 1_555 1_555
Cd6 S38 1_555 1_555
Cd7 S25 1_555 1_555
Cd7 S36 1_555 1_555
Cd9 S19 1_555 1_555
Cd9 S26 1_555 1_555
Cd10 S17 1_555 1_555
Cd10 S27 1_555 1_555
Cd11 S21 1_555 1_555
Cd11 S27 1_555 1_555
Cd11 S33 1_555 1_555
Cd12 S41 1_555 1_555
Cd12 S44 1_555 1_555
Cd13 S30 1_555 1_555
Cd13 S31 1_555 1_555
Cd13 S32 1_555 1_555
Cd14 S30 1_555 1_555
Cd14 S33 1_555 1_555
Cd14 S40 1_555 1_555
Cd15 S36 1_555 1_555
Cd15 S11B 1_555 1_555
Cd16 S28 1_555 1_555
Cd16 S40 1_555 1_555
Cd17 S7 1_555 1_555
Cd17 S9 1_555 1_555
Cd17 S11 1_555 1_555
Cd18 S19 1_555 1_555
Cd18 S22 1_555 1_555
Cd18 S25 1_555 1_555
Cd19 S3 1_555 1_555
Cd19 S37 1_555 1_555
Cd19 S44 1_555 1_555
Cd20 S24 1_555 1_555
Cd21 S4 1_555 1_555
Cd21 S34 1_555 1_555
Cd21 S39 1_555 1_555
Cd22 S2 1_555 1_555
Cd22 S5 1_555 1_555
Cd22 S6 1_555 1_555
Cd23 S24 1_555 1_555
Cd24 S15 1_555 1_555
Cd24 S35 1_555 1_555
Cd24 S45 1_555 1_555
Cd25 S15 1_555 1_555
Cd25 S18 1_555 1_555
Cd25 S43 1_555 1_555
Cd26 S23B 1_555 1_555
Cd27 S12 1_555 1_555
Cd27 S18 1_555 1_555
Cd27 S23B 1_555 1_555
S23 Cd26B 1_555 1_555
S37 Cd15B 1_555 1_555
S43 Cd26B 1_555 1_555
S45 Cd20B 1_555 1_555
C7B S37B 1_555 1_555
C37B S26B 1_555 1_555
C55B S20B 1_555 1_555
C248E C249E 1_555 1_555
Cd3B S14B 1_555 1_555
Cd4B S20B 1_555 1_555
Cd4B S22B 1_555 1_555
Cd4B S41B 1_555 1_555
Cd6B S14B 1_555 1_555
Cd6B S16B 1_555 1_555
Cd7B S10B 1_555 1_555
Cd7B S25B 1_555 1_555
Cd7B S36B 1_555 1_555
Cd9B S10B 1_555 1_555
Cd9B S19B 1_555 1_555
Cd9B S26B 1_555 1_555
Cd10B S14B 1_555 1_555
Cd12B S11B 1_555 1_555
Cd12B S41B 1_555 1_555
Cd12B S44B 1_555 1_555
Cd15B S7B 1_555 1_555
Cd15B S36B 1_555 1_555
Cd16B S13B 1_555 1_555
Cd17B S7B 1_555 1_555
Cd17B S9B 1_555 1_555
Cd17B S11B 1_555 1_555
Cd18B S19B 1_555 1_555
Cd18B S22B 1_555 1_555
Cd18B S25B 1_555 1_555
Cd19B S37B 1_555 1_555
Cd19B S44B 1_555 1_555
Cd20B S23B 1_555 1_555
Cd23B S15B 1_555 1_555
Cd27B S12B 1_555 1_555

#END
