
#######################################################################
#
#                 Cambridge Crystallographic Data Centre
#                                CCDC 
#
#######################################################################
#
# If this CIF has been generated from an entry in the Cambridge 
# Structural Database, then it will include bibliographic, chemical, 
# crystal, experimental, refinement or atomic coordinate data resulting 
# from the CCDC's data processing and validation procedures.
#
#######################################################################

data_DAXFEP
_symmetry_cell_setting           monoclinic
_symmetry_space_group_name_H-M   'P 2/c'
_symmetry_Int_Tables_number      13
_space_group_name_Hall           '-P 2yc'
loop_
_symmetry_equiv_pos_site_id
_symmetry_equiv_pos_as_xyz
1 x,y,z
2 -x,y,1/2-z
3 -x,-y,-z
4 x,-y,1/2+z
_cell_length_a                   14.8314(11)
_cell_length_b                   9.7047(17)
_cell_length_c                   22.344(2)
_cell_angle_alpha                90
_cell_angle_beta                 131.552(6)
_cell_angle_gamma                90
_cell_volume                     2406.76
loop_
_atom_site_label
_atom_site_type_symbol
_atom_site_fract_x
_atom_site_fract_y
_atom_site_fract_z
N1 N 0.8075(11) 0.5350(13) 0.7034(7)
H1 H 0.7556 0.5252 0.7082
H2 H 0.8437 0.5986 0.7230
H3 H 0.8456 0.4733 0.7093
H4 H 0.7772 0.5410 0.6617
Ag1 Ag -0.5000 0.11680(9) 0.7500
Ag2 Ag 0.50235(4) -0.03539(10) 1.09206(4)
O1 O -0.3997(4) 0.3827(6) 0.9456(3)
O2 O -0.5166(4) 0.2852(6) 0.8270(3)
N2 N 0.3114(4) 0.0022(7) 1.0183(3)
N3 N -0.3054(4) 0.0862(5) 0.8168(3)
N4 N 0.6919(4) -0.0374(7) 1.1542(3)
C1 C 0.2662(5) 0.1267(9) 1.0090(4)
H7 H 0.3180 0.2020 1.0308
C2 C 0.1464(5) 0.1493(7) 0.9686(3)
H8 H 0.1186 0.2383 0.9632
C3 C 0.0672(4) 0.0387(6) 0.9360(3)
C4 C 0.1148(5) -0.0901(7) 0.9441(4)
H9 H 0.0650 -0.1672 0.9218
C5 C 0.2353(5) -0.1039(8) 0.9850(4)
H10 H 0.2652 -0.1913 0.9898
C6 C -0.0615(4) 0.0571(6) 0.8950(3)
C7 C -0.1207(5) 0.1814(7) 0.8623(4)
H11 H -0.0791 0.2582 0.8668
C8 C -0.2421(5) 0.1916(7) 0.8229(4)
H12 H -0.2809 0.2754 0.7998
C9 C -0.2479(5) -0.0333(7) 0.8506(3)
H13 H -0.2907 -0.1068 0.8478
C10 C -0.1289(5) -0.0524(6) 0.8892(3)
H14 H -0.0927 -0.1375 0.9115
C11 C -0.3728(5) 0.4495(6) 0.8570(3)
C12 C -0.2478(5) 0.4620(7) 0.9162(4)
H15 H -0.2079 0.4229 0.9662
C13 C -0.1830(5) 0.5305(7) 0.9022(4)
H16 H -0.0994 0.5324 0.9412
C14 C -0.2416(6) 0.5968(7) 0.8304(4)
H17 H -0.1976 0.6444 0.8210
C15 C -0.3663(5) 0.5924(7) 0.7721(3)
C16 C -0.4324(4) 0.5139(6) 0.7835(3)
C17 C -0.4369(5) 0.3667(7) 0.8766(4)
O4 O -0.4957(5) 0.7821(6) 0.6969(4)
C18 C 0.8681(5) -0.1579(8) 1.2035(5)
H18 H 0.9037 -0.2423 1.2104
C19 C 0.9348(4) -0.0391(7) 1.2293(3)
C20 C 0.8744(5) 0.0808(8) 1.2165(4)
H19 H 0.9147 0.1647 1.2329
C21 C 0.7558(6) 0.0769(8) 1.1798(4)
H20 H 0.7177 0.1595 1.1723
C22 C 0.7490(6) -0.1525(9) 1.1675(5)
H21 H 0.7065 -0.2349 1.1516
C23 C -0.4297(7) 0.6911(10) 0.7023(5)
O5 O -0.4091(6) 0.6788(8) 0.6561(4)
Ag2A Ag -1.50235(4) -0.03539(10) 0.40794(4)
Ag2A_2 Ag 1.49765(4) -0.03539(10) 1.40794(4)
O1A O -0.6003(4) 0.3827(6) 0.5544(3)
O2A O -0.4834(4) 0.2852(6) 0.6730(3)
N2A N -1.3114(4) 0.0022(7) 0.4817(3)
N3A N -0.6946(4) 0.0862(5) 0.6832(3)
N4A N 1.3081(4) -0.0374(7) 1.3458(3)
N4A_2 N -1.6919(4) -0.0374(7) 0.3458(3)
C1A C -1.2662(5) 0.1267(9) 0.4910(4)
H7A H -1.3180 0.2020 0.4692
C2A C -1.1464(5) 0.1493(7) 0.5314(3)
H8A H -1.1186 0.2383 0.5368
C3A C -1.0672(4) 0.0387(6) 0.5640(3)
C4A C -1.1148(5) -0.0901(7) 0.5559(4)
H9A H -1.0650 -0.1672 0.5782
C5A C -1.2353(5) -0.1039(8) 0.5150(4)
H10A H -1.2652 -0.1913 0.5102
C6A C -0.9385(4) 0.0571(6) 0.6050(3)
C7A C -0.8793(5) 0.1814(7) 0.6377(4)
H11A H -0.9209 0.2582 0.6332
C8A C -0.7579(5) 0.1916(7) 0.6771(4)
H12A H -0.7191 0.2754 0.7002
C9A C -0.7521(5) -0.0333(7) 0.6494(3)
H13A H -0.7093 -0.1068 0.6522
C10A C -0.8711(5) -0.0524(6) 0.6108(3)
H14A H -0.9073 -0.1375 0.5885
C11A C -0.6272(5) 0.4495(6) 0.6430(3)
C12A C -0.7522(5) 0.4620(7) 0.5838(4)
H15A H -0.7921 0.4229 0.5338
C13A C -0.8170(5) 0.5305(7) 0.5978(4)
H16A H -0.9006 0.5324 0.5588
C14A C -0.7584(6) 0.5968(7) 0.6696(4)
H17A H -0.8024 0.6444 0.6790
C15A C -0.6337(5) 0.5924(7) 0.7279(3)
C16A C -0.5676(4) 0.5139(6) 0.7165(3)
C17A C -0.5631(5) 0.3667(7) 0.6234(4)
O4A O -0.5043(5) 0.7821(6) 0.8031(4)
C18A C 1.1319(5) -0.1579(8) 1.2965(5)
H18A H 1.0963 -0.2423 1.2896
C19A C 1.0652(4) -0.0391(7) 1.2707(3)
C20A C 1.1256(5) 0.0808(8) 1.2835(4)
H19A H 1.0853 0.1647 1.2671
C21A C 1.2442(6) 0.0769(8) 1.3202(4)
H20A H 1.2823 0.1595 1.3277
C22A C 1.2510(6) -0.1525(9) 1.3325(5)
H21A H 1.2935 -0.2349 1.3484
C23A C -0.5703(7) 0.6911(10) 0.7977(5)
O5A O -0.5909(6) 0.6788(8) 0.8439(4)
O3 O 0.4850(6) 0.2743(7) 0.9949(3)
H5 H 0.5457 0.2803 1.0407
H6 H 0.4831 0.3345 0.9696
O6 O 0.7354(7) 0.5610(8) 0.0655(4)
H22 H 0.7281 0.4981 0.0456
H23 H 0.6897 0.6181 0.0302
O7 O 0.9786(8) 0.4893(17) 0.1324(6)
H24 H 0.9473 0.4868 0.1508
H25 H 1.0444 0.5051 0.1649
loop_
_geom_bond_atom_site_label_1
_geom_bond_atom_site_label_2
_geom_bond_site_symmetry_1
_geom_bond_site_symmetry_2
N1 H1 1_555 1_555
H2 N1 1_555 1_555
H3 N1 1_555 1_555
H4 N1 1_555 1_555
Ag1 O2 1_555 1_555
Ag2 N2 1_555 1_555
O1 C17 1_555 1_555
O2 C17 1_555 1_555
O3 H5 1_555 1_555
H6 O3 1_555 1_555
N2 C1 1_555 1_555
N3 Ag1 1_555 1_555
N4 Ag2 1_555 1_555
C1 H7 1_555 1_555
C2 C1 1_555 1_555
H8 C2 1_555 1_555
C3 C2 1_555 1_555
C4 C3 1_555 1_555
H9 C4 1_555 1_555
C5 N2 1_555 1_555
H10 C5 1_555 1_555
C6 C3 1_555 1_555
C7 C6 1_555 1_555
H11 C7 1_555 1_555
C8 N3 1_555 1_555
H12 C8 1_555 1_555
C9 N3 1_555 1_555
H13 C9 1_555 1_555
C10 C6 1_555 1_555
H14 C10 1_555 1_555
C11 C12 1_555 1_555
C12 H15 1_555 1_555
C13 C12 1_555 1_555
H16 C13 1_555 1_555
C14 C13 1_555 1_555
H17 C14 1_555 1_555
C15 C14 1_555 1_555
C16 C11 1_555 1_555
C17 C11 1_555 1_555
O4 C23 1_555 1_555
C18 H18 1_555 1_555
C19 C18 1_555 1_555
C20 C19 1_555 1_555
H19 C20 1_555 1_555
C21 N4 1_555 1_555
H20 C21 1_555 1_555
C22 N4 1_555 1_555
H21 C22 1_555 1_555
C23 C15 1_555 1_555
O5 C23 1_555 1_555
O6 H22 1_555 1_555
H23 O6 1_555 1_555
O7 H24 1_555 1_555
H25 O7 1_555 1_555
Ag2A N2A 1_555 1_555
Ag2A_2 N4A 1_555 1_555
O1A C17A 1_555 1_555
O2A Ag1 1_555 1_555
N2A C1A 1_555 1_555
N3A Ag1 1_555 1_555
N4A C21A 1_555 1_555
N4A_2 Ag2A 1_555 1_555
C1A H7A 1_555 1_555
C2A C1A 1_555 1_555
H8A C2A 1_555 1_555
C3A C2A 1_555 1_555
C4A C3A 1_555 1_555
H9A C4A 1_555 1_555
C5A N2A 1_555 1_555
H10A C5A 1_555 1_555
C6A C3A 1_555 1_555
C7A C6A 1_555 1_555
H11A C7A 1_555 1_555
C8A N3A 1_555 1_555
H12A C8A 1_555 1_555
C9A N3A 1_555 1_555
H13A C9A 1_555 1_555
C10A C6A 1_555 1_555
H14A C10A 1_555 1_555
C11A C12A 1_555 1_555
C12A H15A 1_555 1_555
C13A C12A 1_555 1_555
H16A C13A 1_555 1_555
C14A C13A 1_555 1_555
H17A C14A 1_555 1_555
C15A C14A 1_555 1_555
C16A C16 1_555 1_555
C17A O2A 1_555 1_555
O4A C23A 1_555 1_555
C18A H18A 1_555 1_555
C19A C19 1_555 1_555
C20A C19A 1_555 1_555
H19A C20A 1_555 1_555
C21A C20A 1_555 1_555
H20A C21A 1_555 1_555
C22A N4A 1_555 1_555
H21A C22A 1_555 1_555
C23A C15A 1_555 1_555
O5A C23A 1_555 1_555
C4 C5 1_555 1_555
C7 C8 1_555 1_555
C9 C10 1_555 1_555
C15 C16 1_555 1_555
C18 C22 1_555 1_555
C20 C21 1_555 1_555
C4A C5A 1_555 1_555
C7A C8A 1_555 1_555
C9A C10A 1_555 1_555
C11A C16A 1_555 1_555
C11A C17A 1_555 1_555
C15A C16A 1_555 1_555
C18A C19A 1_555 1_555
C18A C22A 1_555 1_555

#END
