
#######################################################################
#
#                 Cambridge Crystallographic Data Centre
#                                CCDC 
#
#######################################################################
#
# If this CIF has been generated from an entry in the Cambridge 
# Structural Database, then it will include bibliographic, chemical, 
# crystal, experimental, refinement or atomic coordinate data resulting 
# from the CCDC's data processing and validation procedures.
#
#######################################################################

data_DAXFIT
_symmetry_cell_setting           monoclinic
_symmetry_space_group_name_H-M   'P 2/c'
_symmetry_Int_Tables_number      13
_space_group_name_Hall           '-P 2yc'
loop_
_symmetry_equiv_pos_site_id
_symmetry_equiv_pos_as_xyz
1 x,y,z
2 -x,y,1/2-z
3 -x,-y,-z
4 x,-y,1/2+z
_cell_length_a                   13.6268(13)
_cell_length_b                   11.3907(9)
_cell_length_c                   22.824(3)
_cell_angle_alpha                90
_cell_angle_beta                 110.823(8)
_cell_angle_gamma                90
_cell_volume                     3311.31
loop_
_atom_site_label
_atom_site_type_symbol
_atom_site_fract_x
_atom_site_fract_y
_atom_site_fract_z
Ag1 Ag 0.87817(8) 1.11608(7) 0.74087(4)
N1 N 0.8656(7) 0.9280(7) 0.7466(4)
N2 N 0.8700(6) 0.3061(7) 0.7446(4)
C1 C 0.9234(8) 0.8689(9) 0.7957(5)
H3 H 0.9660 0.9110 0.8303
C2 C 0.9254(8) 0.7464(8) 0.7998(5)
H4 H 0.9676 0.7082 0.8360
C3 C 0.8618(9) 0.6830(8) 0.7473(5)
C4 C 0.8020(9) 0.7453(9) 0.6960(5)
H5 H 0.7599 0.7056 0.6603
C5 C 0.8032(8) 0.8661(9) 0.6965(4)
H6 H 0.7600 0.9064 0.6614
C6 C 0.8677(7) 0.5535(8) 0.7497(4)
C7 C 0.8959(8) 0.4833(8) 0.8022(5)
H7 H 0.9126 0.5192 0.8411
C8 C 0.9007(8) 0.3653(8) 0.8001(5)
H8 H 0.9256 0.3233 0.8375
C9 C 0.8395(10) 0.3731(10) 0.6928(5)
H9 H 0.8204 0.3353 0.6542
C10 C 0.8347(8) 0.4913(8) 0.6928(4)
H10 H 0.8094 0.5319 0.6550
Ag1_2 Ag 0.87817(8) 0.11608(7) 0.74087(4)
N2_2 N 0.8700(6) 1.3061(7) 0.7446(4)
N3 N 0.5630(7) 1.0125(7) 0.1882(4)
N4 N 0.5620(7) 0.3893(7) 0.1935(4)
C11 C 0.5147(10) 0.9493(11) 0.1366(6)
H11 H 0.4782 0.9880 0.0993
C12 C 0.5176(9) 0.8266(9) 0.1372(5)
H12 H 0.4821 0.7860 0.1004
C13 C 0.5708(8) 0.7648(8) 0.1899(5)
C14 C 0.6220(8) 0.8303(10) 0.2413(5)
H13 H 0.6616 0.7925 0.2782
C15 C 0.6172(8) 0.9531(9) 0.2405(6)
H14 H 0.6524 0.9945 0.2771
C16 C 0.5665(7) 0.6368(8) 0.1907(4)
C17 C 0.5089(9) 0.5666(9) 0.1394(5)
H15 H 0.4704 0.6031 0.1017
C18 C 0.5072(10) 0.4470(9) 0.1425(5)
H16 H 0.4660 0.4050 0.1074
C19 C 0.6174(8) 0.4517(8) 0.2427(5)
H17 H 0.6548 0.4118 0.2794
C20 C 0.6233(8) 0.5715(9) 0.2431(5)
H18 H 0.6660 0.6099 0.2791
Ag2 Ag 0.55242(8) 1.19962(7) 0.19439(5)
N4_2 N 0.5620(7) 1.3893(7) 0.1935(4)
Ag2_2 Ag 0.55242(8) 0.19962(7) 0.19439(5)
O1 O 0.9637(6) 1.1046(7) 0.6400(3)
O2 O 0.7849(6) 1.1202(6) 0.6115(3)
O3 O 0.6563(6) 1.1763(6) 0.3243(3)
O4 O 0.7732(6) 1.3105(6) 0.3717(3)
H1 H 0.8250 1.3159 0.4039
O5 O 0.9534(6) 1.3232(6) 0.4524(4)
O6 O 1.0362(7) 1.3715(7) 0.5521(4)
O7 O 0.6217(6) 1.1095(7) 0.5237(4)
H2 H 0.6823 1.1147 0.5484
O8 O 0.5105(7) 1.2207(8) 0.4507(4)
C21 C 0.7838(8) 1.1249(9) 0.4226(5)
C22 C 0.8137(9) 1.0141(10) 0.4098(6)
H19 H 0.7995 0.9930 0.3682
C23 C 0.8627(10) 0.9356(10) 0.4553(6)
H20 H 0.8793 0.8608 0.4455
C24 C 0.8874(9) 0.9704(10) 0.5175(5)
H21 H 0.9259 0.9201 0.5496
C25 C 0.8561(8) 1.0773(9) 0.5323(5)
C26 C 0.8097(8) 1.1571(8) 0.4858(4)
C27 C 0.7305(9) 1.2063(9) 0.3694(5)
C28 C 0.8728(9) 1.1035(9) 0.6000(5)
C29 C 0.7795(9) 1.2780(9) 0.5027(5)
C30 C 0.6761(8) 1.3015(10) 0.5027(5)
C31 C 0.6500(10) 1.4132(11) 0.5166(5)
H22 H 0.5841 1.4279 0.5185
C32 C 0.7218(10) 1.5003(11) 0.5274(5)
H23 H 0.7038 1.5761 0.5348
C33 C 0.8234(10) 1.4777(10) 0.5274(5)
H24 H 0.8722 1.5384 0.5365
C34 C 0.8518(8) 1.3683(8) 0.5145(4)
C35 C 0.9561(9) 1.3533(9) 0.5078(5)
C36 C 0.5966(11) 1.2040(13) 0.4914(6)
O9 O 0.3323(8) 0.1656(10) 0.4760(5)
H25 H 0.3875 0.1813 0.4683
H26 H 0.3315 0.2059 0.5071
O10 O 0.2579(9) 0.3374(15) 0.6027(6)
H27 H 0.1919 0.3486 0.5875
H28 H 0.2704 0.2641 0.6064
loop_
_geom_bond_atom_site_label_1
_geom_bond_atom_site_label_2
_geom_bond_site_symmetry_1
_geom_bond_site_symmetry_2
Ag1 N1 1_555 1_555
N1 C1 1_555 1_555
N2 C8 1_555 1_555
N3 C11 1_555 1_555
N4 C18 1_555 1_555
O1 C28 1_555 1_555
O2 C28 1_555 1_555
O3 C27 1_555 1_555
O4 H1 1_555 1_555
O5 C35 1_555 1_555
O6 C35 1_555 1_555
O7 H2 1_555 1_555
O8 C36 1_555 1_555
C1 H3 1_555 1_555
C2 C1 1_555 1_555
H4 C2 1_555 1_555
C3 C2 1_555 1_555
C4 C3 1_555 1_555
H5 C4 1_555 1_555
C5 N1 1_555 1_555
H6 C5 1_555 1_555
C6 C3 1_555 1_555
C7 C6 1_555 1_555
H7 C7 1_555 1_555
C8 C7 1_555 1_555
H8 C8 1_555 1_555
C9 N2 1_555 1_555
H9 C9 1_555 1_555
C10 C6 1_555 1_555
H10 C10 1_555 1_555
C11 H11 1_555 1_555
C12 C11 1_555 1_555
H12 C12 1_555 1_555
C13 C12 1_555 1_555
C14 C13 1_555 1_555
H13 C14 1_555 1_555
C15 N3 1_555 1_555
H14 C15 1_555 1_555
C16 C13 1_555 1_555
C17 C16 1_555 1_555
H15 C17 1_555 1_555
C18 C17 1_555 1_555
H16 C18 1_555 1_555
C19 N4 1_555 1_555
H17 C19 1_555 1_555
C20 C16 1_555 1_555
H18 C20 1_555 1_555
C21 C22 1_555 1_555
C22 H19 1_555 1_555
C23 C22 1_555 1_555
H20 C23 1_555 1_555
C24 C23 1_555 1_555
H21 C24 1_555 1_555
C25 C24 1_555 1_555
C26 C21 1_555 1_555
C27 O4 1_555 1_555
C28 C25 1_555 1_555
C29 C26 1_555 1_555
C30 C29 1_555 1_555
C31 C30 1_555 1_555
H22 C31 1_555 1_555
C32 C31 1_555 1_555
H23 C32 1_555 1_555
C33 C32 1_555 1_555
H24 C33 1_555 1_555
C34 C29 1_555 1_555
C35 C34 1_555 1_555
C36 O7 1_555 1_555
Ag2 N3 1_555 1_555
O9 H25 1_555 1_555
H26 O9 1_555 1_555
O10 H27 1_555 1_555
H28 O10 1_555 1_555
Ag1_2 N2 1_555 1_555
N2_2 Ag1 1_555 1_555
N4_2 Ag2 1_555 1_555
Ag2_2 N4 1_555 1_555
C4 C5 1_555 1_555
C9 C10 1_555 1_555
C14 C15 1_555 1_555
C19 C20 1_555 1_555
C21 C27 1_555 1_555
C25 C26 1_555 1_555
C30 C36 1_555 1_555
C33 C34 1_555 1_555

#END
