
#######################################################################
#
#                 Cambridge Crystallographic Data Centre
#                                CCDC 
#
#######################################################################
#
# If this CIF has been generated from an entry in the Cambridge 
# Structural Database, then it will include bibliographic, chemical, 
# crystal, experimental, refinement or atomic coordinate data resulting 
# from the CCDC's data processing and validation procedures.
#
#######################################################################

data_DAXFUF
_symmetry_cell_setting           monoclinic
_symmetry_space_group_name_H-M   'C 2/c'
_symmetry_Int_Tables_number      15
_space_group_name_Hall           '-C 2yn'
loop_
_symmetry_equiv_pos_site_id
_symmetry_equiv_pos_as_xyz
1 x,y,z
2 -x,y,1/2-z
3 1/2+x,1/2+y,z
4 1/2-x,1/2+y,1/2-z
5 -x,-y,-z
6 x,-y,1/2+z
7 1/2-x,1/2-y,-z
8 1/2+x,1/2-y,1/2+z
_cell_length_a                   22.927(5)
_cell_length_b                   14.592(3)
_cell_length_c                   13.588(3)
_cell_angle_alpha                90
_cell_angle_beta                 117.98(3)
_cell_angle_gamma                90
_cell_volume                     4014.52
loop_
_atom_site_label
_atom_site_type_symbol
_atom_site_fract_x
_atom_site_fract_y
_atom_site_fract_z
O1 O 0.5000 0.2321(9) 0.2500
H1 H 0.4876 0.1948 0.2840
H1A H 0.5124 0.1948 0.2160
O2 O 0.4859(6) 0.4788(8) 0.5797(9)
H2 H 0.4686 0.4280 0.5829
H3 H 0.4895 0.5065 0.6261
O3 O 0.4285(3) 0.3109(5) 0.5925(5)
O4 O 0.5977(4) -0.1014(5) 0.7913(8)
O5 O 0.6279(3) 0.0179(5) 0.9038(6)
H4 H 0.6228 0.0736 0.8980
O6 O 0.3724(3) 0.1869(4) 0.5932(5)
C13 C 0.5466(5) 0.1056(8) 0.5355(8)
H16 H 0.5591 0.1065 0.4797
C14 C 0.4999(4) 0.1669(7) 0.5325(7)
H17 H 0.4815 0.2091 0.4746
C15 C 0.4798(4) 0.1668(6) 0.6147(6)
C16 C 0.5097(3) 0.1049(5) 0.7039(6)
C17 C 0.5586(4) 0.0449(6) 0.7090(7)
C18 C 0.5746(4) 0.0429(7) 0.6215(8)
H18 H 0.6042 -0.0007 0.6212
C19 C 0.5963(5) -0.0195(7) 0.8064(9)
C20 C 0.4241(4) 0.2276(7) 0.6013(6)
O3A O 0.5715(3) 0.3109(5) 0.9075(5)
O4A O 0.4023(4) -0.1014(5) 0.7087(8)
O5A O 0.3721(3) 0.0179(5) 0.5962(6)
H4A H 0.3772 0.0736 0.6020
O6A O 0.6276(3) 0.1869(4) 0.9068(5)
C13A C 0.4534(5) 0.1056(8) 0.9645(8)
H16A H 0.4409 0.1065 1.0203
C14A C 0.5001(4) 0.1669(7) 0.9675(7)
H17A H 0.5185 0.2091 1.0254
C15A C 0.5202(4) 0.1668(6) 0.8853(6)
C16A C 0.4903(3) 0.1049(5) 0.7961(6)
C17A C 0.4414(4) 0.0449(6) 0.7910(7)
C18A C 0.4254(4) 0.0429(7) 0.8785(8)
H18A H 0.3958 -0.0007 0.8788
C19A C 0.4037(5) -0.0195(7) 0.6936(9)
C20A C 0.5759(4) 0.2276(7) 0.8987(6)
Ag1 Ag 0.29508(4) 0.34335(6) 0.51160(5)
N1 N 0.2865(4) 0.3647(5) 0.3487(5)
N2 N 0.2993(4) 0.3574(5) -0.3279(6)
C1 C 0.3411(5) 0.3822(9) 0.3396(8)
H6 H 0.3813 0.3855 0.4045
C2 C 0.3408(5) 0.3957(10) 0.2394(8)
H7 H 0.3800 0.4071 0.2371
C3 C 0.2813(5) 0.3921(8) 0.1413(7)
C4 C 0.2262(5) 0.3741(8) 0.1525(7)
H8 H 0.1854 0.3691 0.0891
C5 C 0.2298(4) 0.3634(7) 0.2552(7)
H9 H 0.1909 0.3549 0.2596
C6 C 0.2775(7) 0.4073(11) 0.0285(9)
H10 H 0.2465 0.4471 -0.0231
C7 C 0.3208(7) 0.3611(11) 0.0047(9)
H11 H 0.3551 0.3276 0.0597
C8 C 0.3122(5) 0.3648(7) -0.1125(7)
C9 C 0.3663(5) 0.3553(8) -0.1304(8)
H12 H 0.4084 0.3510 -0.0700
C10 C 0.3583(5) 0.3522(7) -0.2359(7)
H13 H 0.3958 0.3460 -0.2452
C11 C 0.2466(5) 0.3683(7) -0.3115(7)
H14 H 0.2051 0.3724 -0.3733
C12 C 0.2512(5) 0.3736(8) -0.2075(8)
H15 H 0.2134 0.3832 -0.2001
Ag1_2 Ag 0.29508(4) 0.34335(6) -0.48840(5)
N2_2 N 0.2993(4) 0.3574(5) 0.6721(6)
O7 O 0.5000 0.4141(10) 0.2500
H5 H 0.5058 0.3632 0.3031
H5A H 0.4942 0.3632 0.1969
loop_
_geom_bond_atom_site_label_1
_geom_bond_atom_site_label_2
_geom_bond_site_symmetry_1
_geom_bond_site_symmetry_2
O1 H1 1_555 1_555
O2 H2 1_555 1_555
H3 O2 1_555 1_555
O3 C20 1_555 1_555
Ag1 N1 1_555 1_555
N1 C1 1_555 1_555
N2 C10 1_555 1_555
O4 C19 1_555 1_555
O5 H4 1_555 1_555
O6 C20 1_555 1_555
O7 H5 1_555 1_555
C1 H6 1_555 1_555
C2 C1 1_555 1_555
H7 C2 1_555 1_555
C3 C2 1_555 1_555
C4 C3 1_555 1_555
H8 C4 1_555 1_555
C5 N1 1_555 1_555
H9 C5 1_555 1_555
C6 C3 1_555 1_555
H10 C6 1_555 1_555
C7 C6 1_555 1_555
H11 C7 1_555 1_555
C8 C7 1_555 1_555
C9 C8 1_555 1_555
H12 C9 1_555 1_555
C10 C9 1_555 1_555
H13 C10 1_555 1_555
C11 N2 1_555 1_555
H14 C11 1_555 1_555
C12 C8 1_555 1_555
H15 C12 1_555 1_555
C13 H16 1_555 1_555
C14 C13 1_555 1_555
H17 C14 1_555 1_555
C15 C14 1_555 1_555
C16 C15 1_555 1_555
C17 C16 1_555 1_555
C18 C13 1_555 1_555
H18 C18 1_555 1_555
C19 O5 1_555 1_555
C20 C15 1_555 1_555
H1A O1 1_555 1_555
O3A C20A 1_555 1_555
Ag1_2 N2 1_555 1_555
N2_2 Ag1 1_555 1_555
O4A C19A 1_555 1_555
O5A H4A 1_555 1_555
O6A C20A 1_555 1_555
H5A O7 1_555 1_555
C13A H16A 1_555 1_555
C14A C13A 1_555 1_555
H17A C14A 1_555 1_555
C15A C14A 1_555 1_555
C16A C16 1_555 1_555
C17A C16A 1_555 1_555
C18A C13A 1_555 1_555
H18A C18A 1_555 1_555
C19A O5A 1_555 1_555
C20A C15A 1_555 1_555
C4 C5 1_555 1_555
C11 C12 1_555 1_555
C17 C18 1_555 1_555
C17 C19 1_555 1_555
C15A C16A 1_555 1_555
C17A C18A 1_555 1_555
C17A C19A 1_555 1_555

#END
