
#######################################################################
#
#                 Cambridge Crystallographic Data Centre
#                                CCDC 
#
#######################################################################
#
# If this CIF has been generated from an entry in the Cambridge 
# Structural Database, then it will include bibliographic, chemical, 
# crystal, experimental, refinement or atomic coordinate data resulting 
# from the CCDC's data processing and validation procedures.
#
#######################################################################

data_DAXFOZ
_symmetry_cell_setting           monoclinic
_symmetry_space_group_name_H-M   'P 2/c'
_symmetry_Int_Tables_number      13
_space_group_name_Hall           '-P 2yc'
loop_
_symmetry_equiv_pos_site_id
_symmetry_equiv_pos_as_xyz
1 x,y,z
2 -x,y,1/2-z
3 -x,-y,-z
4 x,-y,1/2+z
_cell_length_a                   13.1642(5)
_cell_length_b                   9.9022(5)
_cell_length_c                   16.0294(11)
_cell_angle_alpha                90
_cell_angle_beta                 124.520(4)
_cell_angle_gamma                90
_cell_volume                     1721.6
loop_
_atom_site_label
_atom_site_type_symbol
_atom_site_fract_x
_atom_site_fract_y
_atom_site_fract_z
Cl1 Cl 0.5000 0.5535(3) 0.2500
O5 O 0.5199(7) 0.6323(8) 0.3301(6)
O6 O 0.6072(5) 0.4715(5) 0.2865(4)
O5A O 0.4801(7) 0.6323(8) 0.1699(6)
O6A O 0.3928(5) 0.4715(5) 0.2135(4)
Ag1 Ag 0.0000 0.86518(8) 0.7500
Ag2 Ag 1.0000 1.0000 1.0000
N1 N 0.1933(4) 0.8870(5) 0.8027(4)
N2 N 0.8063(5) 0.9670(6) 0.9414(4)
C1 C 0.2513(6) 0.7870(7) 0.7892(5)
H1 H 0.2088 0.7069 0.7598
C2 C 0.3713(5) 0.7974(6) 0.8169(5)
H2 H 0.4086 0.7244 0.8078
C3 C 0.4357(5) 0.9162(6) 0.8580(4)
C4 C 0.3753(6) 1.0199(7) 0.8725(5)
H3 H 0.4155 1.1014 0.9009
C5 C 0.2566(6) 1.0016(7) 0.8447(5)
H4 H 0.2183 1.0717 0.8556
C6 C 0.5637(5) 0.9328(6) 0.8856(5)
C7 C 0.6426(5) 0.8238(7) 0.9114(5)
H5 H 0.6157 0.7366 0.9103
C8 C 0.7611(5) 0.8456(7) 0.9386(5)
H6 H 0.8124 0.7711 0.9561
C9 C 0.7308(6) 1.0718(8) 0.9162(6)
H7 H 0.7604 1.1577 0.9178
C10 C 0.6103(6) 1.0589(7) 0.8877(6)
H8 H 0.5608 1.1351 0.8700
Ag2A Ag -1.0000 1.0000 0.5000
N1A N -0.1933(4) 0.8870(5) 0.6973(4)
N2A N -0.8063(5) 0.9670(6) 0.5586(4)
N2B N 1.1937(5) 1.0330(6) 1.0586(4)
C1A C -0.2513(6) 0.7870(7) 0.7108(5)
H1A H -0.2088 0.7069 0.7402
C2A C -0.3713(5) 0.7974(6) 0.6831(5)
H2A H -0.4086 0.7244 0.6922
C3A C -0.4357(5) 0.9162(6) 0.6420(4)
C4A C -0.3753(6) 1.0199(7) 0.6275(5)
H3A H -0.4155 1.1014 0.5991
C5A C -0.2566(6) 1.0016(7) 0.6553(5)
H4A H -0.2183 1.0717 0.6444
C6A C -0.5637(5) 0.9328(6) 0.6144(5)
C7A C -0.6426(5) 0.8238(7) 0.5886(5)
H5A H -0.6157 0.7366 0.5897
C8A C -0.7611(5) 0.8456(7) 0.5614(5)
H6A H -0.8124 0.7711 0.5439
C9A C -0.7308(6) 1.0718(8) 0.5838(6)
H7A H -0.7604 1.1577 0.5822
C10A C -0.6103(6) 1.0589(7) 0.6123(6)
H8A H -0.5608 1.1351 0.6300
O1 O 0.0625(4) 0.2593(5) 0.5861(3)
O2 O -0.0060(4) 0.1691(4) 0.6707(3)
O3 O 0.0054(5) 0.6662(5) 0.8664(3)
O4 O 0.1351(5) 0.5588(6) 1.0098(3)
H9 H 0.1084 0.6125 1.0319
C11 C 0.1277(5) 0.3564(6) 0.7453(4)
C12 C 0.0688(5) 0.4332(6) 0.7799(4)
C13 C 0.1415(5) 0.5007(6) 0.8722(4)
C14 C 0.2694(6) 0.4943(7) 0.9262(5)
H10 H 0.3173 0.5367 0.9889
C15 C 0.3257(6) 0.4267(7) 0.8886(5)
H11 H 0.4112 0.4264 0.9241
C16 C 0.2552(5) 0.3589(6) 0.7977(5)
H12 H 0.2933 0.3145 0.7713
C17 C 0.0566(5) 0.2591(6) 0.6600(4)
C18 C 0.0851(5) 0.5837(6) 0.9137(4)
O1A O -0.0625(4) 0.2593(5) 0.9139(3)
O2A O 0.0060(4) 0.1691(4) 0.8293(3)
O3A O -0.0054(5) 0.6662(5) 0.6336(3)
O4A O -0.1351(5) 0.5588(6) 0.4902(3)
H9A H -0.1084 0.6125 0.4681
C11A C -0.1277(5) 0.3564(6) 0.7547(4)
C12A C -0.0688(5) 0.4332(6) 0.7201(4)
C13A C -0.1415(5) 0.5007(6) 0.6278(4)
C14A C -0.2694(6) 0.4943(7) 0.5738(5)
H10A H -0.3173 0.5367 0.5111
C15A C -0.3257(6) 0.4267(7) 0.6114(5)
H11A H -0.4112 0.4264 0.5759
C16A C -0.2552(5) 0.3589(6) 0.7023(5)
H12A H -0.2933 0.3145 0.7287
C17A C -0.0566(5) 0.2591(6) 0.8400(4)
C18A C -0.0851(5) 0.5837(6) 0.5863(4)
loop_
_geom_bond_atom_site_label_1
_geom_bond_atom_site_label_2
_geom_bond_site_symmetry_1
_geom_bond_site_symmetry_2
Cl1 O5 1_555 1_555
Ag1 N1 1_555 1_555
Ag2 N2 1_555 1_555
N1 C1 1_555 1_555
N2 C8 1_555 1_555
C1 H1 1_555 1_555
C2 C1 1_555 1_555
H2 C2 1_555 1_555
C3 C2 1_555 1_555
C4 C3 1_555 1_555
H3 C4 1_555 1_555
C5 N1 1_555 1_555
H4 C5 1_555 1_555
C6 C3 1_555 1_555
C7 C6 1_555 1_555
H5 C7 1_555 1_555
C8 C7 1_555 1_555
H6 C8 1_555 1_555
C9 N2 1_555 1_555
H7 C9 1_555 1_555
C10 C6 1_555 1_555
H8 C10 1_555 1_555
O1 C17 1_555 1_555
O2 C17 1_555 1_555
O3 C18 1_555 1_555
O4 H9 1_555 1_555
C11 C12 1_555 1_555
C12 C13 1_555 1_555
C13 C14 1_555 1_555
C14 H10 1_555 1_555
C15 C14 1_555 1_555
H11 C15 1_555 1_555
C16 C11 1_555 1_555
H12 C16 1_555 1_555
C17 C11 1_555 1_555
C18 O4 1_555 1_555
O6 Cl1 1_555 1_555
Ag2A N2A 1_555 1_555
N1A Ag1 1_555 1_555
N2A C8A 1_555 1_555
N2B Ag2 1_555 1_555
C1A N1A 1_555 1_555
H1A C1A 1_555 1_555
C2A C1A 1_555 1_555
H2A C2A 1_555 1_555
C3A C2A 1_555 1_555
C4A C3A 1_555 1_555
H3A C4A 1_555 1_555
C5A N1A 1_555 1_555
H4A C5A 1_555 1_555
C6A C3A 1_555 1_555
C7A C6A 1_555 1_555
H5A C7A 1_555 1_555
C8A C7A 1_555 1_555
H6A C8A 1_555 1_555
C9A N2A 1_555 1_555
H7A C9A 1_555 1_555
C10A C6A 1_555 1_555
H8A C10A 1_555 1_555
O1A C17A 1_555 1_555
O2A C17A 1_555 1_555
O3A C18A 1_555 1_555
O4A H9A 1_555 1_555
C11A C12A 1_555 1_555
C12A C12 1_555 1_555
C13A C12A 1_555 1_555
C14A C13A 1_555 1_555
H10A C14A 1_555 1_555
C15A C14A 1_555 1_555
H11A C15A 1_555 1_555
C16A C11A 1_555 1_555
H12A C16A 1_555 1_555
C17A C11A 1_555 1_555
C18A O4A 1_555 1_555
O5A Cl1 1_555 1_555
O6A Cl1 1_555 1_555
C4 C5 1_555 1_555
C9 C10 1_555 1_555
C13 C18 1_555 1_555
C15 C16 1_555 1_555
C4A C5A 1_555 1_555
C9A C10A 1_555 1_555
C13A C18A 1_555 1_555
C15A C16A 1_555 1_555

#END
