
#######################################################################
#
#                 Cambridge Crystallographic Data Centre
#                                CCDC 
#
#######################################################################
#
# If this CIF has been generated from an entry in the Cambridge 
# Structural Database, then it will include bibliographic, chemical, 
# crystal, experimental, refinement or atomic coordinate data resulting 
# from the CCDC's data processing and validation procedures.
#
#######################################################################

data_DAXGAM
_symmetry_cell_setting           monoclinic
_symmetry_space_group_name_H-M   'P 21/c'
_symmetry_Int_Tables_number      14
_space_group_name_Hall           '-P 2ybc'
loop_
_symmetry_equiv_pos_site_id
_symmetry_equiv_pos_as_xyz
1 x,y,z
2 -x,1/2+y,1/2-z
3 -x,-y,-z
4 x,1/2-y,1/2+z
_cell_length_a                   14.3868(7)
_cell_length_b                   9.5641(4)
_cell_length_c                   11.3566(5)
_cell_angle_alpha                90
_cell_angle_beta                 92.690(2)
_cell_angle_gamma                90
_cell_volume                     1560.91
loop_
_atom_site_label
_atom_site_type_symbol
_atom_site_fract_x
_atom_site_fract_y
_atom_site_fract_z
Zn1 Zn 0.521433(15) 0.15871(2) 0.139938(19)
O1 O 0.42346(10) -0.01077(14) 0.11449(12)
O2 O 0.40490(10) 0.26192(14) 0.20559(13)
O3 O 0.33169(12) 0.16190(17) 0.35105(14)
O4 O 0.36922(10) -0.04836(16) -0.07011(13)
O5 O 0.60696(11) 0.32571(15) 0.18122(13)
O6 O -0.19938(11) -0.04454(19) 0.53914(15)
O7 O 0.55206(11) 0.05149(16) 0.29659(13)
O8 O 0.00850(10) 0.23032(18) 0.12080(14)
O9 O 0.49038(10) 0.24033(16) -0.02806(12)
O10 O -0.30782(11) 0.1084(2) 0.47741(15)
C1 C 0.25913(14) 0.14922(19) 0.15953(18)
C2 C 0.33807(13) 0.1918(2) 0.24471(17)
C3 C 0.36099(13) -0.0006(2) 0.03127(17)
C4 C 0.09626(14) 0.1731(2) 0.1044(2)
C5 C -0.16342(14) 0.1053(2) 0.38349(18)
C6 C -0.23043(15) 0.0569(2) 0.47053(18)
C7 C 0.19478(15) 0.0482(2) -0.02151(19)
H1 H 0.2028 -0.0033 -0.0918
C8 C -0.04279(14) 0.1868(2) 0.21338(19)
C9 C -0.07760(15) 0.0407(2) 0.3756(2)
H2 H -0.0601 -0.0320 0.4292
C10 C 0.17061(14) 0.1992(2) 0.18341(18)
H3 H 0.1615 0.2509 0.2534
C11 C 0.27084(13) 0.0696(2) 0.05722(17)
C12 C -0.12793(15) 0.2550(2) 0.2221(2)
H4 H -0.1445 0.3294 0.1698
C13 C -0.18796(15) 0.2140(2) 0.3069(2)
H5 H -0.2460 0.2601 0.3130
C14 C 0.10765(15) 0.1009(3) 0.0013(2)
H6 H 0.0565 0.0874 -0.0535
C15 C -0.01701(14) 0.0809(2) 0.2905(2)
H7 H 0.0416 0.0360 0.2853
H8 H 0.5122 0.1702 -0.0689
H9 H 0.4324 0.2645 -0.0554
H10 H 0.6293 0.3672 0.1151
H11 H -0.2495 -0.0713 0.5822
H12 H 0.5947 0.0767 0.3523
H13 H 0.5791 -0.0445 0.2955
H14 H 0.5850 0.4032 0.2183
Zn1B Zn 0.478567(15) -0.15871(2) -0.139938(19)
O4B O 0.63078(10) 0.04836(16) 0.07011(13)
loop_
_geom_bond_atom_site_label_1
_geom_bond_atom_site_label_2
_geom_bond_site_symmetry_1
_geom_bond_site_symmetry_2
Zn1 O1 1_555 1_555
O1 C3 1_555 1_555
O2 Zn1 1_555 1_555
O3 C2 1_555 1_555
O4 C3 1_555 1_555
O5 Zn1 1_555 1_555
O6 C6 1_555 1_555
O7 Zn1 1_555 1_555
O8 C4 1_555 1_555
O9 Zn1 1_555 1_555
O10 C6 1_555 1_555
C1 C2 1_555 1_555
C2 O2 1_555 1_555
C3 C11 1_555 1_555
C4 C10 1_555 1_555
C5 C6 1_555 1_555
C7 H1 1_555 1_555
C8 O8 1_555 1_555
C9 C5 1_555 1_555
H2 C9 1_555 1_555
C10 C1 1_555 1_555
H3 C10 1_555 1_555
C11 C1 1_555 1_555
C12 C8 1_555 1_555
H4 C12 1_555 1_555
C13 C5 1_555 1_555
H5 C13 1_555 1_555
C14 C4 1_555 1_555
H6 C14 1_555 1_555
C15 C8 1_555 1_555
H7 C15 1_555 1_555
H8 O9 1_555 1_555
H9 O9 1_555 1_555
H10 O5 1_555 1_555
H11 O6 1_555 1_555
H12 O7 1_555 1_555
H13 O7 1_555 1_555
H14 O5 1_555 1_555
Zn1B O4 1_555 1_555
O4B Zn1 1_555 1_555
C7 C11 1_555 1_555
C7 C14 1_555 1_555
C9 C15 1_555 1_555
C12 C13 1_555 1_555

#END
