
#######################################################################
#
#                 Cambridge Crystallographic Data Centre
#                                CCDC 
#
#######################################################################
#
# If this CIF has been generated from an entry in the Cambridge 
# Structural Database, then it will include bibliographic, chemical, 
# crystal, experimental, refinement or atomic coordinate data resulting 
# from the CCDC's data processing and validation procedures.
#
#######################################################################

data_DAXGIU
_symmetry_cell_setting           triclinic
_symmetry_space_group_name_H-M   'P 1'
_symmetry_Int_Tables_number      1
_space_group_name_Hall           'P 1'
loop_
_symmetry_equiv_pos_site_id
_symmetry_equiv_pos_as_xyz
1 x,y,z
_cell_length_a                   11.1662(14)
_cell_length_b                   13.8811(18)
_cell_length_c                   13.921
_cell_angle_alpha                96.82(5)
_cell_angle_beta                 105.96(3)
_cell_angle_gamma                109.44(3)
_cell_volume                     1902.96
loop_
_atom_site_label
_atom_site_type_symbol
_atom_site_fract_x
_atom_site_fract_y
_atom_site_fract_z
Zn1 Zn 0.21882(7) -0.04805(5) -0.06413(5)
Zn2 Zn 0.41880(7) 0.35223(5) 0.45138(5)
Zn3 Zn 0.24613(7) -0.05376(5) 0.14621(5)
Zn4 Zn 0.35819(7) 0.36294(5) 0.67181(5)
Zn5 Zn 0.14260(7) -0.43673(5) 0.38272(5)
Zn6 Zn -0.04253(8) -0.42571(6) -0.43079(5)
N1 N 0.2614(6) -0.0435(4) -0.7046(4)
C1 C -0.5211(9) -0.2624(6) -0.0453(6)
H1 H -0.5431 -0.2297 -0.1001
O1 O 0.4692(6) 0.5012(4) 0.5220(4)
O2 O 0.1835(5) 0.3075(4) 0.5608(3)
O3 O 0.0250(5) -0.3624(4) 0.3390(4)
O4 O 0.0851(5) -0.1942(4) 0.0761(4)
O5 O -0.3810(5) -0.4613(4) 0.0138(4)
C2 C 0.1463(8) 0.5610(6) 1.1716(5)
H2 H 0.1213 0.6196 1.1806
O6 O 0.8272(5) 0.3450(4) 0.0451(4)
O7 O 0.5357(6) 0.3781(4) 0.3695(4)
O8 O 0.4507(5) 1.2665(4) 0.6841(4)
C3 C 0.4242(7) 0.1308(5) 0.1054(5)
C4 C 0.5832(8) 1.1264(5) 0.7208(5)
H3 H 0.5257 1.1305 0.7589
N2 N 0.1568(6) 0.5103(4) 1.2457(4)
O9 O 1.1159(5) 0.0221(4) 0.1029(4)
O10 O -0.6400(6) -0.1409(4) 0.1359(4)
C5 C 0.0361(7) -0.2312(5) -0.0192(5)
O11 O 0.3566(6) 0.2585(4) 0.2494(5)
O12 O 0.3584(5) 0.0983(4) 0.0100(3)
O13 O 0.4075(5) 0.0831(3) 0.1718(3)
O14 O 1.0825(5) 0.0200(4) -0.0632(4)
O15 O 0.0713(6) -0.1892(4) -0.0856(4)
N3 N 0.2194(6) -0.0497(4) -0.2098(4)
C6 C 0.4770(8) 0.3168(5) 0.2799(5)
O16 O -0.0853(6) -0.4070(4) -0.3049(4)
O17 O 0.4669(5) 0.5094(3) 0.6820(3)
O18 O 0.2231(5) 0.2754(3) 0.4135(3)
C7 C 0.9969(7) 0.1209(5) 0.0257(5)
C8 C -0.1729(7) -0.3540(5) -0.0039(5)
H4 H -0.1586 -0.3024 0.0539
C9 C 0.5331(7) 0.7270(5) 0.5701(5)
O19 O -0.0989(5) 0.4277(4) 0.4946(4)
C10 C 0.5655(7) 0.3222(5) 0.2129(5)
N4 N 0.2974(6) 0.3679(4) 0.7957(4)
O20 O 0.3012(5) 0.6316(4) 0.5039(4)
O21 O -0.6391(5) -0.1151(4) -0.0201(4)
O22 O 0.0670(5) 0.4377(4) 0.4305(4)
O23 O 0.1053(5) -0.3729(4) -0.1770(4)
C11 C -0.0910(7) 0.2725(5) 0.4133(4)
C12 C -0.0154(8) -0.3932(5) -0.2115(5)
C13 C -0.1034(7) -0.4111(5) -0.1437(5)
C14 C -0.0365(7) 0.3876(5) 0.4500(5)
C15 C 0.6757(7) 0.4150(5) 0.2293(5)
H5 H 0.6909 0.4744 0.2796
C16 C -0.4561(8) -0.3565(6) 0.1132(5)
H6 H -0.4320 -0.3882 0.1684
C17 C -0.0785(6) -0.3355(5) -0.0551(5)
O24 O 0.0191(5) -0.3148(4) 0.4955(4)
C18 C 0.1449(7) 0.2727(5) 0.4651(5)
C19 C 0.2427(7) 0.0399(5) -0.5527(4)
H7 H 0.2323 0.0977 -0.5170
C20 C 0.6250(7) 0.2467(5) 0.0783(5)
H8 H 0.6060 0.1898 0.0237
O25 O 0.1566(6) -0.4030(5) -0.3502(4)
C21 C -0.6126(7) -0.1570(6) 0.0536(6)
C22 C 0.7637(7) 0.4232(5) 0.1747(5)
H9 H 0.8395 0.4865 0.1883
C23 C -0.5470(6) -0.2356(5) 0.0441(5)
C24 C 0.2190(7) 0.3959(5) 1.1440(5)
H10 H 0.2455 0.3378 1.1373
C25 C -0.0055(6) 0.2193(5) 0.4100(4)
C26 C 0.8753(7) 0.2651(5) 0.0406(5)
C27 C -0.0743(7) -0.2418(5) 0.3651(5)
C28 C 0.4050(7) 0.6841(5) 0.4830(5)
C29 C 0.2538(6) -0.0401(5) -0.5065(4)
C30 C 0.3360(8) 0.3313(6) 0.8769(5)
H11 H 0.3864 0.2883 0.8749
C31 C 0.2775(7) -0.1188(5) -0.6597(4)
H12 H 0.2910 -0.1741 -0.6966
O26 O -0.2458(6) -0.4414(4) -0.5108(4)
O27 O 0.8055(5) 0.9871(4) 0.6957(5)
C32 C 0.7388(7) 0.3375(5) 0.1001(5)
C33 C 0.2412(7) -0.0446(5) -0.4030(5)
C34 C -0.1961(8) 0.0625(5) 0.3152(5)
C35 C 0.9043(7) 0.2389(5) -0.0497(5)
H13 H 0.8842 0.2710 -0.1054
C36 C -0.2843(7) 0.1140(5) 0.3174(5)
H14 H -0.3790 0.0780 0.2851
C37 C 0.7269(7) 0.8806(5) 0.6774(6)
C38 C 0.5391(6) 0.2376(5) 0.1343(5)
C39 C -0.0094(7) -0.3115(5) 0.4031(5)
C40 C -0.2861(7) -0.4455(5) -0.0358(5)
C41 C 0.4973(7) 0.5503(5) 0.6117(5)
C42 C -0.2140(7) -0.5047(5) -0.1703(5)
H15 H -0.2278 -0.5576 -0.2268
C43 C 0.9621(7) 0.1660(5) -0.0547(5)
H16 H 0.9786 0.1461 -0.1160
C44 C 0.5181(8) 1.2533(5) 0.6253(6)
C45 C 0.2802(9) -0.1040(6) -0.2485(5)
H17 H 0.3167 -0.1450 -0.2086
C46 C 0.1694(8) 0.5342(5) 1.0814(5)
H18 H 0.1600 0.5733 1.0303
C47 C 0.9680(8) 0.1471(6) 0.1148(6)
H19 H 0.9912 0.1168 0.1714
C48 C -0.3052(7) -0.5241(5) -0.1180(5)
H20 H -0.3794 -0.5896 -0.1374
C49 C -0.2296(7) 0.2190(5) 0.3681(5)
H21 H -0.2877 0.2549 0.3721
C50 C -0.5142(7) -0.2841(5) 0.1220(5)
H22 H -0.5319 -0.2673 0.1835
C51 C 0.6912(8) 0.7148(5) 0.7216(6)
H23 H 0.7187 0.6744 0.7671
C52 C 0.1772(9) 0.0125(7) -0.3617(5)
H24 H 0.1415 0.0553 -0.3993
C53 C -0.0582(7) 0.1147(5) 0.3615(5)
H25 H 0.0000 0.0783 0.3597
C54 C 0.3056(8) 0.3532(6) 0.9653(5)
H26 H 0.3343 0.3245 1.0218
O28 O -0.2555(6) -0.0415(4) 0.2583(4)
C55 C 0.7689(8) 0.8223(6) 0.7405(6)
H27 H 0.8505 0.8541 0.7972
C56 C 0.2465(7) 0.0362(5) -0.6513(5)
H28 H 0.2383 0.0921 -0.6824
C57 C -0.4640(8) -0.3353(6) -0.0562(6)
H29 H -0.4464 -0.3525 -0.1176
C58 C 0.7363(8) 1.0554(5) 0.6809(6)
C59 C 0.2924(9) -0.1030(6) -0.3447(5)
H30 H 0.3363 -0.1430 -0.3699
C60 C 1.0692(7) 0.0474(5) 0.0229(5)
C61 C 0.6101(7) 0.8338(5) 0.5912(5)
H31 H 0.5832 0.8752 0.5467
C62 C 0.2757(7) -0.1204(5) -0.5608(5)
H32 H 0.2891 -0.1753 -0.5302
C63 C -0.1354(9) -0.1967(6) 0.4231(6)
H33 H -0.1369 -0.2133 0.4871
C64 C 0.5745(7) 0.6672(5) 0.6369(5)
C65 C 0.2204(11) 0.4247(8) 0.7992(6)
H34 H 0.1879 0.4491 0.7403
O29 O 0.3983(6) 0.7030(4) 0.3988(4)
C66 C -0.4334(7) -0.3824(5) 0.0227(6)
C67 C -0.1935(8) -0.1052(5) 0.2943(6)
O30 O 0.5166(6) 1.2903(4) 0.5491(4)
C68 C 0.2345(7) 0.4161(5) 0.9715(5)
C69 C 0.2067(6) 0.4485(5) 1.0669(5)
C70 C 0.9045(8) 0.2186(6) 0.1196(6)
H35 H 0.8816 0.2346 0.1787
C71 C 0.5987(8) 1.1867(5) 0.6500(5)
C72 C -0.0748(8) -0.2154(6) 0.2712(5)
H36 H -0.0334 -0.2448 0.2312
C73 C 0.1930(8) 0.4272(5) 1.2313(5)
H37 H 0.2009 0.3890 1.2833
C74 C 0.6520(8) 1.0594(5) 0.7364(6)
H38 H 0.6411 1.0169 0.7845
C75 C 0.7584(10) 1.1169(7) 0.6148(7)
H39 H 0.8208 1.1160 0.5804
C76 C -0.1325(8) -0.1489(6) 0.2352(6)
H40 H -0.1317 -0.1322 0.1711
C77 C 0.6868(9) 1.1821(7) 0.5985(6)
H41 H 0.6990 1.2245 0.5505
C78 C -0.1935(10) -0.1281(6) 0.3872(7)
H42 H -0.2334 -0.0970 0.4272
C79 C 0.1666(9) 0.0060(7) -0.2661(5)
H43 H 0.1198 0.0426 -0.2398
C80 C 0.1876(10) 0.4487(7) 0.8845(6)
H44 H 0.1321 0.4879 0.8834
H45 H 0.2293 -0.3905 -0.3654
H46 H 0.1844 -0.3805 -0.2838
H47 H -0.3050 -0.4277 -0.4896
H48 H -0.2880 -0.4977 -0.5577
Zn1_2 Zn -0.78118(7) -0.04805(5) -0.06413(5)
Zn1_3 Zn 1.21882(7) -0.04805(5) -0.06413(5)
Zn2_2 Zn 0.41880(7) 1.35223(5) 0.45138(5)
Zn3_2 Zn 1.24613(7) -0.05376(5) 0.14621(5)
Zn3_3 Zn 0.24613(7) -0.05376(5) -0.85379(5)
Zn3_4 Zn -0.75387(7) -0.05376(5) 0.14621(5)
Zn4_2 Zn 0.35819(7) 1.36294(5) 0.67181(5)
Zn5_2 Zn 0.14260(7) 0.56327(5) 0.38272(5)
Zn5_3 Zn 0.14260(7) 0.56327(5) 1.38272(5)
Zn6_2 Zn -0.04253(8) 0.57429(6) 0.56921(5)
Zn6_3 Zn -0.04253(8) -0.42571(6) 0.56921(5)
N1_2 N 0.2614(6) -0.0435(4) 0.2954(4)
O8_2 O 0.4507(5) 0.2665(4) 0.6841(4)
N2_2 N 0.1568(6) -0.4897(4) 0.2457(4)
O9_2 O 0.1159(5) 0.0221(4) 0.1029(4)
O10_2 O 0.3600(6) -0.1409(4) 0.1359(4)
O14_2 O 0.0825(5) 0.0200(4) -0.0632(4)
O19_2 O -0.0989(5) -0.5723(4) -0.5054(4)
O20_2 O 0.3012(5) -0.3684(4) 0.5039(4)
O21_2 O 0.3609(5) -0.1151(4) -0.0201(4)
O22_2 O 0.0670(5) -0.5623(4) 0.4305(4)
O24_2 O 0.0191(5) -0.3148(4) -0.5045(4)
O30_2 O 0.5166(6) 0.2903(4) 0.5491(4)
loop_
_geom_bond_atom_site_label_1
_geom_bond_atom_site_label_2
_geom_bond_site_symmetry_1
_geom_bond_site_symmetry_2
Zn1 O12 1_555 1_555
Zn2 O1 1_555 1_555
Zn3 O4 1_555 1_555
Zn4 O2 1_555 1_555
Zn5 O3 1_555 1_555
Zn6 O16 1_555 1_555
N1 C31 1_555 1_555
C1 H1 1_555 1_555
O1 C41 1_555 1_555
O2 C18 1_555 1_555
O3 C39 1_555 1_555
O4 C5 1_555 1_555
O5 C40 1_555 1_555
C2 H2 1_555 1_555
O6 C26 1_555 1_555
O7 Zn2 1_555 1_555
O8 C44 1_555 1_555
C3 O12 1_555 1_555
C4 H3 1_555 1_555
N2 C2 1_555 1_555
O9 C60 1_555 1_555
O10 C21 1_555 1_555
C5 O15 1_555 1_555
O11 C6 1_555 1_555
O13 Zn3 1_555 1_555
O14 C60 1_555 1_555
O15 Zn1 1_555 1_555
N3 Zn1 1_555 1_555
C6 O7 1_555 1_555
O16 C12 1_555 1_555
O17 Zn4 1_555 1_555
O18 Zn2 1_555 1_555
C7 C43 1_555 1_555
C8 H4 1_555 1_555
C9 C28 1_555 1_555
O19 C14 1_555 1_555
C10 C6 1_555 1_555
N4 Zn4 1_555 1_555
O20 C28 1_555 1_555
O21 C21 1_555 1_555
O22 C14 1_555 1_555
O23 C12 1_555 1_555
C11 C14 1_555 1_555
C12 C13 1_555 1_555
C13 C17 1_555 1_555
C15 C10 1_555 1_555
H5 C15 1_555 1_555
C16 H6 1_555 1_555
C17 C5 1_555 1_555
O24 C39 1_555 1_555
C18 O18 1_555 1_555
C19 H7 1_555 1_555
C20 H8 1_555 1_555
O25 Zn6 1_555 1_555
C21 C23 1_555 1_555
C22 C15 1_555 1_555
H9 C22 1_555 1_555
C23 C1 1_555 1_555
C24 H10 1_555 1_555
C25 C11 1_555 1_555
C26 C35 1_555 1_555
C27 C39 1_555 1_555
C28 O29 1_555 1_555
C29 C19 1_555 1_555
C30 N4 1_555 1_555
H11 C30 1_555 1_555
C31 H12 1_555 1_555
O26 Zn6 1_555 1_555
O27 C37 1_555 1_555
C32 O6 1_555 1_555
C33 C29 1_555 1_555
C34 C36 1_555 1_555
C35 H13 1_555 1_555
C36 H14 1_555 1_555
C37 C55 1_555 1_555
C38 C3 1_555 1_555
C40 C8 1_555 1_555
C41 O17 1_555 1_555
C42 C13 1_555 1_555
H15 C42 1_555 1_555
C43 C35 1_555 1_555
H16 C43 1_555 1_555
C44 O30 1_555 1_555
C45 N3 1_555 1_555
H17 C45 1_555 1_555
C46 C2 1_555 1_555
H18 C46 1_555 1_555
C47 C7 1_555 1_555
H19 C47 1_555 1_555
C48 C40 1_555 1_555
H20 C48 1_555 1_555
C49 C11 1_555 1_555
H21 C49 1_555 1_555
C50 C16 1_555 1_555
H22 C50 1_555 1_555
C51 H23 1_555 1_555
C52 C33 1_555 1_555
H24 C52 1_555 1_555
C53 C25 1_555 1_555
H25 C53 1_555 1_555
C54 C30 1_555 1_555
H26 C54 1_555 1_555
O28 C34 1_555 1_555
C55 C51 1_555 1_555
H27 C55 1_555 1_555
C56 N1 1_555 1_555
H28 C56 1_555 1_555
C57 C1 1_555 1_555
H29 C57 1_555 1_555
C58 O27 1_555 1_555
C59 C33 1_555 1_555
H30 C59 1_555 1_555
C60 C7 1_555 1_555
C61 C9 1_555 1_555
H31 C61 1_555 1_555
C62 C29 1_555 1_555
H32 C62 1_555 1_555
C63 C27 1_555 1_555
H33 C63 1_555 1_555
C64 C9 1_555 1_555
C65 N4 1_555 1_555
H34 C65 1_555 1_555
C66 O5 1_555 1_555
C67 O28 1_555 1_555
O30 Zn2_2 1_555 1_555
C68 C54 1_555 1_555
C69 C24 1_555 1_555
C70 C26 1_555 1_555
H35 C70 1_555 1_555
C71 C4 1_555 1_555
C72 C27 1_555 1_555
H36 C72 1_555 1_555
C73 N2 1_555 1_555
H37 C73 1_555 1_555
C74 C4 1_555 1_555
H38 C74 1_555 1_555
C75 C58 1_555 1_555
H39 C75 1_555 1_555
C76 C67 1_555 1_555
H40 C76 1_555 1_555
C77 C71 1_555 1_555
H41 C77 1_555 1_555
C78 C63 1_555 1_555
H42 C78 1_555 1_555
C79 N3 1_555 1_555
H43 C79 1_555 1_555
C80 C65 1_555 1_555
H44 C80 1_555 1_555
H45 O25 1_555 1_555
H46 O25 1_555 1_555
H47 O26 1_555 1_555
H48 O26 1_555 1_555
Zn1_2 O21 1_555 1_555
Zn1_3 O14 1_555 1_555
Zn3_2 O9 1_555 1_555
Zn3_3 N1 1_555 1_555
Zn3_4 O10 1_555 1_555
Zn4_2 O8 1_555 1_555
Zn5_2 O20 1_555 1_555
Zn5_3 N2 1_555 1_555
Zn6_2 O19 1_555 1_555
Zn6_3 O24 1_555 1_555
N1_2 Zn3 1_555 1_555
O8_2 Zn4 1_555 1_555
N2_2 Zn5 1_555 1_555
O9_2 Zn3 1_555 1_555
O10_2 Zn3 1_555 1_555
O14_2 Zn1 1_555 1_555
O19_2 Zn6 1_555 1_555
O20_2 Zn5 1_555 1_555
O21_2 Zn1 1_555 1_555
O22_2 Zn5 1_555 1_555
O24_2 Zn6 1_555 1_555
O30_2 Zn2 1_555 1_555
C3 O13 1_555 1_555
C8 C17 1_555 1_555
C10 C38 1_555 1_555
O22 Zn5_2 1_555 1_555
C16 C66 1_555 1_555
C18 C25 1_555 1_555
C19 C56 1_555 1_555
C20 C32 1_555 1_555
C20 C38 1_555 1_555
C22 C32 1_555 1_555
C23 C50 1_555 1_555
C24 C73 1_555 1_555
C31 C62 1_555 1_555
C34 C53 1_555 1_555
C36 C49 1_555 1_555
C37 C61 1_555 1_555
C41 C64 1_555 1_555
C42 C48 1_555 1_555
C44 C71 1_555 1_555
C45 C59 1_555 1_555
C46 C69 1_555 1_555
C47 C70 1_555 1_555
C51 C64 1_555 1_555
C52 C79 1_555 1_555
C57 C66 1_555 1_555
C58 C74 1_555 1_555
C67 C78 1_555 1_555
C68 C69 1_555 1_555
C68 C80 1_555 1_555
C72 C76 1_555 1_555
C75 C77 1_555 1_555

#END
