
#######################################################################
#
#                 Cambridge Crystallographic Data Centre
#                                CCDC 
#
#######################################################################
#
# If this CIF has been generated from an entry in the Cambridge 
# Structural Database, then it will include bibliographic, chemical, 
# crystal, experimental, refinement or atomic coordinate data resulting 
# from the CCDC's data processing and validation procedures.
#
#######################################################################

data_DAXGOA01
_symmetry_cell_setting           triclinic
_symmetry_space_group_name_H-M   'P -1'
_symmetry_Int_Tables_number      2
_space_group_name_Hall           '-P 1'
loop_
_symmetry_equiv_pos_site_id
_symmetry_equiv_pos_as_xyz
1 x,y,z
2 -x,-y,-z
_cell_length_a                   7.3572(10)
_cell_length_b                   12.2303(16)
_cell_length_c                   16.627(2)
_cell_angle_alpha                91.147(2)
_cell_angle_beta                 101.314(3)
_cell_angle_gamma                101.842(2)
_cell_volume                     1432.98
loop_
_atom_site_label
_atom_site_type_symbol
_atom_site_fract_x
_atom_site_fract_y
_atom_site_fract_z
O1 O -0.4536(6) -0.2250(3) -0.1426(2)
C1 C -0.3140(8) -0.2712(4) -0.1451(3)
C2 C -0.2195(7) -0.3096(4) -0.0655(3)
C3 C -0.3044(9) -0.3221(6) 0.0011(4)
H1 H -0.4254 -0.3080 -0.0035
C4 C -0.0392(8) -0.3332(4) -0.0571(3)
H2 H 0.0199 -0.3278 -0.1018
C5 C 0.0527(9) -0.3645(5) 0.0165(3)
H3 H 0.1744 -0.3779 0.0224
Zn1 Zn -0.58386(9) -0.13559(5) -0.22535(4)
O2 O -0.3973(6) -0.1532(3) -0.3131(3)
O3 O 0.4303(5) -0.0238(3) 0.2000(2)
N1 N -0.7538(6) -0.0972(3) -0.1411(3)
O4 O 0.6606(6) -0.0277(3) 0.3055(2)
O5 O 0.0438(6) -0.4168(3) 0.1550(2)
N2 N -0.8055(6) -0.2531(3) -0.2944(3)
O6 O -0.2478(6) -0.2825(3) -0.2080(2)
C6 C 0.5265(8) -0.0763(4) 0.2517(3)
N3 N -1.4437(7) -0.7013(4) -0.5481(3)
C7 C -1.0719(7) -0.4270(4) -0.3919(3)
C8 C 0.2882(7) -0.2515(4) 0.2004(3)
H4 H 0.2050 -0.2063 0.1794
C9 C 0.4718(7) -0.2030(4) 0.2418(3)
C10 C 0.5941(8) -0.2702(4) 0.2744(3)
C11 C -0.8366(8) -0.3569(4) -0.2704(3)
H5 H -0.7681 -0.3715 -0.2200
O7 O 0.9085(7) -0.1780(4) 0.2757(3)
C12 C 0.3509(8) -0.4354(4) 0.2229(3)
H6 H 0.3116 -0.5129 0.2166
C13 C -1.2027(7) -0.5221(4) -0.4456(3)
C14 C -0.9664(8) -0.4446(4) -0.3169(3)
H7 H -0.9826 -0.5160 -0.2975
C15 C -0.0404(9) -0.3755(4) 0.0811(3)
C16 C 0.2295(7) -0.3666(4) 0.1907(3)
C17 C -0.9460(8) -0.0189(4) -0.0290(3)
C18 C 0.5300(8) -0.3858(4) 0.2640(3)
H8 H 0.6121 -0.4312 0.2859
C19 C -0.9095(9) -0.2361(5) -0.3666(4)
H9 H -0.8895 -0.1640 -0.3848
C20 C -0.6914(8) -0.0964(5) -0.0587(3)
H10 H -0.5820 -0.1228 -0.0392
C21 C -0.9127(8) -0.0577(5) -0.1667(3)
H11 H -0.9578 -0.0562 -0.2229
C22 C 0.7905(9) -0.2251(5) 0.3211(4)
C23 C -1.0097(8) -0.0201(5) -0.1140(3)
H12 H -1.1195 0.0052 -0.1348
C24 C -0.7814(8) -0.0587(4) -0.0030(3)
H13 H -0.7324 -0.0597 0.0530
C25 C -1.4051(8) -0.5976(4) -0.5729(3)
H14 H -1.4599 -0.5860 -0.6265
C26 C -1.2436(9) -0.6288(5) -0.4190(3)
H15 H -1.1924 -0.6426 -0.3654
C27 C -1.3600(9) -0.7156(5) -0.4714(4)
H16 H -1.3808 -0.7871 -0.4522
C28 C -1.2921(8) -0.5072(4) -0.5260(3)
H17 H -1.2745 -0.4368 -0.5470
O8 O 0.8411(7) -0.2366(4) 0.3934(3)
C29 C -1.0442(9) -0.3177(4) -0.4159(3)
H18 H -1.1156 -0.2999 -0.4645
C30 C -0.2152(10) -0.3552(5) 0.0750(4)
H19 H -0.2751 -0.3633 0.1196
H22 H -0.346(10) -0.206(6) -0.279(4)
H23 H -0.438(9) -0.184(5) -0.354(4)
H25 H 1.008(8) -0.141(4) 0.304(3)
O1A O 0.4536(6) 0.2250(3) 0.1426(2)
C1A C 0.3140(8) 0.2712(4) 0.1451(3)
C2A C 0.2195(7) 0.3096(4) 0.0655(3)
C3A C 0.3044(9) 0.3221(6) -0.0011(4)
H1A H 0.4254 0.3080 0.0035
C4A C 0.0392(8) 0.3332(4) 0.0571(3)
H2A H -0.0199 0.3278 0.1018
C5A C -0.0527(9) 0.3645(5) -0.0165(3)
H3A H -0.1744 0.3779 -0.0224
Zn1A Zn 0.58386(9) 0.13559(5) 0.22535(4)
Zn1A_2 Zn -1.41614(9) 0.13559(5) 0.22535(4)
O2A O 0.3973(6) 0.1532(3) 0.3131(3)
O3A O -0.4303(5) 0.0238(3) -0.2000(2)
N1A N -1.2462(6) 0.0972(3) 0.1411(3)
N1A_2 N 0.7538(6) 0.0972(3) 0.1411(3)
O4A O -0.6606(6) 0.0277(3) -0.3055(2)
O5A O -0.0438(6) 0.4168(3) -0.1550(2)
N2A N 0.8055(6) 0.2531(3) 0.2944(3)
O6A O 0.2478(6) 0.2825(3) 0.2080(2)
C6A C -0.5265(8) 0.0763(4) -0.2517(3)
N3A N 1.4437(7) 0.7013(4) 0.5481(3)
C7A C 1.0719(7) 0.4270(4) 0.3919(3)
C8A C -0.2882(7) 0.2515(4) -0.2004(3)
H4A H -0.2050 0.2063 -0.1794
C9A C -0.4718(7) 0.2030(4) -0.2418(3)
C10A C -0.5941(8) 0.2702(4) -0.2744(3)
C11A C 0.8366(8) 0.3569(4) 0.2704(3)
H5A H 0.7681 0.3715 0.2200
O7A O -0.9085(7) 0.1780(4) -0.2757(3)
C12A C -0.3509(8) 0.4354(4) -0.2229(3)
H6A H -0.3116 0.5129 -0.2166
C13A C 1.2027(7) 0.5221(4) 0.4456(3)
C14A C 0.9664(8) 0.4446(4) 0.3169(3)
H7A H 0.9826 0.5160 0.2975
C15A C 0.0404(9) 0.3755(4) -0.0811(3)
C16A C -0.2295(7) 0.3666(4) -0.1907(3)
C17A C -1.0540(8) 0.0189(4) 0.0290(3)
C18A C -0.5300(8) 0.3858(4) -0.2640(3)
H8A H -0.6121 0.4312 -0.2859
C19A C 0.9095(9) 0.2361(5) 0.3666(4)
H9A H 0.8895 0.1640 0.3848
C20A C -1.3086(8) 0.0964(5) 0.0587(3)
H10A H -1.4180 0.1228 0.0392
C21A C -1.0873(8) 0.0577(5) 0.1667(3)
H11A H -1.0422 0.0562 0.2229
C22A C -0.7905(9) 0.2251(5) -0.3211(4)
C23A C -0.9903(8) 0.0201(5) 0.1140(3)
H12A H -0.8805 -0.0052 0.1348
C24A C -1.2186(8) 0.0587(4) 0.0030(3)
H13A H -1.2676 0.0597 -0.0530
C25A C 1.4051(8) 0.5976(4) 0.5729(3)
H14A H 1.4599 0.5860 0.6265
C26A C 1.2436(9) 0.6288(5) 0.4190(3)
H15A H 1.1924 0.6426 0.3654
C27A C 1.3600(9) 0.7156(5) 0.4714(4)
H16A H 1.3808 0.7871 0.4522
C28A C 1.2921(8) 0.5072(4) 0.5260(3)
H17A H 1.2745 0.4368 0.5470
O8A O -0.8411(7) 0.2366(4) -0.3934(3)
C29A C 1.0442(9) 0.3177(4) 0.4159(3)
H18A H 1.1156 0.2999 0.4645
C30A C 0.2152(10) 0.3552(5) -0.0750(4)
H19A H 0.2751 0.3633 -0.1196
H22A H 0.346(10) 0.206(6) 0.279(4)
H23A H 0.438(9) 0.184(5) 0.354(4)
H25A H -1.008(8) 0.141(4) -0.304(3)
O9 O 0.7766(7) 0.0560(4) 0.6370(4)
H24 H 0.727(12) 0.001(7) 0.665(5)
H26 H 0.779(12) 0.035(7) 0.593(5)
O10 O 0.2271(13) 0.0228(6) 0.5207(3)
H20 H 0.2702 0.0029 0.5682
H21 H 0.1953 0.0850 0.5270
loop_
_geom_bond_atom_site_label_1
_geom_bond_atom_site_label_2
_geom_bond_site_symmetry_1
_geom_bond_site_symmetry_2
O1 C1 1_555 1_555
C1 C2 1_555 1_555
C2 C3 1_555 1_555
C3 H1 1_555 1_555
C4 C2 1_555 1_555
H2 C4 1_555 1_555
C5 C4 1_555 1_555
H3 C5 1_555 1_555
Zn1 O1 1_555 1_555
O2 Zn1 1_555 1_555
O3 C6 1_555 1_555
N1 Zn1 1_555 1_555
O4 C6 1_555 1_555
O5 C15 1_555 1_555
N2 Zn1 1_555 1_555
O6 C1 1_555 1_555
C6 C9 1_555 1_555
N3 C25 1_555 1_555
C7 C13 1_555 1_555
C8 H4 1_555 1_555
C9 C8 1_555 1_555
C10 C9 1_555 1_555
C11 N2 1_555 1_555
H5 C11 1_555 1_555
O7 C22 1_555 1_555
C12 H6 1_555 1_555
C13 C26 1_555 1_555
C14 C7 1_555 1_555
H7 C14 1_555 1_555
C15 C5 1_555 1_555
C16 O5 1_555 1_555
C17 C23 1_555 1_555
C18 C10 1_555 1_555
H8 C18 1_555 1_555
C19 N2 1_555 1_555
H9 C19 1_555 1_555
C20 N1 1_555 1_555
H10 C20 1_555 1_555
C21 N1 1_555 1_555
H11 C21 1_555 1_555
C22 C10 1_555 1_555
C23 C21 1_555 1_555
H12 C23 1_555 1_555
C24 C17 1_555 1_555
H13 C24 1_555 1_555
C25 H14 1_555 1_555
C26 H15 1_555 1_555
C27 N3 1_555 1_555
H16 C27 1_555 1_555
C28 C13 1_555 1_555
H17 C28 1_555 1_555
O8 C22 1_555 1_555
C29 C7 1_555 1_555
H18 C29 1_555 1_555
C30 C3 1_555 1_555
H19 C30 1_555 1_555
O9 H24 1_555 1_555
O10 H20 1_555 1_555
H21 O10 1_555 1_555
H22 O2 1_555 1_555
H23 O2 1_555 1_555
H25 O7 1_555 1_555
H26 O9 1_555 1_555
O1A C1A 1_555 1_555
C1A C2A 1_555 1_555
C2A C3A 1_555 1_555
C3A H1A 1_555 1_555
C4A C2A 1_555 1_555
H2A C4A 1_555 1_555
C5A C4A 1_555 1_555
H3A C5A 1_555 1_555
Zn1A O3 1_555 1_555
Zn1A_2 N1A 1_555 1_555
O2A Zn1A 1_555 1_555
O3A Zn1 1_555 1_555
N1A C20A 1_555 1_555
N1A_2 Zn1A 1_555 1_555
O4A Zn1 1_555 1_555
O5A C15A 1_555 1_555
N2A Zn1A 1_555 1_555
O6A C1A 1_555 1_555
C6A O3A 1_555 1_555
N3A C25A 1_555 1_555
C7A C13A 1_555 1_555
C8A H4A 1_555 1_555
C9A C6A 1_555 1_555
C10A C9A 1_555 1_555
C11A N2A 1_555 1_555
H5A C11A 1_555 1_555
O7A C22A 1_555 1_555
C12A H6A 1_555 1_555
C13A C26A 1_555 1_555
C14A C7A 1_555 1_555
H7A C14A 1_555 1_555
C15A C5A 1_555 1_555
C16A O5A 1_555 1_555
C17A C17 1_555 1_555
C18A C10A 1_555 1_555
H8A C18A 1_555 1_555
C19A N2A 1_555 1_555
H9A C19A 1_555 1_555
C20A H10A 1_555 1_555
C21A N1A 1_555 1_555
H11A C21A 1_555 1_555
C22A C10A 1_555 1_555
C23A C17A 1_555 1_555
H12A C23A 1_555 1_555
C24A C17A 1_555 1_555
H13A C24A 1_555 1_555
C25A H14A 1_555 1_555
C26A H15A 1_555 1_555
C27A N3A 1_555 1_555
H16A C27A 1_555 1_555
C28A C13A 1_555 1_555
H17A C28A 1_555 1_555
O8A C22A 1_555 1_555
C29A C7A 1_555 1_555
H18A C29A 1_555 1_555
C30A C3A 1_555 1_555
H19A C30A 1_555 1_555
H22A O2A 1_555 1_555
H23A O2A 1_555 1_555
H25A O7A 1_555 1_555
O4 Zn1A 1_555 1_555
C8 C16 1_555 1_555
C11 C14 1_555 1_555
C12 C16 1_555 1_555
C12 C18 1_555 1_555
C15 C30 1_555 1_555
C19 C29 1_555 1_555
C20 C24 1_555 1_555
C25 C28 1_555 1_555
C26 C27 1_555 1_555
O1A Zn1A 1_555 1_555
O4A C6A 1_555 1_555
C8A C9A 1_555 1_555
C8A C16A 1_555 1_555
C11A C14A 1_555 1_555
C12A C16A 1_555 1_555
C12A C18A 1_555 1_555
C15A C30A 1_555 1_555
C19A C29A 1_555 1_555
C20A C24A 1_555 1_555
C21A C23A 1_555 1_555
C25A C28A 1_555 1_555
C26A C27A 1_555 1_555

#END
