
#######################################################################
#
#                 Cambridge Crystallographic Data Centre
#                                CCDC 
#
#######################################################################
#
# If this CIF has been generated from an entry in the Cambridge 
# Structural Database, then it will include bibliographic, chemical, 
# crystal, experimental, refinement or atomic coordinate data resulting 
# from the CCDC's data processing and validation procedures.
#
#######################################################################

data_DAXGOA
_symmetry_cell_setting           triclinic
_symmetry_space_group_name_H-M   'P -1'
_symmetry_Int_Tables_number      2
_space_group_name_Hall           '-P 1'
loop_
_symmetry_equiv_pos_site_id
_symmetry_equiv_pos_as_xyz
1 x,y,z
2 -x,-y,-z
_cell_length_a                   7.355(2)
_cell_length_b                   12.238(4)
_cell_length_c                   16.627(5)
_cell_angle_alpha                91.214(3)
_cell_angle_beta                 101.321(4)
_cell_angle_gamma                101.880(3)
_cell_volume                     1433.09
loop_
_atom_site_label
_atom_site_type_symbol
_atom_site_fract_x
_atom_site_fract_y
_atom_site_fract_z
Zn1 Zn 0.08345(4) 0.63541(2) 0.225319(16)
O1 O -0.1015(2) 0.65415(14) 0.31354(10)
O2 O -0.0706(2) 0.47596(13) 0.20008(10)
O3 O 0.1608(3) 0.47176(15) 0.30546(11)
O4 O -0.9536(3) 0.27445(15) -0.14242(10)
O5 O -0.7480(3) 0.21765(16) -0.20731(11)
O6 O -0.4588(3) 0.08325(15) 0.15467(11)
O7 O 0.4083(3) 0.32355(19) 0.27591(13)
O8 O 0.3386(3) 0.2634(2) 0.39303(14)
N1 N 0.2532(3) 0.59666(17) 0.14079(12)
N2 N 0.3063(3) 0.75252(17) 0.29523(12)
N3 N 0.9444(3) 1.20038(19) 0.54823(13)
C1 C 0.5722(3) 0.9269(2) 0.39214(14)
C2 C 0.0255(3) 0.42330(19) 0.25111(14)
C3 C 0.4476(3) 0.51971(18) 0.02929(14)
C4 C -0.8135(4) 0.22989(19) -0.14504(14)
C5 C -0.2135(3) 0.2487(2) 0.19990(14)
H1 H -0.2985 0.2946 0.1780
C6 C -0.1519(4) 0.0653(2) 0.22228(15)
H2 H -0.1930 -0.0138 0.2157
C7 C 0.0932(3) 0.2297(2) 0.27413(14)
C8 C 0.4658(4) 0.9449(2) 0.31644(15)
H3 H 0.4818 1.0178 0.2965
C9 C -0.7206(4) 0.19040(19) -0.06536(14)
C10 C -0.0304(3) 0.29756(19) 0.24131(13)
C11 C 0.7032(3) 1.0215(2) 0.44583(14)
C12 C 0.1915(4) 0.5956(2) 0.05938(15)
H4 H 0.0792 0.6221 0.0396
C13 C -0.4497(4) 0.1359(2) 0.01625(16)
H5 H -0.3254 0.1222 0.0217
C14 C 0.0294(4) 0.1141(2) 0.26378(16)
H6 H 0.1129 0.0675 0.2859
C15 C 0.2912(4) 0.2751(2) 0.32085(17)
C16 C -0.5393(4) 0.1246(2) 0.08144(15)
C17 C 0.7431(4) 1.1285(2) 0.41951(16)
H7 H 0.6881 1.1431 0.3653
C18 C 0.3374(4) 0.8568(2) 0.27047(15)
H8 H 0.2676 0.8709 0.2187
C19 C 0.4114(4) 0.7348(2) 0.36638(17)
H9 H 0.3943 0.6608 0.3843
C20 C -0.5415(4) 0.1674(2) -0.05742(15)
H10 H -0.4811 0.1734 -0.1032
C21 C 0.4117(4) 0.5589(2) 0.16630(15)
H11 H 0.4585 0.5590 0.2238
C22 C -0.2725(4) 0.1336(2) 0.19051(14)
C23 C 0.7910(4) 1.0065(2) 0.52534(15)
H12 H 0.7706 0.9345 0.5466
C24 C 0.5104(4) 0.5202(2) 0.11397(15)
H13 H 0.6217 0.4936 0.1355
C25 C 0.2824(4) 0.5582(2) 0.00295(15)
H14 H 0.2320 0.5588 -0.0542
C26 C -0.7174(5) 0.1449(3) 0.07497(18)
H15 H -0.7790 0.1359 0.1203
C27 C 0.5442(4) 0.8181(2) 0.41558(16)
H16 H 0.6166 0.8006 0.4657
C28 C 0.9081(4) 1.0970(2) 0.57330(15)
H17 H 0.9665 1.0847 0.6276
C29 C 0.8628(5) 1.2145(2) 0.47169(17)
H18 H 0.8876 1.2872 0.4518
C30 C -0.8070(4) 0.1790(3) 0.00123(17)
H19 H -0.9297 0.1946 -0.0033
H20 H 0.5136 0.3583 0.3066
H21 H -0.0770 0.7083 0.3507
H22 H -0.2069 0.6590 0.2821
Zn1A Zn -1.08345(4) 0.36459(2) -0.225319(16)
Zn1A_2 Zn 0.91655(4) 0.36459(2) -0.225319(16)
O1A O -0.8985(2) 0.34585(14) -0.31354(10)
O2A O -0.9294(2) 0.52404(13) -0.20008(10)
O3A O -1.1608(3) 0.52824(15) -0.30546(11)
O4A O -0.0464(3) 0.72555(15) 0.14242(10)
O5A O -0.2520(3) 0.78235(16) 0.20731(11)
O6A O -0.5412(3) 0.91675(15) -0.15467(11)
O7A O -1.4083(3) 0.67645(19) -0.27591(13)
O8A O -1.3386(3) 0.7366(2) -0.39303(14)
N1A N 0.7468(3) 0.40334(17) -0.14079(12)
N1A_2 N -1.2532(3) 0.40334(17) -0.14079(12)
N2A N -1.3063(3) 0.24748(17) -0.29523(12)
N3A N -1.9444(3) -0.20038(19) -0.54823(13)
C1A C -1.5722(3) 0.0731(2) -0.39214(14)
C2A C -1.0255(3) 0.57670(19) -0.25111(14)
C3A C 0.5524(3) 0.48029(18) -0.02929(14)
C4A C -0.1865(4) 0.77011(19) 0.14504(14)
C5A C -0.7865(3) 0.7513(2) -0.19990(14)
H1A H -0.7015 0.7054 -0.1780
C6A C -0.8481(4) 0.9347(2) -0.22228(15)
H2A H -0.8070 1.0138 -0.2157
C7A C -1.0932(3) 0.7703(2) -0.27413(14)
C8A C -1.4658(4) 0.0551(2) -0.31644(15)
H3A H -1.4818 -0.0178 -0.2965
C9A C -0.2794(4) 0.80960(19) 0.06536(14)
C10A C -0.9696(3) 0.70244(19) -0.24131(13)
C11A C -1.7032(3) -0.0215(2) -0.44583(14)
C12A C 0.8085(4) 0.4044(2) -0.05938(15)
H4A H 0.9208 0.3779 -0.0396
C13A C -0.5503(4) 0.8641(2) -0.01625(16)
H5A H -0.6746 0.8778 -0.0217
C14A C -1.0294(4) 0.8859(2) -0.26378(16)
H6A H -1.1129 0.9325 -0.2859
C15A C -1.2912(4) 0.7249(2) -0.32085(17)
C16A C -0.4607(4) 0.8754(2) -0.08144(15)
C17A C -1.7431(4) -0.1285(2) -0.41951(16)
H7A H -1.6881 -0.1431 -0.3653
C18A C -1.3374(4) 0.1432(2) -0.27047(15)
H8A H -1.2676 0.1291 -0.2187
C19A C -1.4114(4) 0.2652(2) -0.36638(17)
H9A H -1.3943 0.3392 -0.3843
C20A C -0.4585(4) 0.8326(2) 0.05742(15)
H10A H -0.5189 0.8266 0.1032
C21A C 0.5883(4) 0.4411(2) -0.16630(15)
H11A H 0.5415 0.4410 -0.2238
C22A C -0.7275(4) 0.8664(2) -0.19051(14)
C23A C -1.7910(4) -0.0065(2) -0.52534(15)
H12A H -1.7706 0.0655 -0.5466
C24A C 0.4896(4) 0.4798(2) -0.11397(15)
H13A H 0.3783 0.5064 -0.1355
C25A C 0.7176(4) 0.4418(2) -0.00295(15)
H14A H 0.7680 0.4412 0.0542
C26A C -0.2826(5) 0.8551(3) -0.07497(18)
H15A H -0.2210 0.8641 -0.1203
C27A C -1.5442(4) 0.1819(2) -0.41558(16)
H16A H -1.6166 0.1994 -0.4657
C28A C -1.9081(4) -0.0970(2) -0.57330(15)
H17A H -1.9665 -0.0847 -0.6276
C29A C -1.8628(5) -0.2145(2) -0.47169(17)
H18A H -1.8876 -0.2872 -0.4518
C30A C -0.1930(4) 0.8210(3) -0.00123(17)
H19A H -0.0703 0.8054 0.0033
H20A H -1.5136 0.6417 -0.3066
H21A H -0.9230 0.2917 -0.3507
H22A H -0.7931 0.3410 -0.2821
O9 O -1.7209(3) 0.55494(19) -0.36303(14)
H23 H -1.7801 0.5303 -0.4117
H24 H -1.8041 0.5564 -0.3343
O10 O -1.2717(7) 0.5265(3) -0.47939(18)
H25 H -1.1890 0.5317 -0.4344
H26 H -1.3619 0.4720 -0.4763
loop_
_geom_bond_atom_site_label_1
_geom_bond_atom_site_label_2
_geom_bond_site_symmetry_1
_geom_bond_site_symmetry_2
Zn1 O1 1_555 1_555
O1 H21 1_555 1_555
O2 Zn1 1_555 1_555
O3 C2 1_555 1_555
O4 C4 1_555 1_555
O5 C4 1_555 1_555
O6 C16 1_555 1_555
O7 C15 1_555 1_555
O8 C15 1_555 1_555
N1 Zn1 1_555 1_555
N2 Zn1 1_555 1_555
N3 C28 1_555 1_555
C1 C8 1_555 1_555
C2 O2 1_555 1_555
C3 C24 1_555 1_555
C4 C9 1_555 1_555
C5 H1 1_555 1_555
C6 H2 1_555 1_555
C7 C10 1_555 1_555
C8 H3 1_555 1_555
C9 C20 1_555 1_555
C10 C2 1_555 1_555
C11 C1 1_555 1_555
C12 N1 1_555 1_555
H4 C12 1_555 1_555
C13 H5 1_555 1_555
C14 C6 1_555 1_555
H6 C14 1_555 1_555
C15 C7 1_555 1_555
C16 C13 1_555 1_555
C17 C11 1_555 1_555
H7 C17 1_555 1_555
C18 N2 1_555 1_555
H8 C18 1_555 1_555
C19 N2 1_555 1_555
H9 C19 1_555 1_555
C20 C13 1_555 1_555
H10 C20 1_555 1_555
C21 N1 1_555 1_555
H11 C21 1_555 1_555
C22 O6 1_555 1_555
C23 C11 1_555 1_555
H12 C23 1_555 1_555
C24 C21 1_555 1_555
H13 C24 1_555 1_555
C25 C3 1_555 1_555
H14 C25 1_555 1_555
C26 C16 1_555 1_555
H15 C26 1_555 1_555
C27 C1 1_555 1_555
H16 C27 1_555 1_555
C28 C23 1_555 1_555
H17 C28 1_555 1_555
C29 N3 1_555 1_555
H18 C29 1_555 1_555
C30 C9 1_555 1_555
H19 C30 1_555 1_555
O9 H23 1_555 1_555
O10 H25 1_555 1_555
H20 O7 1_555 1_555
H22 O1 1_555 1_555
H24 O9 1_555 1_555
H26 O10 1_555 1_555
Zn1A O4 1_555 1_555
Zn1A_2 N1A 1_555 1_555
O1A Zn1A 1_555 1_555
O2A Zn1A 1_555 1_555
O3A C2A 1_555 1_555
O4A Zn1 1_555 1_555
O5A C4A 1_555 1_555
O6A C16A 1_555 1_555
O7A C15A 1_555 1_555
O8A C15A 1_555 1_555
N1A C12A 1_555 1_555
N1A_2 Zn1A 1_555 1_555
N2A Zn1A 1_555 1_555
N3A C28A 1_555 1_555
C1A C8A 1_555 1_555
C2A O2A 1_555 1_555
C3A C3 1_555 1_555
C4A O4A 1_555 1_555
C5A H1A 1_555 1_555
C6A H2A 1_555 1_555
C7A C10A 1_555 1_555
C8A H3A 1_555 1_555
C9A C4A 1_555 1_555
C10A C2A 1_555 1_555
C11A C1A 1_555 1_555
C12A H4A 1_555 1_555
C13A H5A 1_555 1_555
C14A C6A 1_555 1_555
H6A C14A 1_555 1_555
C15A C7A 1_555 1_555
C16A C13A 1_555 1_555
C17A C11A 1_555 1_555
H7A C17A 1_555 1_555
C18A N2A 1_555 1_555
H8A C18A 1_555 1_555
C19A N2A 1_555 1_555
H9A C19A 1_555 1_555
C20A C9A 1_555 1_555
H10A C20A 1_555 1_555
C21A N1A 1_555 1_555
H11A C21A 1_555 1_555
C22A O6A 1_555 1_555
C23A C11A 1_555 1_555
H12A C23A 1_555 1_555
C24A C3A 1_555 1_555
H13A C24A 1_555 1_555
C25A C3A 1_555 1_555
H14A C25A 1_555 1_555
C26A C16A 1_555 1_555
H15A C26A 1_555 1_555
C27A C1A 1_555 1_555
H16A C27A 1_555 1_555
C28A C23A 1_555 1_555
H17A C28A 1_555 1_555
C29A N3A 1_555 1_555
H18A C29A 1_555 1_555
C30A C9A 1_555 1_555
H19A C30A 1_555 1_555
H20A O7A 1_555 1_555
H21A O1A 1_555 1_555
H22A O1A 1_555 1_555
C5 C10 1_555 1_555
C5 C22 1_555 1_555
C6 C22 1_555 1_555
C7 C14 1_555 1_555
C8 C18 1_555 1_555
C12 C25 1_555 1_555
C17 C29 1_555 1_555
C19 C27 1_555 1_555
C26 C30 1_555 1_555
C5A C10A 1_555 1_555
C5A C22A 1_555 1_555
C6A C22A 1_555 1_555
C7A C14A 1_555 1_555
C8A C18A 1_555 1_555
C12A C25A 1_555 1_555
C13A C20A 1_555 1_555
C17A C29A 1_555 1_555
C19A C27A 1_555 1_555
C21A C24A 1_555 1_555
C26A C30A 1_555 1_555

#END
