
#######################################################################
#
#                 Cambridge Crystallographic Data Centre
#                                CCDC 
#
#######################################################################
#
# If this CIF has been generated from an entry in the Cambridge 
# Structural Database, then it will include bibliographic, chemical, 
# crystal, experimental, refinement or atomic coordinate data resulting 
# from the CCDC's data processing and validation procedures.
#
#######################################################################

data_DAXGUG
_symmetry_cell_setting           triclinic
_symmetry_space_group_name_H-M   'P -1'
_symmetry_Int_Tables_number      2
_space_group_name_Hall           '-P 1'
loop_
_symmetry_equiv_pos_site_id
_symmetry_equiv_pos_as_xyz
1 x,y,z
2 -x,-y,-z
_cell_length_a                   7.545(4)
_cell_length_b                   9.685(5)
_cell_length_c                   13.943(6)
_cell_angle_alpha                81.678(14)
_cell_angle_beta                 76.877(12)
_cell_angle_gamma                80.706(10)
_cell_volume                     973.018
loop_
_atom_site_label
_atom_site_type_symbol
_atom_site_fract_x
_atom_site_fract_y
_atom_site_fract_z
Zn1 Zn 0.22759(3) 0.59137(3) 0.504090(18)
Zn2 Zn 0.5000 0.0000 0.5000
O1 O 0.1666(2) 0.39205(15) 0.52693(11)
O2 O 0.2221(2) 0.05180(16) 0.52797(13)
O3 O 0.5343(2) 0.19276(17) 0.55804(12)
O4 O -0.0189(2) 0.16152(18) 1.41217(12)
O5 O 0.5318(2) 0.41299(16) 0.58518(12)
O6 O -0.1424(2) 0.37340(17) 1.35828(12)
O7 O -0.1020(2) 0.32671(18) 0.60647(12)
O8 O 0.3288(3) 0.1672(2) 0.95486(13)
C1 C 0.2239(3) 0.1908(3) 1.04804(18)
N1 N 0.4659(3) -0.12903(19) 0.64351(14)
N2 N 0.5135(3) -0.4776(2) 0.94892(16)
C2 C 0.4694(3) 0.2962(2) 0.60436(16)
C3 C 0.0622(3) 0.3404(2) 0.60299(16)
C4 C 0.3206(3) 0.2818(2) 0.69629(16)
C5 C -0.0435(3) 0.2561(2) 1.34420(16)
C6 C 0.1335(3) 0.2933(2) 0.69555(16)
C7 C 0.0118(3) 0.2614(3) 0.78405(18)
H1 H -0.1152 0.2680 0.7843
C8 C 0.3407(4) -0.1501(3) 0.81733(18)
H2 H 0.2632 -0.1089 0.8725
C9 C 0.0464(3) 0.2330(2) 1.23938(17)
C10 C 0.3796(3) 0.2459(3) 0.78502(17)
H3 H 0.5056 0.2430 0.7860
C11 C 0.0344(3) 0.3407(3) 1.16310(18)
H4 H -0.0354 0.4291 1.1769
C12 C 0.2557(3) 0.2145(3) 0.87163(17)
C13 C 0.4371(3) -0.2838(2) 0.83067(18)
C14 C 0.0715(3) 0.2202(3) 0.87196(18)
H5 H -0.0130 0.1962 0.9316
C15 C 0.1481(3) 0.1037(3) 1.21875(18)
H6 H 0.1569 0.0299 1.2710
C16 C 0.4252(4) -0.3574(3) 0.93119(19)
H7 H 0.3481 -0.3130 0.9851
C17 C 0.5433(4) -0.3400(2) 0.74712(18)
H8 H 0.6077 -0.4326 0.7523
C18 C 0.1234(4) 0.3203(3) 1.06720(18)
H9 H 0.1157 0.3942 1.0149
C19 C 0.2365(4) 0.0817(3) 1.12276(19)
H10 H 0.3048 -0.0069 1.1085
C20 C 0.5545(3) -0.2597(2) 0.65593(18)
H11 H 0.6287 -0.2993 0.5993
C21 C 0.3577(3) -0.0770(2) 0.72383(17)
H12 H 0.2897 0.0139 0.7162
H13 H 0.1411 0.1209 0.5441
H14 H 0.1680 -0.0210 0.5363
Zn1A Zn 0.77241(3) -0.59137(3) 0.495910(18)
Zn1A_2 Zn 0.77241(3) 0.40863(3) 0.495910(18)
Zn1A_3 Zn -0.22759(3) 0.40863(3) 1.495910(18)
Zn1A_4 Zn -0.22759(3) 0.40863(3) 0.495910(18)
Zn1_2 Zn 0.22759(3) -0.40863(3) 0.504090(18)
Zn1_3 Zn 1.22759(3) -0.40863(3) -0.495910(18)
Zn1_4 Zn 1.22759(3) -0.40863(3) 0.504090(18)
Zn2_2 Zn 0.5000 -1.0000 1.5000
O1A O 0.8334(2) -0.39205(15) 0.47307(11)
O2A O 0.7779(2) -0.05180(16) 0.47203(13)
O3A O 0.4657(2) -0.19276(17) 0.44196(12)
O4A O 1.0189(2) -0.16152(18) -0.41217(12)
O5A O 0.4682(2) -0.41299(16) 0.41482(12)
O5A_2 O 0.4682(2) 0.58701(16) 0.41482(12)
O5_2 O 0.5318(2) -0.58701(16) 0.58518(12)
O6A O 1.1424(2) -0.37340(17) -0.35828(12)
O6A_2 O 0.1424(2) 0.62660(17) 0.64172(12)
O6_2 O 0.8576(2) -0.62660(17) 0.35828(12)
O7A O 1.1020(2) -0.32671(18) 0.39353(12)
O7A_2 O 0.1020(2) 0.67329(18) 0.39353(12)
O7_2 O 0.8980(2) -0.67329(18) 0.60647(12)
O8A O 0.6712(3) -0.1672(2) 0.04514(13)
C1A C 0.7761(3) -0.1908(3) -0.04804(18)
N1A N 0.5341(3) -0.87097(19) 1.35649(14)
N1A_2 N 0.5341(3) 0.12903(19) 0.35649(14)
N2A N 0.4865(3) -0.5224(2) 1.05108(16)
C2A C 0.5306(3) -0.2962(2) 0.39564(16)
C3A C 0.9378(3) -0.3404(2) 0.39701(16)
C4A C 0.6794(3) -0.2818(2) 0.30371(16)
C5A C 1.0435(3) -0.2561(2) -0.34420(16)
C6A C 0.8665(3) -0.2933(2) 0.30445(16)
C7A C 0.9882(3) -0.2614(3) 0.21595(18)
H1A H 1.1152 -0.2680 0.2157
C8A C 0.6593(4) -0.8499(3) 1.18267(18)
H2A H 0.7368 -0.8911 1.1275
C9A C 0.9536(3) -0.2330(2) -0.23938(17)
C10A C 0.6204(3) -0.2459(3) 0.21498(17)
H3A H 0.4944 -0.2430 0.2140
C11A C 0.9656(3) -0.3407(3) -0.16310(18)
H4A H 1.0354 -0.4291 -0.1769
C12A C 0.7443(3) -0.2145(3) 0.12837(17)
C13A C 0.5629(3) -0.7162(2) 1.16933(18)
C14A C 0.9285(3) -0.2202(3) 0.12804(18)
H5A H 1.0130 -0.1962 0.0684
C15A C 0.8519(3) -0.1037(3) -0.21875(18)
H6A H 0.8431 -0.0299 -0.2710
C16A C 0.5748(4) -0.6426(3) 1.06881(19)
H7A H 0.6519 -0.6870 1.0149
C17A C 0.4567(4) -0.6600(2) 1.25288(18)
H8A H 0.3923 -0.5674 1.2477
C18A C 0.8766(4) -0.3203(3) -0.06720(18)
H9A H 0.8843 -0.3942 -0.0149
C19A C 0.7635(4) -0.0817(3) -0.12276(19)
H10A H 0.6952 0.0069 -0.1085
C20A C 0.4455(3) -0.7403(2) 1.34407(18)
H11A H 0.3713 -0.7007 1.4007
C21A C 0.6423(3) -0.9230(2) 1.27617(17)
H12A H 0.7103 -1.0139 1.2838
H13A H 0.8589 -0.1209 0.4559
H14A H 0.8320 0.0210 0.4637
loop_
_geom_bond_atom_site_label_1
_geom_bond_atom_site_label_2
_geom_bond_site_symmetry_1
_geom_bond_site_symmetry_2
Zn1 O1 1_555 1_555
Zn2 O2 1_555 1_555
O1 C3 1_555 1_555
O2 H13 1_555 1_555
O3 Zn2 1_555 1_555
O4 C5 1_555 1_555
O5 C2 1_555 1_555
O6 C5 1_555 1_555
O7 C3 1_555 1_555
O8 C1 1_555 1_555
C1 C18 1_555 1_555
N1 Zn2 1_555 1_555
N2 C16 1_555 1_555
C2 O3 1_555 1_555
C3 C6 1_555 1_555
C4 C2 1_555 1_555
C5 C9 1_555 1_555
C6 C4 1_555 1_555
C7 C6 1_555 1_555
H1 C7 1_555 1_555
C8 H2 1_555 1_555
C9 C11 1_555 1_555
C10 C4 1_555 1_555
H3 C10 1_555 1_555
C11 H4 1_555 1_555
C12 O8 1_555 1_555
C13 C8 1_555 1_555
C14 C7 1_555 1_555
H5 C14 1_555 1_555
C15 C9 1_555 1_555
H6 C15 1_555 1_555
C16 C13 1_555 1_555
H7 C16 1_555 1_555
C17 C13 1_555 1_555
H8 C17 1_555 1_555
C18 C11 1_555 1_555
H9 C18 1_555 1_555
C19 C1 1_555 1_555
H10 C19 1_555 1_555
C20 N1 1_555 1_555
H11 C20 1_555 1_555
C21 N1 1_555 1_555
H12 C21 1_555 1_555
H14 O2 1_555 1_555
Zn1A O1A 1_555 1_555
Zn1A_2 O5 1_555 1_555
Zn1A_3 O6 1_555 1_555
Zn1A_4 O7 1_555 1_555
Zn1_2 O5A 1_555 1_555
Zn1_3 O6A 1_555 1_555
Zn1_4 O7A 1_555 1_555
Zn2_2 N1A 1_555 1_555
O1A C3A 1_555 1_555
O2A Zn2 1_555 1_555
O3A Zn2 1_555 1_555
O4A C5A 1_555 1_555
O5A C2A 1_555 1_555
O5A_2 Zn1 1_555 1_555
O5_2 Zn1A 1_555 1_555
O6A C5A 1_555 1_555
O6A_2 Zn1 1_555 1_555
O6_2 Zn1A 1_555 1_555
O7A C3A 1_555 1_555
O7A_2 Zn1 1_555 1_555
O7_2 Zn1A 1_555 1_555
O8A C1A 1_555 1_555
C1A C18A 1_555 1_555
N1A C20A 1_555 1_555
N1A_2 Zn2 1_555 1_555
N2A N2 1_555 1_555
C2A O3A 1_555 1_555
C3A C6A 1_555 1_555
C4A C2A 1_555 1_555
C5A C9A 1_555 1_555
C6A C4A 1_555 1_555
C7A C6A 1_555 1_555
H1A C7A 1_555 1_555
C8A H2A 1_555 1_555
C9A C11A 1_555 1_555
C10A C4A 1_555 1_555
H3A C10A 1_555 1_555
C11A H4A 1_555 1_555
C12A O8A 1_555 1_555
C13A C8A 1_555 1_555
C14A C7A 1_555 1_555
H5A C14A 1_555 1_555
C15A C9A 1_555 1_555
H6A C15A 1_555 1_555
C16A N2A 1_555 1_555
H7A C16A 1_555 1_555
C17A C13A 1_555 1_555
H8A C17A 1_555 1_555
C18A C11A 1_555 1_555
H9A C18A 1_555 1_555
C19A C1A 1_555 1_555
H10A C19A 1_555 1_555
C20A C17A 1_555 1_555
H11A C20A 1_555 1_555
C21A N1A 1_555 1_555
H12A C21A 1_555 1_555
H13A O2A 1_555 1_555
H14A O2A 1_555 1_555
C8 C21 1_555 1_555
C10 C12 1_555 1_555
C12 C14 1_555 1_555
C15 C19 1_555 1_555
C17 C20 1_555 1_555
C8A C21A 1_555 1_555
C10A C12A 1_555 1_555
C12A C14A 1_555 1_555
C13A C16A 1_555 1_555
C15A C19A 1_555 1_555

#END
