
#######################################################################
#
#                 Cambridge Crystallographic Data Centre
#                                CCDC 
#
#######################################################################
#
# If this CIF has been generated from an entry in the Cambridge 
# Structural Database, then it will include bibliographic, chemical, 
# crystal, experimental, refinement or atomic coordinate data resulting 
# from the CCDC's data processing and validation procedures.
#
#######################################################################

data_DAXKUK
_symmetry_cell_setting           rhombohedral
_symmetry_space_group_name_H-M   'R -3 c'
_symmetry_Int_Tables_number      167
_space_group_name_Hall           '-R 3 2"c'
loop_
_symmetry_equiv_pos_site_id
_symmetry_equiv_pos_as_xyz
1 x,y,z
2 -y,x-y,z
3 -x+y,-x,z
4 x-y,-y,1/2-z
5 -x,-x+y,1/2-z
6 y,x,1/2-z
7 2/3+x,1/3+y,1/3+z
8 2/3-y,1/3+x-y,1/3+z
9 2/3-x+y,1/3-x,1/3+z
10 2/3+x-y,1/3-y,5/6-z
11 2/3-x,1/3-x+y,5/6-z
12 2/3+y,1/3+x,5/6-z
13 1/3+x,2/3+y,2/3+z
14 1/3-y,2/3+x-y,2/3+z
15 1/3-x+y,2/3-x,2/3+z
16 1/3+x-y,2/3-y,1/6-z
17 1/3-x,2/3-x+y,1/6-z
18 1/3+y,2/3+x,1/6-z
19 -x,-y,-z
20 y,-x+y,-z
21 x-y,x,-z
22 -x+y,y,1/2+z
23 x,x-y,1/2+z
24 -y,-x,1/2+z
25 1/3-x,2/3-y,2/3-z
26 1/3+y,2/3-x+y,2/3-z
27 1/3+x-y,2/3+x,2/3-z
28 1/3-x+y,2/3+y,1/6+z
29 1/3+x,2/3+x-y,1/6+z
30 1/3-y,2/3-x,1/6+z
31 2/3-x,1/3-y,1/3-z
32 2/3+y,1/3-x+y,1/3-z
33 2/3+x-y,1/3+x,1/3-z
34 2/3-x+y,1/3+y,5/6+z
35 2/3+x,1/3+x-y,5/6+z
36 2/3-y,1/3-x,5/6+z
_cell_length_a                   15.380(1)
_cell_length_b                   15.380(1)
_cell_length_c                   52.911(1)
_cell_angle_alpha                90
_cell_angle_beta                 90
_cell_angle_gamma                120
_cell_volume                     10839
loop_
_atom_site_label
_atom_site_type_symbol
_atom_site_fract_x
_atom_site_fract_y
_atom_site_fract_z
C7 C 0.6667 0.3333 0.22757(18)
N3 N 0.6678(12) 0.309(4) 0.2009(3)
C8 C 0.7670(7) 0.3318(8) 0.19168(17)
N3A N 0.691(4) 0.3588(42) 0.2009(3)
N3B N 0.6412(42) 0.3322(12) 0.2009(3)
C8B C 0.5648(11) 0.2330(7) 0.19168(17)
C8A C 0.6682(8) 0.4352(11) 0.19168(17)
In1 In 0.5489 0.000000(18) 0.2500
N1 N 0.68579(25) 0.10694(18) 0.27352(5)
N2 N 0.74912(26) 0.20292(19) 0.26708(5)
C1 C 0.8224(3) 0.2593(2) 0.28311(6)
C2 C 0.8360(4) 0.2233(3) 0.30619(7)
H1 H 0.8882 0.2648 0.3170
C3 C 0.7703(4) 0.1250(3) 0.31260(7)
H2 H 0.7763 0.0976 0.3277
C4 C 0.6942(3) 0.0684(2) 0.29534(6)
C5 C 0.8922(3) 0.3672(2) 0.27557(6)
O1 O 0.50354(17) 0.11194(23) 0.25283(4)
O2 O 0.94932(27) 0.4257(2) 0.29159(5)
C6 C 0.6156(3) -0.0403(2) 0.29968(6)
O3 O 0.55682(23) -0.08635(17) 0.28133(4)
O4 O 0.61445(28) -0.0760(2) 0.32055(5)
In1B In 0.451100(18) 0.4511 0.2500
In1A In 1.000000(18) 0.548900(18) 0.2500
In1_2 In 1.5489 1.000000(18) 0.2500
In1A_2 In 0.000000(18) 0.548900(18) 0.2500
In1B_2 In 0.451100(18) -0.5489 0.2500
N1C N 0.57885(31) -0.10694(18) 0.22648(5)
N1B N 0.42115(31) 0.31421(25) 0.27352(5)
N1D N 0.31421(25) 0.42115(31) 0.22648(5)
N1A N 0.89306(18) 0.57885(31) 0.27352(5)
N1E N 1.10694(18) 0.68579(25) 0.22648(5)
N2C N 0.54620(32) -0.20292(19) 0.23292(5)
N2B N 0.45380(32) 0.25088(26) 0.26708(5)
N2D N 0.25088(26) 0.45380(32) 0.23292(5)
N2A N 0.79708(19) 0.54620(32) 0.26708(5)
N2E N 1.20292(19) 0.74912(26) 0.23292(5)
C1C C 0.5631(4) -0.2593(2) 0.21689(6)
C1B C 0.4369(4) 0.1776(3) 0.28311(6)
C1D C 0.1776(3) 0.4369(4) 0.21689(6)
C1A C 0.7407(2) 0.5631(4) 0.28311(6)
C1E C 1.2593(2) 0.8224(3) 0.21689(6)
C2C C 0.6127(5) -0.2233(3) 0.19381(7)
C2D C 0.1640(4) 0.3873(5) 0.19381(7)
C2E C 1.2233(3) 0.8360(4) 0.19381(7)
C2A C 0.7767(3) 0.6127(5) 0.30619(7)
C2B C 0.3873(5) 0.1640(4) 0.30619(7)
H1C H 0.6234 -0.2648 0.1830
H1D H 0.1118 0.3766 0.1830
H1E H 1.2648 0.8882 0.1830
H1A H 0.7352 0.6234 0.3170
H1B H 0.3766 0.1118 0.3170
C3C C 0.6453(5) -0.1250(3) 0.18740(7)
C3D C 0.2297(4) 0.3547(5) 0.18740(7)
C3E C 1.1250(3) 0.7703(4) 0.18740(7)
C3A C 0.8750(3) 0.6453(5) 0.31260(7)
C3B C 0.3547(5) 0.2297(4) 0.31260(7)
H2C H 0.6787 -0.0976 0.1723
H2D H 0.2237 0.3213 0.1723
H2E H 1.0976 0.7763 0.1723
H2A H 0.9024 0.6787 0.3277
H2B H 0.3213 0.2237 0.3277
C4C C 0.6258(4) -0.0684(2) 0.20466(6)
C4D C 0.3058(3) 0.3742(4) 0.20466(6)
C4E C 1.0684(2) 0.6942(3) 0.20466(6)
C4A C 0.9316(2) 0.6258(4) 0.29534(6)
C4B C 0.3742(4) 0.3058(3) 0.29534(6)
C5B C 0.4750(4) 0.1078(3) 0.27557(6)
C5A C 0.6328(2) 0.5250(4) 0.27557(6)
C5E C 1.3672(2) 0.8922(3) 0.22443(6)
C5D C 0.1078(3) 0.4750(4) 0.22443(6)
C5C C 0.5250(4) -0.3672(2) 0.22443(6)
O1B O 0.60840(29) 0.49646(17) 0.25283(4)
O1A O 0.88806(23) 0.39160(29) 0.25283(4)
O1E O 1.11194(23) 0.50354(17) 0.24717(4)
O1C O 1.39160(29) 0.88806(23) 0.24717(4)
O1D O 0.49646(17) 0.60840(29) 0.24717(4)
O1C_2 O 0.39160(29) -0.11194(23) 0.24717(4)
O1E_2 O 0.11194(23) 0.50354(17) 0.24717(4)
O1D_2 O 0.49646(17) -0.39160(29) 0.24717(4)
O2E O 1.4257(2) 0.94932(27) 0.20841(5)
O2A O 0.5743(2) 0.52362(34) 0.29159(5)
O2B O 0.47638(34) 0.05068(27) 0.29159(5)
O2D O 0.05068(27) 0.47638(34) 0.20841(5)
O2C O 0.52362(34) -0.4257(2) 0.20841(5)
C6C C 0.6559(4) 0.0403(2) 0.20032(6)
C6D C 0.3844(3) 0.3441(4) 0.20032(6)
C6E C 0.9597(2) 0.6156(3) 0.20032(6)
C6A C 1.0403(2) 0.6559(4) 0.29968(6)
C6B C 0.3441(4) 0.3844(3) 0.29968(6)
O3C O 0.64317(29) 0.08635(17) 0.21867(4)
O3D O 0.44318(23) 0.35683(29) 0.21867(4)
O3E O 0.91365(17) 0.55682(23) 0.21867(4)
O3A O 1.08635(17) 0.64317(29) 0.28133(4)
O3B O 0.35683(29) 0.44318(23) 0.28133(4)
O4A O 1.0760(2) 0.69045(34) 0.32055(5)
O4E O 0.9240(2) 0.61445(28) 0.17945(5)
O4B O 0.30955(34) 0.38555(28) 0.32055(5)
O4D O 0.38555(28) 0.30955(34) 0.17945(5)
O4C O 0.69045(34) 0.0760(2) 0.17945(5)
loop_
_geom_bond_atom_site_label_1
_geom_bond_atom_site_label_2
_geom_bond_site_symmetry_1
_geom_bond_site_symmetry_2
In1 N1 1_555 1_555
N1 N2 1_555 1_555
N2 C1 1_555 1_555
C1 C2 1_555 1_555
C2 H1 1_555 1_555
C3 C2 1_555 1_555
H2 C3 1_555 1_555
C4 N1 1_555 1_555
C5 C1 1_555 1_555
O1 In1 1_555 1_555
O2 C5 1_555 1_555
C6 C4 1_555 1_555
O3 In1 1_555 1_555
O4 C6 1_555 1_555
C7 N3 1_555 1_555
N3 C8 1_555 1_555
C8 N3A 1_555 1_555
In1B N1B 1_555 1_555
In1A N1A 1_555 1_555
In1_2 O1C 1_555 1_555
In1A_2 O1E_2 1_555 1_555
In1B_2 O1D_2 1_555 1_555
N1C In1 1_555 1_555
N1B N2B 1_555 1_555
N1D In1B 1_555 1_555
N1A N2A 1_555 1_555
N1E In1A 1_555 1_555
N2C N1C 1_555 1_555
N2B C1B 1_555 1_555
N2D N1D 1_555 1_555
N2A C1A 1_555 1_555
N2E N1E 1_555 1_555
C1C N2C 1_555 1_555
C1B C2B 1_555 1_555
C1D N2D 1_555 1_555
C1A C2A 1_555 1_555
C1E N2E 1_555 1_555
C2C C1C 1_555 1_555
C2D C1D 1_555 1_555
C2E C1E 1_555 1_555
C2A H1A 1_555 1_555
C2B H1B 1_555 1_555
H1C C2C 1_555 1_555
H1D C2D 1_555 1_555
H1E C2E 1_555 1_555
C3C C2C 1_555 1_555
C3D C2D 1_555 1_555
C3E C2E 1_555 1_555
C3A C2A 1_555 1_555
C3B C2B 1_555 1_555
H2C C3C 1_555 1_555
H2D C3D 1_555 1_555
H2E C3E 1_555 1_555
H2A C3A 1_555 1_555
H2B C3B 1_555 1_555
C4C N1C 1_555 1_555
C4D N1D 1_555 1_555
C4E N1E 1_555 1_555
C4A N1A 1_555 1_555
C4B N1B 1_555 1_555
C5B O1 1_555 1_555
C5A C1A 1_555 1_555
C5E C1E 1_555 1_555
C5D C1D 1_555 1_555
C5C C1C 1_555 1_555
O1B In1B 1_555 1_555
O1A C5 1_555 1_555
O1E In1A 1_555 1_555
O1C C5E 1_555 1_555
O1D In1B 1_555 1_555
O1C_2 In1 1_555 1_555
O1E_2 C5D 1_555 1_555
O1D_2 C5C 1_555 1_555
O2E C5E 1_555 1_555
O2A C5A 1_555 1_555
O2B C5B 1_555 1_555
O2D C5D 1_555 1_555
O2C C5C 1_555 1_555
C6C C4C 1_555 1_555
C6D C4D 1_555 1_555
C6E C4E 1_555 1_555
C6A C4A 1_555 1_555
C6B C4B 1_555 1_555
O3C In1 1_555 1_555
O3D In1B 1_555 1_555
O3E In1A 1_555 1_555
O3A In1A 1_555 1_555
O3B In1B 1_555 1_555
O4A C6A 1_555 1_555
O4E C6E 1_555 1_555
O4B C6B 1_555 1_555
O4D C6D 1_555 1_555
O4C C6C 1_555 1_555
N3A C7 1_555 1_555
N3B C7 1_555 1_555
C8B N3 1_555 1_555
C8A N3A 1_555 1_555
C3 C4 1_555 1_555
C6 O3 1_555 1_555
N3 N3A 1_555 1_555
N3 N3B 1_555 1_555
In1A O1A 1_555 1_555
C1B C5B 1_555 1_555
C3C C4C 1_555 1_555
C3D C4D 1_555 1_555
C3E C4E 1_555 1_555
C3A C4A 1_555 1_555
C3B C4B 1_555 1_555
C5A O1B 1_555 1_555
C6C O3C 1_555 1_555
C6D O3D 1_555 1_555
C6E O3E 1_555 1_555
C6A O3A 1_555 1_555
C6B O3B 1_555 1_555
N3A N3B 1_555 1_555
N3B C8B 1_555 1_555
N3B C8A 1_555 1_555

#END
