
#######################################################################
#
#                 Cambridge Crystallographic Data Centre
#                                CCDC 
#
#######################################################################
#
# If this CIF has been generated from an entry in the Cambridge 
# Structural Database, then it will include bibliographic, chemical, 
# crystal, experimental, refinement or atomic coordinate data resulting 
# from the CCDC's data processing and validation procedures.
#
#######################################################################

data_DAXLUK
_symmetry_cell_setting           monoclinic
_symmetry_space_group_name_H-M   'P 21/c'
_symmetry_Int_Tables_number      14
_space_group_name_Hall           '-P 2ybc'
loop_
_symmetry_equiv_pos_site_id
_symmetry_equiv_pos_as_xyz
1 x,y,z
2 -x,1/2+y,1/2-z
3 -x,-y,-z
4 x,1/2-y,1/2+z
_cell_length_a                   8.3507(15)
_cell_length_b                   19.477(4)
_cell_length_c                   9.4336(18)
_cell_angle_alpha                90
_cell_angle_beta                 108.521(4)
_cell_angle_gamma                90
_cell_volume                     1454.88
loop_
_atom_site_label
_atom_site_type_symbol
_atom_site_fract_x
_atom_site_fract_y
_atom_site_fract_z
Pb1 Pb 0.26967(2) 0.464138(9) 0.55578(2)
O1 O 0.0680(7) 0.5233(3) 0.6848(7)
O2 O 0.2567(8) 0.5927(3) 0.6953(7)
O3 O 0.5883(5) 0.4915(3) 0.6689(5)
O4 O 0.4532(5) 0.4401(2) 0.8010(4)
N1 N 0.1223(8) 0.5827(3) 0.7116(7)
N2 N 0.1213(6) 0.3601(2) 0.6327(5)
N3 N 0.3742(6) 0.3449(2) 0.5102(5)
C1 C -0.0031(8) 0.3671(3) 0.6901(7)
H1 H -0.0373 0.4112 0.7054
C2 C -0.0845(9) 0.3115(4) 0.7285(8)
H2 H -0.1725 0.3187 0.7673
C3 C -0.0356(8) 0.2464(4) 0.7092(7)
H3 H -0.0874 0.2089 0.7372
C4 C 0.0930(8) 0.2370(3) 0.6470(6)
C5 C 0.1524(10) 0.1705(3) 0.6226(8)
H4 H 0.1041 0.1316 0.6492
C6 C 0.2767(9) 0.1636(3) 0.5619(8)
H5 H 0.3122 0.1198 0.5462
C7 C 0.3554(8) 0.2217(3) 0.5210(6)
C8 C 0.4835(9) 0.2164(3) 0.4552(8)
H6 H 0.5204 0.1735 0.4355
C9 C 0.5536(9) 0.2744(4) 0.4205(8)
H7 H 0.6408 0.2716 0.3793
C10 C 0.4937(8) 0.3374(3) 0.4471(7)
H8 H 0.5396 0.3766 0.4193
C11 C 0.3044(7) 0.2876(3) 0.5448(5)
C12 C 0.1699(6) 0.2958(3) 0.6102(5)
C13 C 0.5852(8) 0.4661(2) 0.7886(6)
C14 C 0.7409(9) 0.4671(4) 0.9233(8)
H9 H 0.8317 0.4884 0.8977
H10 H 0.7719 0.4210 0.9564
H11 H 0.7187 0.4927 1.0020
Pb1B Pb -0.26967(2) 0.535862(9) 0.44422(2)
Pb1B_2 Pb 0.73033(2) 0.535862(9) 0.44422(2)
O1B O -0.0680(7) 0.4767(3) 0.3152(7)
O3B O 0.4117(5) 0.5085(3) 0.3311(5)
loop_
_geom_bond_atom_site_label_1
_geom_bond_atom_site_label_2
_geom_bond_site_symmetry_1
_geom_bond_site_symmetry_2
Pb1 O1 1_555 1_555
O1 N1 1_555 1_555
O2 Pb1 1_555 1_555
O3 Pb1 1_555 1_555
O4 Pb1 1_555 1_555
N1 O2 1_555 1_555
N2 Pb1 1_555 1_555
N3 Pb1 1_555 1_555
C1 N2 1_555 1_555
H1 C1 1_555 1_555
C2 C1 1_555 1_555
H2 C2 1_555 1_555
C3 C2 1_555 1_555
H3 C3 1_555 1_555
C4 C3 1_555 1_555
C5 C4 1_555 1_555
H4 C5 1_555 1_555
C6 C5 1_555 1_555
H5 C6 1_555 1_555
C7 C6 1_555 1_555
C8 C7 1_555 1_555
H6 C8 1_555 1_555
C9 C8 1_555 1_555
H7 C9 1_555 1_555
C10 N3 1_555 1_555
H8 C10 1_555 1_555
C11 N3 1_555 1_555
C12 N2 1_555 1_555
C13 O3 1_555 1_555
C14 C13 1_555 1_555
H9 C14 1_555 1_555
H10 C14 1_555 1_555
H11 C14 1_555 1_555
Pb1B O1 1_555 1_555
Pb1B_2 O3 1_555 1_555
O1B Pb1 1_555 1_555
O3B Pb1 1_555 1_555
O4 C13 1_555 1_555
C4 C12 1_555 1_555
C7 C11 1_555 1_555
C9 C10 1_555 1_555
C11 C12 1_555 1_555
Pb1B O1B 1_555 1_555
Pb1B_2 O3B 1_555 1_555

#END
