
#######################################################################
#
#                 Cambridge Crystallographic Data Centre
#                                CCDC 
#
#######################################################################
#
# If this CIF has been generated from an entry in the Cambridge 
# Structural Database, then it will include bibliographic, chemical, 
# crystal, experimental, refinement or atomic coordinate data resulting 
# from the CCDC's data processing and validation procedures.
#
#######################################################################

data_DAXLAR
_symmetry_cell_setting           orthorhombic
_symmetry_space_group_name_H-M   'A b a 2'
_symmetry_Int_Tables_number      41
_space_group_name_Hall           'A 2 -2ab'
loop_
_symmetry_equiv_pos_site_id
_symmetry_equiv_pos_as_xyz
1 x,y,z
2 -x,-y,z
3 1/2-x,1/2+y,z
4 1/2+x,1/2-y,z
5 x,1/2+y,1/2+z
6 -x,1/2-y,1/2+z
7 1/2-x,y,1/2+z
8 1/2+x,-y,1/2+z
_cell_length_a                   12.928(2)
_cell_length_b                   10.806(2)
_cell_length_c                   12.262(3)
_cell_angle_alpha                90
_cell_angle_beta                 90
_cell_angle_gamma                90
_cell_volume                     1713
loop_
_atom_site_label
_atom_site_type_symbol
_atom_site_fract_x
_atom_site_fract_y
_atom_site_fract_z
In1 In 0.5000 0.5000 0.82318(7)
N1 N 0.4114(3) 0.4173(3) 0.6812(3)
N2 N 0.3185(3) 0.4611(4) 0.6298(3)
C1 C 0.2832(4) 0.4143(4) 0.5408(3)
C2 C 0.3438(4) 0.3221(4) 0.5007(3)
H1 H 0.3238 0.2832 0.4364
C3 C 0.4409(4) 0.2805(4) 0.5553(3)
H2 H 0.4805 0.2184 0.5234
C4 C 0.4716(4) 0.3299(4) 0.6478(4)
C5 C 0.1757(5) 0.4675(5) 0.4884(4)
O1 O 0.1260(3) 0.5477(3) 0.5245(3)
O2 O 0.1427(3) 0.4192(3) 0.4032(2)
C6 C 0.5743(3) 0.2903(4) 0.7186(3)
O3 O 0.6022(2) 0.3516(2) 0.7959(2)
O4 O 0.6241(3) 0.2023(3) 0.6976(3)
In1F In 0.0000 0.5000 0.32318(7)
In1F_2 In 1.0000 0.5000 0.32318(7)
N1A N 0.5886(3) 0.5827(3) 0.6812(3)
N2A N 0.6815(3) 0.5389(4) 0.6298(3)
C1A C 0.7168(4) 0.5857(4) 0.5408(3)
C2A C 0.6562(4) 0.6779(4) 0.5007(3)
H1A H 0.6762 0.7168 0.4364
C3A C 0.5591(4) 0.7195(4) 0.5553(3)
H2A H 0.5195 0.7816 0.5234
C4A C 0.5284(4) 0.6701(4) 0.6478(4)
C5A C 0.8243(5) 0.5325(5) 0.4884(4)
O1A O 0.8740(3) 0.4523(3) 0.5245(3)
O2F O 0.3573(3) 0.4192(3) 0.9032(2)
O2G O 0.6427(3) 0.5808(3) 0.9032(2)
O2A O 0.8573(3) 0.5808(3) 0.4032(2)
C6A C 0.4257(3) 0.7097(4) 0.7186(3)
O3A O 0.3978(2) 0.6484(2) 0.7959(2)
O4A O 0.3759(3) 0.7977(3) 0.6976(3)
C7 C 0.5963(5) -0.0540(5) 0.7883(4)
H3 H 0.6330 0.0119 0.8238
H4 H 0.6411 -0.0938 0.7366
H5 H 0.5739 -0.1132 0.8417
N3 N 0.5000 0.0000 0.7276(5)
H6 H 0.4764 -0.0605 0.6838
C7A C 0.4037(5) 0.0540(5) 0.7883(4)
H3A H 0.3670 -0.0119 0.8238
H4A H 0.3589 0.0938 0.7366
H5A H 0.4261 0.1132 0.8417
H6A H 0.5236 0.0605 0.6838
loop_
_geom_bond_atom_site_label_1
_geom_bond_atom_site_label_2
_geom_bond_site_symmetry_1
_geom_bond_site_symmetry_2
In1 N1 1_555 1_555
N1 N2 1_555 1_555
N2 C1 1_555 1_555
C1 C2 1_555 1_555
C2 H1 1_555 1_555
C3 C2 1_555 1_555
H2 C3 1_555 1_555
C4 N1 1_555 1_555
C5 C1 1_555 1_555
O1 C5 1_555 1_555
O2 C5 1_555 1_555
C6 C4 1_555 1_555
O3 In1 1_555 1_555
O4 C6 1_555 1_555
C7 H3 1_555 1_555
H4 C7 1_555 1_555
H5 C7 1_555 1_555
N3 C7 1_555 1_555
H6 N3 1_555 1_555
In1F O2 1_555 1_555
In1F_2 O2A 1_555 1_555
N1A In1 1_555 1_555
N2A N1A 1_555 1_555
C1A N2A 1_555 1_555
C2A C1A 1_555 1_555
H1A C2A 1_555 1_555
C3A C2A 1_555 1_555
H2A C3A 1_555 1_555
C4A N1A 1_555 1_555
C5A C1A 1_555 1_555
O1A C5A 1_555 1_555
O2F In1 1_555 1_555
O2G In1 1_555 1_555
O2A C5A 1_555 1_555
C6A C4A 1_555 1_555
O3A In1 1_555 1_555
O4A C6A 1_555 1_555
C7A N3 1_555 1_555
H3A C7A 1_555 1_555
H4A C7A 1_555 1_555
H5A C7A 1_555 1_555
H6A N3 1_555 1_555
C3 C4 1_555 1_555
C6 O3 1_555 1_555
C3A C4A 1_555 1_555
C6A O3A 1_555 1_555

#END
