
#######################################################################
#
#                 Cambridge Crystallographic Data Centre
#                                CCDC 
#
#######################################################################
#
# If this CIF has been generated from an entry in the Cambridge 
# Structural Database, then it will include bibliographic, chemical, 
# crystal, experimental, refinement or atomic coordinate data resulting 
# from the CCDC's data processing and validation procedures.
#
#######################################################################

data_DAXMOG
_symmetry_cell_setting           orthorhombic
_symmetry_space_group_name_H-M   'P b c a'
_symmetry_Int_Tables_number      61
_space_group_name_Hall           '-P 2ac 2ab'
loop_
_symmetry_equiv_pos_site_id
_symmetry_equiv_pos_as_xyz
1 x,y,z
2 1/2-x,-y,1/2+z
3 -x,1/2+y,1/2-z
4 1/2+x,1/2-y,-z
5 -x,-y,-z
6 1/2+x,y,1/2-z
7 x,1/2-y,1/2+z
8 1/2-x,1/2+y,z
_cell_length_a                   10.0216(18)
_cell_length_b                   18.327(4)
_cell_length_c                   24.871(5)
_cell_angle_alpha                90
_cell_angle_beta                 90
_cell_angle_gamma                90
_cell_volume                     4567.95
loop_
_atom_site_label
_atom_site_type_symbol
_atom_site_fract_x
_atom_site_fract_y
_atom_site_fract_z
Li1 Li -0.1408(2) 0.92927(13) 0.72056(11)
Li2 Li -0.3657(2) 1.02473(13) 0.72124(11)
Li3 Li -0.6450(3) 0.93170(14) 0.64785(11)
Li4 Li -0.6310(3) 0.52269(14) 0.64599(12)
O1 O -0.33863(9) 0.91865(5) 0.71851(5)
O2 O -0.55373(9) 0.88909(5) 0.71136(4)
O3 O -0.33317(9) 0.53593(5) 0.71855(4)
O4 O -0.54904(9) 0.56420(5) 0.71093(4)
O5 O 0.16150(10) 0.91738(5) 0.64158(5)
O6 O -0.04553(11) 0.88368(6) 0.66304(5)
O7 O 0.17527(11) 0.53562(5) 0.63930(5)
O8 O -0.03133(12) 0.56491(6) 0.66395(6)
O9 O -0.53880(15) 0.88986(8) 0.58904(6)
O10 O -0.51225(16) 0.55926(9) 0.58788(7)
S1 S -0.50246(3) 0.726690(16) 0.695990(16)
S2 S -0.00156(3) 0.724398(18) 0.653802(17)
C1 C -0.43111(12) 0.87322(6) 0.71427(5)
C2 C -0.39315(12) 0.79440(7) 0.71390(6)
C3 C -0.27533(14) 0.76607(7) 0.73241(7)
H1 H -0.2038 0.7944 0.7438
C4 C -0.27450(13) 0.68910(7) 0.73224(7)
H2 H -0.2022 0.6612 0.7436
C5 C -0.39100(12) 0.65980(6) 0.71368(6)
C6 C -0.42689(12) 0.58102(6) 0.71404(5)
C7 C 0.07073(14) 0.87077(7) 0.64771(6)
C8 C 0.10582(13) 0.79300(7) 0.63584(6)
C9 C 0.22278(14) 0.76591(7) 0.61559(6)
H3 H 0.2925 0.7950 0.6033
C10 C 0.22575(14) 0.68884(7) 0.61538(6)
H4 H 0.2977 0.6616 0.6029
C11 C 0.11129(13) 0.65868(7) 0.63548(6)
C12 C 0.08219(14) 0.58050(7) 0.64703(6)
C13 C -0.4204(2) 0.88131(16) 0.58457(9)
H5 H -0.3660 0.9115 0.6052
N1 N -0.3608(2) 0.83422(19) 0.55394(9)
C14 C -0.4441(5) 0.7805(2) 0.5245(2)
H6 H -0.5367 0.7905 0.5311
H7 H -0.4262 0.7842 0.4867
H8 H -0.4231 0.7322 0.5367
C15 C -0.2186(4) 0.8277(5) 0.5504(2)
H9 H -0.1906 0.7837 0.5680
H10 H -0.1924 0.8262 0.5133
H11 H -0.1776 0.8689 0.5676
C16 C -0.3912(3) 0.55766(18) 0.58397(10)
H12 H -0.3441 0.5472 0.6153
N2 N -0.3200(2) 0.56898(14) 0.54081(8)
C17 C -0.1749(4) 0.5668(5) 0.5403(2)
H13 H -0.1430 0.5512 0.5749
H14 H -0.1407 0.6146 0.5326
H15 H -0.1452 0.5332 0.5132
C18 C -0.3790(5) 0.5827(2) 0.49017(12)
H16 H -0.3543 0.5448 0.4655
H17 H -0.3484 0.6289 0.4767
H18 H -0.4743 0.5838 0.4939
Li1E Li -0.6408(2) 0.92927(13) 0.77944(11)
Li1G Li -0.3592(2) 0.42927(13) 0.72056(11)
Li2G Li -0.1343(2) 0.52473(13) 0.72124(11)
Li2B Li -0.6343(2) 0.52473(13) 0.77876(11)
Li3_2 Li 0.3550(3) 0.93170(14) 0.64785(11)
Li3G Li 0.1450(3) 0.43170(14) 0.64785(11)
Li4G Li 0.1310(3) 1.02269(14) 0.64599(12)
Li4_2 Li 0.3690(3) 0.52269(14) 0.64599(12)
O2E O -0.05373(9) 0.88909(5) 0.78864(4)
O3G O -0.16683(9) 1.03593(5) 0.71855(4)
O4B O -0.45096(9) 1.06420(5) 0.78907(4)
O5_2 O -0.83850(10) 0.91738(5) 0.64158(5)
O5G O -0.66150(10) 0.41738(5) 0.64158(5)
O7G O -0.67527(11) 1.03562(5) 0.63930(5)
O7_2 O -0.82473(11) 0.53562(5) 0.63930(5)
O8G O -0.46867(12) 1.06491(6) 0.66395(6)
loop_
_geom_bond_atom_site_label_1
_geom_bond_atom_site_label_2
_geom_bond_site_symmetry_1
_geom_bond_site_symmetry_2
Li1 O1 1_555 1_555
Li2 O1 1_555 1_555
Li3 O2 1_555 1_555
Li4 O4 1_555 1_555
O1 C1 1_555 1_555
O2 C1 1_555 1_555
O3 C6 1_555 1_555
O4 C6 1_555 1_555
O5 C7 1_555 1_555
O6 Li1 1_555 1_555
O7 C12 1_555 1_555
O8 C12 1_555 1_555
O9 Li3 1_555 1_555
O10 Li4 1_555 1_555
S1 C2 1_555 1_555
S2 C8 1_555 1_555
C1 C2 1_555 1_555
C2 C3 1_555 1_555
C3 H1 1_555 1_555
C4 C3 1_555 1_555
H2 C4 1_555 1_555
C5 S1 1_555 1_555
C6 C5 1_555 1_555
C7 O6 1_555 1_555
C8 C7 1_555 1_555
C9 C8 1_555 1_555
H3 C9 1_555 1_555
C10 C9 1_555 1_555
H4 C10 1_555 1_555
C11 S2 1_555 1_555
C12 C11 1_555 1_555
C13 O9 1_555 1_555
H5 C13 1_555 1_555
N1 C13 1_555 1_555
C14 N1 1_555 1_555
H6 C14 1_555 1_555
H7 C14 1_555 1_555
H8 C14 1_555 1_555
C15 N1 1_555 1_555
H9 C15 1_555 1_555
H10 C15 1_555 1_555
H11 C15 1_555 1_555
C16 O10 1_555 1_555
H12 C16 1_555 1_555
N2 C16 1_555 1_555
C17 N2 1_555 1_555
H13 C17 1_555 1_555
H14 C17 1_555 1_555
H15 C17 1_555 1_555
C18 N2 1_555 1_555
H16 C18 1_555 1_555
H17 C18 1_555 1_555
H18 C18 1_555 1_555
Li1E O2 1_555 1_555
Li1G O3 1_555 1_555
Li2G O3 1_555 1_555
Li2B O4 1_555 1_555
Li3_2 O5 1_555 1_555
Li3G O7 1_555 1_555
Li4G O5 1_555 1_555
Li4_2 O7 1_555 1_555
O2E Li1 1_555 1_555
O3G Li1 1_555 1_555
O4B Li2 1_555 1_555
O5_2 Li3 1_555 1_555
O5G Li4 1_555 1_555
O7G Li3 1_555 1_555
O7_2 Li4 1_555 1_555
O8G Li2 1_555 1_555
Li2 O3G 1_555 1_555
O8 Li2G 1_555 1_555
C4 C5 1_555 1_555
C10 C11 1_555 1_555

#END
