
#######################################################################
#
#                 Cambridge Crystallographic Data Centre
#                                CCDC 
#
#######################################################################
#
# If this CIF has been generated from an entry in the Cambridge 
# Structural Database, then it will include bibliographic, chemical, 
# crystal, experimental, refinement or atomic coordinate data resulting 
# from the CCDC's data processing and validation procedures.
#
#######################################################################

data_DAXNUN
_symmetry_cell_setting           monoclinic
_symmetry_space_group_name_H-M   'C 2/c'
_symmetry_Int_Tables_number      15
_space_group_name_Hall           '-C 2yn'
loop_
_symmetry_equiv_pos_site_id
_symmetry_equiv_pos_as_xyz
1 x,y,z
2 -x,y,1/2-z
3 1/2+x,1/2+y,z
4 1/2-x,1/2+y,1/2-z
5 -x,-y,-z
6 x,-y,1/2+z
7 1/2-x,1/2-y,-z
8 1/2+x,1/2-y,1/2+z
_cell_length_a                   12.615(3)
_cell_length_b                   13.098(4)
_cell_length_c                   12.906(3)
_cell_angle_alpha                90
_cell_angle_beta                 94.987(4)
_cell_angle_gamma                90
_cell_volume                     2124.4
loop_
_atom_site_label
_atom_site_type_symbol
_atom_site_fract_x
_atom_site_fract_y
_atom_site_fract_z
Hg1 Hg 0.5000 0.273744(18) 0.2500
Br1 Br 0.51145(5) 0.37307(4) 0.41904(3)
S1 S 0.35437(6) 0.12704(7) 0.22363(6)
C1 C 0.3340(3) 0.1226(3) 0.0820(3)
H1 H 0.2637 0.0921 0.0605
H2 H 0.3354 0.1926 0.0534
C2 C 0.4212(3) 0.0591(3) 0.0401(3)
C3 C 0.4936(3) 0.1032(3) -0.0199(3)
H3 H 0.4898 0.1744 -0.0343
C4 C 0.4280(3) -0.0445(3) 0.0596(3)
H4 H 0.3782 -0.0759 0.1007
C5 C 0.2267(3) 0.1746(4) 0.2636(3)
C6 C 0.2435(4) 0.1890(6) 0.3782(4)
H5 H 0.1778 0.2143 0.4043
H6 H 0.3008 0.2386 0.3943
H7 H 0.2631 0.1236 0.4115
C7 C 0.1435(5) 0.0925(8) 0.2335(8)
H8 H 0.0740 0.1148 0.2537
H9 H 0.1640 0.0286 0.2695
H10 H 0.1392 0.0815 0.1582
C8 C 0.1984(6) 0.2741(7) 0.2114(5)
H11 H 0.1304 0.2984 0.2333
H12 H 0.1923 0.2646 0.1358
H13 H 0.2541 0.3245 0.2308
Hg1D Hg 0.5000 -0.273744(18) -0.2500
Br1A Br 0.48855(5) 0.37307(4) 0.08096(3)
S1D S 0.64563(6) -0.12704(7) -0.22363(6)
S1A S 0.64563(6) 0.12704(7) 0.27637(6)
C1D C 0.6660(3) -0.1226(3) -0.0820(3)
H1D H 0.7363 -0.0921 -0.0605
H2D H 0.6646 -0.1926 -0.0534
C2D C 0.5788(3) -0.0591(3) -0.0401(3)
C3D C 0.5064(3) -0.1032(3) 0.0199(3)
H3D H 0.5102 -0.1744 0.0343
C4D C 0.5720(3) 0.0445(3) -0.0596(3)
H4D H 0.6218 0.0759 -0.1007
C5D C 0.7733(3) -0.1746(4) -0.2636(3)
C6D C 0.7565(4) -0.1890(6) -0.3782(4)
H5D H 0.8222 -0.2143 -0.4043
H6D H 0.6992 -0.2386 -0.3943
H7D H 0.7369 -0.1236 -0.4115
C7D C 0.8565(5) -0.0925(8) -0.2335(8)
H8D H 0.9260 -0.1148 -0.2537
H9D H 0.8360 -0.0286 -0.2695
H10D H 0.8608 -0.0815 -0.1582
C8D C 0.8016(6) -0.2741(7) -0.2114(5)
H11D H 0.8696 -0.2984 -0.2333
H12D H 0.8077 -0.2646 -0.1358
H13D H 0.7459 -0.3245 -0.2308
loop_
_geom_bond_atom_site_label_1
_geom_bond_atom_site_label_2
_geom_bond_site_symmetry_1
_geom_bond_site_symmetry_2
Hg1 Br1 1_555 1_555
S1 Hg1 1_555 1_555
C1 S1 1_555 1_555
H1 C1 1_555 1_555
H2 C1 1_555 1_555
C2 C1 1_555 1_555
C3 C2 1_555 1_555
H3 C3 1_555 1_555
C4 C2 1_555 1_555
H4 C4 1_555 1_555
C5 S1 1_555 1_555
C6 C5 1_555 1_555
H5 C6 1_555 1_555
H6 C6 1_555 1_555
H7 C6 1_555 1_555
C7 C5 1_555 1_555
H8 C7 1_555 1_555
H9 C7 1_555 1_555
H10 C7 1_555 1_555
C8 C5 1_555 1_555
H11 C8 1_555 1_555
H12 C8 1_555 1_555
H13 C8 1_555 1_555
Hg1D S1D 1_555 1_555
Br1A Hg1 1_555 1_555
S1D C1D 1_555 1_555
S1A Hg1 1_555 1_555
C1D H1D 1_555 1_555
H2D C1D 1_555 1_555
C2D C1D 1_555 1_555
C3D C4 1_555 1_555
H3D C3D 1_555 1_555
C4D C3 1_555 1_555
H4D C4D 1_555 1_555
C5D S1D 1_555 1_555
C6D C5D 1_555 1_555
H5D C6D 1_555 1_555
H6D C6D 1_555 1_555
H7D C6D 1_555 1_555
C7D C5D 1_555 1_555
H8D C7D 1_555 1_555
H9D C7D 1_555 1_555
H10D C7D 1_555 1_555
C8D C5D 1_555 1_555
H11D C8D 1_555 1_555
H12D C8D 1_555 1_555
H13D C8D 1_555 1_555
C2D C3D 1_555 1_555
C2D C4D 1_555 1_555

#END
