
#######################################################################
#
#                 Cambridge Crystallographic Data Centre
#                                CCDC 
#
#######################################################################
#
# If this CIF has been generated from an entry in the Cambridge 
# Structural Database, then it will include bibliographic, chemical, 
# crystal, experimental, refinement or atomic coordinate data resulting 
# from the CCDC's data processing and validation procedures.
#
#######################################################################

data_DAXNAS
_symmetry_cell_setting           monoclinic
_symmetry_space_group_name_H-M   'P 21/c'
_symmetry_Int_Tables_number      14
_space_group_name_Hall           '-P 2ybc'
loop_
_symmetry_equiv_pos_site_id
_symmetry_equiv_pos_as_xyz
1 x,y,z
2 -x,1/2+y,1/2-z
3 -x,-y,-z
4 x,1/2-y,1/2+z
_cell_length_a                   7.4326(14)
_cell_length_b                   22.175(4)
_cell_length_c                   11.752(2)
_cell_angle_alpha                90
_cell_angle_beta                 93.961(4)
_cell_angle_gamma                90
_cell_volume                     1932.31
loop_
_atom_site_label
_atom_site_type_symbol
_atom_site_fract_x
_atom_site_fract_y
_atom_site_fract_z
Cd1 Cd 0.29893(4) 0.616263(13) 0.62149(2)
N1 N 0.3142(5) 0.57073(14) 0.4455(3)
N2 N 0.2890(5) 0.48666(16) 0.3438(3)
H1 H 0.2694 0.4493 0.3275
N3 N 0.1808(5) 0.42742(14) 0.5675(3)
H2 H 0.1718 0.3995 0.5166
N4 N 0.2334(5) 0.51741(15) 0.6468(3)
O1 O 0.0103(4) 0.65186(12) 0.5800(2)
O2 O 0.2331(4) 0.71099(13) 0.5385(3)
O3 O -0.6143(4) 0.84433(15) 0.3006(3)
O4 O -0.4043(4) 0.86967(12) 0.1890(2)
C1 C 0.2799(5) 0.51301(17) 0.4466(3)
C2 C 0.2314(5) 0.48499(17) 0.5514(3)
C3 C 0.1460(6) 0.42152(19) 0.6808(4)
C4 C 0.0909(7) 0.3739(2) 0.7466(4)
H3 H 0.0694 0.3358 0.7151
C5 C 0.0695(8) 0.3848(2) 0.8591(4)
H4 H 0.0320 0.3536 0.9047
C6 C 0.1022(7) 0.4410(2) 0.9070(4)
H5 H 0.0858 0.4466 0.9841
C7 C 0.1582(7) 0.4888(2) 0.8443(4)
H6 H 0.1806 0.5265 0.8769
C8 C 0.1798(5) 0.47786(18) 0.7297(3)
C9 C 0.3360(6) 0.5316(2) 0.2694(3)
C10 C 0.3515(5) 0.5839(2) 0.3341(4)
C11 C 0.3934(7) 0.6384(2) 0.2836(4)
H7 H 0.4025 0.6741 0.3251
C12 C 0.4206(7) 0.6368(3) 0.1699(4)
H8 H 0.4498 0.6725 0.1337
C13 C 0.4065(7) 0.5845(3) 0.1068(4)
H9 H 0.4254 0.5860 0.0295
C14 C 0.3658(7) 0.5306(3) 0.1545(4)
H10 H 0.3583 0.4952 0.1121
C15 C 0.0691(6) 0.70041(17) 0.5365(3)
C16 C -0.0637(5) 0.74209(17) 0.4785(3)
C17 C -0.0073(6) 0.78271(18) 0.3977(3)
H11 H 0.1145 0.7871 0.3861
C18 C -0.1352(5) 0.81614(18) 0.3356(3)
H12 H -0.0983 0.8425 0.2802
C19 C -0.3147(6) 0.81191(17) 0.3526(3)
C20 C -0.3726(5) 0.77327(18) 0.4368(3)
H13 H -0.4938 0.7713 0.4517
C21 C -0.2449(6) 0.73792(18) 0.4976(3)
H14 H -0.2818 0.7110 0.5521
C22 C -0.4533(6) 0.84430(18) 0.2791(3)
Cd1C Cd -0.70107(4) 0.883737(13) 0.12149(2)
O3C O 0.3857(4) 0.65567(15) 0.8006(3)
O4C O 0.5957(4) 0.63033(12) 0.6890(2)
loop_
_geom_bond_atom_site_label_1
_geom_bond_atom_site_label_2
_geom_bond_site_symmetry_1
_geom_bond_site_symmetry_2
Cd1 N1 1_555 1_555
N1 C1 1_555 1_555
N2 H1 1_555 1_555
N3 H2 1_555 1_555
N4 Cd1 1_555 1_555
O1 Cd1 1_555 1_555
O2 Cd1 1_555 1_555
O3 C22 1_555 1_555
O4 C22 1_555 1_555
C1 N2 1_555 1_555
C2 N3 1_555 1_555
C3 N3 1_555 1_555
C4 C3 1_555 1_555
H3 C4 1_555 1_555
C5 C4 1_555 1_555
H4 C5 1_555 1_555
C6 C5 1_555 1_555
H5 C6 1_555 1_555
C7 C6 1_555 1_555
H6 C7 1_555 1_555
C8 N4 1_555 1_555
C9 N2 1_555 1_555
C10 N1 1_555 1_555
C11 C10 1_555 1_555
H7 C11 1_555 1_555
C12 C11 1_555 1_555
H8 C12 1_555 1_555
C13 C12 1_555 1_555
H9 C13 1_555 1_555
C14 C9 1_555 1_555
H10 C14 1_555 1_555
C15 O1 1_555 1_555
C16 C15 1_555 1_555
C17 C16 1_555 1_555
H11 C17 1_555 1_555
C18 C17 1_555 1_555
H12 C18 1_555 1_555
C19 C18 1_555 1_555
C20 C19 1_555 1_555
H13 C20 1_555 1_555
C21 C16 1_555 1_555
H14 C21 1_555 1_555
C22 C19 1_555 1_555
Cd1C O3 1_555 1_555
O3C Cd1 1_555 1_555
O4C Cd1 1_555 1_555
N4 C2 1_555 1_555
O2 C15 1_555 1_555
O4 Cd1C 1_555 1_555
C1 C2 1_555 1_555
C3 C8 1_555 1_555
C7 C8 1_555 1_555
C9 C10 1_555 1_555
C13 C14 1_555 1_555
C20 C21 1_555 1_555

#END
