
#######################################################################
#
#                 Cambridge Crystallographic Data Centre
#                                CCDC 
#
#######################################################################
#
# If this CIF has been generated from an entry in the Cambridge 
# Structural Database, then it will include bibliographic, chemical, 
# crystal, experimental, refinement or atomic coordinate data resulting 
# from the CCDC's data processing and validation procedures.
#
#######################################################################

data_DAXNOG01
_symmetry_cell_setting           triclinic
_symmetry_space_group_name_H-M   'P -1'
_symmetry_Int_Tables_number      2
_space_group_name_Hall           '-P 1'
loop_
_symmetry_equiv_pos_site_id
_symmetry_equiv_pos_as_xyz
1 x,y,z
2 -x,-y,-z
_cell_length_a                   7.9853(18)
_cell_length_b                   8.959(2)
_cell_length_c                   9.055(2)
_cell_angle_alpha                103.228(3)
_cell_angle_beta                 100.715(3)
_cell_angle_gamma                99.844(4)
_cell_volume                     603.98
loop_
_atom_site_label
_atom_site_type_symbol
_atom_site_fract_x
_atom_site_fract_y
_atom_site_fract_z
Zn1 Zn 1.07874(6) 0.39634(6) 0.39517(6)
C1 C 1.2156(6) 0.4905(6) 0.7436(6)
C2 C 1.3629(6) 0.4957(6) 0.8787(6)
C3 C 1.5281(7) 0.4964(7) 0.8551(6)
H1 H 1.5483 0.4929 0.7543
C4 C 1.3341(7) 0.4978(7) 1.0233(6)
H2 H 1.2201 0.4953 1.0406
O1 O 1.2200(6) 0.4126(5) 0.6122(5)
O2 O 1.0999(5) 0.5625(6) 0.7748(5)
C5 C 1.2321(6) 0.7357(6) 0.4946(6)
C6 C 1.3707(6) 0.8729(6) 0.4981(6)
C7 C 1.5263(7) 0.8478(6) 0.4577(8)
H3 H 1.5447 0.7440 0.4302
C8 C 1.3468(8) 1.0268(7) 0.5425(8)
H4 H 1.2427 1.0448 0.5729
O3 O 1.2375(5) 0.6035(4) 0.4131(5)
O4 O 1.1198(6) 0.7617(5) 0.5705(6)
C9 C 1.1129(9) 0.0941(7) 0.2369(7)
H5 H 1.0235 0.0645 0.2876
C10 C 1.0900(16) -0.1828(10) 0.1267(11)
H6 H 1.0684 -0.2387 0.0161
H7 H 0.9795 -0.1930 0.1597
H8 H 1.1711 -0.2280 0.1890
C11 C 1.3073(13) 0.0203(13) 0.0761(13)
H9 H 1.2946 -0.0621 -0.0200
H10 H 1.4190 0.0294 0.1479
H11 H 1.3045 0.1208 0.0512
O5 O 1.1722(5) 0.2388(5) 0.2588(5)
N1 N 1.1649(9) -0.0200(7) 0.1490(7)
Zn1A Zn 1.92126(6) 0.60366(6) 1.60483(6)
Zn1A_2 Zn 0.92126(6) 0.60366(6) 0.60483(6)
Zn1_2 Zn 2.07874(6) 0.39634(6) 1.39517(6)
Zn1A_3 Zn 1.92126(6) 1.60366(6) 0.60483(6)
Zn1_3 Zn 2.07874(6) 1.39634(6) 0.39517(6)
C1A C 1.7844(6) 0.5095(6) 1.2564(6)
C2A C 1.6371(6) 0.5043(6) 1.1213(6)
C3A C 1.4719(7) 0.5036(7) 1.1449(6)
H1A H 1.4517 0.5071 1.2457
C4A C 1.6659(7) 0.5022(7) 0.9767(6)
H2A H 1.7799 0.5047 0.9594
O1A O 1.7800(6) 0.5874(5) 1.3878(5)
O1A_2 O 0.7800(6) 0.5874(5) 0.3878(5)
O2A O 1.9001(5) 0.4375(6) 1.2252(5)
O2A_2 O 0.9001(5) 0.4375(6) 0.2252(5)
C5A C 1.7679(6) 1.2643(6) 0.5054(6)
C6A C 1.6293(6) 1.1271(6) 0.5019(6)
C7A C 1.4737(7) 1.1522(6) 0.5423(8)
H3A H 1.4553 1.2560 0.5698
C8A C 1.6532(8) 0.9732(7) 0.4575(8)
H4A H 1.7573 0.9552 0.4271
O3A O 1.7625(5) 1.3965(4) 0.5869(5)
O3A_2 O 0.7625(5) 0.3965(4) 0.5869(5)
O4A O 1.8802(6) 1.2383(5) 0.4295(6)
O4A_2 O 0.8802(6) 0.2383(5) 0.4295(6)
C9A C 0.8871(9) 0.9059(7) 0.7631(7)
H5A H 0.9765 0.9355 0.7124
C10A C 0.9100(16) 1.1828(10) 0.8733(11)
H6A H 0.9316 1.2387 0.9839
H7A H 1.0205 1.1930 0.8403
H8A H 0.8289 1.2280 0.8110
C11A C 0.6927(13) 0.9797(13) 0.9239(13)
H9A H 0.7054 1.0621 1.0200
H10A H 0.5810 0.9706 0.8521
H11A H 0.6955 0.8792 0.9488
O5A O 0.8278(5) 0.7612(5) 0.7412(5)
N1A N 0.8351(9) 1.0200(7) 0.8510(7)
loop_
_geom_bond_atom_site_label_1
_geom_bond_atom_site_label_2
_geom_bond_site_symmetry_1
_geom_bond_site_symmetry_2
Zn1 O1 1_555 1_555
C1 C2 1_555 1_555
C2 C3 1_555 1_555
C3 H1 1_555 1_555
C4 C2 1_555 1_555
H2 C4 1_555 1_555
O1 C1 1_555 1_555
O2 C1 1_555 1_555
C5 C6 1_555 1_555
C6 C7 1_555 1_555
C7 H3 1_555 1_555
C8 C6 1_555 1_555
H4 C8 1_555 1_555
O3 Zn1 1_555 1_555
O4 C5 1_555 1_555
C9 H5 1_555 1_555
C10 H6 1_555 1_555
H7 C10 1_555 1_555
H8 C10 1_555 1_555
C11 H9 1_555 1_555
H10 C11 1_555 1_555
H11 C11 1_555 1_555
O5 Zn1 1_555 1_555
N1 C9 1_555 1_555
Zn1A O1A 1_555 1_555
Zn1A_2 O2 1_555 1_555
Zn1_2 O2A 1_555 1_555
Zn1A_3 O3A 1_555 1_555
Zn1_3 O4A 1_555 1_555
C1A C2A 1_555 1_555
C2A C3A 1_555 1_555
C3A C4 1_555 1_555
H1A C3A 1_555 1_555
C4A C3 1_555 1_555
H2A C4A 1_555 1_555
O1A C1A 1_555 1_555
O1A_2 Zn1A_2 1_555 1_555
O2A C1A 1_555 1_555
O2A_2 Zn1 1_555 1_555
C5A C6A 1_555 1_555
C6A C7A 1_555 1_555
C7A C8 1_555 1_555
H3A C7A 1_555 1_555
C8A C7 1_555 1_555
H4A C8A 1_555 1_555
O3A C5A 1_555 1_555
O3A_2 Zn1A_2 1_555 1_555
O4A C5A 1_555 1_555
O4A_2 Zn1 1_555 1_555
C9A H5A 1_555 1_555
C10A H6A 1_555 1_555
H7A C10A 1_555 1_555
H8A C10A 1_555 1_555
C11A H9A 1_555 1_555
H10A C11A 1_555 1_555
H11A C11A 1_555 1_555
O5A Zn1A_2 1_555 1_555
N1A C9A 1_555 1_555
C5 O3 1_555 1_555
O4 Zn1A_2 1_555 1_555
C9 O5 1_555 1_555
C10 N1 1_555 1_555
C11 N1 1_555 1_555
C2A C4A 1_555 1_555
C6A C8A 1_555 1_555
C9A O5A 1_555 1_555
C10A N1A 1_555 1_555
C11A N1A 1_555 1_555

#END
