
#######################################################################
#
#                 Cambridge Crystallographic Data Centre
#                                CCDC 
#
#######################################################################
#
# If this CIF has been generated from an entry in the Cambridge 
# Structural Database, then it will include bibliographic, chemical, 
# crystal, experimental, refinement or atomic coordinate data resulting 
# from the CCDC's data processing and validation procedures.
#
#######################################################################

data_DAXNEW
_symmetry_cell_setting           monoclinic
_symmetry_space_group_name_H-M   'P 21/c'
_symmetry_Int_Tables_number      14
_space_group_name_Hall           '-P 2ybc'
loop_
_symmetry_equiv_pos_site_id
_symmetry_equiv_pos_as_xyz
1 x,y,z
2 -x,1/2+y,1/2-z
3 -x,-y,-z
4 x,1/2-y,1/2+z
_cell_length_a                   7.3216(9)
_cell_length_b                   21.936(3)
_cell_length_c                   11.6033(15)
_cell_angle_alpha                90
_cell_angle_beta                 97.663(3)
_cell_angle_gamma                90
_cell_volume                     1846.92
loop_
_atom_site_label
_atom_site_type_symbol
_atom_site_fract_x
_atom_site_fract_y
_atom_site_fract_z
Zn1 Zn 0.22545(4) 0.384479(15) 0.88887(3)
C1 C 0.1709(4) 0.40781(15) 1.1653(3)
C2 C 0.1463(5) 0.35102(16) 1.2154(3)
H1 H 0.1509 0.3152 1.1731
C3 C 0.1156(5) 0.35001(18) 1.3280(3)
H2 H 0.1021 0.3128 1.3642
C4 C 0.1035(6) 0.4048(2) 1.3918(3)
H3 H 0.0774 0.4027 1.4680
C5 C 0.1289(5) 0.46021(18) 1.3442(3)
H4 H 0.1226 0.4959 1.3868
C6 C 0.1648(4) 0.46169(15) 1.2292(2)
C7 C 0.2226(4) 0.48264(13) 1.0551(2)
C8 C 0.2640(4) 0.51145(12) 0.9474(2)
C9 C 0.3305(4) 0.57436(13) 0.8138(3)
C10 C 0.3708(5) 0.62335(15) 0.7453(3)
H5 H 0.3806 0.6629 0.7745
C11 C 0.3950(5) 0.61075(16) 0.6339(3)
H6 H 0.4224 0.6424 0.5858
C12 C 0.3798(5) 0.55121(17) 0.5891(3)
H7 H 0.3981 0.5446 0.5123
C13 C 0.3392(4) 0.50305(15) 0.6546(3)
H8 H 0.3272 0.4639 0.6238
C14 C 0.3158(4) 0.51457(14) 0.7705(2)
C15 C -0.0219(4) 0.34793(14) 0.7356(3)
C16 C -0.1656(4) 0.31517(13) 0.6566(2)
C17 C -0.3469(4) 0.31850(14) 0.6738(3)
H9 H -0.3810 0.3447 0.7302
C18 C -0.4806(4) 0.28349(14) 0.6084(2)
H10 H -0.6040 0.2870 0.6187
C19 C -0.4261(4) 0.24307(13) 0.5271(2)
C20 C -0.2446(4) 0.24014(13) 0.5075(2)
H11 H -0.2105 0.2137 0.4515
C21 C -0.1125(4) 0.27674(13) 0.5714(2)
H12 H 0.0096 0.2756 0.5574
C22 C -0.5668(4) 0.19962(12) 0.4670(2)
N1 N 0.2062(3) 0.42228(11) 1.0537(2)
N2 N 0.1985(3) 0.50857(12) 1.1565(2)
H13 H 0.2032 0.5468 1.1728
N3 N 0.2985(3) 0.57026(11) 0.9272(2)
H14 H 0.3003 0.5998 0.9761
N4 N 0.2743(3) 0.47610(10) 0.8559(2)
O1 O -0.0653(3) 0.37408(9) 0.82626(19)
O2 O 0.1442(3) 0.34757(11) 0.7177(2)
O3 O -0.5079(3) 0.15127(9) 0.42262(17)
O4 O -0.7338(3) 0.20892(10) 0.46488(19)
Zn1C Zn -0.77455(4) 0.115521(15) 0.38887(3)
O3C O 0.4921(3) 0.34873(9) 0.92262(17)
O4C O 0.2662(3) 0.29108(10) 0.96488(19)
loop_
_geom_bond_atom_site_label_1
_geom_bond_atom_site_label_2
_geom_bond_site_symmetry_1
_geom_bond_site_symmetry_2
Zn1 N1 1_555 1_555
C1 C2 1_555 1_555
C2 H1 1_555 1_555
C3 C2 1_555 1_555
H2 C3 1_555 1_555
C4 C3 1_555 1_555
H3 C4 1_555 1_555
C5 C4 1_555 1_555
H4 C5 1_555 1_555
C6 C1 1_555 1_555
C7 C8 1_555 1_555
C8 N3 1_555 1_555
C9 C10 1_555 1_555
C10 H5 1_555 1_555
C11 C10 1_555 1_555
H6 C11 1_555 1_555
C12 C11 1_555 1_555
H7 C12 1_555 1_555
C13 C12 1_555 1_555
H8 C13 1_555 1_555
C14 C9 1_555 1_555
C15 C16 1_555 1_555
C16 C17 1_555 1_555
C17 H9 1_555 1_555
C18 C17 1_555 1_555
H10 C18 1_555 1_555
C19 C18 1_555 1_555
C20 C19 1_555 1_555
H11 C20 1_555 1_555
C21 C16 1_555 1_555
H12 C21 1_555 1_555
C22 C19 1_555 1_555
N1 C1 1_555 1_555
N2 C6 1_555 1_555
H13 N2 1_555 1_555
N3 C9 1_555 1_555
H14 N3 1_555 1_555
N4 Zn1 1_555 1_555
O1 Zn1 1_555 1_555
O2 Zn1 1_555 1_555
O3 C22 1_555 1_555
O4 C22 1_555 1_555
Zn1C O3 1_555 1_555
O3C Zn1 1_555 1_555
O4C Zn1 1_555 1_555
C5 C6 1_555 1_555
C7 N1 1_555 1_555
C7 N2 1_555 1_555
C8 N4 1_555 1_555
C13 C14 1_555 1_555
C14 N4 1_555 1_555
C15 O1 1_555 1_555
C15 O2 1_555 1_555
C20 C21 1_555 1_555
O4 Zn1C 1_555 1_555

#END
