
#######################################################################
#
#                 Cambridge Crystallographic Data Centre
#                                CCDC 
#
#######################################################################
#
# If this CIF has been generated from an entry in the Cambridge 
# Structural Database, then it will include bibliographic, chemical, 
# crystal, experimental, refinement or atomic coordinate data resulting 
# from the CCDC's data processing and validation procedures.
#
#######################################################################

data_DAXPAV
_symmetry_cell_setting           monoclinic
_symmetry_space_group_name_H-M   'P 2/n'
_symmetry_Int_Tables_number      13
_space_group_name_Hall           '-P 2yac'
loop_
_symmetry_equiv_pos_site_id
_symmetry_equiv_pos_as_xyz
1 x,y,z
2 1/2-x,y,1/2-z
3 -x,-y,-z
4 1/2+x,-y,1/2+z
_cell_length_a                   18.1348(19)
_cell_length_b                   4.6393(5)
_cell_length_c                   18.2534(19)
_cell_angle_alpha                90
_cell_angle_beta                 95.910(2)
_cell_angle_gamma                90
_cell_volume                     1527.55
loop_
_atom_site_label
_atom_site_type_symbol
_atom_site_fract_x
_atom_site_fract_y
_atom_site_fract_z
Hg1 Hg 0.2500 1.29957(6) 0.7500
I1 I 0.30866(2) 1.57708(8) 0.638207(19)
S1 S 0.13878(7) 0.9942(3) 0.68512(7)
C1 C 0.1263(3) 1.1931(12) 0.5979(3)
H1 H 0.1201 1.4004 0.6085
H2 H 0.1716 1.1721 0.5724
C2 C 0.0610(3) 1.0914(12) 0.5480(3)
C3 C 0.0684(3) 0.8748(11) 0.4961(3)
H3 H 0.1155 0.7881 0.4930
C4 C -0.0085(3) 1.2142(12) 0.5506(3)
H4 H -0.0147 1.3626 0.5853
C5 C 0.0604(3) 1.1222(14) 0.7293(3)
H5 H 0.0155 1.0210 0.7088
H6 H 0.0542 1.3297 0.7207
H7 H 0.0689 1.0855 0.7824
Hg1B Hg -0.2500 0.70043(6) 0.2500
I1A I 0.19134(2) 1.57708(8) 0.861793(19)
S1B S -0.13878(7) 1.0058(3) 0.31488(7)
S1A S 0.36122(7) 0.9942(3) 0.81488(7)
C1B C -0.1263(3) 0.8069(12) 0.4021(3)
H1B H -0.1201 0.5996 0.3915
H2B H -0.1716 0.8279 0.4276
C2B C -0.0610(3) 0.9086(12) 0.4520(3)
C3B C -0.0684(3) 1.1252(11) 0.5039(3)
H3B H -0.1155 1.2119 0.5070
C4B C 0.0085(3) 0.7858(12) 0.4494(3)
H4B H 0.0147 0.6374 0.4147
C5B C -0.0604(3) 0.8778(14) 0.2707(3)
H5B H -0.0155 0.9790 0.2912
H6B H -0.0542 0.6703 0.2793
H7B H -0.0689 0.9145 0.2176
Hg2 Hg 0.2500 0.66792(6) 0.2500
I2 I 0.13752(2) 0.39631(8) 0.31072(2)
S2 S 0.31708(7) 0.9892(3) 0.35788(7)
C6 C 0.4045(3) 0.7910(12) 0.3737(3)
H8 H 0.3936 0.5848 0.3817
H9 H 0.4312 0.8051 0.3292
C7 C 0.4538(3) 0.9022(11) 0.4390(3)
C8 C 0.5043(3) 1.1205(11) 0.4320(3)
H10 H 0.5075 1.2045 0.3850
C9 C 0.4501(3) 0.7809(11) 0.5086(3)
H11 H 0.4159 0.6300 0.5149
C10 C 0.2723(3) 0.8843(14) 0.4373(3)
H12 H 0.2937 0.9930 0.4804
H13 H 0.2798 0.6775 0.4463
H14 H 0.2191 0.9251 0.4285
Hg2B Hg 0.7500 1.33208(6) 0.7500
I2A I 0.36248(2) 0.39631(8) 0.18928(2)
S2B S 0.68292(7) 1.0108(3) 0.64212(7)
S2A S 0.18292(7) 0.9892(3) 0.14212(7)
C6B C 0.5955(3) 1.2090(12) 0.6263(3)
H8B H 0.6064 1.4152 0.6183
H9B H 0.5688 1.1949 0.6708
C7B C 0.5462(3) 1.0978(11) 0.5610(3)
C8B C 0.4957(3) 0.8795(11) 0.5680(3)
H10B H 0.4925 0.7955 0.6150
C9B C 0.5499(3) 1.2191(11) 0.4914(3)
H11B H 0.5841 1.3700 0.4851
C10B C 0.7277(3) 1.1157(14) 0.5627(3)
H12B H 0.7063 1.0070 0.5196
H13B H 0.7202 1.3225 0.5537
H14B H 0.7809 1.0749 0.5715
loop_
_geom_bond_atom_site_label_1
_geom_bond_atom_site_label_2
_geom_bond_site_symmetry_1
_geom_bond_site_symmetry_2
Hg1 I1 1_555 1_555
S1 Hg1 1_555 1_555
C1 S1 1_555 1_555
H1 C1 1_555 1_555
H2 C1 1_555 1_555
C2 C1 1_555 1_555
C3 C2 1_555 1_555
H3 C3 1_555 1_555
C4 C2 1_555 1_555
H4 C4 1_555 1_555
C5 S1 1_555 1_555
H5 C5 1_555 1_555
H6 C5 1_555 1_555
H7 C5 1_555 1_555
Hg2 I2 1_555 1_555
S2 Hg2 1_555 1_555
C6 S2 1_555 1_555
H8 C6 1_555 1_555
H9 C6 1_555 1_555
C7 C6 1_555 1_555
C8 C7 1_555 1_555
H10 C8 1_555 1_555
C9 C7 1_555 1_555
H11 C9 1_555 1_555
C10 S2 1_555 1_555
H12 C10 1_555 1_555
H13 C10 1_555 1_555
H14 C10 1_555 1_555
Hg1B S1B 1_555 1_555
I1A Hg1 1_555 1_555
S1B C1B 1_555 1_555
S1A Hg1 1_555 1_555
C1B H1B 1_555 1_555
H2B C1B 1_555 1_555
C2B C1B 1_555 1_555
C3B C4 1_555 1_555
H3B C3B 1_555 1_555
C4B C3 1_555 1_555
H4B C4B 1_555 1_555
C5B S1B 1_555 1_555
H5B C5B 1_555 1_555
H6B C5B 1_555 1_555
H7B C5B 1_555 1_555
Hg2B S2B 1_555 1_555
I2A Hg2 1_555 1_555
S2B C6B 1_555 1_555
S2A Hg2 1_555 1_555
C6B H8B 1_555 1_555
H9B C6B 1_555 1_555
C7B C6B 1_555 1_555
C8B C9 1_555 1_555
H10B C8B 1_555 1_555
C9B C8 1_555 1_555
H11B C9B 1_555 1_555
C10B S2B 1_555 1_555
H12B C10B 1_555 1_555
H13B C10B 1_555 1_555
H14B C10B 1_555 1_555
C2B C3B 1_555 1_555
C2B C4B 1_555 1_555
C7B C8B 1_555 1_555
C7B C9B 1_555 1_555

#END
