
#######################################################################
#
#                 Cambridge Crystallographic Data Centre
#                                CCDC 
#
#######################################################################
#
# If this CIF has been generated from an entry in the Cambridge 
# Structural Database, then it will include bibliographic, chemical, 
# crystal, experimental, refinement or atomic coordinate data resulting 
# from the CCDC's data processing and validation procedures.
#
#######################################################################

data_DAXPID
_symmetry_cell_setting           triclinic
_symmetry_space_group_name_H-M   'P -1'
_symmetry_Int_Tables_number      2
_space_group_name_Hall           '-P 1'
loop_
_symmetry_equiv_pos_site_id
_symmetry_equiv_pos_as_xyz
1 x,y,z
2 -x,-y,-z
_cell_length_a                   9.6413(9)
_cell_length_b                   14.9426(13)
_cell_length_c                   18.6698(17)
_cell_angle_alpha                78.188(2)
_cell_angle_beta                 79.913(2)
_cell_angle_gamma                76.601(2)
_cell_volume                     2537.93
loop_
_atom_site_label
_atom_site_type_symbol
_atom_site_fract_x
_atom_site_fract_y
_atom_site_fract_z
Hg3 Hg -0.21220(2) -0.266320(14) -0.247710(11)
Br5 Br -0.01205(5) -0.20393(4) -0.21588(3)
Br6 Br -0.35875(6) -0.23781(4) -0.35105(3)
S3 S -0.21270(13) -0.43463(9) -0.17358(6)
S4 S 0.42569(14) -0.85348(9) 0.16576(7)
C23 C -0.3266(6) -0.6355(4) -0.1906(3)
H23 H -0.4176 -0.5946 -0.1842
C24 C -0.3156(6) -0.7313(4) -0.1682(3)
H24 H -0.3990 -0.7555 -0.1463
C25 C -0.1865(6) -0.7903(4) -0.1774(3)
H25 H -0.1797 -0.8556 -0.1618
C26 C -0.0640(6) -0.7560(4) -0.2096(3)
H26 H 0.0263 -0.7975 -0.2161
C27 C -0.0745(5) -0.6605(4) -0.2322(3)
H27 H 0.0092 -0.6369 -0.2546
C28 C -0.2054(5) -0.5990(3) -0.2225(2)
C29 C -0.2181(5) -0.4963(3) -0.2488(2)
H28 H -0.3097 -0.4705 -0.2695
H29 H -0.1383 -0.4855 -0.2887
C30 C -0.0244(5) -0.4758(4) -0.1559(3)
H30 H 0.0150 -0.5364 -0.1729
H31 H 0.0337 -0.4304 -0.1843
C31 C -0.0132(5) -0.4872(3) -0.0750(2)
C32 C 0.0259(5) -0.4197(3) -0.0465(3)
H32 H 0.0434 -0.3638 -0.0781
C33 C -0.0396(6) -0.5674(3) -0.0275(3)
H33 H -0.0676 -0.6143 -0.0461
C34 C 0.7763(6) -0.9193(4) 0.1359(3)
H34 H 0.7295 -0.9542 0.1777
C35 C 0.9112(7) -0.9572(5) 0.1046(4)
H35 H 0.9587 -1.0175 0.1257
C36 C 0.9784(7) -0.9080(5) 0.0421(4)
H36 H 1.0708 -0.9352 0.0199
C37 C 0.9124(7) -0.8211(5) 0.0128(4)
H37 H 0.9585 -0.7866 -0.0294
C38 C 0.7762(6) -0.7831(4) 0.0455(3)
H38 H 0.7296 -0.7226 0.0244
C39 C 0.7076(6) -0.8298(4) 0.1067(3)
C40 C 0.5638(5) -0.7845(3) 0.1431(3)
H39 H 0.5787 -0.7671 0.1892
H40 H 0.5276 -0.7259 0.1101
C41 C 0.3656(6) -0.8439(4) 0.0767(3)
H41 H 0.3857 -0.7854 0.0449
H42 H 0.2601 -0.8393 0.0844
C42 C 0.4363(5) -0.9252(3) 0.0366(3)
C43 C 0.5570(6) -0.9202(4) -0.0145(3)
H43 H 0.5977 -0.8661 -0.0244
C44 C 0.3806(5) -1.0054(3) 0.0515(3)
H44 H 0.2985 -1.0097 0.0876
Hg3A Hg 0.21220(2) -0.733680(14) 0.247710(11)
Hg3_2 Hg 0.78780(2) -1.266320(14) -0.247710(11)
Br5A Br 0.01205(5) -0.79607(4) 0.21588(3)
Br6A Br 0.35875(6) -0.76219(4) 0.35105(3)
S3A S 0.21270(13) -0.56537(9) 0.17358(6)
S4A S -0.42569(14) -0.14652(9) -0.16576(7)
S4A_2 S 0.57431(14) -1.14652(9) -0.16576(7)
C23A C 0.3266(6) -0.3645(4) 0.1906(3)
H23A H 0.4176 -0.4054 0.1842
C24A C 0.3156(6) -0.2687(4) 0.1682(3)
H24A H 0.3990 -0.2445 0.1463
C25A C 0.1865(6) -0.2097(4) 0.1774(3)
H25A H 0.1797 -0.1444 0.1618
C26A C 0.0640(6) -0.2440(4) 0.2096(3)
H26A H -0.0263 -0.2025 0.2161
C27A C 0.0745(5) -0.3395(4) 0.2322(3)
H27A H -0.0092 -0.3631 0.2546
C28A C 0.2054(5) -0.4010(3) 0.2225(2)
C29A C 0.2181(5) -0.5037(3) 0.2488(2)
H28A H 0.3097 -0.5295 0.2695
H29A H 0.1383 -0.5145 0.2887
C30A C 0.0244(5) -0.5242(4) 0.1559(3)
H30A H -0.0150 -0.4636 0.1729
H31A H -0.0337 -0.5696 0.1843
C31A C 0.0132(5) -0.5128(3) 0.0750(2)
C32A C -0.0259(5) -0.5803(3) 0.0465(3)
H32A H -0.0434 -0.6362 0.0781
C33A C 0.0396(6) -0.4326(3) 0.0275(3)
H33A H 0.0676 -0.3857 0.0461
C34A C 0.2237(6) -1.0807(4) -0.1359(3)
H34A H 0.2705 -1.0458 -0.1777
C35A C 0.0888(7) -1.0428(5) -0.1046(4)
H35A H 0.0413 -0.9825 -0.1257
C36A C 0.0216(7) -1.0920(5) -0.0421(4)
H36A H -0.0708 -1.0648 -0.0199
C37A C 0.0876(7) -1.1789(5) -0.0128(4)
H37A H 0.0415 -1.2134 0.0294
C38A C 0.2238(6) -1.2169(4) -0.0455(3)
H38A H 0.2704 -1.2774 -0.0244
C39A C 0.2924(6) -1.1702(4) -0.1067(3)
C40A C 0.4362(5) -1.2155(3) -0.1431(3)
H39A H 0.4213 -1.2329 -0.1892
H40A H 0.4724 -1.2741 -0.1101
C41A C 0.6344(6) -1.1561(4) -0.0767(3)
H41A H 0.6143 -1.2146 -0.0449
H42A H 0.7399 -1.1607 -0.0844
C42A C 0.5637(5) -1.0748(3) -0.0366(3)
C43A C 0.4430(6) -1.0798(4) 0.0145(3)
H43A H 0.4023 -1.1339 0.0244
C44A C 0.6194(5) -0.9946(3) -0.0515(3)
H44A H 0.7015 -0.9903 -0.0876
Hg1 Hg 0.26441(2) 0.524570(13) -0.473800(10)
Hg2 Hg 0.25603(2) 0.679040(13) -0.312830(11)
Br1 Br 0.46248(5) 0.57847(4) -0.42617(3)
Br2 Br 0.13573(6) 0.58425(4) -0.58214(3)
Br3 Br 0.35618(6) 0.58973(4) -0.19968(3)
Br4 Br 0.05492(5) 0.63050(3) -0.36479(3)
S1 S 0.23834(12) 0.36645(8) -0.39574(6)
S2 S 0.29701(12) -0.16970(8) -0.39362(6)
C1 C 0.3214(6) 0.3498(4) -0.2248(3)
H1 H 0.3174 0.4144 -0.2435
C2 C 0.2818(7) 0.3213(6) -0.1505(3)
H2 H 0.2512 0.3659 -0.1183
C3 C 0.2870(7) 0.2288(6) -0.1235(3)
H3 H 0.2589 0.2092 -0.0724
C4 C 0.3324(7) 0.1635(5) -0.1695(4)
H4 H 0.3368 0.0991 -0.1501
C5 C 0.3721(6) 0.1923(4) -0.2454(3)
H5 H 0.4023 0.1477 -0.2775
C6 C 0.3670(5) 0.2859(3) -0.2729(3)
C7 C 0.4039(5) 0.3202(3) -0.3540(3)
H6 H 0.4602 0.3697 -0.3611
H7 H 0.4632 0.2682 -0.3781
C8 C 0.2576(6) 0.2934(3) -0.4659(3)
H8 H 0.3473 0.2985 -0.5002
H9 H 0.1758 0.3158 -0.4949
C9 C 0.2620(5) 0.1926(3) -0.4306(3)
C10 C 0.3865(5) 0.1265(3) -0.4405(3)
H10 H 0.4694 0.1442 -0.4704
C11 C 0.3919(5) 0.0342(3) -0.4070(3)
H11 H 0.4782 -0.0109 -0.4139
C12 C 0.2714(5) 0.0079(3) -0.3633(3)
C13 C 0.1465(5) 0.0738(3) -0.3543(3)
H12 H 0.0632 0.0558 -0.3252
C14 C 0.1411(5) 0.1663(3) -0.3874(3)
H13 H 0.0547 0.2114 -0.3804
C15 C 0.2766(5) -0.0926(3) -0.3269(2)
H14 H 0.3581 -0.1135 -0.2977
H15 H 0.1869 -0.0970 -0.2925
C16 C 0.1356(5) -0.1229(3) -0.4392(3)
H16 H 0.0843 -0.0634 -0.4229
H17 H 0.0701 -0.1676 -0.4254
C17 C 0.1773(5) -0.1066(3) -0.5211(3)
C18 C 0.2037(5) -0.0210(4) -0.5593(3)
H18 H 0.1927 0.0292 -0.5333
C19 C 0.2458(7) -0.0077(5) -0.6351(3)
H19 H 0.2627 0.0514 -0.6609
C20 C 0.2633(6) -0.0814(6) -0.6730(3)
H20 H 0.2917 -0.0725 -0.7248
C21 C 0.2400(6) -0.1658(5) -0.6361(3)
H21 H 0.2532 -0.2161 -0.6621
C22 C 0.1968(6) -0.1790(4) -0.5604(3)
H22 H 0.1804 -0.2384 -0.5352
Hg2_2 Hg 0.25603(2) -0.320960(13) -0.312830(11)
S2_2 S 0.29701(12) 0.83030(8) -0.39362(6)
loop_
_geom_bond_atom_site_label_1
_geom_bond_atom_site_label_2
_geom_bond_site_symmetry_1
_geom_bond_site_symmetry_2
Hg1 Br1 1_555 1_555
Hg2 Br1 1_555 1_555
Hg3 Br5 1_555 1_555
Br2 Hg1 1_555 1_555
Br3 Hg2 1_555 1_555
Br4 Hg1 1_555 1_555
Br6 Hg3 1_555 1_555
S1 Hg1 1_555 1_555
S2 C15 1_555 1_555
S3 Hg3 1_555 1_555
S4 C40 1_555 1_555
C1 H1 1_555 1_555
C2 C1 1_555 1_555
H2 C2 1_555 1_555
C3 C2 1_555 1_555
H3 C3 1_555 1_555
C4 C3 1_555 1_555
H4 C4 1_555 1_555
C5 C4 1_555 1_555
H5 C5 1_555 1_555
C6 C1 1_555 1_555
C7 S1 1_555 1_555
H6 C7 1_555 1_555
H7 C7 1_555 1_555
C8 S1 1_555 1_555
H8 C8 1_555 1_555
H9 C8 1_555 1_555
C9 C8 1_555 1_555
C10 C9 1_555 1_555
H10 C10 1_555 1_555
C11 C10 1_555 1_555
H11 C11 1_555 1_555
C12 C11 1_555 1_555
C13 C12 1_555 1_555
H12 C13 1_555 1_555
C14 C9 1_555 1_555
H13 C14 1_555 1_555
C15 C12 1_555 1_555
H14 C15 1_555 1_555
H15 C15 1_555 1_555
C16 S2 1_555 1_555
H16 C16 1_555 1_555
H17 C16 1_555 1_555
C17 C16 1_555 1_555
C18 C17 1_555 1_555
H18 C18 1_555 1_555
C19 C18 1_555 1_555
H19 C19 1_555 1_555
C20 C19 1_555 1_555
H20 C20 1_555 1_555
C21 C20 1_555 1_555
H21 C21 1_555 1_555
C22 C17 1_555 1_555
H22 C22 1_555 1_555
C23 H23 1_555 1_555
C24 C23 1_555 1_555
H24 C24 1_555 1_555
C25 C24 1_555 1_555
H25 C25 1_555 1_555
C26 C25 1_555 1_555
H26 C26 1_555 1_555
C27 C26 1_555 1_555
H27 C27 1_555 1_555
C28 C23 1_555 1_555
C29 S3 1_555 1_555
H28 C29 1_555 1_555
H29 C29 1_555 1_555
C30 S3 1_555 1_555
H30 C30 1_555 1_555
H31 C30 1_555 1_555
C31 C30 1_555 1_555
C32 C31 1_555 1_555
H32 C32 1_555 1_555
C33 C31 1_555 1_555
H33 C33 1_555 1_555
C34 H34 1_555 1_555
C35 C34 1_555 1_555
H35 C35 1_555 1_555
C36 C35 1_555 1_555
H36 C36 1_555 1_555
C37 C36 1_555 1_555
H37 C37 1_555 1_555
C38 C37 1_555 1_555
H38 C38 1_555 1_555
C39 C34 1_555 1_555
C40 C39 1_555 1_555
H39 C40 1_555 1_555
H40 C40 1_555 1_555
C41 S4 1_555 1_555
H41 C41 1_555 1_555
H42 C41 1_555 1_555
C42 C41 1_555 1_555
C43 C42 1_555 1_555
H43 C43 1_555 1_555
C44 C42 1_555 1_555
H44 C44 1_555 1_555
Hg2_2 S2 1_555 1_555
Hg3A S4 1_555 1_555
Hg3_2 S4A_2 1_555 1_555
Br5A Hg3A 1_555 1_555
Br6A Hg3A 1_555 1_555
S2_2 Hg2 1_555 1_555
S3A Hg3A 1_555 1_555
S4A Hg3 1_555 1_555
S4A_2 C40A 1_555 1_555
C23A H23A 1_555 1_555
C24A C23A 1_555 1_555
H24A C24A 1_555 1_555
C25A C24A 1_555 1_555
H25A C25A 1_555 1_555
C26A C25A 1_555 1_555
H26A C26A 1_555 1_555
C27A C26A 1_555 1_555
H27A C27A 1_555 1_555
C28A C23A 1_555 1_555
C29A S3A 1_555 1_555
H28A C29A 1_555 1_555
H29A C29A 1_555 1_555
C30A S3A 1_555 1_555
H30A C30A 1_555 1_555
H31A C30A 1_555 1_555
C31A C30A 1_555 1_555
C32A C33 1_555 1_555
H32A C32A 1_555 1_555
C33A C32 1_555 1_555
H33A C33A 1_555 1_555
C34A H34A 1_555 1_555
C35A C34A 1_555 1_555
H35A C35A 1_555 1_555
C36A C35A 1_555 1_555
H36A C36A 1_555 1_555
C37A C36A 1_555 1_555
H37A C37A 1_555 1_555
C38A C37A 1_555 1_555
H38A C38A 1_555 1_555
C39A C34A 1_555 1_555
C40A C39A 1_555 1_555
H39A C40A 1_555 1_555
H40A C40A 1_555 1_555
C41A S4A_2 1_555 1_555
H41A C41A 1_555 1_555
H42A C41A 1_555 1_555
C42A C41A 1_555 1_555
C43A C44 1_555 1_555
H43A C43A 1_555 1_555
C44A C43 1_555 1_555
H44A C44A 1_555 1_555
Hg2 Br4 1_555 1_555
C5 C6 1_555 1_555
C6 C7 1_555 1_555
C13 C14 1_555 1_555
C21 C22 1_555 1_555
C27 C28 1_555 1_555
C28 C29 1_555 1_555
C38 C39 1_555 1_555
C27A C28A 1_555 1_555
C28A C29A 1_555 1_555
C31A C32A 1_555 1_555
C31A C33A 1_555 1_555
C38A C39A 1_555 1_555
C42A C43A 1_555 1_555
C42A C44A 1_555 1_555

#END
