
#######################################################################
#
#                 Cambridge Crystallographic Data Centre
#                                CCDC 
#
#######################################################################
#
# If this CIF has been generated from an entry in the Cambridge 
# Structural Database, then it will include bibliographic, chemical, 
# crystal, experimental, refinement or atomic coordinate data resulting 
# from the CCDC's data processing and validation procedures.
#
#######################################################################

data_DAXQUQ
_symmetry_cell_setting           orthorhombic
_symmetry_space_group_name_H-M   'P b c n'
_symmetry_Int_Tables_number      60
_space_group_name_Hall           '-P 2n 2ab'
loop_
_symmetry_equiv_pos_site_id
_symmetry_equiv_pos_as_xyz
1 x,y,z
2 1/2-x,1/2-y,1/2+z
3 1/2+x,1/2-y,-z
4 -x,y,1/2-z
5 -x,-y,-z
6 1/2+x,1/2+y,1/2-z
7 1/2-x,1/2+y,z
8 x,-y,1/2+z
_cell_length_a                   16.8000(14)
_cell_length_b                   11.522(3)
_cell_length_c                   20.360(2)
_cell_angle_alpha                90
_cell_angle_beta                 90
_cell_angle_gamma                90
_cell_volume                     3941.08
loop_
_atom_site_label
_atom_site_type_symbol
_atom_site_fract_x
_atom_site_fract_y
_atom_site_fract_z
O1 O 0.6221(2) 1.2449(4) 1.0518(3)
Co1 Co 0.69439(4) 1.37834(5) 1.03440(4)
O2 O 0.7130(2) 1.0154(3) 1.0337(2)
O3 O 0.6855(2) 0.8312(3) 1.0264(2)
O4 O 0.6588(3) 1.2090(4) 0.9522(2)
N1 N 0.6655(2) 1.4529(4) 1.1244(3)
N2 N 0.6387(3) 1.5922(4) 1.1956(2)
N3 N 0.6078(3) 2.3719(3) 1.4014(3)
N4 N 0.6392(3) 2.5186(4) 1.4650(2)
C1 C 0.6637(3) 1.5652(5) 1.1348(3)
H1 H 0.6782 1.6201 1.1035
C2 C 0.6397(4) 1.4047(5) 1.1825(3)
H2 H 0.6340 1.3255 1.1900
C3 C 0.6240(4) 1.4877(5) 1.2267(3)
H3 H 0.6067 1.4771 1.2697
C4 C 0.6318(3) 1.7062(4) 1.2227(3)
C5 C 0.5946(4) 1.7231(5) 1.2822(3)
H4 H 0.5725 1.6605 1.3046
C6 C 0.5900(4) 1.8332(5) 1.3086(3)
H5 H 0.5646 1.8431 1.3488
C7 C 0.6215(3) 1.9284(5) 1.2780(3)
C8 C 0.6583(4) 1.9103(5) 1.2172(4)
H6 H 0.6802 1.9731 1.1948
C9 C 0.6628(4) 1.8009(5) 1.1899(4)
H7 H 0.6869 1.7908 1.1492
C10 C 0.6175(3) 2.0457(5) 1.3080(3)
C11 C 0.5466(4) 2.0909(5) 1.3306(3)
H8 H 0.5002 2.0475 1.3262
C12 C 0.5428(3) 2.1987(5) 1.3594(3)
H9 H 0.4940 2.2290 1.3726
C13 C 0.6118(3) 2.2619(5) 1.3688(3)
C14 C 0.6843(3) 2.2193(5) 1.3468(4)
H10 H 0.7307 2.2624 1.3519
C15 C 0.6861(4) 2.1116(5) 1.3172(4)
H11 H 0.7346 2.0821 1.3030
C16 C 0.5453(3) 2.4498(5) 1.3995(3)
H12 H 0.4980 2.4416 1.3762
C17 C 0.5662(3) 2.5389(5) 1.4374(3)
H13 H 0.5356 2.6051 1.4442
C18 C 0.6628(3) 2.4182(5) 1.4424(3)
H14 H 0.7110 2.3831 1.4530
C19 C 0.6637(3) 0.9367(4) 1.0245(3)
C20 C 0.5788(3) 0.9694(4) 1.0126(3)
C21 C 0.4804(3) 1.1150(4) 0.9892(3)
H15 H 0.4667 1.1923 0.9823
C22 C 0.5591(3) 1.0864(4) 1.0010(3)
C23 C 0.6197(3) 1.1852(5) 1.0015(4)
O1D O 0.3779(2) 0.7551(4) 0.9482(3)
Co1D Co 0.30561(4) 0.62166(5) 0.96560(4)
Co1F Co 0.80561(4) 0.87834(5) 1.03440(4)
Co1G Co 0.69439(4) 2.62166(5) 1.53440(4)
Co1B Co 0.19439(4) 1.12166(5) 0.96560(4)
Co1G_2 Co 0.69439(4) 2.62166(5) 0.53440(4)
O2D O 0.2870(2) 0.9846(3) 0.9663(2)
O2F O 0.7870(2) 1.5154(3) 1.0337(2)
O2B O 0.2130(2) 0.4846(3) 0.9663(2)
O3D O 0.3145(2) 1.1688(3) 0.9736(2)
O3F O 0.8145(2) 1.3312(3) 1.0264(2)
O3B O 0.1855(2) 0.6688(3) 0.9736(2)
O4D O 0.3412(3) 0.7910(4) 1.0478(2)
N1G N 0.6655(2) 2.5471(4) 0.6244(3)
N1D N 0.3345(2) 0.5471(4) 0.8756(3)
N2G N 0.6387(3) 2.4078(4) 0.6956(2)
N3G N 0.6078(3) 1.6281(3) 0.9014(3)
N4G N 0.6392(3) 1.4814(4) 0.9650(2)
N4C N 0.3608(3) 0.5186(4) 1.0350(2)
C1G C 0.6637(3) 2.4348(5) 0.6348(3)
H1G H 0.6782 2.3799 0.6035
C2G C 0.6397(4) 2.5953(5) 0.6825(3)
H2G H 0.6340 2.6745 0.6900
C3G C 0.6240(4) 2.5123(5) 0.7267(3)
H3G H 0.6067 2.5229 0.7697
C4G C 0.6318(3) 2.2938(4) 0.7227(3)
C5G C 0.5946(4) 2.2769(5) 0.7822(3)
H4G H 0.5725 2.3395 0.8046
C6G C 0.5900(4) 2.1668(5) 0.8086(3)
H5G H 0.5646 2.1569 0.8488
C7G C 0.6215(3) 2.0716(5) 0.7780(3)
C8G C 0.6583(4) 2.0897(5) 0.7172(4)
H6G H 0.6802 2.0269 0.6948
C9G C 0.6628(4) 2.1991(5) 0.6899(4)
H7G H 0.6869 2.2092 0.6492
C10G C 0.6175(3) 1.9543(5) 0.8080(3)
C11G C 0.5466(4) 1.9091(5) 0.8306(3)
H8G H 0.5002 1.9525 0.8262
C12G C 0.5428(3) 1.8013(5) 0.8594(3)
H9G H 0.4940 1.7710 0.8726
C13G C 0.6118(3) 1.7381(5) 0.8688(3)
C14G C 0.6843(3) 1.7807(5) 0.8468(4)
H10G H 0.7307 1.7376 0.8519
C15G C 0.6861(4) 1.8884(5) 0.8172(4)
H11G H 0.7346 1.9179 0.8030
C16G C 0.5453(3) 1.5502(5) 0.8995(3)
H12G H 0.4980 1.5584 0.8762
C17G C 0.5662(3) 1.4611(5) 0.9374(3)
H13G H 0.5356 1.3949 0.9442
C18G C 0.6628(3) 1.5818(5) 0.9424(3)
H14G H 0.7110 1.6169 0.9530
C19D C 0.3363(3) 1.0633(4) 0.9755(3)
C20D C 0.4212(3) 1.0306(4) 0.9874(3)
C21D C 0.5196(3) 0.8850(4) 1.0108(3)
H15D H 0.5333 0.8077 1.0177
C22D C 0.4409(3) 0.9136(4) 0.9990(3)
C23D C 0.3803(3) 0.8148(5) 0.9985(4)
loop_
_geom_bond_atom_site_label_1
_geom_bond_atom_site_label_2
_geom_bond_site_symmetry_1
_geom_bond_site_symmetry_2
O1 Co1 1_555 1_555
Co1 N1 1_555 1_555
O2 C19 1_555 1_555
O3 C19 1_555 1_555
O4 C23 1_555 1_555
N1 C1 1_555 1_555
N2 C1 1_555 1_555
N3 C13 1_555 1_555
N4 C17 1_555 1_555
C1 H1 1_555 1_555
C2 N1 1_555 1_555
H2 C2 1_555 1_555
C3 N2 1_555 1_555
H3 C3 1_555 1_555
C4 N2 1_555 1_555
C5 C4 1_555 1_555
H4 C5 1_555 1_555
C6 C5 1_555 1_555
H5 C6 1_555 1_555
C7 C6 1_555 1_555
C8 C7 1_555 1_555
H6 C8 1_555 1_555
C9 C4 1_555 1_555
H7 C9 1_555 1_555
C10 C7 1_555 1_555
C11 C10 1_555 1_555
H8 C11 1_555 1_555
C12 C11 1_555 1_555
H9 C12 1_555 1_555
C13 C12 1_555 1_555
C14 C13 1_555 1_555
H10 C14 1_555 1_555
C15 C10 1_555 1_555
H11 C15 1_555 1_555
C16 N3 1_555 1_555
H12 C16 1_555 1_555
C17 C16 1_555 1_555
H13 C17 1_555 1_555
C18 N3 1_555 1_555
H14 C18 1_555 1_555
C19 C20 1_555 1_555
C20 C22 1_555 1_555
C21 H15 1_555 1_555
C22 C21 1_555 1_555
C23 O1 1_555 1_555
O1D Co1D 1_555 1_555
Co1D O2B 1_555 1_555
Co1F O2 1_555 1_555
Co1G N4 1_555 1_555
Co1B O2D 1_555 1_555
Co1G_2 N1G 1_555 1_555
O2D C19D 1_555 1_555
O2F Co1 1_555 1_555
O3D Co1B 1_555 1_555
O3F Co1 1_555 1_555
O3B Co1D 1_555 1_555
O4D C23D 1_555 1_555
N1G C1G 1_555 1_555
N1D Co1D 1_555 1_555
N2G C1G 1_555 1_555
N3G C13G 1_555 1_555
N4G Co1 1_555 1_555
N4C Co1D 1_555 1_555
C1G H1G 1_555 1_555
C2G N1G 1_555 1_555
H2G C2G 1_555 1_555
C3G N2G 1_555 1_555
H3G C3G 1_555 1_555
C4G N2G 1_555 1_555
C5G C4G 1_555 1_555
H4G C5G 1_555 1_555
C6G C5G 1_555 1_555
H5G C6G 1_555 1_555
C7G C6G 1_555 1_555
C8G C7G 1_555 1_555
H6G C8G 1_555 1_555
C9G C4G 1_555 1_555
H7G C9G 1_555 1_555
C10G C7G 1_555 1_555
C11G C10G 1_555 1_555
H8G C11G 1_555 1_555
C12G C11G 1_555 1_555
H9G C12G 1_555 1_555
C13G C12G 1_555 1_555
C14G C13G 1_555 1_555
H10G C14G 1_555 1_555
C15G C10G 1_555 1_555
H11G C15G 1_555 1_555
C16G N3G 1_555 1_555
H12G C16G 1_555 1_555
C17G N4G 1_555 1_555
H13G C17G 1_555 1_555
C18G N3G 1_555 1_555
H14G C18G 1_555 1_555
C19D O3D 1_555 1_555
C20D C21 1_555 1_555
C21D C20 1_555 1_555
H15D C21D 1_555 1_555
C22D C20D 1_555 1_555
C23D O1D 1_555 1_555
O3 Co1F 1_555 1_555
N4 C18 1_555 1_555
C2 C3 1_555 1_555
C8 C9 1_555 1_555
C14 C15 1_555 1_555
C22 C23 1_555 1_555
N4G C18G 1_555 1_555
C2G C3G 1_555 1_555
C8G C9G 1_555 1_555
C14G C15G 1_555 1_555
C16G C17G 1_555 1_555
C19D C20D 1_555 1_555
C21D C22D 1_555 1_555
C22D C23D 1_555 1_555

#END
