
#######################################################################
#
#                 Cambridge Crystallographic Data Centre
#                                CCDC 
#
#######################################################################
#
# If this CIF has been generated from an entry in the Cambridge 
# Structural Database, then it will include bibliographic, chemical, 
# crystal, experimental, refinement or atomic coordinate data resulting 
# from the CCDC's data processing and validation procedures.
#
#######################################################################

data_DAXRAX
_symmetry_cell_setting           triclinic
_symmetry_space_group_name_H-M   'P -1'
_symmetry_Int_Tables_number      2
_space_group_name_Hall           '-P 1'
loop_
_symmetry_equiv_pos_site_id
_symmetry_equiv_pos_as_xyz
1 x,y,z
2 -x,-y,-z
_cell_length_a                   8.151(1)
_cell_length_b                   9.8520(12)
_cell_length_c                   12.0350(15)
_cell_angle_alpha                81.615(2)
_cell_angle_beta                 89.711(2)
_cell_angle_gamma                83.209(2)
_cell_volume                     949.342
loop_
_atom_site_label
_atom_site_type_symbol
_atom_site_fract_x
_atom_site_fract_y
_atom_site_fract_z
Ni1 Ni 0.31383(9) 0.97220(8) 0.47040(6)
C1 C 0.1485(8) 1.1319(7) 0.6553(6)
H1 H 0.1105 1.2094 0.6043
C2 C 0.2658(8) 0.9330(7) 0.7281(6)
H2 H 0.3275 0.8464 0.7357
C3 C 0.1874(9) 0.9877(7) 0.8128(6)
H3 H 0.1832 0.9468 0.8873
C4 C 0.0175(8) 1.2151(7) 0.8254(5)
C5 C 0.0312(8) 1.2024(7) 0.9414(5)
H4 H 0.1014 1.1301 0.9807
C6 C -0.0599(9) 1.2974(7) 0.9990(5)
H5 H -0.0506 1.2875 1.0768
C7 C -0.1639(8) 1.4062(7) 0.9430(5)
C8 C -0.1746(9) 1.4174(8) 0.8263(6)
H6 H -0.2442 1.4895 0.7864
C9 C -0.0826(9) 1.3224(8) 0.7686(6)
H7 H -0.0898 1.3326 0.6906
C10 C -0.2614(8) 1.5103(6) 1.0042(5)
C11 C -0.2574(9) 1.4998(7) 1.1217(6)
H8 H -0.1920 1.4258 1.1626
C12 C -0.3469(9) 1.5949(7) 1.1790(6)
H9 H -0.3441 1.5835 1.2571
C13 C -0.4413(8) 1.7081(6) 1.1183(5)
C14 C -0.4478(8) 1.7207(7) 1.0031(5)
H10 H -0.5132 1.7951 0.9626
C15 C -0.3577(9) 1.6236(7) 0.9462(6)
H11 H -0.3623 1.6350 0.8681
C16 C -0.5388(8) 1.8133(6) 1.2862(5)
H12 H -0.4840 1.7450 1.3391
C17 C -0.6867(9) 1.9960(7) 1.2103(5)
H13 H -0.7548 2.0797 1.2009
C18 C -0.6275(9) 1.9291(7) 1.1258(6)
H14 H -0.6472 1.9570 1.0494
C19 C 0.2012(8) 0.6803(7) 0.5456(6)
C20 C 0.3448(8) 0.4733(6) 0.4771(5)
H15 H 0.2387 0.4547 0.4614
C21 C 0.3625(8) 0.5942(6) 0.5223(5)
C22 C 0.5204(7) 0.6215(6) 0.5457(5)
C23 C 0.5736(7) 0.7435(6) 0.5933(5)
N1 N 0.2427(6) 1.0219(5) 0.6287(4)
N2 N 0.1151(7) 1.1161(5) 0.7668(4)
N3 N -0.6322(6) 1.9233(5) 1.3123(4)
N4 N -0.5321(6) 1.8113(5) 1.1748(4)
O1 O 0.1832(5) 0.8105(4) 0.5118(4)
O2 O 0.0938(7) 0.6190(6) 0.5919(7)
O3 O 0.5330(5) 0.8652(4) 0.5398(3)
O4 O 0.6640(6) 0.7189(5) 0.6775(4)
O5 O 0.1114(5) 1.1015(4) 0.3964(4)
H16 H 0.0232 1.0737 0.4244
H17 H 0.1173 1.1834 0.4091
Ni1_2 Ni 1.31383(9) -0.02780(8) -0.52960(6)
Ni1_3 Ni -0.68617(9) 1.97220(8) 1.47040(6)
Ni1A Ni 0.68617(9) 1.02780(8) 0.52960(6)
Ni1A_2 Ni 0.68617(9) 0.02780(8) 0.52960(6)
Ni1_4 Ni 0.31383(9) -0.02780(8) 0.47040(6)
C1_2 C 1.1485(8) 0.1319(7) -0.3447(6)
H1_2 H 1.1105 0.2094 -0.3957
C2_2 C 1.2658(8) -0.0670(7) -0.2719(6)
H2_2 H 1.3275 -0.1536 -0.2643
C3_2 C 1.1874(9) -0.0123(7) -0.1872(6)
H3_2 H 1.1832 -0.0532 -0.1127
C4_2 C 1.0175(8) 0.2151(7) -0.1746(5)
C5_2 C 1.0312(8) 0.2024(7) -0.0586(5)
H4_2 H 1.1014 0.1301 -0.0193
C6_2 C 0.9401(9) 0.2974(7) -0.0010(5)
H5_2 H 0.9494 0.2875 0.0768
C7_2 C 0.8361(8) 0.4062(7) -0.0570(5)
C8_2 C 0.8254(9) 0.4174(8) -0.1737(6)
H6_2 H 0.7558 0.4895 -0.2136
C9_2 C 0.9174(9) 0.3224(8) -0.2314(6)
H7_2 H 0.9102 0.3326 -0.3094
C10_2 C 0.7386(8) 0.5103(6) 0.0042(5)
C11_2 C 0.7426(9) 0.4998(7) 0.1217(6)
H8_2 H 0.8080 0.4258 0.1626
C12_2 C 0.6531(9) 0.5949(7) 0.1790(6)
H9_2 H 0.6559 0.5835 0.2571
C13_2 C 0.5587(8) 0.7081(6) 0.1183(5)
C14_2 C 0.5522(8) 0.7207(7) 0.0031(5)
H10_2 H 0.4868 0.7951 -0.0374
C15_2 C 0.6423(9) 0.6236(7) -0.0538(6)
H11_2 H 0.6377 0.6350 -0.1319
C16_2 C 0.4612(8) 0.8133(6) 0.2862(5)
H12_2 H 0.5160 0.7450 0.3391
C17_2 C 0.3133(9) 0.9960(7) 0.2103(5)
H13_2 H 0.2452 1.0797 0.2009
C18_2 C 0.3725(9) 0.9291(7) 0.1258(6)
H14_2 H 0.3528 0.9570 0.0494
C19A C 0.7988(8) 0.3197(7) 0.4544(6)
C20A C 0.6552(8) 0.5267(6) 0.5229(5)
H15A H 0.7613 0.5453 0.5386
C21A C 0.6375(8) 0.4058(6) 0.4777(5)
C22A C 0.4796(7) 0.3785(6) 0.4543(5)
C23A C 0.4264(7) 0.2565(6) 0.4067(5)
N1_2 N 1.2427(6) 0.0219(5) -0.3713(4)
N2_2 N 1.1151(7) 0.1161(5) -0.2332(4)
N3_2 N 0.3678(6) 0.9233(5) 0.3123(4)
N3_3 N 1.3678(6) -0.0767(5) -0.6877(4)
N4_2 N 0.4679(6) 0.8113(5) 0.1748(4)
O1A O 0.8168(5) 0.1895(4) 0.4882(4)
O1_2 O 1.1832(5) -0.1895(4) -0.4882(4)
O2A O 0.9062(7) 0.3810(6) 0.4081(7)
O3A O 0.4670(5) 0.1348(4) 0.4602(3)
O3A_2 O 0.4670(5) 1.1348(4) 0.4602(3)
O3_2 O 1.5330(5) -0.1348(4) -0.4602(3)
O3A_3 O 1.4670(5) 0.1348(4) -0.5398(3)
O4A O 0.3360(6) 0.2811(5) 0.3225(4)
O5_2 O 1.1114(5) 0.1015(4) -0.6036(4)
H16_2 H 1.0232 0.0737 -0.5756
H17_2 H 1.1173 0.1834 -0.5909
loop_
_geom_bond_atom_site_label_1
_geom_bond_atom_site_label_2
_geom_bond_site_symmetry_1
_geom_bond_site_symmetry_2
Ni1 N1 1_555 1_555
C1 H1 1_555 1_555
C2 H2 1_555 1_555
C3 C2 1_555 1_555
H3 C3 1_555 1_555
C4 C5 1_555 1_555
C5 H4 1_555 1_555
C6 C5 1_555 1_555
H5 C6 1_555 1_555
C7 C6 1_555 1_555
C8 C7 1_555 1_555
H6 C8 1_555 1_555
C9 C4 1_555 1_555
H7 C9 1_555 1_555
C10 C7 1_555 1_555
C11 C10 1_555 1_555
H8 C11 1_555 1_555
C12 C11 1_555 1_555
H9 C12 1_555 1_555
C13 C12 1_555 1_555
C14 C13 1_555 1_555
H10 C14 1_555 1_555
C15 C10 1_555 1_555
H11 C15 1_555 1_555
C16 H12 1_555 1_555
C17 H13 1_555 1_555
C18 C17 1_555 1_555
H14 C18 1_555 1_555
C19 C21 1_555 1_555
C20 H15 1_555 1_555
C21 C20 1_555 1_555
C22 C21 1_555 1_555
C23 C22 1_555 1_555
N1 C1 1_555 1_555
N2 C1 1_555 1_555
N3 C16 1_555 1_555
N4 C13 1_555 1_555
O1 Ni1 1_555 1_555
O2 C19 1_555 1_555
O3 Ni1 1_555 1_555
O4 C23 1_555 1_555
O5 Ni1 1_555 1_555
H16 O5 1_555 1_555
H17 O5 1_555 1_555
Ni1_2 N1_2 1_555 1_555
Ni1_3 N3 1_555 1_555
Ni1A O3 1_555 1_555
Ni1A_2 O1A 1_555 1_555
Ni1_4 O3A 1_555 1_555
C1_2 H1_2 1_555 1_555
C2_2 H2_2 1_555 1_555
C3_2 C2_2 1_555 1_555
H3_2 C3_2 1_555 1_555
C4_2 C5_2 1_555 1_555
C5_2 H4_2 1_555 1_555
C6_2 C5_2 1_555 1_555
H5_2 C6_2 1_555 1_555
C7_2 C6_2 1_555 1_555
C8_2 C7_2 1_555 1_555
H6_2 C8_2 1_555 1_555
C9_2 C4_2 1_555 1_555
H7_2 C9_2 1_555 1_555
C10_2 C7_2 1_555 1_555
C11_2 C10_2 1_555 1_555
H8_2 C11_2 1_555 1_555
C12_2 C11_2 1_555 1_555
H9_2 C12_2 1_555 1_555
C13_2 C12_2 1_555 1_555
C14_2 C13_2 1_555 1_555
H10_2 C14_2 1_555 1_555
C15_2 C10_2 1_555 1_555
H11_2 C15_2 1_555 1_555
C16_2 H12_2 1_555 1_555
C17_2 H13_2 1_555 1_555
C18_2 C17_2 1_555 1_555
H14_2 C18_2 1_555 1_555
C19A C21A 1_555 1_555
C20A C22 1_555 1_555
H15A C20A 1_555 1_555
C21A C20A 1_555 1_555
C22A C20 1_555 1_555
C23A C22A 1_555 1_555
N1_2 C1_2 1_555 1_555
N2_2 C1_2 1_555 1_555
N3_2 Ni1 1_555 1_555
N3_3 Ni1_2 1_555 1_555
N4_2 C13_2 1_555 1_555
O1A C19A 1_555 1_555
O1_2 Ni1_2 1_555 1_555
O2A C19A 1_555 1_555
O3A Ni1A_2 1_555 1_555
O3A_2 Ni1 1_555 1_555
O3_2 Ni1_2 1_555 1_555
O3A_3 Ni1_2 1_555 1_555
O4A C23A 1_555 1_555
O5_2 Ni1_2 1_555 1_555
H16_2 O5_2 1_555 1_555
H17_2 O5_2 1_555 1_555
C2 N1 1_555 1_555
C3 N2 1_555 1_555
C4 N2 1_555 1_555
C8 C9 1_555 1_555
C14 C15 1_555 1_555
C16 N4 1_555 1_555
C17 N3 1_555 1_555
C18 N4 1_555 1_555
C19 O1 1_555 1_555
C23 O3 1_555 1_555
Ni1A O3A_2 1_555 1_555
C2_2 N1_2 1_555 1_555
C3_2 N2_2 1_555 1_555
C4_2 N2_2 1_555 1_555
C8_2 C9_2 1_555 1_555
C14_2 C15_2 1_555 1_555
C16_2 N3_2 1_555 1_555
C16_2 N4_2 1_555 1_555
C17_2 N3_2 1_555 1_555
C18_2 N4_2 1_555 1_555
C21A C22A 1_555 1_555
C23A O3A 1_555 1_555

#END
