
#######################################################################
#
#                 Cambridge Crystallographic Data Centre
#                                CCDC 
#
#######################################################################
#
# If this CIF has been generated from an entry in the Cambridge 
# Structural Database, then it will include bibliographic, chemical, 
# crystal, experimental, refinement or atomic coordinate data resulting 
# from the CCDC's data processing and validation procedures.
#
#######################################################################

data_DAXREB
_symmetry_cell_setting           monoclinic
_symmetry_space_group_name_H-M   'C 2/c'
_symmetry_Int_Tables_number      15
_space_group_name_Hall           '-C 2yn'
loop_
_symmetry_equiv_pos_site_id
_symmetry_equiv_pos_as_xyz
1 x,y,z
2 -x,y,1/2-z
3 1/2+x,1/2+y,z
4 1/2-x,1/2+y,1/2-z
5 -x,-y,-z
6 x,-y,1/2+z
7 1/2-x,1/2-y,-z
8 1/2+x,1/2-y,1/2+z
_cell_length_a                   17.4172(17)
_cell_length_b                   14.4595(14)
_cell_length_c                   16.5632(16)
_cell_angle_alpha                90
_cell_angle_beta                 99.263(2)
_cell_angle_gamma                90
_cell_volume                     4116.95
loop_
_atom_site_label
_atom_site_type_symbol
_atom_site_fract_x
_atom_site_fract_y
_atom_site_fract_z
Cu1 Cu 0.0000 1.0000 0.0000
Cu2 Cu 0.5000 2.0000 0.0000
C1 C 0.3228(3) 1.9050(3) 0.1204(3)
H1 H 0.2810 1.9120 0.1484
C2 C 0.3647(3) 1.9737(3) 0.0929(3)
H2 H 0.3569 2.0367 0.0997
C3 C 0.4123(2) 1.8454(3) 0.0583(2)
H3 H 0.4428 1.8023 0.0364
C4 C 0.3278(2) 1.7317(3) 0.1128(2)
C5 C 0.3814(2) 1.6615(3) 0.1292(3)
H4 H 0.4342 1.6745 0.1345
C6 C 0.3569(2) 1.5719(3) 0.1377(3)
H5 H 0.3935 1.5250 0.1488
C7 C 0.2780(2) 1.5507(3) 0.1300(2)
C8 C 0.2247(2) 1.6236(3) 0.1158(2)
H6 H 0.1719 1.6114 0.1123
C9 C 0.2495(2) 1.7139(3) 0.1069(2)
H7 H 0.2135 1.7618 0.0970
C10 C -0.0081(2) 0.6438(2) 0.0993(2)
C11 C 0.0000 0.6524(3) 0.2500
H8 H 0.0000 0.5881 0.2500
C12 C 0.0019(2) 0.6990(2) 0.17765(19)
C13 C 0.0000 0.8426(3) 0.2500
H9 H 0.0000 0.9070 0.2500
C14 C 0.00547(19) 0.7959(2) 0.17794(19)
C15 C 0.0200(2) 0.8502(2) 0.10406(19)
C16 C 0.1017(2) 1.1566(3) 0.0652(2)
H10 H 0.0734 1.1976 0.0288
C17 C 0.1410(3) 1.0339(3) 0.1307(3)
H11 H 0.1441 0.9729 0.1486
C18 C 0.1905(3) 1.1019(3) 0.1604(3)
H12 H 0.2339 1.0965 0.2009
C19 C 0.1957(2) 1.2728(3) 0.1283(2)
C20 C 0.1506(2) 1.3427(3) 0.1508(3)
H13 H 0.1018 1.3298 0.1640
C21 C 0.1780(2) 1.4328(3) 0.1538(3)
H14 H 0.1473 1.4802 0.1692
C22 C 0.2504(2) 1.4536(3) 0.1342(2)
C23 C 0.2963(3) 1.3799(3) 0.1145(3)
H15 H 0.3460 1.3918 0.1032
C24 C 0.2694(3) 1.2901(3) 0.1114(3)
H16 H 0.3005 1.2419 0.0981
N1 N 0.08511(18) 1.0686(2) 0.06999(18)
N2 N 0.16425(19) 1.1802(2) 0.11908(18)
N3 N 0.42049(19) 1.9352(2) 0.05343(18)
N4 N 0.35370(19) 1.8237(2) 0.09919(19)
O1 O -0.01626(14) 0.92724(16) 0.09402(13)
O2 O 0.06545(16) 0.82112(18) 0.06026(15)
O3 O -0.05590(16) 0.66818(17) 0.04050(14)
O4 O 0.03240(14) 0.56999(16) 0.10130(14)
Cu1A Cu 0.0000 1.0000 0.5000
Cu2B Cu 0.0000 0.5000 0.0000
Cu2C Cu 0.0000 0.5000 0.5000
Cu2_2 Cu -0.5000 0.0000 0.0000
C1D C -0.3228(3) 0.0950(3) -0.1204(3)
H1D H -0.2810 0.0880 -0.1484
C2D C -0.3647(3) 0.0263(3) -0.0929(3)
H2D H -0.3569 -0.0367 -0.0997
C3D C -0.4123(2) 0.1546(3) -0.0583(2)
H3D H -0.4428 0.1977 -0.0364
C4D C -0.3278(2) 0.2683(3) -0.1128(2)
C5D C -0.3814(2) 0.3385(3) -0.1292(3)
H4D H -0.4342 0.3255 -0.1345
C6D C -0.3569(2) 0.4281(3) -0.1377(3)
H5D H -0.3935 0.4750 -0.1488
C7D C -0.2780(2) 0.4493(3) -0.1300(2)
C8D C -0.2247(2) 0.3764(3) -0.1158(2)
H6D H -0.1719 0.3886 -0.1123
C9D C -0.2495(2) 0.2861(3) -0.1069(2)
H7D H -0.2135 0.2382 -0.0970
C10A C 0.0081(2) 0.6438(2) 0.4007(2)
C12A C -0.0019(2) 0.6990(2) 0.32235(19)
C14A C -0.00547(19) 0.7959(2) 0.32206(19)
C15A C -0.0200(2) 0.8502(2) 0.39594(19)
C16D C -0.1017(2) 0.8434(3) -0.0652(2)
H10D H -0.0734 0.8024 -0.0288
C17D C -0.1410(3) 0.9661(3) -0.1307(3)
H11D H -0.1441 1.0271 -0.1486
C18D C -0.1905(3) 0.8981(3) -0.1604(3)
H12D H -0.2339 0.9035 -0.2009
C19D C -0.1957(2) 0.7272(3) -0.1283(2)
C20D C -0.1506(2) 0.6573(3) -0.1508(3)
H13D H -0.1018 0.6702 -0.1640
C21D C -0.1780(2) 0.5672(3) -0.1538(3)
H14D H -0.1473 0.5198 -0.1692
C22D C -0.2504(2) 0.5464(3) -0.1342(2)
C23D C -0.2963(3) 0.6201(3) -0.1145(3)
H15D H -0.3460 0.6082 -0.1032
C24D C -0.2694(3) 0.7099(3) -0.1114(3)
H16D H -0.3005 0.7581 -0.0981
N1D N -0.08511(18) 0.9314(2) -0.06999(18)
N2D N -0.16425(19) 0.8198(2) -0.11908(18)
N3D N -0.42049(19) 0.0648(2) -0.05343(18)
N3D_2 N 0.57951(19) 2.0648(2) -0.05343(18)
N4D N -0.35370(19) 0.1763(2) -0.09919(19)
O1A O 0.01626(14) 0.92724(16) 0.40598(13)
O1D O 0.01626(14) 1.07276(16) -0.09402(13)
O2A O -0.06545(16) 0.82112(18) 0.43974(15)
O3A O 0.05590(16) 0.66818(17) 0.45950(14)
O3B O 0.44410(16) 2.16818(17) 0.04050(14)
O3F O 0.55590(16) 1.83182(17) -0.04050(14)
O4A O -0.03240(14) 0.56999(16) 0.39870(14)
O4B O 0.53240(14) 2.06999(16) 0.10130(14)
O4F O 0.46760(14) 1.93001(16) -0.10130(14)
loop_
_geom_bond_atom_site_label_1
_geom_bond_atom_site_label_2
_geom_bond_site_symmetry_1
_geom_bond_site_symmetry_2
Cu1 N1 1_555 1_555
Cu2 N3 1_555 1_555
C1 H1 1_555 1_555
C2 C1 1_555 1_555
H2 C2 1_555 1_555
C3 H3 1_555 1_555
C4 C5 1_555 1_555
C5 H4 1_555 1_555
C6 C5 1_555 1_555
H5 C6 1_555 1_555
C7 C6 1_555 1_555
C8 C7 1_555 1_555
H6 C8 1_555 1_555
C9 C4 1_555 1_555
H7 C9 1_555 1_555
C10 C12 1_555 1_555
C11 H8 1_555 1_555
C12 C11 1_555 1_555
C13 H9 1_555 1_555
C14 C12 1_555 1_555
C15 C14 1_555 1_555
C16 H10 1_555 1_555
C17 H11 1_555 1_555
C18 C17 1_555 1_555
H12 C18 1_555 1_555
C19 C20 1_555 1_555
C20 H13 1_555 1_555
C21 C20 1_555 1_555
H14 C21 1_555 1_555
C22 C7 1_555 1_555
C23 C22 1_555 1_555
H15 C23 1_555 1_555
C24 C19 1_555 1_555
H16 C24 1_555 1_555
N1 C16 1_555 1_555
N2 C16 1_555 1_555
N3 C2 1_555 1_555
N4 C1 1_555 1_555
O1 Cu1 1_555 1_555
O2 C15 1_555 1_555
O3 C10 1_555 1_555
O4 C10 1_555 1_555
Cu1A O1A 1_555 1_555
Cu2B O3 1_555 1_555
Cu2C O3A 1_555 1_555
Cu2_2 N3D 1_555 1_555
C1D H1D 1_555 1_555
C2D C1D 1_555 1_555
H2D C2D 1_555 1_555
C3D H3D 1_555 1_555
C4D C5D 1_555 1_555
C5D H4D 1_555 1_555
C6D C5D 1_555 1_555
H5D C6D 1_555 1_555
C7D C6D 1_555 1_555
C8D C7D 1_555 1_555
H6D C8D 1_555 1_555
C9D C4D 1_555 1_555
H7D C9D 1_555 1_555
C10A C12A 1_555 1_555
C12A C11 1_555 1_555
C14A C13 1_555 1_555
C15A C14A 1_555 1_555
C16D H10D 1_555 1_555
C17D H11D 1_555 1_555
C18D C17D 1_555 1_555
H12D C18D 1_555 1_555
C19D C20D 1_555 1_555
C20D H13D 1_555 1_555
C21D C20D 1_555 1_555
H14D C21D 1_555 1_555
C22D C7D 1_555 1_555
C23D C22D 1_555 1_555
H15D C23D 1_555 1_555
C24D C19D 1_555 1_555
H16D C24D 1_555 1_555
N1D Cu1 1_555 1_555
N2D C16D 1_555 1_555
N3D C2D 1_555 1_555
N3D_2 Cu2 1_555 1_555
N4D C1D 1_555 1_555
O1A C15A 1_555 1_555
O1D Cu1 1_555 1_555
O2A C15A 1_555 1_555
O3A C10A 1_555 1_555
O3B Cu2 1_555 1_555
O3F Cu2 1_555 1_555
O4A Cu2C 1_555 1_555
O4B Cu2 1_555 1_555
O4F Cu2 1_555 1_555
C3 N3 1_555 1_555
C3 N4 1_555 1_555
C4 N4 1_555 1_555
C8 C9 1_555 1_555
C13 C14 1_555 1_555
C15 O1 1_555 1_555
C17 N1 1_555 1_555
C18 N2 1_555 1_555
C19 N2 1_555 1_555
C21 C22 1_555 1_555
C23 C24 1_555 1_555
O4 Cu2B 1_555 1_555
C3D N3D 1_555 1_555
C3D N4D 1_555 1_555
C4D N4D 1_555 1_555
C8D C9D 1_555 1_555
C10A O4A 1_555 1_555
C12A C14A 1_555 1_555
C16D N1D 1_555 1_555
C17D N1D 1_555 1_555
C18D N2D 1_555 1_555
C19D N2D 1_555 1_555
C21D C22D 1_555 1_555
C23D C24D 1_555 1_555

#END
