
#######################################################################
#
#                 Cambridge Crystallographic Data Centre
#                                CCDC 
#
#######################################################################
#
# If this CIF has been generated from an entry in the Cambridge 
# Structural Database, then it will include bibliographic, chemical, 
# crystal, experimental, refinement or atomic coordinate data resulting 
# from the CCDC's data processing and validation procedures.
#
#######################################################################

data_DAXRIF
_symmetry_cell_setting           orthorhombic
_symmetry_space_group_name_H-M   'P b c n'
_symmetry_Int_Tables_number      60
_space_group_name_Hall           '-P 2n 2ab'
loop_
_symmetry_equiv_pos_site_id
_symmetry_equiv_pos_as_xyz
1 x,y,z
2 1/2-x,1/2-y,1/2+z
3 -x,y,1/2-z
4 1/2+x,1/2-y,-z
5 -x,-y,-z
6 1/2+x,1/2+y,1/2-z
7 x,-y,1/2+z
8 1/2-x,1/2+y,z
_cell_length_a                   17.286(4)
_cell_length_b                   11.384(2)
_cell_length_c                   19.414(4)
_cell_angle_alpha                90
_cell_angle_beta                 90
_cell_angle_gamma                90
_cell_volume                     3820.36
loop_
_atom_site_label
_atom_site_type_symbol
_atom_site_fract_x
_atom_site_fract_y
_atom_site_fract_z
C1 C 0.1150(5) 0.7467(6) -0.1114(4)
C2 C 0.0647(4) 1.0290(7) -0.1762(4)
H1 H 0.0323 1.0931 -0.1829
C3 C 0.0443(5) 0.9306(7) -0.1423(4)
H2 H -0.0036 0.9130 -0.1232
C4 C 0.1649(4) 0.9193(6) -0.1765(4)
H3 H 0.2147 0.8909 -0.1836
C5 C 0.1642(4) 0.0403(6) 0.1274(4)
H4 H 0.1821 0.0967 0.1582
C6 C 0.1180(5) -0.0412(7) 0.0333(4)
H5 H 0.0989 -0.0526 -0.0110
C7 C 0.1288(5) -0.1238(7) 0.0826(4)
H6 H 0.1180 -0.2033 0.0772
C8 C 0.1383(5) 0.1781(7) 0.0307(4)
C9 C 0.1839(5) 0.2673(7) 0.0581(4)
H7 H 0.2173 0.2528 0.0947
C10 C 0.1782(5) 0.3794(7) 0.0292(4)
H8 H 0.2075 0.4403 0.0476
C11 C 0.1295(5) 0.4022(7) -0.0267(4)
C12 C 0.0870(5) 0.3093(7) -0.0526(4)
H9 H 0.0549 0.3216 -0.0904
C13 C 0.0910(5) 0.1998(7) -0.0241(4)
H10 H 0.0611 0.1393 -0.0421
C14 C 0.1253(5) 0.5217(7) -0.0558(4)
C15 C 0.0536(5) 0.5688(7) -0.0737(4)
H11 H 0.0088 0.5252 -0.0665
C16 C 0.0487(5) 0.6808(7) -0.1025(4)
H12 H 0.0009 0.7110 -0.1156
C17 C 0.1905(5) 0.5901(7) -0.0645(4)
H13 H 0.2386 0.5602 -0.0519
C18 C 0.1857(5) 0.7027(7) -0.0918(4)
H14 H 0.2301 0.7481 -0.0967
C19 C 0.1369(4) 1.3571(6) -0.2821(4)
C20 C 0.0691(4) 1.4342(6) -0.2628(4)
C21 C 0.0000 1.3751(9) -0.2500
H15 H 0.0000 1.2934 -0.2500
C22 C 0.1417(4) 1.6258(6) -0.2694(4)
C23 C 0.0688(4) 1.5565(6) -0.2620(4)
C24 C 0.0000 1.6141(8) -0.2500
H16 H 0.0000 1.6958 -0.2500
N1 N 0.1394(4) 1.0225(5) -0.1996(3)
N2 N 0.1096(3) 0.8617(5) -0.1420(3)
N3 N 0.1584(4) -0.0734(5) 0.1423(3)
N4 N 0.1415(4) 0.0644(5) 0.0630(3)
O1 O 0.1402(3) 1.7307(4) -0.2863(3)
O2 O 0.2036(3) 1.5678(5) -0.2534(3)
O3 O 0.1637(3) 1.3601(5) -0.3405(3)
O4 O 0.1562(3) 1.2837(5) -0.2341(3)
Zn1 Zn 0.19574(5) 1.13512(7) -0.26477(5)
C1F C 0.1150(5) 0.2533(6) -0.6114(4)
C2F C 0.0647(4) -0.0290(7) -0.6762(4)
H1F H 0.0323 -0.0931 -0.6829
C3F C 0.0443(5) 0.0694(7) -0.6423(4)
H2F H -0.0036 0.0870 -0.6232
C4F C 0.1649(4) 0.0807(6) -0.6765(4)
H3F H 0.2147 0.1091 -0.6836
C5F C 0.1642(4) 0.9597(6) -0.3726(4)
H4F H 0.1821 0.9033 -0.3418
C6F C 0.1180(5) 1.0412(7) -0.4667(4)
H5F H 0.0989 1.0526 -0.5110
C7F C 0.1288(5) 1.1238(7) -0.4174(4)
H6F H 0.1180 1.2033 -0.4228
C8F C 0.1383(5) 0.8219(7) -0.4693(4)
C9F C 0.1839(5) 0.7327(7) -0.4419(4)
H7F H 0.2173 0.7472 -0.4053
C10F C 0.1782(5) 0.6206(7) -0.4708(4)
H8F H 0.2075 0.5597 -0.4524
C11F C 0.1295(5) 0.5978(7) -0.5267(4)
C12F C 0.0870(5) 0.6907(7) -0.5526(4)
H9F H 0.0549 0.6784 -0.5904
C13F C 0.0910(5) 0.8002(7) -0.5241(4)
H10F H 0.0611 0.8607 -0.5421
C14F C 0.1253(5) 0.4783(7) -0.5558(4)
C15F C 0.0536(5) 0.4312(7) -0.5737(4)
H11F H 0.0088 0.4748 -0.5665
C16F C 0.0487(5) 0.3192(7) -0.6025(4)
H12F H 0.0009 0.2890 -0.6156
C17F C 0.1905(5) 0.4099(7) -0.5645(4)
H13F H 0.2386 0.4398 -0.5519
C18F C 0.1857(5) 0.2973(7) -0.5918(4)
H14F H 0.2301 0.2519 -0.5967
C19B C -0.1369(4) 1.3571(6) -0.2179(4)
C20B C -0.0691(4) 1.4342(6) -0.2372(4)
C22B C -0.1417(4) 1.6258(6) -0.2306(4)
C23B C -0.0688(4) 1.5565(6) -0.2380(4)
N1F N 0.1394(4) -0.0225(5) -0.6996(3)
N1E N -0.3606(4) 1.5225(5) -0.3004(3)
N2F N 0.1096(3) 0.1383(5) -0.6420(3)
N3F N 0.1584(4) 1.0734(5) -0.3577(3)
N3C N -0.3416(4) 1.5734(5) -0.1423(3)
N4F N 0.1415(4) 0.9356(5) -0.4370(3)
O1B O -0.1402(3) 1.7307(4) -0.2137(3)
O2B O -0.2036(3) 1.5678(5) -0.2466(3)
O2G O 0.2964(3) 1.0678(5) -0.2534(3)
O3B O -0.1637(3) 1.3601(5) -0.1595(3)
O4B O -0.1562(3) 1.2837(5) -0.2659(3)
O4E O -0.3438(3) 1.7837(5) -0.2659(3)
Zn1F Zn 0.19574(5) -0.13512(7) -0.76477(5)
Zn1F_2 Zn 0.19574(5) -0.13512(7) 0.23523(5)
Zn1G Zn 0.30426(5) 1.63512(7) -0.26477(5)
Zn1B Zn -0.19574(5) 1.13512(7) -0.23523(5)
Zn1E Zn -0.30426(5) 1.63512(7) -0.23523(5)
loop_
_geom_bond_atom_site_label_1
_geom_bond_atom_site_label_2
_geom_bond_site_symmetry_1
_geom_bond_site_symmetry_2
C1 C16 1_555 1_555
C2 H1 1_555 1_555
C3 C2 1_555 1_555
H2 C3 1_555 1_555
C4 H3 1_555 1_555
C5 H4 1_555 1_555
C6 H5 1_555 1_555
C7 C6 1_555 1_555
H6 C7 1_555 1_555
C8 C9 1_555 1_555
C9 H7 1_555 1_555
C10 C9 1_555 1_555
H8 C10 1_555 1_555
C11 C10 1_555 1_555
C12 C11 1_555 1_555
H9 C12 1_555 1_555
C13 C8 1_555 1_555
H10 C13 1_555 1_555
C14 C11 1_555 1_555
C15 C14 1_555 1_555
H11 C15 1_555 1_555
C16 C15 1_555 1_555
H12 C16 1_555 1_555
C17 C14 1_555 1_555
H13 C17 1_555 1_555
C18 C1 1_555 1_555
H14 C18 1_555 1_555
C19 C20 1_555 1_555
C20 C21 1_555 1_555
C21 H15 1_555 1_555
C22 C23 1_555 1_555
C23 C20 1_555 1_555
C24 C23 1_555 1_555
H16 C24 1_555 1_555
N1 C2 1_555 1_555
N2 C1 1_555 1_555
N3 C5 1_555 1_555
N4 C5 1_555 1_555
O1 C22 1_555 1_555
O2 C22 1_555 1_555
O3 C19 1_555 1_555
O4 C19 1_555 1_555
Zn1 N1 1_555 1_555
C1F C16F 1_555 1_555
C2F H1F 1_555 1_555
C3F C2F 1_555 1_555
H2F C3F 1_555 1_555
C4F H3F 1_555 1_555
C5F H4F 1_555 1_555
C6F H5F 1_555 1_555
C7F C6F 1_555 1_555
H6F C7F 1_555 1_555
C8F C9F 1_555 1_555
C9F H7F 1_555 1_555
C10F C9F 1_555 1_555
H8F C10F 1_555 1_555
C11F C10F 1_555 1_555
C12F C11F 1_555 1_555
H9F C12F 1_555 1_555
C13F C8F 1_555 1_555
H10F C13F 1_555 1_555
C14F C11F 1_555 1_555
C15F C14F 1_555 1_555
H11F C15F 1_555 1_555
C16F C15F 1_555 1_555
H12F C16F 1_555 1_555
C17F C14F 1_555 1_555
H13F C17F 1_555 1_555
C18F C1F 1_555 1_555
H14F C18F 1_555 1_555
C19B C20B 1_555 1_555
C20B C21 1_555 1_555
C22B C23B 1_555 1_555
C23B C24 1_555 1_555
N1F C2F 1_555 1_555
N1E Zn1E 1_555 1_555
N2F C1F 1_555 1_555
N3F Zn1 1_555 1_555
N3C Zn1E 1_555 1_555
N4F C5F 1_555 1_555
O1B C22B 1_555 1_555
O2B C22B 1_555 1_555
O2G Zn1 1_555 1_555
O3B C19B 1_555 1_555
O4B C19B 1_555 1_555
O4E Zn1E 1_555 1_555
Zn1F N1F 1_555 1_555
Zn1F_2 N3 1_555 1_555
Zn1G O2 1_555 1_555
Zn1B O4B 1_555 1_555
Zn1E O2B 1_555 1_555
C3 N2 1_555 1_555
C4 N1 1_555 1_555
C4 N2 1_555 1_555
C6 N4 1_555 1_555
C7 N3 1_555 1_555
C8 N4 1_555 1_555
C12 C13 1_555 1_555
C17 C18 1_555 1_555
O4 Zn1 1_555 1_555
C3F N2F 1_555 1_555
C4F N1F 1_555 1_555
C4F N2F 1_555 1_555
C5F N3F 1_555 1_555
C6F N4F 1_555 1_555
C7F N3F 1_555 1_555
C8F N4F 1_555 1_555
C12F C13F 1_555 1_555
C17F C18F 1_555 1_555
C20B C23B 1_555 1_555

#END
