
#######################################################################
#
#                 Cambridge Crystallographic Data Centre
#                                CCDC 
#
#######################################################################
#
# If this CIF has been generated from an entry in the Cambridge 
# Structural Database, then it will include bibliographic, chemical, 
# crystal, experimental, refinement or atomic coordinate data resulting 
# from the CCDC's data processing and validation procedures.
#
#######################################################################

data_DAXWUV
_symmetry_cell_setting           orthorhombic
_symmetry_space_group_name_H-M   'P b c n'
_symmetry_Int_Tables_number      60
_space_group_name_Hall           '-P 2n 2ab'
loop_
_symmetry_equiv_pos_site_id
_symmetry_equiv_pos_as_xyz
1 x,y,z
2 1/2-x,1/2-y,1/2+z
3 -x,y,1/2-z
4 1/2+x,1/2-y,-z
5 -x,-y,-z
6 1/2+x,1/2+y,1/2-z
7 x,-y,1/2+z
8 1/2-x,1/2+y,z
_cell_length_a                   14.113(5)
_cell_length_b                   10.159(2)
_cell_length_c                   15.819(3)
_cell_angle_alpha                90
_cell_angle_beta                 90
_cell_angle_gamma                90
_cell_volume                     2268.03
loop_
_atom_site_label
_atom_site_type_symbol
_atom_site_fract_x
_atom_site_fract_y
_atom_site_fract_z
Co1 Co 0.0000 0.69019(6) 0.2500
Ni1 Ni 0.0000 1.0000 0.5000
C1 C 0.0121(3) 0.8978(4) 0.4032(2)
N1 N 0.0141(3) 0.8309(3) 0.3450(2)
C2 C -0.1311(4) 0.9959(5) 0.4838(3)
N2 N -0.2101(4) 0.9854(6) 0.4728(3)
N3 N 0.1460(3) 0.6710(3) 0.2405(2)
C3 C 0.1855(3) 0.5763(5) 0.2899(3)
C4 C 0.2803(4) 0.5541(7) 0.2903(4)
H1 H 0.3065 0.4913 0.3261
C5 C 0.3364(5) 0.6252(9) 0.2374(5)
H2 H 0.4012 0.6090 0.2357
C6 C 0.2976(5) 0.7217(8) 0.1861(5)
H3 H 0.3356 0.7718 0.1504
C7 C 0.2015(4) 0.7412(6) 0.1897(3)
H4 H 0.1744 0.8054 0.1555
N4 N 0.0287(3) 0.5389(3) 0.3384(2)
C8 C 0.1178(4) 0.5011(4) 0.3423(3)
C9 C 0.1460(5) 0.3949(6) 0.3924(4)
H5 H 0.2091 0.3686 0.3938
C10 C 0.0793(7) 0.3304(6) 0.4392(4)
H6 H 0.0966 0.2594 0.4730
C11 C -0.0135(6) 0.3708(7) 0.4363(4)
H7 H -0.0596 0.3278 0.4680
C12 C -0.0373(4) 0.4757(5) 0.3857(3)
H8 H -0.0999 0.5039 0.3838
Ni1F Ni 0.0000 1.0000 0.0000
C1B C -0.0121(3) 0.8978(4) 0.0968(2)
C1D C -0.0121(3) 1.1022(4) 0.5968(2)
N1B N -0.0141(3) 0.8309(3) 0.1550(2)
C2D C 0.1311(4) 1.0041(5) 0.5162(3)
N2D N 0.2101(4) 1.0146(6) 0.5272(3)
N3B N -0.1460(3) 0.6710(3) 0.2595(2)
C3B C -0.1855(3) 0.5763(5) 0.2101(3)
C4B C -0.2803(4) 0.5541(7) 0.2097(4)
H1B H -0.3065 0.4913 0.1739
C5B C -0.3364(5) 0.6252(9) 0.2626(5)
H2B H -0.4012 0.6090 0.2643
C6B C -0.2976(5) 0.7217(8) 0.3139(5)
H3B H -0.3356 0.7718 0.3496
C7B C -0.2015(4) 0.7412(6) 0.3103(3)
H4B H -0.1744 0.8054 0.3445
N4B N -0.0287(3) 0.5389(3) 0.1616(2)
C8B C -0.1178(4) 0.5011(4) 0.1577(3)
C9B C -0.1460(5) 0.3949(6) 0.1076(4)
H5B H -0.2091 0.3686 0.1062
C10B C -0.0793(7) 0.3304(6) 0.0608(4)
H6B H -0.0966 0.2594 0.0270
C11B C 0.0135(6) 0.3708(7) 0.0637(4)
H7B H 0.0596 0.3278 0.0320
C12B C 0.0373(4) 0.4757(5) 0.1143(3)
H8B H 0.0999 0.5039 0.1162
loop_
_geom_bond_atom_site_label_1
_geom_bond_atom_site_label_2
_geom_bond_site_symmetry_1
_geom_bond_site_symmetry_2
Co1 N1 1_555 1_555
Ni1 C1 1_555 1_555
C1 N1 1_555 1_555
C2 Ni1 1_555 1_555
N2 C2 1_555 1_555
N3 Co1 1_555 1_555
C3 N3 1_555 1_555
C4 C3 1_555 1_555
H1 C4 1_555 1_555
C5 C4 1_555 1_555
H2 C5 1_555 1_555
C6 C5 1_555 1_555
H3 C6 1_555 1_555
C7 N3 1_555 1_555
H4 C7 1_555 1_555
N4 Co1 1_555 1_555
C8 C3 1_555 1_555
C9 C8 1_555 1_555
H5 C9 1_555 1_555
C10 C9 1_555 1_555
H6 C10 1_555 1_555
C11 C10 1_555 1_555
H7 C11 1_555 1_555
C12 N4 1_555 1_555
H8 C12 1_555 1_555
Ni1F C1B 1_555 1_555
C1B N1B 1_555 1_555
C1D Ni1 1_555 1_555
N1B Co1 1_555 1_555
C2D Ni1 1_555 1_555
N2D C2D 1_555 1_555
N3B Co1 1_555 1_555
C3B N3B 1_555 1_555
C4B C3B 1_555 1_555
H1B C4B 1_555 1_555
C5B C4B 1_555 1_555
H2B C5B 1_555 1_555
C6B C5B 1_555 1_555
H3B C6B 1_555 1_555
C7B N3B 1_555 1_555
H4B C7B 1_555 1_555
N4B Co1 1_555 1_555
C8B C3B 1_555 1_555
C9B C8B 1_555 1_555
H5B C9B 1_555 1_555
C10B C9B 1_555 1_555
H6B C10B 1_555 1_555
C11B C10B 1_555 1_555
H7B C11B 1_555 1_555
C12B N4B 1_555 1_555
H8B C12B 1_555 1_555
C6 C7 1_555 1_555
N4 C8 1_555 1_555
C11 C12 1_555 1_555
C6B C7B 1_555 1_555
N4B C8B 1_555 1_555
C11B C12B 1_555 1_555

#END
