
#######################################################################
#
#                 Cambridge Crystallographic Data Centre
#                                CCDC 
#
#######################################################################
#
# If this CIF has been generated from an entry in the Cambridge 
# Structural Database, then it will include bibliographic, chemical, 
# crystal, experimental, refinement or atomic coordinate data resulting 
# from the CCDC's data processing and validation procedures.
#
#######################################################################

data_DAXWIJ
_symmetry_cell_setting           monoclinic
_symmetry_space_group_name_H-M   'C 2/c'
_symmetry_Int_Tables_number      15
_space_group_name_Hall           '-C 2yn'
loop_
_symmetry_equiv_pos_site_id
_symmetry_equiv_pos_as_xyz
1 x,y,z
2 1/2+x,1/2+y,z
3 -x,y,1/2-z
4 1/2-x,1/2+y,1/2-z
5 -x,-y,-z
6 1/2-x,1/2-y,-z
7 x,-y,1/2+z
8 1/2+x,1/2-y,1/2+z
_cell_length_a                   6.5604(4)
_cell_length_b                   19.1843(12)
_cell_length_c                   11.6414(8)
_cell_angle_alpha                90
_cell_angle_beta                 91.0720(10)
_cell_angle_gamma                90
_cell_volume                     1464.89
loop_
_atom_site_label
_atom_site_type_symbol
_atom_site_fract_x
_atom_site_fract_y
_atom_site_fract_z
Co1 Co 0.0000 0.377767(15) 0.7500
Ni1 Ni 0.5000 0.5000 1.0000
N1 N 0.2176(2) 0.39183(8) 0.89552(14)
C1 C 0.3242(2) 0.43119(9) 0.93994(14)
N2 N 0.1799(2) 0.44538(8) 0.65749(13)
C2 C 0.2970(2) 0.46773(9) 0.59589(15)
N3 N 0.1735(2) 0.28958(7) 0.69130(12)
C3 C 0.3482(3) 0.29007(10) 0.63500(15)
H1 H 0.4068 0.3328 0.6176
C4 C 0.4476(3) 0.22925(11) 0.60079(17)
H2 H 0.5690 0.2320 0.5611
C5 C 0.3660(3) 0.16614(11) 0.62585(17)
H3 H 0.4298 0.1254 0.6024
C6 C 0.1835(3) 0.16293(9) 0.68771(16)
C7 C 0.0933(3) 0.22664(8) 0.71846(14)
C8 C 0.0878(3) 0.09934(10) 0.72068(18)
H4 H 0.1476 0.0571 0.7014
Ni1F Ni 0.5000 0.5000 0.5000
Ni1F_2 Ni -0.5000 0.5000 0.5000
Ni1_2 Ni -0.5000 0.5000 1.0000
N1B N -0.2176(2) 0.39183(8) 0.60448(14)
C1B C -0.3242(2) 0.43119(9) 0.56006(14)
C1D C 0.6758(2) 0.56881(9) 1.06006(14)
N2B N -0.1799(2) 0.44538(8) 0.84251(13)
C2B C -0.2970(2) 0.46773(9) 0.90411(15)
C2F C 0.2970(2) 0.53227(9) 1.09589(15)
C2B_2 C 0.7030(2) 0.46773(9) 0.90411(15)
N3B N -0.1735(2) 0.28958(7) 0.80870(12)
C3B C -0.3482(3) 0.29007(10) 0.86500(15)
H1B H -0.4068 0.3328 0.8824
C4B C -0.4476(3) 0.22925(11) 0.89921(17)
H2B H -0.5690 0.2320 0.9389
C5B C -0.3660(3) 0.16614(11) 0.87415(17)
H3B H -0.4298 0.1254 0.8976
C6B C -0.1835(3) 0.16293(9) 0.81229(16)
C7B C -0.0933(3) 0.22664(8) 0.78154(14)
C8B C -0.0878(3) 0.09934(10) 0.77932(18)
H4B H -0.1476 0.0571 0.7986
loop_
_geom_bond_atom_site_label_1
_geom_bond_atom_site_label_2
_geom_bond_site_symmetry_1
_geom_bond_site_symmetry_2
Co1 N1 1_555 1_555
Ni1 C1 1_555 1_555
N1 C1 1_555 1_555
N2 Co1 1_555 1_555
C2 N2 1_555 1_555
N3 Co1 1_555 1_555
C3 N3 1_555 1_555
H1 C3 1_555 1_555
C4 C3 1_555 1_555
H2 C4 1_555 1_555
C5 C4 1_555 1_555
H3 C5 1_555 1_555
C6 C5 1_555 1_555
C7 N3 1_555 1_555
C8 C6 1_555 1_555
H4 C8 1_555 1_555
Ni1F C2 1_555 1_555
Ni1F_2 C1B 1_555 1_555
Ni1_2 C2B 1_555 1_555
N1B Co1 1_555 1_555
C1B N1B 1_555 1_555
C1D Ni1 1_555 1_555
N2B Co1 1_555 1_555
C2B N2B 1_555 1_555
C2F Ni1 1_555 1_555
C2B_2 Ni1 1_555 1_555
N3B Co1 1_555 1_555
C3B N3B 1_555 1_555
H1B C3B 1_555 1_555
C4B C3B 1_555 1_555
H2B C4B 1_555 1_555
C5B C4B 1_555 1_555
H3B C5B 1_555 1_555
C6B C5B 1_555 1_555
C7B C7 1_555 1_555
C8B C8 1_555 1_555
H4B C8B 1_555 1_555
C6 C7 1_555 1_555
N3B C7B 1_555 1_555
C6B C7B 1_555 1_555
C6B C8B 1_555 1_555

#END
