
#######################################################################
#
#                 Cambridge Crystallographic Data Centre
#                                CCDC 
#
#######################################################################
#
# If this CIF has been generated from an entry in the Cambridge 
# Structural Database, then it will include bibliographic, chemical, 
# crystal, experimental, refinement or atomic coordinate data resulting 
# from the CCDC's data processing and validation procedures.
#
#######################################################################

data_DAXXIJ
_symmetry_cell_setting           cubic
_symmetry_space_group_name_H-M   'P 21 3'
_symmetry_Int_Tables_number      198
_space_group_name_Hall           'P 2ac 2ab 3'
loop_
_symmetry_equiv_pos_site_id
_symmetry_equiv_pos_as_xyz
1 x,y,z
2 y,z,x
3 z,x,y
4 1/2+x,1/2-y,-z
5 1/2+y,1/2-z,-x
6 1/2+z,1/2-x,-y
7 -y,1/2+z,1/2-x
8 -z,1/2+x,1/2-y
9 1/2-z,-x,1/2+y
10 1/2-x,-y,1/2+z
11 1/2-y,-z,1/2+x
12 -x,1/2+y,1/2-z
_cell_length_a                   15.289(2)
_cell_length_b                   15.289(2)
_cell_length_c                   15.289(2)
_cell_angle_alpha                90
_cell_angle_beta                 90
_cell_angle_gamma                90
_cell_volume                     3573.86
loop_
_atom_site_label
_atom_site_type_symbol
_atom_site_fract_x
_atom_site_fract_y
_atom_site_fract_z
Ru1 Ru 0.12400(3) 0.62400(3) -0.12400(3)
N1 N -0.0092(3) 0.6232(3) -0.1371(3)
N2 N 0.1111(3) 0.6237(3) -0.2577(3)
C1 C -0.0396(3) 0.6230(5) -0.2212(3)
C2 C -0.1299(4) 0.6220(5) -0.2382(4)
C3 C -0.1868(4) 0.6180(6) -0.1704(6)
C4 C -0.1567(4) 0.6186(7) -0.0864(5)
C5 C -0.0674(4) 0.6196(5) -0.0711(4)
C6 C 0.0287(4) 0.6239(4) -0.2885(3)
C7 C 0.0122(4) 0.6268(5) -0.3773(4)
C8 C 0.0814(6) 0.6302(6) -0.4350(4)
C9 C 0.1647(5) 0.6298(7) -0.4035(4)
C10 C 0.1788(4) 0.6264(5) -0.3154(4)
H1 H -0.1512 0.6222 -0.3017
H2 H -0.2524 0.6195 -0.1831
H3 H -0.2013 0.6123 -0.0351
H4 H -0.0448 0.6213 -0.0075
H5 H -0.0510 0.6264 -0.4011
H6 H 0.0690 0.6330 -0.4993
H7 H 0.2171 0.6308 -0.4464
H8 H 0.2414 0.6281 -0.2916
N1D N 0.1232(3) 0.6371(3) 0.0092(3)
C1D C 0.1230(5) 0.7212(3) 0.0396(3)
C2D C 0.1220(5) 0.7382(4) 0.1299(4)
C3D C 0.1180(6) 0.6704(6) 0.1868(4)
C4D C 0.1186(7) 0.5864(5) 0.1567(4)
C5D C 0.1196(5) 0.5711(4) 0.0674(4)
H4D H 0.1213 0.5075 0.0448
H3D H 0.1123 0.5351 0.2013
H2D H 0.1195 0.6831 0.2524
H1D H 0.1222 0.8017 0.1512
C6D C 0.1239(4) 0.7885(3) -0.0287(4)
N2D N 0.1237(3) 0.7577(3) -0.1111(3)
N1G N 0.1371(3) 0.4908(3) -0.1232(3)
C1G C 0.2212(3) 0.4604(3) -0.1230(5)
C2G C 0.2382(4) 0.3701(4) -0.1220(5)
C3G C 0.1704(6) 0.3132(4) -0.1180(6)
C4G C 0.0864(5) 0.3433(4) -0.1186(7)
C5G C 0.0711(4) 0.4326(4) -0.1196(5)
H4G H 0.0075 0.4552 -0.1213
H3G H 0.0351 0.2987 -0.1123
H2G H 0.1831 0.2476 -0.1195
H1G H 0.3017 0.3488 -0.1222
C6G C 0.2885(3) 0.5287(4) -0.1239(4)
N2G N 0.2577(3) 0.6111(3) -0.1237(3)
C10G C 0.3154(4) 0.6788(4) -0.1264(5)
C9G C 0.4035(4) 0.6647(5) -0.1298(7)
C8G C 0.4350(4) 0.5814(6) -0.1302(6)
C7G C 0.3773(4) 0.5122(4) -0.1268(5)
H5G H 0.4011 0.4490 -0.1264
H6G H 0.4993 0.5690 -0.1330
H7G H 0.4464 0.7171 -0.1308
H8G H 0.2916 0.7414 -0.1281
C10D C 0.1264(5) 0.8154(4) -0.1788(4)
C9D C 0.1298(7) 0.9035(4) -0.1647(5)
C8D C 0.1302(6) 0.9350(4) -0.0814(6)
C7D C 0.1268(5) 0.8773(4) -0.0122(4)
H5D H 0.1264 0.9011 0.0510
H6D H 0.1330 0.9993 -0.0690
H7D H 0.1308 0.9464 -0.2171
H8D H 0.1281 0.7916 -0.2414
Cr1 Cr 1.14589(6) -0.85411(6) 0.14589(6)
Li1 Li 1.0999(7) -1.0999(7) 0.4001(7)
O1 O 1.1384(2) -0.8569(2) 0.2749(3)
O2 O 1.3405(2) -1.1338(2) 0.5182(3)
O3 O 1.1124(3) -0.9521(3) 0.3836(3)
O4 O 1.2384(3) -1.1131(3) 0.4170(3)
C11 C 1.1248(4) -0.9332(3) 0.3070(4)
C12 C 1.2617(3) -1.1236(3) 0.4934(4)
O1A O 1.1431(2) -0.7251(3) 0.1384(2)
O1B O 1.2749(3) -0.8616(2) 0.1431(2)
O2I O 1.1595(2) -0.8662(2) 0.0182(3)
O3H O 1.1164(3) -1.1124(3) 0.5479(3)
C11H C 1.1930(4) -1.1248(4) 0.5668(3)
O1H O 1.2251(3) -1.1384(2) 0.6431(2)
Cr1H Cr 1.35411(6) -1.14589(6) 0.64589(6)
O3F O 0.9521(3) -1.1164(3) 0.3876(3)
C11F C 0.9332(3) -1.1930(4) 0.3752(4)
O1F O 0.8569(2) -1.2251(3) 0.3616(2)
Cr1F Cr 0.85411(6) -1.35411(6) 0.35411(6)
O2H O 0.9818(3) -1.3405(2) 0.3662(2)
C12H C 1.0066(4) -1.2617(3) 0.3764(3)
O4H O 1.0830(3) -1.2384(3) 0.3869(3)
O4F O 1.1131(3) -1.0830(3) 0.2616(3)
C12F C 1.1236(3) -1.0066(4) 0.2383(3)
O2F O 1.1338(2) -0.9818(3) 0.1595(2)
O2E O 1.0182(3) -0.8405(2) 0.1338(2)
O5 O 0.871(2) 0.871(2) -0.129(2)
loop_
_geom_bond_atom_site_label_1
_geom_bond_atom_site_label_2
_geom_bond_site_symmetry_1
_geom_bond_site_symmetry_2
Ru1 N1 1_555 1_555
N1 C1 1_555 1_555
N2 Ru1 1_555 1_555
C1 C2 1_555 1_555
C2 C3 1_555 1_555
C3 C4 1_555 1_555
C4 C5 1_555 1_555
C5 N1 1_555 1_555
C6 N2 1_555 1_555
C7 C6 1_555 1_555
C8 C7 1_555 1_555
C9 C8 1_555 1_555
C10 N2 1_555 1_555
H1 C2 1_555 1_555
H2 C3 1_555 1_555
H3 C4 1_555 1_555
H4 C5 1_555 1_555
H5 C7 1_555 1_555
H6 C8 1_555 1_555
H7 C9 1_555 1_555
H8 C10 1_555 1_555
Cr1 O1 1_555 1_555
Li1 O3 1_555 1_555
O1 C11 1_555 1_555
O2 C12 1_555 1_555
O3 C11 1_555 1_555
O4 Li1 1_555 1_555
C11 C12F 1_555 1_555
C12 O4 1_555 1_555
N1D Ru1 1_555 1_555
C1D N1D 1_555 1_555
C2D C1D 1_555 1_555
C3D C2D 1_555 1_555
C4D C3D 1_555 1_555
C5D N1D 1_555 1_555
H4D C5D 1_555 1_555
H3D C4D 1_555 1_555
H2D C3D 1_555 1_555
H1D C2D 1_555 1_555
C6D C1D 1_555 1_555
N2D Ru1 1_555 1_555
N1G Ru1 1_555 1_555
C1G N1G 1_555 1_555
C2G C1G 1_555 1_555
C3G C2G 1_555 1_555
C4G C3G 1_555 1_555
C5G N1G 1_555 1_555
H4G C5G 1_555 1_555
H3G C4G 1_555 1_555
H2G C3G 1_555 1_555
H1G C2G 1_555 1_555
C6G C1G 1_555 1_555
N2G Ru1 1_555 1_555
C10G N2G 1_555 1_555
C9G C10G 1_555 1_555
C8G C9G 1_555 1_555
C7G C6G 1_555 1_555
H5G C7G 1_555 1_555
H6G C8G 1_555 1_555
H7G C9G 1_555 1_555
H8G C10G 1_555 1_555
C10D N2D 1_555 1_555
C9D C10D 1_555 1_555
C8D C9D 1_555 1_555
C7D C6D 1_555 1_555
H5D C7D 1_555 1_555
H6D C8D 1_555 1_555
H7D C9D 1_555 1_555
H8D C10D 1_555 1_555
O1A Cr1 1_555 1_555
O1B Cr1 1_555 1_555
O2I Cr1 1_555 1_555
O3H Li1 1_555 1_555
C11H C12 1_555 1_555
O1H C11H 1_555 1_555
Cr1H O2 1_555 1_555
O3F Li1 1_555 1_555
C11F O3F 1_555 1_555
O1F C11F 1_555 1_555
Cr1F O1F 1_555 1_555
O2H Cr1F 1_555 1_555
C12H C11F 1_555 1_555
O4H Li1 1_555 1_555
O4F Li1 1_555 1_555
C12F O4F 1_555 1_555
O2F Cr1 1_555 1_555
O2E Cr1 1_555 1_555
C1 C6 1_555 1_555
C9 C10 1_555 1_555
C4D C5D 1_555 1_555
C6D N2D 1_555 1_555
C4G C5G 1_555 1_555
C6G N2G 1_555 1_555
C8G C7G 1_555 1_555
C8D C7D 1_555 1_555
O3H C11H 1_555 1_555
O1H Cr1H 1_555 1_555
O2H C12H 1_555 1_555
C12H O4H 1_555 1_555
C12F O2F 1_555 1_555

#END
