
#######################################################################
#
#                 Cambridge Crystallographic Data Centre
#                                CCDC 
#
#######################################################################
#
# If this CIF has been generated from an entry in the Cambridge 
# Structural Database, then it will include bibliographic, chemical, 
# crystal, experimental, refinement or atomic coordinate data resulting 
# from the CCDC's data processing and validation procedures.
#
#######################################################################

data_DAXZUY
_symmetry_cell_setting           monoclinic
_symmetry_space_group_name_H-M   'P 21/n'
_symmetry_Int_Tables_number      14
_space_group_name_Hall           '-P 2yn'
loop_
_symmetry_equiv_pos_site_id
_symmetry_equiv_pos_as_xyz
1 x,y,z
2 1/2-x,1/2+y,1/2-z
3 -x,-y,-z
4 1/2+x,1/2-y,1/2+z
_cell_length_a                   10.885(2)
_cell_length_b                   16.216(3)
_cell_length_c                   11.108(2)
_cell_angle_alpha                90
_cell_angle_beta                 96.04(3)
_cell_angle_gamma                90
_cell_volume                     1949.8
loop_
_atom_site_label
_atom_site_type_symbol
_atom_site_fract_x
_atom_site_fract_y
_atom_site_fract_z
Cu1 Cu 0.23581(2) 0.711699(14) 0.419064(19)
N1 N 0.24324(16) 0.71467(10) 0.23727(15)
N2 N 0.22480(16) 0.71660(9) -0.39977(15)
C1 C 0.3200(2) 0.66799(14) 0.17995(17)
H1 H 0.3760 0.6342 0.2256
C2 C 0.3191(2) 0.66816(14) 0.05521(18)
H2 H 0.3753 0.6360 0.0185
C3 C 0.1641(2) 0.76332(15) 0.17032(18)
H3 H 0.1129 0.7977 0.2097
C4 C 0.1548(2) 0.76502(15) 0.04541(18)
H4 H 0.0961 0.7982 0.0019
C5 C 0.23435(19) 0.71638(12) -0.01441(17)
C6 C 0.22908(19) 0.71716(12) -0.14841(17)
C7 C 0.33771(19) 0.72087(13) -0.20389(18)
H5 H 0.4139 0.7227 -0.1574
C8 C 0.33119(19) 0.72177(13) -0.32814(18)
H6 H 0.4043 0.7262 -0.3641
C9 C 0.11799(19) 0.71443(12) -0.22254(18)
H7 H 0.0433 0.7137 -0.1889
C10 C 0.11966(18) 0.71278(12) -0.34679(18)
H8 H 0.0450 0.7089 -0.3956
O1 O 0.34800(13) 0.80855(9) 0.43679(13)
O2 O 0.16287(14) 0.86529(10) 0.42026(15)
C11 C 0.27789(19) 0.87150(12) 0.43483(16)
C12 C 0.3372(2) 0.95559(13) 0.4495(2)
H9 H 0.2941 0.9870 0.5063
H10 H 0.3252 0.9838 0.3721
C13 C 0.4741(2) 0.95649(12) 0.4930(2)
H11 H 0.5186 0.9265 0.4357
H12 H 0.4874 0.9283 0.5703
O3 O 0.09387(14) 0.63738(10) 0.39787(13)
O4 O 0.20253(16) 0.52739(12) 0.3534(2)
C14 C 0.1045(2) 0.56247(14) 0.36495(19)
C15 C -0.0131(2) 0.51281(14) 0.3385(2)
H13 H -0.0091 0.4843 0.2622
H14 H -0.0143 0.4710 0.4008
C16 C -0.1341(2) 0.55865(15) 0.3311(2)
H15 H -0.1349 0.6012 0.2696
H16 H -0.1422 0.5853 0.4081
C17 C -0.2428(2) 0.50080(14) 0.3004(2)
H17 H -0.2320 0.4726 0.2252
H18 H -0.2426 0.4594 0.3635
C18 C -0.3665(2) 0.54383(16) 0.2874(3)
H19 H -0.3799 0.5706 0.3630
H20 H -0.3676 0.5859 0.2252
C19 C -0.4684(2) 0.48228(14) 0.2539(2)
O5 O -0.50146(17) 0.43173(12) 0.32393(16)
O6 O -0.5141(2) 0.48663(13) 0.14061(19)
H21 H -0.563(3) 0.457(2) 0.127(3)
O7 O 0.39705(16) 0.61344(11) 0.44463(15)
H22 H 0.345(3) 0.5789(19) 0.421(3)
H23 H 0.421(3) 0.596(2) 0.508(3)
Cu1_2 Cu 0.23581(2) 0.711699(14) 1.419064(19)
Cu1_3 Cu 0.23581(2) 0.711699(14) -0.580936(19)
Cu1B Cu 0.76419(2) 1.288301(14) 0.580936(19)
N1_2 N 0.24324(16) 0.71467(10) 1.23727(15)
N2_2 N 0.22480(16) 0.71660(9) 0.60023(15)
N2_3 N 0.22480(16) 0.71660(9) 1.60023(15)
C1_2 C 0.3200(2) 0.66799(14) 1.17995(17)
H1_2 H 0.3760 0.6342 1.2256
C2_2 C 0.3191(2) 0.66816(14) 1.05521(18)
H2_2 H 0.3753 0.6360 1.0185
C3_2 C 0.1641(2) 0.76332(15) 1.17032(18)
H3_2 H 0.1129 0.7977 1.2097
C4_2 C 0.1548(2) 0.76502(15) 1.04541(18)
H4_2 H 0.0961 0.7982 1.0019
C5_2 C 0.23435(19) 0.71638(12) 0.98559(17)
C6_2 C 0.22908(19) 0.71716(12) 0.85159(17)
C7_2 C 0.33771(19) 0.72087(13) 0.79611(18)
H5_2 H 0.4139 0.7227 0.8426
C8_2 C 0.33119(19) 0.72177(13) 0.67186(18)
H6_2 H 0.4043 0.7262 0.6359
C9_2 C 0.11799(19) 0.71443(12) 0.77746(18)
H7_2 H 0.0433 0.7137 0.8111
C10_2 C 0.11966(18) 0.71278(12) 0.65321(18)
H8_2 H 0.0450 0.7089 0.6044
O1B O 0.65200(13) 1.19145(9) 0.56321(13)
O1_2 O 0.34800(13) 0.80855(9) 1.43679(13)
O2B O 0.83713(14) 1.13471(10) 0.57974(15)
C11B C 0.72211(19) 1.12850(12) 0.56517(16)
C12B C 0.6628(2) 1.04441(13) 0.5505(2)
H9B H 0.7059 1.0130 0.4937
H10B H 0.6748 1.0162 0.6279
C13B C 0.5259(2) 1.04351(12) 0.5070(2)
H11B H 0.4814 1.0735 0.5643
H12B H 0.5126 1.0717 0.4297
O3_2 O 0.09387(14) 0.63738(10) 1.39787(13)
O4_2 O 0.20253(16) 0.52739(12) 1.3534(2)
C14_2 C 0.1045(2) 0.56247(14) 1.36495(19)
C15_2 C -0.0131(2) 0.51281(14) 1.3385(2)
H13_2 H -0.0091 0.4843 1.2622
H14_2 H -0.0143 0.4710 1.4008
C16_2 C -0.1341(2) 0.55865(15) 1.3311(2)
H15_2 H -0.1349 0.6012 1.2696
H16_2 H -0.1422 0.5853 1.4081
C17_2 C -0.2428(2) 0.50080(14) 1.3004(2)
H17_2 H -0.2320 0.4726 1.2252
H18_2 H -0.2426 0.4594 1.3635
C18_2 C -0.3665(2) 0.54383(16) 1.2874(3)
H19_2 H -0.3799 0.5706 1.3630
H20_2 H -0.3676 0.5859 1.2252
C19_2 C -0.4684(2) 0.48228(14) 1.2539(2)
O5_2 O -0.50146(17) 0.43173(12) 1.32393(16)
O6_2 O -0.5141(2) 0.48663(13) 1.14061(19)
H21_2 H -0.563(3) 0.457(2) 1.127(3)
O7_2 O 0.39705(16) 0.61344(11) 1.44463(15)
H22_2 H 0.345(3) 0.5789(19) 1.421(3)
H23_2 H 0.421(3) 0.596(2) 1.508(3)
loop_
_geom_bond_atom_site_label_1
_geom_bond_atom_site_label_2
_geom_bond_site_symmetry_1
_geom_bond_site_symmetry_2
Cu1 N1 1_555 1_555
N1 C1 1_555 1_555
N2 C8 1_555 1_555
C1 H1 1_555 1_555
C2 C1 1_555 1_555
H2 C2 1_555 1_555
C3 N1 1_555 1_555
H3 C3 1_555 1_555
C4 C3 1_555 1_555
H4 C4 1_555 1_555
C5 C2 1_555 1_555
C6 C5 1_555 1_555
C7 C6 1_555 1_555
H5 C7 1_555 1_555
C8 C7 1_555 1_555
H6 C8 1_555 1_555
C9 C6 1_555 1_555
H7 C9 1_555 1_555
C10 N2 1_555 1_555
H8 C10 1_555 1_555
O1 Cu1 1_555 1_555
O2 C11 1_555 1_555
C11 O1 1_555 1_555
C12 C11 1_555 1_555
H9 C12 1_555 1_555
H10 C12 1_555 1_555
C13 C12 1_555 1_555
H11 C13 1_555 1_555
H12 C13 1_555 1_555
O3 Cu1 1_555 1_555
O4 C14 1_555 1_555
C14 O3 1_555 1_555
C15 C14 1_555 1_555
H13 C15 1_555 1_555
H14 C15 1_555 1_555
C16 C15 1_555 1_555
H15 C16 1_555 1_555
H16 C16 1_555 1_555
C17 C16 1_555 1_555
H17 C17 1_555 1_555
H18 C17 1_555 1_555
C18 C17 1_555 1_555
H19 C18 1_555 1_555
H20 C18 1_555 1_555
C19 C18 1_555 1_555
O5 C19 1_555 1_555
O6 C19 1_555 1_555
H21 O6 1_555 1_555
O7 Cu1 1_555 1_555
H22 O7 1_555 1_555
H23 O7 1_555 1_555
Cu1_2 N1_2 1_555 1_555
Cu1_3 N2 1_555 1_555
Cu1B O1B 1_555 1_555
N1_2 C1_2 1_555 1_555
N2_2 Cu1 1_555 1_555
N2_3 Cu1_2 1_555 1_555
C1_2 H1_2 1_555 1_555
C2_2 C1_2 1_555 1_555
H2_2 C2_2 1_555 1_555
C3_2 N1_2 1_555 1_555
H3_2 C3_2 1_555 1_555
C4_2 C3_2 1_555 1_555
H4_2 C4_2 1_555 1_555
C5_2 C2_2 1_555 1_555
C6_2 C5_2 1_555 1_555
C7_2 C6_2 1_555 1_555
H5_2 C7_2 1_555 1_555
C8_2 N2_2 1_555 1_555
H6_2 C8_2 1_555 1_555
C9_2 C6_2 1_555 1_555
H7_2 C9_2 1_555 1_555
C10_2 N2_2 1_555 1_555
H8_2 C10_2 1_555 1_555
O1B C11B 1_555 1_555
O1_2 Cu1_2 1_555 1_555
O2B C11B 1_555 1_555
C11B C12B 1_555 1_555
C12B H9B 1_555 1_555
H10B C12B 1_555 1_555
C13B C13 1_555 1_555
H11B C13B 1_555 1_555
H12B C13B 1_555 1_555
O3_2 Cu1_2 1_555 1_555
O4_2 C14_2 1_555 1_555
C14_2 O3_2 1_555 1_555
C15_2 C14_2 1_555 1_555
H13_2 C15_2 1_555 1_555
H14_2 C15_2 1_555 1_555
C16_2 C15_2 1_555 1_555
H15_2 C16_2 1_555 1_555
H16_2 C16_2 1_555 1_555
C17_2 C16_2 1_555 1_555
H17_2 C17_2 1_555 1_555
H18_2 C17_2 1_555 1_555
C18_2 C17_2 1_555 1_555
H19_2 C18_2 1_555 1_555
H20_2 C18_2 1_555 1_555
C19_2 C18_2 1_555 1_555
O5_2 C19_2 1_555 1_555
O6_2 C19_2 1_555 1_555
H21_2 O6_2 1_555 1_555
O7_2 Cu1_2 1_555 1_555
H22_2 O7_2 1_555 1_555
H23_2 O7_2 1_555 1_555
C4 C5 1_555 1_555
C9 C10 1_555 1_555
C4_2 C5_2 1_555 1_555
C7_2 C8_2 1_555 1_555
C9_2 C10_2 1_555 1_555
C12B C13B 1_555 1_555

#END
