
#######################################################################
#
#                 Cambridge Crystallographic Data Centre
#                                CCDC 
#
#######################################################################
#
# If this CIF has been generated from an entry in the Cambridge 
# Structural Database, then it will include bibliographic, chemical, 
# crystal, experimental, refinement or atomic coordinate data resulting 
# from the CCDC's data processing and validation procedures.
#
#######################################################################

data_DAYBUC
_symmetry_cell_setting           monoclinic
_symmetry_space_group_name_H-M   'C 2/c'
_symmetry_Int_Tables_number      15
_space_group_name_Hall           '-C 2yn'
loop_
_symmetry_equiv_pos_site_id
_symmetry_equiv_pos_as_xyz
1 x,y,z
2 -x,y,1/2-z
3 1/2+x,1/2+y,z
4 1/2-x,1/2+y,1/2-z
5 -x,-y,-z
6 x,-y,1/2+z
7 1/2-x,1/2-y,-z
8 1/2+x,1/2-y,1/2+z
_cell_length_a                   11.691(2)
_cell_length_b                   18.186(4)
_cell_length_c                   20.347(4)
_cell_angle_alpha                90
_cell_angle_beta                 102.20(3)
_cell_angle_gamma                90
_cell_volume                     4228.33
loop_
_atom_site_label
_atom_site_type_symbol
_atom_site_fract_x
_atom_site_fract_y
_atom_site_fract_z
Cu1 Cu 0.46478(3) 0.143671(18) 0.681548(18)
Cu2 Cu 1.0000 0.14890(3) 0.7500
N1 N 0.8046(3) 0.06983(18) 0.59762(17)
N2 N 0.6589(3) 0.13801(16) 0.54963(15)
N3 N 0.4009(2) 0.15287(14) 0.57477(13)
N4 N 0.3767(2) 0.18383(16) 0.46594(14)
H1 H 0.3938 0.1982 0.4289
O1 O 0.5797(2) 0.22845(12) 0.68883(11)
O2 O 0.6488(2) 0.21843(11) 0.80050(11)
O3 O 0.88324(19) 0.22332(12) 0.74970(12)
O4 O 0.9610(2) 0.26385(13) 0.85376(12)
O5 O 0.9114(2) 0.56725(12) 0.81591(11)
O6 O 0.86429(19) 0.56255(11) 0.70283(11)
O7 O 0.6196(2) 0.57773(12) 0.74370(14)
O8 O 0.5119(2) 0.51064(14) 0.66010(13)
H2 H 0.4675 0.5459 0.6575
C1 C 0.7455(3) 0.1314(2) 0.60293(19)
H3 H 0.7624 0.1646 0.6385
C2 C 0.7510(5) 0.0356(3) 0.5387(3)
H4 H 0.7739 -0.0084 0.5220
C3 C 0.6603(4) 0.0774(3) 0.5099(3)
H5 H 0.6074 0.0671 0.4700
C4 C 0.5775(3) 0.20042(18) 0.53551(17)
H6 H 0.5885 0.2249 0.4949
H7 H 0.5962 0.2354 0.5722
C5 C 0.4517(3) 0.17811(18) 0.52672(16)
C6 C 0.2671(3) 0.16201(19) 0.47488(16)
C7 C 0.1588(3) 0.1572(2) 0.43086(18)
H8 H 0.1492 0.1701 0.3858
C8 C 0.0658(3) 0.1323(2) 0.45722(19)
H9 H -0.0078 0.1278 0.4292
C9 C 0.0807(3) 0.1139(2) 0.52522(19)
H10 H 0.0165 0.0976 0.5414
C10 C 0.1883(3) 0.1192(2) 0.56919(18)
H11 H 0.1970 0.1073 0.6144
C11 C 0.2829(3) 0.14292(16) 0.54321(16)
C12 C 0.6395(3) 0.25021(16) 0.74464(15)
C13 C 0.6983(3) 0.32476(16) 0.74690(15)
C14 C 0.8154(3) 0.33470(16) 0.78012(15)
C15 C 0.8932(3) 0.26906(16) 0.79806(15)
C16 C 0.8637(3) 0.40552(16) 0.78783(15)
H12 H 0.9409 0.4119 0.8105
C17 C 0.7967(3) 0.46667(15) 0.76171(15)
C18 C 0.8602(3) 0.53918(15) 0.76108(16)
C19 C 0.6788(3) 0.45694(16) 0.72917(15)
C20 C 0.5967(3) 0.52018(17) 0.70722(17)
C21 C 0.6317(3) 0.38590(16) 0.72166(15)
H13 H 0.5543 0.3794 0.6994
Cu1A Cu 1.53522(3) 0.143671(18) 0.818452(18)
Cu1A_2 Cu 0.53522(3) 0.143671(18) 0.818452(18)
Cu1C Cu 1.03522(3) 0.643671(18) 0.818452(18)
Cu1B Cu 0.96478(3) 0.643671(18) 0.681548(18)
Cu1_2 Cu 1.46478(3) 0.143671(18) 0.681548(18)
Cu2B Cu 0.5000 0.64890(3) 0.7500
Cu2B_2 Cu 1.5000 0.64890(3) 0.7500
N1A N 1.1954(3) 0.06983(18) 0.90238(17)
N2A N 1.3411(3) 0.13801(16) 0.95037(15)
N3A N 1.5991(2) 0.15287(14) 0.92523(13)
N4A N 1.6233(2) 0.18383(16) 1.03406(14)
H1A H 1.6062 0.1982 1.0711
O1A O 1.4203(2) 0.22845(12) 0.81117(11)
O2A O 1.3512(2) 0.21843(11) 0.69950(11)
O2A_2 O 0.3512(2) 0.21843(11) 0.69950(11)
O2_2 O 1.6488(2) 0.21843(11) 0.80050(11)
O3A O 1.11676(19) 0.22332(12) 0.75030(12)
O4A O 1.0390(2) 0.26385(13) 0.64624(12)
O5A O 1.0886(2) 0.56725(12) 0.68409(11)
O5C O 0.5886(2) 0.06725(12) 0.68409(11)
O5B O 1.4114(2) 0.06725(12) 0.81591(11)
O6A O 1.13571(19) 0.56255(11) 0.79717(11)
O6B O 0.36429(19) 0.06255(11) 0.70283(11)
O6C O 1.63571(19) 0.06255(11) 0.79717(11)
O7A O 1.3804(2) 0.57773(12) 0.75630(14)
O7B O 1.1196(2) 0.07773(12) 0.74370(14)
O7C O 0.8804(2) 0.07773(12) 0.75630(14)
O8A O 1.4881(2) 0.51064(14) 0.83990(13)
H2A H 1.5325 0.5459 0.8425
C1A C 1.2545(3) 0.1314(2) 0.89707(19)
H3A H 1.2376 0.1646 0.8615
C2A C 1.2490(5) 0.0356(3) 0.9613(3)
H4A H 1.2261 -0.0084 0.9780
C3A C 1.3397(4) 0.0774(3) 0.9901(3)
H5A H 1.3926 0.0671 1.0300
C4A C 1.4225(3) 0.20042(18) 0.96449(17)
H6A H 1.4115 0.2249 1.0051
H7A H 1.4038 0.2354 0.9278
C5A C 1.5483(3) 0.17811(18) 0.97328(16)
C6A C 1.7329(3) 0.16201(19) 1.02512(16)
C7A C 1.8412(3) 0.1572(2) 1.06914(18)
H8A H 1.8508 0.1701 1.1142
C8A C 1.9342(3) 0.1323(2) 1.04278(19)
H9A H 2.0078 0.1278 1.0708
C9A C 1.9193(3) 0.1139(2) 0.97478(19)
H10A H 1.9835 0.0976 0.9586
C10A C 1.8117(3) 0.1192(2) 0.93081(18)
H11A H 1.8030 0.1073 0.8856
C11A C 1.7171(3) 0.14292(16) 0.95679(16)
C12A C 1.3605(3) 0.25021(16) 0.75536(15)
C13A C 1.3017(3) 0.32476(16) 0.75310(15)
C14A C 1.1846(3) 0.33470(16) 0.71988(15)
C15A C 1.1068(3) 0.26906(16) 0.70194(15)
C16A C 1.1363(3) 0.40552(16) 0.71217(15)
H12A H 1.0591 0.4119 0.6895
C17A C 1.2033(3) 0.46667(15) 0.73829(15)
C18A C 1.1398(3) 0.53918(15) 0.73892(16)
C19A C 1.3212(3) 0.45694(16) 0.77083(15)
C20A C 1.4033(3) 0.52018(17) 0.79278(17)
C21A C 1.3683(3) 0.38590(16) 0.77834(15)
H13A H 1.4457 0.3794 0.8006
O9 O 0.8027(4) 0.3117(3) 0.6038(2)
H14 H 0.8718 0.2949 0.6161
H15 H 0.7828 0.2742 0.5792
loop_
_geom_bond_atom_site_label_1
_geom_bond_atom_site_label_2
_geom_bond_site_symmetry_1
_geom_bond_site_symmetry_2
Cu1 N3 1_555 1_555
Cu2 O3 1_555 1_555
N1 C1 1_555 1_555
N2 C1 1_555 1_555
N3 C5 1_555 1_555
N4 H1 1_555 1_555
O1 Cu1 1_555 1_555
O2 C12 1_555 1_555
O3 C15 1_555 1_555
O4 C15 1_555 1_555
O5 C18 1_555 1_555
O6 C18 1_555 1_555
O7 C20 1_555 1_555
O8 H2 1_555 1_555
C1 H3 1_555 1_555
C2 N1 1_555 1_555
H4 C2 1_555 1_555
C3 N2 1_555 1_555
H5 C3 1_555 1_555
C4 N2 1_555 1_555
H6 C4 1_555 1_555
H7 C4 1_555 1_555
C5 N4 1_555 1_555
C6 N4 1_555 1_555
C7 C6 1_555 1_555
H8 C7 1_555 1_555
C8 C7 1_555 1_555
H9 C8 1_555 1_555
C9 C8 1_555 1_555
H10 C9 1_555 1_555
C10 C9 1_555 1_555
H11 C10 1_555 1_555
C11 N3 1_555 1_555
C12 O1 1_555 1_555
C13 C12 1_555 1_555
C14 C13 1_555 1_555
C15 C14 1_555 1_555
C16 C14 1_555 1_555
H12 C16 1_555 1_555
C17 C16 1_555 1_555
C18 C17 1_555 1_555
C19 C17 1_555 1_555
C20 O8 1_555 1_555
C21 C13 1_555 1_555
H13 C21 1_555 1_555
O9 H14 1_555 1_555
H15 O9 1_555 1_555
Cu1A N3A 1_555 1_555
Cu1A_2 O2 1_555 1_555
Cu1C O5 1_555 1_555
Cu1B O6 1_555 1_555
Cu1_2 O2A 1_555 1_555
Cu2B O7 1_555 1_555
Cu2B_2 O7A 1_555 1_555
N1A C1A 1_555 1_555
N2A C1A 1_555 1_555
N3A C5A 1_555 1_555
N4A H1A 1_555 1_555
O1A Cu1A 1_555 1_555
O2A C12A 1_555 1_555
O2A_2 Cu1 1_555 1_555
O2_2 Cu1A 1_555 1_555
O3A Cu2 1_555 1_555
O4A C15A 1_555 1_555
O5A Cu1B 1_555 1_555
O5C Cu1 1_555 1_555
O5B Cu1A 1_555 1_555
O6A Cu1C 1_555 1_555
O6B Cu1 1_555 1_555
O6C Cu1A 1_555 1_555
O7A C20A 1_555 1_555
O7B Cu2 1_555 1_555
O7C Cu2 1_555 1_555
O8A H2A 1_555 1_555
C1A H3A 1_555 1_555
C2A N1A 1_555 1_555
H4A C2A 1_555 1_555
C3A N2A 1_555 1_555
H5A C3A 1_555 1_555
C4A N2A 1_555 1_555
H6A C4A 1_555 1_555
H7A C4A 1_555 1_555
C5A N4A 1_555 1_555
C6A N4A 1_555 1_555
C7A C6A 1_555 1_555
H8A C7A 1_555 1_555
C8A C7A 1_555 1_555
H9A C8A 1_555 1_555
C9A C8A 1_555 1_555
H10A C9A 1_555 1_555
C10A C9A 1_555 1_555
H11A C10A 1_555 1_555
C11A N3A 1_555 1_555
C12A O1A 1_555 1_555
C13A C12A 1_555 1_555
C14A C13A 1_555 1_555
C15A O3A 1_555 1_555
C16A C14A 1_555 1_555
H12A C16A 1_555 1_555
C17A C16A 1_555 1_555
C18A O5A 1_555 1_555
C19A C17A 1_555 1_555
C20A O8A 1_555 1_555
C21A C13A 1_555 1_555
H13A C21A 1_555 1_555
C2 C3 1_555 1_555
C4 C5 1_555 1_555
C6 C11 1_555 1_555
C10 C11 1_555 1_555
C19 C20 1_555 1_555
C19 C21 1_555 1_555
O6A C18A 1_555 1_555
C2A C3A 1_555 1_555
C4A C5A 1_555 1_555
C6A C11A 1_555 1_555
C10A C11A 1_555 1_555
C14A C15A 1_555 1_555
C17A C18A 1_555 1_555
C19A C20A 1_555 1_555
C19A C21A 1_555 1_555

#END
