
#######################################################################
#
#                 Cambridge Crystallographic Data Centre
#                                CCDC 
#
#######################################################################
#
# If this CIF has been generated from an entry in the Cambridge 
# Structural Database, then it will include bibliographic, chemical, 
# crystal, experimental, refinement or atomic coordinate data resulting 
# from the CCDC's data processing and validation procedures.
#
#######################################################################

data_DAYBAG
_symmetry_cell_setting           cubic
_symmetry_space_group_name_H-M   'P 21 3'
_symmetry_Int_Tables_number      198
_space_group_name_Hall           'P 2ac 2ab 3'
loop_
_symmetry_equiv_pos_site_id
_symmetry_equiv_pos_as_xyz
1 x,y,z
2 y,z,x
3 z,x,y
4 1/2+x,1/2-y,-z
5 1/2+y,1/2-z,-x
6 1/2+z,1/2-x,-y
7 -y,1/2+z,1/2-x
8 -z,1/2+x,1/2-y
9 1/2-z,-x,1/2+y
10 1/2-x,-y,1/2+z
11 1/2-y,-z,1/2+x
12 -x,1/2+y,1/2-z
_cell_length_a                   15.380(5)
_cell_length_b                   15.380(5)
_cell_length_c                   15.380(5)
_cell_angle_alpha                90
_cell_angle_beta                 90
_cell_angle_gamma                90
_cell_volume                     3638.05
loop_
_atom_site_label
_atom_site_type_symbol
_atom_site_fract_x
_atom_site_fract_y
_atom_site_fract_z
Ni1 Ni 0.87377(9) -0.37377(9) 0.37377(9)
N1 N 0.8621(5) -0.5077(5) 0.3749(6)
N2 N 0.7401(5) -0.3872(5) 0.3706(6)
C1 C 0.7803(6) -0.5376(6) 0.3758(7)
C2 C 0.7606(6) -0.6277(7) 0.3765(8)
C3 C 0.8313(9) -0.6844(8) 0.382(1)
C4 C 0.9110(8) -0.6549(9) 0.383(1)
C5 C 0.9300(7) -0.5649(7) 0.3798(9)
C6 C 0.7106(7) -0.4701(7) 0.3734(7)
C7 C 0.6216(8) -0.4885(6) 0.3721(8)
C8 C 0.5658(8) -0.4202(9) 0.366(1)
C9 C 0.5904(9) -0.3363(9) 0.364(1)
C10 C 0.6819(8) -0.3220(8) 0.3681(8)
H1 H 0.6987 -0.6502 0.3731
H2 H 0.8216 -0.7494 0.3880
H3 H 0.9608 -0.6987 0.3845
H4 H 0.9927 -0.5430 0.3789
H5 H 0.5984 -0.5504 0.3772
H6 H 0.5014 -0.4331 0.3623
H7 H 0.5465 -0.2873 0.3601
H8 H 0.7038 -0.2599 0.3670
N1E N 0.8749(6) -0.3621(5) 0.5077(5)
C1E C 0.8758(7) -0.2803(6) 0.5376(6)
C2E C 0.8765(8) -0.2606(6) 0.6277(7)
C3E C 0.882(1) -0.3313(9) 0.6844(8)
C4E C 0.883(1) -0.4110(8) 0.6549(9)
C5E C 0.8798(9) -0.4300(7) 0.5649(7)
H4E H 0.8789 -0.4927 0.5430
H3E H 0.8845 -0.4608 0.6987
H2E H 0.8880 -0.3216 0.7494
H1E H 0.8731 -0.1987 0.6502
C6E C 0.8734(7) -0.2106(7) 0.4701(7)
N2E N 0.8706(6) -0.2401(5) 0.3872(5)
N1J N 1.0077(5) -0.3749(6) 0.3621(5)
C1J C 1.0376(6) -0.3758(7) 0.2803(6)
C2J C 1.1277(7) -0.3765(8) 0.2606(6)
C3J C 1.1844(8) -0.382(1) 0.3313(9)
C4J C 1.1549(9) -0.383(1) 0.4110(8)
C5J C 1.0649(7) -0.3798(9) 0.4300(7)
H4J H 1.0430 -0.3789 0.4927
H3J H 1.1987 -0.3845 0.4608
H2J H 1.2494 -0.3880 0.3216
H1J H 1.1502 -0.3731 0.1987
C6J C 0.9701(7) -0.3734(7) 0.2106(7)
N2J N 0.8872(5) -0.3706(6) 0.2401(5)
C10J C 0.8220(8) -0.3681(8) 0.1819(8)
C9J C 0.8363(9) -0.364(1) 0.0904(9)
C8J C 0.9202(9) -0.366(1) 0.0658(8)
C7J C 0.9885(6) -0.3721(8) 0.1216(8)
H5J H 1.0504 -0.3772 0.0984
H6J H 0.9331 -0.3623 0.0014
H7J H 0.7873 -0.3601 0.0465
H8J H 0.7599 -0.3670 0.2038
C10E C 0.8681(8) -0.1819(8) 0.3220(8)
C9E C 0.864(1) -0.0904(9) 0.3363(9)
C8E C 0.866(1) -0.0658(8) 0.4202(9)
C7E C 0.8721(8) -0.1216(8) 0.4885(6)
H5E H 0.8772 -0.0984 0.5504
H6E H 0.8623 -0.0014 0.4331
H7E H 0.8601 -0.0465 0.2873
H8E H 0.8670 -0.2038 0.2599
Cr1 Cr -0.1045(1) 0.8955(1) -0.1045(1)
Li1 Li -0.1553(9) 1.1553(9) -0.3447(9)
O1 O -0.1171(4) 0.9091(4) -0.2316(5)
O2 O -0.3923(4) 1.1120(5) -0.4765(5)
O3 O -0.1367(5) 1.0113(5) -0.3316(5)
O4 O -0.2970(5) 1.1382(5) -0.3680(5)
C11 C -0.1264(7) 0.9868(6) -0.2583(8)
C12 C -0.3169(7) 1.1251(7) -0.4434(8)
O1A O -0.0909(4) 0.7684(5) -0.1171(4)
O1B O -0.2316(5) 0.8829(4) -0.0909(4)
O2I O -0.1077(4) 0.8880(5) 0.0235(5)
O3H O -0.1684(5) 1.1367(5) -0.4887(5)
C11H C -0.2417(8) 1.1264(7) -0.5132(6)
O1H O -0.2684(5) 1.1171(4) -0.5909(4)
Cr1H Cr -0.3955(1) 1.1045(1) -0.6045(1)
O3F O -0.0113(5) 1.1684(5) -0.3633(5)
C11F C 0.0132(6) 1.2417(8) -0.3736(7)
O1F O 0.0909(4) 1.2684(5) -0.3829(4)
Cr1F Cr 0.1045(1) 1.3955(1) -0.3955(1)
O2H O -0.0235(5) 1.3923(4) -0.3880(5)
C12H C -0.0566(8) 1.3169(7) -0.3749(7)
O4H O -0.1320(5) 1.2970(5) -0.3618(5)
O4F O -0.1382(5) 1.1320(5) -0.2030(5)
C12F C -0.1251(7) 1.0566(8) -0.1831(7)
O2F O -0.1120(5) 1.0235(5) -0.1077(4)
O2E O 0.0235(5) 0.8923(4) -0.1120(5)
O5 O 0.376(2) -0.876(2) 0.876(2)
loop_
_geom_bond_atom_site_label_1
_geom_bond_atom_site_label_2
_geom_bond_site_symmetry_1
_geom_bond_site_symmetry_2
Ni1 N1 1_555 1_555
N1 C1 1_555 1_555
N2 Ni1 1_555 1_555
C1 C2 1_555 1_555
C2 C3 1_555 1_555
C3 C4 1_555 1_555
C4 C5 1_555 1_555
C5 N1 1_555 1_555
C6 N2 1_555 1_555
C7 C6 1_555 1_555
C8 C7 1_555 1_555
C9 C8 1_555 1_555
C10 N2 1_555 1_555
H1 C2 1_555 1_555
H2 C3 1_555 1_555
H3 C4 1_555 1_555
H4 C5 1_555 1_555
H5 C7 1_555 1_555
H6 C8 1_555 1_555
H7 C9 1_555 1_555
H8 C10 1_555 1_555
Cr1 O1 1_555 1_555
Li1 O3 1_555 1_555
O1 C11 1_555 1_555
O2 C12 1_555 1_555
O3 C11 1_555 1_555
O4 Li1 1_555 1_555
C11 C12F 1_555 1_555
C12 O4 1_555 1_555
N1E Ni1 1_555 1_555
C1E N1E 1_555 1_555
C2E C1E 1_555 1_555
C3E C2E 1_555 1_555
C4E C3E 1_555 1_555
C5E N1E 1_555 1_555
H4E C5E 1_555 1_555
H3E C4E 1_555 1_555
H2E C3E 1_555 1_555
H1E C2E 1_555 1_555
C6E C1E 1_555 1_555
N2E Ni1 1_555 1_555
N1J Ni1 1_555 1_555
C1J N1J 1_555 1_555
C2J C1J 1_555 1_555
C3J C2J 1_555 1_555
C4J C3J 1_555 1_555
C5J N1J 1_555 1_555
H4J C5J 1_555 1_555
H3J C4J 1_555 1_555
H2J C3J 1_555 1_555
H1J C2J 1_555 1_555
C6J C1J 1_555 1_555
N2J Ni1 1_555 1_555
C10J N2J 1_555 1_555
C9J C10J 1_555 1_555
C8J C9J 1_555 1_555
C7J C6J 1_555 1_555
H5J C7J 1_555 1_555
H6J C8J 1_555 1_555
H7J C9J 1_555 1_555
H8J C10J 1_555 1_555
C10E N2E 1_555 1_555
C9E C10E 1_555 1_555
C8E C9E 1_555 1_555
C7E C6E 1_555 1_555
H5E C7E 1_555 1_555
H6E C8E 1_555 1_555
H7E C9E 1_555 1_555
H8E C10E 1_555 1_555
O1A Cr1 1_555 1_555
O1B Cr1 1_555 1_555
O2I Cr1 1_555 1_555
O3H Li1 1_555 1_555
C11H C12 1_555 1_555
O1H C11H 1_555 1_555
Cr1H O2 1_555 1_555
O3F Li1 1_555 1_555
C11F O3F 1_555 1_555
O1F C11F 1_555 1_555
Cr1F O1F 1_555 1_555
O2H Cr1F 1_555 1_555
C12H C11F 1_555 1_555
O4H Li1 1_555 1_555
O4F Li1 1_555 1_555
C12F O4F 1_555 1_555
O2F Cr1 1_555 1_555
O2E Cr1 1_555 1_555
C1 C6 1_555 1_555
C9 C10 1_555 1_555
C4E C5E 1_555 1_555
C6E N2E 1_555 1_555
C4J C5J 1_555 1_555
C6J N2J 1_555 1_555
C8J C7J 1_555 1_555
C8E C7E 1_555 1_555
O3H C11H 1_555 1_555
O1H Cr1H 1_555 1_555
O2H C12H 1_555 1_555
C12H O4H 1_555 1_555
C12F O2F 1_555 1_555

#END
