
#######################################################################
#
#                 Cambridge Crystallographic Data Centre
#                                CCDC 
#
#######################################################################
#
# If this CIF has been generated from an entry in the Cambridge 
# Structural Database, then it will include bibliographic, chemical, 
# crystal, experimental, refinement or atomic coordinate data resulting 
# from the CCDC's data processing and validation procedures.
#
#######################################################################

data_DAYCEM
_symmetry_cell_setting           monoclinic
_symmetry_space_group_name_H-M   'P 21/n'
_symmetry_Int_Tables_number      14
_space_group_name_Hall           '-P 2yn'
loop_
_symmetry_equiv_pos_site_id
_symmetry_equiv_pos_as_xyz
1 x,y,z
2 1/2-x,1/2+y,1/2-z
3 -x,-y,-z
4 1/2+x,1/2-y,1/2+z
_cell_length_a                   14.3880(10)
_cell_length_b                   16.483(2)
_cell_length_c                   26.438(3)
_cell_angle_alpha                90
_cell_angle_beta                 90.024(6)
_cell_angle_gamma                90
_cell_volume                     6269.97
loop_
_atom_site_label
_atom_site_type_symbol
_atom_site_fract_x
_atom_site_fract_y
_atom_site_fract_z
Zn1 Zn 0.22589(18) 0.13886(16) 0.49361(7)
Zn2 Zn 0.27908(18) 0.63796(15) 0.21052(7)
O1 O 0.4893(9) 0.1308(8) 0.5599(5)
O2 O 0.0155(7) 0.1531(8) 0.5972(5)
O3 O 0.5122(7) 0.6446(7) 0.1196(5)
O4 O 0.0367(9) 0.6415(9) 0.1198(6)
N1 N 0.3369(8) 0.1326(7) 0.5293(4)
N2 N 0.1039(8) 0.1434(8) 0.5213(5)
N3 N 0.4054(9) 0.6394(9) 0.1854(5)
N4 N 0.1663(8) 0.6389(9) 0.1710(5)
C1 C 0.4071(15) 0.1276(12) 0.5398(8)
C2 C 0.0577(10) 0.1470(10) 0.5591(5)
C3 C 0.4528(11) 0.6407(12) 0.1531(6)
C4 C 0.1026(11) 0.6374(11) 0.1503(6)
N11 N 0.2340(9) 0.2368(9) 0.4469(5)
N12 N 0.2679(9) 0.5381(9) 0.2574(5)
C11 C 0.1605(11) 0.2613(9) 0.4211(5)
H1 H 0.1022 0.2366 0.4278
C12 C 0.1648(11) 0.3208(10) 0.3850(7)
H2 H 0.1093 0.3364 0.3681
C13 C 0.2478(7) 0.3592(12) 0.3722(7)
C14 C 0.3231(11) 0.3335(9) 0.3981(7)
H3 H 0.3820 0.3574 0.3917
C15 C 0.3147(11) 0.2706(10) 0.4352(6)
H4 H 0.3692 0.2523 0.4521
C16 C 0.1873(10) 0.5231(9) 0.2803(6)
H5 H 0.1344 0.5539 0.2706
C17 C 0.1768(12) 0.4651(10) 0.3173(6)
H6 H 0.1185 0.4570 0.3334
C18 C 0.2528(7) 0.4192(12) 0.3303(6)
C19 C 0.3364(11) 0.4340(10) 0.3060(6)
H7 H 0.3903 0.4036 0.3145
C20 C 0.3403(10) 0.4920(9) 0.2702(6)
H8 H 0.3977 0.5006 0.2532
N13 N 0.2654(8) -0.2636(8) 0.2588(5)
N14 N 0.2309(9) 0.0406(8) 0.4452(5)
C21 C 0.1837(12) -0.2435(10) 0.2773(6)
H9 H 0.1304 -0.2700 0.2641
C22 C 0.1706(13) -0.1859(10) 0.3151(7)
H10 H 0.1111 -0.1743 0.3289
C23 C 0.2526(7) -0.1456(12) 0.3316(8)
C24 C 0.3395(13) -0.1659(11) 0.3085(7)
H11 H 0.3949 -0.1381 0.3176
C25 C 0.3412(9) -0.2248(9) 0.2737(5)
H12 H 0.3991 -0.2395 0.2592
C26 C 0.1587(13) 0.0187(11) 0.4198(7)
H13 H 0.1009 0.0438 0.4272
C27 C 0.1617(11) -0.0413(10) 0.3814(6)
H14 H 0.1064 -0.0553 0.3637
C28 C 0.2466(9) -0.0803(15) 0.3691(8)
C29 C 0.3220(11) -0.0513(10) 0.3987(6)
H15 H 0.3821 -0.0737 0.3937
C30 C 0.3103(11) 0.0074(10) 0.4338(6)
H16 H 0.3638 0.0257 0.4515
Zn2_2 Zn 0.27908(18) -0.36204(15) 0.21052(7)
N13_2 N 0.2654(8) 0.7364(8) 0.2588(5)
Zn3 Zn 0.28944(14) 0.13509(13) 0.69211(7)
Zn4 Zn 0.20899(13) 0.63438(12) 0.41173(6)
O5 O 0.0173(9) 0.1184(8) 0.7488(5)
O6 O 0.4877(8) 0.1453(8) 0.7995(5)
O7 O -0.0045(7) 0.6489(8) 0.3126(4)
O8 O 0.4701(8) 0.6261(7) 0.3403(5)
N5 N 0.1779(11) 0.1295(10) 0.7264(6)
N6 N 0.4136(8) 0.1358(8) 0.7220(5)
N7 N 0.0821(7) 0.6326(8) 0.3867(6)
N8 N 0.3169(8) 0.6335(9) 0.3732(5)
C5 C 0.0960(12) 0.1259(11) 0.7403(7)
C6 C 0.4470(11) 0.1376(12) 0.7589(7)
C7 C 0.0400(10) 0.6388(11) 0.3497(6)
C8 C 0.3918(10) 0.6335(12) 0.3544(7)
N15 N 0.2781(9) 0.2355(8) 0.6463(5)
N16 N 0.2225(10) 0.5381(8) 0.4595(4)
C31 C 0.1927(12) 0.2644(10) 0.6358(6)
H17 H 0.1405 0.2439 0.6538
C32 C 0.1801(11) 0.3213(9) 0.6006(7)
H18 H 0.1194 0.3416 0.5942
C33 C 0.2564(8) 0.3515(12) 0.5726(6)
C34 C 0.3436(11) 0.3244(10) 0.5838(6)
H19 H 0.3965 0.3448 0.5666
C35 C 0.3522(10) 0.2655(9) 0.6215(6)
H20 H 0.4124 0.2460 0.6299
C36 C 0.1512(11) 0.4907(10) 0.4728(6)
H21 H 0.0927 0.4989 0.4569
C37 C 0.1593(10) 0.4289(10) 0.5094(6)
H22 H 0.1079 0.3951 0.5173
C38 C 0.2437(8) 0.4185(12) 0.5336(7)
C39 C 0.3181(12) 0.4682(10) 0.5196(6)
H23 H 0.3767 0.4634 0.5358
C40 C 0.3045(12) 0.5239(10) 0.4820(6)
H24 H 0.3566 0.5546 0.4711
N17 N 0.2211(10) -0.2659(7) 0.4589(4)
N18 N 0.2802(9) 0.0404(8) 0.6433(4)
C41 C 0.1478(10) -0.2316(9) 0.4827(5)
H25 H 0.0867 -0.2487 0.4742
C42 C 0.1593(12) -0.1726(10) 0.5188(6)
H26 H 0.1061 -0.1510 0.5353
C43 C 0.2439(8) -0.1448(12) 0.5315(7)
C44 C 0.3184(12) -0.1810(11) 0.5060(6)
H27 H 0.3797 -0.1632 0.5133
C45 C 0.3063(12) -0.2401(10) 0.4716(6)
H28 H 0.3591 -0.2640 0.4561
C46 C 0.1980(13) 0.0253(10) 0.6230(7)
H29 H 0.1463 0.0557 0.6347
C47 C 0.1825(11) -0.0329(10) 0.5853(5)
H30 H 0.1231 -0.0396 0.5701
C48 C 0.2580(8) -0.0804(11) 0.5711(6)
C49 C 0.3418(11) -0.0677(9) 0.5929(6)
H31 H 0.3939 -0.0998 0.5836
C50 C 0.3505(10) -0.0071(9) 0.6293(5)
H32 H 0.4094 0.0008 0.6449
Zn4_2 Zn 0.20899(13) -0.36562(12) 0.41173(6)
N17_2 N 0.2211(10) 0.7341(7) 0.4589(4)
Zn5 Zn 0.29291(11) 0.63440(10) 0.60965(8)
O9 O 0.0239(9) 0.6255(9) 0.5438(6)
O10 O 0.4971(7) 0.6466(8) 0.5038(5)
N9 N 0.1793(8) 0.6328(8) 0.5699(4)
N10 N 0.4128(8) 0.6341(9) 0.5819(5)
C9 C 0.1032(11) 0.6255(10) 0.5612(7)
C10 C 0.4543(9) 0.6439(10) 0.5421(6)
N19 N 0.2813(9) 0.5368(7) 0.6580(4)
N20 N 0.2194(9) 0.2320(7) 0.8448(4)
C51 C 0.3495(10) 0.4903(10) 0.6725(6)
H33 H 0.4087 0.4976 0.6573
C52 C 0.3398(10) 0.4313(9) 0.7088(6)
H34 H 0.3928 0.4011 0.7189
C53 C 0.2551(7) 0.4149(12) 0.7308(6)
C54 C 0.1838(11) 0.4638(9) 0.7137(6)
H35 H 0.1235 0.4568 0.7276
C55 C 0.1970(11) 0.5219(9) 0.6776(6)
H36 H 0.1453 0.5525 0.6661
C56 C 0.3010(11) 0.2645(10) 0.8332(6)
H37 H 0.3535 0.2450 0.8513
C57 C 0.3171(12) 0.3240(11) 0.7974(6)
H38 H 0.3781 0.3440 0.7916
C58 C 0.2422(8) 0.3538(13) 0.7699(7)
C59 C 0.1544(12) 0.3226(11) 0.7838(7)
H39 H 0.0994 0.3421 0.7680
C60 C 0.1499(10) 0.2628(10) 0.8210(6)
H40 H 0.0899 0.2430 0.8296
Zn5A Zn 0.20709(11) 0.13440(10) 0.89035(8)
Zn5_2 Zn 0.29291(11) -0.36560(10) 0.60965(8)
O9A O 0.4761(9) 0.1255(9) 0.9562(6)
O10A O 0.0029(7) 0.1466(8) 0.9962(5)
N9A N 0.3207(8) 0.1328(8) 0.9301(4)
N10A N 0.0872(8) 0.1341(9) 0.9181(5)
C9A C 0.3968(11) 0.1255(10) 0.9388(7)
C10A C 0.0457(9) 0.1439(10) 0.9579(6)
N19A N 0.2187(9) 0.0368(7) 0.8420(4)
N20A N 0.2806(9) 0.7320(7) 0.6552(4)
N20A_2 N 0.2806(9) -0.2680(7) 0.6552(4)
C51A C 0.1505(10) -0.0097(10) 0.8275(6)
H33A H 0.0913 -0.0024 0.8427
C52A C 0.1602(10) -0.0687(9) 0.7912(6)
H34A H 0.1072 -0.0989 0.7811
C53A C 0.2449(7) -0.0851(12) 0.7692(6)
C54A C 0.3162(11) -0.0362(9) 0.7863(6)
H35A H 0.3765 -0.0432 0.7724
C55A C 0.3030(11) 0.0219(9) 0.8224(6)
H36A H 0.3547 0.0525 0.8339
C56A C 0.1990(11) -0.2355(10) 0.6668(6)
H37A H 0.1465 -0.2550 0.6487
C57A C 0.1829(12) -0.1760(11) 0.7026(6)
H38A H 0.1219 -0.1560 0.7084
C58A C 0.2578(8) -0.1462(13) 0.7301(7)
C59A C 0.3456(12) -0.1774(11) 0.7162(7)
H39A H 0.4006 -0.1579 0.7320
C60A C 0.3501(10) -0.2372(10) 0.6790(6)
H40A H 0.4101 -0.2570 0.6704
loop_
_geom_bond_atom_site_label_1
_geom_bond_atom_site_label_2
_geom_bond_site_symmetry_1
_geom_bond_site_symmetry_2
Zn1 N1 1_555 1_555
Zn2 N3 1_555 1_555
Zn3 N5 1_555 1_555
Zn4 N7 1_555 1_555
Zn5 N9 1_555 1_555
O1 C1 1_555 1_555
O2 C2 1_555 1_555
O3 C3 1_555 1_555
O4 C4 1_555 1_555
O5 C5 1_555 1_555
O6 C6 1_555 1_555
O7 C7 1_555 1_555
O8 C8 1_555 1_555
O9 C9 1_555 1_555
O10 C10 1_555 1_555
N1 C1 1_555 1_555
N2 Zn1 1_555 1_555
N3 C3 1_555 1_555
N4 Zn2 1_555 1_555
N5 C5 1_555 1_555
N6 Zn3 1_555 1_555
N7 C7 1_555 1_555
N8 Zn4 1_555 1_555
N9 C9 1_555 1_555
N10 Zn5 1_555 1_555
C2 N2 1_555 1_555
C4 N4 1_555 1_555
C6 N6 1_555 1_555
C8 N8 1_555 1_555
C10 N10 1_555 1_555
N11 Zn1 1_555 1_555
N12 Zn2 1_555 1_555
C11 N11 1_555 1_555
H1 C11 1_555 1_555
C12 C11 1_555 1_555
H2 C12 1_555 1_555
C13 C12 1_555 1_555
C14 C13 1_555 1_555
H3 C14 1_555 1_555
C15 N11 1_555 1_555
H4 C15 1_555 1_555
C16 N12 1_555 1_555
H5 C16 1_555 1_555
C17 C16 1_555 1_555
H6 C17 1_555 1_555
C18 C13 1_555 1_555
C19 C18 1_555 1_555
H7 C19 1_555 1_555
C20 N12 1_555 1_555
H8 C20 1_555 1_555
N13 C21 1_555 1_555
N14 Zn1 1_555 1_555
C21 H9 1_555 1_555
C22 C21 1_555 1_555
H10 C22 1_555 1_555
C23 C22 1_555 1_555
C24 C23 1_555 1_555
H11 C24 1_555 1_555
C25 N13 1_555 1_555
H12 C25 1_555 1_555
C26 N14 1_555 1_555
H13 C26 1_555 1_555
C27 C26 1_555 1_555
H14 C27 1_555 1_555
C28 C23 1_555 1_555
C29 C28 1_555 1_555
H15 C29 1_555 1_555
C30 N14 1_555 1_555
H16 C30 1_555 1_555
N15 Zn3 1_555 1_555
N16 Zn4 1_555 1_555
C31 N15 1_555 1_555
H17 C31 1_555 1_555
C32 C31 1_555 1_555
H18 C32 1_555 1_555
C33 C32 1_555 1_555
C34 C33 1_555 1_555
H19 C34 1_555 1_555
C35 N15 1_555 1_555
H20 C35 1_555 1_555
C36 N16 1_555 1_555
H21 C36 1_555 1_555
C37 C36 1_555 1_555
H22 C37 1_555 1_555
C38 C33 1_555 1_555
C39 C38 1_555 1_555
H23 C39 1_555 1_555
C40 N16 1_555 1_555
H24 C40 1_555 1_555
N17 C41 1_555 1_555
N18 Zn3 1_555 1_555
C41 H25 1_555 1_555
C42 C41 1_555 1_555
H26 C42 1_555 1_555
C43 C42 1_555 1_555
C44 C43 1_555 1_555
H27 C44 1_555 1_555
C45 N17 1_555 1_555
H28 C45 1_555 1_555
C46 N18 1_555 1_555
H29 C46 1_555 1_555
C47 C46 1_555 1_555
H30 C47 1_555 1_555
C48 C43 1_555 1_555
C49 C48 1_555 1_555
H31 C49 1_555 1_555
C50 N18 1_555 1_555
H32 C50 1_555 1_555
N19 Zn5 1_555 1_555
N20 C56 1_555 1_555
C51 N19 1_555 1_555
H33 C51 1_555 1_555
C52 C51 1_555 1_555
H34 C52 1_555 1_555
C53 C52 1_555 1_555
C54 C53 1_555 1_555
H35 C54 1_555 1_555
C55 N19 1_555 1_555
H36 C55 1_555 1_555
C56 H37 1_555 1_555
C57 C56 1_555 1_555
H38 C57 1_555 1_555
C58 C53 1_555 1_555
C59 C58 1_555 1_555
H39 C59 1_555 1_555
C60 N20 1_555 1_555
H40 C60 1_555 1_555
Zn2_2 N13 1_555 1_555
Zn4_2 N17 1_555 1_555
Zn5A N20 1_555 1_555
Zn5_2 N20A_2 1_555 1_555
O9A C9A 1_555 1_555
O10A C10A 1_555 1_555
N9A Zn5A 1_555 1_555
N10A Zn5A 1_555 1_555
C9A N9A 1_555 1_555
C10A N10A 1_555 1_555
N13_2 Zn2 1_555 1_555
N17_2 Zn4 1_555 1_555
N19A Zn5A 1_555 1_555
N20A Zn5 1_555 1_555
N20A_2 C56A 1_555 1_555
C51A N19A 1_555 1_555
H33A C51A 1_555 1_555
C52A C51A 1_555 1_555
H34A C52A 1_555 1_555
C53A C52A 1_555 1_555
C54A C53A 1_555 1_555
H35A C54A 1_555 1_555
C55A N19A 1_555 1_555
H36A C55A 1_555 1_555
C56A H37A 1_555 1_555
C57A C56A 1_555 1_555
H38A C57A 1_555 1_555
C58A C53A 1_555 1_555
C59A C58A 1_555 1_555
H39A C59A 1_555 1_555
C60A N20A_2 1_555 1_555
H40A C60A 1_555 1_555
C14 C15 1_555 1_555
C17 C18 1_555 1_555
C19 C20 1_555 1_555
C24 C25 1_555 1_555
C27 C28 1_555 1_555
C29 C30 1_555 1_555
C34 C35 1_555 1_555
C37 C38 1_555 1_555
C39 C40 1_555 1_555
C44 C45 1_555 1_555
C47 C48 1_555 1_555
C49 C50 1_555 1_555
C54 C55 1_555 1_555
C57 C58 1_555 1_555
C59 C60 1_555 1_555
C54A C55A 1_555 1_555
C57A C58A 1_555 1_555
C59A C60A 1_555 1_555

#END
