
#######################################################################
#
#                 Cambridge Crystallographic Data Centre
#                                CCDC 
#
#######################################################################
#
# If this CIF has been generated from an entry in the Cambridge 
# Structural Database, then it will include bibliographic, chemical, 
# crystal, experimental, refinement or atomic coordinate data resulting 
# from the CCDC's data processing and validation procedures.
#
#######################################################################

data_DAYCEN
_symmetry_cell_setting           monoclinic
_symmetry_space_group_name_H-M   'P 21/c'
_symmetry_Int_Tables_number      14
_space_group_name_Hall           '-P 2ybc'
loop_
_symmetry_equiv_pos_site_id
_symmetry_equiv_pos_as_xyz
1 x,y,z
2 -x,1/2+y,1/2-z
3 -x,-y,-z
4 x,1/2-y,1/2+z
_cell_length_a                   9.4939(19)
_cell_length_b                   20.064(4)
_cell_length_c                   12.907(3)
_cell_angle_alpha                90
_cell_angle_beta                 108.23(3)
_cell_angle_gamma                90
_cell_volume                     2335.2
loop_
_atom_site_label
_atom_site_type_symbol
_atom_site_fract_x
_atom_site_fract_y
_atom_site_fract_z
Cu1 Cu 1.07358(3) -0.015567(15) 1.19968(3)
N1 N 0.8816(3) 0.00556(12) 1.08756(19)
N2 N 0.6907(3) -0.00300(13) 0.9395(2)
N3 N 0.7131(3) 0.02758(11) 0.71438(19)
N4 N 0.4680(3) 0.03279(13) 0.6669(2)
H1 H 0.3794 0.0272 0.6697
O1 O 1.0464(2) 0.05499(9) 1.29529(16)
O2 O 1.1413(3) 0.12519(11) 1.20148(18)
O3 O 1.0477(3) 0.37114(10) 1.24755(18)
O4 O 0.9283(2) 0.39655(9) 1.36533(17)
C1 C 0.8192(3) -0.03038(15) 0.9992(2)
H2 H 0.8591 -0.0693 0.9810
C2 C 0.7869(4) 0.05843(16) 1.0824(3)
H3 H 0.8021 0.0924 1.1338
C3 C 0.6690(4) 0.05342(17) 0.9917(3)
H4 H 0.5889 0.0825 0.9692
C4 C 0.5927(3) -0.02986(17) 0.8365(2)
H5 H 0.4923 -0.0321 0.8402
H6 H 0.6237 -0.0749 0.8268
C5 C 0.5938(3) 0.01122(14) 0.7409(2)
C6 C 0.6613(3) 0.06197(14) 0.6159(2)
C7 C 0.7360(4) 0.08946(17) 0.5499(3)
H7 H 0.8387 0.0870 0.5681
C8 C 0.6509(5) 0.1209(2) 0.4555(3)
H8 H 0.6979 0.1400 0.4095
C9 C 0.4972(4) 0.12474(19) 0.4275(3)
H9 H 0.4445 0.1468 0.3637
C10 C 0.4214(4) 0.09695(18) 0.4912(3)
H10 H 0.3186 0.0991 0.4721
C11 C 0.5065(3) 0.06523(15) 0.5861(2)
C12 C 1.0851(3) 0.11353(14) 1.2733(2)
C13 C 1.0533(3) 0.16869(13) 1.3414(2)
C14 C 1.0271(3) 0.15546(14) 1.4397(2)
H11 H 1.0314 0.1118 1.4649
C15 C 0.9947(4) 0.20654(14) 1.4998(2)
H12 H 0.9797 0.1972 1.5662
C16 C 0.9843(4) 0.27160(14) 1.4625(2)
H13 H 0.9602 0.3057 1.5027
C17 C 1.0101(3) 0.28566(13) 1.3643(2)
C18 C 1.0479(3) 0.23447(13) 1.3059(2)
H14 H 1.0700 0.2442 1.2422
C19 C 0.9962(3) 0.35587(14) 1.3215(2)
Cu1B Cu 0.92642(3) 0.015567(15) 0.80032(3)
Cu1A Cu 0.92642(3) 0.484433(15) 1.30032(3)
N3B N 1.2869(3) -0.02758(11) 1.28562(19)
O4A O 1.0717(2) -0.10345(9) 1.13467(17)
O5 O 0.1734(3) 0.02746(13) 0.6545(2)
H15 H 0.1505 0.0577 0.6926
H16 H 0.1188 -0.0049 0.6605
O6 O 0.5123(19) -0.1758(6) 0.9404(13)
N5 N 0.5020(7) -0.2487(3) 0.8187(6)
C20 C 0.6033(11) -0.2107(9) 0.8990(14)
H17 H 0.7063 -0.2098 0.9186
C21 C 0.3645(10) -0.2513(8) 0.8010(17)
H18 H 0.3209 -0.2806 0.7407
H19 H 0.3229 -0.2075 0.7840
H20 H 0.3444 -0.2678 0.8648
C22 C 0.562(3) -0.2870(6) 0.7616(16)
H21 H 0.4854 -0.3118 0.7094
H22 H 0.6300 -0.3174 0.8095
H23 H 0.6139 -0.2600 0.7241
O7 O 0.3598(12) 0.1214(8) 0.8764(11)
loop_
_geom_bond_atom_site_label_1
_geom_bond_atom_site_label_2
_geom_bond_site_symmetry_1
_geom_bond_site_symmetry_2
Cu1 N1 1_555 1_555
N1 C1 1_555 1_555
N2 C1 1_555 1_555
N3 C5 1_555 1_555
N4 H1 1_555 1_555
O1 Cu1 1_555 1_555
O2 C12 1_555 1_555
O3 C19 1_555 1_555
O4 C19 1_555 1_555
C1 H2 1_555 1_555
C2 N1 1_555 1_555
H3 C2 1_555 1_555
C3 N2 1_555 1_555
H4 C3 1_555 1_555
C4 N2 1_555 1_555
H5 C4 1_555 1_555
H6 C4 1_555 1_555
C5 N4 1_555 1_555
C6 N3 1_555 1_555
C7 C6 1_555 1_555
H7 C7 1_555 1_555
C8 C7 1_555 1_555
H8 C8 1_555 1_555
C9 C8 1_555 1_555
H9 C9 1_555 1_555
C10 C9 1_555 1_555
H10 C10 1_555 1_555
C11 N4 1_555 1_555
C12 O1 1_555 1_555
C13 C12 1_555 1_555
C14 C13 1_555 1_555
H11 C14 1_555 1_555
C15 C14 1_555 1_555
H12 C15 1_555 1_555
C16 C15 1_555 1_555
H13 C16 1_555 1_555
C17 C16 1_555 1_555
C18 C13 1_555 1_555
H14 C18 1_555 1_555
C19 C17 1_555 1_555
O5 H15 1_555 1_555
H16 O5 1_555 1_555
O6 C20 1_555 1_555
N5 C20 1_555 1_555
C20 H17 1_555 1_555
C21 N5 1_555 1_555
H18 C21 1_555 1_555
H19 C21 1_555 1_555
H20 C21 1_555 1_555
C22 N5 1_555 1_555
H21 C22 1_555 1_555
H22 C22 1_555 1_555
H23 C22 1_555 1_555
Cu1B N3 1_555 1_555
Cu1A O4 1_555 1_555
N3B Cu1 1_555 1_555
O4A Cu1 1_555 1_555
C2 C3 1_555 1_555
C4 C5 1_555 1_555
C6 C11 1_555 1_555
C10 C11 1_555 1_555
C17 C18 1_555 1_555

#END
