
#######################################################################
#
#                 Cambridge Crystallographic Data Centre
#                                CCDC 
#
#######################################################################
#
# If this CIF has been generated from an entry in the Cambridge 
# Structural Database, then it will include bibliographic, chemical, 
# crystal, experimental, refinement or atomic coordinate data resulting 
# from the CCDC's data processing and validation procedures.
#
#######################################################################

data_DAYCAJ
_symmetry_cell_setting           monoclinic
_symmetry_space_group_name_H-M   'P 21/c'
_symmetry_Int_Tables_number      14
_space_group_name_Hall           '-P 2ybc'
loop_
_symmetry_equiv_pos_site_id
_symmetry_equiv_pos_as_xyz
1 x,y,z
2 -x,1/2+y,1/2-z
3 -x,-y,-z
4 x,1/2-y,1/2+z
_cell_length_a                   10.015(2)
_cell_length_b                   16.727(3)
_cell_length_c                   13.349(5)
_cell_angle_alpha                90
_cell_angle_beta                 118.27(2)
_cell_angle_gamma                90
_cell_volume                     1969.51
loop_
_atom_site_label
_atom_site_type_symbol
_atom_site_fract_x
_atom_site_fract_y
_atom_site_fract_z
Cu1 Cu -0.33940(4) -0.29970(2) 0.27660(3)
O1 O -0.6066(3) -0.28432(18) 0.3514(2)
O2 O -0.5588(2) -0.30956(12) 0.20876(19)
O3 O -1.1480(2) -0.30230(12) 0.2699(2)
O4 O -1.3132(2) -0.36971(18) 0.1208(2)
N1 N -0.3540(3) -0.18286(15) 0.2577(2)
N2 N -0.4349(3) -0.06101(14) 0.2556(2)
N3 N -0.7130(3) 0.10101(13) 0.1301(2)
N4 N -0.7194(3) -0.02153(15) 0.0664(2)
H1 H -0.6943 -0.0705 0.0648
C1 C -0.4437(3) -0.13717(17) 0.2806(2)
H2 H -0.5051 -0.1558 0.3103
C2 C -0.2839(4) -0.1318(2) 0.2161(3)
H3 H -0.2131 -0.1467 0.1932
C3 C -0.3339(4) -0.05698(19) 0.2139(3)
H4 H -0.3054 -0.0114 0.1889
C4 C -0.5237(4) 0.00466(18) 0.2667(3)
H5 H -0.4577 0.0500 0.3023
H6 H -0.5661 -0.0120 0.3153
C5 C -0.6494(3) 0.02948(17) 0.1535(3)
C6 C -0.8353(3) 0.09543(17) 0.0203(3)
C7 C -0.9449(4) 0.15107(19) -0.0464(3)
H7 H -0.9456 0.2025 -0.0201
C8 C -1.0526(4) 0.1267(2) -0.1531(3)
H8 H -1.1263 0.1629 -0.1998
C9 C -1.0542(4) 0.0495(2) -0.1932(3)
H9 H -1.1286 0.0354 -0.2657
C10 C -0.9473(4) -0.0063(2) -0.1270(3)
H10 H -0.9483 -0.0580 -0.1528
C11 C -0.8386(3) 0.01820(17) -0.0203(3)
C12 C -0.6460(3) -0.30782(18) 0.2543(3)
C13 C -0.8055(3) -0.33630(17) 0.1787(3)
C14 C -0.8444(4) -0.3702(2) 0.0733(3)
H11 H -0.7720 -0.3748 0.0487
C15 C -0.9906(4) -0.3970(2) 0.0050(3)
H12 H -1.0159 -0.4202 -0.0651
C16 C -1.0994(4) -0.3895(2) 0.0404(3)
H13 H -1.1971 -0.4084 -0.0055
C17 C -1.0634(3) -0.35398(18) 0.1437(3)
C18 C -0.9164(3) -0.32783(17) 0.2129(3)
H14 H -0.8916 -0.3044 0.2828
C19 C -1.1839(3) -0.3416(2) 0.1793(3)
Cu1_2 Cu -1.33940(4) -0.29970(2) 0.27660(3)
Cu1A Cu -0.66060(4) 0.20030(2) 0.22340(3)
O3_2 O -0.1480(2) -0.30230(12) 0.2699(2)
N3A N -0.2870(3) -0.39899(13) 0.3699(2)
O5 O -0.6806(3) -0.17995(14) 0.0236(2)
H15 H -0.6641 -0.1879 -0.0244
H16 H -0.6517 -0.2318 0.0584
O6 O 0.3888(4) -0.1129(3) 0.4433(3)
H17 H 0.3902 -0.1594 0.4183
H18 H 0.4860 -0.1140 0.4956
loop_
_geom_bond_atom_site_label_1
_geom_bond_atom_site_label_2
_geom_bond_site_symmetry_1
_geom_bond_site_symmetry_2
Cu1 O2 1_555 1_555
O1 C12 1_555 1_555
O2 C12 1_555 1_555
O3 C19 1_555 1_555
O4 C19 1_555 1_555
N1 Cu1 1_555 1_555
N2 C1 1_555 1_555
N3 C5 1_555 1_555
N4 H1 1_555 1_555
C1 N1 1_555 1_555
H2 C1 1_555 1_555
C2 N1 1_555 1_555
H3 C2 1_555 1_555
C3 N2 1_555 1_555
H4 C3 1_555 1_555
C4 N2 1_555 1_555
H5 C4 1_555 1_555
H6 C4 1_555 1_555
C5 N4 1_555 1_555
C6 N3 1_555 1_555
C7 C6 1_555 1_555
H7 C7 1_555 1_555
C8 C7 1_555 1_555
H8 C8 1_555 1_555
C9 C8 1_555 1_555
H9 C9 1_555 1_555
C10 C9 1_555 1_555
H10 C10 1_555 1_555
C11 N4 1_555 1_555
C12 C13 1_555 1_555
C13 C14 1_555 1_555
C14 H11 1_555 1_555
C15 C14 1_555 1_555
H12 C15 1_555 1_555
C16 C15 1_555 1_555
H13 C16 1_555 1_555
C17 C16 1_555 1_555
C18 C13 1_555 1_555
H14 C18 1_555 1_555
C19 C17 1_555 1_555
O5 H15 1_555 1_555
H16 O5 1_555 1_555
O6 H17 1_555 1_555
H18 O6 1_555 1_555
Cu1_2 O3 1_555 1_555
Cu1A N3 1_555 1_555
O3_2 Cu1 1_555 1_555
N3A Cu1 1_555 1_555
C2 C3 1_555 1_555
C4 C5 1_555 1_555
C6 C11 1_555 1_555
C10 C11 1_555 1_555
C17 C18 1_555 1_555

#END
