
#######################################################################
#
#                 Cambridge Crystallographic Data Centre
#                                CCDC 
#
#######################################################################
#
# If this CIF has been generated from an entry in the Cambridge 
# Structural Database, then it will include bibliographic, chemical, 
# crystal, experimental, refinement or atomic coordinate data resulting 
# from the CCDC's data processing and validation procedures.
#
#######################################################################

data_DAYCIQ
_symmetry_cell_setting           orthorhombic
_symmetry_space_group_name_H-M   'P b c a'
_symmetry_Int_Tables_number      61
_space_group_name_Hall           '-P 2ac 2ab'
loop_
_symmetry_equiv_pos_site_id
_symmetry_equiv_pos_as_xyz
1 x,y,z
2 1/2-x,-y,1/2+z
3 -x,1/2+y,1/2-z
4 1/2+x,1/2-y,-z
5 -x,-y,-z
6 1/2+x,y,1/2-z
7 x,1/2-y,1/2+z
8 1/2-x,1/2+y,z
_cell_length_a                   12.028(2)
_cell_length_b                   7.4280(15)
_cell_length_c                   22.062(4)
_cell_angle_alpha                90
_cell_angle_beta                 90
_cell_angle_gamma                90
_cell_volume                     1971.11
loop_
_atom_site_label
_atom_site_type_symbol
_atom_site_fract_x
_atom_site_fract_y
_atom_site_fract_z
Sr1 Sr 0.541419(18) 0.20534(3) 0.284183(10)
O1 O 0.36514(17) 0.3812(3) 0.30061(15)
O2 O 0.59451(13) 0.5385(2) 0.28489(8)
O3 O 0.75329(15) 0.6899(2) 0.29449(8)
O4 O 0.61093(15) 0.3958(2) 0.39427(8)
O5 O 0.48961(16) 0.0644(3) 0.65079(9)
O6 O 0.62266(17) 0.2552(3) 0.67869(8)
C1 C 0.67912(19) 0.5872(3) 0.31342(11)
C2 C 0.6956(2) 0.5210(3) 0.37786(11)
C3 C 0.6044(2) 0.3498(3) 0.45463(11)
C4 C 0.5105(2) 0.2533(4) 0.47143(12)
C5 C 0.4987(2) 0.1984(3) 0.53105(12)
C6 C 0.5782(2) 0.2395(3) 0.57445(11)
C7 C 0.6706(2) 0.3389(4) 0.55710(12)
C8 C 0.6849(2) 0.3933(4) 0.49750(12)
C9 C 0.5625(2) 0.1821(3) 0.63943(12)
H1 H 0.352(3) 0.478(4) 0.3198(19)
H2 H 0.306(2) 0.337(5) 0.2868(19)
H3 H 0.7678 0.4638 0.3814
H4 H 0.6939 0.6226 0.4055
H5 H 0.4561 0.2259 0.4429
H6 H 0.4362 0.1326 0.5422
H7 H 0.7237 0.3694 0.5859
H8 H 0.7476 0.4584 0.4863
Sr1B Sr 0.458581(18) -0.29466(3) 0.215817(10)
Sr1B_2 Sr 0.458581(18) 0.70534(3) 0.215817(10)
Sr1G Sr 0.958581(18) 0.70534(3) 0.284183(10)
Sr1D Sr 0.458581(18) -0.20534(3) 0.715817(10)
Sr1F Sr 0.541419(18) 0.29466(3) 0.784183(10)
O1B O 0.63486(17) -0.1188(3) 0.19939(15)
O2B O 0.40549(13) 0.0385(2) 0.21511(8)
O3G O 0.74671(15) 0.1899(2) 0.29449(8)
O5D O 0.51039(16) -0.0644(3) 0.34921(9)
O6F O 0.62266(17) 0.2448(3) 0.17869(8)
H1B H 0.648(3) -0.022(4) 0.1802(19)
H2B H 0.694(2) -0.163(5) 0.2132(19)
loop_
_geom_bond_atom_site_label_1
_geom_bond_atom_site_label_2
_geom_bond_site_symmetry_1
_geom_bond_site_symmetry_2
Sr1 O1 1_555 1_555
O1 H1 1_555 1_555
O2 Sr1 1_555 1_555
O3 C1 1_555 1_555
O4 Sr1 1_555 1_555
O5 C9 1_555 1_555
O6 C9 1_555 1_555
C1 O2 1_555 1_555
C2 O4 1_555 1_555
C3 O4 1_555 1_555
C4 C3 1_555 1_555
C5 C4 1_555 1_555
C6 C5 1_555 1_555
C7 C6 1_555 1_555
C8 C3 1_555 1_555
C9 C6 1_555 1_555
H2 O1 1_555 1_555
H3 C2 1_555 1_555
H4 C2 1_555 1_555
H5 C4 1_555 1_555
H6 C5 1_555 1_555
H7 C7 1_555 1_555
H8 C8 1_555 1_555
Sr1B O1B 1_555 1_555
Sr1B_2 O1 1_555 1_555
Sr1G O3 1_555 1_555
Sr1D O5 1_555 1_555
Sr1F O6 1_555 1_555
O1B Sr1 1_555 1_555
O2B Sr1 1_555 1_555
O3G Sr1 1_555 1_555
O5D Sr1 1_555 1_555
O6F Sr1 1_555 1_555
H1B O1B 1_555 1_555
H2B O1B 1_555 1_555
O2 Sr1B_2 1_555 1_555
C1 C2 1_555 1_555
C7 C8 1_555 1_555
Sr1B O2B 1_555 1_555

#END
