
#######################################################################
#
#                 Cambridge Crystallographic Data Centre
#                                CCDC 
#
#######################################################################
#
# If this CIF has been generated from an entry in the Cambridge 
# Structural Database, then it will include bibliographic, chemical, 
# crystal, experimental, refinement or atomic coordinate data resulting 
# from the CCDC's data processing and validation procedures.
#
#######################################################################

data_DAYDOX
_symmetry_cell_setting           monoclinic
_symmetry_space_group_name_H-M   'C 2/c'
_symmetry_Int_Tables_number      15
_space_group_name_Hall           '-C 2yn'
loop_
_symmetry_equiv_pos_site_id
_symmetry_equiv_pos_as_xyz
1 x,y,z
2 1/2+x,1/2+y,z
3 -x,y,1/2-z
4 1/2-x,1/2+y,1/2-z
5 -x,-y,-z
6 1/2-x,1/2-y,-z
7 x,-y,1/2+z
8 1/2+x,1/2-y,1/2+z
_cell_length_a                   18.202(8)
_cell_length_b                   5.700(2)
_cell_length_c                   18.703(9)
_cell_angle_alpha                90
_cell_angle_beta                 112.091(3)
_cell_angle_gamma                90
_cell_volume                     1798.01
loop_
_atom_site_label
_atom_site_type_symbol
_atom_site_fract_x
_atom_site_fract_y
_atom_site_fract_z
Mn1 Mn 0.0000 0.5000 0.0000
N1 N 0.08849(10) 0.7300(3) 0.01181(11)
O1 O 0.05297(9) 0.4074(3) 0.10230(8)
C1 C 0.13670(13) 0.8080(4) 0.07785(13)
H1 H 0.1752 0.9144 0.0773
C2 C 0.13578(13) 0.7442(4) 0.15201(13)
C3 C 0.17832(12) 0.8837(4) 0.21678(13)
H2 H 0.2051 1.0162 0.2105
C4 C 0.18058(13) 0.8262(4) 0.28877(13)
H3 H 0.2075 0.9214 0.3309
C5 C 0.14221(13) 0.6237(4) 0.29834(13)
H4 H 0.1449 0.5821 0.3474
C6 C 0.10030(14) 0.4843(4) 0.23607(14)
H5 H 0.0753 0.3494 0.2436
C7 C 0.09493(13) 0.5434(4) 0.16174(14)
C8 C 0.10016(13) 0.8184(4) -0.05735(12)
H6 H 0.0858 0.6970 -0.0966
H7 H 0.1557 0.8564 -0.0442
C9 C 0.05010(13) 1.0349(4) -0.08921(14)
H8 H 0.0561 1.0823 -0.1366
H9 H -0.0053 0.9968 -0.1016
O2 O 0.07193(10) 1.2272(2) -0.03563(9)
H10 H 0.1215 1.2535 -0.0190
Mn1_2 Mn 0.0000 1.5000 0.0000
Mn1_3 Mn 0.0000 -0.5000 0.0000
N1D N -0.08849(10) 0.2700(3) -0.01181(11)
O1D O -0.05297(9) 0.5926(3) -0.10230(8)
C1D C -0.13670(13) 0.1920(4) -0.07785(13)
H1D H -0.1752 0.0856 -0.0773
C2D C -0.13578(13) 0.2558(4) -0.15201(13)
C3D C -0.17832(12) 0.1163(4) -0.21678(13)
H2D H -0.2051 -0.0162 -0.2105
C4D C -0.18058(13) 0.1738(4) -0.28877(13)
H3D H -0.2075 0.0786 -0.3309
C5D C -0.14221(13) 0.3763(4) -0.29834(13)
H4D H -0.1449 0.4179 -0.3474
C6D C -0.10030(14) 0.5157(4) -0.23607(14)
H5D H -0.0753 0.6506 -0.2436
C7D C -0.09493(13) 0.4566(4) -0.16174(14)
C8D C -0.10016(13) 0.1816(4) 0.05735(12)
H6D H -0.0858 0.3030 0.0966
H7D H -0.1557 0.1436 0.0442
C9D C -0.05010(13) -0.0349(4) 0.08921(14)
H8D H -0.0561 -0.0823 0.1366
H9D H 0.0053 0.0032 0.1016
O2D O -0.07193(10) -0.2272(2) 0.03563(9)
O2_2 O 0.07193(10) 0.2272(2) -0.03563(9)
O2D_2 O -0.07193(10) 0.7728(2) 0.03563(9)
H10D H -0.1215 -0.2535 0.0190
H10_2 H 0.1215 0.2535 -0.0190
H10D_2 H -0.1215 0.7465 0.0190
Cl1 Cl 0.2500 1.2500 0.0000
loop_
_geom_bond_atom_site_label_1
_geom_bond_atom_site_label_2
_geom_bond_site_symmetry_1
_geom_bond_site_symmetry_2
Mn1 N1 1_555 1_555
N1 C1 1_555 1_555
O1 Mn1 1_555 1_555
C1 H1 1_555 1_555
C2 C1 1_555 1_555
C3 C2 1_555 1_555
H2 C3 1_555 1_555
C4 C3 1_555 1_555
H3 C4 1_555 1_555
C5 C4 1_555 1_555
H4 C5 1_555 1_555
C6 C5 1_555 1_555
H5 C6 1_555 1_555
C7 O1 1_555 1_555
C8 N1 1_555 1_555
H6 C8 1_555 1_555
H7 C8 1_555 1_555
C9 C8 1_555 1_555
H8 C9 1_555 1_555
H9 C9 1_555 1_555
O2 C9 1_555 1_555
H10 O2 1_555 1_555
Mn1_2 O2 1_555 1_555
Mn1_3 O2D 1_555 1_555
N1D Mn1 1_555 1_555
O1D Mn1 1_555 1_555
C1D N1D 1_555 1_555
H1D C1D 1_555 1_555
C2D C1D 1_555 1_555
C3D C2D 1_555 1_555
H2D C3D 1_555 1_555
C4D C3D 1_555 1_555
H3D C4D 1_555 1_555
C5D C4D 1_555 1_555
H4D C5D 1_555 1_555
C6D C5D 1_555 1_555
H5D C6D 1_555 1_555
C7D O1D 1_555 1_555
C8D N1D 1_555 1_555
H6D C8D 1_555 1_555
H7D C8D 1_555 1_555
C9D C8D 1_555 1_555
H8D C9D 1_555 1_555
H9D C9D 1_555 1_555
O2D C9D 1_555 1_555
O2_2 Mn1 1_555 1_555
O2D_2 Mn1 1_555 1_555
H10D O2D 1_555 1_555
H10_2 O2_2 1_555 1_555
H10D_2 O2D_2 1_555 1_555
C2 C7 1_555 1_555
C6 C7 1_555 1_555
C2D C7D 1_555 1_555
C6D C7D 1_555 1_555

#END
