
#######################################################################
#
#                 Cambridge Crystallographic Data Centre
#                                CCDC 
#
#######################################################################
#
# If this CIF has been generated from an entry in the Cambridge 
# Structural Database, then it will include bibliographic, chemical, 
# crystal, experimental, refinement or atomic coordinate data resulting 
# from the CCDC's data processing and validation procedures.
#
#######################################################################

data_DAYFOY
_symmetry_cell_setting           monoclinic
_symmetry_space_group_name_H-M   'P 21/n'
_symmetry_Int_Tables_number      14
_space_group_name_Hall           '-P 2yn'
loop_
_symmetry_equiv_pos_site_id
_symmetry_equiv_pos_as_xyz
1 x,y,z
2 1/2+x,1/2-y,1/2+z
3 -x,-y,-z
4 1/2-x,1/2+y,1/2-z
_cell_length_a                   11.487(1)
_cell_length_b                   21.699(2)
_cell_length_c                   16.246(2)
_cell_angle_alpha                90
_cell_angle_beta                 108.218(9)
_cell_angle_gamma                90
_cell_volume                     3846.44
loop_
_atom_site_label
_atom_site_type_symbol
_atom_site_fract_x
_atom_site_fract_y
_atom_site_fract_z
Cu1 Cu -0.66793(6) 0.25746(3) -0.06306(4)
S1 S -0.58148(13) 0.34571(7) 0.01580(9)
S2 S -0.69390(13) 0.34584(8) 0.16170(9)
S3 S -0.44731(15) 0.37103(7) 0.33717(10)
S4 S -0.38369(12) 0.24142(7) 0.40415(9)
S5 S -0.59984(12) 0.16541(7) 0.01294(9)
S6 S -0.33323(13) 0.16855(7) 0.02079(9)
S7 S -0.19516(14) 0.12303(7) 0.22833(10)
S8 S -0.10525(13) 0.24545(7) 0.31273(9)
N1 N -0.7773(4) 0.4092(2) 0.0196(3)
N2 N -0.4033(4) 0.3391(2) 0.4979(3)
N3 N -0.5000(4) 0.1020(2) -0.0869(3)
N4 N 0.0313(5) 0.1466(2) 0.3141(3)
C1 C -0.9784(7) 0.3962(4) 0.0443(5)
H1 H -1.0338(22) 0.4157(13) 0.0698(30)
H2 H -0.9567(9) 0.3561(9) 0.0695(31)
H3 H -1.0173(28) 0.3920(21) -0.0170(5)
C2 C -0.8646(6) 0.4348(3) 0.0607(4)
H4 H -0.8877(6) 0.4761(3) 0.0387(4)
H5 H -0.8245(6) 0.4379(3) 0.1227(4)
C3 C -0.7368(7) 0.4895(3) -0.0753(5)
H6 H -0.7583(38) 0.5028(12) -0.1346(6)
H7 H -0.6495(7) 0.4848(7) -0.0522(31)
H8 H -0.7636(37) 0.5197(7) -0.0420(28)
C4 C -0.7978(6) 0.4289(3) -0.0708(4)
H9 H -0.8852(6) 0.4326(3) -0.1000(4)
H10 H -0.7659(6) 0.3977(3) -0.1008(4)
C5 C -0.6907(5) 0.3703(2) 0.0589(3)
C6 C -0.5652(5) 0.2950(3) 0.1999(3)
H11 H -0.5809(5) 0.2662(3) 0.2410(3)
H12 H -0.5572(5) 0.2712(3) 0.1513(3)
C7 C -0.4456(5) 0.3281(3) 0.2429(3)
H13 H -0.4287(5) 0.3560(3) 0.2014(3)
H14 H -0.3798(5) 0.2981(3) 0.2595(3)
C8 C -0.4078(4) 0.3161(2) 0.4220(3)
C9 C -0.5608(7) 0.4195(3) 0.4927(6)
H15 H -0.5695(7) 0.4594(12) 0.5158(32)
H16 H -0.5982(13) 0.3889(15) 0.5190(30)
H17 H -0.6002(12) 0.4196(25) 0.4312(6)
C10 C -0.4233(6) 0.4045(3) 0.5123(4)
H18 H -0.3901(6) 0.4295(3) 0.4754(4)
H19 H -0.3798(6) 0.4151(3) 0.5720(4)
C11 C -0.4847(7) 0.2787(4) 0.5974(5)
H20 H -0.5265(26) 0.3136(4) 0.6111(32)
H21 H -0.4607(8) 0.2512(18) 0.6461(21)
H22 H -0.5383(22) 0.2575(20) 0.5482(12)
C12 C -0.3717(5) 0.3004(3) 0.5764(4)
H23 H -0.3200(5) 0.3238(3) 0.6250(4)
H24 H -0.3255(5) 0.2649(3) 0.5680(4)
C13 C -0.6516(6) 0.0197(3) -0.0947(5)
H25 H -0.5931(31) -0.0117(9) -0.0954(33)
H26 H -0.7324(21) 0.0060(14) -0.1272(22)
H27 H -0.6484(50) 0.0279(7) -0.0360(13)
C14 C -0.6215(6) 0.0782(3) -0.1352(4)
H28 H -0.6245(6) 0.0698(3) -0.1944(4)
H29 H -0.6828(6) 0.1093(3) -0.1366(4)
C15 C -0.3803(7) 0.1134(4) -0.1890(5)
H30 H -0.3186(38) 0.0940(15) -0.2085(25)
H31 H -0.3548(51) 0.1546(9) -0.1699(11)
H32 H -0.4560(15) 0.1150(22) -0.2358(15)
C16 C -0.3984(6) 0.0770(3) -0.1148(4)
H33 H -0.4159(6) 0.0344(3) -0.1325(4)
H34 H -0.3234(6) 0.0778(3) -0.0662(4)
C17 C -0.4839(5) 0.1421(2) -0.0237(3)
C18 C -0.3351(5) 0.2107(2) 0.1155(3)
H35 H -0.2660(5) 0.2388(2) 0.1313(3)
H36 H -0.4093(5) 0.2352(2) 0.1012(3)
C19 C -0.3293(5) 0.1709(3) 0.1927(3)
H37 H -0.4014(5) 0.1447(3) 0.1782(3)
H38 H -0.3318(5) 0.1973(3) 0.2403(3)
C20 C -0.0797(5) 0.1719(3) 0.2897(3)
C21 C 0.2058(12) 0.2069(6) 0.3445(7)
H39 H 0.2744(55) 0.2270(38) 0.3851(7)
H40 H 0.1523(28) 0.2373(32) 0.3091(50)
H41 H 0.2347(81) 0.1798(9) 0.3083(50)
C22 C 0.1428(9) 0.1732(5) 0.3889(9)
H42 H 0.1150(9) 0.1993(5) 0.4275(9)
H43 H 0.1933(9) 0.1404(5) 0.4223(9)
C23 C 0.0447(8) 0.0345(4) 0.3373(6)
H44 H 0.0846(57) -0.0016(10) 0.3248(33)
H45 H -0.0407(9) 0.0260(22) 0.3266(34)
H46 H 0.0814(58) 0.0457(13) 0.3970(6)
C24 C 0.0585(7) 0.0853(4) 0.2819(6)
H47 H 0.0035(7) 0.0788(4) 0.2236(6)
H48 H 0.1416(7) 0.0855(4) 0.2792(6)
S4A S -0.88369(12) 0.25858(7) -0.09585(9)
Cu1A Cu -0.16793(6) 0.24254(3) 0.43694(4)
S8A S -0.60525(13) 0.25455(7) -0.18727(9)
Cl1 Cl -0.1144(2) 0.43216(9) 0.74848(11)
O1 O -0.1202(7) 0.3683(3) 0.7384(5)
O2 O -0.2156(5) 0.4597(3) 0.6891(4)
O3 O -0.1180(5) 0.4426(3) 0.8313(4)
O4 O -0.0043(5) 0.4530(3) 0.7381(4)
loop_
_geom_bond_atom_site_label_1
_geom_bond_atom_site_label_2
_geom_bond_site_symmetry_1
_geom_bond_site_symmetry_2
Cu1 S1 1_555 1_555
S1 C5 1_555 1_555
S2 C5 1_555 1_555
S3 C7 1_555 1_555
S4 C8 1_555 1_555
S5 Cu1 1_555 1_555
S6 C17 1_555 1_555
S7 C19 1_555 1_555
S8 C20 1_555 1_555
N1 C2 1_555 1_555
N2 C8 1_555 1_555
N3 C14 1_555 1_555
N4 C20 1_555 1_555
C1 H1 1_555 1_555
H2 C1 1_555 1_555
H3 C1 1_555 1_555
C2 C1 1_555 1_555
H4 C2 1_555 1_555
H5 C2 1_555 1_555
C3 H6 1_555 1_555
H7 C3 1_555 1_555
H8 C3 1_555 1_555
C4 N1 1_555 1_555
H9 C4 1_555 1_555
H10 C4 1_555 1_555
C5 N1 1_555 1_555
C6 S2 1_555 1_555
H11 C6 1_555 1_555
H12 C6 1_555 1_555
C7 C6 1_555 1_555
H13 C7 1_555 1_555
H14 C7 1_555 1_555
C8 S3 1_555 1_555
C9 H15 1_555 1_555
H16 C9 1_555 1_555
H17 C9 1_555 1_555
C10 N2 1_555 1_555
H18 C10 1_555 1_555
H19 C10 1_555 1_555
C11 H20 1_555 1_555
H21 C11 1_555 1_555
H22 C11 1_555 1_555
C12 N2 1_555 1_555
H23 C12 1_555 1_555
H24 C12 1_555 1_555
C13 H25 1_555 1_555
H26 C13 1_555 1_555
H27 C13 1_555 1_555
C14 C13 1_555 1_555
H28 C14 1_555 1_555
H29 C14 1_555 1_555
C15 H30 1_555 1_555
H31 C15 1_555 1_555
H32 C15 1_555 1_555
C16 N3 1_555 1_555
H33 C16 1_555 1_555
H34 C16 1_555 1_555
C17 S5 1_555 1_555
C18 S6 1_555 1_555
H35 C18 1_555 1_555
H36 C18 1_555 1_555
C19 C18 1_555 1_555
H37 C19 1_555 1_555
H38 C19 1_555 1_555
C20 S7 1_555 1_555
C21 H39 1_555 1_555
H40 C21 1_555 1_555
H41 C21 1_555 1_555
C22 N4 1_555 1_555
H42 C22 1_555 1_555
H43 C22 1_555 1_555
C23 H44 1_555 1_555
H45 C23 1_555 1_555
H46 C23 1_555 1_555
C24 N4 1_555 1_555
H47 C24 1_555 1_555
H48 C24 1_555 1_555
Cl1 O1 1_555 1_555
O2 Cl1 1_555 1_555
O3 Cl1 1_555 1_555
O4 Cl1 1_555 1_555
S4A Cu1 1_555 1_555
Cu1A S4 1_555 1_555
S8A Cu1 1_555 1_555
S8 Cu1A 1_555 1_555
N3 C17 1_555 1_555
C3 C4 1_555 1_555
C9 C10 1_555 1_555
C11 C12 1_555 1_555
C15 C16 1_555 1_555
C21 C22 1_555 1_555
C23 C24 1_555 1_555

#END
