
#######################################################################
#
#                 Cambridge Crystallographic Data Centre
#                                CCDC 
#
#######################################################################
#
# If this CIF has been generated from an entry in the Cambridge 
# Structural Database, then it will include bibliographic, chemical, 
# crystal, experimental, refinement or atomic coordinate data resulting 
# from the CCDC's data processing and validation procedures.
#
#######################################################################

data_DAYGUH
_symmetry_cell_setting           monoclinic
_symmetry_space_group_name_H-M   'P 2/c'
_symmetry_Int_Tables_number      13
_space_group_name_Hall           '-P 2yc'
loop_
_symmetry_equiv_pos_site_id
_symmetry_equiv_pos_as_xyz
1 x,y,z
2 -x,y,1/2-z
3 -x,-y,-z
4 x,-y,1/2+z
_cell_length_a                   11.235(2)
_cell_length_b                   3.8689(11)
_cell_length_c                   14.556(2)
_cell_angle_alpha                90
_cell_angle_beta                 97.48(1)
_cell_angle_gamma                90
_cell_volume                     627.323
loop_
_atom_site_label
_atom_site_type_symbol
_atom_site_fract_x
_atom_site_fract_y
_atom_site_fract_z
K1 K 0.0000 -0.04691(12) -0.2500
S1 S -0.25527(3) 0.00276(9) -0.16950(2)
O1 O -0.04762(8) 0.5661(3) 0.11080(6)
O2 O -0.44537(9) 0.1708(3) 0.11202(7)
N1 N -0.34619(10) 0.1171(3) -0.01351(8)
N2 N -0.15306(10) 0.3073(3) -0.01472(7)
C1 C -0.24679(11) 0.3897(4) 0.12113(9)
C2 C -0.25094(11) 0.1520(3) -0.06039(8)
C3 C -0.14566(11) 0.4317(3) 0.07601(8)
C4 C -0.34981(11) 0.2271(4) 0.07741(9)
K2 K -0.5000 0.40195(13) -0.2500
H1 H -0.0972(16) 0.345(5) -0.0445(12)
H2 H -0.2452(13) 0.474(4) 0.1817(10)
H3 H -0.4044(17) 0.027(5) -0.0413(13)
K1B K 0.0000 0.04691(12) 0.2500
K1B_2 K 0.0000 1.04691(12) 0.2500
K1B_3 K 0.0000 0.04691(12) -0.7500
K1B_4 K 0.0000 1.04691(12) -0.7500
S1A S 0.25527(3) 0.00276(9) -0.33050(2)
S1_2 S -0.25527(3) 1.00276(9) -0.16950(2)
S1A_2 S -0.74473(3) 0.00276(9) -0.33050(2)
S1A_3 S -0.74473(3) 1.00276(9) -0.33050(2)
O1A O 0.04762(8) 0.5661(3) -0.61080(6)
O1B O 0.04762(8) -0.5661(3) -0.11080(6)
O1B_2 O 0.04762(8) 0.4339(3) -0.11080(6)
O1C O -0.04762(8) -0.5661(3) -0.38920(6)
O1C_2 O -0.04762(8) 0.4339(3) -0.38920(6)
O2A O 0.44537(9) 0.1708(3) -0.61202(7)
O2B O -0.55463(9) 0.8292(3) -0.11202(7)
O2B_2 O -0.55463(9) -0.1708(3) -0.11202(7)
O2C O -0.44537(9) 0.8292(3) -0.38798(7)
O2C_2 O -0.44537(9) -0.1708(3) -0.38798(7)
N1A N 0.34619(10) 0.1171(3) -0.48649(8)
N2A N 0.15306(10) 0.3073(3) -0.48528(7)
C1A C 0.24679(11) 0.3897(4) -0.62113(9)
C2A C 0.25094(11) 0.1520(3) -0.43961(8)
C3A C 0.14566(11) 0.4317(3) -0.57601(8)
C4A C 0.34981(11) 0.2271(4) -0.57741(9)
K2_2 K -0.5000 -0.59805(13) -0.2500
K2B K -0.5000 0.59805(13) 0.2500
K2B_2 K -0.5000 -0.40195(13) 0.2500
K2_3 K 0.5000 0.40195(13) -0.2500
K2_4 K 0.5000 -0.59805(13) -0.2500
K2B_3 K 0.5000 0.59805(13) -0.7500
K2B_4 K 0.5000 -0.40195(13) -0.7500
H1A H 0.0972(16) 0.345(5) -0.4555(12)
H2A H 0.2452(13) 0.474(4) -0.6817(10)
H3A H 0.4044(17) 0.027(5) -0.4587(13)
loop_
_geom_bond_atom_site_label_1
_geom_bond_atom_site_label_2
_geom_bond_site_symmetry_1
_geom_bond_site_symmetry_2
K1 S1 1_555 1_555
S1 C2 1_555 1_555
O1 C3 1_555 1_555
O2 C4 1_555 1_555
N1 C2 1_555 1_555
N2 C2 1_555 1_555
C1 C3 1_555 1_555
C3 N2 1_555 1_555
C4 N1 1_555 1_555
K2 S1 1_555 1_555
H1 N2 1_555 1_555
H2 C1 1_555 1_555
H3 N1 1_555 1_555
K1B O1 1_555 1_555
K1B_2 O1 1_555 1_555
K1B_3 O1A 1_555 1_555
K1B_4 O1A 1_555 1_555
S1A K1 1_555 1_555
S1_2 K2 1_555 1_555
S1A_2 K2 1_555 1_555
S1A_3 K2 1_555 1_555
O1A C3A 1_555 1_555
O1B K1 1_555 1_555
O1B_2 K1 1_555 1_555
O1C K1 1_555 1_555
O1C_2 K1 1_555 1_555
O2A C4A 1_555 1_555
O2B K2 1_555 1_555
O2B_2 K2 1_555 1_555
O2C K2 1_555 1_555
O2C_2 K2 1_555 1_555
N1A C2A 1_555 1_555
N2A C2A 1_555 1_555
C1A C3A 1_555 1_555
C2A S1A 1_555 1_555
C3A N2A 1_555 1_555
C4A N1A 1_555 1_555
K2_2 S1 1_555 1_555
K2B O2 1_555 1_555
K2B_2 O2 1_555 1_555
K2_3 S1A 1_555 1_555
K2_4 S1A 1_555 1_555
K2B_3 O2A 1_555 1_555
K2B_4 O2A 1_555 1_555
H1A N2A 1_555 1_555
H2A C1A 1_555 1_555
H3A N1A 1_555 1_555
C1 C4 1_555 1_555
S1A_2 K2_2 1_555 1_555
O2B_2 K2_2 1_555 1_555
O2C_2 K2_2 1_555 1_555
C1A C4A 1_555 1_555

#END
