
#######################################################################
#
#                 Cambridge Crystallographic Data Centre
#                                CCDC 
#
#######################################################################
#
# If this CIF has been generated from an entry in the Cambridge 
# Structural Database, then it will include bibliographic, chemical, 
# crystal, experimental, refinement or atomic coordinate data resulting 
# from the CCDC's data processing and validation procedures.
#
#######################################################################

data_DAYJOE
_symmetry_cell_setting           triclinic
_symmetry_space_group_name_H-M   'P -1'
_symmetry_Int_Tables_number      2
_space_group_name_Hall           '-P 1'
loop_
_symmetry_equiv_pos_site_id
_symmetry_equiv_pos_as_xyz
1 x,y,z
2 -x,-y,-z
_cell_length_a                   9.2599(19)
_cell_length_b                   10.205(2)
_cell_length_c                   12.238(2)
_cell_angle_alpha                89.41(3)
_cell_angle_beta                 85.73(3)
_cell_angle_gamma                81.99(3)
_cell_volume                     1142
loop_
_atom_site_label
_atom_site_type_symbol
_atom_site_fract_x
_atom_site_fract_y
_atom_site_fract_z
Ag1 Ag 0.23434(5) 0.29974(4) -0.17715(3)
C1 C 0.1492(6) 0.0628(5) -0.3557(4)
C2 C 0.2717(6) 0.0431(6) -0.4318(4)
H1 H 0.3400 0.1020 -0.4383
C3 C 0.2845(6) -0.0674(7) -0.4957(5)
H2 H 0.3638 -0.0835 -0.5473
C4 C 0.1828(7) -0.1579(6) -0.4865(5)
H3 H 0.1968 -0.2316 -0.5322
C5 C 0.0633(6) -0.1406(5) -0.4121(4)
H4 H -0.0039 -0.2005 -0.4052
C6 C 0.0493(5) -0.0269(5) -0.3474(4)
C7 C -0.1933(5) -0.0164(5) -0.2308(4)
H5 H -0.2719 0.0494 -0.2528
H6 H -0.2017 -0.0989 -0.2669
C8 C -0.2897(5) 0.0565(5) -0.0402(4)
C9 C -0.3363(6) 0.1928(5) -0.0515(5)
H7 H -0.3148 0.2392 -0.1150
C10 C -0.4163(6) 0.2528(6) 0.0389(5)
H8 H -0.4495 0.3430 0.0357
C11 C -0.4496(6) 0.1839(6) 0.1347(5)
H9 H -0.5056 0.2286 0.1926
C12 C -0.4008(6) 0.0503(6) 0.1447(4)
H10 H -0.4209 0.0044 0.2088
C13 C -0.3200(5) -0.0126(5) 0.0547(4)
C14 C -0.1927(5) -0.1539(5) -0.0587(4)
C15 C -0.1044(5) -0.2744(5) -0.1034(4)
C16 C 0.0424(6) -0.2730(5) -0.1378(5)
H11 H 0.0828 -0.1944 -0.1395
C17 C 0.1259(6) -0.3902(5) -0.1689(5)
H12 H 0.2240 -0.3886 -0.1906
C18 C -0.0652(6) -0.5054(6) -0.1402(6)
H13 H -0.1031 -0.5850 -0.1420
C19 C -0.1579(6) -0.3936(5) -0.1068(5)
H14 H -0.2559 -0.3984 -0.0866
N1 N -0.2575(5) -0.1457(4) 0.0427(3)
N2 N -0.2111(4) -0.0350(4) -0.1128(3)
N3 N 0.0755(5) -0.5058(4) -0.1701(4)
N4 N -0.0542(5) 0.0257(4) -0.2674(3)
N5 N -0.0200(5) 0.1420(4) -0.2306(4)
N6 N 0.1032(5) 0.1631(5) -0.2830(4)
N7 N 0.5314(6) 0.3431(6) -0.2698(4)
O1 O 0.4783(6) 0.2439(6) -0.2919(4)
O2 O 0.4547(6) 0.4295(5) -0.2118(6)
O3 O 0.6580(5) 0.3540(6) -0.3007(5)
Ag1A Ag -0.23434(5) -0.29974(4) 0.17715(3)
Ag1_2 Ag 0.23434(5) -0.70026(4) -0.17715(3)
N1A N 0.2575(5) 0.1457(4) -0.0427(3)
N3_2 N 0.0755(5) 0.4942(4) -0.1701(4)
C20 C 0.4607(11) 0.3444(9) 0.4241(7)
H15 H 0.5123 0.2640 0.3926
H16 H 0.4808 0.3493 0.4997
H17 H 0.4921 0.4188 0.3851
C21 C 0.3017(10) 0.3464(7) 0.4163(6)
C22 C 0.2093(14) 0.4352(12) 0.4942(14)
H18 H 0.1083 0.4301 0.4845
H19 H 0.2285 0.5244 0.4815
H20 H 0.2304 0.4095 0.5676
O4 O 0.2579(9) 0.2772(8) 0.3551(6)
loop_
_geom_bond_atom_site_label_1
_geom_bond_atom_site_label_2
_geom_bond_site_symmetry_1
_geom_bond_site_symmetry_2
Ag1 N6 1_555 1_555
C1 C2 1_555 1_555
C2 H1 1_555 1_555
C3 C2 1_555 1_555
H2 C3 1_555 1_555
C4 C3 1_555 1_555
H3 C4 1_555 1_555
C5 C4 1_555 1_555
H4 C5 1_555 1_555
C6 C1 1_555 1_555
C7 H5 1_555 1_555
H6 C7 1_555 1_555
C8 C9 1_555 1_555
C9 H7 1_555 1_555
C10 C9 1_555 1_555
H8 C10 1_555 1_555
C11 C10 1_555 1_555
H9 C11 1_555 1_555
C12 C11 1_555 1_555
H10 C12 1_555 1_555
C13 C8 1_555 1_555
C14 C15 1_555 1_555
C15 C16 1_555 1_555
C16 H11 1_555 1_555
C17 C16 1_555 1_555
H12 C17 1_555 1_555
C18 H13 1_555 1_555
C19 C15 1_555 1_555
H14 C19 1_555 1_555
C20 H15 1_555 1_555
H16 C20 1_555 1_555
H17 C20 1_555 1_555
C21 C20 1_555 1_555
C22 C21 1_555 1_555
H18 C22 1_555 1_555
H19 C22 1_555 1_555
H20 C22 1_555 1_555
N1 C13 1_555 1_555
N2 C7 1_555 1_555
N3 C17 1_555 1_555
N4 C6 1_555 1_555
N5 N4 1_555 1_555
N6 C1 1_555 1_555
N7 O1 1_555 1_555
O1 Ag1 1_555 1_555
O2 Ag1 1_555 1_555
O3 N7 1_555 1_555
O4 C21 1_555 1_555
Ag1A N1 1_555 1_555
Ag1_2 N3 1_555 1_555
N1A Ag1 1_555 1_555
N3_2 Ag1 1_555 1_555
C5 C6 1_555 1_555
C7 N4 1_555 1_555
C8 N2 1_555 1_555
C12 C13 1_555 1_555
C14 N1 1_555 1_555
C14 N2 1_555 1_555
C18 C19 1_555 1_555
C18 N3 1_555 1_555
N5 N6 1_555 1_555
N7 O2 1_555 1_555

#END
