
#######################################################################
#
#                 Cambridge Crystallographic Data Centre
#                                CCDC 
#
#######################################################################
#
# If this CIF has been generated from an entry in the Cambridge 
# Structural Database, then it will include bibliographic, chemical, 
# crystal, experimental, refinement or atomic coordinate data resulting 
# from the CCDC's data processing and validation procedures.
#
#######################################################################

data_DAYKEV
_symmetry_cell_setting           monoclinic
_symmetry_space_group_name_H-M   'P 21/c'
_symmetry_Int_Tables_number      14
_space_group_name_Hall           '-P 2ybc'
loop_
_symmetry_equiv_pos_site_id
_symmetry_equiv_pos_as_xyz
1 x,y,z
2 -x,1/2+y,1/2-z
3 -x,-y,-z
4 x,1/2-y,1/2+z
_cell_length_a                   9.2521(5)
_cell_length_b                   13.8933(8)
_cell_length_c                   11.8460(9)
_cell_angle_alpha                90
_cell_angle_beta                 90.801(7)
_cell_angle_gamma                90
_cell_volume                     1522.56
loop_
_atom_site_label
_atom_site_type_symbol
_atom_site_fract_x
_atom_site_fract_y
_atom_site_fract_z
Nd1 Nd 0.27404(2) 0.133420(16) 0.048795(19)
O1 O 0.4151(4) 0.0296(3) 0.1716(3)
O2 O 0.5983(4) -0.0423(3) 0.0859(3)
O3 O 0.6910(4) -0.2389(2) 0.1029(3)
O4 O 0.7631(4) -0.3099(2) 0.2600(3)
O5 O 0.0542(4) 0.2424(3) 0.0483(4)
O6 O 0.0974(4) 0.0219(3) 0.1244(3)
O7 O -0.0933(4) -0.0730(3) 0.0940(3)
N1 N 0.5432(5) -0.2317(3) 0.3779(4)
N2 N 0.4249(5) -0.0966(3) 0.3488(4)
H1 H 0.3672 -0.0492 0.3601
C1 C 0.3117(6) -0.2773(4) 0.5516(5)
H2 H 0.3356 -0.3297 0.5066
C2 C 0.2278(7) -0.2910(5) 0.6458(6)
H3 H 0.1934 -0.3521 0.6629
C3 C 0.1946(7) -0.2133(6) 0.7154(6)
H4 H 0.1386 -0.2218 0.7792
C4 C 0.2470(9) -0.1231(5) 0.6872(6)
H5 H 0.2274 -0.0706 0.7332
C5 C 0.3279(8) -0.1107(5) 0.5917(6)
H6 H 0.3610 -0.0495 0.5732
C6 C 0.3603(6) -0.1868(4) 0.5235(5)
C7 C 0.4444(6) -0.1724(4) 0.4189(4)
C8 C 0.5094(5) -0.0353(3) 0.1639(4)
C9 C 0.5116(5) -0.1073(4) 0.2571(4)
C10 C 0.5853(5) -0.1920(3) 0.2756(4)
C11 C 0.6884(5) -0.2495(3) 0.2081(4)
C12 C -0.0001(5) -0.0134(3) 0.0633(4)
H7 H 0.0336 0.2921 0.0871
H8 H 0.1263 0.2424 0.0050
Nd1B Nd 0.72596(2) -0.133420(16) -0.048795(19)
Nd1A Nd 0.72596(2) -0.366580(16) 0.451205(19)
Nd1B_2 Nd -0.27404(2) -0.133420(16) -0.048795(19)
Nd1C Nd 0.27404(2) 0.366580(16) -0.451205(19)
O1B O 0.5849(4) -0.0296(3) -0.1716(3)
O2B O 0.4017(4) 0.0423(3) -0.0859(3)
O3B O 0.3090(4) 0.2389(2) -0.1029(3)
O4B O 0.2369(4) 0.3099(2) -0.2600(3)
O4A O 0.2369(4) 0.1901(2) 0.2400(3)
O4C O 0.7631(4) -0.1901(2) -0.2400(3)
O5B O 0.9458(4) -0.2424(3) -0.0483(4)
O6B O -0.0974(4) -0.0219(3) -0.1244(3)
O6B_2 O 0.9026(4) -0.0219(3) -0.1244(3)
O7B O 0.0933(4) 0.0730(3) -0.0940(3)
O7_2 O 0.9067(4) -0.0730(3) 0.0940(3)
N1B N 0.4568(5) 0.2317(3) -0.3779(4)
N1A N 0.4568(5) 0.2683(3) 0.1221(4)
N1C N 0.5432(5) -0.2683(3) -0.1221(4)
N2B N 0.5751(5) 0.0966(3) -0.3488(4)
H1B H 0.6328 0.0492 -0.3601
C1B C 0.6883(6) 0.2773(4) -0.5516(5)
H2B H 0.6644 0.3297 -0.5066
C2B C 0.7722(7) 0.2910(5) -0.6458(6)
H3B H 0.8066 0.3521 -0.6629
C3B C 0.8054(7) 0.2133(6) -0.7154(6)
H4B H 0.8614 0.2218 -0.7792
C4B C 0.7530(9) 0.1231(5) -0.6872(6)
H5B H 0.7726 0.0706 -0.7332
C5B C 0.6721(8) 0.1107(5) -0.5917(6)
H6B H 0.6390 0.0495 -0.5732
C6B C 0.6397(6) 0.1868(4) -0.5235(5)
C7B C 0.5556(6) 0.1724(4) -0.4189(4)
C8B C 0.4906(5) 0.0353(3) -0.1639(4)
C9B C 0.4884(5) 0.1073(4) -0.2571(4)
C10B C 0.4147(5) 0.1920(3) -0.2756(4)
C11B C 0.3116(5) 0.2495(3) -0.2081(4)
C12B C 0.0001(5) 0.0134(3) -0.0633(4)
H7B H 0.9664 -0.2921 -0.0871
H8B H 0.8737 -0.2424 -0.0050
O8 O 0.0486(7) 0.4110(4) 0.1567(5)
H11 H -0.033(6) 0.435(7) 0.138(8)
H12 H 0.054(11) 0.435(8) 0.222(5)
O9 O 0.1875(5) 0.0382(3) 0.3970(4)
H9 H 0.1961 0.0825 0.3544
H10 H 0.1531 0.0509 0.4615
loop_
_geom_bond_atom_site_label_1
_geom_bond_atom_site_label_2
_geom_bond_site_symmetry_1
_geom_bond_site_symmetry_2
Nd1 O1 1_555 1_555
O1 C8 1_555 1_555
O2 C8 1_555 1_555
O3 C11 1_555 1_555
O4 C11 1_555 1_555
O5 Nd1 1_555 1_555
O6 Nd1 1_555 1_555
O7 C12 1_555 1_555
N1 C7 1_555 1_555
N2 H1 1_555 1_555
C1 H2 1_555 1_555
C2 C1 1_555 1_555
H3 C2 1_555 1_555
C3 C2 1_555 1_555
H4 C3 1_555 1_555
C4 C3 1_555 1_555
H5 C4 1_555 1_555
C5 C4 1_555 1_555
H6 C5 1_555 1_555
C6 C1 1_555 1_555
C7 N2 1_555 1_555
C8 C9 1_555 1_555
C9 N2 1_555 1_555
C10 N1 1_555 1_555
C11 C10 1_555 1_555
C12 O6 1_555 1_555
H7 O5 1_555 1_555
H8 O5 1_555 1_555
O8 H11 1_555 1_555
O9 H9 1_555 1_555
H10 O9 1_555 1_555
H12 O8 1_555 1_555
Nd1B O2 1_555 1_555
Nd1A O4 1_555 1_555
Nd1B_2 O7 1_555 1_555
Nd1C O4B 1_555 1_555
O1B Nd1B 1_555 1_555
O2B Nd1 1_555 1_555
O3B Nd1 1_555 1_555
O4B C11B 1_555 1_555
O4A Nd1 1_555 1_555
O4C Nd1B 1_555 1_555
O5B Nd1B 1_555 1_555
O6B Nd1B_2 1_555 1_555
O6B_2 Nd1B 1_555 1_555
O7B Nd1 1_555 1_555
O7_2 Nd1B 1_555 1_555
N1B Nd1C 1_555 1_555
N1A Nd1 1_555 1_555
N1C Nd1B 1_555 1_555
N2B H1B 1_555 1_555
C1B H2B 1_555 1_555
C2B C1B 1_555 1_555
H3B C2B 1_555 1_555
C3B C2B 1_555 1_555
H4B C3B 1_555 1_555
C4B C3B 1_555 1_555
H5B C4B 1_555 1_555
C5B C4B 1_555 1_555
H6B C5B 1_555 1_555
C6B C1B 1_555 1_555
C7B N1B 1_555 1_555
C8B O1B 1_555 1_555
C9B N2B 1_555 1_555
C10B N1B 1_555 1_555
C11B O3B 1_555 1_555
C12B C12 1_555 1_555
H7B O5B 1_555 1_555
H8B O5B 1_555 1_555
O3 Nd1B 1_555 1_555
N1 Nd1A 1_555 1_555
C5 C6 1_555 1_555
C6 C7 1_555 1_555
C9 C10 1_555 1_555
O2B C8B 1_555 1_555
O6B C12B 1_555 1_555
O7B C12B 1_555 1_555
N2B C7B 1_555 1_555
C5B C6B 1_555 1_555
C6B C7B 1_555 1_555
C8B C9B 1_555 1_555
C9B C10B 1_555 1_555
C10B C11B 1_555 1_555

#END
