
#######################################################################
#
#                 Cambridge Crystallographic Data Centre
#                                CCDC 
#
#######################################################################
#
# If this CIF has been generated from an entry in the Cambridge 
# Structural Database, then it will include bibliographic, chemical, 
# crystal, experimental, refinement or atomic coordinate data resulting 
# from the CCDC's data processing and validation procedures.
#
#######################################################################

data_DAYKIZ
_symmetry_cell_setting           monoclinic
_symmetry_space_group_name_H-M   'P 21/c'
_symmetry_Int_Tables_number      14
_space_group_name_Hall           '-P 2ybc'
loop_
_symmetry_equiv_pos_site_id
_symmetry_equiv_pos_as_xyz
1 x,y,z
2 -x,1/2+y,1/2-z
3 -x,-y,-z
4 x,1/2-y,1/2+z
_cell_length_a                   9.1948(3)
_cell_length_b                   13.9029(6)
_cell_length_c                   11.7227(4)
_cell_angle_alpha                90
_cell_angle_beta                 91.004(3)
_cell_angle_gamma                90
_cell_volume                     1498.33
loop_
_atom_site_label
_atom_site_type_symbol
_atom_site_fract_x
_atom_site_fract_y
_atom_site_fract_z
Sm1 Sm 0.22676(2) -0.132280(14) -0.549480(15)
O1 O 0.2632(3) -0.3127(2) -0.2407(2)
O2 O 0.1967(3) -0.2380(2) -0.3985(2)
O3 O 0.0982(3) -0.0437(2) -0.4159(2)
O4 O -0.0856(3) 0.0288(2) -0.3282(2)
O5 O 0.4014(3) -0.0217(2) -0.6253(2)
O6 O 0.5959(3) 0.0716(2) -0.5952(2)
O7 O 0.4451(3) -0.2403(2) -0.5480(2)
N1 N 0.0470(4) -0.2330(3) -0.1209(3)
N2 N -0.0732(4) -0.0973(3) -0.1496(3)
H3 H -0.1305 -0.0497 -0.1376
C1 C 0.1894(4) -0.2502(3) -0.2931(3)
C2 C 0.0861(4) -0.1933(3) -0.2244(3)
C3 C 0.0140(4) -0.1089(3) -0.2436(3)
C4 C 0.0083(5) -0.0363(3) -0.3371(3)
C5 C -0.0527(5) -0.1741(3) -0.0794(3)
C6 C -0.1378(5) -0.1885(3) 0.0255(3)
C7 C -0.1686(6) -0.1114(4) 0.0955(4)
H4 H -0.1331 -0.0506 0.0785
C8 C -0.2523(6) -0.1249(4) 0.1908(4)
H5 H -0.2729 -0.0729 0.2377
C9 C -0.3055(6) -0.2140(4) 0.2169(4)
H6 H -0.3630 -0.2222 0.2806
C10 C -0.2736(5) -0.2920(4) 0.1485(4)
H7 H -0.3085 -0.3528 0.1663
C11 C -0.1886(5) -0.2784(3) 0.0528(4)
H8 H -0.1660 -0.3307 0.0069
C12 C 0.4994(5) 0.0142(3) -0.5640(3)
H9 H 0.4472 -0.2936 -0.5838
H10 H 0.4326 -0.1811 -0.5699
Sm1C Sm 0.22676(2) -0.367720(14) -0.049480(15)
Sm1A Sm -0.22676(2) 0.367720(14) -0.950520(15)
Sm1B Sm 0.77324(2) 0.132280(14) -0.450520(15)
Sm1B_2 Sm -0.22676(2) 0.132280(14) -0.450520(15)
O1C O 0.2632(3) -0.1873(2) -0.7407(2)
O1B O -0.2632(3) 0.3127(2) -0.7593(2)
O1A O -0.2632(3) 0.1873(2) -0.2593(2)
O2B O -0.1967(3) 0.2380(2) -0.6015(2)
O3B O -0.0982(3) 0.0437(2) -0.5841(2)
O4B O 0.0856(3) -0.0288(2) -0.6718(2)
O5B O 0.5986(3) 0.0217(2) -0.3747(2)
O5B_2 O -0.4014(3) 0.0217(2) -0.3747(2)
O6B O 0.4041(3) -0.0716(2) -0.4048(2)
O6_2 O -0.4041(3) 0.0716(2) -0.5952(2)
O7B O -0.4451(3) 0.2403(2) -0.4520(2)
N1C N 0.0470(4) -0.2670(3) -0.6209(3)
N1B N -0.0470(4) 0.2330(3) -0.8791(3)
N1A N -0.0470(4) 0.2670(3) -0.3791(3)
N2B N 0.0732(4) 0.0973(3) -0.8504(3)
H3B H 0.1305 0.0497 -0.8624
C1B C -0.1894(4) 0.2502(3) -0.7069(3)
C2B C -0.0861(4) 0.1933(3) -0.7756(3)
C3B C -0.0140(4) 0.1089(3) -0.7564(3)
C4B C -0.0083(5) 0.0363(3) -0.6629(3)
C5B C 0.0527(5) 0.1741(3) -0.9206(3)
C6B C 0.1378(5) 0.1885(3) -1.0255(3)
C7B C 0.1686(6) 0.1114(4) -1.0955(4)
H4B H 0.1331 0.0506 -1.0785
C8B C 0.2523(6) 0.1249(4) -1.1908(4)
H5B H 0.2729 0.0729 -1.2377
C9B C 0.3055(6) 0.2140(4) -1.2169(4)
H6B H 0.3630 0.2222 -1.2806
C10B C 0.2736(5) 0.2920(4) -1.1485(4)
H7B H 0.3085 0.3528 -1.1663
C11B C 0.1886(5) 0.2784(3) -1.0528(4)
H8B H 0.1660 0.3307 -1.0069
C12B C 0.5006(5) -0.0142(3) -0.4360(3)
H9B H -0.4472 0.2936 -0.4162
H10B H -0.4326 0.1811 -0.4301
O8 O 0.6866(4) -0.5360(2) -0.6004(3)
H1 H 0.685(7) -0.559(3) -0.5331(16)
H2 H 0.697(7) -0.582(2) -0.646(3)
O9 O 0.4471(5) -0.4115(3) -0.6536(3)
H11 H 0.431(5) -0.408(3) -0.7246(12)
H12 H 0.522(3) -0.446(3) -0.641(3)
loop_
_geom_bond_atom_site_label_1
_geom_bond_atom_site_label_2
_geom_bond_site_symmetry_1
_geom_bond_site_symmetry_2
Sm1 O2 1_555 1_555
O1 C1 1_555 1_555
O2 C1 1_555 1_555
O3 Sm1 1_555 1_555
O4 C4 1_555 1_555
O5 Sm1 1_555 1_555
O6 C12 1_555 1_555
O7 Sm1 1_555 1_555
O8 H1 1_555 1_555
H2 O8 1_555 1_555
O9 H11 1_555 1_555
N1 C2 1_555 1_555
N2 H3 1_555 1_555
C1 C2 1_555 1_555
C2 C3 1_555 1_555
C3 N2 1_555 1_555
C4 O3 1_555 1_555
C5 N1 1_555 1_555
C6 C5 1_555 1_555
C7 C6 1_555 1_555
H4 C7 1_555 1_555
C8 C7 1_555 1_555
H5 C8 1_555 1_555
C9 C8 1_555 1_555
H6 C9 1_555 1_555
C10 C9 1_555 1_555
H7 C10 1_555 1_555
C11 C6 1_555 1_555
H8 C11 1_555 1_555
C12 O5 1_555 1_555
H9 O7 1_555 1_555
H10 O7 1_555 1_555
H12 O9 1_555 1_555
Sm1C O1 1_555 1_555
Sm1A O1B 1_555 1_555
Sm1B O6 1_555 1_555
Sm1B_2 O4 1_555 1_555
O1C Sm1 1_555 1_555
O1B C1B 1_555 1_555
O1A Sm1B_2 1_555 1_555
O2B Sm1B_2 1_555 1_555
O3B Sm1B_2 1_555 1_555
O4B Sm1 1_555 1_555
O5B Sm1B 1_555 1_555
O5B_2 Sm1B_2 1_555 1_555
O6B Sm1 1_555 1_555
O6_2 Sm1B_2 1_555 1_555
O7B Sm1B_2 1_555 1_555
N1C Sm1 1_555 1_555
N1B Sm1A 1_555 1_555
N1A Sm1B_2 1_555 1_555
N2B H3B 1_555 1_555
C1B O2B 1_555 1_555
C2B N1B 1_555 1_555
C3B N2B 1_555 1_555
C4B O3B 1_555 1_555
C5B N1B 1_555 1_555
C6B C5B 1_555 1_555
C7B C6B 1_555 1_555
H4B C7B 1_555 1_555
C8B C7B 1_555 1_555
H5B C8B 1_555 1_555
C9B C8B 1_555 1_555
H6B C9B 1_555 1_555
C10B C9B 1_555 1_555
H7B C10B 1_555 1_555
C11B C6B 1_555 1_555
H8B C11B 1_555 1_555
C12B C12 1_555 1_555
H9B O7B 1_555 1_555
H10B O7B 1_555 1_555
N1 Sm1C 1_555 1_555
N2 C5 1_555 1_555
C3 C4 1_555 1_555
C10 C11 1_555 1_555
O4B C4B 1_555 1_555
O5B C12B 1_555 1_555
O6B C12B 1_555 1_555
N2B C5B 1_555 1_555
C1B C2B 1_555 1_555
C2B C3B 1_555 1_555
C3B C4B 1_555 1_555
C10B C11B 1_555 1_555

#END
