
#######################################################################
#
#                 Cambridge Crystallographic Data Centre
#                                CCDC 
#
#######################################################################
#
# If this CIF has been generated from an entry in the Cambridge 
# Structural Database, then it will include bibliographic, chemical, 
# crystal, experimental, refinement or atomic coordinate data resulting 
# from the CCDC's data processing and validation procedures.
#
#######################################################################

data_DAYKOF
_symmetry_cell_setting           monoclinic
_symmetry_space_group_name_H-M   'P 21/c'
_symmetry_Int_Tables_number      14
_space_group_name_Hall           '-P 2ybc'
loop_
_symmetry_equiv_pos_site_id
_symmetry_equiv_pos_as_xyz
1 x,y,z
2 -x,1/2+y,1/2-z
3 -x,-y,-z
4 x,1/2-y,1/2+z
_cell_length_a                   9.1449(13)
_cell_length_b                   13.8080(19)
_cell_length_c                   11.6090(16)
_cell_angle_alpha                90
_cell_angle_beta                 91.424(2)
_cell_angle_gamma                90
_cell_volume                     1465.45
loop_
_atom_site_label
_atom_site_type_symbol
_atom_site_fract_x
_atom_site_fract_y
_atom_site_fract_z
Tb1 Tb 0.22762(4) 0.36848(2) -0.04948(3)
O1 O 0.2021(6) 0.2628(4) 0.1010(5)
O2 O 0.2638(6) 0.1844(4) 0.2597(4)
O3 O 0.0991(6) 0.4558(4) 0.0814(5)
O4 O -0.0846(6) 0.5291(4) 0.1702(5)
O5 O 0.3986(6) 0.4783(4) -0.1253(5)
O6 O 0.5966(6) 0.5712(4) -0.0972(5)
O7 O 0.4449(6) 0.2633(4) -0.0489(5)
N1 N -0.0710(7) 0.4023(5) 0.3499(5)
H1 H -0.1285 0.4502 0.3622
N2 N 0.0498(7) 0.2653(5) 0.3794(5)
C1 C 0.1926(8) 0.2494(5) 0.2063(6)
C2 C 0.0887(8) 0.3056(5) 0.2756(6)
C3 C 0.0150(8) 0.3916(6) 0.2552(7)
C4 C 0.0101(9) 0.4633(6) 0.1614(7)
C5 C -0.0505(10) 0.3253(6) 0.4207(7)
C6 C -0.1377(9) 0.3113(6) 0.5275(8)
C7 C -0.1666(11) 0.3879(7) 0.5964(8)
H2 H -0.1299 0.4489 0.5792
C8 C -0.2508(12) 0.3748(8) 0.6922(9)
H3 H -0.2710 0.4276 0.7390
C9 C -0.3052(11) 0.2856(8) 0.7195(8)
H4 H -0.3613 0.2773 0.7845
C10 C -0.2751(10) 0.2078(7) 0.6484(8)
H5 H -0.3128 0.1469 0.6644
C11 C -0.1892(9) 0.2212(6) 0.5540(7)
H6 H -0.1659 0.1686 0.5080
C12 C 0.5010(9) 0.5155(5) -0.0642(6)
H7 H 0.4340 0.3244 -0.0714
H8 H 0.4421 0.2084 -0.0820
Tb1B Tb -0.22762(4) 0.63152(2) 0.04948(3)
Tb1C Tb 0.22762(4) 0.13152(2) 0.45052(3)
Tb1A Tb -0.22762(4) 0.86848(2) -0.45052(3)
Tb1B_2 Tb 0.77238(4) 0.63152(2) 0.04948(3)
O1B O -0.2021(6) 0.7372(4) -0.1010(5)
O2C O 0.2638(6) 0.3156(4) -0.2403(4)
O2B O -0.2638(6) 0.8156(4) -0.2597(4)
O2A O -0.2638(6) 0.6844(4) 0.2403(4)
O3B O -0.0991(6) 0.5442(4) -0.0814(5)
O4B O 0.0846(6) 0.4709(4) -0.1702(5)
O5B O 0.6014(6) 0.5217(4) 0.1253(5)
O5B_2 O -0.3986(6) 0.5217(4) 0.1253(5)
O6B O 0.4034(6) 0.4288(4) 0.0972(5)
O6_2 O -0.4034(6) 0.5712(4) -0.0972(5)
O7B O -0.4449(6) 0.7367(4) 0.0489(5)
N1B N 0.0710(7) 0.5977(5) -0.3499(5)
H1B H 0.1285 0.5498 -0.3622
N2C N 0.0498(7) 0.2347(5) -0.1206(5)
N2B N -0.0498(7) 0.7347(5) -0.3794(5)
N2A N -0.0498(7) 0.7653(5) 0.1206(5)
C1B C -0.1926(8) 0.7506(5) -0.2063(6)
C2B C -0.0887(8) 0.6944(5) -0.2756(6)
C3B C -0.0150(8) 0.6084(6) -0.2552(7)
C4B C -0.0101(9) 0.5367(6) -0.1614(7)
C5B C 0.0505(10) 0.6747(6) -0.4207(7)
C6B C 0.1377(9) 0.6887(6) -0.5275(8)
C7B C 0.1666(11) 0.6121(7) -0.5964(8)
H2B H 0.1299 0.5511 -0.5792
C8B C 0.2508(12) 0.6252(8) -0.6922(9)
H3B H 0.2710 0.5724 -0.7390
C9B C 0.3052(11) 0.7144(8) -0.7195(8)
H4B H 0.3613 0.7227 -0.7845
C10B C 0.2751(10) 0.7922(7) -0.6484(8)
H5B H 0.3128 0.8531 -0.6644
C11B C 0.1892(9) 0.7788(6) -0.5540(7)
H6B H 0.1659 0.8314 -0.5080
C12B C 0.4990(9) 0.4845(5) 0.0642(6)
H7B H -0.4340 0.6756 0.0714
H8B H -0.4421 0.7916 0.0820
O8 O 0.4458(8) 0.4105(5) 0.3488(6)
H9 H 0.4335 0.4157 0.2763
H10 H 0.5184 0.4479 0.3604
O9 O 0.6880(7) 0.5343(5) 0.4011(6)
H11 H 0.6535 0.5490 0.4662
H12 H 0.6869 0.5736 0.3447
loop_
_geom_bond_atom_site_label_1
_geom_bond_atom_site_label_2
_geom_bond_site_symmetry_1
_geom_bond_site_symmetry_2
Tb1 O1 1_555 1_555
O1 C1 1_555 1_555
O2 C1 1_555 1_555
O3 Tb1 1_555 1_555
O4 C4 1_555 1_555
O5 Tb1 1_555 1_555
O6 C12 1_555 1_555
O7 Tb1 1_555 1_555
N1 H1 1_555 1_555
N2 C2 1_555 1_555
C1 C2 1_555 1_555
C2 C3 1_555 1_555
C3 N1 1_555 1_555
C4 O3 1_555 1_555
C5 N1 1_555 1_555
C6 C5 1_555 1_555
C7 C6 1_555 1_555
H2 C7 1_555 1_555
C8 C7 1_555 1_555
H3 C8 1_555 1_555
C9 C8 1_555 1_555
H4 C9 1_555 1_555
C10 C9 1_555 1_555
H5 C10 1_555 1_555
C11 C6 1_555 1_555
H6 C11 1_555 1_555
C12 O5 1_555 1_555
H7 O7 1_555 1_555
H8 O7 1_555 1_555
O8 H9 1_555 1_555
H10 O8 1_555 1_555
O9 H11 1_555 1_555
H12 O9 1_555 1_555
Tb1B O4 1_555 1_555
Tb1C O2 1_555 1_555
Tb1A O2B 1_555 1_555
Tb1B_2 O6 1_555 1_555
O1B Tb1B 1_555 1_555
O2C Tb1 1_555 1_555
O2B C1B 1_555 1_555
O2A Tb1B 1_555 1_555
O3B Tb1B 1_555 1_555
O4B Tb1 1_555 1_555
O5B Tb1B_2 1_555 1_555
O5B_2 Tb1B 1_555 1_555
O6B Tb1 1_555 1_555
O6_2 Tb1B 1_555 1_555
O7B Tb1B 1_555 1_555
N1B H1B 1_555 1_555
N2C Tb1 1_555 1_555
N2B Tb1A 1_555 1_555
N2A Tb1B 1_555 1_555
C1B O1B 1_555 1_555
C2B N2B 1_555 1_555
C3B N1B 1_555 1_555
C4B O3B 1_555 1_555
C5B N1B 1_555 1_555
C6B C5B 1_555 1_555
C7B C6B 1_555 1_555
H2B C7B 1_555 1_555
C8B C7B 1_555 1_555
H3B C8B 1_555 1_555
C9B C8B 1_555 1_555
H4B C9B 1_555 1_555
C10B C9B 1_555 1_555
H5B C10B 1_555 1_555
C11B C6B 1_555 1_555
H6B C11B 1_555 1_555
C12B C12 1_555 1_555
H7B O7B 1_555 1_555
H8B O7B 1_555 1_555
N2 C5 1_555 1_555
N2 Tb1C 1_555 1_555
C3 C4 1_555 1_555
C10 C11 1_555 1_555
O4B C4B 1_555 1_555
O5B C12B 1_555 1_555
O6B C12B 1_555 1_555
N2B C5B 1_555 1_555
C1B C2B 1_555 1_555
C2B C3B 1_555 1_555
C3B C4B 1_555 1_555
C10B C11B 1_555 1_555

#END
