
#######################################################################
#
#                 Cambridge Crystallographic Data Centre
#                                CCDC 
#
#######################################################################
#
# If this CIF has been generated from an entry in the Cambridge 
# Structural Database, then it will include bibliographic, chemical, 
# crystal, experimental, refinement or atomic coordinate data resulting 
# from the CCDC's data processing and validation procedures.
#
#######################################################################

data_DAYLEW
_symmetry_cell_setting           triclinic
_symmetry_space_group_name_H-M   'P -1'
_symmetry_Int_Tables_number      2
_space_group_name_Hall           '-P 1'
loop_
_symmetry_equiv_pos_site_id
_symmetry_equiv_pos_as_xyz
1 x,y,z
2 -x,-y,-z
_cell_length_a                   7.7185(15)
_cell_length_b                   12.793(3)
_cell_length_c                   14.139(3)
_cell_angle_alpha                94.47(3)
_cell_angle_beta                 99.78(3)
_cell_angle_gamma                97.71(3)
_cell_volume                     1356.12
loop_
_atom_site_label
_atom_site_type_symbol
_atom_site_fract_x
_atom_site_fract_y
_atom_site_fract_z
O5 O 0.816(4) 0.983(2) 0.8856(19)
C25 C 0.984(5) 0.996(4) 0.950(3)
N7 N 0.779(6) 0.971(2) 1.002(3)
C26 C 0.614(6) 0.995(4) 0.978(4)
C27 C 0.764(11) 0.927(3) 1.070(3)
O5A O 1.184(4) 1.017(2) 1.1144(19)
C25A C 1.016(5) 1.004(4) 1.050(3)
N7A N 1.221(6) 1.029(2) 0.998(3)
C26A C 1.386(6) 1.005(4) 1.022(4)
C27A C 1.236(11) 1.073(3) 0.930(3)
C1 C -0.7475(6) 0.4442(4) 0.2076(3)
C2 C -0.8176(7) 0.4074(4) 0.1046(3)
C3 C -0.7186(8) 0.4458(5) 0.0372(4)
H1 H -0.6114 0.4905 0.0586
C4 C -0.7774(9) 0.4183(6) -0.0607(4)
H2 H -0.7105 0.4448 -0.1048
C5 C -0.9359(10) 0.3513(6) -0.0925(4)
H3 H -0.9779 0.3331 -0.1582
C6 C -1.0304(9) 0.3119(5) -0.0262(4)
H4 H -1.1356 0.2655 -0.0483
C7 C -0.9756(7) 0.3384(4) 0.0736(3)
C8 C -1.0886(7) 0.2878(4) 0.1382(4)
C9 C -1.0166(7) 0.2396(4) 0.2172(4)
H5 H -0.8943 0.2405 0.2320
C10 C -1.1247(7) 0.1905(4) 0.2739(4)
H6 H -1.0734 0.1584 0.3262
C11 C -1.3072(6) 0.1875(4) 0.2552(3)
C12 C -1.3778(7) 0.2379(5) 0.1782(4)
H7 H -1.4999 0.2385 0.1646
C13 C -1.2714(7) 0.2873(5) 0.1211(4)
H8 H -1.3228 0.3211 0.0700
C14 C -1.4314(7) 0.1334(4) 0.3153(4)
H9 H -1.5201 0.0820 0.2727
H10 H -1.4931 0.1863 0.3424
C15 C -1.2521(6) 0.1194(4) 0.4834(4)
C16 C -1.1793(6) 0.2207(4) 0.5284(4)
C17 C -1.0775(7) 0.2281(5) 0.6205(4)
H11 H -1.0231 0.2946 0.6503
C18 C -1.0541(8) 0.1397(5) 0.6695(4)
H12 H -0.9907 0.1480 0.7324
C19 C -1.1250(8) 0.0393(5) 0.6250(4)
H13 H -1.1090 -0.0202 0.6573
C20 C -1.2203(7) 0.0289(4) 0.5316(4)
C21 C -1.3645(7) -0.0298(4) 0.3931(4)
C22 C -1.4589(10) -0.1997(5) 0.3137(5)
H14 H -1.3416 -0.2196 0.3310
H15 H -1.5299 -0.2233 0.3605
C23 C -1.5432(15) -0.2482(6) 0.2166(6)
H16 H -1.4678 -0.2282 0.1715
H17 H -1.5614 -0.3240 0.2161
H18 H -1.6558 -0.2243 0.1986
C24 C -1.2110(6) 0.3222(4) 0.4884(3)
N1 N -0.5731(5) 0.4621(4) 0.2436(3)
N2 N -0.5630(6) 0.4971(4) 0.3360(3)
N3 N -0.7229(6) 0.5019(4) 0.3549(3)
N4 N -0.8429(5) 0.4684(4) 0.2735(3)
N5 N -1.3475(6) 0.0796(3) 0.3934(3)
N6 N -1.2936(6) -0.0633(4) 0.4719(4)
O1 O -1.3621(5) 0.3369(3) 0.4500(3)
O2 O -1.0794(4) 0.3967(2) 0.4986(3)
O3 O -0.1822(4) 0.5052(3) 0.2975(2)
O4 O -0.2801(6) 0.7405(3) 0.5475(4)
O6 O -1.4458(6) -0.0854(3) 0.3121(3)
Pb1 Pb -0.24822(2) 0.542541(13) 0.462266(11)
C1A C -0.2525(6) 0.5558(4) 0.7924(3)
C2A C -0.1824(7) 0.5926(4) 0.8954(3)
C3A C -0.2814(8) 0.5542(5) 0.9628(4)
H1A H -0.3886 0.5095 0.9414
C4A C -0.2226(9) 0.5817(6) 1.0607(4)
H2A H -0.2895 0.5552 1.1048
C5A C -0.0641(10) 0.6487(6) 1.0925(4)
H3A H -0.0221 0.6669 1.1582
C6A C 0.0304(9) 0.6881(5) 1.0262(4)
H4A H 0.1356 0.7345 1.0483
C7A C -0.0244(7) 0.6616(4) 0.9264(3)
C8A C 0.0886(7) 0.7122(4) 0.8618(4)
C9A C 0.0166(7) 0.7604(4) 0.7828(4)
H5A H -0.1057 0.7595 0.7680
C10A C 0.1247(7) 0.8095(4) 0.7261(4)
H6A H 0.0734 0.8416 0.6738
C11A C 0.3072(6) 0.8125(4) 0.7448(3)
C12A C 0.3778(7) 0.7621(5) 0.8218(4)
H7A H 0.4999 0.7615 0.8354
C13A C 0.2714(7) 0.7127(5) 0.8789(4)
H8A H 0.3228 0.6789 0.9300
C14A C 0.4314(7) 0.8666(4) 0.6847(4)
H9A H 0.5201 0.9180 0.7273
H10A H 0.4931 0.8137 0.6576
C15A C 0.2521(6) 0.8806(4) 0.5166(4)
C16A C 0.1793(6) 0.7793(4) 0.4716(4)
C17A C 0.0775(7) 0.7719(5) 0.3795(4)
H11A H 0.0231 0.7054 0.3497
C18A C 0.0541(8) 0.8603(5) 0.3305(4)
H12A H -0.0093 0.8520 0.2676
C19A C 0.1250(8) 0.9607(5) 0.3750(4)
H13A H 0.1090 1.0202 0.3427
C20A C 0.2203(7) 0.9711(4) 0.4684(4)
C21A C 0.3645(7) 1.0298(4) 0.6069(4)
C22A C 0.4589(10) 1.1997(5) 0.6863(5)
H14A H 0.3416 1.2196 0.6690
H15A H 0.5299 1.2233 0.6395
C23A C 0.5432(15) 1.2482(6) 0.7834(6)
H16A H 0.4678 1.2282 0.8285
H17A H 0.5614 1.3240 0.7839
H18A H 0.6558 1.2243 0.8014
C24A C 0.2110(6) 0.6778(4) 0.5116(3)
N1A N -0.4269(5) 0.5379(4) 0.7564(3)
N2A N -0.4370(6) 0.5029(4) 0.6640(3)
N3A N -0.2771(6) 0.4981(4) 0.6451(3)
N4A N -0.1571(5) 0.5316(4) 0.7265(3)
N5A N 0.3475(6) 0.9204(3) 0.6066(3)
N6A N 0.2936(6) 1.0633(4) 0.5281(4)
O1A O 0.3621(5) 0.6631(3) 0.5500(3)
O1_2 O -0.3621(5) 0.3369(3) 0.4500(3)
O1A_2 O -0.6379(5) 0.6631(3) 0.5500(3)
O2A O 0.0794(4) 0.6033(2) 0.5014(3)
O2_2 O -0.0794(4) 0.3967(2) 0.4986(3)
O2A_2 O -0.9206(4) 0.6033(2) 0.5014(3)
O3A O -0.8178(4) 0.4948(3) 0.7025(2)
O4A O -0.7199(6) 0.2595(3) 0.4525(4)
O6A O 0.4458(6) 1.0854(3) 0.6879(3)
Pb1A Pb -0.75178(2) 0.457459(13) 0.537734(11)
Pb1_2 Pb -1.24822(2) 0.542541(13) 0.462266(11)
Pb1A_2 Pb 0.24822(2) 0.457459(13) 0.537734(11)
loop_
_geom_bond_atom_site_label_1
_geom_bond_atom_site_label_2
_geom_bond_site_symmetry_1
_geom_bond_site_symmetry_2
C1 C2 1_555 1_555
C2 C3 1_555 1_555
C3 H1 1_555 1_555
C4 C3 1_555 1_555
H2 C4 1_555 1_555
C5 C4 1_555 1_555
H3 C5 1_555 1_555
C6 C5 1_555 1_555
H4 C6 1_555 1_555
C7 C2 1_555 1_555
C8 C7 1_555 1_555
C9 C8 1_555 1_555
H5 C9 1_555 1_555
C10 C9 1_555 1_555
H6 C10 1_555 1_555
C11 C10 1_555 1_555
C12 C11 1_555 1_555
H7 C12 1_555 1_555
C13 C8 1_555 1_555
H8 C13 1_555 1_555
C14 C11 1_555 1_555
H9 C14 1_555 1_555
H10 C14 1_555 1_555
C15 C16 1_555 1_555
C16 C17 1_555 1_555
C17 H11 1_555 1_555
C18 C17 1_555 1_555
H12 C18 1_555 1_555
C19 C18 1_555 1_555
H13 C19 1_555 1_555
C20 C15 1_555 1_555
C21 N5 1_555 1_555
C22 H14 1_555 1_555
H15 C22 1_555 1_555
C23 C22 1_555 1_555
H16 C23 1_555 1_555
H17 C23 1_555 1_555
H18 C23 1_555 1_555
C24 C16 1_555 1_555
N1 C1 1_555 1_555
N2 N1 1_555 1_555
N3 N2 1_555 1_555
N4 C1 1_555 1_555
N5 C14 1_555 1_555
N6 C20 1_555 1_555
O1 C24 1_555 1_555
O2 C24 1_555 1_555
O3 Pb1 1_555 1_555
O4 Pb1 1_555 1_555
O5 C25 1_555 1_555
O6 C21 1_555 1_555
C25 N7 1_555 1_555
Pb1 N2 1_555 1_555
N7 C26 1_555 1_555
C27 N7 1_555 1_555
C1A C2A 1_555 1_555
C2A C3A 1_555 1_555
C3A H1A 1_555 1_555
C4A C3A 1_555 1_555
H2A C4A 1_555 1_555
C5A C4A 1_555 1_555
H3A C5A 1_555 1_555
C6A C5A 1_555 1_555
H4A C6A 1_555 1_555
C7A C2A 1_555 1_555
C8A C7A 1_555 1_555
C9A C8A 1_555 1_555
H5A C9A 1_555 1_555
C10A C9A 1_555 1_555
H6A C10A 1_555 1_555
C11A C10A 1_555 1_555
C12A C11A 1_555 1_555
H7A C12A 1_555 1_555
C13A C8A 1_555 1_555
H8A C13A 1_555 1_555
C14A C11A 1_555 1_555
H9A C14A 1_555 1_555
H10A C14A 1_555 1_555
C15A C16A 1_555 1_555
C16A C17A 1_555 1_555
C17A H11A 1_555 1_555
C18A C17A 1_555 1_555
H12A C18A 1_555 1_555
C19A C18A 1_555 1_555
H13A C19A 1_555 1_555
C20A C15A 1_555 1_555
C21A N5A 1_555 1_555
C22A H14A 1_555 1_555
H15A C22A 1_555 1_555
C23A C22A 1_555 1_555
H16A C23A 1_555 1_555
H17A C23A 1_555 1_555
H18A C23A 1_555 1_555
C24A C16A 1_555 1_555
N1A C1A 1_555 1_555
N2A N1A 1_555 1_555
N3A Pb1 1_555 1_555
N4A C1A 1_555 1_555
N5A C14A 1_555 1_555
N6A C20A 1_555 1_555
O1A C24A 1_555 1_555
O1_2 Pb1 1_555 1_555
O1A_2 Pb1A 1_555 1_555
O2A Pb1 1_555 1_555
O2_2 Pb1 1_555 1_555
O2A_2 Pb1A 1_555 1_555
O3A Pb1A 1_555 1_555
O4A Pb1A 1_555 1_555
O5A C25A 1_555 1_555
O6A C21A 1_555 1_555
C25A C25 1_555 1_555
Pb1A N3 1_555 1_555
Pb1_2 O1 1_555 1_555
Pb1A_2 O1A 1_555 1_555
N7A C25 1_555 1_555
C26A N7A 1_555 1_555
C27A N7A 1_555 1_555
C6 C7 1_555 1_555
C12 C13 1_555 1_555
C15 N5 1_555 1_555
C19 C20 1_555 1_555
C21 N6 1_555 1_555
C22 O6 1_555 1_555
N3 N4 1_555 1_555
O2 Pb1A 1_555 1_555
O2 Pb1_2 1_555 1_555
N7 C25A 1_555 1_555
C6A C7A 1_555 1_555
C12A C13A 1_555 1_555
C15A N5A 1_555 1_555
C19A C20A 1_555 1_555
C21A N6A 1_555 1_555
C22A O6A 1_555 1_555
C24A O2A 1_555 1_555
N2A N3A 1_555 1_555
N2A Pb1A 1_555 1_555
N3A N4A 1_555 1_555
O2A Pb1A_2 1_555 1_555
O2_2 Pb1A_2 1_555 1_555
O2A_2 Pb1_2 1_555 1_555
C25A N7A 1_555 1_555

#END
