
#######################################################################
#
#                 Cambridge Crystallographic Data Centre
#                                CCDC 
#
#######################################################################
#
# If this CIF has been generated from an entry in the Cambridge 
# Structural Database, then it will include bibliographic, chemical, 
# crystal, experimental, refinement or atomic coordinate data resulting 
# from the CCDC's data processing and validation procedures.
#
#######################################################################

data_DAYMAS
_symmetry_cell_setting           monoclinic
_symmetry_space_group_name_H-M   'C 2/c'
_symmetry_Int_Tables_number      15
_space_group_name_Hall           '-C 2yn'
loop_
_symmetry_equiv_pos_site_id
_symmetry_equiv_pos_as_xyz
1 x,y,z
2 1/2+x,1/2+y,z
3 -x,y,1/2-z
4 1/2-x,1/2+y,1/2-z
5 -x,-y,-z
6 1/2-x,1/2-y,-z
7 x,-y,1/2+z
8 1/2+x,1/2-y,1/2+z
_cell_length_a                   13.245(3)
_cell_length_b                   7.223(2)
_cell_length_c                   7.649(2)
_cell_angle_alpha                90
_cell_angle_beta                 122.660(10)
_cell_angle_gamma                90
_cell_volume                     616.068
loop_
_atom_site_label
_atom_site_type_symbol
_atom_site_fract_x
_atom_site_fract_y
_atom_site_fract_z
Zn1 Zn 0.2500 0.2500 0.5000
O1 O 0.2284(3) 0.5166(5) 0.6010(5)
O2 O 0.1289(3) 0.7144(4) 0.6802(4)
O3 O 0.1068(3) 0.1323(5) 0.4968(6)
C1 C 0.1413(4) 0.6175(6) 0.5557(6)
C2 C 0.0415(4) 0.6249(6) 0.3386(7)
H1 H 0.041(3) 0.177(8) 0.460(10)
H2 H 0.133(6) 0.075(8) 0.605(6)
Zn1F Zn 0.2500 0.7500 1.0000
Zn1G Zn -0.2500 0.2500 0.0000
Zn1A Zn -0.2500 0.7500 -0.5000
O1B O -0.2284(3) 0.5166(5) -0.1010(5)
O1E O 0.2716(3) -0.0166(5) 0.3990(5)
O2B O -0.1289(3) 0.7144(4) -0.1802(4)
O2F O 0.1289(3) 0.2856(4) 0.1802(4)
O2C O 0.3711(3) 0.2144(4) 0.8198(4)
O3E O 0.3932(3) 0.3677(5) 0.5032(6)
C1B C -0.1413(4) 0.6175(6) -0.0557(6)
C2B C -0.0415(4) 0.6249(6) 0.1614(7)
H1E H 0.459(3) 0.323(8) 0.540(10)
H2E H 0.367(6) 0.425(8) 0.395(6)
loop_
_geom_bond_atom_site_label_1
_geom_bond_atom_site_label_2
_geom_bond_site_symmetry_1
_geom_bond_site_symmetry_2
Zn1 O1 1_555 1_555
O1 C1 1_555 1_555
O2 C1 1_555 1_555
O3 Zn1 1_555 1_555
C1 C2 1_555 1_555
C2 C2B 1_555 1_555
H1 O3 1_555 1_555
H2 O3 1_555 1_555
Zn1F O2 1_555 1_555
Zn1G O1B 1_555 1_555
Zn1A O2B 1_555 1_555
O1B C1B 1_555 1_555
O1E Zn1 1_555 1_555
O2B C1B 1_555 1_555
O2F Zn1 1_555 1_555
O2C Zn1 1_555 1_555
O3E Zn1 1_555 1_555
C1B C2B 1_555 1_555
H1E O3E 1_555 1_555
H2E O3E 1_555 1_555

#END
