
#######################################################################
#
#                 Cambridge Crystallographic Data Centre
#                                CCDC 
#
#######################################################################
#
# If this CIF has been generated from an entry in the Cambridge 
# Structural Database, then it will include bibliographic, chemical, 
# crystal, experimental, refinement or atomic coordinate data resulting 
# from the CCDC's data processing and validation procedures.
#
#######################################################################

data_DAYPEZ
_symmetry_cell_setting           monoclinic
_symmetry_space_group_name_H-M   'P 21/c'
_symmetry_Int_Tables_number      14
_space_group_name_Hall           '-P 2ybc'
loop_
_symmetry_equiv_pos_site_id
_symmetry_equiv_pos_as_xyz
1 x,y,z
2 -x,1/2+y,1/2-z
3 -x,-y,-z
4 x,1/2-y,1/2+z
_cell_length_a                   11.9781(10)
_cell_length_b                   24.094(2)
_cell_length_c                   10.7056(9)
_cell_angle_alpha                90
_cell_angle_beta                 105.925(2)
_cell_angle_gamma                90
_cell_volume                     2971.06
loop_
_atom_site_label
_atom_site_type_symbol
_atom_site_fract_x
_atom_site_fract_y
_atom_site_fract_z
Co1 Co 0.91816(3) 0.052633(13) 0.61614(3)
N1 N 0.79286(17) 0.06296(8) 0.4272(2)
N2 N 1.05768(17) 0.06101(8) 0.79996(19)
O1 O 0.87348(14) 0.13393(7) 0.66506(16)
O2 O 0.79670(15) 0.06433(7) 0.74458(17)
O3 O 0.91018(15) -0.03004(7) 0.64430(16)
O4 O 1.04652(14) 0.06467(7) 0.53016(16)
C1 C 0.7604(2) 0.11457(11) 0.3844(2)
C2 C 0.7574(2) 0.02255(11) 0.3400(3)
C3 C 1.1135(2) 0.10930(11) 0.8187(2)
C4 C 1.0792(2) 0.02643(10) 0.9028(2)
C5 C 0.9326(2) -0.06958(10) 0.5778(2)
H1 H 0.7840 0.1439 0.4421
C6 C 0.6946(2) 0.12655(11) 0.2606(3)
C7 C 0.6922(2) 0.03163(11) 0.2143(3)
H2 H 0.7780 -0.0138 0.3656
H3 H 1.1020 0.1336 0.7488
C8 C 1.1871(2) 0.12533(11) 0.9353(3)
C9 C 1.1520(2) 0.03925(11) 1.0235(3)
H4 H 1.0430 -0.0081 0.8918
C10 C 0.94071(19) -0.12651(9) 0.6355(2)
H5 H 0.6744 0.1631 0.2370
C11 C 0.6583(2) 0.08453(11) 0.1713(2)
H6 H 0.6708 0.0018 0.1578
H7 H 1.2240 0.1596 0.9424
C12 C 1.2069(2) 0.09048(10) 1.0434(2)
H8 H 1.1642 0.0137 1.0911
C13 C 0.8885(2) -0.17317(10) 0.5665(2)
C14 C 1.0171(2) -0.13392(10) 0.7579(2)
C15 C 0.5855(2) 0.09594(11) 0.0374(2)
C16 C 1.2859(2) 0.10762(11) 1.1700(3)
C17 C 0.7938(2) -0.16976(11) 0.4411(3)
C18 C 0.9210(2) -0.22566(10) 0.6189(3)
C19 C 1.0462(2) -0.18605(10) 0.8128(2)
H9 H 1.0502 -0.1028 0.8050
C20 C 0.5153(2) 0.14227(11) 0.0077(3)
C21 C 0.5855(2) 0.06126(12) -0.0652(3)
C22 C 1.3058(2) 0.16252(12) 1.2025(3)
C23 C 1.3455(3) 0.06864(13) 1.2593(3)
O5 O 0.73189(17) -0.12420(8) 0.43234(19)
O6 O 0.77534(17) -0.20579(8) 0.36008(19)
H10 H 0.8893 -0.2570 0.5715
C24 C 0.9992(2) -0.23216(11) 0.7397(3)
C25 C 1.1300(2) -0.19108(9) 0.9428(2)
C26 C 0.4461(2) 0.14970(12) -0.1176(3)
H11 H 0.5146 0.1683 0.0716
H12 H 0.6339 0.0304 -0.0519
C27 C 0.5132(3) 0.07234(13) -0.1882(3)
C28 C 1.3868(3) 0.17705(14) 1.3172(3)
H13 H 1.2649 0.1900 1.1476
H14 H 1.3319 0.0309 1.2444
C29 C 1.4255(3) 0.08717(15) 1.3711(3)
H15 H 0.671(3) -0.1240(15) 0.364(4)
H16 H 1.0203 -0.2676 0.7720
C30 C 1.1288(2) -0.15271(10) 1.0401(2)
C31 C 1.2135(2) -0.23281(10) 0.9721(2)
H17 H 0.3993 0.1811 -0.1349
N3 N 0.44195(19) 0.11485(10) -0.2150(2)
H18 H 0.5155 0.0483 -0.2555
H19 H 1.3988 0.2145 1.3371
N4 N 1.4478(2) 0.14026(12) 1.3997(2)
H20 H 1.4659 0.0608 1.4296
C32 C 1.20737(19) -0.15477(9) 1.1618(2)
H21 H 1.0732 -0.1247 1.0224
H22 H 1.2143 -0.2600 0.9108
C33 C 1.2949(2) -0.23412(10) 1.0911(2)
C34 C 1.2939(2) -0.19548(9) 1.1879(2)
C35 C 1.1828(2) -0.11508(10) 1.2597(2)
H23 H 1.3519 -0.2614 1.1075
C36 C 1.3875(2) -0.19844(11) 1.3136(2)
O7 O 1.45749(16) -0.23581(8) 1.33959(19)
O8 O 1.38500(16) -0.15656(8) 1.38992(19)
H24 H 1.446(3) -0.1566(12) 1.462(3)
O4B O 0.95348(14) -0.06467(7) 0.46984(16)
Co1B Co 1.08184(3) -0.052633(13) 0.38386(3)
O1B O 1.12652(14) -0.13393(7) 1.33494(16)
O2B O 1.20330(15) -0.06433(7) 1.25542(17)
Co1B_2 Co 1.08184(3) -0.052633(13) 1.38386(3)
loop_
_geom_bond_atom_site_label_1
_geom_bond_atom_site_label_2
_geom_bond_site_symmetry_1
_geom_bond_site_symmetry_2
Co1 N1 1_555 1_555
N1 C1 1_555 1_555
N2 Co1 1_555 1_555
O1 Co1 1_555 1_555
O2 Co1 1_555 1_555
O3 Co1 1_555 1_555
O4 Co1 1_555 1_555
C1 H1 1_555 1_555
C2 N1 1_555 1_555
C3 N2 1_555 1_555
C4 N2 1_555 1_555
C5 O3 1_555 1_555
C6 C1 1_555 1_555
C7 C2 1_555 1_555
H2 C2 1_555 1_555
H3 C3 1_555 1_555
C8 C3 1_555 1_555
C9 C4 1_555 1_555
H4 C4 1_555 1_555
C10 C5 1_555 1_555
H5 C6 1_555 1_555
C11 C6 1_555 1_555
H6 C7 1_555 1_555
H7 C8 1_555 1_555
C12 C8 1_555 1_555
H8 C9 1_555 1_555
C13 C10 1_555 1_555
C14 C10 1_555 1_555
C15 C11 1_555 1_555
C16 C12 1_555 1_555
C17 C13 1_555 1_555
C18 C13 1_555 1_555
C19 C14 1_555 1_555
H9 C14 1_555 1_555
C20 C15 1_555 1_555
C21 C15 1_555 1_555
C22 C16 1_555 1_555
C23 C16 1_555 1_555
O5 C17 1_555 1_555
O6 C17 1_555 1_555
H10 C18 1_555 1_555
C24 C18 1_555 1_555
C25 C19 1_555 1_555
C26 C20 1_555 1_555
H11 C20 1_555 1_555
H12 C21 1_555 1_555
C27 C21 1_555 1_555
C28 C22 1_555 1_555
H13 C22 1_555 1_555
H14 C23 1_555 1_555
C29 C23 1_555 1_555
H15 O5 1_555 1_555
H16 C24 1_555 1_555
C30 C25 1_555 1_555
C31 C25 1_555 1_555
H17 C26 1_555 1_555
N3 C26 1_555 1_555
H18 C27 1_555 1_555
H19 C28 1_555 1_555
N4 C28 1_555 1_555
H20 C29 1_555 1_555
C32 C30 1_555 1_555
H21 C30 1_555 1_555
H22 C31 1_555 1_555
C33 C31 1_555 1_555
C34 C32 1_555 1_555
C35 C32 1_555 1_555
H23 C33 1_555 1_555
C36 C34 1_555 1_555
O7 C36 1_555 1_555
O8 C36 1_555 1_555
H24 O8 1_555 1_555
O4B C5 1_555 1_555
Co1B O4B 1_555 1_555
O1B C35 1_555 1_555
O2B C35 1_555 1_555
Co1B_2 O1B 1_555 1_555
C7 C11 1_555 1_555
C9 C12 1_555 1_555
C19 C24 1_555 1_555
C27 N3 1_555 1_555
C29 N4 1_555 1_555
C33 C34 1_555 1_555
O2B Co1B_2 1_555 1_555

#END
