
#######################################################################
#
#                 Cambridge Crystallographic Data Centre
#                                CCDC 
#
#######################################################################
#
# If this CIF has been generated from an entry in the Cambridge 
# Structural Database, then it will include bibliographic, chemical, 
# crystal, experimental, refinement or atomic coordinate data resulting 
# from the CCDC's data processing and validation procedures.
#
#######################################################################

data_DAYPEZ01
_symmetry_cell_setting           triclinic
_symmetry_space_group_name_H-M   'P -1'
_symmetry_Int_Tables_number      2
_space_group_name_Hall           '-P 1'
loop_
_symmetry_equiv_pos_site_id
_symmetry_equiv_pos_as_xyz
1 x,y,z
2 -x,-y,-z
_cell_length_a                   11.045(2)
_cell_length_b                   11.361(2)
_cell_length_c                   12.352(3)
_cell_angle_alpha                103.83(3)
_cell_angle_beta                 93.54(3)
_cell_angle_gamma                96.84(3)
_cell_volume                     1487.75
loop_
_atom_site_label
_atom_site_type_symbol
_atom_site_fract_x
_atom_site_fract_y
_atom_site_fract_z
Co1 Co 0.15335(3) 0.02558(3) 0.13743(2)
C1 C -0.2712(2) -0.4174(2) 0.4984(2)
H1 H -0.2746 -0.4011 0.5755
C2 C -0.1971(2) -0.3366(2) 0.4554(2)
H2 H -0.1517 -0.2675 0.5033
C3 C -0.1905(2) -0.3584(2) 0.34135(19)
C4 C -0.2601(3) -0.4642(2) 0.2740(2)
H3 H -0.2581 -0.4832 0.1967
C5 C -0.3324(3) -0.5404(2) 0.3241(2)
H4 H -0.3789 -0.6104 0.2786
C6 C -0.0178(2) -0.0684(2) 0.2993(2)
H5 H 0.0000 0.0132 0.3387
C7 C -0.0854(2) -0.1485(2) 0.3482(2)
H6 H -0.1114 -0.1206 0.4189
C8 C -0.1146(2) -0.2714(2) 0.29093(19)
C9 C -0.0714(3) -0.3060(2) 0.1874(2)
H7 H -0.0875 -0.3872 0.1464
C10 C -0.0039(2) -0.2195(2) 0.1442(2)
H8 H 0.0236 -0.2450 0.0738
C11 C 0.4115(2) 0.1192(3) 0.0882(2)
H9 H 0.4308 0.0591 0.1234
C12 C 0.5048(2) 0.1784(3) 0.0424(2)
H10 H 0.5838 0.1583 0.0471
C13 C 0.4781(2) 0.2676(2) -0.0102(2)
C14 C 0.3604(3) 0.2964(3) -0.0087(3)
H11 H 0.3396 0.3588 -0.0401
C15 C 0.2728(3) 0.2327(3) 0.0393(3)
H12 H 0.1941 0.2540 0.0393
C16 C 0.7799(3) 0.4056(3) -0.0840(3)
H13 H 0.8623 0.4185 -0.0576
C17 C 0.6967(3) 0.3472(3) -0.0289(3)
H14 H 0.7230 0.3194 0.0323
C18 C 0.5733(2) 0.3304(2) -0.0655(2)
C19 C 0.5395(3) 0.3744(3) -0.1559(2)
H15 H 0.4574 0.3664 -0.1818
C20 C 0.6290(3) 0.4308(3) -0.2083(3)
H16 H 0.6051 0.4600 -0.2694
C21 C 0.22465(19) -0.14137(19) -0.36289(17)
C22 C 0.20320(19) -0.10850(19) -0.25043(17)
H17 H 0.2433 -0.0351 -0.2049
C23 C 0.12327(19) -0.18306(19) -0.20505(17)
C24 C 0.0677(2) -0.29749(19) -0.27203(17)
C25 C 0.0908(2) -0.3316(2) -0.38339(19)
H18 H 0.0546 -0.4070 -0.4281
C26 C 0.1675(2) -0.2542(2) -0.42879(18)
H19 H 0.1810 -0.2777 -0.5040
C27 C 0.29693(19) -0.05148(19) -0.41182(17)
C28 C 0.3919(2) 0.0341(2) -0.34817(18)
H20 H 0.4156 0.0310 -0.2754
C29 C 0.4510(2) 0.1239(2) -0.39320(19)
H21 H 0.5150 0.1795 -0.3506
C30 C 0.41605(19) 0.13164(19) -0.50065(18)
C31 C 0.32276(19) 0.04471(19) -0.56599(17)
C32 C 0.26553(19) -0.04591(19) -0.52081(18)
H22 H 0.2046 -0.1043 -0.5648
C33 C 0.08564(19) -0.13041(17) -0.09027(17)
C34 C -0.0092(2) -0.3814(2) -0.21937(19)
C35 C 0.4801(2) 0.2274(2) -0.5496(2)
C36 C 0.2723(2) 0.0462(2) -0.68132(17)
N1 N -0.3384(2) -0.51818(19) 0.43373(19)
N2 N 0.02360(18) -0.10141(17) 0.19870(16)
N3 N 0.29647(18) 0.14250(18) 0.08518(16)
N4 N 0.7468(2) 0.4445(2) -0.1744(2)
O1 O 0.16807(14) -0.09749(14) -0.01107(12)
O2 O -0.02537(14) -0.11935(13) -0.08399(13)
O3 O 0.01081(18) -0.38419(15) -0.12252(14)
O4 O -0.09660(19) -0.45426(19) -0.28817(16)
H23 H -0.1328 -0.5005 -0.2553
O5 O 0.54844(18) 0.31614(16) -0.47395(15)
H24 H 0.5974 0.3535 -0.5053
O6 O 0.47072(19) 0.22331(17) -0.64789(15)
O7 O 0.29338(16) -0.03486(15) -0.76327(13)
O8 O 0.19877(15) 0.12079(14) -0.69054(13)
Co1A Co -0.15335(3) -0.02558(3) -0.13743(2)
Co1_2 Co 0.15335(3) 0.02558(3) -0.86257(2)
O2A O 0.02537(14) 0.11935(13) 0.08399(13)
O7_2 O 0.29338(16) -0.03486(15) 0.23673(13)
O8_2 O 0.19877(15) 0.12079(14) 0.30946(13)
loop_
_geom_bond_atom_site_label_1
_geom_bond_atom_site_label_2
_geom_bond_site_symmetry_1
_geom_bond_site_symmetry_2
Co1 N2 1_555 1_555
C1 H1 1_555 1_555
C2 C1 1_555 1_555
H2 C2 1_555 1_555
C3 C2 1_555 1_555
C4 C3 1_555 1_555
H3 C4 1_555 1_555
C5 C4 1_555 1_555
H4 C5 1_555 1_555
C6 H5 1_555 1_555
C7 C6 1_555 1_555
H6 C7 1_555 1_555
C8 C3 1_555 1_555
C9 C8 1_555 1_555
H7 C9 1_555 1_555
C10 C9 1_555 1_555
H8 C10 1_555 1_555
C11 H9 1_555 1_555
C12 C11 1_555 1_555
H10 C12 1_555 1_555
C13 C12 1_555 1_555
C14 C13 1_555 1_555
H11 C14 1_555 1_555
C15 C14 1_555 1_555
H12 C15 1_555 1_555
C16 H13 1_555 1_555
C17 C16 1_555 1_555
H14 C17 1_555 1_555
C18 C13 1_555 1_555
C19 C18 1_555 1_555
H15 C19 1_555 1_555
C20 C19 1_555 1_555
H16 C20 1_555 1_555
C21 C22 1_555 1_555
C22 H17 1_555 1_555
C23 C22 1_555 1_555
C24 C23 1_555 1_555
C25 C24 1_555 1_555
H18 C25 1_555 1_555
C26 C21 1_555 1_555
H19 C26 1_555 1_555
C27 C21 1_555 1_555
C28 C27 1_555 1_555
H20 C28 1_555 1_555
C29 C28 1_555 1_555
H21 C29 1_555 1_555
C30 C29 1_555 1_555
C31 C30 1_555 1_555
C32 C27 1_555 1_555
H22 C32 1_555 1_555
C33 C23 1_555 1_555
C34 C24 1_555 1_555
C35 C30 1_555 1_555
C36 C31 1_555 1_555
N1 C1 1_555 1_555
N2 C6 1_555 1_555
N3 Co1 1_555 1_555
N4 C16 1_555 1_555
O1 Co1 1_555 1_555
O2 C33 1_555 1_555
O3 C34 1_555 1_555
O4 C34 1_555 1_555
H23 O4 1_555 1_555
O5 C35 1_555 1_555
H24 O5 1_555 1_555
O6 C35 1_555 1_555
O7 C36 1_555 1_555
O8 C36 1_555 1_555
Co1A O2 1_555 1_555
Co1_2 O7 1_555 1_555
O2A Co1 1_555 1_555
O7_2 Co1 1_555 1_555
O8_2 Co1 1_555 1_555
C5 N1 1_555 1_555
C7 C8 1_555 1_555
C10 N2 1_555 1_555
C11 N3 1_555 1_555
C15 N3 1_555 1_555
C17 C18 1_555 1_555
C20 N4 1_555 1_555
C25 C26 1_555 1_555
C31 C32 1_555 1_555
C33 O1 1_555 1_555
O8 Co1_2 1_555 1_555

#END
