
#######################################################################
#
#                 Cambridge Crystallographic Data Centre
#                                CCDC 
#
#######################################################################
#
# If this CIF has been generated from an entry in the Cambridge 
# Structural Database, then it will include bibliographic, chemical, 
# crystal, experimental, refinement or atomic coordinate data resulting 
# from the CCDC's data processing and validation procedures.
#
#######################################################################

data_DAYPAW
_symmetry_cell_setting           monoclinic
_symmetry_space_group_name_H-M   'P 21/m'
_symmetry_Int_Tables_number      11
_space_group_name_Hall           '-P 2yb'
loop_
_symmetry_equiv_pos_site_id
_symmetry_equiv_pos_as_xyz
1 x,y,z
2 -x,1/2+y,-z
3 -x,-y,-z
4 x,1/2-y,z
_cell_length_a                   9.803(2)
_cell_length_b                   18.393(4)
_cell_length_c                   17.135(3)
_cell_angle_alpha                90
_cell_angle_beta                 106.20(3)
_cell_angle_gamma                90
_cell_volume                     2966.88
loop_
_atom_site_label
_atom_site_type_symbol
_atom_site_fract_x
_atom_site_fract_y
_atom_site_fract_z
Nd1 Nd 0.37958(2) 0.529583(10) 0.385286(11)
O1 O 0.4468(3) 0.55712(14) 0.24984(15)
O2 O 0.2878(3) 0.62283(14) 0.28689(16)
O3 O 0.5737(3) 0.61767(13) 0.40890(16)
O4 O 0.6618(3) 0.55956(14) 0.52541(17)
O5 O 0.3625(2) 0.60951(12) 0.49611(14)
O6 O 0.4513(2) 0.56256(13) 0.62069(14)
O7 O -0.9617(4) 0.4198(3) -0.0819(3)
N1 N 0.1045(3) 0.54565(16) 0.36116(18)
N2 N 0.2103(3) 0.44672(16) 0.27635(18)
N3 N -0.2874(3) 0.39579(18) 0.11932(18)
H1 H -0.2841 0.3606 0.0868
N4 N -0.3699(3) 0.48332(16) 0.18372(18)
C1 C 0.0535(4) 0.5978(2) 0.3986(3)
H2 H 0.1176 0.6242 0.4389
C2 C -0.0898(4) 0.6156(2) 0.3816(3)
H3 H -0.1196 0.6532 0.4092
C3 C -0.1859(4) 0.5766(2) 0.3234(2)
H4 H -0.2826 0.5861 0.3121
C4 C -0.1365(4) 0.52239(18) 0.2813(2)
C5 C -0.2248(4) 0.47948(19) 0.2178(2)
C6 C -0.1748(4) 0.4261(2) 0.1775(2)
C7 C -0.0256(4) 0.4118(2) 0.1956(2)
C8 C 0.0351(4) 0.3601(2) 0.1548(2)
H5 H -0.0222 0.3308 0.1144
C9 C 0.1800(5) 0.3535(2) 0.1755(3)
H6 H 0.2221 0.3196 0.1492
C10 C 0.2638(4) 0.3977(2) 0.2358(2)
H7 H 0.3620 0.3928 0.2485
C11 C 0.0667(4) 0.45398(18) 0.2567(2)
C12 C 0.0106(4) 0.50824(19) 0.3013(2)
C13 C -0.4015(4) 0.4320(2) 0.1239(2)
C14 C -0.5475(5) 0.4244(3) 0.0706(2)
C15 C -0.6433(5) 0.4808(3) 0.0623(3)
H8 H -0.6134 0.5233 0.0915
C16 C -0.7803(5) 0.4776(3) 0.0134(3)
H9 H -0.8439 0.5156 0.0115
C17 C -0.8177(6) 0.4185(4) -0.0308(3)
C18 C -0.7349(6) 0.3601(4) -0.0257(4)
H10 H -0.7680 0.3180 -0.0550
C19 C -0.5910(6) 0.3648(4) 0.0273(4)
H11 H -0.5291 0.3258 0.0309
C20 C -1.0039(8) 0.3579(4) -0.1265(6)
H12 H -1.1007 0.3632 -0.1587
H13 H -0.9965 0.3172 -0.0906
H14 H -0.9442 0.3500 -0.1616
C21 C 0.3841(4) 0.6168(2) 0.2511(2)
C22 C 0.4271(4) 0.6846(2) 0.2161(2)
C23 C 0.5216(5) 0.6851(2) 0.1684(3)
H15 H 0.5544 0.6415 0.1528
C24 C 0.5660(8) 0.7500 0.1448(4)
H16 H 0.6273 0.7500 0.1121
C25 C 0.3795(6) 0.7500 0.2370(3)
H17 H 0.3127 0.7500 0.2663
C26 C 0.6482(4) 0.61602(19) 0.4810(3)
C27 C 0.7207(4) 0.68419(18) 0.5172(2)
C28 C 0.8367(4) 0.6849(2) 0.5858(2)
H18 H 0.8746 0.6413 0.6097
C29 C 0.8962(6) 0.7500 0.6187(3)
H19 H 0.9765 0.7500 0.6632
C30 C 0.6653(5) 0.7500 0.4822(3)
H20 H 0.5902 0.7500 0.4350
C31 C 0.3947(4) 0.61324(19) 0.5726(2)
C32 C 0.3694(4) 0.68432(18) 0.6101(2)
C33 C 0.3512(4) 0.68475(19) 0.6883(2)
H21 H 0.3477 0.6410 0.7149
C34 C 0.3384(6) 0.7500 0.7262(3)
H22 H 0.3212 0.7500 0.7769
C35 C 0.3735(5) 0.7500 0.5708(3)
H23 H 0.3789 0.7500 0.5174
Nd1C Nd 0.37958(2) 0.970417(10) 0.385286(11)
Nd1B Nd 0.62042(2) 0.470417(10) 0.614714(11)
Nd1A Nd 0.62042(2) 1.029583(10) 0.614714(11)
O1C O 0.4468(3) 0.94288(14) 0.24984(15)
O2C O 0.2878(3) 0.87717(14) 0.28689(16)
O3C O 0.5737(3) 0.88233(13) 0.40890(16)
O4C O 0.6618(3) 0.94044(14) 0.52541(17)
O4B O 0.3382(3) 0.44044(14) 0.47459(17)
O4A O 0.3382(3) 1.05956(14) 0.47459(17)
O5C O 0.3625(2) 0.89049(12) 0.49611(14)
O6C O 0.4513(2) 0.93744(13) 0.62069(14)
O6B O 0.5487(2) 0.43744(13) 0.37931(14)
O6A O 0.5487(2) 1.06256(13) 0.37931(14)
O7C O -0.9617(4) 1.0802(3) -0.0819(3)
N1C N 0.1045(3) 0.95435(16) 0.36116(18)
N2C N 0.2103(3) 1.05328(16) 0.27635(18)
N3C N -0.2874(3) 1.10421(18) 0.11932(18)
H1C H -0.2841 1.1394 0.0868
N4C N -0.3699(3) 1.01668(16) 0.18372(18)
C1C C 0.0535(4) 0.9022(2) 0.3986(3)
H2C H 0.1176 0.8758 0.4389
C2C C -0.0898(4) 0.8844(2) 0.3816(3)
H3C H -0.1196 0.8468 0.4092
C3C C -0.1859(4) 0.9234(2) 0.3234(2)
H4C H -0.2826 0.9139 0.3121
C4C C -0.1365(4) 0.97761(18) 0.2813(2)
C5C C -0.2248(4) 1.02052(19) 0.2178(2)
C6C C -0.1748(4) 1.0739(2) 0.1775(2)
C7C C -0.0256(4) 1.0882(2) 0.1956(2)
C8C C 0.0351(4) 1.1399(2) 0.1548(2)
H5C H -0.0222 1.1692 0.1144
C9C C 0.1800(5) 1.1465(2) 0.1755(3)
H6C H 0.2221 1.1804 0.1492
C10C C 0.2638(4) 1.1023(2) 0.2358(2)
H7C H 0.3620 1.1072 0.2485
C11C C 0.0667(4) 1.04602(18) 0.2567(2)
C12C C 0.0106(4) 0.99176(19) 0.3013(2)
C13C C -0.4015(4) 1.0680(2) 0.1239(2)
C14C C -0.5475(5) 1.0756(3) 0.0706(2)
C15C C -0.6433(5) 1.0192(3) 0.0623(3)
H8C H -0.6134 0.9767 0.0915
C16C C -0.7803(5) 1.0224(3) 0.0134(3)
H9C H -0.8439 0.9844 0.0115
C17C C -0.8177(6) 1.0815(4) -0.0308(3)
C18C C -0.7349(6) 1.1399(4) -0.0257(4)
H10C H -0.7680 1.1820 -0.0550
C19C C -0.5910(6) 1.1352(4) 0.0273(4)
H11C H -0.5291 1.1742 0.0309
C20C C -1.0039(8) 1.1421(4) -0.1265(6)
H12C H -1.1007 1.1368 -0.1587
H13C H -0.9965 1.1828 -0.0906
H14C H -0.9442 1.1500 -0.1616
C21C C 0.3841(4) 0.8832(2) 0.2511(2)
C22C C 0.4271(4) 0.8154(2) 0.2161(2)
C23C C 0.5216(5) 0.8149(2) 0.1684(3)
H15C H 0.5544 0.8585 0.1528
C26C C 0.6482(4) 0.88398(19) 0.4810(3)
C27C C 0.7207(4) 0.81581(18) 0.5172(2)
C28C C 0.8367(4) 0.8151(2) 0.5858(2)
H18C H 0.8746 0.8587 0.6097
C31C C 0.3947(4) 0.88676(19) 0.5726(2)
C32C C 0.3694(4) 0.81568(18) 0.6101(2)
C33C C 0.3512(4) 0.81525(19) 0.6883(2)
H21C H 0.3477 0.8590 0.7149
O8 O 0.7524(6) 0.2500 0.0425(3)
loop_
_geom_bond_atom_site_label_1
_geom_bond_atom_site_label_2
_geom_bond_site_symmetry_1
_geom_bond_site_symmetry_2
Nd1 O1 1_555 1_555
O1 C21 1_555 1_555
O2 Nd1 1_555 1_555
O3 Nd1 1_555 1_555
O4 C26 1_555 1_555
O5 Nd1 1_555 1_555
O6 C31 1_555 1_555
O7 C17 1_555 1_555
N1 Nd1 1_555 1_555
N2 Nd1 1_555 1_555
N3 H1 1_555 1_555
N4 C5 1_555 1_555
C1 N1 1_555 1_555
H2 C1 1_555 1_555
C2 C1 1_555 1_555
H3 C2 1_555 1_555
C3 C2 1_555 1_555
H4 C3 1_555 1_555
C4 C3 1_555 1_555
C5 C4 1_555 1_555
C6 N3 1_555 1_555
C7 C6 1_555 1_555
C8 C7 1_555 1_555
H5 C8 1_555 1_555
C9 C8 1_555 1_555
H6 C9 1_555 1_555
C10 N2 1_555 1_555
H7 C10 1_555 1_555
C11 N2 1_555 1_555
C12 N1 1_555 1_555
C13 N3 1_555 1_555
C14 C13 1_555 1_555
C15 C14 1_555 1_555
H8 C15 1_555 1_555
C16 C15 1_555 1_555
H9 C16 1_555 1_555
C17 C16 1_555 1_555
C18 C17 1_555 1_555
H10 C18 1_555 1_555
C19 C14 1_555 1_555
H11 C19 1_555 1_555
C20 O7 1_555 1_555
H12 C20 1_555 1_555
H13 C20 1_555 1_555
H14 C20 1_555 1_555
C21 O2 1_555 1_555
C22 C21 1_555 1_555
C23 C22 1_555 1_555
H15 C23 1_555 1_555
C24 C23 1_555 1_555
H16 C24 1_555 1_555
C25 C22 1_555 1_555
H17 C25 1_555 1_555
C26 O3 1_555 1_555
C27 C26 1_555 1_555
C28 C27 1_555 1_555
H18 C28 1_555 1_555
C29 C28 1_555 1_555
H19 C29 1_555 1_555
C30 C27 1_555 1_555
H20 C30 1_555 1_555
C31 O5 1_555 1_555
C32 C31 1_555 1_555
C33 C32 1_555 1_555
H21 C33 1_555 1_555
C34 C33 1_555 1_555
H22 C34 1_555 1_555
C35 C32 1_555 1_555
H23 C35 1_555 1_555
Nd1C O1C 1_555 1_555
Nd1B O4 1_555 1_555
Nd1A O4C 1_555 1_555
O1C C21C 1_555 1_555
O2C Nd1C 1_555 1_555
O3C Nd1C 1_555 1_555
O4C C26C 1_555 1_555
O4B Nd1 1_555 1_555
O4A Nd1C 1_555 1_555
O5C Nd1C 1_555 1_555
O6C Nd1A 1_555 1_555
O6B Nd1 1_555 1_555
O6A Nd1C 1_555 1_555
O7C C17C 1_555 1_555
N1C Nd1C 1_555 1_555
N2C Nd1C 1_555 1_555
N3C H1C 1_555 1_555
N4C C5C 1_555 1_555
C1C N1C 1_555 1_555
H2C C1C 1_555 1_555
C2C C1C 1_555 1_555
H3C C2C 1_555 1_555
C3C C2C 1_555 1_555
H4C C3C 1_555 1_555
C4C C3C 1_555 1_555
C5C C4C 1_555 1_555
C6C N3C 1_555 1_555
C7C C6C 1_555 1_555
C8C C7C 1_555 1_555
H5C C8C 1_555 1_555
C9C C8C 1_555 1_555
H6C C9C 1_555 1_555
C10C N2C 1_555 1_555
H7C C10C 1_555 1_555
C11C N2C 1_555 1_555
C12C N1C 1_555 1_555
C13C N3C 1_555 1_555
C14C C13C 1_555 1_555
C15C C14C 1_555 1_555
H8C C15C 1_555 1_555
C16C C15C 1_555 1_555
H9C C16C 1_555 1_555
C17C C16C 1_555 1_555
C18C C17C 1_555 1_555
H10C C18C 1_555 1_555
C19C C14C 1_555 1_555
H11C C19C 1_555 1_555
C20C O7C 1_555 1_555
H12C C20C 1_555 1_555
H13C C20C 1_555 1_555
H14C C20C 1_555 1_555
C21C O2C 1_555 1_555
C22C C25 1_555 1_555
C23C C24 1_555 1_555
H15C C23C 1_555 1_555
C26C O3C 1_555 1_555
C27C C30 1_555 1_555
C28C C29 1_555 1_555
H18C C28C 1_555 1_555
C31C O5C 1_555 1_555
C32C C35 1_555 1_555
C33C C34 1_555 1_555
H21C C33C 1_555 1_555
O6 Nd1B 1_555 1_555
N4 C13 1_555 1_555
C4 C12 1_555 1_555
C5 C6 1_555 1_555
C7 C11 1_555 1_555
C9 C10 1_555 1_555
C11 C12 1_555 1_555
C18 C19 1_555 1_555
O6C C31C 1_555 1_555
N4C C13C 1_555 1_555
C4C C12C 1_555 1_555
C5C C6C 1_555 1_555
C7C C11C 1_555 1_555
C9C C10C 1_555 1_555
C11C C12C 1_555 1_555
C18C C19C 1_555 1_555
C21C C22C 1_555 1_555
C22C C23C 1_555 1_555
C26C C27C 1_555 1_555
C27C C28C 1_555 1_555
C31C C32C 1_555 1_555
C32C C33C 1_555 1_555

#END
