
#######################################################################
#
#                 Cambridge Crystallographic Data Centre
#                                CCDC 
#
#######################################################################
#
# If this CIF has been generated from an entry in the Cambridge 
# Structural Database, then it will include bibliographic, chemical, 
# crystal, experimental, refinement or atomic coordinate data resulting 
# from the CCDC's data processing and validation procedures.
#
#######################################################################

data_DAYQUP
_symmetry_cell_setting           orthorhombic
_symmetry_space_group_name_H-M   'P n m a'
_symmetry_Int_Tables_number      62
_space_group_name_Hall           '-P 2ac 2n'
loop_
_symmetry_equiv_pos_site_id
_symmetry_equiv_pos_as_xyz
1 x,y,z
2 1/2-x,-y,1/2+z
3 1/2+x,1/2-y,1/2-z
4 -x,1/2+y,-z
5 -x,-y,-z
6 1/2+x,y,1/2-z
7 1/2-x,1/2+y,1/2+z
8 x,1/2-y,z
_cell_length_a                   11.954(2)
_cell_length_b                   19.877(4)
_cell_length_c                   14.789(3)
_cell_angle_alpha                90
_cell_angle_beta                 90
_cell_angle_gamma                90
_cell_volume                     3514.01
loop_
_atom_site_label
_atom_site_type_symbol
_atom_site_fract_x
_atom_site_fract_y
_atom_site_fract_z
Cr1 Cr 0.9774(1) 0.2500 0.17116(9)
Cr2 Cr 0.9537(1) 0.2500 -0.05079(9)
K1 K 0.9531(2) 0.2500 0.5671(1)
O1 O 0.8004(4) 0.1450(4) 0.1584(4)
O2 O 1.1486(4) 0.1436(4) 0.1776(4)
O3 O 0.9589(3) 0.2500 0.3731(3)
O4 O 0.8952(4) 0.2500 -0.2495(4)
O5 O 0.7075(3) 0.2500 0.0006(4)
O6 O 0.9570(2) 0.4026(3) -0.0490(3)
O7 O 1.1984(3) 0.2500 -0.0997(3)
N1 N 0.8682(3) 0.3855(3) 0.5549(3)
N2 N 1.0639(3) 0.3637(3) 0.6476(3)
C1 C 0.7746(4) 0.3975(3) 0.5102(4)
C2 C 0.7325(3) 0.4624(3) 0.4981(3)
C3 C 0.7877(3) 0.5151(4) 0.5318(3)
C4 C 0.8835(3) 0.5048(3) 0.5794(4)
C5 C 0.9242(3) 0.4395(3) 0.5909(4)
C6 C 0.9468(3) 0.5605(4) 0.6193(4)
C7 C 1.0416(2) 0.5503(4) 0.6642(3)
C8 C 1.0826(3) 0.4822(3) 0.6768(3)
C9 C 1.1821(3) 0.4684(4) 0.7231(3)
C10 C 1.2185(2) 0.4056(3) 0.7332(3)
C11 C 1.1581(3) 0.3546(4) 0.6922(3)
C12 C 1.0247(4) 0.4279(3) 0.6392(3)
C13 C 0.8665(3) 0.1847(4) 0.1627(4)
C14 C 1.0841(4) 0.1845(4) 0.1756(4)
C15 C 0.9653(4) 0.2500 0.2957(4)
C16 C 0.9166(4) 0.2500 -0.1729(4)
C17 C 0.7997(4) 0.2500 -0.0212(5)
C18 C 0.9547(3) 0.3462(3) -0.0485(3)
C19 C 1.1065(3) 0.2500 -0.0800(4)
H1 H 1.016(4) 0.2500 0.061(5)
H2 H 0.7344 0.3606 0.4853
H3 H 0.6646 0.4690 0.4660
H4 H 0.7603 0.5594 0.5227
H5 H 0.9193 0.6050 0.6129
H6 H 1.0822 0.5873 0.6880
H7 H 1.2243 0.5045 0.7478
H8 H 1.2838 0.3959 0.7675
H9 H 1.1864 0.3101 0.6966
C13G C 0.8665(3) 0.3153(4) 0.1627(4)
O1G O 0.8004(4) 0.3550(4) 0.1584(4)
C14G C 1.0841(4) 0.3155(4) 0.1756(4)
O2G O 1.1486(4) 0.3564(4) 0.1776(4)
C18G C 0.9547(3) 0.1538(3) -0.0485(3)
O6G O 0.9570(2) 0.0974(3) -0.0490(3)
O4_2 O 0.8952(4) 0.2500 0.7505(4)
O5B O 1.2075(3) 0.2500 0.4994(4)
O7B O 0.6984(3) 0.2500 0.5997(3)
N1G N 0.8682(3) 0.1145(3) 0.5549(3)
N2G N 1.0639(3) 0.1363(3) 0.6476(3)
C1G C 0.7746(4) 0.1025(3) 0.5102(4)
C2G C 0.7325(3) 0.0376(3) 0.4981(3)
C3G C 0.7877(3) -0.0151(4) 0.5318(3)
C4G C 0.8835(3) -0.0048(3) 0.5794(4)
C5G C 0.9242(3) 0.0605(3) 0.5909(4)
C6G C 0.9468(3) -0.0605(4) 0.6193(4)
C7G C 1.0416(2) -0.0503(4) 0.6642(3)
C8G C 1.0826(3) 0.0178(3) 0.6768(3)
C9G C 1.1821(3) 0.0316(4) 0.7231(3)
C10G C 1.2185(2) 0.0944(3) 0.7332(3)
C11G C 1.1581(3) 0.1454(4) 0.6922(3)
C12G C 1.0247(4) 0.0721(3) 0.6392(3)
H2G H 0.7344 0.1394 0.4853
H3G H 0.6646 0.0310 0.4660
H4G H 0.7603 -0.0594 0.5227
H5G H 0.9193 -0.1050 0.6129
H6G H 1.0822 -0.0873 0.6880
H7G H 1.2243 -0.0045 0.7478
H8G H 1.2838 0.1041 0.7675
H9G H 1.1864 0.1899 0.6966
K1B K 1.4531(2) 0.2500 -0.0671(1)
K1B_2 K 0.4531(2) 0.2500 -0.0671(1)
K1_2 K 0.9531(2) 0.2500 -0.4329(1)
loop_
_geom_bond_atom_site_label_1
_geom_bond_atom_site_label_2
_geom_bond_site_symmetry_1
_geom_bond_site_symmetry_2
Cr1 C13 1_555 1_555
Cr2 C16 1_555 1_555
K1 O3 1_555 1_555
O1 C13 1_555 1_555
O2 C14 1_555 1_555
O3 C15 1_555 1_555
O4 C16 1_555 1_555
O5 C17 1_555 1_555
O6 C18 1_555 1_555
O7 C19 1_555 1_555
N1 K1 1_555 1_555
N2 K1 1_555 1_555
C1 N1 1_555 1_555
C2 C1 1_555 1_555
C3 C2 1_555 1_555
C4 C3 1_555 1_555
C5 N1 1_555 1_555
C6 C4 1_555 1_555
C7 C6 1_555 1_555
C8 C7 1_555 1_555
C9 C8 1_555 1_555
C10 C9 1_555 1_555
C11 N2 1_555 1_555
C12 N2 1_555 1_555
C14 Cr1 1_555 1_555
C15 Cr1 1_555 1_555
C17 Cr2 1_555 1_555
C18 Cr2 1_555 1_555
C19 Cr2 1_555 1_555
H1 Cr1 1_555 1_555
H2 C1 1_555 1_555
H3 C2 1_555 1_555
H4 C3 1_555 1_555
H5 C6 1_555 1_555
H6 C7 1_555 1_555
H7 C9 1_555 1_555
H8 C10 1_555 1_555
H9 C11 1_555 1_555
C13G Cr1 1_555 1_555
O1G C13G 1_555 1_555
C14G Cr1 1_555 1_555
O2G C14G 1_555 1_555
C18G Cr2 1_555 1_555
O6G C18G 1_555 1_555
O4_2 K1 1_555 1_555
O5B K1 1_555 1_555
O7B K1 1_555 1_555
N1G K1 1_555 1_555
N2G K1 1_555 1_555
C1G N1G 1_555 1_555
C2G C1G 1_555 1_555
C3G C2G 1_555 1_555
C4G C3G 1_555 1_555
C5G N1G 1_555 1_555
C6G C4G 1_555 1_555
C7G C6G 1_555 1_555
C8G C7G 1_555 1_555
C9G C8G 1_555 1_555
C10G C9G 1_555 1_555
C11G N2G 1_555 1_555
C12G N2G 1_555 1_555
H2G C1G 1_555 1_555
H3G C2G 1_555 1_555
H4G C3G 1_555 1_555
H5G C6G 1_555 1_555
H6G C7G 1_555 1_555
H7G C9G 1_555 1_555
H8G C10G 1_555 1_555
H9G C11G 1_555 1_555
K1B O7 1_555 1_555
K1B_2 O5 1_555 1_555
K1_2 O4 1_555 1_555
Cr2 H1 1_555 1_555
C4 C5 1_555 1_555
C5 C12 1_555 1_555
C8 C12 1_555 1_555
C10 C11 1_555 1_555
C4G C5G 1_555 1_555
C5G C12G 1_555 1_555
C8G C12G 1_555 1_555
C10G C11G 1_555 1_555

#END
