
#######################################################################
#
#                 Cambridge Crystallographic Data Centre
#                                CCDC 
#
#######################################################################
#
# If this CIF has been generated from an entry in the Cambridge 
# Structural Database, then it will include bibliographic, chemical, 
# crystal, experimental, refinement or atomic coordinate data resulting 
# from the CCDC's data processing and validation procedures.
#
#######################################################################

data_DAYREC
_symmetry_cell_setting           orthorhombic
_symmetry_space_group_name_H-M   'P n a 21'
_symmetry_Int_Tables_number      33
_space_group_name_Hall           'P 2c -2n'
loop_
_symmetry_equiv_pos_site_id
_symmetry_equiv_pos_as_xyz
1 x,y,z
2 -x,-y,1/2+z
3 1/2-x,1/2+y,1/2+z
4 1/2+x,1/2-y,z
_cell_length_a                   8.0559(4)
_cell_length_b                   8.0553(4)
_cell_length_c                   37.139(2)
_cell_angle_alpha                90
_cell_angle_beta                 90
_cell_angle_gamma                90
_cell_volume                     2410.05
loop_
_atom_site_label
_atom_site_type_symbol
_atom_site_fract_x
_atom_site_fract_y
_atom_site_fract_z
Co1 Co 0.86849(8) 0.74951(8) 0.25650(5)
C1 C 0.9274(7) 1.0426(7) 0.11242(14)
C2 C 1.0135(7) 1.1083(7) 0.08303(17)
C3 C 1.0659(7) 1.0038(8) 0.05530(17)
H1 H 1.1229 1.0470 0.0356
C4 C 1.0323(8) 0.8339(8) 0.05724(18)
C5 C 0.9495(8) 0.7682(7) 0.0863(2)
H2 H 0.9292 0.6547 0.0875
C6 C 0.8962(8) 0.8725(8) 0.11397(17)
H3 H 0.8395 0.8283 0.1336
C7 C 0.7755(7) 1.0915(8) 0.16701(15)
H4 H 0.6919 1.0185 0.1569
H5 H 0.7188 1.1833 0.1786
C8 C 0.8765(6) 0.9961(8) 0.19517(15)
C9 C 0.8088(6) 0.4507(6) 0.39947(13)
C10 C 0.7234(7) 0.3824(7) 0.42874(15)
C11 C 0.6638(8) 0.4839(8) 0.45590(16)
H6 H 0.6049 0.4392 0.4751
C12 C 0.6937(7) 0.6561(8) 0.45399(15)
C13 C 0.7781(9) 0.7215(9) 0.4255(2)
H7 H 0.7981 0.8351 0.4245
C14 C 0.8341(8) 0.6207(7) 0.39798(17)
H8 H 0.8891 0.6671 0.3784
C15 C 0.9606(7) 0.4070(8) 0.34528(15)
H9 H 1.0183 0.3171 0.3332
H10 H 1.0437 0.4792 0.3558
C16 C 0.8620(6) 0.5047(7) 0.31759(16)
Cl1 Cl 1.0478(2) 1.3173(2) 0.08020(5)
Cl2 Cl 1.0949(3) 0.7059(4) 0.02293(6)
Cl3 Cl 0.6938(2) 0.17302(18) 0.43159(4)
Cl4 Cl 0.6221(2) 0.7827(3) 0.48839(7)
O1 O 0.7872(5) 0.9096(5) 0.21614(10)
O2 O 1.0287(5) 1.0066(6) 0.19621(11)
O3 O 0.8782(5) 1.1545(5) 0.13851(10)
O4 O 0.9522(4) 0.5894(5) 0.29633(10)
O5 O 0.7094(5) 0.4896(6) 0.31559(11)
O6 O 0.8599(5) 0.3389(5) 0.37355(10)
O7 O 0.9505(5) 0.5815(6) 0.21920(11)
H11 H 1.0519 0.5588 0.2218
H12 H 0.9373 0.6012 0.1971
O8 O 0.7855(5) 0.9170(5) 0.29356(11)
H13 H 0.6817 0.9111 0.2947
H14 H 0.8193 0.9409 0.3144
O9 O 0.6188(4) 0.6413(3) 0.25639(11)
H15 H 0.6187 0.5969 0.2763
H16 H 0.6086 0.5633 0.2422
Co1C Co 0.36849(8) 0.75049(8) 0.25650(5)
O9C O 1.1188(4) 0.8587(3) 0.25639(11)
H15C H 1.1187 0.9031 0.2763
H16C H 1.1086 0.9367 0.2422
O10 O 0.3144(6) -0.0099(6) 0.15375(11)
H17 H 0.3437 0.0635 0.1387
H18 H 0.2144 0.0092 0.1586
O11 O 0.9244(5) -0.0174(5) 0.35874(11)
H19 H 0.8787 0.0604 0.3704
H20 H 1.0271 -0.0013 0.3602
loop_
_geom_bond_atom_site_label_1
_geom_bond_atom_site_label_2
_geom_bond_site_symmetry_1
_geom_bond_site_symmetry_2
Co1 O1 1_555 1_555
C1 C2 1_555 1_555
C2 C3 1_555 1_555
C3 H1 1_555 1_555
C4 C3 1_555 1_555
C5 C4 1_555 1_555
H2 C5 1_555 1_555
C6 C1 1_555 1_555
H3 C6 1_555 1_555
C7 H4 1_555 1_555
H5 C7 1_555 1_555
C8 C7 1_555 1_555
C9 C10 1_555 1_555
C10 C11 1_555 1_555
C11 H6 1_555 1_555
C12 C11 1_555 1_555
C13 C12 1_555 1_555
H7 C13 1_555 1_555
C14 C9 1_555 1_555
H8 C14 1_555 1_555
C15 H9 1_555 1_555
H10 C15 1_555 1_555
C16 C15 1_555 1_555
Cl1 C2 1_555 1_555
Cl2 C4 1_555 1_555
Cl3 C10 1_555 1_555
Cl4 C12 1_555 1_555
O1 C8 1_555 1_555
O2 C8 1_555 1_555
O3 C1 1_555 1_555
O4 Co1 1_555 1_555
O5 C16 1_555 1_555
O6 C9 1_555 1_555
O7 Co1 1_555 1_555
H11 O7 1_555 1_555
H12 O7 1_555 1_555
O8 Co1 1_555 1_555
H13 O8 1_555 1_555
H14 O8 1_555 1_555
O9 Co1 1_555 1_555
H15 O9 1_555 1_555
H16 O9 1_555 1_555
O10 H17 1_555 1_555
H18 O10 1_555 1_555
O11 H19 1_555 1_555
H20 O11 1_555 1_555
Co1C O9 1_555 1_555
O9C Co1 1_555 1_555
H15C O9C 1_555 1_555
H16C O9C 1_555 1_555
C5 C6 1_555 1_555
C7 O3 1_555 1_555
C13 C14 1_555 1_555
C15 O6 1_555 1_555
C16 O4 1_555 1_555

#END
