
#######################################################################
#
#                 Cambridge Crystallographic Data Centre
#                                CCDC 
#
#######################################################################
#
# If this CIF has been generated from an entry in the Cambridge 
# Structural Database, then it will include bibliographic, chemical, 
# crystal, experimental, refinement or atomic coordinate data resulting 
# from the CCDC's data processing and validation procedures.
#
#######################################################################

data_DAYRIG
_symmetry_cell_setting           monoclinic
_symmetry_space_group_name_H-M   'P 21/c'
_symmetry_Int_Tables_number      14
_space_group_name_Hall           '-P 2ybc'
loop_
_symmetry_equiv_pos_site_id
_symmetry_equiv_pos_as_xyz
1 x,y,z
2 -x,1/2+y,1/2-z
3 -x,-y,-z
4 x,1/2-y,1/2+z
_cell_length_a                   8.0506(6)
_cell_length_b                   14.4153(10)
_cell_length_c                   14.9766(8)
_cell_angle_alpha                90
_cell_angle_beta                 119.514(3)
_cell_angle_gamma                90
_cell_volume                     1512.52
loop_
_atom_site_label
_atom_site_type_symbol
_atom_site_fract_x
_atom_site_fract_y
_atom_site_fract_z
C1 C 0.6215(6) -0.0603(3) 0.3078(3)
C2 C 0.6576(7) -0.0403(3) 0.4059(3)
C3 C 0.6243(7) -0.1039(3) 0.4644(3)
H1 H 0.6492 -0.0892 0.5304
C4 C 0.5534(6) -0.1897(3) 0.4224(4)
C5 C 0.5165(6) -0.2119(3) 0.3249(3)
H2 H 0.4704 -0.2704 0.2978
C6 C 0.5483(6) -0.1470(3) 0.2683(3)
H3 H 0.5201 -0.1615 0.2017
C7 C 0.5817(6) -0.0040(3) 0.1496(3)
H4 H 0.6219 -0.0631 0.1357
H5 H 0.6292 0.0446 0.1232
C8 C 0.3658(5) -0.0003(2) 0.0941(3)
C9 C -0.0050(6) 0.1438(2) 0.2544(3)
H6 H -0.0064 0.0808 0.2673
C10 C -0.0133(6) 0.2064(2) 0.3222(3)
H7 H -0.0205 0.1860 0.3791
C11 C -0.0106(5) 0.3003(2) 0.3030(3)
C12 C -0.0029(6) 0.3268(2) 0.2170(3)
H8 H -0.0034 0.3894 0.2016
C13 C 0.0056(6) 0.2596(2) 0.1533(3)
H9 H 0.0121 0.2784 0.0957
C14 C -0.0101(5) 0.3725(2) 0.3768(3)
Cl1 Cl 0.7496(3) 0.06831(10) 0.45840(11)
Cl2 Cl 0.5057(2) -0.27081(10) 0.49280(11)
N1 N 0.0048(4) 0.16931(19) 0.1712(2)
O1 O 0.2893(4) 0.05523(19) 0.1268(2)
O2 O 0.2810(4) -0.05239(19) 0.0177(2)
O3 O 0.6635(4) 0.00714(19) 0.2579(2)
O4 O -0.0109(4) 0.45502(17) 0.3520(2)
O5 O -0.0090(4) 0.34335(18) 0.45607(19)
Zn1 Zn 0.00584(6) 0.07425(2) 0.07163(3)
O2B O -0.2810(4) 0.05239(19) -0.0177(2)
O4A O 0.0109(4) -0.04498(17) 0.1480(2)
O5C O -0.0090(4) 0.15665(18) -0.04393(19)
Zn1B Zn -0.00584(6) -0.07425(2) -0.07163(3)
Zn1A Zn -0.00584(6) 0.57425(2) 0.42837(3)
Zn1C Zn 0.00584(6) 0.42575(2) 0.57163(3)
loop_
_geom_bond_atom_site_label_1
_geom_bond_atom_site_label_2
_geom_bond_site_symmetry_1
_geom_bond_site_symmetry_2
C1 C2 1_555 1_555
C2 C3 1_555 1_555
C3 H1 1_555 1_555
C4 C3 1_555 1_555
C5 C4 1_555 1_555
H2 C5 1_555 1_555
C6 C1 1_555 1_555
H3 C6 1_555 1_555
C7 H4 1_555 1_555
H5 C7 1_555 1_555
C8 C7 1_555 1_555
C9 H6 1_555 1_555
C10 C9 1_555 1_555
H7 C10 1_555 1_555
C11 C10 1_555 1_555
C12 C11 1_555 1_555
H8 C12 1_555 1_555
C13 C12 1_555 1_555
H9 C13 1_555 1_555
C14 C11 1_555 1_555
Cl1 C2 1_555 1_555
Cl2 C4 1_555 1_555
N1 C9 1_555 1_555
O1 C8 1_555 1_555
O2 C8 1_555 1_555
O3 C1 1_555 1_555
O4 C14 1_555 1_555
O5 C14 1_555 1_555
Zn1 N1 1_555 1_555
O2B Zn1 1_555 1_555
O4A Zn1 1_555 1_555
O5C Zn1 1_555 1_555
Zn1B O2 1_555 1_555
Zn1A O4 1_555 1_555
Zn1C O5 1_555 1_555
C5 C6 1_555 1_555
C7 O3 1_555 1_555
C13 N1 1_555 1_555
O1 Zn1 1_555 1_555

#END
