
#######################################################################
#
#                 Cambridge Crystallographic Data Centre
#                                CCDC 
#
#######################################################################
#
# If this CIF has been generated from an entry in the Cambridge 
# Structural Database, then it will include bibliographic, chemical, 
# crystal, experimental, refinement or atomic coordinate data resulting 
# from the CCDC's data processing and validation procedures.
#
#######################################################################

data_DAYVIJ
_symmetry_cell_setting           monoclinic
_symmetry_space_group_name_H-M   'P 21/c'
_symmetry_Int_Tables_number      14
_space_group_name_Hall           '-P 2ybc'
loop_
_symmetry_equiv_pos_site_id
_symmetry_equiv_pos_as_xyz
1 x,y,z
2 -x,1/2+y,1/2-z
3 -x,-y,-z
4 x,1/2-y,1/2+z
_cell_length_a                   9.2193(13)
_cell_length_b                   7.9209(12)
_cell_length_c                   10.2436(15)
_cell_angle_alpha                90
_cell_angle_beta                 90.034(2)
_cell_angle_gamma                90
_cell_volume                     748.04
loop_
_atom_site_label
_atom_site_type_symbol
_atom_site_fract_x
_atom_site_fract_y
_atom_site_fract_z
Cd1 Cd 0.0000 0.0000 0.5000
N1 N -0.1067(2) 0.1502(3) 0.6719(2)
N2 N -0.1080(2) 0.3270(3) 0.8446(2)
N3 N 0.2138(2) 0.1965(3) 0.5093(2)
C1 C -0.2163(3) 0.2653(3) 0.6560(3)
H1 H -0.2795 0.2701 0.5853
C2 C -0.2177(3) 0.3716(3) 0.7606(3)
H2 H -0.2825 0.4601 0.7731
C3 C -0.0466(3) 0.1939(3) 0.7862(2)
H3 H 0.0317 0.1362 0.8222
C4 C 0.2118(3) 0.3364(3) 0.5810(3)
H4 H 0.1317 0.3551 0.6342
C5 C 0.3211(3) 0.4556(3) 0.5817(3)
H5 H 0.3139 0.5498 0.6355
C6 C 0.4408(3) 0.4353(3) 0.5028(3)
C7 C 0.4445(3) 0.2892(4) 0.4279(3)
H6 H 0.5233 0.2676 0.3737
C8 C 0.3306(3) 0.1760(4) 0.4340(3)
H7 H 0.3358 0.0795 0.3825
Cd1C Cd 0.0000 0.5000 1.0000
Cd1_2 Cd 1.0000 1.0000 0.5000
Cd1C_2 Cd 0.0000 -0.5000 0.0000
N1B N 0.1067(2) -0.1502(3) 0.3281(2)
N2B N 0.1080(2) -0.3270(3) 0.1554(2)
N2C N -0.1080(2) 0.1730(3) 0.3446(2)
N2A N 0.1080(2) -0.1730(3) 0.6554(2)
N3B N 0.7862(2) 0.8035(3) 0.4907(2)
N3B_2 N -0.2138(2) -0.1965(3) 0.4907(2)
C1B C 0.2163(3) -0.2653(3) 0.3440(3)
H1B H 0.2795 -0.2701 0.4147
C2B C 0.2177(3) -0.3716(3) 0.2394(3)
H2B H 0.2825 -0.4601 0.2269
C3B C 0.0466(3) -0.1939(3) 0.2138(2)
H3B H -0.0317 -0.1362 0.1778
C4B C 0.7882(3) 0.6636(3) 0.4190(3)
H4B H 0.8683 0.6449 0.3658
C5B C 0.6789(3) 0.5444(3) 0.4183(3)
H5B H 0.6861 0.4502 0.3645
C6B C 0.5592(3) 0.5647(3) 0.4972(3)
C7B C 0.5555(3) 0.7108(4) 0.5721(3)
H6B H 0.4767 0.7324 0.6263
C8B C 0.6694(3) 0.8240(4) 0.5660(3)
H7B H 0.6642 0.9205 0.6175
loop_
_geom_bond_atom_site_label_1
_geom_bond_atom_site_label_2
_geom_bond_site_symmetry_1
_geom_bond_site_symmetry_2
Cd1 N1 1_555 1_555
N1 C1 1_555 1_555
N2 C2 1_555 1_555
N3 Cd1 1_555 1_555
C1 H1 1_555 1_555
C2 C1 1_555 1_555
H2 C2 1_555 1_555
C3 N1 1_555 1_555
H3 C3 1_555 1_555
C4 N3 1_555 1_555
H4 C4 1_555 1_555
C5 C4 1_555 1_555
H5 C5 1_555 1_555
C6 C5 1_555 1_555
C7 C6 1_555 1_555
H6 C7 1_555 1_555
C8 N3 1_555 1_555
H7 C8 1_555 1_555
Cd1C N2 1_555 1_555
Cd1_2 N3B 1_555 1_555
Cd1C_2 N2B 1_555 1_555
N1B Cd1 1_555 1_555
N2B C2B 1_555 1_555
N2C Cd1 1_555 1_555
N2A Cd1 1_555 1_555
N3B C4B 1_555 1_555
N3B_2 Cd1 1_555 1_555
C1B N1B 1_555 1_555
H1B C1B 1_555 1_555
C2B C1B 1_555 1_555
H2B C2B 1_555 1_555
C3B N1B 1_555 1_555
H3B C3B 1_555 1_555
C4B H4B 1_555 1_555
C5B C4B 1_555 1_555
H5B C5B 1_555 1_555
C6B C6 1_555 1_555
C7B C6B 1_555 1_555
H6B C7B 1_555 1_555
C8B N3B 1_555 1_555
H7B C8B 1_555 1_555
N2 C3 1_555 1_555
C7 C8 1_555 1_555
N2B C3B 1_555 1_555
C5B C6B 1_555 1_555
C7B C8B 1_555 1_555

#END
