
#######################################################################
#
#                 Cambridge Crystallographic Data Centre
#                                CCDC 
#
#######################################################################
#
# If this CIF has been generated from an entry in the Cambridge 
# Structural Database, then it will include bibliographic, chemical, 
# crystal, experimental, refinement or atomic coordinate data resulting 
# from the CCDC's data processing and validation procedures.
#
#######################################################################

data_DAYXAD
_symmetry_cell_setting           orthorhombic
_symmetry_space_group_name_H-M   'P b c a'
_symmetry_Int_Tables_number      61
_space_group_name_Hall           '-P 2ac 2ab'
loop_
_symmetry_equiv_pos_site_id
_symmetry_equiv_pos_as_xyz
1 x,y,z
2 1/2-x,-y,1/2+z
3 -x,1/2+y,1/2-z
4 1/2+x,1/2-y,-z
5 -x,-y,-z
6 1/2+x,y,1/2-z
7 x,1/2-y,1/2+z
8 1/2-x,1/2+y,z
_cell_length_a                   13.8042(9)
_cell_length_b                   6.7910(4)
_cell_length_c                   21.7163(13)
_cell_angle_alpha                90
_cell_angle_beta                 90
_cell_angle_gamma                90
_cell_volume                     2035.78
loop_
_atom_site_label
_atom_site_type_symbol
_atom_site_fract_x
_atom_site_fract_y
_atom_site_fract_z
Dy1 Dy 0.169168(10) 0.01688(2) 0.445231(6)
O1 O 0.1372(2) 0.0378(3) 0.54864(8)
O2 O -0.01061(14) -0.0721(3) 0.56733(8)
C1 C 0.0746(2) -0.0328(4) 0.58392(11)
C2 C 0.10153(19) -0.0742(4) 0.64940(11)
C3 C 0.0351(2) -0.1567(5) 0.68975(11)
H1 H -0.0270 -0.1867 0.6760
C4 C 0.0603(2) -0.1949(5) 0.75024(12)
H2 H 0.0155 -0.2511 0.7770
C5 C 0.1528(2) -0.1488(4) 0.77090(11)
C6 C 0.1810(2) -0.1971(4) 0.83627(11)
C7 C 0.2195(2) -0.0663(5) 0.73096(12)
H3 H 0.2816 -0.0362 0.7447
C8 C 0.1937(3) -0.0287(5) 0.67054(14)
H4 H 0.2385 0.0275 0.6438
O3 O 0.26033(15) -0.1329(3) 0.85588(8)
O4 O 0.12364(15) -0.3007(3) 0.86707(8)
O5 O 0.33330(13) -0.1295(4) 0.45301(10)
O6 O 0.32407(13) 0.1752(3) 0.48311(9)
C9 C 0.3745(2) 0.0284(4) 0.46824(15)
C10 C 0.4838(3) 0.0410(5) 0.46880(16)
H5 H 0.5048 0.1765 0.4641
H6 H 0.5111 -0.0364 0.4355
Dy1D Dy -0.169168(10) -0.01688(2) 0.554769(6)
Dy1A Dy 0.330832(10) -0.01688(2) 0.945231(6)
Dy1F Dy 0.169168(10) -0.51688(2) 0.945231(6)
Dy1G Dy 0.330832(10) -0.48312(2) 0.445231(6)
Dy1G_2 Dy 0.330832(10) 0.51688(2) 0.445231(6)
Dy1D_2 Dy 0.830832(10) -0.01688(2) 0.554769(6)
Dy1C Dy 0.669168(10) 0.48312(2) 0.554769(6)
Dy1C_2 Dy 0.669168(10) -0.51688(2) 0.554769(6)
Dy1E Dy -0.330832(10) 0.01688(2) 0.054769(6)
Dy1B Dy -0.169168(10) 0.51688(2) 0.054769(6)
O1D O -0.1372(2) -0.0378(3) 0.45136(8)
O2D O 0.01061(14) 0.0721(3) 0.43267(8)
C1D C -0.0746(2) 0.0328(4) 0.41608(11)
C2D C -0.10153(19) 0.0742(4) 0.35060(11)
C3D C -0.0351(2) 0.1567(5) 0.31025(11)
H1D H 0.0270 0.1867 0.3240
C4D C -0.0603(2) 0.1949(5) 0.24976(12)
H2D H -0.0155 0.2511 0.2230
C5D C -0.1528(2) 0.1488(4) 0.22910(11)
C6D C -0.1810(2) 0.1971(4) 0.16373(11)
C7D C -0.2195(2) 0.0663(5) 0.26904(12)
H3D H -0.2816 0.0362 0.2553
C8D C -0.1937(3) 0.0287(5) 0.32946(14)
H4D H -0.2385 -0.0275 0.3562
O3D O -0.26033(15) 0.1329(3) 0.14412(8)
O3A O 0.23967(15) 0.1329(3) 0.35588(8)
O3E O -0.23967(15) -0.1329(3) 0.64412(8)
O4D O -0.12364(15) 0.3007(3) 0.13293(8)
O4F O 0.12364(15) -0.1993(3) 0.36707(8)
O4B O -0.12364(15) 0.1993(3) 0.63293(8)
O5D O 0.66670(13) 0.1295(4) 0.54699(10)
O5G O 0.16670(13) 0.3705(4) 0.45301(10)
O5D_2 O -0.33330(13) 0.1295(4) 0.54699(10)
O5C O -0.16670(13) -0.3705(4) 0.54699(10)
O6D O 0.67593(13) -0.1752(3) 0.51689(9)
O6G O 0.17593(13) -0.3248(3) 0.48311(9)
O6D_2 O -0.32407(13) -0.1752(3) 0.51689(9)
O6C O -0.17593(13) 0.3248(3) 0.51689(9)
C9D C 0.6255(2) -0.0284(4) 0.53176(15)
C10D C 0.5162(3) -0.0410(5) 0.53120(16)
H5D H 0.4952 -0.1765 0.5359
H6D H 0.4889 0.0364 0.5645
loop_
_geom_bond_atom_site_label_1
_geom_bond_atom_site_label_2
_geom_bond_site_symmetry_1
_geom_bond_site_symmetry_2
Dy1 O1 1_555 1_555
O1 C1 1_555 1_555
O2 C1 1_555 1_555
C1 C2 1_555 1_555
C2 C3 1_555 1_555
C3 H1 1_555 1_555
C4 C3 1_555 1_555
H2 C4 1_555 1_555
C5 C4 1_555 1_555
C6 C5 1_555 1_555
C7 C5 1_555 1_555
H3 C7 1_555 1_555
C8 C2 1_555 1_555
H4 C8 1_555 1_555
O3 C6 1_555 1_555
O4 C6 1_555 1_555
O5 Dy1 1_555 1_555
O6 Dy1 1_555 1_555
C9 O5 1_555 1_555
C10 C9 1_555 1_555
H5 C10 1_555 1_555
H6 C10 1_555 1_555
Dy1D O2 1_555 1_555
Dy1A O3 1_555 1_555
Dy1F O4 1_555 1_555
Dy1G O5 1_555 1_555
Dy1G_2 O6 1_555 1_555
Dy1D_2 O5D 1_555 1_555
Dy1C O5D 1_555 1_555
Dy1C_2 O6D 1_555 1_555
Dy1E O3D 1_555 1_555
Dy1B O4D 1_555 1_555
O1D Dy1D 1_555 1_555
O2D Dy1 1_555 1_555
C1D O1D 1_555 1_555
C2D C1D 1_555 1_555
C3D C2D 1_555 1_555
H1D C3D 1_555 1_555
C4D C3D 1_555 1_555
H2D C4D 1_555 1_555
C5D C4D 1_555 1_555
C6D C5D 1_555 1_555
C7D C5D 1_555 1_555
H3D C7D 1_555 1_555
C8D C2D 1_555 1_555
H4D C8D 1_555 1_555
O3D C6D 1_555 1_555
O3A Dy1 1_555 1_555
O3E Dy1D 1_555 1_555
O4D C6D 1_555 1_555
O4F Dy1 1_555 1_555
O4B Dy1D 1_555 1_555
O5D C9D 1_555 1_555
O5G Dy1 1_555 1_555
O5D_2 Dy1D 1_555 1_555
O5C Dy1D 1_555 1_555
O6D Dy1D_2 1_555 1_555
O6G Dy1 1_555 1_555
O6D_2 Dy1D 1_555 1_555
O6C Dy1D 1_555 1_555
C9D O6D 1_555 1_555
C10D C10 1_555 1_555
H5D C10D 1_555 1_555
H6D C10D 1_555 1_555
C7 C8 1_555 1_555
O6 C9 1_555 1_555
Dy1G O6G 1_555 1_555
Dy1G_2 O5G 1_555 1_555
O2D C1D 1_555 1_555
C7D C8D 1_555 1_555
C9D C10D 1_555 1_555

#END
