
#######################################################################
#
#                 Cambridge Crystallographic Data Centre
#                                CCDC 
#
#######################################################################
#
# If this CIF has been generated from an entry in the Cambridge 
# Structural Database, then it will include bibliographic, chemical, 
# crystal, experimental, refinement or atomic coordinate data resulting 
# from the CCDC's data processing and validation procedures.
#
#######################################################################

data_DAZDIS
_symmetry_cell_setting           hexagonal
_symmetry_space_group_name_H-M   'P 65'
_symmetry_Int_Tables_number      170
_space_group_name_Hall           'P 65'
loop_
_symmetry_equiv_pos_site_id
_symmetry_equiv_pos_as_xyz
1 x,y,z
2 -x,-y,1/2+z
3 -y,x-y,2/3+z
4 -x+y,-x,1/3+z
5 x-y,x,5/6+z
6 y,-x+y,1/6+z
_cell_length_a                   14.408(2)
_cell_length_b                   14.408(2)
_cell_length_c                   21.630(4)
_cell_angle_alpha                90
_cell_angle_beta                 90
_cell_angle_gamma                120
_cell_volume                     3888.61
loop_
_atom_site_label
_atom_site_type_symbol
_atom_site_fract_x
_atom_site_fract_y
_atom_site_fract_z
Cu1 Cu 0.49488(4) 0.00056(4) 0.50004(5)
O1 O 0.3917(3) -0.0023(3) 0.5596(2)
O2 O 0.5016(2) 0.0021(3) 0.6330(2)
O3 O 0.3345(2) 0.0087(3) 0.8301(2)
O4 O 0.2685(3) -0.0082(3) 0.9884(2)
O5 O 0.4064(2) -0.0022(3) 0.93770(10)
N1 N 0.4281(3) -0.1623(3) 0.5108(2)
N2 N 0.3847(3) -0.0051(3) 0.4194(2)
N3 N 0.5853(3) 0.1641(3) 0.5095(2)
C1 C 0.4879(4) -0.2089(4) 0.5137(2)
C2 C 0.4450(5) -0.3187(5) 0.5173(3)
C3 C 0.3375(6) -0.3827(5) 0.5187(3)
C4 C 0.2742(5) -0.3359(5) 0.5161(3)
C5 C 0.3231(4) -0.2256(5) 0.5123(2)
C6 C 0.2907(5) -0.0092(6) 0.4291(3)
C7 C 0.2264(6) -0.0115(7) 0.3827(5)
C8 C 0.2566(8) -0.0110(7) 0.3230(4)
C9 C 0.3535(6) -0.0069(5) 0.3111(3)
C10 C 0.4121(5) -0.0044(4) 0.3609(2)
C11 C 0.5377(4) 0.2232(4) 0.5104(2)
C12 C 0.5962(4) 0.3341(4) 0.5150(3)
C13 C 0.7045(5) 0.3843(4) 0.5193(2)
C14 C 0.7541(4) 0.3228(5) 0.5190(2)
C15 C 0.6908(4) 0.2136(4) 0.5139(2)
C16 C 0.4187(4) -0.0019(3) 0.6157(2)
C17 C 0.3398(3) -0.0076(3) 0.6637(2)
C18 C 0.2378(3) -0.0280(3) 0.6474(2)
C19 C 0.1669(4) -0.0353(4) 0.6931(2)
C20 C 0.1953(3) -0.0227(3) 0.7550(2)
C21 C 0.2973(3) -0.0039(3) 0.7704(2)
C22 C 0.3678(3) 0.0041(4) 0.7254(2)
C23 C 0.2649(4) -0.0051(4) 0.8796(2)
C24 C 0.3179(4) -0.0046(4) 0.9400(2)
H7 H 0.5621 -0.1654 0.5134
H8 H 0.4897 -0.3481 0.5187
H9 H 0.3067 -0.4567 0.5213
H10 H 0.1999 -0.3779 0.5170
H11 H 0.2800 -0.1945 0.5106
H12 H 0.2686 -0.0106 0.4697
H13 H 0.1623 -0.0133 0.3915
H14 H 0.2131 -0.0133 0.2906
H15 H 0.3770 -0.0059 0.2709
H16 H 0.4768 -0.0020 0.3533
H17 H 0.4634 0.1892 0.5079
H18 H 0.5613 0.3737 0.5152
H19 H 0.7449 0.4585 0.5224
H20 H 0.8282 0.3547 0.5221
H21 H 0.7239 0.1723 0.5136
H22 H 0.2173 -0.0366 0.6061
H23 H 0.0989 -0.0490 0.6819
H24 H 0.1478 -0.0266 0.7853
H25 H 0.4358 0.0177 0.7367
H26 H 0.1984 -0.0725 0.8749
H27 H 0.2483 0.0523 0.8794
Cu1A Cu 0.50512(4) -0.00056(4) 1.00004(5)
O5A O 0.5936(2) 0.0022(3) 0.43770(10)
O6 O 0.6947(5) 0.0025(6) 0.6174(3)
H1 H 0.6281 -0.0374 0.6248
H2 H 0.7083 -0.0099 0.5809
O7 O 0.8857(6) 0.0568(5) 0.6762(3)
H3 H 0.9357 0.0979 0.6514
H4 H 0.8383 0.0030 0.6555
O8 O 0.9723(9) -0.0003(8) 0.7682(7)
H5 H 0.9504 0.0179 0.7357
H6 H 0.9992 -0.0406 0.7548
loop_
_geom_bond_atom_site_label_1
_geom_bond_atom_site_label_2
_geom_bond_site_symmetry_1
_geom_bond_site_symmetry_2
Cu1 O1 1_555 1_555
O1 C16 1_555 1_555
O2 C16 1_555 1_555
O3 C21 1_555 1_555
O4 C24 1_555 1_555
O5 C24 1_555 1_555
O6 H1 1_555 1_555
O7 H3 1_555 1_555
O8 H5 1_555 1_555
N1 Cu1 1_555 1_555
N2 Cu1 1_555 1_555
N3 Cu1 1_555 1_555
C1 N1 1_555 1_555
C2 C1 1_555 1_555
C3 C2 1_555 1_555
C4 C3 1_555 1_555
C5 N1 1_555 1_555
C6 N2 1_555 1_555
C7 C6 1_555 1_555
C8 C7 1_555 1_555
C9 C8 1_555 1_555
C10 N2 1_555 1_555
C11 N3 1_555 1_555
C12 C11 1_555 1_555
C13 C12 1_555 1_555
C14 C13 1_555 1_555
C15 N3 1_555 1_555
C16 C17 1_555 1_555
C17 C18 1_555 1_555
C18 C19 1_555 1_555
C19 C20 1_555 1_555
C20 C21 1_555 1_555
C21 C22 1_555 1_555
C22 C17 1_555 1_555
C23 O3 1_555 1_555
C24 C23 1_555 1_555
H2 O6 1_555 1_555
H4 O7 1_555 1_555
H6 O8 1_555 1_555
H7 C1 1_555 1_555
H8 C2 1_555 1_555
H9 C3 1_555 1_555
H10 C4 1_555 1_555
H11 C5 1_555 1_555
H12 C6 1_555 1_555
H13 C7 1_555 1_555
H14 C8 1_555 1_555
H15 C9 1_555 1_555
H16 C10 1_555 1_555
H17 C11 1_555 1_555
H18 C12 1_555 1_555
H19 C13 1_555 1_555
H20 C14 1_555 1_555
H21 C15 1_555 1_555
H22 C18 1_555 1_555
H23 C19 1_555 1_555
H24 C20 1_555 1_555
H25 C22 1_555 1_555
H26 C23 1_555 1_555
H27 C23 1_555 1_555
Cu1A O5 1_555 1_555
O5A Cu1 1_555 1_555
C4 C5 1_555 1_555
C9 C10 1_555 1_555
C14 C15 1_555 1_555

#END
