
#######################################################################
#
#                 Cambridge Crystallographic Data Centre
#                                CCDC 
#
#######################################################################
#
# If this CIF has been generated from an entry in the Cambridge 
# Structural Database, then it will include bibliographic, chemical, 
# crystal, experimental, refinement or atomic coordinate data resulting 
# from the CCDC's data processing and validation procedures.
#
#######################################################################

data_DAZDAK
_symmetry_cell_setting           triclinic
_symmetry_space_group_name_H-M   'P -1'
_symmetry_Int_Tables_number      2
_space_group_name_Hall           '-P 1'
loop_
_symmetry_equiv_pos_site_id
_symmetry_equiv_pos_as_xyz
1 x,y,z
2 -x,-y,-z
_cell_length_a                   7.8468(16)
_cell_length_b                   8.8428(18)
_cell_length_c                   9.6395(19)
_cell_angle_alpha                70.08(3)
_cell_angle_beta                 75.26(3)
_cell_angle_gamma                88.53(3)
_cell_volume                     606.777
loop_
_atom_site_label
_atom_site_type_symbol
_atom_site_fract_x
_atom_site_fract_y
_atom_site_fract_z
Hg1 Hg 0.72220(5) 0.98547(5) 0.55621(4)
Br1 Br 0.64127(11) 1.16945(12) 0.32193(10)
Br2 Br 0.90879(11) 0.74478(12) 0.59024(10)
S1 S 0.6884(2) 1.0587(2) 0.7962(2)
C1 C 0.3994(11) 1.3526(10) 0.6738(10)
H1 H 0.4437 1.3408 0.5792
C2 C 0.2296(13) 1.3948(12) 0.7138(13)
H2 H 0.1584 1.4084 0.6472
C3 C 0.1637(13) 1.4171(13) 0.8498(13)
H3 H 0.0488 1.4475 0.8749
C4 C 0.2659(14) 1.3948(11) 0.9492(12)
H4 H 0.2201 1.4096 1.0423
C5 C 0.4398(13) 1.3498(12) 0.9122(11)
H5 H 0.5094 1.3353 0.9801
C6 C 0.5065(11) 1.3272(9) 0.7743(10)
C7 C 0.6904(11) 1.2805(10) 0.7319(12)
H6 H 0.7637 1.3217 0.7800
H7 H 0.7388 1.3258 0.6220
C8 C 0.9049(10) 1.0190(9) 0.8306(8)
H8 H 0.9362 0.9138 0.8254
H9 H 0.9920 1.0989 0.7515
C9 C 0.9088(10) 1.0235(10) 0.9846(8)
H10 H 0.8164 0.9491 1.0636
H11 H 0.8869 1.1310 0.9874
Hg1A Hg 0.27780(5) 1.01453(5) 0.44379(4)
Hg1A_2 Hg 1.27780(5) 1.01453(5) 1.44379(4)
Br1A Br 0.35873(11) 0.83055(12) 0.67807(10)
Br2A Br 0.09121(11) 1.25522(12) 0.40976(10)
S1A S 1.3116(2) 0.9413(2) 1.2038(2)
S1A_2 S 0.3116(2) 0.9413(2) 0.2038(2)
C1A C 1.6006(11) 0.6474(10) 1.3262(10)
H1A H 1.5563 0.6592 1.4208
C2A C 1.7704(13) 0.6052(12) 1.2862(13)
H2A H 1.8416 0.5916 1.3528
C3A C 1.8363(13) 0.5829(13) 1.1502(13)
H3A H 1.9512 0.5525 1.1251
C4A C 1.7341(14) 0.6052(11) 1.0508(12)
H4A H 1.7799 0.5904 0.9577
C5A C 1.5602(13) 0.6502(12) 1.0878(11)
H5A H 1.4906 0.6647 1.0199
C6A C 1.4935(11) 0.6728(9) 1.2257(10)
C7A C 1.3096(11) 0.7195(10) 1.2681(12)
H6A H 1.2363 0.6783 1.2200
H7A H 1.2612 0.6742 1.3780
C8A C 1.0951(10) 0.9810(9) 1.1694(8)
H8A H 1.0638 1.0862 1.1746
H9A H 1.0080 0.9011 1.2485
C9A C 1.0912(10) 0.9765(10) 1.0154(8)
H10A H 1.1836 1.0509 0.9364
H11A H 1.1131 0.8690 1.0126
loop_
_geom_bond_atom_site_label_1
_geom_bond_atom_site_label_2
_geom_bond_site_symmetry_1
_geom_bond_site_symmetry_2
Hg1 Br1 1_555 1_555
Br1 Hg1A 1_555 1_555
Br2 Hg1 1_555 1_555
S1 Hg1 1_555 1_555
C1 H1 1_555 1_555
C2 C1 1_555 1_555
H2 C2 1_555 1_555
C3 C2 1_555 1_555
H3 C3 1_555 1_555
C4 C3 1_555 1_555
H4 C4 1_555 1_555
C5 C4 1_555 1_555
H5 C5 1_555 1_555
C6 C1 1_555 1_555
C7 S1 1_555 1_555
H6 C7 1_555 1_555
H7 C7 1_555 1_555
C8 S1 1_555 1_555
H8 C8 1_555 1_555
H9 C8 1_555 1_555
C9 C8 1_555 1_555
H10 C9 1_555 1_555
H11 C9 1_555 1_555
Hg1A Br1A 1_555 1_555
Hg1A_2 S1A 1_555 1_555
Br1A Hg1 1_555 1_555
Br2A Hg1A 1_555 1_555
S1A C7A 1_555 1_555
S1A_2 Hg1A 1_555 1_555
C1A H1A 1_555 1_555
C2A C1A 1_555 1_555
H2A C2A 1_555 1_555
C3A C2A 1_555 1_555
H3A C3A 1_555 1_555
C4A C3A 1_555 1_555
H4A C4A 1_555 1_555
C5A C4A 1_555 1_555
H5A C5A 1_555 1_555
C6A C1A 1_555 1_555
C7A C6A 1_555 1_555
H6A C7A 1_555 1_555
H7A C7A 1_555 1_555
C8A S1A 1_555 1_555
H8A C8A 1_555 1_555
H9A C8A 1_555 1_555
C9A C9 1_555 1_555
H10A C9A 1_555 1_555
H11A C9A 1_555 1_555
C5 C6 1_555 1_555
C6 C7 1_555 1_555
C5A C6A 1_555 1_555
C8A C9A 1_555 1_555

#END
