
#######################################################################
#
#                 Cambridge Crystallographic Data Centre
#                                CCDC 
#
#######################################################################
#
# If this CIF has been generated from an entry in the Cambridge 
# Structural Database, then it will include bibliographic, chemical, 
# crystal, experimental, refinement or atomic coordinate data resulting 
# from the CCDC's data processing and validation procedures.
#
#######################################################################

data_DAZHIV
_symmetry_cell_setting           monoclinic
_symmetry_space_group_name_H-M   'C c'
_symmetry_Int_Tables_number      9
_space_group_name_Hall           'C -2yc'
loop_
_symmetry_equiv_pos_site_id
_symmetry_equiv_pos_as_xyz
1 x,y,z
2 1/2+x,1/2+y,z
3 x,-y,1/2+z
4 1/2+x,1/2-y,1/2+z
_cell_length_a                   9.587(3)
_cell_length_b                   16.326(4)
_cell_length_c                   14.022(4)
_cell_angle_alpha                90
_cell_angle_beta                 109.38(2)
_cell_angle_gamma                90
_cell_volume                     2070.33
loop_
_atom_site_label
_atom_site_type_symbol
_atom_site_fract_x
_atom_site_fract_y
_atom_site_fract_z
Cu1 Cu 0.0000 0.5473(6) 0.5000
Cu2 Cu 0.3734(2) 0.32368(6) 0.5835(1)
C1 C 0.1449(10) 0.4662(5) 0.5246(6)
N1 N 0.2258(9) 0.4112(5) 0.5405(6)
C2 C 0.4214(9) 0.2226(5) 0.5353(7)
N2 N -0.0435(9) 0.6595(5) 0.5156(6)
N3 N -0.2080(8) 0.4922(4) 0.4359(5)
C3 C -0.3331(13) 0.5338(6) 0.3948(8)
C4 C -0.4679(12) 0.5011(6) 0.3546(8)
C5 C -0.4850(10) 0.4170(6) 0.3540(6)
C6 C -0.6330(12) 0.3753(8) 0.3109(8)
C7 C -0.3578(12) 0.3714(5) 0.3960(8)
C8 C -0.2231(11) 0.4114(5) 0.4345(7)
N4 N 0.5761(7) 0.3937(4) 0.6329(5)
C9 C 0.7066(11) 0.3557(5) 0.6796(7)
C10 C 0.8375(9) 0.3973(5) 0.7169(7)
C11 C 0.8427(10) 0.4807(5) 0.7040(6)
C12 C 0.9838(12) 0.5281(6) 0.7440(7)
C13 C 0.7102(12) 0.5181(5) 0.6567(7)
C14 C 0.5814(10) 0.4737(5) 0.6228(7)
N5 N 0.3618(8) 0.2998(4) 0.7363(6)
C15 C 0.2616(11) 0.3359(5) 0.7703(8)
C16 C 0.2710(11) 0.3380(5) 0.8687(8)
C17 C 0.3889(14) 0.3019(6) 0.9418(8)
C18 C 0.4044(15) 0.3034(7) 1.0508(10)
C19 C 0.4916(12) 0.2638(6) 0.9080(9)
C20 C 0.4760(11) 0.2642(6) 0.8078(10)
H1 H -0.326 0.593 0.393
H2 H -0.550 0.538 0.323
H3 H -0.654 0.336 0.259
H4 H -0.658 0.351 0.366
H5 H -0.710 0.419 0.285
H6 H -0.367 0.312 0.399
H7 H -0.140 0.375 0.460
H8 H 0.709 0.296 0.685
H9 H 0.932 0.368 0.750
H10 H 0.965 0.597 0.727
H11 H 1.023 0.521 0.817
H12 H 1.053 0.507 0.715
H13 H 0.710 0.573 0.649
H14 H 0.491 0.504 0.589
H15 H 0.174 0.361 0.720
H16 H 0.192 0.366 0.888
H17 H 0.384 0.250 1.070
H18 H 0.500 0.322 1.093
H19 H 0.333 0.343 1.061
H20 H 0.573 0.236 0.956
H21 H 0.552 0.235 0.786
N2A N 0.4565(9) 0.1595(5) 0.5156(6)
C2A C -0.0786(9) 0.7226(5) 0.5353(7)
Cu1A Cu 0.5000 0.0473(6) 0.5000
Cu2A Cu -0.1266(2) 0.82368(6) 0.5835(1)
C1A C 0.6449(10) -0.0338(5) 0.5246(6)
N3A N 0.2920(8) -0.0078(4) 0.4359(5)
N1A N -0.2742(9) 0.9112(5) 0.5405(6)
N4A N 0.0761(7) 0.8937(4) 0.6329(5)
N5A N -0.1382(8) 0.7998(4) 0.7363(6)
C3A C 0.1669(13) 0.0338(6) 0.3948(8)
C8A C 0.2769(11) -0.0886(5) 0.4345(7)
C1A_2 C -0.3551(10) 0.9662(5) 0.5246(6)
C9A C 0.2066(11) 0.8557(5) 0.6796(7)
C14A C 0.0814(10) 0.9737(5) 0.6228(7)
C15A C -0.2384(11) 0.8359(5) 0.7703(8)
C20A C -0.0240(11) 0.7642(6) 0.8078(10)
C4A C 0.0321(12) 0.0011(6) 0.3546(8)
H1A H 0.174 0.093 0.393
C7A C 0.1422(12) -0.1286(5) 0.3960(8)
H7A H 0.360 -0.125 0.460
Cu1A_2 Cu -0.5000 1.0473(6) 0.5000
C10A C 0.3375(9) 0.8973(5) 0.7169(7)
H8A H 0.209 0.796 0.685
C13A C 0.2102(12) 1.0181(5) 0.6567(7)
H14A H -0.009 1.004 0.589
C16A C -0.2290(11) 0.8380(5) 0.8687(8)
H15A H -0.326 0.861 0.720
C19A C -0.0084(12) 0.7638(6) 0.9080(9)
H21A H 0.052 0.735 0.786
C5A C 0.0150(10) -0.0830(6) 0.3540(6)
H2A H -0.050 0.038 0.323
H6A H 0.133 -0.188 0.399
C11A C 0.3427(10) 0.9807(5) 0.7040(6)
H9A H 0.432 0.868 0.750
H13A H 0.210 1.073 0.649
C17A C -0.1111(14) 0.8019(6) 0.9418(8)
H16A H -0.308 0.866 0.888
H20A H 0.073 0.736 0.956
C6A C -0.1330(12) -0.1247(8) 0.3109(8)
C12A C 0.4838(12) 1.0281(6) 0.7440(7)
C18A C -0.0956(15) 0.8034(7) 1.0508(10)
H3A H -0.154 -0.164 0.259
H4A H -0.158 -0.149 0.366
H5A H -0.210 -0.081 0.285
H10A H 0.465 1.097 0.727
H11A H 0.523 1.021 0.817
H12A H 0.553 1.007 0.715
H17A H -0.116 0.750 1.070
H18A H 0.000 0.822 1.093
H19A H -0.167 0.843 1.061
loop_
_geom_bond_atom_site_label_1
_geom_bond_atom_site_label_2
_geom_bond_site_symmetry_1
_geom_bond_site_symmetry_2
Cu1 C1 1_555 1_555
Cu2 N1 1_555 1_555
C1 N1 1_555 1_555
C2 Cu2 1_555 1_555
N2 Cu1 1_555 1_555
N3 Cu1 1_555 1_555
C3 N3 1_555 1_555
C4 C3 1_555 1_555
C5 C4 1_555 1_555
C6 C5 1_555 1_555
C7 C5 1_555 1_555
C8 N3 1_555 1_555
N4 Cu2 1_555 1_555
C9 N4 1_555 1_555
C10 C9 1_555 1_555
C11 C10 1_555 1_555
C12 C11 1_555 1_555
C13 C11 1_555 1_555
C14 N4 1_555 1_555
N5 Cu2 1_555 1_555
C15 N5 1_555 1_555
C16 C15 1_555 1_555
C17 C16 1_555 1_555
C18 C17 1_555 1_555
C19 C17 1_555 1_555
C20 N5 1_555 1_555
H1 C3 1_555 1_555
H2 C4 1_555 1_555
H3 C6 1_555 1_555
H4 C6 1_555 1_555
H5 C6 1_555 1_555
H6 C7 1_555 1_555
H7 C8 1_555 1_555
H8 C9 1_555 1_555
H9 C10 1_555 1_555
H10 C12 1_555 1_555
H11 C12 1_555 1_555
H12 C12 1_555 1_555
H13 C13 1_555 1_555
H14 C14 1_555 1_555
H15 C15 1_555 1_555
H16 C16 1_555 1_555
H17 C18 1_555 1_555
H18 C18 1_555 1_555
H19 C18 1_555 1_555
H20 C19 1_555 1_555
H21 C20 1_555 1_555
N2A C2 1_555 1_555
C2A N2 1_555 1_555
Cu1A N2A 1_555 1_555
Cu2A C2A 1_555 1_555
C1A Cu1A 1_555 1_555
N3A Cu1A 1_555 1_555
N1A Cu2A 1_555 1_555
N4A Cu2A 1_555 1_555
N5A Cu2A 1_555 1_555
C3A N3A 1_555 1_555
C8A N3A 1_555 1_555
C1A_2 N1A 1_555 1_555
C9A N4A 1_555 1_555
C14A N4A 1_555 1_555
C15A N5A 1_555 1_555
C20A N5A 1_555 1_555
C4A C3A 1_555 1_555
H1A C3A 1_555 1_555
C7A C8A 1_555 1_555
H7A C8A 1_555 1_555
Cu1A_2 C1A_2 1_555 1_555
C10A C9A 1_555 1_555
H8A C9A 1_555 1_555
C13A C14A 1_555 1_555
H14A C14A 1_555 1_555
C16A C15A 1_555 1_555
H15A C15A 1_555 1_555
C19A C20A 1_555 1_555
H21A C20A 1_555 1_555
C5A C4A 1_555 1_555
H2A C4A 1_555 1_555
H6A C7A 1_555 1_555
C11A C10A 1_555 1_555
H9A C10A 1_555 1_555
H13A C13A 1_555 1_555
C17A C16A 1_555 1_555
H16A C16A 1_555 1_555
H20A C19A 1_555 1_555
C6A C5A 1_555 1_555
C12A C11A 1_555 1_555
C18A C17A 1_555 1_555
H3A C6A 1_555 1_555
H4A C6A 1_555 1_555
H5A C6A 1_555 1_555
H10A C12A 1_555 1_555
H11A C12A 1_555 1_555
H12A C12A 1_555 1_555
H17A C18A 1_555 1_555
H18A C18A 1_555 1_555
H19A C18A 1_555 1_555
C7 C8 1_555 1_555
C13 C14 1_555 1_555
C19 C20 1_555 1_555
C7A C5A 1_555 1_555
C13A C11A 1_555 1_555
C19A C17A 1_555 1_555

#END
