
#######################################################################
#
#                 Cambridge Crystallographic Data Centre
#                                CCDC 
#
#######################################################################
#
# If this CIF has been generated from an entry in the Cambridge 
# Structural Database, then it will include bibliographic, chemical, 
# crystal, experimental, refinement or atomic coordinate data resulting 
# from the CCDC's data processing and validation procedures.
#
#######################################################################

data_DAZLIA
_symmetry_cell_setting           orthorhombic
_symmetry_space_group_name_H-M   'P 21 21 21'
_symmetry_Int_Tables_number      19
_space_group_name_Hall           'P 2ac 2ab'
loop_
_symmetry_equiv_pos_site_id
_symmetry_equiv_pos_as_xyz
1 x,y,z
2 1/2+x,1/2-y,-z
3 -x,1/2+y,1/2-z
4 1/2-x,-y,1/2+z
_cell_length_a                   5.8157(11)
_cell_length_b                   13.426(3)
_cell_length_c                   17.801(3)
_cell_angle_alpha                90
_cell_angle_beta                 90
_cell_angle_gamma                90
_cell_volume                     1389.93
loop_
_atom_site_label
_atom_site_type_symbol
_atom_site_fract_x
_atom_site_fract_y
_atom_site_fract_z
Ag1 Ag 0.49042(4) -0.126342(19) 0.569675(15)
O1 O 0.6725(5) -0.24539(19) 0.67045(12)
C1 C 0.7798(5) -0.3163(2) 0.64103(16)
C2 C 0.7193(5) -0.4207(2) 0.66223(15)
C3 C 0.5132(6) -0.4463(2) 0.69812(13)
C4 C 0.4636(5) -0.5447(2) 0.71521(15)
C5 C 0.6175(5) -0.6195(3) 0.69771(15)
C6 C 0.8251(6) -0.5943(3) 0.66339(19)
C7 C 0.8708(6) -0.4974(3) 0.64556(17)
O2 O 0.5813(5) -0.71730(17) 0.71215(13)
O3 O 0.9391(4) -0.30493(17) 0.59368(12)
N1 N 0.8112(4) -0.1179(2) 0.50837(13)
C8 C 0.9628(5) -0.0317(2) 0.52282(15)
C9 C 1.0243(6) -0.0277(2) 0.60570(15)
N2 N 1.1635(4) -0.1154(2) 0.62595(14)
C10 C 1.1608(6) 0.0659(3) 0.62401(18)
C11 C 1.0430(6) 0.1600(3) 0.5987(2)
C12 C 0.9884(7) 0.1549(2) 0.51525(19)
C13 C 0.8443(6) 0.0635(3) 0.4980(2)
H1 H 0.7860 -0.1243 0.4612
H2 H 1.0822 -0.1732 0.6198
H3 H 0.4729 -0.7280 0.7392
H4 H 1.1774 -0.1163 0.6742
H5 H 0.4096 -0.3986 0.7094
H6 H 0.3320 -0.5602 0.7372
H7 H 0.9319 -0.6439 0.6526
H8 H 1.0074 -0.4815 0.6223
H9 H 1.1000 -0.0402 0.4959
H10 H 0.8886 -0.0261 0.6349
H11 H 1.1752 0.0689 0.6764
H12 H 1.3125 0.0595 0.6012
H13 H 0.9079 0.1690 0.6251
H14 H 1.1332 0.2157 0.6085
H15 H 1.1228 0.1524 0.4856
H16 H 0.9040 0.2108 0.5022
H17 H 0.7009 0.0662 0.5229
H18 H 0.8266 0.0623 0.4453
H19 H 0.8855 -0.1751 0.5165
Ag1_2 Ag 1.49042(4) -0.126342(19) 0.569675(15)
N2_2 N 0.1635(4) -0.1154(2) 0.62595(14)
H2_2 H 0.0822 -0.1732 0.6198
H4_2 H 0.1774 -0.1163 0.6742
loop_
_geom_bond_atom_site_label_1
_geom_bond_atom_site_label_2
_geom_bond_site_symmetry_1
_geom_bond_site_symmetry_2
Ag1 O1 1_555 1_555
O1 C1 1_555 1_555
C1 C2 1_555 1_555
C2 C3 1_555 1_555
C3 C4 1_555 1_555
C4 C5 1_555 1_555
C5 C6 1_555 1_555
C6 C7 1_555 1_555
C7 C2 1_555 1_555
O2 C5 1_555 1_555
O3 C1 1_555 1_555
N1 Ag1 1_555 1_555
C8 N1 1_555 1_555
C9 C8 1_555 1_555
N2 C9 1_555 1_555
C10 C9 1_555 1_555
C11 C10 1_555 1_555
C12 C11 1_555 1_555
C13 C8 1_555 1_555
H1 N1 1_555 1_555
H2 N2 1_555 1_555
H3 O2 1_555 1_555
H4 N2 1_555 1_555
H5 C3 1_555 1_555
H6 C4 1_555 1_555
H7 C6 1_555 1_555
H8 C7 1_555 1_555
H9 C8 1_555 1_555
H10 C9 1_555 1_555
H11 C10 1_555 1_555
H12 C10 1_555 1_555
H13 C11 1_555 1_555
H14 C11 1_555 1_555
H15 C12 1_555 1_555
H16 C12 1_555 1_555
H17 C13 1_555 1_555
H18 C13 1_555 1_555
H19 N1 1_555 1_555
Ag1_2 N2 1_555 1_555
N2_2 Ag1 1_555 1_555
H2_2 N2_2 1_555 1_555
H4_2 N2_2 1_555 1_555
C12 C13 1_555 1_555

#END
