
#######################################################################
#
#                 Cambridge Crystallographic Data Centre
#                                CCDC 
#
#######################################################################
#
# If this CIF has been generated from an entry in the Cambridge 
# Structural Database, then it will include bibliographic, chemical, 
# crystal, experimental, refinement or atomic coordinate data resulting 
# from the CCDC's data processing and validation procedures.
#
#######################################################################

data_DAZTAZ
_symmetry_cell_setting           monoclinic
_symmetry_space_group_name_H-M   'P 21/n'
_symmetry_Int_Tables_number      14
_space_group_name_Hall           '-P 2yn'
loop_
_symmetry_equiv_pos_site_id
_symmetry_equiv_pos_as_xyz
1 x,y,z
2 1/2-x,1/2+y,1/2-z
3 -x,-y,-z
4 1/2+x,1/2-y,1/2+z
_cell_length_a                   12.2288(6)
_cell_length_b                   13.0277(7)
_cell_length_c                   14.0605(7)
_cell_angle_alpha                90
_cell_angle_beta                 95.815(4)
_cell_angle_gamma                90
_cell_volume                     2228.5
loop_
_atom_site_label
_atom_site_type_symbol
_atom_site_fract_x
_atom_site_fract_y
_atom_site_fract_z
Cu1 Cu 0.50300(4) 0.20714(5) 0.77064(4)
Cu2 Cu 0.73232(5) 0.41358(5) 1.18345(5)
Cu3 Cu 0.81337(5) 0.12768(5) 1.16583(5)
Cu4 Cu 0.67414(5) 0.25546(5) 0.94855(4)
S1 S 0.74647(9) 0.10552(9) 1.00903(8)
S2 S 0.72552(9) 0.40797(9) 1.01860(8)
S3 S 0.69551(9) 0.24290(9) 1.22460(8)
Cl1 Cl 0.47991(9) 0.24042(10) 0.92530(8)
Cl2 Cl 0.40715(11) 0.05675(10) 0.76252(10)
Cl3 Cl 0.46060(9) 0.25322(10) 0.61917(8)
Cl4 Cl 0.68235(10) 0.25549(11) 0.78070(8)
Cl5 Cl 0.90325(10) 0.01293(10) 1.26306(10)
C1 C 0.6569(4) -0.0051(4) 0.9779(4)
C2 C 0.7123(6) -0.0688(6) 0.9107(6)
C3 C 0.8262(6) -0.0464(6) 0.9147(7)
C4 C 0.8532(4) 0.0615(5) 0.9379(4)
C5 C 0.6405(4) 0.5092(4) 0.9579(4)
C6 C 0.7111(6) 0.5657(7) 0.8969(6)
C7 C 0.8179(6) 0.5290(7) 0.8989(6)
C8 C 0.8506(4) 0.4529(4) 0.9717(4)
C9 C 0.5489(4) 0.2194(4) 1.1910(4)
C10 C 0.4962(5) 0.2225(7) 1.2832(5)
C11 C 0.5683(6) 0.2275(9) 1.3628(5)
C12 C 0.6851(5) 0.2328(5) 1.3519(4)
H1 H 0.598(4) 0.021(4) 0.962(3)
H2 H 0.646(5) -0.037(5) 1.035(4)
H3 H 0.699(5) -0.025(6) 0.847(5)
H4 H 0.687(5) -0.142(5) 0.907(5)
H5 H 0.868 -0.096 0.974
H6 H 0.858 -0.070 0.850
H7 H 0.918(5) 0.072(4) 0.961(4)
H8 H 0.839(6) 0.078(6) 0.877(6)
H9 H 0.612(4) 0.552(4) 1.010(4)
H10 H 0.582(4) 0.480(4) 0.929(3)
H11 H 0.717 0.648 0.926
H12 H 0.672 0.572 0.826
H13 H 0.828 0.496 0.831
H14 H 0.874 0.594 0.912
H15 H 0.884(4) 0.398(4) 0.956(4)
H16 H 0.885(7) 0.482(7) 1.019(6)
H17 H 0.528(5) 0.282(5) 1.153(5)
H18 H 0.537(3) 0.160(3) 1.159(3)
H19 H 0.445 0.292 1.283
H20 H 0.444 0.157 1.286
H21 H 0.557 0.155 1.403
H22 H 0.548 0.290 1.406
H23 H 0.704(6) 0.173(6) 1.370(5)
H24 H 0.689(6) 0.289(6) 1.372(5)
Cl2C Cl 0.90715(11) 0.44325(10) 1.26252(10)
Cl5A Cl 0.59675(10) 0.51293(10) 1.23694(10)
Cl3C Cl 0.96060(9) 0.24678(10) 1.11917(8)
Cu2C Cu 0.23232(5) 0.08642(5) 0.68345(5)
Cu3C Cu 0.31337(5) 0.37232(5) 0.66583(5)
Cu2A Cu 0.76768(5) -0.08642(5) 1.31655(5)
loop_
_geom_bond_atom_site_label_1
_geom_bond_atom_site_label_2
_geom_bond_site_symmetry_1
_geom_bond_site_symmetry_2
Cu1 Cl1 1_555 1_555
Cu2 S2 1_555 1_555
Cu3 S1 1_555 1_555
Cu4 S1 1_555 1_555
S1 C1 1_555 1_555
S2 Cu4 1_555 1_555
S3 Cu2 1_555 1_555
Cl1 Cu4 1_555 1_555
Cl2 Cu1 1_555 1_555
Cl3 Cu1 1_555 1_555
Cl4 Cu1 1_555 1_555
Cl5 Cu3 1_555 1_555
C1 C2 1_555 1_555
C2 C3 1_555 1_555
C3 C4 1_555 1_555
C4 S1 1_555 1_555
C5 S2 1_555 1_555
C6 C5 1_555 1_555
C7 C6 1_555 1_555
C8 S2 1_555 1_555
C9 S3 1_555 1_555
C10 C9 1_555 1_555
C11 C10 1_555 1_555
C12 S3 1_555 1_555
H1 C1 1_555 1_555
H2 C1 1_555 1_555
H3 C2 1_555 1_555
H4 C2 1_555 1_555
H5 C3 1_555 1_555
H6 C3 1_555 1_555
H7 C4 1_555 1_555
H8 C4 1_555 1_555
H9 C5 1_555 1_555
H10 C5 1_555 1_555
H11 C6 1_555 1_555
H12 C6 1_555 1_555
H13 C7 1_555 1_555
H14 C7 1_555 1_555
H15 C8 1_555 1_555
H16 C8 1_555 1_555
H17 C9 1_555 1_555
H18 C9 1_555 1_555
H19 C10 1_555 1_555
H20 C10 1_555 1_555
H21 C11 1_555 1_555
H22 C11 1_555 1_555
H23 C12 1_555 1_555
H24 C12 1_555 1_555
Cl2C Cu2 1_555 1_555
Cl5A Cu2 1_555 1_555
Cl3C Cu3 1_555 1_555
Cu2C Cl2 1_555 1_555
Cu3C Cl3 1_555 1_555
Cu2A Cl5 1_555 1_555
Cu3 S3 1_555 1_555
Cu4 Cl4 1_555 1_555
C7 C8 1_555 1_555
C11 C12 1_555 1_555

#END
