
#######################################################################
#
#                 Cambridge Crystallographic Data Centre
#                                CCDC 
#
#######################################################################
#
# If this CIF has been generated from an entry in the Cambridge 
# Structural Database, then it will include bibliographic, chemical, 
# crystal, experimental, refinement or atomic coordinate data resulting 
# from the CCDC's data processing and validation procedures.
#
#######################################################################

data_DAZWOR
_symmetry_cell_setting           triclinic
_symmetry_space_group_name_H-M   'P -1'
_symmetry_Int_Tables_number      2
_space_group_name_Hall           '-P 1'
loop_
_symmetry_equiv_pos_site_id
_symmetry_equiv_pos_as_xyz
1 x,y,z
2 -x,-y,-z
_cell_length_a                   9.0715(12)
_cell_length_b                   9.8474(14)
_cell_length_c                   9.8659(14)
_cell_angle_alpha                119.080(2)
_cell_angle_beta                 98.713(3)
_cell_angle_gamma                92.059(3)
_cell_volume                     755.193
loop_
_atom_site_label
_atom_site_type_symbol
_atom_site_fract_x
_atom_site_fract_y
_atom_site_fract_z
Hg1 Hg 0.98624(6) 0.71699(7) 0.51401(7)
O1 O 0.7968(16) 0.7598(16) 0.6929(17)
O2 O 0.8936(15) 0.5436(16) 0.6085(17)
N1 N 0.8077(14) 0.6378(15) 0.3150(15)
N2 N 1.1865(14) 0.8309(16) 0.6944(16)
C1 C 0.692(2) 0.722(2) 0.326(2)
H1 H 0.6944 0.8169 0.4184
C2 C 0.571(2) 0.673(2) 0.205(2)
H2 H 0.4931 0.7343 0.2142
C3 C 0.5666(18) 0.5294(19) 0.0659(19)
C4 C 0.682(2) 0.445(2) 0.062(2)
H3 H 0.6808 0.3473 -0.0262
C5 C 0.804(2) 0.503(2) 0.1906(19)
H4 H 0.8834 0.4444 0.1857
C6 C 1.3210(17) 0.823(2) 0.661(2)
H5 H 1.3309 0.7720 0.5555
C7 C 1.4466(17) 0.888(2) 0.776(2)
H6 H 1.5414 0.8807 0.7497
C8 C 1.4316(16) 0.9641(17) 0.9334(17)
C9 C 1.2886(17) 0.973(2) 0.966(2)
H7 H 1.2740 1.0241 1.0703
C10 C 1.1688(17) 0.905(2) 0.842(2)
H8 H 1.0720 0.9106 0.8633
C11 C 0.804(2) 0.634(2) 0.688(2)
C12 C 0.715(4) 0.588(3) 0.775(4)
H9 H 0.7701 0.6253 0.8801
H10 H 0.6941 0.4755 0.7214
H11 H 0.6219 0.6319 0.7798
Hg1A Hg 1.01376(6) 0.28301(7) 0.48599(7)
Hg1A_2 Hg 0.01376(6) 0.28301(7) -0.51401(7)
Hg1A_3 Hg 2.01376(6) 1.28301(7) 1.48599(7)
O1A O 1.2032(16) 0.2402(16) 0.3071(17)
O2A O 1.1064(15) 0.4564(16) 0.3915(17)
N1A N 0.1923(14) 0.3622(15) -0.3150(15)
N1A_2 N 1.1923(14) 0.3622(15) 0.6850(15)
N2A N 1.8135(14) 1.1691(16) 1.3056(16)
N2A_2 N 0.8135(14) 0.1691(16) 0.3056(16)
C1A C 0.308(2) 0.278(2) -0.326(2)
H1A H 0.3056 0.1831 -0.4184
C2A C 0.429(2) 0.327(2) -0.205(2)
H2A H 0.5069 0.2657 -0.2142
C3A C 0.4334(18) 0.4706(19) -0.0659(19)
C4A C 0.318(2) 0.555(2) -0.062(2)
H3A H 0.3192 0.6527 0.0262
C5A C 0.196(2) 0.497(2) -0.1906(19)
H4A H 0.1166 0.5556 -0.1857
C6A C 1.6790(17) 1.177(2) 1.339(2)
H5A H 1.6691 1.2280 1.4445
C7A C 1.5534(17) 1.112(2) 1.224(2)
H6A H 1.4586 1.1193 1.2503
C8A C 1.5684(16) 1.0359(17) 1.0666(17)
C9A C 1.7114(17) 1.027(2) 1.034(2)
H7A H 1.7260 0.9759 0.9297
C10A C 1.8312(17) 1.095(2) 1.158(2)
H8A H 1.9280 1.0894 1.1367
C11A C 1.196(2) 0.366(2) 0.312(2)
C12A C 1.285(4) 0.412(3) 0.225(4)
H9A H 1.2299 0.3747 0.1199
H10A H 1.3059 0.5245 0.2786
H11A H 1.3781 0.3681 0.2202
Cl1 Cl 0.1455(5) 0.8557(5) 0.2615(6)
O3 O 0.3012(18) 0.916(2) 0.295(2)
O4 O 0.132(2) 0.7132(18) 0.267(2)
O5 O 0.075(2) 0.969(2) 0.376(3)
O6 O 0.075(2) 0.820(2) 0.107(2)
loop_
_geom_bond_atom_site_label_1
_geom_bond_atom_site_label_2
_geom_bond_site_symmetry_1
_geom_bond_site_symmetry_2
Hg1 O1 1_555 1_555
Cl1 O3 1_555 1_555
O1 C11 1_555 1_555
O2 Hg1 1_555 1_555
O4 Cl1 1_555 1_555
O5 Cl1 1_555 1_555
O6 Cl1 1_555 1_555
N1 Hg1 1_555 1_555
N2 Hg1 1_555 1_555
C1 N1 1_555 1_555
H1 C1 1_555 1_555
C2 C1 1_555 1_555
H2 C2 1_555 1_555
C3 C2 1_555 1_555
C4 C3 1_555 1_555
H3 C4 1_555 1_555
C5 N1 1_555 1_555
H4 C5 1_555 1_555
C6 N2 1_555 1_555
H5 C6 1_555 1_555
C7 C6 1_555 1_555
H6 C7 1_555 1_555
C8 C7 1_555 1_555
C9 C8 1_555 1_555
H7 C9 1_555 1_555
C10 N2 1_555 1_555
H8 C10 1_555 1_555
C11 O2 1_555 1_555
C12 C11 1_555 1_555
H9 C12 1_555 1_555
H10 C12 1_555 1_555
H11 C12 1_555 1_555
Hg1A O2 1_555 1_555
Hg1A_2 N1A 1_555 1_555
Hg1A_3 N2A 1_555 1_555
O1A Hg1A 1_555 1_555
O2A Hg1 1_555 1_555
N1A C1A 1_555 1_555
N1A_2 Hg1A 1_555 1_555
N2A C6A 1_555 1_555
N2A_2 Hg1A 1_555 1_555
C1A H1A 1_555 1_555
C2A C1A 1_555 1_555
H2A C2A 1_555 1_555
C3A C3 1_555 1_555
C4A C3A 1_555 1_555
H3A C4A 1_555 1_555
C5A N1A 1_555 1_555
H4A C5A 1_555 1_555
C6A H5A 1_555 1_555
C7A C6A 1_555 1_555
H6A C7A 1_555 1_555
C8A C8 1_555 1_555
C9A C8A 1_555 1_555
H7A C9A 1_555 1_555
C10A N2A 1_555 1_555
H8A C10A 1_555 1_555
C11A O1A 1_555 1_555
C12A C11A 1_555 1_555
H9A C12A 1_555 1_555
H10A C12A 1_555 1_555
H11A C12A 1_555 1_555
C4 C5 1_555 1_555
C9 C10 1_555 1_555
Hg1A O2A 1_555 1_555
O2A C11A 1_555 1_555
C2A C3A 1_555 1_555
C4A C5A 1_555 1_555
C7A C8A 1_555 1_555
C9A C10A 1_555 1_555

#END
