
#######################################################################
#
#                 Cambridge Crystallographic Data Centre
#                                CCDC 
#
#######################################################################
#
# If this CIF has been generated from an entry in the Cambridge 
# Structural Database, then it will include bibliographic, chemical, 
# crystal, experimental, refinement or atomic coordinate data resulting 
# from the CCDC's data processing and validation procedures.
#
#######################################################################

data_DAZYEI
_symmetry_cell_setting           monoclinic
_symmetry_space_group_name_H-M   'C 2/c'
_symmetry_Int_Tables_number      15
_space_group_name_Hall           '-C 2yn'
loop_
_symmetry_equiv_pos_site_id
_symmetry_equiv_pos_as_xyz
1 x,y,z
2 -x,y,1/2-z
3 1/2+x,1/2+y,z
4 1/2-x,1/2+y,1/2-z
5 -x,-y,-z
6 x,-y,1/2+z
7 1/2-x,1/2-y,-z
8 1/2+x,1/2-y,1/2+z
_cell_length_a                   18.132(7)
_cell_length_b                   5.210(3)
_cell_length_c                   17.344(3)
_cell_angle_alpha                90
_cell_angle_beta                 115.65(2)
_cell_angle_gamma                90
_cell_volume                     1476.99
loop_
_atom_site_label
_atom_site_type_symbol
_atom_site_fract_x
_atom_site_fract_y
_atom_site_fract_z
Zn1 Zn 0.0000 -0.6697(2) 0.2500
S1 S -0.2466(1) -1.1017(5) 0.1363(2)
N1 N -0.0004(2) 0.4412(7) 0.6554(2)
N2 N -0.1030(2) -0.8473(8) 0.2048(3)
C1 C 0.0683(3) 0.363(1) 0.6536(3)
C2 C 0.0709(3) 0.194(1) 0.5942(3)
C3 C -0.0004(2) 0.0930(8) 0.5323(2)
C4 C -0.0712(2) 0.174(1) 0.5346(3)
C5 C -0.0687(3) 0.3458(10) 0.5958(3)
C6 C -0.1632(3) -0.948(1) 0.1758(4)
H1 H 0.1189 0.4300 0.6958
H2 H 0.1226 0.1423 0.5965
H3 H -0.1228 0.1085 0.4938
H4 H -0.1195 0.4019 0.5946
C3D C 0.0004(2) -0.0930(8) 0.4677(2)
C2D C -0.0709(3) -0.194(1) 0.4058(3)
C1D C -0.0683(3) -0.363(1) 0.3464(3)
N1D N 0.0004(2) -0.4412(7) 0.3446(2)
Zn1D Zn 0.0000 0.6697(2) 0.7500
N1E N -0.0004(2) -0.4412(7) 0.1554(2)
N2A N 0.1030(2) -0.8473(8) 0.2952(3)
C6A C 0.1632(3) -0.948(1) 0.3242(4)
S1A S 0.2466(1) -1.1017(5) 0.3637(2)
C5D C 0.0687(3) -0.3458(10) 0.4042(3)
C4D C 0.0712(2) -0.174(1) 0.4654(3)
H3D H 0.1228 -0.1085 0.5062
H4D H 0.1195 -0.4019 0.4054
H1D H -0.1189 -0.4300 0.3042
H2D H -0.1226 -0.1423 0.4035
loop_
_geom_bond_atom_site_label_1
_geom_bond_atom_site_label_2
_geom_bond_site_symmetry_1
_geom_bond_site_symmetry_2
Zn1 N2 1_555 1_555
S1 C6 1_555 1_555
N1 C1 1_555 1_555
N2 C6 1_555 1_555
C1 C2 1_555 1_555
C2 C3 1_555 1_555
C3 C4 1_555 1_555
C4 C5 1_555 1_555
C5 N1 1_555 1_555
H1 C1 1_555 1_555
H2 C2 1_555 1_555
H3 C4 1_555 1_555
H4 C5 1_555 1_555
C3D C3 1_555 1_555
C2D C3D 1_555 1_555
C1D C2D 1_555 1_555
N1D Zn1 1_555 1_555
Zn1D N1 1_555 1_555
N1E Zn1 1_555 1_555
N2A Zn1 1_555 1_555
C6A N2A 1_555 1_555
S1A C6A 1_555 1_555
C5D N1D 1_555 1_555
C4D C3D 1_555 1_555
H3D C4D 1_555 1_555
H4D C5D 1_555 1_555
H1D C1D 1_555 1_555
H2D C2D 1_555 1_555
C1D N1D 1_555 1_555
C5D C4D 1_555 1_555

#END
