
#######################################################################
#
#                 Cambridge Crystallographic Data Centre
#                                CCDC 
#
#######################################################################
#
# If this CIF has been generated from an entry in the Cambridge 
# Structural Database, then it will include bibliographic, chemical, 
# crystal, experimental, refinement or atomic coordinate data resulting 
# from the CCDC's data processing and validation procedures.
#
#######################################################################

data_DBUPCU
_symmetry_cell_setting           triclinic
_symmetry_space_group_name_H-M   'P -1'
_symmetry_Int_Tables_number      2
_space_group_name_Hall           '-P 1'
loop_
_symmetry_equiv_pos_site_id
_symmetry_equiv_pos_as_xyz
1 x,y,z
2 -x,-y,-z
_cell_length_a                   12.245(6)
_cell_length_b                   9.863(5)
_cell_length_c                   9.819(5)
_cell_angle_alpha                101.18(4)
_cell_angle_beta                 105.78(5)
_cell_angle_gamma                93.77(4)
_cell_volume                     1110.67
loop_
_atom_site_label
_atom_site_type_symbol
_atom_site_fract_x
_atom_site_fract_y
_atom_site_fract_z
Cu1 Cu 0.01130 0.02570 0.25880
P1 P 0.13890 -0.09380 0.52350
P2 P 0.15980 -0.04800 0.03810
O1 O 0.10970 -0.08580 0.36470
O2 O -0.03780 0.11640 0.42010
O3 O 0.10580 0.04520 0.13500
O4 O -0.13070 0.03190 0.11840
C1 C 0.21800 -0.23990 0.53880
C2 C 0.15220 -0.37400 0.45120
C3 C 0.22210 -0.49850 0.45400
C4 C 0.15550 -0.62890 0.36600
C5 C 0.23180 0.05820 0.63280
C6 C 0.33730 0.09620 0.58700
C7 C 0.41130 0.22360 0.67970
C8 C 0.51700 0.26110 0.63230
H1 H 0.25210 -0.23610 0.64480
H2 H 0.28990 -0.21950 0.51190
H3 H 0.09740 -0.38250 0.35730
H4 H 0.08260 -0.40270 0.48350
H5 H 0.28840 -0.45860 0.41530
H6 H 0.25130 -0.50770 0.57330
H7 H 0.07170 -0.63670 0.31730
H8 H 0.19450 -0.66170 0.29110
H9 H 0.16930 -0.69950 0.42660
H10 H 0.18340 0.12230 0.62030
H11 H 0.26210 0.05480 0.73580
H12 H 0.37230 0.00000 0.57610
H13 H 0.32230 0.07120 0.48000
H14 H 0.38610 0.30610 0.73700
H15 H 0.45080 0.18260 0.76190
H16 H 0.47740 0.29810 0.55870
H17 H 0.56010 0.17530 0.63480
H18 H 0.56560 0.33950 0.70770
C9 C 0.31330 -0.00420 0.10970
C10 C 0.34900 0.14580 0.11040
C11 C 0.47710 0.19010 0.16360
C12 C 0.50940 0.33950 0.16390
C13 C 0.12550 -0.22680 0.04000
C14 C 0.17490 -0.33160 -0.05610
C15 C 0.14170 -0.47880 -0.05030
C16 C 0.18550 -0.58670 -0.14420
H19 H 0.33050 -0.01720 0.21500
H20 H 0.34680 -0.06760 0.05320
H21 H 0.33030 0.15860 0.00000
H22 H 0.33230 0.25550 0.17100
H23 H 0.48470 0.15070 0.25130
H24 H 0.51510 0.13160 0.10050
H25 H 0.46560 0.38610 0.23550
H26 H 0.49690 0.35920 0.07430
H27 H 0.61800 0.37030 0.20820
H28 H 0.05280 -0.23100 0.00000
H29 H 0.15830 -0.23660 0.14000
H30 H 0.14240 -0.31240 -0.15220
H31 H 0.25030 -0.32160 -0.01350
H32 H 0.05870 -0.49860 -0.07390
H33 H 0.17160 -0.49260 0.04760
H34 H 0.26270 -0.55730 -0.10860
H35 H 0.12800 -0.58160 -0.25530
H36 H 0.16360 -0.68120 -0.13430
O2A O 0.03780 -0.11640 0.57990
P1A P -0.13890 0.09380 0.47650
O4A O 0.13070 -0.03190 -0.11840
P2A P -0.15980 0.04800 -0.03810
Cu1A Cu -0.01130 -0.02570 0.74120
O1A O -0.10970 0.08580 0.63530
C1A C -0.21800 0.23990 0.46120
C5A C -0.23180 -0.05820 0.36720
Cu1A_2 Cu -0.01130 -0.02570 -0.25880
O3A O -0.10580 -0.04520 -0.13500
C9A C -0.31330 0.00420 -0.10970
C13A C -0.12550 0.22680 -0.04000
O3A_2 O -0.10580 -0.04520 0.86500
O4A_2 O 0.13070 -0.03190 0.88160
C2A C -0.15220 0.37400 0.54880
H1A H -0.25210 0.23610 0.35520
H2A H -0.28990 0.21950 0.48810
C6A C -0.33730 -0.09620 0.41300
H10A H -0.18340 -0.12230 0.37970
H11A H -0.26210 -0.05480 0.26420
C10A C -0.34900 -0.14580 -0.11040
H19A H -0.33050 0.01720 -0.21500
H20A H -0.34680 0.06760 -0.05320
C14A C -0.17490 0.33160 0.05610
H28A H -0.05280 0.23100 0.00000
H29A H -0.15830 0.23660 -0.14000
C3A C -0.22210 0.49850 0.54600
H3A H -0.09740 0.38250 0.64270
H4A H -0.08260 0.40270 0.51650
C7A C -0.41130 -0.22360 0.32030
H12A H -0.37230 0.00000 0.42390
H13A H -0.32230 -0.07120 0.52000
C11A C -0.47710 -0.19010 -0.16360
H21A H -0.33030 -0.15860 0.00000
H22A H -0.33230 -0.25550 -0.17100
C15A C -0.14170 0.47880 0.05030
H30A H -0.14240 0.31240 0.15220
H31A H -0.25030 0.32160 0.01350
C4A C -0.15550 0.62890 0.63400
H5A H -0.28840 0.45860 0.58470
H6A H -0.25130 0.50770 0.42670
C8A C -0.51700 -0.26110 0.36770
H14A H -0.38610 -0.30610 0.26300
H15A H -0.45080 -0.18260 0.23810
C12A C -0.50940 -0.33950 -0.16390
H23A H -0.48470 -0.15070 -0.25130
H24A H -0.51510 -0.13160 -0.10050
C16A C -0.18550 0.58670 0.14420
H32A H -0.05870 0.49860 0.07390
H33A H -0.17160 0.49260 -0.04760
H7A H -0.07170 0.63670 0.68270
H8A H -0.19450 0.66170 0.70890
H9A H -0.16930 0.69950 0.57340
H16A H -0.47740 -0.29810 0.44130
H17A H -0.56010 -0.17530 0.36520
H18A H -0.56560 -0.33950 0.29230
H25A H -0.46560 -0.38610 -0.23550
H26A H -0.49690 -0.35920 -0.07430
H27A H -0.61800 -0.37030 -0.20820
H34A H -0.26270 0.55730 0.10860
H35A H -0.12800 0.58160 0.25530
H36A H -0.16360 0.68120 0.13430
loop_
_geom_bond_atom_site_label_1
_geom_bond_atom_site_label_2
_geom_bond_site_symmetry_1
_geom_bond_site_symmetry_2
Cu1 O1 1_555 1_555
P1 O1 1_555 1_555
P2 O3 1_555 1_555
O2 Cu1 1_555 1_555
O3 Cu1 1_555 1_555
O4 Cu1 1_555 1_555
C1 P1 1_555 1_555
C2 C1 1_555 1_555
C3 C2 1_555 1_555
C4 C3 1_555 1_555
C5 P1 1_555 1_555
C6 C5 1_555 1_555
C7 C6 1_555 1_555
C8 C7 1_555 1_555
H1 C1 1_555 1_555
H2 C1 1_555 1_555
H3 C2 1_555 1_555
H4 C2 1_555 1_555
H5 C3 1_555 1_555
H6 C3 1_555 1_555
H7 C4 1_555 1_555
H8 C4 1_555 1_555
H9 C4 1_555 1_555
H10 C5 1_555 1_555
H11 C5 1_555 1_555
H12 C6 1_555 1_555
H13 C6 1_555 1_555
H14 C7 1_555 1_555
H15 C7 1_555 1_555
H16 C8 1_555 1_555
H17 C8 1_555 1_555
H18 C8 1_555 1_555
C9 P2 1_555 1_555
C10 C9 1_555 1_555
C11 C10 1_555 1_555
C12 C11 1_555 1_555
C13 P2 1_555 1_555
C14 C13 1_555 1_555
C15 C14 1_555 1_555
C16 C15 1_555 1_555
H19 C9 1_555 1_555
H20 C9 1_555 1_555
H21 C10 1_555 1_555
H22 C10 1_555 1_555
H23 C11 1_555 1_555
H24 C11 1_555 1_555
H25 C12 1_555 1_555
H26 C12 1_555 1_555
H27 C12 1_555 1_555
H28 C13 1_555 1_555
H29 C13 1_555 1_555
H30 C14 1_555 1_555
H31 C14 1_555 1_555
H32 C15 1_555 1_555
H33 C15 1_555 1_555
H34 C16 1_555 1_555
H35 C16 1_555 1_555
H36 C16 1_555 1_555
O2A P1 1_555 1_555
P1A O2 1_555 1_555
O4A P2 1_555 1_555
P2A O4 1_555 1_555
Cu1A O2A 1_555 1_555
O1A P1A 1_555 1_555
C1A P1A 1_555 1_555
C5A P1A 1_555 1_555
Cu1A_2 O4A 1_555 1_555
O3A P2A 1_555 1_555
C9A P2A 1_555 1_555
C13A P2A 1_555 1_555
O3A_2 Cu1A 1_555 1_555
O4A_2 Cu1A 1_555 1_555
C2A C1A 1_555 1_555
H1A C1A 1_555 1_555
H2A C1A 1_555 1_555
C6A C5A 1_555 1_555
H10A C5A 1_555 1_555
H11A C5A 1_555 1_555
C10A C9A 1_555 1_555
H19A C9A 1_555 1_555
H20A C9A 1_555 1_555
C14A C13A 1_555 1_555
H28A C13A 1_555 1_555
H29A C13A 1_555 1_555
C3A C2A 1_555 1_555
H3A C2A 1_555 1_555
H4A C2A 1_555 1_555
C7A C6A 1_555 1_555
H12A C6A 1_555 1_555
H13A C6A 1_555 1_555
C11A C10A 1_555 1_555
H21A C10A 1_555 1_555
H22A C10A 1_555 1_555
C15A C14A 1_555 1_555
H30A C14A 1_555 1_555
H31A C14A 1_555 1_555
C4A C3A 1_555 1_555
H5A C3A 1_555 1_555
H6A C3A 1_555 1_555
C8A C7A 1_555 1_555
H14A C7A 1_555 1_555
H15A C7A 1_555 1_555
C12A C11A 1_555 1_555
H23A C11A 1_555 1_555
H24A C11A 1_555 1_555
C16A C15A 1_555 1_555
H32A C15A 1_555 1_555
H33A C15A 1_555 1_555
H7A C4A 1_555 1_555
H8A C4A 1_555 1_555
H9A C4A 1_555 1_555
H16A C8A 1_555 1_555
H17A C8A 1_555 1_555
H18A C8A 1_555 1_555
H25A C12A 1_555 1_555
H26A C12A 1_555 1_555
H27A C12A 1_555 1_555
H34A C16A 1_555 1_555
H35A C16A 1_555 1_555
H36A C16A 1_555 1_555
Cu1A O1A 1_555 1_555
Cu1A_2 O3A 1_555 1_555

#END
