
#######################################################################
#
#                 Cambridge Crystallographic Data Centre
#                                CCDC 
#
#######################################################################
#
# If this CIF has been generated from an entry in the Cambridge 
# Structural Database, then it will include bibliographic, chemical, 
# crystal, experimental, refinement or atomic coordinate data resulting 
# from the CCDC's data processing and validation procedures.
#
#######################################################################

data_DEBBOC
_symmetry_cell_setting           orthorhombic
_symmetry_space_group_name_H-M   'P b c a'
_symmetry_Int_Tables_number      61
_space_group_name_Hall           '-P 2ac 2ab'
loop_
_symmetry_equiv_pos_site_id
_symmetry_equiv_pos_as_xyz
1 x,y,z
2 1/2-x,-y,1/2+z
3 -x,1/2+y,1/2-z
4 1/2+x,1/2-y,-z
5 -x,-y,-z
6 1/2+x,y,1/2-z
7 x,1/2-y,1/2+z
8 1/2-x,1/2+y,z
_cell_length_a                   16.930(3)
_cell_length_b                   11.470(2)
_cell_length_c                   33.827(7)
_cell_angle_alpha                90
_cell_angle_beta                 90
_cell_angle_gamma                90
_cell_volume                     6568.77
loop_
_atom_site_label
_atom_site_type_symbol
_atom_site_fract_x
_atom_site_fract_y
_atom_site_fract_z
Na1 Na 0.21106(11) 0.96101(17) 0.44657(5)
Na2 Na 0.18752(12) 0.97948(18) 0.33079(6)
O1 O 0.2562(3) 1.0073(4) 0.50884(11)
O2 O 0.1042(3) 0.8391(4) 0.45536(14)
O3 O 0.0928(3) 0.8382(4) 0.31998(15)
O4 O 0.2180(3) 0.9924(4) 0.26366(13)
C1 C 0.4685(3) 0.7019(5) 0.40588(17)
C2 C 0.4213(3) 0.8140(5) 0.34025(16)
C3 C 0.5539(4) 0.6659(7) 0.4102(3)
H1 H 0.5802 0.7240 0.4263
H2 H 0.5551 0.5932 0.4248
C4 C 0.5993(6) 0.6504(14) 0.3753(3)
H3 H 0.5876 0.5727 0.3657
H4 H 0.6542 0.6495 0.3835
C5 C 0.5948(5) 0.7262(8) 0.3419(4)
H5 H 0.5987 0.8031 0.3537
H6 H 0.6451 0.7139 0.3288
C6 C 0.5417(6) 0.7437(16) 0.3099(3)
H7 H 0.5256 0.6654 0.3027
H8 H 0.5754 0.7701 0.2885
C7 C 0.4712(5) 0.8113(6) 0.3053(2)
H9 H 0.4409 0.7797 0.2834
H10 H 0.4857 0.8906 0.2985
C8 C 0.3212(5) 0.9557(9) 0.5279(2)
H11 H 0.3700 0.9809 0.5155
H12 H 0.3179 0.8714 0.5259
C9 C 0.3201(7) 0.9898(12) 0.5680(3)
H13 H 0.3710 1.0214 0.5756
H14 H 0.3084 0.9235 0.5848
C10 C 0.2586(6) 1.0788(11) 0.5719(3)
H15 H 0.2238 1.0607 0.5938
H16 H 0.2819 1.1549 0.5763
C11 C 0.2160(6) 1.0769(9) 0.5353(3)
H17 H 0.1632 1.0463 0.5396
H18 H 0.2113 1.1554 0.5249
C12 C 0.1085(5) 0.7200(8) 0.4544(4)
H19 H 0.1357 0.6924 0.4779
H20 H 0.1388 0.6959 0.4315
C13 C 0.0300(5) 0.6678(7) 0.4526(3)
H21 H 0.0204 0.6191 0.4756
H22 H 0.0242 0.6207 0.4290
C14 C -0.0247(5) 0.7667(8) 0.4519(3)
H23 H -0.0487 0.7753 0.4260
H24 H -0.0661 0.7574 0.4715
C15 C 0.0255(5) 0.8661(8) 0.4612(4)
H25 H 0.0111 0.9316 0.4445
H26 H 0.0174 0.8888 0.4885
C16 C 0.1074(5) 0.7190(8) 0.3171(4)
H27 H 0.1316 0.6908 0.3413
H28 H 0.1432 0.7035 0.2954
C17 C 0.0325(7) 0.6603(8) 0.3105(4)
H29 H 0.0271 0.5946 0.3284
H30 H 0.0296 0.6318 0.2836
C18 C -0.0287(6) 0.7434(10) 0.3176(4)
H31 H -0.0698 0.7370 0.2977
H32 H -0.0520 0.7316 0.3435
C19 C 0.0097(6) 0.8555(8) 0.3154(4)
H33 H -0.0012 0.8919 0.2901
H34 H -0.0100 0.9062 0.3361
C20 C 0.2761(8) 0.9321(13) 0.2436(3)
H35 H 0.3275 0.9589 0.2524
H36 H 0.2719 0.8498 0.2498
C21 C 0.2700(6) 0.9474(10) 0.2030(3)
H37 H 0.2547 0.8751 0.1902
H38 H 0.3199 0.9732 0.1920
C22 C 0.2079(6) 1.0382(9) 0.1974(3)
H39 H 0.2302 1.1091 0.1864
H40 H 0.1663 1.0105 0.1800
C23 C 0.1783(7) 1.0576(9) 0.2369(3)
H41 H 0.1838 1.1394 0.2436
H42 H 0.1226 1.0380 0.2379
B1 B 0.4514(4) 0.8672(7) 0.3819(2)
H43 H 0.5059 0.9171 0.3767
B2 B 0.3512(3) 0.8949(5) 0.35374(16)
H44 H 0.3292 0.9673 0.3355
B3 B 0.3417(5) 0.7392(6) 0.3468(2)
H45 H 0.3206 0.7002 0.3190
B4 B 0.4126(5) 0.6439(8) 0.3761(4)
B5 B 0.3602(3) 0.9014(5) 0.40683(16)
H46 H 0.3502 0.9879 0.4200
B6 B 0.2866(3) 0.8158(5) 0.38438(14)
H47 H 0.2238 0.8390 0.3821
B7 B 0.3161(4) 0.6708(5) 0.3925(2)
H48 H 0.2720 0.6004 0.3914
B8 B 0.3940(4) 0.6635(6) 0.4300(2)
H49 H 0.3957 0.6012 0.4547
B9 B 0.4291(4) 0.8059(5) 0.4289(2)
H50 H 0.4656 0.8413 0.4530
B10 B 0.3254(4) 0.7749(5) 0.43030(18)
H51 H 0.2873 0.7796 0.4566
H52 H 0.4405 0.5626 0.3605
Na1G Na 0.28894(11) 0.46101(17) 0.44657(5)
Na2G Na 0.31248(12) 0.47948(18) 0.33079(6)
B3G B 0.1583(5) 1.2392(6) 0.3468(2)
H45G H 0.1794 1.2002 0.3190
B4G B 0.0874(5) 1.1439(8) 0.3761(4)
B7G B 0.1839(4) 1.1708(5) 0.3925(2)
H48G H 0.2280 1.1004 0.3914
B8G B 0.1060(4) 1.1635(6) 0.4300(2)
H49G H 0.1043 1.1012 0.4547
H52G H 0.0595 1.0626 0.3605
loop_
_geom_bond_atom_site_label_1
_geom_bond_atom_site_label_2
_geom_bond_site_symmetry_1
_geom_bond_site_symmetry_2
Na1 O1 1_555 1_555
Na2 O3 1_555 1_555
O1 C8 1_555 1_555
O2 Na1 1_555 1_555
O3 C16 1_555 1_555
O4 Na2 1_555 1_555
C1 C3 1_555 1_555
C2 C7 1_555 1_555
C3 H1 1_555 1_555
H2 C3 1_555 1_555
C4 C3 1_555 1_555
H3 C4 1_555 1_555
H4 C4 1_555 1_555
C5 C4 1_555 1_555
H5 C5 1_555 1_555
H6 C5 1_555 1_555
C6 C5 1_555 1_555
H7 C6 1_555 1_555
H8 C6 1_555 1_555
C7 C6 1_555 1_555
H9 C7 1_555 1_555
H10 C7 1_555 1_555
C8 H11 1_555 1_555
H12 C8 1_555 1_555
C9 C8 1_555 1_555
H13 C9 1_555 1_555
H14 C9 1_555 1_555
C10 C9 1_555 1_555
H15 C10 1_555 1_555
H16 C10 1_555 1_555
C11 O1 1_555 1_555
H17 C11 1_555 1_555
H18 C11 1_555 1_555
C12 O2 1_555 1_555
H19 C12 1_555 1_555
H20 C12 1_555 1_555
C13 C12 1_555 1_555
H21 C13 1_555 1_555
H22 C13 1_555 1_555
C14 C13 1_555 1_555
H23 C14 1_555 1_555
H24 C14 1_555 1_555
C15 O2 1_555 1_555
H25 C15 1_555 1_555
H26 C15 1_555 1_555
C16 H27 1_555 1_555
H28 C16 1_555 1_555
C17 C16 1_555 1_555
H29 C17 1_555 1_555
H30 C17 1_555 1_555
C18 C17 1_555 1_555
H31 C18 1_555 1_555
H32 C18 1_555 1_555
C19 O3 1_555 1_555
H33 C19 1_555 1_555
H34 C19 1_555 1_555
C20 O4 1_555 1_555
H35 C20 1_555 1_555
H36 C20 1_555 1_555
C21 C20 1_555 1_555
H37 C21 1_555 1_555
H38 C21 1_555 1_555
C22 C21 1_555 1_555
H39 C22 1_555 1_555
H40 C22 1_555 1_555
C23 O4 1_555 1_555
H41 C23 1_555 1_555
H42 C23 1_555 1_555
B1 C2 1_555 1_555
H43 B1 1_555 1_555
B2 Na2 1_555 1_555
H44 B2 1_555 1_555
B3 C2 1_555 1_555
H45 B3 1_555 1_555
B4 C1 1_555 1_555
B5 Na1 1_555 1_555
H46 B5 1_555 1_555
B6 Na1 1_555 1_555
H47 B6 1_555 1_555
B7 B3 1_555 1_555
H48 B7 1_555 1_555
B8 C1 1_555 1_555
H49 B8 1_555 1_555
B9 C1 1_555 1_555
H50 B9 1_555 1_555
B10 Na1 1_555 1_555
H51 B10 1_555 1_555
H52 B4 1_555 1_555
Na1G B7 1_555 1_555
Na2G B3 1_555 1_555
B3G Na2 1_555 1_555
H45G B3G 1_555 1_555
B4G Na2 1_555 1_555
B7G Na1 1_555 1_555
H48G B7G 1_555 1_555
B8G Na1 1_555 1_555
H49G B8G 1_555 1_555
H52G B4G 1_555 1_555
Na2 B6 1_555 1_555
Na2 B7G 1_555 1_555
C2 B2 1_555 1_555
C10 C11 1_555 1_555
C14 C15 1_555 1_555
C18 C19 1_555 1_555
C22 C23 1_555 1_555
B1 B2 1_555 1_555
B1 B5 1_555 1_555
B1 B9 1_555 1_555
B2 B3 1_555 1_555
B2 B5 1_555 1_555
B2 B6 1_555 1_555
B3 B4 1_555 1_555
B3 B6 1_555 1_555
B4 B7 1_555 1_555
B4 B8 1_555 1_555
B4 Na2G 1_555 1_555
B5 B6 1_555 1_555
B5 B9 1_555 1_555
B5 B10 1_555 1_555
B6 B7 1_555 1_555
B6 B10 1_555 1_555
B7 B8 1_555 1_555
B7 B10 1_555 1_555
B7 Na2G 1_555 1_555
B8 B9 1_555 1_555
B8 B10 1_555 1_555
B8 Na1G 1_555 1_555
B9 B10 1_555 1_555
B3G B4G 1_555 1_555
B3G B7G 1_555 1_555
B4G B7G 1_555 1_555
B4G B8G 1_555 1_555
B7G B8G 1_555 1_555

#END
