
#######################################################################
#
#                 Cambridge Crystallographic Data Centre
#                                CCDC 
#
#######################################################################
#
# If this CIF has been generated from an entry in the Cambridge 
# Structural Database, then it will include bibliographic, chemical, 
# crystal, experimental, refinement or atomic coordinate data resulting 
# from the CCDC's data processing and validation procedures.
#
#######################################################################

data_DEBGEW
_symmetry_cell_setting           triclinic
_symmetry_space_group_name_H-M   'P -1'
_symmetry_Int_Tables_number      2
_space_group_name_Hall           '-P 1'
loop_
_symmetry_equiv_pos_site_id
_symmetry_equiv_pos_as_xyz
1 x,y,z
2 -x,-y,-z
_cell_length_a                   10.135(4)
_cell_length_b                   10.675(3)
_cell_length_c                   19.285(9)
_cell_angle_alpha                114.66(3)
_cell_angle_beta                 91.94(3)
_cell_angle_gamma                114.99(3)
_cell_volume                     1661.81
loop_
_atom_site_label
_atom_site_type_symbol
_atom_site_fract_x
_atom_site_fract_y
_atom_site_fract_z
Pb1 Pb -0.5954(1) -0.4310(1) -0.0635(1)
O1 O -0.8352(18) -0.7014(19) -0.0791(14)
C1 C -0.1313(26) 0.3532(25) -0.2374(21)
C2 C -0.0449(45) 0.3364(43) -0.2858(30)
C3 C -0.1428(46) 0.2336(44) -0.3711(30)
C4 C -0.2732(47) 0.1741(43) -0.3939(29)
C5 C -0.3481(51) 0.1878(50) -0.3431(33)
C6 C -0.2825(33) 0.2889(33) -0.2610(24)
O2 O -0.0386(21) 0.4576(21) -0.1584(15)
C7 C -0.1050(25) 0.4735(25) -0.0962(20)
C8 C -0.1622(21) 0.3379(22) -0.0831(18)
O3 O -0.1370(18) 0.2231(18) -0.1204(14)
O4 O -0.2493(17) 0.3282(17) -0.0376(13)
Pb2 Pb -0.3740(1) 0.0292(1) -0.0886(1)
C9 C -0.6849(28) -0.7458(27) -0.2753(23)
C10 C -0.6470(34) -0.6214(32) -0.2931(26)
C11 C -0.7049(43) -0.6456(42) -0.3685(32)
C12 C -0.7841(47) -0.7869(49) -0.4311(31)
C13 C -0.8209(40) -0.9144(41) -0.4189(31)
C14 C -0.7773(35) -0.8942(40) -0.3423(26)
O5 O -0.6310(18) -0.7092(18) -0.2069(14)
C15 C -0.6619(24) -0.8370(24) -0.1893(19)
C16 C -0.5802(22) -0.7663(33) -0.1040(19)
O6 O -0.5163(15) -0.6231(16) -0.0610(12)
O7 O -0.5752(17) -0.8606(16) -0.0787(13)
C17 C -0.7290(25) -0.2531(25) -0.2756(23)
C18 C -0.6046(31) -0.2251(30) -0.3165(26)
C19 C -0.6297(14) -0.2575(40) -0.4015(32)
C20 C -0.7638(39) -0.3000(37) -0.4324(26)
C21 C -0.8828(33) -0.3251(33) -0.3982(28)
C22 C -0.8650(29) -0.2917(29) -0.3164(25)
O8 O -0.6993(17) -0.2222(17) -0.2029(16)
C23 C -0.8109(21) -0.2128(21) -0.1562(18)
C24 C -0.7415(23) -0.1538(23) -0.0748(19)
O9 O -0.8181(17) -0.1157(18) -0.0280(13)
O10 O -0.6212(15) -0.1449(17) -0.0533(13)
C25 C -0.1844(25) -0.1822(27) -0.2295(21)
C26 C -0.1631(31) -0.0906(32) -0.2700(25)
C27 C -0.1918(59) -0.1626(64) -0.3313(39)
C28 C -0.2507(58) -0.2967(62) -0.3836(36)
C29 C -0.2874(36) -0.4008(38) -0.3518(27)
C30 C -0.2463(32) -0.3387(33) -0.2780(24)
O11 O -0.1338(19) -0.0981(20) -0.1477(15)
C31 C -0.1425(25) -0.1822(25) -0.1046(20)
C32 C -0.3006(22) -0.2600(22) -0.0954(18)
O12 O -0.4044(16) -0.2433(18) -0.1219(14)
O13 O -0.3202(18) -0.3355(19) -0.0563(14)
O6A O -0.4837(15) -0.3769(16) 0.0610(12)
O10A O -0.3788(15) 0.1449(17) 0.0533(13)
O7A O -0.4248(17) -0.1394(16) 0.0787(13)
Pb1A Pb -0.4046(1) -0.5690(1) 0.0635(1)
Pb2A Pb -0.6260(1) -0.0292(1) 0.0886(1)
O4A O -0.7507(17) -0.3282(17) 0.0376(13)
O7_2 O -0.5752(17) 0.1394(16) -0.0787(13)
O9A O -0.1819(17) 0.1157(18) 0.0280(13)
Pb1A_2 Pb -0.4046(1) 0.4310(1) 0.0635(1)
Pb2_2 Pb -0.3740(1) -0.9708(1) -0.0886(1)
loop_
_geom_bond_atom_site_label_1
_geom_bond_atom_site_label_2
_geom_bond_site_symmetry_1
_geom_bond_site_symmetry_2
Pb1 O1 1_555 1_555
C1 C2 1_555 1_555
C2 C3 1_555 1_555
C3 C4 1_555 1_555
C4 C5 1_555 1_555
C5 C6 1_555 1_555
C6 C1 1_555 1_555
O2 C1 1_555 1_555
C7 O2 1_555 1_555
C8 C7 1_555 1_555
O3 C8 1_555 1_555
O4 C8 1_555 1_555
Pb2 O3 1_555 1_555
C9 C10 1_555 1_555
C10 C11 1_555 1_555
C11 C12 1_555 1_555
C12 C13 1_555 1_555
C13 C14 1_555 1_555
C14 C9 1_555 1_555
O5 Pb1 1_555 1_555
C15 O5 1_555 1_555
C16 C15 1_555 1_555
O6 Pb1 1_555 1_555
O7 C16 1_555 1_555
C17 C18 1_555 1_555
C18 C19 1_555 1_555
C19 C20 1_555 1_555
C20 C21 1_555 1_555
C21 C22 1_555 1_555
C22 C17 1_555 1_555
O8 C17 1_555 1_555
C23 O8 1_555 1_555
C24 C23 1_555 1_555
O9 C24 1_555 1_555
O10 Pb2 1_555 1_555
C25 C26 1_555 1_555
C26 C27 1_555 1_555
C27 C28 1_555 1_555
C28 C29 1_555 1_555
C29 C30 1_555 1_555
C30 C25 1_555 1_555
O11 C25 1_555 1_555
C31 O11 1_555 1_555
C32 C31 1_555 1_555
O12 Pb1 1_555 1_555
O13 Pb1 1_555 1_555
O6A Pb1 1_555 1_555
O10A Pb2 1_555 1_555
O7A Pb1 1_555 1_555
Pb1A O6 1_555 1_555
Pb2A O9 1_555 1_555
O4A Pb1 1_555 1_555
O7_2 Pb2 1_555 1_555
O9A Pb2 1_555 1_555
Pb1A_2 O4 1_555 1_555
Pb2_2 O7 1_555 1_555
O4 Pb2 1_555 1_555
Pb2 O12 1_555 1_555
C9 O5 1_555 1_555
C16 O6 1_555 1_555
O7 Pb1A 1_555 1_555
C24 O10 1_555 1_555
O10 Pb2A 1_555 1_555
C32 O12 1_555 1_555
C32 O13 1_555 1_555
O6A Pb1A 1_555 1_555
O10A Pb2A 1_555 1_555
O7A Pb2A 1_555 1_555
Pb2A O4A 1_555 1_555
O7_2 Pb1A_2 1_555 1_555

#END
