
#######################################################################
#
#                 Cambridge Crystallographic Data Centre
#                                CCDC 
#
#######################################################################
#
# If this CIF has been generated from an entry in the Cambridge 
# Structural Database, then it will include bibliographic, chemical, 
# crystal, experimental, refinement or atomic coordinate data resulting 
# from the CCDC's data processing and validation procedures.
#
#######################################################################

data_DEBGUO
_symmetry_cell_setting           orthorhombic
_symmetry_space_group_name_H-M   'P n m a'
_symmetry_Int_Tables_number      62
_space_group_name_Hall           '-P 2ac 2n'
loop_
_symmetry_equiv_pos_site_id
_symmetry_equiv_pos_as_xyz
1 x,y,z
2 1/2-x,-y,1/2+z
3 -x,1/2+y,-z
4 1/2+x,1/2-y,1/2-z
5 -x,-y,-z
6 1/2+x,y,1/2-z
7 x,1/2-y,z
8 1/2-x,1/2+y,1/2+z
_cell_length_a                   16.3512(9)
_cell_length_b                   33.8821(19)
_cell_length_c                   10.7399(6)
_cell_angle_alpha                90
_cell_angle_beta                 90
_cell_angle_gamma                90
_cell_volume                     5950.04
loop_
_atom_site_label
_atom_site_type_symbol
_atom_site_fract_x
_atom_site_fract_y
_atom_site_fract_z
Ag1 Ag 0.12980(4) 0.05901(2) 0.36429(6)
Ag2 Ag -0.08833(8) 0.2500 0.39341(13)
C1 C -0.1234(6) 0.1691(3) 0.2707(10)
H1 H -0.1512 0.1848 0.2137
C2 C -0.1202(5) 0.1292(3) 0.2498(8)
H2 H -0.1461 0.1182 0.1811
C3 C -0.0784(5) 0.1061(3) 0.3317(7)
C4 C -0.0430(5) 0.1244(3) 0.4370(8)
H3 H -0.0142 0.1095 0.4949
C5 C -0.0513(5) 0.1637(3) 0.4529(10)
H4 H -0.0303 0.1752 0.5247
C6 C -0.0688(5) 0.0638(2) 0.3126(8)
C7 C -0.1040(5) 0.0062(3) 0.2265(10)
H5 H -0.0891 0.0021 0.1400
H6 H -0.1468 -0.0123 0.2488
C8 C -0.0304(5) 0.0017(3) 0.3109(10)
H7 H -0.0436 -0.0144 0.3828
H8 H 0.0150 -0.0103 0.2666
C9 C 0.3171(5) 0.0317(3) -0.1071(8)
H9 H 0.3542 0.0344 -0.1722
C10 C 0.2834(4) 0.0660(2) -0.0553(8)
H10 H 0.2991 0.0907 -0.0839
C11 C 0.2272(4) 0.0623(2) 0.0378(7)
C12 C 0.2051(5) 0.0248(2) 0.0773(8)
H11 H 0.1666 0.0212 0.1400
C13 C 0.2425(5) -0.0073(2) 0.0199(8)
H12 H 0.2270 -0.0325 0.0447
C14 C 0.1927(5) 0.0976(2) 0.0960(8)
C15 C 0.1658(6) 0.1626(3) 0.1070(9)
H13 H 0.1221 0.1754 0.0613
H14 H 0.2061 0.1822 0.1305
C16 C 0.1327(6) 0.1414(2) 0.2209(9)
H15 H 0.1574 0.1517 0.2964
H16 H 0.0738 0.1444 0.2265
C17 C 0.1976(6) 0.1512(3) 0.7034(9)
H17 H 0.1520 0.1683 0.7195
H18 H 0.2430 0.1665 0.6736
H19 H 0.2128 0.1379 0.7789
C18 C 0.1743(6) 0.1217(3) 0.6083(10)
N1 N -0.0884(5) 0.1868(2) 0.3696(9)
N2 N -0.0102(4) 0.0422(2) 0.3486(6)
N3 N 0.1589(6) 0.0986(3) 0.5354(9)
N4 N 0.1556(4) 0.09945(19) 0.2015(6)
N5 N 0.2991(4) -0.0040(2) -0.0682(6)
O1 O -0.1299(3) 0.04636(18) 0.2477(6)
O2 O 0.2027(4) 0.13155(16) 0.0336(5)
Ag1F Ag 0.12980(4) 0.44099(2) 0.36429(6)
Ag1A Ag 0.37020(4) -0.05901(2) -0.13571(6)
Ag1A_2 Ag 0.37020(4) -0.05901(2) 0.86429(6)
C1F C -0.1234(6) 0.3309(3) 0.2707(10)
H1F H -0.1512 0.3152 0.2137
C2F C -0.1202(5) 0.3708(3) 0.2498(8)
H2F H -0.1461 0.3818 0.1811
C3F C -0.0784(5) 0.3939(3) 0.3317(7)
C4F C -0.0430(5) 0.3756(3) 0.4370(8)
H3F H -0.0142 0.3905 0.4949
C5F C -0.0513(5) 0.3363(3) 0.4529(10)
H4F H -0.0303 0.3248 0.5247
C6F C -0.0688(5) 0.4362(2) 0.3126(8)
C7F C -0.1040(5) 0.4938(3) 0.2265(10)
H5F H -0.0891 0.4979 0.1400
H6F H -0.1468 0.5123 0.2488
C8F C -0.0304(5) 0.4983(3) 0.3109(10)
H7F H -0.0436 0.5144 0.3828
H8F H 0.0150 0.5103 0.2666
C9A C 0.1829(5) -0.0317(3) 0.3929(8)
H9A H 0.1458 -0.0344 0.3278
C10A C 0.2166(4) -0.0660(2) 0.4447(8)
H10A H 0.2009 -0.0907 0.4161
C11A C 0.2728(4) -0.0623(2) 0.5378(7)
C12A C 0.2949(5) -0.0248(2) 0.5773(8)
H11A H 0.3334 -0.0212 0.6400
C13A C 0.2575(5) 0.0073(2) 0.5199(8)
H12A H 0.2730 0.0325 0.5447
C14A C 0.3073(5) -0.0976(2) 0.5960(8)
C15A C 0.3342(6) -0.1626(3) 0.6070(9)
H13A H 0.3779 -0.1754 0.5613
H14A H 0.2939 -0.1822 0.6305
C16A C 0.3673(6) -0.1414(2) 0.7209(9)
H15A H 0.3426 -0.1517 0.7964
H16A H 0.4262 -0.1444 0.7265
C17F C 0.1976(6) 0.3488(3) 0.7034(9)
H17F H 0.1520 0.3317 0.7195
H18F H 0.2430 0.3335 0.6736
H19F H 0.2128 0.3621 0.7789
C18F C 0.1743(6) 0.3783(3) 0.6083(10)
N1F N -0.0884(5) 0.3132(2) 0.3696(9)
N2F N -0.0102(4) 0.4578(2) 0.3486(6)
N3F N 0.1589(6) 0.4014(3) 0.5354(9)
N4A N 0.3444(4) -0.09945(19) 0.7015(6)
N4F N 0.1556(4) 0.40055(19) 0.2015(6)
N5A N 0.2009(4) 0.0040(2) 0.4318(6)
N5G N 0.2009(4) 0.4960(2) 0.4318(6)
O1F O -0.1299(3) 0.45364(18) 0.2477(6)
O2A O 0.2973(4) -0.13155(16) 0.5336(5)
F1 F 0.2479(7) 0.2067(4) 0.4292(13)
F2 F 0.2156(18) 0.2500 0.2644(13)
F3 F 0.1048(9) 0.2133(4) 0.4216(15)
F4 F 0.1867(18) 0.2500 0.5932(12)
Sb1 Sb 0.18154(6) 0.2500 0.42725(10)
F1F F 0.2479(7) 0.2933(4) 0.4292(13)
F3F F 0.1048(9) 0.2867(4) 0.4216(15)
F5 F -0.0159(6) 0.8496(2) 0.1179(12)
F6 F 0.0655(8) 0.8917(5) 0.2759(9)
F7 F -0.0634(5) 0.9195(2) 0.1637(9)
F8 F 0.0835(6) 0.9470(3) 0.1175(9)
F9 F 0.0055(5) 0.9059(3) -0.0481(8)
F10 F 0.1302(5) 0.8757(4) 0.0530(10)
Sb2 Sb 0.03476(4) 0.89628(3) 0.11689(7)
O3 O 0.8969(12) 0.2500 0.6515(16)
O4? O 0.751(3) 0.2500 0.587(5)
loop_
_geom_bond_atom_site_label_1
_geom_bond_atom_site_label_2
_geom_bond_site_symmetry_1
_geom_bond_site_symmetry_2
Ag1 N2 1_555 1_555
Ag2 N1 1_555 1_555
C1 H1 1_555 1_555
C2 C1 1_555 1_555
H2 C2 1_555 1_555
C3 C2 1_555 1_555
C4 C3 1_555 1_555
H3 C4 1_555 1_555
C5 C4 1_555 1_555
H4 C5 1_555 1_555
C6 C3 1_555 1_555
C7 H5 1_555 1_555
H6 C7 1_555 1_555
C8 C7 1_555 1_555
H7 C8 1_555 1_555
H8 C8 1_555 1_555
C9 H9 1_555 1_555
C10 C9 1_555 1_555
H10 C10 1_555 1_555
C11 C10 1_555 1_555
C12 C11 1_555 1_555
H11 C12 1_555 1_555
C13 C12 1_555 1_555
H12 C13 1_555 1_555
C14 C11 1_555 1_555
C15 H13 1_555 1_555
H14 C15 1_555 1_555
C16 C15 1_555 1_555
H15 C16 1_555 1_555
H16 C16 1_555 1_555
C17 H17 1_555 1_555
H18 C17 1_555 1_555
H19 C17 1_555 1_555
C18 C17 1_555 1_555
F1 Sb1 1_555 1_555
F2 Sb1 1_555 1_555
F3 Sb1 1_555 1_555
F4 Sb1 1_555 1_555
F5 Sb2 1_555 1_555
F6 Sb2 1_555 1_555
F7 Sb2 1_555 1_555
F8 Sb2 1_555 1_555
F9 Sb2 1_555 1_555
F10 Sb2 1_555 1_555
N1 C1 1_555 1_555
N2 C6 1_555 1_555
N3 Ag1 1_555 1_555
N4 Ag1 1_555 1_555
N5 C9 1_555 1_555
O1 C6 1_555 1_555
O2 C14 1_555 1_555
Sb1 F1F 1_555 1_555
Ag1F N2F 1_555 1_555
Ag1A N5 1_555 1_555
Ag1A_2 N4A 1_555 1_555
C1F H1F 1_555 1_555
C2F C1F 1_555 1_555
H2F C2F 1_555 1_555
C3F C2F 1_555 1_555
C4F C3F 1_555 1_555
H3F C4F 1_555 1_555
C5F C4F 1_555 1_555
H4F C5F 1_555 1_555
C6F C3F 1_555 1_555
C7F H5F 1_555 1_555
H6F C7F 1_555 1_555
C8F C7F 1_555 1_555
H7F C8F 1_555 1_555
H8F C8F 1_555 1_555
C9A H9A 1_555 1_555
C10A C9A 1_555 1_555
H10A C10A 1_555 1_555
C11A C10A 1_555 1_555
C12A C11A 1_555 1_555
H11A C12A 1_555 1_555
C13A C12A 1_555 1_555
H12A C13A 1_555 1_555
C14A C11A 1_555 1_555
C15A H13A 1_555 1_555
H14A C15A 1_555 1_555
C16A C15A 1_555 1_555
H15A C16A 1_555 1_555
H16A C16A 1_555 1_555
C17F H17F 1_555 1_555
H18F C17F 1_555 1_555
H19F C17F 1_555 1_555
C18F C17F 1_555 1_555
F3F Sb1 1_555 1_555
N1F Ag2 1_555 1_555
N2F C6F 1_555 1_555
N3F Ag1F 1_555 1_555
N4A C14A 1_555 1_555
N4F Ag1F 1_555 1_555
N5A Ag1 1_555 1_555
N5G Ag1F 1_555 1_555
O1F C6F 1_555 1_555
O2A C14A 1_555 1_555
C5 N1 1_555 1_555
C7 O1 1_555 1_555
C8 N2 1_555 1_555
C13 N5 1_555 1_555
C14 N4 1_555 1_555
C15 O2 1_555 1_555
C16 N4 1_555 1_555
C18 N3 1_555 1_555
C1F N1F 1_555 1_555
C5F N1F 1_555 1_555
C7F O1F 1_555 1_555
C8F N2F 1_555 1_555
C9A N5A 1_555 1_555
C13A N5A 1_555 1_555
C15A O2A 1_555 1_555
C16A N4A 1_555 1_555
C18F N3F 1_555 1_555

#END
