
#######################################################################
#
#                 Cambridge Crystallographic Data Centre
#                                CCDC 
#
#######################################################################
#
# If this CIF has been generated from an entry in the Cambridge 
# Structural Database, then it will include bibliographic, chemical, 
# crystal, experimental, refinement or atomic coordinate data resulting 
# from the CCDC's data processing and validation procedures.
#
#######################################################################

data_DEBGEY
_symmetry_cell_setting           monoclinic
_symmetry_space_group_name_H-M   'P 21/c'
_symmetry_Int_Tables_number      14
_space_group_name_Hall           '-P 2ybc'
loop_
_symmetry_equiv_pos_site_id
_symmetry_equiv_pos_as_xyz
1 x,y,z
2 -x,1/2+y,1/2-z
3 -x,-y,-z
4 x,1/2-y,1/2+z
_cell_length_a                   12.3257(13)
_cell_length_b                   24.092(5)
_cell_length_c                   13.067(2)
_cell_angle_alpha                90
_cell_angle_beta                 96.234(11)
_cell_angle_gamma                90
_cell_volume                     3857.31
loop_
_atom_site_label
_atom_site_type_symbol
_atom_site_fract_x
_atom_site_fract_y
_atom_site_fract_z
Zn1 Zn 0.20970(5) 0.47980(3) 0.65886(6)
Zn2 Zn 0.27220(5) 0.51388(3) 0.42947(7)
Zn3 Zn 0.46728(6) 0.44471(3) 0.62029(7)
O1 O 0.3435(3) 0.49533(17) 0.5837(4)
H1 H 0.372(5) 0.5276(13) 0.584(6)
O2 O 0.4023(3) 0.51049(17) 0.3585(4)
H2 H 0.411(5) 0.4751(9) 0.357(6)
N1 N 0.0608(4) 0.4682(2) 0.7308(4)
C1 C 0.0523(5) 0.4099(2) 0.7726(5)
H3 H 0.0559 0.3834 0.7172
H4 H 0.1136 0.4030 0.8240
N2 N -0.0497(4) 0.4016(2) 0.8190(5)
C2 C -0.1417(5) 0.4104(3) 0.7390(6)
H5 H -0.2099 0.4044 0.7680
H6 H -0.1375 0.3838 0.6838
N3 N -0.1395(4) 0.4678(2) 0.6968(4)
N4 N -0.0527(4) 0.4997(2) 0.8637(5)
C3 C -0.1445(5) 0.5074(3) 0.7850(6)
H7 H -0.1443 0.5452 0.7595
H8 H -0.2121 0.5016 0.8151
C4 C 0.0504(5) 0.5077(3) 0.8183(5)
H9 H 0.1111 0.5022 0.8710
H10 H 0.0538 0.5455 0.7934
C5 C -0.0347(5) 0.4763(2) 0.6530(6)
H11 H -0.0302 0.4504 0.5968
H12 H -0.0328 0.5136 0.6253
C6 C -0.0549(6) 0.4425(3) 0.9020(6)
H13 H -0.1214 0.4367 0.9341
H14 H 0.0064 0.4368 0.9540
O3 O 0.1443(3) 0.55623(16) 0.6124(4)
O4 O 0.2354(3) 0.58796(17) 0.4847(4)
C7 C 0.1806(5) 0.5946(2) 0.5590(5)
C8 C 0.1541(5) 0.6535(2) 0.5852(5)
C9 C 0.1030(5) 0.6654(3) 0.6719(6)
H15 H 0.0839 0.6370 0.7145
C10 C 0.0806(6) 0.7197(3) 0.6944(6)
C11 C 0.1092(5) 0.7638(3) 0.6328(6)
H16 H 0.0933 0.8002 0.6492
C12 C 0.1622(6) 0.7518(3) 0.5462(6)
H17 H 0.1826 0.7803 0.5044
C13 C 0.1842(5) 0.6970(3) 0.5229(6)
H18 H 0.2194 0.6891 0.4652
N5 N 0.0262(5) 0.7327(3) 0.7845(6)
O5 O -0.0077(5) 0.6938(3) 0.8326(5)
O6 O 0.0121(5) 0.7816(2) 0.8072(5)
O7 O 0.2891(3) 0.4607(2) 0.7981(4)
O8 O 0.4492(4) 0.42344(19) 0.7640(4)
C14 C 0.3827(5) 0.4405(2) 0.8236(6)
C15 C 0.4170(5) 0.4327(3) 0.9365(6)
C16 C 0.5284(5) 0.4281(2) 0.9702(5)
H19 H 0.5804 0.4298 0.9238
C17 C 0.5589(5) 0.4210(3) 1.0742(6)
C18 C 0.4854(6) 0.4176(3) 1.1459(6)
H20 H 0.5085 0.4121 1.2153
C19 C 0.3758(6) 0.4227(3) 1.1113(6)
H21 H 0.3245 0.4207 1.1584
C20 C 0.3409(5) 0.4308(3) 1.0078(6)
H22 H 0.2670 0.4350 0.9862
N6 N 0.6772(5) 0.4144(3) 1.1095(6)
O9 O 0.7412(5) 0.4137(3) 1.0447(5)
O10 O 0.7064(4) 0.4103(2) 1.2009(5)
O11 O 0.4685(4) 0.37683(19) 0.5462(4)
O12 O 0.5201(3) 0.41112(17) 0.3983(4)
C21 C 0.5010(5) 0.3714(3) 0.4562(6)
C22 C 0.5184(5) 0.3133(2) 0.4235(6)
C23 C 0.4799(5) 0.2686(3) 0.4774(6)
H23 H 0.4446 0.2751 0.5357
C24 C 0.4939(6) 0.2151(3) 0.4444(7)
H24 H 0.4682 0.1857 0.4810
C25 C 0.5460(6) 0.2044(3) 0.3572(7)
H25 H 0.5544 0.1684 0.3338
C26 C 0.5846(5) 0.2493(3) 0.3070(6)
C27 C 0.5720(5) 0.3037(2) 0.3369(5)
H26 H 0.5984 0.3329 0.3003
N7 N 0.6449(5) 0.2381(3) 0.2163(6)
O13 O 0.6708(5) 0.1900(2) 0.1998(5)
O14 O 0.6718(5) 0.2776(2) 0.1653(5)
O15 O 0.2208(4) 0.43523(17) 0.4191(4)
O16 O 0.1732(4) 0.41035(18) 0.5723(4)
C28 C 0.1961(5) 0.3996(2) 0.4834(6)
C29 C 0.1933(5) 0.3402(3) 0.4504(6)
C30 C 0.2365(5) 0.3263(3) 0.3593(5)
H27 H 0.2633 0.3538 0.3188
C31 C 0.2388(6) 0.2710(3) 0.3298(6)
C32 C 0.1981(6) 0.2298(3) 0.3886(7)
H28 H 0.2010 0.1929 0.3682
C33 C 0.1532(6) 0.2433(3) 0.4773(7)
H29 H 0.1243 0.2157 0.5162
C34 C 0.1514(6) 0.2986(3) 0.5083(6)
H30 H 0.1217 0.3078 0.5686
N8 N 0.2911(6) 0.2554(3) 0.2373(6)
O17 O 0.2998(6) 0.2060(3) 0.2181(6)
O18 O 0.3234(6) 0.2934(3) 0.1854(5)
Zn2B Zn -0.27220(5) 0.48612(3) 0.57053(7)
Zn3B Zn 0.53272(6) 0.55529(3) 0.37971(7)
O2B O 0.5977(3) 0.48951(17) 0.6415(4)
H2B H 0.589(5) 0.5249(9) 0.643(6)
N3B N 0.1395(4) 0.5322(2) 0.3032(4)
loop_
_geom_bond_atom_site_label_1
_geom_bond_atom_site_label_2
_geom_bond_site_symmetry_1
_geom_bond_site_symmetry_2
Zn1 O1 1_555 1_555
Zn2 O1 1_555 1_555
Zn3 O1 1_555 1_555
O1 H1 1_555 1_555
O2 Zn2 1_555 1_555
H2 O2 1_555 1_555
N1 Zn1 1_555 1_555
C1 N1 1_555 1_555
H3 C1 1_555 1_555
H4 C1 1_555 1_555
N2 C1 1_555 1_555
C2 N2 1_555 1_555
H5 C2 1_555 1_555
H6 C2 1_555 1_555
N3 C2 1_555 1_555
N4 C3 1_555 1_555
C3 N3 1_555 1_555
H7 C3 1_555 1_555
H8 C3 1_555 1_555
C4 N1 1_555 1_555
H9 C4 1_555 1_555
H10 C4 1_555 1_555
C5 N1 1_555 1_555
H11 C5 1_555 1_555
H12 C5 1_555 1_555
C6 N2 1_555 1_555
H13 C6 1_555 1_555
H14 C6 1_555 1_555
O3 Zn1 1_555 1_555
O4 Zn2 1_555 1_555
C7 O3 1_555 1_555
C8 C7 1_555 1_555
C9 C8 1_555 1_555
H15 C9 1_555 1_555
C10 C9 1_555 1_555
C11 C10 1_555 1_555
H16 C11 1_555 1_555
C12 C11 1_555 1_555
H17 C12 1_555 1_555
C13 C8 1_555 1_555
H18 C13 1_555 1_555
N5 C10 1_555 1_555
O5 N5 1_555 1_555
O6 N5 1_555 1_555
O7 Zn1 1_555 1_555
O8 Zn3 1_555 1_555
C14 O7 1_555 1_555
C15 C14 1_555 1_555
C16 C15 1_555 1_555
H19 C16 1_555 1_555
C17 C16 1_555 1_555
C18 C17 1_555 1_555
H20 C18 1_555 1_555
C19 C18 1_555 1_555
H21 C19 1_555 1_555
C20 C15 1_555 1_555
H22 C20 1_555 1_555
N6 C17 1_555 1_555
O9 N6 1_555 1_555
O10 N6 1_555 1_555
O11 Zn3 1_555 1_555
O12 C21 1_555 1_555
C21 O11 1_555 1_555
C22 C21 1_555 1_555
C23 C22 1_555 1_555
H23 C23 1_555 1_555
C24 C23 1_555 1_555
H24 C24 1_555 1_555
C25 C24 1_555 1_555
H25 C25 1_555 1_555
C26 C25 1_555 1_555
C27 C22 1_555 1_555
H26 C27 1_555 1_555
N7 C26 1_555 1_555
O13 N7 1_555 1_555
O14 N7 1_555 1_555
O15 Zn2 1_555 1_555
O16 Zn1 1_555 1_555
C28 O15 1_555 1_555
C29 C28 1_555 1_555
C30 C29 1_555 1_555
H27 C30 1_555 1_555
C31 C30 1_555 1_555
C32 C31 1_555 1_555
H28 C32 1_555 1_555
C33 C32 1_555 1_555
H29 C33 1_555 1_555
C34 C29 1_555 1_555
H30 C34 1_555 1_555
N8 C31 1_555 1_555
O17 N8 1_555 1_555
O18 N8 1_555 1_555
Zn2B N3 1_555 1_555
Zn3B O2 1_555 1_555
O2B Zn3 1_555 1_555
H2B O2B 1_555 1_555
N3B Zn2 1_555 1_555
N3 C5 1_555 1_555
N4 C4 1_555 1_555
N4 C6 1_555 1_555
O4 C7 1_555 1_555
C12 C13 1_555 1_555
O8 C14 1_555 1_555
C19 C20 1_555 1_555
C26 C27 1_555 1_555
O16 C28 1_555 1_555
C33 C34 1_555 1_555

#END
