
#######################################################################
#
#                 Cambridge Crystallographic Data Centre
#                                CCDC 
#
#######################################################################
#
# If this CIF has been generated from an entry in the Cambridge 
# Structural Database, then it will include bibliographic, chemical, 
# crystal, experimental, refinement or atomic coordinate data resulting 
# from the CCDC's data processing and validation procedures.
#
#######################################################################

data_DEBGIC
_symmetry_cell_setting           monoclinic
_symmetry_space_group_name_H-M   'P 21/n'
_symmetry_Int_Tables_number      14
_space_group_name_Hall           '-P 2yn'
loop_
_symmetry_equiv_pos_site_id
_symmetry_equiv_pos_as_xyz
1 x,y,z
2 1/2-x,1/2+y,1/2-z
3 -x,-y,-z
4 1/2+x,1/2-y,1/2+z
_cell_length_a                   9.1163(8)
_cell_length_b                   11.5832(11)
_cell_length_c                   11.3434(11)
_cell_angle_alpha                90
_cell_angle_beta                 111.6270(10)
_cell_angle_gamma                90
_cell_volume                     1113.49
loop_
_atom_site_label
_atom_site_type_symbol
_atom_site_fract_x
_atom_site_fract_y
_atom_site_fract_z
Ag1 Ag 1.02280(7) 0.11759(5) 0.63927(6)
C1 C 1.2556(8) 0.4402(7) 0.6837(7)
H1 H 1.3502 0.4171 0.6776
C2 C 1.1228(9) 0.3769(6) 0.6207(7)
H2 H 1.1276 0.3125 0.5733
C3 C 0.9806(9) 0.4107(6) 0.6291(6)
C4 C 0.9805(9) 0.5107(6) 0.6987(7)
H3 H 0.8873 0.5379 0.7042
C5 C 1.1191(10) 0.5671(7) 0.7581(8)
H4 H 1.1182 0.6330 0.8046
C6 C 0.8366(8) 0.3434(6) 0.5701(6)
C7 C 0.5779(9) 0.3152(8) 0.4833(8)
H5 H 0.5111 0.3274 0.3952
H6 H 0.5129 0.3172 0.5344
C8 C 0.6623(10) 0.2035(8) 0.4991(9)
H7 H 0.6300 0.1515 0.5520
H8 H 0.6416 0.1671 0.4175
N1 N 1.2568(8) 0.5327(5) 0.7531(6)
N2 N 0.8295(7) 0.2332(5) 0.5600(6)
O1 O 0.7012(6) 0.4030(5) 0.5257(5)
Ag1A Ag 1.47720(7) 0.61759(5) 0.86073(6)
N1A N 1.2432(8) 0.0327(5) 0.7469(6)
B1 B 0.811(3) 0.860(2) 0.6352(15)
F1 F 0.659(3) 0.8906(17) 0.580(2)
F2 F 0.9146(16) 0.8757(10) 0.5791(12)
F3 F 0.8472(11) 0.9576(9) 0.7158(9)
F4 F 0.8513(16) 0.7779(11) 0.7174(12)
F5? F 0.719(2) 0.7979(19) 0.5222(16)
loop_
_geom_bond_atom_site_label_1
_geom_bond_atom_site_label_2
_geom_bond_site_symmetry_1
_geom_bond_site_symmetry_2
Ag1 N2 1_555 1_555
C1 H1 1_555 1_555
C2 C1 1_555 1_555
H2 C2 1_555 1_555
C3 C2 1_555 1_555
C4 C3 1_555 1_555
H3 C4 1_555 1_555
C5 C4 1_555 1_555
H4 C5 1_555 1_555
C6 C3 1_555 1_555
C7 H5 1_555 1_555
H6 C7 1_555 1_555
C8 C7 1_555 1_555
H7 C8 1_555 1_555
H8 C8 1_555 1_555
N1 C1 1_555 1_555
N2 C6 1_555 1_555
O1 C6 1_555 1_555
B1 F1 1_555 1_555
F2 B1 1_555 1_555
F3 B1 1_555 1_555
F4 B1 1_555 1_555
Ag1A N1 1_555 1_555
N1A Ag1 1_555 1_555
C5 N1 1_555 1_555
C7 O1 1_555 1_555
C8 N2 1_555 1_555

#END
