
#######################################################################
#
#                 Cambridge Crystallographic Data Centre
#                                CCDC 
#
#######################################################################
#
# If this CIF has been generated from an entry in the Cambridge 
# Structural Database, then it will include bibliographic, chemical, 
# crystal, experimental, refinement or atomic coordinate data resulting 
# from the CCDC's data processing and validation procedures.
#
#######################################################################

data_DEBKOM
_symmetry_cell_setting           monoclinic
_symmetry_space_group_name_H-M   'P 21/n'
_symmetry_Int_Tables_number      14
_space_group_name_Hall           '-P 2yn'
loop_
_symmetry_equiv_pos_site_id
_symmetry_equiv_pos_as_xyz
1 x,y,z
2 1/2-x,1/2+y,1/2-z
3 -x,-y,-z
4 1/2+x,1/2-y,1/2+z
_cell_length_a                   7.6635(2)
_cell_length_b                   16.6979(4)
_cell_length_c                   18.7534(5)
_cell_angle_alpha                90
_cell_angle_beta                 90.6120(10)
_cell_angle_gamma                90
_cell_volume                     2399.63
loop_
_atom_site_label
_atom_site_type_symbol
_atom_site_fract_x
_atom_site_fract_y
_atom_site_fract_z
Cu1 Cu -0.05005(2) 0.145990(10) -0.210340(8)
N1 N -0.06975(15) 0.03170(7) -0.17781(6)
N2 N -0.01800(15) -0.02871(7) -0.22185(6)
N3 N -0.14575(15) 0.11118(8) -0.30744(6)
H1 H -0.2631 0.1009 -0.2993
N4 N 0.02625(15) 0.28097(8) -0.30877(6)
N5 N -0.02398(15) 0.26168(7) -0.24098(6)
O1 O 0.64537(13) 0.16269(7) -0.18490(5)
O2 O 0.62943(14) 0.22702(9) -0.03709(6)
O3 O 0.27991(13) 0.13643(6) -0.23243(5)
O4 O 0.05307(11) 0.17314(6) -0.11590(5)
O5 O 0.26581(12) 0.22522(6) 0.00629(5)
C1 C -0.1976(2) 0.04176(10) -0.05640(8)
H4 H -0.1617 0.0980 -0.0598
H5 H -0.1529 0.0189 -0.0117
H6 H -0.3252 0.0384 -0.0574
C2 C -0.12544(18) -0.00412(9) -0.11802(7)
C3 C -0.10754(19) -0.08674(9) -0.12436(8)
H7 H -0.1369 -0.1257 -0.0896
C4 C -0.03891(18) -0.10106(9) -0.19085(8)
C5 C 0.0059(2) -0.17767(9) -0.22670(9)
H8 H -0.0856 -0.1912 -0.2616
H9 H 0.0152 -0.2204 -0.1910
H10 H 0.1176 -0.1719 -0.2511
C6 C 0.05200(19) -0.00892(9) -0.29105(7)
H11 H 0.0887 -0.0588 -0.3152
H12 H 0.1567 0.0251 -0.2845
C7 C -0.0781(2) 0.03437(10) -0.33786(8)
H13 H -0.0228 0.0460 -0.3842
H14 H -0.1782 -0.0017 -0.3473
C8 C -0.14778(19) 0.17440(9) -0.36277(7)
H15 H -0.2439 0.2124 -0.3532
H16 H -0.1699 0.1498 -0.4100
C9 C 0.02379(19) 0.21953(9) -0.36414(7)
H17 H 0.1216 0.1818 -0.3562
H18 H 0.0388 0.2448 -0.4114
C10 C 0.0993(2) 0.39886(11) -0.38476(8)
H19 H 0.2101 0.3759 -0.4006
H20 H 0.1131 0.4567 -0.3776
H21 H 0.0089 0.3891 -0.4211
C11 C 0.04729(19) 0.36067(9) -0.31630(8)
C12 C 0.01275(19) 0.39461(9) -0.25091(8)
H22 H 0.0182 0.4499 -0.2390
C13 C -0.03186(18) 0.33161(9) -0.20560(7)
C14 C -0.0837(2) 0.33777(10) -0.12938(8)
H23 H -0.1632 0.2938 -0.1178
H24 H -0.1426 0.3891 -0.1215
H25 H 0.0205 0.3345 -0.0988
C15 C 0.51340(17) 0.17310(8) -0.14861(7)
C16 C 0.50538(17) 0.20382(9) -0.07443(7)
C17 C 0.33235(17) 0.15929(7) -0.17240(7)
C18 C 0.21702(16) 0.17770(7) -0.11368(6)
C19 C 0.32047(16) 0.20416(8) -0.05261(7)
Cu1_2 Cu 0.94995(2) 0.145990(10) -0.210340(8)
O1_2 O -0.35463(13) 0.16269(7) -0.18490(5)
O6 O -0.07032(15) 0.26309(8) -0.95023(6)
H2 H -0.150(3) 0.2513(14) -0.9792(11)
H3 H 0.023(2) 0.2508(14) -0.9680(12)
loop_
_geom_bond_atom_site_label_1
_geom_bond_atom_site_label_2
_geom_bond_site_symmetry_1
_geom_bond_site_symmetry_2
Cu1 N1 1_555 1_555
N1 N2 1_555 1_555
N2 C4 1_555 1_555
N3 Cu1 1_555 1_555
H1 N3 1_555 1_555
N4 N5 1_555 1_555
N5 Cu1 1_555 1_555
O1 C15 1_555 1_555
O2 C16 1_555 1_555
O3 Cu1 1_555 1_555
O4 Cu1 1_555 1_555
O5 C19 1_555 1_555
O6 H2 1_555 1_555
H3 O6 1_555 1_555
C1 H4 1_555 1_555
H5 C1 1_555 1_555
H6 C1 1_555 1_555
C2 N1 1_555 1_555
C3 C2 1_555 1_555
H7 C3 1_555 1_555
C4 C3 1_555 1_555
C5 C4 1_555 1_555
H8 C5 1_555 1_555
H9 C5 1_555 1_555
H10 C5 1_555 1_555
C6 N2 1_555 1_555
H11 C6 1_555 1_555
H12 C6 1_555 1_555
C7 N3 1_555 1_555
H13 C7 1_555 1_555
H14 C7 1_555 1_555
C8 N3 1_555 1_555
H15 C8 1_555 1_555
H16 C8 1_555 1_555
C9 N4 1_555 1_555
H17 C9 1_555 1_555
H18 C9 1_555 1_555
C10 H19 1_555 1_555
H20 C10 1_555 1_555
H21 C10 1_555 1_555
C11 N4 1_555 1_555
C12 C11 1_555 1_555
H22 C12 1_555 1_555
C13 N5 1_555 1_555
C14 C13 1_555 1_555
H23 C14 1_555 1_555
H24 C14 1_555 1_555
H25 C14 1_555 1_555
C15 C16 1_555 1_555
C16 C19 1_555 1_555
C17 O3 1_555 1_555
C18 O4 1_555 1_555
C19 C18 1_555 1_555
Cu1_2 O1 1_555 1_555
O1_2 Cu1 1_555 1_555
C1 C2 1_555 1_555
C6 C7 1_555 1_555
C8 C9 1_555 1_555
C10 C11 1_555 1_555
C12 C13 1_555 1_555
C15 C17 1_555 1_555
C17 C18 1_555 1_555

#END
