
#######################################################################
#
#                 Cambridge Crystallographic Data Centre
#                                CCDC 
#
#######################################################################
#
# If this CIF has been generated from an entry in the Cambridge 
# Structural Database, then it will include bibliographic, chemical, 
# crystal, experimental, refinement or atomic coordinate data resulting 
# from the CCDC's data processing and validation procedures.
#
#######################################################################

data_DEBKUS
_symmetry_cell_setting           monoclinic
_symmetry_space_group_name_H-M   'P 21'
_symmetry_Int_Tables_number      4
_space_group_name_Hall           'P 2yb'
loop_
_symmetry_equiv_pos_site_id
_symmetry_equiv_pos_as_xyz
1 x,y,z
2 -x,1/2+y,-z
_cell_length_a                   9.6824(4)
_cell_length_b                   14.4339(7)
_cell_length_c                   14.3591(6)
_cell_angle_alpha                90
_cell_angle_beta                 93.306(2)
_cell_angle_gamma                90
_cell_volume                     2003.41
loop_
_atom_site_label
_atom_site_type_symbol
_atom_site_fract_x
_atom_site_fract_y
_atom_site_fract_z
Cu1 Cu 0.41043(7) -0.02554(5) 0.70141(5)
Cu2 Cu 0.06620(7) 0.27592(4) 0.81631(5)
Cu3 Cu 0.06136(8) -0.36241(4) 0.85157(5)
O1 O 0.2512(4) 0.0492(3) 0.7490(3)
O2 O -0.0006(4) 0.1209(2) 0.8377(3)
O3 O -0.1260(4) -0.0369(3) 0.9277(3)
O4 O 0.0187(5) -0.2041(2) 0.8799(3)
O5 O 0.2552(4) -0.1478(3) 0.7673(3)
O6 O -0.1117(4) 0.2912(3) 0.8802(3)
O7 O 0.0364(4) 0.4625(3) 0.8417(3)
O8 O -0.1033(4) 0.6149(2) 0.9284(3)
O9 O -0.3467(5) 0.5391(3) 1.0190(3)
O10 O -0.3511(5) 0.3375(3) 0.9839(4)
O17 O 0.5078(7) 0.1184(5) 0.6595(6)
H3 H 0.565(12) 0.104(10) 0.620(7)
H4 H 0.577(9) 0.141(8) 0.691(8)
N1 N 0.3074(6) -0.0426(5) 0.5784(4)
H5 H 0.2149 -0.0311 0.5846
H6 H 0.3392 -0.0008 0.5363
N2 N 0.5628(7) -0.1111(5) 0.6569(5)
H7 H 0.6469 -0.0804 0.6542
N3 N 0.5135(5) -0.0222(4) 0.8244(4)
H8 H 0.5801 0.0232 0.8238
H9 H 0.4536 -0.0069 0.8694
N4 N 0.1751(5) 0.2794(4) 0.9392(3)
H10 H 0.1665 0.3370 0.9658
H11 H 0.1404 0.2362 0.9787
N5 N 0.2479(6) 0.2605(4) 0.7581(4)
H12 H 0.2603 0.1971 0.7501
N6 N -0.0433(6) 0.2735(5) 0.6936(3)
H13 H -0.0741 0.2138 0.6840
H14 H -0.1202 0.3099 0.6995
N7 N 0.1890(5) -0.3647(4) 0.9649(3)
H15 H 0.1944 -0.3055 0.9887
H16 H 0.1500 -0.4014 1.0087
N8 N 0.2156(7) -0.3485(4) 0.7675(4)
H17 H 0.2391 -0.2860 0.7708
N9 N -0.0668(7) -0.3500(5) 0.7387(4)
H18 H -0.1170 -0.4038 0.7308
H19 H -0.1280 -0.3026 0.7480
C1 C 0.1634(6) 0.0038(4) 0.7918(4)
C2 C 0.1657(6) -0.0968(4) 0.8016(4)
C3 C 0.0510(7) -0.1250(4) 0.8562(4)
C4 C -0.0253(5) -0.0412(4) 0.8792(4)
C5 C 0.0428(6) 0.0393(4) 0.8351(4)
C6 C -0.1453(6) 0.3719(4) 0.9052(4)
C7 C -0.0703(6) 0.4559(4) 0.8863(4)
C8 C -0.1425(6) 0.5319(4) 0.9296(4)
C9 C -0.2648(6) 0.4953(4) 0.9746(4)
C10 C -0.2655(7) 0.3938(4) 0.9574(4)
C11 C 0.5793(8) -0.1103(5) 0.8486(6)
H20 H 0.6455 -0.0961 0.9018
H21 H 0.5057 -0.1484 0.8745
C12 C 0.6479(15) -0.1684(10) 0.7938(10)
H22 H 0.6701 -0.2252 0.8303
H23 H 0.7368 -0.1388 0.7806
C13 C 0.5779(16) -0.1973(9) 0.7026(10)
H24 H 0.6364 -0.2402 0.6682
H25 H 0.4872 -0.2266 0.7113
C14 C 0.4965(16) -0.1436(13) 0.5479(11)
H26 H 0.5326 -0.1019 0.5002
H27 H 0.5267 -0.2075 0.5343
C15 C 0.3252(10) -0.1390(5) 0.5424(5)
H28 H 0.2854 -0.1463 0.4778
H29 H 0.2848 -0.1859 0.5832
C16 C 0.3209(7) 0.2601(5) 0.9270(5)
H30 H 0.3383 0.1927 0.9333
H31 H 0.3789 0.2925 0.9758
C17 C 0.3583(8) 0.2915(5) 0.8341(5)
H32 H 0.4494 0.2655 0.8201
H33 H 0.3659 0.3599 0.8338
C18 C 0.2682(9) 0.3031(5) 0.6684(5)
H34 H 0.3620 0.2885 0.6485
H35 H 0.2600 0.3713 0.6736
C19 C 0.1634(8) 0.2679(6) 0.5989(5)
H36 H 0.1622 0.1994 0.6026
H37 H 0.1917 0.2848 0.5360
C20 C 0.0206(9) 0.3027(6) 0.6094(5)
H38 H 0.0225 0.3712 0.6080
H39 H -0.0386 0.2817 0.5548
C21 C 0.3309(8) -0.3978(8) 0.9538(6)
H40 H 0.3895 -0.3752 1.0079
H41 H 0.3296 -0.4663 0.9577
C22 C 0.3963(11) -0.3733(7) 0.8723(6)
H42 H 0.4086 -0.3052 0.8740
H43 H 0.4901 -0.4008 0.8777
C23 C 0.3399(10) -0.3953(6) 0.7833(8)
H44 H 0.4050 -0.3772 0.7358
H45 H 0.3241 -0.4630 0.7784
C24 C 0.1515(12) -0.3638(7) 0.6616(7)
H46 H 0.2046 -0.3274 0.6174
H47 H 0.1568 -0.4300 0.6443
C25 C 0.0020(11) -0.3321(9) 0.6571(7)
H48 H -0.0010 -0.2647 0.6446
H49 H -0.0484 -0.3635 0.6040
Cu3_2 Cu 0.06136(8) 0.63759(4) 0.85157(5)
O8_2 O -0.1033(4) -0.3851(2) 0.9284(3)
Cl1 Cl 0.10096(18) 0.48908(14) 0.41559(13)
O13 O 0.2105(5) 0.4738(4) 0.4832(4)
O14 O 0.0376(9) 0.4068(5) 0.3847(5)
O15 O -0.0094(12) 0.5287(10) 0.4717(9)
O16 O 0.1361(12) 0.5534(7) 0.3473(7)
Cl2 Cl 0.65032(19) 0.48722(19) 0.68787(13)
O18 O 0.7758(14) 0.4440(9) 0.6819(9)
O19 O 0.6573(6) 0.5521(6) 0.7614(5)
O20 O 0.5249(12) 0.4488(11) 0.6832(11)
O21 O 0.6332(15) 0.5524(9) 0.6005(8)
O11 O 0.7035(5) 0.1514(3) 0.8056(4)
H1 H 0.705(9) 0.206(3) 0.828(5)
H2 H 0.766(6) 0.112(5) 0.799(6)
O12 O 0.5876(9) 0.1125(6) 0.4875(6)
C26? C 0.6673(16) -0.1171(10) 0.7542(11)
C27? C 0.5269(17) -0.1932(10) 0.6284(11)
C28? C 0.4445(17) -0.1786(13) 0.5331(13)
H50? H 0.5117 -0.1613 0.8531
H51? H 0.6398 -0.1067 0.9064
H52? H 0.7189 -0.1764 0.7547
H53? H 0.7353 -0.0660 0.7542
H54? H 0.4682 -0.2236 0.6737
H55? H 0.6095 -0.2322 0.6205
H56? H 0.5000 -0.1399 0.4923
H57? H 0.4295 -0.2394 0.5022
H58? H 0.2735 -0.1801 0.5833
H59? H 0.2757 -0.1410 0.4802
H60? H 0.6090 -0.0813 0.6105
O22? O 0.022(2) 0.5666(16) 0.4130(15)
O23? O 0.1750(17) 0.4963(11) 0.3293(9)
O24? O 0.778(2) 0.4775(13) 0.6431(12)
O25? O 0.5438(17) 0.4789(15) 0.6235(15)
O26? O 0.658(2) 0.3734(12) 0.7283(10)
loop_
_geom_bond_atom_site_label_1
_geom_bond_atom_site_label_2
_geom_bond_site_symmetry_1
_geom_bond_site_symmetry_2
Cu1 O1 1_555 1_555
Cu2 O2 1_555 1_555
Cu3 O4 1_555 1_555
Cl1 O13 1_555 1_555
Cl2 O18 1_555 1_555
O1 C1 1_555 1_555
O2 C5 1_555 1_555
O3 C4 1_555 1_555
O4 C3 1_555 1_555
O5 C2 1_555 1_555
O6 Cu2 1_555 1_555
O7 C7 1_555 1_555
O8 C8 1_555 1_555
O9 C9 1_555 1_555
O10 C10 1_555 1_555
O11 H1 1_555 1_555
H2 O11 1_555 1_555
O14 Cl1 1_555 1_555
O15 Cl1 1_555 1_555
O16 Cl1 1_555 1_555
O17 Cu1 1_555 1_555
H3 O17 1_555 1_555
H4 O17 1_555 1_555
O19 Cl2 1_555 1_555
O20 Cl2 1_555 1_555
O21 Cl2 1_555 1_555
N1 Cu1 1_555 1_555
H5 N1 1_555 1_555
H6 N1 1_555 1_555
N2 Cu1 1_555 1_555
H7 N2 1_555 1_555
N3 Cu1 1_555 1_555
H8 N3 1_555 1_555
H9 N3 1_555 1_555
N4 Cu2 1_555 1_555
H10 N4 1_555 1_555
H11 N4 1_555 1_555
N5 Cu2 1_555 1_555
H12 N5 1_555 1_555
N6 Cu2 1_555 1_555
H13 N6 1_555 1_555
H14 N6 1_555 1_555
N7 Cu3 1_555 1_555
H15 N7 1_555 1_555
H16 N7 1_555 1_555
N8 Cu3 1_555 1_555
H17 N8 1_555 1_555
N9 Cu3 1_555 1_555
H18 N9 1_555 1_555
H19 N9 1_555 1_555
C1 C2 1_555 1_555
C2 C3 1_555 1_555
C3 C4 1_555 1_555
C4 C5 1_555 1_555
C5 C1 1_555 1_555
C6 O6 1_555 1_555
C7 C6 1_555 1_555
C8 C7 1_555 1_555
C9 C8 1_555 1_555
C10 C6 1_555 1_555
C11 N3 1_555 1_555
H20 C11 1_555 1_555
H21 C11 1_555 1_555
C12 C11 1_555 1_555
H22 C12 1_555 1_555
H23 C12 1_555 1_555
C13 N2 1_555 1_555
H24 C13 1_555 1_555
H25 C13 1_555 1_555
C14 N2 1_555 1_555
H26 C14 1_555 1_555
H27 C14 1_555 1_555
C15 N1 1_555 1_555
H28 C15 1_555 1_555
H29 C15 1_555 1_555
C16 N4 1_555 1_555
H30 C16 1_555 1_555
H31 C16 1_555 1_555
C17 N5 1_555 1_555
H32 C17 1_555 1_555
H33 C17 1_555 1_555
C18 N5 1_555 1_555
H34 C18 1_555 1_555
H35 C18 1_555 1_555
C19 C18 1_555 1_555
H36 C19 1_555 1_555
H37 C19 1_555 1_555
C20 N6 1_555 1_555
H38 C20 1_555 1_555
H39 C20 1_555 1_555
C21 N7 1_555 1_555
H40 C21 1_555 1_555
H41 C21 1_555 1_555
C22 C21 1_555 1_555
H42 C22 1_555 1_555
H43 C22 1_555 1_555
C23 N8 1_555 1_555
H44 C23 1_555 1_555
H45 C23 1_555 1_555
C24 N8 1_555 1_555
H46 C24 1_555 1_555
H47 C24 1_555 1_555
C25 N9 1_555 1_555
H48 C25 1_555 1_555
H49 C25 1_555 1_555
Cu3_2 O8 1_555 1_555
O8_2 Cu3 1_555 1_555
C9 C10 1_555 1_555
C12 C13 1_555 1_555
C14 C15 1_555 1_555
C16 C17 1_555 1_555
C19 C20 1_555 1_555
C22 C23 1_555 1_555
C24 C25 1_555 1_555

#END
