
#######################################################################
#
#                 Cambridge Crystallographic Data Centre
#                                CCDC 
#
#######################################################################
#
# If this CIF has been generated from an entry in the Cambridge 
# Structural Database, then it will include bibliographic, chemical, 
# crystal, experimental, refinement or atomic coordinate data resulting 
# from the CCDC's data processing and validation procedures.
#
#######################################################################

data_DEBTUA
_symmetry_cell_setting           monoclinic
_symmetry_space_group_name_H-M   'P 21'
_symmetry_Int_Tables_number      4
_space_group_name_Hall           'P 2yb'
loop_
_symmetry_equiv_pos_site_id
_symmetry_equiv_pos_as_xyz
1 x,y,z
2 -x,1/2+y,-z
_cell_length_a                   9.3329(17)
_cell_length_b                   11.3678(17)
_cell_length_c                   10.243(2)
_cell_angle_alpha                90
_cell_angle_beta                 94.490(16)
_cell_angle_gamma                90
_cell_volume                     1083.39
loop_
_atom_site_label
_atom_site_type_symbol
_atom_site_fract_x
_atom_site_fract_y
_atom_site_fract_z
Ag1 Ag 0.73774(4) 0.28101(4) 0.84418(4)
N1 N 0.8130(5) 0.3779(5) 0.6656(5)
C1 C 0.9539(6) 0.3861(5) 0.6429(5)
H1 H 1.0196 0.3405 0.6937
C2 C 1.0052(6) 0.4579(5) 0.5490(5)
C3 C 1.1651(6) 0.4668(6) 0.5353(5)
H2 H 1.2147 0.4062 0.5897
C4 C 1.2291(8) 0.5869(7) 0.5731(8)
H3 H 1.2629 0.5885 0.6651
H4 H 1.1583 0.6486 0.5565
C5 C 1.3543(7) 0.6029(7) 0.4871(8)
H5 H 1.3423 0.6742 0.4353
H6 H 1.4449 0.6072 0.5402
C6 C 1.3497(6) 0.4965(6) 0.4008(6)
H7 H 1.3727 0.5173 0.3129
H8 H 1.4175 0.4376 0.4355
N2 N 1.2014(5) 0.4524(5) 0.3999(4)
C7 C 1.1880(6) 0.3325(5) 0.3540(6)
H9 H 1.0900 0.3073 0.3560
H10 H 1.2490 0.2826 0.4096
H11 H 1.2159 0.3280 0.2659
C8 C 0.9072(7) 0.5243(6) 0.4719(6)
H12 H 0.9380 0.5753 0.4089
C9 C 0.7622(8) 0.5132(6) 0.4904(7)
H13 H 0.6938 0.5542 0.4374
C10 C 0.7212(7) 0.4410(6) 0.5881(6)
H14 H 0.6238 0.4358 0.6010
N3 N 0.8467(5) 0.1077(4) 0.9167(4)
C11 C 0.9794(6) 0.0758(5) 0.8873(5)
H15 H 1.0302 0.1281 0.8386
C12 C 1.0458(6) -0.0295(5) 0.9243(5)
C13 C 1.1935(6) -0.0569(5) 0.8836(6)
H16 H 1.2234 0.0079 0.8288
C14 C 1.2079(6) -0.1716(5) 0.8082(5)
H17 H 1.1769 -0.1616 0.7163
H18 H 1.1521 -0.2339 0.8443
C15 C 1.3719(5) -0.1984(8) 0.8273(5)
H19 H 1.3887 -0.2778 0.8598
H20 H 1.4166 -0.1895 0.7456
C16 C 1.4302(6) -0.1081(5) 0.9275(6)
H21 H 1.5028 -0.1429 0.9886
H22 H 1.4721 -0.0418 0.8847
N4 N 1.3032(4) -0.0704(4) 0.9962(4)
C17 C 1.3304(6) 0.0399(5) 1.0671(6)
H23 H 1.4004 0.0270 1.1394
H24 H 1.2426 0.0677 1.0992
H25 H 1.3660 0.0975 1.0092
C18 C 0.9681(6) -0.1051(5) 0.9980(6)
H26 H 1.0069 -0.1776 1.0239
C19 C 0.8336(6) -0.0735(5) 1.0331(6)
H27 H 0.7824 -0.1223 1.0856
C20 C 0.7781(6) 0.0314(5) 0.9887(6)
H28 H 0.6861 0.0511 1.0101
N5 N 0.4076(6) 0.2525(4) 0.7687(6)
O1 O 0.2786(4) 0.2203(3) 0.7487(4)
O2 O 0.5028(5) 0.1805(4) 0.8113(5)
O3 O 0.4418(6) 0.3579(5) 0.7517(6)
Ag1A Ag 1.26226(4) -0.21899(4) 1.15582(4)
N4A N 0.6968(4) 0.4296(4) 1.0038(4)
loop_
_geom_bond_atom_site_label_1
_geom_bond_atom_site_label_2
_geom_bond_site_symmetry_1
_geom_bond_site_symmetry_2
Ag1 N1 1_555 1_555
N1 C1 1_555 1_555
C1 H1 1_555 1_555
C2 C1 1_555 1_555
C3 C2 1_555 1_555
H2 C3 1_555 1_555
C4 C3 1_555 1_555
H3 C4 1_555 1_555
H4 C4 1_555 1_555
C5 C4 1_555 1_555
H5 C5 1_555 1_555
H6 C5 1_555 1_555
C6 C5 1_555 1_555
H7 C6 1_555 1_555
H8 C6 1_555 1_555
N2 C3 1_555 1_555
C7 N2 1_555 1_555
H9 C7 1_555 1_555
H10 C7 1_555 1_555
H11 C7 1_555 1_555
C8 C2 1_555 1_555
H12 C8 1_555 1_555
C9 C8 1_555 1_555
H13 C9 1_555 1_555
C10 N1 1_555 1_555
H14 C10 1_555 1_555
N3 Ag1 1_555 1_555
C11 N3 1_555 1_555
H15 C11 1_555 1_555
C12 C11 1_555 1_555
C13 C12 1_555 1_555
H16 C13 1_555 1_555
C14 C13 1_555 1_555
H17 C14 1_555 1_555
H18 C14 1_555 1_555
C15 C14 1_555 1_555
H19 C15 1_555 1_555
H20 C15 1_555 1_555
C16 C15 1_555 1_555
H21 C16 1_555 1_555
H22 C16 1_555 1_555
N4 C13 1_555 1_555
C17 N4 1_555 1_555
H23 C17 1_555 1_555
H24 C17 1_555 1_555
H25 C17 1_555 1_555
C18 C12 1_555 1_555
H26 C18 1_555 1_555
C19 C18 1_555 1_555
H27 C19 1_555 1_555
C20 N3 1_555 1_555
H28 C20 1_555 1_555
N5 O1 1_555 1_555
O2 Ag1 1_555 1_555
O3 N5 1_555 1_555
Ag1A N4 1_555 1_555
N4A Ag1 1_555 1_555
C6 N2 1_555 1_555
C9 C10 1_555 1_555
C16 N4 1_555 1_555
C19 C20 1_555 1_555
N5 O2 1_555 1_555

#END
