
#######################################################################
#
#                 Cambridge Crystallographic Data Centre
#                                CCDC 
#
#######################################################################
#
# If this CIF has been generated from an entry in the Cambridge 
# Structural Database, then it will include bibliographic, chemical, 
# crystal, experimental, refinement or atomic coordinate data resulting 
# from the CCDC's data processing and validation procedures.
#
#######################################################################

data_DEBTIP01
_symmetry_cell_setting           triclinic
_symmetry_space_group_name_H-M   'P -1'
_symmetry_Int_Tables_number      2
_space_group_name_Hall           '-P 1'
loop_
_symmetry_equiv_pos_site_id
_symmetry_equiv_pos_as_xyz
1 x,y,z
2 -x,-y,-z
_cell_length_a                   13.487(3)
_cell_length_b                   14.801(3)
_cell_length_c                   17.312(3)
_cell_angle_alpha                72.380(3)
_cell_angle_beta                 70.992(3)
_cell_angle_gamma                81.731(3)
_cell_volume                     3110.19
loop_
_atom_site_label
_atom_site_type_symbol
_atom_site_fract_x
_atom_site_fract_y
_atom_site_fract_z
Co1 Co 1.0000 1.0000 0.0000
Co2 Co 0.5000 1.0000 0.0000
Fe1 Fe 1.16087(5) 0.98110(4) 0.21640(4)
Fe2 Fe 0.69192(5) 0.82726(4) 0.20424(4)
N1 N 1.0814(3) 1.1735(3) 0.2362(2)
N2 N 1.1305(3) 1.1210(3) 0.1796(2)
N3 N 1.1572(3) 1.0667(3) 0.3473(2)
N4 N 1.2107(3) 1.0021(2) 0.3051(2)
N5 N 0.9799(3) 1.0401(3) 0.3446(2)
N6 N 1.0182(3) 0.9733(3) 0.3002(2)
N7 N 1.0078(3) 1.1797(3) 0.3911(2)
N8 N 0.9566(4) 1.1474(4) 0.4761(3)
N9 N 1.1873(4) 0.7640(3) 0.2717(3)
N10 N 1.3788(3) 1.0077(2) 0.0912(2)
N11 N 1.0799(3) 0.9612(3) 0.0780(2)
N12 N 0.9315(3) 1.1018(2) 0.0537(2)
N13 N 0.8913(3) 0.9208(3) 0.0772(2)
N14 N 0.5781(3) 0.9498(2) 0.0775(2)
N15 N 0.7438(4) 0.6769(3) 0.1055(3)
N16 N 0.4666(3) 0.8686(2) 0.0154(2)
N17 N 0.6188(3) 0.8983(3) 0.3551(2)
N18 N 0.6557(3) 0.9241(2) 0.2683(2)
N19 N 0.7203(3) 0.7429(2) 0.3684(2)
N20 N 0.7654(3) 0.7497(3) 0.2842(2)
N21 N 0.5338(3) 0.7570(2) 0.3671(2)
N22 N 0.5595(3) 0.7680(2) 0.2819(2)
N23 N 0.5770(3) 0.7682(3) 0.4958(2)
N24 N 0.5380(5) 0.6859(4) 0.5541(3)
C1 C 1.0632(4) 1.2638(3) 0.1932(3)
H1 H 1.0301 1.3126 0.2174
C2 C 1.1017(4) 1.2713(3) 0.1078(3)
H2 H 1.1009 1.3252 0.0631
C3 C 1.1420(4) 1.1814(3) 0.1027(3)
H3 H 1.1733 1.1649 0.0521
C4 C 1.2095(4) 1.0764(3) 0.3979(3)
H4 H 1.1898 1.1174 0.4324
C5 C 1.2968(4) 1.0158(4) 0.3906(3)
H5 H 1.3466 1.0065 0.4192
C6 C 1.2950(4) 0.9711(3) 0.3311(3)
H6 H 1.3452 0.9262 0.3123
C7 C 0.8791(4) 1.0229(4) 0.3913(3)
H7 H 0.8357 1.0591 0.4259
C8 C 0.8510(4) 0.9444(4) 0.3797(3)
H8 H 0.7867 0.9160 0.4047
C9 C 0.9406(4) 0.9156(3) 0.3216(3)
H9 H 0.9452 0.8636 0.3009
C10 C 1.0381(4) 1.2698(3) 0.3719(3)
H10 H 1.0758 1.3064 0.3191
C11 C 1.0026(5) 1.2945(4) 0.4442(4)
H11 H 1.0111 1.3535 0.4494
C12 C 0.9516(5) 1.2215(4) 0.5106(3)
H12 H 0.9203 1.2221 0.5670
C13 C 1.1814(4) 0.8463(3) 0.2515(3)
C14 C 1.2962(4) 0.9951(3) 0.1405(3)
C15 C 1.1126(4) 0.9669(3) 0.1308(3)
C16 C 0.9009(4) 1.0821(3) 0.1390(3)
H13 H 0.9110 1.0204 0.1708
C17 C 0.8553(4) 1.1502(3) 0.1806(3)
H14 H 0.8356 1.1337 0.2396
C18 C 0.8379(4) 1.2436(3) 0.1360(3)
C19 C 0.8684(4) 1.2615(3) 0.0472(3)
H15 H 0.8572 1.3221 0.0139
C20 C 0.9144(4) 1.1907(3) 0.0089(3)
H16 H 0.9343 1.2049 -0.0501
C21 C 0.7927(4) 1.3177(3) 0.1777(3)
H17 H 0.7669 1.3737 0.1469
C22 C 0.7861(4) 1.3099(3) 0.2580(3)
H18 H 0.8132 1.2532 0.2869
C23 C 0.7413(5) 1.3797(4) 0.3063(3)
C24 C 0.7644(5) 1.3670(4) 0.3827(3)
H19 H 0.8072 1.3154 0.4013
C25 C 0.7232(6) 1.4314(5) 0.4302(4)
H20 H 0.7383 1.4229 0.4808
C26 C 0.6601(6) 1.5078(4) 0.4028(4)
H21 H 0.6321 1.5504 0.4354
C27 C 0.6379(6) 1.5221(4) 0.3283(4)
H22 H 0.5951 1.5740 0.3104
C28 C 0.6797(5) 1.4583(4) 0.2791(3)
H23 H 0.6660 1.4689 0.2277
C29 C 0.8169(4) 0.8846(3) 0.1260(3)
C30 C 0.6214(4) 0.9044(3) 0.1248(3)
C31 C 0.7235(4) 0.7326(3) 0.1429(3)
C32 C 0.5887(4) 0.9777(3) 0.3812(3)
H24 H 0.5606 0.9795 0.4375
C33 C 0.6056(4) 1.0552(4) 0.3121(3)
H25 H 0.5923 1.1187 0.3117
C34 C 0.6471(4) 1.0183(3) 0.2427(3)
H26 H 0.6662 1.0543 0.1862
C35 C 0.7883(4) 0.6942(3) 0.4106(3)
H27 H 0.7768 0.6803 0.4688
C36 C 0.8767(5) 0.6684(4) 0.3537(3)
H28 H 0.9360 0.6337 0.3652
C37 C 0.8592(4) 0.7051(3) 0.2753(3)
H29 H 0.9063 0.6992 0.2239
C38 C 0.4339(4) 0.7305(3) 0.4032(3)
H30 H 0.3974 0.7197 0.4607
C39 C 0.3940(4) 0.7219(3) 0.3420(3)
H31 H 0.3276 0.7041 0.3491
C40 C 0.4765(4) 0.7462(3) 0.2671(3)
H32 H 0.4737 0.7470 0.2139
C41 C 0.6172(4) 0.8201(3) 0.5309(2)
H33 H 0.6503 0.8772 0.5038
C42 C 0.5989(5) 0.7720(4) 0.6115(3)
H34 H 0.6162 0.7918 0.6513
C43 C 0.5504(5) 0.6875(4) 0.6298(3)
H35 H 0.5306 0.6421 0.6819
C44 C 0.3677(4) 0.8430(3) 0.0368(3)
H36 H 0.3145 0.8903 0.0332
C45 C 0.3418(4) 0.7502(3) 0.0635(3)
H37 H 0.2719 0.7357 0.0791
C46 C 0.4202(4) 0.6764(3) 0.0677(3)
C47 C 0.5227(4) 0.7049(3) 0.0403(3)
H38 H 0.5780 0.6593 0.0390
C48 C 0.5432(4) 0.7992(3) 0.0150(3)
H39 H 0.6126 0.8160 -0.0032
C49 C 0.3935(4) 0.5768(3) 0.0985(3)
H40 H 0.3231 0.5637 0.1148
C50 C 0.4631(4) 0.5042(3) 0.1047(3)
H41 H 0.5326 0.5201 0.0884
C51 C 0.4461(4) 0.4019(3) 0.1337(3)
C52 C 0.3481(5) 0.3638(4) 0.1621(3)
H42 H 0.2882 0.4041 0.1646
C53 C 0.3386(5) 0.2651(4) 0.1869(3)
H43 H 0.2727 0.2400 0.2065
C54 C 0.4279(6) 0.2059(4) 0.1820(3)
H44 H 0.4220 0.1405 0.1978
C55 C 0.5242(5) 0.2418(3) 0.1545(3)
H45 H 0.5840 0.2013 0.1519
C56 C 0.5332(5) 0.3401(3) 0.1301(3)
H46 H 0.5995 0.3643 0.1111
B1 B 1.0543(5) 1.1175(4) 0.3313(3)
B2 B 0.6104(4) 0.7909(4) 0.3997(3)
Co1_2 Co 0.0000 1.0000 0.0000
Co2_2 Co 1.5000 1.0000 0.0000
Fe1A Fe 0.83913(5) 1.01890(4) -0.21640(4)
Fe2A Fe 0.30808(5) 1.17274(4) -0.20424(4)
N1A N 0.9186(3) 0.8265(3) -0.2362(2)
N2A N 0.8695(3) 0.8790(3) -0.1796(2)
N3A N 0.8428(3) 0.9333(3) -0.3473(2)
N4A N 0.7893(3) 0.9979(2) -0.3051(2)
N5A N 1.0201(3) 0.9599(3) -0.3446(2)
N6A N 0.9818(3) 1.0267(3) -0.3002(2)
N7A N 0.9922(3) 0.8203(3) -0.3911(2)
N8A N 1.0434(4) 0.8526(4) -0.4761(3)
N9A N 0.8127(4) 1.2360(3) -0.2717(3)
N10A N 0.6212(3) 0.9923(2) -0.0912(2)
N10_2 N 0.3788(3) 1.0077(2) 0.0912(2)
N11A N 0.9201(3) 1.0388(3) -0.0780(2)
N12A N 1.0685(3) 0.8982(2) -0.0537(2)
N13A N 0.1087(3) 1.0792(3) -0.0772(2)
N13A_2 N 1.1087(3) 1.0792(3) -0.0772(2)
N14A N 0.4219(3) 1.0502(2) -0.0775(2)
N15A N 0.2562(4) 1.3231(3) -0.1055(3)
N16A N 0.5334(3) 1.1314(2) -0.0154(2)
N17A N 0.3812(3) 1.1017(3) -0.3551(2)
N18A N 0.3443(3) 1.0759(2) -0.2683(2)
N19A N 0.2797(3) 1.2571(2) -0.3684(2)
N20A N 0.2346(3) 1.2503(3) -0.2842(2)
N21A N 0.4662(3) 1.2430(2) -0.3671(2)
N22A N 0.4405(3) 1.2320(2) -0.2819(2)
N23A N 0.4230(3) 1.2318(3) -0.4958(2)
N24A N 0.4620(5) 1.3141(4) -0.5541(3)
C1A C 0.9368(4) 0.7362(3) -0.1932(3)
H1A H 0.9699 0.6874 -0.2174
C2A C 0.8983(4) 0.7287(3) -0.1078(3)
H2A H 0.8991 0.6748 -0.0631
C3A C 0.8580(4) 0.8186(3) -0.1027(3)
H3A H 0.8267 0.8351 -0.0521
C4A C 0.7905(4) 0.9236(3) -0.3979(3)
H4A H 0.8102 0.8826 -0.4324
C5A C 0.7032(4) 0.9842(4) -0.3906(3)
H5A H 0.6534 0.9935 -0.4192
C6A C 0.7050(4) 1.0289(3) -0.3311(3)
H6A H 0.6548 1.0738 -0.3123
C7A C 1.1209(4) 0.9771(4) -0.3913(3)
H7A H 1.1643 0.9409 -0.4259
C8A C 1.1490(4) 1.0556(4) -0.3797(3)
H8A H 1.2133 1.0840 -0.4047
C9A C 1.0594(4) 1.0844(3) -0.3216(3)
H9A H 1.0548 1.1364 -0.3009
C10A C 0.9619(4) 0.7302(3) -0.3719(3)
H10A H 0.9242 0.6936 -0.3191
C11A C 0.9974(5) 0.7055(4) -0.4442(4)
H11A H 0.9889 0.6465 -0.4494
C12A C 1.0484(5) 0.7785(4) -0.5106(3)
H12A H 1.0797 0.7779 -0.5670
C13A C 0.8186(4) 1.1537(3) -0.2515(3)
C14A C 0.7038(4) 1.0049(3) -0.1405(3)
C15A C 0.8874(4) 1.0331(3) -0.1308(3)
C16A C 1.0991(4) 0.9179(3) -0.1390(3)
H13A H 1.0890 0.9796 -0.1708
C17A C 1.1447(4) 0.8498(3) -0.1806(3)
H14A H 1.1644 0.8663 -0.2396
C18A C 1.1621(4) 0.7564(3) -0.1360(3)
C19A C 1.1316(4) 0.7385(3) -0.0472(3)
H15A H 1.1428 0.6779 -0.0139
C20A C 1.0856(4) 0.8093(3) -0.0089(3)
H16A H 1.0657 0.7951 0.0501
C21A C 1.2073(4) 0.6823(3) -0.1777(3)
H17A H 1.2331 0.6263 -0.1469
C22A C 1.2139(4) 0.6901(3) -0.2580(3)
H18A H 1.1868 0.7468 -0.2869
C23A C 1.2587(5) 0.6203(4) -0.3063(3)
C24A C 1.2356(5) 0.6330(4) -0.3827(3)
H19A H 1.1928 0.6846 -0.4013
C25A C 1.2768(6) 0.5686(5) -0.4302(4)
H20A H 1.2617 0.5771 -0.4808
C26A C 1.3399(6) 0.4922(4) -0.4028(4)
H21A H 1.3679 0.4496 -0.4354
C27A C 1.3621(6) 0.4779(4) -0.3283(4)
H22A H 1.4049 0.4260 -0.3104
C28A C 1.3203(5) 0.5417(4) -0.2791(3)
H23A H 1.3340 0.5311 -0.2277
C29A C 0.1831(4) 1.1154(3) -0.1260(3)
C30A C 0.3786(4) 1.0956(3) -0.1248(3)
C31A C 0.2765(4) 1.2674(3) -0.1429(3)
C32A C 0.4113(4) 1.0223(3) -0.3812(3)
H24A H 0.4394 1.0205 -0.4375
C33A C 0.3944(4) 0.9448(4) -0.3121(3)
H25A H 0.4077 0.8813 -0.3117
C34A C 0.3529(4) 0.9817(3) -0.2427(3)
H26A H 0.3338 0.9457 -0.1862
C35A C 0.2117(4) 1.3058(3) -0.4106(3)
H27A H 0.2232 1.3197 -0.4688
C36A C 0.1233(5) 1.3316(4) -0.3537(3)
H28A H 0.0640 1.3663 -0.3652
C37A C 0.1408(4) 1.2949(3) -0.2753(3)
H29A H 0.0937 1.3008 -0.2239
C38A C 0.5661(4) 1.2695(3) -0.4032(3)
H30A H 0.6026 1.2803 -0.4607
C39A C 0.6060(4) 1.2781(3) -0.3420(3)
H31A H 0.6724 1.2959 -0.3491
C40A C 0.5235(4) 1.2538(3) -0.2671(3)
H32A H 0.5263 1.2530 -0.2139
C41A C 0.3828(4) 1.1799(3) -0.5309(2)
H33A H 0.3497 1.1228 -0.5038
C42A C 0.4011(5) 1.2280(4) -0.6115(3)
H34A H 0.3838 1.2082 -0.6513
C43A C 0.4496(5) 1.3125(4) -0.6298(3)
H35A H 0.4694 1.3579 -0.6819
C44A C 0.6323(4) 1.1570(3) -0.0368(3)
H36A H 0.6855 1.1097 -0.0332
C45A C 0.6582(4) 1.2498(3) -0.0635(3)
H37A H 0.7281 1.2643 -0.0791
C46A C 0.5798(4) 1.3236(3) -0.0677(3)
C47A C 0.4773(4) 1.2951(3) -0.0403(3)
H38A H 0.4220 1.3407 -0.0390
C48A C 0.4568(4) 1.2008(3) -0.0150(3)
H39A H 0.3874 1.1840 0.0032
C49A C 0.6065(4) 1.4232(3) -0.0985(3)
H40A H 0.6769 1.4363 -0.1148
C50A C 0.5369(4) 1.4958(3) -0.1047(3)
H41A H 0.4674 1.4799 -0.0884
C51A C 0.5539(4) 1.5981(3) -0.1337(3)
C52A C 0.6519(5) 1.6362(4) -0.1621(3)
H42A H 0.7118 1.5959 -0.1646
C53A C 0.6614(5) 1.7349(4) -0.1869(3)
H43A H 0.7273 1.7600 -0.2065
C54A C 0.5721(6) 1.7941(4) -0.1820(3)
H44A H 0.5780 1.8595 -0.1978
C55A C 0.4758(5) 1.7582(3) -0.1545(3)
H45A H 0.4160 1.7987 -0.1519
C56A C 0.4668(5) 1.6599(3) -0.1301(3)
H46A H 0.4005 1.6357 -0.1111
B1A B 0.9457(5) 0.8825(4) -0.3313(3)
B2A B 0.3896(4) 1.2091(4) -0.3997(3)
O1 O 0.7350(4) 0.5187(3) 0.0429(3)
O2 O 1.0886(11) 1.4666(9) 0.2506(8)
O3 O 1.1516(8) 0.5738(7) 0.3151(6)
C57 C 1.2379(13) 0.5196(10) 0.3399(9)
O4 O 0.9070(7) 1.4766(6) -0.0949(5)
C58 C 1.0156(15) 1.4703(12) -0.0934(12)
C59? C 0.9288(18) 1.3995(15) -0.1665(13)
O5? O 0.996(2) 1.4710(19) -0.1514(18)
loop_
_geom_bond_atom_site_label_1
_geom_bond_atom_site_label_2
_geom_bond_site_symmetry_1
_geom_bond_site_symmetry_2
Co1 N11 1_555 1_555
Co2 N14 1_555 1_555
Fe1 N2 1_555 1_555
Fe2 N18 1_555 1_555
N1 N2 1_555 1_555
N2 C3 1_555 1_555
N3 N4 1_555 1_555
N4 Fe1 1_555 1_555
N5 N6 1_555 1_555
N6 Fe1 1_555 1_555
N7 N8 1_555 1_555
N8 C12 1_555 1_555
N9 C13 1_555 1_555
N10 C14 1_555 1_555
N11 C15 1_555 1_555
N12 Co1 1_555 1_555
N13 Co1 1_555 1_555
N14 C30 1_555 1_555
N15 C31 1_555 1_555
N16 Co2 1_555 1_555
N17 N18 1_555 1_555
N18 C34 1_555 1_555
N19 N20 1_555 1_555
N20 Fe2 1_555 1_555
N21 N22 1_555 1_555
N22 Fe2 1_555 1_555
N23 N24 1_555 1_555
N24 C43 1_555 1_555
C1 N1 1_555 1_555
H1 C1 1_555 1_555
C2 C1 1_555 1_555
H2 C2 1_555 1_555
C3 C2 1_555 1_555
H3 C3 1_555 1_555
C4 N3 1_555 1_555
H4 C4 1_555 1_555
C5 C4 1_555 1_555
H5 C5 1_555 1_555
C6 N4 1_555 1_555
H6 C6 1_555 1_555
C7 N5 1_555 1_555
H7 C7 1_555 1_555
C8 C7 1_555 1_555
H8 C8 1_555 1_555
C9 N6 1_555 1_555
H9 C9 1_555 1_555
C10 N7 1_555 1_555
H10 C10 1_555 1_555
C11 C10 1_555 1_555
H11 C11 1_555 1_555
C12 C11 1_555 1_555
H12 C12 1_555 1_555
C13 Fe1 1_555 1_555
C14 Fe1 1_555 1_555
C15 Fe1 1_555 1_555
C16 N12 1_555 1_555
H13 C16 1_555 1_555
C17 C16 1_555 1_555
H14 C17 1_555 1_555
C18 C17 1_555 1_555
C19 C18 1_555 1_555
H15 C19 1_555 1_555
C20 N12 1_555 1_555
H16 C20 1_555 1_555
C21 C18 1_555 1_555
H17 C21 1_555 1_555
C22 C21 1_555 1_555
H18 C22 1_555 1_555
C23 C22 1_555 1_555
C24 C23 1_555 1_555
H19 C24 1_555 1_555
C25 C24 1_555 1_555
H20 C25 1_555 1_555
C26 C25 1_555 1_555
H21 C26 1_555 1_555
C27 C26 1_555 1_555
H22 C27 1_555 1_555
C28 C23 1_555 1_555
H23 C28 1_555 1_555
C29 Fe2 1_555 1_555
C30 Fe2 1_555 1_555
C31 Fe2 1_555 1_555
C32 N17 1_555 1_555
H24 C32 1_555 1_555
C33 C32 1_555 1_555
H25 C33 1_555 1_555
C34 C33 1_555 1_555
H26 C34 1_555 1_555
C35 N19 1_555 1_555
H27 C35 1_555 1_555
C36 C35 1_555 1_555
H28 C36 1_555 1_555
C37 N20 1_555 1_555
H29 C37 1_555 1_555
C38 N21 1_555 1_555
H30 C38 1_555 1_555
C39 C38 1_555 1_555
H31 C39 1_555 1_555
C40 N22 1_555 1_555
H32 C40 1_555 1_555
C41 N23 1_555 1_555
H33 C41 1_555 1_555
C42 C41 1_555 1_555
H34 C42 1_555 1_555
C43 C42 1_555 1_555
H35 C43 1_555 1_555
C44 N16 1_555 1_555
H36 C44 1_555 1_555
C45 C44 1_555 1_555
H37 C45 1_555 1_555
C46 C45 1_555 1_555
C47 C46 1_555 1_555
H38 C47 1_555 1_555
C48 N16 1_555 1_555
H39 C48 1_555 1_555
C49 C46 1_555 1_555
H40 C49 1_555 1_555
C50 C49 1_555 1_555
H41 C50 1_555 1_555
C51 C50 1_555 1_555
C52 C51 1_555 1_555
H42 C52 1_555 1_555
C53 C52 1_555 1_555
H43 C53 1_555 1_555
C54 C53 1_555 1_555
H44 C54 1_555 1_555
C55 C54 1_555 1_555
H45 C55 1_555 1_555
C56 C51 1_555 1_555
H46 C56 1_555 1_555
B1 N1 1_555 1_555
B2 N17 1_555 1_555
O3 C57 1_555 1_555
O4 C58 1_555 1_555
Co1_2 N13A 1_555 1_555
Co2_2 N10 1_555 1_555
Fe1A N2A 1_555 1_555
Fe2A N18A 1_555 1_555
N1A N2A 1_555 1_555
N2A C3A 1_555 1_555
N3A N4A 1_555 1_555
N4A Fe1A 1_555 1_555
N5A N6A 1_555 1_555
N6A Fe1A 1_555 1_555
N7A N8A 1_555 1_555
N8A C12A 1_555 1_555
N9A C13A 1_555 1_555
N10A Co2 1_555 1_555
N10_2 Co2 1_555 1_555
N11A Co1 1_555 1_555
N12A Co1 1_555 1_555
N13A C29A 1_555 1_555
N13A_2 Co1 1_555 1_555
N14A Co2 1_555 1_555
N15A C31A 1_555 1_555
N16A Co2 1_555 1_555
N17A N18A 1_555 1_555
N18A C34A 1_555 1_555
N19A N20A 1_555 1_555
N20A Fe2A 1_555 1_555
N21A N22A 1_555 1_555
N22A Fe2A 1_555 1_555
N23A N24A 1_555 1_555
N24A C43A 1_555 1_555
C1A N1A 1_555 1_555
H1A C1A 1_555 1_555
C2A C1A 1_555 1_555
H2A C2A 1_555 1_555
C3A C2A 1_555 1_555
H3A C3A 1_555 1_555
C4A N3A 1_555 1_555
H4A C4A 1_555 1_555
C5A C4A 1_555 1_555
H5A C5A 1_555 1_555
C6A N4A 1_555 1_555
H6A C6A 1_555 1_555
C7A N5A 1_555 1_555
H7A C7A 1_555 1_555
C8A C7A 1_555 1_555
H8A C8A 1_555 1_555
C9A N6A 1_555 1_555
H9A C9A 1_555 1_555
C10A N7A 1_555 1_555
H10A C10A 1_555 1_555
C11A C10A 1_555 1_555
H11A C11A 1_555 1_555
C12A C11A 1_555 1_555
H12A C12A 1_555 1_555
C13A Fe1A 1_555 1_555
C14A Fe1A 1_555 1_555
C15A Fe1A 1_555 1_555
C16A N12A 1_555 1_555
H13A C16A 1_555 1_555
C17A C16A 1_555 1_555
H14A C17A 1_555 1_555
C18A C17A 1_555 1_555
C19A C18A 1_555 1_555
H15A C19A 1_555 1_555
C20A N12A 1_555 1_555
H16A C20A 1_555 1_555
C21A C18A 1_555 1_555
H17A C21A 1_555 1_555
C22A C21A 1_555 1_555
H18A C22A 1_555 1_555
C23A C22A 1_555 1_555
C24A C23A 1_555 1_555
H19A C24A 1_555 1_555
C25A C24A 1_555 1_555
H20A C25A 1_555 1_555
C26A C25A 1_555 1_555
H21A C26A 1_555 1_555
C27A C26A 1_555 1_555
H22A C27A 1_555 1_555
C28A C23A 1_555 1_555
H23A C28A 1_555 1_555
C29A Fe2A 1_555 1_555
C30A Fe2A 1_555 1_555
C31A Fe2A 1_555 1_555
C32A N17A 1_555 1_555
H24A C32A 1_555 1_555
C33A C32A 1_555 1_555
H25A C33A 1_555 1_555
C34A C33A 1_555 1_555
H26A C34A 1_555 1_555
C35A N19A 1_555 1_555
H27A C35A 1_555 1_555
C36A C35A 1_555 1_555
H28A C36A 1_555 1_555
C37A N20A 1_555 1_555
H29A C37A 1_555 1_555
C38A N21A 1_555 1_555
H30A C38A 1_555 1_555
C39A C38A 1_555 1_555
H31A C39A 1_555 1_555
C40A N22A 1_555 1_555
H32A C40A 1_555 1_555
C41A N23A 1_555 1_555
H33A C41A 1_555 1_555
C42A C41A 1_555 1_555
H34A C42A 1_555 1_555
C43A C42A 1_555 1_555
H35A C43A 1_555 1_555
C44A N16A 1_555 1_555
H36A C44A 1_555 1_555
C45A C44A 1_555 1_555
H37A C45A 1_555 1_555
C46A C45A 1_555 1_555
C47A C46A 1_555 1_555
H38A C47A 1_555 1_555
C48A N16A 1_555 1_555
H39A C48A 1_555 1_555
C49A C46A 1_555 1_555
H40A C49A 1_555 1_555
C50A C49A 1_555 1_555
H41A C50A 1_555 1_555
C51A C50A 1_555 1_555
C52A C51A 1_555 1_555
H42A C52A 1_555 1_555
C53A C52A 1_555 1_555
H43A C53A 1_555 1_555
C54A C53A 1_555 1_555
H44A C54A 1_555 1_555
C55A C54A 1_555 1_555
H45A C55A 1_555 1_555
C56A C51A 1_555 1_555
H46A C56A 1_555 1_555
B1A N1A 1_555 1_555
B2A N17A 1_555 1_555
N3 B1 1_555 1_555
N5 B1 1_555 1_555
N7 B1 1_555 1_555
N13 C29 1_555 1_555
N19 B2 1_555 1_555
N21 B2 1_555 1_555
N23 B2 1_555 1_555
C5 C6 1_555 1_555
C8 C9 1_555 1_555
C19 C20 1_555 1_555
C27 C28 1_555 1_555
C36 C37 1_555 1_555
C39 C40 1_555 1_555
C47 C48 1_555 1_555
C55 C56 1_555 1_555
N3A B1A 1_555 1_555
N5A B1A 1_555 1_555
N7A B1A 1_555 1_555
N10A C14A 1_555 1_555
N11A C15A 1_555 1_555
N14A C30A 1_555 1_555
N19A B2A 1_555 1_555
N21A B2A 1_555 1_555
N23A B2A 1_555 1_555
C5A C6A 1_555 1_555
C8A C9A 1_555 1_555
C19A C20A 1_555 1_555
C27A C28A 1_555 1_555
C36A C37A 1_555 1_555
C39A C40A 1_555 1_555
C47A C48A 1_555 1_555
C55A C56A 1_555 1_555

#END
