
#######################################################################
#
#                 Cambridge Crystallographic Data Centre
#                                CCDC 
#
#######################################################################
#
# If this CIF has been generated from an entry in the Cambridge 
# Structural Database, then it will include bibliographic, chemical, 
# crystal, experimental, refinement or atomic coordinate data resulting 
# from the CCDC's data processing and validation procedures.
#
#######################################################################

data_DEBTIP
_symmetry_cell_setting           triclinic
_symmetry_space_group_name_H-M   'P -1'
_symmetry_Int_Tables_number      2
_space_group_name_Hall           '-P 1'
loop_
_symmetry_equiv_pos_site_id
_symmetry_equiv_pos_as_xyz
1 x,y,z
2 -x,-y,-z
_cell_length_a                   13.8574(3)
_cell_length_b                   14.9356(3)
_cell_length_c                   17.5565(4)
_cell_angle_alpha                71.876(2)
_cell_angle_beta                 71.5530(10)
_cell_angle_gamma                81.815(2)
_cell_volume                     3272.02
loop_
_atom_site_label
_atom_site_type_symbol
_atom_site_fract_x
_atom_site_fract_y
_atom_site_fract_z
Co1 Co 1.0000 1.0000 0.0000
Co2 Co 1.5000 1.0000 0.0000
Fe1 Fe 1.15964(4) 0.98146(4) 0.22531(3)
Fe2 Fe 0.69380(4) 0.82106(3) 0.21250(3)
N1 N 1.0829(2) 1.1713(2) 0.23914(19)
N2 N 1.1311(2) 1.1185(2) 0.18510(18)
N3 N 1.1577(2) 1.0677(2) 0.35109(18)
N4 N 1.2093(2) 1.0033(2) 0.31084(18)
N5 N 0.9851(2) 1.0398(2) 0.34832(18)
N6 N 1.0220(2) 0.9738(2) 0.30529(18)
N7 N 1.0131(3) 1.1802(2) 0.38979(19)
N8 N 0.9599(3) 1.1490(3) 0.4715(3)
N9 N 1.1890(3) 0.7654(3) 0.2819(2)
N10 N 1.3707(3) 1.0075(2) 0.09940(19)
N11 N 1.0878(2) 0.9562(2) 0.08538(19)
N12 N 0.9268(3) 1.1084(2) 0.05872(19)
N13 N 0.8876(3) 0.9101(2) 0.0870(2)
N14 N 0.5886(3) 0.9465(2) 0.08415(19)
N15 N 0.7436(3) 0.6747(3) 0.1139(2)
N16 N 1.4647(2) 0.8561(2) 0.02180(18)
N17 N 0.6242(2) 0.8944(2) 0.35970(18)
N18 N 0.6602(2) 0.9190(2) 0.27413(18)
N19 N 0.7208(3) 0.7387(2) 0.37627(18)
N20 N 0.7648(3) 0.7449(2) 0.29347(18)
N21 N 0.5387(2) 0.7550(2) 0.37274(19)
N22 N 0.5646(2) 0.7646(2) 0.28861(18)
N23 N 0.5821(3) 0.7662(2) 0.4994(2)
N24 N 0.5437(4) 0.6852(3) 0.5570(3)
C1 C 1.0642(3) 1.2594(3) 0.1946(3)
H1 H 1.0317 1.3085 0.2168
C2 C 1.1012(4) 1.2649(3) 0.1110(3)
H2 H 1.0993 1.3177 0.0660
C3 C 1.1414(3) 1.1766(3) 0.1076(2)
H3 H 1.1716 1.1592 0.0585
C4 C 1.2098(3) 1.0785(3) 0.4006(2)
H4 H 1.1911 1.1194 0.4340
C5 C 1.2948(4) 1.0192(3) 0.3932(3)
H5 H 1.3442 1.0112 0.4207
C6 C 1.2923(3) 0.9735(3) 0.3369(3)
H6 H 1.3410 0.9287 0.3195
C7 C 0.8872(3) 1.0225(3) 0.3928(2)
H7 H 0.8449 1.0576 0.4270
C8 C 0.8599(3) 0.9457(3) 0.3796(3)
H8 H 0.7972 0.9182 0.4028
C9 C 0.9454(3) 0.9174(3) 0.3243(2)
H9 H 0.9493 0.8666 0.3032
C10 C 1.0408(4) 1.2701(3) 0.3721(3)
H10 H 1.0773 1.3074 0.3204
C11 C 1.0055(5) 1.2940(4) 0.4430(4)
H11 H 1.0141 1.3515 0.4495
C12 C 0.9545(5) 1.2209(5) 0.5050(3)
H12 H 0.9219 1.2206 0.5602
C13 C 1.1823(3) 0.8467(3) 0.2603(2)
C14 C 1.2924(3) 0.9946(3) 0.1477(2)
C15 C 1.1155(3) 0.9616(3) 0.1386(2)
C16 C 0.8992(3) 1.0873(3) 0.1428(2)
H13 H 0.9117 1.0259 0.1732
C17 C 0.8532(3) 1.1525(3) 0.1863(2)
H14 H 0.8354 1.1343 0.2445
C18 C 0.8339(3) 1.2444(3) 0.1435(3)
C19 C 0.8621(4) 1.2660(3) 0.0558(3)
H15 H 0.8503 1.3268 0.0239
C20 C 0.9071(3) 1.1970(3) 0.0175(3)
H16 H 0.9249 1.2130 -0.0406
C21 C 0.7893(3) 1.3168(3) 0.1865(3)
H17 H 0.7635 1.3726 0.1563
C22 C 0.7828(4) 1.3089(3) 0.2654(3)
H18 H 0.8093 1.2525 0.2941
C23 C 0.7400(4) 1.3762(3) 0.3125(3)
C24 C 0.7619(5) 1.3639(4) 0.3874(3)
H19 H 0.8035 1.3127 0.4062
C25 C 0.7214(6) 1.4285(6) 0.4351(4)
H20 H 0.7347 1.4194 0.4857
C26 C 0.6626(8) 1.5043(5) 0.4056(5)
H21 H 0.6361 1.5472 0.4366
C27 C 0.6416(7) 1.5191(4) 0.3317(5)
H22 H 0.6019 1.5718 0.3124
C28 C 0.6804(5) 1.4543(4) 0.2851(4)
H23 H 0.6657 1.4641 0.2348
C29 C 0.8158(3) 0.8764(3) 0.1357(2)
C30 C 0.6273(3) 0.8993(3) 0.1327(2)
C31 C 0.7240(3) 0.7286(3) 0.1517(2)
C32 C 0.5947(3) 0.9731(3) 0.3839(3)
H24 H 0.5669 0.9756 0.4389
C33 C 0.6123(4) 1.0492(3) 0.3145(3)
H25 H 0.5999 1.1126 0.3126
C34 C 0.6529(3) 1.0112(3) 0.2471(3)
H26 H 0.6720 1.0462 0.1911
C35 C 0.7861(4) 0.6917(3) 0.4192(3)
H27 H 0.7742 0.6786 0.4767
C36 C 0.8724(4) 0.6664(4) 0.3654(3)
H28 H 0.9300 0.6332 0.3780
C37 C 0.8556(3) 0.7012(3) 0.2868(3)
H29 H 0.9017 0.6946 0.2370
C38 C 0.4408(3) 0.7309(3) 0.4072(3)
H30 H 0.4044 0.7213 0.4633
C39 C 0.4038(4) 0.7227(3) 0.3462(3)
H31 H 0.3391 0.7055 0.3527
C40 C 0.4821(3) 0.7451(3) 0.2736(3)
H32 H 0.4784 0.7466 0.2212
C41 C 0.6170(3) 0.8173(3) 0.5357(2)
H33 H 0.6503 0.8735 0.5095
C42 C 0.5941(4) 0.7706(4) 0.6164(3)
H34 H 0.6064 0.7914 0.6570
C43 C 0.5502(4) 0.6883(4) 0.6321(3)
H35 H 0.5289 0.6433 0.6836
C44 C 1.3690(3) 0.8275(3) 0.0450(3)
H36 H 1.3163 0.8734 0.0425
C45 C 1.3449(3) 0.7354(3) 0.0717(3)
H37 H 1.2773 0.7202 0.0867
C46 C 1.4211(3) 0.6639(3) 0.0767(3)
C47 C 1.5204(3) 0.6934(3) 0.0513(3)
H38 H 1.5747 0.6490 0.0523
C48 C 1.5379(3) 0.7879(3) 0.0248(2)
H39 H 1.6049 0.8054 0.0080
C49 C 1.3973(4) 0.5642(3) 0.1051(3)
H40 H 1.3292 0.5501 0.1216
C50 C 1.4652(4) 0.4935(3) 0.1090(3)
H41 H 1.5325 0.5099 0.0930
C51 C 1.4494(4) 0.3916(3) 0.1353(3)
C52 C 1.3543(4) 0.3532(3) 0.1634(3)
H42 H 1.2958 0.3927 0.1687
C53 C 1.3459(5) 0.2557(4) 0.1838(3)
H43 H 1.2821 0.2306 0.2017
C54 C 1.4322(6) 0.1974(3) 0.1771(3)
H44 H 1.4270 0.1326 0.1906
C55 C 1.5252(5) 0.2341(3) 0.1508(3)
H45 H 1.5834 0.1943 0.1468
C56 C 1.5339(4) 0.3311(3) 0.1298(3)
H46 H 1.5981 0.3553 0.1118
B1 B 1.0575(4) 1.1174(3) 0.3332(3)
B2 B 0.6142(4) 0.7880(3) 0.4051(3)
Co2_2 Co 0.5000 1.0000 0.0000
Fe1A Fe 0.84036(4) 1.01854(4) -0.22531(3)
Fe2A Fe 1.30620(4) 1.17894(3) -0.21250(3)
N1A N 0.9171(2) 0.8287(2) -0.23914(19)
N2A N 0.8689(2) 0.8815(2) -0.18510(18)
N3A N 0.8423(2) 0.9323(2) -0.35109(18)
N4A N 0.7907(2) 0.9967(2) -0.31084(18)
N5A N 1.0149(2) 0.9602(2) -0.34832(18)
N6A N 0.9780(2) 1.0262(2) -0.30529(18)
N7A N 0.9869(3) 0.8198(2) -0.38979(19)
N8A N 1.0401(3) 0.8510(3) -0.4715(3)
N9A N 0.8110(3) 1.2346(3) -0.2819(2)
N10A N 0.6293(3) 0.9925(2) -0.09940(19)
N10A_2 N 1.6293(3) 0.9925(2) -0.09940(19)
N11A N 0.9122(2) 1.0438(2) -0.08538(19)
N12A N 1.0732(3) 0.8916(2) -0.05872(19)
N13A N 1.1124(3) 1.0899(2) -0.0870(2)
N14A N 1.4114(3) 1.0535(2) -0.08415(19)
N14_2 N 1.5886(3) 0.9465(2) 0.08415(19)
N15A N 1.2564(3) 1.3253(3) -0.1139(2)
N16A N 1.5353(2) 1.1439(2) -0.02180(18)
N17A N 1.3758(2) 1.1056(2) -0.35970(18)
N18A N 1.3398(2) 1.0810(2) -0.27413(18)
N19A N 1.2792(3) 1.2613(2) -0.37627(18)
N20A N 1.2352(3) 1.2551(2) -0.29347(18)
N21A N 1.4613(2) 1.2450(2) -0.37274(19)
N22A N 1.4354(2) 1.2354(2) -0.28861(18)
N23A N 1.4179(3) 1.2338(2) -0.4994(2)
N24A N 1.4563(4) 1.3148(3) -0.5570(3)
C1A C 0.9358(3) 0.7406(3) -0.1946(3)
H1A H 0.9683 0.6915 -0.2168
C2A C 0.8988(4) 0.7351(3) -0.1110(3)
H2A H 0.9007 0.6823 -0.0660
C3A C 0.8586(3) 0.8234(3) -0.1076(2)
H3A H 0.8284 0.8408 -0.0585
C4A C 0.7902(3) 0.9215(3) -0.4006(2)
H4A H 0.8089 0.8806 -0.4340
C5A C 0.7052(4) 0.9808(3) -0.3932(3)
H5A H 0.6558 0.9888 -0.4207
C6A C 0.7077(3) 1.0265(3) -0.3369(3)
H6A H 0.6590 1.0713 -0.3195
C7A C 1.1128(3) 0.9775(3) -0.3928(2)
H7A H 1.1551 0.9424 -0.4270
C8A C 1.1401(3) 1.0543(3) -0.3796(3)
H8A H 1.2028 1.0818 -0.4028
C9A C 1.0546(3) 1.0826(3) -0.3243(2)
H9A H 1.0507 1.1334 -0.3032
C10A C 0.9592(4) 0.7299(3) -0.3721(3)
H10A H 0.9227 0.6926 -0.3204
C11A C 0.9945(5) 0.7060(4) -0.4430(4)
H11A H 0.9859 0.6485 -0.4495
C12A C 1.0455(5) 0.7791(5) -0.5050(3)
H12A H 1.0781 0.7794 -0.5602
C13A C 0.8177(3) 1.1533(3) -0.2603(2)
C14A C 0.7076(3) 1.0054(3) -0.1477(2)
C15A C 0.8845(3) 1.0384(3) -0.1386(2)
C16A C 1.1008(3) 0.9127(3) -0.1428(2)
H13A H 1.0883 0.9741 -0.1732
C17A C 1.1468(3) 0.8475(3) -0.1863(2)
H14A H 1.1646 0.8657 -0.2445
C18A C 1.1661(3) 0.7556(3) -0.1435(3)
C19A C 1.1379(4) 0.7340(3) -0.0558(3)
H15A H 1.1497 0.6732 -0.0239
C20A C 1.0929(3) 0.8030(3) -0.0175(3)
H16A H 1.0751 0.7870 0.0406
C21A C 1.2107(3) 0.6832(3) -0.1865(3)
H17A H 1.2365 0.6274 -0.1563
C22A C 1.2172(4) 0.6911(3) -0.2654(3)
H18A H 1.1907 0.7475 -0.2941
C23A C 1.2600(4) 0.6238(3) -0.3125(3)
C24A C 1.2381(5) 0.6361(4) -0.3874(3)
H19A H 1.1965 0.6873 -0.4062
C25A C 1.2786(6) 0.5715(6) -0.4351(4)
H20A H 1.2653 0.5806 -0.4857
C26A C 1.3374(8) 0.4957(5) -0.4056(5)
H21A H 1.3639 0.4528 -0.4366
C27A C 1.3584(7) 0.4809(4) -0.3317(5)
H22A H 1.3981 0.4282 -0.3124
C28A C 1.3196(5) 0.5457(4) -0.2851(4)
H23A H 1.3343 0.5359 -0.2348
C29A C 1.1842(3) 1.1236(3) -0.1357(2)
C30A C 1.3727(3) 1.1007(3) -0.1327(2)
C31A C 1.2760(3) 1.2714(3) -0.1517(2)
C32A C 1.4053(3) 1.0269(3) -0.3839(3)
H24A H 1.4331 1.0244 -0.4389
C33A C 1.3877(4) 0.9508(3) -0.3145(3)
H25A H 1.4001 0.8874 -0.3126
C34A C 1.3471(3) 0.9888(3) -0.2471(3)
H26A H 1.3280 0.9538 -0.1911
C35A C 1.2139(4) 1.3083(3) -0.4192(3)
H27A H 1.2258 1.3214 -0.4767
C36A C 1.1276(4) 1.3336(4) -0.3654(3)
H28A H 1.0700 1.3668 -0.3780
C37A C 1.1444(3) 1.2988(3) -0.2868(3)
H29A H 1.0983 1.3054 -0.2370
C38A C 1.5592(3) 1.2691(3) -0.4072(3)
H30A H 1.5956 1.2787 -0.4633
C39A C 1.5962(4) 1.2773(3) -0.3462(3)
H31A H 1.6609 1.2945 -0.3527
C40A C 1.5179(3) 1.2549(3) -0.2736(3)
H32A H 1.5216 1.2534 -0.2212
C41A C 1.3830(3) 1.1827(3) -0.5357(2)
H33A H 1.3497 1.1265 -0.5095
C42A C 1.4059(4) 1.2294(4) -0.6164(3)
H34A H 1.3936 1.2086 -0.6570
C43A C 1.4498(4) 1.3117(4) -0.6321(3)
H35A H 1.4711 1.3567 -0.6836
C44A C 1.6310(3) 1.1725(3) -0.0450(3)
H36A H 1.6837 1.1266 -0.0425
C45A C 1.6551(3) 1.2646(3) -0.0717(3)
H37A H 1.7227 1.2798 -0.0867
C46A C 1.5789(3) 1.3361(3) -0.0767(3)
C47A C 1.4796(3) 1.3066(3) -0.0513(3)
H38A H 1.4253 1.3510 -0.0523
C48A C 1.4621(3) 1.2121(3) -0.0248(2)
H39A H 1.3951 1.1946 -0.0080
C49A C 1.6027(4) 1.4358(3) -0.1051(3)
H40A H 1.6708 1.4499 -0.1216
C50A C 1.5348(4) 1.5065(3) -0.1090(3)
H41A H 1.4675 1.4901 -0.0930
C51A C 1.5506(4) 1.6084(3) -0.1353(3)
C52A C 1.6457(4) 1.6468(3) -0.1634(3)
H42A H 1.7042 1.6073 -0.1687
C53A C 1.6541(5) 1.7443(4) -0.1838(3)
H43A H 1.7179 1.7694 -0.2017
C54A C 1.5678(6) 1.8026(3) -0.1771(3)
H44A H 1.5730 1.8674 -0.1906
C55A C 1.4748(5) 1.7659(3) -0.1508(3)
H45A H 1.4166 1.8057 -0.1468
C56A C 1.4661(4) 1.6689(3) -0.1298(3)
H46A H 1.4019 1.6447 -0.1118
B1A B 0.9425(4) 0.8826(3) -0.3332(3)
B2A B 1.3858(4) 1.2120(3) -0.4051(3)
O1 O 0.7425(4) 0.5204(4) 0.0457(3)
O2 O 1.0867(16) 1.4819(14) 0.2311(12)
C57 C 1.070(2) 1.580(2) 0.1686(19)
O3 O 1.1528(7) 0.5746(6) 0.3159(5)
C58 C 1.2317(11) 0.5195(9) 0.3448(8)
O4 O 0.9076(10) 1.4865(8) -0.0896(8)
C59 C 1.013(3) 1.486(2) -0.056(2)
O5? O 1.0151(19) 1.4666(14) -0.1279(14)
loop_
_geom_bond_atom_site_label_1
_geom_bond_atom_site_label_2
_geom_bond_site_symmetry_1
_geom_bond_site_symmetry_2
Co1 N11 1_555 1_555
Co2 N10 1_555 1_555
Fe1 N2 1_555 1_555
Fe2 N18 1_555 1_555
N1 N2 1_555 1_555
N2 C3 1_555 1_555
N3 N4 1_555 1_555
N4 Fe1 1_555 1_555
N5 N6 1_555 1_555
N6 Fe1 1_555 1_555
N7 N8 1_555 1_555
N8 C12 1_555 1_555
N9 C13 1_555 1_555
N10 C14 1_555 1_555
N11 C15 1_555 1_555
N12 Co1 1_555 1_555
N13 Co1 1_555 1_555
N14 C30 1_555 1_555
N15 C31 1_555 1_555
N16 Co2 1_555 1_555
N17 N18 1_555 1_555
N18 C34 1_555 1_555
N19 N20 1_555 1_555
N20 Fe2 1_555 1_555
N21 N22 1_555 1_555
N22 Fe2 1_555 1_555
N23 N24 1_555 1_555
N24 C43 1_555 1_555
C1 N1 1_555 1_555
H1 C1 1_555 1_555
C2 C1 1_555 1_555
H2 C2 1_555 1_555
C3 C2 1_555 1_555
H3 C3 1_555 1_555
C4 N3 1_555 1_555
H4 C4 1_555 1_555
C5 C4 1_555 1_555
H5 C5 1_555 1_555
C6 N4 1_555 1_555
H6 C6 1_555 1_555
C7 N5 1_555 1_555
H7 C7 1_555 1_555
C8 C7 1_555 1_555
H8 C8 1_555 1_555
C9 N6 1_555 1_555
H9 C9 1_555 1_555
C10 N7 1_555 1_555
H10 C10 1_555 1_555
C11 C10 1_555 1_555
H11 C11 1_555 1_555
C12 C11 1_555 1_555
H12 C12 1_555 1_555
C13 Fe1 1_555 1_555
C14 Fe1 1_555 1_555
C15 Fe1 1_555 1_555
C16 N12 1_555 1_555
H13 C16 1_555 1_555
C17 C16 1_555 1_555
H14 C17 1_555 1_555
C18 C17 1_555 1_555
C19 C18 1_555 1_555
H15 C19 1_555 1_555
C20 N12 1_555 1_555
H16 C20 1_555 1_555
C21 C18 1_555 1_555
H17 C21 1_555 1_555
C22 C21 1_555 1_555
H18 C22 1_555 1_555
C23 C22 1_555 1_555
C24 C23 1_555 1_555
H19 C24 1_555 1_555
C25 C24 1_555 1_555
H20 C25 1_555 1_555
C26 C25 1_555 1_555
H21 C26 1_555 1_555
C27 C26 1_555 1_555
H22 C27 1_555 1_555
C28 C23 1_555 1_555
H23 C28 1_555 1_555
C29 Fe2 1_555 1_555
C30 Fe2 1_555 1_555
C31 Fe2 1_555 1_555
C32 N17 1_555 1_555
H24 C32 1_555 1_555
C33 C32 1_555 1_555
H25 C33 1_555 1_555
C34 C33 1_555 1_555
H26 C34 1_555 1_555
C35 N19 1_555 1_555
H27 C35 1_555 1_555
C36 C35 1_555 1_555
H28 C36 1_555 1_555
C37 N20 1_555 1_555
H29 C37 1_555 1_555
C38 N21 1_555 1_555
H30 C38 1_555 1_555
C39 C38 1_555 1_555
H31 C39 1_555 1_555
C40 N22 1_555 1_555
H32 C40 1_555 1_555
C41 N23 1_555 1_555
H33 C41 1_555 1_555
C42 C41 1_555 1_555
H34 C42 1_555 1_555
C43 C42 1_555 1_555
H35 C43 1_555 1_555
C44 N16 1_555 1_555
H36 C44 1_555 1_555
C45 C44 1_555 1_555
H37 C45 1_555 1_555
C46 C45 1_555 1_555
C47 C46 1_555 1_555
H38 C47 1_555 1_555
C48 N16 1_555 1_555
H39 C48 1_555 1_555
C49 C46 1_555 1_555
H40 C49 1_555 1_555
C50 C49 1_555 1_555
H41 C50 1_555 1_555
C51 C50 1_555 1_555
C52 C51 1_555 1_555
H42 C52 1_555 1_555
C53 C52 1_555 1_555
H43 C53 1_555 1_555
C54 C53 1_555 1_555
H44 C54 1_555 1_555
C55 C54 1_555 1_555
H45 C55 1_555 1_555
C56 C51 1_555 1_555
H46 C56 1_555 1_555
B1 N1 1_555 1_555
B2 N17 1_555 1_555
O2 C57 1_555 1_555
O3 C58 1_555 1_555
O4 C59 1_555 1_555
Co2_2 N14 1_555 1_555
Fe1A N2A 1_555 1_555
Fe2A N18A 1_555 1_555
N1A N2A 1_555 1_555
N2A C3A 1_555 1_555
N3A N4A 1_555 1_555
N4A Fe1A 1_555 1_555
N5A N6A 1_555 1_555
N6A Fe1A 1_555 1_555
N7A N8A 1_555 1_555
N8A C12A 1_555 1_555
N9A C13A 1_555 1_555
N10A Co2_2 1_555 1_555
N10A_2 Co2 1_555 1_555
N11A Co1 1_555 1_555
N12A Co1 1_555 1_555
N13A Co1 1_555 1_555
N14A Co2 1_555 1_555
N14_2 Co2 1_555 1_555
N15A C31A 1_555 1_555
N16A Co2 1_555 1_555
N17A N18A 1_555 1_555
N18A C34A 1_555 1_555
N19A N20A 1_555 1_555
N20A Fe2A 1_555 1_555
N21A N22A 1_555 1_555
N22A Fe2A 1_555 1_555
N23A N24A 1_555 1_555
N24A C43A 1_555 1_555
C1A N1A 1_555 1_555
H1A C1A 1_555 1_555
C2A C1A 1_555 1_555
H2A C2A 1_555 1_555
C3A C2A 1_555 1_555
H3A C3A 1_555 1_555
C4A N3A 1_555 1_555
H4A C4A 1_555 1_555
C5A C4A 1_555 1_555
H5A C5A 1_555 1_555
C6A N4A 1_555 1_555
H6A C6A 1_555 1_555
C7A N5A 1_555 1_555
H7A C7A 1_555 1_555
C8A C7A 1_555 1_555
H8A C8A 1_555 1_555
C9A N6A 1_555 1_555
H9A C9A 1_555 1_555
C10A N7A 1_555 1_555
H10A C10A 1_555 1_555
C11A C10A 1_555 1_555
H11A C11A 1_555 1_555
C12A C11A 1_555 1_555
H12A C12A 1_555 1_555
C13A Fe1A 1_555 1_555
C14A Fe1A 1_555 1_555
C15A Fe1A 1_555 1_555
C16A N12A 1_555 1_555
H13A C16A 1_555 1_555
C17A C16A 1_555 1_555
H14A C17A 1_555 1_555
C18A C17A 1_555 1_555
C19A C18A 1_555 1_555
H15A C19A 1_555 1_555
C20A N12A 1_555 1_555
H16A C20A 1_555 1_555
C21A C18A 1_555 1_555
H17A C21A 1_555 1_555
C22A C21A 1_555 1_555
H18A C22A 1_555 1_555
C23A C22A 1_555 1_555
C24A C23A 1_555 1_555
H19A C24A 1_555 1_555
C25A C24A 1_555 1_555
H20A C25A 1_555 1_555
C26A C25A 1_555 1_555
H21A C26A 1_555 1_555
C27A C26A 1_555 1_555
H22A C27A 1_555 1_555
C28A C23A 1_555 1_555
H23A C28A 1_555 1_555
C29A Fe2A 1_555 1_555
C30A Fe2A 1_555 1_555
C31A Fe2A 1_555 1_555
C32A N17A 1_555 1_555
H24A C32A 1_555 1_555
C33A C32A 1_555 1_555
H25A C33A 1_555 1_555
C34A C33A 1_555 1_555
H26A C34A 1_555 1_555
C35A N19A 1_555 1_555
H27A C35A 1_555 1_555
C36A C35A 1_555 1_555
H28A C36A 1_555 1_555
C37A N20A 1_555 1_555
H29A C37A 1_555 1_555
C38A N21A 1_555 1_555
H30A C38A 1_555 1_555
C39A C38A 1_555 1_555
H31A C39A 1_555 1_555
C40A N22A 1_555 1_555
H32A C40A 1_555 1_555
C41A N23A 1_555 1_555
H33A C41A 1_555 1_555
C42A C41A 1_555 1_555
H34A C42A 1_555 1_555
C43A C42A 1_555 1_555
H35A C43A 1_555 1_555
C44A N16A 1_555 1_555
H36A C44A 1_555 1_555
C45A C44A 1_555 1_555
H37A C45A 1_555 1_555
C46A C45A 1_555 1_555
C47A C46A 1_555 1_555
H38A C47A 1_555 1_555
C48A N16A 1_555 1_555
H39A C48A 1_555 1_555
C49A C46A 1_555 1_555
H40A C49A 1_555 1_555
C50A C49A 1_555 1_555
H41A C50A 1_555 1_555
C51A C50A 1_555 1_555
C52A C51A 1_555 1_555
H42A C52A 1_555 1_555
C53A C52A 1_555 1_555
H43A C53A 1_555 1_555
C54A C53A 1_555 1_555
H44A C54A 1_555 1_555
C55A C54A 1_555 1_555
H45A C55A 1_555 1_555
C56A C51A 1_555 1_555
H46A C56A 1_555 1_555
B1A N1A 1_555 1_555
B2A N17A 1_555 1_555
N3 B1 1_555 1_555
N5 B1 1_555 1_555
N7 B1 1_555 1_555
N13 C29 1_555 1_555
N19 B2 1_555 1_555
N21 B2 1_555 1_555
N23 B2 1_555 1_555
C5 C6 1_555 1_555
C8 C9 1_555 1_555
C19 C20 1_555 1_555
C27 C28 1_555 1_555
C36 C37 1_555 1_555
C39 C40 1_555 1_555
C47 C48 1_555 1_555
C55 C56 1_555 1_555
N3A B1A 1_555 1_555
N5A B1A 1_555 1_555
N7A B1A 1_555 1_555
N10A C14A 1_555 1_555
N11A C15A 1_555 1_555
N13A C29A 1_555 1_555
N14A C30A 1_555 1_555
N19A B2A 1_555 1_555
N21A B2A 1_555 1_555
N23A B2A 1_555 1_555
C5A C6A 1_555 1_555
C8A C9A 1_555 1_555
C19A C20A 1_555 1_555
C27A C28A 1_555 1_555
C36A C37A 1_555 1_555
C39A C40A 1_555 1_555
C47A C48A 1_555 1_555
C55A C56A 1_555 1_555

#END
