
#######################################################################
#
#                 Cambridge Crystallographic Data Centre
#                                CCDC 
#
#######################################################################
#
# If this CIF has been generated from an entry in the Cambridge 
# Structural Database, then it will include bibliographic, chemical, 
# crystal, experimental, refinement or atomic coordinate data resulting 
# from the CCDC's data processing and validation procedures.
#
#######################################################################

data_DEBVOW
_symmetry_cell_setting           triclinic
_symmetry_space_group_name_H-M   'P -1'
_symmetry_Int_Tables_number      2
_space_group_name_Hall           '-P 1'
loop_
_symmetry_equiv_pos_site_id
_symmetry_equiv_pos_as_xyz
1 x,y,z
2 -x,-y,-z
_cell_length_a                   8.032(3)
_cell_length_b                   13.680(5)
_cell_length_c                   15.251(4)
_cell_angle_alpha                69.52(3)
_cell_angle_beta                 80.57(3)
_cell_angle_gamma                77.16(3)
_cell_volume                     1523.76
loop_
_atom_site_label
_atom_site_type_symbol
_atom_site_fract_x
_atom_site_fract_y
_atom_site_fract_z
Tl1 Tl 0.71842(3) 0.694246(17) 0.523792(14)
Tl2 Tl 0.97785(3) 0.849793(18) 0.667658(15)
O1 O 1.0225(5) 0.6576(4) 0.5961(3)
O2 O 1.3090(5) 0.6465(3) 0.5782(3)
O3 O 0.9231(5) 0.5844(4) 0.2285(3)
O4 O 0.7505(5) 0.6145(4) 0.3520(3)
O5 O 0.6764(5) 0.8642(3) 0.6062(3)
O6 O 0.3903(5) 0.9111(4) 0.6099(3)
H1 H 0.3642 0.9046 0.5409
O7 O 0.7903(5) 0.8831(4) 0.9928(3)
O8 O 0.9549(5) 0.8831(4) 0.8588(3)
O9 O 0.2754(5) 0.6504(4) 0.7379(3)
O10 O 0.5573(5) 0.6443(3) 0.7307(3)
O11 O 0.8159(5) 0.6261(4) 0.9879(3)
O12 O 0.6666(5) 0.6166(4) 1.1254(3)
O13 O 0.0550(6) 0.8526(4) 0.0887(3)
O14 O -0.0992(5) 0.8631(4) 0.2202(3)
H2 H -0.0939 0.8674 0.2725
O15 O 0.4254(5) 0.8838(3) 0.4576(3)
O16 O 0.1402(5) 0.9026(4) 0.4597(3)
N1 N 1.0408(6) 0.6184(4) 0.4292(3)
N2 N 0.6637(6) 0.8885(4) 0.7788(3)
N3 N 0.5287(6) 0.6359(4) 0.9121(3)
N4 N 0.1839(6) 0.8636(4) 0.2940(3)
C1 C 1.1656(7) 0.6434(4) 0.5527(4)
C2 C 1.1836(7) 0.6187(4) 0.4623(4)
C3 C 1.3481(7) 0.5950(4) 0.4183(4)
H3 H 1.4452 0.5980 0.4424
C4 C 1.3623(7) 0.5672(5) 0.3384(4)
H4 H 1.4695 0.5509 0.3078
C5 C 1.2160(7) 0.5640(5) 0.3047(4)
H5 H 1.2222 0.5429 0.2524
C6 C 1.0587(7) 0.5931(5) 0.3505(4)
C7 C 0.8928(7) 0.5975(5) 0.3119(4)
C8 C 0.5352(7) 0.8886(5) 0.6450(4)
C9 C 0.5174(7) 0.8954(4) 0.7431(4)
C10 C 0.3571(7) 0.9074(5) 0.7915(4)
H6 H 0.2591 0.9111 0.7646
C11 C 0.3457(7) 0.9140(5) 0.8820(4)
H7 H 0.2400 0.9209 0.9170
C12 C 0.4951(7) 0.9099(5) 0.9181(4)
H8 H 0.4915 0.9172 0.9768
C13 C 0.6513(7) 0.8947(5) 0.8648(4)
C14 C 0.8164(7) 0.8859(5) 0.9046(4)
C15 C 0.4148(7) 0.6455(5) 0.7728(4)
C16 C 0.3867(7) 0.6420(5) 0.8743(4)
C17 C 0.2224(7) 0.6466(5) 0.9212(4)
H9 H 0.1264 0.6546 0.8908
C18 C 0.2084(7) 0.6386(5) 1.0162(4)
H10 H 0.1022 0.6375 1.0513
C19 C 0.3523(7) 0.6323(5) 1.0575(4)
H11 H 0.3456 0.6287 1.1200
C20 C 0.5096(7) 0.6314(5) 1.0014(4)
C21 C 0.6704(7) 0.6237(5) 1.0434(4)
C22 C 0.0490(7) 0.8539(5) 0.1685(4)
C23 C 0.2080(7) 0.8466(5) 0.2110(4)
C24 C 0.3696(7) 0.8242(5) 0.1653(4)
H12 H 0.3803 0.8123 0.1080
C25 C 0.5131(7) 0.8197(5) 0.2060(4)
H13 H 0.6226 0.8035 0.1778
C26 C 0.4890(7) 0.8404(4) 0.2911(4)
H14 H 0.5824 0.8400 0.3202
C27 C 0.3229(7) 0.8617(5) 0.3314(4)
C28 C 0.2881(7) 0.8844(4) 0.4241(4)
O17 O 0.8426(5) 0.8836(3) 0.3909(3)
H15 H 0.9391 0.8971 0.4117
H16 H 0.7615 0.9311 0.3925
O18 O 0.8575(5) 0.6442(3) 0.8049(3)
H17 H 0.7645 0.6081 0.8553
H18 H 0.9377 0.5829 0.7837
Tl2_2 Tl -0.02215(3) 0.849793(18) 0.667658(15)
O16_2 O 1.1402(5) 0.9026(4) 0.4597(3)
loop_
_geom_bond_atom_site_label_1
_geom_bond_atom_site_label_2
_geom_bond_site_symmetry_1
_geom_bond_site_symmetry_2
Tl1 O1 1_555 1_555
Tl2 O1 1_555 1_555
O1 C1 1_555 1_555
O2 C1 1_555 1_555
O3 C7 1_555 1_555
O4 Tl1 1_555 1_555
O5 Tl1 1_555 1_555
O6 H1 1_555 1_555
O7 C14 1_555 1_555
O8 Tl2 1_555 1_555
O9 C15 1_555 1_555
O10 Tl1 1_555 1_555
O11 C21 1_555 1_555
O12 C21 1_555 1_555
O13 C22 1_555 1_555
O14 H2 1_555 1_555
O15 Tl1 1_555 1_555
O16 C28 1_555 1_555
N1 Tl1 1_555 1_555
N2 Tl2 1_555 1_555
N3 C16 1_555 1_555
N4 C23 1_555 1_555
C1 C2 1_555 1_555
C2 N1 1_555 1_555
C3 C2 1_555 1_555
H3 C3 1_555 1_555
C4 C3 1_555 1_555
H4 C4 1_555 1_555
C5 C4 1_555 1_555
H5 C5 1_555 1_555
C6 N1 1_555 1_555
C7 O4 1_555 1_555
C8 O5 1_555 1_555
C9 N2 1_555 1_555
C10 C9 1_555 1_555
H6 C10 1_555 1_555
C11 C10 1_555 1_555
H7 C11 1_555 1_555
C12 C11 1_555 1_555
H8 C12 1_555 1_555
C13 N2 1_555 1_555
C14 O8 1_555 1_555
C15 O10 1_555 1_555
C16 C15 1_555 1_555
C17 C16 1_555 1_555
H9 C17 1_555 1_555
C18 C17 1_555 1_555
H10 C18 1_555 1_555
C19 C18 1_555 1_555
H11 C19 1_555 1_555
C20 N3 1_555 1_555
C21 C20 1_555 1_555
C22 O14 1_555 1_555
C23 C22 1_555 1_555
C24 C23 1_555 1_555
H12 C24 1_555 1_555
C25 C24 1_555 1_555
H13 C25 1_555 1_555
C26 C25 1_555 1_555
H14 C26 1_555 1_555
C27 N4 1_555 1_555
C28 O15 1_555 1_555
O17 Tl1 1_555 1_555
H15 O17 1_555 1_555
H16 O17 1_555 1_555
O18 Tl2 1_555 1_555
H17 O18 1_555 1_555
H18 O18 1_555 1_555
Tl2_2 O16 1_555 1_555
O16_2 Tl2 1_555 1_555
Tl2 O5 1_555 1_555
O6 C8 1_555 1_555
C5 C6 1_555 1_555
C6 C7 1_555 1_555
C8 C9 1_555 1_555
C12 C13 1_555 1_555
C13 C14 1_555 1_555
C19 C20 1_555 1_555
C26 C27 1_555 1_555
C27 C28 1_555 1_555

#END
