
#######################################################################
#
#                 Cambridge Crystallographic Data Centre
#                                CCDC 
#
#######################################################################
#
# If this CIF has been generated from an entry in the Cambridge 
# Structural Database, then it will include bibliographic, chemical, 
# crystal, experimental, refinement or atomic coordinate data resulting 
# from the CCDC's data processing and validation procedures.
#
#######################################################################

data_DEBWUD
_symmetry_cell_setting           triclinic
_symmetry_space_group_name_H-M   'P -1'
_symmetry_Int_Tables_number      2
_space_group_name_Hall           '-P 1'
loop_
_symmetry_equiv_pos_site_id
_symmetry_equiv_pos_as_xyz
1 x,y,z
2 -x,-y,-z
_cell_length_a                   7.913(2)
_cell_length_b                   8.945(2)
_cell_length_c                   13.985(3)
_cell_angle_alpha                104.36(3)
_cell_angle_beta                 99.74(3)
_cell_angle_gamma                106.78(3)
_cell_volume                     886.648
loop_
_atom_site_label
_atom_site_type_symbol
_atom_site_fract_x
_atom_site_fract_y
_atom_site_fract_z
Zn1 Zn 0.34600(5) -0.54356(5) 0.21056(3)
Cl1 Cl 0.47276(13) -0.47948(11) 0.37506(7)
O1 O 0.0684(3) -0.6016(3) 0.18482(19)
N1 N 0.0673(4) -0.1401(4) 0.1923(2)
Cl2 Cl 0.42357(12) -0.35930(10) 0.12868(6)
C1 C 0.0288(5) -0.2432(4) 0.0971(3)
N2 N 0.0866(4) -0.2083(4) 0.0150(2)
C2 C 0.1880(5) -0.0462(4) 0.0402(3)
C3 C 0.2284(4) 0.0743(4) 0.1338(3)
N3 N 0.2109(4) 0.1225(4) 0.3104(2)
H1 H 0.2775 0.2264 0.3234
C4 C 0.1698(5) 0.0208(4) 0.2145(3)
N4 N 0.3258(4) 0.2274(4) 0.1260(2)
N5 N -0.0805(4) -0.4011(4) 0.0792(2)
H2 H -0.1085 -0.4708 0.0173
C5 C 0.3432(5) 0.1955(4) 0.0315(3)
H3 H 0.4036 0.2773 0.0045
N6 N 0.2652(4) 0.0325(4) -0.0232(2)
C6 C 0.1507(5) 0.0700(5) 0.3954(3)
H4 H 0.2489 0.1305 0.4594
H5 H 0.1302 -0.0488 0.3813
C7 C -0.0240(5) 0.1008(4) 0.4100(3)
C8 C -0.1950(5) -0.0202(5) 0.3643(3)
H6 H -0.2042 -0.1257 0.3233
C9 C -0.3538(6) 0.0114(5) 0.3780(3)
H7 H -0.4703 -0.0721 0.3470
C10 C -0.3393(6) 0.1672(5) 0.4378(3)
H8 H -0.4466 0.1906 0.4462
C11 C -0.1698(6) 0.2874(5) 0.4847(3)
H9 H -0.1612 0.3922 0.5265
C12 C -0.0111(5) 0.2564(5) 0.4713(3)
H10 H 0.1051 0.3399 0.5034
C13 C 0.2722(5) -0.0436(4) -0.1284(3)
H11 H 0.3340 0.0424 -0.1553
H12 H 0.1476 -0.1039 -0.1719
H13 H 0.3396 -0.1198 -0.1278
C14 C -0.1542(5) -0.4614(4) 0.1568(3)
H14 H -0.2573 -0.5664 0.1224
H15 H -0.2031 -0.3812 0.1942
C15 C -0.0142(5) -0.4892(4) 0.2340(3)
H16 H 0.0827 -0.3824 0.2739
H17 H -0.0752 -0.5340 0.2822
H18 H 0.007(7) -0.672(6) 0.119(3)
Zn1_2 Zn 0.34600(5) 0.45644(5) 0.21056(3)
N4_2 N 0.3258(4) -0.7726(4) 0.1260(2)
loop_
_geom_bond_atom_site_label_1
_geom_bond_atom_site_label_2
_geom_bond_site_symmetry_1
_geom_bond_site_symmetry_2
Zn1 Cl1 1_555 1_555
O1 Zn1 1_555 1_555
N1 C1 1_555 1_555
Cl2 Zn1 1_555 1_555
C1 N2 1_555 1_555
N2 C2 1_555 1_555
C2 C3 1_555 1_555
C3 C4 1_555 1_555
N3 H1 1_555 1_555
C4 N1 1_555 1_555
N4 C3 1_555 1_555
N5 C1 1_555 1_555
H2 N5 1_555 1_555
C5 N4 1_555 1_555
H3 C5 1_555 1_555
N6 C2 1_555 1_555
C6 N3 1_555 1_555
H4 C6 1_555 1_555
H5 C6 1_555 1_555
C7 C6 1_555 1_555
C8 C7 1_555 1_555
H6 C8 1_555 1_555
C9 C8 1_555 1_555
H7 C9 1_555 1_555
C10 C9 1_555 1_555
H8 C10 1_555 1_555
C11 C10 1_555 1_555
H9 C11 1_555 1_555
C12 C7 1_555 1_555
H10 C12 1_555 1_555
C13 N6 1_555 1_555
H11 C13 1_555 1_555
H12 C13 1_555 1_555
H13 C13 1_555 1_555
C14 N5 1_555 1_555
H14 C14 1_555 1_555
H15 C14 1_555 1_555
C15 O1 1_555 1_555
H16 C15 1_555 1_555
H17 C15 1_555 1_555
H18 O1 1_555 1_555
Zn1_2 N4 1_555 1_555
N4_2 Zn1 1_555 1_555
N3 C4 1_555 1_555
C5 N6 1_555 1_555
C11 C12 1_555 1_555
C14 C15 1_555 1_555

#END
