
#######################################################################
#
#                 Cambridge Crystallographic Data Centre
#                                CCDC 
#
#######################################################################
#
# If this CIF has been generated from an entry in the Cambridge 
# Structural Database, then it will include bibliographic, chemical, 
# crystal, experimental, refinement or atomic coordinate data resulting 
# from the CCDC's data processing and validation procedures.
#
#######################################################################

data_DECBEU
_symmetry_cell_setting           monoclinic
_symmetry_space_group_name_H-M   'C 2/c'
_symmetry_Int_Tables_number      15
_space_group_name_Hall           '-C 2yn'
loop_
_symmetry_equiv_pos_site_id
_symmetry_equiv_pos_as_xyz
1 x,y,z
2 -x,y,1/2-z
3 1/2+x,1/2+y,z
4 1/2-x,1/2+y,1/2-z
5 -x,-y,-z
6 x,-y,1/2+z
7 1/2-x,1/2-y,-z
8 1/2+x,1/2-y,1/2+z
_cell_length_a                   21.7429(19)
_cell_length_b                   6.6130(5)
_cell_length_c                   16.5224(12)
_cell_angle_alpha                90
_cell_angle_beta                 101.430(4)
_cell_angle_gamma                90
_cell_volume                     2328.57
loop_
_atom_site_label
_atom_site_type_symbol
_atom_site_fract_x
_atom_site_fract_y
_atom_site_fract_z
O1 O -0.20609(17) 0.0826(6) 0.0765(2)
O2 O 0.3193(3) 0.3222(6) 0.2374(3)
O3 O -0.18380(18) -0.1866(5) 0.0115(2)
C1 C -0.1777(2) 0.0011(8) 0.0267(3)
Cd1 Cd 0.248969(15) 0.28835(5) 0.11479(2)
O4 O 0.16952(15) 0.4951(6) 0.1584(2)
C2 C 0.0315(2) 0.2988(8) 0.1609(4)
C3 C -0.0761(3) 0.1883(8) 0.0459(4)
O5 O 0.17113(19) 0.1714(6) 0.1828(3)
C4 C 0.0893(2) 0.3590(11) 0.2235(3)
H1 H 0.0849 0.4972 0.2412
H2 H 0.0935 0.2720 0.2716
C5 C 0.1474(2) 0.3413(8) 0.1865(3)
C6 C -0.0058(3) 0.4430(9) 0.1145(4)
H3 H 0.0053 0.5787 0.1210
C7 C -0.0592(2) 0.3896(9) 0.0587(4)
H4 H -0.0842 0.4898 0.0292
C8 C -0.1352(2) 0.1268(9) -0.0152(3)
H5 H -0.1575 0.2470 -0.0386
H6 H -0.1237 0.0497 -0.0599
O6 O 0.2827(3) -0.0449(7) 0.1334(3)
C9 C 0.0149(3) 0.0986(9) 0.1474(4)
H7 H 0.0400 -0.0015 0.1767
C10 C -0.0386(2) 0.0438(9) 0.0910(4)
H8 H -0.0493 -0.0921 0.0837
O1B O 0.29391(17) 0.5826(6) 0.0765(2)
O3D O 0.18380(18) 0.1866(5) -0.0115(2)
O3B O 0.31620(18) 0.3134(5) 0.0115(2)
Cd1B Cd -0.251031(15) -0.21165(5) 0.11479(2)
Cd1D Cd -0.248969(15) -0.28835(5) -0.11479(2)
loop_
_geom_bond_atom_site_label_1
_geom_bond_atom_site_label_2
_geom_bond_site_symmetry_1
_geom_bond_site_symmetry_2
O1 C1 1_555 1_555
O2 Cd1 1_555 1_555
O3 C1 1_555 1_555
C1 C8 1_555 1_555
Cd1 O4 1_555 1_555
O4 C5 1_555 1_555
C2 C4 1_555 1_555
C3 C7 1_555 1_555
O5 Cd1 1_555 1_555
C4 H1 1_555 1_555
H2 C4 1_555 1_555
C5 O5 1_555 1_555
C6 C2 1_555 1_555
H3 C6 1_555 1_555
C7 C6 1_555 1_555
H4 C7 1_555 1_555
C8 C3 1_555 1_555
H5 C8 1_555 1_555
H6 C8 1_555 1_555
O6 Cd1 1_555 1_555
C9 C2 1_555 1_555
H7 C9 1_555 1_555
C10 C3 1_555 1_555
H8 C10 1_555 1_555
O1B Cd1 1_555 1_555
O3D Cd1 1_555 1_555
O3B Cd1 1_555 1_555
Cd1B O1 1_555 1_555
Cd1D O3 1_555 1_555
O3 Cd1B 1_555 1_555
C4 C5 1_555 1_555
C9 C10 1_555 1_555

#END
