
#######################################################################
#
#                 Cambridge Crystallographic Data Centre
#                                CCDC 
#
#######################################################################
#
# If this CIF has been generated from an entry in the Cambridge 
# Structural Database, then it will include bibliographic, chemical, 
# crystal, experimental, refinement or atomic coordinate data resulting 
# from the CCDC's data processing and validation procedures.
#
#######################################################################

data_DECBAQ
_symmetry_cell_setting           monoclinic
_symmetry_space_group_name_H-M   'P 21/n'
_symmetry_Int_Tables_number      14
_space_group_name_Hall           '-P 2yn'
loop_
_symmetry_equiv_pos_site_id
_symmetry_equiv_pos_as_xyz
1 x,y,z
2 1/2-x,1/2+y,1/2-z
3 -x,-y,-z
4 1/2+x,1/2-y,1/2+z
_cell_length_a                   7.172(3)
_cell_length_b                   9.907(4)
_cell_length_c                   12.211(4)
_cell_angle_alpha                90
_cell_angle_beta                 105.301(7)
_cell_angle_gamma                90
_cell_volume                     836.873
loop_
_atom_site_label
_atom_site_type_symbol
_atom_site_fract_x
_atom_site_fract_y
_atom_site_fract_z
Co1 Co 0.48815(8) 0.71505(6) 0.23377(5)
V1 V 0.32549(10) 0.47930(7) 0.39651(6)
V2 V 0.82527(10) 0.47925(7) 0.39671(6)
C1 C 0.4939(7) 0.4506(5) 0.1000(4)
H1 H 0.4903 0.4122 0.1690
C2 C 0.5159(7) 0.3678(5) 0.0142(4)
H2 H 0.5265 0.2753 0.0274
N1 N 0.4773(5) 0.5858(4) 0.0877(3)
O1 O 0.3176(4) 0.5797(3) 0.2881(2)
O2 O 0.7327(4) 0.6070(3) 0.3130(3)
O3 O 0.6681(4) 0.8439(3) 0.1801(2)
O4 O 0.2509(4) 0.8258(3) 0.1486(3)
O5 O 0.5954(4) 0.4478(3) 0.4472(2)
O6 O 0.0909(4) 0.5278(3) 0.4358(2)
O7 O 0.5096(6) 0.8355(4) 0.3788(3)
H3 H 0.464(9) 0.814(5) 0.435(4)
H4 H 0.529(9) 0.9210(19) 0.386(5)
Co1B Co 0.51185(8) 0.28495(6) -0.23377(5)
Co1A Co 0.01185(8) 0.21505(6) 0.26623(5)
Co1A_2 Co 1.01185(8) 0.21505(6) 0.26623(5)
V1A V 0.17451(10) 0.97930(7) 0.10349(6)
V1B V 0.67451(10) 0.52070(7) 0.60349(6)
V1_2 V 1.32549(10) 0.47930(7) 0.39651(6)
V1B_2 V 0.67451(10) 0.52070(7) -0.39651(6)
V2A V 0.67473(10) 0.97925(7) 0.10329(6)
V2_2 V -0.17473(10) 0.47925(7) 0.39671(6)
V2B V 0.17473(10) 0.52075(7) 0.60329(6)
V2B_2 V 1.17473(10) 0.52075(7) 0.60329(6)
V2B_3 V 0.17473(10) 0.52075(7) -0.39671(6)
C1B C 0.5061(7) 0.5494(5) -0.1000(4)
H1B H 0.5097 0.5878 -0.1690
C2B C 0.4841(7) 0.6322(5) -0.0142(4)
H2B H 0.4735 0.7247 -0.0274
N1B N 0.5227(5) 0.4142(4) -0.0877(3)
O1B O 0.6824(4) 0.4203(3) -0.2881(2)
O1A O 0.1824(4) 1.0797(3) 0.2119(2)
O2B O 0.2673(4) 0.3930(3) -0.3130(3)
O2A O 0.7673(4) 1.1070(3) 0.1870(3)
O3A O 0.8319(4) 0.3439(3) 0.3199(2)
O3B O 0.3319(4) 0.1561(3) -0.1801(2)
O4A O 0.2491(4) 0.3258(3) 0.3514(3)
O4B O 0.7491(4) 0.1742(3) -0.1486(3)
O5B O 0.4046(4) 0.5522(3) 0.5528(2)
O5A O -0.0954(4) 0.9478(3) 0.0528(2)
O5C O 0.0954(4) 1.0522(3) -0.0528(2)
O5A_2 O 0.9046(4) 0.9478(3) 0.0528(2)
O6_2 O 1.0909(4) 0.5278(3) 0.4358(2)
O6B O 0.9091(4) 0.4722(3) 0.5642(2)
O6A O 0.4091(4) 1.0278(3) 0.0642(2)
O6C O 0.5909(4) 0.9722(3) -0.0642(2)
O7B O 0.4904(6) 0.1645(4) -0.3788(3)
H3B H 0.536(9) 0.186(5) -0.435(4)
H4B H 0.471(9) 0.0790(19) -0.386(5)
O8 O 0.5571(6) 0.1145(4) 0.3882(4)
H5 H 0.438(4) 0.132(10) 0.369(7)
H6 H 0.606(10) 0.143(9) 0.337(5)
loop_
_geom_bond_atom_site_label_1
_geom_bond_atom_site_label_2
_geom_bond_site_symmetry_1
_geom_bond_site_symmetry_2
Co1 N1 1_555 1_555
V1 O1 1_555 1_555
V2 O2 1_555 1_555
C1 H1 1_555 1_555
C2 C1 1_555 1_555
H2 C2 1_555 1_555
N1 C1 1_555 1_555
O1 Co1 1_555 1_555
O2 Co1 1_555 1_555
O3 Co1 1_555 1_555
O4 Co1 1_555 1_555
O5 V1 1_555 1_555
O6 V1 1_555 1_555
O7 Co1 1_555 1_555
H3 O7 1_555 1_555
H4 O7 1_555 1_555
O8 H5 1_555 1_555
H6 O8 1_555 1_555
Co1B N1B 1_555 1_555
Co1A O4A 1_555 1_555
Co1A_2 O3A 1_555 1_555
V1A O4 1_555 1_555
V1B O5 1_555 1_555
V1_2 O6_2 1_555 1_555
V1B_2 O1B 1_555 1_555
V2A O3 1_555 1_555
V2_2 O6 1_555 1_555
V2B O6 1_555 1_555
V2B_2 O6_2 1_555 1_555
V2B_3 O2B 1_555 1_555
C1B H1B 1_555 1_555
C2B N1 1_555 1_555
H2B C2B 1_555 1_555
N1B C2 1_555 1_555
O1B Co1B 1_555 1_555
O1A V1A 1_555 1_555
O2B Co1B 1_555 1_555
O2A V2A 1_555 1_555
O3A V2 1_555 1_555
O3B Co1B 1_555 1_555
O4A V1 1_555 1_555
O4B Co1B 1_555 1_555
O5B V1 1_555 1_555
O5A V1A 1_555 1_555
O5C V1A 1_555 1_555
O5A_2 V2A 1_555 1_555
O6_2 V2 1_555 1_555
O6B V2 1_555 1_555
O6A V1A 1_555 1_555
O6C V2A 1_555 1_555
O7B Co1B 1_555 1_555
H3B O7B 1_555 1_555
H4B O7B 1_555 1_555
V2 O5 1_555 1_555
V1B O5B 1_555 1_555
V1B O6B 1_555 1_555
V2A O6A 1_555 1_555
V2B O5B 1_555 1_555
V2B_2 O6B 1_555 1_555
C1B C2B 1_555 1_555
C1B N1B 1_555 1_555

#END
