
#######################################################################
#
#                 Cambridge Crystallographic Data Centre
#                                CCDC 
#
#######################################################################
#
# If this CIF has been generated from an entry in the Cambridge 
# Structural Database, then it will include bibliographic, chemical, 
# crystal, experimental, refinement or atomic coordinate data resulting 
# from the CCDC's data processing and validation procedures.
#
#######################################################################

data_DECCOE
_symmetry_cell_setting           triclinic
_symmetry_space_group_name_H-M   'P -1'
_symmetry_Int_Tables_number      2
_space_group_name_Hall           '-P 1'
loop_
_symmetry_equiv_pos_site_id
_symmetry_equiv_pos_as_xyz
1 x,y,z
2 -x,-y,-z
_cell_length_a                   8.3075(13)
_cell_length_b                   9.4725(13)
_cell_length_c                   10.019(4)
_cell_angle_alpha                91.088(6)
_cell_angle_beta                 104.063(7)
_cell_angle_gamma                101.88
_cell_volume                     746.432
loop_
_atom_site_label
_atom_site_type_symbol
_atom_site_fract_x
_atom_site_fract_y
_atom_site_fract_z
Cu1 Cu 0.0000 0.0000 0.0000
O1 O -0.2713(3) 0.0468(3) 0.0451(3)
O2 O -0.3610(4) 0.2197(3) 0.1256(4)
O3 O -0.3321(5) 0.0348(5) 0.2443(4)
N1 N 0.0687(3) 0.2070(2) -0.0449(2)
N2 N 0.0386(3) 0.4121(3) -0.1355(2)
N3 N -0.1316(3) -0.0446(2) -0.1970(2)
N4 N -0.3336(3) -0.1151(3) -0.3862(2)
N5 N -0.3197(4) 0.1039(4) 0.1376(4)
C1 C -0.0406(4) 0.2833(3) -0.1046(3)
H1 H -0.1605 0.2513 -0.1235
C2 C 0.2091(4) 0.4176(3) -0.0942(3)
H2 H 0.2980 0.4952 -0.1028
C3 C 0.2268(4) 0.2907(3) -0.0385(3)
H3 H 0.3319 0.2639 -0.0010
C4 C -0.0412(5) 0.5152(3) -0.2201(3)
H4 H 0.0096 0.6144 -0.1770
H5 H -0.1641 0.4947 -0.2239
C5 C -0.0186(4) 0.5070(3) -0.3652(3)
C6 C 0.0215(5) 0.6312(3) -0.4303(3)
C7 C -0.0396(5) 0.3755(3) -0.4365(3)
C8 C -0.2927(4) -0.1061(3) -0.2481(3)
H6 H -0.3702 -0.1399 -0.1940
C9 C -0.1905(4) -0.0547(4) -0.4255(3)
H7 H -0.1802 -0.0450 -0.5174
C10 C -0.0661(4) -0.0113(3) -0.3090(3)
H8 H 0.0482 0.0347 -0.3049
C11 C -0.4971(4) -0.1930(3) -0.4757(3)
H9 H -0.5141 -0.1541 -0.5679
H10 H -0.5909 -0.1780 -0.4359
C12 C -0.5014(4) -0.3535(3) -0.4901(3)
C13 C -0.5466(5) -0.4413(4) -0.3924(4)
C14 C -0.4544(5) -0.4123(4) -0.5986(4)
H11 H -0.582(4) -0.403(4) -0.324(4)
H12 H -0.422(5) -0.350(4) -0.668(4)
H13 H 0.033(4) 0.719(4) -0.383(3)
H14 H -0.068(4) 0.291(4) -0.395(4)
Cu1_2 Cu 0.0000 1.0000 -1.0000
Cu1_3 Cu -1.0000 -1.0000 -1.0000
O1A O 0.2713(3) -0.0468(3) -0.0451(3)
O2A O 0.3610(4) -0.2197(3) -0.1256(4)
O3A O 0.3321(5) -0.0348(5) -0.2443(4)
N1A N -0.0687(3) 0.7930(2) -0.9551(2)
N1A_2 N -0.0687(3) -0.2070(2) 0.0449(2)
N2A N -0.0386(3) 0.5879(3) -0.8645(2)
N3A N -0.8684(3) -0.9554(2) -0.8030(2)
N3A_2 N 0.1316(3) 0.0446(2) 0.1970(2)
N4A N -0.6664(3) -0.8849(3) -0.6138(2)
N5A N 0.3197(4) -0.1039(4) -0.1376(4)
C1A C 0.0406(4) 0.7167(3) -0.8954(3)
H1A H 0.1605 0.7487 -0.8765
C2A C -0.2091(4) 0.5824(3) -0.9058(3)
H2A H -0.2980 0.5048 -0.8972
C3A C -0.2268(4) 0.7093(3) -0.9615(3)
H3A H -0.3319 0.7361 -0.9990
C4A C 0.0412(5) 0.4848(3) -0.7799(3)
H4A H -0.0096 0.3856 -0.8230
H5A H 0.1641 0.5053 -0.7761
C5A C 0.0186(4) 0.4930(3) -0.6348(3)
C6A C -0.0215(5) 0.3688(3) -0.5697(3)
C7A C 0.0396(5) 0.6245(3) -0.5635(3)
C8A C -0.7073(4) -0.8939(3) -0.7519(3)
H6A H -0.6298 -0.8601 -0.8060
C9A C -0.8095(4) -0.9453(4) -0.5745(3)
H7A H -0.8198 -0.9550 -0.4826
C10A C -0.9339(4) -0.9887(3) -0.6910(3)
H8A H -1.0482 -1.0347 -0.6951
C11A C -0.5029(4) -0.8070(3) -0.5243(3)
H9A H -0.4859 -0.8459 -0.4321
H10A H -0.4091 -0.8220 -0.5641
C12A C -0.4986(4) -0.6465(3) -0.5099(3)
C13A C -0.4534(5) -0.5587(4) -0.6076(4)
C14A C -0.5456(5) -0.5877(4) -0.4014(4)
H11A H -0.418(4) -0.597(4) -0.676(4)
H12A H -0.578(5) -0.650(4) -0.332(4)
H13A H -0.033(4) 0.281(4) -0.617(3)
H14A H 0.068(4) 0.709(4) -0.605(4)
O4 O -0.5542(11) -0.2184(11) 0.1514(12)
loop_
_geom_bond_atom_site_label_1
_geom_bond_atom_site_label_2
_geom_bond_site_symmetry_1
_geom_bond_site_symmetry_2
Cu1 O1 1_555 1_555
O1 N5 1_555 1_555
O2 N5 1_555 1_555
O3 N5 1_555 1_555
N1 Cu1 1_555 1_555
N2 C1 1_555 1_555
N3 Cu1 1_555 1_555
N4 C8 1_555 1_555
C1 N1 1_555 1_555
H1 C1 1_555 1_555
C2 N2 1_555 1_555
H2 C2 1_555 1_555
C3 N1 1_555 1_555
H3 C3 1_555 1_555
C4 N2 1_555 1_555
H4 C4 1_555 1_555
H5 C4 1_555 1_555
C5 C4 1_555 1_555
C6 C5 1_555 1_555
C7 C5 1_555 1_555
C8 N3 1_555 1_555
H6 C8 1_555 1_555
C9 N4 1_555 1_555
H7 C9 1_555 1_555
C10 N3 1_555 1_555
H8 C10 1_555 1_555
C11 N4 1_555 1_555
H9 C11 1_555 1_555
H10 C11 1_555 1_555
C12 C11 1_555 1_555
C13 C12 1_555 1_555
C14 C12 1_555 1_555
H11 C13 1_555 1_555
H12 C14 1_555 1_555
H13 C6 1_555 1_555
H14 C7 1_555 1_555
Cu1_2 N1A 1_555 1_555
Cu1_3 N3A 1_555 1_555
O1A Cu1 1_555 1_555
O2A N5A 1_555 1_555
O3A N5A 1_555 1_555
N1A C1A 1_555 1_555
N1A_2 Cu1 1_555 1_555
N2A C1A 1_555 1_555
N3A C8A 1_555 1_555
N3A_2 Cu1 1_555 1_555
N4A C8A 1_555 1_555
N5A O1A 1_555 1_555
C1A H1A 1_555 1_555
C2A N2A 1_555 1_555
H2A C2A 1_555 1_555
C3A N1A 1_555 1_555
H3A C3A 1_555 1_555
C4A N2A 1_555 1_555
H4A C4A 1_555 1_555
H5A C4A 1_555 1_555
C5A C4A 1_555 1_555
C6A C7 1_555 1_555
C7A C6 1_555 1_555
C8A H6A 1_555 1_555
C9A N4A 1_555 1_555
H7A C9A 1_555 1_555
C10A N3A 1_555 1_555
H8A C10A 1_555 1_555
C11A N4A 1_555 1_555
H9A C11A 1_555 1_555
H10A C11A 1_555 1_555
C12A C11A 1_555 1_555
C13A C14 1_555 1_555
C14A C13 1_555 1_555
H11A C13A 1_555 1_555
H12A C14A 1_555 1_555
H13A C6A 1_555 1_555
H14A C7A 1_555 1_555
C2 C3 1_555 1_555
C9 C10 1_555 1_555
C2A C3A 1_555 1_555
C5A C6A 1_555 1_555
C5A C7A 1_555 1_555
C9A C10A 1_555 1_555
C12A C13A 1_555 1_555
C12A C14A 1_555 1_555

#END
