
#######################################################################
#
#                 Cambridge Crystallographic Data Centre
#                                CCDC 
#
#######################################################################
#
# If this CIF has been generated from an entry in the Cambridge 
# Structural Database, then it will include bibliographic, chemical, 
# crystal, experimental, refinement or atomic coordinate data resulting 
# from the CCDC's data processing and validation procedures.
#
#######################################################################

data_DECFUO
_symmetry_cell_setting           monoclinic
_symmetry_space_group_name_H-M   'P 21/n'
_symmetry_Int_Tables_number      14
_space_group_name_Hall           '-P 2yn'
loop_
_symmetry_equiv_pos_site_id
_symmetry_equiv_pos_as_xyz
1 x,y,z
2 1/2-x,1/2+y,1/2-z
3 -x,-y,-z
4 1/2+x,1/2-y,1/2+z
_cell_length_a                   8.861(3)
_cell_length_b                   20.862(6)
_cell_length_c                   13.493(4)
_cell_angle_alpha                90
_cell_angle_beta                 101.715(4)
_cell_angle_gamma                90
_cell_volume                     2442.33
loop_
_atom_site_label
_atom_site_type_symbol
_atom_site_fract_x
_atom_site_fract_y
_atom_site_fract_z
Hg1 Hg 0.42125(4) 0.798603(19) 0.49678(3)
Hg2 Hg 0.22355(6) 0.65879(2) 0.28907(4)
Br1 Br 0.36741(13) 0.77446(5) 0.29620(8)
Br2 Br 0.65557(12) 0.86907(5) 0.57293(8)
Br3 Br 0.41488(19) 0.57418(6) 0.34384(11)
Br4 Br -0.03654(17) 0.67730(8) 0.32731(12)
N1 N 0.5548(9) 0.6989(4) 0.5336(6)
N2 N 0.2873(9) 0.7296(4) 0.5841(7)
C1 C 0.0796(11) 0.8042(5) 0.5180(9)
H1 H 0.0494 0.7822 0.4537
H2 H -0.0119 0.8240 0.5334
C2 C 0.4895(10) 0.6562(4) 0.5880(7)
C3 C 0.3343(11) 0.6733(5) 0.6054(8)
C4 C 0.1394(11) 0.7551(5) 0.5991(9)
H3 H 0.1527 0.7748 0.6654
H4 H 0.0655 0.7204 0.5958
C5 C 0.7712(11) 0.6299(5) 0.5466(9)
H5 H 0.8662 0.6216 0.5300
C6 C 0.5613(11) 0.5999(5) 0.6210(7)
H6 H 0.5136 0.5703 0.6561
C7 C 0.7073(12) 0.5874(5) 0.6012(9)
H7 H 0.7599 0.5502 0.6254
C8 C 0.6926(11) 0.6859(5) 0.5160(8)
H8 H 0.7393 0.7161 0.4812
C9 C 0.2464(10) 0.6233(4) 0.6501(8)
C10 C 0.2046(11) 0.5664(5) 0.5957(8)
H9 H 0.2307 0.5603 0.5329
C11 C 0.2095(11) 0.6299(5) 0.7434(8)
H10 H 0.2380 0.6670 0.7807
C12 C 0.1254(12) 0.5198(5) 0.6353(9)
H11 H 0.0960 0.4825 0.5986
C13 C 0.0887(12) 0.5275(6) 0.7292(10)
H12 H 0.0357 0.4956 0.7560
C14 C 0.1309(13) 0.5826(6) 0.7826(9)
H13 H 0.1064 0.5880 0.8459
C15 C 0.2248(11) 0.8978(5) 0.5971(8)
H14 H 0.3088 0.9261 0.5898
H15 H 0.2610 0.8714 0.6563
C16 C 0.0940(13) 0.9387(6) 0.6175(10)
H16 H 0.0550 0.9648 0.5593
H17 H 0.1306 0.9658 0.6749
H18 H 0.0132 0.9116 0.6313
C17 C 0.2403(13) 0.9438(6) 0.3930(9)
H19 H 0.2582 0.9725 0.4498
H20 H 0.1950 0.9671 0.3329
H21 H 0.3363 0.9254 0.3849
N3 N 0.1914(8) 0.8552(4) 0.5072(6)
C18 C 0.1331(12) 0.8916(5) 0.4108(8)
H22 H 0.1185 0.8620 0.3543
H23 H 0.0336 0.9102 0.4134
Hg2C Hg 0.72355(6) 0.84121(2) 0.78907(4)
Br2C Br 0.15557(12) 0.63093(5) 0.07293(8)
loop_
_geom_bond_atom_site_label_1
_geom_bond_atom_site_label_2
_geom_bond_site_symmetry_1
_geom_bond_site_symmetry_2
Hg1 Br1 1_555 1_555
Hg2 Br1 1_555 1_555
Br2 Hg1 1_555 1_555
Br3 Hg2 1_555 1_555
Br4 Hg2 1_555 1_555
N1 Hg1 1_555 1_555
N2 Hg1 1_555 1_555
C1 H1 1_555 1_555
H2 C1 1_555 1_555
C2 N1 1_555 1_555
C3 N2 1_555 1_555
C4 N2 1_555 1_555
H3 C4 1_555 1_555
H4 C4 1_555 1_555
C5 H5 1_555 1_555
C6 C2 1_555 1_555
H6 C6 1_555 1_555
C7 C5 1_555 1_555
H7 C7 1_555 1_555
C8 N1 1_555 1_555
H8 C8 1_555 1_555
C9 C3 1_555 1_555
C10 C9 1_555 1_555
H9 C10 1_555 1_555
C11 C9 1_555 1_555
H10 C11 1_555 1_555
C12 C10 1_555 1_555
H11 C12 1_555 1_555
C13 C12 1_555 1_555
H12 C13 1_555 1_555
C14 C11 1_555 1_555
H13 C14 1_555 1_555
C15 H14 1_555 1_555
H15 C15 1_555 1_555
C16 C15 1_555 1_555
H16 C16 1_555 1_555
H17 C16 1_555 1_555
H18 C16 1_555 1_555
C17 H19 1_555 1_555
H20 C17 1_555 1_555
H21 C17 1_555 1_555
N3 Hg1 1_555 1_555
C18 C17 1_555 1_555
H22 C18 1_555 1_555
H23 C18 1_555 1_555
Hg2C Br2 1_555 1_555
Br2C Hg2 1_555 1_555
C1 C4 1_555 1_555
C1 N3 1_555 1_555
C2 C3 1_555 1_555
C5 C8 1_555 1_555
C6 C7 1_555 1_555
C13 C14 1_555 1_555
C15 N3 1_555 1_555
N3 C18 1_555 1_555

#END
