
#######################################################################
#
#                 Cambridge Crystallographic Data Centre
#                                CCDC 
#
#######################################################################
#
# If this CIF has been generated from an entry in the Cambridge 
# Structural Database, then it will include bibliographic, chemical, 
# crystal, experimental, refinement or atomic coordinate data resulting 
# from the CCDC's data processing and validation procedures.
#
#######################################################################

data_DECMOO
_symmetry_cell_setting           monoclinic
_symmetry_space_group_name_H-M   'C 2/m'
_symmetry_Int_Tables_number      12
_space_group_name_Hall           '-C 2y'
loop_
_symmetry_equiv_pos_site_id
_symmetry_equiv_pos_as_xyz
1 x,y,z
2 1/2+x,1/2+y,z
3 -x,y,-z
4 1/2-x,1/2+y,-z
5 -x,-y,-z
6 1/2-x,1/2-y,-z
7 x,-y,z
8 1/2+x,1/2-y,z
_cell_length_a                   12.4623(14)
_cell_length_b                   18.273(2)
_cell_length_c                   7.4106(8)
_cell_angle_alpha                90
_cell_angle_beta                 92.986(4)
_cell_angle_gamma                90
_cell_volume                     1685.28
loop_
_atom_site_label
_atom_site_type_symbol
_atom_site_fract_x
_atom_site_fract_y
_atom_site_fract_z
Ag1 Ag -0.5000 0.17654(2) 0.5000
C3 C -0.2917(3) 0.21737(19) 0.2929(5)
H1 H -0.2823 0.1674 0.3118
C4 C -0.2094(3) 0.2560(2) 0.2227(4)
H2 H -0.1463 0.2324 0.1949
C5 C -0.2206(3) 0.3306(2) 0.1933(4)
C6 C -0.3170(2) 0.36207(18) 0.2366(4)
H3 H -0.3284 0.4119 0.2188
C7 C -0.3957(2) 0.31938(17) 0.3059(4)
H4 H -0.4599 0.3417 0.3335
C8 C -0.1307(3) 0.3753(3) 0.1254(6)
H5 H -0.1594 0.4150 0.0509
H6 H -0.0860 0.3450 0.0522
N1 N -0.38501(18) 0.24755(14) 0.3357(4)
N2 N -0.0659(2) 0.40493(16) 0.2810(5)
H7 H -0.9904 0.4289 0.7621
H8 H -0.8938 0.4383 0.6643
Ag1G Ag -1.0000 0.32346(2) 0.5000
Ag1G_2 Ag 0.0000 0.32346(2) 0.5000
C3B C -0.7083(3) 0.21737(19) 0.7071(5)
H1B H -0.7177 0.1674 0.6882
C4B C -0.7906(3) 0.2560(2) 0.7773(4)
H2B H -0.8537 0.2324 0.8051
C5B C -0.7794(3) 0.3306(2) 0.8067(4)
C6B C -0.6830(2) 0.36207(18) 0.7634(4)
H3B H -0.6716 0.4119 0.7812
C7B C -0.6043(2) 0.31938(17) 0.6941(4)
H4B H -0.5401 0.3417 0.6665
C8B C -0.8693(3) 0.3753(3) 0.8746(6)
H5B H -0.8406 0.4150 0.9491
H6B H -0.9140 0.3450 0.9478
N1B N -0.61499(18) 0.24755(14) 0.6643(4)
N2G N -0.5659(2) 0.09507(16) 0.2810(5)
N2E N -0.4341(2) 0.09507(16) 0.7190(5)
N2B N -0.9341(2) 0.40493(16) 0.7190(5)
H7G H -0.4904 0.0711 0.7621
H7B H -0.0096 0.4289 0.2379
H7E H -0.5096 0.0711 0.2379
H8G H -0.3938 0.0617 0.6643
H8B H -0.1062 0.4383 0.3357
H8E H -0.6062 0.0617 0.3357
C1 C -0.6685(3) 0.5000 0.2768(5)
F1 F -0.6150(4) 0.4431(3) 0.3271(9)
F2 F -0.6668(4) 0.5000 0.0960(7)
O1 O -0.7868(2) 0.5000 0.5113(4)
O2 O -0.8572(2) 0.5000 0.2281(4)
C9 C -0.7836(3) 0.5000 0.3454(5)
F1F F -0.6150(4) 0.5569(3) 0.3271(9)
C2? C -0.6685(3) 0.5000 0.2768(5)
F3? F -0.5925(7) 0.5000 0.4092(14)
F4? F -0.6457(6) 0.4436(5) 0.1859(15)
loop_
_geom_bond_atom_site_label_1
_geom_bond_atom_site_label_2
_geom_bond_site_symmetry_1
_geom_bond_site_symmetry_2
Ag1 N1 1_555 1_555
C1 F1 1_555 1_555
F2 C1 1_555 1_555
O1 C9 1_555 1_555
O2 C9 1_555 1_555
C3 H1 1_555 1_555
C4 C3 1_555 1_555
H2 C4 1_555 1_555
C5 C4 1_555 1_555
C6 C5 1_555 1_555
H3 C6 1_555 1_555
C7 C6 1_555 1_555
H4 C7 1_555 1_555
C8 C5 1_555 1_555
H5 C8 1_555 1_555
H6 C8 1_555 1_555
C9 C1 1_555 1_555
N1 C3 1_555 1_555
N2 C8 1_555 1_555
H7 N2B 1_555 1_555
H8 N2B 1_555 1_555
Ag1G N2B 1_555 1_555
Ag1G_2 N2 1_555 1_555
F1F C1 1_555 1_555
C3B H1B 1_555 1_555
C4B C3B 1_555 1_555
H2B C4B 1_555 1_555
C5B C4B 1_555 1_555
C6B C5B 1_555 1_555
H3B C6B 1_555 1_555
C7B C6B 1_555 1_555
H4B C7B 1_555 1_555
C8B C5B 1_555 1_555
H5B C8B 1_555 1_555
H6B C8B 1_555 1_555
N1B Ag1 1_555 1_555
N2G Ag1 1_555 1_555
N2E Ag1 1_555 1_555
N2B C8B 1_555 1_555
H7G N2E 1_555 1_555
H7B N2 1_555 1_555
H7E N2G 1_555 1_555
H8G N2E 1_555 1_555
H8B N2 1_555 1_555
H8E N2G 1_555 1_555
C7 N1 1_555 1_555
C3B N1B 1_555 1_555
C7B N1B 1_555 1_555

#END
