
#######################################################################
#
#                 Cambridge Crystallographic Data Centre
#                                CCDC 
#
#######################################################################
#
# If this CIF has been generated from an entry in the Cambridge 
# Structural Database, then it will include bibliographic, chemical, 
# crystal, experimental, refinement or atomic coordinate data resulting 
# from the CCDC's data processing and validation procedures.
#
#######################################################################

data_DECMUU
_symmetry_cell_setting           triclinic
_symmetry_space_group_name_H-M   'P -1'
_symmetry_Int_Tables_number      2
_space_group_name_Hall           '-P 1'
loop_
_symmetry_equiv_pos_site_id
_symmetry_equiv_pos_as_xyz
1 x,y,z
2 -x,-y,-z
_cell_length_a                   7.9279(4)
_cell_length_b                   10.0058(4)
_cell_length_c                   11.5642(5)
_cell_angle_alpha                98.964(2)
_cell_angle_beta                 108.141(2)
_cell_angle_gamma                95.402(2)
_cell_volume                     851.083
loop_
_atom_site_label
_atom_site_type_symbol
_atom_site_fract_x
_atom_site_fract_y
_atom_site_fract_z
Ag1 Ag -0.297770(15) 0.311050(12) 0.217910(10)
N1 N -1.27257(16) 0.08733(14) 0.13506(12)
H1 H -1.2819 0.0844 0.0551
H2 H -1.3685 0.0318 0.1354
N2 N -0.60471(16) 0.24808(14) 0.21163(12)
N3 N 0.23901(17) 0.51316(13) 0.87416(11)
H3 H 0.3005 0.4463 0.8561
H4 H 0.2818 0.5432 0.9569
N4 N -0.18656(17) 0.34810(14) 0.43953(12)
C1 C -1.11169(19) 0.02730(16) 0.19274(14)
H5 H -1.1070 0.0186 0.2760
H6 H -1.1218 -0.0639 0.1455
C2 C -0.93916(19) 0.11102(15) 0.19943(13)
C3 C -0.9216(2) 0.17515(16) 0.10411(14)
H7 H -1.0209 0.1739 0.0348
C4 C -0.7536(2) 0.24109(16) 0.11391(14)
H8 H -0.7439 0.2826 0.0492
C5 C -0.6234(2) 0.18784(16) 0.30343(14)
H9 H -0.5225 0.1921 0.3725
C6 C -0.7853(2) 0.11940(16) 0.30088(13)
H10 H -0.7909 0.0791 0.3671
C7 C 0.0478(2) 0.45279(17) 0.83925(13)
H11 H -0.0162 0.5181 0.8728
H12 H 0.0393 0.3717 0.8746
C8 C -0.03791(19) 0.41511(15) 0.69981(13)
C9 C 0.0174(2) 0.31199(18) 0.63108(14)
H13 H 0.1045 0.2628 0.6706
C10 C -0.0588(2) 0.28339(18) 0.50291(15)
H14 H -0.0187 0.2152 0.4583
C11 C -0.2414(2) 0.44536(17) 0.50674(15)
H15 H -0.3313 0.4911 0.4652
C12 C -0.1711(2) 0.48143(17) 0.63514(15)
H16 H -0.2135 0.5500 0.6775
Ag1_2 Ag -1.297770(15) 0.311050(12) 0.217910(10)
Ag1A Ag 0.297770(15) 0.688950(12) 0.782090(10)
N1_2 N -0.27257(16) 0.08733(14) 0.13506(12)
H1_2 H -0.2819 0.0844 0.0551
H2_2 H -0.3685 0.0318 0.1354
N3A N -0.23901(17) 0.48684(13) 0.12584(11)
H3A H -0.3005 0.5537 0.1439
H4A H -0.2818 0.4568 0.0431
S1 S 0.44416(5) 0.77456(4) 0.17350(3)
F1 F 0.64016(14) 0.93014(11) 0.38651(9)
F2 F 0.37705(13) 0.84671(11) 0.38249(9)
F3 F 0.58228(15) 0.71797(11) 0.39495(9)
O1 O 0.37295(18) 0.89443(14) 0.13579(11)
O2 O 0.61094(15) 0.75585(12) 0.15130(10)
O3 O 0.31638(19) 0.65201(14) 0.14216(12)
C13 C 0.5131(2) 0.81924(16) 0.34291(13)
loop_
_geom_bond_atom_site_label_1
_geom_bond_atom_site_label_2
_geom_bond_site_symmetry_1
_geom_bond_site_symmetry_2
Ag1 N2 1_555 1_555
S1 O1 1_555 1_555
F1 C13 1_555 1_555
F2 C13 1_555 1_555
F3 C13 1_555 1_555
O2 S1 1_555 1_555
O3 S1 1_555 1_555
N1 H1 1_555 1_555
H2 N1 1_555 1_555
N2 C4 1_555 1_555
N3 H3 1_555 1_555
H4 N3 1_555 1_555
N4 Ag1 1_555 1_555
C1 N1 1_555 1_555
H5 C1 1_555 1_555
H6 C1 1_555 1_555
C2 C1 1_555 1_555
C3 C2 1_555 1_555
H7 C3 1_555 1_555
C4 C3 1_555 1_555
H8 C4 1_555 1_555
C5 N2 1_555 1_555
H9 C5 1_555 1_555
C6 C2 1_555 1_555
H10 C6 1_555 1_555
C7 N3 1_555 1_555
H11 C7 1_555 1_555
H12 C7 1_555 1_555
C8 C7 1_555 1_555
C9 C8 1_555 1_555
H13 C9 1_555 1_555
C10 N4 1_555 1_555
H14 C10 1_555 1_555
C11 N4 1_555 1_555
H15 C11 1_555 1_555
C12 C8 1_555 1_555
H16 C12 1_555 1_555
C13 S1 1_555 1_555
Ag1_2 N1 1_555 1_555
Ag1A N3 1_555 1_555
N1_2 Ag1 1_555 1_555
H1_2 N1_2 1_555 1_555
H2_2 N1_2 1_555 1_555
N3A Ag1 1_555 1_555
H3A N3A 1_555 1_555
H4A N3A 1_555 1_555
C5 C6 1_555 1_555
C9 C10 1_555 1_555
C11 C12 1_555 1_555

#END
