
#######################################################################
#
#                 Cambridge Crystallographic Data Centre
#                                CCDC 
#
#######################################################################
#
# If this CIF has been generated from an entry in the Cambridge 
# Structural Database, then it will include bibliographic, chemical, 
# crystal, experimental, refinement or atomic coordinate data resulting 
# from the CCDC's data processing and validation procedures.
#
#######################################################################

data_DECNAB
_symmetry_cell_setting           monoclinic
_symmetry_space_group_name_H-M   'P 21/c'
_symmetry_Int_Tables_number      14
_space_group_name_Hall           '-P 2ybc'
loop_
_symmetry_equiv_pos_site_id
_symmetry_equiv_pos_as_xyz
1 x,y,z
2 -x,1/2+y,1/2-z
3 -x,-y,-z
4 x,1/2-y,1/2+z
_cell_length_a                   10.2034(3)
_cell_length_b                   13.3334(4)
_cell_length_c                   12.3596(4)
_cell_angle_alpha                90
_cell_angle_beta                 103.690(2)
_cell_angle_gamma                90
_cell_volume                     1633.7
loop_
_atom_site_label
_atom_site_type_symbol
_atom_site_fract_x
_atom_site_fract_y
_atom_site_fract_z
Ag1 Ag -0.314340(16) -0.496490(12) -0.680880(13)
N1 N -0.32829(18) -0.45606(14) -0.50466(15)
N2 N -0.5063(2) -0.48403(14) -0.16446(16)
H1 H -0.5391 -0.4644 -0.1063
H2 H -0.4664 -0.5440 -0.1472
N3 N -0.18446(19) -0.36686(14) -0.73733(15)
N4 N 0.18674(18) -0.13877(14) -0.79909(15)
H3 H 0.2120 -0.1898 -0.8373
H4 H 0.2058 -0.1564 -0.7267
C1 C -0.4031(3) -0.4110(2) -0.17941(19)
H5 H -0.3212 -0.4205 -0.1217
H6 H -0.4354 -0.3433 -0.1731
C2 C -0.3734(2) -0.42506(17) -0.29223(18)
C3 C -0.4222(2) -0.35866(17) -0.37832(18)
H7 H -0.4711 -0.3025 -0.3666
C4 C -0.3977(2) -0.37648(17) -0.48215(18)
H8 H -0.4310 -0.3310 -0.5391
C5 C -0.2804(2) -0.51983(17) -0.42049(19)
H9 H -0.2316 -0.5754 -0.4342
C6 C -0.3001(2) -0.50699(17) -0.31430(19)
H10 H -0.2645 -0.5528 -0.2583
C7 C 0.0408(2) -0.12469(18) -0.8377(2)
H11 H 0.0179 -0.1191 -0.9182
H12 H 0.0158 -0.0622 -0.8077
C8 C -0.0401(2) -0.20936(17) -0.80389(19)
C9 C -0.0838(2) -0.20410(17) -0.70595(19)
H13 H -0.0660 -0.1475 -0.6609
C10 C -0.1544(2) -0.28421(17) -0.67605(18)
H14 H -0.1821 -0.2800 -0.6097
C11 C -0.1410(3) -0.37204(18) -0.83175(19)
H15 H -0.1604 -0.4294 -0.8755
C12 C -0.0688(2) -0.29562(18) -0.86658(19)
H16 H -0.0396 -0.3025 -0.9320
Ag1B Ag -0.685660(16) -0.503510(12) -0.319120(13)
Ag1A Ag 0.314340(16) 0.003510(12) -0.819120(13)
N2B N -0.4937(2) -0.51597(14) -0.83554(16)
H1B H -0.4609 -0.5356 -0.8937
H2B H -0.5336 -0.4560 -0.8528
N4A N -0.18674(18) -0.63877(14) -0.70091(15)
H3A H -0.2120 -0.6898 -0.6627
H4A H -0.2058 -0.6564 -0.7733
B1 B -0.2757(3) -0.6723(2) -0.0074(2)
F1 F -0.3747(2) -0.68596(19) 0.04977(16)
F2 F -0.18077(16) -0.74685(12) 0.02028(12)
F3 F -0.2172(3) -0.58057(14) 0.02075(17)
F4 F -0.33365(15) -0.67681(11) -0.12132(11)
loop_
_geom_bond_atom_site_label_1
_geom_bond_atom_site_label_2
_geom_bond_site_symmetry_1
_geom_bond_site_symmetry_2
Ag1 N1 1_555 1_555
B1 F1 1_555 1_555
F2 B1 1_555 1_555
F3 B1 1_555 1_555
F4 B1 1_555 1_555
N1 C4 1_555 1_555
N2 H1 1_555 1_555
H2 N2 1_555 1_555
N3 Ag1 1_555 1_555
N4 H3 1_555 1_555
H4 N4 1_555 1_555
C1 N2 1_555 1_555
H5 C1 1_555 1_555
H6 C1 1_555 1_555
C2 C1 1_555 1_555
C3 C2 1_555 1_555
H7 C3 1_555 1_555
C4 C3 1_555 1_555
H8 C4 1_555 1_555
C5 N1 1_555 1_555
H9 C5 1_555 1_555
C6 C2 1_555 1_555
H10 C6 1_555 1_555
C7 N4 1_555 1_555
H11 C7 1_555 1_555
H12 C7 1_555 1_555
C8 C7 1_555 1_555
C9 C8 1_555 1_555
H13 C9 1_555 1_555
C10 N3 1_555 1_555
H14 C10 1_555 1_555
C11 N3 1_555 1_555
H15 C11 1_555 1_555
C12 C8 1_555 1_555
H16 C12 1_555 1_555
Ag1B N2 1_555 1_555
Ag1A N4 1_555 1_555
N2B Ag1 1_555 1_555
H1B N2B 1_555 1_555
H2B N2B 1_555 1_555
N4A Ag1 1_555 1_555
H3A N4A 1_555 1_555
H4A N4A 1_555 1_555
C5 C6 1_555 1_555
C9 C10 1_555 1_555
C11 C12 1_555 1_555

#END
