
#######################################################################
#
#                 Cambridge Crystallographic Data Centre
#                                CCDC 
#
#######################################################################
#
# If this CIF has been generated from an entry in the Cambridge 
# Structural Database, then it will include bibliographic, chemical, 
# crystal, experimental, refinement or atomic coordinate data resulting 
# from the CCDC's data processing and validation procedures.
#
#######################################################################

data_DECNIJ
_symmetry_cell_setting           monoclinic
_symmetry_space_group_name_H-M   'P 21/c'
_symmetry_Int_Tables_number      14
_space_group_name_Hall           '-P 2ybc'
loop_
_symmetry_equiv_pos_site_id
_symmetry_equiv_pos_as_xyz
1 x,y,z
2 -x,1/2+y,1/2-z
3 -x,-y,-z
4 x,1/2-y,1/2+z
_cell_length_a                   6.6871(7)
_cell_length_b                   25.806(2)
_cell_length_c                   9.3785(8)
_cell_angle_alpha                90
_cell_angle_beta                 92.135(3)
_cell_angle_gamma                90
_cell_volume                     1617.3
loop_
_atom_site_label
_atom_site_type_symbol
_atom_site_fract_x
_atom_site_fract_y
_atom_site_fract_z
Ag1 Ag 0.35471(3) 0.561920(7) -0.518330(17)
N1 N 0.3184(3) 0.55658(7) -0.29110(18)
N2 N 0.3895(3) 0.57782(8) 0.25737(19)
H1 H 0.515(4) 0.5808(10) 0.241(3)
H2 H 0.334(4) 0.6070(10) 0.243(3)
C1 C 0.2921(3) 0.53870(9) 0.1652(2)
H3 H 0.1487 0.5373 0.1877
H4 H 0.3509 0.5045 0.1900
C2 C 0.3061(3) 0.54644(8) 0.0053(2)
C3 C 0.3904(3) 0.58968(9) -0.0553(2)
H5 H 0.4457 0.6165 0.0031
C4 C 0.3930(3) 0.59333(9) -0.2029(2)
H6 H 0.4506 0.6233 -0.2435
C5 C 0.2305(3) 0.50797(8) -0.0856(2)
H7 H 0.1744 0.4773 -0.0476
C6 C 0.2375(3) 0.51460(9) -0.2316(2)
H8 H 0.1828 0.4883 -0.2923
Ag1_2 Ag 0.35471(3) 0.561920(7) 0.481670(17)
N2_2 N 0.3895(3) 0.57782(8) -0.74263(19)
H1_2 H 0.515(4) 0.5808(10) -0.759(3)
H2_2 H 0.334(4) 0.6070(10) -0.757(3)
S1 S 0.08765(9) 0.35204(2) -0.13072(6)
O1 O 0.1609(3) 0.39195(7) -0.2234(2)
O2 O 0.1419(3) 0.35879(10) 0.0168(2)
O3 O -0.1165(2) 0.33644(7) -0.16125(19)
C7 C 0.2298(4) 0.29556(10) -0.1818(3)
F1 F 0.1985(3) 0.28374(7) -0.31796(17)
F2 F 0.1793(3) 0.25425(6) -0.1061(2)
F3 F 0.4268(2) 0.30324(6) -0.16060(18)
N3 N 0.6219(4) 0.32053(9) -0.5256(2)
C8 C 0.6592(4) 0.28425(10) -0.4607(3)
C9 C 0.7059(5) 0.23761(10) -0.3781(3)
H9 H 0.7750 0.2472 -0.2880
H10 H 0.7924 0.2150 -0.4328
H11 H 0.5816 0.2193 -0.3582
N4 N 0.2072(3) 0.46225(9) -0.5587(2)
C10 C 0.1649(3) 0.42043(10) -0.5837(2)
C11 C 0.1144(4) 0.36685(10) -0.6163(3)
H12 H 0.1017 0.3623 -0.7199
H13 H -0.0127 0.3580 -0.5735
H14 H 0.2202 0.3441 -0.5773
loop_
_geom_bond_atom_site_label_1
_geom_bond_atom_site_label_2
_geom_bond_site_symmetry_1
_geom_bond_site_symmetry_2
Ag1 N1 1_555 1_555
S1 O1 1_555 1_555
O2 S1 1_555 1_555
O3 S1 1_555 1_555
N1 C4 1_555 1_555
N2 H1 1_555 1_555
H2 N2 1_555 1_555
N3 C8 1_555 1_555
N4 C10 1_555 1_555
C1 N2 1_555 1_555
H3 C1 1_555 1_555
H4 C1 1_555 1_555
C2 C1 1_555 1_555
C3 C2 1_555 1_555
H5 C3 1_555 1_555
C4 C3 1_555 1_555
H6 C4 1_555 1_555
C5 C2 1_555 1_555
H7 C5 1_555 1_555
C6 N1 1_555 1_555
H8 C6 1_555 1_555
C7 S1 1_555 1_555
C8 C9 1_555 1_555
C9 H9 1_555 1_555
H10 C9 1_555 1_555
H11 C9 1_555 1_555
C10 C11 1_555 1_555
C11 H12 1_555 1_555
H13 C11 1_555 1_555
H14 C11 1_555 1_555
F1 C7 1_555 1_555
F2 C7 1_555 1_555
F3 C7 1_555 1_555
Ag1_2 N2 1_555 1_555
N2_2 Ag1 1_555 1_555
H1_2 N2_2 1_555 1_555
H2_2 N2_2 1_555 1_555
C5 C6 1_555 1_555

#END
