
#######################################################################
#
#                 Cambridge Crystallographic Data Centre
#                                CCDC 
#
#######################################################################
#
# If this CIF has been generated from an entry in the Cambridge 
# Structural Database, then it will include bibliographic, chemical, 
# crystal, experimental, refinement or atomic coordinate data resulting 
# from the CCDC's data processing and validation procedures.
#
#######################################################################

data_DECTOV
_symmetry_cell_setting           monoclinic
_symmetry_space_group_name_H-M   'P 21/c'
_symmetry_Int_Tables_number      14
_space_group_name_Hall           '-P 2ybc'
loop_
_symmetry_equiv_pos_site_id
_symmetry_equiv_pos_as_xyz
1 x,y,z
2 -x,1/2+y,1/2-z
3 -x,-y,-z
4 x,1/2-y,1/2+z
_cell_length_a                   16.4304(2)
_cell_length_b                   8.2674(3)
_cell_length_c                   8.8829(2)
_cell_angle_alpha                90
_cell_angle_beta                 95.695(2)
_cell_angle_gamma                90
_cell_volume                     1200.67
loop_
_atom_site_label
_atom_site_type_symbol
_atom_site_fract_x
_atom_site_fract_y
_atom_site_fract_z
Zn1 Zn 0.09994(2) 0.99143(4) -0.14336(4)
P1 P 0.26533(5) 0.78593(12) -0.04833(9)
P2 P 0.08031(5) 0.32981(10) -0.31700(9)
N1 N 0.2157(2) 0.4758(4) -0.1420(3)
H1 H 0.2289 0.5312 -0.2247
C1 C 0.2394(3) 0.5799(5) -0.0042(4)
H2 H 0.1943 0.5815 0.0584
H3 H 0.2859 0.5307 0.0545
C2 C 0.1207(2) 0.4600(5) -0.1544(3)
H4 H 0.1046 0.4141 -0.0613
H5 H 0.0965 0.5668 -0.1666
C3 C 0.2640(3) 0.3188(5) -0.1340(5)
H6 H 0.2566 0.2647 -0.0394
H7 H 0.2422 0.2486 -0.2158
C4 C 0.3550(3) 0.3429(6) -0.1448(6)
H8 H 0.3778 0.4072 -0.0595
H9 H 0.3627 0.4020 -0.2367
C5 C 0.3994(3) 0.1857(7) -0.1456(7)
H10 H 0.3906 0.1262 -0.0545
H11 H 0.3766 0.1223 -0.2316
C6 C 0.4904(3) 0.2053(10) -0.1540(9)
H12 H 0.5157 0.1006 -0.1543
H13 H 0.4996 0.2620 -0.2451
H14 H 0.5136 0.2657 -0.0680
O1 O 0.19614(15) 0.8553(3) -0.1519(3)
O2 O 0.28886(16) 0.8684(3) 0.1006(3)
O3 O 0.34307(15) 0.7711(4) -0.1387(3)
H15 H 0.3300 0.7286 -0.2210
O4 O 0.11524(18) 0.4021(3) -0.4504(3)
O5 O -0.01036(16) 0.3446(3) -0.3138(3)
O6 O 0.10605(16) 0.1540(3) -0.2994(2)
Zn1C Zn 0.09994(2) 0.50857(4) -0.64336(4)
Zn1A Zn -0.09994(2) 0.49143(4) -0.35664(4)
Zn1_2 Zn 0.09994(2) -0.00857(4) -0.14336(4)
O4C O 0.11524(18) 1.0979(3) 0.0496(3)
O5A O 0.01036(16) 0.8446(3) -0.1862(3)
O6_2 O 0.10605(16) 1.1540(3) -0.2994(2)
loop_
_geom_bond_atom_site_label_1
_geom_bond_atom_site_label_2
_geom_bond_site_symmetry_1
_geom_bond_site_symmetry_2
Zn1 O1 1_555 1_555
P1 C1 1_555 1_555
P2 C2 1_555 1_555
N1 H1 1_555 1_555
C1 N1 1_555 1_555
H2 C1 1_555 1_555
H3 C1 1_555 1_555
C2 N1 1_555 1_555
H4 C2 1_555 1_555
H5 C2 1_555 1_555
C3 N1 1_555 1_555
H6 C3 1_555 1_555
H7 C3 1_555 1_555
C4 C3 1_555 1_555
H8 C4 1_555 1_555
H9 C4 1_555 1_555
C5 C4 1_555 1_555
H10 C5 1_555 1_555
H11 C5 1_555 1_555
C6 C5 1_555 1_555
H12 C6 1_555 1_555
H13 C6 1_555 1_555
H14 C6 1_555 1_555
O1 P1 1_555 1_555
O2 P1 1_555 1_555
O3 P1 1_555 1_555
H15 O3 1_555 1_555
O4 P2 1_555 1_555
O5 P2 1_555 1_555
O6 P2 1_555 1_555
Zn1C O4 1_555 1_555
Zn1A O5 1_555 1_555
Zn1_2 O6 1_555 1_555
O4C Zn1 1_555 1_555
O5A Zn1 1_555 1_555
O6_2 Zn1 1_555 1_555

#END
