
#######################################################################
#
#                 Cambridge Crystallographic Data Centre
#                                CCDC 
#
#######################################################################
#
# If this CIF has been generated from an entry in the Cambridge 
# Structural Database, then it will include bibliographic, chemical, 
# crystal, experimental, refinement or atomic coordinate data resulting 
# from the CCDC's data processing and validation procedures.
#
#######################################################################

data_DECTUB
_symmetry_cell_setting           monoclinic
_symmetry_space_group_name_H-M   'I 2/a'
_symmetry_Int_Tables_number      15
_space_group_name_Hall           '-I 2ya'
loop_
_symmetry_equiv_pos_site_id
_symmetry_equiv_pos_as_xyz
1 x,y,z
2 1/2+x,1/2+y,1/2+z
3 1/2-x,y,-z
4 -x,1/2+y,1/2-z
5 -x,-y,-z
6 1/2-x,1/2-y,1/2-z
7 1/2+x,-y,z
8 x,1/2-y,1/2+z
_cell_length_a                   26.267(3)
_cell_length_b                   7.8138(5)
_cell_length_c                   28.775(5)
_cell_angle_alpha                90
_cell_angle_beta                 93.7770(10)
_cell_angle_gamma                90
_cell_volume                     5893.1
loop_
_atom_site_label
_atom_site_type_symbol
_atom_site_fract_x
_atom_site_fract_y
_atom_site_fract_z
Zn1 Zn -0.01631(3) -1.43683(10) 0.30698(3)
Zn2 Zn -0.06063(3) -1.50426(10) 0.13583(3)
Zn3 Zn -0.04599(3) -2.02308(10) 0.43966(3)
P1 P -0.07059(7) -1.6893(2) 0.22607(6)
P2 P -0.06002(7) -2.1304(2) 0.34426(6)
P3 P 0.06944(7) -1.1295(2) 0.46768(6)
P4 P 0.00986(7) -1.6750(2) 0.39649(6)
N1 N -0.1208(2) -1.9245(7) 0.28115(18)
H1 H -0.1176 -2.0035 0.2583
N2 N 0.0859(2) -1.4597(7) 0.43941(19)
H2 H 0.0747 -1.3931 0.4149
C1 C -0.1254(3) -1.7534(9) 0.2576(3)
H3 H -0.1311 -1.6672 0.2809
H4 H -0.1553 -1.7551 0.2359
C2 C -0.0725(3) -1.9322(8) 0.3120(2)
H5 H -0.0731 -1.8391 0.3342
H6 H -0.0441 -1.9115 0.2929
C3 C -0.1684(3) -1.9725(9) 0.3058(2)
H7 H -0.1617 -2.0848 0.3201
C4 C -0.1792(3) -1.8500(10) 0.3454(3)
H8 H -0.1494 -1.8411 0.3671
H9 H -0.1872 -1.7370 0.3331
C5 C -0.2244(4) -1.9203(14) 0.3703(3)
H10 H -0.2328 -1.8416 0.3947
H11 H -0.2150 -2.0291 0.3847
C6 C -0.2709(4) -1.9449(15) 0.3360(4)
H12 H -0.2988 -1.9926 0.3523
H13 H -0.2818 -1.8346 0.3235
C7 C -0.2593(3) -2.0596(15) 0.2974(4)
H14 H -0.2890 -2.0684 0.2758
H15 H -0.2516 -2.1730 0.3097
C8 C -0.2138(3) -1.9946(11) 0.2715(3)
H16 H -0.2058 -2.0761 0.2476
H17 H -0.2223 -1.8861 0.2565
C9 C 0.0973(3) -1.3363(9) 0.4800(2)
H18 H 0.1339 -1.3243 0.4857
H19 H 0.0837 -1.3827 0.5079
C10 C 0.0431(3) -1.5778(10) 0.4476(2)
H20 H 0.0182 -1.5153 0.4644
H21 H 0.0562 -1.6691 0.4678
C11 C 0.1341(3) -1.5519(11) 0.4236(3)
H22 H 0.1222 -1.6357 0.4000
C12 C 0.1685(4) -1.4355(13) 0.4008(4)
H23 H 0.1809 -1.3484 0.4228
H24 H 0.1499 -1.3789 0.3749
C13 C 0.2134(5) -1.5311(17) 0.3832(5)
H25 H 0.2371 -1.4502 0.3710
H26 H 0.2015 -1.6068 0.3580
C14 C 0.2409(5) -1.637(2) 0.4226(6)
H27 H 0.2681 -1.7029 0.4102
H28 H 0.2558 -1.5604 0.4463
C15 C 0.2032(5) -1.7567(16) 0.4440(5)
H29 H 0.2206 -1.8224 0.4689
H30 H 0.1893 -1.8361 0.4206
C16 C 0.1597(4) -1.6529(12) 0.4635(4)
H31 H 0.1353 -1.7291 0.4767
H32 H 0.1731 -1.5760 0.4878
O1 O -0.09549(19) -1.5629(6) 0.19079(16)
O2 O -0.03101(19) -1.6087(6) 0.25950(16)
O3 O -0.05175(17) -1.8540(6) 0.20491(16)
O4 O -0.00327(17) -2.1246(6) 0.35628(16)
O5 O -0.07505(18) -2.2781(6) 0.31127(15)
O6 O -0.08917(17) -2.1274(6) 0.38807(15)
O7 O 0.09266(19) -1.0791(7) 0.42255(16)
O8 O 0.01210(18) -1.1592(6) 0.46331(16)
O9 O 0.08787(18) -1.0156(6) 0.50794(16)
O10 O -0.02696(19) -1.7942(6) 0.41694(16)
O11 O 0.04957(19) -1.7588(6) 0.36754(17)
O12 O -0.0161(2) -1.5309(6) 0.36973(17)
Zn1C Zn 0.01631(3) -1.93683(10) 0.19302(3)
Zn1_2 Zn -0.01631(3) -2.43683(10) 0.30698(3)
Zn2C Zn 0.06063(3) -2.00426(10) 0.36417(3)
Zn2C_2 Zn 0.06063(3) -1.00426(10) 0.36417(3)
Zn3_2 Zn -0.04599(3) -1.02308(10) 0.43966(3)
Zn3D Zn 0.04599(3) -0.97692(10) 0.56034(3)
O3C O 0.05175(17) -1.3540(6) 0.29509(16)
O4C O 0.00327(17) -1.6246(6) 0.14372(16)
O5_2 O -0.07505(18) -1.2781(6) 0.31127(15)
O7C O -0.09266(19) -1.5791(7) 0.07745(16)
O8_2 O 0.01210(18) -2.1592(6) 0.46331(16)
O9D O -0.08787(18) -1.9844(6) 0.49206(16)
O11C O -0.04957(19) -1.2588(6) 0.13246(17)
O13 O -0.1165(2) -1.1781(7) 0.21061(19)
O14 O -0.1150(5) -1.4727(16) 0.4165(5)
loop_
_geom_bond_atom_site_label_1
_geom_bond_atom_site_label_2
_geom_bond_site_symmetry_1
_geom_bond_site_symmetry_2
Zn1 O2 1_555 1_555
Zn2 O1 1_555 1_555
Zn3 O6 1_555 1_555
P1 C1 1_555 1_555
P2 C2 1_555 1_555
P3 C9 1_555 1_555
P4 C10 1_555 1_555
N1 H1 1_555 1_555
N2 H2 1_555 1_555
C1 N1 1_555 1_555
H3 C1 1_555 1_555
H4 C1 1_555 1_555
C2 N1 1_555 1_555
H5 C2 1_555 1_555
H6 C2 1_555 1_555
C3 N1 1_555 1_555
H7 C3 1_555 1_555
C4 C3 1_555 1_555
H8 C4 1_555 1_555
H9 C4 1_555 1_555
C5 C4 1_555 1_555
H10 C5 1_555 1_555
H11 C5 1_555 1_555
C6 C5 1_555 1_555
H12 C6 1_555 1_555
H13 C6 1_555 1_555
C7 C6 1_555 1_555
H14 C7 1_555 1_555
H15 C7 1_555 1_555
C8 C3 1_555 1_555
H16 C8 1_555 1_555
H17 C8 1_555 1_555
C9 N2 1_555 1_555
H18 C9 1_555 1_555
H19 C9 1_555 1_555
C10 N2 1_555 1_555
H20 C10 1_555 1_555
H21 C10 1_555 1_555
C11 N2 1_555 1_555
H22 C11 1_555 1_555
C12 C11 1_555 1_555
H23 C12 1_555 1_555
H24 C12 1_555 1_555
C13 C12 1_555 1_555
H25 C13 1_555 1_555
H26 C13 1_555 1_555
C14 C13 1_555 1_555
H27 C14 1_555 1_555
H28 C14 1_555 1_555
C15 C14 1_555 1_555
H29 C15 1_555 1_555
H30 C15 1_555 1_555
C16 C11 1_555 1_555
H31 C16 1_555 1_555
H32 C16 1_555 1_555
O1 P1 1_555 1_555
O2 P1 1_555 1_555
O3 P1 1_555 1_555
O4 P2 1_555 1_555
O5 P2 1_555 1_555
O6 P2 1_555 1_555
O7 P3 1_555 1_555
O8 P3 1_555 1_555
O9 P3 1_555 1_555
O10 Zn3 1_555 1_555
O11 P4 1_555 1_555
O12 Zn1 1_555 1_555
Zn1C O3 1_555 1_555
Zn1_2 O5 1_555 1_555
Zn2C O4 1_555 1_555
Zn2C_2 O7 1_555 1_555
Zn3_2 O8 1_555 1_555
Zn3D O9 1_555 1_555
O3C Zn1 1_555 1_555
O4C Zn2 1_555 1_555
O5_2 Zn1 1_555 1_555
O7C Zn2 1_555 1_555
O8_2 Zn3 1_555 1_555
O9D Zn3 1_555 1_555
O11C Zn2 1_555 1_555
P4 O10 1_555 1_555
P4 O12 1_555 1_555
C7 C8 1_555 1_555
C15 C16 1_555 1_555
O11 Zn2C 1_555 1_555

#END
