
#######################################################################
#
#                 Cambridge Crystallographic Data Centre
#                                CCDC 
#
#######################################################################
#
# If this CIF has been generated from an entry in the Cambridge 
# Structural Database, then it will include bibliographic, chemical, 
# crystal, experimental, refinement or atomic coordinate data resulting 
# from the CCDC's data processing and validation procedures.
#
#######################################################################

data_DECTIP
_symmetry_cell_setting           monoclinic
_symmetry_space_group_name_H-M   'P 21/c'
_symmetry_Int_Tables_number      14
_space_group_name_Hall           '-P 2ybc'
loop_
_symmetry_equiv_pos_site_id
_symmetry_equiv_pos_as_xyz
1 x,y,z
2 -x,1/2+y,1/2-z
3 -x,-y,-z
4 x,1/2-y,1/2+z
_cell_length_a                   7.0453(14)
_cell_length_b                   13.906(3)
_cell_length_c                   22.344(5)
_cell_angle_alpha                90
_cell_angle_beta                 91.64(3)
_cell_angle_gamma                90
_cell_volume                     2188.19
loop_
_atom_site_label
_atom_site_type_symbol
_atom_site_fract_x
_atom_site_fract_y
_atom_site_fract_z
Zn1 Zn -0.60296(5) 0.41405(3) 0.192780(16)
C1 C -1.2324(4) 0.6721(2) 0.28698(15)
H1 H -1.3622 0.6661 0.2790
C2 C -1.1103(4) 0.6094(2) 0.26171(15)
H2 H -1.1561 0.5606 0.2367
C3 C -0.9156(4) 0.6187(2) 0.27356(13)
C4 C -0.8549(4) 0.6925(3) 0.31016(15)
H3 H -0.7257 0.7005 0.3182
C5 C -0.9816(4) 0.7546(3) 0.33499(15)
H4 H -0.9392 0.8044 0.3597
C6 C -0.7757(4) 0.5496(2) 0.24703(14)
C7 C 0.0540(4) 0.5838(3) 0.05369(15)
H5 H 0.1840 0.5787 0.0614
C8 C -0.0691(4) 0.5363(2) 0.08949(13)
H6 H -0.0221 0.4995 0.1214
C9 C -0.2632(4) 0.5424(2) 0.07868(13)
C10 C -0.2006(5) 0.6428(3) -0.00504(15)
H7 H -0.2456 0.6782 -0.0378
C11 C -0.3257(4) 0.5961(2) 0.03035(14)
H8 H -0.4552 0.6008 0.0216
C12 C -0.3972(4) 0.4918(2) 0.11812(13)
C13 C -0.3364(6) 0.3512(3) 0.28531(15)
H9 H -0.2548 0.3894 0.2636
C14 C -0.0614(8) 0.3175(5) 0.3504(3)
H10 H -0.0004 0.3599 0.3230
H11 H -0.0023 0.2553 0.3492
H12 H -0.0495 0.3431 0.3902
C15 C -0.3882(8) 0.2468(4) 0.3686(2)
H13 H -0.5158 0.2485 0.3523
H14 H -0.3867 0.2695 0.4092
H15 H -0.3416 0.1819 0.3677
N1 N -1.1689(4) 0.74221(19) 0.32306(11)
N2 N -0.0100(4) 0.6380(2) 0.00737(13)
N3 N -0.2672(5) 0.3082(3) 0.33280(14)
O1 O -0.8415(3) 0.47409(17) 0.22327(10)
O2 O -0.6053(3) 0.56881(19) 0.24963(13)
O3 O -0.5725(3) 0.49994(19) 0.10866(10)
O4 O -0.3323(3) 0.44309(18) 0.16169(10)
O5 O -1.2928(3) 0.79927(17) 0.35062(10)
O6 O 0.1083(4) 0.6833(2) -0.02599(13)
O7 O -0.5032(4) 0.34474(19) 0.26707(11)
Zn1A Zn -1.39704(5) 0.91405(3) 0.307220(16)
O5A O -0.7072(3) 0.29927(17) 0.14938(10)
C16 C -0.190(5) 0.059(2) 0.0527(10)
H16 H -0.1129 0.1012 0.0322
C17 C -0.4545(12) 0.1593(6) 0.0453(4)
H17 H -0.5877 0.1612 0.0532
H18 H -0.4368 0.1648 0.0030
H19 H -0.3916 0.2117 0.0656
C18 C -0.484(3) 0.0068(11) 0.0983(4)
H20 H -0.6151 0.0264 0.0984
H21 H -0.4348 0.0040 0.1387
H22 H -0.4751 -0.0555 0.0801
N4 N -0.379(2) 0.0737(5) 0.0656(3)
O8 O -0.143(6) -0.018(3) 0.0728(9)
loop_
_geom_bond_atom_site_label_1
_geom_bond_atom_site_label_2
_geom_bond_site_symmetry_1
_geom_bond_site_symmetry_2
Zn1 O1 1_555 1_555
C1 H1 1_555 1_555
C2 C1 1_555 1_555
H2 C2 1_555 1_555
C3 C2 1_555 1_555
C4 C3 1_555 1_555
H3 C4 1_555 1_555
C5 C4 1_555 1_555
H4 C5 1_555 1_555
C6 C3 1_555 1_555
C7 H5 1_555 1_555
C8 C7 1_555 1_555
H6 C8 1_555 1_555
C9 C8 1_555 1_555
C10 H7 1_555 1_555
C11 C9 1_555 1_555
H8 C11 1_555 1_555
C12 C9 1_555 1_555
C13 H9 1_555 1_555
C14 H10 1_555 1_555
H11 C14 1_555 1_555
H12 C14 1_555 1_555
C15 H13 1_555 1_555
H14 C15 1_555 1_555
H15 C15 1_555 1_555
C16 H16 1_555 1_555
C17 H17 1_555 1_555
H18 C17 1_555 1_555
H19 C17 1_555 1_555
C18 H20 1_555 1_555
H21 C18 1_555 1_555
H22 C18 1_555 1_555
N1 C1 1_555 1_555
N2 C7 1_555 1_555
N3 C13 1_555 1_555
N4 C16 1_555 1_555
O1 C6 1_555 1_555
O2 C6 1_555 1_555
O3 Zn1 1_555 1_555
O4 Zn1 1_555 1_555
O5 N1 1_555 1_555
O6 N2 1_555 1_555
O7 Zn1 1_555 1_555
O8 C16 1_555 1_555
Zn1A O5 1_555 1_555
O5A Zn1 1_555 1_555
C5 N1 1_555 1_555
C10 C11 1_555 1_555
C10 N2 1_555 1_555
C12 O3 1_555 1_555
C12 O4 1_555 1_555
C13 O7 1_555 1_555
C14 N3 1_555 1_555
C15 N3 1_555 1_555
C17 N4 1_555 1_555
C18 N4 1_555 1_555

#END
