
#######################################################################
#
#                 Cambridge Crystallographic Data Centre
#                                CCDC 
#
#######################################################################
#
# If this CIF has been generated from an entry in the Cambridge 
# Structural Database, then it will include bibliographic, chemical, 
# crystal, experimental, refinement or atomic coordinate data resulting 
# from the CCDC's data processing and validation procedures.
#
#######################################################################

data_DECWIS
_symmetry_cell_setting           monoclinic
_symmetry_space_group_name_H-M   'P 21/n'
_symmetry_Int_Tables_number      14
_space_group_name_Hall           '-P 2yn'
loop_
_symmetry_equiv_pos_site_id
_symmetry_equiv_pos_as_xyz
1 x,y,z
2 1/2-x,1/2+y,1/2-z
3 -x,-y,-z
4 1/2+x,1/2-y,1/2+z
_cell_length_a                   9.405(5)
_cell_length_b                   5.755(3)
_cell_length_c                   20.554(11)
_cell_angle_alpha                90
_cell_angle_beta                 99.548(7)
_cell_angle_gamma                90
_cell_volume                     1097.09
loop_
_atom_site_label
_atom_site_type_symbol
_atom_site_fract_x
_atom_site_fract_y
_atom_site_fract_z
Cu1 Cu 0.72793(6) 0.97562(10) 0.18459(2)
P1 P 0.49751(11) 0.46015(17) 0.17575(5)
S1 S 0.61419(11) 0.68457(18) 0.23754(5)
S2 S 0.59271(12) 0.2573(2) 0.11872(5)
N1 N 0.6669(4) 0.3136(6) 0.38412(16)
C1 C 0.5854(6) 0.1336(10) 0.3675(2)
H1 H 0.5718 0.0868 0.3236
C2 C 0.5173(7) 0.0066(11) 0.4108(2)
H2 H 0.4602 -0.1203 0.3955
C3 C 0.5337(4) 0.0670(7) 0.47575(19)
C4 C 0.6245(9) 0.2475(13) 0.4931(3)
H3 H 0.6449 0.2933 0.5371
C5 C 0.6870(9) 0.3638(12) 0.4467(3)
H4 H 0.7480 0.4872 0.4611
C6 C 0.3119(6) 0.1385(9) 0.1991(3)
H5 H 0.2700 0.0773 0.2351
H6 H 0.3629 0.0173 0.1806
H7 H 0.2371 0.1982 0.1658
C7 C 0.3858(6) 0.6972(10) 0.0694(2)
H8 H 0.2971 0.7701 0.0499
H9 H 0.4104 0.5788 0.0403
H10 H 0.4611 0.8115 0.0765
O1 O 0.4101(3) 0.3220(5) 0.22277(15)
O2 O 0.3692(3) 0.5953(6) 0.13083(15)
Cu1A Cu 0.77207(6) 0.47562(10) 0.31541(2)
Cu1_2 Cu 0.72793(6) -0.02438(10) 0.18459(2)
Cu1A_2 Cu 0.77207(6) -0.52438(10) 0.31541(2)
Cu1C Cu 0.22793(6) -0.47562(10) 0.68459(2)
P1A P 1.00249(11) -0.03985(17) 0.32425(5)
S1A S 0.88581(11) 0.18457(18) 0.26246(5)
S1A_2 S 0.88581(11) 1.18457(18) 0.26246(5)
S2_2 S 0.59271(12) 1.2573(2) 0.11872(5)
S2A S 0.90729(12) 0.7573(2) 0.38128(5)
S2A_2 S 0.90729(12) -0.2427(2) 0.38128(5)
N1A N 0.8331(4) 0.8136(6) 0.11588(16)
N1B N 0.3331(4) -0.3136(6) 0.61588(16)
C1B C 0.4146(6) -0.1336(10) 0.6325(2)
H1B H 0.4282 -0.0868 0.6764
C2B C 0.4827(7) -0.0066(11) 0.5892(2)
H2B H 0.5398 0.1203 0.6045
C3B C 0.4663(4) -0.0670(7) 0.52425(19)
C4B C 0.3755(9) -0.2475(13) 0.5069(3)
H3B H 0.3551 -0.2933 0.4629
C5B C 0.3130(9) -0.3638(12) 0.5533(3)
H4B H 0.2520 -0.4872 0.5389
C6A C 1.1881(6) -0.3615(9) 0.3009(3)
H5A H 1.2300 -0.4227 0.2649
H6A H 1.1371 -0.4827 0.3194
H7A H 1.2629 -0.3018 0.3342
C7A C 1.1142(6) 0.1972(10) 0.4306(2)
H8A H 1.2029 0.2701 0.4501
H9A H 1.0896 0.0788 0.4597
H10A H 1.0389 0.3115 0.4235
O1A O 1.0899(3) -0.1780(5) 0.27723(15)
O2A O 1.1308(3) 0.0953(6) 0.36917(15)
loop_
_geom_bond_atom_site_label_1
_geom_bond_atom_site_label_2
_geom_bond_site_symmetry_1
_geom_bond_site_symmetry_2
Cu1 S1 1_555 1_555
P1 S1 1_555 1_555
S1 Cu1A 1_555 1_555
S2 P1 1_555 1_555
N1 C1 1_555 1_555
C1 H1 1_555 1_555
C2 C1 1_555 1_555
H2 C2 1_555 1_555
C3 C2 1_555 1_555
C4 C3 1_555 1_555
H3 C4 1_555 1_555
C5 N1 1_555 1_555
H4 C5 1_555 1_555
C6 H5 1_555 1_555
H6 C6 1_555 1_555
H7 C6 1_555 1_555
C7 H8 1_555 1_555
H9 C7 1_555 1_555
H10 C7 1_555 1_555
O1 P1 1_555 1_555
O2 P1 1_555 1_555
Cu1A N1 1_555 1_555
Cu1_2 S2 1_555 1_555
Cu1A_2 S2A_2 1_555 1_555
Cu1C N1B 1_555 1_555
P1A S1A 1_555 1_555
S1A Cu1A 1_555 1_555
S1A_2 Cu1 1_555 1_555
S2_2 Cu1 1_555 1_555
S2A Cu1A 1_555 1_555
S2A_2 P1A 1_555 1_555
N1A Cu1 1_555 1_555
N1B C1B 1_555 1_555
C1B H1B 1_555 1_555
C2B C1B 1_555 1_555
H2B C2B 1_555 1_555
C3B C3 1_555 1_555
C4B C3B 1_555 1_555
H3B C4B 1_555 1_555
C5B N1B 1_555 1_555
H4B C5B 1_555 1_555
C6A H5A 1_555 1_555
H6A C6A 1_555 1_555
H7A C6A 1_555 1_555
C7A H8A 1_555 1_555
H9A C7A 1_555 1_555
H10A C7A 1_555 1_555
O1A P1A 1_555 1_555
O2A P1A 1_555 1_555
C4 C5 1_555 1_555
C6 O1 1_555 1_555
C7 O2 1_555 1_555
Cu1_2 S1A 1_555 1_555
C2B C3B 1_555 1_555
C4B C5B 1_555 1_555
C6A O1A 1_555 1_555
C7A O2A 1_555 1_555

#END
