
#######################################################################
#
#                 Cambridge Crystallographic Data Centre
#                                CCDC 
#
#######################################################################
#
# If this CIF has been generated from an entry in the Cambridge 
# Structural Database, then it will include bibliographic, chemical, 
# crystal, experimental, refinement or atomic coordinate data resulting 
# from the CCDC's data processing and validation procedures.
#
#######################################################################

data_DECWAL
_symmetry_cell_setting           monoclinic
_symmetry_space_group_name_H-M   'P 21/c'
_symmetry_Int_Tables_number      14
_space_group_name_Hall           '-P 2ybc'
loop_
_symmetry_equiv_pos_site_id
_symmetry_equiv_pos_as_xyz
1 x,y,z
2 -x,1/2+y,1/2-z
3 -x,-y,-z
4 x,1/2-y,1/2+z
_cell_length_a                   10.7410(11)
_cell_length_b                   25.637(2)
_cell_length_c                   7.3568(6)
_cell_angle_alpha                90
_cell_angle_beta                 94.445(1)
_cell_angle_gamma                90
_cell_volume                     2019.73
loop_
_atom_site_label
_atom_site_type_symbol
_atom_site_fract_x
_atom_site_fract_y
_atom_site_fract_z
N1 N 1.0369(4) 0.64727(14) 1.0582(6)
H1 H 1.1164 0.6520 1.0658
C1 C 0.9952(5) 0.60211(19) 1.1136(7)
H2 H 0.9091 0.5978 1.1098
C2 C 1.0687(4) 0.56013(18) 1.1773(7)
C3 C 1.2017(5) 0.56428(19) 1.1882(7)
Sn1 Sn 0.45979(3) 0.854903(13) 0.69295(6)
O1 O 0.6151(3) 0.80394(15) 0.7406(6)
O2 O 0.7583(4) 0.86308(14) 0.8397(7)
O3 O 1.2553(3) 0.60657(14) 1.1416(6)
C4 C 0.7237(5) 0.8176(2) 0.8157(8)
C5 C 0.8087(5) 0.77267(19) 0.8686(7)
C6 C 0.9302(5) 0.7813(2) 0.9428(7)
H3 H 0.9610 0.8152 0.9533
C7 C 1.0059(5) 0.73954(19) 1.0013(7)
H4 H 1.0871 0.7455 1.0502
C8 C 0.9598(5) 0.68907(19) 0.9865(7)
C9 C 0.8413(5) 0.67998(19) 0.9073(7)
H5 H 0.8119 0.6460 0.8922
C10 C 0.7664(5) 0.7217(2) 0.8505(7)
H6 H 0.6860 0.7154 0.7990
C11 C 1.2740(5) 0.5198(2) 1.2546(8)
H7 H 1.3607 0.5215 1.2613
C12 C 1.2181(5) 0.4758(2) 1.3070(8)
H8 H 1.2679 0.4481 1.3500
C13 C 1.0850(5) 0.47001(19) 1.2990(7)
C14 C 1.0086(5) 0.51217(19) 1.2347(7)
C15 C 0.8779(5) 0.5050(2) 1.2270(8)
H9 H 0.8253 0.5322 1.1873
C16 C 0.8273(6) 0.4581(2) 1.2778(9)
H10 H 0.7410 0.4538 1.2679
C17 C 0.9033(6) 0.4173(2) 1.3433(8)
H11 H 0.8681 0.3860 1.3783
C18 C 1.0291(6) 0.4232(2) 1.3560(8)
H12 H 1.0796 0.3962 1.4028
C19 C 0.4460(7) 0.8665(3) 0.9681(11)
H13 H 0.5073 0.8455 1.0362
H14 H 0.3640 0.8566 0.9992
H15 H 0.4602 0.9026 0.9970
C20 C 0.3684(7) 0.7925(3) 0.5470(13)
H16 H 0.3254 0.7713 0.6296
H17 H 0.4290 0.7717 0.4908
H18 H 0.3094 0.8064 0.4547
C21 C 0.5372(6) 0.9125(3) 0.5283(11)
H19 H 0.5851 0.9368 0.6046
H20 H 0.4712 0.9308 0.4596
H21 H 0.5904 0.8961 0.4462
Sn1C Sn 1.45979(3) 0.645097(13) 1.19295(6)
O3C O 0.2553(3) 0.89343(14) 0.6416(6)
loop_
_geom_bond_atom_site_label_1
_geom_bond_atom_site_label_2
_geom_bond_site_symmetry_1
_geom_bond_site_symmetry_2
N1 H1 1_555 1_555
C1 N1 1_555 1_555
H2 C1 1_555 1_555
C2 C1 1_555 1_555
C3 C2 1_555 1_555
Sn1 O1 1_555 1_555
O1 C4 1_555 1_555
O2 C4 1_555 1_555
O3 C3 1_555 1_555
C4 C5 1_555 1_555
C5 C6 1_555 1_555
C6 H3 1_555 1_555
C7 C6 1_555 1_555
H4 C7 1_555 1_555
C8 N1 1_555 1_555
C9 C8 1_555 1_555
H5 C9 1_555 1_555
C10 C5 1_555 1_555
H6 C10 1_555 1_555
C11 C3 1_555 1_555
H7 C11 1_555 1_555
C12 C11 1_555 1_555
H8 C12 1_555 1_555
C13 C12 1_555 1_555
C14 C2 1_555 1_555
C15 C14 1_555 1_555
H9 C15 1_555 1_555
C16 C15 1_555 1_555
H10 C16 1_555 1_555
C17 C16 1_555 1_555
H11 C17 1_555 1_555
C18 C13 1_555 1_555
H12 C18 1_555 1_555
C19 Sn1 1_555 1_555
H13 C19 1_555 1_555
H14 C19 1_555 1_555
H15 C19 1_555 1_555
C20 Sn1 1_555 1_555
H16 C20 1_555 1_555
H17 C20 1_555 1_555
H18 C20 1_555 1_555
C21 Sn1 1_555 1_555
H19 C21 1_555 1_555
H20 C21 1_555 1_555
H21 C21 1_555 1_555
Sn1C O3 1_555 1_555
O3C Sn1 1_555 1_555
C7 C8 1_555 1_555
C9 C10 1_555 1_555
C13 C14 1_555 1_555
C17 C18 1_555 1_555

#END
