
#######################################################################
#
#                 Cambridge Crystallographic Data Centre
#                                CCDC 
#
#######################################################################
#
# If this CIF has been generated from an entry in the Cambridge 
# Structural Database, then it will include bibliographic, chemical, 
# crystal, experimental, refinement or atomic coordinate data resulting 
# from the CCDC's data processing and validation procedures.
#
#######################################################################

data_DEDDIB
_symmetry_cell_setting           triclinic
_symmetry_space_group_name_H-M   'P -1'
_symmetry_Int_Tables_number      2
_space_group_name_Hall           '-P 1'
loop_
_symmetry_equiv_pos_site_id
_symmetry_equiv_pos_as_xyz
1 x,y,z
2 -x,-y,-z
_cell_length_a                   14.2668(4)
_cell_length_b                   17.1976(6)
_cell_length_c                   34.8740(11)
_cell_angle_alpha                75.848(3)
_cell_angle_beta                 87.853(2)
_cell_angle_gamma                67.651(3)
_cell_volume                     7658.89
loop_
_atom_site_label
_atom_site_type_symbol
_atom_site_fract_x
_atom_site_fract_y
_atom_site_fract_z
C3 C 0.0276(14) 0.8213(13) 0.5855(7)
H7 H 0.0674 0.8150 0.5629
H8 H -0.0397 0.8265 0.5791
H9 H 0.0584 0.7713 0.6072
C4 C 0.0227(14) 0.8939(14) 0.5962(7)
H10 H -0.0046 0.9430 0.5734
H11 H 0.0915 0.8875 0.6022
O2 O -0.0359(7) 0.9149(6) 0.6290(3)
H12 H -0.0808 0.8955 0.6309
C5 C -0.0169(7) 0.9864(7) 0.7856(4)
C6 C -0.0479(7) 1.0743(6) 0.7686(3)
H13 H -0.0748 1.1125 0.7847
C7 C -0.0410(7) 1.1084(7) 0.7288(4)
C8 C -0.0023(7) 1.0516(6) 0.7047(3)
C9 C 0.0287(7) 0.9629(6) 0.7209(3)
H14 H 0.0534 0.9253 0.7045
C10 C 0.0239(8) 0.9291(7) 0.7608(3)
C11 C -0.0386(9) 0.9582(7) 0.8283(4)
C12 C -0.0825(9) 1.2059(8) 0.7125(5)
C13 C 0.0185(7) 1.0800(6) 0.6619(3)
C14 C 0.0733(8) 0.8355(7) 0.7777(4)
C15 C -0.3080(9) 1.4008(7) 0.6965(4)
C16 C -0.3604(16) 1.3663(12) 0.7219(6)
H15 H -0.3282 1.3278 0.7456
C17 C -0.468(2) 1.3868(15) 0.7136(9)
H16 H -0.5045 1.3678 0.7338
C18 C -0.5099(15) 1.4269(15) 0.6821(7)
H17 H -0.5761 1.4337 0.6764
C19 C -0.4598(17) 1.4617(13) 0.6552(7)
H18 H -0.4943 1.4942 0.6309
C20 C -0.3597(14) 1.4540(11) 0.6602(5)
H19 H -0.3292 1.4823 0.6407
C21 C -0.1467(9) 1.4310(8) 0.7569(4)
C22 C -0.1735(11) 1.3969(10) 0.7952(6)
H20 H -0.1937 1.3502 0.7990
C23 C -0.1701(12) 1.4324(12) 0.8275(6)
H21 H -0.1896 1.4103 0.8522
C24 C -0.1382(12) 1.4983(11) 0.8219(6)
H22 H -0.1397 1.5242 0.8426
C25 C -0.1052(14) 1.5265(10) 0.7881(6)
H23 H -0.0756 1.5671 0.7857
C26 C -0.1145(13) 1.4955(10) 0.7554(5)
H24 H -0.0973 1.5214 0.7310
C27 C -0.0844(8) 1.4283(7) 0.6616(3)
C28 C -0.1124(10) 1.5168(7) 0.6467(4)
H25 H -0.1650 1.5547 0.6578
C29 C -0.0634(11) 1.5505(9) 0.6156(5)
H26 H -0.0840 1.6104 0.6063
C30 C 0.0150(11) 1.4967(11) 0.5982(4)
H27 H 0.0468 1.5194 0.5772
C31 C 0.0440(9) 1.4105(9) 0.6127(4)
H28 H 0.0988 1.3732 0.6023
C32 C -0.0065(9) 1.3755(8) 0.6431(4)
H29 H 0.0125 1.3156 0.6511
C33 C 0.3215(9) 0.6514(7) 0.7797(4)
C34 C 0.3852(11) 0.5958(9) 0.7594(4)
H30 H 0.3607 0.5630 0.7481
C35 C 0.4832(13) 0.5872(10) 0.7553(5)
H31 H 0.5237 0.5512 0.7401
C36 C 0.5219(11) 0.6298(12) 0.7729(6)
H32 H 0.5900 0.6220 0.7710
C37 C 0.4607(13) 0.6846(9) 0.7934(4)
H33 H 0.4875 0.7150 0.8055
C38 C 0.3607(10) 0.6970(7) 0.7971(4)
H34 H 0.3199 0.7356 0.8112
C39 C 0.1239(8) 0.6172(7) 0.8407(3)
C40 C 0.1943(12) 0.5491(10) 0.8674(5)
H35 H 0.2601 0.5222 0.8603
C41 C 0.1649(15) 0.5201(12) 0.9063(6)
H36 H 0.2127 0.4752 0.9248
C42 C 0.0690(13) 0.5570(11) 0.9165(5)
H37 H 0.0494 0.5374 0.9416
C43 C 0.0046(13) 0.6205(11) 0.8903(6)
H38 H -0.0611 0.6473 0.8975
C44 C 0.0295(12) 0.6513(10) 0.8513(5)
H39 H -0.0202 0.6952 0.8332
C45 C 0.1471(8) 0.5943(7) 0.7431(4)
C46 C 0.1365(10) 0.6281(9) 0.7036(4)
H40 H 0.1358 0.6837 0.6936
C47 C 0.1265(11) 0.5812(12) 0.6769(5)
H41 H 0.1119 0.6075 0.6499
C48 C 0.1387(13) 0.4965(13) 0.6916(6)
H42 H 0.1418 0.4622 0.6744
C49 C 0.1461(14) 0.4636(11) 0.7296(6)
H43 H 0.1443 0.4088 0.7391
C50 C 0.1566(12) 0.5089(8) 0.7568(5)
H44 H 0.1697 0.4816 0.7836
C51 C -0.2485(8) 0.8315(6) 0.8535(4)
C52 C -0.2997(9) 0.7824(7) 0.8777(4)
H45 H -0.3163 0.7887 0.9031
C53 C -0.3240(11) 0.7249(8) 0.8621(6)
H46 H -0.3549 0.6907 0.8779
C54 C -0.3044(12) 0.7174(10) 0.8254(7)
H47 H -0.3259 0.6813 0.8153
C55 C -0.2515(11) 0.7634(12) 0.8019(5)
H48 H -0.2333 0.7551 0.7769
C56 C -0.2275(10) 0.8203(9) 0.8163(4)
H49 H -0.1953 0.8530 0.8002
C57 C -0.1005(8) 0.8428(7) 0.9319(3)
C58 C -0.1145(11) 0.7742(8) 0.9583(4)
H50 H -0.1630 0.7548 0.9518
C59 C -0.0585(15) 0.7341(9) 0.9938(5)
H51 H -0.0726 0.6908 1.0118
C60 C 0.0178(13) 0.7574(11) 1.0027(5)
H52 H 0.0589 0.7282 1.0259
C61 C 0.0320(10) 0.8242(12) 0.9769(5)
H53 H 0.0827 0.8414 0.9832
C62 C -0.0246(9) 0.8675(9) 0.9422(4)
H54 H -0.0127 0.9134 0.9254
C63 C -0.2607(8) 1.0473(7) 0.8624(4)
C64 C -0.2930(9) 1.0951(8) 0.8904(4)
H55 H -0.2872 1.0668 0.9171
C65 C -0.3341(10) 1.1854(9) 0.8786(6)
H56 H -0.3550 1.2169 0.8978
C66 C -0.3441(11) 1.2281(9) 0.8401(6)
H57 H -0.3718 1.2885 0.8325
C67 C -0.3114(11) 1.1790(10) 0.8113(5)
H58 H -0.3168 1.2063 0.7845
C68 C -0.2724(10) 1.0913(8) 0.8239(4)
H59 H -0.2524 1.0594 0.8050
C69 C -0.4166(9) 0.9654(6) 0.9251(3)
C70 C -0.4624(7) 0.9818(6) 0.9636(3)
C71 C -0.4875(7) 0.9216(6) 0.9927(3)
C72 C -0.4754(7) 1.0596(6) 0.9722(3)
H60 H -0.4585 1.1004 0.9537
C73 C -0.4795(8) 0.8380(7) 0.9843(4)
C74 C -0.6064(9) 0.7097(7) 0.9508(4)
C75 C -0.6839(9) 0.6789(8) 0.9615(4)
H61 H -0.6817 0.6442 0.9868
C76 C -0.7651(12) 0.7007(11) 0.9341(6)
H62 H -0.8165 0.6800 0.9409
C77 C -0.7677(14) 0.7528(12) 0.8970(7)
H63 H -0.8225 0.7697 0.8790
C78 C -0.6910(16) 0.7793(10) 0.8868(5)
H64 H -0.6933 0.8136 0.8614
C79 C -0.6106(11) 0.7580(8) 0.9121(5)
H65 H -0.5577 0.7757 0.9036
C80 C -0.5147(11) 0.6075(8) 1.0478(4)
C81 C -0.5986(11) 0.6390(8) 1.0682(5)
H66 H -0.6453 0.6942 1.0562
C82 C -0.6222(12) 0.5992(11) 1.1039(5)
H67 H -0.6819 0.6253 1.1156
C83 C -0.5526(18) 0.5190(13) 1.1214(5)
H68 H -0.5644 0.4897 1.1461
C84 C -0.4648(14) 0.4795(9) 1.1036(6)
H69 H -0.4186 0.4245 1.1161
C85 C -0.4463(10) 0.5235(8) 1.0664(4)
H70 H -0.3883 0.4969 1.0539
C86 C -0.3394(8) 0.6058(7) 0.9777(4)
C87 C -0.3250(10) 0.5424(8) 0.9592(4)
H71 H -0.3818 0.5330 0.9528
C88 C -0.2297(12) 0.4893(8) 0.9489(5)
H72 H -0.2233 0.4456 0.9365
C89 C -0.1472(11) 0.5049(10) 0.9579(5)
H73 H -0.0828 0.4723 0.9514
C90 C -0.1603(11) 0.5685(10) 0.9766(5)
H74 H -0.1047 0.5792 0.9832
C91 C -0.2528(10) 0.6157(8) 0.9853(4)
H75 H -0.2585 0.6592 0.9977
C92 C -0.6138(8) 1.1969(7) 0.8586(4)
C93 C -0.6123(9) 1.2451(8) 0.8838(4)
H76 H -0.6170 1.2240 0.9107
C94 C -0.6043(10) 1.3232(10) 0.8710(6)
H77 H -0.5984 1.3519 0.8896
C95 C -0.6046(12) 1.3591(10) 0.8340(8)
H78 H -0.6054 1.4150 0.8261
C96 C -0.6037(12) 1.3126(13) 0.8054(5)
H79 H -0.6006 1.3359 0.7786
C97 C -0.6076(9) 1.2317(10) 0.8189(5)
H80 H -0.6061 1.1996 0.8008
C98 C -0.6338(10) 1.0147(7) 0.8311(4)
C99 C -0.5439(12) 0.9674(9) 0.8192(5)
H81 H -0.4845 0.9655 0.8301
C100 C -0.5373(13) 0.9197(9) 0.7899(5)
H82 H -0.4744 0.8869 0.7822
C101 C -0.6232(18) 0.9234(10) 0.7739(5)
H83 H -0.6203 0.8924 0.7551
C102 C -0.7152(15) 0.9726(13) 0.7851(6)
H84 H -0.7755 0.9780 0.7733
C103 C -0.7162(11) 1.0135(10) 0.8142(5)
H85 H -0.7791 1.0428 0.8231
C104 C -0.7017(7) 1.0369(6) 0.9280(3)
C105 C -0.7122(9) 0.9588(8) 0.9328(4)
H86 H -0.6884 0.9271 0.9139
C106 C -0.7570(10) 0.9265(9) 0.9650(5)
H87 H -0.7659 0.8747 0.9675
C107 C -0.7879(10) 0.9717(11) 0.9929(4)
H88 H -0.8168 0.9497 1.0151
C108 C -0.7778(9) 1.0502(9) 0.9893(4)
H89 H -0.7989 1.0799 1.0091
C109 C -0.7363(8) 1.0836(8) 0.9565(4)
H90 H -0.7314 1.1371 0.9533
C110 C -0.8641(16) 1.2633(14) 0.8301(7)
H91 H -0.8191 1.2804 0.8115
H92 H -0.9254 1.2711 0.8158
C111 C -0.887(2) 1.3105(19) 0.8600(10)
H93 H -0.9195 1.3715 0.8479
H94 H -0.8251 1.2998 0.8742
H95 H -0.9312 1.2920 0.8780
C112 C 0.2476(7) 0.9746(7) 0.6358(4)
C113 C 0.2705(9) 0.9206(8) 0.6086(5)
H96 H 0.2669 0.9449 0.5815
C114 C 0.2985(13) 0.8314(10) 0.6231(7)
H97 H 0.3152 0.7964 0.6053
C115 C 0.3022(13) 0.7928(10) 0.6637(7)
H98 H 0.3179 0.7336 0.6730
C116 C 0.2823(10) 0.8441(11) 0.6881(5)
H99 H 0.2865 0.8193 0.7152
C117 C 0.2554(9) 0.9340(9) 0.6753(4)
H100 H 0.2426 0.9668 0.6939
C118 C 0.1125(9) 1.1854(7) 0.5622(3)
C119 C 0.0095(9) 1.1998(8) 0.5571(4)
H101 H -0.0215 1.1744 0.5776
C120 C -0.0459(10) 1.2508(10) 0.5226(5)
H102 H -0.1139 1.2587 0.5203
C121 C -0.0071(10) 1.2891(8) 0.4923(4)
H103 H -0.0456 1.3219 0.4688
C122 C 0.0919(11) 1.2786(8) 0.4971(4)
H104 H 0.1199 1.3085 0.4772
C123 C 0.1513(9) 1.2249(8) 0.5307(4)
H105 H 0.2200 1.2154 0.5320
C124 C 0.2532(8) 1.1764(7) 0.6480(3)
C125 C 0.3053(8) 1.2285(7) 0.6292(4)
H106 H 0.3228 1.2296 0.6032
C126 C 0.3306(11) 1.2786(9) 0.6495(6)
H107 H 0.3649 1.3132 0.6370
C127 C 0.3060(12) 1.2774(10) 0.6874(6)
H108 H 0.3194 1.3142 0.7000
C128 C 0.2626(11) 1.2243(9) 0.7070(5)
H109 H 0.2519 1.2199 0.7338
C129 C 0.2336(9) 1.1756(8) 0.6871(4)
H110 H 0.1998 1.1413 0.7005
C130 C 0.4272(8) 1.0500(6) 0.5729(3)
C131 C 0.4665(7) 1.0266(6) 0.5345(3)
C132 C 0.4939(7) 1.0807(6) 0.5041(3)
C133 C 0.4724(7) 0.9460(6) 0.5303(3)
H111 H 0.4537 0.9098 0.5508
C134 C 0.4894(8) 1.1659(6) 0.5081(4)
C135 C 0.5871(8) 1.3745(7) 0.4584(4)
C136 C 0.6647(13) 1.3283(10) 0.4408(5)
H112 H 0.6792 1.2691 0.4454
C137 C 0.7278(15) 1.3631(14) 0.4153(6)
H113 H 0.7804 1.3279 0.4032
C138 C 0.7086(13) 1.4486(12) 0.4094(5)
H114 H 0.7450 1.4741 0.3915
C139 C 0.6400(14) 1.4945(11) 0.4286(5)
H115 H 0.6314 1.5517 0.4267
C140 C 0.5788(11) 1.4590(9) 0.4521(5)
H116 H 0.5282 1.4951 0.4647
C141 C 0.3500(8) 1.4006(7) 0.4893(4)
C142 C 0.3172(10) 1.4686(9) 0.4557(4)
H117 H 0.3639 1.4784 0.4378
C143 C 0.2161(15) 1.5218(10) 0.4486(5)
H118 H 0.1955 1.5660 0.4254
C144 C 0.1458(11) 1.5117(10) 0.4744(6)
H119 H 0.0780 1.5492 0.4694
C145 C 0.1764(12) 1.4458(10) 0.5077(5)
H120 H 0.1292 1.4378 0.5257
C146 C 0.2778(11) 1.3903(9) 0.5150(4)
H121 H 0.2972 1.3451 0.5378
C147 C 0.5794(9) 1.2910(7) 0.5563(4)
C148 C 0.6692(10) 1.3061(8) 0.5582(5)
H122 H 0.6932 1.3319 0.5354
C149 C 0.7215(11) 1.2815(9) 0.5950(5)
H123 H 0.7822 1.2891 0.5967
C150 C 0.6838(13) 1.2454(10) 0.6296(5)
H124 H 0.7182 1.2307 0.6541
C151 C 0.5965(10) 1.2321(8) 0.6269(4)
H125 H 0.5714 1.2081 0.6498
C152 C 0.5448(9) 1.2537(7) 0.5910(4)
H126 H 0.4858 1.2432 0.5898
C153 C 0.6239(11) 0.8364(9) 0.6244(5)
C154 C 0.5683(15) 0.8140(13) 0.6525(7)
H127 H 0.5312 0.8535 0.6668
C155 C 0.5637(17) 0.7214(17) 0.6622(9)
H128 H 0.5449 0.6911 0.6851
C156 C 0.5979(18) 0.6953(14) 0.6245(9)
H129 H 0.5618 0.6650 0.6178
C157 C 0.660(2) 0.7023(18) 0.5998(9)
H130 H 0.6940 0.6633 0.5848
C158 C 0.6689(13) 0.7833(11) 0.5988(6)
H131 H 0.7078 0.8019 0.5795
C159 C 0.6345(10) 1.0058(8) 0.6672(4)
C160 C 0.7148(10) 1.0144(8) 0.6845(5)
H132 H 0.7781 0.9950 0.6741
C161 C 0.7052(13) 1.0501(10) 0.7162(5)
H133 H 0.7608 1.0564 0.7262
C162 C 0.6171(15) 1.0758(10) 0.7327(5)
H134 H 0.6120 1.0992 0.7544
C163 C 0.5312(12) 1.0686(9) 0.7180(5)
H135 H 0.4701 1.0857 0.7303
C164 C 0.5389(12) 1.0354(8) 0.6851(4)
H136 H 0.4820 1.0323 0.6744
C165 C 0.7170(8) 0.9979(8) 0.5682(4)
C166 C 0.7413(11) 0.9565(10) 0.5377(5)
H137 H 0.7221 0.9104 0.5380
C167 C 0.7946(12) 0.9841(13) 0.5065(5)
H138 H 0.8135 0.9540 0.4869
C168 C 0.8188(13) 1.0516(14) 0.5042(6)
H139 H 0.8520 1.0705 0.4827
C169 C 0.7943(14) 1.0934(10) 0.5339(7)
H140 H 0.8114 1.1409 0.5328
C170 C 0.7437(11) 1.0653(10) 0.5659(5)
H141 H 0.7281 1.0941 0.5861
C171 C 0.8442(14) 0.8057(14) 0.6870(7)
H142 H 0.9062 0.8070 0.6967
H143 H 0.7905 0.8266 0.7043
C172 C 0.8580(16) 0.7233(16) 0.6846(8)
H144 H 0.8758 0.6844 0.7105
H145 H 0.9115 0.7041 0.6674
H146 H 0.7962 0.7241 0.6741
O3 O -0.1141(6) 1.2393(5) 0.6782(3)
O4 O -0.0834(6) 1.2514(4) 0.7369(2)
O5 O -0.0112(6) 1.0561(5) 0.6364(2)
O6 O 0.0767(5) 1.1235(4) 0.6556(2)
O7 O 0.1285(6) 0.8052(4) 0.8080(3)
O8 O 0.0698(5) 0.7846(4) 0.7555(2)
O9 O -0.0121(6) 0.9848(5) 0.8537(3)
O10 O -0.0871(5) 0.9074(4) 0.8341(2)
O11 O -0.3272(5) 0.9228(4) 0.9261(2)
O12 O -0.4768(5) 1.0033(4) 0.8934(2)
O13 O -0.4619(6) 0.8227(4) 0.9514(2)
O14 O -0.4890(5) 0.7795(4) 1.0137(2)
O15 O -0.8123(6) 1.1707(5) 0.8546(3)
H147 H -0.849(6) 1.149(4) 0.8618(13)
O16 O 0.3321(5) 1.0834(4) 0.5740(2)
O17 O 0.4872(5) 1.0325(4) 0.6015(2)
O18 O 0.4398(6) 1.1995(4) 0.5337(3)
O19 O 0.5310(5) 1.2079(4) 0.4820(2)
O20 O 0.8140(5) 0.8609(5) 0.6430(3)
H148 H 0.864(7) 0.8570(7) 0.626(2)
Sn1 Sn -0.15628(6) 1.38047(5) 0.70921(3)
Sn2 Sn 0.17007(6) 0.66005(5) 0.78401(3)
Sn3 Sn -0.19742(6) 0.90973(5) 0.87933(2)
Sn4 Sn -0.48533(6) 0.67489(5) 0.99275(3)
Sn5 Sn -0.63619(6) 1.07923(5) 0.87551(3)
Sn6 Sn 0.19926(6) 1.10929(5) 0.61593(2)
Sn7 Sn 0.50580(6) 1.32085(5) 0.50026(3)
Sn8 Sn 0.64757(6) 0.95271(5) 0.61862(3)
C69A C -0.5834(9) 1.0346(6) 1.0749(3)
C70A C -0.5376(7) 1.0182(6) 1.0364(3)
C71A C -0.5125(7) 1.0784(6) 1.0073(3)
C72A C -0.5246(7) 0.9404(6) 1.0278(3)
H60A H -0.5415 0.8996 1.0463
C73A C -0.5205(8) 1.1620(7) 1.0157(4)
O11A O -0.6728(5) 1.0772(4) 1.0739(2)
O12A O -0.5232(5) 0.9967(4) 1.1066(2)
O13A O -0.5381(6) 1.1773(4) 1.0486(2)
O14A O -0.5110(5) 1.2205(4) 0.9863(2)
C130A C 0.5728(8) 0.9500(6) 0.4271(3)
C131A C 0.5335(7) 0.9734(6) 0.4655(3)
C132A C 0.5061(7) 0.9193(6) 0.4959(3)
C133A C 0.5276(7) 1.0540(6) 0.4697(3)
H111A H 0.5463 1.0902 0.4492
C134A C 0.5106(8) 0.8341(6) 0.4919(4)
O16A O 0.6679(5) 0.9166(4) 0.4260(2)
O17A O 0.5128(5) 0.9675(4) 0.3985(2)
O18A O 0.5602(6) 0.8005(4) 0.4663(3)
O19A O 0.4690(5) 0.7921(4) 0.5180(2)
C5A C -0.9831(7) 1.0136(7) 1.2144(4)
C6A C -0.9521(7) 0.9257(6) 1.2314(3)
H13A H -0.9252 0.8875 1.2153
C7A C -0.9590(7) 0.8916(7) 1.2712(4)
C8A C -0.9977(7) 0.9484(6) 1.2953(3)
C9A C -1.0287(7) 1.0371(6) 1.2791(3)
H14A H -1.0534 1.0747 1.2955
C10A C -1.0239(8) 1.0709(7) 1.2392(3)
C11A C -0.9614(9) 1.0418(7) 1.1717(4)
C12A C -0.9175(9) 0.7941(8) 1.2875(5)
C13A C -1.0185(7) 0.9200(6) 1.3381(3)
C14A C -1.0733(8) 1.1645(7) 1.2223(4)
C15A C -0.6920(9) 0.5992(7) 1.3035(4)
C16A C -0.6396(16) 0.6337(12) 1.2781(6)
H15A H -0.6718 0.6722 1.2544
C17A C -0.532(2) 0.6132(15) 1.2864(9)
H16A H -0.4955 0.6322 1.2662
C18A C -0.4901(15) 0.5731(15) 1.3179(7)
H17A H -0.4239 0.5663 1.3236
C19A C -0.5402(17) 0.5383(13) 1.3448(7)
H18A H -0.5057 0.5058 1.3691
C20A C -0.6403(14) 0.5460(11) 1.3398(5)
H19A H -0.6708 0.5177 1.3593
C21A C -0.8533(9) 0.5690(8) 1.2431(4)
C22A C -0.8265(11) 0.6031(10) 1.2048(6)
H20A H -0.8063 0.6498 1.2010
C23A C -0.8299(12) 0.5676(12) 1.1725(6)
H21A H -0.8104 0.5897 1.1478
C24A C -0.8618(12) 0.5017(11) 1.1781(6)
H22A H -0.8603 0.4758 1.1574
C25A C -0.8948(14) 0.4735(10) 1.2119(6)
H23A H -0.9244 0.4329 1.2143
C26A C -0.8855(13) 0.5045(10) 1.2446(5)
H24A H -0.9027 0.4786 1.2690
C27A C -0.9156(8) 0.5717(7) 1.3384(3)
C28A C -0.8876(10) 0.4832(7) 1.3533(4)
H25A H -0.8350 0.4453 1.3422
C29A C -0.9366(11) 0.4495(9) 1.3844(5)
H26A H -0.9160 0.3896 1.3937
C30A C -1.0150(11) 0.5033(11) 1.4018(4)
H27A H -1.0468 0.4806 1.4228
C31A C -1.0440(9) 0.5895(9) 1.3873(4)
H28A H -1.0988 0.6268 1.3977
C32A C -0.9935(9) 0.6245(8) 1.3569(4)
H29A H -1.0125 0.6844 1.3489
C33A C -1.3215(9) 1.3486(7) 1.2203(4)
C34A C -1.3852(11) 1.4042(9) 1.2406(4)
H30A H -1.3607 1.4370 1.2519
C35A C -1.4832(13) 1.4128(10) 1.2447(5)
H31A H -1.5237 1.4488 1.2599
C36A C -1.5219(11) 1.3702(12) 1.2271(6)
H32A H -1.5900 1.3780 1.2290
C37A C -1.4607(13) 1.3154(9) 1.2066(4)
H33A H -1.4875 1.2850 1.1945
C38A C -1.3607(10) 1.3030(7) 1.2029(4)
H34A H -1.3199 1.2644 1.1888
C39A C -1.1239(8) 1.3828(7) 1.1593(3)
C40A C -1.1943(12) 1.4509(10) 1.1326(5)
H35A H -1.2601 1.4778 1.1397
C41A C -1.1649(15) 1.4799(12) 1.0937(6)
H36A H -1.2127 1.5248 1.0752
C42A C -1.0690(13) 1.4430(11) 1.0835(5)
H37A H -1.0494 1.4626 1.0584
C43A C -1.0046(13) 1.3795(11) 1.1097(6)
H38A H -0.9389 1.3527 1.1025
C44A C -1.0295(12) 1.3487(10) 1.1487(5)
H39A H -0.9798 1.3048 1.1668
C45A C -1.1471(8) 1.4057(7) 1.2569(4)
C46A C -1.1365(10) 1.3719(9) 1.2964(4)
H40A H -1.1358 1.3163 1.3064
C47A C -1.1265(11) 1.4188(12) 1.3231(5)
H41A H -1.1119 1.3925 1.3501
C48A C -1.1387(13) 1.5035(13) 1.3084(6)
H42A H -1.1418 1.5378 1.3256
C49A C -1.1461(14) 1.5364(11) 1.2704(6)
H43A H -1.1443 1.5912 1.2609
C50A C -1.1566(12) 1.4911(8) 1.2432(5)
H44A H -1.1697 1.5184 1.2164
C51A C -0.7515(8) 1.1685(6) 1.1465(4)
C52A C -0.7003(9) 1.2176(7) 1.1223(4)
H45A H -0.6837 1.2113 1.0969
C53A C -0.6760(11) 1.2751(8) 1.1379(6)
H46A H -0.6451 1.3093 1.1221
C54A C -0.6956(12) 1.2826(10) 1.1746(7)
H47A H -0.6741 1.3187 1.1847
C55A C -0.7485(11) 1.2366(12) 1.1981(5)
H48A H -0.7667 1.2449 1.2231
C56A C -0.7725(10) 1.1797(9) 1.1837(4)
H49A H -0.8047 1.1470 1.1998
C57A C -0.8995(8) 1.1572(7) 1.0681(3)
C58A C -0.8855(11) 1.2258(8) 1.0417(4)
H50A H -0.8370 1.2452 1.0482
C59A C -0.9415(15) 1.2659(9) 1.0062(5)
H51A H -0.9274 1.3092 0.9882
C60A C -1.0178(13) 1.2426(11) 0.9973(5)
H52A H -1.0589 1.2718 0.9741
C61A C -1.0320(10) 1.1758(12) 1.0231(5)
H53A H -1.0827 1.1586 1.0168
C62A C -0.9754(9) 1.1325(9) 1.0578(4)
H54A H -0.9873 1.0866 1.0746
C63A C -0.7393(8) 0.9527(7) 1.1376(4)
C64A C -0.7070(9) 0.9049(8) 1.1096(4)
H55A H -0.7128 0.9332 1.0829
C65A C -0.6659(10) 0.8146(9) 1.1214(6)
H56A H -0.6450 0.7831 1.1022
C66A C -0.6559(11) 0.7719(9) 1.1599(6)
H57A H -0.6282 0.7115 1.1675
C67A C -0.6886(11) 0.8210(10) 1.1887(5)
H58A H -0.6832 0.7937 1.2155
C68A C -0.7276(10) 0.9087(8) 1.1761(4)
H59A H -0.7476 0.9406 1.1950
C74A C -0.3936(9) 1.2903(7) 1.0492(4)
C75A C -0.3161(9) 1.3211(8) 1.0385(4)
H61A H -0.3183 1.3558 1.0132
C76A C -0.2349(12) 1.2993(11) 1.0659(6)
H62A H -0.1835 1.3200 1.0591
C77A C -0.2323(14) 1.2472(12) 1.1030(7)
H63A H -0.1775 1.2303 1.1210
C78A C -0.3090(16) 1.2207(10) 1.1132(5)
H64A H -0.3067 1.1864 1.1386
C79A C -0.3894(11) 1.2420(8) 1.0879(5)
H65A H -0.4423 1.2243 1.0964
C80A C -0.4853(11) 1.3925(8) 0.9522(4)
C81A C -0.4014(11) 1.3610(8) 0.9318(5)
H66A H -0.3547 1.3058 0.9438
C82A C -0.3778(12) 1.4008(11) 0.8961(5)
H67A H -0.3181 1.3747 0.8844
C83A C -0.4474(18) 1.4810(13) 0.8786(5)
H68A H -0.4356 1.5103 0.8539
C84A C -0.5352(14) 1.5205(9) 0.8964(6)
H69A H -0.5814 1.5755 0.8839
C85A C -0.5537(10) 1.4765(8) 0.9336(4)
H70A H -0.6117 1.5031 0.9461
C86A C -0.6606(8) 1.3942(7) 1.0223(4)
C87A C -0.6750(10) 1.4576(8) 1.0408(4)
H71A H -0.6182 1.4670 1.0472
C88A C -0.7703(12) 1.5107(8) 1.0511(5)
H72A H -0.7767 1.5544 1.0635
C89A C -0.8528(11) 1.4951(10) 1.0421(5)
H73A H -0.9172 1.5277 1.0486
C90A C -0.8397(11) 1.4315(10) 1.0234(5)
H74A H -0.8953 1.4208 1.0168
C91A C -0.7472(10) 1.3843(8) 1.0147(4)
H75A H -0.7415 1.3408 1.0023
C92A C -0.3862(8) 0.8031(7) 1.1414(4)
C93A C -0.3877(9) 0.7549(8) 1.1162(4)
H76A H -0.3830 0.7760 1.0893
C94A C -0.3957(10) 0.6768(10) 1.1290(6)
H77A H -0.4016 0.6481 1.1104
C95A C -0.3954(12) 0.6409(10) 1.1660(8)
H78A H -0.3946 0.5850 1.1739
C96A C -0.3963(12) 0.6874(13) 1.1946(5)
H79A H -0.3994 0.6641 1.2214
C97A C -0.3924(9) 0.7683(10) 1.1811(5)
H80A H -0.3939 0.8004 1.1992
C98A C -0.3662(10) 0.9853(7) 1.1689(4)
C99A C -0.4561(12) 1.0326(9) 1.1808(5)
H81A H -0.5155 1.0345 1.1699
C100A C -0.4627(13) 1.0803(9) 1.2101(5)
H82A H -0.5256 1.1131 1.2178
C101A C -0.3768(18) 1.0766(10) 1.2261(5)
H83A H -0.3797 1.1076 1.2449
C102A C -0.2848(15) 1.0274(13) 1.2149(6)
H84A H -0.2245 1.0220 1.2267
C103A C -0.2838(11) 0.9865(10) 1.1858(5)
H85A H -0.2209 0.9572 1.1769
C104A C -0.2983(7) 0.9631(6) 1.0720(3)
C105A C -0.2878(9) 1.0412(8) 1.0672(4)
H86A H -0.3116 1.0729 1.0861
C106A C -0.2430(10) 1.0735(9) 1.0350(5)
H87A H -0.2341 1.1253 1.0325
C107A C -0.2121(10) 1.0283(11) 1.0071(4)
H88A H -0.1832 1.0503 0.9849
C108A C -0.2222(9) 0.9498(9) 1.0107(4)
H89A H -0.2011 0.9201 0.9909
C109A C -0.2637(8) 0.9164(8) 1.0435(4)
H90A H -0.2686 0.8629 1.0467
C110A C -0.1359(16) 0.7367(14) 1.1699(7)
H91A H -0.1809 0.7196 1.1885
H92A H -0.0746 0.7289 1.1842
C111A C -0.113(2) 0.6895(19) 1.1400(10)
H93A H -0.0805 0.6285 1.1521
H94A H -0.1749 0.7002 1.1258
H95A H -0.0688 0.7080 1.1220
C112A C -1.2476(7) 1.0254(7) 1.3642(4)
C113A C -1.2705(9) 1.0794(8) 1.3914(5)
H96A H -1.2669 1.0551 1.4185
C114A C -1.2985(13) 1.1686(10) 1.3769(7)
H97A H -1.3152 1.2036 1.3947
C115A C -1.3022(13) 1.2072(10) 1.3363(7)
H98A H -1.3179 1.2664 1.3270
C116A C -1.2823(10) 1.1559(11) 1.3119(5)
H99A H -1.2865 1.1807 1.2848
C117A C -1.2554(9) 1.0660(9) 1.3247(4)
H100A H -1.2426 1.0332 1.3061
C118A C -1.1125(9) 0.8146(7) 1.4378(3)
C119A C -1.0095(9) 0.8002(8) 1.4429(4)
H101A H -0.9785 0.8256 1.4224
C120A C -0.9541(10) 0.7492(10) 1.4774(5)
H102A H -0.8861 0.7413 1.4797
C121A C -0.9929(10) 0.7109(8) 1.5077(4)
H103A H -0.9544 0.6781 1.5312
C122A C -1.0919(11) 0.7214(8) 1.5029(4)
H104A H -1.1199 0.6915 1.5228
C123A C -1.1513(9) 0.7751(8) 1.4693(4)
H105A H -1.2200 0.7846 1.4680
C124A C -1.2532(8) 0.8236(7) 1.3520(3)
C125A C -1.3053(8) 0.7715(7) 1.3708(4)
H106A H -1.3228 0.7704 1.3968
C126A C -1.3306(11) 0.7214(9) 1.3505(6)
H107A H -1.3649 0.6868 1.3630
C127A C -1.3060(12) 0.7226(10) 1.3126(6)
H108A H -1.3194 0.6858 1.3000
C128A C -1.2626(11) 0.7757(9) 1.2930(5)
H109A H -1.2519 0.7801 1.2662
C129A C -1.2336(9) 0.8244(8) 1.3129(4)
H110A H -1.1998 0.8587 1.2995
O3A O -0.8859(6) 0.7607(5) 1.3218(3)
O4A O -0.9166(6) 0.7486(4) 1.2631(2)
O5A O -0.9888(6) 0.9439(5) 1.3636(2)
O6A O -1.0767(5) 0.8765(4) 1.3444(2)
O7A O -1.1285(6) 1.1948(4) 1.1920(3)
O8A O -1.0698(5) 1.2154(4) 1.2445(2)
O9A O -0.9879(6) 1.0152(5) 1.1463(3)
O10A O -0.9129(5) 1.0926(4) 1.1659(2)
O15A O -0.1877(6) 0.8293(5) 1.1454(3)
H147A H -0.151(6) 0.851(4) 1.1382(13)
Sn1A Sn -0.84372(6) 0.61953(5) 1.29079(3)
Sn2A Sn -1.17007(6) 1.33995(5) 1.21599(3)
Sn3A Sn -0.80258(6) 1.09027(5) 1.12067(2)
Sn4A Sn -0.51467(6) 1.32511(5) 1.00725(3)
Sn5A Sn -0.36381(6) 0.92077(5) 1.12449(3)
Sn6A Sn -1.19926(6) 0.89071(5) 1.38407(2)
C153A C 0.3761(11) 1.1636(9) 0.3756(5)
C154A C 0.4317(15) 1.1860(13) 0.3475(7)
H127A H 0.4688 1.1465 0.3332
C155A C 0.4363(17) 1.2786(17) 0.3378(9)
H128A H 0.4551 1.3089 0.3149
C156A C 0.4021(18) 1.3047(14) 0.3755(9)
H129A H 0.4382 1.3350 0.3822
C157A C 0.340(2) 1.2977(18) 0.4002(9)
H130A H 0.3060 1.3367 0.4152
C158A C 0.3311(13) 1.2167(11) 0.4012(6)
H131A H 0.2922 1.1981 0.4205
C159A C 0.3655(10) 0.9942(8) 0.3328(4)
C160A C 0.2852(10) 0.9856(8) 0.3155(5)
H132A H 0.2219 1.0050 0.3259
C161A C 0.2948(13) 0.9499(10) 0.2838(5)
H133A H 0.2392 0.9436 0.2738
C162A C 0.3829(15) 0.9242(10) 0.2673(5)
H134A H 0.3880 0.9008 0.2456
C163A C 0.4688(12) 0.9314(9) 0.2820(5)
H135A H 0.5299 0.9143 0.2697
C164A C 0.4611(12) 0.9646(8) 0.3149(4)
H136A H 0.5180 0.9677 0.3256
C165A C 0.2830(8) 1.0021(8) 0.4318(4)
C166A C 0.2587(11) 1.0435(10) 0.4623(5)
H137A H 0.2779 1.0896 0.4620
C167A C 0.2054(12) 1.0159(13) 0.4935(5)
H138A H 0.1865 1.0460 0.5131
C168A C 0.1812(13) 0.9484(14) 0.4958(6)
H139A H 0.1480 0.9295 0.5173
C169A C 0.2057(14) 0.9066(10) 0.4661(7)
H140A H 0.1886 0.8591 0.4672
C170A C 0.2563(11) 0.9347(10) 0.4341(5)
H141A H 0.2719 0.9059 0.4139
C171A C 0.1558(14) 1.1943(14) 0.3130(7)
H142A H 0.0938 1.1930 0.3033
H143A H 0.2095 1.1734 0.2957
C172A C 0.1420(16) 1.2767(16) 0.3154(8)
H144A H 0.1242 1.3156 0.2895
H145A H 0.0885 1.2959 0.3326
H146A H 0.2038 1.2759 0.3259
O20A O 0.1860(5) 1.1391(5) 0.3570(3)
H148A H 0.136(7) 1.1430(7) 0.374(2)
Sn8A Sn 0.35243(6) 1.04729(5) 0.38138(3)
C135A C 0.4129(8) 0.6255(7) 0.5416(4)
C136A C 0.3353(13) 0.6717(10) 0.5592(5)
H112A H 0.3208 0.7309 0.5546
C137A C 0.2722(15) 0.6369(14) 0.5847(6)
H113A H 0.2196 0.6721 0.5968
C138A C 0.2914(13) 0.5514(12) 0.5906(5)
H114A H 0.2550 0.5259 0.6085
C139A C 0.3600(14) 0.5055(11) 0.5714(5)
H115A H 0.3686 0.4483 0.5733
C140A C 0.4212(11) 0.5410(9) 0.5479(5)
H116A H 0.4718 0.5049 0.5353
C141A C 0.6500(8) 0.5994(7) 0.5107(4)
C142A C 0.6828(10) 0.5314(9) 0.5443(4)
H117A H 0.6361 0.5216 0.5622
C143A C 0.7839(15) 0.4782(10) 0.5514(5)
H118A H 0.8045 0.4340 0.5746
C144A C 0.8542(11) 0.4883(10) 0.5256(6)
H119A H 0.9220 0.4508 0.5306
C145A C 0.8236(12) 0.5542(10) 0.4923(5)
H120A H 0.8708 0.5622 0.4743
C146A C 0.7222(11) 0.6097(9) 0.4850(4)
H121A H 0.7028 0.6549 0.4622
C147A C 0.4206(9) 0.7090(7) 0.4437(4)
C148A C 0.3308(10) 0.6939(8) 0.4418(5)
H122A H 0.3068 0.6681 0.4646
C149A C 0.2785(11) 0.7185(9) 0.4050(5)
H123A H 0.2178 0.7109 0.4033
C150A C 0.3162(13) 0.7546(10) 0.3704(5)
H124A H 0.2818 0.7693 0.3459
C151A C 0.4035(10) 0.7679(8) 0.3731(4)
H125A H 0.4286 0.7919 0.3502
C152A C 0.4552(9) 0.7463(7) 0.4090(4)
H126A H 0.5142 0.7568 0.4102
Sn7A Sn 0.49420(6) 0.67915(5) 0.49974(3)
O16A_2 O -1.3321(5) 0.9166(4) 1.4260(2)
Sn6A_2 Sn 0.80074(6) 0.89071(5) 0.38407(2)
C1 C -0.0898(17) 0.187(2) 0.8983(11)
H1 H -0.1250 0.1976 0.9216
H2 H -0.1325 0.1780 0.8805
H3 H -0.0733 0.2356 0.8854
C2 C 0.000(2) 0.1122(15) 0.9089(6)
H4 H -0.0137 0.0607 0.9210
H5 H 0.0461 0.1189 0.9263
O1 O 0.0386(10) 0.1116(8) 0.8671(4)
H6 H 0.0269 0.0750 0.8590
loop_
_geom_bond_atom_site_label_1
_geom_bond_atom_site_label_2
_geom_bond_site_symmetry_1
_geom_bond_site_symmetry_2
C1 H1 1_555 1_555
H2 C1 1_555 1_555
H3 C1 1_555 1_555
C2 C1 1_555 1_555
H4 C2 1_555 1_555
H5 C2 1_555 1_555
O1 C2 1_555 1_555
H6 O1 1_555 1_555
C3 H7 1_555 1_555
H8 C3 1_555 1_555
H9 C3 1_555 1_555
C4 C3 1_555 1_555
H10 C4 1_555 1_555
H11 C4 1_555 1_555
O2 C4 1_555 1_555
H12 O2 1_555 1_555
C5 C6 1_555 1_555
C6 H13 1_555 1_555
C7 C6 1_555 1_555
C8 C7 1_555 1_555
C9 C8 1_555 1_555
H14 C9 1_555 1_555
C10 C5 1_555 1_555
C11 C5 1_555 1_555
C12 C7 1_555 1_555
C13 C8 1_555 1_555
C14 C10 1_555 1_555
C15 C16 1_555 1_555
C16 H15 1_555 1_555
C17 C16 1_555 1_555
H16 C17 1_555 1_555
C18 C17 1_555 1_555
H17 C18 1_555 1_555
C19 C18 1_555 1_555
H18 C19 1_555 1_555
C20 C15 1_555 1_555
H19 C20 1_555 1_555
C21 C22 1_555 1_555
C22 H20 1_555 1_555
C23 C22 1_555 1_555
H21 C23 1_555 1_555
C24 C23 1_555 1_555
H22 C24 1_555 1_555
C25 C24 1_555 1_555
H23 C25 1_555 1_555
C26 C21 1_555 1_555
H24 C26 1_555 1_555
C27 C28 1_555 1_555
C28 H25 1_555 1_555
C29 C28 1_555 1_555
H26 C29 1_555 1_555
C30 C29 1_555 1_555
H27 C30 1_555 1_555
C31 C30 1_555 1_555
H28 C31 1_555 1_555
C32 C27 1_555 1_555
H29 C32 1_555 1_555
C33 C34 1_555 1_555
C34 H30 1_555 1_555
C35 C34 1_555 1_555
H31 C35 1_555 1_555
C36 C35 1_555 1_555
H32 C36 1_555 1_555
C37 C36 1_555 1_555
H33 C37 1_555 1_555
C38 C33 1_555 1_555
H34 C38 1_555 1_555
C39 C40 1_555 1_555
C40 H35 1_555 1_555
C41 C40 1_555 1_555
H36 C41 1_555 1_555
C42 C41 1_555 1_555
H37 C42 1_555 1_555
C43 C42 1_555 1_555
H38 C43 1_555 1_555
C44 C39 1_555 1_555
H39 C44 1_555 1_555
C45 C46 1_555 1_555
C46 H40 1_555 1_555
C47 C46 1_555 1_555
H41 C47 1_555 1_555
C48 C47 1_555 1_555
H42 C48 1_555 1_555
C49 C48 1_555 1_555
H43 C49 1_555 1_555
C50 C45 1_555 1_555
H44 C50 1_555 1_555
C51 C52 1_555 1_555
C52 H45 1_555 1_555
C53 C52 1_555 1_555
H46 C53 1_555 1_555
C54 C53 1_555 1_555
H47 C54 1_555 1_555
C55 C54 1_555 1_555
H48 C55 1_555 1_555
C56 C51 1_555 1_555
H49 C56 1_555 1_555
C57 C58 1_555 1_555
C58 H50 1_555 1_555
C59 C58 1_555 1_555
H51 C59 1_555 1_555
C60 C59 1_555 1_555
H52 C60 1_555 1_555
C61 C60 1_555 1_555
H53 C61 1_555 1_555
C62 C57 1_555 1_555
H54 C62 1_555 1_555
C63 C64 1_555 1_555
C64 H55 1_555 1_555
C65 C64 1_555 1_555
H56 C65 1_555 1_555
C66 C65 1_555 1_555
H57 C66 1_555 1_555
C67 C66 1_555 1_555
H58 C67 1_555 1_555
C68 C63 1_555 1_555
H59 C68 1_555 1_555
C69 C70 1_555 1_555
C70 C71 1_555 1_555
C71 C73 1_555 1_555
C72 C70 1_555 1_555
H60 C72 1_555 1_555
C73 O13 1_555 1_555
C74 C75 1_555 1_555
C75 H61 1_555 1_555
C76 C75 1_555 1_555
H62 C76 1_555 1_555
C77 C76 1_555 1_555
H63 C77 1_555 1_555
C78 C77 1_555 1_555
H64 C78 1_555 1_555
C79 C74 1_555 1_555
H65 C79 1_555 1_555
C80 C81 1_555 1_555
C81 H66 1_555 1_555
C82 C81 1_555 1_555
H67 C82 1_555 1_555
C83 C82 1_555 1_555
H68 C83 1_555 1_555
C84 C83 1_555 1_555
H69 C84 1_555 1_555
C85 C80 1_555 1_555
H70 C85 1_555 1_555
C86 C87 1_555 1_555
C87 H71 1_555 1_555
C88 C87 1_555 1_555
H72 C88 1_555 1_555
C89 C88 1_555 1_555
H73 C89 1_555 1_555
C90 C89 1_555 1_555
H74 C90 1_555 1_555
C91 C86 1_555 1_555
H75 C91 1_555 1_555
C92 C93 1_555 1_555
C93 H76 1_555 1_555
C94 C93 1_555 1_555
H77 C94 1_555 1_555
C95 C94 1_555 1_555
H78 C95 1_555 1_555
C96 C95 1_555 1_555
H79 C96 1_555 1_555
C97 C92 1_555 1_555
H80 C97 1_555 1_555
C98 C99 1_555 1_555
C99 H81 1_555 1_555
C100 C99 1_555 1_555
H82 C100 1_555 1_555
C101 C100 1_555 1_555
H83 C101 1_555 1_555
C102 C101 1_555 1_555
H84 C102 1_555 1_555
C103 C98 1_555 1_555
H85 C103 1_555 1_555
C104 C105 1_555 1_555
C105 H86 1_555 1_555
C106 C105 1_555 1_555
H87 C106 1_555 1_555
C107 C106 1_555 1_555
H88 C107 1_555 1_555
C108 C107 1_555 1_555
H89 C108 1_555 1_555
C109 C104 1_555 1_555
H90 C109 1_555 1_555
C110 H91 1_555 1_555
H92 C110 1_555 1_555
C111 C110 1_555 1_555
H93 C111 1_555 1_555
H94 C111 1_555 1_555
H95 C111 1_555 1_555
C112 C113 1_555 1_555
C113 H96 1_555 1_555
C114 C113 1_555 1_555
H97 C114 1_555 1_555
C115 C114 1_555 1_555
H98 C115 1_555 1_555
C116 C115 1_555 1_555
H99 C116 1_555 1_555
C117 C112 1_555 1_555
H100 C117 1_555 1_555
C118 C119 1_555 1_555
C119 H101 1_555 1_555
C120 C119 1_555 1_555
H102 C120 1_555 1_555
C121 C120 1_555 1_555
H103 C121 1_555 1_555
C122 C121 1_555 1_555
H104 C122 1_555 1_555
C123 C118 1_555 1_555
H105 C123 1_555 1_555
C124 C125 1_555 1_555
C125 H106 1_555 1_555
C126 C125 1_555 1_555
H107 C126 1_555 1_555
C127 C126 1_555 1_555
H108 C127 1_555 1_555
C128 C127 1_555 1_555
H109 C128 1_555 1_555
C129 C124 1_555 1_555
H110 C129 1_555 1_555
C130 C131 1_555 1_555
C131 C132 1_555 1_555
C132 C134 1_555 1_555
C133 C131 1_555 1_555
H111 C133 1_555 1_555
C134 O18 1_555 1_555
C135 C136 1_555 1_555
C136 H112 1_555 1_555
C137 C136 1_555 1_555
H113 C137 1_555 1_555
C138 C137 1_555 1_555
H114 C138 1_555 1_555
C139 C138 1_555 1_555
H115 C139 1_555 1_555
C140 C135 1_555 1_555
H116 C140 1_555 1_555
C141 C142 1_555 1_555
C142 H117 1_555 1_555
C143 C142 1_555 1_555
H118 C143 1_555 1_555
C144 C143 1_555 1_555
H119 C144 1_555 1_555
C145 C144 1_555 1_555
H120 C145 1_555 1_555
C146 C141 1_555 1_555
H121 C146 1_555 1_555
C147 C148 1_555 1_555
C148 H122 1_555 1_555
C149 C148 1_555 1_555
H123 C149 1_555 1_555
C150 C149 1_555 1_555
H124 C150 1_555 1_555
C151 C150 1_555 1_555
H125 C151 1_555 1_555
C152 C147 1_555 1_555
H126 C152 1_555 1_555
C153 C154 1_555 1_555
C154 H127 1_555 1_555
C155 C154 1_555 1_555
H128 C155 1_555 1_555
C156 C155 1_555 1_555
H129 C156 1_555 1_555
C157 C156 1_555 1_555
H130 C157 1_555 1_555
C158 C153 1_555 1_555
H131 C158 1_555 1_555
C159 C160 1_555 1_555
C160 H132 1_555 1_555
C161 C160 1_555 1_555
H133 C161 1_555 1_555
C162 C161 1_555 1_555
H134 C162 1_555 1_555
C163 C162 1_555 1_555
H135 C163 1_555 1_555
C164 C159 1_555 1_555
H136 C164 1_555 1_555
C165 C166 1_555 1_555
C166 H137 1_555 1_555
C167 C166 1_555 1_555
H138 C167 1_555 1_555
C168 C167 1_555 1_555
H139 C168 1_555 1_555
C169 C168 1_555 1_555
H140 C169 1_555 1_555
C170 C165 1_555 1_555
H141 C170 1_555 1_555
C171 H142 1_555 1_555
H143 C171 1_555 1_555
C172 C171 1_555 1_555
H144 C172 1_555 1_555
H145 C172 1_555 1_555
H146 C172 1_555 1_555
O3 C12 1_555 1_555
O4 C12 1_555 1_555
O5 C13 1_555 1_555
O6 C13 1_555 1_555
O7 C14 1_555 1_555
O8 C14 1_555 1_555
O9 C11 1_555 1_555
O10 C11 1_555 1_555
O11 C69 1_555 1_555
O12 C69 1_555 1_555
O14 C73 1_555 1_555
O15 C110 1_555 1_555
H147 O15 1_555 1_555
O16 C130 1_555 1_555
O17 C130 1_555 1_555
O19 C134 1_555 1_555
O20 C171 1_555 1_555
H148 O20 1_555 1_555
Sn1 C15 1_555 1_555
Sn2 C33 1_555 1_555
Sn3 C51 1_555 1_555
Sn4 C74 1_555 1_555
Sn5 C92 1_555 1_555
Sn6 C112 1_555 1_555
Sn7 C135 1_555 1_555
Sn8 C153 1_555 1_555
C69A C70A 1_555 1_555
C70A C71A 1_555 1_555
C71A C72 1_555 1_555
C72A C71 1_555 1_555
H60A C72A 1_555 1_555
C73A C71A 1_555 1_555
O11A C69A 1_555 1_555
O12A C69A 1_555 1_555
O13A C73A 1_555 1_555
O14A C73A 1_555 1_555
C130A C131A 1_555 1_555
C131A C132A 1_555 1_555
C132A C133 1_555 1_555
C133A C132 1_555 1_555
H111A C133A 1_555 1_555
C134A C132A 1_555 1_555
O16A C130A 1_555 1_555
O17A C130A 1_555 1_555
O18A C134A 1_555 1_555
O19A C134A 1_555 1_555
C5A C6A 1_555 1_555
C6A H13A 1_555 1_555
C7A C6A 1_555 1_555
C8A C7A 1_555 1_555
C9A C8A 1_555 1_555
H14A C9A 1_555 1_555
C10A C5A 1_555 1_555
C11A C5A 1_555 1_555
C12A C7A 1_555 1_555
C13A C8A 1_555 1_555
C14A C10A 1_555 1_555
C15A C16A 1_555 1_555
C16A H15A 1_555 1_555
C17A C16A 1_555 1_555
H16A C17A 1_555 1_555
C18A C17A 1_555 1_555
H17A C18A 1_555 1_555
C19A C18A 1_555 1_555
H18A C19A 1_555 1_555
C20A C15A 1_555 1_555
H19A C20A 1_555 1_555
C21A C22A 1_555 1_555
C22A H20A 1_555 1_555
C23A C22A 1_555 1_555
H21A C23A 1_555 1_555
C24A C23A 1_555 1_555
H22A C24A 1_555 1_555
C25A C24A 1_555 1_555
H23A C25A 1_555 1_555
C26A C21A 1_555 1_555
H24A C26A 1_555 1_555
C27A C28A 1_555 1_555
C28A H25A 1_555 1_555
C29A C28A 1_555 1_555
H26A C29A 1_555 1_555
C30A C29A 1_555 1_555
H27A C30A 1_555 1_555
C31A C30A 1_555 1_555
H28A C31A 1_555 1_555
C32A C27A 1_555 1_555
H29A C32A 1_555 1_555
C33A C34A 1_555 1_555
C34A H30A 1_555 1_555
C35A C34A 1_555 1_555
H31A C35A 1_555 1_555
C36A C35A 1_555 1_555
H32A C36A 1_555 1_555
C37A C36A 1_555 1_555
H33A C37A 1_555 1_555
C38A C33A 1_555 1_555
H34A C38A 1_555 1_555
C39A C40A 1_555 1_555
C40A H35A 1_555 1_555
C41A C40A 1_555 1_555
H36A C41A 1_555 1_555
C42A C41A 1_555 1_555
H37A C42A 1_555 1_555
C43A C42A 1_555 1_555
H38A C43A 1_555 1_555
C44A C39A 1_555 1_555
H39A C44A 1_555 1_555
C45A C46A 1_555 1_555
C46A H40A 1_555 1_555
C47A C46A 1_555 1_555
H41A C47A 1_555 1_555
C48A C47A 1_555 1_555
H42A C48A 1_555 1_555
C49A C48A 1_555 1_555
H43A C49A 1_555 1_555
C50A C45A 1_555 1_555
H44A C50A 1_555 1_555
C51A C52A 1_555 1_555
C52A H45A 1_555 1_555
C53A C52A 1_555 1_555
H46A C53A 1_555 1_555
C54A C53A 1_555 1_555
H47A C54A 1_555 1_555
C55A C54A 1_555 1_555
H48A C55A 1_555 1_555
C56A C51A 1_555 1_555
H49A C56A 1_555 1_555
C57A C58A 1_555 1_555
C58A H50A 1_555 1_555
C59A C58A 1_555 1_555
H51A C59A 1_555 1_555
C60A C59A 1_555 1_555
H52A C60A 1_555 1_555
C61A C60A 1_555 1_555
H53A C61A 1_555 1_555
C62A C57A 1_555 1_555
H54A C62A 1_555 1_555
C63A C64A 1_555 1_555
C64A H55A 1_555 1_555
C65A C64A 1_555 1_555
H56A C65A 1_555 1_555
C66A C65A 1_555 1_555
H57A C66A 1_555 1_555
C67A C66A 1_555 1_555
H58A C67A 1_555 1_555
C68A C63A 1_555 1_555
H59A C68A 1_555 1_555
C74A C75A 1_555 1_555
C75A H61A 1_555 1_555
C76A C75A 1_555 1_555
H62A C76A 1_555 1_555
C77A C76A 1_555 1_555
H63A C77A 1_555 1_555
C78A C77A 1_555 1_555
H64A C78A 1_555 1_555
C79A C74A 1_555 1_555
H65A C79A 1_555 1_555
C80A C81A 1_555 1_555
C81A H66A 1_555 1_555
C82A C81A 1_555 1_555
H67A C82A 1_555 1_555
C83A C82A 1_555 1_555
H68A C83A 1_555 1_555
C84A C83A 1_555 1_555
H69A C84A 1_555 1_555
C85A C80A 1_555 1_555
H70A C85A 1_555 1_555
C86A C87A 1_555 1_555
C87A H71A 1_555 1_555
C88A C87A 1_555 1_555
H72A C88A 1_555 1_555
C89A C88A 1_555 1_555
H73A C89A 1_555 1_555
C90A C89A 1_555 1_555
H74A C90A 1_555 1_555
C91A C86A 1_555 1_555
H75A C91A 1_555 1_555
C92A C93A 1_555 1_555
C93A H76A 1_555 1_555
C94A C93A 1_555 1_555
H77A C94A 1_555 1_555
C95A C94A 1_555 1_555
H78A C95A 1_555 1_555
C96A C95A 1_555 1_555
H79A C96A 1_555 1_555
C97A C92A 1_555 1_555
H80A C97A 1_555 1_555
C98A C99A 1_555 1_555
C99A H81A 1_555 1_555
C100A C99A 1_555 1_555
H82A C100A 1_555 1_555
C101A C100A 1_555 1_555
H83A C101A 1_555 1_555
C102A C101A 1_555 1_555
H84A C102A 1_555 1_555
C103A C98A 1_555 1_555
H85A C103A 1_555 1_555
C104A C105A 1_555 1_555
C105A H86A 1_555 1_555
C106A C105A 1_555 1_555
H87A C106A 1_555 1_555
C107A C106A 1_555 1_555
H88A C107A 1_555 1_555
C108A C107A 1_555 1_555
H89A C108A 1_555 1_555
C109A C104A 1_555 1_555
H90A C109A 1_555 1_555
C110A H91A 1_555 1_555
H92A C110A 1_555 1_555
C111A C110A 1_555 1_555
H93A C111A 1_555 1_555
H94A C111A 1_555 1_555
H95A C111A 1_555 1_555
C112A C113A 1_555 1_555
C113A H96A 1_555 1_555
C114A C113A 1_555 1_555
H97A C114A 1_555 1_555
C115A C114A 1_555 1_555
H98A C115A 1_555 1_555
C116A C115A 1_555 1_555
H99A C116A 1_555 1_555
C117A C112A 1_555 1_555
H100A C117A 1_555 1_555
C118A C119A 1_555 1_555
C119A H101A 1_555 1_555
C120A C119A 1_555 1_555
H102A C120A 1_555 1_555
C121A C120A 1_555 1_555
H103A C121A 1_555 1_555
C122A C121A 1_555 1_555
H104A C122A 1_555 1_555
C123A C118A 1_555 1_555
H105A C123A 1_555 1_555
C124A C125A 1_555 1_555
C125A H106A 1_555 1_555
C126A C125A 1_555 1_555
H107A C126A 1_555 1_555
C127A C126A 1_555 1_555
H108A C127A 1_555 1_555
C128A C127A 1_555 1_555
H109A C128A 1_555 1_555
C129A C124A 1_555 1_555
H110A C129A 1_555 1_555
O3A C12A 1_555 1_555
O4A C12A 1_555 1_555
O5A C13A 1_555 1_555
O6A C13A 1_555 1_555
O7A C14A 1_555 1_555
O8A C14A 1_555 1_555
O9A C11A 1_555 1_555
O10A C11A 1_555 1_555
O15A C110A 1_555 1_555
H147A O15A 1_555 1_555
Sn1A C15A 1_555 1_555
Sn2A C33A 1_555 1_555
Sn3A O11A 1_555 1_555
Sn4A O14A 1_555 1_555
Sn5A O12A 1_555 1_555
Sn6A C112A 1_555 1_555
C153A C154A 1_555 1_555
C154A H127A 1_555 1_555
C155A C154A 1_555 1_555
H128A C155A 1_555 1_555
C156A C155A 1_555 1_555
H129A C156A 1_555 1_555
C157A C156A 1_555 1_555
H130A C157A 1_555 1_555
C158A C153A 1_555 1_555
H131A C158A 1_555 1_555
C159A C160A 1_555 1_555
C160A H132A 1_555 1_555
C161A C160A 1_555 1_555
H133A C161A 1_555 1_555
C162A C161A 1_555 1_555
H134A C162A 1_555 1_555
C163A C162A 1_555 1_555
H135A C163A 1_555 1_555
C164A C159A 1_555 1_555
H136A C164A 1_555 1_555
C165A C166A 1_555 1_555
C166A H137A 1_555 1_555
C167A C166A 1_555 1_555
H138A C167A 1_555 1_555
C168A C167A 1_555 1_555
H139A C168A 1_555 1_555
C169A C168A 1_555 1_555
H140A C169A 1_555 1_555
C170A C165A 1_555 1_555
H141A C170A 1_555 1_555
C171A H142A 1_555 1_555
H143A C171A 1_555 1_555
C172A C171A 1_555 1_555
H144A C172A 1_555 1_555
H145A C172A 1_555 1_555
H146A C172A 1_555 1_555
O20A C171A 1_555 1_555
H148A O20A 1_555 1_555
Sn8A O17A 1_555 1_555
C135A C136A 1_555 1_555
C136A H112A 1_555 1_555
C137A C136A 1_555 1_555
H113A C137A 1_555 1_555
C138A C137A 1_555 1_555
H114A C138A 1_555 1_555
C139A C138A 1_555 1_555
H115A C139A 1_555 1_555
C140A C135A 1_555 1_555
H116A C140A 1_555 1_555
C141A C142A 1_555 1_555
C142A H117A 1_555 1_555
C143A C142A 1_555 1_555
H118A C143A 1_555 1_555
C144A C143A 1_555 1_555
H119A C144A 1_555 1_555
C145A C144A 1_555 1_555
H120A C145A 1_555 1_555
C146A C141A 1_555 1_555
H121A C146A 1_555 1_555
C147A C148A 1_555 1_555
C148A H122A 1_555 1_555
C149A C148A 1_555 1_555
H123A C149A 1_555 1_555
C150A C149A 1_555 1_555
H124A C150A 1_555 1_555
C151A C150A 1_555 1_555
H125A C151A 1_555 1_555
C152A C147A 1_555 1_555
H126A C152A 1_555 1_555
Sn7A O19A 1_555 1_555
O16A_2 Sn6A 1_555 1_555
Sn6A_2 O16A 1_555 1_555
C9 C10 1_555 1_555
C19 C20 1_555 1_555
C21 Sn1 1_555 1_555
C25 C26 1_555 1_555
C27 Sn1 1_555 1_555
C31 C32 1_555 1_555
C37 C38 1_555 1_555
C39 Sn2 1_555 1_555
C43 C44 1_555 1_555
C45 Sn2 1_555 1_555
C49 C50 1_555 1_555
C55 C56 1_555 1_555
C57 Sn3 1_555 1_555
C61 C62 1_555 1_555
C63 Sn3 1_555 1_555
C67 C68 1_555 1_555
C78 C79 1_555 1_555
C80 Sn4 1_555 1_555
C84 C85 1_555 1_555
C86 Sn4 1_555 1_555
C90 C91 1_555 1_555
C96 C97 1_555 1_555
C98 Sn5 1_555 1_555
C102 C103 1_555 1_555
C104 Sn5 1_555 1_555
C108 C109 1_555 1_555
C116 C117 1_555 1_555
C118 Sn6 1_555 1_555
C122 C123 1_555 1_555
C124 Sn6 1_555 1_555
C128 C129 1_555 1_555
C139 C140 1_555 1_555
C141 Sn7 1_555 1_555
C145 C146 1_555 1_555
C147 Sn7 1_555 1_555
C151 C152 1_555 1_555
C157 C158 1_555 1_555
C159 Sn8 1_555 1_555
C163 C164 1_555 1_555
C165 Sn8 1_555 1_555
C169 C170 1_555 1_555
O4 Sn1 1_555 1_555
O6 Sn6 1_555 1_555
O8 Sn2 1_555 1_555
O10 Sn3 1_555 1_555
O11 Sn3 1_555 1_555
O12 Sn5 1_555 1_555
O14 Sn4 1_555 1_555
O15 Sn5 1_555 1_555
O16 Sn6 1_555 1_555
O17 Sn8 1_555 1_555
O19 Sn7 1_555 1_555
O20 Sn8 1_555 1_555
C70A C72A 1_555 1_555
C131A C133A 1_555 1_555
C9A C10A 1_555 1_555
C19A C20A 1_555 1_555
C21A Sn1A 1_555 1_555
C25A C26A 1_555 1_555
C27A Sn1A 1_555 1_555
C31A C32A 1_555 1_555
C37A C38A 1_555 1_555
C39A Sn2A 1_555 1_555
C43A C44A 1_555 1_555
C45A Sn2A 1_555 1_555
C49A C50A 1_555 1_555
C51A Sn3A 1_555 1_555
C55A C56A 1_555 1_555
C57A Sn3A 1_555 1_555
C61A C62A 1_555 1_555
C63A Sn3A 1_555 1_555
C67A C68A 1_555 1_555
C74A Sn4A 1_555 1_555
C78A C79A 1_555 1_555
C80A Sn4A 1_555 1_555
C84A C85A 1_555 1_555
C86A Sn4A 1_555 1_555
C90A C91A 1_555 1_555
C92A Sn5A 1_555 1_555
C96A C97A 1_555 1_555
C98A Sn5A 1_555 1_555
C102A C103A 1_555 1_555
C104A Sn5A 1_555 1_555
C108A C109A 1_555 1_555
C116A C117A 1_555 1_555
C118A Sn6A 1_555 1_555
C122A C123A 1_555 1_555
C124A Sn6A 1_555 1_555
C128A C129A 1_555 1_555
O4A Sn1A 1_555 1_555
O6A Sn6A 1_555 1_555
O8A Sn2A 1_555 1_555
O10A Sn3A 1_555 1_555
O15A Sn5A 1_555 1_555
C153A Sn8A 1_555 1_555
C157A C158A 1_555 1_555
C159A Sn8A 1_555 1_555
C163A C164A 1_555 1_555
C165A Sn8A 1_555 1_555
C169A C170A 1_555 1_555
O20A Sn8A 1_555 1_555
C135A Sn7A 1_555 1_555
C139A C140A 1_555 1_555
C141A Sn7A 1_555 1_555
C145A C146A 1_555 1_555
C147A Sn7A 1_555 1_555
C151A C152A 1_555 1_555

#END
