
#######################################################################
#
#                 Cambridge Crystallographic Data Centre
#                                CCDC 
#
#######################################################################
#
# If this CIF has been generated from an entry in the Cambridge 
# Structural Database, then it will include bibliographic, chemical, 
# crystal, experimental, refinement or atomic coordinate data resulting 
# from the CCDC's data processing and validation procedures.
#
#######################################################################

data_DEDJAX
_symmetry_cell_setting           monoclinic
_symmetry_space_group_name_H-M   'P 21/n'
_symmetry_Int_Tables_number      14
_space_group_name_Hall           '-P 2yn'
loop_
_symmetry_equiv_pos_site_id
_symmetry_equiv_pos_as_xyz
1 x,y,z
2 1/2-x,1/2+y,1/2-z
3 -x,-y,-z
4 1/2+x,1/2-y,1/2+z
_cell_length_a                   11.288(5)
_cell_length_b                   14.507(6)
_cell_length_c                   11.978(3)
_cell_angle_alpha                90
_cell_angle_beta                 94.17(2)
_cell_angle_gamma                90
_cell_volume                     1956.26
loop_
_atom_site_label
_atom_site_type_symbol
_atom_site_fract_x
_atom_site_fract_y
_atom_site_fract_z
C1 C 0.1182(4) 0.2419(4) -0.2006(4)
Cu1 Cu 0.1226(1) 0.24452(5) 0.36153(6)
O1 O 0.2550(3) 0.3300(3) 0.3833(3)
O2 O -0.0106(3) 0.1588(3) 0.3425(4)
N1 N 0.1265(4) 0.2455(4) 0.1574(3)
C2 C -0.0030(6) 0.0729(4) 0.3465(6)
C3 C 0.2161(5) 0.0628(4) 0.3891(6)
C4 C -0.0746(6) 0.4946(5) 0.3261(8)
C5 C 0.1425(7) 0.4637(4) 0.3784(8)
C6 C 0.3650(6) 0.4636(5) 0.4270(8)
C7 C 0.2221(5) 0.2563(5) -0.2556(4)
C8 C 0.0123(5) 0.2289(4) -0.2658(5)
C9 C 0.1202(4) 0.2432(4) -0.0760(4)
C10 C 0.0318(5) 0.2772(4) 0.0941(5)
C11 C 0.2209(5) 0.2108(4) -0.0114(5)
O3 O 0.2399(3) 0.1460(3) 0.3793(4)
O4 O 0.0057(3) 0.3451(3) 0.3440(3)
N2 N 0.1139(4) 0.2421(4) -0.4345(4)
C12 C -0.1178(4) 0.0212(5) 0.3208(9)
C13 C 0.1040(6) 0.0247(4) 0.3729(8)
C14 C 0.3213(6) 0.0018(5) 0.4199(8)
C15 C 0.0295(5) 0.4280(4) 0.3509(6)
C16 C 0.2483(6) 0.4144(4) 0.3941(6)
C17 C 0.2136(5) 0.2569(5) -0.3709(5)
C18 C 0.0138(5) 0.2279(4) -0.3828(5)
C19 C 0.0222(5) 0.2762(4) -0.0211(5)
C20 C 0.2191(5) 0.2125(4) 0.1053(5)
N2_2 N 0.1139(4) 0.2421(4) 0.5655(4)
Cu1_2 Cu 0.1226(1) 0.24452(5) -0.63847(6)
loop_
_geom_bond_atom_site_label_1
_geom_bond_atom_site_label_2
_geom_bond_site_symmetry_1
_geom_bond_site_symmetry_2
C1 C7 1_555 1_555
Cu1 O1 1_555 1_555
O1 C16 1_555 1_555
O2 Cu1 1_555 1_555
N1 Cu1 1_555 1_555
C2 O2 1_555 1_555
C3 O3 1_555 1_555
C4 C15 1_555 1_555
C5 C15 1_555 1_555
C6 C16 1_555 1_555
C7 C17 1_555 1_555
C8 C1 1_555 1_555
C9 C1 1_555 1_555
C10 N1 1_555 1_555
C11 C9 1_555 1_555
O3 Cu1 1_555 1_555
O4 Cu1 1_555 1_555
N2 C17 1_555 1_555
C12 C2 1_555 1_555
C13 C2 1_555 1_555
C14 C3 1_555 1_555
C15 O4 1_555 1_555
C16 C5 1_555 1_555
C18 C8 1_555 1_555
C19 C9 1_555 1_555
C20 N1 1_555 1_555
N2_2 Cu1 1_555 1_555
Cu1_2 N2 1_555 1_555
C3 C13 1_555 1_555
C10 C19 1_555 1_555
C11 C20 1_555 1_555
N2 C18 1_555 1_555

#END
