
#######################################################################
#
#                 Cambridge Crystallographic Data Centre
#                                CCDC 
#
#######################################################################
#
# If this CIF has been generated from an entry in the Cambridge 
# Structural Database, then it will include bibliographic, chemical, 
# crystal, experimental, refinement or atomic coordinate data resulting 
# from the CCDC's data processing and validation procedures.
#
#######################################################################

data_DEDJAX11
_symmetry_cell_setting           monoclinic
_symmetry_space_group_name_H-M   'P 21/n'
_symmetry_Int_Tables_number      14
_space_group_name_Hall           '-P 2yn'
loop_
_symmetry_equiv_pos_site_id
_symmetry_equiv_pos_as_xyz
1 x,y,z
2 1/2-x,1/2+y,1/2-z
3 -x,-y,-z
4 1/2+x,1/2-y,1/2+z
_cell_length_a                   11.2162(3)
_cell_length_b                   14.3523(7)
_cell_length_c                   11.9411(7)
_cell_angle_alpha                90
_cell_angle_beta                 92.987(4)
_cell_angle_gamma                90
_cell_volume                     1919.65
loop_
_atom_site_label
_atom_site_type_symbol
_atom_site_fract_x
_atom_site_fract_y
_atom_site_fract_z
C1 C 0.9697(7) 0.9301(6) 0.6421(10)
C2 C 0.8562(8) 0.9718(7) 0.6259(13)
H1 H 0.8512 1.0362 0.6330
C3 C 0.7497(7) 0.9223(6) 0.5997(10)
C4 C 0.9995(9) 0.5761(9) 0.6398(10)
C5 C 0.8954(9) 0.5263(7) 0.6254(13)
H2 H 0.9013 0.4618 0.6311
C6 C 0.7784(7) 0.5643(6) 0.6024(9)
C7 C 0.7687(6) 0.7329(7) 0.8746(8)
H3 H 0.6962 0.7237 0.8348
C8 C 0.7812(7) 0.7609(11) 1.3489(8)
H4 H 0.7114 0.7716 1.3857
C9 C 0.7731(7) 0.7609(10) 1.2308(8)
H5 H 0.6997 0.7701 1.1926
C10 C 0.8704(6) 0.7478(5) 1.1741(6)
C11 C 0.9760(7) 0.7186(6) 1.2441(8)
H6 H 1.0449 0.7002 1.2100
C12 C 0.9738(8) 0.7182(6) 1.3596(9)
H7 H 1.0399 0.6977 1.4030
C13 C 0.8688(5) 0.7485(5) 1.0490(6)
C14 C 0.7661(6) 0.7311(7) 0.9889(8)
H8 H 0.6958 0.7184 1.0241
C15 C 0.9725(5) 0.7637(5) 0.9959(7)
H9 H 1.0443 0.7748 1.0362
C16 C 0.9660(6) 0.7617(6) 0.8796(7)
H10 H 1.0364 0.7715 0.8434
C17 C 1.0723(8) 0.9979(8) 0.6696(13)
H11 H 1.1449 0.9635 0.6836
H12 H 1.0553 1.0333 0.7350
H13 H 1.0810 1.0393 0.6074
C18 C 0.6348(8) 0.9734(7) 0.5760(13)
H14 H 0.5730 0.9297 0.5544
H15 H 0.6443 1.0172 0.5163
H16 H 0.6135 1.0061 0.6422
C19 C 1.1155(8) 0.5276(8) 0.6747(14)
H17 H 1.1802 0.5713 0.6727
H18 H 1.1288 0.4772 0.6240
H19 H 1.1109 0.5036 0.7494
C20 C 0.6723(9) 0.5011(6) 0.5783(13)
H20 H 0.6025 0.5381 0.5612
H21 H 0.6599 0.4632 0.6429
H22 H 0.6873 0.4618 0.5155
O1 O 0.9921(4) 0.8454(4) 0.6300(5)
O2 O 0.7419(4) 0.8367(4) 0.5964(5)
O3 O 1.0064(4) 0.6602(5) 0.6302(5)
O4 O 0.7525(4) 0.6499(3) 0.5965(5)
Cu1 Cu 0.87270(6) 0.74723(7) 0.61058(7)
N1 N 0.8641(5) 0.7464(5) 0.8137(5)
N2 N 0.8761(5) 0.7475(4) 1.4089(5)
Cu1_2 Cu 0.87270(6) 0.74723(7) 1.61058(7)
N2_2 N 0.8761(5) 0.7475(4) 0.4089(5)
loop_
_geom_bond_atom_site_label_1
_geom_bond_atom_site_label_2
_geom_bond_site_symmetry_1
_geom_bond_site_symmetry_2
C1 C2 1_555 1_555
C2 H1 1_555 1_555
C3 C2 1_555 1_555
C4 C5 1_555 1_555
C5 H2 1_555 1_555
C6 C5 1_555 1_555
C7 H3 1_555 1_555
C8 H4 1_555 1_555
C9 C8 1_555 1_555
H5 C9 1_555 1_555
C10 C9 1_555 1_555
C11 C10 1_555 1_555
H6 C11 1_555 1_555
C12 C11 1_555 1_555
H7 C12 1_555 1_555
C13 C10 1_555 1_555
C14 C7 1_555 1_555
H8 C14 1_555 1_555
C15 C13 1_555 1_555
H9 C15 1_555 1_555
C16 C15 1_555 1_555
H10 C16 1_555 1_555
C17 C1 1_555 1_555
H11 C17 1_555 1_555
H12 C17 1_555 1_555
H13 C17 1_555 1_555
C18 C3 1_555 1_555
H14 C18 1_555 1_555
H15 C18 1_555 1_555
H16 C18 1_555 1_555
C19 C4 1_555 1_555
H17 C19 1_555 1_555
H18 C19 1_555 1_555
H19 C19 1_555 1_555
C20 C6 1_555 1_555
H20 C20 1_555 1_555
H21 C20 1_555 1_555
H22 C20 1_555 1_555
O1 C1 1_555 1_555
O2 C3 1_555 1_555
O3 C4 1_555 1_555
O4 C6 1_555 1_555
Cu1 O1 1_555 1_555
N1 C7 1_555 1_555
N2 C8 1_555 1_555
Cu1_2 N2 1_555 1_555
N2_2 Cu1 1_555 1_555
C12 N2 1_555 1_555
C13 C14 1_555 1_555
C16 N1 1_555 1_555
O2 Cu1 1_555 1_555
O3 Cu1 1_555 1_555
O4 Cu1 1_555 1_555
Cu1 N1 1_555 1_555

#END
