
#######################################################################
#
#                 Cambridge Crystallographic Data Centre
#                                CCDC 
#
#######################################################################
#
# If this CIF has been generated from an entry in the Cambridge 
# Structural Database, then it will include bibliographic, chemical, 
# crystal, experimental, refinement or atomic coordinate data resulting 
# from the CCDC's data processing and validation procedures.
#
#######################################################################

data_DEDKEE
_symmetry_cell_setting           monoclinic
_symmetry_space_group_name_H-M   'P 21/c'
_symmetry_Int_Tables_number      14
_space_group_name_Hall           '-P 2ybc'
loop_
_symmetry_equiv_pos_site_id
_symmetry_equiv_pos_as_xyz
1 x,y,z
2 -x,1/2+y,1/2-z
3 -x,-y,-z
4 x,1/2-y,1/2+z
_cell_length_a                   10.108(2)
_cell_length_b                   5.2745(11)
_cell_length_c                   13.753(5)
_cell_angle_alpha                90
_cell_angle_beta                 122.38(2)
_cell_angle_gamma                90
_cell_volume                     619.229
loop_
_atom_site_label
_atom_site_type_symbol
_atom_site_fract_x
_atom_site_fract_y
_atom_site_fract_z
Ca1 Ca 0.0000 0.5000 0.0000
P1 P 0.16509(5) 0.50772(8) -0.29436(4)
O1 O 0.52048(16) 0.0757(3) -0.12402(12)
O2 O 0.21754(15) 0.3698(3) -0.00316(10)
O3 O 0.04058(14) 0.3212(2) -0.36865(10)
O4 O 0.15979(15) 0.7605(2) -0.34197(10)
N1 N 0.34319(18) 0.3769(3) -0.23890(13)
N2 N 0.34415(19) 0.2081(3) -0.08225(14)
N3 N 0.17028(18) 0.5418(3) -0.17067(13)
C1 C 0.4087(2) 0.2125(4) -0.14932(15)
C2 C 0.2408(2) 0.3768(3) -0.08248(14)
H1 H 0.387(3) 0.398(5) -0.277(2)
H2 H 0.384(3) 0.105(4) -0.0277(17)
H3 H 0.111(2) 0.641(4) -0.1637(18)
Ca1A Ca 0.0000 0.0000 -0.5000
Ca1A_2 Ca 0.0000 1.0000 -0.5000
Ca1A_3 Ca 0.0000 1.0000 0.5000
Ca1A_4 Ca 0.0000 0.0000 0.5000
P1B P -0.16509(5) 0.49228(8) 0.29436(4)
O1B O -0.52048(16) 0.9243(3) 0.12402(12)
O2B O -0.21754(15) 0.6302(3) 0.00316(10)
O3B O -0.04058(14) 0.6788(2) 0.36865(10)
O3A O -0.04058(14) 0.8212(2) -0.13135(10)
O3C O 0.04058(14) 0.1788(2) 0.13135(10)
O4B O -0.15979(15) 0.2395(2) 0.34197(10)
O4A O -0.15979(15) 0.2605(2) -0.15803(10)
O4C O 0.15979(15) 0.7395(2) 0.15803(10)
N1B N -0.34319(18) 0.6231(3) 0.23890(13)
N2B N -0.34415(19) 0.7919(3) 0.08225(14)
N3B N -0.17028(18) 0.4582(3) 0.17067(13)
C1B C -0.4087(2) 0.7875(4) 0.14932(15)
C2B C -0.2408(2) 0.6232(3) 0.08248(14)
H1B H -0.387(3) 0.602(5) 0.277(2)
H2B H -0.384(3) 0.895(4) 0.0277(17)
H3B H -0.111(2) 0.359(4) 0.1637(18)
loop_
_geom_bond_atom_site_label_1
_geom_bond_atom_site_label_2
_geom_bond_site_symmetry_1
_geom_bond_site_symmetry_2
Ca1 O2 1_555 1_555
P1 O3 1_555 1_555
O1 C1 1_555 1_555
O2 C2 1_555 1_555
O3 Ca1A 1_555 1_555
O4 P1 1_555 1_555
N1 P1 1_555 1_555
N2 C1 1_555 1_555
N3 P1 1_555 1_555
C1 N1 1_555 1_555
C2 N2 1_555 1_555
H1 N1 1_555 1_555
H2 N2 1_555 1_555
H3 N3 1_555 1_555
Ca1A_2 O4 1_555 1_555
Ca1A_3 O3B 1_555 1_555
Ca1A_4 O4B 1_555 1_555
P1B O3B 1_555 1_555
O1B C1B 1_555 1_555
O2B Ca1 1_555 1_555
O3A Ca1 1_555 1_555
O3C Ca1 1_555 1_555
O4B P1B 1_555 1_555
O4A Ca1 1_555 1_555
O4C Ca1 1_555 1_555
N1B P1B 1_555 1_555
N2B C1B 1_555 1_555
N3B P1B 1_555 1_555
C1B N1B 1_555 1_555
C2B O2B 1_555 1_555
H1B N1B 1_555 1_555
H2B N2B 1_555 1_555
H3B N3B 1_555 1_555
N3 C2 1_555 1_555
N2B C2B 1_555 1_555
N3B C2B 1_555 1_555

#END
