
#######################################################################
#
#                 Cambridge Crystallographic Data Centre
#                                CCDC 
#
#######################################################################
#
# If this CIF has been generated from an entry in the Cambridge 
# Structural Database, then it will include bibliographic, chemical, 
# crystal, experimental, refinement or atomic coordinate data resulting 
# from the CCDC's data processing and validation procedures.
#
#######################################################################

data_DEDNUV
_symmetry_cell_setting           orthorhombic
_symmetry_space_group_name_H-M   'P c c n'
_symmetry_Int_Tables_number      56
_space_group_name_Hall           '-P 2ab 2ac'
loop_
_symmetry_equiv_pos_site_id
_symmetry_equiv_pos_as_xyz
1 x,y,z
2 1/2-x,1/2-y,z
3 1/2+x,-y,1/2-z
4 -x,1/2+y,1/2-z
5 -x,-y,-z
6 1/2+x,1/2+y,-z
7 1/2-x,y,1/2+z
8 x,1/2-y,1/2+z
_cell_length_a                   14.718(4)
_cell_length_b                   14.407(4)
_cell_length_c                   7.301(2)
_cell_angle_alpha                90
_cell_angle_beta                 90
_cell_angle_gamma                90
_cell_volume                     1548.12
loop_
_atom_site_label
_atom_site_type_symbol
_atom_site_fract_x
_atom_site_fract_y
_atom_site_fract_z
Ag1 Ag 0.33130(5) 0.18589(6) 0.13167(12)
Br1 Br 0.32902(6) 0.13173(6) 0.49070(13)
N1 N 0.4767(5) 0.1413(5) 0.0545(11)
C1 C 0.5118(6) 0.1606(6) -0.1095(13)
C2 C 0.5951(6) 0.1290(7) -0.1707(13)
C3 C 0.6285(9) 0.1507(9) -0.3585(17)
C4 C 0.6441(6) 0.0742(7) -0.0528(16)
C5 C 0.6117(6) 0.0541(7) 0.1219(16)
C6 C 0.5256(6) 0.0882(7) 0.1696(13)
H1 H 0.477 0.200 -0.192
H2 H 0.582 0.126 -0.444
H3 H 0.628 0.216 -0.374
H4 H 0.683 0.128 -0.403
H5 H 0.702 0.048 -0.092
H6 H 0.646 0.016 0.209
H7 H 0.500 0.072 0.290
Ag1F Ag 0.16870(5) 0.18589(6) 0.63167(12)
Br1F Br 0.17098(6) 0.13173(6) 0.99070(13)
Br1G Br 0.32902(6) 0.36827(6) 0.99070(13)
Ag1G Ag 0.33130(5) 0.31411(6) 0.63167(12)
Br1A Br 0.17098(6) 0.36827(6) 0.49070(13)
Ag1A Ag 0.16870(5) 0.31411(6) 0.13167(12)
Br1G_2 Br 0.32902(6) 0.36827(6) -0.00930(13)
Ag1G_2 Ag 0.33130(5) 0.31411(6) -0.36833(12)
Br1F_2 Br 0.17098(6) 0.13173(6) -0.00930(13)
Ag1F_2 Ag 0.16870(5) 0.18589(6) -0.36833(12)
N1A N 0.0233(5) 0.3587(5) 0.0545(11)
C1A C -0.0118(6) 0.3394(6) -0.1095(13)
C2A C -0.0951(6) 0.3710(7) -0.1707(13)
C3A C -0.1285(9) 0.3493(9) -0.3585(17)
H2A H -0.082 0.374 -0.444
H3A H -0.128 0.284 -0.374
H4A H -0.183 0.372 -0.403
C4A C -0.1441(6) 0.4258(7) -0.0528(16)
C5A C -0.1117(6) 0.4459(7) 0.1219(16)
C6A C -0.0256(6) 0.4118(7) 0.1696(13)
H7A H 0.000 0.428 0.290
H6A H -0.146 0.484 0.209
H5A H -0.202 0.452 -0.092
H1A H 0.023 0.300 -0.192
N1F N 0.0233(5) 0.1413(5) 0.5545(11)
C1F C -0.0118(6) 0.1606(6) 0.3905(13)
C2F C -0.0951(6) 0.1290(7) 0.3293(13)
C3F C -0.1285(9) 0.1507(9) 0.1415(17)
H2F H -0.082 0.126 0.056
H3F H -0.128 0.216 0.126
H4F H -0.183 0.128 0.097
C4F C -0.1441(6) 0.0742(7) 0.4472(16)
C5F C -0.1117(6) 0.0541(7) 0.6219(16)
C6F C -0.0256(6) 0.0882(7) 0.6696(13)
H7F H 0.000 0.072 0.790
H6F H -0.146 0.016 0.709
H5F H -0.202 0.048 0.408
H1F H 0.023 0.200 0.308
N1G N 0.4767(5) 0.3587(5) 0.5545(11)
C1G C 0.5118(6) 0.3394(6) 0.3905(13)
C2G C 0.5951(6) 0.3710(7) 0.3293(13)
C3G C 0.6285(9) 0.3493(9) 0.1415(17)
H2G H 0.582 0.374 0.056
H3G H 0.628 0.284 0.126
H4G H 0.683 0.372 0.097
C4G C 0.6441(6) 0.4258(7) 0.4472(16)
C5G C 0.6117(6) 0.4459(7) 0.6219(16)
C6G C 0.5256(6) 0.4118(7) 0.6696(13)
H7G H 0.500 0.428 0.790
H6G H 0.646 0.484 0.709
H5G H 0.702 0.452 0.408
H1G H 0.477 0.300 0.308
loop_
_geom_bond_atom_site_label_1
_geom_bond_atom_site_label_2
_geom_bond_site_symmetry_1
_geom_bond_site_symmetry_2
Ag1 Br1 1_555 1_555
Br1 Ag1F 1_555 1_555
N1 Ag1 1_555 1_555
C1 N1 1_555 1_555
C2 C1 1_555 1_555
C3 C2 1_555 1_555
C4 C2 1_555 1_555
C5 C4 1_555 1_555
C6 N1 1_555 1_555
H1 C1 1_555 1_555
H2 C3 1_555 1_555
H3 C3 1_555 1_555
H4 C3 1_555 1_555
H5 C4 1_555 1_555
H6 C5 1_555 1_555
H7 C6 1_555 1_555
Ag1F Br1F 1_555 1_555
Br1G Ag1G 1_555 1_555
Ag1G Br1 1_555 1_555
Br1A Ag1F 1_555 1_555
Ag1A Br1A 1_555 1_555
Br1G_2 Ag1 1_555 1_555
Ag1G_2 Br1G_2 1_555 1_555
Br1F_2 Ag1 1_555 1_555
Ag1F_2 Br1F_2 1_555 1_555
N1A Ag1A 1_555 1_555
C1A N1A 1_555 1_555
C2A C1A 1_555 1_555
C3A C2A 1_555 1_555
H2A C3A 1_555 1_555
H3A C3A 1_555 1_555
H4A C3A 1_555 1_555
C4A C2A 1_555 1_555
C5A C4A 1_555 1_555
C6A N1A 1_555 1_555
H7A C6A 1_555 1_555
H6A C5A 1_555 1_555
H5A C4A 1_555 1_555
H1A C1A 1_555 1_555
N1F Ag1F 1_555 1_555
C1F N1F 1_555 1_555
C2F C1F 1_555 1_555
C3F C2F 1_555 1_555
H2F C3F 1_555 1_555
H3F C3F 1_555 1_555
H4F C3F 1_555 1_555
C4F C2F 1_555 1_555
C5F C4F 1_555 1_555
C6F N1F 1_555 1_555
H7F C6F 1_555 1_555
H6F C5F 1_555 1_555
H5F C4F 1_555 1_555
H1F C1F 1_555 1_555
N1G Ag1G 1_555 1_555
C1G N1G 1_555 1_555
C2G C1G 1_555 1_555
C3G C2G 1_555 1_555
H2G C3G 1_555 1_555
H3G C3G 1_555 1_555
H4G C3G 1_555 1_555
C4G C2G 1_555 1_555
C5G C4G 1_555 1_555
C6G N1G 1_555 1_555
H7G C6G 1_555 1_555
H6G C5G 1_555 1_555
H5G C4G 1_555 1_555
H1G C1G 1_555 1_555
C5 C6 1_555 1_555
Ag1G Br1A 1_555 1_555
Ag1A Br1G_2 1_555 1_555
Ag1A Br1F_2 1_555 1_555
C5A C6A 1_555 1_555
C5F C6F 1_555 1_555
C5G C6G 1_555 1_555

#END
