
#######################################################################
#
#                 Cambridge Crystallographic Data Centre
#                                CCDC 
#
#######################################################################
#
# If this CIF has been generated from an entry in the Cambridge 
# Structural Database, then it will include bibliographic, chemical, 
# crystal, experimental, refinement or atomic coordinate data resulting 
# from the CCDC's data processing and validation procedures.
#
#######################################################################

data_DEDPAD01
_symmetry_cell_setting           monoclinic
_symmetry_space_group_name_H-M   'P 21/n'
_symmetry_Int_Tables_number      14
_space_group_name_Hall           '-P 2yn'
loop_
_symmetry_equiv_pos_site_id
_symmetry_equiv_pos_as_xyz
1 x,y,z
2 1/2+x,1/2-y,1/2+z
3 -x,-y,-z
4 1/2-x,1/2+y,1/2-z
_cell_length_a                   8.8523(6)
_cell_length_b                   17.8849(10)
_cell_length_c                   9.9601(7)
_cell_angle_alpha                90
_cell_angle_beta                 99.550(8)
_cell_angle_gamma                90
_cell_volume                     1555.05
loop_
_atom_site_label
_atom_site_type_symbol
_atom_site_fract_x
_atom_site_fract_y
_atom_site_fract_z
Ag1 Ag 0.85489(5) 0.48457(2) 0.39523(4)
Ag2 Ag 0.64810(5) 0.51009(2) 0.61457(4)
Br1 Br 0.59663(6) 0.40156(3) 0.40068(5)
Br2 Br 0.89576(6) 0.59790(3) 0.59770(5)
N1 N 0.7784(5) 0.5661(2) 0.2175(4)
C1 C 0.6405(6) 0.5578(2) 0.1390(5)
H1 H 0.5816 0.5147 0.1512
C2 C 0.5806(6) 0.6099(2) 0.0403(4)
H2 H 0.4836 0.6015 -0.0145
C3 C 0.6626(6) 0.6741(3) 0.0224(4)
C4 C 0.8053(6) 0.6830(3) 0.1042(5)
H3 H 0.8654 0.7261 0.0954
C5 C 0.8590(6) 0.6273(3) 0.1998(5)
H4 H 0.9570 0.6335 0.2542
C6 C 0.5975(7) 0.7327(3) -0.0802(5)
H5 H 0.4984 0.7498 -0.0602
H6 H 0.5834 0.7112 -0.1719
H7 H 0.6682 0.7751 -0.0751
N2 N 0.7301(5) 0.4303(2) 0.7932(4)
C7 C 0.7008(6) 0.3573(2) 0.7799(4)
H8 H 0.6448 0.3399 0.6961
C8 C 0.7476(6) 0.3053(2) 0.8821(4)
H9 H 0.7255 0.2538 0.8662
C9 C 0.8269(6) 0.3284(3) 1.0075(5)
C10 C 0.8568(6) 0.4045(2) 1.0217(4)
H10 H 0.9107 0.4233 1.1053
C11 C 0.8087(5) 0.4531(2) 0.9148(4)
H11 H 0.8318 0.5047 0.9273
C12 C 0.8773(7) 0.2746(3) 1.1210(5)
H12 H 0.8436 0.2241 1.0921
H13 H 0.8321 0.2890 1.2006
H14 H 0.9892 0.2756 1.1446
Br2B Br 1.10424(6) 0.40210(3) 0.40230(5)
Br1B Br 0.40337(6) 0.59844(3) 0.59932(5)
Ag2B Ag 0.35190(5) 0.48991(2) 0.38543(4)
Ag1B Ag 1.14511(5) 0.51543(2) 0.60477(4)
loop_
_geom_bond_atom_site_label_1
_geom_bond_atom_site_label_2
_geom_bond_site_symmetry_1
_geom_bond_site_symmetry_2
Ag1 Br1 1_555 1_555
Ag2 Br1 1_555 1_555
Br1 Ag2B 1_555 1_555
Br2 Ag1 1_555 1_555
N1 Ag1 1_555 1_555
C1 N1 1_555 1_555
H1 C1 1_555 1_555
C2 C1 1_555 1_555
H2 C2 1_555 1_555
C3 C2 1_555 1_555
C4 C3 1_555 1_555
H3 C4 1_555 1_555
C5 N1 1_555 1_555
H4 C5 1_555 1_555
C6 C3 1_555 1_555
H5 C6 1_555 1_555
H6 C6 1_555 1_555
H7 C6 1_555 1_555
N2 Ag2 1_555 1_555
C7 N2 1_555 1_555
H8 C7 1_555 1_555
C8 C7 1_555 1_555
H9 C8 1_555 1_555
C9 C8 1_555 1_555
C10 C9 1_555 1_555
H10 C10 1_555 1_555
C11 N2 1_555 1_555
H11 C11 1_555 1_555
C12 C9 1_555 1_555
H12 C12 1_555 1_555
H13 C12 1_555 1_555
H14 C12 1_555 1_555
Br2B Ag1 1_555 1_555
Br1B Ag2 1_555 1_555
Ag2B Br1B 1_555 1_555
Ag1B Br2 1_555 1_555
Ag2 Br2 1_555 1_555
C4 C5 1_555 1_555
C10 C11 1_555 1_555
Br2B Ag1B 1_555 1_555

#END
