
#######################################################################
#
#                 Cambridge Crystallographic Data Centre
#                                CCDC 
#
#######################################################################
#
# If this CIF has been generated from an entry in the Cambridge 
# Structural Database, then it will include bibliographic, chemical, 
# crystal, experimental, refinement or atomic coordinate data resulting 
# from the CCDC's data processing and validation procedures.
#
#######################################################################

data_DEDQOU
_symmetry_cell_setting           triclinic
_symmetry_space_group_name_H-M   'P -1'
_symmetry_Int_Tables_number      2
_space_group_name_Hall           '-P 1'
loop_
_symmetry_equiv_pos_site_id
_symmetry_equiv_pos_as_xyz
1 x,y,z
2 -x,-y,-z
_cell_length_a                   10.7784(9)
_cell_length_b                   11.3652(10)
_cell_length_c                   12.9887(11)
_cell_angle_alpha                83.028(2)
_cell_angle_beta                 82.818(2)
_cell_angle_gamma                78.780(2)
_cell_volume                     1540.72
loop_
_atom_site_label
_atom_site_type_symbol
_atom_site_fract_x
_atom_site_fract_y
_atom_site_fract_z
C1 C -0.1895(4) 1.1646(3) 0.7057(3)
C2 C -0.2417(4) 1.2357(4) 0.6126(3)
C3 C -0.2042(4) 1.1964(4) 0.5131(4)
H1 H -0.1532 1.1210 0.5065
C4 C -0.2421(5) 1.2681(4) 0.4254(4)
H2 H -0.2210 1.2380 0.3608
C5 C -0.3116(4) 1.3853(4) 0.4310(4)
C6 C -0.3491(4) 1.4229(4) 0.5311(4)
H3 H -0.3964 1.4998 0.5375
C7 C -0.3177(4) 1.3491(4) 0.6204(4)
H4 H -0.3473 1.3751 0.6857
C8 C -0.3443(4) 1.4647(4) 0.3356(4)
C9 C -0.3725(5) 1.4173(4) 0.2496(4)
H5 H -0.3690 1.3346 0.2522
C10 C -0.4056(5) 1.4896(4) 0.1604(4)
H6 H -0.4242 1.4560 0.1036
C11 C -0.4109(4) 1.6131(4) 0.1561(4)
C12 C -0.3810(4) 1.6619(4) 0.2394(4)
H7 H -0.3830 1.7445 0.2356
C13 C -0.3480(4) 1.5896(4) 0.3286(4)
H8 H -0.3281 1.6238 0.3846
C14 C 0.1907(4) 0.9608(3) 0.8988(3)
C15 C 0.3132(4) 0.9270(3) 0.8333(3)
C16 C 0.4100(4) 0.8371(4) 0.8707(4)
H9 H 0.3980 0.7999 0.9381
C17 C 0.5226(4) 0.8024(4) 0.8100(4)
H10 H 0.5851 0.7422 0.8370
C18 C 0.5440(4) 0.8564(4) 0.7085(4)
C19 C 0.4489(4) 0.9491(4) 0.6724(4)
H11 H 0.4621 0.9885 0.6060
C20 C 0.3364(4) 0.9831(4) 0.7328(4)
H12 H 0.2748 1.0446 0.7064
C21 C 0.6613(4) 0.8146(4) 0.6395(4)
C22 C 0.7146(4) 0.6923(4) 0.6389(4)
H13 H 0.6794 0.6366 0.6864
C23 C 0.8181(4) 0.6518(4) 0.5699(4)
H14 H 0.8524 0.5699 0.5718
C24 C 0.8710(4) 0.7343(4) 0.4973(4)
C25 C 0.8220(5) 0.8560(4) 0.5003(4)
H15 H 0.8593 0.9119 0.4548
C26 C 0.7196(5) 0.8956(4) 0.5689(4)
H16 H 0.6883 0.9778 0.5687
C27 C -0.0195(5) 0.8412(4) 0.7894(4)
H17 H 0.0311 0.8813 0.7393
C28 C -0.0131(5) 0.7192(4) 0.7866(4)
H18 H 0.0401 0.6790 0.7349
C29 C -0.0865(4) 0.6565(3) 0.8613(4)
C30 C -0.1691(4) 0.7241(4) 0.9318(3)
H19 H -0.2230 0.6869 0.9813
C31 C -0.1717(4) 0.8458(4) 0.9286(3)
H20 H -0.2294 0.8893 0.9758
C32 C 0.0270(4) 0.3260(4) 0.8331(4)
H21 H 0.1014 0.2758 0.8096
C33 C 0.0265(4) 0.4476(4) 0.8275(4)
H22 H 0.0990 0.4780 0.7996
C34 C -0.0822(4) 0.5253(3) 0.8634(3)
C35 C -0.1878(4) 0.4734(4) 0.9026(4)
H23 H -0.2631 0.5216 0.9272
C36 C -0.1806(4) 0.3510(4) 0.9049(4)
H24 H -0.2522 0.3184 0.9312
Co1 Co -0.08103(5) 1.08849(4) 0.86989(4)
N1 N -0.0957(3) 0.9048(3) 0.8612(3)
N2 N -0.0744(3) 0.2762(3) 0.8707(3)
O1 O -0.2561(3) 1.1536(3) 0.7924(2)
O2 O -0.0701(3) 1.1233(2) 0.6991(2)
O3 O -0.4456(3) 1.6806(3) 0.0656(2)
H25 H -0.4627 1.7522 0.0753
O4 O 0.1094(3) 1.0465(2) 0.8609(2)
O5 O 0.1755(3) 0.9037(2) 0.9870(2)
O6 O 0.9676(3) 0.6906(3) 0.4273(3)
H26 H 0.9856 0.7458 0.3849
Co1_2 Co -0.08103(5) 0.08849(4) 0.86989(4)
Co1A Co 0.08103(5) 0.91151(4) 1.13011(4)
N2_2 N -0.0744(3) 1.2762(3) 0.8707(3)
O5A O -0.1755(3) 1.0963(2) 1.0130(2)
O7 O 0.4727(4) 0.9127(3) 0.0987(3)
H27 H 0.407(3) 0.908(4) 0.140(4)
H28 H 0.482(5) 0.9844(18) 0.086(5)
loop_
_geom_bond_atom_site_label_1
_geom_bond_atom_site_label_2
_geom_bond_site_symmetry_1
_geom_bond_site_symmetry_2
C1 C2 1_555 1_555
C2 C3 1_555 1_555
C3 H1 1_555 1_555
C4 C3 1_555 1_555
H2 C4 1_555 1_555
C5 C4 1_555 1_555
C6 C5 1_555 1_555
H3 C6 1_555 1_555
C7 C2 1_555 1_555
H4 C7 1_555 1_555
C8 C5 1_555 1_555
C9 C8 1_555 1_555
H5 C9 1_555 1_555
C10 C9 1_555 1_555
H6 C10 1_555 1_555
C11 C10 1_555 1_555
C12 C11 1_555 1_555
H7 C12 1_555 1_555
C13 C8 1_555 1_555
H8 C13 1_555 1_555
C14 C15 1_555 1_555
C15 C16 1_555 1_555
C16 H9 1_555 1_555
C17 C16 1_555 1_555
H10 C17 1_555 1_555
C18 C17 1_555 1_555
C19 C18 1_555 1_555
H11 C19 1_555 1_555
C20 C15 1_555 1_555
H12 C20 1_555 1_555
C21 C18 1_555 1_555
C22 C21 1_555 1_555
H13 C22 1_555 1_555
C23 C22 1_555 1_555
H14 C23 1_555 1_555
C24 C23 1_555 1_555
C25 C24 1_555 1_555
H15 C25 1_555 1_555
C26 C21 1_555 1_555
H16 C26 1_555 1_555
C27 H17 1_555 1_555
C28 C27 1_555 1_555
H18 C28 1_555 1_555
C29 C28 1_555 1_555
C30 C29 1_555 1_555
H19 C30 1_555 1_555
C31 C30 1_555 1_555
H20 C31 1_555 1_555
C32 H21 1_555 1_555
C33 C32 1_555 1_555
H22 C33 1_555 1_555
C34 C29 1_555 1_555
C35 C34 1_555 1_555
H23 C35 1_555 1_555
C36 C35 1_555 1_555
H24 C36 1_555 1_555
Co1 N1 1_555 1_555
N1 C27 1_555 1_555
N2 C32 1_555 1_555
O1 C1 1_555 1_555
O2 C1 1_555 1_555
O3 C11 1_555 1_555
H25 O3 1_555 1_555
O4 C14 1_555 1_555
O5 C14 1_555 1_555
O6 C24 1_555 1_555
H26 O6 1_555 1_555
O7 H27 1_555 1_555
H28 O7 1_555 1_555
Co1_2 N2 1_555 1_555
Co1A O5 1_555 1_555
N2_2 Co1 1_555 1_555
O5A Co1 1_555 1_555
C6 C7 1_555 1_555
C12 C13 1_555 1_555
C19 C20 1_555 1_555
C25 C26 1_555 1_555
C31 N1 1_555 1_555
C33 C34 1_555 1_555
C36 N2 1_555 1_555
Co1 O1 1_555 1_555
Co1 O2 1_555 1_555
Co1 O4 1_555 1_555

#END
