
#######################################################################
#
#                 Cambridge Crystallographic Data Centre
#                                CCDC 
#
#######################################################################
#
# If this CIF has been generated from an entry in the Cambridge 
# Structural Database, then it will include bibliographic, chemical, 
# crystal, experimental, refinement or atomic coordinate data resulting 
# from the CCDC's data processing and validation procedures.
#
#######################################################################

data_DEDQAF
_symmetry_cell_setting           monoclinic
_symmetry_space_group_name_H-M   'P 21/c'
_symmetry_Int_Tables_number      14
_space_group_name_Hall           '-P 2ybc'
loop_
_symmetry_equiv_pos_site_id
_symmetry_equiv_pos_as_xyz
1 x,y,z
2 -x,1/2+y,1/2-z
3 -x,-y,-z
4 x,1/2-y,1/2+z
_cell_length_a                   24.760(5)
_cell_length_b                   7.4954(15)
_cell_length_c                   24.485(5)
_cell_angle_alpha                90
_cell_angle_beta                 119.29(3)
_cell_angle_gamma                90
_cell_volume                     3963.14
loop_
_atom_site_label
_atom_site_type_symbol
_atom_site_fract_x
_atom_site_fract_y
_atom_site_fract_z
La1 La 0.012730(9) 0.62634(2) 0.237230(9)
C1 C 0.04156(17) 1.0136(5) 0.11587(16)
C2 C 0.16292(17) 0.0796(4) 0.28080(17)
H1 H 0.1216 0.0367 0.2629
C3 C 0.17460(16) 0.2583(5) 0.29781(15)
C4 C 0.0776(2) 1.0929(6) 0.0431(2)
H2 H 0.0982 1.0627 0.0202
C5 C 0.26975(18) 0.0254(5) 0.31578(18)
H3 H 0.3022 -0.0533 0.3215
C6 C -0.14647(19) 0.1622(5) 0.07526(19)
H4 H -0.1252 0.1050 0.1149
C7 C 0.12164(17) 0.3776(4) 0.28147(17)
C8 C 0.28305(16) 0.2001(5) 0.33401(16)
H5 H 0.3247 0.2404 0.3525
C9 C -0.20638(19) 0.3248(7) -0.04096(19)
H6 H -0.2265 0.3771 -0.0815
C10 C -0.13470(17) 0.3443(5) 0.07058(17)
C11 C 0.23626(16) 0.3208(5) 0.32591(15)
C12 C 0.0225(2) 1.3087(6) 0.0694(2)
H7 H 0.0059 1.4254 0.0652
C13 C 0.0171(2) 1.1861(5) 0.10814(19)
H8 H -0.0037 1.2193 0.1304
C14 C 0.20955(18) -0.0378(5) 0.28917(18)
H9 H 0.2005 -0.1592 0.2769
C15 C -0.16568(19) 0.4287(6) 0.01100(18)
C16 C 0.07342(18) 0.9656(6) 0.08325(18)
C17 C -0.2173(2) 0.1500(7) -0.0339(2)
H10 H -0.2457 0.0842 -0.0696
C18 C 0.0524(2) 1.2595(6) 0.0366(2)
H11 H 0.0555 1.3428 0.0090
O5 O 0.06643(11) 0.3117(3) 0.25605(11)
O6 O -0.06196(12) 0.3560(3) 0.18021(11)
O7 O 0.00484(12) 0.9431(3) 0.18722(11)
O8 O 0.12793(12) 0.5436(3) 0.28920(12)
O11 O -0.07825(14) 0.6032(3) 0.12631(13)
O12 O 0.05223(14) 0.7304(3) 0.16485(12)
N3 N 0.25291(17) 0.4939(5) 0.34746(15)
C39 C -0.09051(16) 0.4401(5) 0.12734(16)
N5 N -0.1580(2) 0.6043(6) 0.0031(2)
C41 C 0.03274(17) 0.8891(4) 0.15732(17)
N6 N 0.1014(2) 0.8034(6) 0.0905(2)
C42 C -0.1879(2) 0.0654(6) 0.0241(2)
H24 H -0.1962 -0.0561 0.0282
H26 H 0.1172 0.7736 0.0699
H30 H -0.177(3) 0.644(8) -0.030(2)
H31 H -0.132(2) 0.668(7) 0.035(2)
H32 H 0.285(3) 0.524(7) 0.347(3)
H33 H 0.092(3) 0.705(8) 0.105(2)
H36 H 0.229(2) 0.559(6) 0.337(2)
La1A La -0.012730(9) 0.12634(2) 0.262770(9)
La1A_2 La -0.012730(9) 1.12634(2) 0.262770(9)
O5A O -0.06643(11) 0.8117(3) 0.24395(11)
O6A O 0.06196(12) 0.8560(3) 0.31979(11)
O7A O -0.00484(12) 0.4431(3) 0.31278(11)
La2 La 0.490370(9) 0.09124(2) 0.225450(8)
C19 C 0.36810(15) -0.2884(4) 0.07469(15)
C20 C 0.53499(17) 0.7616(5) 0.07480(16)
H12 H 0.5228 0.8829 0.0725
C21 C 0.57324(16) 0.4025(4) 0.08349(16)
C22 C 0.55918(16) 0.6985(5) 0.03766(16)
H13 H 0.5625 0.7767 0.0089
C23 C 0.52904(17) 0.6450(5) 0.11491(17)
H14 H 0.5124 0.6877 0.1402
C24 C 0.32230(19) -0.5842(5) 0.04407(19)
H15 H 0.3182 -0.7032 0.0549
C25 C 0.54658(15) 0.4655(4) 0.11986(15)
C26 C 0.29475(17) -0.3545(5) -0.03386(17)
H16 H 0.2713 -0.3178 -0.0763
C27 C 0.36125(17) -0.4649(5) 0.08941(17)
H17 H 0.3840 -0.5035 0.1317
C28 C 0.37833(16) 0.2671(4) 0.22012(15)
C29 C 0.21033(19) 0.3453(6) 0.17761(18)
H18 H 0.1720 0.2839 0.1612
C30 C 0.31986(17) 0.3507(5) 0.20926(16)
C31 C 0.2682(2) 0.6166(6) 0.2174(2)
H19 H 0.2694 0.7388 0.2283
C32 C 0.26375(18) 0.2537(6) 0.18496(17)
C33 C 0.28903(17) -0.5258(5) -0.01814(17)
H20 H 0.2622 -0.6063 -0.0498
C34 C 0.21355(19) 0.5203(6) 0.19386(18)
H21 H 0.1773 0.5780 0.1889
C35 C 0.57832(16) 0.5241(5) 0.04224(16)
H22 H 0.5954 0.4845 0.0170
C36 C 0.33469(16) -0.2309(5) 0.01144(15)
C37 C 0.32062(18) 0.5321(5) 0.22475(18)
H23 H 0.3582 0.5974 0.2406
O1 O 0.42812(12) 0.3603(3) 0.24164(12)
O2 O 0.43844(11) -0.2249(3) 0.18271(10)
O3 O 0.50569(12) 0.4083(3) 0.18862(11)
O4 O 0.54523(12) 0.1811(3) 0.16379(11)
O9 O 0.38047(14) 0.1053(3) 0.20809(15)
O10 O 0.41915(12) -0.0095(3) 0.11454(11)
N1 N 0.59520(15) 0.2321(4) 0.08811(14)
N2 N 0.34159(16) -0.0650(4) -0.00797(15)
C38 C 0.40994(16) -0.1678(4) 0.12554(15)
N4 N 0.2587(2) 0.0795(5) 0.1682(2)
C40 C 0.53314(16) 0.3449(4) 0.15934(15)
H25 H 0.6081 0.2012 0.0612
H27 H 0.5909 0.1528 0.1078
H28 H 0.360(2) 0.019(7) 0.019(2)
H29 H 0.314(2) -0.028(6) -0.041(2)
H34 H 0.221(3) 0.018(8) 0.161(3)
H35 H 0.295(2) 0.016(7) 0.182(2)
La2A La 0.509630(9) 0.59124(2) 0.274550(8)
La2A_2 La 0.509630(9) -0.40876(2) 0.274550(8)
O1A O 0.57188(12) -0.1397(3) 0.25836(12)
O2A O 0.56156(11) 0.2751(3) 0.31729(10)
O3A O 0.49431(12) -0.0917(3) 0.31138(11)
loop_
_geom_bond_atom_site_label_1
_geom_bond_atom_site_label_2
_geom_bond_site_symmetry_1
_geom_bond_site_symmetry_2
La1 O5 1_555 1_555
C1 C13 1_555 1_555
C2 H1 1_555 1_555
C3 C2 1_555 1_555
C4 H2 1_555 1_555
C5 H3 1_555 1_555
C6 H4 1_555 1_555
C7 C3 1_555 1_555
C8 C5 1_555 1_555
H5 C8 1_555 1_555
C9 H6 1_555 1_555
C10 C6 1_555 1_555
C11 C3 1_555 1_555
C12 H7 1_555 1_555
C13 C12 1_555 1_555
H8 C13 1_555 1_555
C14 C2 1_555 1_555
H9 C14 1_555 1_555
C15 C9 1_555 1_555
C16 C1 1_555 1_555
C17 C9 1_555 1_555
H10 C17 1_555 1_555
C18 C4 1_555 1_555
H11 C18 1_555 1_555
La2 O1 1_555 1_555
C19 C27 1_555 1_555
C20 H12 1_555 1_555
C21 C25 1_555 1_555
C22 C20 1_555 1_555
H13 C22 1_555 1_555
C23 C20 1_555 1_555
H14 C23 1_555 1_555
C24 H15 1_555 1_555
C25 C23 1_555 1_555
C26 H16 1_555 1_555
C27 C24 1_555 1_555
H17 C27 1_555 1_555
C28 C30 1_555 1_555
C29 H18 1_555 1_555
C30 C32 1_555 1_555
C31 H19 1_555 1_555
C32 C29 1_555 1_555
C33 C24 1_555 1_555
H20 C33 1_555 1_555
C34 C29 1_555 1_555
H21 C34 1_555 1_555
C35 C21 1_555 1_555
H22 C35 1_555 1_555
C36 C19 1_555 1_555
C37 C30 1_555 1_555
H23 C37 1_555 1_555
O1 C28 1_555 1_555
O2 La2 1_555 1_555
O3 La2 1_555 1_555
O4 La2 1_555 1_555
O5 C7 1_555 1_555
O6 La1 1_555 1_555
O7 La1 1_555 1_555
O8 La1 1_555 1_555
O9 La2 1_555 1_555
O10 La2 1_555 1_555
O11 La1 1_555 1_555
O12 La1 1_555 1_555
N1 C21 1_555 1_555
N2 C36 1_555 1_555
N3 C11 1_555 1_555
C38 C19 1_555 1_555
C39 C10 1_555 1_555
N4 C32 1_555 1_555
C40 C25 1_555 1_555
N5 C15 1_555 1_555
C41 C1 1_555 1_555
N6 C16 1_555 1_555
C42 C6 1_555 1_555
H24 C42 1_555 1_555
H25 N1 1_555 1_555
H26 N6 1_555 1_555
H27 N1 1_555 1_555
H28 N2 1_555 1_555
H29 N2 1_555 1_555
H30 N5 1_555 1_555
H31 N5 1_555 1_555
H32 N3 1_555 1_555
H33 N6 1_555 1_555
H34 N4 1_555 1_555
H35 N4 1_555 1_555
H36 N3 1_555 1_555
La1A O5 1_555 1_555
La1A_2 O7 1_555 1_555
La2A O1 1_555 1_555
La2A_2 O2 1_555 1_555
O1A La2 1_555 1_555
O2A La2 1_555 1_555
O3A La2 1_555 1_555
O5A La1 1_555 1_555
O6A La1 1_555 1_555
O7A La1 1_555 1_555
C4 C16 1_555 1_555
C5 C14 1_555 1_555
C7 O8 1_555 1_555
C8 C11 1_555 1_555
C10 C15 1_555 1_555
C12 C18 1_555 1_555
C17 C42 1_555 1_555
C22 C35 1_555 1_555
C26 C33 1_555 1_555
C26 C36 1_555 1_555
C28 O9 1_555 1_555
C31 C34 1_555 1_555
C31 C37 1_555 1_555
O2 C38 1_555 1_555
O3 C40 1_555 1_555
O3 La2A 1_555 1_555
O4 C40 1_555 1_555
O6 C39 1_555 1_555
O6 La1A 1_555 1_555
O7 C41 1_555 1_555
O10 C38 1_555 1_555
O11 C39 1_555 1_555
O12 C41 1_555 1_555
La1A O7A 1_555 1_555
La1A_2 O5A 1_555 1_555
La1A_2 O6A 1_555 1_555
La2A O2A 1_555 1_555
La2A_2 O1A 1_555 1_555
La2A_2 O3A 1_555 1_555

#END
