
#######################################################################
#
#                 Cambridge Crystallographic Data Centre
#                                CCDC 
#
#######################################################################
#
# If this CIF has been generated from an entry in the Cambridge 
# Structural Database, then it will include bibliographic, chemical, 
# crystal, experimental, refinement or atomic coordinate data resulting 
# from the CCDC's data processing and validation procedures.
#
#######################################################################

data_DEDROV
_symmetry_cell_setting           monoclinic
_symmetry_space_group_name_H-M   'P 21/c'
_symmetry_Int_Tables_number      14
_space_group_name_Hall           '-P 2ybc'
loop_
_symmetry_equiv_pos_site_id
_symmetry_equiv_pos_as_xyz
1 x,y,z
2 -x,1/2+y,1/2-z
3 -x,-y,-z
4 x,1/2-y,1/2+z
_cell_length_a                   15.2527(11)
_cell_length_b                   11.7246(9)
_cell_length_c                   12.2323(9)
_cell_angle_alpha                90
_cell_angle_beta                 101.8560(10)
_cell_angle_gamma                90
_cell_volume                     2140.86
loop_
_atom_site_label
_atom_site_type_symbol
_atom_site_fract_x
_atom_site_fract_y
_atom_site_fract_z
Cu1 Cu 0.52551(3) 0.17030(3) 0.24430(4)
S1 S 0.67079(6) 0.05582(8) 0.09962(8)
O1 O 1.11336(18) 0.1866(2) 0.1870(3)
O2 O 1.07241(17) -0.2013(2) 0.1867(3)
O3 O 0.6349(2) -0.0557(3) 0.0640(3)
O4 O 0.6497(2) 0.1435(3) 0.0173(3)
O5 O 0.64911(16) 0.0862(2) 0.2064(2)
N1 N 1.46539(18) 0.0230(3) 0.2524(3)
N2 N 1.4445(2) -0.1673(2) 0.2572(3)
N3 N 1.06769(18) -0.0027(2) 0.1870(3)
C1 C 1.5019(2) -0.0803(3) 0.2609(4)
H1 H 1.5633 -0.0915 0.2688
C2 C 1.3745(2) 0.0037(3) 0.2412(3)
C3 C 1.3612(2) -0.1158(3) 0.2443(3)
C4 C 1.3029(2) 0.0805(3) 0.2267(3)
H2 H 1.3109 0.1591 0.2255
C5 C 1.2767(2) -0.1644(3) 0.2324(3)
H3 H 1.2678 -0.2427 0.2343
C6 C 1.2199(2) 0.0307(3) 0.2146(3)
C7 C 1.2074(2) -0.0874(3) 0.2175(3)
C8 C 1.1309(2) 0.0866(3) 0.1951(3)
C9 C 1.1105(2) -0.1114(3) 0.1971(3)
C10 C 0.9729(2) 0.0118(3) 0.1661(3)
C11 C 0.9218(2) -0.0553(3) 0.2227(3)
H4 H 0.9493 -0.1092 0.2743
C12 C 0.9321(2) 0.0927(3) 0.0896(3)
H5 H 0.9661 0.1375 0.0512
C13 C 0.8302(2) -0.0415(3) 0.2021(3)
H6 H 0.7957 -0.0874 0.2388
C14 C 0.8398(2) 0.1058(3) 0.0714(3)
H7 H 0.8119 0.1600 0.0205
C15 C 0.7891(2) 0.0399(3) 0.1273(3)
O6 O 0.4539(2) 0.1920(3) 0.0920(3)
H8 H 0.429(3) 0.128(2) 0.071(4)
H9 H 0.449(4) 0.2629(12) 0.082(4)
O7 O 0.5811(3) 0.1636(2) 0.4077(3)
H10 H 0.602(4) 0.229(2) 0.427(5)
H11 H 0.620(3) 0.112(4) 0.411(5)
Cu1_2 Cu 1.52551(3) 0.17030(3) 0.24430(4)
Cu1A Cu 1.47449(3) -0.32970(3) 0.25570(4)
N1_2 N 0.46539(18) 0.0230(3) 0.2524(3)
N2A N 0.5555(2) 0.3327(2) 0.2428(3)
N4 N 0.8171(4) -0.1109(4) 0.5173(4)
O8 O 0.6899(4) -0.0121(4) 0.4756(4)
C16 C 0.7670(4) -0.2155(5) 0.5245(5)
H12 H 0.7041 -0.1987 0.5103
H13 H 0.7850 -0.2476 0.5979
H14 H 0.7789 -0.2691 0.4701
C17 C 0.7712(6) -0.0153(5) 0.4920(4)
C18 C 0.9146(4) -0.1212(6) 0.5367(5)
H15 H 0.9405 -0.0476 0.5299
H16 H 0.9306 -0.1722 0.4826
H17 H 0.9369 -0.1507 0.6104
C19 C 0.8244(6) 0.0929(5) 0.4818(6)
H18 H 0.7840 0.1560 0.4636
H19 H 0.8578 0.0831 0.4239
H20 H 0.8650 0.1076 0.5514
O9 O 0.5607(8) -0.1236(9) 0.5163(11)
H21 H 0.531(9) -0.072(5) 0.476(4)
H22 H 0.546(10) -0.158(5) 0.571(5)
loop_
_geom_bond_atom_site_label_1
_geom_bond_atom_site_label_2
_geom_bond_site_symmetry_1
_geom_bond_site_symmetry_2
Cu1 O5 1_555 1_555
S1 O3 1_555 1_555
O1 C8 1_555 1_555
O2 C9 1_555 1_555
O4 S1 1_555 1_555
O5 S1 1_555 1_555
N1 C1 1_555 1_555
N2 C1 1_555 1_555
N3 C8 1_555 1_555
C1 H1 1_555 1_555
C2 N1 1_555 1_555
C3 N2 1_555 1_555
C4 C2 1_555 1_555
H2 C4 1_555 1_555
C5 C3 1_555 1_555
H3 C5 1_555 1_555
C6 C4 1_555 1_555
C7 C5 1_555 1_555
C8 C6 1_555 1_555
C9 N3 1_555 1_555
C10 N3 1_555 1_555
C11 C10 1_555 1_555
H4 C11 1_555 1_555
C12 C10 1_555 1_555
H5 C12 1_555 1_555
C13 C11 1_555 1_555
H6 C13 1_555 1_555
C14 C12 1_555 1_555
H7 C14 1_555 1_555
C15 S1 1_555 1_555
O6 Cu1 1_555 1_555
H8 O6 1_555 1_555
H9 O6 1_555 1_555
O7 Cu1 1_555 1_555
H10 O7 1_555 1_555
H11 O7 1_555 1_555
N4 C16 1_555 1_555
O8 C17 1_555 1_555
C16 H12 1_555 1_555
H13 C16 1_555 1_555
H14 C16 1_555 1_555
C17 N4 1_555 1_555
C18 N4 1_555 1_555
H15 C18 1_555 1_555
H16 C18 1_555 1_555
H17 C18 1_555 1_555
C19 C17 1_555 1_555
H18 C19 1_555 1_555
H19 C19 1_555 1_555
H20 C19 1_555 1_555
O9 H21 1_555 1_555
H22 O9 1_555 1_555
Cu1_2 N1 1_555 1_555
Cu1A N2 1_555 1_555
N1_2 Cu1 1_555 1_555
N2A Cu1 1_555 1_555
C2 C3 1_555 1_555
C6 C7 1_555 1_555
C7 C9 1_555 1_555
C13 C15 1_555 1_555
C14 C15 1_555 1_555

#END
