
#######################################################################
#
#                 Cambridge Crystallographic Data Centre
#                                CCDC 
#
#######################################################################
#
# If this CIF has been generated from an entry in the Cambridge 
# Structural Database, then it will include bibliographic, chemical, 
# crystal, experimental, refinement or atomic coordinate data resulting 
# from the CCDC's data processing and validation procedures.
#
#######################################################################

data_DEDSUC
_symmetry_cell_setting           triclinic
_symmetry_space_group_name_H-M   'P -1'
_symmetry_Int_Tables_number      2
_space_group_name_Hall           '-P 1'
loop_
_symmetry_equiv_pos_site_id
_symmetry_equiv_pos_as_xyz
1 x,y,z
2 -x,-y,-z
_cell_length_a                   8.4764(6)
_cell_length_b                   9.7214(6)
_cell_length_c                   16.3723(10)
_cell_angle_alpha                104.871(5)
_cell_angle_beta                 91.152(5)
_cell_angle_gamma                102.321(6)
_cell_volume                     1269.89
loop_
_atom_site_label
_atom_site_type_symbol
_atom_site_fract_x
_atom_site_fract_y
_atom_site_fract_z
Ag1 Ag -0.09699(4) 0.62436(3) -0.00069(2)
C15 C 0.1375(6) 0.9275(5) 0.0614(3)
H9 H 0.0989 0.9177 0.1129
C16 C 0.2476(6) 1.0515(5) 0.0608(3)
H10 H 0.2783 1.1247 0.1111
C17 C 0.3143(4) 1.0715(4) -0.0119(3)
C18 C 0.2574(6) 0.9594(5) -0.0840(3)
H11 H 0.2965 0.9662 -0.1358
C19 C 0.1441(6) 0.8384(6) -0.0799(3)
H12 H 0.1079 0.7653 -0.1297
C20 C 0.4418(5) 1.2003(4) -0.0119(3)
C21 C 0.5005(5) 1.3084(5) 0.0622(3)
H13 H 0.4568 1.3019 0.1130
C22 C 0.6229(5) 1.4249(5) 0.0603(3)
H14 H 0.6594 1.4959 0.1110
C23 C 0.6347(6) 1.3407(5) -0.0805(3)
H15 H 0.6808 1.3505 -0.1304
C24 C 0.5107(6) 1.2219(5) -0.0844(3)
H16 H 0.4729 1.1554 -0.1364
N1 N 0.0828(4) 0.8201(4) -0.0077(2)
N2 N 0.6921(4) 1.4427(4) -0.0086(2)
Ag1_2 Ag 0.90301(4) 1.62436(3) -0.00069(2)
N2_2 N -0.3079(4) 0.4427(4) -0.0086(2)
C1 C -0.0423(6) 0.6430(6) 0.1932(3)
C2 C -0.0414(6) 0.6535(5) 0.2864(3)
C3 C -0.1081(6) 0.5303(6) 0.3120(3)
H1 H -0.1480 0.4423 0.2713
C4 C -0.1166(7) 0.5353(7) 0.3966(4)
H2 H -0.1618 0.4515 0.4129
C5 C -0.0573(7) 0.6658(7) 0.4567(3)
H3 H -0.0659 0.6713 0.5140
C6 C 0.0142(7) 0.7874(6) 0.4323(3)
H4 H 0.0577 0.8736 0.4737
C7 C 0.0239(5) 0.7861(5) 0.3474(3)
C8 C 0.1195(6) 0.9151(5) 0.3241(3)
C9 C 0.2839(6) 0.9251(6) 0.3168(3)
H5 H 0.3276 0.8474 0.3218
C10 C 0.3839(7) 1.0453(7) 0.3024(4)
H6 H 0.4938 1.0486 0.2982
C11 C 0.3224(7) 1.1615(6) 0.2941(4)
H7 H 0.3903 1.2434 0.2843
C12 C 0.1595(7) 1.1555(6) 0.3005(3)
H8 H 0.1177 1.2343 0.2956
C13 C 0.0561(6) 1.0322(5) 0.3144(3)
C14 C -0.1203(7) 1.0338(6) 0.3163(4)
O1 O 0.0000(4) 0.5413(5) 0.1457(2)
O3 O -0.0967(5) 0.7407(4) 0.1689(2)
O4 O -0.1690(5) 1.1351(5) 0.3581(3)
O5 O -0.2223(4) 0.9187(4) 0.2692(2)
H26 H -0.1765 0.8580 0.2373
C25 C 0.5391(8) 0.6424(9) 0.3278(6)
H17 H 0.6251 0.7103 0.3165
C26 C 0.3469(12) 0.5714(12) 0.4208(7)
H18 H 0.3110 0.4920 0.3709
H19 H 0.2610 0.6208 0.4366
H20 H 0.3767 0.5340 0.4663
C27 C 0.5613(12) 0.8006(12) 0.4675(6)
H21 H 0.6498 0.8562 0.4455
H22 H 0.6013 0.7732 0.5149
H23 H 0.4836 0.8588 0.4856
N3 N 0.4866(7) 0.6735(6) 0.4036(4)
O6 O 0.4848(7) 0.5312(8) 0.2702(4)
O2 O 0.1951(7) 0.3861(6) 0.1892(4)
H24 H 0.2698 0.4299 0.2284
H25 H 0.2235 0.3055 0.1828
loop_
_geom_bond_atom_site_label_1
_geom_bond_atom_site_label_2
_geom_bond_site_symmetry_1
_geom_bond_site_symmetry_2
Ag1 N1 1_555 1_555
C1 C2 1_555 1_555
C2 C3 1_555 1_555
C3 H1 1_555 1_555
C4 C3 1_555 1_555
H2 C4 1_555 1_555
C5 C4 1_555 1_555
H3 C5 1_555 1_555
C6 C5 1_555 1_555
H4 C6 1_555 1_555
C7 C2 1_555 1_555
C8 C7 1_555 1_555
C9 C8 1_555 1_555
H5 C9 1_555 1_555
C10 C9 1_555 1_555
H6 C10 1_555 1_555
C11 C10 1_555 1_555
H7 C11 1_555 1_555
C12 C11 1_555 1_555
H8 C12 1_555 1_555
C13 C8 1_555 1_555
C14 C13 1_555 1_555
C15 H9 1_555 1_555
C16 C15 1_555 1_555
H10 C16 1_555 1_555
C17 C16 1_555 1_555
C18 C17 1_555 1_555
H11 C18 1_555 1_555
C19 C18 1_555 1_555
H12 C19 1_555 1_555
C20 C17 1_555 1_555
C21 C20 1_555 1_555
H13 C21 1_555 1_555
C22 C21 1_555 1_555
H14 C22 1_555 1_555
C23 H15 1_555 1_555
C24 C20 1_555 1_555
H16 C24 1_555 1_555
C25 H17 1_555 1_555
C26 H18 1_555 1_555
H19 C26 1_555 1_555
H20 C26 1_555 1_555
C27 H21 1_555 1_555
H22 C27 1_555 1_555
H23 C27 1_555 1_555
N1 C15 1_555 1_555
N2 C22 1_555 1_555
N3 C25 1_555 1_555
O1 C1 1_555 1_555
O2 H24 1_555 1_555
H25 O2 1_555 1_555
O3 C1 1_555 1_555
O4 C14 1_555 1_555
O5 C14 1_555 1_555
H26 O5 1_555 1_555
O6 C25 1_555 1_555
Ag1_2 N2 1_555 1_555
N2_2 Ag1 1_555 1_555
C6 C7 1_555 1_555
C12 C13 1_555 1_555
C19 N1 1_555 1_555
C23 C24 1_555 1_555
C23 N2 1_555 1_555
C26 N3 1_555 1_555
C27 N3 1_555 1_555

#END
