
#######################################################################
#
#                 Cambridge Crystallographic Data Centre
#                                CCDC 
#
#######################################################################
#
# If this CIF has been generated from an entry in the Cambridge 
# Structural Database, then it will include bibliographic, chemical, 
# crystal, experimental, refinement or atomic coordinate data resulting 
# from the CCDC's data processing and validation procedures.
#
#######################################################################

data_DEDTEN
_symmetry_cell_setting           triclinic
_symmetry_space_group_name_H-M   'P -1'
_symmetry_Int_Tables_number      2
_space_group_name_Hall           '-P 1'
loop_
_symmetry_equiv_pos_site_id
_symmetry_equiv_pos_as_xyz
1 x,y,z
2 -x,-y,-z
_cell_length_a                   11.8611(14)
_cell_length_b                   14.9718(17)
_cell_length_c                   15.0627(18)
_cell_angle_alpha                99.346(1)
_cell_angle_beta                 107.427(1)
_cell_angle_gamma                98.572(1)
_cell_volume                     2462.06
loop_
_atom_site_label
_atom_site_type_symbol
_atom_site_fract_x
_atom_site_fract_y
_atom_site_fract_z
Ba1 Ba 0.65442(4) -0.06259(3) 0.44997(3)
Ba2 Ba 0.59860(4) 0.22645(3) 0.44961(3)
Ba3 Ba 0.98128(4) 0.14387(3) 0.47131(3)
Ba4 Ba 0.43804(4) -0.34515(3) 0.24993(4)
Ba5 Ba 0.61219(5) 0.41868(3) 0.25336(4)
Ba6 Ba 0.98481(4) 0.51193(3) 0.18810(4)
C1 C 0.6909(7) 0.0946(5) 0.2086(5)
C2 C 0.7476(7) 0.1871(5) 0.2203(5)
C3 C 0.7585(7) 0.2196(5) 0.1405(6)
C4 C 0.7154(8) 0.1598(6) 0.0504(6)
H1 H 0.7257 0.1818 -0.0037
C5 C 0.6573(8) 0.0681(6) 0.0392(6)
H2 H 0.6254 0.0273 -0.0227
C6 C 0.6459(8) 0.0385(5) 0.1168(6)
H3 H 0.6049 -0.0242 0.1086
C7 C 0.6763(7) 0.0531(5) 0.2897(6)
C8 C 0.7976(8) 0.2534(5) 0.3170(6)
C9 C 0.8143(7) 0.3174(6) 0.1465(6)
C10 C 0.7446(7) -0.2987(5) 0.1556(6)
C11 C 0.7762(7) -0.2255(5) 0.2355(5)
C12 C 0.8254(7) -0.1376(5) 0.2304(6)
C13 C 0.8323(7) -0.1213(6) 0.1434(6)
H4 H 0.8648 -0.0597 0.1401
C14 C 0.7951(8) -0.1912(6) 0.0644(6)
H5 H 0.7953 -0.1773 0.0044
C15 C 0.7559(7) -0.2804(5) 0.0698(6)
H6 H 0.7364 -0.3301 0.0152
C16 C 0.6993(7) -0.3973(5) 0.1590(5)
C17 C 0.7544(7) -0.2445(5) 0.3267(6)
C18 C 0.8724(6) -0.0580(5) 0.3149(6)
C19 C 0.7261(6) 0.1164(5) 0.7438(5)
C20 C 0.8260(7) 0.1796(5) 0.8095(5)
C21 C 0.8927(8) 0.1509(6) 0.8893(6)
H7 H 0.9613 0.1943 0.9351
C22 C 0.8647(8) 0.0641(6) 0.9046(6)
H8 H 0.9122 0.0460 0.9599
C23 C 0.7659(8) 0.0037(5) 0.8395(6)
H9 H 0.7441 -0.0572 0.8497
C24 C 0.6962(7) 0.0269(5) 0.7580(5)
C25 C 0.6556(7) 0.1420(5) 0.6523(5)
C26 C 0.8677(8) 0.2771(5) 0.8010(6)
C27 C 0.5905(7) -0.0455(5) 0.6884(6)
C28 C 0.7733(7) -0.3405(5) 0.7889(6)
C29 C 0.8801(7) -0.2889(5) 0.8559(5)
H10 H 0.9152 -0.3109 0.9123
C30 C 0.9379(7) -0.2063(6) 0.8425(6)
H11 H 1.0094 -0.1691 0.8911
C31 C 0.8911(7) -0.1783(6) 0.7591(6)
H12 H 0.9333 -0.1235 0.7482
C32 C 0.7835(7) -0.2274(5) 0.6897(5)
C33 C 0.7191(7) -0.3079(5) 0.7052(5)
C34 C 0.7225(7) -0.4335(5) 0.8000(5)
C35 C 0.6120(7) -0.3716(5) 0.6277(5)
C36 C 0.7377(7) -0.1953(5) 0.5985(5)
O1 O 0.6186(5) -0.0287(3) 0.2708(4)
O2 O 0.7260(5) 0.1010(3) 0.3745(4)
O3 O 0.9075(5) 0.2653(4) 0.3622(4)
O4 O 0.7225(5) 0.2926(3) 0.3446(4)
O5 O 0.8212(5) 0.3775(4) 0.2183(4)
O6 O 0.8535(5) 0.3364(4) 0.0810(4)
O7 O 0.6176(5) -0.4124(4) 0.1939(4)
O8 O 0.7485(6) -0.4581(4) 0.1283(5)
O9 O 0.6590(5) -0.2291(4) 0.3376(4)
O10 O 0.8320(5) -0.2761(4) 0.3827(4)
O11 O 0.8617(4) -0.0678(3) 0.3954(4)
O12 O 0.9266(5) 0.0171(3) 0.3054(4)
O13 O 0.6933(5) 0.1274(4) 0.5830(4)
O14 O 0.5646(5) 0.1754(3) 0.6491(4)
O15 O 0.9643(6) 0.3240(4) 0.8606(5)
O16 O 0.8021(5) 0.3064(4) 0.7336(4)
O17 O 0.5541(5) -0.1151(3) 0.7183(4)
O18 O 0.5427(5) -0.0358(3) 0.6045(4)
O19 O 0.6120(5) -0.4573(4) 0.7868(4)
O20 O 0.7944(5) -0.4856(4) 0.8224(5)
O21 O 0.5075(5) -0.3621(4) 0.6264(4)
O22 O 0.6372(5) -0.4319(4) 0.5742(4)
O23 O 0.6286(5) -0.2188(4) 0.5479(4)
O24 O 0.8146(5) -0.1418(4) 0.5784(4)
O25 O 0.6144(5) -0.4195(4) 0.3866(4)
H13 H 0.6585 -0.3820 0.4383
O26 O 0.4845(6) -0.2073(4) 0.1450(4)
H14 H 0.5177 -0.1525 0.1773
O27 O 0.9435(5) 0.5856(4) 0.3513(4)
H15 H 0.9841 0.5741 0.4036
H16 H 0.8730 0.5941 0.3471
O28 O 0.8409(6) 0.4699(4) 0.4397(4)
H17 H 0.8708 0.4239 0.4541
H18 H 0.8310 0.5023 0.4875
O29 O 0.8555(5) 0.2718(4) 0.5586(4)
H19 H 0.8655 0.2668 0.6158
H20 H 0.8852 0.3273 0.5596
O30 O 0.6463(5) 0.3886(4) 0.5965(4)
H21 H 0.6102 0.4286 0.5729
O31 O 0.8793(5) 0.0592(4) 0.5873(4)
H22 H 0.9256 0.0281 0.6176
H23 H 0.8641 0.0989 0.6268
O32 O 1.0923(6) 0.4325(4) 0.3596(4)
H24 H 1.1370 0.3936 0.3560
H25 H 1.0604 0.4341 0.4033
O33 O 0.4605(6) 0.2348(4) 0.1598(5)
O34 O 0.5432(8) 0.3666(6) 0.0529(6)
H26 H 0.5977 0.3668 0.0269
O35 O 0.2948(8) -0.3987(5) 0.0627(5)
H27 H 0.3299 -0.4080 0.0215
H28 H 0.2340 -0.3740 0.0454
O36 O 1.0000 0.5000 0.0000
H29 H 0.9370 0.4962 -0.0472
H29A H 1.0630 0.5038 0.0472
Ba1A Ba 0.34558(4) -0.93741(3) 0.55003(3)
Ba2A Ba 0.40140(4) -1.22645(3) 0.55039(3)
Ba3A Ba 0.01872(4) -1.14387(3) 0.52869(3)
Ba4A Ba 0.56196(4) -0.65485(3) 0.75007(4)
Ba5A Ba 0.38781(5) -1.41868(3) 0.74664(4)
Ba6A Ba 0.01519(4) -1.51193(3) 0.81190(4)
C1A C 0.3091(7) -1.0946(5) 0.7914(5)
C2A C 0.2524(7) -1.1871(5) 0.7797(5)
C3A C 0.2415(7) -1.2196(5) 0.8595(6)
C4A C 0.2846(8) -1.1598(6) 0.9496(6)
H1A H 0.2743 -1.1818 1.0037
C5A C 0.3427(8) -1.0681(6) 0.9608(6)
H2A H 0.3746 -1.0273 1.0227
C6A C 0.3541(8) -1.0385(5) 0.8832(6)
H3A H 0.3951 -0.9758 0.8914
C7A C 0.3237(7) -1.0531(5) 0.7103(6)
C8A C 0.2024(8) -1.2534(5) 0.6830(6)
C9A C 0.1857(7) -1.3174(6) 0.8535(6)
C10A C 0.2554(7) -0.7013(5) 0.8444(6)
C11A C 0.2238(7) -0.7745(5) 0.7645(5)
C12A C 0.1746(7) -0.8624(5) 0.7696(6)
C13A C 0.1677(7) -0.8787(6) 0.8566(6)
H4A H 0.1352 -0.9403 0.8599
C14A C 0.2049(8) -0.8088(6) 0.9356(6)
H5A H 0.2047 -0.8227 0.9956
C15A C 0.2441(7) -0.7196(5) 0.9302(6)
H6A H 0.2636 -0.6699 0.9848
C16A C 0.3007(7) -0.6027(5) 0.8410(5)
C17A C 0.2456(7) -0.7555(5) 0.6733(6)
C18A C 0.1276(6) -0.9420(5) 0.6851(6)
C19A C 0.2739(6) -1.1164(5) 0.2562(5)
C20A C 0.1740(7) -1.1796(5) 0.1905(5)
C21A C 0.1073(8) -1.1509(6) 0.1107(6)
H7A H 0.0387 -1.1943 0.0649
C22A C 0.1353(8) -1.0641(6) 0.0954(6)
H8A H 0.0878 -1.0460 0.0401
C23A C 0.2341(8) -1.0037(5) 0.1605(6)
H9A H 0.2559 -0.9428 0.1503
C24A C 0.3038(7) -1.0269(5) 0.2420(5)
C25A C 0.3444(7) -1.1420(5) 0.3477(5)
C26A C 0.1323(8) -1.2771(5) 0.1990(6)
C27A C 0.4095(7) -0.9545(5) 0.3116(6)
C28A C 0.2267(7) -0.6595(5) 0.2111(6)
C29A C 0.1199(7) -0.7111(5) 0.1441(5)
H10A H 0.0848 -0.6891 0.0877
C30A C 0.0621(7) -0.7937(6) 0.1575(6)
H11A H -0.0094 -0.8309 0.1089
C31A C 0.1089(7) -0.8217(6) 0.2409(6)
H12A H 0.0667 -0.8765 0.2518
C32A C 0.2165(7) -0.7726(5) 0.3103(5)
C33A C 0.2809(7) -0.6921(5) 0.2948(5)
C34A C 0.2775(7) -0.5665(5) 0.2000(5)
C35A C 0.3880(7) -0.6284(5) 0.3723(5)
C36A C 0.2623(7) -0.8047(5) 0.4015(5)
O1A O 0.3814(5) -0.9713(3) 0.7292(4)
O2A O 0.2740(5) -1.1010(3) 0.6255(4)
O3A O 0.0925(5) -1.2653(4) 0.6378(4)
O4A O 0.2775(5) -1.2926(3) 0.6554(4)
O5A O 0.1788(5) -1.3775(4) 0.7817(4)
O6A O 0.1465(5) -1.3364(4) 0.9190(4)
O7A O 0.3824(5) -0.5876(4) 0.8061(4)
O8A O 0.2515(6) -0.5419(4) 0.8717(5)
O9A O 0.3410(5) -0.7709(4) 0.6624(4)
O10A O 0.1680(5) -0.7239(4) 0.6173(4)
O11A O 0.1383(4) -0.9322(3) 0.6046(4)
O12A O 0.0734(5) -1.0171(3) 0.6946(4)
O13A O 0.3067(5) -1.1274(4) 0.4170(4)
O14A O 0.4354(5) -1.1754(3) 0.3509(4)
O15A O 0.0357(6) -1.3240(4) 0.1394(5)
O16A O 0.1979(5) -1.3064(4) 0.2664(4)
O17A O 0.4459(5) -0.8849(3) 0.2817(4)
O18A O 0.4573(5) -0.9642(3) 0.3955(4)
O19A O 0.3880(5) -0.5427(4) 0.2132(4)
O20A O 0.2056(5) -0.5144(4) 0.1776(5)
O21A O 0.4925(5) -0.6379(4) 0.3736(4)
O22A O 0.3628(5) -0.5681(4) 0.4258(4)
O23A O 0.3714(5) -0.7812(4) 0.4521(4)
O24A O 0.1854(5) -0.8582(4) 0.4216(4)
O25A O 0.3856(5) -0.5805(4) 0.6134(4)
H13A H 0.3415 -0.6180 0.5617
O26A O 0.5155(6) -0.7927(4) 0.8550(4)
H14A H 0.4823 -0.8475 0.8227
O27A O 0.0565(5) -1.5856(4) 0.6487(4)
H15A H 0.0159 -1.5741 0.5964
H16A H 0.1270 -1.5941 0.6529
O28A O 0.1591(6) -1.4699(4) 0.5603(4)
H17A H 0.1292 -1.4239 0.5459
H18A H 0.1690 -1.5023 0.5125
O29A O 0.1445(5) -1.2718(4) 0.4414(4)
H19A H 0.1345 -1.2668 0.3842
H20A H 0.1148 -1.3273 0.4404
O30A O 0.3537(5) -1.3886(4) 0.4035(4)
H21A H 0.3898 -1.4286 0.4271
O31A O 0.1207(5) -1.0592(4) 0.4127(4)
H22A H 0.0744 -1.0281 0.3824
H23A H 0.1359 -1.0989 0.3732
O32A O -0.0923(6) -1.4325(4) 0.6404(4)
H24A H -0.1370 -1.3936 0.6440
H25A H -0.0604 -1.4341 0.5967
O33A O 0.5395(6) -1.2348(4) 0.8402(5)
O34A O 0.4568(8) -1.3666(6) 0.9471(6)
H26A H 0.4023 -1.3668 0.9731
O35A O 0.7052(8) -0.6013(5) 0.9373(5)
H27A H 0.6701 -0.5920 0.9785
H28A H 0.7660 -0.6260 0.9546
Ba1_2 Ba 0.65442(4) -1.06259(3) 0.44997(3)
Ba1A_2 Ba 0.34558(4) 0.06259(3) 0.55003(3)
Ba2_2 Ba 0.59860(4) -0.77355(3) 0.44961(3)
Ba2A_2 Ba 0.40140(4) -0.22645(3) 0.55039(3)
Ba3_2 Ba -0.01872(4) -0.85613(3) 0.47131(3)
Ba3A_2 Ba 1.01872(4) -0.14387(3) 0.52869(3)
Ba4_2 Ba 0.43804(4) -1.34515(3) 0.24993(4)
Ba4A_2 Ba 0.56196(4) 0.34515(3) 0.75007(4)
Ba5_2 Ba 0.61219(5) -0.58132(3) 0.25336(4)
Ba5A_2 Ba 0.38781(5) -0.41868(3) 0.74664(4)
Ba6_2 Ba -0.01519(4) -1.48807(3) 0.18810(4)
Ba6_3 Ba -0.01519(4) -0.48807(3) 0.18810(4)
Ba6_4 Ba 0.98481(4) -0.48807(3) 0.18810(4)
Ba6A_2 Ba 0.01519(4) -0.51193(3) 0.81190(4)
Ba6A_3 Ba 1.01519(4) -0.51193(3) 0.81190(4)
Ba6A_4 Ba 1.01519(4) 0.48807(3) -0.18810(4)
Ba6A_5 Ba 1.01519(4) 0.48807(3) 0.81190(4)
O7_2 O 0.6176(5) 0.5876(4) 0.1939(4)
O7A_2 O 0.3824(5) -1.5876(4) 0.8061(4)
O8_2 O 0.7485(6) 0.5419(4) 0.1283(5)
O8A_2 O 0.2515(6) -1.5419(4) 0.8717(5)
O10_2 O -0.1680(5) -1.2761(4) 0.3827(4)
O10A_2 O 1.1680(5) 0.2761(4) 0.6173(4)
O11_2 O -0.1383(4) -1.0678(3) 0.3954(4)
O11A_2 O 1.1383(4) 0.0678(3) 0.6046(4)
O14_2 O 0.5646(5) -0.8246(3) 0.6491(4)
O14A_2 O 0.4354(5) -0.1754(3) 0.3509(4)
O15_2 O -0.0357(6) -1.6760(4) 0.8606(5)
O15A_2 O 1.0357(6) 0.6760(4) 0.1394(5)
O16_2 O -0.1979(5) -1.6936(4) 0.7336(4)
O16_3 O 0.8021(5) -0.6936(4) 0.7336(4)
O16A_2 O 0.1979(5) -0.3064(4) 0.2664(4)
O16A_3 O 1.1979(5) 0.6936(4) 0.2664(4)
O17_2 O 0.5541(5) -1.1151(3) 0.7183(4)
O17A_2 O 0.4459(5) 0.1151(3) 0.2817(4)
O18_2 O 0.5427(5) -1.0358(3) 0.6045(4)
O18A_2 O 0.4573(5) 0.0358(3) 0.3955(4)
O19_2 O 0.6120(5) -1.4573(4) 0.7868(4)
O19A_2 O 0.3880(5) 0.4573(4) 0.2132(4)
O20_2 O -0.2056(5) -1.4856(4) 0.8224(5)
O20A_2 O 1.2056(5) 0.4856(4) 0.1776(5)
O21_2 O 0.5075(5) -1.3621(4) 0.6264(4)
O21A_2 O 0.4925(5) 0.3621(4) 0.3736(4)
O23_2 O 0.6286(5) -1.2188(4) 0.5479(4)
O23A_2 O 0.3714(5) 0.2188(4) 0.4521(4)
O24_2 O -0.1854(5) -1.1418(4) 0.5784(4)
O24A_2 O 1.1854(5) 0.1418(4) 0.4216(4)
O25_2 O 0.6144(5) 0.5805(4) 0.3866(4)
O25A_2 O 0.3856(5) -1.5805(4) 0.6134(4)
O30_2 O 0.6463(5) -0.6114(4) 0.5965(4)
O30A_2 O 0.3537(5) -0.3886(4) 0.4035(4)
O36_2 O 0.0000 -1.5000 1.0000
loop_
_geom_bond_atom_site_label_1
_geom_bond_atom_site_label_2
_geom_bond_site_symmetry_1
_geom_bond_site_symmetry_2
Ba1 O1 1_555 1_555
Ba2 O2 1_555 1_555
Ba3 O2 1_555 1_555
Ba4 O7 1_555 1_555
Ba5 O4 1_555 1_555
Ba6 O5 1_555 1_555
C1 C2 1_555 1_555
C2 C3 1_555 1_555
C3 C4 1_555 1_555
C4 H1 1_555 1_555
C5 C4 1_555 1_555
H2 C5 1_555 1_555
C6 C1 1_555 1_555
H3 C6 1_555 1_555
C7 C1 1_555 1_555
C8 C2 1_555 1_555
C9 C3 1_555 1_555
C10 C11 1_555 1_555
C11 C12 1_555 1_555
C12 C13 1_555 1_555
C13 H4 1_555 1_555
C14 C13 1_555 1_555
H5 C14 1_555 1_555
C15 C10 1_555 1_555
H6 C15 1_555 1_555
C16 C10 1_555 1_555
C17 C11 1_555 1_555
C18 C12 1_555 1_555
C19 C20 1_555 1_555
C20 C21 1_555 1_555
C21 H7 1_555 1_555
C22 C21 1_555 1_555
H8 C22 1_555 1_555
C23 C22 1_555 1_555
H9 C23 1_555 1_555
C24 C19 1_555 1_555
C25 C19 1_555 1_555
C26 C20 1_555 1_555
C27 C24 1_555 1_555
C28 C29 1_555 1_555
C29 H10 1_555 1_555
C30 C29 1_555 1_555
H11 C30 1_555 1_555
C31 C30 1_555 1_555
H12 C31 1_555 1_555
C32 C31 1_555 1_555
C33 C28 1_555 1_555
C34 C28 1_555 1_555
C35 C33 1_555 1_555
C36 C32 1_555 1_555
O1 C7 1_555 1_555
O2 Ba1 1_555 1_555
O3 Ba3 1_555 1_555
O4 Ba2 1_555 1_555
O5 Ba5 1_555 1_555
O6 Ba6 1_555 1_555
O7 C16 1_555 1_555
O8 C16 1_555 1_555
O9 Ba1 1_555 1_555
O10 C17 1_555 1_555
O11 Ba1 1_555 1_555
O12 Ba3 1_555 1_555
O13 Ba1 1_555 1_555
O14 C25 1_555 1_555
O15 C26 1_555 1_555
O16 C26 1_555 1_555
O17 C27 1_555 1_555
O18 Ba1 1_555 1_555
O19 C34 1_555 1_555
O20 C34 1_555 1_555
O21 C35 1_555 1_555
O22 C35 1_555 1_555
O23 Ba1 1_555 1_555
O24 Ba1 1_555 1_555
O25 Ba4 1_555 1_555
H13 O25 1_555 1_555
O26 Ba4 1_555 1_555
H14 O26 1_555 1_555
O27 Ba6 1_555 1_555
H15 O27 1_555 1_555
H16 O27 1_555 1_555
O28 Ba5 1_555 1_555
H17 O28 1_555 1_555
H18 O28 1_555 1_555
O29 Ba2 1_555 1_555
H19 O29 1_555 1_555
H20 O29 1_555 1_555
O30 Ba2 1_555 1_555
H21 O30 1_555 1_555
O31 Ba1 1_555 1_555
H22 O31 1_555 1_555
H23 O31 1_555 1_555
O32 Ba6 1_555 1_555
H24 O32 1_555 1_555
H25 O32 1_555 1_555
O33 Ba5 1_555 1_555
O34 Ba5 1_555 1_555
H26 O34 1_555 1_555
O35 Ba4 1_555 1_555
H27 O35 1_555 1_555
H28 O35 1_555 1_555
O36 Ba6 1_555 1_555
H29 O36 1_555 1_555
H29A O36 1_555 1_555
Ba1A O1A 1_555 1_555
Ba2A O2A 1_555 1_555
Ba3A O2A 1_555 1_555
Ba4A O19 1_555 1_555
Ba5A O4A 1_555 1_555
Ba6A O5A 1_555 1_555
C1A C2A 1_555 1_555
C2A C3A 1_555 1_555
C3A C4A 1_555 1_555
C4A H1A 1_555 1_555
C5A C4A 1_555 1_555
H2A C5A 1_555 1_555
C6A C1A 1_555 1_555
H3A C6A 1_555 1_555
C7A C1A 1_555 1_555
C8A C2A 1_555 1_555
C9A C3A 1_555 1_555
C10A C11A 1_555 1_555
C11A C12A 1_555 1_555
C12A C13A 1_555 1_555
C13A H4A 1_555 1_555
C14A C13A 1_555 1_555
H5A C14A 1_555 1_555
C15A C10A 1_555 1_555
H6A C15A 1_555 1_555
C16A C10A 1_555 1_555
C17A C11A 1_555 1_555
C18A C12A 1_555 1_555
C19A C20A 1_555 1_555
C20A C21A 1_555 1_555
C21A H7A 1_555 1_555
C22A C21A 1_555 1_555
H8A C22A 1_555 1_555
C23A C22A 1_555 1_555
H9A C23A 1_555 1_555
C24A C19A 1_555 1_555
C25A C19A 1_555 1_555
C26A C20A 1_555 1_555
C27A C24A 1_555 1_555
C28A C29A 1_555 1_555
C29A H10A 1_555 1_555
C30A C29A 1_555 1_555
H11A C30A 1_555 1_555
C31A C30A 1_555 1_555
H12A C31A 1_555 1_555
C32A C31A 1_555 1_555
C33A C28A 1_555 1_555
C34A C28A 1_555 1_555
C35A C33A 1_555 1_555
C36A C32A 1_555 1_555
O1A C7A 1_555 1_555
O2A Ba1A 1_555 1_555
O3A Ba3A 1_555 1_555
O4A Ba2A 1_555 1_555
O5A Ba5A 1_555 1_555
O6A Ba6A 1_555 1_555
O7A Ba4A 1_555 1_555
O8A C16A 1_555 1_555
O9A Ba1A 1_555 1_555
O10A C17A 1_555 1_555
O11A Ba1A 1_555 1_555
O12A Ba3A 1_555 1_555
O13A Ba1A 1_555 1_555
O14A C25A 1_555 1_555
O15A C26A 1_555 1_555
O16A C26A 1_555 1_555
O17A C27A 1_555 1_555
O18A Ba1A 1_555 1_555
O19A Ba4 1_555 1_555
O20A Ba4 1_555 1_555
O21A C35A 1_555 1_555
O22A C35A 1_555 1_555
O23A Ba1A 1_555 1_555
O24A Ba1A 1_555 1_555
O25A Ba4A 1_555 1_555
H13A O25A 1_555 1_555
O26A Ba4A 1_555 1_555
H14A O26A 1_555 1_555
O27A Ba6A 1_555 1_555
H15A O27A 1_555 1_555
H16A O27A 1_555 1_555
O28A Ba5A 1_555 1_555
H17A O28A 1_555 1_555
H18A O28A 1_555 1_555
O29A Ba2A 1_555 1_555
H19A O29A 1_555 1_555
H20A O29A 1_555 1_555
O30A Ba2A 1_555 1_555
H21A O30A 1_555 1_555
O31A Ba1A 1_555 1_555
H22A O31A 1_555 1_555
H23A O31A 1_555 1_555
O32A Ba6A 1_555 1_555
H24A O32A 1_555 1_555
H25A O32A 1_555 1_555
O33A Ba5A 1_555 1_555
O34A Ba5A 1_555 1_555
H26A O34A 1_555 1_555
O35A Ba4A 1_555 1_555
H27A O35A 1_555 1_555
H28A O35A 1_555 1_555
Ba1_2 O14A 1_555 1_555
Ba1A_2 O14 1_555 1_555
Ba2_2 O17A 1_555 1_555
Ba2A_2 O17 1_555 1_555
Ba3_2 O10A 1_555 1_555
Ba3A_2 O10 1_555 1_555
Ba4_2 O14A 1_555 1_555
Ba4A_2 O14 1_555 1_555
Ba5_2 O7 1_555 1_555
Ba5A_2 O19 1_555 1_555
Ba6_2 O15A 1_555 1_555
Ba6_3 O20A 1_555 1_555
Ba6_4 O8 1_555 1_555
Ba6A_2 O8A 1_555 1_555
Ba6A_3 O20 1_555 1_555
Ba6A_4 O36 1_555 1_555
Ba6A_5 O15 1_555 1_555
O7_2 Ba5 1_555 1_555
O7A_2 Ba5A 1_555 1_555
O8_2 Ba6 1_555 1_555
O8A_2 Ba6A 1_555 1_555
O10_2 Ba3A 1_555 1_555
O10A_2 Ba3 1_555 1_555
O11_2 Ba3A 1_555 1_555
O11A_2 Ba3 1_555 1_555
O14_2 Ba1A 1_555 1_555
O14A_2 Ba1 1_555 1_555
O15_2 Ba6A 1_555 1_555
O15A_2 Ba6 1_555 1_555
O16_2 Ba6A 1_555 1_555
O16_3 Ba4A 1_555 1_555
O16A_2 Ba4 1_555 1_555
O16A_3 Ba6 1_555 1_555
O17_2 Ba2A 1_555 1_555
O17A_2 Ba2 1_555 1_555
O18_2 Ba1A 1_555 1_555
O18A_2 Ba1 1_555 1_555
O19_2 Ba5A 1_555 1_555
O19A_2 Ba5 1_555 1_555
O20_2 Ba6A 1_555 1_555
O20A_2 Ba6 1_555 1_555
O21_2 Ba2A 1_555 1_555
O21A_2 Ba2 1_555 1_555
O23_2 Ba2A 1_555 1_555
O23A_2 Ba2 1_555 1_555
O24_2 Ba3A 1_555 1_555
O24A_2 Ba3 1_555 1_555
O25_2 Ba5 1_555 1_555
O25A_2 Ba5A 1_555 1_555
O30_2 Ba4A 1_555 1_555
O30A_2 Ba4 1_555 1_555
O36_2 Ba6A 1_555 1_555
Ba2 O13 1_555 1_555
Ba2 O18A_2 1_555 1_555
Ba3 O11 1_555 1_555
Ba3 O29 1_555 1_555
Ba3 O31 1_555 1_555
Ba4 O9 1_555 1_555
Ba4 O14A_2 1_555 1_555
Ba5 O21A_2 1_555 1_555
C5 C6 1_555 1_555
C7 O2 1_555 1_555
C8 O3 1_555 1_555
C8 O4 1_555 1_555
C9 O5 1_555 1_555
C9 O6 1_555 1_555
C14 C15 1_555 1_555
C17 O9 1_555 1_555
C18 O11 1_555 1_555
C18 O12 1_555 1_555
C23 C24 1_555 1_555
C25 O13 1_555 1_555
C27 O18 1_555 1_555
C32 C33 1_555 1_555
C36 O23 1_555 1_555
C36 O24 1_555 1_555
O11 Ba3A_2 1_555 1_555
O16 Ba4A_2 1_555 1_555
O16 Ba6A_5 1_555 1_555
O18 Ba1A_2 1_555 1_555
O18 Ba2A_2 1_555 1_555
O20 Ba4A 1_555 1_555
O21 Ba2A_2 1_555 1_555
O21 Ba5A_2 1_555 1_555
O23 Ba2A_2 1_555 1_555
O24 Ba3A_2 1_555 1_555
O25 Ba5_2 1_555 1_555
O30 Ba4A_2 1_555 1_555
Ba2A O13A 1_555 1_555
Ba2A O18_2 1_555 1_555
Ba3A O11A 1_555 1_555
Ba3A O29A 1_555 1_555
Ba3A O31A 1_555 1_555
Ba4A O9A 1_555 1_555
Ba4A O14_2 1_555 1_555
Ba5A O21_2 1_555 1_555
C5A C6A 1_555 1_555
C7A O2A 1_555 1_555
C8A O3A 1_555 1_555
C8A O4A 1_555 1_555
C9A O5A 1_555 1_555
C9A O6A 1_555 1_555
C14A C15A 1_555 1_555
C16A O7A 1_555 1_555
C17A O9A 1_555 1_555
C18A O11A 1_555 1_555
C18A O12A 1_555 1_555
C23A C24A 1_555 1_555
C25A O13A 1_555 1_555
C27A O18A 1_555 1_555
C32A C33A 1_555 1_555
C34A O19A 1_555 1_555
C34A O20A 1_555 1_555
C36A O23A 1_555 1_555
C36A O24A 1_555 1_555
O7A Ba5A_2 1_555 1_555
O11A Ba3_2 1_555 1_555
O16A Ba4_2 1_555 1_555
O16A Ba6_2 1_555 1_555
O18A Ba1_2 1_555 1_555
O18A Ba2_2 1_555 1_555
O19A Ba5_2 1_555 1_555
O21A Ba2_2 1_555 1_555
O21A Ba5_2 1_555 1_555
O23A Ba2_2 1_555 1_555
O24A Ba3_2 1_555 1_555
O25A Ba5A_2 1_555 1_555
O30A Ba4_2 1_555 1_555
Ba1_2 O18_2 1_555 1_555
Ba1_2 O23_2 1_555 1_555
Ba1A_2 O18A_2 1_555 1_555
Ba1A_2 O23A_2 1_555 1_555
Ba2_2 O30_2 1_555 1_555
Ba2A_2 O30A_2 1_555 1_555
Ba3_2 O11_2 1_555 1_555
Ba3A_2 O11A_2 1_555 1_555
Ba6_3 O16A_2 1_555 1_555
Ba6A_3 O16_3 1_555 1_555

#END
