
#######################################################################
#
#                 Cambridge Crystallographic Data Centre
#                                CCDC 
#
#######################################################################
#
# If this CIF has been generated from an entry in the Cambridge 
# Structural Database, then it will include bibliographic, chemical, 
# crystal, experimental, refinement or atomic coordinate data resulting 
# from the CCDC's data processing and validation procedures.
#
#######################################################################

data_DEDTAJ
_symmetry_cell_setting           monoclinic
_symmetry_space_group_name_H-M   'P 2/n'
_symmetry_Int_Tables_number      13
_space_group_name_Hall           '-P 2yac'
loop_
_symmetry_equiv_pos_site_id
_symmetry_equiv_pos_as_xyz
1 x,y,z
2 1/2-x,y,1/2-z
3 -x,-y,-z
4 1/2+x,-y,1/2+z
_cell_length_a                   7.7809(5)
_cell_length_b                   9.6743(7)
_cell_length_c                   17.1029(17)
_cell_angle_alpha                90
_cell_angle_beta                 96.656(8)
_cell_angle_gamma                90
_cell_volume                     1278.74
loop_
_atom_site_label
_atom_site_type_symbol
_atom_site_fract_x
_atom_site_fract_y
_atom_site_fract_z
Ag1 Ag 1.28928(14) 0.10040(14) 0.15777(7)
C1 C 0.7942(11) -0.0860(9) 0.1458(5)
C2 C 0.7106(15) -0.0983(10) 0.0689(6)
H1 H 0.7693 -0.0711 0.0271
C3 C 0.5471(16) -0.1484(12) 0.0531(7)
H2 H 0.4942 -0.1539 0.0016
C4 C 0.4613(14) -0.1910(11) 0.1148(7)
H3 H 0.3487 -0.2243 0.1048
C5 C 0.5412(13) -0.1848(10) 0.1925(6)
H4 H 0.4825 -0.2158 0.2335
C6 C 0.7087(12) -0.1324(9) 0.2085(6)
C7 C 0.9684(12) -0.0180(10) 0.1581(6)
C8 C 1.4255(16) 0.3965(15) 0.1086(9)
H5 H 1.3163 0.4295 0.0896
C9 C 1.5724(15) 0.4656(12) 0.1082(8)
H6 H 1.5846 0.5555 0.0904
C10 C 1.6291(12) 0.2631(10) 0.1568(5)
H7 H 1.6898 0.1862 0.1778
C11 C 1.8869(14) 0.4138(12) 0.1483(7)
H8 H 1.9525 0.3331 0.1676
H9 H 1.9090 0.4868 0.1870
C12 C 1.9470(11) 0.4598(10) 0.0715(6)
C13 C 1.9578(13) 0.3650(10) 0.0109(7)
H10 H 1.9284 0.2731 0.0179
C14 C 1.9891(14) 0.5940(10) 0.0583(7)
H11 H 1.9812 0.6591 0.0977
O1 O 0.9855(9) 0.0812(7) 0.2048(5)
O2 O 1.0835(11) -0.0606(10) 0.1200(6)
N1 N 1.4594(11) 0.2691(9) 0.1413(5)
N2 N 1.7017(10) 0.3802(8) 0.1388(5)
Ag1A Ag 0.21072(14) 0.10040(14) 0.34223(7)
Ag1B Ag 2.71072(14) 0.89960(14) -0.15777(7)
C1A C 0.7058(11) -0.0860(9) 0.3542(5)
C2A C 0.7894(15) -0.0983(10) 0.4311(6)
H1A H 0.7307 -0.0711 0.4729
C3A C 0.9529(16) -0.1484(12) 0.4469(7)
H2A H 1.0058 -0.1539 0.4984
C4A C 1.0387(14) -0.1910(11) 0.3852(7)
H3A H 1.1513 -0.2243 0.3952
C5A C 0.9588(13) -0.1848(10) 0.3075(6)
H4A H 1.0175 -0.2158 0.2665
C6A C 0.7913(12) -0.1324(9) 0.2915(6)
C7A C 0.5316(12) -0.0180(10) 0.3419(6)
C8B C 2.5745(16) 0.6035(15) -0.1086(9)
H5B H 2.6837 0.5705 -0.0896
C9B C 2.4276(15) 0.5344(12) -0.1082(8)
H6B H 2.4154 0.4445 -0.0904
C10B C 2.3709(12) 0.7369(10) -0.1568(5)
H7B H 2.3102 0.8138 -0.1778
C11B C 2.1131(14) 0.5862(12) -0.1483(7)
H8B H 2.0475 0.6669 -0.1676
H9B H 2.0910 0.5132 -0.1870
C12B C 2.0530(11) 0.5402(10) -0.0715(6)
C13B C 2.0422(13) 0.6350(10) -0.0109(7)
H10B H 2.0716 0.7269 -0.0179
C14B C 2.0109(14) 0.4060(10) -0.0583(7)
H11B H 2.0188 0.3409 -0.0977
O1A O 0.5145(9) 0.0812(7) 0.2952(5)
O2A O 0.4165(11) -0.0606(10) 0.3800(6)
N1B N 2.5406(11) 0.7309(9) -0.1413(5)
N1A N 0.0406(11) 0.2691(9) 0.3587(5)
N2B N 2.2983(10) 0.6198(8) -0.1388(5)
loop_
_geom_bond_atom_site_label_1
_geom_bond_atom_site_label_2
_geom_bond_site_symmetry_1
_geom_bond_site_symmetry_2
Ag1 O2 1_555 1_555
C1 C2 1_555 1_555
C2 H1 1_555 1_555
C3 C2 1_555 1_555
H2 C3 1_555 1_555
C4 C3 1_555 1_555
H3 C4 1_555 1_555
C5 C4 1_555 1_555
H4 C5 1_555 1_555
C6 C1 1_555 1_555
C7 C1 1_555 1_555
C8 H5 1_555 1_555
C9 C8 1_555 1_555
H6 C9 1_555 1_555
C10 H7 1_555 1_555
C11 H8 1_555 1_555
H9 C11 1_555 1_555
C12 C11 1_555 1_555
C13 C12 1_555 1_555
H10 C13 1_555 1_555
C14 C12 1_555 1_555
H11 C14 1_555 1_555
O1 C7 1_555 1_555
O2 C7 1_555 1_555
N1 Ag1 1_555 1_555
N2 C9 1_555 1_555
Ag1A O2A 1_555 1_555
Ag1B N1B 1_555 1_555
C1A C2A 1_555 1_555
C2A H1A 1_555 1_555
C3A C2A 1_555 1_555
H2A C3A 1_555 1_555
C4A C3A 1_555 1_555
H3A C4A 1_555 1_555
C5A C4A 1_555 1_555
H4A C5A 1_555 1_555
C6A C6 1_555 1_555
C7A C1A 1_555 1_555
C8B H5B 1_555 1_555
C9B C8B 1_555 1_555
H6B C9B 1_555 1_555
C10B H7B 1_555 1_555
C11B H8B 1_555 1_555
H9B C11B 1_555 1_555
C12B C11B 1_555 1_555
C13B C14 1_555 1_555
H10B C13B 1_555 1_555
C14B C13 1_555 1_555
H11B C14B 1_555 1_555
O1A C7A 1_555 1_555
O2A C7A 1_555 1_555
N1B C8B 1_555 1_555
N1A Ag1A 1_555 1_555
N2B C9B 1_555 1_555
C5 C6 1_555 1_555
C8 N1 1_555 1_555
C10 N1 1_555 1_555
C10 N2 1_555 1_555
C11 N2 1_555 1_555
C1A C6A 1_555 1_555
C5A C6A 1_555 1_555
C10B N1B 1_555 1_555
C10B N2B 1_555 1_555
C11B N2B 1_555 1_555
C12B C13B 1_555 1_555
C12B C14B 1_555 1_555

#END
