
#######################################################################
#
#                 Cambridge Crystallographic Data Centre
#                                CCDC 
#
#######################################################################
#
# If this CIF has been generated from an entry in the Cambridge 
# Structural Database, then it will include bibliographic, chemical, 
# crystal, experimental, refinement or atomic coordinate data resulting 
# from the CCDC's data processing and validation procedures.
#
#######################################################################

data_DEDZOC
_symmetry_cell_setting           orthorhombic
_symmetry_space_group_name_H-M   'P n a 21'
_symmetry_Int_Tables_number      33
_space_group_name_Hall           'P 2c -2n'
loop_
_symmetry_equiv_pos_site_id
_symmetry_equiv_pos_as_xyz
1 x,y,z
2 -x,-y,1/2+z
3 1/2+x,1/2-y,z
4 1/2-x,1/2+y,1/2+z
_cell_length_a                   10.611(3)
_cell_length_b                   11.936(3)
_cell_length_c                   48.733(12)
_cell_angle_alpha                90
_cell_angle_beta                 90
_cell_angle_gamma                90
_cell_volume                     6172.18
loop_
_atom_site_label
_atom_site_type_symbol
_atom_site_fract_x
_atom_site_fract_y
_atom_site_fract_z
Tl1 Tl 0.82034(8) 0.47088(10) 0.36135(2)
Tl2 Tl 0.56431(8) 0.54820(10) 0.39339(2)
B1 B 0.6107(17) 0.3690(16) 0.3521(4)
N1 N 0.6622(13) 0.3480(12) 0.3786(3)
N2 N 0.6174(12) 0.5022(13) 0.3457(3)
C1 C 0.661(2) 0.2276(16) 0.3929(5)
H1 H 0.6035 0.1777 0.3821
C2 C 0.784(2) 0.175(2) 0.3943(6)
H2 H 0.7759 0.1021 0.4034
H3 H 0.8410 0.2229 0.4049
H4 H 0.8168 0.1648 0.3757
C3 C 0.613(3) 0.234(2) 0.4214(6)
H5 H 0.6141 0.1587 0.4296
H6 H 0.5264 0.2625 0.4213
H7 H 0.6667 0.2840 0.4321
C4 C 0.5789(19) 0.5648(17) 0.3208(4)
H8 H 0.5477 0.5096 0.3069
C5 C 0.668(2) 0.644(2) 0.3067(5)
H9 H 0.7452 0.6039 0.3015
H10 H 0.6900 0.7055 0.3192
H11 H 0.6281 0.6748 0.2902
C6 C 0.4745(19) 0.647(2) 0.3266(5)
H12 H 0.4054 0.6089 0.3361
H13 H 0.4436 0.6785 0.3093
H14 H 0.5068 0.7078 0.3382
C7 C 0.558(2) 0.2648(18) 0.3328(5)
C8 C 0.605(2) 0.1649(19) 0.3276(5)
H15 H 0.6843 0.1523 0.3360
C9 C 0.560(2) 0.0690(19) 0.3114(5)
H16 H 0.6043 0.0000 0.3100
C10 C 0.447(2) 0.090(2) 0.2984(5)
H17 H 0.4104 0.0389 0.2857
C11 C 0.393(2) 0.1870(19) 0.3049(5)
H18 H 0.3084 0.1944 0.2987
C12 C 0.439(2) 0.283(2) 0.3199(5)
H19 H 0.3950 0.3518 0.3209
Tl3 Tl 0.43205(8) 0.52935(10) 0.19714(2)
Tl4 Tl 0.68815(8) 0.45170(10) 0.16520(2)
B2 B 0.6420(16) 0.6311(16) 0.2066(4)
N3 N 0.5913(13) 0.6519(12) 0.1802(3)
N4 N 0.6333(12) 0.4977(13) 0.2131(3)
C13 C 0.590(2) 0.7709(16) 0.1651(5)
H20 H 0.6489 0.8218 0.1753
C14 C 0.639(3) 0.758(2) 0.1370(6)
H21 H 0.6384 0.8304 0.1277
H22 H 0.5858 0.7048 0.1269
H23 H 0.7256 0.7290 0.1377
C15 C 0.468(2) 0.825(2) 0.1636(5)
H24 H 0.4774 0.8980 0.1546
H25 H 0.4352 0.8355 0.1822
H26 H 0.4104 0.7780 0.1530
C16 C 0.6757(19) 0.4366(18) 0.2382(4)
H27 H 0.7028 0.4918 0.2525
C17 C 0.781(2) 0.355(2) 0.2327(6)
H28 H 0.8017 0.3148 0.2496
H29 H 0.8557 0.3963 0.2263
H30 H 0.7549 0.3018 0.2185
C18 C 0.583(2) 0.356(2) 0.2504(5)
H31 H 0.5061 0.3970 0.2556
H32 H 0.6195 0.3209 0.2666
H33 H 0.5614 0.2987 0.2368
C19 C 0.703(2) 0.7344(16) 0.2248(5)
C20 C 0.812(2) 0.720(2) 0.2360(5)
H34 H 0.8605 0.6549 0.2319
C21 C 0.861(2) 0.803(2) 0.2549(5)
H35 H 0.9370 0.7854 0.2643
C22 C 0.808(2) 0.908(2) 0.2604(5)
H36 H 0.8491 0.9619 0.2716
C23 C 0.696(2) 0.9272(19) 0.2493(5)
H37 H 0.6508 0.9943 0.2528
C24 C 0.6468(19) 0.8400(18) 0.2314(5)
H38 H 0.5676 0.8550 0.2231
Tl5 Tl 0.48421(11) 0.23005(12) 0.04208(2)
Tl6 Tl 0.24678(9) 0.21444(12) 0.08453(2)
B3 B 0.4725(19) 0.209(3) 0.0970(4)
N5 N 0.4383(14) 0.3255(17) 0.0854(3)
N6 N 0.4345(15) 0.1055(17) 0.0808(3)
C25 C 0.4716(19) 0.4546(18) 0.0942(4)
H39 H 0.5441 0.4510 0.1073
C26 C 0.374(2) 0.525(2) 0.1072(5)
H40 H 0.4089 0.5994 0.1110
H41 H 0.3467 0.4902 0.1244
H42 H 0.3020 0.5321 0.0947
C27 C 0.514(3) 0.527(2) 0.0699(5)
H43 H 0.5305 0.6035 0.0763
H44 H 0.4469 0.5285 0.0560
H45 H 0.5906 0.4955 0.0619
C28 C 0.454(2) -0.0232(19) 0.0863(5)
H46 H 0.4849 -0.0322 0.1056
C29 C 0.345(2) -0.105(2) 0.0820(6)
H47 H 0.3732 -0.1809 0.0864
H48 H 0.3175 -0.1016 0.0628
H49 H 0.2751 -0.0841 0.0941
C30 C 0.549(2) -0.077(2) 0.0675(5)
H50 H 0.5547 -0.1569 0.0714
H51 H 0.6319 -0.0418 0.0704
H52 H 0.5233 -0.0656 0.0484
C31 C 0.521(2) 0.194(2) 0.1279(3)
C32 C 0.462(2) 0.236(2) 0.1508(5)
H53 H 0.3937 0.2852 0.1475
C33 C 0.491(2) 0.215(2) 0.1789(4)
H54 H 0.4450 0.2476 0.1936
C34 C 0.589(2) 0.145(2) 0.1831(4)
H55 H 0.6150 0.1268 0.2013
C35 C 0.651(2) 0.100(2) 0.1614(5)
H56 H 0.7254 0.0586 0.1649
C36 C 0.6132(19) 0.111(2) 0.1343(5)
H57 H 0.6479 0.0648 0.1203
Tl7 Tl 0.49416(9) 0.28367(13) -0.02584(2)
Tl8 Tl 0.72986(11) 0.26506(10) 0.01505(2)
B4 B 0.7301(19) 0.288(3) -0.0376(4)
N7 N 0.6839(15) 0.3935(17) -0.0221(4)
N8 N 0.6878(15) 0.1722(17) -0.0274(3)
C37 C 0.7018(19) 0.5294(18) -0.0258(5)
H58 H 0.7293 0.5451 -0.0451
C38 C 0.799(2) 0.573(2) -0.0066(6)
H59 H 0.8072 0.6539 -0.0091
H60 H 0.8795 0.5364 -0.0104
H61 H 0.7728 0.5568 0.0123
C39 C 0.592(2) 0.604(2) -0.0190(6)
H62 H 0.6160 0.6822 -0.0214
H63 H 0.5662 0.5908 0.0001
H64 H 0.5211 0.5861 -0.0312
C40 C 0.720(2) 0.0494(19) -0.0357(4)
H65 H 0.7948 0.0555 -0.0481
C41 C 0.761(2) -0.031(2) -0.0127(5)
H66 H 0.8219 0.0071 -0.0007
H67 H 0.8003 -0.0974 -0.0207
H68 H 0.6872 -0.0531 -0.0019
C42 C 0.626(2) -0.020(2) -0.0512(5)
H69 H 0.5897 0.0247 -0.0661
H70 H 0.5589 -0.0444 -0.0388
H71 H 0.6683 -0.0860 -0.0590
C43 C 0.7669(19) 0.310(2) -0.0691(3)
C44 C 0.8600(19) 0.381(2) -0.0759(4)
H72 H 0.9052 0.4140 -0.0611
C45 C 0.898(2) 0.411(2) -0.1029(5)
H73 H 0.9614 0.4657 -0.1060
C46 C 0.839(2) 0.359(2) -0.1238(4)
H74 H 0.8659 0.3720 -0.1421
C47 C 0.742(2) 0.288(2) -0.1187(4)
H75 H 0.7000 0.2535 -0.1337
C48 C 0.701(3) 0.265(2) -0.0923(5)
H76 H 0.6292 0.2193 -0.0895
Tl5B Tl -0.01579(11) 0.26995(12) 0.04208(2)
Tl5B_2 Tl 0.98421(11) 0.26995(12) 0.04208(2)
Tl6B Tl 0.74678(9) 0.28556(12) 0.08453(2)
Tl7B Tl 0.99416(9) 0.21633(13) -0.02584(2)
Tl8B Tl 0.22986(11) 0.23494(10) 0.01505(2)
loop_
_geom_bond_atom_site_label_1
_geom_bond_atom_site_label_2
_geom_bond_site_symmetry_1
_geom_bond_site_symmetry_2
Tl1 Tl2 1_555 1_555
Tl2 N1 1_555 1_555
B1 N1 1_555 1_555
N1 Tl1 1_555 1_555
N2 Tl1 1_555 1_555
C1 N1 1_555 1_555
H1 C1 1_555 1_555
C2 C1 1_555 1_555
H2 C2 1_555 1_555
H3 C2 1_555 1_555
H4 C2 1_555 1_555
C3 C1 1_555 1_555
H5 C3 1_555 1_555
H6 C3 1_555 1_555
H7 C3 1_555 1_555
C4 N2 1_555 1_555
H8 C4 1_555 1_555
C5 C4 1_555 1_555
H9 C5 1_555 1_555
H10 C5 1_555 1_555
H11 C5 1_555 1_555
C6 C4 1_555 1_555
H12 C6 1_555 1_555
H13 C6 1_555 1_555
H14 C6 1_555 1_555
C7 B1 1_555 1_555
C8 C7 1_555 1_555
H15 C8 1_555 1_555
C9 C8 1_555 1_555
H16 C9 1_555 1_555
C10 C9 1_555 1_555
H17 C10 1_555 1_555
C11 C10 1_555 1_555
H18 C11 1_555 1_555
C12 C7 1_555 1_555
H19 C12 1_555 1_555
Tl3 Tl4 1_555 1_555
Tl4 N3 1_555 1_555
B2 N3 1_555 1_555
N3 Tl3 1_555 1_555
N4 Tl3 1_555 1_555
C13 N3 1_555 1_555
H20 C13 1_555 1_555
C14 C13 1_555 1_555
H21 C14 1_555 1_555
H22 C14 1_555 1_555
H23 C14 1_555 1_555
C15 C13 1_555 1_555
H24 C15 1_555 1_555
H25 C15 1_555 1_555
H26 C15 1_555 1_555
C16 N4 1_555 1_555
H27 C16 1_555 1_555
C17 C16 1_555 1_555
H28 C17 1_555 1_555
H29 C17 1_555 1_555
H30 C17 1_555 1_555
C18 C16 1_555 1_555
H31 C18 1_555 1_555
H32 C18 1_555 1_555
H33 C18 1_555 1_555
C19 B2 1_555 1_555
C20 C19 1_555 1_555
H34 C20 1_555 1_555
C21 C20 1_555 1_555
H35 C21 1_555 1_555
C22 C21 1_555 1_555
H36 C22 1_555 1_555
C23 C22 1_555 1_555
H37 C23 1_555 1_555
C24 C19 1_555 1_555
H38 C24 1_555 1_555
Tl5 Tl6 1_555 1_555
Tl6 N5 1_555 1_555
B3 N5 1_555 1_555
N5 Tl5 1_555 1_555
N6 Tl5 1_555 1_555
C25 N5 1_555 1_555
H39 C25 1_555 1_555
C26 C25 1_555 1_555
H40 C26 1_555 1_555
H41 C26 1_555 1_555
H42 C26 1_555 1_555
C27 C25 1_555 1_555
H43 C27 1_555 1_555
H44 C27 1_555 1_555
H45 C27 1_555 1_555
C28 N6 1_555 1_555
H46 C28 1_555 1_555
C29 C28 1_555 1_555
H47 C29 1_555 1_555
H48 C29 1_555 1_555
H49 C29 1_555 1_555
C30 C28 1_555 1_555
H50 C30 1_555 1_555
H51 C30 1_555 1_555
H52 C30 1_555 1_555
C31 B3 1_555 1_555
C32 C31 1_555 1_555
H53 C32 1_555 1_555
C33 C32 1_555 1_555
H54 C33 1_555 1_555
C34 C33 1_555 1_555
H55 C34 1_555 1_555
C35 C34 1_555 1_555
H56 C35 1_555 1_555
C36 C31 1_555 1_555
H57 C36 1_555 1_555
Tl7 Tl5 1_555 1_555
Tl8 Tl5 1_555 1_555
B4 N7 1_555 1_555
N7 Tl7 1_555 1_555
N8 Tl7 1_555 1_555
C37 N7 1_555 1_555
H58 C37 1_555 1_555
C38 C37 1_555 1_555
H59 C38 1_555 1_555
H60 C38 1_555 1_555
H61 C38 1_555 1_555
C39 C37 1_555 1_555
H62 C39 1_555 1_555
H63 C39 1_555 1_555
H64 C39 1_555 1_555
C40 N8 1_555 1_555
H65 C40 1_555 1_555
C41 C40 1_555 1_555
H66 C41 1_555 1_555
H67 C41 1_555 1_555
H68 C41 1_555 1_555
C42 C40 1_555 1_555
H69 C42 1_555 1_555
H70 C42 1_555 1_555
H71 C42 1_555 1_555
C43 B4 1_555 1_555
C44 C43 1_555 1_555
H72 C44 1_555 1_555
C45 C44 1_555 1_555
H73 C45 1_555 1_555
C46 C45 1_555 1_555
H74 C46 1_555 1_555
C47 C46 1_555 1_555
H75 C47 1_555 1_555
C48 C43 1_555 1_555
H76 C48 1_555 1_555
Tl5B Tl6 1_555 1_555
Tl5B_2 Tl8 1_555 1_555
Tl6B Tl5 1_555 1_555
Tl7B Tl8 1_555 1_555
Tl8B Tl5 1_555 1_555
Tl2 N2 1_555 1_555
B1 N2 1_555 1_555
C11 C12 1_555 1_555
Tl4 N4 1_555 1_555
B2 N4 1_555 1_555
C23 C24 1_555 1_555
Tl6 N6 1_555 1_555
Tl6 Tl8B 1_555 1_555
B3 N6 1_555 1_555
C35 C36 1_555 1_555
Tl7 Tl8 1_555 1_555
Tl7 Tl8B 1_555 1_555
Tl8 N7 1_555 1_555
Tl8 N8 1_555 1_555
Tl8 Tl6B 1_555 1_555
B4 N8 1_555 1_555
C47 C48 1_555 1_555
Tl5B Tl8B 1_555 1_555
Tl5B_2 Tl6B 1_555 1_555
Tl5B_2 Tl7B 1_555 1_555

#END
