
#######################################################################
#
#                 Cambridge Crystallographic Data Centre
#                                CCDC 
#
#######################################################################
#
# If this CIF has been generated from an entry in the Cambridge 
# Structural Database, then it will include bibliographic, chemical, 
# crystal, experimental, refinement or atomic coordinate data resulting 
# from the CCDC's data processing and validation procedures.
#
#######################################################################

data_DEFGEB
_symmetry_cell_setting           triclinic
_symmetry_space_group_name_H-M   'P -1'
_symmetry_Int_Tables_number      2
_space_group_name_Hall           '-P 1'
loop_
_symmetry_equiv_pos_site_id
_symmetry_equiv_pos_as_xyz
1 x,y,z
2 -x,-y,-z
_cell_length_a                   9.882(7)
_cell_length_b                   10.931(8)
_cell_length_c                   11.409(8)
_cell_angle_alpha                96.494(15)
_cell_angle_beta                 92.268(13)
_cell_angle_gamma                115.131(13)
_cell_volume                     1103.31
loop_
_atom_site_label
_atom_site_type_symbol
_atom_site_fract_x
_atom_site_fract_y
_atom_site_fract_z
K1 K 0.95457(17) 0.69810(14) -0.24616(11)
O1 O 0.9996(6) 0.6478(5) -0.0278(4)
O2 O 1.1766(6) 0.7160(4) 0.1233(4)
O3 O 1.0096(5) 0.5367(5) 0.3120(4)
O4 O 1.1494(5) 0.7394(4) 0.4229(4)
O5 O 0.8735(5) 0.7273(4) 0.5296(4)
O6 O 0.8157(5) 0.8999(4) 0.4986(3)
O7 O 0.8038(5) 1.0589(5) 0.2756(4)
O8 O 0.6043(5) 0.8630(4) 0.2865(4)
O9 O 0.9004(6) 0.8504(4) -0.0637(4)
O10 O 0.7289(5) 0.8913(4) 0.0326(3)
O11 O 0.6411(6) 0.5483(6) -0.2459(6)
C1 C 0.9618(7) 0.7423(6) 0.1615(5)
C2 C 0.9664(7) 0.7309(6) 0.2817(5)
C3 C 0.8859(7) 0.7973(5) 0.3386(5)
C4 C 0.8309(7) 0.8504(6) 0.2489(5)
C5 C 0.8735(7) 0.8147(6) 0.1403(5)
C6 C 1.0401(9) 0.6955(6) 0.0745(6)
C7 C 1.2684(10) 0.6751(8) 0.0466(8)
H1 H 1.2149 0.5772 0.0173
H2 H 1.3634 0.6936 0.0914
H3 H 1.2889 0.7267 -0.0206
C8 C 1.0403(8) 0.6576(7) 0.3384(5)
C9 C 1.2214(9) 0.6757(7) 0.4919(6)
H4 H 1.1446 0.5989 0.5235
H5 H 1.2881 0.7428 0.5576
H6 H 1.2801 0.6426 0.4411
C10 C 0.8589(7) 0.8013(7) 0.4634(6)
C11 C 0.7827(8) 0.9116(7) 0.6202(6)
H7 H 0.6977 0.8273 0.6333
H8 H 0.7573 0.9888 0.6373
H9 H 0.8709 0.9266 0.6728
C12 C 0.7486(8) 0.9363(7) 0.2708(5)
C13 C 0.5180(9) 0.9400(8) 0.3140(8)
H10 H 0.5547 0.9942 0.3928
H11 H 0.4118 0.8769 0.3131
H12 H 0.5292 1.0011 0.2547
C14 C 0.8430(8) 0.8539(6) 0.0266(6)
C15 C 0.6987(9) 0.9495(7) -0.0660(6)
H13 H 0.7922 1.0234 -0.0833
H14 H 0.6260 0.9860 -0.0466
H15 H 0.6574 0.8789 -0.1356
C16 C 0.5398(10) 0.5077(9) -0.3469(7)
H16 H 0.4909 0.4070 -0.3665
H17 H 0.5918 0.5470 -0.4154
C17 C 0.4292(10) 0.5589(9) -0.3183(9)
H18 H 0.3298 0.4991 -0.3616
H19 H 0.4613 0.6529 -0.3370
C18 C 0.4252(11) 0.5559(10) -0.1858(11)
H20 H 0.4382 0.6450 -0.1437
H21 H 0.3290 0.4839 -0.1681
C19 C 0.5504(12) 0.5263(10) -0.1517(8)
H22 H 0.6083 0.5871 -0.0786
H23 H 0.5132 0.4304 -0.1368
K1A K 1.04543(17) 0.30190(14) 0.24616(11)
K1_2 K 0.95457(17) 0.69810(14) 0.75384(11)
K1A_2 K 1.04543(17) 1.30190(14) 0.24616(11)
O3A O 0.9904(5) 0.4633(5) -0.3120(4)
O5_2 O 0.8735(5) 0.7273(4) -0.4704(4)
O7A O 1.1962(5) 0.9411(5) -0.2756(4)
loop_
_geom_bond_atom_site_label_1
_geom_bond_atom_site_label_2
_geom_bond_site_symmetry_1
_geom_bond_site_symmetry_2
K1 O1 1_555 1_555
O1 C6 1_555 1_555
O2 C6 1_555 1_555
O3 C8 1_555 1_555
O4 C8 1_555 1_555
O5 C10 1_555 1_555
O6 C10 1_555 1_555
O7 C12 1_555 1_555
O8 C12 1_555 1_555
O9 K1 1_555 1_555
O10 C14 1_555 1_555
O11 K1 1_555 1_555
C1 C2 1_555 1_555
C2 C3 1_555 1_555
C3 C4 1_555 1_555
C4 C5 1_555 1_555
C5 C1 1_555 1_555
C6 C1 1_555 1_555
C7 O2 1_555 1_555
H1 C7 1_555 1_555
H2 C7 1_555 1_555
H3 C7 1_555 1_555
C8 C2 1_555 1_555
C9 O4 1_555 1_555
H4 C9 1_555 1_555
H5 C9 1_555 1_555
H6 C9 1_555 1_555
C10 C3 1_555 1_555
C11 O6 1_555 1_555
H7 C11 1_555 1_555
H8 C11 1_555 1_555
H9 C11 1_555 1_555
C12 C4 1_555 1_555
C13 O8 1_555 1_555
H10 C13 1_555 1_555
H11 C13 1_555 1_555
H12 C13 1_555 1_555
C14 O9 1_555 1_555
C15 O10 1_555 1_555
H13 C15 1_555 1_555
H14 C15 1_555 1_555
H15 C15 1_555 1_555
C16 O11 1_555 1_555
H16 C16 1_555 1_555
H17 C16 1_555 1_555
C17 C16 1_555 1_555
H18 C17 1_555 1_555
H19 C17 1_555 1_555
C18 C17 1_555 1_555
H20 C18 1_555 1_555
H21 C18 1_555 1_555
C19 O11 1_555 1_555
H22 C19 1_555 1_555
H23 C19 1_555 1_555
K1A O3 1_555 1_555
K1_2 O5 1_555 1_555
K1A_2 O7 1_555 1_555
O3A K1 1_555 1_555
O5_2 K1 1_555 1_555
O7A K1 1_555 1_555
C5 C14 1_555 1_555
C18 C19 1_555 1_555

#END
