
#######################################################################
#
#                 Cambridge Crystallographic Data Centre
#                                CCDC 
#
#######################################################################
#
# If this CIF has been generated from an entry in the Cambridge 
# Structural Database, then it will include bibliographic, chemical, 
# crystal, experimental, refinement or atomic coordinate data resulting 
# from the CCDC's data processing and validation procedures.
#
#######################################################################

data_DEFHUR01
_symmetry_cell_setting           monoclinic
_symmetry_space_group_name_H-M   'P 21/n'
_symmetry_Int_Tables_number      14
_space_group_name_Hall           '-P 2yn'
loop_
_symmetry_equiv_pos_site_id
_symmetry_equiv_pos_as_xyz
1 x,y,z
2 1/2+x,1/2-y,1/2+z
3 -x,-y,-z
4 1/2-x,1/2+y,1/2-z
_cell_length_a                   3.89610(10)
_cell_length_b                   22.3076(7)
_cell_length_c                   9.1298(4)
_cell_angle_alpha                90
_cell_angle_beta                 90.3590(10)
_cell_angle_gamma                90
_cell_volume                     793.479
loop_
_atom_site_label
_atom_site_type_symbol
_atom_site_fract_x
_atom_site_fract_y
_atom_site_fract_z
C1 C 0.2934(19) 0.1624(3) 0.4063(9)
C2 C 0.310(2) 0.2016(4) 0.6688(9)
H1 H 0.4711 0.2151 0.7464
H2 H 0.0769 0.2162 0.6921
C3 C 0.314(2) 0.1338(4) 0.6552(9)
H3 H 0.5447 0.1177 0.6787
H4 H 0.1451 0.1155 0.7223
N1 N 0.2223(17) 0.1214(3) 0.5017(7)
H5 H 0.1234 0.0875 0.4758
S1 S 0.4458(6) 0.22833(9) 0.4894(2)
S2 S 0.2723(5) 0.15836(8) 0.2217(2)
Cl1 Cl -0.2409(4) 0.01636(8) 0.3337(2)
Cl2 Cl -0.2492(5) 0.06503(8) -0.04372(19)
Cd1 Cd 0.25370(13) 0.04474(2) 0.15666(6)
Cd1_2 Cd -0.74630(13) 0.04474(2) 0.15666(6)
Cd1B Cd -0.25370(13) -0.04474(2) -0.15666(6)
Cl1_2 Cl 0.7591(4) 0.01636(8) 0.3337(2)
Cl2_2 Cl 0.7508(5) 0.06503(8) -0.04372(19)
Cl2B Cl 0.2492(5) -0.06503(8) 0.04372(19)
loop_
_geom_bond_atom_site_label_1
_geom_bond_atom_site_label_2
_geom_bond_site_symmetry_1
_geom_bond_site_symmetry_2
C1 N1 1_555 1_555
C2 H1 1_555 1_555
H2 C2 1_555 1_555
C3 C2 1_555 1_555
H3 C3 1_555 1_555
H4 C3 1_555 1_555
N1 C3 1_555 1_555
H5 N1 1_555 1_555
S1 C1 1_555 1_555
S2 C1 1_555 1_555
Cl1 Cd1 1_555 1_555
Cl2 Cd1 1_555 1_555
Cd1 S2 1_555 1_555
Cd1_2 Cl1 1_555 1_555
Cd1B Cl2 1_555 1_555
Cl1_2 Cd1 1_555 1_555
Cl2_2 Cd1 1_555 1_555
Cl2B Cd1 1_555 1_555
C2 S1 1_555 1_555
Cl2 Cd1_2 1_555 1_555
Cd1B Cl2B 1_555 1_555

#END
