
#######################################################################
#
#                 Cambridge Crystallographic Data Centre
#                                CCDC 
#
#######################################################################
#
# If this CIF has been generated from an entry in the Cambridge 
# Structural Database, then it will include bibliographic, chemical, 
# crystal, experimental, refinement or atomic coordinate data resulting 
# from the CCDC's data processing and validation procedures.
#
#######################################################################

data_DEFKUW
_symmetry_cell_setting           monoclinic
_symmetry_space_group_name_H-M   'C 2/c'
_symmetry_Int_Tables_number      15
_space_group_name_Hall           '-C 2yn'
loop_
_symmetry_equiv_pos_site_id
_symmetry_equiv_pos_as_xyz
1 x,y,z
2 -x,y,1/2-z
3 1/2+x,1/2+y,z
4 1/2-x,1/2+y,1/2-z
5 -x,-y,-z
6 x,-y,1/2+z
7 1/2-x,1/2-y,-z
8 1/2+x,1/2-y,1/2+z
_cell_length_a                   30.2598(9)
_cell_length_b                   14.9444(4)
_cell_length_c                   10.2439(3)
_cell_angle_alpha                90
_cell_angle_beta                 102.8620(10)
_cell_angle_gamma                90
_cell_volume                     4516.21
loop_
_atom_site_label
_atom_site_type_symbol
_atom_site_fract_x
_atom_site_fract_y
_atom_site_fract_z
H1 H 0.4774(8) 1.1379(16) 0.538(2)
H2 H 0.4907(8) 1.1939(17) 0.630(2)
Eu1 Eu 0.5000 1.001074(6) 0.7500
O1 O 0.44480(4) 1.03426(10) 1.06202(12)
O2 O 0.43732(4) 1.02355(9) 0.84319(13)
O3 O 0.52145(5) 0.84972(7) 0.67651(13)
O4 O 0.48013(5) 1.14127(9) 0.60922(15)
N1 N 0.23605(5) 1.14652(10) 0.85317(16)
N2 N 0.18251(6) 1.22128(11) 0.68868(17)
N3 N 0.21986(5) 1.03550(11) 0.99194(16)
N4 N 0.5000 0.42397(13) 0.7500
N5 N 0.46162(6) 0.30054(10) 0.80879(18)
C1 C 0.42198(5) 1.03837(10) 0.94503(16)
C2 C 0.37308(5) 1.06484(10) 0.92345(15)
C3 C 0.35478(5) 1.09320(10) 1.02958(15)
H3 H 0.3730 1.0953 1.1156
C4 C 0.30973(5) 1.11836(11) 1.00813(16)
H4 H 0.2978 1.1372 1.0797
C5 C 0.28227(5) 1.11563(11) 0.88016(17)
C6 C 0.30023(6) 1.08679(12) 0.77412(17)
H5 H 0.2819 1.0840 0.6883
C7 C 0.34535(5) 1.06219(11) 0.79558(16)
H6 H 0.3572 1.0437 0.7238
C8 C 0.22469(6) 1.21865(11) 0.76166(17)
C9 C 0.25690(7) 1.28364(13) 0.7534(2)
H7 H 0.2862 1.2795 0.8055
C10 C 0.24457(9) 1.35377(15) 0.6671(2)
H8 H 0.2657 1.3972 0.6583
C11 C 0.20091(10) 1.35963(16) 0.5936(2)
H9 H 0.1917 1.4075 0.5359
C12 C 0.17141(9) 1.29340(17) 0.6074(2)
H10 H 0.1417 1.2978 0.5580
C13 C 0.20562(6) 1.10972(11) 0.92446(18)
C14 C 0.16375(6) 1.14912(14) 0.9274(2)
H11 H 0.1539 1.2003 0.8777
C15 C 0.13763(7) 1.10985(16) 1.0060(2)
H12 H 0.1096 1.1342 1.0091
C16 C 0.15286(7) 1.03506(19) 1.0794(2)
H13 H 0.1360 1.0087 1.1348
C17 C 0.19367(8) 1.00041(13) 1.0685(3)
H14 H 0.2039 0.9492 1.1174
C18 C 0.5000 0.80819(15) 0.7500
C19 C 0.5000 0.70734(15) 0.7500
C20 C 0.52338(8) 0.65989(12) 0.6707(2)
H15 H 0.5394 0.6907 0.6173
C21 C 0.52321(8) 0.56691(12) 0.6699(2)
H16 H 0.5388 0.5361 0.6153
C22 C 0.5000 0.51999(16) 0.7500
C23 C 0.45930(6) 0.37670(11) 0.73980(19)
C24 C 0.41932(7) 0.40774(14) 0.6606(2)
H17 H 0.4187 0.4614 0.6142
C25 C 0.38038(8) 0.35819(16) 0.6510(3)
H18 H 0.3531 0.3780 0.5980
C26 C 0.38232(8) 0.27976(14) 0.7199(3)
H19 H 0.3565 0.2450 0.7152
C27 C 0.42309(8) 0.25389(13) 0.7959(3)
H20 H 0.4243 0.2000 0.8420
H1A H 0.5226(8) 1.1379(16) 0.962(2)
H2A H 0.5093(8) 1.1939(17) 0.870(2)
Eu1D Eu 0.5000 0.998926(6) 1.2500
Eu1D_2 Eu 0.5000 0.998926(6) 0.2500
O1E O 0.44480(4) 0.96574(10) 0.56202(12)
O1D O 0.55520(4) 0.96574(10) 0.93798(12)
O2E O 0.43732(4) 0.97645(9) 0.34319(13)
O2A O 0.56268(4) 1.02355(9) 0.65681(13)
O3A O 0.47855(5) 0.84972(7) 0.82349(13)
O4A O 0.51987(5) 1.14127(9) 0.89078(15)
N1E N 0.23605(5) 0.85348(10) 0.35317(16)
N2E N 0.18251(6) 0.77872(11) 0.18868(17)
N3E N 0.21986(5) 0.96450(11) 0.49194(16)
N5A N 0.53838(6) 0.30054(10) 0.69121(18)
C1E C 0.42198(5) 0.96163(10) 0.44503(16)
C2E C 0.37308(5) 0.93516(10) 0.42345(15)
C3E C 0.35478(5) 0.90680(10) 0.52958(15)
H3E H 0.3730 0.9047 0.6156
C4E C 0.30973(5) 0.88164(11) 0.50813(16)
H4E H 0.2978 0.8628 0.5797
C5E C 0.28227(5) 0.88437(11) 0.38016(17)
C6E C 0.30023(6) 0.91321(12) 0.27412(17)
H5E H 0.2819 0.9160 0.1883
C7E C 0.34535(5) 0.93781(11) 0.29558(16)
H6E H 0.3572 0.9563 0.2238
C8E C 0.22469(6) 0.78135(11) 0.26166(17)
C9E C 0.25690(7) 0.71636(13) 0.2534(2)
H7E H 0.2862 0.7205 0.3055
C10E C 0.24457(9) 0.64623(15) 0.1671(2)
H8E H 0.2657 0.6028 0.1583
C11E C 0.20091(10) 0.64037(16) 0.0936(2)
H9E H 0.1917 0.5925 0.0359
C12E C 0.17141(9) 0.70660(17) 0.1074(2)
H10E H 0.1417 0.7022 0.0580
C13E C 0.20562(6) 0.89028(11) 0.42446(18)
C14E C 0.16375(6) 0.85088(14) 0.4274(2)
H11E H 0.1539 0.7997 0.3777
C15E C 0.13763(7) 0.89015(16) 0.5060(2)
H12E H 0.1096 0.8658 0.5091
C16E C 0.15286(7) 0.96494(19) 0.5794(2)
H13E H 0.1360 0.9913 0.6348
C17E C 0.19367(8) 0.99959(13) 0.5685(3)
H14E H 0.2039 1.0508 0.6174
C20A C 0.47662(8) 0.65989(12) 0.8293(2)
H15A H 0.4606 0.6907 0.8827
C21A C 0.47679(8) 0.56691(12) 0.8301(2)
H16A H 0.4612 0.5361 0.8847
C23A C 0.54070(6) 0.37670(11) 0.76020(19)
C24A C 0.58068(7) 0.40774(14) 0.8394(2)
H17A H 0.5813 0.4614 0.8858
C25A C 0.61962(8) 0.35819(16) 0.8490(3)
H18A H 0.6469 0.3780 0.9020
C26A C 0.61768(8) 0.27976(14) 0.7801(3)
H19A H 0.6435 0.2450 0.7848
C27A C 0.57691(8) 0.25389(13) 0.7041(3)
H20A H 0.5757 0.2000 0.6580
loop_
_geom_bond_atom_site_label_1
_geom_bond_atom_site_label_2
_geom_bond_site_symmetry_1
_geom_bond_site_symmetry_2
H1 O4 1_555 1_555
H2 O4 1_555 1_555
Eu1 O2 1_555 1_555
O1 C1 1_555 1_555
O2 C1 1_555 1_555
O3 Eu1 1_555 1_555
O4 Eu1 1_555 1_555
N1 C5 1_555 1_555
N2 C8 1_555 1_555
N3 C13 1_555 1_555
N4 C22 1_555 1_555
N5 C23 1_555 1_555
C1 C2 1_555 1_555
C2 C3 1_555 1_555
C3 H3 1_555 1_555
C4 C3 1_555 1_555
H4 C4 1_555 1_555
C5 C4 1_555 1_555
C6 C5 1_555 1_555
H5 C6 1_555 1_555
C7 C2 1_555 1_555
H6 C7 1_555 1_555
C8 N1 1_555 1_555
C9 C8 1_555 1_555
H7 C9 1_555 1_555
C10 C9 1_555 1_555
H8 C10 1_555 1_555
C11 C10 1_555 1_555
H9 C11 1_555 1_555
C12 N2 1_555 1_555
H10 C12 1_555 1_555
C13 N1 1_555 1_555
C14 C13 1_555 1_555
H11 C14 1_555 1_555
C15 C14 1_555 1_555
H12 C15 1_555 1_555
C16 C15 1_555 1_555
H13 C16 1_555 1_555
C17 N3 1_555 1_555
H14 C17 1_555 1_555
C18 O3 1_555 1_555
C19 C18 1_555 1_555
C20 C19 1_555 1_555
H15 C20 1_555 1_555
C21 C20 1_555 1_555
H16 C21 1_555 1_555
C22 C21 1_555 1_555
C23 N4 1_555 1_555
C24 C23 1_555 1_555
H17 C24 1_555 1_555
C25 C24 1_555 1_555
H18 C25 1_555 1_555
C26 C25 1_555 1_555
H19 C26 1_555 1_555
C27 N5 1_555 1_555
H20 C27 1_555 1_555
H1A O4A 1_555 1_555
H2A O4A 1_555 1_555
Eu1D O1 1_555 1_555
Eu1D_2 O2E 1_555 1_555
O1E Eu1 1_555 1_555
O1D Eu1 1_555 1_555
O2E C1E 1_555 1_555
O2A Eu1 1_555 1_555
O3A Eu1 1_555 1_555
O4A Eu1 1_555 1_555
N1E C5E 1_555 1_555
N2E C8E 1_555 1_555
N3E C13E 1_555 1_555
N5A C23A 1_555 1_555
C1E O1E 1_555 1_555
C2E C1E 1_555 1_555
C3E C2E 1_555 1_555
H3E C3E 1_555 1_555
C4E C3E 1_555 1_555
H4E C4E 1_555 1_555
C5E C4E 1_555 1_555
C6E C5E 1_555 1_555
H5E C6E 1_555 1_555
C7E C2E 1_555 1_555
H6E C7E 1_555 1_555
C8E N1E 1_555 1_555
C9E C8E 1_555 1_555
H7E C9E 1_555 1_555
C10E C9E 1_555 1_555
H8E C10E 1_555 1_555
C11E C10E 1_555 1_555
H9E C11E 1_555 1_555
C12E N2E 1_555 1_555
H10E C12E 1_555 1_555
C13E N1E 1_555 1_555
C14E C13E 1_555 1_555
H11E C14E 1_555 1_555
C15E C14E 1_555 1_555
H12E C15E 1_555 1_555
C16E C15E 1_555 1_555
H13E C16E 1_555 1_555
C17E N3E 1_555 1_555
H14E C17E 1_555 1_555
C20A C19 1_555 1_555
H15A C20A 1_555 1_555
C21A C22 1_555 1_555
H16A C21A 1_555 1_555
C23A N4 1_555 1_555
C24A C23A 1_555 1_555
H17A C24A 1_555 1_555
C25A C24A 1_555 1_555
H18A C25A 1_555 1_555
C26A C25A 1_555 1_555
H19A C26A 1_555 1_555
C27A N5A 1_555 1_555
H20A C27A 1_555 1_555
C6 C7 1_555 1_555
C11 C12 1_555 1_555
C16 C17 1_555 1_555
C18 O3A 1_555 1_555
C26 C27 1_555 1_555
C6E C7E 1_555 1_555
C11E C12E 1_555 1_555
C16E C17E 1_555 1_555
C20A C21A 1_555 1_555
C26A C27A 1_555 1_555

#END
