
#######################################################################
#
#                 Cambridge Crystallographic Data Centre
#                                CCDC 
#
#######################################################################
#
# If this CIF has been generated from an entry in the Cambridge 
# Structural Database, then it will include bibliographic, chemical, 
# crystal, experimental, refinement or atomic coordinate data resulting 
# from the CCDC's data processing and validation procedures.
#
#######################################################################

data_DEFSUE
_symmetry_cell_setting           monoclinic
_symmetry_space_group_name_H-M   'P 21/c'
_symmetry_Int_Tables_number      14
_space_group_name_Hall           '-P 2ybc'
loop_
_symmetry_equiv_pos_site_id
_symmetry_equiv_pos_as_xyz
1 x,y,z
2 -x,1/2+y,1/2-z
3 -x,-y,-z
4 x,1/2-y,1/2+z
_cell_length_a                   4.9452(7)
_cell_length_b                   17.033(2)
_cell_length_c                   10.3554(15)
_cell_angle_alpha                90
_cell_angle_beta                 98.707(2)
_cell_angle_gamma                90
_cell_volume                     862.199
loop_
_atom_site_label
_atom_site_type_symbol
_atom_site_fract_x
_atom_site_fract_y
_atom_site_fract_z
Co1 Co 0.29315(6) 0.654963(18) 0.35418(3)
O1 O 0.4716(3) 1.06310(9) 0.13213(16)
O2 O 0.0909(3) 1.12388(10) 0.16219(16)
C1 C 0.2703(5) 0.77408(14) 0.1228(2)
C2 C 0.1473(5) 0.84292(14) 0.1769(2)
C3 C -0.0435(5) 0.83581(14) 0.2628(2)
H1 H -0.1057 0.7865 0.2832
C4 C -0.1403(5) 0.90260(15) 0.3177(2)
H2 H -0.2627 0.8976 0.3771
C5 C -0.0569(5) 0.97634(14) 0.2849(2)
H3 H -0.1241 1.0207 0.3216
C6 C 0.2343(5) 0.91729(13) 0.1455(2)
H4 H 0.3643 0.9223 0.0898
C7 C 0.1286(5) 0.98412(14) 0.1966(2)
C8 C 0.2317(5) 1.06246(14) 0.1614(2)
N1 N 0.3514(4) 0.77227(11) 0.00558(19)
N2 N 0.4662(4) 0.70026(12) -0.0056(2)
N3 N 0.3309(4) 0.70565(12) 0.18370(19)
N4 N 0.4538(5) 0.66064(12) 0.0998(2)
Co1A Co -0.29315(6) 1.154963(18) 0.14582(3)
Co1A_2 Co 0.70685(6) 1.154963(18) 0.14582(3)
Co1C Co 0.29315(6) 0.845037(18) -0.14582(3)
O1A O 0.5284(3) 0.56310(9) 0.36787(16)
O2A O -0.0909(3) 0.62388(10) 0.33781(16)
N1C N 0.3514(4) 0.72773(11) 0.50558(19)
loop_
_geom_bond_atom_site_label_1
_geom_bond_atom_site_label_2
_geom_bond_site_symmetry_1
_geom_bond_site_symmetry_2
Co1 N3 1_555 1_555
O1 C8 1_555 1_555
O2 C8 1_555 1_555
C1 C2 1_555 1_555
C2 C3 1_555 1_555
C3 H1 1_555 1_555
C4 C3 1_555 1_555
H2 C4 1_555 1_555
C5 C4 1_555 1_555
H3 C5 1_555 1_555
C6 C2 1_555 1_555
H4 C6 1_555 1_555
C7 C5 1_555 1_555
C8 C7 1_555 1_555
N1 C1 1_555 1_555
N2 N1 1_555 1_555
N3 C1 1_555 1_555
N4 N2 1_555 1_555
Co1A O2 1_555 1_555
Co1A_2 O1 1_555 1_555
Co1C N1 1_555 1_555
O1A Co1 1_555 1_555
O2A Co1 1_555 1_555
N1C Co1 1_555 1_555
C6 C7 1_555 1_555
N3 N4 1_555 1_555

#END
