
#######################################################################
#
#                 Cambridge Crystallographic Data Centre
#                                CCDC 
#
#######################################################################
#
# If this CIF has been generated from an entry in the Cambridge 
# Structural Database, then it will include bibliographic, chemical, 
# crystal, experimental, refinement or atomic coordinate data resulting 
# from the CCDC's data processing and validation procedures.
#
#######################################################################

data_DEFTAL
_symmetry_cell_setting           monoclinic
_symmetry_space_group_name_H-M   'P 21/c'
_symmetry_Int_Tables_number      14
_space_group_name_Hall           '-P 2ybc'
loop_
_symmetry_equiv_pos_site_id
_symmetry_equiv_pos_as_xyz
1 x,y,z
2 -x,1/2+y,1/2-z
3 -x,-y,-z
4 x,1/2-y,1/2+z
_cell_length_a                   12.0643(10)
_cell_length_b                   7.3225(6)
_cell_length_c                   10.1654(8)
_cell_angle_alpha                90
_cell_angle_beta                 106.352(2)
_cell_angle_gamma                90
_cell_volume                     861.695
loop_
_atom_site_label
_atom_site_type_symbol
_atom_site_fract_x
_atom_site_fract_y
_atom_site_fract_z
Co1 Co 1.34847(5) 0.02012(8) 0.85675(6)
O1 O 1.1720(3) 0.0020(5) 0.8166(3)
O2 O 1.2356(3) 0.1868(5) 0.6848(3)
O3 O 1.3459(3) 0.2321(5) 0.9963(4)
H1 H 1.296(6) 0.241(9) 1.026(6)
H2 H 1.401(6) 0.234(10) 1.058(7)
N1 N 0.6078(3) 0.3417(6) 0.4663(4)
N2 N 0.5099(3) 0.3567(6) 0.3605(4)
N3 N 0.5203(3) 0.2629(6) 0.2559(4)
N4 N 0.6248(3) 0.1826(6) 0.2884(4)
C1 C 1.1522(4) 0.1101(6) 0.7154(5)
C2 C 1.0295(4) 0.1420(6) 0.6344(5)
C3 C 0.9426(4) 0.0505(7) 0.6739(5)
H3 H 0.9629 -0.0306 0.7499
C4 C 0.8270(4) 0.0760(7) 0.6040(5)
H4 H 0.7684 0.0143 0.6324
C5 C 1.0000(4) 0.2581(7) 0.5225(5)
H5 H 1.0586 0.3205 0.4946
C6 C 0.8850(4) 0.2832(7) 0.4514(5)
H6 H 0.8649 0.3624 0.3743
C7 C 0.7985(4) 0.1927(7) 0.4922(5)
C8 C 0.6764(4) 0.2344(7) 0.4173(5)
Co1A Co 0.65153(5) 0.52012(8) 0.64325(6)
Co1C Co 0.34847(5) 0.47988(8) 0.35675(6)
Co1B Co 0.65153(5) -0.02012(8) 0.14325(6)
N1A N 1.3922(3) -0.1583(6) 1.0337(4)
N2C N 1.5099(3) 0.1433(6) 0.8605(4)
N4B N 1.3752(3) -0.1826(6) 0.7116(4)
loop_
_geom_bond_atom_site_label_1
_geom_bond_atom_site_label_2
_geom_bond_site_symmetry_1
_geom_bond_site_symmetry_2
Co1 O1 1_555 1_555
O1 C1 1_555 1_555
O2 Co1 1_555 1_555
O3 Co1 1_555 1_555
H1 O3 1_555 1_555
H2 O3 1_555 1_555
N1 N2 1_555 1_555
N2 N3 1_555 1_555
N3 N4 1_555 1_555
N4 C8 1_555 1_555
C1 O2 1_555 1_555
C2 C1 1_555 1_555
C3 C2 1_555 1_555
H3 C3 1_555 1_555
C4 C3 1_555 1_555
H4 C4 1_555 1_555
C5 C2 1_555 1_555
H5 C5 1_555 1_555
C6 C5 1_555 1_555
H6 C6 1_555 1_555
C7 C4 1_555 1_555
C8 N1 1_555 1_555
Co1A N1 1_555 1_555
Co1C N2 1_555 1_555
Co1B N4 1_555 1_555
N1A Co1 1_555 1_555
N2C Co1 1_555 1_555
N4B Co1 1_555 1_555
C6 C7 1_555 1_555
C7 C8 1_555 1_555

#END
