
#######################################################################
#
#                 Cambridge Crystallographic Data Centre
#                                CCDC 
#
#######################################################################
#
# If this CIF has been generated from an entry in the Cambridge 
# Structural Database, then it will include bibliographic, chemical, 
# crystal, experimental, refinement or atomic coordinate data resulting 
# from the CCDC's data processing and validation procedures.
#
#######################################################################

data_DEFVOB
_symmetry_cell_setting           triclinic
_symmetry_space_group_name_H-M   'P -1'
_symmetry_Int_Tables_number      2
_space_group_name_Hall           '-P 1'
loop_
_symmetry_equiv_pos_site_id
_symmetry_equiv_pos_as_xyz
1 x,y,z
2 -x,-y,-z
_cell_length_a                   9.663(5)
_cell_length_b                   9.762(5)
_cell_length_c                   12.051(5)
_cell_angle_alpha                100.725(5)
_cell_angle_beta                 94.975(5)
_cell_angle_gamma                106.713(5)
_cell_volume                     1057.79
loop_
_atom_site_label
_atom_site_type_symbol
_atom_site_fract_x
_atom_site_fract_y
_atom_site_fract_z
Cd1 Cd 0.64797(3) 0.01477(3) 0.39480(2)
O1 O 0.6111(3) 0.0990(4) 0.5782(3)
N1 N 0.7626(4) -0.3899(4) 0.3879(3)
O2 O 0.5893(4) 0.1965(4) 0.3178(3)
O3 O 0.5414(4) -0.0136(4) 0.1944(3)
O4 O 0.9107(4) 0.3019(5) 0.7919(3)
O5 O 0.8444(4) 0.1617(5) 0.5735(3)
O6 O 0.5168(5) 0.3298(4) 0.1574(3)
N2 N 0.6754(4) -0.2038(4) 0.3990(3)
C1 C 0.8682(5) -0.4722(5) 0.3833(4)
H1 H 0.9425 -0.4320 0.3388
H2 H 0.8186 -0.5738 0.3457
C2 C 0.5481(5) 0.1181(5) 0.2192(4)
C3 C 0.6253(6) -0.4358(6) 0.4162(5)
H3 H 0.5774 -0.5281 0.4278
C4 C 0.5386(5) 0.5590(5) 0.1148(4)
H4 H 0.5649 0.5987 0.1928
C5 C 0.7415(5) 0.1613(5) 0.6250(4)
N3 N 0.8695(6) 0.0742(6) 0.3185(5)
C6 C 0.5049(5) 0.4091(5) 0.0752(4)
C7 C 0.7605(5) 0.2424(6) 0.7470(4)
H5 H 0.7167 0.3207 0.7510
H6 H 0.7114 0.1759 0.7921
C8 C 0.9493(5) 0.3988(6) 0.8962(4)
C9 C 0.4659(5) 0.3492(5) -0.0414(4)
H7 H 0.4431 0.2487 -0.0694
C10 C 1.0969(5) 0.4696(7) 0.9302(4)
H8 H 1.1631 0.4492 0.8832
C11 C 0.5733(6) -0.3210(6) 0.4238(5)
H9 H 0.4822 -0.3207 0.4430
C12 C 0.7881(5) -0.2510(5) 0.3776(4)
H10 H 0.8739 -0.1948 0.3580
C13 C 0.9396(5) -0.4647(6) 0.5016(5)
H11 H 0.8664 -0.5141 0.5433
H12 H 0.9798 -0.3629 0.5420
C14 C 0.8527(5) 0.4299(6) 0.9672(4)
H13 H 0.7530 0.3829 0.9456
C15 C 0.5085(6) 0.1815(6) 0.1201(4)
H14 H 0.5746 0.1739 0.0648
H15 H 0.4101 0.1255 0.0828
N4 N 1.0397(7) 0.1604(7) 0.2155(6)
C16 C 1.0847(12) 0.1996(12) 0.1104(9)
H16 H 1.1850 0.2637 0.1259
H17 H 1.0234 0.2523 0.0816
C17 C 1.0721(13) 0.0590(13) 0.0186(10)
H18 H 1.1414 0.0143 0.0471
H19 H 1.1044 0.0906 -0.0491
C18 C 1.0083(8) 0.0871(10) 0.3612(8)
H20 H 1.0288 0.0691 0.4330
C19 C 0.9010(9) 0.1306(9) 0.2333(6)
H21 H 0.8310 0.1500 0.1860
C20 C 1.1208(10) 0.1278(12) 0.2962(8)
H22 H 1.2183 0.1310 0.3058
Cd1A Cd 1.35203(3) 0.98523(3) 1.60520(2)
Cd1A_2 Cd 0.35203(3) -0.01477(3) 0.60520(2)
Cd1_2 Cd 1.64797(3) 1.01477(3) 1.39480(2)
Cd1A_3 Cd 1.35203(3) -1.01477(3) 0.60520(2)
Cd1A_4 Cd 0.35203(3) 0.98523(3) -0.39480(2)
Cd1A_5 Cd 1.35203(3) -0.01477(3) -0.39480(2)
O1A O 1.3889(3) 0.9010(4) 1.4218(3)
O1A_2 O 0.3889(3) -0.0990(4) 0.4218(3)
O1_2 O 1.6111(3) 1.0990(4) 1.5782(3)
N1A N 1.2374(4) -0.6101(4) 0.6121(3)
O2A O 0.4107(4) 0.8035(4) -0.3178(3)
O2A_2 O 1.4107(4) 0.8035(4) 1.6822(3)
O3A O 0.4586(4) 1.0136(4) -0.1944(3)
O3A_2 O 1.4586(4) 1.0136(4) 1.8056(3)
O4A O 1.0893(4) 0.6981(5) 1.2081(3)
O5A O 1.1556(4) 0.8383(5) 1.4265(3)
O6A O 0.4832(5) 0.6702(4) -0.1574(3)
N2A N 1.3246(4) -0.7962(4) 0.6010(3)
N2A_2 N 1.3246(4) 1.2038(4) 1.6010(3)
C1A C 1.1318(5) -0.5278(5) 0.6167(4)
H1A H 1.0575 -0.5680 0.6612
H2A H 1.1814 -0.4262 0.6543
C2A C 0.4519(5) 0.8819(5) -0.2192(4)
C3A C 1.3747(6) -0.5642(6) 0.5838(5)
H3A H 1.4226 -0.4719 0.5722
C4A C 0.4614(5) 0.4410(5) -0.1148(4)
H4A H 0.4351 0.4013 -0.1928
C5A C 1.2585(5) 0.8387(5) 1.3750(4)
N3A N 1.1305(6) -0.0742(6) -0.3185(5)
N3A_2 N 1.1305(6) 0.9258(6) 1.6815(5)
C6A C 0.4951(5) 0.5909(5) -0.0752(4)
C7A C 1.2395(5) 0.7576(6) 1.2530(4)
H5A H 1.2833 0.6793 1.2490
H6A H 1.2886 0.8241 1.2079
C8A C 1.0507(5) 0.6012(6) 1.1038(4)
C9A C 0.5341(5) 0.6508(5) 0.0414(4)
H7A H 0.5569 0.7513 0.0694
C10A C 0.9031(5) 0.5304(7) 1.0698(4)
H8A H 0.8369 0.5508 1.1168
C11A C 1.4267(6) -0.6790(6) 0.5762(5)
H9A H 1.5178 -0.6793 0.5570
C12A C 1.2119(5) -0.7490(5) 0.6224(4)
H10A H 1.1261 -0.8052 0.6420
C13A C 1.0604(5) -0.5353(6) 0.4984(5)
H11A H 1.1336 -0.4859 0.4567
H12A H 1.0202 -0.6371 0.4580
C14A C 1.1473(5) 0.5701(6) 1.0328(4)
H13A H 1.2470 0.6171 1.0544
C15A C 0.4915(6) 0.8185(6) -0.1201(4)
H14A H 0.4254 0.8261 -0.0648
H15A H 0.5899 0.8745 -0.0828
N4A N 0.9603(7) -0.1604(7) -0.2155(6)
C16A C 0.9153(12) -0.1996(12) -0.1104(9)
H16A H 0.8150 -0.2637 -0.1259
H17A H 0.9766 -0.2523 -0.0816
C17A C 0.9279(13) -0.0590(13) -0.0186(10)
H18A H 0.8586 -0.0143 -0.0471
H19A H 0.8956 -0.0906 0.0491
C18A C 0.9917(8) -0.0871(10) -0.3612(8)
H20A H 0.9712 -0.0691 -0.4330
C19A C 1.0990(9) -0.1306(9) -0.2333(6)
H21A H 1.1690 -0.1500 -0.1860
C20A C 0.8792(10) -0.1278(12) -0.2962(8)
H22A H 0.7817 -0.1310 -0.3058
loop_
_geom_bond_atom_site_label_1
_geom_bond_atom_site_label_2
_geom_bond_site_symmetry_1
_geom_bond_site_symmetry_2
Cd1 O1 1_555 1_555
O1 C5 1_555 1_555
N1 C1 1_555 1_555
O2 Cd1 1_555 1_555
O3 Cd1 1_555 1_555
O4 C7 1_555 1_555
O5 Cd1 1_555 1_555
O6 C6 1_555 1_555
N2 Cd1 1_555 1_555
C1 H1 1_555 1_555
H2 C1 1_555 1_555
C2 O2 1_555 1_555
C3 N1 1_555 1_555
H3 C3 1_555 1_555
C4 H4 1_555 1_555
C5 O5 1_555 1_555
N3 Cd1 1_555 1_555
C6 C4 1_555 1_555
C7 C5 1_555 1_555
H5 C7 1_555 1_555
H6 C7 1_555 1_555
C8 O4 1_555 1_555
C9 C6 1_555 1_555
H7 C9 1_555 1_555
C10 C8 1_555 1_555
H8 C10 1_555 1_555
C11 N2 1_555 1_555
H9 C11 1_555 1_555
C12 N1 1_555 1_555
H10 C12 1_555 1_555
C13 C1 1_555 1_555
H11 C13 1_555 1_555
H12 C13 1_555 1_555
C14 C8 1_555 1_555
H13 C14 1_555 1_555
C15 O6 1_555 1_555
H14 C15 1_555 1_555
H15 C15 1_555 1_555
N4 C16 1_555 1_555
C16 H16 1_555 1_555
H17 C16 1_555 1_555
C17 C16 1_555 1_555
H18 C17 1_555 1_555
H19 C17 1_555 1_555
C18 N3 1_555 1_555
H20 C18 1_555 1_555
C19 N3 1_555 1_555
H21 C19 1_555 1_555
C20 N4 1_555 1_555
H22 C20 1_555 1_555
Cd1A O1A 1_555 1_555
Cd1A_2 O1 1_555 1_555
Cd1_2 O1A 1_555 1_555
Cd1A_3 N2A 1_555 1_555
Cd1A_4 O2A 1_555 1_555
Cd1A_5 N3A 1_555 1_555
O1A C5A 1_555 1_555
O1A_2 Cd1 1_555 1_555
O1_2 Cd1A 1_555 1_555
N1A C1A 1_555 1_555
O2A C2A 1_555 1_555
O2A_2 Cd1A 1_555 1_555
O3A Cd1A_4 1_555 1_555
O3A_2 Cd1A 1_555 1_555
O4A C7A 1_555 1_555
O5A Cd1A 1_555 1_555
O6A C6A 1_555 1_555
N2A C11A 1_555 1_555
N2A_2 Cd1A 1_555 1_555
C1A H1A 1_555 1_555
H2A C1A 1_555 1_555
C2A O3A 1_555 1_555
C3A N1A 1_555 1_555
H3A C3A 1_555 1_555
C4A C9 1_555 1_555
H4A C4A 1_555 1_555
C5A O5A 1_555 1_555
N3A C18A 1_555 1_555
N3A_2 Cd1A 1_555 1_555
C6A C4A 1_555 1_555
C7A C5A 1_555 1_555
H5A C7A 1_555 1_555
H6A C7A 1_555 1_555
C8A O4A 1_555 1_555
C9A C4 1_555 1_555
H7A C9A 1_555 1_555
C10A C14 1_555 1_555
H8A C10A 1_555 1_555
C11A C3A 1_555 1_555
H9A C11A 1_555 1_555
C12A N1A 1_555 1_555
H10A C12A 1_555 1_555
C13A C13 1_555 1_555
H11A C13A 1_555 1_555
H12A C13A 1_555 1_555
C14A C10 1_555 1_555
H13A C14A 1_555 1_555
C15A O6A 1_555 1_555
H14A C15A 1_555 1_555
H15A C15A 1_555 1_555
N4A C16A 1_555 1_555
C16A H16A 1_555 1_555
H17A C16A 1_555 1_555
C17A C17 1_555 1_555
H18A C17A 1_555 1_555
H19A C17A 1_555 1_555
C18A H20A 1_555 1_555
C19A N3A 1_555 1_555
H21A C19A 1_555 1_555
C20A N4A 1_555 1_555
H22A C20A 1_555 1_555
O3 C2 1_555 1_555
N2 C12 1_555 1_555
C2 C15 1_555 1_555
C3 C11 1_555 1_555
N4 C19 1_555 1_555
C18 C20 1_555 1_555
Cd1A_2 O1A_2 1_555 1_555
Cd1_2 O1_2 1_555 1_555
N2A C12A 1_555 1_555
C1A C13A 1_555 1_555
C2A C15A 1_555 1_555
C6A C9A 1_555 1_555
C8A C10A 1_555 1_555
C8A C14A 1_555 1_555
N4A C19A 1_555 1_555
C16A C17A 1_555 1_555
C18A C20A 1_555 1_555

#END
