
#######################################################################
#
#                 Cambridge Crystallographic Data Centre
#                                CCDC 
#
#######################################################################
#
# If this CIF has been generated from an entry in the Cambridge 
# Structural Database, then it will include bibliographic, chemical, 
# crystal, experimental, refinement or atomic coordinate data resulting 
# from the CCDC's data processing and validation procedures.
#
#######################################################################

data_DEFVUH
_symmetry_cell_setting           orthorhombic
_symmetry_space_group_name_H-M   'P c c n'
_symmetry_Int_Tables_number      56
_space_group_name_Hall           '-P 2ab 2ac'
loop_
_symmetry_equiv_pos_site_id
_symmetry_equiv_pos_as_xyz
1 x,y,z
2 1/2-x,1/2-y,z
3 -x,1/2+y,1/2-z
4 1/2+x,-y,1/2-z
5 -x,-y,-z
6 1/2+x,1/2+y,-z
7 x,1/2-y,1/2+z
8 1/2-x,y,1/2+z
_cell_length_a                   17.237(3)
_cell_length_b                   11.031(2)
_cell_length_c                   12.413(3)
_cell_angle_alpha                90
_cell_angle_beta                 90
_cell_angle_gamma                90
_cell_volume                     2360.22
loop_
_atom_site_label
_atom_site_type_symbol
_atom_site_fract_x
_atom_site_fract_y
_atom_site_fract_z
Zn1 Zn 0.7500 0.2500 0.67938(3)
N1 N 0.69141(11) 0.12754(18) 0.76928(16)
N2 N 0.68791(12) -0.05003(18) 0.85317(17)
O1 O 0.66916(10) 0.32611(16) 0.59167(14)
O2 O 0.68228(12) 0.51571(18) 0.65138(18)
C1 C 0.72637(14) 0.0559(2) 0.8407(2)
C2 C 0.79922(15) 0.0855(3) 0.8981(2)
H1 H 0.8410 0.0388 0.8683
H2 H 0.7936 0.0666 0.9731
H3 H 0.8103 0.1703 0.8900
C3 C 0.62654(13) 0.0635(2) 0.73316(19)
C4 C 0.56858(15) 0.0955(3) 0.6603(2)
H4 H 0.5690 0.1700 0.6253
C5 C 0.51038(16) 0.0116(3) 0.6423(2)
H5 H 0.4709 0.0304 0.5941
C6 C 0.50929(17) -0.1007(3) 0.6944(2)
H6 H 0.4692 -0.1548 0.6800
C7 C 0.56612(16) -0.1329(2) 0.7663(2)
H7 H 0.5656 -0.2076 0.8010
C8 C 0.62448(14) -0.0484(2) 0.7847(2)
C9 C 0.71248(17) -0.1543(2) 0.9171(2)
H8 H 0.6678 -0.1888 0.9534
H9 H 0.7490 -0.1279 0.9717
C10 C 0.7500 -0.2500 0.8474(3)
H10 H 0.7111 -0.2872 0.8016
C11 C 0.64652(14) 0.4369(2) 0.6021(2)
C12 C 0.57072(14) 0.4684(2) 0.54841(19)
C13 C 0.53657(15) 0.5809(2) 0.5683(2)
H11 H 0.5609 0.6358 0.6141
C14 C 0.46696(14) 0.6115(2) 0.5204(2)
H12 H 0.4449 0.6868 0.5345
Zn1_2 Zn 0.7500 -0.7500 0.67938(3)
Zn1D Zn 0.2500 0.7500 0.32062(3)
N1A N 0.80859(11) -0.62754(18) 0.76928(16)
N1A_2 N 0.80859(11) 0.37246(18) 0.76928(16)
N2A N 0.81209(12) -0.44997(18) 0.85317(17)
O1D O 0.33084(10) 0.67389(16) 0.40833(14)
O1A O 0.83084(10) 0.17389(16) 0.59167(14)
O2D O 0.31772(12) 0.48429(18) 0.34862(18)
C1A C 0.77363(14) -0.5559(2) 0.8407(2)
C2A C 0.70078(15) -0.5855(3) 0.8981(2)
H1A H 0.6590 -0.5388 0.8683
H2A H 0.7064 -0.5666 0.9731
H3A H 0.6897 -0.6703 0.8900
C3A C 0.87346(13) -0.5635(2) 0.73316(19)
C4A C 0.93142(15) -0.5955(3) 0.6603(2)
H4A H 0.9310 -0.6700 0.6253
C5A C 0.98962(16) -0.5116(3) 0.6423(2)
H5A H 1.0291 -0.5304 0.5941
C6A C 0.99071(17) -0.3993(3) 0.6944(2)
H6A H 1.0308 -0.3452 0.6800
C7A C 0.93388(16) -0.3671(2) 0.7663(2)
H7A H 0.9344 -0.2924 0.8010
C8A C 0.87552(14) -0.4516(2) 0.7847(2)
C9A C 0.78752(17) -0.3457(2) 0.9171(2)
H8A H 0.8322 -0.3112 0.9534
H9A H 0.7510 -0.3721 0.9717
H10A H 0.7889 -0.2128 0.8016
C11D C 0.35348(14) 0.5631(2) 0.3979(2)
C12D C 0.42928(14) 0.5316(2) 0.45159(19)
C13D C 0.46343(15) 0.4191(2) 0.4317(2)
H11D H 0.4391 0.3642 0.3859
C14D C 0.53304(14) 0.3885(2) 0.4796(2)
H12D H 0.5551 0.3132 0.4655
loop_
_geom_bond_atom_site_label_1
_geom_bond_atom_site_label_2
_geom_bond_site_symmetry_1
_geom_bond_site_symmetry_2
Zn1 N1 1_555 1_555
N1 C1 1_555 1_555
N2 C1 1_555 1_555
O1 Zn1 1_555 1_555
O2 C11 1_555 1_555
C1 C2 1_555 1_555
C2 H1 1_555 1_555
H2 C2 1_555 1_555
H3 C2 1_555 1_555
C3 N1 1_555 1_555
C4 C3 1_555 1_555
H4 C4 1_555 1_555
C5 C4 1_555 1_555
H5 C5 1_555 1_555
C6 C5 1_555 1_555
H6 C6 1_555 1_555
C7 C6 1_555 1_555
H7 C7 1_555 1_555
C8 N2 1_555 1_555
C9 N2 1_555 1_555
H8 C9 1_555 1_555
H9 C9 1_555 1_555
C10 C9 1_555 1_555
H10 C10 1_555 1_555
C11 O1 1_555 1_555
C12 C11 1_555 1_555
C13 C12 1_555 1_555
H11 C13 1_555 1_555
C14 C13 1_555 1_555
H12 C14 1_555 1_555
Zn1_2 N1A 1_555 1_555
Zn1D O1D 1_555 1_555
N1A C1A 1_555 1_555
N1A_2 Zn1 1_555 1_555
N2A C1A 1_555 1_555
O1D C11D 1_555 1_555
O1A Zn1 1_555 1_555
O2D C11D 1_555 1_555
C1A C2A 1_555 1_555
C2A H1A 1_555 1_555
H2A C2A 1_555 1_555
H3A C2A 1_555 1_555
C3A N1A 1_555 1_555
C4A C3A 1_555 1_555
H4A C4A 1_555 1_555
C5A C4A 1_555 1_555
H5A C5A 1_555 1_555
C6A C5A 1_555 1_555
H6A C6A 1_555 1_555
C7A C6A 1_555 1_555
H7A C7A 1_555 1_555
C8A N2A 1_555 1_555
C9A C10 1_555 1_555
H8A C9A 1_555 1_555
H9A C9A 1_555 1_555
H10A C10 1_555 1_555
C11D C12D 1_555 1_555
C12D C14 1_555 1_555
C13D C12D 1_555 1_555
H11D C13D 1_555 1_555
C14D C12 1_555 1_555
H12D C14D 1_555 1_555
C3 C8 1_555 1_555
C7 C8 1_555 1_555
N2A C9A 1_555 1_555
C3A C8A 1_555 1_555
C7A C8A 1_555 1_555
C13D C14D 1_555 1_555

#END
