
#######################################################################
#
#                 Cambridge Crystallographic Data Centre
#                                CCDC 
#
#######################################################################
#
# If this CIF has been generated from an entry in the Cambridge 
# Structural Database, then it will include bibliographic, chemical, 
# crystal, experimental, refinement or atomic coordinate data resulting 
# from the CCDC's data processing and validation procedures.
#
#######################################################################

data_DEFVIV
_symmetry_cell_setting           monoclinic
_symmetry_space_group_name_H-M   'C 2/c'
_symmetry_Int_Tables_number      15
_space_group_name_Hall           '-C 2yn'
loop_
_symmetry_equiv_pos_site_id
_symmetry_equiv_pos_as_xyz
1 x,y,z
2 -x,y,1/2-z
3 1/2+x,1/2+y,z
4 1/2-x,1/2+y,1/2-z
5 -x,-y,-z
6 x,-y,1/2+z
7 1/2-x,1/2-y,-z
8 1/2+x,1/2-y,1/2+z
_cell_length_a                   10.296(5)
_cell_length_b                   15.522(5)
_cell_length_c                   15.603(5)
_cell_angle_alpha                90
_cell_angle_beta                 96.021(5)
_cell_angle_gamma                90
_cell_volume                     2479.83
loop_
_atom_site_label
_atom_site_type_symbol
_atom_site_fract_x
_atom_site_fract_y
_atom_site_fract_z
C1 C 0.4120(2) 1.01107(15) 1.05930(15)
H1 H 0.3524 1.0186 1.0995
C2 C 0.3989(2) 1.05866(16) 0.98442(14)
H2 H 0.3308 1.0979 0.9742
C3 C 0.51254(19) 0.95218(15) 1.07568(13)
C4 C 0.6303(2) 0.86216(15) 1.18101(15)
H3 H 0.6139 0.8263 1.2296
H4 H 0.6526 0.8244 1.1353
C5 C 0.7461(2) 0.92009(15) 1.20776(13)
C6 C 1.0925(2) 1.07288(16) 1.42792(16)
H5 H 1.1714 1.0434 1.4295
C7 C 0.9405(2) 1.15964(16) 1.46229(16)
H6 H 0.8943 1.2004 1.4906
C8 C 0.8985(2) 1.11739(16) 1.38909(16)
H7 H 0.8169 1.1241 1.3581
C9 C 1.1544(3) 1.16325(19) 1.55849(16)
H8 H 1.1082 1.1687 1.6093
H9 H 1.2249 1.1223 1.5714
C10 C 1.2115(3) 1.2505(2) 1.53760(19)
H10 H 1.2671 1.2706 1.5877
H11 H 1.1406 1.2915 1.5265
Cd1 Cd 1.0000 0.985770(14) 1.2500
N1 N 0.99474(19) 1.06290(13) 1.36747(12)
N2 N 1.06471(19) 1.13061(13) 1.48673(12)
O1 O 0.73298(18) 0.99773(11) 1.22122(13)
O2 O 0.85565(15) 0.88210(11) 1.21610(12)
O3 O 0.51418(14) 0.90726(11) 1.15211(10)
C1D C 0.5880(2) 0.98893(15) 0.94070(15)
H1D H 0.6476 0.9814 0.9005
C2D C 0.6011(2) 0.94134(16) 1.01558(14)
H2D H 0.6692 0.9021 1.0258
C3D C 0.48746(19) 1.04782(15) 0.92432(13)
C4D C 0.3697(2) 1.13784(15) 0.81899(15)
H3D H 0.3861 1.1737 0.7704
H4D H 0.3474 1.1756 0.8647
C5D C 0.2539(2) 1.07991(15) 0.79224(13)
C6F C 1.4075(2) 1.42712(16) 1.57208(16)
H5F H 1.3286 1.4566 1.5705
C7F C 1.5595(2) 1.34036(16) 1.53771(16)
H6F H 1.6057 1.2996 1.5094
C8F C 1.6015(2) 1.38261(16) 1.61091(16)
H7F H 1.6831 1.3759 1.6419
C9F C 1.3456(3) 1.33675(19) 1.44151(16)
H8F H 1.3918 1.3313 1.3907
H9F H 1.2751 1.3777 1.4286
C10F C 1.2885(3) 1.2495(2) 1.46240(19)
H10F H 1.2329 1.2294 1.4123
H11F H 1.3594 1.2085 1.4735
Cd1D Cd 0.0000 1.014230(14) 0.7500
Cd1F Cd 1.5000 1.514230(14) 1.7500
N1F N 1.50526(19) 1.43710(13) 1.63253(12)
N1A N 1.00526(19) 1.06290(13) 1.13253(12)
N2F N 1.43529(19) 1.36939(13) 1.51327(12)
O1D O 0.26702(18) 1.00227(11) 0.77878(13)
O2D O 0.14435(15) 1.11790(11) 0.78390(12)
O2A O 1.14435(15) 0.88210(11) 1.28390(12)
O3D O 0.48582(14) 1.09274(11) 0.84789(10)
O4 O 0.5000 0.90550(15) 0.7500
H12 H 0.5632 0.9365 0.7376
H12A H 0.4368 0.9365 0.7624
O5 O 0.3918(2) 0.77688(12) 0.63184(13)
H13 H 0.3832 0.7324 0.6623
H14 H 0.4330 0.8144 0.6634
loop_
_geom_bond_atom_site_label_1
_geom_bond_atom_site_label_2
_geom_bond_site_symmetry_1
_geom_bond_site_symmetry_2
C1 H1 1_555 1_555
C2 C1 1_555 1_555
H2 C2 1_555 1_555
C3 C1 1_555 1_555
C4 H3 1_555 1_555
H4 C4 1_555 1_555
C5 C4 1_555 1_555
C6 H5 1_555 1_555
C7 H6 1_555 1_555
C8 C7 1_555 1_555
H7 C8 1_555 1_555
C9 H8 1_555 1_555
H9 C9 1_555 1_555
C10 C9 1_555 1_555
H10 C10 1_555 1_555
H11 C10 1_555 1_555
Cd1 N1 1_555 1_555
N1 C6 1_555 1_555
N2 C6 1_555 1_555
O1 C5 1_555 1_555
O2 C5 1_555 1_555
O3 C3 1_555 1_555
O4 H12 1_555 1_555
O5 H13 1_555 1_555
H14 O5 1_555 1_555
C1D H1D 1_555 1_555
C2D C3 1_555 1_555
H2D C2D 1_555 1_555
C3D C2 1_555 1_555
C4D H3D 1_555 1_555
H4D C4D 1_555 1_555
C5D C4D 1_555 1_555
C6F H5F 1_555 1_555
C7F H6F 1_555 1_555
C8F C7F 1_555 1_555
H7F C8F 1_555 1_555
C9F H8F 1_555 1_555
H9F C9F 1_555 1_555
C10F C10 1_555 1_555
H10F C10F 1_555 1_555
H11F C10F 1_555 1_555
Cd1D O2D 1_555 1_555
Cd1F N1F 1_555 1_555
N1F C6F 1_555 1_555
N1A Cd1 1_555 1_555
N2F C6F 1_555 1_555
O1D C5D 1_555 1_555
O2D C5D 1_555 1_555
O2A Cd1 1_555 1_555
O3D C3D 1_555 1_555
H12A O4 1_555 1_555
C4 O3 1_555 1_555
C7 N2 1_555 1_555
C8 N1 1_555 1_555
C9 N2 1_555 1_555
Cd1 O2 1_555 1_555
C1D C2D 1_555 1_555
C1D C3D 1_555 1_555
C4D O3D 1_555 1_555
C7F N2F 1_555 1_555
C8F N1F 1_555 1_555
C9F C10F 1_555 1_555
C9F N2F 1_555 1_555

#END
