
#######################################################################
#
#                 Cambridge Crystallographic Data Centre
#                                CCDC 
#
#######################################################################
#
# If this CIF has been generated from an entry in the Cambridge 
# Structural Database, then it will include bibliographic, chemical, 
# crystal, experimental, refinement or atomic coordinate data resulting 
# from the CCDC's data processing and validation procedures.
#
#######################################################################

data_DEFWOC
_symmetry_cell_setting           triclinic
_symmetry_space_group_name_H-M   'P -1'
_symmetry_Int_Tables_number      2
_space_group_name_Hall           '-P 1'
loop_
_symmetry_equiv_pos_site_id
_symmetry_equiv_pos_as_xyz
1 x,y,z
2 -x,-y,-z
_cell_length_a                   10.848(2)
_cell_length_b                   11.268(2)
_cell_length_c                   11.565(2)
_cell_angle_alpha                65.41(3)
_cell_angle_beta                 83.30(3)
_cell_angle_gamma                67.56(3)
_cell_volume                     1186.61
loop_
_atom_site_label
_atom_site_type_symbol
_atom_site_fract_x
_atom_site_fract_y
_atom_site_fract_z
Zn1 Zn 0.19852(2) 0.81939(3) 0.16140(2)
N1 N 0.35970(18) 0.64478(19) 0.16997(17)
N2 N 0.49127(18) 0.4336(2) 0.17839(18)
N3 N 0.79104(18) 0.12495(19) 0.69240(17)
N4 N 0.77124(19) 0.1346(2) 0.49940(18)
O1 O -0.02380(16) 1.19001(18) -0.16702(15)
O2 O -0.05781(18) 1.3371(2) -0.37211(17)
O3 O 0.18758(19) 0.89140(19) -0.11102(17)
O4 O 0.22557(16) 0.97678(17) 0.01774(14)
C1 C 0.3682(2) 0.5145(2) 0.1994(2)
C2 C 0.2583(3) 0.4618(3) 0.2458(3)
H1 H 0.2051 0.5053 0.3000
H2 H 0.2949 0.3619 0.2929
H3 H 0.2036 0.4842 0.1746
C3 C 0.4843(2) 0.6490(2) 0.1263(2)
C4 C 0.5315(2) 0.7589(3) 0.0841(2)
H4 H 0.4780 0.8466 0.0828
C5 C 0.6606(3) 0.7319(3) 0.0445(3)
H5 H 0.6950 0.8027 0.0161
C6 C 0.7403(3) 0.6008(3) 0.0463(3)
H6 H 0.8264 0.5871 0.0178
C7 C 0.6967(2) 0.4903(3) 0.0886(2)
H7 H 0.7506 0.4030 0.0896
C8 C 0.5664(2) 0.5178(2) 0.1300(2)
C9 C 0.5386(2) 0.2834(2) 0.2073(2)
H8 H 0.6065 0.2621 0.1489
H9 H 0.4649 0.2608 0.1945
C10 C 0.5965(2) 0.1927(3) 0.3436(2)
H10 H 0.5346 0.2261 0.4008
H11 H 0.6053 0.0969 0.3650
C11 C 0.7468(2) 0.2080(2) 0.5730(2)
C12 C 0.6790(3) 0.3628(2) 0.5223(2)
H12 H 0.7400 0.4062 0.4740
H13 H 0.6030 0.3915 0.4684
H14 H 0.6501 0.3910 0.5917
C13 C 0.8489(2) -0.0113(2) 0.6971(2)
C14 C 0.9126(2) -0.1392(3) 0.7978(2)
H15 H 0.9222 -0.1449 0.8790
C15 C 0.9608(3) -0.2571(3) 0.7711(3)
H16 H 1.0028 -0.3443 0.8364
C16 C 0.9483(3) -0.2494(3) 0.6482(3)
H17 H 0.9828 -0.3313 0.6341
C17 C 0.8867(3) -0.1245(3) 0.5496(3)
H18 H 0.8786 -0.1187 0.4681
C18 C 0.8363(2) -0.0057(2) 0.5767(2)
C19 C 0.7317(2) 0.1938(3) 0.3642(2)
H19 H 0.7285 0.2896 0.3246
H20 H 0.7985 0.1401 0.3231
C20 C 0.2151(2) 0.9776(2) -0.0919(2)
C21 C 0.2545(2) 1.0881(2) -0.2012(2)
C22 C 0.3906(2) 1.0555(3) -0.2195(2)
H21 H 0.4514 0.9706 -0.1645
C23 C 0.4367(2) 1.1476(3) -0.3185(2)
H22 H 0.5279 1.1245 -0.3299
C24 C 0.3472(3) 1.2739(3) -0.4001(2)
H23 H 0.3782 1.3367 -0.4657
C25 C 0.0160(2) 1.2519(2) -0.2766(2)
C26 C 0.1642(2) 1.2140(2) -0.2857(2)
C27 C 0.2115(3) 1.3075(3) -0.3845(2)
H24 H 0.1515 1.3927 -0.4400
Zn1A Zn 0.80148(2) 0.18061(3) 0.83860(2)
Zn1A_2 Zn -0.19852(2) 1.18061(3) -0.16140(2)
N3A N 0.20896(18) 0.87505(19) 0.30760(17)
O1A O 0.02380(16) 0.80999(18) 0.16702(15)
loop_
_geom_bond_atom_site_label_1
_geom_bond_atom_site_label_2
_geom_bond_site_symmetry_1
_geom_bond_site_symmetry_2
Zn1 N1 1_555 1_555
N1 C1 1_555 1_555
N2 C1 1_555 1_555
N3 C11 1_555 1_555
N4 C11 1_555 1_555
O1 C25 1_555 1_555
O2 C25 1_555 1_555
O3 C20 1_555 1_555
O4 Zn1 1_555 1_555
C1 C2 1_555 1_555
C2 H1 1_555 1_555
H2 C2 1_555 1_555
H3 C2 1_555 1_555
C3 N1 1_555 1_555
C4 C3 1_555 1_555
H4 C4 1_555 1_555
C5 C4 1_555 1_555
H5 C5 1_555 1_555
C6 C5 1_555 1_555
H6 C6 1_555 1_555
C7 C6 1_555 1_555
H7 C7 1_555 1_555
C8 N2 1_555 1_555
C9 N2 1_555 1_555
H8 C9 1_555 1_555
H9 C9 1_555 1_555
C10 C9 1_555 1_555
H10 C10 1_555 1_555
H11 C10 1_555 1_555
C11 C12 1_555 1_555
C12 H12 1_555 1_555
H13 C12 1_555 1_555
H14 C12 1_555 1_555
C13 N3 1_555 1_555
C14 C13 1_555 1_555
H15 C14 1_555 1_555
C15 C14 1_555 1_555
H16 C15 1_555 1_555
C16 C15 1_555 1_555
H17 C16 1_555 1_555
C17 C16 1_555 1_555
H18 C17 1_555 1_555
C18 N4 1_555 1_555
C19 N4 1_555 1_555
H19 C19 1_555 1_555
H20 C19 1_555 1_555
C20 O4 1_555 1_555
C21 C20 1_555 1_555
C22 C21 1_555 1_555
H21 C22 1_555 1_555
C23 C22 1_555 1_555
H22 C23 1_555 1_555
C24 C23 1_555 1_555
H23 C24 1_555 1_555
C25 C26 1_555 1_555
C26 C21 1_555 1_555
C27 C24 1_555 1_555
H24 C27 1_555 1_555
Zn1A N3 1_555 1_555
Zn1A_2 O1 1_555 1_555
N3A Zn1 1_555 1_555
O1A Zn1 1_555 1_555
C3 C8 1_555 1_555
C7 C8 1_555 1_555
C10 C19 1_555 1_555
C13 C18 1_555 1_555
C17 C18 1_555 1_555
C26 C27 1_555 1_555

#END
