
#######################################################################
#
#                 Cambridge Crystallographic Data Centre
#                                CCDC 
#
#######################################################################
#
# If this CIF has been generated from an entry in the Cambridge 
# Structural Database, then it will include bibliographic, chemical, 
# crystal, experimental, refinement or atomic coordinate data resulting 
# from the CCDC's data processing and validation procedures.
#
#######################################################################

data_DEFWAO
_symmetry_cell_setting           monoclinic
_symmetry_space_group_name_H-M   'P 21/c'
_symmetry_Int_Tables_number      14
_space_group_name_Hall           '-P 2ybc'
loop_
_symmetry_equiv_pos_site_id
_symmetry_equiv_pos_as_xyz
1 x,y,z
2 -x,1/2+y,1/2-z
3 -x,-y,-z
4 x,1/2-y,1/2+z
_cell_length_a                   11.261(2)
_cell_length_b                   16.412(3)
_cell_length_c                   14.307(3)
_cell_angle_alpha                90
_cell_angle_beta                 90.00(3)
_cell_angle_gamma                90
_cell_volume                     2644.16
loop_
_atom_site_label
_atom_site_type_symbol
_atom_site_fract_x
_atom_site_fract_y
_atom_site_fract_z
Co1 Co 0.12942(4) 0.00430(2) 0.98685(3)
O1 O 0.1010(2) -0.09425(15) 0.90427(18)
O2 O 0.1369(2) -0.42451(15) 0.59431(17)
O3 O -0.0991(2) -0.10375(14) 0.92871(17)
O4 O -0.0627(2) -0.42919(16) 0.61751(18)
N1 N 0.6789(4) 0.1346(3) 0.4200(2)
N2 N 0.6136(4) 0.1045(2) 0.5717(2)
N3 N 0.4836(2) 0.07218(17) 0.87224(19)
N4 N 0.3053(2) 0.01750(16) 0.92615(19)
C1 C 0.8343(5) 0.1255(5) 0.5241(4)
H1 H 0.8766 0.1425 0.4692
H2 H 0.8614 0.0725 0.5429
H3 H 0.8482 0.1637 0.5737
C2 C 0.7094(4) 0.1222(3) 0.5039(3)
C3 C 0.5543(4) 0.1250(3) 0.4333(3)
C4 C 0.4745(6) 0.1306(3) 0.3687(4)
H4 H 0.4923 0.1421 0.3066
C5 C 0.3555(6) 0.1172(3) 0.4018(5)
H5 H 0.2964 0.1202 0.3565
C6 C 0.3141(5) 0.0996(3) 0.4964(5)
H6 H 0.2337 0.0932 0.5094
C7 C 0.3935(5) 0.0932(3) 0.5617(4)
H7 H 0.3752 0.0812 0.6236
C8 C 0.5125(4) 0.1063(2) 0.5286(3)
C9 C 0.6153(5) 0.0845(3) 0.6708(3)
H8 H 0.6945 0.0663 0.6873
H9 H 0.5614 0.0394 0.6816
C10 C 0.5801(3) 0.1558(2) 0.7365(2)
H10 H 0.6363 0.1999 0.7279
H11 H 0.5025 0.1758 0.7180
C11 C 0.5762(3) 0.1337(2) 0.8398(2)
H12 H 0.5639 0.1836 0.8749
H13 H 0.6537 0.1129 0.8571
C12 C 0.3106(3) 0.1679(2) 0.9021(3)
H14 H 0.3007 0.1871 0.8392
H15 H 0.3616 0.2045 0.9357
H16 H 0.2346 0.1655 0.9324
C13 C 0.3643(3) 0.0857(2) 0.9006(2)
C14 C 0.3905(3) -0.0450(2) 0.9132(2)
C15 C 0.3782(3) -0.1282(2) 0.9290(2)
H17 H 0.3076 -0.1514 0.9498
C16 C 0.4814(4) -0.1750(2) 0.9109(3)
H18 H 0.4776 -0.2310 0.9204
C17 C 0.5933(4) -0.1402(3) 0.8782(3)
H19 H 0.6575 -0.1747 0.8680
C18 C 0.6069(3) -0.0580(3) 0.8620(3)
H20 H 0.6779 -0.0352 0.8415
C19 C 0.5033(3) -0.0111(2) 0.8794(2)
C20 C 0.1167(3) -0.2140(2) 0.7646(3)
H21 H 0.1785 -0.1764 0.7658
C21 C 0.0136(3) -0.20126(19) 0.8300(2)
C22 C 0.0040(3) -0.12794(19) 0.8928(2)
C23 C 0.0351(3) -0.40068(19) 0.6345(2)
C24 C 0.0290(3) -0.33358(19) 0.7056(2)
C25 C 0.1244(3) -0.2792(2) 0.7023(2)
H22 H 0.1882 -0.2860 0.6618
C26 C -0.0731(3) -0.3221(2) 0.7727(3)
H23 H -0.1334 -0.3609 0.7732
C27 C -0.0815(3) -0.2563(2) 0.8339(2)
H24 H -0.1454 -0.2494 0.8743
Co1C Co 0.12942(4) -0.50430(2) 0.48685(3)
Co1B Co -0.12942(4) -0.00430(2) 1.01315(3)
Co1A Co -0.12942(4) -0.49570(2) 0.51315(3)
O2C O 0.1369(2) -0.07549(15) 1.09431(17)
O3B O 0.0991(2) 0.10375(14) 1.07129(17)
O4A O 0.0627(2) 0.07081(16) 0.88249(18)
O5 O 0.8170(9) 0.0128(3) 0.2967(4)
O6 O 0.0875(13) 0.0361(8) 0.3117(10)
loop_
_geom_bond_atom_site_label_1
_geom_bond_atom_site_label_2
_geom_bond_site_symmetry_1
_geom_bond_site_symmetry_2
Co1 O1 1_555 1_555
O1 C22 1_555 1_555
O2 C23 1_555 1_555
O3 C22 1_555 1_555
O4 C23 1_555 1_555
N1 C2 1_555 1_555
N2 C2 1_555 1_555
N3 C11 1_555 1_555
N4 Co1 1_555 1_555
C1 H1 1_555 1_555
H2 C1 1_555 1_555
H3 C1 1_555 1_555
C2 C1 1_555 1_555
C3 N1 1_555 1_555
C4 C3 1_555 1_555
H4 C4 1_555 1_555
C5 C4 1_555 1_555
H5 C5 1_555 1_555
C6 C5 1_555 1_555
H6 C6 1_555 1_555
C7 C6 1_555 1_555
H7 C7 1_555 1_555
C8 N2 1_555 1_555
C9 N2 1_555 1_555
H8 C9 1_555 1_555
H9 C9 1_555 1_555
C10 C9 1_555 1_555
H10 C10 1_555 1_555
H11 C10 1_555 1_555
C11 C10 1_555 1_555
H12 C11 1_555 1_555
H13 C11 1_555 1_555
C12 H14 1_555 1_555
H15 C12 1_555 1_555
H16 C12 1_555 1_555
C13 N3 1_555 1_555
C14 N4 1_555 1_555
C15 C14 1_555 1_555
H17 C15 1_555 1_555
C16 C15 1_555 1_555
H18 C16 1_555 1_555
C17 C16 1_555 1_555
H19 C17 1_555 1_555
C18 C17 1_555 1_555
H20 C18 1_555 1_555
C19 N3 1_555 1_555
C20 H21 1_555 1_555
C21 C20 1_555 1_555
C22 C21 1_555 1_555
C23 C24 1_555 1_555
C24 C25 1_555 1_555
C25 C20 1_555 1_555
H22 C25 1_555 1_555
C26 C24 1_555 1_555
H23 C26 1_555 1_555
C27 C21 1_555 1_555
H24 C27 1_555 1_555
Co1C O2 1_555 1_555
Co1B O3 1_555 1_555
Co1A O4 1_555 1_555
O2C Co1 1_555 1_555
O3B Co1 1_555 1_555
O4A Co1 1_555 1_555
N4 C13 1_555 1_555
C3 C8 1_555 1_555
C7 C8 1_555 1_555
C12 C13 1_555 1_555
C14 C19 1_555 1_555
C18 C19 1_555 1_555
C26 C27 1_555 1_555

#END
