
#######################################################################
#
#                 Cambridge Crystallographic Data Centre
#                                CCDC 
#
#######################################################################
#
# If this CIF has been generated from an entry in the Cambridge 
# Structural Database, then it will include bibliographic, chemical, 
# crystal, experimental, refinement or atomic coordinate data resulting 
# from the CCDC's data processing and validation procedures.
#
#######################################################################

data_DEFWES
_symmetry_cell_setting           monoclinic
_symmetry_space_group_name_H-M   'P 21/n'
_symmetry_Int_Tables_number      14
_space_group_name_Hall           '-P 2yn'
loop_
_symmetry_equiv_pos_site_id
_symmetry_equiv_pos_as_xyz
1 x,y,z
2 1/2-x,1/2+y,1/2-z
3 -x,-y,-z
4 1/2+x,1/2-y,1/2+z
_cell_length_a                   11.491(2)
_cell_length_b                   17.454(4)
_cell_length_c                   12.621(3)
_cell_angle_alpha                90
_cell_angle_beta                 106.56(3)
_cell_angle_gamma                90
_cell_volume                     2426.32
loop_
_atom_site_label
_atom_site_type_symbol
_atom_site_fract_x
_atom_site_fract_y
_atom_site_fract_z
Zn1 Zn 0.73775(3) 0.150754(18) 1.20856(3)
N1 N 0.6929(2) 0.06281(13) 1.09954(19)
N2 N 0.6734(2) -0.04920(13) 1.01300(19)
N3 N 0.9663(2) -0.21624(13) 0.9048(2)
N4 N 1.1345(2) -0.20414(13) 0.8531(2)
O1 O 0.59182(19) 0.21337(13) 1.16625(17)
O2 O 0.6254(2) 0.26183(14) 1.33554(18)
O3 O 0.33261(19) 0.36527(13) 0.86051(17)
O4 O 0.1750(2) 0.42841(15) 0.8858(2)
C1 C 0.7180(2) -0.01158(16) 1.1105(2)
C2 C 0.6298(2) 0.07458(16) 0.9888(2)
C3 C 0.5816(3) 0.14102(17) 0.9320(3)
H1 H 0.5893 0.1883 0.9674
C4 C 0.5218(3) 0.13379(19) 0.8207(3)
H2 H 0.4895 0.1773 0.7804
C5 C 0.5085(3) 0.0628(2) 0.7670(3)
H3 H 0.4673 0.0603 0.6921
C6 C 0.5550(3) -0.00315(18) 0.8223(2)
H4 H 0.5460 -0.0504 0.7869
C7 C 0.6163(2) 0.00432(16) 0.9338(2)
C8 C 0.7865(3) -0.04934(18) 1.2147(3)
H5 H 0.8686 -0.0582 1.2135
H6 H 0.7488 -0.0974 1.2220
H7 H 0.7866 -0.0169 1.2762
C9 C 0.7003(3) -0.12805(16) 0.9879(3)
H8 H 0.6349 -0.1478 0.9273
H9 H 0.7075 -0.1604 1.0520
C10 C 0.8195(3) -0.12913(17) 0.9563(3)
H10 H 0.8173 -0.0893 0.9022
H11 H 0.8864 -0.1181 1.0212
C11 C 0.8408(3) -0.20608(17) 0.9088(3)
H12 H 0.8212 -0.2466 0.9535
H13 H 0.7864 -0.2109 0.8346
C12 C 1.0248(3) -0.17587(17) 0.8436(2)
C13 C 0.9719(3) -0.1089(2) 0.7753(3)
H14 H 1.0078 -0.1038 0.7157
H15 H 0.8859 -0.1158 0.7459
H16 H 0.9877 -0.0635 0.8200
C14 C 1.0428(3) -0.27602(16) 0.9557(2)
C15 C 1.0282(3) -0.33530(17) 1.0240(3)
H17 H 0.9592 -0.3392 1.0483
C16 C 1.1208(3) -0.38803(19) 1.0540(3)
H18 H 1.1138 -0.4290 1.0989
C17 C 0.5675(2) 0.25817(15) 1.2379(2)
C18 C 0.4601(2) 0.31022(15) 1.1941(2)
C19 C 0.4177(2) 0.32769(15) 1.0825(2)
H19 H 0.4546 0.3056 1.0333
C20 C 0.3208(2) 0.37773(15) 1.0429(2)
C21 C 0.2654(3) 0.40965(17) 1.1177(3)
H20 H 0.2005 0.4432 1.0924
C22 C 0.3060(3) 0.39200(19) 1.2289(3)
H21 H 0.2678 0.4132 1.2778
C23 C 0.4030(3) 0.34290(17) 1.2673(3)
H22 H 0.4305 0.3315 1.3423
C24 C 0.2702(3) 0.39325(16) 0.9213(2)
C25 C 1.1477(2) -0.26752(15) 0.9217(2)
C26 C 1.2406(3) -0.32133(18) 0.9533(3)
H23 H 1.3107 -0.3168 0.9309
C27 C 1.2251(3) -0.38154(19) 1.0188(3)
H24 H 1.2855 -0.4186 1.0399
Zn1B Zn 1.26225(3) -0.150754(18) 0.79144(3)
Zn1C Zn 0.23775(3) 0.349246(18) 0.70856(3)
N4B N 0.8655(2) 0.20414(13) 1.1469(2)
O3C O 0.83261(19) 0.13473(13) 1.36051(17)
loop_
_geom_bond_atom_site_label_1
_geom_bond_atom_site_label_2
_geom_bond_site_symmetry_1
_geom_bond_site_symmetry_2
Zn1 N1 1_555 1_555
N1 C1 1_555 1_555
N2 C1 1_555 1_555
N3 C11 1_555 1_555
N4 C12 1_555 1_555
O1 Zn1 1_555 1_555
O2 C17 1_555 1_555
O3 C24 1_555 1_555
O4 C24 1_555 1_555
C1 C8 1_555 1_555
C2 N1 1_555 1_555
C3 C2 1_555 1_555
H1 C3 1_555 1_555
C4 C3 1_555 1_555
H2 C4 1_555 1_555
C5 C4 1_555 1_555
H3 C5 1_555 1_555
C6 C5 1_555 1_555
H4 C6 1_555 1_555
C7 N2 1_555 1_555
C8 H5 1_555 1_555
H6 C8 1_555 1_555
H7 C8 1_555 1_555
C9 N2 1_555 1_555
H8 C9 1_555 1_555
H9 C9 1_555 1_555
C10 C9 1_555 1_555
H10 C10 1_555 1_555
H11 C10 1_555 1_555
C11 C10 1_555 1_555
H12 C11 1_555 1_555
H13 C11 1_555 1_555
C12 N3 1_555 1_555
C13 C12 1_555 1_555
H14 C13 1_555 1_555
H15 C13 1_555 1_555
H16 C13 1_555 1_555
C14 N3 1_555 1_555
C15 C14 1_555 1_555
H17 C15 1_555 1_555
C16 C15 1_555 1_555
H18 C16 1_555 1_555
C17 O1 1_555 1_555
C18 C17 1_555 1_555
C19 C18 1_555 1_555
H19 C19 1_555 1_555
C20 C19 1_555 1_555
C21 C20 1_555 1_555
H20 C21 1_555 1_555
C22 C21 1_555 1_555
H21 C22 1_555 1_555
C23 C18 1_555 1_555
H22 C23 1_555 1_555
C24 C20 1_555 1_555
C25 N4 1_555 1_555
C26 C25 1_555 1_555
H23 C26 1_555 1_555
C27 C16 1_555 1_555
H24 C27 1_555 1_555
Zn1B N4 1_555 1_555
Zn1C O3 1_555 1_555
N4B Zn1 1_555 1_555
O3C Zn1 1_555 1_555
C2 C7 1_555 1_555
C6 C7 1_555 1_555
C14 C25 1_555 1_555
C22 C23 1_555 1_555
C26 C27 1_555 1_555

#END
