
#######################################################################
#
#                 Cambridge Crystallographic Data Centre
#                                CCDC 
#
#######################################################################
#
# If this CIF has been generated from an entry in the Cambridge 
# Structural Database, then it will include bibliographic, chemical, 
# crystal, experimental, refinement or atomic coordinate data resulting 
# from the CCDC's data processing and validation procedures.
#
#######################################################################

data_DEFWIW
_symmetry_cell_setting           monoclinic
_symmetry_space_group_name_H-M   'P 21/n'
_symmetry_Int_Tables_number      14
_space_group_name_Hall           '-P 2yn'
loop_
_symmetry_equiv_pos_site_id
_symmetry_equiv_pos_as_xyz
1 x,y,z
2 1/2-x,1/2+y,1/2-z
3 -x,-y,-z
4 1/2+x,1/2-y,1/2+z
_cell_length_a                   11.512(2)
_cell_length_b                   17.457(4)
_cell_length_c                   12.642(3)
_cell_angle_alpha                90
_cell_angle_beta                 106.48(3)
_cell_angle_gamma                90
_cell_volume                     2436.23
loop_
_atom_site_label
_atom_site_type_symbol
_atom_site_fract_x
_atom_site_fract_y
_atom_site_fract_z
Co1 Co 0.73867(2) 0.150745(13) 0.207831(18)
O1 O 0.59170(12) 0.21323(9) 0.16821(11)
O2 O 0.62563(15) 0.26325(9) 0.33578(12)
O3 O 0.33445(12) 0.36456(9) -0.14040(11)
O4 O 0.17519(14) 0.42617(10) -0.11724(13)
N1 N 0.69263(13) 0.06272(8) 0.09910(12)
N2 N 0.67261(13) -0.04940(8) 0.01277(12)
N3 N 1.13390(13) -0.20392(9) -0.14684(12)
N4 N 0.96610(13) -0.21647(9) -0.09423(13)
C1 C 0.84056(17) -0.20614(11) -0.09029(17)
H1 H 0.8209 -0.2466 -0.0456
H2 H 0.7865 -0.2111 -0.1643
C2 C 0.81866(17) -0.12926(11) -0.04336(17)
H3 H 0.8168 -0.0895 -0.0975
H4 H 0.8852 -0.1181 0.0216
C3 C 0.69983(17) -0.12807(10) -0.01230(16)
H5 H 0.6348 -0.1477 -0.0730
H6 H 0.7067 -0.1605 0.0515
C4 C 0.55472(17) -0.00346(12) -0.17824(15)
H7 H 0.5453 -0.0507 -0.2136
C5 C 0.50837(19) 0.06307(13) -0.23342(16)
H8 H 0.4670 0.0607 -0.3081
C6 C 0.5223(2) 0.13369(13) -0.17953(17)
H9 H 0.4906 0.1773 -0.2196
C7 C 0.58181(19) 0.14074(11) -0.06845(16)
H10 H 0.5895 0.1879 -0.0330
C8 C 0.62965(15) 0.07435(10) -0.01174(14)
C9 C 0.61632(15) 0.00413(10) -0.06662(14)
C10 C 0.71722(16) -0.01153(10) 0.10969(14)
C11 C 0.7856(2) -0.04923(12) 0.21398(16)
H11 H 0.8684 -0.0561 0.2141
H12 H 0.7500 -0.0982 0.2198
H13 H 0.7826 -0.0178 0.2754
C12 C 0.9710(2) -0.10872(14) -0.2241(2)
H14 H 1.0081 -0.1031 -0.2828
H15 H 0.8854 -0.1163 -0.2547
H16 H 0.9851 -0.0634 -0.1792
C13 C 1.02428(17) -0.17602(11) -0.15530(15)
C14 C 1.14733(16) -0.26755(10) -0.07771(14)
C15 C 1.04258(16) -0.27576(10) -0.04368(14)
C16 C 1.0284(2) -0.33512(11) 0.02443(17)
H17 H 0.9596 -0.3394 0.0486
C17 C 1.1217(2) -0.38751(12) 0.05441(18)
H18 H 1.1153 -0.4282 0.1000
C18 C 1.2254(2) -0.38139(12) 0.01849(18)
H19 H 1.2854 -0.4187 0.0389
C19 C 1.24052(18) -0.32089(11) -0.04690(16)
H20 H 1.3104 -0.3161 -0.0694
C20 C 0.56739(16) 0.25890(10) 0.23859(14)
C21 C 0.45950(16) 0.31047(10) 0.19381(14)
C22 C 0.41769(15) 0.32746(10) 0.08186(14)
H21 H 0.4551 0.3052 0.0332
C23 C 0.32058(16) 0.37729(10) 0.04169(14)
C24 C 0.27137(17) 0.39188(11) -0.08032(15)
C25 C 0.26451(18) 0.40960(11) 0.11539(16)
H22 H 0.1995 0.4428 0.0896
C26 C 0.30499(19) 0.39252(13) 0.22652(17)
H23 H 0.2666 0.4139 0.2750
C27 C 0.40256(18) 0.34371(11) 0.26603(15)
H24 H 0.4302 0.3331 0.3411
Co1C Co 0.23867(2) 0.349255(13) -0.292169(18)
Co1B Co 1.26133(2) -0.150745(13) -0.207831(18)
O3C O 0.83445(12) 0.13544(9) 0.35960(11)
N3B N 0.86610(13) 0.20392(9) 0.14684(12)
loop_
_geom_bond_atom_site_label_1
_geom_bond_atom_site_label_2
_geom_bond_site_symmetry_1
_geom_bond_site_symmetry_2
Co1 O1 1_555 1_555
O1 C20 1_555 1_555
O2 C20 1_555 1_555
O3 C24 1_555 1_555
O4 C24 1_555 1_555
N1 Co1 1_555 1_555
N2 C3 1_555 1_555
N3 C13 1_555 1_555
N4 C1 1_555 1_555
C1 H1 1_555 1_555
H2 C1 1_555 1_555
C2 C1 1_555 1_555
H3 C2 1_555 1_555
H4 C2 1_555 1_555
C3 C2 1_555 1_555
H5 C3 1_555 1_555
H6 C3 1_555 1_555
C4 H7 1_555 1_555
C5 C4 1_555 1_555
H8 C5 1_555 1_555
C6 C5 1_555 1_555
H9 C6 1_555 1_555
C7 C6 1_555 1_555
H10 C7 1_555 1_555
C8 N1 1_555 1_555
C9 N2 1_555 1_555
C10 N1 1_555 1_555
C11 C10 1_555 1_555
H11 C11 1_555 1_555
H12 C11 1_555 1_555
H13 C11 1_555 1_555
C12 H14 1_555 1_555
H15 C12 1_555 1_555
H16 C12 1_555 1_555
C13 N4 1_555 1_555
C14 N3 1_555 1_555
C15 N4 1_555 1_555
C16 C15 1_555 1_555
H17 C16 1_555 1_555
C17 C16 1_555 1_555
H18 C17 1_555 1_555
C18 C17 1_555 1_555
H19 C18 1_555 1_555
C19 C14 1_555 1_555
H20 C19 1_555 1_555
C20 C21 1_555 1_555
C21 C22 1_555 1_555
C22 H21 1_555 1_555
C23 C22 1_555 1_555
C24 C23 1_555 1_555
C25 C23 1_555 1_555
H22 C25 1_555 1_555
C26 C25 1_555 1_555
H23 C26 1_555 1_555
C27 C21 1_555 1_555
H24 C27 1_555 1_555
Co1C O3 1_555 1_555
Co1B N3 1_555 1_555
O3C Co1 1_555 1_555
N3B Co1 1_555 1_555
N2 C10 1_555 1_555
C4 C9 1_555 1_555
C7 C8 1_555 1_555
C8 C9 1_555 1_555
C12 C13 1_555 1_555
C14 C15 1_555 1_555
C18 C19 1_555 1_555
C26 C27 1_555 1_555

#END
