
#######################################################################
#
#                 Cambridge Crystallographic Data Centre
#                                CCDC 
#
#######################################################################
#
# If this CIF has been generated from an entry in the Cambridge 
# Structural Database, then it will include bibliographic, chemical, 
# crystal, experimental, refinement or atomic coordinate data resulting 
# from the CCDC's data processing and validation procedures.
#
#######################################################################

data_DEFYIY
_symmetry_cell_setting           triclinic
_symmetry_space_group_name_H-M   'P -1'
_symmetry_Int_Tables_number      2
_space_group_name_Hall           '-P 1'
loop_
_symmetry_equiv_pos_site_id
_symmetry_equiv_pos_as_xyz
1 x,y,z
2 -x,-y,-z
_cell_length_a                   11.729(6)
_cell_length_b                   17.716(9)
_cell_length_c                   20.360(10)
_cell_angle_alpha                69.109(6)
_cell_angle_beta                 89.186(6)
_cell_angle_gamma                89.739(7)
_cell_volume                     3952.11
loop_
_atom_site_label
_atom_site_type_symbol
_atom_site_fract_x
_atom_site_fract_y
_atom_site_fract_z
Pr1 Pr 0.41434(4) 0.68491(4) 0.21004(3)
N1 N 0.6184(6) 0.5330(5) 0.3886(4)
H1 H 0.6549 0.5133 0.4274
N2 N 0.6974(5) 0.6099(5) 0.0995(5)
H2 H 0.7637 0.5982 0.0872
N3 N 0.6503(6) 0.8781(6) 0.1119(4)
H3 H 0.7143 0.9034 0.1038
N4 N 0.2386(7) 0.7895(6) 0.2432(5)
N5 N 0.3122(9) 0.5213(7) 0.2623(5)
N6 N 0.3113(6) 0.7101(6) 0.0720(5)
O1 O 0.7066(5) 0.5616(6) 0.4959(3)
O2 O 0.5006(4) 0.6275(4) 0.3246(3)
O3 O 0.8434(8) 0.4759(6) 0.3506(5)
O4 O 0.9155(4) 0.5911(4) 0.1255(3)
O5 O 0.5958(4) 0.6527(4) 0.1712(3)
O6 O 0.6700(8) 0.5008(9) 0.0236(7)
O7 O 0.8316(4) 0.9242(4) 0.1597(3)
O8 O 0.5239(4) 0.8045(4) 0.1918(3)
O9 O 0.6695(10) 0.9854(9) -0.0301(6)
O10 O 0.3062(5) 0.7487(4) 0.2867(3)
O11 O 0.2491(7) 0.7835(6) 0.1839(5)
O12 O 0.1677(7) 0.8329(6) 0.2560(5)
O13 O 0.2678(5) 0.5783(5) 0.2761(3)
O14 O 0.4067(6) 0.5341(5) 0.2304(4)
O15 O 0.2636(9) 0.4563(6) 0.2802(5)
O16 O 0.2794(5) 0.6551(4) 0.1256(4)
O17 O 0.3950(5) 0.7484(5) 0.0774(3)
O18 O 0.2637(6) 0.7218(5) 0.0154(4)
C1 C 0.7961(8) 0.5508(8) 0.5479(5)
H4 H 0.8105 0.6014 0.5547
H5 H 0.7725 0.5110 0.5927
C2 C 0.8990(7) 0.5237(8) 0.5223(5)
C3 C 0.9803(10) 0.5809(8) 0.4871(5)
C4 C 0.9175(8) 0.4443(8) 0.5340(5)
C5 C 0.9586(12) 0.6706(9) 0.4715(7)
H6 H 0.8830 0.6777 0.4871
H7 H 0.9658 0.6996 0.4218
H8 H 1.0133 0.6908 0.4958
C6 C 0.8262(10) 0.3812(9) 0.5655(6)
H9 H 0.8089 0.3548 0.5330
H10 H 0.8530 0.3421 0.6086
H11 H 0.7587 0.4067 0.5748
C7 C 0.5549(7) 0.5959(7) 0.3786(5)
C8 C 0.5448(7) 0.6293(6) 0.4368(5)
C9 C 0.6179(7) 0.6103(7) 0.4945(5)
C10 C 0.5975(8) 0.6459(8) 0.5451(5)
H12 H 0.6461 0.6350 0.5831
C11 C 0.5095(9) 0.6948(8) 0.5392(6)
H13 H 0.4967 0.7159 0.5744
C12 C 0.4373(8) 0.7154(8) 0.4845(6)
H14 H 0.3772 0.7510 0.4810
C13 C 0.4570(8) 0.6812(7) 0.4337(5)
H15 H 0.4079 0.6942 0.3957
C14 C 0.6304(8) 0.4944(7) 0.3367(6)
H16 H 0.6251 0.5351 0.2900
H17 H 0.5682 0.4565 0.3427
C15 C 0.7394(9) 0.4514(8) 0.3428(6)
C16 C 0.7479(11) 0.3887(9) 0.3284(7)
H18 H 0.6909 0.3613 0.3147
C17 C 0.8662(14) 0.3692(12) 0.3377(9)
H19 H 0.8960 0.3202 0.3385
C18 C 0.9228(13) 0.4205(10) 0.3444(8)
H20 H 1.0019 0.4232 0.3453
C19 C 1.0275(6) 0.5742(6) 0.1038(5)
H21 H 1.0689 0.5387 0.1439
H22 H 1.0705 0.6240 0.0832
C20 C 1.0130(7) 0.4531(7) 0.0696(6)
C21 C 1.0118(6) 0.5346(7) 0.0507(6)
C22 C 0.9975(7) 0.5827(7) -0.0190(7)
C23 C 1.0258(12) 0.3993(8) 0.1476(7)
H23 H 0.9966 0.4274 0.1768
H24 H 1.1049 0.3869 0.1575
H25 H 0.9838 0.3500 0.1570
C24 C 0.9890(11) 0.6753(7) -0.0418(7)
H26 H 0.9558 0.6970 -0.0876
H27 H 1.0638 0.6977 -0.0434
H28 H 0.9420 0.6891 -0.0087
C25 C 0.6892(6) 0.6362(6) 0.1525(5)
C26 C 0.7934(6) 0.6446(5) 0.1912(4)
C27 C 0.9047(6) 0.6227(5) 0.1765(5)
C28 C 0.9951(7) 0.6332(5) 0.2138(5)
H29 H 1.0683 0.6195 0.2038
C29 C 0.9777(7) 0.6641(6) 0.2662(5)
H30 H 1.0393 0.6709 0.2919
C30 C 0.8705(7) 0.6851(6) 0.2810(5)
H31 H 0.8590 0.7054 0.3168
C31 C 0.7800(7) 0.6759(5) 0.2424(5)
H32 H 0.7076 0.6916 0.2517
C32 C 0.5975(8) 0.5999(9) 0.0608(7)
H33 H 0.5478 0.5590 0.0926
H34 H 0.5555 0.6503 0.0441
C33 C 0.6264(10) 0.5773(12) 0.0036(10)
C34 C 0.6167(12) 0.5993(13) -0.0606(10)
H35 H 0.5855 0.6484 -0.0886
C35 C 0.6577(13) 0.5422(14) -0.0852(10)
H36 H 0.6618 0.5489 -0.1326
C36 C 0.6883(12) 0.4815(13) -0.0379(11)
H37 H 0.7168 0.4338 -0.0412
C37 C 0.9493(7) 0.9440(6) 0.1490(5)
H38 H 0.9954 0.8969 0.1731
H39 H 0.9676 0.9860 0.1673
C38 C 0.9734(7) 1.0537(6) 0.0320(5)
C39 C 0.9731(6) 0.9730(6) 0.0705(5)
C40 C 0.9985(7) 0.9179(6) 0.0397(5)
C41 C 0.9391(10) 1.1137(7) 0.0655(6)
H40 H 0.8887 1.0881 0.1047
H41 H 0.9008 1.1585 0.0317
H42 H 1.0058 1.1327 0.0816
C42 C 0.9941(9) 0.8284(5) 0.0798(5)
H43 H 1.0693 0.8091 0.0952
H44 H 0.9662 0.8015 0.0498
H45 H 0.9441 0.8175 0.1198
C43 C 0.6112(7) 0.8473(6) 0.1779(5)
C44 C 0.6784(7) 0.8591(6) 0.2353(5)
C45 C 0.7876(8) 0.8945(6) 0.2260(5)
C46 C 0.8461(9) 0.8971(7) 0.2838(5)
H46 H 0.9184 0.9200 0.2780
C47 C 0.7966(10) 0.8652(7) 0.3506(6)
H47 H 0.8361 0.8663 0.3895
C48 C 0.6905(9) 0.8325(7) 0.3588(6)
H48 H 0.6575 0.8119 0.4035
C49 C 0.6314(9) 0.8294(7) 0.3025(5)
H49 H 0.5587 0.8070 0.3093
C50 C 0.5899(9) 0.8707(8) 0.0539(6)
H50 H 0.5195 0.8453 0.0582
C51 C 0.6489(12) 0.9059(12) -0.0099(8)
C52 C 0.7087(15) 0.8845(13) -0.0595(10)
H51 H 0.7161 0.8315 -0.0578
C53 C 0.7539(16) 0.9469(13) -0.1092(9)
H52 H 0.8001 0.9449 -0.1461
C54 C 0.7209(14) 1.0168(13) -0.0975(9)
H53 H 0.7304 1.0704 -0.1267
Pr1A Pr 1.58566(4) 0.31509(4) 0.78996(3)
Pr1A_2 Pr 1.58566(4) 0.31509(4) -0.21004(3)
Pr1A_3 Pr 1.58566(4) 1.31509(4) -0.21004(3)
N1A N 1.3816(6) 0.4670(5) 0.6114(4)
H1A H 1.3451 0.4867 0.5726
N2A N 1.3026(5) 0.3901(5) -0.0995(5)
H2A H 1.2363 0.4018 -0.0872
N3A N 1.3497(6) 1.1219(6) -0.1119(4)
H3A H 1.2857 1.0966 -0.1038
N4A N 1.7614(7) 0.2105(6) 0.7568(5)
N5A N 1.6878(9) 0.4787(7) 0.7377(5)
N6A N 1.6887(6) 0.2899(6) 0.9280(5)
O1A O 1.2934(5) 0.4384(6) 0.5041(3)
O2A O 1.4994(4) 0.3725(4) 0.6754(3)
O3A O 1.1566(8) 0.5241(6) 0.6494(5)
O4A O 1.0845(4) 0.4089(4) -0.1255(3)
O5A O 1.4042(4) 0.3473(4) -0.1712(3)
O5A_2 O 1.4042(4) 0.3473(4) 0.8288(3)
O6A O 1.3300(8) 0.4992(9) -0.0236(7)
O7A O 1.1684(4) 1.0758(4) -0.1597(3)
O8A O 1.4761(4) 1.1955(4) -0.1918(3)
O8A_2 O 1.4761(4) 0.1955(4) 0.8082(3)
O9A O 1.3305(10) 1.0146(9) 0.0301(6)
O10A O 1.6938(5) 0.2513(4) 0.7133(3)
O11A O 1.7509(7) 0.2165(6) 0.8161(5)
O12A O 1.8323(7) 0.1671(6) 0.7440(5)
O13A O 1.7322(5) 0.4217(5) 0.7239(3)
O14A O 1.5933(6) 0.4659(5) 0.7696(4)
O15A O 1.7364(9) 0.5437(6) 0.7198(5)
O16A O 1.7206(5) 0.3449(4) 0.8744(4)
O17A O 1.6050(5) 0.2516(5) 0.9226(3)
O18A O 1.7363(6) 0.2782(5) 0.9846(4)
C1A C 1.2039(8) 0.4492(8) 0.4521(5)
H4A H 1.1895 0.3986 0.4453
H5A H 1.2275 0.4890 0.4073
C2A C 1.1010(7) 0.4763(8) 0.4777(5)
C3A C 1.0197(10) 0.4191(8) 0.5129(5)
C4A C 1.0825(8) 0.5557(8) 0.4660(5)
C5A C 1.0414(12) 0.3294(9) 0.5285(7)
H6A H 1.1170 0.3223 0.5129
H7A H 1.0342 0.3004 0.5782
H8A H 0.9867 0.3092 0.5042
C6A C 1.1738(10) 0.6188(9) 0.4345(6)
H9A H 1.1911 0.6452 0.4670
H10A H 1.1470 0.6579 0.3914
H11A H 1.2413 0.5933 0.4252
C7A C 1.4451(7) 0.4041(7) 0.6214(5)
C8A C 1.4552(7) 0.3707(6) 0.5632(5)
C9A C 1.3821(7) 0.3897(7) 0.5055(5)
C10A C 1.4025(8) 0.3541(8) 0.4549(5)
H12A H 1.3539 0.3650 0.4169
C11A C 1.4905(9) 0.3052(8) 0.4608(6)
H13A H 1.5033 0.2841 0.4256
C12A C 1.5627(8) 0.2846(8) 0.5155(6)
H14A H 1.6228 0.2490 0.5190
C13A C 1.5430(8) 0.3188(7) 0.5663(5)
H15A H 1.5921 0.3058 0.6043
C14A C 1.3696(8) 0.5056(7) 0.6633(6)
H16A H 1.3749 0.4649 0.7100
H17A H 1.4318 0.5435 0.6573
C15A C 1.2606(9) 0.5486(8) 0.6572(6)
C16A C 1.2521(11) 0.6113(9) 0.6716(7)
H18A H 1.3091 0.6387 0.6853
C17A C 1.1338(14) 0.6308(12) 0.6623(9)
H19A H 1.1040 0.6798 0.6615
C18A C 1.0772(13) 0.5795(10) 0.6556(8)
H20A H 0.9981 0.5768 0.6547
C19A C 0.9725(6) 0.4258(6) -0.1038(5)
H21A H 0.9311 0.4613 -0.1439
H22A H 0.9295 0.3760 -0.0832
C20A C 0.9870(7) 0.5469(7) -0.0696(6)
C21A C 0.9882(6) 0.4654(7) -0.0507(6)
C22A C 1.0025(7) 0.4173(7) 0.0190(7)
C23A C 0.9742(12) 0.6007(8) -0.1476(7)
H23A H 1.0034 0.5726 -0.1768
H24A H 0.8951 0.6131 -0.1575
H25A H 1.0162 0.6500 -0.1570
C24A C 1.0110(11) 0.3247(7) 0.0418(7)
H26A H 1.0442 0.3030 0.0876
H27A H 0.9362 0.3023 0.0434
H28A H 1.0580 0.3109 0.0087
C25A C 1.3108(6) 0.3638(6) -0.1525(5)
C26A C 1.2066(6) 0.3554(5) -0.1912(4)
C27A C 1.0953(6) 0.3773(5) -0.1765(5)
C28A C 1.0049(7) 0.3668(5) -0.2138(5)
H29A H 0.9317 0.3805 -0.2038
C29A C 1.0223(7) 0.3359(6) -0.2662(5)
H30A H 0.9607 0.3291 -0.2919
C30A C 1.1295(7) 0.3149(6) -0.2810(5)
H31A H 1.1410 0.2946 -0.3168
C31A C 1.2200(7) 0.3241(5) -0.2424(5)
H32A H 1.2924 0.3084 -0.2517
C32A C 1.4025(8) 0.4001(9) -0.0608(7)
H33A H 1.4522 0.4410 -0.0926
H34A H 1.4445 0.3497 -0.0441
C33A C 1.3736(10) 0.4227(12) -0.0036(10)
C34A C 1.3833(12) 0.4007(13) 0.0606(10)
H35A H 1.4145 0.3516 0.0886
C35A C 1.3423(13) 0.4578(14) 0.0852(10)
H36A H 1.3382 0.4511 0.1326
C36A C 1.3117(12) 0.5185(13) 0.0379(11)
H37A H 1.2832 0.5662 0.0412
C37A C 1.0507(7) 1.0560(6) -0.1490(5)
H38A H 1.0046 1.1031 -0.1731
H39A H 1.0324 1.0140 -0.1673
C38A C 1.0266(7) 0.9463(6) -0.0320(5)
C39A C 1.0269(6) 1.0270(6) -0.0705(5)
C40A C 1.0015(7) 1.0821(6) -0.0397(5)
C41A C 1.0609(10) 0.8863(7) -0.0655(6)
H40A H 1.1113 0.9119 -0.1047
H41A H 1.0992 0.8415 -0.0317
H42A H 0.9942 0.8673 -0.0816
C42A C 1.0059(9) 1.1716(5) -0.0798(5)
H43A H 0.9307 1.1909 -0.0952
H44A H 1.0338 1.1985 -0.0498
H45A H 1.0559 1.1825 -0.1198
C43A C 1.3888(7) 1.1527(6) -0.1779(5)
C44A C 1.3216(7) 1.1409(6) -0.2353(5)
C45A C 1.2124(8) 1.1055(6) -0.2260(5)
C46A C 1.1539(9) 1.1029(7) -0.2838(5)
H46A H 1.0816 1.0800 -0.2780
C47A C 1.2034(10) 1.1348(7) -0.3506(6)
H47A H 1.1639 1.1337 -0.3895
C48A C 1.3095(9) 1.1675(7) -0.3588(6)
H48A H 1.3425 1.1881 -0.4035
C49A C 1.3686(9) 1.1706(7) -0.3025(5)
H49A H 1.4413 1.1930 -0.3093
C50A C 1.4101(9) 1.1293(8) -0.0539(6)
H50A H 1.4805 1.1547 -0.0582
C51A C 1.3511(12) 1.0941(12) 0.0099(8)
C52A C 1.2913(15) 1.1155(13) 0.0595(10)
H51A H 1.2839 1.1685 0.0578
C53A C 1.2461(16) 1.0531(13) 0.1092(9)
H52A H 1.1999 1.0551 0.1461
C54A C 1.2791(14) 0.9832(13) 0.0975(9)
H53A H 1.2696 0.9296 0.1267
loop_
_geom_bond_atom_site_label_1
_geom_bond_atom_site_label_2
_geom_bond_site_symmetry_1
_geom_bond_site_symmetry_2
Pr1 O2 1_555 1_555
N1 H1 1_555 1_555
N2 H2 1_555 1_555
N3 H3 1_555 1_555
N4 O10 1_555 1_555
N5 O13 1_555 1_555
N6 O16 1_555 1_555
O1 C1 1_555 1_555
O2 C7 1_555 1_555
O3 C15 1_555 1_555
O4 C19 1_555 1_555
O5 Pr1 1_555 1_555
O6 C33 1_555 1_555
O7 C37 1_555 1_555
O8 Pr1 1_555 1_555
O9 C51 1_555 1_555
O10 Pr1 1_555 1_555
O11 Pr1 1_555 1_555
O12 N4 1_555 1_555
O13 Pr1 1_555 1_555
O14 Pr1 1_555 1_555
O15 N5 1_555 1_555
O16 Pr1 1_555 1_555
O17 Pr1 1_555 1_555
O18 N6 1_555 1_555
C1 H4 1_555 1_555
H5 C1 1_555 1_555
C2 C1 1_555 1_555
C3 C2 1_555 1_555
C4 C2 1_555 1_555
C5 C3 1_555 1_555
H6 C5 1_555 1_555
H7 C5 1_555 1_555
H8 C5 1_555 1_555
C6 C4 1_555 1_555
H9 C6 1_555 1_555
H10 C6 1_555 1_555
H11 C6 1_555 1_555
C7 N1 1_555 1_555
C8 C7 1_555 1_555
C9 O1 1_555 1_555
C10 C9 1_555 1_555
H12 C10 1_555 1_555
C11 C10 1_555 1_555
H13 C11 1_555 1_555
C12 C11 1_555 1_555
H14 C12 1_555 1_555
C13 C8 1_555 1_555
H15 C13 1_555 1_555
C14 N1 1_555 1_555
H16 C14 1_555 1_555
H17 C14 1_555 1_555
C15 C14 1_555 1_555
C16 C15 1_555 1_555
H18 C16 1_555 1_555
C17 C16 1_555 1_555
H19 C17 1_555 1_555
C18 O3 1_555 1_555
H20 C18 1_555 1_555
C19 H21 1_555 1_555
H22 C19 1_555 1_555
C20 C21 1_555 1_555
C21 C19 1_555 1_555
C22 C21 1_555 1_555
C23 C20 1_555 1_555
H23 C23 1_555 1_555
H24 C23 1_555 1_555
H25 C23 1_555 1_555
C24 C22 1_555 1_555
H26 C24 1_555 1_555
H27 C24 1_555 1_555
H28 C24 1_555 1_555
C25 N2 1_555 1_555
C26 C25 1_555 1_555
C27 O4 1_555 1_555
C28 C27 1_555 1_555
H29 C28 1_555 1_555
C29 C28 1_555 1_555
H30 C29 1_555 1_555
C30 C29 1_555 1_555
H31 C30 1_555 1_555
C31 C26 1_555 1_555
H32 C31 1_555 1_555
C32 N2 1_555 1_555
H33 C32 1_555 1_555
H34 C32 1_555 1_555
C33 C32 1_555 1_555
C34 C33 1_555 1_555
H35 C34 1_555 1_555
C35 C34 1_555 1_555
H36 C35 1_555 1_555
C36 O6 1_555 1_555
H37 C36 1_555 1_555
C37 H38 1_555 1_555
H39 C37 1_555 1_555
C38 C39 1_555 1_555
C39 C37 1_555 1_555
C40 C39 1_555 1_555
C41 C38 1_555 1_555
H40 C41 1_555 1_555
H41 C41 1_555 1_555
H42 C41 1_555 1_555
C42 C40 1_555 1_555
H43 C42 1_555 1_555
H44 C42 1_555 1_555
H45 C42 1_555 1_555
C43 N3 1_555 1_555
C44 C43 1_555 1_555
C45 O7 1_555 1_555
C46 C45 1_555 1_555
H46 C46 1_555 1_555
C47 C46 1_555 1_555
H47 C47 1_555 1_555
C48 C47 1_555 1_555
H48 C48 1_555 1_555
C49 C44 1_555 1_555
H49 C49 1_555 1_555
C50 N3 1_555 1_555
H50 C50 1_555 1_555
C51 C50 1_555 1_555
C52 C51 1_555 1_555
H51 C52 1_555 1_555
C53 C52 1_555 1_555
H52 C53 1_555 1_555
C54 O9 1_555 1_555
H53 C54 1_555 1_555
Pr1A O2A 1_555 1_555
Pr1A_2 O5A 1_555 1_555
Pr1A_3 O8A 1_555 1_555
N1A H1A 1_555 1_555
N2A H2A 1_555 1_555
N3A H3A 1_555 1_555
N4A O10A 1_555 1_555
N5A O13A 1_555 1_555
N6A O16A 1_555 1_555
O1A C1A 1_555 1_555
O2A C7A 1_555 1_555
O3A C15A 1_555 1_555
O4A C19A 1_555 1_555
O5A C25A 1_555 1_555
O5A_2 Pr1A 1_555 1_555
O6A C33A 1_555 1_555
O7A C37A 1_555 1_555
O8A C43A 1_555 1_555
O8A_2 Pr1A 1_555 1_555
O9A C51A 1_555 1_555
O10A Pr1A 1_555 1_555
O11A Pr1A 1_555 1_555
O12A N4A 1_555 1_555
O13A Pr1A 1_555 1_555
O14A Pr1A 1_555 1_555
O15A N5A 1_555 1_555
O16A Pr1A 1_555 1_555
O17A Pr1A 1_555 1_555
O18A N6A 1_555 1_555
C1A H4A 1_555 1_555
H5A C1A 1_555 1_555
C2A C1A 1_555 1_555
C3A C4 1_555 1_555
C4A C3 1_555 1_555
C5A C3A 1_555 1_555
H6A C5A 1_555 1_555
H7A C5A 1_555 1_555
H8A C5A 1_555 1_555
C6A C4A 1_555 1_555
H9A C6A 1_555 1_555
H10A C6A 1_555 1_555
H11A C6A 1_555 1_555
C7A N1A 1_555 1_555
C8A C7A 1_555 1_555
C9A O1A 1_555 1_555
C10A C9A 1_555 1_555
H12A C10A 1_555 1_555
C11A C10A 1_555 1_555
H13A C11A 1_555 1_555
C12A C11A 1_555 1_555
H14A C12A 1_555 1_555
C13A C8A 1_555 1_555
H15A C13A 1_555 1_555
C14A N1A 1_555 1_555
H16A C14A 1_555 1_555
H17A C14A 1_555 1_555
C15A C14A 1_555 1_555
C16A C15A 1_555 1_555
H18A C16A 1_555 1_555
C17A C16A 1_555 1_555
H19A C17A 1_555 1_555
C18A O3A 1_555 1_555
H20A C18A 1_555 1_555
C19A H21A 1_555 1_555
H22A C19A 1_555 1_555
C20A C22 1_555 1_555
C21A C19A 1_555 1_555
C22A C20 1_555 1_555
C23A C20A 1_555 1_555
H23A C23A 1_555 1_555
H24A C23A 1_555 1_555
H25A C23A 1_555 1_555
C24A C22A 1_555 1_555
H26A C24A 1_555 1_555
H27A C24A 1_555 1_555
H28A C24A 1_555 1_555
C25A N2A 1_555 1_555
C26A C25A 1_555 1_555
C27A O4A 1_555 1_555
C28A C27A 1_555 1_555
H29A C28A 1_555 1_555
C29A C28A 1_555 1_555
H30A C29A 1_555 1_555
C30A C29A 1_555 1_555
H31A C30A 1_555 1_555
C31A C26A 1_555 1_555
H32A C31A 1_555 1_555
C32A N2A 1_555 1_555
H33A C32A 1_555 1_555
H34A C32A 1_555 1_555
C33A C32A 1_555 1_555
C34A C33A 1_555 1_555
H35A C34A 1_555 1_555
C35A C34A 1_555 1_555
H36A C35A 1_555 1_555
C36A O6A 1_555 1_555
H37A C36A 1_555 1_555
C37A H38A 1_555 1_555
H39A C37A 1_555 1_555
C38A C40 1_555 1_555
C39A C37A 1_555 1_555
C40A C38 1_555 1_555
C41A C38A 1_555 1_555
H40A C41A 1_555 1_555
H41A C41A 1_555 1_555
H42A C41A 1_555 1_555
C42A C40A 1_555 1_555
H43A C42A 1_555 1_555
H44A C42A 1_555 1_555
H45A C42A 1_555 1_555
C43A N3A 1_555 1_555
C44A C43A 1_555 1_555
C45A O7A 1_555 1_555
C46A C45A 1_555 1_555
H46A C46A 1_555 1_555
C47A C46A 1_555 1_555
H47A C47A 1_555 1_555
C48A C47A 1_555 1_555
H48A C48A 1_555 1_555
C49A C44A 1_555 1_555
H49A C49A 1_555 1_555
C50A N3A 1_555 1_555
H50A C50A 1_555 1_555
C51A C50A 1_555 1_555
C52A C51A 1_555 1_555
H51A C52A 1_555 1_555
C53A C52A 1_555 1_555
H52A C53A 1_555 1_555
C54A O9A 1_555 1_555
H53A C54A 1_555 1_555
N4 O11 1_555 1_555
N5 O14 1_555 1_555
N6 O17 1_555 1_555
O5 C25 1_555 1_555
O8 C43 1_555 1_555
C8 C9 1_555 1_555
C12 C13 1_555 1_555
C17 C18 1_555 1_555
C26 C27 1_555 1_555
C30 C31 1_555 1_555
C35 C36 1_555 1_555
C44 C45 1_555 1_555
C48 C49 1_555 1_555
C53 C54 1_555 1_555
N4A O11A 1_555 1_555
N5A O14A 1_555 1_555
N6A O17A 1_555 1_555
C2A C3A 1_555 1_555
C2A C4A 1_555 1_555
C8A C9A 1_555 1_555
C12A C13A 1_555 1_555
C17A C18A 1_555 1_555
C20A C21A 1_555 1_555
C21A C22A 1_555 1_555
C26A C27A 1_555 1_555
C30A C31A 1_555 1_555
C35A C36A 1_555 1_555
C38A C39A 1_555 1_555
C39A C40A 1_555 1_555
C44A C45A 1_555 1_555
C48A C49A 1_555 1_555
C53A C54A 1_555 1_555

#END
