
#######################################################################
#
#                 Cambridge Crystallographic Data Centre
#                                CCDC 
#
#######################################################################
#
# If this CIF has been generated from an entry in the Cambridge 
# Structural Database, then it will include bibliographic, chemical, 
# crystal, experimental, refinement or atomic coordinate data resulting 
# from the CCDC's data processing and validation procedures.
#
#######################################################################

data_DEFYAQ
_symmetry_cell_setting           triclinic
_symmetry_space_group_name_H-M   'P -1'
_symmetry_Int_Tables_number      2
_space_group_name_Hall           '-P 1'
loop_
_symmetry_equiv_pos_site_id
_symmetry_equiv_pos_as_xyz
1 x,y,z
2 -x,-y,-z
_cell_length_a                   7.6664(5)
_cell_length_b                   12.1398(7)
_cell_length_c                   16.849(1)
_cell_angle_alpha                68.657(6)
_cell_angle_beta                 80.667(8)
_cell_angle_gamma                84.897(7)
_cell_volume                     1440.47
loop_
_atom_site_label
_atom_site_type_symbol
_atom_site_fract_x
_atom_site_fract_y
_atom_site_fract_z
Ba1 Ba 0.23498 0.51109 0.04583
P1 P 0.46672 0.24049 0.00347
P2 P 0.04191 0.25583 0.01642
P3 P 0.34596 0.51529 0.26336
P4 P -0.0702 0.51953 0.25962
O1 O 0.47942 0.3548 0.01382
O2 O 0.61462 0.2017 -0.05463
O3 O 0.05646 0.36219 0.04123
O4 O -0.08646 0.25539 -0.03859
O5 O 0.36397 0.47376 0.18672
O6 O 0.46602 0.60177 0.26364
O7 O -0.02155 0.47529 0.18411
O8 O -0.21339 0.61314 0.25107
O9 O 0.29386 0.53195 -0.10959
C1 C 0.265 0.2251 -0.0366
H1 H 0.2749 0.2799 -0.0969
H2 H 0.2686 0.1448 -0.038
C2 C 0.124 0.5927 0.2699
H3 H 0.0991 0.6053 0.3257
H4 H 0.1331 0.6711 0.2243
C3 C 0.472 0.1228 0.1135
C4 C 0.437 0.0078 0.1227
H5 H 0.4018 -0.0063 0.0761
C5 C 0.452 -0.0861 0.1997
H6 H 0.4346 -0.1641 0.2045
C6 C 0.494 -0.062 0.2697
H7 H 0.4993 -0.1235 0.3233
C7 C 0.53 0.055 0.2601
H8 H 0.5621 0.0701 0.3067
C8 C 0.516 0.1447 0.184
H9 H 0.5375 0.2223 0.1785
C9 C 0.011 0.1262 0.1181
C10 C -0.043 0.0179 0.1171
H10 H -0.0666 0.0143 0.0649
C11 C -0.06 -0.082 0.1905
H11 H -0.099 -0.1519 0.1891
C12 C -0.02 -0.076 0.2672
H12 H -0.0227 -0.1449 0.3168
C13 C 0.027 0.036 0.2714
H13 H 0.0441 0.0411 0.3242
C14 C 0.044 0.132 0.1965
H14 H 0.078 0.2033 0.1976
C15 C 0.337 0.387 0.3602
C16 C 0.302 0.278 0.3595
H15 H 0.2863 0.2712 0.3069
C17 C 0.289 0.178 0.4343
H16 H 0.2695 0.1038 0.4317
C18 C 0.305 0.187 0.5111
H17 H 0.2903 0.1203 0.5621
C19 C 0.341 0.296 0.5162
H18 H 0.3554 0.3008 0.5695
C20 C 0.357 0.3938 0.4412
H19 H 0.3805 0.4668 0.4439
C21 C -0.123 0.3961 0.3568
C22 C -0.16 0.2929 0.3475
H20 H -0.1508 0.2888 0.2917
C23 C -0.209 0.196 0.4197
H21 H -0.2368 0.1262 0.413
C24 C -0.219 0.2 0.5041
H22 H -0.2514 0.1338 0.5538
C25 C -0.179 0.304 0.5112
H23 H -0.1817 0.3083 0.5665
C26 C -0.136 0.3997 0.4395
H24 H -0.1135 0.4706 0.446
Ba1A Ba 0.76502 0.48891 -0.04583
Ba1A_2 Ba -0.23498 0.48891 -0.04583
O1A O 0.52058 0.6452 -0.01382
O3A O -0.05646 0.63781 -0.04123
O4A O 0.08646 0.74461 0.03859
loop_
_geom_bond_atom_site_label_1
_geom_bond_atom_site_label_2
_geom_bond_site_symmetry_1
_geom_bond_site_symmetry_2
Ba1 O1 1_555 1_555
P1 O1 1_555 1_555
P2 O3 1_555 1_555
P3 O5 1_555 1_555
P4 O7 1_555 1_555
O1 Ba1A 1_555 1_555
O2 P1 1_555 1_555
O3 Ba1 1_555 1_555
O4 P2 1_555 1_555
O5 Ba1 1_555 1_555
O6 P3 1_555 1_555
O7 Ba1 1_555 1_555
O8 P4 1_555 1_555
O9 Ba1 1_555 1_555
C1 P1 1_555 1_555
H1 C1 1_555 1_555
H2 C1 1_555 1_555
C2 P3 1_555 1_555
H3 C2 1_555 1_555
H4 C2 1_555 1_555
C3 P1 1_555 1_555
C4 C3 1_555 1_555
H5 C4 1_555 1_555
C5 C4 1_555 1_555
H6 C5 1_555 1_555
C6 C5 1_555 1_555
H7 C6 1_555 1_555
C7 C6 1_555 1_555
H8 C7 1_555 1_555
C8 C3 1_555 1_555
H9 C8 1_555 1_555
C9 P2 1_555 1_555
C10 C9 1_555 1_555
H10 C10 1_555 1_555
C11 C10 1_555 1_555
H11 C11 1_555 1_555
C12 C11 1_555 1_555
H12 C12 1_555 1_555
C13 C12 1_555 1_555
H13 C13 1_555 1_555
C14 C9 1_555 1_555
H14 C14 1_555 1_555
C15 P3 1_555 1_555
C16 C15 1_555 1_555
H15 C16 1_555 1_555
C17 C16 1_555 1_555
H16 C17 1_555 1_555
C18 C17 1_555 1_555
H17 C18 1_555 1_555
C19 C18 1_555 1_555
H18 C19 1_555 1_555
C20 C15 1_555 1_555
H19 C20 1_555 1_555
C21 P4 1_555 1_555
C22 C21 1_555 1_555
H20 C22 1_555 1_555
C23 C22 1_555 1_555
H21 C23 1_555 1_555
C24 C23 1_555 1_555
H22 C24 1_555 1_555
C25 C24 1_555 1_555
H23 C25 1_555 1_555
C26 C21 1_555 1_555
H24 C26 1_555 1_555
Ba1A O1A 1_555 1_555
Ba1A_2 O3 1_555 1_555
O1A Ba1 1_555 1_555
O3A Ba1 1_555 1_555
O4A Ba1 1_555 1_555
P2 C1 1_555 1_555
P4 C2 1_555 1_555
O4 Ba1A_2 1_555 1_555
C7 C8 1_555 1_555
C13 C14 1_555 1_555
C19 C20 1_555 1_555
C25 C26 1_555 1_555
Ba1A_2 O3A 1_555 1_555

#END
