
#######################################################################
#
#                 Cambridge Crystallographic Data Centre
#                                CCDC 
#
#######################################################################
#
# If this CIF has been generated from an entry in the Cambridge 
# Structural Database, then it will include bibliographic, chemical, 
# crystal, experimental, refinement or atomic coordinate data resulting 
# from the CCDC's data processing and validation procedures.
#
#######################################################################

data_DEFYIX
_symmetry_cell_setting           triclinic
_symmetry_space_group_name_H-M   'P -1'
_symmetry_Int_Tables_number      2
_space_group_name_Hall           '-P 1'
loop_
_symmetry_equiv_pos_site_id
_symmetry_equiv_pos_as_xyz
1 x,y,z
2 -x,-y,-z
_cell_length_a                   7.337(3)
_cell_length_b                   10.767(5)
_cell_length_c                   10.967(5)
_cell_angle_alpha                93.602(7)
_cell_angle_beta                 104.926(7)
_cell_angle_gamma                104.640(7)
_cell_volume                     802.336
loop_
_atom_site_label
_atom_site_type_symbol
_atom_site_fract_x
_atom_site_fract_y
_atom_site_fract_z
Cu1 Cu 0.11952(5) 0.25750(3) 0.69299(3)
N1 N 0.2400(4) 0.4486(2) 0.7438(2)
N2 N 0.1384(3) 0.3075(2) 0.5238(2)
O1 O 0.0944(3) 0.2205(2) 0.8598(2)
O2 O 0.4437(4) 0.2295(3) 0.7517(3)
O3 O 0.2259(4) 0.0548(2) 0.8624(3)
O4 O -0.0730(3) 0.09078(18) 0.6129(2)
O5 O -0.2717(3) 0.21585(19) 0.6182(2)
C1 C 0.1170(5) 0.1119(3) 0.8932(3)
C2 C -0.0062(5) 0.0538(3) 0.9756(3)
H1 H -0.0954 0.0951 0.9932
C3 C -0.4098(4) -0.0037(3) 0.5204(3)
H2 H -0.3854 -0.0832 0.5059
C4 C -0.2409(4) 0.1102(3) 0.5893(3)
C5 C 0.2909(5) 0.5132(3) 0.8608(3)
H3 H 0.2722 0.4668 0.9274
C6 C 0.3700(5) 0.6453(3) 0.8870(3)
H4 H 0.4042 0.6866 0.9701
C7 C 0.3986(4) 0.7170(3) 0.7894(3)
C8 C 0.3465(4) 0.6489(3) 0.6678(3)
H5 H 0.3640 0.6931 0.5997
C9 C 0.2690(4) 0.5161(3) 0.6476(3)
C10 C 0.2106(4) 0.4348(3) 0.5215(3)
C11 C 0.2288(4) 0.4834(3) 0.4102(3)
H6 H 0.2788 0.5720 0.4113
C12 C 0.1724(4) 0.3999(3) 0.2966(3)
C13 C 0.0987(5) 0.2692(3) 0.3008(3)
H7 H 0.0594 0.2103 0.2269
C14 C 0.0835(4) 0.2261(3) 0.4146(3)
H8 H 0.0336 0.1379 0.4158
C15 C 0.4810(6) 0.8615(3) 0.8116(4)
H9 H 0.5082 0.8923 0.9003
H10 H 0.3874 0.9001 0.7619
H11 H 0.6002 0.8848 0.7869
C16 C 0.1901(5) 0.4510(4) 0.1751(3)
H12 H 0.2442 0.5434 0.1915
H13 H 0.0626 0.4294 0.1145
H14 H 0.2750 0.4128 0.1414
H15 H 0.525(5) 0.212(4) 0.716(4)
H16 H 0.411(7) 0.167(3) 0.791(4)
Cu1A Cu -0.11952(5) -0.25750(3) 1.30701(3)
Cu1A_2 Cu -1.11952(5) -0.25750(3) 0.30701(3)
N1A N -0.2400(4) -0.4486(2) 1.2562(2)
N2A N -0.1384(3) -0.3075(2) 1.4762(2)
O1A O -0.0944(3) -0.2205(2) 1.1402(2)
O2A O -0.4437(4) -0.2295(3) 1.2483(3)
O3A O -0.2259(4) -0.0548(2) 1.1376(3)
O4A O -0.9270(3) -0.09078(18) 0.3871(2)
O4A_2 O 0.0730(3) -0.09078(18) 1.3871(2)
O5A O -0.7283(3) -0.21585(19) 0.3818(2)
O5A_2 O 0.2717(3) -0.21585(19) 1.3818(2)
C1A C -0.1170(5) -0.1119(3) 1.1068(3)
C2A C 0.0062(5) -0.0538(3) 1.0244(3)
H1A H 0.0954 -0.0951 1.0068
C3A C -0.5902(4) 0.0037(3) 0.4796(3)
H2A H -0.6146 0.0832 0.4941
C4A C -0.7591(4) -0.1102(3) 0.4107(3)
C5A C -0.2909(5) -0.5132(3) 1.1392(3)
H3A H -0.2722 -0.4668 1.0726
C6A C -0.3700(5) -0.6453(3) 1.1130(3)
H4A H -0.4042 -0.6866 1.0299
C7A C -0.3986(4) -0.7170(3) 1.2106(3)
C8A C -0.3465(4) -0.6489(3) 1.3322(3)
H5A H -0.3640 -0.6931 1.4003
C9A C -0.2690(4) -0.5161(3) 1.3524(3)
C10A C -0.2106(4) -0.4348(3) 1.4785(3)
C11A C -0.2288(4) -0.4834(3) 1.5898(3)
H6A H -0.2788 -0.5720 1.5887
C12A C -0.1724(4) -0.3999(3) 1.7034(3)
C13A C -0.0987(5) -0.2692(3) 1.6992(3)
H7A H -0.0594 -0.2103 1.7731
C14A C -0.0835(4) -0.2261(3) 1.5854(3)
H8A H -0.0336 -0.1379 1.5842
C15A C -0.4810(6) -0.8615(3) 1.1884(4)
H9A H -0.5082 -0.8923 1.0997
H10A H -0.3874 -0.9001 1.2381
H11A H -0.6002 -0.8848 1.2131
C16A C -0.1901(5) -0.4510(4) 1.8249(3)
H12A H -0.2442 -0.5434 1.8085
H13A H -0.0626 -0.4294 1.8855
H14A H -0.2750 -0.4128 1.8586
H15A H -0.525(5) -0.212(4) 1.284(4)
H16A H -0.411(7) -0.167(3) 1.209(4)
loop_
_geom_bond_atom_site_label_1
_geom_bond_atom_site_label_2
_geom_bond_site_symmetry_1
_geom_bond_site_symmetry_2
Cu1 N1 1_555 1_555
N1 C5 1_555 1_555
N2 Cu1 1_555 1_555
O1 Cu1 1_555 1_555
O2 Cu1 1_555 1_555
O3 C1 1_555 1_555
O4 Cu1 1_555 1_555
O5 Cu1 1_555 1_555
C1 O1 1_555 1_555
C2 C1 1_555 1_555
H1 C2 1_555 1_555
C3 H2 1_555 1_555
C4 O4 1_555 1_555
C5 H3 1_555 1_555
C6 C5 1_555 1_555
H4 C6 1_555 1_555
C7 C6 1_555 1_555
C8 C7 1_555 1_555
H5 C8 1_555 1_555
C9 N1 1_555 1_555
C10 N2 1_555 1_555
C11 C10 1_555 1_555
H6 C11 1_555 1_555
C12 C11 1_555 1_555
C13 C12 1_555 1_555
H7 C13 1_555 1_555
C14 N2 1_555 1_555
H8 C14 1_555 1_555
C15 C7 1_555 1_555
H9 C15 1_555 1_555
H10 C15 1_555 1_555
H11 C15 1_555 1_555
C16 C12 1_555 1_555
H12 C16 1_555 1_555
H13 C16 1_555 1_555
H14 C16 1_555 1_555
H15 O2 1_555 1_555
H16 O2 1_555 1_555
Cu1A N1A 1_555 1_555
Cu1A_2 O4A 1_555 1_555
N1A C5A 1_555 1_555
N2A Cu1A 1_555 1_555
O1A Cu1A 1_555 1_555
O2A Cu1A 1_555 1_555
O3A C1A 1_555 1_555
O4A C4A 1_555 1_555
O4A_2 Cu1A 1_555 1_555
O5A Cu1A_2 1_555 1_555
O5A_2 Cu1A 1_555 1_555
C1A O1A 1_555 1_555
C2A C2 1_555 1_555
H1A C2A 1_555 1_555
C3A C3 1_555 1_555
H2A C3A 1_555 1_555
C4A O5A 1_555 1_555
C5A H3A 1_555 1_555
C6A C5A 1_555 1_555
H4A C6A 1_555 1_555
C7A C6A 1_555 1_555
C8A C7A 1_555 1_555
H5A C8A 1_555 1_555
C9A N1A 1_555 1_555
C10A N2A 1_555 1_555
C11A C10A 1_555 1_555
H6A C11A 1_555 1_555
C12A C11A 1_555 1_555
C13A C12A 1_555 1_555
H7A C13A 1_555 1_555
C14A N2A 1_555 1_555
H8A C14A 1_555 1_555
C15A C7A 1_555 1_555
H9A C15A 1_555 1_555
H10A C15A 1_555 1_555
H11A C15A 1_555 1_555
C16A C12A 1_555 1_555
H12A C16A 1_555 1_555
H13A C16A 1_555 1_555
H14A C16A 1_555 1_555
H15A O2A 1_555 1_555
H16A O2A 1_555 1_555
O5 C4 1_555 1_555
C3 C4 1_555 1_555
C8 C9 1_555 1_555
C9 C10 1_555 1_555
C13 C14 1_555 1_555
C1A C2A 1_555 1_555
C3A C4A 1_555 1_555
C8A C9A 1_555 1_555
C9A C10A 1_555 1_555
C13A C14A 1_555 1_555

#END
