
#######################################################################
#
#                 Cambridge Crystallographic Data Centre
#                                CCDC 
#
#######################################################################
#
# If this CIF has been generated from an entry in the Cambridge 
# Structural Database, then it will include bibliographic, chemical, 
# crystal, experimental, refinement or atomic coordinate data resulting 
# from the CCDC's data processing and validation procedures.
#
#######################################################################

data_DEGBOI
_symmetry_cell_setting           monoclinic
_symmetry_space_group_name_H-M   'P 21/c'
_symmetry_Int_Tables_number      14
_space_group_name_Hall           '-P 2ybc'
loop_
_symmetry_equiv_pos_site_id
_symmetry_equiv_pos_as_xyz
1 x,y,z
2 -x,1/2+y,1/2-z
3 -x,-y,-z
4 x,1/2-y,1/2+z
_cell_length_a                   15.885(9)
_cell_length_b                   14.251(7)
_cell_length_c                   12.884(7)
_cell_angle_alpha                90
_cell_angle_beta                 90.076(10)
_cell_angle_gamma                90
_cell_volume                     2916.64
loop_
_atom_site_label
_atom_site_type_symbol
_atom_site_fract_x
_atom_site_fract_y
_atom_site_fract_z
Sm1 Sm -0.44105(2) 0.04834(2) 0.18095(2)
Sm2 Sm 0.05571(2) -0.30036(2) 0.16676(2)
O1 O -0.5671(3) 0.1476(3) 0.1745(4)
O2 O -0.6275(3) 0.2760(3) 0.1602(4)
O3 O -0.5448(4) 0.4564(3) 0.1767(3)
O4 O -0.5522(3) 0.4149(3) 0.0120(3)
O5 O -0.2760(3) 0.0386(3) 0.1641(4)
O6 O -0.1377(3) -0.0277(3) 0.1385(4)
O7 O -0.0871(3) -0.1769(3) -0.0065(3)
O8 O -0.0859(3) -0.2240(3) 0.1568(3)
O9 O -0.4289(4) 0.1237(3) 0.3411(4)
O10 O -0.5896(3) -0.0267(3) 0.1678(3)
O11 O -0.5858(3) -0.0620(3) 0.0010(3)
O12 O -0.6399(3) -0.2250(3) 0.1219(4)
O13 O -0.7794(3) -0.2906(3) 0.1427(4)
O14 O -0.0709(3) -0.4005(3) 0.1700(4)
O15 O -0.1327(3) -0.5267(3) 0.1388(4)
O16 O -0.0471(4) -0.7061(3) 0.1853(3)
O17 O -0.0555(3) -0.6803(3) 0.0150(3)
O18 O 0.0693(4) -0.3747(3) 0.3315(4)
N1 N -0.3903(4) 0.2061(4) 0.1436(4)
N2 N -0.3568(4) 0.3761(4) 0.0982(4)
N3 N -0.3701(4) -0.0972(4) 0.1209(4)
N4 N -0.2826(4) -0.2521(4) 0.0856(4)
N5 N -0.7837(4) 0.0048(4) 0.1017(4)
N6 N -0.8731(3) -0.1515(4) 0.1149(4)
N7 N 0.1059(4) -0.4592(4) 0.1284(4)
N8 N 0.1393(4) -0.6309(4) 0.0983(4)
C1 C -0.4603(4) 0.2612(4) 0.1363(5)
C2 C -0.4439(5) 0.3467(4) 0.1132(4)
C3 C -0.2882(5) 0.3217(5) 0.1067(5)
H1 H -0.2328 0.3452 0.0973
C4 C -0.3030(4) 0.2362(5) 0.1282(5)
H2 H -0.2581 0.1926 0.1342
C5 C -0.5615(5) 0.2257(5) 0.1591(5)
C6 C -0.5212(4) 0.4112(4) 0.0995(5)
C7 C -0.2766(4) -0.1051(4) 0.1176(4)
C8 C -0.2312(4) -0.1825(4) 0.0972(5)
C9 C -0.3752(5) -0.2431(5) 0.0881(5)
H3 H -0.4061 -0.2993 0.0769
C10 C -0.4200(4) -0.1675(4) 0.1038(5)
H4 H -0.4797 -0.1645 0.1028
C11 C -0.2247(4) -0.0248(4) 0.1415(5)
C12 C -0.1268(5) -0.1941(4) 0.0802(5)
C13 C -0.7331(5) -0.0663(4) 0.1024(5)
C14 C -0.7783(4) -0.1446(4) 0.1113(4)
C15 C -0.9213(4) -0.0799(4) 0.1083(5)
H5 H -0.9810 -0.0828 0.1076
C16 C -0.8781(4) -0.0028(4) 0.1027(5)
H6 H -0.9091 0.0541 0.0989
C17 C -0.7259(4) -0.2265(4) 0.1260(4)
C18 C -0.6287(5) -0.0519(4) 0.0892(5)
C19 C 0.0337(4) -0.5140(4) 0.1265(4)
C20 C 0.0526(4) -0.5998(5) 0.1079(5)
C21 C 0.2093(5) -0.5746(5) 0.1018(6)
H7 H 0.2651 -0.5978 0.0950
C22 C 0.1923(5) -0.4890(5) 0.1148(5)
H8 H 0.2363 -0.4439 0.1158
C23 C -0.0646(5) -0.4777(5) 0.1463(5)
C24 C -0.0241(4) -0.6676(4) 0.1033(5)
Sm1A Sm -0.55895(2) 0.54834(2) 0.31905(2)
Sm1B Sm -0.55895(2) -0.04834(2) -0.18095(2)
Sm2_2 Sm -0.94429(2) -0.30036(2) 0.16676(2)
Sm2A Sm -0.05571(2) -0.80036(2) 0.33324(2)
Sm2B Sm -0.05571(2) -0.69964(2) -0.16676(2)
O3A O -0.4552(4) -0.0436(3) 0.3233(3)
O11B O -0.4142(3) 0.0620(3) -0.0010(3)
O13_2 O 0.2206(3) -0.2906(3) 0.1427(4)
O16A O 0.0471(4) -0.2061(3) 0.3147(3)
O17B O 0.0555(3) -0.3197(3) -0.0150(3)
N6_2 N 0.1269(3) -0.1515(4) 0.1149(4)
N9 N -0.2047(5) -0.3062(4) 0.3286(5)
N10 N -0.3028(5) -0.4439(4) 0.1440(5)
loop_
_geom_bond_atom_site_label_1
_geom_bond_atom_site_label_2
_geom_bond_site_symmetry_1
_geom_bond_site_symmetry_2
Sm1 O1 1_555 1_555
Sm2 O8 1_555 1_555
O1 C5 1_555 1_555
O2 C5 1_555 1_555
O3 C6 1_555 1_555
O4 C6 1_555 1_555
O5 Sm1 1_555 1_555
O6 C11 1_555 1_555
O7 C12 1_555 1_555
O8 C12 1_555 1_555
O9 Sm1 1_555 1_555
O10 Sm1 1_555 1_555
O11 C18 1_555 1_555
O12 C17 1_555 1_555
O13 C17 1_555 1_555
O14 Sm2 1_555 1_555
O15 C23 1_555 1_555
O16 C24 1_555 1_555
O17 C24 1_555 1_555
O18 Sm2 1_555 1_555
N1 Sm1 1_555 1_555
N2 C2 1_555 1_555
N3 Sm1 1_555 1_555
N4 C8 1_555 1_555
N5 C13 1_555 1_555
N6 C14 1_555 1_555
N7 Sm2 1_555 1_555
N8 C20 1_555 1_555
C1 N1 1_555 1_555
C2 C1 1_555 1_555
C3 N2 1_555 1_555
H1 C3 1_555 1_555
C4 N1 1_555 1_555
H2 C4 1_555 1_555
C5 C1 1_555 1_555
C6 C2 1_555 1_555
C7 N3 1_555 1_555
C8 C7 1_555 1_555
C9 N4 1_555 1_555
H3 C9 1_555 1_555
C10 N3 1_555 1_555
H4 C10 1_555 1_555
C11 O5 1_555 1_555
C12 C8 1_555 1_555
C13 C14 1_555 1_555
C14 C17 1_555 1_555
C15 N6 1_555 1_555
H5 C15 1_555 1_555
C16 N5 1_555 1_555
H6 C16 1_555 1_555
C18 O10 1_555 1_555
C19 N7 1_555 1_555
C20 C19 1_555 1_555
C21 N8 1_555 1_555
H7 C21 1_555 1_555
C22 N7 1_555 1_555
H8 C22 1_555 1_555
C23 O14 1_555 1_555
C24 C20 1_555 1_555
Sm1A O3 1_555 1_555
Sm1B O11 1_555 1_555
Sm2_2 O13 1_555 1_555
Sm2A O16 1_555 1_555
Sm2B O17 1_555 1_555
O3A Sm1 1_555 1_555
O11B Sm1 1_555 1_555
O13_2 Sm2 1_555 1_555
O16A Sm2 1_555 1_555
O17B Sm2 1_555 1_555
N6_2 Sm2 1_555 1_555
N6 Sm2_2 1_555 1_555
C3 C4 1_555 1_555
C7 C11 1_555 1_555
C9 C10 1_555 1_555
C13 C18 1_555 1_555
C15 C16 1_555 1_555
C19 C23 1_555 1_555
C21 C22 1_555 1_555

#END
