
#######################################################################
#
#                 Cambridge Crystallographic Data Centre
#                                CCDC 
#
#######################################################################
#
# If this CIF has been generated from an entry in the Cambridge 
# Structural Database, then it will include bibliographic, chemical, 
# crystal, experimental, refinement or atomic coordinate data resulting 
# from the CCDC's data processing and validation procedures.
#
#######################################################################

data_DEGBAT
_symmetry_cell_setting           monoclinic
_symmetry_space_group_name_H-M   'P 21/n'
_symmetry_Int_Tables_number      14
_space_group_name_Hall           '-P 2yn'
loop_
_symmetry_equiv_pos_site_id
_symmetry_equiv_pos_as_xyz
1 x,y,z
2 1/2-x,1/2+y,1/2-z
3 -x,-y,-z
4 1/2+x,1/2-y,1/2+z
_cell_length_a                   7.767(3)
_cell_length_b                   11.091(5)
_cell_length_c                   15.094(7)
_cell_angle_alpha                90
_cell_angle_beta                 96.074(8)
_cell_angle_gamma                90
_cell_volume                     1292.95
loop_
_atom_site_label
_atom_site_type_symbol
_atom_site_fract_x
_atom_site_fract_y
_atom_site_fract_z
Cu1 Cu 0.0000 0.5000 0.0000
S1 S 0.21166(8) 0.59899(6) 0.16326(4)
S2 S 0.71474(8) 0.69169(6) 0.01859(5)
B1 B -0.2307(5) 0.2510(3) 0.0993(3)
F1 F -0.3355(4) 0.1666(2) 0.0582(2)
F2 F -0.2883(4) 0.2812(3) 0.17915(19)
F3 F -0.0656(3) 0.2076(2) 0.11428(18)
F4 F -0.2308(2) 0.35244(16) 0.04581(13)
C1 C 0.0888(6) 0.4736(3) 0.3039(3)
H1 H 0.0265 0.4801 0.3553
H2 H 0.2039 0.4450 0.3217
H3 H 0.0303 0.4179 0.2623
C2 C 0.0977(4) 0.5942(3) 0.2610(2)
H4 H 0.1532 0.6500 0.3046
H5 H -0.0195 0.6227 0.2449
C3 C 0.4255(3) 0.5556(3) 0.2081(2)
H6 H 0.4659 0.6089 0.2569
H7 H 0.4234 0.4741 0.2312
C4 C 0.5479(3) 0.5622(2) 0.1364(2)
H8 H 0.4974 0.5191 0.0841
H9 H 0.6558 0.5225 0.1576
C5 C 0.5858(3) 0.6906(2) 0.11061(19)
H10 H 0.4779 0.7330 0.0941
H11 H 0.6471 0.7320 0.1611
C6 C 0.7691(4) 0.8496(3) 0.0167(2)
H12 H 0.6633 0.8964 0.0151
H13 H 0.8212 0.8666 -0.0375
C7 C 0.8905(5) 0.8900(3) 0.0947(2)
H14 H 0.9143 0.9744 0.0890
H15 H 0.8384 0.8763 0.1487
H16 H 0.9966 0.8453 0.0964
O1 O 0.1530(3) 0.48716(15) 0.10909(14)
O2 O 0.8829(2) 0.62935(16) 0.05619(13)
Cu1_2 Cu 1.0000 0.5000 0.0000
Cu1_3 Cu -1.0000 0.5000 0.0000
S1B S -0.21166(8) 0.40101(6) -0.16326(4)
S2B S -0.71474(8) 0.30831(6) -0.01859(5)
B1B B 0.2307(5) 0.7490(3) -0.0993(3)
F1B F 0.3355(4) 0.8334(2) -0.0582(2)
F2B F 0.2883(4) 0.7188(3) -0.17915(19)
F3B F 0.0656(3) 0.7924(2) -0.11428(18)
F4B F 0.2308(2) 0.64756(16) -0.04581(13)
C1B C -0.0888(6) 0.5264(3) -0.3039(3)
H1B H -0.0265 0.5199 -0.3553
H2B H -0.2039 0.5550 -0.3217
H3B H -0.0303 0.5821 -0.2623
C2B C -0.0977(4) 0.4058(3) -0.2610(2)
H4B H -0.1532 0.3500 -0.3046
H5B H 0.0195 0.3773 -0.2449
C3B C -0.4255(3) 0.4444(3) -0.2081(2)
H6B H -0.4659 0.3911 -0.2569
H7B H -0.4234 0.5259 -0.2312
C4B C -0.5479(3) 0.4378(2) -0.1364(2)
H8B H -0.4974 0.4809 -0.0841
H9B H -0.6558 0.4775 -0.1576
C5B C -0.5858(3) 0.3094(2) -0.11061(19)
H10B H -0.4779 0.2670 -0.0941
H11B H -0.6471 0.2680 -0.1611
C6B C -0.7691(4) 0.1504(3) -0.0167(2)
H12B H -0.6633 0.1036 -0.0151
H13B H -0.8212 0.1334 0.0375
C7B C -0.8905(5) 0.1100(3) -0.0947(2)
H14B H -0.9143 0.0256 -0.0890
H15B H -0.8384 0.1237 -0.1487
H16B H -0.9966 0.1547 -0.0964
O1B O -0.1530(3) 0.51284(15) -0.10909(14)
O2B O -0.8829(2) 0.37065(16) -0.05619(13)
O2_2 O -0.1171(2) 0.62935(16) 0.05619(13)
O2B_2 O 0.1171(2) 0.37065(16) -0.05619(13)
loop_
_geom_bond_atom_site_label_1
_geom_bond_atom_site_label_2
_geom_bond_site_symmetry_1
_geom_bond_site_symmetry_2
Cu1 F4 1_555 1_555
S1 C2 1_555 1_555
S2 C5 1_555 1_555
B1 F1 1_555 1_555
F2 B1 1_555 1_555
F3 B1 1_555 1_555
F4 B1 1_555 1_555
C1 H1 1_555 1_555
H2 C1 1_555 1_555
H3 C1 1_555 1_555
C2 C1 1_555 1_555
H4 C2 1_555 1_555
H5 C2 1_555 1_555
C3 S1 1_555 1_555
H6 C3 1_555 1_555
H7 C3 1_555 1_555
C4 C3 1_555 1_555
H8 C4 1_555 1_555
H9 C4 1_555 1_555
C5 C4 1_555 1_555
H10 C5 1_555 1_555
H11 C5 1_555 1_555
C6 S2 1_555 1_555
H12 C6 1_555 1_555
H13 C6 1_555 1_555
C7 C6 1_555 1_555
H14 C7 1_555 1_555
H15 C7 1_555 1_555
H16 C7 1_555 1_555
O1 Cu1 1_555 1_555
O2 S2 1_555 1_555
Cu1_2 O2 1_555 1_555
Cu1_3 O2B 1_555 1_555
S1B C2B 1_555 1_555
S2B C5B 1_555 1_555
B1B F1B 1_555 1_555
F2B B1B 1_555 1_555
F3B B1B 1_555 1_555
F4B Cu1 1_555 1_555
C1B H1B 1_555 1_555
H2B C1B 1_555 1_555
H3B C1B 1_555 1_555
C2B C1B 1_555 1_555
H4B C2B 1_555 1_555
H5B C2B 1_555 1_555
C3B S1B 1_555 1_555
H6B C3B 1_555 1_555
H7B C3B 1_555 1_555
C4B C3B 1_555 1_555
H8B C4B 1_555 1_555
H9B C4B 1_555 1_555
C5B C4B 1_555 1_555
H10B C5B 1_555 1_555
H11B C5B 1_555 1_555
C6B S2B 1_555 1_555
H12B C6B 1_555 1_555
H13B C6B 1_555 1_555
C7B C6B 1_555 1_555
H14B C7B 1_555 1_555
H15B C7B 1_555 1_555
H16B C7B 1_555 1_555
O1B Cu1 1_555 1_555
O2B S2B 1_555 1_555
O2_2 Cu1 1_555 1_555
O2B_2 Cu1 1_555 1_555
S1 O1 1_555 1_555
S1B O1B 1_555 1_555
B1B F4B 1_555 1_555

#END
