
#######################################################################
#
#                 Cambridge Crystallographic Data Centre
#                                CCDC 
#
#######################################################################
#
# If this CIF has been generated from an entry in the Cambridge 
# Structural Database, then it will include bibliographic, chemical, 
# crystal, experimental, refinement or atomic coordinate data resulting 
# from the CCDC's data processing and validation procedures.
#
#######################################################################

data_DEGCEZ
_symmetry_cell_setting           triclinic
_symmetry_space_group_name_H-M   'P -1'
_symmetry_Int_Tables_number      2
_space_group_name_Hall           '-P 1'
loop_
_symmetry_equiv_pos_site_id
_symmetry_equiv_pos_as_xyz
1 x,y,z
2 -x,-y,-z
_cell_length_a                   8.1006(4)
_cell_length_b                   10.2621(6)
_cell_length_c                   16.5790(9)
_cell_angle_alpha                72.9210(10)
_cell_angle_beta                 88.2860(10)
_cell_angle_gamma                72.9450(10)
_cell_volume                     1257.1
loop_
_atom_site_label
_atom_site_type_symbol
_atom_site_fract_x
_atom_site_fract_y
_atom_site_fract_z
Pb1 Pb 0.734363(18) 0.539836(15) 0.471559(9)
Pb2 Pb 0.457290(18) 0.429760(15) 0.235390(9)
O1 O 0.8198(4) 0.6630(3) 0.32259(19)
H1 H 0.5952 0.2645 0.1111
O2 O 0.6230(4) 0.5536(3) 0.31592(19)
O3 O 0.4268(4) 0.6530(3) 0.4731(2)
O4 O 0.1921(4) 0.8443(4) 0.4472(3)
O5 O 0.7255(4) 0.5586(3) 0.63352(19)
O6 O 0.9366(4) 0.6231(3) 0.55682(18)
O7 O 0.3443(4) 0.5380(3) 0.08962(19)
O8 O 0.2621(4) 0.7418(4) -0.0181(2)
O9 O 0.5118(4) 0.2340(3) 0.1420(2)
N1 N 0.6678(4) 0.6001(4) 0.1438(2)
N2 N 0.8317(5) 0.8067(4) 0.0645(2)
N3 N 0.6389(5) 0.8163(4) 0.4368(2)
N4 N 0.5049(6) 1.1122(4) 0.3680(3)
N5 N 0.8432(4) 0.6143(4) 0.7685(2)
N6 N 1.1114(5) 0.7379(4) 0.7500(2)
N7 N 0.2759(4) 0.6851(4) 0.2036(2)
N8 N 0.1319(5) 0.9810(4) 0.1513(3)
C1 C 0.7389(5) 0.6627(4) 0.1885(3)
C2 C 0.8225(6) 0.7624(5) 0.1485(3)
H2 H 0.8757 0.8010 0.1824
C3 C 0.7596(6) 0.7441(5) 0.0216(3)
H3 H 0.7606 0.7729 -0.0383
C4 C 0.6826(5) 0.6379(5) 0.0607(3)
H4 H 0.6401 0.5922 0.0273
C5 C 0.7252(5) 0.6233(4) 0.2823(3)
C6 C 0.4670(5) 0.8822(4) 0.4261(3)
C7 C 0.4024(6) 1.0285(5) 0.3936(3)
H5 H 0.2807 1.0715 0.3892
C8 C 0.6744(7) 1.0457(5) 0.3798(3)
H6 H 0.7519 1.1014 0.3640
C9 C 0.7424(6) 0.8996(5) 0.4138(3)
H7 H 0.8644 0.8577 0.4210
C10 C 0.3503(6) 0.7883(5) 0.4512(3)
C11 C 0.9184(5) 0.6432(4) 0.6944(3)
C12 C 1.0518(5) 0.7070(4) 0.6855(3)
H8 H 1.1013 0.7289 0.6324
C13 C 1.0388(5) 0.7051(4) 0.8231(3)
H9 H 1.0798 0.7237 0.8704
C14 C 0.9050(5) 0.6446(5) 0.8323(3)
H10 H 0.8556 0.6241 0.8856
C15 C 0.8550(5) 0.6052(4) 0.6225(3)
C16 C 0.2428(5) 0.7573(5) 0.1216(3)
C17 C 0.1723(6) 0.9069(5) 0.0955(3)
H11 H 0.1530 0.9566 0.0368
C18 C 0.1603(6) 0.9055(5) 0.2329(3)
H12 H 0.1299 0.9545 0.2742
C19 C 0.2322(6) 0.7590(5) 0.2596(3)
H13 H 0.2508 0.7098 0.3184
C20 C 0.2850(5) 0.6737(5) 0.0584(3)
C21 C 0.5700(8) 0.0831(6) 0.1668(4)
H14 H 0.5743 0.0502 0.1168
H15 H 0.6859 0.0493 0.1951
H16 H 0.4903 0.0453 0.2058
Pb1A Pb 0.265637(18) 0.460164(15) 0.528441(9)
Pb1A_2 Pb 1.265637(18) 0.460164(15) 0.528441(9)
Pb2A Pb 0.542710(18) 0.570240(15) 0.764610(9)
O3A O 0.5732(4) 0.3470(3) 0.5269(2)
O5A O 0.2745(4) 0.4414(3) 0.36648(19)
O6A O 1.0634(4) 0.3769(3) 0.44318(18)
N5A N 0.1568(4) 0.3857(4) 0.2315(2)
loop_
_geom_bond_atom_site_label_1
_geom_bond_atom_site_label_2
_geom_bond_site_symmetry_1
_geom_bond_site_symmetry_2
Pb1 O1 1_555 1_555
Pb2 O2 1_555 1_555
O1 C5 1_555 1_555
H1 O9 1_555 1_555
O2 Pb1 1_555 1_555
O3 Pb1 1_555 1_555
O4 C10 1_555 1_555
O5 Pb1 1_555 1_555
O6 Pb1 1_555 1_555
O7 Pb2 1_555 1_555
O8 C20 1_555 1_555
O9 Pb2 1_555 1_555
N1 Pb2 1_555 1_555
N2 C2 1_555 1_555
N3 Pb1 1_555 1_555
N4 C7 1_555 1_555
N5 C11 1_555 1_555
N6 C12 1_555 1_555
N7 Pb2 1_555 1_555
N8 C17 1_555 1_555
C1 N1 1_555 1_555
C2 C1 1_555 1_555
H2 C2 1_555 1_555
C3 N2 1_555 1_555
H3 C3 1_555 1_555
C4 N1 1_555 1_555
H4 C4 1_555 1_555
C5 O2 1_555 1_555
C6 N3 1_555 1_555
C7 C6 1_555 1_555
H5 C7 1_555 1_555
C8 N4 1_555 1_555
H6 C8 1_555 1_555
C9 N3 1_555 1_555
H7 C9 1_555 1_555
C10 O3 1_555 1_555
C11 C12 1_555 1_555
C12 H8 1_555 1_555
C13 N6 1_555 1_555
H9 C13 1_555 1_555
C14 N5 1_555 1_555
H10 C14 1_555 1_555
C15 O5 1_555 1_555
C16 N7 1_555 1_555
C17 C16 1_555 1_555
H11 C17 1_555 1_555
C18 N8 1_555 1_555
H12 C18 1_555 1_555
C19 N7 1_555 1_555
H13 C19 1_555 1_555
C20 O7 1_555 1_555
C21 O9 1_555 1_555
H14 C21 1_555 1_555
H15 C21 1_555 1_555
H16 C21 1_555 1_555
Pb1A O3 1_555 1_555
Pb1A_2 O6 1_555 1_555
Pb2A O5 1_555 1_555
O3A Pb1 1_555 1_555
O5A Pb2 1_555 1_555
O6A Pb1 1_555 1_555
N5A Pb2 1_555 1_555
O6 C15 1_555 1_555
N5 Pb2A 1_555 1_555
C1 C5 1_555 1_555
C3 C4 1_555 1_555
C6 C10 1_555 1_555
C8 C9 1_555 1_555
C11 C15 1_555 1_555
C13 C14 1_555 1_555
C16 C20 1_555 1_555
C18 C19 1_555 1_555
Pb1A O3A 1_555 1_555
Pb1A O5A 1_555 1_555
Pb1A_2 O6A 1_555 1_555

#END
