
#######################################################################
#
#                 Cambridge Crystallographic Data Centre
#                                CCDC 
#
#######################################################################
#
# If this CIF has been generated from an entry in the Cambridge 
# Structural Database, then it will include bibliographic, chemical, 
# crystal, experimental, refinement or atomic coordinate data resulting 
# from the CCDC's data processing and validation procedures.
#
#######################################################################

data_DEGFUS
_symmetry_cell_setting           monoclinic
_symmetry_space_group_name_H-M   'P 21/n'
_symmetry_Int_Tables_number      14
_space_group_name_Hall           '-P 2yn'
loop_
_symmetry_equiv_pos_site_id
_symmetry_equiv_pos_as_xyz
1 x,y,z
2 1/2-x,1/2+y,1/2-z
3 -x,-y,-z
4 1/2+x,1/2-y,1/2+z
_cell_length_a                   9.8803(8)
_cell_length_b                   12.5171(8)
_cell_length_c                   11.0729(9)
_cell_angle_alpha                90
_cell_angle_beta                 115.251(10)
_cell_angle_gamma                90
_cell_volume                     1238.56
loop_
_atom_site_label
_atom_site_type_symbol
_atom_site_fract_x
_atom_site_fract_y
_atom_site_fract_z
Co1 Co 0.0000 0.5000 0.0000
O1 O 0.29100(15) 0.04353(11) 0.48649(13)
O2 O 0.09246(16) 0.14713(12) 0.37656(15)
N1 N 0.40288(17) 0.07653(13) 0.30439(15)
N2 N 0.33849(18) 0.19654(14) 0.14263(16)
C1 C 0.2784(2) 0.13082(15) 0.29553(18)
C2 C 0.5596(2) 0.08463(16) 0.17683(19)
C3 C 0.2162(2) 0.10562(15) 0.39301(19)
C4 C 0.2362(2) 0.20553(15) 0.19570(19)
C5 C 0.4368(2) 0.11770(15) 0.20876(18)
C6 C 0.7432(2) -0.04733(18) 0.1878(2)
H1 H 0.7865 -0.1142 0.2153
C7 C 0.6241(2) -0.01499(17) 0.2144(2)
H2 H 0.5870 -0.0615 0.2584
O3 O 0.9135(2) -0.00098(15) 0.08907(19)
C8 C 0.6138(2) 0.15270(19) 0.1073(2)
H3 H 0.5711 0.2198 0.0802
C9 C 0.7303(3) 0.1204(2) 0.0791(2)
H4 H 0.7651 0.1656 0.0320
C10 C 0.7965(2) 0.02108(19) 0.1201(2)
O4 O 0.02049(18) 0.28328(13) 0.19980(17)
H5 H 0.0446 0.2371 0.2578
C11 C 0.1157(2) 0.28545(16) 0.1493(2)
O5 O 0.10921(16) 0.35108(11) 0.06412(14)
C12 C 1.0008(3) -0.0935(2) 0.1473(3)
H6 H 0.9412 -0.1563 0.1119
H7 H 1.0341 -0.0915 0.2424
H8 H 1.0860 -0.0951 0.1269
H9 H 0.341(2) 0.2390(19) 0.081(2)
Co1A Co 0.5000 0.0000 0.5000
Co1A_2 Co 0.5000 1.0000 0.5000
O1A O 0.20900(15) 0.54353(11) 0.01351(13)
O1C O -0.20900(15) 0.45647(11) -0.01351(13)
O2A O 0.40754(16) 0.64713(12) 0.12344(15)
N1A N 0.09712(17) 0.57653(13) 0.19561(15)
N1C N -0.09712(17) 0.42347(13) -0.19561(15)
N2A N 0.16151(18) 0.69654(14) 0.35737(16)
C1A C 0.2216(2) 0.63082(15) 0.20447(18)
C2A C -0.0596(2) 0.58463(16) 0.32317(19)
C3A C 0.2838(2) 0.60562(15) 0.10699(19)
C4A C 0.2638(2) 0.70553(15) 0.30430(19)
C5A C 0.0632(2) 0.61770(15) 0.29124(18)
C6A C -0.2432(2) 0.45267(18) 0.3122(2)
H1A H -0.2865 0.3858 0.2847
C7A C -0.1241(2) 0.48501(17) 0.2856(2)
H2A H -0.0870 0.4385 0.2416
O3A O -0.4135(2) 0.49902(15) 0.41093(19)
C8A C -0.1138(2) 0.65270(19) 0.3927(2)
H3A H -0.0711 0.7198 0.4198
C9A C -0.2303(3) 0.6204(2) 0.4209(2)
H4A H -0.2651 0.6656 0.4680
C10A C -0.2965(2) 0.52108(19) 0.3799(2)
O4A O 0.47951(18) 0.78328(13) 0.30020(17)
H5A H 0.4554 0.7371 0.2422
C11A C 0.3843(2) 0.78545(16) 0.3507(2)
O5B O -0.10921(16) 0.64892(11) -0.06412(14)
O5A O 0.39079(16) 0.85108(11) 0.43588(14)
C12A C -0.5008(3) 0.4065(2) 0.3527(3)
H6A H -0.4412 0.3437 0.3881
H7A H -0.5341 0.4085 0.2576
H8A H -0.5860 0.4049 0.3731
H9A H 0.159(2) 0.7390(19) 0.419(2)
O6 O 0.3695(2) 0.35490(15) -0.0200(2)
H10 H 0.428(3) 0.364(2) -0.056(3)
H11 H 0.310(3) 0.403(2) -0.032(3)
loop_
_geom_bond_atom_site_label_1
_geom_bond_atom_site_label_2
_geom_bond_site_symmetry_1
_geom_bond_site_symmetry_2
Co1 O5 1_555 1_555
O1 C3 1_555 1_555
O2 C3 1_555 1_555
N1 C1 1_555 1_555
N2 C4 1_555 1_555
C1 C3 1_555 1_555
C2 C5 1_555 1_555
C4 C1 1_555 1_555
C5 N1 1_555 1_555
C6 H1 1_555 1_555
C7 C2 1_555 1_555
H2 C7 1_555 1_555
O3 C10 1_555 1_555
C8 C2 1_555 1_555
H3 C8 1_555 1_555
C9 C8 1_555 1_555
H4 C9 1_555 1_555
C10 C6 1_555 1_555
O4 H5 1_555 1_555
C11 C4 1_555 1_555
O5 C11 1_555 1_555
C12 O3 1_555 1_555
H6 C12 1_555 1_555
H7 C12 1_555 1_555
H8 C12 1_555 1_555
H9 N2 1_555 1_555
O6 H10 1_555 1_555
H11 O6 1_555 1_555
Co1A O1 1_555 1_555
Co1A_2 O5A 1_555 1_555
O1A Co1 1_555 1_555
O1C Co1 1_555 1_555
O2A C3A 1_555 1_555
N1A Co1 1_555 1_555
N1C Co1 1_555 1_555
N2A C4A 1_555 1_555
C1A N1A 1_555 1_555
C2A C5A 1_555 1_555
C3A O1A 1_555 1_555
C4A C1A 1_555 1_555
C5A N1A 1_555 1_555
C6A H1A 1_555 1_555
C7A C2A 1_555 1_555
H2A C7A 1_555 1_555
O3A C10A 1_555 1_555
C8A C2A 1_555 1_555
H3A C8A 1_555 1_555
C9A C8A 1_555 1_555
H4A C9A 1_555 1_555
C10A C6A 1_555 1_555
O4A H5A 1_555 1_555
C11A C4A 1_555 1_555
O5B Co1 1_555 1_555
O5A C11A 1_555 1_555
C12A O3A 1_555 1_555
H6A C12A 1_555 1_555
H7A C12A 1_555 1_555
H8A C12A 1_555 1_555
H9A N2A 1_555 1_555
N1 Co1A 1_555 1_555
N2 C5 1_555 1_555
C6 C7 1_555 1_555
C9 C10 1_555 1_555
O4 C11 1_555 1_555
N2A C5A 1_555 1_555
C1A C3A 1_555 1_555
C6A C7A 1_555 1_555
C9A C10A 1_555 1_555
O4A C11A 1_555 1_555

#END
