
#######################################################################
#
#                 Cambridge Crystallographic Data Centre
#                                CCDC 
#
#######################################################################
#
# If this CIF has been generated from an entry in the Cambridge 
# Structural Database, then it will include bibliographic, chemical, 
# crystal, experimental, refinement or atomic coordinate data resulting 
# from the CCDC's data processing and validation procedures.
#
#######################################################################

data_DEGFEC
_symmetry_cell_setting           orthorhombic
_symmetry_space_group_name_H-M   'P b c a'
_symmetry_Int_Tables_number      61
_space_group_name_Hall           '-P 2ac 2ab'
loop_
_symmetry_equiv_pos_site_id
_symmetry_equiv_pos_as_xyz
1 x,y,z
2 1/2-x,-y,1/2+z
3 1/2+x,1/2-y,-z
4 -x,1/2+y,1/2-z
5 -x,-y,-z
6 1/2+x,y,1/2-z
7 1/2-x,1/2+y,z
8 x,1/2-y,1/2+z
_cell_length_a                   17.4754(17)
_cell_length_b                   12.7417(12)
_cell_length_c                   18.2221(17)
_cell_angle_alpha                90
_cell_angle_beta                 90
_cell_angle_gamma                90
_cell_volume                     4057.45
loop_
_atom_site_label
_atom_site_type_symbol
_atom_site_fract_x
_atom_site_fract_y
_atom_site_fract_z
Ni1 Ni 0.25589(2) -0.20628(3) -0.00169(2)
O1 O 0.34893(12) -0.17325(16) -0.07202(12)
O2 O 0.39728(15) -0.04576(19) -0.14093(14)
O3 O 0.31498(13) 0.27393(16) -0.09577(11)
O4 O 0.38064(13) 0.14767(17) -0.15277(12)
O5 O -0.04719(14) -0.01159(19) 0.20033(12)
N1 N 0.23131(14) 0.13198(18) -0.01818(13)
N2 N 0.24545(14) -0.04330(18) -0.00802(13)
N3 N 0.16771(14) -0.24307(19) 0.07007(14)
N4 N 0.31340(15) -0.20647(19) 0.09720(14)
C1 C 0.35000(18) -0.0799(3) -0.09216(18)
C2 C 0.29677(17) -0.0059(2) -0.05812(16)
C3 C 0.28788(17) 0.1005(2) -0.06461(16)
C4 C 0.33052(19) 0.1788(2) -0.10766(16)
C5 C 0.20659(17) 0.0431(2) 0.01436(15)
C6 C 0.00726(19) 0.0655(3) 0.09003(18)
H1 H -0.0396 0.0934 0.0758
C7 C 0.07126(19) 0.0799(2) 0.04660(18)
H2 H 0.0670 0.1184 0.0034
C8 C 0.14125(18) 0.0384(2) 0.06595(16)
C9 C 0.14719(19) -0.0138(2) 0.13258(17)
H3 H 0.1944 -0.0394 0.1479
C10 C 0.0837(2) -0.0280(3) 0.17618(18)
H4 H 0.0884 -0.0633 0.2206
C11 C 0.01313(19) 0.0095(2) 0.15474(18)
C12 C -0.1226(2) -0.0040(3) 0.1701(2)
H5 H -0.1273 -0.0513 0.1294
H6 H -0.1316 0.0665 0.1538
H7 H -0.1596 -0.0222 0.2070
C13 C 0.09476(19) -0.2556(3) 0.05319(19)
H8 H 0.0788 -0.2368 0.0063
C14 C 0.0409(2) -0.2951(3) 0.1014(2)
H9 H -0.0100 -0.3033 0.0875
C15 C 0.0651(2) -0.3218(3) 0.1703(2)
H10 H 0.0308 -0.3503 0.2038
C16 C 0.1405(2) -0.3064(3) 0.1900(2)
H11 H 0.1569 -0.3228 0.2371
C17 C 0.19153(19) -0.2664(2) 0.13893(18)
C18 C 0.27240(19) -0.2442(2) 0.15469(17)
C19 C 0.3054(2) -0.2586(3) 0.2230(2)
H12 H 0.2766 -0.2848 0.2618
C20 C 0.3810(2) -0.2338(3) 0.2327(2)
H13 H 0.4039 -0.2435 0.2783
C21 C 0.4228(2) -0.1949(3) 0.1754(2)
H14 H 0.4741 -0.1774 0.1814
C22 C 0.3870(2) -0.1820(3) 0.1083(2)
H15 H 0.4152 -0.1553 0.0693
H16 H 0.396(2) 0.0264(15) -0.142(2)
Ni1F Ni 0.24411(2) 0.29372(3) -0.00169(2)
O3F O 0.18502(13) -0.22607(16) -0.09577(11)
N1F N 0.26869(14) -0.36802(18) -0.01818(13)
loop_
_geom_bond_atom_site_label_1
_geom_bond_atom_site_label_2
_geom_bond_site_symmetry_1
_geom_bond_site_symmetry_2
Ni1 O1 1_555 1_555
O1 C1 1_555 1_555
O2 C1 1_555 1_555
O3 C4 1_555 1_555
O4 C4 1_555 1_555
O5 C11 1_555 1_555
N1 C3 1_555 1_555
N2 Ni1 1_555 1_555
N3 Ni1 1_555 1_555
N4 Ni1 1_555 1_555
C1 C2 1_555 1_555
C2 N2 1_555 1_555
C3 C2 1_555 1_555
C4 C3 1_555 1_555
C5 N1 1_555 1_555
C6 H1 1_555 1_555
C7 C6 1_555 1_555
H2 C7 1_555 1_555
C8 C5 1_555 1_555
C9 C8 1_555 1_555
H3 C9 1_555 1_555
C10 C9 1_555 1_555
H4 C10 1_555 1_555
C11 C6 1_555 1_555
C12 O5 1_555 1_555
H5 C12 1_555 1_555
H6 C12 1_555 1_555
H7 C12 1_555 1_555
C13 N3 1_555 1_555
H8 C13 1_555 1_555
C14 C13 1_555 1_555
H9 C14 1_555 1_555
C15 C14 1_555 1_555
H10 C15 1_555 1_555
C16 C15 1_555 1_555
H11 C16 1_555 1_555
C17 N3 1_555 1_555
C18 N4 1_555 1_555
C19 C18 1_555 1_555
H12 C19 1_555 1_555
C20 C19 1_555 1_555
H13 C20 1_555 1_555
C21 C20 1_555 1_555
H14 C21 1_555 1_555
C22 N4 1_555 1_555
H15 C22 1_555 1_555
H16 O2 1_555 1_555
Ni1F O3 1_555 1_555
O3F Ni1 1_555 1_555
N1F Ni1 1_555 1_555
N1 Ni1F 1_555 1_555
N2 C5 1_555 1_555
C7 C8 1_555 1_555
C10 C11 1_555 1_555
C16 C17 1_555 1_555
C17 C18 1_555 1_555
C21 C22 1_555 1_555

#END
