
#######################################################################
#
#                 Cambridge Crystallographic Data Centre
#                                CCDC 
#
#######################################################################
#
# If this CIF has been generated from an entry in the Cambridge 
# Structural Database, then it will include bibliographic, chemical, 
# crystal, experimental, refinement or atomic coordinate data resulting 
# from the CCDC's data processing and validation procedures.
#
#######################################################################

data_DEGFOM
_symmetry_cell_setting           monoclinic
_symmetry_space_group_name_H-M   'P 21/n'
_symmetry_Int_Tables_number      14
_space_group_name_Hall           '-P 2yn'
loop_
_symmetry_equiv_pos_site_id
_symmetry_equiv_pos_as_xyz
1 x,y,z
2 1/2-x,1/2+y,1/2-z
3 -x,-y,-z
4 1/2+x,1/2-y,1/2+z
_cell_length_a                   9.8776(8)
_cell_length_b                   12.6175(10)
_cell_length_c                   11.1748(9)
_cell_angle_alpha                90
_cell_angle_beta                 114.2000(10)
_cell_angle_gamma                90
_cell_volume                     1270.33
loop_
_atom_site_label
_atom_site_type_symbol
_atom_site_fract_x
_atom_site_fract_y
_atom_site_fract_z
Mn1 Mn 1.0000 0.0000 0.5000
O1 O 1.22158(15) 0.04528(11) 0.52171(13)
O2 O 1.41454(16) 0.14897(12) 0.63091(15)
N1 N 1.10243(16) 0.07624(12) 0.70207(14)
N2 N 1.16402(18) 0.19481(13) 0.86106(15)
O3 O 1.39220(16) 0.34612(11) 0.94100(14)
O4 O 1.48294(17) 0.28184(13) 0.80536(17)
C1 C 0.9428(2) 0.08401(15) 0.82657(17)
C2 C 1.2920(2) 0.10613(15) 0.61397(18)
C3 C 1.0673(2) 0.11743(15) 0.79605(17)
C4 C 1.2270(2) 0.12992(14) 0.71007(17)
C5 C 1.2669(2) 0.20397(15) 0.80848(18)
C6 C 1.3873(2) 0.28238(15) 0.85559(19)
C7 C 0.7550(2) -0.04514(18) 0.8080(2)
H1 H 0.7099 -0.1101 0.7770
O5 O 0.58515(19) -0.00304(14) 0.90939(19)
C8 C 0.8749(2) -0.01268(16) 0.7829(2)
H2 H 0.9104 -0.0569 0.7357
C9 C 0.8892(2) 0.14857(18) 0.8990(2)
H3 H 0.9338 0.2138 0.9298
C10 C 0.7031(2) 0.01972(18) 0.8793(2)
C11 C 0.7714(3) 0.1164(2) 0.9250(2)
H4 H 0.7370 0.1599 0.9737
C12 C 0.4993(3) -0.0942(2) 0.8517(3)
H5 H 0.4643 -0.0901 0.7580
H6 H 0.4162 -0.0979 0.8751
H7 H 0.5595 -0.1565 0.8829
H8 H 1.159(2) 0.2381(18) 0.918(2)
H11 H 1.461(4) 0.223(3) 0.730(4)
Mn1A Mn 1.5000 0.5000 1.0000
Mn1A_2 Mn 0.5000 0.5000 0.0000
O1C O 0.72158(15) 0.45472(11) 0.02171(13)
O1B O 0.77842(15) -0.04528(11) 0.47829(13)
O2C O 0.91454(16) 0.35103(12) 0.13091(15)
N1C N 0.60243(16) 0.42376(12) 0.20207(14)
N1B N 0.89757(16) -0.07624(12) 0.29793(14)
N2C N 0.66402(18) 0.30519(13) 0.36106(15)
O3C O 0.89220(16) 0.15388(11) 0.44100(14)
O3A O 1.10780(16) -0.15388(11) 0.55900(14)
O4C O 0.98294(17) 0.21816(13) 0.30536(17)
C1C C 0.4428(2) 0.41599(15) 0.32657(17)
C2C C 0.7920(2) 0.39387(15) 0.11397(18)
C3C C 0.5673(2) 0.38257(15) 0.29605(17)
C4C C 0.7270(2) 0.37008(14) 0.21007(17)
C5C C 0.7669(2) 0.29603(15) 0.30848(18)
C6C C 0.8873(2) 0.21762(15) 0.35559(19)
C7C C 0.2550(2) 0.54514(18) 0.3080(2)
H1C H 0.2099 0.6101 0.2770
O5C O 0.08515(19) 0.50304(14) 0.40939(19)
C8C C 0.3749(2) 0.51268(16) 0.2829(2)
H2C H 0.4104 0.5569 0.2357
C9C C 0.3892(2) 0.35143(18) 0.3990(2)
H3C H 0.4338 0.2862 0.4298
C10C C 0.2031(2) 0.48028(18) 0.3793(2)
C11C C 0.2714(3) 0.3836(2) 0.4250(2)
H4C H 0.2370 0.3401 0.4737
C12C C -0.0007(3) 0.5942(2) 0.3517(3)
H5C H -0.0357 0.5901 0.2580
H6C H -0.0838 0.5979 0.3751
H7C H 0.0595 0.6565 0.3829
H8C H 0.659(2) 0.2619(18) 0.418(2)
H11C H 0.961(4) 0.277(3) 0.230(4)
O6 O 0.6277(2) 0.14669(15) 0.5190(2)
H9 H 0.683(2) 0.0944(15) 0.536(3)
H10 H 0.573(2) 0.134(2) 0.558(3)
loop_
_geom_bond_atom_site_label_1
_geom_bond_atom_site_label_2
_geom_bond_site_symmetry_1
_geom_bond_site_symmetry_2
Mn1 O1 1_555 1_555
O1 C2 1_555 1_555
O2 C2 1_555 1_555
N1 Mn1 1_555 1_555
N2 C3 1_555 1_555
O3 C6 1_555 1_555
O4 C6 1_555 1_555
C1 C3 1_555 1_555
C2 C4 1_555 1_555
C3 N1 1_555 1_555
C4 N1 1_555 1_555
C5 N2 1_555 1_555
C6 C5 1_555 1_555
C7 H1 1_555 1_555
O5 C10 1_555 1_555
C8 C1 1_555 1_555
H2 C8 1_555 1_555
C9 C1 1_555 1_555
H3 C9 1_555 1_555
C10 C7 1_555 1_555
C11 C9 1_555 1_555
H4 C11 1_555 1_555
C12 O5 1_555 1_555
H5 C12 1_555 1_555
H6 C12 1_555 1_555
H7 C12 1_555 1_555
O6 H9 1_555 1_555
H8 N2 1_555 1_555
H10 O6 1_555 1_555
H11 O4 1_555 1_555
Mn1A O3 1_555 1_555
Mn1A_2 O1C 1_555 1_555
O1C C2C 1_555 1_555
O1B Mn1 1_555 1_555
O2C C2C 1_555 1_555
N1C Mn1A_2 1_555 1_555
N1B Mn1 1_555 1_555
N2C C3C 1_555 1_555
O3C Mn1 1_555 1_555
O3A Mn1 1_555 1_555
O4C C6C 1_555 1_555
C1C C3C 1_555 1_555
C2C C4C 1_555 1_555
C3C N1C 1_555 1_555
C4C N1C 1_555 1_555
C5C N2C 1_555 1_555
C6C O3C 1_555 1_555
C7C H1C 1_555 1_555
O5C C10C 1_555 1_555
C8C C1C 1_555 1_555
H2C C8C 1_555 1_555
C9C C1C 1_555 1_555
H3C C9C 1_555 1_555
C10C C7C 1_555 1_555
C11C C9C 1_555 1_555
H4C C11C 1_555 1_555
C12C O5C 1_555 1_555
H5C C12C 1_555 1_555
H6C C12C 1_555 1_555
H7C C12C 1_555 1_555
H8C N2C 1_555 1_555
H11C O4C 1_555 1_555
C4 C5 1_555 1_555
C7 C8 1_555 1_555
C10 C11 1_555 1_555
C4C C5C 1_555 1_555
C5C C6C 1_555 1_555
C7C C8C 1_555 1_555
C10C C11C 1_555 1_555

#END
