
#######################################################################
#
#                 Cambridge Crystallographic Data Centre
#                                CCDC 
#
#######################################################################
#
# If this CIF has been generated from an entry in the Cambridge 
# Structural Database, then it will include bibliographic, chemical, 
# crystal, experimental, refinement or atomic coordinate data resulting 
# from the CCDC's data processing and validation procedures.
#
#######################################################################

data_DEGGON
_symmetry_cell_setting           triclinic
_symmetry_space_group_name_H-M   'P -1'
_symmetry_Int_Tables_number      2
_space_group_name_Hall           '-P 1'
loop_
_symmetry_equiv_pos_site_id
_symmetry_equiv_pos_as_xyz
1 x,y,z
2 -x,-y,-z
_cell_length_a                   7.9075(16)
_cell_length_b                   8.7088(17)
_cell_length_c                   9.1190(18)
_cell_angle_alpha                91.47(3)
_cell_angle_beta                 103.46(3)
_cell_angle_gamma                109.95(3)
_cell_volume                     570.275
loop_
_atom_site_label
_atom_site_type_symbol
_atom_site_fract_x
_atom_site_fract_y
_atom_site_fract_z
N1 N 0.7596(9) 0.1609(7) 0.3170(7)
N2 N 0.6153(8) 0.2135(7) 0.2760(6)
N3 N 0.3475(9) 0.3229(7) 0.1370(7)
C1 C 0.8205(12) 0.1306(10) 0.1962(10)
H1 H 0.9172 0.0924 0.1976
C2 C 0.7121(11) 0.1672(9) 0.0712(8)
H2 H 0.7213 0.1599 -0.0284
C3 C 0.5856(10) 0.2174(9) 0.1242(8)
C4 C 0.4376(10) 0.2734(9) 0.0474(8)
C5 C 0.3901(11) 0.2752(9) -0.1123(8)
H3 H 0.4559 0.2446 -0.1727
C6 C 0.2440(13) 0.3234(11) -0.1743(10)
H4 H 0.2078 0.3240 -0.2788
C7 C 0.1499(12) 0.3711(11) -0.0830(9)
H5 H 0.0498 0.4030 -0.1250
C8 C 0.2068(12) 0.3706(10) 0.0710(9)
H6 H 0.1447 0.4051 0.1324
C9 C 0.8297(10) 0.1412(10) 0.4752(8)
H7 H 0.8188 0.2260 0.5396
H8 H 0.9608 0.1573 0.4939
C10 C 0.7273(11) -0.0270(10) 0.5197(9)
O1 O 0.5843(8) -0.1276(6) 0.4326(6)
O2 O 0.7996(8) -0.0546(7) 0.6501(6)
Mn1 Mn 0.43890(17) 0.30069(14) 0.38825(12)
Cl1 Cl 0.7331(3) 0.5232(2) 0.5473(2)
O1A O 0.4157(8) 0.1276(6) 0.5674(6)
O2A O 0.2004(8) 0.0546(7) 0.3499(6)
Mn1A Mn 0.56110(17) -0.30069(14) 0.61175(12)
Mn1A_2 Mn 0.56110(17) 0.69931(14) 0.61175(12)
Cl1A Cl 0.2669(3) 0.4768(2) 0.4527(2)
loop_
_geom_bond_atom_site_label_1
_geom_bond_atom_site_label_2
_geom_bond_site_symmetry_1
_geom_bond_site_symmetry_2
N1 N2 1_555 1_555
N2 C3 1_555 1_555
N3 C4 1_555 1_555
C1 N1 1_555 1_555
H1 C1 1_555 1_555
C2 C1 1_555 1_555
H2 C2 1_555 1_555
C3 C2 1_555 1_555
C4 C3 1_555 1_555
C5 C4 1_555 1_555
H3 C5 1_555 1_555
C6 C5 1_555 1_555
H4 C6 1_555 1_555
C7 C6 1_555 1_555
H5 C7 1_555 1_555
C8 N3 1_555 1_555
H6 C8 1_555 1_555
C9 N1 1_555 1_555
H7 C9 1_555 1_555
H8 C9 1_555 1_555
C10 C9 1_555 1_555
O1 C10 1_555 1_555
O2 C10 1_555 1_555
Mn1 N2 1_555 1_555
Cl1 Mn1 1_555 1_555
O1A Mn1 1_555 1_555
O2A Mn1 1_555 1_555
Mn1A O1 1_555 1_555
Mn1A_2 Cl1 1_555 1_555
Cl1A Mn1 1_555 1_555
N3 Mn1 1_555 1_555
C7 C8 1_555 1_555
O2 Mn1A 1_555 1_555
Mn1A_2 Cl1A 1_555 1_555

#END
