
#######################################################################
#
#                 Cambridge Crystallographic Data Centre
#                                CCDC 
#
#######################################################################
#
# If this CIF has been generated from an entry in the Cambridge 
# Structural Database, then it will include bibliographic, chemical, 
# crystal, experimental, refinement or atomic coordinate data resulting 
# from the CCDC's data processing and validation procedures.
#
#######################################################################

data_DEGGED
_symmetry_cell_setting           triclinic
_symmetry_space_group_name_H-M   'P -1'
_symmetry_Int_Tables_number      2
_space_group_name_Hall           '-P 1'
loop_
_symmetry_equiv_pos_site_id
_symmetry_equiv_pos_as_xyz
1 x,y,z
2 -x,-y,-z
_cell_length_a                   7.9630(16)
_cell_length_b                   8.7290(17)
_cell_length_c                   9.0724(18)
_cell_angle_alpha                88.39(3)
_cell_angle_beta                 75.96(3)
_cell_angle_gamma                70.43(3)
_cell_volume                     575.459
loop_
_atom_site_label
_atom_site_type_symbol
_atom_site_fract_x
_atom_site_fract_y
_atom_site_fract_z
N1 N 0.6551(7) 0.3243(6) 0.6182(5)
N2 N 0.3754(6) 0.2211(6) 0.7613(5)
N3 N 0.2319(7) 0.1679(6) 0.8052(6)
C1 C 0.7972(9) 0.3719(9) 0.5486(8)
H1 H 0.8593 0.4059 0.6085
C2 C 0.8553(9) 0.3728(9) 0.3929(8)
H2 H 0.9558 0.4045 0.3485
C3 C 0.7607(10) 0.3256(9) 0.3044(7)
H3 H 0.7954 0.3281 0.1990
C4 C 0.6153(10) 0.2750(8) 0.3714(7)
H4 H 0.5515 0.2415 0.3129
C5 C 0.5667(8) 0.2754(7) 0.5291(6)
C6 C 0.4131(8) 0.2220(7) 0.6112(6)
C7 C 0.2920(9) 0.1664(8) 0.5556(7)
H5 H 0.2891 0.1543 0.4548
C8 C 0.1796(9) 0.1341(8) 0.6833(8)
H6 H 0.0835 0.0954 0.6855
C9 C 0.1606(9) 0.1463(8) 0.9627(7)
H7 H 0.0318 0.1584 0.9786
H8 H 0.1673 0.2325 1.0237
C10 C 0.2586(9) -0.0161(8) 1.0197(7)
O1 O 0.4006(7) -0.1133(5) 0.9339(5)
O2 O 0.1903(6) -0.0463(6) 1.1508(5)
Cd1 Cd 0.55989(6) 0.30343(5) 0.88152(4)
Cl1 Cl 0.7320(2) 0.4925(2) 0.93160(18)
O1A O 0.5994(7) 0.1133(5) 1.0661(5)
O2A O 0.8097(6) 0.0463(6) 0.8492(5)
Cd1A Cd 0.44011(6) -0.30343(5) 1.11848(4)
Cd1A_2 Cd 0.44011(6) 0.69657(5) 1.11848(4)
Cl1A Cl 0.2680(2) 0.5075(2) 1.06840(18)
loop_
_geom_bond_atom_site_label_1
_geom_bond_atom_site_label_2
_geom_bond_site_symmetry_1
_geom_bond_site_symmetry_2
N1 C1 1_555 1_555
N2 N3 1_555 1_555
N3 C8 1_555 1_555
C1 H1 1_555 1_555
C2 C1 1_555 1_555
H2 C2 1_555 1_555
C3 C2 1_555 1_555
H3 C3 1_555 1_555
C4 C3 1_555 1_555
H4 C4 1_555 1_555
C5 N1 1_555 1_555
C6 N2 1_555 1_555
C7 C6 1_555 1_555
H5 C7 1_555 1_555
C8 C7 1_555 1_555
H6 C8 1_555 1_555
C9 N3 1_555 1_555
H7 C9 1_555 1_555
H8 C9 1_555 1_555
C10 C9 1_555 1_555
O1 C10 1_555 1_555
O2 C10 1_555 1_555
Cd1 N1 1_555 1_555
Cl1 Cd1 1_555 1_555
O1A Cd1 1_555 1_555
O2A Cd1 1_555 1_555
Cd1A O1 1_555 1_555
Cd1A_2 Cl1 1_555 1_555
Cl1A Cd1 1_555 1_555
N2 Cd1 1_555 1_555
C4 C5 1_555 1_555
C5 C6 1_555 1_555
O2 Cd1A 1_555 1_555
Cd1A_2 Cl1A 1_555 1_555

#END
