
#######################################################################
#
#                 Cambridge Crystallographic Data Centre
#                                CCDC 
#
#######################################################################
#
# If this CIF has been generated from an entry in the Cambridge 
# Structural Database, then it will include bibliographic, chemical, 
# crystal, experimental, refinement or atomic coordinate data resulting 
# from the CCDC's data processing and validation procedures.
#
#######################################################################

data_DEGJUW
_symmetry_cell_setting           monoclinic
_symmetry_space_group_name_H-M   'C c'
_symmetry_Int_Tables_number      9
_space_group_name_Hall           'C -2yc'
loop_
_symmetry_equiv_pos_site_id
_symmetry_equiv_pos_as_xyz
1 x,y,z
2 x,-y,1/2+z
3 1/2+x,1/2+y,z
4 1/2+x,1/2-y,1/2+z
_cell_length_a                   4.1429(3)
_cell_length_b                   18.7268(12)
_cell_length_c                   13.6862(9)
_cell_angle_alpha                90
_cell_angle_beta                 97.3010(10)
_cell_angle_gamma                90
_cell_volume                     1053.21
loop_
_atom_site_label
_atom_site_type_symbol
_atom_site_fract_x
_atom_site_fract_y
_atom_site_fract_z
Cu1 Cu 1.09558(13) 1.00632(3) 0.63696(4)
Cu2 Cu 0.61944(13) 0.98477(3) 0.93505(4)
I1 I 1.08772(5) 1.019960(14) 0.82841(2)
I2 I 1.56031(5) 0.927530(14) 0.58876(2)
N1 N 0.7608(9) 1.1095(2) 0.4982(3)
N2 N 0.9803(9) 1.1035(2) 0.5786(3)
N3 N 1.0466(9) 1.1682(2) 0.6159(3)
N4 N 0.8709(9) 1.2173(2) 0.5610(3)
N5 N 0.0381(9) 1.2754(2) 0.2684(3)
C1 C 0.7008(11) 1.1798(2) 0.4886(3)
C2 C 0.4738(10) 1.2125(2) 0.4101(3)
C3 C 0.3567(10) 1.1752(2) 0.3242(3)
H1 H 0.4254 1.1287 0.3147
C4 C 0.1390(11) 1.2080(2) 0.2540(3)
H2 H 0.0610 1.1837 0.1965
C5 C 0.3709(11) 1.2829(2) 0.4210(3)
H3 H 0.4508 1.3092 0.4765
C6 C 0.1500(11) 1.3129(2) 0.3488(3)
H4 H 0.0783 1.3594 0.3560
H5 H -0.113(17) 1.300(4) 0.225(5)
Cu1_2 Cu 2.09558(13) 1.00632(3) 0.63696(4)
Cu2_2 Cu 1.61944(13) 0.98477(3) 0.93505(4)
Cu2A Cu 1.61944(13) 1.01523(3) 0.43505(4)
Cu2A_2 Cu 0.61944(13) 1.01523(3) 0.43505(4)
I1_2 I 0.08772(5) 1.019960(14) 0.82841(2)
I2_2 I 0.56031(5) 0.927530(14) 0.58876(2)
I2A I 0.56031(5) 1.072470(14) 1.08876(2)
N1A N 0.7608(9) 0.8905(2) 0.9982(3)
loop_
_geom_bond_atom_site_label_1
_geom_bond_atom_site_label_2
_geom_bond_site_symmetry_1
_geom_bond_site_symmetry_2
Cu1 I1 1_555 1_555
Cu2 I1 1_555 1_555
I1 Cu2_2 1_555 1_555
I2 Cu1 1_555 1_555
N1 N2 1_555 1_555
N2 Cu1 1_555 1_555
N3 N2 1_555 1_555
N4 N3 1_555 1_555
N5 C4 1_555 1_555
C1 N1 1_555 1_555
C2 C1 1_555 1_555
C3 C2 1_555 1_555
H1 C3 1_555 1_555
C4 C3 1_555 1_555
H2 C4 1_555 1_555
C5 C2 1_555 1_555
H3 C5 1_555 1_555
C6 N5 1_555 1_555
H4 C6 1_555 1_555
H5 N5 1_555 1_555
Cu1_2 I2 1_555 1_555
Cu2A I2 1_555 1_555
Cu2A_2 N1 1_555 1_555
I1_2 Cu2 1_555 1_555
I2_2 Cu1 1_555 1_555
I2A Cu2 1_555 1_555
N1A Cu2 1_555 1_555
N4 C1 1_555 1_555
C5 C6 1_555 1_555
Cu2A_2 I2_2 1_555 1_555

#END
