
#######################################################################
#
#                 Cambridge Crystallographic Data Centre
#                                CCDC 
#
#######################################################################
#
# If this CIF has been generated from an entry in the Cambridge 
# Structural Database, then it will include bibliographic, chemical, 
# crystal, experimental, refinement or atomic coordinate data resulting 
# from the CCDC's data processing and validation procedures.
#
#######################################################################

data_DEGJOP
_symmetry_cell_setting           triclinic
_symmetry_space_group_name_H-M   'P -1'
_symmetry_Int_Tables_number      2
_space_group_name_Hall           '-P 1'
loop_
_symmetry_equiv_pos_site_id
_symmetry_equiv_pos_as_xyz
1 x,y,z
2 -x,-y,-z
_cell_length_a                   7.6155(15)
_cell_length_b                   9.4568(19)
_cell_length_c                   16.227(3)
_cell_angle_alpha                103.52(3)
_cell_angle_beta                 97.15(3)
_cell_angle_gamma                102.04(3)
_cell_volume                     1092.66
loop_
_atom_site_label
_atom_site_type_symbol
_atom_site_fract_x
_atom_site_fract_y
_atom_site_fract_z
Hg1 Hg 0.84854(2) 0.69522(2) 0.735366(11)
Br1 Br 0.95417(7) 0.64024(6) 0.59189(3)
Br2 Br 0.88398(6) 0.54565(5) 0.84318(3)
S1 S 1.00986(14) 0.97243(12) 0.82465(7)
S2 S 1.50682(12) 1.70527(11) 0.69309(6)
C1 C 1.3347(6) 1.1863(6) 0.9903(3)
H1 H 1.2244 1.1788 1.0099
C2 C 1.4736(8) 1.3130(6) 1.0254(3)
H2 H 1.4569 1.3908 1.0683
C3 C 1.6361(8) 1.3251(7) 0.9974(4)
H3 H 1.7294 1.4118 1.0207
C4 C 1.6621(7) 1.2117(7) 0.9360(4)
H4 H 1.7737 1.2199 0.9176
C5 C 1.5235(7) 1.0836(6) 0.9005(3)
H5 H 1.5427 1.0054 0.8587
C6 C 1.3565(6) 1.0706(5) 0.9265(3)
C7 C 1.2046(7) 0.9322(5) 0.8853(3)
H6 H 1.1637 0.8874 0.9298
H7 H 1.2510 0.8599 0.8467
C8 C 1.1069(5) 1.0519(4) 0.7447(3)
H8 H 1.2034 1.0046 0.7283
H9 H 1.0133 1.0284 0.6938
C9 C 1.1841(5) 1.2201(4) 0.7745(3)
H10 H 1.2850 1.2438 0.8223
H11 H 1.0907 1.2677 0.7949
C10 C 1.2502(5) 1.2821(4) 0.7027(3)
H12 H 1.1473 1.2635 0.6565
H13 H 1.3371 1.2291 0.6798
C11 C 1.3399(5) 1.4494(5) 0.7318(3)
H14 H 1.2566 1.5028 0.7582
H15 H 1.4488 1.4681 0.7747
C12 C 1.3904(5) 1.5069(4) 0.6568(3)
H16 H 1.2810 1.4925 0.6151
H17 H 1.4695 1.4507 0.6288
C13 C 1.5058(5) 1.7458(5) 0.5891(3)
H18 H 1.5617 1.6771 0.5533
H19 H 1.3804 1.7290 0.5608
C14 C 1.6067(5) 1.9049(4) 0.5966(2)
C15 C 1.6002(6) 2.0253(5) 0.6608(3)
H20 H 1.5359 2.0099 0.7044
C16 C 1.6877(6) 2.1699(5) 0.6620(4)
H21 H 1.6832 2.2507 0.7065
C17 C 1.7804(6) 2.1933(6) 0.5978(4)
H22 H 1.8371 2.2904 0.5977
C18 C 1.7898(6) 2.0753(6) 0.5343(4)
H23 H 1.8534 2.0914 0.4906
C19 C 1.7059(5) 1.9316(5) 0.5339(3)
H24 H 1.7161 1.8512 0.4908
Hg1_2 Hg 1.84854(2) 1.69522(2) 0.735366(11)
S2_2 S 0.50682(12) 0.70527(11) 0.69309(6)
loop_
_geom_bond_atom_site_label_1
_geom_bond_atom_site_label_2
_geom_bond_site_symmetry_1
_geom_bond_site_symmetry_2
Hg1 Br1 1_555 1_555
Br2 Hg1 1_555 1_555
S1 Hg1 1_555 1_555
S2 C12 1_555 1_555
C1 H1 1_555 1_555
C2 C1 1_555 1_555
H2 C2 1_555 1_555
C3 C2 1_555 1_555
H3 C3 1_555 1_555
C4 C3 1_555 1_555
H4 C4 1_555 1_555
C5 C4 1_555 1_555
H5 C5 1_555 1_555
C6 C1 1_555 1_555
C7 S1 1_555 1_555
H6 C7 1_555 1_555
H7 C7 1_555 1_555
C8 S1 1_555 1_555
H8 C8 1_555 1_555
H9 C8 1_555 1_555
C9 C8 1_555 1_555
H10 C9 1_555 1_555
H11 C9 1_555 1_555
C10 C9 1_555 1_555
H12 C10 1_555 1_555
H13 C10 1_555 1_555
C11 C10 1_555 1_555
H14 C11 1_555 1_555
H15 C11 1_555 1_555
C12 C11 1_555 1_555
H16 C12 1_555 1_555
H17 C12 1_555 1_555
C13 S2 1_555 1_555
H18 C13 1_555 1_555
H19 C13 1_555 1_555
C14 C13 1_555 1_555
C15 C14 1_555 1_555
H20 C15 1_555 1_555
C16 C15 1_555 1_555
H21 C16 1_555 1_555
C17 C16 1_555 1_555
H22 C17 1_555 1_555
C18 C17 1_555 1_555
H23 C18 1_555 1_555
C19 C14 1_555 1_555
H24 C19 1_555 1_555
Hg1_2 S2 1_555 1_555
S2_2 Hg1 1_555 1_555
C5 C6 1_555 1_555
C6 C7 1_555 1_555
C18 C19 1_555 1_555

#END
