
#######################################################################
#
#                 Cambridge Crystallographic Data Centre
#                                CCDC 
#
#######################################################################
#
# If this CIF has been generated from an entry in the Cambridge 
# Structural Database, then it will include bibliographic, chemical, 
# crystal, experimental, refinement or atomic coordinate data resulting 
# from the CCDC's data processing and validation procedures.
#
#######################################################################

data_DEGJUV
_symmetry_cell_setting           monoclinic
_symmetry_space_group_name_H-M   'C 2/c'
_symmetry_Int_Tables_number      15
_space_group_name_Hall           '-C 2yn'
loop_
_symmetry_equiv_pos_site_id
_symmetry_equiv_pos_as_xyz
1 x,y,z
2 1/2+x,1/2+y,z
3 -x,y,1/2-z
4 1/2-x,1/2+y,1/2-z
5 -x,-y,-z
6 1/2-x,1/2-y,-z
7 x,-y,1/2+z
8 1/2+x,1/2-y,1/2+z
_cell_length_a                   18.4346(12)
_cell_length_b                   11.6009(7)
_cell_length_c                   8.3914(5)
_cell_angle_alpha                90
_cell_angle_beta                 95.364(5)
_cell_angle_gamma                90
_cell_volume                     1786.71
loop_
_atom_site_label
_atom_site_type_symbol
_atom_site_fract_x
_atom_site_fract_y
_atom_site_fract_z
Ba1 Ba 0.5000 0.43825(2) 0.7500
C1 C 0.40788(14) 0.6580(3) 0.6228(3)
C2 C 0.37739(14) 0.7761(3) 0.5852(3)
C3 C 0.41545(19) 0.8513(3) 0.4956(4)
H1 H 0.4585 0.8274 0.4563
C4 C 0.3901(3) 0.9607(4) 0.4647(5)
H2 H 0.4164 1.0110 0.4058
C5 C 0.3261(3) 0.9967(4) 0.5201(5)
H3 H 0.3091 1.0711 0.4984
C6 C 0.2872(2) 0.9233(3) 0.6071(5)
H4 H 0.2436 0.9478 0.6433
C7 C 0.31212(15) 0.8129(3) 0.6417(3)
C8 C 0.26711(16) 0.7366(4) 0.7316(4)
H5 H 0.2749 0.6575 0.7281
O1 O 0.43864(11) 0.6059(2) 0.5180(2)
O2 O 0.40261(14) 0.6179(2) 0.7598(3)
O3 O 0.22086(16) 0.7726(3) 0.8091(4)
O4 O 0.58803(14) 0.2923(3) 0.9319(3)
H6 H 0.6267(13) 0.288(4) 0.899(4)
H7 H 0.5933(18) 0.319(4) 1.021(3)
Ba1F Ba 0.5000 0.56175(2) 0.2500
Ba1F_2 Ba 0.5000 0.56175(2) 1.2500
C1F C 0.40788(14) 0.3420(3) 1.1228(3)
C2F C 0.37739(14) 0.2239(3) 1.0852(3)
C3F C 0.41545(19) 0.1487(3) 0.9956(4)
H1F H 0.4585 0.1726 0.9563
C4F C 0.3901(3) 0.0393(4) 0.9647(5)
H2F H 0.4164 -0.0110 0.9058
C5F C 0.3261(3) 0.0033(4) 1.0201(5)
H3F H 0.3091 -0.0711 0.9984
C6F C 0.2872(2) 0.0767(3) 1.1071(5)
H4F H 0.2436 0.0522 1.1433
C7F C 0.31212(15) 0.1871(3) 1.1417(3)
C8F C 0.26711(16) 0.2634(4) 1.2316(4)
H5F H 0.2749 0.3425 1.2281
O1F O 0.43864(11) 0.3941(2) 1.0180(2)
O1D O 0.56136(11) 0.3941(2) 0.4820(2)
O1B O 0.56136(11) 0.6059(2) 0.9820(2)
O2F O 0.40261(14) 0.3821(2) 1.2598(3)
O2B O 0.59739(14) 0.6179(2) 0.7402(3)
O3F O 0.22086(16) 0.2274(3) 1.3091(4)
O4B O 0.41197(14) 0.2923(3) 0.5681(3)
H6B H 0.3733(13) 0.288(4) 0.601(4)
H7B H 0.4067(18) 0.319(4) 0.479(3)
loop_
_geom_bond_atom_site_label_1
_geom_bond_atom_site_label_2
_geom_bond_site_symmetry_1
_geom_bond_site_symmetry_2
Ba1 O1 1_555 1_555
C1 C2 1_555 1_555
C2 C3 1_555 1_555
C3 H1 1_555 1_555
C4 C3 1_555 1_555
H2 C4 1_555 1_555
C5 C4 1_555 1_555
H3 C5 1_555 1_555
C6 C5 1_555 1_555
H4 C6 1_555 1_555
C7 C2 1_555 1_555
C8 C7 1_555 1_555
H5 C8 1_555 1_555
O1 C1 1_555 1_555
O2 Ba1 1_555 1_555
O3 C8 1_555 1_555
O4 Ba1 1_555 1_555
H6 O4 1_555 1_555
H7 O4 1_555 1_555
Ba1F O1 1_555 1_555
Ba1F_2 O1F 1_555 1_555
C1F C2F 1_555 1_555
C2F C3F 1_555 1_555
C3F H1F 1_555 1_555
C4F C3F 1_555 1_555
H2F C4F 1_555 1_555
C5F C4F 1_555 1_555
H3F C5F 1_555 1_555
C6F C5F 1_555 1_555
H4F C6F 1_555 1_555
C7F C2F 1_555 1_555
C8F C7F 1_555 1_555
H5F C8F 1_555 1_555
O1F Ba1 1_555 1_555
O1D Ba1 1_555 1_555
O1B Ba1 1_555 1_555
O2F Ba1F_2 1_555 1_555
O2B Ba1 1_555 1_555
O3F C8F 1_555 1_555
O4B Ba1 1_555 1_555
H6B O4B 1_555 1_555
H7B O4B 1_555 1_555
C1 O2 1_555 1_555
C6 C7 1_555 1_555
Ba1F O1D 1_555 1_555
Ba1F_2 O1B 1_555 1_555
C1F O1F 1_555 1_555
C1F O2F 1_555 1_555
C6F C7F 1_555 1_555

#END
