
#######################################################################
#
#                 Cambridge Crystallographic Data Centre
#                                CCDC 
#
#######################################################################
#
# If this CIF has been generated from an entry in the Cambridge 
# Structural Database, then it will include bibliographic, chemical, 
# crystal, experimental, refinement or atomic coordinate data resulting 
# from the CCDC's data processing and validation procedures.
#
#######################################################################

data_DEGJOQ
_symmetry_cell_setting           monoclinic
_symmetry_space_group_name_H-M   'C 2/c'
_symmetry_Int_Tables_number      15
_space_group_name_Hall           '-C 2yn'
loop_
_symmetry_equiv_pos_site_id
_symmetry_equiv_pos_as_xyz
1 x,y,z
2 -x,y,1/2-z
3 1/2+x,1/2+y,z
4 1/2-x,1/2+y,1/2-z
5 -x,-y,-z
6 x,-y,1/2+z
7 1/2-x,1/2-y,-z
8 1/2+x,1/2-y,1/2+z
_cell_length_a                   9.6135(11)
_cell_length_b                   19.653(2)
_cell_length_c                   6.9098(8)
_cell_angle_alpha                90
_cell_angle_beta                 133.158(2)
_cell_angle_gamma                90
_cell_volume                     952.321
loop_
_atom_site_label
_atom_site_type_symbol
_atom_site_fract_x
_atom_site_fract_y
_atom_site_fract_z
Cu1 Cu 0.0000 0.0000 1.0000
Cl1 Cl 0.24695(10) 0.03743(4) 1.42655(13)
N1 N 0.0068(4) 0.08618(13) 0.8528(5)
N2 N 0.0126(4) 0.14932(13) 0.9223(5)
N3 N 0.0000 0.3997(2) 0.7500
C1 C 0.0000 0.1874(2) 0.7500
C2 C 0.0000 0.2617(2) 0.7500
C3 C 0.0466(5) 0.29755(17) 0.9609(7)
C4 C 0.0474(5) 0.36772(18) 0.9576(8)
H1 H 0.075(6) 0.277(2) 1.090(8)
H2 H 0.067(7) 0.394(2) 1.080(9)
H3 H 0.0000 0.435(6) 0.7500
Cu1A Cu 0.0000 0.0000 1.5000
Cu1A_2 Cu 0.0000 0.0000 0.5000
Cl1A Cl -0.24695(10) 0.03743(4) 1.07345(13)
Cl1D Cl -0.24695(10) -0.03743(4) 0.57345(13)
Cl1E Cl 0.24695(10) -0.03743(4) 0.92655(13)
N1A N -0.0068(4) 0.08618(13) 0.6472(5)
N1D N -0.0068(4) -0.08618(13) 1.1472(5)
N2A N -0.0126(4) 0.14932(13) 0.5777(5)
C3A C -0.0466(5) 0.29755(17) 0.5391(7)
C4A C -0.0474(5) 0.36772(18) 0.5424(8)
H1A H -0.075(6) 0.277(2) 0.410(8)
H2A H -0.067(7) 0.394(2) 0.420(9)
O1 O 0.8385(18) 0.2024(6) 0.085(2)
loop_
_geom_bond_atom_site_label_1
_geom_bond_atom_site_label_2
_geom_bond_site_symmetry_1
_geom_bond_site_symmetry_2
Cu1 Cl1 1_555 1_555
Cl1 Cu1A 1_555 1_555
N1 Cu1 1_555 1_555
N2 N1 1_555 1_555
N3 C4 1_555 1_555
C1 N2 1_555 1_555
C2 C1 1_555 1_555
C3 C2 1_555 1_555
C4 C3 1_555 1_555
H1 C3 1_555 1_555
H2 C4 1_555 1_555
H3 N3 1_555 1_555
Cu1A Cl1A 1_555 1_555
Cu1A_2 Cl1D 1_555 1_555
Cl1A Cu1 1_555 1_555
Cl1D Cu1 1_555 1_555
Cl1E Cu1 1_555 1_555
N1A N1 1_555 1_555
N1D Cu1 1_555 1_555
N2A C1 1_555 1_555
C3A C2 1_555 1_555
C4A N3 1_555 1_555
H1A C3A 1_555 1_555
H2A C4A 1_555 1_555
Cu1A_2 Cl1E 1_555 1_555
Cu1A_2 N1A 1_555 1_555
N1A N2A 1_555 1_555
C3A C4A 1_555 1_555

#END
