
#######################################################################
#
#                 Cambridge Crystallographic Data Centre
#                                CCDC 
#
#######################################################################
#
# If this CIF has been generated from an entry in the Cambridge 
# Structural Database, then it will include bibliographic, chemical, 
# crystal, experimental, refinement or atomic coordinate data resulting 
# from the CCDC's data processing and validation procedures.
#
#######################################################################

data_DEGKEH
_symmetry_cell_setting           monoclinic
_symmetry_space_group_name_H-M   'P 21/n'
_symmetry_Int_Tables_number      14
_space_group_name_Hall           '-P 2yn'
loop_
_symmetry_equiv_pos_site_id
_symmetry_equiv_pos_as_xyz
1 x,y,z
2 1/2-x,1/2+y,1/2-z
3 -x,-y,-z
4 1/2+x,1/2-y,1/2+z
_cell_length_a                   9.1850(8)
_cell_length_b                   13.4609(11)
_cell_length_c                   10.7408(9)
_cell_angle_alpha                90
_cell_angle_beta                 101.184(2)
_cell_angle_gamma                90
_cell_volume                     1302.76
loop_
_atom_site_label
_atom_site_type_symbol
_atom_site_fract_x
_atom_site_fract_y
_atom_site_fract_z
Cu1 Cu 0.22532(4) 1.00433(3) 0.58349(3)
O1 O 0.3569(3) 1.08287(16) 0.7045(2)
O2 O 0.1919(2) 0.90943(17) 0.7114(2)
N1 N 0.1202(3) 0.91034(19) 0.4505(2)
N2 N -0.0209(3) 0.90087(19) 0.4057(2)
N3 N 0.2000(3) 0.8473(2) 0.3948(3)
N4 N -0.0419(3) 0.8298(2) 0.3165(3)
N5 N 0.2074(3) 0.58741(19) 0.0520(2)
C1 C 0.1781(5) 0.8424(3) 0.9104(4)
H1 H 0.0702 0.8453 0.9033
H2 H 0.2267 0.8519 0.9992
H3 H 0.2058 0.7774 0.8809
C2 C 0.2269(4) 0.9235(3) 0.8296(3)
C3 C 0.3027(4) 1.0057(3) 0.8886(3)
H4 H 0.3150 1.0109 0.9782
C4 C 0.3618(4) 1.0810(2) 0.8238(3)
C5 C 0.4408(4) 1.1671(3) 0.8966(4)
H5 H 0.5380 1.1760 0.8733
H6 H 0.4543 1.1537 0.9878
H7 H 0.3817 1.2276 0.8762
C6 C 0.0959(4) 0.7988(2) 0.3127(3)
C7 C 0.1305(4) 0.7221(2) 0.2257(3)
C8 C 0.2746(4) 0.6863(3) 0.2384(3)
H8 H 0.3496 0.7078 0.3068
C9 C 0.3079(4) 0.6194(3) 0.1510(3)
H9 H 0.4066 0.5950 0.1615
C10 C 0.0243(4) 0.6874(2) 0.1251(3)
H10 H -0.0760 0.7086 0.1147
C11 C 0.0676(4) 0.6213(2) 0.0403(3)
H11 H -0.0050 0.5989 -0.0294
Cu1B Cu -0.22532(4) 0.99567(3) 0.41651(3)
Cu1A Cu 0.27468(4) 0.50433(3) -0.08349(3)
N2B N 0.0209(3) 1.09913(19) 0.5943(2)
N5A N 0.2926(3) 1.08741(19) 0.4480(2)
loop_
_geom_bond_atom_site_label_1
_geom_bond_atom_site_label_2
_geom_bond_site_symmetry_1
_geom_bond_site_symmetry_2
Cu1 O1 1_555 1_555
O1 C4 1_555 1_555
O2 Cu1 1_555 1_555
N1 Cu1 1_555 1_555
N2 N1 1_555 1_555
N3 N1 1_555 1_555
N4 N2 1_555 1_555
N5 C9 1_555 1_555
C1 H1 1_555 1_555
H2 C1 1_555 1_555
H3 C1 1_555 1_555
C2 O2 1_555 1_555
C3 C2 1_555 1_555
H4 C3 1_555 1_555
C4 C3 1_555 1_555
C5 C4 1_555 1_555
H5 C5 1_555 1_555
H6 C5 1_555 1_555
H7 C5 1_555 1_555
C6 N3 1_555 1_555
C7 C6 1_555 1_555
C8 C7 1_555 1_555
H8 C8 1_555 1_555
C9 C8 1_555 1_555
H9 C9 1_555 1_555
C10 C7 1_555 1_555
H10 C10 1_555 1_555
C11 N5 1_555 1_555
H11 C11 1_555 1_555
Cu1B N2 1_555 1_555
Cu1A N5 1_555 1_555
N2B Cu1 1_555 1_555
N5A Cu1 1_555 1_555
N4 C6 1_555 1_555
C1 C2 1_555 1_555
C10 C11 1_555 1_555

#END
