
#######################################################################
#
#                 Cambridge Crystallographic Data Centre
#                                CCDC 
#
#######################################################################
#
# If this CIF has been generated from an entry in the Cambridge 
# Structural Database, then it will include bibliographic, chemical, 
# crystal, experimental, refinement or atomic coordinate data resulting 
# from the CCDC's data processing and validation procedures.
#
#######################################################################

data_DEGLUY
_symmetry_cell_setting           monoclinic
_symmetry_space_group_name_H-M   'P 21/c'
_symmetry_Int_Tables_number      14
_space_group_name_Hall           '-P 2ybc'
loop_
_symmetry_equiv_pos_site_id
_symmetry_equiv_pos_as_xyz
1 x,y,z
2 -x,1/2+y,1/2-z
3 -x,-y,-z
4 x,1/2-y,1/2+z
_cell_length_a                   19.780(5)
_cell_length_b                   18.275(5)
_cell_length_c                   7.890(5)
_cell_angle_alpha                90
_cell_angle_beta                 101.197(5)
_cell_angle_gamma                90
_cell_volume                     2797.78
loop_
_atom_site_label
_atom_site_type_symbol
_atom_site_fract_x
_atom_site_fract_y
_atom_site_fract_z
Cd1 Cd 0.225659(16) 0.19908(2) 0.55053(5)
O1 O 0.21913(16) 0.19864(19) 0.8478(5)
O2 O 0.35174(18) -0.0057(2) 0.3294(5)
O3 O 0.19074(17) 0.17357(19) 1.0977(5)
O4 O 0.58320(17) 0.1996(2) 0.9627(6)
O5 O 0.14643(17) 0.03441(18) 0.9859(5)
N1 N 1.10881(19) 0.1775(2) 1.4731(6)
O6 O 0.85515(18) 0.1986(2) 1.2977(7)
C1 C 0.0366(2) -0.0041(3) 1.0196(7)
C2 C 0.1994(2) 0.1547(3) 0.9532(8)
C3 C 0.6511(2) 0.2024(3) 1.0475(8)
N2 N 0.33887(18) 0.2246(2) 0.6746(6)
O7 O 0.27074(19) 0.1000(2) 0.4503(6)
C4 C 0.9675(2) 0.1511(3) 1.3708(7)
C5 C 0.4710(2) 0.0014(3) 0.4307(7)
C6 C 0.7866(2) 0.1955(3) 1.2148(9)
C7 C 0.6852(3) 0.1372(3) 1.0615(9)
H1 H 0.6627 0.0950 1.0147
C8 C 0.0765(2) 0.0463(3) 0.9414(7)
O8 O 0.2083(3) 0.0115(3) 0.5324(7)
C9 C 0.5463(2) 0.2655(3) 0.9366(9)
H2 H 0.5679 0.2984 0.8665
H3 H 0.5461 0.2891 1.0467
C10 C 0.4740(2) 0.2492(3) 0.8474(8)
C11 C 0.4044(3) -0.0123(3) 0.4690(8)
C12 C 0.3611(3) 0.2904(3) 0.7266(9)
H4 H 0.3303 0.3293 0.7041
C13 C 0.3971(3) -0.0292(3) 0.6324(8)
H5 H 0.3536 -0.0389 0.6553
C14 C 1.0159(3) 0.1001(3) 1.3516(8)
H6 H 1.0018 0.0546 1.3052
C15 C 1.0850(3) 0.1148(3) 1.3998(8)
H7 H 1.1164 0.0795 1.3802
C16 C 1.0623(2) 0.2266(3) 1.4980(8)
H8 H 1.0778 0.2704 1.5522
C17 C -0.0266(3) 0.1057(3) 0.7986(7)
H9 H -0.0471 0.1428 0.7257
C18 C 0.1898(3) 0.0759(3) 0.8968(8)
H10 H 0.1703 0.0748 0.7741
H11 H 0.2346 0.0526 0.9136
C19 C 0.4514(3) 0.1807(3) 0.7994(9)
H12 H 0.4810 0.1409 0.8237
C20 C 0.9914(3) 0.2160(3) 1.4471(8)
H13 H 0.9607 0.2525 1.4647
C21 C 0.8920(2) 0.1343(3) 1.3108(8)
H14 H 0.8849 0.1100 1.1994
H15 H 0.8764 0.1018 1.3926
C22 C 0.2843(3) -0.0209(3) 0.3563(8)
H16 H 0.2854 -0.0673 0.4165
H17 H 0.2544 -0.0270 0.2442
C23 C 0.0459(3) 0.0994(3) 0.8332(7)
H18 H 0.0725 0.1315 0.7820
C24 C 0.7536(3) 0.1337(3) 1.1455(9)
H19 H 0.7769 0.0893 1.1547
C25 C 0.0673(3) -0.0594(3) 1.1315(7)
H20 H 0.1150 -0.0643 1.1576
C26 C 0.2520(3) 0.0358(4) 0.4572(8)
C27 C 0.4806(3) 0.0174(3) 0.2637(8)
H21 H 0.4429 0.0182 0.1724
C28 C 0.3842(3) 0.1705(3) 0.7143(9)
H22 H 0.3698 0.1231 0.6829
C29 C 0.6840(3) 0.2640(3) 1.1179(10)
H23 H 0.6605 0.3083 1.1104
C30 C 0.7522(3) 0.2604(3) 1.2005(10)
H24 H 0.7748 0.3027 1.2467
C31 C 0.4269(3) 0.3047(3) 0.8119(9)
H25 H 0.4397 0.3523 0.8457
C32 C 0.4549(3) -0.0319(3) 0.7657(8)
H26 H 0.4494 -0.0438 0.8768
Cd1B Cd -0.225659(16) -0.19908(2) 1.44947(5)
Cd1C Cd 0.225659(16) 0.30092(2) 1.05053(5)
Cd1_2 Cd 1.225659(16) 0.19908(2) 1.55053(5)
Cd1A Cd -0.225659(16) -0.30092(2) 0.94947(5)
Cd1B_2 Cd 0.774341(16) -0.19908(2) 0.44947(5)
Cd1_3 Cd -0.774341(16) 0.19908(2) -0.44947(5)
O1B O -0.21913(16) -0.19864(19) 1.1522(5)
O1C O 0.21913(16) 0.30136(19) 0.3478(5)
O1A O -0.21913(16) -0.30136(19) 1.6522(5)
O2B O 0.64826(18) 0.0057(2) 0.6706(5)
O3B O -0.19074(17) -0.17357(19) 0.9023(5)
O3C O 0.19074(17) 0.32643(19) 0.5977(5)
O3A O -0.19074(17) -0.32643(19) 1.4023(5)
O4_2 O -0.41680(17) 0.1996(2) -0.0373(6)
O5B O -0.14643(17) -0.03441(18) 1.0141(5)
N1_2 N 0.10881(19) 0.1775(2) 0.4731(6)
N1B N -0.10881(19) -0.1775(2) 1.5269(6)
O6_2 O -0.14485(18) 0.1986(2) 0.2977(7)
C1B C -0.0366(2) 0.0041(3) 0.9804(7)
C2B C -0.1994(2) -0.1547(3) 1.0468(8)
C3_2 C -0.3489(2) 0.2024(3) 0.0475(8)
N2_2 N -0.66113(18) 0.2246(2) -0.3254(6)
N2B N -0.33887(18) -0.2246(2) 1.3254(6)
O7B O 0.72926(19) -0.1000(2) 0.5497(6)
O7B_2 O -0.27074(19) -0.1000(2) 1.5497(6)
C4_2 C -0.0325(2) 0.1511(3) 0.3708(7)
C5B C 0.5290(2) -0.0014(3) 0.5693(7)
C6_2 C -0.2134(2) 0.1955(3) 0.2148(9)
C7_2 C -0.3148(3) 0.1372(3) 0.0615(9)
H1_2 H -0.3373 0.0950 0.0147
C8B C -0.0765(2) -0.0463(3) 1.0586(7)
O8B O 0.7917(3) -0.0115(3) 0.4676(7)
C9_2 C -0.4537(2) 0.2655(3) -0.0634(9)
H2_2 H -0.4321 0.2984 -0.1335
H3_2 H -0.4539 0.2891 0.0467
C10_2 C -0.5260(2) 0.2492(3) -0.1526(8)
C11B C 0.5956(3) 0.0123(3) 0.5310(8)
C12_2 C -0.6389(3) 0.2904(3) -0.2734(9)
H4_2 H -0.6697 0.3293 -0.2959
C13B C 0.6029(3) 0.0292(3) 0.3676(8)
H5B H 0.6464 0.0389 0.3447
C14_2 C 0.0159(3) 0.1001(3) 0.3516(8)
H6_2 H 0.0018 0.0546 0.3052
C15_2 C 0.0850(3) 0.1148(3) 0.3998(8)
H7_2 H 0.1164 0.0795 0.3802
C16_2 C 0.0623(2) 0.2266(3) 0.4980(8)
H8_2 H 0.0778 0.2704 0.5522
C17B C 0.0266(3) -0.1057(3) 1.2014(7)
H9B H 0.0471 -0.1428 1.2743
C18B C -0.1898(3) -0.0759(3) 1.1032(8)
H10B H -0.1703 -0.0748 1.2259
H11B H -0.2346 -0.0526 1.0864
C19_2 C -0.5486(3) 0.1807(3) -0.2006(9)
H12_2 H -0.5190 0.1409 -0.1763
C20_2 C -0.0086(3) 0.2160(3) 0.4471(8)
H13_2 H -0.0393 0.2525 0.4647
C21_2 C -0.1080(2) 0.1343(3) 0.3108(8)
H14_2 H -0.1151 0.1100 0.1994
H15_2 H -0.1236 0.1018 0.3926
C22B C 0.7157(3) 0.0209(3) 0.6437(8)
H16B H 0.7146 0.0673 0.5835
H17B H 0.7456 0.0270 0.7558
C23B C -0.0459(3) -0.0994(3) 1.1668(7)
H18B H -0.0725 -0.1315 1.2180
C24_2 C -0.2464(3) 0.1337(3) 0.1455(9)
H19_2 H -0.2231 0.0893 0.1547
C25B C -0.0673(3) 0.0594(3) 0.8685(7)
H20B H -0.1150 0.0643 0.8424
C26B C 0.7480(3) -0.0358(4) 0.5428(8)
C27B C 0.5194(3) -0.0174(3) 0.7363(8)
H21B H 0.5571 -0.0182 0.8276
C28_2 C -0.6158(3) 0.1705(3) -0.2857(9)
H22_2 H -0.6302 0.1231 -0.3171
C29_2 C -0.3160(3) 0.2640(3) 0.1179(10)
H23_2 H -0.3395 0.3083 0.1104
C30_2 C -0.2478(3) 0.2604(3) 0.2005(10)
H24_2 H -0.2252 0.3027 0.2467
C31_2 C -0.5731(3) 0.3047(3) -0.1881(9)
H25_2 H -0.5603 0.3523 -0.1543
C32B C 0.5451(3) 0.0319(3) 0.2343(8)
H26B H 0.5506 0.0438 0.1232
loop_
_geom_bond_atom_site_label_1
_geom_bond_atom_site_label_2
_geom_bond_site_symmetry_1
_geom_bond_site_symmetry_2
Cd1 O1 1_555 1_555
O1 C2 1_555 1_555
O2 C11 1_555 1_555
O3 C2 1_555 1_555
O4 C3 1_555 1_555
O5 C8 1_555 1_555
N1 C15 1_555 1_555
O6 C6 1_555 1_555
C1 C8 1_555 1_555
C2 C18 1_555 1_555
C3 C7 1_555 1_555
N2 Cd1 1_555 1_555
O7 Cd1 1_555 1_555
C4 C14 1_555 1_555
C5 C11 1_555 1_555
C6 C24 1_555 1_555
C7 H1 1_555 1_555
C8 C23 1_555 1_555
O8 C26 1_555 1_555
C9 O4 1_555 1_555
H2 C9 1_555 1_555
H3 C9 1_555 1_555
C10 C9 1_555 1_555
C11 C13 1_555 1_555
C12 N2 1_555 1_555
H4 C12 1_555 1_555
C13 H5 1_555 1_555
C14 H6 1_555 1_555
C15 C14 1_555 1_555
H7 C15 1_555 1_555
C16 N1 1_555 1_555
H8 C16 1_555 1_555
C17 H9 1_555 1_555
C18 O5 1_555 1_555
H10 C18 1_555 1_555
H11 C18 1_555 1_555
C19 C10 1_555 1_555
H12 C19 1_555 1_555
C20 C4 1_555 1_555
H13 C20 1_555 1_555
C21 O6 1_555 1_555
H14 C21 1_555 1_555
H15 C21 1_555 1_555
C22 O2 1_555 1_555
H16 C22 1_555 1_555
H17 C22 1_555 1_555
C23 C17 1_555 1_555
H18 C23 1_555 1_555
C24 C7 1_555 1_555
H19 C24 1_555 1_555
C25 C1 1_555 1_555
H20 C25 1_555 1_555
C26 O7 1_555 1_555
C27 C5 1_555 1_555
H21 C27 1_555 1_555
C28 N2 1_555 1_555
H22 C28 1_555 1_555
C29 C3 1_555 1_555
H23 C29 1_555 1_555
C30 C6 1_555 1_555
H24 C30 1_555 1_555
C31 C10 1_555 1_555
H25 C31 1_555 1_555
C32 C13 1_555 1_555
H26 C32 1_555 1_555
Cd1B O1B 1_555 1_555
Cd1C O1 1_555 1_555
Cd1_2 N1 1_555 1_555
Cd1A O1B 1_555 1_555
Cd1B_2 O7B 1_555 1_555
Cd1_3 N2_2 1_555 1_555
O1B C2B 1_555 1_555
O1C Cd1 1_555 1_555
O1A Cd1B 1_555 1_555
O2B C11B 1_555 1_555
O3B Cd1A 1_555 1_555
O3C Cd1 1_555 1_555
O3A Cd1B 1_555 1_555
O4_2 C3_2 1_555 1_555
O5B C8B 1_555 1_555
N1_2 Cd1 1_555 1_555
N1B Cd1B 1_555 1_555
O6_2 C6_2 1_555 1_555
C1B C1 1_555 1_555
C2B O3B 1_555 1_555
C3_2 C7_2 1_555 1_555
N2_2 C12_2 1_555 1_555
N2B Cd1B 1_555 1_555
O7B C26B 1_555 1_555
O7B_2 Cd1B 1_555 1_555
C4_2 C14_2 1_555 1_555
C5B C5 1_555 1_555
C6_2 C24_2 1_555 1_555
C7_2 H1_2 1_555 1_555
C8B C1B 1_555 1_555
O8B C26B 1_555 1_555
C9_2 O4_2 1_555 1_555
H2_2 C9_2 1_555 1_555
H3_2 C9_2 1_555 1_555
C10_2 C9_2 1_555 1_555
C11B C5B 1_555 1_555
C12_2 H4_2 1_555 1_555
C13B C11B 1_555 1_555
H5B C13B 1_555 1_555
C14_2 H6_2 1_555 1_555
C15_2 N1_2 1_555 1_555
H7_2 C15_2 1_555 1_555
C16_2 N1_2 1_555 1_555
H8_2 C16_2 1_555 1_555
C17B C25 1_555 1_555
H9B C17B 1_555 1_555
C18B O5B 1_555 1_555
H10B C18B 1_555 1_555
H11B C18B 1_555 1_555
C19_2 C10_2 1_555 1_555
H12_2 C19_2 1_555 1_555
C20_2 C4_2 1_555 1_555
H13_2 C20_2 1_555 1_555
C21_2 O6_2 1_555 1_555
H14_2 C21_2 1_555 1_555
H15_2 C21_2 1_555 1_555
C22B O2B 1_555 1_555
H16B C22B 1_555 1_555
H17B C22B 1_555 1_555
C23B C8B 1_555 1_555
H18B C23B 1_555 1_555
C24_2 C7_2 1_555 1_555
H19_2 C24_2 1_555 1_555
C25B C17 1_555 1_555
H20B C25B 1_555 1_555
C26B C22B 1_555 1_555
C27B C32 1_555 1_555
H21B C27B 1_555 1_555
C28_2 N2_2 1_555 1_555
H22_2 C28_2 1_555 1_555
C29_2 C3_2 1_555 1_555
H23_2 C29_2 1_555 1_555
C30_2 C6_2 1_555 1_555
H24_2 C30_2 1_555 1_555
C31_2 C10_2 1_555 1_555
H25_2 C31_2 1_555 1_555
C32B C27 1_555 1_555
H26B C32B 1_555 1_555
O3 Cd1C 1_555 1_555
C4 C21 1_555 1_555
C12 C31 1_555 1_555
C16 C20 1_555 1_555
C19 C28 1_555 1_555
C22 C26 1_555 1_555
C29 C30 1_555 1_555
C1B C25B 1_555 1_555
C2B C18B 1_555 1_555
C4_2 C21_2 1_555 1_555
C5B C27B 1_555 1_555
C12_2 C31_2 1_555 1_555
C13B C32B 1_555 1_555
C14_2 C15_2 1_555 1_555
C16_2 C20_2 1_555 1_555
C17B C23B 1_555 1_555
C19_2 C28_2 1_555 1_555
C29_2 C30_2 1_555 1_555

#END
