
#######################################################################
#
#                 Cambridge Crystallographic Data Centre
#                                CCDC 
#
#######################################################################
#
# If this CIF has been generated from an entry in the Cambridge 
# Structural Database, then it will include bibliographic, chemical, 
# crystal, experimental, refinement or atomic coordinate data resulting 
# from the CCDC's data processing and validation procedures.
#
#######################################################################

data_DEGLIM
_symmetry_cell_setting           orthorhombic
_symmetry_space_group_name_H-M   'P n a 21'
_symmetry_Int_Tables_number      33
_space_group_name_Hall           'P 2c -2n'
loop_
_symmetry_equiv_pos_site_id
_symmetry_equiv_pos_as_xyz
1 x,y,z
2 -x,-y,1/2+z
3 1/2-x,1/2+y,1/2+z
4 1/2+x,1/2-y,z
_cell_length_a                   14.207(5)
_cell_length_b                   23.962(5)
_cell_length_c                   12.772(5)
_cell_angle_alpha                90
_cell_angle_beta                 90
_cell_angle_gamma                90
_cell_volume                     4347.95
loop_
_atom_site_label
_atom_site_type_symbol
_atom_site_fract_x
_atom_site_fract_y
_atom_site_fract_z
Zn1 Zn -0.28277(3) -0.220520(19) -0.20032(3)
Zn2 Zn 0.02869(3) 0.225160(19) -0.17422(3)
O1 O -0.0287(2) -0.10177(12) -0.2783(3)
O2 O -0.5207(2) -0.09909(12) -0.2368(3)
O3 O -0.7384(2) 0.09847(12) -0.0909(3)
O4 O -0.2652(2) -0.28341(11) -0.3124(2)
O5 O -0.2285(2) 0.10445(12) -0.1383(2)
C1 C -0.6004(3) -0.06689(17) -0.2298(3)
O6 O -0.8099(2) 0.23167(12) -0.1532(2)
O7 O -0.10538(19) 0.19419(11) -0.1559(2)
O8 O -0.8942(2) 0.16120(12) -0.0974(2)
O9 O -0.1525(2) -0.18661(11) -0.2332(2)
O10 O -0.1391(2) 0.22165(11) 0.0069(2)
C2 C -0.6695(3) 0.01647(15) -0.1540(3)
C3 C -0.0326(4) -0.14991(18) -0.3450(4)
H1 H 0.0288 -0.1675 -0.3453
H2 H -0.0457 -0.1376 -0.4159
C4 C -0.0902(3) -0.01788(16) -0.2130(3)
C5 C -0.1550(3) 0.06675(17) -0.1346(3)
N1 N -0.2769(3) -0.27570(16) -0.0707(3)
O11 O -0.1146(2) -0.23363(11) -0.3777(2)
O12 O -0.3634(2) -0.16439(13) -0.2971(3)
C6 C -0.5303(3) -0.15248(17) -0.2847(4)
H3 H -0.5395 -0.1486 -0.3596
H4 H -0.5837 -0.1723 -0.2555
C7 C -0.6595(3) 0.06630(17) -0.0950(3)
N2 N 0.0332(3) 0.18421(15) -0.3204(3)
N3 N -0.2861(2) -0.16639(16) -0.0686(3)
C8 C -0.1634(3) 0.02214(15) -0.2083(3)
C9 C -0.5897(3) -0.01799(15) -0.1678(4)
C10 C -0.7568(3) 0.00149(16) -0.2000(4)
H5 H -0.8099 0.0232 -0.1883
C11 C -0.2819(3) -0.25252(19) 0.0243(4)
C12 C -0.0114(3) -0.01206(18) -0.1463(3)
H6 H 0.0375 -0.0378 -0.1499
C13 C 0.0303(3) 0.27734(18) -0.3852(3)
C14 C -0.0800(3) 0.07026(19) -0.0688(4)
H7 H -0.0771 0.0983 -0.0186
O13 O -0.4428(2) -0.22550(12) -0.2042(3)
C15 C 0.0324(3) 0.21710(18) -0.4051(3)
C16 C -0.5758(3) 0.07967(18) -0.0468(4)
H8 H -0.5707 0.1119 -0.0067
C17 C -0.1499(3) 0.19135(17) -0.0709(3)
C18 C -0.2427(4) 0.01699(19) -0.2744(4)
H9 H -0.2907 0.0433 -0.2717
C19 C 0.0354(3) 0.1941(2) -0.5057(3)
H10 H 0.0355 0.2171 -0.5644
C20 C -0.7625(3) -0.04503(18) -0.2617(4)
H11 H -0.8195 -0.0539 -0.2932
C21 C -0.2780(4) -0.3307(2) -0.0782(4)
H12 H -0.2752 -0.3469 -0.1443
C22 C -0.8160(3) 0.18507(18) -0.1106(3)
C23 C -0.2857(4) -0.1104(2) -0.0761(4)
H13 H -0.2855 -0.0938 -0.1419
C24 C -0.1008(3) -0.06350(17) -0.2835(3)
C25 C 0.0280(3) 0.3459(2) -0.2581(4)
H14 H 0.0267 0.3558 -0.1877
N4 N 0.0276(3) 0.29178(15) -0.2825(3)
C26 C -0.1053(3) -0.19308(18) -0.3145(3)
C27 C -0.5041(3) -0.00292(18) -0.1177(4)
H15 H -0.4515 -0.0257 -0.1254
C28 C -0.4389(3) -0.1837(2) -0.2617(4)
C29 C -0.2860(3) -0.2840(2) 0.1147(4)
H16 H -0.2875 -0.2669 0.1800
C30 C -0.2830(4) -0.3647(2) 0.0079(5)
H17 H -0.2833 -0.4033 0.0000
C31 C -0.1770(4) -0.06782(19) -0.3474(4)
H18 H -0.1820 -0.0974 -0.3941
C32 C -0.2827(3) -0.19029(19) 0.0251(3)
C33 C -0.4978(3) 0.04372(19) -0.0592(4)
H19 H -0.4411 0.0524 -0.0264
C34 C -0.2484(4) -0.0269(2) -0.3422(4)
H20 H -0.3004 -0.0299 -0.3860
C35 C -0.6845(3) -0.07949(17) -0.2783(4)
H21 H -0.6893 -0.1106 -0.3216
C36 C 0.0302(3) 0.3175(2) -0.4626(4)
H22 H 0.0302 0.3071 -0.5327
C37 C 0.0354(4) 0.1039(2) -0.4289(4)
H23 H 0.0347 0.0652 -0.4357
C38 C 0.0302(4) 0.3883(2) -0.3323(4)
H24 H 0.0318 0.4256 -0.3124
C39 C -0.0063(4) 0.03061(18) -0.0775(4)
H25 H 0.0465 0.0341 -0.0350
C40 C -0.2856(4) -0.0771(2) 0.0122(5)
H26 H -0.2877 -0.0385 0.0064
C41 C 0.0382(4) 0.1374(2) -0.5165(4)
H27 H 0.0420 0.1214 -0.5828
C42 C -0.2286(4) 0.14867(19) -0.0620(4)
H28 H -0.2255 0.1320 0.0071
H29 H -0.2882 0.1682 -0.0669
O14 O 0.0149(2) 0.27585(11) -0.0394(2)
C43 C -0.7259(3) 0.15754(17) -0.0727(4)
C44 C 0.0339(4) 0.1278(2) -0.3321(4)
H30 H 0.0332 0.1052 -0.2730
C45 C -0.2805(4) -0.1593(2) 0.1157(4)
H31 H -0.2778 -0.1768 0.1806
C46 C 0.0300(4) 0.3733(2) -0.4356(4)
H32 H 0.0298 0.4005 -0.4874
C47 C -0.2824(4) -0.1023(3) 0.1089(5)
H33 H -0.2815 -0.0807 0.1694
C48 C -0.2878(4) -0.3411(3) 0.1062(4)
H34 H -0.2921 -0.3634 0.1656
Zn2_2 Zn -0.97131(3) 0.225160(19) -0.17422(3)
O6_2 O 0.1901(2) 0.23167(12) -0.1532(2)
O8_2 O 0.1058(2) 0.16120(12) -0.0974(2)
loop_
_geom_bond_atom_site_label_1
_geom_bond_atom_site_label_2
_geom_bond_site_symmetry_1
_geom_bond_site_symmetry_2
Zn1 O4 1_555 1_555
Zn2 O7 1_555 1_555
O1 C3 1_555 1_555
O2 C1 1_555 1_555
O3 C7 1_555 1_555
O5 C5 1_555 1_555
C1 C9 1_555 1_555
O6 C22 1_555 1_555
O7 C17 1_555 1_555
O8 C22 1_555 1_555
O9 Zn1 1_555 1_555
O10 C17 1_555 1_555
C2 C7 1_555 1_555
C3 H1 1_555 1_555
H2 C3 1_555 1_555
C4 C8 1_555 1_555
C5 C8 1_555 1_555
N1 Zn1 1_555 1_555
O11 C26 1_555 1_555
O12 Zn1 1_555 1_555
C6 O2 1_555 1_555
H3 C6 1_555 1_555
H4 C6 1_555 1_555
C7 C16 1_555 1_555
N2 Zn2 1_555 1_555
N3 Zn1 1_555 1_555
C8 C18 1_555 1_555
C9 C2 1_555 1_555
C10 C2 1_555 1_555
H5 C10 1_555 1_555
C11 N1 1_555 1_555
C12 C4 1_555 1_555
H6 C12 1_555 1_555
C13 C15 1_555 1_555
C14 C5 1_555 1_555
H7 C14 1_555 1_555
O13 Zn1 1_555 1_555
C15 N2 1_555 1_555
C16 H8 1_555 1_555
C17 C42 1_555 1_555
C18 H9 1_555 1_555
C19 C15 1_555 1_555
H10 C19 1_555 1_555
C20 C10 1_555 1_555
H11 C20 1_555 1_555
C21 N1 1_555 1_555
H12 C21 1_555 1_555
C22 C43 1_555 1_555
C23 N3 1_555 1_555
H13 C23 1_555 1_555
C24 O1 1_555 1_555
C25 H14 1_555 1_555
N4 Zn2 1_555 1_555
C26 O9 1_555 1_555
C27 C9 1_555 1_555
H15 C27 1_555 1_555
C28 O12 1_555 1_555
C29 C11 1_555 1_555
H16 C29 1_555 1_555
C30 C21 1_555 1_555
H17 C30 1_555 1_555
C31 C24 1_555 1_555
H18 C31 1_555 1_555
C32 N3 1_555 1_555
C33 C16 1_555 1_555
H19 C33 1_555 1_555
C34 C18 1_555 1_555
H20 C34 1_555 1_555
C35 C1 1_555 1_555
H21 C35 1_555 1_555
C36 C13 1_555 1_555
H22 C36 1_555 1_555
C37 H23 1_555 1_555
C38 C25 1_555 1_555
H24 C38 1_555 1_555
C39 C12 1_555 1_555
H25 C39 1_555 1_555
C40 C23 1_555 1_555
H26 C40 1_555 1_555
C41 C19 1_555 1_555
H27 C41 1_555 1_555
C42 O5 1_555 1_555
H28 C42 1_555 1_555
H29 C42 1_555 1_555
O14 Zn2 1_555 1_555
C43 O3 1_555 1_555
C44 N2 1_555 1_555
H30 C44 1_555 1_555
C45 C32 1_555 1_555
H31 C45 1_555 1_555
C46 C36 1_555 1_555
H32 C46 1_555 1_555
C47 C40 1_555 1_555
H33 C47 1_555 1_555
C48 C29 1_555 1_555
H34 C48 1_555 1_555
Zn2_2 O6 1_555 1_555
O6_2 Zn2 1_555 1_555
O8_2 Zn2 1_555 1_555
O8 Zn2_2 1_555 1_555
C3 C26 1_555 1_555
C4 C24 1_555 1_555
C6 C28 1_555 1_555
C11 C32 1_555 1_555
C13 N4 1_555 1_555
C14 C39 1_555 1_555
O13 C28 1_555 1_555
C20 C35 1_555 1_555
C25 N4 1_555 1_555
C27 C33 1_555 1_555
C30 C48 1_555 1_555
C31 C34 1_555 1_555
C37 C41 1_555 1_555
C37 C44 1_555 1_555
C38 C46 1_555 1_555
C45 C47 1_555 1_555

#END
