
#######################################################################
#
#                 Cambridge Crystallographic Data Centre
#                                CCDC 
#
#######################################################################
#
# If this CIF has been generated from an entry in the Cambridge 
# Structural Database, then it will include bibliographic, chemical, 
# crystal, experimental, refinement or atomic coordinate data resulting 
# from the CCDC's data processing and validation procedures.
#
#######################################################################

data_DEGLOS
_symmetry_cell_setting           triclinic
_symmetry_space_group_name_H-M   'P -1'
_symmetry_Int_Tables_number      2
_space_group_name_Hall           '-P 1'
loop_
_symmetry_equiv_pos_site_id
_symmetry_equiv_pos_as_xyz
1 x,y,z
2 -x,-y,-z
_cell_length_a                   10.471(5)
_cell_length_b                   10.911(5)
_cell_length_c                   10.963(5)
_cell_angle_alpha                63.106(5)
_cell_angle_beta                 80.411(5)
_cell_angle_gamma                82.789(5)
_cell_volume                     1099.65
loop_
_atom_site_label
_atom_site_type_symbol
_atom_site_fract_x
_atom_site_fract_y
_atom_site_fract_z
Cd1 Cd 0.89089(3) 0.11395(3) 0.57903(3)
O1 O 0.9635(3) 0.0939(3) 0.3675(3)
N1 N 1.0586(3) 0.1935(3) 0.6337(3)
O2 O 0.9310(3) 0.3040(3) 0.3456(3)
O3 O 0.5683(3) -0.2159(3) 0.8021(3)
C1 C 0.6343(4) -0.4304(4) 1.0389(4)
H1 H 0.6771 -0.3493 1.0032
C2 C 0.4949(4) -0.3271(4) 0.8499(4)
O4 O 0.7510(3) -0.0441(3) 0.6797(4)
N2 N 0.8081(3) 0.2921(3) 0.6382(4)
C3 C 0.9727(4) 0.2213(4) 0.2982(4)
C4 C 0.5333(3) -0.4387(4) 0.9724(4)
C5 C 1.0308(4) 0.3021(4) 0.6616(4)
O5 O 1.0828(4) 0.1873(4) 0.0964(4)
C6 C 0.6692(4) -0.5404(4) 1.1550(4)
H2 H 0.7368 -0.5341 1.1969
C7 C 0.8939(4) 0.3570(4) 0.6620(4)
C8 C 0.6488(4) -0.0002(4) 0.6305(4)
C9 C 0.3959(4) -0.3363(4) 0.7876(4)
H3 H 0.3718 -0.2618 0.7081
C10 C 0.7273(5) 0.5154(6) 0.6873(7)
H4 H 0.6996 0.5921 0.7029
C11 C 0.5411(4) -0.1008(4) 0.6792(4)
H5 H 0.4584 -0.0558 0.6948
H6 H 0.5356 -0.1301 0.6089
O6 O 0.6256(4) 0.1156(3) 0.5454(4)
C12 C 0.8558(5) 0.4725(5) 0.6863(5)
H7 H 0.9159 0.5186 0.7012
C13 C 1.0430(4) 0.0289(5) 0.0222(4)
C14 C 1.2517(6) 0.3063(6) 0.6851(7)
H8 H 1.3167 0.3443 0.7033
C15 C 1.1821(4) 0.1436(5) 0.6289(5)
H9 H 1.2015 0.0696 0.6073
C16 C 0.6843(5) 0.3379(6) 0.6398(6)
H10 H 0.6251 0.2928 0.6223
C17 C 1.1731(5) -0.0210(6) 0.0300(5)
H11 H 1.2293 0.0173 0.0589
C18 C 0.9920(5) 0.1363(5) 0.0570(4)
C19 C 1.0413(6) 0.2828(5) 0.1520(5)
H12 H 0.9833 0.3530 0.0929
H13 H 1.1165 0.3278 0.1498
C20 C 1.2807(5) 0.1962(6) 0.6545(7)
H14 H 1.3652 0.1585 0.6512
C21 C 1.1266(5) 0.3596(5) 0.6887(5)
H15 H 1.1060 0.4342 0.7092
C22 C 0.8653(5) 0.1842(6) 0.0501(5)
H16 H 0.8340 0.2544 0.0750
C23 C 0.6398(5) 0.4480(7) 0.6659(8)
H17 H 0.5521 0.4758 0.6688
C24 C 1.2170(5) -0.1252(6) -0.0047(5)
H18 H 1.3032 -0.1581 0.0018
Cd1A Cd 1.10911(3) -0.11395(3) -0.57903(3)
Cd1A_2 Cd 1.10911(3) -0.11395(3) 0.42097(3)
Cd1_2 Cd 0.89089(3) 0.11395(3) -0.42097(3)
Cd1A_3 Cd 0.10911(3) -1.11395(3) 1.42097(3)
O1A O 1.0365(3) -0.0939(3) -0.3675(3)
O1A_2 O 1.0365(3) -0.0939(3) 0.6325(3)
O1_2 O 0.9635(3) 0.0939(3) -0.6325(3)
N1A N 0.9414(3) -0.1935(3) -0.6337(3)
O2A O 1.0690(3) -0.3040(3) -0.3456(3)
O3A O 0.4317(3) -0.7841(3) 1.1979(3)
C1A C 0.3657(4) -0.5696(4) 0.9611(4)
H1A H 0.3229 -0.6507 0.9968
C2A C 0.5051(4) -0.6729(4) 1.1501(4)
O4A O 0.2490(3) -0.9559(3) 1.3203(4)
O4A_2 O 1.2490(3) 0.0441(3) -0.6797(4)
N2A N 1.1919(3) -0.2921(3) -0.6382(4)
C3A C 1.0273(4) -0.2213(4) -0.2982(4)
C4A C 0.4667(3) -0.5613(4) 1.0276(4)
C5A C 0.9692(4) -0.3021(4) -0.6616(4)
O5A O 0.9172(4) -0.1873(4) -0.0964(4)
C6A C 0.3308(4) -0.4596(4) 0.8450(4)
H2A H 0.2632 -0.4659 0.8031
C7A C 1.1061(4) -0.3570(4) -0.6620(4)
C8A C 0.3512(4) -0.9998(4) 1.3695(4)
C9A C 0.6041(4) -0.6637(4) 1.2124(4)
H3A H 0.6282 -0.7382 1.2919
C10A C 1.2727(5) -0.5154(6) -0.6873(7)
H4A H 1.3004 -0.5921 -0.7029
C11A C 0.4589(4) -0.8992(4) 1.3208(4)
H5A H 0.5416 -0.9442 1.3052
H6A H 0.4644 -0.8699 1.3911
O6A O 0.3744(4) -1.1156(3) 1.4546(4)
C12A C 1.1442(5) -0.4725(5) -0.6863(5)
H7A H 1.0841 -0.5186 -0.7012
C13A C 0.9570(4) -0.0289(5) -0.0222(4)
C14A C 0.7483(6) -0.3063(6) -0.6851(7)
H8A H 0.6833 -0.3443 -0.7033
C15A C 0.8179(4) -0.1436(5) -0.6289(5)
H9A H 0.7985 -0.0696 -0.6073
C16A C 1.3157(5) -0.3379(6) -0.6398(6)
H10A H 1.3749 -0.2928 -0.6223
C17A C 0.8269(5) 0.0210(6) -0.0300(5)
H11A H 0.7707 -0.0173 -0.0589
C18A C 1.0080(5) -0.1363(5) -0.0570(4)
C19A C 0.9587(6) -0.2828(5) -0.1520(5)
H12A H 1.0167 -0.3530 -0.0929
H13A H 0.8835 -0.3278 -0.1498
C20A C 0.7193(5) -0.1962(6) -0.6545(7)
H14A H 0.6348 -0.1585 -0.6512
C21A C 0.8734(5) -0.3596(5) -0.6887(5)
H15A H 0.8940 -0.4342 -0.7092
C22A C 1.1347(5) -0.1842(6) -0.0501(5)
H16A H 1.1660 -0.2544 -0.0750
C23A C 1.3602(5) -0.4480(7) -0.6659(8)
H17A H 1.4479 -0.4758 -0.6688
C24A C 0.7830(5) 0.1252(6) 0.0047(5)
H18A H 0.6968 0.1581 -0.0018
loop_
_geom_bond_atom_site_label_1
_geom_bond_atom_site_label_2
_geom_bond_site_symmetry_1
_geom_bond_site_symmetry_2
Cd1 O1 1_555 1_555
O1 C3 1_555 1_555
N1 Cd1 1_555 1_555
O2 Cd1 1_555 1_555
O3 C2 1_555 1_555
C1 H1 1_555 1_555
C2 C4 1_555 1_555
O4 Cd1 1_555 1_555
N2 Cd1 1_555 1_555
C3 O2 1_555 1_555
C4 C1 1_555 1_555
C5 N1 1_555 1_555
O5 C18 1_555 1_555
C6 C1 1_555 1_555
H2 C6 1_555 1_555
C7 N2 1_555 1_555
C8 O4 1_555 1_555
C9 C2 1_555 1_555
H3 C9 1_555 1_555
C10 H4 1_555 1_555
C11 O3 1_555 1_555
H5 C11 1_555 1_555
H6 C11 1_555 1_555
O6 C8 1_555 1_555
C12 C7 1_555 1_555
H7 C12 1_555 1_555
C13 C17 1_555 1_555
C14 H8 1_555 1_555
C15 N1 1_555 1_555
H9 C15 1_555 1_555
C16 N2 1_555 1_555
H10 C16 1_555 1_555
C17 H11 1_555 1_555
C18 C13 1_555 1_555
C19 C3 1_555 1_555
H12 C19 1_555 1_555
H13 C19 1_555 1_555
C20 C14 1_555 1_555
H14 C20 1_555 1_555
C21 C5 1_555 1_555
H15 C21 1_555 1_555
C22 C18 1_555 1_555
H16 C22 1_555 1_555
C23 C10 1_555 1_555
H17 C23 1_555 1_555
C24 C17 1_555 1_555
H18 C24 1_555 1_555
Cd1A O1A 1_555 1_555
Cd1A_2 O1 1_555 1_555
Cd1_2 O1A 1_555 1_555
Cd1A_3 O4A 1_555 1_555
O1A C3A 1_555 1_555
O1A_2 Cd1 1_555 1_555
O1_2 Cd1A 1_555 1_555
N1A Cd1A 1_555 1_555
O2A Cd1A 1_555 1_555
O3A C2A 1_555 1_555
C1A H1A 1_555 1_555
C2A C4A 1_555 1_555
O4A C8A 1_555 1_555
O4A_2 Cd1A 1_555 1_555
N2A Cd1A 1_555 1_555
C3A O2A 1_555 1_555
C4A C4 1_555 1_555
C5A N1A 1_555 1_555
O5A C18A 1_555 1_555
C6A C9 1_555 1_555
H2A C6A 1_555 1_555
C7A N2A 1_555 1_555
C8A C11A 1_555 1_555
C9A C6 1_555 1_555
H3A C9A 1_555 1_555
C10A H4A 1_555 1_555
C11A O3A 1_555 1_555
H5A C11A 1_555 1_555
H6A C11A 1_555 1_555
O6A C8A 1_555 1_555
C12A C7A 1_555 1_555
H7A C12A 1_555 1_555
C13A C13 1_555 1_555
C14A H8A 1_555 1_555
C15A N1A 1_555 1_555
H9A C15A 1_555 1_555
C16A N2A 1_555 1_555
H10A C16A 1_555 1_555
C17A C13A 1_555 1_555
H11A C17A 1_555 1_555
C18A C13A 1_555 1_555
C19A C3A 1_555 1_555
H12A C19A 1_555 1_555
H13A C19A 1_555 1_555
C20A C14A 1_555 1_555
H14A C20A 1_555 1_555
C21A C5A 1_555 1_555
H15A C21A 1_555 1_555
C22A C24 1_555 1_555
H16A C22A 1_555 1_555
C23A C10A 1_555 1_555
H17A C23A 1_555 1_555
C24A C22 1_555 1_555
H18A C24A 1_555 1_555
C5 C7 1_555 1_555
O5 C19 1_555 1_555
C8 C11 1_555 1_555
C10 C12 1_555 1_555
C14 C21 1_555 1_555
C15 C20 1_555 1_555
C16 C23 1_555 1_555
Cd1A_2 O1A_2 1_555 1_555
Cd1_2 O1_2 1_555 1_555
C1A C4A 1_555 1_555
C1A C6A 1_555 1_555
C2A C9A 1_555 1_555
C5A C7A 1_555 1_555
O5A C19A 1_555 1_555
C10A C12A 1_555 1_555
C14A C21A 1_555 1_555
C15A C20A 1_555 1_555
C16A C23A 1_555 1_555
C17A C24A 1_555 1_555
C18A C22A 1_555 1_555

#END
