
#######################################################################
#
#                 Cambridge Crystallographic Data Centre
#                                CCDC 
#
#######################################################################
#
# If this CIF has been generated from an entry in the Cambridge 
# Structural Database, then it will include bibliographic, chemical, 
# crystal, experimental, refinement or atomic coordinate data resulting 
# from the CCDC's data processing and validation procedures.
#
#######################################################################

data_DEGPEK
_symmetry_cell_setting           monoclinic
_symmetry_space_group_name_H-M   'C 2/c'
_symmetry_Int_Tables_number      15
_space_group_name_Hall           '-C 2yn'
loop_
_symmetry_equiv_pos_site_id
_symmetry_equiv_pos_as_xyz
1 x,y,z
2 -x,y,1/2-z
3 1/2+x,1/2+y,z
4 1/2-x,1/2+y,1/2-z
5 -x,-y,-z
6 x,-y,1/2+z
7 1/2-x,1/2-y,-z
8 1/2+x,1/2-y,1/2+z
_cell_length_a                   32.078(4)
_cell_length_b                   11.791(2)
_cell_length_c                   29.409(4)
_cell_angle_alpha                90
_cell_angle_beta                 124.14(1)
_cell_angle_gamma                90
_cell_volume                     9206.5
loop_
_atom_site_label
_atom_site_type_symbol
_atom_site_fract_x
_atom_site_fract_y
_atom_site_fract_z
Ag1 Ag 0.30585(3) 0.59603(9) 0.14487(3)
Ag2 Ag 0.39256(3) 0.5883(1) 0.26473(4)
Ag3 Ag 0.42176(3) 0.6844(1) 0.19523(3)
Ag4 Ag 0.34770(3) 0.8213(1) 0.21694(3)
S1 S 0.31837(9) 0.4610(3) 0.2171(1)
S2 S 0.3464(1) 0.7135(3) 0.2936(1)
S3 S 0.2294(1) 0.4559(3) 0.2228(1)
S4 S 0.2506(1) 0.6614(3) 0.2829(1)
S5 S 0.1576(1) 0.5346(3) 0.2502(1)
S6 S 0.3553(1) 0.6327(3) 0.1012(1)
S7 S 0.2727(1) 0.7993(3) 0.1194(1)
S8 S 0.3318(1) 0.8088(3) 0.0185(1)
S9 S 0.2653(1) 0.9378(3) 0.0325(1)
S10 S 0.2794(1) 1.0070(3) -0.0551(1)
S11 S 0.4795(1) 0.6178(3) 0.2968(1)
S12 S 0.4318(1) 0.8837(3) 0.2317(1)
S13 S 0.5308(1) 0.7572(4) 0.3976(1)
S14 S 0.4941(1) 0.9702(4) 0.3450(2)
S15 S 0.5632(2) 0.9659(5) 0.4662(2)
C1 C 0.2839(4) 0.526(1) 0.2391(4)
C2 C 0.2951(4) 0.625(1) 0.2681(4)
C3 C 0.2101(4) 0.548(1) 0.2529(4)
C4 C 0.3240(3) 0.761(1) 0.0700(4)
C5 C 0.2929(4) 0.821(1) 0.0765(4)
C6 C 0.2919(4) 0.922(1) -0.0033(4)
C7 C 0.4904(4) 0.751(1) 0.3256(4)
C8 C 0.4725(4) 0.853(1) 0.3011(5)
C9 C 0.5312(4) 0.901(1) 0.4055(5)
Ag4C Ag 0.15230(3) 0.3213(1) 0.28306(3)
S5C S 0.3424(1) 1.0346(3) 0.2498(1)
S10F S 0.2206(1) 0.4930(3) 0.0551(1)
Ag1F Ag 0.19415(3) 0.90397(9) -0.14487(3)
O1 O 0.0493(4) 0.206(1) -0.0044(5)
N1 N 0.0897(4) 0.336(1) 0.0636(4)
C10 C 0.0473(6) 0.288(2) 0.0234(6)
C11 C 0.1387(5) 0.304(2) 0.0758(6)
C12 C 0.0857(6) 0.427(2) 0.0937(6)
H1 H 0.1348 0.2436 0.0524
H2 H 0.1534 0.3674 0.0698
H3 H 0.1597 0.2809 0.1130
H4 H 0.0513 0.4373 0.0808
H5 H 0.1047 0.4085 0.1317
H6 H 0.0983 0.4950 0.0885
H7 H 0.0156 0.3136 0.0151
N2 N 0.3904(3) 0.3588(9) 0.4031(3)
C13 C 0.3357(5) 0.324(1) 0.3611(5)
C14 C 0.3237(5) 0.203(1) 0.3709(5)
C15 C 0.4270(5) 0.272(2) 0.4061(6)
C16 C 0.4197(6) 0.260(2) 0.3507(7)
C17 C 0.4036(5) 0.362(1) 0.4618(6)
C18 C 0.3705(7) 0.446(2) 0.4685(7)
C19 C 0.3964(5) 0.475(1) 0.3848(5)
C20 C 0.4506(5) 0.521(2) 0.4183(6)
H8 H 0.3294 0.3271 0.3254
H9 H 0.3142 0.3762 0.3631
H10 H 0.2894 0.1857 0.3438
H11 H 0.3447 0.1499 0.3686
H12 H 0.3295 0.1990 0.4063
H13 H 0.4213 0.2007 0.4167
H14 H 0.4605 0.2961 0.4324
H15 H 0.4428 0.2054 0.3533
H16 H 0.3862 0.2355 0.3241
H17 H 0.4254 0.3309 0.3398
H18 H 0.4378 0.3834 0.4859
H19 H 0.3989 0.2878 0.4713
H20 H 0.3800 0.4447 0.5054
H21 H 0.3749 0.5201 0.4593
H22 H 0.3360 0.4245 0.4447
H23 H 0.3756 0.5276 0.3879
H24 H 0.3856 0.4702 0.3474
H25 H 0.4514 0.5935 0.4046
H26 H 0.4619 0.5278 0.4558
H27 H 0.4719 0.4703 0.4153
N3 N 0.3786(3) 0.258(1) 0.1252(4)
C21 C 0.4127(6) 0.359(2) 0.1333(7)
C22 C 0.4566(7) 0.318(2) 0.1286(7)
C23 C 0.4085(5) 0.162(2) 0.1640(7)
C24 C 0.429 0.206 0.224
C25 C 0.3387(5) 0.302(1) 0.1311(5)
C26 C 0.299 0.213 0.121
C27 C 0.3566(8) 0.208(2) 0.0687(9)
C28 C 0.3243(7) 0.292(2) 0.0216(7)
H28 H 0.4264 0.3907 0.1685
H29 H 0.3932 0.4140 0.1058
H30 H 0.4772 0.3814 0.1336
H31 H 0.4762 0.2631 0.1560
H32 H 0.4430 0.2863 0.0933
H33 H 0.4357 0.1424 0.1613
H34 H 0.3875 0.0975 0.1555
H35 H 0.4483 0.1480 0.2501
H36 H 0.4498 0.2709 0.2322
H37 H 0.4016 0.2260 0.2264
H38 H 0.3220 0.3624 0.1055
H39 H 0.3542 0.3303 0.1673
H40 H 0.2743 0.2472 0.1249
H41 H 0.2824 0.1843 0.0841
H42 H 0.3145 0.1522 0.1459
H43 H 0.3360 0.1447 0.0642
H44 H 0.3834 0.1826 0.0664
H45 H 0.3116 0.2553 -0.0126
H46 H 0.2969 0.3170 0.0230
H47 H 0.3443 0.3549 0.0252
loop_
_geom_bond_atom_site_label_1
_geom_bond_atom_site_label_2
_geom_bond_site_symmetry_1
_geom_bond_site_symmetry_2
Ag1 S1 1_555 1_555
Ag2 S1 1_555 1_555
Ag3 S6 1_555 1_555
Ag4 S2 1_555 1_555
S1 C1 1_555 1_555
S2 Ag2 1_555 1_555
S3 C1 1_555 1_555
S4 C2 1_555 1_555
S5 C3 1_555 1_555
S6 Ag1 1_555 1_555
S7 Ag1 1_555 1_555
S8 C4 1_555 1_555
S9 C5 1_555 1_555
S10 C6 1_555 1_555
S11 Ag2 1_555 1_555
S12 Ag3 1_555 1_555
S13 C7 1_555 1_555
S14 C8 1_555 1_555
S15 C9 1_555 1_555
C1 C2 1_555 1_555
C2 S2 1_555 1_555
C3 S3 1_555 1_555
C4 S6 1_555 1_555
C5 S7 1_555 1_555
C6 S8 1_555 1_555
C7 S11 1_555 1_555
C8 S12 1_555 1_555
C9 S13 1_555 1_555
O1 C10 1_555 1_555
N1 C10 1_555 1_555
N2 C13 1_555 1_555
N3 C21 1_555 1_555
C10 H7 1_555 1_555
C11 N1 1_555 1_555
C12 N1 1_555 1_555
C13 C14 1_555 1_555
C14 H10 1_555 1_555
C15 N2 1_555 1_555
C16 C15 1_555 1_555
C17 N2 1_555 1_555
C18 C17 1_555 1_555
C19 N2 1_555 1_555
C20 C19 1_555 1_555
C21 C22 1_555 1_555
C22 H30 1_555 1_555
C23 N3 1_555 1_555
C24 C23 1_555 1_555
C25 N3 1_555 1_555
C26 C25 1_555 1_555
C27 N3 1_555 1_555
C28 C27 1_555 1_555
H1 C11 1_555 1_555
H2 C11 1_555 1_555
H3 C11 1_555 1_555
H4 C12 1_555 1_555
H5 C12 1_555 1_555
H6 C12 1_555 1_555
H8 C13 1_555 1_555
H9 C13 1_555 1_555
H11 C14 1_555 1_555
H12 C14 1_555 1_555
H13 C15 1_555 1_555
H14 C15 1_555 1_555
H15 C16 1_555 1_555
H16 C16 1_555 1_555
H17 C16 1_555 1_555
H18 C17 1_555 1_555
H19 C17 1_555 1_555
H20 C18 1_555 1_555
H21 C18 1_555 1_555
H22 C18 1_555 1_555
H23 C19 1_555 1_555
H24 C19 1_555 1_555
H25 C20 1_555 1_555
H26 C20 1_555 1_555
H27 C20 1_555 1_555
H28 C21 1_555 1_555
H29 C21 1_555 1_555
H31 C22 1_555 1_555
H32 C22 1_555 1_555
H33 C23 1_555 1_555
H34 C23 1_555 1_555
H35 C24 1_555 1_555
H36 C24 1_555 1_555
H37 C24 1_555 1_555
H38 C25 1_555 1_555
H39 C25 1_555 1_555
H40 C26 1_555 1_555
H41 C26 1_555 1_555
H42 C26 1_555 1_555
H43 C27 1_555 1_555
H44 C27 1_555 1_555
H45 C28 1_555 1_555
H46 C28 1_555 1_555
H47 C28 1_555 1_555
Ag4C S5 1_555 1_555
S5C Ag4 1_555 1_555
S10F Ag1 1_555 1_555
Ag1F S10 1_555 1_555
Ag3 S11 1_555 1_555
Ag4 S7 1_555 1_555
Ag4 S12 1_555 1_555
S4 C3 1_555 1_555
S9 C6 1_555 1_555
S14 C9 1_555 1_555
C4 C5 1_555 1_555
C7 C8 1_555 1_555

#END
