
#######################################################################
#
#                 Cambridge Crystallographic Data Centre
#                                CCDC 
#
#######################################################################
#
# If this CIF has been generated from an entry in the Cambridge 
# Structural Database, then it will include bibliographic, chemical, 
# crystal, experimental, refinement or atomic coordinate data resulting 
# from the CCDC's data processing and validation procedures.
#
#######################################################################

data_DEGPEL
_symmetry_cell_setting           cubic
_symmetry_space_group_name_H-M   'F d -3 c'
_symmetry_Int_Tables_number      228
_space_group_name_Hall           '-F 4ud 2vw 3'
loop_
_symmetry_equiv_pos_site_id
_symmetry_equiv_pos_as_xyz
1 x,y,z
2 z,x,y
3 y,z,x
4 3/4+y,1/4+x,-z
5 1/4+y,-x,3/4+z
6 -y,3/4+x,1/4+z
7 3/4+x,1/4+z,-y
8 -x,3/4+z,1/4+y
9 1/4+x,-z,3/4+y
10 3/4+z,1/4+y,-x
11 1/4+z,-y,3/4+x
12 -z,3/4+y,1/4+x
13 x,1/2+y,1/2+z
14 1/4-x,1/4-y,z
15 z,1/2+x,1/2+y
16 1/4-z,1/4-x,y
17 y,1/2+z,1/2+x
18 1/4-y,1/4-z,x
19 1/4+y,1/2-x,1/4+z
20 -y,1/4+x,3/4+z
21 -x,1/4+z,3/4+y
22 1/4+x,1/2-z,1/4+y
23 1/4+z,1/2-y,1/4+x
24 -z,1/4+y,3/4+x
25 1/2+x,y,1/2+z
26 x,1/4-y,1/4-z
27 1/2+z,x,1/2+y
28 z,1/4-x,1/4-y
29 1/2+y,z,1/2+x
30 y,1/4-z,1/4-x
31 1/4+y,1/4+x,1/2-z
32 3/4+y,-x,1/4+z
33 1/4+x,1/4+z,1/2-y
34 3/4+x,-z,1/4+y
35 1/4+z,1/4+y,1/2-x
36 3/4+z,-y,1/4+x
37 1/2+x,1/2+y,z
38 1/4-x,y,1/4-z
39 1/2+z,1/2+x,y
40 1/4-z,x,1/4-y
41 1/2+y,1/2+z,x
42 1/4-y,z,1/4-x
43 1/4+y,3/4+x,-z
44 1/2-y,1/4+x,1/4+z
45 1/4+x,3/4+z,-y
46 1/2-x,1/4+z,1/4+y
47 1/4+z,3/4+y,-x
48 1/2-z,1/4+y,1/4+x
49 1/4-x,3/4-y,1/2+z
50 3/4-x,1/2+y,1/4-z
51 1/2+x,1/4-y,3/4-z
52 1/2+z,1/4-x,3/4-y
53 1/4-z,3/4-x,1/2+y
54 3/4-z,1/2+x,1/4-y
55 3/4-y,1/2+z,1/4-x
56 1/2+y,1/4-z,3/4-x
57 1/4-y,3/4-z,1/2+x
58 1/2-y,1/2-x,1/2-z
59 1/2-x,1/2-z,1/2-y
60 1/2-z,1/2-y,1/2-x
61 3/4-x,y,3/4-z
62 1/2+x,3/4-y,1/4-z
63 1/2+z,3/4-x,1/4-y
64 3/4-z,x,3/4-y
65 3/4-y,z,3/4-x
66 1/2+y,3/4-z,1/4-x
67 3/4+y,3/4+x,1/2-z
68 1/2-y,-x,-z
69 3/4+x,3/4+z,1/2-y
70 1/2-x,-z,-y
71 3/4+z,3/4+y,1/2-x
72 1/2-z,-y,-x
73 3/4-x,3/4-y,z
74 1/4-x,1/2+y,3/4-z
75 3/4-z,3/4-x,y
76 1/4-z,1/2+x,3/4-y
77 1/4-y,1/2+z,3/4-x
78 3/4-y,3/4-z,x
79 -y,1/2-x,-z
80 1/2-y,3/4+x,3/4+z
81 1/2-x,3/4+z,3/4+y
82 -x,1/2-z,-y
83 1/2-z,3/4+y,3/4+x
84 -z,1/2-y,-x
85 3/4-x,1/4-y,1/2+z
86 x,3/4-y,3/4-z
87 z,3/4-x,3/4-y
88 3/4-z,1/4-x,1/2+y
89 y,3/4-z,3/4-x
90 3/4-y,1/4-z,1/2+x
91 -y,-x,1/2-z
92 3/4+y,1/2-x,3/4+z
93 -x,-z,1/2-y
94 3/4+x,1/2-z,3/4+y
95 3/4+z,1/2-y,3/4+x
96 -z,-y,1/2-x
97 -x,-y,-z
98 -z,-x,-y
99 -y,-z,-x
100 1/4-y,3/4-x,z
101 3/4-y,x,1/4-z
102 y,1/4-x,3/4-z
103 1/4-x,3/4-z,y
104 x,1/4-z,3/4-y
105 3/4-x,z,1/4-y
106 1/4-z,3/4-y,x
107 3/4-z,y,1/4-x
108 z,1/4-y,3/4-x
109 -x,1/2-y,1/2-z
110 3/4+x,3/4+y,-z
111 -z,1/2-x,1/2-y
112 3/4+z,3/4+x,-y
113 -y,1/2-z,1/2-x
114 3/4+y,3/4+z,-x
115 3/4-y,1/2+x,3/4-z
116 y,3/4-x,1/4-z
117 x,3/4-z,1/4-y
118 3/4-x,1/2+z,3/4-y
119 3/4-z,1/2+y,3/4-x
120 z,3/4-y,1/4-x
121 1/2-x,-y,1/2-z
122 -x,3/4+y,3/4+z
123 1/2-z,-x,1/2-y
124 -z,3/4+x,3/4+y
125 1/2-y,-z,1/2-x
126 -y,3/4+z,3/4+x
127 3/4-y,3/4-x,1/2+z
128 1/4-y,x,3/4-z
129 3/4-x,3/4-z,1/2+y
130 1/4-x,z,3/4-y
131 3/4-z,3/4-y,1/2+x
132 1/4-z,y,3/4-x
133 1/2-x,1/2-y,-z
134 3/4+x,-y,3/4+z
135 1/2-z,1/2-x,-y
136 3/4+z,-x,3/4+y
137 1/2-y,1/2-z,-x
138 3/4+y,-z,3/4+x
139 3/4-y,1/4-x,z
140 1/2+y,3/4-x,3/4-z
141 3/4-x,1/4-z,y
142 1/2+x,3/4-z,3/4-y
143 3/4-z,1/4-y,x
144 1/2+z,3/4-y,3/4-x
145 3/4+x,1/4+y,1/2-z
146 1/4+x,1/2-y,3/4+z
147 1/2-x,3/4+y,1/4+z
148 1/2-z,3/4+x,1/4+y
149 3/4+z,1/4+x,1/2-y
150 1/4+z,1/2-x,3/4+y
151 1/4+y,1/2-z,3/4+x
152 1/2-y,3/4+z,1/4+x
153 3/4+y,1/4+z,1/2-x
154 1/2+y,1/2+x,1/2+z
155 1/2+x,1/2+z,1/2+y
156 1/2+z,1/2+y,1/2+x
157 1/4+x,-y,1/4+z
158 1/2-x,1/4+y,3/4+z
159 1/2-z,1/4+x,3/4+y
160 1/4+z,-x,1/4+y
161 1/4+y,-z,1/4+x
162 1/2-y,1/4+z,3/4+x
163 1/4-y,1/4-x,1/2+z
164 1/2+y,x,z
165 1/4-x,1/4-z,1/2+y
166 1/2+x,z,y
167 1/4-z,1/4-y,1/2+x
168 1/2+z,y,x
169 1/4+x,1/4+y,-z
170 3/4+x,1/2-y,1/4+z
171 1/4+z,1/4+x,-y
172 3/4+z,1/2-x,1/4+y
173 3/4+y,1/2-z,1/4+x
174 1/4+y,1/4+z,-x
175 y,1/2+x,z
176 1/2+y,1/4-x,1/4-z
177 1/2+x,1/4-z,1/4-y
178 x,1/2+z,y
179 1/2+z,1/4-y,1/4-x
180 z,1/2+y,x
181 1/4+x,3/4+y,1/2-z
182 -x,1/4+y,1/4+z
183 -z,1/4+x,1/4+y
184 1/4+z,3/4+x,1/2-y
185 -y,1/4+z,1/4+x
186 1/4+y,3/4+z,1/2-x
187 y,x,1/2+z
188 1/4-y,1/2+x,1/4-z
189 x,z,1/2+y
190 1/4-x,1/2+z,1/4-y
191 1/4-z,1/2+y,1/4-x
192 z,y,1/2+x
_cell_length_a                   24.8200(5)
_cell_length_b                   24.8200(5)
_cell_length_c                   24.8200(5)
_cell_angle_alpha                90
_cell_angle_beta                 90
_cell_angle_gamma                90
_cell_volume                     15289.9
loop_
_atom_site_label
_atom_site_type_symbol
_atom_site_fract_x
_atom_site_fract_y
_atom_site_fract_z
Cu1 Cu 0.05655(3) 0.30655(3) 0.0000
C1 C 0.1324(2) 0.2812(2) -0.0925(2)
H1 H 0.1573 0.3077 -0.0836
N1 N 0.08970(19) 0.27043(19) -0.06356(19)
N2 N 0.13620(17) 0.25000(17) -0.1362
O3 O 0.0000 0.2500 0.0000
Cu1AA Cu 0.0000 0.19345(3) -0.05655(3)
Cu1Q Cu -0.05655(3) 0.2500 0.05655(3)
Cu1GG Cu 0.19345(3) 0.5000 -0.05655(3)
Cu1SE Cu 0.2500 0.44345(3) 0.05655(3)
Cu1EF Cu 0.19345(3) 0.2500 -0.19345(3)
Cu1FD Cu 0.0000 0.44345(3) 0.19345(3)
Cu1GF Cu -0.19345(3) 0.05655(3) 0.0000
Cu1FG Cu 0.05655(3) 0.0000 -0.19345(3)
Cu1QD Cu -0.05655(3) 0.05655(3) -0.2500
Cu1RE Cu -0.2500 0.30655(3) 0.19345(3)
Cu1MF Cu -0.19345(3) 0.19345(3) 0.2500
Cu1LF Cu 0.30655(3) 0.55655(3) 0.0000
C1EC C 0.0925(2) 0.2188(2) -0.1324(2)
C1C C 0.0312(2) 0.3824(2) 0.0925(2)
C1Q C -0.0312(2) 0.3425(2) 0.1324(2)
C1GG C 0.1176(2) 0.4075(2) -0.0312(2)
C1SE C 0.1575(2) 0.3676(2) 0.0312(2)
C1AA C -0.0925(2) 0.1176(2) -0.0312(2)
C1T C -0.1324(2) 0.1575(2) 0.0312(2)
C1GE C 0.0312(2) 0.0925(2) -0.1176(2)
C1WD C -0.0312(2) 0.1324(2) -0.1575(2)
C1BD C -0.1575(2) 0.2812(2) 0.1176(2)
C1MF C -0.1176(2) 0.2188(2) 0.1575(2)
H1EC H 0.0836 0.1923 -0.1573
H1C H 0.0577 0.4073 0.0836
H1Q H -0.0577 0.3336 0.1573
H1GG H 0.0927 0.4164 -0.0577
H1SE H 0.1664 0.3427 0.0577
H1AA H -0.0836 0.0927 -0.0577
H1T H -0.1573 0.1664 0.0577
H1GE H 0.0577 0.0836 -0.0927
H1WD H -0.0577 0.1573 -0.1664
H1BD H -0.1664 0.3077 0.0927
H1MF H -0.0927 0.1923 0.1664
N1EC N 0.06356(19) 0.22957(19) -0.08970(19)
N1C N 0.02043(19) 0.33970(19) 0.06356(19)
N1Q N -0.02043(19) 0.31356(19) 0.08970(19)
N1GG N 0.16030(19) 0.43644(19) -0.02043(19)
N1SE N 0.18644(19) 0.41030(19) 0.02043(19)
N1AA N -0.06356(19) 0.16030(19) -0.02043(19)
N1T N -0.08970(19) 0.18644(19) 0.02043(19)
N1GE N 0.02043(19) 0.06356(19) -0.16030(19)
N1WD N -0.02043(19) 0.08970(19) -0.18644(19)
N1BD N -0.18644(19) 0.27043(19) 0.16030(19)
N1MF N -0.16030(19) 0.22957(19) 0.18644(19)
N1FE N 0.22957(19) 0.56356(19) -0.08970(19)
N1AD N 0.31356(19) 0.47957(19) 0.08970(19)
N1EF N 0.22957(19) 0.18644(19) -0.16030(19)
N1HF N 0.16030(19) 0.31356(19) -0.22957(19)
N2C N 0.00000(17) 0.38620(17) 0.1362
N2SE N 0.1138 0.36380(17) 0.00000(17)
N2T N -0.13620(17) 0.1138 0.00000(17)
N2WD N 0.00000(17) 0.13620(17) -0.1138
N2MF N -0.11380(17) 0.25000(17) 0.1138
N2W N 0.1362 0.50000(17) -0.11380(17)
N2CA N 0.25000(17) 0.3862 0.11380(17)
O3SE O 0.2500 0.5000 0.0000
O3OE O 0.2500 0.2500 -0.2500
O1 O 0.2230(5) 0.2230(5) 0.0270(5)
O2 O 0.1124(3) 0.2478(2) 0.0667(3)
O4 O 0.1250 0.1250 0.1250
loop_
_geom_bond_atom_site_label_1
_geom_bond_atom_site_label_2
_geom_bond_site_symmetry_1
_geom_bond_site_symmetry_2
Cu1 N1 1_555 1_555
C1 H1 1_555 1_555
N1 C1 1_555 1_555
N2 C1 1_555 1_555
O3 Cu1 1_555 1_555
Cu1AA O3 1_555 1_555
Cu1Q O3 1_555 1_555
Cu1GG N1GG 1_555 1_555
Cu1SE N1SE 1_555 1_555
Cu1EF N2 1_555 1_555
Cu1FD N2C 1_555 1_555
Cu1GF N2T 1_555 1_555
Cu1FG N1GE 1_555 1_555
Cu1QD N1WD 1_555 1_555
Cu1RE N1BD 1_555 1_555
Cu1MF N1MF 1_555 1_555
Cu1LF O3SE 1_555 1_555
C1EC N2 1_555 1_555
C1C H1C 1_555 1_555
C1Q H1Q 1_555 1_555
C1GG H1GG 1_555 1_555
C1SE H1SE 1_555 1_555
C1AA H1AA 1_555 1_555
C1T H1T 1_555 1_555
C1GE H1GE 1_555 1_555
C1WD H1WD 1_555 1_555
C1BD H1BD 1_555 1_555
C1MF H1MF 1_555 1_555
H1EC C1EC 1_555 1_555
N1EC N1 1_555 1_555
N1C Cu1 1_555 1_555
N1Q Cu1Q 1_555 1_555
N1GG C1GG 1_555 1_555
N1SE C1SE 1_555 1_555
N1AA Cu1AA 1_555 1_555
N1T Cu1Q 1_555 1_555
N1GE C1GE 1_555 1_555
N1WD C1WD 1_555 1_555
N1BD C1BD 1_555 1_555
N1MF C1MF 1_555 1_555
N1FE Cu1GG 1_555 1_555
N1AD Cu1SE 1_555 1_555
N1EF Cu1EF 1_555 1_555
N1HF Cu1EF 1_555 1_555
N2C C1C 1_555 1_555
N2SE Cu1 1_555 1_555
N2T C1AA 1_555 1_555
N2WD Cu1AA 1_555 1_555
N2MF Cu1Q 1_555 1_555
N2W Cu1GG 1_555 1_555
N2CA Cu1SE 1_555 1_555
O3SE Cu1GG 1_555 1_555
O3OE Cu1EF 1_555 1_555
Cu1AA N1EC 1_555 1_555
Cu1SE O3SE 1_555 1_555
C1EC N1EC 1_555 1_555
C1C N1C 1_555 1_555
C1Q N1Q 1_555 1_555
C1Q N2C 1_555 1_555
C1GG N2SE 1_555 1_555
C1SE N2SE 1_555 1_555
C1AA N1AA 1_555 1_555
C1T N1T 1_555 1_555
C1T N2T 1_555 1_555
C1GE N2WD 1_555 1_555
C1WD N2WD 1_555 1_555
C1BD N2MF 1_555 1_555
C1MF N2MF 1_555 1_555
N1C N1Q 1_555 1_555
N1GG N1SE 1_555 1_555
N1AA N1T 1_555 1_555
N1GE N1WD 1_555 1_555
N1BD N1MF 1_555 1_555

#END
