
#######################################################################
#
#                 Cambridge Crystallographic Data Centre
#                                CCDC 
#
#######################################################################
#
# If this CIF has been generated from an entry in the Cambridge 
# Structural Database, then it will include bibliographic, chemical, 
# crystal, experimental, refinement or atomic coordinate data resulting 
# from the CCDC's data processing and validation procedures.
#
#######################################################################

data_DEGSUE
_symmetry_cell_setting           tetragonal
_symmetry_space_group_name_H-M   'P 41 21 2'
_symmetry_Int_Tables_number      92
_space_group_name_Hall           'P 4abw 2nw'
loop_
_symmetry_equiv_pos_site_id
_symmetry_equiv_pos_as_xyz
1 x,y,z
2 1/2+x,1/2-y,3/4-z
3 -x,-y,1/2+z
4 1/2-x,1/2+y,1/4-z
5 y,x,-z
6 1/2+y,1/2-x,3/4+z
7 1/2-y,1/2+x,1/4+z
8 -y,-x,1/2-z
_cell_length_a                   12.5555(18)
_cell_length_b                   12.5555(18)
_cell_length_c                   36.437(7)
_cell_angle_alpha                90
_cell_angle_beta                 90
_cell_angle_gamma                90
_cell_volume                     5743.95
loop_
_atom_site_label
_atom_site_type_symbol
_atom_site_fract_x
_atom_site_fract_y
_atom_site_fract_z
Cu1 Cu 0.44193(7) 0.98857(7) 0.40406(3)
Cu2 Cu 0.42566(7) 0.92563(7) 0.47633(3)
I1 I 0.44810(5) 1.12577(4) 0.459363(15)
I2 I 0.44828(4) 0.78285(4) 0.422383(14)
N1 N 0.5687(4) 1.0165(5) 0.36916(16)
N2 N 1.2968(5) 1.0149(5) 0.38005(17)
N3 N 0.5414(5) 0.8849(5) 0.51378(16)
N4 N 1.2788(5) 0.8967(6) 0.49960(19)
C1 C 0.6248(5) 0.9359(6) 0.35521(18)
H1 H 0.6066 0.8664 0.3615
C2 C 0.7088(6) 0.9527(6) 0.33169(19)
H2 H 0.7454 0.8943 0.3223
C3 C 0.7405(5) 1.0544(6) 0.32154(17)
C4 C 0.6833(6) 1.1351(6) 0.3367(2)
H3 H 0.7006 1.2052 0.3311
C5 C 0.6000(6) 1.1144(6) 0.3602(3)
H4 H 0.5637 1.1718 0.3703
C6 C 0.8326(5) 1.0711(7) 0.2961(2)
H5 H 0.8309 1.1455 0.2890
H6 H 0.8170 1.0304 0.2741
C7 C 0.9575(14) 1.0441(9) 0.3070(2)
H7 H 0.9713 0.9681 0.3073
H8 H 1.0075 1.0791 0.2907
C8 C 0.9594(8) 1.0826(9) 0.3382(3)
H9 H 0.9115 1.0452 0.3546
H10 H 0.9413 1.1577 0.3379
C9 C 1.0944(8) 1.0621(8) 0.3504(3)
C10 C 1.1142(7) 0.9740(7) 0.3720(3)
H11 H 1.0583 0.9283 0.3776
C11 C 1.2144(6) 0.9517(7) 0.3853(2)
H12 H 1.2243 0.8893 0.3986
C12 C 1.2809(8) 1.0987(7) 0.3579(3)
H13 H 1.3388 1.1418 0.3521
C13 C 1.1833(9) 1.1240(8) 0.3434(3)
H14 H 1.1767 1.1839 0.3285
C14 C 0.5663(8) 0.7836(7) 0.5202(3)
H15 H 0.5229 0.7308 0.5103
C15 C 0.6532(7) 0.7531(7) 0.5408(2)
H16 H 0.6676 0.6811 0.5443
C16 C 0.7186(6) 0.8281(6) 0.55614(18)
C17 C 0.6895(7) 0.9316(7) 0.5515(2)
H17 H 0.7282 0.9862 0.5625
C18 C 0.6011(7) 0.9537(6) 0.53018(19)
H18 H 0.5830 1.0250 0.5274
C19 C 0.8155(6) 0.7977(7) 0.5767(2)
H19 H 0.8160 0.7216 0.5812
H20 H 0.8176 0.8344 0.6001
C20 C 0.9185(7) 0.8316(13) 0.5516(3)
H21 H 0.9127 0.7979 0.5278
H22 H 0.9178 0.9081 0.5479
C21 C 1.0075(11) 0.8045(14) 0.5666(3)
H23 H 1.0099 0.7278 0.5696
H24 H 1.0135 0.8371 0.5906
C22 C 1.1043(12) 0.8421(16) 0.5413(4)
C23 C 1.1534(9) 0.7752(11) 0.5214(3)
H25 H 1.1286 0.7055 0.5205
C24 C 1.2393(8) 0.8008(8) 0.5015(3)
H26 H 1.2728 0.7471 0.4883
C25 C 1.2328(10) 0.9690(10) 0.5183(3)
H27 H 1.2597 1.0380 0.5182
C26 C 1.1406(14) 0.9449(13) 0.5392(5)
H28 H 1.1046 0.9990 0.5514
Cu1_2 Cu 1.44193(7) 0.98857(7) 0.40406(3)
Cu2_2 Cu 1.42566(7) 0.92563(7) 0.47633(3)
N2_2 N 0.2968(5) 1.0149(5) 0.38005(17)
N4_2 N 0.2788(5) 0.8967(6) 0.49960(19)
loop_
_geom_bond_atom_site_label_1
_geom_bond_atom_site_label_2
_geom_bond_site_symmetry_1
_geom_bond_site_symmetry_2
Cu1 I1 1_555 1_555
Cu2 I1 1_555 1_555
I2 Cu1 1_555 1_555
N1 Cu1 1_555 1_555
N2 C11 1_555 1_555
N3 Cu2 1_555 1_555
N4 C24 1_555 1_555
C1 N1 1_555 1_555
H1 C1 1_555 1_555
C2 C1 1_555 1_555
H2 C2 1_555 1_555
C3 C2 1_555 1_555
C4 C3 1_555 1_555
H3 C4 1_555 1_555
C5 N1 1_555 1_555
H4 C5 1_555 1_555
C6 C3 1_555 1_555
H5 C6 1_555 1_555
H6 C6 1_555 1_555
C7 C6 1_555 1_555
H7 C7 1_555 1_555
H8 C7 1_555 1_555
C8 C7 1_555 1_555
H9 C8 1_555 1_555
H10 C8 1_555 1_555
C9 C8 1_555 1_555
C10 C9 1_555 1_555
H11 C10 1_555 1_555
C11 C10 1_555 1_555
H12 C11 1_555 1_555
C12 N2 1_555 1_555
H13 C12 1_555 1_555
C13 C9 1_555 1_555
H14 C13 1_555 1_555
C14 N3 1_555 1_555
H15 C14 1_555 1_555
C15 C14 1_555 1_555
H16 C15 1_555 1_555
C16 C15 1_555 1_555
C17 C16 1_555 1_555
H17 C17 1_555 1_555
C18 N3 1_555 1_555
H18 C18 1_555 1_555
C19 C16 1_555 1_555
H19 C19 1_555 1_555
H20 C19 1_555 1_555
C20 C19 1_555 1_555
H21 C20 1_555 1_555
H22 C20 1_555 1_555
C21 C20 1_555 1_555
H23 C21 1_555 1_555
H24 C21 1_555 1_555
C22 C21 1_555 1_555
C23 C22 1_555 1_555
H25 C23 1_555 1_555
C24 C23 1_555 1_555
H26 C24 1_555 1_555
C25 N4 1_555 1_555
H27 C25 1_555 1_555
C26 C22 1_555 1_555
H28 C26 1_555 1_555
Cu1_2 N2 1_555 1_555
Cu2_2 N4 1_555 1_555
N2_2 Cu1 1_555 1_555
N4_2 Cu2 1_555 1_555
Cu2 I2 1_555 1_555
C4 C5 1_555 1_555
C12 C13 1_555 1_555
C17 C18 1_555 1_555
C25 C26 1_555 1_555

#END
