
#######################################################################
#
#                 Cambridge Crystallographic Data Centre
#                                CCDC 
#
#######################################################################
#
# If this CIF has been generated from an entry in the Cambridge 
# Structural Database, then it will include bibliographic, chemical, 
# crystal, experimental, refinement or atomic coordinate data resulting 
# from the CCDC's data processing and validation procedures.
#
#######################################################################

data_DEGSUE01
_symmetry_cell_setting           monoclinic
_symmetry_space_group_name_H-M   'C 2/m'
_symmetry_Int_Tables_number      12
_space_group_name_Hall           '-C 2y'
loop_
_symmetry_equiv_pos_site_id
_symmetry_equiv_pos_as_xyz
1 x,y,z
2 1/2+x,1/2+y,z
3 -x,y,-z
4 1/2-x,1/2+y,-z
5 -x,-y,-z
6 1/2-x,1/2-y,-z
7 x,-y,z
8 1/2+x,1/2-y,z
_cell_length_a                   16.283(3)
_cell_length_b                   13.068(3)
_cell_length_c                   8.4025(17)
_cell_angle_alpha                90
_cell_angle_beta                 93.52(3)
_cell_angle_gamma                90
_cell_volume                     1784.56
loop_
_atom_site_label
_atom_site_type_symbol
_atom_site_fract_x
_atom_site_fract_y
_atom_site_fract_z
I1 I 0.09682(6) 0.5000 0.31381(13)
Cu1 Cu 0.06254(12) 0.5000 0.6144(2)
N1 N 0.1131(6) 0.3706(6) 0.7223(10)
C1 C 0.1778(8) 0.3240(10) 0.6716(15)
H1 H 0.2024 0.3509 0.5837
C2 C 0.2109(8) 0.2375(10) 0.7419(16)
H2 H 0.2574 0.2083 0.7019
C3 C 0.1768(7) 0.1934(8) 0.8698(13)
C4 C 0.1106(8) 0.2442(9) 0.9227(15)
H3 H 0.0845 0.2191 1.0100
C5 C 0.0821(8) 0.3319(10) 0.8486(16)
H4 H 0.0381 0.3656 0.8907
C6 C 0.2088(8) 0.0963(8) 0.9448(15)
H5 H 0.1958 0.0952 1.0559
H6 H 0.2682 0.0948 0.9412
C7 C 0.1723(11) 0.0000 0.861(2)
H7 H 0.1853 0.0000 0.7496
H8 H 0.1129 0.0000 0.8651
I1D I -0.09682(6) 0.5000 0.68619(13)
Cu1D Cu -0.06254(12) 0.5000 0.3856(2)
Cu1_2 Cu 0.06254(12) -0.5000 0.6144(2)
N1F N 0.1131(6) -0.3706(6) 0.7223(10)
N1F_2 N 0.1131(6) 0.6294(6) 0.7223(10)
C1F C 0.1778(8) -0.3240(10) 0.6716(15)
H1F H 0.2024 -0.3509 0.5837
C2F C 0.2109(8) -0.2375(10) 0.7419(16)
H2F H 0.2574 -0.2083 0.7019
C3F C 0.1768(7) -0.1934(8) 0.8698(13)
C4F C 0.1106(8) -0.2442(9) 0.9227(15)
H3F H 0.0845 -0.2191 1.0100
C5F C 0.0821(8) -0.3319(10) 0.8486(16)
H4F H 0.0381 -0.3656 0.8907
C6F C 0.2088(8) -0.0963(8) 0.9448(15)
H5F H 0.1958 -0.0952 1.0559
H6F H 0.2682 -0.0948 0.9412
loop_
_geom_bond_atom_site_label_1
_geom_bond_atom_site_label_2
_geom_bond_site_symmetry_1
_geom_bond_site_symmetry_2
I1 Cu1 1_555 1_555
Cu1 N1 1_555 1_555
N1 C1 1_555 1_555
C1 H1 1_555 1_555
C2 C1 1_555 1_555
H2 C2 1_555 1_555
C3 C2 1_555 1_555
C4 C3 1_555 1_555
H3 C4 1_555 1_555
C5 N1 1_555 1_555
H4 C5 1_555 1_555
C6 C3 1_555 1_555
H5 C6 1_555 1_555
H6 C6 1_555 1_555
C7 C6 1_555 1_555
H7 C7 1_555 1_555
H8 C7 1_555 1_555
I1D Cu1 1_555 1_555
Cu1D I1 1_555 1_555
Cu1_2 N1F 1_555 1_555
N1F C1F 1_555 1_555
N1F_2 Cu1 1_555 1_555
C1F H1F 1_555 1_555
C2F C1F 1_555 1_555
H2F C2F 1_555 1_555
C3F C2F 1_555 1_555
C4F C3F 1_555 1_555
H3F C4F 1_555 1_555
C5F N1F 1_555 1_555
H4F C5F 1_555 1_555
C6F C7 1_555 1_555
H5F C6F 1_555 1_555
H6F C6F 1_555 1_555
C4 C5 1_555 1_555
I1D Cu1D 1_555 1_555
C3F C6F 1_555 1_555
C4F C5F 1_555 1_555

#END
