
#######################################################################
#
#                 Cambridge Crystallographic Data Centre
#                                CCDC 
#
#######################################################################
#
# If this CIF has been generated from an entry in the Cambridge 
# Structural Database, then it will include bibliographic, chemical, 
# crystal, experimental, refinement or atomic coordinate data resulting 
# from the CCDC's data processing and validation procedures.
#
#######################################################################

data_DEGSIS01
_symmetry_cell_setting           monoclinic
_symmetry_space_group_name_H-M   'P 21/c'
_symmetry_Int_Tables_number      14
_space_group_name_Hall           '-P 2ybc'
loop_
_symmetry_equiv_pos_site_id
_symmetry_equiv_pos_as_xyz
1 x,y,z
2 -x,1/2+y,1/2-z
3 -x,-y,-z
4 x,1/2-y,1/2+z
_cell_length_a                   9.607(4)
_cell_length_b                   11.693(4)
_cell_length_c                   12.068(4)
_cell_angle_alpha                90
_cell_angle_beta                 113.23(2)
_cell_angle_gamma                90
_cell_volume                     1245.75
loop_
_atom_site_label
_atom_site_type_symbol
_atom_site_fract_x
_atom_site_fract_y
_atom_site_fract_z
Cu1 Cu 0.65681(3) 0.36006(2) 0.01972(2)
O1 O 0.8914(3) 0.2369(2) 0.0306(2)
O2 O 0.77023(18) 0.25042(14) 0.15342(14)
O3 O 0.49185(19) 0.40382(14) 0.10436(14)
O4 O 0.37937(19) 0.56283(13) 0.13390(13)
N1 N 1.2005(2) -0.01602(16) 0.37724(17)
N2 N 0.5125(2) 0.26963(16) 0.43190(17)
C1 C 1.1813(3) -0.0109(2) 0.2602(2)
H1 H 1.2370 -0.0603 0.2331
C2 C 1.0823(3) 0.0647(3) 0.1792(2)
H2 H 1.0749 0.0677 0.1001
C3 C 0.9933(3) 0.1366(2) 0.2171(2)
C4 C 1.0111(3) 0.1309(2) 0.3375(2)
H3 H 0.9534 0.1769 0.3659
C5 C 1.1170(3) 0.0547(2) 0.4141(2)
H4 H 1.1305 0.0527 0.4948
C6 C 0.8771(3) 0.2146(2) 0.1258(2)
C7 C 0.5141(2) 0.31615(18) 0.32987(19)
H5 H 0.5734 0.2822 0.2940
C8 C 0.4299(3) 0.41347(19) 0.2762(2)
C9 C 0.3410(4) 0.4640(3) 0.3294(3)
H6 H 0.2855 0.5297 0.2966
C10 C 0.3364(5) 0.4147(3) 0.4327(3)
H7 H 0.2751 0.4455 0.4685
C11 C 0.4244(4) 0.3188(3) 0.4817(3)
H8 H 0.4224 0.2873 0.5518
C12 C 0.4362(2) 0.46312(18) 0.16203(19)
Cu1B Cu 0.34319(3) 0.63994(2) -0.01972(2)
Cu1A Cu 1.34319(3) -0.13994(2) 0.48028(2)
Cu1C Cu 0.65681(3) 0.13994(2) 0.51972(2)
O4B O 0.62063(19) 0.43717(13) -0.13390(13)
N1A N 0.7995(2) 0.48398(16) 0.12276(17)
N2C N 0.5125(2) 0.23037(16) -0.06810(17)
loop_
_geom_bond_atom_site_label_1
_geom_bond_atom_site_label_2
_geom_bond_site_symmetry_1
_geom_bond_site_symmetry_2
Cu1 O1 1_555 1_555
O1 C6 1_555 1_555
O2 Cu1 1_555 1_555
O3 Cu1 1_555 1_555
O4 C12 1_555 1_555
N1 C1 1_555 1_555
N2 C7 1_555 1_555
C1 H1 1_555 1_555
C2 C1 1_555 1_555
H2 C2 1_555 1_555
C3 C2 1_555 1_555
C4 C3 1_555 1_555
H3 C4 1_555 1_555
C5 N1 1_555 1_555
H4 C5 1_555 1_555
C6 O2 1_555 1_555
C7 H5 1_555 1_555
C8 C7 1_555 1_555
C9 C8 1_555 1_555
H6 C9 1_555 1_555
C10 C9 1_555 1_555
H7 C10 1_555 1_555
C11 N2 1_555 1_555
H8 C11 1_555 1_555
C12 O3 1_555 1_555
Cu1B O4 1_555 1_555
Cu1A N1 1_555 1_555
Cu1C N2 1_555 1_555
O4B Cu1 1_555 1_555
N1A Cu1 1_555 1_555
N2C Cu1 1_555 1_555
C3 C6 1_555 1_555
C4 C5 1_555 1_555
C8 C12 1_555 1_555
C10 C11 1_555 1_555

#END
