
#######################################################################
#
#                 Cambridge Crystallographic Data Centre
#                                CCDC 
#
#######################################################################
#
# If this CIF has been generated from an entry in the Cambridge 
# Structural Database, then it will include bibliographic, chemical, 
# crystal, experimental, refinement or atomic coordinate data resulting 
# from the CCDC's data processing and validation procedures.
#
#######################################################################

data_DEGSOY01
_symmetry_cell_setting           monoclinic
_symmetry_space_group_name_H-M   'C 2/c'
_symmetry_Int_Tables_number      15
_space_group_name_Hall           '-C 2yn'
loop_
_symmetry_equiv_pos_site_id
_symmetry_equiv_pos_as_xyz
1 x,y,z
2 1/2+x,1/2+y,z
3 -x,y,1/2-z
4 1/2-x,1/2+y,1/2-z
5 -x,-y,-z
6 1/2-x,1/2-y,-z
7 x,-y,1/2+z
8 1/2+x,1/2-y,1/2+z
_cell_length_a                   17.905(2)
_cell_length_b                   12.5802(13)
_cell_length_c                   16.4851(12)
_cell_angle_alpha                90.00
_cell_angle_beta                 111.104(7)
_cell_angle_gamma                90.00
_cell_volume                     3464.19
loop_
_atom_site_label
_atom_site_type_symbol
_atom_site_fract_x
_atom_site_fract_y
_atom_site_fract_z
Cu1 Cu 0.25604(2) 0.53574(3) 0.06204(2)
Cu2 Cu 0.16118(2) 0.73284(3) -0.03887(2)
O1 O 0.21381(13) 0.64553(16) 0.12651(13)
O2 O 0.34466(13) 0.67369(19) 0.17552(13)
O3 O 0.33645(13) 0.45282(17) 0.03359(13)
O4 O 0.30797(14) 0.50658(19) -0.10384(13)
O5 O 0.09539(13) 0.62416(17) -0.10931(14)
O6 O 0.14330(14) 0.47662(18) -0.03317(14)
O7 O 0.26141(12) 0.65386(16) -0.01674(13)
H1 H 0.264(2) 0.624(3) -0.052(2)
N1 N 0.25139(15) 0.9242(2) 0.35471(15)
N2 N 0.56330(14) 0.3060(2) -0.03741(16)
C1 C 0.3156(2) 0.9218(3) 0.3319(2)
H2 H 0.3552 0.9728 0.3548
C2 C 0.3259(2) 0.8467(3) 0.2758(2)
H3 H 0.3719 0.8472 0.2619
C3 C 0.26744(18) 0.7710(2) 0.24056(18)
C4 C 0.2015(2) 0.7724(3) 0.2647(2)
H4 H 0.1612 0.7220 0.2429
C5 C 0.1958(2) 0.8492(3) 0.3216(2)
H5 H 0.1511 0.8490 0.3377
C6 C 0.27696(18) 0.6901(2) 0.17704(18)
C7 C 0.5469(2) 0.3132(3) 0.0354(2)
H6 H 0.5837 0.2864 0.0868
C8 C 0.4777(2) 0.3587(3) 0.0373(2)
H7 H 0.4684 0.3620 0.0892
C9 C 0.42219(17) 0.3993(2) -0.03827(18)
C10 C 0.43875(19) 0.3903(3) -0.1135(2)
H8 H 0.4026 0.4158 -0.1659
C11 C 0.50892(19) 0.3436(3) -0.1107(2)
H9 H 0.5190 0.3378 -0.1621
C12 C 0.34870(18) 0.4570(2) -0.03759(19)
C13 C 0.04763(17) 0.4622(2) -0.17610(19)
C14 C 0.04756(18) 0.3515(2) -0.1762(2)
H10 H 0.0792 0.3141 -0.1272
C15 C 0.0000 0.2975(4) -0.2500
H11 H 0.0000 0.2236 -0.2500
C16 C 0.0000 0.5161(3) -0.2500
H12 H 0.0000 0.5900 -0.2500
C17 C 0.10024(17) 0.5234(2) -0.09893(19)
Cu1C Cu 0.24396(2) 0.03574(3) 0.43796(2)
Cu1C_2 Cu 0.24396(2) 1.03574(3) 0.43796(2)
Cu1B Cu -0.25604(2) 0.53574(3) -0.56204(2)
Cu1E Cu 0.24396(2) 0.96426(3) -0.06204(2)
Cu1A Cu -0.24396(2) 1.03574(3) 0.06204(2)
Cu2B Cu -0.16118(2) 0.73284(3) -0.46113(2)
Cu2E Cu 0.33882(2) 0.76716(3) 0.03887(2)
Cu2A Cu 0.66118(2) 0.23284(3) -0.03887(2)
O1C O 0.28619(13) 0.14553(16) 0.37349(13)
O2C O 0.15534(13) 0.17369(19) 0.32448(13)
O3A O -0.16355(13) 0.95282(17) 0.03359(13)
O3C O 0.16355(13) -0.04718(17) 0.46641(13)
O4A O -0.19203(14) 1.00658(19) -0.10384(13)
O5B O -0.09539(13) 0.62416(17) -0.39069(14)
O6B O -0.14330(14) 0.47662(18) -0.46683(14)
O6C O 0.35670(14) -0.02338(18) 0.53317(14)
O7E O 0.23859(12) 0.84614(16) 0.01674(13)
O7C O 0.23859(12) 0.15386(16) 0.51674(13)
O7G O -0.23859(12) 0.84614(16) -0.51674(13)
O7B O -0.26141(12) 0.65386(16) -0.48326(13)
H1E H 0.236(2) 0.876(3) 0.052(2)
H1C H 0.236(2) 0.124(3) 0.552(2)
H1G H -0.236(2) 0.876(3) -0.552(2)
H1B H -0.264(2) 0.624(3) -0.448(2)
N1C N 0.24861(15) 0.4242(2) 0.14529(15)
N1_2 N 0.25139(15) -0.0758(2) 0.35471(15)
N2A N 0.06330(14) 0.8060(2) -0.03741(16)
N2C N -0.06330(14) 0.8060(2) -0.46259(16)
C1C C 0.1844(2) 0.4218(3) 0.1681(2)
H2C H 0.1448 0.4728 0.1452
C2C C 0.1741(2) 0.3467(3) 0.2242(2)
H3C H 0.1281 0.3472 0.2381
C3C C 0.23256(18) 0.2710(2) 0.25944(18)
C4C C 0.2985(2) 0.2724(3) 0.2353(2)
H4C H 0.3388 0.2220 0.2571
C5C C 0.3042(2) 0.3492(3) 0.1784(2)
H5C H 0.3489 0.3490 0.1623
C6C C 0.22304(18) 0.1901(2) 0.32296(18)
C7A C 0.0469(2) 0.8132(3) 0.0354(2)
H6A H 0.0837 0.7864 0.0868
C8A C -0.0223(2) 0.8587(3) 0.0373(2)
H7A H -0.0316 0.8620 0.0892
C9A C -0.07781(17) 0.8993(2) -0.03827(18)
C10A C -0.06125(19) 0.8903(3) -0.1135(2)
H8A H -0.0974 0.9158 -0.1659
C11A C 0.00892(19) 0.8436(3) -0.1107(2)
H9A H 0.0190 0.8378 -0.1621
C12A C -0.15130(18) 0.9570(2) -0.03759(19)
C13B C -0.04763(17) 0.4622(2) -0.32390(19)
C14B C -0.04756(18) 0.3515(2) -0.3238(2)
H10B H -0.0792 0.3141 -0.3728
C17B C -0.10024(17) 0.5234(2) -0.40107(19)
loop_
_geom_bond_atom_site_label_1
_geom_bond_atom_site_label_2
_geom_bond_site_symmetry_1
_geom_bond_site_symmetry_2
Cu1 O1 1_555 1_555
Cu2 O5 1_555 1_555
O1 C6 1_555 1_555
O2 C6 1_555 1_555
O3 Cu1 1_555 1_555
O4 C12 1_555 1_555
O5 C17 1_555 1_555
O6 Cu1 1_555 1_555
O7 Cu1 1_555 1_555
H1 O7 1_555 1_555
N1 C1 1_555 1_555
N2 C7 1_555 1_555
C1 H2 1_555 1_555
C2 C1 1_555 1_555
H3 C2 1_555 1_555
C3 C2 1_555 1_555
C4 C3 1_555 1_555
H4 C4 1_555 1_555
C5 N1 1_555 1_555
H5 C5 1_555 1_555
C6 C3 1_555 1_555
C7 H6 1_555 1_555
C8 C7 1_555 1_555
H7 C8 1_555 1_555
C9 C8 1_555 1_555
C10 C9 1_555 1_555
H8 C10 1_555 1_555
C11 N2 1_555 1_555
H9 C11 1_555 1_555
C12 O3 1_555 1_555
C13 C14 1_555 1_555
C14 H10 1_555 1_555
C15 C14 1_555 1_555
H11 C15 1_555 1_555
C16 C13 1_555 1_555
H12 C16 1_555 1_555
C17 O6 1_555 1_555
Cu1C O1C 1_555 1_555
Cu1C_2 N1 1_555 1_555
Cu1B O6B 1_555 1_555
Cu1E O7E 1_555 1_555
Cu1A O3A 1_555 1_555
Cu2B O5B 1_555 1_555
Cu2E O7 1_555 1_555
Cu2A N2 1_555 1_555
O1C C6C 1_555 1_555
O2C C6C 1_555 1_555
O3A C12A 1_555 1_555
O3C Cu1C 1_555 1_555
O4A C12A 1_555 1_555
O5B C17B 1_555 1_555
O6B C17B 1_555 1_555
O6C Cu1C 1_555 1_555
O7E Cu2 1_555 1_555
O7C Cu1C 1_555 1_555
O7G Cu2B 1_555 1_555
O7B Cu1B 1_555 1_555
H1E O7E 1_555 1_555
H1C O7C 1_555 1_555
H1G O7G 1_555 1_555
H1B O7B 1_555 1_555
N1C Cu1 1_555 1_555
N1_2 Cu1C 1_555 1_555
N2A Cu2 1_555 1_555
N2C Cu2B 1_555 1_555
C1C N1C 1_555 1_555
H2C C1C 1_555 1_555
C2C C1C 1_555 1_555
H3C C2C 1_555 1_555
C3C C2C 1_555 1_555
C4C C3C 1_555 1_555
H4C C4C 1_555 1_555
C5C N1C 1_555 1_555
H5C C5C 1_555 1_555
C6C C3C 1_555 1_555
C7A N2A 1_555 1_555
H6A C7A 1_555 1_555
C8A C7A 1_555 1_555
H7A C8A 1_555 1_555
C9A C8A 1_555 1_555
C10A C9A 1_555 1_555
H8A C10A 1_555 1_555
C11A N2A 1_555 1_555
H9A C11A 1_555 1_555
C12A C9A 1_555 1_555
C13B C16 1_555 1_555
C14B C15 1_555 1_555
H10B C14B 1_555 1_555
C17B C13B 1_555 1_555
Cu2 O7 1_555 1_555
C4 C5 1_555 1_555
C9 C12 1_555 1_555
C10 C11 1_555 1_555
C13 C17 1_555 1_555
Cu2B O7B 1_555 1_555
Cu2E O7E 1_555 1_555
C4C C5C 1_555 1_555
C10A C11A 1_555 1_555
C13B C14B 1_555 1_555

#END
