
#######################################################################
#
#                 Cambridge Crystallographic Data Centre
#                                CCDC 
#
#######################################################################
#
# If this CIF has been generated from an entry in the Cambridge 
# Structural Database, then it will include bibliographic, chemical, 
# crystal, experimental, refinement or atomic coordinate data resulting 
# from the CCDC's data processing and validation procedures.
#
#######################################################################

data_DEGTEP01
_symmetry_cell_setting           monoclinic
_symmetry_space_group_name_H-M   'P 21/m'
_symmetry_Int_Tables_number      11
_space_group_name_Hall           '-P 2yb'
loop_
_symmetry_equiv_pos_site_id
_symmetry_equiv_pos_as_xyz
1 x,y,z
2 -x,1/2+y,-z
3 -x,-y,-z
4 x,1/2-y,z
_cell_length_a                   4.5328(2)
_cell_length_b                   15.2961(7)
_cell_length_c                   11.8858(7)
_cell_angle_alpha                90
_cell_angle_beta                 95.336(3)
_cell_angle_gamma                90
_cell_volume                     820.521
loop_
_atom_site_label
_atom_site_type_symbol
_atom_site_fract_x
_atom_site_fract_y
_atom_site_fract_z
Pb1 Pb -0.19912(5) 0.7500 0.78746(2)
I1 I -0.62795(10) 0.7500 0.98156(5)
I2 I 0.27648(10) 0.7500 0.59519(4)
N1 N -0.1515(10) 0.5765(3) 0.7685(5)
C1 C 0.0188(15) 0.5343(4) 0.8461(6)
H1 H 0.0504 0.5588 0.9179
C2 C 0.1533(14) 0.4552(4) 0.8263(6)
H2 H 0.2757 0.4287 0.8835
C3 C 0.1072(11) 0.4160(3) 0.7232(5)
C4 C -0.0793(13) 0.4584(3) 0.6437(5)
H3 H -0.1231 0.4338 0.5726
C5 C -0.2016(13) 0.5376(4) 0.6696(6)
H4 H -0.3266 0.5652 0.6140
C6 C 0.2584(10) 0.3318(3) 0.6961(5)
H5 H 0.4534 0.3302 0.7373
H6 H 0.2847 0.3307 0.6161
C7 C 0.0853(13) 0.2500 0.7260(7)
H7 H 0.0586 0.2500 0.8061
H8 H -0.1088 0.2500 0.6841
N1C N -0.1515(10) -0.0765(3) 0.7685(5)
C1C C 0.0188(15) -0.0343(4) 0.8461(6)
H1C H 0.0504 -0.0588 0.9179
C2C C 0.1533(14) 0.0448(4) 0.8263(6)
H2C H 0.2757 0.0713 0.8835
C3C C 0.1072(11) 0.0840(3) 0.7232(5)
C4C C -0.0793(13) 0.0416(3) 0.6437(5)
H3C H -0.1231 0.0662 0.5726
C5C C -0.2016(13) -0.0376(4) 0.6696(6)
H4C H -0.3266 -0.0652 0.6140
C6C C 0.2584(10) 0.1682(3) 0.6961(5)
H5C H 0.4534 0.1698 0.7373
H6C H 0.2847 0.1693 0.6161
Pb1_2 Pb -1.19912(5) 0.7500 0.78746(2)
Pb1_3 Pb -0.19912(5) -0.2500 0.78746(2)
Pb1_4 Pb 0.80088(5) 0.7500 0.78746(2)
I1_2 I 0.37205(10) 0.7500 0.98156(5)
I2_2 I -0.72352(10) 0.7500 0.59519(4)
N1C_2 N -0.1515(10) 0.9235(3) 0.7685(5)
loop_
_geom_bond_atom_site_label_1
_geom_bond_atom_site_label_2
_geom_bond_site_symmetry_1
_geom_bond_site_symmetry_2
Pb1 I1 1_555 1_555
I1 Pb1_2 1_555 1_555
I2 Pb1 1_555 1_555
N1 Pb1 1_555 1_555
C1 N1 1_555 1_555
H1 C1 1_555 1_555
C2 C1 1_555 1_555
H2 C2 1_555 1_555
C3 C2 1_555 1_555
C4 C3 1_555 1_555
H3 C4 1_555 1_555
C5 N1 1_555 1_555
H4 C5 1_555 1_555
C6 C3 1_555 1_555
H5 C6 1_555 1_555
H6 C6 1_555 1_555
C7 C6 1_555 1_555
H7 C7 1_555 1_555
H8 C7 1_555 1_555
N1C C1C 1_555 1_555
C1C H1C 1_555 1_555
C2C C1C 1_555 1_555
H2C C2C 1_555 1_555
C3C C2C 1_555 1_555
C4C C3C 1_555 1_555
H3C C4C 1_555 1_555
C5C N1C 1_555 1_555
H4C C5C 1_555 1_555
C6C C7 1_555 1_555
H5C C6C 1_555 1_555
H6C C6C 1_555 1_555
Pb1_2 I2_2 1_555 1_555
Pb1_3 N1C 1_555 1_555
Pb1_4 I2 1_555 1_555
I1_2 Pb1 1_555 1_555
I2_2 Pb1 1_555 1_555
N1C_2 Pb1 1_555 1_555
C4 C5 1_555 1_555
C3C C6C 1_555 1_555
C4C C5C 1_555 1_555
Pb1_4 I1_2 1_555 1_555

#END
