
#######################################################################
#
#                 Cambridge Crystallographic Data Centre
#                                CCDC 
#
#######################################################################
#
# If this CIF has been generated from an entry in the Cambridge 
# Structural Database, then it will include bibliographic, chemical, 
# crystal, experimental, refinement or atomic coordinate data resulting 
# from the CCDC's data processing and validation procedures.
#
#######################################################################

data_DEGZEU
_symmetry_cell_setting           monoclinic
_symmetry_space_group_name_H-M   'C 2/c'
_symmetry_Int_Tables_number      15
_space_group_name_Hall           '-C 2yn'
loop_
_symmetry_equiv_pos_site_id
_symmetry_equiv_pos_as_xyz
1 x,y,z
2 1/2+x,1/2+y,z
3 -x,y,1/2-z
4 1/2-x,1/2+y,1/2-z
5 -x,-y,-z
6 1/2-x,1/2-y,-z
7 x,-y,1/2+z
8 1/2+x,1/2-y,1/2+z
_cell_length_a                   37.78(1)
_cell_length_b                   13.596(5)
_cell_length_c                   20.708(6)
_cell_angle_alpha                90
_cell_angle_beta                 103.90(2)
_cell_angle_gamma                90
_cell_volume                     10325.3
loop_
_atom_site_label
_atom_site_type_symbol
_atom_site_fract_x
_atom_site_fract_y
_atom_site_fract_z
Zn1 Zn 0.0000 0.1210(3) -0.7500
Zn2 Zn 0.1006(1) -0.0161(2) -0.5408(1)
C1 C 0.2170(7) 0.0471(17) -0.3755(11)
C2 C 0.2436(10) 0.1092(26) -0.3849(16)
C3 C 0.2481(10) 0.2016(27) -0.3560(17)
C4 C 0.2251(13) 0.2347(31) -0.3192(21)
C5 C 0.1993(12) 0.1712(31) -0.3099(19)
C6 C 0.1925(9) 0.0773(23) -0.3373(14)
O1 O 0.2171(5) -0.0432(13) -0.4038(8)
C7 C 0.1171(7) 0.2252(19) -0.5240(12)
C8 C 0.0985(8) 0.2829(21) -0.5753(13)
C9 C 0.1182(9) 0.3578(24) -0.5960(14)
C10 C 0.1534(11) 0.3653(26) -0.5680(17)
C11 C 0.1719(10) 0.3060(27) -0.5206(16)
C12 C 0.1533(8) 0.2279(21) -0.4939(13)
O2 O 0.0984(3) 0.1423(9) -0.5034(6)
C13 C 0.1709(8) -0.0101(22) -0.6021(13)
C14 C 0.1967(9) 0.0602(23) -0.5840(13)
C15 C 0.2340(10) 0.0284(27) -0.5750(15)
C16 C 0.2419(9) -0.0657(26) -0.5875(15)
C17 C 0.2168(12) -0.1305(30) -0.6096(19)
C18 C 0.1780(9) -0.1072(24) -0.6156(15)
O3 O 0.1345(4) 0.0202(11) -0.6103(7)
C19 C 0.1155(7) -0.3696(19) -0.3621(12)
C20 C 0.1446(8) -0.3711(21) -0.3081(14)
C21 C 0.1746(10) -0.4348(29) -0.3079(18)
C22 C 0.1699(10) -0.4949(26) -0.3618(17)
C23 C 0.1427(10) -0.5039(27) -0.4127(17)
C24 C 0.1139(9) -0.4330(24) -0.4162(15)
O4 O 0.0881(4) -0.3022(11) -0.3622(7)
C25 C 0.1119(8) -0.3300(21) -0.6484(14)
C26 C 0.1269(10) -0.3398(27) -0.7094(16)
C27 C 0.1635(10) -0.3761(25) -0.6926(18)
C28 C 0.1857(11) -0.3880(28) -0.6345(21)
C29 C 0.1710(10) -0.3759(24) -0.5739(16)
C30 C 0.1332(9) -0.3458(23) -0.5904(15)
O5 O 0.0751(5) -0.2969(14) -0.6704(8)
Zn3 Zn 0.0778(1) -0.1563(2) -0.4278(1)
O6 O -0.0055(4) 0.0108(12) -0.6812(6)
C31 C 0.1930(7) -0.1251(18) -0.3927(11)
C32 C 0.1993(9) -0.2121(23) -0.4409(15)
C33 C 0.2035(11) -0.1455(27) -0.3152(17)
C34 C 0.1534(7) -0.0961(19) -0.4250(12)
O7 O 0.1461(4) -0.0415(11) -0.4713(7)
O8 O 0.1306(4) -0.1404(11) -0.3981(7)
C35 C 0.0726(7) 0.1565(19) -0.4597(12)
C36 C 0.0892(8) 0.2283(21) -0.4004(14)
C37 C 0.0347(9) 0.1947(24) -0.5066(15)
C38 C 0.0687(7) 0.0574(19) -0.4370(12)
O9 O 0.0693(4) -0.0185(10) -0.4727(6)
O10 O 0.0607(6) 0.0469(16) -0.3807(10)
C39 C 0.1141(6) 0.0418(16) -0.6786(10)
C40 C 0.1314(7) 0.1283(20) -0.7094(13)
C41 C 0.1091(8) -0.0503(21) -0.7250(13)
C42 C 0.0751(6) 0.0696(19) -0.6697(12)
O11 O 0.0662(4) 0.0379(11) -0.6200(6)
O12 O 0.0562(4) 0.1151(12) -0.7193(8)
C43 C 0.0542(6) -0.3346(18) -0.3453(11)
C44 C 0.0641(9) -0.3681(22) -0.2732(14)
C45 C 0.0307(8) -0.4040(20) -0.3959(13)
C46 C 0.0350(7) -0.2334(19) -0.3434(13)
O13 O 0.0410(4) -0.1600(11) -0.3775(7)
O14 O 0.0084(4) -0.2358(11) -0.3144(7)
C47 C 0.0562(7) -0.2971(19) -0.6172(12)
C48 C 0.0174(9) -0.2477(23) -0.6557(15)
C49 C 0.0501(8) -0.4033(21) -0.5950(13)
C50 C 0.0713(7) -0.2282(18) -0.5657(11)
O15 O 0.0619(5) -0.2370(11) -0.5102(8)
O16 O 0.0904(5) -0.1573(12) -0.5741(7)
H1 H 0.1686 0.1878 -0.2929
H2 H 0.2114 -0.1953 -0.3429
H3 H 0.0703 0.2795 -0.5996
H4 H 0.0915 0.3823 -0.6218
H5 H 0.2006 0.3149 -0.4828
H6 H 0.1113 0.1920 -0.3752
H7 H 0.1054 -0.0688 -0.7777
H8 H 0.1329 -0.0327 -0.7061
H9 H 0.0998 -0.1088 -0.7082
H10 H 0.0787 -0.3290 -0.2378
H11 H 0.0402 -0.3944 -0.2608
H12 H 0.0530 -0.4353 -0.3774
H13 H 0.0100 -0.4058 -0.3787
O6B O 0.0055(4) 0.0108(12) -0.8188(6)
O12B O -0.0562(4) 0.1151(12) -0.7807(8)
O14F O 0.0084(4) 0.2358(11) -0.8144(7)
O14D O -0.0084(4) 0.2358(11) -0.6856(7)
Zn1D Zn 0.0000 -0.1210(3) -0.2500
C42B C -0.0751(6) 0.0696(19) -0.8303(12)
C39B C -0.1141(6) 0.0418(16) -0.8214(10)
O11B O -0.0662(4) 0.0379(11) -0.8800(6)
O3B O -0.1345(4) 0.0202(11) -0.8897(7)
C40B C -0.1314(7) 0.1283(20) -0.7906(13)
C41B C -0.1091(8) -0.0503(21) -0.7750(13)
Zn2B Zn -0.1006(1) -0.0161(2) -0.9592(1)
C13B C -0.1709(8) -0.0101(22) -0.8979(13)
H7B H -0.1054 -0.0688 -0.7223
H8B H -0.1329 -0.0327 -0.7939
H9B H -0.0998 -0.1088 -0.7918
C14B C -0.1967(9) 0.0602(23) -0.9160(13)
C18B C -0.1780(9) -0.1072(24) -0.8844(15)
C15B C -0.2340(10) 0.0284(27) -0.9250(15)
C17B C -0.2168(12) -0.1305(30) -0.8904(19)
C16B C -0.2419(9) -0.0657(26) -0.9125(15)
O2B O -0.0984(3) 0.1423(9) -0.9966(6)
O7B O -0.1461(4) -0.0415(11) -1.0287(7)
O9B O -0.0693(4) -0.0185(10) -1.0273(6)
O16B O -0.0904(5) -0.1573(12) -0.9259(7)
C50B C -0.0713(7) -0.2282(18) -0.9343(11)
Zn3B Zn -0.0778(1) -0.1563(2) -1.0722(1)
C38B C -0.0687(7) 0.0574(19) -1.0630(12)
C7B C -0.1171(7) 0.2252(19) -0.9760(12)
C35B C -0.0726(7) 0.1565(19) -1.0403(12)
C34B C -0.1534(7) -0.0961(19) -1.0750(12)
C47B C -0.0562(7) -0.2971(19) -0.8828(12)
O15B O -0.0619(5) -0.2370(11) -0.9898(8)
O10B O -0.0607(6) 0.0469(16) -1.1193(10)
C8B C -0.0985(8) 0.2829(21) -0.9247(13)
C12B C -0.1533(8) 0.2279(21) -1.0061(13)
C36B C -0.0892(8) 0.2283(21) -1.0996(14)
C37B C -0.0347(9) 0.1947(24) -0.9934(15)
C31B C -0.1930(7) -0.1251(18) -1.1073(11)
O8B O -0.1306(4) -0.1404(11) -1.1019(7)
O5B O -0.0751(5) -0.2969(14) -0.8296(8)
C48B C -0.0174(9) -0.2477(23) -0.8443(15)
C49B C -0.0501(8) -0.4033(21) -0.9050(13)
C9B C -0.1182(9) 0.3578(24) -0.9040(14)
H3B H -0.0703 0.2795 -0.9004
C11B C -0.1719(10) 0.3060(27) -0.9794(16)
H6B H -0.1113 0.1920 -1.1248
O1B O -0.2171(5) -0.0432(13) -1.0962(8)
C32B C -0.1993(9) -0.2121(23) -1.0591(15)
C33B C -0.2035(11) -0.1455(27) -1.1848(17)
C25B C -0.1119(8) -0.3300(21) -0.8516(14)
C10B C -0.1534(11) 0.3653(26) -0.9320(17)
H4B H -0.0915 0.3823 -0.8782
H5B H -0.2006 0.3149 -1.0172
C1B C -0.2170(7) 0.0471(17) -1.1245(11)
H2B H -0.2114 -0.1953 -1.1571
C26B C -0.1269(10) -0.3398(27) -0.7906(16)
C30B C -0.1332(9) -0.3458(23) -0.9096(15)
C2B C -0.2436(10) 0.1092(26) -1.1151(16)
C6B C -0.1925(9) 0.0773(23) -1.1627(14)
C27B C -0.1635(10) -0.3761(25) -0.8074(18)
C29B C -0.1710(10) -0.3759(24) -0.9261(16)
C3B C -0.2481(10) 0.2016(27) -1.1440(17)
C5B C -0.1993(12) 0.1712(31) -1.1901(19)
C28B C -0.1857(11) -0.3880(28) -0.8655(21)
C4B C -0.2251(13) 0.2347(31) -1.1808(21)
H1B H -0.1686 0.1878 -1.2071
O4B O -0.0881(4) -0.3022(11) -1.1378(7)
O13B O -0.0410(4) -0.1600(11) -1.1225(7)
C19B C -0.1155(7) -0.3696(19) -1.1379(12)
C43B C -0.0542(6) -0.3346(18) -1.1547(11)
C46B C -0.0350(7) -0.2334(19) -1.1566(13)
C20B C -0.1446(8) -0.3711(21) -1.1919(14)
C24B C -0.1139(9) -0.4330(24) -1.0838(15)
C44B C -0.0641(9) -0.3681(22) -1.2268(14)
C45B C -0.0307(8) -0.4040(20) -1.1041(13)
O14B O -0.0084(4) -0.2358(11) -1.1856(7)
C21B C -0.1746(10) -0.4348(29) -1.1921(18)
C23B C -0.1427(10) -0.5039(27) -1.0873(17)
H10B H -0.0787 -0.3290 -1.2622
H11B H -0.0402 -0.3944 -1.2392
H12B H -0.0530 -0.4353 -1.1226
H13B H -0.0100 -0.4058 -1.1213
Zn1D_2 Zn 0.0000 -0.1210(3) -1.2500
C22B C -0.1699(10) -0.4949(26) -1.1382(17)
loop_
_geom_bond_atom_site_label_1
_geom_bond_atom_site_label_2
_geom_bond_site_symmetry_1
_geom_bond_site_symmetry_2
Zn1 O6 1_555 1_555
Zn2 O2 1_555 1_555
C1 C2 1_555 1_555
C2 C3 1_555 1_555
C3 C4 1_555 1_555
C4 C5 1_555 1_555
C5 C6 1_555 1_555
C6 C1 1_555 1_555
O1 C1 1_555 1_555
C7 C8 1_555 1_555
C8 C9 1_555 1_555
C9 C10 1_555 1_555
C10 C11 1_555 1_555
C11 C12 1_555 1_555
C12 C7 1_555 1_555
O2 C7 1_555 1_555
C13 C14 1_555 1_555
C14 C15 1_555 1_555
C15 C16 1_555 1_555
C16 C17 1_555 1_555
C17 C18 1_555 1_555
C18 C13 1_555 1_555
O3 Zn2 1_555 1_555
C19 C20 1_555 1_555
C20 C21 1_555 1_555
C21 C22 1_555 1_555
C22 C23 1_555 1_555
C23 C24 1_555 1_555
C24 C19 1_555 1_555
O4 C19 1_555 1_555
C25 C26 1_555 1_555
C26 C27 1_555 1_555
C27 C28 1_555 1_555
C28 C29 1_555 1_555
C29 C30 1_555 1_555
C30 C25 1_555 1_555
O5 C25 1_555 1_555
Zn3 O4 1_555 1_555
C31 O1 1_555 1_555
C32 C31 1_555 1_555
C33 C31 1_555 1_555
C34 C31 1_555 1_555
O7 Zn2 1_555 1_555
O8 Zn3 1_555 1_555
C35 O2 1_555 1_555
C36 C35 1_555 1_555
C37 C35 1_555 1_555
C38 C35 1_555 1_555
O9 Zn2 1_555 1_555
O10 C38 1_555 1_555
C39 O3 1_555 1_555
C40 C39 1_555 1_555
C41 C39 1_555 1_555
C42 C39 1_555 1_555
O11 Zn2 1_555 1_555
O12 Zn1 1_555 1_555
C43 O4 1_555 1_555
C44 C43 1_555 1_555
C45 C43 1_555 1_555
C46 C43 1_555 1_555
O13 Zn3 1_555 1_555
O14 C46 1_555 1_555
C47 O5 1_555 1_555
C48 C47 1_555 1_555
C49 C47 1_555 1_555
C50 C47 1_555 1_555
O15 Zn3 1_555 1_555
O16 Zn2 1_555 1_555
H1 C5 1_555 1_555
H2 C33 1_555 1_555
H3 C8 1_555 1_555
H4 C9 1_555 1_555
H5 C11 1_555 1_555
H6 C36 1_555 1_555
H7 C41 1_555 1_555
H8 C41 1_555 1_555
H9 C41 1_555 1_555
H10 C44 1_555 1_555
H11 C44 1_555 1_555
H12 C45 1_555 1_555
H13 C45 1_555 1_555
O6B Zn1 1_555 1_555
O12B Zn1 1_555 1_555
O14F Zn1 1_555 1_555
O14D Zn1 1_555 1_555
Zn1D O14 1_555 1_555
C42B O12B 1_555 1_555
C39B C42B 1_555 1_555
O11B C42B 1_555 1_555
O3B C39B 1_555 1_555
C40B C39B 1_555 1_555
C41B C39B 1_555 1_555
Zn2B O11B 1_555 1_555
C13B O3B 1_555 1_555
H7B C41B 1_555 1_555
H8B C41B 1_555 1_555
H9B C41B 1_555 1_555
C14B C13B 1_555 1_555
C18B C13B 1_555 1_555
C15B C14B 1_555 1_555
C17B C18B 1_555 1_555
C16B C15B 1_555 1_555
O2B Zn2B 1_555 1_555
O7B Zn2B 1_555 1_555
O9B Zn2B 1_555 1_555
O16B Zn2B 1_555 1_555
C50B O16B 1_555 1_555
Zn3B O9B 1_555 1_555
C38B O9B 1_555 1_555
C7B O2B 1_555 1_555
C35B O2B 1_555 1_555
C34B O7B 1_555 1_555
C47B C50B 1_555 1_555
O15B C50B 1_555 1_555
O10B C38B 1_555 1_555
C8B C7B 1_555 1_555
C12B C7B 1_555 1_555
C36B C35B 1_555 1_555
C37B C35B 1_555 1_555
C31B C34B 1_555 1_555
O8B Zn3B 1_555 1_555
O5B C47B 1_555 1_555
C48B C47B 1_555 1_555
C49B C47B 1_555 1_555
C9B C8B 1_555 1_555
H3B C8B 1_555 1_555
C11B C12B 1_555 1_555
H6B C36B 1_555 1_555
O1B C31B 1_555 1_555
C32B C31B 1_555 1_555
C33B C31B 1_555 1_555
C25B O5B 1_555 1_555
C10B C9B 1_555 1_555
H4B C9B 1_555 1_555
H5B C11B 1_555 1_555
C1B O1B 1_555 1_555
H2B C33B 1_555 1_555
C26B C25B 1_555 1_555
C30B C25B 1_555 1_555
C2B C1B 1_555 1_555
C6B C1B 1_555 1_555
C27B C26B 1_555 1_555
C29B C30B 1_555 1_555
C3B C2B 1_555 1_555
C5B C6B 1_555 1_555
C28B C27B 1_555 1_555
C4B C3B 1_555 1_555
H1B C5B 1_555 1_555
O4B Zn3B 1_555 1_555
O13B Zn3B 1_555 1_555
C19B O4B 1_555 1_555
C43B O4B 1_555 1_555
C46B O13B 1_555 1_555
C20B C19B 1_555 1_555
C24B C19B 1_555 1_555
C44B C43B 1_555 1_555
C45B C43B 1_555 1_555
O14B C46B 1_555 1_555
C21B C20B 1_555 1_555
C23B C24B 1_555 1_555
H10B C44B 1_555 1_555
H11B C44B 1_555 1_555
H12B C45B 1_555 1_555
H13B C45B 1_555 1_555
Zn1D_2 O14B 1_555 1_555
C22B C21B 1_555 1_555
C13 O3 1_555 1_555
Zn3 O9 1_555 1_555
C34 O7 1_555 1_555
C34 O8 1_555 1_555
C38 O9 1_555 1_555
C42 O11 1_555 1_555
C42 O12 1_555 1_555
C46 O13 1_555 1_555
C50 O15 1_555 1_555
C50 O16 1_555 1_555
O3B Zn2B 1_555 1_555
C17B C16B 1_555 1_555
Zn3B O15B 1_555 1_555
C38B C35B 1_555 1_555
C34B O8B 1_555 1_555
C11B C10B 1_555 1_555
C29B C28B 1_555 1_555
C5B C4B 1_555 1_555
C43B C46B 1_555 1_555
C23B C22B 1_555 1_555

#END
