
#######################################################################
#
#                 Cambridge Crystallographic Data Centre
#                                CCDC 
#
#######################################################################
#
# If this CIF has been generated from an entry in the Cambridge 
# Structural Database, then it will include bibliographic, chemical, 
# crystal, experimental, refinement or atomic coordinate data resulting 
# from the CCDC's data processing and validation procedures.
#
#######################################################################

data_DEHBEY
_symmetry_cell_setting           monoclinic
_symmetry_space_group_name_H-M   'P 21/n'
_symmetry_Int_Tables_number      14
_space_group_name_Hall           '-P 2yn'
loop_
_symmetry_equiv_pos_site_id
_symmetry_equiv_pos_as_xyz
1 x,y,z
2 1/2-x,1/2+y,1/2-z
3 -x,-y,-z
4 1/2+x,1/2-y,1/2+z
_cell_length_a                   9.491(2)
_cell_length_b                   14.772(2)
_cell_length_c                   14.813(3)
_cell_angle_alpha                90
_cell_angle_beta                 91.26(2)
_cell_angle_gamma                90
_cell_volume                     2076.3
loop_
_atom_site_label
_atom_site_type_symbol
_atom_site_fract_x
_atom_site_fract_y
_atom_site_fract_z
Gd1 Gd 0.52583(2) 0.663755(13) 0.245831(13)
Gd2 Gd 0.68918(2) 0.153890(13) 0.593810(13)
O1 O 0.4202(3) 0.5248(2) 0.3051(2)
O2 O 0.6475(3) 0.5159(2) 0.2827(2)
C1 C 0.5393(5) 0.4860(3) 0.3190(3)
C2 C 0.5523(5) 0.4107(3) 0.3847(3)
H1 H 0.6284 0.3714 0.3802
C3 C 0.4619(4) 0.3965(3) 0.4491(3)
H2 H 0.3758 0.4266 0.4461
C4 C 0.4905(5) 0.3348(3) 0.5265(3)
O3 O 0.5907(3) 0.2804(2) 0.5212(2)
O4 O 0.4131(4) 0.3440(2) 0.5944(2)
O5 O 0.5380(3) 0.8159(2) 0.3133(2)
O6 O 0.5578(3) 0.8962(2) 0.4373(2)
C5 C 0.6156(4) 0.8552(3) 0.3730(3)
C6 C 0.7692(5) 0.8560(3) 0.3653(3)
H3 H 0.8065 0.8773 0.3118
C7 C 0.8575(5) 0.8288(4) 0.4289(3)
H4 H 0.8214 0.8086 0.4831
C8 C 1.0104(4) 0.8289(3) 0.4182(3)
O7 O 1.0885(3) 0.7708(2) 0.4584(2)
O8 O 1.0660(3) 0.8878(2) 0.3675(2)
O9 O 0.7625(3) 0.6806(2) 0.2067(2)
O10 O 0.7936(3) 0.6270(2) 0.0677(2)
C9 C 0.8398(5) 0.6585(3) 0.1421(3)
C10 C 0.9940(5) 0.6667(3) 0.1529(3)
H5 H 1.0476 0.6566 0.1020
C11 C 1.0630(4) 0.6871(3) 0.2290(3)
H6 H 1.0123 0.7028 0.2797
C12 C 1.2199(4) 0.6855(3) 0.2349(3)
O11 O 1.2830(3) 0.7228(2) 0.3018(2)
O12 O 1.2875(3) 0.6469(2) 0.1749(2)
O13 O 0.5131(4) 0.7782(2) 0.1297(2)
H7 H 0.537(6) 0.766(4) 0.0759(19)
H8 H 0.545(6) 0.831(2) 0.140(4)
O14 O 0.5315(3) 0.5731(2) 0.1077(2)
H9 H 0.618(3) 0.581(3) 0.094(4)
H10 H 0.526(5) 0.5150(14) 0.112(4)
O15 O 0.6907(4) 0.0747(3) 0.7374(2)
H11 H 0.618(3) 0.069(4) 0.771(3)
H12 H 0.757(4) 0.048(4) 0.767(3)
O16 O 0.7150(4) -0.0034(2) 0.5599(2)
H13 H 0.665(6) -0.032(3) 0.522(3)
H14 H 0.723(6) -0.036(3) 0.606(2)
Gd1B Gd 0.47417(2) 0.336245(13) 0.754169(13)
Gd1_2 Gd 1.52583(2) 0.663755(13) 0.245831(13)
Gd2B Gd 0.31082(2) 0.846110(13) 0.406190(13)
Gd2B_2 Gd 1.31082(2) 0.846110(13) 0.406190(13)
Gd2A Gd 0.81082(2) 0.653890(13) -0.093810(13)
O4B O 0.5869(4) 0.6560(2) 0.4056(2)
O5B O 0.4620(3) 0.1841(2) 0.6867(2)
O6B O 0.4422(3) 0.1038(2) 0.5627(2)
O7B O 0.9115(3) 0.2292(2) 0.5416(2)
O8B O 0.9340(3) 0.1122(2) 0.6325(2)
O10A O 0.7064(3) 0.1270(2) 0.4323(2)
O11_2 O 0.2830(3) 0.7228(2) 0.3018(2)
O11B O 0.7170(3) 0.2772(2) 0.6982(2)
O12_2 O 0.2875(3) 0.6469(2) 0.1749(2)
O17 O 0.5659(5) 0.9631(3) 0.1653(3)
H15 H 0.506(6) 1.002(4) 0.141(4)
H16 H 0.615(7) 0.952(5) 0.118(3)
O18 O 0.1503(8) 0.5666(5) 0.4327(5)
O19? O 0.8703(13) 0.5944(10) 0.4572(9)
loop_
_geom_bond_atom_site_label_1
_geom_bond_atom_site_label_2
_geom_bond_site_symmetry_1
_geom_bond_site_symmetry_2
Gd1 O1 1_555 1_555
Gd2 O3 1_555 1_555
O1 C1 1_555 1_555
O2 Gd1 1_555 1_555
C1 O2 1_555 1_555
C2 C1 1_555 1_555
H1 C2 1_555 1_555
C3 C2 1_555 1_555
H2 C3 1_555 1_555
C4 C3 1_555 1_555
O3 C4 1_555 1_555
O4 C4 1_555 1_555
O5 Gd1 1_555 1_555
O6 C5 1_555 1_555
C5 O5 1_555 1_555
C6 C5 1_555 1_555
H3 C6 1_555 1_555
C7 C6 1_555 1_555
H4 C7 1_555 1_555
C8 C7 1_555 1_555
O7 C8 1_555 1_555
O8 C8 1_555 1_555
O9 Gd1 1_555 1_555
O10 C9 1_555 1_555
C9 O9 1_555 1_555
C10 C9 1_555 1_555
H5 C10 1_555 1_555
C11 C10 1_555 1_555
H6 C11 1_555 1_555
C12 C11 1_555 1_555
O11 C12 1_555 1_555
O12 C12 1_555 1_555
O13 Gd1 1_555 1_555
H7 O13 1_555 1_555
H8 O13 1_555 1_555
O14 Gd1 1_555 1_555
H9 O14 1_555 1_555
H10 O14 1_555 1_555
O15 Gd2 1_555 1_555
H11 O15 1_555 1_555
H12 O15 1_555 1_555
O16 Gd2 1_555 1_555
H13 O16 1_555 1_555
H14 O16 1_555 1_555
O17 H15 1_555 1_555
H16 O17 1_555 1_555
Gd1B O4 1_555 1_555
Gd1_2 O11 1_555 1_555
Gd2B O5 1_555 1_555
Gd2B_2 O7 1_555 1_555
Gd2A O10 1_555 1_555
O4B Gd1 1_555 1_555
O5B Gd2 1_555 1_555
O6B Gd2 1_555 1_555
O7B Gd2 1_555 1_555
O8B Gd2 1_555 1_555
O10A Gd2 1_555 1_555
O11_2 Gd1 1_555 1_555
O11B Gd2 1_555 1_555
O12_2 Gd1 1_555 1_555
O6 Gd2B 1_555 1_555
O8 Gd2B_2 1_555 1_555
O11 Gd2B_2 1_555 1_555
O12 Gd1_2 1_555 1_555
Gd1B O5B 1_555 1_555
Gd1B O11B 1_555 1_555
Gd2B O11_2 1_555 1_555

#END
