
#######################################################################
#
#                 Cambridge Crystallographic Data Centre
#                                CCDC 
#
#######################################################################
#
# If this CIF has been generated from an entry in the Cambridge 
# Structural Database, then it will include bibliographic, chemical, 
# crystal, experimental, refinement or atomic coordinate data resulting 
# from the CCDC's data processing and validation procedures.
#
#######################################################################

data_DEHCID
_symmetry_cell_setting           orthorhombic
_symmetry_space_group_name_H-M   'P n a 21'
_symmetry_Int_Tables_number      33
_space_group_name_Hall           'P 2c -2n'
loop_
_symmetry_equiv_pos_site_id
_symmetry_equiv_pos_as_xyz
1 x,y,z
2 -x,-y,1/2+z
3 1/2+x,1/2-y,z
4 1/2-x,1/2+y,1/2+z
_cell_length_a                   25.2840(3)
_cell_length_b                   6.1570(12)
_cell_length_c                   24.0970(17)
_cell_angle_alpha                90
_cell_angle_beta                 90
_cell_angle_gamma                90
_cell_volume                     3751.27
loop_
_atom_site_label
_atom_site_type_symbol
_atom_site_fract_x
_atom_site_fract_y
_atom_site_fract_z
Ag1 Ag 0.86077(5) 0.42052(19) 0.64188(5)
Ag2 Ag 0.95470(5) 0.58397(19) 0.58492(4)
Ag3 Ag 0.89003(5) 1.06535(19) 0.56839(4)
Ag4 Ag 0.92910(5) 0.92085(19) 0.66843(5)
O1 O 0.8291(4) 0.4422(15) 0.5575(4)
O2 O 0.8920(4) 0.6718(17) 0.5240(4)
O3 O 0.8378(6) 0.175(2) 0.3820(7)
O4 O 0.8840(5) 0.2693(19) 0.4540(5)
O5 O 0.9256(4) 0.3288(16) 0.7015(4)
O6 O 0.9939(4) 0.5170(15) 0.6620(4)
O7 O 0.9733(5) 0.789(2) 0.8426(6)
O8 O 0.9487(5) 0.7694(19) 0.7569(5)
O9 O 0.8413(4) 0.8174(16) 0.6741(5)
O10 O 0.8083(4) 0.9889(19) 0.6017(5)
O11 O 0.7898(5) 1.2563(19) 0.7013(5)
O12 O 0.7201(4) 1.2896(18) 0.7562(5)
O13 O 0.9750(4) 1.1791(16) 0.5559(4)
O14 O 1.0079(4) 0.9972(17) 0.6252(5)
O15 O 1.0231(5) 0.7462(19) 0.5212(5)
O16 O 1.0957(5) 0.723(2) 0.4658(5)
C1 C 0.8477(6) 0.574(2) 0.5220(6)
C2 C 0.8104(6) 0.612(2) 0.4747(6)
C3 C 0.7767(7) 0.793(3) 0.4805(8)
H1 H 0.7810 0.8830 0.5111
C4 C 0.7371(7) 0.843(3) 0.4420(8)
H2 H 0.7142 0.9600 0.4463
C5 C 0.7349(9) 0.700(3) 0.3960(9)
H3 H 0.7098 0.7234 0.3685
C6 C 0.7679(8) 0.534(3) 0.3914(8)
H4 H 0.7651 0.4478 0.3599
C7 C 0.8072(7) 0.478(3) 0.4311(7)
C8 C 0.8441(8) 0.305(3) 0.4205(9)
C9 C 0.9227(8) 0.093(3) 0.4416(9)
H5 H 0.9171 -0.0264 0.4666
H6 H 0.9580 0.1471 0.4462
H7 H 0.9180 0.0441 0.4041
C10 C 0.9726(6) 0.410(2) 0.6992(6)
C11 C 1.0105(6) 0.369(2) 0.7462(6)
C12 C 1.0440(6) 0.184(3) 0.7452(7)
H8 H 1.0422 0.0895 0.7151
C13 C 1.0799(7) 0.138(3) 0.7885(7)
H9 H 1.1010 0.0143 0.7877
C14 C 1.0824(7) 0.275(3) 0.8297(8)
H10 H 1.1074 0.2517 0.8574
C15 C 1.0485(7) 0.457(3) 0.8336(8)
H11 H 1.0513 0.5486 0.8642
C16 C 1.0103(7) 0.505(3) 0.7918(7)
C17 C 0.9763(8) 0.699(3) 0.7928(9)
C18 C 0.9366(9) 0.969(4) 0.8480(10)
H12 H 0.9451 1.0788 0.8212
H13 H 0.9391 1.0289 0.8847
H14 H 0.9012 0.9182 0.8417
C19 C 0.8018(6) 0.889(2) 0.6463(7)
C20 C 0.7443(6) 0.857(2) 0.6632(6)
C21 C 0.7158(6) 0.679(2) 0.6443(7)
H15 H 0.7333 0.5774 0.6224
C22 C 0.6607(7) 0.642(3) 0.6566(7)
H16 H 0.6436 0.5215 0.6419
C23 C 0.6340(7) 0.780(3) 0.6891(8)
H17 H 0.5982 0.7624 0.6969
C24 C 0.6638(7) 0.953(3) 0.7106(7)
H18 H 0.6471 1.0471 0.7353
C25 C 0.7171(6) 0.996(2) 0.6975(6)
C26 C 0.7477(7) 1.184(3) 0.7181(7)
C27 C 0.7422(9) 1.489(3) 0.7770(10)
H19 H 0.7794 1.4706 0.7834
H20 H 0.7251 1.5278 0.8112
H21 H 0.7369 1.6030 0.7503
C28 C 1.0134(6) 1.100(2) 0.5830(7)
C29 C 1.0711(6) 1.142(2) 0.5641(6)
C30 C 1.0996(6) 1.321(2) 0.5839(6)
H22 H 1.0829 1.4165 0.6080
C31 C 1.1534(7) 1.363(3) 0.5685(7)
H23 H 1.1701 1.4870 0.5821
C32 C 1.1804(7) 1.229(3) 0.5350(7)
H24 H 1.2158 1.2527 0.5266
C33 C 1.1533(7) 1.052(3) 0.5132(7)
H25 H 1.1707 0.9605 0.4886
C34 C 1.0966(6) 1.005(2) 0.5282(6)
C35 C 1.0667(7) 0.811(3) 0.5067(7)
C36 C 1.0699(8) 0.525(3) 0.4435(9)
H26 H 1.0717 0.4112 0.4706
H27 H 1.0876 0.4804 0.4102
H28 H 1.0335 0.5565 0.4353
Ag1_2 Ag 0.86077(5) 1.42052(19) 0.64188(5)
Ag3_2 Ag 0.89003(5) 0.06535(19) 0.56839(4)
O11_2 O 0.7898(5) 0.2563(19) 0.7013(5)
loop_
_geom_bond_atom_site_label_1
_geom_bond_atom_site_label_2
_geom_bond_site_symmetry_1
_geom_bond_site_symmetry_2
Ag1 Ag2 1_555 1_555
Ag2 Ag3 1_555 1_555
Ag3 Ag4 1_555 1_555
Ag4 Ag2 1_555 1_555
O1 Ag1 1_555 1_555
O2 Ag2 1_555 1_555
O3 C8 1_555 1_555
O4 C8 1_555 1_555
O5 Ag1 1_555 1_555
O6 Ag2 1_555 1_555
O7 C17 1_555 1_555
O8 Ag4 1_555 1_555
O9 Ag1 1_555 1_555
O10 Ag3 1_555 1_555
O11 C26 1_555 1_555
O12 C26 1_555 1_555
O13 Ag3 1_555 1_555
O14 Ag4 1_555 1_555
O15 Ag2 1_555 1_555
O16 C35 1_555 1_555
C1 O1 1_555 1_555
C2 C1 1_555 1_555
C3 C2 1_555 1_555
H1 C3 1_555 1_555
C4 C3 1_555 1_555
H2 C4 1_555 1_555
C5 C4 1_555 1_555
H3 C5 1_555 1_555
C6 C5 1_555 1_555
H4 C6 1_555 1_555
C7 C2 1_555 1_555
C8 C7 1_555 1_555
C9 O4 1_555 1_555
H5 C9 1_555 1_555
H6 C9 1_555 1_555
H7 C9 1_555 1_555
C10 O5 1_555 1_555
C11 C10 1_555 1_555
C12 C11 1_555 1_555
H8 C12 1_555 1_555
C13 C12 1_555 1_555
H9 C13 1_555 1_555
C14 C13 1_555 1_555
H10 C14 1_555 1_555
C15 C14 1_555 1_555
H11 C15 1_555 1_555
C16 C11 1_555 1_555
C17 O8 1_555 1_555
C18 O7 1_555 1_555
H12 C18 1_555 1_555
H13 C18 1_555 1_555
H14 C18 1_555 1_555
C19 O9 1_555 1_555
C20 C19 1_555 1_555
C21 C20 1_555 1_555
H15 C21 1_555 1_555
C22 C21 1_555 1_555
H16 C22 1_555 1_555
C23 C22 1_555 1_555
H17 C23 1_555 1_555
C24 C23 1_555 1_555
H18 C24 1_555 1_555
C25 C20 1_555 1_555
C26 C25 1_555 1_555
C27 O12 1_555 1_555
H19 C27 1_555 1_555
H20 C27 1_555 1_555
H21 C27 1_555 1_555
C28 O13 1_555 1_555
C29 C28 1_555 1_555
C30 C29 1_555 1_555
H22 C30 1_555 1_555
C31 C30 1_555 1_555
H23 C31 1_555 1_555
C32 C31 1_555 1_555
H24 C32 1_555 1_555
C33 C32 1_555 1_555
H25 C33 1_555 1_555
C34 C29 1_555 1_555
C35 O15 1_555 1_555
C36 O16 1_555 1_555
H26 C36 1_555 1_555
H27 C36 1_555 1_555
H28 C36 1_555 1_555
Ag1_2 Ag3 1_555 1_555
Ag3_2 Ag1 1_555 1_555
O11_2 Ag1 1_555 1_555
Ag4 O9 1_555 1_555
O2 C1 1_555 1_555
O6 C10 1_555 1_555
O10 C19 1_555 1_555
O11 Ag1_2 1_555 1_555
O14 C28 1_555 1_555
C6 C7 1_555 1_555
C15 C16 1_555 1_555
C16 C17 1_555 1_555
C24 C25 1_555 1_555
C33 C34 1_555 1_555
C34 C35 1_555 1_555

#END
