
#######################################################################
#
#                 Cambridge Crystallographic Data Centre
#                                CCDC 
#
#######################################################################
#
# If this CIF has been generated from an entry in the Cambridge 
# Structural Database, then it will include bibliographic, chemical, 
# crystal, experimental, refinement or atomic coordinate data resulting 
# from the CCDC's data processing and validation procedures.
#
#######################################################################

data_DEHDUQ
_symmetry_cell_setting           monoclinic
_symmetry_space_group_name_H-M   'P 21/c'
_symmetry_Int_Tables_number      14
_space_group_name_Hall           '-P 2ybc'
loop_
_symmetry_equiv_pos_site_id
_symmetry_equiv_pos_as_xyz
1 x,y,z
2 -x,1/2+y,1/2-z
3 -x,-y,-z
4 x,1/2-y,1/2+z
_cell_length_a                   7.7252(8)
_cell_length_b                   12.9936(13)
_cell_length_c                   10.4871(10)
_cell_angle_alpha                90
_cell_angle_beta                 91.425(2)
_cell_angle_gamma                90
_cell_volume                     1052.35
loop_
_atom_site_label
_atom_site_type_symbol
_atom_site_fract_x
_atom_site_fract_y
_atom_site_fract_z
Ag1 Ag -0.09336(2) 0.968546(11) 0.271313(14)
N1 N 0.0889(2) 0.91624(12) 0.40846(15)
C1 C 0.0626(3) 0.84164(14) 0.49203(18)
H1 H -0.0464 0.8101 0.5059
C2 C 0.2627(3) 0.93984(16) 0.4190(2)
H2 H 0.3198 0.9912 0.3712
C3 C 0.3393(3) 0.87836(17) 0.5080(2)
H3 H 0.4583 0.8780 0.5333
N2 N 0.2108(2) 0.81648(12) 0.55457(15)
C4 C 0.2339(3) 0.72796(15) 0.64086(18)
H4 H 0.1209 0.7091 0.6767
H5 H 0.3132 0.7472 0.7125
C5 C 0.3079(2) 0.63530(15) 0.57073(18)
H6 H 0.4232 0.6534 0.5381
H7 H 0.3232 0.5774 0.6313
C6 C 0.1903(2) 0.60142(15) 0.45988(19)
H8 H 0.0771 0.5806 0.4938
H9 H 0.1699 0.6610 0.4026
N3 N 0.2597(2) 0.51514(12) 0.38403(16)
H10 H 0.2786 0.4597 0.4371
H11 H 0.3649 0.5344 0.3524
Ag1A Ag 0.09336(2) 0.468546(11) 0.228687(14)
N3A N -0.2597(2) 1.01514(12) 0.11597(16)
H10A H -0.2786 0.9597 0.0629
H11A H -0.3649 1.0344 0.1476
Cl1 Cl -0.29196(6) 0.69292(3) 0.31796(4)
O1 O -0.3377(2) 0.79743(13) 0.2908(2)
O2 O -0.2646(2) 0.68047(14) 0.45340(14)
O3 O -0.43199(19) 0.62623(12) 0.27528(15)
O4 O -0.1374(2) 0.66585(16) 0.25340(17)
loop_
_geom_bond_atom_site_label_1
_geom_bond_atom_site_label_2
_geom_bond_site_symmetry_1
_geom_bond_site_symmetry_2
Ag1 N1 1_555 1_555
N1 C1 1_555 1_555
C1 H1 1_555 1_555
C2 N1 1_555 1_555
H2 C2 1_555 1_555
C3 C2 1_555 1_555
H3 C3 1_555 1_555
N2 C1 1_555 1_555
C4 N2 1_555 1_555
H4 C4 1_555 1_555
H5 C4 1_555 1_555
C5 C4 1_555 1_555
H6 C5 1_555 1_555
H7 C5 1_555 1_555
C6 C5 1_555 1_555
H8 C6 1_555 1_555
H9 C6 1_555 1_555
N3 C6 1_555 1_555
H10 N3 1_555 1_555
H11 N3 1_555 1_555
Cl1 O1 1_555 1_555
O2 Cl1 1_555 1_555
O3 Cl1 1_555 1_555
O4 Cl1 1_555 1_555
Ag1A N3 1_555 1_555
N3A Ag1 1_555 1_555
H10A N3A 1_555 1_555
H11A N3A 1_555 1_555
C3 N2 1_555 1_555

#END
