
#######################################################################
#
#                 Cambridge Crystallographic Data Centre
#                                CCDC 
#
#######################################################################
#
# If this CIF has been generated from an entry in the Cambridge 
# Structural Database, then it will include bibliographic, chemical, 
# crystal, experimental, refinement or atomic coordinate data resulting 
# from the CCDC's data processing and validation procedures.
#
#######################################################################

data_DEHFEC
_symmetry_cell_setting           orthorhombic
_symmetry_space_group_name_H-M   'P c a 21'
_symmetry_Int_Tables_number      29
_space_group_name_Hall           'P 2c -2ac'
loop_
_symmetry_equiv_pos_site_id
_symmetry_equiv_pos_as_xyz
1 x,y,z
2 -x,-y,1/2+z
3 1/2+x,-y,z
4 1/2-x,y,1/2+z
_cell_length_a                   18.8033(12)
_cell_length_b                   9.5770(6)
_cell_length_c                   8.3063(5)
_cell_angle_alpha                90
_cell_angle_beta                 90
_cell_angle_gamma                90
_cell_volume                     1495.79
loop_
_atom_site_label
_atom_site_type_symbol
_atom_site_fract_x
_atom_site_fract_y
_atom_site_fract_z
I1 I 0.092460(16) 0.37963(3) -0.28371(4)
I2 I 0.241220(19) 0.14035(3) -0.00619(4)
Cu1 Cu 0.14936(3) 0.29668(7) -0.54942(8)
S1 S 0.47049(9) 0.11698(14) -0.12374(19)
N1 N 0.3901(2) 0.3762(4) -0.2538(5)
C1 C 0.5443(3) 0.0176(6) -0.1589(8)
H1 H 0.5571 -0.0585 -0.0956
C2 C 0.5822(3) 0.0606(5) -0.2881(8)
H2 H 0.6236 0.0172 -0.3231
C3 C 0.5519(3) 0.1789(5) -0.3641(6)
C4 C 0.4901(2) 0.2216(5) -0.2874(6)
C5 C 0.4464(3) 0.3370(5) -0.3328(6)
H3 H 0.4590 0.3872 -0.4243
C6 C 0.3542(2) 0.4967(5) -0.3089(6)
C7 C 0.3882(3) 0.6102(6) -0.3774(7)
H4 H 0.4367 0.6068 -0.3988
C8 C 0.3495(3) 0.7287(6) -0.4138(8)
H5 H 0.3711 0.8047 -0.4634
C9 C 0.5826(3) 0.2465(6) -0.5114(8)
H6 H 0.5535 0.3244 -0.5423
H7 H 0.5841 0.1798 -0.5977
H8 H 0.6299 0.2784 -0.4885
Cu2 Cu 0.22979(3) 0.31609(7) -0.24419(10)
N2 N 0.28359(19) 0.4985(4) -0.2756(6)
C10 C 0.2785(3) 0.7322(6) -0.3753(9)
H9 H 0.2519 0.8125 -0.3938
C11 C 0.2474(3) 0.6165(5) -0.3097(9)
H10 H 0.1989 0.6192 -0.2875
I2C I 0.258780(19) 0.14035(3) -0.50619(4)
Cu1C Cu 0.35064(3) 0.29668(7) -0.04942(8)
N1C N 0.1099(2) 0.3762(4) -0.7538(5)
Cu2C Cu 0.27021(3) 0.31609(7) 0.25581(10)
loop_
_geom_bond_atom_site_label_1
_geom_bond_atom_site_label_2
_geom_bond_site_symmetry_1
_geom_bond_site_symmetry_2
I1 Cu1 1_555 1_555
I2 Cu2 1_555 1_555
Cu1 I2C 1_555 1_555
S1 C1 1_555 1_555
N1 C5 1_555 1_555
C1 H1 1_555 1_555
C2 C1 1_555 1_555
H2 C2 1_555 1_555
C3 C2 1_555 1_555
C4 S1 1_555 1_555
C5 C4 1_555 1_555
H3 C5 1_555 1_555
C6 N1 1_555 1_555
C7 C6 1_555 1_555
H4 C7 1_555 1_555
C8 C7 1_555 1_555
H5 C8 1_555 1_555
C9 C3 1_555 1_555
H6 C9 1_555 1_555
H7 C9 1_555 1_555
H8 C9 1_555 1_555
Cu2 I1 1_555 1_555
N2 C6 1_555 1_555
C10 C8 1_555 1_555
H9 C10 1_555 1_555
C11 N2 1_555 1_555
H10 C11 1_555 1_555
I2C Cu2 1_555 1_555
Cu1C I2 1_555 1_555
N1C Cu1 1_555 1_555
Cu2C I2 1_555 1_555
N1 Cu1C 1_555 1_555
C3 C4 1_555 1_555
Cu2 N2 1_555 1_555
C10 C11 1_555 1_555

#END
