
#######################################################################
#
#                 Cambridge Crystallographic Data Centre
#                                CCDC 
#
#######################################################################
#
# If this CIF has been generated from an entry in the Cambridge 
# Structural Database, then it will include bibliographic, chemical, 
# crystal, experimental, refinement or atomic coordinate data resulting 
# from the CCDC's data processing and validation procedures.
#
#######################################################################

data_DEHFAY
_symmetry_cell_setting           orthorhombic
_symmetry_space_group_name_H-M   'P b c a'
_symmetry_Int_Tables_number      61
_space_group_name_Hall           '-P 2ac 2ab'
loop_
_symmetry_equiv_pos_site_id
_symmetry_equiv_pos_as_xyz
1 x,y,z
2 1/2-x,-y,1/2+z
3 -x,1/2+y,1/2-z
4 1/2+x,1/2-y,-z
5 -x,-y,-z
6 1/2+x,y,1/2-z
7 x,1/2-y,1/2+z
8 1/2-x,1/2+y,z
_cell_length_a                   8.1021(11)
_cell_length_b                   18.363(2)
_cell_length_c                   19.085(3)
_cell_angle_alpha                90
_cell_angle_beta                 90
_cell_angle_gamma                90
_cell_volume                     2839.44
loop_
_atom_site_label
_atom_site_type_symbol
_atom_site_fract_x
_atom_site_fract_y
_atom_site_fract_z
I1 I 0.36419(6) 0.44682(3) 0.90089(2)
I2 I 0.59883(5) 0.31545(2) 0.75241(3)
Cu1 Cu 0.35903(11) 0.41059(5) 0.76315(4)
Cu2 Cu 0.08741(10) 0.40323(5) 0.85088(5)
S1 S 0.5101(3) 0.30457(11) 0.53098(11)
N1 N 0.3097(6) 0.5041(3) 0.7102(3)
N2 N 0.3863(6) 0.4470(3) 0.6062(3)
C1 C 0.3216(7) 0.5097(4) 0.6421(4)
C2 C 0.2783(9) 0.5721(4) 0.6033(4)
H1 H 0.2925 0.5746 0.5550
C3 C 0.2133(10) 0.6298(4) 0.6412(4)
H2 H 0.1824 0.6722 0.6181
C4 C 0.1942(10) 0.6251(4) 0.7112(5)
H3 H 0.1485 0.6634 0.7365
C5 C 0.2441(10) 0.5621(4) 0.7441(4)
H4 H 0.2320 0.5592 0.7925
C6 C 0.3143(8) 0.4275(4) 0.5482(3)
H5 H 0.2254 0.4553 0.5329
C7 C 0.3614(8) 0.3668(4) 0.5065(3)
C8 C 0.2934(8) 0.3495(4) 0.4421(4)
H6 H 0.2121 0.3766 0.4196
C9 C 0.3653(10) 0.2845(4) 0.4148(4)
H7 H 0.3341 0.2636 0.3725
C10 C 0.4822(10) 0.2565(4) 0.4566(4)
H8 H 0.5420 0.2148 0.4456
I2E I 0.09883(5) 0.31545(2) 0.74759(3)
Cu1E Cu 0.85903(11) 0.41059(5) 0.73685(4)
Cu2E Cu 0.58741(10) 0.40323(5) 0.64912(5)
N2E N -0.1137(6) 0.4470(3) 0.8938(3)
loop_
_geom_bond_atom_site_label_1
_geom_bond_atom_site_label_2
_geom_bond_site_symmetry_1
_geom_bond_site_symmetry_2
I1 Cu1 1_555 1_555
I2 Cu1 1_555 1_555
Cu1 N1 1_555 1_555
Cu2 I1 1_555 1_555
S1 C7 1_555 1_555
N1 C1 1_555 1_555
N2 C1 1_555 1_555
C1 C2 1_555 1_555
C2 H1 1_555 1_555
C3 C2 1_555 1_555
H2 C3 1_555 1_555
C4 C3 1_555 1_555
H3 C4 1_555 1_555
C5 N1 1_555 1_555
H4 C5 1_555 1_555
C6 N2 1_555 1_555
H5 C6 1_555 1_555
C7 C6 1_555 1_555
C8 C7 1_555 1_555
H6 C8 1_555 1_555
C9 C8 1_555 1_555
H7 C9 1_555 1_555
C10 S1 1_555 1_555
H8 C10 1_555 1_555
I2E Cu1 1_555 1_555
Cu1E I2 1_555 1_555
Cu2E I2 1_555 1_555
N2E Cu2 1_555 1_555
Cu2 I2E 1_555 1_555
N2 Cu2E 1_555 1_555
C4 C5 1_555 1_555
C9 C10 1_555 1_555

#END
