
#######################################################################
#
#                 Cambridge Crystallographic Data Centre
#                                CCDC 
#
#######################################################################
#
# If this CIF has been generated from an entry in the Cambridge 
# Structural Database, then it will include bibliographic, chemical, 
# crystal, experimental, refinement or atomic coordinate data resulting 
# from the CCDC's data processing and validation procedures.
#
#######################################################################

data_DEHGIG
_symmetry_cell_setting           monoclinic
_symmetry_space_group_name_H-M   'P 21/c'
_symmetry_Int_Tables_number      14
_space_group_name_Hall           '-P 2ybc'
loop_
_symmetry_equiv_pos_site_id
_symmetry_equiv_pos_as_xyz
1 x,y,z
2 -x,1/2+y,1/2-z
3 -x,-y,-z
4 x,1/2-y,1/2+z
_cell_length_a                   18.026(9)
_cell_length_b                   8.847(4)
_cell_length_c                   16.302(7)
_cell_angle_alpha                90
_cell_angle_beta                 113.18(5)
_cell_angle_gamma                90
_cell_volume                     2389.91
loop_
_atom_site_label
_atom_site_type_symbol
_atom_site_fract_x
_atom_site_fract_y
_atom_site_fract_z
Cu1 Cu 0.1770(1) -0.3255(1) 0.2848(1)
S1 S -0.0542(1) -0.5785(2) 0.0869(1)
N1 N 0.2797(2) -0.2324(5) 0.3759(3)
N2 N 0.1665(3) -0.4648(5) 0.3810(3)
N3 N 0.2055(3) -0.4531(5) 0.4700(3)
N4 N 0.1395(3) -0.1223(5) 0.2202(3)
N5 N 0.1692(3) 0.0169(5) 0.2461(3)
N6 N 0.2469(2) -0.4307(5) 0.2199(3)
N7 N 0.3289(2) -0.4447(5) 0.2510(3)
N8 N 0.0786(3) -0.4192(6) 0.1990(3)
C1 C 0.2638(6) -0.2005(8) 0.4578(5)
C2 C 0.2592(4) -0.3318(8) 0.5140(4)
C3 C 0.1907(4) -0.5730(8) 0.5114(4)
C4 C 0.1407(4) -0.6657(8) 0.4486(5)
C5 C 0.1262(3) -0.5954(7) 0.3684(4)
C6 C 0.3019(5) -0.0896(7) 0.3416(7)
C7 C 0.2440(4) 0.0399(7) 0.3241(5)
C8 C 0.1201(5) 0.1215(8) 0.1900(5)
C9 C 0.0596(5) 0.0504(9) 0.1274(5)
C10 C 0.0727(4) -0.1024(8) 0.1460(5)
C11 C 0.3466(4) -0.3462(9) 0.3999(5)
C12 C 0.3821(3) -0.3656(7) 0.3315(4)
C13 C 0.3502(4) -0.5272(7) 0.1958(4)
C14 C 0.2827(4) -0.5722(6) 0.1270(4)
C15 C 0.2193(4) -0.5095(6) 0.1445(4)
C16 C 0.0230(3) -0.4838(6) 0.1529(4)
H1 H 0.3079(6) -0.1321(8) 0.4967(5)
H2 H 0.2110(6) -0.1453(8) 0.4378(5)
H3 H 0.2416(4) -0.2907(8) 0.5608(4)
H4 H 0.3137(4) -0.3745(8) 0.5431(4)
H5 H 0.2165(4) -0.5775(8) 0.5780(4)
H6 H 0.1153(4) -0.7658(8) 0.4495(5)
H7 H 0.0893(3) -0.6490(7) 0.3135(4)
H8 H 0.3554(5) -0.0557(7) 0.3863(7)
H9 H 0.3071(5) -0.1147(7) 0.2841(7)
H10 H 0.2708(4) 0.1334(7) 0.3146(5)
H11 H 0.2303(4) 0.0536(7) 0.3774(5)
H12 H 0.1349(5) 0.2305(8) 0.2025(5)
H13 H 0.0109(5) 0.0832(9) 0.0746(5)
H14 H 0.0323(4) -0.1734(8) 0.1040(5)
H15 H 0.3907(4) -0.3139(8) 0.4572(5)
H16 H 0.3249(4) -0.4464(9) 0.4087(5)
H17 H 0.4335(3) -0.4246(7) 0.3587(4)
H18 H 0.3943(3) -0.2633(7) 0.3137(4)
H19 H 0.4089(4) -0.5450(7) 0.2110(4)
H20 H 0.2708(4) -0.6344(6) 0.0720(4)
H21 H 0.1636(4) -0.5312(6) 0.0998(4)
Cu2 Cu 0.4891(1) 0.1517(1) 0.3572(1)
S2 S 0.4226(1) 0.2645(2) 0.4499(1)
S3 S 0.3914(1) 0.0873(2) 0.2091(1)
N9 N 0.4616(3) 0.0319(5) 0.5762(3)
N10 N 0.4543(3) -0.1794(5) 0.1705(3)
C17 C 0.4454(3) 0.1275(6) 0.5251(3)
C18 C 0.4290(3) -0.0700(6) 0.1880(3)
N9B N 0.5384(3) -0.0319(5) 0.4238(3)
N10A N 0.5457(3) 0.3206(5) 0.3295(3)
Cu2B Cu 0.5109(1) -0.1517(1) 0.6428(1)
Cu2A Cu 0.5109(1) -0.3483(1) 0.1428(1)
loop_
_geom_bond_atom_site_label_1
_geom_bond_atom_site_label_2
_geom_bond_site_symmetry_1
_geom_bond_site_symmetry_2
Cu1 N1 1_555 1_555
Cu2 S2 1_555 1_555
S1 C16 1_555 1_555
S2 C17 1_555 1_555
S3 Cu2 1_555 1_555
N1 C1 1_555 1_555
N2 Cu1 1_555 1_555
N3 N2 1_555 1_555
N4 Cu1 1_555 1_555
N5 N4 1_555 1_555
N6 Cu1 1_555 1_555
N7 N6 1_555 1_555
N8 Cu1 1_555 1_555
N9 C17 1_555 1_555
N10 C18 1_555 1_555
C1 C2 1_555 1_555
C2 N3 1_555 1_555
C3 N3 1_555 1_555
C4 C3 1_555 1_555
C5 N2 1_555 1_555
C6 N1 1_555 1_555
C7 N5 1_555 1_555
C8 N5 1_555 1_555
C9 C8 1_555 1_555
C10 N4 1_555 1_555
C11 N1 1_555 1_555
C12 N7 1_555 1_555
C13 N7 1_555 1_555
C14 C13 1_555 1_555
C15 N6 1_555 1_555
C16 N8 1_555 1_555
C18 S3 1_555 1_555
H1 C1 1_555 1_555
H2 C1 1_555 1_555
H3 C2 1_555 1_555
H4 C2 1_555 1_555
H5 C3 1_555 1_555
H6 C4 1_555 1_555
H7 C5 1_555 1_555
H8 C6 1_555 1_555
H9 C6 1_555 1_555
H10 C7 1_555 1_555
H11 C7 1_555 1_555
H12 C8 1_555 1_555
H13 C9 1_555 1_555
H14 C10 1_555 1_555
H15 C11 1_555 1_555
H16 C11 1_555 1_555
H17 C12 1_555 1_555
H18 C12 1_555 1_555
H19 C13 1_555 1_555
H20 C14 1_555 1_555
H21 C15 1_555 1_555
N9B Cu2 1_555 1_555
N10A Cu2 1_555 1_555
Cu2B N9 1_555 1_555
Cu2A N10 1_555 1_555
C4 C5 1_555 1_555
C6 C7 1_555 1_555
C9 C10 1_555 1_555
C11 C12 1_555 1_555
C14 C15 1_555 1_555

#END
