
#######################################################################
#
#                 Cambridge Crystallographic Data Centre
#                                CCDC 
#
#######################################################################
#
# If this CIF has been generated from an entry in the Cambridge 
# Structural Database, then it will include bibliographic, chemical, 
# crystal, experimental, refinement or atomic coordinate data resulting 
# from the CCDC's data processing and validation procedures.
#
#######################################################################

data_DEHLUZ
_symmetry_cell_setting           monoclinic
_symmetry_space_group_name_H-M   'C 2/c'
_symmetry_Int_Tables_number      15
_space_group_name_Hall           '-C 2yn'
loop_
_symmetry_equiv_pos_site_id
_symmetry_equiv_pos_as_xyz
1 x,y,z
2 -x,y,1/2-z
3 1/2+x,1/2+y,z
4 1/2-x,1/2+y,1/2-z
5 -x,-y,-z
6 x,-y,1/2+z
7 1/2-x,1/2-y,-z
8 1/2+x,1/2-y,1/2+z
_cell_length_a                   20.730(5)
_cell_length_b                   14.554(5)
_cell_length_c                   19.411(5)
_cell_angle_alpha                90
_cell_angle_beta                 95.352(5)
_cell_angle_gamma                90
_cell_volume                     5830.85
loop_
_atom_site_label
_atom_site_type_symbol
_atom_site_fract_x
_atom_site_fract_y
_atom_site_fract_z
O1 O 0.0000 1.2265(6) 0.2500
C1 C 0.1153(7) 0.5052(8) 0.2019(6)
H1 H 0.1556 0.5067 0.2274
N1 N 0.0201(5) 0.4558(8) 0.1546(6)
N2 N 0.3695(5) 0.8133(7) 0.1232(5)
C2 C 0.2997(6) 0.7066(9) 0.0800(7)
H2 H 0.2811 0.6570 0.0553
N3 N 0.0586(5) 0.9081(7) 0.1583(5)
C3 C 0.0745(6) 0.7393(8) 0.1581(6)
H3 H 0.0305 0.7329 0.1630
N4 N 0.0328(6) 1.0468(8) 0.1796(8)
C4 C 0.0287(7) 0.5417(9) 0.1339(7)
H4 H -0.0006 0.5744 0.1041
N5 N 0.0867(5) 0.5754(7) 0.1627(5)
C5 C 0.3614(7) 0.7373(9) 0.0804(8)
H5 H 0.3933 0.7114 0.0559
N6 N 0.2700(5) 0.7641(6) 0.1238(5)
C6 C 0.1785(6) 0.6716(8) 0.1458(6)
H6 H 0.2044 0.6197 0.1440
Cu1 Cu -0.05404(9) 0.38335(13) 0.13615(11)
C7 C 0.3125(6) 0.8278(9) 0.1478(6)
H7 H 0.3037 0.8754 0.1775
C8 C 0.1133(6) 0.6639(8) 0.1549(6)
C9 C 0.2035(6) 0.7572(8) 0.1396(6)
C10 C 0.1022(7) 0.8256(8) 0.1540(5)
C11 C 0.0010(8) 0.9177(13) 0.1267(8)
H8 H -0.0223 0.8728 0.1009
C12 C 0.0737(8) 0.4336(9) 0.1961(7)
H9 H 0.0809 0.3770 0.2178
C13 C 0.1665(6) 0.8370(9) 0.1440(6)
H10 H 0.1845 0.8951 0.1402
C14 C -0.0200(8) 1.0076(14) 0.1383(9)
H11 H -0.0592 1.0348 0.1226
C15 C 0.0787(7) 0.9820(11) 0.1891(8)
H12 H 0.1188 0.9896 0.2141
N2B N -0.1305(5) 0.3133(7) 0.1232(5)
Cu1B Cu 0.44596(9) 0.88335(13) 0.13615(11)
Mo1 Mo 0.32730(5) 0.03195(7) 0.00117(5)
P1 P 0.2500 0.2500 0.0000
O2 O 0.3777(6) 0.2629(7) -0.1180(6)
Mo2 Mo 0.29885(5) 0.32242(7) -0.16253(5)
O3 O 0.3547(6) 0.0725(7) 0.0870(4)
Mo3 Mo 0.22429(5) 0.10420(6) -0.14685(5)
O4 O 0.2881(5) 0.1505(6) 0.1751(6)
Mo4 Mo 0.15676(5) 0.04713(7) 0.00959(5)
O5 O 0.2754(5) 0.1936(7) -0.1794(6)
Mo5 Mo 0.41567(5) 0.23393(8) -0.03285(5)
O6 O 0.1647(4) 0.0504(7) -0.0839(4)
Mo6 Mo 0.36839(5) 0.19132(7) 0.13686(5)
O7 O 0.4925(4) 0.2305(7) -0.0446(5)
O8 O 0.2101(4) 0.0362(6) -0.2141(4)
O9 O 0.4199(5) 0.2258(7) 0.0697(4)
O10 O 0.1159(4) -0.0485(6) 0.0163(5)
O11 O 0.4244(4) 0.1603(6) 0.2005(4)
O12 O 0.1519(6) 0.1915(7) -0.1615(6)
O13 O 0.1781(5) 0.0766(7) 0.1095(4)
O14 O 0.2440(7) 0.1540(9) -0.0221(7)
O15 O 0.3916(5) 0.1147(7) -0.0350(5)
O16 O 0.0944(5) 0.1354(7) 0.0100(5)
O17 O 0.2316(7) 0.2436(9) -0.0803(7)
O18 O 0.1882(7) 0.3048(9) -0.0177(7)
O19 O 0.2888(4) 0.0423(7) -0.0960(4)
O20 O 0.3043(7) 0.2984(9) -0.0351(7)
O21 O 0.2464(4) -0.0016(7) 0.0213(4)
O22 O 0.3644(5) -0.0671(6) -0.0046(4)
O23 O 0.3255(5) 0.3494(6) -0.2379(4)
Mo1F Mo 0.17270(5) 0.46805(7) -0.00117(5)
O2F O 0.1223(6) 0.2371(7) 0.1180(6)
Mo2F Mo 0.20115(5) 0.17758(7) 0.16253(5)
O3F O 0.1453(6) 0.4275(7) -0.0870(4)
Mo3F Mo 0.27571(5) 0.39580(6) 0.14685(5)
O4F O 0.2119(5) 0.3495(6) -0.1751(6)
Mo4F Mo 0.34324(5) 0.45287(7) -0.00959(5)
O5F O 0.2246(5) 0.3064(7) 0.1794(6)
Mo5F Mo 0.08433(5) 0.26607(8) 0.03285(5)
O6F O 0.3353(4) 0.4496(7) 0.0839(4)
Mo6F Mo 0.13161(5) 0.30868(7) -0.13686(5)
O7F O 0.0075(4) 0.2695(7) 0.0446(5)
O8F O 0.2899(4) 0.4638(6) 0.2141(4)
O9F O 0.0801(5) 0.2742(7) -0.0697(4)
O10F O 0.3841(4) 0.5485(6) -0.0163(5)
O11F O 0.0756(4) 0.3397(6) -0.2005(4)
O12F O 0.3481(6) 0.3085(7) 0.1615(6)
O13F O 0.3219(5) 0.4234(7) -0.1095(4)
O14F O 0.2560(7) 0.3460(9) 0.0221(7)
O15F O 0.1084(5) 0.3853(7) 0.0350(5)
O16F O 0.4056(5) 0.3646(7) -0.0100(5)
O17F O 0.2684(7) 0.2564(9) 0.0803(7)
O18F O 0.3118(7) 0.1952(9) 0.0177(7)
O19F O 0.2112(4) 0.4577(7) 0.0960(4)
O20F O 0.1957(7) 0.2016(9) 0.0351(7)
O21F O 0.2536(4) 0.5016(7) -0.0213(4)
O22F O 0.1356(5) 0.5671(6) 0.0046(4)
O23F O 0.1745(5) 0.1506(6) 0.2379(4)
loop_
_geom_bond_atom_site_label_1
_geom_bond_atom_site_label_2
_geom_bond_site_symmetry_1
_geom_bond_site_symmetry_2
Mo1 O3 1_555 1_555
P1 O14 1_555 1_555
C1 H1 1_555 1_555
O2 Mo2 1_555 1_555
N1 C4 1_555 1_555
Mo2 O5 1_555 1_555
N2 C5 1_555 1_555
C2 H2 1_555 1_555
O3 Mo6 1_555 1_555
Mo3 O5 1_555 1_555
N3 C10 1_555 1_555
C3 H3 1_555 1_555
O4 Mo6 1_555 1_555
Mo4 O6 1_555 1_555
N4 C14 1_555 1_555
C4 H4 1_555 1_555
Mo5 O2 1_555 1_555
N5 C1 1_555 1_555
C5 C2 1_555 1_555
H5 C5 1_555 1_555
O6 Mo3 1_555 1_555
Mo6 O9 1_555 1_555
N6 C2 1_555 1_555
C6 H6 1_555 1_555
O7 Mo5 1_555 1_555
Cu1 N1 1_555 1_555
C7 N2 1_555 1_555
H7 C7 1_555 1_555
O8 Mo3 1_555 1_555
C8 C3 1_555 1_555
O9 Mo5 1_555 1_555
C9 N6 1_555 1_555
O10 Mo4 1_555 1_555
C10 C3 1_555 1_555
O11 Mo6 1_555 1_555
O12 Mo3 1_555 1_555
C11 N3 1_555 1_555
H8 C11 1_555 1_555
O13 Mo4 1_555 1_555
C12 C1 1_555 1_555
H9 C12 1_555 1_555
O14 O17 1_555 1_555
C13 C9 1_555 1_555
H10 C13 1_555 1_555
O15 Mo1 1_555 1_555
C14 C11 1_555 1_555
H11 C14 1_555 1_555
O16 Mo4 1_555 1_555
C15 N3 1_555 1_555
H12 C15 1_555 1_555
O17 P1 1_555 1_555
O18 P1 1_555 1_555
O19 Mo1 1_555 1_555
O20 P1 1_555 1_555
O21 Mo1 1_555 1_555
O22 Mo1 1_555 1_555
O23 Mo2 1_555 1_555
Mo1F O3F 1_555 1_555
O2F Mo2F 1_555 1_555
Mo2F O4 1_555 1_555
N2B Cu1 1_555 1_555
O3F Mo6F 1_555 1_555
Mo3F O5F 1_555 1_555
O4F Mo2 1_555 1_555
Mo4F O6F 1_555 1_555
O5F Mo2F 1_555 1_555
Mo5F O16 1_555 1_555
O6F Mo3F 1_555 1_555
Mo6F O12 1_555 1_555
O7F Mo5F 1_555 1_555
Cu1B N2 1_555 1_555
O8F Mo3F 1_555 1_555
O9F Mo5F 1_555 1_555
O10F Mo4F 1_555 1_555
O11F Mo6F 1_555 1_555
O12F Mo6 1_555 1_555
O13F Mo2 1_555 1_555
O14F P1 1_555 1_555
O15F Mo1F 1_555 1_555
O16F Mo5 1_555 1_555
O17F P1 1_555 1_555
O18F P1 1_555 1_555
O19F Mo1F 1_555 1_555
O20F P1 1_555 1_555
O21F Mo1F 1_555 1_555
O22F Mo1F 1_555 1_555
O23F Mo2F 1_555 1_555
N1 C12 1_555 1_555
Mo3 O17 1_555 1_555
Mo3 O19 1_555 1_555
Mo4 O21 1_555 1_555
N4 C15 1_555 1_555
C4 N5 1_555 1_555
Mo5 O15 1_555 1_555
N5 C8 1_555 1_555
N6 C7 1_555 1_555
C6 C8 1_555 1_555
C6 C9 1_555 1_555
C10 C13 1_555 1_555
O13 Mo2F 1_555 1_555
O14 O18F 1_555 1_555
O14 O20F 1_555 1_555
O18 O14F 1_555 1_555
O20 O14F 1_555 1_555
O2F Mo5F 1_555 1_555
Mo3F O12F 1_555 1_555
Mo3F O17F 1_555 1_555
Mo3F O19F 1_555 1_555
O4F Mo6F 1_555 1_555
Mo4F O13F 1_555 1_555
Mo4F O16F 1_555 1_555
Mo4F O21F 1_555 1_555
Mo5F O15F 1_555 1_555
Mo6F O9F 1_555 1_555
O14F O17F 1_555 1_555

#END
