
#######################################################################
#
#                 Cambridge Crystallographic Data Centre
#                                CCDC 
#
#######################################################################
#
# If this CIF has been generated from an entry in the Cambridge 
# Structural Database, then it will include bibliographic, chemical, 
# crystal, experimental, refinement or atomic coordinate data resulting 
# from the CCDC's data processing and validation procedures.
#
#######################################################################

data_DEHLEJ
_symmetry_cell_setting           monoclinic
_symmetry_space_group_name_H-M   'C 2/c'
_symmetry_Int_Tables_number      15
_space_group_name_Hall           '-C 2yn'
loop_
_symmetry_equiv_pos_site_id
_symmetry_equiv_pos_as_xyz
1 x,y,z
2 -x,y,1/2-z
3 1/2+x,1/2+y,z
4 1/2-x,1/2+y,1/2-z
5 -x,-y,-z
6 x,-y,1/2+z
7 1/2-x,1/2-y,-z
8 1/2+x,1/2-y,1/2+z
_cell_length_a                   23.4616(13)
_cell_length_b                   11.2113(6)
_cell_length_c                   41.580(2)
_cell_angle_alpha                90
_cell_angle_beta                 93.4720(10)
_cell_angle_gamma                90
_cell_volume                     10916.9
loop_
_atom_site_label
_atom_site_type_symbol
_atom_site_fract_x
_atom_site_fract_y
_atom_site_fract_z
C1 C -0.00196(13) -0.4507(2) -0.19526(6)
C2 C 0.01592(12) -0.4875(2) -0.16140(6)
C3 C 0.07260(12) -0.4922(2) -0.15059(6)
H1 H 0.1006 -0.4713 -0.1645
C4 C 0.08850(13) -0.5271(3) -0.11968(6)
H2 H 0.1269 -0.5309 -0.1128
C5 C 0.04695(13) -0.5568(3) -0.09879(6)
C6 C -0.01031(13) -0.5506(3) -0.10886(6)
H3 H -0.0384 -0.5687 -0.0948
C7 C -0.02497(13) -0.5172(3) -0.14014(6)
H4 H -0.0633 -0.5146 -0.1472
C8 C 0.02691(14) -0.5772(3) -0.04344(6)
H5 H -0.0022 -0.6388 -0.0453
H6 H 0.0083 -0.5000 -0.0451
C9 C 0.06115(14) -0.5880(3) -0.01179(6)
C10 C 0.09674(14) -0.4943(3) -0.00177(7)
C11 C 0.12673(14) -0.5013(3) 0.02843(7)
C12 C 0.12046(14) -0.5997(3) 0.04829(6)
C13 C 0.08620(13) -0.6945(3) 0.03727(7)
C14 C 0.05657(14) -0.6894(3) 0.00702(7)
C15 C 0.10182(19) -0.3853(3) -0.02291(8)
H7 H 0.1345 -0.3935 -0.0355
H8 H 0.1061 -0.3155 -0.0096
H9 H 0.0680 -0.3778 -0.0370
C16 C 0.14978(17) -0.6032(4) 0.08177(7)
H10 H 0.1880 -0.6325 0.0805
H11 H 0.1290 -0.6550 0.0952
H12 H 0.1509 -0.5243 0.0908
C17 C 0.0208(2) -0.7948(4) -0.00508(10)
H13 H 0.0156 -0.7913 -0.0281
H14 H -0.0157 -0.7923 0.0041
H15 H 0.0400 -0.8677 0.0011
C18 C 0.07763(16) -0.8012(3) 0.05870(8)
H16 H 0.0676 -0.8711 0.0458
H17 H 0.1123 -0.8181 0.0718
C19 C 0.00393(15) -0.8563(3) 0.09447(8)
C20 C -0.01635(19) -0.8226(3) 0.12329(9)
H18 H -0.0075 -0.7472 0.1315
C21 C -0.04941(17) -0.8974(3) 0.14035(8)
H19 H -0.0622 -0.8729 0.1600
C22 C -0.06392(14) -1.0104(3) 0.12827(8)
C23 C -0.04236(15) -1.0441(3) 0.09976(8)
H20 H -0.0510 -1.1196 0.0916
C24 C -0.00802(17) -0.9689(3) 0.08270(9)
H21 H 0.0067 -0.9942 0.0636
C25 C -0.10497(14) -1.0865(3) 0.14556(9)
C26 C 0.16485(15) -0.3983(3) 0.03927(8)
H22 H 0.1958 -0.4263 0.0538
H23 H 0.1810 -0.3610 0.0209
C27 C 0.15656(14) -0.2168(3) 0.06998(7)
C28 C 0.21246(14) -0.1865(3) 0.06724(7)
H24 H 0.2352 -0.2312 0.0542
C29 C 0.23523(14) -0.0878(3) 0.08407(7)
H25 H 0.2731 -0.0666 0.0819
C30 C 0.20245(13) -0.0217(2) 0.10378(6)
C31 C 0.14590(13) -0.0539(2) 0.10619(7)
H26 H 0.1231 -0.0103 0.1195
C32 C 0.12285(13) -0.1500(3) 0.08912(7)
H27 H 0.0846 -0.1695 0.0906
C33 C 0.22717(13) 0.0793(2) 0.12407(7)
C34 C 0.25525(12) 0.4933(2) 0.14455(6)
H28 H 0.2859 0.5225 0.1337
C35 C 0.17724(12) 0.4863(2) 0.16986(6)
H29 H 0.1443 0.5079 0.1798
C36 C 0.19818(12) 0.3760(2) 0.16703(6)
H30 H 0.1817 0.3070 0.1747
C37 C 0.20915(14) 0.6921(2) 0.15120(6)
H31 H 0.1734 0.7103 0.1393
H32 H 0.2399 0.7195 0.1385
C38 C 0.21163(14) 0.7591(2) 0.18248(6)
C39 C 0.26491(13) 0.7894(2) 0.19712(7)
C40 C 0.26748(13) 0.8610(2) 0.22464(6)
C41 C 0.21758(14) 0.9000(2) 0.23794(6)
C42 C 0.16496(13) 0.8639(2) 0.22421(6)
C43 C 0.16092(13) 0.7950(2) 0.19597(7)
C44 C 0.31853(14) 0.7501(3) 0.18190(8)
H33 H 0.3505 0.7941 0.1912
H34 H 0.3147 0.7646 0.1591
H35 H 0.3245 0.6664 0.1857
C45 C 0.21958(16) 0.9883(3) 0.26585(7)
H36 H 0.1969 1.0570 0.2599
H37 H 0.2584 1.0123 0.2709
H38 H 0.2047 0.9511 0.2844
C46 C 0.10274(14) 0.7643(3) 0.18073(8)
H39 H 0.0864 0.7007 0.1926
H40 H 0.1064 0.7396 0.1588
H41 H 0.0784 0.8331 0.1811
C47 C 0.11178(14) 0.9039(2) 0.23984(7)
H42 H 0.0802 0.8521 0.2330
H43 H 0.1178 0.8971 0.2631
C48 C 0.10562(13) 1.0885(2) 0.20305(7)
H44 H 0.1242 1.0596 0.1855
C49 C 0.08194(12) 1.1963(2) 0.20589(6)
H45 H 0.0817 1.2560 0.1904
C50 C 0.06866(12) 1.1015(2) 0.24957(6)
H46 H 0.0575 1.0820 0.2700
C51 C 0.32405(13) 0.9089(2) 0.23833(7)
H47 H 0.3225 0.9218 0.2613
H48 H 0.3542 0.8519 0.2349
C52 C 0.30557(13) 1.0708(2) 0.19735(6)
H49 H 0.2713 1.0399 0.1885
C53 C 0.38362(13) 1.0922(2) 0.22806(7)
H50 H 0.4126 1.0803 0.2440
C54 C 0.38007(13) 1.1806(2) 0.20640(6)
H51 H 0.4068 1.2411 0.2046
N1 N 0.24747(10) 0.38036(18) 0.15118(5)
N2 N 0.21390(10) 0.56090(18) 0.15526(5)
N3 N 0.33019(10) 1.16797(18) 0.18694(5)
N4 N 0.33609(10) 1.02260(18) 0.22214(5)
N5 N 0.09697(10) 1.02911(18) 0.23126(5)
N6 N 0.05807(9) 1.20543(18) 0.23520(5)
O1 O 0.03470(8) -0.39051(16) -0.20999(4)
O2 O -0.05011(10) -0.47461(17) -0.20689(4)
O3 O 0.06625(9) -0.5906(2) -0.06837(4)
O4 O 0.03258(11) -0.77060(19) 0.07840(6)
O5 O -0.13133(9) -1.16746(18) 0.12736(6)
O6 O -0.11341(11) -1.0654(2) 0.17363(6)
O7 O 0.12968(9) -0.31393(19) 0.05549(5)
O8 O 0.20193(9) 0.11234(17) 0.14766(5)
O9 O 0.27454(9) 0.12465(16) 0.11597(4)
Zn1 Zn 0.304840(14) 0.24929(2) 0.146030(7)
Zn2 Zn 0.0000 1.32681(3) 0.2500
C1A C 0.00196(13) -0.4507(2) 0.69526(6)
C2A C -0.01592(12) -0.4875(2) 0.66140(6)
C3A C -0.07260(12) -0.4922(2) 0.65059(6)
H1A H -0.1006 -0.4713 0.6645
C4A C -0.08850(13) -0.5271(3) 0.61968(6)
H2A H -0.1269 -0.5309 0.6128
C5A C -0.04695(13) -0.5568(3) 0.59879(6)
C6A C 0.01031(13) -0.5506(3) 0.60886(6)
H3A H 0.0384 -0.5687 0.5948
C7A C 0.02497(13) -0.5172(3) 0.64014(6)
H4A H 0.0633 -0.5146 0.6472
C8A C -0.02691(14) -0.5772(3) 0.54344(6)
H5A H 0.0022 -0.6388 0.5453
H6A H -0.0083 -0.5000 0.5451
C9A C -0.06115(14) -0.5880(3) 0.51179(6)
C10A C -0.09674(14) -0.4943(3) 0.50177(7)
C11A C -0.12673(14) -0.5013(3) 0.47157(7)
C12A C -0.12046(14) -0.5997(3) 0.45171(6)
C13A C -0.08620(13) -0.6945(3) 0.46273(7)
C14A C -0.05657(14) -0.6894(3) 0.49298(7)
C15A C -0.10182(19) -0.3853(3) 0.52291(8)
H7A H -0.1345 -0.3935 0.5355
H8A H -0.1061 -0.3155 0.5096
H9A H -0.0680 -0.3778 0.5370
C16A C -0.14978(17) -0.6032(4) 0.41823(7)
H10A H -0.1880 -0.6325 0.4195
H11A H -0.1290 -0.6550 0.4048
H12A H -0.1509 -0.5243 0.4092
C17A C -0.0208(2) -0.7948(4) 0.50508(10)
H13A H -0.0156 -0.7913 0.5281
H14A H 0.0157 -0.7923 0.4959
H15A H -0.0400 -0.8677 0.4989
C18A C -0.07763(16) -0.8012(3) 0.44130(8)
H16A H -0.0676 -0.8711 0.4542
H17A H -0.1123 -0.8181 0.4282
C19A C -0.00393(15) -0.8563(3) 0.40553(8)
C20A C 0.01635(19) -0.8226(3) 0.37671(9)
H18A H 0.0075 -0.7472 0.3685
C21A C 0.04941(17) -0.8974(3) 0.35965(8)
H19A H 0.0622 -0.8729 0.3400
C22A C 0.06392(14) -1.0104(3) 0.37173(8)
C23A C 0.04236(15) -1.0441(3) 0.40024(8)
H20A H 0.0510 -1.1196 0.4084
C24A C 0.00802(17) -0.9689(3) 0.41730(9)
H21A H -0.0067 -0.9942 0.4364
C25A C 0.10497(14) -1.0865(3) 0.35444(9)
C26A C -0.16485(15) -0.3983(3) 0.46073(8)
H22A H -0.1958 -0.4263 0.4462
H23A H -0.1810 -0.3610 0.4791
C27A C -0.15656(14) -0.2168(3) 0.43002(7)
C28A C -0.21246(14) -0.1865(3) 0.43276(7)
H24A H -0.2352 -0.2312 0.4458
C29A C -0.23523(14) -0.0878(3) 0.41593(7)
H25A H -0.2731 -0.0666 0.4181
C30A C -0.20245(13) -0.0217(2) 0.39622(6)
C31A C -0.14590(13) -0.0539(2) 0.39381(7)
H26A H -0.1231 -0.0103 0.3805
C32A C -0.12285(13) -0.1500(3) 0.41088(7)
H27A H -0.0846 -0.1695 0.4094
C33A C -0.22717(13) 0.0793(2) 0.37593(7)
C34A C -0.25525(12) 0.4933(2) 0.35545(6)
H28A H -0.2859 0.5225 0.3663
C35A C -0.17724(12) 0.4863(2) 0.33014(6)
H29A H -0.1443 0.5079 0.3202
C36A C -0.19818(12) 0.3760(2) 0.33297(6)
H30A H -0.1817 0.3070 0.3253
C37A C -0.20915(14) 0.6921(2) 0.34880(6)
H31A H -0.1734 0.7103 0.3607
H32A H -0.2399 0.7195 0.3615
C38A C -0.21163(14) 0.7591(2) 0.31752(6)
C39A C -0.26491(13) 0.7894(2) 0.30288(7)
C40A C -0.26748(13) 0.8610(2) 0.27536(6)
C41A C -0.21758(14) 0.9000(2) 0.26206(6)
C42A C -0.16496(13) 0.8639(2) 0.27579(6)
C43A C -0.16092(13) 0.7950(2) 0.30403(7)
C44A C -0.31853(14) 0.7501(3) 0.31810(8)
H33A H -0.3505 0.7941 0.3088
H34A H -0.3147 0.7646 0.3409
H35A H -0.3245 0.6664 0.3143
C45A C -0.21958(16) 0.9883(3) 0.23415(7)
H36A H -0.1969 1.0570 0.2401
H37A H -0.2584 1.0123 0.2291
H38A H -0.2047 0.9511 0.2156
C46A C -0.10274(14) 0.7643(3) 0.31927(8)
H39A H -0.0864 0.7007 0.3074
H40A H -0.1064 0.7396 0.3412
H41A H -0.0784 0.8331 0.3189
C47A C -0.11178(14) 0.9039(2) 0.26016(7)
H42A H -0.0802 0.8521 0.2670
H43A H -0.1178 0.8971 0.2369
C48A C -0.10562(13) 1.0885(2) 0.29695(7)
H44A H -0.1242 1.0596 0.3145
C49A C -0.08194(12) 1.1963(2) 0.29411(6)
H45A H -0.0817 1.2560 0.3096
C50A C -0.06866(12) 1.1015(2) 0.25043(6)
H46A H -0.0575 1.0820 0.2300
C51A C -0.32405(13) 0.9089(2) 0.26167(7)
H47A H -0.3225 0.9218 0.2387
H48A H -0.3542 0.8519 0.2651
C52A C -0.30557(13) 1.0708(2) 0.30265(6)
H49A H -0.2713 1.0399 0.3115
C53A C -0.38362(13) 1.0922(2) 0.27194(7)
H50A H -0.4126 1.0803 0.2560
C54A C -0.38007(13) 1.1806(2) 0.29360(6)
H51A H -0.4068 1.2411 0.2954
N1A N -0.24747(10) 0.38036(18) 0.34882(5)
N2A N -0.21390(10) 0.56090(18) 0.34474(5)
N3A N -0.33019(10) 1.16797(18) 0.31306(5)
N3_2 N 0.33019(10) 0.16797(18) 0.18694(5)
N3A_2 N -0.33019(10) 0.16797(18) 0.31306(5)
N4A N -0.33609(10) 1.02260(18) 0.27786(5)
N5A N -0.09697(10) 1.02911(18) 0.26874(5)
N6A N -0.05807(9) 1.20543(18) 0.26480(5)
O1A O -0.03470(8) -0.39051(16) 0.70999(4)
O1D O -0.03470(8) 1.39051(16) 0.20999(4)
O1E O 0.03470(8) 1.39051(16) 0.29001(4)
O2A O 0.05011(10) -0.47461(17) 0.70689(4)
O3A O -0.06625(9) -0.5906(2) 0.56837(4)
O4A O -0.03258(11) -0.77060(19) 0.42160(6)
O5A O 0.13133(9) -1.16746(18) 0.37264(6)
O5B O 0.36867(9) 0.33254(18) 0.12736(6)
O5C O -0.36867(9) 0.33254(18) 0.37264(6)
O6A O 0.11341(11) -1.0654(2) 0.32637(6)
O7A O -0.12968(9) -0.31393(19) 0.44451(5)
O8A O -0.20193(9) 0.11234(17) 0.35234(5)
O9A O -0.27454(9) 0.12465(16) 0.38403(4)
Zn1A Zn -0.304840(14) 0.24929(2) 0.353970(7)
Zn1_2 Zn 0.304840(14) 1.24929(2) 0.146030(7)
Zn1A_2 Zn -0.304840(14) 1.24929(2) 0.353970(7)
Zn1B Zn -0.195160(14) -1.25071(2) 0.146030(7)
Zn1C Zn 0.195160(14) -1.25071(2) 0.353970(7)
Zn2D Zn 0.0000 -0.32681(3) -0.2500
Zn2D_2 Zn 0.0000 -0.32681(3) 0.7500
loop_
_geom_bond_atom_site_label_1
_geom_bond_atom_site_label_2
_geom_bond_site_symmetry_1
_geom_bond_site_symmetry_2
C1 C2 1_555 1_555
C2 C3 1_555 1_555
C3 H1 1_555 1_555
C4 C3 1_555 1_555
H2 C4 1_555 1_555
C5 C4 1_555 1_555
C6 C5 1_555 1_555
H3 C6 1_555 1_555
C7 C2 1_555 1_555
H4 C7 1_555 1_555
C8 H5 1_555 1_555
H6 C8 1_555 1_555
C9 C8 1_555 1_555
C10 C9 1_555 1_555
C11 C10 1_555 1_555
C12 C11 1_555 1_555
C13 C12 1_555 1_555
C14 C9 1_555 1_555
C15 C10 1_555 1_555
H7 C15 1_555 1_555
H8 C15 1_555 1_555
H9 C15 1_555 1_555
C16 C12 1_555 1_555
H10 C16 1_555 1_555
H11 C16 1_555 1_555
H12 C16 1_555 1_555
C17 C14 1_555 1_555
H13 C17 1_555 1_555
H14 C17 1_555 1_555
H15 C17 1_555 1_555
C18 C13 1_555 1_555
H16 C18 1_555 1_555
H17 C18 1_555 1_555
C19 C20 1_555 1_555
C20 H18 1_555 1_555
C21 C20 1_555 1_555
H19 C21 1_555 1_555
C22 C21 1_555 1_555
C23 C22 1_555 1_555
H20 C23 1_555 1_555
C24 C19 1_555 1_555
H21 C24 1_555 1_555
C25 C22 1_555 1_555
C26 C11 1_555 1_555
H22 C26 1_555 1_555
H23 C26 1_555 1_555
C27 C28 1_555 1_555
C28 H24 1_555 1_555
C29 C28 1_555 1_555
H25 C29 1_555 1_555
C30 C29 1_555 1_555
C31 C30 1_555 1_555
H26 C31 1_555 1_555
C32 C27 1_555 1_555
H27 C32 1_555 1_555
C33 C30 1_555 1_555
C34 H28 1_555 1_555
C35 H29 1_555 1_555
C36 C35 1_555 1_555
H30 C36 1_555 1_555
C37 H31 1_555 1_555
H32 C37 1_555 1_555
C38 C37 1_555 1_555
C39 C38 1_555 1_555
C40 C39 1_555 1_555
C41 C40 1_555 1_555
C42 C41 1_555 1_555
C43 C38 1_555 1_555
C44 C39 1_555 1_555
H33 C44 1_555 1_555
H34 C44 1_555 1_555
H35 C44 1_555 1_555
C45 C41 1_555 1_555
H36 C45 1_555 1_555
H37 C45 1_555 1_555
H38 C45 1_555 1_555
C46 C43 1_555 1_555
H39 C46 1_555 1_555
H40 C46 1_555 1_555
H41 C46 1_555 1_555
C47 C42 1_555 1_555
H42 C47 1_555 1_555
H43 C47 1_555 1_555
C48 H44 1_555 1_555
C49 C48 1_555 1_555
H45 C49 1_555 1_555
C50 H46 1_555 1_555
C51 C40 1_555 1_555
H47 C51 1_555 1_555
H48 C51 1_555 1_555
C52 H49 1_555 1_555
C53 H50 1_555 1_555
C54 C53 1_555 1_555
H51 C54 1_555 1_555
N1 C34 1_555 1_555
N2 C34 1_555 1_555
N3 C52 1_555 1_555
N4 C51 1_555 1_555
N5 C47 1_555 1_555
N6 C49 1_555 1_555
O1 C1 1_555 1_555
O2 C1 1_555 1_555
O3 C5 1_555 1_555
O4 C18 1_555 1_555
O5 C25 1_555 1_555
O6 C25 1_555 1_555
O7 C26 1_555 1_555
O8 C33 1_555 1_555
O9 C33 1_555 1_555
Zn1 N1 1_555 1_555
Zn2 N6 1_555 1_555
C1A C2A 1_555 1_555
C2A C3A 1_555 1_555
C3A H1A 1_555 1_555
C4A C3A 1_555 1_555
H2A C4A 1_555 1_555
C5A C4A 1_555 1_555
C6A C5A 1_555 1_555
H3A C6A 1_555 1_555
C7A C2A 1_555 1_555
H4A C7A 1_555 1_555
C8A H5A 1_555 1_555
H6A C8A 1_555 1_555
C9A C8A 1_555 1_555
C10A C9A 1_555 1_555
C11A C10A 1_555 1_555
C12A C11A 1_555 1_555
C13A C12A 1_555 1_555
C14A C9A 1_555 1_555
C15A C10A 1_555 1_555
H7A C15A 1_555 1_555
H8A C15A 1_555 1_555
H9A C15A 1_555 1_555
C16A C12A 1_555 1_555
H10A C16A 1_555 1_555
H11A C16A 1_555 1_555
H12A C16A 1_555 1_555
C17A C14A 1_555 1_555
H13A C17A 1_555 1_555
H14A C17A 1_555 1_555
H15A C17A 1_555 1_555
C18A C13A 1_555 1_555
H16A C18A 1_555 1_555
H17A C18A 1_555 1_555
C19A C20A 1_555 1_555
C20A H18A 1_555 1_555
C21A C20A 1_555 1_555
H19A C21A 1_555 1_555
C22A C21A 1_555 1_555
C23A C22A 1_555 1_555
H20A C23A 1_555 1_555
C24A C19A 1_555 1_555
H21A C24A 1_555 1_555
C25A C22A 1_555 1_555
C26A C11A 1_555 1_555
H22A C26A 1_555 1_555
H23A C26A 1_555 1_555
C27A C28A 1_555 1_555
C28A H24A 1_555 1_555
C29A C28A 1_555 1_555
H25A C29A 1_555 1_555
C30A C29A 1_555 1_555
C31A C30A 1_555 1_555
H26A C31A 1_555 1_555
C32A C27A 1_555 1_555
H27A C32A 1_555 1_555
C33A C30A 1_555 1_555
C34A H28A 1_555 1_555
C35A H29A 1_555 1_555
C36A C35A 1_555 1_555
H30A C36A 1_555 1_555
C37A H31A 1_555 1_555
H32A C37A 1_555 1_555
C38A C37A 1_555 1_555
C39A C38A 1_555 1_555
C40A C39A 1_555 1_555
C41A C40A 1_555 1_555
C42A C41A 1_555 1_555
C43A C38A 1_555 1_555
C44A C39A 1_555 1_555
H33A C44A 1_555 1_555
H34A C44A 1_555 1_555
H35A C44A 1_555 1_555
C45A C41A 1_555 1_555
H36A C45A 1_555 1_555
H37A C45A 1_555 1_555
H38A C45A 1_555 1_555
C46A C43A 1_555 1_555
H39A C46A 1_555 1_555
H40A C46A 1_555 1_555
H41A C46A 1_555 1_555
C47A C42A 1_555 1_555
H42A C47A 1_555 1_555
H43A C47A 1_555 1_555
C48A H44A 1_555 1_555
C49A C48A 1_555 1_555
H45A C49A 1_555 1_555
C50A H46A 1_555 1_555
C51A C40A 1_555 1_555
H47A C51A 1_555 1_555
H48A C51A 1_555 1_555
C52A H49A 1_555 1_555
C53A H50A 1_555 1_555
C54A C53A 1_555 1_555
H51A C54A 1_555 1_555
N1A C34A 1_555 1_555
N2A C34A 1_555 1_555
N3A C52A 1_555 1_555
N3_2 Zn1 1_555 1_555
N3A_2 Zn1A 1_555 1_555
N4A C51A 1_555 1_555
N5A C47A 1_555 1_555
N6A Zn2 1_555 1_555
O1A C1A 1_555 1_555
O1D Zn2 1_555 1_555
O1E Zn2 1_555 1_555
O2A C1A 1_555 1_555
O3A C5A 1_555 1_555
O4A C18A 1_555 1_555
O5A C25A 1_555 1_555
O5B Zn1 1_555 1_555
O5C Zn1A 1_555 1_555
O6A C25A 1_555 1_555
O7A C26A 1_555 1_555
O8A C33A 1_555 1_555
O9A C33A 1_555 1_555
Zn1A N1A 1_555 1_555
Zn1_2 N3 1_555 1_555
Zn1A_2 N3A 1_555 1_555
Zn1B O5 1_555 1_555
Zn1C O5A 1_555 1_555
Zn2D O1 1_555 1_555
Zn2D_2 O1A 1_555 1_555
C6 C7 1_555 1_555
C8 O3 1_555 1_555
C13 C14 1_555 1_555
C19 O4 1_555 1_555
C23 C24 1_555 1_555
C27 O7 1_555 1_555
C31 C32 1_555 1_555
C35 N2 1_555 1_555
C36 N1 1_555 1_555
C37 N2 1_555 1_555
C42 C43 1_555 1_555
C48 N5 1_555 1_555
C50 N5 1_555 1_555
C50 N6 1_555 1_555
C52 N4 1_555 1_555
C53 N4 1_555 1_555
C54 N3 1_555 1_555
O9 Zn1 1_555 1_555
C6A C7A 1_555 1_555
C8A O3A 1_555 1_555
C13A C14A 1_555 1_555
C19A O4A 1_555 1_555
C23A C24A 1_555 1_555
C27A O7A 1_555 1_555
C31A C32A 1_555 1_555
C35A N2A 1_555 1_555
C36A N1A 1_555 1_555
C37A N2A 1_555 1_555
C42A C43A 1_555 1_555
C48A N5A 1_555 1_555
C49A N6A 1_555 1_555
C50A N5A 1_555 1_555
C50A N6A 1_555 1_555
C52A N4A 1_555 1_555
C53A N4A 1_555 1_555
C54A N3A 1_555 1_555
O9A Zn1A 1_555 1_555

#END
