
#######################################################################
#
#                 Cambridge Crystallographic Data Centre
#                                CCDC 
#
#######################################################################
#
# If this CIF has been generated from an entry in the Cambridge 
# Structural Database, then it will include bibliographic, chemical, 
# crystal, experimental, refinement or atomic coordinate data resulting 
# from the CCDC's data processing and validation procedures.
#
#######################################################################

data_DEHMEJ
_symmetry_cell_setting           tetragonal
_symmetry_space_group_name_H-M   'I 41/a'
_symmetry_Int_Tables_number      88
_space_group_name_Hall           '-I 4ad'
loop_
_symmetry_equiv_pos_site_id
_symmetry_equiv_pos_as_xyz
1 x,y,z
2 3/4-y,1/4+x,1/4+z
3 1/2+x,1/2+y,1/2+z
4 1/4-y,3/4+x,3/4+z
5 1/4+y,1/4-x,1/4+z
6 1/2-x,-y,1/2+z
7 3/4+y,3/4-x,3/4+z
8 -x,1/2-y,z
9 -x,-y,-z
10 1/4+y,3/4-x,3/4-z
11 1/2-x,1/2-y,1/2-z
12 3/4+y,1/4-x,1/4-z
13 3/4-y,3/4+x,3/4-z
14 1/2+x,y,1/2-z
15 1/4-y,1/4+x,1/4-z
16 x,1/2+y,-z
_cell_length_a                   16.463(2)
_cell_length_b                   16.463(2)
_cell_length_c                   29.839(6)
_cell_angle_alpha                90
_cell_angle_beta                 90
_cell_angle_gamma                90
_cell_volume                     8087.28
loop_
_atom_site_label
_atom_site_type_symbol
_atom_site_fract_x
_atom_site_fract_y
_atom_site_fract_z
Ag1 Ag 0.000540(14) 0.151300(14) 0.368210(8)
Cu1 Cu 0.2500 0.2500 0.2500
Cu2 Cu 0.109560(19) 0.517984(18) 0.229752(11)
C1 C 0.15391(14) 0.41235(14) 0.23616(8)
N1 N 0.18385(12) 0.34975(12) 0.24096(7)
C2 C 0.10078(17) 0.18416(17) 0.33132(9)
N2 N 0.15372(15) 0.20465(15) 0.31017(9)
C3 C -0.09484(17) 0.11980(17) 0.40896(10)
N3 N -0.14713(14) 0.11302(14) 0.43386(8)
N4 N 0.13162(16) 0.59097(15) 0.29042(8)
C4 C 0.1262(4) 0.6702(2) 0.29106(16)
H1 H 0.1077 0.6965 0.2654
C5 C 0.1464(5) 0.7164(3) 0.3277(2)
H2 H 0.1430 0.7727 0.3264
C6 C 0.1711(4) 0.6797(4) 0.36566(17)
H3 H 0.1852 0.7099 0.3908
C7 C 0.1748(3) 0.5993(4) 0.36599(14)
H4 H 0.1903 0.5719 0.3919
C8 C 0.1556(3) 0.5567(2) 0.32790(12)
H5 H 0.1599 0.5004 0.3287
N5 N 0.18255(11) 0.19012(11) 0.20258(6)
C9 C 0.10155(15) 0.18895(16) 0.20465(9)
H6 H 0.0757 0.2183 0.2271
C10 C 0.05469(18) 0.1456(2) 0.17449(11)
H7 H -0.0016 0.1454 0.1769
C11 C 0.0924(2) 0.1028(2) 0.14091(10)
H8 H 0.0621 0.0727 0.1205
C12 C 0.1756(2) 0.10532(19) 0.13806(9)
H9 H 0.2024 0.0780 0.1152
C13 C 0.21869(16) 0.14875(16) 0.16942(9)
H10 H 0.2751 0.1494 0.1676
N6 N -0.01600(13) 0.53687(14) 0.23318(8)
C14 C -0.05971(19) 0.48836(18) 0.25975(10)
H11 H -0.0341 0.4439 0.2728
C15 C -0.1778(2) 0.5663(3) 0.25109(14)
H12 H -0.2321 0.5765 0.2575
C16 C -0.1400(2) 0.5008(2) 0.26863(11)
H13 H -0.1684 0.4646 0.2866
C17 C -0.1346(2) 0.6178(3) 0.22347(17)
H14 H -0.1589 0.6635 0.2110
C18 C -0.05444(19) 0.5996(2) 0.21490(14)
H15 H -0.0258 0.6330 0.1953
Ag1J Ag 0.499460(14) 0.348700(14) 0.131790(8)
Ag1C Ag 0.098700(14) 0.750540(14) 0.118210(8)
Cu2J Cu 0.390440(19) -0.017984(18) 0.270248(11)
Cu2D Cu -0.232016(18) 0.140440(19) 0.479752(11)
C1J C 0.34609(14) 0.08765(14) 0.26384(8)
N1J N 0.31615(12) 0.15025(12) 0.25904(7)
C2J C 0.39922(17) 0.31584(17) 0.16868(9)
N2J N 0.34628(15) 0.29535(15) 0.18983(9)
C3C C 0.13020(17) 0.65516(17) 0.15896(10)
C3J C 0.59484(17) 0.38020(17) 0.09104(10)
N3C N 0.13698(14) 0.60287(14) 0.18386(8)
N3I N 0.36302(14) -0.10287(14) 0.31614(8)
N4J N 0.36838(16) -0.09097(15) 0.20958(8)
C4J C 0.3738(4) -0.1702(2) 0.20894(16)
H1J H 0.3923 -0.1965 0.2346
C5J C 0.3536(5) -0.2164(3) 0.1723(2)
H2J H 0.3570 -0.2727 0.1736
C6J C 0.3289(4) -0.1797(4) 0.13434(17)
H3J H 0.3148 -0.2099 0.1092
C7J C 0.3252(3) -0.0993(4) 0.13401(14)
H4J H 0.3097 -0.0719 0.1081
C8J C 0.3444(3) -0.0567(2) 0.17210(12)
H5J H 0.3401 -0.0004 0.1713
N5J N 0.31745(11) 0.30988(11) 0.29742(6)
C9J C 0.39845(15) 0.31105(16) 0.29535(9)
H6J H 0.4243 0.2817 0.2729
C10J C 0.44531(18) 0.3544(2) 0.32551(11)
H7J H 0.5016 0.3546 0.3231
C11J C 0.4076(2) 0.3972(2) 0.35909(10)
H8J H 0.4379 0.4273 0.3795
C12J C 0.3244(2) 0.39468(19) 0.36194(9)
H9J H 0.2976 0.4220 0.3848
C13J C 0.28131(16) 0.35125(16) 0.33058(9)
H10J H 0.2249 0.3506 0.3324
N6J N 0.51600(13) -0.03687(14) 0.26682(8)
C14J C 0.55971(19) 0.01164(18) 0.24025(10)
H11J H 0.5341 0.0561 0.2272
C15J C 0.6778(2) -0.0663(3) 0.24891(14)
H12J H 0.7321 -0.0765 0.2425
C16J C 0.6400(2) -0.0008(2) 0.23137(11)
H13J H 0.6684 0.0354 0.2134
C17J C 0.6346(2) -0.1178(3) 0.27653(17)
H14J H 0.6589 -0.1635 0.2890
C18J C 0.55444(19) -0.0996(2) 0.28510(14)
H15J H 0.5258 -0.1330 0.3047
loop_
_geom_bond_atom_site_label_1
_geom_bond_atom_site_label_2
_geom_bond_site_symmetry_1
_geom_bond_site_symmetry_2
Ag1 C2 1_555 1_555
Cu1 N1 1_555 1_555
Cu2 C1 1_555 1_555
C1 N1 1_555 1_555
C2 N2 1_555 1_555
N2 Cu1 1_555 1_555
C3 Ag1 1_555 1_555
N3 C3 1_555 1_555
N4 Cu2 1_555 1_555
C4 N4 1_555 1_555
H1 C4 1_555 1_555
C5 C4 1_555 1_555
H2 C5 1_555 1_555
C6 C5 1_555 1_555
H3 C6 1_555 1_555
C7 C6 1_555 1_555
H4 C7 1_555 1_555
C8 N4 1_555 1_555
H5 C8 1_555 1_555
N5 Cu1 1_555 1_555
C9 N5 1_555 1_555
H6 C9 1_555 1_555
C10 C9 1_555 1_555
H7 C10 1_555 1_555
C11 C10 1_555 1_555
H8 C11 1_555 1_555
C12 C11 1_555 1_555
H9 C12 1_555 1_555
C13 N5 1_555 1_555
H10 C13 1_555 1_555
N6 Cu2 1_555 1_555
C14 N6 1_555 1_555
H11 C14 1_555 1_555
C15 H12 1_555 1_555
C16 C14 1_555 1_555
H13 C16 1_555 1_555
C17 C15 1_555 1_555
H14 C17 1_555 1_555
C18 N6 1_555 1_555
H15 C18 1_555 1_555
Ag1J C2J 1_555 1_555
Ag1C C3C 1_555 1_555
Cu2J C1J 1_555 1_555
Cu2D N3 1_555 1_555
C1J N1J 1_555 1_555
N1J Cu1 1_555 1_555
C2J N2J 1_555 1_555
N2J Cu1 1_555 1_555
C3C N3C 1_555 1_555
C3J Ag1J 1_555 1_555
N3C Cu2 1_555 1_555
N3I Cu2J 1_555 1_555
N4J Cu2J 1_555 1_555
C4J N4J 1_555 1_555
H1J C4J 1_555 1_555
C5J C4J 1_555 1_555
H2J C5J 1_555 1_555
C6J C5J 1_555 1_555
H3J C6J 1_555 1_555
C7J C6J 1_555 1_555
H4J C7J 1_555 1_555
C8J N4J 1_555 1_555
H5J C8J 1_555 1_555
N5J Cu1 1_555 1_555
C9J N5J 1_555 1_555
H6J C9J 1_555 1_555
C10J C9J 1_555 1_555
H7J C10J 1_555 1_555
C11J C10J 1_555 1_555
H8J C11J 1_555 1_555
C12J C11J 1_555 1_555
H9J C12J 1_555 1_555
C13J N5J 1_555 1_555
H10J C13J 1_555 1_555
N6J Cu2J 1_555 1_555
C14J N6J 1_555 1_555
H11J C14J 1_555 1_555
C15J H12J 1_555 1_555
C16J C14J 1_555 1_555
H13J C16J 1_555 1_555
C17J C15J 1_555 1_555
H14J C17J 1_555 1_555
C18J N6J 1_555 1_555
H15J C18J 1_555 1_555
C7 C8 1_555 1_555
C12 C13 1_555 1_555
C15 C16 1_555 1_555
C17 C18 1_555 1_555
C7J C8J 1_555 1_555
C12J C13J 1_555 1_555
C15J C16J 1_555 1_555
C17J C18J 1_555 1_555

#END
