
#######################################################################
#
#                 Cambridge Crystallographic Data Centre
#                                CCDC 
#
#######################################################################
#
# If this CIF has been generated from an entry in the Cambridge 
# Structural Database, then it will include bibliographic, chemical, 
# crystal, experimental, refinement or atomic coordinate data resulting 
# from the CCDC's data processing and validation procedures.
#
#######################################################################

data_DEHNEK
_symmetry_cell_setting           monoclinic
_symmetry_space_group_name_H-M   'P 21/a'
_symmetry_Int_Tables_number      14
_space_group_name_Hall           '-P 2yab'
loop_
_symmetry_equiv_pos_site_id
_symmetry_equiv_pos_as_xyz
1 x,y,z
2 1/2-x,1/2+y,-z
3 -x,-y,-z
4 1/2+x,1/2-y,z
_cell_length_a                   9.5614(6)
_cell_length_b                   11.4554(10)
_cell_length_c                   20.5330(18)
_cell_angle_alpha                90
_cell_angle_beta                 93.417(2)
_cell_angle_gamma                90
_cell_volume                     2244.97
loop_
_atom_site_label
_atom_site_type_symbol
_atom_site_fract_x
_atom_site_fract_y
_atom_site_fract_z
S1 S 0.08722(5) 0.55989(4) 0.18756(2)
S2 S -0.02612(5) 0.16684(4) 0.05305(2)
Na1 Na 0.23757(8) 0.60017(7) 0.03525(4)
Na2 Na 0.11071(8) -0.08288(7) 0.09152(4)
O1 O 0.23372(13) 0.56662(11) 0.21007(6)
O2 O -0.00830(13) 0.62852(12) 0.22450(6)
O3 O 0.07053(14) 0.58794(12) 0.11738(6)
O4 O -0.0851(2) 0.05256(13) 0.06261(7)
O5 O 0.12128(17) 0.1619(2) 0.04298(9)
O6 O -0.10223(17) 0.23132(13) 0.00186(7)
O7 O -0.05552(15) 0.38034(13) 0.42679(6)
O8 O 0.16784(17) 0.43524(15) -0.03368(8)
O9 O 0.39743(16) 0.68343(14) 0.12139(7)
O10 O 0.19825(17) -0.07688(16) 0.19738(8)
N1 N 0.10215(16) 0.47936(14) 0.32794(7)
N2 N 0.12962(17) 0.51289(15) 0.38812(8)
C1 C 0.02989(18) 0.41108(16) 0.19254(9)
C2 C 0.02189(19) 0.35317(17) 0.13339(9)
H1 H 0.0565 0.3900 0.0961
C3 C -0.03596(19) 0.24182(17) 0.12746(9)
C4 C -0.09317(19) 0.19003(17) 0.18005(9)
H2 H -0.1385 0.1165 0.1752
C5 C -0.08451(19) 0.24592(17) 0.24063(9)
C6 C -0.1451(2) 0.18747(18) 0.29472(9)
H3 H -0.1895 0.1140 0.2874
C7 C -0.1406(2) 0.23379(18) 0.35500(9)
H4 H -0.1871 0.1953 0.3885
C8 C -0.06641(19) 0.34051(18) 0.36936(9)
C9 C 0.00340(19) 0.39791(16) 0.31644(9)
C10 C -0.01634(18) 0.35516(16) 0.24967(9)
C11 C 0.2459(2) 0.58535(17) 0.40463(9)
C12 C 0.3080(2) 0.65451(18) 0.35909(10)
H5 H 0.2750 0.6533 0.3145
C13 C 0.4190(2) 0.7253(2) 0.37997(10)
H6 H 0.4626 0.7735 0.3494
C14 C 0.4674(2) 0.7268(2) 0.44523(11)
H7 H 0.5436 0.7759 0.4591
C15 C 0.4043(2) 0.6567(2) 0.49001(11)
H8 H 0.4377 0.6576 0.5345
C16 C 0.2931(2) 0.5853(2) 0.47027(10)
H9 H 0.2496 0.5371 0.5008
C17 C 0.1120(2) -0.0861(2) 0.25242(11)
C18 C 0.1648(3) -0.0124(3) 0.30865(13)
H10 H 0.075(3) 0.478(2) 0.4196(12)
H11 H 0.171(4) 0.372(3) -0.0139(17)
H12 H 0.104(3) 0.428(3) -0.0581(15)
H13 H 0.355(3) 0.654(2) 0.1540(13)
H14 H 0.429(3) 0.745(3) 0.1349(14)
H15 H 0.276(3) -0.090(2) 0.2139(13)
H16 H 0.013(3) -0.063(2) 0.2377(11)
H17 H 0.108(3) -0.167(2) 0.2653(12)
H18 H 0.175(3) 0.071(3) 0.2967(13)
H19 H 0.259(3) -0.040(2) 0.3249(12)
H20 H 0.105(3) -0.017(2) 0.3446(13)
Na1C Na -0.26243(8) -0.10017(7) 0.03525(4)
Na1A Na 0.26243(8) 0.10017(7) -0.03525(4)
Na1B Na -0.23757(8) 0.39983(7) -0.03525(4)
Na2B Na -0.11071(8) 0.08288(7) -0.09152(4)
Na2A Na 0.38929(8) 0.41712(7) -0.09152(4)
Na2C Na 0.61071(8) 0.58288(7) 0.09152(4)
O4C O 0.4149(2) 0.44744(13) 0.06261(7)
O5A O 0.37872(17) 0.6619(2) -0.04298(9)
O6B O 0.10223(17) 0.76868(13) -0.00186(7)
O6B_2 O 0.10223(17) -0.23132(13) -0.00186(7)
O8A O 0.33216(17) -0.06476(15) 0.03368(8)
O9C O -0.10257(16) -0.18343(14) 0.12139(7)
H11A H 0.329(4) -0.128(3) 0.0139(17)
H12A H 0.396(3) -0.072(3) 0.0581(15)
H13C H -0.145(3) -0.154(2) 0.1540(13)
H14C H -0.071(3) -0.245(3) 0.1349(14)
loop_
_geom_bond_atom_site_label_1
_geom_bond_atom_site_label_2
_geom_bond_site_symmetry_1
_geom_bond_site_symmetry_2
S1 O1 1_555 1_555
S2 O4 1_555 1_555
Na1 O3 1_555 1_555
Na2 O4 1_555 1_555
O2 S1 1_555 1_555
O3 S1 1_555 1_555
O4 Na1C 1_555 1_555
O5 S2 1_555 1_555
O6 S2 1_555 1_555
O7 C8 1_555 1_555
O8 Na1 1_555 1_555
O9 Na1 1_555 1_555
O10 Na2 1_555 1_555
N1 N2 1_555 1_555
N2 C11 1_555 1_555
C1 S1 1_555 1_555
C2 C1 1_555 1_555
H1 C2 1_555 1_555
C3 S2 1_555 1_555
C4 C3 1_555 1_555
H2 C4 1_555 1_555
C5 C4 1_555 1_555
C6 C5 1_555 1_555
H3 C6 1_555 1_555
C7 C6 1_555 1_555
H4 C7 1_555 1_555
C8 C7 1_555 1_555
C9 N1 1_555 1_555
C10 C1 1_555 1_555
C11 C12 1_555 1_555
C12 H5 1_555 1_555
C13 C12 1_555 1_555
H6 C13 1_555 1_555
C14 C13 1_555 1_555
H7 C14 1_555 1_555
C15 C14 1_555 1_555
H8 C15 1_555 1_555
C16 C11 1_555 1_555
H9 C16 1_555 1_555
C17 O10 1_555 1_555
C18 C17 1_555 1_555
H10 N2 1_555 1_555
H11 O8 1_555 1_555
H12 O8 1_555 1_555
H13 O9 1_555 1_555
H14 O9 1_555 1_555
H15 O10 1_555 1_555
H16 C17 1_555 1_555
H17 C17 1_555 1_555
H18 C18 1_555 1_555
H19 C18 1_555 1_555
H20 C18 1_555 1_555
Na1C O9C 1_555 1_555
Na1A O5 1_555 1_555
Na1B O6 1_555 1_555
Na2B O6 1_555 1_555
Na2A O8 1_555 1_555
Na2C O9 1_555 1_555
O4C Na1 1_555 1_555
O5A Na1 1_555 1_555
O6B Na1 1_555 1_555
O6B_2 Na2 1_555 1_555
O8A Na2 1_555 1_555
O9C Na2 1_555 1_555
H11A O8A 1_555 1_555
H12A O8A 1_555 1_555
H13C O9C 1_555 1_555
H14C O9C 1_555 1_555
Na2 O5 1_555 1_555
C2 C3 1_555 1_555
C5 C10 1_555 1_555
C8 C9 1_555 1_555
C9 C10 1_555 1_555
C15 C16 1_555 1_555
Na1A O8A 1_555 1_555
Na2A O5A 1_555 1_555
Na2C O4C 1_555 1_555

#END
