
#######################################################################
#
#                 Cambridge Crystallographic Data Centre
#                                CCDC 
#
#######################################################################
#
# If this CIF has been generated from an entry in the Cambridge 
# Structural Database, then it will include bibliographic, chemical, 
# crystal, experimental, refinement or atomic coordinate data resulting 
# from the CCDC's data processing and validation procedures.
#
#######################################################################

data_DEHNUA
_symmetry_cell_setting           monoclinic
_symmetry_space_group_name_H-M   'C 2/c'
_symmetry_Int_Tables_number      15
_space_group_name_Hall           '-C 2yn'
loop_
_symmetry_equiv_pos_site_id
_symmetry_equiv_pos_as_xyz
1 x,y,z
2 1/2+x,1/2+y,z
3 -x,y,1/2-z
4 1/2-x,1/2+y,1/2-z
5 -x,-y,-z
6 1/2-x,1/2-y,-z
7 x,-y,1/2+z
8 1/2+x,1/2-y,1/2+z
_cell_length_a                   10.0523(1)
_cell_length_b                   18.4467(4)
_cell_length_c                   25.6764(5)
_cell_angle_alpha                90
_cell_angle_beta                 92.686(1)
_cell_angle_gamma                90
_cell_volume                     4755.99
loop_
_atom_site_label
_atom_site_type_symbol
_atom_site_fract_x
_atom_site_fract_y
_atom_site_fract_z
Cs1 Cs 0.0000 0.210384(12) 0.2500
Na1 Na -0.37007(8) 0.17702(5) 0.15857(3)
Na2 Na 0.5000 0.44424(7) 0.2500
S1 S 0.01513(5) 0.36605(3) 0.13921(2)
S2 S 0.40500(5) 0.56527(3) 0.14106(2)
O1 O -0.10599(15) 0.40436(9) 0.15167(6)
O2 O -0.00883(15) 0.29897(8) 0.11127(6)
O3 O -0.26672(17) 0.27851(10) 0.19353(7)
O4 O 0.09995(15) 0.35494(9) 0.18646(6)
O5 O 0.17232(19) 0.19098(13) 0.13813(9)
O6 O 0.34769(14) 0.63754(8) 0.13535(6)
O7 O 0.6736(2) 0.47004(12) 0.19540(8)
O8 O 0.40451(14) 0.53958(8) 0.19490(6)
O9 O -0.33538(19) 0.09915(10) 0.23232(7)
O10 O 0.53616(14) 0.55938(8) 0.11908(6)
O11 O 0.36947(19) 0.34388(11) 0.21698(7)
O12 O -0.06589(15) 0.35958(9) -0.07627(6)
O13 O -0.58642(17) 0.19746(9) 0.18830(7)
N1 N -0.11329(17) 0.37967(10) 0.03108(7)
N2 N -0.20888(17) 0.35090(10) 0.00216(7)
C1 C 0.1106(2) 0.42485(12) 0.09949(8)
C2 C 0.2028(2) 0.46625(11) 0.12818(8)
H1 H 0.2003 0.4671 0.1651
C3 C 0.2989(2) 0.50652(11) 0.10376(8)
C4 C 0.3088(2) 0.50144(11) 0.05057(8)
H2 H 0.3803 0.5245 0.0342
C5 C 0.2135(2) 0.46224(12) 0.02048(8)
C6 C 0.2254(2) 0.45867(12) -0.03529(8)
H3 H 0.2992 0.4816 -0.0502
C7 C 0.1356(2) 0.42405(13) -0.06689(9)
H4 H 0.1485 0.4221 -0.1033
C8 C 0.0202(2) 0.38981(12) -0.04636(8)
C9 C 0.0025(2) 0.39491(12) 0.00954(8)
C10 C 0.1064(2) 0.42637(11) 0.04411(8)
C11 C -0.3357(2) 0.33862(12) 0.02194(8)
C12 C -0.3640(2) 0.35765(13) 0.07252(9)
H5 H -0.2982 0.3800 0.0949
C13 C -0.4903(2) 0.34346(13) 0.08980(9)
H6 H -0.5108 0.3559 0.1244
C14 C -0.5869(2) 0.31125(13) 0.05695(10)
H7 H -0.6727 0.3013 0.0692
C15 C -0.5580(2) 0.29372(13) 0.00630(9)
H8 H -0.6246 0.2724 -0.0163
C16 C -0.4322(2) 0.30701(12) -0.01177(9)
H9 H -0.4121 0.2948 -0.0465
H10 H -0.193(2) 0.3410(13) -0.0314(10)
H11 H 0.734(3) 0.4527(16) 0.1862(11)
H12 H -0.381(3) 0.0637(17) 0.2391(11)
H13 H -0.298(3) 0.3019(17) 0.2178(12)
H14 H -0.230(3) 0.3085(19) 0.1760(14)
H15 H 0.300(3) 0.3482(17) 0.2045(12)
H16 H -0.606(3) 0.1735(17) 0.2134(12)
H17 H 0.143(3) 0.156(2) 0.1285(13)
H18 H -0.654(4) 0.1963(18) 0.1669(14)
H19 H -0.259(3) 0.0831(17) 0.2317(12)
H20 H 0.124(3) 0.2206(19) 0.1290(13)
H21 H 0.642(4) 0.494(2) 0.1706(15)
H22 H 0.390(3) 0.3030(18) 0.2096(12)
Cs1A Cs 0.5000 0.710384(12) 0.2500
Cs1A_2 Cs -0.5000 0.710384(12) 0.2500
Na1B Na 0.37007(8) 0.17702(5) 0.34143(3)
Na1A Na 0.12993(8) 0.67702(5) 0.15857(3)
Na1E Na -0.12993(8) 0.32298(5) -0.15857(3)
Na1C Na -0.12993(8) 0.67702(5) 0.34143(3)
Na1G Na 0.12993(8) 0.32298(5) 0.65857(3)
Na2_2 Na -0.5000 0.44424(7) 0.2500
S1B S -0.01513(5) 0.36605(3) 0.36079(2)
S2B S -0.40500(5) 0.56527(3) 0.35894(2)
O1B O 0.10599(15) 0.40436(9) 0.34833(6)
O2B O 0.00883(15) 0.29897(8) 0.38873(6)
O3B O 0.26672(17) 0.27851(10) 0.30647(7)
O4B O -0.09995(15) 0.35494(9) 0.31354(6)
O5B O -0.17232(19) 0.19098(13) 0.36187(9)
O6B O -0.34769(14) 0.63754(8) 0.36465(6)
O6A O -0.15231(14) 0.13754(8) 0.13535(6)
O6C O 0.15231(14) 0.13754(8) 0.36465(6)
O7B O 0.3264(2) 0.47004(12) 0.30460(8)
O8B O -0.40451(14) 0.53958(8) 0.30510(6)
O8B_2 O 0.59549(14) 0.53958(8) 0.30510(6)
O9B O 0.33538(19) 0.09915(10) 0.26768(7)
O10B O -0.53616(14) 0.55938(8) 0.38092(6)
O11B O 0.63053(19) 0.34388(11) 0.28302(7)
O12B O 0.06589(15) 0.35958(9) 0.57627(6)
O12E O -0.43411(15) 0.14042(9) 0.07627(6)
O12G O 0.43411(15) 0.14042(9) 0.42373(6)
O13B O 0.58642(17) 0.19746(9) 0.31170(7)
N1B N 0.11329(17) 0.37967(10) 0.46892(7)
N2B N 0.20888(17) 0.35090(10) 0.49784(7)
C1B C -0.1106(2) 0.42485(12) 0.40051(8)
C2B C -0.2028(2) 0.46625(11) 0.37182(8)
H1B H -0.2003 0.4671 0.3349
C3B C -0.2989(2) 0.50652(11) 0.39624(8)
C4B C -0.3088(2) 0.50144(11) 0.44943(8)
H2B H -0.3803 0.5245 0.4658
C5B C -0.2135(2) 0.46224(12) 0.47952(8)
C6B C -0.2254(2) 0.45867(12) 0.53529(8)
H3B H -0.2992 0.4816 0.5502
C7B C -0.1356(2) 0.42405(13) 0.56689(9)
H4B H -0.1485 0.4221 0.6033
C8B C -0.0202(2) 0.38981(12) 0.54636(8)
C9B C -0.0025(2) 0.39491(12) 0.49046(8)
C10B C -0.1064(2) 0.42637(11) 0.45589(8)
C11B C 0.3357(2) 0.33862(12) 0.47806(8)
C12B C 0.3640(2) 0.35765(13) 0.42748(9)
H5B H 0.2982 0.3800 0.4051
C13B C 0.4903(2) 0.34346(13) 0.41020(9)
H6B H 0.5108 0.3559 0.3756
C14B C 0.5869(2) 0.31125(13) 0.44305(10)
H7B H 0.6727 0.3013 0.4308
C15B C 0.5580(2) 0.29372(13) 0.49370(9)
H8B H 0.6246 0.2724 0.5163
C16B C 0.4322(2) 0.30701(12) 0.51177(9)
H9B H 0.4121 0.2948 0.5465
H10B H 0.193(2) 0.3410(13) 0.5314(10)
H11B H 0.266(3) 0.4527(16) 0.3138(11)
H12B H 0.381(3) 0.0637(17) 0.2609(11)
H13B H 0.298(3) 0.3019(17) 0.2822(12)
H14B H 0.230(3) 0.3085(19) 0.3240(14)
H15B H 0.700(3) 0.3482(17) 0.2955(12)
H16B H 0.606(3) 0.1735(17) 0.2866(12)
H17B H -0.143(3) 0.156(2) 0.3715(13)
H18B H 0.654(4) 0.1963(18) 0.3331(14)
H19B H 0.259(3) 0.0831(17) 0.2683(12)
H20B H -0.124(3) 0.2206(19) 0.3710(13)
H21B H 0.358(4) 0.494(2) 0.3294(15)
H22B H 0.610(3) 0.3030(18) 0.2904(12)
O14 O 0.0000 0.48288(16) 0.2500
H23 H 0.016(5) 0.460(2) 0.2723(14)
H23B H -0.016(5) 0.460(2) 0.2277(14)
loop_
_geom_bond_atom_site_label_1
_geom_bond_atom_site_label_2
_geom_bond_site_symmetry_1
_geom_bond_site_symmetry_2
Cs1 O3 1_555 1_555
Na1 O3 1_555 1_555
Na2 O7 1_555 1_555
S1 O1 1_555 1_555
S2 O6 1_555 1_555
O2 S1 1_555 1_555
O3 H13 1_555 1_555
O4 Cs1 1_555 1_555
O5 Cs1 1_555 1_555
O6 Cs1A 1_555 1_555
O7 H11 1_555 1_555
O8 Na2 1_555 1_555
O9 Na1 1_555 1_555
O10 S2 1_555 1_555
O11 Na2 1_555 1_555
O12 C8 1_555 1_555
O13 Na1 1_555 1_555
O14 H23 1_555 1_555
N1 N2 1_555 1_555
N2 C11 1_555 1_555
C1 S1 1_555 1_555
C2 C1 1_555 1_555
H1 C2 1_555 1_555
C3 S2 1_555 1_555
C4 C3 1_555 1_555
H2 C4 1_555 1_555
C5 C4 1_555 1_555
C6 C5 1_555 1_555
H3 C6 1_555 1_555
C7 C6 1_555 1_555
H4 C7 1_555 1_555
C8 C7 1_555 1_555
C9 N1 1_555 1_555
C10 C1 1_555 1_555
C11 C12 1_555 1_555
C12 H5 1_555 1_555
C13 C12 1_555 1_555
H6 C13 1_555 1_555
C14 C13 1_555 1_555
H7 C14 1_555 1_555
C15 C14 1_555 1_555
H8 C15 1_555 1_555
C16 C11 1_555 1_555
H9 C16 1_555 1_555
H10 N2 1_555 1_555
H12 O9 1_555 1_555
H14 O3 1_555 1_555
H15 O11 1_555 1_555
H16 O13 1_555 1_555
H17 O5 1_555 1_555
H18 O13 1_555 1_555
H19 O9 1_555 1_555
H20 O5 1_555 1_555
H21 O7 1_555 1_555
H22 O11 1_555 1_555
Cs1A_2 O6B 1_555 1_555
Na1B O3B 1_555 1_555
Na1A O6 1_555 1_555
Na1E O12 1_555 1_555
Na1C O6B 1_555 1_555
Na1G O12B 1_555 1_555
Na2_2 O8B 1_555 1_555
S1B O1B 1_555 1_555
S2B O6B 1_555 1_555
O2B S1B 1_555 1_555
O3B Cs1 1_555 1_555
O4B Cs1 1_555 1_555
O5B Cs1 1_555 1_555
O6A Cs1 1_555 1_555
O6C Cs1 1_555 1_555
O7B Na2 1_555 1_555
O8B S2B 1_555 1_555
O8B_2 Na2 1_555 1_555
O9B Na1B 1_555 1_555
O10B S2B 1_555 1_555
O11B Na2 1_555 1_555
O12B C8B 1_555 1_555
O12E Na1 1_555 1_555
O12G Na1B 1_555 1_555
O13B Na1B 1_555 1_555
N1B N2B 1_555 1_555
N2B C11B 1_555 1_555
C1B S1B 1_555 1_555
C2B C1B 1_555 1_555
H1B C2B 1_555 1_555
C3B S2B 1_555 1_555
C4B C3B 1_555 1_555
H2B C4B 1_555 1_555
C5B C4B 1_555 1_555
C6B C5B 1_555 1_555
H3B C6B 1_555 1_555
C7B C6B 1_555 1_555
H4B C7B 1_555 1_555
C8B C7B 1_555 1_555
C9B N1B 1_555 1_555
C10B C1B 1_555 1_555
C11B C12B 1_555 1_555
C12B H5B 1_555 1_555
C13B C12B 1_555 1_555
H6B C13B 1_555 1_555
C14B C13B 1_555 1_555
H7B C14B 1_555 1_555
C15B C14B 1_555 1_555
H8B C15B 1_555 1_555
C16B C11B 1_555 1_555
H9B C16B 1_555 1_555
H10B N2B 1_555 1_555
H11B O7B 1_555 1_555
H12B O9B 1_555 1_555
H13B O3B 1_555 1_555
H14B O3B 1_555 1_555
H15B O11B 1_555 1_555
H16B O13B 1_555 1_555
H17B O5B 1_555 1_555
H18B O13B 1_555 1_555
H19B O9B 1_555 1_555
H20B O5B 1_555 1_555
H21B O7B 1_555 1_555
H22B O11B 1_555 1_555
H23B O14 1_555 1_555
Na1 O6A 1_555 1_555
S1 O4 1_555 1_555
S2 O8 1_555 1_555
C2 C3 1_555 1_555
C5 C10 1_555 1_555
C8 C9 1_555 1_555
C9 C10 1_555 1_555
C15 C16 1_555 1_555
Na1B O6C 1_555 1_555
S1B O4B 1_555 1_555
C2B C3B 1_555 1_555
C5B C10B 1_555 1_555
C8B C9B 1_555 1_555
C9B C10B 1_555 1_555
C15B C16B 1_555 1_555

#END
