
#######################################################################
#
#                 Cambridge Crystallographic Data Centre
#                                CCDC 
#
#######################################################################
#
# If this CIF has been generated from an entry in the Cambridge 
# Structural Database, then it will include bibliographic, chemical, 
# crystal, experimental, refinement or atomic coordinate data resulting 
# from the CCDC's data processing and validation procedures.
#
#######################################################################

data_DEHRUF
_symmetry_cell_setting           monoclinic
_symmetry_space_group_name_H-M   'P 21/c'
_symmetry_Int_Tables_number      14
_space_group_name_Hall           '-P 2ybc'
loop_
_symmetry_equiv_pos_site_id
_symmetry_equiv_pos_as_xyz
1 x,y,z
2 -x,1/2+y,1/2-z
3 -x,-y,-z
4 x,1/2-y,1/2+z
_cell_length_a                   7.9405(3)
_cell_length_b                   6.3841(2)
_cell_length_c                   23.4650(7)
_cell_angle_alpha                90
_cell_angle_beta                 94.6930(10)
_cell_angle_gamma                90
_cell_volume                     1185.52
loop_
_atom_site_label
_atom_site_type_symbol
_atom_site_fract_x
_atom_site_fract_y
_atom_site_fract_z
Cu1 Cu 0.02425(3) 0.55225(3) 0.245925(8)
C1 C 0.0624(2) 0.3049(2) 0.35375(7)
C2 C 0.1222(2) 0.3242(3) 0.41596(7)
C3 C 0.1430(3) 0.1522(3) 0.45200(8)
H1 H 0.1158 0.0189 0.4381
C4 C 0.2040(3) 0.1777(3) 0.50858(8)
H2 H 0.2180 0.0609 0.5322
C5 C 0.2449(2) 0.3751(3) 0.53070(7)
C6 C 0.2236(3) 0.5466(3) 0.49429(8)
H3 H 0.2503 0.6800 0.5082
C7 C 0.1638(3) 0.5218(3) 0.43793(8)
H4 H 0.1509 0.6385 0.4143
C8 C 0.3095(2) 0.4082(3) 0.59122(7)
C9 C 0.2493(2) 0.2892(3) 0.63469(7)
H5 H 0.1697 0.1850 0.6257
C10 C 0.4253(2) 0.4692(3) 0.70385(8)
H6 H 0.4657 0.4870 0.7419
C11 C 0.4872(2) 0.5905(3) 0.66249(8)
H7 H 0.5685 0.6919 0.6724
C12 C 0.4292(2) 0.5628(3) 0.60572(8)
H8 H 0.4698 0.6467 0.5775
O1 O 0.07316(18) 0.46944(19) 0.32512(5)
O2 O 0.01064(17) 0.12951(19) 0.33535(5)
O3 O 0.24170(17) 0.2158(2) 0.73121(5)
N1 N 0.30525(18) 0.3228(2) 0.68982(6)
N2 N 0.14239(18) 0.8191(2) 0.26645(6)
N3 N 0.24418(19) 0.8423(2) 0.30771(7)
N4 N 0.3433(2) 0.8717(3) 0.34490(8)
Cu1A Cu -0.02425(3) 0.05225(3) 0.254075(8)
Cu1C Cu 0.02425(3) -0.05225(3) 0.745925(8)
Cu1A_2 Cu -0.02425(3) 1.05225(3) 0.254075(8)
O2A O -0.01064(17) 0.62951(19) 0.16465(5)
O3C O 0.24170(17) 0.2842(2) 0.23121(5)
N2A N -0.14239(18) 0.3191(2) 0.23355(6)
loop_
_geom_bond_atom_site_label_1
_geom_bond_atom_site_label_2
_geom_bond_site_symmetry_1
_geom_bond_site_symmetry_2
Cu1 O1 1_555 1_555
C1 C2 1_555 1_555
C2 C3 1_555 1_555
C3 H1 1_555 1_555
C4 C3 1_555 1_555
H2 C4 1_555 1_555
C5 C4 1_555 1_555
C6 C5 1_555 1_555
H3 C6 1_555 1_555
C7 C2 1_555 1_555
H4 C7 1_555 1_555
C8 C5 1_555 1_555
C9 C8 1_555 1_555
H5 C9 1_555 1_555
C10 H6 1_555 1_555
C11 C10 1_555 1_555
H7 C11 1_555 1_555
C12 C8 1_555 1_555
H8 C12 1_555 1_555
O1 C1 1_555 1_555
O2 C1 1_555 1_555
O3 N1 1_555 1_555
N1 C9 1_555 1_555
N2 Cu1 1_555 1_555
N3 N2 1_555 1_555
N4 N3 1_555 1_555
Cu1A O2 1_555 1_555
Cu1C O3 1_555 1_555
Cu1A_2 N2 1_555 1_555
O2A Cu1 1_555 1_555
O3C Cu1 1_555 1_555
N2A Cu1 1_555 1_555
C6 C7 1_555 1_555
C10 N1 1_555 1_555
C11 C12 1_555 1_555
Cu1A N2A 1_555 1_555

#END
