
#######################################################################
#
#                 Cambridge Crystallographic Data Centre
#                                CCDC 
#
#######################################################################
#
# If this CIF has been generated from an entry in the Cambridge 
# Structural Database, then it will include bibliographic, chemical, 
# crystal, experimental, refinement or atomic coordinate data resulting 
# from the CCDC's data processing and validation procedures.
#
#######################################################################

data_DEHROZ
_symmetry_cell_setting           monoclinic
_symmetry_space_group_name_H-M   'P 21/c'
_symmetry_Int_Tables_number      14
_space_group_name_Hall           '-P 2ybc'
loop_
_symmetry_equiv_pos_site_id
_symmetry_equiv_pos_as_xyz
1 x,y,z
2 -x,1/2+y,1/2-z
3 -x,-y,-z
4 x,1/2-y,1/2+z
_cell_length_a                   8.1675(2)
_cell_length_b                   23.4539(6)
_cell_length_c                   6.5517(2)
_cell_angle_alpha                90
_cell_angle_beta                 100.8140(10)
_cell_angle_gamma                90
_cell_volume                     1232.75
loop_
_atom_site_label
_atom_site_type_symbol
_atom_site_fract_x
_atom_site_fract_y
_atom_site_fract_z
Mn1 Mn 0.41932(3) 0.744531(9) 1.00284(3)
C1 C 0.40195(19) 0.86076(6) 1.2393(2)
C2 C 0.35073(19) 0.92161(6) 1.1931(2)
C3 C 0.3164(2) 0.94048(7) 0.9893(3)
H1 H 0.3251 0.9154 0.8820
C4 C 0.2691(2) 0.99637(7) 0.9439(3)
H2 H 0.2440 1.0083 0.8062
C5 C 0.2587(2) 1.03486(7) 1.1024(3)
C6 C 0.2910(3) 1.01577(7) 1.3063(3)
H3 H 0.2828 1.0409 1.4136
C7 C 0.3353(2) 0.95955(7) 1.3515(3)
H4 H 0.3548 0.9471 1.4886
C8 C 0.2168(2) 1.09548(7) 1.0514(3)
C9 C 0.0851(2) 1.11065(8) 0.8948(3)
H5 H 0.0201 1.0826 0.8183
C10 C 0.0509(2) 1.16772(8) 0.8529(3)
H6 H -0.0401 1.1782 0.7521
C11 C 0.1517(2) 1.20874(7) 0.9604(3)
H7 H 0.1292 1.2471 0.9331
C12 C 0.3154(2) 1.13821(7) 1.1564(2)
H8 H 0.4040 1.1289 1.2624
N1 N 0.28346(17) 1.19313(5) 1.1057(2)
N2 N 0.24379(18) 0.73096(6) 1.2149(2)
N3 N 0.14795(18) 0.69167(7) 1.1944(2)
N4 N 0.0525(3) 0.65528(10) 1.1714(3)
O1 O 0.43058(17) 0.83138(5) 1.09067(19)
O2 O 0.41182(17) 0.84305(5) 1.42299(19)
O3 O 0.38921(15) 1.23466(5) 1.19304(18)
Mn1B Mn 0.58068(3) 1.255469(9) 0.99716(3)
Mn1A Mn 0.58068(3) 1.244531(9) 0.49716(3)
Mn1A_2 Mn 0.58068(3) 1.244531(9) 1.49716(3)
Mn1C Mn 0.41932(3) 0.755469(9) 0.50284(3)
Mn1C_2 Mn 0.41932(3) 0.755469(9) 1.50284(3)
C1B C 0.59805(19) 1.13924(6) 0.7607(2)
C2B C 0.64927(19) 1.07839(6) 0.8069(2)
C3B C 0.6836(2) 1.05952(7) 1.0107(3)
H1B H 0.6749 1.0846 1.1180
C4B C 0.7309(2) 1.00363(7) 1.0561(3)
H2B H 0.7560 0.9917 1.1938
C5B C 0.7413(2) 0.96514(7) 0.8976(3)
C6B C 0.7090(3) 0.98423(7) 0.6937(3)
H3B H 0.7172 0.9591 0.5864
C7B C 0.6647(2) 1.04045(7) 0.6485(3)
H4B H 0.6452 1.0529 0.5114
C8B C 0.7832(2) 0.90452(7) 0.9486(3)
C9B C 0.9149(2) 0.88935(8) 1.1052(3)
H5B H 0.9799 0.9174 1.1817
C10B C 0.9491(2) 0.83228(8) 1.1471(3)
H6B H 1.0401 0.8218 1.2479
C11B C 0.8483(2) 0.79126(7) 1.0396(3)
H7B H 0.8708 0.7529 1.0669
C12B C 0.6846(2) 0.86179(7) 0.8436(2)
H8B H 0.5960 0.8711 0.7376
N1B N 0.71654(17) 0.80687(5) 0.8943(2)
N2B N 0.75621(18) 1.26904(6) 0.7851(2)
N2A N 0.75621(18) 1.23096(6) 1.2851(2)
N2C N 0.24379(18) 0.76904(6) 0.7149(2)
N3B N 0.85205(18) 1.30833(7) 0.8056(2)
N4B N 0.9475(3) 1.34472(10) 0.8286(3)
O1B O 0.56942(17) 1.16862(5) 0.90933(19)
O2B O 0.58818(17) 1.15695(5) 0.57701(19)
O2A O 0.58818(17) 1.34305(5) 1.07701(19)
O2C O 0.41182(17) 0.65695(5) 0.92299(19)
O3B O 0.61079(15) 0.76534(5) 0.80696(18)
O3A O 0.61079(15) 0.73466(5) 1.30696(18)
O3C O 0.38921(15) 1.26534(5) 0.69304(18)
loop_
_geom_bond_atom_site_label_1
_geom_bond_atom_site_label_2
_geom_bond_site_symmetry_1
_geom_bond_site_symmetry_2
Mn1 N2 1_555 1_555
C1 C2 1_555 1_555
C2 C3 1_555 1_555
C3 H1 1_555 1_555
C4 C3 1_555 1_555
H2 C4 1_555 1_555
C5 C4 1_555 1_555
C6 C5 1_555 1_555
H3 C6 1_555 1_555
C7 C2 1_555 1_555
H4 C7 1_555 1_555
C8 C5 1_555 1_555
C9 C8 1_555 1_555
H5 C9 1_555 1_555
C10 C9 1_555 1_555
H6 C10 1_555 1_555
C11 C10 1_555 1_555
H7 C11 1_555 1_555
C12 C8 1_555 1_555
H8 C12 1_555 1_555
N1 C11 1_555 1_555
N2 N3 1_555 1_555
N3 N4 1_555 1_555
O1 Mn1 1_555 1_555
O2 C1 1_555 1_555
O3 N1 1_555 1_555
Mn1B O3 1_555 1_555
Mn1A N2B 1_555 1_555
Mn1A_2 O3 1_555 1_555
Mn1C N2C 1_555 1_555
Mn1C_2 N2 1_555 1_555
C1B C2B 1_555 1_555
C2B C3B 1_555 1_555
C3B H1B 1_555 1_555
C4B C3B 1_555 1_555
H2B C4B 1_555 1_555
C5B C4B 1_555 1_555
C6B C5B 1_555 1_555
H3B C6B 1_555 1_555
C7B C2B 1_555 1_555
H4B C7B 1_555 1_555
C8B C5B 1_555 1_555
C9B C8B 1_555 1_555
H5B C9B 1_555 1_555
C10B C9B 1_555 1_555
H6B C10B 1_555 1_555
C11B C10B 1_555 1_555
H7B C11B 1_555 1_555
C12B C8B 1_555 1_555
H8B C12B 1_555 1_555
N1B C11B 1_555 1_555
N2B Mn1B 1_555 1_555
N2A Mn1B 1_555 1_555
N2C Mn1 1_555 1_555
N3B N2B 1_555 1_555
N4B N3B 1_555 1_555
O1B Mn1B 1_555 1_555
O2B Mn1A 1_555 1_555
O2A Mn1B 1_555 1_555
O2C Mn1 1_555 1_555
O3B Mn1 1_555 1_555
O3A Mn1 1_555 1_555
O3C Mn1B 1_555 1_555
C1 O1 1_555 1_555
C6 C7 1_555 1_555
C12 N1 1_555 1_555
O2 Mn1C_2 1_555 1_555
Mn1A O3C 1_555 1_555
Mn1A_2 N2A 1_555 1_555
Mn1C O3B 1_555 1_555
Mn1C_2 O3A 1_555 1_555
C1B O1B 1_555 1_555
C1B O2B 1_555 1_555
C6B C7B 1_555 1_555
C12B N1B 1_555 1_555
N1B O3B 1_555 1_555

#END
