
#######################################################################
#
#                 Cambridge Crystallographic Data Centre
#                                CCDC 
#
#######################################################################
#
# If this CIF has been generated from an entry in the Cambridge 
# Structural Database, then it will include bibliographic, chemical, 
# crystal, experimental, refinement or atomic coordinate data resulting 
# from the CCDC's data processing and validation procedures.
#
#######################################################################

data_DEHRIR
_symmetry_cell_setting           orthorhombic
_symmetry_space_group_name_H-M   'P n n m'
_symmetry_Int_Tables_number      58
_space_group_name_Hall           '-P 2 2n'
loop_
_symmetry_equiv_pos_site_id
_symmetry_equiv_pos_as_xyz
1 x,y,z
2 1/2-x,1/2+y,1/2+z
3 1/2+x,1/2-y,1/2+z
4 -x,-y,z
5 -x,-y,-z
6 1/2+x,1/2-y,1/2-z
7 1/2-x,1/2+y,1/2-z
8 x,y,-z
_cell_length_a                   6.975(1)
_cell_length_b                   16.686(1)
_cell_length_c                   17.455(1)
_cell_angle_alpha                90
_cell_angle_beta                 90
_cell_angle_gamma                90
_cell_volume                     2031.5
loop_
_atom_site_label
_atom_site_type_symbol
_atom_site_fract_x
_atom_site_fract_y
_atom_site_fract_z
C1 C -0.2199(10) 0.0661(5) 0.0000
C2 C -0.24241(12) 0.0235(4) 0.0701(4)
C3 C -0.1757(11) 0.1488(4) 0.0000
C4 C -0.1379(11) 0.1907(4) 0.0686(4)
N1 N -0.1099(12) 0.2241(4) 0.1243(4)
Ag1 Ag 0.0107(1) 0.2426 0.2461
C5 C 0.2647(10) -0.0042(4) 0.4192(3)
C6 C 0.2023(10) 0.0647(4) 0.4611(4)
C7 C 0.3248(10) -0.0730(4) 0.4611(4)
C8 C 0.2664(10) -0.0045(4) 0.3377(3)
C9 C 0.2113(11) 0.0636(4) 0.2955(4)
C10 C 0.3139(11) -0.0743(4) 0.2959(3)
N2 N 0.1700(12) 0.1198(4) 0.2617(4)
N3 N 0.3526(11) -0.1313(4) 0.2636(4)
C11 C -0.2892(12) -0.0568(4) 0.0698(4)
C12 C -0.3166(12) -0.1003(5) 0.0000
C13 C -0.3651(11) -0.1811(5) 0.0000
C14 C -0.3919(12) -0.2233(4) 0.0693(4)
N4 N -0.4095(12) -0.2537(4) 0.1274(4)
C11G C -0.2892(12) -0.0568(4) -0.0698(4)
C2G C -0.24241(12) 0.0235(4) -0.0701(4)
C4G C -0.1379(11) 0.1907(4) -0.0686(4)
N1G N -0.1099(12) 0.2241(4) -0.1243(4)
C14G C -0.3919(12) -0.2233(4) -0.0693(4)
N4G N -0.4095(12) -0.2537(4) -0.1274(4)
C6G C 0.2023(10) 0.0647(4) 0.5389(4)
C5G C 0.2647(10) -0.0042(4) 0.5808(3)
C7G C 0.3248(10) -0.0730(4) 0.5389(4)
C8G C 0.2664(10) -0.0045(4) 0.6623(3)
C9G C 0.2113(11) 0.0636(4) 0.7045(4)
N2G N 0.1700(12) 0.1198(4) 0.7383(4)
C10G C 0.3139(11) -0.0743(4) 0.7041(3)
N3G N 0.3526(11) -0.1313(4) 0.7364(4)
Ag1G Ag 0.0107(1) 0.2426 -0.2461
N3F N 0.1474(11) 0.3687(4) 0.2364(4)
N4F N -0.0905(12) 0.2463(4) 0.3726(4)
Ag1F Ag 0.4893(1) -0.2574 0.2539
Ag1F_2 Ag -0.5107(1) -0.2574 0.2539
Ag1A Ag -0.5107(1) -0.2574 -0.2539
Ag1G_2 Ag 0.0107(1) 0.2426 0.7539
Ag1A_2 Ag 0.4893(1) -0.2574 0.7461
N2G_2 N 0.1700(12) 0.1198(4) -0.2617(4)
N3A N 0.1474(11) 0.3687(4) -0.2364(4)
N4A N -0.0905(12) 0.2463(4) -0.3726(4)
loop_
_geom_bond_atom_site_label_1
_geom_bond_atom_site_label_2
_geom_bond_site_symmetry_1
_geom_bond_site_symmetry_2
C1 C2 1_555 1_555
C2 C11 1_555 1_555
C3 C1 1_555 1_555
C4 C3 1_555 1_555
N1 C4 1_555 1_555
Ag1 N1 1_555 1_555
C5 C6 1_555 1_555
C6 C6G 1_555 1_555
C7 C5 1_555 1_555
C8 C5 1_555 1_555
C9 C8 1_555 1_555
C10 C8 1_555 1_555
N2 Ag1 1_555 1_555
N3 C10 1_555 1_555
C11 C12 1_555 1_555
C12 C13 1_555 1_555
C13 C14 1_555 1_555
C14 N4 1_555 1_555
N4 Ag1F_2 1_555 1_555
C11G C12 1_555 1_555
C2G C1 1_555 1_555
C4G C3 1_555 1_555
N1G C4G 1_555 1_555
C14G C13 1_555 1_555
N4G C14G 1_555 1_555
C6G C5G 1_555 1_555
C5G C7G 1_555 1_555
C7G C7 1_555 1_555
C8G C5G 1_555 1_555
C9G C8G 1_555 1_555
N2G C9G 1_555 1_555
C10G C8G 1_555 1_555
N3G C10G 1_555 1_555
Ag1G N1G 1_555 1_555
N3F Ag1 1_555 1_555
N4F Ag1 1_555 1_555
Ag1F N3 1_555 1_555
Ag1A N4G 1_555 1_555
Ag1G_2 N2G 1_555 1_555
Ag1A_2 N3G 1_555 1_555
N2G_2 Ag1G 1_555 1_555
N3A Ag1G 1_555 1_555
N4A Ag1G 1_555 1_555
C9 N2 1_555 1_555
C11G C2G 1_555 1_555

#END
