
#######################################################################
#
#                 Cambridge Crystallographic Data Centre
#                                CCDC 
#
#######################################################################
#
# If this CIF has been generated from an entry in the Cambridge 
# Structural Database, then it will include bibliographic, chemical, 
# crystal, experimental, refinement or atomic coordinate data resulting 
# from the CCDC's data processing and validation procedures.
#
#######################################################################

data_DEHWUK
_symmetry_cell_setting           triclinic
_symmetry_space_group_name_H-M   'P -1'
_symmetry_Int_Tables_number      2
_space_group_name_Hall           '-P 1'
loop_
_symmetry_equiv_pos_site_id
_symmetry_equiv_pos_as_xyz
1 x,y,z
2 -x,-y,-z
_cell_length_a                   9.4838(13)
_cell_length_b                   13.682(2)
_cell_length_c                   16.270(3)
_cell_angle_alpha                104.115(14)
_cell_angle_beta                 94.374(13)
_cell_angle_gamma                104.503(13)
_cell_volume                     1960.85
loop_
_atom_site_label
_atom_site_type_symbol
_atom_site_fract_x
_atom_site_fract_y
_atom_site_fract_z
Co1 Co 0.38611(12) 0.90658(8) 0.48065(7)
Fe1 Fe 0.42770(13) 0.96562(9) 0.15935(7)
Fe2 Fe -0.11098(11) 0.76042(8) 0.43018(7)
P1 P 0.2444(2) 0.70936(16) 0.05093(14)
P2 P 0.23467(18) 0.73525(13) 0.48108(11)
O1 O 0.3166(5) 0.9260(4) 0.3660(3)
O2 O 0.4987(6) 1.0748(4) 0.4016(3)
O3 O -0.4549(5) 0.8475(4) 0.4267(3)
O4 O -0.2715(5) 0.9968(4) 0.4598(3)
C1 C 0.4117(9) 0.8162(6) 0.0889(5)
C2 C 0.4962(9) 0.8388(6) 0.1721(5)
H1 H 0.4735 0.8025 0.2129
C3 C 0.6192(10) 0.9254(7) 0.1809(6)
H2 H 0.6907 0.9565 0.2289
C4 C 0.6159(9) 0.9568(7) 0.1050(5)
H3 H 0.6853 1.0117 0.0939
C5 C 0.4887(9) 0.8907(6) 0.0484(5)
H4 H 0.4600 0.8951 -0.0062
C6 C 0.3126(9) 0.6092(7) -0.0191(5)
C7 C 0.2234(11) 0.5068(7) -0.0424(6)
H5 H 0.1322 0.4919 -0.0238
C8 C 0.2686(14) 0.4258(8) -0.0934(6)
H6 H 0.2067 0.3577 -0.1099
C9 C 0.4051(14) 0.4472(9) -0.1191(6)
H7 H 0.4360 0.3932 -0.1526
C10 C 0.4965(12) 0.5481(8) -0.0956(6)
H8 H 0.5885 0.5621 -0.1134
C11 C 0.4505(11) 0.6303(7) -0.0445(6)
H9 H 0.5125 0.6984 -0.0279
C12 C 0.1462(9) 0.7531(6) -0.0294(5)
C13 C 0.0171(10) 0.7802(7) -0.0096(6)
H10 H -0.0145 0.7758 0.0425
C14 C -0.0633(11) 0.8130(8) -0.0657(7)
H11 H -0.1484 0.8308 -0.0513
C15 C -0.0186(11) 0.8199(7) -0.1438(7)
H12 H -0.0718 0.8434 -0.1815
C16 C 0.1060(10) 0.7912(7) -0.1646(6)
H13 H 0.1359 0.7947 -0.2172
C17 C 0.1883(10) 0.7570(6) -0.1086(5)
H14 H 0.2713 0.7369 -0.1243
C18 C 0.3532(8) 1.0288(6) 0.2695(5)
C19 C 0.2333(8) 0.9692(6) 0.2029(5)
H15 H 0.1601 0.9106 0.2051
C20 C 0.2445(9) 1.0143(7) 0.1335(5)
H16 H 0.1798 0.9911 0.0823
C21 C 0.3733(10) 1.1021(7) 0.1558(5)
H17 H 0.4071 1.1456 0.1214
C22 C 0.4409(9) 1.1114(6) 0.2396(5)
H18 H 0.5263 1.1618 0.2695
C23 C 0.3931(8) 1.0080(5) 0.3513(5)
C24 C 0.2164(7) 0.6295(5) 0.3834(4)
C25 C 0.1729(7) 0.5246(6) 0.3837(5)
H19 H 0.1581 0.5073 0.4349
C26 C 0.1515(8) 0.4453(6) 0.3079(5)
H20 H 0.1237 0.3753 0.3085
C27 C 0.1713(10) 0.4707(6) 0.2326(5)
H21 H 0.1544 0.4175 0.1819
C28 C 0.2156(10) 0.5731(7) 0.2306(5)
H22 H 0.2301 0.5894 0.1791
C29 C 0.2392(8) 0.6534(6) 0.3072(5)
H23 H 0.2705 0.7232 0.3063
C30 C 0.3034(8) 0.6810(5) 0.5633(4)
C31 C 0.4449(8) 0.6672(6) 0.5632(5)
H24 H 0.5018 0.6869 0.5228
C32 C 0.5004(9) 0.6247(7) 0.6227(5)
H25 H 0.5948 0.6163 0.6224
C33 C 0.4161(9) 0.5943(6) 0.6831(5)
H26 H 0.4529 0.5638 0.7221
C34 C 0.2784(9) 0.6093(6) 0.6853(5)
H27 H 0.2229 0.5905 0.7266
C35 C 0.2221(8) 0.6526(6) 0.6259(5)
H28 H 0.1289 0.6627 0.6279
C36 C -0.2281(8) 0.8431(6) 0.3790(4)
C37 C -0.0750(8) 0.8836(6) 0.3772(5)
H29 H -0.0174 0.9516 0.4040
C38 C -0.0265(8) 0.8016(6) 0.3272(5)
H30 H 0.0687 0.8068 0.3147
C39 C -0.1464(9) 0.7111(6) 0.2996(5)
H31 H -0.1433 0.6461 0.2664
C40 C -0.2718(8) 0.7350(6) 0.3303(5)
H32 H -0.3659 0.6891 0.3208
C41 C -0.3255(7) 0.9000(5) 0.4265(4)
C42 C 0.0479(8) 0.7260(5) 0.5005(4)
C43 C -0.0783(8) 0.6370(6) 0.4704(5)
H33 H -0.0792 0.5718 0.4357
C44 C -0.2015(8) 0.6651(6) 0.5024(5)
H34 H -0.2975 0.6218 0.4918
C45 C -0.1534(8) 0.7702(6) 0.5531(5)
H35 H -0.2126 0.8075 0.5822
C46 C -0.0002(8) 0.8098(6) 0.5526(4)
H36 H 0.0584 0.8771 0.5806
Co1A Co -0.38611(12) 1.09342(8) 0.51935(7)
Co1_2 Co -0.61389(12) 0.90658(8) 0.48065(7)
Co1A_2 Co 0.61389(12) 1.09342(8) 0.51935(7)
Fe1A Fe -0.42770(13) 1.03438(9) 0.84065(7)
Fe2A Fe 0.11098(11) 1.23958(8) 0.56982(7)
P1A P -0.2444(2) 1.29064(16) 0.94907(14)
P2A P -0.23467(18) 1.26475(13) 0.51892(11)
O1A O -0.3166(5) 1.0740(4) 0.6340(3)
O2A O -0.4987(6) 0.9252(4) 0.5984(3)
O2_2 O -0.5013(6) 1.0748(4) 0.4016(3)
O2A_2 O 0.5013(6) 0.9252(4) 0.5984(3)
O3A O 0.4549(5) 1.1525(4) 0.5733(3)
O3_2 O 0.5451(5) 0.8475(4) 0.4267(3)
O3A_2 O -0.5451(5) 1.1525(4) 0.5733(3)
O4A O 0.2715(5) 1.0032(4) 0.5402(3)
C1A C -0.4117(9) 1.1838(6) 0.9111(5)
C2A C -0.4962(9) 1.1612(6) 0.8279(5)
H1A H -0.4735 1.1975 0.7871
C3A C -0.6192(10) 1.0746(7) 0.8191(6)
H2A H -0.6907 1.0435 0.7711
C4A C -0.6159(9) 1.0432(7) 0.8950(5)
H3A H -0.6853 0.9883 0.9061
C5A C -0.4887(9) 1.1093(6) 0.9516(5)
H4A H -0.4600 1.1049 1.0062
C6A C -0.3126(9) 1.3908(7) 1.0191(5)
C7A C -0.2234(11) 1.4932(7) 1.0424(6)
H5A H -0.1322 1.5081 1.0238
C8A C -0.2686(14) 1.5742(8) 1.0934(6)
H6A H -0.2067 1.6423 1.1099
C9A C -0.4051(14) 1.5528(9) 1.1191(6)
H7A H -0.4360 1.6068 1.1526
C10A C -0.4965(12) 1.4519(8) 1.0956(6)
H8A H -0.5885 1.4379 1.1134
C11A C -0.4505(11) 1.3697(7) 1.0445(6)
H9A H -0.5125 1.3016 1.0279
C12A C -0.1462(9) 1.2469(6) 1.0294(5)
C13A C -0.0171(10) 1.2198(7) 1.0096(6)
H10A H 0.0145 1.2242 0.9575
C14A C 0.0633(11) 1.1870(8) 1.0657(7)
H11A H 0.1484 1.1692 1.0513
C15A C 0.0186(11) 1.1801(7) 1.1438(7)
H12A H 0.0718 1.1566 1.1815
C16A C -0.1060(10) 1.2088(7) 1.1646(6)
H13A H -0.1359 1.2053 1.2172
C17A C -0.1883(10) 1.2430(6) 1.1086(5)
H14A H -0.2713 1.2631 1.1243
C18A C -0.3532(8) 0.9712(6) 0.7305(5)
C19A C -0.2333(8) 1.0308(6) 0.7971(5)
H15A H -0.1601 1.0894 0.7949
C20A C -0.2445(9) 0.9857(7) 0.8665(5)
H16A H -0.1798 1.0089 0.9177
C21A C -0.3733(10) 0.8979(7) 0.8442(5)
H17A H -0.4071 0.8544 0.8786
C22A C -0.4409(9) 0.8886(6) 0.7604(5)
H18A H -0.5263 0.8382 0.7305
C23A C -0.3931(8) 0.9920(5) 0.6487(5)
C24A C -0.2164(7) 1.3705(5) 0.6166(4)
C25A C -0.1729(7) 1.4754(6) 0.6163(5)
H19A H -0.1581 1.4927 0.5651
C26A C -0.1515(8) 1.5547(6) 0.6921(5)
H20A H -0.1237 1.6247 0.6915
C27A C -0.1713(10) 1.5293(6) 0.7674(5)
H21A H -0.1544 1.5825 0.8181
C28A C -0.2156(10) 1.4269(7) 0.7694(5)
H22A H -0.2301 1.4106 0.8209
C29A C -0.2392(8) 1.3466(6) 0.6928(5)
H23A H -0.2705 1.2768 0.6937
C30A C -0.3034(8) 1.3190(5) 0.4367(4)
C31A C -0.4449(8) 1.3328(6) 0.4368(5)
H24A H -0.5018 1.3131 0.4772
C32A C -0.5004(9) 1.3753(7) 0.3773(5)
H25A H -0.5948 1.3837 0.3776
C33A C -0.4161(9) 1.4057(6) 0.3169(5)
H26A H -0.4529 1.4362 0.2779
C34A C -0.2784(9) 1.3907(6) 0.3147(5)
H27A H -0.2229 1.4095 0.2734
C35A C -0.2221(8) 1.3474(6) 0.3741(5)
H28A H -0.1289 1.3373 0.3721
C36A C 0.2281(8) 1.1569(6) 0.6210(4)
C37A C 0.0750(8) 1.1164(6) 0.6228(5)
H29A H 0.0174 1.0484 0.5960
C38A C 0.0265(8) 1.1984(6) 0.6728(5)
H30A H -0.0687 1.1932 0.6853
C39A C 0.1464(9) 1.2889(6) 0.7004(5)
H31A H 0.1433 1.3539 0.7336
C40A C 0.2718(8) 1.2650(6) 0.6697(5)
H32A H 0.3659 1.3109 0.6792
C41A C 0.3255(7) 1.1000(5) 0.5735(4)
C42A C -0.0479(8) 1.2740(5) 0.4995(4)
C43A C 0.0783(8) 1.3630(6) 0.5296(5)
H33A H 0.0792 1.4282 0.5643
C44A C 0.2015(8) 1.3349(6) 0.4976(5)
H34A H 0.2975 1.3782 0.5082
C45A C 0.1534(8) 1.2298(6) 0.4469(5)
H35A H 0.2126 1.1925 0.4178
C46A C 0.0002(8) 1.1902(6) 0.4474(4)
H36A H -0.0584 1.1229 0.4194
loop_
_geom_bond_atom_site_label_1
_geom_bond_atom_site_label_2
_geom_bond_site_symmetry_1
_geom_bond_site_symmetry_2
Co1 P2 1_555 1_555
Fe1 C1 1_555 1_555
Fe2 C36 1_555 1_555
P1 C1 1_555 1_555
P2 C24 1_555 1_555
O1 Co1 1_555 1_555
O2 C23 1_555 1_555
O3 C41 1_555 1_555
O4 C41 1_555 1_555
C1 C2 1_555 1_555
C2 Fe1 1_555 1_555
H1 C2 1_555 1_555
C3 Fe1 1_555 1_555
H2 C3 1_555 1_555
C4 Fe1 1_555 1_555
H3 C4 1_555 1_555
C5 Fe1 1_555 1_555
H4 C5 1_555 1_555
C6 P1 1_555 1_555
C7 C6 1_555 1_555
H5 C7 1_555 1_555
C8 C7 1_555 1_555
H6 C8 1_555 1_555
C9 C8 1_555 1_555
H7 C9 1_555 1_555
C10 C9 1_555 1_555
H8 C10 1_555 1_555
C11 C6 1_555 1_555
H9 C11 1_555 1_555
C12 P1 1_555 1_555
C13 C12 1_555 1_555
H10 C13 1_555 1_555
C14 C13 1_555 1_555
H11 C14 1_555 1_555
C15 C14 1_555 1_555
H12 C15 1_555 1_555
C16 C15 1_555 1_555
H13 C16 1_555 1_555
C17 C12 1_555 1_555
H14 C17 1_555 1_555
C18 Fe1 1_555 1_555
C19 Fe1 1_555 1_555
H15 C19 1_555 1_555
C20 Fe1 1_555 1_555
H16 C20 1_555 1_555
C21 Fe1 1_555 1_555
H17 C21 1_555 1_555
C22 Fe1 1_555 1_555
H18 C22 1_555 1_555
C23 O1 1_555 1_555
C24 C25 1_555 1_555
C25 H19 1_555 1_555
C26 C25 1_555 1_555
H20 C26 1_555 1_555
C27 C26 1_555 1_555
H21 C27 1_555 1_555
C28 C27 1_555 1_555
H22 C28 1_555 1_555
C29 C24 1_555 1_555
H23 C29 1_555 1_555
C30 P2 1_555 1_555
C31 C30 1_555 1_555
H24 C31 1_555 1_555
C32 C31 1_555 1_555
H25 C32 1_555 1_555
C33 C32 1_555 1_555
H26 C33 1_555 1_555
C34 C33 1_555 1_555
H27 C34 1_555 1_555
C35 C30 1_555 1_555
H28 C35 1_555 1_555
C36 C37 1_555 1_555
C37 Fe2 1_555 1_555
H29 C37 1_555 1_555
C38 Fe2 1_555 1_555
H30 C38 1_555 1_555
C39 Fe2 1_555 1_555
H31 C39 1_555 1_555
C40 Fe2 1_555 1_555
H32 C40 1_555 1_555
C41 C36 1_555 1_555
C42 Fe2 1_555 1_555
C43 Fe2 1_555 1_555
H33 C43 1_555 1_555
C44 Fe2 1_555 1_555
H34 C44 1_555 1_555
C45 Fe2 1_555 1_555
H35 C45 1_555 1_555
C46 Fe2 1_555 1_555
H36 C46 1_555 1_555
Co1A O4 1_555 1_555
Co1_2 O3 1_555 1_555
Co1A_2 Co1 1_555 1_555
Fe1A C1A 1_555 1_555
Fe2A C36A 1_555 1_555
P1A C1A 1_555 1_555
P2A Co1A 1_555 1_555
O1A Co1A 1_555 1_555
O2A Co1_2 1_555 1_555
O2_2 Co1A 1_555 1_555
O2A_2 Co1 1_555 1_555
O3A Co1A_2 1_555 1_555
O3_2 Co1 1_555 1_555
O3A_2 Co1A 1_555 1_555
O4A Co1 1_555 1_555
C1A C2A 1_555 1_555
C2A Fe1A 1_555 1_555
H1A C2A 1_555 1_555
C3A Fe1A 1_555 1_555
H2A C3A 1_555 1_555
C4A Fe1A 1_555 1_555
H3A C4A 1_555 1_555
C5A Fe1A 1_555 1_555
H4A C5A 1_555 1_555
C6A P1A 1_555 1_555
C7A C6A 1_555 1_555
H5A C7A 1_555 1_555
C8A C7A 1_555 1_555
H6A C8A 1_555 1_555
C9A C8A 1_555 1_555
H7A C9A 1_555 1_555
C10A C9A 1_555 1_555
H8A C10A 1_555 1_555
C11A C6A 1_555 1_555
H9A C11A 1_555 1_555
C12A P1A 1_555 1_555
C13A C12A 1_555 1_555
H10A C13A 1_555 1_555
C14A C13A 1_555 1_555
H11A C14A 1_555 1_555
C15A C14A 1_555 1_555
H12A C15A 1_555 1_555
C16A C15A 1_555 1_555
H13A C16A 1_555 1_555
C17A C12A 1_555 1_555
H14A C17A 1_555 1_555
C18A Fe1A 1_555 1_555
C19A Fe1A 1_555 1_555
H15A C19A 1_555 1_555
C20A Fe1A 1_555 1_555
H16A C20A 1_555 1_555
C21A Fe1A 1_555 1_555
H17A C21A 1_555 1_555
C22A Fe1A 1_555 1_555
H18A C22A 1_555 1_555
C23A O1A 1_555 1_555
C24A P2A 1_555 1_555
C25A C24A 1_555 1_555
H19A C25A 1_555 1_555
C26A C25A 1_555 1_555
H20A C26A 1_555 1_555
C27A C26A 1_555 1_555
H21A C27A 1_555 1_555
C28A C27A 1_555 1_555
H22A C28A 1_555 1_555
C29A C24A 1_555 1_555
H23A C29A 1_555 1_555
C30A P2A 1_555 1_555
C31A C30A 1_555 1_555
H24A C31A 1_555 1_555
C32A C31A 1_555 1_555
H25A C32A 1_555 1_555
C33A C32A 1_555 1_555
H26A C33A 1_555 1_555
C34A C33A 1_555 1_555
H27A C34A 1_555 1_555
C35A C30A 1_555 1_555
H28A C35A 1_555 1_555
C36A C37A 1_555 1_555
C37A Fe2A 1_555 1_555
H29A C37A 1_555 1_555
C38A Fe2A 1_555 1_555
H30A C38A 1_555 1_555
C39A Fe2A 1_555 1_555
H31A C39A 1_555 1_555
C40A Fe2A 1_555 1_555
H32A C40A 1_555 1_555
C41A O3A 1_555 1_555
C42A Fe2A 1_555 1_555
C43A Fe2A 1_555 1_555
H33A C43A 1_555 1_555
C44A Fe2A 1_555 1_555
H34A C44A 1_555 1_555
C45A Fe2A 1_555 1_555
H35A C45A 1_555 1_555
C46A Fe2A 1_555 1_555
H36A C46A 1_555 1_555
P2 C42 1_555 1_555
O2 Co1A_2 1_555 1_555
C1 C5 1_555 1_555
C2 C3 1_555 1_555
C3 C4 1_555 1_555
C4 C5 1_555 1_555
C10 C11 1_555 1_555
C16 C17 1_555 1_555
C18 C19 1_555 1_555
C18 C22 1_555 1_555
C18 C23 1_555 1_555
C19 C20 1_555 1_555
C20 C21 1_555 1_555
C21 C22 1_555 1_555
C28 C29 1_555 1_555
C34 C35 1_555 1_555
C36 C40 1_555 1_555
C37 C38 1_555 1_555
C38 C39 1_555 1_555
C39 C40 1_555 1_555
C42 C43 1_555 1_555
C42 C46 1_555 1_555
C43 C44 1_555 1_555
C44 C45 1_555 1_555
C45 C46 1_555 1_555
Co1A Co1_2 1_555 1_555
P2A C42A 1_555 1_555
O2A C23A 1_555 1_555
O4A C41A 1_555 1_555
C1A C5A 1_555 1_555
C2A C3A 1_555 1_555
C3A C4A 1_555 1_555
C4A C5A 1_555 1_555
C10A C11A 1_555 1_555
C16A C17A 1_555 1_555
C18A C19A 1_555 1_555
C18A C22A 1_555 1_555
C18A C23A 1_555 1_555
C19A C20A 1_555 1_555
C20A C21A 1_555 1_555
C21A C22A 1_555 1_555
C28A C29A 1_555 1_555
C34A C35A 1_555 1_555
C36A C40A 1_555 1_555
C36A C41A 1_555 1_555
C37A C38A 1_555 1_555
C38A C39A 1_555 1_555
C39A C40A 1_555 1_555
C42A C43A 1_555 1_555
C42A C46A 1_555 1_555
C43A C44A 1_555 1_555
C44A C45A 1_555 1_555
C45A C46A 1_555 1_555

#END
