
#######################################################################
#
#                 Cambridge Crystallographic Data Centre
#                                CCDC 
#
#######################################################################
#
# If this CIF has been generated from an entry in the Cambridge 
# Structural Database, then it will include bibliographic, chemical, 
# crystal, experimental, refinement or atomic coordinate data resulting 
# from the CCDC's data processing and validation procedures.
#
#######################################################################

data_DEHWUJ
_symmetry_cell_setting           triclinic
_symmetry_space_group_name_H-M   'P -1'
_symmetry_Int_Tables_number      2
_space_group_name_Hall           '-P 1'
loop_
_symmetry_equiv_pos_site_id
_symmetry_equiv_pos_as_xyz
1 x,y,z
2 -x,-y,-z
_cell_length_a                   8.593(2)
_cell_length_b                   9.693(3)
_cell_length_c                   12.704(3)
_cell_angle_alpha                102.751(4)
_cell_angle_beta                 95.233(4)
_cell_angle_gamma                106.532(4)
_cell_volume                     975.868
loop_
_atom_site_label
_atom_site_type_symbol
_atom_site_fract_x
_atom_site_fract_y
_atom_site_fract_z
Gd1 Gd 0.63194(5) 0.20421(4) 0.50824(3)
C1 C 0.6659(10) 0.0831(9) 0.6973(7)
C2 C 0.6544(11) 0.0141(9) 0.7899(7)
H1 H 0.5405 -0.0212 0.7995
H2 H 0.6957 -0.0703 0.7754
C3 C 0.7798(11) 0.0710(9) 0.9773(7)
C4 C 0.6850(13) -0.0622(11) 0.9912(8)
H3 H 0.5933 -0.1210 0.9393
C5 C 0.7262(12) -0.1098(12) 1.0838(8)
H4 H 0.6639 -0.2012 1.0920
C6 C 0.8576(11) -0.0214(9) 1.1612(6)
C7 C 0.9485(13) 0.1162(10) 1.1476(7)
H5 H 1.0364 0.1789 1.2011
C8 C 0.9086(13) 0.1583(10) 1.0564(7)
H6 H 0.9713 0.2495 1.0480
C9 C 0.8065(11) -0.1717(9) 1.2915(7)
H7 H 0.8697 -0.2165 1.3327
H8 H 0.7365 -0.2499 1.2299
C10 C 0.6983(9) -0.1107(8) 1.3639(6)
C11 C 0.5443(10) 0.3407(8) 0.3471(6)
C12 C 0.4980(11) 0.4193(10) 0.2657(7)
H9 H 0.3810 0.3774 0.2379
H10 H 0.5214 0.5240 0.3014
C13 C 0.5430(10) 0.4534(8) 0.0914(6)
C14 C 0.6196(11) 0.4279(9) 0.0021(7)
H11 H 0.7002 0.3812 0.0038
C15 C 0.4231(10) 0.5282(9) 0.0912(7)
H12 H 0.3735 0.5478 0.1525
O1 O 0.7316(8) 0.2209(7) 0.7087(5)
O2 O 0.6023(7) -0.0050(5) 0.6021(4)
O3 O 0.7503(9) 0.1230(6) 0.8877(5)
O4 O 0.9164(7) -0.0646(7) 1.2511(4)
O5 O 0.7310(7) 0.0290(6) 1.3933(5)
O6 O 0.5891(7) -0.2041(6) 1.3924(5)
O7 O 0.4587(7) 0.3333(6) 0.4223(4)
O8 O 0.6602(8) 0.2888(7) 0.3417(5)
O9 O 0.5879(7) 0.4043(7) 0.1770(5)
O10 O 0.7298(7) 0.4709(6) 0.5875(5)
H13 H 0.7235 0.5159 0.5376
H14 H 0.8293 0.4967 0.6185
O11 O 0.9185(8) 0.2874(7) 0.5348(5)
H15 H 0.9552 0.3464 0.5981
H16 H 0.9540 0.2131 0.5294
Gd1A Gd 0.36806(5) -0.20421(4) 0.49176(3)
Gd1_2 Gd 0.63194(5) 0.20421(4) 1.50824(3)
Gd1A_2 Gd 0.36806(5) -0.20421(4) 1.49176(3)
Gd1A_3 Gd 0.36806(5) 0.79579(4) -0.50824(3)
Gd1A_4 Gd 0.36806(5) -0.20421(4) -0.50824(3)
Gd1_3 Gd 0.63194(5) 0.20421(4) -0.49176(3)
C1A C 0.3341(10) -0.0831(9) 0.3027(7)
C2A C 0.3456(11) -0.0141(9) 0.2101(7)
H1A H 0.4595 0.0212 0.2005
H2A H 0.3043 0.0703 0.2246
C3A C 0.2202(11) -0.0710(9) 0.0227(7)
C4A C 0.3150(13) 0.0622(11) 0.0088(8)
H3A H 0.4067 0.1210 0.0607
C5A C 0.2738(12) 0.1098(12) -0.0838(8)
H4A H 0.3361 0.2012 -0.0920
C6A C 0.1424(11) 0.0214(9) -0.1612(6)
C7A C 0.0515(13) -0.1162(10) -0.1476(7)
H5A H -0.0364 -0.1789 -0.2011
C8A C 0.0914(13) -0.1583(10) -0.0564(7)
H6A H 0.0287 -0.2495 -0.0480
C9A C 0.1935(11) 0.1717(9) -0.2915(7)
H7A H 0.1303 0.2165 -0.3327
H8A H 0.2635 0.2499 -0.2299
C10A C 0.3017(9) 0.1107(8) -0.3639(6)
C11A C 0.4557(10) 0.6593(8) -0.3471(6)
C12A C 0.5020(11) 0.5807(10) -0.2657(7)
H9A H 0.6190 0.6226 -0.2379
H10A H 0.4786 0.4760 -0.3014
C13A C 0.4570(10) 0.5466(8) -0.0914(6)
C14A C 0.3804(11) 0.5721(9) -0.0021(7)
H11A H 0.2998 0.6188 -0.0038
C15A C 0.5769(10) 0.4718(9) -0.0912(7)
H12A H 0.6265 0.4522 -0.1525
O1A O 0.2684(8) -0.2209(7) 0.2913(5)
O2A O 0.3977(7) 0.0050(5) 0.3979(4)
O3A O 0.2497(9) -0.1230(6) 0.1123(5)
O4A O 0.0836(7) 0.0646(7) -0.2511(4)
O5A O 0.2690(7) -0.0290(6) -0.3933(5)
O5_2 O 0.7310(7) 0.0290(6) 0.3933(5)
O5A_2 O 0.2690(7) -0.0290(6) 0.6067(5)
O6A O 0.4109(7) 0.2041(6) -0.3924(5)
O6A_2 O 0.4109(7) 0.2041(6) 0.6076(5)
O6_2 O 0.5891(7) -0.2041(6) 0.3924(5)
O7A O 0.5413(7) 0.6667(6) -0.4223(4)
O7A_2 O 0.5413(7) -0.3333(6) 0.5777(4)
O8A O 0.3398(8) 0.7112(7) -0.3417(5)
O8A_2 O 0.3398(8) -0.2888(7) 0.6583(5)
O9A O 0.4121(7) 0.5957(7) -0.1770(5)
O10A O 0.2702(7) -0.4709(6) 0.4125(5)
H13A H 0.2765 -0.5159 0.4624
H14A H 0.1707 -0.4967 0.3815
O11A O 0.0815(8) -0.2874(7) 0.4652(5)
H15A H 0.0448 -0.3464 0.4019
H16A H 0.0460 -0.2131 0.4706
O12 O 0.8802(9) 0.8215(9) 0.5817(6)
H17 H 0.8266 0.8256 0.5234
H18 H 0.8309 0.8425 0.6352
O13 O 0.9538(8) 0.4545(8) 0.3049(5)
H19 H 0.9637 0.4860 0.2476
H20 H 0.8715 0.3758 0.2912
O14 O 0.0204(12) 0.5754(10) 0.1143(6)
H21 H 0.1130 0.5641 0.1318
H22 H 0.0348 0.6650 0.1111
loop_
_geom_bond_atom_site_label_1
_geom_bond_atom_site_label_2
_geom_bond_site_symmetry_1
_geom_bond_site_symmetry_2
Gd1 O1 1_555 1_555
C1 C2 1_555 1_555
C2 H1 1_555 1_555
H2 C2 1_555 1_555
C3 C4 1_555 1_555
C4 H3 1_555 1_555
C5 C4 1_555 1_555
H4 C5 1_555 1_555
C6 C5 1_555 1_555
C7 C6 1_555 1_555
H5 C7 1_555 1_555
C8 C3 1_555 1_555
H6 C8 1_555 1_555
C9 H7 1_555 1_555
H8 C9 1_555 1_555
C10 C9 1_555 1_555
C11 C12 1_555 1_555
C12 H9 1_555 1_555
H10 C12 1_555 1_555
C13 C14 1_555 1_555
C14 H11 1_555 1_555
C15 C13 1_555 1_555
H12 C15 1_555 1_555
O1 C1 1_555 1_555
O2 Gd1 1_555 1_555
O3 C2 1_555 1_555
O4 C6 1_555 1_555
O5 C10 1_555 1_555
O6 C10 1_555 1_555
O7 Gd1 1_555 1_555
O8 Gd1 1_555 1_555
O9 C12 1_555 1_555
O10 Gd1 1_555 1_555
H13 O10 1_555 1_555
H14 O10 1_555 1_555
O11 Gd1 1_555 1_555
H15 O11 1_555 1_555
H16 O11 1_555 1_555
O12 H17 1_555 1_555
H18 O12 1_555 1_555
O13 H19 1_555 1_555
H20 O13 1_555 1_555
O14 H21 1_555 1_555
H22 O14 1_555 1_555
Gd1A O2 1_555 1_555
Gd1_2 O5 1_555 1_555
Gd1A_2 O6 1_555 1_555
Gd1A_3 O7A 1_555 1_555
Gd1A_4 O5A 1_555 1_555
Gd1_3 O6A 1_555 1_555
C1A C2A 1_555 1_555
C2A H1A 1_555 1_555
H2A C2A 1_555 1_555
C3A C4A 1_555 1_555
C4A H3A 1_555 1_555
C5A C4A 1_555 1_555
H4A C5A 1_555 1_555
C6A C5A 1_555 1_555
C7A C6A 1_555 1_555
H5A C7A 1_555 1_555
C8A C3A 1_555 1_555
H6A C8A 1_555 1_555
C9A H7A 1_555 1_555
H8A C9A 1_555 1_555
C10A C9A 1_555 1_555
C11A C12A 1_555 1_555
C12A H9A 1_555 1_555
H10A C12A 1_555 1_555
C13A C14A 1_555 1_555
C14A C15 1_555 1_555
H11A C14A 1_555 1_555
C15A C14 1_555 1_555
H12A C15A 1_555 1_555
O1A Gd1A 1_555 1_555
O2A Gd1 1_555 1_555
O3A C2A 1_555 1_555
O4A C6A 1_555 1_555
O5A C10A 1_555 1_555
O5_2 Gd1 1_555 1_555
O5A_2 Gd1A 1_555 1_555
O6A C10A 1_555 1_555
O6A_2 Gd1 1_555 1_555
O6_2 Gd1A 1_555 1_555
O7A C11A 1_555 1_555
O7A_2 Gd1A 1_555 1_555
O8A Gd1A_3 1_555 1_555
O8A_2 Gd1A 1_555 1_555
O9A C12A 1_555 1_555
O10A Gd1A 1_555 1_555
H13A O10A 1_555 1_555
H14A O10A 1_555 1_555
O11A Gd1A 1_555 1_555
H15A O11A 1_555 1_555
H16A O11A 1_555 1_555
C1 O2 1_555 1_555
C3 O3 1_555 1_555
C7 C8 1_555 1_555
C9 O4 1_555 1_555
C11 O7 1_555 1_555
C11 O8 1_555 1_555
C13 O9 1_555 1_555
Gd1A O2A 1_555 1_555
C1A O1A 1_555 1_555
C1A O2A 1_555 1_555
C3A O3A 1_555 1_555
C7A C8A 1_555 1_555
C9A O4A 1_555 1_555
C11A O8A 1_555 1_555
C13A C15A 1_555 1_555
C13A O9A 1_555 1_555

#END
