
#######################################################################
#
#                 Cambridge Crystallographic Data Centre
#                                CCDC 
#
#######################################################################
#
# If this CIF has been generated from an entry in the Cambridge 
# Structural Database, then it will include bibliographic, chemical, 
# crystal, experimental, refinement or atomic coordinate data resulting 
# from the CCDC's data processing and validation procedures.
#
#######################################################################

data_DEHWAQ
_symmetry_cell_setting           triclinic
_symmetry_space_group_name_H-M   'P -1'
_symmetry_Int_Tables_number      2
_space_group_name_Hall           '-P 1'
loop_
_symmetry_equiv_pos_site_id
_symmetry_equiv_pos_as_xyz
1 x,y,z
2 -x,-y,-z
_cell_length_a                   11.078(3)
_cell_length_b                   11.627(4)
_cell_length_c                   14.157(4)
_cell_angle_alpha                113.348(2)
_cell_angle_beta                 91.3560(10)
_cell_angle_gamma                100.888(3)
_cell_volume                     1634.18
loop_
_atom_site_label
_atom_site_type_symbol
_atom_site_fract_x
_atom_site_fract_y
_atom_site_fract_z
Ni1 Ni 0.77016(5) 0.18943(5) 0.42527(4)
P1 P 0.32611(9) 0.65809(10) 0.86857(8)
O1 O 0.2487(3) 0.7213(3) 0.8245(2)
N1 N 0.9399(3) 0.2277(3) 0.5083(3)
C1 C 0.4247(4) 0.5765(4) 0.7765(3)
Ni2 Ni 0.0000 0.0000 1.0000
O2 O 0.6878(3) 0.3019(3) 0.5445(2)
N2 N 0.7359(3) 0.0487(3) 0.4832(3)
C2 C 0.4677(5) 0.6286(4) 0.7078(4)
H1 H 0.4401 0.6987 0.7062
O3 O 0.7533(4) 0.4926(3) 0.5390(3)
C3 C 0.5509(5) 0.5772(4) 0.6420(4)
H2 H 0.5803 0.6139 0.5971
O4 O 0.7724(3) 1.0487(3) 1.2659(2)
C4 C 0.5923(4) 0.4708(4) 0.6412(3)
O5 O 0.6056(3) 1.1156(3) 1.3272(2)
C5 C 0.5463(5) 0.4161(4) 0.7072(4)
H3 H 0.5707 0.3433 0.7060
O6 O 0.0671(4) 0.1578(4) 0.9737(4)
C6 C 0.4640(4) 0.4687(4) 0.7751(3)
H4 H 0.4348 0.4320 0.8200
O7 O -0.1025(5) 0.1879(5) 0.9124(5)
C7 C 0.6859(4) 0.4179(4) 0.5687(3)
O8 O 0.8347(3) 0.3313(3) 0.3758(2)
H5 H 0.8154 0.4079 0.4254
H6 H 0.8026 0.3222 0.3144
C8 C 0.4291(4) 0.7700(4) 0.9805(3)
O9 O -0.0784(3) 0.1153(4) 1.1307(3)
H7 H -0.1180 0.0844 1.1662
H8 H -0.1399 0.1591 1.1125
C9 C 0.5548(5) 0.7899(7) 0.9846(4)
H9 H 0.5910 0.7440 0.9268
O10 O 0.1644(4) 0.0451(4) 1.0903(3)
H10 H 0.1937 0.1153 1.1479
H11 H 0.1581 -0.0225 1.1052
C10 C 0.6295(5) 0.8772(7) 1.0735(5)
H12 H 0.7149 0.8865 1.0757
C11 C 0.5789(4) 0.9496(4) 1.1575(3)
C12 C 0.4556(6) 0.9345(9) 1.1507(6)
H15 H 0.4199 0.9873 1.2055
C13 C 0.3796(6) 0.8424(9) 1.0642(6)
H16 H 0.2942 0.8304 1.0638
C14 C 0.6575(4) 1.0432(4) 1.2543(3)
C15 C 0.2323(4) 0.5418(4) 0.9055(3)
C16 C 0.2779(5) 0.4947(5) 0.9717(4)
H17 H 0.3570 0.5310 1.0067
C17 C 0.2033(5) 0.3914(6) 0.9856(5)
H18 H 0.2343 0.3577 1.0282
C18 C 0.0855(5) 0.3402(5) 0.9367(4)
C19 C 0.0365(5) 0.3919(5) 0.8772(4)
H19 H -0.0455 0.3610 0.8482
C20 C 0.1111(4) 0.4916(4) 0.8603(4)
H20 H 0.0788 0.5250 0.8179
C21 C 0.0089(5) 0.2200(5) 0.9437(5)
C22 C 1.0413(4) 0.3136(4) 0.5155(4)
H21 H 1.0411 0.3633 0.4778
C23 C 1.1497(4) 0.3316(5) 0.5789(4)
H22 H 1.2202 0.3913 0.5818
C24 C 1.1496(5) 0.2607(5) 0.6354(4)
H23 H 1.2201 0.2730 0.6783
C25 C 1.0437(4) 0.1690(4) 0.6295(3)
C26 C 1.0366(5) 0.0893(5) 0.6850(4)
H24 H 1.1048 0.0975 0.7285
C27 C 0.9324(6) 0.0025(5) 0.6753(4)
H25 H 0.9301 -0.0478 0.7127
C28 C 0.8250(5) -0.0144(4) 0.6089(4)
C29 C 0.7131(6) -0.1040(5) 0.5939(5)
H26 H 0.7037 -0.1543 0.6317
C30 C 0.6195(5) -0.1172(5) 0.5248(5)
H27 H 0.5460 -0.1770 0.5140
C31 C 0.6348(5) -0.0393(4) 0.4697(4)
H28 H 0.5707 -0.0503 0.4212
C32 C 0.8305(4) 0.0613(4) 0.5519(3)
C33 C 0.9409(4) 0.1557(4) 0.5636(3)
Ni1A Ni -0.77016(5) -0.18943(5) 1.57473(4)
Ni1_2 Ni 0.77016(5) 1.18943(5) 1.42527(4)
Ni1A_2 Ni -0.77016(5) -1.18943(5) 0.57473(4)
P1A P -0.32611(9) -0.65809(10) 1.13143(8)
O1A O -0.2487(3) -0.7213(3) 1.1755(2)
N1A N -0.9399(3) -0.2277(3) 1.4917(3)
C1A C -0.4247(4) -0.5765(4) 1.2235(3)
O2A O -0.6878(3) -0.3019(3) 1.4555(2)
N2A N -0.7359(3) -0.0487(3) 1.5168(3)
C2A C -0.4677(5) -0.6286(4) 1.2922(4)
H1A H -0.4401 -0.6987 1.2938
O3A O -0.7533(4) -0.4926(3) 1.4610(3)
C3A C -0.5509(5) -0.5772(4) 1.3580(4)
H2A H -0.5803 -0.6139 1.4029
O4A O -0.7724(3) -1.0487(3) 0.7341(2)
O4_2 O 0.7724(3) 0.0487(3) 0.2659(2)
O4A_2 O -0.7724(3) -0.0487(3) 1.7341(2)
C4A C -0.5923(4) -0.4708(4) 1.3588(3)
O5A O -0.6056(3) -1.1156(3) 0.6728(2)
O5_2 O 0.6056(3) 0.1156(3) 0.3272(2)
O5A_2 O -0.6056(3) -0.1156(3) 1.6728(2)
C5A C -0.5463(5) -0.4161(4) 1.2928(4)
H3A H -0.5707 -0.3433 1.2940
O6A O -0.0671(4) -0.1578(4) 1.0263(4)
C6A C -0.4640(4) -0.4687(4) 1.2249(3)
H4A H -0.4348 -0.4320 1.1800
O7A O 0.1025(5) -0.1879(5) 1.0876(5)
C7A C -0.6859(4) -0.4179(4) 1.4313(3)
O8A O -0.8347(3) -0.3313(3) 1.6242(2)
H5A H -0.8154 -0.4079 1.5746
H6A H -0.8026 -0.3222 1.6856
C8A C -0.4291(4) -0.7700(4) 1.0195(3)
O9A O 0.0784(3) -0.1153(4) 0.8693(3)
H7A H 0.1180 -0.0844 0.8338
H8A H 0.1399 -0.1591 0.8875
C9A C -0.5548(5) -0.7899(7) 1.0154(4)
H9A H -0.5910 -0.7440 1.0732
O10A O -0.1644(4) -0.0451(4) 0.9097(3)
H10A H -0.1937 -0.1153 0.8521
H11A H -0.1581 0.0225 0.8948
C10A C -0.6295(5) -0.8772(7) 0.9265(5)
H12A H -0.7149 -0.8865 0.9243
C11A C -0.5789(4) -0.9496(4) 0.8425(3)
C12A C -0.4556(6) -0.9345(9) 0.8493(6)
H15A H -0.4199 -0.9873 0.7945
C13A C -0.3796(6) -0.8424(9) 0.9358(6)
H16A H -0.2942 -0.8304 0.9362
C14A C -0.6575(4) -1.0432(4) 0.7457(3)
C14_2 C 0.6575(4) 0.0432(4) 0.2543(3)
C14A_2 C -0.6575(4) -0.0432(4) 1.7457(3)
C15A C -0.2323(4) -0.5418(4) 1.0945(3)
C16A C -0.2779(5) -0.4947(5) 1.0283(4)
H17A H -0.3570 -0.5310 0.9933
C17A C -0.2033(5) -0.3914(6) 1.0144(5)
H18A H -0.2343 -0.3577 0.9718
C18A C -0.0855(5) -0.3402(5) 1.0633(4)
C19A C -0.0365(5) -0.3919(5) 1.1228(4)
H19A H 0.0455 -0.3610 1.1518
C20A C -0.1111(4) -0.4916(4) 1.1397(4)
H20A H -0.0788 -0.5250 1.1821
C21A C -0.0089(5) -0.2200(5) 1.0563(5)
C22A C -1.0413(4) -0.3136(4) 1.4845(4)
H21A H -1.0411 -0.3633 1.5222
C23A C -1.1497(4) -0.3316(5) 1.4211(4)
H22A H -1.2202 -0.3913 1.4182
C24A C -1.1496(5) -0.2607(5) 1.3646(4)
H23A H -1.2201 -0.2730 1.3217
C25A C -1.0437(4) -0.1690(4) 1.3705(3)
C26A C -1.0366(5) -0.0893(5) 1.3150(4)
H24A H -1.1048 -0.0975 1.2715
C27A C -0.9324(6) -0.0025(5) 1.3247(4)
H25A H -0.9301 0.0478 1.2873
C28A C -0.8250(5) 0.0144(4) 1.3911(4)
C29A C -0.7131(6) 0.1040(5) 1.4061(5)
H26A H -0.7037 0.1543 1.3683
C30A C -0.6195(5) 0.1172(5) 1.4752(5)
H27A H -0.5460 0.1770 1.4860
C31A C -0.6348(5) 0.0393(4) 1.5303(4)
H28A H -0.5707 0.0503 1.5788
C32A C -0.8305(4) -0.0613(4) 1.4481(3)
C33A C -0.9409(4) -0.1557(4) 1.4364(3)
O11 O 0.8495(6) -0.2679(6) 0.7305(5)
H13 H 0.8289 -0.3505 0.6793
H14 H 0.9340 -0.2568 0.7485
loop_
_geom_bond_atom_site_label_1
_geom_bond_atom_site_label_2
_geom_bond_site_symmetry_1
_geom_bond_site_symmetry_2
Ni1 N1 1_555 1_555
P1 O1 1_555 1_555
N1 C22 1_555 1_555
C1 P1 1_555 1_555
Ni2 O6 1_555 1_555
O2 Ni1 1_555 1_555
N2 Ni1 1_555 1_555
C2 C1 1_555 1_555
H1 C2 1_555 1_555
O3 C7 1_555 1_555
C3 C2 1_555 1_555
H2 C3 1_555 1_555
O4 C14 1_555 1_555
C4 C3 1_555 1_555
O5 C14 1_555 1_555
C5 C4 1_555 1_555
H3 C5 1_555 1_555
O6 C21 1_555 1_555
C6 C1 1_555 1_555
H4 C6 1_555 1_555
O7 C21 1_555 1_555
C7 O2 1_555 1_555
O8 Ni1 1_555 1_555
H5 O8 1_555 1_555
H6 O8 1_555 1_555
C8 P1 1_555 1_555
O9 Ni2 1_555 1_555
H7 O9 1_555 1_555
H8 O9 1_555 1_555
C9 C8 1_555 1_555
H9 C9 1_555 1_555
O10 Ni2 1_555 1_555
H10 O10 1_555 1_555
H11 O10 1_555 1_555
C10 C9 1_555 1_555
H12 C10 1_555 1_555
O11 H13 1_555 1_555
H14 O11 1_555 1_555
C11 C10 1_555 1_555
C12 C11 1_555 1_555
H15 C12 1_555 1_555
C13 C8 1_555 1_555
H16 C13 1_555 1_555
C14 C11 1_555 1_555
C15 P1 1_555 1_555
C16 C15 1_555 1_555
H17 C16 1_555 1_555
C17 C16 1_555 1_555
H18 C17 1_555 1_555
C18 C17 1_555 1_555
C19 C18 1_555 1_555
H19 C19 1_555 1_555
C20 C15 1_555 1_555
H20 C20 1_555 1_555
C21 C18 1_555 1_555
C22 H21 1_555 1_555
C23 C22 1_555 1_555
H22 C23 1_555 1_555
C24 C23 1_555 1_555
H23 C24 1_555 1_555
C25 C24 1_555 1_555
C26 C25 1_555 1_555
H24 C26 1_555 1_555
C27 C26 1_555 1_555
H25 C27 1_555 1_555
C28 C27 1_555 1_555
C29 C28 1_555 1_555
H26 C29 1_555 1_555
C30 C29 1_555 1_555
H27 C30 1_555 1_555
C31 N2 1_555 1_555
H28 C31 1_555 1_555
C32 N2 1_555 1_555
C33 N1 1_555 1_555
Ni1A N1A 1_555 1_555
Ni1_2 O4 1_555 1_555
Ni1A_2 O4A 1_555 1_555
P1A O1A 1_555 1_555
N1A C22A 1_555 1_555
C1A P1A 1_555 1_555
O2A Ni1A 1_555 1_555
N2A Ni1A 1_555 1_555
C2A C1A 1_555 1_555
H1A C2A 1_555 1_555
O3A C7A 1_555 1_555
C3A C2A 1_555 1_555
H2A C3A 1_555 1_555
O4A C14A 1_555 1_555
O4_2 Ni1 1_555 1_555
O4A_2 Ni1A 1_555 1_555
C4A C3A 1_555 1_555
O5A Ni1A_2 1_555 1_555
O5_2 Ni1 1_555 1_555
O5A_2 Ni1A 1_555 1_555
C5A C4A 1_555 1_555
H3A C5A 1_555 1_555
O6A Ni2 1_555 1_555
C6A C1A 1_555 1_555
H4A C6A 1_555 1_555
O7A C21A 1_555 1_555
C7A O2A 1_555 1_555
O8A Ni1A 1_555 1_555
H5A O8A 1_555 1_555
H6A O8A 1_555 1_555
C8A P1A 1_555 1_555
O9A Ni2 1_555 1_555
H7A O9A 1_555 1_555
H8A O9A 1_555 1_555
C9A C8A 1_555 1_555
H9A C9A 1_555 1_555
O10A Ni2 1_555 1_555
H10A O10A 1_555 1_555
H11A O10A 1_555 1_555
C10A C9A 1_555 1_555
H12A C10A 1_555 1_555
C11A C10A 1_555 1_555
C12A C11A 1_555 1_555
H15A C12A 1_555 1_555
C13A C8A 1_555 1_555
H16A C13A 1_555 1_555
C14A O5A 1_555 1_555
C14_2 O4_2 1_555 1_555
C14A_2 O4A_2 1_555 1_555
C15A P1A 1_555 1_555
C16A C15A 1_555 1_555
H17A C16A 1_555 1_555
C17A C16A 1_555 1_555
H18A C17A 1_555 1_555
C18A C17A 1_555 1_555
C19A C18A 1_555 1_555
H19A C19A 1_555 1_555
C20A C15A 1_555 1_555
H20A C20A 1_555 1_555
C21A O6A 1_555 1_555
C22A H21A 1_555 1_555
C23A C22A 1_555 1_555
H22A C23A 1_555 1_555
C24A C23A 1_555 1_555
H23A C24A 1_555 1_555
C25A C24A 1_555 1_555
C26A C25A 1_555 1_555
H24A C26A 1_555 1_555
C27A C26A 1_555 1_555
H25A C27A 1_555 1_555
C28A C27A 1_555 1_555
C29A C28A 1_555 1_555
H26A C29A 1_555 1_555
C30A C29A 1_555 1_555
H27A C30A 1_555 1_555
C31A N2A 1_555 1_555
H28A C31A 1_555 1_555
C32A N2A 1_555 1_555
C33A N1A 1_555 1_555
C4 C7 1_555 1_555
O5 Ni1_2 1_555 1_555
C5 C6 1_555 1_555
C12 C13 1_555 1_555
C19 C20 1_555 1_555
C25 C33 1_555 1_555
C28 C32 1_555 1_555
C30 C31 1_555 1_555
C32 C33 1_555 1_555
C4A C7A 1_555 1_555
O5_2 C14_2 1_555 1_555
O5A_2 C14A_2 1_555 1_555
C5A C6A 1_555 1_555
C11A C14A 1_555 1_555
C12A C13A 1_555 1_555
C18A C21A 1_555 1_555
C19A C20A 1_555 1_555
C25A C33A 1_555 1_555
C28A C32A 1_555 1_555
C30A C31A 1_555 1_555
C32A C33A 1_555 1_555

#END
