
#######################################################################
#
#                 Cambridge Crystallographic Data Centre
#                                CCDC 
#
#######################################################################
#
# If this CIF has been generated from an entry in the Cambridge 
# Structural Database, then it will include bibliographic, chemical, 
# crystal, experimental, refinement or atomic coordinate data resulting 
# from the CCDC's data processing and validation procedures.
#
#######################################################################

data_DEHXOF
_symmetry_cell_setting           orthorhombic
_symmetry_space_group_name_H-M   'A b a 2'
_symmetry_Int_Tables_number      41
_space_group_name_Hall           'A 2 -2ab'
loop_
_symmetry_equiv_pos_site_id
_symmetry_equiv_pos_as_xyz
1 x,y,z
2 -x,-y,z
3 1/2+x,1/2-y,z
4 1/2-x,1/2+y,z
5 x,1/2+y,1/2+z
6 -x,1/2-y,1/2+z
7 1/2+x,-y,1/2+z
8 1/2-x,y,1/2+z
_cell_length_a                   12.6376(7)
_cell_length_b                   15.9206(9)
_cell_length_c                   7.5603(4)
_cell_angle_alpha                90
_cell_angle_beta                 90
_cell_angle_gamma                90
_cell_volume                     1521.12
loop_
_atom_site_label
_atom_site_type_symbol
_atom_site_fract_x
_atom_site_fract_y
_atom_site_fract_z
Co1 Co 0.0000 0.0000 0.37277(6)
N1 N 0.06410(9) 0.12559(7) 0.3673(2)
N2 N 0.17243(11) 0.43966(8) 0.4168(2)
N3 N 0.34045(9) 0.45159(7) 0.3773(2)
N4 N 0.31762(11) 0.37088(8) 0.3399(2)
N5 N 0.25430(13) 0.49293(8) 0.4229(2)
C1 C 0.14295(13) 0.14369(10) 0.2529(2)
C2 C 0.03003(14) 0.18762(10) 0.4729(2)
C3 C 0.19165(13) 0.22147(10) 0.2465(2)
C4 C 0.07268(13) 0.26779(10) 0.4727(2)
C5 C 0.15721(11) 0.28508(9) 0.3586(2)
C6 C 0.21403(11) 0.36552(8) 0.3672(3)
O1 O 0.0000 0.0000 0.1030(4)
O2 O 0.0000 0.0000 0.6532(4)
H1 H 0.039(2) -0.0205(18) 0.043(4)
H2 H 0.056(3) -0.0086(13) 0.702(4)
H3 H 0.0473(18) 0.3084(12) 0.550(3)
H4 H 0.2471(17) 0.2299(13) 0.166(3)
H5 H -0.0236(17) 0.1749(14) 0.553(3)
H6 H 0.1652(16) 0.1019(12) 0.180(3)
Co1B Co -0.5000 -0.5000 0.37277(6)
Co1B_2 Co 0.5000 0.5000 0.37277(6)
N1A N -0.06410(9) -0.12559(7) 0.3673(2)
N2A N -0.17243(11) -0.43966(8) 0.4168(2)
N3A N -0.34045(9) -0.45159(7) 0.3773(2)
N3B N -0.15955(9) 0.04841(7) 0.3773(2)
N3C N 0.15955(9) -0.04841(7) 0.3773(2)
N4A N -0.31762(11) -0.37088(8) 0.3399(2)
N5A N -0.25430(13) -0.49293(8) 0.4229(2)
C1A C -0.14295(13) -0.14369(10) 0.2529(2)
C2A C -0.03003(14) -0.18762(10) 0.4729(2)
C3A C -0.19165(13) -0.22147(10) 0.2465(2)
C4A C -0.07268(13) -0.26779(10) 0.4727(2)
C5A C -0.15721(11) -0.28508(9) 0.3586(2)
C6A C -0.21403(11) -0.36552(8) 0.3672(3)
H1A H -0.039(2) 0.0205(18) 0.043(4)
H2A H -0.056(3) 0.0086(13) 0.702(4)
H3A H -0.0473(18) -0.3084(12) 0.550(3)
H4A H -0.2471(17) -0.2299(13) 0.166(3)
H5A H 0.0236(17) -0.1749(14) 0.553(3)
H6A H -0.1652(16) -0.1019(12) 0.180(3)
loop_
_geom_bond_atom_site_label_1
_geom_bond_atom_site_label_2
_geom_bond_site_symmetry_1
_geom_bond_site_symmetry_2
Co1 N1 1_555 1_555
N1 C1 1_555 1_555
N2 N5 1_555 1_555
N3 N4 1_555 1_555
N4 C6 1_555 1_555
N5 N3 1_555 1_555
C1 C3 1_555 1_555
C2 N1 1_555 1_555
C3 C5 1_555 1_555
C4 C2 1_555 1_555
C5 C4 1_555 1_555
C6 N2 1_555 1_555
O1 Co1 1_555 1_555
O2 Co1 1_555 1_555
H1 O1 1_555 1_555
H2 O2 1_555 1_555
H3 C4 1_555 1_555
H4 C3 1_555 1_555
H5 C2 1_555 1_555
H6 C1 1_555 1_555
Co1B N3A 1_555 1_555
Co1B_2 N3 1_555 1_555
N1A Co1 1_555 1_555
N2A N5A 1_555 1_555
N3A N4A 1_555 1_555
N3B Co1 1_555 1_555
N3C Co1 1_555 1_555
N4A C6A 1_555 1_555
N5A N3A 1_555 1_555
C1A N1A 1_555 1_555
C2A N1A 1_555 1_555
C3A C1A 1_555 1_555
C4A C2A 1_555 1_555
C5A C3A 1_555 1_555
C6A N2A 1_555 1_555
H1A O1 1_555 1_555
H2A O2 1_555 1_555
H3A C4A 1_555 1_555
H4A C3A 1_555 1_555
H5A C2A 1_555 1_555
H6A C1A 1_555 1_555
C5 C6 1_555 1_555
C4A C5A 1_555 1_555
C5A C6A 1_555 1_555

#END
