
#######################################################################
#
#                 Cambridge Crystallographic Data Centre
#                                CCDC 
#
#######################################################################
#
# If this CIF has been generated from an entry in the Cambridge 
# Structural Database, then it will include bibliographic, chemical, 
# crystal, experimental, refinement or atomic coordinate data resulting 
# from the CCDC's data processing and validation procedures.
#
#######################################################################

data_DEHXEU
_symmetry_cell_setting           triclinic
_symmetry_space_group_name_H-M   'P -1'
_symmetry_Int_Tables_number      2
_space_group_name_Hall           '-P 1'
loop_
_symmetry_equiv_pos_site_id
_symmetry_equiv_pos_as_xyz
1 x,y,z
2 -x,-y,-z
_cell_length_a                   8.6227(17)
_cell_length_b                   9.7572(19)
_cell_length_c                   12.738(3)
_cell_angle_alpha                102.899(3)
_cell_angle_beta                 95.136(3)
_cell_angle_gamma                106.539(4)
_cell_volume                     987.899
loop_
_atom_site_label
_atom_site_type_symbol
_atom_site_fract_x
_atom_site_fract_y
_atom_site_fract_z
Sm1 Sm 0.63292(2) 0.20512(2) 0.508467(15)
C1 C 0.6674(5) 0.0859(5) 0.6970(4)
C2 C 0.6574(7) 0.0169(6) 0.7917(4)
H1 H 0.5439 -0.0190 0.8014
H2 H 0.6991 -0.0666 0.7770
C3 C 0.7773(6) 0.0679(5) 0.9781(4)
C4 C 0.6868(8) -0.0645(7) 0.9916(5)
H3 H 0.5973 -0.1251 0.9390
C5 C 0.7273(8) -0.1100(7) 1.0837(5)
H4 H 0.6645 -0.2002 1.0925
C6 C 0.8593(6) -0.0221(5) 1.1612(4)
C7 C 0.9484(7) 0.1132(6) 1.1485(5)
H5 H 1.0369 0.1745 1.2017
C8 C 0.9080(8) 0.1583(6) 1.0587(5)
H6 H 0.9686 0.2502 1.0515
C9 C 0.8078(6) -0.1716(5) 1.2905(4)
H7 H 0.8706 -0.2168 1.3311
H8 H 0.7375 -0.2488 1.2290
C10 C 0.7014(5) -0.1092(5) 1.3636(4)
C11 C 0.5434(6) 0.3407(5) 0.3461(4)
C12 C 0.4981(7) 0.4197(6) 0.2643(4)
H9 H 0.3818 0.3776 0.2356
H10 H 0.5205 0.5236 0.3002
C13 C 0.5413(6) 0.4555(5) 0.0917(4)
C14 C 0.6159(6) 0.4264(6) 0.0012(4)
H11 H 0.6935 0.3771 0.0023
C15 C 0.4242(6) 0.5297(6) 0.0913(4)
H12 H 0.3741 0.5494 0.1522
O1 O 0.7322(5) 0.2203(4) 0.7098(3)
O2 O 0.6042(4) -0.0023(3) 0.6029(2)
O3 O 0.7507(5) 0.1232(4) 0.8885(3)
O4 O 0.9189(4) -0.0631(4) 1.2502(3)
O5 O 0.7318(4) 0.0278(4) 1.3937(3)
O6 O 0.5918(4) -0.2048(4) 1.3921(3)
O7 O 0.4589(4) 0.3332(4) 0.4213(3)
O8 O 0.6594(4) 0.2876(4) 0.3389(3)
O9 O 0.5888(5) 0.4055(4) 0.1782(3)
O10 O 0.7320(4) 0.4733(4) 0.5883(3)
H13 H 0.7258 0.5183 0.5384
H14 H 0.8316 0.4991 0.6193
O11 O 0.9245(4) 0.2918(5) 0.5352(4)
H15 H 0.9612 0.3508 0.5985
H16 H 0.9601 0.2175 0.5298
Sm1A Sm 0.36708(2) -0.20512(2) 0.491533(15)
Sm1_2 Sm 0.63292(2) 0.20512(2) 1.508467(15)
Sm1A_2 Sm 0.36708(2) -0.20512(2) 1.491533(15)
Sm1A_3 Sm 0.36708(2) 0.79488(2) -0.508467(15)
Sm1A_4 Sm 0.36708(2) -0.20512(2) -0.508467(15)
Sm1_3 Sm 0.63292(2) 0.20512(2) -0.491533(15)
C1A C 0.3326(5) -0.0859(5) 0.3030(4)
C2A C 0.3426(7) -0.0169(6) 0.2083(4)
H1A H 0.4561 0.0190 0.1986
H2A H 0.3009 0.0666 0.2230
C3A C 0.2227(6) -0.0679(5) 0.0219(4)
C4A C 0.3132(8) 0.0645(7) 0.0084(5)
H3A H 0.4027 0.1251 0.0610
C5A C 0.2727(8) 0.1100(7) -0.0837(5)
H4A H 0.3355 0.2002 -0.0925
C6A C 0.1407(6) 0.0221(5) -0.1612(4)
C7A C 0.0516(7) -0.1132(6) -0.1485(5)
H5A H -0.0369 -0.1745 -0.2017
C8A C 0.0920(8) -0.1583(6) -0.0587(5)
H6A H 0.0314 -0.2502 -0.0515
C9A C 0.1922(6) 0.1716(5) -0.2905(4)
H7A H 0.1294 0.2168 -0.3311
H8A H 0.2625 0.2488 -0.2290
C10A C 0.2986(5) 0.1092(5) -0.3636(4)
C11A C 0.4566(6) 0.6593(5) -0.3461(4)
C12A C 0.5019(7) 0.5803(6) -0.2643(4)
H9A H 0.6182 0.6224 -0.2356
H10A H 0.4795 0.4764 -0.3002
C13A C 0.4587(6) 0.5445(5) -0.0917(4)
C14A C 0.3841(6) 0.5736(6) -0.0012(4)
H11A H 0.3065 0.6229 -0.0023
C15A C 0.5758(6) 0.4703(6) -0.0913(4)
H12A H 0.6259 0.4506 -0.1522
O1A O 0.2678(5) -0.2203(4) 0.2902(3)
O2A O 0.3958(4) 0.0023(3) 0.3971(2)
O3A O 0.2493(5) -0.1232(4) 0.1115(3)
O4A O 0.0811(4) 0.0631(4) -0.2502(3)
O5A O 0.2682(4) -0.0278(4) -0.3937(3)
O5_2 O 0.7318(4) 0.0278(4) 0.3937(3)
O5A_2 O 0.2682(4) -0.0278(4) 0.6063(3)
O6A O 0.4082(4) 0.2048(4) -0.3921(3)
O6A_2 O 0.4082(4) 0.2048(4) 0.6079(3)
O6_2 O 0.5918(4) -0.2048(4) 0.3921(3)
O7A O 0.5411(4) 0.6668(4) -0.4213(3)
O7A_2 O 0.5411(4) -0.3332(4) 0.5787(3)
O8A O 0.3406(4) 0.7124(4) -0.3389(3)
O8A_2 O 0.3406(4) -0.2876(4) 0.6611(3)
O9A O 0.4112(5) 0.5945(4) -0.1782(3)
O10A O 0.2680(4) -0.4733(4) 0.4117(3)
H13A H 0.2742 -0.5183 0.4616
H14A H 0.1684 -0.4991 0.3807
O11A O 0.0755(4) -0.2918(5) 0.4648(4)
H15A H 0.0388 -0.3508 0.4015
H16A H 0.0399 -0.2175 0.4702
O12 O 0.8778(5) 0.8228(6) 0.5817(4)
H17 H 0.8242 0.8269 0.5234
H18 H 0.8286 0.8438 0.6352
O13 O 0.9525(5) 0.4531(5) 0.3037(3)
H19 H 0.9624 0.4846 0.2464
H20 H 0.8703 0.3744 0.2900
O14 O 0.0182(7) 0.5767(6) 0.1146(4)
H21 H 0.1108 0.5654 0.1321
H22 H 0.0327 0.6663 0.1114
loop_
_geom_bond_atom_site_label_1
_geom_bond_atom_site_label_2
_geom_bond_site_symmetry_1
_geom_bond_site_symmetry_2
Sm1 O1 1_555 1_555
C1 C2 1_555 1_555
C2 H1 1_555 1_555
H2 C2 1_555 1_555
C3 C4 1_555 1_555
C4 H3 1_555 1_555
C5 C4 1_555 1_555
H4 C5 1_555 1_555
C6 C5 1_555 1_555
C7 C6 1_555 1_555
H5 C7 1_555 1_555
C8 C3 1_555 1_555
H6 C8 1_555 1_555
C9 H7 1_555 1_555
H8 C9 1_555 1_555
C10 C9 1_555 1_555
C11 C12 1_555 1_555
C12 H9 1_555 1_555
H10 C12 1_555 1_555
C13 C14 1_555 1_555
C14 H11 1_555 1_555
C15 C13 1_555 1_555
H12 C15 1_555 1_555
O1 C1 1_555 1_555
O2 Sm1 1_555 1_555
O3 C2 1_555 1_555
O4 C6 1_555 1_555
O5 C10 1_555 1_555
O6 C10 1_555 1_555
O7 Sm1 1_555 1_555
O8 Sm1 1_555 1_555
O9 C12 1_555 1_555
O10 Sm1 1_555 1_555
H13 O10 1_555 1_555
H14 O10 1_555 1_555
O11 Sm1 1_555 1_555
H15 O11 1_555 1_555
H16 O11 1_555 1_555
O12 H17 1_555 1_555
H18 O12 1_555 1_555
O13 H19 1_555 1_555
H20 O13 1_555 1_555
O14 H21 1_555 1_555
H22 O14 1_555 1_555
Sm1A O2 1_555 1_555
Sm1_2 O5 1_555 1_555
Sm1A_2 O6 1_555 1_555
Sm1A_3 O7A 1_555 1_555
Sm1A_4 O5A 1_555 1_555
Sm1_3 O6A 1_555 1_555
C1A C2A 1_555 1_555
C2A H1A 1_555 1_555
H2A C2A 1_555 1_555
C3A C4A 1_555 1_555
C4A H3A 1_555 1_555
C5A C4A 1_555 1_555
H4A C5A 1_555 1_555
C6A C5A 1_555 1_555
C7A C6A 1_555 1_555
H5A C7A 1_555 1_555
C8A C3A 1_555 1_555
H6A C8A 1_555 1_555
C9A H7A 1_555 1_555
H8A C9A 1_555 1_555
C10A C9A 1_555 1_555
C11A C12A 1_555 1_555
C12A H9A 1_555 1_555
H10A C12A 1_555 1_555
C13A C14A 1_555 1_555
C14A C15 1_555 1_555
H11A C14A 1_555 1_555
C15A C14 1_555 1_555
H12A C15A 1_555 1_555
O1A Sm1A 1_555 1_555
O2A Sm1 1_555 1_555
O3A C2A 1_555 1_555
O4A C6A 1_555 1_555
O5A C10A 1_555 1_555
O5_2 Sm1 1_555 1_555
O5A_2 Sm1A 1_555 1_555
O6A C10A 1_555 1_555
O6A_2 Sm1 1_555 1_555
O6_2 Sm1A 1_555 1_555
O7A C11A 1_555 1_555
O7A_2 Sm1A 1_555 1_555
O8A Sm1A_3 1_555 1_555
O8A_2 Sm1A 1_555 1_555
O9A C12A 1_555 1_555
O10A Sm1A 1_555 1_555
H13A O10A 1_555 1_555
H14A O10A 1_555 1_555
O11A Sm1A 1_555 1_555
H15A O11A 1_555 1_555
H16A O11A 1_555 1_555
C1 O2 1_555 1_555
C3 O3 1_555 1_555
C7 C8 1_555 1_555
C9 O4 1_555 1_555
C11 O7 1_555 1_555
C11 O8 1_555 1_555
C13 O9 1_555 1_555
Sm1A O2A 1_555 1_555
C1A O1A 1_555 1_555
C1A O2A 1_555 1_555
C3A O3A 1_555 1_555
C7A C8A 1_555 1_555
C9A O4A 1_555 1_555
C11A O8A 1_555 1_555
C13A C15A 1_555 1_555
C13A O9A 1_555 1_555

#END
