
#######################################################################
#
#                 Cambridge Crystallographic Data Centre
#                                CCDC 
#
#######################################################################
#
# If this CIF has been generated from an entry in the Cambridge 
# Structural Database, then it will include bibliographic, chemical, 
# crystal, experimental, refinement or atomic coordinate data resulting 
# from the CCDC's data processing and validation procedures.
#
#######################################################################

data_DEHYAS
_symmetry_cell_setting           triclinic
_symmetry_space_group_name_H-M   'P -1'
_symmetry_Int_Tables_number      2
_space_group_name_Hall           '-P 1'
loop_
_symmetry_equiv_pos_site_id
_symmetry_equiv_pos_as_xyz
1 x,y,z
2 -x,-y,-z
_cell_length_a                   6.9200(5)
_cell_length_b                   9.7325(7)
_cell_length_c                   10.3635(8)
_cell_angle_alpha                79.4910(10)
_cell_angle_beta                 86.4920(10)
_cell_angle_gamma                75.5240(10)
_cell_volume                     664.386
loop_
_atom_site_label
_atom_site_type_symbol
_atom_site_fract_x
_atom_site_fract_y
_atom_site_fract_z
Cd1 Cd 0.73191(3) 0.52500(3) 0.63738(2)
Cl1 Cl 0.77965(16) 0.26557(12) 0.74361(11)
O1 O 0.6931(4) 0.7636(3) 0.5432(3)
C1 C 1.1005(5) 0.6068(4) 0.7427(3)
C2 C 0.9494(5) 0.6435(4) 0.8445(3)
C3 C 0.9895(6) 0.7023(5) 0.9492(4)
H1 H 1.1119 0.7240 0.9546
C4 C 0.8430(6) 0.7281(5) 1.0462(4)
H2 H 0.8662 0.7666 1.1179
C5 C 0.6644(6) 0.6956(5) 1.0339(4)
H3 H 0.5640 0.7123 1.0971
C6 C 0.6349(5) 0.6377(4) 0.9264(4)
H4 H 0.5132 0.6157 0.9192
C7 C 0.6132(6) 0.8216(4) 0.4371(4)
H5 H 0.5208 0.7806 0.4068
C8 C 0.8027(8) 1.0023(5) 0.4035(7)
H6 H 0.8435 0.9580 0.4914
H7 H 0.7485 1.1037 0.4003
H8 H 0.9159 0.9872 0.3449
C9 C 0.5446(10) 1.0071(5) 0.2430(5)
H9 H 0.4525 0.9530 0.2274
H10 H 0.6385 1.0103 0.1711
H11 H 0.4727 1.1034 0.2508
N1 N 1.0700(4) 0.5477(3) 0.6423(3)
N2 N 1.2431(4) 0.5266(3) 0.5763(3)
N3 N 1.3729(4) 0.5719(3) 0.6359(3)
N4 N 1.2858(4) 0.6237(3) 0.7417(3)
N5 N 0.7735(4) 0.6120(3) 0.8321(3)
N6 N 0.6511(6) 0.9382(4) 0.3641(4)
Cd1A Cd 1.26809(3) 0.47500(3) 0.36262(2)
Cd1_2 Cd 1.73191(3) 0.52500(3) 0.63738(2)
Cd1A_2 Cd 0.26809(3) 0.47500(3) 0.36262(2)
Cl1A Cl 1.22035(16) 0.73443(12) 0.25639(11)
O1A O 1.3069(4) 0.2364(3) 0.4568(3)
C1A C 0.8995(5) 0.3932(4) 0.2573(3)
C2A C 1.0506(5) 0.3565(4) 0.1555(3)
C3A C 1.0105(6) 0.2977(5) 0.0508(4)
H1A H 0.8881 0.2760 0.0454
C4A C 1.1570(6) 0.2719(5) -0.0462(4)
H2A H 1.1338 0.2334 -0.1179
C5A C 1.3356(6) 0.3044(5) -0.0339(4)
H3A H 1.4360 0.2877 -0.0971
C6A C 1.3651(5) 0.3623(4) 0.0736(4)
H4A H 1.4868 0.3843 0.0808
C7A C 1.3868(6) 0.1784(4) 0.5629(4)
H5A H 1.4792 0.2194 0.5932
C8A C 1.1973(8) -0.0023(5) 0.5965(7)
H6A H 1.1565 0.0420 0.5086
H7A H 1.2515 -0.1037 0.5997
H8A H 1.0841 0.0128 0.6551
C9A C 1.4554(10) -0.0071(5) 0.7570(5)
H9A H 1.5475 0.0470 0.7726
H10A H 1.3615 -0.0103 0.8289
H11A H 1.5273 -0.1034 0.7492
N1A N 0.9300(4) 0.4523(3) 0.3577(3)
N2A N 0.7569(4) 0.4734(3) 0.4237(3)
N3A N 0.6271(4) 0.4281(3) 0.3641(3)
N3_2 N 0.3729(4) 0.5719(3) 0.6359(3)
N3A_2 N 1.6271(4) 0.4281(3) 0.3641(3)
N4A N 0.7142(4) 0.3763(3) 0.2583(3)
N5A N 1.2265(4) 0.3880(3) 0.1679(3)
N6A N 1.3489(6) 0.0618(4) 0.6359(4)
loop_
_geom_bond_atom_site_label_1
_geom_bond_atom_site_label_2
_geom_bond_site_symmetry_1
_geom_bond_site_symmetry_2
Cd1 Cl1 1_555 1_555
O1 Cd1 1_555 1_555
C1 C2 1_555 1_555
C2 C3 1_555 1_555
C3 H1 1_555 1_555
C4 C3 1_555 1_555
H2 C4 1_555 1_555
C5 C4 1_555 1_555
H3 C5 1_555 1_555
C6 C5 1_555 1_555
H4 C6 1_555 1_555
C7 O1 1_555 1_555
H5 C7 1_555 1_555
C8 H6 1_555 1_555
H7 C8 1_555 1_555
H8 C8 1_555 1_555
C9 H9 1_555 1_555
H10 C9 1_555 1_555
H11 C9 1_555 1_555
N1 Cd1 1_555 1_555
N2 N1 1_555 1_555
N3 N2 1_555 1_555
N4 C1 1_555 1_555
N5 Cd1 1_555 1_555
N6 C7 1_555 1_555
Cd1A N2 1_555 1_555
Cd1_2 N3 1_555 1_555
Cd1A_2 N3A 1_555 1_555
Cl1A Cd1A 1_555 1_555
O1A Cd1A 1_555 1_555
C1A C2A 1_555 1_555
C2A C3A 1_555 1_555
C3A H1A 1_555 1_555
C4A C3A 1_555 1_555
H2A C4A 1_555 1_555
C5A C4A 1_555 1_555
H3A C5A 1_555 1_555
C6A C5A 1_555 1_555
H4A C6A 1_555 1_555
C7A O1A 1_555 1_555
H5A C7A 1_555 1_555
C8A H6A 1_555 1_555
H7A C8A 1_555 1_555
H8A C8A 1_555 1_555
C9A H9A 1_555 1_555
H10A C9A 1_555 1_555
H11A C9A 1_555 1_555
N1A Cd1A 1_555 1_555
N2A Cd1 1_555 1_555
N3A N2A 1_555 1_555
N3_2 Cd1 1_555 1_555
N3A_2 Cd1A 1_555 1_555
N4A C1A 1_555 1_555
N5A Cd1A 1_555 1_555
N6A C7A 1_555 1_555
C1 N1 1_555 1_555
C2 N5 1_555 1_555
C6 N5 1_555 1_555
C8 N6 1_555 1_555
C9 N6 1_555 1_555
N3 N4 1_555 1_555
C1A N1A 1_555 1_555
C2A N5A 1_555 1_555
C6A N5A 1_555 1_555
C8A N6A 1_555 1_555
C9A N6A 1_555 1_555
N1A N2A 1_555 1_555
N3A N4A 1_555 1_555

#END
