
#######################################################################
#
#                 Cambridge Crystallographic Data Centre
#                                CCDC 
#
#######################################################################
#
# If this CIF has been generated from an entry in the Cambridge 
# Structural Database, then it will include bibliographic, chemical, 
# crystal, experimental, refinement or atomic coordinate data resulting 
# from the CCDC's data processing and validation procedures.
#
#######################################################################

data_DEHYOF
_symmetry_cell_setting           monoclinic
_symmetry_space_group_name_H-M   'C c'
_symmetry_Int_Tables_number      9
_space_group_name_Hall           'C -2yc'
loop_
_symmetry_equiv_pos_site_id
_symmetry_equiv_pos_as_xyz
1 x,y,z
2 x,-y,1/2+z
3 1/2+x,1/2+y,z
4 1/2+x,1/2-y,1/2+z
_cell_length_a                   21.790(3)
_cell_length_b                   5.6611(9)
_cell_length_c                   16.867(3)
_cell_angle_alpha                90
_cell_angle_beta                 112.951(2)
_cell_angle_gamma                90
_cell_volume                     1915.93
loop_
_atom_site_label
_atom_site_type_symbol
_atom_site_fract_x
_atom_site_fract_y
_atom_site_fract_z
N1 N 0.4835(3) 0.5756(7) 0.3788(3)
N2 N 0.4841(3) 1.4341(8) 0.0758(3)
C1 C 0.4271(3) 0.6541(15) 0.3185(6)
H1 H 0.3869 0.5922 0.3164
C2 C 0.4255(3) 0.8232(17) 0.2590(6)
H2 H 0.3848 0.8730 0.2180
C3 C 0.4836(3) 0.9180(11) 0.2600(4)
C4 C 0.5409(3) 0.8391(17) 0.3224(6)
H3 H 0.5816 0.9015 0.3269
C5 C 0.5389(4) 0.6663(15) 0.3792(5)
H4 H 0.5791 0.6114 0.4198
C6 C 0.4841(3) 1.1039(11) 0.1973(4)
C7 C 0.4274(4) 1.205(2) 0.1416(6)
H5 H 0.3868 1.1642 0.1439
C8 C 0.4290(4) 1.3652(17) 0.0822(6)
H6 H 0.3890 1.4287 0.0443
C9 C 0.5389(4) 1.3519(19) 0.1332(7)
H7 H 0.5791 1.4110 0.1347
C10 C 0.5404(4) 1.181(2) 0.1924(8)
H8 H 0.5810 1.1182 0.2291
C11 C 0.3032(3) -0.0230(9) 0.3814(4)
H9 H 0.3299 -0.1653 0.3993
H10 H 0.2819 -0.0252 0.3191
C12 C 0.3485(3) 0.1861(8) 0.4083(3)
C13 C 0.6666(3) -0.0114(9) 0.5618(3)
H11 H 0.6881 -0.0114 0.5212
H12 H 0.6402 -0.1543 0.5523
C14 C 0.6210(2) 0.1976(9) 0.5438(3)
Zn1 Zn 0.48386(4) 0.36605(7) 0.47564(4)
Zn2 Zn 0.22566(2) 0.45695(9) 0.35094(3)
Zn3 Zn 0.24371(2) -0.03275(9) 0.61063(3)
P1 P 0.23933(5) -0.03023(16) 0.42455(8)
P2 P 0.73026(6) -0.01832(17) 0.67006(7)
O1 O 0.19257(16) 0.1760(5) 0.3858(2)
O2 O 0.20290(16) -0.2653(5) 0.3988(2)
O3 O 0.27593(18) -0.0073(7) 0.5209(2)
O4 O 0.32499(17) 0.3936(6) 0.3990(2)
O5 O 0.41021(19) 0.1444(6) 0.4393(3)
O6 O 0.5591(2) 0.1530(7) 0.5128(3)
O7 O 0.64393(18) 0.4030(6) 0.5581(2)
O8 O 0.69305(18) 0.0055(7) 0.7292(2)
O9 O 0.77746(15) 0.1856(5) 0.6798(2)
O10 O 0.76566(16) -0.2546(5) 0.6805(2)
N2A N 0.4841(3) 0.5659(8) 0.5758(3)
Zn1A Zn 0.48386(4) 1.63395(7) -0.02436(4)
Zn2_2 Zn 0.22566(2) -0.54305(9) 0.35094(3)
Zn2C Zn 0.72566(2) 0.04305(9) 0.85094(3)
Zn3B Zn 0.74371(2) 0.46725(9) 0.61063(3)
Zn3B_2 Zn 0.74371(2) -0.53275(9) 0.61063(3)
O2_2 O 0.20290(16) 0.7347(5) 0.3988(2)
O7B O 0.14393(18) -0.0970(6) 0.5581(2)
O8C O 0.19305(18) 0.4945(7) 0.2292(2)
O9B O 0.27746(15) -0.3144(5) 0.6798(2)
O10B O 0.26566(16) 0.2454(5) 0.6805(2)
loop_
_geom_bond_atom_site_label_1
_geom_bond_atom_site_label_2
_geom_bond_site_symmetry_1
_geom_bond_site_symmetry_2
N1 C1 1_555 1_555
N2 C8 1_555 1_555
C1 H1 1_555 1_555
C2 C1 1_555 1_555
H2 C2 1_555 1_555
C3 C2 1_555 1_555
C4 C3 1_555 1_555
H3 C4 1_555 1_555
C5 N1 1_555 1_555
H4 C5 1_555 1_555
C6 C3 1_555 1_555
C7 C6 1_555 1_555
H5 C7 1_555 1_555
C8 C7 1_555 1_555
H6 C8 1_555 1_555
C9 N2 1_555 1_555
H7 C9 1_555 1_555
C10 C6 1_555 1_555
H8 C10 1_555 1_555
C11 H9 1_555 1_555
H10 C11 1_555 1_555
C12 C11 1_555 1_555
C13 H11 1_555 1_555
H12 C13 1_555 1_555
C14 C13 1_555 1_555
Zn1 N1 1_555 1_555
Zn2 O1 1_555 1_555
Zn3 O3 1_555 1_555
P1 C11 1_555 1_555
P2 C13 1_555 1_555
O1 P1 1_555 1_555
O2 P1 1_555 1_555
O3 P1 1_555 1_555
O4 C12 1_555 1_555
O5 C12 1_555 1_555
O6 C14 1_555 1_555
O7 C14 1_555 1_555
O8 P2 1_555 1_555
O9 P2 1_555 1_555
O10 P2 1_555 1_555
N2A Zn1 1_555 1_555
Zn1A N2 1_555 1_555
Zn2_2 O2 1_555 1_555
Zn2C O8 1_555 1_555
Zn3B O7 1_555 1_555
Zn3B_2 O10 1_555 1_555
O2_2 Zn2 1_555 1_555
O7B Zn3 1_555 1_555
O8C Zn2 1_555 1_555
O9B Zn3 1_555 1_555
O10B Zn3 1_555 1_555
C4 C5 1_555 1_555
C9 C10 1_555 1_555
Zn1 O5 1_555 1_555
Zn1 O6 1_555 1_555
Zn2 O4 1_555 1_555
O9 Zn3B 1_555 1_555

#END
