
#######################################################################
#
#                 Cambridge Crystallographic Data Centre
#                                CCDC 
#
#######################################################################
#
# If this CIF has been generated from an entry in the Cambridge 
# Structural Database, then it will include bibliographic, chemical, 
# crystal, experimental, refinement or atomic coordinate data resulting 
# from the CCDC's data processing and validation procedures.
#
#######################################################################

data_DEHYEV
_symmetry_cell_setting           orthorhombic
_symmetry_space_group_name_H-M   'P n a 21'
_symmetry_Int_Tables_number      33
_space_group_name_Hall           'P 2c -2n'
loop_
_symmetry_equiv_pos_site_id
_symmetry_equiv_pos_as_xyz
1 x,y,z
2 -x,-y,1/2+z
3 1/2+x,1/2-y,z
4 1/2-x,1/2+y,1/2+z
_cell_length_a                   9.5524(9)
_cell_length_b                   12.5921(12)
_cell_length_c                   5.1876(5)
_cell_angle_alpha                90
_cell_angle_beta                 90
_cell_angle_gamma                90
_cell_volume                     623.989
loop_
_atom_site_label
_atom_site_type_symbol
_atom_site_fract_x
_atom_site_fract_y
_atom_site_fract_z
Zn1 Zn 0.10731(3) 0.61520(2) 0.27072(14)
P1 P 0.30323(6) 0.99520(5) 0.2701(2)
O2 O 0.1369(3) 0.7579(2) 0.1365(7)
O3 O 0.4082(2) 0.9072(2) 0.2112(5)
C1 C 0.1018(3) 0.8387(2) 0.2703(16)
O4 O 0.2903(3) 1.0142(2) 0.5581(5)
O5 O 0.3358(3) 1.09804(19) 0.1280(5)
O6 O 0.0522(4) 0.8327(2) 0.4876(6)
C2 C 0.1371(3) 0.9460(3) 0.1563(8)
H1 H 0.0641 0.9963 0.2013
H2 H 0.1397 0.9403 -0.0301
Zn1B Zn 0.60731(3) 0.88480(2) 0.27072(14)
Zn1C Zn 0.39269(3) 1.11520(2) 0.77072(14)
Zn1C_2 Zn 0.39269(3) 1.11520(2) -0.22928(14)
O3B O -0.0918(2) 0.5928(2) 0.2112(5)
O4C O 0.2097(3) 0.5142(2) 0.0581(5)
O5C O 0.1642(3) 0.59804(19) 0.6280(5)
O1 O 0.3524(3) 0.7822(2) -0.2463(11)
H3 H 0.283(6) 0.717(5) -0.297(12)
H4 H 0.316(5) 0.858(4) -0.360(10)
H5 H 0.444(8) 0.753(6) -0.339(15)
loop_
_geom_bond_atom_site_label_1
_geom_bond_atom_site_label_2
_geom_bond_site_symmetry_1
_geom_bond_site_symmetry_2
Zn1 O2 1_555 1_555
P1 O3 1_555 1_555
O1 H3 1_555 1_555
O2 C1 1_555 1_555
O3 Zn1B 1_555 1_555
C1 O6 1_555 1_555
O4 P1 1_555 1_555
O5 P1 1_555 1_555
C2 P1 1_555 1_555
H1 C2 1_555 1_555
H2 C2 1_555 1_555
H4 O1 1_555 1_555
H5 O1 1_555 1_555
Zn1C O4 1_555 1_555
Zn1C_2 O5 1_555 1_555
O3B Zn1 1_555 1_555
O4C Zn1 1_555 1_555
O5C Zn1 1_555 1_555
C1 C2 1_555 1_555

#END
