
#######################################################################
#
#                 Cambridge Crystallographic Data Centre
#                                CCDC 
#
#######################################################################
#
# If this CIF has been generated from an entry in the Cambridge 
# Structural Database, then it will include bibliographic, chemical, 
# crystal, experimental, refinement or atomic coordinate data resulting 
# from the CCDC's data processing and validation procedures.
#
#######################################################################

data_DEHYEW
_symmetry_cell_setting           monoclinic
_symmetry_space_group_name_H-M   'P 21'
_symmetry_Int_Tables_number      4
_space_group_name_Hall           'P 2yb'
loop_
_symmetry_equiv_pos_site_id
_symmetry_equiv_pos_as_xyz
1 x,y,z
2 -x,1/2+y,-z
_cell_length_a                   8.3734(6)
_cell_length_b                   18.0404(13)
_cell_length_c                   13.7622(10)
_cell_angle_alpha                90
_cell_angle_beta                 95.5460(10)
_cell_angle_gamma                90
_cell_volume                     2069.18
loop_
_atom_site_label
_atom_site_type_symbol
_atom_site_fract_x
_atom_site_fract_y
_atom_site_fract_z
Cd1 Cd 0.77259(9) 0.05014(4) -0.21682(5)
Cd2 Cd 0.8535(2) 0.02140(7) 0.25850(12)
Cd3 Cd 0.61773(9) -0.00944(4) 0.01753(5)
Cd4 Cd 0.7033(2) -0.04828(7) 0.48679(14)
Cl1 Cl 0.7910(3) -0.10724(14) 0.33385(17)
Cl2 Cl 0.7920(3) 0.08040(15) 0.42332(19)
Cl3 Cl 0.9087(3) -0.03932(17) 0.09462(18)
Cl4 Cl 0.5732(3) 0.06178(15) 0.17548(18)
Cl5 Cl 0.6806(3) -0.07699(15) -0.14112(19)
Cl6 Cl 0.6804(3) 0.11609(14) -0.06920(18)
O1 O 0.6208(11) -0.1593(5) 0.5442(7)
O2 O 0.5261(10) -0.1171(5) 0.0826(6)
O3 O 0.9624(12) 0.1349(5) 0.2184(8)
C1 C 0.3870(12) -0.0522(6) 0.3109(7)
H1 H 0.4593 -0.0789 0.2749
C2 C 0.3351(12) 0.0077(5) 0.4500(8)
C3 C 0.3912(12) 0.0332(5) 0.5485(8)
C4 C 0.1778(12) 0.0221(6) 0.4112(7)
H2 H 0.1070 0.0481 0.4491
C5 C 0.2305(12) -0.0362(6) 0.2696(8)
H3 H 0.1990 -0.0511 0.2044
C6 C 1.0875(14) 0.0690(6) -0.0497(8)
H4 H 1.0184 0.1012 -0.0186
C7 C 1.1417(12) -0.0026(6) -0.1790(7)
C8 C 1.2498(14) 0.0535(7) -0.0034(8)
H5 H 1.2850 0.0746 0.0582
C9 C 1.2950(12) -0.0177(7) -0.1334(8)
H6 H 1.3637 -0.0491 -0.1659
C10 C 0.6184(15) -0.1701(6) 0.0949(9)
H7 H 0.7088 -0.1701 0.0581
C11 C 0.4747(14) -0.2314(6) 0.2153(9)
H8 H 0.5112 -0.2130 0.2807
H9 H 0.4403 -0.2831 0.2197
H10 H 0.3845 -0.2012 0.1873
C12 C 0.5380(15) -0.1701(6) 0.6106(9)
H11 H 0.4943 -0.1277 0.6393
C13 C 0.9321(14) 0.1668(6) -0.3550(8)
H12 H 1.0040 0.1274 -0.3651
C14 C 1.0448(16) 0.2307(7) -0.4872(10)
H13 H 1.1232 0.1903 -0.4800
H14 H 1.1012 0.2784 -0.4829
H15 H 0.9818 0.2267 -0.5508
C15 C 1.0825(12) -0.0351(6) -0.2718(7)
C16 C 0.8238(17) 0.2849(7) -0.4051(12)
H16 H 0.7875 0.2870 -0.3396
H17 H 0.7316 0.2759 -0.4532
H18 H 0.8744 0.3320 -0.4198
C17 C 0.573(2) -0.3027(7) 0.6079(16)
H19 H 0.5898 -0.2957 0.5389
H20 H 0.4999 -0.3443 0.6142
H21 H 0.6765 -0.3132 0.6452
C18 C 0.397(2) -0.2466(8) 0.7211(11)
H22 H 0.3676 -0.1988 0.7482
H23 H 0.4508 -0.2773 0.7731
H24 H 0.2996 -0.2720 0.6929
C19 C 0.885(3) 0.2901(10) 0.0682(16)
H25 H 0.9664 0.3107 0.0295
H26 H 0.8302 0.3306 0.0991
H27 H 0.8063 0.2619 0.0255
C20 C 1.093(3) 0.2748(13) 0.2103(19)
H28 H 1.0595 0.3231 0.2340
H29 H 1.1890 0.2811 0.1757
H30 H 1.1171 0.2413 0.2659
C21 C 0.7316(18) -0.2813(7) 0.1721(13)
H31 H 0.8221 -0.2679 0.1355
H32 H 0.6912 -0.3303 0.1511
H33 H 0.7672 -0.2825 0.2421
C22 C 0.9039(16) 0.1757(7) 0.1593(10)
H34 H 0.8095 0.1597 0.1211
N1 N 0.5389(10) 0.0143(5) 0.5878(6)
N2 N 0.4325(11) -0.0288(5) 0.4021(6)
N3 N 1.3478(11) 0.0091(5) -0.0489(7)
N4 N 0.1256(12) -0.0010(5) 0.3196(6)
N5 N 1.0387(10) 0.0390(5) -0.1328(6)
N6 N 0.9360(11) -0.0184(5) -0.3162(7)
N7 N 0.5514(11) 0.0486(5) 0.6747(7)
N8 N 0.9289(10) -0.0545(5) -0.4033(6)
N9 N 0.5035(13) -0.2345(5) 0.6459(8)
N10 N 0.6046(12) -0.2268(6) 0.1538(8)
N11 N 0.9593(18) 0.2424(7) 0.1416(11)
N12 N 0.9376(11) 0.2259(5) -0.4093(7)
N13 N 0.3101(11) 0.0757(5) 0.6057(7)
N14 N 0.4120(11) 0.0844(6) 0.6870(7)
N15 N 1.1619(10) -0.0791(5) -0.3283(7)
N16 N 1.0603(11) -0.0915(5) -0.4077(7)
O4 O 0.8378(9) 0.1587(4) -0.2905(5)
Cd1_2 Cd 0.77259(9) 0.05014(4) 0.78318(5)
Cd2_2 Cd -0.1465(2) 0.02140(7) 0.25850(12)
Cd3_2 Cd 1.61773(9) -0.00944(4) 0.01753(5)
Cd4_2 Cd 0.7033(2) -0.04828(7) -0.51321(14)
N3_2 N 0.3478(11) 0.0091(5) -0.0489(7)
N4_2 N 1.1256(12) -0.0010(5) 0.3196(6)
N7_2 N 0.5514(11) 0.0486(5) -0.3253(7)
N8_2 N 0.9289(10) -0.0545(5) 0.5967(6)
loop_
_geom_bond_atom_site_label_1
_geom_bond_atom_site_label_2
_geom_bond_site_symmetry_1
_geom_bond_site_symmetry_2
Cd1 Cl5 1_555 1_555
Cd2 Cl1 1_555 1_555
Cd3 Cl3 1_555 1_555
Cd4 Cl1 1_555 1_555
Cl2 Cd2 1_555 1_555
Cl3 Cd2 1_555 1_555
Cl4 Cd2 1_555 1_555
Cl5 Cd3 1_555 1_555
Cl6 Cd1 1_555 1_555
O1 Cd4 1_555 1_555
O2 Cd3 1_555 1_555
O3 Cd2 1_555 1_555
C1 H1 1_555 1_555
C2 C3 1_555 1_555
C3 N1 1_555 1_555
C4 C2 1_555 1_555
H2 C4 1_555 1_555
C5 C1 1_555 1_555
H3 C5 1_555 1_555
C6 H4 1_555 1_555
C7 C9 1_555 1_555
C8 C6 1_555 1_555
H5 C8 1_555 1_555
C9 H6 1_555 1_555
C10 O2 1_555 1_555
H7 C10 1_555 1_555
C11 H8 1_555 1_555
H9 C11 1_555 1_555
H10 C11 1_555 1_555
C12 O1 1_555 1_555
H11 C12 1_555 1_555
C13 H12 1_555 1_555
C14 H13 1_555 1_555
H14 C14 1_555 1_555
H15 C14 1_555 1_555
C15 C7 1_555 1_555
C16 H16 1_555 1_555
H17 C16 1_555 1_555
H18 C16 1_555 1_555
C17 H19 1_555 1_555
H20 C17 1_555 1_555
H21 C17 1_555 1_555
C18 H22 1_555 1_555
H23 C18 1_555 1_555
H24 C18 1_555 1_555
C19 H25 1_555 1_555
H26 C19 1_555 1_555
H27 C19 1_555 1_555
C20 H28 1_555 1_555
H29 C20 1_555 1_555
H30 C20 1_555 1_555
C21 H31 1_555 1_555
H32 C21 1_555 1_555
H33 C21 1_555 1_555
C22 O3 1_555 1_555
H34 C22 1_555 1_555
N1 Cd4 1_555 1_555
N2 Cd4 1_555 1_555
N3 C8 1_555 1_555
N4 C4 1_555 1_555
N5 Cd1 1_555 1_555
N6 Cd1 1_555 1_555
N7 N1 1_555 1_555
N8 N6 1_555 1_555
N9 C12 1_555 1_555
N10 C10 1_555 1_555
N11 C19 1_555 1_555
N12 C13 1_555 1_555
N13 C3 1_555 1_555
N14 N7 1_555 1_555
N15 C15 1_555 1_555
N16 N8 1_555 1_555
O4 Cd1 1_555 1_555
Cd1_2 N7 1_555 1_555
Cd2_2 N4 1_555 1_555
Cd3_2 N3 1_555 1_555
Cd4_2 N8 1_555 1_555
N3_2 Cd3 1_555 1_555
N4_2 Cd2 1_555 1_555
N7_2 Cd1 1_555 1_555
N8_2 Cd4 1_555 1_555
Cd3 Cl4 1_555 1_555
Cd3 Cl6 1_555 1_555
Cd4 Cl2 1_555 1_555
C1 N2 1_555 1_555
C2 N2 1_555 1_555
C5 N4 1_555 1_555
C6 N5 1_555 1_555
C7 N5 1_555 1_555
C9 N3 1_555 1_555
C11 N10 1_555 1_555
C13 O4 1_555 1_555
C14 N12 1_555 1_555
C15 N6 1_555 1_555
C16 N12 1_555 1_555
C17 N9 1_555 1_555
C18 N9 1_555 1_555
C20 N11 1_555 1_555
C21 N10 1_555 1_555
C22 N11 1_555 1_555
N13 N14 1_555 1_555
N15 N16 1_555 1_555

#END
