
#######################################################################
#
#                 Cambridge Crystallographic Data Centre
#                                CCDC 
#
#######################################################################
#
# If this CIF has been generated from an entry in the Cambridge 
# Structural Database, then it will include bibliographic, chemical, 
# crystal, experimental, refinement or atomic coordinate data resulting 
# from the CCDC's data processing and validation procedures.
#
#######################################################################

data_DEHZIB
_symmetry_cell_setting           triclinic
_symmetry_space_group_name_H-M   'P -1'
_symmetry_Int_Tables_number      2
_space_group_name_Hall           '-P 1'
loop_
_symmetry_equiv_pos_site_id
_symmetry_equiv_pos_as_xyz
1 x,y,z
2 -x,-y,-z
_cell_length_a                   8.1654(11)
_cell_length_b                   10.1808(14)
_cell_length_c                   14.741(2)
_cell_angle_alpha                109.260(2)
_cell_angle_beta                 97.079(2)
_cell_angle_gamma                99.826(2)
_cell_volume                     1118.44
loop_
_atom_site_label
_atom_site_type_symbol
_atom_site_fract_x
_atom_site_fract_y
_atom_site_fract_z
Cu1 Cu 0.04380(10) 0.21945(8) 0.40647(5)
Gd1 Gd 0.13263(4) 0.64010(3) 0.22599(2)
N1 N 0.1715(6) 0.4187(5) 0.4466(4)
N2 N -0.0121(7) 0.2348(6) 0.2815(4)
N3 N -0.1050(7) 0.0198(6) 0.3376(4)
H1 H -0.0408 -0.0436 0.3166
H2 H -0.1644 -0.0060 0.3788
O1 O 0.0388(6) 0.3947(5) 0.2024(3)
O2 O 0.2158(6) 0.5875(5) 0.3707(3)
O3 O 0.6778(6) 0.8609(5) 0.6024(3)
O4 O 0.6619(8) 0.9214(6) 0.7585(4)
O5 O 0.0941(5) 0.3176(5) 0.6960(3)
O6 O 0.0512(6) 0.2202(5) 0.5368(3)
O7 O 0.1996(6) 0.5337(6) 0.0685(3)
O8 O 0.1105(6) 0.4389(5) -0.0936(3)
O9 O 0.2420(6) 0.8648(5) 0.3740(3)
H3 H 0.1757 0.8336 0.4061
H4 H 0.2163 0.9404 0.3697
O10 O 0.4271(6) 0.6884(7) 0.2356(4)
H5 H 0.4896 0.6564 0.1954
H6 H 0.4915 0.7443 0.2891
O11 O 0.1121(6) 0.8374(5) 0.1761(3)
H7 H 0.1760 0.9193 0.2087
H8 H 0.0799 0.8349 0.1184
C1 C 0.0515(8) 0.3551(7) 0.2757(5)
C2 C 0.1575(8) 0.4660(6) 0.3722(4)
C3 C 0.2689(7) 0.5002(7) 0.5404(4)
C4 C 0.3927(8) 0.6249(7) 0.5597(5)
H9 H 0.4111 0.6566 0.5087
C5 C 0.4883(8) 0.7020(7) 0.6524(4)
C6 C 0.6187(8) 0.8379(7) 0.6725(5)
C7 C 0.4619(9) 0.6566(8) 0.7287(5)
H10 H 0.5247 0.7087 0.7913
C8 C 0.3434(9) 0.5351(7) 0.7123(5)
H11 H 0.3270 0.5058 0.7646
C9 C 0.2462(7) 0.4535(7) 0.6197(4)
C10 C 0.1226(8) 0.3236(7) 0.6158(4)
C11 C -0.2210(10) 0.0234(9) 0.2536(6)
H12 H -0.3137 0.0651 0.2760
H13 H -0.2680 -0.0728 0.2071
C12 C -0.1214(10) 0.1133(8) 0.2040(5)
H14 H -0.0550 0.0579 0.1627
H15 H -0.1983 0.1441 0.1639
C13 C 0.0893(8) 0.4922(7) -0.0065(5)
Cu1A Cu -0.04380(10) 0.78055(8) 0.59353(5)
Gd1A Gd -0.13263(4) 0.35990(3) 0.77401(2)
Gd1A_2 Gd -0.13263(4) 0.35990(3) -0.22599(2)
N1A N -0.1715(6) 0.5813(5) 0.5534(4)
N2A N 0.0121(7) 0.7652(6) 0.7185(4)
N3A N 0.1050(7) 0.9802(6) 0.6624(4)
H1A H 0.0408 1.0436 0.6834
H2A H 0.1644 1.0060 0.6212
O1A O -0.0388(6) 0.6053(5) 0.7976(3)
O2A O -0.2158(6) 0.4125(5) 0.6293(3)
O3A O -0.6778(6) 0.1391(5) 0.3976(3)
O4A O -0.6619(8) 0.0786(6) 0.2415(4)
O5A O -0.0941(5) 0.6824(5) 0.3040(3)
O6A O -0.0512(6) 0.7798(5) 0.4632(3)
O7A O -0.1996(6) 0.4663(6) -0.0685(3)
O7A_2 O -0.1996(6) 0.4663(6) 0.9315(3)
O8A O -0.1105(6) 0.5611(5) 0.0936(3)
O8_2 O 0.1105(6) 0.4389(5) 0.9064(3)
O9A O -0.2420(6) 0.1352(5) 0.6260(3)
H3A H -0.1757 0.1664 0.5939
H4A H -0.2163 0.0596 0.6303
O10A O -0.4271(6) 0.3116(7) 0.7644(4)
H5A H -0.4896 0.3436 0.8046
H6A H -0.4915 0.2557 0.7109
O11A O -0.1121(6) 0.1626(5) 0.8239(3)
H7A H -0.1760 0.0807 0.7913
H8A H -0.0799 0.1651 0.8816
C1A C -0.0515(8) 0.6449(7) 0.7243(5)
C2A C -0.1575(8) 0.5340(6) 0.6278(4)
C3A C -0.2689(7) 0.4998(7) 0.4596(4)
C4A C -0.3927(8) 0.3751(7) 0.4403(5)
H9A H -0.4111 0.3434 0.4913
C5A C -0.4883(8) 0.2980(7) 0.3476(4)
C6A C -0.6187(8) 0.1621(7) 0.3275(5)
C7A C -0.4619(9) 0.3434(8) 0.2713(5)
H10A H -0.5247 0.2913 0.2087
C8A C -0.3434(9) 0.4649(7) 0.2877(5)
H11A H -0.3270 0.4942 0.2354
C9A C -0.2462(7) 0.5465(7) 0.3803(4)
C10A C -0.1226(8) 0.6764(7) 0.3842(4)
C11A C 0.2210(10) 0.9766(9) 0.7464(6)
H12A H 0.3137 0.9349 0.7240
H13A H 0.2680 1.0728 0.7929
C12A C 0.1214(10) 0.8867(8) 0.7960(5)
H14A H 0.0550 0.9421 0.8373
H15A H 0.1983 0.8559 0.8361
C13A C -0.0893(8) 0.5078(7) 0.0065(5)
O12 O 0.9987(12) 0.1887(8) 0.0115(5)
H16 H 1.0530 0.2677 0.0114
H17 H 0.9348 0.2073 0.0533
O13 O 0.7150(19) 0.9492(16) 0.9554(9)
H18 H 0.7163 0.8628 0.9473
H19 H 0.7186 0.9595 0.9007
O14 O 0.3979(7) 0.1261(6) 0.5835(4)
H20 H 0.3960 0.1803 0.5503
H21 H 0.4950 0.1064 0.5873
O15 O 0.4209(8) 0.3671(9) 0.9165(5)
H22 H 0.3355 0.4031 0.9102
H23 H 0.4334 0.3602 0.9728
loop_
_geom_bond_atom_site_label_1
_geom_bond_atom_site_label_2
_geom_bond_site_symmetry_1
_geom_bond_site_symmetry_2
Cu1 N1 1_555 1_555
Gd1 O1 1_555 1_555
N1 C2 1_555 1_555
N2 Cu1 1_555 1_555
N3 Cu1 1_555 1_555
H1 N3 1_555 1_555
H2 N3 1_555 1_555
O1 C1 1_555 1_555
O2 Gd1 1_555 1_555
O3 C6 1_555 1_555
O4 C6 1_555 1_555
O5 C10 1_555 1_555
O6 Cu1 1_555 1_555
O7 Gd1 1_555 1_555
O8 C13 1_555 1_555
O9 Gd1 1_555 1_555
H3 O9 1_555 1_555
H4 O9 1_555 1_555
O10 Gd1 1_555 1_555
H5 O10 1_555 1_555
H6 O10 1_555 1_555
O11 Gd1 1_555 1_555
H7 O11 1_555 1_555
H8 O11 1_555 1_555
C1 N2 1_555 1_555
C2 O2 1_555 1_555
C3 N1 1_555 1_555
C4 C3 1_555 1_555
H9 C4 1_555 1_555
C5 C4 1_555 1_555
C6 C5 1_555 1_555
C7 C5 1_555 1_555
H10 C7 1_555 1_555
C8 C7 1_555 1_555
H11 C8 1_555 1_555
C9 C3 1_555 1_555
C10 O6 1_555 1_555
C11 N3 1_555 1_555
H12 C11 1_555 1_555
H13 C11 1_555 1_555
C12 N2 1_555 1_555
H14 C12 1_555 1_555
H15 C12 1_555 1_555
C13 O7 1_555 1_555
O12 H16 1_555 1_555
H17 O12 1_555 1_555
O13 H18 1_555 1_555
H19 O13 1_555 1_555
O14 H20 1_555 1_555
H21 O14 1_555 1_555
O15 H22 1_555 1_555
H23 O15 1_555 1_555
Cu1A N1A 1_555 1_555
Gd1A O5 1_555 1_555
Gd1A_2 O8 1_555 1_555
N1A C2A 1_555 1_555
N2A Cu1A 1_555 1_555
N3A Cu1A 1_555 1_555
H1A N3A 1_555 1_555
H2A N3A 1_555 1_555
O1A Gd1A 1_555 1_555
O2A Gd1A 1_555 1_555
O3A C6A 1_555 1_555
O4A C6A 1_555 1_555
O5A Gd1 1_555 1_555
O6A Cu1A 1_555 1_555
O7A Gd1A_2 1_555 1_555
O7A_2 Gd1A 1_555 1_555
O8A Gd1 1_555 1_555
O8_2 Gd1A 1_555 1_555
O9A Gd1A 1_555 1_555
H3A O9A 1_555 1_555
H4A O9A 1_555 1_555
O10A Gd1A 1_555 1_555
H5A O10A 1_555 1_555
H6A O10A 1_555 1_555
O11A Gd1A 1_555 1_555
H7A O11A 1_555 1_555
H8A O11A 1_555 1_555
C1A N2A 1_555 1_555
C2A O2A 1_555 1_555
C3A N1A 1_555 1_555
C4A C3A 1_555 1_555
H9A C4A 1_555 1_555
C5A C4A 1_555 1_555
C6A C5A 1_555 1_555
C7A C5A 1_555 1_555
H10A C7A 1_555 1_555
C8A C7A 1_555 1_555
H11A C8A 1_555 1_555
C9A C3A 1_555 1_555
C10A O5A 1_555 1_555
C11A N3A 1_555 1_555
H12A C11A 1_555 1_555
H13A C11A 1_555 1_555
C12A N2A 1_555 1_555
H14A C12A 1_555 1_555
H15A C12A 1_555 1_555
C13A C13 1_555 1_555
C1 C2 1_555 1_555
C8 C9 1_555 1_555
C9 C10 1_555 1_555
C11 C12 1_555 1_555
O1A C1A 1_555 1_555
O6A C10A 1_555 1_555
O7A C13A 1_555 1_555
O8A C13A 1_555 1_555
C1A C2A 1_555 1_555
C8A C9A 1_555 1_555
C9A C10A 1_555 1_555
C11A C12A 1_555 1_555

#END
