
#######################################################################
#
#                 Cambridge Crystallographic Data Centre
#                                CCDC 
#
#######################################################################
#
# If this CIF has been generated from an entry in the Cambridge 
# Structural Database, then it will include bibliographic, chemical, 
# crystal, experimental, refinement or atomic coordinate data resulting 
# from the CCDC's data processing and validation procedures.
#
#######################################################################

data_DEJCEB
_symmetry_cell_setting           orthorhombic
_symmetry_space_group_name_H-M   'P b c a'
_symmetry_Int_Tables_number      61
_space_group_name_Hall           '-P 2ac 2ab'
loop_
_symmetry_equiv_pos_site_id
_symmetry_equiv_pos_as_xyz
1 x,y,z
2 1/2-x,-y,1/2+z
3 -x,1/2+y,1/2-z
4 1/2+x,1/2-y,-z
5 -x,-y,-z
6 1/2+x,y,1/2-z
7 x,1/2-y,1/2+z
8 1/2-x,1/2+y,z
_cell_length_a                   14.040(3)
_cell_length_b                   14.345(3)
_cell_length_c                   27.756(5)
_cell_angle_alpha                90
_cell_angle_beta                 90
_cell_angle_gamma                90
_cell_volume                     5590.16
loop_
_atom_site_label
_atom_site_type_symbol
_atom_site_fract_x
_atom_site_fract_y
_atom_site_fract_z
Zn1 Zn 0.28628(9) 0.40884(8) 0.59779(4)
Zn2 Zn 0.28739(8) 0.01077(8) 0.34721(4)
N1 N 0.2966(6) 0.1090(6) 0.3998(3)
N2 N 0.6695(6) 0.4649(5) 0.6933(3)
N3 N 0.1720(7) 0.4995(6) 0.5998(3)
N4 N 0.1525(6) 0.2360(6) 0.7041(3)
N5 N 0.4294(6) 0.6180(6) 0.5104(3)
O1 O 0.3100(5) 0.3191(5) 0.5449(2)
O2 O 0.1994(6) 0.3805(5) 0.4952(2)
O3 O 0.2140(5) 0.3839(4) 0.3710(3)
O4 O 0.3412(5) 0.4262(5) 0.4144(3)
O5 O 0.3993(5) 0.4967(5) 0.8068(2)
O6 O 0.3707(5) 0.3560(5) 0.7747(2)
O7 O 0.3417(5) 0.4842(5) 0.6837(2)
O8 O 0.4042(5) 0.3790(4) 0.6351(2)
O9 O 0.1983(5) 0.3128(5) 0.6370(3)
O10 O 0.3658(5) 0.5245(5) 0.5681(3)
C1 C 0.2988(7) 0.0880(7) 0.4470(4)
H1 H 0.3031 0.0246 0.4566
C2 C 0.2952(7) 0.1561(7) 0.4817(4)
H2 H 0.3002 0.1398 0.5148
C3 C 0.2841(7) 0.2497(7) 0.4684(4)
C4 C 0.2864(7) 0.2700(7) 0.4198(4)
C5 C 0.2933(7) 0.1986(7) 0.3870(4)
H3 H 0.2959 0.2137 0.3537
C6 C 0.2639(8) 0.3242(7) 0.5055(4)
C7 C 0.2811(9) 0.3691(7) 0.4012(4)
C8 C 0.6718(8) 0.4676(7) 0.7419(4)
H4 H 0.7313 0.4771 0.7575
C9 C 0.5926(8) 0.4572(7) 0.7693(4)
H5 H 0.5973 0.4588 0.8034
C10 C 0.5038(7) 0.4442(6) 0.7473(4)
C11 C 0.5012(7) 0.4398(7) 0.6974(3)
C12 C 0.5828(7) 0.4508(6) 0.6716(4)
H6 H 0.5797 0.4486 0.6375
C13 C 0.4170(8) 0.4267(8) 0.7789(4)
C14 C 0.4087(8) 0.4326(7) 0.6703(4)
C15 C 0.1792(8) 0.5832(7) 0.6212(4)
H7 H 0.2372 0.5983 0.6370
C16 C 0.1094(8) 0.6465(7) 0.6215(4)
H8 H 0.1182 0.7052 0.6367
C17 C 0.0240(9) 0.6251(9) 0.5992(5)
H9 H -0.0276 0.6679 0.6000
C18 C 0.0148(9) 0.5412(8) 0.5760(5)
H10 H -0.0422 0.5253 0.5594
C19 C 0.0908(9) 0.4808(8) 0.5775(4)
H11 H 0.0848 0.4224 0.5617
C20 C 0.2125(7) 0.2863(7) 0.6789(4)
H12 H 0.2708 0.3037 0.6938
C21 C 0.0613(8) 0.2088(8) 0.6844(4)
H13 H 0.0562 0.2309 0.6511
H14 H 0.0101 0.2364 0.7038
H15 H 0.0556 0.1407 0.6851
C22 C 0.1724(10) 0.2094(8) 0.7540(4)
H16 H 0.2360 0.2315 0.7631
H17 H 0.1699 0.1413 0.7570
H18 H 0.1248 0.2375 0.7753
C23 C 0.3880(8) 0.5406(8) 0.5260(5)
H19 H 0.3745 0.4937 0.5028
C24 C 0.4517(8) 0.6314(8) 0.4602(4)
H20 H 0.4360 0.5746 0.4422
H21 H 0.5197 0.6450 0.4567
H22 H 0.4144 0.6837 0.4475
C25 C 0.4459(8) 0.6916(7) 0.5453(4)
H23 H 0.4269 0.6701 0.5774
H24 H 0.4084 0.7466 0.5365
H25 H 0.5137 0.7079 0.5455
Zn2C Zn 0.78739(8) 0.48923(8) 0.65279(4)
Zn2G Zn 0.21261(8) 0.51077(8) 0.34721(4)
Zn2F Zn 0.28739(8) 0.48923(8) 0.84721(4)
N2C N 0.1695(6) 0.0351(5) 0.3067(3)
O3G O 0.2860(5) -0.1161(4) 0.3710(3)
O5F O 0.3993(5) 0.0033(5) 0.3068(2)
loop_
_geom_bond_atom_site_label_1
_geom_bond_atom_site_label_2
_geom_bond_site_symmetry_1
_geom_bond_site_symmetry_2
Zn1 N3 1_555 1_555
Zn2 N1 1_555 1_555
N1 C1 1_555 1_555
N2 C8 1_555 1_555
N3 C15 1_555 1_555
N4 C20 1_555 1_555
N5 C23 1_555 1_555
O1 Zn1 1_555 1_555
O2 C6 1_555 1_555
O3 C7 1_555 1_555
O4 C7 1_555 1_555
O5 C13 1_555 1_555
O6 C13 1_555 1_555
O7 C14 1_555 1_555
O8 Zn1 1_555 1_555
O9 Zn1 1_555 1_555
O10 Zn1 1_555 1_555
C1 H1 1_555 1_555
C2 C1 1_555 1_555
H2 C2 1_555 1_555
C3 C2 1_555 1_555
C4 C3 1_555 1_555
C5 N1 1_555 1_555
H3 C5 1_555 1_555
C6 O1 1_555 1_555
C7 C4 1_555 1_555
C8 H4 1_555 1_555
C9 C8 1_555 1_555
H5 C9 1_555 1_555
C10 C9 1_555 1_555
C11 C10 1_555 1_555
C12 N2 1_555 1_555
H6 C12 1_555 1_555
C13 C10 1_555 1_555
C14 O8 1_555 1_555
C15 H7 1_555 1_555
C16 C15 1_555 1_555
H8 C16 1_555 1_555
C17 C16 1_555 1_555
H9 C17 1_555 1_555
C18 C17 1_555 1_555
H10 C18 1_555 1_555
C19 N3 1_555 1_555
H11 C19 1_555 1_555
C20 O9 1_555 1_555
H12 C20 1_555 1_555
C21 N4 1_555 1_555
H13 C21 1_555 1_555
H14 C21 1_555 1_555
H15 C21 1_555 1_555
C22 N4 1_555 1_555
H16 C22 1_555 1_555
H17 C22 1_555 1_555
H18 C22 1_555 1_555
C23 O10 1_555 1_555
H19 C23 1_555 1_555
C24 N5 1_555 1_555
H20 C24 1_555 1_555
H21 C24 1_555 1_555
H22 C24 1_555 1_555
C25 N5 1_555 1_555
H23 C25 1_555 1_555
H24 C25 1_555 1_555
H25 C25 1_555 1_555
Zn2C N2 1_555 1_555
Zn2G O3 1_555 1_555
Zn2F O5 1_555 1_555
N2C Zn2 1_555 1_555
O3G Zn2 1_555 1_555
O5F Zn2 1_555 1_555
C3 C6 1_555 1_555
C4 C5 1_555 1_555
C11 C12 1_555 1_555
C11 C14 1_555 1_555
C18 C19 1_555 1_555

#END
