
#######################################################################
#
#                 Cambridge Crystallographic Data Centre
#                                CCDC 
#
#######################################################################
#
# If this CIF has been generated from an entry in the Cambridge 
# Structural Database, then it will include bibliographic, chemical, 
# crystal, experimental, refinement or atomic coordinate data resulting 
# from the CCDC's data processing and validation procedures.
#
#######################################################################

data_DEJGOP
_symmetry_cell_setting           monoclinic
_symmetry_space_group_name_H-M   'P 21'
_symmetry_Int_Tables_number      4
_space_group_name_Hall           'P 2yb'
loop_
_symmetry_equiv_pos_site_id
_symmetry_equiv_pos_as_xyz
1 x,y,z
2 -x,1/2+y,-z
_cell_length_a                   6.9991(16)
_cell_length_b                   18.333(4)
_cell_length_c                   8.3381(18)
_cell_angle_alpha                90
_cell_angle_beta                 112.652(4)
_cell_angle_gamma                90
_cell_volume                     987.368
loop_
_atom_site_label
_atom_site_type_symbol
_atom_site_fract_x
_atom_site_fract_y
_atom_site_fract_z
Cu1 Cu 0.67311(18) 0.79075(7) 0.35853(19)
Cu2 Cu 0.0881(2) 0.51103(7) 0.29049(15)
N1 N 0.6400(11) 0.7128(5) 0.5659(10)
N2 N 0.2985(10) 0.5985(4) 0.2186(9)
N3 N 0.0195(11) 0.4980(4) 0.0340(9)
N4 N 0.2376(10) 0.6646(4) -0.0425(9)
N5 N 0.5192(11) 0.8312(4) 0.0625(11)
N6 N 0.4425(9) 0.7163(4) 0.2222(8)
N7 N 0.9085(18) 0.5919(6) 0.3173(13)
N8 N 0.7342(14) 0.8822(6) 0.4770(12)
S1 S 0.9698(4) 0.74480(18) 0.3234(4)
C1 C 0.7282(15) 0.7184(7) 0.7352(13)
H1 H 0.8171 0.7572 0.7842
C2 C 0.6907(16) 0.6666(8) 0.8444(12)
H2 H 0.7522 0.6719 0.9645
C3 C 0.5668(15) 0.6101(8) 0.7751(13)
H3 H 0.5441 0.5751 0.8465
C4 C 0.4731(14) 0.6037(6) 0.5986(13)
H4 H 0.3862 0.5646 0.5483
C5 C 0.5106(11) 0.6573(5) 0.4956(10)
C6 C 0.4140(11) 0.6568(5) 0.3024(10)
C7 C 0.2140(12) 0.6068(5) 0.0462(10)
C8 C 0.0817(13) 0.5466(5) -0.0580(11)
C9 C -0.0998(16) 0.4420(6) -0.0565(14)
H5 H -0.1429 0.4072 0.0035
C10 C -0.1603(17) 0.4343(7) -0.2341(16)
H6 H -0.2419 0.3951 -0.2923
C11 C -0.0976(14) 0.4857(7) -0.3225(12)
H7 H -0.1389 0.4824 -0.4425
C12 C 0.0230(14) 0.5403(6) -0.2355(11)
H8 H 0.0683 0.5747 -0.2950
C13 C 0.3530(10) 0.7179(5) 0.0536(10)
C14 C 0.3848(11) 0.7829(5) -0.0385(11)
C15 C 0.2840(14) 0.7919(7) -0.2176(11)
H9 H 0.1913 0.7571 -0.2852
C16 C 0.3257(18) 0.8534(7) -0.2905(15)
H10 H 0.2584 0.8613 -0.4094
C17 C 0.4650(17) 0.9034(7) -0.1907(15)
H11 H 0.4977 0.9446 -0.2404
C18 C 0.5562(16) 0.8914(6) -0.0140(15)
H12 H 0.6472 0.9262 0.0554
C19 C 0.9331(13) 0.6574(6) 0.3240(11)
C20 C 0.7945(15) 0.9337(5) 0.5576(11)
Cu2_2 Cu 1.0881(2) 0.51103(7) 0.29049(15)
Cu2A Cu 0.9119(2) 1.01103(7) 0.70951(15)
N7_2 N -0.0915(18) 0.5919(6) 0.3173(13)
C20A C 0.2055(15) 0.4337(5) 0.4424(11)
loop_
_geom_bond_atom_site_label_1
_geom_bond_atom_site_label_2
_geom_bond_site_symmetry_1
_geom_bond_site_symmetry_2
Cu1 N1 1_555 1_555
Cu2 N2 1_555 1_555
N1 C1 1_555 1_555
N2 C6 1_555 1_555
N3 Cu2 1_555 1_555
N4 C7 1_555 1_555
N5 Cu1 1_555 1_555
N6 Cu1 1_555 1_555
N7 C19 1_555 1_555
N8 Cu1 1_555 1_555
S1 Cu1 1_555 1_555
C1 H1 1_555 1_555
C2 C1 1_555 1_555
H2 C2 1_555 1_555
C3 C2 1_555 1_555
H3 C3 1_555 1_555
C4 C3 1_555 1_555
H4 C4 1_555 1_555
C5 N1 1_555 1_555
C6 N6 1_555 1_555
C7 N2 1_555 1_555
C8 N3 1_555 1_555
C9 N3 1_555 1_555
H5 C9 1_555 1_555
C10 C9 1_555 1_555
H6 C10 1_555 1_555
C11 C10 1_555 1_555
H7 C11 1_555 1_555
C12 C8 1_555 1_555
H8 C12 1_555 1_555
C13 N4 1_555 1_555
C14 N5 1_555 1_555
C15 C14 1_555 1_555
H9 C15 1_555 1_555
C16 C15 1_555 1_555
H10 C16 1_555 1_555
C17 C16 1_555 1_555
H11 C17 1_555 1_555
C18 N5 1_555 1_555
H12 C18 1_555 1_555
C19 S1 1_555 1_555
C20 N8 1_555 1_555
Cu2_2 N7 1_555 1_555
Cu2A C20 1_555 1_555
N7_2 Cu2 1_555 1_555
C20A Cu2 1_555 1_555
N6 C13 1_555 1_555
C4 C5 1_555 1_555
C5 C6 1_555 1_555
C7 C8 1_555 1_555
C11 C12 1_555 1_555
C13 C14 1_555 1_555
C17 C18 1_555 1_555

#END
