
#######################################################################
#
#                 Cambridge Crystallographic Data Centre
#                                CCDC 
#
#######################################################################
#
# If this CIF has been generated from an entry in the Cambridge 
# Structural Database, then it will include bibliographic, chemical, 
# crystal, experimental, refinement or atomic coordinate data resulting 
# from the CCDC's data processing and validation procedures.
#
#######################################################################

data_DEJGIJ
_symmetry_cell_setting           orthorhombic
_symmetry_space_group_name_H-M   'P 21 21 21'
_symmetry_Int_Tables_number      19
_space_group_name_Hall           'P 2ac 2ab'
loop_
_symmetry_equiv_pos_site_id
_symmetry_equiv_pos_as_xyz
1 x,y,z
2 1/2-x,-y,1/2+z
3 -x,1/2+y,1/2-z
4 1/2+x,1/2-y,-z
_cell_length_a                   8.4743(5)
_cell_length_b                   13.1830(8)
_cell_length_c                   17.4013(11)
_cell_angle_alpha                90
_cell_angle_beta                 90
_cell_angle_gamma                90
_cell_volume                     1944.02
loop_
_atom_site_label
_atom_site_type_symbol
_atom_site_fract_x
_atom_site_fract_y
_atom_site_fract_z
Cu1 Cu 0.79028(6) 0.62608(3) 0.78769(2)
Cu2 Cu 1.05821(5) 1.02010(3) 0.97525(2)
N1 N 1.0357(3) 0.67082(19) 0.83708(15)
N2 N 0.7822(3) 0.78618(17) 0.82678(12)
N3 N 0.5508(3) 0.71688(17) 0.73730(12)
N4 N 0.6177(3) 0.91732(18) 0.87215(13)
N5 N 0.8750(3) 0.89641(17) 0.92337(11)
N6 N 0.8308(3) 1.06928(18) 1.00664(13)
N7 N 0.6593(3) 0.5254(2) 0.93108(15)
N8 N 0.8467(4) 0.5818(2) 0.68526(16)
C1 C 1.1631(4) 0.6130(3) 0.8366(2)
H1 H 1.1605 0.5537 0.8077
C2 C 1.2966(4) 0.6344(3) 0.8755(2)
H2 H 1.3833 0.5913 0.8729
C3 C 1.3019(4) 0.7212(3) 0.9188(2)
H3 H 1.3926 0.7379 0.9460
C4 C 1.1697(4) 0.7842(3) 0.92153(18)
H4 H 1.1692 0.8429 0.9511
C5 C 1.0397(3) 0.7560(2) 0.87868(15)
C6 C 0.8929(3) 0.8170(2) 0.87577(14)
C7 C 0.7344(3) 0.94207(19) 0.91988(14)
C8 C 0.7027(4) 1.0259(2) 0.97511(14)
C9 C 0.8051(5) 1.1427(3) 1.05787(19)
H5 H 0.8920 1.1745 1.0799
C10 C 0.6560(6) 1.1744(3) 1.0802(2)
H6 H 0.6435 1.2254 1.1165
C11 C 0.5283(5) 1.1290(3) 1.0475(2)
H7 H 0.4269 1.1484 1.0617
C12 C 0.5504(4) 1.0533(2) 0.99294(17)
H8 H 0.4649 1.0222 0.9692
C13 C 0.6489(3) 0.8393(2) 0.82573(15)
C14 C 0.5236(3) 0.8065(2) 0.77110(14)
C15 C 0.3896(4) 0.8629(2) 0.75865(17)
H9 H 0.3759 0.9254 0.7826
C16 C 0.2765(4) 0.8250(3) 0.71013(19)
H10 H 0.1842 0.8612 0.7009
C17 C 0.3015(4) 0.7328(3) 0.67533(18)
H11 H 0.2261 0.7052 0.6426
C18 C 0.4404(4) 0.6820(2) 0.68990(17)
H12 H 0.4578 0.6203 0.6654
C19 C 0.7075(4) 0.5579(2) 0.87649(15)
C20 C 0.8782(4) 0.5612(2) 0.62427(15)
Cu2C Cu 0.55821(5) 0.47990(3) 1.02475(2)
Cu2B Cu 0.94179(5) 0.52010(3) 0.52475(2)
N7C N 1.1593(3) 0.9746(2) 1.06892(15)
C20B C 1.1218(4) 1.0612(2) 0.87573(15)
loop_
_geom_bond_atom_site_label_1
_geom_bond_atom_site_label_2
_geom_bond_site_symmetry_1
_geom_bond_site_symmetry_2
Cu1 N1 1_555 1_555
Cu2 N5 1_555 1_555
N1 C1 1_555 1_555
N2 Cu1 1_555 1_555
N3 C14 1_555 1_555
N4 C7 1_555 1_555
N5 C6 1_555 1_555
N6 Cu2 1_555 1_555
N7 C19 1_555 1_555
N8 Cu1 1_555 1_555
C1 H1 1_555 1_555
C2 C1 1_555 1_555
H2 C2 1_555 1_555
C3 C2 1_555 1_555
H3 C3 1_555 1_555
C4 C3 1_555 1_555
H4 C4 1_555 1_555
C5 N1 1_555 1_555
C6 N2 1_555 1_555
C7 N5 1_555 1_555
C8 N6 1_555 1_555
C9 N6 1_555 1_555
H5 C9 1_555 1_555
C10 C9 1_555 1_555
H6 C10 1_555 1_555
C11 C10 1_555 1_555
H7 C11 1_555 1_555
C12 C8 1_555 1_555
H8 C12 1_555 1_555
C13 N2 1_555 1_555
C14 C13 1_555 1_555
C15 C14 1_555 1_555
H9 C15 1_555 1_555
C16 C15 1_555 1_555
H10 C16 1_555 1_555
C17 C16 1_555 1_555
H11 C17 1_555 1_555
C18 N3 1_555 1_555
H12 C18 1_555 1_555
C19 Cu1 1_555 1_555
C20 N8 1_555 1_555
Cu2C N7 1_555 1_555
Cu2B C20 1_555 1_555
N7C Cu2 1_555 1_555
C20B Cu2 1_555 1_555
N4 C13 1_555 1_555
C4 C5 1_555 1_555
C5 C6 1_555 1_555
C7 C8 1_555 1_555
C11 C12 1_555 1_555
C17 C18 1_555 1_555

#END
