
#######################################################################
#
#                 Cambridge Crystallographic Data Centre
#                                CCDC 
#
#######################################################################
#
# If this CIF has been generated from an entry in the Cambridge 
# Structural Database, then it will include bibliographic, chemical, 
# crystal, experimental, refinement or atomic coordinate data resulting 
# from the CCDC's data processing and validation procedures.
#
#######################################################################

data_DEJGUV
_symmetry_cell_setting           triclinic
_symmetry_space_group_name_H-M   'P -1'
_symmetry_Int_Tables_number      2
_space_group_name_Hall           '-P 1'
loop_
_symmetry_equiv_pos_site_id
_symmetry_equiv_pos_as_xyz
1 x,y,z
2 -x,-y,-z
_cell_length_a                   3.814(3)
_cell_length_b                   16.187(11)
_cell_length_c                   17.468(12)
_cell_angle_alpha                113.292(10)
_cell_angle_beta                 92.875(12)
_cell_angle_gamma                95.627(11)
_cell_volume                     981.086
loop_
_atom_site_label
_atom_site_type_symbol
_atom_site_fract_x
_atom_site_fract_y
_atom_site_fract_z
Cu1 Cu 0.5009(2) 0.52917(5) 0.18092(5)
Cu2 Cu -0.1596(2) 0.16385(5) 0.06574(5)
N1 N 0.5646(13) 0.6702(3) 0.1681(3)
N2 N 0.4270(12) 0.6295(3) 0.2968(3)
N3 N 0.4481(13) 0.4577(3) 0.2749(3)
N4 N 0.2393(13) 0.6658(3) 0.4317(3)
N5 N 0.1724(16) 0.7986(4) 0.5862(3)
N6 N 0.3010(14) 0.7780(3) 0.3758(3)
N7 N -0.1037(14) 0.2891(3) 0.0822(3)
N8 N -0.2290(14) 0.0589(4) -0.0438(3)
S1 S -0.0483(4) 0.47179(9) 0.10180(9)
S2 S -0.3399(4) -0.13020(10) -0.13736(9)
C1 C 0.6396(17) 0.6885(4) 0.1027(4)
H1 H 0.6973 0.6416 0.0552
C2 C 0.6370(16) 0.7730(4) 0.1010(4)
H2 H 0.6944 0.7827 0.0539
C3 C 0.5476(18) 0.8423(4) 0.1705(4)
H3 H 0.5379 0.8997 0.1710
C4 C 0.4721(16) 0.8246(4) 0.2399(4)
H4 H 0.4163 0.8705 0.2883
C5 C 0.4806(14) 0.7392(4) 0.2362(3)
C6 C 0.3979(15) 0.7148(4) 0.3072(3)
C7 C 0.2316(16) 0.7505(4) 0.4374(3)
C8 C 0.1435(16) 0.8188(4) 0.5174(4)
C9 C 0.046(2) 0.8985(4) 0.5208(4)
H5 H 0.0295 0.9108 0.4731
C10 C -0.025(3) 0.9595(5) 0.5959(5)
H6 H -0.0939 1.0143 0.5992
C11 C 0.000(2) 0.9433(5) 0.6660(4)
H7 H -0.0505 0.9861 0.7170
C12 C 0.0995(19) 0.8630(5) 0.6599(4)
H8 H 0.1191 0.8514 0.7079
C13 C 0.3345(15) 0.6077(4) 0.3602(3)
C14 C 0.3462(15) 0.5124(4) 0.3487(3)
C15 C 0.2541(17) 0.4827(4) 0.4100(4)
H9 H 0.1831 0.5223 0.4601
C16 C 0.2702(19) 0.3937(4) 0.3951(4)
H10 H 0.2127 0.3722 0.4356
C17 C 0.3707(18) 0.3362(4) 0.3205(4)
H11 H 0.3797 0.2753 0.3091
C18 C 0.4578(17) 0.3712(4) 0.2632(4)
H12 H 0.5284 0.3321 0.2128
C19 C -0.0819(14) 0.3646(4) 0.0909(3)
C20 C -0.2745(15) -0.0182(4) -0.0827(3)
Cu1_2 Cu -0.4991(2) 0.52917(5) 0.18092(5)
Cu2A Cu -0.8404(2) -0.16385(5) -0.06574(5)
Cu2A_2 Cu 0.1596(2) -0.16385(5) -0.06574(5)
S1_2 S 0.9517(4) 0.47179(9) 0.10180(9)
S2A S -0.6601(4) 0.13020(10) 0.13736(9)
S2A_2 S 0.3399(4) 0.13020(10) 0.13736(9)
loop_
_geom_bond_atom_site_label_1
_geom_bond_atom_site_label_2
_geom_bond_site_symmetry_1
_geom_bond_site_symmetry_2
Cu1 N1 1_555 1_555
Cu2 N7 1_555 1_555
N1 C1 1_555 1_555
N2 Cu1 1_555 1_555
N3 Cu1 1_555 1_555
N4 C7 1_555 1_555
N5 C8 1_555 1_555
N6 C6 1_555 1_555
N7 C19 1_555 1_555
N8 Cu2 1_555 1_555
S1 Cu1 1_555 1_555
S2 C20 1_555 1_555
C1 H1 1_555 1_555
C2 C1 1_555 1_555
H2 C2 1_555 1_555
C3 C2 1_555 1_555
H3 C3 1_555 1_555
C4 C3 1_555 1_555
H4 C4 1_555 1_555
C5 N1 1_555 1_555
C6 N2 1_555 1_555
C7 N6 1_555 1_555
C8 C7 1_555 1_555
C9 C8 1_555 1_555
H5 C9 1_555 1_555
C10 C9 1_555 1_555
H6 C10 1_555 1_555
C11 C10 1_555 1_555
H7 C11 1_555 1_555
C12 N5 1_555 1_555
H8 C12 1_555 1_555
C13 N2 1_555 1_555
C14 N3 1_555 1_555
C15 C14 1_555 1_555
H9 C15 1_555 1_555
C16 C15 1_555 1_555
H10 C16 1_555 1_555
C17 C16 1_555 1_555
H11 C17 1_555 1_555
C18 N3 1_555 1_555
H12 C18 1_555 1_555
C19 S1 1_555 1_555
C20 N8 1_555 1_555
Cu1_2 S1 1_555 1_555
Cu2A S2 1_555 1_555
Cu2A_2 S2 1_555 1_555
S1_2 Cu1 1_555 1_555
S2A Cu2 1_555 1_555
S2A_2 Cu2 1_555 1_555
N4 C13 1_555 1_555
C4 C5 1_555 1_555
C5 C6 1_555 1_555
C11 C12 1_555 1_555
C13 C14 1_555 1_555
C17 C18 1_555 1_555

#END
