
#######################################################################
#
#                 Cambridge Crystallographic Data Centre
#                                CCDC 
#
#######################################################################
#
# If this CIF has been generated from an entry in the Cambridge 
# Structural Database, then it will include bibliographic, chemical, 
# crystal, experimental, refinement or atomic coordinate data resulting 
# from the CCDC's data processing and validation procedures.
#
#######################################################################

data_DEJJUY
_symmetry_cell_setting           monoclinic
_symmetry_space_group_name_H-M   'C 2/c'
_symmetry_Int_Tables_number      15
_space_group_name_Hall           '-C 2yn'
loop_
_symmetry_equiv_pos_site_id
_symmetry_equiv_pos_as_xyz
1 x,y,z
2 1/2+x,1/2+y,z
3 -x,y,1/2-z
4 1/2-x,1/2+y,1/2-z
5 -x,-y,-z
6 1/2-x,1/2-y,-z
7 x,-y,1/2+z
8 1/2+x,1/2-y,1/2+z
_cell_length_a                   15.4329(7)
_cell_length_b                   9.9712(4)
_cell_length_c                   15.4584(6)
_cell_angle_alpha                90
_cell_angle_beta                 97.763(2)
_cell_angle_gamma                90
_cell_volume                     2357.01
loop_
_atom_site_label
_atom_site_type_symbol
_atom_site_fract_x
_atom_site_fract_y
_atom_site_fract_z
Cu1 Cu 0.5000 0.5000 0.5000
O1 O 0.48516(12) 0.5744(2) 0.61265(11)
O2 O 0.63877(13) 0.5814(2) 0.54958(12)
O3 O 0.61002(15) 0.8451(2) 0.84501(13)
O4 O 0.47145(14) 0.6794(2) 0.44313(13)
N1 N 0.3940(2) 0.8710(3) 0.42810(19)
C1 C 0.54798(17) 0.6438(3) 0.65404(16)
C2 C 0.63294(18) 0.6450(3) 0.61607(17)
C3 C 0.70788(17) 0.7217(3) 0.66084(17)
C4 C 0.7852(2) 0.7313(3) 0.6241(2)
C5 C 0.8537(2) 0.8057(4) 0.6646(2)
C6 C 0.8467(2) 0.8673(4) 0.7432(2)
C7 C 0.7705(2) 0.8591(4) 0.7807(2)
C8 C 0.69933(18) 0.7867(3) 0.73884(18)
C9 C 0.61519(18) 0.7835(3) 0.77680(17)
C10 C 0.54169(16) 0.7109(3) 0.73121(16)
C11 C 0.4147(2) 0.7540(4) 0.4639(2)
C12 C 0.4370(4) 0.9219(5) 0.3566(4)
C13 C 0.3210(5) 0.9476(6) 0.4530(3)
H1 H 0.792(2) 0.699(4) 0.582(2)
H2 H 0.896(2) 0.811(4) 0.637(2)
H3 H 0.888(3) 0.894(4) 0.766(2)
H4 H 0.762(2) 0.889(4) 0.833(2)
H5 H 0.389(2) 0.729(4) 0.508(2)
H6 H 0.3971 0.9739 0.3183
H7 H 0.4854 0.9771 0.3796
H8 H 0.4579 0.8493 0.3255
H9 H 0.3049 0.9138 0.5060
H10 H 0.3373 1.0397 0.4610
H11 H 0.2721 0.9418 0.4084
Cu1F Cu 0.5000 0.5000 1.0000
O1B O 0.51484(12) 0.5744(2) 0.88735(11)
O1D O 0.51484(12) 0.4256(2) 0.38735(11)
O2B O 0.36123(13) 0.5814(2) 0.95042(12)
O2D O 0.36123(13) 0.4186(2) 0.45042(12)
O3B O 0.38998(15) 0.8451(2) 0.65499(13)
O4D O 0.52855(14) 0.3206(2) 0.55687(13)
N1D N 0.6060(2) 0.1290(3) 0.57190(19)
C1B C 0.45202(17) 0.6438(3) 0.84596(16)
C2B C 0.36706(18) 0.6450(3) 0.88393(17)
C3B C 0.29212(17) 0.7217(3) 0.83916(17)
C4B C 0.2148(2) 0.7313(3) 0.8759(2)
C5B C 0.1463(2) 0.8057(4) 0.8354(2)
C6B C 0.1533(2) 0.8673(4) 0.7568(2)
C7B C 0.2295(2) 0.8591(4) 0.7193(2)
C8B C 0.30067(18) 0.7867(3) 0.76116(18)
C9B C 0.38481(18) 0.7835(3) 0.72320(17)
C10B C 0.45831(16) 0.7109(3) 0.76879(16)
C11D C 0.5853(2) 0.2460(4) 0.5361(2)
C12D C 0.5630(4) 0.0781(5) 0.6434(4)
C13D C 0.6790(5) 0.0524(6) 0.5470(3)
H1B H 0.208(2) 0.699(4) 0.918(2)
H2B H 0.104(2) 0.811(4) 0.863(2)
H3B H 0.112(3) 0.894(4) 0.734(2)
H4B H 0.238(2) 0.889(4) 0.667(2)
H5D H 0.611(2) 0.271(4) 0.492(2)
H6D H 0.6029 0.0261 0.6817
H7D H 0.5146 0.0229 0.6204
H8D H 0.5421 0.1507 0.6745
H9D H 0.6951 0.0862 0.4940
H10D H 0.6627 -0.0397 0.5390
H11D H 0.7279 0.0582 0.5916
loop_
_geom_bond_atom_site_label_1
_geom_bond_atom_site_label_2
_geom_bond_site_symmetry_1
_geom_bond_site_symmetry_2
Cu1 O1 1_555 1_555
O1 C1 1_555 1_555
O2 Cu1 1_555 1_555
O3 C9 1_555 1_555
O4 Cu1 1_555 1_555
N1 C11 1_555 1_555
C1 C2 1_555 1_555
C2 O2 1_555 1_555
C3 C2 1_555 1_555
C4 C3 1_555 1_555
C5 C4 1_555 1_555
C6 C5 1_555 1_555
C7 C6 1_555 1_555
C8 C3 1_555 1_555
C9 C8 1_555 1_555
C10 C1 1_555 1_555
C11 O4 1_555 1_555
C12 N1 1_555 1_555
C13 N1 1_555 1_555
H1 C4 1_555 1_555
H2 C5 1_555 1_555
H3 C6 1_555 1_555
H4 C7 1_555 1_555
H5 C11 1_555 1_555
H6 C12 1_555 1_555
H7 C12 1_555 1_555
H8 C12 1_555 1_555
H9 C13 1_555 1_555
H10 C13 1_555 1_555
H11 C13 1_555 1_555
Cu1F O1B 1_555 1_555
O1B C1B 1_555 1_555
O1D Cu1 1_555 1_555
O2B Cu1F 1_555 1_555
O2D Cu1 1_555 1_555
O3B C9B 1_555 1_555
O4D Cu1 1_555 1_555
N1D C11D 1_555 1_555
C1B C2B 1_555 1_555
C2B O2B 1_555 1_555
C3B C2B 1_555 1_555
C4B C3B 1_555 1_555
C5B C4B 1_555 1_555
C6B C5B 1_555 1_555
C7B C6B 1_555 1_555
C8B C3B 1_555 1_555
C9B C8B 1_555 1_555
C10B C10 1_555 1_555
C11D O4D 1_555 1_555
C12D N1D 1_555 1_555
C13D N1D 1_555 1_555
H1B C4B 1_555 1_555
H2B C5B 1_555 1_555
H3B C6B 1_555 1_555
H4B C7B 1_555 1_555
H5D C11D 1_555 1_555
H6D C12D 1_555 1_555
H7D C12D 1_555 1_555
H8D C12D 1_555 1_555
H9D C13D 1_555 1_555
H10D C13D 1_555 1_555
H11D C13D 1_555 1_555
C7 C8 1_555 1_555
C9 C10 1_555 1_555
C1B C10B 1_555 1_555
C7B C8B 1_555 1_555
C9B C10B 1_555 1_555

#END
