
#######################################################################
#
#                 Cambridge Crystallographic Data Centre
#                                CCDC 
#
#######################################################################
#
# If this CIF has been generated from an entry in the Cambridge 
# Structural Database, then it will include bibliographic, chemical, 
# crystal, experimental, refinement or atomic coordinate data resulting 
# from the CCDC's data processing and validation procedures.
#
#######################################################################

data_DEJMOV
_symmetry_cell_setting           monoclinic
_symmetry_space_group_name_H-M   'P 21/c'
_symmetry_Int_Tables_number      14
_space_group_name_Hall           '-P 2ybc'
loop_
_symmetry_equiv_pos_site_id
_symmetry_equiv_pos_as_xyz
1 x,y,z
2 -x,1/2+y,1/2-z
3 -x,-y,-z
4 x,1/2-y,1/2+z
_cell_length_a                   14.092(2)
_cell_length_b                   9.7574(15)
_cell_length_c                   29.812(5)
_cell_angle_alpha                90
_cell_angle_beta                 101.907(4)
_cell_angle_gamma                90
_cell_volume                     4010.99
loop_
_atom_site_label
_atom_site_type_symbol
_atom_site_fract_x
_atom_site_fract_y
_atom_site_fract_z
S1 S 0.83776(15) -0.2286(2) 0.42774(7)
O1 O 0.8416(4) -0.1002(6) 0.40494(19)
O2 O 0.8468(5) -0.3448(6) 0.3999(2)
O3 O 0.8886(5) -0.2345(8) 0.4748(2)
C39 C 0.7131(7) -0.2372(10) 0.4320(4)
F1 F 0.6544(4) -0.2374(7) 0.3922(2)
F2 F 0.6892(5) -0.1359(7) 0.4564(3)
F3 F 0.6970(4) -0.3539(6) 0.4536(2)
Ag1 Ag 0.93544(4) 0.00779(6) 0.350758(19)
P1 P 0.78666(13) 0.05579(17) 0.29112(6)
P2 P 0.89403(13) 0.42436(18) 0.12690(6)
C1 C 0.8015(4) 0.1488(6) 0.2387(2)
C2 C 0.7328(5) 0.2383(6) 0.2138(2)
C3 C 0.6368(5) 0.2548(7) 0.2224(2)
H1 H 0.6223 0.2164 0.2491
C4 C 0.5660(5) 0.3245(8) 0.1930(3)
H2 H 0.5036 0.3319 0.1994
C5 C 0.5860(5) 0.3857(8) 0.1529(3)
H3 H 0.5360 0.4284 0.1318
C6 C 0.6777(5) 0.3827(7) 0.1450(2)
H4 H 0.6906 0.4278 0.1190
C7 C 0.7546(4) 0.3133(6) 0.1749(2)
C8 C 0.8471(5) 0.3044(6) 0.1653(2)
C9 C 0.9109(4) 0.1998(6) 0.1862(2)
C10 C 0.9961(5) 0.1671(7) 0.1704(2)
H5 H 1.0140 0.2223 0.1477
C11 C 1.0527(5) 0.0592(7) 0.1868(3)
H6 H 1.1083 0.0390 0.1752
C12 C 1.0276(5) -0.0230(7) 0.2216(2)
H7 H 1.0661 -0.0991 0.2329
C13 C 0.9482(5) 0.0073(6) 0.2388(2)
H8 H 0.9340 -0.0477 0.2625
C14 C 0.8857(5) 0.1183(6) 0.2225(2)
C15 C 0.7102(5) -0.0912(7) 0.2699(2)
C16 C 0.6332(5) -0.0842(8) 0.2338(3)
H9 H 0.6168 0.0004 0.2192
C17 C 0.5784(6) -0.1993(9) 0.2182(3)
H10 H 0.5260 -0.1928 0.1931
C18 C 0.6013(7) -0.3219(8) 0.2397(3)
H11 H 0.5644 -0.4005 0.2296
C19 C 0.6783(7) -0.3293(9) 0.2759(4)
H12 H 0.6948 -0.4140 0.2905
C20 C 0.7325(6) -0.2138(7) 0.2914(3)
H13 H 0.7846 -0.2201 0.3167
C21 C 0.7178(5) 0.1624(7) 0.3233(2)
C22 C 0.7435(6) 0.2995(7) 0.3313(3)
H14 H 0.7898 0.3398 0.3168
C23 C 0.7004(6) 0.3756(8) 0.3606(3)
H15 H 0.7168 0.4686 0.3654
C24 C 0.6349(6) 0.3188(9) 0.3827(3)
H16 H 0.6064 0.3717 0.4027
C25 C 0.6106(6) 0.1819(9) 0.3754(3)
H17 H 0.5657 0.1420 0.3908
C26 C 0.6517(5) 0.1025(7) 0.3455(2)
H18 H 0.6346 0.0098 0.3405
C27 C 0.8602(5) 0.3484(7) 0.0711(2)
C28 C 0.8928(6) 0.4085(8) 0.0349(3)
H19 H 0.9307 0.4884 0.0402
C29 C 0.8712(7) 0.3547(10) -0.0083(3)
H20 H 0.8922 0.3990 -0.0325
C30 C 0.8193(7) 0.2370(12) -0.0160(3)
H21 H 0.8039 0.2000 -0.0457
C31 C 0.7895(7) 0.1725(10) 0.0189(4)
H22 H 0.7551 0.0895 0.0134
C32 C 0.8094(6) 0.2282(9) 0.0631(3)
H23 H 0.7881 0.1835 0.0871
C33 C 0.8249(5) 0.5841(7) 0.1244(2)
C34 C 0.8319(6) 0.6576(8) 0.1646(3)
H24 H 0.8665 0.6205 0.1923
C35 C 0.7890(6) 0.7850(9) 0.1647(4)
H25 H 0.7948 0.8343 0.1923
C36 C 0.7391(7) 0.8378(9) 0.1254(4)
H26 H 0.7082 0.9232 0.1255
C37 C 0.7327(7) 0.7676(10) 0.0846(4)
H27 H 0.7004 0.8077 0.0570
C38 C 0.7735(6) 0.6382(8) 0.0840(3)
H28 H 0.7662 0.5884 0.0565
N1 N 0.9620(5) 0.2210(7) 0.3908(3)
C40 C 1.0309(7) 0.4315(9) 0.4390(3)
H29 H 0.9778 0.4878 0.4445
H30 H 1.0709 0.4846 0.4225
H31 H 1.0699 0.4014 0.4680
C41 C 0.9921(6) 0.3122(8) 0.4117(3)
Ag1A Ag 1.06456(4) 0.50779(6) 0.149242(19)
P2A P 1.10597(13) -0.07564(18) 0.37310(6)
C42? C 0.5000 1.0000 0.5000
H32? H 0.4554 1.0433 0.5159
H33? H 0.5651 1.0133 0.5169
H34? H 0.4934 1.0397 0.4701
C43? C 0.476(3) 0.8446(11) 0.4950(16)
N2? N 0.475(3) 0.7339(16) 0.4870(13)
loop_
_geom_bond_atom_site_label_1
_geom_bond_atom_site_label_2
_geom_bond_site_symmetry_1
_geom_bond_site_symmetry_2
Ag1 P1 1_555 1_555
P1 C1 1_555 1_555
P2 C8 1_555 1_555
C1 C2 1_555 1_555
C2 C3 1_555 1_555
C3 H1 1_555 1_555
C4 C3 1_555 1_555
H2 C4 1_555 1_555
C5 C4 1_555 1_555
H3 C5 1_555 1_555
C6 C5 1_555 1_555
H4 C6 1_555 1_555
C7 C2 1_555 1_555
C8 C7 1_555 1_555
C9 C8 1_555 1_555
C10 C9 1_555 1_555
H5 C10 1_555 1_555
C11 C10 1_555 1_555
H6 C11 1_555 1_555
C12 C11 1_555 1_555
H7 C12 1_555 1_555
C13 C12 1_555 1_555
H8 C13 1_555 1_555
C14 C1 1_555 1_555
C15 P1 1_555 1_555
C16 C15 1_555 1_555
H9 C16 1_555 1_555
C17 C16 1_555 1_555
H10 C17 1_555 1_555
C18 C17 1_555 1_555
H11 C18 1_555 1_555
C19 C18 1_555 1_555
H12 C19 1_555 1_555
C20 C15 1_555 1_555
H13 C20 1_555 1_555
C21 P1 1_555 1_555
C22 C21 1_555 1_555
H14 C22 1_555 1_555
C23 C22 1_555 1_555
H15 C23 1_555 1_555
C24 C23 1_555 1_555
H16 C24 1_555 1_555
C25 C24 1_555 1_555
H17 C25 1_555 1_555
C26 C21 1_555 1_555
H18 C26 1_555 1_555
C27 P2 1_555 1_555
C28 C27 1_555 1_555
H19 C28 1_555 1_555
C29 C28 1_555 1_555
H20 C29 1_555 1_555
C30 C29 1_555 1_555
H21 C30 1_555 1_555
C31 C30 1_555 1_555
H22 C31 1_555 1_555
C32 C27 1_555 1_555
H23 C32 1_555 1_555
C33 P2 1_555 1_555
C34 C33 1_555 1_555
H24 C34 1_555 1_555
C35 C34 1_555 1_555
H25 C35 1_555 1_555
C36 C35 1_555 1_555
H26 C36 1_555 1_555
C37 C36 1_555 1_555
H27 C37 1_555 1_555
C38 C33 1_555 1_555
H28 C38 1_555 1_555
S1 O1 1_555 1_555
O2 S1 1_555 1_555
O3 S1 1_555 1_555
C39 S1 1_555 1_555
F1 C39 1_555 1_555
F2 C39 1_555 1_555
F3 C39 1_555 1_555
N1 Ag1 1_555 1_555
C40 H29 1_555 1_555
H30 C40 1_555 1_555
H31 C40 1_555 1_555
C41 N1 1_555 1_555
Ag1A P2 1_555 1_555
P2A Ag1 1_555 1_555
C6 C7 1_555 1_555
C9 C14 1_555 1_555
C13 C14 1_555 1_555
C19 C20 1_555 1_555
C25 C26 1_555 1_555
C31 C32 1_555 1_555
C37 C38 1_555 1_555
C40 C41 1_555 1_555

#END
