
#######################################################################
#
#                 Cambridge Crystallographic Data Centre
#                                CCDC 
#
#######################################################################
#
# If this CIF has been generated from an entry in the Cambridge 
# Structural Database, then it will include bibliographic, chemical, 
# crystal, experimental, refinement or atomic coordinate data resulting 
# from the CCDC's data processing and validation procedures.
#
#######################################################################

data_DEJNEM
_symmetry_cell_setting           tetragonal
_symmetry_space_group_name_H-M   'P 41'
_symmetry_Int_Tables_number      76
_space_group_name_Hall           'P 4w'
loop_
_symmetry_equiv_pos_site_id
_symmetry_equiv_pos_as_xyz
1 x,y,z
2 -x,-y,1/2+z
3 -y,x,1/4+z
4 y,-x,3/4+z
_cell_length_a                   12.4877(18)
_cell_length_b                   12.4877(18)
_cell_length_c                   18.824(4)
_cell_angle_alpha                90
_cell_angle_beta                 90
_cell_angle_gamma                90
_cell_volume                     2935.46
loop_
_atom_site_label
_atom_site_type_symbol
_atom_site_fract_x
_atom_site_fract_y
_atom_site_fract_z
Gd1 Gd 0.930978(17) 0.039061(16) 0.374784(16)
P1 P 1.02590(10) -0.20084(10) 0.45326(7)
P2 P 1.18611(10) 0.06780(10) 0.29782(7)
P3 P 0.93178(10) 0.26585(10) 0.25272(7)
O1 O 1.0086(3) -0.1254(2) 0.39171(18)
O2 O 1.0311(3) -0.1501(3) 0.52587(19)
O3 O 1.1280(3) -0.2698(3) 0.44209(19)
H1 H 1.1254 -0.2988 0.4030
O4 O 0.7748(3) -0.5972(3) 0.4695(2)
O5 O 0.9425(3) -0.5421(3) 0.4467(2)
O6 O 1.1026(3) 0.0840(3) 0.3545(2)
O7 O 1.1436(3) 0.0558(3) 0.2238(2)
O8 O 1.2694(3) 0.1589(3) 0.3024(2)
H2 H 1.2916 0.1637 0.3433
O9 O 1.5382(3) -0.2145(3) 0.3934(2)
O10 O 1.4935(3) -0.0442(3) 0.3704(3)
O11 O 0.9040(3) 0.1970(3) 0.3159(2)
O12 O 0.9628(3) 0.2071(3) 0.1861(2)
O13 O 0.8375(3) 0.3426(3) 0.23948(19)
H3 H 0.8229 0.3742 0.2764
O14 O 1.1873(3) 0.6457(3) 0.3250(2)
O15 O 1.0231(3) 0.5868(3) 0.2969(2)
N1 N 0.8767(3) -0.3486(3) 0.3942(2)
H4 H 0.9341 -0.3808 0.3734
N2 N 1.3375(3) -0.0965(3) 0.2764(2)
H5 H 1.3826 -0.0414 0.2660
N3 N 1.0925(3) 0.4168(3) 0.2214(2)
H6 H 1.0374 0.4539 0.2015
C1 C 0.7939(4) -0.4339(4) 0.4096(3)
H7 H 0.7392 -0.4043 0.4413
C2 C 0.7447(5) -0.4544(4) 0.3370(3)
H8 H 0.7793 -0.5150 0.3143
H9 H 0.6689 -0.4701 0.3416
C3 C 0.7608(5) -0.3551(5) 0.2937(3)
H10 H 0.6922 -0.3242 0.2807
H11 H 0.7999 -0.3715 0.2505
C4 C 0.8243(4) -0.2771(4) 0.3395(3)
H12 H 0.8775 -0.2394 0.3116
H13 H 0.7774 -0.2253 0.3620
C5 C 0.9145(4) -0.2950(4) 0.4606(3)
H14 H 0.9350 -0.3504 0.4940
H15 H 0.8541 -0.2571 0.4811
C6 C 0.8446(4) -0.5318(4) 0.4445(3)
C7 C 1.4026(4) -0.1858(4) 0.3103(3)
H16 H 1.3539 -0.2341 0.3355
C8 C 1.4521(5) -0.2460(5) 0.2474(3)
H17 H 1.5284 -0.2320 0.2447
H18 H 1.4412 -0.3225 0.2525
C9 C 1.3958(5) -0.2047(4) 0.1810(3)
H19 H 1.4426 -0.1577 0.1541
H20 H 1.3741 -0.2637 0.1507
C10 C 1.2986(4) -0.1439(4) 0.2079(3)
H21 H 1.2772 -0.0885 0.1747
H22 H 1.2386 -0.1918 0.2159
C11 C 1.2520(4) -0.0556(4) 0.3246(3)
H23 H 1.2833 -0.0445 0.3712
H24 H 1.1979 -0.1108 0.3294
C12 C 1.4836(4) -0.1421(4) 0.3622(3)
C13 C 1.1736(4) 0.4977(4) 0.2488(3)
H25 H 1.2277 0.4603 0.2772
C14 C 1.2257(4) 0.5372(4) 0.1787(3)
H26 H 1.1840 0.5948 0.1580
H27 H 1.2980 0.5626 0.1872
C15 C 1.2266(5) 0.4399(5) 0.1301(4)
H28 H 1.2983 0.4103 0.1269
H29 H 1.2032 0.4597 0.0827
C16 C 1.1496(4) 0.3577(4) 0.1625(3)
H30 H 1.0990 0.3324 0.1272
H31 H 1.1888 0.2969 0.1813
C17 C 1.0469(4) 0.3471(4) 0.2787(3)
H32 H 1.0260 0.3923 0.3182
H33 H 1.1030 0.2996 0.2955
C18 C 1.1228(4) 0.5852(4) 0.2938(3)
Gd1B Gd 0.960939(16) -0.069022(17) 0.624784(16)
Gd1C Gd 1.039061(16) 0.069022(17) 0.124784(16)
O2C O 0.8499(3) -0.0311(3) 0.27587(19)
O7B O 0.9442(3) 0.1436(3) 0.4738(2)
O12B O 0.7929(3) -0.0372(3) 0.4361(2)
O16 O 0.4524(5) -0.5583(4) 0.2751(3)
H34 H 0.514(2) -0.542(6) 0.258(2)
H35 H 0.457(7) -0.620(3) 0.255(4)
O17 O 0.5544(5) -0.4668(6) 0.1556(3)
H36 H 0.612(3) -0.488(6) 0.138(3)
H37 H 0.557(5) -0.457(7) 0.1994(13)
loop_
_geom_bond_atom_site_label_1
_geom_bond_atom_site_label_2
_geom_bond_site_symmetry_1
_geom_bond_site_symmetry_2
Gd1 O1 1_555 1_555
P1 O1 1_555 1_555
P2 O6 1_555 1_555
P3 O11 1_555 1_555
O2 P1 1_555 1_555
O3 P1 1_555 1_555
H1 O3 1_555 1_555
O4 C6 1_555 1_555
O5 C6 1_555 1_555
O6 Gd1 1_555 1_555
O7 P2 1_555 1_555
O8 P2 1_555 1_555
H2 O8 1_555 1_555
O9 C12 1_555 1_555
O10 C12 1_555 1_555
O11 Gd1 1_555 1_555
O12 P3 1_555 1_555
O13 P3 1_555 1_555
H3 O13 1_555 1_555
O14 C18 1_555 1_555
O15 C18 1_555 1_555
O16 H34 1_555 1_555
O17 H36 1_555 1_555
N1 H4 1_555 1_555
N2 H5 1_555 1_555
N3 H6 1_555 1_555
C1 N1 1_555 1_555
H7 C1 1_555 1_555
C2 C1 1_555 1_555
H8 C2 1_555 1_555
H9 C2 1_555 1_555
C3 C2 1_555 1_555
H10 C3 1_555 1_555
H11 C3 1_555 1_555
C4 N1 1_555 1_555
H12 C4 1_555 1_555
H13 C4 1_555 1_555
C5 P1 1_555 1_555
H14 C5 1_555 1_555
H15 C5 1_555 1_555
C6 C1 1_555 1_555
C7 N2 1_555 1_555
H16 C7 1_555 1_555
C8 C7 1_555 1_555
H17 C8 1_555 1_555
H18 C8 1_555 1_555
C9 C8 1_555 1_555
H19 C9 1_555 1_555
H20 C9 1_555 1_555
C10 N2 1_555 1_555
H21 C10 1_555 1_555
H22 C10 1_555 1_555
C11 P2 1_555 1_555
H23 C11 1_555 1_555
H24 C11 1_555 1_555
C12 C7 1_555 1_555
C13 N3 1_555 1_555
H25 C13 1_555 1_555
C14 C13 1_555 1_555
H26 C14 1_555 1_555
H27 C14 1_555 1_555
C15 C14 1_555 1_555
H28 C15 1_555 1_555
H29 C15 1_555 1_555
C16 N3 1_555 1_555
H30 C16 1_555 1_555
H31 C16 1_555 1_555
C17 P3 1_555 1_555
H32 C17 1_555 1_555
H33 C17 1_555 1_555
C18 C13 1_555 1_555
H35 O16 1_555 1_555
H37 O17 1_555 1_555
Gd1B O2 1_555 1_555
Gd1C O7 1_555 1_555
O2C Gd1 1_555 1_555
O7B Gd1 1_555 1_555
O12B Gd1 1_555 1_555
O12 Gd1C 1_555 1_555
N1 C5 1_555 1_555
N2 C11 1_555 1_555
N3 C17 1_555 1_555
C3 C4 1_555 1_555
C9 C10 1_555 1_555
C15 C16 1_555 1_555

#END
