
#######################################################################
#
#                 Cambridge Crystallographic Data Centre
#                                CCDC 
#
#######################################################################
#
# If this CIF has been generated from an entry in the Cambridge 
# Structural Database, then it will include bibliographic, chemical, 
# crystal, experimental, refinement or atomic coordinate data resulting 
# from the CCDC's data processing and validation procedures.
#
#######################################################################

data_DEJNIQ
_symmetry_cell_setting           tetragonal
_symmetry_space_group_name_H-M   'P 41'
_symmetry_Int_Tables_number      76
_space_group_name_Hall           'P 4w'
loop_
_symmetry_equiv_pos_site_id
_symmetry_equiv_pos_as_xyz
1 x,y,z
2 -x,-y,1/2+z
3 -y,x,1/4+z
4 y,-x,3/4+z
_cell_length_a                   12.4643(3)
_cell_length_b                   12.4643(3)
_cell_length_c                   18.7577(5)
_cell_angle_alpha                90
_cell_angle_beta                 90
_cell_angle_gamma                90
_cell_volume                     2914.17
loop_
_atom_site_label
_atom_site_type_symbol
_atom_site_fract_x
_atom_site_fract_y
_atom_site_fract_z
Tb1 Tb 0.960886(18) 0.069228(18) 0.117610(15)
P1 P 1.02558(11) 0.20051(11) 0.28893(7)
P2 P 1.06803(11) 0.26493(10) -0.01045(7)
P3 P 0.81437(11) 0.06755(11) -0.05505(7)
O1 O 1.0307(3) 0.1503(3) 0.2158(2)
O2 O 1.0078(3) 0.1254(3) 0.34982(19)
O3 O 1.1281(3) 0.2693(3) 0.3005(2)
H1 H 1.1313 0.2885 0.3422
O4 O 0.7759(3) 0.5970(3) 0.2723(2)
O5 O 0.9423(3) 0.5419(3) 0.2958(2)
O6 O 1.0368(3) 0.2066(3) 0.0559(2)
O7 O 1.0957(3) 0.1965(3) -0.0737(2)
O8 O 1.1624(3) 0.3418(3) 0.0016(2)
H2 H 1.1559 0.3710 0.0406
O9 O 0.8132(3) 0.6452(3) -0.0828(2)
O10 O 0.9775(3) 0.5863(3) -0.0545(2)
O11 O 0.8558(3) 0.0555(3) 0.0193(2)
O12 O 0.8980(3) 0.0838(3) -0.1120(2)
O13 O 0.7320(3) 0.1587(3) -0.0615(2)
H3 H 0.6854 0.1511 -0.0310
O14 O 0.4626(3) -0.2137(3) -0.1512(2)
O15 O 0.5065(3) -0.0440(3) -0.1278(3)
N1 N 0.8775(3) 0.3486(3) 0.3477(2)
H4 H 0.9352 0.3806 0.3686
N2 N 0.9078(3) 0.4166(3) 0.0210(2)
H5 H 0.9631 0.4541 0.0406
N3 N 0.6622(3) -0.0967(3) -0.0343(2)
H6 H 0.6170 -0.0416 -0.0237
C1 C 0.7951(4) 0.4339(4) 0.3330(3)
H7 H 0.7405 0.4041 0.3011
C2 C 0.7444(5) 0.4545(5) 0.4051(3)
H8 H 0.7781 0.5156 0.4280
H9 H 0.6684 0.4693 0.3998
C3 C 0.7609(6) 0.3553(5) 0.4485(4)
H10 H 0.6923 0.3243 0.4617
H11 H 0.8003 0.3721 0.4917
C4 C 0.8243(5) 0.2770(4) 0.4029(3)
H12 H 0.7772 0.2251 0.3804
H13 H 0.8774 0.2392 0.4312
C5 C 0.9149(4) 0.2950(4) 0.2816(3)
H14 H 0.9358 0.3503 0.2480
H15 H 0.8543 0.2572 0.2610
C6 C 0.8447(5) 0.5317(4) 0.2974(3)
C7 C 0.8263(4) 0.4962(4) -0.0059(3)
H16 H 0.7723 0.4584 -0.0345
C8 C 0.7741(5) 0.5364(5) 0.0638(3)
H17 H 0.8159 0.5941 0.0846
H18 H 0.7018 0.5620 0.0551
C9 C 0.7730(6) 0.4400(5) 0.1119(4)
H19 H 0.7013 0.4101 0.1146
H20 H 0.7955 0.4600 0.1596
C10 C 0.8508(5) 0.3578(5) 0.0802(3)
H21 H 0.9015 0.3334 0.1160
H22 H 0.8122 0.2962 0.0617
C11 C 0.9527(4) 0.3457(4) -0.0361(3)
H23 H 0.9731 0.3904 -0.0763
H24 H 0.8963 0.2979 -0.0523
C12 C 0.8778(5) 0.5852(4) -0.0514(3)
C13 C 0.5976(4) -0.1857(4) -0.0684(3)
H25 H 0.6464 -0.2339 -0.0940
C14 C 0.5480(5) -0.2466(5) -0.0044(4)
H26 H 0.4715 -0.2332 -0.0016
H27 H 0.5596 -0.3232 -0.0092
C15 C 0.6037(5) -0.2047(5) 0.0612(3)
H28 H 0.6250 -0.2634 0.0921
H29 H 0.5569 -0.1570 0.0876
C16 C 0.7023(4) -0.1442(5) 0.0340(3)
H30 H 0.7243 -0.0888 0.0673
H31 H 0.7619 -0.1925 0.0257
C17 C 0.7486(4) -0.0554(5) -0.0818(3)
H32 H 0.7181 -0.0443 -0.1288
H33 H 0.8029 -0.1107 -0.0862
C18 C 0.5160(4) -0.1415(4) -0.1203(3)
Tb1B Tb 0.930772(18) -0.039114(18) 0.367610(15)
Tb1C Tb 1.069228(18) 0.039114(18) -0.132390(15)
O2C O 1.1254(3) -0.0078(3) 0.09982(19)
O7B O 0.8035(3) 0.0957(3) 0.1763(2)
O12B O 0.9162(3) -0.1020(3) 0.1380(2)
O16 O 0.5579(4) 0.5467(6) 0.2191(3)
H34 H 0.621(3) 0.558(7) 0.240(3)
H35 H 0.572(5) 0.548(7) 0.1726(12)
O17 O 0.4420(5) 0.5335(6) 0.0852(3)
H36 H 0.486(6) 0.565(6) 0.118(4)
H37 H 0.4745 0.5035 0.0495
loop_
_geom_bond_atom_site_label_1
_geom_bond_atom_site_label_2
_geom_bond_site_symmetry_1
_geom_bond_site_symmetry_2
Tb1 O1 1_555 1_555
P1 O1 1_555 1_555
P2 O6 1_555 1_555
P3 O11 1_555 1_555
O2 P1 1_555 1_555
O3 P1 1_555 1_555
H1 O3 1_555 1_555
O4 C6 1_555 1_555
O5 C6 1_555 1_555
O6 Tb1 1_555 1_555
O7 P2 1_555 1_555
O8 P2 1_555 1_555
H2 O8 1_555 1_555
O9 C12 1_555 1_555
O10 C12 1_555 1_555
O11 Tb1 1_555 1_555
O12 P3 1_555 1_555
O13 P3 1_555 1_555
H3 O13 1_555 1_555
O14 C18 1_555 1_555
O15 C18 1_555 1_555
O16 H34 1_555 1_555
O17 H36 1_555 1_555
N1 H4 1_555 1_555
N2 H5 1_555 1_555
N3 H6 1_555 1_555
C1 N1 1_555 1_555
H7 C1 1_555 1_555
C2 C1 1_555 1_555
H8 C2 1_555 1_555
H9 C2 1_555 1_555
C3 C2 1_555 1_555
H10 C3 1_555 1_555
H11 C3 1_555 1_555
C4 N1 1_555 1_555
H12 C4 1_555 1_555
H13 C4 1_555 1_555
C5 P1 1_555 1_555
H14 C5 1_555 1_555
H15 C5 1_555 1_555
C6 C1 1_555 1_555
C7 N2 1_555 1_555
H16 C7 1_555 1_555
C8 C7 1_555 1_555
H17 C8 1_555 1_555
H18 C8 1_555 1_555
C9 C8 1_555 1_555
H19 C9 1_555 1_555
H20 C9 1_555 1_555
C10 N2 1_555 1_555
H21 C10 1_555 1_555
H22 C10 1_555 1_555
C11 P2 1_555 1_555
H23 C11 1_555 1_555
H24 C11 1_555 1_555
C12 C7 1_555 1_555
C13 N3 1_555 1_555
H25 C13 1_555 1_555
C14 C13 1_555 1_555
H26 C14 1_555 1_555
H27 C14 1_555 1_555
C15 C14 1_555 1_555
H28 C15 1_555 1_555
H29 C15 1_555 1_555
C16 N3 1_555 1_555
H30 C16 1_555 1_555
H31 C16 1_555 1_555
C17 P3 1_555 1_555
H32 C17 1_555 1_555
H33 C17 1_555 1_555
C18 C13 1_555 1_555
H35 O16 1_555 1_555
H37 O17 1_555 1_555
Tb1B O2 1_555 1_555
Tb1C O7 1_555 1_555
O2C Tb1 1_555 1_555
O7B Tb1 1_555 1_555
O12B Tb1 1_555 1_555
O12 Tb1C 1_555 1_555
N1 C5 1_555 1_555
N2 C11 1_555 1_555
N3 C17 1_555 1_555
C3 C4 1_555 1_555
C9 C10 1_555 1_555
C15 C16 1_555 1_555

#END
