
#######################################################################
#
#                 Cambridge Crystallographic Data Centre
#                                CCDC 
#
#######################################################################
#
# If this CIF has been generated from an entry in the Cambridge 
# Structural Database, then it will include bibliographic, chemical, 
# crystal, experimental, refinement or atomic coordinate data resulting 
# from the CCDC's data processing and validation procedures.
#
#######################################################################

data_DEJNAI
_symmetry_cell_setting           tetragonal
_symmetry_space_group_name_H-M   'P 41'
_symmetry_Int_Tables_number      76
_space_group_name_Hall           'P 4w'
loop_
_symmetry_equiv_pos_site_id
_symmetry_equiv_pos_as_xyz
1 x,y,z
2 -x,-y,1/2+z
3 -y,x,1/4+z
4 y,-x,3/4+z
_cell_length_a                   12.4799(3)
_cell_length_b                   12.4799(3)
_cell_length_c                   18.8239(5)
_cell_angle_alpha                90
_cell_angle_beta                 90
_cell_angle_gamma                90
_cell_volume                     2931.78
loop_
_atom_site_label
_atom_site_type_symbol
_atom_site_fract_x
_atom_site_fract_y
_atom_site_fract_z
Eu1 Eu 0.930966(12) 0.961009(11) 0.197457(10)
P1 P 0.93155(7) 0.81342(7) 0.02380(5)
P2 P 0.73355(7) 1.06858(7) 0.06958(5)
P3 P 0.79826(7) 1.02619(7) 0.36936(5)
O1 O 0.9433(2) 0.8564(2) 0.09772(15)
O2 O 0.9149(2) 0.8948(2) -0.03314(14)
O3 O 0.8404(2) 0.7301(2) 0.01821(16)
H1 H 0.8483 0.6843 0.0490
O4 O 1.2141(2) 0.4623(2) -0.07119(17)
O5 O 1.0440(2) 0.5065(2) -0.04835(19)
O6 O 0.7927(2) 1.0384(2) 0.13576(15)
O7 O 0.8022(2) 1.0961(2) 0.00645(15)
O8 O 0.6563(2) 1.1629(2) 0.08139(14)
H2 H 0.6277 1.1569 0.1204
O9 O 0.4129(2) 0.9764(2) 0.02519(18)
O10 O 0.3546(3) 0.8127(2) -0.00270(18)
O11 O 0.8498(2) 1.0313(2) 0.29732(14)
O12 O 0.87286(19) 1.0091(2) 0.43068(13)
O13 O 0.7290(2) 1.1279(2) 0.38031(14)
H3 H 0.7104 1.1318 0.4220
O14 O 0.4026(2) 0.7751(2) 0.35298(18)
O15 O 0.4581(2) 0.9424(2) 0.37549(17)
N1 N 1.0959(2) 0.6620(2) 0.04568(15)
H8 H 1.0407 0.6170 0.0561
N2 N 0.5827(2) 0.9079(2) 0.10047(15)
H9 H 0.5456 0.9629 0.1204
N3 N 0.6509(2) 0.8770(2) 0.42807(14)
H10 H 0.6188 0.9345 0.4488
C1 C 1.1850(3) 0.5975(3) 0.0122(2)
H11 H 1.2332 0.6464 -0.0130
C2 C 1.2457(4) 0.5479(4) 0.0755(3)
H12 H 1.2319 0.4716 0.0785
H13 H 1.3223 0.5590 0.0704
C3 C 1.2039(3) 0.6049(3) 0.1411(2)
H14 H 1.1567 0.5583 0.1680
H15 H 1.2627 0.6268 0.1715
C4 C 1.1436(3) 0.7014(3) 0.11382(19)
H16 H 1.0882 0.7233 0.1470
H17 H 1.1916 0.7613 0.1055
C5 C 1.0555(3) 0.7475(3) -0.00258(19)
H18 H 1.0449 0.7163 -0.0493
H19 H 1.1107 0.8017 -0.0071
C6 C 1.1414(3) 0.5156(3) -0.0404(2)
C7 C 0.5026(3) 0.8264(3) 0.07411(19)
H20 H 0.5405 0.7725 0.0458
C8 C 0.4624(3) 0.7738(3) 0.1423(2)
H21 H 0.4375 0.7015 0.1332
H22 H 0.4042 0.8149 0.1630
C9 C 0.5604(4) 0.7731(4) 0.1917(3)
H23 H 0.5404 0.7966 0.2390
H24 H 0.5903 0.7015 0.1950
C10 C 0.6420(3) 0.8501(3) 0.1593(2)
H25 H 0.6675 0.9006 0.1946
H26 H 0.7028 0.8110 0.1403
C11 C 0.6529(3) 0.9533(3) 0.04405(18)
H27 H 0.6081 0.9738 0.0042
H28 H 0.7007 0.8972 0.0277
C12 C 0.4156(3) 0.8776(3) 0.0281(2)
C13 C 0.5661(3) 0.7944(3) 0.41307(19)
H29 H 0.5962 0.7400 0.3812
C14 C 0.5454(3) 0.7429(4) 0.4853(2)
H30 H 0.4840 0.7759 0.5082
H31 H 0.5315 0.6668 0.4800
C15 C 0.6452(4) 0.7610(4) 0.5284(3)
H32 H 0.6767 0.6930 0.5419
H33 H 0.6283 0.8007 0.5713
C16 C 0.7225(3) 0.8240(3) 0.4829(2)
H34 H 0.7743 0.7770 0.4604
H35 H 0.7604 0.8771 0.5109
C17 C 0.7047(3) 0.9142(3) 0.36196(18)
H36 H 0.6494 0.9342 0.3282
H37 H 0.7431 0.8538 0.3418
C18 C 0.4679(3) 0.8439(3) 0.3775(2)
Eu1C Eu 0.961009(11) 1.069034(12) -0.052543(10)
Eu1B Eu 1.038991(11) 0.930966(12) 0.447457(10)
O2B O 1.1052(2) 0.9149(2) 0.21686(14)
O7B O 0.9039(2) 0.8022(2) 0.25645(15)
O12C O 1.0091(2) 1.12714(19) 0.18068(13)
O16 O 0.4528(4) 0.5581(4) 0.2976(3)
H4 H 0.521(2) 0.549(5) 0.311(4)
H5 H 0.451(5) 0.629(2) 0.307(4)
O17 O 0.5563(4) 0.4679(5) 0.4143(3)
H6 H 0.518(5) 0.424(5) 0.444(4)
H7 H 0.617(3) 0.504(5) 0.420(4)
loop_
_geom_bond_atom_site_label_1
_geom_bond_atom_site_label_2
_geom_bond_site_symmetry_1
_geom_bond_site_symmetry_2
Eu1 O1 1_555 1_555
P1 O1 1_555 1_555
P2 O6 1_555 1_555
P3 O11 1_555 1_555
O2 P1 1_555 1_555
O3 P1 1_555 1_555
H1 O3 1_555 1_555
O4 C6 1_555 1_555
O5 C6 1_555 1_555
O6 Eu1 1_555 1_555
O7 P2 1_555 1_555
O8 P2 1_555 1_555
H2 O8 1_555 1_555
O9 C12 1_555 1_555
O10 C12 1_555 1_555
O11 Eu1 1_555 1_555
O12 P3 1_555 1_555
O13 P3 1_555 1_555
H3 O13 1_555 1_555
O14 C18 1_555 1_555
O15 C18 1_555 1_555
O16 H4 1_555 1_555
H5 O16 1_555 1_555
O17 H6 1_555 1_555
H7 O17 1_555 1_555
N1 H8 1_555 1_555
N2 H9 1_555 1_555
N3 H10 1_555 1_555
C1 N1 1_555 1_555
H11 C1 1_555 1_555
C2 C1 1_555 1_555
H12 C2 1_555 1_555
H13 C2 1_555 1_555
C3 C2 1_555 1_555
H14 C3 1_555 1_555
H15 C3 1_555 1_555
C4 N1 1_555 1_555
H16 C4 1_555 1_555
H17 C4 1_555 1_555
C5 P1 1_555 1_555
H18 C5 1_555 1_555
H19 C5 1_555 1_555
C6 C1 1_555 1_555
C7 N2 1_555 1_555
H20 C7 1_555 1_555
C8 C7 1_555 1_555
H21 C8 1_555 1_555
H22 C8 1_555 1_555
C9 C8 1_555 1_555
H23 C9 1_555 1_555
H24 C9 1_555 1_555
C10 N2 1_555 1_555
H25 C10 1_555 1_555
H26 C10 1_555 1_555
C11 P2 1_555 1_555
H27 C11 1_555 1_555
H28 C11 1_555 1_555
C12 C7 1_555 1_555
C13 N3 1_555 1_555
H29 C13 1_555 1_555
C14 C13 1_555 1_555
H30 C14 1_555 1_555
H31 C14 1_555 1_555
C15 C14 1_555 1_555
H32 C15 1_555 1_555
H33 C15 1_555 1_555
C16 N3 1_555 1_555
H34 C16 1_555 1_555
H35 C16 1_555 1_555
C17 P3 1_555 1_555
H36 C17 1_555 1_555
H37 C17 1_555 1_555
C18 C13 1_555 1_555
Eu1C O2 1_555 1_555
Eu1B O12 1_555 1_555
O2B Eu1 1_555 1_555
O7B Eu1 1_555 1_555
O12C Eu1 1_555 1_555
O7 Eu1C 1_555 1_555
N1 C5 1_555 1_555
N2 C11 1_555 1_555
N3 C17 1_555 1_555
C3 C4 1_555 1_555
C9 C10 1_555 1_555
C15 C16 1_555 1_555

#END
