
#######################################################################
#
#                 Cambridge Crystallographic Data Centre
#                                CCDC 
#
#######################################################################
#
# If this CIF has been generated from an entry in the Cambridge 
# Structural Database, then it will include bibliographic, chemical, 
# crystal, experimental, refinement or atomic coordinate data resulting 
# from the CCDC's data processing and validation procedures.
#
#######################################################################

data_DEJROB
_symmetry_cell_setting           orthorhombic
_symmetry_space_group_name_H-M   'I 2 2 2'
_symmetry_Int_Tables_number      23
_space_group_name_Hall           'I 2 2'
loop_
_symmetry_equiv_pos_site_id
_symmetry_equiv_pos_as_xyz
1 x,y,z
2 -x,-y,z
3 x,-y,-z
4 -x,y,-z
5 1/2+x,1/2+y,1/2+z
6 1/2-x,1/2-y,1/2+z
7 1/2+x,1/2-y,1/2-z
8 1/2-x,1/2+y,1/2-z
_cell_length_a                   13.2281(12)
_cell_length_b                   20.861(2)
_cell_length_c                   16.773(3)
_cell_angle_alpha                90
_cell_angle_beta                 90
_cell_angle_gamma                90
_cell_volume                     4628.53
loop_
_atom_site_label
_atom_site_type_symbol
_atom_site_fract_x
_atom_site_fract_y
_atom_site_fract_z
Co1 Co 0.27535(10) 0.64143(6) 0.81711(9)
N1 N 0.5978(5) 0.6244(3) 0.8109(5)
N2 N 0.4285(6) 0.6195(4) 0.8001(5)
C1 C 0.5094(7) 0.6314(5) 0.8481(6)
H1 H 0.5036 0.6431 0.9014
C2 C 0.4740(8) 0.6047(5) 0.7276(7)
H2 H 0.4388 0.5950 0.6811
B1 B 0.7059(9) 0.6295(5) 0.8462(8)
C3 C 0.5745(9) 0.6061(5) 0.7334(7)
H3 H 0.6204 0.5966 0.6931
O1 O 0.1141(7) 0.6543(6) 0.7932(7)
O2 O 0.2353(7) 0.6150(4) 0.6947(5)
C4 C 0.0681(13) 0.6133(10) 0.6597(11)
H4 H 0.1019 0.5960 0.6138
H5 H 0.0322 0.6514 0.6448
H6 H 0.0213 0.5822 0.6802
N3 N 0.7515(6) 0.5614(3) 0.8524(5)
C5 C 0.7052(7) 0.5048(5) 0.8333(6)
H7 H 0.6408 0.5022 0.8112
C6 C 0.8424(8) 0.5449(5) 0.8824(7)
H8 H 0.8922 0.5730 0.9004
C7 C 0.8481(9) 0.4798(5) 0.8817(8)
H9 H 0.9025 0.4559 0.9002
N4 N 0.7612(7) 0.4549(4) 0.8494(5)
N5 N 0.7664(7) 0.6732(4) 0.7891(5)
N6 N 0.7045(6) 0.6583(3) 0.9302(5)
C8 C 0.7305(8) 0.7277(5) 0.7569(6)
H10 H 0.6629 0.7396 0.7602
C9 C 0.7086(7) 0.6292(4) 1.0013(6)
H11 H 0.7115 0.5848 1.0066
C10 C 0.8683(9) 0.6755(7) 0.7737(9)
H12 H 0.9159 0.6448 0.7880
C11 C 0.6946(8) 0.7227(7) 0.9519(9)
H13 H 0.6856 0.7572 0.9175
N7 N 0.7081(7) 0.6673(4) 1.0621(5)
N8 N 0.7978(6) 0.7620(4) 0.7212(6)
C12 C 0.8864(11) 0.7286(7) 0.7355(9)
H14 H 0.9503 0.7423 0.7200
C13 C 0.7003(12) 0.7253(5) 1.0290(8)
H15 H 0.6991 0.7633 1.0580
C14 C 0.1434(12) 0.6290(8) 0.7216(10)
Co1A Co 0.72465(10) 0.35857(6) 0.81711(9)
Co1C Co 0.72465(10) 0.64143(6) 1.18289(9)
Co1F Co 0.77535(10) 0.85857(6) 0.68289(9)
N4A N 0.2388(7) 0.5451(4) 0.8494(5)
N7C N 0.2919(7) 0.6673(4) 0.9379(5)
N8F N 0.2978(6) 0.7380(4) 0.7788(6)
loop_
_geom_bond_atom_site_label_1
_geom_bond_atom_site_label_2
_geom_bond_site_symmetry_1
_geom_bond_site_symmetry_2
Co1 N2 1_555 1_555
N1 C1 1_555 1_555
N2 C1 1_555 1_555
C1 H1 1_555 1_555
C2 N2 1_555 1_555
H2 C2 1_555 1_555
B1 N1 1_555 1_555
C3 N1 1_555 1_555
H3 C3 1_555 1_555
O1 Co1 1_555 1_555
O2 Co1 1_555 1_555
C4 H4 1_555 1_555
H5 C4 1_555 1_555
H6 C4 1_555 1_555
N3 B1 1_555 1_555
C5 N3 1_555 1_555
H7 C5 1_555 1_555
C6 N3 1_555 1_555
H8 C6 1_555 1_555
C7 C6 1_555 1_555
H9 C7 1_555 1_555
N4 C5 1_555 1_555
N5 B1 1_555 1_555
N6 B1 1_555 1_555
C8 N5 1_555 1_555
H10 C8 1_555 1_555
C9 N6 1_555 1_555
H11 C9 1_555 1_555
C10 N5 1_555 1_555
H12 C10 1_555 1_555
C11 N6 1_555 1_555
H13 C11 1_555 1_555
N7 C9 1_555 1_555
N8 C8 1_555 1_555
C12 C10 1_555 1_555
H14 C12 1_555 1_555
C13 C11 1_555 1_555
H15 C13 1_555 1_555
C14 O1 1_555 1_555
Co1A N4 1_555 1_555
Co1C N7 1_555 1_555
Co1F N8 1_555 1_555
N4A Co1 1_555 1_555
N7C Co1 1_555 1_555
N8F Co1 1_555 1_555
C2 C3 1_555 1_555
O2 C14 1_555 1_555
C4 C14 1_555 1_555
C7 N4 1_555 1_555
N7 C13 1_555 1_555
N8 C12 1_555 1_555

#END
