
#######################################################################
#
#                 Cambridge Crystallographic Data Centre
#                                CCDC 
#
#######################################################################
#
# If this CIF has been generated from an entry in the Cambridge 
# Structural Database, then it will include bibliographic, chemical, 
# crystal, experimental, refinement or atomic coordinate data resulting 
# from the CCDC's data processing and validation procedures.
#
#######################################################################

data_DEJTIW
_symmetry_cell_setting           monoclinic
_symmetry_space_group_name_H-M   'P 21/c'
_symmetry_Int_Tables_number      14
_space_group_name_Hall           '-P 2ybc'
loop_
_symmetry_equiv_pos_site_id
_symmetry_equiv_pos_as_xyz
1 x,y,z
2 -x,1/2+y,1/2-z
3 -x,-y,-z
4 x,1/2-y,1/2+z
_cell_length_a                   9.2484(18)
_cell_length_b                   15.569(3)
_cell_length_c                   8.6385(17)
_cell_angle_alpha                90
_cell_angle_beta                 95.42(3)
_cell_angle_gamma                90
_cell_volume                     1238.28
loop_
_atom_site_label
_atom_site_type_symbol
_atom_site_fract_x
_atom_site_fract_y
_atom_site_fract_z
Cd1 Cd 0.72864(5) -0.16290(4) 0.23069(7)
O1 O 0.7080(5) -0.0141(4) 0.2379(7)
O2 O 0.7749(5) -0.0652(3) 0.0255(6)
O3 O 0.4803(4) 0.3241(4) 0.1577(5)
O4 O 0.3567(5) 0.2565(4) -0.0382(7)
O5 O 1.1022(5) 0.2365(4) 0.2160(7)
O6 O 1.0535(5) 0.3450(4) 0.0667(7)
C1 C 0.7423(6) -0.0038(6) 0.1070(10)
C2 C 0.7434(7) 0.0882(5) 0.0403(8)
H1 H 0.7420 0.0837 -0.0730
C3 C 0.6109(6) 0.1385(5) 0.0760(9)
H2 H 0.6089 0.1429 0.1877
H3 H 0.5241 0.1083 0.0344
C4 C 0.6117(6) 0.2292(5) 0.0051(9)
H4 H 0.6086 0.2237 -0.1082
C5 C 0.7518(6) 0.2765(5) 0.0638(9)
H5 H 0.7502 0.2880 0.1740
H6 H 0.7541 0.3314 0.0109
C6 C 0.8909(6) 0.2264(5) 0.0385(9)
H7 H 0.8999 0.2234 -0.0735
C7 C 0.8849(7) 0.1348(5) 0.1015(10)
H8 H 0.8916 0.1366 0.2142
H9 H 0.9676 0.1027 0.0714
C8 C 0.4744(7) 0.2730(5) 0.0440(10)
C9 C 1.0241(7) 0.2715(6) 0.1157(10)
Cd1A Cd 0.27136(5) 0.33710(4) 0.26931(7)
Cd1B Cd 0.27136(5) 0.16290(4) -0.23069(7)
Cd1A_2 Cd 1.27136(5) 0.33710(4) 0.26931(7)
O3A O 0.5197(4) -0.1759(4) 0.3423(5)
O4B O 0.6433(5) -0.2565(4) 0.0382(7)
O5A O 0.8978(5) -0.2635(4) 0.2840(7)
O6A O 0.9465(5) -0.1550(4) 0.4333(7)
loop_
_geom_bond_atom_site_label_1
_geom_bond_atom_site_label_2
_geom_bond_site_symmetry_1
_geom_bond_site_symmetry_2
Cd1 O1 1_555 1_555
O1 C1 1_555 1_555
O2 Cd1 1_555 1_555
O3 C8 1_555 1_555
O4 C8 1_555 1_555
O5 C9 1_555 1_555
O6 C9 1_555 1_555
C1 O2 1_555 1_555
C2 C1 1_555 1_555
H1 C2 1_555 1_555
C3 C2 1_555 1_555
H2 C3 1_555 1_555
H3 C3 1_555 1_555
C4 C3 1_555 1_555
H4 C4 1_555 1_555
C5 C4 1_555 1_555
H5 C5 1_555 1_555
H6 C5 1_555 1_555
C6 C5 1_555 1_555
H7 C6 1_555 1_555
C7 C2 1_555 1_555
H8 C7 1_555 1_555
H9 C7 1_555 1_555
C8 C4 1_555 1_555
C9 C6 1_555 1_555
Cd1A O3 1_555 1_555
Cd1B O4 1_555 1_555
Cd1A_2 O5 1_555 1_555
O3A Cd1 1_555 1_555
O4B Cd1 1_555 1_555
O5A Cd1 1_555 1_555
O6A Cd1 1_555 1_555
O6 Cd1A_2 1_555 1_555
C6 C7 1_555 1_555

#END
