
#######################################################################
#
#                 Cambridge Crystallographic Data Centre
#                                CCDC 
#
#######################################################################
#
# If this CIF has been generated from an entry in the Cambridge 
# Structural Database, then it will include bibliographic, chemical, 
# crystal, experimental, refinement or atomic coordinate data resulting 
# from the CCDC's data processing and validation procedures.
#
#######################################################################

data_DEJTOC02
_symmetry_cell_setting           orthorhombic
_symmetry_space_group_name_H-M   'P b c a'
_symmetry_Int_Tables_number      61
_space_group_name_Hall           '-P 2ac 2ab'
loop_
_symmetry_equiv_pos_site_id
_symmetry_equiv_pos_as_xyz
1 x,y,z
2 1/2-x,-y,1/2+z
3 1/2+x,1/2-y,-z
4 -x,1/2+y,1/2-z
5 -x,-y,-z
6 1/2+x,y,1/2-z
7 1/2-x,1/2+y,z
8 x,1/2-y,1/2+z
_cell_length_a                   9.9654(8)
_cell_length_b                   10.4467(9)
_cell_length_c                   20.708(2)
_cell_angle_alpha                90
_cell_angle_beta                 90
_cell_angle_gamma                90
_cell_volume                     2155.82
loop_
_atom_site_label
_atom_site_type_symbol
_atom_site_fract_x
_atom_site_fract_y
_atom_site_fract_z
La1 La 0.35885(18) 0.54169(19) 0.33890(10)
P1 P 1.0897(9) 0.7188(8) 0.4201(4)
P2 P 1.0143(9) 0.3810(9) 0.3102(5)
O1 O 0.528(3) 0.592(3) 0.4371(12)
C1 C 0.631(3) 0.555(3) 0.4058(15)
O2 O 1.133(3) 0.843(3) 0.4016(12)
O3 O 0.920(3) 0.438(2) 0.2589(11)
O4 O 1.158(3) 0.430(3) 0.3028(12)
O5 O 0.623(3) 0.491(3) 0.3547(12)
O6 O 1.005(3) 0.235(2) 0.3117(11)
O7 O 1.194(2) 0.616(2) 0.4189(11)
O8 O 0.238(3) 0.688(2) 0.2552(11)
O9 O 1.013(3) 0.715(2) 0.4856(11)
H1 H 1.0506 0.7644 0.5120
C2 C 0.769(4) 0.592(4) 0.4291(17)
H2 H 0.7715 0.6844 0.4398
H3 H 0.7927 0.5429 0.4684
C3 C 0.945(4) 0.437(4) 0.386(2)
H4 H 0.8843 0.3709 0.4043
H5 H 1.0186 0.4512 0.4176
N1 N 0.866(3) 0.563(3) 0.3761(13)
H6 H 0.8158 0.5526 0.3387
C4 C 0.960(4) 0.680(4) 0.364(2)
H7 H 0.9022 0.7565 0.3597
H8 H 1.0036 0.6666 0.3214
La1F La 1.14115(18) 1.04169(19) 0.33890(10)
La1E La 0.85885(18) 0.54169(19) 0.16110(10)
La1_2 La 1.35885(18) 0.54169(19) 0.33890(10)
La1F_2 La 1.14115(18) 0.04169(19) 0.33890(10)
O2F O 0.367(3) 0.343(3) 0.4016(12)
O3E O 0.420(3) 0.438(2) 0.2411(11)
O4_2 O 0.158(3) 0.430(3) 0.3028(12)
O6F O 0.495(3) 0.735(2) 0.3117(11)
O7_2 O 0.194(2) 0.616(2) 0.4189(11)
loop_
_geom_bond_atom_site_label_1
_geom_bond_atom_site_label_2
_geom_bond_site_symmetry_1
_geom_bond_site_symmetry_2
La1 O1 1_555 1_555
P1 O2 1_555 1_555
P2 O3 1_555 1_555
O1 C1 1_555 1_555
C1 O5 1_555 1_555
O2 La1F 1_555 1_555
O3 La1E 1_555 1_555
O4 P2 1_555 1_555
O5 La1 1_555 1_555
O6 P2 1_555 1_555
O7 P1 1_555 1_555
O8 La1 1_555 1_555
O9 P1 1_555 1_555
H1 O9 1_555 1_555
C2 C1 1_555 1_555
H2 C2 1_555 1_555
H3 C2 1_555 1_555
C3 P2 1_555 1_555
H4 C3 1_555 1_555
H5 C3 1_555 1_555
N1 C2 1_555 1_555
H6 N1 1_555 1_555
C4 P1 1_555 1_555
H7 C4 1_555 1_555
H8 C4 1_555 1_555
La1_2 O4 1_555 1_555
La1F_2 O6 1_555 1_555
O2F La1 1_555 1_555
O3E La1 1_555 1_555
O4_2 La1 1_555 1_555
O6F La1 1_555 1_555
O7_2 La1 1_555 1_555
O7 La1_2 1_555 1_555
C3 N1 1_555 1_555
N1 C4 1_555 1_555

#END
