
#######################################################################
#
#                 Cambridge Crystallographic Data Centre
#                                CCDC 
#
#######################################################################
#
# If this CIF has been generated from an entry in the Cambridge 
# Structural Database, then it will include bibliographic, chemical, 
# crystal, experimental, refinement or atomic coordinate data resulting 
# from the CCDC's data processing and validation procedures.
#
#######################################################################

data_DEJTES
_symmetry_cell_setting           monoclinic
_symmetry_space_group_name_H-M   'P 21/c'
_symmetry_Int_Tables_number      14
_space_group_name_Hall           '-P 2ybc'
loop_
_symmetry_equiv_pos_site_id
_symmetry_equiv_pos_as_xyz
1 x,y,z
2 -x,1/2+y,1/2-z
3 -x,-y,-z
4 x,1/2-y,1/2+z
_cell_length_a                   10.1355(6)
_cell_length_b                   15.4673(9)
_cell_length_c                   9.1740(5)
_cell_angle_alpha                90
_cell_angle_beta                 107.9300(10)
_cell_angle_gamma                90
_cell_volume                     1368.35
loop_
_atom_site_label
_atom_site_type_symbol
_atom_site_fract_x
_atom_site_fract_y
_atom_site_fract_z
Cd1 Cd 0.762714(15) 1.210804(10) -0.105863(16)
O1 O 0.7238(2) 1.05928(13) -0.1404(2)
O2 O 0.8501(2) 1.09772(12) 0.0898(2)
O3 O 1.17124(19) 0.80259(12) 0.3219(2)
O4 O 1.0472(2) 0.78660(10) 0.4792(2)
O5 O 0.51792(18) 0.81984(15) 0.27693(19)
O6 O 0.4309(2) 0.78047(11) 0.0361(2)
O7 O 0.66916(18) 1.34348(12) -0.23968(19)
H1 H 0.6304 1.3931 -0.2418
H2 H 0.7005 1.3422 -0.3159
C1 C 0.7927(2) 1.04048(14) -0.0054(3)
C2 C 0.8025(2) 0.94586(15) 0.0411(3)
H5 H 0.8125 0.9114 -0.0445
C3 C 0.9258(2) 0.92607(17) 0.1825(3)
H6 H 0.9191 0.9601 0.2688
H7 H 1.0116 0.9412 0.1628
C4 C 0.9257(2) 0.82947(14) 0.2202(2)
H8 H 0.9264 0.7973 0.1284
C5 C 0.7918(2) 0.80587(17) 0.2548(3)
H9 H 0.7932 0.7450 0.2807
H10 H 0.7854 0.8390 0.3422
C6 C 0.6664(2) 0.82465(15) 0.1169(2)
H11 H 0.6712 0.7880 0.0315
C7 C 0.6654(2) 0.92017(15) 0.0684(3)
H12 H 0.5894 0.9295 -0.0248
H13 H 0.6503 0.9567 0.1477
C8 C 1.0560(3) 0.80505(15) 0.3474(3)
C9 C 0.5298(2) 0.80751(15) 0.1476(3)
Cd1B Cd 1.237286(15) 0.789196(10) 0.105863(16)
Cd1A Cd 1.237286(15) 0.710804(10) 0.605863(16)
Cd1B_2 Cd 0.237286(15) 0.789196(10) 0.105863(16)
Cd1C Cd 0.762714(15) 1.289196(10) -0.605863(16)
Cd1_2 Cd 1.762714(15) 1.210804(10) -0.105863(16)
O1B O 1.2762(2) 0.94072(13) 0.1404(2)
O2B O 1.1499(2) 0.90228(12) -0.0898(2)
O3B O 0.82876(19) 1.19741(12) -0.3219(2)
O4B O 0.9528(2) 1.21340(10) -0.4792(2)
O4A O 0.9528(2) 1.28660(10) 0.0208(2)
O4C O 1.0472(2) 0.71340(10) -0.0208(2)
O5B O 1.48208(18) 1.18016(15) -0.27693(19)
O6B O 1.5691(2) 1.21953(11) -0.0361(2)
O6B_2 O 0.5691(2) 1.21953(11) -0.0361(2)
O6_2 O 1.4309(2) 0.78047(11) 0.0361(2)
O7B O 1.33084(18) 0.65652(12) 0.23968(19)
H1B H 1.3696 0.6069 0.2418
H2B H 1.2995 0.6578 0.3159
C1B C 1.2073(2) 0.95952(14) 0.0054(3)
C2B C 1.1975(2) 1.05414(15) -0.0411(3)
H5B H 1.1875 1.0886 0.0445
C3B C 1.0742(2) 1.07393(17) -0.1825(3)
H6B H 1.0809 1.0399 -0.2688
H7B H 0.9884 1.0588 -0.1628
C4B C 1.0743(2) 1.17053(14) -0.2202(2)
H8B H 1.0736 1.2027 -0.1284
C5B C 1.2082(2) 1.19413(17) -0.2548(3)
H9B H 1.2068 1.2550 -0.2807
H10B H 1.2146 1.1610 -0.3422
C6B C 1.3336(2) 1.17535(15) -0.1169(2)
H11B H 1.3288 1.2120 -0.0315
C7B C 1.3346(2) 1.07983(15) -0.0684(3)
H12B H 1.4106 1.0705 0.0248
H13B H 1.3497 1.0433 -0.1477
C8B C 0.9440(3) 1.19495(15) -0.3474(3)
C9B C 1.4702(2) 1.19249(15) -0.1476(3)
O8 O 0.0944(2) 0.11179(17) 0.3498(3)
H3 H 0.0394 0.1221 0.2607
H4 H 0.0510 0.1256 0.4137
C10 C 0.4166(3) 0.0707(2) 0.4216(4)
H14 H 0.4106 0.0608 0.3154
H15 H 0.3641 0.1225 0.4265
C11 C 0.3557(3) -0.00568(18) 0.4817(3)
H16 H 0.2612 -0.0151 0.4169
H17 H 0.3530 0.0071 0.5842
N1 N 0.5646(2) 0.08325(15) 0.5147(3)
H18 H 0.6013 0.1267 0.4744
H19 H 0.5691 0.0981 0.6109
C10B C 0.5834(3) -0.0707(2) 0.5784(4)
H14B H 0.5894 -0.0608 0.6846
H15B H 0.6359 -0.1225 0.5735
C11B C 0.6443(3) 0.00568(18) 0.5183(3)
H16B H 0.7388 0.0151 0.5831
H17B H 0.6470 -0.0071 0.4158
N1B N 0.4354(2) -0.08325(15) 0.4853(3)
H18B H 0.3987 -0.1267 0.5256
H19B H 0.4309 -0.0981 0.3891
loop_
_geom_bond_atom_site_label_1
_geom_bond_atom_site_label_2
_geom_bond_site_symmetry_1
_geom_bond_site_symmetry_2
Cd1 O1 1_555 1_555
O1 C1 1_555 1_555
O2 Cd1 1_555 1_555
O3 C8 1_555 1_555
O4 C8 1_555 1_555
O5 C9 1_555 1_555
O6 C9 1_555 1_555
O7 Cd1 1_555 1_555
H1 O7 1_555 1_555
H2 O7 1_555 1_555
O8 H3 1_555 1_555
H4 O8 1_555 1_555
C1 O2 1_555 1_555
C2 C1 1_555 1_555
H5 C2 1_555 1_555
C3 C2 1_555 1_555
H6 C3 1_555 1_555
H7 C3 1_555 1_555
C4 C3 1_555 1_555
H8 C4 1_555 1_555
C5 C4 1_555 1_555
H9 C5 1_555 1_555
H10 C5 1_555 1_555
C6 C5 1_555 1_555
H11 C6 1_555 1_555
C7 C2 1_555 1_555
H12 C7 1_555 1_555
H13 C7 1_555 1_555
C8 C4 1_555 1_555
C9 C6 1_555 1_555
C10 H14 1_555 1_555
H15 C10 1_555 1_555
C11 C10 1_555 1_555
H16 C11 1_555 1_555
H17 C11 1_555 1_555
N1 C10 1_555 1_555
H18 N1 1_555 1_555
H19 N1 1_555 1_555
Cd1B O3 1_555 1_555
Cd1A O4 1_555 1_555
Cd1B_2 O6 1_555 1_555
Cd1C O4B 1_555 1_555
Cd1_2 O6B 1_555 1_555
O1B Cd1B 1_555 1_555
O2B Cd1B 1_555 1_555
O3B Cd1 1_555 1_555
O4B C8B 1_555 1_555
O4A Cd1 1_555 1_555
O4C Cd1B 1_555 1_555
O5B C9B 1_555 1_555
O6B C9B 1_555 1_555
O6B_2 Cd1 1_555 1_555
O6_2 Cd1B 1_555 1_555
O7B Cd1B 1_555 1_555
H1B O7B 1_555 1_555
H2B O7B 1_555 1_555
C1B O1B 1_555 1_555
C2B C1B 1_555 1_555
H5B C2B 1_555 1_555
C3B C2B 1_555 1_555
H6B C3B 1_555 1_555
H7B C3B 1_555 1_555
C4B C3B 1_555 1_555
H8B C4B 1_555 1_555
C5B C4B 1_555 1_555
H9B C5B 1_555 1_555
H10B C5B 1_555 1_555
C6B C5B 1_555 1_555
H11B C6B 1_555 1_555
C7B C2B 1_555 1_555
H12B C7B 1_555 1_555
H13B C7B 1_555 1_555
C8B O3B 1_555 1_555
C9B C6B 1_555 1_555
C10B H14B 1_555 1_555
H15B C10B 1_555 1_555
C11B N1 1_555 1_555
H16B C11B 1_555 1_555
H17B C11B 1_555 1_555
N1B C11 1_555 1_555
H18B N1B 1_555 1_555
H19B N1B 1_555 1_555
C6 C7 1_555 1_555
O2B C1B 1_555 1_555
C4B C8B 1_555 1_555
C6B C7B 1_555 1_555
C10B C11B 1_555 1_555
C10B N1B 1_555 1_555

#END
