
#######################################################################
#
#                 Cambridge Crystallographic Data Centre
#                                CCDC 
#
#######################################################################
#
# If this CIF has been generated from an entry in the Cambridge 
# Structural Database, then it will include bibliographic, chemical, 
# crystal, experimental, refinement or atomic coordinate data resulting 
# from the CCDC's data processing and validation procedures.
#
#######################################################################

data_DEJVAQ
_symmetry_cell_setting           triclinic
_symmetry_space_group_name_H-M   'P -1'
_symmetry_Int_Tables_number      2
_space_group_name_Hall           '-P 1'
loop_
_symmetry_equiv_pos_site_id
_symmetry_equiv_pos_as_xyz
1 x,y,z
2 -x,-y,-z
_cell_length_a                   8.246(17)
_cell_length_b                   10.58(2)
_cell_length_c                   16.79(3)
_cell_angle_alpha                90.34(3)
_cell_angle_beta                 90.21(4)
_cell_angle_gamma                93.52(3)
_cell_volume                     1462
loop_
_atom_site_label
_atom_site_type_symbol
_atom_site_fract_x
_atom_site_fract_y
_atom_site_fract_z
La1 La 0.82324(4) 0.69378(3) 0.508083(17)
P1 P 0.52634(17) 0.89328(13) 0.61506(8)
P2 P 1.05596(17) 1.03149(14) 0.63366(8)
P3 P 0.55411(17) 0.41862(13) 0.60283(8)
P4 P 0.02737(17) 0.52585(13) 0.65929(7)
N1 N 0.7487(5) 1.0336(4) 0.7108(2)
H1 H 0.7684 0.9514 0.7208
N2 N 0.3451(5) 0.5171(4) 0.7191(2)
H2 H 0.3125 0.4333 0.7186
C1 C 0.7137(7) 1.0538(5) 0.8620(3)
C2 C 0.8141(7) 1.1378(6) 0.9065(3)
H3 H 0.8617 1.2095 0.8822
C3 C 0.8446(8) 1.1169(6) 0.9859(3)
H4 H 0.9118 1.1745 1.0147
C4 C 0.7755(7) 1.0109(6) 1.0225(3)
C5 C 0.6806(9) 0.9228(6) 0.9781(3)
H5 H 0.6376 0.8491 1.0020
C6 C 0.6502(8) 0.9450(6) 0.8984(3)
H6 H 0.5862 0.8860 0.8691
C7 C 0.6563(7) 1.0862(6) 0.7806(3)
H7 H 0.6608 1.1777 0.7762
H8 H 0.5431 1.0561 0.7756
C8 C 0.6440(7) 1.0389(5) 0.6367(3)
H9 H 0.7134 1.0599 0.5916
H10 H 0.5704 1.1064 0.6431
C9 C 0.9057(7) 1.1065(5) 0.6967(3)
H11 H 0.9560 1.1256 0.7480
H12 H 0.8823 1.1865 0.6726
C10 C 0.7941(8) 0.9887(6) 1.1094(3)
C11 C 0.4496(7) 0.5444(6) 0.7915(3)
H13 H 0.4926 0.6317 0.7893
H14 H 0.5411 0.4910 0.7895
C12 C 0.1966(6) 0.5933(5) 0.7200(3)
H15 H 0.1600 0.6009 0.7745
H16 H 0.2266 0.6779 0.7010
C13 C 0.4447(6) 0.5460(5) 0.6456(3)
H17 H 0.3727 0.5759 0.6049
H18 H 0.5230 0.6155 0.6583
C14 C 0.3649(7) 0.5239(6) 0.8698(3)
C15 C 0.3921(8) 0.6118(6) 0.9296(3)
H19 H 0.4575 0.6849 0.9198
C16 C 0.3241(8) 0.5936(6) 1.0038(3)
H20 H 0.3451 0.6537 1.0438
C17 C 0.2253(7) 0.4870(6) 1.0193(3)
C18 C 0.1957(8) 0.3992(6) 0.9592(3)
H21 H 0.1291 0.3267 0.9687
C19 C 0.2644(9) 0.4183(6) 0.8851(3)
H22 H 0.2423 0.3588 0.8449
C20 C 0.1511(7) 0.4638(6) 1.0992(3)
O1 O 0.7444(9) 0.8926(5) 1.1405(3)
O2 O 0.8656(6) 1.0826(5) 1.1491(2)
H23 H 0.8587 1.0683 1.1970
O3 O 0.0757(6) 0.3660(5) 1.1159(2)
O4 O 0.1760(6) 0.5614(4) 1.1480(2)
H24 H 0.1318 0.5454 1.1908
O5 O 0.4206(5) 0.9267(4) 0.5442(2)
O6 O 0.4186(5) 0.8607(4) 0.6872(2)
H25 H 0.3329 0.8955 0.6829
O7 O 0.6434(5) 0.7940(3) 0.6002(2)
O8 O 0.9693(5) 0.9479(4) 0.5689(2)
H26 H 0.9874 0.9793 0.5250
O9 O 1.1550(5) 1.1398(4) 0.5967(2)
O10 O 1.1476(5) 0.9527(4) 0.6919(2)
O11 O 0.6750(5) 0.4816(4) 0.5466(2)
O12 O 0.6443(5) 0.3551(4) 0.6735(2)
H27 H 0.7352 0.3900 0.6792
O13 O 0.4326(5) 0.3220(4) 0.5688(2)
O14 O -0.0689(5) 0.4333(4) 0.7126(2)
O15 O -0.0678(5) 0.6391(4) 0.6379(2)
O16 O 0.0952(5) 0.4603(4) 0.5876(2)
O17 O 1.1399(5) 0.7326(4) 0.4927(2)
La1A La 1.17676(4) 1.30622(3) 0.491917(17)
La1A_2 La 0.17676(4) 0.30622(3) 0.491917(17)
La1_2 La -0.17676(4) 0.69378(3) 0.508083(17)
O9A O 0.8450(5) 0.8602(4) 0.4033(2)
O13A O 0.5674(5) 0.6780(4) 0.4312(2)
O15_2 O 0.9322(5) 0.6391(4) 0.6379(2)
O16A O 0.9048(5) 0.5397(4) 0.4124(2)
O18 O 0.6907(6) 0.7457(4) 0.2722(2)
O19 O 0.8103(6) 0.7913(4) 0.7568(2)
loop_
_geom_bond_atom_site_label_1
_geom_bond_atom_site_label_2
_geom_bond_site_symmetry_1
_geom_bond_site_symmetry_2
La1 O7 1_555 1_555
P1 C8 1_555 1_555
P2 C9 1_555 1_555
P3 C13 1_555 1_555
P4 C12 1_555 1_555
N1 H1 1_555 1_555
N2 H2 1_555 1_555
C1 C2 1_555 1_555
C2 H3 1_555 1_555
C3 C2 1_555 1_555
H4 C3 1_555 1_555
C4 C3 1_555 1_555
C5 C4 1_555 1_555
H5 C5 1_555 1_555
C6 C1 1_555 1_555
H6 C6 1_555 1_555
C7 N1 1_555 1_555
H7 C7 1_555 1_555
H8 C7 1_555 1_555
C8 N1 1_555 1_555
H9 C8 1_555 1_555
H10 C8 1_555 1_555
C9 N1 1_555 1_555
H11 C9 1_555 1_555
H12 C9 1_555 1_555
C10 C4 1_555 1_555
C11 N2 1_555 1_555
H13 C11 1_555 1_555
H14 C11 1_555 1_555
C12 N2 1_555 1_555
H15 C12 1_555 1_555
H16 C12 1_555 1_555
C13 N2 1_555 1_555
H17 C13 1_555 1_555
H18 C13 1_555 1_555
C14 C11 1_555 1_555
C15 C14 1_555 1_555
H19 C15 1_555 1_555
C16 C15 1_555 1_555
H20 C16 1_555 1_555
C17 C16 1_555 1_555
C18 C17 1_555 1_555
H21 C18 1_555 1_555
C19 C14 1_555 1_555
H22 C19 1_555 1_555
C20 C17 1_555 1_555
O1 C10 1_555 1_555
O2 C10 1_555 1_555
H23 O2 1_555 1_555
O3 C20 1_555 1_555
O4 C20 1_555 1_555
H24 O4 1_555 1_555
O5 P1 1_555 1_555
O6 P1 1_555 1_555
H25 O6 1_555 1_555
O7 P1 1_555 1_555
O8 P2 1_555 1_555
H26 O8 1_555 1_555
O9 P2 1_555 1_555
O10 P2 1_555 1_555
O11 La1 1_555 1_555
O12 P3 1_555 1_555
H27 O12 1_555 1_555
O13 P3 1_555 1_555
O14 P4 1_555 1_555
O15 P4 1_555 1_555
O16 P4 1_555 1_555
O17 La1 1_555 1_555
La1A O9 1_555 1_555
La1A_2 O13 1_555 1_555
La1_2 O15 1_555 1_555
O9A La1 1_555 1_555
O13A La1 1_555 1_555
O15_2 La1 1_555 1_555
O16A La1 1_555 1_555
P3 O11 1_555 1_555
C1 C7 1_555 1_555
C5 C6 1_555 1_555
C18 C19 1_555 1_555
O16 La1A_2 1_555 1_555

#END
