
#######################################################################
#
#                 Cambridge Crystallographic Data Centre
#                                CCDC 
#
#######################################################################
#
# If this CIF has been generated from an entry in the Cambridge 
# Structural Database, then it will include bibliographic, chemical, 
# crystal, experimental, refinement or atomic coordinate data resulting 
# from the CCDC's data processing and validation procedures.
#
#######################################################################

data_DEJVUK
_symmetry_cell_setting           triclinic
_symmetry_space_group_name_H-M   'P -1'
_symmetry_Int_Tables_number      2
_space_group_name_Hall           '-P 1'
loop_
_symmetry_equiv_pos_site_id
_symmetry_equiv_pos_as_xyz
1 x,y,z
2 -x,-y,-z
_cell_length_a                   12.391(3)
_cell_length_b                   12.944(3)
_cell_length_c                   14.430(3)
_cell_angle_alpha                85.430(18)
_cell_angle_beta                 87.810(17)
_cell_angle_gamma                68.987(18)
_cell_volume                     2153.52
loop_
_atom_site_label
_atom_site_type_symbol
_atom_site_fract_x
_atom_site_fract_y
_atom_site_fract_z
Ho1 Ho 0.78681(4) 0.56649(4) 0.50567(4)
N1 N 0.6475(8) 0.5846(8) 0.6329(7)
C1 C 0.5984(9) 0.6076(9) 0.7221(8)
Ho2 Ho 0.95882(4) 0.40334(4) 0.13708(4)
N2 N 0.6143(7) 0.5071(8) 0.6003(7)
C2 C 0.6097(11) 0.6774(11) 0.7851(9)
H1 H 0.6558 0.7219 0.7722
N3 N 0.5453(7) 0.4803(7) 0.6638(7)
H2 H 0.5134 0.4306 0.6574
C3 C 0.5497(12) 0.6788(13) 0.8687(9)
H3 H 0.5560 0.7240 0.9155
N4 N 0.6523(7) 0.7442(8) 0.4389(7)
C4 C 0.4804(11) 0.6145(13) 0.8845(9)
H4 H 0.4380 0.6208 0.9414
N5 N 0.6183(7) 0.6605(7) 0.4176(6)
C5 C 0.4694(11) 0.5445(10) 0.8249(9)
H5 H 0.4231 0.5004 0.8389
N6 N 0.5201(8) 0.6976(8) 0.3681(7)
C6 C 0.5312(10) 0.5405(10) 0.7401(8)
N7 N 0.7973(7) 0.4310(7) 0.3937(6)
C7 C 0.5716(8) 0.8389(8) 0.4020(8)
N8 N 0.8388(8) 0.4459(8) 0.3089(7)
C8 C 0.5638(10) 0.9522(10) 0.3992(9)
H6 H 0.6203 0.9735 0.4268
N9 N 0.8300(8) 0.3752(8) 0.2508(6)
C9 C 0.4705(10) 1.0273(10) 0.3547(9)
H7 H 0.4627 1.1032 0.3516
N10 N 0.8816(8) 0.3186(7) 0.0350(6)
C10 C 0.3846(10) 0.9993(10) 0.3129(9)
H8 H 0.3206 1.0562 0.2841
N11 N 0.9558(8) 0.2304(7) 0.0862(6)
C11 C 0.3925(9) 0.8902(10) 0.3131(8)
H9 H 0.3358 0.8706 0.2840
N12 N 0.9468(8) 0.1333(8) 0.0750(7)
C12 C 0.4888(9) 0.8081(9) 0.3587(8)
N13 N 0.9280(7) 0.6187(7) 0.4091(6)
C13 C 0.7567(9) 0.3435(9) 0.3893(8)
N14 N 1.0366(7) 0.5671(7) 0.4403(6)
C14 C 0.7024(11) 0.2945(10) 0.4574(8)
H10 H 0.6861 0.3187 0.5185
N15 N 1.1105(8) 0.6109(8) 0.3973(7)
C15 C 0.6746(12) 0.2074(11) 0.4276(9)
H11 H 0.6385 0.1701 0.4704
N16 N 0.9096(8) 0.6993(8) 0.7410(6)
C16 C 0.6976(11) 0.1726(11) 0.3373(10)
H12 H 0.6757 0.1130 0.3214
N17 N 0.8696(8) 0.6360(8) 0.6889(7)
C17 C 0.7495(10) 0.2197(10) 0.2712(9)
H13 H 0.7655 0.1949 0.2103
N18 N 0.8406(7) 0.6847(7) 0.6049(6)
C18 C 0.7785(9) 0.3092(10) 0.3001(8)
N19 N 0.7971(8) 0.5777(8) 0.0907(7)
C19 C 0.8199(9) 0.2717(9) -0.0143(7)
N20 N 0.8765(8) 0.5571(8) 0.0240(6)
C20 C 0.7283(9) 0.3235(11) -0.0785(8)
H14 H 0.7012 0.4008 -0.0961
N21 N 0.8698(8) 0.6462(8) -0.0327(6)
C21 C 0.6821(11) 0.2521(11) -0.1131(8)
H15 H 0.6204 0.2820 -0.1559
N22 N 1.0431(9) 0.5432(8) 0.1652(7)
H16 H 1.0740 0.5623 0.1113
H17 H 1.0994 0.5147 0.2086
H18 H 0.9870 0.6043 0.1860
C22 C 0.7218(12) 0.1370(12) -0.0883(10)
H19 H 0.6866 0.0922 -0.1148
C23 C 0.8099(11) 0.0888(10) -0.0268(9)
H20 H 0.8365 0.0113 -0.0101
C24 C 0.8597(9) 0.1578(10) 0.0109(8)
C25 C 0.9352(9) 0.7005(9) 0.3432(8)
C26 C 0.8478(11) 0.7798(11) 0.2861(9)
H21 H 0.7695 0.7842 0.2889
C27 C 0.8847(11) 0.8494(11) 0.2266(8)
H22 H 0.8296 0.9029 0.1868
C28 C 0.9997(11) 0.8452(10) 0.2218(8)
H23 H 1.0196 0.8968 0.1807
C29 C 1.0830(11) 0.7683(10) 0.2754(8)
H24 H 1.1612 0.7639 0.2709
C30 C 1.0498(9) 0.6965(8) 0.3368(7)
C31 C 0.9047(8) 0.7900(9) 0.6850(8)
C32 C 0.9355(10) 0.8840(10) 0.6999(8)
H25 H 0.9642 0.8917 0.7581
C33 C 0.9223(10) 0.9625(9) 0.6271(8)
H26 H 0.9417 1.0259 0.6349
C34 C 0.8799(10) 0.9500(10) 0.5407(9)
H27 H 0.8731 1.0051 0.4913
C35 C 0.8484(9) 0.8616(11) 0.5252(8)
H28 H 0.8180 0.8558 0.4672
C36 C 0.8625(9) 0.7815(10) 0.5974(7)
C37 C 0.7340(9) 0.6903(9) 0.0789(7)
C38 C 0.6418(9) 0.7591(11) 0.1323(9)
H29 H 0.6114 0.7307 0.1857
C39 C 0.5997(10) 0.8676(11) 0.1029(9)
H30 H 0.5379 0.9163 0.1370
C40 C 0.6430(12) 0.9124(11) 0.0237(10)
H31 H 0.6086 0.9893 0.0056
C41 C 0.7358(10) 0.8454(10) -0.0285(9)
H32 H 0.7677 0.8753 -0.0801
C42 C 0.7799(8) 0.7299(9) 0.0001(7)
Ho1A Ho 1.21319(4) 0.43351(4) 0.49433(4)
Ho2A Ho 1.04118(4) 0.59666(4) 0.86292(4)
Ho2A_2 Ho 1.04118(4) 0.59666(4) -0.13708(4)
N14A N 0.9634(7) 0.4329(7) 0.5597(6)
N15A N 0.8895(8) 0.3891(8) 0.6027(7)
N16A N 1.0904(8) 0.3007(8) 0.2590(6)
N21A N 1.1302(8) 0.3538(8) 0.0327(6)
loop_
_geom_bond_atom_site_label_1
_geom_bond_atom_site_label_2
_geom_bond_site_symmetry_1
_geom_bond_site_symmetry_2
Ho1 N1 1_555 1_555
N1 C1 1_555 1_555
C1 C2 1_555 1_555
Ho2 N8 1_555 1_555
N2 Ho1 1_555 1_555
C2 H1 1_555 1_555
N3 N2 1_555 1_555
H2 N3 1_555 1_555
C3 C2 1_555 1_555
H3 C3 1_555 1_555
N4 Ho1 1_555 1_555
C4 C3 1_555 1_555
H4 C4 1_555 1_555
N5 Ho1 1_555 1_555
C5 C4 1_555 1_555
H5 C5 1_555 1_555
N6 N5 1_555 1_555
C6 C1 1_555 1_555
N7 Ho1 1_555 1_555
C7 N4 1_555 1_555
N8 N7 1_555 1_555
C8 C7 1_555 1_555
H6 C8 1_555 1_555
N9 Ho2 1_555 1_555
C9 C8 1_555 1_555
H7 C9 1_555 1_555
N10 Ho2 1_555 1_555
C10 C9 1_555 1_555
H8 C10 1_555 1_555
N11 Ho2 1_555 1_555
C11 C10 1_555 1_555
H9 C11 1_555 1_555
N12 N11 1_555 1_555
C12 N6 1_555 1_555
N13 Ho1 1_555 1_555
C13 N7 1_555 1_555
N14 N13 1_555 1_555
C14 C13 1_555 1_555
H10 C14 1_555 1_555
N15 N14 1_555 1_555
C15 C14 1_555 1_555
H11 C15 1_555 1_555
N16 N17 1_555 1_555
C16 C15 1_555 1_555
H12 C16 1_555 1_555
N17 N18 1_555 1_555
C17 C16 1_555 1_555
H13 C17 1_555 1_555
N18 Ho1 1_555 1_555
C18 N9 1_555 1_555
N19 Ho2 1_555 1_555
C19 N10 1_555 1_555
N20 Ho2 1_555 1_555
C20 C19 1_555 1_555
H14 C20 1_555 1_555
N21 N20 1_555 1_555
C21 C20 1_555 1_555
H15 C21 1_555 1_555
N22 Ho2 1_555 1_555
H16 N22 1_555 1_555
H17 N22 1_555 1_555
H18 N22 1_555 1_555
C22 C21 1_555 1_555
H19 C22 1_555 1_555
C23 C22 1_555 1_555
H20 C23 1_555 1_555
C24 N12 1_555 1_555
C25 N13 1_555 1_555
C26 C25 1_555 1_555
H21 C26 1_555 1_555
C27 C26 1_555 1_555
H22 C27 1_555 1_555
C28 C27 1_555 1_555
H23 C28 1_555 1_555
C29 C28 1_555 1_555
H24 C29 1_555 1_555
C30 N15 1_555 1_555
C31 N16 1_555 1_555
C32 C31 1_555 1_555
H25 C32 1_555 1_555
C33 C32 1_555 1_555
H26 C33 1_555 1_555
C34 C33 1_555 1_555
H27 C34 1_555 1_555
C35 C34 1_555 1_555
H28 C35 1_555 1_555
C36 N18 1_555 1_555
C37 N19 1_555 1_555
C38 C37 1_555 1_555
H29 C38 1_555 1_555
C39 C38 1_555 1_555
H30 C39 1_555 1_555
C40 C39 1_555 1_555
H31 C40 1_555 1_555
C41 C40 1_555 1_555
H32 C41 1_555 1_555
C42 N21 1_555 1_555
Ho1A N14 1_555 1_555
Ho2A N16 1_555 1_555
Ho2A_2 N21 1_555 1_555
N14A Ho1 1_555 1_555
N15A Ho1 1_555 1_555
N16A Ho2 1_555 1_555
N21A Ho2 1_555 1_555
N1 N2 1_555 1_555
N3 C6 1_555 1_555
N4 N5 1_555 1_555
C5 C6 1_555 1_555
C7 C12 1_555 1_555
N8 N9 1_555 1_555
N10 N11 1_555 1_555
C11 C12 1_555 1_555
C13 C18 1_555 1_555
N15 Ho1A 1_555 1_555
C17 C18 1_555 1_555
N19 N20 1_555 1_555
C19 C24 1_555 1_555
C23 C24 1_555 1_555
C25 C30 1_555 1_555
C29 C30 1_555 1_555
C31 C36 1_555 1_555
C35 C36 1_555 1_555
C37 C42 1_555 1_555
C41 C42 1_555 1_555
N14A N15A 1_555 1_555

#END
