
#######################################################################
#
#                 Cambridge Crystallographic Data Centre
#                                CCDC 
#
#######################################################################
#
# If this CIF has been generated from an entry in the Cambridge 
# Structural Database, then it will include bibliographic, chemical, 
# crystal, experimental, refinement or atomic coordinate data resulting 
# from the CCDC's data processing and validation procedures.
#
#######################################################################

data_DEJVOE
_symmetry_cell_setting           monoclinic
_symmetry_space_group_name_H-M   'C 2/c'
_symmetry_Int_Tables_number      15
_space_group_name_Hall           '-C 2yn'
loop_
_symmetry_equiv_pos_site_id
_symmetry_equiv_pos_as_xyz
1 x,y,z
2 1/2+x,1/2+y,z
3 -x,y,1/2-z
4 1/2-x,1/2+y,1/2-z
5 -x,-y,-z
6 1/2-x,1/2-y,-z
7 x,-y,1/2+z
8 1/2+x,1/2-y,1/2+z
_cell_length_a                   13.852(4)
_cell_length_b                   17.897(4)
_cell_length_c                   10.715(2)
_cell_angle_alpha                90
_cell_angle_beta                 115.897(17)
_cell_angle_gamma                90
_cell_volume                     2389.6
loop_
_atom_site_label
_atom_site_type_symbol
_atom_site_fract_x
_atom_site_fract_y
_atom_site_fract_z
Ce1 Ce 0.0000 0.0000 0.0000
N1 N -0.1778(9) 0.0279(4) 0.0149(9)
C1 C -0.2458(10) 0.0391(4) 0.1671(10)
N2 N -0.1062(8) 0.0057(5) 0.1400(8)
C2 C -0.3225(11) 0.0583(5) 0.2149(12)
H1 H -0.3095 0.0511 0.3068
N3 N -0.1432(8) 0.0121(2) 0.2370(8)
C3 C -0.4164(12) 0.0879(5) 0.1208(12)
H2 H -0.4685 0.1008 0.1497
N4 N 0.0466(10) 0.1390(4) 0.0662(11)
C4 C -0.4381(12) 0.0999(6) -0.0196(12)
H3 H -0.5032 0.1212 -0.0795
N5 N 0.0025(10) 0.1412(4) -0.0704(10)
C5 C -0.3659(13) 0.0811(5) -0.0689(12)
H4 H -0.3810 0.0880 -0.1617
N6 N 0.0342(10) 0.2029(4) -0.1146(10)
C6 C -0.2665(10) 0.0503(4) 0.0272(9)
C7 C 0.1032(11) 0.2412(4) 0.0015(11)
C8 C 0.1623(13) 0.3069(5) 0.0162(15)
H5 H 0.1574 0.3340 -0.0604
C9 C 0.2274(13) 0.3292(5) 0.1486(18)
H6 H 0.2684 0.3723 0.1621
C10 C 0.2343(15) 0.2886(6) 0.2669(17)
H7 H 0.2799 0.3054 0.3553
C11 C 0.1743(14) 0.2244(5) 0.2524(13)
H8 H 0.1763 0.1983 0.3285
C12 C 0.1106(12) 0.2013(4) 0.1162(11)
Ce1F Ce 0.0000 0.0000 0.5000
Ce1F_2 Ce 0.0000 0.0000 -0.5000
N1D N 0.1778(9) -0.0279(4) -0.0149(9)
C1D C 0.2458(10) -0.0391(4) -0.1671(10)
N2D N 0.1062(8) -0.0057(5) -0.1400(8)
C2D C 0.3225(11) -0.0583(5) -0.2149(12)
H1D H 0.3095 -0.0511 -0.3068
N3D N 0.1432(8) -0.0121(2) -0.2370(8)
N3F N -0.1432(8) -0.0121(2) -0.2630(8)
N3B N 0.1432(8) 0.0121(2) 0.2630(8)
C3D C 0.4164(12) -0.0879(5) -0.1208(12)
H2D H 0.4685 -0.1008 -0.1497
N4D N -0.0466(10) -0.1390(4) -0.0662(11)
C4D C 0.4381(12) -0.0999(6) 0.0196(12)
H3D H 0.5032 -0.1212 0.0795
N5D N -0.0025(10) -0.1412(4) 0.0704(10)
C5D C 0.3659(13) -0.0811(5) 0.0689(12)
H4D H 0.3810 -0.0880 0.1617
N6D N -0.0342(10) -0.2029(4) 0.1146(10)
C6D C 0.2665(10) -0.0503(4) -0.0272(9)
C7D C -0.1032(11) -0.2412(4) -0.0015(11)
C8D C -0.1623(13) -0.3069(5) -0.0162(15)
H5D H -0.1574 -0.3340 0.0604
C9D C -0.2274(13) -0.3292(5) -0.1486(18)
H6D H -0.2684 -0.3723 -0.1621
C10D C -0.2343(15) -0.2886(6) -0.2669(17)
H7D H -0.2799 -0.3054 -0.3553
C11D C -0.1743(14) -0.2244(5) -0.2524(13)
H8D H -0.1763 -0.1983 -0.3285
C12D C -0.1106(12) -0.2013(4) -0.1162(11)
loop_
_geom_bond_atom_site_label_1
_geom_bond_atom_site_label_2
_geom_bond_site_symmetry_1
_geom_bond_site_symmetry_2
Ce1 N1 1_555 1_555
N1 N2 1_555 1_555
C1 C2 1_555 1_555
N2 Ce1 1_555 1_555
C2 H1 1_555 1_555
N3 C1 1_555 1_555
C3 C2 1_555 1_555
H2 C3 1_555 1_555
N4 Ce1 1_555 1_555
C4 C3 1_555 1_555
H3 C4 1_555 1_555
N5 Ce1 1_555 1_555
C5 C4 1_555 1_555
H4 C5 1_555 1_555
N6 N5 1_555 1_555
C6 N1 1_555 1_555
C7 N6 1_555 1_555
C8 C7 1_555 1_555
H5 C8 1_555 1_555
C9 C8 1_555 1_555
H6 C9 1_555 1_555
C10 C9 1_555 1_555
H7 C10 1_555 1_555
C11 C10 1_555 1_555
H8 C11 1_555 1_555
C12 N4 1_555 1_555
Ce1F N3 1_555 1_555
Ce1F_2 N3D 1_555 1_555
N1D Ce1 1_555 1_555
C1D C2D 1_555 1_555
N2D Ce1 1_555 1_555
C2D H1D 1_555 1_555
N3D C1D 1_555 1_555
N3F Ce1 1_555 1_555
N3B Ce1 1_555 1_555
C3D C2D 1_555 1_555
H2D C3D 1_555 1_555
N4D Ce1 1_555 1_555
C4D C3D 1_555 1_555
H3D C4D 1_555 1_555
N5D Ce1 1_555 1_555
C5D C4D 1_555 1_555
H4D C5D 1_555 1_555
N6D N5D 1_555 1_555
C6D N1D 1_555 1_555
C7D N6D 1_555 1_555
C8D C7D 1_555 1_555
H5D C8D 1_555 1_555
C9D C8D 1_555 1_555
H6D C9D 1_555 1_555
C10D C9D 1_555 1_555
H7D C10D 1_555 1_555
C11D C10D 1_555 1_555
H8D C11D 1_555 1_555
C12D N4D 1_555 1_555
C1 C6 1_555 1_555
N2 N3 1_555 1_555
N4 N5 1_555 1_555
C5 C6 1_555 1_555
C7 C12 1_555 1_555
C11 C12 1_555 1_555
N1D N2D 1_555 1_555
C1D C6D 1_555 1_555
N2D N3D 1_555 1_555
N4D N5D 1_555 1_555
C5D C6D 1_555 1_555
C7D C12D 1_555 1_555
C11D C12D 1_555 1_555

#END
