
#######################################################################
#
#                 Cambridge Crystallographic Data Centre
#                                CCDC 
#
#######################################################################
#
# If this CIF has been generated from an entry in the Cambridge 
# Structural Database, then it will include bibliographic, chemical, 
# crystal, experimental, refinement or atomic coordinate data resulting 
# from the CCDC's data processing and validation procedures.
#
#######################################################################

data_DEJVEU
_symmetry_cell_setting           triclinic
_symmetry_space_group_name_H-M   'P -1'
_symmetry_Int_Tables_number      2
_space_group_name_Hall           '-P 1'
loop_
_symmetry_equiv_pos_site_id
_symmetry_equiv_pos_as_xyz
1 x,y,z
2 -x,-y,-z
_cell_length_a                   5.752(4)
_cell_length_b                   9.382(5)
_cell_length_c                   22.050(15)
_cell_angle_alpha                101.507(16)
_cell_angle_beta                 92.62(2)
_cell_angle_gamma                98.155(19)
_cell_volume                     1150.86
loop_
_atom_site_label
_atom_site_type_symbol
_atom_site_fract_x
_atom_site_fract_y
_atom_site_fract_z
Er1 Er -0.10844(6) 0.69013(3) 0.501319(13)
P1 P 0.2051(5) 0.9434(2) 0.41863(9)
P2 P -0.3502(4) 0.4916(2) 0.58073(9)
N1 N 0.0852(16) 0.8371(9) 0.2933(3)
H1 H 0.1436 0.7877 0.3207
N2 N -0.1390(16) 0.6157(8) 0.6999(3)
H2 H -0.1778 0.6705 0.6724
O1 O -0.2588(19) 0.7734(13) 0.3174(5)
O2 O 0.1828(18) 0.5888(13) 0.6637(5)
C1 C 0.116(2) 0.9713(11) 0.3411(4)
H3 H -0.0314 1.0108 0.3430
H4 H 0.2339 1.0436 0.3296
C2 C 0.571(2) 1.0512(12) 0.1570(5)
H5 H 0.7193 1.1051 0.1561
C3 C 0.387(3) 1.0486(12) 0.1120(5)
C4 C -0.1127(19) 0.7439(13) 0.2842(4)
H6 H -0.1351 0.6593 0.2529
C5 C 0.175(2) 0.9701(13) 0.1121(5)
H7 H 0.0577 0.9679 0.0813
C6 C 0.446(2) 1.1323(13) 0.0622(5)
C7 C 0.129(2) 0.8914(12) 0.1588(4)
H8 H -0.0198 0.8389 0.1601
C8 C 0.265(2) 0.7993(11) 0.2518(4)
H9 H 0.2223 0.6971 0.2307
H10 H 0.4122 0.8074 0.2765
C9 C 0.307(2) 0.8927(11) 0.2029(4)
C10 C 0.523(3) 0.9702(13) 0.2027(5)
H11 H 0.6399 0.9697 0.2331
C11 C 0.081(2) 0.6651(11) 0.6991(5)
H12 H 0.1536 0.7534 0.7242
C12 C -0.2674(17) 0.4827(10) 0.6601(4)
H13 H -0.4100 0.4539 0.6794
H14 H -0.1721 0.4049 0.6589
C13 C -0.573(2) 0.4554(13) 0.8476(4)
H15 H -0.7195 0.3994 0.8479
C14 C -0.266(2) 0.6994(10) 0.7478(4)
H16 H -0.4136 0.7155 0.7294
H17 H -0.1723 0.7947 0.7649
C15 C -0.174(3) 0.5314(13) 0.8885(5)
H18 H -0.0519 0.5277 0.9169
C16 C -0.397(2) 0.4549(11) 0.8919(4)
C17 C -0.437(3) 0.3610(12) 0.9403(5)
C18 C -0.313(3) 0.6158(12) 0.7992(5)
C19 C -0.535(2) 0.5369(13) 0.8030(5)
H19 H -0.6587 0.5398 0.7749
C20 C -0.134(2) 0.6118(12) 0.8441(5)
H20 H 0.0142 0.6651 0.8434
O3 O 0.2313(14) 0.7883(8) 0.5687(3)
O4 O 0.6464(19) 1.2090(10) 0.0635(4)
O5 O 0.2800(17) 1.1316(10) 0.0207(4)
O6 O -0.6431(18) 0.2893(10) 0.9379(4)
O7 O -0.2758(16) 0.3687(9) 0.9798(4)
O8 O 0.4726(12) 0.9207(7) 0.4157(3)
H21 H 0.5563 1.0010 0.4200
O9 O 0.0650(12) 0.8069(7) 0.4314(3)
O10 O 0.1949(12) 1.0882(6) 0.4613(3)
O11 O -0.1419(10) 0.4665(6) 0.5398(2)
O12 O -0.3906(11) 0.6461(6) 0.5772(2)
O13 O -0.5615(12) 0.3702(7) 0.5620(3)
Er1A Er 0.10844(6) 1.30987(3) 0.498681(13)
Er1A_2 Er 0.10844(6) 0.30987(3) 0.498681(13)
Er1A_3 Er -0.89156(6) 0.30987(3) 0.498681(13)
O10A O -0.1949(12) 0.9118(6) 0.5387(3)
O11A O 0.1419(10) 0.5335(6) 0.4602(2)
O13A O -0.4385(12) 0.6298(7) 0.4380(3)
loop_
_geom_bond_atom_site_label_1
_geom_bond_atom_site_label_2
_geom_bond_site_symmetry_1
_geom_bond_site_symmetry_2
Er1 O3 1_555 1_555
P1 C1 1_555 1_555
P2 C12 1_555 1_555
N1 H1 1_555 1_555
N2 H2 1_555 1_555
O1 C4 1_555 1_555
O2 C11 1_555 1_555
C1 N1 1_555 1_555
H3 C1 1_555 1_555
H4 C1 1_555 1_555
C2 H5 1_555 1_555
C3 C2 1_555 1_555
C4 N1 1_555 1_555
H6 C4 1_555 1_555
C5 C3 1_555 1_555
H7 C5 1_555 1_555
C6 C3 1_555 1_555
C7 C5 1_555 1_555
H8 C7 1_555 1_555
C8 N1 1_555 1_555
H9 C8 1_555 1_555
H10 C8 1_555 1_555
C9 C7 1_555 1_555
C10 C2 1_555 1_555
H11 C10 1_555 1_555
C11 N2 1_555 1_555
H12 C11 1_555 1_555
C12 N2 1_555 1_555
H13 C12 1_555 1_555
H14 C12 1_555 1_555
C13 H15 1_555 1_555
C14 N2 1_555 1_555
H16 C14 1_555 1_555
H17 C14 1_555 1_555
C15 H18 1_555 1_555
C16 C13 1_555 1_555
C17 C16 1_555 1_555
C18 C14 1_555 1_555
C19 C13 1_555 1_555
H19 C19 1_555 1_555
C20 C15 1_555 1_555
H20 C20 1_555 1_555
O4 C6 1_555 1_555
O5 C6 1_555 1_555
O6 C17 1_555 1_555
O7 C17 1_555 1_555
O8 P1 1_555 1_555
H21 O8 1_555 1_555
O9 Er1 1_555 1_555
O10 P1 1_555 1_555
O11 Er1 1_555 1_555
O12 Er1 1_555 1_555
O13 P2 1_555 1_555
Er1A O10 1_555 1_555
Er1A_2 O11 1_555 1_555
Er1A_3 O13 1_555 1_555
O10A Er1 1_555 1_555
O11A Er1 1_555 1_555
O13A Er1 1_555 1_555
P1 O9 1_555 1_555
P2 O11 1_555 1_555
P2 O12 1_555 1_555
C8 C9 1_555 1_555
C9 C10 1_555 1_555
C15 C16 1_555 1_555
C18 C19 1_555 1_555
C18 C20 1_555 1_555
Er1A_2 O11A 1_555 1_555

#END
