
#######################################################################
#
#                 Cambridge Crystallographic Data Centre
#                                CCDC 
#
#######################################################################
#
# If this CIF has been generated from an entry in the Cambridge 
# Structural Database, then it will include bibliographic, chemical, 
# crystal, experimental, refinement or atomic coordinate data resulting 
# from the CCDC's data processing and validation procedures.
#
#######################################################################

data_DEJWEV
_symmetry_cell_setting           monoclinic
_symmetry_space_group_name_H-M   'C 2/c'
_symmetry_Int_Tables_number      15
_space_group_name_Hall           '-C 2yn'
loop_
_symmetry_equiv_pos_site_id
_symmetry_equiv_pos_as_xyz
1 x,y,z
2 1/2+x,1/2+y,z
3 -x,y,1/2-z
4 1/2-x,1/2+y,1/2-z
5 -x,-y,-z
6 1/2-x,1/2-y,-z
7 x,-y,1/2+z
8 1/2+x,1/2-y,1/2+z
_cell_length_a                   13.821(3)
_cell_length_b                   17.928(4)
_cell_length_c                   10.698(2)
_cell_angle_alpha                90
_cell_angle_beta                 115.85(3)
_cell_angle_gamma                90
_cell_volume                     2385.54
loop_
_atom_site_label
_atom_site_type_symbol
_atom_site_fract_x
_atom_site_fract_y
_atom_site_fract_z
Pr1 Pr 0.0000 0.0000 0.0000
N1 N 0.1433(4) 0.0106(4) 0.2639(5)
C1 C 0.2440(5) 0.0382(3) 0.3319(6)
N2 N 0.1058(3) 0.0029(6) 0.3591(4)
C2 C 0.3214(5) 0.0594(4) 0.2844(7)
H1 H 0.3079 0.0534 0.1919
N3 N 0.1765(4) 0.0263(3) 0.4843(5)
C3 C 0.4156(6) 0.0886(5) 0.3786(8)
H2 H 0.4675 0.1025 0.3498
N4 N 0.0335(5) 0.2013(3) -0.1134(6)
C4 C 0.4372(6) 0.0986(5) 0.5205(8)
H3 H 0.5030 0.1185 0.5820
N5 N 0.0023(5) 0.1400(4) -0.0702(7)
C5 C 0.3638(6) 0.0796(5) 0.5681(7)
H4 H 0.3776 0.0863 0.6606
N6 N 0.0440(6) 0.1384(4) 0.0675(7)
C6 C 0.2658(5) 0.0493(4) 0.4705(6)
C7 C 0.1007(5) 0.2404(4) 0.0022(8)
C8 C 0.1616(6) 0.3053(4) 0.0182(11)
H5 H 0.1581 0.3321 -0.0582
C9 C 0.2268(7) 0.3276(5) 0.1516(13)
H6 H 0.2692 0.3699 0.1659
C10 C 0.2307(8) 0.2877(6) 0.2672(12)
H7 H 0.2746 0.3053 0.3558
C11 C 0.1719(8) 0.2236(5) 0.2536(9)
H8 H 0.1751 0.1975 0.3304
C12 C 0.1065(6) 0.1998(4) 0.1162(8)
Pr1F Pr 0.0000 0.0000 0.5000
Pr1F_2 Pr 0.0000 0.0000 -0.5000
N1D N -0.1433(4) -0.0106(4) -0.2639(5)
C1D C -0.2440(5) -0.0382(3) -0.3319(6)
N2D N -0.1058(3) -0.0029(6) -0.3591(4)
N2F N 0.1058(3) -0.0029(6) -0.1409(4)
N2B N -0.1058(3) 0.0029(6) 0.1409(4)
C2D C -0.3214(5) -0.0594(4) -0.2844(7)
H1D H -0.3079 -0.0534 -0.1919
N3D N -0.1765(4) -0.0263(3) -0.4843(5)
N3F N 0.1765(4) -0.0263(3) -0.0157(5)
N3B N -0.1765(4) 0.0263(3) 0.0157(5)
C3D C -0.4156(6) -0.0886(5) -0.3786(8)
H2D H -0.4675 -0.1025 -0.3498
N4D N -0.0335(5) -0.2013(3) 0.1134(6)
C4D C -0.4372(6) -0.0986(5) -0.5205(8)
H3D H -0.5030 -0.1185 -0.5820
N5D N -0.0023(5) -0.1400(4) 0.0702(7)
C5D C -0.3638(6) -0.0796(5) -0.5681(7)
H4D H -0.3776 -0.0863 -0.6606
N6D N -0.0440(6) -0.1384(4) -0.0675(7)
C6D C -0.2658(5) -0.0493(4) -0.4705(6)
C7D C -0.1007(5) -0.2404(4) -0.0022(8)
C8D C -0.1616(6) -0.3053(4) -0.0182(11)
H5D H -0.1581 -0.3321 0.0582
C9D C -0.2268(7) -0.3276(5) -0.1516(13)
H6D H -0.2692 -0.3699 -0.1659
C10D C -0.2307(8) -0.2877(6) -0.2672(12)
H7D H -0.2746 -0.3053 -0.3558
C11D C -0.1719(8) -0.2236(5) -0.2536(9)
H8D H -0.1751 -0.1975 -0.3304
C12D C -0.1065(6) -0.1998(4) -0.1162(8)
loop_
_geom_bond_atom_site_label_1
_geom_bond_atom_site_label_2
_geom_bond_site_symmetry_1
_geom_bond_site_symmetry_2
Pr1 N1 1_555 1_555
N1 C1 1_555 1_555
C1 C2 1_555 1_555
N2 N1 1_555 1_555
C2 H1 1_555 1_555
N3 N2 1_555 1_555
C3 C2 1_555 1_555
H2 C3 1_555 1_555
N4 N5 1_555 1_555
C4 C3 1_555 1_555
H3 C4 1_555 1_555
N5 Pr1 1_555 1_555
C5 C4 1_555 1_555
H4 C5 1_555 1_555
N6 Pr1 1_555 1_555
C6 C1 1_555 1_555
C7 N4 1_555 1_555
C8 C7 1_555 1_555
H5 C8 1_555 1_555
C9 C8 1_555 1_555
H6 C9 1_555 1_555
C10 C9 1_555 1_555
H7 C10 1_555 1_555
C11 C10 1_555 1_555
H8 C11 1_555 1_555
C12 N6 1_555 1_555
Pr1F N2 1_555 1_555
Pr1F_2 N2D 1_555 1_555
N1D Pr1 1_555 1_555
C1D N1D 1_555 1_555
N2D N1D 1_555 1_555
N2F Pr1 1_555 1_555
N2B Pr1 1_555 1_555
C2D C1D 1_555 1_555
H1D C2D 1_555 1_555
N3D Pr1F_2 1_555 1_555
N3F Pr1 1_555 1_555
N3B Pr1 1_555 1_555
C3D C2D 1_555 1_555
H2D C3D 1_555 1_555
N4D N5D 1_555 1_555
C4D C3D 1_555 1_555
H3D C4D 1_555 1_555
N5D Pr1 1_555 1_555
C5D C4D 1_555 1_555
H4D C5D 1_555 1_555
N6D Pr1 1_555 1_555
C6D C1D 1_555 1_555
C7D N4D 1_555 1_555
C8D C7D 1_555 1_555
H5D C8D 1_555 1_555
C9D C8D 1_555 1_555
H6D C9D 1_555 1_555
C10D C9D 1_555 1_555
H7D C10D 1_555 1_555
C11D C10D 1_555 1_555
H8D C11D 1_555 1_555
C12D N6D 1_555 1_555
N3 C6 1_555 1_555
N3 Pr1F 1_555 1_555
N5 N6 1_555 1_555
C5 C6 1_555 1_555
C7 C12 1_555 1_555
C11 C12 1_555 1_555
N2D N3D 1_555 1_555
N2F N3F 1_555 1_555
N2B N3B 1_555 1_555
N3D C6D 1_555 1_555
N5D N6D 1_555 1_555
C5D C6D 1_555 1_555
C7D C12D 1_555 1_555
C11D C12D 1_555 1_555

#END
