
#######################################################################
#
#                 Cambridge Crystallographic Data Centre
#                                CCDC 
#
#######################################################################
#
# If this CIF has been generated from an entry in the Cambridge 
# Structural Database, then it will include bibliographic, chemical, 
# crystal, experimental, refinement or atomic coordinate data resulting 
# from the CCDC's data processing and validation procedures.
#
#######################################################################

data_DEJYAT
_symmetry_cell_setting           monoclinic
_symmetry_space_group_name_H-M   'P 21'
_symmetry_Int_Tables_number      4
_space_group_name_Hall           'P 2yb'
loop_
_symmetry_equiv_pos_site_id
_symmetry_equiv_pos_as_xyz
1 x,y,z
2 -x,1/2+y,-z
_cell_length_a                   5.813(3)
_cell_length_b                   21.720(10)
_cell_length_c                   13.334(8)
_cell_angle_alpha                90
_cell_angle_beta                 93.17(2)
_cell_angle_gamma                90
_cell_volume                     1680.95
loop_
_atom_site_label
_atom_site_type_symbol
_atom_site_fract_x
_atom_site_fract_y
_atom_site_fract_z
Mn1 Mn 0.78132(13) 0.58117(4) 0.28433(6)
Mn2 Mn 0.90023(13) 0.83054(4) 0.73239(6)
O1 O 1.1549(6) 0.5881(2) 0.2829(3)
O2 O 1.4647(6) 0.5660(2) 0.1995(3)
O3 O 0.8771(6) 0.59027(19) 0.1278(3)
O4 O 0.7415(7) 0.5206(2) -0.0289(4)
O5 O 0.9470(8) 0.5524(2) -0.2084(3)
O6 O 1.1509(7) 0.66277(19) -0.1388(3)
O7 O 0.7061(9) 0.6771(2) 0.2943(3)
O8 O 0.5245(10) 0.7513(2) 0.3660(4)
O9 O 0.7666(7) 0.61088(19) 0.4513(3)
O10 O 0.8969(7) 0.72448(19) 0.7157(3)
O11 O 0.5695(7) 0.6349(2) 0.7826(3)
O12 O 0.5422(8) 0.5624(2) 0.6051(3)
O13 O 0.7994(7) 0.49586(17) 0.3530(3)
O14 O 0.9928(8) 0.42487(19) 0.2701(3)
O15 O 1.0700(7) 0.35600(19) 0.4273(3)
O16 O 0.8735(8) 0.31314(18) 0.5893(3)
O17 O 0.9106(7) 0.3905(2) 0.7658(3)
O18 O 1.2573(7) 0.4692(2) 0.6873(3)
O19 O 0.5331(6) 0.8270(2) 0.7248(3)
O20 O 0.2174(7) 0.80812(19) 0.8072(3)
O21 O 0.7943(6) 0.83950(18) 0.8877(3)
O22 O 0.9148(7) 0.7766(2) 1.0525(3)
O23 O 0.6945(7) 0.8215(2) 1.2219(3)
O24 O 0.4782(7) 0.92441(18) 1.1350(3)
C1 C 1.2547(9) 0.5760(3) 0.2045(4)
C2 C 1.1110(8) 0.5740(3) 0.1045(4)
C3 C 1.1129(10) 0.5094(3) 0.0594(5)
H1 H 1.2709 0.4967 0.0518
H2 H 1.0441 0.4808 0.1049
C4 C 0.9816(10) 0.5070(3) -0.0419(5)
C5 C 1.0746(10) 0.5541(3) -0.1138(4)
C6 C 1.0667(9) 0.6182(3) -0.0707(4)
C7 C 1.1993(9) 0.6207(3) 0.0312(4)
H3 H 1.3611 0.6129 0.0221
H4 H 1.1860 0.6617 0.0591
C8 C 0.6206(10) 0.7005(3) 0.3689(4)
C9 C 0.6384(9) 0.6658(3) 0.4686(4)
C10 C 0.7672(9) 0.7070(2) 0.5462(4)
H5 H 0.9211 0.7147 0.5244
H6 H 0.6883 0.7463 0.5487
C11 C 0.7856(9) 0.6799(3) 0.6497(4)
C12 C 0.5508(10) 0.6624(3) 0.6852(4)
C13 C 0.4208(9) 0.6199(2) 0.6099(4)
C14 C 0.4009(9) 0.6492(3) 0.5051(4)
H7 H 0.3250 0.6206 0.4582
H8 H 0.3071 0.6861 0.5071
C15 C 0.9126(9) 0.4466(2) 0.3476(4)
C16 C 0.9496(9) 0.4124(2) 0.4479(4)
C17 C 0.7187(9) 0.3980(3) 0.4910(4)
H9 H 0.6287 0.4355 0.4942
H10 H 0.6341 0.3693 0.4471
C18 C 0.7517(10) 0.3703(3) 0.5956(5)
C19 C 0.8915(9) 0.4138(3) 0.6649(4)
C20 C 1.1275(9) 0.4255(3) 0.6242(4)
C21 C 1.0975(9) 0.4536(2) 0.5191(4)
H11 H 1.2477 0.4592 0.4921
H12 H 1.0254 0.4937 0.5234
C22 C 0.4265(8) 0.8195(2) 0.8037(4)
C23 C 0.5600(8) 0.8235(3) 0.9070(4)
C24 C 0.5528(10) 0.7608(2) 0.9603(4)
H13 H 0.3938 0.7483 0.9657
H14 H 0.6286 0.7301 0.9209
C25 C 0.6717(10) 0.7644(3) 1.0646(5)
C26 C 0.5695(9) 0.8153(3) 1.1267(4)
C27 C 0.5772(10) 0.8764(3) 1.0743(4)
C28 C 0.4547(9) 0.8734(2) 0.9706(4)
H15 H 0.4668 0.9129 0.9375
H16 H 0.2926 0.8646 0.9772
H17 H 0.797(12) 0.573(3) 0.083(6)
H18 H 0.67(2) 0.497(6) -0.066(10)
H19 H 1.007(18) 0.520(6) -0.239(8)
H20 H 1.311(13) 0.641(3) -0.152(5)
H21 H 0.719(13) 0.581(4) 0.487(6)
H22 H 0.975(12) 0.700(3) 0.761(5)
H23 H 0.644(17) 0.596(5) 0.787(8)
H24 H 0.463(13) 0.538(4) 0.628(6)
H25 H 1.034(12) 0.333(4) 0.463(5)
H26 H 0.79(3) 0.263(9) 0.598(13)
H27 H 1.03(2) 0.368(5) 0.777(8)
H28 H 1.316(14) 0.449(4) 0.731(6)
H29 H 0.8787 0.8221 0.9255
H30 H 1.016(14) 0.761(4) 1.112(7)
H31 H 0.641(12) 0.791(3) 1.262(5)
H32 H 0.345(13) 0.905(4) 1.164(6)
H33 H 0.986(9) 0.466(3) -0.069(4)
H34 H 1.224(10) 0.544(2) -0.125(4)
H35 H 0.927(10) 0.630(2) -0.065(4)
H36 H 0.869(9) 0.646(3) 0.655(4)
H37 H 0.460(10) 0.694(3) 0.688(4)
H38 H 0.252(12) 0.604(3) 0.636(5)
H39 H 0.603(12) 0.364(3) 0.623(5)
H40 H 0.799(14) 0.452(4) 0.667(6)
H41 H 1.198(12) 0.388(3) 0.622(5)
H42 H 0.649(9) 0.724(3) 1.100(4)
H43 H 0.395(12) 0.804(3) 1.147(5)
H44 H 0.720(10) 0.892(2) 1.067(4)
Mn1_2 Mn 1.78132(13) 0.58117(4) 0.28433(6)
Mn2A Mn 1.09977(13) 0.33054(4) 0.26761(6)
Mn2_2 Mn -0.09977(13) 0.83054(4) 0.73239(6)
O2_2 O 0.4647(6) 0.5660(2) 0.1995(3)
O14A O 1.0072(8) 0.92487(19) 0.7299(3)
O15A O 0.9300(7) 0.85600(19) 0.5727(3)
O20_2 O 1.2174(7) 0.80812(19) 0.8072(3)
H25A H 0.966(12) 0.833(4) 0.537(5)
O25 O 0.1272(10) 0.7290(2) 0.2220(5)
H45 H 0.230(18) 0.718(5) 0.259(8)
H46 H 0.001(16) 0.711(4) 0.255(6)
loop_
_geom_bond_atom_site_label_1
_geom_bond_atom_site_label_2
_geom_bond_site_symmetry_1
_geom_bond_site_symmetry_2
Mn1 O1 1_555 1_555
Mn2 O10 1_555 1_555
O1 C1 1_555 1_555
O2 C1 1_555 1_555
O3 Mn1 1_555 1_555
O4 C4 1_555 1_555
O5 C5 1_555 1_555
O6 C6 1_555 1_555
O7 Mn1 1_555 1_555
O8 C8 1_555 1_555
O9 Mn1 1_555 1_555
O10 C11 1_555 1_555
O11 C12 1_555 1_555
O12 C13 1_555 1_555
O13 Mn1 1_555 1_555
O14 C15 1_555 1_555
O15 C16 1_555 1_555
O16 C18 1_555 1_555
O17 C19 1_555 1_555
O18 C20 1_555 1_555
O19 Mn2 1_555 1_555
O20 C22 1_555 1_555
O21 Mn2 1_555 1_555
O22 C25 1_555 1_555
O23 C26 1_555 1_555
O24 C27 1_555 1_555
C1 C2 1_555 1_555
C2 O3 1_555 1_555
C3 C2 1_555 1_555
H1 C3 1_555 1_555
H2 C3 1_555 1_555
C4 C3 1_555 1_555
C5 C4 1_555 1_555
C6 C5 1_555 1_555
C7 C2 1_555 1_555
H3 C7 1_555 1_555
H4 C7 1_555 1_555
C8 O7 1_555 1_555
C9 O9 1_555 1_555
C10 C9 1_555 1_555
H5 C10 1_555 1_555
H6 C10 1_555 1_555
C11 C10 1_555 1_555
C12 C11 1_555 1_555
C13 C12 1_555 1_555
C14 C9 1_555 1_555
H7 C14 1_555 1_555
H8 C14 1_555 1_555
C15 O13 1_555 1_555
C16 C15 1_555 1_555
C17 C16 1_555 1_555
H9 C17 1_555 1_555
H10 C17 1_555 1_555
C18 C17 1_555 1_555
C19 C18 1_555 1_555
C20 C19 1_555 1_555
C21 C16 1_555 1_555
H11 C21 1_555 1_555
H12 C21 1_555 1_555
C22 O19 1_555 1_555
C23 O21 1_555 1_555
C24 C23 1_555 1_555
H13 C24 1_555 1_555
H14 C24 1_555 1_555
C25 C24 1_555 1_555
C26 C25 1_555 1_555
C27 C26 1_555 1_555
C28 C23 1_555 1_555
H15 C28 1_555 1_555
H16 C28 1_555 1_555
O25 H45 1_555 1_555
H17 O3 1_555 1_555
H18 O4 1_555 1_555
H19 O5 1_555 1_555
H20 O6 1_555 1_555
H21 O9 1_555 1_555
H22 O10 1_555 1_555
H23 O11 1_555 1_555
H24 O12 1_555 1_555
H25 O15 1_555 1_555
H26 O16 1_555 1_555
H27 O17 1_555 1_555
H28 O18 1_555 1_555
H29 O21 1_555 1_555
H30 O22 1_555 1_555
H31 O23 1_555 1_555
H32 O24 1_555 1_555
H33 C4 1_555 1_555
H34 C5 1_555 1_555
H35 C6 1_555 1_555
H36 C11 1_555 1_555
H37 C12 1_555 1_555
H38 C13 1_555 1_555
H39 C18 1_555 1_555
H40 C19 1_555 1_555
H41 C20 1_555 1_555
H42 C25 1_555 1_555
H43 C26 1_555 1_555
H44 C27 1_555 1_555
H46 O25 1_555 1_555
Mn1_2 O2 1_555 1_555
Mn2A O14 1_555 1_555
Mn2_2 O20 1_555 1_555
O2_2 Mn1 1_555 1_555
O14A Mn2 1_555 1_555
O15A Mn2 1_555 1_555
O20_2 Mn2 1_555 1_555
H25A O15A 1_555 1_555
O15 Mn2A 1_555 1_555
C6 C7 1_555 1_555
C8 C9 1_555 1_555
C13 C14 1_555 1_555
C20 C21 1_555 1_555
C22 C23 1_555 1_555
C27 C28 1_555 1_555

#END
