
#######################################################################
#
#                 Cambridge Crystallographic Data Centre
#                                CCDC 
#
#######################################################################
#
# If this CIF has been generated from an entry in the Cambridge 
# Structural Database, then it will include bibliographic, chemical, 
# crystal, experimental, refinement or atomic coordinate data resulting 
# from the CCDC's data processing and validation procedures.
#
#######################################################################

data_DEKFOQ
_symmetry_cell_setting           monoclinic
_symmetry_space_group_name_H-M   'P 21/a'
_symmetry_Int_Tables_number      14
_space_group_name_Hall           '-P 2yab'
loop_
_symmetry_equiv_pos_site_id
_symmetry_equiv_pos_as_xyz
1 x,y,z
2 1/2-x,1/2+y,-z
3 -x,-y,-z
4 1/2+x,1/2-y,z
_cell_length_a                   9.57(2)
_cell_length_b                   13.72(2)
_cell_length_c                   11.03(2)
_cell_angle_alpha                90
_cell_angle_beta                 110.28(8)
_cell_angle_gamma                90
_cell_volume                     1358.47
loop_
_atom_site_label
_atom_site_type_symbol
_atom_site_fract_x
_atom_site_fract_y
_atom_site_fract_z
Cu1 Cu 0.53754(6) 0.08558(4) 0.88924(5)
O1 O 0.4848(3) 0.2227(2) 0.8669(3)
O2 O 0.5656(3) 0.3714(2) 0.9347(3)
O3 O 0.8007(3) 0.4319(2) 1.2121(3)
O4 O 0.9121(3) 0.4466(2) 1.0653(3)
N1 N 0.7222(4) 0.1384(2) 1.0221(3)
N2 N 0.3510(4) 0.0543(2) 0.7401(3)
C1 C 0.5811(4) 0.2828(3) 0.9375(4)
C2 C 0.7211(4) 0.2363(3) 1.0285(4)
C3 C 0.8410(4) 0.2880(3) 1.1122(4)
C4 C 0.9638(5) 0.2337(3) 1.1910(4)
C5 C 0.9605(5) 0.1344(3) 1.1839(4)
C6 C 0.8381(5) 0.0876(3) 1.0972(4)
C7 C 0.8466(5) 0.3979(3) 1.1288(4)
C8 C 0.3371(5) -0.0161(4) 0.6520(5)
C9 C 0.2021(6) -0.0394(4) 0.5580(5)
C10 C 0.0737(4) 0.0118(3) 0.5501(4)
C11 C 0.0898(5) 0.0853(3) 0.6395(4)
C12 C 0.2284(5) 0.1038(3) 0.7311(4)
H1 H 1.0485 0.2661 1.2489
H2 H 1.0433 0.0988 1.2444
H3 H 0.8323 0.0149 1.0860
H4 H 0.4333 -0.0588 0.6611
H5 H 0.2026 -0.0973 0.5005
H6 H 0.0061 0.1264 0.6388
H7 H 0.2480 0.1580 0.7977
Cu1A Cu 0.96246(6) -0.41442(4) 1.11076(5)
Cu1A_2 Cu 0.96246(6) 0.58558(4) 1.11076(5)
Cu1C Cu 1.03754(6) 0.41442(4) 0.88924(5)
Cu1B Cu -0.53754(6) -0.08558(4) 0.11076(5)
Cu1B_2 Cu 0.46246(6) -0.08558(4) 1.11076(5)
O1A O 1.0152(3) -0.2773(2) 1.1331(3)
O2A O 0.9344(3) -0.1286(2) 1.0653(3)
O3A O 0.6993(3) -0.0681(2) 0.7879(3)
O4A O 0.5879(3) -0.0534(2) 0.9347(3)
O4C O 0.4121(3) 0.0534(2) 1.0653(3)
O4_2 O 0.9121(3) -0.5534(2) 1.0653(3)
O4B O 1.0879(3) -0.4466(2) 0.9347(3)
N1A N 0.7778(4) -0.3616(2) 0.9779(3)
N2B N -0.3510(4) -0.0543(2) 0.2599(3)
N2A N 1.1490(4) -0.4457(2) 1.2599(3)
C1A C 0.9189(4) -0.2172(3) 1.0625(4)
C2A C 0.7789(4) -0.2637(3) 0.9715(4)
C3A C 0.6590(4) -0.2120(3) 0.8878(4)
C4A C 0.5362(5) -0.2663(3) 0.8090(4)
C5A C 0.5395(5) -0.3656(3) 0.8161(4)
C6A C 0.6619(5) -0.4124(3) 0.9028(4)
C7A C 0.6534(5) -0.1021(3) 0.8712(4)
C8B C -0.3371(5) 0.0161(4) 0.3480(5)
C9B C -0.2021(6) 0.0394(4) 0.4420(5)
C10B C -0.0737(4) -0.0118(3) 0.4499(4)
C11B C -0.0898(5) -0.0853(3) 0.3605(4)
C12B C -0.2284(5) -0.1038(3) 0.2689(4)
H1A H 0.4515 -0.2339 0.7511
H2A H 0.4567 -0.4012 0.7556
H3A H 0.6677 -0.4851 0.9140
H4B H -0.4333 0.0588 0.3389
H5B H -0.2026 0.0973 0.4995
H6B H -0.0061 -0.1264 0.3612
H7B H -0.2480 -0.1580 0.2023
O5 O 0.2901(5) 0.1910(3) 0.4228(4)
O6 O 0.2474(5) 0.3763(3) 0.7441(4)
O7 O 0.0915(4) 0.2914(3) 0.5119(4)
loop_
_geom_bond_atom_site_label_1
_geom_bond_atom_site_label_2
_geom_bond_site_symmetry_1
_geom_bond_site_symmetry_2
Cu1 O1 1_555 1_555
O1 C1 1_555 1_555
O2 C1 1_555 1_555
O3 C7 1_555 1_555
O4 C7 1_555 1_555
N1 Cu1 1_555 1_555
N2 Cu1 1_555 1_555
C1 C2 1_555 1_555
C2 N1 1_555 1_555
C3 C2 1_555 1_555
C4 C3 1_555 1_555
C5 C4 1_555 1_555
C6 N1 1_555 1_555
C7 C3 1_555 1_555
C8 N2 1_555 1_555
C9 C8 1_555 1_555
C10 C9 1_555 1_555
C11 C10 1_555 1_555
C12 N2 1_555 1_555
H1 C4 1_555 1_555
H2 C5 1_555 1_555
H3 C6 1_555 1_555
H4 C8 1_555 1_555
H5 C9 1_555 1_555
H6 C11 1_555 1_555
H7 C12 1_555 1_555
Cu1A O1A 1_555 1_555
Cu1A_2 O4 1_555 1_555
Cu1C O4 1_555 1_555
Cu1B N2B 1_555 1_555
Cu1B_2 O4A 1_555 1_555
O1A C1A 1_555 1_555
O2A C1A 1_555 1_555
O3A C7A 1_555 1_555
O4A Cu1 1_555 1_555
O4C Cu1 1_555 1_555
O4_2 Cu1A 1_555 1_555
O4B Cu1A 1_555 1_555
N1A Cu1A 1_555 1_555
N2B C8B 1_555 1_555
N2A Cu1A 1_555 1_555
C1A C2A 1_555 1_555
C2A N1A 1_555 1_555
C3A C2A 1_555 1_555
C4A C3A 1_555 1_555
C5A C4A 1_555 1_555
C6A N1A 1_555 1_555
C7A O4A 1_555 1_555
C8B C9B 1_555 1_555
C9B C10B 1_555 1_555
C10B C10 1_555 1_555
C11B C10B 1_555 1_555
C12B N2B 1_555 1_555
H1A C4A 1_555 1_555
H2A C5A 1_555 1_555
H3A C6A 1_555 1_555
H4B C8B 1_555 1_555
H5B C9B 1_555 1_555
H6B C11B 1_555 1_555
H7B C12B 1_555 1_555
C5 C6 1_555 1_555
C11 C12 1_555 1_555
Cu1B_2 O4C 1_555 1_555
C3A C7A 1_555 1_555
C5A C6A 1_555 1_555
C11B C12B 1_555 1_555

#END
