
#######################################################################
#
#                 Cambridge Crystallographic Data Centre
#                                CCDC 
#
#######################################################################
#
# If this CIF has been generated from an entry in the Cambridge 
# Structural Database, then it will include bibliographic, chemical, 
# crystal, experimental, refinement or atomic coordinate data resulting 
# from the CCDC's data processing and validation procedures.
#
#######################################################################

data_DEKHOR
_symmetry_cell_setting           triclinic
_symmetry_space_group_name_H-M   'P -1'
_symmetry_Int_Tables_number      2
_space_group_name_Hall           '-P 1'
loop_
_symmetry_equiv_pos_site_id
_symmetry_equiv_pos_as_xyz
1 x,y,z
2 -x,-y,-z
_cell_length_a                   11.317(4)
_cell_length_b                   16.036(5)
_cell_length_c                   17.986(6)
_cell_angle_alpha                64.910(6)
_cell_angle_beta                 87.609(6)
_cell_angle_gamma                76.789(6)
_cell_volume                     2872.22
loop_
_atom_site_label
_atom_site_type_symbol
_atom_site_fract_x
_atom_site_fract_y
_atom_site_fract_z
Mn1 Mn 0.39203(7) 0.41107(6) 0.66261(5)
Mn2 Mn 0.93522(7) -0.10057(6) 0.16282(5)
O1 O 0.3131(3) 0.3378(3) 0.6084(2)
O2 O 0.4960(3) 0.3516(3) 0.5691(2)
O3 O 0.3483(3) 0.1333(3) 0.3738(3)
O4 O 0.6901(4) 0.0806(3) 0.1034(3)
O5 O 0.7888(3) -0.0417(3) 0.2142(2)
O6 O 0.3778(3) 0.5489(3) 0.5595(2)
H1 H 0.3056 0.5787 0.5597
H2 H 0.4217 0.5770 0.5195
O7 O 0.1305(3) 0.5531(3) 0.6094(2)
O8 O 0.2451(3) 0.4526(3) 0.7231(2)
O9 O -0.1912(3) 0.6316(3) 0.8822(3)
O10 O -0.1653(3) 0.8234(3) 1.1227(2)
O11 O 0.0157(3) 0.8290(3) 1.0742(2)
O12 O 0.8980(4) 0.0330(3) 0.0530(3)
H3 H 0.8842 0.0336 0.0067
H4 H 0.8968 0.0845 0.0564
N1 N 0.4678(4) 0.2739(3) 0.7750(3)
N2 N 0.5503(4) 0.4308(3) 0.7198(3)
N3 N 1.0182(4) -0.2316(3) 0.2756(3)
N4 N 1.1092(4) -0.0798(3) 0.1988(3)
C1 C 0.4010(5) 0.3238(4) 0.5675(3)
C2 C 0.3922(4) 0.2726(3) 0.5152(3)
C3 C 0.2811(4) 0.2528(4) 0.5057(3)
H5 H 0.2140 0.2709 0.5317
C4 C 0.2715(4) 0.2066(4) 0.4580(3)
H6 H 0.1976 0.1934 0.4518
C5 C 0.3698(4) 0.1797(4) 0.4192(3)
C6 C 0.4806(4) 0.1986(4) 0.4272(3)
H7 H 0.5471 0.1806 0.4007
C7 C 0.4901(4) 0.2453(4) 0.4757(3)
H8 H 0.5642 0.2583 0.4817
C8 C 0.4395(5) 0.1084(5) 0.3270(4)
C9 C 0.4385(5) 0.1675(4) 0.2446(4)
H9 H 0.3817 0.2252 0.2214
C10 C 0.5227(5) 0.1398(4) 0.1974(4)
H10 H 0.5219 0.1787 0.1416
C11 C 0.6085(4) 0.0551(4) 0.2317(3)
C12 C 0.7027(5) 0.0299(4) 0.1783(4)
C13 C 0.6077(5) -0.0027(4) 0.3141(4)
H11 H 0.6655 -0.0597 0.3375
C14 C 0.5223(5) 0.0227(5) 0.3625(4)
H12 H 0.5209 -0.0173 0.4179
C15 C 0.4199(5) 0.1987(4) 0.8019(4)
H13 H 0.3562 0.1997 0.7703
C16 C 0.4595(6) 0.1200(5) 0.8734(4)
H14 H 0.4231 0.0689 0.8905
C17 C 0.5543(8) 0.1182(6) 0.9193(5)
H15 H 0.5837 0.0653 0.9681
C18 C 0.6057(7) 0.1946(5) 0.8931(4)
H16 H 0.6699 0.1943 0.9240
C19 C 0.5612(5) 0.2718(4) 0.8205(3)
C20 C 0.6110(5) 0.3576(4) 0.7871(4)
C21 C 0.7162(6) 0.3626(5) 0.8205(5)
H17 H 0.7596 0.3107 0.8655
C22 C 0.7552(7) 0.4459(6) 0.7858(6)
H18 H 0.8247 0.4508 0.8080
C23 C 0.6919(7) 0.5206(6) 0.7192(6)
H19 H 0.7168 0.5772 0.6953
C24 C 0.5904(6) 0.5101(5) 0.6883(4)
H20 H 0.5470 0.5613 0.6428
C25 C 0.1509(5) 0.5149(4) 0.6862(4)
C26 C 0.0592(4) 0.5443(4) 0.7387(3)
C27 C 0.0712(5) 0.4960(4) 0.8238(4)
H21 H 0.1359 0.4440 0.8488
C28 C -0.0118(6) 0.5245(5) 0.8716(4)
H22 H -0.0054 0.4900 0.9284
C29 C -0.1031(5) 0.6032(5) 0.8352(4)
C30 C -0.1175(5) 0.6524(4) 0.7521(4)
H23 H -0.1811 0.7056 0.7281
C31 C -0.0367(5) 0.6225(4) 0.7036(3)
H24 H -0.0470 0.6555 0.6466
C32 C -0.1597(5) 0.6744(4) 0.9282(4)
C33 C -0.2473(5) 0.6953(4) 0.9777(4)
H25 H -0.3219 0.6797 0.9791
C34 C -0.2240(5) 0.7392(4) 1.0248(3)
H26 H -0.2836 0.7545 1.0571
C35 C -0.1125(5) 0.7607(4) 1.0246(3)
C36 C -0.0860(5) 0.8074(4) 1.0773(3)
C37 C -0.0266(5) 0.7392(4) 0.9747(4)
H27 H 0.0483 0.7542 0.9736
C38 C -0.0486(5) 0.6962(4) 0.9269(4)
H28 H 0.0107 0.6820 0.8940
C39 C 0.9708(6) -0.3080(5) 0.3123(4)
H29 H 0.8924 -0.3036 0.2949
C40 C 1.0302(7) -0.3910(5) 0.3731(4)
H30 H 0.9925 -0.4413 0.3975
C41 C 1.1468(7) -0.3994(5) 0.3979(4)
H31 H 1.1904 -0.4559 0.4387
C42 C 1.1980(5) -0.3229(4) 0.3612(4)
H32 H 1.2772 -0.3274 0.3772
C43 C 1.1324(4) -0.2392(4) 0.3008(3)
C44 C 1.1783(5) -0.1515(4) 0.2625(4)
C45 C 1.2859(5) -0.1431(5) 0.2906(4)
H33 H 1.3341 -0.1937 0.3343
C46 C 1.3196(6) -0.0570(6) 0.2517(5)
H34 H 1.3903 -0.0489 0.2697
C47 C 1.2483(7) 0.0151(6) 0.1872(5)
H35 H 1.2698 0.0728 0.1600
C48 C 1.1456(6) 0.0011(5) 0.1636(4)
H36 H 1.0970 0.0512 0.1199
Mn2_2 Mn -0.06478(7) 0.89943(6) 1.16282(5)
O10_2 O 0.8347(3) -0.1766(3) 0.1227(2)
O11_2 O 1.0157(3) -0.1710(3) 0.0742(2)
O13 O 0.4106(8) 0.6105(5) 0.9710(4)
O14 O 0.4625(8) 0.5207(6) 0.9022(4)
H37 H 0.4881 0.4786 0.9477
O15 O 0.0569(4) 0.8357(3) 0.6522(3)
O16 O -0.0326(3) 1.2795(3) 0.4914(2)
H38 H -0.0112 1.2831 0.5327
O17 O -0.2231(3) 1.2665(3) 0.4886(3)
C49 C 0.4010(9) 0.5941(7) 0.9098(7)
C50 C 0.3167(6) 0.6621(5) 0.8393(5)
C51 C 0.3082(7) 0.6470(5) 0.7696(5)
H39 H 0.3594 0.5950 0.7654
C52 C 0.2243(6) 0.7089(5) 0.7073(4)
H40 H 0.2191 0.6997 0.6599
C53 C 0.1478(6) 0.7842(5) 0.7141(4)
C54 C 0.1568(6) 0.8004(4) 0.7827(4)
H41 H 0.1053 0.8524 0.7866
C55 C 0.2413(6) 0.7399(5) 0.8446(4)
H42 H 0.2483 0.7509 0.8908
C56 C 0.0172(6) 0.9323(4) 0.6262(4)
C57 C -0.1011(5) 0.9704(4) 0.5963(4)
H43 H -0.1523 0.9308 0.6008
C58 C -0.1448(5) 1.0666(4) 0.5597(4)
H44 H -0.2247 1.0923 0.5378
C59 C -0.0695(4) 1.1265(4) 0.5552(3)
C60 C -0.1158(5) 1.2299(4) 0.5094(3)
C61 C 0.0483(5) 1.0852(4) 0.5898(3)
H45 H 0.0986 1.1240 0.5890
C62 C 0.0933(5) 0.9883(4) 0.6253(4)
H46 H 0.1728 0.9617 0.6480
loop_
_geom_bond_atom_site_label_1
_geom_bond_atom_site_label_2
_geom_bond_site_symmetry_1
_geom_bond_site_symmetry_2
Mn1 O1 1_555 1_555
Mn2 O5 1_555 1_555
O1 C1 1_555 1_555
O2 Mn1 1_555 1_555
O3 C5 1_555 1_555
O4 C12 1_555 1_555
O5 C12 1_555 1_555
O6 Mn1 1_555 1_555
H1 O6 1_555 1_555
H2 O6 1_555 1_555
O7 C25 1_555 1_555
O8 Mn1 1_555 1_555
O9 C29 1_555 1_555
O10 C36 1_555 1_555
O11 C36 1_555 1_555
O12 Mn2 1_555 1_555
H3 O12 1_555 1_555
H4 O12 1_555 1_555
N1 Mn1 1_555 1_555
N2 Mn1 1_555 1_555
N3 Mn2 1_555 1_555
N4 Mn2 1_555 1_555
C1 O2 1_555 1_555
C2 C1 1_555 1_555
C3 C2 1_555 1_555
H5 C3 1_555 1_555
C4 C3 1_555 1_555
H6 C4 1_555 1_555
C5 C4 1_555 1_555
C6 C5 1_555 1_555
H7 C6 1_555 1_555
C7 C2 1_555 1_555
H8 C7 1_555 1_555
C8 O3 1_555 1_555
C9 C8 1_555 1_555
H9 C9 1_555 1_555
C10 C9 1_555 1_555
H10 C10 1_555 1_555
C11 C10 1_555 1_555
C12 C11 1_555 1_555
C13 C11 1_555 1_555
H11 C13 1_555 1_555
C14 C8 1_555 1_555
H12 C14 1_555 1_555
C15 N1 1_555 1_555
H13 C15 1_555 1_555
C16 C15 1_555 1_555
H14 C16 1_555 1_555
C17 C16 1_555 1_555
H15 C17 1_555 1_555
C18 C17 1_555 1_555
H16 C18 1_555 1_555
C19 N1 1_555 1_555
C20 N2 1_555 1_555
C21 C20 1_555 1_555
H17 C21 1_555 1_555
C22 C21 1_555 1_555
H18 C22 1_555 1_555
C23 C22 1_555 1_555
H19 C23 1_555 1_555
C24 N2 1_555 1_555
H20 C24 1_555 1_555
C25 O8 1_555 1_555
C26 C25 1_555 1_555
C27 C26 1_555 1_555
H21 C27 1_555 1_555
C28 C27 1_555 1_555
H22 C28 1_555 1_555
C29 C28 1_555 1_555
C30 C29 1_555 1_555
H23 C30 1_555 1_555
C31 C26 1_555 1_555
H24 C31 1_555 1_555
C32 O9 1_555 1_555
C33 C32 1_555 1_555
H25 C33 1_555 1_555
C34 C33 1_555 1_555
H26 C34 1_555 1_555
C35 C34 1_555 1_555
C36 C35 1_555 1_555
C37 C35 1_555 1_555
H27 C37 1_555 1_555
C38 C32 1_555 1_555
H28 C38 1_555 1_555
C39 N3 1_555 1_555
H29 C39 1_555 1_555
C40 C39 1_555 1_555
H30 C40 1_555 1_555
C41 C40 1_555 1_555
H31 C41 1_555 1_555
C42 C41 1_555 1_555
H32 C42 1_555 1_555
C43 N3 1_555 1_555
C44 N4 1_555 1_555
C45 C44 1_555 1_555
H33 C45 1_555 1_555
C46 C45 1_555 1_555
H34 C46 1_555 1_555
C47 C46 1_555 1_555
H35 C47 1_555 1_555
C48 N4 1_555 1_555
H36 C48 1_555 1_555
O13 C49 1_555 1_555
O14 H37 1_555 1_555
O15 C53 1_555 1_555
O16 H38 1_555 1_555
O17 C60 1_555 1_555
C49 O14 1_555 1_555
C50 C49 1_555 1_555
C51 C50 1_555 1_555
H39 C51 1_555 1_555
C52 C51 1_555 1_555
H40 C52 1_555 1_555
C53 C52 1_555 1_555
C54 C53 1_555 1_555
H41 C54 1_555 1_555
C55 C50 1_555 1_555
H42 C55 1_555 1_555
C56 O15 1_555 1_555
C57 C56 1_555 1_555
H43 C57 1_555 1_555
C58 C57 1_555 1_555
H44 C58 1_555 1_555
C59 C58 1_555 1_555
C60 O16 1_555 1_555
C61 C59 1_555 1_555
H45 C61 1_555 1_555
C62 C56 1_555 1_555
H46 C62 1_555 1_555
Mn2_2 O10 1_555 1_555
O10_2 Mn2 1_555 1_555
O11_2 Mn2 1_555 1_555
O11 Mn2_2 1_555 1_555
C6 C7 1_555 1_555
C13 C14 1_555 1_555
C18 C19 1_555 1_555
C19 C20 1_555 1_555
C23 C24 1_555 1_555
C30 C31 1_555 1_555
C37 C38 1_555 1_555
C42 C43 1_555 1_555
C43 C44 1_555 1_555
C47 C48 1_555 1_555
C54 C55 1_555 1_555
C59 C60 1_555 1_555
C61 C62 1_555 1_555

#END
