
#######################################################################
#
#                 Cambridge Crystallographic Data Centre
#                                CCDC 
#
#######################################################################
#
# If this CIF has been generated from an entry in the Cambridge 
# Structural Database, then it will include bibliographic, chemical, 
# crystal, experimental, refinement or atomic coordinate data resulting 
# from the CCDC's data processing and validation procedures.
#
#######################################################################

data_DEKJAF
_symmetry_cell_setting           monoclinic
_symmetry_space_group_name_H-M   'C 2/c'
_symmetry_Int_Tables_number      15
_space_group_name_Hall           '-C 2yn'
loop_
_symmetry_equiv_pos_site_id
_symmetry_equiv_pos_as_xyz
1 x,y,z
2 -x,y,1/2-z
3 1/2+x,1/2+y,z
4 1/2-x,1/2+y,1/2-z
5 -x,-y,-z
6 x,-y,1/2+z
7 1/2-x,1/2-y,-z
8 1/2+x,1/2-y,1/2+z
_cell_length_a                   21.897(7)
_cell_length_b                   11.677(4)
_cell_length_c                   7.396(2)
_cell_angle_alpha                90
_cell_angle_beta                 100.311(6)
_cell_angle_gamma                90
_cell_volume                     1860.55
loop_
_atom_site_label
_atom_site_type_symbol
_atom_site_fract_x
_atom_site_fract_y
_atom_site_fract_z
Mn1 Mn 0.0000 0.11620(8) 0.7500
O1 O 0.07670(15) 0.0177(3) 0.8686(5)
O2 O 0.04736(14) -0.1354(3) 1.0129(5)
N1 N 0.05526(16) 0.2774(3) 0.8659(5)
C1 C 0.08542(19) -0.0788(4) 0.9439(6)
C2 C 0.14879(19) -0.1286(4) 0.9463(7)
C3 C 0.1861(4) -0.0928(8) 0.8395(15)
H1 H 0.1741 -0.0316 0.7607
C4 C 0.1711(2) -0.2162(4) 1.0562(8)
H2 H 0.1465 -0.2454 1.1356
C5 C 0.2308(2) -0.2673(4) 1.0578(8)
C6 C 0.2482(4) -0.1485(9) 0.8409(14)
H3 H 0.2729 -0.1192 0.7620
C7 C 0.1101(2) 0.2766(4) 0.9782(7)
H4 H 0.1276 0.2065 1.0188
C8 C 0.1423(2) 0.3764(5) 1.0373(7)
H5 H 0.1808 0.3727 1.1143
C9 C 0.1169(2) 0.4795(5) 0.9812(7)
H6 H 0.1383 0.5466 1.0190
C10 C 0.0586(2) 0.4851(4) 0.8664(7)
C11 C 0.0297(2) 0.3800(4) 0.8101(6)
C12 C 0.0278(3) 0.5899(4) 0.8055(7)
H7 H 0.0467 0.6593 0.8435
Mn1D Mn 0.0000 -0.11620(8) 1.2500
Mn1F Mn 0.5000 -0.61620(8) 1.2500
Mn1B Mn 0.5000 -0.38380(8) 0.7500
O1F O 0.42330(15) -0.5177(3) 1.1314(5)
O1A O -0.07670(15) 0.0177(3) 0.6314(5)
O2F O 0.45264(14) -0.3646(3) 0.9871(5)
O2D O -0.04736(14) 0.1354(3) 0.9871(5)
O2E O 0.04736(14) 0.1354(3) 0.5129(5)
N1A N -0.05526(16) 0.2774(3) 0.6341(5)
C1F C 0.41458(19) -0.4212(4) 1.0561(6)
C2F C 0.35121(19) -0.3714(4) 1.0537(7)
C3F C 0.3139(4) -0.4072(8) 1.1605(15)
H1F H 0.3259 -0.4684 1.2393
C4F C 0.3289(2) -0.2838(4) 0.9438(8)
H2F H 0.3535 -0.2546 0.8644
C5F C 0.2692(2) -0.2327(4) 0.9422(8)
C6F C 0.2518(4) -0.3515(9) 1.1591(14)
H3F H 0.2271 -0.3808 1.2380
C7A C -0.1101(2) 0.2766(4) 0.5218(7)
H4A H -0.1276 0.2065 0.4812
C8A C -0.1423(2) 0.3764(5) 0.4627(7)
H5A H -0.1808 0.3727 0.3857
C9A C -0.1169(2) 0.4795(5) 0.5188(7)
H6A H -0.1383 0.5466 0.4810
C10A C -0.0586(2) 0.4851(4) 0.6336(7)
C11A C -0.0297(2) 0.3800(4) 0.6899(6)
C12A C -0.0278(3) 0.5899(4) 0.6945(7)
H7A H -0.0467 0.6593 0.6565
loop_
_geom_bond_atom_site_label_1
_geom_bond_atom_site_label_2
_geom_bond_site_symmetry_1
_geom_bond_site_symmetry_2
Mn1 O1 1_555 1_555
O1 C1 1_555 1_555
O2 C1 1_555 1_555
N1 Mn1 1_555 1_555
C1 C2 1_555 1_555
C2 C3 1_555 1_555
C3 H1 1_555 1_555
C4 C2 1_555 1_555
H2 C4 1_555 1_555
C5 C4 1_555 1_555
C6 C3 1_555 1_555
H3 C6 1_555 1_555
C7 N1 1_555 1_555
H4 C7 1_555 1_555
C8 C7 1_555 1_555
H5 C8 1_555 1_555
C9 C8 1_555 1_555
H6 C9 1_555 1_555
C10 C9 1_555 1_555
C11 N1 1_555 1_555
C12 C10 1_555 1_555
H7 C12 1_555 1_555
Mn1D O2 1_555 1_555
Mn1F O1F 1_555 1_555
Mn1B O2F 1_555 1_555
O1F C1F 1_555 1_555
O1A Mn1 1_555 1_555
O2F C1F 1_555 1_555
O2D Mn1 1_555 1_555
O2E Mn1 1_555 1_555
N1A Mn1 1_555 1_555
C1F C2F 1_555 1_555
C2F C3F 1_555 1_555
C3F H1F 1_555 1_555
C4F C2F 1_555 1_555
H2F C4F 1_555 1_555
C5F C5 1_555 1_555
C6F C5 1_555 1_555
H3F C6F 1_555 1_555
C7A N1A 1_555 1_555
H4A C7A 1_555 1_555
C8A C7A 1_555 1_555
H5A C8A 1_555 1_555
C9A C8A 1_555 1_555
H6A C9A 1_555 1_555
C10A C9A 1_555 1_555
C11A C11 1_555 1_555
C12A C12 1_555 1_555
H7A C12A 1_555 1_555
C6 C5F 1_555 1_555
C10 C11 1_555 1_555
N1A C11A 1_555 1_555
C3F C6F 1_555 1_555
C4F C5F 1_555 1_555
C10A C11A 1_555 1_555
C10A C12A 1_555 1_555

#END
