
#######################################################################
#
#                 Cambridge Crystallographic Data Centre
#                                CCDC 
#
#######################################################################
#
# If this CIF has been generated from an entry in the Cambridge 
# Structural Database, then it will include bibliographic, chemical, 
# crystal, experimental, refinement or atomic coordinate data resulting 
# from the CCDC's data processing and validation procedures.
#
#######################################################################

data_DEKJAF01
_symmetry_cell_setting           monoclinic
_symmetry_space_group_name_H-M   'C 2/c'
_symmetry_Int_Tables_number      15
_space_group_name_Hall           '-C 2yn'
loop_
_symmetry_equiv_pos_site_id
_symmetry_equiv_pos_as_xyz
1 x,y,z
2 -x,y,1/2-z
3 1/2+x,1/2+y,z
4 1/2-x,1/2+y,1/2-z
5 -x,-y,-z
6 x,-y,1/2+z
7 1/2-x,1/2-y,-z
8 1/2+x,1/2-y,1/2+z
_cell_length_a                   21.9137(15)
_cell_length_b                   11.7028(8)
_cell_length_c                   7.3134(5)
_cell_angle_alpha                90
_cell_angle_beta                 100.4230(10)
_cell_angle_gamma                90
_cell_volume                     1844.59
loop_
_atom_site_label
_atom_site_type_symbol
_atom_site_fract_x
_atom_site_fract_y
_atom_site_fract_z
Mn1 Mn 0.0000 0.38259(4) 0.7500
O1 O 0.07688(8) 0.48041(16) 0.8718(3)
O2 O 0.04712(8) 0.63622(14) 1.0100(2)
N1 N 0.05535(9) 0.22218(18) 0.8669(3)
C1 C 0.11024(11) 0.2232(2) 0.9794(3)
H1 H 0.1277 0.2933 1.0195
C2 C 0.14280(14) 0.1235(2) 1.0400(4)
H2 H 0.1812 0.1275 1.1182
C3 C 0.11719(12) 0.0197(2) 0.9825(4)
H3 H 0.1387 -0.0474 1.0195
C4 C 0.05874(12) 0.0150(2) 0.8680(3)
C5 C 0.02796(13) -0.0907(2) 0.8065(4)
H4 H 0.0469 -0.1598 0.8454
C6 C 0.02997(12) 0.11964(17) 0.8109(3)
C7 C 0.14907(12) 0.6276(2) 0.9442(4)
C8 C 0.08545(10) 0.5785(2) 0.9438(3)
C9 C 0.17092(12) 0.7171(2) 1.0553(3)
H5 H 0.1456 0.7469 1.1329
C10 C 0.1887(2) 0.5917(4) 0.8352(6)
H6 H 0.1778 0.5295 0.7570
C11 C 0.2463(2) 0.6462(4) 0.8366(6)
H7 H 0.2704 0.6175 0.7545
C12 C 0.23035(13) 0.7681(2) 1.0602(4)
O1F O 0.42312(8) 1.01959(16) 1.1282(3)
O2F O 0.45288(8) 0.86378(14) 0.9900(2)
C7F C 0.35093(12) 0.8724(2) 1.0558(4)
C8F C 0.41455(10) 0.9215(2) 1.0562(3)
C9F C 0.32908(12) 0.7829(2) 0.9447(3)
H5F H 0.3544 0.7531 0.8671
C10F C 0.3113(2) 0.9083(4) 1.1648(6)
H6F H 0.3222 0.9705 1.2430
C11F C 0.2537(2) 0.8538(4) 1.1634(6)
H7F H 0.2296 0.8825 1.2455
C12F C 0.26965(13) 0.7319(2) 0.9398(4)
N1A N -0.05535(9) 0.22218(18) 0.6331(3)
C1A C -0.11024(11) 0.2232(2) 0.5206(3)
H1A H -0.1277 0.2933 0.4805
C2A C -0.14280(14) 0.1235(2) 0.4600(4)
H2A H -0.1812 0.1275 0.3818
C3A C -0.11719(12) 0.0197(2) 0.5175(4)
H3A H -0.1387 -0.0474 0.4805
C4A C -0.05874(12) 0.0150(2) 0.6320(3)
C5A C -0.02796(13) -0.0907(2) 0.6935(4)
H4A H -0.0469 -0.1598 0.6546
C6A C -0.02997(12) 0.11964(17) 0.6891(3)
Mn1B Mn 0.5000 0.88259(4) 0.7500
Mn1D Mn 0.0000 0.61741(4) 1.2500
Mn1F Mn 0.5000 1.11741(4) 1.2500
O1A O -0.07688(8) 0.48041(16) 0.6282(3)
O2D O -0.04712(8) 0.36378(14) 0.9900(2)
O2E O 0.04712(8) 0.36378(14) 0.5100(2)
loop_
_geom_bond_atom_site_label_1
_geom_bond_atom_site_label_2
_geom_bond_site_symmetry_1
_geom_bond_site_symmetry_2
Mn1 O1 1_555 1_555
O1 C8 1_555 1_555
O2 C8 1_555 1_555
N1 Mn1 1_555 1_555
C1 N1 1_555 1_555
H1 C1 1_555 1_555
C2 C1 1_555 1_555
H2 C2 1_555 1_555
C3 C2 1_555 1_555
H3 C3 1_555 1_555
C4 C3 1_555 1_555
C5 C4 1_555 1_555
H4 C5 1_555 1_555
C6 N1 1_555 1_555
C7 C8 1_555 1_555
C9 C7 1_555 1_555
H5 C9 1_555 1_555
C10 C7 1_555 1_555
H6 C10 1_555 1_555
C11 C10 1_555 1_555
H7 C11 1_555 1_555
C12 C9 1_555 1_555
O1F C8F 1_555 1_555
O2F C8F 1_555 1_555
C7F C8F 1_555 1_555
C9F C7F 1_555 1_555
H5F C9F 1_555 1_555
C10F C7F 1_555 1_555
H6F C10F 1_555 1_555
C11F C12 1_555 1_555
H7F C11F 1_555 1_555
C12F C11 1_555 1_555
N1A Mn1 1_555 1_555
C1A N1A 1_555 1_555
H1A C1A 1_555 1_555
C2A C1A 1_555 1_555
H2A C2A 1_555 1_555
C3A C2A 1_555 1_555
H3A C3A 1_555 1_555
C4A C3A 1_555 1_555
C5A C5 1_555 1_555
H4A C5A 1_555 1_555
C6A C6 1_555 1_555
Mn1B O2F 1_555 1_555
Mn1D O2 1_555 1_555
Mn1F O1F 1_555 1_555
O1A Mn1 1_555 1_555
O2D Mn1 1_555 1_555
O2E Mn1 1_555 1_555
C4 C6 1_555 1_555
C12 C12F 1_555 1_555
C9F C12F 1_555 1_555
C10F C11F 1_555 1_555
N1A C6A 1_555 1_555
C4A C5A 1_555 1_555
C4A C6A 1_555 1_555

#END
