
#######################################################################
#
#                 Cambridge Crystallographic Data Centre
#                                CCDC 
#
#######################################################################
#
# If this CIF has been generated from an entry in the Cambridge 
# Structural Database, then it will include bibliographic, chemical, 
# crystal, experimental, refinement or atomic coordinate data resulting 
# from the CCDC's data processing and validation procedures.
#
#######################################################################

data_DEKKEK
_symmetry_cell_setting           monoclinic
_symmetry_space_group_name_H-M   'C 2'
_symmetry_Int_Tables_number      5
_space_group_name_Hall           'C 2y'
loop_
_symmetry_equiv_pos_site_id
_symmetry_equiv_pos_as_xyz
1 x,y,z
2 -x,y,-z
3 1/2+x,1/2+y,z
4 1/2-x,1/2+y,-z
_cell_length_a                   33.349(1)
_cell_length_b                   11.8659(4)
_cell_length_c                   16.1861(5)
_cell_angle_alpha                90
_cell_angle_beta                 101.7562(4)
_cell_angle_gamma                90
_cell_volume                     6270.74
loop_
_atom_site_label
_atom_site_type_symbol
_atom_site_fract_x
_atom_site_fract_y
_atom_site_fract_z
Cu1 Cu 0.45372(4) -0.2811(1) 0.02466(7)
Cu2 Cu 0.44696(3) 0.0070(1) 0.05986(6)
P1 P 0.46545(7) -0.0976(2) -0.1036(1)
O1 O 0.5000 -0.3592(9) 0.0000
O2 O 0.4913(3) 0.1520(8) 0.0973(5)
O4 O 0.4519(2) -0.0694(6) -0.2026(4)
O5 O 0.3975(3) -0.2023(8) -0.3189(5)
O6 O 0.4082(2) -0.0864(7) -0.4656(5)
O7 O 0.4468(3) 0.1325(8) -0.4358(5)
O8 O 0.4091(2) 0.0854(7) -0.2392(5)
O9 O 0.3906(3) 0.3040(10) -0.3248(7)
O10 O 0.4446(2) -0.2056(6) -0.0858(4)
O11 O 0.4518(2) 0.0033(6) -0.0588(4)
O12 O 0.5121(2) -0.1102(5) -0.0896(4)
N1 N 0.4575(3) -0.3395(8) 0.1411(5)
N2 N 0.3983(3) -0.2356(8) 0.0429(5)
N3 N 0.4290(2) -0.0015(7) 0.1707(5)
N4 N 0.3948(2) 0.0950(7) 0.0291(5)
C5 C 0.4111(3) -0.0324(9) -0.2353(7)
C6 C 0.3963(3) -0.0847(10) -0.3230(6)
C7 C 0.4221(3) -0.0423(9) -0.3844(7)
C8 C 0.4206(3) 0.0876(9) -0.3834(7)
C9 C 0.4339(3) 0.1347(10) -0.2944(7)
C10 C 0.4301(4) 0.260(1) -0.2882(8)
C16 C 0.4911(4) -0.383(1) 0.1892(7)
C17 C 0.4935(4) -0.414(1) 0.2718(8)
C18 C 0.4582(4) -0.403(1) 0.3053(8)
C19 C 0.4236(4) -0.357(1) 0.2571(7)
C20 C 0.4244(3) -0.3230(9) 0.1747(6)
C21 C 0.3895(3) -0.2654(9) 0.1182(6)
C22 C 0.3514(3) -0.2398(9) 0.1371(6)
C23 C 0.3236(4) -0.184(1) 0.0799(8)
C24 C 0.3317(4) -0.153(1) 0.0039(8)
C25 C 0.3695(3) -0.1779(9) -0.0132(7)
C26 C 0.4501(3) -0.0507(9) 0.2405(6)
C27 C 0.4350(4) -0.058(1) 0.3128(8)
C28 C 0.3958(4) -0.010(1) 0.3128(8)
C29 C 0.3751(3) 0.0414(10) 0.2418(7)
C30 C 0.3922(3) 0.0457(9) 0.1698(6)
C31 C 0.3726(3) 0.1006(9) 0.0908(6)
C32 C 0.3348(3) 0.1528(9) 0.0763(7)
C33 C 0.3197(4) 0.204(1) 0.0002(7)
C34 C 0.3431(4) 0.198(1) -0.0640(7)
C35 C 0.3792(3) 0.143(1) -0.0461(7)
H2 H 0.5262 0.1141 0.1000
H3 H 0.4925 0.2155 0.0800
H6 H 0.5149 -0.3937 0.1655
H7 H 0.5182 -0.4424 0.3052
H8 H 0.4572 -0.4273 0.3612
H9 H 0.3997 -0.3479 0.2798
H10 H 0.3446 -0.2627 0.1897
H11 H 0.2975 -0.1638 0.0945
H12 H 0.3110 -0.1137 -0.0368
H13 H 0.3757 -0.1563 -0.0662
H14 H 0.4764 -0.0835 0.2402
H15 H 0.4499 -0.0919 0.3626
H16 H 0.3841 -0.0133 0.3617
H17 H 0.3485 0.0738 0.2396
H18 H 0.3195 0.1543 0.1206
H19 H 0.2938 0.2408 -0.0097
H20 H 0.3327 0.2304 -0.1179
H21 H 0.3952 0.1362 -0.0886
H30 H 0.3933 -0.0581 -0.1991
H31 H 0.3686 -0.0619 -0.3436
H32 H 0.4500 -0.0645 -0.3638
H33 H 0.3932 0.1123 -0.4059
H34 H 0.4622 0.1136 -0.2738
H35 H 0.4498 0.2946 -0.3144
H36 H 0.4358 0.2798 -0.2293
Cu1A Cu 0.54628(4) -0.2811(1) -0.02466(7)
Cu2A Cu 0.55304(3) 0.0070(1) -0.05986(6)
P1A P 0.53455(7) -0.0976(2) 0.1036(1)
O2A O 0.5087(3) 0.1520(8) -0.0973(5)
O4A O 0.5481(2) -0.0694(6) 0.2026(4)
O5A O 0.6025(3) -0.2023(8) 0.3189(5)
O6A O 0.5918(2) -0.0864(7) 0.4656(5)
O7A O 0.5532(3) 0.1325(8) 0.4358(5)
O8A O 0.5909(2) 0.0854(7) 0.2392(5)
O9A O 0.6094(3) 0.3040(10) 0.3248(7)
O10A O 0.5554(2) -0.2056(6) 0.0858(4)
O11A O 0.5482(2) 0.0033(6) 0.0588(4)
O12A O 0.4879(2) -0.1102(5) 0.0896(4)
N1A N 0.5425(3) -0.3395(8) -0.1411(5)
N2A N 0.6017(3) -0.2356(8) -0.0429(5)
N3A N 0.5710(2) -0.0015(7) -0.1707(5)
N4A N 0.6052(2) 0.0950(7) -0.0291(5)
C5A C 0.5889(3) -0.0324(9) 0.2353(7)
C6A C 0.6037(3) -0.0847(10) 0.3230(6)
C7A C 0.5779(3) -0.0423(9) 0.3844(7)
C8A C 0.5794(3) 0.0876(9) 0.3834(7)
C9A C 0.5661(3) 0.1347(10) 0.2944(7)
C10A C 0.5699(4) 0.260(1) 0.2882(8)
C16A C 0.5089(4) -0.383(1) -0.1892(7)
C17A C 0.5065(4) -0.414(1) -0.2718(8)
C18A C 0.5418(4) -0.403(1) -0.3053(8)
C19A C 0.5764(4) -0.357(1) -0.2571(7)
C20A C 0.5756(3) -0.3230(9) -0.1747(6)
C21A C 0.6105(3) -0.2654(9) -0.1182(6)
C22A C 0.6486(3) -0.2398(9) -0.1371(6)
C23A C 0.6764(4) -0.184(1) -0.0799(8)
C24A C 0.6683(4) -0.153(1) -0.0039(8)
C25A C 0.6305(3) -0.1779(9) 0.0132(7)
C26A C 0.5499(3) -0.0507(9) -0.2405(6)
C27A C 0.5650(4) -0.058(1) -0.3128(8)
C28A C 0.6042(4) -0.010(1) -0.3128(8)
C29A C 0.6249(3) 0.0414(10) -0.2418(7)
C30A C 0.6078(3) 0.0457(9) -0.1698(6)
C31A C 0.6274(3) 0.1006(9) -0.0908(6)
C32A C 0.6652(3) 0.1528(9) -0.0763(7)
C33A C 0.6803(4) 0.204(1) -0.0002(7)
C34A C 0.6569(4) 0.198(1) 0.0640(7)
C35A C 0.6208(3) 0.143(1) 0.0461(7)
H2A H 0.4738 0.1141 -0.1000
H3A H 0.5075 0.2155 -0.0800
H6A H 0.4851 -0.3937 -0.1655
H7A H 0.4818 -0.4424 -0.3052
H8A H 0.5428 -0.4273 -0.3612
H9A H 0.6003 -0.3479 -0.2798
H10A H 0.6554 -0.2627 -0.1897
H11A H 0.7025 -0.1638 -0.0945
H12A H 0.6890 -0.1137 0.0368
H13A H 0.6243 -0.1563 0.0662
H14A H 0.5236 -0.0835 -0.2402
H15A H 0.5501 -0.0919 -0.3626
H16A H 0.6159 -0.0133 -0.3617
H17A H 0.6515 0.0738 -0.2396
H18A H 0.6805 0.1543 -0.1206
H19A H 0.7062 0.2408 0.0097
H20A H 0.6673 0.2304 0.1179
H21A H 0.6048 0.1362 0.0886
H30A H 0.6067 -0.0581 0.1991
H31A H 0.6314 -0.0619 0.3436
H32A H 0.5500 -0.0645 0.3638
H33A H 0.6068 0.1123 0.4059
H34A H 0.5378 0.1136 0.2738
H35A H 0.5502 0.2946 0.3144
H36A H 0.5642 0.2798 0.2293
Cu3 Cu 0.18743(3) -0.08225(9) -0.22325(7)
P2 P 0.19999(7) -0.2640(2) -0.3589(1)
O3 O 0.2345(2) -0.2152(6) -0.1510(4)
O13 O 0.2104(2) -0.5595(6) -0.8112(5)
O14 O 0.3290(2) -0.3841(6) -0.6905(4)
O15 O 0.2954(2) -0.0729(6) -0.6870(4)
O16 O 0.3294(2) -0.0184(6) -0.5182(4)
O17 O 0.2842(2) -0.2540(6) -0.5172(4)
O18 O 0.2419(2) -0.2295(6) -0.3857(4)
O19 O 0.1818(2) -0.1574(6) -0.3298(4)
O20 O 0.2141(2) -0.3503(6) -0.2897(4)
O21 O 0.1711(2) -0.3108(7) -0.4365(5)
N5 N 0.1861(3) -0.0170(8) -0.1089(6)
N6 N 0.1306(3) -0.1270(8) -0.2150(5)
N7 N 0.2697(2) -0.3211(6) -0.6550(4)
N8 N 0.2707(2) -0.4722(7) -0.7482(5)
C1 C 0.2911(3) -0.3929(8) -0.6988(6)
C2 C 0.2289(3) -0.4850(9) -0.7607(5)
C3 C 0.2067(3) -0.4112(10) -0.7144(7)
C4 C 0.2282(3) -0.3335(8) -0.6629(6)
C11 C 0.2909(3) -0.2327(8) -0.6006(5)
C12 C 0.2770(3) -0.1135(7) -0.6225(5)
C13 C 0.2882(3) -0.0539(8) -0.5360(5)
C14 C 0.2824(3) -0.1473(8) -0.4743(6)
C15 C 0.2417(3) -0.1402(9) -0.4449(6)
C36 C 0.2170(4) 0.035(1) -0.0590(8)
C37 C 0.2162(5) 0.069(1) 0.0225(10)
C38 C 0.1796(5) 0.047(1) 0.049(1)
C39 C 0.1488(4) -0.004(1) 0.0004(8)
C40 C 0.1513(3) -0.0364(10) -0.0824(7)
C41 C 0.1192(3) -0.096(1) -0.1429(7)
C42 C 0.0791(4) -0.116(1) -0.1297(9)
C43 C 0.0519(5) -0.167(1) -0.1928(10)
C44 C 0.0625(4) -0.201(1) -0.2669(8)
C45 C 0.1027(3) -0.1792(10) -0.2754(7)
H1 H 0.2891 0.0021 -0.6900
H4 H 0.2493 -0.1740 -0.1700
H5 H 0.2272 -0.2586 -0.1900
H22 H 0.2417 0.0493 -0.0815
H23 H 0.2394 0.1045 0.0575
H24 H 0.1788 0.0714 0.1057
H25 H 0.1239 -0.0201 0.0212
H26 H 0.0716 -0.0944 -0.0787
H27 H 0.0245 -0.1818 -0.1851
H28 H 0.0437 -0.2370 -0.3113
H29 H 0.1114 -0.2028 -0.3251
H37 H 0.1780 -0.4186 -0.7196
H38 H 0.2135 -0.2832 -0.6330
H39 H 0.3197 -0.2373 -0.5994
H40 H 0.2477 -0.1134 -0.6402
H41 H 0.2704 0.0080 -0.5320
H42 H 0.3042 -0.1436 -0.4262
H43 H 0.2194 -0.1504 -0.4921
H44 H 0.2389 -0.0694 -0.4198
Cu3C Cu 0.31257(3) 0.41775(9) -0.77675(7)
Cu3C_2 Cu 0.31257(3) -0.58225(9) -0.77675(7)
P2C P 0.30001(7) 0.2360(2) -0.6411(1)
O3C O 0.2655(2) 0.2848(6) -0.8490(4)
O13C O 0.2896(2) -0.0595(6) -0.1888(5)
O14C O 0.1710(2) 0.1159(6) -0.3095(4)
O15C O 0.2046(2) 0.4271(6) -0.3130(4)
O16C O 0.1706(2) 0.4816(6) -0.4818(4)
O17C O 0.2158(2) 0.2460(6) -0.4828(4)
O18C O 0.2581(2) 0.2705(6) -0.6143(4)
O19C O 0.3182(2) 0.3426(6) -0.6702(4)
O20C O 0.2859(2) 0.1497(6) -0.7103(4)
O21C O 0.3289(2) 0.1892(7) -0.5635(5)
N5C N 0.3139(3) 0.4830(8) -0.8911(6)
N6C N 0.3694(3) 0.3730(8) -0.7850(5)
N7C N 0.2303(2) 0.1789(6) -0.3450(4)
N8C N 0.2293(2) 0.0278(7) -0.2518(5)
N8_2 N 0.2707(2) 0.5278(7) -0.7482(5)
C1C C 0.2089(3) 0.1071(8) -0.3012(6)
C2C C 0.2711(3) 0.0150(9) -0.2393(5)
C3C C 0.2933(3) 0.0888(10) -0.2856(7)
C4C C 0.2718(3) 0.1665(8) -0.3371(6)
C11C C 0.2091(3) 0.2673(8) -0.3994(5)
C12C C 0.2230(3) 0.3865(7) -0.3775(5)
C13C C 0.2118(3) 0.4461(8) -0.4640(5)
C14C C 0.2176(3) 0.3527(8) -0.5257(6)
C15C C 0.2583(3) 0.3598(9) -0.5551(6)
C36C C 0.2830(4) 0.535(1) -0.9410(8)
C37C C 0.2838(5) 0.569(1) -1.0225(10)
C38C C 0.3204(5) 0.547(1) -1.049(1)
C39C C 0.3512(4) 0.496(1) -1.0004(8)
C40C C 0.3487(3) 0.4636(10) -0.9176(7)
C41C C 0.3808(3) 0.404(1) -0.8571(7)
C42C C 0.4209(4) 0.384(1) -0.8703(9)
C43C C 0.4481(5) 0.333(1) -0.8072(10)
C44C C 0.4375(4) 0.299(1) -0.7331(8)
C45C C 0.3973(3) 0.3208(10) -0.7246(7)
H1C H 0.2109 0.5021 -0.3100
H4C H 0.2507 0.3260 -0.8300
H5C H 0.2728 0.2414 -0.8100
H22C H 0.2583 0.5493 -0.9185
H23C H 0.2606 0.6045 -1.0575
H24C H 0.3212 0.5714 -1.1057
H25C H 0.3761 0.4799 -1.0212
H26C H 0.4284 0.4056 -0.9213
H27C H 0.4755 0.3182 -0.8149
H28C H 0.4563 0.2630 -0.6887
H29C H 0.3886 0.2972 -0.6749
H37C H 0.3220 0.0814 -0.2804
H38C H 0.2865 0.2168 -0.3670
H39C H 0.1803 0.2627 -0.4006
H40C H 0.2523 0.3866 -0.3598
H41C H 0.2296 0.5080 -0.4680
H42C H 0.1958 0.3564 -0.5738
H43C H 0.2806 0.3496 -0.5079
H44C H 0.2611 0.4306 -0.5802
Cl1 Cl 0.0000 -0.516(2) -0.5000
Cl2 Cl 0.5000 0.755(2) 0.5000
O22 O 0.2954(3) -0.4182(8) -0.2717(5)
O23 O 0.2563(3) -0.6736(8) -0.1679(6)
O24 O 0.1602(3) -0.7290(8) -0.7778(6)
O25 O 0.1071(3) -0.1939(9) -0.5086(6)
O26 O 0.1847(3) 0.0555(9) -0.5775(6)
O27 O 0.1051(3) 0.010(1) -0.4314(6)
O28 O 0.4060(5) 0.591(1) -0.1612(9)
O29 O 0.0733(4) 0.179(1) 0.4589(7)
O30 O 0.1702(3) 0.870(1) 0.2282(7)
O31 O 0.0992(5) 0.043(1) 0.3353(9)
O32 O 0.4717(3) 0.3866(9) -0.0457(7)
loop_
_geom_bond_atom_site_label_1
_geom_bond_atom_site_label_2
_geom_bond_site_symmetry_1
_geom_bond_site_symmetry_2
Cu1 O1 1_555 1_555
Cu2 O2 1_555 1_555
Cu3 O3 1_555 1_555
P1 O4 1_555 1_555
P2 O18 1_555 1_555
O1 Cu1A 1_555 1_555
O2 H2 1_555 1_555
O3 H4 1_555 1_555
O4 C5 1_555 1_555
O5 C6 1_555 1_555
O6 C7 1_555 1_555
O7 C8 1_555 1_555
O8 C5 1_555 1_555
O9 C10 1_555 1_555
O10 Cu1 1_555 1_555
O11 Cu2 1_555 1_555
O12 P1 1_555 1_555
O13 C2 1_555 1_555
O14 C1 1_555 1_555
O15 C12 1_555 1_555
O16 C13 1_555 1_555
O17 C11 1_555 1_555
O18 C15 1_555 1_555
O19 Cu3 1_555 1_555
O20 P2 1_555 1_555
O21 P2 1_555 1_555
N1 Cu1 1_555 1_555
N2 Cu1 1_555 1_555
N3 Cu2 1_555 1_555
N4 Cu2 1_555 1_555
N5 Cu3 1_555 1_555
N6 Cu3 1_555 1_555
N7 C1 1_555 1_555
N8 C1 1_555 1_555
C2 N8 1_555 1_555
C3 C2 1_555 1_555
C4 N7 1_555 1_555
C5 C6 1_555 1_555
C6 C7 1_555 1_555
C7 C8 1_555 1_555
C8 C9 1_555 1_555
C9 O8 1_555 1_555
C10 C9 1_555 1_555
C11 N7 1_555 1_555
C12 C11 1_555 1_555
C13 C12 1_555 1_555
C14 O17 1_555 1_555
C15 C14 1_555 1_555
C16 N1 1_555 1_555
C17 C16 1_555 1_555
C18 C17 1_555 1_555
C19 C18 1_555 1_555
C20 N1 1_555 1_555
C21 N2 1_555 1_555
C22 C21 1_555 1_555
C23 C22 1_555 1_555
C24 C23 1_555 1_555
C25 N2 1_555 1_555
C26 N3 1_555 1_555
C27 C26 1_555 1_555
C28 C27 1_555 1_555
C29 C28 1_555 1_555
C30 N3 1_555 1_555
C31 N4 1_555 1_555
C32 C31 1_555 1_555
C33 C32 1_555 1_555
C34 C33 1_555 1_555
C35 N4 1_555 1_555
C36 N5 1_555 1_555
C37 C36 1_555 1_555
C38 C37 1_555 1_555
C39 C38 1_555 1_555
C40 N5 1_555 1_555
C41 N6 1_555 1_555
C42 C41 1_555 1_555
C43 C42 1_555 1_555
C44 C43 1_555 1_555
C45 N6 1_555 1_555
H1 O15 1_555 1_555
H3 O2 1_555 1_555
H5 O3 1_555 1_555
H6 C16 1_555 1_555
H7 C17 1_555 1_555
H8 C18 1_555 1_555
H9 C19 1_555 1_555
H10 C22 1_555 1_555
H11 C23 1_555 1_555
H12 C24 1_555 1_555
H13 C25 1_555 1_555
H14 C26 1_555 1_555
H15 C27 1_555 1_555
H16 C28 1_555 1_555
H17 C29 1_555 1_555
H18 C32 1_555 1_555
H19 C33 1_555 1_555
H20 C34 1_555 1_555
H21 C35 1_555 1_555
H22 C36 1_555 1_555
H23 C37 1_555 1_555
H24 C38 1_555 1_555
H25 C39 1_555 1_555
H26 C42 1_555 1_555
H27 C43 1_555 1_555
H28 C44 1_555 1_555
H29 C45 1_555 1_555
H30 C5 1_555 1_555
H31 C6 1_555 1_555
H32 C7 1_555 1_555
H33 C8 1_555 1_555
H34 C9 1_555 1_555
H35 C10 1_555 1_555
H36 C10 1_555 1_555
H37 C3 1_555 1_555
H38 C4 1_555 1_555
H39 C11 1_555 1_555
H40 C12 1_555 1_555
H41 C13 1_555 1_555
H42 C14 1_555 1_555
H43 C15 1_555 1_555
H44 C15 1_555 1_555
Cu1A O12 1_555 1_555
Cu2A O12 1_555 1_555
Cu3C O3C 1_555 1_555
Cu3C_2 N8 1_555 1_555
P1A O4A 1_555 1_555
P2C O18C 1_555 1_555
O2A Cu2A 1_555 1_555
O3C H4C 1_555 1_555
O4A C5A 1_555 1_555
O5A C6A 1_555 1_555
O6A C7A 1_555 1_555
O7A C8A 1_555 1_555
O8A C5A 1_555 1_555
O9A C10A 1_555 1_555
O10A Cu1A 1_555 1_555
O11A Cu2A 1_555 1_555
O12A Cu1 1_555 1_555
O13C C2C 1_555 1_555
O14C C1C 1_555 1_555
O15C C12C 1_555 1_555
O16C C13C 1_555 1_555
O17C C11C 1_555 1_555
O18C C15C 1_555 1_555
O19C Cu3C 1_555 1_555
O20C P2C 1_555 1_555
O21C P2C 1_555 1_555
N1A Cu1A 1_555 1_555
N2A Cu1A 1_555 1_555
N3A Cu2A 1_555 1_555
N4A Cu2A 1_555 1_555
N5C Cu3C 1_555 1_555
N6C Cu3C 1_555 1_555
N7C C1C 1_555 1_555
N8C Cu3 1_555 1_555
N8_2 Cu3C 1_555 1_555
C1C N8C 1_555 1_555
C2C N8C 1_555 1_555
C3C C2C 1_555 1_555
C4C N7C 1_555 1_555
C5A C6A 1_555 1_555
C6A C7A 1_555 1_555
C7A C8A 1_555 1_555
C8A C9A 1_555 1_555
C9A O8A 1_555 1_555
C10A C9A 1_555 1_555
C11C N7C 1_555 1_555
C12C C11C 1_555 1_555
C13C C12C 1_555 1_555
C14C O17C 1_555 1_555
C15C C14C 1_555 1_555
C16A N1A 1_555 1_555
C17A C16A 1_555 1_555
C18A C17A 1_555 1_555
C19A C18A 1_555 1_555
C20A N1A 1_555 1_555
C21A N2A 1_555 1_555
C22A C21A 1_555 1_555
C23A C22A 1_555 1_555
C24A C23A 1_555 1_555
C25A N2A 1_555 1_555
C26A N3A 1_555 1_555
C27A C26A 1_555 1_555
C28A C27A 1_555 1_555
C29A C28A 1_555 1_555
C30A N3A 1_555 1_555
C31A N4A 1_555 1_555
C32A C31A 1_555 1_555
C33A C32A 1_555 1_555
C34A C33A 1_555 1_555
C35A N4A 1_555 1_555
C36C N5C 1_555 1_555
C37C C36C 1_555 1_555
C38C C37C 1_555 1_555
C39C C38C 1_555 1_555
C40C N5C 1_555 1_555
C41C N6C 1_555 1_555
C42C C41C 1_555 1_555
C43C C42C 1_555 1_555
C44C C43C 1_555 1_555
C45C N6C 1_555 1_555
H1C O15C 1_555 1_555
H2A O2A 1_555 1_555
H3A O2A 1_555 1_555
H5C O3C 1_555 1_555
H6A C16A 1_555 1_555
H7A C17A 1_555 1_555
H8A C18A 1_555 1_555
H9A C19A 1_555 1_555
H10A C22A 1_555 1_555
H11A C23A 1_555 1_555
H12A C24A 1_555 1_555
H13A C25A 1_555 1_555
H14A C26A 1_555 1_555
H15A C27A 1_555 1_555
H16A C28A 1_555 1_555
H17A C29A 1_555 1_555
H18A C32A 1_555 1_555
H19A C33A 1_555 1_555
H20A C34A 1_555 1_555
H21A C35A 1_555 1_555
H22C C36C 1_555 1_555
H23C C37C 1_555 1_555
H24C C38C 1_555 1_555
H25C C39C 1_555 1_555
H26C C42C 1_555 1_555
H27C C43C 1_555 1_555
H28C C44C 1_555 1_555
H29C C45C 1_555 1_555
H30A C5A 1_555 1_555
H31A C6A 1_555 1_555
H32A C7A 1_555 1_555
H33A C8A 1_555 1_555
H34A C9A 1_555 1_555
H35A C10A 1_555 1_555
H36A C10A 1_555 1_555
H37C C3C 1_555 1_555
H38C C4C 1_555 1_555
H39C C11C 1_555 1_555
H40C C12C 1_555 1_555
H41C C13C 1_555 1_555
H42C C14C 1_555 1_555
H43C C15C 1_555 1_555
H44C C15C 1_555 1_555
Cu2 O12A 1_555 1_555
P1 O10 1_555 1_555
P1 O11 1_555 1_555
P2 O19 1_555 1_555
C3 C4 1_555 1_555
C13 C14 1_555 1_555
C19 C20 1_555 1_555
C20 C21 1_555 1_555
C24 C25 1_555 1_555
C29 C30 1_555 1_555
C30 C31 1_555 1_555
C34 C35 1_555 1_555
C39 C40 1_555 1_555
C40 C41 1_555 1_555
C44 C45 1_555 1_555
P1A O10A 1_555 1_555
P1A O11A 1_555 1_555
P1A O12A 1_555 1_555
P2C O19C 1_555 1_555
C3C C4C 1_555 1_555
C13C C14C 1_555 1_555
C19A C20A 1_555 1_555
C20A C21A 1_555 1_555
C24A C25A 1_555 1_555
C29A C30A 1_555 1_555
C30A C31A 1_555 1_555
C34A C35A 1_555 1_555
C39C C40C 1_555 1_555
C40C C41C 1_555 1_555
C44C C45C 1_555 1_555

#END
