
#######################################################################
#
#                 Cambridge Crystallographic Data Centre
#                                CCDC 
#
#######################################################################
#
# If this CIF has been generated from an entry in the Cambridge 
# Structural Database, then it will include bibliographic, chemical, 
# crystal, experimental, refinement or atomic coordinate data resulting 
# from the CCDC's data processing and validation procedures.
#
#######################################################################

data_DEKLEL
_symmetry_cell_setting           triclinic
_symmetry_space_group_name_H-M   'P -1'
_symmetry_Int_Tables_number      2
_space_group_name_Hall           '-P 1'
loop_
_symmetry_equiv_pos_site_id
_symmetry_equiv_pos_as_xyz
1 x,y,z
2 -x,-y,-z
_cell_length_a                   8.722(5)
_cell_length_b                   9.258(5)
_cell_length_c                   9.854(5)
_cell_angle_alpha                112.601(16)
_cell_angle_beta                 97.345(16)
_cell_angle_gamma                95.024(18)
_cell_volume                     720.393
loop_
_atom_site_label
_atom_site_type_symbol
_atom_site_fract_x
_atom_site_fract_y
_atom_site_fract_z
La1 La 0.47537(3) 0.75364(3) 0.02941(2)
O1 O 0.6565(3) 0.5642(3) 0.0559(2)
O2 O 0.8032(3) 0.3928(3) 0.0810(2)
O3 O 1.3113(3) 0.2054(2) 0.12054(19)
O4 O 1.4838(3) 0.4232(3) 0.2389(2)
O5 O 1.3020(3) 1.0582(3) 0.7703(2)
O6 O 1.3683(3) 0.9035(3) 0.8847(2)
O7 O 0.3008(3) 0.9372(3) 0.1776(2)
H1 H 0.291(4) 1.025(4) 0.155(3)
H2 H 0.309(4) 0.975(4) 0.2676(19)
O8 O 0.4482(4) 0.7208(3) 0.2763(3)
H3 H 0.465(4) 0.631(4) 0.284(3)
H4 H 0.377(5) 0.736(5) 0.324(3)
C1 C 1.0250(4) 0.6446(4) 0.3085(3)
C2 C 1.1154(4) 0.5246(4) 0.2835(3)
H7 H 1.1182 0.4549 0.1839
C3 C 1.2031(4) 0.5035(4) 0.4025(3)
C4 C 1.1978(4) 0.6076(4) 0.5470(3)
H8 H 1.2565 0.5946 0.6285
C5 C 1.1097(4) 0.7291(4) 0.5755(3)
C6 C 1.0230(4) 0.7485(4) 0.4556(3)
H9 H 0.9625 0.8324 0.4741
C7 C 0.9245(4) 0.6639(4) 0.1795(3)
H10 H 0.8844 0.7663 0.2182
H11 H 0.9904 0.6668 0.1057
C8 C 0.7878(4) 0.5322(4) 0.1022(3)
C9 C 1.2948(4) 0.3673(4) 0.3752(3)
H12 H 1.2244 0.2723 0.3648
H13 H 1.3781 0.3934 0.4628
C10 C 1.3682(4) 0.3296(4) 0.2367(3)
C11 C 1.1113(4) 0.8410(4) 0.7361(3)
H14 H 1.0304 0.9104 0.7392
H15 H 1.0870 0.7794 0.7955
C12 C 1.2700(4) 0.9404(4) 0.8018(3)
La1A La 0.52463(3) 0.24636(3) -0.02941(2)
La1A_2 La 1.52463(3) 0.24636(3) -0.02941(2)
La1A_3 La 1.52463(3) 1.24636(3) 0.97059(2)
La1_2 La 1.47537(3) 0.75364(3) 1.02941(2)
O1A O 0.3435(3) 0.4358(3) -0.0559(2)
O2A O 0.1968(3) 0.6072(3) -0.0810(2)
O3A O 0.6887(3) 0.7946(2) -0.12054(19)
O4A O 0.5162(3) 0.5768(3) -0.2389(2)
O5A O 0.6980(3) 0.9418(3) 0.2297(2)
O6_2 O 0.3683(3) 0.9035(3) -0.1153(2)
O9 O 0.6800(4) 0.9782(4) 0.5236(3)
H5 H 0.723(6) 0.983(5) 0.458(4)
H6 H 0.602(4) 0.919(5) 0.478(4)
loop_
_geom_bond_atom_site_label_1
_geom_bond_atom_site_label_2
_geom_bond_site_symmetry_1
_geom_bond_site_symmetry_2
La1 O1 1_555 1_555
O1 C8 1_555 1_555
O2 C8 1_555 1_555
O3 C10 1_555 1_555
O4 C10 1_555 1_555
O5 C12 1_555 1_555
O6 C12 1_555 1_555
O7 La1 1_555 1_555
H1 O7 1_555 1_555
H2 O7 1_555 1_555
O8 La1 1_555 1_555
H3 O8 1_555 1_555
H4 O8 1_555 1_555
O9 H5 1_555 1_555
H6 O9 1_555 1_555
C1 C2 1_555 1_555
C2 H7 1_555 1_555
C3 C2 1_555 1_555
C4 C3 1_555 1_555
H8 C4 1_555 1_555
C5 C4 1_555 1_555
C6 C1 1_555 1_555
H9 C6 1_555 1_555
C7 C1 1_555 1_555
H10 C7 1_555 1_555
H11 C7 1_555 1_555
C8 C7 1_555 1_555
C9 C3 1_555 1_555
H12 C9 1_555 1_555
H13 C9 1_555 1_555
C10 C9 1_555 1_555
C11 C5 1_555 1_555
H14 C11 1_555 1_555
H15 C11 1_555 1_555
C12 C11 1_555 1_555
La1A O1 1_555 1_555
La1A_2 O3 1_555 1_555
La1A_3 O5 1_555 1_555
La1_2 O6 1_555 1_555
O1A La1 1_555 1_555
O2A La1 1_555 1_555
O3A La1 1_555 1_555
O4A La1 1_555 1_555
O5A La1 1_555 1_555
O6_2 La1 1_555 1_555
O2 La1A 1_555 1_555
O4 La1A_2 1_555 1_555
C5 C6 1_555 1_555
La1A O1A 1_555 1_555

#END
