
#######################################################################
#
#                 Cambridge Crystallographic Data Centre
#                                CCDC 
#
#######################################################################
#
# If this CIF has been generated from an entry in the Cambridge 
# Structural Database, then it will include bibliographic, chemical, 
# crystal, experimental, refinement or atomic coordinate data resulting 
# from the CCDC's data processing and validation procedures.
#
#######################################################################

data_DEKLIP
_symmetry_cell_setting           monoclinic
_symmetry_space_group_name_H-M   'P 21/n'
_symmetry_Int_Tables_number      14
_space_group_name_Hall           '-P 2yn'
loop_
_symmetry_equiv_pos_site_id
_symmetry_equiv_pos_as_xyz
1 x,y,z
2 1/2-x,1/2+y,1/2-z
3 -x,-y,-z
4 1/2+x,1/2-y,1/2+z
_cell_length_a                   10.757(4)
_cell_length_b                   8.388(3)
_cell_length_c                   16.108(7)
_cell_angle_alpha                90
_cell_angle_beta                 105.838(13)
_cell_angle_gamma                90
_cell_volume                     1398.24
loop_
_atom_site_label
_atom_site_type_symbol
_atom_site_fract_x
_atom_site_fract_y
_atom_site_fract_z
Er1 Er 0.648102(11) 0.403822(14) 0.094920(7)
O1 O 0.50719(17) 0.4727(2) 0.18452(11)
O2 O 0.42418(16) 0.5491(2) 0.05138(11)
O3 O 0.64828(17) 0.9513(2) 0.43450(12)
O4 O 0.71079(15) 0.7022(2) 0.43201(11)
O5 O 0.01193(16) 0.7071(2) 0.45793(10)
O6 O -0.10833(16) 0.6616(2) 0.32683(11)
O7 O 0.79273(16) 0.4120(2) 0.23087(11)
H1 H 0.7565 0.7463 0.1231
H2 H 0.6230 0.7304 0.0623
O8 O 0.67906(16) 0.6821(2) 0.10560(11)
H5 H 0.8414 0.5059 0.2569
H6 H 0.7752 0.3576 0.2726
C1 C 0.3014(2) 0.6095(3) 0.24519(15)
C2 C 0.4049(2) 0.6743(3) 0.30869(15)
H7 H 0.4778 0.7144 0.2928
C3 C 0.4028(2) 0.6812(3) 0.39495(16)
C4 C 0.2948(2) 0.6196(3) 0.41680(16)
H8 H 0.2925 0.6225 0.4753
C5 C 0.1911(2) 0.5543(3) 0.35499(16)
C6 C 0.1947(2) 0.5513(3) 0.26913(16)
H9 H 0.1234 0.5089 0.2263
C7 C 0.2992(2) 0.6053(3) 0.15100(15)
H10 H 0.2859 0.7156 0.1283
H11 H 0.2232 0.5420 0.1196
C8 C 0.4175(2) 0.5378(3) 0.12944(16)
C9 C 0.5104(2) 0.7498(3) 0.46774(16)
H12 H 0.4755 0.8415 0.4929
H13 H 0.5371 0.6680 0.5134
C10 C 0.6285(2) 0.8044(3) 0.44271(15)
C11 C 0.0753(2) 0.4900(3) 0.38172(16)
H14 H 0.0276 0.4126 0.3382
H15 H 0.1052 0.4342 0.4378
C12 C -0.0127(2) 0.6257(3) 0.38936(16)
Er1B Er 0.351898(11) 0.596178(14) -0.094920(7)
Er1A Er 0.851898(11) 0.903822(14) 0.405080(7)
Er1A_2 Er -0.148102(11) 0.903822(14) 0.405080(7)
O2B O 0.57582(16) 0.4509(2) -0.05138(11)
O3A O 0.85172(17) 0.4513(2) 0.06550(12)
O4A O 0.78921(15) 0.2022(2) 0.06799(11)
O5A O 0.48807(16) 0.2071(2) 0.04207(10)
O6A O 0.60833(16) 0.1616(2) 0.17317(11)
H3 H 0.9252 0.9231 0.1910
H4 H 0.8529 0.9970 0.1240
O9 O 0.87385(19) 0.8925(3) 0.14031(12)
loop_
_geom_bond_atom_site_label_1
_geom_bond_atom_site_label_2
_geom_bond_site_symmetry_1
_geom_bond_site_symmetry_2
Er1 O1 1_555 1_555
O1 C8 1_555 1_555
O2 Er1 1_555 1_555
O3 C10 1_555 1_555
O4 C10 1_555 1_555
O5 C12 1_555 1_555
O6 C12 1_555 1_555
O7 Er1 1_555 1_555
H1 O8 1_555 1_555
H2 O8 1_555 1_555
O8 Er1 1_555 1_555
H3 O9 1_555 1_555
H4 O9 1_555 1_555
H5 O7 1_555 1_555
H6 O7 1_555 1_555
C1 C2 1_555 1_555
C2 H7 1_555 1_555
C3 C2 1_555 1_555
C4 C3 1_555 1_555
H8 C4 1_555 1_555
C5 C4 1_555 1_555
C6 C1 1_555 1_555
H9 C6 1_555 1_555
C7 C1 1_555 1_555
H10 C7 1_555 1_555
H11 C7 1_555 1_555
C8 O2 1_555 1_555
C9 C3 1_555 1_555
H12 C9 1_555 1_555
H13 C9 1_555 1_555
C10 C9 1_555 1_555
C11 C5 1_555 1_555
H14 C11 1_555 1_555
H15 C11 1_555 1_555
C12 C11 1_555 1_555
Er1B O2 1_555 1_555
Er1A O3 1_555 1_555
Er1A_2 O5 1_555 1_555
O2B Er1 1_555 1_555
O3A Er1 1_555 1_555
O4A Er1 1_555 1_555
O5A Er1 1_555 1_555
O6A Er1 1_555 1_555
O4 Er1A 1_555 1_555
O6 Er1A_2 1_555 1_555
C5 C6 1_555 1_555
C7 C8 1_555 1_555
Er1B O2B 1_555 1_555

#END
