
#######################################################################
#
#                 Cambridge Crystallographic Data Centre
#                                CCDC 
#
#######################################################################
#
# If this CIF has been generated from an entry in the Cambridge 
# Structural Database, then it will include bibliographic, chemical, 
# crystal, experimental, refinement or atomic coordinate data resulting 
# from the CCDC's data processing and validation procedures.
#
#######################################################################

data_DEKPAL
_symmetry_cell_setting           triclinic
_symmetry_space_group_name_H-M   'P -1'
_symmetry_Int_Tables_number      2
_space_group_name_Hall           '-P 1'
loop_
_symmetry_equiv_pos_site_id
_symmetry_equiv_pos_as_xyz
1 x,y,z
2 -x,-y,-z
_cell_length_a                   8.2880(12)
_cell_length_b                   11.7197(16)
_cell_length_c                   11.7601(17)
_cell_angle_alpha                71.589(3)
_cell_angle_beta                 70.577(3)
_cell_angle_gamma                77.313(3)
_cell_volume                     1013.73
loop_
_atom_site_label
_atom_site_type_symbol
_atom_site_fract_x
_atom_site_fract_y
_atom_site_fract_z
Ga1 Ga 0.87195(4) 0.53134(2) 0.69524(3)
Ga2 Ga 0.65792(4) 0.84009(3) 0.48732(3)
Ga3 Ga 1.54675(4) 0.71350(2) 0.87805(3)
P1 P 0.75840(8) 0.45741(6) 0.98711(6)
P2 P 0.75088(9) 0.56548(6) 0.45882(6)
P3 P 0.87935(9) 0.79653(6) 0.67302(6)
P4 P 1.33645(9) 0.90809(6) 0.68890(6)
O1 O 1.4388(2) 0.86230(17) 0.78173(18)
O2 O 0.6525(3) 0.58105(17) 0.98603(18)
O3 O 0.7899(2) 0.49742(17) 0.58319(18)
O4 O 0.8273(3) 0.43566(17) 0.85575(18)
O5 O 0.6646(2) 0.35225(17) 1.07728(17)
O6 O 0.7606(2) 0.79026(17) 0.80379(18)
O7 O 0.9706(3) 0.67197(17) 0.65420(19)
O8 O 0.6746(3) 0.69777(17) 0.45468(19)
O9 O 0.9062(3) 0.56151(18) 0.34661(18)
O10 O 1.2881(3) 1.04718(17) 0.66431(18)
O11 O 0.7926(3) 0.86363(17) 0.56869(18)
O12 O 1.4309(2) 0.87790(18) 0.56239(18)
F1 F 0.6401(2) 0.63674(15) 0.73946(15)
N1 N 1.4706(3) 0.7955(2) 1.0212(2)
C1 C 1.3037(5) 0.8304(3) 1.0722(4)
H1 H 1.2194 0.8187 1.0399
C2 C 1.5877(5) 0.8138(4) 1.0665(3)
H2 H 1.7060 0.7882 1.0311
C3 C 1.3731(6) 0.9040(4) 1.2161(4)
H3 H 1.3396 0.9419 1.2823
C4 C 1.5441(6) 0.8686(4) 1.1628(4)
H4 H 1.6311 0.8815 1.1918
C5 C 1.2510(6) 0.8833(4) 1.1709(4)
H5 H 1.1317 0.9051 1.2074
C6 C 1.1416(3) 0.8420(2) 0.7424(3)
H6 H 1.0677 0.8639 0.8199
H7 H 1.1686 0.7526 0.7621
C7 C 1.0439(3) 0.8858(2) 0.6433(3)
H8 H 1.1269 0.8843 0.5606
H9 H 0.9914 0.9709 0.6398
C8 C 0.5855(3) 0.4961(3) 0.4483(2)
H10 H 0.5631 0.5355 0.3662
H11 H 0.6284 0.4097 0.4517
C9 C 0.9403(3) 0.4516(2) 1.0413(3)
H12 H 0.8971 0.4618 1.1272
H13 H 1.0086 0.3704 1.0453
Ga1A Ga 0.12805(4) 0.46866(2) 0.30476(3)
Ga1A_2 Ga 1.12805(4) 0.46866(2) 0.30476(3)
Ga1A_3 Ga 1.12805(4) 0.46866(2) 1.30476(3)
Ga1_2 Ga -0.12805(4) 0.53134(2) 0.69524(3)
Ga1A_4 Ga 1.12805(4) 1.46866(2) 0.30476(3)
Ga1_3 Ga 1.87195(4) 0.53134(2) 0.69524(3)
Ga2A Ga 0.34208(4) 0.15991(3) 0.51268(3)
Ga2A_2 Ga 1.34208(4) 1.15991(3) 0.51268(3)
Ga2_2 Ga 1.65792(4) 0.84009(3) 0.48732(3)
Ga2A_3 Ga 0.34208(4) 1.15991(3) 0.51268(3)
Ga3_2 Ga 0.54675(4) 0.71350(2) 0.87805(3)
Ga3A Ga 0.45325(4) 0.28650(2) 1.12195(3)
Ga3A_2 Ga 1.45325(4) 0.28650(2) 1.12195(3)
Ga3A_3 Ga 0.45325(4) 1.28650(2) 0.12195(3)
Ga3A_4 Ga 1.45325(4) 1.28650(2) 0.12195(3)
P1A P 1.24160(8) 0.54259(6) 1.01289(6)
P2A P 0.24912(9) 0.43452(6) 0.54118(6)
P3A P 1.12065(9) 1.20347(6) 0.32698(6)
P4A P 0.66355(9) 1.09191(6) 0.31110(6)
O1A O 0.5612(2) 1.13770(17) 0.21827(18)
O1_2 O 0.4388(2) 0.86230(17) 0.78173(18)
O2A O 1.3475(3) 0.41895(17) 1.01397(18)
O2_2 O 1.6525(3) 0.58105(17) 0.98603(18)
O3A O 0.2101(2) 0.50258(17) 0.41681(18)
O4A O 1.1727(3) 0.56434(17) 1.14425(18)
O4A_2 O 0.1727(3) 0.56434(17) 0.14425(18)
O5A O 1.3354(2) 0.64775(17) 0.92272(17)
O5A_2 O 0.3354(2) 0.64775(17) 0.92272(17)
O6A O 1.2394(2) 1.20974(17) 0.19621(18)
O6_2 O 1.7606(2) 0.79026(17) 0.80379(18)
O7A O 1.0294(3) 1.32803(17) 0.34580(19)
O7A_2 O 0.0294(3) 0.32803(17) 0.34580(19)
O8A O 0.3254(3) 0.30223(17) 0.54532(19)
O9A O 0.0938(3) 0.43849(18) 0.65339(18)
O9A_2 O 1.0938(3) 0.43849(18) 0.65339(18)
O9_2 O -0.0938(3) 0.56151(18) 0.34661(18)
O10A O 0.7119(3) 0.95282(17) 0.33569(18)
O10_2 O 0.2881(3) 0.04718(17) 0.66431(18)
O11A O 1.2074(3) 1.13637(17) 0.43131(18)
O11A_2 O 0.2074(3) 0.13637(17) 0.43131(18)
O12A O 0.5691(2) 1.12210(18) 0.43761(18)
O12_2 O 0.4309(2) 0.87790(18) 0.56239(18)
O12A_2 O 0.5691(2) 0.12210(18) 0.43761(18)
F1_2 F 1.6401(2) 0.63674(15) 0.73946(15)
F1A F 0.3599(2) 0.36326(15) 0.26054(15)
N1_2 N 0.4706(3) 0.7955(2) 1.0212(2)
C1_2 C 0.3037(5) 0.8304(3) 1.0722(4)
H1_2 H 0.2194 0.8187 1.0399
C2_2 C 0.5877(5) 0.8138(4) 1.0665(3)
H2_2 H 0.7060 0.7882 1.0311
C3_2 C 0.3731(6) 0.9040(4) 1.2161(4)
H3_2 H 0.3396 0.9419 1.2823
C4_2 C 0.5441(6) 0.8686(4) 1.1628(4)
H4_2 H 0.6311 0.8815 1.1918
C5_2 C 0.2510(6) 0.8833(4) 1.1709(4)
H5_2 H 0.1317 0.9051 1.2074
C6A C 0.8584(3) 1.1580(2) 0.2576(3)
H6A H 0.9323 1.1361 0.1801
H7A H 0.8314 1.2474 0.2379
C7A C 0.9561(3) 1.1142(2) 0.3567(3)
H8A H 0.8731 1.1157 0.4394
H9A H 1.0086 1.0291 0.3602
C8A C 0.4145(3) 0.5039(3) 0.5517(2)
H10A H 0.4369 0.4645 0.6338
H11A H 0.3716 0.5903 0.5483
C9A C 1.0597(3) 0.5484(2) 0.9587(3)
H12A H 1.1029 0.5382 0.8728
H13A H 0.9914 0.6296 0.9547
loop_
_geom_bond_atom_site_label_1
_geom_bond_atom_site_label_2
_geom_bond_site_symmetry_1
_geom_bond_site_symmetry_2
Ga1 O3 1_555 1_555
Ga2 O8 1_555 1_555
Ga3 O1 1_555 1_555
P1 O2 1_555 1_555
P2 O3 1_555 1_555
P3 O6 1_555 1_555
P4 O1 1_555 1_555
O2 Ga3_2 1_555 1_555
O4 Ga1 1_555 1_555
O5 P1 1_555 1_555
O6 Ga3_2 1_555 1_555
O7 Ga1 1_555 1_555
O8 P2 1_555 1_555
O9 P2 1_555 1_555
O10 P4 1_555 1_555
O11 Ga2 1_555 1_555
O12 P4 1_555 1_555
F1 Ga1 1_555 1_555
N1 Ga3 1_555 1_555
C1 N1 1_555 1_555
H1 C1 1_555 1_555
C2 N1 1_555 1_555
H2 C2 1_555 1_555
C3 H3 1_555 1_555
C4 C2 1_555 1_555
H4 C4 1_555 1_555
C5 C1 1_555 1_555
H5 C5 1_555 1_555
C6 P4 1_555 1_555
H6 C6 1_555 1_555
H7 C6 1_555 1_555
C7 P3 1_555 1_555
H8 C7 1_555 1_555
H9 C7 1_555 1_555
C8 P2 1_555 1_555
H10 C8 1_555 1_555
H11 C8 1_555 1_555
C9 P1 1_555 1_555
H12 C9 1_555 1_555
H13 C9 1_555 1_555
Ga1A O3A 1_555 1_555
Ga1A_2 O9 1_555 1_555
Ga1A_3 O4A 1_555 1_555
Ga1_2 O9A 1_555 1_555
Ga1A_4 O7A 1_555 1_555
Ga1_3 F1_2 1_555 1_555
Ga2A O8A 1_555 1_555
Ga2A_2 O10 1_555 1_555
Ga2_2 O12 1_555 1_555
Ga2A_3 O12A 1_555 1_555
Ga3_2 F1 1_555 1_555
Ga3A O5 1_555 1_555
Ga3A_2 O2A 1_555 1_555
Ga3A_3 O1A 1_555 1_555
Ga3A_4 O6A 1_555 1_555
P1A O2A 1_555 1_555
P2A O3A 1_555 1_555
P3A O6A 1_555 1_555
P4A O1A 1_555 1_555
O1_2 Ga3_2 1_555 1_555
O2_2 Ga3 1_555 1_555
O4A P1A 1_555 1_555
O4A_2 Ga1A 1_555 1_555
O5A Ga3 1_555 1_555
O5A_2 Ga3_2 1_555 1_555
O6_2 Ga3 1_555 1_555
O7A P3A 1_555 1_555
O7A_2 Ga1A 1_555 1_555
O8A P2A 1_555 1_555
O9A P2A 1_555 1_555
O9A_2 Ga1 1_555 1_555
O9_2 Ga1A 1_555 1_555
O10A Ga2 1_555 1_555
O10_2 Ga2A 1_555 1_555
O11A Ga2A_2 1_555 1_555
O11A_2 Ga2A 1_555 1_555
O12A P4A 1_555 1_555
O12_2 Ga2 1_555 1_555
O12A_2 Ga2A 1_555 1_555
F1_2 Ga3 1_555 1_555
F1A Ga1A 1_555 1_555
N1_2 Ga3_2 1_555 1_555
C1_2 N1_2 1_555 1_555
H1_2 C1_2 1_555 1_555
C2_2 N1_2 1_555 1_555
H2_2 C2_2 1_555 1_555
C3_2 H3_2 1_555 1_555
C4_2 C2_2 1_555 1_555
H4_2 C4_2 1_555 1_555
C5_2 C1_2 1_555 1_555
H5_2 C5_2 1_555 1_555
C6A P4A 1_555 1_555
H6A C6A 1_555 1_555
H7A C6A 1_555 1_555
C7A P3A 1_555 1_555
H8A C7A 1_555 1_555
H9A C7A 1_555 1_555
C8A C8 1_555 1_555
H10A C8A 1_555 1_555
H11A C8A 1_555 1_555
C9A C9 1_555 1_555
H12A C9A 1_555 1_555
H13A C9A 1_555 1_555
P1 O4 1_555 1_555
P3 O7 1_555 1_555
P3 O11 1_555 1_555
C3 C4 1_555 1_555
C3 C5 1_555 1_555
C6 C7 1_555 1_555
P1A O5A 1_555 1_555
P1A C9A 1_555 1_555
P2A C8A 1_555 1_555
P3A O11A 1_555 1_555
P4A O10A 1_555 1_555
C3_2 C4_2 1_555 1_555
C3_2 C5_2 1_555 1_555
C6A C7A 1_555 1_555

#END
