
#######################################################################
#
#                 Cambridge Crystallographic Data Centre
#                                CCDC 
#
#######################################################################
#
# If this CIF has been generated from an entry in the Cambridge 
# Structural Database, then it will include bibliographic, chemical, 
# crystal, experimental, refinement or atomic coordinate data resulting 
# from the CCDC's data processing and validation procedures.
#
#######################################################################

data_DEKQUF
_symmetry_cell_setting           monoclinic
_symmetry_space_group_name_H-M   'C 2/c'
_symmetry_Int_Tables_number      15
_space_group_name_Hall           '-C 2yn'
loop_
_symmetry_equiv_pos_site_id
_symmetry_equiv_pos_as_xyz
1 x,y,z
2 1/2+x,1/2+y,z
3 x,-y,1/2+z
4 1/2+x,1/2-y,1/2+z
5 -x,-y,-z
6 1/2-x,1/2-y,-z
7 -x,y,1/2-z
8 1/2-x,1/2+y,1/2-z
_cell_length_a                   21.044(3)
_cell_length_b                   10.811(2)
_cell_length_c                   20.849(3)
_cell_angle_alpha                90
_cell_angle_beta                 117.310(10)
_cell_angle_gamma                90
_cell_volume                     4214.59
loop_
_atom_site_label
_atom_site_type_symbol
_atom_site_fract_x
_atom_site_fract_y
_atom_site_fract_z
Cd1 Cd -0.28693(2) -0.11504(4) 0.34007(2)
N1 N -0.3790(4) -0.2653(7) 0.3719(5)
O1 O -0.3658(3) -0.2894(6) 0.3205(4)
O2 O -0.3466(4) -0.1741(7) 0.4121(4)
O3 O -0.9229(6) 0.8253(10) -0.1181(6)
N2 N -0.2353(4) -0.1214(6) 0.2353(4)
O4 O -0.2810(3) -0.1975(6) 0.2323(3)
O5 O -0.2168(4) -0.0380(6) 0.2831(3)
O6 O -0.7087(5) 0.6275(6) -0.3062(4)
N3 N -0.3844(3) -0.0065(6) 0.2591(3)
C1 C -0.4407(4) -0.0690(8) 0.2083(4)
H1 H -0.4390 -0.1549 0.2081
C2 C -0.5011(4) -0.0099(11) 0.1564(4)
H2 H -0.5400 -0.0551 0.1235
C3 C -0.5017(5) 0.1184(10) 0.1550(5)
C4 C -0.4424(5) 0.1809(9) 0.2059(5)
H3 H -0.4412 0.2669 0.2054
C5 C -0.3856(4) 0.1163(7) 0.2569(4)
H4 H -0.3466 0.1599 0.2909
N4 N 0.1930(3) -0.7489(6) 0.6025(3)
C6 C 0.2016(5) -0.6297(7) 0.6200(5)
H5 H 0.2470 -0.6027 0.6526
C7 C 0.1473(5) -0.5437(9) 0.5927(5)
H6 H 0.1558 -0.4613 0.6069
C8 C 0.0827(5) -0.5812(8) 0.5457(5)
C9 C 0.0693(4) -0.7000(10) 0.5263(5)
H7 H 0.0236 -0.7262 0.4940
C10 C 0.1280(4) -0.7865(9) 0.5570(5)
H8 H 0.1199 -0.8697 0.5446
N5 N 0.0263(4) -0.4762(8) 0.5189(4)
N6 N -0.7334(3) 0.4611(5) -0.0737(3)
C11 C -0.7282(5) 0.4747(10) -0.0083(5)
H9 H -1.2575 -0.0321 -0.5014
C12 C -0.6797(7) 0.4051(12) 0.0513(6)
H10 H -1.1755 0.0814 -0.4029
C13 C -0.6394(4) 0.3181(9) 0.0404(5)
C14 C -1.1460(5) 0.2003(7) -0.5275(5)
H11 H -1.1192 0.2608 -0.5359
C15 C -1.1932(5) 0.1267(7) -0.5831(4)
H12 H -1.1975 0.1385 -0.6291
N7 N -0.5833(5) 0.2590(9) 0.1057(5)
N8 N -0.5616(5) 0.1702(12) 0.0946(5)
Cd1D Cd 0.28693(2) -0.88496(4) 0.65993(2)
N5D N -0.0263(4) -0.5238(8) 0.4811(4)
C8D C -0.0827(5) -0.4188(8) 0.4543(5)
C7D C -0.1473(5) -0.4563(9) 0.4073(5)
C6D C -0.2016(5) -0.3703(7) 0.3800(5)
N4D N -0.1930(3) -0.2511(6) 0.3975(3)
Cd1C Cd -0.78693(2) 0.61504(4) -0.15993(2)
O1C O -0.8658(3) 0.7894(6) -0.1795(4)
N1C N -0.8790(4) 0.7653(7) -0.1281(5)
O2C O -0.8466(4) 0.6741(7) -0.0879(4)
O4C O -0.7810(3) 0.6975(6) -0.2677(3)
N2C N -0.7353(4) 0.6214(6) -0.2647(4)
O5C O -0.7168(4) 0.5380(6) -0.2169(3)
N3C N -0.8844(3) 0.5065(6) -0.2409(3)
C1C C -0.9407(4) 0.5690(8) -0.2917(4)
H1C H -0.9390 0.6549 -0.2919
C2C C -1.0011(4) 0.5099(11) -0.3436(4)
H2C H -1.0400 0.5551 -0.3765
C3C C -1.0017(5) 0.3816(10) -0.3450(5)
C4C C -0.9424(5) 0.3191(9) -0.2941(5)
H3C H -0.9412 0.2331 -0.2946
C5C C -0.8856(4) 0.3837(7) -0.2431(4)
H4C H -0.8466 0.3401 -0.2091
N8C N -1.0616(5) 0.3298(12) -0.4054(5)
N7C N -1.0833(5) 0.2410(9) -0.3943(5)
C13C C -1.1394(4) 0.1819(9) -0.4596(5)
C12C C -1.1797(7) 0.0949(12) -0.4487(6)
C11C C -1.2282(5) 0.0253(10) -0.5083(5)
N6C N -1.2334(3) 0.0389(5) -0.5737(3)
Cd1_2 Cd -1.28693(2) -0.11504(4) -0.65993(2)
N4G N -0.6930(3) 0.7511(6) -0.1025(3)
C15C C -0.6932(5) 0.3733(7) -0.0831(4)
C14C C -0.6460(5) 0.2997(7) -0.0275(5)
H11C H -0.6192 0.2392 -0.0359
H12C H -0.6975 0.3615 -0.1291
H9C H -0.7575 0.5321 -0.0014
H10C H -0.6755 0.4186 0.0971
N6C_2 N -0.2334(3) 0.0389(5) 0.4263(3)
O6C O -0.2087(5) -0.1275(6) 0.1938(4)
O3C O -0.4229(6) -0.3253(10) 0.3819(6)
C10D C -0.1280(4) -0.2135(9) 0.4430(5)
C9D C -0.0693(4) -0.3000(10) 0.4737(5)
H7D H -0.0236 -0.2738 0.5060
H8D H -0.1199 -0.1303 0.4554
H5D H -0.2470 -0.3973 0.3474
H6D H -0.1558 -0.5387 0.3931
loop_
_geom_bond_atom_site_label_1
_geom_bond_atom_site_label_2
_geom_bond_site_symmetry_1
_geom_bond_site_symmetry_2
Cd1 O1 1_555 1_555
N1 O1 1_555 1_555
O2 Cd1 1_555 1_555
O3 N1C 1_555 1_555
N2 O4 1_555 1_555
O4 Cd1 1_555 1_555
O5 Cd1 1_555 1_555
O6 N2C 1_555 1_555
N3 Cd1 1_555 1_555
C1 N3 1_555 1_555
H1 C1 1_555 1_555
C2 C1 1_555 1_555
H2 C2 1_555 1_555
C3 C2 1_555 1_555
C4 C3 1_555 1_555
H3 C4 1_555 1_555
C5 N3 1_555 1_555
H4 C5 1_555 1_555
N4 C6 1_555 1_555
C6 H5 1_555 1_555
C7 C6 1_555 1_555
H6 C7 1_555 1_555
C8 C7 1_555 1_555
C9 C8 1_555 1_555
H7 C9 1_555 1_555
C10 N4 1_555 1_555
H8 C10 1_555 1_555
N5 C8 1_555 1_555
N6 C11 1_555 1_555
C11 C12 1_555 1_555
H9 C11C 1_555 1_555
C12 C13 1_555 1_555
H10 C12C 1_555 1_555
C13 N7 1_555 1_555
C14 H11 1_555 1_555
C15 C14 1_555 1_555
H12 C15 1_555 1_555
N7 N8 1_555 1_555
N8 C3 1_555 1_555
Cd1D N4 1_555 1_555
N5D N5 1_555 1_555
C8D N5D 1_555 1_555
C7D C8D 1_555 1_555
C6D C7D 1_555 1_555
N4D Cd1 1_555 1_555
Cd1C N6 1_555 1_555
O1C Cd1C 1_555 1_555
N1C O1C 1_555 1_555
O2C Cd1C 1_555 1_555
O4C Cd1C 1_555 1_555
N2C O4C 1_555 1_555
O5C Cd1C 1_555 1_555
N3C Cd1C 1_555 1_555
C1C N3C 1_555 1_555
H1C C1C 1_555 1_555
C2C C1C 1_555 1_555
H2C C2C 1_555 1_555
C3C C2C 1_555 1_555
C4C C3C 1_555 1_555
H3C C4C 1_555 1_555
C5C N3C 1_555 1_555
H4C C5C 1_555 1_555
N8C C3C 1_555 1_555
N7C N8C 1_555 1_555
C13C C14 1_555 1_555
C12C C13C 1_555 1_555
C11C C12C 1_555 1_555
N6C C15 1_555 1_555
Cd1_2 N6C 1_555 1_555
N4G Cd1C 1_555 1_555
C15C N6 1_555 1_555
C14C C13 1_555 1_555
H11C C14C 1_555 1_555
H12C C15C 1_555 1_555
H9C C11 1_555 1_555
H10C C12 1_555 1_555
N6C_2 Cd1 1_555 1_555
O6C N2 1_555 1_555
O3C N1 1_555 1_555
C10D N4D 1_555 1_555
C9D C8D 1_555 1_555
H7D C9D 1_555 1_555
H8D C10D 1_555 1_555
H5D C6D 1_555 1_555
H6D C7D 1_555 1_555
N1 O2 1_555 1_555
N2 O5 1_555 1_555
C4 C5 1_555 1_555
C9 C10 1_555 1_555
C6D N4D 1_555 1_555
N1C O2C 1_555 1_555
N2C O5C 1_555 1_555
C4C C5C 1_555 1_555
N7C C13C 1_555 1_555
C11C N6C 1_555 1_555
C15C C14C 1_555 1_555
C10D C9D 1_555 1_555

#END
