
#######################################################################
#
#                 Cambridge Crystallographic Data Centre
#                                CCDC 
#
#######################################################################
#
# If this CIF has been generated from an entry in the Cambridge 
# Structural Database, then it will include bibliographic, chemical, 
# crystal, experimental, refinement or atomic coordinate data resulting 
# from the CCDC's data processing and validation procedures.
#
#######################################################################

data_DEKQOZ
_symmetry_cell_setting           monoclinic
_symmetry_space_group_name_H-M   'C 2/c'
_symmetry_Int_Tables_number      15
_space_group_name_Hall           '-C 2yn'
loop_
_symmetry_equiv_pos_site_id
_symmetry_equiv_pos_as_xyz
1 x,y,z
2 1/2+x,1/2+y,z
3 x,-y,1/2+z
4 1/2+x,1/2-y,1/2+z
5 -x,-y,-z
6 1/2-x,1/2-y,-z
7 -x,y,1/2-z
8 1/2-x,1/2+y,1/2-z
_cell_length_a                   20.682(9)
_cell_length_b                   11.244(3)
_cell_length_c                   20.821(9)
_cell_angle_alpha                90
_cell_angle_beta                 112.80(4)
_cell_angle_gamma                90
_cell_volume                     4463.56
loop_
_atom_site_label
_atom_site_type_symbol
_atom_site_fract_x
_atom_site_fract_y
_atom_site_fract_z
C19 C -0.939(4) 0.028(7) -0.790(2)
H13 H -0.9381 0.1134 -0.7824
H14 H -0.8901 0.0037 -0.7722
Cl1 Cl -0.9699(18) -0.029(3) -0.731(2)
Cl2 Cl -0.9674(14) 0.012(3) -0.8777(15)
Cl1F Cl -1.0301(18) -0.029(3) -0.769(2)
C19F C -1.061(4) 0.028(7) -0.710(2)
H13F H -1.0619 0.1134 -0.7176
H14F H -1.1099 0.0037 -0.7278
Cl2F Cl -1.0326(14) 0.012(3) -0.6223(15)
Cd1 Cd -0.21283(4) 0.61055(8) -0.33463(4)
N1 N -0.2619(6) 0.6189(12) -0.2249(6)
O1 O -0.2831(5) 0.5403(9) -0.2717(5)
O2 O -0.2200(6) 0.6917(10) -0.2293(5)
O3 O -0.2871(7) 0.6267(11) -0.1803(6)
N2 N -0.1199(8) 0.7463(17) -0.3742(9)
O4 O -0.1496(6) 0.6577(13) -0.4079(6)
O5 O -0.1341(6) 0.7695(10) -0.3227(6)
O6 O -0.0758(11) 0.799(2) -0.3866(10)
N3 N -0.6203(5) -0.0021(10) -0.7594(5)
C1 C -0.6191(6) 0.1150(13) -0.7595(6)
H1 H -0.6571 0.1540 -0.7926
C2 C -0.5661(7) 0.1838(13) -0.7148(6)
H2 H -0.5682 0.2664 -0.7164
C3 C -0.5071(6) 0.1221(16) -0.6651(6)
C4 C -0.5089(6) 0.0010(14) -0.6647(6)
H3 H -0.4721 -0.0417 -0.6325
C5 C -0.5651(6) -0.0570(13) -0.7119(6)
H4 H -0.5651 -0.1397 -0.7110
C6 C -0.4516(7) 0.1897(16) -0.6151(7)
N4 N 0.1954(5) -0.2379(9) 0.1077(5)
C7 C 0.2029(7) -0.3555(12) 0.1172(7)
H5 H 0.2467 -0.3847 0.1457
C8 C 0.1490(7) -0.4361(14) 0.0869(8)
H6 H 0.1562 -0.5176 0.0938
C9 C 0.0830(7) -0.3893(14) 0.0452(6)
C10 C 0.0758(6) -0.2701(14) 0.0372(7)
H7 H 0.0322 -0.2374 0.0108
C11 C 0.1321(6) -0.1983(13) 0.0679(7)
H8 H 0.1260 -0.1168 0.0606
C12 C 0.0244(7) -0.4685(14) 0.0136(7)
N5 N -0.2657(5) 0.4594(10) -0.4145(5)
C13 C -0.2685(7) 0.4680(16) -0.4799(7)
H9 H 0.2602 -0.0230 0.0107
C14 C -0.3133(7) 0.3967(16) -0.5347(7)
H10 H 0.1853 0.0961 -0.0797
C15 C -0.3553(6) 0.3155(13) -0.5187(7)
C16 C 0.1513(7) 0.1955(13) 0.0472(7)
H11 H 0.1260 0.2535 0.0593
C17 C 0.1960(7) 0.1202(12) 0.0976(6)
H12 H 0.1984 0.1278 0.1429
C18 C -0.4053(7) 0.2441(14) -0.5733(6)
Cd1C Cd -0.71283(4) -0.11055(8) -0.83463(4)
N3C N -0.1203(5) 0.5021(10) -0.2594(5)
C1C C -0.1191(6) 0.3850(13) -0.2595(6)
H1C H -0.1571 0.3460 -0.2926
C2C C -0.0661(7) 0.3162(13) -0.2148(6)
H2C H -0.0682 0.2336 -0.2164
C3C C -0.0071(6) 0.3779(16) -0.1651(6)
C4C C -0.0089(6) 0.4990(14) -0.1647(6)
H3C H 0.0279 0.5417 -0.1325
C5C C -0.0651(6) 0.5570(13) -0.2119(6)
H4C H -0.0651 0.6397 -0.2110
C6C C 0.0484(7) 0.3103(16) -0.1151(7)
C18C C 0.0947(7) 0.2559(14) -0.0733(6)
C15C C 0.1447(6) 0.1845(13) -0.0187(7)
C14C C 0.1867(7) 0.1033(16) -0.0347(7)
C13C C 0.2315(7) 0.0320(16) 0.0201(7)
N5C N 0.2343(5) 0.0406(10) 0.0855(5)
Cd1C_2 Cd 0.28717(4) -0.11055(8) 0.16537(4)
O1C O 0.2169(5) -0.0403(9) 0.2283(5)
O2C O 0.2800(6) -0.1917(10) 0.2707(5)
O4C O 0.3504(6) -0.1577(13) 0.0921(6)
O5C O 0.3659(6) -0.2695(10) 0.1773(6)
N3_2 N 0.3797(5) -0.0021(10) 0.2406(5)
C12D C -0.0244(7) -0.5315(14) -0.0136(7)
C9D C -0.0830(7) -0.6107(14) -0.0452(6)
C8D C -0.1490(7) -0.5639(14) -0.0869(8)
C7D C -0.2029(7) -0.6445(12) -0.1172(7)
N4D N -0.1954(5) -0.7621(9) -0.1077(5)
Cd1G Cd -0.28717(4) -0.88945(8) -0.16537(4)
C11D C -0.1321(6) -0.8017(13) -0.0679(7)
C10D C -0.0758(6) -0.7299(14) -0.0372(7)
H7D H -0.0322 -0.7626 -0.0108
H8D H -0.1260 -0.8832 -0.0606
H5D H -0.2467 -0.6153 -0.1457
H6D H -0.1562 -0.4824 -0.0938
N4C N -0.3046(5) 0.7379(9) -0.3923(5)
C17C C -0.3040(7) 0.3798(12) -0.4024(6)
C16C C -0.3487(7) 0.3045(13) -0.4528(7)
H11C H -0.3740 0.2465 -0.4407
H12C H -0.3016 0.3722 -0.3571
H9C H -0.2398 0.5230 -0.4893
H10C H -0.3147 0.4039 -0.5797
N1C N 0.2381(6) -0.1189(12) 0.2751(6)
N2C N 0.3801(8) -0.2463(17) 0.1258(9)
O3C O 0.2129(7) -0.1267(11) 0.3197(6)
O6C O 0.4242(11) -0.299(2) 0.1134(10)
loop_
_geom_bond_atom_site_label_1
_geom_bond_atom_site_label_2
_geom_bond_site_symmetry_1
_geom_bond_site_symmetry_2
Cd1 O1 1_555 1_555
N1 O1 1_555 1_555
O2 Cd1 1_555 1_555
O3 N1 1_555 1_555
N2 O4 1_555 1_555
O4 Cd1 1_555 1_555
O5 Cd1 1_555 1_555
O6 N2 1_555 1_555
N3 C1 1_555 1_555
C1 H1 1_555 1_555
C2 C1 1_555 1_555
H2 C2 1_555 1_555
C3 C2 1_555 1_555
C4 C3 1_555 1_555
H3 C4 1_555 1_555
C5 N3 1_555 1_555
H4 C5 1_555 1_555
C6 C3 1_555 1_555
N4 C7 1_555 1_555
C7 H5 1_555 1_555
C8 C7 1_555 1_555
H6 C8 1_555 1_555
C9 C8 1_555 1_555
C10 C9 1_555 1_555
H7 C10 1_555 1_555
C11 N4 1_555 1_555
H8 C11 1_555 1_555
C12 C9 1_555 1_555
N5 Cd1 1_555 1_555
C13 N5 1_555 1_555
H9 C13C 1_555 1_555
C14 C13 1_555 1_555
H10 C14C 1_555 1_555
C15 C14 1_555 1_555
C16 H11 1_555 1_555
C17 C16 1_555 1_555
H12 C17 1_555 1_555
C18 C6 1_555 1_555
C19 H13 1_555 1_555
H14 C19 1_555 1_555
Cl1 C19 1_555 1_555
Cl2 C19 1_555 1_555
Cd1C N3 1_555 1_555
N3C Cd1 1_555 1_555
C1C N3C 1_555 1_555
H1C C1C 1_555 1_555
C2C C1C 1_555 1_555
H2C C2C 1_555 1_555
C3C C2C 1_555 1_555
C4C C3C 1_555 1_555
H3C C4C 1_555 1_555
C5C N3C 1_555 1_555
H4C C5C 1_555 1_555
C6C C3C 1_555 1_555
C18C C6C 1_555 1_555
C15C C16 1_555 1_555
C14C C15C 1_555 1_555
C13C C14C 1_555 1_555
N5C C17 1_555 1_555
Cd1C_2 N4 1_555 1_555
O1C Cd1C_2 1_555 1_555
O2C Cd1C_2 1_555 1_555
O4C Cd1C_2 1_555 1_555
O5C Cd1C_2 1_555 1_555
N3_2 Cd1C_2 1_555 1_555
C12D C12 1_555 1_555
C9D C12D 1_555 1_555
C8D C9D 1_555 1_555
C7D C8D 1_555 1_555
N4D C7D 1_555 1_555
Cd1G N4D 1_555 1_555
C11D N4D 1_555 1_555
C10D C9D 1_555 1_555
H7D C10D 1_555 1_555
H8D C11D 1_555 1_555
H5D C7D 1_555 1_555
H6D C8D 1_555 1_555
N4C Cd1 1_555 1_555
C17C N5 1_555 1_555
C16C C15 1_555 1_555
H11C C16C 1_555 1_555
H12C C17C 1_555 1_555
H9C C13 1_555 1_555
H10C C14 1_555 1_555
Cl1F Cl1 1_555 1_555
C19F Cl1F 1_555 1_555
H13F C19F 1_555 1_555
H14F C19F 1_555 1_555
Cl2F C19F 1_555 1_555
N1C O1C 1_555 1_555
N2C O4C 1_555 1_555
O3C N1C 1_555 1_555
O6C N2C 1_555 1_555
N1 O2 1_555 1_555
N2 O5 1_555 1_555
C4 C5 1_555 1_555
C10 C11 1_555 1_555
C15 C18 1_555 1_555
C4C C5C 1_555 1_555
C18C C15C 1_555 1_555
C13C N5C 1_555 1_555
N5C Cd1C_2 1_555 1_555
O2C N1C 1_555 1_555
O5C N2C 1_555 1_555
C11D C10D 1_555 1_555
C17C C16C 1_555 1_555

#END
