
#######################################################################
#
#                 Cambridge Crystallographic Data Centre
#                                CCDC 
#
#######################################################################
#
# If this CIF has been generated from an entry in the Cambridge 
# Structural Database, then it will include bibliographic, chemical, 
# crystal, experimental, refinement or atomic coordinate data resulting 
# from the CCDC's data processing and validation procedures.
#
#######################################################################

data_DEKVAS02
_symmetry_cell_setting           monoclinic
_symmetry_space_group_name_H-M   'P 21/n'
_symmetry_Int_Tables_number      14
_space_group_name_Hall           '-P 2yn'
loop_
_symmetry_equiv_pos_site_id
_symmetry_equiv_pos_as_xyz
1 x,y,z
2 1/2-x,1/2+y,1/2-z
3 -x,-y,-z
4 1/2+x,1/2-y,1/2+z
_cell_length_a                   8.4361(11)
_cell_length_b                   14.4264(18)
_cell_length_c                   10.2503(13)
_cell_angle_alpha                90
_cell_angle_beta                 102.885(3)
_cell_angle_gamma                90
_cell_volume                     1216.08
loop_
_atom_site_label
_atom_site_type_symbol
_atom_site_fract_x
_atom_site_fract_y
_atom_site_fract_z
Fe1 Fe 0.0000 1.0000 1.0000
Br1 Br 0.36487(7) 1.17566(4) 1.48730(5)
N1 N 0.2007(5) 1.0258(3) 1.1428(4)
N2 N 0.1545(5) 0.9194(3) 0.9348(4)
N3 N 0.1539(5) 0.8595(3) 0.8336(4)
N4 N 0.4082(5) 0.8592(3) 0.9697(4)
N5 N 0.4440(5) 0.6076(3) 0.6162(4)
C1 C 0.2132(6) 1.0830(3) 1.2483(5)
H1 H 0.1209 1.1178 1.2579
C2 C 0.3569(7) 1.0921(4) 1.3427(5)
C3 C 0.4935(7) 1.0424(4) 1.3320(6)
H2 H 0.5924 1.0485 1.3973
C4 C 0.4829(7) 0.9835(4) 1.2238(5)
H3 H 0.5743 0.9482 1.2133
C5 C 0.3353(6) 0.9769(4) 1.1305(5)
C6 C 0.3056(6) 0.9179(4) 1.0140(5)
C7 C 0.3079(6) 0.8246(4) 0.8591(5)
C8 C 0.3554(6) 0.7530(4) 0.7745(5)
C9 C 0.2460(6) 0.7153(4) 0.6658(5)
H4 H 0.1379 0.7384 0.6422
C10 C 0.2933(6) 0.6444(4) 0.5915(5)
H5 H 0.2145 0.6202 0.5184
C11 C 0.5510(6) 0.6453(4) 0.7216(5)
H6 H 0.6593 0.6225 0.7414
C12 C 0.5124(7) 0.7144(4) 0.8014(6)
H7 H 0.5924 0.7363 0.8754
Fe1A Fe 0.5000 0.5000 0.5000
Fe1A_2 Fe -0.5000 1.5000 1.5000
Br1B Br -0.36487(7) 0.82434(4) 0.51270(5)
N1B N -0.2007(5) 0.9742(3) 0.8572(4)
N2B N -0.1545(5) 1.0806(3) 1.0652(4)
N3B N -0.1539(5) 1.1405(3) 1.1664(4)
N4B N -0.4082(5) 1.1408(3) 1.0303(4)
N5B N -0.4440(5) 1.3924(3) 1.3838(4)
N5A N 0.0560(5) 1.1076(3) 0.8838(4)
N5C N -0.0560(5) 0.8924(3) 1.1162(4)
C1B C -0.2132(6) 0.9170(3) 0.7517(5)
H1B H -0.1209 0.8822 0.7421
C2B C -0.3569(7) 0.9079(4) 0.6573(5)
C3B C -0.4935(7) 0.9576(4) 0.6680(6)
H2B H -0.5924 0.9515 0.6027
C4B C -0.4829(7) 1.0165(4) 0.7762(5)
H3B H -0.5743 1.0518 0.7867
C5B C -0.3353(6) 1.0231(4) 0.8695(5)
C6B C -0.3056(6) 1.0821(4) 0.9860(5)
C7B C -0.3079(6) 1.1754(4) 1.1409(5)
C8B C -0.3554(6) 1.2470(4) 1.2255(5)
C9B C -0.2460(6) 1.2847(4) 1.3342(5)
H4B H -0.1379 1.2616 1.3578
C10B C -0.2933(6) 1.3556(4) 1.4085(5)
H5B H -0.2145 1.3798 1.4816
C11B C -0.5510(6) 1.3547(4) 1.2784(5)
H6B H -0.6593 1.3775 1.2586
C12B C -0.5124(7) 1.2856(4) 1.1986(6)
H7B H -0.5924 1.2637 1.1246
loop_
_geom_bond_atom_site_label_1
_geom_bond_atom_site_label_2
_geom_bond_site_symmetry_1
_geom_bond_site_symmetry_2
Fe1 N1 1_555 1_555
Br1 C2 1_555 1_555
N1 C1 1_555 1_555
N2 Fe1 1_555 1_555
N3 N2 1_555 1_555
N4 C6 1_555 1_555
N5 C10 1_555 1_555
C1 H1 1_555 1_555
C2 C1 1_555 1_555
C3 C2 1_555 1_555
H2 C3 1_555 1_555
C4 C3 1_555 1_555
H3 C4 1_555 1_555
C5 N1 1_555 1_555
C6 N2 1_555 1_555
C7 N3 1_555 1_555
C8 C7 1_555 1_555
C9 C8 1_555 1_555
H4 C9 1_555 1_555
C10 C9 1_555 1_555
H5 C10 1_555 1_555
C11 N5 1_555 1_555
H6 C11 1_555 1_555
C12 C8 1_555 1_555
H7 C12 1_555 1_555
Fe1A N5 1_555 1_555
Fe1A_2 N5B 1_555 1_555
Br1B C2B 1_555 1_555
N1B Fe1 1_555 1_555
N2B Fe1 1_555 1_555
N3B N2B 1_555 1_555
N4B C6B 1_555 1_555
N5B C10B 1_555 1_555
N5A Fe1 1_555 1_555
N5C Fe1 1_555 1_555
C1B N1B 1_555 1_555
H1B C1B 1_555 1_555
C2B C1B 1_555 1_555
C3B C2B 1_555 1_555
H2B C3B 1_555 1_555
C4B C3B 1_555 1_555
H3B C4B 1_555 1_555
C5B N1B 1_555 1_555
C6B N2B 1_555 1_555
C7B N3B 1_555 1_555
C8B C7B 1_555 1_555
C9B C8B 1_555 1_555
H4B C9B 1_555 1_555
C10B C9B 1_555 1_555
H5B C10B 1_555 1_555
C11B N5B 1_555 1_555
H6B C11B 1_555 1_555
C12B C8B 1_555 1_555
H7B C12B 1_555 1_555
N4 C7 1_555 1_555
C4 C5 1_555 1_555
C5 C6 1_555 1_555
C11 C12 1_555 1_555
N4B C7B 1_555 1_555
C4B C5B 1_555 1_555
C5B C6B 1_555 1_555
C11B C12B 1_555 1_555

#END
