
#######################################################################
#
#                 Cambridge Crystallographic Data Centre
#                                CCDC 
#
#######################################################################
#
# If this CIF has been generated from an entry in the Cambridge 
# Structural Database, then it will include bibliographic, chemical, 
# crystal, experimental, refinement or atomic coordinate data resulting 
# from the CCDC's data processing and validation procedures.
#
#######################################################################

data_DEKVAS01
_symmetry_cell_setting           triclinic
_symmetry_space_group_name_H-M   'P -1'
_symmetry_Int_Tables_number      2
_space_group_name_Hall           '-P 1'
loop_
_symmetry_equiv_pos_site_id
_symmetry_equiv_pos_as_xyz
1 x,y,z
2 -x,-y,-z
_cell_length_a                   8.5092(5)
_cell_length_b                   14.6903(10)
_cell_length_c                   10.2033(6)
_cell_angle_alpha                88.809(5)
_cell_angle_beta                 103.415(5)
_cell_angle_gamma                89.486(5)
_cell_volume                     1240.25
loop_
_atom_site_label
_atom_site_type_symbol
_atom_site_fract_x
_atom_site_fract_y
_atom_site_fract_z
Br1 Br 0.14033(12) -0.67670(7) -0.98103(9)
Br2 Br 0.40894(13) -0.17959(7) 0.49736(9)
Fe1 Fe 0.5000 0.5000 -0.5000
Fe2 Fe 0.0000 0.0000 0.0000
N1 N 0.2992(8) -0.5254(4) -0.6446(6)
N2 N 0.3429(8) -0.4192(4) -0.4412(6)
N3 N 0.3432(7) -0.3606(4) -0.3410(6)
N4 N 0.0940(8) -0.3615(4) -0.4796(6)
N5 N 0.0511(8) -0.1144(4) -0.1340(6)
N6 N 0.2233(8) -0.0290(4) 0.1523(6)
N7 N 0.1701(8) 0.0821(4) -0.0644(6)
N8 N 0.1657(8) 0.1445(5) -0.1653(6)
N9 N 0.4131(8) 0.1425(5) -0.0233(6)
N10 N 0.4472(8) 0.3942(5) -0.3784(6)
C1 C 0.2900(10) -0.5825(5) -0.7452(7)
H1 H 0.3838 -0.6157 -0.7524
C2 C 0.1456(10) -0.5948(5) -0.8405(8)
C3 C 0.0081(10) -0.5459(6) -0.8340(7)
H2 H -0.0909 -0.5524 -0.8991
C4 C 0.0222(10) -0.4857(6) -0.7259(8)
H3 H -0.0685 -0.4504 -0.7168
C5 C 0.1661(9) -0.4786(5) -0.6346(7)
C6 C 0.1935(9) -0.4185(5) -0.5195(7)
C7 C 0.1910(10) -0.3276(6) -0.3690(7)
C8 C 0.1420(10) -0.2554(6) -0.2877(7)
C9 C 0.2488(10) -0.2216(6) -0.1792(8)
H4 H 0.3561 -0.2454 -0.1539
C10 C 0.2000(10) -0.1519(6) -0.1053(8)
H5 H 0.2770 -0.1298 -0.0303
C11 C -0.0495(10) -0.1493(6) -0.2374(8)
H6 H -0.1565 -0.1250 -0.2604
C12 C -0.0124(10) -0.2194(6) -0.3168(8)
H7 H -0.0925 -0.2417 -0.3895
C13 C 0.2423(11) -0.0863(5) 0.2590(7)
H8 H 0.1532 -0.1212 0.2716
C14 C 0.3880(10) -0.0953(5) 0.3501(8)
C15 C 0.5198(11) -0.0440(6) 0.3377(8)
H9 H 0.6200 -0.0496 0.4022
C16 C 0.5003(10) 0.0159(6) 0.2278(7)
H10 H 0.5878 0.0523 0.2155
C17 C 0.3532(10) 0.0221(6) 0.1370(7)
C18 C 0.3143(10) 0.0829(5) 0.0182(7)
C19 C 0.3173(9) 0.1779(6) -0.1342(7)
C20 C 0.3636(11) 0.2528(6) -0.2185(8)
C21 C 0.2514(10) 0.2906(6) -0.3234(7)
H11 H 0.1432 0.2698 -0.3440
C22 C 0.2990(10) 0.3611(5) -0.4004(8)
H12 H 0.2196 0.3869 -0.4732
C23 C 0.5503(10) 0.3583(6) -0.2767(8)
H13 H 0.6558 0.3829 -0.2562
C24 C 0.5198(10) 0.2848(6) -0.1922(8)
H14 H 0.6025 0.2593 -0.1217
Br1A Br -0.14033(12) 0.67670(7) 0.98103(9)
Br2A Br -0.40894(13) 0.17959(7) -0.49736(9)
Fe1_2 Fe 0.5000 -0.5000 -0.5000
Fe1_3 Fe -0.5000 0.5000 0.5000
Fe1_4 Fe -0.5000 -0.5000 0.5000
N1A N 0.7008(8) 0.5254(4) -0.3554(6)
N1_2 N 0.2992(8) 0.4746(4) -0.6446(6)
N1A_2 N -0.2992(8) 0.5254(4) 0.6446(6)
N2A N 0.6571(8) 0.4192(4) -0.5588(6)
N2_2 N 0.3429(8) 0.5808(4) -0.4412(6)
N2A_2 N -0.3429(8) 0.4192(4) 0.4412(6)
N3A N -0.3432(7) 0.3606(4) 0.3410(6)
N4A N -0.0940(8) 0.3615(4) 0.4796(6)
N5A N -0.0511(8) 0.1144(4) 0.1340(6)
N6A N -0.2233(8) 0.0290(4) -0.1523(6)
N7A N -0.1701(8) -0.0821(4) 0.0644(6)
N8A N -0.1657(8) -0.1445(5) 0.1653(6)
N9A N -0.4131(8) -0.1425(5) 0.0233(6)
N10A N 0.5528(8) 0.6058(5) -0.6216(6)
N10A_2 N -0.4472(8) -0.3942(5) 0.3784(6)
C1A C -0.2900(10) 0.5825(5) 0.7452(7)
H1A H -0.3838 0.6157 0.7524
C2A C -0.1456(10) 0.5948(5) 0.8405(8)
C3A C -0.0081(10) 0.5459(6) 0.8340(7)
H2A H 0.0909 0.5524 0.8991
C4A C -0.0222(10) 0.4857(6) 0.7259(8)
H3A H 0.0685 0.4504 0.7168
C5A C -0.1661(9) 0.4786(5) 0.6346(7)
C6A C -0.1935(9) 0.4185(5) 0.5195(7)
C7A C -0.1910(10) 0.3276(6) 0.3690(7)
C8A C -0.1420(10) 0.2554(6) 0.2877(7)
C9A C -0.2488(10) 0.2216(6) 0.1792(8)
H4A H -0.3561 0.2454 0.1539
C10A C -0.2000(10) 0.1519(6) 0.1053(8)
H5A H -0.2770 0.1298 0.0303
C11A C 0.0495(10) 0.1493(6) 0.2374(8)
H6A H 0.1565 0.1250 0.2604
C12A C 0.0124(10) 0.2194(6) 0.3168(8)
H7A H 0.0925 0.2417 0.3895
C13A C -0.2423(11) 0.0863(5) -0.2590(7)
H8A H -0.1532 0.1212 -0.2716
C14A C -0.3880(10) 0.0953(5) -0.3501(8)
C15A C -0.5198(11) 0.0440(6) -0.3377(8)
H9A H -0.6200 0.0496 -0.4022
C16A C -0.5003(10) -0.0159(6) -0.2278(7)
H10A H -0.5878 -0.0523 -0.2155
C17A C -0.3532(10) -0.0221(6) -0.1370(7)
C18A C -0.3143(10) -0.0829(5) -0.0182(7)
C19A C -0.3173(9) -0.1779(6) 0.1342(7)
C20A C -0.3636(11) -0.2528(6) 0.2185(8)
C21A C -0.2514(10) -0.2906(6) 0.3234(7)
H11A H -0.1432 -0.2698 0.3440
C22A C -0.2990(10) -0.3611(5) 0.4004(8)
H12A H -0.2196 -0.3869 0.4732
C23A C -0.5503(10) -0.3583(6) 0.2767(8)
H13A H -0.6558 -0.3829 0.2562
C24A C -0.5198(10) -0.2848(6) 0.1922(8)
H14A H -0.6025 -0.2593 0.1217
loop_
_geom_bond_atom_site_label_1
_geom_bond_atom_site_label_2
_geom_bond_site_symmetry_1
_geom_bond_site_symmetry_2
Br1 C2 1_555 1_555
Br2 C14 1_555 1_555
Fe1 N10 1_555 1_555
Fe2 N5 1_555 1_555
N1 C1 1_555 1_555
N2 N3 1_555 1_555
N3 C7 1_555 1_555
N4 C6 1_555 1_555
N5 C10 1_555 1_555
N6 Fe2 1_555 1_555
N7 Fe2 1_555 1_555
N8 N7 1_555 1_555
N9 C18 1_555 1_555
N10 C22 1_555 1_555
C1 H1 1_555 1_555
C2 C1 1_555 1_555
C3 C2 1_555 1_555
H2 C3 1_555 1_555
C4 C3 1_555 1_555
H3 C4 1_555 1_555
C5 N1 1_555 1_555
C6 N2 1_555 1_555
C7 N4 1_555 1_555
C8 C7 1_555 1_555
C9 C8 1_555 1_555
H4 C9 1_555 1_555
C10 C9 1_555 1_555
H5 C10 1_555 1_555
C11 N5 1_555 1_555
H6 C11 1_555 1_555
C12 C8 1_555 1_555
H7 C12 1_555 1_555
C13 N6 1_555 1_555
H8 C13 1_555 1_555
C14 C13 1_555 1_555
C15 C14 1_555 1_555
H9 C15 1_555 1_555
C16 C15 1_555 1_555
H10 C16 1_555 1_555
C17 N6 1_555 1_555
C18 N7 1_555 1_555
C19 N8 1_555 1_555
C20 C19 1_555 1_555
C21 C20 1_555 1_555
H11 C21 1_555 1_555
C22 C21 1_555 1_555
H12 C22 1_555 1_555
C23 N10 1_555 1_555
H13 C23 1_555 1_555
C24 C20 1_555 1_555
H14 C24 1_555 1_555
Br1A C2A 1_555 1_555
Br2A C14A 1_555 1_555
Fe1_2 N1 1_555 1_555
Fe1_3 N1A_2 1_555 1_555
Fe1_4 N10A_2 1_555 1_555
N1A Fe1 1_555 1_555
N1_2 Fe1 1_555 1_555
N1A_2 C1A 1_555 1_555
N2A Fe1 1_555 1_555
N2_2 Fe1 1_555 1_555
N2A_2 Fe1_3 1_555 1_555
N3A N2A_2 1_555 1_555
N4A C6A 1_555 1_555
N5A Fe2 1_555 1_555
N6A Fe2 1_555 1_555
N7A Fe2 1_555 1_555
N8A N7A 1_555 1_555
N9A C18A 1_555 1_555
N10A Fe1 1_555 1_555
N10A_2 C22A 1_555 1_555
C1A H1A 1_555 1_555
C2A C1A 1_555 1_555
C3A C2A 1_555 1_555
H2A C3A 1_555 1_555
C4A C3A 1_555 1_555
H3A C4A 1_555 1_555
C5A N1A_2 1_555 1_555
C6A N2A_2 1_555 1_555
C7A N3A 1_555 1_555
C8A C7A 1_555 1_555
C9A C8A 1_555 1_555
H4A C9A 1_555 1_555
C10A N5A 1_555 1_555
H5A C10A 1_555 1_555
C11A N5A 1_555 1_555
H6A C11A 1_555 1_555
C12A C8A 1_555 1_555
H7A C12A 1_555 1_555
C13A N6A 1_555 1_555
H8A C13A 1_555 1_555
C14A C13A 1_555 1_555
C15A C14A 1_555 1_555
H9A C15A 1_555 1_555
C16A C15A 1_555 1_555
H10A C16A 1_555 1_555
C17A N6A 1_555 1_555
C18A N7A 1_555 1_555
C19A N8A 1_555 1_555
C20A C19A 1_555 1_555
C21A C20A 1_555 1_555
H11A C21A 1_555 1_555
C22A C21A 1_555 1_555
H12A C22A 1_555 1_555
C23A N10A_2 1_555 1_555
H13A C23A 1_555 1_555
C24A C20A 1_555 1_555
H14A C24A 1_555 1_555
N2 Fe1_2 1_555 1_555
N9 C19 1_555 1_555
C4 C5 1_555 1_555
C5 C6 1_555 1_555
C11 C12 1_555 1_555
C16 C17 1_555 1_555
C17 C18 1_555 1_555
C23 C24 1_555 1_555
N4A C7A 1_555 1_555
N9A C19A 1_555 1_555
C4A C5A 1_555 1_555
C5A C6A 1_555 1_555
C9A C10A 1_555 1_555
C11A C12A 1_555 1_555
C16A C17A 1_555 1_555
C17A C18A 1_555 1_555
C23A C24A 1_555 1_555

#END
