
#######################################################################
#
#                 Cambridge Crystallographic Data Centre
#                                CCDC 
#
#######################################################################
#
# If this CIF has been generated from an entry in the Cambridge 
# Structural Database, then it will include bibliographic, chemical, 
# crystal, experimental, refinement or atomic coordinate data resulting 
# from the CCDC's data processing and validation procedures.
#
#######################################################################

data_DEKVAS
_symmetry_cell_setting           monoclinic
_symmetry_space_group_name_H-M   'P 21/n'
_symmetry_Int_Tables_number      14
_space_group_name_Hall           '-P 2yn'
loop_
_symmetry_equiv_pos_site_id
_symmetry_equiv_pos_as_xyz
1 x,y,z
2 1/2-x,1/2+y,1/2-z
3 -x,-y,-z
4 1/2+x,1/2-y,1/2+z
_cell_length_a                   8.5942(8)
_cell_length_b                   14.9817(14)
_cell_length_c                   10.1941(10)
_cell_angle_alpha                90
_cell_angle_beta                 103.976(2)
_cell_angle_gamma                90
_cell_volume                     1273.69
loop_
_atom_site_label
_atom_site_type_symbol
_atom_site_fract_x
_atom_site_fract_y
_atom_site_fract_z
Fe1 Fe 1.0000 0.0000 0.5000
Br1 Br 1.40659(10) -0.18002(5) 0.99081(7)
N1 N 1.2240(5) -0.0287(3) 0.6534(5)
N2 N 1.1684(5) 0.0821(3) 0.4412(4)
N3 N 1.1681(5) 0.1436(3) 0.3438(5)
N4 N 1.4153(5) 0.1408(3) 0.4875(4)
N5 N 1.4500(5) 0.3882(3) 0.1392(5)
C1 C 1.2427(7) -0.0863(3) 0.7573(5)
H1 H 1.1556 -0.1201 0.7672
C2 C 1.3892(8) -0.0961(4) 0.8499(6)
C3 C 1.5201(8) -0.0461(4) 0.8363(6)
H2 H 1.6193 -0.0528 0.8970
C4 C 1.4998(7) 0.0141(4) 0.7301(6)
H3 H 1.5849 0.0495 0.7196
C5 C 1.3507(7) 0.0209(4) 0.6397(5)
C6 C 1.3140(7) 0.0824(3) 0.5235(5)
C7 C 1.3180(7) 0.1779(3) 0.3760(5)
C8 C 1.3662(7) 0.2493(3) 0.2963(5)
C9 C 1.2579(7) 0.2850(4) 0.1862(5)
H4 H 1.1537 0.2630 0.1614
C10 C 1.3032(7) 0.3526(4) 0.1136(6)
H5 H 1.2263 0.3755 0.0410
C11 C 1.5554(8) 0.3531(4) 0.2453(7)
H6 H 1.6591 0.3760 0.2671
C12 C 1.5190(7) 0.2844(4) 0.3250(6)
H7 H 1.5974 0.2623 0.3972
Fe1A Fe 0.5000 -0.5000 1.0000
Fe1A_2 Fe 1.5000 0.5000 0.0000
Br1B Br 0.59341(10) 0.18002(5) 0.00919(7)
N1B N 0.7760(5) 0.0287(3) 0.3466(5)
N2B N 0.8316(5) -0.0821(3) 0.5588(4)
N3B N 0.8319(5) -0.1436(3) 0.6562(5)
N4B N 0.5847(5) -0.1408(3) 0.5125(4)
N5B N 0.5500(5) -0.3882(3) 0.8608(5)
N5A N 1.0500(5) -0.1118(3) 0.3608(5)
N5C N 0.9500(5) 0.1118(3) 0.6392(5)
C1B C 0.7573(7) 0.0863(3) 0.2427(5)
H1B H 0.8444 0.1201 0.2328
C2B C 0.6108(8) 0.0961(4) 0.1501(6)
C3B C 0.4799(8) 0.0461(4) 0.1637(6)
H2B H 0.3807 0.0528 0.1030
C4B C 0.5002(7) -0.0141(4) 0.2699(6)
H3B H 0.4151 -0.0495 0.2804
C5B C 0.6493(7) -0.0209(4) 0.3603(5)
C6B C 0.6860(7) -0.0824(3) 0.4765(5)
C7B C 0.6820(7) -0.1779(3) 0.6240(5)
C8B C 0.6338(7) -0.2493(3) 0.7037(5)
C9B C 0.7421(7) -0.2850(4) 0.8138(5)
H4B H 0.8463 -0.2630 0.8386
C10B C 0.6968(7) -0.3526(4) 0.8864(6)
H5B H 0.7737 -0.3755 0.9590
C11B C 0.4446(8) -0.3531(4) 0.7547(7)
H6B H 0.3409 -0.3760 0.7329
C12B C 0.4810(7) -0.2844(4) 0.6750(6)
H7B H 0.4026 -0.2623 0.6028
loop_
_geom_bond_atom_site_label_1
_geom_bond_atom_site_label_2
_geom_bond_site_symmetry_1
_geom_bond_site_symmetry_2
Fe1 N1 1_555 1_555
Br1 C2 1_555 1_555
N1 C1 1_555 1_555
N2 Fe1 1_555 1_555
N3 N2 1_555 1_555
N4 C6 1_555 1_555
N5 C10 1_555 1_555
C1 H1 1_555 1_555
C2 C1 1_555 1_555
C3 C2 1_555 1_555
H2 C3 1_555 1_555
C4 C3 1_555 1_555
H3 C4 1_555 1_555
C5 N1 1_555 1_555
C6 N2 1_555 1_555
C7 N3 1_555 1_555
C8 C7 1_555 1_555
C9 C8 1_555 1_555
H4 C9 1_555 1_555
C10 C9 1_555 1_555
H5 C10 1_555 1_555
C11 N5 1_555 1_555
H6 C11 1_555 1_555
C12 C8 1_555 1_555
H7 C12 1_555 1_555
Fe1A N5B 1_555 1_555
Fe1A_2 N5 1_555 1_555
Br1B C2B 1_555 1_555
N1B Fe1 1_555 1_555
N2B Fe1 1_555 1_555
N3B N2B 1_555 1_555
N4B C6B 1_555 1_555
N5B C10B 1_555 1_555
N5A Fe1 1_555 1_555
N5C Fe1 1_555 1_555
C1B N1B 1_555 1_555
H1B C1B 1_555 1_555
C2B C1B 1_555 1_555
C3B C2B 1_555 1_555
H2B C3B 1_555 1_555
C4B C3B 1_555 1_555
H3B C4B 1_555 1_555
C5B N1B 1_555 1_555
C6B N2B 1_555 1_555
C7B N3B 1_555 1_555
C8B C7B 1_555 1_555
C9B C8B 1_555 1_555
H4B C9B 1_555 1_555
C10B C9B 1_555 1_555
H5B C10B 1_555 1_555
C11B N5B 1_555 1_555
H6B C11B 1_555 1_555
C12B C8B 1_555 1_555
H7B C12B 1_555 1_555
N4 C7 1_555 1_555
C4 C5 1_555 1_555
C5 C6 1_555 1_555
C11 C12 1_555 1_555
N4B C7B 1_555 1_555
C4B C5B 1_555 1_555
C5B C6B 1_555 1_555
C11B C12B 1_555 1_555

#END
