
#######################################################################
#
#                 Cambridge Crystallographic Data Centre
#                                CCDC 
#
#######################################################################
#
# If this CIF has been generated from an entry in the Cambridge 
# Structural Database, then it will include bibliographic, chemical, 
# crystal, experimental, refinement or atomic coordinate data resulting 
# from the CCDC's data processing and validation procedures.
#
#######################################################################

data_DEKYUP
_symmetry_cell_setting           orthorhombic
_symmetry_space_group_name_H-M   'P n m a'
_symmetry_Int_Tables_number      62
_space_group_name_Hall           '-P 2ac 2n'
loop_
_symmetry_equiv_pos_site_id
_symmetry_equiv_pos_as_xyz
1 x,y,z
2 1/2-x,-y,1/2+z
3 1/2+x,1/2-y,1/2-z
4 -x,1/2+y,-z
5 -x,-y,-z
6 1/2+x,y,1/2-z
7 1/2-x,1/2+y,1/2+z
8 x,1/2-y,z
_cell_length_a                   12.6021(3)
_cell_length_b                   7.7310(2)
_cell_length_c                   13.7768(3)
_cell_angle_alpha                90
_cell_angle_beta                 90
_cell_angle_gamma                90
_cell_volume                     1342.23
loop_
_atom_site_label
_atom_site_type_symbol
_atom_site_fract_x
_atom_site_fract_y
_atom_site_fract_z
Cd1 Cd 0.521340(15) 0.2500 0.355590(15)
Ni1 Ni 0.23576(3) 0.2500 -0.25820(3)
N1 N 0.34688(14) 0.5351(2) -0.36801(13)
N2 N 0.10395(14) -0.0320(2) -0.16722(15)
N3 N 0.5423(2) 0.2500 0.18509(19)
N4 N 0.3848(2) 0.2500 -0.1425(2)
H1 H 0.424(2) 0.158(3) -0.157(2)
N5 N 0.4962(2) 0.2500 0.5188(2)
H2 H 0.551(5) 0.2500 0.545(5)
H3 H 0.467(3) 0.161(5) 0.533(3)
C1 C 0.15423(16) 0.0774(3) -0.20026(16)
C2 C 0.30227(15) 0.4240(2) -0.32963(16)
C3 C 0.4597(2) 0.2500 0.1244(2)
H4 H 0.3918 0.2500 0.1510
C4 C 0.4692(2) 0.2500 0.0236(2)
C5 C 0.5712(3) 0.2500 -0.0136(3)
H5 H 0.5819 0.2500 -0.0804
C6 C 0.6571(3) 0.2500 0.0487(3)
H6 H 0.7258 0.2500 0.0241
C7 C 0.6406(3) 0.2500 0.1475(2)
H7 H 0.6988 0.2500 0.1890
C8 C 0.3700(3) 0.2500 -0.0386(3)
H8 H 0.328(2) 0.166(4) -0.019(2)
Cd1A Cd -0.021340(15) -0.2500 -0.144410(15)
Cd1A_2 Cd -0.021340(15) 0.7500 -0.144410(15)
Cd1C Cd 0.478660(15) 0.7500 -0.355590(15)
Cd1C_2 Cd 0.478660(15) -0.2500 -0.355590(15)
N1D N 0.65312(14) 0.4649(2) 0.36801(13)
N1C N 0.65312(14) 0.0351(2) 0.36801(13)
N1G N 0.34688(14) -0.0351(2) -0.36801(13)
N2F N 0.39605(14) 0.4680(2) 0.33278(15)
N2A N 0.39605(14) 0.0320(2) 0.33278(15)
N2G N 0.10395(14) 0.5320(2) -0.16722(15)
H1G H 0.424(2) 0.342(3) -0.157(2)
H3G H 0.467(3) 0.339(5) 0.533(3)
C1G C 0.15423(16) 0.4226(3) -0.20026(16)
C2G C 0.30227(15) 0.0760(2) -0.32963(16)
H8G H 0.328(2) 0.334(4) -0.019(2)
loop_
_geom_bond_atom_site_label_1
_geom_bond_atom_site_label_2
_geom_bond_site_symmetry_1
_geom_bond_site_symmetry_2
Cd1 N3 1_555 1_555
Ni1 N4 1_555 1_555
N1 C2 1_555 1_555
N2 C1 1_555 1_555
N3 C3 1_555 1_555
N4 H1 1_555 1_555
N5 Cd1 1_555 1_555
H2 N5 1_555 1_555
H3 N5 1_555 1_555
C1 Ni1 1_555 1_555
C2 Ni1 1_555 1_555
C3 H4 1_555 1_555
C4 C3 1_555 1_555
C5 C4 1_555 1_555
H5 C5 1_555 1_555
C6 C5 1_555 1_555
H6 C6 1_555 1_555
C7 N3 1_555 1_555
H7 C7 1_555 1_555
C8 N4 1_555 1_555
H8 C8 1_555 1_555
Cd1A N2 1_555 1_555
Cd1A_2 N2G 1_555 1_555
Cd1C N1 1_555 1_555
Cd1C_2 N1G 1_555 1_555
N1D Cd1 1_555 1_555
N1C Cd1 1_555 1_555
N1G C2G 1_555 1_555
N2F Cd1 1_555 1_555
N2A Cd1 1_555 1_555
N2G C1G 1_555 1_555
H1G N4 1_555 1_555
H3G N5 1_555 1_555
C1G Ni1 1_555 1_555
C2G Ni1 1_555 1_555
H8G C8 1_555 1_555
C4 C8 1_555 1_555
C6 C7 1_555 1_555

#END
