
#######################################################################
#
#                 Cambridge Crystallographic Data Centre
#                                CCDC 
#
#######################################################################
#
# If this CIF has been generated from an entry in the Cambridge 
# Structural Database, then it will include bibliographic, chemical, 
# crystal, experimental, refinement or atomic coordinate data resulting 
# from the CCDC's data processing and validation procedures.
#
#######################################################################

data_DEKZIE
_symmetry_cell_setting           monoclinic
_symmetry_space_group_name_H-M   'C 2/m'
_symmetry_Int_Tables_number      12
_space_group_name_Hall           '-C 2y'
loop_
_symmetry_equiv_pos_site_id
_symmetry_equiv_pos_as_xyz
1 x,y,z
2 -x,y,-z
3 1/2+x,1/2+y,z
4 1/2-x,1/2+y,-z
5 -x,-y,-z
6 x,-y,z
7 1/2-x,1/2-y,-z
8 1/2+x,1/2-y,z
_cell_length_a                   8.7921(7)
_cell_length_b                   25.034(2)
_cell_length_c                   4.9377(5)
_cell_angle_alpha                90
_cell_angle_beta                 116.809(8)
_cell_angle_gamma                90
_cell_volume                     969.981
loop_
_atom_site_label
_atom_site_type_symbol
_atom_site_fract_x
_atom_site_fract_y
_atom_site_fract_z
O1 O 0.682(4) 0.8494(17) 0.379(3)
C1 C 0.7259(3) 0.8524(4) 0.6594(15)
O2 O 0.745(5) 0.8106(10) 0.812(8)
C2 C 0.76227(7) 0.901911(14) 0.8548(2)
C3 C 0.74580(6) 0.950916(11) 0.66412(16)
C4 C 0.73607(6) 1.00000 0.8316(2)
Ba1 Ba 0.50000 0.76805(13) 0.00000
O3 O 0.50000 0.70395(6) -0.50000
H1 H 0.68221 0.904152 0.93711
H2 H 0.875866 0.899975 1.017554
H3 H 0.843185 0.953412 0.625294
H4 H 0.64418 0.948197 0.475151
H5 H 0.829357 1.00000 1.032235
H6 H 0.630354 1.00000 0.844549
H7 H 0.417330 0.683910 -0.566370
O1E O 0.682(4) 1.1506(17) 0.379(3)
O1A O 0.318(4) 0.8494(17) -0.379(3)
C1E C 0.7259(3) 1.1476(4) 0.6594(15)
O2E O 0.745(5) 1.1894(10) 0.812(8)
O2_2 O 0.745(5) 0.8106(10) -0.188(8)
O2F O 0.755(5) 0.6894(10) 0.188(8)
O2A O 0.255(5) 0.8106(10) 0.188(8)
O2G O 0.245(5) 0.6894(10) -0.188(8)
C2E C 0.76227(7) 1.098089(14) 0.8548(2)
C3E C 0.74580(6) 1.049084(11) 0.66412(16)
Ba1_2 Ba 0.50000 0.76805(13) 1.00000
Ba1F Ba 1.00000 0.73195(13) 1.00000
Ba1_3 Ba 0.50000 0.76805(13) -1.00000
Ba1D Ba 0.50000 1.23195(13) 0.00000
Ba1D_2 Ba 0.50000 1.23195(13) 1.00000
Ba1B Ba 1.00000 1.26805(13) 1.00000
O3_2 O 0.50000 0.70395(6) 0.50000
H1E H 0.68221 1.095848 0.93711
H2E H 0.875866 1.100025 1.017554
H3E H 0.843185 1.046588 0.625294
H4E H 0.64418 1.051803 0.475151
H7A H 0.582670 0.683910 -0.433630
H7_2 H 0.417330 0.683910 0.433630
H7A_2 H 0.582670 0.683910 0.566370
loop_
_geom_bond_atom_site_label_1
_geom_bond_atom_site_label_2
_geom_bond_site_symmetry_1
_geom_bond_site_symmetry_2
O1 C1 1_555 1_555
C1 O2 1_555 1_555
O2 Ba1_2 1_555 1_555
C2 C1 1_555 1_555
C3 C2 1_555 1_555
C4 C3 1_555 1_555
Ba1 O1 1_555 1_555
O3 Ba1 1_555 1_555
H1 C2 1_555 1_555
H2 C2 1_555 1_555
H3 C3 1_555 1_555
H4 C3 1_555 1_555
H5 C4 1_555 1_555
H6 C4 1_555 1_555
H7 O3 1_555 1_555
O1E C1E 1_555 1_555
O1A Ba1 1_555 1_555
C1E O2E 1_555 1_555
O2E Ba1D_2 1_555 1_555
O2_2 Ba1 1_555 1_555
O2F Ba1 1_555 1_555
O2A Ba1 1_555 1_555
O2G Ba1 1_555 1_555
C2E C1E 1_555 1_555
C3E C4 1_555 1_555
Ba1_2 O3_2 1_555 1_555
Ba1F O2 1_555 1_555
Ba1_3 O3 1_555 1_555
Ba1D O1E 1_555 1_555
Ba1B O2E 1_555 1_555
O3_2 Ba1 1_555 1_555
H1E C2E 1_555 1_555
H2E C2E 1_555 1_555
H3E C3E 1_555 1_555
H4E C3E 1_555 1_555
H7A O3 1_555 1_555
H7_2 O3_2 1_555 1_555
H7A_2 O3_2 1_555 1_555
C2E C3E 1_555 1_555

#END
