
#######################################################################
#
#                 Cambridge Crystallographic Data Centre
#                                CCDC 
#
#######################################################################
#
# If this CIF has been generated from an entry in the Cambridge 
# Structural Database, then it will include bibliographic, chemical, 
# crystal, experimental, refinement or atomic coordinate data resulting 
# from the CCDC's data processing and validation procedures.
#
#######################################################################

data_DEKZUQ
_symmetry_cell_setting           orthorhombic
_symmetry_space_group_name_H-M   'P n m a'
_symmetry_Int_Tables_number      62
_space_group_name_Hall           '-P 2ac 2n'
loop_
_symmetry_equiv_pos_site_id
_symmetry_equiv_pos_as_xyz
1 x,y,z
2 1/2-x,-y,1/2+z
3 1/2+x,1/2-y,1/2-z
4 -x,1/2+y,-z
5 -x,-y,-z
6 1/2+x,y,1/2-z
7 1/2-x,1/2+y,1/2+z
8 x,1/2-y,z
_cell_length_a                   12.152(1)
_cell_length_b                   7.354(2)
_cell_length_c                   13.293(2)
_cell_angle_alpha                90
_cell_angle_beta                 90
_cell_angle_gamma                90
_cell_volume                     1187.94
loop_
_atom_site_label
_atom_site_type_symbol
_atom_site_fract_x
_atom_site_fract_y
_atom_site_fract_z
Ba1 Ba 1.398174(14) 0.2500 1.057028(14)
C1 C 0.8611(3) 0.2500 1.0187(3)
H1 H 0.851(3) 0.147(4) 1.0626(19)
O1 O 1.16696(19) 0.2500 1.00125(18)
O2 O 0.61171(14) 0.3985(3) 1.00449(18)
C2 C 0.6569(2) 0.2500 0.9854(2)
C3 C 0.9742(3) 0.2500 0.9698(3)
H2 H 0.982(3) 0.354(5) 0.927(2)
C4 C 1.0730(3) 0.2500 1.0400(3)
C5 C 0.7709(3) 0.2500 0.9390(3)
H3 H 0.781(2) 0.149(4) 0.896(2)
O3 O 1.0561(2) 0.2500 1.13337(18)
O4 O 1.39665(19) 0.2500 0.8421(2)
O5 O 1.46474(18) 0.0238(3) 1.22176(14)
H4 H 1.486(3) 0.082(5) 1.278(2)
H5 H 1.423(4) 0.360(4) 0.821(4)
H6 H 1.528(5) 0.01(2) 1.182(8)
O6 O 1.2519(3) 0.2500 1.2226(3)
H7 H 1.180(3) 0.250 1.194(4)
H8 H 1.232(7) 0.250 1.2917(19)
Ba1_2 Ba 0.398174(14) 0.2500 1.057028(14)
Ba1C Ba 0.601826(14) 0.7500 0.942972(14)
Ba1C_2 Ba 0.601826(14) -0.2500 0.942972(14)
H1G H 0.851(3) 0.353(4) 1.0626(19)
O2G O 0.61171(14) 0.1015(3) 1.00449(18)
O2_2 O 1.61171(14) 0.3985(3) 1.00449(18)
O2C O 1.38829(14) -0.1015(3) 0.99551(18)
O2D O 1.38829(14) 0.6015(3) 0.99551(18)
O2G_2 O 1.61171(14) 0.1015(3) 1.00449(18)
H2G H 0.982(3) 0.146(5) 0.927(2)
H3G H 0.781(2) 0.351(4) 0.896(2)
O5G O 1.46474(18) 0.4762(3) 1.22176(14)
H4G H 1.486(3) 0.418(5) 1.278(2)
H5G H 1.423(4) 0.140(4) 0.821(4)
H6G H 1.528(5) 0.49(2) 1.182(8)
O7 O 0.1769(2) 0.2500 0.7984(2)
H10 H 0.130(5) 0.153(7) 0.779(4)
H10G H 0.130(5) 0.347(7) 0.779(4)
H9? H 0.170(4) 0.250 0.8681(15)
loop_
_geom_bond_atom_site_label_1
_geom_bond_atom_site_label_2
_geom_bond_site_symmetry_1
_geom_bond_site_symmetry_2
Ba1 O1 1_555 1_555
C1 H1 1_555 1_555
O1 C4 1_555 1_555
O2 C2 1_555 1_555
C2 C5 1_555 1_555
C3 C1 1_555 1_555
H2 C3 1_555 1_555
C4 C3 1_555 1_555
C5 C1 1_555 1_555
H3 C5 1_555 1_555
O3 C4 1_555 1_555
O4 Ba1 1_555 1_555
O5 Ba1 1_555 1_555
H4 O5 1_555 1_555
H5 O4 1_555 1_555
H6 O5 1_555 1_555
O6 Ba1 1_555 1_555
H7 O6 1_555 1_555
H8 O6 1_555 1_555
O7 H10 1_555 1_555
Ba1_2 O2 1_555 1_555
Ba1C O2 1_555 1_555
Ba1C_2 O2G 1_555 1_555
H1G C1 1_555 1_555
O2G C2 1_555 1_555
O2_2 Ba1 1_555 1_555
O2C Ba1 1_555 1_555
O2D Ba1 1_555 1_555
O2G_2 Ba1 1_555 1_555
H2G C3 1_555 1_555
H3G C5 1_555 1_555
O5G Ba1 1_555 1_555
H4G O5G 1_555 1_555
H5G O4 1_555 1_555
H6G O5G 1_555 1_555
H10G O7 1_555 1_555
Ba1_2 O2G 1_555 1_555

#END
