
#######################################################################
#
#                 Cambridge Crystallographic Data Centre
#                                CCDC 
#
#######################################################################
#
# If this CIF has been generated from an entry in the Cambridge 
# Structural Database, then it will include bibliographic, chemical, 
# crystal, experimental, refinement or atomic coordinate data resulting 
# from the CCDC's data processing and validation procedures.
#
#######################################################################

data_DELFEF
_symmetry_cell_setting           monoclinic
_symmetry_space_group_name_H-M   'P 21/a'
_symmetry_Int_Tables_number      14
_space_group_name_Hall           '-P 2yab'
loop_
_symmetry_equiv_pos_site_id
_symmetry_equiv_pos_as_xyz
1 x,y,z
2 1/2-x,1/2+y,-z
3 -x,-y,-z
4 1/2+x,1/2-y,z
_cell_length_a                   12.501(6)
_cell_length_b                   25.096(9)
_cell_length_c                   10.788(2)
_cell_angle_alpha                90
_cell_angle_beta                 90.25(3)
_cell_angle_gamma                90
_cell_volume                     3384.43
loop_
_atom_site_label
_atom_site_type_symbol
_atom_site_fract_x
_atom_site_fract_y
_atom_site_fract_z
Yb1 Yb -0.3369(1) -0.2217(1) 0.1463(1)
Yb2 Yb -0.3066(1) -0.2757(1) 0.6463(1)
S1 S -0.2598(9) -0.0671(4) 0.4686(7)
S2 S -0.5700(8) -0.0807(4) -0.0554(9)
S3 S -0.4900(7) -0.3820(4) 0.2572(7)
S4 S -0.3791(8) -0.4314(4) 0.9636(8)
S5 S -0.0687(8) -0.4158(4) 0.4402(9)
S6 S -0.1549(7) -0.1148(4) -0.2381(7)
O1 O -0.1965(15) -0.2652(9) 0.2369(16)
O2 O -0.3824(21) -0.3017(10) 0.0575(17)
O3 O -0.3055(16) -0.1646(8) 0.3194(16)
O4 O -0.3009(16) -0.1281(9) 0.1339(16)
O5 O -0.5140(15) -0.1865(9) 0.1441(16)
O6 O -0.4319(14) -0.1932(8) -0.0343(15)
O7 O -0.4163(14) -0.2688(7) 0.2966(15)
O8 O -0.4299(17) -0.2757(10) 0.5010(15)
O9 O -0.4468(14) -0.2339(9) 0.7390(16)
O10 O -0.2571(15) -0.1960(8) 0.5561(16)
O11 O -0.3389(15) -0.3350(7) 0.8174(17)
O12 O -0.3456(18) -0.3667(9) 0.6349(18)
O13 O -0.1324(14) -0.3120(9) 0.6444(16)
O14 O -0.2064(13) -0.3061(8) 0.4689(16)
O15 O -0.2127(12) -0.2257(10) 0.0006(16)
O16 O -0.2223(15) -0.2303(9) -0.2026(15)
C1 C -0.291(2) -0.1246(11) 0.253(2)
C2 C -0.281(3) -0.0684(14) 0.302(3)
C3 C -0.150(4) -0.0220(2) 0.482(4)
C4 C -0.515(2) -0.1755(13) 0.027(2)
C5 C -0.601(2) -0.1485(14) -0.034(2)
C6 C -0.570(3) -0.0567(17) 0.100(4)
C7 C -0.4494(18) -0.2902(10) 0.391(2)
C8 C -0.521(3) -0.3375(13) 0.384(2)
C9 C -0.356(4) -0.4014(18) 0.302(4)
C10 C -0.346(2) -0.3726(10) 0.747(3)
C11 C -0.355(3) -0.4307(13) 0.796(3)
C12 C -0.352(3) -0.4991(15) 0.992(3)
C13 C -0.132(2) -0.3209(11) 0.526(2)
C14 C -0.037(2) -0.3468(13) 0.467(3)
C15 C -0.060(4) -0.4440(2) 0.600(4)
C16 C -0.1927(19) -0.2066(14) -0.109(2)
C17 C -0.121(3) -0.1605(13) -0.113(3)
C18 C -0.284(3) -0.0958(18) -0.190(4)
O16_2 O -0.2223(15) -0.2303(9) 0.7974(15)
Yb2_2 Yb -0.3066(1) -0.2757(1) -0.3537(1)
loop_
_geom_bond_atom_site_label_1
_geom_bond_atom_site_label_2
_geom_bond_site_symmetry_1
_geom_bond_site_symmetry_2
Yb1 O1 1_555 1_555
Yb2 O8 1_555 1_555
S1 C2 1_555 1_555
S2 C5 1_555 1_555
S3 C8 1_555 1_555
S4 C11 1_555 1_555
S5 C14 1_555 1_555
S6 C17 1_555 1_555
O2 Yb1 1_555 1_555
O3 Yb1 1_555 1_555
O4 Yb1 1_555 1_555
O5 Yb1 1_555 1_555
O6 Yb1 1_555 1_555
O7 Yb1 1_555 1_555
O8 C7 1_555 1_555
O9 Yb2 1_555 1_555
O10 Yb2 1_555 1_555
O11 Yb2 1_555 1_555
O12 Yb2 1_555 1_555
O13 Yb2 1_555 1_555
O14 Yb2 1_555 1_555
O15 Yb1 1_555 1_555
O16 C16 1_555 1_555
C1 O3 1_555 1_555
C2 C1 1_555 1_555
C3 S1 1_555 1_555
C4 O5 1_555 1_555
C5 C4 1_555 1_555
C6 S2 1_555 1_555
C7 O7 1_555 1_555
C8 C7 1_555 1_555
C9 S3 1_555 1_555
C10 O11 1_555 1_555
C11 C10 1_555 1_555
C12 S4 1_555 1_555
C13 O13 1_555 1_555
C14 C13 1_555 1_555
C15 S5 1_555 1_555
C16 O15 1_555 1_555
C17 C16 1_555 1_555
C18 S6 1_555 1_555
O16_2 Yb2 1_555 1_555
Yb2_2 O16 1_555 1_555
O4 C1 1_555 1_555
O6 C4 1_555 1_555
O12 C10 1_555 1_555
O14 C13 1_555 1_555

#END
