
#######################################################################
#
#                 Cambridge Crystallographic Data Centre
#                                CCDC 
#
#######################################################################
#
# If this CIF has been generated from an entry in the Cambridge 
# Structural Database, then it will include bibliographic, chemical, 
# crystal, experimental, refinement or atomic coordinate data resulting 
# from the CCDC's data processing and validation procedures.
#
#######################################################################

data_DELFUV
_symmetry_cell_setting           triclinic
_symmetry_space_group_name_H-M   'P -1'
_symmetry_Int_Tables_number      2
_space_group_name_Hall           '-P 1'
loop_
_symmetry_equiv_pos_site_id
_symmetry_equiv_pos_as_xyz
1 x,y,z
2 -x,-y,-z
_cell_length_a                   11.934(2)
_cell_length_b                   14.642(9)
_cell_length_c                   11.801(6)
_cell_angle_alpha                90.41(5)
_cell_angle_beta                 94.04(2)
_cell_angle_gamma                83.82(2)
_cell_volume                     2045
loop_
_atom_site_label
_atom_site_type_symbol
_atom_site_fract_x
_atom_site_fract_y
_atom_site_fract_z
Co1 Co 0.7995(1) 0.3149(1) 0.6016(1)
Hg1 Hg 0.33402(4) 0.24937(3) 0.44001(4)
S1 S 0.5286(3) 0.1097(2) 0.5071(3)
S2 S 0.4362(3) 0.4086(2) 0.4577(4)
S3 S 0.9320(4) 0.2648(4) 0.9816(4)
S4 S 0.0704(3) 0.2349(3) 0.3365(3)
C1 C 0.6183(9) 0.1832(7) 0.5379(9)
C2 C 0.3395(10) 0.4957(8) 0.4344(10)
C3 C 0.8851(10) 0.2812(8) 0.8532(11)
C4 C -0.0187(9) 0.2641(7) 0.4306(10)
N1 N 0.6829(8) 0.2332(6) 0.5620(9)
N2 N 0.7241(8) 0.4410(7) 0.5807(9)
N3 N 0.8528(8) 0.2926(8) 0.7586(9)
N4 N 0.9186(8) 0.2863(7) 0.4980(8)
P1 P 0.2687(2) 0.2414(2) 0.6297(2)
P2 P 0.3692(2) 0.2306(2) 0.2403(2)
C5 C 0.3274(9) 0.3344(7) 0.1591(9)
C6 C 0.2410(10) 0.3972(8) 0.1948(9)
C7 C 0.2131(11) 0.4799(9) 0.1383(11)
C8 C 0.2710(12) 0.5004(8) 0.0490(11)
C9 C 0.3548(12) 0.4384(10) 0.0105(11)
C10 C 0.3839(11) 0.3559(9) 0.0678(10)
C11 C 0.5196(9) 0.2035(9) 0.2224(10)
C12 C 0.5884(11) 0.2720(11) 0.2477(13)
C13 C 0.7041(12) 0.2545(13) 0.2322(14)
C14 C 0.7464(11) 0.1729(11) 0.1941(14)
C15 C 0.6792(13) 0.1048(11) 0.1685(14)
C16 C 0.5626(10) 0.1206(9) 0.1840(11)
C17 C 0.2962(9) 0.1381(7) 0.1805(9)
C18 C 0.3038(10) 0.0564(8) 0.2385(11)
C19 C 0.2474(11) -0.0167(9) 0.1987(11)
C20 C 0.1827(12) -0.0059(9) 0.0962(12)
C21 C 0.1726(12) 0.0734(10) 0.0395(12)
C22 C 0.2289(11) 0.1478(9) 0.0796(10)
C23 C 0.1896(9) 0.1440(7) 0.6407(8)
C24 C 0.2236(11) 0.0644(8) 0.5841(11)
C25 C 0.1622(12) -0.0119(9) 0.5876(12)
C26 C 0.0656(11) -0.0033(9) 0.6438(13)
C27 C 0.0316(11) 0.0767(10) 0.6966(14)
C28 C 0.0909(10) 0.1504(9) 0.6980(12)
C29 C 0.1857(8) 0.3437(7) 0.6717(9)
C30 C 0.1656(10) 0.3586(9) 0.7832(10)
C31 C 0.1045(11) 0.4402(10) 0.8174(11)
C32 C 0.0677(11) 0.5063(9) 0.7389(13)
C33 C 0.0886(11) 0.4926(9) 0.6278(13)
C34 C 0.1472(10) 0.4119(8) 0.5935(10)
C35 C 0.3891(9) 0.2288(8) 0.7345(8)
C36 C 0.4575(10) 0.2996(9) 0.7420(9)
C37 C 0.5516(11) 0.2923(11) 0.8182(11)
C38 C 0.5766(11) 0.2164(11) 0.8867(11)
C39 C 0.5078(13) 0.1477(10) 0.8799(11)
C40 C 0.4109(11) 0.1529(8) 0.8036(10)
H1 H 0.1948 0.3807 0.2677
H2 H 0.1435 0.5292 0.1654
H3 H 0.2517 0.5671 0.0069
H4 H 0.3979 0.4547 -0.0648
H5 H 0.4517 0.3066 0.0383
H6 H 0.5523 0.3392 0.2800
H7 H 0.7776 0.2945 0.2457
H8 H 0.8376 0.1600 0.1844
H9 H 0.7162 0.0385 0.1357
H10 H 0.5059 0.0666 0.1640
H11 H 0.3568 0.0492 0.3190
H12 H 0.2528 -0.0815 0.2469
H13 H 0.1403 -0.0637 0.0611
H14 H 0.1185 0.0805 -0.0399
H15 H 0.2202 0.2128 0.0320
H16 H 0.2993 0.0605 0.5357
H17 H 0.1897 -0.0765 0.5450
H18 H 0.0149 -0.0616 0.6461
H19 H -0.0471 0.0812 0.7401
H20 H 0.0624 0.2136 0.7438
H21 H 0.1970 0.3051 0.8465
H22 H 0.0863 0.4516 0.9065
H23 H 0.0208 0.5705 0.7655
H24 H 0.0590 0.5462 0.5646
H25 H 0.1626 0.4011 0.5034
H26 H 0.4369 0.3610 0.6881
H27 H 0.6072 0.3485 0.8238
H28 H 0.6522 0.2111 0.9451
H29 H 0.5290 0.0871 0.9356
H30 H 0.3537 0.0984 0.7989
N2A N 0.2759(8) 0.5590(7) 0.4193(9)
N4_2 N -0.0814(8) 0.2863(7) 0.4980(8)
C2A C 0.6605(10) 0.5043(8) 0.5656(10)
C4_2 C 0.9813(9) 0.2641(7) 0.4306(10)
S2A S 0.5638(3) 0.5914(2) 0.5423(4)
Co1A Co 0.2005(1) 0.6851(1) 0.3984(1)
Hg1A Hg 0.66598(4) 0.75063(3) 0.55999(4)
N1A N 0.3171(8) 0.7668(6) 0.4380(9)
N3A N 0.1472(8) 0.7074(8) 0.2414(9)
N4A N 0.0814(8) 0.7137(7) 0.5020(8)
S4_2 S 1.0704(3) 0.2349(3) 0.3365(3)
C1A C 0.3817(9) 0.8168(7) 0.4621(9)
S1A S 0.4714(3) 0.8903(2) 0.4929(3)
S4A S 0.9296(3) 0.7651(3) 0.6635(3)
P1A P 0.7313(2) 0.7586(2) 0.3703(2)
P2A P 0.6308(2) 0.7694(2) 0.7597(2)
Hg1_2 Hg 1.33402(4) 0.24937(3) 0.44001(4)
Co1_2 Co -0.2005(1) 0.3149(1) 0.6016(1)
C3A C 0.1149(10) 0.7188(8) 0.1468(11)
S3A S 0.0680(4) 0.7352(4) 0.0184(4)
C23A C 0.8104(9) 0.8560(7) 0.3593(8)
C29A C 0.8143(8) 0.6563(7) 0.3283(9)
C35A C 0.6109(9) 0.7712(8) 0.2655(8)
C5A C 0.6726(9) 0.6656(7) 0.8409(9)
C11A C 0.4804(9) 0.7965(9) 0.7776(10)
C17A C 0.7038(9) 0.8619(7) 0.8195(9)
C24A C 0.7764(11) 0.9356(8) 0.4159(11)
C28A C 0.9091(10) 0.8496(9) 0.3020(12)
C30A C 0.8344(10) 0.6414(9) 0.2168(10)
C34A C 0.8528(10) 0.5881(8) 0.4065(10)
C36A C 0.5425(10) 0.7004(9) 0.2580(9)
C40A C 0.5891(11) 0.8471(8) 0.1964(10)
C6A C 0.7590(10) 0.6028(8) 0.8052(9)
C10A C 0.6161(11) 0.6441(9) 0.9322(10)
C12A C 0.4116(11) 0.7280(11) 0.7523(13)
C16A C 0.4374(10) 0.8794(9) 0.8160(11)
C18A C 0.6962(10) 0.9436(8) 0.7615(11)
C22A C 0.7711(11) 0.8522(9) 0.9204(10)
C25A C 0.8378(12) 1.0119(9) 0.4124(12)
H16A H 0.7007 0.9395 0.4643
C27A C 0.9684(11) 0.9233(10) 0.3034(14)
H20A H 0.9376 0.7864 0.2562
C31A C 0.8955(11) 0.5598(10) 0.1826(11)
H21A H 0.8030 0.6949 0.1535
C33A C 0.9114(11) 0.5074(9) 0.3722(13)
H25A H 0.8374 0.5989 0.4966
C37A C 0.4484(11) 0.7077(11) 0.1818(11)
H26A H 0.5631 0.6390 0.3119
C39A C 0.4922(13) 0.8523(10) 0.1201(11)
H30A H 0.6463 0.9016 0.2011
C7A C 0.7869(11) 0.5201(9) 0.8617(11)
H1A H 0.8052 0.6193 0.7323
C9A C 0.6452(12) 0.5616(10) 0.9895(11)
H5A H 0.5483 0.6934 0.9617
C13A C 0.2959(12) 0.7455(13) 0.7678(14)
H6A H 0.4477 0.6608 0.7200
C15A C 0.3208(13) 0.8952(11) 0.8315(14)
H10A H 0.4941 0.9334 0.8360
C19A C 0.7526(11) 1.0167(9) 0.8013(11)
H11A H 0.6432 0.9508 0.6810
C21A C 0.8274(12) 0.9266(10) 0.9605(12)
H15A H 0.7798 0.7872 0.9680
C26A C 0.9344(11) 1.0033(9) 0.3562(13)
H17A H 0.8103 1.0765 0.4550
H19A H 1.0471 0.9188 0.2599
C32A C 0.9323(11) 0.4937(9) 0.2611(13)
H22A H 0.9137 0.5484 0.0935
H24A H 0.9410 0.4538 0.4354
C38A C 0.4234(11) 0.7836(11) 0.1133(11)
H27A H 0.3928 0.6515 0.1762
H29A H 0.4710 0.9129 0.0644
C8A C 0.7290(12) 0.4996(8) 0.9510(11)
H2A H 0.8565 0.4708 0.8346
H4A H 0.6021 0.5453 1.0648
C14A C 0.2536(11) 0.8271(11) 0.8059(14)
H7A H 0.2224 0.7055 0.7543
H9A H 0.2838 0.9615 0.8643
C20A C 0.8173(12) 1.0059(9) 0.9038(12)
H12A H 0.7472 1.0815 0.7531
H14A H 0.8815 0.9195 1.0399
H18A H 0.9851 1.0616 0.3539
H23A H 0.9792 0.4295 0.2345
H28A H 0.3478 0.7889 0.0549
H3A H 0.7483 0.4329 0.9931
H8A H 0.1624 0.8400 0.8156
H13A H 0.8597 1.0637 0.9389
loop_
_geom_bond_atom_site_label_1
_geom_bond_atom_site_label_2
_geom_bond_site_symmetry_1
_geom_bond_site_symmetry_2
Co1 N1 1_555 1_555
Hg1 S1 1_555 1_555
S1 C1 1_555 1_555
S2 Hg1 1_555 1_555
S3 C3 1_555 1_555
S4 Hg1 1_555 1_555
C1 N1 1_555 1_555
C2 S2 1_555 1_555
C3 N3 1_555 1_555
C4 S4 1_555 1_555
N2 Co1 1_555 1_555
N3 Co1 1_555 1_555
N4 Co1 1_555 1_555
P1 Hg1 1_555 1_555
P2 Hg1 1_555 1_555
C5 P2 1_555 1_555
C6 C5 1_555 1_555
C7 C6 1_555 1_555
C8 C7 1_555 1_555
C9 C8 1_555 1_555
C10 C5 1_555 1_555
C11 P2 1_555 1_555
C12 C11 1_555 1_555
C13 C12 1_555 1_555
C14 C13 1_555 1_555
C15 C14 1_555 1_555
C16 C11 1_555 1_555
C17 P2 1_555 1_555
C18 C17 1_555 1_555
C19 C18 1_555 1_555
C20 C19 1_555 1_555
C21 C20 1_555 1_555
C22 C17 1_555 1_555
C23 P1 1_555 1_555
C24 C23 1_555 1_555
C25 C24 1_555 1_555
C26 C25 1_555 1_555
C27 C26 1_555 1_555
C28 C23 1_555 1_555
C29 P1 1_555 1_555
C30 C29 1_555 1_555
C31 C30 1_555 1_555
C32 C31 1_555 1_555
C33 C32 1_555 1_555
C34 C29 1_555 1_555
C35 P1 1_555 1_555
C36 C35 1_555 1_555
C37 C36 1_555 1_555
C38 C37 1_555 1_555
C39 C38 1_555 1_555
C40 C35 1_555 1_555
H1 C6 1_555 1_555
H2 C7 1_555 1_555
H3 C8 1_555 1_555
H4 C9 1_555 1_555
H5 C10 1_555 1_555
H6 C12 1_555 1_555
H7 C13 1_555 1_555
H8 C14 1_555 1_555
H9 C15 1_555 1_555
H10 C16 1_555 1_555
H11 C18 1_555 1_555
H12 C19 1_555 1_555
H13 C20 1_555 1_555
H14 C21 1_555 1_555
H15 C22 1_555 1_555
H16 C24 1_555 1_555
H17 C25 1_555 1_555
H18 C26 1_555 1_555
H19 C27 1_555 1_555
H20 C28 1_555 1_555
H21 C30 1_555 1_555
H22 C31 1_555 1_555
H23 C32 1_555 1_555
H24 C33 1_555 1_555
H25 C34 1_555 1_555
H26 C36 1_555 1_555
H27 C37 1_555 1_555
H28 C38 1_555 1_555
H29 C39 1_555 1_555
H30 C40 1_555 1_555
N2A C2 1_555 1_555
N4_2 C4 1_555 1_555
C2A N2 1_555 1_555
C4_2 N4 1_555 1_555
S2A C2A 1_555 1_555
Co1A N2A 1_555 1_555
Hg1A S2A 1_555 1_555
N1A Co1A 1_555 1_555
N3A Co1A 1_555 1_555
N4A Co1A 1_555 1_555
S4_2 C4_2 1_555 1_555
C1A N1A 1_555 1_555
S1A Hg1A 1_555 1_555
S4A Hg1A 1_555 1_555
P1A Hg1A 1_555 1_555
P2A Hg1A 1_555 1_555
Hg1_2 S4_2 1_555 1_555
Co1_2 N4_2 1_555 1_555
C3A N3A 1_555 1_555
S3A C3A 1_555 1_555
C23A P1A 1_555 1_555
C29A P1A 1_555 1_555
C35A P1A 1_555 1_555
C5A P2A 1_555 1_555
C11A P2A 1_555 1_555
C17A P2A 1_555 1_555
C24A C23A 1_555 1_555
C28A C23A 1_555 1_555
C30A C29A 1_555 1_555
C34A C29A 1_555 1_555
C36A C35A 1_555 1_555
C40A C35A 1_555 1_555
C6A C5A 1_555 1_555
C10A C5A 1_555 1_555
C12A C11A 1_555 1_555
C16A C11A 1_555 1_555
C18A C17A 1_555 1_555
C22A C17A 1_555 1_555
C25A C24A 1_555 1_555
H16A C24A 1_555 1_555
C27A C28A 1_555 1_555
H20A C28A 1_555 1_555
C31A C30A 1_555 1_555
H21A C30A 1_555 1_555
C33A C34A 1_555 1_555
H25A C34A 1_555 1_555
C37A C36A 1_555 1_555
H26A C36A 1_555 1_555
C39A C40A 1_555 1_555
H30A C40A 1_555 1_555
C7A C6A 1_555 1_555
H1A C6A 1_555 1_555
C9A C10A 1_555 1_555
H5A C10A 1_555 1_555
C13A C12A 1_555 1_555
H6A C12A 1_555 1_555
C15A C16A 1_555 1_555
H10A C16A 1_555 1_555
C19A C18A 1_555 1_555
H11A C18A 1_555 1_555
C21A C22A 1_555 1_555
H15A C22A 1_555 1_555
C26A C25A 1_555 1_555
H17A C25A 1_555 1_555
H19A C27A 1_555 1_555
C32A C31A 1_555 1_555
H22A C31A 1_555 1_555
H24A C33A 1_555 1_555
C38A C37A 1_555 1_555
H27A C37A 1_555 1_555
H29A C39A 1_555 1_555
C8A C7A 1_555 1_555
H2A C7A 1_555 1_555
H4A C9A 1_555 1_555
C14A C13A 1_555 1_555
H7A C13A 1_555 1_555
H9A C15A 1_555 1_555
C20A C19A 1_555 1_555
H12A C19A 1_555 1_555
H14A C21A 1_555 1_555
H18A C26A 1_555 1_555
H23A C32A 1_555 1_555
H28A C38A 1_555 1_555
H3A C8A 1_555 1_555
H8A C14A 1_555 1_555
H13A C20A 1_555 1_555
C9 C10 1_555 1_555
C15 C16 1_555 1_555
C21 C22 1_555 1_555
C27 C28 1_555 1_555
C33 C34 1_555 1_555
C39 C40 1_555 1_555
C1A S1A 1_555 1_555
C27A C26A 1_555 1_555
C33A C32A 1_555 1_555
C39A C38A 1_555 1_555
C9A C8A 1_555 1_555
C15A C14A 1_555 1_555
C21A C20A 1_555 1_555

#END
