
#######################################################################
#
#                 Cambridge Crystallographic Data Centre
#                                CCDC 
#
#######################################################################
#
# If this CIF has been generated from an entry in the Cambridge 
# Structural Database, then it will include bibliographic, chemical, 
# crystal, experimental, refinement or atomic coordinate data resulting 
# from the CCDC's data processing and validation procedures.
#
#######################################################################

data_DELFIL
_symmetry_cell_setting           triclinic
_symmetry_space_group_name_H-M   'P 1'
_symmetry_Int_Tables_number      1
_space_group_name_Hall           'P 1'
loop_
_symmetry_equiv_pos_site_id
_symmetry_equiv_pos_as_xyz
1 x,y,z
_cell_length_a                   9.510(3)
_cell_length_b                   9.916(2)
_cell_length_c                   10.822(3)
_cell_angle_alpha                91.124(6)
_cell_angle_beta                 102.167(7)
_cell_angle_gamma                103.779(12)
_cell_volume                     966.271
loop_
_atom_site_label
_atom_site_type_symbol
_atom_site_fract_x
_atom_site_fract_y
_atom_site_fract_z
Fe1 Fe 0.12684(11) 0.20200(11) 0.29385(10)
Fe2 Fe 0.56639(11) 0.55466(11) -0.32858(10)
O1 O 0.0287(9) 0.2852(10) 0.1471(9)
O2 O -0.0568(9) 0.2603(10) -0.0608(9)
O3 O 0.2999(12) 0.1752(11) -0.3108(10)
O4 O 0.4056(11) 0.3913(10) -0.3481(8)
O5 O 0.6667(10) 0.4719(11) -0.1836(9)
O6 O 0.7434(11) 0.4997(13) 0.0215(9)
O7 O 0.2916(9) 0.3692(10) 0.3135(8)
O8 O 0.3826(14) 0.5822(11) 0.2774(9)
O9 O 0.5099(11) -0.3165(10) -0.2172(9)
O10 O 0.3901(16) -0.1796(13) -0.3356(10)
O11 O 0.1833(11) 0.0762(9) 0.1788(8)
O12 O 0.3142(13) -0.0470(13) 0.3051(10)
O13 O 0.0184(11) -0.3962(12) -0.0245(11)
H1 H -0.0427 -0.4461 0.0089
O14 O 0.0150(14) -0.2316(12) 0.1164(14)
O15 O 0.6772(12) 0.1592(11) -0.0203(13)
H2 H 0.7651 0.1831 -0.0230
O16 O 0.6596(15) -0.0003(13) -0.1650(13)
O17 O 0.4601(11) 0.6427(11) -0.4755(9)
H3 H 0.4303 0.7058 -0.4482
O18 O 0.2359(11) 0.1148(9) 0.4415(9)
H4 H 0.2723 0.0567 0.4141
N1 N -0.0813(12) 0.0512(12) 0.2891(12)
N2 N 0.0489(11) 0.2897(13) 0.4447(10)
N3 N 0.6463(12) 0.4717(12) -0.4759(9)
N4 N 0.7757(14) 0.6956(13) -0.3319(12)
C1 C -0.1463(16) -0.0452(17) 0.2125(18)
C2 C -0.2900(18) -0.1422(16) 0.2299(18)
H5 H -0.3359 -0.2188 0.1723
C3 C -0.3498(15) -0.1205(14) 0.3228(15)
H6 H -0.4407 -0.1769 0.3299
C4 C -0.2684(15) -0.0023(14) 0.4182(12)
C5 C -0.3179(18) 0.0342(18) 0.5365(14)
H7 H -0.407(9) -0.026(7) 0.544(7)
C6 C -0.2442(19) 0.1481(17) 0.6084(16)
H8 H -0.2763 0.1676 0.6807
C7 C -0.1243(14) 0.2386(17) 0.5831(16)
C8 C -0.0491(14) 0.3610(14) 0.6553(11)
H9 H -0.0777 0.3869 0.7274
C9 C 0.0572(18) 0.4343(19) 0.6203(14)
H10 H 0.1065 0.5176 0.6680
C10 C 0.1112(17) 0.4016(15) 0.5116(11)
H11 H 0.1919 0.4631 0.4910
C11 C -0.0718(16) 0.1975(17) 0.4699(14)
C12 C -0.1449(14) 0.0801(14) 0.3893(13)
C13 C 0.3277(13) 0.4145(12) 0.1023(11)
C14 C 0.2112(11) 0.3369(13) 0.0166(11)
C15 C 0.2269(11) 0.3019(13) -0.1022(11)
H12 H 0.1440 0.2507 -0.1606
C16 C 0.3640(14) 0.3406(14) -0.1394(11)
C17 C 0.4917(13) 0.4236(11) -0.0481(10)
C18 C 0.4649(13) 0.4585(12) 0.0689(10)
H13 H 0.529(6) 0.517(6) 0.134(5)
C19 C 0.3322(12) 0.4612(12) 0.2350(12)
C20 C 0.0522(13) 0.2926(12) 0.0405(12)
C21 C 0.3612(14) 0.2985(14) -0.2760(11)
C22 C 0.6483(14) 0.4705(14) -0.0655(12)
C23 C 0.5794(14) 0.3483(16) -0.5498(14)
H14 H 0.502(6) 0.285(6) -0.515(5)
C24 C 0.6194(17) 0.3083(18) -0.6576(15)
H15 H 0.569(10) 0.185(9) -0.685(8)
C25 C 0.748(3) 0.409(3) -0.6881(19)
H16 H 0.7821 0.3891 -0.7593
C26 C 0.8197(18) 0.5315(18) -0.6151(12)
C27 C 0.9560(18) 0.632(2) -0.6319(17)
H17 H 0.9949 0.6195 -0.7020
C28 C 1.0257(18) 0.7441(18) -0.5461(19)
H18 H 1.1126 0.8027 -0.5594
C29 C 0.9738(18) 0.7759(18) -0.439(2)
C30 C 1.028(2) 0.876(2) -0.362(3)
H19 H 1.1108 0.9404 -0.3756
C31 C 0.9709(15) 0.9015(18) -0.251(2)
H20 H 1.0191 0.9736 -0.1887
C32 C 0.8439(19) 0.8117(16) -0.2462(16)
H21 H 0.810(7) 0.835(7) -0.187(7)
C33 C 0.8332(13) 0.6781(16) -0.4291(14)
C34 C 0.7652(13) 0.5542(14) -0.5137(13)
C35 C 0.4653(15) -0.0440(15) -0.0545(12)
C36 C 0.4141(16) 0.0022(13) 0.0454(13)
H22 H 0.4657 0.0879 0.0878
C37 C 0.2947(14) -0.0689(12) 0.0848(13)
C38 C 0.2135(14) -0.2034(12) 0.0149(11)
C39 C 0.2673(13) -0.2483(14) -0.0841(11)
H23 H 0.213(9) -0.313(8) -0.120(8)
C40 C 0.3954(13) -0.1638(14) -0.1180(9)
C41 C 0.6173(13) 0.0367(15) -0.0805(11)
C42 C 0.2591(16) -0.0186(15) 0.2018(11)
C43 C 0.0814(16) -0.2809(13) 0.0469(14)
C44 C 0.4366(13) -0.2257(13) -0.2311(12)
H24 H -0.116(7) -0.039(7) 0.131(7)
H25 H 0.242(7) 0.141(6) 0.524(3)
H26 H 0.408(11) 0.628(12) -0.556(4)
Fe2_2 Fe 0.56639(11) -0.44534(11) -0.32858(10)
O9_2 O 0.5099(11) 0.6835(10) -0.2172(9)
loop_
_geom_bond_atom_site_label_1
_geom_bond_atom_site_label_2
_geom_bond_site_symmetry_1
_geom_bond_site_symmetry_2
Fe1 O1 1_555 1_555
Fe2 O4 1_555 1_555
O1 C20 1_555 1_555
O2 C20 1_555 1_555
O3 C21 1_555 1_555
O4 C21 1_555 1_555
O5 Fe2 1_555 1_555
O6 C22 1_555 1_555
O7 Fe1 1_555 1_555
O8 C19 1_555 1_555
O9 C44 1_555 1_555
O10 C44 1_555 1_555
O11 Fe1 1_555 1_555
O12 C42 1_555 1_555
O13 H1 1_555 1_555
O14 C43 1_555 1_555
O15 H2 1_555 1_555
O16 C41 1_555 1_555
O17 Fe2 1_555 1_555
H3 O17 1_555 1_555
O18 Fe1 1_555 1_555
H4 O18 1_555 1_555
N1 Fe1 1_555 1_555
N2 Fe1 1_555 1_555
N3 Fe2 1_555 1_555
N4 Fe2 1_555 1_555
C1 N1 1_555 1_555
C2 C1 1_555 1_555
H5 C2 1_555 1_555
C3 C2 1_555 1_555
H6 C3 1_555 1_555
C4 C3 1_555 1_555
C5 C4 1_555 1_555
H7 C5 1_555 1_555
C6 C5 1_555 1_555
H8 C6 1_555 1_555
C7 C6 1_555 1_555
C8 C7 1_555 1_555
H9 C8 1_555 1_555
C9 C8 1_555 1_555
H10 C9 1_555 1_555
C10 N2 1_555 1_555
H11 C10 1_555 1_555
C11 N2 1_555 1_555
C12 N1 1_555 1_555
C13 C14 1_555 1_555
C14 C15 1_555 1_555
C15 H12 1_555 1_555
C16 C15 1_555 1_555
C17 C16 1_555 1_555
C18 C13 1_555 1_555
H13 C18 1_555 1_555
C19 O7 1_555 1_555
C20 C14 1_555 1_555
C21 C16 1_555 1_555
C22 O5 1_555 1_555
C23 N3 1_555 1_555
H14 C23 1_555 1_555
C24 C23 1_555 1_555
H15 C24 1_555 1_555
C25 C24 1_555 1_555
H16 C25 1_555 1_555
C26 C25 1_555 1_555
C27 C26 1_555 1_555
H17 C27 1_555 1_555
C28 C27 1_555 1_555
H18 C28 1_555 1_555
C29 C28 1_555 1_555
C30 C29 1_555 1_555
H19 C30 1_555 1_555
C31 C30 1_555 1_555
H20 C31 1_555 1_555
C32 N4 1_555 1_555
H21 C32 1_555 1_555
C33 N4 1_555 1_555
C34 N3 1_555 1_555
C35 C36 1_555 1_555
C36 H22 1_555 1_555
C37 C36 1_555 1_555
C38 C37 1_555 1_555
C39 C38 1_555 1_555
H23 C39 1_555 1_555
C40 C35 1_555 1_555
C41 O15 1_555 1_555
C42 O11 1_555 1_555
C43 O13 1_555 1_555
C44 C40 1_555 1_555
H24 C1 1_555 1_555
H25 O18 1_555 1_555
H26 O17 1_555 1_555
Fe2_2 O9 1_555 1_555
O9_2 Fe2 1_555 1_555
C4 C12 1_555 1_555
C7 C11 1_555 1_555
C9 C10 1_555 1_555
C11 C12 1_555 1_555
C13 C19 1_555 1_555
C17 C18 1_555 1_555
C17 C22 1_555 1_555
C26 C34 1_555 1_555
C29 C33 1_555 1_555
C31 C32 1_555 1_555
C33 C34 1_555 1_555
C35 C41 1_555 1_555
C37 C42 1_555 1_555
C38 C43 1_555 1_555
C39 C40 1_555 1_555

#END
