
#######################################################################
#
#                 Cambridge Crystallographic Data Centre
#                                CCDC 
#
#######################################################################
#
# If this CIF has been generated from an entry in the Cambridge 
# Structural Database, then it will include bibliographic, chemical, 
# crystal, experimental, refinement or atomic coordinate data resulting 
# from the CCDC's data processing and validation procedures.
#
#######################################################################

data_DELGIM
_symmetry_cell_setting           orthorhombic
_symmetry_space_group_name_H-M   'I b a 2'
_symmetry_Int_Tables_number      45
_space_group_name_Hall           'I 2 -2c'
loop_
_symmetry_equiv_pos_site_id
_symmetry_equiv_pos_as_xyz
1 x,y,z
2 -x,-y,z
3 1/2+x,1/2-y,z
4 1/2-x,1/2+y,z
5 1/2+x,1/2+y,1/2+z
6 1/2-x,1/2-y,1/2+z
7 x,-y,1/2+z
8 -x,y,1/2+z
_cell_length_a                   18.582(3)
_cell_length_b                   31.730(5)
_cell_length_c                   10.2490(16)
_cell_angle_alpha                90
_cell_angle_beta                 90
_cell_angle_gamma                90
_cell_volume                     6042.88
loop_
_atom_site_label
_atom_site_type_symbol
_atom_site_fract_x
_atom_site_fract_y
_atom_site_fract_z
C1 C 0.3246(5) 0.0503(3) 1.0169(9)
H1 H 0.3058 0.0274 1.0621
C2 C 0.2805(4) 0.0701(2) 0.9258(9)
H2 H 0.2337 0.0606 0.9125
C3 C 0.3060(4) 0.1035(2) 0.8565(6)
C4 C 0.3759(4) 0.1161(2) 0.8859(7)
H3 H 0.3966 0.1389 0.8426
C5 C 0.4136(4) 0.0948(2) 0.9787(8)
H4 H 0.4597 0.1044 0.9985
C6 C 0.2140(3) 0.1029(2) 0.6837(7)
C7 C 0.2259(4) 0.0625(2) 0.6479(8)
H5 H 0.2670 0.0485 0.6764
C8 C 0.1772(4) 0.0421(3) 0.5695(9)
H6 H 0.1862 0.0142 0.5476
C9 C 0.1063(4) 0.0997(2) 0.5595(9)
H7 H 0.0648 0.1131 0.5304
C10 C 0.1524(4) 0.1223(2) 0.6386(8)
H8 H 0.1422 0.1500 0.6611
C11 C 0.2820(4) 0.16804(19) 0.7280(7)
C12 C 0.2860(4) 0.1993(2) 0.8246(7)
H9 H 0.2758 0.1927 0.9110
C13 C 0.3049(4) 0.2392(2) 0.7919(7)
H10 H 0.3087 0.2596 0.8568
C14 C 0.3187(4) 0.25022(19) 0.6633(8)
C15 C 0.3133(4) 0.2200(2) 0.5671(7)
H11 H 0.3213 0.2271 0.4803
C16 C 0.2958(4) 0.1786(2) 0.6015(7)
H12 H 0.2936 0.1579 0.5371
C17 C 0.3979(4) 0.2988(2) 0.5526(8)
C18 C 0.4031(5) 0.3331(3) 0.4649(9)
H13 H 0.3660 0.3526 0.4561
C19 C 0.4668(6) 0.3365(3) 0.3919(11)
H14 H 0.4739 0.3593 0.3364
C20 C 0.5182(6) 0.3057(3) 0.4034(14)
H15 H 0.5594 0.3068 0.3519
C21 C 0.5096(6) 0.2752(3) 0.4862(14)
H16 H 0.5459 0.2551 0.4929
C22 C 0.2964(4) 0.3258(2) 0.6793(7)
C23 C 0.3272(4) 0.3634(2) 0.7133(9)
H17 H 0.3764 0.3678 0.7031
C24 C 0.2827(7) 0.3950(3) 0.7640(11)
H18 H 0.3025 0.4210 0.7865
C25 C 0.2114(6) 0.3885(3) 0.7808(11)
H19 H 0.1821 0.4093 0.8164
C26 C 0.1836(5) 0.3508(4) 0.7443(10)
H20 H 0.1345 0.3464 0.7550
C27 C 0.4275(4) 0.0418(3) 1.4781(9)
C28 C 0.0681(4) 0.0430(2) 0.0913(10)
Cu1 Cu 0.44698(6) 0.03181(4) 1.18394(8)
Cu2 Cu 0.05370(5) 0.03123(3) 0.38718(9)
N1 N 0.3895(3) 0.0615(2) 1.0427(6)
N2 N 0.2640(3) 0.12459(15) 0.7624(6)
N3 N 0.1171(3) 0.06025(18) 0.5223(7)
N4 N 0.3378(3) 0.29204(16) 0.6303(7)
N5 N 0.4511(4) 0.2708(2) 0.5631(9)
N6 N 0.2248(4) 0.3183(2) 0.6915(8)
N7 N 0.4282(4) 0.0398(2) 1.3669(8)
N8 N 0.0670(4) 0.0422(3) 0.2037(9)
S1 S 0.42706(12) 0.04395(7) 1.6396(2)
S2 S 0.07114(12) 0.04483(6) -0.0701(2)
Cu1F Cu 0.44698(6) -0.03181(4) 1.68394(8)
Cu1G Cu 0.55302(6) 0.03181(4) 1.68394(8)
Cu2F Cu 0.05370(5) -0.03123(3) -0.11282(9)
Cu2G Cu -0.05370(5) 0.03123(3) -0.11282(9)
S1F S 0.42706(12) -0.04395(7) 1.1396(2)
S1G S 0.57294(12) 0.04395(7) 1.1396(2)
S2F S 0.07114(12) -0.04483(6) 0.4299(2)
S2G S -0.07114(12) 0.04483(6) 0.4299(2)
O1 O 0.4857(11) 0.2003(4) 0.723(2)
H21 H 0.5224 0.2146 0.7218
C29 C 0.491(3) 0.1661(11) 0.623(6)
H22 H 0.4956 0.1784 0.5382
H23 H 0.4483 0.1490 0.6263
H24 H 0.5322 0.1488 0.6414
loop_
_geom_bond_atom_site_label_1
_geom_bond_atom_site_label_2
_geom_bond_site_symmetry_1
_geom_bond_site_symmetry_2
C1 H1 1_555 1_555
C2 C1 1_555 1_555
H2 C2 1_555 1_555
C3 C2 1_555 1_555
C4 C3 1_555 1_555
H3 C4 1_555 1_555
C5 C4 1_555 1_555
H4 C5 1_555 1_555
C6 C7 1_555 1_555
C7 H5 1_555 1_555
C8 C7 1_555 1_555
H6 C8 1_555 1_555
C9 H7 1_555 1_555
C10 C6 1_555 1_555
H8 C10 1_555 1_555
C11 C12 1_555 1_555
C12 H9 1_555 1_555
C13 C12 1_555 1_555
H10 C13 1_555 1_555
C14 C13 1_555 1_555
C15 C14 1_555 1_555
H11 C15 1_555 1_555
C16 C11 1_555 1_555
H12 C16 1_555 1_555
C17 C18 1_555 1_555
C18 H13 1_555 1_555
C19 C18 1_555 1_555
H14 C19 1_555 1_555
C20 C19 1_555 1_555
H15 C20 1_555 1_555
C21 C20 1_555 1_555
H16 C21 1_555 1_555
C22 C23 1_555 1_555
C23 H17 1_555 1_555
C24 C23 1_555 1_555
H18 C24 1_555 1_555
C25 C24 1_555 1_555
H19 C25 1_555 1_555
C26 C25 1_555 1_555
H20 C26 1_555 1_555
C27 N7 1_555 1_555
C28 N8 1_555 1_555
Cu1 N1 1_555 1_555
Cu2 N3 1_555 1_555
N1 C1 1_555 1_555
N2 C3 1_555 1_555
N3 C8 1_555 1_555
N4 C14 1_555 1_555
N5 C17 1_555 1_555
N6 C22 1_555 1_555
N7 Cu1 1_555 1_555
N8 Cu2 1_555 1_555
S1 C27 1_555 1_555
S2 C28 1_555 1_555
O1 H21 1_555 1_555
C29 O1 1_555 1_555
H22 C29 1_555 1_555
H23 C29 1_555 1_555
H24 C29 1_555 1_555
Cu1F S1 1_555 1_555
Cu1G S1 1_555 1_555
Cu2F S2 1_555 1_555
Cu2G S2 1_555 1_555
S1F Cu1 1_555 1_555
S1G Cu1 1_555 1_555
S2F Cu2 1_555 1_555
S2G Cu2 1_555 1_555
C5 N1 1_555 1_555
C6 N2 1_555 1_555
C9 C10 1_555 1_555
C9 N3 1_555 1_555
C11 N2 1_555 1_555
C15 C16 1_555 1_555
C17 N4 1_555 1_555
C21 N5 1_555 1_555
C22 N4 1_555 1_555
C26 N6 1_555 1_555

#END
