
#######################################################################
#
#                 Cambridge Crystallographic Data Centre
#                                CCDC 
#
#######################################################################
#
# If this CIF has been generated from an entry in the Cambridge 
# Structural Database, then it will include bibliographic, chemical, 
# crystal, experimental, refinement or atomic coordinate data resulting 
# from the CCDC's data processing and validation procedures.
#
#######################################################################

data_DELHUY01
_symmetry_cell_setting           orthorhombic
_symmetry_space_group_name_H-M   'I b a m'
_symmetry_Int_Tables_number      72
_space_group_name_Hall           '-I 2 2c'
loop_
_symmetry_equiv_pos_site_id
_symmetry_equiv_pos_as_xyz
1 x,y,z
2 1/2+x,1/2+y,1/2+z
3 1/2+x,1/2-y,-z
4 x,-y,1/2-z
5 1/2-x,1/2+y,-z
6 -x,y,1/2-z
7 -x,-y,z
8 1/2-x,1/2-y,1/2+z
9 -x,-y,-z
10 1/2-x,1/2-y,1/2-z
11 1/2-x,1/2+y,z
12 -x,y,1/2+z
13 1/2+x,1/2-y,z
14 x,-y,1/2+z
15 x,y,-z
16 1/2+x,1/2+y,1/2-z
_cell_length_a                   13.2420(7)
_cell_length_b                   16.8644(9)
_cell_length_c                   16.8296(8)
_cell_angle_alpha                90
_cell_angle_beta                 90
_cell_angle_gamma                90
_cell_volume                     3758.36
loop_
_atom_site_label
_atom_site_type_symbol
_atom_site_fract_x
_atom_site_fract_y
_atom_site_fract_z
Fe1 Fe 0.5000 0.0000 0.5000
S1 S 0.1989(6) 0.1649(5) 0.5000
N1 N 0.3620(11) 0.0673(7) 0.5000
N2 N 0.5590(7) 0.0791(4) 0.5965(4)
C1 C 0.2942(13) 0.1071(11) 0.5000
C2 C 0.6344(10) 0.0534(6) 0.6439(7)
C3 C 0.6806(10) 0.1035(7) 0.7006(7)
C4 C 0.6526(10) 0.1773(6) 0.7094(6)
C5 C 0.5743(10) 0.2032(6) 0.6606(7)
C6 C 0.5298(8) 0.1542(5) 0.6053(6)
C7 C 0.7039(9) 0.2321(7) 0.7678(6)
H1 H 0.6567(10) 0.0002(6) 0.6346(7)
H2 H 0.7259(10) 0.0781(7) 0.7411(7)
H3 H 0.4761(8) 0.1733(5) 0.5670(6)
H4 H 0.5665(10) 0.2483(6) 0.6578(7)
H5 H 0.6607(9) 0.2800(7) 0.7792(6)
H6 H 0.7238(9) 0.2020(7) 0.8192(6)
Fe1A Fe 1.0000 0.5000 1.0000
Fe1A_2 Fe 1.0000 0.5000 0.0000
S1H S 0.8011(6) -0.1649(5) 0.5000
N1H N 0.6380(11) -0.0673(7) 0.5000
N2I N 0.9410(7) 0.4209(4) 0.9035(4)
N2N N 0.5590(7) 0.0791(4) 0.4035(4)
N2G N 0.9410(7) 0.4209(4) 0.0965(4)
N2H N 0.4410(7) -0.0791(4) 0.4035(4)
N2F N 0.4410(7) -0.0791(4) 0.5965(4)
C1H C 0.7058(13) -0.1071(11) 0.5000
C2I C 0.8656(10) 0.4466(6) 0.8561(7)
C2N C 0.6344(10) 0.0534(6) 0.3561(7)
C2G C 0.8656(10) 0.4466(6) 0.1439(7)
C3I C 0.8194(10) 0.3965(7) 0.7994(7)
C3N C 0.6806(10) 0.1035(7) 0.2994(7)
C3G C 0.8194(10) 0.3965(7) 0.2006(7)
C4I C 0.8474(10) 0.3227(6) 0.7906(6)
C4N C 0.6526(10) 0.1773(6) 0.2906(6)
C4G C 0.8474(10) 0.3227(6) 0.2094(6)
C5I C 0.9257(10) 0.2968(6) 0.8394(7)
C5N C 0.5743(10) 0.2032(6) 0.3394(7)
C5G C 0.9257(10) 0.2968(6) 0.1606(7)
C6I C 0.9702(8) 0.3458(5) 0.8947(6)
C6N C 0.5298(8) 0.1542(5) 0.3947(6)
C6G C 0.9702(8) 0.3458(5) 0.1053(6)
C7I C 0.7961(9) 0.2679(7) 0.7322(6)
C7N C 0.7039(9) 0.2321(7) 0.2322(6)
C7G C 0.7961(9) 0.2679(7) 0.2678(6)
H1I H 0.8433(10) 0.4998(6) 0.8654(7)
H1N H 0.6567(10) 0.0002(6) 0.3654(7)
H1G H 0.8433(10) 0.4998(6) 0.1346(7)
H2I H 0.7741(10) 0.4219(7) 0.7589(7)
H2N H 0.7259(10) 0.0781(7) 0.2589(7)
H2G H 0.7741(10) 0.4219(7) 0.2411(7)
H3I H 1.0239(8) 0.3267(5) 0.9330(6)
H3N H 0.4761(8) 0.1733(5) 0.4330(6)
H3G H 1.0239(8) 0.3267(5) 0.0670(6)
H4I H 0.9335(10) 0.2517(6) 0.8422(7)
H4N H 0.5665(10) 0.2483(6) 0.3422(7)
H4G H 0.9335(10) 0.2517(6) 0.1578(7)
H5I H 0.8393(9) 0.2200(7) 0.7208(6)
H5N H 0.6607(9) 0.2800(7) 0.2208(6)
H5G H 0.8393(9) 0.2200(7) 0.2792(6)
H6I H 0.7762(9) 0.2980(7) 0.6808(6)
H6N H 0.7238(9) 0.2020(7) 0.1808(6)
H6G H 0.7762(9) 0.2980(7) 0.3192(6)
loop_
_geom_bond_atom_site_label_1
_geom_bond_atom_site_label_2
_geom_bond_site_symmetry_1
_geom_bond_site_symmetry_2
Fe1 N1 1_555 1_555
S1 C1 1_555 1_555
N1 C1 1_555 1_555
N2 Fe1 1_555 1_555
C2 N2 1_555 1_555
C3 C2 1_555 1_555
C4 C3 1_555 1_555
C5 C4 1_555 1_555
C6 N2 1_555 1_555
C7 C4 1_555 1_555
H1 C2 1_555 1_555
H2 C3 1_555 1_555
H3 C6 1_555 1_555
H4 C5 1_555 1_555
H5 C7 1_555 1_555
H6 C7 1_555 1_555
Fe1A N2I 1_555 1_555
Fe1A_2 N2G 1_555 1_555
S1H C1H 1_555 1_555
N1H Fe1 1_555 1_555
N2I C2I 1_555 1_555
N2N Fe1 1_555 1_555
N2G C2G 1_555 1_555
N2H Fe1 1_555 1_555
N2F Fe1 1_555 1_555
C1H N1H 1_555 1_555
C2I C3I 1_555 1_555
C2N N2N 1_555 1_555
C2G C3G 1_555 1_555
C3I C4I 1_555 1_555
C3N C2N 1_555 1_555
C3G C4G 1_555 1_555
C4I C5I 1_555 1_555
C4N C3N 1_555 1_555
C4G C5G 1_555 1_555
C5I C6I 1_555 1_555
C5N C4N 1_555 1_555
C5G C6G 1_555 1_555
C6I N2I 1_555 1_555
C6N N2N 1_555 1_555
C6G N2G 1_555 1_555
C7I C7 1_555 1_555
C7N C4N 1_555 1_555
C7G C4G 1_555 1_555
H1I C2I 1_555 1_555
H1N C2N 1_555 1_555
H1G C2G 1_555 1_555
H2I C3I 1_555 1_555
H2N C3N 1_555 1_555
H2G C3G 1_555 1_555
H3I C6I 1_555 1_555
H3N C6N 1_555 1_555
H3G C6G 1_555 1_555
H4I C5I 1_555 1_555
H4N C5N 1_555 1_555
H4G C5G 1_555 1_555
H5I C7I 1_555 1_555
H5N C7N 1_555 1_555
H5G C7G 1_555 1_555
H6I C7I 1_555 1_555
H6N C7N 1_555 1_555
H6G C7G 1_555 1_555
C5 C6 1_555 1_555
C4I C7I 1_555 1_555
C5N C6N 1_555 1_555
C7N C7G 1_555 1_555

#END
