
#######################################################################
#
#                 Cambridge Crystallographic Data Centre
#                                CCDC 
#
#######################################################################
#
# If this CIF has been generated from an entry in the Cambridge 
# Structural Database, then it will include bibliographic, chemical, 
# crystal, experimental, refinement or atomic coordinate data resulting 
# from the CCDC's data processing and validation procedures.
#
#######################################################################

data_DELHUY02
_symmetry_cell_setting           triclinic
_symmetry_space_group_name_H-M   'P -1'
_symmetry_Int_Tables_number      2
_space_group_name_Hall           '-P 1'
loop_
_symmetry_equiv_pos_site_id
_symmetry_equiv_pos_as_xyz
1 x,y,z
2 -x,-y,-z
_cell_length_a                   8.2740(2)
_cell_length_b                   8.8390(2)
_cell_length_c                   10.0860(2)
_cell_angle_alpha                93.235(2)
_cell_angle_beta                 100.546(2)
_cell_angle_gamma                101.5500(10)
_cell_volume                     707.159
loop_
_atom_site_label
_atom_site_type_symbol
_atom_site_fract_x
_atom_site_fract_y
_atom_site_fract_z
C14 C 0.904 0.463 0.999
O1 O 0.884 0.408 1.109
C14A C 1.096 0.537 1.001
O1A O 1.116 0.592 0.891
Fe1 Fe 0.5000 -0.5 1.5000
S1 S 0.8675 -0.1282 1.8596
N1 N 0.6345 -0.3329 1.6604
C1 C 0.7305 -0.2490 1.7435
N2 N 0.7383 -0.5837 1.4872
C2 C 0.7485 -0.6728 1.3768
C3 C 0.8555 -0.7770 1.3815
C4 C 0.9540 -0.7950 1.5055
C5 C 0.9500 -0.6975 1.6175
C6 C 0.8425 -0.5925 1.6045
C7 C 1.0580 -0.9185 1.5165
H1 H 0.672 -0.668 1.288
H2 H 0.857 -0.839 1.294
H3 H 1.020 -0.712 1.710
H4 H 0.833 -0.522 1.684
H5 H 1.130 -0.901 1.611
H6 H 1.136 -0.901 1.438
N3 N 0.5355 -0.3216 1.3510
C8 C 0.4955 -0.1835 1.3745
C9 C 0.5010 -0.0700 1.2840
C10 C 0.5565 -0.0965 1.1634
C11 C 0.5980 -0.2400 1.1390
C12 C 0.5855 -0.3480 1.2345
C13 C 0.5695 0.0255 1.0630
H7 H 0.460 -0.167 1.465
H8 H 0.474 0.033 1.314
H9 H 0.643 -0.268 1.062
H10 H 0.614 -0.449 1.217
H11 H 0.552 0.129 1.106
H12 H 0.687 0.042 1.041
Fe1_2 Fe 1.5000 -1.5 1.5000
Fe1_3 Fe 0.5000 0.5 0.5000
S1A S 0.1325 -0.8718 1.1404
N1A N 0.3655 -0.6671 1.3396
C1A C 0.2695 -0.7510 1.2565
N2A N 1.2617 -1.4163 1.5128
N2A_2 N 0.2617 -0.4163 1.5128
C2A C 1.2515 -1.3272 1.6232
C3A C 1.1445 -1.2230 1.6185
C4A C 1.0460 -1.2050 1.4945
C5A C 1.0500 -1.3025 1.3825
C6A C 1.1575 -1.4075 1.3955
C7A C 0.9420 -1.0815 1.4835
H1A H 1.328 -1.332 1.712
H2A H 1.143 -1.161 1.706
H3A H 0.980 -1.288 1.290
H4A H 1.167 -1.478 1.316
H5A H 0.870 -1.099 1.389
H6A H 0.864 -1.099 1.562
N3A N 0.4645 0.3216 0.6490
N3A_2 N 0.4645 -0.6784 1.6490
C8A C 0.5045 0.1835 0.6255
C9A C 0.4990 0.0700 0.7160
C10A C 0.4435 0.0965 0.8366
C11A C 0.4020 0.2400 0.8610
C12A C 0.4145 0.3480 0.7655
C13A C 0.4305 -0.0255 0.9370
H7A H 0.540 0.167 0.535
H8A H 0.526 -0.033 0.686
H9A H 0.357 0.268 0.938
H10A H 0.386 0.449 0.783
H11A H 0.448 -0.129 0.894
H12A H 0.313 -0.042 0.959
loop_
_geom_bond_atom_site_label_1
_geom_bond_atom_site_label_2
_geom_bond_site_symmetry_1
_geom_bond_site_symmetry_2
Fe1 N1 1_555 1_555
S1 C1 1_555 1_555
N1 C1 1_555 1_555
N2 Fe1 1_555 1_555
C2 N2 1_555 1_555
C3 C2 1_555 1_555
C4 C3 1_555 1_555
C5 C4 1_555 1_555
C6 N2 1_555 1_555
C7 C4 1_555 1_555
H1 C2 1_555 1_555
H2 C3 1_555 1_555
H3 C5 1_555 1_555
H4 C6 1_555 1_555
H5 C7 1_555 1_555
H6 C7 1_555 1_555
N3 Fe1 1_555 1_555
C8 N3 1_555 1_555
C9 C8 1_555 1_555
C10 C9 1_555 1_555
C11 C10 1_555 1_555
C12 N3 1_555 1_555
C13 C10 1_555 1_555
H7 C8 1_555 1_555
H8 C9 1_555 1_555
H9 C11 1_555 1_555
H10 C12 1_555 1_555
H11 C13 1_555 1_555
H12 C13 1_555 1_555
C14 O1 1_555 1_555
Fe1_2 N2A 1_555 1_555
Fe1_3 N3A 1_555 1_555
S1A C1A 1_555 1_555
N1A Fe1 1_555 1_555
C1A N1A 1_555 1_555
N2A C2A 1_555 1_555
N2A_2 Fe1 1_555 1_555
C2A C3A 1_555 1_555
C3A C4A 1_555 1_555
C4A C5A 1_555 1_555
C5A C6A 1_555 1_555
C6A N2A 1_555 1_555
C7A C7 1_555 1_555
H1A C2A 1_555 1_555
H2A C3A 1_555 1_555
H3A C5A 1_555 1_555
H4A C6A 1_555 1_555
H5A C7A 1_555 1_555
H6A C7A 1_555 1_555
N3A C8A 1_555 1_555
N3A_2 Fe1 1_555 1_555
C8A C9A 1_555 1_555
C9A C10A 1_555 1_555
C10A C11A 1_555 1_555
C11A C12A 1_555 1_555
C12A N3A 1_555 1_555
C13A C13 1_555 1_555
H7A C8A 1_555 1_555
H8A C9A 1_555 1_555
H9A C11A 1_555 1_555
H10A C12A 1_555 1_555
H11A C13A 1_555 1_555
H12A C13A 1_555 1_555
C14A C14 1_555 1_555
O1A C14A 1_555 1_555
C5 C6 1_555 1_555
C11 C12 1_555 1_555
C4A C7A 1_555 1_555
C10A C13A 1_555 1_555

#END
