
#######################################################################
#
#                 Cambridge Crystallographic Data Centre
#                                CCDC 
#
#######################################################################
#
# If this CIF has been generated from an entry in the Cambridge 
# Structural Database, then it will include bibliographic, chemical, 
# crystal, experimental, refinement or atomic coordinate data resulting 
# from the CCDC's data processing and validation procedures.
#
#######################################################################

data_DELHUY
_symmetry_cell_setting           triclinic
_symmetry_space_group_name_H-M   'P 1'
_symmetry_Int_Tables_number      1
_space_group_name_Hall           'P 1'
loop_
_symmetry_equiv_pos_site_id
_symmetry_equiv_pos_as_xyz
1 x,y,z
_cell_length_a                   8.2740(2)
_cell_length_b                   8.8390(2)
_cell_length_c                   10.0860(2)
_cell_angle_alpha                93.235(2)
_cell_angle_beta                 100.546(2)
_cell_angle_gamma                101.5500(10)
_cell_volume                     707.159
loop_
_atom_site_label
_atom_site_type_symbol
_atom_site_fract_x
_atom_site_fract_y
_atom_site_fract_z
Fe1 Fe 0.7715(4) 0.8082(3) -0.2306(3)
S1 S 0.4040(7) 0.4418(6) -0.5921(6)
S2 S 1.1390(6) 1.1853(6) 0.1271(5)
N1 N 0.639(2) 0.643(1) -0.3892(13)
N2 N 0.908(1) 0.9772(13) -0.0683(11)
N3 N 0.533(1) 0.8945(12) -0.2165(12)
N4 N 0.0096(13) 1.7271(12) -0.2420(11)
N5 N 0.737(2) 0.6303(12) -0.0794(11)
N6 N 0.808(1) -0.0128(11) 0.6227(12)
C1 C 0.545(2) 0.563(2) -0.472(2)
C2 C 1.006(2) 1.065(2) 0.015(1)
C3 C 0.527(2) 0.980(1) -0.104(2)
C4 C 0.416(2) 1.086(1) -0.108(2)
C5 C 0.318(2) 1.105(1) -0.232(2)
C6 C 0.318(2) 1.008(2) -0.348(2)
C7 C 0.428(2) 0.902(2) -0.328(1)
C8 C 0.212(2) 1.224(2) -0.242(2)
C9 C 0.328(2) 1.387(1) -0.209(2)
C10 C 0.226(2) 1.515(2) -0.221(2)
C11 C 0.218(2) 1.613(2) -0.113(2)
C12 C 0.113(2) 1.717(2) -0.119(2)
C13 C 0.024(2) 1.6343(12) -0.3504(12)
C14 C 0.127(2) 1.532(1) -0.345(2)
C15 C 0.775(2) 0.494(1) -0.105(1)
C16 C 0.775(2) 0.376(2) -0.011(1)
C17 C 0.716(2) 0.407(2) 0.110(2)
C18 C 0.669(2) 0.544(2) 0.128(1)
C19 C 0.684(2) 0.658(2) 0.035(2)
C20 C 0.700(2) 0.286(2) 0.212(2)
C21 C 0.839(2) 0.337(2) 0.338(2)
C22 C 0.829(2) 0.214(1) 0.4369(13)
C23 C 0.865(2) 0.064(2) 0.406(2)
C24 C 0.855(2) -0.038(2) 0.504(2)
C25 C 0.766(2) 0.127(1) 0.644(2)
C26 C 0.777(2) 0.236(1) 0.557(2)
H1 H 0.6010 0.9760 -0.0170
H2 H 0.4120 1.1480 -0.0210
H3 H 0.2530 1.0190 -0.4360
H4 H 0.4420 0.8310 -0.4120
H5 H 0.1410 1.2090 -0.3390
H6 H 0.1290 1.2070 -0.1690
H7 H 0.4000 1.4050 -0.2940
H8 H 0.4000 1.4070 -0.1170
H9 H 0.2920 1.5950 -0.0170
H10 H 0.1080 1.7870 -0.0450
H11 H -0.0550 1.6400 -0.4410
H12 H 0.1260 1.4700 -0.4330
H13 H 0.8130 0.4790 -0.1940
H14 H 0.8020 0.2790 -0.0410
H15 H 0.6320 0.5790 0.2140
H16 H 0.6570 0.7530 0.0530
H17 H 0.7140 0.1770 0.1640
H18 H 0.5810 0.2670 0.2270
H19 H 0.9550 0.3510 0.3090
H20 H 0.8190 0.4350 0.3770
H21 H 0.7500 0.3450 0.5860
H22 H 0.7340 0.1450 0.7360
H23 H 0.8860 -0.1450 0.4870
H24 H 0.9180 0.0440 0.3390
Fe1_2 Fe -0.2285(4) 1.8082(3) -0.2306(3)
Fe1_3 Fe 0.7715(4) -0.1918(3) 0.7694(3)
N4_2 N 1.0096(13) 0.7271(12) -0.2420(11)
N6_2 N 0.808(1) 0.9872(11) -0.3773(12)
O1 O 1.156(2) 0.718(2) 0.3788(13)
C27 C 1.190(2) 0.771(2) 0.271(1)
C28 C 1.381(3) 0.844(3) 0.267(3)
H25 H 1.3920 0.9650 0.3410
H26 H 1.4400 0.7410 0.2170
H27 H 1.4150 0.8980 0.1620
H28 H 1.1517 0.6880 0.2009
H29 H 1.1279 0.8494 0.2519
H30 H 1.2320 0.6280 0.3890
loop_
_geom_bond_atom_site_label_1
_geom_bond_atom_site_label_2
_geom_bond_site_symmetry_1
_geom_bond_site_symmetry_2
Fe1 N1 1_555 1_555
S1 C1 1_555 1_555
S2 C2 1_555 1_555
O1 C27 1_555 1_555
N1 C1 1_555 1_555
N2 Fe1 1_555 1_555
N3 Fe1 1_555 1_555
N4 C12 1_555 1_555
N5 Fe1 1_555 1_555
N6 C24 1_555 1_555
C2 N2 1_555 1_555
C3 N3 1_555 1_555
C4 C3 1_555 1_555
C5 C4 1_555 1_555
C6 C5 1_555 1_555
C7 N3 1_555 1_555
C8 C5 1_555 1_555
C9 C8 1_555 1_555
C10 C9 1_555 1_555
C11 C10 1_555 1_555
C12 C11 1_555 1_555
C13 N4 1_555 1_555
C14 C10 1_555 1_555
C15 N5 1_555 1_555
C16 C15 1_555 1_555
C17 C16 1_555 1_555
C18 C17 1_555 1_555
C19 N5 1_555 1_555
C20 C17 1_555 1_555
C21 C20 1_555 1_555
C22 C21 1_555 1_555
C23 C22 1_555 1_555
C24 C23 1_555 1_555
C25 N6 1_555 1_555
C26 C22 1_555 1_555
C27 C28 1_555 1_555
C28 H25 1_555 1_555
H1 C3 1_555 1_555
H2 C4 1_555 1_555
H3 C6 1_555 1_555
H4 C7 1_555 1_555
H5 C8 1_555 1_555
H6 C8 1_555 1_555
H7 C9 1_555 1_555
H8 C9 1_555 1_555
H9 C11 1_555 1_555
H10 C12 1_555 1_555
H11 C13 1_555 1_555
H12 C14 1_555 1_555
H13 C15 1_555 1_555
H14 C16 1_555 1_555
H15 C18 1_555 1_555
H16 C19 1_555 1_555
H17 C20 1_555 1_555
H18 C20 1_555 1_555
H19 C21 1_555 1_555
H20 C21 1_555 1_555
H21 C26 1_555 1_555
H22 C25 1_555 1_555
H23 C24 1_555 1_555
H24 C23 1_555 1_555
H26 C28 1_555 1_555
H27 C28 1_555 1_555
H28 C27 1_555 1_555
H29 C27 1_555 1_555
H30 O1 1_555 1_555
Fe1_2 N4 1_555 1_555
Fe1_3 N6 1_555 1_555
N4_2 Fe1 1_555 1_555
N6_2 Fe1 1_555 1_555
C6 C7 1_555 1_555
C13 C14 1_555 1_555
C18 C19 1_555 1_555
C25 C26 1_555 1_555

#END
