
#######################################################################
#
#                 Cambridge Crystallographic Data Centre
#                                CCDC 
#
#######################################################################
#
# If this CIF has been generated from an entry in the Cambridge 
# Structural Database, then it will include bibliographic, chemical, 
# crystal, experimental, refinement or atomic coordinate data resulting 
# from the CCDC's data processing and validation procedures.
#
#######################################################################

data_DELJEK
_symmetry_cell_setting           monoclinic
_symmetry_space_group_name_H-M   'P 21/a'
_symmetry_Int_Tables_number      14
_space_group_name_Hall           '-P 2yab'
loop_
_symmetry_equiv_pos_site_id
_symmetry_equiv_pos_as_xyz
1 x,y,z
2 1/2-x,1/2+y,-z
3 -x,-y,-z
4 1/2+x,1/2-y,z
_cell_length_a                   13.2660(5)
_cell_length_b                   16.8460(7)
_cell_length_c                   16.7030(8)
_cell_angle_alpha                90
_cell_angle_beta                 90.027(2)
_cell_angle_gamma                90
_cell_volume                     3732.77
loop_
_atom_site_label
_atom_site_type_symbol
_atom_site_fract_x
_atom_site_fract_y
_atom_site_fract_z
C27 C 0.8891 0.5722 0.4229
C28 C 0.8491 0.5700 0.5003
C29 C 0.8861 0.5731 0.5780
C30 C 0.5661 0.9536 1.0582
C31 C 0.6440 0.9080 1.0210
C32 C 0.5890 0.9083 0.9479
Se1 Se 0.8403(2) 0.3672(3) 0.5000(2)
Se2 Se 0.2857(2) -0.19847(12) 1.0000(2)
Fe1 Fe 0.5000 0.5000 0.5000
Fe2 Fe 0.0000 0.0000 1.0000
N1 N 0.6412(9) 0.4397(6) 0.5001(7)
N2 N 0.1321(9) -0.0738(7) 0.9998(7)
N3 N 0.4479(8) 0.4177(7) 0.5962(7)
N4 N 0.5521(8) 0.5822(7) 0.5970(6)
N5 N 0.0661(8) 0.0751(6) 0.9035(6)
N6 N -0.0661(8) -0.0761(6) 0.9035(6)
C1 C 0.7184(12) 0.4120(10) 0.4995(10)
C2 C 0.1936(10) -0.1203(8) 0.9998(9)
C3 C 0.4805(11) 0.3442(8) 0.6047(9)
C4 C 0.4401(11) 0.2884(9) 0.6566(9)
C5 C 0.3635(12) 0.3128(9) 0.7061(9)
C6 C 0.3302(12) 0.3906(9) 0.7013(9)
C7 C 0.3738(12) 0.4411(9) 0.6461(9)
C8 C 0.3133(10) 0.2548(9) 0.7633(9)
C9 C 0.5188(11) 0.6560(8) 0.6034(8)
C10 C 0.5607(11) 0.7101(9) 0.6572(9)
C11 C 0.6370(11) 0.6870(9) 0.7080(9)
C12 C 0.6702(12) 0.6099(9) 0.7031(9)
C13 C 0.6269(11) 0.5591(9) 0.6460(10)
C14 C 0.6875(11) 0.7448(10) 0.7647(9)
C15 C 0.0377(11) 0.1520(9) 0.8903(9)
C16 C 0.0830(11) 0.1988(9) 0.8335(9)
C17 C 0.1594(10) 0.1703(8) 0.7873(8)
C18 C 0.1865(12) 0.0915(9) 0.7993(9)
C19 C 0.1403(11) 0.0483(8) 0.8576(8)
C20 C 0.2121(11) 0.2217(9) 0.7279(9)
C21 C -0.0359(11) -0.1520(9) 0.8898(9)
C22 C -0.0841(11) -0.1996(9) 0.8330(9)
C23 C -0.1595(11) -0.1700(9) 0.7879(8)
C24 C -0.1874(12) -0.0914(9) 0.7985(10)
C25 C -0.1384(11) -0.0482(8) 0.8566(9)
C26 C 0.7858(12) 0.7781(10) 0.7277(9)
H1 H 0.5268 0.3324 0.5649
H2 H 0.4532 0.2399 0.6283
H3 H 0.2834 0.4097 0.7299
H4 H 0.3446 0.4934 0.6358
H5 H 0.3455 0.2158 0.7622
H6 H 0.2955 0.2868 0.7972
H7 H 0.4614 0.6785 0.5674
H8 H 0.5244 0.7519 0.6587
H9 H 0.7218 0.5834 0.7462
H10 H 0.6520 0.5031 0.6404
H11 H 0.6437 0.7897 0.7716
H12 H 0.7331 0.7168 0.8067
H13 H -0.0263 0.1582 0.9297
H14 H 0.0659 0.2549 0.8254
H15 H 0.2436 0.0747 0.7739
H16 H 0.1446 -0.0114 0.8542
H17 H 0.1787 0.2591 0.7218
H18 H 0.2427 0.1871 0.6898
H19 H 0.0238 -0.1640 0.9314
H20 H -0.0626 -0.2525 0.8329
H21 H -0.2703 -0.0917 0.7820
H22 H -0.1437 0.0094 0.8606
H23 H 0.8293 0.7338 0.7120
H24 H 0.7512 0.8178 0.6831
Se1B Se 0.1597(2) 0.6328(3) 0.5000(2)
Se2B Se -0.2857(2) 0.19847(12) 1.0000(2)
Fe1_2 Fe -0.5000 -0.5000 0.5000
Fe1_3 Fe -0.5000 -0.5000 1.5000
Fe2_2 Fe 1.0000 1.0000 1.0000
N1B N 0.3588(9) 0.5603(6) 0.4999(7)
N2B N -0.1321(9) 0.0738(7) 1.0002(7)
N3B N 0.5521(8) 0.5823(7) 0.4038(7)
N3B_2 N -0.4479(8) -0.4177(7) 1.4038(7)
N4B N 0.4479(8) 0.4178(7) 0.4030(6)
N4_2 N -0.4479(8) -0.4178(7) 0.5970(6)
N5B N -0.0661(8) -0.0751(6) 1.0965(6)
N6B N 0.0661(8) 0.0761(6) 1.0965(6)
N6_2 N 0.9339(8) 0.9239(6) 0.9035(6)
C1B C 0.2816(12) 0.5880(10) 0.5005(10)
C2B C -0.1936(10) 0.1203(8) 1.0002(9)
C3B C -0.4805(11) -0.3442(8) 1.3953(9)
C4B C -0.4401(11) -0.2884(9) 1.3434(9)
C5B C -0.3635(12) -0.3128(9) 1.2939(9)
C6B C -0.3302(12) -0.3906(9) 1.2987(9)
C7B C -0.3738(12) -0.4411(9) 1.3539(9)
C8B C -0.3133(10) -0.2548(9) 1.2367(9)
C9_2 C -0.4812(11) -0.3440(8) 0.6034(8)
C10_2 C -0.4393(11) -0.2899(9) 0.6572(9)
C11_2 C -0.3630(11) -0.3130(9) 0.7080(9)
C12_2 C -0.3298(12) -0.3901(9) 0.7031(9)
C13_2 C -0.3731(11) -0.4409(9) 0.6460(10)
C14_2 C -0.3125(11) -0.2552(10) 0.7647(9)
C15B C -0.0377(11) -0.1520(9) 1.1097(9)
C16B C -0.0830(11) -0.1988(9) 1.1665(9)
C17B C -0.1594(10) -0.1703(8) 1.2127(8)
C18B C -0.1865(12) -0.0915(9) 1.2007(9)
C19B C -0.1403(11) -0.0483(8) 1.1424(8)
C20B C -0.2121(11) -0.2217(9) 1.2721(9)
C21_2 C 0.9641(11) 0.8480(9) 0.8898(9)
C22_2 C 0.9159(11) 0.8004(9) 0.8330(9)
C23_2 C 0.8405(11) 0.8300(9) 0.7879(8)
C24_2 C 0.8126(12) 0.9086(9) 0.7985(10)
C25_2 C 0.8616(11) 0.9518(8) 0.8566(9)
C26_2 C -0.2142(12) -0.2219(10) 0.7277(9)
H1B H -0.5268 -0.3324 1.4351
H2B H -0.4532 -0.2399 1.3717
H3B H -0.2834 -0.4097 1.2701
H4B H -0.3446 -0.4934 1.3642
H5B H -0.3455 -0.2158 1.2378
H6B H -0.2955 -0.2868 1.2028
H7_2 H -0.5386 -0.3215 0.5674
H8_2 H -0.4756 -0.2481 0.6587
H9_2 H -0.2782 -0.4166 0.7462
H10_2 H -0.3480 -0.4969 0.6404
H11_2 H -0.3563 -0.2103 0.7716
H12_2 H -0.2669 -0.2832 0.8067
H13B H 0.0263 -0.1582 1.0703
H14B H -0.0659 -0.2549 1.1746
H15B H -0.2436 -0.0747 1.2261
H16B H -0.1446 0.0114 1.1458
H17B H -0.1787 -0.2591 1.2782
H18B H -0.2427 -0.1871 1.3102
H19_2 H 1.0238 0.8360 0.9314
H20_2 H 0.9374 0.7475 0.8329
H21_2 H 0.7297 0.9083 0.7820
H22_2 H 0.8563 1.0094 0.8606
H23_2 H -0.1707 -0.2662 0.7120
H24_2 H -0.2488 -0.1822 0.6831
loop_
_geom_bond_atom_site_label_1
_geom_bond_atom_site_label_2
_geom_bond_site_symmetry_1
_geom_bond_site_symmetry_2
Se1 C1 1_555 1_555
Se2 C2 1_555 1_555
Fe1 N1 1_555 1_555
Fe2 N2 1_555 1_555
N1 C1 1_555 1_555
N2 C2 1_555 1_555
N3 Fe1 1_555 1_555
N4 Fe1 1_555 1_555
N5 Fe2 1_555 1_555
N6 Fe2 1_555 1_555
C3 N3 1_555 1_555
C4 C3 1_555 1_555
C5 C4 1_555 1_555
C6 C5 1_555 1_555
C7 N3 1_555 1_555
C8 C5 1_555 1_555
C9 N4 1_555 1_555
C10 C9 1_555 1_555
C11 C10 1_555 1_555
C12 C11 1_555 1_555
C13 N4 1_555 1_555
C14 C11 1_555 1_555
C15 N5 1_555 1_555
C16 C15 1_555 1_555
C17 C16 1_555 1_555
C18 C17 1_555 1_555
C19 N5 1_555 1_555
C20 C8 1_555 1_555
C21 N6 1_555 1_555
C22 C21 1_555 1_555
C23 C22 1_555 1_555
C24 C23 1_555 1_555
C25 N6 1_555 1_555
C26 C14 1_555 1_555
C27 C28 1_555 1_555
C28 C29 1_555 1_555
C30 C31 1_555 1_555
C31 C32 1_555 1_555
H1 C3 1_555 1_555
H2 C4 1_555 1_555
H3 C6 1_555 1_555
H4 C7 1_555 1_555
H5 C8 1_555 1_555
H6 C8 1_555 1_555
H7 C9 1_555 1_555
H8 C10 1_555 1_555
H9 C12 1_555 1_555
H10 C13 1_555 1_555
H11 C14 1_555 1_555
H12 C14 1_555 1_555
H13 C15 1_555 1_555
H14 C16 1_555 1_555
H15 C18 1_555 1_555
H16 C19 1_555 1_555
H17 C20 1_555 1_555
H18 C20 1_555 1_555
H19 C21 1_555 1_555
H20 C22 1_555 1_555
H21 C24 1_555 1_555
H22 C25 1_555 1_555
H23 C26 1_555 1_555
H24 C26 1_555 1_555
Se1B C1B 1_555 1_555
Se2B C2B 1_555 1_555
Fe1_2 N4_2 1_555 1_555
Fe1_3 N3B_2 1_555 1_555
Fe2_2 N6_2 1_555 1_555
N1B Fe1 1_555 1_555
N2B Fe2 1_555 1_555
N3B Fe1 1_555 1_555
N3B_2 C3B 1_555 1_555
N4B Fe1 1_555 1_555
N4_2 C9_2 1_555 1_555
N5B Fe2 1_555 1_555
N6B Fe2 1_555 1_555
N6_2 C21_2 1_555 1_555
C1B N1B 1_555 1_555
C2B N2B 1_555 1_555
C3B C4B 1_555 1_555
C4B C5B 1_555 1_555
C5B C6B 1_555 1_555
C6B C7B 1_555 1_555
C7B N3B_2 1_555 1_555
C8B C5B 1_555 1_555
C9_2 C10_2 1_555 1_555
C10_2 C11_2 1_555 1_555
C11_2 C12_2 1_555 1_555
C12_2 C13_2 1_555 1_555
C13_2 N4_2 1_555 1_555
C14_2 C11_2 1_555 1_555
C15B N5B 1_555 1_555
C16B C15B 1_555 1_555
C17B C16B 1_555 1_555
C18B C17B 1_555 1_555
C19B N5B 1_555 1_555
C20B C8B 1_555 1_555
C21_2 C22_2 1_555 1_555
C22_2 C23_2 1_555 1_555
C23_2 C26 1_555 1_555
C24_2 C23_2 1_555 1_555
C25_2 N6_2 1_555 1_555
C26_2 C23 1_555 1_555
H1B C3B 1_555 1_555
H2B C4B 1_555 1_555
H3B C6B 1_555 1_555
H4B C7B 1_555 1_555
H5B C8B 1_555 1_555
H6B C8B 1_555 1_555
H7_2 C9_2 1_555 1_555
H8_2 C10_2 1_555 1_555
H9_2 C12_2 1_555 1_555
H10_2 C13_2 1_555 1_555
H11_2 C14_2 1_555 1_555
H12_2 C14_2 1_555 1_555
H13B C15B 1_555 1_555
H14B C16B 1_555 1_555
H15B C18B 1_555 1_555
H16B C19B 1_555 1_555
H17B C20B 1_555 1_555
H18B C20B 1_555 1_555
H19_2 C21_2 1_555 1_555
H20_2 C22_2 1_555 1_555
H21_2 C24_2 1_555 1_555
H22_2 C25_2 1_555 1_555
H23_2 C26_2 1_555 1_555
H24_2 C26_2 1_555 1_555
C6 C7 1_555 1_555
C12 C13 1_555 1_555
C17 C20 1_555 1_555
C18 C19 1_555 1_555
C24 C25 1_555 1_555
C14_2 C26_2 1_555 1_555
C17B C20B 1_555 1_555
C18B C19B 1_555 1_555
C24_2 C25_2 1_555 1_555

#END
