
#######################################################################
#
#                 Cambridge Crystallographic Data Centre
#                                CCDC 
#
#######################################################################
#
# If this CIF has been generated from an entry in the Cambridge 
# Structural Database, then it will include bibliographic, chemical, 
# crystal, experimental, refinement or atomic coordinate data resulting 
# from the CCDC's data processing and validation procedures.
#
#######################################################################

data_DELJEK01
_symmetry_cell_setting           orthorhombic
_symmetry_space_group_name_H-M   'P b a m'
_symmetry_Int_Tables_number      55
_space_group_name_Hall           '-P 2 2ab'
loop_
_symmetry_equiv_pos_site_id
_symmetry_equiv_pos_as_xyz
1 x,y,z
2 -x,-y,z
3 1/2+x,1/2-y,-z
4 1/2-x,1/2+y,-z
5 -x,-y,-z
6 x,y,-z
7 1/2-x,1/2+y,z
8 1/2+x,1/2-y,z
_cell_length_a                   13.2660(5)
_cell_length_b                   16.8460(7)
_cell_length_c                   16.7030(8)
_cell_angle_alpha                90
_cell_angle_beta                 90
_cell_angle_gamma                90
_cell_volume                     3732.77
loop_
_atom_site_label
_atom_site_type_symbol
_atom_site_fract_x
_atom_site_fract_y
_atom_site_fract_z
C15 C 0.8491 0.5700 0.5000
C16 C 0.8876 0.5726 0.4224
C16E C 0.8876 0.5726 0.5776
C17 C 0.6440 0.9080 1.0000
C18 C 0.5776 0.9310 0.9448
C18E C 0.5776 0.9310 1.0552
Fe1 Fe 0.5000 0.5000 0.5000
Fe2 Fe 0.0000 0.0000 1.0000
N1 N 0.6412 0.4397 0.5000
C1 C 0.7184 0.4120 0.5000
Se1 Se 0.8403 0.3672 0.5000
N2 N 0.1321 -0.0738 1.0000
C2 C 0.1936 -0.1203 1.0000
Se2 Se 0.2857 -0.1985 1.0000
N3 N 0.4479 0.4178 0.5966
C3 C 0.4808 0.3441 0.6040
C4 C 0.4397 0.2892 0.6569
C5 C 0.3632 0.3129 0.7070
C6 C 0.3300 0.3904 0.7022
C7 C 0.3734 0.4410 0.6460
C8 C 0.3129 0.2550 0.7640
C9 C 0.2132 0.2218 0.7278
C10 C 0.1594 0.1702 0.7876
C11 C 0.0836 0.1992 0.8332
C12 C 0.0368 0.1520 0.8900
C13 C 0.1394 0.0482 0.8571
C14 C 0.1870 0.0914 0.7989
N4 N 0.0661 0.0756 0.9035
H1 H 0.5327 0.3270 0.5662
H2 H 0.4644 0.2440 0.6435
H3 H 0.2808 0.4132 0.7380
H4 H 0.3463 0.4952 0.6381
H5 H 0.3509 0.2130 0.7669
H6 H 0.2812 0.2850 0.8020
H7 H 0.1747 0.2626 0.7169
H8 H 0.2458 0.1846 0.6864
H9 H 0.0642 0.2537 0.8292
H10 H -0.0250 0.1611 0.9306
H11 H 0.1442 -0.0104 0.8574
H12 H 0.2570 0.0832 0.7780
Fe1_2 Fe -0.5000 -0.5000 0.5000
Fe2_2 Fe 1.0000 1.0000 1.0000
Fe2_3 Fe 1.0000 1.0000 0.0000
N1A N 0.3588 0.5603 0.5000
C1A C 0.2816 0.5880 0.5000
Se1A Se 0.1597 0.6328 0.5000
N2A N -0.1321 0.0738 1.0000
C2A C -0.1936 0.1203 1.0000
Se2A Se -0.2857 0.1985 1.0000
N3A N 0.5521 0.5822 0.5966
N3D N 0.5521 0.5822 0.4034
N3E N 0.4479 0.4178 0.4034
N3A_2 N -0.4479 -0.4178 0.5966
C3A C 0.5192 0.6559 0.6040
C3D C 0.5192 0.6559 0.3960
C3A_2 C -0.4808 -0.3441 0.6040
C4A C 0.5603 0.7108 0.6569
C4D C 0.5603 0.7108 0.3431
C4A_2 C -0.4397 -0.2892 0.6569
C5A C 0.6368 0.6871 0.7070
C5D C 0.6368 0.6871 0.2930
C5A_2 C -0.3632 -0.3129 0.7070
C6A C 0.6700 0.6096 0.7022
C6D C 0.6700 0.6096 0.2978
C6A_2 C -0.3300 -0.3904 0.7022
C7A C 0.6266 0.5590 0.6460
C7D C 0.6266 0.5590 0.3540
C7A_2 C -0.3734 -0.4410 0.6460
C8A C 0.6871 0.7450 0.7640
C8D C 0.6871 0.7450 0.2360
C8A_2 C -0.3129 -0.2550 0.7640
C9A C -0.2132 -0.2218 0.7278
C9A_2 C 0.7868 0.7782 0.7278
C9D C 0.7868 0.7782 0.2722
C10A C -0.1594 -0.1702 0.7876
C10A_2 C 0.8406 0.8298 0.7876
C10D C 0.8406 0.8298 0.2124
C11A C -0.0836 -0.1992 0.8332
C11A_2 C 0.9164 0.8008 0.8332
C11D C 0.9164 0.8008 0.1668
C12A C -0.0368 -0.1520 0.8900
C12A_2 C 0.9632 0.8480 0.8900
C12D C 0.9632 0.8480 0.1100
C13A C -0.1394 -0.0482 0.8571
C13A_2 C 0.8606 0.9518 0.8571
C13D C 0.8606 0.9518 0.1429
C14A C -0.1870 -0.0914 0.7989
C14A_2 C 0.8130 0.9086 0.7989
C14D C 0.8130 0.9086 0.2011
N4A N -0.0661 -0.0756 0.9035
N4D N -0.0661 -0.0756 1.0965
N4E N 0.0661 0.0756 1.0965
N4A_2 N 0.9339 0.9244 0.9035
N4D_2 N 0.9339 0.9244 0.0965
H1A H 0.4673 0.6730 0.5662
H1D H 0.4673 0.6730 0.4338
H1A_2 H -0.5327 -0.3270 0.5662
H2A H 0.5356 0.7560 0.6435
H2D H 0.5356 0.7560 0.3565
H2A_2 H -0.4644 -0.2440 0.6435
H3A H 0.7192 0.5868 0.7380
H3D H 0.7192 0.5868 0.2620
H3A_2 H -0.2808 -0.4132 0.7380
H4A H 0.6537 0.5048 0.6381
H4D H 0.6537 0.5048 0.3619
H4A_2 H -0.3463 -0.4952 0.6381
H5A H 0.6491 0.7870 0.7669
H5D H 0.6491 0.7870 0.2331
H5A_2 H -0.3509 -0.2130 0.7669
H6A H 0.7188 0.7150 0.8020
H6D H 0.7188 0.7150 0.1980
H6A_2 H -0.2812 -0.2850 0.8020
H7A H -0.1747 -0.2626 0.7169
H7A_2 H 0.8253 0.7374 0.7169
H7D H 0.8253 0.7374 0.2831
H8A H -0.2458 -0.1846 0.6864
H8A_2 H 0.7542 0.8154 0.6864
H8D H 0.7542 0.8154 0.3136
H9A H -0.0642 -0.2537 0.8292
H9A_2 H 0.9358 0.7463 0.8292
H9D H 0.9358 0.7463 0.1708
H10A H 0.0250 -0.1611 0.9306
H10A_2 H 1.0250 0.8389 0.9306
H10D H 1.0250 0.8389 0.0694
H11A H -0.1442 0.0104 0.8574
H11A_2 H 0.8558 1.0104 0.8574
H11D H 0.8558 1.0104 0.1426
H12A H -0.2570 -0.0832 0.7780
H12A_2 H 0.7430 0.9168 0.7780
H12D H 0.7430 0.9168 0.2220
loop_
_geom_bond_atom_site_label_1
_geom_bond_atom_site_label_2
_geom_bond_site_symmetry_1
_geom_bond_site_symmetry_2
Fe1 N1 1_555 1_555
Fe2 N2 1_555 1_555
N1 C1 1_555 1_555
C1 Se1 1_555 1_555
N2 C2 1_555 1_555
C2 Se2 1_555 1_555
N3 Fe1 1_555 1_555
C3 N3 1_555 1_555
C4 C3 1_555 1_555
C5 C4 1_555 1_555
C6 C5 1_555 1_555
C7 N3 1_555 1_555
C8 C5 1_555 1_555
C9 C8 1_555 1_555
C10 C9 1_555 1_555
C11 C10 1_555 1_555
C12 C11 1_555 1_555
C13 C14 1_555 1_555
C14 C10 1_555 1_555
N4 Fe2 1_555 1_555
H1 C3 1_555 1_555
H2 C4 1_555 1_555
H3 C6 1_555 1_555
H4 C7 1_555 1_555
H5 C8 1_555 1_555
H6 C8 1_555 1_555
H7 C9 1_555 1_555
H8 C9 1_555 1_555
H9 C11 1_555 1_555
H10 C12 1_555 1_555
H11 C13 1_555 1_555
H12 C14 1_555 1_555
C15 C16 1_555 1_555
C17 C18 1_555 1_555
Fe1_2 N3A_2 1_555 1_555
Fe2_2 N4A_2 1_555 1_555
Fe2_3 N4D_2 1_555 1_555
N1A Fe1 1_555 1_555
C1A N1A 1_555 1_555
Se1A C1A 1_555 1_555
N2A Fe2 1_555 1_555
C2A N2A 1_555 1_555
Se2A C2A 1_555 1_555
N3A Fe1 1_555 1_555
N3D Fe1 1_555 1_555
N3E Fe1 1_555 1_555
N3A_2 C3A_2 1_555 1_555
C3A N3A 1_555 1_555
C3D N3D 1_555 1_555
C3A_2 C4A_2 1_555 1_555
C4A C3A 1_555 1_555
C4D C3D 1_555 1_555
C4A_2 C5A_2 1_555 1_555
C5A C4A 1_555 1_555
C5D C4D 1_555 1_555
C5A_2 C6A_2 1_555 1_555
C6A C5A 1_555 1_555
C6D C5D 1_555 1_555
C6A_2 C7A_2 1_555 1_555
C7A N3A 1_555 1_555
C7D N3D 1_555 1_555
C7A_2 N3A_2 1_555 1_555
C8A C5A 1_555 1_555
C8D C5D 1_555 1_555
C8A_2 C5A_2 1_555 1_555
C9A C8A_2 1_555 1_555
C9A_2 C8A 1_555 1_555
C9D C8D 1_555 1_555
C10A C9A 1_555 1_555
C10A_2 C9A_2 1_555 1_555
C10D C9D 1_555 1_555
C11A C10A 1_555 1_555
C11A_2 C10A_2 1_555 1_555
C11D C10D 1_555 1_555
C12A C11A 1_555 1_555
C12A_2 C11A_2 1_555 1_555
C12D C11D 1_555 1_555
C13A C14A 1_555 1_555
C13A_2 C14A_2 1_555 1_555
C13D C14D 1_555 1_555
C14A C10A 1_555 1_555
C14A_2 C10A_2 1_555 1_555
C14D C10D 1_555 1_555
N4A Fe2 1_555 1_555
N4D Fe2 1_555 1_555
N4E Fe2 1_555 1_555
N4A_2 C12A_2 1_555 1_555
N4D_2 C12D 1_555 1_555
H1A C3A 1_555 1_555
H1D C3D 1_555 1_555
H1A_2 C3A_2 1_555 1_555
H2A C4A 1_555 1_555
H2D C4D 1_555 1_555
H2A_2 C4A_2 1_555 1_555
H3A C6A 1_555 1_555
H3D C6D 1_555 1_555
H3A_2 C6A_2 1_555 1_555
H4A C7A 1_555 1_555
H4D C7D 1_555 1_555
H4A_2 C7A_2 1_555 1_555
H5A C8A 1_555 1_555
H5D C8D 1_555 1_555
H5A_2 C8A_2 1_555 1_555
H6A C8A 1_555 1_555
H6D C8D 1_555 1_555
H6A_2 C8A_2 1_555 1_555
H7A C9A 1_555 1_555
H7A_2 C9A_2 1_555 1_555
H7D C9D 1_555 1_555
H8A C9A 1_555 1_555
H8A_2 C9A_2 1_555 1_555
H8D C9D 1_555 1_555
H9A C11A 1_555 1_555
H9A_2 C11A_2 1_555 1_555
H9D C11D 1_555 1_555
H10A C12A 1_555 1_555
H10A_2 C12A_2 1_555 1_555
H10D C12D 1_555 1_555
H11A C13A 1_555 1_555
H11A_2 C13A_2 1_555 1_555
H11D C13D 1_555 1_555
H12A C14A 1_555 1_555
H12A_2 C14A_2 1_555 1_555
H12D C14D 1_555 1_555
C16E C15 1_555 1_555
C18E C17 1_555 1_555
C6 C7 1_555 1_555
C12 N4 1_555 1_555
C13 N4 1_555 1_555
C6A C7A 1_555 1_555
C6D C7D 1_555 1_555
C12A N4A 1_555 1_555
C13A N4A 1_555 1_555
C13A_2 N4A_2 1_555 1_555
C13D N4D_2 1_555 1_555

#END
