
#######################################################################
#
#                 Cambridge Crystallographic Data Centre
#                                CCDC 
#
#######################################################################
#
# If this CIF has been generated from an entry in the Cambridge 
# Structural Database, then it will include bibliographic, chemical, 
# crystal, experimental, refinement or atomic coordinate data resulting 
# from the CCDC's data processing and validation procedures.
#
#######################################################################

data_DELJAG01
_symmetry_cell_setting           monoclinic
_symmetry_space_group_name_H-M   'C 2/c'
_symmetry_Int_Tables_number      15
_space_group_name_Hall           '-C 2yn'
loop_
_symmetry_equiv_pos_site_id
_symmetry_equiv_pos_as_xyz
1 x,y,z
2 -x,y,1/2-z
3 1/2+x,1/2+y,z
4 1/2-x,1/2+y,1/2-z
5 -x,-y,-z
6 x,-y,1/2+z
7 1/2-x,1/2-y,-z
8 1/2+x,1/2-y,1/2+z
_cell_length_a                   19.8440(8)
_cell_length_b                   10.0760(3)
_cell_length_c                   15.3390(8)
_cell_angle_alpha                90
_cell_angle_beta                 112.783(2)
_cell_angle_gamma                90
_cell_volume                     2827.71
loop_
_atom_site_label
_atom_site_type_symbol
_atom_site_fract_x
_atom_site_fract_y
_atom_site_fract_z
Fe1 Fe 0.5000 0.98698 0.2500
Se1 Se 0.7172 1.0892 0.1753
N1 N 0.5828 0.9950 0.1924
N2 N 0.5562 0.8265 0.3531
N3 N 0.5656 0.1440 0.3507
C1 C 0.6356 1.0315 0.1851
C2 C 0.6242 0.7870 0.3698
C3 C 0.6599 0.6915 0.4356
C4 C 0.6274 0.6340 0.4915
C5 C 0.5571 0.6730 0.4745
C6 C 0.5234 0.7670 0.4050
C7 C 0.6680 0.5385 0.5706
C8 C 0.7106 0.4280 0.5442
C9 C 0.6606 0.3290 0.4762
C10 C 0.6316 0.2225 0.5084
C11 C 0.5853 0.1343 0.4445
C12 C 0.5935 0.2460 0.3194
C13 C 0.6402 0.3385 0.3786
H1 H 0.6482 0.8272 0.3336
H2 H 0.7077 0.6642 0.4436
H3 H 0.5324 0.6358 0.5102
H4 H 0.4750 0.7940 0.3939
H5 H 0.6329 0.4945 0.5877
H6 H 0.6996 0.5876 0.6226
H7 H 0.7381 0.4702 0.5134
H8 H 0.7427 0.3838 0.5991
H9 H 0.6442 0.2128 0.5745
H10 H 0.5658 0.0628 0.4677
H11 H 0.5806 0.2538 0.2532
H12 H 0.6582 0.4098 0.3534
Fe1_2 Fe 0.5000 -0.01302 0.2500
Se1A Se 0.2828 1.0892 0.3247
N1A N 0.4172 0.9950 0.3076
N2A N 0.4438 0.8265 0.1469
N3A N 0.4344 0.1440 0.1493
N3_2 N 0.5656 1.1440 0.3507
N3A_2 N 0.4344 1.1440 0.1493
C1A C 0.3644 1.0315 0.3149
C2A C 0.3758 0.7870 0.1302
C3A C 0.3401 0.6915 0.0644
C4A C 0.3726 0.6340 0.0085
C5A C 0.4429 0.6730 0.0255
C6A C 0.4766 0.7670 0.0950
C7A C 0.3320 0.5385 -0.0706
C8A C 0.2894 0.4280 -0.0442
C9A C 0.3394 0.3290 0.0238
C10A C 0.3684 0.2225 -0.0084
C11A C 0.4147 0.1343 0.0555
C12A C 0.4065 0.2460 0.1806
C13A C 0.3598 0.3385 0.1214
H1A H 0.3518 0.8272 0.1664
H2A H 0.2923 0.6642 0.0564
H3A H 0.4676 0.6358 -0.0102
H4A H 0.5250 0.7940 0.1061
H5A H 0.3671 0.4945 -0.0877
H6A H 0.3004 0.5876 -0.1226
H7A H 0.2619 0.4702 -0.0134
H8A H 0.2573 0.3838 -0.0991
H9A H 0.3558 0.2128 -0.0745
H10A H 0.4342 0.0628 0.0323
H11A H 0.4194 0.2538 0.2468
H12A H 0.3418 0.4098 0.1466
loop_
_geom_bond_atom_site_label_1
_geom_bond_atom_site_label_2
_geom_bond_site_symmetry_1
_geom_bond_site_symmetry_2
Fe1 N1 1_555 1_555
Se1 C1 1_555 1_555
N1 C1 1_555 1_555
N2 Fe1 1_555 1_555
N3 C11 1_555 1_555
C2 N2 1_555 1_555
C3 C2 1_555 1_555
C4 C3 1_555 1_555
C5 C4 1_555 1_555
C6 N2 1_555 1_555
C7 C4 1_555 1_555
C8 C7 1_555 1_555
C9 C8 1_555 1_555
C10 C9 1_555 1_555
C11 C10 1_555 1_555
C12 N3 1_555 1_555
C13 C9 1_555 1_555
H1 C2 1_555 1_555
H2 C3 1_555 1_555
H3 C5 1_555 1_555
H4 C6 1_555 1_555
H5 C7 1_555 1_555
H6 C7 1_555 1_555
H7 C8 1_555 1_555
H8 C8 1_555 1_555
H9 C10 1_555 1_555
H10 C11 1_555 1_555
H11 C12 1_555 1_555
H12 C13 1_555 1_555
Fe1_2 N3 1_555 1_555
Se1A C1A 1_555 1_555
N1A Fe1 1_555 1_555
N2A Fe1 1_555 1_555
N3A Fe1_2 1_555 1_555
N3_2 Fe1 1_555 1_555
N3A_2 Fe1 1_555 1_555
C1A N1A 1_555 1_555
C2A N2A 1_555 1_555
C3A C2A 1_555 1_555
C4A C3A 1_555 1_555
C5A C4A 1_555 1_555
C6A N2A 1_555 1_555
C7A C4A 1_555 1_555
C8A C7A 1_555 1_555
C9A C8A 1_555 1_555
C10A C9A 1_555 1_555
C11A N3A 1_555 1_555
C12A N3A 1_555 1_555
C13A C9A 1_555 1_555
H1A C2A 1_555 1_555
H2A C3A 1_555 1_555
H3A C5A 1_555 1_555
H4A C6A 1_555 1_555
H5A C7A 1_555 1_555
H6A C7A 1_555 1_555
H7A C8A 1_555 1_555
H8A C8A 1_555 1_555
H9A C10A 1_555 1_555
H10A C11A 1_555 1_555
H11A C12A 1_555 1_555
H12A C13A 1_555 1_555
C5 C6 1_555 1_555
C12 C13 1_555 1_555
C5A C6A 1_555 1_555
C10A C11A 1_555 1_555
C12A C13A 1_555 1_555

#END
