
#######################################################################
#
#                 Cambridge Crystallographic Data Centre
#                                CCDC 
#
#######################################################################
#
# If this CIF has been generated from an entry in the Cambridge 
# Structural Database, then it will include bibliographic, chemical, 
# crystal, experimental, refinement or atomic coordinate data resulting 
# from the CCDC's data processing and validation procedures.
#
#######################################################################

data_DELTAQ02
_symmetry_cell_setting           tetragonal
_symmetry_space_group_name_H-M   'P 41 21 2'
_symmetry_Int_Tables_number      92
_space_group_name_Hall           'P 4abw 2nw'
loop_
_symmetry_equiv_pos_site_id
_symmetry_equiv_pos_as_xyz
1 x,y,z
2 -x,-y,1/2+z
3 1/2+x,1/2-y,3/4-z
4 1/2-x,1/2+y,1/4-z
5 -y,-x,1/2-z
6 y,x,-z
7 1/2+y,1/2-x,3/4+z
8 1/2-y,1/2+x,1/4+z
_cell_length_a                   7.9650(5)
_cell_length_b                   7.9650(5)
_cell_length_c                   17.7010(11)
_cell_angle_alpha                90
_cell_angle_beta                 90
_cell_angle_gamma                90
_cell_volume                     1122.97
loop_
_atom_site_label
_atom_site_type_symbol
_atom_site_fract_x
_atom_site_fract_y
_atom_site_fract_z
C1 C 0.52511(15) 0.17555(16) -0.12116(6)
H1 H 0.575(3) 0.289(2) -0.1000(10)
C2 C 0.11249(13) -0.08715(13) -0.01224(7)
H2 H 0.2242 -0.1148 -0.0212
C3 C -0.00601(14) -0.21467(13) -0.01219(7)
H3 H 0.0257 -0.3256 -0.0202
C4 C -0.17311(11) -0.17311(11) 0.0000
C5 C -0.30425(12) -0.30425(12) 0.0000
C6 C -0.45327(15) -0.28200(14) -0.03976(7)
H4 H -0.4731 -0.1831 -0.0662
C7 C -0.57168(14) -0.40941(14) -0.03937(6)
H5 H -0.6692 -0.3956 -0.0676
N1 N 0.07348(10) 0.07348(10) 0.0000
N2 N -0.55161(10) -0.55161(10) 0.0000
O1 O 0.39940(13) 0.12507(12) -0.08675(5)
O2 O 0.60611(12) 0.09988(11) -0.17119(5)
Zn1 Zn 0.261454(13) 0.261454(13) 0.0000
C2E C -0.08715(13) 0.11249(13) 0.01224(7)
H2E H -0.1148 0.2242 0.0212
C3E C -0.21467(13) -0.00601(14) 0.01219(7)
H3E H -0.3256 0.0257 0.0202
C6E C -0.28200(14) -0.45327(15) 0.03976(7)
H4E H -0.1831 -0.4731 0.0662
C7E C -0.40941(14) -0.57168(14) 0.03937(6)
H5E H -0.3956 -0.6692 0.0676
C1E C 0.17555(16) 0.52511(15) 0.12116(6)
H1E H 0.289(2) 0.575(3) 0.1000(10)
O1E O 0.12507(12) 0.39940(13) 0.08675(5)
O2E O 0.09988(11) 0.60611(12) 0.17119(5)
N2_2 N 0.44839(10) 0.44839(10) 0.0000
O2B O 0.10611(12) 0.40012(11) -0.07881(5)
O2G O 0.40012(11) 0.10611(12) 0.07881(5)
Zn1_2 Zn -0.738546(13) -0.738546(13) 0.0000
Zn1B Zn 0.761454(13) 0.238546(13) -0.2500
Zn1C Zn 0.238546(13) 0.761454(13) 0.2500
loop_
_geom_bond_atom_site_label_1
_geom_bond_atom_site_label_2
_geom_bond_site_symmetry_1
_geom_bond_site_symmetry_2
C1 H1 1_555 1_555
C2 H2 1_555 1_555
C3 C2 1_555 1_555
H3 C3 1_555 1_555
C4 C3 1_555 1_555
C5 C4 1_555 1_555
C6 C5 1_555 1_555
H4 C6 1_555 1_555
C7 C6 1_555 1_555
H5 C7 1_555 1_555
N1 C2 1_555 1_555
N2 C7 1_555 1_555
O1 C1 1_555 1_555
O2 C1 1_555 1_555
Zn1 N1 1_555 1_555
C2E N1 1_555 1_555
H2E C2E 1_555 1_555
C3E C4 1_555 1_555
H3E C3E 1_555 1_555
C6E C5 1_555 1_555
H4E C6E 1_555 1_555
C7E N2 1_555 1_555
H5E C7E 1_555 1_555
C1E H1E 1_555 1_555
O1E Zn1 1_555 1_555
O2E C1E 1_555 1_555
N2_2 Zn1 1_555 1_555
O2B Zn1 1_555 1_555
O2G Zn1 1_555 1_555
Zn1_2 N2 1_555 1_555
Zn1B O2 1_555 1_555
Zn1C O2E 1_555 1_555
O1 Zn1 1_555 1_555
C2E C3E 1_555 1_555
C6E C7E 1_555 1_555
C1E O1E 1_555 1_555

#END
