
#######################################################################
#
#                 Cambridge Crystallographic Data Centre
#                                CCDC 
#
#######################################################################
#
# If this CIF has been generated from an entry in the Cambridge 
# Structural Database, then it will include bibliographic, chemical, 
# crystal, experimental, refinement or atomic coordinate data resulting 
# from the CCDC's data processing and validation procedures.
#
#######################################################################

data_DELVAR
_symmetry_cell_setting           monoclinic
_symmetry_space_group_name_H-M   'P 21/c'
_symmetry_Int_Tables_number      14
_space_group_name_Hall           '-P 2ybc'
loop_
_symmetry_equiv_pos_site_id
_symmetry_equiv_pos_as_xyz
1 x,y,z
2 -x,1/2+y,1/2-z
3 -x,-y,-z
4 x,1/2-y,1/2+z
_cell_length_a                   10.566(2)
_cell_length_b                   10.438(1)
_cell_length_c                   17.864(3)
_cell_angle_alpha                90
_cell_angle_beta                 90.57(1)
_cell_angle_gamma                90
_cell_volume                     1970.09
loop_
_atom_site_label
_atom_site_type_symbol
_atom_site_fract_x
_atom_site_fract_y
_atom_site_fract_z
Mo1 Mo 0.9553(2) 0.2406(2) 0.1301(1)
Ag1 Ag 0.8394(2) 0.1106(2) -0.1239(1)
O1 O 0.9292(1) 0.2161(10) 0.0196(5)
O2 O 0.9154(10) 0.2639(11) 0.2389(5)
O3 O 0.8060(11) 0.1063(11) 0.1164(5)
O4 O 0.7964(11) 0.3671(11) 0.1347(5)
O5 O 1.0560(12) 0.3662(12) 0.1107(5)
O6 O 1.0534(12) 0.1215(12) 0.1576(5)
N1 N 0.8483(14) 0.1198(13) -0.0055(6)
N2 N 0.8252(14) 0.3536(13) 0.2599(6)
C1 C 0.7857(17) 0.0630(16) 0.0473(7)
C2 C 0.7644(13) 0.4053(12) 0.2017(6)
C3 C 0.7038(16) -0.0415(18) 0.0351(7)
C4 C 0.5909(17) -0.0561(18) 0.0778(8)
C5 C 0.5112(19) -0.1538(23) 0.0679(11)
C6 C 0.5363(23) -0.2432(21) 0.0146(11)
C7 C 0.6517(23) -0.2360(18) -0.0271(9)
C8 C 0.7271(19) -0.1367(17) -0.0184(8)
C9 C 0.6579(16) 0.4884(15) 0.2099(8)
C10 C 0.6521(19) 0.5831(19) 0.2680(9)
C11 C 0.5458(24) 0.6569(20) 0.2739(11)
C12 C 0.4497(24) 0.6482(22) 0.2265(12)
C13 C 0.4521(20) 0.5586(20) 0.1685(11)
C14 C 0.5599(18) 0.4843(18) 0.1609(9)
H1 H 0.570 0.012 0.118
H2 H 0.432 -0.162 0.100
H3 H 0.473 -0.316 0.004
H4 H 0.675 -0.308 -0.064
H5 H 0.806 -0.129 0.0052
H6 H 0.727 0.595 0.305
H7 H 0.541 0.722 0.317
H8 H 0.373 0.708 0.232
H9 H 0.376 0.548 0.132
H10 H 0.566 0.423 0.116
N2C N 0.8252(14) 0.1464(13) -0.2401(6)
Ag1C Ag 0.8394(2) 0.3894(2) 0.3761(1)
Ag2 Ag 1.1313(2) 0.2336(2) -0.1648(1)
O7 O 1.1814(8) 0.0814(17) -0.2373(8)
O8 O 1.0939(18) 0.3724(16) -0.0800(8)
loop_
_geom_bond_atom_site_label_1
_geom_bond_atom_site_label_2
_geom_bond_site_symmetry_1
_geom_bond_site_symmetry_2
Mo1 O1 1_555 1_555
Ag1 N1 1_555 1_555
Ag2 O7 1_555 1_555
O1 N1 1_555 1_555
O2 Mo1 1_555 1_555
O3 Mo1 1_555 1_555
O4 Mo1 1_555 1_555
O5 Mo1 1_555 1_555
O6 Mo1 1_555 1_555
O8 Ag2 1_555 1_555
N1 C1 1_555 1_555
N2 O2 1_555 1_555
C1 O3 1_555 1_555
C2 O4 1_555 1_555
C3 C1 1_555 1_555
C4 C3 1_555 1_555
C5 C4 1_555 1_555
C6 C5 1_555 1_555
C7 C6 1_555 1_555
C8 C3 1_555 1_555
C9 C2 1_555 1_555
C10 C9 1_555 1_555
C11 C10 1_555 1_555
C12 C11 1_555 1_555
C13 C12 1_555 1_555
C14 C9 1_555 1_555
H1 C4 1_555 1_555
H2 C5 1_555 1_555
H3 C6 1_555 1_555
H4 C7 1_555 1_555
H5 C8 1_555 1_555
H6 C10 1_555 1_555
H7 C11 1_555 1_555
H8 C12 1_555 1_555
H9 C13 1_555 1_555
H10 C14 1_555 1_555
N2C Ag1 1_555 1_555
Ag1C N2 1_555 1_555
N2 C2 1_555 1_555
C7 C8 1_555 1_555
C13 C14 1_555 1_555

#END
