
#######################################################################
#
#                 Cambridge Crystallographic Data Centre
#                                CCDC 
#
#######################################################################
#
# If this CIF has been generated from an entry in the Cambridge 
# Structural Database, then it will include bibliographic, chemical, 
# crystal, experimental, refinement or atomic coordinate data resulting 
# from the CCDC's data processing and validation procedures.
#
#######################################################################

data_DEMFAC
_symmetry_cell_setting           monoclinic
_symmetry_space_group_name_H-M   'P 21/n'
_symmetry_Int_Tables_number      14
_space_group_name_Hall           '-P 2yn'
loop_
_symmetry_equiv_pos_site_id
_symmetry_equiv_pos_as_xyz
1 x,y,z
2 1/2-x,1/2+y,1/2-z
3 -x,-y,-z
4 1/2+x,1/2-y,1/2+z
_cell_length_a                   8.319(4)
_cell_length_b                   10.834(2)
_cell_length_c                   12.461(5)
_cell_angle_alpha                90
_cell_angle_beta                 93.36(3)
_cell_angle_gamma                90
_cell_volume                     1121.15
loop_
_atom_site_label
_atom_site_type_symbol
_atom_site_fract_x
_atom_site_fract_y
_atom_site_fract_z
U1 U 0.12480(4) 0.08104(3) 0.20089(3)
S1 S 0.4847(3) 0.0402(2) 0.3664(2)
O1 O 0.3982(7) 0.0410(6) 0.2546(5)
O2 O -0.0559(7) 0.2095(6) 0.3009(5)
O3 O 0.1806(7) 0.1770(6) 0.3814(5)
O4 O 0.2770(8) 0.4609(7) 0.4375(5)
O5 O 0.3880(8) 0.4180(9) 0.5946(6)
O6 O 0.0571(8) -0.0523(6) 0.2660(6)
O7 O 0.1855(9) 0.2167(6) 0.1361(6)
C1 C 0.5649(13) 0.1951(9) 0.3860(10)
C2 C 0.6694(12) -0.0407(10) 0.3455(10)
C3 C 0.0462(10) 0.2302(8) 0.3778(7)
C4 C -0.0002(10) 0.3200(9) 0.4629(8)
C5 C 0.1267(11) 0.3378(8) 0.5560(7)
C6 C 0.2746(9) 0.4092(8) 0.5252(6)
O4A O 0.2230(8) -0.0391(7) 0.0625(5)
O5C O -0.1120(8) 0.0820(9) 0.0946(6)
U1A U 0.37520(4) 0.58104(3) 0.29911(3)
U1C U 0.62480(4) 0.41896(3) 0.70089(3)
loop_
_geom_bond_atom_site_label_1
_geom_bond_atom_site_label_2
_geom_bond_site_symmetry_1
_geom_bond_site_symmetry_2
U1 O1 1_555 1_555
S1 O1 1_555 1_555
O2 U1 1_555 1_555
O3 U1 1_555 1_555
O4 C6 1_555 1_555
O5 C6 1_555 1_555
O6 U1 1_555 1_555
O7 U1 1_555 1_555
C1 S1 1_555 1_555
C2 S1 1_555 1_555
C3 O2 1_555 1_555
C4 C3 1_555 1_555
C5 C4 1_555 1_555
C6 C5 1_555 1_555
O4A U1 1_555 1_555
O5C U1 1_555 1_555
U1A O4 1_555 1_555
U1C O5 1_555 1_555
O3 C3 1_555 1_555

#END
