
#######################################################################
#
#                 Cambridge Crystallographic Data Centre
#                                CCDC 
#
#######################################################################
#
# If this CIF has been generated from an entry in the Cambridge 
# Structural Database, then it will include bibliographic, chemical, 
# crystal, experimental, refinement or atomic coordinate data resulting 
# from the CCDC's data processing and validation procedures.
#
#######################################################################

data_DEMHUZ
_symmetry_cell_setting           orthorhombic
_symmetry_space_group_name_H-M   'P n a 21'
_symmetry_Int_Tables_number      33
_space_group_name_Hall           'P 2c -2n'
loop_
_symmetry_equiv_pos_site_id
_symmetry_equiv_pos_as_xyz
1 x,y,z
2 -x,-y,1/2+z
3 1/2-x,1/2+y,1/2+z
4 1/2+x,1/2-y,z
_cell_length_a                   15.8744(12)
_cell_length_b                   7.8637(10)
_cell_length_c                   16.562(2)
_cell_angle_alpha                90
_cell_angle_beta                 90
_cell_angle_gamma                90
_cell_volume                     2067.46
loop_
_atom_site_label
_atom_site_type_symbol
_atom_site_fract_x
_atom_site_fract_y
_atom_site_fract_z
Cr1 Cr -0.320664(13) 0.99136(3) -0.406533(13)
K1 K -0.332281(18) 0.51318(4) -0.370222(15)
Cl1 Cl -0.27020(2) 0.87280(5) -0.29566(2)
O1 O -0.24374(6) 0.42156(14) -0.22905(6)
O2 O -0.42520(6) 0.41285(13) -0.23302(6)
O3 O -0.51081(6) 0.52176(13) -0.37710(6)
O4 O -0.40578(6) 0.45712(14) -0.51630(6)
O5 O -0.23117(6) 0.53318(13) -0.50929(6)
O6 O -0.15244(6) 0.49638(13) -0.35528(5)
O7 O -0.38595(7) 0.85769(15) -0.44456(7)
O8 O -0.24429(7) 1.02899(18) -0.46756(7)
O9 O -0.36707(8) 1.16465(15) -0.38117(7)
C1 C -0.11703(9) 0.53426(17) -0.28163(8)
C2 C -0.03812(9) 0.60547(18) -0.27131(9)
H1 H -0.0052 0.6355 -0.317
C3 C -0.00687(10) 0.6332(2) -0.19360(9)
H2 H 0.0475 0.6815 -0.1866
C4 C -0.05440(10) 0.5911(2) -0.12719(10)
H3 H -0.0326 0.6097 -0.0745
C5 C -0.13414(10) 0.52155(19) -0.13688(8)
H4 H -0.167 0.4941 -0.0907
C6 C -0.16612(9) 0.49187(18) -0.21352(8)
C7 C -0.29581(9) 0.3869(2) -0.15989(8)
H5 H -0.3112 0.4946 -0.1326
H6 H -0.2649 0.3146 -0.1209
C8 C -0.37373(9) 0.2972(2) -0.18846(9)
H7 H -0.3579 0.1998 -0.2232
H8 H -0.4055 0.2529 -0.1415
C9 C -0.50002(9) 0.3318(2) -0.26089(9)
H9 H -0.5323 0.286 -0.2146
H10 H -0.4855 0.2361 -0.2972
C10 C -0.55208(9) 0.46070(19) -0.30552(10)
H11 H -0.6066 0.4088 -0.3207
H12 H -0.5639 0.558 -0.2693
C11 C -0.53649(10) 0.4332(2) -0.44816(10)
H13 H -0.5982 0.4443 -0.4554
H14 H -0.5228 0.3109 -0.4429
C12 C -0.49173(9) 0.5065(2) -0.52007(9)
H15 H -0.5176 0.4637 -0.5705
H16 H -0.4963 0.6321 -0.5196
C13 C -0.35902(10) 0.5134(2) -0.58458(8)
H17 H -0.3593 0.6392 -0.5873
H18 H -0.3845 0.4686 -0.6348
C14 C -0.27074(10) 0.4497(2) -0.57608(8)
H19 H -0.2712 0.3253 -0.567
H20 H -0.2388 0.473 -0.6262
C15 C -0.14798(9) 0.4713(2) -0.49822(9)
H21 H -0.1139 0.496 -0.5469
H22 H -0.1494 0.3464 -0.4905
C16 C -0.10823(9) 0.5539(2) -0.42582(8)
H23 H -0.048 0.5221 -0.4223
H24 H -0.1121 0.6792 -0.4303
K1_2 K -0.332281(18) 1.51318(4) -0.370222(15)
O9_2 O -0.36707(8) 0.16465(15) -0.38117(7)
loop_
_geom_bond_atom_site_label_1
_geom_bond_atom_site_label_2
_geom_bond_site_symmetry_1
_geom_bond_site_symmetry_2
Cr1 Cl1 1_555 1_555
K1 Cl1 1_555 1_555
O1 K1 1_555 1_555
O2 K1 1_555 1_555
O3 K1 1_555 1_555
O4 K1 1_555 1_555
O5 K1 1_555 1_555
O6 K1 1_555 1_555
O7 Cr1 1_555 1_555
O8 Cr1 1_555 1_555
O9 Cr1 1_555 1_555
C1 O6 1_555 1_555
C2 C1 1_555 1_555
H1 C2 1_555 1_555
C3 C2 1_555 1_555
H2 C3 1_555 1_555
C4 C3 1_555 1_555
H3 C4 1_555 1_555
C5 C4 1_555 1_555
H4 C5 1_555 1_555
C6 O1 1_555 1_555
C7 O1 1_555 1_555
H5 C7 1_555 1_555
H6 C7 1_555 1_555
C8 O2 1_555 1_555
H7 C8 1_555 1_555
H8 C8 1_555 1_555
C9 O2 1_555 1_555
H9 C9 1_555 1_555
H10 C9 1_555 1_555
C10 O3 1_555 1_555
H11 C10 1_555 1_555
H12 C10 1_555 1_555
C11 O3 1_555 1_555
H13 C11 1_555 1_555
H14 C11 1_555 1_555
C12 O4 1_555 1_555
H15 C12 1_555 1_555
H16 C12 1_555 1_555
C13 O4 1_555 1_555
H17 C13 1_555 1_555
H18 C13 1_555 1_555
C14 O5 1_555 1_555
H19 C14 1_555 1_555
H20 C14 1_555 1_555
C15 O5 1_555 1_555
H21 C15 1_555 1_555
H22 C15 1_555 1_555
C16 O6 1_555 1_555
H23 C16 1_555 1_555
H24 C16 1_555 1_555
K1_2 O9 1_555 1_555
O9_2 K1 1_555 1_555
K1 O7 1_555 1_555
C1 C6 1_555 1_555
C5 C6 1_555 1_555
C7 C8 1_555 1_555
C9 C10 1_555 1_555
C11 C12 1_555 1_555
C13 C14 1_555 1_555
C15 C16 1_555 1_555

#END
