
#######################################################################
#
#                 Cambridge Crystallographic Data Centre
#                                CCDC 
#
#######################################################################
#
# If this CIF has been generated from an entry in the Cambridge 
# Structural Database, then it will include bibliographic, chemical, 
# crystal, experimental, refinement or atomic coordinate data resulting 
# from the CCDC's data processing and validation procedures.
#
#######################################################################

data_DEMKAI
_symmetry_cell_setting           triclinic
_symmetry_space_group_name_H-M   'P -1'
_symmetry_Int_Tables_number      2
_space_group_name_Hall           '-P 1'
loop_
_symmetry_equiv_pos_site_id
_symmetry_equiv_pos_as_xyz
1 x,y,z
2 -x,-y,-z
_cell_length_a                   8.855(2)
_cell_length_b                   9.723(3)
_cell_length_c                   10.427(3)
_cell_angle_alpha                84.179(10)
_cell_angle_beta                 75.926(10)
_cell_angle_gamma                64.305(8)
_cell_volume                     784.671
loop_
_atom_site_label
_atom_site_type_symbol
_atom_site_fract_x
_atom_site_fract_y
_atom_site_fract_z
Cu1 Cu 0.42598(9) 0.61488(7) 0.61529(5)
C1 C 0.4665(5) 0.8450(5) 0.4328(4)
H1 H 0.5782 0.8172 0.4413
C2 C 0.2251(5) 0.9638(5) 0.3706(4)
H2 H 0.1390 1.0321 0.3297
C3 C 0.2175(5) 0.8497(5) 0.4516(4)
H3 H 0.1240 0.8251 0.4766
C4 C 0.4483(7) 1.0624(6) 0.2778(4)
H4 H 0.5564 1.0471 0.2970
H5 H 0.3672 1.1675 0.2988
C5 C 0.4755(5) 1.0324(5) 0.1317(4)
C6 C 0.6243(5) 0.9154(5) 0.0679(4)
H6 H 0.7092 0.8576 0.1139
C7 C 0.3513(5) 1.1168(5) 0.0628(4)
H7 H 0.2504 1.1961 0.1047
C8 C 0.6871(5) 0.4635(5) 0.7677(4)
H8 H 0.7572 0.5090 0.7213
C9 C 0.5922(5) 0.3229(5) 0.9084(4)
H9 H 0.5816 0.2555 0.9762
C10 C 0.4816(5) 0.3962(5) 0.8306(4)
H10 H 0.3800 0.3871 0.8358
C11 C 0.8721(6) 0.3207(5) 0.9292(6)
H11 H 0.8384 0.3815 1.0080
H12 H 0.9627 0.3396 0.8678
C12 C 0.9386(5) 0.1543(4) 0.9650(4)
C13 C 0.9151(5) 0.1100(5) 1.0963(4)
H13 H 0.8566 0.1841 1.1624
C14 C 1.0234(5) 0.0408(5) 0.8698(4)
H14 H 1.0391 0.0676 0.7810
N1 N 0.3694(4) 0.7752(4) 0.4917(3)
N2 N 0.3831(4) 0.9606(4) 0.3594(3)
N3 N 0.5391(4) 0.4863(4) 0.7425(3)
N4 N 0.7239(4) 0.3666(4) 0.8686(3)
Br1 Br 0.09836(6) 0.58434(6) 0.69026(5)
Cu1A Cu 0.57402(9) 1.38512(7) -0.61529(5)
Cu1A_2 Cu 1.57402(9) -0.61488(7) 1.38471(5)
C1A C 0.5335(5) 1.1550(5) -0.4328(4)
H1A H 0.4218 1.1828 -0.4413
C2A C 0.7749(5) 1.0362(5) -0.3706(4)
H2A H 0.8610 0.9679 -0.3297
C3A C 0.7825(5) 1.1503(5) -0.4516(4)
H3A H 0.8760 1.1749 -0.4766
C4A C 0.5517(7) 0.9376(6) -0.2778(4)
H4A H 0.4436 0.9529 -0.2970
H5A H 0.6328 0.8325 -0.2988
C5A C 0.5245(5) 0.9676(5) -0.1317(4)
C6A C 0.3757(5) 1.0846(5) -0.0679(4)
H6A H 0.2908 1.1424 -0.1139
C7A C 0.6487(5) 0.8832(5) -0.0628(4)
H7A H 0.7496 0.8039 -0.1047
C8A C 1.3129(5) -0.4635(5) 1.2323(4)
H8A H 1.2428 -0.5090 1.2787
C9A C 1.4078(5) -0.3229(5) 1.0916(4)
H9A H 1.4184 -0.2555 1.0238
C10A C 1.5184(5) -0.3962(5) 1.1694(4)
H10A H 1.6200 -0.3871 1.1642
C11A C 1.1279(6) -0.3207(5) 1.0708(6)
H11A H 1.1616 -0.3815 0.9920
H12A H 1.0373 -0.3396 1.1322
C12A C 1.0614(5) -0.1543(4) 1.0350(4)
C13A C 1.0849(5) -0.1100(5) 0.9037(4)
H13A H 1.1434 -0.1841 0.8376
C14A C 0.9766(5) -0.0408(5) 1.1302(4)
H14A H 0.9609 -0.0676 1.2190
N1A N 0.6306(4) 1.2248(4) -0.4917(3)
N2A N 0.6169(4) 1.0394(4) -0.3594(3)
N3A N 1.4609(4) -0.4863(4) 1.2575(3)
N3A_2 N 0.4609(4) 1.5137(4) -0.7425(3)
N4A N 1.2761(4) -0.3666(4) 1.1314(3)
Br1A Br 0.90164(6) 1.41566(6) -0.69026(5)
O1 O 0.8697(5) 0.7230(4) 0.4462(5)
loop_
_geom_bond_atom_site_label_1
_geom_bond_atom_site_label_2
_geom_bond_site_symmetry_1
_geom_bond_site_symmetry_2
Cu1 N1 1_555 1_555
C1 H1 1_555 1_555
C2 H2 1_555 1_555
C3 C2 1_555 1_555
H3 C3 1_555 1_555
C4 H4 1_555 1_555
H5 C4 1_555 1_555
C5 C4 1_555 1_555
C6 C5 1_555 1_555
H6 C6 1_555 1_555
C7 C5 1_555 1_555
H7 C7 1_555 1_555
C8 H8 1_555 1_555
C9 H9 1_555 1_555
C10 C9 1_555 1_555
H10 C10 1_555 1_555
C11 H11 1_555 1_555
H12 C11 1_555 1_555
C12 C11 1_555 1_555
C13 C12 1_555 1_555
H13 C13 1_555 1_555
C14 C12 1_555 1_555
H14 C14 1_555 1_555
N1 C1 1_555 1_555
N2 C1 1_555 1_555
N3 Cu1 1_555 1_555
N4 C8 1_555 1_555
Br1 Cu1 1_555 1_555
Cu1A N1A 1_555 1_555
Cu1A_2 N3A 1_555 1_555
C1A H1A 1_555 1_555
C2A H2A 1_555 1_555
C3A C2A 1_555 1_555
H3A C3A 1_555 1_555
C4A H4A 1_555 1_555
H5A C4A 1_555 1_555
C5A C4A 1_555 1_555
C6A C7 1_555 1_555
H6A C6A 1_555 1_555
C7A C6 1_555 1_555
H7A C7A 1_555 1_555
C8A H8A 1_555 1_555
C9A H9A 1_555 1_555
C10A C9A 1_555 1_555
H10A C10A 1_555 1_555
C11A H11A 1_555 1_555
H12A C11A 1_555 1_555
C12A C11A 1_555 1_555
C13A C14 1_555 1_555
H13A C13A 1_555 1_555
C14A C13 1_555 1_555
H14A C14A 1_555 1_555
N1A C1A 1_555 1_555
N2A C1A 1_555 1_555
N3A C8A 1_555 1_555
N3A_2 Cu1A 1_555 1_555
N4A C8A 1_555 1_555
Br1A Cu1A 1_555 1_555
C2 N2 1_555 1_555
C3 N1 1_555 1_555
C4 N2 1_555 1_555
C8 N3 1_555 1_555
C9 N4 1_555 1_555
C10 N3 1_555 1_555
C11 N4 1_555 1_555
C2A N2A 1_555 1_555
C3A N1A 1_555 1_555
C4A N2A 1_555 1_555
C5A C6A 1_555 1_555
C5A C7A 1_555 1_555
C9A N4A 1_555 1_555
C10A N3A 1_555 1_555
C11A N4A 1_555 1_555
C12A C13A 1_555 1_555
C12A C14A 1_555 1_555

#END
