
#######################################################################
#
#                 Cambridge Crystallographic Data Centre
#                                CCDC 
#
#######################################################################
#
# If this CIF has been generated from an entry in the Cambridge 
# Structural Database, then it will include bibliographic, chemical, 
# crystal, experimental, refinement or atomic coordinate data resulting 
# from the CCDC's data processing and validation procedures.
#
#######################################################################

data_DEMNOZ
_symmetry_cell_setting           monoclinic
_symmetry_space_group_name_H-M   'P 21/c'
_symmetry_Int_Tables_number      14
_space_group_name_Hall           '-P 2ybc'
loop_
_symmetry_equiv_pos_site_id
_symmetry_equiv_pos_as_xyz
1 x,y,z
2 -x,1/2+y,1/2-z
3 -x,-y,-z
4 x,1/2-y,1/2+z
_cell_length_a                   12.691(4)
_cell_length_b                   18.433(5)
_cell_length_c                   6.358(2)
_cell_angle_alpha                90
_cell_angle_beta                 97.491(4)
_cell_angle_gamma                90
_cell_volume                     1474.65
loop_
_atom_site_label
_atom_site_type_symbol
_atom_site_fract_x
_atom_site_fract_y
_atom_site_fract_z
K1 K 0.14552(6) 0.51896(5) 0.22492(13)
S1 S 0.16181(7) 0.42770(6) -0.22826(15)
O1 O 0.2486(2) 0.46528(16) -0.1074(4)
O2 O 0.0593(2) 0.44716(18) -0.1688(5)
O3 O 0.1658(2) 0.42254(17) -0.4529(4)
C1 C 0.1781(3) 0.3353(3) -0.1368(7)
F1 F 0.2679(2) 0.30566(15) -0.1860(5)
F2 F 0.0978(2) 0.29343(15) -0.2168(5)
F3 F 0.1830(3) 0.33318(18) 0.0755(4)
N1 N 0.3459(2) 0.57480(18) 0.3580(5)
C2 C 0.3681(3) 0.6122(2) 0.5433(6)
C3 C 0.4718(3) 0.6309(2) 0.6322(6)
C4 C 0.5564(3) 0.6097(3) 0.5185(7)
C5 C 0.5341(3) 0.5723(3) 0.3349(7)
C6 C 0.4286(3) 0.5559(2) 0.2602(7)
C7 C 0.4907(3) 0.6688(2) 0.8279(7)
N2 N 0.1789(2) 0.61779(18) 0.5634(5)
C8 C 0.2794(3) 0.6334(2) 0.6554(6)
C9 C 0.3012(3) 0.6688(2) 0.8513(6)
C10 C 0.2131(3) 0.6866(2) 0.9582(7)
C11 C 0.1126(3) 0.6708(2) 0.8673(7)
C12 C 0.0986(3) 0.6366(2) 0.6682(7)
C13 C 0.4076(3) 0.6867(2) 0.9357(7)
H1 H 0.628(3) 0.622(2) 0.578(6)
H2 H 0.588(4) 0.550(3) 0.264(8)
H3 H 0.407(3) 0.527(2) 0.126(6)
H4 H 0.565(3) 0.681(2) 0.890(7)
H5 H 0.228(3) 0.7095(18) 1.077(6)
H6 H 0.053(4) 0.685(3) 0.942(7)
H7 H 0.028(3) 0.625(2) 0.599(6)
H8 H 0.421(3) 0.714(2) 1.073(6)
K1B K -0.14552(6) 0.48104(5) -0.22492(13)
K1_2 K 0.14552(6) 0.51896(5) -0.77508(13)
O2B O -0.0593(2) 0.55284(18) 0.1688(5)
O3_2 O 0.1658(2) 0.42254(17) 0.5471(4)
loop_
_geom_bond_atom_site_label_1
_geom_bond_atom_site_label_2
_geom_bond_site_symmetry_1
_geom_bond_site_symmetry_2
K1 O1 1_555 1_555
S1 O1 1_555 1_555
O2 K1 1_555 1_555
O3 S1 1_555 1_555
C1 S1 1_555 1_555
F1 C1 1_555 1_555
F2 C1 1_555 1_555
F3 C1 1_555 1_555
N1 K1 1_555 1_555
C2 N1 1_555 1_555
C3 C2 1_555 1_555
C4 C3 1_555 1_555
C5 C4 1_555 1_555
C6 N1 1_555 1_555
C7 C3 1_555 1_555
N2 K1 1_555 1_555
C8 C2 1_555 1_555
C9 C8 1_555 1_555
C10 C9 1_555 1_555
C11 C10 1_555 1_555
C12 N2 1_555 1_555
C13 C7 1_555 1_555
H1 C4 1_555 1_555
H2 C5 1_555 1_555
H3 C6 1_555 1_555
H4 C7 1_555 1_555
H5 C10 1_555 1_555
H6 C11 1_555 1_555
H7 C12 1_555 1_555
H8 C13 1_555 1_555
K1B O2 1_555 1_555
K1_2 O3 1_555 1_555
O2B K1 1_555 1_555
O3_2 K1 1_555 1_555
S1 O2 1_555 1_555
C5 C6 1_555 1_555
N2 C8 1_555 1_555
C9 C13 1_555 1_555
C11 C12 1_555 1_555
K1B O2B 1_555 1_555

#END
