
#######################################################################
#
#                 Cambridge Crystallographic Data Centre
#                                CCDC 
#
#######################################################################
#
# If this CIF has been generated from an entry in the Cambridge 
# Structural Database, then it will include bibliographic, chemical, 
# crystal, experimental, refinement or atomic coordinate data resulting 
# from the CCDC's data processing and validation procedures.
#
#######################################################################

data_DEMNAL
_symmetry_cell_setting           triclinic
_symmetry_space_group_name_H-M   'P -1'
_symmetry_Int_Tables_number      2
_space_group_name_Hall           '-P 1'
loop_
_symmetry_equiv_pos_site_id
_symmetry_equiv_pos_as_xyz
1 x,y,z
2 -x,-y,-z
_cell_length_a                   6.8916(4)
_cell_length_b                   10.3749(6)
_cell_length_c                   10.9766(6)
_cell_angle_alpha                82.1000(10)
_cell_angle_beta                 88.3440(10)
_cell_angle_gamma                86.3540(10)
_cell_volume                     775.64
loop_
_atom_site_label
_atom_site_type_symbol
_atom_site_fract_x
_atom_site_fract_y
_atom_site_fract_z
K1 K 0.19903(3) 0.81414(2) 0.118401(19)
P1 P -0.26199(4) 0.96856(2) 0.17931(2)
F1 F -0.18738(11) 0.94384(7) 0.04310(6)
F2 F -0.33269(13) 1.11389(7) 0.12524(8)
F3 F -0.33352(13) 0.99161(8) 0.31334(7)
F4 F -0.18573(13) 0.82143(7) 0.22854(7)
F5 F -0.05115(11) 1.01655(8) 0.20284(8)
F6 F -0.46888(12) 0.91825(9) 0.15295(8)
N1 N 0.24422(11) 0.53994(7) 0.12832(7)
C1 C 0.25002(13) 0.46058(8) 0.23849(8)
C2 C 0.26011(14) 0.32285(9) 0.24639(9)
C3 C 0.26439(15) 0.26820(9) 0.13552(10)
C4 C 0.26060(15) 0.34854(10) 0.02559(10)
C5 C 0.24992(13) 0.48513(9) 0.02527(8)
C6 C 0.24528(16) 0.57284(10) -0.09550(9)
C7 C 0.26679(16) 0.24236(9) 0.36356(10)
N2 N 0.23868(12) 0.65128(7) 0.34541(7)
C8 C 0.24684(12) 0.51872(8) 0.35200(8)
C9 C 0.25340(13) 0.43527(9) 0.46547(8)
C10 C 0.25067(16) 0.49396(11) 0.57425(9)
C11 C 0.24232(16) 0.62683(11) 0.56676(9)
C12 C 0.23650(14) 0.70353(9) 0.44972(8)
C13 C 0.22727(18) 0.84972(10) 0.44013(10)
C14 C 0.26343(16) 0.29664(10) 0.46898(10)
H1 H 0.27053 0.17593 0.13713
H2 H 0.26495 0.31299 -0.05021
H3 H 0.14121 0.55227 -0.14290
H4 H 0.22704 0.66045 -0.07966
H5 H 0.36653 0.56095 -0.13722
H6 H 0.27384 0.14976 0.36695
H7 H 0.25485 0.44100 0.65237
H8 H 0.24002 0.66775 0.63961
H9 H 0.09822 0.88566 0.41458
H10 H 0.25355 0.87413 0.51798
H11 H 0.32138 0.88303 0.38124
H12 H 0.26795 0.24198 0.54628
K1A K -0.19903(3) 1.18586(2) -0.118401(19)
K1_2 K -0.80097(3) 0.81414(2) 0.118401(19)
F1A F 0.18738(11) 1.05616(7) -0.04310(6)
F2A F 0.33269(13) 0.88611(7) -0.12524(8)
F6_2 F 0.53112(12) 0.91825(9) 0.15295(8)
loop_
_geom_bond_atom_site_label_1
_geom_bond_atom_site_label_2
_geom_bond_site_symmetry_1
_geom_bond_site_symmetry_2
K1 F1 1_555 1_555
P1 F1 1_555 1_555
F1 K1A 1_555 1_555
F2 P1 1_555 1_555
F3 P1 1_555 1_555
F4 K1 1_555 1_555
F5 K1 1_555 1_555
F6 P1 1_555 1_555
N1 K1 1_555 1_555
C1 N1 1_555 1_555
C2 C1 1_555 1_555
C3 C2 1_555 1_555
C4 C3 1_555 1_555
C5 N1 1_555 1_555
C6 C5 1_555 1_555
C7 C2 1_555 1_555
N2 K1 1_555 1_555
C8 C1 1_555 1_555
C9 C8 1_555 1_555
C10 C9 1_555 1_555
C11 C10 1_555 1_555
C12 N2 1_555 1_555
C13 C12 1_555 1_555
C14 C7 1_555 1_555
H1 C3 1_555 1_555
H2 C4 1_555 1_555
H3 C6 1_555 1_555
H4 C6 1_555 1_555
H5 C6 1_555 1_555
H6 C7 1_555 1_555
H7 C10 1_555 1_555
H8 C11 1_555 1_555
H9 C13 1_555 1_555
H10 C13 1_555 1_555
H11 C13 1_555 1_555
H12 C14 1_555 1_555
K1A F2 1_555 1_555
K1_2 F6 1_555 1_555
F1A K1 1_555 1_555
F2A K1 1_555 1_555
F6_2 K1 1_555 1_555
P1 F4 1_555 1_555
P1 F5 1_555 1_555
C4 C5 1_555 1_555
N2 C8 1_555 1_555
C9 C14 1_555 1_555
C11 C12 1_555 1_555
K1A F1A 1_555 1_555

#END
