
#######################################################################
#
#                 Cambridge Crystallographic Data Centre
#                                CCDC 
#
#######################################################################
#
# If this CIF has been generated from an entry in the Cambridge 
# Structural Database, then it will include bibliographic, chemical, 
# crystal, experimental, refinement or atomic coordinate data resulting 
# from the CCDC's data processing and validation procedures.
#
#######################################################################

data_DEMNEP
_symmetry_cell_setting           monoclinic
_symmetry_space_group_name_H-M   'C 2/c'
_symmetry_Int_Tables_number      15
_space_group_name_Hall           '-C 2yn'
loop_
_symmetry_equiv_pos_site_id
_symmetry_equiv_pos_as_xyz
1 x,y,z
2 1/2+x,1/2+y,z
3 -x,y,1/2-z
4 1/2-x,1/2+y,1/2-z
5 -x,-y,-z
6 1/2-x,1/2-y,-z
7 x,-y,1/2+z
8 1/2+x,1/2-y,1/2+z
_cell_length_a                   23.4291(8)
_cell_length_b                   12.7995(4)
_cell_length_c                   20.2549(7)
_cell_angle_alpha                90
_cell_angle_beta                 114.1050(10)
_cell_angle_gamma                90
_cell_volume                     5544.39
loop_
_atom_site_label
_atom_site_type_symbol
_atom_site_fract_x
_atom_site_fract_y
_atom_site_fract_z
K1 K 0.513048(15) 0.14369(3) 0.458446(18)
K2 K 0.50000 0.28098(3) 0.75000
K3 K 0.50000 0.01146(4) 0.75000
S1 S 0.592076(17) 0.08958(3) 0.66927(2)
O1 O 0.58402(6) 0.14427(10) 0.60424(6)
O2 O 0.56294(5) -0.01224(9) 0.65912(7)
O3 O 0.58316(5) 0.15193(9) 0.72375(6)
C1 C 0.67546(8) 0.06004(15) 0.71019(10)
F1 F 0.69089(6) 0.00602(12) 0.77127(7)
F2 F 0.69253(5) 0.00367(10) 0.66631(7)
F3 F 0.70908(5) 0.14723(10) 0.72536(8)
S2 S 0.411848(17) 0.07243(3) 0.57515(2)
O4 O 0.43852(5) 0.15354(9) 0.62841(6)
O5 O 0.41457(5) -0.03052(9) 0.60591(6)
O6 O 0.42873(5) 0.07535(10) 0.51444(6)
C2 C 0.32842(7) 0.10257(13) 0.53532(9)
F4 F 0.29639(5) 0.03191(8) 0.48600(6)
F5 F 0.31733(5) 0.19598(8) 0.50273(6)
F6 F 0.30568(5) 0.10467(10) 0.58560(6)
N1 N 0.45904(6) 0.33901(10) 0.39677(7)
C3 C 0.49285(7) 0.42919(12) 0.41375(8)
C4 C 0.46460(7) 0.52860(12) 0.39388(8)
C5 C 0.39943(8) 0.53213(14) 0.35512(9)
C6 C 0.36611(8) 0.44145(14) 0.33826(9)
C7 C 0.39746(7) 0.34529(13) 0.36006(9)
C8 C 0.50160(8) 0.62186(12) 0.41331(9)
C9 C 0.36159(10) 0.24427(17) 0.34269(14)
N2 N 0.58797(6) 0.32822(10) 0.47308(7)
C10 C 0.56033(7) 0.42350(12) 0.45425(8)
C11 C 0.59475(7) 0.51751(12) 0.47256(8)
C12 C 0.65974(8) 0.51048(14) 0.51266(9)
C13 C 0.68716(7) 0.41434(14) 0.53141(9)
C14 C 0.64965(7) 0.32419(12) 0.51002(9)
C15 C 0.67891(8) 0.21781(15) 0.52784(12)
C16 C 0.56391(8) 0.61641(13) 0.45123(9)
N3 N 0.43536(6) 0.46956(10) 0.71292(7)
C17 C 0.46632(7) 0.56240(11) 0.73009(8)
C18 C 0.43463(8) 0.65887(12) 0.71034(9)
C19 C 0.36946(8) 0.65706(13) 0.67099(10)
C20 C 0.33889(8) 0.56372(13) 0.65421(9)
C21 C 0.37367(7) 0.47046(12) 0.67648(8)
C22 C 0.34085(9) 0.36660(14) 0.65933(11)
C23 C 0.46889(9) 0.75454(14) 0.73037(14)
H1 H 0.3800(9) 0.5974(16) 0.3417(11)
H2 H 0.3229(9) 0.4421(15) 0.3138(11)
H3 H 0.3210(15) 0.257(2) 0.3173(16)
H4 H 0.3804(12) 0.195(2) 0.3197(14)
H5 H 0.3638(14) 0.216(2) 0.3842(17)
H6 H 0.4806(9) 0.6878(16) 0.3992(11)
H7 H 0.5886(9) 0.6750(16) 0.4634(10)
H8 H 0.6846(10) 0.5752(17) 0.5242(11)
H9 H 0.7316(9) 0.4047(15) 0.5602(11)
H10 H 0.6671(12) 0.180(2) 0.5607(15)
H11 H 0.7211(12) 0.2193(18) 0.5432(13)
H12 H 0.6651(12) 0.174(2) 0.4834(15)
H13 H 0.3465(9) 0.7242(16) 0.6562(11)
H14 H 0.2960(9) 0.5599(14) 0.6289(10)
H15 H 0.2979(16) 0.372(2) 0.6425(17)
H16 H 0.3509(12) 0.324(2) 0.6990(14)
H17 H 0.3503(15) 0.329(3) 0.6279(18)
H18 H 0.4442(12) 0.818(2) 0.7159(14)
K1B K 0.486952(15) 0.14369(3) 1.041554(18)
K1D K 0.486952(15) -0.14369(3) 0.541554(18)
K1F K 0.513048(15) -0.14369(3) 0.958446(18)
S1B S 0.407924(17) 0.08958(3) 0.83073(2)
O1B O 0.41598(6) 0.14427(10) 0.89576(6)
O2B O 0.43706(5) -0.01224(9) 0.84088(7)
O2D O 0.43706(5) 0.01224(9) 0.34088(7)
O2F O 0.56294(5) 0.01224(9) 1.15912(7)
O3B O 0.41684(5) 0.15193(9) 0.77625(6)
C1B C 0.32454(8) 0.06004(15) 0.78981(10)
F1B F 0.30911(6) 0.00602(12) 0.72873(7)
F2B F 0.30747(5) 0.00367(10) 0.83369(7)
F3B F 0.29092(5) 0.14723(10) 0.77464(8)
S2B S 0.588152(17) 0.07243(3) 0.92485(2)
O4B O 0.56148(5) 0.15354(9) 0.87159(6)
O5B O 0.58543(5) -0.03052(9) 0.89409(6)
O5D O 0.58543(5) 0.03052(9) 0.39409(6)
O5F O 0.41457(5) 0.03052(9) 1.10591(6)
O6B O 0.57127(5) 0.07535(10) 0.98556(6)
O6D O 0.57127(5) -0.07535(10) 0.48556(6)
O6F O 0.42873(5) -0.07535(10) 1.01444(6)
C2B C 0.67158(7) 0.10257(13) 0.96468(9)
F4B F 0.70361(5) 0.03191(8) 1.01400(6)
F5B F 0.68267(5) 0.19598(8) 0.99727(6)
F6B F 0.69432(5) 0.10467(10) 0.91440(6)
N1B N 0.54096(6) 0.33901(10) 1.10323(7)
C3B C 0.50715(7) 0.42919(12) 1.08625(8)
C4B C 0.53540(7) 0.52860(12) 1.10612(8)
C5B C 0.60057(8) 0.53213(14) 1.14488(9)
C6B C 0.63389(8) 0.44145(14) 1.16174(9)
C7B C 0.60254(7) 0.34529(13) 1.13994(9)
C8B C 0.49840(8) 0.62186(12) 1.08669(9)
C9B C 0.63841(10) 0.24427(17) 1.15731(14)
N2B N 0.41203(6) 0.32822(10) 1.02692(7)
C10B C 0.43967(7) 0.42350(12) 1.04575(8)
C11B C 0.40525(7) 0.51751(12) 1.02744(8)
C12B C 0.34026(8) 0.51048(14) 0.98734(9)
C13B C 0.31284(7) 0.41434(14) 0.96859(9)
C14B C 0.35035(7) 0.32419(12) 0.98998(9)
C15B C 0.32109(8) 0.21781(15) 0.97216(12)
C16B C 0.43609(8) 0.61641(13) 1.04877(9)
N3B N 0.56464(6) 0.46956(10) 0.78708(7)
C17B C 0.53368(7) 0.56240(11) 0.76991(8)
C18B C 0.56537(8) 0.65887(12) 0.78966(9)
C19B C 0.63054(8) 0.65706(13) 0.82901(10)
C20B C 0.66111(8) 0.56372(13) 0.84579(9)
C21B C 0.62633(7) 0.47046(12) 0.82352(8)
C22B C 0.65915(9) 0.36660(14) 0.84067(11)
C23B C 0.53111(9) 0.75454(14) 0.76963(14)
H1B H 0.6200(9) 0.5974(16) 1.1583(11)
H2B H 0.6771(9) 0.4421(15) 1.1862(11)
H3B H 0.6790(15) 0.257(2) 1.1827(16)
H4B H 0.6196(12) 0.195(2) 1.1803(14)
H5B H 0.6362(14) 0.216(2) 1.1158(17)
H6B H 0.5194(9) 0.6878(16) 1.1008(11)
H7B H 0.4114(9) 0.6750(16) 1.0366(10)
H8B H 0.3154(10) 0.5752(17) 0.9758(11)
H9B H 0.2684(9) 0.4047(15) 0.9398(11)
H10B H 0.3329(12) 0.180(2) 0.9393(15)
H11B H 0.2789(12) 0.2193(18) 0.9568(13)
H12B H 0.3349(12) 0.174(2) 1.0166(15)
H13B H 0.6535(9) 0.7242(16) 0.8438(11)
H14B H 0.7040(9) 0.5599(14) 0.8711(10)
H15B H 0.7021(16) 0.372(2) 0.8575(17)
H16B H 0.6491(12) 0.324(2) 0.8010(14)
H17B H 0.6497(15) 0.329(3) 0.8721(18)
H18B H 0.5558(12) 0.818(2) 0.7841(14)
loop_
_geom_bond_atom_site_label_1
_geom_bond_atom_site_label_2
_geom_bond_site_symmetry_1
_geom_bond_site_symmetry_2
K1 O1 1_555 1_555
K2 O3 1_555 1_555
K3 O2 1_555 1_555
S1 O1 1_555 1_555
O2 S1 1_555 1_555
O3 K3 1_555 1_555
C1 S1 1_555 1_555
F1 C1 1_555 1_555
F2 C1 1_555 1_555
F3 C1 1_555 1_555
S2 O4 1_555 1_555
O4 K2 1_555 1_555
O5 K3 1_555 1_555
O6 K1 1_555 1_555
C2 S2 1_555 1_555
F4 C2 1_555 1_555
F5 C2 1_555 1_555
F6 C2 1_555 1_555
N1 K1 1_555 1_555
C3 N1 1_555 1_555
C4 C3 1_555 1_555
C5 C4 1_555 1_555
C6 C5 1_555 1_555
C7 N1 1_555 1_555
C8 C4 1_555 1_555
C9 C7 1_555 1_555
N2 K1 1_555 1_555
C10 C3 1_555 1_555
C11 C10 1_555 1_555
C12 C11 1_555 1_555
C13 C12 1_555 1_555
C14 N2 1_555 1_555
C15 C14 1_555 1_555
C16 C8 1_555 1_555
N3 K2 1_555 1_555
C17 N3 1_555 1_555
C18 C17 1_555 1_555
C19 C18 1_555 1_555
C20 C19 1_555 1_555
C21 N3 1_555 1_555
C22 C21 1_555 1_555
C23 C18 1_555 1_555
H1 C5 1_555 1_555
H2 C6 1_555 1_555
H3 C9 1_555 1_555
H4 C9 1_555 1_555
H5 C9 1_555 1_555
H6 C8 1_555 1_555
H7 C16 1_555 1_555
H8 C12 1_555 1_555
H9 C13 1_555 1_555
H10 C15 1_555 1_555
H11 C15 1_555 1_555
H12 C15 1_555 1_555
H13 C19 1_555 1_555
H14 C20 1_555 1_555
H15 C22 1_555 1_555
H16 C22 1_555 1_555
H17 C22 1_555 1_555
H18 C23 1_555 1_555
K1B O1B 1_555 1_555
K1D O2 1_555 1_555
K1F O2B 1_555 1_555
S1B O1B 1_555 1_555
O2B K3 1_555 1_555
O2D K1 1_555 1_555
O2F K1B 1_555 1_555
O3B K2 1_555 1_555
C1B S1B 1_555 1_555
F1B C1B 1_555 1_555
F2B C1B 1_555 1_555
F3B C1B 1_555 1_555
S2B O4B 1_555 1_555
O4B K2 1_555 1_555
O5B K3 1_555 1_555
O5D K1 1_555 1_555
O5F K1B 1_555 1_555
O6B K1B 1_555 1_555
O6D K1 1_555 1_555
O6F K1B 1_555 1_555
C2B S2B 1_555 1_555
F4B C2B 1_555 1_555
F5B C2B 1_555 1_555
F6B C2B 1_555 1_555
N1B K1B 1_555 1_555
C3B N1B 1_555 1_555
C4B C3B 1_555 1_555
C5B C4B 1_555 1_555
C6B C5B 1_555 1_555
C7B N1B 1_555 1_555
C8B C4B 1_555 1_555
C9B C7B 1_555 1_555
N2B K1B 1_555 1_555
C10B C3B 1_555 1_555
C11B C10B 1_555 1_555
C12B C11B 1_555 1_555
C13B C12B 1_555 1_555
C14B N2B 1_555 1_555
C15B C14B 1_555 1_555
C16B C8B 1_555 1_555
N3B K2 1_555 1_555
C17B C17 1_555 1_555
C18B C17B 1_555 1_555
C19B C18B 1_555 1_555
C20B C19B 1_555 1_555
C21B N3B 1_555 1_555
C22B C21B 1_555 1_555
C23B C23 1_555 1_555
H1B C5B 1_555 1_555
H2B C6B 1_555 1_555
H3B C9B 1_555 1_555
H4B C9B 1_555 1_555
H5B C9B 1_555 1_555
H6B C8B 1_555 1_555
H7B C16B 1_555 1_555
H8B C12B 1_555 1_555
H9B C13B 1_555 1_555
H10B C15B 1_555 1_555
H11B C15B 1_555 1_555
H12B C15B 1_555 1_555
H13B C19B 1_555 1_555
H14B C20B 1_555 1_555
H15B C22B 1_555 1_555
H16B C22B 1_555 1_555
H17B C22B 1_555 1_555
H18B C23B 1_555 1_555
K3 O4 1_555 1_555
K3 O3B 1_555 1_555
K3 O4B 1_555 1_555
S1 O3 1_555 1_555
S2 O5 1_555 1_555
S2 O6 1_555 1_555
O5 K1D 1_555 1_555
O6 K1D 1_555 1_555
C6 C7 1_555 1_555
N2 C10 1_555 1_555
C11 C16 1_555 1_555
C13 C14 1_555 1_555
C20 C21 1_555 1_555
K1D O6D 1_555 1_555
K1F O5B 1_555 1_555
K1F O6B 1_555 1_555
K1F O6F 1_555 1_555
S1B O2B 1_555 1_555
S1B O3B 1_555 1_555
S2B O5B 1_555 1_555
S2B O6B 1_555 1_555
C6B C7B 1_555 1_555
N2B C10B 1_555 1_555
C11B C16B 1_555 1_555
C13B C14B 1_555 1_555
N3B C17B 1_555 1_555
C18B C23B 1_555 1_555
C20B C21B 1_555 1_555

#END
