
#######################################################################
#
#                 Cambridge Crystallographic Data Centre
#                                CCDC 
#
#######################################################################
#
# If this CIF has been generated from an entry in the Cambridge 
# Structural Database, then it will include bibliographic, chemical, 
# crystal, experimental, refinement or atomic coordinate data resulting 
# from the CCDC's data processing and validation procedures.
#
#######################################################################

data_DEMPOB
_symmetry_cell_setting           monoclinic
_symmetry_space_group_name_H-M   'P 21/n'
_symmetry_Int_Tables_number      14
_space_group_name_Hall           '-P 2yn'
loop_
_symmetry_equiv_pos_site_id
_symmetry_equiv_pos_as_xyz
1 x,y,z
2 1/2-x,1/2+y,1/2-z
3 -x,-y,-z
4 1/2+x,1/2-y,1/2+z
_cell_length_a                   10.541(2)
_cell_length_b                   8.386(3)
_cell_length_c                   15.569(4)
_cell_angle_alpha                90
_cell_angle_beta                 93.260(4)
_cell_angle_gamma                90
_cell_volume                     1374.02
loop_
_atom_site_label
_atom_site_type_symbol
_atom_site_fract_x
_atom_site_fract_y
_atom_site_fract_z
N1 N 0.62871(14) 0.74668(18) 0.46076(9)
C1 C 0.50514(18) 0.7336(2) 0.48024(11)
C2 C 0.4583(2) 0.8074(3) 0.55444(13)
C3 C 0.5449(3) 0.8946(3) 0.60711(14)
C4 C 0.6678(3) 0.9046(3) 0.58764(15)
C5 C 0.7083(2) 0.8286(2) 0.51326(13)
C6 C 0.8439(3) 0.8380(4) 0.4915(2)
C7 C 0.3275(3) 0.7913(3) 0.57142(18)
N2 N 0.46595(14) 0.57012(18) 0.35365(10)
C8 C 0.41975(17) 0.6424(2) 0.42398(12)
C9 C 0.29094(19) 0.6297(3) 0.44337(15)
C10 C 0.2117(2) 0.5387(3) 0.38777(19)
C11 C 0.2584(2) 0.4655(3) 0.31855(19)
C12 C 0.38878(18) 0.4837(2) 0.30277(14)
C13 C 0.4451(3) 0.4051(4) 0.22784(19)
C14 C 0.2484(3) 0.7078(3) 0.51919(19)
N3 N 0.63028(14) 0.92267(19) 0.20511(10)
O1 O 0.55672(14) 0.80810(19) 0.20217(11)
O2 O 0.72872(13) 0.91670(18) 0.25411(9)
O3 O 0.61042(13) 1.04212(18) 0.15942(11)
Na1 Na 0.67698(6) 0.65281(9) 0.31716(5)
H1 H 0.510(2) 0.948(3) 0.6595(17)
H2 H 0.731(3) 0.968(4) 0.6235(19)
H3 H 0.865(4) 0.745(5) 0.460(3)
H4 H 0.856(4) 0.928(6) 0.458(3)
H5 H 0.896(4) 0.844(5) 0.543(3)
H6 H 0.302(3) 0.852(3) 0.627(2)
H7 H 0.125(3) 0.527(3) 0.3990(16)
H8 H 0.216(2) 0.401(3) 0.2780(14)
H9 H 0.462(3) 0.484(4) 0.186(2)
H10 H 0.386(3) 0.331(4) 0.2034(19)
H11 H 0.524(3) 0.349(4) 0.244(2)
H12 H 0.168(3) 0.695(3) 0.5261(17)
O2A O 0.77128(13) 0.41670(18) 0.24589(9)
O3A O 0.88958(13) 0.54212(18) 0.34058(11)
Na1A Na 0.82302(6) 1.15281(9) 0.18284(5)
loop_
_geom_bond_atom_site_label_1
_geom_bond_atom_site_label_2
_geom_bond_site_symmetry_1
_geom_bond_site_symmetry_2
N1 C1 1_555 1_555
C1 C2 1_555 1_555
C2 C3 1_555 1_555
C3 C4 1_555 1_555
C4 C5 1_555 1_555
C5 N1 1_555 1_555
C6 C5 1_555 1_555
C7 C2 1_555 1_555
N2 C8 1_555 1_555
C8 C1 1_555 1_555
C9 C8 1_555 1_555
C10 C9 1_555 1_555
C11 C10 1_555 1_555
C12 N2 1_555 1_555
C13 C12 1_555 1_555
C14 C7 1_555 1_555
N3 O1 1_555 1_555
O1 Na1 1_555 1_555
O2 N3 1_555 1_555
O3 N3 1_555 1_555
Na1 N1 1_555 1_555
H1 C3 1_555 1_555
H2 C4 1_555 1_555
H3 C6 1_555 1_555
H4 C6 1_555 1_555
H5 C6 1_555 1_555
H6 C7 1_555 1_555
H7 C10 1_555 1_555
H8 C11 1_555 1_555
H9 C13 1_555 1_555
H10 C13 1_555 1_555
H11 C13 1_555 1_555
H12 C14 1_555 1_555
O2A Na1 1_555 1_555
O3A Na1 1_555 1_555
Na1A O2 1_555 1_555
N2 Na1 1_555 1_555
C9 C14 1_555 1_555
C11 C12 1_555 1_555
O2 Na1 1_555 1_555
O3 Na1A 1_555 1_555

#END
