
#######################################################################
#
#                 Cambridge Crystallographic Data Centre
#                                CCDC 
#
#######################################################################
#
# If this CIF has been generated from an entry in the Cambridge 
# Structural Database, then it will include bibliographic, chemical, 
# crystal, experimental, refinement or atomic coordinate data resulting 
# from the CCDC's data processing and validation procedures.
#
#######################################################################

data_DEMQAO
_symmetry_cell_setting           monoclinic
_symmetry_space_group_name_H-M   'C 2/c'
_symmetry_Int_Tables_number      15
_space_group_name_Hall           '-C 2yn'
loop_
_symmetry_equiv_pos_site_id
_symmetry_equiv_pos_as_xyz
1 x,y,z
2 1/2+x,1/2+y,z
3 -x,y,1/2-z
4 1/2-x,1/2+y,1/2-z
5 -x,-y,-z
6 1/2-x,1/2-y,-z
7 x,-y,1/2+z
8 1/2+x,1/2-y,1/2+z
_cell_length_a                   14.187(3)
_cell_length_b                   22.713(4)
_cell_length_c                   10.378(2)
_cell_angle_alpha                90
_cell_angle_beta                 113.203(3)
_cell_angle_gamma                90
_cell_volume                     3073.61
loop_
_atom_site_label
_atom_site_type_symbol
_atom_site_fract_x
_atom_site_fract_y
_atom_site_fract_z
Rb1 Rb 0.448270(10) 0.575240(10) 0.53271(2)
S1 S 0.65226(4) 0.54903(2) 0.34669(5)
O1 O 0.62794(11) 0.54820(7) 0.46885(14)
O2 O 0.64237(12) 0.60523(6) 0.27927(16)
O3 O 0.61151(11) 0.49996(7) 0.25235(15)
C1 C 0.78987(17) 0.53464(9) 0.4180(2)
F1 F 0.84219(11) 0.57583(6) 0.50953(18)
F2 F 0.82582(12) 0.53305(7) 0.31781(18)
F3 F 0.81110(12) 0.48297(6) 0.48409(17)
N1 N 0.45496(12) 0.70269(7) 0.51448(15)
C2 C 0.35732(13) 0.71849(8) 0.65745(17)
C3 C 0.30909(13) 0.75897(8) 0.71589(18)
C4 C 0.25697(15) 0.73584(9) 0.7960(2)
C5 C 0.25586(16) 0.67656(10) 0.8147(2)
C6 C 0.30567(15) 0.63985(9) 0.75306(19)
C7 C 0.31538(16) 0.82101(9) 0.6955(2)
N2 N 0.35539(12) 0.65944(7) 0.67567(15)
C8 C 0.41223(13) 0.74185(8) 0.57557(18)
C9 C 0.41844(15) 0.80321(8) 0.56168(19)
C10 C 0.47533(16) 0.82413(10) 0.4863(2)
C11 C 0.52016(16) 0.78463(10) 0.4278(2)
C12 C 0.50660(16) 0.72469(10) 0.4427(2)
C13 C 0.36866(16) 0.84213(9) 0.6237(2)
H1 H 0.2209(17) 0.7638(11) 0.836(2)
H2 H 0.2252(18) 0.6602(10) 0.872(2)
H3 H 0.3043(14) 0.5963(9) 0.7631(19)
H4 H 0.2856(17) 0.8442(10) 0.733(2)
H5 H 0.4838(17) 0.8634(10) 0.475(2)
H6 H 0.5593(18) 0.7980(10) 0.376(2)
H7 H 0.5354(16) 0.6968(10) 0.402(2)
H8 H 0.3741(17) 0.8813(11) 0.613(2)
Rb1D Rb 0.551730(10) 0.424760(10) 0.46729(2)
Rb1B Rb 0.551730(10) 0.575240(10) 0.96729(2)
Rb1B_2 Rb 0.551730(10) 0.575240(10) -0.03271(2)
Rb1F Rb 0.448270(10) 0.424760(10) 0.03271(2)
O1D O 0.37206(11) 0.45180(7) 0.53115(14)
O2B O 0.35763(12) 0.60523(6) 0.22073(16)
O3F O 0.61151(11) 0.50004(7) 0.75235(15)
O3D O 0.38849(11) 0.50004(7) 0.74765(15)
O3B O 0.38849(11) 0.49996(7) 0.24765(15)
loop_
_geom_bond_atom_site_label_1
_geom_bond_atom_site_label_2
_geom_bond_site_symmetry_1
_geom_bond_site_symmetry_2
Rb1 O1 1_555 1_555
S1 O1 1_555 1_555
O1 Rb1D 1_555 1_555
O2 S1 1_555 1_555
O3 S1 1_555 1_555
C1 S1 1_555 1_555
F1 C1 1_555 1_555
F2 C1 1_555 1_555
F3 C1 1_555 1_555
N1 Rb1 1_555 1_555
C2 C3 1_555 1_555
C3 C4 1_555 1_555
C4 C5 1_555 1_555
C5 C6 1_555 1_555
C6 N2 1_555 1_555
C7 C3 1_555 1_555
N2 Rb1 1_555 1_555
C8 N1 1_555 1_555
C9 C8 1_555 1_555
C10 C9 1_555 1_555
C11 C10 1_555 1_555
C12 N1 1_555 1_555
C13 C7 1_555 1_555
H1 C4 1_555 1_555
H2 C5 1_555 1_555
H3 C6 1_555 1_555
H4 C7 1_555 1_555
H5 C10 1_555 1_555
H6 C11 1_555 1_555
H7 C12 1_555 1_555
H8 C13 1_555 1_555
Rb1D O3 1_555 1_555
Rb1B O3F 1_555 1_555
Rb1B_2 O2 1_555 1_555
Rb1F O3 1_555 1_555
O1D Rb1 1_555 1_555
O2B Rb1 1_555 1_555
O3F Rb1 1_555 1_555
O3D Rb1 1_555 1_555
O3B Rb1 1_555 1_555
O3 Rb1B_2 1_555 1_555
C2 N2 1_555 1_555
C2 C8 1_555 1_555
C9 C13 1_555 1_555
C11 C12 1_555 1_555
Rb1D O1D 1_555 1_555
Rb1D O3F 1_555 1_555
Rb1D O3B 1_555 1_555
Rb1B O3D 1_555 1_555
Rb1F O3B 1_555 1_555

#END
