
#######################################################################
#
#                 Cambridge Crystallographic Data Centre
#                                CCDC 
#
#######################################################################
#
# If this CIF has been generated from an entry in the Cambridge 
# Structural Database, then it will include bibliographic, chemical, 
# crystal, experimental, refinement or atomic coordinate data resulting 
# from the CCDC's data processing and validation procedures.
#
#######################################################################

data_DEMROD
_symmetry_cell_setting           triclinic
_symmetry_space_group_name_H-M   'P -1'
_symmetry_Int_Tables_number      2
_space_group_name_Hall           '-P 1'
loop_
_symmetry_equiv_pos_site_id
_symmetry_equiv_pos_as_xyz
1 x,y,z
2 -x,-y,-z
_cell_length_a                   12.804(2)
_cell_length_b                   14.645(2)
_cell_length_c                   18.162(3)
_cell_angle_alpha                90.543(3)
_cell_angle_beta                 91.721(3)
_cell_angle_gamma                115.493(3)
_cell_volume                     3071.73
loop_
_atom_site_label
_atom_site_type_symbol
_atom_site_fract_x
_atom_site_fract_y
_atom_site_fract_z
P1 P 0.90307(12) 0.06354(11) 0.88968(7)
P2 P 0.91006(12) -0.00608(10) 0.99626(8)
P3 P 1.04956(13) 0.20917(12) 0.89880(10)
P4 P 0.75800(12) 0.09415(11) 0.91692(8)
P5 P 0.93919(15) 0.11907(13) 1.07303(8)
P6 P 1.02043(15) 0.25729(11) 1.00464(10)
P7 P 0.82782(15) 0.18259(13) 1.01699(8)
Na1 Na 0.72841(17) -0.20661(16) 1.06599(11)
Na2 Na 0.8844(2) 0.28311(16) 0.83252(12)
O1 O 0.6304(4) -0.2875(3) 0.9490(2)
O2 O 0.5602(3) -0.1754(3) 1.0465(2)
O3 O 0.6337(4) -0.3618(3) 1.1304(3)
O4 O 0.7066(3) -0.1737(3) 1.1985(2)
O5 O 0.9134(5) 0.2443(4) 0.7058(3)
O6 O 0.7246(4) 0.2724(4) 0.7456(3)
O7 O 1.0339(5) 0.4631(4) 0.8202(3)
O8 O 0.8443(5) 0.3992(4) 0.9076(3)
C1 C 0.5214(6) -0.2825(5) 0.9427(4)
H1 H 0.4644 -0.3379 0.9703
H2 H 0.4948 -0.2924 0.8908
C2 C 0.5261(6) -0.1865(5) 0.9702(4)
H3 H 0.5820 -0.1302 0.9428
H4 H 0.4499 -0.1863 0.9637
C3 C 0.6985(7) -0.2525(6) 0.8869(4)
H5 H 0.6574 -0.2936 0.8439
H6 H 0.7712 -0.2573 0.8951
H7 H 0.7137 -0.1826 0.8788
C4 C 0.5643(6) -0.0844(5) 1.0779(4)
H8 H 0.6194 -0.0268 1.0523
H9 H 0.5880 -0.0791 1.1296
H10 H 0.4881 -0.0853 1.0733
C5 C 0.6024(7) -0.3498(6) 1.2016(4)
H11 H 0.5917 -0.4094 1.2301
H12 H 0.5285 -0.3448 1.1991
C6 C 0.6900(6) -0.2598(5) 1.2386(4)
H13 H 0.6657 -0.2531 1.2882
H14 H 0.7631 -0.2660 1.2433
C7 C 0.5692(8) -0.4553(6) 1.0983(5)
H15 H 0.5741 -0.5070 1.1294
H16 H 0.5990 -0.4589 1.0504
H17 H 0.4891 -0.4663 1.0925
C8 C 0.7964(6) -0.0838(5) 1.2293(4)
H18 H 0.7780 -0.0730 1.2791
H19 H 0.8040 -0.0268 1.1996
H20 H 0.8688 -0.0902 1.2303
C9 C 0.8576(8) 0.2833(7) 0.6562(4)
H21 H 0.8644 0.2627 0.6057
H22 H 0.8948 0.3574 0.6596
C10 C 0.7348(7) 0.2456(7) 0.6732(4)
H23 H 0.6967 0.2744 0.6393
H24 H 0.6965 0.1718 0.6667
C11 C 1.0014(9) 0.2282(10) 0.6795(5)
H25 H 0.9751 0.1860 0.6351
H26 H 1.0280 0.1946 0.7163
H27 H 1.0645 0.2925 0.6682
C12 C 0.6077(6) 0.2230(7) 0.7655(5)
H28 H 0.5599 0.2409 0.7317
H29 H 0.6006 0.2438 0.8152
H30 H 0.5825 0.1503 0.7632
C13 C 1.0329(11) 0.5153(8) 0.8845(6)
H31 H 1.0801 0.5879 0.8786
H32 H 1.0668 0.4931 0.9256
C14 C 0.9135(12) 0.4973(7) 0.9011(5)
H33 H 0.9149 0.5333 0.9471
H34 H 0.8823 0.5247 0.8617
C15 C 1.1478(9) 0.4748(8) 0.8033(6)
H35 H 1.2008 0.5462 0.8045
H36 H 1.1458 0.4463 0.7546
H37 H 1.1738 0.4400 0.8394
C16 C 0.7372(8) 0.3799(7) 0.9389(5)
H38 H 0.7511 0.4148 0.9864
H39 H 0.6937 0.3078 0.9452
H40 H 0.6934 0.4040 0.9064
P1A P 1.09693(12) -0.06354(11) 1.11032(7)
P2A P 1.08994(12) 0.00608(10) 1.00374(8)
P3A P 0.95044(13) -0.20917(12) 1.10120(10)
P4A P 1.24200(12) -0.09415(11) 1.08308(8)
P5A P 1.06081(15) -0.11907(13) 0.92697(8)
P6A P 0.97957(15) -0.25729(11) 0.99536(10)
P7A P 1.17218(15) -0.18259(13) 0.98301(8)
Na1A Na 1.27159(17) 0.20661(16) 0.93401(11)
Na2A Na 1.1156(2) -0.28311(16) 1.16748(12)
O1A O 1.3696(4) 0.2875(3) 1.0510(2)
O2A O 1.4398(3) 0.1754(3) 0.9535(2)
O3A O 1.3663(4) 0.3618(3) 0.8696(3)
O4A O 1.2934(3) 0.1737(3) 0.8015(2)
O5A O 1.0866(5) -0.2443(4) 1.2942(3)
O6A O 1.2754(4) -0.2724(4) 1.2544(3)
O7A O 0.9661(5) -0.4631(4) 1.1798(3)
O8A O 1.1557(5) -0.3992(4) 1.0924(3)
C1A C 1.4786(6) 0.2825(5) 1.0573(4)
H1A H 1.5356 0.3379 1.0297
H2A H 1.5052 0.2924 1.1092
C2A C 1.4739(6) 0.1865(5) 1.0298(4)
H3A H 1.4180 0.1302 1.0572
H4A H 1.5501 0.1863 1.0363
C3A C 1.3015(7) 0.2525(6) 1.1131(4)
H5A H 1.3426 0.2936 1.1561
H6A H 1.2288 0.2573 1.1049
H7A H 1.2863 0.1826 1.1212
C4A C 1.4357(6) 0.0844(5) 0.9221(4)
H8A H 1.3806 0.0268 0.9477
H9A H 1.4120 0.0791 0.8704
H10A H 1.5119 0.0853 0.9267
C5A C 1.3976(7) 0.3498(6) 0.7984(4)
H11A H 1.4083 0.4094 0.7699
H12A H 1.4715 0.3448 0.8009
C6A C 1.3100(6) 0.2598(5) 0.7614(4)
H13A H 1.3343 0.2531 0.7118
H14A H 1.2369 0.2660 0.7567
C7A C 1.4308(8) 0.4553(6) 0.9017(5)
H15A H 1.4259 0.5070 0.8706
H16A H 1.4010 0.4589 0.9496
H17A H 1.5109 0.4663 0.9075
C8A C 1.2036(6) 0.0838(5) 0.7707(4)
H18A H 1.2220 0.0730 0.7209
H19A H 1.1960 0.0268 0.8004
H20A H 1.1312 0.0902 0.7697
C9A C 1.1424(8) -0.2833(7) 1.3438(4)
H21A H 1.1356 -0.2627 1.3943
H22A H 1.1052 -0.3574 1.3404
C10A C 1.2652(7) -0.2456(7) 1.3268(4)
H23A H 1.3033 -0.2744 1.3607
H24A H 1.3035 -0.1718 1.3333
C11A C 0.9986(9) -0.2282(10) 1.3205(5)
H25A H 1.0249 -0.1860 1.3649
H26A H 0.9720 -0.1946 1.2837
H27A H 0.9355 -0.2925 1.3318
C12A C 1.3923(6) -0.2230(7) 1.2345(5)
H28A H 1.4401 -0.2409 1.2683
H29A H 1.3994 -0.2438 1.1848
H30A H 1.4175 -0.1503 1.2368
C13A C 0.9671(11) -0.5153(8) 1.1155(6)
H31A H 0.9199 -0.5879 1.1214
H32A H 0.9332 -0.4931 1.0744
C14A C 1.0865(12) -0.4973(7) 1.0989(5)
H33A H 1.0851 -0.5333 1.0529
H34A H 1.1177 -0.5247 1.1383
C15A C 0.8522(9) -0.4748(8) 1.1967(6)
H35A H 0.7992 -0.5462 1.1955
H36A H 0.8542 -0.4463 1.2454
H37A H 0.8262 -0.4400 1.1606
C16A C 1.2628(8) -0.3799(7) 1.0611(5)
H38A H 1.2489 -0.4148 1.0136
H39A H 1.3063 -0.3078 1.0548
H40A H 1.3066 -0.4040 1.0936
P8 P 0.53939(12) 0.33429(10) 0.50989(7)
P9 P 0.58582(11) 0.49845(10) 0.50763(7)
P10 P 0.43869(12) 0.27825(10) 0.40802(8)
P11 P 0.71089(12) 0.35146(11) 0.48384(8)
P12 P 0.64121(13) 0.53240(11) 0.39437(8)
P13 P 0.55247(13) 0.38343(12) 0.33272(8)
P14 P 0.73270(12) 0.43298(11) 0.38338(9)
Na3 Na 0.76731(16) 0.68479(15) 0.60183(11)
Na4 Na 0.58691(18) 0.17970(15) 0.37698(11)
O9 O 0.9376(3) 0.6571(3) 0.5926(2)
O10 O 0.7721(3) 0.5799(3) 0.6991(2)
O11 O 0.8663(3) 0.8351(3) 0.5204(2)
O12 O 0.8681(3) 0.8367(3) 0.6745(2)
O13 O 0.4550(4) 0.0659(3) 0.2828(2)
O14 O 0.6896(4) 0.1833(4) 0.2711(3)
O15 O 0.6182(7) 0.0471(5) 0.4390(3)
C17 C 0.9234(6) 0.5685(5) 0.6303(4)
H41 H 0.9983 0.5658 0.6365
H42 H 0.8708 0.5085 0.6015
C18 C 0.8769(7) 0.5690(7) 0.7012(5)
H43 H 0.8635 0.5056 0.7254
H44 H 0.9348 0.6245 0.7314
C19 C 0.9773(6) 0.6567(6) 0.5210(4)
H45 H 1.0488 0.6488 0.5240
H46 H 0.9913 0.7201 0.4978
H47 H 0.9193 0.6010 0.4921
C20 C 0.6752(7) 0.5029(7) 0.7184(6)
H48 H 0.6656 0.4422 0.6914
H49 H 0.6098 0.5178 0.7072
H50 H 0.6796 0.4924 0.7709
C21 C 0.8715(5) 0.9195(4) 0.5629(3)
H51 H 0.7931 0.9123 0.5711
H52 H 0.9131 0.9822 0.5364
C22 C 0.9325(5) 0.9237(5) 0.6345(3)
H53 H 1.0095 0.9277 0.6260
H54 H 0.9420 0.9843 0.6629
C23 C 0.8063(5) 0.8249(5) 0.4510(3)
H55 H 0.7281 0.8163 0.4590
H56 H 0.8034 0.7663 0.4241
H57 H 0.8466 0.8851 0.4227
C24 C 0.9159(6) 0.8394(5) 0.7462(3)
H58 H 0.9950 0.8477 0.7429
H59 H 0.8703 0.7767 0.7705
H60 H 0.9153 0.8958 0.7744
C25 C 0.5055(8) 0.0968(7) 0.2153(4)
H61 H 0.4643 0.0429 0.1785
H62 H 0.4947 0.1565 0.2005
C26 C 0.6247(8) 0.1208(8) 0.2141(4)
H63 H 0.6548 0.1533 0.1675
H64 H 0.6341 0.0579 0.2155
C27 C 0.3366(6) 0.0447(6) 0.2821(4)
H65 H 0.2940 -0.0103 0.2471
H66 H 0.3071 0.0253 0.3309
H67 H 0.3272 0.1045 0.2678
C28 C 0.8067(7) 0.2301(8) 0.2636(6)
H68 H 0.8275 0.2945 0.2401
H69 H 0.8454 0.2414 0.3119
H70 H 0.8303 0.1876 0.2336
C29 C 0.5646(8) 0.0186(11) 0.5046(9)
H71 H 0.5818 -0.0351 0.5253
H72 H 0.5954 0.0765 0.5394
C30 C 0.5959(11) -0.0437(8) 0.3953(8)
H73 H 0.5143 -0.0776 0.3809
H74 H 0.6415 -0.0252 0.3515
H75 H 0.6172 -0.0889 0.4242
P8A P 0.46061(12) 0.66571(10) 0.49011(7)
P9A P 0.41418(11) 0.50155(10) 0.49237(7)
P10A P 0.56131(12) 0.72175(10) 0.59198(8)
P11A P 0.28911(12) 0.64854(11) 0.51616(8)
P12A P 0.35879(13) 0.46760(11) 0.60563(8)
P13A P 0.44753(13) 0.61657(12) 0.66728(8)
P14A P 0.26730(12) 0.56702(11) 0.61662(9)
Na3A Na 0.23269(16) 0.31521(15) 0.39817(11)
Na4A Na 0.41309(18) 0.82030(15) 0.62302(11)
Na4A_2 Na 0.41309(18) -0.17970(15) 0.62302(11)
O9A O 0.0624(3) 0.3429(3) 0.4074(2)
O10A O 0.2279(3) 0.4201(3) 0.3009(2)
O11A O 0.1337(3) 0.1649(3) 0.4796(2)
O12A O 0.1319(3) 0.1633(3) 0.3255(2)
O13A O 0.5450(4) 0.9341(3) 0.7172(2)
O14A O 0.3104(4) 0.8167(4) 0.7289(3)
O15A O 0.3818(7) -0.0471(5) 0.5610(3)
O15A_2 O 0.3818(7) 0.9529(5) 0.5610(3)
C17A C 0.0766(6) 0.4315(5) 0.3697(4)
H41A H 0.0017 0.4342 0.3635
H42A H 0.1292 0.4915 0.3985
C18A C 0.1231(7) 0.4310(7) 0.2988(5)
H43A H 0.1365 0.4944 0.2746
H44A H 0.0652 0.3755 0.2686
C19A C 0.0227(6) 0.3433(6) 0.4790(4)
H45A H -0.0488 0.3512 0.4760
H46A H 0.0087 0.2799 0.5022
H47A H 0.0807 0.3990 0.5079
C20A C 0.3248(7) 0.4971(7) 0.2816(6)
H48A H 0.3344 0.5578 0.3086
H49A H 0.3902 0.4822 0.2928
H50A H 0.3204 0.5076 0.2291
C21A C 0.1285(5) 0.0805(4) 0.4371(3)
H51A H 0.2069 0.0877 0.4289
H52A H 0.0869 0.0178 0.4636
C22A C 0.0675(5) 0.0763(5) 0.3655(3)
H53A H -0.0095 0.0723 0.3740
H54A H 0.0580 0.0157 0.3371
C23A C 0.1937(5) 0.1751(5) 0.5490(3)
H55A H 0.2719 0.1837 0.5410
H56A H 0.1966 0.2337 0.5759
H57A H 0.1534 0.1149 0.5773
C24A C 0.0841(6) 0.1606(5) 0.2538(3)
H58A H 0.0050 0.1523 0.2571
H59A H 0.1297 0.2233 0.2295
H60A H 0.0847 0.1042 0.2256
C25A C 0.4945(8) 0.9032(7) 0.7847(4)
H61A H 0.5357 0.9571 0.8215
H62A H 0.5053 0.8435 0.7995
C26A C 0.3753(8) 0.8792(8) 0.7859(4)
H63A H 0.3452 0.8467 0.8325
H64A H 0.3659 0.9421 0.7845
C27A C 0.6634(6) 0.9553(6) 0.7179(4)
H65A H 0.7060 1.0103 0.7529
H66A H 0.6929 0.9747 0.6691
H67A H 0.6728 0.8955 0.7322
C28A C 0.1933(7) 0.7699(8) 0.7364(6)
H68A H 0.1725 0.7055 0.7599
H69A H 0.1546 0.7586 0.6881
H70A H 0.1697 0.8124 0.7664
C29A C 0.4354(8) -0.0186(11) 0.4954(9)
H71A H 0.4182 0.0351 0.4747
H72A H 0.4046 -0.0765 0.4606
C30A C 0.4041(11) 0.0437(8) 0.6047(8)
H73A H 0.4857 0.0776 0.6191
H74A H 0.3585 0.0252 0.6485
H75A H 0.3828 0.0889 0.5758
C31? C 0.2480(9) 0.9065(9) 0.5477(7)
H76? H 0.2274 0.9540 0.5213
H77? H 0.2109 0.8926 0.5947
H78? H 0.2225 0.8441 0.5188
loop_
_geom_bond_atom_site_label_1
_geom_bond_atom_site_label_2
_geom_bond_site_symmetry_1
_geom_bond_site_symmetry_2
P1 P2 1_555 1_555
P2 P5 1_555 1_555
P3 P1 1_555 1_555
P4 P1 1_555 1_555
P5 P6 1_555 1_555
P6 P3 1_555 1_555
P7 P4 1_555 1_555
Na1 P2 1_555 1_555
Na2 P3 1_555 1_555
O1 Na1 1_555 1_555
O2 Na1 1_555 1_555
O3 Na1 1_555 1_555
O4 Na1 1_555 1_555
O5 Na2 1_555 1_555
O6 Na2 1_555 1_555
O7 Na2 1_555 1_555
O8 Na2 1_555 1_555
C1 O1 1_555 1_555
H1 C1 1_555 1_555
H2 C1 1_555 1_555
C2 O2 1_555 1_555
H3 C2 1_555 1_555
H4 C2 1_555 1_555
C3 O1 1_555 1_555
H5 C3 1_555 1_555
H6 C3 1_555 1_555
H7 C3 1_555 1_555
C4 O2 1_555 1_555
H8 C4 1_555 1_555
H9 C4 1_555 1_555
H10 C4 1_555 1_555
C5 O3 1_555 1_555
H11 C5 1_555 1_555
H12 C5 1_555 1_555
C6 O4 1_555 1_555
H13 C6 1_555 1_555
H14 C6 1_555 1_555
C7 O3 1_555 1_555
H15 C7 1_555 1_555
H16 C7 1_555 1_555
H17 C7 1_555 1_555
C8 O4 1_555 1_555
H18 C8 1_555 1_555
H19 C8 1_555 1_555
H20 C8 1_555 1_555
C9 O5 1_555 1_555
H21 C9 1_555 1_555
H22 C9 1_555 1_555
C10 O6 1_555 1_555
H23 C10 1_555 1_555
H24 C10 1_555 1_555
C11 O5 1_555 1_555
H25 C11 1_555 1_555
H26 C11 1_555 1_555
H27 C11 1_555 1_555
C12 O6 1_555 1_555
H28 C12 1_555 1_555
H29 C12 1_555 1_555
H30 C12 1_555 1_555
C13 O7 1_555 1_555
H31 C13 1_555 1_555
H32 C13 1_555 1_555
C14 O8 1_555 1_555
H33 C14 1_555 1_555
H34 C14 1_555 1_555
C15 O7 1_555 1_555
H35 C15 1_555 1_555
H36 C15 1_555 1_555
H37 C15 1_555 1_555
C16 O8 1_555 1_555
H38 C16 1_555 1_555
H39 C16 1_555 1_555
H40 C16 1_555 1_555
P8 P9 1_555 1_555
P9 P12 1_555 1_555
P10 P8 1_555 1_555
P11 P8 1_555 1_555
P12 P13 1_555 1_555
P13 P10 1_555 1_555
P14 P11 1_555 1_555
Na3 P9 1_555 1_555
Na4 P10 1_555 1_555
O9 Na3 1_555 1_555
O10 Na3 1_555 1_555
O11 Na3 1_555 1_555
O12 Na3 1_555 1_555
O13 Na4 1_555 1_555
O14 Na4 1_555 1_555
O15 Na4 1_555 1_555
C17 O9 1_555 1_555
H41 C17 1_555 1_555
H42 C17 1_555 1_555
C18 O10 1_555 1_555
H43 C18 1_555 1_555
H44 C18 1_555 1_555
C19 O9 1_555 1_555
H45 C19 1_555 1_555
H46 C19 1_555 1_555
H47 C19 1_555 1_555
C20 O10 1_555 1_555
H48 C20 1_555 1_555
H49 C20 1_555 1_555
H50 C20 1_555 1_555
C21 O11 1_555 1_555
H51 C21 1_555 1_555
H52 C21 1_555 1_555
C22 O12 1_555 1_555
H53 C22 1_555 1_555
H54 C22 1_555 1_555
C23 O11 1_555 1_555
H55 C23 1_555 1_555
H56 C23 1_555 1_555
H57 C23 1_555 1_555
C24 O12 1_555 1_555
H58 C24 1_555 1_555
H59 C24 1_555 1_555
H60 C24 1_555 1_555
C25 O13 1_555 1_555
H61 C25 1_555 1_555
H62 C25 1_555 1_555
C26 O14 1_555 1_555
H63 C26 1_555 1_555
H64 C26 1_555 1_555
C27 O13 1_555 1_555
H65 C27 1_555 1_555
H66 C27 1_555 1_555
H67 C27 1_555 1_555
C28 O14 1_555 1_555
H68 C28 1_555 1_555
H69 C28 1_555 1_555
H70 C28 1_555 1_555
C29 O15 1_555 1_555
H71 C29 1_555 1_555
H72 C29 1_555 1_555
C30 O15 1_555 1_555
H73 C30 1_555 1_555
H74 C30 1_555 1_555
H75 C30 1_555 1_555
P1A P2A 1_555 1_555
P2A P2 1_555 1_555
P3A Na1 1_555 1_555
P4A P1A 1_555 1_555
P5A P2A 1_555 1_555
P6A P3A 1_555 1_555
P7A P4A 1_555 1_555
Na1A P3 1_555 1_555
Na2A P3A 1_555 1_555
O1A Na1A 1_555 1_555
O2A Na1A 1_555 1_555
O3A Na1A 1_555 1_555
O4A Na1A 1_555 1_555
O5A Na2A 1_555 1_555
O6A Na2A 1_555 1_555
O7A Na2A 1_555 1_555
O8A Na2A 1_555 1_555
C1A O1A 1_555 1_555
H1A C1A 1_555 1_555
H2A C1A 1_555 1_555
C2A O2A 1_555 1_555
H3A C2A 1_555 1_555
H4A C2A 1_555 1_555
C3A O1A 1_555 1_555
H5A C3A 1_555 1_555
H6A C3A 1_555 1_555
H7A C3A 1_555 1_555
C4A O2A 1_555 1_555
H8A C4A 1_555 1_555
H9A C4A 1_555 1_555
H10A C4A 1_555 1_555
C5A O3A 1_555 1_555
H11A C5A 1_555 1_555
H12A C5A 1_555 1_555
C6A O4A 1_555 1_555
H13A C6A 1_555 1_555
H14A C6A 1_555 1_555
C7A O3A 1_555 1_555
H15A C7A 1_555 1_555
H16A C7A 1_555 1_555
H17A C7A 1_555 1_555
C8A O4A 1_555 1_555
H18A C8A 1_555 1_555
H19A C8A 1_555 1_555
H20A C8A 1_555 1_555
C9A O5A 1_555 1_555
H21A C9A 1_555 1_555
H22A C9A 1_555 1_555
C10A O6A 1_555 1_555
H23A C10A 1_555 1_555
H24A C10A 1_555 1_555
C11A O5A 1_555 1_555
H25A C11A 1_555 1_555
H26A C11A 1_555 1_555
H27A C11A 1_555 1_555
C12A O6A 1_555 1_555
H28A C12A 1_555 1_555
H29A C12A 1_555 1_555
H30A C12A 1_555 1_555
C13A O7A 1_555 1_555
H31A C13A 1_555 1_555
H32A C13A 1_555 1_555
C14A O8A 1_555 1_555
H33A C14A 1_555 1_555
H34A C14A 1_555 1_555
C15A O7A 1_555 1_555
H35A C15A 1_555 1_555
H36A C15A 1_555 1_555
H37A C15A 1_555 1_555
C16A O8A 1_555 1_555
H38A C16A 1_555 1_555
H39A C16A 1_555 1_555
H40A C16A 1_555 1_555
P8A P9A 1_555 1_555
P9A P9 1_555 1_555
P10A Na3 1_555 1_555
P11A P8A 1_555 1_555
P12A P9A 1_555 1_555
P13A P10A 1_555 1_555
P14A P11A 1_555 1_555
Na3A P10 1_555 1_555
Na4A P10A 1_555 1_555
Na4A_2 O15A 1_555 1_555
O9A Na3A 1_555 1_555
O10A Na3A 1_555 1_555
O11A Na3A 1_555 1_555
O12A Na3A 1_555 1_555
O13A Na4A 1_555 1_555
O14A Na4A 1_555 1_555
O15A C29A 1_555 1_555
O15A_2 Na4A 1_555 1_555
C17A O9A 1_555 1_555
H41A C17A 1_555 1_555
H42A C17A 1_555 1_555
C18A O10A 1_555 1_555
H43A C18A 1_555 1_555
H44A C18A 1_555 1_555
C19A O9A 1_555 1_555
H45A C19A 1_555 1_555
H46A C19A 1_555 1_555
H47A C19A 1_555 1_555
C20A O10A 1_555 1_555
H48A C20A 1_555 1_555
H49A C20A 1_555 1_555
H50A C20A 1_555 1_555
C21A O11A 1_555 1_555
H51A C21A 1_555 1_555
H52A C21A 1_555 1_555
C22A O12A 1_555 1_555
H53A C22A 1_555 1_555
H54A C22A 1_555 1_555
C23A O11A 1_555 1_555
H55A C23A 1_555 1_555
H56A C23A 1_555 1_555
H57A C23A 1_555 1_555
C24A O12A 1_555 1_555
H58A C24A 1_555 1_555
H59A C24A 1_555 1_555
H60A C24A 1_555 1_555
C25A O13A 1_555 1_555
H61A C25A 1_555 1_555
H62A C25A 1_555 1_555
C26A O14A 1_555 1_555
H63A C26A 1_555 1_555
H64A C26A 1_555 1_555
C27A O13A 1_555 1_555
H65A C27A 1_555 1_555
H66A C27A 1_555 1_555
H67A C27A 1_555 1_555
C28A O14A 1_555 1_555
H68A C28A 1_555 1_555
H69A C28A 1_555 1_555
H70A C28A 1_555 1_555
C29A C29 1_555 1_555
H71A C29A 1_555 1_555
H72A C29A 1_555 1_555
C30A O15A 1_555 1_555
H73A C30A 1_555 1_555
H74A C30A 1_555 1_555
H75A C30A 1_555 1_555
P4 Na2 1_555 1_555
P5 P7 1_555 1_555
P6 P7 1_555 1_555
C1 C2 1_555 1_555
C5 C6 1_555 1_555
C9 C10 1_555 1_555
C13 C14 1_555 1_555
P11 Na4 1_555 1_555
P12 P14 1_555 1_555
P13 P14 1_555 1_555
C17 C18 1_555 1_555
C21 C22 1_555 1_555
C25 C26 1_555 1_555
P1A P3A 1_555 1_555
P2A Na1A 1_555 1_555
P4A Na2A 1_555 1_555
P5A P6A 1_555 1_555
P5A P7A 1_555 1_555
P6A P7A 1_555 1_555
C1A C2A 1_555 1_555
C5A C6A 1_555 1_555
C9A C10A 1_555 1_555
C13A C14A 1_555 1_555
P8A P10A 1_555 1_555
P9A Na3A 1_555 1_555
P11A Na4A 1_555 1_555
P12A P13A 1_555 1_555
P12A P14A 1_555 1_555
P13A P14A 1_555 1_555
C17A C18A 1_555 1_555
C21A C22A 1_555 1_555
C25A C26A 1_555 1_555

#END
