
#######################################################################
#
#                 Cambridge Crystallographic Data Centre
#                                CCDC 
#
#######################################################################
#
# If this CIF has been generated from an entry in the Cambridge 
# Structural Database, then it will include bibliographic, chemical, 
# crystal, experimental, refinement or atomic coordinate data resulting 
# from the CCDC's data processing and validation procedures.
#
#######################################################################

data_DEMVAT01
_symmetry_cell_setting           orthorhombic
_symmetry_space_group_name_H-M   'P n a 21'
_symmetry_Int_Tables_number      33
_space_group_name_Hall           'P 2c -2n'
loop_
_symmetry_equiv_pos_site_id
_symmetry_equiv_pos_as_xyz
1 x,y,z
2 -x,-y,1/2+z
3 1/2+x,1/2-y,z
4 1/2-x,1/2+y,1/2+z
_cell_length_a                   7.9652(3)
_cell_length_b                   21.4716(7)
_cell_length_c                   8.2491(3)
_cell_angle_alpha                90
_cell_angle_beta                 90
_cell_angle_gamma                90
_cell_volume                     1410.81
loop_
_atom_site_label
_atom_site_type_symbol
_atom_site_fract_x
_atom_site_fract_y
_atom_site_fract_z
Zn1 Zn 0.49761(6) 0.380007(16) 0.29447(8)
Cl1 Cl 0.41085(13) 0.30169(4) 0.13943(14)
Cl2 Cl 0.36476(12) 0.46973(4) 0.32497(13)
N1 N 0.5579(4) 0.34323(14) 0.5161(4)
N2 N 0.5857(4) 0.15175(14) 0.6204(4)
N3 N 0.6269(4) 0.09034(14) 0.6685(4)
N4 N 0.7666(4) -0.09498(14) 0.7164(4)
C1 C 0.5978(5) 0.38260(15) 0.6359(5)
H1 H 0.5800 0.4259 0.6195
C2 C 0.6635(5) 0.36310(17) 0.7821(6)
H2 H 0.6919 0.3922 0.8644
C3 C 0.6869(5) 0.29970(15) 0.8054(6)
H3 H 0.7339 0.2847 0.9039
C4 C 0.6414(5) 0.25842(16) 0.6841(4)
C5 C 0.5787(5) 0.28209(16) 0.5396(5)
H4 H 0.5499 0.2541 0.4549
C6 C 0.6638(5) 0.19087(17) 0.7102(5)
H5 H 0.7362 0.1764 0.7937
C7 C 0.5439(5) 0.04969(19) 0.5899(5)
H6 H 0.4623 0.0622 0.5125
C8 C 0.6503(6) -0.13855(17) 0.6818(4)
H7 H 0.6748 -0.1808 0.7060
C9 C 0.4983(5) -0.12464(18) 0.6132(5)
H8 H 0.4198 -0.1567 0.5901
C10 C 0.4603(5) -0.06280(18) 0.5776(5)
H9 H 0.3577 -0.0523 0.5257
C11 C 0.5753(5) -0.01668(17) 0.6195(5)
C12 C 0.7278(5) -0.03498(16) 0.6851(4)
H10 H 0.8088 -0.0038 0.7091
Zn1C Zn 1.00239(6) -0.119993(16) 0.79447(8)
N4C N 0.7334(4) 0.40502(14) 0.2164(4)
loop_
_geom_bond_atom_site_label_1
_geom_bond_atom_site_label_2
_geom_bond_site_symmetry_1
_geom_bond_site_symmetry_2
Zn1 Cl1 1_555 1_555
Cl2 Zn1 1_555 1_555
N1 Zn1 1_555 1_555
N2 N3 1_555 1_555
N3 C7 1_555 1_555
N4 C8 1_555 1_555
C1 N1 1_555 1_555
H1 C1 1_555 1_555
C2 C1 1_555 1_555
H2 C2 1_555 1_555
C3 C2 1_555 1_555
H3 C3 1_555 1_555
C4 C3 1_555 1_555
C5 N1 1_555 1_555
H4 C5 1_555 1_555
C6 N2 1_555 1_555
H5 C6 1_555 1_555
C7 H6 1_555 1_555
C8 H7 1_555 1_555
C9 C8 1_555 1_555
H8 C9 1_555 1_555
C10 C9 1_555 1_555
H9 C10 1_555 1_555
C11 C7 1_555 1_555
C12 N4 1_555 1_555
H10 C12 1_555 1_555
Zn1C N4 1_555 1_555
N4C Zn1 1_555 1_555
C4 C5 1_555 1_555
C4 C6 1_555 1_555
C10 C11 1_555 1_555
C11 C12 1_555 1_555

#END
