
#######################################################################
#
#                 Cambridge Crystallographic Data Centre
#                                CCDC 
#
#######################################################################
#
# If this CIF has been generated from an entry in the Cambridge 
# Structural Database, then it will include bibliographic, chemical, 
# crystal, experimental, refinement or atomic coordinate data resulting 
# from the CCDC's data processing and validation procedures.
#
#######################################################################

data_DEMWOI
_symmetry_cell_setting           monoclinic
_symmetry_space_group_name_H-M   'P 21/c'
_symmetry_Int_Tables_number      14
_space_group_name_Hall           '-P 2ybc'
loop_
_symmetry_equiv_pos_site_id
_symmetry_equiv_pos_as_xyz
1 x,y,z
2 -x,1/2+y,1/2-z
3 -x,-y,-z
4 x,1/2-y,1/2+z
_cell_length_a                   8.858(5)
_cell_length_b                   11.012(5)
_cell_length_c                   14.932(9)
_cell_angle_alpha                90
_cell_angle_beta                 103.393(15)
_cell_angle_gamma                90
_cell_volume                     1416.92
loop_
_atom_site_label
_atom_site_type_symbol
_atom_site_fract_x
_atom_site_fract_y
_atom_site_fract_z
Fe1 Fe 0.79129(7) 0.02638(6) 0.10902(4)
Cl1 Cl 0.91113(15) 0.18452(12) 0.19297(9)
Cl2 Cl 0.74612(15) -0.09328(13) 0.22285(9)
O1 O 0.8475(4) 0.1023(3) -0.0109(2)
O2 O 0.5813(3) 0.1137(3) 0.0772(2)
O3 O 1.0193(3) 0.0764(3) -0.0986(2)
O4 O 0.3369(3) 0.0905(3) -0.0071(2)
C7 C 0.9615(5) 0.0521(4) -0.0311(3)
C8 C 0.4759(4) 0.0581(4) 0.0199(3)
Fe1B Fe 1.20871(7) -0.02638(6) -0.10902(4)
Fe1B_2 Fe 0.20871(7) -0.02638(6) -0.10902(4)
Cl1B Cl 1.08887(15) -0.18452(12) -0.19297(9)
Cl2B Cl 1.25388(15) 0.09328(13) -0.22285(9)
O1B O 1.1525(4) -0.1023(3) 0.0109(2)
O2B O 0.4187(3) -0.1137(3) -0.0772(2)
O2B_2 O 1.4187(3) -0.1137(3) -0.0772(2)
O3B O 0.9807(3) -0.0764(3) 0.0986(2)
O4B O 0.6631(3) -0.0905(3) 0.0071(2)
O4_2 O 1.3369(3) 0.0905(3) -0.0071(2)
C7B C 1.0385(5) -0.0521(4) 0.0311(3)
C8B C 0.5241(4) -0.0581(4) -0.0199(3)
S1 S 0.77592(14) 0.11224(11) 0.51624(9)
S2 S 0.74275(18) -0.14828(11) 0.49708(10)
S3 S 0.48204(16) 0.14564(12) 0.34014(10)
S4 S 0.44174(15) -0.11592(11) 0.33291(8)
C1 C 0.6770(5) -0.0078(4) 0.4574(3)
C2 C 0.5471(5) 0.0058(4) 0.3840(3)
C3 C 0.9074(6) 0.0227(6) 0.5918(4)
H1 H 0.9858 0.0570 0.6372
C4 C 0.8922(7) -0.0954(6) 0.5827(4)
H2 H 0.9597 -0.1483 0.6210
C5 C 0.3333(7) 0.0890(6) 0.2557(4)
H3 H 0.2684 0.1399 0.2142
C6 C 0.3149(7) -0.0313(6) 0.2523(4)
H4 H 0.2367 -0.0678 0.2082
loop_
_geom_bond_atom_site_label_1
_geom_bond_atom_site_label_2
_geom_bond_site_symmetry_1
_geom_bond_site_symmetry_2
Fe1 Cl1 1_555 1_555
Cl2 Fe1 1_555 1_555
S1 C1 1_555 1_555
S2 C1 1_555 1_555
S3 C2 1_555 1_555
S4 C2 1_555 1_555
O1 Fe1 1_555 1_555
O2 Fe1 1_555 1_555
O3 C7 1_555 1_555
O4 C8 1_555 1_555
C1 C2 1_555 1_555
C3 S1 1_555 1_555
H1 C3 1_555 1_555
C4 S2 1_555 1_555
H2 C4 1_555 1_555
C5 S3 1_555 1_555
H3 C5 1_555 1_555
C6 S4 1_555 1_555
H4 C6 1_555 1_555
C7 O1 1_555 1_555
C8 O2 1_555 1_555
Fe1B O3 1_555 1_555
Fe1B_2 O4 1_555 1_555
Cl1B Fe1B 1_555 1_555
Cl2B Fe1B 1_555 1_555
O1B Fe1B 1_555 1_555
O2B Fe1B_2 1_555 1_555
O2B_2 Fe1B 1_555 1_555
O3B Fe1 1_555 1_555
O4B Fe1 1_555 1_555
O4_2 Fe1B 1_555 1_555
C7B C7 1_555 1_555
C8B C8 1_555 1_555
C3 C4 1_555 1_555
C5 C6 1_555 1_555
O1B C7B 1_555 1_555
O2B C8B 1_555 1_555
O3B C7B 1_555 1_555
O4B C8B 1_555 1_555

#END
