
#######################################################################
#
#                 Cambridge Crystallographic Data Centre
#                                CCDC 
#
#######################################################################
#
# If this CIF has been generated from an entry in the Cambridge 
# Structural Database, then it will include bibliographic, chemical, 
# crystal, experimental, refinement or atomic coordinate data resulting 
# from the CCDC's data processing and validation procedures.
#
#######################################################################

data_DEMXUP
_symmetry_cell_setting           monoclinic
_symmetry_space_group_name_H-M   'P 2/c'
_symmetry_Int_Tables_number      13
_space_group_name_Hall           '-P 2yc'
loop_
_symmetry_equiv_pos_site_id
_symmetry_equiv_pos_as_xyz
1 x,y,z
2 -x,y,1/2-z
3 -x,-y,-z
4 x,-y,1/2+z
_cell_length_a                   12.4528(18)
_cell_length_b                   14.546(2)
_cell_length_c                   15.271(2)
_cell_angle_alpha                90
_cell_angle_beta                 111.276(3)
_cell_angle_gamma                90
_cell_volume                     2577.63
loop_
_atom_site_label
_atom_site_type_symbol
_atom_site_fract_x
_atom_site_fract_y
_atom_site_fract_z
Cd1 Cd 0.62475(3) 0.71509(3) 0.06147(3)
N1 N 0.6169(4) 0.5659(3) 0.1194(3)
N2 N 0.4371(3) 0.6763(3) 0.0549(3)
N3 N 0.4780(4) 0.8239(3) -0.0323(4)
O1 O 0.6690(3) 0.8117(3) 0.1846(3)
O2 O 0.8218(3) 0.7286(3) 0.2030(3)
O3 O 0.7192(4) 0.7858(4) -0.0317(4)
O4 O 0.7427(5) 0.6375(4) -0.0119(4)
C1 C 0.7078(5) 0.5080(5) 0.1413(4)
H1 H 0.7774 0.5301 0.1403
C2 C 0.7009(6) 0.4157(5) 0.1654(4)
H2 H 0.7647 0.3772 0.1808
C3 C 0.5971(6) 0.3839(4) 0.1657(4)
H3 H 0.5891 0.3230 0.1808
C4 C 0.5062(5) 0.4430(4) 0.1433(4)
H4 H 0.4356 0.4219 0.1429
C5 C 0.5170(4) 0.5332(4) 0.1214(3)
C6 C 0.4217(4) 0.5982(4) 0.0950(4)
C7 C 0.3179(5) 0.5812(4) 0.1077(5)
H5 H 0.3089 0.5281 0.1383
C8 C 0.2289(5) 0.6434(5) 0.0748(5)
H6 H 0.1588 0.6313 0.0812
C9 C 0.2435(5) 0.7240(4) 0.0319(5)
H7 H 0.1844 0.7669 0.0097
C10 C 0.3508(5) 0.7384(4) 0.0233(4)
C11 C 0.3740(5) 0.8208(4) -0.0254(4)
C12 C 0.2938(6) 0.8897(5) -0.0635(5)
H8 H 0.2226 0.8869 -0.0567
C13 C 0.3178(7) 0.9625(5) -0.1114(6)
H9 H 0.2643 1.0091 -0.1366
C14 C 0.4221(7) 0.9636(5) -0.1205(5)
H10 H 0.4409 1.0104 -0.1539
C15 C 0.5000(6) 0.8945(5) -0.0797(5)
H11 H 0.5719 0.8970 -0.0853
C16 C 0.7742(5) 0.7934(4) 0.2273(4)
C17 C 0.8404(4) 0.8534(3) 0.3096(4)
C18 C 0.7865(4) 0.9207(4) 0.3419(4)
H12 H 0.7072 0.9283 0.3135
C19 C 0.8478(4) 0.9772(3) 0.4156(4)
H13 H 0.8088 1.0217 0.4360
C20 C 0.9671(4) 0.9692(3) 0.4603(4)
C21 C 1.0204(5) 0.8993(4) 0.4271(4)
H14 H 1.0996 0.8910 0.4552
C22 C 0.9581(5) 0.8426(4) 0.3542(4)
H15 H 0.9958 0.7964 0.3345
C23 C 0.7607(6) 0.7114(6) -0.0441(4)
C24 C 0.8354(5) 0.7100(4) -0.1042(4)
C25 C 0.8358(6) 0.7858(4) -0.1576(5)
H16 H 0.7921 0.8372 -0.1560
C26 C 0.9015(6) 0.7854(4) -0.2142(5)
H17 H 0.9021 0.8372 -0.2498
C27 C 0.9657(5) 0.7097(4) -0.2185(4)
C28 C 0.9667(5) 0.6333(4) -0.1627(4)
H18 H 1.0113 0.5822 -0.1635
C29 C 0.9014(5) 0.6336(4) -0.1062(4)
H19 H 0.9017 0.5825 -0.0695
Cd1B Cd 1.37525(3) 1.28491(3) 0.93853(3)
Cd1A Cd 1.37525(3) 0.71509(3) -0.56147(3)
N1B N 1.3831(4) 1.4341(3) 0.8806(3)
N2B N 1.5629(3) 1.3237(3) 0.9451(3)
N3B N 1.5220(4) 1.1761(3) 1.0323(4)
O1B O 1.3310(3) 1.1883(3) 0.8154(3)
O2B O 1.1782(3) 1.2714(3) 0.7970(3)
O3A O 1.2808(4) 0.7858(4) -0.4683(4)
O3B O 1.2808(4) 1.2142(4) 1.0317(4)
O4A O 1.2573(5) 0.6375(4) -0.4881(4)
O4B O 1.2573(5) 1.3625(4) 1.0119(4)
C1B C 1.2922(5) 1.4920(5) 0.8587(4)
H1B H 1.2226 1.4699 0.8597
C2B C 1.2991(6) 1.5843(5) 0.8346(4)
H2B H 1.2353 1.6228 0.8192
C3B C 1.4029(6) 1.6161(4) 0.8343(4)
H3B H 1.4109 1.6770 0.8192
C4B C 1.4938(5) 1.5570(4) 0.8567(4)
H4B H 1.5644 1.5781 0.8571
C5B C 1.4830(4) 1.4668(4) 0.8786(3)
C6B C 1.5783(4) 1.4018(4) 0.9050(4)
C7B C 1.6821(5) 1.4188(4) 0.8923(5)
H5B H 1.6911 1.4719 0.8617
C8B C 1.7711(5) 1.3566(5) 0.9252(5)
H6B H 1.8412 1.3687 0.9188
C9B C 1.7565(5) 1.2760(4) 0.9681(5)
H7B H 1.8156 1.2331 0.9903
C10B C 1.6492(5) 1.2616(4) 0.9767(4)
C11B C 1.6260(5) 1.1792(4) 1.0254(4)
C12B C 1.7062(6) 1.1103(5) 1.0635(5)
H8B H 1.7774 1.1131 1.0567
C13B C 1.6822(7) 1.0375(5) 1.1114(6)
H9B H 1.7357 0.9909 1.1366
C14B C 1.5779(7) 1.0364(5) 1.1205(5)
H10B H 1.5591 0.9896 1.1539
C15B C 1.5000(6) 1.1055(5) 1.0797(5)
H11B H 1.4281 1.1030 1.0853
C16B C 1.2258(5) 1.2066(4) 0.7727(4)
C17B C 1.1596(4) 1.1466(3) 0.6904(4)
C18B C 1.2135(4) 1.0793(4) 0.6581(4)
H12B H 1.2928 1.0717 0.6865
C19B C 1.1522(4) 1.0228(3) 0.5844(4)
H13B H 1.1912 0.9783 0.5640
C20B C 1.0329(4) 1.0308(3) 0.5397(4)
C21B C 0.9796(5) 1.1007(4) 0.5729(4)
H14B H 0.9004 1.1090 0.5448
C22B C 1.0419(5) 1.1574(4) 0.6458(4)
H15B H 1.0042 1.2036 0.6655
C23A C 1.2393(6) 0.7114(6) -0.4559(4)
C24A C 1.1646(5) 0.7100(4) -0.3958(4)
C25A C 1.1642(6) 0.7858(4) -0.3424(5)
H16A H 1.2079 0.8372 -0.3440
C26A C 1.0985(6) 0.7854(4) -0.2858(5)
H17A H 1.0979 0.8372 -0.2502
C27A C 1.0343(5) 0.7097(4) -0.2815(4)
C28A C 1.0333(5) 0.6333(4) -0.3373(4)
H18A H 0.9887 0.5822 -0.3365
C29A C 1.0986(5) 0.6336(4) -0.3938(4)
H19A H 1.0983 0.5825 -0.4305
O5 O 0.5000 0.8710(5) 0.2500
O6 O 0.9947(7) 0.5969(5) 0.3334(10)
loop_
_geom_bond_atom_site_label_1
_geom_bond_atom_site_label_2
_geom_bond_site_symmetry_1
_geom_bond_site_symmetry_2
Cd1 N1 1_555 1_555
N1 C1 1_555 1_555
N2 Cd1 1_555 1_555
N3 Cd1 1_555 1_555
O1 Cd1 1_555 1_555
O2 C16 1_555 1_555
O3 Cd1 1_555 1_555
O4 Cd1 1_555 1_555
C1 H1 1_555 1_555
C2 C1 1_555 1_555
H2 C2 1_555 1_555
C3 C2 1_555 1_555
H3 C3 1_555 1_555
C4 C3 1_555 1_555
H4 C4 1_555 1_555
C5 N1 1_555 1_555
C6 N2 1_555 1_555
C7 C6 1_555 1_555
H5 C7 1_555 1_555
C8 C7 1_555 1_555
H6 C8 1_555 1_555
C9 C8 1_555 1_555
H7 C9 1_555 1_555
C10 N2 1_555 1_555
C11 N3 1_555 1_555
C12 C11 1_555 1_555
H8 C12 1_555 1_555
C13 C12 1_555 1_555
H9 C13 1_555 1_555
C14 C13 1_555 1_555
H10 C14 1_555 1_555
C15 N3 1_555 1_555
H11 C15 1_555 1_555
C16 O1 1_555 1_555
C17 C16 1_555 1_555
C18 C17 1_555 1_555
H12 C18 1_555 1_555
C19 C18 1_555 1_555
H13 C19 1_555 1_555
C20 C19 1_555 1_555
C21 C20 1_555 1_555
H14 C21 1_555 1_555
C22 C17 1_555 1_555
H15 C22 1_555 1_555
C23 O3 1_555 1_555
C24 C23 1_555 1_555
C25 C24 1_555 1_555
H16 C25 1_555 1_555
C26 C25 1_555 1_555
H17 C26 1_555 1_555
C27 C26 1_555 1_555
C28 C27 1_555 1_555
H18 C28 1_555 1_555
C29 C24 1_555 1_555
H19 C29 1_555 1_555
Cd1B N1B 1_555 1_555
Cd1A O3A 1_555 1_555
N1B C1B 1_555 1_555
N2B Cd1B 1_555 1_555
N3B Cd1B 1_555 1_555
O1B Cd1B 1_555 1_555
O2B C16B 1_555 1_555
O3A C23A 1_555 1_555
O3B Cd1B 1_555 1_555
O4A Cd1A 1_555 1_555
O4B Cd1B 1_555 1_555
C1B H1B 1_555 1_555
C2B C1B 1_555 1_555
H2B C2B 1_555 1_555
C3B C2B 1_555 1_555
H3B C3B 1_555 1_555
C4B C3B 1_555 1_555
H4B C4B 1_555 1_555
C5B N1B 1_555 1_555
C6B N2B 1_555 1_555
C7B C6B 1_555 1_555
H5B C7B 1_555 1_555
C8B C7B 1_555 1_555
H6B C8B 1_555 1_555
C9B C8B 1_555 1_555
H7B C9B 1_555 1_555
C10B N2B 1_555 1_555
C11B N3B 1_555 1_555
C12B C11B 1_555 1_555
H8B C12B 1_555 1_555
C13B C12B 1_555 1_555
H9B C13B 1_555 1_555
C14B C13B 1_555 1_555
H10B C14B 1_555 1_555
C15B N3B 1_555 1_555
H11B C15B 1_555 1_555
C16B O1B 1_555 1_555
C17B C16B 1_555 1_555
C18B C17B 1_555 1_555
H12B C18B 1_555 1_555
C19B C18B 1_555 1_555
H13B C19B 1_555 1_555
C20B C20 1_555 1_555
C21B C20B 1_555 1_555
H14B C21B 1_555 1_555
C22B C17B 1_555 1_555
H15B C22B 1_555 1_555
C23A O4A 1_555 1_555
C24A C23A 1_555 1_555
C25A C24A 1_555 1_555
H16A C25A 1_555 1_555
C26A C25A 1_555 1_555
H17A C26A 1_555 1_555
C27A C27 1_555 1_555
C28A C27A 1_555 1_555
H18A C28A 1_555 1_555
C29A C24A 1_555 1_555
H19A C29A 1_555 1_555
O4 C23 1_555 1_555
C4 C5 1_555 1_555
C5 C6 1_555 1_555
C9 C10 1_555 1_555
C10 C11 1_555 1_555
C14 C15 1_555 1_555
C21 C22 1_555 1_555
C28 C29 1_555 1_555
C4B C5B 1_555 1_555
C5B C6B 1_555 1_555
C9B C10B 1_555 1_555
C10B C11B 1_555 1_555
C14B C15B 1_555 1_555
C19B C20B 1_555 1_555
C21B C22B 1_555 1_555
C26A C27A 1_555 1_555
C28A C29A 1_555 1_555

#END
