
#######################################################################
#
#                 Cambridge Crystallographic Data Centre
#                                CCDC 
#
#######################################################################
#
# If this CIF has been generated from an entry in the Cambridge 
# Structural Database, then it will include bibliographic, chemical, 
# crystal, experimental, refinement or atomic coordinate data resulting 
# from the CCDC's data processing and validation procedures.
#
#######################################################################

data_DEMXID
_symmetry_cell_setting           triclinic
_symmetry_space_group_name_H-M   'P -1'
_symmetry_Int_Tables_number      2
_space_group_name_Hall           '-P 1'
loop_
_symmetry_equiv_pos_site_id
_symmetry_equiv_pos_as_xyz
1 x,y,z
2 -x,-y,-z
_cell_length_a                   9.7779(16)
_cell_length_b                   9.8023(15)
_cell_length_c                   17.679(3)
_cell_angle_alpha                103.344(3)
_cell_angle_beta                 93.076(3)
_cell_angle_gamma                101.911(3)
_cell_volume                     1604.06
loop_
_atom_site_label
_atom_site_type_symbol
_atom_site_fract_x
_atom_site_fract_y
_atom_site_fract_z
Cu1 Cu 0.02094(5) 0.37058(5) 0.46951(3)
Cu2 Cu 0.90579(5) -0.00685(6) 0.05072(3)
O1 O 0.2102(3) 0.4751(3) 0.45750(17)
O2 O 0.1750(3) 0.6914(3) 0.51110(18)
O3 O -0.0520(3) 0.4022(3) 0.37089(16)
O4 O -0.0889(3) 0.6191(3) 0.42185(18)
O5 O 0.8564(3) 0.1513(4) 0.01229(19)
O6 O 1.0132(4) 0.1590(4) -0.0749(2)
O7 O 1.0501(3) 0.1356(3) 0.12653(17)
O8 O 1.2075(3) 0.1465(4) 0.0410(2)
N1 N 0.0577(3) 0.1609(3) 0.4193(2)
N2 N 0.7340(4) -0.0256(5) 0.1228(2)
C1 C 0.0305(5) 0.1011(5) 0.3434(3)
H1 H -0.0184 0.1454 0.3133
C2 C 0.0691(5) -0.0207(5) 0.3064(3)
H2 H 0.0474 -0.0571 0.2527
C3 C 0.1404(4) -0.0892(4) 0.3492(3)
C4 C 0.1661(4) -0.0316(4) 0.4272(3)
H3 H 0.2117 -0.0765 0.4585
C5 C 0.1250(4) 0.0936(5) 0.4608(3)
H4 H 0.1454 0.1319 0.5144
C6 C 0.1931(4) -0.2202(4) 0.3110(3)
H5 H 0.1985 -0.2780 0.3483
H6 H 0.1258 -0.2778 0.2672
C7 C 0.3350(6) -0.1842(5) 0.2822(3)
H7 H 0.4049 -0.1597 0.3271
H8 H 0.3492 -0.2715 0.2477
C8 C 0.3639(6) -0.0777(6) 0.2439(4)
H9 H 0.3646 0.0127 0.2808
H10 H 0.2870 -0.0940 0.2036
C9 C 0.7280(6) -0.0755(9) 0.1782(4)
H11 H 0.8068 -0.1054 0.1938
C10 C 0.6122(7) -0.0935(10) 0.2226(4)
H12 H 0.6199 -0.1319 0.2656
C11 C 0.5005(7) -0.0596(6) 0.2059(4)
C12 C 0.5010(7) 0.0001(7) 0.1429(5)
H13 H 0.4216 0.0285 0.1267
C13 C 0.6189(7) 0.0181(7) 0.1035(4)
H14 H 0.6184 0.0621 0.0622
C14 C 0.2507(4) 0.6079(5) 0.4836(3)
C15 C 0.4023(5) 0.6757(6) 0.4833(3)
C16 C 0.4824(5) 0.5976(6) 0.4302(3)
H15 H 0.5807 0.6314 0.4483
H16 H 0.4658 0.6125 0.3791
H17 H 0.4542 0.4968 0.4280
C17 C 0.4612(6) 0.8059(6) 0.5333(4)
H18 H 0.5560 0.8470 0.5338
H19 H 0.4065 0.8536 0.5668
C18 C -0.0975(4) 0.5102(5) 0.3664(3)
C19 C -0.1661(5) 0.5127(5) 0.2899(3)
C20 C -0.2151(5) 0.6269(6) 0.2808(3)
H20 H -0.2626 0.6244 0.2333
H21 H -0.2016 0.7085 0.3220
C21 C -0.1846(7) 0.3829(7) 0.2273(3)
H22 H -0.2256 0.3982 0.1803
H23 H -0.2454 0.3047 0.2415
H24 H -0.0949 0.3601 0.2187
C22 C 0.9171(6) 0.2028(6) -0.0389(3)
C23 C 0.8710(6) 0.3281(7) -0.0567(3)
C24 C 0.9427(7) 0.4023(6) -0.1023(3)
H25 H 0.9146 0.4817 -0.1128
H26 H 1.0206 0.3744 -0.1235
C25 C 0.7460(7) 0.3674(6) -0.0213(4)
H27 H 0.7364 0.4584 -0.0297
H28 H 0.7572 0.3742 0.0338
H29 H 0.6634 0.2949 -0.0450
C26 C 1.1688(5) 0.1861(5) 0.1075(3)
C27 C 1.2670(5) 0.3000(5) 0.1687(3)
C28 C 1.2305(7) 0.3475(6) 0.2402(4)
H30 H 1.2925 0.4208 0.2767
H31 H 1.1431 0.3073 0.2534
C29 C 1.4019(6) 0.3574(6) 0.1435(4)
H32 H 1.4492 0.4436 0.1815
H33 H 1.3866 0.3790 0.0939
H34 H 1.4586 0.2873 0.1386
Cu1A Cu -0.02094(5) 0.62942(5) 0.53049(3)
Cu2A Cu 1.09421(5) 0.00685(6) -0.05072(3)
O2A O -0.1750(3) 0.3086(3) 0.48890(18)
O4A O 0.0889(3) 0.3809(3) 0.57815(18)
O6A O 0.9868(4) -0.1590(4) 0.0749(2)
O8A O 0.7925(3) -0.1465(4) -0.0410(2)
loop_
_geom_bond_atom_site_label_1
_geom_bond_atom_site_label_2
_geom_bond_site_symmetry_1
_geom_bond_site_symmetry_2
Cu1 O1 1_555 1_555
Cu2 O5 1_555 1_555
O1 C14 1_555 1_555
O2 C14 1_555 1_555
O3 Cu1 1_555 1_555
O4 C18 1_555 1_555
O5 C22 1_555 1_555
O6 C22 1_555 1_555
O7 Cu2 1_555 1_555
O8 C26 1_555 1_555
N1 Cu1 1_555 1_555
N2 Cu2 1_555 1_555
C1 N1 1_555 1_555
H1 C1 1_555 1_555
C2 C1 1_555 1_555
H2 C2 1_555 1_555
C3 C2 1_555 1_555
C4 C3 1_555 1_555
H3 C4 1_555 1_555
C5 N1 1_555 1_555
H4 C5 1_555 1_555
C6 C3 1_555 1_555
H5 C6 1_555 1_555
H6 C6 1_555 1_555
C7 C6 1_555 1_555
H7 C7 1_555 1_555
H8 C7 1_555 1_555
C8 C7 1_555 1_555
H9 C8 1_555 1_555
H10 C8 1_555 1_555
C9 N2 1_555 1_555
H11 C9 1_555 1_555
C10 C9 1_555 1_555
H12 C10 1_555 1_555
C11 C8 1_555 1_555
C12 C11 1_555 1_555
H13 C12 1_555 1_555
C13 N2 1_555 1_555
H14 C13 1_555 1_555
C14 C15 1_555 1_555
C15 C16 1_555 1_555
C16 H15 1_555 1_555
H16 C16 1_555 1_555
H17 C16 1_555 1_555
C17 C15 1_555 1_555
H18 C17 1_555 1_555
H19 C17 1_555 1_555
C18 O3 1_555 1_555
C19 C18 1_555 1_555
C20 C19 1_555 1_555
H20 C20 1_555 1_555
H21 C20 1_555 1_555
C21 C19 1_555 1_555
H22 C21 1_555 1_555
H23 C21 1_555 1_555
H24 C21 1_555 1_555
C22 C23 1_555 1_555
C23 C24 1_555 1_555
C24 H25 1_555 1_555
H26 C24 1_555 1_555
C25 C23 1_555 1_555
H27 C25 1_555 1_555
H28 C25 1_555 1_555
H29 C25 1_555 1_555
C26 O7 1_555 1_555
C27 C26 1_555 1_555
C28 C27 1_555 1_555
H30 C28 1_555 1_555
H31 C28 1_555 1_555
C29 C27 1_555 1_555
H32 C29 1_555 1_555
H33 C29 1_555 1_555
H34 C29 1_555 1_555
Cu1A Cu1 1_555 1_555
Cu2A Cu2 1_555 1_555
O2A Cu1 1_555 1_555
O4A Cu1 1_555 1_555
O6A Cu2 1_555 1_555
O8A Cu2 1_555 1_555
O2 Cu1A 1_555 1_555
O4 Cu1A 1_555 1_555
O6 Cu2A 1_555 1_555
O8 Cu2A 1_555 1_555
C4 C5 1_555 1_555
C10 C11 1_555 1_555
C12 C13 1_555 1_555

#END
