
#######################################################################
#
#                 Cambridge Crystallographic Data Centre
#                                CCDC 
#
#######################################################################
#
# If this CIF has been generated from an entry in the Cambridge 
# Structural Database, then it will include bibliographic, chemical, 
# crystal, experimental, refinement or atomic coordinate data resulting 
# from the CCDC's data processing and validation procedures.
#
#######################################################################

data_DENKIR
_symmetry_cell_setting           monoclinic
_symmetry_space_group_name_H-M   'P 21'
_symmetry_Int_Tables_number      4
_space_group_name_Hall           'P 2yb'
loop_
_symmetry_equiv_pos_site_id
_symmetry_equiv_pos_as_xyz
1 x,y,z
2 -x,1/2+y,-z
_cell_length_a                   10.1936(12)
_cell_length_b                   12.6787(15)
_cell_length_c                   13.7757(16)
_cell_angle_alpha                90
_cell_angle_beta                 90.954(2)
_cell_angle_gamma                90
_cell_volume                     1780.15
loop_
_atom_site_label
_atom_site_type_symbol
_atom_site_fract_x
_atom_site_fract_y
_atom_site_fract_z
Ni1 Ni 0.13587(7) -0.48108(5) -0.23942(6)
Ni2 Ni -0.12831(7) -0.49025(6) -0.26151(6)
O1 O 0.1362(5) -0.5239(5) -0.3807(4)
O2 O -0.0816(5) -0.5283(5) -0.4010(4)
O3 O 0.1969(5) -0.8458(5) -0.6976(4)
O4 O -0.0161(5) -0.8546(5) -0.7166(5)
O5 O 0.2067(5) -0.6272(5) -0.1950(4)
O6 O -0.0070(5) -0.6191(5) -0.2200(5)
O7 O 0.1259(4) -0.9522(5) 0.1196(4)
O8 O -0.0948(5) -0.9389(5) 0.1024(4)
N1 N 0.3003(5) -0.3944(7) -0.2493(5)
N2 N 0.4541(8) -0.2809(8) -0.2176(9)
N3 N 0.5630(9) 0.3019(9) -0.2940(10)
N4 N 0.7106(6) 0.4211(7) -0.2579(6)
C1 C 0.0309(7) -0.5365(6) -0.4316(6)
C2 C 0.0523(9) -0.5580(8) -0.5389(7)
C3 C -0.0669(12) -0.5604(10) -0.6042(9)
H1 H -0.0869 -0.4891 -0.6252
H2 H -0.1409 -0.5858 -0.5675
C4 C -0.0492(12) -0.6360(9) -0.7011(12)
H3 H -0.1215 -0.6848 -0.7108
H4 H -0.0352 -0.5956 -0.7599
C5 C 0.0730(9) -0.6888(7) -0.6642(6)
H5 H 0.1450 -0.6512 -0.6954
C6 C 0.0996(10) -0.6777(10) -0.5582(8)
C7 C 0.0874(7) -0.8028(7) -0.6967(5)
C8 C 0.1595(9) -0.5037(12) -0.5826(6)
H6 H 0.1468 -0.4289 -0.5767
H7 H 0.1635 -0.5223 -0.6501
H8 H 0.2401 -0.5234 -0.5504
C9 C 0.0439(16) -0.7492(9) -0.4928(9)
H9 H 0.0787 -0.8184 -0.5039
H10 H -0.0496 -0.7504 -0.5023
H11 H 0.0644 -0.7277 -0.4275
C10 C 0.2489(11) -0.6934(13) -0.5303(10)
H12 H 0.2729 -0.7658 -0.5401
H13 H 0.2632 -0.6750 -0.4633
H14 H 0.3017 -0.6490 -0.5704
C11 C 0.0941(7) -0.6692(7) -0.1938(6)
C12 C 0.0791(7) -0.7840(7) -0.1637(6)
C13 C -0.0550(10) -0.8324(10) -0.1802(7)
H15 H -0.0596 -0.8640 -0.2443
H16 H -0.1215 -0.7779 -0.1771
C14 C -0.0834(9) -0.9225(13) -0.0980(7)
H17 H -0.1619 -0.9074 -0.0616
H18 H -0.0896 -0.9926 -0.1259
C15 C 0.0392(8) -0.9085(8) -0.0375(6)
H19 H 0.1024 -0.9594 -0.0628
C16 C 0.1025(9) -0.7999(9) -0.0502(7)
C17 C 0.0247(7) -0.9361(7) 0.0717(7)
C18 C 0.1806(9) -0.8518(7) -0.2091(11)
H20 H 0.1734 -0.8462 -0.2785
H21 H 0.1676 -0.9238 -0.1900
H22 H 0.2663 -0.8290 -0.1880
C19 C 0.2477(9) -0.7983(13) -0.0164(9)
H23 H 0.2529 -0.8092 0.0525
H24 H 0.2858 -0.7313 -0.0321
H25 H 0.2946 -0.8534 -0.0487
C20 C 0.0429(17) -0.7158(11) 0.0034(9)
H26 H 0.0567 -0.7275 0.0717
H27 H -0.0495 -0.7140 -0.0110
H28 H 0.0818 -0.6499 -0.0146
C21 C 0.3911(8) -0.4039(9) -0.3213(8)
H29 H 0.3874 -0.4514 -0.3727
C22 C 0.4841(10) -0.3339(11) -0.3047(9)
H30 H 0.5564 -0.3216 -0.3434
C23 C 0.3399(9) -0.3188(9) -0.1887(8)
H31 H 0.2946 -0.2960 -0.1345
C24 C 0.5311(12) -0.1981(12) -0.1756(12)
H32 H 0.6226 -0.2192 -0.1766
H33 H 0.5071 -0.1906 -0.1081
C25 C 0.5188(10) -0.0923(11) -0.2235(11)
C26 C 0.4414(11) -0.0692(10) -0.3013(9)
H34 H 0.3882 -0.1219 -0.3275
C27 C 0.4384(9) 0.0271(13) -0.3424(10)
H35 H 0.3872 0.0374 -0.3981
C28 C 0.5082(9) 0.1105(9) -0.3048(10)
C29 C 0.5819(12) 0.0924(12) -0.2225(12)
H36 H 0.6308 0.1471 -0.1951
C30 C 0.5849(10) -0.0082(10) -0.1784(10)
H37 H 0.6302 -0.0186 -0.1201
C31 C 0.5020(15) 0.2161(11) -0.3531(13)
H38 H 0.4109 0.2338 -0.3664
H39 H 0.5461 0.2120 -0.4149
C32 C 0.6776(9) 0.3502(10) -0.3160(8)
H40 H 0.7270 0.3319 -0.3696
C33 C 0.6080(9) 0.4249(10) -0.1951(11)
H41 H 0.6014 0.4681 -0.1409
C34 C 0.5142(10) 0.3509(11) -0.2283(15)
H42 H 0.4304 0.3414 -0.2041
Ni1A Ni -0.13587(7) -0.98108(5) -0.76058(6)
Ni1A_2 Ni -0.13587(7) -0.98108(5) 0.23942(6)
Ni2_2 Ni 0.87169(7) 0.50975(6) -0.26151(6)
Ni2A Ni 0.12831(7) -0.99025(6) -0.73849(6)
Ni2A_2 Ni 0.12831(7) -0.99025(6) 0.26151(6)
O3A O -0.1969(5) -0.3458(5) -0.3024(4)
O4A O 0.0161(5) -0.3546(5) -0.2834(5)
O7A O -0.1259(4) -0.4522(5) -0.1196(4)
O8A O 0.0948(5) -0.4389(5) -0.1024(4)
N4_2 N -0.2894(6) -0.5789(7) -0.2579(6)
loop_
_geom_bond_atom_site_label_1
_geom_bond_atom_site_label_2
_geom_bond_site_symmetry_1
_geom_bond_site_symmetry_2
Ni1 O1 1_555 1_555
Ni2 O2 1_555 1_555
O1 C1 1_555 1_555
O2 C1 1_555 1_555
O3 C7 1_555 1_555
O4 C7 1_555 1_555
O5 Ni1 1_555 1_555
O6 Ni1 1_555 1_555
O7 C17 1_555 1_555
O8 C17 1_555 1_555
N1 Ni1 1_555 1_555
N2 C22 1_555 1_555
N3 C31 1_555 1_555
N4 C32 1_555 1_555
C1 C2 1_555 1_555
C2 C3 1_555 1_555
C3 H1 1_555 1_555
H2 C3 1_555 1_555
C4 C3 1_555 1_555
H3 C4 1_555 1_555
H4 C4 1_555 1_555
C5 C4 1_555 1_555
H5 C5 1_555 1_555
C6 C2 1_555 1_555
C7 C5 1_555 1_555
C8 C2 1_555 1_555
H6 C8 1_555 1_555
H7 C8 1_555 1_555
H8 C8 1_555 1_555
C9 C6 1_555 1_555
H9 C9 1_555 1_555
H10 C9 1_555 1_555
H11 C9 1_555 1_555
C10 C6 1_555 1_555
H12 C10 1_555 1_555
H13 C10 1_555 1_555
H14 C10 1_555 1_555
C11 O5 1_555 1_555
C12 C11 1_555 1_555
C13 C12 1_555 1_555
H15 C13 1_555 1_555
H16 C13 1_555 1_555
C14 C13 1_555 1_555
H17 C14 1_555 1_555
H18 C14 1_555 1_555
C15 C14 1_555 1_555
H19 C15 1_555 1_555
C16 C12 1_555 1_555
C17 C15 1_555 1_555
C18 C12 1_555 1_555
H20 C18 1_555 1_555
H21 C18 1_555 1_555
H22 C18 1_555 1_555
C19 C16 1_555 1_555
H23 C19 1_555 1_555
H24 C19 1_555 1_555
H25 C19 1_555 1_555
C20 C16 1_555 1_555
H26 C20 1_555 1_555
H27 C20 1_555 1_555
H28 C20 1_555 1_555
C21 N1 1_555 1_555
H29 C21 1_555 1_555
C22 C21 1_555 1_555
H30 C22 1_555 1_555
C23 N1 1_555 1_555
H31 C23 1_555 1_555
C24 N2 1_555 1_555
H32 C24 1_555 1_555
H33 C24 1_555 1_555
C25 C24 1_555 1_555
C26 C25 1_555 1_555
H34 C26 1_555 1_555
C27 C26 1_555 1_555
H35 C27 1_555 1_555
C28 C27 1_555 1_555
C29 C28 1_555 1_555
H36 C29 1_555 1_555
C30 C25 1_555 1_555
H37 C30 1_555 1_555
C31 C28 1_555 1_555
H38 C31 1_555 1_555
H39 C31 1_555 1_555
C32 N3 1_555 1_555
H40 C32 1_555 1_555
C33 N4 1_555 1_555
H41 C33 1_555 1_555
C34 N3 1_555 1_555
H42 C34 1_555 1_555
Ni1A O4 1_555 1_555
Ni1A_2 O8 1_555 1_555
Ni2_2 N4 1_555 1_555
Ni2A O3 1_555 1_555
Ni2A_2 O7 1_555 1_555
O3A Ni2 1_555 1_555
O4A Ni1 1_555 1_555
O7A Ni2 1_555 1_555
O8A Ni1 1_555 1_555
N4_2 Ni2 1_555 1_555
Ni2 O6 1_555 1_555
Ni2 O4A 1_555 1_555
O4 Ni2A 1_555 1_555
O6 C11 1_555 1_555
N2 C23 1_555 1_555
C5 C6 1_555 1_555
C15 C16 1_555 1_555
C29 C30 1_555 1_555
C33 C34 1_555 1_555

#END
