
#######################################################################
#
#                 Cambridge Crystallographic Data Centre
#                                CCDC 
#
#######################################################################
#
# If this CIF has been generated from an entry in the Cambridge 
# Structural Database, then it will include bibliographic, chemical, 
# crystal, experimental, refinement or atomic coordinate data resulting 
# from the CCDC's data processing and validation procedures.
#
#######################################################################

data_DENLUD
_symmetry_cell_setting           monoclinic
_symmetry_space_group_name_H-M   'P 21/c'
_symmetry_Int_Tables_number      14
_space_group_name_Hall           '-P 2ybc'
loop_
_symmetry_equiv_pos_site_id
_symmetry_equiv_pos_as_xyz
1 x,y,z
2 -x,1/2+y,1/2-z
3 -x,-y,-z
4 x,1/2-y,1/2+z
_cell_length_a                   14.097(8)
_cell_length_b                   3.747(1)
_cell_length_c                   14.251(7)
_cell_angle_alpha                90
_cell_angle_beta                 101.34(4)
_cell_angle_gamma                90
_cell_volume                     738.063
loop_
_atom_site_label
_atom_site_type_symbol
_atom_site_fract_x
_atom_site_fract_y
_atom_site_fract_z
Cu1 Cu 0.0796(1) -0.7569(5) 0.0210(1)
Cl1 Cl 0.0752(2) -1.2696(7) -0.0797(2)
N1 N -0.1808(5) -1.1799(22) -0.1391(5)
C1 C -0.1675(6) -1.2777(32) -0.2265(7)
C2 C -0.2367(6) -1.2451(31) -0.3080(6)
C3 C -0.3243(7) -1.1055(27) -0.3012(6)
C4 C -0.3411(7) -0.9975(29) -0.2119(7)
C5 C -0.2680(7) -1.0396(30) -0.1354(7)
C6 C -0.4023(7) -1.0637(31) -0.3878(7)
O1 O -0.4818(5) -0.9169(24) -0.3796(5)
O2 O -0.3846(5) -1.1704(24) -0.4668(5)
H1 H -0.1059 -1.3755 -0.2319
H2 H -0.2239 -1.3195 -0.3688
H3 H -0.4020 -0.8974 -0.2051
H4 H -0.2791 -0.9640 -0.0741
Cu1B Cu -0.0796(1) -1.2431(5) -0.0210(1)
Cu1_2 Cu 0.0796(1) -1.7569(5) 0.0210(1)
Cu1B_2 Cu -0.0796(1) -0.2431(5) -0.0210(1)
Cl1_2 Cl 0.0752(2) -0.2696(7) -0.0797(2)
Cl1B Cl -0.0752(2) -0.7304(7) 0.0797(2)
Cl1B_2 Cl -0.0752(2) -1.7304(7) 0.0797(2)
N1B N 0.1808(5) -0.8201(22) 0.1391(5)
C1B C 0.1675(6) -0.7223(32) 0.2265(7)
C2B C 0.2367(6) -0.7549(31) 0.3080(6)
C3B C 0.3243(7) -0.8945(27) 0.3012(6)
C4B C 0.3411(7) -1.0025(29) 0.2119(7)
C5B C 0.2680(7) -0.9604(30) 0.1354(7)
C6B C 0.4023(7) -0.9363(31) 0.3878(7)
O1B O 0.4818(5) -1.0831(24) 0.3796(5)
O2B O 0.3846(5) -0.8296(24) 0.4668(5)
H1B H 0.1059 -0.6245 0.2319
H2B H 0.2239 -0.6805 0.3688
H3B H 0.4020 -1.1026 0.2051
H4B H 0.2791 -1.0360 0.0741
loop_
_geom_bond_atom_site_label_1
_geom_bond_atom_site_label_2
_geom_bond_site_symmetry_1
_geom_bond_site_symmetry_2
Cu1 Cl1 1_555 1_555
Cl1 Cu1B 1_555 1_555
N1 C1 1_555 1_555
C1 C2 1_555 1_555
C2 C3 1_555 1_555
C3 C4 1_555 1_555
C4 C5 1_555 1_555
C5 N1 1_555 1_555
C6 C3 1_555 1_555
O1 C6 1_555 1_555
O2 C6 1_555 1_555
H1 C1 1_555 1_555
H2 C2 1_555 1_555
H3 C4 1_555 1_555
H4 C5 1_555 1_555
Cu1B N1 1_555 1_555
Cu1_2 Cl1 1_555 1_555
Cu1B_2 Cl1_2 1_555 1_555
Cl1_2 Cu1 1_555 1_555
Cl1B Cu1 1_555 1_555
Cl1B_2 Cu1B 1_555 1_555
N1B Cu1 1_555 1_555
C1B N1B 1_555 1_555
C2B C1B 1_555 1_555
C3B C2B 1_555 1_555
C4B C3B 1_555 1_555
C5B N1B 1_555 1_555
C6B C3B 1_555 1_555
O1B C6B 1_555 1_555
O2B C6B 1_555 1_555
H1B C1B 1_555 1_555
H2B C2B 1_555 1_555
H3B C4B 1_555 1_555
H4B C5B 1_555 1_555
Cu1B Cl1B 1_555 1_555
Cu1_2 Cl1B_2 1_555 1_555
Cu1B_2 Cl1B 1_555 1_555
C4B C5B 1_555 1_555

#END
