
#######################################################################
#
#                 Cambridge Crystallographic Data Centre
#                                CCDC 
#
#######################################################################
#
# If this CIF has been generated from an entry in the Cambridge 
# Structural Database, then it will include bibliographic, chemical, 
# crystal, experimental, refinement or atomic coordinate data resulting 
# from the CCDC's data processing and validation procedures.
#
#######################################################################

data_DENLUD02
_symmetry_cell_setting           monoclinic
_symmetry_space_group_name_H-M   'P 21'
_symmetry_Int_Tables_number      4
_space_group_name_Hall           'P 2yb'
loop_
_symmetry_equiv_pos_site_id
_symmetry_equiv_pos_as_xyz
1 x,y,z
2 -x,1/2+y,-z
_cell_length_a                   7.111(4)
_cell_length_b                   3.727(2)
_cell_length_c                   14.084(8)
_cell_angle_alpha                90
_cell_angle_beta                 101.357(10)
_cell_angle_gamma                90
_cell_volume                     365.955
loop_
_atom_site_label
_atom_site_type_symbol
_atom_site_fract_x
_atom_site_fract_y
_atom_site_fract_z
Cu1 Cu -0.4581(2) 1.0625(6) 0.07999(11)
Cl1 Cl -0.3400(4) 1.0548(13) -0.07500(19)
O1 O 0.4360(15) 1.077(8) 0.3864(8)
H1 H 0.5290 0.9436 0.3900
O2 O 0.2636(18) 0.724(4) 0.4798(8)
N1 N -0.2227(9) 1.010(3) 0.1829(5)
C1 C -0.0426(10) 1.097(3) 0.1652(4)
H2 H -0.0309 1.1909 0.1055
C2 C 0.1199(8) 1.043(4) 0.2367(5)
H3 H 0.2403 1.1012 0.2249
C3 C 0.1023(10) 0.902(3) 0.3260(5)
C4 C -0.0777(13) 0.816(3) 0.3437(5)
H4 H -0.0895 0.7215 0.4034
C5 C -0.2402(10) 0.869(3) 0.2722(6)
H5 H -0.3607 0.8112 0.2840
C6 C 0.276(2) 0.876(4) 0.4050(10)
Cu1A Cu -0.5419(2) 0.5625(6) -0.07999(11)
Cu1A_2 Cu -0.5419(2) 1.5625(6) -0.07999(11)
Cl1A Cl -0.6600(4) 0.5548(13) 0.07500(19)
Cl1A_2 Cl -0.6600(4) 1.5548(13) 0.07500(19)
loop_
_geom_bond_atom_site_label_1
_geom_bond_atom_site_label_2
_geom_bond_site_symmetry_1
_geom_bond_site_symmetry_2
Cu1 Cl1 1_555 1_555
Cl1 Cu1A 1_555 1_555
O1 H1 1_555 1_555
O2 C6 1_555 1_555
N1 Cu1 1_555 1_555
C1 N1 1_555 1_555
H2 C1 1_555 1_555
C2 C1 1_555 1_555
H3 C2 1_555 1_555
C3 C2 1_555 1_555
C4 C3 1_555 1_555
H4 C4 1_555 1_555
C5 N1 1_555 1_555
H5 C5 1_555 1_555
C6 O1 1_555 1_555
Cu1A Cl1A 1_555 1_555
Cu1A_2 Cl1 1_555 1_555
Cl1A Cu1 1_555 1_555
Cl1A_2 Cu1 1_555 1_555
C3 C6 1_555 1_555
C4 C5 1_555 1_555
Cu1A_2 Cl1A_2 1_555 1_555

#END
