
#######################################################################
#
#                 Cambridge Crystallographic Data Centre
#                                CCDC 
#
#######################################################################
#
# If this CIF has been generated from an entry in the Cambridge 
# Structural Database, then it will include bibliographic, chemical, 
# crystal, experimental, refinement or atomic coordinate data resulting 
# from the CCDC's data processing and validation procedures.
#
#######################################################################

data_DENTOG
_symmetry_cell_setting           monoclinic
_symmetry_space_group_name_H-M   'P 21/c'
_symmetry_Int_Tables_number      14
_space_group_name_Hall           '-P 2ybc'
loop_
_symmetry_equiv_pos_site_id
_symmetry_equiv_pos_as_xyz
1 x,y,z
2 -x,1/2+y,1/2-z
3 -x,-y,-z
4 x,1/2-y,1/2+z
_cell_length_a                   12.029(3)
_cell_length_b                   11.995(3)
_cell_length_c                   9.153(2)
_cell_angle_alpha                90
_cell_angle_beta                 91.951(6)
_cell_angle_gamma                90
_cell_volume                     1319.9
loop_
_atom_site_label
_atom_site_type_symbol
_atom_site_fract_x
_atom_site_fract_y
_atom_site_fract_z
Ni1 Ni 0.0000 0.0000 0.5000
O1 O 0.1005(3) -0.1308(3) 0.5687(4)
H1 H 0.086(5) -0.198(2) 0.516(4)
H2 H 0.086(5) -0.157(4) 0.665(2)
N1 N 0.0614(3) 0.0928(4) 0.6938(5)
H3 H 0.0213 0.1561 0.6964
H4 H 0.0425 0.0524 0.7720
N2 N 0.8689(3) -0.0657(4) 0.6274(5)
H5 H 0.8381 -0.1226 0.5762
H6 H 0.9010 -0.0954 0.7087
C1 C 0.7873(5) 0.0603(5) 0.8039(6)
H7 H 0.8510 0.0522 0.8633
C2 C 0.3284(5) 0.2501(5) 0.6831(7)
H8 H 0.3556 0.3144 0.6401
C3 C 0.1768(4) 0.1251(4) 0.7192(6)
C4 C 0.6074(4) 0.1437(5) 0.7598(6)
C5 C 0.2467(5) 0.0597(5) 0.8054(6)
H9 H 0.2201 -0.0051 0.8478
C6 C 0.2181(4) 0.2203(4) 0.6572(6)
H10 H 0.1720 0.2647 0.5979
C7 C 0.7791(4) 0.0039(4) 0.6734(6)
C8 C 0.5995(5) 0.0857(5) 0.6308(7)
H11 H 0.5358 0.0936 0.5712
C9 C 0.3569(5) 0.0911(5) 0.8285(7)
H12 H 0.4038 0.0454 0.8850
C10 C 0.3987(4) 0.1864(5) 0.7713(7)
C11 C 0.5177(5) 0.2238(6) 0.8067(8)
H13 H 0.5296 0.2952 0.7600
H14 H 0.5261 0.2351 0.9115
C12 C 0.7029(5) 0.1285(5) 0.8483(7)
H15 H 0.7097 0.1648 0.9379
C13 C 0.6831(4) 0.0161(5) 0.5867(6)
H16 H 0.6752 -0.0226 0.4990
Ni1_2 Ni 1.0000 0.0000 0.5000
Ni1_3 Ni -1.0000 0.0000 0.5000
O1B O -0.1005(3) 0.1308(3) 0.4313(4)
H1B H -0.086(5) 0.198(2) 0.484(4)
H2B H -0.086(5) 0.157(4) 0.335(2)
N1B N -0.0614(3) -0.0928(4) 0.3062(5)
H3B H -0.0213 -0.1561 0.3036
H4B H -0.0425 -0.0524 0.2280
N2B N -0.8689(3) 0.0657(4) 0.3726(5)
N2_2 N -0.1311(3) -0.0657(4) 0.6274(5)
N2B_2 N 0.1311(3) 0.0657(4) 0.3726(5)
H5B H -0.8381 0.1226 0.4238
H5_2 H -0.1619 -0.1226 0.5762
H5B_2 H 0.1619 0.1226 0.4238
H6B H -0.9010 0.0954 0.2913
H6_2 H -0.0990 -0.0954 0.7087
H6B_2 H 0.0990 0.0954 0.2913
C1B C -0.7873(5) -0.0603(5) 0.1961(6)
H7B H -0.8510 -0.0522 0.1367
C2B C -0.3284(5) -0.2501(5) 0.3169(7)
H8B H -0.3556 -0.3144 0.3599
C3B C -0.1768(4) -0.1251(4) 0.2808(6)
C4B C -0.6074(4) -0.1437(5) 0.2402(6)
C5B C -0.2467(5) -0.0597(5) 0.1946(6)
H9B H -0.2201 0.0051 0.1522
C6B C -0.2181(4) -0.2203(4) 0.3428(6)
H10B H -0.1720 -0.2647 0.4021
C7B C -0.7791(4) -0.0039(4) 0.3266(6)
C8B C -0.5995(5) -0.0857(5) 0.3692(7)
H11B H -0.5358 -0.0936 0.4288
C9B C -0.3569(5) -0.0911(5) 0.1715(7)
H12B H -0.4038 -0.0454 0.1150
C10B C -0.3987(4) -0.1864(5) 0.2287(7)
C11B C -0.5177(5) -0.2238(6) 0.1933(8)
H13B H -0.5296 -0.2952 0.2400
H14B H -0.5261 -0.2351 0.0885
C12B C -0.7029(5) -0.1285(5) 0.1517(7)
H15B H -0.7097 -0.1648 0.0621
C13B C -0.6831(4) -0.0161(5) 0.4133(6)
H16B H -0.6752 0.0226 0.5010
Cl1 Cl 0.95571(13) 0.34589(12) 0.60461(16)
loop_
_geom_bond_atom_site_label_1
_geom_bond_atom_site_label_2
_geom_bond_site_symmetry_1
_geom_bond_site_symmetry_2
Ni1 O1 1_555 1_555
O1 H1 1_555 1_555
H2 O1 1_555 1_555
N1 Ni1 1_555 1_555
H3 N1 1_555 1_555
H4 N1 1_555 1_555
N2 H5 1_555 1_555
H6 N2 1_555 1_555
C1 H7 1_555 1_555
C2 H8 1_555 1_555
C3 N1 1_555 1_555
C4 C8 1_555 1_555
C5 C3 1_555 1_555
H9 C5 1_555 1_555
C6 C2 1_555 1_555
H10 C6 1_555 1_555
C7 N2 1_555 1_555
C8 H11 1_555 1_555
C9 C5 1_555 1_555
H12 C9 1_555 1_555
C10 C2 1_555 1_555
C11 C4 1_555 1_555
H13 C11 1_555 1_555
H14 C11 1_555 1_555
C12 C1 1_555 1_555
H15 C12 1_555 1_555
C13 C7 1_555 1_555
H16 C13 1_555 1_555
Ni1_2 N2 1_555 1_555
Ni1_3 N2B 1_555 1_555
O1B Ni1 1_555 1_555
H1B O1B 1_555 1_555
H2B O1B 1_555 1_555
N1B Ni1 1_555 1_555
H3B N1B 1_555 1_555
H4B N1B 1_555 1_555
N2B H5B 1_555 1_555
N2_2 Ni1 1_555 1_555
N2B_2 Ni1 1_555 1_555
H5_2 N2_2 1_555 1_555
H5B_2 N2B_2 1_555 1_555
H6B N2B 1_555 1_555
H6_2 N2_2 1_555 1_555
H6B_2 N2B_2 1_555 1_555
C1B H7B 1_555 1_555
C2B H8B 1_555 1_555
C3B N1B 1_555 1_555
C4B C8B 1_555 1_555
C5B C3B 1_555 1_555
H9B C5B 1_555 1_555
C6B C2B 1_555 1_555
H10B C6B 1_555 1_555
C7B N2B 1_555 1_555
C8B H11B 1_555 1_555
C9B C5B 1_555 1_555
H12B C9B 1_555 1_555
C10B C2B 1_555 1_555
C11B C4B 1_555 1_555
H13B C11B 1_555 1_555
H14B C11B 1_555 1_555
C12B C1B 1_555 1_555
H15B C12B 1_555 1_555
C13B C7B 1_555 1_555
H16B C13B 1_555 1_555
C1 C7 1_555 1_555
C3 C6 1_555 1_555
C4 C12 1_555 1_555
C8 C13 1_555 1_555
C9 C10 1_555 1_555
C10 C11 1_555 1_555
C1B C7B 1_555 1_555
C3B C6B 1_555 1_555
C4B C12B 1_555 1_555
C8B C13B 1_555 1_555
C9B C10B 1_555 1_555
C10B C11B 1_555 1_555

#END
