
#######################################################################
#
#                 Cambridge Crystallographic Data Centre
#                                CCDC 
#
#######################################################################
#
# If this CIF has been generated from an entry in the Cambridge 
# Structural Database, then it will include bibliographic, chemical, 
# crystal, experimental, refinement or atomic coordinate data resulting 
# from the CCDC's data processing and validation procedures.
#
#######################################################################

data_DENTAS
_symmetry_cell_setting           orthorhombic
_symmetry_space_group_name_H-M   'I m 2 m'
_symmetry_Int_Tables_number      44
_space_group_name_Hall           'I -2 -2'
loop_
_symmetry_equiv_pos_site_id
_symmetry_equiv_pos_as_xyz
1 x,y,z
2 x,y,-z
3 -x,y,z
4 -x,y,-z
5 1/2+x,1/2+y,1/2+z
6 1/2+x,1/2+y,1/2-z
7 1/2-x,1/2+y,1/2+z
8 1/2-x,1/2+y,1/2-z
_cell_length_a                   12.7148(8)
_cell_length_b                   4.4248(3)
_cell_length_c                   11.6928(7)
_cell_angle_alpha                90
_cell_angle_beta                 90
_cell_angle_gamma                90
_cell_volume                     657.842
loop_
_atom_site_label
_atom_site_type_symbol
_atom_site_fract_x
_atom_site_fract_y
_atom_site_fract_z
Co1 Co 0.0000 -0.80011(19) 0.0000
Cl1 Cl 0.0000 -0.5273(3) 0.16228(9)
N1 N -0.1378(2) -1.0418(8) 0.0000
H1 H -0.1395 -1.1614 -0.0622
C1 C -0.4029(3) -0.4622(9) 0.0000
C2 C -0.2292(3) -0.8500(10) 0.0000
C3 C -0.2724(2) -0.7523(8) 0.1005(3)
H2 H -0.2434 -0.8149 0.1696
C4 C -0.3586(2) -0.5616(7) 0.1009(3)
H3 H -0.3872 -0.4995 0.1702
C5 C -0.5000 -0.270(2) 0.0000
H4 H -0.5000 -0.1409 -0.0671
Co1_2 Co -1.0000 -0.80011(19) 0.0000
Cl1A Cl 0.0000 -0.5273(3) -0.16228(9)
N1B N -0.8622(2) -1.0418(8) 0.0000
N1B_2 N 0.1378(2) -1.0418(8) 0.0000
H1A H -0.1395 -1.1614 0.0622
H1B H -0.8605 -1.1614 -0.0622
H1C H -0.8605 -1.1614 0.0622
H1B_2 H 0.1395 -1.1614 -0.0622
H1C_2 H 0.1395 -1.1614 0.0622
C1B C -0.5971(3) -0.4622(9) 0.0000
C2B C -0.7708(3) -0.8500(10) 0.0000
C3A C -0.2724(2) -0.7523(8) -0.1005(3)
C3B C -0.7276(2) -0.7523(8) 0.1005(3)
C3C C -0.7276(2) -0.7523(8) -0.1005(3)
H2A H -0.2434 -0.8149 -0.1696
H2C H -0.7566 -0.8149 -0.1696
H2B H -0.7566 -0.8149 0.1696
C4A C -0.3586(2) -0.5616(7) -0.1009(3)
C4B C -0.6414(2) -0.5616(7) 0.1009(3)
C4C C -0.6414(2) -0.5616(7) -0.1009(3)
H3A H -0.3872 -0.4995 -0.1702
H3C H -0.6128 -0.4995 -0.1702
H3B H -0.6128 -0.4995 0.1702
H4A H -0.5000 -0.1409 0.0671
loop_
_geom_bond_atom_site_label_1
_geom_bond_atom_site_label_2
_geom_bond_site_symmetry_1
_geom_bond_site_symmetry_2
Co1 Cl1 1_555 1_555
N1 Co1 1_555 1_555
H1 N1 1_555 1_555
C1 C4 1_555 1_555
C2 N1 1_555 1_555
C3 C2 1_555 1_555
H2 C3 1_555 1_555
C4 C3 1_555 1_555
H3 C4 1_555 1_555
C5 C1 1_555 1_555
H4 C5 1_555 1_555
Co1_2 N1B 1_555 1_555
Cl1A Co1 1_555 1_555
N1B H1B 1_555 1_555
N1B_2 Co1 1_555 1_555
H1A N1 1_555 1_555
H1C N1B 1_555 1_555
H1B_2 N1B_2 1_555 1_555
H1C_2 N1B_2 1_555 1_555
C1B C5 1_555 1_555
C2B N1B 1_555 1_555
C3A C2 1_555 1_555
C3B C2B 1_555 1_555
C3C C2B 1_555 1_555
H2A C3A 1_555 1_555
H2C C3C 1_555 1_555
H2B C3B 1_555 1_555
C4A C1 1_555 1_555
C4B C1B 1_555 1_555
C4C C1B 1_555 1_555
H3A C4A 1_555 1_555
H3C C4C 1_555 1_555
H3B C4B 1_555 1_555
H4A C5 1_555 1_555
C3A C4A 1_555 1_555
C3B C4B 1_555 1_555
C3C C4C 1_555 1_555

#END
