
#######################################################################
#
#                 Cambridge Crystallographic Data Centre
#                                CCDC 
#
#######################################################################
#
# If this CIF has been generated from an entry in the Cambridge 
# Structural Database, then it will include bibliographic, chemical, 
# crystal, experimental, refinement or atomic coordinate data resulting 
# from the CCDC's data processing and validation procedures.
#
#######################################################################

data_DENTEW02
_symmetry_cell_setting           triclinic
_symmetry_space_group_name_H-M   'P -1'
_symmetry_Int_Tables_number      2
_space_group_name_Hall           '-P 1'
loop_
_symmetry_equiv_pos_site_id
_symmetry_equiv_pos_as_xyz
1 x,y,z
2 -x,-y,-z
_cell_length_a                   6.4441(12)
_cell_length_b                   10.0237(19)
_cell_length_c                   12.366(2)
_cell_angle_alpha                104.701(4)
_cell_angle_beta                 95.868(4)
_cell_angle_gamma                94.544(4)
_cell_volume                     763.964
loop_
_atom_site_label
_atom_site_type_symbol
_atom_site_fract_x
_atom_site_fract_y
_atom_site_fract_z
Cd1 Cd 0.27301(3) 0.58291(2) 0.051204(18)
Cl1 Cl 0.07217(12) 0.34952(8) 0.05611(7)
Cl2 Cl 0.37753(12) 0.45823(9) -0.15117(6)
N1 N 0.4438(4) 0.7825(3) 0.0112(2)
H1 H 0.5754 0.7652 -0.0013
H2 H 0.3770 0.7921 -0.0534
C1 C 0.4560(5) 0.9115(3) 0.0938(3)
C2 C 0.2796(6) 0.9810(4) 0.1078(3)
H3 H 0.1546 0.9447 0.0613
C3 C 0.5795(9) 1.3004(4) 0.4641(3)
C4 C 0.2880(7) 1.1038(4) 0.1904(3)
H4 H 0.1672 1.1485 0.1988
C5 C 0.4695(8) 1.1624(4) 0.2607(3)
C6 C 0.6422(8) 1.0929(5) 0.2455(3)
H5 H 0.7666 1.1304 0.2921
C7 C 0.6410(6) 0.9684(4) 0.1632(3)
H6 H 0.7623 0.9243 0.1552
C8 C 0.4776(11) 1.3009(5) 0.3488(3)
H7 H 0.5544 1.3721 0.3235
H8 H 0.3357 1.3252 0.3546
C9 C 0.7494(9) 1.3913(5) 0.5182(4)
H9 H 0.8030 1.4557 0.4829
C10 C 0.4996(10) 1.2105(6) 0.5196(4)
H10 H 0.3789 1.1508 0.4871
C11 C 0.8457(7) 1.3913(5) 0.6242(4)
H11 H 0.9592 1.4565 0.6591
C12 C 0.5990(10) 1.2075(5) 0.6260(4)
H12 H 0.5445 1.1441 0.6619
C13 C 0.7740(6) 1.2960(4) 0.6773(3)
N2 N 0.8648(5) 1.2948(3) 0.7874(2)
H13 H 1.0012 1.3272 0.7947
H14 H 0.8603 1.2055 0.7893
Cd1A Cd -0.27301(3) 0.41709(2) -0.051204(18)
Cd1A_2 Cd 0.72699(3) 0.41709(2) -0.051204(18)
Cd1A_3 Cd 0.72699(3) 1.41709(2) 0.948796(18)
Cl1A Cl -0.07217(12) 0.65048(8) -0.05611(7)
Cl2A Cl 0.62247(12) 0.54177(9) 0.15117(6)
N2A N 0.1352(5) 0.7052(3) 0.2126(2)
H13A H -0.0012 0.6728 0.2053
H14A H 0.1397 0.7945 0.2107
loop_
_geom_bond_atom_site_label_1
_geom_bond_atom_site_label_2
_geom_bond_site_symmetry_1
_geom_bond_site_symmetry_2
Cd1 Cl1 1_555 1_555
Cl1 Cd1A 1_555 1_555
Cl2 Cd1 1_555 1_555
N1 Cd1 1_555 1_555
H1 N1 1_555 1_555
H2 N1 1_555 1_555
C1 N1 1_555 1_555
C2 C1 1_555 1_555
H3 C2 1_555 1_555
C3 C8 1_555 1_555
C4 C2 1_555 1_555
H4 C4 1_555 1_555
C5 C4 1_555 1_555
C6 C5 1_555 1_555
H5 C6 1_555 1_555
C7 C1 1_555 1_555
H6 C7 1_555 1_555
C8 C5 1_555 1_555
H7 C8 1_555 1_555
H8 C8 1_555 1_555
C9 C3 1_555 1_555
H9 C9 1_555 1_555
C10 C3 1_555 1_555
H10 C10 1_555 1_555
C11 C9 1_555 1_555
H11 C11 1_555 1_555
C12 C10 1_555 1_555
H12 C12 1_555 1_555
C13 C11 1_555 1_555
N2 C13 1_555 1_555
H13 N2 1_555 1_555
H14 N2 1_555 1_555
Cd1A Cl1A 1_555 1_555
Cd1A_2 Cl2 1_555 1_555
Cd1A_3 N2 1_555 1_555
Cl1A Cd1 1_555 1_555
Cl2A Cd1 1_555 1_555
N2A Cd1 1_555 1_555
H13A N2A 1_555 1_555
H14A N2A 1_555 1_555
C6 C7 1_555 1_555
C12 C13 1_555 1_555
Cd1A_2 Cl2A 1_555 1_555

#END
