
#######################################################################
#
#                 Cambridge Crystallographic Data Centre
#                                CCDC 
#
#######################################################################
#
# If this CIF has been generated from an entry in the Cambridge 
# Structural Database, then it will include bibliographic, chemical, 
# crystal, experimental, refinement or atomic coordinate data resulting 
# from the CCDC's data processing and validation procedures.
#
#######################################################################

data_DENTIA
_symmetry_cell_setting           orthorhombic
_symmetry_space_group_name_H-M   'P c c a'
_symmetry_Int_Tables_number      54
_space_group_name_Hall           '-P 2a 2ac'
loop_
_symmetry_equiv_pos_site_id
_symmetry_equiv_pos_as_xyz
1 x,y,z
2 1/2-x,-y,z
3 1/2+x,-y,1/2-z
4 -x,y,1/2-z
5 -x,-y,-z
6 1/2+x,y,-z
7 1/2-x,y,1/2+z
8 x,-y,1/2+z
_cell_length_a                   25.028(3)
_cell_length_b                   4.4533(5)
_cell_length_c                   11.8686(14)
_cell_angle_alpha                90
_cell_angle_beta                 90
_cell_angle_gamma                90
_cell_volume                     1322.84
loop_
_atom_site_label
_atom_site_type_symbol
_atom_site_fract_x
_atom_site_fract_y
_atom_site_fract_z
Ag1 Ag 0.2500 0.0000 0.09048(11)
C1 C 0.1297(3) 0.003(3) 0.1590(9)
N1 N 0.1720(3) -0.2003(17) 0.1303(7)
H1 H 0.1615 -0.3094 0.0705
H2 H 0.1765 -0.3282 0.1883
C2 C 0.1273(3) 0.131(2) 0.2648(8)
H3 H 0.1532 0.0857 0.3182
C3 C 0.0469(3) 0.3962(18) 0.2167(8)
C4 C 0.0913(3) 0.0784(17) 0.0804(8)
H4 H 0.0929 0.0011 0.0077
C5 C 0.0000 0.587(3) 0.2500
H5 H -0.0100 0.7153 0.1873
C6 C 0.0506(3) 0.270(2) 0.1114(8)
H6 H 0.0244 0.3167 0.0585
C7 C 0.0866(3) 0.325(2) 0.2913(8)
H7 H 0.0860 0.4116 0.3626
O1 O 0.2130(3) 0.379(2) -0.0654(7)
O2 O 0.2500 0.5000 -0.2199(9)
N2 N 0.2500 0.5000 -0.1174(10)
Ag1B Ag -0.2500 0.0000 0.40952(11)
Ag1_2 Ag 0.2500 1.0000 0.09048(11)
C1C C -0.1297(3) 0.003(3) 0.3410(9)
N1C N -0.1720(3) -0.2003(17) 0.3697(7)
N1A N 0.3280(3) 0.2003(17) 0.1303(7)
H1C H -0.1615 -0.3094 0.4295
H1A H 0.3385 0.3094 0.0705
H2C H -0.1765 -0.3282 0.3117
H2A H 0.3235 0.3282 0.1883
C2C C -0.1273(3) 0.131(2) 0.2352(8)
H3C H -0.1532 0.0857 0.1818
C3C C -0.0469(3) 0.3962(18) 0.2833(8)
C4C C -0.0913(3) 0.0784(17) 0.4196(8)
H4C H -0.0929 0.0011 0.4923
H5C H 0.0100 0.7153 0.3127
C6C C -0.0506(3) 0.270(2) 0.3886(8)
H6C H -0.0244 0.3167 0.4415
C7C C -0.0866(3) 0.325(2) 0.2087(8)
H7C H -0.0860 0.4116 0.1374
O1A O 0.2870(3) 0.621(2) -0.0654(7)
O1A_2 O 0.2870(3) -0.379(2) -0.0654(7)
loop_
_geom_bond_atom_site_label_1
_geom_bond_atom_site_label_2
_geom_bond_site_symmetry_1
_geom_bond_site_symmetry_2
Ag1 N1 1_555 1_555
C1 N1 1_555 1_555
N1 H1 1_555 1_555
H2 N1 1_555 1_555
C2 C1 1_555 1_555
H3 C2 1_555 1_555
C3 C5 1_555 1_555
C4 C1 1_555 1_555
H4 C4 1_555 1_555
C5 H5 1_555 1_555
C6 C3 1_555 1_555
H6 C6 1_555 1_555
C7 C2 1_555 1_555
H7 C7 1_555 1_555
O1 Ag1 1_555 1_555
O2 N2 1_555 1_555
N2 O1 1_555 1_555
Ag1B N1C 1_555 1_555
Ag1_2 O1A 1_555 1_555
C1C N1C 1_555 1_555
N1C H1C 1_555 1_555
N1A Ag1 1_555 1_555
H1A N1A 1_555 1_555
H2C N1C 1_555 1_555
H2A N1A 1_555 1_555
C2C C1C 1_555 1_555
H3C C2C 1_555 1_555
C3C C5 1_555 1_555
C4C C1C 1_555 1_555
H4C C4C 1_555 1_555
H5C C5 1_555 1_555
C6C C3C 1_555 1_555
H6C C6C 1_555 1_555
C7C C2C 1_555 1_555
H7C C7C 1_555 1_555
O1A N2 1_555 1_555
O1A_2 Ag1 1_555 1_555
C3 C7 1_555 1_555
C4 C6 1_555 1_555
C3C C7C 1_555 1_555
C4C C6C 1_555 1_555

#END
