
#######################################################################
#
#                 Cambridge Crystallographic Data Centre
#                                CCDC 
#
#######################################################################
#
# If this CIF has been generated from an entry in the Cambridge 
# Structural Database, then it will include bibliographic, chemical, 
# crystal, experimental, refinement or atomic coordinate data resulting 
# from the CCDC's data processing and validation procedures.
#
#######################################################################

data_DENTEW
_symmetry_cell_setting           monoclinic
_symmetry_space_group_name_H-M   'P 2/c'
_symmetry_Int_Tables_number      13
_space_group_name_Hall           '-P 2yc'
loop_
_symmetry_equiv_pos_site_id
_symmetry_equiv_pos_as_xyz
1 x,y,z
2 -x,y,1/2-z
3 -x,-y,-z
4 x,-y,1/2+z
_cell_length_a                   13.3881(10)
_cell_length_b                   4.2929(3)
_cell_length_c                   12.2521(9)
_cell_angle_alpha                90
_cell_angle_beta                 108.273(2)
_cell_angle_gamma                90
_cell_volume                     668.665
loop_
_atom_site_label
_atom_site_type_symbol
_atom_site_fract_x
_atom_site_fract_y
_atom_site_fract_z
Cd1 Cd 0.5000 0.04279(5) 0.2500
Cl1 Cl 0.42390(4) -0.37469(13) 0.10099(4)
N1 N 0.64246(12) 0.2030(4) 0.20198(15)
H1 H 0.6192 0.2618 0.1278
H2 H 0.6673 0.3754 0.2434
C1 C 0.73041(15) -0.0011(4) 0.21494(18)
C2 C 0.80071(17) -0.0622(5) 0.32281(18)
H3 H 0.7902 0.0254 0.3878
C3 C 0.88633(14) -0.2532(5) 0.33384(17)
H4 H 0.9333 -0.2915 0.4066
C4 C 0.90375(14) -0.3895(4) 0.23844(19)
C5 C 0.83068(16) -0.3348(5) 0.13232(18)
H5 H 0.8393 -0.4296 0.0676
C6 C 0.74486(15) -0.1421(5) 0.11998(17)
H6 H 0.6969 -0.1078 0.0475
C7 C 1.0000 -0.5867(7) 0.2500
H7 H 1.0129 -0.7196 0.3170
Cd1_2 Cd 1.5000 0.04279(5) 0.2500
Cl1A Cl 0.57610(4) -0.37469(13) 0.39901(4)
N1A N 1.35754(12) 0.2030(4) 0.29802(15)
N1A_2 N 0.35754(12) 0.2030(4) 0.29802(15)
H1A H 1.3808 0.2618 0.3722
H1A_2 H 0.3808 0.2618 0.3722
H2A H 1.3327 0.3754 0.2566
H2A_2 H 0.3327 0.3754 0.2566
C1A C 1.26959(15) -0.0011(4) 0.28506(18)
C2A C 1.19929(17) -0.0622(5) 0.17719(18)
H3A H 1.2098 0.0254 0.1122
C3A C 1.11367(14) -0.2532(5) 0.16616(17)
H4A H 1.0667 -0.2915 0.0934
C4A C 1.09625(14) -0.3895(4) 0.26156(19)
C5A C 1.16932(16) -0.3348(5) 0.36768(18)
H5A H 1.1607 -0.4296 0.4324
C6A C 1.25514(15) -0.1421(5) 0.38002(17)
H6A H 1.3031 -0.1078 0.4525
H7A H 0.9871 -0.7196 0.1830
loop_
_geom_bond_atom_site_label_1
_geom_bond_atom_site_label_2
_geom_bond_site_symmetry_1
_geom_bond_site_symmetry_2
Cd1 Cl1 1_555 1_555
N1 Cd1 1_555 1_555
H1 N1 1_555 1_555
H2 N1 1_555 1_555
C1 N1 1_555 1_555
C2 C1 1_555 1_555
H3 C2 1_555 1_555
C3 C2 1_555 1_555
H4 C3 1_555 1_555
C4 C3 1_555 1_555
C5 C4 1_555 1_555
H5 C5 1_555 1_555
C6 C1 1_555 1_555
H6 C6 1_555 1_555
C7 C4 1_555 1_555
H7 C7 1_555 1_555
Cd1_2 N1A 1_555 1_555
Cl1A Cd1 1_555 1_555
N1A H1A 1_555 1_555
N1A_2 Cd1 1_555 1_555
H1A_2 N1A_2 1_555 1_555
H2A N1A 1_555 1_555
H2A_2 N1A_2 1_555 1_555
C1A N1A 1_555 1_555
C2A C1A 1_555 1_555
H3A C2A 1_555 1_555
C3A C2A 1_555 1_555
H4A C3A 1_555 1_555
C4A C7 1_555 1_555
C5A C4A 1_555 1_555
H5A C5A 1_555 1_555
C6A C1A 1_555 1_555
H6A C6A 1_555 1_555
H7A C7 1_555 1_555
C5 C6 1_555 1_555
C3A C4A 1_555 1_555
C5A C6A 1_555 1_555

#END
