
#######################################################################
#
#                 Cambridge Crystallographic Data Centre
#                                CCDC 
#
#######################################################################
#
# If this CIF has been generated from an entry in the Cambridge 
# Structural Database, then it will include bibliographic, chemical, 
# crystal, experimental, refinement or atomic coordinate data resulting 
# from the CCDC's data processing and validation procedures.
#
#######################################################################

data_DENTEW01
_symmetry_cell_setting           triclinic
_symmetry_space_group_name_H-M   'P -1'
_symmetry_Int_Tables_number      2
_space_group_name_Hall           '-P 1'
loop_
_symmetry_equiv_pos_site_id
_symmetry_equiv_pos_as_xyz
1 x,y,z
2 -x,-y,-z
_cell_length_a                   8.678(2)
_cell_length_b                   12.213(3)
_cell_length_c                   13.691(3)
_cell_angle_alpha                85.497(4)
_cell_angle_beta                 77.327(4)
_cell_angle_gamma                82.580(4)
_cell_volume                     1401.94
loop_
_atom_site_label
_atom_site_type_symbol
_atom_site_fract_x
_atom_site_fract_y
_atom_site_fract_z
Cd1 Cd 0.861506(15) 0.115803(10) 0.065643(9)
Cd2 Cd 0.908173(16) 0.399991(10) -0.055387(9)
Cl1 Cl 1.09397(5) 0.23982(4) 0.01473(4)
Cl2 Cl 1.03821(6) -0.04534(4) 0.12636(3)
Cl3 Cl 0.66340(5) 0.28002(4) -0.00134(3)
Cl4 Cl 0.86325(6) 0.48167(4) 0.12661(3)
N1 N 0.7353(2) 0.20711(14) 0.21532(12)
H1 H 0.7535 0.2783 0.2028
H2 H 0.6303 0.2063 0.2206
C1 C 0.7637(2) 0.17754(16) 0.31457(13)
C2 C 0.7003(3) 0.08681(17) 0.36942(15)
H3 H 0.6413 0.0441 0.3416
C3 C 0.7253(2) 0.06026(17) 0.46571(15)
H4 H 0.6809 0.0002 0.5020
C4 C 0.8146(2) 0.12099(17) 0.50916(14)
C5 C 0.8775(2) 0.21082(17) 0.45276(15)
H5 H 0.9375 0.2532 0.4801
C6 C 0.8530(2) 0.23882(17) 0.35661(15)
H6 H 0.8969 0.2991 0.3204
C7 C 0.5900(2) 0.14534(18) 0.73069(16)
H7 H 0.5910 0.2158 0.6996
C8 C 0.4680(2) 0.12505(16) 0.81129(16)
H8 H 0.3885 0.1817 0.8337
C9 C 0.4636(2) 0.02050(15) 0.85897(13)
C10 C 0.5840(2) -0.06273(16) 0.82353(15)
H9 H 0.5828 -0.1335 0.8540
N2 N 0.33743(18) -0.00242(14) 0.94211(12)
H10 H 0.2860 0.0635 0.9620
H11 H 0.3841 -0.0320 0.9922
N3 N 0.9093(2) 0.32413(14) -0.21087(11)
H12 H 0.8980 0.2519 -0.1979
H13 H 0.8215 0.3559 -0.2313
C11 C 1.0406(2) 0.33181(15) -0.29450(13)
C12 C 1.1601(2) 0.24522(16) -0.31318(15)
H14 H 1.1537 0.1804 -0.2727
C13 C 1.2891(2) 0.25422(16) -0.39159(15)
H15 H 1.3681 0.1948 -0.4033
C14 C 1.3042(2) 0.34965(15) -0.45346(13)
C15 C 1.1817(3) 0.43594(16) -0.43451(15)
H16 H 1.1876 0.5005 -0.4753
C16 C 1.0518(2) 0.42777(16) -0.35645(15)
H17 H 0.9716 0.4865 -0.3452
C17 C 1.4470(2) 0.35780(18) -0.53876(14)
H18 H 1.5158 0.2885 -0.5405
H19 H 1.5062 0.4153 -0.5259
C18 C 1.4705(2) 0.46448(17) -0.70689(14)
H20 H 1.5410 0.5060 -0.6882
N4 N 1.28533(19) 0.44667(14) -0.92529(12)
H21 H 1.2494 0.3857 -0.9407
H22 H 1.3745 0.4568 -0.9713
C19 C 1.4335(2) 0.48518(17) -0.80099(14)
H23 H 1.4791 0.5402 -0.8444
C20 C 1.3288(2) 0.42404(15) -0.83023(13)
C21 C 1.2608(2) 0.34285(15) -0.76407(15)
H24 H 1.1899 0.3016 -0.7826
C22 C 1.2984(2) 0.32330(15) -0.67047(14)
H25 H 1.2518 0.2689 -0.6267
C23 C 0.7051(2) -0.04047(16) 0.74325(15)
H26 H 0.7850 -0.0969 0.7210
C24 C 0.7111(2) 0.06323(17) 0.69502(13)
C25 C 0.8518(2) 0.0880(2) 0.61169(15)
H27 H 0.9007 0.1472 0.6318
H28 H 0.9297 0.0230 0.6052
C26 C 1.4043(2) 0.38307(15) -0.64040(13)
Cd1A Cd 1.138494(15) -0.115803(10) -0.065643(9)
Cd1A_2 Cd 0.138494(15) -0.115803(10) 0.934357(9)
Cd2A Cd 1.091827(16) 0.600009(10) 0.055387(9)
Cd2A_2 Cd 1.091827(16) 0.600009(10) -0.944613(9)
Cl2A Cl 0.96179(6) 0.04534(4) -0.12636(3)
Cl4A Cl 1.13675(6) 0.51833(4) -0.12661(3)
N2A N 0.66257(18) 0.00242(14) 0.05789(12)
H10A H 0.7140 -0.0635 0.0380
H11A H 0.6159 0.0320 0.0078
N4A N 0.71467(19) 0.55333(14) -0.07471(12)
H21A H 0.7506 0.6143 -0.0593
H22A H 0.6255 0.5432 -0.0287
loop_
_geom_bond_atom_site_label_1
_geom_bond_atom_site_label_2
_geom_bond_site_symmetry_1
_geom_bond_site_symmetry_2
Cd1 Cl1 1_555 1_555
Cd2 Cl1 1_555 1_555
Cl2 Cd1 1_555 1_555
Cl3 Cd1 1_555 1_555
Cl4 Cd2 1_555 1_555
N1 Cd1 1_555 1_555
H1 N1 1_555 1_555
H2 N1 1_555 1_555
C1 N1 1_555 1_555
C2 C1 1_555 1_555
H3 C2 1_555 1_555
C3 C2 1_555 1_555
H4 C3 1_555 1_555
C4 C3 1_555 1_555
C5 C4 1_555 1_555
H5 C5 1_555 1_555
C6 C1 1_555 1_555
H6 C6 1_555 1_555
C7 H7 1_555 1_555
C8 C7 1_555 1_555
H8 C8 1_555 1_555
C9 C8 1_555 1_555
C10 C9 1_555 1_555
H9 C10 1_555 1_555
N2 C9 1_555 1_555
H10 N2 1_555 1_555
H11 N2 1_555 1_555
N3 Cd2 1_555 1_555
H12 N3 1_555 1_555
H13 N3 1_555 1_555
C11 N3 1_555 1_555
C12 C11 1_555 1_555
H14 C12 1_555 1_555
C13 C12 1_555 1_555
H15 C13 1_555 1_555
C14 C13 1_555 1_555
C15 C14 1_555 1_555
H16 C15 1_555 1_555
C16 C11 1_555 1_555
H17 C16 1_555 1_555
C17 C14 1_555 1_555
H18 C17 1_555 1_555
H19 C17 1_555 1_555
C18 H20 1_555 1_555
N4 H21 1_555 1_555
H22 N4 1_555 1_555
C19 C18 1_555 1_555
H23 C19 1_555 1_555
C20 N4 1_555 1_555
C21 C20 1_555 1_555
H24 C21 1_555 1_555
C22 C21 1_555 1_555
H25 C22 1_555 1_555
C23 C10 1_555 1_555
H26 C23 1_555 1_555
C24 C7 1_555 1_555
C25 C4 1_555 1_555
H27 C25 1_555 1_555
H28 C25 1_555 1_555
C26 C17 1_555 1_555
Cd1A Cl2 1_555 1_555
Cd1A_2 N2 1_555 1_555
Cd2A Cl4 1_555 1_555
Cd2A_2 N4 1_555 1_555
Cl2A Cd1 1_555 1_555
Cl4A Cd2 1_555 1_555
N2A Cd1 1_555 1_555
H10A N2A 1_555 1_555
H11A N2A 1_555 1_555
N4A Cd2 1_555 1_555
H21A N4A 1_555 1_555
H22A N4A 1_555 1_555
Cd2 Cl3 1_555 1_555
C5 C6 1_555 1_555
C15 C16 1_555 1_555
C18 C26 1_555 1_555
C19 C20 1_555 1_555
C22 C26 1_555 1_555
C23 C24 1_555 1_555
C24 C25 1_555 1_555
Cd1A Cl2A 1_555 1_555
Cd2A Cl4A 1_555 1_555

#END
