
#######################################################################
#
#                 Cambridge Crystallographic Data Centre
#                                CCDC 
#
#######################################################################
#
# If this CIF has been generated from an entry in the Cambridge 
# Structural Database, then it will include bibliographic, chemical, 
# crystal, experimental, refinement or atomic coordinate data resulting 
# from the CCDC's data processing and validation procedures.
#
#######################################################################

data_DENVEY
_symmetry_cell_setting           monoclinic
_symmetry_space_group_name_H-M   'C 2/c'
_symmetry_Int_Tables_number      15
_space_group_name_Hall           '-C 2yn'
loop_
_symmetry_equiv_pos_site_id
_symmetry_equiv_pos_as_xyz
1 x,y,z
2 1/2+x,1/2+y,z
3 -x,y,1/2-z
4 1/2-x,1/2+y,1/2-z
5 -x,-y,-z
6 1/2-x,1/2-y,-z
7 x,-y,1/2+z
8 1/2+x,1/2-y,1/2+z
_cell_length_a                   26.2160(13)
_cell_length_b                   8.7667(5)
_cell_length_c                   11.8792(6)
_cell_angle_alpha                90
_cell_angle_beta                 91.216(2)
_cell_angle_gamma                90
_cell_volume                     2729.56
loop_
_atom_site_label
_atom_site_type_symbol
_atom_site_fract_x
_atom_site_fract_y
_atom_site_fract_z
Mn1 Mn 0.971565(9) 0.10800(3) 0.10926(2)
Cl1 Cl 0.937134(16) -0.07755(5) -0.02766(4)
Cl2 Cl 1.0000 0.31740(7) 0.2500
Cl3 Cl 1.0000 -0.09275(7) 0.2500
N1 N 0.89563(5) 0.16426(19) 0.19198(13)
H1 H 0.9017 0.1599 0.2668
H2 H 0.8891 0.2627 0.1758
C1 C 0.84853(6) 0.0834(2) 0.17162(15)
C2 C 0.83361(7) -0.0285(2) 0.24427(16)
H3 H 0.8540 -0.0522 0.3068
C3 C 0.78853(8) -0.1063(2) 0.22544(17)
H4 H 0.7790 -0.1819 0.2757
C4 C 0.75718(7) -0.0739(2) 0.13300(16)
C5 C 0.77286(7) 0.0396(2) 0.06072(16)
H5 H 0.7525 0.0640 -0.0017
C6 C 0.81824(7) 0.1178(2) 0.07897(17)
H6 H 0.8282 0.1932 0.0289
C7 C 0.70841(7) -0.1627(2) 0.1122(2)
H7 H 0.7016 -0.2233 0.1786
H8 H 0.7136 -0.2327 0.0502
C8 C 0.66188(7) -0.0662(2) 0.08523(16)
C9 C 0.63344(7) -0.0866(2) -0.01267(17)
H9 H 0.6437 -0.1592 -0.0646
C10 C 0.59012(7) -0.0014(2) -0.03527(15)
H10 H 0.5718 -0.0162 -0.1023
C11 C 0.64535(7) 0.0431(2) 0.16057(16)
H11 H 0.6641 0.0597 0.2268
C12 C 0.60185(7) 0.1277(2) 0.13984(16)
H12 H 0.5914 0.1996 0.1921
C13 C 0.57377(7) 0.1058(2) 0.04126(15)
N2 N 0.52961(6) 0.19685(18) 0.01805(13)
H13 H 0.5203 0.2370 0.0842
H14 H 0.5046 0.1321 -0.0035
Mn1D Mn 1.028435(9) -0.10800(3) -0.10926(2)
Mn1B Mn 1.028435(9) 0.10800(3) 0.39074(2)
Mn1E Mn 0.528435(9) 0.39200(3) -0.10926(2)
Cl1D Cl 1.062866(16) 0.07755(5) 0.02766(4)
Cl2F Cl 1.0000 -0.31740(7) -0.2500
Cl3F Cl 1.0000 0.09275(7) -0.2500
N1E N 0.60437(5) 0.33574(19) -0.19198(13)
N1D N 1.10437(5) -0.16426(19) -0.19198(13)
H1E H 0.5983 0.3401 -0.2668
H1D H 1.0983 -0.1599 -0.2668
H2E H 0.6109 0.2373 -0.1758
H2D H 1.1109 -0.2627 -0.1758
C1E C 0.65147(6) 0.4166(2) -0.17162(15)
C2E C 0.66639(7) 0.5285(2) -0.24427(16)
H3E H 0.6460 0.5522 -0.3068
C3E C 0.71147(8) 0.6063(2) -0.22544(17)
H4E H 0.7210 0.6819 -0.2757
C4E C 0.74282(7) 0.5739(2) -0.13300(16)
C5E C 0.72714(7) 0.4604(2) -0.06072(16)
H5E H 0.7475 0.4360 0.0017
C6E C 0.68176(7) 0.3822(2) -0.07897(17)
H6E H 0.6718 0.3068 -0.0289
C7E C 0.79159(7) 0.6627(2) -0.1122(2)
H7E H 0.7984 0.7233 -0.1786
H8E H 0.7864 0.7327 -0.0502
C8E C 0.83812(7) 0.5662(2) -0.08523(16)
C9E C 0.86656(7) 0.5866(2) 0.01267(17)
H9E H 0.8563 0.6592 0.0646
C10E C 0.90988(7) 0.5014(2) 0.03527(15)
H10E H 0.9282 0.5162 0.1023
C11E C 0.85465(7) 0.4569(2) -0.16057(16)
H11E H 0.8359 0.4403 -0.2268
C12E C 0.89815(7) 0.3723(2) -0.13984(16)
H12E H 0.9086 0.3004 -0.1921
C13E C 0.92623(7) 0.3942(2) -0.04126(15)
N2E N 0.97039(6) 0.30315(18) -0.01805(13)
N2A N 1.02961(6) -0.30315(18) 0.01805(13)
H13E H 0.9797 0.2630 -0.0842
H13A H 1.0203 -0.2630 0.0842
H14E H 0.9954 0.3679 0.0035
H14A H 1.0046 -0.3679 -0.0035
loop_
_geom_bond_atom_site_label_1
_geom_bond_atom_site_label_2
_geom_bond_site_symmetry_1
_geom_bond_site_symmetry_2
Mn1 Cl1 1_555 1_555
Cl1 Mn1D 1_555 1_555
Cl2 Mn1 1_555 1_555
Cl3 Mn1 1_555 1_555
N1 Mn1 1_555 1_555
H1 N1 1_555 1_555
H2 N1 1_555 1_555
C1 N1 1_555 1_555
C2 C1 1_555 1_555
H3 C2 1_555 1_555
C3 C2 1_555 1_555
H4 C3 1_555 1_555
C4 C3 1_555 1_555
C5 C4 1_555 1_555
H5 C5 1_555 1_555
C6 C1 1_555 1_555
H6 C6 1_555 1_555
C7 C4 1_555 1_555
H7 C7 1_555 1_555
H8 C7 1_555 1_555
C8 C7 1_555 1_555
C9 C8 1_555 1_555
H9 C9 1_555 1_555
C10 C9 1_555 1_555
H10 C10 1_555 1_555
C11 C8 1_555 1_555
H11 C11 1_555 1_555
C12 C11 1_555 1_555
H12 C12 1_555 1_555
C13 C10 1_555 1_555
N2 C13 1_555 1_555
H13 N2 1_555 1_555
H14 N2 1_555 1_555
Mn1D Cl1D 1_555 1_555
Mn1B Cl2 1_555 1_555
Mn1E N2 1_555 1_555
Cl1D Mn1 1_555 1_555
Cl2F Mn1D 1_555 1_555
Cl3F Mn1D 1_555 1_555
N1E Mn1E 1_555 1_555
N1D Mn1D 1_555 1_555
H1E N1E 1_555 1_555
H1D N1D 1_555 1_555
H2E N1E 1_555 1_555
H2D N1D 1_555 1_555
C1E N1E 1_555 1_555
C2E C1E 1_555 1_555
H3E C2E 1_555 1_555
C3E C2E 1_555 1_555
H4E C3E 1_555 1_555
C4E C3E 1_555 1_555
C5E C4E 1_555 1_555
H5E C5E 1_555 1_555
C6E C1E 1_555 1_555
H6E C6E 1_555 1_555
C7E C4E 1_555 1_555
H7E C7E 1_555 1_555
H8E C7E 1_555 1_555
C8E C7E 1_555 1_555
C9E C8E 1_555 1_555
H9E C9E 1_555 1_555
C10E C9E 1_555 1_555
H10E C10E 1_555 1_555
C11E C8E 1_555 1_555
H11E C11E 1_555 1_555
C12E C11E 1_555 1_555
H12E C12E 1_555 1_555
C13E C10E 1_555 1_555
N2E Mn1 1_555 1_555
N2A Mn1D 1_555 1_555
H13E N2E 1_555 1_555
H13A N2A 1_555 1_555
H14E N2E 1_555 1_555
H14A N2A 1_555 1_555
Cl3 Mn1B 1_555 1_555
C5 C6 1_555 1_555
C12 C13 1_555 1_555
C5E C6E 1_555 1_555
C12E C13E 1_555 1_555
C13E N2E 1_555 1_555

#END
