
#######################################################################
#
#                 Cambridge Crystallographic Data Centre
#                                CCDC 
#
#######################################################################
#
# If this CIF has been generated from an entry in the Cambridge 
# Structural Database, then it will include bibliographic, chemical, 
# crystal, experimental, refinement or atomic coordinate data resulting 
# from the CCDC's data processing and validation procedures.
#
#######################################################################

data_DENVOI
_symmetry_cell_setting           rhombohedral
_symmetry_space_group_name_H-M   'R -3 c'
_symmetry_Int_Tables_number      167
_space_group_name_Hall           '-R 3 2"c'
loop_
_symmetry_equiv_pos_site_id
_symmetry_equiv_pos_as_xyz
1 x,y,z
2 -y,x-y,z
3 -x+y,-x,z
4 y,x,1/2-z
5 2/3+x,1/3+y,1/3+z
6 2/3-y,1/3+x-y,1/3+z
7 2/3-x+y,1/3-x,1/3+z
8 2/3+y,1/3+x,5/6-z
9 1/3+x,2/3+y,2/3+z
10 1/3+y,2/3+x,1/6-z
11 x-y,-y,1/2-z
12 -x,-x+y,1/2-z
13 1/3-y,2/3+x-y,2/3+z
14 1/3-x+y,2/3-x,2/3+z
15 1/3+x-y,2/3-y,1/6-z
16 1/3-x,2/3-x+y,1/6-z
17 2/3+x-y,1/3-y,5/6-z
18 2/3-x,1/3-x+y,5/6-z
19 -x,-y,-z
20 y,-x+y,-z
21 x-y,x,-z
22 -y,-x,1/2+z
23 1/3-x,2/3-y,2/3-z
24 1/3+y,2/3-x+y,2/3-z
25 1/3+x-y,2/3+x,2/3-z
26 1/3-y,2/3-x,1/6+z
27 2/3-x,1/3-y,1/3-z
28 2/3-y,1/3-x,5/6+z
29 -x+y,y,1/2+z
30 x,x-y,1/2+z
31 2/3+y,1/3-x+y,1/3-z
32 2/3+x-y,1/3+x,1/3-z
33 2/3-x+y,1/3+y,5/6+z
34 2/3+x,1/3+x-y,5/6+z
35 1/3-x+y,2/3+y,1/6+z
36 1/3+x,2/3+x-y,1/6+z
_cell_length_a                   18.0645(5)
_cell_length_b                   18.0645(5)
_cell_length_c                   19.0889(7)
_cell_angle_alpha                90
_cell_angle_beta                 90
_cell_angle_gamma                120.00
_cell_volume                     5394.65
loop_
_atom_site_label
_atom_site_type_symbol
_atom_site_fract_x
_atom_site_fract_y
_atom_site_fract_z
N1 N 0.0000 0.0000 0.7500
O1 O 0.0000 0.0000 0.8119(5)
O2 O -0.0708(8) -0.0358(10) 0.7275(10)
O1C O 0.0000 0.0000 0.6881(5)
O2C O -0.0358(10) -0.0708(8) 0.7725(10)
O2A O 0.0358(10) -0.0350(13) 0.7275(10)
O2B O 0.0350(13) 0.0708(8) 0.7275(10)
O2J O -0.0350(13) 0.0358(10) 0.7725(10)
O2K O 0.0708(8) 0.0350(13) 0.7725(10)
Ag1 Ag 0.0000 0.0000 0.5000
C1 C 0.2621(2) 0.1110(2) 0.52921(15)
H1 H 0.2542 0.0705 0.4956
N2 N 0.12138(15) 0.01278(14) 0.57724(12)
C2 C 0.19887(19) 0.09253(15) 0.57834(14)
C3 C 0.35135(16) 0.25123(16) 0.57888(13)
C4 C 0.21196(16) 0.15463(16) 0.62718(12)
H2 H 0.1698 0.1440 0.6601
C5 C 0.28691(17) 0.23191(16) 0.62727(13)
H3 H 0.2946 0.2725 0.6608
C6 C 0.3367(2) 0.1891(2) 0.52972(15)
H4 H 0.3782 0.2003 0.4961
C7 C 0.4364(2) 0.3333 0.5833
H5 H 0.4699 0.3366 0.5425
H6 H 0.4666 0.3300 0.6242
Ag1I Ag 0.3333 0.6667 0.6667
Ag1I_2 Ag -0.6667 -0.3333 0.6667
Ag1I_3 Ag 0.3333 -0.3333 0.6667
C1N C 0.4844(3) 0.5557(2) 0.63746(15)
C1A C -0.1110(2) 0.1511(3) 0.52921(15)
C1I C -0.5557(2) -0.0712(2) 0.63746(15)
C1B C -0.1511(3) -0.2621(2) 0.52921(15)
C1O C 0.0712(2) -0.4844(3) 0.63746(15)
H1N H 0.5170 0.5962 0.6711
H1A H -0.0705 0.1837 0.4956
H1I H -0.5962 -0.0791 0.6711
H1B H -0.1837 -0.2542 0.4956
H1O H 0.0791 -0.5170 0.6711
N2N N 0.44193(21) 0.65389(14) 0.58943(12)
N2A N -0.01278(14) 0.10860(21) 0.57724(12)
N2I N -0.65389(14) -0.21195(15) 0.58943(12)
N2B N -0.10860(21) -0.12138(15) 0.57724(12)
N2O N 0.21195(15) -0.44193(21) 0.58943(12)
N2R N -0.12138(15) -0.01278(14) 0.42276(12)
N2S N 0.01278(14) -0.10860(21) 0.42276(12)
N2T N 0.10860(21) 0.12138(15) 0.42276(12)
C2N C 0.43967(24) 0.57414(15) 0.58833(14)
C2A C -0.09253(15) 0.10634(24) 0.57834(14)
C2I C -0.57414(15) -0.13446(19) 0.58833(14)
C2B C -0.10634(24) -0.19887(19) 0.57834(14)
C2O C 0.13446(19) -0.43967(24) 0.58833(14)
C3N C 0.43345(23) 0.41544(16) 0.58779(13)
C3A C -0.25123(16) 0.10012(23) 0.57888(13)
C3I C -0.41544(16) 0.01802(16) 0.58779(13)
C3B C -0.10012(23) -0.35135(16) 0.57888(13)
C3O C -0.01802(16) -0.43345(23) 0.58779(13)
C4N C 0.39066(23) 0.51204(16) 0.53949(12)
C4A C -0.15463(16) 0.05733(23) 0.62718(12)
C4I C -0.51204(16) -0.12137(16) 0.53949(12)
C4B C -0.05733(23) -0.21196(16) 0.62718(12)
C4O C 0.12137(16) -0.39066(23) 0.53949(12)
H2N H 0.3591 0.5227 0.5066
H2A H -0.1440 0.0258 0.6601
H2I H -0.5227 -0.1635 0.5066
H2B H -0.0258 -0.1698 0.6601
H2O H 0.1635 -0.3591 0.5066
C5N C 0.38833(23) 0.43476(16) 0.53940(13)
C5A C -0.23191(16) 0.05500(23) 0.62727(13)
C5I C -0.43476(16) -0.04642(17) 0.53940(13)
C5B C -0.05500(23) -0.28691(17) 0.62727(13)
C5O C 0.04642(17) -0.38833(23) 0.53940(13)
H3N H 0.3554 0.3942 0.5059
H3A H -0.2725 0.0221 0.6608
H3I H -0.3942 -0.0387 0.5059
H3B H -0.0221 -0.2946 0.6608
H3O H 0.0387 -0.3554 0.5059
C6N C 0.4809(3) 0.4776(2) 0.63695(15)
C6A C -0.1891(2) 0.1476(3) 0.52972(15)
C6I C -0.4776(2) 0.0034(2) 0.63695(15)
C6B C -0.1476(3) -0.3367(2) 0.52972(15)
C6O C -0.0034(2) -0.4809(3) 0.63695(15)
H4N H 0.5112 0.4664 0.6706
H4A H -0.2003 0.1779 0.4961
H4I H -0.4664 0.0449 0.6706
H4B H -0.1779 -0.3782 0.4961
H4O H -0.0449 -0.5112 0.6706
C7A C -0.3333 0.1031(2) 0.5833
C7B C -0.1031(2) -0.4364(2) 0.5833
H5A H -0.3366 0.1333 0.5425
H5B H -0.1333 -0.4699 0.5425
H6A H -0.3300 0.1366 0.6242
H6B H -0.1366 -0.4666 0.6242
loop_
_geom_bond_atom_site_label_1
_geom_bond_atom_site_label_2
_geom_bond_site_symmetry_1
_geom_bond_site_symmetry_2
Ag1 N2 1_555 1_555
N1 O1 1_555 1_555
C1 H1 1_555 1_555
N2 C2 1_555 1_555
C2 C1 1_555 1_555
C3 C5 1_555 1_555
C4 C2 1_555 1_555
H2 C4 1_555 1_555
C5 C4 1_555 1_555
H3 C5 1_555 1_555
C6 C1 1_555 1_555
H4 C6 1_555 1_555
C7 C3 1_555 1_555
H5 C7 1_555 1_555
H6 C7 1_555 1_555
O1 O2C 1_555 1_555
O2 N1 1_555 1_555
Ag1I N2N 1_555 1_555
Ag1I_2 N2I 1_555 1_555
Ag1I_3 N2O 1_555 1_555
C1N H1N 1_555 1_555
C1A H1A 1_555 1_555
C1I H1I 1_555 1_555
C1B H1B 1_555 1_555
C1O H1O 1_555 1_555
N2N C2N 1_555 1_555
N2A Ag1 1_555 1_555
N2I C2I 1_555 1_555
N2B Ag1 1_555 1_555
N2O C2O 1_555 1_555
N2R Ag1 1_555 1_555
N2S Ag1 1_555 1_555
N2T Ag1 1_555 1_555
C2N C1N 1_555 1_555
C2A C1A 1_555 1_555
C2I C1I 1_555 1_555
C2B C1B 1_555 1_555
C2O C1O 1_555 1_555
C3N C7 1_555 1_555
C3A C5A 1_555 1_555
C3I C5I 1_555 1_555
C3B C5B 1_555 1_555
C3O C5O 1_555 1_555
C4N C2N 1_555 1_555
C4A C2A 1_555 1_555
C4I C2I 1_555 1_555
C4B C2B 1_555 1_555
C4O C2O 1_555 1_555
H2N C4N 1_555 1_555
H2A C4A 1_555 1_555
H2I C4I 1_555 1_555
H2B C4B 1_555 1_555
H2O C4O 1_555 1_555
C5N C3N 1_555 1_555
C5A C4A 1_555 1_555
C5I C4I 1_555 1_555
C5B C4B 1_555 1_555
C5O C4O 1_555 1_555
H3N C5N 1_555 1_555
H3A C5A 1_555 1_555
H3I C5I 1_555 1_555
H3B C5B 1_555 1_555
H3O C5O 1_555 1_555
C6N C1N 1_555 1_555
C6A C1A 1_555 1_555
C6I C1I 1_555 1_555
C6B C1B 1_555 1_555
C6O C1O 1_555 1_555
H4N C6N 1_555 1_555
H4A C6A 1_555 1_555
H4I C6I 1_555 1_555
H4B C6B 1_555 1_555
H4O C6O 1_555 1_555
C7A C3A 1_555 1_555
C7B C3B 1_555 1_555
H5A C7A 1_555 1_555
H5B C7B 1_555 1_555
H6A C7A 1_555 1_555
H6B C7B 1_555 1_555
O1C N1 1_555 1_555
O2C N1 1_555 1_555
O2A N1 1_555 1_555
O2B N1 1_555 1_555
O2J N1 1_555 1_555
O2K N1 1_555 1_555
C3 C6 1_555 1_555
O1 O2J 1_555 1_555
O1 O2K 1_555 1_555
O2 O1C 1_555 1_555
O2 O2C 1_555 1_555
O2 O2J 1_555 1_555
N2A C2A 1_555 1_555
N2B C2B 1_555 1_555
C3N C6N 1_555 1_555
C3A C6A 1_555 1_555
C3I C6I 1_555 1_555
C3I C7A 1_555 1_555
C3B C6B 1_555 1_555
C3O C6O 1_555 1_555
C3O C7B 1_555 1_555
C4N C5N 1_555 1_555
O1C O2A 1_555 1_555
O1C O2B 1_555 1_555
O2C O2A 1_555 1_555
O2A O2K 1_555 1_555
O2B O2J 1_555 1_555
O2B O2K 1_555 1_555

#END
