
#######################################################################
#
#                 Cambridge Crystallographic Data Centre
#                                CCDC 
#
#######################################################################
#
# If this CIF has been generated from an entry in the Cambridge 
# Structural Database, then it will include bibliographic, chemical, 
# crystal, experimental, refinement or atomic coordinate data resulting 
# from the CCDC's data processing and validation procedures.
#
#######################################################################

data_DENZIG
_symmetry_cell_setting           triclinic
_symmetry_space_group_name_H-M   'P -1'
_symmetry_Int_Tables_number      2
_space_group_name_Hall           '-P 1'
loop_
_symmetry_equiv_pos_site_id
_symmetry_equiv_pos_as_xyz
1 x,y,z
2 -x,-y,-z
_cell_length_a                   7.065(3)
_cell_length_b                   7.812(4)
_cell_length_c                   9.031(4)
_cell_angle_alpha                75.568(8)
_cell_angle_beta                 68.970(8)
_cell_angle_gamma                75.927(8)
_cell_volume                     443.994
loop_
_atom_site_label
_atom_site_type_symbol
_atom_site_fract_x
_atom_site_fract_y
_atom_site_fract_z
Ni1 Ni 0.01429(6) 0.24076(5) 0.28535(5)
O1 O 0.2278(3) 0.3799(3) 0.2697(3)
O2 O 0.1901(3) 0.6585(3) 0.1240(3)
O3 O 0.0652(3) 0.8033(3) 0.4527(3)
O4 O 0.2473(3) 1.0135(3) 0.2818(3)
O5 O 0.0951(4) 0.2577(3) 0.0417(3)
H1 H 0.161(5) 0.161(3) 0.011(5)
H2 H 0.017(6) 0.312(5) -0.014(5)
O6 O -0.1920(3) 0.0674(3) 0.3335(3)
H3 H -0.228(6) 0.059(5) 0.255(4)
H4 H -0.117(6) -0.030(3) 0.360(5)
N1 N 0.7755(4) 0.4545(3) 0.2899(3)
C1 C 0.6222(5) 0.4461(4) 0.2389(4)
H7 H 0.6376 0.3511 0.1884
C2 C 0.4423(4) 0.5708(4) 0.2570(4)
C3 C 0.2713(5) 0.5351(4) 0.2109(4)
C4 C 0.4226(4) 0.7161(4) 0.3274(4)
C5 C 0.2289(5) 0.8562(4) 0.3565(4)
C6 C 0.5810(5) 0.7263(4) 0.3812(4)
H8 H 0.5715 0.8215 0.4296
C7 C 0.7516(4) 0.5930(4) 0.3614(4)
H9 H 0.8553 0.5994 0.3996
Ni1_2 Ni 1.01429(6) 0.24076(5) 0.28535(5)
Ni1A Ni -0.01429(6) 0.75924(5) 0.71465(5)
Ni1_3 Ni 0.01429(6) 1.24076(5) 0.28535(5)
O3A O -0.0652(3) 0.1967(3) 0.5473(3)
O4_2 O 0.2473(3) 0.0135(3) 0.2818(3)
N1_2 N -0.2245(4) 0.4545(3) 0.2899(3)
O7 O 0.3312(4) -0.0480(3) -0.0867(3)
H5 H 0.310(5) -0.141(3) -0.015(4)
H6 H 0.458(2) -0.043(5) -0.124(5)
loop_
_geom_bond_atom_site_label_1
_geom_bond_atom_site_label_2
_geom_bond_site_symmetry_1
_geom_bond_site_symmetry_2
Ni1 O1 1_555 1_555
O1 C3 1_555 1_555
O2 C3 1_555 1_555
O3 C5 1_555 1_555
O4 C5 1_555 1_555
O5 Ni1 1_555 1_555
H1 O5 1_555 1_555
H2 O5 1_555 1_555
O6 Ni1 1_555 1_555
H3 O6 1_555 1_555
H4 O6 1_555 1_555
O7 H5 1_555 1_555
H6 O7 1_555 1_555
N1 C1 1_555 1_555
C1 H7 1_555 1_555
C2 C1 1_555 1_555
C3 C2 1_555 1_555
C4 C2 1_555 1_555
C5 C4 1_555 1_555
C6 C4 1_555 1_555
H8 C6 1_555 1_555
C7 N1 1_555 1_555
H9 C7 1_555 1_555
Ni1_2 N1 1_555 1_555
Ni1A O3 1_555 1_555
Ni1_3 O4 1_555 1_555
O3A Ni1 1_555 1_555
O4_2 Ni1 1_555 1_555
N1_2 Ni1 1_555 1_555
C6 C7 1_555 1_555

#END
