
#######################################################################
#
#                 Cambridge Crystallographic Data Centre
#                                CCDC 
#
#######################################################################
#
# If this CIF has been generated from an entry in the Cambridge 
# Structural Database, then it will include bibliographic, chemical, 
# crystal, experimental, refinement or atomic coordinate data resulting 
# from the CCDC's data processing and validation procedures.
#
#######################################################################

data_DENZAY
_symmetry_cell_setting           monoclinic
_symmetry_space_group_name_H-M   'P 21/c'
_symmetry_Int_Tables_number      14
_space_group_name_Hall           '-P 2ybc'
loop_
_symmetry_equiv_pos_site_id
_symmetry_equiv_pos_as_xyz
1 x,y,z
2 -x,1/2+y,1/2-z
3 -x,-y,-z
4 x,1/2-y,1/2+z
_cell_length_a                   20.228(9)
_cell_length_b                   8.956(3)
_cell_length_c                   17.828(7)
_cell_angle_alpha                90
_cell_angle_beta                 113.83(3)
_cell_angle_gamma                90
_cell_volume                     2954.41
loop_
_atom_site_label
_atom_site_type_symbol
_atom_site_fract_x
_atom_site_fract_y
_atom_site_fract_z
Bi1 Bi 0.32062(6) 0.36171(11) 0.51187(6)
Br1 Br 0.3074(2) 0.2126(4) 0.6639(2)
O1 O 0.3332(12) 0.592(2) 0.5919(14)
N1 N 0.2866(16) 0.669(2) 0.5485(16)
C1 C 0.339(2) 0.011(3) 0.460(2)
H1 H 0.2928 0.0332 0.4211
Bi2 Bi 0.18288(6) 0.33198(12) 0.68807(7)
Br2 Br 0.38835(19) 0.4573(4) 0.4217(2)
N2 N 0.3746(13) 0.110(3) 0.5113(13)
O2 O 0.2514(16) 0.622(3) 0.4721(17)
C2 C 0.369(2) -0.138(3) 0.463(2)
H2 H 0.3427 -0.2116 0.4254
Br3 Br 0.19794(17) 0.2769(4) 0.3568(2)
N3 N 0.4441(14) 0.344(3) 0.6167(15)
C3 C 0.4361(17) -0.166(4) 0.522(2)
H3 H 0.4573 -0.2593 0.5251
O3 O 0.270(2) 0.788(4) 0.566(2)
Br4 Br 0.2152(3) 0.6201(6) 0.7524(3)
N4 N 0.1189(16) 0.090(3) 0.6367(16)
C4 C 0.474(2) -0.050(3) 0.578(2)
Br5 Br 0.1299(2) 0.4299(4) 0.5335(2)
N5 N 0.0585(14) 0.342(3) 0.6725(14)
C5 C 0.542(2) -0.072(5) 0.639(2)
H4 H 0.5643 -0.1643 0.6422
C6 C 0.5786(18) 0.032(4) 0.6942(19)
H5 H 0.6228 0.0110 0.7369
C7 C 0.5463(15) 0.175(3) 0.6844(15)
C8 C 0.5802(19) 0.303(4) 0.7342(19)
H6 H 0.6261 0.2931 0.7759
C9 C 0.551(2) 0.423(5) 0.723(2)
H7 H 0.5754 0.5011 0.7574
C10 C 0.4821(18) 0.454(3) 0.6630(18)
H8 H 0.4636 0.5500 0.6558
C11 C 0.4411(17) 0.089(3) 0.5715(17)
C12 C 0.4762(15) 0.204(3) 0.6246(15)
C13 C 0.1512(17) -0.031(5) 0.620(2)
H9 H 0.1996 -0.0253 0.6285
C14 C 0.115(2) -0.158(4) 0.592(2)
H10 H 0.1378 -0.2380 0.5783
C15 C 0.043(2) -0.172(4) 0.582(2)
H11 H 0.0191 -0.2618 0.5644
C16 C 0.006(2) -0.046(4) 0.6006(19)
C17 C -0.062(2) -0.049(5) 0.597(2)
H12 H -0.0875 -0.1392 0.5854
C18 C -0.0946(18) 0.073(5) 0.608(2)
H13 H -0.1435 0.0676 0.5978
C19 C -0.058(2) 0.214(6) 0.637(3)
C20 C -0.082(3) 0.338(7) 0.656(3)
H14 H -0.1297 0.3403 0.6506
C21 C -0.042(2) 0.460(7) 0.681(2)
H15 H -0.0615 0.5429 0.6968
C22 C 0.026(2) 0.466(4) 0.686(2)
H16 H 0.0506 0.5562 0.6975
C23 C 0.0499(17) 0.090(3) 0.6278(17)
C24 C 0.0165(16) 0.217(3) 0.6471(16)
Bi2C Bi 0.18288(6) 0.16802(12) 0.18807(7)
Br3C Br 0.19794(17) 0.2231(4) 0.8568(2)
loop_
_geom_bond_atom_site_label_1
_geom_bond_atom_site_label_2
_geom_bond_site_symmetry_1
_geom_bond_site_symmetry_2
Bi1 Br1 1_555 1_555
Br1 Bi2 1_555 1_555
O1 Bi1 1_555 1_555
N1 O1 1_555 1_555
C1 H1 1_555 1_555
Bi2 Br4 1_555 1_555
Br2 Bi1 1_555 1_555
N2 Bi1 1_555 1_555
O2 Bi1 1_555 1_555
C2 C1 1_555 1_555
H2 C2 1_555 1_555
Br3 Bi1 1_555 1_555
N3 Bi1 1_555 1_555
C3 C2 1_555 1_555
H3 C3 1_555 1_555
O3 N1 1_555 1_555
N4 Bi2 1_555 1_555
C4 C3 1_555 1_555
Br5 Bi2 1_555 1_555
N5 Bi2 1_555 1_555
C5 C4 1_555 1_555
H4 C5 1_555 1_555
C6 C5 1_555 1_555
H5 C6 1_555 1_555
C7 C6 1_555 1_555
C8 C7 1_555 1_555
H6 C8 1_555 1_555
C9 C8 1_555 1_555
H7 C9 1_555 1_555
C10 N3 1_555 1_555
H8 C10 1_555 1_555
C11 N2 1_555 1_555
C12 N3 1_555 1_555
C13 N4 1_555 1_555
H9 C13 1_555 1_555
C14 C13 1_555 1_555
H10 C14 1_555 1_555
C15 C14 1_555 1_555
H11 C15 1_555 1_555
C16 C15 1_555 1_555
C17 C16 1_555 1_555
H12 C17 1_555 1_555
C18 C17 1_555 1_555
H13 C18 1_555 1_555
C19 C18 1_555 1_555
C20 C19 1_555 1_555
H14 C20 1_555 1_555
C21 C20 1_555 1_555
H15 C21 1_555 1_555
C22 N5 1_555 1_555
H16 C22 1_555 1_555
C23 N4 1_555 1_555
C24 N5 1_555 1_555
Bi2C Br3 1_555 1_555
Br3C Bi2 1_555 1_555
N1 O2 1_555 1_555
C1 N2 1_555 1_555
C4 C11 1_555 1_555
C7 C12 1_555 1_555
C9 C10 1_555 1_555
C11 C12 1_555 1_555
C16 C23 1_555 1_555
C19 C24 1_555 1_555
C21 C22 1_555 1_555
C23 C24 1_555 1_555

#END
