
#######################################################################
#
#                 Cambridge Crystallographic Data Centre
#                                CCDC 
#
#######################################################################
#
# If this CIF has been generated from an entry in the Cambridge 
# Structural Database, then it will include bibliographic, chemical, 
# crystal, experimental, refinement or atomic coordinate data resulting 
# from the CCDC's data processing and validation procedures.
#
#######################################################################

data_DEPCUX
_symmetry_cell_setting           monoclinic
_symmetry_space_group_name_H-M   'C 2/c'
_symmetry_Int_Tables_number      15
_space_group_name_Hall           '-C 2yn'
loop_
_symmetry_equiv_pos_site_id
_symmetry_equiv_pos_as_xyz
1 x,y,z
2 1/2+x,1/2+y,z
3 -x,y,1/2-z
4 1/2-x,1/2+y,1/2-z
5 -x,-y,-z
6 1/2-x,1/2-y,-z
7 x,-y,1/2+z
8 1/2+x,1/2-y,1/2+z
_cell_length_a                   21.2107(14)
_cell_length_b                   17.9344(12)
_cell_length_c                   17.5455(12)
_cell_angle_alpha                90
_cell_angle_beta                 104.877(1)
_cell_angle_gamma                90
_cell_volume                     6450.6
loop_
_atom_site_label
_atom_site_type_symbol
_atom_site_fract_x
_atom_site_fract_y
_atom_site_fract_z
Cu1 Cu 0.223240(18) 0.03384(2) -0.24273(2)
N1 N 0.26653(13) 0.04530(15) -0.33324(15)
C1 C 0.27736(16) 0.11390(19) -0.35751(18)
H1 H 0.2614 0.1548 -0.3357
C2 C 0.31160(16) 0.12601(19) -0.41411(18)
C3 C 0.33457(17) 0.06385(19) -0.4466(2)
H2 H 0.3570 0.0697 -0.4853
C4 C 0.32379(17) -0.0056(2) -0.4208(2)
H3 H 0.3393 -0.0475 -0.4416
C5 C 0.28981(17) -0.0136(2) -0.3639(2)
H4 H 0.2830 -0.0611 -0.3464
N2 N 0.32261(15) 0.19634(16) -0.44227(17)
H5 H 0.3353 0.1976 -0.4850
C6 C 0.31520(16) 0.26337(18) -0.4085(2)
O1 O 0.29700(12) 0.27003(13) -0.34894(14)
N3 N 0.33086(15) 0.32316(15) -0.44944(17)
H6 H 0.3435 0.3128 -0.4910
C7 C 0.32853(15) 0.39818(19) -0.43117(18)
C8 C 0.30963(16) 0.42560(19) -0.36636(19)
H7 H 0.2982 0.3920 -0.3318
N4 N 0.30729(13) 0.49863(15) -0.35186(15)
C9 C 0.32280(18) 0.5473(2) -0.4011(2)
H8 H 0.3202 0.5981 -0.3914
C10 C 0.34274(18) 0.5244(2) -0.4663(2)
H9 H 0.3542 0.5594 -0.4995
C11 C 0.34565(16) 0.44984(18) -0.48189(19)
H10 H 0.3589 0.4338 -0.5258
N5 N 0.31190(13) 0.05127(15) -0.16905(15)
C12 C 0.33210(16) 0.11988(19) -0.14587(19)
H11 H 0.3041 0.1599 -0.1630
C13 C 0.39376(17) 0.13344(19) -0.09677(19)
C14 C 0.43461(17) 0.0726(2) -0.0722(2)
H12 H 0.4764 0.0796 -0.0398
C15 C 0.41294(18) 0.0021(2) -0.0961(2)
H13 H 0.4397 -0.0391 -0.0797
C16 C 0.35094(17) -0.00691(19) -0.1449(2)
H14 H 0.3362 -0.0546 -0.1612
N6 N 0.41733(15) 0.20404(16) -0.07234(18)
H15 H 0.4517 0.2061 -0.0336
C17 C 0.39150(17) 0.2707(2) -0.1036(2)
O2 O 0.34051(14) 0.27583(15) -0.15310(19)
N7 N 0.42979(14) 0.33035(16) -0.07351(17)
H16 H 0.4593 0.3240 -0.0301
C18 C 0.42445(16) 0.40106(19) -0.10827(19)
C19 C 0.36638(16) 0.43032(18) -0.15351(18)
H17 H 0.3285 0.4020 -0.1612
N8 N 0.36286(12) 0.49791(15) -0.18656(14)
C20 C 0.41688(17) 0.53879(19) -0.1764(2)
H18 H 0.4146 0.5850 -0.2011
C21 C 0.47577(18) 0.5144(2) -0.1304(3)
H19 H 0.5126 0.5445 -0.1227
C22 C 0.47990(18) 0.4451(2) -0.0959(2)
H20 H 0.5195 0.4280 -0.0646
O3 O 0.19078(11) 0.15238(12) -0.24513(13)
H21 H 0.1730 0.1645 -0.2906
H22 H 0.1737(15) 0.1819(16) -0.2109(16)
Cu1C Cu 0.276760(18) 0.53384(2) -0.25727(2)
N4C N 0.19271(13) -0.00137(15) -0.14814(15)
N8C N 0.13714(12) -0.00209(15) -0.31344(14)
Si1 Si 0.42584(4) 0.23827(5) -0.58870(5)
F1 F 0.36883(9) 0.30704(10) -0.59737(11)
F2 F 0.36884(9) 0.17609(11) -0.57999(12)
F3 F 0.44510(10) 0.25046(13) -0.48978(11)
F4 F 0.48192(9) 0.17025(11) -0.57730(12)
F5 F 0.48259(10) 0.30124(11) -0.59308(14)
F6 F 0.40565(10) 0.22770(13) -0.68586(11)
O4 O 0.22302(11) 0.34486(14) -0.24775(14)
H23 H 0.2508 0.3177 -0.2473
H24 H 0.1884 0.3318 -0.2718
O5 O 0.5000 0.3221(2) -0.7500
loop_
_geom_bond_atom_site_label_1
_geom_bond_atom_site_label_2
_geom_bond_site_symmetry_1
_geom_bond_site_symmetry_2
Cu1 N1 1_555 1_555
N1 C1 1_555 1_555
C1 H1 1_555 1_555
C2 C1 1_555 1_555
C3 C2 1_555 1_555
H2 C3 1_555 1_555
C4 C3 1_555 1_555
H3 C4 1_555 1_555
C5 N1 1_555 1_555
H4 C5 1_555 1_555
N2 C2 1_555 1_555
H5 N2 1_555 1_555
C6 N2 1_555 1_555
O1 C6 1_555 1_555
N3 C6 1_555 1_555
H6 N3 1_555 1_555
C7 N3 1_555 1_555
C8 C7 1_555 1_555
H7 C8 1_555 1_555
N4 C8 1_555 1_555
C9 N4 1_555 1_555
H8 C9 1_555 1_555
C10 C9 1_555 1_555
H9 C10 1_555 1_555
C11 C7 1_555 1_555
H10 C11 1_555 1_555
N5 Cu1 1_555 1_555
C12 N5 1_555 1_555
H11 C12 1_555 1_555
C13 C12 1_555 1_555
C14 C13 1_555 1_555
H12 C14 1_555 1_555
C15 C14 1_555 1_555
H13 C15 1_555 1_555
C16 N5 1_555 1_555
H14 C16 1_555 1_555
N6 C13 1_555 1_555
H15 N6 1_555 1_555
C17 N6 1_555 1_555
O2 C17 1_555 1_555
N7 C17 1_555 1_555
H16 N7 1_555 1_555
C18 N7 1_555 1_555
C19 C18 1_555 1_555
H17 C19 1_555 1_555
N8 C19 1_555 1_555
C20 N8 1_555 1_555
H18 C20 1_555 1_555
C21 C20 1_555 1_555
H19 C21 1_555 1_555
C22 C18 1_555 1_555
H20 C22 1_555 1_555
O3 Cu1 1_555 1_555
H21 O3 1_555 1_555
Si1 F1 1_555 1_555
F2 Si1 1_555 1_555
F3 Si1 1_555 1_555
F4 Si1 1_555 1_555
F5 Si1 1_555 1_555
F6 Si1 1_555 1_555
O4 H23 1_555 1_555
H22 O3 1_555 1_555
H24 O4 1_555 1_555
Cu1C N4 1_555 1_555
N4C Cu1 1_555 1_555
N8C Cu1 1_555 1_555
C4 C5 1_555 1_555
C10 C11 1_555 1_555
C15 C16 1_555 1_555
N8 Cu1C 1_555 1_555
C21 C22 1_555 1_555

#END
