
#######################################################################
#
#                 Cambridge Crystallographic Data Centre
#                                CCDC 
#
#######################################################################
#
# If this CIF has been generated from an entry in the Cambridge 
# Structural Database, then it will include bibliographic, chemical, 
# crystal, experimental, refinement or atomic coordinate data resulting 
# from the CCDC's data processing and validation procedures.
#
#######################################################################

data_DEPCIL
_symmetry_cell_setting           monoclinic
_symmetry_space_group_name_H-M   'P 21/c'
_symmetry_Int_Tables_number      14
_space_group_name_Hall           '-P 2ybc'
loop_
_symmetry_equiv_pos_site_id
_symmetry_equiv_pos_as_xyz
1 x,y,z
2 -x,1/2+y,1/2-z
3 -x,-y,-z
4 x,1/2-y,1/2+z
_cell_length_a                   8.7969(6)
_cell_length_b                   17.9832(13)
_cell_length_c                   17.5198(12)
_cell_angle_alpha                90
_cell_angle_beta                 90.3640(10)
_cell_angle_gamma                90
_cell_volume                     2771.51
loop_
_atom_site_label
_atom_site_type_symbol
_atom_site_fract_x
_atom_site_fract_y
_atom_site_fract_z
Cu1 Cu 0.45889(3) 0.686931(16) 0.768201(17)
N1 N 0.3800(2) 0.71929(11) 0.87178(12)
C1 C 0.3555(3) 0.67024(14) 0.92813(14)
H1 H 0.3805 0.6205 0.9208
C2 C 0.2934(3) 0.69242(14) 0.99729(15)
H2 H 0.2723 0.6575 1.0349
C3 C 0.2633(3) 0.76690(14) 1.00959(14)
H3 H 0.2211 0.7824 1.0554
C4 C 0.2966(3) 0.81846(13) 0.95287(14)
C5 C 0.3493(3) 0.79155(14) 0.88325(14)
H4 H 0.3637 0.8248 0.8433
N2 N 0.2753(2) 0.89402(12) 0.96731(12)
H5 H 0.2099 0.9060 1.0014
C6 C 0.3514(3) 0.95116(14) 0.93098(14)
O1 O 0.4389(2) 0.94244(10) 0.87846(10)
N3 N 0.3186(3) 1.01888(11) 0.96315(12)
H6 H 0.2689 1.0181 1.0053
C7 C 0.3575(3) 1.08875(13) 0.93466(14)
C8 C 0.3219(3) 1.15096(14) 0.97857(14)
H7 H 0.2761 1.1452 1.0259
C9 C 0.3549(3) 1.22103(15) 0.95151(15)
H8 H 0.3319 1.2629 0.9804
C10 C 0.4225(3) 1.22840(14) 0.88094(14)
H9 H 0.4453 1.2757 0.8629
N4 N 0.4564(2) 1.16873(11) 0.83761(12)
C11 C 0.4251(3) 1.10019(14) 0.86397(14)
H10 H 0.4494 1.0592 0.8341
N5 N 0.2566(2) 0.71863(11) 0.72272(11)
C12 C 0.1430(3) 0.66933(14) 0.71517(15)
H11 H 0.1598 0.6202 0.7294
C13 C 0.0012(3) 0.68938(14) 0.68679(15)
H12 H -0.0752 0.6540 0.6810
C14 C -0.0244(3) 0.76228(14) 0.66742(15)
H13 H -0.1191 0.7768 0.6488
C15 C 0.0918(3) 0.81459(14) 0.67575(14)
C16 C 0.2323(3) 0.79013(14) 0.70248(13)
H14 H 0.3118 0.8240 0.7065
N6 N 0.0600(2) 0.88739(11) 0.65400(12)
H15 H -0.0252 0.8949 0.6310
C17 C 0.1519(3) 0.94892(14) 0.66570(14)
O2 O 0.2778(2) 0.94562(10) 0.69310(11)
N7 N 0.0803(2) 1.01300(11) 0.64163(12)
H16 H -0.0088 1.0083 0.6218
C18 C 0.1396(3) 1.08466(14) 0.64666(14)
C19 C 0.0573(3) 1.14342(14) 0.61387(15)
H17 H -0.0347 1.1343 0.5891
C20 C 0.1135(3) 1.21459(15) 0.61854(15)
H18 H 0.0588 1.2541 0.5979
C21 C 0.2519(3) 1.22717(14) 0.65414(14)
H19 H 0.2903 1.2753 0.6565
N8 N 0.3324(2) 1.17099(11) 0.68552(12)
C22 C 0.2759(3) 1.10137(14) 0.68305(14)
H20 H 0.3301 1.0632 0.7066
O11 O 0.3919(2) 0.56103(10) 0.78196(11)
H21 H 0.3265 0.5502 0.7503
H24 H 0.425(4) 0.5379(18) 0.820(2)
Cu1A Cu 0.54111(3) 1.186931(16) 0.731799(17)
N4A N 0.5436(2) 0.66873(11) 0.66239(12)
N8A N 0.6676(2) 0.67099(11) 0.81448(12)
Cl1 Cl -0.31600(7) 0.94369(3) 0.55857(3)
O3 O -0.4511(2) 0.98137(11) 0.58341(11)
O4 O -0.1993(2) 0.99753(11) 0.54119(11)
O5 O -0.3483(2) 0.89810(10) 0.49394(10)
O6 O -0.2611(2) 0.89695(11) 0.62132(10)
Cl2 Cl 0.07802(7) 1.02616(4) 1.14857(4)
O7 O -0.0690(3) 0.99958(13) 1.16692(13)
O8 O 0.0722(3) 1.09758(13) 1.11376(14)
O9 O 0.1547(3) 0.97405(14) 1.10017(14)
O10 O 0.1648(3) 1.03167(13) 1.21907(13)
O12 O 0.5659(2) 0.85344(11) 0.75656(12)
H22 H 0.551(4) 0.888(2) 0.784(2)
H23 H 0.618(5) 0.874(2) 0.722(2)
loop_
_geom_bond_atom_site_label_1
_geom_bond_atom_site_label_2
_geom_bond_site_symmetry_1
_geom_bond_site_symmetry_2
Cu1 N1 1_555 1_555
N1 C1 1_555 1_555
C1 H1 1_555 1_555
C2 C1 1_555 1_555
H2 C2 1_555 1_555
C3 C2 1_555 1_555
H3 C3 1_555 1_555
C4 C3 1_555 1_555
C5 N1 1_555 1_555
H4 C5 1_555 1_555
N2 C4 1_555 1_555
H5 N2 1_555 1_555
C6 N2 1_555 1_555
O1 C6 1_555 1_555
N3 C6 1_555 1_555
H6 N3 1_555 1_555
C7 N3 1_555 1_555
C8 C7 1_555 1_555
H7 C8 1_555 1_555
C9 C8 1_555 1_555
H8 C9 1_555 1_555
C10 C9 1_555 1_555
H9 C10 1_555 1_555
N4 C10 1_555 1_555
C11 C7 1_555 1_555
H10 C11 1_555 1_555
N5 Cu1 1_555 1_555
C12 N5 1_555 1_555
H11 C12 1_555 1_555
C13 C12 1_555 1_555
H12 C13 1_555 1_555
C14 C13 1_555 1_555
H13 C14 1_555 1_555
C15 C14 1_555 1_555
C16 N5 1_555 1_555
H14 C16 1_555 1_555
N6 C15 1_555 1_555
H15 N6 1_555 1_555
C17 N6 1_555 1_555
O2 C17 1_555 1_555
N7 C17 1_555 1_555
H16 N7 1_555 1_555
C18 N7 1_555 1_555
C19 C18 1_555 1_555
H17 C19 1_555 1_555
C20 C19 1_555 1_555
H18 C20 1_555 1_555
C21 C20 1_555 1_555
H19 C21 1_555 1_555
N8 C21 1_555 1_555
C22 C18 1_555 1_555
H20 C22 1_555 1_555
Cl1 O3 1_555 1_555
O4 Cl1 1_555 1_555
O5 Cl1 1_555 1_555
O6 Cl1 1_555 1_555
Cl2 O7 1_555 1_555
O8 Cl2 1_555 1_555
O9 Cl2 1_555 1_555
O10 Cl2 1_555 1_555
O11 Cu1 1_555 1_555
H21 O11 1_555 1_555
O12 H22 1_555 1_555
H23 O12 1_555 1_555
H24 O11 1_555 1_555
Cu1A N4 1_555 1_555
N4A Cu1 1_555 1_555
N8A Cu1 1_555 1_555
C4 C5 1_555 1_555
N4 C11 1_555 1_555
C15 C16 1_555 1_555
N8 C22 1_555 1_555
N8 Cu1A 1_555 1_555

#END
