
#######################################################################
#
#                 Cambridge Crystallographic Data Centre
#                                CCDC 
#
#######################################################################
#
# If this CIF has been generated from an entry in the Cambridge 
# Structural Database, then it will include bibliographic, chemical, 
# crystal, experimental, refinement or atomic coordinate data resulting 
# from the CCDC's data processing and validation procedures.
#
#######################################################################

data_DEPCOR
_symmetry_cell_setting           monoclinic
_symmetry_space_group_name_H-M   'C 2/c'
_symmetry_Int_Tables_number      15
_space_group_name_Hall           '-C 2yn'
loop_
_symmetry_equiv_pos_site_id
_symmetry_equiv_pos_as_xyz
1 x,y,z
2 1/2+x,1/2+y,z
3 -x,y,1/2-z
4 1/2-x,1/2+y,1/2-z
5 -x,-y,-z
6 1/2-x,1/2-y,-z
7 x,-y,1/2+z
8 1/2+x,1/2-y,1/2+z
_cell_length_a                   21.398(2)
_cell_length_b                   17.9035(17)
_cell_length_c                   17.4386(17)
_cell_angle_alpha                90
_cell_angle_beta                 105.302(2)
_cell_angle_gamma                90
_cell_volume                     6443.87
loop_
_atom_site_label
_atom_site_type_symbol
_atom_site_fract_x
_atom_site_fract_y
_atom_site_fract_z
Cu1 Cu 0.27627(3) 0.53219(4) 0.24238(4)
N1 N 0.3617(2) 0.4964(3) 0.3135(2)
C1 C 0.3662(2) 0.4291(3) 0.3461(3)
H1 H 0.3289 0.4001 0.3381
C2 C 0.4248(3) 0.4000(3) 0.3922(3)
C3 C 0.4797(3) 0.4451(3) 0.4058(4)
H2 H 0.5191 0.4291 0.4385
C4 C 0.4741(3) 0.5140(4) 0.3695(4)
H3 H 0.5104 0.5443 0.3761
C5 C 0.4156(3) 0.5381(3) 0.3240(3)
H4 H 0.4129 0.5846 0.2996
N2 N 0.4296(2) 0.3292(3) 0.4266(3)
H5 H 0.4561 0.3232 0.4728
C6 C 0.3945(3) 0.2684(3) 0.3910(3)
O1 O 0.3495(2) 0.2725(2) 0.3337(3)
N3 N 0.4174(2) 0.2024(3) 0.4293(3)
H6 H 0.4476 0.2056 0.4729
C7 C 0.3952(3) 0.1302(3) 0.4029(3)
C8 C 0.3328(2) 0.1174(3) 0.3543(3)
H7 H 0.3052 0.1578 0.3379
N4 N 0.3117(2) 0.0490(2) 0.3309(2)
C9 C 0.3512(3) -0.0090(3) 0.3549(3)
H8 H 0.3366 -0.0567 0.3382
C10 C 0.4133(3) -0.0002(3) 0.4040(3)
H9 H 0.4396 -0.0416 0.4204
C11 C 0.4355(3) 0.0700(3) 0.4281(3)
H10 H 0.4770 0.0770 0.4610
N5 N 0.3065(2) 0.4967(2) 0.1476(2)
C12 C 0.3084(3) 0.4239(3) 0.1327(3)
H11 H 0.2967 0.3900 0.1668
C13 C 0.3276(2) 0.3969(3) 0.0670(3)
C14 C 0.3466(3) 0.4480(3) 0.0177(3)
H12 H 0.3608 0.4319 -0.0256
C15 C 0.3440(3) 0.5229(3) 0.0340(3)
H13 H 0.3562 0.5581 0.0015
C16 C 0.3233(3) 0.5457(3) 0.0990(3)
H14 H 0.3210 0.5965 0.1091
N6 N 0.3303(2) 0.3208(2) 0.0499(3)
H15 H 0.3445 0.3099 0.0095
C17 C 0.3132(3) 0.2620(3) 0.0891(3)
O2 O 0.2915(2) 0.2687(2) 0.1447(2)
N7 N 0.3221(2) 0.1937(3) 0.0569(3)
H16 H 0.3367 0.1943 0.0155
C18 C 0.3100(3) 0.1241(3) 0.0848(3)
C19 C 0.2752(3) 0.1125(3) 0.1413(3)
H17 H 0.2587 0.1536 0.1620
N8 N 0.2650(2) 0.0439(2) 0.1668(2)
C20 C 0.2891(3) -0.0157(3) 0.1368(3)
H18 H 0.2824 -0.0633 0.1545
C21 C 0.3235(3) -0.0077(3) 0.0804(3)
H19 H 0.3397 -0.0498 0.0609
C22 C 0.3341(3) 0.0619(3) 0.0531(3)
H20 H 0.3566 0.0675 0.0145
O3 O 0.30754(19) 0.6521(2) 0.2419(3)
H21 H 0.335(3) 0.667(4) 0.291(4)
H22 H 0.324(2) 0.665(2) 0.198(2)
Cu1C Cu 0.22373(3) 0.03219(4) 0.25762(4)
N4C N 0.1883(2) 0.5490(2) 0.1691(2)
N8C N 0.2350(2) 0.5439(2) 0.3332(2)
O4 O 0.22514(18) 0.3411(3) 0.2547(2)
H23 H 0.1851 0.3351 0.2266
H24 H 0.2522 0.3269 0.2437
Si1 Si 0.57393(7) 0.23951(8) 0.59029(9)
F1 F 0.51732(14) 0.17163(17) 0.57855(19)
F2 F 0.63057(15) 0.30747(17) 0.59959(18)
F3 F 0.62962(16) 0.17673(18) 0.5832(2)
F4 F 0.55580(16) 0.2508(2) 0.48993(19)
F5 F 0.59284(16) 0.2289(2) 0.68853(18)
F6 F 0.51709(15) 0.30309(18) 0.5924(2)
O5 O 0.3065(4) 0.7338(4) 0.0967(4)
C23 C 0.2493(7) 0.7642(8) 0.0437(7)
O5E O 0.1935(4) 0.7662(4) -0.0967(4)
C23E C 0.2507(7) 0.7358(8) -0.0437(7)
loop_
_geom_bond_atom_site_label_1
_geom_bond_atom_site_label_2
_geom_bond_site_symmetry_1
_geom_bond_site_symmetry_2
Cu1 N1 1_555 1_555
N1 C1 1_555 1_555
C1 H1 1_555 1_555
C2 C1 1_555 1_555
C3 C2 1_555 1_555
H2 C3 1_555 1_555
C4 C3 1_555 1_555
H3 C4 1_555 1_555
C5 N1 1_555 1_555
H4 C5 1_555 1_555
N2 C2 1_555 1_555
H5 N2 1_555 1_555
C6 N2 1_555 1_555
O1 C6 1_555 1_555
N3 C6 1_555 1_555
H6 N3 1_555 1_555
C7 N3 1_555 1_555
C8 C7 1_555 1_555
H7 C8 1_555 1_555
N4 C8 1_555 1_555
C9 N4 1_555 1_555
H8 C9 1_555 1_555
C10 C9 1_555 1_555
H9 C10 1_555 1_555
C11 C7 1_555 1_555
H10 C11 1_555 1_555
N5 Cu1 1_555 1_555
C12 N5 1_555 1_555
H11 C12 1_555 1_555
C13 C12 1_555 1_555
C14 C13 1_555 1_555
H12 C14 1_555 1_555
C15 C14 1_555 1_555
H13 C15 1_555 1_555
C16 N5 1_555 1_555
H14 C16 1_555 1_555
N6 C13 1_555 1_555
H15 N6 1_555 1_555
C17 N6 1_555 1_555
O2 C17 1_555 1_555
N7 C17 1_555 1_555
H16 N7 1_555 1_555
C18 N7 1_555 1_555
C19 C18 1_555 1_555
H17 C19 1_555 1_555
N8 C19 1_555 1_555
C20 N8 1_555 1_555
H18 C20 1_555 1_555
C21 C20 1_555 1_555
H19 C21 1_555 1_555
C22 C18 1_555 1_555
H20 C22 1_555 1_555
O3 Cu1 1_555 1_555
O4 H23 1_555 1_555
Si1 F1 1_555 1_555
F2 Si1 1_555 1_555
F3 Si1 1_555 1_555
F4 Si1 1_555 1_555
F5 Si1 1_555 1_555
F6 Si1 1_555 1_555
O5 C23 1_555 1_555
C23 C23E 1_555 1_555
H21 O3 1_555 1_555
H22 O3 1_555 1_555
H24 O4 1_555 1_555
Cu1C N4 1_555 1_555
N4C Cu1 1_555 1_555
N8C Cu1 1_555 1_555
O5E C23E 1_555 1_555
C4 C5 1_555 1_555
C10 C11 1_555 1_555
C15 C16 1_555 1_555
N8 Cu1C 1_555 1_555
C21 C22 1_555 1_555

#END
