
#######################################################################
#
#                 Cambridge Crystallographic Data Centre
#                                CCDC 
#
#######################################################################
#
# If this CIF has been generated from an entry in the Cambridge 
# Structural Database, then it will include bibliographic, chemical, 
# crystal, experimental, refinement or atomic coordinate data resulting 
# from the CCDC's data processing and validation procedures.
#
#######################################################################

data_DEPDAE
_symmetry_cell_setting           monoclinic
_symmetry_space_group_name_H-M   'P 21/c'
_symmetry_Int_Tables_number      14
_space_group_name_Hall           '-P 2ybc'
loop_
_symmetry_equiv_pos_site_id
_symmetry_equiv_pos_as_xyz
1 x,y,z
2 -x,1/2+y,1/2-z
3 -x,-y,-z
4 x,1/2-y,1/2+z
_cell_length_a                   7.704(4)
_cell_length_b                   21.708(11)
_cell_length_c                   12.165(5)
_cell_angle_alpha                90
_cell_angle_beta                 122.77(2)
_cell_angle_gamma                90
_cell_volume                     1710.67
loop_
_atom_site_label
_atom_site_type_symbol
_atom_site_fract_x
_atom_site_fract_y
_atom_site_fract_z
Cu1 Cu -0.17141(8) 0.20666(2) 0.51346(4)
N1 N -0.1115(5) 0.11882(14) 0.5780(3)
C1 C -0.2333(7) 0.07285(17) 0.5013(4)
H1 H -0.3453 0.0822 0.4181
C2 C -0.1974(7) 0.01136(17) 0.5420(4)
C3 C -0.0266(7) -0.00140(18) 0.6658(4)
H2 H 0.0041 -0.0418 0.6959
C4 C 0.0964(8) 0.04623(19) 0.7434(4)
H3 H 0.2103 0.0382 0.8267
C5 C 0.0508(7) 0.10572(19) 0.6976(4)
H4 H 0.1348 0.1376 0.7509
N2 N -0.3196(6) -0.03833(14) 0.4661(3)
H5 H -0.2910 -0.0733 0.5052
C6 C -0.4781(7) -0.03833(18) 0.3381(4)
O1 O -0.5555(5) 0.00828(12) 0.2708(3)
N3 N -0.5413(6) -0.09715(14) 0.2921(3)
H6 H -0.4794 -0.1263 0.3480
C7 C -0.6953(6) -0.11540(17) 0.1647(4)
C8 C -0.8483(7) -0.07797(19) 0.0695(4)
H7 H -0.8556 -0.0366 0.0861
C9 C -0.9903(7) -0.10343(18) -0.0509(4)
H8 H -1.0939 -0.0790 -0.1164
C10 C -0.9786(7) -0.16479(19) -0.0740(4)
H9 H -1.0752 -0.1812 -0.1556
N4 N -0.8305(5) -0.20213(13) 0.0186(3)
C11 C -0.6938(7) -0.17712(17) 0.1336(4)
H10 H -0.5907 -0.2024 0.1973
O2 O -0.4883(5) 0.19166(15) 0.3496(3)
H11 H -0.4900 0.1879 0.2820
O3 O -0.2256(5) 0.22495(15) 0.6530(3)
H12 H -0.1155 0.2287 0.7234
O4 O -0.0797(4) 0.18699(12) 0.3916(2)
S1 S 0.14041(17) 0.20202(5) 0.44423(10)
O5 O 0.2523(5) 0.20504(14) 0.5856(3)
O6 O 0.1498(5) 0.26186(12) 0.3888(3)
O7 O 0.2236(5) 0.15283(13) 0.4010(3)
H17 H -0.594(6) 0.1852(17) 0.355(3)
H18 H -0.303(9) 0.255(3) 0.645(5)
Cu1A Cu -0.82859(8) -0.29334(2) -0.01346(4)
N4A N -0.1695(5) 0.29787(13) 0.4814(3)
O8 O -0.5063(6) 0.31779(15) 0.6083(3)
H13 H -0.6067 0.3044 0.5405
C12 C -0.4745(9) 0.3801(2) 0.5904(5)
H14 H -0.4639 0.3837 0.5156
H15 H -0.3493 0.3946 0.6667
H16 H -0.5887 0.4044 0.5769
loop_
_geom_bond_atom_site_label_1
_geom_bond_atom_site_label_2
_geom_bond_site_symmetry_1
_geom_bond_site_symmetry_2
Cu1 N1 1_555 1_555
N1 C1 1_555 1_555
C1 H1 1_555 1_555
C2 C1 1_555 1_555
C3 C2 1_555 1_555
H2 C3 1_555 1_555
C4 C3 1_555 1_555
H3 C4 1_555 1_555
C5 N1 1_555 1_555
H4 C5 1_555 1_555
N2 C2 1_555 1_555
H5 N2 1_555 1_555
C6 N2 1_555 1_555
O1 C6 1_555 1_555
N3 C6 1_555 1_555
H6 N3 1_555 1_555
C7 N3 1_555 1_555
C8 C7 1_555 1_555
H7 C8 1_555 1_555
C9 C8 1_555 1_555
H8 C9 1_555 1_555
C10 C9 1_555 1_555
H9 C10 1_555 1_555
N4 C10 1_555 1_555
C11 C7 1_555 1_555
H10 C11 1_555 1_555
O2 Cu1 1_555 1_555
H11 O2 1_555 1_555
O3 Cu1 1_555 1_555
H12 O3 1_555 1_555
O4 Cu1 1_555 1_555
S1 O4 1_555 1_555
O5 S1 1_555 1_555
O6 S1 1_555 1_555
O7 S1 1_555 1_555
O8 H13 1_555 1_555
C12 O8 1_555 1_555
H14 C12 1_555 1_555
H15 C12 1_555 1_555
H16 C12 1_555 1_555
H17 O2 1_555 1_555
H18 O3 1_555 1_555
Cu1A N4 1_555 1_555
N4A Cu1 1_555 1_555
C4 C5 1_555 1_555
N4 C11 1_555 1_555

#END
