
#######################################################################
#
#                 Cambridge Crystallographic Data Centre
#                                CCDC 
#
#######################################################################
#
# If this CIF has been generated from an entry in the Cambridge 
# Structural Database, then it will include bibliographic, chemical, 
# crystal, experimental, refinement or atomic coordinate data resulting 
# from the CCDC's data processing and validation procedures.
#
#######################################################################

data_DEPHUC
_symmetry_cell_setting           orthorhombic
_symmetry_space_group_name_H-M   'P n a 21'
_symmetry_Int_Tables_number      33
_space_group_name_Hall           'P 2c -2n'
loop_
_symmetry_equiv_pos_site_id
_symmetry_equiv_pos_as_xyz
1 x,y,z
2 -x,-y,1/2+z
3 1/2+x,1/2-y,z
4 1/2-x,1/2+y,1/2+z
_cell_length_a                   7.235(4)
_cell_length_b                   16.456(5)
_cell_length_c                   10.316(3)
_cell_angle_alpha                90
_cell_angle_beta                 90
_cell_angle_gamma                90
_cell_volume                     1228.21
loop_
_atom_site_label
_atom_site_type_symbol
_atom_site_fract_x
_atom_site_fract_y
_atom_site_fract_z
Y1 Y 0.10981(8) -0.41791(3) 0.75631(8)
S1 S 0.4017(2) -0.36697(10) 0.02864(17)
C1 C 0.3595(10) -0.3101(4) 0.1718(7)
C2 C 0.3176(9) -0.3493(4) 0.2882(6)
H1 H 0.3053 -0.4055 0.2908
C3 C 0.2947(9) -0.3035(4) 0.3999(6)
C4 C 0.3066(9) -0.2204(4) 0.3954(7)
H2 H 0.2858 -0.1902 0.4702
C5 C 0.3492(9) -0.1810(4) 0.2813(6)
C6 C 0.3775(9) -0.2268(4) 0.1681(7)
H3 H 0.4083 -0.2010 0.0909
C7 C 0.2477(9) -0.3447(3) 0.5278(6)
C8 C 0.3673(10) -0.0897(4) 0.2768(8)
O1 O 0.2048(7) -0.4181(3) 0.5288(4)
O2 O 0.2503(7) -0.3046(3) 0.6304(4)
O3 O 0.3316(7) -0.0474(3) 0.3763(5)
O4 O 0.4137(7) -0.0549(3) 0.1730(5)
O5 O 0.2350(7) -0.3607(3) -0.0520(4)
O6 O 0.4354(7) -0.4500(3) 0.0669(4)
O7 O 0.5603(6) -0.3292(3) -0.0328(4)
O8 O -0.1582(8) -0.4140(3) 0.6255(6)
H4 H -0.1504 -0.4554 0.5780
H5 H -0.2493 -0.4218 0.6747
O9 O -0.0490(7) -0.2945(3) 0.8023(4)
H6 H 0.0356 -0.2504 0.8048
H7 H -0.1381 -0.2853 0.7363
O10 O -0.1550(7) -0.4471(3) 0.8841(5)
H8 H -0.1213 -0.4736 0.9624
H9 H -0.2167 -0.3976 0.9037
O11 O 0.4355(6) -0.4498(2) 0.7466(5)
H10 H 0.4904 -0.4449 0.8299
H11 H 0.4522 -0.5036 0.7154
Y1_2 Y 0.10981(8) -0.41791(3) -0.24369(8)
Y1C Y 0.39019(8) 0.08209(3) 0.25631(8)
O3C O 0.1684(7) -0.5474(3) 0.8763(5)
O4C O 0.0863(7) -0.5549(3) 0.6730(5)
O5_2 O 0.2350(7) -0.3607(3) 0.9480(4)
loop_
_geom_bond_atom_site_label_1
_geom_bond_atom_site_label_2
_geom_bond_site_symmetry_1
_geom_bond_site_symmetry_2
Y1 O1 1_555 1_555
S1 C1 1_555 1_555
C1 C2 1_555 1_555
C2 H1 1_555 1_555
C3 C2 1_555 1_555
C4 C3 1_555 1_555
H2 C4 1_555 1_555
C5 C4 1_555 1_555
C6 C1 1_555 1_555
H3 C6 1_555 1_555
C7 C3 1_555 1_555
C8 C5 1_555 1_555
O1 C7 1_555 1_555
O2 Y1 1_555 1_555
O3 C8 1_555 1_555
O4 C8 1_555 1_555
O5 S1 1_555 1_555
O6 S1 1_555 1_555
O7 S1 1_555 1_555
O8 Y1 1_555 1_555
H4 O8 1_555 1_555
H5 O8 1_555 1_555
O9 Y1 1_555 1_555
H6 O9 1_555 1_555
H7 O9 1_555 1_555
O10 Y1 1_555 1_555
H8 O10 1_555 1_555
H9 O10 1_555 1_555
O11 Y1 1_555 1_555
H10 O11 1_555 1_555
H11 O11 1_555 1_555
Y1_2 O5 1_555 1_555
Y1C O3 1_555 1_555
O3C Y1 1_555 1_555
O4C Y1 1_555 1_555
O5_2 Y1 1_555 1_555
C5 C6 1_555 1_555
C7 O2 1_555 1_555
O4 Y1C 1_555 1_555

#END
