
#######################################################################
#
#                 Cambridge Crystallographic Data Centre
#                                CCDC 
#
#######################################################################
#
# If this CIF has been generated from an entry in the Cambridge 
# Structural Database, then it will include bibliographic, chemical, 
# crystal, experimental, refinement or atomic coordinate data resulting 
# from the CCDC's data processing and validation procedures.
#
#######################################################################

data_DEPHIQ
_symmetry_cell_setting           orthorhombic
_symmetry_space_group_name_H-M   'P 21 21 2'
_symmetry_Int_Tables_number      18
_space_group_name_Hall           'P 2 2ab'
loop_
_symmetry_equiv_pos_site_id
_symmetry_equiv_pos_as_xyz
1 x,y,z
2 -x,-y,z
3 1/2-x,1/2+y,-z
4 1/2+x,1/2-y,-z
_cell_length_a                   22.5845(10)
_cell_length_b                   12.3139(5)
_cell_length_c                   17.2598(6)
_cell_angle_alpha                90
_cell_angle_beta                 90
_cell_angle_gamma                90
_cell_volume                     4800.01
loop_
_atom_site_label
_atom_site_type_symbol
_atom_site_fract_x
_atom_site_fract_y
_atom_site_fract_z
N1 N -0.2111(4) 0.4036(9) -0.0549(5)
C1 C -0.2026(4) 0.3822(11) -0.1307(6)
H1 H -0.2243 0.4228 -0.1679
Hg1 Hg -0.28062(2) 0.54243(5) -0.01271(3)
Cl1 Cl -0.3115(2) 0.4739(4) 0.1083(2)
Cl2 Cl -0.29510(17) 0.6186(4) -0.1357(2)
C2 C -0.0477(3) 0.2305(7) -0.4531(6)
C3 C -0.0804(3) 0.1516(7) -0.4915(5)
C4 C -0.1232(3) 0.0886(7) -0.4518(5)
C5 C -0.1370(4) 0.1103(8) -0.3744(5)
C6 C -0.1047(4) 0.1963(8) -0.3386(5)
C7 C -0.0603(4) 0.2562(7) -0.3751(6)
C8 C -0.0715(4) 0.1351(8) -0.5770(5)
H2 H -0.0599 0.2041 -0.6010
H3 H -0.1084 0.1093 -0.6004
H4 H -0.0402 0.0812 -0.5854
C9 C -0.1833(4) 0.0528(9) -0.3270(6)
H5 H -0.2218 0.0878 -0.3349
H6 H -0.1726 0.0565 -0.2721
H7 H -0.1856 -0.0234 -0.3432
C10 C -0.1567(4) 0.2909(10) -0.2426(6)
C11 C -0.1647(4) 0.3062(9) -0.1560(6)
C12 C -0.1787(6) 0.3466(11) -0.0040(6)
H8 H -0.1854 0.3576 0.0498
C13 C -0.1394(7) 0.2785(13) -0.0248(7)
H9 H -0.1148 0.2473 0.0139
C14 C -0.1304(5) 0.2466(12) -0.1038(8)
H10 H -0.1039 0.1907 -0.1191
C15 C -0.0310(5) 0.3524(9) -0.3318(7)
H11 H -0.0361 0.4191 -0.3619
H12 H 0.0114 0.3377 -0.3250
H13 H -0.0496 0.3611 -0.2809
C16 C -0.1581(3) 0.0020(8) -0.4937(5)
H14 H -0.1845 0.0384 -0.5313
H15 H -0.1836 -0.0351 -0.4553
C17 C -0.1221(3) -0.0865(7) -0.5380(5)
C18 C -0.1354(4) -0.1058(8) -0.6174(6)
C19 C -0.1011(3) -0.1897(9) -0.6524(6)
C20 C -0.0591(4) -0.2506(8) -0.6165(6)
C21 C -0.0473(3) -0.2304(7) -0.5375(5)
C22 C -0.0809(3) -0.1495(7) -0.4997(5)
C23 C -0.1805(4) -0.0427(10) -0.6650(6)
H16 H -0.2202 -0.0714 -0.6549
H17 H -0.1713 -0.0504 -0.7202
H18 H -0.1791 0.0342 -0.6505
C24 C -0.1536(4) -0.2704(10) -0.7573(6)
C25 C -0.1579(4) -0.2689(9) -0.8438(5)
C26 C -0.1229(5) -0.1989(11) -0.8907(7)
H19 H -0.0956 -0.1504 -0.8671
C27 C -0.1282(7) -0.2010(14) -0.9664(10)
H20 H -0.1051 -0.1551 -0.9987
C28 C -0.1713(6) -0.2776(11) -0.9988(7)
H21 H -0.1753 -0.2817 -1.0535
C29 C -0.1976(5) -0.3368(9) -0.8791(6)
H22 H -0.2210 -0.3833 -0.8476
C30 C -0.0290(5) -0.3447(11) -0.6614(8)
H23 H -0.0534 -0.3643 -0.7062
H24 H -0.0249 -0.4078 -0.6272
H25 H 0.0102 -0.3215 -0.6790
C31 C -0.0729(4) -0.1350(9) -0.4126(5)
H26 H -0.0388 -0.0877 -0.4028
H27 H -0.0661 -0.2060 -0.3885
H28 H -0.1087 -0.1021 -0.3906
C32 C 0.0008(4) 0.2963(7) -0.4945(6)
H29 H -0.0185 0.3458 -0.5320
H30 H 0.0212 0.3420 -0.4556
N2 N -0.2048(4) -0.3407(8) -0.9557(5)
O1 O -0.1166(3) 0.2161(6) -0.2596(4)
O2 O -0.1842(4) 0.3407(9) -0.2904(5)
O3 O -0.1103(3) -0.2030(8) -0.7343(4)
O4 O -0.1840(5) -0.3244(10) -0.7150(5)
N1A N 0.2111(4) -0.4036(9) -0.0549(5)
N1_2 N -0.2111(4) -0.5964(9) -1.0549(5)
C1A C 0.2026(4) -0.3822(11) -0.1307(6)
H1A H 0.2243 -0.4228 -0.1679
Hg1A Hg 0.28062(2) -0.54243(5) -0.01271(3)
Hg1_2 Hg -0.28062(2) -0.45757(5) -1.01271(3)
Hg1A_2 Hg 0.28062(2) 0.45757(5) -1.01271(3)
Cl1_2 Cl -0.3115(2) -0.5261(4) -0.8917(2)
Cl2_2 Cl -0.29510(17) -0.3814(4) -1.1357(2)
C2A C 0.0477(3) -0.2305(7) -0.4531(6)
C3A C 0.0804(3) -0.1516(7) -0.4915(5)
C4A C 0.1232(3) -0.0886(7) -0.4518(5)
C5A C 0.1370(4) -0.1103(8) -0.3744(5)
C6A C 0.1047(4) -0.1963(8) -0.3386(5)
C7A C 0.0603(4) -0.2562(7) -0.3751(6)
C8A C 0.0715(4) -0.1351(8) -0.5770(5)
H2A H 0.0599 -0.2041 -0.6010
H3A H 0.1084 -0.1093 -0.6004
H4A H 0.0402 -0.0812 -0.5854
C9A C 0.1833(4) -0.0528(9) -0.3270(6)
H5A H 0.2218 -0.0878 -0.3349
H6A H 0.1726 -0.0565 -0.2721
H7A H 0.1856 0.0234 -0.3432
C10A C 0.1567(4) -0.2909(10) -0.2426(6)
C11A C 0.1647(4) -0.3062(9) -0.1560(6)
C12A C 0.1787(6) -0.3466(11) -0.0040(6)
H8A H 0.1854 -0.3576 0.0498
C13A C 0.1394(7) -0.2785(13) -0.0248(7)
H9A H 0.1148 -0.2473 0.0139
C14A C 0.1304(5) -0.2466(12) -0.1038(8)
H10A H 0.1039 -0.1907 -0.1191
C15A C 0.0310(5) -0.3524(9) -0.3318(7)
H11A H 0.0361 -0.4191 -0.3619
H12A H -0.0114 -0.3377 -0.3250
H13A H 0.0496 -0.3611 -0.2809
C16A C 0.1581(3) -0.0020(8) -0.4937(5)
H14A H 0.1845 -0.0384 -0.5313
H15A H 0.1836 0.0351 -0.4553
C17A C 0.1221(3) 0.0865(7) -0.5380(5)
C18A C 0.1354(4) 0.1058(8) -0.6174(6)
C19A C 0.1011(3) 0.1897(9) -0.6524(6)
C20A C 0.0591(4) 0.2506(8) -0.6165(6)
C21A C 0.0473(3) 0.2304(7) -0.5375(5)
C22A C 0.0809(3) 0.1495(7) -0.4997(5)
C23A C 0.1805(4) 0.0427(10) -0.6650(6)
H16A H 0.2202 0.0714 -0.6549
H17A H 0.1713 0.0504 -0.7202
H18A H 0.1791 -0.0342 -0.6505
C24A C 0.1536(4) 0.2704(10) -0.7573(6)
C25A C 0.1579(4) 0.2689(9) -0.8438(5)
C26A C 0.1229(5) 0.1989(11) -0.8907(7)
H19A H 0.0956 0.1504 -0.8671
C27A C 0.1282(7) 0.2010(14) -0.9664(10)
H20A H 0.1051 0.1551 -0.9987
C28A C 0.1713(6) 0.2776(11) -0.9988(7)
H21A H 0.1753 0.2817 -1.0535
C29A C 0.1976(5) 0.3368(9) -0.8791(6)
H22A H 0.2210 0.3833 -0.8476
C30A C 0.0290(5) 0.3447(11) -0.6614(8)
H23A H 0.0534 0.3643 -0.7062
H24A H 0.0249 0.4078 -0.6272
H25A H -0.0102 0.3215 -0.6790
C31A C 0.0729(4) 0.1350(9) -0.4126(5)
H26A H 0.0388 0.0877 -0.4028
H27A H 0.0661 0.2060 -0.3885
H28A H 0.1087 0.1021 -0.3906
C32A C -0.0008(4) -0.2963(7) -0.4945(6)
H29A H 0.0185 -0.3458 -0.5320
H30A H -0.0212 -0.3420 -0.4556
N2_2 N -0.2048(4) 0.6593(8) 0.0443(5)
N2A N 0.2048(4) 0.3407(8) -0.9557(5)
O1A O 0.1166(3) -0.2161(6) -0.2596(4)
O2A O 0.1842(4) -0.3407(9) -0.2904(5)
O3A O 0.1103(3) 0.2030(8) -0.7343(4)
O4A O 0.1840(5) 0.3244(10) -0.7150(5)
O5 O -0.1254(11) -0.4979(19) -0.5060(14)
C33 C -1.0000 0.0000 -0.9103(16)
C34 C -1.0000 0.0000 -0.7486(17)
C35 C -0.9578(7) -0.0616(16) -0.7873(14)
C36 C -0.9563(7) -0.0592(17) -0.8695(14)
Cl3 Cl -1.0000 0.0000 -1.0134(16)
C35A C -1.0422(7) 0.0616(16) -0.7873(14)
C36A C -1.0437(7) 0.0592(17) -0.8695(14)
C37 C -0.1129(16) -0.242(3) -0.222(2)
C38 C -0.0664(15) -0.189(3) -0.191(2)
O6 O -0.0494(7) -0.0693(14) -0.2083(11)
C39? C -0.078(2) -0.404(4) -0.158(3)
C40? C -0.070(2) -0.480(3) -0.086(2)
O7? O -0.1209(15) -0.391(3) -0.215(2)
loop_
_geom_bond_atom_site_label_1
_geom_bond_atom_site_label_2
_geom_bond_site_symmetry_1
_geom_bond_site_symmetry_2
N1 C1 1_555 1_555
C1 H1 1_555 1_555
Hg1 N1 1_555 1_555
Cl1 Hg1 1_555 1_555
Cl2 Hg1 1_555 1_555
C2 C3 1_555 1_555
C3 C4 1_555 1_555
C4 C5 1_555 1_555
C5 C6 1_555 1_555
C6 C7 1_555 1_555
C7 C2 1_555 1_555
C8 C3 1_555 1_555
H2 C8 1_555 1_555
H3 C8 1_555 1_555
H4 C8 1_555 1_555
C9 C5 1_555 1_555
H5 C9 1_555 1_555
H6 C9 1_555 1_555
H7 C9 1_555 1_555
C10 C11 1_555 1_555
C11 C1 1_555 1_555
C12 N1 1_555 1_555
H8 C12 1_555 1_555
C13 C12 1_555 1_555
H9 C13 1_555 1_555
C14 C11 1_555 1_555
H10 C14 1_555 1_555
C15 C7 1_555 1_555
H11 C15 1_555 1_555
H12 C15 1_555 1_555
H13 C15 1_555 1_555
C16 C4 1_555 1_555
H14 C16 1_555 1_555
H15 C16 1_555 1_555
C17 C16 1_555 1_555
C18 C17 1_555 1_555
C19 C18 1_555 1_555
C20 C19 1_555 1_555
C21 C20 1_555 1_555
C22 C17 1_555 1_555
C23 C18 1_555 1_555
H16 C23 1_555 1_555
H17 C23 1_555 1_555
H18 C23 1_555 1_555
C24 C25 1_555 1_555
C25 C26 1_555 1_555
C26 H19 1_555 1_555
C27 C26 1_555 1_555
H20 C27 1_555 1_555
C28 C27 1_555 1_555
H21 C28 1_555 1_555
C29 C25 1_555 1_555
H22 C29 1_555 1_555
C30 C20 1_555 1_555
H23 C30 1_555 1_555
H24 C30 1_555 1_555
H25 C30 1_555 1_555
C31 C22 1_555 1_555
H26 C31 1_555 1_555
H27 C31 1_555 1_555
H28 C31 1_555 1_555
C32 C2 1_555 1_555
H29 C32 1_555 1_555
H30 C32 1_555 1_555
N2 C28 1_555 1_555
O1 C6 1_555 1_555
O2 C10 1_555 1_555
O3 C19 1_555 1_555
O4 C24 1_555 1_555
C33 C36 1_555 1_555
C34 C35 1_555 1_555
C35 C36 1_555 1_555
Cl3 C33 1_555 1_555
C37 C38 1_555 1_555
C38 O6 1_555 1_555
N1A C1A 1_555 1_555
N1_2 Hg1_2 1_555 1_555
C1A H1A 1_555 1_555
Hg1A N1A 1_555 1_555
Hg1_2 N2 1_555 1_555
Hg1A_2 N2A 1_555 1_555
Cl1_2 Hg1_2 1_555 1_555
Cl2_2 Hg1_2 1_555 1_555
C2A C3A 1_555 1_555
C3A C4A 1_555 1_555
C4A C5A 1_555 1_555
C5A C6A 1_555 1_555
C6A C7A 1_555 1_555
C7A C2A 1_555 1_555
C8A C3A 1_555 1_555
H2A C8A 1_555 1_555
H3A C8A 1_555 1_555
H4A C8A 1_555 1_555
C9A C5A 1_555 1_555
H5A C9A 1_555 1_555
H6A C9A 1_555 1_555
H7A C9A 1_555 1_555
C10A C11A 1_555 1_555
C11A C1A 1_555 1_555
C12A N1A 1_555 1_555
H8A C12A 1_555 1_555
C13A C12A 1_555 1_555
H9A C13A 1_555 1_555
C14A C11A 1_555 1_555
H10A C14A 1_555 1_555
C15A C7A 1_555 1_555
H11A C15A 1_555 1_555
H12A C15A 1_555 1_555
H13A C15A 1_555 1_555
C16A C4A 1_555 1_555
H14A C16A 1_555 1_555
H15A C16A 1_555 1_555
C17A C16A 1_555 1_555
C18A C17A 1_555 1_555
C19A C18A 1_555 1_555
C20A C19A 1_555 1_555
C21A C32 1_555 1_555
C22A C17A 1_555 1_555
C23A C18A 1_555 1_555
H16A C23A 1_555 1_555
H17A C23A 1_555 1_555
H18A C23A 1_555 1_555
C24A C25A 1_555 1_555
C25A C26A 1_555 1_555
C26A H19A 1_555 1_555
C27A C26A 1_555 1_555
H20A C27A 1_555 1_555
C28A C27A 1_555 1_555
H21A C28A 1_555 1_555
C29A C25A 1_555 1_555
H22A C29A 1_555 1_555
C30A C20A 1_555 1_555
H23A C30A 1_555 1_555
H24A C30A 1_555 1_555
H25A C30A 1_555 1_555
C31A C22A 1_555 1_555
H26A C31A 1_555 1_555
H27A C31A 1_555 1_555
H28A C31A 1_555 1_555
C32A C21 1_555 1_555
H29A C32A 1_555 1_555
H30A C32A 1_555 1_555
N2_2 Hg1 1_555 1_555
N2A C28A 1_555 1_555
O1A C6A 1_555 1_555
O2A C10A 1_555 1_555
O3A C19A 1_555 1_555
O4A C24A 1_555 1_555
C35A C34 1_555 1_555
C36A C33 1_555 1_555
C10 O1 1_555 1_555
C13 C14 1_555 1_555
C21 C22 1_555 1_555
C24 O3 1_555 1_555
C29 N2 1_555 1_555
C2A C32A 1_555 1_555
C10A O1A 1_555 1_555
C13A C14A 1_555 1_555
C20A C21A 1_555 1_555
C21A C22A 1_555 1_555
C24A O3A 1_555 1_555
C29A N2A 1_555 1_555
C35A C36A 1_555 1_555

#END
