
#######################################################################
#
#                 Cambridge Crystallographic Data Centre
#                                CCDC 
#
#######################################################################
#
# If this CIF has been generated from an entry in the Cambridge 
# Structural Database, then it will include bibliographic, chemical, 
# crystal, experimental, refinement or atomic coordinate data resulting 
# from the CCDC's data processing and validation procedures.
#
#######################################################################

data_DEPSUN
_symmetry_cell_setting           monoclinic
_symmetry_space_group_name_H-M   'P 21/n'
_symmetry_Int_Tables_number      14
_space_group_name_Hall           '-P 2yn'
loop_
_symmetry_equiv_pos_site_id
_symmetry_equiv_pos_as_xyz
1 x,y,z
2 1/2-x,1/2+y,1/2-z
3 -x,-y,-z
4 1/2+x,1/2-y,1/2+z
_cell_length_a                   10.6653(8)
_cell_length_b                   7.9952(6)
_cell_length_c                   24.7444(17)
_cell_angle_alpha                90
_cell_angle_beta                 102.3790(10)
_cell_angle_gamma                90
_cell_volume                     2060.93
loop_
_atom_site_label
_atom_site_type_symbol
_atom_site_fract_x
_atom_site_fract_y
_atom_site_fract_z
Co1 Co 0.5000 0.5000 0.0000
Co2 Co 0.5000 0.5000 0.5000
N1 N 0.35536(13) 0.48409(17) 0.42391(6)
C1 C 0.23184(17) 0.4554(2) 0.42609(7)
C2 C 0.13767(17) 0.4372(3) 0.37883(7)
C3 C 0.16766(17) 0.4482(3) 0.32732(8)
C4 C 0.29447(16) 0.4792(2) 0.32427(7)
C5 C 0.38426(16) 0.4975(2) 0.37413(7)
N2 N 0.33987(14) 0.49260(18) 0.27472(6)
C6 C 0.27159(17) 0.4588(2) 0.22321(7)
O1 O 0.15883(12) 0.4169(2) 0.21394(5)
C7 C 0.33859(16) 0.4721(2) 0.17549(7)
C8 C 0.26806(17) 0.4191(2) 0.12417(7)
C9 C 0.32208(18) 0.4267(2) 0.07851(7)
N3 N 0.44027(14) 0.48743(16) 0.07971(6)
C10 C 0.50833(17) 0.5371(2) 0.12927(7)
C11 C 0.46220(17) 0.5312(2) 0.17751(7)
O2 O 0.63213(10) 0.42257(14) 0.45793(4)
C12 C 0.63842(14) 0.2799(2) 0.43724(6)
O3 O 0.61520(11) 0.14361(14) 0.45852(5)
C13 C 0.66994(15) 0.2762(2) 0.38096(6)
C14 C 0.61809(17) 0.1474(2) 0.34535(7)
C15 C 0.63178(19) 0.1461(2) 0.29099(8)
C16 C 0.70030(18) 0.2725(2) 0.27206(7)
C17 C 0.75232(17) 0.4005(2) 0.30729(7)
C18 C 0.73728(15) 0.4059(2) 0.36181(7)
C19 C 0.79667(15) 0.5527(2) 0.39680(7)
O4 O 0.88841(11) 0.52309(14) 0.43677(5)
O5 O 0.75626(11) 0.69625(14) 0.38150(5)
O6 O 0.53870(13) 0.74940(16) 0.47598(5)
O7 O 0.68823(12) 0.43007(17) 0.04027(5)
O8 O 0.46150(13) 0.24791(16) -0.00401(5)
H1 H 0.2159(19) 0.449(3) 0.4622(8)
H2 H 0.052(2) 0.416(3) 0.3828(8)
H3 H 0.1050(18) 0.433(3) 0.2949(8)
H4 H 0.412(2) 0.538(2) 0.2811(8)
H5 H 0.4696(19) 0.517(2) 0.3734(8)
H6 H 0.1839(18) 0.372(2) 0.1211(7)
H7 H 0.2749(17) 0.382(2) 0.0441(8)
H8 H 0.5941(19) 0.576(2) 0.1309(8)
H9 H 0.5132(18) 0.570(2) 0.2109(8)
H10 H 0.5684(18) 0.061(3) 0.3563(8)
H11 H 0.5950(19) 0.060(3) 0.2673(8)
H12 H 0.719(2) 0.270(3) 0.2372(9)
H13 H 0.792(2) 0.492(3) 0.2934(9)
H14 H 0.612(3) 0.788(3) 0.4779(10)
H15 H 0.4983(19) 0.806(3) 0.4964(8)
H16 H 0.705(2) 0.360(3) 0.0684(10)
H17 H 0.758(3) 0.499(3) 0.0473(11)
H18 H 0.5105(18) 0.190(3) 0.0161(8)
H19 H 0.434(2) 0.183(3) -0.0280(9)
Co2_2 Co 0.5000 0.5000 -0.5000
N1B N 0.64464(13) 0.51591(17) 0.57609(6)
N1B_2 N 0.64464(13) 0.51591(17) -0.42391(6)
C1B C 0.76816(17) 0.5446(2) -0.42609(7)
C2B C 0.86233(17) 0.5628(3) -0.37883(7)
C3B C 0.83234(17) 0.5518(3) -0.32732(8)
C4B C 0.70553(16) 0.5208(2) -0.32427(7)
C5B C 0.61574(16) 0.5025(2) -0.37413(7)
N2B N 0.66013(14) 0.50740(18) -0.27472(6)
C6B C 0.72841(17) 0.5412(2) -0.22321(7)
O1B O 0.84117(12) 0.5831(2) -0.21394(5)
C7B C 0.66141(16) 0.5279(2) -0.17549(7)
C8B C 0.73194(17) 0.5809(2) -0.12417(7)
C9B C 0.67792(18) 0.5733(2) -0.07851(7)
N3B N 0.55973(14) 0.51257(16) -0.07971(6)
C10B C 0.49167(17) 0.4629(2) -0.12927(7)
C11B C 0.53780(17) 0.4688(2) -0.17751(7)
O2B O 0.36787(10) 0.57743(14) 0.54207(4)
C12B C 0.36158(14) 0.7201(2) 0.56276(6)
O3B O 0.38480(11) 0.85639(14) 0.54148(5)
C13B C 0.33006(15) 0.7238(2) 0.61904(6)
C14B C 0.38191(17) 0.8526(2) 0.65465(7)
C15B C 0.36822(19) 0.8539(2) 0.70901(8)
C16B C 0.29970(18) 0.7275(2) 0.72794(7)
C17B C 0.24768(17) 0.5995(2) 0.69271(7)
C18B C 0.26272(15) 0.5941(2) 0.63819(7)
C19B C 0.20333(15) 0.4473(2) 0.60320(7)
O4B O 0.11159(11) 0.47691(14) 0.56323(5)
O5B O 0.24374(11) 0.30375(14) 0.61850(5)
O6B O 0.46130(13) 0.25060(16) 0.52402(5)
O7B O 0.31177(12) 0.56993(17) -0.04027(5)
O8B O 0.53850(13) 0.75209(16) 0.00401(5)
H1B H 0.7841(19) 0.551(3) -0.4622(8)
H2B H 0.948(2) 0.584(3) -0.3828(8)
H3B H 0.8950(18) 0.567(3) -0.2949(8)
H4B H 0.588(2) 0.462(2) -0.2811(8)
H5B H 0.5304(19) 0.483(2) -0.3734(8)
H6B H 0.8161(18) 0.628(2) -0.1211(7)
H7B H 0.7251(17) 0.618(2) -0.0441(8)
H8B H 0.4059(19) 0.424(2) -0.1309(8)
H9B H 0.4868(18) 0.430(2) -0.2109(8)
H10B H 0.4316(18) 0.939(3) 0.6437(8)
H11B H 0.4050(19) 0.940(3) 0.7327(8)
H12B H 0.281(2) 0.730(3) 0.7628(9)
H13B H 0.208(2) 0.508(3) 0.7066(9)
H14B H 0.388(3) 0.212(3) 0.5221(10)
H15B H 0.5017(19) 0.194(3) 0.5036(8)
H16B H 0.295(2) 0.640(3) -0.0684(10)
H17B H 0.242(3) 0.501(3) -0.0473(11)
H18B H 0.4895(18) 0.810(3) -0.0161(8)
H19B H 0.566(2) 0.817(3) 0.0280(9)
O9 O 0.55209(12) 0.71376(17) 0.29578(5)
H20 H 0.614(2) 0.710(3) 0.3249(9)
H21 H 0.501(2) 0.787(3) 0.3029(9)
loop_
_geom_bond_atom_site_label_1
_geom_bond_atom_site_label_2
_geom_bond_site_symmetry_1
_geom_bond_site_symmetry_2
Co1 N3 1_555 1_555
Co2 N1 1_555 1_555
N1 C1 1_555 1_555
C1 C2 1_555 1_555
C2 C3 1_555 1_555
C3 C4 1_555 1_555
C4 C5 1_555 1_555
C5 N1 1_555 1_555
N2 C4 1_555 1_555
C6 N2 1_555 1_555
O1 C6 1_555 1_555
C7 C6 1_555 1_555
C8 C7 1_555 1_555
C9 C8 1_555 1_555
N3 C9 1_555 1_555
C10 N3 1_555 1_555
C11 C7 1_555 1_555
O2 Co2 1_555 1_555
C12 O2 1_555 1_555
O3 C12 1_555 1_555
C13 C12 1_555 1_555
C14 C13 1_555 1_555
C15 C14 1_555 1_555
C16 C15 1_555 1_555
C17 C16 1_555 1_555
C18 C13 1_555 1_555
C19 C18 1_555 1_555
O4 C19 1_555 1_555
O5 C19 1_555 1_555
O6 Co2 1_555 1_555
O7 Co1 1_555 1_555
O8 Co1 1_555 1_555
H1 C1 1_555 1_555
H2 C2 1_555 1_555
H3 C3 1_555 1_555
H4 N2 1_555 1_555
H5 C5 1_555 1_555
H6 C8 1_555 1_555
H7 C9 1_555 1_555
H8 C10 1_555 1_555
H9 C11 1_555 1_555
H10 C14 1_555 1_555
H11 C15 1_555 1_555
H12 C16 1_555 1_555
H13 C17 1_555 1_555
H14 O6 1_555 1_555
H15 O6 1_555 1_555
H16 O7 1_555 1_555
H17 O7 1_555 1_555
H18 O8 1_555 1_555
H19 O8 1_555 1_555
O9 H20 1_555 1_555
H21 O9 1_555 1_555
Co2_2 N1B_2 1_555 1_555
N1B Co2 1_555 1_555
N1B_2 C1B 1_555 1_555
C1B C2B 1_555 1_555
C2B C3B 1_555 1_555
C3B C4B 1_555 1_555
C4B C5B 1_555 1_555
C5B N1B_2 1_555 1_555
N2B C4B 1_555 1_555
C6B N2B 1_555 1_555
O1B C6B 1_555 1_555
C7B C6B 1_555 1_555
C8B C7B 1_555 1_555
C9B C8B 1_555 1_555
N3B Co1 1_555 1_555
C10B N3B 1_555 1_555
C11B C7B 1_555 1_555
O2B Co2 1_555 1_555
C12B O2B 1_555 1_555
O3B C12B 1_555 1_555
C13B C12B 1_555 1_555
C14B C13B 1_555 1_555
C15B C14B 1_555 1_555
C16B C15B 1_555 1_555
C17B C16B 1_555 1_555
C18B C13B 1_555 1_555
C19B C18B 1_555 1_555
O4B C19B 1_555 1_555
O5B C19B 1_555 1_555
O6B Co2 1_555 1_555
O7B Co1 1_555 1_555
O8B Co1 1_555 1_555
H1B C1B 1_555 1_555
H2B C2B 1_555 1_555
H3B C3B 1_555 1_555
H4B N2B 1_555 1_555
H5B C5B 1_555 1_555
H6B C8B 1_555 1_555
H7B C9B 1_555 1_555
H8B C10B 1_555 1_555
H9B C11B 1_555 1_555
H10B C14B 1_555 1_555
H11B C15B 1_555 1_555
H12B C16B 1_555 1_555
H13B C17B 1_555 1_555
H14B O6B 1_555 1_555
H15B O6B 1_555 1_555
H16B O7B 1_555 1_555
H17B O7B 1_555 1_555
H18B O8B 1_555 1_555
H19B O8B 1_555 1_555
C10 C11 1_555 1_555
C17 C18 1_555 1_555
C9B N3B 1_555 1_555
C10B C11B 1_555 1_555
C17B C18B 1_555 1_555

#END
