
#######################################################################
#
#                 Cambridge Crystallographic Data Centre
#                                CCDC 
#
#######################################################################
#
# If this CIF has been generated from an entry in the Cambridge 
# Structural Database, then it will include bibliographic, chemical, 
# crystal, experimental, refinement or atomic coordinate data resulting 
# from the CCDC's data processing and validation procedures.
#
#######################################################################

data_DEPTIC
_symmetry_cell_setting           orthorhombic
_symmetry_space_group_name_H-M   'P b c n'
_symmetry_Int_Tables_number      60
_space_group_name_Hall           '-P 2n 2ab'
loop_
_symmetry_equiv_pos_site_id
_symmetry_equiv_pos_as_xyz
1 x,y,z
2 1/2-x,1/2-y,1/2+z
3 1/2+x,1/2-y,-z
4 -x,y,1/2-z
5 -x,-y,-z
6 1/2+x,1/2+y,1/2-z
7 1/2-x,1/2+y,z
8 x,-y,1/2+z
_cell_length_a                   12.876(2)
_cell_length_b                   17.760(3)
_cell_length_c                   14.835(3)
_cell_angle_alpha                90
_cell_angle_beta                 90
_cell_angle_gamma                90
_cell_volume                     3392.43
loop_
_atom_site_label
_atom_site_type_symbol
_atom_site_fract_x
_atom_site_fract_y
_atom_site_fract_z
C1 C 0.3896(3) 0.2361(2) 0.1069(3)
H1 H 0.4154 0.1971 0.0715
C2 C 0.3306(4) 0.2879(3) 0.0682(3)
H2 H 0.3159 0.2846 0.0069
C3 C 0.2906(4) 0.3470(2) 0.1187(3)
C4 C 0.3141(4) 0.3492(2) 0.2061(3)
H3 H 0.2889 0.3875 0.2428
C5 C 0.3762(4) 0.2938(2) 0.2404(3)
H4 H 0.3933 0.2963 0.3012
C6 C 0.1772(4) 0.4569(2) 0.1161(3)
C7 C 0.2287(4) 0.5061(2) 0.1680(4)
H5 H 0.2990 0.4992 0.1798
C8 C 0.0754(4) 0.4711(2) 0.0980(3)
H6 H 0.0379 0.4393 0.0603
C9 C 0.0296(3) 0.5315(2) 0.1351(3)
H7 H -0.0403 0.5400 0.1231
C10 C 0.1782(4) 0.5657(2) 0.2030(3)
H8 H 0.2146 0.5990 0.2397
N1 N 0.4136(3) 0.23727(17) 0.1932(2)
N2 N 0.2231(3) 0.39426(19) 0.0790(2)
H9 H 0.2068 0.3842 0.0241
N3 N 0.0784(3) 0.57864(18) 0.1871(2)
Cl1 Cl 0.64066(9) 0.16665(6) 0.10341(9)
Cu1 Cu 0.5000 0.15973(4) 0.2500
C1C C 0.6104(3) 0.2361(2) 0.3931(3)
H1C H 0.5846 0.1971 0.4285
C2C C 0.6694(4) 0.2879(3) 0.4318(3)
H2C H 0.6841 0.2846 0.4931
C3C C 0.7094(4) 0.3470(2) 0.3813(3)
C4C C 0.6859(4) 0.3492(2) 0.2939(3)
H3C H 0.7111 0.3875 0.2572
C5C C 0.6238(4) 0.2938(2) 0.2596(3)
H4C H 0.6067 0.2963 0.1988
C6C C 0.8228(4) 0.4569(2) 0.3839(3)
C7C C 0.7713(4) 0.5061(2) 0.3320(4)
H5C H 0.7010 0.4992 0.3202
C8C C 0.9246(4) 0.4711(2) 0.4020(3)
H6C H 0.9621 0.4393 0.4397
C9C C 0.9704(3) 0.5315(2) 0.3649(3)
H7C H 1.0403 0.5400 0.3769
C10C C 0.8218(4) 0.5657(2) 0.2970(3)
H8C H 0.7854 0.5990 0.2603
N1C N 0.5864(3) 0.23727(17) 0.3068(2)
N2C N 0.7769(3) 0.39426(19) 0.4210(2)
H9C H 0.7932 0.3842 0.4759
N3C N 0.9216(3) 0.57864(18) 0.3129(2)
N3F N 0.4216(3) 0.07864(18) 0.1871(2)
N3E N 0.5784(3) 0.07864(18) 0.3129(2)
Cl1C Cl 0.35934(9) 0.16665(6) 0.39659(9)
Cu1E Cu 1.0000 0.65973(4) 0.2500
Cu1E_2 Cu 0.0000 0.65973(4) 0.2500
loop_
_geom_bond_atom_site_label_1
_geom_bond_atom_site_label_2
_geom_bond_site_symmetry_1
_geom_bond_site_symmetry_2
C1 H1 1_555 1_555
C2 C1 1_555 1_555
H2 C2 1_555 1_555
C3 C2 1_555 1_555
C4 C3 1_555 1_555
H3 C4 1_555 1_555
C5 C4 1_555 1_555
H4 C5 1_555 1_555
C6 C7 1_555 1_555
C7 H5 1_555 1_555
C8 C6 1_555 1_555
H6 C8 1_555 1_555
C9 C8 1_555 1_555
H7 C9 1_555 1_555
C10 C7 1_555 1_555
H8 C10 1_555 1_555
N1 C1 1_555 1_555
N2 C3 1_555 1_555
H9 N2 1_555 1_555
N3 C9 1_555 1_555
Cl1 Cu1 1_555 1_555
Cu1 N1 1_555 1_555
C1C H1C 1_555 1_555
C2C C1C 1_555 1_555
H2C C2C 1_555 1_555
C3C C2C 1_555 1_555
C4C C3C 1_555 1_555
H3C C4C 1_555 1_555
C5C C4C 1_555 1_555
H4C C5C 1_555 1_555
C6C C7C 1_555 1_555
C7C H5C 1_555 1_555
C8C C6C 1_555 1_555
H6C C8C 1_555 1_555
C9C C8C 1_555 1_555
H7C C9C 1_555 1_555
C10C C7C 1_555 1_555
H8C C10C 1_555 1_555
N1C Cu1 1_555 1_555
N2C C3C 1_555 1_555
H9C N2C 1_555 1_555
N3C C9C 1_555 1_555
N3F Cu1 1_555 1_555
N3E Cu1 1_555 1_555
Cl1C Cu1 1_555 1_555
Cu1E N3C 1_555 1_555
Cu1E_2 N3 1_555 1_555
C5 N1 1_555 1_555
C6 N2 1_555 1_555
C10 N3 1_555 1_555
C1C N1C 1_555 1_555
C5C N1C 1_555 1_555
C6C N2C 1_555 1_555
C10C N3C 1_555 1_555

#END
