
#######################################################################
#
#                 Cambridge Crystallographic Data Centre
#                                CCDC 
#
#######################################################################
#
# If this CIF has been generated from an entry in the Cambridge 
# Structural Database, then it will include bibliographic, chemical, 
# crystal, experimental, refinement or atomic coordinate data resulting 
# from the CCDC's data processing and validation procedures.
#
#######################################################################

data_DEPTIB
_symmetry_cell_setting           orthorhombic
_symmetry_space_group_name_H-M   'P c c a'
_symmetry_Int_Tables_number      54
_space_group_name_Hall           '-P 2a 2ac'
loop_
_symmetry_equiv_pos_site_id
_symmetry_equiv_pos_as_xyz
1 x,y,z
2 1/2-x,y,1/2+z
3 x,-y,1/2+z
4 1/2-x,-y,z
5 -x,-y,-z
6 1/2+x,-y,1/2-z
7 -x,y,1/2-z
8 1/2+x,y,-z
_cell_length_a                   8.005(1)
_cell_length_b                   6.334(2)
_cell_length_c                   18.673(4)
_cell_angle_alpha                90
_cell_angle_beta                 90
_cell_angle_gamma                90
_cell_volume                     946.79
loop_
_atom_site_label
_atom_site_type_symbol
_atom_site_fract_x
_atom_site_fract_y
_atom_site_fract_z
Mn1 Mn 0.0000 0.5203(1) 0.2500
O1 O 0.2500 0.5000 0.3061(2)
O2 O -0.0429(3) 0.2732(4) 0.3256(1)
O3 O 0.0438(4) 0.0166(4) 0.3968(2)
O4 O -0.1185(3) 0.7446(5) 0.3176(2)
N1 N 0.2500 0.5000 0.3778(2)
C1 C 0.0487(4) 0.1980(5) 0.3735(2)
C2 C 0.1632(4) 0.3489(6) 0.4142(2)
C3 C 0.1685(5) 0.3452(7) 0.4873(2)
C4 C 0.2500 0.5000 0.5247(3)
H1 H 0.112(6) 0.234(8) 0.508(3)
H2 H 0.2500 0.5000 0.585(4)
O1E O -0.2500 0.5000 0.1939(2)
O2F O 0.0429(3) 0.2732(4) 0.1744(1)
O4F O 0.1185(3) 0.7446(5) 0.1824(2)
Mn1E Mn 0.5000 0.4797(1) 0.2500
C2C C 0.3368(4) 0.6511(6) 0.4142(2)
C3C C 0.3315(5) 0.6548(7) 0.4873(2)
O2C O 0.5429(3) 0.7268(4) 0.3256(1)
C1C C 0.4513(4) 0.8020(5) 0.3735(2)
H1C H 0.388(6) 0.766(8) 0.508(3)
O3C O 0.4562(4) 0.9834(4) 0.3968(2)
loop_
_geom_bond_atom_site_label_1
_geom_bond_atom_site_label_2
_geom_bond_site_symmetry_1
_geom_bond_site_symmetry_2
Mn1 O1 1_555 1_555
O1 N1 1_555 1_555
O2 Mn1 1_555 1_555
O3 C1 1_555 1_555
O4 Mn1 1_555 1_555
N1 C2 1_555 1_555
C1 O2 1_555 1_555
C2 C1 1_555 1_555
C3 C2 1_555 1_555
C4 C3 1_555 1_555
H1 C3 1_555 1_555
H2 C4 1_555 1_555
O1E Mn1 1_555 1_555
O2F Mn1 1_555 1_555
O4F Mn1 1_555 1_555
Mn1E O1 1_555 1_555
C2C N1 1_555 1_555
C3C C4 1_555 1_555
O2C Mn1E 1_555 1_555
C1C C2C 1_555 1_555
H1C C3C 1_555 1_555
O3C C1C 1_555 1_555
C2C C3C 1_555 1_555
O2C C1C 1_555 1_555

#END
