
#######################################################################
#
#                 Cambridge Crystallographic Data Centre
#                                CCDC 
#
#######################################################################
#
# If this CIF has been generated from an entry in the Cambridge 
# Structural Database, then it will include bibliographic, chemical, 
# crystal, experimental, refinement or atomic coordinate data resulting 
# from the CCDC's data processing and validation procedures.
#
#######################################################################

data_DEPVAW
_symmetry_cell_setting           monoclinic
_symmetry_space_group_name_H-M   'P 21'
_symmetry_Int_Tables_number      4
_space_group_name_Hall           'P 2yb'
loop_
_symmetry_equiv_pos_site_id
_symmetry_equiv_pos_as_xyz
1 x,y,z
2 -x,1/2+y,-z
_cell_length_a                   8.834(3)
_cell_length_b                   17.988(5)
_cell_length_c                   11.119(3)
_cell_angle_alpha                90
_cell_angle_beta                 94.27(1)
_cell_angle_gamma                90
_cell_volume                     1761.97
loop_
_atom_site_label
_atom_site_type_symbol
_atom_site_fract_x
_atom_site_fract_y
_atom_site_fract_z
Mn1 Mn -0.10267(6) 0.15560(3) 0.70448(5)
N1 N 0.0060(4) 0.22299(17) 0.5590(3)
N2 N -0.0376(3) 0.24917(16) -0.1533(3)
N3 N -0.1660(3) 0.06425(16) 0.5568(3)
N4 N -0.2067(3) 0.08947(17) -0.1442(3)
S1 S 0.22121(12) 0.36290(5) 0.27479(8)
S2 S 0.04549(12) 0.40562(5) 0.16829(8)
S3 S -0.21804(13) -0.09990(5) 0.24417(9)
S4 S -0.39502(13) -0.06873(6) 0.12824(9)
C1 C -0.0765(5) 0.2444(2) 0.4586(4)
H1 H -0.1782 0.2307 0.4498
C2 C -0.0191(5) 0.2856(2) 0.3675(3)
H2 H -0.0808 0.2991 0.2996
C3 C 0.1319(4) 0.30658(19) 0.3793(3)
C4 C 0.2189(4) 0.2830(2) 0.4811(3)
H3 H 0.3215 0.2950 0.4911
C5 C 0.1526(4) 0.2419(2) 0.5670(3)
H4 H 0.2130 0.2263 0.6343
C6 C 0.0938(5) 0.2463(2) -0.0846(4)
H5 H 0.1665 0.2119 -0.1045
C7 C 0.1265(4) 0.2917(2) 0.0139(3)
H6 H 0.2191 0.2876 0.0590
C8 C 0.0202(4) 0.34325(19) 0.0446(3)
C9 C -0.1136(5) 0.3481(2) -0.0262(3)
H7 H -0.1869 0.3828 -0.0091
C10 C -0.1375(5) 0.3008(2) -0.1231(3)
H8 H -0.2284 0.3048 -0.1705
C11 C -0.2782(4) 0.0726(2) 0.4720(3)
H9 H -0.3450 0.1120 0.4794
C12 C -0.3021(5) 0.0263(2) 0.3728(3)
H10 H -0.3816 0.0352 0.3150
C13 C -0.2062(4) -0.03298(19) 0.3615(3)
C14 C -0.0882(4) -0.0436(2) 0.4509(3)
H11 H -0.0213 -0.0833 0.4466
C15 C -0.0732(4) 0.0060(2) 0.5455(3)
H12 H 0.0055 -0.0012 0.6046
C16 C -0.1325(4) 0.0797(2) -0.0354(3)
H13 H -0.0424 0.1056 -0.0182
C17 C -0.1824(4) 0.0336(2) 0.0518(3)
H14 H -0.1280 0.0294 0.1263
C18 C -0.3143(4) -0.00651(19) 0.0273(3)
C19 C -0.3934(4) 0.0027(2) -0.0846(3)
H15 H -0.4830 -0.0232 -0.1043
C20 C -0.3361(4) 0.0508(2) -0.1648(3)
H16 H -0.3905 0.0572 -0.2389
N5 N 0.1108(4) 0.10067(19) 0.7477(3)
N6 N 0.1748(4) 0.06189(19) 0.8171(3)
N7 N 0.2414(5) 0.0214(2) 0.8861(4)
N8 N -0.3230(5) 0.2045(2) 0.6539(3)
N9 N -0.4258(5) 0.2099(2) 0.7012(4)
N10 N -0.5359(6) 0.2197(4) 0.7587(5)
Mn1_2 Mn -0.10267(6) 0.15560(3) -0.29552(5)
N2_2 N -0.0376(3) 0.24917(16) 0.8467(3)
N4_2 N -0.2067(3) 0.08947(17) 0.8558(3)
N11 N -0.4270(5) 0.3922(2) 0.4740(4)
N12 N -0.6271(6) 0.7545(3) 0.8414(6)
S5 S -0.17221(15) 0.58795(8) 0.65939(14)
S6 S -0.23641(16) 0.59042(8) 0.83021(12)
C21 C -0.3893(6) 0.4530(4) 0.4158(5)
H17 H -0.4126 0.4546 0.3329
C22 C -0.3182(6) 0.5141(3) 0.4695(5)
H18 H -0.2978 0.5557 0.4238
C23 C -0.2777(5) 0.5126(2) 0.5914(4)
C24 C -0.3154(5) 0.4494(2) 0.6522(4)
H19 H -0.2905 0.4454 0.7347
C25 C -0.3897(6) 0.3926(3) 0.5912(5)
H20 H -0.4158 0.3513 0.6354
C26 C -0.5641(6) 0.7414(3) 0.7383(6)
H21 H -0.6010 0.7677 0.6703
C27 C -0.4491(5) 0.6918(3) 0.7255(4)
H22 H -0.4100 0.6848 0.6509
C28 C -0.3923(4) 0.6527(3) 0.8248(4)
C29 C -0.4553(5) 0.6652(3) 0.9320(4)
H23 H -0.4197 0.6396 1.0011
C30 C -0.5713(7) 0.7156(4) 0.9367(6)
H24 H -0.6131 0.7231 1.0101
loop_
_geom_bond_atom_site_label_1
_geom_bond_atom_site_label_2
_geom_bond_site_symmetry_1
_geom_bond_site_symmetry_2
Mn1 N1 1_555 1_555
N1 C1 1_555 1_555
N2 C6 1_555 1_555
N3 Mn1 1_555 1_555
N4 C16 1_555 1_555
S1 S2 1_555 1_555
S2 C8 1_555 1_555
S3 S4 1_555 1_555
S4 C18 1_555 1_555
C1 H1 1_555 1_555
C2 C1 1_555 1_555
H2 C2 1_555 1_555
C3 S1 1_555 1_555
C4 C3 1_555 1_555
H3 C4 1_555 1_555
C5 N1 1_555 1_555
H4 C5 1_555 1_555
C6 H5 1_555 1_555
C7 C6 1_555 1_555
H6 C7 1_555 1_555
C8 C7 1_555 1_555
C9 C8 1_555 1_555
H7 C9 1_555 1_555
C10 N2 1_555 1_555
H8 C10 1_555 1_555
C11 N3 1_555 1_555
H9 C11 1_555 1_555
C12 C11 1_555 1_555
H10 C12 1_555 1_555
C13 S3 1_555 1_555
C14 C13 1_555 1_555
H11 C14 1_555 1_555
C15 N3 1_555 1_555
H12 C15 1_555 1_555
C16 H13 1_555 1_555
C17 C16 1_555 1_555
H14 C17 1_555 1_555
C18 C17 1_555 1_555
C19 C18 1_555 1_555
H15 C19 1_555 1_555
C20 N4 1_555 1_555
H16 C20 1_555 1_555
N5 Mn1 1_555 1_555
N6 N5 1_555 1_555
N7 N6 1_555 1_555
N8 Mn1 1_555 1_555
N9 N8 1_555 1_555
N10 N9 1_555 1_555
N11 C21 1_555 1_555
N12 C26 1_555 1_555
S5 S6 1_555 1_555
S6 C28 1_555 1_555
C21 H17 1_555 1_555
C22 C21 1_555 1_555
H18 C22 1_555 1_555
C23 S5 1_555 1_555
C24 C23 1_555 1_555
H19 C24 1_555 1_555
C25 N11 1_555 1_555
H20 C25 1_555 1_555
C26 H21 1_555 1_555
C27 C26 1_555 1_555
H22 C27 1_555 1_555
C28 C27 1_555 1_555
C29 C28 1_555 1_555
H23 C29 1_555 1_555
C30 N12 1_555 1_555
H24 C30 1_555 1_555
Mn1_2 N2 1_555 1_555
N2_2 Mn1 1_555 1_555
N4_2 Mn1 1_555 1_555
N4 Mn1_2 1_555 1_555
C2 C3 1_555 1_555
C4 C5 1_555 1_555
C9 C10 1_555 1_555
C12 C13 1_555 1_555
C14 C15 1_555 1_555
C19 C20 1_555 1_555
C22 C23 1_555 1_555
C24 C25 1_555 1_555
C29 C30 1_555 1_555

#END
