
#######################################################################
#
#                 Cambridge Crystallographic Data Centre
#                                CCDC 
#
#######################################################################
#
# If this CIF has been generated from an entry in the Cambridge 
# Structural Database, then it will include bibliographic, chemical, 
# crystal, experimental, refinement or atomic coordinate data resulting 
# from the CCDC's data processing and validation procedures.
#
#######################################################################

data_DEPVOK
_symmetry_cell_setting           monoclinic
_symmetry_space_group_name_H-M   'C 2/c'
_symmetry_Int_Tables_number      15
_space_group_name_Hall           '-C 2yn'
loop_
_symmetry_equiv_pos_site_id
_symmetry_equiv_pos_as_xyz
1 x,y,z
2 1/2+x,1/2+y,z
3 -x,y,1/2-z
4 1/2-x,1/2+y,1/2-z
5 -x,-y,-z
6 1/2-x,1/2-y,-z
7 x,-y,1/2+z
8 1/2+x,1/2-y,1/2+z
_cell_length_a                   11.0048(14)
_cell_length_b                   19.474(2)
_cell_length_c                   14.4802(15)
_cell_angle_alpha                90
_cell_angle_beta                 94.512(10)
_cell_angle_gamma                90
_cell_volume                     3093.6
loop_
_atom_site_label
_atom_site_type_symbol
_atom_site_fract_x
_atom_site_fract_y
_atom_site_fract_z
Hg1 Hg -0.36025(4) -0.21862(2) -0.41043(3)
Hg2 Hg -0.5000 -0.33320(3) -0.7500
Cu1 Cu -0.16619(10) 0.03839(7) -0.39274(8)
Cl1 Cl -0.3870(2) -0.23741(13) -0.60779(17)
O1 O -0.0160(5) -0.0202(3) -0.3836(4)
O2 O -0.1300(6) 0.0501(4) -0.5221(4)
N1 N -0.2813(9) -0.0644(5) -0.4242(7)
N2 N -0.4859(10) -0.3585(6) -0.3622(7)
N3 N -0.2325(13) -0.3433(8) -0.8088(9)
N4 N -0.1863(7) 0.0318(5) -0.2584(5)
N5 N -0.3070(7) 0.1065(4) -0.3970(5)
C1 C -0.3089(10) -0.1184(5) -0.4223(7)
C2 C -0.4402(10) -0.3085(7) -0.3799(8)
C3 C -0.3263(13) -0.3403(6) -0.7921(9)
C4 C -0.2952(10) 0.0676(7) -0.2353(8)
C5 C -0.3191(12) 0.1257(8) -0.2989(8)
C6 C -0.2839(13) 0.1713(7) -0.4429(12)
C7 C -0.4146(11) 0.0777(7) -0.4398(11)
C8 C 0.0319(8) -0.0202(5) -0.4593(6)
H2 H -0.1194 0.0518 -0.2255
H3 H -0.1915 -0.0142 -0.2419
H4 H -0.2872 0.0826 -0.1727
H5 H -0.3628 0.0373 -0.2442
H6 H -0.2593 0.1596 -0.2820
H7 H -0.3980 0.1442 -0.2929
H8 H -0.2760 0.1624 -0.5067
H9 H -0.2105 0.1911 -0.4160
H10 H -0.3496 0.2022 -0.4369
H11 H -0.4036 0.0654 -0.5021
H12 H -0.4330 0.0377 -0.4059
H13 H -0.4798 0.1095 -0.4386
Hg1E Hg -0.13975(4) -0.28138(2) -0.58957(3)
Hg1G Hg -0.86025(4) -0.28138(2) -0.91043(3)
Hg1B Hg -0.63975(4) -0.21862(2) -1.08957(3)
Cu1D Cu 0.16619(10) -0.03839(7) -0.60726(8)
Cu1B Cu -0.83381(10) 0.03839(7) -1.10726(8)
Cl1E Cl -0.1130(2) -0.26259(13) -0.39221(17)
Cl1B Cl -0.6130(2) -0.23741(13) -0.89221(17)
Cl1G Cl -0.8870(2) -0.26259(13) -1.10779(17)
O1D O 0.0160(5) 0.0202(3) -0.6164(4)
O1B O -0.9840(5) -0.0202(3) -1.1164(4)
O2D O 0.1300(6) -0.0501(4) -0.4779(4)
O2B O -0.8700(6) 0.0501(4) -0.9779(4)
N1B N -0.7187(9) -0.0644(5) -1.0758(7)
N2B N -0.5141(10) -0.3585(6) -1.1378(7)
N3B N -0.7675(13) -0.3433(8) -0.6912(9)
N4B N -0.8137(7) 0.0318(5) -1.2416(5)
N5B N -0.6930(7) 0.1065(4) -1.1030(5)
C1B C -0.6911(10) -0.1184(5) -1.0777(7)
C2B C -0.5598(10) -0.3085(7) -1.1201(8)
C3B C -0.6737(13) -0.3403(6) -0.7079(9)
C4B C -0.7048(10) 0.0676(7) -1.2647(8)
C5B C -0.6809(12) 0.1257(8) -1.2011(8)
C6B C -0.7161(13) 0.1713(7) -1.0571(12)
C7B C -0.5854(11) 0.0777(7) -1.0602(11)
C8D C -0.0319(8) 0.0202(5) -0.5407(6)
H2B H -0.8806 0.0518 -1.2745
H3B H -0.8085 -0.0142 -1.2581
H4B H -0.7128 0.0826 -1.3273
H5B H -0.6372 0.0373 -1.2558
H6B H -0.7407 0.1596 -1.2180
H7B H -0.6020 0.1442 -1.2071
H8B H -0.7240 0.1624 -0.9933
H9B H -0.7895 0.1911 -1.0840
H10B H -0.6504 0.2022 -1.0631
H11B H -0.5964 0.0654 -0.9979
H12B H -0.5670 0.0377 -1.0941
H13B H -0.5202 0.1095 -1.0614
O3 O -0.500000(10) -0.0778(13) -0.250000(10)
H1 H -0.4286 -0.1014 -0.2319
H1B H -0.5714 -0.1014 -0.2681
loop_
_geom_bond_atom_site_label_1
_geom_bond_atom_site_label_2
_geom_bond_site_symmetry_1
_geom_bond_site_symmetry_2
Hg1 Cl1 1_555 1_555
Hg2 Cl1 1_555 1_555
Cu1 O1 1_555 1_555
Cl1 Hg1E 1_555 1_555
O1 C8 1_555 1_555
O2 Cu1 1_555 1_555
O3 H1 1_555 1_555
N1 Cu1 1_555 1_555
N2 C2 1_555 1_555
N3 C3 1_555 1_555
N4 Cu1 1_555 1_555
N5 Cu1 1_555 1_555
C1 Hg1 1_555 1_555
C2 Hg1 1_555 1_555
C3 Hg2 1_555 1_555
C4 N4 1_555 1_555
C5 N5 1_555 1_555
C6 N5 1_555 1_555
C7 N5 1_555 1_555
C8 O2D 1_555 1_555
H2 N4 1_555 1_555
H3 N4 1_555 1_555
H4 C4 1_555 1_555
H5 C4 1_555 1_555
H6 C5 1_555 1_555
H7 C5 1_555 1_555
H8 C6 1_555 1_555
H9 C6 1_555 1_555
H10 C6 1_555 1_555
H11 C7 1_555 1_555
H12 C7 1_555 1_555
H13 C7 1_555 1_555
Hg1E Cl1E 1_555 1_555
Hg1G Cl1B 1_555 1_555
Hg1B Cl1B 1_555 1_555
Cu1D O1D 1_555 1_555
Cu1B O1B 1_555 1_555
Cl1E Hg1 1_555 1_555
Cl1B Hg2 1_555 1_555
Cl1G Hg1G 1_555 1_555
O1D C8D 1_555 1_555
O2D Cu1D 1_555 1_555
O2B Cu1B 1_555 1_555
N1B Cu1B 1_555 1_555
N2B C2B 1_555 1_555
N3B C3B 1_555 1_555
N4B Cu1B 1_555 1_555
N5B Cu1B 1_555 1_555
C1B Hg1B 1_555 1_555
C2B Hg1B 1_555 1_555
C3B Hg2 1_555 1_555
C4B N4B 1_555 1_555
C5B N5B 1_555 1_555
C6B N5B 1_555 1_555
C7B N5B 1_555 1_555
C8D O2 1_555 1_555
H1B O3 1_555 1_555
H2B N4B 1_555 1_555
H3B N4B 1_555 1_555
H4B C4B 1_555 1_555
H5B C4B 1_555 1_555
H6B C5B 1_555 1_555
H7B C5B 1_555 1_555
H8B C6B 1_555 1_555
H9B C6B 1_555 1_555
H10B C6B 1_555 1_555
H11B C7B 1_555 1_555
H12B C7B 1_555 1_555
H13B C7B 1_555 1_555
N1 C1 1_555 1_555
C4 C5 1_555 1_555
C8 C8D 1_555 1_555
Hg1B Cl1G 1_555 1_555
N1B C1B 1_555 1_555
C4B C5B 1_555 1_555

#END
