
#######################################################################
#
#                 Cambridge Crystallographic Data Centre
#                                CCDC 
#
#######################################################################
#
# If this CIF has been generated from an entry in the Cambridge 
# Structural Database, then it will include bibliographic, chemical, 
# crystal, experimental, refinement or atomic coordinate data resulting 
# from the CCDC's data processing and validation procedures.
#
#######################################################################

data_DEPVEA
_symmetry_cell_setting           monoclinic
_symmetry_space_group_name_H-M   'C 2/c'
_symmetry_Int_Tables_number      15
_space_group_name_Hall           '-C 2yn'
loop_
_symmetry_equiv_pos_site_id
_symmetry_equiv_pos_as_xyz
1 x,y,z
2 1/2+x,1/2+y,z
3 -x,y,1/2-z
4 1/2-x,1/2+y,1/2-z
5 -x,-y,-z
6 1/2-x,1/2-y,-z
7 x,-y,1/2+z
8 1/2+x,1/2-y,1/2+z
_cell_length_a                   32.044(6)
_cell_length_b                   16.480(4)
_cell_length_c                   17.150(4)
_cell_angle_alpha                90
_cell_angle_beta                 117.966(11)
_cell_angle_gamma                90
_cell_volume                     7999.08
loop_
_atom_site_label
_atom_site_type_symbol
_atom_site_fract_x
_atom_site_fract_y
_atom_site_fract_z
Mn1 Mn 0.0000 0.57860(8) -0.7500
Mn2 Mn 0.0000 -0.07949(8) -0.2500
N1 N 0.0549(3) 0.5767(6) -0.6029(6)
N2 N 0.0840(4) 0.5783(5) -0.5766(6)
N3 N 0.1270(5) 0.5821(9) -0.5309(9)
N4 N 0.0545(4) -0.0795(9) -0.3008(7)
N5 N 0.0806(4) -0.0773(7) -0.2762(7)
N6 N 0.1254(6) -0.0814(9) -0.2456(8)
N7 N -0.0417(2) 0.4818(3) -0.7173(4)
N8 N -0.0409(2) 0.0168(3) -0.3550(3)
N9 N -0.0427(2) 0.6770(3) -0.7206(4)
N10 N -0.2246(9) 0.8938(15) -0.5008(13)
N11 N 0.0424(2) -0.1771(3) -0.1464(4)
N12 N 0.2212(6) -0.3897(12) 0.3888(12)
C1 C -0.0420(3) 0.4824(4) -0.6391(5)
H1 H -0.0246 0.5222 -0.5983
C2 C -0.0661(3) 0.4287(4) -0.6169(4)
H2 H -0.0646 0.4322 -0.5615
C3 C -0.0934(2) 0.3680(4) -0.6747(5)
C4 C -0.0931(3) 0.3682(4) -0.7555(5)
H3 H -0.1108 0.3302 -0.7985
C5 C -0.0664(3) 0.4256(4) -0.7713(5)
H4 H -0.0663 0.4233 -0.8254
C6 C -0.0664(3) 0.0731(4) -0.3461(5)
H5 H -0.0672 0.0746 -0.2926
C7 C -0.0923(3) 0.1310(4) -0.4072(5)
H6 H -0.1088 0.1704 -0.3939
C8 C -0.0935(2) 0.1300(4) -0.4911(5)
C9 C -0.0661(3) 0.0714(4) -0.4989(4)
H7 H -0.0640 0.0688 -0.5511
C10 C -0.0417(3) 0.0164(4) -0.4353(5)
H8 H -0.0247 -0.0234 -0.4466
C11 C -0.0886(3) 0.6773(4) -0.7610(5)
H9 H -0.1041 0.6358 -0.8009
C12 C -0.1154(3) 0.7349(5) -0.7485(5)
H10 H -0.1482 0.7316 -0.7794
C13 C -0.0942(3) 0.7978(4) -0.6902(5)
C14 C -0.0455(3) 0.7974(4) -0.6467(5)
H11 H -0.0292 0.8379 -0.6060
C15 C -0.0210(3) 0.7367(4) -0.6634(5)
H12 H 0.0118 0.7375 -0.6335
C16 C -0.2455(7) 0.8498(12) -0.564(2)
H13 H -0.2652 0.8096 -0.5618
C17 C -0.2406(4) 0.8582(7) -0.6489(10)
H14 H -0.2572 0.8266 -0.6991
C18 C -0.2073(4) 0.9206(7) -0.6419(10)
C19 C -0.1886(6) 0.9624(10) -0.5697(14)
H15 H -0.1683 1.0049 -0.5644
C20 C -0.1974(6) 0.9465(11) -0.503(2)
H16 H -0.1816 0.9780 -0.4521
C21 C 0.0211(3) -0.2369(4) -0.1268(5)
H17 H -0.0117 -0.2382 -0.1549
C22 C 0.0454(3) -0.2972(4) -0.0668(5)
H18 H 0.0289 -0.3377 -0.0551
C23 C 0.0941(3) -0.2976(4) -0.0241(5)
C24 C 0.1159(3) -0.2345(4) -0.0459(5)
H19 H 0.1487 -0.2315 -0.0207
C25 C 0.0880(3) -0.1772(4) -0.1053(5)
H20 H 0.1032 -0.1345 -0.1171
C26 C 0.1950(5) -0.4451(9) 0.3460(17)
H21 H 0.1806 -0.4772 0.3713
C27 C 0.1867(4) -0.4601(7) 0.2634(10)
H22 H 0.1653 -0.5010 0.2327
C28 C 0.2065(4) -0.4212(6) 0.2223(10)
C29 C 0.2375(4) -0.3570(7) 0.2710(14)
H23 H 0.2528 -0.3242 0.2485
C30 C 0.2428(5) -0.3475(9) 0.3606(15)
H24 H 0.2634 -0.3080 0.3974
C31 C -0.1223(3) 0.3084(4) -0.6531(5)
H25 H -0.1426 0.2779 -0.7059
H26 H -0.1424 0.3380 -0.6347
C32 C -0.0916(2) 0.2497(4) -0.5807(4)
H27 H -0.0717 0.2798 -0.5273
H28 H -0.0712 0.2204 -0.5984
C33 C -0.1220(2) 0.1898(4) -0.5620(5)
H29 H -0.1424 0.2197 -0.5445
H30 H -0.1421 0.1606 -0.6158
C34 C -0.1221(3) 0.8618(5) -0.6709(7)
H31 H -0.1239 0.8460 -0.6180
H32 H -0.1049 0.9126 -0.6582
C35 C -0.1678(5) 0.8754(7) -0.7377(9)
H33 H -0.1850 0.8246 -0.7514
H34 H -0.1662 0.8929 -0.7902
C36 C -0.1967(4) 0.9424(7) -0.7135(10)
H35 H -0.1787 0.9924 -0.6977
H36 H -0.2263 0.9531 -0.7661
C37 C 0.1224(3) -0.3610(5) 0.0438(6)
H37 H 0.1231 -0.3462 0.0991
H38 H 0.1058 -0.4123 0.0252
C38 C 0.1712(4) -0.3739(7) 0.0607(8)
H39 H 0.1887 -0.3235 0.0809
H40 H 0.1713 -0.3895 0.0062
C39 C 0.1957(4) -0.4406(7) 0.1311(9)
H41 H 0.1758 -0.4884 0.1129
H42 H 0.2251 -0.4548 0.1310
Mn2_2 Mn 0.0000 -0.07949(8) -1.2500
N1B N -0.0549(3) 0.5767(6) -0.8971(6)
N2B N -0.0840(4) 0.5783(5) -0.9234(6)
N3B N -0.1270(5) 0.5821(9) -0.9691(9)
N4B N -0.0545(4) -0.0795(9) -0.1992(7)
N5B N -0.0806(4) -0.0773(7) -0.2238(7)
N6B N -0.1254(6) -0.0814(9) -0.2544(8)
N7B N 0.0417(2) 0.4818(3) -0.7827(4)
N8B N 0.0409(2) 0.0168(3) -0.1450(3)
N8B_2 N 0.0409(2) 0.0168(3) -1.1450(3)
N9B N 0.0427(2) 0.6770(3) -0.7794(4)
N10B N 0.2246(9) 0.8938(15) -0.9992(13)
N11B N -0.0424(2) -0.1771(3) -0.3536(4)
N12B N -0.2212(6) -0.3897(12) -0.8888(12)
C1B C 0.0420(3) 0.4824(4) -0.8609(5)
H1B H 0.0246 0.5222 -0.9017
C2B C 0.0661(3) 0.4287(4) -0.8831(4)
H2B H 0.0646 0.4322 -0.9385
C3B C 0.0934(2) 0.3680(4) -0.8253(5)
C4B C 0.0931(3) 0.3682(4) -0.7445(5)
H3B H 0.1108 0.3302 -0.7015
C5B C 0.0664(3) 0.4256(4) -0.7287(5)
H4B H 0.0663 0.4233 -0.6746
C6B C 0.0664(3) 0.0731(4) -1.1539(5)
H5B H 0.0672 0.0746 -1.2074
C7B C 0.0923(3) 0.1310(4) -1.0928(5)
H6B H 0.1088 0.1704 -1.1061
C8B C 0.0935(2) 0.1300(4) -1.0089(5)
C9B C 0.0661(3) 0.0714(4) -1.0011(4)
H7B H 0.0640 0.0688 -0.9489
C10B C 0.0417(3) 0.0164(4) -1.0647(5)
H8B H 0.0247 -0.0234 -1.0534
C11B C 0.0886(3) 0.6773(4) -0.7390(5)
H9B H 0.1041 0.6358 -0.6991
C12B C 0.1154(3) 0.7349(5) -0.7515(5)
H10B H 0.1482 0.7316 -0.7206
C13B C 0.0942(3) 0.7978(4) -0.8098(5)
C14B C 0.0455(3) 0.7974(4) -0.8533(5)
H11B H 0.0292 0.8379 -0.8940
C15B C 0.0210(3) 0.7367(4) -0.8366(5)
H12B H -0.0118 0.7375 -0.8665
C16B C 0.2455(7) 0.8498(12) -0.936(2)
H13B H 0.2652 0.8096 -0.9382
C17B C 0.2406(4) 0.8582(7) -0.8511(10)
H14B H 0.2572 0.8266 -0.8009
C18B C 0.2073(4) 0.9206(7) -0.8581(10)
C19B C 0.1886(6) 0.9624(10) -0.9303(14)
H15B H 0.1683 1.0049 -0.9356
C20B C 0.1974(6) 0.9465(11) -0.997(2)
H16B H 0.1816 0.9780 -1.0479
C21B C -0.0211(3) -0.2369(4) -0.3732(5)
H17B H 0.0117 -0.2382 -0.3451
C22B C -0.0454(3) -0.2972(4) -0.4332(5)
H18B H -0.0289 -0.3377 -0.4449
C23B C -0.0941(3) -0.2976(4) -0.4759(5)
C24B C -0.1159(3) -0.2345(4) -0.4541(5)
H19B H -0.1487 -0.2315 -0.4793
C25B C -0.0880(3) -0.1772(4) -0.3947(5)
H20B H -0.1032 -0.1345 -0.3829
C26B C -0.1950(5) -0.4451(9) -0.8460(17)
H21B H -0.1806 -0.4772 -0.8713
C27B C -0.1867(4) -0.4601(7) -0.7634(10)
H22B H -0.1653 -0.5010 -0.7327
C28B C -0.2065(4) -0.4212(6) -0.7223(10)
C29B C -0.2375(4) -0.3570(7) -0.7710(14)
H23B H -0.2528 -0.3242 -0.7485
C30B C -0.2428(5) -0.3475(9) -0.8606(15)
H24B H -0.2634 -0.3080 -0.8974
C31B C 0.1223(3) 0.3084(4) -0.8469(5)
H25B H 0.1426 0.2779 -0.7941
H26B H 0.1424 0.3380 -0.8653
C32B C 0.0916(2) 0.2497(4) -0.9193(4)
H27B H 0.0717 0.2798 -0.9727
H28B H 0.0712 0.2204 -0.9016
C33B C 0.1220(2) 0.1898(4) -0.9380(5)
H29B H 0.1424 0.2197 -0.9555
H30B H 0.1421 0.1606 -0.8842
C34B C 0.1221(3) 0.8618(5) -0.8291(7)
H31B H 0.1239 0.8460 -0.8820
H32B H 0.1049 0.9126 -0.8418
C35B C 0.1678(5) 0.8754(7) -0.7623(9)
H33B H 0.1850 0.8246 -0.7486
H34B H 0.1662 0.8929 -0.7098
C36B C 0.1967(4) 0.9424(7) -0.7865(10)
H35B H 0.1787 0.9924 -0.8023
H36B H 0.2263 0.9531 -0.7339
C37B C -0.1224(3) -0.3610(5) -0.5438(6)
H37B H -0.1231 -0.3462 -0.5991
H38B H -0.1058 -0.4123 -0.5252
C38B C -0.1712(4) -0.3739(7) -0.5607(8)
H39B H -0.1887 -0.3235 -0.5809
H40B H -0.1713 -0.3895 -0.5062
C39B C -0.1957(4) -0.4406(7) -0.6311(9)
H41B H -0.1758 -0.4884 -0.6129
H42B H -0.2251 -0.4548 -0.6310
O1 O 0.2157(7) 0.6548(9) -0.4393(13)
O2 O 0.1953(7) -0.1819(10) -0.1604(12)
loop_
_geom_bond_atom_site_label_1
_geom_bond_atom_site_label_2
_geom_bond_site_symmetry_1
_geom_bond_site_symmetry_2
Mn1 N1 1_555 1_555
Mn2 N4 1_555 1_555
N1 N2 1_555 1_555
N2 N3 1_555 1_555
N4 N5 1_555 1_555
N5 N6 1_555 1_555
N7 Mn1 1_555 1_555
N8 Mn2 1_555 1_555
N9 Mn1 1_555 1_555
N10 C16 1_555 1_555
N11 Mn2 1_555 1_555
N12 C26 1_555 1_555
C1 N7 1_555 1_555
H1 C1 1_555 1_555
C2 C1 1_555 1_555
H2 C2 1_555 1_555
C3 C2 1_555 1_555
C4 C3 1_555 1_555
H3 C4 1_555 1_555
C5 N7 1_555 1_555
H4 C5 1_555 1_555
C6 N8 1_555 1_555
H5 C6 1_555 1_555
C7 C6 1_555 1_555
H6 C7 1_555 1_555
C8 C7 1_555 1_555
C9 C8 1_555 1_555
H7 C9 1_555 1_555
C10 N8 1_555 1_555
H8 C10 1_555 1_555
C11 N9 1_555 1_555
H9 C11 1_555 1_555
C12 C11 1_555 1_555
H10 C12 1_555 1_555
C13 C12 1_555 1_555
C14 C13 1_555 1_555
H11 C14 1_555 1_555
C15 N9 1_555 1_555
H12 C15 1_555 1_555
C16 H13 1_555 1_555
C17 C16 1_555 1_555
H14 C17 1_555 1_555
C18 C17 1_555 1_555
C19 C18 1_555 1_555
H15 C19 1_555 1_555
C20 N10 1_555 1_555
H16 C20 1_555 1_555
C21 N11 1_555 1_555
H17 C21 1_555 1_555
C22 C21 1_555 1_555
H18 C22 1_555 1_555
C23 C22 1_555 1_555
C24 C23 1_555 1_555
H19 C24 1_555 1_555
C25 N11 1_555 1_555
H20 C25 1_555 1_555
C26 H21 1_555 1_555
C27 C26 1_555 1_555
H22 C27 1_555 1_555
C28 C27 1_555 1_555
C29 C28 1_555 1_555
H23 C29 1_555 1_555
C30 N12 1_555 1_555
H24 C30 1_555 1_555
C31 C3 1_555 1_555
H25 C31 1_555 1_555
H26 C31 1_555 1_555
C32 C31 1_555 1_555
H27 C32 1_555 1_555
H28 C32 1_555 1_555
C33 C8 1_555 1_555
H29 C33 1_555 1_555
H30 C33 1_555 1_555
C34 C13 1_555 1_555
H31 C34 1_555 1_555
H32 C34 1_555 1_555
C35 C34 1_555 1_555
H33 C35 1_555 1_555
H34 C35 1_555 1_555
C36 C18 1_555 1_555
H35 C36 1_555 1_555
H36 C36 1_555 1_555
C37 C23 1_555 1_555
H37 C37 1_555 1_555
H38 C37 1_555 1_555
C38 C37 1_555 1_555
H39 C38 1_555 1_555
H40 C38 1_555 1_555
C39 C28 1_555 1_555
H41 C39 1_555 1_555
H42 C39 1_555 1_555
Mn2_2 N8B_2 1_555 1_555
N1B Mn1 1_555 1_555
N2B N1B 1_555 1_555
N3B N2B 1_555 1_555
N4B Mn2 1_555 1_555
N5B N4B 1_555 1_555
N6B N5B 1_555 1_555
N7B Mn1 1_555 1_555
N8B Mn2 1_555 1_555
N8B_2 C6B 1_555 1_555
N9B Mn1 1_555 1_555
N10B C16B 1_555 1_555
N11B Mn2 1_555 1_555
N12B C26B 1_555 1_555
C1B N7B 1_555 1_555
H1B C1B 1_555 1_555
C2B C1B 1_555 1_555
H2B C2B 1_555 1_555
C3B C2B 1_555 1_555
C4B C3B 1_555 1_555
H3B C4B 1_555 1_555
C5B N7B 1_555 1_555
H4B C5B 1_555 1_555
C6B H5B 1_555 1_555
C7B C6B 1_555 1_555
H6B C7B 1_555 1_555
C8B C7B 1_555 1_555
C9B C8B 1_555 1_555
H7B C9B 1_555 1_555
C10B N8B_2 1_555 1_555
H8B C10B 1_555 1_555
C11B N9B 1_555 1_555
H9B C11B 1_555 1_555
C12B C11B 1_555 1_555
H10B C12B 1_555 1_555
C13B C12B 1_555 1_555
C14B C13B 1_555 1_555
H11B C14B 1_555 1_555
C15B N9B 1_555 1_555
H12B C15B 1_555 1_555
C16B H13B 1_555 1_555
C17B C16B 1_555 1_555
H14B C17B 1_555 1_555
C18B C17B 1_555 1_555
C19B C18B 1_555 1_555
H15B C19B 1_555 1_555
C20B N10B 1_555 1_555
H16B C20B 1_555 1_555
C21B N11B 1_555 1_555
H17B C21B 1_555 1_555
C22B C21B 1_555 1_555
H18B C22B 1_555 1_555
C23B C22B 1_555 1_555
C24B C23B 1_555 1_555
H19B C24B 1_555 1_555
C25B N11B 1_555 1_555
H20B C25B 1_555 1_555
C26B H21B 1_555 1_555
C27B C26B 1_555 1_555
H22B C27B 1_555 1_555
C28B C27B 1_555 1_555
C29B C28B 1_555 1_555
H23B C29B 1_555 1_555
C30B N12B 1_555 1_555
H24B C30B 1_555 1_555
C31B C3B 1_555 1_555
H25B C31B 1_555 1_555
H26B C31B 1_555 1_555
C32B C31B 1_555 1_555
H27B C32B 1_555 1_555
H28B C32B 1_555 1_555
C33B C8B 1_555 1_555
H29B C33B 1_555 1_555
H30B C33B 1_555 1_555
C34B C13B 1_555 1_555
H31B C34B 1_555 1_555
H32B C34B 1_555 1_555
C35B C34B 1_555 1_555
H33B C35B 1_555 1_555
H34B C35B 1_555 1_555
C36B C18B 1_555 1_555
H35B C36B 1_555 1_555
H36B C36B 1_555 1_555
C37B C23B 1_555 1_555
H37B C37B 1_555 1_555
H38B C37B 1_555 1_555
C38B C37B 1_555 1_555
H39B C38B 1_555 1_555
H40B C38B 1_555 1_555
C39B C28B 1_555 1_555
H41B C39B 1_555 1_555
H42B C39B 1_555 1_555
C4 C5 1_555 1_555
C9 C10 1_555 1_555
C14 C15 1_555 1_555
C19 C20 1_555 1_555
C24 C25 1_555 1_555
C29 C30 1_555 1_555
C32 C33 1_555 1_555
C35 C36 1_555 1_555
C38 C39 1_555 1_555
C4B C5B 1_555 1_555
C9B C10B 1_555 1_555
C14B C15B 1_555 1_555
C19B C20B 1_555 1_555
C24B C25B 1_555 1_555
C29B C30B 1_555 1_555
C32B C33B 1_555 1_555
C35B C36B 1_555 1_555
C38B C39B 1_555 1_555

#END
