
#######################################################################
#
#                 Cambridge Crystallographic Data Centre
#                                CCDC 
#
#######################################################################
#
# If this CIF has been generated from an entry in the Cambridge 
# Structural Database, then it will include bibliographic, chemical, 
# crystal, experimental, refinement or atomic coordinate data resulting 
# from the CCDC's data processing and validation procedures.
#
#######################################################################

data_DEPWIF
_symmetry_cell_setting           monoclinic
_symmetry_space_group_name_H-M   'P 21/c'
_symmetry_Int_Tables_number      14
_space_group_name_Hall           '-P 2ybc'
loop_
_symmetry_equiv_pos_site_id
_symmetry_equiv_pos_as_xyz
1 x,y,z
2 -x,1/2+y,1/2-z
3 -x,-y,-z
4 x,1/2-y,1/2+z
_cell_length_a                   7.6801(14)
_cell_length_b                   17.748(3)
_cell_length_c                   8.9484(13)
_cell_angle_alpha                90
_cell_angle_beta                 111.369(4)
_cell_angle_gamma                90
_cell_volume                     1135.87
loop_
_atom_site_label
_atom_site_type_symbol
_atom_site_fract_x
_atom_site_fract_y
_atom_site_fract_z
Mn1 Mn 0.0000 -0.5000 0.0000
O1 O 0.30596(18) -0.50861(8) 0.11361(18)
O2 O 0.4404(2) -0.40007(9) 0.1350(2)
O3 O 0.5035(3) -0.47237(11) 0.3404(2)
N1 N 0.8570(2) -0.20712(8) -0.31370(18)
N2 N 1.0087(2) -0.23786(9) -0.3350(2)
N3 N 0.9806(2) -0.11528(8) -0.40269(18)
N4 N 0.1504(2) -0.39934(8) -0.38171(17)
N5 N -0.0341(2) -0.40908(9) -0.47275(18)
N6 N 0.0291(2) -0.45049(8) -0.22054(18)
N7 N 0.4187(2) -0.45938(9) 0.19787(19)
C1 C 1.0765(3) -0.18072(10) -0.3887(2)
H1 H 1.1847 -0.1848 -0.4158
C2 C 0.8441(3) -0.13474(10) -0.3530(2)
H2 H 0.7501 -0.1015 -0.3465
C3 C -0.1004(3) -0.44005(10) -0.3708(2)
H3 H -1.2279 -0.0460 0.1004
C4 C -0.8151(3) -0.07579(10) 0.2659(2)
H4 H -0.6960 -0.0766 0.3502
C5 C 0.7339(3) -0.25179(12) -0.2564(2)
H5 H 0.6886 -0.2196 -0.1877
H6 H 0.8069 -0.2936 -0.1891
C6 C 0.5668(3) -0.28444(10) -0.3902(2)
H7 H 0.6103 -0.3181 -0.4577
H8 H 0.4929 -0.2432 -0.4588
C7 C 0.4444(3) -0.32882(10) -0.3195(2)
H9 H 0.5197 -0.3694 -0.2497
H10 H 0.4012 -0.2948 -0.2523
C8 C 0.2765(3) -0.36311(11) -0.4490(2)
H11 H -0.7922 -0.1768 -0.0249
H12 H -0.6806 -0.0992 -0.0095
Mn1C Mn 1.0000 0.0000 -0.5000
Mn1C_2 Mn -1.0000 0.0000 0.5000
O1B O -0.30596(18) -0.49139(8) -0.11361(18)
O2B O -0.4404(2) -0.59993(9) -0.1350(2)
O3B O -0.5035(3) -0.52763(11) -0.3404(2)
N1C N -0.1430(2) -0.29288(8) 0.18630(18)
N2C N 0.0087(2) -0.26214(9) 0.1650(2)
N3C N -0.0194(2) -0.38472(8) 0.09731(18)
N3A N 0.0194(2) -0.61528(8) -0.09731(18)
N4C N -0.8496(2) -0.10066(8) 0.11829(17)
N5C N -1.0341(2) -0.09092(9) 0.02725(18)
N6C N -0.9709(2) -0.04951(8) 0.27946(18)
N6B N -0.0291(2) -0.54951(8) 0.22054(18)
N7B N -0.4187(2) -0.54062(9) -0.19787(19)
C1C C 0.0765(3) -0.31928(10) 0.1113(2)
H1C H 0.1847 -0.3152 0.0842
C2C C -0.1559(3) -0.36526(10) 0.1470(2)
H2C H -0.2499 -0.3985 0.1535
C3C C -1.1004(3) -0.05995(10) 0.1292(2)
H3C H -0.2279 -0.4540 -0.3996
C4C C 0.1849(3) -0.42421(10) -0.2341(2)
H4C H 0.3040 -0.4234 -0.1498
C5C C -0.2661(3) -0.24821(12) 0.2436(2)
H5C H -0.3114 -0.2804 0.3123
H6C H -0.1931 -0.2064 0.3109
C6C C -0.4332(3) -0.21556(10) 0.1098(2)
H7C H -0.3897 -0.1819 0.0423
H8C H -0.5071 -0.2568 0.0412
C7C C -0.5556(3) -0.17118(10) 0.1805(2)
H9C H -0.4803 -0.1306 0.2503
H10C H -0.5988 -0.2052 0.2477
C8C C -0.7235(3) -0.13689(11) 0.0510(2)
H11C H 0.2078 -0.3232 -0.5249
H12C H 0.3194 -0.4008 -0.5095
loop_
_geom_bond_atom_site_label_1
_geom_bond_atom_site_label_2
_geom_bond_site_symmetry_1
_geom_bond_site_symmetry_2
Mn1 O1 1_555 1_555
O1 N7 1_555 1_555
O2 N7 1_555 1_555
O3 N7 1_555 1_555
N1 N2 1_555 1_555
N2 C1 1_555 1_555
N3 C1 1_555 1_555
N4 N5 1_555 1_555
N5 C3 1_555 1_555
N6 Mn1 1_555 1_555
C1 H1 1_555 1_555
C2 N1 1_555 1_555
H2 C2 1_555 1_555
C3 N6 1_555 1_555
H3 C3C 1_555 1_555
C4 H4 1_555 1_555
C5 N1 1_555 1_555
H5 C5 1_555 1_555
H6 C5 1_555 1_555
C6 C5 1_555 1_555
H7 C6 1_555 1_555
H8 C6 1_555 1_555
C7 C6 1_555 1_555
H9 C7 1_555 1_555
H10 C7 1_555 1_555
C8 N4 1_555 1_555
H11 C8C 1_555 1_555
H12 C8C 1_555 1_555
Mn1C N3 1_555 1_555
Mn1C_2 N6C 1_555 1_555
O1B Mn1 1_555 1_555
O2B N7B 1_555 1_555
O3B N7B 1_555 1_555
N1C N2C 1_555 1_555
N2C C1C 1_555 1_555
N3C Mn1 1_555 1_555
N3A Mn1 1_555 1_555
N4C C4 1_555 1_555
N5C N4C 1_555 1_555
N6C C4 1_555 1_555
N6B Mn1 1_555 1_555
N7B O1B 1_555 1_555
C1C N3C 1_555 1_555
H1C C1C 1_555 1_555
C2C N1C 1_555 1_555
H2C C2C 1_555 1_555
C3C N5C 1_555 1_555
H3C C3 1_555 1_555
C4C N4 1_555 1_555
H4C C4C 1_555 1_555
C5C N1C 1_555 1_555
H5C C5C 1_555 1_555
H6C C5C 1_555 1_555
C6C C5C 1_555 1_555
H7C C6C 1_555 1_555
H8C C6C 1_555 1_555
C7C C6C 1_555 1_555
H9C C7C 1_555 1_555
H10C C7C 1_555 1_555
C8C N4C 1_555 1_555
H11C C8 1_555 1_555
H12C C8 1_555 1_555
N3 C2 1_555 1_555
N6 C4C 1_555 1_555
C7 C8 1_555 1_555
N3C C2C 1_555 1_555
N6C C3C 1_555 1_555
C7C C8C 1_555 1_555

#END
