
#######################################################################
#
#                 Cambridge Crystallographic Data Centre
#                                CCDC 
#
#######################################################################
#
# If this CIF has been generated from an entry in the Cambridge 
# Structural Database, then it will include bibliographic, chemical, 
# crystal, experimental, refinement or atomic coordinate data resulting 
# from the CCDC's data processing and validation procedures.
#
#######################################################################

data_DEPWOL
_symmetry_cell_setting           monoclinic
_symmetry_space_group_name_H-M   'P 21/n'
_symmetry_Int_Tables_number      14
_space_group_name_Hall           '-P 2yn'
loop_
_symmetry_equiv_pos_site_id
_symmetry_equiv_pos_as_xyz
1 x,y,z
2 1/2-x,1/2+y,1/2-z
3 -x,-y,-z
4 1/2+x,1/2-y,1/2+z
_cell_length_a                   10.8886(12)
_cell_length_b                   16.5174(17)
_cell_length_c                   15.8576(18)
_cell_angle_alpha                90
_cell_angle_beta                 104.495(2)
_cell_angle_gamma                90
_cell_volume                     2761.23
loop_
_atom_site_label
_atom_site_type_symbol
_atom_site_fract_x
_atom_site_fract_y
_atom_site_fract_z
Mn1 Mn 0.49928(4) 0.63245(3) 0.25214(3)
O1 O 0.3024(2) 0.62194(15) 0.25917(17)
H1 H 0.264(4) 0.576(2) 0.250(3)
H2 H 0.258(4) 0.656(2) 0.277(3)
O2 O 0.6951(2) 0.63868(15) 0.24080(17)
H3 H 0.734(4) 0.679(2) 0.228(3)
H4 H 0.739(4) 0.596(2) 0.245(3)
N1 N 0.5504(2) 0.77675(15) 0.48743(16)
N2 N 0.6183(3) 0.82876(17) 0.45004(18)
N3 N 0.5403(2) 0.72586(15) 0.35914(16)
N4 N 0.1694(2) 0.97690(15) 0.46730(16)
N5 N 0.0651(3) 0.92924(17) 0.44212(18)
N6 N 0.0520(2) 1.03706(15) 0.35369(16)
N7 N 0.6828(2) 0.48010(15) 0.47076(16)
N8 N 0.5802(3) 0.43038(17) 0.44493(19)
N9 N 0.5573(2) 0.54091(15) 0.35984(16)
N10 N 1.0660(2) 0.27378(15) 0.48570(16)
N11 N 1.1472(3) 0.31882(17) 0.45201(17)
N12 N 1.0507(2) 0.22399(15) 0.35663(15)
C1 C 0.5367(3) 0.7894(2) 0.5757(2)
H9 H 0.6217 0.7887 0.6167
H10 H 0.4871 0.7441 0.5913
C2 C 0.4714(3) 0.8687(2) 0.5859(2)
H11 H 0.5272 0.9141 0.5787
H12 H 0.4593 0.8717 0.6457
C3 C 0.3431(3) 0.8785(2) 0.5206(2)
H13 H 0.3554 0.8818 0.4610
H14 H 0.2895 0.8307 0.5235
C4 C 0.2769(3) 0.9546(2) 0.54033(19)
H15 H 0.2458 0.9457 0.5932
H16 H 0.3385 0.9998 0.5524
C5 C 0.6087(3) 0.79539(19) 0.3730(2)
H17 H 0.6466 0.8182 0.3306
C6 C 0.5059(3) 0.71700(18) 0.43325(19)
H18 H 0.4559 0.6735 0.4456
C7 C -0.0017(3) 0.96803(19) 0.3737(2)
H19 H -0.0817 0.9491 0.3407
C8 C 0.1604(3) 1.03979(18) 0.4146(2)
H20 H 0.2227 1.0810 0.4196
C9 C 0.7934(3) 0.4570(2) 0.5399(2)
H21 H 0.7663 0.4459 0.5939
H22 H 0.8541 0.5027 0.5517
C10 C 0.8593(3) 0.3824(2) 0.5156(2)
H23 H 0.8069 0.3338 0.5175
H24 H 0.8695 0.3883 0.4556
C11 C 0.9888(3) 0.37249(19) 0.5791(2)
H25 H 0.9799 0.3800 0.6392
H26 H 1.0462 0.4153 0.5677
C12 C 1.0490(3) 0.2901(2) 0.57252(19)
H27 H 1.1326 0.2877 0.6152
H28 H 0.9947 0.2474 0.5879
C13 C 0.5083(3) 0.4699(2) 0.3788(2)
H29 H 0.4282 0.4502 0.3469
C14 C 0.6678(3) 0.54442(19) 0.4202(2)
H30 H 0.7272 0.5874 0.4258
C15 C 1.1334(3) 0.28666(18) 0.3742(2)
H31 H 1.1777 0.3059 0.3337
C16 C 1.01121(14) 0.21898(9) 0.42860(9)
H32 H 0.9509 0.1806 0.4379
Mn1A Mn 0.00072(4) 1.13245(3) 0.24786(3)
Mn1A_2 Mn 1.00072(4) 0.13245(3) 0.24786(3)
N6A N 0.4480(2) 0.53706(15) 0.14631(16)
N12A N 0.4493(2) 0.72399(15) 0.14337(15)
O3 O 0.8040(3) 0.77539(19) 0.2006(2)
H5 H 0.762(4) 0.817(2) 0.200(3)
H6 H 0.877(3) 0.795(3) 0.220(3)
O4 O 0.1767(3) 0.4810(2) 0.2301(3)
H7 H 0.194(5) 0.434(2) 0.219(3)
H8 H 0.106(3) 0.475(3) 0.239(3)
N13 N 0.1495(3) 0.79467(18) 0.28480(18)
O5 O 0.12259(14) 0.72167(9) 0.29225(9)
O6 O 0.05949(14) 0.84075(9) 0.25745(9)
O7 O 0.25974(14) 0.81764(9) 0.30059(9)
N14 N 0.8732(3) 0.46019(17) 0.27610(17)
O11 O 0.76506(14) 0.44847(9) 0.27966(9)
O12 O 0.89957(14) 0.52379(9) 0.24447(9)
O13 O 0.95432(14) 0.41035(9) 0.30485(9)
O8? O 0.23373(14) 0.75791(9) 0.34018(9)
O9? O 0.17723(14) 0.86611(9) 0.26118(9)
O10? O 0.04433(14) 0.76581(9) 0.25977(9)
O14? O 0.77571(14) 0.42876(9) 0.28178(9)
O15? O 0.88761(14) 0.38766(9) 0.29708(9)
O16? O 0.96291(14) 0.49716(9) 0.25058(9)
O17? O 0.87431(14) 0.52916(9) 0.25668(9)
O18? O 0.77711(14) 0.49586(9) 0.27808(9)
loop_
_geom_bond_atom_site_label_1
_geom_bond_atom_site_label_2
_geom_bond_site_symmetry_1
_geom_bond_site_symmetry_2
Mn1 O1 1_555 1_555
O1 H1 1_555 1_555
H2 O1 1_555 1_555
O2 Mn1 1_555 1_555
H3 O2 1_555 1_555
H4 O2 1_555 1_555
O3 H5 1_555 1_555
H6 O3 1_555 1_555
O4 H7 1_555 1_555
H8 O4 1_555 1_555
N1 N2 1_555 1_555
N2 C5 1_555 1_555
N3 Mn1 1_555 1_555
N4 N5 1_555 1_555
N5 C7 1_555 1_555
N6 C7 1_555 1_555
N7 N8 1_555 1_555
N8 C13 1_555 1_555
N9 Mn1 1_555 1_555
N10 N11 1_555 1_555
N11 C15 1_555 1_555
N12 C15 1_555 1_555
N13 O5 1_555 1_555
N14 O11 1_555 1_555
C1 N1 1_555 1_555
H9 C1 1_555 1_555
H10 C1 1_555 1_555
C2 C1 1_555 1_555
H11 C2 1_555 1_555
H12 C2 1_555 1_555
C3 C2 1_555 1_555
H13 C3 1_555 1_555
H14 C3 1_555 1_555
C4 N4 1_555 1_555
H15 C4 1_555 1_555
H16 C4 1_555 1_555
C5 N3 1_555 1_555
H17 C5 1_555 1_555
C6 N1 1_555 1_555
H18 C6 1_555 1_555
C7 H19 1_555 1_555
C8 N4 1_555 1_555
H20 C8 1_555 1_555
C9 N7 1_555 1_555
H21 C9 1_555 1_555
H22 C9 1_555 1_555
C10 C9 1_555 1_555
H23 C10 1_555 1_555
H24 C10 1_555 1_555
C11 C10 1_555 1_555
H25 C11 1_555 1_555
H26 C11 1_555 1_555
C12 N10 1_555 1_555
H27 C12 1_555 1_555
H28 C12 1_555 1_555
C13 N9 1_555 1_555
H29 C13 1_555 1_555
C14 N7 1_555 1_555
H30 C14 1_555 1_555
C15 H31 1_555 1_555
C16 N10 1_555 1_555
H32 C16 1_555 1_555
O6 N13 1_555 1_555
O7 N13 1_555 1_555
O12 N14 1_555 1_555
O13 N14 1_555 1_555
Mn1A N6 1_555 1_555
Mn1A_2 N12 1_555 1_555
N6A Mn1 1_555 1_555
N12A Mn1 1_555 1_555
N3 C6 1_555 1_555
N6 C8 1_555 1_555
N9 C14 1_555 1_555
N12 C16 1_555 1_555
C3 C4 1_555 1_555
C11 C12 1_555 1_555

#END
