
#######################################################################
#
#                 Cambridge Crystallographic Data Centre
#                                CCDC 
#
#######################################################################
#
# If this CIF has been generated from an entry in the Cambridge 
# Structural Database, then it will include bibliographic, chemical, 
# crystal, experimental, refinement or atomic coordinate data resulting 
# from the CCDC's data processing and validation procedures.
#
#######################################################################

data_DEPWUR
_symmetry_cell_setting           monoclinic
_symmetry_space_group_name_H-M   'P 21/c'
_symmetry_Int_Tables_number      14
_space_group_name_Hall           '-P 2ybc'
loop_
_symmetry_equiv_pos_site_id
_symmetry_equiv_pos_as_xyz
1 x,y,z
2 -x,1/2+y,1/2-z
3 -x,-y,-z
4 x,1/2-y,1/2+z
_cell_length_a                   5.5647(8)
_cell_length_b                   11.8879(15)
_cell_length_c                   12.1842(19)
_cell_angle_alpha                90
_cell_angle_beta                 102.623(4)
_cell_angle_gamma                90
_cell_volume                     786.534
loop_
_atom_site_label
_atom_site_type_symbol
_atom_site_fract_x
_atom_site_fract_y
_atom_site_fract_z
Mn1 Mn 0.0000 0.5000 0.5000
O1 O 0.26003(18) 0.36889(8) 0.47220(8)
N1 N -0.1148(2) 0.37029(9) -0.17986(9)
N2 N 0.0822(2) 0.30448(10) -0.18533(9)
N3 N -0.0393(2) 0.40195(9) -0.34532(9)
N4 N 0.3055(2) 0.59361(10) 0.60448(9)
N5 N 0.34882(19) 0.61200(9) 0.70335(9)
N6 N 0.3978(2) 0.63028(13) 0.79892(11)
C1 C 0.1194(2) 0.32594(11) -0.28626(11)
H1 H 0.2464 0.2912 -0.3152
C2 C -0.1830(2) 0.42679(12) -0.27497(11)
H2 H -0.3167 0.4782 -0.2908
C3 C -0.2066(3) 0.37878(12) -0.07584(11)
H3 H -0.2370 0.3024 -0.0495
H4 H -0.3649 0.4201 -0.0913
C4 C -0.0226(3) 0.43940(13) 0.01557(12)
H5 H 0.1355 0.3980 0.0302
H6 H -0.0845 0.4391 0.0858
H7 H 0.398(4) 0.3839(16) 0.4600(16)
H8 H 0.206(4) 0.3130(19) 0.4312(17)
Mn1_2 Mn 0.0000 0.5000 -0.5000
O1B O -0.26003(18) 0.63111(8) 0.52780(8)
N1B N 0.1148(2) 0.62971(9) 0.17986(9)
N2B N -0.0822(2) 0.69552(10) 0.18533(9)
N3B N 0.0393(2) 0.59805(9) 0.34532(9)
N3_2 N -0.0393(2) 0.40195(9) 0.65468(9)
N4B N -0.3055(2) 0.40639(10) 0.39552(9)
N5B N -0.34882(19) 0.38800(9) 0.29665(9)
N6B N -0.3978(2) 0.36972(13) 0.20108(11)
C1B C -0.1194(2) 0.67406(11) 0.28626(11)
H1B H -0.2464 0.7088 0.3152
C2B C 0.1830(2) 0.57321(12) 0.27497(11)
H2B H 0.3167 0.5218 0.2908
C3B C 0.2066(3) 0.62122(12) 0.07584(11)
H3B H 0.2370 0.6976 0.0495
H4B H 0.3649 0.5799 0.0913
C4B C 0.0226(3) 0.56060(13) -0.01557(12)
H5B H -0.1355 0.6020 -0.0302
H6B H 0.0845 0.5609 -0.0858
H7B H -0.398(4) 0.6161(16) 0.5400(16)
H8B H -0.206(4) 0.6870(19) 0.5688(17)
loop_
_geom_bond_atom_site_label_1
_geom_bond_atom_site_label_2
_geom_bond_site_symmetry_1
_geom_bond_site_symmetry_2
Mn1 O1 1_555 1_555
O1 H7 1_555 1_555
N1 N2 1_555 1_555
N2 C1 1_555 1_555
N3 C1 1_555 1_555
N4 Mn1 1_555 1_555
N5 N4 1_555 1_555
N6 N5 1_555 1_555
C1 H1 1_555 1_555
C2 N1 1_555 1_555
H2 C2 1_555 1_555
C3 N1 1_555 1_555
H3 C3 1_555 1_555
H4 C3 1_555 1_555
C4 C3 1_555 1_555
H5 C4 1_555 1_555
H6 C4 1_555 1_555
H8 O1 1_555 1_555
Mn1_2 N3 1_555 1_555
O1B Mn1 1_555 1_555
N1B N2B 1_555 1_555
N2B C1B 1_555 1_555
N3B Mn1 1_555 1_555
N3_2 Mn1 1_555 1_555
N4B Mn1 1_555 1_555
N5B N4B 1_555 1_555
N6B N5B 1_555 1_555
C1B N3B 1_555 1_555
H1B C1B 1_555 1_555
C2B N1B 1_555 1_555
H2B C2B 1_555 1_555
C3B N1B 1_555 1_555
H3B C3B 1_555 1_555
H4B C3B 1_555 1_555
C4B C4 1_555 1_555
H5B C4B 1_555 1_555
H6B C4B 1_555 1_555
H7B O1B 1_555 1_555
H8B O1B 1_555 1_555
N3 C2 1_555 1_555
N3B C2B 1_555 1_555
C3B C4B 1_555 1_555

#END
