
#######################################################################
#
#                 Cambridge Crystallographic Data Centre
#                                CCDC 
#
#######################################################################
#
# If this CIF has been generated from an entry in the Cambridge 
# Structural Database, then it will include bibliographic, chemical, 
# crystal, experimental, refinement or atomic coordinate data resulting 
# from the CCDC's data processing and validation procedures.
#
#######################################################################

data_DEPXEC
_symmetry_cell_setting           monoclinic
_symmetry_space_group_name_H-M   'C 2/c'
_symmetry_Int_Tables_number      15
_space_group_name_Hall           '-C 2yn'
loop_
_symmetry_equiv_pos_site_id
_symmetry_equiv_pos_as_xyz
1 x,y,z
2 1/2+x,1/2+y,z
3 -x,y,1/2-z
4 1/2-x,1/2+y,1/2-z
5 -x,-y,-z
6 1/2-x,1/2-y,-z
7 x,-y,1/2+z
8 1/2+x,1/2-y,1/2+z
_cell_length_a                   24.103(2)
_cell_length_b                   13.480(5)
_cell_length_c                   29.176(4)
_cell_angle_alpha                90
_cell_angle_beta                 109.427(5)
_cell_angle_gamma                90
_cell_volume                     8939.82
loop_
_atom_site_label
_atom_site_type_symbol
_atom_site_fract_x
_atom_site_fract_y
_atom_site_fract_z
Cd1 Cd -0.503130(13) 0.14757(2) -0.486170(11)
Cd2 Cd -0.316320(13) 0.43656(2) -0.221610(11)
O1 O -0.44752(14) -0.0105(2) -0.46158(11)
O2 O -0.36933(15) -0.0816(2) -0.40636(13)
O3 O -0.48328(15) 0.3235(2) -0.45943(12)
O4 O -0.42330(14) 0.4251(2) -0.40340(12)
O5 O -0.30498(14) 0.3890(2) -0.30140(12)
O6 O -0.38810(14) 0.3507(2) -0.28847(12)
O7 O -0.24814(15) 0.0242(2) -0.34963(12)
O8 O -0.29022(16) -0.0232(2) -0.29594(12)
O13 O -0.58213(16) 0.2341(3) -0.53707(13)
N1 N -0.41826(16) 0.1666(2) -0.41655(13)
N2 N -0.32898(16) 0.1819(3) -0.32971(13)
N3 N -0.56099(18) 0.1156(3) -0.43765(15)
N4 N -0.45062(17) 0.1658(3) -0.53884(14)
N5 N -0.28395(17) 0.2834(3) -0.18405(14)
N6 N -0.38367(18) 0.4536(3) -0.18004(15)
N7 N -0.34516(17) 0.5887(3) -0.25985(14)
C1 C -0.4019(2) -0.0105(3) -0.42426(15)
C2 C -0.38525(19) 0.0875(3) -0.39776(15)
C3 C -0.33792(19) 0.0976(3) -0.35494(15)
C4 C -0.2895(2) 0.0231(3) -0.33263(16)
C5 C -0.35244(19) 0.3429(3) -0.31126(15)
C6 C -0.36393(18) 0.2592(3) -0.34807(15)
C7 C -0.40720(18) 0.2539(3) -0.39395(15)
C8 C -0.44170(19) 0.3423(3) -0.42111(15)
C9 C -0.5403(3) 0.1151(5) -0.3896(2)
H1 H -0.5003 0.1256 -0.3743
C10 C -0.5751(3) 0.1001(6) -0.3612(2)
H2 H -0.5586 0.1007 -0.3275
C11 C -0.6341(3) 0.0841(6) -0.3831(3)
H3 H -0.6584 0.0722 -0.3647
C12 C -0.6564(3) 0.0862(6) -0.4330(3)
H4 H -0.6966 0.0780 -0.4490
C13 C -0.6191(2) 0.1006(5) -0.4589(2)
H5 H -0.6346 0.0999 -0.4927
C14 C -0.4778(2) 0.1571(4) -0.58686(19)
H6 H -0.5184 0.1481 -0.5983
C15 C -0.4491(3) 0.1609(5) -0.6197(2)
H7 H -0.4697 0.1547 -0.6527
C16 C -0.3888(3) 0.1740(6) -0.6033(3)
H8 H -0.3681 0.1760 -0.6251
C17 C -0.3602(3) 0.1839(5) -0.5545(3)
H9 H -0.3197 0.1934 -0.5425
C18 C -0.3924(2) 0.1797(4) -0.5233(2)
H10 H -0.3728 0.1869 -0.4902
C19 C -0.2481(2) 0.2838(4) -0.13779(18)
H11 H -0.2418 0.3436 -0.1209
C20 C -0.2199(2) 0.1998(4) -0.1137(2)
H12 H -0.1960 0.2029 -0.0813
C21 C -0.2280(2) 0.1107(4) -0.1391(2)
H13 H -0.2091 0.0533 -0.1242
C22 C -0.2648(3) 0.1091(4) -0.1870(2)
H14 H -0.2709 0.0507 -0.2050
C23 C -0.2922(2) 0.1958(3) -0.20753(18)
H15 H -0.3179 0.1936 -0.2394
C24 C -0.4193(3) 0.3792(4) -0.1774(2)
H16 H -0.4178 0.3199 -0.1931
C25 C -0.4587(3) 0.3879(6) -0.1515(3)
H17 H -0.4825 0.3348 -0.1498
C26 C -0.4617(3) 0.4756(6) -0.1289(3)
H18 H -0.4882 0.4835 -0.1122
C27 C -0.4247(3) 0.5521(5) -0.1313(2)
H19 H -0.4254 0.6121 -0.1157
C28 C -0.3865(2) 0.5384(4) -0.1571(2)
H20 H -0.3617 0.5903 -0.1586
C29 C -0.3869(2) 0.5905(4) -0.30343(18)
H21 H -0.4068 0.5320 -0.3156
C30 C -0.4021(3) 0.6757(4) -0.33135(19)
H22 H -0.4321 0.6743 -0.3613
C31 C -0.3722(3) 0.7627(4) -0.3142(2)
H23 H -0.3808 0.8205 -0.3326
C32 C -0.3289(3) 0.7617(4) -0.2688(2)
H24 H -0.3082 0.8193 -0.2560
C33 C -0.3169(2) 0.6739(3) -0.24279(19)
H25 H -0.2881 0.6738 -0.2122
H33 H -0.572(3) 0.283(6) -0.538(3)
H34 H -0.600(3) 0.203(6) -0.554(3)
Cd1D Cd -0.496870(13) -0.14757(2) -0.513830(11)
Cd2C Cd -0.183680(13) -0.06344(2) -0.278390(11)
O1D O -0.55248(14) 0.0105(2) -0.53842(11)
O7C O -0.25186(15) 0.5242(2) -0.15037(12)
O8C O -0.20978(16) 0.4768(2) -0.20406(12)
O9 O -0.2751(3) 0.1427(4) -0.6444(3)
H38 H -0.252(3) 0.137(5) -0.654(3)
H40 H -0.266(3) 0.187(6) -0.633(3)
O10 O -0.2359(2) 0.3147(3) -0.58174(17)
H36 H -0.248(3) 0.346(6) -0.564(3)
H39 H -0.236(3) 0.358(6) -0.607(3)
O11 O -0.47103(17) 0.6015(3) -0.44631(13)
H35 H -0.492(3) 0.603(5) -0.480(2)
H37 H -0.464(4) 0.550(6) -0.441(3)
O12 O -0.4066(4) 0.0138(6) -0.2873(5)
H41 H -0.425(4) -0.018(7) -0.271(3)
H42 H -0.359(5) 0.000(8) -0.275(4)
N8 N -0.2808(2) 0.4376(4) -0.52205(18)
C34 C -0.3130(3) 0.4299(5) -0.4932(2)
H26 H -0.3111 0.3711 -0.4761
C35 C -0.3495(3) 0.5051(6) -0.4873(3)
H27 H -0.3716 0.4963 -0.4668
C36 C -0.3524(3) 0.5923(5) -0.5120(2)
H28 H -0.3766 0.6438 -0.5089
C37 C -0.3183(3) 0.6017(5) -0.5417(2)
H29 H -0.3188 0.6602 -0.5588
C38 C -0.2836(3) 0.5233(5) -0.5456(2)
H30 H -0.2610 0.5304 -0.5657
O14 O -0.4557(2) 0.1907(3) -0.27130(18)
H31 H -0.4383 0.2419 -0.2769
H32 H -0.4361 0.1546 -0.2645
loop_
_geom_bond_atom_site_label_1
_geom_bond_atom_site_label_2
_geom_bond_site_symmetry_1
_geom_bond_site_symmetry_2
Cd1 O1 1_555 1_555
Cd2 O5 1_555 1_555
O1 C1 1_555 1_555
O2 C1 1_555 1_555
O3 Cd1 1_555 1_555
O4 C8 1_555 1_555
O5 C5 1_555 1_555
O6 Cd2 1_555 1_555
O7 C4 1_555 1_555
O8 C4 1_555 1_555
O9 H38 1_555 1_555
O10 H36 1_555 1_555
O11 H35 1_555 1_555
O12 H41 1_555 1_555
O13 Cd1 1_555 1_555
N1 Cd1 1_555 1_555
N2 C3 1_555 1_555
N3 Cd1 1_555 1_555
N4 Cd1 1_555 1_555
N5 Cd2 1_555 1_555
N6 Cd2 1_555 1_555
N7 Cd2 1_555 1_555
N8 C34 1_555 1_555
C1 C2 1_555 1_555
C2 N1 1_555 1_555
C3 C2 1_555 1_555
C4 C3 1_555 1_555
C5 O6 1_555 1_555
C6 N2 1_555 1_555
C7 N1 1_555 1_555
C8 O3 1_555 1_555
C9 N3 1_555 1_555
H1 C9 1_555 1_555
C10 C9 1_555 1_555
H2 C10 1_555 1_555
C11 C10 1_555 1_555
H3 C11 1_555 1_555
C12 C11 1_555 1_555
H4 C12 1_555 1_555
C13 N3 1_555 1_555
H5 C13 1_555 1_555
C14 N4 1_555 1_555
H6 C14 1_555 1_555
C15 C14 1_555 1_555
H7 C15 1_555 1_555
C16 C15 1_555 1_555
H8 C16 1_555 1_555
C17 C16 1_555 1_555
H9 C17 1_555 1_555
C18 N4 1_555 1_555
H10 C18 1_555 1_555
C19 N5 1_555 1_555
H11 C19 1_555 1_555
C20 C19 1_555 1_555
H12 C20 1_555 1_555
C21 C20 1_555 1_555
H13 C21 1_555 1_555
C22 C21 1_555 1_555
H14 C22 1_555 1_555
C23 N5 1_555 1_555
H15 C23 1_555 1_555
C24 N6 1_555 1_555
H16 C24 1_555 1_555
C25 C24 1_555 1_555
H17 C25 1_555 1_555
C26 C25 1_555 1_555
H18 C26 1_555 1_555
C27 C26 1_555 1_555
H19 C27 1_555 1_555
C28 N6 1_555 1_555
H20 C28 1_555 1_555
C29 N7 1_555 1_555
H21 C29 1_555 1_555
C30 C29 1_555 1_555
H22 C30 1_555 1_555
C31 C30 1_555 1_555
H23 C31 1_555 1_555
C32 C31 1_555 1_555
H24 C32 1_555 1_555
C33 N7 1_555 1_555
H25 C33 1_555 1_555
C34 H26 1_555 1_555
C35 C34 1_555 1_555
H27 C35 1_555 1_555
C36 C35 1_555 1_555
H28 C36 1_555 1_555
C37 C36 1_555 1_555
H29 C37 1_555 1_555
C38 N8 1_555 1_555
H30 C38 1_555 1_555
O14 H31 1_555 1_555
H32 O14 1_555 1_555
H33 O13 1_555 1_555
H34 O13 1_555 1_555
H37 O11 1_555 1_555
H39 O10 1_555 1_555
H40 O9 1_555 1_555
H42 O12 1_555 1_555
Cd1D O1 1_555 1_555
Cd2C O7 1_555 1_555
O1D Cd1 1_555 1_555
O7C Cd2 1_555 1_555
O8C Cd2 1_555 1_555
O8 Cd2C 1_555 1_555
C5 C6 1_555 1_555
C6 C7 1_555 1_555
C7 C8 1_555 1_555
C12 C13 1_555 1_555
C17 C18 1_555 1_555
C22 C23 1_555 1_555
C27 C28 1_555 1_555
C32 C33 1_555 1_555
C37 C38 1_555 1_555
Cd1D O1D 1_555 1_555

#END
