
#######################################################################
#
#                 Cambridge Crystallographic Data Centre
#                                CCDC 
#
#######################################################################
#
# If this CIF has been generated from an entry in the Cambridge 
# Structural Database, then it will include bibliographic, chemical, 
# crystal, experimental, refinement or atomic coordinate data resulting 
# from the CCDC's data processing and validation procedures.
#
#######################################################################

data_DEPXIG
_symmetry_cell_setting           monoclinic
_symmetry_space_group_name_H-M   'P 21/c'
_symmetry_Int_Tables_number      14
_space_group_name_Hall           '-P 2ybc'
loop_
_symmetry_equiv_pos_site_id
_symmetry_equiv_pos_as_xyz
1 x,y,z
2 -x,1/2+y,1/2-z
3 -x,-y,-z
4 x,1/2-y,1/2+z
_cell_length_a                   17.711(4)
_cell_length_b                   11.849(2)
_cell_length_c                   18.903(4)
_cell_angle_alpha                90
_cell_angle_beta                 114.86(3)
_cell_angle_gamma                90
_cell_volume                     3599.35
loop_
_atom_site_label
_atom_site_type_symbol
_atom_site_fract_x
_atom_site_fract_y
_atom_site_fract_z
Mn1 Mn 0.28815(8) 0.41973(13) 0.02763(8)
Mn2 Mn 0.16659(9) 0.18034(14) -0.12435(9)
Mn3 Mn 0.27818(8) 0.55001(14) 0.19987(8)
N1 N 0.0757(7) 0.4118(11) -0.3176(7)
N2 N 0.2716(7) -0.0426(12) 0.0705(7)
N3 N 0.4308(8) 0.6018(13) 0.4391(7)
N4 N 0.2478(6) 0.7121(8) 0.2496(5)
O1 O 0.1869(4) 0.2833(6) -0.0073(4)
O2 O 0.0645(4) 0.2299(6) -0.0965(4)
O3 O 0.1973(4) 0.4589(6) 0.2423(3)
O4 O 0.0923(4) 0.4056(6) 0.2702(3)
O5 O -0.1847(4) 0.4702(6) 0.0203(4)
O6 O -0.1835(3) 0.4031(6) -0.0912(4)
O7 O 0.3036(3) 0.3962(5) 0.1519(3)
O8 O 0.3779(4) 0.2848(6) 0.1114(4)
O9 O 0.6295(4) 0.1294(6) 0.3270(4)
O10 O 0.6160(4) 0.0453(6) 0.4280(4)
O11 O 0.3318(4) 0.1135(6) 0.4424(4)
O12 O 0.2931(4) 0.2923(6) 0.4059(4)
O13 O 0.1488(5) 0.3280(8) -0.2014(5)
O14 O 0.1993(4) 0.0297(7) -0.0494(4)
O15 O 0.3811(5) 0.5312(8) 0.3191(4)
C1 C 0.1080(6) 0.2749(9) -0.0338(6)
C2 C 0.0661(5) 0.3214(8) 0.0163(5)
C3 C 0.1103(5) 0.3522(8) 0.0936(5)
H1 H 0.1679 0.3444 0.1163
C4 C 0.0716(5) 0.3943(9) 0.1384(5)
C5 C 0.1243(6) 0.4228(9) 0.2240(6)
C6 C -0.0134(5) 0.4130(8) 0.1035(5)
H2 H -0.0399 0.4421 0.1328
C7 C -0.0599(5) 0.3885(8) 0.0246(5)
C8 C -0.1513(6) 0.4238(9) -0.0196(6)
C9 C -0.0196(5) 0.3407(8) -0.0180(5)
H3 H -0.0505 0.3215 -0.0700
C10 C 0.3582(5) 0.3175(9) 0.1643(5)
C11 C 0.3945(5) 0.2632(9) 0.2438(5)
C12 C 0.4717(5) 0.2099(8) 0.2692(5)
H4 H 0.5010 0.2108 0.2384
C13 C 0.5039(5) 0.1559(8) 0.3401(5)
C14 C 0.5901(6) 0.1052(9) 0.3679(6)
C15 C 0.4586(5) 0.1469(8) 0.3840(5)
H5 H 0.4788 0.1045 0.4296
C16 C 0.3827(5) 0.2017(8) 0.3595(5)
C17 C 0.3311(6) 0.2024(10) 0.4066(5)
C18 C 0.3531(6) 0.2608(9) 0.2921(5)
H6 H 0.3037 0.3009 0.2777
C19 C 0.0828(10) 0.3595(13) -0.2522(9)
H7 H 0.0346 0.3467 -0.2451
C20 C -0.0077(10) 0.4419(15) -0.3738(9)
H8 H -0.0195 0.4046 -0.4225
H9 H -0.0110 0.5221 -0.3816
H10 H -0.0474 0.4187 -0.3545
C21 C 0.1461(9) 0.4356(14) -0.3328(8)
H11 H 0.1919 0.3887 -0.3005
H12 H 0.1613 0.5136 -0.3215
H13 H 0.1328 0.4208 -0.3867
C22 C 0.2502(8) 0.0391(11) 0.0164(8)
H14 H 0.2770 0.1083 0.0313
C23 C 0.2307(8) -0.1494(12) 0.0450(10)
H15 H 0.1739 -0.1435 0.0380
H16 H 0.2587 -0.2060 0.0834
H17 H 0.2320 -0.1700 -0.0036
C24 C 0.3461(11) -0.0339(15) 0.1440(10)
H18 H 0.3356 0.0172 0.1783
H19 H 0.3916 -0.0062 0.1340
H20 H 0.3599 -0.1070 0.1680
C25 C 0.3722(9) 0.5477(14) 0.3791(8)
H21 H 0.3243 0.5224 0.3829
C26 C 0.5012(8) 0.6456(14) 0.4339(8)
H22 H 0.5107 0.6063 0.3940
H23 H 0.5485 0.6364 0.4830
H24 H 0.4928 0.7244 0.4211
C27 C 0.4116(11) 0.6263(18) 0.5029(10)
H25 H 0.3541 0.6097 0.4890
H26 H 0.4219 0.7048 0.5161
H27 H 0.4459 0.5811 0.5469
C28 C 0.1733(8) 0.7290(12) 0.2495(8)
H28 H 0.1309 0.6786 0.2221
C29 C 0.1560(11) 0.8157(13) 0.2872(10)
H29 H 0.1027 0.8270 0.2839
C30 C 0.2202(12) 0.8854(13) 0.3301(9)
H30 H 0.2108 0.9438 0.3583
C31 C 0.2959(10) 0.8722(14) 0.3328(10)
H31 H 0.3395 0.9203 0.3619
C32 C 0.3068(8) 0.7857(12) 0.2914(8)
H32 H 0.3593 0.7768 0.2920
Mn1A Mn 0.71185(8) -0.08027(13) 0.47237(8)
Mn1B Mn -0.28815(8) 0.58027(13) -0.02763(8)
Mn1C Mn 0.28815(8) 0.08027(13) 0.52763(8)
Mn2C Mn 0.16659(9) 0.31966(14) 0.37565(9)
Mn3A Mn 0.72182(8) 0.05001(14) 0.30013(8)
Mn3B Mn -0.27818(8) 0.44999(14) -0.19987(8)
O4C O 0.0923(4) 0.0944(6) -0.2298(3)
O5B O 0.1847(4) 0.5298(6) -0.0203(4)
O6B O 0.1835(3) 0.5969(6) 0.0912(4)
O9A O 0.3705(4) 0.6294(6) 0.1730(4)
O10A O 0.3840(4) 0.5453(6) 0.0720(4)
O11C O 0.3318(4) 0.3865(6) -0.0576(4)
O12C O 0.2931(4) 0.2077(6) -0.0941(4)
loop_
_geom_bond_atom_site_label_1
_geom_bond_atom_site_label_2
_geom_bond_site_symmetry_1
_geom_bond_site_symmetry_2
Mn1 O1 1_555 1_555
Mn2 O1 1_555 1_555
Mn3 N4 1_555 1_555
N1 C19 1_555 1_555
N2 C22 1_555 1_555
N3 C25 1_555 1_555
N4 C28 1_555 1_555
O1 C1 1_555 1_555
O2 Mn2 1_555 1_555
O3 Mn3 1_555 1_555
O4 C5 1_555 1_555
O5 C8 1_555 1_555
O6 C8 1_555 1_555
O7 Mn1 1_555 1_555
O8 Mn1 1_555 1_555
O9 C14 1_555 1_555
O10 C14 1_555 1_555
O11 C17 1_555 1_555
O12 C17 1_555 1_555
O13 Mn2 1_555 1_555
O14 Mn2 1_555 1_555
O15 Mn3 1_555 1_555
C1 O2 1_555 1_555
C2 C1 1_555 1_555
C3 C2 1_555 1_555
H1 C3 1_555 1_555
C4 C3 1_555 1_555
C5 O3 1_555 1_555
C6 C4 1_555 1_555
H2 C6 1_555 1_555
C7 C6 1_555 1_555
C8 C7 1_555 1_555
C9 C2 1_555 1_555
H3 C9 1_555 1_555
C10 O7 1_555 1_555
C11 C10 1_555 1_555
C12 C11 1_555 1_555
H4 C12 1_555 1_555
C13 C12 1_555 1_555
C14 C13 1_555 1_555
C15 C13 1_555 1_555
H5 C15 1_555 1_555
C16 C15 1_555 1_555
C17 C16 1_555 1_555
C18 C11 1_555 1_555
H6 C18 1_555 1_555
C19 O13 1_555 1_555
H7 C19 1_555 1_555
C20 N1 1_555 1_555
H8 C20 1_555 1_555
H9 C20 1_555 1_555
H10 C20 1_555 1_555
C21 N1 1_555 1_555
H11 C21 1_555 1_555
H12 C21 1_555 1_555
H13 C21 1_555 1_555
C22 O14 1_555 1_555
H14 C22 1_555 1_555
C23 N2 1_555 1_555
H15 C23 1_555 1_555
H16 C23 1_555 1_555
H17 C23 1_555 1_555
C24 N2 1_555 1_555
H18 C24 1_555 1_555
H19 C24 1_555 1_555
H20 C24 1_555 1_555
C25 O15 1_555 1_555
H21 C25 1_555 1_555
C26 N3 1_555 1_555
H22 C26 1_555 1_555
H23 C26 1_555 1_555
H24 C26 1_555 1_555
C27 N3 1_555 1_555
H25 C27 1_555 1_555
H26 C27 1_555 1_555
H27 C27 1_555 1_555
C28 H28 1_555 1_555
C29 C28 1_555 1_555
H29 C29 1_555 1_555
C30 C29 1_555 1_555
H30 C30 1_555 1_555
C31 C30 1_555 1_555
H31 C31 1_555 1_555
C32 N4 1_555 1_555
H32 C32 1_555 1_555
Mn1A O10 1_555 1_555
Mn1B O5 1_555 1_555
Mn1C O11 1_555 1_555
Mn2C O4 1_555 1_555
Mn3A O9 1_555 1_555
Mn3B O6 1_555 1_555
O4C Mn2 1_555 1_555
O5B Mn1 1_555 1_555
O6B Mn3 1_555 1_555
O9A Mn3 1_555 1_555
O10A Mn1 1_555 1_555
O11C Mn1 1_555 1_555
O12C Mn2 1_555 1_555
Mn3 O7 1_555 1_555
O8 C10 1_555 1_555
O12 Mn2C 1_555 1_555
C4 C5 1_555 1_555
C7 C9 1_555 1_555
C16 C18 1_555 1_555
C31 C32 1_555 1_555

#END
