
#######################################################################
#
#                 Cambridge Crystallographic Data Centre
#                                CCDC 
#
#######################################################################
#
# If this CIF has been generated from an entry in the Cambridge 
# Structural Database, then it will include bibliographic, chemical, 
# crystal, experimental, refinement or atomic coordinate data resulting 
# from the CCDC's data processing and validation procedures.
#
#######################################################################

data_DEPXOM
_symmetry_cell_setting           monoclinic
_symmetry_space_group_name_H-M   'P 21/c'
_symmetry_Int_Tables_number      14
_space_group_name_Hall           '-P 2ybc'
loop_
_symmetry_equiv_pos_site_id
_symmetry_equiv_pos_as_xyz
1 x,y,z
2 -x,1/2+y,1/2-z
3 -x,-y,-z
4 x,1/2-y,1/2+z
_cell_length_a                   17.876(4)
_cell_length_b                   11.797(2)
_cell_length_c                   18.848(4)
_cell_angle_alpha                90
_cell_angle_beta                 116.35(3)
_cell_angle_gamma                90
_cell_volume                     3561.75
loop_
_atom_site_label
_atom_site_type_symbol
_atom_site_fract_x
_atom_site_fract_y
_atom_site_fract_z
Mn1 Mn 0.21455(4) 0.57920(5) 0.47600(3)
Mn2 Mn 0.33332(4) 0.82489(6) 0.62328(4)
Mn3 Mn 0.21250(4) 0.44769(5) 0.30071(4)
N1 N 0.4272(3) 0.5926(4) 0.8219(2)
N2 N 0.2230(2) 1.0461(3) 0.4214(2)
N3 N 0.0696(3) 0.3942(4) 0.0634(2)
N4 N 0.3005(3) 0.1876(4) 0.2005(3)
O1 O 0.31485(16) 0.7169(2) 0.50986(16)
O2 O 0.43847(17) 0.7743(3) 0.59873(17)
O3 O 0.29609(17) 0.5303(3) 0.25807(16)
O4 O 0.39949(17) 0.5818(3) 0.22921(16)
O5 O 0.68084(17) 0.5312(3) 0.48057(17)
O6 O 0.68345(16) 0.5995(2) 0.59281(16)
O7 O 0.19496(16) 0.6021(2) 0.35148(15)
O8 O 0.12465(17) 0.7189(3) 0.39036(16)
O9 O -0.12755(17) 0.8715(3) 0.16409(17)
O10 O -0.11351(17) 0.9589(3) 0.06525(16)
O11 O 0.17470(17) 0.8835(2) 0.06194(16)
O12 O 0.20818(17) 0.7022(2) 0.09703(17)
O13 O 0.3537(2) 0.6768(3) 0.7031(2)
O14 O 0.29970(18) 0.9680(3) 0.54152(17)
O15 O 0.11049(19) 0.4738(3) 0.18313(17)
O16 O 0.2278(2) 0.2884(3) 0.24972(19)
C1 C 0.3931(3) 0.7257(4) 0.5340(2)
C2 C 0.4332(2) 0.6779(3) 0.4854(2)
C3 C 0.3851(2) 0.6462(3) 0.4071(2)
H1 H 0.3276 0.6567 0.3841
C4 C 0.4220(2) 0.5991(3) 0.3626(2)
C5 C 0.3682(2) 0.5669(3) 0.2769(2)
C6 C 0.5079(2) 0.5803(3) 0.3981(2)
H2 H 0.5330 0.5481 0.3690
C7 C 0.5565(2) 0.6096(3) 0.4772(2)
C8 C 0.6484(2) 0.5783(3) 0.5205(2)
C9 C 0.5189(2) 0.6600(3) 0.5199(2)
H3 H 0.5514 0.6821 0.5720
C10 C 0.1429(2) 0.6837(4) 0.3379(2)
C11 C 0.1067(2) 0.7378(3) 0.2579(2)
C12 C 0.0305(2) 0.7924(3) 0.2291(2)
H4 H 0.0004 0.7919 0.2586
C13 C -0.0016(2) 0.8481(3) 0.1566(2)
C14 C -0.0877(2) 0.8977(4) 0.1258(2)
C15 C 0.0458(2) 0.8542(3) 0.1150(2)
H5 H 0.0272 0.8974 0.0691
C16 C 0.1207(2) 0.7963(3) 0.1418(2)
C17 C 0.1723(2) 0.7940(4) 0.0964(2)
C18 C 0.1504(2) 0.7359(4) 0.2123(2)
H6 H 0.1994 0.6941 0.2291
C19 C 0.4191(3) 0.6468(5) 0.7568(3)
H7 H 0.4677 0.6629 0.7522
C20 C 0.5097(4) 0.5621(6) 0.8823(4)
H8 H 0.5118 0.4820 0.8919
H9 H 0.5210 0.6022 0.9304
H10 H 0.5507 0.5820 0.8646
C21 C 0.3550(4) 0.5669(5) 0.8342(4)
H11 H 0.3596 0.6045 0.8811
H12 H 0.3517 0.4865 0.8402
H13 H 0.3056 0.5925 0.7894
C22 C 0.2427(3) 0.9630(4) 0.4727(3)
H14 H 0.2122 0.8961 0.4567
C23 C 0.2665(4) 1.1534(4) 0.4422(3)
H15 H 0.2950 1.1604 0.4988
H16 H 0.2271 1.2141 0.4207
H17 H 0.3064 1.1568 0.4210
C24 C 0.1532(4) 1.0373(5) 0.3420(3)
H18 H 0.1739 1.0435 0.3031
H19 H 0.1141 1.0972 0.3345
H20 H 0.1260 0.9654 0.3365
C25 C 0.1191(3) 0.4583(4) 0.1227(3)
H21 H 0.1633 0.4942 0.1186
C26 C 0.0012(4) 0.3330(6) 0.0665(3)
H22 H -0.0049 0.3562 0.1125
H23 H 0.0124 0.2531 0.0693
H24 H -0.0494 0.3491 0.0198
C27 C 0.0844(4) 0.3760(7) -0.0057(3)
H25 H 0.1328 0.4179 0.0002
H26 H 0.0367 0.4012 -0.0523
H27 H 0.0933 0.2967 -0.0105
C28 C 0.2928(4) 0.2624(4) 0.2484(3)
H28 H 0.3411 0.2983 0.2843
C29 C 0.2265(5) 0.1313(7) 0.1407(4)
H29 H 0.1794 0.1467 0.1509
H30 H 0.2360 0.0510 0.1427
H31 H 0.2155 0.1592 0.0891
C30 C 0.3813(4) 0.1634(6) 0.2029(5)
H32 H 0.3844 0.1978 0.1581
H33 H 0.3883 0.0829 0.2014
H34 H 0.4247 0.1936 0.2508
Mn1B Mn 0.78545(4) 0.42080(5) 0.52400(3)
Mn1A Mn -0.21455(4) 1.07920(5) 0.02400(3)
Mn1C Mn 0.21455(4) 0.92080(5) -0.02400(3)
Mn2C Mn 0.33332(4) 0.67511(6) 0.12328(4)
Mn3B Mn 0.78750(4) 0.55231(5) 0.69929(4)
Mn3A Mn -0.21250(4) 0.94769(5) 0.19929(4)
O4C O 0.39949(17) 0.9182(3) 0.72921(16)
O5B O 0.31916(17) 0.4688(3) 0.51943(17)
O6B O 0.31655(16) 0.4005(2) 0.40719(16)
O9A O 0.12755(17) 0.3715(3) 0.33591(17)
O10A O 0.11351(17) 0.4589(3) 0.43475(16)
O11C O 0.17470(17) 0.6165(2) 0.56194(16)
O12C O 0.20818(17) 0.7978(2) 0.59703(17)
loop_
_geom_bond_atom_site_label_1
_geom_bond_atom_site_label_2
_geom_bond_site_symmetry_1
_geom_bond_site_symmetry_2
Mn1 O1 1_555 1_555
Mn2 O1 1_555 1_555
Mn3 O3 1_555 1_555
N1 C19 1_555 1_555
N2 C22 1_555 1_555
N3 C25 1_555 1_555
N4 C28 1_555 1_555
O1 C1 1_555 1_555
O2 Mn2 1_555 1_555
O3 C5 1_555 1_555
O4 C5 1_555 1_555
O5 C8 1_555 1_555
O6 C8 1_555 1_555
O7 Mn1 1_555 1_555
O8 Mn1 1_555 1_555
O9 C14 1_555 1_555
O10 C14 1_555 1_555
O11 C17 1_555 1_555
O12 C17 1_555 1_555
O13 Mn2 1_555 1_555
O14 Mn2 1_555 1_555
O15 Mn3 1_555 1_555
O16 Mn3 1_555 1_555
C1 O2 1_555 1_555
C2 C1 1_555 1_555
C3 C2 1_555 1_555
H1 C3 1_555 1_555
C4 C3 1_555 1_555
C5 C4 1_555 1_555
C6 C4 1_555 1_555
H2 C6 1_555 1_555
C7 C6 1_555 1_555
C8 C7 1_555 1_555
C9 C2 1_555 1_555
H3 C9 1_555 1_555
C10 O7 1_555 1_555
C11 C10 1_555 1_555
C12 C11 1_555 1_555
H4 C12 1_555 1_555
C13 C12 1_555 1_555
C14 C13 1_555 1_555
C15 C13 1_555 1_555
H5 C15 1_555 1_555
C16 C15 1_555 1_555
C17 C16 1_555 1_555
C18 C11 1_555 1_555
H6 C18 1_555 1_555
C19 O13 1_555 1_555
H7 C19 1_555 1_555
C20 N1 1_555 1_555
H8 C20 1_555 1_555
H9 C20 1_555 1_555
H10 C20 1_555 1_555
C21 N1 1_555 1_555
H11 C21 1_555 1_555
H12 C21 1_555 1_555
H13 C21 1_555 1_555
C22 O14 1_555 1_555
H14 C22 1_555 1_555
C23 N2 1_555 1_555
H15 C23 1_555 1_555
H16 C23 1_555 1_555
H17 C23 1_555 1_555
C24 N2 1_555 1_555
H18 C24 1_555 1_555
H19 C24 1_555 1_555
H20 C24 1_555 1_555
C25 O15 1_555 1_555
H21 C25 1_555 1_555
C26 N3 1_555 1_555
H22 C26 1_555 1_555
H23 C26 1_555 1_555
H24 C26 1_555 1_555
C27 N3 1_555 1_555
H25 C27 1_555 1_555
H26 C27 1_555 1_555
H27 C27 1_555 1_555
C28 O16 1_555 1_555
H28 C28 1_555 1_555
C29 N4 1_555 1_555
H29 C29 1_555 1_555
H30 C29 1_555 1_555
H31 C29 1_555 1_555
C30 N4 1_555 1_555
H32 C30 1_555 1_555
H33 C30 1_555 1_555
H34 C30 1_555 1_555
Mn1B O5 1_555 1_555
Mn1A O10 1_555 1_555
Mn1C O11 1_555 1_555
Mn2C O4 1_555 1_555
Mn3B O6 1_555 1_555
Mn3A O9 1_555 1_555
O4C Mn2 1_555 1_555
O5B Mn1 1_555 1_555
O6B Mn3 1_555 1_555
O9A Mn3 1_555 1_555
O10A Mn1 1_555 1_555
O11C Mn1 1_555 1_555
O12C Mn2 1_555 1_555
Mn3 O7 1_555 1_555
O8 C10 1_555 1_555
O12 Mn2C 1_555 1_555
C7 C9 1_555 1_555
C16 C18 1_555 1_555

#END
