
#######################################################################
#
#                 Cambridge Crystallographic Data Centre
#                                CCDC 
#
#######################################################################
#
# If this CIF has been generated from an entry in the Cambridge 
# Structural Database, then it will include bibliographic, chemical, 
# crystal, experimental, refinement or atomic coordinate data resulting 
# from the CCDC's data processing and validation procedures.
#
#######################################################################

data_DEPXAY
_symmetry_cell_setting           orthorhombic
_symmetry_space_group_name_H-M   'P b c a'
_symmetry_Int_Tables_number      61
_space_group_name_Hall           '-P 2ac 2ab'
loop_
_symmetry_equiv_pos_site_id
_symmetry_equiv_pos_as_xyz
1 x,y,z
2 1/2-x,-y,1/2+z
3 -x,1/2+y,1/2-z
4 1/2+x,1/2-y,-z
5 -x,-y,-z
6 1/2+x,y,1/2-z
7 x,1/2-y,1/2+z
8 1/2-x,1/2+y,z
_cell_length_a                   14.216(3)
_cell_length_b                   14.447(3)
_cell_length_c                   27.865(6)
_cell_angle_alpha                90
_cell_angle_beta                 90
_cell_angle_gamma                90
_cell_volume                     5722.87
loop_
_atom_site_label
_atom_site_type_symbol
_atom_site_fract_x
_atom_site_fract_y
_atom_site_fract_z
Zn1 Zn -0.20947(5) -0.10007(5) -0.09855(3)
Zn2 Zn -0.21308(5) -0.48353(5) 0.15498(2)
C1 C -0.2112(4) -0.2966(4) 0.1154(2)
H1 H -0.2129 -0.2818 0.1479
C2 C -0.2165(4) -0.2247(4) 0.0822(2)
C3 C -0.2156(4) -0.2475(4) 0.0333(2)
C4 C -0.2045(4) -0.3385(4) 0.0209(2)
H2 H -0.2000 -0.3552 -0.0113
C5 C -0.1997(4) -0.4056(4) 0.0560(2)
H3 H -0.1934 -0.4672 0.0468
C6 C -0.2207(5) -0.1264(4) 0.1003(2)
C7 C -0.2366(5) -0.1747(5) -0.0047(2)
C8 C 0.0854(4) -0.0533(4) -0.1728(2)
H4 H 0.0830 -0.0534 -0.1394
C9 C 0.0020(4) -0.0650(4) -0.1982(2)
C10 C 0.0054(4) -0.0649(4) -0.2484(2)
C11 C 0.0928(5) -0.0544(5) -0.2703(2)
H5 H 0.0975 -0.0547 -0.3036
C12 C 0.1724(5) -0.0435(5) -0.2426(2)
H6 H 0.2302 -0.0370 -0.2578
C13 C -0.0888(5) -0.0698(5) -0.1708(2)
C14 C -0.0821(5) -0.0794(4) -0.2783(2)
C15 C -0.1219(5) 0.0364(6) -0.0272(3)
H7 H -0.1328 -0.0093 -0.0044
C16 C -0.0585(6) 0.1882(6) -0.0465(3)
H8 H -0.0790 0.1707 -0.0781
H9 H -0.0914 0.2429 -0.0365
H10 H 0.0079 0.2003 -0.0470
C17 C -0.0509(6) 0.1263(6) 0.0363(3)
H11 H -0.0673 0.0720 0.0543
H12 H 0.0158 0.1362 0.0382
H13 H -0.0831 0.1790 0.0493
C18 C -0.3625(12) 0.0246(13) -0.0984(9)
H14 H -0.3234 0.0531 -0.0762
C19 C -0.5017(12) 0.086(2) -0.0640(8)
H15 H -0.4924 0.0376 -0.0410
H16 H -0.4998 0.1451 -0.0479
H17 H -0.5617 0.0788 -0.0793
C20 C -0.4375(12) 0.1462(12) -0.1345(7)
H18 H -0.3905 0.1321 -0.1581
H19 H -0.4987 0.1433 -0.1490
H20 H -0.4269 0.2073 -0.1221
C21 C -0.2726(6) -0.2281(5) -0.1794(3)
H21 H -0.2157 -0.2134 -0.1940
C22 C -0.4254(7) -0.3003(6) -0.1855(4)
H22 H -0.4308 -0.2795 -0.1529
H23 H -0.4736 -0.2719 -0.2046
H24 H -0.4323 -0.3664 -0.1866
C23 C -0.3141(9) -0.3016(7) -0.2533(4)
H25 H -0.2520 -0.2814 -0.2618
H26 H -0.3179 -0.3677 -0.2562
H27 H -0.3592 -0.2734 -0.2743
N1 N -0.2039(4) -0.3855(4) 0.10300(19)
N2 N 0.1693(3) -0.0418(4) -0.19419(19)
N3 N -0.0780(4) 0.1138(4) -0.0133(2)
N4 N -0.3339(5) -0.2749(5) -0.2042(3)
N5 N -0.4322(7) 0.0830(6) -0.0976(5)
O1 O -0.2861(3) -0.1094(3) 0.13020(17)
O2 O -0.1614(4) -0.0707(3) 0.08648(18)
O3 O -0.2961(4) -0.1160(3) 0.00386(18)
O4 O -0.1895(3) -0.1832(3) -0.04277(17)
O5 O -0.1013(3) -0.0100(3) -0.30533(17)
O6 O -0.1247(3) -0.1519(3) -0.27655(18)
O7 O -0.1583(3) -0.0267(4) -0.18566(19)
O8 O -0.0882(3) -0.1191(3) -0.13311(18)
O9 O -0.1481(4) 0.0227(4) -0.0680(2)
O10 O -0.3259(5) -0.0249(5) -0.1058(3)
O11 O -0.2856(4) -0.2022(4) -0.1378(2)
Zn2F Zn -0.21308(5) -0.01647(5) -0.34502(2)
Zn2C Zn 0.28692(5) -0.01647(5) -0.15498(2)
Zn2G Zn -0.28692(5) 0.01647(5) 0.15498(2)
N2C N -0.3307(3) -0.4582(4) 0.19419(19)
O1G O -0.2139(3) -0.6094(3) 0.13020(17)
O5F O -0.1013(3) -0.4900(3) 0.19467(17)
loop_
_geom_bond_atom_site_label_1
_geom_bond_atom_site_label_2
_geom_bond_site_symmetry_1
_geom_bond_site_symmetry_2
Zn1 O4 1_555 1_555
Zn2 N1 1_555 1_555
C1 H1 1_555 1_555
C2 C1 1_555 1_555
C3 C2 1_555 1_555
C4 C3 1_555 1_555
H2 C4 1_555 1_555
C5 C4 1_555 1_555
H3 C5 1_555 1_555
C6 C2 1_555 1_555
C7 C3 1_555 1_555
C8 H4 1_555 1_555
C9 C8 1_555 1_555
C10 C9 1_555 1_555
C11 C10 1_555 1_555
H5 C11 1_555 1_555
C12 C11 1_555 1_555
H6 C12 1_555 1_555
C13 C9 1_555 1_555
C14 C10 1_555 1_555
C15 H7 1_555 1_555
C16 H8 1_555 1_555
H9 C16 1_555 1_555
H10 C16 1_555 1_555
C17 H11 1_555 1_555
H12 C17 1_555 1_555
H13 C17 1_555 1_555
C18 H14 1_555 1_555
C19 H15 1_555 1_555
H16 C19 1_555 1_555
H17 C19 1_555 1_555
C20 H18 1_555 1_555
H19 C20 1_555 1_555
H20 C20 1_555 1_555
C21 H21 1_555 1_555
C22 H22 1_555 1_555
H23 C22 1_555 1_555
H24 C22 1_555 1_555
C23 H25 1_555 1_555
H26 C23 1_555 1_555
H27 C23 1_555 1_555
N1 C1 1_555 1_555
N2 C8 1_555 1_555
N3 C15 1_555 1_555
N4 C21 1_555 1_555
N5 C18 1_555 1_555
O1 C6 1_555 1_555
O2 C6 1_555 1_555
O3 C7 1_555 1_555
O4 C7 1_555 1_555
O5 C14 1_555 1_555
O6 C14 1_555 1_555
O7 C13 1_555 1_555
O8 Zn1 1_555 1_555
O9 Zn1 1_555 1_555
O10 Zn1 1_555 1_555
O11 Zn1 1_555 1_555
Zn2F O5 1_555 1_555
Zn2C N2 1_555 1_555
Zn2G O1 1_555 1_555
N2C Zn2 1_555 1_555
O1G Zn2 1_555 1_555
O5F Zn2 1_555 1_555
C5 N1 1_555 1_555
C12 N2 1_555 1_555
C13 O8 1_555 1_555
C15 O9 1_555 1_555
C16 N3 1_555 1_555
C17 N3 1_555 1_555
C18 O10 1_555 1_555
C19 N5 1_555 1_555
C20 N5 1_555 1_555
C21 O11 1_555 1_555
C22 N4 1_555 1_555
C23 N4 1_555 1_555

#END
