
#######################################################################
#
#                 Cambridge Crystallographic Data Centre
#                                CCDC 
#
#######################################################################
#
# If this CIF has been generated from an entry in the Cambridge 
# Structural Database, then it will include bibliographic, chemical, 
# crystal, experimental, refinement or atomic coordinate data resulting 
# from the CCDC's data processing and validation procedures.
#
#######################################################################

data_DEQDIN
_symmetry_cell_setting           monoclinic
_symmetry_space_group_name_H-M   'P 21'
_symmetry_Int_Tables_number      4
_space_group_name_Hall           'P 2yb'
loop_
_symmetry_equiv_pos_site_id
_symmetry_equiv_pos_as_xyz
1 x,y,z
2 -x,1/2+y,-z
_cell_length_a                   9.1608(2)
_cell_length_b                   19.3673(4)
_cell_length_c                   24.6754(5)
_cell_angle_alpha                90
_cell_angle_beta                 98.1430(10)
_cell_angle_gamma                90
_cell_volume                     4333.77
loop_
_atom_site_label
_atom_site_type_symbol
_atom_site_fract_x
_atom_site_fract_y
_atom_site_fract_z
Cd1 Cd 0.31499(14) 0.82533(6) 0.01451(3)
O1 O 0.559(2) 0.7837(10) 0.0374(8)
O2 O 0.2181(17) 0.9353(9) 0.0076(5)
O3 O 0.535(2) 0.8921(10) 0.0362(6)
O4 O -0.019(2) 0.9578(9) 0.0117(5)
O5 O 0.0491(13) 0.8567(8) 0.0037(3)
O6 O 0.0044(10) 0.7970(5) -0.5435(3)
O7 O 0.4123(14) 0.8001(10) -0.4503(4)
O8 O 0.744(3) 0.8379(13) 0.0752(8)
N1 N 0.3070(13) 0.8254(9) -0.0778(4)
N2 N 0.2767(13) 0.8278(8) -0.8962(4)
N3 N 0.616(3) 0.8396(17) 0.0497(9)
N4 N 0.098(3) 0.9232(11) 0.0097(5)
C1 C 0.2913(15) 0.8319(13) -0.2510(5)
H1 H 0.3833 0.8254 -0.2638
C2 C 0.185(2) 0.7858(12) -0.8763(6)
H2 H 0.1339 0.7522 -0.8999
C3 C 0.2908(14) 0.8325(14) -0.1919(4)
C4 C 0.1594(19) 0.7885(10) -0.8227(6)
H3 H 0.0959 0.7552 -0.8101
C5 C 0.4208(17) 0.825(2) -0.1017(6)
H4 H 0.5150 0.8275 -0.0800
C6 C 0.414(2) 0.823(2) -0.1581(5)
H5 H 0.5021 0.8133 -0.1731
C7 C 0.1698(15) 0.8356(10) -0.1663(4)
H6 H 0.0761 0.8403 -0.1881
C8 C 0.1753(15) 0.8323(11) -0.1119(4)
H7 H 0.0861 0.8349 -0.0965
C9 C 0.2244(14) 0.8389(8) -0.7862(4)
C10 C 0.1992(15) 0.8390(8) -0.7291(4)
H8 H 0.1290 0.8074 -0.7187
C11 C 0.3373(18) 0.8790(9) -0.8625(5)
H9 H 0.3979 0.9123 -0.8768
C12 C 0.3151(18) 0.8848(8) -0.8089(5)
H10 H 0.3624 0.9209 -0.7869
C13 C -0.0289(13) 0.9332(6) -0.4697(4)
H11 H -0.0206 0.9396 -0.5073
C14 C 0.2675(17) 0.8802(7) -0.6908(5)
H12 H 0.3357 0.9127 -0.7015
C15 C -0.1323(19) 0.7846(8) -0.5798(6)
H13 H -0.1908 0.7499 -0.5627
H14 H -0.1086 0.7647 -0.6144
C16 C 0.5026(17) 1.0035(13) -0.5120(6)
H15 H 0.5539 1.0338 -0.4857
C17 C 0.3189(13) 0.9146(7) -0.5360(4)
C18 C 0.5292(16) 1.0064(10) -0.5677(5)
C19 C 0.3021(18) 0.8265(12) -0.4274(5)
C20 C 0.0735(12) 0.8929(6) -0.4382(4)
C21 C 0.1750(14) 0.8492(7) -0.3475(4)
C22 C 0.4508(15) 0.9649(8) -0.6069(5)
H16 H 0.4695 0.9672 -0.6438
C23 C 0.3416(15) 0.9187(7) -0.5923(4)
C24 C 0.0621(13) 0.8829(6) -0.3816(4)
C25 C -0.0589(13) 0.9121(7) -0.3616(4)
H17 H -0.0709 0.9055 -0.3243
C26 C 0.4089(15) 0.9598(8) -0.4974(4)
H18 H 0.3982 0.9569 -0.4597
C27 C -0.1415(15) 0.9641(6) -0.4489(4)
H19 H -0.2072 0.9948 -0.4702
C28 C 0.1150(13) 0.8385(8) -0.5587(4)
C29 C 0.2450(13) 0.8794(7) -0.6318(4)
C30 C 0.1361(15) 0.8420(7) -0.6155(4)
H20 H 0.0710 0.8173 -0.6420
C31 C -0.1567(14) 0.9484(6) -0.3939(5)
C32 C 0.1926(15) 0.8606(8) -0.4608(4)
C33 C 0.2088(15) 0.8713(7) -0.5210(4)
C34 C -0.2259(19) 0.8484(8) -0.5929(6)
H21 H -0.3151 0.8362 -0.6179
H22 H -0.1696 0.8829 -0.6103
H23 H -0.2537 0.8675 -0.5590
C35 C 0.2958(14) 0.8258(10) -0.3699(4)
H24 H 0.3782 0.8085 -0.3460
C36 C 0.1742(14) 0.8396(9) -0.2878(4)
H25 H 0.0809 0.8391 -0.2751
C37 C 0.532(3) 0.761(2) -0.4197(9)
H26 H 0.5288 0.7635 -0.3798
H27 H 0.5304 0.7122 -0.4314
C38 C 0.633(3) 0.7904(12) -0.4318(13)
H28 H 0.7240 0.7707 -0.4119
H29 H 0.6271 0.8394 -0.4223
H30 H 0.6347 0.7859 -0.4713
Cl1 Cl 0.6682(5) 1.0573(3) -0.58494(18)
Cl2 Cl -0.3140(4) 0.98337(18) -0.36930(11)
O9 O 0.294(2) 0.7005(13) 0.0173(9)
Cd1_2 Cd 0.31499(14) 0.82533(6) -0.98549(3)
N2_2 N 0.2767(13) 0.8278(8) 0.1038(4)
Cd2 Cd 0.19697(13) 1.15302(6) -0.75731(3)
O10 O 0.3826(12) 1.2413(6) -0.7294(5)
O11 O 0.3469(12) 1.3487(6) -0.7194(4)
O12 O 0.1644(11) 1.2813(6) -0.7491(3)
O13 O 0.1968(11) 1.2288(5) -0.2326(3)
O14 O 0.2978(12) 1.0836(7) -0.2852(4)
N5 N 0.1312(13) 1.1446(7) -0.6715(4)
N6 N 0.2070(14) 1.1616(8) 0.1508(4)
N7 N 0.2970(14) 1.2914(10) -0.7334(4)
C39 C 0.0418(19) 1.1165(8) -0.4093(5)
C40 C 0.1663(18) 1.0949(10) -0.3748(6)
H31 H 0.2463 1.0757 -0.3904
C41 C 0.001(2) 1.1779(11) -0.5998(6)
H32 H -0.0731 1.2082 -0.5903
C42 C 0.019(2) 1.1435(12) -0.5082(7)
H33 H -0.0540 1.1771 -0.5039
C43 C 0.216(2) 1.1067(8) 0.1202(6)
H34 H 0.2325 1.0634 0.1380
C44 C 0.068(3) 1.1092(11) -0.4673(5)
H35 H 0.1318 1.0725 -0.4739
C45 C 0.202(2) 1.1081(8) 0.0645(5)
H36 H 0.2089 1.0662 0.0450
C46 C -0.0873(14) 1.1368(7) -0.3873(4)
C47 C -0.2000(15) 1.1629(8) -0.3061(5)
H37 H -0.1910 1.1681 -0.2675
C48 C 0.064(2) 1.1370(12) -0.5629(6)
C49 C 0.1776(17) 1.1003(8) -0.3183(5)
C50 C 0.1728(18) 1.2273(7) 0.0678(5)
H38 H 0.1584 1.2716 0.0514
C51 C 0.0700(13) 1.1259(7) -0.2340(5)
C52 C 0.034(2) 1.1807(9) -0.6525(6)
H39 H -0.0207 1.2125 -0.6768
C53 C 0.1875(17) 1.2194(8) 0.1235(5)
H40 H 0.1830 1.2603 0.1445
C54 C 0.0564(16) 1.1236(8) -0.2959(4)
C55 C 0.153(3) 1.0933(10) -0.5835(7)
H41 H 0.1908 1.0553 -0.5617
C56 C 0.1058(15) 1.1236(7) -0.1158(5)
C57 C -0.2206(18) 1.1540(8) -0.4195(5)
H42 H -0.2259 1.1558 -0.4582
C58 C 0.1603(16) 1.1764(7) -0.1462(5)
H43 H 0.2110 1.2137 -0.1268
C59 C 0.0192(16) 1.0671(7) -0.1472(5)
C60 C 0.1281(17) 1.1218(7) -0.0563(5)
H44 H 0.1201 1.0785 -0.0390
C61 C 0.0046(14) 1.0691(6) -0.2054(4)
C62 C 0.1594(15) 1.1774(8) -0.0242(4)
H45 H 0.1683 1.2217 -0.0399
C63 C 0.1446(15) 1.1774(6) -0.2028(5)
C64 C -0.0776(13) 1.1409(7) -0.3300(4)
C65 C 0.502(3) 1.0119(14) -0.2478(14)
H46 H 0.5671 0.9756 -0.2580
H47 H 0.4474 0.9947 -0.2191
H48 H 0.5603 1.0523 -0.2343
C66 C -0.0757(14) 1.0139(7) -0.2338(5)
H49 H -0.0855 1.0132 -0.2726
C67 C -0.345(2) 1.1685(10) -0.3954(6)
C68 C -0.336(2) 1.1773(9) -0.3384(6)
H50 H -0.4184 1.1924 -0.3223
C69 C -0.1361(19) 0.9647(8) -0.2093(5)
H51 H -0.1901 0.9286 -0.2290
C70 C -0.0424(17) 1.0177(6) -0.1216(5)
H52 H -0.0337 1.0178 -0.0827
C71 C -0.1167(16) 0.9680(7) -0.1503(5)
C72 C 0.1797(16) 1.1688(8) 0.0362(4)
C73 C 0.331(4) 1.2578(14) -0.2145(10)
H53 H 0.4066 1.2221 -0.2041
H54 H 0.3250 1.2886 -0.1828
C74 C 0.363(4) 1.300(2) -0.2660(14)
H55 H 0.4612 1.3213 -0.2581
H56 H 0.2886 1.3360 -0.2745
H57 H 0.3611 1.2688 -0.2974
C75 C 0.389(2) 1.0331(10) -0.2995(8)
H58 H 0.4431 1.0501 -0.3289
H59 H 0.3300 0.9924 -0.3136
O15 O -0.065(2) 1.1638(13) -0.7856(6)
C76 C 0.193(3) 1.1001(11) -0.6351(6)
H60 H 0.2685 1.0711 -0.6448
Cl3 Cl -0.2121(6) 0.9018(2) -0.11797(16)
Cl4 Cl -0.5113(6) 1.1863(3) -0.4346(2)
O16 O 0.319(3) 1.0517(11) -0.7447(9)
O17 O 0.535(3) 1.0011(14) -0.7363(7)
N8 N 0.428(5) 1.057(2) -0.7435(16)
O18 O 0.109(3) 1.0319(15) -0.7794(11)
O19 O 0.499(4) 1.120(2) -0.748(2)
Cd2_2 Cd 0.19697(13) 1.15302(6) 0.24269(3)
N6_2 N 0.2070(14) 1.1616(8) -0.8492(4)
O20 O -0.083(2) 0.9723(10) -0.7837(8)
C77 C -0.091(3) 0.9755(14) -0.7172(12)
loop_
_geom_bond_atom_site_label_1
_geom_bond_atom_site_label_2
_geom_bond_site_symmetry_1
_geom_bond_site_symmetry_2
Cd1 O1 1_555 1_555
O1 N3 1_555 1_555
O2 Cd1 1_555 1_555
O3 Cd1 1_555 1_555
O4 N4 1_555 1_555
O5 Cd1 1_555 1_555
O6 C15 1_555 1_555
O7 C19 1_555 1_555
O8 N3 1_555 1_555
N1 Cd1 1_555 1_555
N2 C2 1_555 1_555
N3 O3 1_555 1_555
N4 O2 1_555 1_555
C1 H1 1_555 1_555
C2 H2 1_555 1_555
C3 C1 1_555 1_555
C4 C2 1_555 1_555
H3 C4 1_555 1_555
C5 N1 1_555 1_555
H4 C5 1_555 1_555
C6 C3 1_555 1_555
H5 C6 1_555 1_555
C7 C3 1_555 1_555
H6 C7 1_555 1_555
C8 N1 1_555 1_555
H7 C8 1_555 1_555
C9 C4 1_555 1_555
C10 C9 1_555 1_555
H8 C10 1_555 1_555
C11 N2 1_555 1_555
H9 C11 1_555 1_555
C12 C9 1_555 1_555
H10 C12 1_555 1_555
C13 H11 1_555 1_555
C14 C10 1_555 1_555
H12 C14 1_555 1_555
C15 H13 1_555 1_555
H14 C15 1_555 1_555
C16 H15 1_555 1_555
C17 C23 1_555 1_555
C18 C16 1_555 1_555
C19 C32 1_555 1_555
C20 C13 1_555 1_555
C21 C24 1_555 1_555
C22 C18 1_555 1_555
H16 C22 1_555 1_555
C23 C22 1_555 1_555
C24 C20 1_555 1_555
C25 C24 1_555 1_555
H17 C25 1_555 1_555
C26 C16 1_555 1_555
H18 C26 1_555 1_555
C27 C13 1_555 1_555
H19 C27 1_555 1_555
C28 O6 1_555 1_555
C29 C14 1_555 1_555
C30 C28 1_555 1_555
H20 C30 1_555 1_555
C31 C25 1_555 1_555
C32 C20 1_555 1_555
C33 C17 1_555 1_555
C34 C15 1_555 1_555
H21 C34 1_555 1_555
H22 C34 1_555 1_555
H23 C34 1_555 1_555
C35 C19 1_555 1_555
H24 C35 1_555 1_555
C36 C1 1_555 1_555
H25 C36 1_555 1_555
C37 O7 1_555 1_555
H26 C37 1_555 1_555
H27 C37 1_555 1_555
C38 C37 1_555 1_555
H28 C38 1_555 1_555
H29 C38 1_555 1_555
H30 C38 1_555 1_555
Cl1 C18 1_555 1_555
Cl2 C31 1_555 1_555
O9 Cd1 1_555 1_555
Cd2 O10 1_555 1_555
O10 N7 1_555 1_555
O11 N7 1_555 1_555
O12 Cd2 1_555 1_555
O13 C63 1_555 1_555
O14 C49 1_555 1_555
N5 Cd2 1_555 1_555
N6 C43 1_555 1_555
N7 O12 1_555 1_555
C39 C40 1_555 1_555
C40 H31 1_555 1_555
C41 H32 1_555 1_555
C42 H33 1_555 1_555
C43 H34 1_555 1_555
C44 C39 1_555 1_555
H35 C44 1_555 1_555
C45 C43 1_555 1_555
H36 C45 1_555 1_555
C46 C39 1_555 1_555
C47 H37 1_555 1_555
C48 C41 1_555 1_555
C49 C40 1_555 1_555
C50 H38 1_555 1_555
C51 C54 1_555 1_555
C52 N5 1_555 1_555
H39 C52 1_555 1_555
C53 N6 1_555 1_555
H40 C53 1_555 1_555
C54 C49 1_555 1_555
C55 C48 1_555 1_555
H41 C55 1_555 1_555
C56 C58 1_555 1_555
C57 C46 1_555 1_555
H42 C57 1_555 1_555
C58 H43 1_555 1_555
C59 C56 1_555 1_555
C60 C56 1_555 1_555
H44 C60 1_555 1_555
C61 C51 1_555 1_555
C62 C60 1_555 1_555
H45 C62 1_555 1_555
C63 C51 1_555 1_555
C64 C46 1_555 1_555
C65 H46 1_555 1_555
H47 C65 1_555 1_555
H48 C65 1_555 1_555
C66 C61 1_555 1_555
H49 C66 1_555 1_555
C67 C57 1_555 1_555
C68 C47 1_555 1_555
H50 C68 1_555 1_555
C69 C66 1_555 1_555
H51 C69 1_555 1_555
C70 C59 1_555 1_555
H52 C70 1_555 1_555
C71 C69 1_555 1_555
C72 C45 1_555 1_555
C73 O13 1_555 1_555
H53 C73 1_555 1_555
H54 C73 1_555 1_555
C74 C73 1_555 1_555
H55 C74 1_555 1_555
H56 C74 1_555 1_555
H57 C74 1_555 1_555
C75 O14 1_555 1_555
H58 C75 1_555 1_555
H59 C75 1_555 1_555
O15 Cd2 1_555 1_555
C76 N5 1_555 1_555
H60 C76 1_555 1_555
Cl3 C71 1_555 1_555
Cl4 C67 1_555 1_555
O16 Cd2 1_555 1_555
O17 N8 1_555 1_555
N8 O16 1_555 1_555
O18 Cd2 1_555 1_555
O19 N8 1_555 1_555
O20 C77 1_555 1_555
Cd1_2 N2 1_555 1_555
N2_2 Cd1 1_555 1_555
Cd2_2 N6 1_555 1_555
N6_2 Cd2 1_555 1_555
O5 N4 1_555 1_555
C5 C6 1_555 1_555
C7 C8 1_555 1_555
C11 C12 1_555 1_555
C17 C26 1_555 1_555
C21 C35 1_555 1_555
C21 C36 1_555 1_555
C23 C29 1_555 1_555
C27 C31 1_555 1_555
C28 C33 1_555 1_555
C29 C30 1_555 1_555
C32 C33 1_555 1_555
C41 C52 1_555 1_555
C42 C44 1_555 1_555
C42 C48 1_555 1_555
C47 C64 1_555 1_555
C50 C53 1_555 1_555
C50 C72 1_555 1_555
C54 C64 1_555 1_555
C55 C76 1_555 1_555
C58 C63 1_555 1_555
C59 C61 1_555 1_555
C62 C72 1_555 1_555
C65 C75 1_555 1_555
C67 C68 1_555 1_555
C70 C71 1_555 1_555

#END
