
#######################################################################
#
#                 Cambridge Crystallographic Data Centre
#                                CCDC 
#
#######################################################################
#
# If this CIF has been generated from an entry in the Cambridge 
# Structural Database, then it will include bibliographic, chemical, 
# crystal, experimental, refinement or atomic coordinate data resulting 
# from the CCDC's data processing and validation procedures.
#
#######################################################################

data_DEQDUZ
_symmetry_cell_setting           monoclinic
_symmetry_space_group_name_H-M   'C 2'
_symmetry_Int_Tables_number      5
_space_group_name_Hall           'C 2y'
loop_
_symmetry_equiv_pos_site_id
_symmetry_equiv_pos_as_xyz
1 x,y,z
2 -x,y,-z
3 1/2+x,1/2+y,z
4 1/2-x,1/2+y,-z
_cell_length_a                   27.796(8)
_cell_length_b                   31.895(11)
_cell_length_c                   10.176(3)
_cell_angle_alpha                90
_cell_angle_beta                 103.40(3)
_cell_angle_gamma                90
_cell_volume                     8775.96
loop_
_atom_site_label
_atom_site_type_symbol
_atom_site_fract_x
_atom_site_fract_y
_atom_site_fract_z
Cd1 Cd 1.0000 -0.91122(3) 0.5000
Cl1 Cl 0.77718(17) -0.43403(11) 1.0052(5)
Cl2 Cl 1.00330(17) -0.67037(19) 1.2421(6)
O1 O 0.9223(3) -0.9347(2) 0.3421(8)
O2 O 0.7322(5) -0.6786(3) 1.0873(14)
O3 O 0.7287(3) -0.6546(3) 0.7597(10)
O4 O 0.9493(5) -0.8854(5) 0.2434(16)
O5 O 0.8924(5) -0.9245(4) 0.1329(10)
N1 N 0.9182(4) -0.9176(3) 0.2309(14)
N2 N 0.9526(4) -0.8584(4) 0.5691(13)
N3 N 0.5361(4) -0.4571(3) 1.3712(10)
C1 C 0.8837(5) -0.7335(3) 0.7927(16)
H1 H 0.9186 -0.7299 0.8132
C2 C 0.7050(7) -0.7456(5) 1.104(2)
H2 H 0.6803 -0.7630 1.1328
H3 H 0.7382 -0.7546 1.1515
H4 H 0.7015 -0.7487 1.0064
C3 C 0.8057(5) -0.6941(4) 0.7815(14)
H5 H 0.7923 -0.7092 0.7009
C4 C 0.9027(5) -0.8603(4) 0.5514(13)
H6 H 0.8857 -0.8828 0.4993
C5 C 0.8751(5) -0.6808(4) 0.9649(14)
C6 C 0.5432(5) -0.4456(5) 1.2483(14)
H7 H 0.5249 -0.4220 1.2075
C7 C 0.6974(6) -0.6990(5) 1.138(2)
H8 H 0.6637 -0.6894 1.0930
H9 H 0.7028 -0.6947 1.2362
C8 C 0.9725(4) -0.8257(4) 0.6292(16)
H10 H 1.0071 -0.8227 0.6390
C9 C 0.8450(5) -0.6511(4) 1.0133(15)
C10 C 0.7967(5) -0.5116(4) 0.9269(17)
H11 H 0.8184 -0.4986 0.8795
C11 C 0.5991(5) -0.4962(4) 1.2331(14)
C12 C 0.8664(6) -0.6295(5) 1.1361(18)
H12 H 0.8465 -0.6104 1.1720
C13 C 0.9427(6) -0.6636(7) 1.1504(19)
C14 C 0.7692(5) -0.4866(4) 0.9973(14)
C15 C 0.9234(5) -0.6863(4) 1.0371(14)
H13 H 0.9436 -0.7064 1.0069
C16 C 0.5741(5) -0.4644(5) 1.1752(16)
H14 H 0.5766 -0.4544 1.0890
C17 C 0.5914(6) -0.5136(4) 1.3517(18)
H15 H 0.6086 -0.5383 1.3879
C18 C 0.8755(4) -0.8321(3) 0.6035(13)
H16 H 0.8411 -0.8368 0.5931
C19 C 0.8539(4) -0.7006(4) 0.8480(13)
C20 C 0.8956(5) -0.7985(4) 0.6677(16)
C21 C 0.9119(6) -0.6352(6) 1.200(2)
H17 H 0.9248 -0.6201 1.2809
C22 C 0.9485(5) -0.7938(4) 0.6820(16)
H18 H 0.9659 -0.7700 0.7253
C23 C 0.7758(4) -0.6655(4) 0.8304(15)
C24 C 0.8666(5) -0.7654(4) 0.7219(14)
H19 H 0.8317 -0.7687 0.7009
C25 C 0.6626(5) -0.5494(3) 1.2125(14)
H20 H 0.6589 -0.5609 1.2956
C26 C 0.7316(5) -0.5503(4) 1.0733(14)
C27 C 0.7305(5) -0.6366(4) 1.0780(17)
C28 C 0.7613(4) -0.6170(4) 1.0030(14)
C29 C 0.7003(5) -0.6115(4) 1.1378(18)
H21 H 0.6786 -0.6254 1.1833
C30 C 0.7923(5) -0.5541(4) 0.9263(15)
H22 H 0.8093 -0.5708 0.8743
C31 C 0.6993(6) -0.5700(6) 1.137(2)
C32 C 0.5567(5) -0.4935(5) 1.4207(14)
H23 H 0.5490 -0.5059 1.4982
C33 C 0.7377(4) -0.5038(4) 1.0668(14)
H24 H 0.7193 -0.4860 1.1118
C34 C 0.7951(5) -0.6450(4) 0.9487(17)
C35 C 0.7632(4) -0.5726(4) 1.0013(14)
C36 C 0.6690(14) -0.6933(18) 0.663(5)
H25 H 0.6616 -0.7184 0.6063
H26 H 0.6440 -0.6717 0.6296
H27 H 0.6685 -0.7005 0.7564
C37 C 0.6367(5) -0.5161(4) 1.1618(14)
H28 H 0.6414 -0.5042 1.0801
C38 C 0.7033(6) -0.6822(5) 0.660(2)
H29 H 0.7000 -0.6680 0.5717
H30 H 0.7249 -0.7068 0.6595
Cd1B Cd 0.5000 -0.41122(3) 1.5000
Cd1B_2 Cd 1.5000 -0.41122(3) -0.5000
Cl1A Cl 1.22282(17) -0.43403(11) -0.0052(5)
Cl2A Cl 0.99670(17) -0.67037(19) -0.2421(6)
O1A O 1.0777(3) -0.9347(2) 0.6579(8)
O2A O 1.2678(5) -0.6786(3) -0.0873(14)
O3A O 1.2713(3) -0.6546(3) 0.2403(10)
O4A O 1.0507(5) -0.8854(5) 0.7566(16)
O5A O 1.1076(5) -0.9245(4) 0.8671(10)
N1A N 1.0818(4) -0.9176(3) 0.7691(14)
N2A N 1.0474(4) -0.8584(4) 0.4309(13)
N3A N 1.4639(4) -0.4571(3) -0.3712(10)
N3B N 1.0361(4) -0.9571(3) 0.3712(10)
N3C N 0.9639(4) -0.9571(3) 0.6288(10)
C1A C 1.1163(5) -0.7335(3) 0.2073(16)
H1A H 1.0814 -0.7299 0.1868
C2A C 1.2950(7) -0.7456(5) -0.104(2)
H2A H 1.3197 -0.7630 -0.1328
H3A H 1.2618 -0.7546 -0.1515
H4A H 1.2985 -0.7487 -0.0064
C3A C 1.1943(5) -0.6941(4) 0.2185(14)
H5A H 1.2077 -0.7092 0.2991
C4A C 1.0973(5) -0.8603(4) 0.4486(13)
H6A H 1.1143 -0.8828 0.5007
C5A C 1.1249(5) -0.6808(4) 0.0351(14)
C6A C 1.4568(5) -0.4456(5) -0.2483(14)
H7A H 1.4751 -0.4220 -0.2075
C7A C 1.3026(6) -0.6990(5) -0.138(2)
H8A H 1.3363 -0.6894 -0.0930
H9A H 1.2972 -0.6947 -0.2362
C8A C 1.0275(4) -0.8257(4) 0.3708(16)
H10A H 0.9929 -0.8227 0.3610
C9A C 1.1550(5) -0.6511(4) -0.0133(15)
C10A C 1.2033(5) -0.5116(4) 0.0731(17)
H11A H 1.1816 -0.4986 0.1205
C11A C 1.4009(5) -0.4962(4) -0.2331(14)
C12A C 1.1336(6) -0.6295(5) -0.1361(18)
H12A H 1.1535 -0.6104 -0.1720
C13A C 1.0573(6) -0.6636(7) -0.1504(19)
C14A C 1.2308(5) -0.4866(4) 0.0027(14)
C15A C 1.0766(5) -0.6863(4) -0.0371(14)
H13A H 1.0564 -0.7064 -0.0069
C16A C 1.4259(5) -0.4644(5) -0.1752(16)
H14A H 1.4234 -0.4544 -0.0890
C17A C 1.4086(6) -0.5136(4) -0.3517(18)
H15A H 1.3914 -0.5383 -0.3879
C18A C 1.1245(4) -0.8321(3) 0.3965(13)
H16A H 1.1589 -0.8368 0.4069
C19A C 1.1461(4) -0.7006(4) 0.1520(13)
C20A C 1.1044(5) -0.7985(4) 0.3323(16)
C21A C 1.0881(6) -0.6352(6) -0.200(2)
H17A H 1.0752 -0.6201 -0.2809
C22A C 1.0515(5) -0.7938(4) 0.3180(16)
H18A H 1.0341 -0.7700 0.2747
C23A C 1.2242(4) -0.6655(4) 0.1696(15)
C24A C 1.1334(5) -0.7654(4) 0.2781(14)
H19A H 1.1683 -0.7687 0.2991
C25A C 1.3374(5) -0.5494(3) -0.2125(14)
H20A H 1.3411 -0.5609 -0.2956
C26A C 1.2684(5) -0.5503(4) -0.0733(14)
C27A C 1.2695(5) -0.6366(4) -0.0780(17)
C28A C 1.2387(4) -0.6170(4) -0.0030(14)
C29A C 1.2997(5) -0.6115(4) -0.1378(18)
H21A H 1.3214 -0.6254 -0.1833
C30A C 1.2077(5) -0.5541(4) 0.0737(15)
H22A H 1.1907 -0.5708 0.1257
C31A C 1.3007(6) -0.5700(6) -0.137(2)
C32A C 1.4433(5) -0.4935(5) -0.4207(14)
H23A H 1.4510 -0.5059 -0.4982
C33A C 1.2623(4) -0.5038(4) -0.0668(14)
H24A H 1.2807 -0.4860 -0.1118
C34A C 1.2049(5) -0.6450(4) 0.0513(17)
C35A C 1.2368(4) -0.5726(4) -0.0013(14)
C36A C 1.3310(14) -0.6933(18) 0.337(5)
H25A H 1.3384 -0.7184 0.3937
H26A H 1.3560 -0.6717 0.3704
H27A H 1.3315 -0.7005 0.2436
C37A C 1.3633(5) -0.5161(4) -0.1618(14)
H28A H 1.3586 -0.5042 -0.0801
C38A C 1.2967(6) -0.6822(5) 0.340(2)
H29A H 1.3000 -0.6680 0.4283
H30A H 1.2751 -0.7068 0.3405
Cd2 Cd 0.5000 -0.65885(3) 0.0000
Cl3 Cl 0.83176(14) -0.81787(12) 0.0361(4)
Cl4 Cl 0.70793(19) -1.12943(11) -0.4581(5)
O6 O 0.6496(3) -0.9281(3) -0.6032(9)
O7 O 0.6262(9) -0.6434(8) 0.347(2)
O8 O 0.5732(4) -0.6670(4) 0.1775(15)
O9 O 0.5698(14) -0.6054(13) 0.362(4)
O10 O 0.7902(4) -0.8930(3) -0.5833(10)
N4 N 0.5331(4) -0.7115(2) -0.1146(12)
N5 N 0.5857(10) -0.6435(11) 0.264(3)
N6 N 0.9545(4) -1.1092(3) -0.9077(11)
C39 C 0.9416(4) -1.0448(3) -0.8146(12)
H31 H 0.9541 -1.0174 -0.7910
C40 C 0.6705(5) -0.8564(4) -0.3172(14)
C41 C 0.7310(9) -0.8600(7) -0.7535(19)
H32 H 0.7269 -0.8458 -0.8408
H33 H 0.7212 -0.8411 -0.6886
H34 H 0.7102 -0.8852 -0.7646
C42 C 0.8235(4) -1.0360(3) -0.7016(11)
H35 H 0.8109 -1.0638 -0.7140
C43 C 0.7047(5) -1.0058(4) -0.4142(13)
H36 H 0.6893 -0.9864 -0.3661
C44 C 0.5804(5) -0.7738(3) -0.1102(13)
H37 H 0.5985 -0.7956 -0.0573
C45 C 0.7474(5) -0.9479(3) -0.5067(13)
C46 C 0.7198(5) -1.0756(3) -0.4741(15)
C47 C 0.7511(5) -1.0630(4) -0.5456(13)
H38 H 0.7671 -1.0834 -0.5886
C48 C 0.9699(4) -1.0721(3) -0.8638(11)
H39 H 1.0026 -1.0640 -0.8665
C49 C 0.6952(6) -1.0483(5) -0.4076(16)
H40 H 0.6723 -1.0583 -0.3586
C50 C 0.6447(5) -0.8248(4) -0.2516(15)
H41 H 0.6568 -0.8201 -0.1575
C51 C 0.8944(3) -1.0549(3) -0.7966(11)
C52 C 0.7844(6) -0.8724(5) -0.7022(16)
H42 H 0.7948 -0.8907 -0.7693
H43 H 0.8055 -0.8470 -0.6896
C53 C 0.8775(4) -1.0956(3) -0.8500(13)
H44 H 0.8457 -1.1053 -0.8445
C54 C 0.6054(5) -0.8024(5) -0.3162(13)
H45 H 0.5939 -0.8058 -0.4110
C55 C 0.5294(4) -0.7104(4) -0.2506(15)
H46 H 0.5104 -0.6888 -0.3025
C56 C 0.5565(5) -0.7451(3) -0.0508(13)
H47 H 0.5562 -0.7490 0.0416
C57 C 0.8657(4) -1.0276(3) -0.7431(10)
H48 H 0.8767 -0.9993 -0.7339
C58 C 0.7379(4) -0.9909(4) -0.4934(11)
C59 C 0.7969(4) -0.9031(3) -0.2590(11)
H49 H 0.8138 -0.9245 -0.2952
C60 C 0.8212(5) -0.8814(4) -0.1510(13)
H50 H 0.8546 -0.8884 -0.1113
C61 C 0.8040(5) -0.9649(3) -0.6458(12)
H51 H 0.8266 -0.9551 -0.6960
C62 C 0.7958(4) -1.0051(3) -0.6383(10)
C63 C 0.5788(4) -0.7718(4) -0.2427(15)
C64 C 0.7612(4) -1.0220(4) -0.5596(10)
C65 C 0.7204(4) -0.9157(5) -0.4353(9)
C66 C 0.7789(6) -0.9354(4) -0.5787(13)
C67 C 0.5535(5) -0.7406(5) -0.3181(17)
H52 H 0.5517 -0.7388 -0.4123
C68 C 0.9067(4) -1.1202(3) -0.9077(13)
H53 H 0.8936 -1.1457 -0.9495
C69 C 0.7227(5) -0.8622(4) -0.2609(12)
C70 C 0.6483(5) -0.8778(5) -0.4248(13)
H54 H 0.6140 -0.8730 -0.4607
C71 C 0.7484(4) -0.8951(3) -0.3181(11)
C72 C 0.7983(5) -0.8475(4) -0.0925(12)
C73 C 0.7510(4) -0.8402(4) -0.1505(13)
H55 H 0.7351 -0.8183 -0.1139
C74 C 0.6720(4) -0.9068(4) -0.4886(12)
C75 C 0.6037(8) -0.9141(11) -0.680(3)
H56 H 0.6059 -0.8841 -0.7033
H57 H 0.5781 -0.9171 -0.6269
C76 C 0.5903(10) -0.941(2) -0.807(4)
H58 H 0.5588 -0.9308 -0.8638
H59 H 0.5872 -0.9700 -0.7829
H60 H 0.6163 -0.9379 -0.8576
Cd2B Cd 1.0000 -1.15885(3) -1.0000
Cd2B_2 Cd 0.0000 -1.15885(3) 1.0000
Cl3A Cl 0.16824(14) -0.81787(12) -0.0361(4)
Cl4A Cl 0.29207(19) -1.12943(11) 0.4581(5)
O6A O 0.3504(3) -0.9281(3) 0.6032(9)
O7A O 0.3738(9) -0.6434(8) -0.347(2)
O8A O 0.4268(4) -0.6670(4) -0.1775(15)
O9A O 0.4302(14) -0.6054(13) -0.362(4)
O10A O 0.2098(4) -0.8930(3) 0.5833(10)
N4A N 0.4669(4) -0.7115(2) 0.1146(12)
N5A N 0.4143(10) -0.6435(11) -0.264(3)
N6A N 0.0455(4) -1.1092(3) 0.9077(11)
N6B N 0.4545(4) -0.6092(3) 0.0923(11)
N6C N 0.5455(4) -0.6092(3) -0.0923(11)
C39A C 0.0584(4) -1.0448(3) 0.8146(12)
H31A H 0.0459 -1.0174 0.7910
C40A C 0.3295(5) -0.8564(4) 0.3172(14)
C41A C 0.2690(9) -0.8600(7) 0.7535(19)
H32A H 0.2731 -0.8458 0.8408
H33A H 0.2788 -0.8411 0.6886
H34A H 0.2898 -0.8852 0.7646
C42A C 0.1765(4) -1.0360(3) 0.7016(11)
H35A H 0.1891 -1.0638 0.7140
C43A C 0.2953(5) -1.0058(4) 0.4142(13)
H36A H 0.3107 -0.9864 0.3661
C44A C 0.4196(5) -0.7738(3) 0.1102(13)
H37A H 0.4015 -0.7956 0.0573
C45A C 0.2526(5) -0.9479(3) 0.5067(13)
C46A C 0.2802(5) -1.0756(3) 0.4741(15)
C47A C 0.2489(5) -1.0630(4) 0.5456(13)
H38A H 0.2329 -1.0834 0.5886
C48A C 0.0301(4) -1.0721(3) 0.8638(11)
H39A H -0.0026 -1.0640 0.8665
C49A C 0.3048(6) -1.0483(5) 0.4076(16)
H40A H 0.3277 -1.0583 0.3586
C50A C 0.3553(5) -0.8248(4) 0.2516(15)
H41A H 0.3432 -0.8201 0.1575
C51A C 0.1056(3) -1.0549(3) 0.7966(11)
C52A C 0.2156(6) -0.8724(5) 0.7022(16)
H42A H 0.2052 -0.8907 0.7693
H43A H 0.1945 -0.8470 0.6896
C53A C 0.1225(4) -1.0956(3) 0.8500(13)
H44A H 0.1543 -1.1053 0.8445
C54A C 0.3946(5) -0.8024(5) 0.3162(13)
H45A H 0.4061 -0.8058 0.4110
C55A C 0.4706(4) -0.7104(4) 0.2506(15)
H46A H 0.4896 -0.6888 0.3025
C56A C 0.4435(5) -0.7451(3) 0.0508(13)
H47A H 0.4438 -0.7490 -0.0416
C57A C 0.1343(4) -1.0276(3) 0.7431(10)
H48A H 0.1233 -0.9993 0.7339
C58A C 0.2621(4) -0.9909(4) 0.4934(11)
C59A C 0.2031(4) -0.9031(3) 0.2590(11)
H49A H 0.1862 -0.9245 0.2952
C60A C 0.1788(5) -0.8814(4) 0.1510(13)
H50A H 0.1454 -0.8884 0.1113
C61A C 0.1960(5) -0.9649(3) 0.6458(12)
H51A H 0.1734 -0.9551 0.6960
C62A C 0.2042(4) -1.0051(3) 0.6383(10)
C63A C 0.4212(4) -0.7718(4) 0.2427(15)
C64A C 0.2388(4) -1.0220(4) 0.5596(10)
C65A C 0.2796(4) -0.9157(5) 0.4353(9)
C66A C 0.2211(6) -0.9354(4) 0.5787(13)
C67A C 0.4465(5) -0.7406(5) 0.3181(17)
H52A H 0.4483 -0.7388 0.4123
C68A C 0.0933(4) -1.1202(3) 0.9077(13)
H53A H 0.1064 -1.1457 0.9495
C69A C 0.2773(5) -0.8622(4) 0.2609(12)
C70A C 0.3517(5) -0.8778(5) 0.4248(13)
H54A H 0.3860 -0.8730 0.4607
C71A C 0.2516(4) -0.8951(3) 0.3181(11)
C72A C 0.2017(5) -0.8475(4) 0.0925(12)
C73A C 0.2490(4) -0.8402(4) 0.1505(13)
H55A H 0.2649 -0.8183 0.1139
C74A C 0.3280(4) -0.9068(4) 0.4886(12)
C75A C 0.3963(8) -0.9141(11) 0.680(3)
H56A H 0.3941 -0.8841 0.7033
H57A H 0.4219 -0.9171 0.6269
C76A C 0.4097(10) -0.941(2) 0.807(4)
H58A H 0.4412 -0.9308 0.8638
H59A H 0.4128 -0.9700 0.7829
H60A H 0.3837 -0.9379 0.8576
O11 O 0.2944(15) -0.2385(12) 1.406(4)
N7 N 0.3740(7) -0.2323(6) 1.3735(18)
C77 C 0.4023(5) -0.2700(4) 1.3063(14)
H61 H 0.3776 -0.2874 1.2459
H62 H 0.4217 -0.2876 1.3786
H63 H 0.4244 -0.2574 1.2549
C78 C 0.4108(6) -0.2020(5) 1.4768(15)
H64 H 0.3914 -0.1809 1.5120
H65 H 0.4333 -0.1881 1.4296
H66 H 0.4300 -0.2187 1.5518
C79 C 0.3240(7) -0.2410(6) 1.3809(17)
H67 H 0.3170 -0.2645 1.3218
C80 C 1.1099(16) -0.5979(14) 1.286(4)
H68 H 1.1238 -0.5902 1.2093
H69 H 1.0851 -0.6199 1.2590
H70 H 1.1365 -0.6081 1.3603
O12 O 1.067(2) -0.571(2) 1.462(6)
H71 H 1.0558 -0.5484 1.4864
C81 C 1.088(4) -0.563(3) 1.330(9)
H72 H 1.0602 -0.5531 1.2556
H73 H 1.1124 -0.5396 1.3488
O13 O 1.0000 -0.564(3) 1.0000
O14 O 1.1019(10) -0.2417(9) 1.326(3)
H74 H 1.1241 -0.2313 1.2923
C82 C 1.0450(12) -0.3130(11) 1.295(3)
H75 H 1.0444 -0.3373 1.2351
H76 H 1.0126 -0.2992 1.2729
H77 H 1.0525 -0.3223 1.3888
C83 C 1.089(4) -0.279(3) 1.271(10)
H78 H 1.1202 -0.2950 1.2910
H79 H 1.0813 -0.2733 1.1728
O15 O 0.5000 -0.8577(18) 0.5000
C84 C 0.925(2) -0.488(2) 1.299(6)
H80 H 0.9033 -0.4700 1.3385
H81 H 0.9533 -0.4714 1.2835
C85 C 0.941(6) -0.521(4) 1.376(14)
H82 H 0.9593 -0.5111 1.4647
H83 H 0.9618 -0.5382 1.3341
H84 H 0.9120 -0.5372 1.3874
O16 O 0.9029(14) -0.5045(13) 1.197(4)
O17 O 1.211(2) -0.2771(19) 1.479(6)
O18 O 0.4839(18) -0.2214(16) 1.369(5)
O19? O 1.0000 -0.8275(6) 1.0000
C86? C 1.0200(12) -0.7885(10) 0.963(3)
C87? C 0.9993(8) -0.7556(7) 1.0445(18)
O20? O 0.5210(13) -0.6251(14) 0.505(5)
loop_
_geom_bond_atom_site_label_1
_geom_bond_atom_site_label_2
_geom_bond_site_symmetry_1
_geom_bond_site_symmetry_2
Cd1 O1 1_555 1_555
Cl1 C14 1_555 1_555
Cl2 C13 1_555 1_555
O1 N1 1_555 1_555
O2 C7 1_555 1_555
O3 C23 1_555 1_555
O4 N1 1_555 1_555
O5 N1 1_555 1_555
N2 Cd1 1_555 1_555
N3 C6 1_555 1_555
C1 H1 1_555 1_555
C2 H2 1_555 1_555
H3 C2 1_555 1_555
H4 C2 1_555 1_555
C3 H5 1_555 1_555
C4 N2 1_555 1_555
H6 C4 1_555 1_555
C5 C9 1_555 1_555
C6 H7 1_555 1_555
C7 C2 1_555 1_555
H8 C7 1_555 1_555
H9 C7 1_555 1_555
C8 N2 1_555 1_555
H10 C8 1_555 1_555
C9 C12 1_555 1_555
C10 H11 1_555 1_555
C11 C16 1_555 1_555
C12 H12 1_555 1_555
C13 C15 1_555 1_555
C14 C10 1_555 1_555
C15 C5 1_555 1_555
H13 C15 1_555 1_555
C16 C6 1_555 1_555
H14 C16 1_555 1_555
C17 C11 1_555 1_555
H15 C17 1_555 1_555
C18 C4 1_555 1_555
H16 C18 1_555 1_555
C19 C1 1_555 1_555
C20 C18 1_555 1_555
C21 C12 1_555 1_555
H17 C21 1_555 1_555
C22 C8 1_555 1_555
H18 C22 1_555 1_555
C23 C3 1_555 1_555
C24 C1 1_555 1_555
H19 C24 1_555 1_555
C25 H20 1_555 1_555
C26 C31 1_555 1_555
C27 O2 1_555 1_555
C28 C27 1_555 1_555
C29 C27 1_555 1_555
H21 C29 1_555 1_555
C30 C10 1_555 1_555
H22 C30 1_555 1_555
C31 C25 1_555 1_555
C32 N3 1_555 1_555
H23 C32 1_555 1_555
C33 C14 1_555 1_555
H24 C33 1_555 1_555
C34 C9 1_555 1_555
C35 C26 1_555 1_555
C36 H25 1_555 1_555
H26 C36 1_555 1_555
H27 C36 1_555 1_555
C37 C11 1_555 1_555
H28 C37 1_555 1_555
C38 O3 1_555 1_555
H29 C38 1_555 1_555
H30 C38 1_555 1_555
Cd2 O8 1_555 1_555
Cl3 C72 1_555 1_555
Cl4 C46 1_555 1_555
O6 C74 1_555 1_555
O7 N5 1_555 1_555
O8 N5 1_555 1_555
O9 N5 1_555 1_555
O10 C52 1_555 1_555
N4 Cd2 1_555 1_555
N6 C48 1_555 1_555
C39 H31 1_555 1_555
C40 C50 1_555 1_555
C41 H32 1_555 1_555
H33 C41 1_555 1_555
H34 C41 1_555 1_555
C42 H35 1_555 1_555
C43 H36 1_555 1_555
C44 H37 1_555 1_555
C45 C58 1_555 1_555
C46 C47 1_555 1_555
C47 H38 1_555 1_555
C48 C39 1_555 1_555
H39 C48 1_555 1_555
C49 C43 1_555 1_555
H40 C49 1_555 1_555
C50 H41 1_555 1_555
C51 C39 1_555 1_555
C52 C41 1_555 1_555
H42 C52 1_555 1_555
H43 C52 1_555 1_555
C53 C51 1_555 1_555
H44 C53 1_555 1_555
C54 C50 1_555 1_555
H45 C54 1_555 1_555
C55 N4 1_555 1_555
H46 C55 1_555 1_555
C56 N4 1_555 1_555
H47 C56 1_555 1_555
C57 C42 1_555 1_555
H48 C57 1_555 1_555
C58 C43 1_555 1_555
C59 H49 1_555 1_555
C60 C59 1_555 1_555
H50 C60 1_555 1_555
C61 H51 1_555 1_555
C62 C42 1_555 1_555
C63 C44 1_555 1_555
C64 C47 1_555 1_555
C65 C45 1_555 1_555
C66 O10 1_555 1_555
C67 C55 1_555 1_555
H52 C67 1_555 1_555
C68 N6 1_555 1_555
H53 C68 1_555 1_555
C69 C40 1_555 1_555
C70 C40 1_555 1_555
H54 C70 1_555 1_555
C71 C59 1_555 1_555
C72 C60 1_555 1_555
C73 C69 1_555 1_555
H55 C73 1_555 1_555
C74 C65 1_555 1_555
C75 O6 1_555 1_555
H56 C75 1_555 1_555
H57 C75 1_555 1_555
C76 C75 1_555 1_555
H58 C76 1_555 1_555
H59 C76 1_555 1_555
H60 C76 1_555 1_555
O11 C79 1_555 1_555
N7 C77 1_555 1_555
C77 H61 1_555 1_555
H62 C77 1_555 1_555
H63 C77 1_555 1_555
C78 N7 1_555 1_555
H64 C78 1_555 1_555
H65 C78 1_555 1_555
H66 C78 1_555 1_555
C79 N7 1_555 1_555
H67 C79 1_555 1_555
C80 H68 1_555 1_555
H69 C80 1_555 1_555
H70 C80 1_555 1_555
O12 H71 1_555 1_555
C81 C80 1_555 1_555
H72 C81 1_555 1_555
H73 C81 1_555 1_555
O14 H74 1_555 1_555
C82 H75 1_555 1_555
H76 C82 1_555 1_555
H77 C82 1_555 1_555
C83 O14 1_555 1_555
H78 C83 1_555 1_555
H79 C83 1_555 1_555
C84 H80 1_555 1_555
H81 C84 1_555 1_555
C85 C84 1_555 1_555
H82 C85 1_555 1_555
H83 C85 1_555 1_555
H84 C85 1_555 1_555
O16 C84 1_555 1_555
Cd1B N3 1_555 1_555
Cd1B_2 N3A 1_555 1_555
Cl1A C14A 1_555 1_555
Cl2A C13A 1_555 1_555
O1A Cd1 1_555 1_555
O2A C7A 1_555 1_555
O3A C23A 1_555 1_555
O4A N1A 1_555 1_555
O5A N1A 1_555 1_555
N1A O1A 1_555 1_555
N2A Cd1 1_555 1_555
N3A C6A 1_555 1_555
N3B Cd1 1_555 1_555
N3C Cd1 1_555 1_555
C1A H1A 1_555 1_555
C2A H2A 1_555 1_555
H3A C2A 1_555 1_555
H4A C2A 1_555 1_555
C3A H5A 1_555 1_555
C4A N2A 1_555 1_555
H6A C4A 1_555 1_555
C5A C9A 1_555 1_555
C6A H7A 1_555 1_555
C7A C2A 1_555 1_555
H8A C7A 1_555 1_555
H9A C7A 1_555 1_555
C8A N2A 1_555 1_555
H10A C8A 1_555 1_555
C9A C12A 1_555 1_555
C10A H11A 1_555 1_555
C11A C16A 1_555 1_555
C12A H12A 1_555 1_555
C13A C15A 1_555 1_555
C14A C10A 1_555 1_555
C15A C5A 1_555 1_555
H13A C15A 1_555 1_555
C16A C6A 1_555 1_555
H14A C16A 1_555 1_555
C17A C11A 1_555 1_555
H15A C17A 1_555 1_555
C18A C4A 1_555 1_555
H16A C18A 1_555 1_555
C19A C1A 1_555 1_555
C20A C18A 1_555 1_555
C21A C12A 1_555 1_555
H17A C21A 1_555 1_555
C22A C8A 1_555 1_555
H18A C22A 1_555 1_555
C23A C3A 1_555 1_555
C24A C1A 1_555 1_555
H19A C24A 1_555 1_555
C25A H20A 1_555 1_555
C26A C31A 1_555 1_555
C27A O2A 1_555 1_555
C28A C27A 1_555 1_555
C29A C27A 1_555 1_555
H21A C29A 1_555 1_555
C30A C10A 1_555 1_555
H22A C30A 1_555 1_555
C31A C25A 1_555 1_555
C32A N3A 1_555 1_555
H23A C32A 1_555 1_555
C33A C14A 1_555 1_555
H24A C33A 1_555 1_555
C34A C9A 1_555 1_555
C35A C26A 1_555 1_555
C36A H25A 1_555 1_555
H26A C36A 1_555 1_555
H27A C36A 1_555 1_555
C37A C11A 1_555 1_555
H28A C37A 1_555 1_555
C38A O3A 1_555 1_555
H29A C38A 1_555 1_555
H30A C38A 1_555 1_555
Cd2B N6 1_555 1_555
Cd2B_2 N6A 1_555 1_555
Cl3A C72A 1_555 1_555
Cl4A C46A 1_555 1_555
O6A C74A 1_555 1_555
O7A N5A 1_555 1_555
O8A Cd2 1_555 1_555
O9A N5A 1_555 1_555
O10A C52A 1_555 1_555
N4A Cd2 1_555 1_555
N5A O8A 1_555 1_555
N6A C48A 1_555 1_555
N6B Cd2 1_555 1_555
N6C Cd2 1_555 1_555
C39A H31A 1_555 1_555
C40A C50A 1_555 1_555
C41A H32A 1_555 1_555
H33A C41A 1_555 1_555
H34A C41A 1_555 1_555
C42A H35A 1_555 1_555
C43A H36A 1_555 1_555
C44A H37A 1_555 1_555
C45A C58A 1_555 1_555
C46A C47A 1_555 1_555
C47A H38A 1_555 1_555
C48A C39A 1_555 1_555
H39A C48A 1_555 1_555
C49A C43A 1_555 1_555
H40A C49A 1_555 1_555
C50A H41A 1_555 1_555
C51A C39A 1_555 1_555
C52A C41A 1_555 1_555
H42A C52A 1_555 1_555
H43A C52A 1_555 1_555
C53A C51A 1_555 1_555
H44A C53A 1_555 1_555
C54A C50A 1_555 1_555
H45A C54A 1_555 1_555
C55A N4A 1_555 1_555
H46A C55A 1_555 1_555
C56A N4A 1_555 1_555
H47A C56A 1_555 1_555
C57A C42A 1_555 1_555
H48A C57A 1_555 1_555
C58A C43A 1_555 1_555
C59A H49A 1_555 1_555
C60A C59A 1_555 1_555
H50A C60A 1_555 1_555
C61A H51A 1_555 1_555
C62A C42A 1_555 1_555
C63A C44A 1_555 1_555
C64A C47A 1_555 1_555
C65A C45A 1_555 1_555
C66A O10A 1_555 1_555
C67A C55A 1_555 1_555
H52A C67A 1_555 1_555
C68A N6A 1_555 1_555
H53A C68A 1_555 1_555
C69A C40A 1_555 1_555
C70A C40A 1_555 1_555
H54A C70A 1_555 1_555
C71A C59A 1_555 1_555
C72A C60A 1_555 1_555
C73A C69A 1_555 1_555
H55A C73A 1_555 1_555
C74A C65A 1_555 1_555
C75A O6A 1_555 1_555
H56A C75A 1_555 1_555
H57A C75A 1_555 1_555
C76A C75A 1_555 1_555
H58A C76A 1_555 1_555
H59A C76A 1_555 1_555
H60A C76A 1_555 1_555
C3 C19 1_555 1_555
C5 C19 1_555 1_555
C13 C21 1_555 1_555
C17 C32 1_555 1_555
C20 C22 1_555 1_555
C20 C24 1_555 1_555
C23 C34 1_555 1_555
C25 C37 1_555 1_555
C26 C33 1_555 1_555
C28 C34 1_555 1_555
C28 C35 1_555 1_555
C29 C31 1_555 1_555
C30 C35 1_555 1_555
C36 C38 1_555 1_555
C44 C56 1_555 1_555
C45 C66 1_555 1_555
C46 C49 1_555 1_555
C51 C57 1_555 1_555
C53 C68 1_555 1_555
C54 C63 1_555 1_555
C58 C64 1_555 1_555
C61 C62 1_555 1_555
C61 C66 1_555 1_555
C62 C64 1_555 1_555
C63 C67 1_555 1_555
C65 C71 1_555 1_555
C69 C71 1_555 1_555
C70 C74 1_555 1_555
C72 C73 1_555 1_555
O12 C81 1_555 1_555
C82 C83 1_555 1_555
C3A C19A 1_555 1_555
C5A C19A 1_555 1_555
C13A C21A 1_555 1_555
C17A C32A 1_555 1_555
C20A C22A 1_555 1_555
C20A C24A 1_555 1_555
C23A C34A 1_555 1_555
C25A C37A 1_555 1_555
C26A C33A 1_555 1_555
C28A C34A 1_555 1_555
C28A C35A 1_555 1_555
C29A C31A 1_555 1_555
C30A C35A 1_555 1_555
C36A C38A 1_555 1_555
C44A C56A 1_555 1_555
C45A C66A 1_555 1_555
C46A C49A 1_555 1_555
C51A C57A 1_555 1_555
C53A C68A 1_555 1_555
C54A C63A 1_555 1_555
C58A C64A 1_555 1_555
C61A C62A 1_555 1_555
C61A C66A 1_555 1_555
C62A C64A 1_555 1_555
C63A C67A 1_555 1_555
C65A C71A 1_555 1_555
C69A C71A 1_555 1_555
C70A C74A 1_555 1_555
C72A C73A 1_555 1_555

#END
