
#######################################################################
#
#                 Cambridge Crystallographic Data Centre
#                                CCDC 
#
#######################################################################
#
# If this CIF has been generated from an entry in the Cambridge 
# Structural Database, then it will include bibliographic, chemical, 
# crystal, experimental, refinement or atomic coordinate data resulting 
# from the CCDC's data processing and validation procedures.
#
#######################################################################

data_DEQDAF
_symmetry_cell_setting           triclinic
_symmetry_space_group_name_H-M   'P 1'
_symmetry_Int_Tables_number      1
_space_group_name_Hall           'P 1'
loop_
_symmetry_equiv_pos_site_id
_symmetry_equiv_pos_as_xyz
1 x,y,z
_cell_length_a                   11.1367(15)
_cell_length_b                   15.470(2)
_cell_length_c                   17.573(3)
_cell_angle_alpha                83.056(2)
_cell_angle_beta                 88.764(2)
_cell_angle_gamma                87.531(2)
_cell_volume                     3002.15
loop_
_atom_site_label
_atom_site_type_symbol
_atom_site_fract_x
_atom_site_fract_y
_atom_site_fract_z
Zn1 Zn -0.03392(11) -0.16235(8) 0.89229(7)
Cl1 Cl -0.1604(4) 0.2068(4) 0.3670(3)
Cl2 Cl 0.2507(11) 0.7770(5) 0.3225(6)
O1 O 0.5047(11) 0.3506(10) 0.4700(9)
O2 O 0.4984(8) 0.2847(7) 0.2929(7)
O3 O -0.1578(15) -0.1698(12) 0.7911(10)
O4 O -0.1426(13) -0.0482(11) 0.9353(9)
O5 O 0.1143(14) -0.1687(8) 0.9832(8)
O6 O 0.0696(18) -0.2830(11) 0.8470(12)
N1 N 0.0722(14) -0.0613(13) 0.8074(8)
N2 N 0.8586(15) 0.7431(9) -0.0263(10)
N3 N -0.290(2) -0.1167(17) 0.7126(16)
N4 N -0.2670(14) 0.0571(12) 0.9775(11)
N5 N 0.272(2) -0.2503(18) 1.0417(13)
N6 N 0.078(4) -0.374(3) 0.750(3)
C1 C 0.1855(17) -0.0828(13) 0.7882(10)
H1 H 0.2273 -0.1342 0.8102
C2 C 0.2377(15) -0.0210(11) 0.7315(9)
H2 H 0.3188 -0.0332 0.7170
C3 C 0.1849(15) 0.0527(11) 0.6960(9)
C4 C 0.0659(13) 0.0629(11) 0.7231(11)
H3 H 0.0185 0.1112 0.7000
C5 C 0.0145(15) 0.0095(13) 0.7793(12)
H4 H -0.0635 0.0235 0.7983
C6 C 0.2369(15) 0.1088(10) 0.6393(10)
H5 H 0.3222 0.1090 0.6383
C7 C 0.1788(14) 0.1645(12) 0.5840(9)
H6 H 0.0935 0.1647 0.5861
C8 C 0.2322(12) 0.2240(9) 0.5219(8)
C9 C 0.1628(12) 0.2498(10) 0.4547(8)
C10 C 0.0430(14) 0.2200(11) 0.4446(11)
H7 H 0.0045 0.1832 0.4840
C11 C -0.0135(13) 0.2465(10) 0.3765(10)
C12 C 0.0342(14) 0.2968(11) 0.3143(9)
H8 H -0.0096 0.3120 0.2685
C13 C 0.1521(14) 0.3246(11) 0.3222(9)
H9 H 0.1886 0.3583 0.2799
C14 C 0.2174(12) 0.3047(10) 0.3899(9)
C15 C 0.3289(14) 0.3347(11) 0.4009(10)
C16 C 0.3896(13) 0.3130(11) 0.4673(8)
C17 C 0.3408(13) 0.2527(11) 0.5271(9)
H10 H 0.3873 0.2333 0.5710
C18 C 0.5777(14) 0.3180(12) 0.5355(9)
H11 H 0.5901 0.2539 0.5395
H12 H 0.5400 0.3338 0.5837
C19 C 0.6909(16) 0.3615(18) 0.5192(13)
H13 H 0.7470 0.3432 0.5608
H14 H 0.6760 0.4247 0.5150
H15 H 0.7256 0.3456 0.4709
C20 C 0.5874(17) 0.1487(14) 0.2551(13)
H16 H 0.6447 0.1271 0.2179
H17 H 0.5083 0.1254 0.2486
H18 H 0.6153 0.1297 0.3072
C21 C 0.5777(16) 0.2516(10) 0.2414(9)
H19 H 0.6581 0.2750 0.2468
H20 H 0.5505 0.2706 0.1886
C22 C 0.3867(13) 0.3993(10) 0.3377(9)
C23 C 0.3540(15) 0.4890(11) 0.3332(10)
C24 C 0.2654(18) 0.5198(14) 0.3785(10)
H21 H 0.2232 0.4795 0.4132
C25 C 0.234(3) 0.6096(15) 0.3758(13)
H22 H 0.1745 0.6304 0.4094
C26 C 0.295(3) 0.6673(15) 0.321(2)
C27 C 0.374(2) 0.6436(13) 0.2822(12)
H23 H 0.4116 0.6872 0.2482
C28 C 0.4211(16) 0.5521(10) 0.2810(9)
C29 C 0.5141(14) 0.5204(11) 0.2372(10)
C30 C 0.5406(14) 0.4356(11) 0.2383(9)
H24 H 0.6026 0.4163 0.2055
C31 C 0.4746(12) 0.3713(9) 0.2898(8)
C32 C 0.5824(17) 0.5775(12) 0.1847(10)
H25 H 0.5829 0.6360 0.1961
C33 C 0.6456(14) 0.5619(12) 0.1221(12)
H26 H 0.6449 0.5039 0.1096
C34 C 0.809(3) 0.6696(17) -0.0492(16)
H27 H 0.8171 0.6583 -0.1011
C35 C 0.749(3) 0.6138(18) 0.0024(16)
H28 H 0.7279 0.5604 -0.0145
C36 C 0.7182(17) 0.6244(12) 0.0684(11)
C37 C 0.777(2) 0.6902(16) 0.0990(15)
H29 H 0.7688 0.6956 0.1521
C38 C 0.850(3) 0.748(2) 0.0522(14)
H30 H 0.8920 0.7911 0.0741
C39 C -0.244(2) -0.1402(17) 0.7746(16)
H31 H -0.2953 -0.1305 0.8169
C40 C -0.417(4) -0.080(3) 0.679(3)
H32 H -0.4794 -0.0894 0.7194
H33 H -0.4372 -0.1109 0.6359
H34 H -0.4133 -0.0176 0.6619
C41 C -0.162(6) -0.053(5) 0.675(4)
H35 H -0.0913 -0.0707 0.7063
H36 H -0.1815 0.0093 0.6774
H37 H -0.1452 -0.0626 0.6219
C42 C -0.216(2) -0.0266(18) 0.9769(14)
H38 H -0.2451 -0.0704 1.0147
C43 C -0.348(3) 0.084(2) 1.0329(15)
H39 H -0.3642 0.0337 1.0711
H40 H -0.4226 0.1061 1.0084
H41 H -0.3124 0.1293 1.0582
C44 C -0.233(2) 0.1269(17) 0.9249(14)
H42 H -0.1608 0.1101 0.8968
H43 H -0.2173 0.1768 0.9521
H44 H -0.2987 0.1430 0.8886
C45 C 0.215(2) -0.2084(11) 0.9857(15)
H45 H 0.2558 -0.2070 0.9376
C46 C 0.216(3) -0.263(3) 1.124(2)
H46 H 0.1377 -0.2311 1.1243
H47 H 0.2693 -0.2412 1.1601
H48 H 0.2040 -0.3253 1.1394
C47 C 0.388(3) -0.289(2) 1.0347(18)
H49 H 0.4279 -0.2623 0.9881
H50 H 0.3814 -0.3518 1.0317
H51 H 0.4354 -0.2812 1.0795
C48 C 0.029(6) -0.306(5) 0.785(3)
H52 H -0.0389 -0.2749 0.7620
C49 C 0.165(3) -0.419(3) 0.788(2)
H53 H 0.1722 -0.3992 0.8387
H54 H 0.2415 -0.4115 0.7597
H55 H 0.1471 -0.4813 0.7948
C50 C 0.087(7) -0.395(5) 0.678(3)
H56 H 0.0205 -0.3656 0.6479
H57 H 0.0820 -0.4581 0.6793
H58 H 0.1635 -0.3762 0.6551
Zn1_2 Zn 0.96608(11) 0.83765(8) -0.10771(7)
N2_2 N -0.1414(15) -0.2569(9) 0.9737(10)
Zn2 Zn -1.21541(12) -0.17427(8) 0.34962(8)
Cl3 Cl -0.5109(5) -0.0810(4) -0.0860(4)
Cl4 Cl -1.0164(5) 0.4506(5) -0.5086(3)
Cl5 Cl -1.4224(6) -0.1327(4) 0.2038(4)
O7 O -0.9482(9) 0.3530(7) -0.1469(6)
O8 O -0.5796(10) 0.3386(9) -0.1463(8)
O9 O -1.378(2) -0.1944(13) 0.2652(13)
O10 O -1.3079(13) -0.0605(10) 0.4041(9)
O11 O -1.060(2) -0.1762(15) 0.4400(13)
O12 O -1.140(2) -0.2982(13) 0.3033(13)
O13 O -1.313(2) -0.1204(19) 0.1509(16)
O14 O -1.523(2) -0.1646(14) 0.1674(17)
O15 O -1.436(2) -0.0486(12) 0.2232(16)
N7 N -1.1197(17) -0.0865(16) 0.2575(11)
N8 N -1.4630(17) 0.0304(12) 0.4371(11)
N9 N -1.119(2) -0.4396(15) 0.2871(16)
C51 C -1.1305(16) 0.0046(11) 0.2575(11)
H59 H -1.1658 0.0290 0.3002
C52 C -1.0900(14) 0.0570(10) 0.1959(9)
H60 H -1.1061 0.1179 0.1952
C53 C -1.0274(15) 0.0295(10) 0.1340(9)
C54 C -1.013(2) -0.0621(12) 0.1420(13)
H61 H -0.9692 -0.0883 0.1031
C55 C -1.0577(18) -0.1153(12) 0.2028(13)
H62 H -1.0423 -0.1764 0.2047
C56 C -0.9833(13) 0.0876(10) 0.0731(9)
H63 H -0.9963 0.1478 0.0780
C57 C -0.9235(13) 0.0687(11) 0.0072(9)
H64 H -0.9147 0.0088 0.0002
C58 C -0.8734(14) 0.1290(10) -0.0519(8)
C59 C -0.7676(12) 0.1123(10) -0.0910(9)
C60 C -0.6931(16) 0.0339(12) -0.0701(12)
H65 H -0.7184 -0.0075 -0.0292
C61 C -0.5884(16) 0.0187(11) -0.1079(9)
C62 C -0.5486(16) 0.0759(12) -0.1679(12)
H66 H -0.4805 0.0609 -0.1979
C63 C -0.6091(14) 0.1558(11) -0.1841(10)
H67 H -0.5753 0.1982 -0.2211
C64 C -0.7173(12) 0.1764(11) -0.1486(9)
C65 C -0.7855(12) 0.2578(10) -0.1665(8)
C66 C -0.8909(13) 0.2733(10) -0.1288(10)
C67 C -0.9379(13) 0.2121(10) -0.0701(8)
H68 H -1.0100 0.2253 -0.0433
C68 C -1.0732(16) 0.3579(15) -0.1310(14)
H69 H -1.0894 0.3395 -0.0759
H70 H -1.1156 0.3192 -0.1614
C69 C -1.118(2) 0.4565(15) -0.153(2)
H71 H -1.2027 0.4637 -0.1376
H72 H -1.1104 0.4718 -0.2089
H73 H -1.0695 0.4948 -0.1272
C70 C -0.428(3) 0.338(3) -0.051(2)
H74 H -0.3493 0.3588 -0.0388
H75 H -0.4252 0.2740 -0.0423
H76 H -0.4899 0.3611 -0.0180
C71 C -0.4575(18) 0.3699(14) -0.1398(14)
H77 H -0.4564 0.4342 -0.1510
H78 H -0.4000 0.3432 -0.1748
C72 C -0.7351(13) 0.3244(10) -0.2287(8)
C73 C -0.8007(13) 0.3515(10) -0.2964(10)
C74 C -0.9159(15) 0.3211(12) -0.3136(12)
H79 H -0.9499 0.2778 -0.2776
C75 C -0.9775(14) 0.3480(12) -0.3747(10)
H80 H -1.0530 0.3235 -0.3806
C76 C -0.9375(14) 0.4112(12) -0.4316(12)
C77 C -0.8235(16) 0.4464(12) -0.4224(10)
H81 H -0.7934 0.4901 -0.4597
C78 C -0.7528(14) 0.4143(11) -0.3541(10)
C79 C -0.6401(13) 0.4512(12) -0.3420(11)
C80 C -0.5788(15) 0.4244(12) -0.2704(12)
H82 H -0.5042 0.4481 -0.2606
C81 C -0.6312(16) 0.3632(13) -0.2162(11)
C82 C -0.5874(15) 0.5100(13) -0.3998(16)
H83 H -0.6219 0.5151 -0.4492
C83 C -0.507(5) 0.552(5) -0.3926(19)
H84 H -0.4657 0.5434 -0.3454
N10 N -0.3206(19) 0.7359(11) -0.5699(16)
C84 C -0.4016(19) 0.6799(15) -0.5947(12)
H85 H -0.4108 0.6773 -0.6480
C85 C -0.4692(19) 0.6276(15) -0.5416(14)
H86 H -0.5246 0.5893 -0.5586
C86 C -0.456(3) 0.6314(18) -0.4636(13)
C87 C -0.375(3) 0.687(2) -0.4388(13)
H87 H -0.3658 0.6901 -0.3855
C88 C -0.307(3) 0.7397(17) -0.4919(17)
H88 H -0.2519 0.7781 -0.4750
C89 C -1.413(2) -0.0397(16) 0.4082(15)
H89 H -1.4667 -0.0772 0.3887
C90 C -1.592(3) 0.053(3) 0.424(2)
H90 H -1.6149 0.1044 0.4495
H91 H -1.6394 0.0037 0.4462
H92 H -1.6060 0.0650 0.3693
C91 C -1.394(2) 0.082(2) 0.4771(16)
H93 H -1.3100 0.0594 0.4773
H94 H -1.4243 0.0801 0.5299
H95 H -1.3980 0.1420 0.4522
C92 C -1.165(2) -0.367(2) 0.3193(19)
H96 H -1.2242 -0.3773 0.3589
C93 C -1.182(3) -0.525(2) 0.328(2)
H97 H -1.1518 -0.5764 0.3044
H98 H -1.2694 -0.5184 0.3217
H99 H -1.1637 -0.5333 0.3827
C94 C -1.016(4) -0.440(3) 0.245(2)
H100 H -0.9955 -0.3804 0.2268
H101 H -1.0269 -0.4725 0.2011
H102 H -0.9511 -0.4688 0.2769
Zn2_2 Zn -0.21541(12) 0.82573(8) -0.65038(8)
N10_2 N -1.3206(19) -0.2641(11) 0.4301(16)
Cl6 Cl 0.7310(5) -0.8295(4) 0.6915(4)
O16 O 0.831(5) -0.757(4) 0.739(3)
O17 O 0.7448(18) -0.9073(15) 0.7449(14)
O18 O 0.7983(15) -0.8267(17) 0.6240(11)
O19 O 0.607(2) -0.8403(17) 0.6737(14)
Cl7 Cl 0.8578(5) 0.3340(4) 0.1038(3)
O20 O 0.843(3) 0.403(2) 0.0456(18)
O21 O 0.795(2) 0.2637(15) 0.0894(18)
O22 O 0.9793(15) 0.3050(14) 0.1150(13)
O23 O 0.8179(15) 0.3634(15) 0.1715(8)
Cl8 Cl -1.5033(10) -0.3207(11) 0.8131(7)
O24 O -1.614(3) -0.276(2) 0.832(2)
O25 O -1.422(3) -0.290(2) 0.8573(19)
O26 O -1.392(6) -0.362(4) 0.781(4)
O27 O -1.522(7) -0.401(6) 0.864(5)
O28 O 1.197(2) -0.016(2) 0.3077(17)
N11 N 1.2697(16) 0.0730(17) 0.2004(13)
C95 C 1.246(3) -0.0027(19) 0.2432(18)
H103 H 1.2710 -0.0538 0.2211
C96 C 1.225(2) 0.1532(18) 0.2341(19)
H104 H 1.2423 0.2050 0.1985
H105 H 1.2650 0.1561 0.2828
H106 H 1.1378 0.1508 0.2433
C97 C 1.339(2) 0.082(2) 0.1268(16)
H107 H 1.3624 0.0236 0.1133
H108 H 1.4112 0.1142 0.1323
H109 H 1.2890 0.1128 0.0863
O29 O 1.405(5) -0.089(4) 0.556(3)
N12 N 1.2890(16) -0.2257(11) 0.6083(13)
C98 C 1.247(4) -0.285(3) 0.542(3)
H110 H 1.2182 -0.2469 0.4969
H111 H 1.1824 -0.3229 0.5624
H112 H 1.3158 -0.3216 0.5267
C99 C 1.169(4) -0.207(3) 0.647(3)
H113 H 1.1786 -0.1635 0.6822
H114 H 1.1400 -0.2605 0.6749
H115 H 1.1106 -0.1838 0.6075
C100 C 1.355(5) -0.175(4) 0.536(4)
H116 H 1.3627 -0.1948 0.4866
O30 O 0.254(2) -0.5282(17) 0.1237(15)
H117 H 0.2931 -0.5761 0.1304
C101 C 0.177(5) -0.528(3) 0.063(3)
H118 H 0.1208 -0.5758 0.0770
H119 H 0.2259 -0.5452 0.0188
C102 C 0.099(3) -0.447(2) 0.0314(18)
H120 H 0.0601 -0.4583 -0.0159
H121 H 0.1494 -0.3970 0.0208
H122 H 0.0367 -0.4354 0.0697
O31 O -0.120(6) -0.339(4) 0.567(4)
O32 O -0.955(4) -0.060(3) 0.498(3)
O33? O -0.925(4) -0.081(3) 0.410(3)
O34? O -0.167(4) -0.401(3) 0.647(3)
loop_
_geom_bond_atom_site_label_1
_geom_bond_atom_site_label_2
_geom_bond_site_symmetry_1
_geom_bond_site_symmetry_2
Zn1 O3 1_555 1_555
Cl1 C11 1_555 1_555
Cl2 C26 1_555 1_555
O1 C16 1_555 1_555
O2 C21 1_555 1_555
O3 C39 1_555 1_555
O4 Zn1 1_555 1_555
O5 Zn1 1_555 1_555
O6 Zn1 1_555 1_555
N1 Zn1 1_555 1_555
N2 C34 1_555 1_555
N3 C39 1_555 1_555
N4 C42 1_555 1_555
N5 C45 1_555 1_555
N6 C48 1_555 1_555
C1 N1 1_555 1_555
H1 C1 1_555 1_555
C2 C1 1_555 1_555
H2 C2 1_555 1_555
C3 C2 1_555 1_555
C4 C3 1_555 1_555
H3 C4 1_555 1_555
C5 N1 1_555 1_555
H4 C5 1_555 1_555
C6 C3 1_555 1_555
H5 C6 1_555 1_555
C7 C6 1_555 1_555
H6 C7 1_555 1_555
C8 C7 1_555 1_555
C9 C8 1_555 1_555
C10 C9 1_555 1_555
H7 C10 1_555 1_555
C11 C10 1_555 1_555
C12 C11 1_555 1_555
H8 C12 1_555 1_555
C13 C12 1_555 1_555
H9 C13 1_555 1_555
C14 C9 1_555 1_555
C15 C14 1_555 1_555
C16 C15 1_555 1_555
C17 C8 1_555 1_555
H10 C17 1_555 1_555
C18 O1 1_555 1_555
H11 C18 1_555 1_555
H12 C18 1_555 1_555
C19 C18 1_555 1_555
H13 C19 1_555 1_555
H14 C19 1_555 1_555
H15 C19 1_555 1_555
C20 H16 1_555 1_555
H17 C20 1_555 1_555
H18 C20 1_555 1_555
C21 C20 1_555 1_555
H19 C21 1_555 1_555
H20 C21 1_555 1_555
C22 C15 1_555 1_555
C23 C22 1_555 1_555
C24 C23 1_555 1_555
H21 C24 1_555 1_555
C25 C24 1_555 1_555
H22 C25 1_555 1_555
C26 C25 1_555 1_555
C27 C26 1_555 1_555
H23 C27 1_555 1_555
C28 C23 1_555 1_555
C29 C28 1_555 1_555
C30 C29 1_555 1_555
H24 C30 1_555 1_555
C31 O2 1_555 1_555
C32 C29 1_555 1_555
H25 C32 1_555 1_555
C33 C32 1_555 1_555
H26 C33 1_555 1_555
C34 H27 1_555 1_555
C35 C34 1_555 1_555
H28 C35 1_555 1_555
C36 C33 1_555 1_555
C37 C36 1_555 1_555
H29 C37 1_555 1_555
C38 N2 1_555 1_555
H30 C38 1_555 1_555
C39 H31 1_555 1_555
C40 N3 1_555 1_555
H32 C40 1_555 1_555
H33 C40 1_555 1_555
H34 C40 1_555 1_555
C41 N3 1_555 1_555
H35 C41 1_555 1_555
H36 C41 1_555 1_555
H37 C41 1_555 1_555
C42 O4 1_555 1_555
H38 C42 1_555 1_555
C43 N4 1_555 1_555
H39 C43 1_555 1_555
H40 C43 1_555 1_555
H41 C43 1_555 1_555
C44 N4 1_555 1_555
H42 C44 1_555 1_555
H43 C44 1_555 1_555
H44 C44 1_555 1_555
C45 O5 1_555 1_555
H45 C45 1_555 1_555
C46 N5 1_555 1_555
H46 C46 1_555 1_555
H47 C46 1_555 1_555
H48 C46 1_555 1_555
C47 N5 1_555 1_555
H49 C47 1_555 1_555
H50 C47 1_555 1_555
H51 C47 1_555 1_555
C48 O6 1_555 1_555
H52 C48 1_555 1_555
C49 N6 1_555 1_555
H53 C49 1_555 1_555
H54 C49 1_555 1_555
H55 C49 1_555 1_555
C50 N6 1_555 1_555
H56 C50 1_555 1_555
H57 C50 1_555 1_555
H58 C50 1_555 1_555
Zn2 O9 1_555 1_555
Cl3 C61 1_555 1_555
Cl4 C76 1_555 1_555
Cl5 O9 1_555 1_555
O7 C66 1_555 1_555
O8 C71 1_555 1_555
O10 Zn2 1_555 1_555
O11 Zn2 1_555 1_555
O12 Zn2 1_555 1_555
O13 Cl5 1_555 1_555
O14 Cl5 1_555 1_555
O15 Cl5 1_555 1_555
N7 Zn2 1_555 1_555
N8 C89 1_555 1_555
N9 C92 1_555 1_555
C51 N7 1_555 1_555
H59 C51 1_555 1_555
C52 C51 1_555 1_555
H60 C52 1_555 1_555
C53 C52 1_555 1_555
C54 C53 1_555 1_555
H61 C54 1_555 1_555
C55 N7 1_555 1_555
H62 C55 1_555 1_555
C56 C53 1_555 1_555
H63 C56 1_555 1_555
C57 C56 1_555 1_555
H64 C57 1_555 1_555
C58 C57 1_555 1_555
C59 C58 1_555 1_555
C60 C59 1_555 1_555
H65 C60 1_555 1_555
C61 C60 1_555 1_555
C62 C61 1_555 1_555
H66 C62 1_555 1_555
C63 C62 1_555 1_555
H67 C63 1_555 1_555
C64 C59 1_555 1_555
C65 C64 1_555 1_555
C66 C65 1_555 1_555
C67 C58 1_555 1_555
H68 C67 1_555 1_555
C68 O7 1_555 1_555
H69 C68 1_555 1_555
H70 C68 1_555 1_555
C69 C68 1_555 1_555
H71 C69 1_555 1_555
H72 C69 1_555 1_555
H73 C69 1_555 1_555
C70 H74 1_555 1_555
H75 C70 1_555 1_555
H76 C70 1_555 1_555
C71 C70 1_555 1_555
H77 C71 1_555 1_555
H78 C71 1_555 1_555
C72 C65 1_555 1_555
C73 C72 1_555 1_555
C74 C73 1_555 1_555
H79 C74 1_555 1_555
C75 C74 1_555 1_555
H80 C75 1_555 1_555
C76 C75 1_555 1_555
C77 C76 1_555 1_555
H81 C77 1_555 1_555
C78 C73 1_555 1_555
C79 C78 1_555 1_555
C80 C79 1_555 1_555
H82 C80 1_555 1_555
C81 O8 1_555 1_555
C82 C79 1_555 1_555
H83 C82 1_555 1_555
C83 C82 1_555 1_555
H84 C83 1_555 1_555
N10 C84 1_555 1_555
C84 H85 1_555 1_555
C85 C84 1_555 1_555
H86 C85 1_555 1_555
C86 C83 1_555 1_555
C87 C86 1_555 1_555
H87 C87 1_555 1_555
C88 N10 1_555 1_555
H88 C88 1_555 1_555
C89 O10 1_555 1_555
H89 C89 1_555 1_555
C90 N8 1_555 1_555
H90 C90 1_555 1_555
H91 C90 1_555 1_555
H92 C90 1_555 1_555
C91 N8 1_555 1_555
H93 C91 1_555 1_555
H94 C91 1_555 1_555
H95 C91 1_555 1_555
C92 O12 1_555 1_555
H96 C92 1_555 1_555
C93 N9 1_555 1_555
H97 C93 1_555 1_555
H98 C93 1_555 1_555
H99 C93 1_555 1_555
C94 N9 1_555 1_555
H100 C94 1_555 1_555
H101 C94 1_555 1_555
H102 C94 1_555 1_555
Cl6 O16 1_555 1_555
O17 Cl6 1_555 1_555
O18 Cl6 1_555 1_555
O19 Cl6 1_555 1_555
Cl7 O20 1_555 1_555
O21 Cl7 1_555 1_555
O22 Cl7 1_555 1_555
O23 Cl7 1_555 1_555
Cl8 O24 1_555 1_555
O25 Cl8 1_555 1_555
O26 Cl8 1_555 1_555
O27 Cl8 1_555 1_555
O28 C95 1_555 1_555
N11 C95 1_555 1_555
C95 H103 1_555 1_555
C96 N11 1_555 1_555
H104 C96 1_555 1_555
H105 C96 1_555 1_555
H106 C96 1_555 1_555
C97 N11 1_555 1_555
H107 C97 1_555 1_555
H108 C97 1_555 1_555
H109 C97 1_555 1_555
O29 C100 1_555 1_555
N12 C98 1_555 1_555
C98 H110 1_555 1_555
H111 C98 1_555 1_555
H112 C98 1_555 1_555
C99 N12 1_555 1_555
H113 C99 1_555 1_555
H114 C99 1_555 1_555
H115 C99 1_555 1_555
C100 N12 1_555 1_555
H116 C100 1_555 1_555
O30 H117 1_555 1_555
C101 O30 1_555 1_555
H118 C101 1_555 1_555
H119 C101 1_555 1_555
C102 C101 1_555 1_555
H120 C102 1_555 1_555
H121 C102 1_555 1_555
H122 C102 1_555 1_555
Zn1_2 N2 1_555 1_555
N2_2 Zn1 1_555 1_555
Zn2_2 N10 1_555 1_555
N10_2 Zn2 1_555 1_555
C4 C5 1_555 1_555
C13 C14 1_555 1_555
C16 C17 1_555 1_555
C22 C31 1_555 1_555
C27 C28 1_555 1_555
C30 C31 1_555 1_555
C35 C36 1_555 1_555
C37 C38 1_555 1_555
C54 C55 1_555 1_555
C63 C64 1_555 1_555
C66 C67 1_555 1_555
C72 C81 1_555 1_555
C77 C78 1_555 1_555
C80 C81 1_555 1_555
C85 C86 1_555 1_555
C87 C88 1_555 1_555

#END
