
#######################################################################
#
#                 Cambridge Crystallographic Data Centre
#                                CCDC 
#
#######################################################################
#
# If this CIF has been generated from an entry in the Cambridge 
# Structural Database, then it will include bibliographic, chemical, 
# crystal, experimental, refinement or atomic coordinate data resulting 
# from the CCDC's data processing and validation procedures.
#
#######################################################################

data_DEQDEJ
_symmetry_cell_setting           triclinic
_symmetry_space_group_name_H-M   'P 1'
_symmetry_Int_Tables_number      1
_space_group_name_Hall           'P 1'
loop_
_symmetry_equiv_pos_site_id
_symmetry_equiv_pos_as_xyz
1 x,y,z
_cell_length_a                   11.151(2)
_cell_length_b                   15.498(2)
_cell_length_c                   17.514(4)
_cell_angle_alpha                82.93(2)
_cell_angle_beta                 89.19(3)
_cell_angle_gamma                87.64(3)
_cell_volume                     3001.05
loop_
_atom_site_label
_atom_site_type_symbol
_atom_site_fract_x
_atom_site_fract_y
_atom_site_fract_z
Cd1 Cd 0.65015(6) 0.39910(4) 0.52639(4)
Cl1 Cl -0.0584(6) 0.3414(2) 0.9590(3)
Cl2 Cl -0.4762(3) -0.2292(2) 1.00066(18)
O1 O 0.1807(5) -0.1556(4) 0.9274(4)
O2 O 0.1869(6) -0.0898(5) 1.1038(4)
O3 O 0.7962(9) 0.3915(6) 0.6210(6)
O4 O 0.7513(10) 0.2842(7) 0.4819(8)
O5 O 0.5237(14) 0.3937(7) 0.4259(6)
O6 O 0.5437(9) 0.5181(5) 0.5688(5)
N1 N 0.5393(9) 0.3024(6) 0.6077(6)
N2 N -0.2416(9) -0.5027(6) 1.4447(5)
N3 N 0.9545(11) 0.3134(8) 0.6771(7)
N4 N 0.777(4) 0.186(2) 0.3870(14)
N5 N 0.386(2) 0.4439(16) 0.3368(13)
N6 N 0.4149(9) 0.6174(7) 0.6112(6)
C1 C 0.5268(15) 0.3090(9) 0.6807(8)
H1 H 0.5668 0.3542 0.7007
C2 C 0.4585(13) 0.2542(10) 0.7312(8)
H2 H 0.4502 0.2643 0.7835
C3 C 0.4031(9) 0.1857(6) 0.7063(6)
C4 C 0.4293(13) 0.1721(8) 0.6299(8)
H3 H 0.4023 0.1224 0.6093
C5 C 0.4968(12) 0.2344(9) 0.5850(7)
H4 H 0.5124 0.2253 0.5331
C6 C 0.3299(9) 0.1252(6) 0.7555(6)
H5 H 0.3250 0.0680 0.7419
C7 C 0.2693(8) 0.1438(6) 0.8183(5)
H6 H 0.2724 0.2014 0.8312
C8 C 0.1981(8) 0.0818(6) 0.8689(5)
C9 C 0.1045(8) 0.1136(6) 0.9166(5)
C10 C 0.0733(12) 0.2033(7) 0.9164(7)
H7 H 0.1157 0.2457 0.8840
C11 C -0.0200(18) 0.2292(8) 0.9640(10)
C12 C -0.0868(14) 0.1699(8) 1.0123(8)
H8 H -0.1526 0.1884 1.0422
C13 C -0.0526(11) 0.0855(7) 1.0141(6)
H9 H -0.0946 0.0450 1.0488
C14 C 0.0406(8) 0.0511(6) 0.9689(5)
C15 C 0.0708(8) -0.0366(6) 0.9728(4)
C16 C 0.1594(8) -0.0657(5) 0.9233(5)
C17 C 0.2205(8) -0.0052(6) 0.8713(5)
H10 H 0.2788 -0.0259 0.8372
C18 C 0.2621(8) -0.1874(6) 0.8725(6)
H11 H 0.3424 -0.1636 0.8770
H12 H 0.2327 -0.1698 0.8196
C19 C 0.2689(10) -0.2839(6) 0.8897(7)
H13 H 0.3227 -0.3083 0.8524
H14 H 0.1886 -0.3065 0.8862
H15 H 0.2999 -0.3004 0.9417
C20 C 0.3749(10) -0.0744(9) 1.1536(8)
H16 H 0.4285 -0.0922 1.1970
H17 H 0.3620 -0.0110 1.1474
H18 H 0.4112 -0.0924 1.1065
C21 C 0.2591(10) -0.1158(7) 1.1684(6)
H19 H 0.2711 -0.1799 1.1760
H20 H 0.2205 -0.0971 1.2152
C22 C 0.0152(8) -0.1017(6) 1.0348(6)
C23 C -0.1008(7) -0.1333(6) 1.0258(5)
C24 C -0.1660(10) -0.1122(6) 0.9571(5)
H21 H -0.1292 -0.0776 0.9154
C25 C -0.2813(9) -0.1393(6) 0.9475(5)
H22 H -0.3247 -0.1229 0.9013
C26 C -0.3309(8) -0.1936(6) 1.0114(5)
C27 C -0.2714(8) -0.2175(6) 1.0786(6)
H23 H -0.3090 -0.2529 1.1194
C28 C -0.1523(7) -0.1894(5) 1.0878(5)
C29 C -0.0844(7) -0.2147(5) 1.1554(5)
C30 C 0.0286(8) -0.1820(6) 1.1611(5)
H24 H 0.0739 -0.1976 1.2066
C31 C 0.0768(8) -0.1259(6) 1.1001(5)
C32 C -0.1363(8) -0.2735(6) 1.2194(5)
H25 H -0.2212 -0.2721 1.2248
C33 C -0.0724(9) -0.3293(6) 1.2711(5)
H26 H 0.0127 -0.3310 1.2679
C34 C -0.2988(8) -0.4322(7) 1.4146(6)
H27 H -0.3779 -0.4205 1.4326
C35 C -0.2496(8) -0.3721(6) 1.3567(5)
H28 H -0.2954 -0.3223 1.3349
C36 C -0.1318(10) -0.3875(7) 1.3322(6)
C37 C -0.0724(9) -0.4624(6) 1.3654(5)
H29 H 0.0084 -0.4756 1.3515
C38 C -0.1335(10) -0.5186(7) 1.4200(6)
H30 H -0.0934 -0.5716 1.4402
C39 C 0.8949(13) 0.3480(8) 0.6193(8)
H31 H 0.9274 0.3407 0.5699
C40 C 0.903(2) 0.3109(15) 0.7555(10)
H32 H 0.8261 0.3436 0.7535
H33 H 0.9586 0.3371 0.7883
H34 H 0.8914 0.2503 0.7769
C41 C 1.0728(14) 0.2668(10) 0.6712(9)
H35 H 1.1009 0.2745 0.6176
H36 H 1.0647 0.2047 0.6883
H37 H 1.1310 0.2905 0.7037
C42 C 0.747(4) 0.2631(15) 0.430(3)
H38 H 0.7099 0.3081 0.3958
C43 C 0.8645(18) 0.1429(13) 0.460(3)
H39 H 0.8570 0.1790 0.5022
H40 H 0.9482 0.1405 0.4425
H41 H 0.8396 0.0839 0.4784
C44 C 0.730(5) 0.165(4) 0.321(3)
H42 H 0.6674 0.2084 0.3022
H43 H 0.6956 0.1075 0.3303
H44 H 0.7939 0.1639 0.2817
C45 C 0.4292(17) 0.4299(14) 0.4027(18)
H45 H 0.3803 0.4512 0.4416
C46 C 0.485(2) 0.485(2) 0.2889(15)
H46 H 0.5612 0.4526 0.3021
H47 H 0.4917 0.5454 0.2990
H48 H 0.4686 0.4836 0.2343
C47 C 0.261(2) 0.4873(16) 0.3201(19)
H49 H 0.2016 0.4578 0.3547
H50 H 0.2399 0.4832 0.2666
H51 H 0.2622 0.5487 0.3284
C48 C 0.4640(12) 0.5374(9) 0.6108(8)
H52 H 0.4333 0.4924 0.6466
C49 C 0.3236(14) 0.6340(11) 0.6660(9)
H53 H 0.3043 0.5793 0.6971
H54 H 0.2517 0.6592 0.6390
H55 H 0.3523 0.6748 0.6995
C50 C 0.4529(13) 0.6901(9) 0.5597(9)
H56 H 0.5159 0.6707 0.5253
H57 H 0.4844 0.7337 0.5892
H58 H 0.3845 0.7157 0.5291
Cd1_2 Cd -0.34985(6) -0.60090(4) 1.52639(4)
N2_2 N 0.7584(9) 0.4973(6) 0.4447(5)
Cd2 Cd -0.52951(7) 0.38743(4) 0.98449(4)
Cl3 Cl 0.1738(3) 0.4793(2) 0.5471(3)
Cl4 Cl -0.3327(3) 1.0160(3) 0.12481(17)
Cl5 Cl -0.7363(3) 0.42951(18) 0.8373(2)
O7 O -0.2638(5) 0.9152(4) 0.4878(3)
O8 O 0.1067(6) 0.9018(5) 0.4866(4)
O9 O -0.6214(9) 0.5054(5) 1.0372(5)
O10 O -0.4520(12) 0.2656(7) 0.9371(7)
O11 O -0.3790(11) 0.3741(9) 1.0682(9)
O12 O -0.6912(10) 0.3689(6) 0.8997(6)
O13 O -0.6395(13) 0.4399(10) 0.7808(9)
O14 O -0.7600(11) 0.5127(6) 0.8599(7)
O15 O -0.8349(11) 0.3942(7) 0.8027(7)
N7 N -0.4337(9) 0.4773(6) 0.8947(6)
N8 N 0.3622(15) 1.2986(8) 0.0727(8)
N9 N -0.7789(10) 0.5931(6) 1.0702(6)
N10 N -0.4320(15) 0.1218(9) 0.9240(10)
N11 N -0.288(3) 0.508(2) 1.144(2)
C51 C -0.4476(9) 0.5637(6) 0.8914(5)
H59 H -0.4912 0.5870 0.9316
C52 C -0.4016(9) 0.6215(6) 0.8318(5)
H60 H -0.4094 0.6823 0.8349
C53 C -0.3444(9) 0.5922(6) 0.7680(6)
C54 C -0.3289(12) 0.4995(7) 0.7743(7)
H61 H -0.2860 0.4737 0.7350
C55 C -0.3735(13) 0.4484(7) 0.8341(8)
H62 H -0.3623 0.3873 0.8343
C56 C -0.2993(8) 0.6513(6) 0.7062(5)
H63 H -0.3122 0.7117 0.7098
C57 C -0.2395(8) 0.6291(6) 0.6426(5)
H64 H -0.2289 0.5690 0.6372
C58 C -0.1898(8) 0.6930(5) 0.5814(5)
C59 C -0.0804(8) 0.6736(5) 0.5425(5)
C60 C -0.0122(10) 0.5953(7) 0.5602(6)
H65 H -0.0420 0.5524 0.5984
C61 C 0.0944(9) 0.5783(7) 0.5252(7)
C62 C 0.1396(8) 0.6399(6) 0.4662(6)
H66 H 0.2126 0.6282 0.4401
C63 C 0.0743(8) 0.7178(6) 0.4476(5)
H67 H 0.1043 0.7595 0.4085
C64 C -0.0995(7) 0.8188(5) 0.4661(5)
C65 C -0.2054(8) 0.8361(6) 0.5061(5)
C66 C -0.2510(8) 0.7724(6) 0.5636(5)
H68 H -0.3238 0.7844 0.5898
C67 C -0.3892(9) 0.9248(7) 0.5046(7)
H69 H -0.4024 0.9157 0.5610
H70 H -0.4332 0.8804 0.4815
C68 C -0.4362(12) 1.0135(10) 0.4732(11)
H71 H -0.5224 1.0188 0.4843
H72 H -0.4227 1.0226 0.4174
H73 H -0.3944 1.0574 0.4974
C69 C 0.2548(14) 0.8990(13) 0.5828(11)
H74 H 0.3350 0.9168 0.5947
H75 H 0.2523 0.8354 0.5913
H76 H 0.1953 0.9243 0.6161
C70 C 0.2265(11) 0.9307(10) 0.4992(7)
H77 H 0.2284 0.9949 0.4895
H78 H 0.2854 0.9054 0.4645
C71 C -0.0527(8) 0.8878(6) 0.4050(5)
C72 C -0.1175(8) 0.9147(6) 0.3373(5)
C73 C -0.2317(9) 0.8818(7) 0.3229(6)
H79 H -0.2646 0.8387 0.3596
C74 C -0.2934(9) 0.9098(6) 0.2594(5)
H80 H -0.3682 0.8858 0.2505
C75 C -0.2466(9) 0.9756(8) 0.2053(6)
C76 C -0.1387(9) 1.0082(7) 0.2148(6)
H81 H -0.1088 1.0516 0.1771
C77 C -0.0693(8) 0.9784(6) 0.2805(5)
C78 C 0.0442(8) 1.0127(6) 0.2920(6)
C79 C 0.1062(10) 0.9855(6) 0.3593(7)
H82 H 0.1832 1.0070 0.3668
C80 C 0.0546(10) 0.9257(7) 0.4170(6)
C81 C 0.1008(9) 1.0748(8) 0.2314(7)
H83 H 0.0650 1.0834 0.1820
C82 C 0.196(2) 1.1181(17) 0.2417(16)
H84 H 0.2353 1.1093 0.2899
C83 C 0.2744(14) 1.2530(17) 0.0553(14)
H85 H 0.2463 1.2607 0.0038
C84 C 0.2195(11) 1.1931(13) 0.1086(13)
H86 H 0.1597 1.1586 0.0909
C85 C 0.244(2) 1.1820(13) 0.1778(9)
C86 C 0.392(3) 1.171(3) 0.198(2)
H87 H 0.4251 1.1327 0.2393
C87 C 0.473(4) 1.237(2) 0.134(2)
H88 H 0.5575 1.2406 0.1311
C88 C -0.465(3) 0.2013(15) 0.939(2)
H89 H -0.5390 0.1936 0.9661
C89 C -0.325(3) 0.119(2) 0.8822(17)
H90 H -0.2975 0.1782 0.8683
H91 H -0.3375 0.0920 0.8354
H92 H -0.2635 0.0845 0.9137
C90 C -0.4908(17) 0.0423(12) 0.9508(9)
H93 H -0.5619 0.0557 0.9815
H94 H -0.4354 0.0029 0.9826
H95 H -0.5153 0.0144 0.9065
C91 C -0.282(3) 0.462(2) 1.061(2)
H96 H -0.2330 0.4801 1.0180
C92 C -0.426(6) 0.575(4) 1.164(4)
H97 H -0.4119 0.6058 1.2081
H98 H -0.4933 0.5368 1.1746
H99 H -0.4435 0.6171 1.1185
C93 C -0.195(6) 0.549(4) 1.124(3)
H100 H -0.1755 0.5854 1.1637
H101 H -0.2087 0.5851 1.0752
H102 H -0.1280 0.5068 1.1186
C94 C -0.7319(15) 0.5265(9) 1.0356(8)
H103 H -0.7842 0.4940 1.0089
C95 C -0.7100(15) 0.6469(12) 1.1076(10)
H104 H -0.6274 0.6227 1.1120
H105 H -0.7435 0.6511 1.1591
H106 H -0.7103 0.7049 1.0782
C96 C -0.9058(15) 0.6207(11) 1.0597(11)
H107 H -0.9458 0.5797 1.0311
H108 H -0.9116 0.6791 1.0310
H109 H -0.9448 0.6216 1.1102
C97 C -0.0331(8) 0.7369(5) 0.4840(5)
Cd2_2 Cd 0.47049(7) 1.38743(4) -0.01551(4)
N8_2 N -0.6378(15) 0.2986(8) 1.0727(8)
Cl6 Cl 0.5436(3) 0.89644(18) 0.73768(13)
O16 O 0.528(2) 0.9666(9) 0.6794(8)
O17 O 0.4821(11) 0.8240(7) 0.7194(9)
O18 O 0.6684(9) 0.8695(7) 0.7459(8)
O19 O 0.5036(9) 0.9247(7) 0.8057(5)
Cl7 Cl -0.5853(3) 0.7309(2) 1.32551(19)
O20 O -0.5588(9) 0.7976(7) 1.3560(6)
O21 O -0.7081(11) 0.7240(12) 1.3027(8)
O22 O -0.5681(10) 0.6546(8) 1.3764(6)
O23 O -0.5146(9) 0.7300(8) 1.2576(6)
Cl8 Cl 0.1848(7) 0.2411(5) 0.4453(4)
O24 O 0.180(5) 0.284(3) 0.376(3)
O25 O 0.211(5) 0.173(2) 0.444(3)
O26 O 0.244(3) 0.284(2) 0.4865(19)
O27 O 0.0646(16) 0.2834(14) 0.4649(13)
Cl9 Cl -0.0311(11) 0.3358(7) 1.2386(9)
O28 O 0.042(5) 0.329(3) 1.283(3)
O29 O -0.138(4) 0.3640(18) 1.2707(18)
O30 O -0.077(3) 0.280(2) 1.177(2)
O31 O 0.044(4) 0.417(3) 1.1895(18)
O32 O -0.048(5) 0.906(2) 0.684(3)
N12 N -0.121(3) 1.0382(19) 0.6833(13)
C98 C -0.0763(14) 0.9803(13) 0.6217(10)
H110 H -0.0695 0.9881 0.5672
C99 C -0.0593(12) 1.0336(9) 0.7611(6)
H111 H -0.0164 0.9771 0.7724
H112 H -0.1196 1.0405 0.8014
H113 H -0.0022 1.0802 0.7594
C100 C -0.2127(14) 1.1213(9) 0.6552(10)
H114 H -0.2547 1.1103 0.6087
H115 H -0.1666 1.1740 0.6439
H116 H -0.2715 1.1294 0.6961
O33 O -0.1184(11) 0.5474(9) 0.9330(9)
N13 N -0.0452(9) 0.6387(8) 0.8315(8)
C101 C -0.0650(18) 0.5600(11) 0.8751(13)
H117 H -0.0311 0.5099 0.8555
C102 C 0.0219(14) 0.6499(14) 0.7604(10)
H118 H 0.0471 0.5928 0.7459
H119 H 0.0930 0.6833 0.7670
H120 H -0.0286 0.6812 0.7199
C103 C -0.0924(14) 0.7182(11) 0.8635(12)
H121 H -0.1357 0.7013 0.9117
H122 H -0.1471 0.7513 0.8264
H123 H -0.0254 0.7543 0.8732
loop_
_geom_bond_atom_site_label_1
_geom_bond_atom_site_label_2
_geom_bond_site_symmetry_1
_geom_bond_site_symmetry_2
Cd1 O3 1_555 1_555
Cl1 C11 1_555 1_555
Cl2 C26 1_555 1_555
O1 C16 1_555 1_555
O2 C21 1_555 1_555
O3 C39 1_555 1_555
O4 Cd1 1_555 1_555
O5 Cd1 1_555 1_555
O6 Cd1 1_555 1_555
N1 Cd1 1_555 1_555
N2 C34 1_555 1_555
N3 C39 1_555 1_555
N4 C42 1_555 1_555
N5 C45 1_555 1_555
N6 C48 1_555 1_555
C1 N1 1_555 1_555
H1 C1 1_555 1_555
C2 C1 1_555 1_555
H2 C2 1_555 1_555
C3 C2 1_555 1_555
C4 C3 1_555 1_555
H3 C4 1_555 1_555
C5 N1 1_555 1_555
H4 C5 1_555 1_555
C6 C3 1_555 1_555
H5 C6 1_555 1_555
C7 C6 1_555 1_555
H6 C7 1_555 1_555
C8 C7 1_555 1_555
C9 C8 1_555 1_555
C10 C9 1_555 1_555
H7 C10 1_555 1_555
C11 C10 1_555 1_555
C12 C11 1_555 1_555
H8 C12 1_555 1_555
C13 C12 1_555 1_555
H9 C13 1_555 1_555
C14 C9 1_555 1_555
C15 C14 1_555 1_555
C16 C15 1_555 1_555
C17 C8 1_555 1_555
H10 C17 1_555 1_555
C18 O1 1_555 1_555
H11 C18 1_555 1_555
H12 C18 1_555 1_555
C19 C18 1_555 1_555
H13 C19 1_555 1_555
H14 C19 1_555 1_555
H15 C19 1_555 1_555
C20 H16 1_555 1_555
H17 C20 1_555 1_555
H18 C20 1_555 1_555
C21 C20 1_555 1_555
H19 C21 1_555 1_555
H20 C21 1_555 1_555
C22 C15 1_555 1_555
C23 C22 1_555 1_555
C24 C23 1_555 1_555
H21 C24 1_555 1_555
C25 C24 1_555 1_555
H22 C25 1_555 1_555
C26 C25 1_555 1_555
C27 C26 1_555 1_555
H23 C27 1_555 1_555
C28 C23 1_555 1_555
C29 C28 1_555 1_555
C30 C29 1_555 1_555
H24 C30 1_555 1_555
C31 O2 1_555 1_555
C32 C29 1_555 1_555
H25 C32 1_555 1_555
C33 C32 1_555 1_555
H26 C33 1_555 1_555
C34 H27 1_555 1_555
C35 C34 1_555 1_555
H28 C35 1_555 1_555
C36 C33 1_555 1_555
C37 C36 1_555 1_555
H29 C37 1_555 1_555
C38 N2 1_555 1_555
H30 C38 1_555 1_555
C39 H31 1_555 1_555
C40 N3 1_555 1_555
H32 C40 1_555 1_555
H33 C40 1_555 1_555
H34 C40 1_555 1_555
C41 N3 1_555 1_555
H35 C41 1_555 1_555
H36 C41 1_555 1_555
H37 C41 1_555 1_555
C42 O4 1_555 1_555
H38 C42 1_555 1_555
C43 N4 1_555 1_555
H39 C43 1_555 1_555
H40 C43 1_555 1_555
H41 C43 1_555 1_555
C44 N4 1_555 1_555
H42 C44 1_555 1_555
H43 C44 1_555 1_555
H44 C44 1_555 1_555
C45 O5 1_555 1_555
H45 C45 1_555 1_555
C46 N5 1_555 1_555
H46 C46 1_555 1_555
H47 C46 1_555 1_555
H48 C46 1_555 1_555
C47 N5 1_555 1_555
H49 C47 1_555 1_555
H50 C47 1_555 1_555
H51 C47 1_555 1_555
C48 O6 1_555 1_555
H52 C48 1_555 1_555
C49 N6 1_555 1_555
H53 C49 1_555 1_555
H54 C49 1_555 1_555
H55 C49 1_555 1_555
C50 N6 1_555 1_555
H56 C50 1_555 1_555
H57 C50 1_555 1_555
H58 C50 1_555 1_555
Cd2 O9 1_555 1_555
Cl3 C61 1_555 1_555
Cl4 C75 1_555 1_555
Cl5 O12 1_555 1_555
O7 C65 1_555 1_555
O8 C70 1_555 1_555
O9 C94 1_555 1_555
O10 Cd2 1_555 1_555
O11 Cd2 1_555 1_555
O12 Cd2 1_555 1_555
O13 Cl5 1_555 1_555
O14 Cl5 1_555 1_555
O15 Cl5 1_555 1_555
N7 Cd2 1_555 1_555
N8 C83 1_555 1_555
N9 C94 1_555 1_555
N10 C88 1_555 1_555
N11 C91 1_555 1_555
C51 N7 1_555 1_555
H59 C51 1_555 1_555
C52 C51 1_555 1_555
H60 C52 1_555 1_555
C53 C52 1_555 1_555
C54 C53 1_555 1_555
H61 C54 1_555 1_555
C55 N7 1_555 1_555
H62 C55 1_555 1_555
C56 C53 1_555 1_555
H63 C56 1_555 1_555
C57 C56 1_555 1_555
H64 C57 1_555 1_555
C58 C57 1_555 1_555
C59 C58 1_555 1_555
C60 C59 1_555 1_555
H65 C60 1_555 1_555
C61 C60 1_555 1_555
C62 C61 1_555 1_555
H66 C62 1_555 1_555
C63 C62 1_555 1_555
H67 C63 1_555 1_555
C64 C65 1_555 1_555
C65 C66 1_555 1_555
C66 C58 1_555 1_555
H68 C66 1_555 1_555
C67 O7 1_555 1_555
H69 C67 1_555 1_555
H70 C67 1_555 1_555
C68 C67 1_555 1_555
H71 C68 1_555 1_555
H72 C68 1_555 1_555
H73 C68 1_555 1_555
C69 H74 1_555 1_555
H75 C69 1_555 1_555
H76 C69 1_555 1_555
C70 C69 1_555 1_555
H77 C70 1_555 1_555
H78 C70 1_555 1_555
C71 C64 1_555 1_555
C72 C71 1_555 1_555
C73 C72 1_555 1_555
H79 C73 1_555 1_555
C74 C73 1_555 1_555
H80 C74 1_555 1_555
C75 C74 1_555 1_555
C76 C75 1_555 1_555
H81 C76 1_555 1_555
C77 C72 1_555 1_555
C78 C77 1_555 1_555
C79 C78 1_555 1_555
H82 C79 1_555 1_555
C80 O8 1_555 1_555
C81 C78 1_555 1_555
H83 C81 1_555 1_555
C82 C81 1_555 1_555
H84 C82 1_555 1_555
C83 H85 1_555 1_555
C84 C83 1_555 1_555
H86 C84 1_555 1_555
C85 C82 1_555 1_555
C86 C85 1_555 1_555
H87 C86 1_555 1_555
C87 N8 1_555 1_555
H88 C87 1_555 1_555
C88 O10 1_555 1_555
H89 C88 1_555 1_555
C89 N10 1_555 1_555
H90 C89 1_555 1_555
H91 C89 1_555 1_555
H92 C89 1_555 1_555
C90 N10 1_555 1_555
H93 C90 1_555 1_555
H94 C90 1_555 1_555
H95 C90 1_555 1_555
C91 O11 1_555 1_555
H96 C91 1_555 1_555
C92 N11 1_555 1_555
H97 C92 1_555 1_555
H98 C92 1_555 1_555
H99 C92 1_555 1_555
C93 N11 1_555 1_555
H100 C93 1_555 1_555
H101 C93 1_555 1_555
H102 C93 1_555 1_555
C94 H103 1_555 1_555
C95 N9 1_555 1_555
H104 C95 1_555 1_555
H105 C95 1_555 1_555
H106 C95 1_555 1_555
C96 N9 1_555 1_555
H107 C96 1_555 1_555
H108 C96 1_555 1_555
H109 C96 1_555 1_555
C97 C59 1_555 1_555
Cl6 O16 1_555 1_555
O17 Cl6 1_555 1_555
O18 Cl6 1_555 1_555
O19 Cl6 1_555 1_555
Cl7 O20 1_555 1_555
O21 Cl7 1_555 1_555
O22 Cl7 1_555 1_555
O23 Cl7 1_555 1_555
Cl8 O24 1_555 1_555
O25 Cl8 1_555 1_555
O26 Cl8 1_555 1_555
O27 Cl8 1_555 1_555
Cl9 O28 1_555 1_555
O29 Cl9 1_555 1_555
O30 Cl9 1_555 1_555
O31 Cl9 1_555 1_555
O32 C98 1_555 1_555
N12 C98 1_555 1_555
C98 H110 1_555 1_555
C99 N12 1_555 1_555
H111 C99 1_555 1_555
H112 C99 1_555 1_555
H113 C99 1_555 1_555
C100 N12 1_555 1_555
H114 C100 1_555 1_555
H115 C100 1_555 1_555
H116 C100 1_555 1_555
O33 C101 1_555 1_555
N13 C101 1_555 1_555
C101 H117 1_555 1_555
C102 N13 1_555 1_555
H118 C102 1_555 1_555
H119 C102 1_555 1_555
H120 C102 1_555 1_555
C103 N13 1_555 1_555
H121 C103 1_555 1_555
H122 C103 1_555 1_555
H123 C103 1_555 1_555
Cd1_2 N2 1_555 1_555
N2_2 Cd1 1_555 1_555
Cd2_2 N8 1_555 1_555
N8_2 Cd2 1_555 1_555
C4 C5 1_555 1_555
C13 C14 1_555 1_555
C16 C17 1_555 1_555
C22 C31 1_555 1_555
C27 C28 1_555 1_555
C30 C31 1_555 1_555
C35 C36 1_555 1_555
C37 C38 1_555 1_555
C54 C55 1_555 1_555
C63 C97 1_555 1_555
C64 C97 1_555 1_555
C71 C80 1_555 1_555
C76 C77 1_555 1_555
C79 C80 1_555 1_555
C84 C85 1_555 1_555
C86 C87 1_555 1_555

#END
