
#######################################################################
#
#                 Cambridge Crystallographic Data Centre
#                                CCDC 
#
#######################################################################
#
# If this CIF has been generated from an entry in the Cambridge 
# Structural Database, then it will include bibliographic, chemical, 
# crystal, experimental, refinement or atomic coordinate data resulting 
# from the CCDC's data processing and validation procedures.
#
#######################################################################

data_DEQFAH
_symmetry_cell_setting           monoclinic
_symmetry_space_group_name_H-M   'C 2'
_symmetry_Int_Tables_number      5
_space_group_name_Hall           'C 2y'
loop_
_symmetry_equiv_pos_site_id
_symmetry_equiv_pos_as_xyz
1 x,y,z
2 -x,y,-z
3 1/2+x,1/2+y,z
4 1/2-x,1/2+y,-z
_cell_length_a                   27.1399(9)
_cell_length_b                   31.3132(8)
_cell_length_c                   10.8308(8)
_cell_angle_alpha                90
_cell_angle_beta                 99.655(4)
_cell_angle_gamma                90
_cell_volume                     9074.04
loop_
_atom_site_label
_atom_site_type_symbol
_atom_site_fract_x
_atom_site_fract_y
_atom_site_fract_z
Ni1 Ni 0.5000 0.73253(6) 0.5000
Cl1 Cl 0.28069(18) 1.22017(13) 0.9534(5)
Cl2 Cl 0.43619(10) 0.73033(10) 0.3132(3)
Cl3 Cl 0.50207(16) 0.97086(16) 1.2335(5)
O1 O 0.2339(4) 0.9892(3) 0.7774(10)
O2 O 0.2324(4) 0.9732(3) 1.0885(11)
N1 N 0.4600(3) 0.7801(3) 0.5801(8)
N2 N 0.0399(3) 1.1849(3) 1.4149(8)
C1 C 0.0596(4) 1.1515(4) 1.4722(11)
H1 H 0.0526 1.1457 1.5536
C2 C 0.4817(5) 0.8125(4) 0.6438(13)
H2 H 0.5171 0.8143 0.6533
C3 C 0.2003(5) 1.0849(5) 1.1127(15)
C4 C 0.3816(4) 0.8096(4) 0.6124(11)
H3 H 0.3462 0.8073 0.5966
C5 C 0.0491(4) 1.1925(3) 1.2964(13)
H4 H 0.0344 1.2168 1.2526
C6 C 0.0797(4) 1.1657(4) 1.2369(13)
H5 H 0.0849 1.1710 1.1537
C7 C 0.3902(5) 0.9075(4) 0.8096(13)
H6 H 0.4255 0.9099 0.8311
C8 C 0.2306(5) 1.0152(4) 1.0723(13)
C9 C 0.2629(6) 1.0330(5) 1.0012(15)
C10 C 0.4094(4) 0.7803(4) 0.5633(12)
H7 H 0.3922 0.7582 0.5135
C11 C 0.1972(5) 1.0405(4) 1.1249(14)
H8 H 0.1730 1.0280 1.1679
C12 C 0.1367(5) 1.1027(4) 1.2547(13)
H9 H 0.1405 1.0743 1.2863
C13 C 0.2346(5) 1.1055(5) 1.0442(14)
C14 C 0.0912(5) 1.1230(3) 1.4210(12)
H10 H 0.1046 1.0988 1.4677
C15 C 0.1630(5) 1.1129(4) 1.1686(15)
H11 H 0.1586 1.1412 1.1367
C16 C 0.1024(4) 1.1301(3) 1.3069(12)
C17 C 0.2979(5) 1.0023(4) 0.9498(14)
C18 C 0.4042(5) 0.8436(4) 0.6865(13)
C19 C 0.1979(9) 0.9511(6) 1.138(3)
H12 H 0.1641 0.9588 1.0933
H13 H 0.1999 0.9589 1.2270
C20 C 0.3012(6) 1.1398(5) 0.8945(15)
H14 H 0.3230 1.1518 0.8437
C21 C 0.2959(6) 1.0956(4) 0.9060(15)
H15 H 0.3129 1.0775 0.8566
C22 C 0.2720(5) 1.1661(5) 0.9630(14)
C23 C 0.2401(6) 1.1499(4) 1.0305(14)
H16 H 0.2203 1.1687 1.0706
C24 C 0.2661(5) 1.0762(5) 0.9887(14)
C25 C 0.4566(5) 0.8457(4) 0.7003(11)
H17 H 0.4748 0.8683 0.7455
C26 C 0.3725(5) 0.8751(4) 0.7345(14)
H18 H 0.3373 0.8725 0.7111
C27 C 0.1602(7) 0.9755(7) 0.639(2)
H19 H 0.1445 0.9552 0.5761
H20 H 0.1625 1.0036 0.6006
H21 H 0.1400 0.9779 0.7061
C28 C 0.2796(5) 0.9805(4) 0.8415(15)
C29 C 0.2056(7) 0.9029(5) 1.127(3)
H22 H 0.1796 0.8877 1.1627
H23 H 0.2385 0.8951 1.1732
H24 H 0.2034 0.8951 1.0388
C30 C 0.3475(5) 0.9966(5) 1.0160(15)
C31 C 0.2092(6) 0.9609(5) 0.6914(15)
H25 H 0.2067 0.9329 0.7324
H26 H 0.2288 0.9568 0.6230
C32 C 0.3114(5) 0.9483(4) 0.7934(14)
H27 H 0.2998 0.9333 0.7179
C33 C 0.4432(6) 0.9805(6) 1.1465(18)
C34 C 0.4132(6) 1.0128(6) 1.1906(17)
H28 H 0.4244 1.0285 1.2650
C35 C 0.4279(6) 0.9561(4) 1.0432(16)
H29 H 0.4490 0.9345 1.0192
C36 C 0.3792(5) 0.9635(4) 0.9710(13)
C37 C 0.3669(6) 1.0198(5) 1.1187(15)
H30 H 0.3471 1.0423 1.1429
C38 C 0.3595(5) 0.9403(4) 0.8629(14)
Ni1B Ni 0.0000 1.23253(6) 1.5000
Ni1B_2 Ni 1.0000 1.23253(6) -0.5000
Cl1A Cl 0.71931(18) 1.22017(13) 0.0466(5)
Cl2A Cl 0.56381(10) 0.73033(10) 0.6868(3)
Cl3A Cl 0.49793(16) 0.97086(16) -0.2335(5)
O1A O 0.7661(4) 0.9892(3) 0.2226(10)
O2A O 0.7676(4) 0.9732(3) -0.0885(11)
N1A N 0.5400(3) 0.7801(3) 0.4199(8)
N2A N 0.9601(3) 1.1849(3) -0.4149(8)
N2B N 0.5399(3) 0.6849(3) 0.4149(8)
N2C N 0.4601(3) 0.6849(3) 0.5851(8)
C1A C 0.9404(4) 1.1515(4) -0.4722(11)
H1A H 0.9474 1.1457 -0.5536
C2A C 0.5183(5) 0.8125(4) 0.3562(13)
H2A H 0.4829 0.8143 0.3467
C3A C 0.7997(5) 1.0849(5) -0.1127(15)
C4A C 0.6184(4) 0.8096(4) 0.3876(11)
H3A H 0.6538 0.8073 0.4034
C5A C 0.9509(4) 1.1925(3) -0.2964(13)
H4A H 0.9656 1.2168 -0.2526
C6A C 0.9203(4) 1.1657(4) -0.2369(13)
H5A H 0.9151 1.1710 -0.1537
C7A C 0.6098(5) 0.9075(4) 0.1904(13)
H6A H 0.5745 0.9099 0.1689
C8A C 0.7694(5) 1.0152(4) -0.0723(13)
C9A C 0.7371(6) 1.0330(5) -0.0012(15)
C10A C 0.5906(4) 0.7803(4) 0.4367(12)
H7A H 0.6078 0.7582 0.4865
C11A C 0.8028(5) 1.0405(4) -0.1249(14)
H8A H 0.8270 1.0280 -0.1679
C12A C 0.8633(5) 1.1027(4) -0.2547(13)
H9A H 0.8595 1.0743 -0.2863
C13A C 0.7654(5) 1.1055(5) -0.0442(14)
C14A C 0.9088(5) 1.1230(3) -0.4210(12)
H10A H 0.8954 1.0988 -0.4677
C15A C 0.8370(5) 1.1129(4) -0.1686(15)
H11A H 0.8414 1.1412 -0.1367
C16A C 0.8976(4) 1.1301(3) -0.3069(12)
C17A C 0.7021(5) 1.0023(4) 0.0502(14)
C18A C 0.5958(5) 0.8436(4) 0.3135(13)
C19A C 0.8021(9) 0.9511(6) -0.138(3)
H12A H 0.8359 0.9588 -0.0933
H13A H 0.8001 0.9589 -0.2270
C20A C 0.6988(6) 1.1398(5) 0.1055(15)
H14A H 0.6770 1.1518 0.1563
C21A C 0.7041(6) 1.0956(4) 0.0940(15)
H15A H 0.6871 1.0775 0.1434
C22A C 0.7280(5) 1.1661(5) 0.0370(14)
C23A C 0.7599(6) 1.1499(4) -0.0305(14)
H16A H 0.7797 1.1687 -0.0706
C24A C 0.7339(5) 1.0762(5) 0.0113(14)
C25A C 0.5434(5) 0.8457(4) 0.2997(11)
H17A H 0.5252 0.8683 0.2545
C26A C 0.6275(5) 0.8751(4) 0.2655(14)
H18A H 0.6627 0.8725 0.2889
C27A C 0.8398(7) 0.9755(7) 0.361(2)
H19A H 0.8555 0.9552 0.4239
H20A H 0.8375 1.0036 0.3994
H21A H 0.8600 0.9779 0.2939
C28A C 0.7204(5) 0.9805(4) 0.1585(15)
C29A C 0.7944(7) 0.9029(5) -0.127(3)
H22A H 0.8204 0.8877 -0.1627
H23A H 0.7615 0.8951 -0.1732
H24A H 0.7966 0.8951 -0.0388
C30A C 0.6525(5) 0.9966(5) -0.0160(15)
C31A C 0.7908(6) 0.9609(5) 0.3086(15)
H25A H 0.7933 0.9329 0.2676
H26A H 0.7712 0.9568 0.3770
C32A C 0.6886(5) 0.9483(4) 0.2066(14)
H27A H 0.7002 0.9333 0.2821
C33A C 0.5568(6) 0.9805(6) -0.1465(18)
C34A C 0.5868(6) 1.0128(6) -0.1906(17)
H28A H 0.5756 1.0285 -0.2650
C35A C 0.5721(6) 0.9561(4) -0.0432(16)
H29A H 0.5510 0.9345 -0.0192
C36A C 0.6208(5) 0.9635(4) 0.0290(13)
C37A C 0.6331(6) 1.0198(5) -0.1187(15)
H30A H 0.6529 1.0423 -0.1429
C38A C 0.6405(5) 0.9403(4) 0.1371(14)
Ni2 Ni 0.5000 0.48903(6) 1.0000
Cl4 Cl 0.56797(13) 0.49130(10) 1.1823(4)
Cl5 Cl 0.77225(18) 0.51139(13) 0.4351(5)
Cl6 Cl 0.66528(19) 0.82077(17) -0.0244(5)
O3 O 0.7161(4) 0.7586(3) 0.5853(11)
O4 O 0.8478(4) 0.7202(4) 0.5717(13)
N3 N 0.5394(4) 0.5347(3) 0.9134(11)
N4 N 0.9632(4) 0.9396(3) 0.0850(14)
C39 C 0.9152(5) 0.8761(4) 0.0719(18)
H31 H 0.8974 0.8542 0.0224
C40 C 0.6999(4) 0.6425(4) 0.6374(12)
C41 C 0.8963(9) 0.7296(9) 0.631(2)
H32 H 0.9206 0.7203 0.5777
H33 H 0.9000 0.7608 0.6442
C42 C 0.9648(5) 0.9393(4) 0.2083(16)
H34 H 0.9821 0.9617 0.2564
C43 C 0.9424(6) 0.9079(5) 0.2696(19)
H35 H 0.9441 0.9092 0.3578
C44 C 0.9181(7) 0.8755(5) 0.203(2)
C45 C 0.9380(5) 0.9082(4) 0.0151(14)
H36 H 0.9360 0.9083 -0.0733
C46 C 0.8262(7) 0.7390(4) 0.4685(19)
C47 C 0.7058(12) 0.8203(7) 0.696(3)
H37 H 0.6939 0.8300 0.7720
H38 H 0.6864 0.8344 0.6228
H39 H 0.7412 0.8277 0.7016
C48 C 0.7000(7) 0.7764(5) 0.6845(18)
H40 H 0.7182 0.7629 0.7616
H41 H 0.6642 0.7696 0.6796
C49 C 0.6951(5) 0.6866(4) 0.6500(13)
H42 H 0.6754 0.6980 0.7067
C50 C 0.7510(5) 0.6987(4) 0.4989(13)
C51 C 0.7546(5) 0.6532(4) 0.4809(14)
C52 C 0.7847(5) 0.6372(4) 0.3980(14)
H43 H 0.8028 0.6562 0.3536
C53 C 0.7875(6) 0.5954(5) 0.3827(13)
H44 H 0.8052 0.5845 0.3210
C54 C 0.7656(5) 0.5677(5) 0.4537(17)
C55 C 0.7363(5) 0.5820(4) 0.5397(12)
H45 H 0.7208 0.5622 0.5876
C56 C 0.7303(4) 0.6252(4) 0.5538(11)
C57 C 0.7198(5) 0.7138(4) 0.5778(14)
C58 C 0.6712(5) 0.6140(4) 0.7053(13)
H46 H 0.6831 0.5855 0.7186
C59 C 0.6305(4) 0.6240(4) 0.7497(12)
H47 H 0.6200 0.6530 0.7426
C60 C 0.5207(5) 0.5722(4) 0.8646(12)
H48 H 0.4864 0.5783 0.8631
C61 C 0.5501(4) 0.6021(3) 0.8169(12)
H49 H 0.5358 0.6288 0.7884
C62 C 0.6001(5) 0.5943(4) 0.8092(12)
C63 C 0.6198(5) 0.5556(4) 0.8642(12)
H50 H 0.6541 0.5490 0.8662
C64 C 0.5890(5) 0.5270(4) 0.9157(12)
H51 H 0.6032 0.5014 0.9534
C65 C 0.9055(11) 0.7091(10) 0.743(3)
H52 H 0.9393 0.7159 0.7852
H53 H 0.9026 0.6782 0.7288
H54 H 0.8812 0.7183 0.7947
C66 C 0.8528(6) 0.7682(5) 0.3989(17)
H55 H 0.8874 0.7733 0.4260
C67 C 0.8274(6) 0.7891(5) 0.2912(17)
C68 C 0.7457(6) 0.8031(4) 0.1419(14)
H56 H 0.7606 0.8254 0.1013
C69 C 0.6766(7) 0.7587(6) 0.170(2)
H57 H 0.6426 0.7515 0.1415
C70 C 0.7001(7) 0.7934(5) 0.1018(17)
C71 C 0.7008(6) 0.7388(5) 0.2640(14)
H58 H 0.6846 0.7167 0.3019
C72 C 0.7494(6) 0.7485(4) 0.3115(13)
C73 C 0.7752(6) 0.7817(4) 0.2452(16)
C74 C 0.8541(6) 0.8189(5) 0.2175(18)
H59 H 0.8455 0.8196 0.1288
C75 C 0.8896(7) 0.8441(5) 0.2745(19)
H60 H 0.8978 0.8429 0.3632
C76 C 0.7762(5) 0.7298(4) 0.4188(15)
Ni2B Ni 1.0000 0.98903(6) 0.0000
Ni2B_2 Ni 0.0000 0.98903(6) 2.0000
Cl4A Cl 0.43203(13) 0.49130(10) 0.8177(4)
Cl5A Cl 0.22775(18) 0.51139(13) 1.5649(5)
Cl6A Cl 0.33472(19) 0.82077(17) 2.0244(5)
O3A O 0.2839(4) 0.7586(3) 1.4147(11)
O4A O 0.1522(4) 0.7202(4) 1.4283(13)
N3A N 0.4606(4) 0.5347(3) 1.0866(11)
N4A N 0.0368(4) 0.9396(3) 1.9150(14)
N4B N 0.4632(4) 0.4396(3) 1.0850(14)
N4C N 0.5368(4) 0.4396(3) 0.9150(14)
C39A C 0.0848(5) 0.8761(4) 1.9281(18)
H31A H 0.1026 0.8542 1.9776
C40A C 0.3001(4) 0.6425(4) 1.3626(12)
C41A C 0.1037(9) 0.7296(9) 1.369(2)
H32A H 0.0794 0.7203 1.4223
H33A H 0.1000 0.7608 1.3558
C42A C 0.0352(5) 0.9393(4) 1.7917(16)
H34A H 0.0179 0.9617 1.7436
C43A C 0.0576(6) 0.9079(5) 1.7304(19)
H35A H 0.0559 0.9092 1.6422
C44A C 0.0819(7) 0.8755(5) 1.797(2)
C45A C 0.0620(5) 0.9082(4) 1.9849(14)
H36A H 0.0640 0.9083 2.0733
C46A C 0.1738(7) 0.7390(4) 1.5315(19)
C47A C 0.2942(12) 0.8203(7) 1.304(3)
H37A H 0.3061 0.8300 1.2280
H38A H 0.3136 0.8344 1.3772
H39A H 0.2588 0.8277 1.2984
C48A C 0.3000(7) 0.7764(5) 1.3155(18)
H40A H 0.2818 0.7629 1.2384
H41A H 0.3358 0.7696 1.3204
C49A C 0.3049(5) 0.6866(4) 1.3500(13)
H42A H 0.3246 0.6980 1.2933
C50A C 0.2490(5) 0.6987(4) 1.5011(13)
C51A C 0.2454(5) 0.6532(4) 1.5191(14)
C52A C 0.2153(5) 0.6372(4) 1.6020(14)
H43A H 0.1972 0.6562 1.6464
C53A C 0.2125(6) 0.5954(5) 1.6173(13)
H44A H 0.1948 0.5845 1.6790
C54A C 0.2344(5) 0.5677(5) 1.5463(17)
C55A C 0.2637(5) 0.5820(4) 1.4603(12)
H45A H 0.2792 0.5622 1.4124
C56A C 0.2697(4) 0.6252(4) 1.4462(11)
C57A C 0.2802(5) 0.7138(4) 1.4222(14)
C58A C 0.3288(5) 0.6140(4) 1.2947(13)
H46A H 0.3169 0.5855 1.2814
C59A C 0.3695(4) 0.6240(4) 1.2503(12)
H47A H 0.3800 0.6530 1.2574
C60A C 0.4793(5) 0.5722(4) 1.1354(12)
H48A H 0.5136 0.5783 1.1369
C61A C 0.4499(4) 0.6021(3) 1.1831(12)
H49A H 0.4642 0.6288 1.2116
C62A C 0.3999(5) 0.5943(4) 1.1908(12)
C63A C 0.3802(5) 0.5556(4) 1.1358(12)
H50A H 0.3459 0.5490 1.1338
C64A C 0.4110(5) 0.5270(4) 1.0843(12)
H51A H 0.3968 0.5014 1.0466
C65A C 0.0945(11) 0.7091(10) 1.257(3)
H52A H 0.0607 0.7159 1.2148
H53A H 0.0974 0.6782 1.2712
H54A H 0.1188 0.7183 1.2053
C66A C 0.1472(6) 0.7682(5) 1.6011(17)
H55A H 0.1126 0.7733 1.5740
C67A C 0.1726(6) 0.7891(5) 1.7088(17)
C68A C 0.2543(6) 0.8031(4) 1.8581(14)
H56A H 0.2394 0.8254 1.8987
C69A C 0.3234(7) 0.7587(6) 1.830(2)
H57A H 0.3574 0.7515 1.8585
C70A C 0.2999(7) 0.7934(5) 1.8982(17)
C71A C 0.2992(6) 0.7388(5) 1.7360(14)
H58A H 0.3154 0.7167 1.6981
C72A C 0.2506(6) 0.7485(4) 1.6885(13)
C73A C 0.2248(6) 0.7817(4) 1.7548(16)
C74A C 0.1459(6) 0.8189(5) 1.7825(18)
H59A H 0.1545 0.8196 1.8712
C75A C 0.1104(7) 0.8441(5) 1.7255(19)
H60A H 0.1022 0.8429 1.6368
C76A C 0.2238(5) 0.7298(4) 1.5812(15)
C77 C 0.6565(17) 0.9218(14) -1.286(4)
C78 C 0.5788(13) 0.9448(11) -1.484(3)
C79 C 0.5859(11) 0.8879(11) -1.345(3)
N5 N 0.6164(8) 0.9157(7) -1.3634(18)
O5 O 0.5888(8) 0.8710(8) -1.255(2)
O6 O 0.8882(9) 0.6423(8) -1.803(2)
C80 C 0.9626(16) 0.7019(14) -1.641(4)
C81 C 0.9247(15) 0.6746(14) -1.733(4)
O7 O 0.8847(12) 0.5479(10) -1.314(3)
C82 C 0.9244(12) 0.5669(11) -1.520(3)
C83 C 0.932(2) 0.566(2) -1.370(6)
O8 O 0.854(2) 0.841(2) -1.332(6)
C84 C 0.831(2) 0.8679(17) -1.400(5)
C85 C 0.7938(15) 0.8644(13) -1.496(4)
O9 O 0.958(2) 0.8351(18) -1.404(5)
O10? O 0.0000 0.3767(6) 0.0000
C86? C 0.0120(8) 0.3033(6) -0.002(3)
C87? C 0.0000 0.3349(9) 0.0000
C88? C 1.0110(16) 0.7965(16) -1.212(4)
C89? C 1.0000(18) 0.7907(13) -1.066(3)
O11? O 0.996(3) 0.7949(15) -1.546(4)
C90? C 0.9482(18) 1.0152(16) 0.463(4)
O12? O 1.0000 1.0308(13) 0.5000
C91? C 0.9669(16) 0.9667(15) 0.529(4)
O13? O 0.9599(5) 0.8210(4) -1.1714(12)
loop_
_geom_bond_atom_site_label_1
_geom_bond_atom_site_label_2
_geom_bond_site_symmetry_1
_geom_bond_site_symmetry_2
Ni1 Cl2 1_555 1_555
Cl1 C22 1_555 1_555
Cl3 C33 1_555 1_555
O1 C28 1_555 1_555
O2 C8 1_555 1_555
N1 Ni1 1_555 1_555
N2 C1 1_555 1_555
C1 H1 1_555 1_555
C2 N1 1_555 1_555
H2 C2 1_555 1_555
C3 C11 1_555 1_555
C4 H3 1_555 1_555
C5 N2 1_555 1_555
H4 C5 1_555 1_555
C6 C5 1_555 1_555
H5 C6 1_555 1_555
C7 H6 1_555 1_555
C8 C9 1_555 1_555
C9 C17 1_555 1_555
C10 N1 1_555 1_555
H7 C10 1_555 1_555
C11 C8 1_555 1_555
H8 C11 1_555 1_555
C12 H9 1_555 1_555
C13 C3 1_555 1_555
C14 C1 1_555 1_555
H10 C14 1_555 1_555
C15 C3 1_555 1_555
H11 C15 1_555 1_555
C16 C6 1_555 1_555
C17 C28 1_555 1_555
C18 C4 1_555 1_555
C19 O2 1_555 1_555
H12 C19 1_555 1_555
H13 C19 1_555 1_555
C20 H14 1_555 1_555
C21 C20 1_555 1_555
H15 C21 1_555 1_555
C22 C20 1_555 1_555
C23 C13 1_555 1_555
H16 C23 1_555 1_555
C24 C9 1_555 1_555
C25 C2 1_555 1_555
H17 C25 1_555 1_555
C26 C7 1_555 1_555
H18 C26 1_555 1_555
C27 H19 1_555 1_555
H20 C27 1_555 1_555
H21 C27 1_555 1_555
C28 C32 1_555 1_555
C29 C19 1_555 1_555
H22 C29 1_555 1_555
H23 C29 1_555 1_555
H24 C29 1_555 1_555
C30 C17 1_555 1_555
C31 O1 1_555 1_555
H25 C31 1_555 1_555
H26 C31 1_555 1_555
C32 H27 1_555 1_555
C33 C34 1_555 1_555
C34 H28 1_555 1_555
C35 C33 1_555 1_555
H29 C35 1_555 1_555
C36 C30 1_555 1_555
C37 C30 1_555 1_555
H30 C37 1_555 1_555
C38 C7 1_555 1_555
Ni2 Cl4 1_555 1_555
Cl5 C54 1_555 1_555
Cl6 C70 1_555 1_555
O3 C48 1_555 1_555
O4 C41 1_555 1_555
N3 Ni2 1_555 1_555
N4 C42 1_555 1_555
C39 H31 1_555 1_555
C40 C49 1_555 1_555
C41 H32 1_555 1_555
H33 C41 1_555 1_555
C42 H34 1_555 1_555
C43 C42 1_555 1_555
H35 C43 1_555 1_555
C44 C39 1_555 1_555
C45 N4 1_555 1_555
H36 C45 1_555 1_555
C46 O4 1_555 1_555
C47 H37 1_555 1_555
H38 C47 1_555 1_555
H39 C47 1_555 1_555
C48 C47 1_555 1_555
H40 C48 1_555 1_555
H41 C48 1_555 1_555
C49 H42 1_555 1_555
C50 C51 1_555 1_555
C51 C52 1_555 1_555
C52 H43 1_555 1_555
C53 C52 1_555 1_555
H44 C53 1_555 1_555
C54 C53 1_555 1_555
C55 C54 1_555 1_555
H45 C55 1_555 1_555
C56 C40 1_555 1_555
C57 O3 1_555 1_555
C58 C40 1_555 1_555
H46 C58 1_555 1_555
C59 C58 1_555 1_555
H47 C59 1_555 1_555
C60 N3 1_555 1_555
H48 C60 1_555 1_555
C61 C60 1_555 1_555
H49 C61 1_555 1_555
C62 C59 1_555 1_555
C63 C62 1_555 1_555
H50 C63 1_555 1_555
C64 N3 1_555 1_555
H51 C64 1_555 1_555
C65 C41 1_555 1_555
H52 C65 1_555 1_555
H53 C65 1_555 1_555
H54 C65 1_555 1_555
C66 C46 1_555 1_555
H55 C66 1_555 1_555
C67 C66 1_555 1_555
C68 H56 1_555 1_555
C69 H57 1_555 1_555
C70 C68 1_555 1_555
C71 C69 1_555 1_555
H58 C71 1_555 1_555
C72 C71 1_555 1_555
C73 C67 1_555 1_555
C74 C67 1_555 1_555
H59 C74 1_555 1_555
C75 C44 1_555 1_555
H60 C75 1_555 1_555
C76 C46 1_555 1_555
C77 N5 1_555 1_555
C78 N5 1_555 1_555
C79 N5 1_555 1_555
O5 C79 1_555 1_555
O6 C81 1_555 1_555
C80 C81 1_555 1_555
O7 C83 1_555 1_555
C82 C83 1_555 1_555
O8 C84 1_555 1_555
C84 C85 1_555 1_555
Ni1B N2 1_555 1_555
Ni1B_2 N2A 1_555 1_555
Cl1A C22A 1_555 1_555
Cl2A Ni1 1_555 1_555
Cl3A C33A 1_555 1_555
O1A C28A 1_555 1_555
O2A C8A 1_555 1_555
N1A Ni1 1_555 1_555
N2A C1A 1_555 1_555
N2B Ni1 1_555 1_555
N2C Ni1 1_555 1_555
C1A H1A 1_555 1_555
C2A N1A 1_555 1_555
H2A C2A 1_555 1_555
C3A C11A 1_555 1_555
C4A H3A 1_555 1_555
C5A N2A 1_555 1_555
H4A C5A 1_555 1_555
C6A C5A 1_555 1_555
H5A C6A 1_555 1_555
C7A H6A 1_555 1_555
C8A C9A 1_555 1_555
C9A C17A 1_555 1_555
C10A N1A 1_555 1_555
H7A C10A 1_555 1_555
C11A C8A 1_555 1_555
H8A C11A 1_555 1_555
C12A H9A 1_555 1_555
C13A C3A 1_555 1_555
C14A C1A 1_555 1_555
H10A C14A 1_555 1_555
C15A C3A 1_555 1_555
H11A C15A 1_555 1_555
C16A C6A 1_555 1_555
C17A C28A 1_555 1_555
C18A C4A 1_555 1_555
C19A O2A 1_555 1_555
H12A C19A 1_555 1_555
H13A C19A 1_555 1_555
C20A H14A 1_555 1_555
C21A C20A 1_555 1_555
H15A C21A 1_555 1_555
C22A C20A 1_555 1_555
C23A C13A 1_555 1_555
H16A C23A 1_555 1_555
C24A C9A 1_555 1_555
C25A C2A 1_555 1_555
H17A C25A 1_555 1_555
C26A C7A 1_555 1_555
H18A C26A 1_555 1_555
C27A H19A 1_555 1_555
H20A C27A 1_555 1_555
H21A C27A 1_555 1_555
C28A C32A 1_555 1_555
C29A C19A 1_555 1_555
H22A C29A 1_555 1_555
H23A C29A 1_555 1_555
H24A C29A 1_555 1_555
C30A C17A 1_555 1_555
C31A O1A 1_555 1_555
H25A C31A 1_555 1_555
H26A C31A 1_555 1_555
C32A H27A 1_555 1_555
C33A C34A 1_555 1_555
C34A H28A 1_555 1_555
C35A C33A 1_555 1_555
H29A C35A 1_555 1_555
C36A C30A 1_555 1_555
C37A C30A 1_555 1_555
H30A C37A 1_555 1_555
C38A C7A 1_555 1_555
Ni2B N4 1_555 1_555
Ni2B_2 N4A 1_555 1_555
Cl4A Ni2 1_555 1_555
Cl5A C54A 1_555 1_555
Cl6A C70A 1_555 1_555
O3A C48A 1_555 1_555
O4A C41A 1_555 1_555
N3A Ni2 1_555 1_555
N4A C42A 1_555 1_555
N4B Ni2 1_555 1_555
N4C Ni2 1_555 1_555
C39A H31A 1_555 1_555
C40A C49A 1_555 1_555
C41A H32A 1_555 1_555
H33A C41A 1_555 1_555
C42A H34A 1_555 1_555
C43A C42A 1_555 1_555
H35A C43A 1_555 1_555
C44A C39A 1_555 1_555
C45A N4A 1_555 1_555
H36A C45A 1_555 1_555
C46A O4A 1_555 1_555
C47A H37A 1_555 1_555
H38A C47A 1_555 1_555
H39A C47A 1_555 1_555
C48A C47A 1_555 1_555
H40A C48A 1_555 1_555
H41A C48A 1_555 1_555
C49A H42A 1_555 1_555
C50A C51A 1_555 1_555
C51A C52A 1_555 1_555
C52A H43A 1_555 1_555
C53A C52A 1_555 1_555
H44A C53A 1_555 1_555
C54A C53A 1_555 1_555
C55A C54A 1_555 1_555
H45A C55A 1_555 1_555
C56A C40A 1_555 1_555
C57A O3A 1_555 1_555
C58A C40A 1_555 1_555
H46A C58A 1_555 1_555
C59A C58A 1_555 1_555
H47A C59A 1_555 1_555
C60A N3A 1_555 1_555
H48A C60A 1_555 1_555
C61A C60A 1_555 1_555
H49A C61A 1_555 1_555
C62A C59A 1_555 1_555
C63A C62A 1_555 1_555
H50A C63A 1_555 1_555
C64A N3A 1_555 1_555
H51A C64A 1_555 1_555
C65A C41A 1_555 1_555
H52A C65A 1_555 1_555
H53A C65A 1_555 1_555
H54A C65A 1_555 1_555
C66A C46A 1_555 1_555
H55A C66A 1_555 1_555
C67A C66A 1_555 1_555
C68A H56A 1_555 1_555
C69A H57A 1_555 1_555
C70A C68A 1_555 1_555
C71A C69A 1_555 1_555
H58A C71A 1_555 1_555
C72A C71A 1_555 1_555
C73A C67A 1_555 1_555
C74A C67A 1_555 1_555
H59A C74A 1_555 1_555
C75A C44A 1_555 1_555
H60A C75A 1_555 1_555
C76A C46A 1_555 1_555
C4 C10 1_555 1_555
C12 C15 1_555 1_555
C12 C16 1_555 1_555
C13 C24 1_555 1_555
C14 C16 1_555 1_555
C18 C25 1_555 1_555
C18 C26 1_555 1_555
C21 C24 1_555 1_555
C22 C23 1_555 1_555
C27 C31 1_555 1_555
C32 C38 1_555 1_555
C34 C37 1_555 1_555
C35 C36 1_555 1_555
C36 C38 1_555 1_555
C39 C45 1_555 1_555
C43 C44 1_555 1_555
C49 C57 1_555 1_555
C50 C57 1_555 1_555
C50 C76 1_555 1_555
C51 C56 1_555 1_555
C55 C56 1_555 1_555
C61 C62 1_555 1_555
C63 C64 1_555 1_555
C68 C73 1_555 1_555
C69 C70 1_555 1_555
C72 C73 1_555 1_555
C72 C76 1_555 1_555
C74 C75 1_555 1_555
C4A C10A 1_555 1_555
C12A C15A 1_555 1_555
C12A C16A 1_555 1_555
C13A C24A 1_555 1_555
C14A C16A 1_555 1_555
C18A C25A 1_555 1_555
C18A C26A 1_555 1_555
C21A C24A 1_555 1_555
C22A C23A 1_555 1_555
C27A C31A 1_555 1_555
C32A C38A 1_555 1_555
C34A C37A 1_555 1_555
C35A C36A 1_555 1_555
C36A C38A 1_555 1_555
C39A C45A 1_555 1_555
C43A C44A 1_555 1_555
C49A C57A 1_555 1_555
C50A C57A 1_555 1_555
C50A C76A 1_555 1_555
C51A C56A 1_555 1_555
C55A C56A 1_555 1_555
C61A C62A 1_555 1_555
C63A C64A 1_555 1_555
C68A C73A 1_555 1_555
C69A C70A 1_555 1_555
C72A C73A 1_555 1_555
C72A C76A 1_555 1_555
C74A C75A 1_555 1_555

#END
