
#######################################################################
#
#                 Cambridge Crystallographic Data Centre
#                                CCDC 
#
#######################################################################
#
# If this CIF has been generated from an entry in the Cambridge 
# Structural Database, then it will include bibliographic, chemical, 
# crystal, experimental, refinement or atomic coordinate data resulting 
# from the CCDC's data processing and validation procedures.
#
#######################################################################

data_DEQFUA
_symmetry_cell_setting           triclinic
_symmetry_space_group_name_H-M   'P -1'
_symmetry_Int_Tables_number      2
_space_group_name_Hall           '-P 1'
loop_
_symmetry_equiv_pos_site_id
_symmetry_equiv_pos_as_xyz
1 x,y,z
2 -x,-y,-z
_cell_length_a                   10.439(3)
_cell_length_b                   10.674(2)
_cell_length_c                   9.678(2)
_cell_angle_alpha                101.43(2)
_cell_angle_beta                 109.69(2)
_cell_angle_gamma                105.58(2)
_cell_volume                     927.157
loop_
_atom_site_label
_atom_site_type_symbol
_atom_site_fract_x
_atom_site_fract_y
_atom_site_fract_z
Cu1 Cu 0.80996(5) 0.11968(5) 0.57836(5)
O1 O 0.8692(3) 0.2914(2) 0.5394(3)
O2 O 1.0815(3) 0.3613(3) 0.7407(3)
N1 N 0.8404(3) 0.0298(3) 0.3914(3)
N2 N 1.0036(3) 0.0626(3) 0.6871(3)
N3 N 0.6595(3) -0.0548(3) 0.5635(3)
N4 N 0.7569(3) 0.1945(3) 0.7499(3)
N5 N 0.6026(4) 0.1292(3) 0.8754(4)
N6 N 0.4977(3) -0.1354(3) 0.6770(4)
C1 C 0.7951(4) -0.0411(4) 0.1268(4)
C2 C 0.7607(4) 0.0152(4) 0.2426(4)
C3 C 0.9553(4) -0.0089(3) 0.4182(4)
C4 C 1.0858(4) 0.0794(4) 0.8341(4)
C5 C 0.6143(4) -0.1831(4) 0.4669(4)
C6 C 0.5111(4) -0.2886(4) 0.4731(4)
C7 C 0.4540(4) -0.2618(4) 0.5782(5)
C8 C 0.5993(4) -0.0400(4) 0.6650(4)
C9 C 0.6566(4) 0.1035(4) 0.7720(4)
C10 C 0.6574(5) 0.2615(5) 0.9656(5)
C11 C 0.7575(5) 0.3615(4) 0.9502(5)
C12 C 0.8077(4) 0.3249(4) 0.8394(4)
C13 C 0.9995(4) 0.3752(4) 0.6244(4)
C14 C 1.0528(4) 0.4989(4) 0.5755(4)
H1 H 0.7300 -0.054 0.0249
H2 H 0.6707 0.0329 0.2197
H3 H 1.0572 0.1174 0.9063
H4 H 0.6606 -0.1945 0.3976
H5 H 0.4851 -0.3648 0.4161
H6 H 0.3759 -0.3263 0.5834
H7 H 0.6167 0.2792 1.0310
H8 H 0.7873 0.4471 1.0072
H9 H 0.8779 0.3828 0.8243
H10 H 1.1488 0.5043 0.5736
H11 H 1.0702 0.5717 0.6591
C3A C 1.0447(4) 0.0089(3) 0.5818(4)
C4A C 0.9142(4) -0.0794(4) 0.1659(4)
N2A N 0.9964(3) -0.0626(3) 0.3129(3)
C1A C 1.2049(4) 0.0411(4) 0.8732(4)
C14A C 0.9472(4) 0.5011(4) 0.4245(4)
N1A N 1.1596(3) -0.0298(3) 0.6086(3)
H3A H 0.9428 -0.1174 0.0937
Cu1A Cu 1.19004(5) -0.11968(5) 0.42164(5)
C2A C 1.2393(4) -0.0152(4) 0.7574(4)
H1A H 1.2700 0.054 0.9751
C13A C 1.0005(4) 0.6248(4) 0.3756(4)
H10A H 0.8512 0.4957 0.4264
H11A H 0.9298 0.4283 0.3409
O1A O 1.1308(3) -0.2914(2) 0.4606(3)
N3A N 1.3405(3) 0.0548(3) 0.4365(3)
N4A N 1.2431(3) -0.1945(3) 0.2501(3)
H2A H 1.3293 -0.0329 0.7803
O1A_2 O 1.1308(3) 0.7086(2) 0.4606(3)
O2A O 0.9185(3) 0.6387(3) 0.2593(3)
C5A C 1.3857(4) 0.1831(4) 0.5331(4)
C8A C 1.4007(4) 0.0400(4) 0.3350(4)
C9A C 1.3434(4) -0.1035(4) 0.2280(4)
C12A C 1.1923(4) -0.3249(4) 0.1606(4)
Cu1A_2 Cu 1.19004(5) 0.88032(5) 0.42164(5)
C6A C 1.4889(4) 0.2886(4) 0.5269(4)
H4A H 1.3394 0.1945 0.6024
N6A N 1.5023(3) 0.1354(3) 0.3230(4)
N5A N 1.3974(4) -0.1292(3) 0.1246(4)
C11A C 1.2425(5) -0.3615(4) 0.0498(5)
H9A H 1.1221 -0.3828 0.1757
C7A C 1.5460(4) 0.2618(4) 0.4218(5)
H5A H 1.5149 0.3648 0.5839
C10A C 1.3426(5) -0.2615(5) 0.0344(5)
H8A H 1.2127 -0.4471 -0.0072
H6A H 1.6241 0.3263 0.4166
H7A H 1.3833 -0.2792 -0.0310
Cl1 Cl 0.8595(1) 0.7135(1) 0.7509(1)
O3 O 0.9890(4) 0.7277(5) 0.8725(4)
O4 O 0.7575(5) 0.5796(4) 0.6968(5)
O5 O 0.8919(4) 0.7454(3) 0.6281(4)
O6 O 0.7980(4) 0.8059(4) 0.8064(3)
O7 O 0.5492(4) 0.6165(4) 0.8732(4)
H14 H 0.6104 0.6361 0.8437
H15 H 0.4997 0.5623 0.8502
O8 O 0.6467(3) 0.6454(3) 0.1830(4)
H12 H 0.6011 0.5876 0.1936
H13 H 0.7289 0.6394 0.1956
loop_
_geom_bond_atom_site_label_1
_geom_bond_atom_site_label_2
_geom_bond_site_symmetry_1
_geom_bond_site_symmetry_2
Cu1 O1 1_555 1_555
Cl1 O3 1_555 1_555
O1 C13 1_555 1_555
O2 C13 1_555 1_555
O4 Cl1 1_555 1_555
O5 Cl1 1_555 1_555
O6 Cl1 1_555 1_555
O7 H14 1_555 1_555
O8 H12 1_555 1_555
N1 Cu1 1_555 1_555
N2 Cu1 1_555 1_555
N3 Cu1 1_555 1_555
N4 Cu1 1_555 1_555
N5 C9 1_555 1_555
N6 C7 1_555 1_555
C1 C2 1_555 1_555
C2 N1 1_555 1_555
C3 N1 1_555 1_555
C4 N2 1_555 1_555
C5 N3 1_555 1_555
C6 C5 1_555 1_555
C7 C6 1_555 1_555
C8 N3 1_555 1_555
C9 N4 1_555 1_555
C10 N5 1_555 1_555
C11 C10 1_555 1_555
C12 N4 1_555 1_555
C13 C14 1_555 1_555
C14 H10 1_555 1_555
H1 C1 1_555 1_555
H2 C2 1_555 1_555
H3 C4 1_555 1_555
H4 C5 1_555 1_555
H5 C6 1_555 1_555
H6 C7 1_555 1_555
H7 C10 1_555 1_555
H8 C11 1_555 1_555
H9 C12 1_555 1_555
H11 C14 1_555 1_555
H13 O8 1_555 1_555
H15 O7 1_555 1_555
C3A N2 1_555 1_555
C4A C1 1_555 1_555
N2A C3 1_555 1_555
C1A C4 1_555 1_555
C14A C14 1_555 1_555
N1A C3A 1_555 1_555
H3A C4A 1_555 1_555
Cu1A N2A 1_555 1_555
C2A C1A 1_555 1_555
H1A C1A 1_555 1_555
C13A C14A 1_555 1_555
H10A C14A 1_555 1_555
H11A C14A 1_555 1_555
O1A Cu1A 1_555 1_555
N3A Cu1A 1_555 1_555
N4A Cu1A 1_555 1_555
H2A C2A 1_555 1_555
O1A_2 C13A 1_555 1_555
O2A C13A 1_555 1_555
C5A N3A 1_555 1_555
C8A N3A 1_555 1_555
C9A N4A 1_555 1_555
C12A N4A 1_555 1_555
Cu1A_2 O1A_2 1_555 1_555
C6A C5A 1_555 1_555
H4A C5A 1_555 1_555
N6A C8A 1_555 1_555
N5A C9A 1_555 1_555
C11A C12A 1_555 1_555
H9A C12A 1_555 1_555
C7A C6A 1_555 1_555
H5A C6A 1_555 1_555
C10A N5A 1_555 1_555
H8A C11A 1_555 1_555
H6A C7A 1_555 1_555
H7A C10A 1_555 1_555
N6 C8 1_555 1_555
C3 C3A 1_555 1_555
C8 C9 1_555 1_555
C11 C12 1_555 1_555
C4A N2A 1_555 1_555
N1A Cu1A 1_555 1_555
N1A C2A 1_555 1_555
C8A C9A 1_555 1_555
N6A C7A 1_555 1_555
C11A C10A 1_555 1_555

#END
