
#######################################################################
#
#                 Cambridge Crystallographic Data Centre
#                                CCDC 
#
#######################################################################
#
# If this CIF has been generated from an entry in the Cambridge 
# Structural Database, then it will include bibliographic, chemical, 
# crystal, experimental, refinement or atomic coordinate data resulting 
# from the CCDC's data processing and validation procedures.
#
#######################################################################

data_DERJIT
_symmetry_cell_setting           monoclinic
_symmetry_space_group_name_H-M   'P 21/c'
_symmetry_Int_Tables_number      14
_space_group_name_Hall           '-P 2ybc'
loop_
_symmetry_equiv_pos_site_id
_symmetry_equiv_pos_as_xyz
1 x,y,z
2 -x,1/2+y,1/2-z
3 -x,-y,-z
4 x,1/2-y,1/2+z
_cell_length_a                   9.418(3)
_cell_length_b                   16.738(5)
_cell_length_c                   9.793(4)
_cell_angle_alpha                90
_cell_angle_beta                 115.68(2)
_cell_angle_gamma                90
_cell_volume                     1391.27
loop_
_atom_site_label
_atom_site_type_symbol
_atom_site_fract_x
_atom_site_fract_y
_atom_site_fract_z
Cl1 Cl -0.6129(2) -0.12140(7) 0.01575(13)
O1 O -0.6247(8) -0.1945(3) 0.0686(7)
O2 O -0.6957(10) -0.1146(4) -0.1374(6)
O3 O -0.4460(8) -0.1041(5) 0.0640(10)
O4 O -0.6411(12) -0.0614(5) 0.0967(9)
Na1 Na -0.6388(2) -0.00745(10) -0.2605(2)
O5 O -0.1414(3) 0.0743(2) 0.4747(3)
O6 O 0.1136(3) 0.0622(2) 0.6663(3)
C1 C 0.0097(5) 0.0446(2) 0.5143(5)
H1 H 0.0512(5) 0.0683(2) 0.4474(5)
C2 C -0.0495(6) -0.0572(3) 0.2259(5)
H2 H -0.1343(6) -0.0488(3) 0.1258(5)
H3 H 0.0207(6) -0.0115(3) 0.2499(5)
C3 C 0.0401(6) -0.1316(4) 0.2242(6)
H4 H 0.0397(6) -0.1463(4) 0.1325(6)
C4 C 0.1171(6) -0.1765(3) 0.3399(7)
H5 H 0.1588(6) -0.2237(3) 0.3224(7)
C5 C 0.1454(6) -0.1598(3) 0.4992(6)
H6 H 0.2472(6) -0.1810(3) 0.5680(6)
H7 H 0.0655(6) -0.1863(3) 0.5202(6)
O7 O -0.3914(4) -0.0732(2) 0.4524(4)
O8 O -0.4765(3) -0.0755(2) 0.6439(3)
C6 C -0.5044(5) -0.0448(3) 0.4996(5)
H8 H -0.6095(5) -0.0615(3) 0.4257(5)
C7 C -0.6833(6) 0.0870(3) 0.2476(6)
H9 H -0.6873(6) 0.0895(3) 0.1470(6)
H10 H -0.7454(6) 0.0414(3) 0.2506(6)
C8 C -0.7553(7) 0.1616(3) 0.2749(7)
H11 H -0.8305(7) 0.1874(3) 0.1904(7)
C9 C -0.7223(7) 0.1931(3) 0.4048(7)
H12 H -0.7707(7) 0.2414(3) 0.4057(7)
C10 C -0.6126(6) 0.1589(3) 0.5548(6)
H13 H -0.6470(6) 0.1746(3) 0.6310(6)
H14 H -0.5075(6) 0.1800(3) 0.5843(6)
O3B O -0.5540(8) 0.1041(5) -0.0640(10)
Cl1B Cl -0.3871(2) 0.12140(7) -0.01575(13)
O1B O -0.3753(8) 0.1945(3) -0.0686(7)
O2B O -0.3043(10) 0.1146(4) 0.1374(6)
Na1B Na -0.3612(2) 0.00745(10) 0.2605(2)
O5B O -0.8586(3) -0.0743(2) -0.4747(3)
O6_2 O -0.8864(3) 0.0622(2) -0.3337(3)
Na1_2 Na 0.3612(2) -0.00745(10) 0.7395(2)
O5B_2 O 0.1414(3) -0.0743(2) 0.5253(3)
C1B C -0.0097(5) -0.0446(2) 0.4857(5)
O6B O -0.1136(3) -0.0622(2) 0.3337(3)
O7B O -0.6086(4) 0.0732(2) -0.4524(4)
O8_2 O -0.4765(3) -0.0755(2) -0.3561(3)
Na1_3 Na -0.6388(2) -0.00745(10) 0.7395(2)
O7B_2 O -0.6086(4) 0.0732(2) 0.5476(4)
C6B C -0.4956(5) 0.0448(3) 0.5004(5)
O8B O -0.5235(3) 0.0755(2) 0.3561(3)
H8B H -0.3905(5) 0.0615(3) 0.5743(5)
C7B C -0.3167(6) -0.0870(3) 0.7524(6)
H9B H -0.3127(6) -0.0895(3) 0.8530(6)
H10B H -0.2546(6) -0.0414(3) 0.7494(6)
C8B C -0.2447(7) -0.1616(3) 0.7251(7)
H11B H -0.1695(7) -0.1874(3) 0.8096(7)
C9B C -0.2777(7) -0.1931(3) 0.5952(7)
H12B H -0.2293(7) -0.2414(3) 0.5943(7)
C10B C -0.3874(6) -0.1589(3) 0.4452(6)
H13B H -0.3530(6) -0.1746(3) 0.3690(6)
H14B H -0.4925(6) -0.1800(3) 0.4157(6)
H1B H -0.0512(5) -0.0683(2) 0.5526(5)
C2B C 0.0495(6) 0.0572(3) 0.7741(5)
H2B H 0.1343(6) 0.0488(3) 0.8742(5)
H3B H -0.0207(6) 0.0115(3) 0.7501(5)
C3B C -0.0401(6) 0.1316(4) 0.7758(6)
H4B H -0.0397(6) 0.1463(4) 0.8675(6)
C4B C -0.1171(6) 0.1765(3) 0.6601(7)
H5B H -0.1588(6) 0.2237(3) 0.6776(7)
C5B C -0.1454(6) 0.1598(3) 0.5008(6)
H6B H -0.2472(6) 0.1810(3) 0.4320(6)
H7B H -0.0655(6) 0.1863(3) 0.4798(6)
O4B O -0.3589(12) 0.0614(5) -0.0967(9)
loop_
_geom_bond_atom_site_label_1
_geom_bond_atom_site_label_2
_geom_bond_site_symmetry_1
_geom_bond_site_symmetry_2
Cl1 O1 1_555 1_555
O2 Cl1 1_555 1_555
O3 Cl1 1_555 1_555
O4 Cl1 1_555 1_555
Na1 O2 1_555 1_555
O5 C1 1_555 1_555
O6 C1 1_555 1_555
C1 H1 1_555 1_555
C2 H2 1_555 1_555
H3 C2 1_555 1_555
C3 C2 1_555 1_555
H4 C3 1_555 1_555
C4 C3 1_555 1_555
H5 C4 1_555 1_555
C5 C4 1_555 1_555
H6 C5 1_555 1_555
H7 C5 1_555 1_555
O7 C6 1_555 1_555
O8 C6 1_555 1_555
C6 H8 1_555 1_555
C7 H9 1_555 1_555
H10 C7 1_555 1_555
C8 C7 1_555 1_555
H11 C8 1_555 1_555
C9 C8 1_555 1_555
H12 C9 1_555 1_555
C10 C9 1_555 1_555
H13 C10 1_555 1_555
H14 C10 1_555 1_555
O3B Na1 1_555 1_555
Cl1B O3B 1_555 1_555
O1B Cl1B 1_555 1_555
O2B Cl1B 1_555 1_555
Na1B O3 1_555 1_555
O5B Na1 1_555 1_555
O6_2 Na1 1_555 1_555
Na1_2 O6 1_555 1_555
O5B_2 C5 1_555 1_555
C1B C1 1_555 1_555
O6B C2 1_555 1_555
O7B Na1 1_555 1_555
O8_2 Na1 1_555 1_555
Na1_3 O8 1_555 1_555
O7B_2 C10 1_555 1_555
C6B C6 1_555 1_555
O8B C7 1_555 1_555
H8B C6B 1_555 1_555
C7B O8 1_555 1_555
H9B C7B 1_555 1_555
H10B C7B 1_555 1_555
C8B C7B 1_555 1_555
H11B C8B 1_555 1_555
C9B C8B 1_555 1_555
H12B C9B 1_555 1_555
C10B O7 1_555 1_555
H13B C10B 1_555 1_555
H14B C10B 1_555 1_555
H1B C1B 1_555 1_555
C2B O6 1_555 1_555
H2B C2B 1_555 1_555
H3B C2B 1_555 1_555
C3B C2B 1_555 1_555
H4B C3B 1_555 1_555
C4B C3B 1_555 1_555
H5B C4B 1_555 1_555
C5B O5 1_555 1_555
H6B C5B 1_555 1_555
H7B C5B 1_555 1_555
O4B Na1 1_555 1_555
O4 Na1B 1_555 1_555
O5 Na1B 1_555 1_555
O7 Na1B 1_555 1_555
Cl1B O4B 1_555 1_555
O2B Na1B 1_555 1_555
Na1B O6B 1_555 1_555
Na1B O8B 1_555 1_555
Na1_2 O5B_2 1_555 1_555
O5B_2 C1B 1_555 1_555
C1B O6B 1_555 1_555
Na1_3 O7B_2 1_555 1_555
O7B_2 C6B 1_555 1_555
C6B O8B 1_555 1_555
C9B C10B 1_555 1_555
C4B C5B 1_555 1_555

#END
