
#######################################################################
#
#                 Cambridge Crystallographic Data Centre
#                                CCDC 
#
#######################################################################
#
# If this CIF has been generated from an entry in the Cambridge 
# Structural Database, then it will include bibliographic, chemical, 
# crystal, experimental, refinement or atomic coordinate data resulting 
# from the CCDC's data processing and validation procedures.
#
#######################################################################

data_DERYAB
_symmetry_cell_setting           monoclinic
_symmetry_space_group_name_H-M   'C 2'
_symmetry_Int_Tables_number      5
_space_group_name_Hall           'C 2y'
loop_
_symmetry_equiv_pos_site_id
_symmetry_equiv_pos_as_xyz
1 x,y,z
2 -x,y,-z
3 1/2+x,1/2+y,z
4 1/2-x,1/2+y,-z
_cell_length_a                   17.354(2)
_cell_length_b                   12.9180(14)
_cell_length_c                   6.4764(10)
_cell_angle_alpha                90
_cell_angle_beta                 111.685(4)
_cell_angle_gamma                90
_cell_volume                     1349.12
loop_
_atom_site_label
_atom_site_type_symbol
_atom_site_fract_x
_atom_site_fract_y
_atom_site_fract_z
Ni1 Ni 0.258412(19) 0.73689(2) 0.22861(5)
Zn1 Zn 0.0000 0.02421(3) 0.0000
O1 O 0.35297(11) 0.83991(13) 0.2986(3)
O2 O 0.28469(11) 0.98453(13) 0.1456(3)
O3 O 0.56898(13) 1.32368(15) 0.5742(3)
O4 O 0.15815(11) 0.64398(14) 0.1669(3)
O5 O 0.21708(11) 0.49879(14) 0.3484(3)
O6 O 0.06569(11) 0.16737(14) 0.1102(3)
O7 O 0.23541(11) 0.80243(15) 0.4971(3)
H1 H 0.2519 0.8635 0.5399
H2 H 0.2157 0.7678 0.5778
O8 O 0.34087(11) 0.62779(14) 0.4276(3)
H3 H 0.3059 0.5795 0.4110
H4 H 0.3635 0.6465 0.5626
O9 O 0.27741(11) 0.67585(14) -0.0499(3)
H5 H 0.3258 0.6824 -0.0522
H6 H 0.2577 0.6168 -0.1005
O10 O 0.17681(11) 0.84111(14) 0.0150(3)
H7 H 0.1553 0.8235 -0.1209
H8 H 0.2118 0.8898 0.0361
O11 O -0.05812(11) 0.01901(15) 0.2353(3)
H9 H -0.0794 0.0648 0.2922
H10 H -0.0549 -0.0358 0.3106
O12 O 0.08357(13) -0.07178(17) 0.2079(3)
H11 H 0.1149 -0.1096 0.1652
H12 H 0.0737 -0.1038 0.3102
C1 C 0.42702(16) 0.99745(19) 0.3907(4)
C2 C 0.42687(17) 1.1051(2) 0.3914(4)
H13 H 0.3767 1.1416 0.3175
C3 C 0.5000 1.1597(3) 0.5000
C4 C 0.5000 0.9450(3) 0.5000
H14 H 0.5000 0.8715 0.5000
C5 C 0.34880(15) 0.9364(2) 0.2699(4)
C6 C 0.5000 1.2756(3) 0.5000
C7 C 0.07372(16) 0.49353(19) 0.1069(4)
C8 C 0.07329(16) 0.3861(2) 0.1084(4)
H15 H 0.1232 0.3493 0.1838
C9 C 0.0000 0.3323(3) 0.0000
C10 C 0.0000 0.5469(3) 0.0000
H16 H 0.0000 0.6205 0.0000
C11 C 0.15575(16) 0.5495(2) 0.2156(4)
C12 C 0.0000 0.2182(3) 0.0000
Ni1A Ni -0.258412(19) 0.73689(2) -0.22861(5)
Ni1A_2 Ni 0.741588(19) 0.73689(2) 0.77139(5)
O1A O 0.64703(11) 0.83991(13) 0.7014(3)
O1A_2 O -0.35297(11) 0.83991(13) -0.2986(3)
O2A O 0.71531(11) 0.98453(13) 0.8544(3)
O3A O 0.43102(13) 1.32368(15) 0.4258(3)
O4A O -0.15815(11) 0.64398(14) -0.1669(3)
O5A O -0.21708(11) 0.49879(14) -0.3484(3)
O6A O -0.06569(11) 0.16737(14) -0.1102(3)
O7A O -0.23541(11) 0.80243(15) -0.4971(3)
H1A H -0.2519 0.8635 -0.5399
H2A H -0.2157 0.7678 -0.5778
O8A O -0.34087(11) 0.62779(14) -0.4276(3)
H3A H -0.3059 0.5795 -0.4110
H4A H -0.3635 0.6465 -0.5626
O9A O -0.27741(11) 0.67585(14) 0.0499(3)
H5A H -0.3258 0.6824 0.0522
H6A H -0.2577 0.6168 0.1005
O10A O -0.17681(11) 0.84111(14) -0.0150(3)
H7A H -0.1553 0.8235 0.1209
H8A H -0.2118 0.8898 -0.0361
O11A O 0.05812(11) 0.01901(15) -0.2353(3)
H9A H 0.0794 0.0648 -0.2922
H10A H 0.0549 -0.0358 -0.3106
O12A O -0.08357(13) -0.07178(17) -0.2079(3)
H11A H -0.1149 -0.1096 -0.1652
H12A H -0.0737 -0.1038 -0.3102
C1A C 0.57298(16) 0.99745(19) 0.6093(4)
C2A C 0.57313(17) 1.1051(2) 0.6086(4)
H13A H 0.6233 1.1416 0.6825
C5A C 0.65120(15) 0.9364(2) 0.7301(4)
C7A C -0.07372(16) 0.49353(19) -0.1069(4)
C8A C -0.07329(16) 0.3861(2) -0.1084(4)
H15A H -0.1232 0.3493 -0.1838
C11A C -0.15575(16) 0.5495(2) -0.2156(4)
loop_
_geom_bond_atom_site_label_1
_geom_bond_atom_site_label_2
_geom_bond_site_symmetry_1
_geom_bond_site_symmetry_2
Ni1 O1 1_555 1_555
Zn1 O6 1_555 1_555
O1 C5 1_555 1_555
O2 C5 1_555 1_555
O3 C6 1_555 1_555
O4 Ni1 1_555 1_555
O5 C11 1_555 1_555
O6 C12 1_555 1_555
O7 Ni1 1_555 1_555
H1 O7 1_555 1_555
H2 O7 1_555 1_555
O8 Ni1 1_555 1_555
H3 O8 1_555 1_555
H4 O8 1_555 1_555
O9 Ni1 1_555 1_555
H5 O9 1_555 1_555
H6 O9 1_555 1_555
O10 Ni1 1_555 1_555
H7 O10 1_555 1_555
H8 O10 1_555 1_555
O11 Zn1 1_555 1_555
H9 O11 1_555 1_555
H10 O11 1_555 1_555
O12 Zn1 1_555 1_555
H11 O12 1_555 1_555
H12 O12 1_555 1_555
C1 C2 1_555 1_555
C2 H13 1_555 1_555
C3 C2 1_555 1_555
C4 C1 1_555 1_555
H14 C4 1_555 1_555
C5 C1 1_555 1_555
C6 C3 1_555 1_555
C7 C8 1_555 1_555
C8 H15 1_555 1_555
C9 C8 1_555 1_555
C10 C7 1_555 1_555
H16 C10 1_555 1_555
C11 O4 1_555 1_555
C12 C9 1_555 1_555
Ni1A O1A_2 1_555 1_555
Ni1A_2 O1A 1_555 1_555
O1A C5A 1_555 1_555
O2A C5A 1_555 1_555
O3A C6 1_555 1_555
O4A Ni1A 1_555 1_555
O5A C11A 1_555 1_555
O6A Zn1 1_555 1_555
O7A Ni1A 1_555 1_555
H1A O7A 1_555 1_555
H2A O7A 1_555 1_555
O8A Ni1A 1_555 1_555
H3A O8A 1_555 1_555
H4A O8A 1_555 1_555
O9A Ni1A 1_555 1_555
H5A O9A 1_555 1_555
H6A O9A 1_555 1_555
O10A Ni1A 1_555 1_555
H7A O10A 1_555 1_555
H8A O10A 1_555 1_555
O11A Zn1 1_555 1_555
H9A O11A 1_555 1_555
H10A O11A 1_555 1_555
O12A Zn1 1_555 1_555
H11A O12A 1_555 1_555
H12A O12A 1_555 1_555
C1A C4 1_555 1_555
C2A C3 1_555 1_555
H13A C2A 1_555 1_555
C5A C1A 1_555 1_555
C7A C10 1_555 1_555
C8A C9 1_555 1_555
H15A C8A 1_555 1_555
C11A O4A 1_555 1_555
C7 C11 1_555 1_555
C12 O6A 1_555 1_555
C1A C2A 1_555 1_555
C7A C8A 1_555 1_555
C7A C11A 1_555 1_555

#END
