
#######################################################################
#
#                 Cambridge Crystallographic Data Centre
#                                CCDC 
#
#######################################################################
#
# If this CIF has been generated from an entry in the Cambridge 
# Structural Database, then it will include bibliographic, chemical, 
# crystal, experimental, refinement or atomic coordinate data resulting 
# from the CCDC's data processing and validation procedures.
#
#######################################################################

data_DERZEG
_symmetry_cell_setting           orthorhombic
_symmetry_space_group_name_H-M   'P b c n'
_symmetry_Int_Tables_number      60
_space_group_name_Hall           '-P 2n 2ab'
loop_
_symmetry_equiv_pos_site_id
_symmetry_equiv_pos_as_xyz
1 x,y,z
2 1/2-x,1/2-y,1/2+z
3 -x,y,1/2-z
4 1/2+x,1/2-y,-z
5 -x,-y,-z
6 1/2+x,1/2+y,1/2-z
7 x,-y,1/2+z
8 1/2-x,1/2+y,z
_cell_length_a                   19.8990(17)
_cell_length_b                   9.1119(8)
_cell_length_c                   12.2503(10)
_cell_angle_alpha                90
_cell_angle_beta                 90
_cell_angle_gamma                90
_cell_volume                     2221.2
loop_
_atom_site_label
_atom_site_type_symbol
_atom_site_fract_x
_atom_site_fract_y
_atom_site_fract_z
Co1 Co 0.0000 0.0000 0.5000
S1 S 0.0000 0.15838(5) 0.2500
O1 O 0.02686(5) 0.06275(11) 0.33813(8)
O2 O 0.05468(7) 0.25025(12) 0.20701(9)
O3 O -0.09417(6) 0.11268(14) 0.47636(10)
N1 N 0.04398(6) 0.19203(13) 0.56459(9)
N2 N 0.08122(6) 0.35285(13) 0.68491(9)
N3 N 0.18619(8) 0.3017(2) 0.90174(14)
C1 C 0.06311(7) 0.21246(16) 0.66704(12)
H1 H 0.0639 0.1392 0.7199
C2 C 0.05077(9) 0.32689(17) 0.51481(12)
H2 H 0.0411 0.3464 0.4420
C3 C 0.07359(9) 0.42650(17) 0.58766(13)
H3 H 0.0824 0.5252 0.5746
C4 C 0.10143(8) 0.41573(18) 0.79025(13)
H4 H 0.0736 0.3742 0.8475
H5 H 0.0936 0.5208 0.7889
C5 C 0.17443(8) 0.38725(18) 0.81676(13)
C6 C 0.22562(12) 0.4479(3) 0.7552(2)
H6 H 0.2158 0.5062 0.6950
C7 C 0.29124(12) 0.4212(4) 0.7841(3)
H7 H 0.3263 0.4596 0.7428
C8 C 0.30417(12) 0.3392(4) 0.8724(3)
H8 H 0.3482 0.3231 0.8951
C9 C 0.25149(14) 0.2798(4) 0.9282(3)
H9 H 0.2610 0.2207 0.9881
H10 H -0.1165(11) 0.158(2) 0.5244(13)
H11 H -0.0871(11) 0.161(2) 0.4186(11)
Co1F Co 0.0000 0.0000 0.0000
O1B O -0.02686(5) 0.06275(11) 0.16187(8)
O1D O -0.02686(5) -0.06275(11) 0.66187(8)
O2B O -0.05468(7) 0.25025(12) 0.29299(9)
O3D O 0.09417(6) -0.11268(14) 0.52364(10)
N1D N -0.04398(6) -0.19203(13) 0.43541(9)
N2D N -0.08122(6) -0.35285(13) 0.31509(9)
N3D N -0.18619(8) -0.3017(2) 0.09826(14)
C1D C -0.06311(7) -0.21246(16) 0.33296(12)
H1D H -0.0639 -0.1392 0.2801
C2D C -0.05077(9) -0.32689(17) 0.48519(12)
H2D H -0.0411 -0.3464 0.5580
C3D C -0.07359(9) -0.42650(17) 0.41234(13)
H3D H -0.0824 -0.5252 0.4254
C4D C -0.10143(8) -0.41573(18) 0.20975(13)
H4D H -0.0736 -0.3742 0.1525
H5D H -0.0936 -0.5208 0.2111
C5D C -0.17443(8) -0.38725(18) 0.18324(13)
C6D C -0.22562(12) -0.4479(3) 0.2448(2)
H6D H -0.2158 -0.5062 0.3050
C7D C -0.29124(12) -0.4212(4) 0.2159(3)
H7D H -0.3263 -0.4596 0.2572
C8D C -0.30417(12) -0.3392(4) 0.1276(3)
H8D H -0.3482 -0.3231 0.1049
C9D C -0.25149(14) -0.2798(4) 0.0718(3)
H9D H -0.2610 -0.2207 0.0119
H10D H 0.1165(11) -0.158(2) 0.4756(13)
H11D H 0.0871(11) -0.161(2) 0.5814(11)
loop_
_geom_bond_atom_site_label_1
_geom_bond_atom_site_label_2
_geom_bond_site_symmetry_1
_geom_bond_site_symmetry_2
Co1 O1 1_555 1_555
S1 O1 1_555 1_555
O2 S1 1_555 1_555
O3 Co1 1_555 1_555
N1 Co1 1_555 1_555
N2 C1 1_555 1_555
N3 C5 1_555 1_555
C1 N1 1_555 1_555
H1 C1 1_555 1_555
C2 N1 1_555 1_555
H2 C2 1_555 1_555
C3 N2 1_555 1_555
H3 C3 1_555 1_555
C4 N2 1_555 1_555
H4 C4 1_555 1_555
H5 C4 1_555 1_555
C5 C4 1_555 1_555
C6 C5 1_555 1_555
H6 C6 1_555 1_555
C7 C6 1_555 1_555
H7 C7 1_555 1_555
C8 C7 1_555 1_555
H8 C8 1_555 1_555
C9 N3 1_555 1_555
H9 C9 1_555 1_555
H10 O3 1_555 1_555
H11 O3 1_555 1_555
Co1F O1B 1_555 1_555
O1B S1 1_555 1_555
O1D Co1 1_555 1_555
O2B S1 1_555 1_555
O3D Co1 1_555 1_555
N1D Co1 1_555 1_555
N2D C1D 1_555 1_555
N3D C5D 1_555 1_555
C1D N1D 1_555 1_555
H1D C1D 1_555 1_555
C2D N1D 1_555 1_555
H2D C2D 1_555 1_555
C3D N2D 1_555 1_555
H3D C3D 1_555 1_555
C4D N2D 1_555 1_555
H4D C4D 1_555 1_555
H5D C4D 1_555 1_555
C5D C4D 1_555 1_555
C6D C5D 1_555 1_555
H6D C6D 1_555 1_555
C7D C6D 1_555 1_555
H7D C7D 1_555 1_555
C8D C7D 1_555 1_555
H8D C8D 1_555 1_555
C9D N3D 1_555 1_555
H9D C9D 1_555 1_555
H10D O3D 1_555 1_555
H11D O3D 1_555 1_555
C2 C3 1_555 1_555
C8 C9 1_555 1_555
C2D C3D 1_555 1_555
C8D C9D 1_555 1_555

#END
