
#######################################################################
#
#                 Cambridge Crystallographic Data Centre
#                                CCDC 
#
#######################################################################
#
# If this CIF has been generated from an entry in the Cambridge 
# Structural Database, then it will include bibliographic, chemical, 
# crystal, experimental, refinement or atomic coordinate data resulting 
# from the CCDC's data processing and validation procedures.
#
#######################################################################

data_DESDAH
_symmetry_cell_setting           orthorhombic
_symmetry_space_group_name_H-M   'P b c a'
_symmetry_Int_Tables_number      61
_space_group_name_Hall           '-P 2ac 2ab'
loop_
_symmetry_equiv_pos_site_id
_symmetry_equiv_pos_as_xyz
1 x,y,z
2 1/2-x,-y,1/2+z
3 1/2+x,1/2-y,-z
4 -x,1/2+y,1/2-z
5 -x,-y,-z
6 1/2+x,y,1/2-z
7 1/2-x,1/2+y,z
8 x,1/2-y,1/2+z
_cell_length_a                   13.496(3)
_cell_length_b                   9.5681(19)
_cell_length_c                   25.706(5)
_cell_angle_alpha                90
_cell_angle_beta                 90
_cell_angle_gamma                90
_cell_volume                     3319.44
loop_
_atom_site_label
_atom_site_type_symbol
_atom_site_fract_x
_atom_site_fract_y
_atom_site_fract_z
Co1 Co 0.467068(14) 0.22567(2) 0.637350(7)
O1 O 0.43620(10) 0.24640(12) 0.71676(4)
H1 H 0.4551(15) 0.1698(11) 0.7298(7)
H2 H 0.4628(14) 0.3148(13) 0.7318(7)
O2 O 0.31968(9) 0.22338(12) 0.61176(5)
H3 H 0.2849(14) 0.1579(14) 0.6245(8)
H4 H 0.2958(15) 0.3021(11) 0.6198(8)
O3 O 0.46593(8) 0.44249(12) 0.63445(4)
O4 O 0.30514(10) 0.49898(14) 0.63282(7)
O5 O 0.47544(11) 0.96246(12) 0.72848(4)
O6 O 0.45049(9) 1.01074(12) 0.64412(4)
N1 N 0.62239(10) 0.18997(15) 0.65123(5)
N2 N 0.52484(10) 0.20115(14) 0.56077(5)
C1 C 0.66868(14) 0.1810(3) 0.69653(8)
H5 H 0.6374 0.2162 0.7260
C2 C 0.76235(17) 0.1210(3) 0.70211(9)
H6 H 0.7915 0.1146 0.7348
C3 C 0.81076(15) 0.0720(3) 0.65950(10)
H7 H 0.8736 0.0330 0.6627
C4 C 0.76498(13) 0.0806(2) 0.61045(8)
C5 C 0.80941(16) 0.0324(2) 0.56306(9)
H8 H 0.8723 -0.0073 0.5640
C6 C 0.76210(17) 0.0435(2) 0.51723(9)
H9 H 0.7929 0.0115 0.4872
C7 C 0.66494(15) 0.1038(2) 0.51375(7)
C8 C 0.61162(18) 0.1192(2) 0.46738(7)
H10 H 0.6398 0.0922 0.4359
C9 C 0.51913(19) 0.1733(3) 0.46842(7)
H11 H 0.4837 0.1845 0.4377
C10 C 0.47671(15) 0.2124(2) 0.51609(7)
H12 H 0.4124 0.2475 0.5163
C11 C 0.61817(12) 0.14956(16) 0.55971(6)
C12 C 0.66996(12) 0.14017(17) 0.60844(6)
C13 C 0.39424(12) 0.52396(16) 0.64031(6)
C14 C 0.41926(12) 0.66609(16) 0.65760(6)
C15 C 0.43759(13) 0.78293(16) 0.67008(6)
C16 C 0.45650(12) 0.93090(16) 0.68240(6)
Co1_2 Co 0.467068(14) 1.22567(2) 0.637350(7)
O6_2 O 0.45049(9) 0.01074(12) 0.64412(4)
loop_
_geom_bond_atom_site_label_1
_geom_bond_atom_site_label_2
_geom_bond_site_symmetry_1
_geom_bond_site_symmetry_2
Co1 O1 1_555 1_555
O1 H1 1_555 1_555
H2 O1 1_555 1_555
O2 Co1 1_555 1_555
H3 O2 1_555 1_555
H4 O2 1_555 1_555
O3 Co1 1_555 1_555
O4 C13 1_555 1_555
O5 C16 1_555 1_555
O6 C16 1_555 1_555
N1 Co1 1_555 1_555
N2 Co1 1_555 1_555
C1 N1 1_555 1_555
H5 C1 1_555 1_555
C2 C1 1_555 1_555
H6 C2 1_555 1_555
C3 C2 1_555 1_555
H7 C3 1_555 1_555
C4 C3 1_555 1_555
C5 C4 1_555 1_555
H8 C5 1_555 1_555
C6 C5 1_555 1_555
H9 C6 1_555 1_555
C7 C6 1_555 1_555
C8 C7 1_555 1_555
H10 C8 1_555 1_555
C9 C8 1_555 1_555
H11 C9 1_555 1_555
C10 N2 1_555 1_555
H12 C10 1_555 1_555
C11 N2 1_555 1_555
C12 N1 1_555 1_555
C13 O3 1_555 1_555
C14 C13 1_555 1_555
C15 C14 1_555 1_555
C16 C15 1_555 1_555
Co1_2 O6 1_555 1_555
O6_2 Co1 1_555 1_555
C4 C12 1_555 1_555
C7 C11 1_555 1_555
C9 C10 1_555 1_555
C11 C12 1_555 1_555

#END
