
#######################################################################
#
#                 Cambridge Crystallographic Data Centre
#                                CCDC 
#
#######################################################################
#
# If this CIF has been generated from an entry in the Cambridge 
# Structural Database, then it will include bibliographic, chemical, 
# crystal, experimental, refinement or atomic coordinate data resulting 
# from the CCDC's data processing and validation procedures.
#
#######################################################################

data_DESKES
_symmetry_cell_setting           triclinic
_symmetry_space_group_name_H-M   'P -1'
_symmetry_Int_Tables_number      2
_space_group_name_Hall           '-P 1'
loop_
_symmetry_equiv_pos_site_id
_symmetry_equiv_pos_as_xyz
1 x,y,z
2 -x,-y,-z
_cell_length_a                   9.031(2)
_cell_length_b                   10.759(3)
_cell_length_c                   13.648(3)
_cell_angle_alpha                64.11(3)
_cell_angle_beta                 73.56(3)
_cell_angle_gamma                87.52(3)
_cell_volume                     1139.27
loop_
_atom_site_label
_atom_site_type_symbol
_atom_site_fract_x
_atom_site_fract_y
_atom_site_fract_z
Pb1 Pb 0.46863(7) 0.22524(8) 0.41969(7)
Pb2 Pb 0.93941(8) 0.09088(8) 0.34944(7)
O1 O 0.929(2) 0.237(2) 0.1343(15)
O2 O 0.7361(16) 0.2108(15) 0.2844(13)
C1 C 0.810(2) 0.275(3) 0.173(2)
C2 C 0.740(2) 0.400(2) 0.104(2)
C3 C 0.798(3) 0.489(3) -0.013(2)
H1 H 0.8854 0.4850 -0.0670
C4 C 0.687(3) 0.584(3) -0.0266(3)
H2 H 0.6844 0.6558 -0.0959
C5 C 0.590(3) 0.560(3) 0.068(2)
H3 H 0.5105 0.6142 0.0786
O3 O 0.617(2) 0.4412(17) 0.1533(12)
O4 O 0.8497(17) 0.0830(16) 0.5451(13)
O5 O 0.613(17) 0.0388(16) 0.5391(14)
C6 C 0.706(2) 0.042(2) 0.592(2)
C7 C 0.638(2) -0.0033(2) 0.713(2)
C8 C 0.496(3) -0.031(2) 0.782(3)
H4 H 0.4050 -0.0315 0.7625
C9 C 0.505(4) -0.0602(3) 0.887(3)
H5 H 0.4202 -0.0785 0.9512
C10 C 0.650(4) -0.058(3) 0.886(3)
H6 H 0.6847 -0.0838 0.9490
O6 O 0.744(2) -0.011(2) 0.7733(14)
O7 O 0.3838(18) 0.3123(18) 0.5765(15)
O8 O 0.2488(17) 0.1286(15) 0.6075(15)
C11 C 0.280(2) 0.218(3) 0.636(2)
C12 C 0.182(2) 0.208(2) 0.7496(18)
C13 C 0.052(3) 0.134(3) 0.820(3)
H7 H -0.0009 0.0675 0.8129
C14 C 0.011(4) 0.173(4) 0.906(3)
H8 H -0.0745 0.1349 0.9705
C15 C 0.107(4) 0.268(4) 0.885(3)
H9 H 0.1023 0.3114 0.9316
O9 O 0.222(2) 0.299(2) 0.784(2)
O10 O -0.0085(16) 0.3259(14) 0.3179(13)
O11 O 0.2116(16) 0.243(5) 0.3428(17)
C16 C 0.125(2) 0.333(2) 0.334(17)
C17 C 0.172(3) 0.460(2) 0.336(2)
C18 C 0.089(3) 0.564(4) 0.340(3)
H10 H -0.0120 0.5777 0.3361
C19 C 0.196(4) 0.652(3) 0.353(3)
H11 H 0.1751 0.7332 0.3606
C20 C 0.326(4) 0.594(3) 0.353(3)
H12 H 0.4125 0.6273 0.3621
O12 O 0.3149(17) 0.4774(16) 0.3382(16)
O13 O 0.6807(17) 0.3894(16) 0.4067(18)
H13 H 0.76(2) 0.38(2) 0.34(2)
H14 H 0.70(3) 0.48(1) 0.39(2)
Pb1A Pb 0.53137(7) -0.22524(8) 0.58031(7)
Pb2A Pb 1.06059(8) -0.09088(8) 0.65056(7)
Pb2A_2 Pb 0.06059(8) -0.09088(8) 0.65056(7)
Pb2_2 Pb -0.06059(8) 0.09088(8) 0.34944(7)
O4A O 1.1503(17) -0.0830(16) 0.4549(13)
O5A O 0.387(17) -0.0388(16) 0.4609(14)
O6A O 1.256(2) 0.011(2) 0.2267(14)
O8A O 0.7512(17) -0.1286(15) 0.3925(15)
O10_2 O 0.9915(16) 0.3259(14) 0.3179(13)
O11_2 O 1.2116(16) 0.243(5) 0.3428(17)
loop_
_geom_bond_atom_site_label_1
_geom_bond_atom_site_label_2
_geom_bond_site_symmetry_1
_geom_bond_site_symmetry_2
Pb1 O2 1_555 1_555
Pb2 O1 1_555 1_555
O1 C1 1_555 1_555
O2 Pb2 1_555 1_555
C1 O2 1_555 1_555
C2 C1 1_555 1_555
C3 C2 1_555 1_555
H1 C3 1_555 1_555
C4 C3 1_555 1_555
H2 C4 1_555 1_555
C5 C4 1_555 1_555
H3 C5 1_555 1_555
O3 C2 1_555 1_555
O4 Pb2 1_555 1_555
O5 Pb1 1_555 1_555
C6 O4 1_555 1_555
C7 C6 1_555 1_555
C8 C7 1_555 1_555
H4 C8 1_555 1_555
C9 C8 1_555 1_555
H5 C9 1_555 1_555
C10 C9 1_555 1_555
H6 C10 1_555 1_555
O6 C7 1_555 1_555
O7 Pb1 1_555 1_555
O8 Pb1 1_555 1_555
C11 O7 1_555 1_555
C12 C11 1_555 1_555
C13 C12 1_555 1_555
H7 C13 1_555 1_555
C14 C13 1_555 1_555
H8 C14 1_555 1_555
C15 C14 1_555 1_555
H9 C15 1_555 1_555
O9 C12 1_555 1_555
O10 C16 1_555 1_555
O11 Pb1 1_555 1_555
C16 O11 1_555 1_555
C17 C16 1_555 1_555
C18 C17 1_555 1_555
H10 C18 1_555 1_555
C19 C18 1_555 1_555
H11 C19 1_555 1_555
C20 C19 1_555 1_555
H12 C20 1_555 1_555
O12 Pb1 1_555 1_555
O13 Pb1 1_555 1_555
H13 O13 1_555 1_555
H14 O13 1_555 1_555
Pb1A O5 1_555 1_555
Pb2A O4 1_555 1_555
Pb2A_2 O8 1_555 1_555
Pb2_2 O10 1_555 1_555
O4A Pb2 1_555 1_555
O5A Pb1 1_555 1_555
O6A Pb2 1_555 1_555
O8A Pb2 1_555 1_555
O10_2 Pb2 1_555 1_555
O11_2 Pb2 1_555 1_555
C5 O3 1_555 1_555
O5 C6 1_555 1_555
C10 O6 1_555 1_555
O6 Pb2A 1_555 1_555
O8 C11 1_555 1_555
C15 O9 1_555 1_555
O11 Pb2_2 1_555 1_555
C17 O12 1_555 1_555
C20 O12 1_555 1_555
Pb1A O5A 1_555 1_555
Pb1A O8A 1_555 1_555
Pb2A O4A 1_555 1_555

#END
