
#######################################################################
#
#                 Cambridge Crystallographic Data Centre
#                                CCDC 
#
#######################################################################
#
# If this CIF has been generated from an entry in the Cambridge 
# Structural Database, then it will include bibliographic, chemical, 
# crystal, experimental, refinement or atomic coordinate data resulting 
# from the CCDC's data processing and validation procedures.
#
#######################################################################

data_DESTIF
_symmetry_cell_setting           monoclinic
_symmetry_space_group_name_H-M   'P 21/c'
_symmetry_Int_Tables_number      14
_space_group_name_Hall           '-P 2ybc'
loop_
_symmetry_equiv_pos_site_id
_symmetry_equiv_pos_as_xyz
1 x,y,z
2 -x,1/2+y,1/2-z
3 -x,-y,-z
4 x,1/2-y,1/2+z
_cell_length_a                   21.831(4)
_cell_length_b                   13.3470(19)
_cell_length_c                   18.266(3)
_cell_angle_alpha                90
_cell_angle_beta                 111.330(2)
_cell_angle_gamma                90
_cell_volume                     4957.74
loop_
_atom_site_label
_atom_site_type_symbol
_atom_site_fract_x
_atom_site_fract_y
_atom_site_fract_z
Cu1 Cu 0.13062(4) -0.42009(6) 1.20617(5)
Cu2 Cu 0.24403(4) -0.48920(6) 1.32039(5)
Cu3 Cu 0.31678(5) -0.45999(7) 1.23870(5)
Cu4 Cu 0.40710(4) -0.63915(6) 1.22347(5)
Cu5 Cu 0.26013(4) -0.28313(7) 0.47869(5)
Cu6 Cu 0.08045(5) 0.25238(9) -0.16364(5)
Br1 Br 0.02002(4) -0.37630(6) 1.13246(5)
Br2 Br 0.21077(3) -0.38829(5) 1.15006(4)
Br3 Br 0.14196(4) -0.48500(5) 1.33475(4)
Br4 Br 0.32658(4) -0.36378(5) 1.37164(4)
Br5 Br 0.28638(3) -0.63234(4) 1.27499(4)
Br6 Br 0.41787(4) -0.43786(5) 1.22082(4)
N1 N 0.5265(2) -0.7428(4) 1.4369(3)
N2 N 0.4599(3) -0.6654(4) 1.3318(3)
N3 N 0.3702(3) -0.6808(4) 1.1152(3)
N4 N 0.3141(3) -0.6849(4) 0.9870(3)
N5 N 0.3824(2) -0.3747(3) 0.6907(3)
N6 N 0.3226(3) -0.3444(4) 0.5671(3)
N7 N 0.1916(3) -0.2057(4) 0.4095(3)
N8 N 0.1187(2) -0.1427(4) 0.3023(3)
N9 N 0.2080(3) 0.2194(4) 0.0589(3)
N10 N 0.1374(3) 0.2599(5) -0.0569(3)
N11 N 0.0399(3) 0.2366(4) -0.2734(3)
N12 N -0.0184(2) 0.2703(4) -0.3967(3)
C1 C 0.4890(3) -0.9102(5) 1.5308(4)
H1 H 0.4812 -0.8501 1.5517
C2 C 0.5439(3) -1.0037(4) 1.4619(3)
H2 H 0.5735 -1.0066 1.4360
C3 C 0.5331(3) -0.9135(4) 1.4927(3)
C4 C 0.5706(3) -0.8212(5) 1.4849(4)
H3 H 0.5950 -0.7946 1.5368
H4 H 0.6020 -0.8398 1.4609
C5 C 0.5007(3) -0.7421(4) 1.3580(4)
H5 H 0.5102 -0.7890 1.3260
C6 C 0.5010(3) -0.6624(5) 1.4627(4)
H6 H 0.5102 -0.6442 1.5148
C7 C 0.4599(3) -0.6141(5) 1.3980(4)
H7 H 0.4358 -0.5566 1.3981
C8 C 0.3270(3) -0.6339(4) 1.0554(3)
H8 H 0.3077 -0.5731 1.0594
C9 C 0.3853(3) -0.7672(5) 1.0837(4)
H9 H 0.4143 -0.8163 1.1125
C10 C 0.3523(3) -0.7706(5) 1.0059(4)
H10 H 0.3546 -0.8206 0.9716
C11 C 0.2720(3) -0.6522(5) 0.9086(4)
H11 H 0.2334 -0.6193 0.9118
H12 H 0.2573 -0.7104 0.8750
C12 C 0.3065(3) -0.5814(5) 0.8723(3)
C13 C 0.3575(3) -0.6140(4) 0.8494(3)
H13 H 0.3699 -0.6811 0.8548
C14 C 0.3900(3) -0.5458(4) 0.8185(3)
H14 H 0.4242 -0.5676 0.8036
C15 C 0.3716(3) -0.4447(4) 0.8098(3)
C16 C 0.3196(3) -0.4145(4) 0.8308(3)
H15 H 0.3059 -0.3480 0.8237
C17 C 0.2878(3) -0.4813(5) 0.8621(4)
H16 H 0.2535 -0.4593 0.8766
C18 C 0.4071(3) -0.3713(5) 0.7768(4)
H17 H 0.4015 -0.3042 0.7937
H18 H 0.4537 -0.3866 0.7972
C19 C 0.3361(3) -0.3149(5) 0.6416(4)
H19 H 0.3164 -0.2612 0.6569
C20 C 0.3987(3) -0.4455(5) 0.6460(4)
H20 H 0.4294 -0.4966 0.6644
C21 C 0.3612(3) -0.4261(5) 0.5701(4)
H21 H 0.3617 -0.4625 0.5269
C22 C 0.1680(3) -0.2087(4) 0.3329(4)
H22 H 0.1834 -0.2512 0.3031
C23 C 0.1557(4) -0.1319(5) 0.4293(4)
H23 H 0.1613 -0.1124 0.4802
C24 C 0.1113(3) -0.0926(5) 0.3631(4)
H24 H 0.0815 -0.0414 0.3598
C25 C 0.0868(3) -0.1189(5) 0.2176(4)
H25 H 0.0443 -0.0881 0.2080
H26 H 0.0797 -0.1802 0.1871
C26 C 0.1287(3) -0.0491(4) 0.1921(3)
C27 C 0.1689(3) -0.0836(4) 0.1536(4)
H27 H 0.1692 -0.1515 0.1422
C28 C 0.2084(3) -0.0182(5) 0.1319(3)
H28 H 0.2345 -0.0422 0.1054
C29 C 0.2093(3) 0.0834(4) 0.1496(3)
C30 C 0.1705(3) 0.1179(4) 0.1892(4)
H29 H 0.1715 0.1853 0.2022
C31 C 0.1300(3) 0.0527(5) 0.2096(4)
H30 H 0.1034 0.0772 0.2353
C32 C 0.2503(3) 0.1553(5) 0.1233(4)
H31 H 0.2761 0.1970 0.1672
H32 H 0.2805 0.1181 0.1055
C33 C 0.1782(3) 0.1898(6) -0.0167(4)
H33 H 0.1855 0.1291 -0.0372
C34 C 0.1845(3) 0.3115(5) 0.0660(4)
H34 H 0.1960 0.3498 0.1115
C35 C 0.1412(3) 0.3367(6) -0.0056(4)
H35 H 0.1178 0.3965 -0.0181
C36 C -0.0071(3) 0.2931(5) -0.3215(4)
H36 H -0.0295 0.3424 -0.3053
C37 C 0.0582(4) 0.1734(6) -0.3206(5)
H37 H 0.0899 0.1236 -0.3025
C38 C 0.0232(3) 0.1933(5) -0.3983(4)
H38 H 0.0266 0.1620 -0.4421
C39 C -0.0628(3) 0.3237(5) -0.4650(3)
H39 H -0.1016 0.3443 -0.4549
H40 H -0.0768 0.2789 -0.5099
C40 C -0.0305(3) 0.4148(4) -0.4843(3)
C41 C -0.0493(3) 0.5100(5) -0.4695(4)
H41 H -0.0821 0.5172 -0.4488
C42 C 0.0190(3) 0.4053(5) -0.5144(3)
H42 H 0.0322 0.3420 -0.5239
Cu1B Cu 0.86938(4) -1.57991(6) 1.79383(5)
Cu2B Cu 0.75597(4) -1.51080(6) 1.67961(5)
Cu3B Cu 0.68322(5) -1.54001(7) 1.76130(5)
Cu4B Cu 0.59290(4) -1.36085(6) 1.77653(5)
Cu5B Cu 0.73987(4) -1.71687(7) 2.52131(5)
Cu6B Cu 0.91955(5) -2.25238(9) 3.16364(5)
Cu6B_2 Cu -0.08045(5) 0.74762(9) -0.83636(5)
Br1B Br 0.97998(4) -1.62370(6) 1.86754(5)
Br2B Br 0.78923(3) -1.61171(5) 1.84994(4)
Br3B Br 0.85804(4) -1.51500(5) 1.66525(4)
Br4B Br 0.67342(4) -1.63622(5) 1.62836(4)
Br5B Br 0.71362(3) -1.36766(4) 1.72501(4)
Br6B Br 0.58213(4) -1.56214(5) 1.77918(4)
N1B N 0.4735(2) -1.2572(4) 1.5631(3)
N2B N 0.5401(3) -1.3346(4) 1.6682(3)
N3B N 0.6298(3) -1.3192(4) 1.8848(3)
N4B N 0.6859(3) -1.3151(4) 2.0130(3)
N5B N 0.6176(2) -1.6253(3) 2.3093(3)
N6B N 0.6774(3) -1.6556(4) 2.4329(3)
N7B N 0.8084(3) -1.7943(4) 2.5905(3)
N8B N 0.8813(2) -1.8573(4) 2.6977(3)
N9B N 0.7920(3) -2.2194(4) 2.9411(3)
N10B N 0.8626(3) -2.2599(5) 3.0569(3)
N11B N -0.0399(3) 0.7634(4) -0.7266(3)
N11B_2 N 0.9601(3) -2.2366(4) 3.2734(3)
N12B N 0.0184(2) 0.7297(4) -0.6033(3)
C1B C 0.5110(3) -1.0898(5) 1.4692(4)
H1B H 0.5188 -1.1499 1.4483
C2B C 0.4561(3) -0.9963(4) 1.5381(3)
H2B H 0.4265 -0.9934 1.5640
C3B C 0.4669(3) -1.0865(4) 1.5073(3)
C4B C 0.4294(3) -1.1788(5) 1.5151(4)
H3B H 0.4050 -1.2054 1.4632
H4B H 0.3980 -1.1602 1.5391
C5B C 0.4993(3) -1.2579(4) 1.6420(4)
H5B H 0.4898 -1.2110 1.6740
C6B C 0.4990(3) -1.3376(5) 1.5373(4)
H6B H 0.4898 -1.3558 1.4852
C7B C 0.5401(3) -1.3859(5) 1.6020(4)
H7B H 0.5642 -1.4434 1.6019
C8B C 0.6730(3) -1.3661(4) 1.9446(3)
H8B H 0.6923 -1.4269 1.9406
C9B C 0.6147(3) -1.2328(5) 1.9163(4)
H9B H 0.5857 -1.1837 1.8875
C10B C 0.6477(3) -1.2294(5) 1.9941(4)
H10B H 0.6454 -1.1794 2.0284
C11B C 0.7280(3) -1.3478(5) 2.0914(4)
H11B H 0.7666 -1.3807 2.0882
H12B H 0.7427 -1.2896 2.1250
C12B C 0.6935(3) -1.4186(5) 2.1277(3)
C13B C 0.6425(3) -1.3860(4) 2.1506(3)
H13B H 0.6301 -1.3189 2.1452
C14B C 0.6100(3) -1.4542(4) 2.1815(3)
H14B H 0.5758 -1.4324 2.1964
C15B C 0.6284(3) -1.5553(4) 2.1902(3)
C16B C 0.6804(3) -1.5855(4) 2.1692(3)
H15B H 0.6941 -1.6520 2.1763
C17B C 0.7122(3) -1.5187(5) 2.1379(4)
H16B H 0.7465 -1.5407 2.1234
C18B C 0.5929(3) -1.6287(5) 2.2232(4)
H17B H 0.5985 -1.6958 2.2063
H18B H 0.5463 -1.6134 2.2028
C19B C 0.6639(3) -1.6851(5) 2.3584(4)
H19B H 0.6836 -1.7388 2.3431
C20B C 0.6013(3) -1.5545(5) 2.3540(4)
H20B H 0.5706 -1.5034 2.3356
C21B C 0.6388(3) -1.5739(5) 2.4299(4)
H21B H 0.6383 -1.5375 2.4731
C22B C 0.8320(3) -1.7913(4) 2.6671(4)
H22B H 0.8166 -1.7488 2.6969
C23B C 0.8443(4) -1.8681(5) 2.5707(4)
H23B H 0.8387 -1.8876 2.5198
C24B C 0.8887(3) -1.9074(5) 2.6369(4)
H24B H 0.9185 -1.9586 2.6402
C25B C 0.9132(3) -1.8811(5) 2.7824(4)
H25B H 0.9557 -1.9119 2.7920
H26B H 0.9203 -1.8198 2.8129
C26B C 0.8713(3) -1.9509(4) 2.8079(3)
C27B C 0.8311(3) -1.9164(4) 2.8464(4)
H27B H 0.8308 -1.8485 2.8578
C28B C 0.7916(3) -1.9818(5) 2.8681(3)
H28B H 0.7655 -1.9578 2.8946
C29B C 0.7907(3) -2.0834(4) 2.8504(3)
C30B C 0.8295(3) -2.1179(4) 2.8108(4)
H29B H 0.8285 -2.1853 2.7978
C31B C 0.8700(3) -2.0527(5) 2.7904(4)
H30B H 0.8966 -2.0772 2.7647
C32B C 0.7497(3) -2.1553(5) 2.8767(4)
H31B H 0.7239 -2.1970 2.8328
H32B H 0.7195 -2.1181 2.8945
C33B C 0.8218(3) -2.1898(6) 3.0167(4)
H33B H 0.8145 -2.1291 3.0372
C34B C 0.8155(3) -2.3115(5) 2.9340(4)
H34B H 0.8040 -2.3498 2.8885
C35B C 0.8588(3) -2.3367(6) 3.0056(4)
H35B H 0.8822 -2.3965 3.0181
C36B C 0.0071(3) 0.7069(5) -0.6785(4)
H36B H 0.0295 0.6576 -0.6947
C37B C -0.0582(4) 0.8266(6) -0.6794(5)
H37B H -0.0899 0.8764 -0.6975
C38B C -0.0232(3) 0.8067(5) -0.6017(4)
H38B H -0.0266 0.8380 -0.5579
C39B C 0.0628(3) 0.6763(5) -0.5350(3)
H39B H 0.1016 0.6557 -0.5451
H40B H 0.0768 0.7211 -0.4901
C40B C 0.0305(3) 0.5852(4) -0.5157(3)
C41B C 0.0493(3) 0.4900(5) -0.5305(4)
H41B H 0.0821 0.4828 -0.5512
C42B C -0.0190(3) 0.5947(5) -0.4856(3)
H42B H -0.0322 0.6580 -0.4761
loop_
_geom_bond_atom_site_label_1
_geom_bond_atom_site_label_2
_geom_bond_site_symmetry_1
_geom_bond_site_symmetry_2
Cu1 Br1 1_555 1_555
Cu2 Br3 1_555 1_555
Cu3 Br2 1_555 1_555
Cu4 Br6 1_555 1_555
Cu5 N6 1_555 1_555
Cu6 N10 1_555 1_555
Br2 Cu1 1_555 1_555
Br3 Cu1 1_555 1_555
Br4 Cu2 1_555 1_555
Br5 Cu2 1_555 1_555
Br6 Cu3 1_555 1_555
N1 C4 1_555 1_555
N2 Cu4 1_555 1_555
N3 Cu4 1_555 1_555
N4 C8 1_555 1_555
N5 C18 1_555 1_555
N6 C19 1_555 1_555
N7 Cu5 1_555 1_555
N8 C22 1_555 1_555
N9 C32 1_555 1_555
N10 C33 1_555 1_555
N11 Cu6 1_555 1_555
N12 C36 1_555 1_555
C1 H1 1_555 1_555
C2 H2 1_555 1_555
C3 C1 1_555 1_555
C4 C3 1_555 1_555
H3 C4 1_555 1_555
H4 C4 1_555 1_555
C5 N1 1_555 1_555
H5 C5 1_555 1_555
C6 N1 1_555 1_555
H6 C6 1_555 1_555
C7 N2 1_555 1_555
H7 C7 1_555 1_555
C8 N3 1_555 1_555
H8 C8 1_555 1_555
C9 N3 1_555 1_555
H9 C9 1_555 1_555
C10 N4 1_555 1_555
H10 C10 1_555 1_555
C11 N4 1_555 1_555
H11 C11 1_555 1_555
H12 C11 1_555 1_555
C12 C11 1_555 1_555
C13 C12 1_555 1_555
H13 C13 1_555 1_555
C14 C13 1_555 1_555
H14 C14 1_555 1_555
C15 C14 1_555 1_555
C16 C15 1_555 1_555
H15 C16 1_555 1_555
C17 C12 1_555 1_555
H16 C17 1_555 1_555
C18 C15 1_555 1_555
H17 C18 1_555 1_555
H18 C18 1_555 1_555
C19 N5 1_555 1_555
H19 C19 1_555 1_555
C20 N5 1_555 1_555
H20 C20 1_555 1_555
C21 N6 1_555 1_555
H21 C21 1_555 1_555
C22 N7 1_555 1_555
H22 C22 1_555 1_555
C23 N7 1_555 1_555
H23 C23 1_555 1_555
C24 N8 1_555 1_555
H24 C24 1_555 1_555
C25 N8 1_555 1_555
H25 C25 1_555 1_555
H26 C25 1_555 1_555
C26 C25 1_555 1_555
C27 C26 1_555 1_555
H27 C27 1_555 1_555
C28 C27 1_555 1_555
H28 C28 1_555 1_555
C29 C28 1_555 1_555
C30 C29 1_555 1_555
H29 C30 1_555 1_555
C31 C26 1_555 1_555
H30 C31 1_555 1_555
C32 C29 1_555 1_555
H31 C32 1_555 1_555
H32 C32 1_555 1_555
C33 N9 1_555 1_555
H33 C33 1_555 1_555
C34 N9 1_555 1_555
H34 C34 1_555 1_555
C35 N10 1_555 1_555
H35 C35 1_555 1_555
C36 N11 1_555 1_555
H36 C36 1_555 1_555
C37 N11 1_555 1_555
H37 C37 1_555 1_555
C38 N12 1_555 1_555
H38 C38 1_555 1_555
C39 N12 1_555 1_555
H39 C39 1_555 1_555
H40 C39 1_555 1_555
C40 C39 1_555 1_555
C41 C40 1_555 1_555
H41 C41 1_555 1_555
C42 C40 1_555 1_555
H42 C42 1_555 1_555
Cu1B Br1B 1_555 1_555
Cu2B Br3B 1_555 1_555
Cu3B Br2B 1_555 1_555
Cu4B Br6B 1_555 1_555
Cu5B N6B 1_555 1_555
Cu6B N10B 1_555 1_555
Cu6B_2 N11B 1_555 1_555
Br2B Cu1B 1_555 1_555
Br3B Cu1B 1_555 1_555
Br4B Cu2B 1_555 1_555
Br5B Cu2B 1_555 1_555
Br6B Cu3B 1_555 1_555
N1B C4B 1_555 1_555
N2B Cu4B 1_555 1_555
N3B Cu4B 1_555 1_555
N4B C8B 1_555 1_555
N5B C18B 1_555 1_555
N6B C19B 1_555 1_555
N7B Cu5B 1_555 1_555
N8B C22B 1_555 1_555
N9B C32B 1_555 1_555
N10B C33B 1_555 1_555
N11B C36B 1_555 1_555
N11B_2 Cu6B 1_555 1_555
N12B C36B 1_555 1_555
C1B C2 1_555 1_555
H1B C1B 1_555 1_555
C2B C1 1_555 1_555
H2B C2B 1_555 1_555
C3B C1B 1_555 1_555
C4B C3B 1_555 1_555
H3B C4B 1_555 1_555
H4B C4B 1_555 1_555
C5B N1B 1_555 1_555
H5B C5B 1_555 1_555
C6B N1B 1_555 1_555
H6B C6B 1_555 1_555
C7B N2B 1_555 1_555
H7B C7B 1_555 1_555
C8B N3B 1_555 1_555
H8B C8B 1_555 1_555
C9B N3B 1_555 1_555
H9B C9B 1_555 1_555
C10B N4B 1_555 1_555
H10B C10B 1_555 1_555
C11B N4B 1_555 1_555
H11B C11B 1_555 1_555
H12B C11B 1_555 1_555
C12B C11B 1_555 1_555
C13B C12B 1_555 1_555
H13B C13B 1_555 1_555
C14B C13B 1_555 1_555
H14B C14B 1_555 1_555
C15B C14B 1_555 1_555
C16B C15B 1_555 1_555
H15B C16B 1_555 1_555
C17B C12B 1_555 1_555
H16B C17B 1_555 1_555
C18B C15B 1_555 1_555
H17B C18B 1_555 1_555
H18B C18B 1_555 1_555
C19B N5B 1_555 1_555
H19B C19B 1_555 1_555
C20B N5B 1_555 1_555
H20B C20B 1_555 1_555
C21B N6B 1_555 1_555
H21B C21B 1_555 1_555
C22B N7B 1_555 1_555
H22B C22B 1_555 1_555
C23B N7B 1_555 1_555
H23B C23B 1_555 1_555
C24B N8B 1_555 1_555
H24B C24B 1_555 1_555
C25B N8B 1_555 1_555
H25B C25B 1_555 1_555
H26B C25B 1_555 1_555
C26B C25B 1_555 1_555
C27B C26B 1_555 1_555
H27B C27B 1_555 1_555
C28B C27B 1_555 1_555
H28B C28B 1_555 1_555
C29B C28B 1_555 1_555
C30B C29B 1_555 1_555
H29B C30B 1_555 1_555
C31B C26B 1_555 1_555
H30B C31B 1_555 1_555
C32B C29B 1_555 1_555
H31B C32B 1_555 1_555
H32B C32B 1_555 1_555
C33B N9B 1_555 1_555
H33B C33B 1_555 1_555
C34B N9B 1_555 1_555
H34B C34B 1_555 1_555
C35B N10B 1_555 1_555
H35B C35B 1_555 1_555
C36B H36B 1_555 1_555
C37B N11B 1_555 1_555
H37B C37B 1_555 1_555
C38B N12B 1_555 1_555
H38B C38B 1_555 1_555
C39B N12B 1_555 1_555
H39B C39B 1_555 1_555
H40B C39B 1_555 1_555
C40B C39B 1_555 1_555
C41B C42 1_555 1_555
H41B C41B 1_555 1_555
C42B C41 1_555 1_555
H42B C42B 1_555 1_555
Cu3 Br4 1_555 1_555
Cu3 Br5 1_555 1_555
N2 C5 1_555 1_555
C2 C3 1_555 1_555
C6 C7 1_555 1_555
C9 C10 1_555 1_555
C16 C17 1_555 1_555
C20 C21 1_555 1_555
C23 C24 1_555 1_555
C30 C31 1_555 1_555
C34 C35 1_555 1_555
C37 C38 1_555 1_555
Cu3B Br4B 1_555 1_555
Cu3B Br5B 1_555 1_555
N2B C5B 1_555 1_555
C2B C3B 1_555 1_555
C6B C7B 1_555 1_555
C9B C10B 1_555 1_555
C16B C17B 1_555 1_555
C20B C21B 1_555 1_555
C23B C24B 1_555 1_555
C30B C31B 1_555 1_555
C34B C35B 1_555 1_555
C37B C38B 1_555 1_555
C40B C41B 1_555 1_555
C40B C42B 1_555 1_555

#END
