
#######################################################################
#
#                 Cambridge Crystallographic Data Centre
#                                CCDC 
#
#######################################################################
#
# If this CIF has been generated from an entry in the Cambridge 
# Structural Database, then it will include bibliographic, chemical, 
# crystal, experimental, refinement or atomic coordinate data resulting 
# from the CCDC's data processing and validation procedures.
#
#######################################################################

data_DESTEB
_symmetry_cell_setting           orthorhombic
_symmetry_space_group_name_H-M   'P 21 21 21'
_symmetry_Int_Tables_number      19
_space_group_name_Hall           'P 2ac 2ab'
loop_
_symmetry_equiv_pos_site_id
_symmetry_equiv_pos_as_xyz
1 x,y,z
2 1/2-x,-y,1/2+z
3 -x,1/2+y,1/2-z
4 1/2+x,1/2-y,-z
_cell_length_a                   7.0166(9)
_cell_length_b                   12.6726(17)
_cell_length_c                   13.8943(16)
_cell_angle_alpha                90
_cell_angle_beta                 90
_cell_angle_gamma                90
_cell_volume                     1235.46
loop_
_atom_site_label
_atom_site_type_symbol
_atom_site_fract_x
_atom_site_fract_y
_atom_site_fract_z
Pb1 Pb 0.11822(6) 1.09535(3) 0.40147(3)
Pb2 Pb 0.30633(5) 0.79749(3) 0.28903(3)
O1 O 0.1242(12) 0.9754(5) 0.2723(5)
O2 O -0.0113(13) 1.1218(6) 0.2152(6)
O3 O 0.0538(14) 1.1387(6) 0.6080(6)
O4 O -0.1423(13) 1.2321(6) 0.6855(6)
N1 N 0.1272(14) 0.8335(7) 0.4412(6)
N2 N 0.1190(14) 0.9263(7) 0.4932(6)
N3 N 0.0010(14) 0.7993(7) 0.5833(7)
N4 N 0.5134(14) 0.9319(7) 0.3462(7)
N5 N 0.4588(14) 1.0334(7) 0.3764(6)
N6 N 0.7761(14) 1.0222(7) 0.3867(7)
N7 N -0.0956(16) 1.1956(8) 0.6055(7)
C1 C 0.0460(17) 0.9024(9) 0.5765(8)
H1 H 0.0266 0.9520 0.6268
C2 C 0.0505(17) 0.7613(8) 0.4981(8)
H2 H 0.0328 0.6898 0.4798
C3 C 0.6235(15) 1.0821(8) 0.3996(8)
H3 H 0.6295 1.1525 0.4229
C4 C 0.7035(17) 0.9306(8) 0.3546(8)
H4 H 0.7795 0.8708 0.3393
C5 C 0.0351(15) 1.0274(8) 0.2058(8)
C6 C -0.0165(19) 0.9652(9) 0.1177(8)
H5 H -0.0841 1.0109 0.0722
H6 H -0.0989 0.9061 0.1360
H7 H 0.0998 0.9381 0.0875
Pb1C Pb -0.38178(6) 1.40465(3) 0.59853(3)
Pb1_2 Pb 1.11822(6) 1.09535(3) 0.40147(3)
Pb2B Pb -0.30633(5) 1.29749(3) 0.21097(3)
Pb2A Pb 0.19367(5) 1.20251(3) 0.78903(3)
Pb2C Pb -0.19367(5) 0.70251(3) 0.71097(3)
O2B O 0.0113(13) 0.6218(6) 0.2848(6)
O3A O 0.4462(14) 0.8613(6) 0.1080(6)
O4C O 0.3577(13) 1.2679(6) 0.3145(6)
O4A O 0.6423(13) 0.7679(6) 0.1855(6)
N3C N 0.5010(14) 0.7007(7) 0.4167(7)
N6_2 N -0.2239(14) 1.0222(7) 0.3867(7)
loop_
_geom_bond_atom_site_label_1
_geom_bond_atom_site_label_2
_geom_bond_site_symmetry_1
_geom_bond_site_symmetry_2
Pb1 O1 1_555 1_555
Pb2 O1 1_555 1_555
O1 C5 1_555 1_555
O2 Pb1 1_555 1_555
O3 Pb1 1_555 1_555
O4 N7 1_555 1_555
N1 Pb2 1_555 1_555
N2 Pb1 1_555 1_555
N3 C1 1_555 1_555
N4 Pb2 1_555 1_555
N5 Pb1 1_555 1_555
N6 C3 1_555 1_555
N7 O3 1_555 1_555
C1 N2 1_555 1_555
H1 C1 1_555 1_555
C2 N1 1_555 1_555
H2 C2 1_555 1_555
C3 N5 1_555 1_555
H3 C3 1_555 1_555
C4 N4 1_555 1_555
H4 C4 1_555 1_555
C5 O2 1_555 1_555
C6 C5 1_555 1_555
H5 C6 1_555 1_555
H6 C6 1_555 1_555
H7 C6 1_555 1_555
Pb1C O4 1_555 1_555
Pb1_2 N6 1_555 1_555
Pb2B O2 1_555 1_555
Pb2A O3 1_555 1_555
Pb2C N3 1_555 1_555
O2B Pb2 1_555 1_555
O3A Pb2 1_555 1_555
O4C Pb1 1_555 1_555
O4A Pb2 1_555 1_555
N3C Pb2 1_555 1_555
N6_2 Pb1 1_555 1_555
O4 Pb2A 1_555 1_555
N1 N2 1_555 1_555
N3 C2 1_555 1_555
N4 N5 1_555 1_555
N6 C4 1_555 1_555

#END
