
#######################################################################
#
#                 Cambridge Crystallographic Data Centre
#                                CCDC 
#
#######################################################################
#
# If this CIF has been generated from an entry in the Cambridge 
# Structural Database, then it will include bibliographic, chemical, 
# crystal, experimental, refinement or atomic coordinate data resulting 
# from the CCDC's data processing and validation procedures.
#
#######################################################################

data_DETQUQ
_symmetry_cell_setting           monoclinic
_symmetry_space_group_name_H-M   'C 2/c'
_symmetry_Int_Tables_number      15
_space_group_name_Hall           '-C 2yn'
loop_
_symmetry_equiv_pos_site_id
_symmetry_equiv_pos_as_xyz
1 x,y,z
2 1/2+x,1/2+y,z
3 -x,y,1/2-z
4 1/2-x,1/2+y,1/2-z
5 -x,-y,-z
6 1/2-x,1/2-y,-z
7 x,-y,1/2+z
8 1/2+x,1/2-y,1/2+z
_cell_length_a                   15.958(8)
_cell_length_b                   9.652(5)
_cell_length_c                   27.058(13)
_cell_angle_alpha                90
_cell_angle_beta                 97.955(9)
_cell_angle_gamma                90
_cell_volume                     4127.55
loop_
_atom_site_label
_atom_site_type_symbol
_atom_site_fract_x
_atom_site_fract_y
_atom_site_fract_z
Cu1 Cu 0.02848(5) 0.46356(6) 0.37912(3)
Cu2 Cu 0.47135(5) 0.46367(6) 0.37144(3)
N1 N 0.1632(3) 0.4639(4) 0.37724(19)
N2 N 0.3365(3) 0.4637(4) 0.3734(2)
C1 C 0.2061(4) 0.3455(5) 0.3722(3)
H1 H 0.1772 0.2615 0.3702
C2 C 0.2913(4) 0.3465(5) 0.3699(3)
H2 H 0.3186 0.2631 0.3659
C3 C 0.2936(4) 0.5795(5) 0.3780(3)
H3 H 0.3226 0.6633 0.3801
C4 C 0.2084(4) 0.5809(5) 0.3799(3)
H4 H 0.1814 0.6652 0.3831
N3 N 0.0042(3) 0.6574(4) 0.3746(2)
C5 C -0.0034(4) 0.7767(5) 0.3726(2)
N4 N -0.0045(3) 0.1574(5) 0.3757(2)
C6 C 0.0037(4) 0.2783(5) 0.3780(2)
Cu1A Cu -0.47152(5) 0.96356(6) 0.37912(3)
Cu1A_2 Cu 0.52848(5) -0.03644(6) 0.37912(3)
Cu1A_3 Cu 0.52848(5) 0.96356(6) 0.37912(3)
Cu2A Cu -0.02865(5) 0.96367(6) 0.37144(3)
Cu2A_2 Cu -0.02865(5) -0.03633(6) 0.37144(3)
N1A N -0.3368(3) 0.9639(4) 0.37724(19)
N2A N -0.1635(3) 0.9637(4) 0.3734(2)
C1A C -0.2939(4) 0.8455(5) 0.3722(3)
H1A H -0.3228 0.7615 0.3702
C2A C -0.2087(4) 0.8465(5) 0.3699(3)
H2A H -0.1814 0.7631 0.3659
C3A C -0.2064(4) 1.0795(5) 0.3780(3)
H3A H -0.1774 1.1633 0.3801
C4A C -0.2916(4) 1.0809(5) 0.3799(3)
H4A H -0.3186 1.1652 0.3831
N3A N 0.5042(3) 0.1574(4) 0.3746(2)
N3A_2 N -0.4958(3) 1.1574(4) 0.3746(2)
C5A C 0.4966(4) 0.2767(5) 0.3726(2)
N4A N 0.4955(3) 0.6574(5) 0.3757(2)
N4_2 N -0.0045(3) 1.1574(5) 0.3757(2)
C6A C 0.5037(4) 0.7783(5) 0.3780(2)
C6A_2 C -0.4963(4) 0.7783(5) 0.3780(2)
Cu3 Cu 0.22162(5) 0.44398(6) 0.24592(3)
N5 N 0.0869(3) 0.4444(4) 0.2478(2)
C7 C 0.0428(4) 0.3271(5) 0.2492(3)
H5 H 0.0710 0.2429 0.2490
C8 C 0.0424(4) 0.5616(5) 0.2488(3)
H6 H 0.0703 0.6460 0.2480
C9 C 0.2463(4) 0.6320(5) 0.2510(3)
N6 N 0.2558(3) 0.7512(4) 0.2536(2)
Cu3B Cu -0.22162(5) 0.44398(6) 0.25408(3)
Cu3C Cu 0.27838(5) 0.94398(6) 0.25408(3)
Cu3C_2 Cu 0.27838(5) -0.05602(6) 0.25408(3)
N5B N -0.0869(3) 0.4444(4) 0.2522(2)
C7B C -0.0428(4) 0.3271(5) 0.2508(3)
H5B H -0.0710 0.2429 0.2510
C8B C -0.0424(4) 0.5616(5) 0.2512(3)
H6B H -0.0703 0.6460 0.2520
C9C C 0.2537(4) 0.1320(5) 0.2490(3)
C9B C -0.2463(4) 0.6320(5) 0.2490(3)
N6C N 0.2442(3) 0.2512(4) 0.2464(2)
N6A N -0.2442(3) 0.2512(4) 0.2536(2)
Cu4 Cu -0.22148(6) 0.99984(7) 0.50366(4)
N7 N -0.0877(3) 1.0005(4) 0.5020(2)
C10 C -0.0447(4) 0.8843(6) 0.4960(3)
H7 H -0.0738 0.8006 0.4931
C11 C -0.0408(5) 1.1164(6) 0.5060(3)
H8 H -0.0673 1.2005 0.5104
C12 C -0.2468(4) 0.8073(5) 0.5012(3)
N8 N -0.2532(4) 0.6927(5) 0.4988(3)
C13 C -0.2461(4) 1.1918(5) 0.5010(2)
N9 N -0.2539(4) 1.3082(5) 0.4990(2)
Cu4D Cu 0.22148(6) 1.00016(7) 0.49634(4)
Cu4E Cu -0.27852(6) 0.50016(7) 0.49634(4)
Cu4E_2 Cu -0.27852(6) 1.50016(7) 0.49634(4)
Cu4A Cu 0.27852(6) 1.49984(7) 0.50366(4)
Cu4A_2 Cu 0.27852(6) 0.49984(7) 0.50366(4)
N7D N 0.0877(3) 0.9995(4) 0.4980(2)
C10D C 0.0447(4) 1.1157(6) 0.5040(3)
H7D H 0.0738 1.1994 0.5069
C11D C 0.0408(5) 0.8836(6) 0.4940(3)
H8D H 0.0673 0.7995 0.4896
C12D C 0.2468(4) 1.1927(5) 0.4988(3)
N8D N 0.2532(4) 1.3073(5) 0.5012(3)
C13D C 0.2461(4) 0.8082(5) 0.4990(2)
N9D N 0.2539(4) 0.6918(5) 0.5010(2)
Cu5 Cu 0.37527(6) 0.98184(7) 0.43749(4)
Cu6 Cu 0.12518(5) 0.95413(7) 0.31251(4)
C14 C 0.4699(3) 0.9952(5) 0.4862(2)
N10 N 0.5301(3) 1.0048(5) 0.5138(2)
C15 C 0.2823(3) 0.9699(5) 0.3896(2)
N11 N 0.2214(4) 0.9639(5) 0.3616(2)
C16 C 0.0298(3) 0.9504(5) 0.2642(2)
N12 N -0.0298(3) 0.9504(5) 0.2358(2)
Cu5D Cu 0.62473(6) 1.01816(7) 0.56251(4)
Cu6D Cu 0.87482(5) 1.04587(7) 0.68749(4)
Cu6B Cu -0.12518(5) 0.95413(7) 0.18749(4)
Cu6F Cu 1.12518(5) 1.04587(7) 0.81251(4)
C15D C 0.7177(3) 1.0301(5) 0.6104(2)
N11D N 0.7786(4) 1.0361(5) 0.6384(2)
C16D C 0.9702(3) 1.0496(5) 0.7358(2)
N12D N 1.0298(3) 1.0496(5) 0.7642(2)
loop_
_geom_bond_atom_site_label_1
_geom_bond_atom_site_label_2
_geom_bond_site_symmetry_1
_geom_bond_site_symmetry_2
Cu1 N1 1_555 1_555
Cu2 N2 1_555 1_555
N1 C1 1_555 1_555
N2 C2 1_555 1_555
C1 H1 1_555 1_555
C2 C1 1_555 1_555
H2 C2 1_555 1_555
C3 N2 1_555 1_555
H3 C3 1_555 1_555
C4 N1 1_555 1_555
H4 C4 1_555 1_555
N3 Cu1 1_555 1_555
C5 N3 1_555 1_555
N4 C6 1_555 1_555
C6 Cu1 1_555 1_555
Cu3 N5 1_555 1_555
N5 C7 1_555 1_555
C7 H5 1_555 1_555
C8 N5 1_555 1_555
H6 C8 1_555 1_555
C9 Cu3 1_555 1_555
N6 C9 1_555 1_555
Cu4 N7 1_555 1_555
N7 C10 1_555 1_555
C10 H7 1_555 1_555
C11 N7 1_555 1_555
H8 C11 1_555 1_555
C12 Cu4 1_555 1_555
N8 C12 1_555 1_555
C13 Cu4 1_555 1_555
N9 C13 1_555 1_555
Cu5 C14 1_555 1_555
Cu6 N11 1_555 1_555
C14 N10 1_555 1_555
N10 Cu5D 1_555 1_555
C15 Cu5 1_555 1_555
N11 C15 1_555 1_555
C16 Cu6 1_555 1_555
N12 C16 1_555 1_555
Cu1A N1A 1_555 1_555
Cu1A_2 N3A 1_555 1_555
Cu1A_3 C6A 1_555 1_555
Cu2A C5 1_555 1_555
Cu2A_2 N4 1_555 1_555
N1A C1A 1_555 1_555
N2A Cu2A 1_555 1_555
C1A H1A 1_555 1_555
C2A N2A 1_555 1_555
H2A C2A 1_555 1_555
C3A N2A 1_555 1_555
H3A C3A 1_555 1_555
C4A N1A 1_555 1_555
H4A C4A 1_555 1_555
N3A C5A 1_555 1_555
N3A_2 Cu1A 1_555 1_555
C5A Cu2 1_555 1_555
N4A Cu2 1_555 1_555
N4_2 Cu2A 1_555 1_555
C6A N4A 1_555 1_555
C6A_2 Cu1A 1_555 1_555
Cu3B N5B 1_555 1_555
Cu3C N6 1_555 1_555
Cu3C_2 C9C 1_555 1_555
N5B C7B 1_555 1_555
C7B C7 1_555 1_555
H5B C7B 1_555 1_555
C8B C8 1_555 1_555
H6B C8B 1_555 1_555
C9C N6C 1_555 1_555
C9B Cu3B 1_555 1_555
N6C Cu3 1_555 1_555
N6A Cu3B 1_555 1_555
Cu4D N7D 1_555 1_555
Cu4E N8 1_555 1_555
Cu4E_2 N9 1_555 1_555
Cu4A N8D 1_555 1_555
Cu4A_2 N9D 1_555 1_555
N7D C10D 1_555 1_555
C10D C11 1_555 1_555
H7D C10D 1_555 1_555
C11D C10 1_555 1_555
H8D C11D 1_555 1_555
C12D Cu4D 1_555 1_555
N8D C12D 1_555 1_555
C13D Cu4D 1_555 1_555
N9D C13D 1_555 1_555
Cu5D C15D 1_555 1_555
Cu6D N11D 1_555 1_555
Cu6B N12 1_555 1_555
Cu6F N12D 1_555 1_555
C15D N11D 1_555 1_555
C16D Cu6D 1_555 1_555
N12D C16D 1_555 1_555
C3 C4 1_555 1_555
C1A C2A 1_555 1_555
C3A C4A 1_555 1_555
N5B C8B 1_555 1_555
N7D C11D 1_555 1_555

#END
