
#######################################################################
#
#                 Cambridge Crystallographic Data Centre
#                                CCDC 
#
#######################################################################
#
# If this CIF has been generated from an entry in the Cambridge 
# Structural Database, then it will include bibliographic, chemical, 
# crystal, experimental, refinement or atomic coordinate data resulting 
# from the CCDC's data processing and validation procedures.
#
#######################################################################

data_DETRAX
_symmetry_cell_setting           monoclinic
_symmetry_space_group_name_H-M   'C 2/c'
_symmetry_Int_Tables_number      15
_space_group_name_Hall           '-C 2yn'
loop_
_symmetry_equiv_pos_site_id
_symmetry_equiv_pos_as_xyz
1 x,y,z
2 1/2+x,1/2+y,z
3 -x,y,1/2-z
4 1/2-x,1/2+y,1/2-z
5 -x,-y,-z
6 1/2-x,1/2-y,-z
7 x,-y,1/2+z
8 1/2+x,1/2-y,1/2+z
_cell_length_a                   24.165(4)
_cell_length_b                   9.0577(12)
_cell_length_c                   16.073(2)
_cell_angle_alpha                90
_cell_angle_beta                 100.167(4)
_cell_angle_gamma                90
_cell_volume                     3462.8
loop_
_atom_site_label
_atom_site_type_symbol
_atom_site_fract_x
_atom_site_fract_y
_atom_site_fract_z
Co1 Co 0.371016(11) 0.74036(3) 0.997135(16)
Co2 Co 0.292981(11) 0.73670(3) 0.792177(16)
Co3 Co 0.430140(11) 1.24774(3) 0.873430(17)
C1 C 0.48238(8) 0.6171(2) 0.78014(12)
C2 C 0.46407(8) 0.7498(2) 0.81007(12)
C3 C 0.48205(8) 0.8818(2) 0.77967(12)
C4 C 0.46364(8) 0.4747(2) 0.81276(12)
C5 C 0.42748(8) 0.75330(19) 0.87737(13)
C6 C 0.46370(8) 1.0236(2) 0.81298(12)
C7 C 0.27470(8) 0.2646(2) 0.92834(12)
C8 C 0.25862(8) 0.3901(2) 0.96915(12)
C9 C 0.26663(8) 0.1232(2) 0.95930(12)
C10 C 0.30736(8) 0.2850(2) 0.85722(12)
C11 C 0.27374(7) 0.5415(2) 0.93962(12)
C12 C 0.29213(8) -0.0165(2) 0.92845(12)
O1 O 0.43498(6) 0.38610(15) 0.76309(8)
O2 O 0.47584(6) 0.44882(15) 0.89145(8)
O3 O 0.37805(5) 0.69965(15) 0.86324(8)
O4 O 0.44733(6) 0.80642(15) 0.94837(8)
O5 O 0.41172(5) 1.04873(14) 0.80824(9)
O6 O 0.49972(6) 1.11475(15) 0.84747(9)
O7 O 0.35584(5) 0.34183(14) 0.88085(9)
O8 O 0.28760(6) 0.24905(14) 0.78321(9)
O9 O 0.26206(6) 0.57032(14) 0.86116(8)
O10 O 0.29877(5) 0.62477(14) 0.99606(8)
O11 O 0.27028(5) -0.07726(15) 0.85974(8)
O12 O 0.33481(5) -0.05987(14) 0.97814(9)
O13 O 0.39217(6) 0.79098(16) 1.12210(9)
H1 H 0.3943(10) 0.7192(19) 1.1550(13)
H2 H 0.4225(6) 0.837(2) 1.1330(15)
O14 O 0.40928(6) 0.53189(16) 1.02737(9)
H3 H 0.4442(4) 0.532(3) 1.0427(15)
H4 H 0.4020(10) 0.473(2) 0.9869(11)
O15 O 0.31931(6) 0.56752(15) 0.71950(9)
H5 H 0.3411(8) 0.511(2) 0.7500(12)
H6 H 0.2929(7) 0.517(2) 0.6934(13)
O16 O 0.32383(6) 0.89801(15) 0.71857(9)
H7 H 0.2997(8) 0.960(2) 0.6965(13)
H8 H 0.3477(8) 0.952(2) 0.7473(13)
O17 O 0.44175(6) 1.16551(17) 0.99064(9)
H9 H 0.4755(5) 1.164(3) 1.0147(14)
H10 H 0.4216(9) 1.201(3) 1.0231(13)
Co1B Co 0.628984(11) 0.74036(3) 0.502865(16)
Co1_2 Co 0.371016(11) -0.25964(3) 0.997135(16)
Co1E Co 0.128984(11) -0.24036(3) 1.002865(16)
Co1E_2 Co 0.128984(11) 0.75964(3) 1.002865(16)
Co2B Co 0.707019(11) 0.73670(3) 0.707823(16)
Co2C Co 0.207019(11) 0.23670(3) 0.707823(16)
Co2_2 Co 0.292981(11) -0.26330(3) 0.792177(16)
Co2F Co 0.292981(11) 0.26330(3) 1.292177(16)
Co2E Co 0.207019(11) -0.23670(3) 1.207823(16)
Co2E_2 Co 0.207019(11) 0.76330(3) 1.207823(16)
Co3B Co 0.569860(11) 1.24774(3) 0.626570(17)
Co3_2 Co 0.430140(11) 0.24774(3) 0.873430(17)
Co3B_2 Co 0.569860(11) 0.24774(3) 0.626570(17)
Co3E Co 0.069860(11) 0.25226(3) 1.126570(17)
C1B C 0.51762(8) 0.6171(2) 0.71986(12)
C2B C 0.53593(8) 0.7498(2) 0.68993(12)
C3B C 0.51795(8) 0.8818(2) 0.72033(12)
C4B C 0.53636(8) 0.4747(2) 0.68724(12)
C5B C 0.57252(8) 0.75330(19) 0.62263(13)
C6B C 0.53630(8) 1.0236(2) 0.68702(12)
C7E C 0.22530(8) 0.2354(2) 1.07166(12)
C8E C 0.24138(8) 0.1099(2) 1.03085(12)
C9E C 0.23337(8) 0.3768(2) 1.04070(12)
C10E C 0.19264(8) 0.2150(2) 1.14278(12)
C11E C 0.22626(7) -0.0415(2) 1.06038(12)
C12E C 0.20787(8) 0.5165(2) 1.07155(12)
O1B O 0.56502(6) 0.38610(15) 0.73691(8)
O1_2 O 0.43498(6) 1.38610(15) 0.76309(8)
O1B_2 O 0.56502(6) 1.38610(15) 0.73691(8)
O2B O 0.52416(6) 0.44882(15) 0.60855(8)
O2_2 O 0.47584(6) 1.44882(15) 0.89145(8)
O2B_2 O 0.52416(6) 1.44882(15) 0.60855(8)
O3B O 0.62195(5) 0.69965(15) 0.63676(8)
O4B O 0.55267(6) 0.80642(15) 0.55163(8)
O5B O 0.58828(5) 1.04873(14) 0.69176(9)
O6B O 0.50028(6) 1.11475(15) 0.65253(9)
O7E O 0.14416(5) 0.15817(14) 1.11915(9)
O7_2 O 0.35584(5) 1.34183(14) 0.88085(9)
O7B O 0.64416(5) 1.34183(14) 0.61915(9)
O8E O 0.21240(6) 0.25095(14) 1.21679(9)
O8C O 0.21240(6) 0.74905(14) 0.71679(9)
O8A O 0.78760(6) 0.74905(14) 0.78321(9)
O9E O 0.23794(6) -0.07032(14) 1.13884(8)
O9B O 0.73794(6) 0.57032(14) 0.63884(8)
O10E O 0.20123(5) -0.12477(14) 1.00394(8)
O10B O 0.70123(5) 0.62477(14) 0.50394(8)
O11E O 0.22972(5) 0.57726(15) 1.14026(8)
O11_2 O 0.27028(5) 0.92274(15) 0.85974(8)
O11B O 0.72972(5) 0.92274(15) 0.64026(8)
O12E O 0.16519(5) 0.55987(14) 1.02186(9)
O12_2 O 0.33481(5) 0.94013(14) 0.97814(9)
O12B O 0.66519(5) 0.94013(14) 0.52186(9)
O13B O 0.60783(6) 0.79098(16) 0.37790(9)
H1B H 0.6057(10) 0.7192(19) 0.3450(13)
H2B H 0.5775(6) 0.837(2) 0.3670(15)
O14B O 0.59072(6) 0.53189(16) 0.47263(9)
H3B H 0.5558(4) 0.532(3) 0.4573(15)
H4B H 0.5980(10) 0.473(2) 0.5131(11)
O15B O 0.68069(6) 0.56752(15) 0.78050(9)
H5B H 0.6589(8) 0.511(2) 0.7500(12)
H6B H 0.7071(7) 0.517(2) 0.8066(13)
O16B O 0.67617(6) 0.89801(15) 0.78143(9)
H7B H 0.7003(8) 0.960(2) 0.8035(13)
H8B H 0.6523(8) 0.952(2) 0.7527(13)
O17B O 0.55825(6) 1.16551(17) 0.50936(9)
H9B H 0.5245(5) 1.164(3) 0.4853(14)
H10B H 0.5784(9) 1.201(3) 0.4769(13)
O18 O 0.38413(8) 0.75021(17) 0.60705(11)
H11 H 0.3766(11) 0.6605(13) 0.6135(17)
H12 H 0.3642(10) 0.804(3) 0.6314(16)
loop_
_geom_bond_atom_site_label_1
_geom_bond_atom_site_label_2
_geom_bond_site_symmetry_1
_geom_bond_site_symmetry_2
Co1 O3 1_555 1_555
Co2 O3 1_555 1_555
Co3 O5 1_555 1_555
C1 C2 1_555 1_555
C2 C3 1_555 1_555
C3 C6 1_555 1_555
C4 C1 1_555 1_555
C5 C2 1_555 1_555
C6 O5 1_555 1_555
C7 C8 1_555 1_555
C8 C11 1_555 1_555
C9 C7 1_555 1_555
C10 C7 1_555 1_555
C11 O9 1_555 1_555
C12 C9 1_555 1_555
O1 C4 1_555 1_555
O2 C4 1_555 1_555
O3 C5 1_555 1_555
O4 Co1 1_555 1_555
O6 Co3 1_555 1_555
O7 C10 1_555 1_555
O8 C10 1_555 1_555
O9 Co2 1_555 1_555
O10 Co1 1_555 1_555
O11 C12 1_555 1_555
O12 C12 1_555 1_555
O13 Co1 1_555 1_555
H1 O13 1_555 1_555
H2 O13 1_555 1_555
O14 Co1 1_555 1_555
H3 O14 1_555 1_555
H4 O14 1_555 1_555
O15 Co2 1_555 1_555
H5 O15 1_555 1_555
H6 O15 1_555 1_555
O16 Co2 1_555 1_555
H7 O16 1_555 1_555
H8 O16 1_555 1_555
O17 Co3 1_555 1_555
H9 O17 1_555 1_555
H10 O17 1_555 1_555
O18 H11 1_555 1_555
H12 O18 1_555 1_555
Co1B O3B 1_555 1_555
Co1_2 O12 1_555 1_555
Co1E O10E 1_555 1_555
Co1E_2 O12E 1_555 1_555
Co2B O3B 1_555 1_555
Co2C O8 1_555 1_555
Co2_2 O11 1_555 1_555
Co2F O8E 1_555 1_555
Co2E O9E 1_555 1_555
Co2E_2 O11E 1_555 1_555
Co3B O1B_2 1_555 1_555
Co3_2 O1 1_555 1_555
Co3B_2 O1B 1_555 1_555
Co3E O7E 1_555 1_555
C1B C1 1_555 1_555
C2B C1B 1_555 1_555
C3B C3 1_555 1_555
C4B C1B 1_555 1_555
C5B C2B 1_555 1_555
C6B C3B 1_555 1_555
C7E C8E 1_555 1_555
C8E C9 1_555 1_555
C9E C8 1_555 1_555
C10E C7E 1_555 1_555
C11E C8E 1_555 1_555
C12E C9E 1_555 1_555
O1B C4B 1_555 1_555
O1_2 Co3 1_555 1_555
O2B Co3B_2 1_555 1_555
O2_2 Co3 1_555 1_555
O2B_2 Co3B 1_555 1_555
O3B C5B 1_555 1_555
O4B Co1B 1_555 1_555
O5B Co3B 1_555 1_555
O6B Co3B 1_555 1_555
O7E C10E 1_555 1_555
O7_2 Co3 1_555 1_555
O7B Co3B 1_555 1_555
O8E C10E 1_555 1_555
O8C Co2 1_555 1_555
O8A Co2B 1_555 1_555
O9E C11E 1_555 1_555
O9B Co2B 1_555 1_555
O10E C11E 1_555 1_555
O10B Co1B 1_555 1_555
O11E C12E 1_555 1_555
O11_2 Co2 1_555 1_555
O11B Co2B 1_555 1_555
O12E C12E 1_555 1_555
O12_2 Co1 1_555 1_555
O12B Co1B 1_555 1_555
O13B Co1B 1_555 1_555
H1B O13B 1_555 1_555
H2B O13B 1_555 1_555
O14B Co1B 1_555 1_555
H3B O14B 1_555 1_555
H4B O14B 1_555 1_555
O15B Co2B 1_555 1_555
H5B O15B 1_555 1_555
H6B O15B 1_555 1_555
O16B Co2B 1_555 1_555
H7B O16B 1_555 1_555
H8B O16B 1_555 1_555
O17B Co3B 1_555 1_555
H9B O17B 1_555 1_555
H10B O17B 1_555 1_555
C5 O4 1_555 1_555
C6 O6 1_555 1_555
C11 O10 1_555 1_555
O2 Co3_2 1_555 1_555
O7 Co3_2 1_555 1_555
C2B C3B 1_555 1_555
C4B O2B 1_555 1_555
C5B O4B 1_555 1_555
C6B O5B 1_555 1_555
C6B O6B 1_555 1_555
C7E C9E 1_555 1_555

#END
