
#######################################################################
#
#                 Cambridge Crystallographic Data Centre
#                                CCDC 
#
#######################################################################
#
# If this CIF has been generated from an entry in the Cambridge 
# Structural Database, then it will include bibliographic, chemical, 
# crystal, experimental, refinement or atomic coordinate data resulting 
# from the CCDC's data processing and validation procedures.
#
#######################################################################

data_DEVBEM
_symmetry_cell_setting           orthorhombic
_symmetry_space_group_name_H-M   'P b c a'
_symmetry_Int_Tables_number      61
_space_group_name_Hall           '-P 2ac 2ab'
loop_
_symmetry_equiv_pos_site_id
_symmetry_equiv_pos_as_xyz
1 x,y,z
2 1/2-x,-y,1/2+z
3 -x,1/2+y,1/2-z
4 1/2+x,1/2-y,-z
5 -x,-y,-z
6 1/2+x,y,1/2-z
7 x,1/2-y,1/2+z
8 1/2-x,1/2+y,z
_cell_length_a                   9.9520(8)
_cell_length_b                   12.3457(9)
_cell_length_c                   13.587(1)
_cell_angle_alpha                90
_cell_angle_beta                 90
_cell_angle_gamma                90
_cell_volume                     1669.36
loop_
_atom_site_label
_atom_site_type_symbol
_atom_site_fract_x
_atom_site_fract_y
_atom_site_fract_z
Co1 Co 0.0000 0.0000 0.0000
N1 N -0.0624(7) -0.1562(6) -0.0419(5)
N2 N -0.3321(8) -0.4338(6) -0.0691(7)
C1 C -0.0792(7) -0.2449(7) -0.0649(7)
C2 C -0.2246(9) -0.3984(7) -0.0803(6)
C3 C -0.0967(8) -0.3530(7) -0.0899(6)
C4 C 0.011(1) -0.4197(6) -0.1237(5)
C5 C 0.0641(9) -0.6007(7) -0.1753(7)
C6 C -0.014(1) -0.7026(6) -0.1922(6)
O1 O 0.1275(6) -0.3912(5) -0.1405(4)
O2 O -0.0289(5) -0.5233(4) -0.1332(4)
O3 O -0.1228(6) -0.6859(4) -0.2614(5)
O4 O 0.1132(6) 0.0106(5) -0.1339(4)
H1 H 0.0986 -0.5742 -0.2359
H2 H 0.1362 -0.6139 -0.1311
H3 H -0.0505 -0.7264 -0.1313
H4 H 0.0446 -0.7565 -0.2175
Co1G Co -0.5000 -0.5000 0.0000
Co1G_2 Co 0.5000 0.5000 0.0000
N1D N 0.0624(7) 0.1562(6) 0.0419(5)
N2D N 0.3321(8) 0.4338(6) 0.0691(7)
N2G N -0.1679(8) 0.0662(6) -0.0691(7)
N2C N 0.1679(8) -0.0662(6) 0.0691(7)
C1D C 0.0792(7) 0.2449(7) 0.0649(7)
C2D C 0.2246(9) 0.3984(7) 0.0803(6)
C3D C 0.0967(8) 0.3530(7) 0.0899(6)
C4D C -0.011(1) 0.4197(6) 0.1237(5)
C5D C -0.0641(9) 0.6007(7) 0.1753(7)
C6D C 0.014(1) 0.7026(6) 0.1922(6)
O1D O -0.1275(6) 0.3912(5) 0.1405(4)
O2D O 0.0289(5) 0.5233(4) 0.1332(4)
O3D O 0.1228(6) 0.6859(4) 0.2614(5)
O4D O -0.1132(6) -0.0106(5) 0.1339(4)
H1D H -0.0986 0.5742 0.2359
H2D H -0.1362 0.6139 0.1311
H3D H 0.0505 0.7264 0.1313
H4D H -0.0446 0.7565 0.2175
loop_
_geom_bond_atom_site_label_1
_geom_bond_atom_site_label_2
_geom_bond_site_symmetry_1
_geom_bond_site_symmetry_2
Co1 N1 1_555 1_555
N1 C1 1_555 1_555
N2 C2 1_555 1_555
C1 C3 1_555 1_555
C2 C3 1_555 1_555
C3 C4 1_555 1_555
C4 O1 1_555 1_555
C5 C6 1_555 1_555
C6 O3 1_555 1_555
O2 C4 1_555 1_555
O4 Co1 1_555 1_555
H1 C5 1_555 1_555
H2 C5 1_555 1_555
H3 C6 1_555 1_555
H4 C6 1_555 1_555
Co1G N2 1_555 1_555
Co1G_2 N2D 1_555 1_555
N1D Co1 1_555 1_555
N2D C2D 1_555 1_555
N2G Co1 1_555 1_555
N2C Co1 1_555 1_555
C1D N1D 1_555 1_555
C2D C3D 1_555 1_555
C3D C1D 1_555 1_555
C4D C3D 1_555 1_555
C5D C6D 1_555 1_555
C6D O3D 1_555 1_555
O1D C4D 1_555 1_555
O2D C4D 1_555 1_555
O4D Co1 1_555 1_555
H1D C5D 1_555 1_555
H2D C5D 1_555 1_555
H3D C6D 1_555 1_555
H4D C6D 1_555 1_555
C5 O2 1_555 1_555
C5D O2D 1_555 1_555

#END
