
#######################################################################
#
#                 Cambridge Crystallographic Data Centre
#                                CCDC 
#
#######################################################################
#
# If this CIF has been generated from an entry in the Cambridge 
# Structural Database, then it will include bibliographic, chemical, 
# crystal, experimental, refinement or atomic coordinate data resulting 
# from the CCDC's data processing and validation procedures.
#
#######################################################################

data_DEVBOW
_symmetry_cell_setting           monoclinic
_symmetry_space_group_name_H-M   'P 21/n'
_symmetry_Int_Tables_number      14
_space_group_name_Hall           '-P 2yn'
loop_
_symmetry_equiv_pos_site_id
_symmetry_equiv_pos_as_xyz
1 x,y,z
2 1/2-x,1/2+y,1/2-z
3 -x,-y,-z
4 1/2+x,1/2-y,1/2+z
_cell_length_a                   7.917(1)
_cell_length_b                   9.114(1)
_cell_length_c                   10.264(1)
_cell_angle_alpha                90.0
_cell_angle_beta                 94.051(2)
_cell_angle_gamma                90.0
_cell_volume                     738.754
loop_
_atom_site_label
_atom_site_type_symbol
_atom_site_fract_x
_atom_site_fract_y
_atom_site_fract_z
Mn1 Mn 0.0000 0.0000 0.0000
O1 O -0.14839(11) 0.18420(9) -0.51353(8)
O2 O -0.24459(12) -0.04230(10) -0.91847(9)
O3 O -0.30357(11) 0.03163(9) -0.64840(8)
C1 C -0.25348(15) -0.03978(12) -0.43547(11)
C2 C -0.36806(18) 0.05870(15) -0.87538(12)
N1 N -0.12011(15) -0.01877(12) -0.20245(11)
C3 C -0.22755(14) 0.07005(13) -0.53199(11)
C4 C -0.30077(19) 0.13663(14) -0.75408(12)
N2 N -0.43411(14) -0.26603(11) -0.48704(10)
C5 C -0.17876(15) -0.02517(12) -0.30743(12)
C6 C -0.35262(15) -0.16416(13) -0.46471(11)
H1 H -0.4735(16) 0.0033(13) -0.8557(13)
H2 H -0.3770(15) 0.2161(14) -0.7404(12)
H3 H -0.1829(17) 0.1757(15) -0.7535(12)
H4 H -0.2830(18) -0.1079(15) -0.9297(14)
H5 H -0.3929(17) 0.1352(15) -0.9434(14)
Mn1_2 Mn 0.0000 0.0000 -1.0000
Mn1C Mn -0.5000 -0.5000 -0.5000
Mn1C_2 Mn 0.5000 0.5000 0.5000
Mn1_3 Mn 0.0000 0.0000 1.0000
O1B O 0.14839(11) -0.18420(9) 0.51353(8)
O2_2 O -0.24459(12) -0.04230(10) 0.08153(9)
O2B O 0.24459(12) 0.04230(10) -0.08153(9)
O2B_2 O 0.24459(12) 0.04230(10) 0.91847(9)
O3B O 0.30357(11) -0.03163(9) 0.64840(8)
C1B C 0.25348(15) 0.03978(12) 0.43547(11)
C2B C 0.36806(18) -0.05870(15) 0.87538(12)
N1B N 0.12011(15) 0.01877(12) 0.20245(11)
C3B C 0.22755(14) -0.07005(13) 0.53199(11)
C4B C 0.30077(19) -0.13663(14) 0.75408(12)
N2A N -0.06589(14) 0.23397(11) -0.01296(10)
N2C N 0.06589(14) -0.23397(11) 0.01296(10)
N2B N 0.43411(14) 0.26603(11) 0.48704(10)
C5B C 0.17876(15) 0.02517(12) 0.30743(12)
C6B C 0.35262(15) 0.16416(13) 0.46471(11)
H1B H 0.4735(16) -0.0033(13) 0.8557(13)
H2B H 0.3770(15) -0.2161(14) 0.7404(12)
H3B H 0.1829(17) -0.1757(15) 0.7535(12)
H4_2 H -0.2830(18) -0.1079(15) 0.0703(14)
H4B H 0.2830(18) 0.1079(15) -0.0703(14)
H4B_2 H 0.2830(18) 0.1079(15) 0.9297(14)
H5B H 0.3929(17) -0.1352(15) 0.9434(14)
loop_
_geom_bond_atom_site_label_1
_geom_bond_atom_site_label_2
_geom_bond_site_symmetry_1
_geom_bond_site_symmetry_2
Mn1 N1 1_555 1_555
O1 C3 1_555 1_555
O2 C2 1_555 1_555
O3 C3 1_555 1_555
C1 C3 1_555 1_555
C2 C4 1_555 1_555
N1 C5 1_555 1_555
C4 O3 1_555 1_555
N2 C6 1_555 1_555
C5 C1 1_555 1_555
C6 C1 1_555 1_555
H1 C2 1_555 1_555
H2 C4 1_555 1_555
H3 C4 1_555 1_555
H4 O2 1_555 1_555
H5 C2 1_555 1_555
Mn1_2 O2 1_555 1_555
Mn1C N2 1_555 1_555
Mn1C_2 N2B 1_555 1_555
Mn1_3 O2B_2 1_555 1_555
O1B C3B 1_555 1_555
O2_2 Mn1 1_555 1_555
O2B Mn1 1_555 1_555
O2B_2 C2B 1_555 1_555
O3B C3B 1_555 1_555
C1B C3B 1_555 1_555
C2B C4B 1_555 1_555
N1B Mn1 1_555 1_555
C4B O3B 1_555 1_555
N2A Mn1 1_555 1_555
N2C Mn1 1_555 1_555
N2B C6B 1_555 1_555
C5B C1B 1_555 1_555
C6B C1B 1_555 1_555
H1B C2B 1_555 1_555
H2B C4B 1_555 1_555
H3B C4B 1_555 1_555
H4_2 O2_2 1_555 1_555
H4B O2B 1_555 1_555
H4B_2 O2B_2 1_555 1_555
H5B C2B 1_555 1_555
N1B C5B 1_555 1_555

#END
