
#######################################################################
#
#                 Cambridge Crystallographic Data Centre
#                                CCDC 
#
#######################################################################
#
# If this CIF has been generated from an entry in the Cambridge 
# Structural Database, then it will include bibliographic, chemical, 
# crystal, experimental, refinement or atomic coordinate data resulting 
# from the CCDC's data processing and validation procedures.
#
#######################################################################

data_DEVVOP
_symmetry_cell_setting           monoclinic
_symmetry_space_group_name_H-M   'P 21/c'
_symmetry_Int_Tables_number      14
_space_group_name_Hall           '-P 2ybc'
loop_
_symmetry_equiv_pos_site_id
_symmetry_equiv_pos_as_xyz
1 x,y,z
2 x,1/2-y,1/2+z
3 -x,-y,-z
4 -x,1/2+y,1/2-z
_cell_length_a                   10.707(4)
_cell_length_b                   17.737(4)
_cell_length_c                   19.081(8)
_cell_angle_alpha                90
_cell_angle_beta                 103.61(2)
_cell_angle_gamma                90
_cell_volume                     3521.92
loop_
_atom_site_label
_atom_site_type_symbol
_atom_site_fract_x
_atom_site_fract_y
_atom_site_fract_z
Ag1 Ag -0.34702(12) -0.14417(6) -0.07718(5)
O1 O -0.4057(10) -0.1308(5) 0.1945(5)
H1 H -0.4393(10) -0.1389(5) 0.1513(5)
C1 C -0.2881(14) -0.0924(7) 0.2005(7)
H2 H -0.2481(14) -0.0840(7) 0.2516(7)
H3 H -0.2301(14) -0.1242(7) 0.1805(7)
C2 C -0.3043(13) -0.0177(7) 0.1619(6)
C3 C -0.3558(12) -0.0289(6) 0.0799(6)
H4 H -0.4273(12) -0.0649(6) 0.0723(6)
H5 H -0.3907(12) 0.0193(6) 0.0588(6)
S1 S -0.2423(4) -0.0619(2) 0.0313(2)
C4 C -0.1943(14) 0.0258(8) -0.0035(7)
H6 H -0.1032(14) 0.0341(8) 0.0189(7)
H7 H -0.2426(14) 0.0668(8) 0.0123(7)
C5 C -0.2116(15) 0.0318(7) -0.0808(7)
H8 H -0.1783(15) -0.0143(7) -0.0982(7)
H9 H -0.3040(15) 0.0340(7) -0.1028(7)
C6 C -0.1483(14) 0.0983(7) -0.1069(6)
H10 H -0.1560(14) 0.0928(7) -0.1588(6)
H11 H -0.0566(14) 0.0976(7) -0.0832(6)
C7 C -0.2027(12) 0.1736(7) -0.0934(7)
H12 H -0.2907(12) 0.1772(7) -0.1230(7)
H13 H -0.2074(12) 0.1759(7) -0.0427(7)
S2 S -0.1134(4) 0.2537(2) -0.1122(2)
C8 C 0.0214(12) 0.2544(7) -0.0351(6)
H14 H 0.0982(12) 0.2668(7) -0.0523(6)
H15 H 0.0327(12) 0.2029(7) -0.0161(6)
C9 C -0.1741(12) 0.0236(7) 0.1791(6)
H16 H -0.1113(12) -0.0068(7) 0.1616(6)
H17 H -0.1837(12) 0.0717(7) 0.1530(6)
S3 S -0.1121(4) 0.0420(2) 0.2754(2)
C10 C 0.0182(15) 0.1117(11) 0.2696(9)
H18 H 0.0500(15) 0.1342(11) 0.3174(9)
H19 H -0.0205(15) 0.1523(11) 0.2368(9)
C11 C 0.1213(18) 0.0839(10) 0.2469(9)
H20 H 0.1516(18) 0.0383(10) 0.2746(9)
H21 H 0.0920(18) 0.0691(10) 0.1962(9)
C12 C 0.2341(16) 0.1375(9) 0.2536(6)
H22 H 0.3009(16) 0.1112(9) 0.2357(6)
H23 H 0.2691(16) 0.1473(9) 0.3051(6)
C13 C 0.2111(13) 0.2120(7) 0.2161(6)
H24 H 0.1464(13) 0.2404(7) 0.2339(6)
H25 H 0.2909(13) 0.2414(7) 0.2263(6)
S4 S 0.1566(4) 0.1974(2) 0.1206(2)
C14 C 0.1412(12) 0.2969(6) 0.0859(6)
H26 H 0.2151(12) 0.3091(6) 0.0658(6)
H27 H 0.1415(12) 0.3317(6) 0.1258(6)
C15 C -0.4042(12) 0.0292(6) 0.1906(6)
H28 H -0.4862(12) 0.0022(6) 0.1805(6)
H29 H -0.3746(12) 0.0344(6) 0.2431(6)
S5 S -0.4289(4) 0.1219(2) 0.1507(2)
C16 C -0.4044(13) 0.1826(7) 0.2292(6)
H30 H -0.3216(13) 0.1708(7) 0.2620(6)
H31 H -0.4722(13) 0.1734(7) 0.2549(6)
C17 C -0.4065(17) 0.2664(9) 0.2067(8)
H32 H -0.4742(17) 0.2758(9) 0.1632(8)
H33 H -0.4205(17) 0.2993(9) 0.2454(8)
C18 C -0.2556(35) 0.2814(16) 0.1905(12)
H34 H -0.2179(35) 0.2341(16) 0.1786(12)
H35 H -0.1971(35) 0.3045(16) 0.2322(12)
C19 C -0.2753(29) 0.3181(17) 0.1464(11)
H36 H -0.3234(29) 0.2917(17) 0.1033(11)
H37 H -0.3271(29) 0.3607(17) 0.1561(11)
S6 S -0.1065(5) 0.3552(3) 0.1306(2)
C20 C -0.1036(12) 0.2931(6) 0.0561(6)
H38 H -0.1799(12) 0.3019(6) 0.0171(6)
H39 H -0.1053(12) 0.2406(6) 0.0718(6)
C21 C 0.0187(14) 0.3071(8) 0.0283(7)
C22 C 0.0233(12) 0.3896(7) -0.0003(6)
H40 H -0.0537(12) 0.3994(7) -0.0377(6)
H41 H 0.0279(12) 0.4249(7) 0.0390(6)
H42 H 0.0983(12) 0.3955(7) -0.0200(6)
O2 O -0.3999(9) -0.2634(4) -0.0280(4)
O3 O -0.5198(10) -0.2011(5) 0.0491(5)
O4 O -0.3047(11) -0.2395(5) 0.0962(5)
S7 S -0.4212(5) -0.2557(2) 0.0444(2)
C23 C -0.4745(14) -0.3436(7) 0.0656(6)
C24 C -0.4001(15) -0.4049(8) 0.0652(7)
H43 H -0.3222(15) -0.3988(8) 0.0512(7)
C25 C -0.4321(15) -0.4749(8) 0.0840(6)
H44 H -0.3751(15) -0.5153(8) 0.0847(6)
C26 C -0.5519(16) -0.4875(8) 0.1029(7)
C27 C -0.6233(16) -0.4258(9) 0.1029(7)
H45 H -0.7013(16) -0.4320(9) 0.1168(7)
C28 C -0.5936(12) -0.3538(9) 0.0845(6)
H46 H -0.6502(12) -0.3133(9) 0.0845(6)
C29 C -0.5917(13) -0.5629(6) 0.1262(6)
H47 H -0.5277(13) -0.6004(6) 0.1224(6)
H48 H -0.5993(13) -0.5599(6) 0.1757(6)
H49 H -0.6740(13) -0.5772(6) 0.0954(6)
S4B S -0.1566(4) -0.1974(2) -0.1206(2)
Ag1B Ag 0.34702(12) 0.14417(6) 0.07718(5)
S5B S -0.5711(4) -0.1219(2) -0.1507(2)
Ag1B_2 Ag -0.65298(12) 0.14417(6) 0.07718(5)
loop_
_geom_bond_atom_site_label_1
_geom_bond_atom_site_label_2
_geom_bond_site_symmetry_1
_geom_bond_site_symmetry_2
Ag1 S1 1_555 1_555
O1 H1 1_555 1_555
C1 O1 1_555 1_555
H2 C1 1_555 1_555
H3 C1 1_555 1_555
C2 C1 1_555 1_555
C3 C2 1_555 1_555
H4 C3 1_555 1_555
H5 C3 1_555 1_555
S1 C3 1_555 1_555
C4 S1 1_555 1_555
H6 C4 1_555 1_555
H7 C4 1_555 1_555
C5 C4 1_555 1_555
H8 C5 1_555 1_555
H9 C5 1_555 1_555
C6 C5 1_555 1_555
H10 C6 1_555 1_555
H11 C6 1_555 1_555
C7 C6 1_555 1_555
H12 C7 1_555 1_555
H13 C7 1_555 1_555
S2 C7 1_555 1_555
C8 S2 1_555 1_555
H14 C8 1_555 1_555
H15 C8 1_555 1_555
C9 C2 1_555 1_555
H16 C9 1_555 1_555
H17 C9 1_555 1_555
S3 C9 1_555 1_555
C10 S3 1_555 1_555
H18 C10 1_555 1_555
H19 C10 1_555 1_555
C11 C10 1_555 1_555
H20 C11 1_555 1_555
H21 C11 1_555 1_555
C12 C11 1_555 1_555
H22 C12 1_555 1_555
H23 C12 1_555 1_555
C13 C12 1_555 1_555
H24 C13 1_555 1_555
H25 C13 1_555 1_555
S4 C13 1_555 1_555
C14 S4 1_555 1_555
H26 C14 1_555 1_555
H27 C14 1_555 1_555
C15 C2 1_555 1_555
H28 C15 1_555 1_555
H29 C15 1_555 1_555
S5 C15 1_555 1_555
C16 S5 1_555 1_555
H30 C16 1_555 1_555
H31 C16 1_555 1_555
C17 C16 1_555 1_555
H32 C17 1_555 1_555
H33 C17 1_555 1_555
C18 C17 1_555 1_555
H34 C18 1_555 1_555
H35 C18 1_555 1_555
C19 C18 1_555 1_555
H36 C19 1_555 1_555
H37 C19 1_555 1_555
S6 C19 1_555 1_555
C20 S6 1_555 1_555
H38 C20 1_555 1_555
H39 C20 1_555 1_555
C21 C8 1_555 1_555
C22 C21 1_555 1_555
H40 C22 1_555 1_555
H41 C22 1_555 1_555
H42 C22 1_555 1_555
O2 Ag1 1_555 1_555
O3 S7 1_555 1_555
O4 S7 1_555 1_555
S7 O2 1_555 1_555
C23 S7 1_555 1_555
C24 C23 1_555 1_555
H43 C24 1_555 1_555
C25 C24 1_555 1_555
H44 C25 1_555 1_555
C26 C25 1_555 1_555
C27 C26 1_555 1_555
H45 C27 1_555 1_555
C28 C23 1_555 1_555
H46 C28 1_555 1_555
C29 C26 1_555 1_555
H47 C29 1_555 1_555
H48 C29 1_555 1_555
H49 C29 1_555 1_555
S4B Ag1 1_555 1_555
Ag1B S4 1_555 1_555
S5B Ag1 1_555 1_555
Ag1B_2 S5 1_555 1_555
C14 C21 1_555 1_555
C20 C21 1_555 1_555
C27 C28 1_555 1_555

#END
