
#######################################################################
#
#                 Cambridge Crystallographic Data Centre
#                                CCDC 
#
#######################################################################
#
# If this CIF has been generated from an entry in the Cambridge 
# Structural Database, then it will include bibliographic, chemical, 
# crystal, experimental, refinement or atomic coordinate data resulting 
# from the CCDC's data processing and validation procedures.
#
#######################################################################

data_DEVXUY
_symmetry_cell_setting           monoclinic
_symmetry_space_group_name_H-M   'P 21/n'
_symmetry_Int_Tables_number      14
_space_group_name_Hall           '-P 2yn'
loop_
_symmetry_equiv_pos_site_id
_symmetry_equiv_pos_as_xyz
1 x,y,z
2 1/2-x,1/2+y,1/2-z
3 -x,-y,-z
4 1/2+x,1/2-y,1/2+z
_cell_length_a                   12.896(2)
_cell_length_b                   8.0620(10)
_cell_length_c                   21.782(4)
_cell_angle_alpha                90
_cell_angle_beta                 96.58(2)
_cell_angle_gamma                90
_cell_volume                     2249.7
loop_
_atom_site_label
_atom_site_type_symbol
_atom_site_fract_x
_atom_site_fract_y
_atom_site_fract_z
Rb1 Rb 0.39077(2) 0.24633(3) 0.496795(12)
O1 O 0.30354(15) -0.2407(2) 0.49963(8)
C1 C 0.24539(18) -0.1171(3) 0.47195(12)
C2 C 0.1716(2) -0.0341(3) 0.50249(13)
H1 H 0.1605 -0.0668 0.5427
C3 C 0.1145(2) 0.0953(4) 0.47450(15)
H2 H 0.0654 0.1503 0.4959
C4 C 0.1286(3) 0.1451(4) 0.41562(16)
H3 H 0.0885 0.2322 0.3965
C5 C 0.2018(3) 0.0660(4) 0.38525(14)
H4 H 0.2129 0.1002 0.3453
C6 C 0.2594(2) -0.0641(3) 0.41307(13)
H5 H 0.3091 -0.1174 0.3915
O2 O 0.57918(13) 0.4147(2) 0.56214(8)
H6 H 0.6241 0.3584 0.5473
C7 C 0.6209(2) 0.4806(3) 0.61722(12)
C8 C 0.7264(2) 0.4718(3) 0.63772(14)
H7 H 0.7721 0.4180 0.6136
C9 C 0.7641(3) 0.5413(4) 0.69319(17)
H8 H 0.8355 0.5335 0.7074
C10 C 0.6973(4) 0.6228(5) 0.72822(16)
H9 H 0.7232 0.6705 0.7663
C11 C 0.5929(4) 0.6341(5) 0.70728(17)
H10 H 0.5476 0.6914 0.7307
C12 C 0.5545(3) 0.5618(4) 0.65217(15)
H11 H 0.4828 0.5679 0.6384
O3 O 0.55837(14) 0.0681(2) 0.43024(8)
H12 H 0.6024 0.1349 0.4462
C13 C 0.5795(2) 0.0311(3) 0.37128(12)
C14 C 0.6527(2) 0.1185(4) 0.34284(13)
H13 H 0.6892 0.2071 0.3634
C15 C 0.6720(3) 0.0746(4) 0.28367(14)
H14 H 0.7226 0.1329 0.2644
C16 C 0.6186(3) -0.0522(5) 0.25311(14)
H15 H 0.6315 -0.0801 0.2128
C17 C 0.5456(3) -0.1392(4) 0.28150(15)
H16 H 0.5087 -0.2268 0.2605
C18 C 0.5263(2) -0.0981(4) 0.34080(14)
H17 H 0.4769 -0.1583 0.3603
O4 O 0.28467(14) 0.4930(2) 0.56766(9)
H18 H 0.2718 0.5748 0.5449
C19 C 0.19373(19) 0.4328(3) 0.58565(11)
C20 C 0.0981(2) 0.5051(4) 0.56914(12)
H19 H 0.0932 0.6039 0.5461
C21 C 0.0093(2) 0.4319(4) 0.58661(14)
H20 H -0.0561 0.4808 0.5748
C22 C 0.0151(2) 0.2883(4) 0.62107(15)
H21 H -0.0458 0.2388 0.6325
C23 C 0.1113(2) 0.2181(4) 0.63859(14)
H22 H 0.1161 0.1208 0.6625
C24 C 0.2006(2) 0.2900(3) 0.62121(12)
H23 H 0.2661 0.2420 0.6335
Rb1B Rb 0.60923(2) -0.24633(3) 0.503205(12)
Rb1B_2 Rb 0.60923(2) 0.75367(3) 0.503205(12)
O2B O 0.42082(13) 0.5853(2) 0.43786(8)
H6B H 0.3759 0.6416 0.4527
O3B O 0.44163(14) -0.0681(2) 0.56976(8)
H12B H 0.3976 -0.1349 0.5538
loop_
_geom_bond_atom_site_label_1
_geom_bond_atom_site_label_2
_geom_bond_site_symmetry_1
_geom_bond_site_symmetry_2
Rb1 C1 1_555 1_555
O1 C1 1_555 1_555
C1 C2 1_555 1_555
C2 Rb1 1_555 1_555
H1 C2 1_555 1_555
C3 Rb1 1_555 1_555
H2 C3 1_555 1_555
C4 Rb1 1_555 1_555
H3 C4 1_555 1_555
C5 Rb1 1_555 1_555
H4 C5 1_555 1_555
C6 Rb1 1_555 1_555
H5 C6 1_555 1_555
O2 Rb1 1_555 1_555
H6 O2 1_555 1_555
C7 O2 1_555 1_555
C8 C7 1_555 1_555
H7 C8 1_555 1_555
C9 C8 1_555 1_555
H8 C9 1_555 1_555
C10 C9 1_555 1_555
H9 C10 1_555 1_555
C11 C10 1_555 1_555
H10 C11 1_555 1_555
C12 C7 1_555 1_555
H11 C12 1_555 1_555
O3 Rb1 1_555 1_555
H12 O3 1_555 1_555
C13 O3 1_555 1_555
C14 C13 1_555 1_555
H13 C14 1_555 1_555
C15 C14 1_555 1_555
H14 C15 1_555 1_555
C16 C15 1_555 1_555
H15 C16 1_555 1_555
C17 C16 1_555 1_555
H16 C17 1_555 1_555
C18 C13 1_555 1_555
H17 C18 1_555 1_555
O4 Rb1 1_555 1_555
H18 O4 1_555 1_555
C19 O4 1_555 1_555
C20 C19 1_555 1_555
H19 C20 1_555 1_555
C21 C20 1_555 1_555
H20 C21 1_555 1_555
C22 C21 1_555 1_555
H21 C22 1_555 1_555
C23 C22 1_555 1_555
H22 C23 1_555 1_555
C24 C19 1_555 1_555
H23 C24 1_555 1_555
Rb1B O3 1_555 1_555
Rb1B_2 O2 1_555 1_555
O2B Rb1 1_555 1_555
H6B O2B 1_555 1_555
O3B Rb1 1_555 1_555
H12B O3B 1_555 1_555
C1 C6 1_555 1_555
C2 C3 1_555 1_555
C3 C4 1_555 1_555
C4 C5 1_555 1_555
C5 C6 1_555 1_555
C11 C12 1_555 1_555
C17 C18 1_555 1_555
C23 C24 1_555 1_555
Rb1B O3B 1_555 1_555
Rb1B_2 O2B 1_555 1_555

#END
