
#######################################################################
#
#                 Cambridge Crystallographic Data Centre
#                                CCDC 
#
#######################################################################
#
# If this CIF has been generated from an entry in the Cambridge 
# Structural Database, then it will include bibliographic, chemical, 
# crystal, experimental, refinement or atomic coordinate data resulting 
# from the CCDC's data processing and validation procedures.
#
#######################################################################

data_DEVXIM
_symmetry_cell_setting           orthorhombic
_symmetry_space_group_name_H-M   'P b c a'
_symmetry_Int_Tables_number      61
_space_group_name_Hall           '-P 2ac 2ab'
loop_
_symmetry_equiv_pos_site_id
_symmetry_equiv_pos_as_xyz
1 x,y,z
2 1/2-x,-y,1/2+z
3 -x,1/2+y,1/2-z
4 1/2+x,1/2-y,-z
5 -x,-y,-z
6 1/2+x,y,1/2-z
7 x,1/2-y,1/2+z
8 1/2-x,1/2+y,z
_cell_length_a                   9.4262(13)
_cell_length_b                   16.641(2)
_cell_length_c                   16.825(2)
_cell_angle_alpha                90
_cell_angle_beta                 90
_cell_angle_gamma                90
_cell_volume                     2639.19
loop_
_atom_site_label
_atom_site_type_symbol
_atom_site_fract_x
_atom_site_fract_y
_atom_site_fract_z
Fe1 Fe 0.54295(5) 0.01715(3) 0.66176(3)
O1 O 0.5977(3) 0.07178(15) 0.55186(14)
O2 O 0.5619(3) 0.05816(16) 0.42096(14)
O3 O 0.3587(2) 0.08782(14) 0.68519(14)
O4 O 0.4440(2) -0.04638(14) 0.76083(14)
O5 O 0.1643(2) 0.09046(14) 0.76077(14)
O6 O 0.2395(2) -0.04906(15) 0.82682(13)
C1 C 0.5462(3) 0.03786(19) 0.4923(2)
C2 C 0.2780(3) 0.06060(19) 0.73735(18)
C3 C 0.3242(3) -0.01839(19) 0.77870(18)
Fe1D Fe 0.45705(5) -0.01715(3) 0.33824(3)
Fe1E Fe 0.04295(5) 0.01715(3) 0.83824(3)
Fe1E_2 Fe 1.04295(5) 0.01715(3) 0.83824(3)
O1D O 0.4023(3) -0.07178(15) 0.44814(14)
O2D O 0.4381(3) -0.05816(16) 0.57904(14)
O3E O 0.8587(2) 0.08782(14) 0.81481(14)
O3D O 0.6413(2) -0.08782(14) 0.31481(14)
O4E O 0.9440(2) -0.04638(14) 0.73917(14)
O4D O 0.5560(2) 0.04638(14) 0.23917(14)
O5E O 0.6643(2) 0.09046(14) 0.73923(14)
O5A O 0.3357(2) -0.09046(14) 0.26077(14)
O6E O 0.7395(2) -0.04906(15) 0.67318(13)
O6A O 0.2605(2) 0.04906(15) 0.32682(13)
C1D C 0.4538(3) -0.03786(19) 0.5077(2)
C2E C 0.7780(3) 0.06060(19) 0.76265(18)
C3E C 0.8242(3) -0.01839(19) 0.72130(18)
C4 C 0.5256(8) 0.8239(3) 0.9420(3)
H1 H 0.4293 0.8018 0.9437
C5 C 0.5912(5) 0.7534(2) 0.9824(2)
H2 H 0.5476 0.7047 0.9624
H3 H 0.6913 0.7515 0.9690
C6 C 0.5763(10) 0.7555(4) 1.0701(3)
H4 H 0.5033 0.7168 1.0838
H5 H 0.6645 0.7353 1.0921
C7 C 0.5457(9) 0.8234(4) 1.1090(3)
H6 H 0.6336 0.8430 1.1319
H7 H 0.4844 0.8090 1.1531
C8 C 0.4785(7) 0.8918(3) 1.0679(3)
H8 H 0.5204 0.9412 1.0875
H9 H 0.3785 0.8928 1.0815
C9 C 0.4920(10) 0.8902(4) 0.9799(3)
H10 H 0.4022 0.9085 0.9583
H11 H 0.5623 0.9303 0.9656
C10 C 0.6802(5) 0.8167(4) 0.8228(3)
H12 H 0.7171 0.7645 0.8353
H13 H 0.7385 0.8571 0.8473
H14 H 0.6804 0.8242 0.7663
C11 C 0.4468(5) 0.7603(3) 0.8163(3)
H15 H 0.4498 0.7657 0.7596
H16 H 0.3505 0.7653 0.8343
H17 H 0.4830 0.7085 0.8312
N1 N 0.5340(3) 0.82358(18) 0.85305(17)
loop_
_geom_bond_atom_site_label_1
_geom_bond_atom_site_label_2
_geom_bond_site_symmetry_1
_geom_bond_site_symmetry_2
Fe1 O1 1_555 1_555
O1 C1 1_555 1_555
O2 C1 1_555 1_555
O3 Fe1 1_555 1_555
O4 Fe1 1_555 1_555
O5 C2 1_555 1_555
O6 C3 1_555 1_555
C1 C1D 1_555 1_555
C2 O3 1_555 1_555
C3 O4 1_555 1_555
C4 H1 1_555 1_555
C5 C4 1_555 1_555
H2 C5 1_555 1_555
H3 C5 1_555 1_555
C6 C5 1_555 1_555
H4 C6 1_555 1_555
H5 C6 1_555 1_555
C7 C6 1_555 1_555
H6 C7 1_555 1_555
H7 C7 1_555 1_555
C8 C7 1_555 1_555
H8 C8 1_555 1_555
H9 C8 1_555 1_555
C9 C4 1_555 1_555
H10 C9 1_555 1_555
H11 C9 1_555 1_555
C10 H12 1_555 1_555
H13 C10 1_555 1_555
H14 C10 1_555 1_555
C11 H15 1_555 1_555
H16 C11 1_555 1_555
H17 C11 1_555 1_555
N1 C4 1_555 1_555
Fe1D O2 1_555 1_555
Fe1E O5 1_555 1_555
Fe1E_2 O3E 1_555 1_555
O1D Fe1D 1_555 1_555
O2D Fe1 1_555 1_555
O3E C2E 1_555 1_555
O3D Fe1D 1_555 1_555
O4E Fe1E_2 1_555 1_555
O4D Fe1D 1_555 1_555
O5E Fe1 1_555 1_555
O5A Fe1D 1_555 1_555
O6E Fe1 1_555 1_555
O6A Fe1D 1_555 1_555
C1D O1D 1_555 1_555
C2E O5E 1_555 1_555
C3E O4E 1_555 1_555
O6 Fe1E 1_555 1_555
C2 C3 1_555 1_555
C8 C9 1_555 1_555
C10 N1 1_555 1_555
C11 N1 1_555 1_555
O2D C1D 1_555 1_555
O6E C3E 1_555 1_555
C2E C3E 1_555 1_555

#END
