
#######################################################################
#
#                 Cambridge Crystallographic Data Centre
#                                CCDC 
#
#######################################################################
#
# If this CIF has been generated from an entry in the Cambridge 
# Structural Database, then it will include bibliographic, chemical, 
# crystal, experimental, refinement or atomic coordinate data resulting 
# from the CCDC's data processing and validation procedures.
#
#######################################################################

data_DEVYOT
_symmetry_cell_setting           orthorhombic
_symmetry_space_group_name_H-M   'P 21 21 21'
_symmetry_Int_Tables_number      19
_space_group_name_Hall           'P 2ac 2ab'
loop_
_symmetry_equiv_pos_site_id
_symmetry_equiv_pos_as_xyz
1 x,y,z
2 1/2-x,-y,1/2+z
3 1/2+x,1/2-y,-z
4 -x,1/2+y,1/2-z
_cell_length_a                   5.719(5)
_cell_length_b                   8.764(5)
_cell_length_c                   15.841(5)
_cell_angle_alpha                90
_cell_angle_beta                 90
_cell_angle_gamma                90
_cell_volume                     793.972
loop_
_atom_site_label
_atom_site_type_symbol
_atom_site_fract_x
_atom_site_fract_y
_atom_site_fract_z
Ni1 Ni 0.32100(8) 0.32828(5) 0.19242(3)
O1 O 0.2069(5) 0.3872(3) 0.0749(2)
O2 O 0.2783(5) 0.0984(3) 0.1634(2)
H1 H 0.414(4) 0.071(7) 0.180(3)
H2 H 0.264(10) 0.086(7) 0.1104(7)
O3 O -0.0089(5) 0.3406(4) 0.2451(2)
H3 H -0.035(9) 0.422(4) 0.273(3)
H4 H -0.104(9) 0.332(6) 0.204(3)
O4 O 0.6286(5) 0.3416(3) 0.12530(19)
O5 O 0.7867(5) 0.4642(4) 0.0169(2)
O6 O 0.3774(5) 0.5518(3) 0.2242(2)
C1 C 0.6169(7) 0.4264(4) 0.0612(3)
O7 O 0.5302(5) 0.7785(3) 0.1953(2)
C2 C 0.3335(7) 0.5079(4) -0.0545(3)
H5 H 0.3503 0.4077 -0.0812
H6 H 0.4488 0.5785 -0.0784
H7 H 0.1757 0.5473 -0.0648
C3 C 0.3482(7) 0.6503(4) 0.0823(3)
H8 H 0.4400 0.7254 0.0494
H9 H 0.1820 0.6814 0.0790
C4 C 0.3735(6) 0.4931(4) 0.0395(3)
C5 C 0.4248(6) 0.6596(4) 0.1734(3)
H10 H 0.100(12) 0.405(6) 0.056(4)
Ni1C Ni 0.67900(8) 0.82828(5) 0.30758(3)
O7C O 0.4698(5) 0.2785(3) 0.3047(2)
loop_
_geom_bond_atom_site_label_1
_geom_bond_atom_site_label_2
_geom_bond_site_symmetry_1
_geom_bond_site_symmetry_2
Ni1 O1 1_555 1_555
O1 C4 1_555 1_555
O2 Ni1 1_555 1_555
H1 O2 1_555 1_555
H2 O2 1_555 1_555
O3 Ni1 1_555 1_555
H3 O3 1_555 1_555
H4 O3 1_555 1_555
O4 Ni1 1_555 1_555
O5 C1 1_555 1_555
O6 Ni1 1_555 1_555
C1 O4 1_555 1_555
O7 C5 1_555 1_555
C2 H5 1_555 1_555
H6 C2 1_555 1_555
H7 C2 1_555 1_555
C3 H8 1_555 1_555
H9 C3 1_555 1_555
C4 C1 1_555 1_555
C5 O6 1_555 1_555
H10 O1 1_555 1_555
Ni1C O7 1_555 1_555
O7C Ni1 1_555 1_555
C2 C4 1_555 1_555
C3 C4 1_555 1_555
C3 C5 1_555 1_555

#END
