
#######################################################################
#
#                 Cambridge Crystallographic Data Centre
#                                CCDC 
#
#######################################################################
#
# If this CIF has been generated from an entry in the Cambridge 
# Structural Database, then it will include bibliographic, chemical, 
# crystal, experimental, refinement or atomic coordinate data resulting 
# from the CCDC's data processing and validation procedures.
#
#######################################################################

data_DEVYIN
_symmetry_cell_setting           orthorhombic
_symmetry_space_group_name_H-M   'P 21 21 21'
_symmetry_Int_Tables_number      19
_space_group_name_Hall           'P 2ac 2ab'
loop_
_symmetry_equiv_pos_site_id
_symmetry_equiv_pos_as_xyz
1 x,y,z
2 1/2-x,-y,1/2+z
3 1/2+x,1/2-y,-z
4 -x,1/2+y,1/2-z
_cell_length_a                   5.741(5)
_cell_length_b                   8.867(5)
_cell_length_c                   15.886(5)
_cell_angle_alpha                90
_cell_angle_beta                 90
_cell_angle_gamma                90
_cell_volume                     808.684
loop_
_atom_site_label
_atom_site_type_symbol
_atom_site_fract_x
_atom_site_fract_y
_atom_site_fract_z
Co1 Co 0.68373(6) 0.32553(4) 0.80684(2)
O1 O 0.7956(3) 0.3882(2) 0.92706(10)
H1 H 0.9327 0.3534 0.9543
O2 O 0.7236(3) 0.0933(2) 0.83676(11)
H2 H 0.729(6) 0.067(4) 0.8882(7)
H3 H 0.612(5) 0.049(4) 0.8114(18)
O3 O 0.3749(3) 0.3427(2) 0.87678(11)
O4 O 0.2181(3) 0.4657(2) 0.98485(12)
O5 O 0.6215(3) 0.5511(2) 0.77607(11)
O6 O 0.4693(3) 0.7747(2) 0.80565(11)
C1 C 0.3882(4) 0.4275(3) 0.94051(16)
O7 O 1.0192(3) 0.3446(3) 0.75738(13)
H4 H 1.025(6) 0.423(3) 0.726(2)
H5 H 1.135(4) 0.341(4) 0.7905(18)
C2 C 0.6546(5) 0.6475(3) 0.91761(16)
H6 H 0.5640 0.7221 0.9504
H7 H 0.8202 0.6783 0.9203
C3 C 0.6307(4) 0.4922(3) 0.96139(15)
C4 C 0.6718(5) 0.5101(3) 1.05554(15)
H8 H 0.6556 0.4119 1.0832
H9 H 0.5571 0.5805 1.0788
H10 H 0.8291 0.5494 1.0652
C5 C 0.5765(4) 0.6568(3) 0.82661(15)
Co1C Co 0.31627(6) 0.82553(4) 0.69316(2)
O6C O 0.5307(3) 0.2747(2) 0.69435(11)
loop_
_geom_bond_atom_site_label_1
_geom_bond_atom_site_label_2
_geom_bond_site_symmetry_1
_geom_bond_site_symmetry_2
Co1 O1 1_555 1_555
O1 H1 1_555 1_555
O2 Co1 1_555 1_555
H2 O2 1_555 1_555
H3 O2 1_555 1_555
O3 Co1 1_555 1_555
O4 C1 1_555 1_555
O5 Co1 1_555 1_555
O6 C5 1_555 1_555
C1 O3 1_555 1_555
O7 Co1 1_555 1_555
H4 O7 1_555 1_555
H5 O7 1_555 1_555
C2 H6 1_555 1_555
H7 C2 1_555 1_555
C3 O1 1_555 1_555
C4 C3 1_555 1_555
H8 C4 1_555 1_555
H9 C4 1_555 1_555
H10 C4 1_555 1_555
C5 O5 1_555 1_555
Co1C O6 1_555 1_555
O6C Co1 1_555 1_555
C1 C3 1_555 1_555
C2 C3 1_555 1_555
C2 C5 1_555 1_555

#END
