
#######################################################################
#
#                 Cambridge Crystallographic Data Centre
#                                CCDC 
#
#######################################################################
#
# If this CIF has been generated from an entry in the Cambridge 
# Structural Database, then it will include bibliographic, chemical, 
# crystal, experimental, refinement or atomic coordinate data resulting 
# from the CCDC's data processing and validation procedures.
#
#######################################################################

data_DEWDOY
_symmetry_cell_setting           monoclinic
_symmetry_space_group_name_H-M   'P n'
_symmetry_Int_Tables_number      7
_space_group_name_Hall           'P -2yac'
loop_
_symmetry_equiv_pos_site_id
_symmetry_equiv_pos_as_xyz
1 x,y,z
2 1/2+x,-y,1/2+z
_cell_length_a                   12.285(7)
_cell_length_b                   13.689(6)
_cell_length_c                   7.562(5)
_cell_angle_alpha                90
_cell_angle_beta                 96.28(3)
_cell_angle_gamma                90
_cell_volume                     1264.07
loop_
_atom_site_label
_atom_site_type_symbol
_atom_site_fract_x
_atom_site_fract_y
_atom_site_fract_z
Hg1 Hg 0.2500 0.1916(1) 0.2500
Fe1 Fe -0.0988(2) 0.2183(2) 0.6912(4)
S1 S 0.0831(4) 0.0822(4) 0.2055(7)
S2 S 0.2847(6) 0.2316(6) -0.0559(8)
S3 S 0.4056(5) 0.1126(4) 0.4520(9)
S4 S 0.1902(5) 0.3461(4) 0.4077(9)
O1 O -0.0976(13) 0.3604(10) 0.5736(20)
O2 O -0.2642(14) 0.1992(11) 0.5839(25)
N1 N -0.0345(16) 0.1605(14) 0.4684(25)
N2 N 0.0667(13) 0.2394(14) -0.1881(24)
N3 N 0.3894(15) -0.0767(13) 0.3081(25)
N4 N 0.3331(19) 0.4753(14) 0.2507(31)
N5 N -0.3455(12) 0.3343(12) 0.8061(23)
N6 N -0.2592(12) 0.3771(11) 1.0892(22)
N7 N -0.1582(13) 0.3687(12) 1.1876(18)
N8 N -0.1617(13) 0.2941(12) 0.9231(22)
C1 C 0.0153(14) 0.1282(13) 0.3575(24)
C2 C 0.1563(15) 0.2348(16) -0.1340(26)
C3 C 0.3970(15) 0.0012(14) 0.3675(27)
C4 C 0.2754(21) 0.4194(16) 0.3246(39)
C5 C -0.4419(17) 0.4238(16) 1.0095(34)
C6 C -0.4351(16) 0.3815(15) 0.8443(31)
C7 C -0.2569(15) 0.3334(12) 0.9298(26)
C8 C -0.3504(18) 0.4289(15) 1.1369(29)
C9 C -0.1045(19) 0.3164(14) 1.0834(28)
C10 C -0.3463(23) 0.4739(20) 1.3098(40)
C11 C -0.5340(16) 0.3848(23) 0.7026(40)
N2_2 N 0.0667(13) 0.2394(14) 0.8119(24)
N3A N -0.1106(15) 0.0767(13) 0.8081(25)
Fe1A Fe 0.4012(2) -0.2183(2) 0.1912(4)
Fe1_2 Fe -0.0988(2) 0.2183(2) -0.3088(4)
O3 O 0.1661(18) -0.1985(12) -0.2636(31)
C12 C 0.1393(18) -0.1190(17) -0.3337(33)
C13 C 0.0603(24) -0.1163(27) -0.4957(44)
C14 C 0.1796(25) -0.0272(25) -0.2585(49)
loop_
_geom_bond_atom_site_label_1
_geom_bond_atom_site_label_2
_geom_bond_site_symmetry_1
_geom_bond_site_symmetry_2
Hg1 S1 1_555 1_555
Fe1 O1 1_555 1_555
S1 C1 1_555 1_555
S2 Hg1 1_555 1_555
S3 Hg1 1_555 1_555
S4 Hg1 1_555 1_555
O2 Fe1 1_555 1_555
N1 Fe1 1_555 1_555
N2 C2 1_555 1_555
N3 C3 1_555 1_555
N4 C4 1_555 1_555
N5 C6 1_555 1_555
N6 N7 1_555 1_555
N7 C9 1_555 1_555
N8 Fe1 1_555 1_555
C1 N1 1_555 1_555
C2 S2 1_555 1_555
C3 S3 1_555 1_555
C4 S4 1_555 1_555
C5 C6 1_555 1_555
C6 C11 1_555 1_555
C7 N5 1_555 1_555
C8 N6 1_555 1_555
C9 N8 1_555 1_555
C10 C8 1_555 1_555
O3 C12 1_555 1_555
C12 C13 1_555 1_555
C14 C12 1_555 1_555
N2_2 Fe1 1_555 1_555
N3A Fe1 1_555 1_555
Fe1A N3 1_555 1_555
Fe1_2 N2 1_555 1_555
N6 C7 1_555 1_555
N8 C7 1_555 1_555
C5 C8 1_555 1_555

#END
