
#######################################################################
#
#                 Cambridge Crystallographic Data Centre
#                                CCDC 
#
#######################################################################
#
# If this CIF has been generated from an entry in the Cambridge 
# Structural Database, then it will include bibliographic, chemical, 
# crystal, experimental, refinement or atomic coordinate data resulting 
# from the CCDC's data processing and validation procedures.
#
#######################################################################

data_DEWDIS
_symmetry_cell_setting           monoclinic
_symmetry_space_group_name_H-M   'P 21/n'
_symmetry_Int_Tables_number      14
_space_group_name_Hall           '-P 2yn'
loop_
_symmetry_equiv_pos_site_id
_symmetry_equiv_pos_as_xyz
1 x,y,z
2 1/2-x,1/2+y,1/2-z
3 -x,-y,-z
4 1/2+x,1/2-y,1/2+z
_cell_length_a                   11.599(7)
_cell_length_b                   16.541(5)
_cell_length_c                   14.766(10)
_cell_angle_alpha                90
_cell_angle_beta                 98.47(5)
_cell_angle_gamma                90
_cell_volume                     2802.09
loop_
_atom_site_label
_atom_site_type_symbol
_atom_site_fract_x
_atom_site_fract_y
_atom_site_fract_z
Hg1 Hg 0.4738(1) 0.2089(1) 0.1121(1)
Fe1 Fe 0.4039(2) 0.5493(1) 0.1897(1)
S1 S 0.6406(3) 0.3048(3) 0.1673(3)
S2 S 0.5360(4) 0.0679(3) 0.1235(4)
S3 S 0.3023(5) 0.2689(3) 0.1814(4)
S4 S 0.3860(5) 0.2462(4) -0.0551(3)
O1 O 0.3308(8) 0.4759(6) 0.2853(6)
N1 N 0.5122(11) 0.4497(8) 0.1670(8)
N2 N 0.3203(15) -0.0089(10) 0.0814(13)
N3 N 0.2065(12) 0.1433(8) 0.2730(9)
N4 N 0.5228(12) 0.3728(7) -0.0968(9)
N5 N 0.4465(11) 0.5909(7) 0.4317(8)
N6 N 0.6365(11) 0.6403(7) 0.4218(8)
N7 N 0.7147(11) 0.6463(7) 0.3596(9)
N8 N 0.5399(11) 0.5909(8) 0.2962(8)
N9 N 0.1257(11) 0.4402(7) 0.1510(8)
N10 N 0.1423(11) 0.4316(7) -0.0076(8)
N11 N 0.2174(12) 0.4587(8) -0.0653(8)
N12 N 0.2775(10) 0.5015(7) 0.0803(8)
C1 C 0.5642(12) 0.3902(10) 0.1672(9)
C2 C 0.4064(17) 0.0244(11) 0.0999(12)
C3 C 0.2474(14) 0.1927(9) 0.2353(10)
C4 C 0.4688(13) 0.3228(9) -0.0759(9)
C5 C 0.5708(15) 0.6497(8) 0.5618(10)
C6 C 0.4634(15) 0.6140(9) 0.5209(11)
C7 C 0.5352(14) 0.6054(7) 0.3847(11)
C8 C 0.6595(15) 0.6647(8) 0.5140(9)
C9 C 0.6482(15) 0.6145(9) 0.2863(11)
C10 C 0.3639(14) 0.5994(11) 0.5732(11)
C11 C 0.7758(14) 0.6991(10) 0.5479(11)
C12 C -0.0103(14) 0.3671(10) 0.0419(13)
C13 C 0.0300(14) 0.3945(9) 0.1325(12)
C14 C 0.1788(13) 0.4584(8) 0.0797(10)
C15 C 0.0467(15) 0.3865(10) -0.0296(12)
C16 C 0.2976(15) 0.4981(9) -0.0094(11)
C17 C -0.0300(1) 0.3716(12) 0.2109(13)
C18 C 0.0143(17) 0.3586(12) -0.1282(11)
N3A N 0.2935(12) 0.6433(8) 0.2270(9)
N4B N 0.4772(12) 0.6272(7) 0.0968(9)
Fe1A Fe 0.0961(2) 0.0493(1) 0.3103(1)
Fe1B Fe 0.5961(2) 0.4507(1) -0.1897(1)
loop_
_geom_bond_atom_site_label_1
_geom_bond_atom_site_label_2
_geom_bond_site_symmetry_1
_geom_bond_site_symmetry_2
Hg1 S1 1_555 1_555
Fe1 O1 1_555 1_555
S1 C1 1_555 1_555
S2 Hg1 1_555 1_555
S3 Hg1 1_555 1_555
S4 Hg1 1_555 1_555
N1 Fe1 1_555 1_555
N2 C2 1_555 1_555
N3 C3 1_555 1_555
N4 C4 1_555 1_555
N5 C6 1_555 1_555
N6 N7 1_555 1_555
N7 C9 1_555 1_555
N8 Fe1 1_555 1_555
N9 C13 1_555 1_555
N10 N11 1_555 1_555
N11 C16 1_555 1_555
N12 Fe1 1_555 1_555
C1 N1 1_555 1_555
C2 S2 1_555 1_555
C3 S3 1_555 1_555
C4 S4 1_555 1_555
C5 C6 1_555 1_555
C6 C10 1_555 1_555
C7 N5 1_555 1_555
C8 N6 1_555 1_555
C9 N8 1_555 1_555
C11 C8 1_555 1_555
C12 C13 1_555 1_555
C13 C17 1_555 1_555
C14 N9 1_555 1_555
C15 N10 1_555 1_555
C16 N12 1_555 1_555
C18 C15 1_555 1_555
N3A Fe1 1_555 1_555
N4B Fe1 1_555 1_555
Fe1A N3 1_555 1_555
Fe1B N4 1_555 1_555
N6 C7 1_555 1_555
N8 C7 1_555 1_555
N10 C14 1_555 1_555
N12 C14 1_555 1_555
C5 C8 1_555 1_555
C12 C15 1_555 1_555

#END
