
#######################################################################
#
#                 Cambridge Crystallographic Data Centre
#                                CCDC 
#
#######################################################################
#
# If this CIF has been generated from an entry in the Cambridge 
# Structural Database, then it will include bibliographic, chemical, 
# crystal, experimental, refinement or atomic coordinate data resulting 
# from the CCDC's data processing and validation procedures.
#
#######################################################################

data_DEWHOD
_symmetry_cell_setting           monoclinic
_symmetry_space_group_name_H-M   'P 21/n'
_symmetry_Int_Tables_number      14
_space_group_name_Hall           '-P 2yn'
loop_
_symmetry_equiv_pos_site_id
_symmetry_equiv_pos_as_xyz
1 x,y,z
2 1/2-x,1/2+y,1/2-z
3 -x,-y,-z
4 1/2+x,1/2-y,1/2+z
_cell_length_a                   4.8234(2)
_cell_length_b                   15.3064(7)
_cell_length_c                   6.2353(3)
_cell_angle_alpha                90.00
_cell_angle_beta                 91.223(3)
_cell_angle_gamma                90.00
_cell_volume                     460.24
loop_
_atom_site_label
_atom_site_type_symbol
_atom_site_fract_x
_atom_site_fract_y
_atom_site_fract_z
Zn1 Zn 0.52028(3) 0.195447(10) 0.17489(2)
S1 S 0.51780(6) 0.371901(19) 0.41080(4)
O1 O 0.4431(2) 0.32028(7) 0.20636(15)
O2 O 0.83055(19) 0.36296(8) 0.43396(16)
O3 O 0.4134(2) 0.31732(8) 0.59782(16)
N1 N 0.4605(2) 0.12105(7) 0.43546(15)
H1 H 0.5667 0.1417 0.5446
H2 H 0.2822 0.1257 0.4736
C1 C 0.5266(3) 0.02793(8) 0.4024(2)
H3 H 0.7202 0.0227 0.3654
H4 H 0.4159 0.0060 0.2824
Zn1C Zn 0.02028(3) 0.304553(10) -0.32511(2)
Zn1C_2 Zn 1.02028(3) 0.304553(10) 0.67489(2)
Zn1C_3 Zn 0.02028(3) 0.304553(10) 0.67489(2)
Zn1B Zn 0.47972(3) -0.195447(10) 0.82511(2)
Zn1_2 Zn -0.47972(3) 0.195447(10) 0.17489(2)
S1C S 0.01780(6) 0.128099(19) -0.08920(4)
O1C O -0.0569(2) 0.17972(7) -0.29364(15)
O2C O 0.33055(19) 0.13704(8) -0.06604(16)
O2_2 O -0.16945(19) 0.36296(8) -0.56604(16)
O3C O -0.0866(2) 0.18268(8) 0.09782(16)
O3C_2 O 0.9134(2) 0.18268(8) 0.09782(16)
O3_2 O 0.4134(2) 0.31732(8) -0.40218(16)
N1B N 0.5395(2) -0.12105(7) 0.56454(15)
N1C N -0.0395(2) 0.37895(7) -0.06454(15)
H1B H 0.4333 -0.1417 0.4554
H1C H 0.0667 0.3583 0.0446
H2B H 0.7178 -0.1257 0.5264
H2C H -0.2178 0.3743 -0.0264
C1B C 0.4734(3) -0.02793(8) 0.5976(2)
H3B H 0.2798 -0.0227 0.6346
H4B H 0.5841 -0.0060 0.7176
loop_
_geom_bond_atom_site_label_1
_geom_bond_atom_site_label_2
_geom_bond_site_symmetry_1
_geom_bond_site_symmetry_2
Zn1 O1 1_555 1_555
S1 O1 1_555 1_555
O2 S1 1_555 1_555
O3 S1 1_555 1_555
N1 Zn1 1_555 1_555
H1 N1 1_555 1_555
H2 N1 1_555 1_555
C1 N1 1_555 1_555
H3 C1 1_555 1_555
H4 C1 1_555 1_555
Zn1C O1C 1_555 1_555
Zn1C_2 O2 1_555 1_555
Zn1C_3 O3 1_555 1_555
Zn1B N1B 1_555 1_555
Zn1_2 O3C 1_555 1_555
S1C O1C 1_555 1_555
O2C Zn1 1_555 1_555
O2_2 Zn1C 1_555 1_555
O3C S1C 1_555 1_555
O3C_2 Zn1 1_555 1_555
O3_2 Zn1C 1_555 1_555
N1B H1B 1_555 1_555
N1C Zn1C 1_555 1_555
H1C N1C 1_555 1_555
H2B N1B 1_555 1_555
H2C N1C 1_555 1_555
C1B C1 1_555 1_555
H3B C1B 1_555 1_555
H4B C1B 1_555 1_555
S1C O2C 1_555 1_555
N1B C1B 1_555 1_555

#END
