
#######################################################################
#
#                 Cambridge Crystallographic Data Centre
#                                CCDC 
#
#######################################################################
#
# If this CIF has been generated from an entry in the Cambridge 
# Structural Database, then it will include bibliographic, chemical, 
# crystal, experimental, refinement or atomic coordinate data resulting 
# from the CCDC's data processing and validation procedures.
#
#######################################################################

data_DEWHET
_symmetry_cell_setting           orthorhombic
_symmetry_space_group_name_H-M   'P 21 21 21'
_symmetry_Int_Tables_number      19
_space_group_name_Hall           'P 2ac 2ab'
loop_
_symmetry_equiv_pos_site_id
_symmetry_equiv_pos_as_xyz
1 x,y,z
2 1/2-x,-y,1/2+z
3 -x,1/2+y,1/2-z
4 1/2+x,1/2-y,-z
_cell_length_a                   7.32690(10)
_cell_length_b                   8.29220(10)
_cell_length_c                   12.1221(2)
_cell_angle_alpha                90
_cell_angle_beta                 90
_cell_angle_gamma                90
_cell_volume                     736.492
loop_
_atom_site_label
_atom_site_type_symbol
_atom_site_fract_x
_atom_site_fract_y
_atom_site_fract_z
Zn1 Zn 0.09157(3) 0.63862(3) 0.01148(2)
S1 S 0.20806(6) 1.00457(6) 0.00906(5)
O1 O 0.0570(2) 0.87196(17) -0.00147(14)
O2 O 0.3603(2) 0.9435(2) -0.06796(16)
O3 O 0.2830(3) 0.9908(2) 0.12281(17)
N1 N 0.2414(2) 0.5750(2) 0.14891(15)
H1 H 0.3579 0.6100 0.1390
C1 C 0.2712(3) 0.6091(2) 0.35321(18)
H2 H 0.3949 0.6499 0.3479
H3 H 0.2137 0.6599 0.4163
C2 C 0.1668(3) 0.6544(3) 0.24910(18)
H4 H 0.0398 0.6240 0.2579
H5 H 0.1717 0.7705 0.2394
C3 C 0.3468(3) 0.3493(3) 0.27083(18)
H6 H 0.3363 0.2336 0.2807
H7 H 0.4753 0.3746 0.2622
C4 C 0.2464(3) 0.3974(2) 0.16652(17)
H8 H 0.3053 0.3469 0.1037
H9 H 0.1223 0.3570 0.1703
N2 N 0.2770(3) 0.4313(2) 0.37103(15)
H10 H 0.1590 0.3990 0.3788
Zn1C Zn 0.59157(3) 0.86138(3) -0.01148(2)
Zn1A Zn 0.40843(3) 0.36138(3) 0.51148(2)
O2C O -0.1397(2) 0.5565(2) 0.06796(16)
N2A N 0.2230(3) 0.5687(2) -0.12897(15)
H10A H 0.3410 0.6010 -0.1212
loop_
_geom_bond_atom_site_label_1
_geom_bond_atom_site_label_2
_geom_bond_site_symmetry_1
_geom_bond_site_symmetry_2
Zn1 O1 1_555 1_555
S1 O1 1_555 1_555
O2 S1 1_555 1_555
O3 S1 1_555 1_555
N1 Zn1 1_555 1_555
H1 N1 1_555 1_555
C1 H2 1_555 1_555
H3 C1 1_555 1_555
C2 N1 1_555 1_555
H4 C2 1_555 1_555
H5 C2 1_555 1_555
C3 H6 1_555 1_555
H7 C3 1_555 1_555
C4 N1 1_555 1_555
H8 C4 1_555 1_555
H9 C4 1_555 1_555
N2 C1 1_555 1_555
H10 N2 1_555 1_555
Zn1C O2 1_555 1_555
Zn1A N2 1_555 1_555
O2C Zn1 1_555 1_555
N2A Zn1 1_555 1_555
H10A N2A 1_555 1_555
C1 C2 1_555 1_555
C3 C4 1_555 1_555
C3 N2 1_555 1_555

#END
