
#######################################################################
#
#                 Cambridge Crystallographic Data Centre
#                                CCDC 
#
#######################################################################
#
# If this CIF has been generated from an entry in the Cambridge 
# Structural Database, then it will include bibliographic, chemical, 
# crystal, experimental, refinement or atomic coordinate data resulting 
# from the CCDC's data processing and validation procedures.
#
#######################################################################

data_DEWQEB
_symmetry_cell_setting           monoclinic
_symmetry_space_group_name_H-M   'P 21/n'
_symmetry_Int_Tables_number      14
_space_group_name_Hall           '-P 2yn'
loop_
_symmetry_equiv_pos_site_id
_symmetry_equiv_pos_as_xyz
1 x,y,z
2 1/2+x,1/2-y,1/2+z
3 -x,-y,-z
4 1/2-x,1/2+y,1/2-z
_cell_length_a                   11.5604(1)
_cell_length_b                   16.7875(2)
_cell_length_c                   13.8918(2)
_cell_angle_alpha                90
_cell_angle_beta                 104.712(1)
_cell_angle_gamma                90
_cell_volume                     2607.6
loop_
_atom_site_label
_atom_site_type_symbol
_atom_site_fract_x
_atom_site_fract_y
_atom_site_fract_z
La1 La -0.335990(13) 0.180530(9) 0.304790(12)
O1 O -0.1591(2) 0.26983(11) 0.3512(2)
O2 O -0.4053(2) 0.31057(11) 0.3595(2)
O3 O -0.3711(2) 0.26371(11) 0.15367(14)
O4 O -0.7749(2) 0.33904(12) -0.0157(2)
O5 O -0.5366(2) 0.16737(13) 0.3818(2)
O6 O -0.5675(2) 0.15967(12) 0.2223(2)
O7 O -0.7165(2) 0.1498(2) 0.2915(2)
O8 O -0.4053(2) 0.03529(11) 0.3342(2)
O9 O -0.3939(2) 0.05479(12) 0.1827(2)
O10 O -0.4747(2) -0.05404(13) 0.2215(2)
O11 O -0.1781(2) 0.13766(12) 0.1958(2)
O12 O -0.1522(2) 0.08002(12) 0.3390(2)
O13 O -0.0418(2) 0.04551(13) 0.2395(2)
N1 N 0.0308(2) 0.30876(13) 0.4126(2)
N2 N -0.3933(2) 0.38082(15) 0.4989(2)
N3 N -0.2990(2) 0.35690(14) 0.0671(2)
N4 N -0.7710(2) 0.40612(14) 0.1252(2)
N5 N -0.6092(2) 0.15941(14) 0.2990(2)
N6 N -0.4255(2) 0.01060(14) 0.2454(2)
N7 N -0.1220(2) 0.08662(14) 0.2577(2)
C1 C -0.0860(2) 0.3181(2) 0.4024(2)
C2 C -0.1299(2) 0.3879(2) 0.4526(2)
H1 H -0.0741(2) 0.4332(2) 0.4568(2)
H2 H -0.1311(2) 0.3727(2) 0.5212(2)
C3 C -0.2569(2) 0.4140(2) 0.3946(2)
H3 H -0.2684(2) 0.4705(2) 0.4103(2)
H4 H -0.2626(2) 0.4104(2) 0.3224(2)
C4 C -0.3568(2) 0.3652(2) 0.4173(2)
C5 C 0.0714(3) 0.2503(2) 0.3502(3)
H5 H 0.0128(9) 0.2070(6) 0.3334(12)
H6 H 0.1489(9) 0.2286(9) 0.3865(6)
H7 H 0.0796(17) 0.2761(3) 0.2890(7)
C6 C 0.1224(3) 0.3626(2) 0.4698(2)
H8 H 0.0935(8) 0.3872(10) 0.5233(10)
H9 H 0.1393(14) 0.4042(8) 0.4258(4)
H10 H 0.1956(7) 0.3325(3) 0.4986(13)
C7 C -0.3428(3) 0.4441(2) 0.5712(3)
H11 H -0.3014(18) 0.4833(7) 0.5397(6)
H12 H -0.2860(16) 0.4206(3) 0.6288(8)
H13 H -0.4074(4) 0.4704(9) 0.5931(13)
C8 C -0.4835(3) 0.3306(2) 0.5260(3)
H14 H -0.5299(15) 0.3026(11) 0.4668(5)
H15 H -0.5371(14) 0.3638(3) 0.5534(18)
H16 H -0.4439(4) 0.2915(10) 0.5761(14)
C9 C -0.3860(2) 0.3262(2) 0.1023(2)
C10 C -0.5051(2) 0.3691(2) 0.0781(2)
H17 H -0.5333(2) 0.3765(2) 0.0052(2)
H18 H -0.4947(2) 0.4225(2) 0.1095(2)
C11 C -0.5991(2) 0.3225(2) 0.1153(2)
H19 H -0.5981(2) 0.2659(2) 0.0955(2)
H20 H -0.5801(2) 0.3249(2) 0.1889(2)
C12 C -0.7214(2) 0.3572(2) 0.0720(2)
C13 C -0.3128(3) 0.4296(2) 0.0059(3)
H21 H -0.3976(3) 0.4441(7) -0.0154(13)
H22 H -0.2823(16) 0.4200(4) -0.0527(8)
H23 H -0.2676(15) 0.4732(3) 0.0452(5)
C14 C -0.1798(2) 0.3204(2) 0.0898(3)
H24 H -0.1823(5) 0.2687(6) 0.1221(14)
H25 H -0.1224(4) 0.3553(6) 0.1345(12)
H26 H -0.1551(8) 0.3127(11) 0.0280(3)
C15 C -0.8907(2) 0.4385(2) 0.0839(3)
H27 H -0.9214(8) 0.4194(10) 0.0154(6)
H28 H -0.8869(4) 0.4968(2) 0.0840(14)
H29 H -0.9440(5) 0.4209(10) 0.1244(9)
C16 C -0.7133(3) 0.4325(2) 0.2261(3)
H30 H -0.6265(3) 0.4257(13) 0.2387(6)
H31 H -0.7429(15) 0.4007(9) 0.2740(3)
H32 H -0.7316(17) 0.4888(4) 0.2333(6)
O4A O -0.2749(2) 0.16096(12) 0.4843(2)
La1A La -0.835990(13) 0.319470(9) -0.195210(12)
loop_
_geom_bond_atom_site_label_1
_geom_bond_atom_site_label_2
_geom_bond_site_symmetry_1
_geom_bond_site_symmetry_2
La1 O1 1_555 1_555
O1 C1 1_555 1_555
O2 La1 1_555 1_555
O3 La1 1_555 1_555
O4 C12 1_555 1_555
O5 La1 1_555 1_555
O6 La1 1_555 1_555
O7 N5 1_555 1_555
O8 La1 1_555 1_555
O9 La1 1_555 1_555
O10 N6 1_555 1_555
O11 La1 1_555 1_555
O12 La1 1_555 1_555
O13 N7 1_555 1_555
N1 C1 1_555 1_555
N2 C4 1_555 1_555
N3 C9 1_555 1_555
N4 C12 1_555 1_555
N5 O5 1_555 1_555
N6 O8 1_555 1_555
N7 O11 1_555 1_555
C1 C2 1_555 1_555
C2 H1 1_555 1_555
H2 C2 1_555 1_555
C3 C2 1_555 1_555
H3 C3 1_555 1_555
H4 C3 1_555 1_555
C4 O2 1_555 1_555
C5 N1 1_555 1_555
H5 C5 1_555 1_555
H6 C5 1_555 1_555
H7 C5 1_555 1_555
C6 N1 1_555 1_555
H8 C6 1_555 1_555
H9 C6 1_555 1_555
H10 C6 1_555 1_555
C7 N2 1_555 1_555
H11 C7 1_555 1_555
H12 C7 1_555 1_555
H13 C7 1_555 1_555
C8 N2 1_555 1_555
H14 C8 1_555 1_555
H15 C8 1_555 1_555
H16 C8 1_555 1_555
C9 O3 1_555 1_555
C10 C9 1_555 1_555
H17 C10 1_555 1_555
H18 C10 1_555 1_555
C11 C10 1_555 1_555
H19 C11 1_555 1_555
H20 C11 1_555 1_555
C12 C11 1_555 1_555
C13 N3 1_555 1_555
H21 C13 1_555 1_555
H22 C13 1_555 1_555
H23 C13 1_555 1_555
C14 N3 1_555 1_555
H24 C14 1_555 1_555
H25 C14 1_555 1_555
H26 C14 1_555 1_555
C15 N4 1_555 1_555
H27 C15 1_555 1_555
H28 C15 1_555 1_555
H29 C15 1_555 1_555
C16 N4 1_555 1_555
H30 C16 1_555 1_555
H31 C16 1_555 1_555
H32 C16 1_555 1_555
O4A La1 1_555 1_555
La1A O4 1_555 1_555
O6 N5 1_555 1_555
O9 N6 1_555 1_555
O12 N7 1_555 1_555
C3 C4 1_555 1_555

#END
