
#######################################################################
#
#                 Cambridge Crystallographic Data Centre
#                                CCDC 
#
#######################################################################
#
# If this CIF has been generated from an entry in the Cambridge 
# Structural Database, then it will include bibliographic, chemical, 
# crystal, experimental, refinement or atomic coordinate data resulting 
# from the CCDC's data processing and validation procedures.
#
#######################################################################

data_DEWQIF
_symmetry_cell_setting           monoclinic
_symmetry_space_group_name_H-M   'P 21/n'
_symmetry_Int_Tables_number      14
_space_group_name_Hall           '-P 2yn'
loop_
_symmetry_equiv_pos_site_id
_symmetry_equiv_pos_as_xyz
1 x,y,z
2 1/2+x,1/2-y,1/2+z
3 -x,-y,-z
4 1/2-x,1/2+y,1/2-z
_cell_length_a                   11.5490(3)
_cell_length_b                   16.7235(5)
_cell_length_c                   13.8387(4)
_cell_angle_alpha                90
_cell_angle_beta                 104.854(1)
_cell_angle_gamma                90
_cell_volume                     2583.48
loop_
_atom_site_label
_atom_site_type_symbol
_atom_site_fract_x
_atom_site_fract_y
_atom_site_fract_z
Ce1 Ce -0.335340(9) 0.180610(6) 0.304500(8)
O1 O -0.15938(13) 0.26883(9) 0.35014(12)
O2 O -0.40485(13) 0.30895(9) 0.35919(12)
O3 O -0.37097(12) 0.26345(8) 0.15424(11)
O4 O -0.77482(13) 0.33902(10) -0.01689(11)
O5 O -0.5376(2) 0.16768(11) 0.38170(14)
O6 O -0.56491(14) 0.16017(10) 0.22266(13)
O7 O -0.7159(2) 0.1510(2) 0.2889(2)
O8 O -0.40485(13) 0.03683(9) 0.33455(11)
O9 O -0.39358(14) 0.05555(9) 0.18255(12)
O10 O -0.4736(2) -0.05342(11) 0.22233(15)
O11 O -0.17846(12) 0.13793(10) 0.19535(11)
O12 O -0.15365(14) 0.08004(9) 0.33888(12)
O13 O -0.04255(14) 0.04549(11) 0.23973(15)
N1 N 0.0309(2) 0.30808(10) 0.41115(14)
N2 N -0.3929(2) 0.38077(12) 0.4986(2)
N3 N -0.29864(15) 0.35676(11) 0.06743(14)
N4 N -0.77118(15) 0.40610(11) 0.12464(14)
N5 N -0.6092(2) 0.16016(12) 0.2981(2)
N6 N -0.4248(2) 0.01176(11) 0.24586(15)
N7 N -0.12324(15) 0.08675(11) 0.25702(15)
C1 C -0.0864(2) 0.31737(11) 0.4016(2)
C2 C -0.1302(2) 0.38698(13) 0.4519(2)
H1 H -0.0742(2) 0.43245(13) 0.4565(2)
H2 H -0.1313(2) 0.37149(13) 0.5207(2)
C3 C -0.2569(2) 0.41342(12) 0.3941(2)
H3 H -0.2682(2) 0.47015(12) 0.4099(2)
H4 H -0.2630(2) 0.40991(12) 0.3215(2)
C4 C -0.3567(2) 0.36450(13) 0.4170(2)
C5 C 0.0714(2) 0.24971(14) 0.3485(2)
H5 H 0.0169(8) 0.2038(5) 0.3366(10)
H6 H 0.1524(6) 0.2317(7) 0.3824(6)
H7 H 0.0723(14) 0.2745(3) 0.2845(5)
C6 C 0.1229(2) 0.36224(14) 0.4683(2)
H8 H 0.0953(7) 0.3858(8) 0.5232(8)
H9 H 0.1378(11) 0.4048(6) 0.4243(3)
H10 H 0.1970(5) 0.3323(3) 0.4955(11)
C7 C -0.3430(3) 0.4441(2) 0.5699(2)
H11 H -0.3452(16) 0.4949(3) 0.5343(3)
H12 H -0.2599(6) 0.4310(6) 0.6042(11)
H13 H -0.3904(11) 0.4488(8) 0.6192(9)
C8 C -0.4829(3) 0.3304(2) 0.5262(2)
H14 H -0.5362(11) 0.3077(10) 0.4657(3)
H15 H -0.5299(12) 0.3627(3) 0.5615(14)
H16 H -0.4430(3) 0.2870(7) 0.5698(12)
C9 C -0.3859(2) 0.32584(12) 0.1028(2)
C10 C -0.5050(2) 0.36877(12) 0.0781(2)
H17 H -0.5330(2) 0.37619(12) 0.0048(2)
H18 H -0.4948(2) 0.42233(12) 0.1096(2)
C11 C -0.5993(2) 0.32204(12) 0.1147(2)
H19 H -0.5984(2) 0.26530(12) 0.0945(2)
H20 H -0.5804(2) 0.32425(12) 0.1886(2)
C12 C -0.7216(2) 0.35721(12) 0.0709(2)
C13 C -0.3121(2) 0.42935(13) 0.0057(2)
H21 H -0.3967(3) 0.4450(6) -0.0141(10)
H22 H -0.2841(13) 0.4188(3) -0.0542(6)
H23 H -0.2646(11) 0.4727(3) 0.0442(4)
C14 C -0.1797(2) 0.31973(14) 0.0902(2)
H24 H -0.1831(4) 0.2671(4) 0.1205(11)
H25 H -0.1224(3) 0.3538(5) 0.1369(9)
H26 H -0.1541(6) 0.3135(9) 0.0283(3)
C15 C -0.8913(2) 0.43835(15) 0.0829(2)
H27 H -0.9226(6) 0.4182(8) 0.0146(5)
H28 H -0.8875(3) 0.49687(15) 0.0816(12)
H29 H -0.9442(4) 0.4216(8) 0.1243(7)
C16 C -0.7127(2) 0.4320(2) 0.2261(2)
H30 H -0.6257(3) 0.4266(11) 0.2378(5)
H31 H -0.7403(13) 0.3988(8) 0.2741(2)
H32 H -0.7329(14) 0.4881(4) 0.2346(5)
O4A O -0.27482(13) 0.16098(10) 0.48311(11)
Ce1A Ce -0.835340(9) 0.319390(6) -0.195500(8)
loop_
_geom_bond_atom_site_label_1
_geom_bond_atom_site_label_2
_geom_bond_site_symmetry_1
_geom_bond_site_symmetry_2
Ce1 O1 1_555 1_555
O1 C1 1_555 1_555
O2 Ce1 1_555 1_555
O3 Ce1 1_555 1_555
O4 C12 1_555 1_555
O5 Ce1 1_555 1_555
O6 Ce1 1_555 1_555
O7 N5 1_555 1_555
O8 Ce1 1_555 1_555
O9 Ce1 1_555 1_555
O10 N6 1_555 1_555
O11 Ce1 1_555 1_555
O12 Ce1 1_555 1_555
O13 N7 1_555 1_555
N1 C1 1_555 1_555
N2 C4 1_555 1_555
N3 C9 1_555 1_555
N4 C12 1_555 1_555
N5 O5 1_555 1_555
N6 O8 1_555 1_555
N7 O11 1_555 1_555
C1 C2 1_555 1_555
C2 H1 1_555 1_555
H2 C2 1_555 1_555
C3 C2 1_555 1_555
H3 C3 1_555 1_555
H4 C3 1_555 1_555
C4 O2 1_555 1_555
C5 N1 1_555 1_555
H5 C5 1_555 1_555
H6 C5 1_555 1_555
H7 C5 1_555 1_555
C6 N1 1_555 1_555
H8 C6 1_555 1_555
H9 C6 1_555 1_555
H10 C6 1_555 1_555
C7 N2 1_555 1_555
H11 C7 1_555 1_555
H12 C7 1_555 1_555
H13 C7 1_555 1_555
C8 N2 1_555 1_555
H14 C8 1_555 1_555
H15 C8 1_555 1_555
H16 C8 1_555 1_555
C9 O3 1_555 1_555
C10 C9 1_555 1_555
H17 C10 1_555 1_555
H18 C10 1_555 1_555
C11 C10 1_555 1_555
H19 C11 1_555 1_555
H20 C11 1_555 1_555
C12 C11 1_555 1_555
C13 N3 1_555 1_555
H21 C13 1_555 1_555
H22 C13 1_555 1_555
H23 C13 1_555 1_555
C14 N3 1_555 1_555
H24 C14 1_555 1_555
H25 C14 1_555 1_555
H26 C14 1_555 1_555
C15 N4 1_555 1_555
H27 C15 1_555 1_555
H28 C15 1_555 1_555
H29 C15 1_555 1_555
C16 N4 1_555 1_555
H30 C16 1_555 1_555
H31 C16 1_555 1_555
H32 C16 1_555 1_555
O4A Ce1 1_555 1_555
Ce1A O4 1_555 1_555
O6 N5 1_555 1_555
O9 N6 1_555 1_555
O12 N7 1_555 1_555
C3 C4 1_555 1_555

#END
