
#######################################################################
#
#                 Cambridge Crystallographic Data Centre
#                                CCDC 
#
#######################################################################
#
# If this CIF has been generated from an entry in the Cambridge 
# Structural Database, then it will include bibliographic, chemical, 
# crystal, experimental, refinement or atomic coordinate data resulting 
# from the CCDC's data processing and validation procedures.
#
#######################################################################

data_DEWQUS
_symmetry_cell_setting           orthorhombic
_symmetry_space_group_name_H-M   'P c c n'
_symmetry_Int_Tables_number      56
_space_group_name_Hall           '-P 2ab 2ac'
loop_
_symmetry_equiv_pos_site_id
_symmetry_equiv_pos_as_xyz
1 x,y,z
2 1/2-x,1/2-y,z
3 -x,1/2+y,1/2-z
4 1/2+x,-y,1/2-z
5 -x,-y,-z
6 1/2+x,1/2+y,-z
7 x,1/2-y,1/2+z
8 1/2-x,y,1/2+z
_cell_length_a                   27.644(6)
_cell_length_b                   16.017(3)
_cell_length_c                   22.902(5)
_cell_angle_alpha                90
_cell_angle_beta                 90
_cell_angle_gamma                90
_cell_volume                     10140.4
loop_
_atom_site_label
_atom_site_type_symbol
_atom_site_fract_x
_atom_site_fract_y
_atom_site_fract_z
Co1 Co 0.0000 1.0000 0.5000
P1 P -0.00874(5) 1.18806(9) 0.26247(6)
P2 P -0.13133(4) 0.78090(8) 0.34351(5)
P3 P 0.13316(4) 0.79691(8) 0.33476(5)
P4 P -0.00210(4) 0.93374(8) 0.34007(5)
O1 O 0.24633(15) 0.8873(3) 0.3366(2)
O2 O -0.10382(12) 1.0245(2) 0.32978(15)
O3 O -0.24145(13) 0.8848(2) 0.34344(16)
O4 O -0.06001(12) 1.0327(2) 0.44436(14)
O5 O 0.00193(10) 0.7397(2) 0.39100(17)
O6 O 0.09734(13) 1.0369(2) 0.32308(15)
O7 O 0.05796(12) 1.0401(2) 0.43997(14)
O8 O -0.09850(12) 0.8759(2) 0.46590(14)
O9 O -0.00262(10) 1.0287(2) 0.34688(16)
O10 O -0.16251(13) 1.0064(2) 0.43152(17)
O11 O -0.10654(13) 1.1778(2) 0.39670(17)
O12 O 0.16057(13) 1.0260(2) 0.42250(17)
O13 O 0.00206(9) 0.8727(2) 0.47609(15)
O14 O -0.09601(13) 0.7451(2) 0.38802(16)
O15 O 0.09839(13) 1.1891(2) 0.39073(18)
O16 O 0.06337(13) 0.7332(2) 0.49196(16)
O17 O 0.10107(12) 0.8877(2) 0.45839(15)
O18 O -0.10616(15) 0.7802(3) 0.28157(18)
O19 O -0.00630(12) 0.9174(3) 0.27386(16)
O20 O 0.09760(13) 0.7574(2) 0.37778(16)
O21 O 0.10994(15) 0.7976(3) 0.27230(18)
O22 O -0.14261(12) 0.8731(2) 0.35539(15)
O23 O 0.14463(12) 0.8881(2) 0.35071(16)
O24 O -0.05162(13) 0.7247(2) 0.49765(16)
O25 O -0.00438(11) 1.1678(2) 0.40101(16)
O26 O 0.04458(11) 0.8992(2) 0.36594(14)
O27 O -0.01897(16) 1.2797(2) 0.2562(2)
O28 O -0.05200(13) 1.1491(2) 0.29323(16)
O29 O 0.17781(12) 0.7448(2) 0.33132(16)
O30 O -0.17671(13) 0.7293(2) 0.34113(16)
O31 O 0.03942(13) 1.1689(2) 0.29184(16)
O32 O -0.04529(12) 0.8953(2) 0.37216(14)
O33 O -0.00713(16) 1.1468(3) 0.2002(2)
Mo1 Mo 0.049380(14) 0.79852(2) 0.438154(17)
Mo2 Mo 0.109863(14) 0.98202(3) 0.396567(18)
Mo3 Mo 0.060092(15) 1.11389(3) 0.370137(18)
Mo4 Mo -0.067073(14) 1.10497(2) 0.374370(17)
Mo5 Mo -0.110942(13) 0.96858(3) 0.403702(17)
Mo6 Mo -0.044320(14) 0.79220(2) 0.442705(17)
C1 C -0.2226(3) 0.6977(5) 0.2183(3)
H1 H -0.2030 0.6606 0.2386
C2 C -0.2218(3) 0.6960(5) 0.1575(3)
H2 H -0.2021 0.6580 0.1382
C3 C -0.2500 0.7500 0.1261(3)
C4 C -0.2156(2) 0.7117(4) -0.0307(2)
H3 H -0.1911 0.6843 -0.0510
C5 C -0.2141(2) 0.7102(4) 0.0290(2)
H4 H -0.1891 0.6826 0.0482
C6 C -0.2500 0.7500 0.0608(3)
C7 C 0.2173(3) 0.7077(5) 0.2088(3)
H5 H 0.1938 0.6781 0.2292
C8 C 0.2165(3) 0.7057(6) 0.1481(3)
H6 H 0.1933 0.6741 0.1288
C9 C 0.2500 0.7500 0.1165(3)
C10 C 0.2124(2) 0.7239(6) -0.0403(3)
H7 H 0.1851 0.7065 -0.0609
C11 C 0.2109(2) 0.7208(6) 0.0200(3)
H8 H 0.1839 0.6993 0.0390
C12 C 0.2500 0.7500 0.0519(3)
N1 N -0.2500 0.7500 0.2484(3)
N2 N -0.2500 0.7500 -0.0618(3)
N3 N 0.2500 0.7500 0.2386(3)
N4 N 0.2500 0.7500 -0.0705(3)
Co2 Co -0.2500 0.7500 0.34270(4)
Co3 Co 0.2500 0.7500 0.33347(4)
P1D P 0.00874(5) 0.81194(9) 0.73753(6)
P2D P 0.13133(4) 1.21910(8) 0.65649(5)
P3D P -0.13316(4) 1.20309(8) 0.66524(5)
P4D P 0.00210(4) 1.06626(8) 0.65993(5)
O1A O 0.25367(15) 0.6127(3) 0.3366(2)
O2D O 0.10382(12) 0.9755(2) 0.67022(15)
O3A O -0.25855(13) 0.6152(2) 0.34344(16)
O4D O 0.06001(12) 0.9673(2) 0.55564(14)
O5D O -0.00193(10) 1.2603(2) 0.60900(17)
O6D O -0.09734(13) 0.9631(2) 0.67692(15)
O7D O -0.05796(12) 0.9599(2) 0.56003(14)
O8D O 0.09850(12) 1.1241(2) 0.53410(14)
O9D O 0.00262(10) 0.9713(2) 0.65312(16)
O10D O 0.16251(13) 0.9936(2) 0.56848(17)
O11D O 0.10654(13) 0.8222(2) 0.60330(17)
O12D O -0.16057(13) 0.9740(2) 0.57750(17)
O13D O -0.00206(9) 1.1273(2) 0.52391(15)
O14D O 0.09601(13) 1.2549(2) 0.61198(16)
O15D O -0.09839(13) 0.8109(2) 0.60927(18)
O16D O -0.06337(13) 1.2668(2) 0.50804(16)
O17D O -0.10107(12) 1.1123(2) 0.54161(15)
O18D O 0.10616(15) 1.2198(3) 0.71843(18)
O19D O 0.00630(12) 1.0826(3) 0.72614(16)
O20D O -0.09760(13) 1.2426(2) 0.62222(16)
O21D O -0.10994(15) 1.2024(3) 0.72770(18)
O22D O 0.14261(12) 1.1269(2) 0.64461(15)
O23D O -0.14463(12) 1.1119(2) 0.64929(16)
O24D O 0.05162(13) 1.2753(2) 0.50235(16)
O25D O 0.00438(11) 0.8322(2) 0.59899(16)
O26D O -0.04458(11) 1.1008(2) 0.63406(14)
O27D O 0.01897(16) 0.7203(2) 0.7438(2)
O28D O 0.05200(13) 0.8509(2) 0.70677(16)
O29D O -0.17781(12) 1.2552(2) 0.66868(16)
O29A O 0.32219(12) 0.7552(2) 0.33132(16)
O30D O 0.17671(13) 1.2707(2) 0.65887(16)
O30A O -0.32329(13) 0.7707(2) 0.34113(16)
O31D O -0.03942(13) 0.8311(2) 0.70816(16)
O32D O 0.04529(12) 1.1047(2) 0.62784(14)
O33D O 0.00713(16) 0.8532(3) 0.7998(2)
Mo1D Mo -0.049380(14) 1.20148(2) 0.561846(17)
Mo2D Mo -0.109863(14) 1.01798(3) 0.603433(18)
Mo3D Mo -0.060092(15) 0.88611(3) 0.629863(18)
Mo4D Mo 0.067073(14) 0.89503(2) 0.625630(17)
Mo5D Mo 0.110942(13) 1.03142(3) 0.596298(17)
Mo6D Mo 0.044320(14) 1.20780(2) 0.557295(17)
C1A C -0.2774(3) 0.8023(5) 0.2183(3)
H1A H -0.2970 0.8394 0.2386
C2A C -0.2782(3) 0.8040(5) 0.1575(3)
H2A H -0.2979 0.8420 0.1382
C4A C -0.2844(2) 0.7883(4) -0.0307(2)
H3A H -0.3089 0.8157 -0.0510
C5A C -0.2859(2) 0.7898(4) 0.0290(2)
H4A H -0.3109 0.8174 0.0482
C7A C 0.2827(3) 0.7923(5) 0.2088(3)
H5A H 0.3062 0.8219 0.2292
C8A C 0.2835(3) 0.7943(6) 0.1481(3)
H6A H 0.3067 0.8259 0.1288
C10A C 0.2876(2) 0.7761(6) -0.0403(3)
H7A H 0.3149 0.7935 -0.0609
C11A C 0.2891(2) 0.7792(6) 0.0200(3)
H8A H 0.3161 0.8007 0.0390
N2F N -0.2500 0.7500 0.4382(3)
N4F N 0.2500 0.7500 0.4295(3)
Co2F Co -0.2500 0.7500 -0.15730(4)
Co2E Co 0.2500 1.2500 0.65730(4)
Co3F Co 0.2500 0.7500 -0.16653(4)
Co3E Co -0.2500 1.2500 0.66653(4)
C13 C 0.3828(3) 0.9416(6) 0.3136(3)
H9 H 0.3846 0.8902 0.2949
C14 C 0.3617(3) 0.9459(5) 0.3678(3)
H10 H 0.3482 0.8985 0.3848
C15 C 0.3607(2) 1.0215(4) 0.3965(3)
C16 C 0.3822(4) 1.0896(5) 0.3699(3)
H11 H 0.3823 1.1410 0.3888
C17 C 0.4029(6) 1.0824(6) 0.3174(4)
H12 H 0.4188 1.1274 0.3004
C18 C 0.3365(2) 1.0299(4) 0.4544(3)
C19 C 0.3541(2) 1.0845(4) 0.4965(3)
H13 H 0.3811 1.1174 0.4890
C20 C 0.3312(2) 1.0890(5) 0.5488(3)
H14 H 0.3447 1.1230 0.5774
C21 C 0.2732(3) 0.9994(5) 0.5197(4)
H15 H 0.2435 0.9737 0.5263
C22 C 0.2955(3) 0.9848(5) 0.4681(3)
H16 H 0.2834 0.9451 0.4423
N5 N 0.2911(2) 1.0485(4) 0.5619(3)
N6 N 0.3999(3) 1.0051(5) 0.2884(3)
loop_
_geom_bond_atom_site_label_1
_geom_bond_atom_site_label_2
_geom_bond_site_symmetry_1
_geom_bond_site_symmetry_2
Co1 O4 1_555 1_555
P1 O27 1_555 1_555
P2 O14 1_555 1_555
P3 O20 1_555 1_555
P4 O9 1_555 1_555
O1 Co3 1_555 1_555
O2 Mo4 1_555 1_555
O3 Co2 1_555 1_555
O4 Mo4 1_555 1_555
O5 Mo1 1_555 1_555
O6 Mo2 1_555 1_555
O7 Co1 1_555 1_555
O8 Mo5 1_555 1_555
O9 Mo3 1_555 1_555
O10 Mo5 1_555 1_555
O11 Mo4 1_555 1_555
O12 Mo2 1_555 1_555
O13 Co1 1_555 1_555
O14 Mo6 1_555 1_555
O15 Mo3 1_555 1_555
O16 Mo1 1_555 1_555
O17 Mo1 1_555 1_555
O18 P2 1_555 1_555
O19 P4 1_555 1_555
O20 Mo1 1_555 1_555
O21 P3 1_555 1_555
O22 P2 1_555 1_555
O23 P3 1_555 1_555
O24 Mo6 1_555 1_555
O25 Mo3 1_555 1_555
O26 P4 1_555 1_555
O28 P1 1_555 1_555
O29 P3 1_555 1_555
O30 P2 1_555 1_555
O31 P1 1_555 1_555
O32 P4 1_555 1_555
O33 P1 1_555 1_555
Mo1 O13 1_555 1_555
Mo2 O7 1_555 1_555
Mo3 O6 1_555 1_555
Mo4 O9 1_555 1_555
Mo5 O2 1_555 1_555
Mo6 O5 1_555 1_555
C1 H1 1_555 1_555
C2 C1 1_555 1_555
H2 C2 1_555 1_555
C3 C2 1_555 1_555
C4 H3 1_555 1_555
C5 C4 1_555 1_555
H4 C5 1_555 1_555
C6 C3 1_555 1_555
C7 H5 1_555 1_555
C8 C7 1_555 1_555
H6 C8 1_555 1_555
C9 C8 1_555 1_555
C10 H7 1_555 1_555
C11 C10 1_555 1_555
H8 C11 1_555 1_555
C12 C9 1_555 1_555
C13 H9 1_555 1_555
C14 C13 1_555 1_555
H10 C14 1_555 1_555
C15 C14 1_555 1_555
C16 C15 1_555 1_555
H11 C16 1_555 1_555
C17 C16 1_555 1_555
H12 C17 1_555 1_555
C18 C15 1_555 1_555
C19 C18 1_555 1_555
H13 C19 1_555 1_555
C20 C19 1_555 1_555
H14 C20 1_555 1_555
C21 H15 1_555 1_555
C22 C18 1_555 1_555
H16 C22 1_555 1_555
N1 C1 1_555 1_555
N2 C4 1_555 1_555
N3 C7 1_555 1_555
N4 C10 1_555 1_555
N5 C20 1_555 1_555
N6 C13 1_555 1_555
Co2 O30 1_555 1_555
Co3 O29 1_555 1_555
P1D O27D 1_555 1_555
P2D O14D 1_555 1_555
P3D O20D 1_555 1_555
P4D O9D 1_555 1_555
O1A Co3 1_555 1_555
O2D Mo4D 1_555 1_555
O3A Co2 1_555 1_555
O4D Co1 1_555 1_555
O5D Mo1D 1_555 1_555
O6D Mo2D 1_555 1_555
O7D Co1 1_555 1_555
O8D Mo5D 1_555 1_555
O9D Mo3D 1_555 1_555
O10D Mo5D 1_555 1_555
O11D Mo4D 1_555 1_555
O12D Mo2D 1_555 1_555
O13D Co1 1_555 1_555
O14D Mo6D 1_555 1_555
O15D Mo3D 1_555 1_555
O16D Mo1D 1_555 1_555
O17D Mo1D 1_555 1_555
O18D P2D 1_555 1_555
O19D P4D 1_555 1_555
O20D Mo1D 1_555 1_555
O21D P3D 1_555 1_555
O22D P2D 1_555 1_555
O23D P3D 1_555 1_555
O24D Mo6D 1_555 1_555
O25D Mo3D 1_555 1_555
O26D P4D 1_555 1_555
O28D P1D 1_555 1_555
O29D P3D 1_555 1_555
O29A Co3 1_555 1_555
O30D P2D 1_555 1_555
O30A Co2 1_555 1_555
O31D P1D 1_555 1_555
O32D P4D 1_555 1_555
O33D P1D 1_555 1_555
Mo1D O13D 1_555 1_555
Mo2D O7D 1_555 1_555
Mo3D O6D 1_555 1_555
Mo4D O4D 1_555 1_555
Mo5D O2D 1_555 1_555
Mo6D O5D 1_555 1_555
C1A N1 1_555 1_555
H1A C1A 1_555 1_555
C2A C3 1_555 1_555
H2A C2A 1_555 1_555
C4A N2 1_555 1_555
H3A C4A 1_555 1_555
C5A C6 1_555 1_555
H4A C5A 1_555 1_555
C7A N3 1_555 1_555
H5A C7A 1_555 1_555
C8A C9 1_555 1_555
H6A C8A 1_555 1_555
C10A N4 1_555 1_555
H7A C10A 1_555 1_555
C11A C12 1_555 1_555
H8A C11A 1_555 1_555
N2F Co2 1_555 1_555
N4F Co3 1_555 1_555
Co2F N2 1_555 1_555
Co2E O30D 1_555 1_555
Co3F N4 1_555 1_555
Co3E O29D 1_555 1_555
O4 Mo5 1_555 1_555
O7 Mo3 1_555 1_555
O8 Mo6 1_555 1_555
O13 Mo6 1_555 1_555
O17 Mo2 1_555 1_555
O22 Mo5 1_555 1_555
O23 Mo2 1_555 1_555
O25 Mo4 1_555 1_555
O26 Mo1 1_555 1_555
O26 Mo2 1_555 1_555
O28 Mo4 1_555 1_555
O31 Mo3 1_555 1_555
O32 Mo5 1_555 1_555
O32 Mo6 1_555 1_555
Mo1 Mo6 1_555 1_555
Mo2 Mo3 1_555 1_555
Mo4 Mo5 1_555 1_555
C5 C6 1_555 1_555
C11 C12 1_555 1_555
C17 N6 1_555 1_555
C21 C22 1_555 1_555
C21 N5 1_555 1_555
N1 Co2 1_555 1_555
N3 Co3 1_555 1_555
O4D Mo5D 1_555 1_555
O7D Mo3D 1_555 1_555
O8D Mo6D 1_555 1_555
O9D Mo4D 1_555 1_555
O13D Mo6D 1_555 1_555
O17D Mo2D 1_555 1_555
O22D Mo5D 1_555 1_555
O23D Mo2D 1_555 1_555
O25D Mo4D 1_555 1_555
O26D Mo1D 1_555 1_555
O26D Mo2D 1_555 1_555
O28D Mo4D 1_555 1_555
O31D Mo3D 1_555 1_555
O32D Mo5D 1_555 1_555
O32D Mo6D 1_555 1_555
Mo1D Mo6D 1_555 1_555
Mo2D Mo3D 1_555 1_555
Mo4D Mo5D 1_555 1_555
C1A C2A 1_555 1_555
C4A C5A 1_555 1_555
C7A C8A 1_555 1_555
C10A C11A 1_555 1_555

#END
