
#######################################################################
#
#                 Cambridge Crystallographic Data Centre
#                                CCDC 
#
#######################################################################
#
# If this CIF has been generated from an entry in the Cambridge 
# Structural Database, then it will include bibliographic, chemical, 
# crystal, experimental, refinement or atomic coordinate data resulting 
# from the CCDC's data processing and validation procedures.
#
#######################################################################

data_DEWVEH
_symmetry_cell_setting           triclinic
_symmetry_space_group_name_H-M   'P -1'
_symmetry_Int_Tables_number      2
_space_group_name_Hall           '-P 1'
loop_
_symmetry_equiv_pos_site_id
_symmetry_equiv_pos_as_xyz
1 x,y,z
2 -x,-y,-z
_cell_length_a                   10.716(2)
_cell_length_b                   11.128(2)
_cell_length_c                   11.666(2)
_cell_angle_alpha                68.08(3)
_cell_angle_beta                 85.50(3)
_cell_angle_gamma                76.19(3)
_cell_volume                     1253.18
loop_
_atom_site_label
_atom_site_type_symbol
_atom_site_fract_x
_atom_site_fract_y
_atom_site_fract_z
Mo1 Mo 0.33357(4) 0.49479(4) 0.21937(4)
Mo2 Mo 0.34341(4) 0.76693(4) 0.25852(4)
Mo3 Mo 0.34684(4) 0.47605(4) 0.51356(4)
Mo4 Mo 0.57841(4) 0.24401(4) 0.47473(4)
O1 O 0.1962(4) 0.5734(4) 0.1325(4)
O2 O 0.4194(4) 0.3945(4) 0.1481(4)
O3 O 0.4380(3) 0.3845(3) 0.3849(3)
O4 O 0.4206(3) 0.6342(3) 0.1793(3)
O5 O 0.2077(4) 0.8468(4) 0.1703(4)
O6 O 0.4510(4) 0.8647(4) 0.1943(3)
O7 O 0.2913(3) 0.8133(3) 0.3987(3)
O8 O 0.2648(3) 0.5857(3) 0.3604(3)
O9 O 0.2486(3) 0.3703(3) 0.5811(3)
O10 O 0.4856(3) 0.6263(3) 0.4142(3)
O11 O 0.6621(4) 0.1929(4) 0.3649(4)
O12 O 0.4930(4) 0.1253(3) 0.5511(4)
O13 O 0.3158(3) 0.5832(3) 0.5955(3)
N1 N 0.2149(4) 0.3450(4) 0.3231(4)
C1 C 0.0934(5) 0.3839(5) 0.3553(6)
H3 H 0.0606 0.4736 0.3412
C2 C 0.0161(5) 0.2970(5) 0.4080(6)
H4 H -0.0684 0.3286 0.4265
C3 C 0.0619(5) 0.1625(5) 0.4341(5)
C4 C 0.1897(5) 0.1228(5) 0.4040(5)
H5 H 0.2262 0.0332 0.4209
C5 C 0.2618(5) 0.2160(5) 0.3494(5)
H6 H 0.3469 0.1875 0.3302
C6 C -0.0254(6) 0.0697(6) 0.4868(7)
H7 H -0.0598 0.0799 0.5629
H8 H -0.0973 0.0986 0.4297
Mo1A Mo -0.33357(4) -0.49479(4) 0.78063(4)
Mo1A_2 Mo 0.66643(4) 0.50521(4) 0.78063(4)
Mo2A Mo 0.65659(4) 0.23307(4) 0.74148(4)
Mo3A Mo 0.65316(4) 0.52395(4) 0.48644(4)
Mo4A Mo 0.42159(4) 0.75599(4) 0.52527(4)
O1A O 0.8038(4) 0.4266(4) 0.8675(4)
O2A O 0.5806(4) 0.6055(4) 0.8519(4)
O3A O 0.5620(3) 0.6155(3) 0.6151(3)
O4A O 0.5794(3) 0.3658(3) 0.8207(3)
O5A O 0.7923(4) 0.1532(4) 0.8297(4)
O6A O 0.5490(4) 0.1353(4) 0.8057(3)
O7A O 0.7087(3) 0.1867(3) 0.6013(3)
O8A O 0.7352(3) 0.4143(3) 0.6396(3)
O9A O 0.7514(3) 0.6297(3) 0.4189(3)
O10A O 0.5144(3) 0.3737(3) 0.5858(3)
O11A O 0.3379(4) 0.8071(4) 0.6351(4)
O12A O 0.5070(4) 0.8747(3) 0.4489(4)
O13A O 0.6842(3) 0.4168(3) 0.4045(3)
N1A N -0.2149(4) -0.3450(4) 0.6769(4)
N1A_2 N 0.7851(4) 0.6550(4) 0.6769(4)
C1A C -0.0934(5) -0.3839(5) 0.6447(6)
H3A H -0.0606 -0.4736 0.6588
C2A C -0.0161(5) -0.2970(5) 0.5920(6)
H4A H 0.0684 -0.3286 0.5735
C3A C -0.0619(5) -0.1625(5) 0.5659(5)
C4A C -0.1897(5) -0.1228(5) 0.5960(5)
H5A H -0.2262 -0.0332 0.5791
C5A C -0.2618(5) -0.2160(5) 0.6506(5)
H6A H -0.3469 -0.1875 0.6698
C6A C 0.0254(6) -0.0697(6) 0.5132(7)
H7A H 0.0598 -0.0799 0.4371
H8A H 0.0973 -0.0986 0.5703
N2 N 0.6586(5) 0.6555(6) 0.1052(5)
H1 H 0.5769 0.6273 0.1392
N3 N 1.3272(6) 1.0271(6) -0.2649(5)
H2 H 1.3926 1.0536 -0.3307
C7 C 0.6459(6) 0.7779(8) 0.0186(7)
H9 H 0.5656 0.8362 0.0026
C8 C 0.7496(7) 0.8171(7) -0.0460(6)
H10 H 0.7401 0.9024 -0.1054
C9 C 0.8699(6) 0.7301(7) -0.0234(6)
C10 C 0.8801(6) 0.6055(7) 0.0697(6)
H11 H 0.9596 0.5462 0.0897
C11 C 0.7738(7) 0.5708(7) 0.1309(7)
H12 H 0.7810 0.4868 0.1919
C12 C 0.9862(7) 0.7694(7) -0.0932(6)
H13 H 0.9656 0.8131 -0.1808
H14 H 1.0544 0.6908 -0.0819
C13 C 1.0301(6) 0.8618(6) -0.0474(5)
H15 H 1.0590 0.8142 0.0378
H16 H 0.9580 0.9344 -0.0493
C14 C 1.1381(6) 0.9183(6) -0.1237(5)
C15 C 1.1099(6) 1.0455(6) -0.2137(6)
H17 H 1.0256 1.0951 -0.2270
C16 C 1.2069(8) 1.0967(7) -0.2823(7)
H18 H 1.1883 1.1819 -0.3422
C17 C 1.3566(6) 0.9026(8) -0.1803(6)
H19 H 1.4412 0.8538 -0.1711
C18 C 1.2636(6) 0.8478(6) -0.1083(6)
H20 H 1.2850 0.7626 -0.0485
loop_
_geom_bond_atom_site_label_1
_geom_bond_atom_site_label_2
_geom_bond_site_symmetry_1
_geom_bond_site_symmetry_2
Mo1 O1 1_555 1_555
Mo2 O4 1_555 1_555
Mo3 O3 1_555 1_555
Mo4 O3 1_555 1_555
O2 Mo1 1_555 1_555
O3 Mo1 1_555 1_555
O4 Mo1 1_555 1_555
O5 Mo2 1_555 1_555
O6 Mo2 1_555 1_555
O7 Mo2 1_555 1_555
O8 Mo1 1_555 1_555
O9 Mo3 1_555 1_555
O10 Mo2 1_555 1_555
O11 Mo4 1_555 1_555
O12 Mo4 1_555 1_555
O13 Mo3 1_555 1_555
N1 Mo1 1_555 1_555
N2 H1 1_555 1_555
N3 H2 1_555 1_555
C1 N1 1_555 1_555
H3 C1 1_555 1_555
C2 C1 1_555 1_555
H4 C2 1_555 1_555
C3 C2 1_555 1_555
C4 C3 1_555 1_555
H5 C4 1_555 1_555
C5 N1 1_555 1_555
H6 C5 1_555 1_555
C6 C3 1_555 1_555
H7 C6 1_555 1_555
H8 C6 1_555 1_555
C7 N2 1_555 1_555
H9 C7 1_555 1_555
C8 C7 1_555 1_555
H10 C8 1_555 1_555
C9 C8 1_555 1_555
C10 C9 1_555 1_555
H11 C10 1_555 1_555
C11 N2 1_555 1_555
H12 C11 1_555 1_555
C12 C9 1_555 1_555
H13 C12 1_555 1_555
H14 C12 1_555 1_555
C13 C12 1_555 1_555
H15 C13 1_555 1_555
H16 C13 1_555 1_555
C14 C13 1_555 1_555
C15 C14 1_555 1_555
H17 C15 1_555 1_555
C16 N3 1_555 1_555
H18 C16 1_555 1_555
C17 N3 1_555 1_555
H19 C17 1_555 1_555
C18 C14 1_555 1_555
H20 C18 1_555 1_555
Mo1A N1A 1_555 1_555
Mo1A_2 O1A 1_555 1_555
Mo2A O4A 1_555 1_555
Mo3A O10 1_555 1_555
Mo4A O7 1_555 1_555
O2A Mo1A_2 1_555 1_555
O3A Mo1A_2 1_555 1_555
O4A Mo1A_2 1_555 1_555
O5A Mo2A 1_555 1_555
O6A Mo2A 1_555 1_555
O7A Mo4 1_555 1_555
O8A Mo1A_2 1_555 1_555
O9A Mo3A 1_555 1_555
O10A Mo3 1_555 1_555
O11A Mo4A 1_555 1_555
O12A Mo4A 1_555 1_555
O13A Mo4 1_555 1_555
N1A C1A 1_555 1_555
N1A_2 Mo1A_2 1_555 1_555
C1A H3A 1_555 1_555
C2A C1A 1_555 1_555
H4A C2A 1_555 1_555
C3A C2A 1_555 1_555
C4A C3A 1_555 1_555
H5A C4A 1_555 1_555
C5A N1A 1_555 1_555
H6A C5A 1_555 1_555
C6A C6 1_555 1_555
H7A C6A 1_555 1_555
H8A C6A 1_555 1_555
Mo2 O8 1_555 1_555
Mo3 O8 1_555 1_555
Mo3 O10 1_555 1_555
Mo4 O10A 1_555 1_555
O10 Mo4A 1_555 1_555
O13 Mo4A 1_555 1_555
C4 C5 1_555 1_555
C10 C11 1_555 1_555
C15 C16 1_555 1_555
C17 C18 1_555 1_555
Mo2A O7A 1_555 1_555
Mo2A O8A 1_555 1_555
Mo2A O10A 1_555 1_555
Mo3A O3A 1_555 1_555
Mo3A O8A 1_555 1_555
Mo3A O10A 1_555 1_555
Mo3A O13A 1_555 1_555
Mo4A O3A 1_555 1_555
C3A C6A 1_555 1_555
C4A C5A 1_555 1_555

#END
