
#######################################################################
#
#                 Cambridge Crystallographic Data Centre
#                                CCDC 
#
#######################################################################
#
# If this CIF has been generated from an entry in the Cambridge 
# Structural Database, then it will include bibliographic, chemical, 
# crystal, experimental, refinement or atomic coordinate data resulting 
# from the CCDC's data processing and validation procedures.
#
#######################################################################

data_DEWXUY
_symmetry_cell_setting           orthorhombic
_symmetry_space_group_name_H-M   'P 21 a m'
_symmetry_Int_Tables_number      26
_space_group_name_Hall           'P -2 2a'
loop_
_symmetry_equiv_pos_site_id
_symmetry_equiv_pos_as_xyz
1 x,y,z
2 1/2+x,-y,-z
3 1/2+x,-y,z
4 x,y,-z
_cell_length_a                   11.680(4)
_cell_length_b                   6.857(4)
_cell_length_c                   6.011(4)
_cell_angle_alpha                90
_cell_angle_beta                 90
_cell_angle_gamma                90
_cell_volume                     481.42
loop_
_atom_site_label
_atom_site_type_symbol
_atom_site_fract_x
_atom_site_fract_y
_atom_site_fract_z
N1 N 0.5752(13) 0.3659(28) 0.5000
Zn1 Zn 0.8446(4) 0.3746(2) 0.0000
Cl1 Cl 0.8632(5) 0.6956(5) 0.0000
Cl2 Cl 1.0000 0.1900(6) 0.0000
C1 C 0.8195(12) 0.3533(21) 0.5000
C2 C 0.6409(10) 0.4155(19) 0.3001(19)
C3 C 0.5515(19) 0.1563(42) 0.5000
C4 C 0.7246(12) 0.0900(16) 0.3028(18)
N2 N 0.6604(16) 0.0403(21) 0.5000
N3 N 0.7538(8) 0.3072(12) 0.2938(14)
H1 H 0.8431 0.5144 0.5000
H2 H 0.8986 0.2652 0.5000
H3 H 0.5915 0.3813 0.1548
H4 H 0.6590 0.5718 0.3022
H5 H 0.8026 0.0066 0.3010
H6 H 0.6733 0.0529 0.1591
C2C C 0.6409(10) 0.4155(19) 0.6999(19)
C4C C 0.7246(12) 0.0900(16) 0.6972(18)
N3C N 0.7538(8) 0.3072(12) -0.2938(14)
N3C_2 N 0.7538(8) 0.3072(12) 0.7062(14)
H3C H 0.5915 0.3813 0.8452
H4C H 0.6590 0.5718 0.6978
H5C H 0.8026 0.0066 0.6990
H6C H 0.6733 0.0529 0.8409
Zn1_2 Zn 0.8446(4) 0.3746(2) 1.0000
loop_
_geom_bond_atom_site_label_1
_geom_bond_atom_site_label_2
_geom_bond_site_symmetry_1
_geom_bond_site_symmetry_2
N1 C2 1_555 1_555
Zn1 Cl1 1_555 1_555
Cl2 Zn1 1_555 1_555
C1 N3 1_555 1_555
C2 N3 1_555 1_555
C3 N1 1_555 1_555
C4 N2 1_555 1_555
N2 C3 1_555 1_555
N3 Zn1 1_555 1_555
H1 C1 1_555 1_555
H2 C1 1_555 1_555
H3 C2 1_555 1_555
H4 C2 1_555 1_555
H5 C4 1_555 1_555
H6 C4 1_555 1_555
C2C N1 1_555 1_555
C4C N2 1_555 1_555
N3C Zn1 1_555 1_555
N3C_2 C1 1_555 1_555
H3C C2C 1_555 1_555
H4C C2C 1_555 1_555
H5C C4C 1_555 1_555
H6C C4C 1_555 1_555
Zn1_2 N3C_2 1_555 1_555
C4 N3 1_555 1_555
C2C N3C_2 1_555 1_555
C4C N3C_2 1_555 1_555

#END
