
#######################################################################
#
#                 Cambridge Crystallographic Data Centre
#                                CCDC 
#
#######################################################################
#
# If this CIF has been generated from an entry in the Cambridge 
# Structural Database, then it will include bibliographic, chemical, 
# crystal, experimental, refinement or atomic coordinate data resulting 
# from the CCDC's data processing and validation procedures.
#
#######################################################################

data_DEWYUB
_symmetry_cell_setting           monoclinic
_symmetry_space_group_name_H-M   'P 21/c'
_symmetry_Int_Tables_number      14
_space_group_name_Hall           '-P 2ybc'
loop_
_symmetry_equiv_pos_site_id
_symmetry_equiv_pos_as_xyz
1 x,y,z
2 -x,1/2+y,1/2-z
3 -x,-y,-z
4 x,1/2-y,1/2+z
_cell_length_a                   22.8704(14)
_cell_length_b                   27.7882(14)
_cell_length_c                   10.9960(5)
_cell_angle_alpha                90
_cell_angle_beta                 126.633(8)
_cell_angle_gamma                90
_cell_volume                     5607.89
loop_
_atom_site_label
_atom_site_type_symbol
_atom_site_fract_x
_atom_site_fract_y
_atom_site_fract_z
Cd1 Cd 0.756664(15) 0.372475(9) 0.58430(3)
Cd2 Cd 1.246591(15) -0.002313(9) 1.23197(3)
C1 C 0.7472(2) 0.33809(15) 1.0301(4)
H1 H 0.7390 0.3306 1.1031
O1 O 0.75714(19) 0.28966(10) 0.6270(3)
O2 O 0.77143(16) 0.41532(11) 1.2254(3)
N1 N 0.63059(19) 0.02038(13) 0.6017(4)
O3 O 0.73108(16) 0.35001(11) 0.3480(3)
H2 H 0.7382 0.3200 0.3483
H3 H 0.6869 0.3566 0.2770
O4 O 1.24852(17) -0.04612(10) 1.0524(3)
N2 N 1.12527(19) 0.01787(13) 1.0848(4)
C2 C 0.7594(2) 0.38474(14) 1.0098(4)
C3 C 0.9359(2) 0.36347(15) 0.8360(5)
N3 N 1.0314(2) 0.06448(13) 1.0208(4)
N4 N 0.87637(19) 0.35957(13) 0.6853(4)
N5 N 0.53076(19) 0.06366(12) 0.5180(4)
N6 N 0.9643(2) 0.31136(13) 0.7245(4)
N7 N 0.6313(2) 0.36342(13) 0.4446(4)
C4 C 0.7628(2) 0.42615(13) 1.1038(5)
C5 C 1.1004(3) 0.05072(16) 1.1307(5)
H4 H 1.1283 0.0633 1.2308
N8 N 1.2522(2) 0.05169(13) 1.0600(4)
C6 C 0.5545(2) 0.16374(17) 0.4734(5)
H5 H 0.5984 0.1471 0.5457
N9 N 0.53867(19) 0.31134(13) 0.3189(4)
C7 C 1.2544(2) 0.02907(15) 0.9557(5)
O5 O 0.7669(3) 0.23349(12) 0.7829(4)
C8 C 0.7696(2) 0.39462(14) 0.8987(4)
H6 H 0.7775 0.4270 0.8839
O6 O 1.2661(2) 0.07251(14) 1.3643(4)
H7 H 1.2335 0.0926 1.3029
H8 H 1.2635 0.0675 1.4371
C9 C 1.2569(2) 0.12748(15) 0.9563(5)
C10 C 1.2526(2) 0.10009(15) 1.0602(5)
H9 H 1.2499 0.1166 1.1324
C11 C 0.5964(2) 0.39937(16) 0.6046(5)
H10 H 0.6355 0.4217 0.6575
C12 C 1.0674(3) 0.3555(2) 1.1204(6)
H11 H 1.1121 0.3535 1.2191
C13 C 0.4860(2) 0.10211(15) 0.5136(5)
H12 H 0.5037 0.1100 0.6182
H13 H 0.4350 0.0909 0.4571
O7 O 1.2626(2) 0.20366(12) 0.8691(4)
C14 C 0.5998(2) 0.05206(14) 0.6368(4)
H14 H 0.6236 0.0654 0.7353
C15 C 0.5880(2) 0.36905(15) 0.4949(5)
C16 C 0.5151(2) 0.03759(15) 0.3942(5)
C17 C 0.4270(2) 0.21285(16) 0.2638(5)
H15 H 0.3832 0.2298 0.1927
C18 C 0.8953(2) 0.32777(15) 0.6259(5)
H16 H 0.8636 0.3173 0.5236
C19 C 1.2601(3) 0.05290(17) 0.8523(5)
H17 H 1.2627 0.0355 0.7812
C20 C 1.2550(2) 0.18252(15) 0.9596(5)
C21 C 0.5999(2) 0.32873(15) 0.3429(5)
H18 H 0.6187 0.3170 0.2912
C22 C 0.5184(3) -0.02266(17) 0.2014(5)
H19 H 0.5182 -0.0435 0.1329
C23 C 0.4550(2) 0.00433(17) 0.1497(5)
H20 H 0.4133 0.0013 0.0473
C24 C 0.9310(2) 0.21150(16) 0.7602(5)
H21 H 0.8869 0.2281 0.6881
C25 C 0.9464(2) 0.39038(17) 0.9548(5)
H22 H 0.9094 0.4112 0.9389
C26 C 1.0616(2) -0.02183(16) 0.8257(5)
H23 H 1.1009 -0.0419 0.8501
O8 O 1.24572(19) 0.20236(11) 1.0485(4)
C27 C 0.7470(2) 0.30199(15) 0.9426(5)
H24 H 0.7392 0.2694 0.9558
C28 C 0.5296(2) 0.33636(16) 0.4163(5)
C29 C 0.7584(2) 0.31393(14) 0.8360(5)
C30 C 0.9922(2) 0.33312(16) 0.8637(5)
C31 C 0.5566(2) 0.20487(17) 0.4036(5)
H25 H 0.6018 0.2163 0.4290
C32 C 0.9301(2) 0.17245(16) 0.8380(5)
H26 H 0.8855 0.1624 0.8186
O9 O 0.75775(17) 0.46854(11) 1.0601(3)
C33 C 0.4886(2) 0.14654(15) 0.4389(5)
C34 C 0.5457(3) 0.39580(17) 0.6339(5)
H27 H 0.5507 0.4156 0.7099
C35 C 1.0681(2) 0.00936(15) 0.9330(5)
C36 C 0.5802(2) -0.01942(16) 0.3486(5)
H28 H 0.6230 -0.0369 0.3815
C37 C 0.7605(3) 0.27570(15) 0.7392(5)
C38 C 0.9961(3) -0.02227(17) 0.6830(5)
H29 H 0.9902 -0.0434 0.6085
C39 C 0.4865(3) 0.36339(19) 0.5534(6)
H30 H 0.4523 0.3623 0.5758
C40 C 0.4250(2) 0.17175(15) 0.3341(5)
H31 H 0.3798 0.1609 0.3102
C41 C 0.4527(2) 0.03508(17) 0.2458(5)
H32 H 0.4105 0.0535 0.2120
C42 C 0.5780(2) 0.01039(15) 0.4477(5)
C43 C 0.9431(2) 0.03893(16) 0.7488(5)
H33 H 0.9038 0.0591 0.7235
C44 C 0.4771(3) 0.33345(18) 0.4435(6)
H34 H 0.4371 0.3119 0.3887
C45 C 0.4928(2) 0.27294(16) 0.2143(5)
H35 H 0.5107 0.2634 0.1552
H36 H 0.4424 0.2851 0.1423
C46 C 1.0087(2) 0.03911(15) 0.8911(5)
C47 C 0.9967(3) 0.26955(16) 0.7039(6)
H37 H 1.0475 0.2770 0.7431
H38 H 0.9688 0.2620 0.5946
C48 C 0.4922(2) 0.22925(15) 0.2962(5)
C49 C 1.0599(3) 0.20243(16) 0.8932(6)
H39 H 1.1046 0.2126 0.9135
C50 C 0.9960(3) 0.22673(15) 0.7868(5)
C51 C 0.9944(2) 0.14800(16) 0.9444(5)
C52 C 0.9379(3) 0.00748(18) 0.6446(6)
H40 H 0.8937 0.0061 0.5448
C53 C 1.2621(3) 0.10312(17) 0.8557(5)
H41 H 1.2671 0.1203 0.7876
C54 C 1.0124(3) 0.3858(2) 1.0964(6)
H42 H 1.0205 0.4035 1.1792
C55 C 0.9937(3) 0.10534(16) 1.0294(5)
H43 H 1.0180 0.1142 1.1368
H44 H 0.9427 0.0963 0.9849
C56 C 1.0589(3) 0.16290(17) 0.9709(6)
H45 H 1.1028 0.1462 1.0426
C57 C 1.0587(3) 0.32857(19) 1.0057(6)
H46 H 1.0961 0.3080 1.0225
N10 N 0.76865(18) 0.36005(12) 0.8124(4)
O10 O 1.2464(2) -0.04692(11) 0.8481(4)
C58 C 1.2497(2) -0.02487(15) 0.9526(5)
Cd1A Cd 1.243336(15) -0.127525(9) 0.91570(3)
Cd2A Cd 0.753409(15) 0.497687(9) 1.26803(3)
Cd2B Cd 0.753409(15) 0.002313(9) 0.76803(3)
O2A O 1.22857(16) -0.08468(11) 1.2746(3)
N1B N 1.36941(19) -0.02038(13) 1.3983(4)
O4A O 0.75148(17) 0.45388(10) 0.4476(3)
O9A O 1.24225(17) -0.03146(11) 1.4399(3)
O10A O 0.7536(2) 0.45308(11) 0.6519(4)
O11 O 0.6483(2) -0.14980(16) 0.4651(5)
H47 H 0.6659 -0.1597 0.4200
H48 H 0.6739 -0.1266 0.5236
O12 O 1.2419(3) 0.29839(13) 0.7922(5)
H49 H 1.2626 0.2720 0.8358
H50 H 1.2382 0.2960 0.7107
O13 O 1.1599(3) 0.3536(2) 0.8557(6)
O14 O 1.2682(2) 0.30281(14) 1.1282(4)
O15 O 0.7796(15) -0.0614(8) 0.473(2)
loop_
_geom_bond_atom_site_label_1
_geom_bond_atom_site_label_2
_geom_bond_site_symmetry_1
_geom_bond_site_symmetry_2
Cd1 O1 1_555 1_555
Cd2 O4 1_555 1_555
C1 H1 1_555 1_555
O1 C37 1_555 1_555
O2 C4 1_555 1_555
N1 C14 1_555 1_555
O3 Cd1 1_555 1_555
H2 O3 1_555 1_555
H3 O3 1_555 1_555
O4 C58 1_555 1_555
N2 Cd2 1_555 1_555
C2 C1 1_555 1_555
C3 N4 1_555 1_555
N3 C5 1_555 1_555
N4 Cd1 1_555 1_555
N5 C13 1_555 1_555
N6 C18 1_555 1_555
N7 Cd1 1_555 1_555
C4 C2 1_555 1_555
C5 N2 1_555 1_555
H4 C5 1_555 1_555
N8 Cd2 1_555 1_555
C6 H5 1_555 1_555
N9 C21 1_555 1_555
C7 N8 1_555 1_555
O5 C37 1_555 1_555
C8 C2 1_555 1_555
H6 C8 1_555 1_555
O6 Cd2 1_555 1_555
H7 O6 1_555 1_555
H8 O6 1_555 1_555
C9 C10 1_555 1_555
C10 N8 1_555 1_555
H9 C10 1_555 1_555
C11 H10 1_555 1_555
C12 H11 1_555 1_555
C13 H12 1_555 1_555
H13 C13 1_555 1_555
O7 C20 1_555 1_555
C14 N5 1_555 1_555
H14 C14 1_555 1_555
C15 N7 1_555 1_555
C16 N5 1_555 1_555
C17 H15 1_555 1_555
C18 N4 1_555 1_555
H16 C18 1_555 1_555
C19 C7 1_555 1_555
H17 C19 1_555 1_555
C20 C9 1_555 1_555
C21 N7 1_555 1_555
H18 C21 1_555 1_555
C22 H19 1_555 1_555
C23 C22 1_555 1_555
H20 C23 1_555 1_555
C24 H21 1_555 1_555
C25 C3 1_555 1_555
H22 C25 1_555 1_555
C26 H23 1_555 1_555
O8 C20 1_555 1_555
C27 C1 1_555 1_555
H24 C27 1_555 1_555
C28 N9 1_555 1_555
C29 C27 1_555 1_555
C30 C3 1_555 1_555
C31 C6 1_555 1_555
H25 C31 1_555 1_555
C32 C24 1_555 1_555
H26 C32 1_555 1_555
O9 C4 1_555 1_555
C33 C6 1_555 1_555
C34 C11 1_555 1_555
H27 C34 1_555 1_555
C35 N2 1_555 1_555
C36 C22 1_555 1_555
H28 C36 1_555 1_555
C37 C29 1_555 1_555
C38 C26 1_555 1_555
H29 C38 1_555 1_555
C39 C34 1_555 1_555
H30 C39 1_555 1_555
C40 C17 1_555 1_555
H31 C40 1_555 1_555
C41 C16 1_555 1_555
H32 C41 1_555 1_555
C42 N1 1_555 1_555
C43 H33 1_555 1_555
C44 C28 1_555 1_555
H34 C44 1_555 1_555
C45 N9 1_555 1_555
H35 C45 1_555 1_555
H36 C45 1_555 1_555
C46 N3 1_555 1_555
C47 N6 1_555 1_555
H37 C47 1_555 1_555
H38 C47 1_555 1_555
C48 C17 1_555 1_555
C49 H39 1_555 1_555
C50 C24 1_555 1_555
C51 C32 1_555 1_555
C52 C38 1_555 1_555
H40 C52 1_555 1_555
C53 C9 1_555 1_555
H41 C53 1_555 1_555
C54 C12 1_555 1_555
H42 C54 1_555 1_555
C55 N3 1_555 1_555
H43 C55 1_555 1_555
H44 C55 1_555 1_555
C56 C49 1_555 1_555
H45 C56 1_555 1_555
C57 C12 1_555 1_555
H46 C57 1_555 1_555
N10 Cd1 1_555 1_555
O10 C58 1_555 1_555
C58 C7 1_555 1_555
O11 H47 1_555 1_555
H48 O11 1_555 1_555
O12 H49 1_555 1_555
H50 O12 1_555 1_555
Cd1A O4 1_555 1_555
Cd2A O2 1_555 1_555
Cd2B N1 1_555 1_555
O2A Cd2 1_555 1_555
N1B Cd2 1_555 1_555
O4A Cd1 1_555 1_555
O9A Cd2 1_555 1_555
O10A Cd1 1_555 1_555
N6 C30 1_555 1_555
C8 N10 1_555 1_555
C11 C15 1_555 1_555
C13 C33 1_555 1_555
C15 C28 1_555 1_555
C16 C42 1_555 1_555
C19 C53 1_555 1_555
C23 C41 1_555 1_555
C25 C54 1_555 1_555
C26 C35 1_555 1_555
C29 N10 1_555 1_555
C30 C57 1_555 1_555
C31 C48 1_555 1_555
O9 Cd2A 1_555 1_555
C33 C40 1_555 1_555
C35 C46 1_555 1_555
C36 C42 1_555 1_555
C39 C44 1_555 1_555
C43 C46 1_555 1_555
C43 C52 1_555 1_555
C45 C48 1_555 1_555
C47 C50 1_555 1_555
C49 C50 1_555 1_555
C51 C55 1_555 1_555
C51 C56 1_555 1_555
O10 Cd1A 1_555 1_555

#END
