
#######################################################################
#
#                 Cambridge Crystallographic Data Centre
#                                CCDC 
#
#######################################################################
#
# If this CIF has been generated from an entry in the Cambridge 
# Structural Database, then it will include bibliographic, chemical, 
# crystal, experimental, refinement or atomic coordinate data resulting 
# from the CCDC's data processing and validation procedures.
#
#######################################################################

data_DEWZEL
_symmetry_cell_setting           monoclinic
_symmetry_space_group_name_H-M   'P 21/n'
_symmetry_Int_Tables_number      14
_space_group_name_Hall           '-P 2yn'
loop_
_symmetry_equiv_pos_site_id
_symmetry_equiv_pos_as_xyz
1 x,y,z
2 1/2-x,1/2+y,1/2-z
3 -x,-y,-z
4 1/2+x,1/2-y,1/2+z
_cell_length_a                   18.9921(4)
_cell_length_b                   9.8546(2)
_cell_length_c                   36.1694(9)
_cell_angle_alpha                90
_cell_angle_beta                 95.8864(8)
_cell_angle_gamma                90
_cell_volume                     6733.75
loop_
_atom_site_label
_atom_site_type_symbol
_atom_site_fract_x
_atom_site_fract_y
_atom_site_fract_z
Zn1 Zn 0.13415(3) 0.16771(7) 0.192518(18)
N1 N 0.2336(2) 0.2512(5) 0.19525(13)
N2 N 0.1305(2) 0.1723(5) 0.13458(12)
N3 N 0.1321(2) 0.2161(5) 0.24803(13)
N4 N 0.0248(2) 0.1579(5) 0.18647(12)
C1 C 0.2565(3) 0.2848(6) 0.26299(16)
C2 C 0.2733(3) 0.2989(6) 0.22611(16)
C3 C 0.3382(3) 0.3596(7) 0.21499(19)
H1 H 0.3734 0.4063 0.2307
C4 C 0.3386(3) 0.3368(7) 0.17842(18)
H2 H 0.3748 0.3625 0.1636
C5 C 0.2744(3) 0.2669(6) 0.16576(17)
C6 C 0.2558(3) 0.2223(6) 0.12966(16)
C7 C 0.1875(3) 0.1802(6) 0.11469(16)
C8 C 0.1679(3) 0.1411(7) 0.07679(17)
H3 H 0.1982 0.1374 0.0575
C9 C 0.0987(3) 0.1109(7) 0.07383(17)
H4 H 0.0705 0.0834 0.0519
C10 C 0.0751(3) 0.1276(6) 0.11012(15)
C11 C 0.0065(3) 0.1001(6) 0.11954(16)
C12 C -0.0164(3) 0.1197(6) 0.15478(16)
C13 C -0.0878(3) 0.0922(6) 0.16414(17)
H5 H -0.1270 0.0643 0.1474
C14 C -0.0880(3) 0.1135(7) 0.20069(17)
H6 H -0.1276 0.1042 0.2146
C15 C -0.0177(3) 0.1531(6) 0.21502(16)
C16 C 0.0049(3) 0.1737(6) 0.25309(16)
C17 C 0.0741(3) 0.2024(6) 0.26828(15)
C18 C 0.0955(3) 0.2286(6) 0.30666(16)
H7 H 0.0660 0.2253 0.3263
C19 C 0.1649(3) 0.2586(7) 0.30992(17)
H8 H 0.1933 0.2810 0.3322
C20 C 0.1882(3) 0.2506(6) 0.27322(15)
P1 P 0.32974(8) 0.31725(17) 0.29781(4)
O1 O 0.3447(2) 0.4643(4) 0.30323(11)
C21 C 0.4053(3) 0.2281(7) 0.2832(2)
C22 C 0.4014(4) 0.1057(7) 0.2640(2)
H9 H 0.3567 0.0635 0.2580
C23 C 0.4613(5) 0.0454(10) 0.2537(4)
H10 H 0.4587 -0.0395 0.2412
C24 C 0.5253(5) 0.1093(13) 0.2617(6)
H11 H 0.5668 0.0684 0.2542
C25 C 0.5306(5) 0.2280(12) 0.2799(6)
H12 H 0.5756 0.2699 0.2850
C26 C 0.4706(4) 0.2907(9) 0.2913(3)
H13 H 0.4744 0.3745 0.3043
C27 C 0.3200(3) 0.2390(7) 0.34257(19)
C28 C 0.3225(4) 0.1005(8) 0.3479(2)
H14 H 0.3251 0.0418 0.3273
C29 C 0.3213(4) 0.0466(8) 0.3831(3)
H15 H 0.3241 -0.0488 0.3867
C30 C 0.3159(4) 0.1322(9) 0.4128(2)
H16 H 0.3140 0.0956 0.4370
C31 C 0.3133(4) 0.2698(9) 0.4075(2)
H17 H 0.3094 0.3284 0.4281
C32 C 0.3164(3) 0.3235(8) 0.37257(18)
H18 H 0.3161 0.4191 0.3692
C33 C 0.3148(3) 0.2120(6) 0.10460(16)
C34 C 0.3629(3) 0.1080(7) 0.11088(17)
H19 H 0.3600 0.0489 0.1314
C35 C 0.4165(3) 0.0882(7) 0.08719(18)
C36 C 0.4194(3) 0.1790(7) 0.05817(17)
H20 H 0.4556 0.1677 0.0422
C37 C 0.3724(3) 0.2851(6) 0.05127(17)
C38 C 0.3193(3) 0.3003(7) 0.07538(17)
H21 H 0.2861 0.3723 0.0715
C39 C 0.4682(4) -0.0320(7) 0.0949(2)
C40 C 0.4269(5) -0.1636(8) 0.0888(3)
H22 H 0.4591 -0.2408 0.0937
H23 H 0.4052 -0.1676 0.0631
H24 H 0.3899 -0.1674 0.1057
C41 C 0.5025(4) -0.0302(8) 0.1353(2)
H25 H 0.5293 0.0542 0.1398
H26 H 0.5345 -0.1079 0.1394
H27 H 0.4656 -0.0356 0.1522
C42 C 0.5295(5) -0.0244(10) 0.0702(2)
H28 H 0.5547 0.0618 0.0746
H29 H 0.5106 -0.0303 0.0440
H30 H 0.5623 -0.0998 0.0763
C43 C 0.3770(3) 0.3870(7) 0.01998(17)
C44 C 0.3904(4) 0.5279(8) 0.0362(2)
H31 H 0.3932 0.5933 0.0160
H32 H 0.4351 0.5281 0.0523
H33 H 0.3516 0.5531 0.0507
C45 C 0.4359(4) 0.3531(9) -0.0046(2)
H34 H 0.4365 0.4214 -0.0242
H35 H 0.4271 0.2634 -0.0158
H36 H 0.4817 0.3529 0.0106
C46 C 0.3065(4) 0.3904(9) -0.0055(2)
H37 H 0.3100 0.4563 -0.0255
H38 H 0.2680 0.4169 0.0092
H39 H 0.2967 0.3002 -0.0162
C47 C -0.0454(3) 0.0368(6) 0.09078(16)
C48 C -0.0325(3) -0.0943(7) 0.0801(2)
H40 H 0.0097 -0.1383 0.0901
C49 C -0.0799(4) -0.1637(8) 0.0550(2)
C50 C -0.1413(4) -0.0941(8) 0.0411(2)
H41 H -0.1747 -0.1399 0.0241
C51 C -0.1553(3) 0.0361(7) 0.05069(17)
C52 C -0.1054(3) 0.1024(7) 0.07547(16)
H42 H -0.1130 0.1944 0.0819
C53 C -0.0633(6) -0.3067(11) 0.0425(4)
C54 C -0.0277(8) -0.3908(10) 0.0725(4)
H43 H -0.0027 -0.3319 0.0914
H44 H 0.0062 -0.4515 0.0623
H45 H -0.0631 -0.4447 0.0839
C55 C 0.0115(7) -0.2897(16) 0.0195(5)
H46 H 0.0002 -0.2359 -0.0031
H47 H 0.0282 -0.3797 0.0129
H48 H 0.0486 -0.2439 0.0358
C56 C -0.1086(5) -0.3629(9) 0.0120(3)
H49 H -0.1280 -0.2895 -0.0043
H50 H -0.1475 -0.4127 0.0216
H51 H -0.0813 -0.4249 -0.0022
C57 C -0.2229(3) 0.1134(8) 0.03583(19)
C58 C -0.2700(5) 0.0306(11) 0.0078(3)
H52 H -0.2434 0.0054 -0.0130
H53 H -0.3113 0.0847 -0.0015
H54 H -0.2856 -0.0517 0.0198
C59 C -0.2635(4) 0.1555(12) 0.0668(3)
H55 H -0.2330 0.2095 0.0847
H56 H -0.2800 0.0748 0.0792
H57 H -0.3043 0.2102 0.0570
C60 C -0.2020(5) 0.2410(11) 0.0157(3)
H58 H -0.1752 0.2154 -0.0050
H59 H -0.1726 0.2989 0.0331
H60 H -0.2447 0.2906 0.0061
C61 C -0.0508(3) 0.1638(6) 0.27975(15)
C62 C -0.1062(3) 0.2555(6) 0.27768(17)
H61 H -0.1076 0.3265 0.2598
C63 C -0.1598(3) 0.2467(6) 0.30098(17)
C64 C -0.1550(3) 0.1435(6) 0.32686(16)
H62 H -0.1912 0.1363 0.3431
C65 C -0.0998(3) 0.0486(6) 0.33061(16)
C66 C -0.0481(3) 0.0614(6) 0.30584(16)
H63 H -0.0102 -0.0019 0.3070
C67 C -0.2221(3) 0.3471(8) 0.2982(2)
C68 C -0.2581(7) 0.3484(16) 0.2593(3)
H64 H -0.2731 0.2562 0.2522
H65 H -0.2251 0.3819 0.2423
H66 H -0.2995 0.4080 0.2582
C69 C -0.2801(5) 0.3039(12) 0.3205(5)
H67 H -0.2971 0.2138 0.3122
H68 H -0.3192 0.3691 0.3169
H69 H -0.2621 0.3003 0.3468
C70 C -0.1984(5) 0.4798(10) 0.3106(4)
H70 H -0.1750 0.4736 0.3359
H71 H -0.2392 0.5409 0.3102
H72 H -0.1650 0.5151 0.2940
C71 C -0.0978(3) -0.0639(7) 0.35929(18)
C72 C -0.1479(5) -0.1737(9) 0.3457(3)
H73 H -0.1465 -0.2465 0.3642
H74 H -0.1342 -0.2100 0.3222
H75 H -0.1960 -0.1368 0.3416
C73 C -0.1170(6) -0.0105(10) 0.3964(2)
H76 H -0.1153 -0.0851 0.4144
H77 H -0.1649 0.0277 0.3932
H78 H -0.0833 0.0601 0.4055
C74 C -0.0242(4) -0.1252(12) 0.3676(3)
H79 H -0.0256 -0.1973 0.3861
H80 H 0.0091 -0.0546 0.3772
H81 H -0.0087 -0.1632 0.3447
Zn1A Zn 0.36585(3) 0.66771(7) 0.307482(18)
O1A O 0.1553(2) -0.0357(4) 0.19677(11)
O2 O -0.138(2) -0.390(2) 0.0753(9)
H82 H -0.124(15) -0.481(9) 0.072(9)
H83 H -0.12(2) -0.36(3) 0.100(4)
loop_
_geom_bond_atom_site_label_1
_geom_bond_atom_site_label_2
_geom_bond_site_symmetry_1
_geom_bond_site_symmetry_2
Zn1 N1 1_555 1_555
N1 C2 1_555 1_555
N2 Zn1 1_555 1_555
N3 Zn1 1_555 1_555
N4 Zn1 1_555 1_555
C1 C2 1_555 1_555
C2 C3 1_555 1_555
C3 H1 1_555 1_555
C4 C3 1_555 1_555
H2 C4 1_555 1_555
C5 N1 1_555 1_555
C6 C5 1_555 1_555
C7 N2 1_555 1_555
C8 C7 1_555 1_555
H3 C8 1_555 1_555
C9 C8 1_555 1_555
H4 C9 1_555 1_555
C10 N2 1_555 1_555
C11 C10 1_555 1_555
C12 N4 1_555 1_555
C13 C12 1_555 1_555
H5 C13 1_555 1_555
C14 C13 1_555 1_555
H6 C14 1_555 1_555
C15 N4 1_555 1_555
C16 C15 1_555 1_555
C17 N3 1_555 1_555
C18 C17 1_555 1_555
H7 C18 1_555 1_555
C19 C18 1_555 1_555
H8 C19 1_555 1_555
C20 N3 1_555 1_555
P1 C1 1_555 1_555
O1 P1 1_555 1_555
C21 P1 1_555 1_555
C22 C21 1_555 1_555
H9 C22 1_555 1_555
C23 C22 1_555 1_555
H10 C23 1_555 1_555
C24 C23 1_555 1_555
H11 C24 1_555 1_555
C25 C24 1_555 1_555
H12 C25 1_555 1_555
C26 C21 1_555 1_555
H13 C26 1_555 1_555
C27 P1 1_555 1_555
C28 C27 1_555 1_555
H14 C28 1_555 1_555
C29 C28 1_555 1_555
H15 C29 1_555 1_555
C30 C29 1_555 1_555
H16 C30 1_555 1_555
C31 C30 1_555 1_555
H17 C31 1_555 1_555
C32 C27 1_555 1_555
H18 C32 1_555 1_555
C33 C6 1_555 1_555
C34 C33 1_555 1_555
H19 C34 1_555 1_555
C35 C34 1_555 1_555
C36 C35 1_555 1_555
H20 C36 1_555 1_555
C37 C36 1_555 1_555
C38 C33 1_555 1_555
H21 C38 1_555 1_555
C39 C35 1_555 1_555
C40 C39 1_555 1_555
H22 C40 1_555 1_555
H23 C40 1_555 1_555
H24 C40 1_555 1_555
C41 C39 1_555 1_555
H25 C41 1_555 1_555
H26 C41 1_555 1_555
H27 C41 1_555 1_555
C42 C39 1_555 1_555
H28 C42 1_555 1_555
H29 C42 1_555 1_555
H30 C42 1_555 1_555
C43 C37 1_555 1_555
C44 C43 1_555 1_555
H31 C44 1_555 1_555
H32 C44 1_555 1_555
H33 C44 1_555 1_555
C45 C43 1_555 1_555
H34 C45 1_555 1_555
H35 C45 1_555 1_555
H36 C45 1_555 1_555
C46 C43 1_555 1_555
H37 C46 1_555 1_555
H38 C46 1_555 1_555
H39 C46 1_555 1_555
C47 C11 1_555 1_555
C48 C47 1_555 1_555
H40 C48 1_555 1_555
C49 C48 1_555 1_555
C50 C49 1_555 1_555
H41 C50 1_555 1_555
C51 C50 1_555 1_555
C52 C47 1_555 1_555
H42 C52 1_555 1_555
C53 C49 1_555 1_555
C54 C53 1_555 1_555
H43 C54 1_555 1_555
H44 C54 1_555 1_555
H45 C54 1_555 1_555
C55 C53 1_555 1_555
H46 C55 1_555 1_555
H47 C55 1_555 1_555
H48 C55 1_555 1_555
C56 C53 1_555 1_555
H49 C56 1_555 1_555
H50 C56 1_555 1_555
H51 C56 1_555 1_555
C57 C51 1_555 1_555
C58 C57 1_555 1_555
H52 C58 1_555 1_555
H53 C58 1_555 1_555
H54 C58 1_555 1_555
C59 C57 1_555 1_555
H55 C59 1_555 1_555
H56 C59 1_555 1_555
H57 C59 1_555 1_555
C60 C57 1_555 1_555
H58 C60 1_555 1_555
H59 C60 1_555 1_555
H60 C60 1_555 1_555
C61 C16 1_555 1_555
C62 C61 1_555 1_555
H61 C62 1_555 1_555
C63 C62 1_555 1_555
C64 C63 1_555 1_555
H62 C64 1_555 1_555
C65 C64 1_555 1_555
C66 C61 1_555 1_555
H63 C66 1_555 1_555
C67 C63 1_555 1_555
C68 C67 1_555 1_555
H64 C68 1_555 1_555
H65 C68 1_555 1_555
H66 C68 1_555 1_555
C69 C67 1_555 1_555
H67 C69 1_555 1_555
H68 C69 1_555 1_555
H69 C69 1_555 1_555
C70 C67 1_555 1_555
H70 C70 1_555 1_555
H71 C70 1_555 1_555
H72 C70 1_555 1_555
C71 C65 1_555 1_555
C72 C71 1_555 1_555
H73 C72 1_555 1_555
H74 C72 1_555 1_555
H75 C72 1_555 1_555
C73 C71 1_555 1_555
H76 C73 1_555 1_555
H77 C73 1_555 1_555
H78 C73 1_555 1_555
C74 C71 1_555 1_555
H79 C74 1_555 1_555
H80 C74 1_555 1_555
H81 C74 1_555 1_555
O2 H82 1_555 1_555
H83 O2 1_555 1_555
Zn1A O1 1_555 1_555
O1A Zn1 1_555 1_555
C1 C20 1_555 1_555
C4 C5 1_555 1_555
C6 C7 1_555 1_555
C9 C10 1_555 1_555
C11 C12 1_555 1_555
C14 C15 1_555 1_555
C16 C17 1_555 1_555
C19 C20 1_555 1_555
C25 C26 1_555 1_555
C31 C32 1_555 1_555
C37 C38 1_555 1_555
C51 C52 1_555 1_555
C65 C66 1_555 1_555

#END
