
#######################################################################
#
#                 Cambridge Crystallographic Data Centre
#                                CCDC 
#
#######################################################################
#
# If this CIF has been generated from an entry in the Cambridge 
# Structural Database, then it will include bibliographic, chemical, 
# crystal, experimental, refinement or atomic coordinate data resulting 
# from the CCDC's data processing and validation procedures.
#
#######################################################################

data_DEWZAI
_symmetry_cell_setting           monoclinic
_symmetry_space_group_name_H-M   'P 2/c'
_symmetry_Int_Tables_number      13
_space_group_name_Hall           '-P 2yc'
loop_
_symmetry_equiv_pos_site_id
_symmetry_equiv_pos_as_xyz
1 x,y,z
2 -x,y,1/2-z
3 -x,-y,-z
4 x,-y,1/2+z
_cell_length_a                   10.105(2)
_cell_length_b                   12.365(3)
_cell_length_c                   18.800(6)
_cell_angle_alpha                90
_cell_angle_beta                 108.19(3)
_cell_angle_gamma                90
_cell_volume                     2231.64
loop_
_atom_site_label
_atom_site_type_symbol
_atom_site_fract_x
_atom_site_fract_y
_atom_site_fract_z
Cd1 Cd 0.5000 0.32833(3) 0.2500
O1 O 0.2668(3) 0.4044(2) 0.19339(16)
O2 O 0.1355(4) 0.5513(3) 0.1803(2)
N1 N 0.5359(3) -0.3361(2) 0.63198(16)
N2 N 0.6725(3) -0.3415(2) 0.55935(17)
N3 N 0.6576(3) 0.1761(2) 0.26483(17)
N4 N 0.8279(3) 0.0632(2) 0.32228(17)
N5 N 0.5000 0.5198(3) 0.2500
C1 C 0.6636(4) -0.3318(3) 0.6290(2)
H1 H 0.7409 -0.3231 0.6710
C2 C 0.5380(4) -0.3544(3) 0.5120(2)
C3 C 0.4852(5) -0.3722(3) 0.4355(2)
H2 H 0.5426 -0.3758 0.4055
C4 C 0.3425(5) -0.3846(3) 0.4066(2)
H3 H 0.3029 -0.3954 0.3555
C5 C 0.2574(4) -0.3804(3) 0.4511(2)
H4 H 0.1623 -0.3893 0.4293
C6 C 0.3096(4) -0.3642(3) 0.5274(2)
H5 H 0.2516 -0.3620 0.5571
C7 C 0.4536(4) -0.3508(3) 0.55846(19)
C8 C 0.8009(4) -0.3474(3) 0.5396(3)
H6 H 0.8776 -0.3547 0.5855
H7 H 0.7989 -0.4118 0.5102
C9 C 0.7619(4) 0.1573(3) 0.3246(2)
H8 H 0.7886 0.2044 0.3651
C10 C 0.6531(4) 0.0876(3) 0.2183(2)
C11 C 0.5660(4) 0.0641(3) 0.1464(2)
H9 H 0.4937 0.1103 0.1215
C12 C 0.5908(5) -0.0294(4) 0.1138(2)
H10 H 0.5338 -0.0469 0.0659
C13 C 0.6994(5) -0.0997(3) 0.1503(3)
H11 H 0.7130 -0.1622 0.1260
C14 C 0.7861(4) -0.0784(3) 0.2211(2)
H12 H 0.8585 -0.1248 0.2456
C15 C 0.7600(4) 0.0160(3) 0.2542(2)
C16 C 0.9443(4) 0.0170(3) 0.3820(2)
H13 H 0.9846 0.0727 0.4187
H14 H 1.0156 -0.0068 0.3609
C17 C 0.9007(4) -0.0776(3) 0.4208(2)
C18 C 0.7961(4) -0.0681(3) 0.4524(3)
H15 H 0.7481 -0.0030 0.4484
C19 C 0.7605(4) -0.1544(3) 0.4904(2)
H16 H 0.6893 -0.1461 0.5115
C20 C 0.8286(4) -0.2509(3) 0.4971(2)
C21 C 0.9323(5) -0.2602(3) 0.4646(3)
H17 H 0.9795 -0.3255 0.4680
C22 C 0.9681(5) -0.1750(3) 0.4271(3)
H18 H 1.0390 -0.1837 0.4057
C23 C 0.2501(5) 0.5039(4) 0.1968(2)
C24 C 0.3784(5) 0.5733(3) 0.2234(2)
C25 C 0.3756(6) 0.6856(3) 0.2231(3)
H19 H 0.2917 0.7227 0.2052
C26 C 0.5000 0.7407(5) 0.2500
H20 H 0.5000 0.8160 0.2500
O1A O 0.7332(3) 0.4044(2) 0.30661(16)
O2A O 0.8645(4) 0.5513(3) 0.3197(2)
C23A C 0.7499(5) 0.5039(4) 0.3032(2)
C24A C 0.6216(5) 0.5733(3) 0.2766(2)
C25A C 0.6244(6) 0.6856(3) 0.2769(3)
H19A H 0.7083 0.7227 0.2948
N1A N 0.4641(3) -0.3361(2) -0.13198(16)
N2A N 0.3275(3) -0.3415(2) -0.05935(17)
N3A N 0.3424(3) 0.1761(2) 0.23517(17)
N4A N 0.1721(3) 0.0632(2) 0.17772(17)
C1A C 0.3364(4) -0.3318(3) -0.1290(2)
H1A H 0.2591 -0.3231 -0.1710
C2A C 0.4620(4) -0.3544(3) -0.0120(2)
C3A C 0.5148(5) -0.3722(3) 0.0645(2)
H2A H 0.4574 -0.3758 0.0945
C4A C 0.6575(5) -0.3846(3) 0.0934(2)
H3A H 0.6971 -0.3954 0.1445
C5A C 0.7426(4) -0.3804(3) 0.0489(2)
H4A H 0.8377 -0.3893 0.0707
C6A C 0.6904(4) -0.3642(3) -0.0274(2)
H5A H 0.7484 -0.3620 -0.0571
C7A C 0.5464(4) -0.3508(3) -0.05846(19)
C8A C 0.1991(4) -0.3474(3) -0.0396(3)
H6A H 0.1224 -0.3547 -0.0855
H7A H 0.2011 -0.4118 -0.0102
C9A C 0.2381(4) 0.1573(3) 0.1754(2)
H8A H 0.2114 0.2044 0.1349
C10A C 0.3469(4) 0.0876(3) 0.2817(2)
C11A C 0.4340(4) 0.0641(3) 0.3536(2)
H9A H 0.5063 0.1103 0.3785
C12A C 0.4092(5) -0.0294(4) 0.3862(2)
H10A H 0.4662 -0.0469 0.4341
C13A C 0.3006(5) -0.0997(3) 0.3497(3)
H11A H 0.2870 -0.1622 0.3740
C14A C 0.2139(4) -0.0784(3) 0.2789(2)
H12A H 0.1415 -0.1248 0.2544
C15A C 0.2400(4) 0.0160(3) 0.2458(2)
C16A C 0.0557(4) 0.0170(3) 0.1180(2)
H13A H 0.0154 0.0727 0.0813
H14A H -0.0156 -0.0068 0.1391
C17A C 0.0993(4) -0.0776(3) 0.0792(2)
C18A C 0.2039(4) -0.0681(3) 0.0476(3)
H15A H 0.2519 -0.0030 0.0516
C19A C 0.2395(4) -0.1544(3) 0.0096(2)
H16A H 0.3107 -0.1461 -0.0115
C20A C 0.1714(4) -0.2509(3) 0.0029(2)
C21A C 0.0677(5) -0.2602(3) 0.0354(3)
H17A H 0.0205 -0.3255 0.0320
C22A C 0.0319(5) -0.1750(3) 0.0729(3)
H18A H -0.0390 -0.1837 0.0943
Cd1B Cd 0.5000 -0.32833(3) -0.2500
Cd1B_2 Cd 0.5000 -0.32833(3) 0.7500
N1B N 0.4641(3) 0.3361(2) 0.36802(16)
N1C N 0.5359(3) 0.3361(2) 0.13198(16)
O3 O 0.0000 0.6989(4) 0.2500
O4 O 1.0000 0.3753(8) 0.2500
loop_
_geom_bond_atom_site_label_1
_geom_bond_atom_site_label_2
_geom_bond_site_symmetry_1
_geom_bond_site_symmetry_2
Cd1 O1 1_555 1_555
O1 C23 1_555 1_555
O2 C23 1_555 1_555
N1 C1 1_555 1_555
N2 C1 1_555 1_555
N3 Cd1 1_555 1_555
N4 C9 1_555 1_555
N5 Cd1 1_555 1_555
C1 H1 1_555 1_555
C2 N2 1_555 1_555
C3 C2 1_555 1_555
H2 C3 1_555 1_555
C4 C3 1_555 1_555
H3 C4 1_555 1_555
C5 C4 1_555 1_555
H4 C5 1_555 1_555
C6 C5 1_555 1_555
H5 C6 1_555 1_555
C7 N1 1_555 1_555
C8 N2 1_555 1_555
H6 C8 1_555 1_555
H7 C8 1_555 1_555
C9 N3 1_555 1_555
H8 C9 1_555 1_555
C10 N3 1_555 1_555
C11 C10 1_555 1_555
H9 C11 1_555 1_555
C12 C11 1_555 1_555
H10 C12 1_555 1_555
C13 C12 1_555 1_555
H11 C13 1_555 1_555
C14 C13 1_555 1_555
H12 C14 1_555 1_555
C15 N4 1_555 1_555
C16 N4 1_555 1_555
H13 C16 1_555 1_555
H14 C16 1_555 1_555
C17 C16 1_555 1_555
C18 C17 1_555 1_555
H15 C18 1_555 1_555
C19 C18 1_555 1_555
H16 C19 1_555 1_555
C20 C8 1_555 1_555
C21 C20 1_555 1_555
H17 C21 1_555 1_555
C22 C17 1_555 1_555
H18 C22 1_555 1_555
C23 C24 1_555 1_555
C24 N5 1_555 1_555
C25 C24 1_555 1_555
H19 C25 1_555 1_555
C26 C25 1_555 1_555
H20 C26 1_555 1_555
O1A Cd1 1_555 1_555
O2A C23A 1_555 1_555
C23A O1A 1_555 1_555
C24A N5 1_555 1_555
C25A C26 1_555 1_555
H19A C25A 1_555 1_555
N1A C1A 1_555 1_555
N2A C1A 1_555 1_555
N3A Cd1 1_555 1_555
N4A C9A 1_555 1_555
C1A H1A 1_555 1_555
C2A N2A 1_555 1_555
C3A C2A 1_555 1_555
H2A C3A 1_555 1_555
C4A C3A 1_555 1_555
H3A C4A 1_555 1_555
C5A C4A 1_555 1_555
H4A C5A 1_555 1_555
C6A C5A 1_555 1_555
H5A C6A 1_555 1_555
C7A N1A 1_555 1_555
C8A N2A 1_555 1_555
H6A C8A 1_555 1_555
H7A C8A 1_555 1_555
C9A N3A 1_555 1_555
H8A C9A 1_555 1_555
C10A N3A 1_555 1_555
C11A C10A 1_555 1_555
H9A C11A 1_555 1_555
C12A C11A 1_555 1_555
H10A C12A 1_555 1_555
C13A C12A 1_555 1_555
H11A C13A 1_555 1_555
C14A C13A 1_555 1_555
H12A C14A 1_555 1_555
C15A N4A 1_555 1_555
C16A N4A 1_555 1_555
H13A C16A 1_555 1_555
H14A C16A 1_555 1_555
C17A C16A 1_555 1_555
C18A C17A 1_555 1_555
H15A C18A 1_555 1_555
C19A C18A 1_555 1_555
H16A C19A 1_555 1_555
C20A C8A 1_555 1_555
C21A C20A 1_555 1_555
H17A C21A 1_555 1_555
C22A C17A 1_555 1_555
H18A C22A 1_555 1_555
Cd1B N1A 1_555 1_555
Cd1B_2 N1 1_555 1_555
N1B Cd1 1_555 1_555
N1C Cd1 1_555 1_555
C2 C7 1_555 1_555
C6 C7 1_555 1_555
C10 C15 1_555 1_555
C14 C15 1_555 1_555
C19 C20 1_555 1_555
C21 C22 1_555 1_555
C23A C24A 1_555 1_555
C24A C25A 1_555 1_555
C2A C7A 1_555 1_555
C6A C7A 1_555 1_555
C10A C15A 1_555 1_555
C14A C15A 1_555 1_555
C19A C20A 1_555 1_555
C21A C22A 1_555 1_555

#END
