
#######################################################################
#
#                 Cambridge Crystallographic Data Centre
#                                CCDC 
#
#######################################################################
#
# If this CIF has been generated from an entry in the Cambridge 
# Structural Database, then it will include bibliographic, chemical, 
# crystal, experimental, refinement or atomic coordinate data resulting 
# from the CCDC's data processing and validation procedures.
#
#######################################################################

data_DEXDOB
_symmetry_cell_setting           triclinic
_symmetry_space_group_name_H-M   'P -1'
_symmetry_Int_Tables_number      2
_space_group_name_Hall           '-P 1'
loop_
_symmetry_equiv_pos_site_id
_symmetry_equiv_pos_as_xyz
1 x,y,z
2 -x,-y,-z
_cell_length_a                   7.648(5)
_cell_length_b                   10.613(7)
_cell_length_c                   14.375(9)
_cell_angle_alpha                75.779(9)
_cell_angle_beta                 84.594(10)
_cell_angle_gamma                75.893(10)
_cell_volume                     1096.2
loop_
_atom_site_label
_atom_site_type_symbol
_atom_site_fract_x
_atom_site_fract_y
_atom_site_fract_z
Tb1 Tb 0.19563(3) 1.08569(2) 0.337547(16)
O1 O 0.4210(6) 0.9475(5) 0.2518(3)
O2 O 0.4325(8) 1.1528(5) 0.1862(3)
O3 O 0.5532(10) 1.2822(5) 0.0416(4)
H1 H 0.5312 1.2388 0.0952
O4 O 0.6864(6) 1.2490(4) -0.0919(4)
O5 O 0.0580(5) 0.8654(4) 0.5676(3)
O6 O 0.2804(5) 0.8927(3) 0.4588(3)
O7 O 0.5303(5) 0.8741(3) 0.6069(3)
O8 O 0.7653(5) 0.7080(4) 0.6363(3)
O9 O 1.0243(6) 0.2352(4) 0.2170(3)
O10 O -0.0415(6) 0.0461(4) 0.7065(3)
C1 C 0.6855(7) 1.0533(5) 0.0283(4)
C2 C 0.8046(8) 0.9849(6) -0.0305(4)
H2 H 0.8479 1.0335 -0.0871
C3 C 0.8623(8) 0.8476(6) -0.0091(4)
H3 H 0.9433 0.8045 -0.0501
C4 C 0.7962(7) 0.7757(5) 0.0750(4)
C5 C 0.6761(7) 0.8406(5) 0.1347(4)
H4 H 0.6320 0.7908 0.1905
C6 C 0.4825(8) 1.0288(7) 0.1891(4)
C7 C 0.6379(9) 1.2024(6) -0.0107(5)
C8 C 1.0326(8) 0.5730(5) 0.1021(4)
H5 H 1.1150 0.6250 0.0762
C9 C 1.0952(8) 0.4401(6) 0.1381(4)
H6 H 1.2186 0.4031 0.1364
C10 C 0.9743(7) 0.3576(5) 0.1783(4)
C11 C 0.7874(8) 0.4217(5) 0.1712(4)
H7 H 0.7014 0.3713 0.1921
C12 C 0.7333(8) 0.5549(6) 0.1345(4)
H8 H 0.6107 0.5943 0.1311
C13 C 0.3147(7) 0.6896(5) 0.5766(4)
C14 C 0.4936(7) 0.6561(5) 0.6073(4)
C15 C 0.5757(7) 0.5209(5) 0.6384(4)
H9 H 0.6939 0.4973 0.6582
C16 C 0.4881(7) 0.4219(5) 0.6406(4)
H10 H 0.5480 0.3327 0.6587
C17 C 0.3096(7) 0.4561(5) 0.6158(4)
C18 C 0.2245(6) 0.5888(5) 0.5827(3)
H11 H 0.1055 0.6107 0.5642
C19 C 0.2109(7) 0.8284(5) 0.5322(3)
C20 C 0.6005(7) 0.7533(5) 0.6162(4)
C21 C 0.2899(7) 0.2329(5) 0.6074(4)
H12 H 0.4042 0.2211 0.5778
C22 C 0.2060(7) 0.1312(5) 0.6281(4)
H13 H 0.2594 0.0527 0.6087
C23 C 0.0346(7) 0.1424(5) 0.6797(4)
C24 C -0.0411(7) 0.2690(5) 0.7014(4)
H14 H -0.1524 0.2828 0.7341
C25 C 0.0465(7) 0.3694(5) 0.6752(4)
H15 H -0.0069 0.4516 0.6891
C26 C 0.6188(7) 0.9790(5) 0.1135(4)
N1 N 0.8552(6) 0.6323(4) 0.1023(3)
N2 N 0.2116(5) 0.3526(4) 0.6287(3)
Tb1_2 Tb 1.19563(3) 0.08569(2) 0.337547(16)
Tb1A Tb -0.19563(3) -0.08569(2) 0.662453(16)
Tb1A_2 Tb -0.19563(3) 0.91431(2) 0.662453(16)
Tb1A_3 Tb 0.80437(3) 0.91431(2) 0.662453(16)
O5A O -0.0580(5) 1.1346(4) 0.4324(3)
O7A O 0.4697(5) 1.1259(3) 0.3931(3)
O8A O 0.2347(5) 1.2920(4) 0.3637(3)
O9_2 O 0.0243(6) 1.2352(4) 0.2170(3)
O10A O 0.0415(6) 0.9539(4) 0.2935(3)
loop_
_geom_bond_atom_site_label_1
_geom_bond_atom_site_label_2
_geom_bond_site_symmetry_1
_geom_bond_site_symmetry_2
Tb1 O1 1_555 1_555
O1 C6 1_555 1_555
O2 Tb1 1_555 1_555
O3 H1 1_555 1_555
O4 C7 1_555 1_555
O5 C19 1_555 1_555
O6 Tb1 1_555 1_555
O7 C20 1_555 1_555
O8 C20 1_555 1_555
O9 C10 1_555 1_555
O10 C23 1_555 1_555
C1 C2 1_555 1_555
C2 H2 1_555 1_555
C3 C2 1_555 1_555
H3 C3 1_555 1_555
C4 C3 1_555 1_555
C5 C4 1_555 1_555
H4 C5 1_555 1_555
C6 O2 1_555 1_555
C7 O3 1_555 1_555
C8 H5 1_555 1_555
C9 C8 1_555 1_555
H6 C9 1_555 1_555
C10 C9 1_555 1_555
C11 C10 1_555 1_555
H7 C11 1_555 1_555
C12 C11 1_555 1_555
H8 C12 1_555 1_555
C13 C14 1_555 1_555
C14 C15 1_555 1_555
C15 H9 1_555 1_555
C16 C15 1_555 1_555
H10 C16 1_555 1_555
C17 C16 1_555 1_555
C18 C13 1_555 1_555
H11 C18 1_555 1_555
C19 O6 1_555 1_555
C20 C14 1_555 1_555
C21 H12 1_555 1_555
C22 C21 1_555 1_555
H13 C22 1_555 1_555
C23 C22 1_555 1_555
C24 C23 1_555 1_555
H14 C24 1_555 1_555
C25 C24 1_555 1_555
H15 C25 1_555 1_555
C26 C1 1_555 1_555
N1 C4 1_555 1_555
N2 C17 1_555 1_555
Tb1_2 O9 1_555 1_555
Tb1A O10 1_555 1_555
Tb1A_2 O5 1_555 1_555
Tb1A_3 O7 1_555 1_555
O5A Tb1 1_555 1_555
O7A Tb1 1_555 1_555
O8A Tb1 1_555 1_555
O9_2 Tb1 1_555 1_555
O10A Tb1 1_555 1_555
O8 Tb1A_3 1_555 1_555
C1 C7 1_555 1_555
C5 C26 1_555 1_555
C6 C26 1_555 1_555
C8 N1 1_555 1_555
C12 N1 1_555 1_555
C13 C19 1_555 1_555
C17 C18 1_555 1_555
C21 N2 1_555 1_555
C25 N2 1_555 1_555

#END
