
#######################################################################
#
#                 Cambridge Crystallographic Data Centre
#                                CCDC 
#
#######################################################################
#
# If this CIF has been generated from an entry in the Cambridge 
# Structural Database, then it will include bibliographic, chemical, 
# crystal, experimental, refinement or atomic coordinate data resulting 
# from the CCDC's data processing and validation procedures.
#
#######################################################################

data_DEXDIV
_symmetry_cell_setting           orthorhombic
_symmetry_space_group_name_H-M   'P 21 21 21'
_symmetry_Int_Tables_number      19
_space_group_name_Hall           'P 2ac 2ab'
loop_
_symmetry_equiv_pos_site_id
_symmetry_equiv_pos_as_xyz
1 x,y,z
2 1/2-x,-y,1/2+z
3 -x,1/2+y,1/2-z
4 1/2+x,1/2-y,-z
_cell_length_a                   8.7950(18)
_cell_length_b                   17.516(4)
_cell_length_c                   20.637(4)
_cell_angle_alpha                90
_cell_angle_beta                 90
_cell_angle_gamma                90
_cell_volume                     3179.2
loop_
_atom_site_label
_atom_site_type_symbol
_atom_site_fract_x
_atom_site_fract_y
_atom_site_fract_z
Cd1 Cd 0.36562(10) 0.38027(4) 0.24512(4)
Cd2 Cd 0.00366(9) 0.69380(5) 0.25208(4)
Ru1 Ru 0.59379(8) 0.66242(4) 0.56032(4)
Ru2 Ru 0.41097(8) 0.57169(4) 0.56001(4)
Ru3 Ru 0.07134(8) 0.32778(4) 0.43094(4)
Ru4 Ru -0.10697(9) 0.42049(4) 0.42843(4)
K1 K -0.0019(3) 0.62506(13) 0.44661(14)
K2 K 0.4772(3) 0.36987(13) 0.43953(14)
C1 C 0.3857(12) 0.6789(5) 0.6674(5)
C2 C 0.6748(11) 0.5287(6) 0.6381(5)
C3 C 0.6394(12) 0.5472(5) 0.4617(5)
C4 C 0.3345(12) 0.7010(5) 0.4796(5)
C5 C 0.1338(12) 0.4440(6) 0.3334(5)
C6 C 0.1347(13) 0.4521(6) 0.5209(5)
C7 C -0.1787(12) 0.2997(6) 0.5212(5)
C8 C -0.1504(11) 0.3046(6) 0.3288(5)
O1 O 0.4987(8) 0.7124(4) 0.6396(3)
O2 O 0.3160(8) 0.6211(4) 0.6400(4)
O3 O 0.3373(8) 0.7032(4) 0.7219(3)
O4 O 0.7229(7) 0.5968(4) 0.6184(3)
O5 O 0.5405(8) 0.5058(4) 0.6190(4)
O6 O 0.7564(9) 0.4881(4) 0.6727(4)
O7 O 0.6935(8) 0.6120(4) 0.4828(4)
O8 O 0.5126(8) 0.5207(4) 0.4830(3)
O9 O 0.7147(7) 0.5122(4) 0.4179(3)
O10 O 0.4642(8) 0.7290(4) 0.5007(3)
O11 O 0.2821(8) 0.6384(4) 0.4995(3)
O12 O 0.2620(8) 0.7389(4) 0.4371(3)
O13 O 0.0131(8) 0.4771(4) 0.3587(3)
O14 O 0.1919(8) 0.3840(4) 0.3613(3)
O15 O 0.1924(8) 0.4695(4) 0.2824(4)
O16 O 0.0077(8) 0.4788(4) 0.4979(3)
O17 O 0.1879(8) 0.3850(4) 0.4999(3)
O18 O 0.2096(7) 0.4892(4) 0.5626(3)
O19 O -0.2303(8) 0.3639(4) 0.4959(3)
O20 O -0.0484(8) 0.2721(4) 0.4993(3)
O21 O -0.2494(8) 0.2659(4) 0.5650(3)
O22 O -0.2192(8) 0.3638(4) 0.3560(4)
O23 O -0.0373(8) 0.2735(4) 0.3582(3)
O24 O -0.1964(8) 0.2783(4) 0.2752(3)
O25 O 0.4338(10) 0.2739(5) 0.3105(5)
H1 H 0.5154 0.2525 0.2979
H2 H 0.3626 0.2413 0.3134
O26 O 0.5274(9) 0.4402(5) 0.3163(4)
H3 H 0.5078 0.4877 0.3181
H4 H 0.6193 0.4345 0.3045
O27 O 0.4418(8) 0.4831(4) 0.1787(4)
H5 H 0.4090 0.4759 0.1405
H6 H 0.5383 0.4856 0.1782
O28 O 0.5741(8) 0.3221(4) 0.1930(4)
H7 H 0.5593 0.3221 0.1523
H8 H 0.6542 0.3472 0.2016
O29 O -0.1921(9) 0.6608(4) 0.1812(4)
H9 H -0.1732 0.6792 0.1439
H10 H -0.1984 0.6125 0.1786
O30 O 0.1163(9) 0.5877(4) 0.2035(4)
H11 H 0.1235 0.5954 0.1629
H12 H 0.2044 0.5810 0.2194
O31 O -0.1457(12) 0.6228(5) 0.3240(4)
H13 H -0.1541 0.5771 0.3106
H14 H -0.2341 0.6422 0.3267
O32 O 0.1874(9) 0.6523(4) 0.3297(4)
H15 H 0.2540 0.6865 0.3366
H16 H 0.2312 0.6115 0.3174
Cd1A Cd 0.13438(10) 0.61973(4) 0.74512(4)
Cd2B Cd -0.00366(9) 0.19380(5) 0.24792(4)
Cd2C Cd 0.50366(9) 0.80620(5) 0.74792(4)
Ru1C Ru 0.09379(8) 0.83758(4) 0.43968(4)
Ru3C Ru -0.42866(8) 0.17222(4) 0.56906(4)
Ru4_2 Ru 0.89303(9) 0.42049(4) 0.42843(4)
K1_2 K 0.9981(3) 0.62506(13) 0.44661(14)
K1C K 0.4981(3) 0.87494(13) 0.55339(14)
K2_2 K -0.5228(3) 0.36987(13) 0.43953(14)
K2C K -0.0228(3) 0.13013(13) 0.56047(14)
O1C O -0.0013(8) 0.7876(4) 0.3604(3)
O3A O 0.1627(8) 0.2968(4) 0.2219(3)
O3C O -0.1627(8) 0.7968(4) 0.2781(3)
O7_2 O -0.3065(8) 0.6120(4) 0.4828(4)
O9_2 O -0.2853(7) 0.5122(4) 0.4179(3)
O10C O -0.0358(8) 0.7710(4) 0.4993(3)
O12C O 0.7620(8) 0.7611(4) 0.5629(3)
O19_2 O 0.7697(8) 0.3639(4) 0.4959(3)
O20C O 0.4516(8) 0.2279(4) 0.5007(3)
O21C O 0.2506(8) 0.2341(4) 0.4350(3)
O22_2 O 0.7808(8) 0.3638(4) 0.3560(4)
O24B O 0.1964(8) 0.7783(4) 0.2248(3)
O33 O 0.6040(12) 0.7108(6) 0.3686(4)
O34 O 0.8638(13) 0.8253(6) 0.8677(5)
O35 O 0.0289(13) 0.4036(6) 0.7831(6)
loop_
_geom_bond_atom_site_label_1
_geom_bond_atom_site_label_2
_geom_bond_site_symmetry_1
_geom_bond_site_symmetry_2
Cd1 O15 1_555 1_555
Cd2 O29 1_555 1_555
Ru1 Ru2 1_555 1_555
Ru2 O2 1_555 1_555
Ru3 Ru4 1_555 1_555
Ru4 O13 1_555 1_555
K1 O11 1_555 1_555
K2 O8 1_555 1_555
C1 O1 1_555 1_555
C2 O4 1_555 1_555
C3 O7 1_555 1_555
C4 O10 1_555 1_555
C5 O13 1_555 1_555
C6 O16 1_555 1_555
C7 O19 1_555 1_555
C8 O22 1_555 1_555
O1 Ru1 1_555 1_555
O2 C1 1_555 1_555
O3 C1 1_555 1_555
O4 Ru1 1_555 1_555
O5 Ru2 1_555 1_555
O6 C2 1_555 1_555
O7 Ru1 1_555 1_555
O8 Ru2 1_555 1_555
O9 K2 1_555 1_555
O10 Ru1 1_555 1_555
O11 Ru2 1_555 1_555
O12 K1 1_555 1_555
O13 K1 1_555 1_555
O14 Ru3 1_555 1_555
O15 C5 1_555 1_555
O16 Ru4 1_555 1_555
O17 Ru3 1_555 1_555
O18 Ru2 1_555 1_555
O19 Ru4 1_555 1_555
O20 Ru3 1_555 1_555
O21 C7 1_555 1_555
O22 Ru4 1_555 1_555
O23 Ru3 1_555 1_555
O24 C8 1_555 1_555
O25 Cd1 1_555 1_555
H1 O25 1_555 1_555
H2 O25 1_555 1_555
O26 Cd1 1_555 1_555
H3 O26 1_555 1_555
H4 O26 1_555 1_555
O27 Cd1 1_555 1_555
H5 O27 1_555 1_555
H6 O27 1_555 1_555
O28 Cd1 1_555 1_555
H7 O28 1_555 1_555
H8 O28 1_555 1_555
O29 H9 1_555 1_555
H10 O29 1_555 1_555
O30 Cd2 1_555 1_555
H11 O30 1_555 1_555
H12 O30 1_555 1_555
O31 Cd2 1_555 1_555
H13 O31 1_555 1_555
H14 O31 1_555 1_555
O32 Cd2 1_555 1_555
H15 O32 1_555 1_555
H16 O32 1_555 1_555
Cd1A O3 1_555 1_555
Cd2B O24 1_555 1_555
Cd2C O3 1_555 1_555
Ru1C O12 1_555 1_555
Ru3C O21 1_555 1_555
Ru4_2 O9 1_555 1_555
K1_2 O7 1_555 1_555
K1C O1 1_555 1_555
K2_2 O19 1_555 1_555
K2C O20 1_555 1_555
O1C K1 1_555 1_555
O3A Cd1 1_555 1_555
O3C Cd2 1_555 1_555
O7_2 K1 1_555 1_555
O9_2 Ru4 1_555 1_555
O10C K1 1_555 1_555
O12C Ru1 1_555 1_555
O19_2 K2 1_555 1_555
O20C K2 1_555 1_555
O21C Ru3 1_555 1_555
O22_2 K2 1_555 1_555
O24B Cd2 1_555 1_555
K1 O16 1_555 1_555
K1 O31 1_555 1_555
K1 O32 1_555 1_555
K1 O9_2 1_555 1_555
K2 O14 1_555 1_555
K2 O17 1_555 1_555
K2 O25 1_555 1_555
K2 O26 1_555 1_555
K2 O21C 1_555 1_555
C2 O5 1_555 1_555
C3 O8 1_555 1_555
C3 O9 1_555 1_555
C4 O11 1_555 1_555
C4 O12 1_555 1_555
C5 O14 1_555 1_555
C6 O17 1_555 1_555
C6 O18 1_555 1_555
C7 O20 1_555 1_555
C8 O23 1_555 1_555
O9 K1_2 1_555 1_555
O10 K1C 1_555 1_555
O21 K2C 1_555 1_555
O22 K2_2 1_555 1_555
Cd2B O3A 1_555 1_555
Ru1C O1C 1_555 1_555
Ru1C O10C 1_555 1_555
Ru4_2 O19_2 1_555 1_555
Ru4_2 O22_2 1_555 1_555
K1C O12C 1_555 1_555
K2_2 O9_2 1_555 1_555

#END
