
#######################################################################
#
#                 Cambridge Crystallographic Data Centre
#                                CCDC 
#
#######################################################################
#
# If this CIF has been generated from an entry in the Cambridge 
# Structural Database, then it will include bibliographic, chemical, 
# crystal, experimental, refinement or atomic coordinate data resulting 
# from the CCDC's data processing and validation procedures.
#
#######################################################################

data_DEXHIZ
_symmetry_cell_setting           triclinic
_symmetry_space_group_name_H-M   'P -1'
_symmetry_Int_Tables_number      2
_space_group_name_Hall           '-P 1'
loop_
_symmetry_equiv_pos_site_id
_symmetry_equiv_pos_as_xyz
1 x,y,z
2 -x,-y,-z
_cell_length_a                   15.378(2)
_cell_length_b                   18.510(3)
_cell_length_c                   29.066(4)
_cell_angle_alpha                96.448(5)
_cell_angle_beta                 96.450(6)
_cell_angle_gamma                98.677(5)
_cell_volume                     8056.42
loop_
_atom_site_label
_atom_site_type_symbol
_atom_site_fract_x
_atom_site_fract_y
_atom_site_fract_z
Cl2 Cl -0.54771(16) -0.57819(16) 0.65191(9)
Cl3 Cl 0.0026(6) 0.3674(4) 0.9817(2)
Cl4 Cl -0.2988(4) -0.0073(6) 0.9162(2)
Cl5 Cl 0.6760(6) 0.3250(7) 0.8336(4)
Cl6 Cl 0.6936(5) 0.0541(5) 0.7427(6)
O1 O 0.1626(5) 0.1969(3) 0.7597(2)
O2 O 0.2467(4) 0.3385(3) 0.74228(18)
O3 O 0.1113(4) 0.4166(3) 0.7710(2)
O4 O 0.0168(4) 0.2696(3) 0.7703(2)
O5 O 0.2401(4) -0.0942(3) 0.80691(18)
O6 O 0.2829(5) -0.1284(4) 0.95984(19)
O7 O 0.4513(4) -0.1225(3) 0.9207(2)
Eu1 Eu 0.16367(3) 0.315774(16) 0.806391(12)
Eu2 Eu 0.30488(3) -0.134920(19) 0.876847(13)
C1 C 0.0263(6) -0.0552(5) 0.6797(3)
C2 C -0.0346(6) -0.1750(5) 0.6452(3)
H1 H -0.0586 -0.1773 0.6119
C3 C -0.0968(5) -0.1440(4) 0.6769(3)
H2 H -0.1585 -0.1494 0.6612
C4 C -0.0556(6) -0.2517(4) 0.7006(4)
C5 C -0.1007(5) -0.0119(4) 0.7103(3)
H3 H -0.1648 -0.0262 0.7009
H4 H -0.0814 0.0341 0.6978
C6 C -0.1373(6) -0.1825(4) 0.7538(3)
H5 H -0.1411 -0.2276 0.7688
H6 H -0.1977 -0.1768 0.7420
C7 C -0.0481(5) 0.0666(4) 0.7874(3)
C8 C -0.1294(5) -0.0503(4) 0.7908(3)
H7 H -0.1948 -0.0562 0.7841
C9 C -0.0927(5) -0.0105(4) 0.8402(3)
H8 H -0.1388 -0.0101 0.8614
C10 C -0.0366(6) -0.1187(4) 0.8258(3)
C11 C -0.0274(5) 0.1248(4) 0.8688(3)
H9 H -0.0335 0.1700 0.8549
H10 H -0.0690 0.1206 0.8919
C12 C 0.0202(6) -0.0453(4) 0.9009(3)
H11 H 0.0417 -0.0912 0.9065
H12 H -0.0230 -0.0374 0.9226
C13 C 0.1277(5) 0.1873(4) 0.8885(2)
C14 C 0.0869(5) 0.0890(4) 0.9292(2)
H13 H 0.0491 0.0912 0.9546
C15 C 0.1859(5) 0.1257(4) 0.9467(2)
H14 H 0.1967 0.1418 0.9808
C16 C 0.1787(5) 0.0039(4) 0.9133(2)
C17 C 0.2805(5) 0.2396(3) 0.9245(3)
H15 H 0.2665 0.2874 0.9172
H16 H 0.3091 0.2464 0.9569
C18 C 0.3252(5) 0.0698(4) 0.9448(2)
H17 H 0.3373 0.0206 0.9499
H18 H 0.3447 0.1028 0.9742
C19 C 0.3469(5) 0.2392(3) 0.8517(3)
C20 C 0.4096(5) 0.1733(3) 0.9068(2)
H19 H 0.4476 0.1958 0.9362
C21 C 0.4626(5) 0.1716(4) 0.8646(3)
H20 H 0.5255 0.1945 0.8737
C22 C 0.4041(5) 0.0515(4) 0.8749(3)
C23 C 0.4514(6) 0.2409(4) 0.7936(3)
H21 H 0.5151 0.2585 0.8022
H22 H 0.4236 0.2829 0.7856
C24 C 0.5094(5) 0.0667(4) 0.8163(3)
H23 H 0.5694 0.0954 0.8242
H24 H 0.5132 0.0157 0.8212
C25 C 0.3848(6) 0.1867(4) 0.7134(3)
C26 C 0.5004(5) 0.1353(4) 0.7467(3)
H25 H 0.5624 0.1609 0.7554
C27 C 0.4806(5) 0.1036(4) 0.6942(3)
H26 H 0.5310 0.1200 0.6773
C28 C 0.4751(5) 0.0054(4) 0.7362(3)
C29 C 0.3767(7) 0.1420(5) 0.6316(3)
H27 H 0.4293 0.1585 0.6170
H28 H 0.3374 0.1789 0.6294
C30 C 0.4759(6) -0.0246(5) 0.6518(3)
H29 H 0.5274 -0.0034 0.6378
H30 H 0.4876 -0.0713 0.6619
C31 C 0.2442(7) 0.0595(6) 0.5848(3)
C32 C 0.3794(6) 0.0170(5) 0.5875(3)
H31 H 0.4330 0.0407 0.5756
C33 C 0.3082(6) -0.0319(5) 0.5458(3)
H32 H 0.3248 -0.0246 0.5146
C34 C 0.3690(6) -0.1075(5) 0.5968(3)
C35 C 0.1550(7) -0.0175(5) 0.5182(3)
H33 H 0.1759 -0.0080 0.4885
H34 H 0.1148 0.0172 0.5256
C36 C 0.2862(7) -0.1696(5) 0.5185(3)
H35 H 0.3067 -0.1557 0.4895
H36 H 0.3158 -0.2102 0.5275
C37 C 0.0194(8) -0.1049(5) 0.5198(3)
C38 C 0.1285(6) -0.1549(6) 0.4841(3)
H37 H 0.1506 -0.1402 0.4552
C39 C 0.0429(7) -0.2094(5) 0.4733(3)
H38 H 0.0205 -0.2176 0.4395
C40 C 0.1526(9) -0.2668(5) 0.5074(3)
C41 C -0.1123(7) -0.2023(6) 0.4882(4)
H39 H -0.1431 -0.1610 0.4963
H40 H -0.1260 -0.2171 0.4544
C42 C 0.0122(7) -0.3476(5) 0.4762(3)
H41 H -0.0151 -0.3506 0.4437
H42 H 0.0496 -0.3860 0.4775
C43 C -0.1976(6) -0.2579(5) 0.5472(3)
C44 C -0.1412(7) -0.3360(5) 0.4933(3)
H43 H -0.1620 -0.3459 0.4593
C45 C -0.2033(7) -0.3820(5) 0.5219(3)
H44 H -0.2559 -0.4109 0.5016
C46 C -0.0656(8) -0.4188(5) 0.5311(3)
C47 C -0.2960(8) -0.3427(5) 0.5821(3)
H45 H -0.3486 -0.3704 0.5621
H46 H -0.3112 -0.2958 0.5951
C48 C -0.1873(7) -0.5018(5) 0.5570(3)
H47 H -0.2421 -0.5226 0.5362
H48 H -0.1461 -0.5372 0.5545
C49 C -0.2714(5) -0.3575(4) 0.6673(2)
C50 C -0.2839(6) -0.4635(4) 0.6148(3)
H49 H -0.3370 -0.4861 0.5925
C51 C -0.2925(6) -0.4835(4) 0.6640(3)
H50 H -0.3528 -0.5091 0.6665
C52 C -0.1801(7) -0.5380(5) 0.6355(3)
C53 C -0.2915(6) -0.4021(4) 0.7406(3)
H51 H -0.3513 -0.4288 0.7414
H52 H -0.2913 -0.3498 0.7508
C54 C -0.2324(6) -0.5831(4) 0.7037(3)
H53 H -0.2951 -0.6033 0.7034
H54 H -0.2024 -0.6238 0.6930
C55 C -0.1788(5) -0.3881(4) 0.8091(3)
C56 C -0.2400(6) -0.5094(4) 0.7803(3)
H55 H -0.3034 -0.5305 0.7792
C57 C -0.1884(5) -0.5059(3) 0.8297(3)
H56 H -0.2281 -0.5199 0.8529
C58 C -0.1364(5) -0.5876(4) 0.7756(3)
C59 C -0.1029(5) -0.3996(3) 0.8876(2)
H57 H -0.0963 -0.3457 0.8903
H58 H -0.1425 -0.4161 0.9098
C60 C -0.0887(5) -0.5938(4) 0.8586(3)
H59 H -0.1317 -0.6031 0.8806
H60 H -0.0754 -0.6415 0.8457
C61 C 0.0574(5) -0.3688(3) 0.9097(2)
C62 C -0.0072(5) -0.4873(3) 0.9196(2)
H61 H -0.0490 -0.4986 0.9423
C63 C 0.0907(5) -0.4717(3) 0.9428(2)
H62 H 0.0954 -0.4726 0.9770
C64 C 0.0711(5) -0.5738(3) 0.8858(2)
C65 C 0.2090(5) -0.3568(3) 0.9522(2)
H63 H 0.2057 -0.3040 0.9553
H64 H 0.2229 -0.3700 0.9836
C66 C 0.2172(5) -0.5442(3) 0.9329(2)
H65 H 0.2185 -0.5968 0.9247
H66 H 0.2313 -0.5326 0.9669
C67 C 0.3245(5) -0.3167(3) 0.9032(2)
C68 C 0.3307(4) -0.4299(3) 0.9302(2)
H67 H 0.3588 -0.4281 0.9627
C69 C 0.4017(5) -0.4159(3) 0.8958(2)
H68 H 0.4615 -0.4230 0.9092
C70 C 0.3006(5) -0.5209(3) 0.8677(2)
C71 C 0.4587(5) -0.2968(4) 0.8641(2)
H69 H 0.5160 -0.3140 0.8672
H70 H 0.4682 -0.2448 0.8775
C72 C 0.4069(5) -0.4823(3) 0.8143(2)
H71 H 0.3877 -0.5335 0.7998
H72 H 0.4712 -0.4752 0.8234
C73 C 0.3917(4) -0.2491(4) 0.7944(2)
C74 C 0.4388(5) -0.3619(4) 0.7790(2)
H73 H 0.5030 -0.3642 0.7807
C75 C 0.4040(5) -0.3396(3) 0.7342(2)
H74 H 0.4481 -0.3385 0.7119
C76 C 0.3215(5) -0.4508(4) 0.7436(2)
C77 C 0.3709(5) -0.2123(4) 0.7147(3)
H75 H 0.3858 -0.1627 0.7322
H76 H 0.4126 -0.2163 0.6918
C78 C 0.2777(6) -0.4038(4) 0.6694(2)
H77 H 0.3216 -0.3990 0.6475
H78 H 0.2426 -0.4534 0.6618
C79 C 0.2393(6) -0.1611(4) 0.6862(3)
C80 C 0.2519(6) -0.2778(4) 0.6510(3)
H79 H 0.2957 -0.2797 0.6286
C81 C 0.1636(7) -0.2547(5) 0.6292(3)
H80 H 0.1571 -0.2594 0.5946
C82 C 0.1320(6) -0.3633(4) 0.6612(2)
C83 C 0.1186(7) -0.1264(5) 0.6335(3)
H81 H 0.1543 -0.0771 0.6369
H82 H 0.0992 -0.1419 0.6001
C84 C 0.0052(7) -0.3046(5) 0.6329(3)
H83 H -0.0044 -0.3009 0.5994
H84 H -0.0278 -0.3522 0.6377
N1 N 0.0424(5) -0.1223(3) 0.6568(2)
N2 N -0.0564(4) -0.0678(3) 0.6910(2)
N3 N -0.0309(5) -0.2474(4) 0.6572(3)
N4 N -0.0885(5) -0.1905(4) 0.7160(3)
N5 N -0.0824(4) 0.0005(3) 0.7610(2)
N6 N -0.0531(4) 0.0633(3) 0.8329(2)
N7 N -0.0979(4) -0.1188(3) 0.7891(2)
N8 N -0.0247(4) -0.0549(3) 0.8543(2)
N9 N 0.0606(4) 0.1327(3) 0.89246(19)
N10 N 0.1968(4) 0.1861(3) 0.9200(2)
N11 N 0.0939(4) 0.0143(3) 0.9120(2)
N12 N 0.2326(4) 0.0662(3) 0.93262(18)
N13 N 0.3413(4) 0.2163(3) 0.8941(2)
N14 N 0.4151(4) 0.2137(3) 0.8331(2)
N15 N 0.3768(4) 0.0970(3) 0.90764(19)
N16 N 0.4536(4) 0.0952(3) 0.8479(2)
N17 N 0.4375(4) 0.1844(3) 0.7526(2)
N18 N 0.4027(5) 0.1370(3) 0.6791(2)
N19 N 0.4821(4) 0.0679(3) 0.7694(2)
N20 N 0.4654(4) 0.0259(3) 0.6926(2)
N21 N 0.3293(5) 0.0691(4) 0.6056(2)
N22 N 0.2287(5) -0.0045(4) 0.5537(2)
N23 N 0.3990(5) -0.0386(3) 0.6171(2)
N24 N 0.3108(5) -0.1059(4) 0.5557(2)
N25 N 0.1063(5) -0.0923(4) 0.5130(2)
N26 N -0.0164(6) -0.1775(4) 0.5001(3)
N27 N 0.1917(5) -0.1941(4) 0.5106(2)
N28 N 0.0681(6) -0.2758(4) 0.4897(2)
N29 N -0.1453(5) -0.2632(4) 0.5119(3)
N30 N -0.2279(6) -0.3281(4) 0.5546(2)
N31 N -0.0568(5) -0.3622(4) 0.5052(3)
N32 N -0.1461(6) -0.4296(4) 0.5412(2)
N33 N -0.2738(5) -0.3846(3) 0.6209(2)
N34 N -0.2711(4) -0.4107(3) 0.6930(2)
N35 N -0.2064(5) -0.4919(3) 0.6029(2)
N36 N -0.2257(5) -0.5303(3) 0.6716(2)
N37 N -0.2279(4) -0.4297(3) 0.77354(19)
N38 N -0.1443(4) -0.4305(3) 0.84035(19)
N39 N -0.1956(4) -0.5545(3) 0.7498(2)
N40 N -0.1287(4) -0.5592(3) 0.8209(2)
N41 N -0.0183(4) -0.4192(3) 0.90029(19)
N42 N 0.1232(4) -0.3982(3) 0.93118(19)
N43 N -0.0100(4) -0.5508(3) 0.88317(19)
N44 N 0.1290(4) -0.5306(3) 0.91942(19)
N45 N 0.2797(3) -0.3705(2) 0.92506(17)
N46 N 0.3980(4) -0.3393(3) 0.8889(2)
N47 N 0.2848(4) -0.5023(3) 0.91147(18)
N48 N 0.3639(4) -0.4703(3) 0.85588(18)
N49 N 0.4220(4) -0.3042(3) 0.81327(18)
N50 N 0.3816(4) -0.2666(3) 0.7470(2)
N51 N 0.3876(4) -0.4333(3) 0.77989(19)
N52 N 0.3249(4) -0.3962(3) 0.71734(19)
N53 N 0.2828(4) -0.2216(3) 0.69044(19)
N54 N 0.1748(5) -0.1778(4) 0.6512(2)
N55 N 0.2192(4) -0.3499(3) 0.66277(19)
N56 N 0.0981(5) -0.3045(4) 0.6463(2)
O8 O 0.0784(4) 0.0029(3) 0.6880(2)
O9 O -0.0162(4) 0.1210(3) 0.7704(2)
O10 O 0.1231(3) 0.2307(2) 0.85936(17)
O11 O 0.2997(4) 0.2776(2) 0.83357(18)
O12 O 0.3275(4) 0.2258(3) 0.70848(19)
O13 O 0.1887(5) 0.1000(4) 0.5929(2)
O14 O -0.0191(5) -0.0620(4) 0.5399(2)
O15 O -0.2112(4) -0.2011(4) 0.5669(2)
O16 O -0.2688(4) -0.2901(3) 0.68102(18)
O17 O -0.1671(4) -0.3185(3) 0.81653(17)
O18 O 0.0660(3) -0.3050(2) 0.90114(17)
O19 O 0.3031(4) -0.2570(2) 0.89856(17)
O20 O 0.3753(4) -0.1920(3) 0.81591(18)
O21 O 0.2622(4) -0.1006(3) 0.7111(2)
O22 O -0.0542(5) -0.3048(3) 0.7229(3)
O23 O 0.0036(4) -0.1707(3) 0.8311(3)
O24 O 0.2036(4) -0.0543(3) 0.89867(19)
O25 O 0.3907(3) -0.0163(2) 0.86987(19)
O26 O 0.4763(4) -0.0568(3) 0.7455(2)
O27 O 0.3831(4) -0.1665(3) 0.61013(18)
O28 O 0.1945(5) -0.3138(4) 0.5221(2)
O29 O -0.0059(6) -0.4523(4) 0.5442(2)
O30 O -0.1245(5) -0.5779(4) 0.6290(2)
O31 O -0.0996(4) -0.6348(4) 0.7595(2)
O32 O 0.0845(3) -0.6289(2) 0.86281(17)
O33 O 0.2631(3) -0.5781(2) 0.84145(16)
O34 O 0.2684(4) -0.5096(3) 0.73572(18)
O35 O 0.0879(4) -0.4186(3) 0.6707(2)
Cl7 Cl 0.1507(2) -0.18924(16) 0.89491(13)
Eu1_2 Eu 0.16367(3) -0.684226(16) 0.806391(12)
O32_2 O 0.0845(3) 0.3711(2) 0.86281(17)
O33_2 O 0.2631(3) 0.4219(2) 0.84145(16)
Cl1 Cl 0.24763(18) 0.54612(17) 1.05440(8)
Cl8? Cl 0.1640(4) -0.2076(3) 0.8572(3)
Cl9? Cl 0.6784(4) 0.6292(5) 0.95171(18)
Cl10? Cl 0.6366(4) 0.5148(3) 0.92952(17)
Cl11? Cl 0.5964(5) 0.5769(4) 0.9910(2)
loop_
_geom_bond_atom_site_label_1
_geom_bond_atom_site_label_2
_geom_bond_site_symmetry_1
_geom_bond_site_symmetry_2
O1 Eu1 1_555 1_555
O2 Eu1 1_555 1_555
O3 Eu1 1_555 1_555
O4 Eu1 1_555 1_555
O5 Eu2 1_555 1_555
O6 Eu2 1_555 1_555
O7 Eu2 1_555 1_555
Eu1 O10 1_555 1_555
Eu2 O19 1_555 1_555
C1 N1 1_555 1_555
C2 H1 1_555 1_555
C3 C2 1_555 1_555
H2 C3 1_555 1_555
C4 N3 1_555 1_555
C5 H3 1_555 1_555
H4 C5 1_555 1_555
C6 H5 1_555 1_555
H6 C6 1_555 1_555
C7 N5 1_555 1_555
C8 H7 1_555 1_555
C9 C8 1_555 1_555
H8 C9 1_555 1_555
C10 N7 1_555 1_555
C11 H9 1_555 1_555
H10 C11 1_555 1_555
C12 H11 1_555 1_555
H12 C12 1_555 1_555
C13 N9 1_555 1_555
C14 H13 1_555 1_555
C15 C14 1_555 1_555
H14 C15 1_555 1_555
C16 N11 1_555 1_555
C17 H15 1_555 1_555
H16 C17 1_555 1_555
C18 H17 1_555 1_555
H18 C18 1_555 1_555
C19 N13 1_555 1_555
C20 H19 1_555 1_555
C21 C20 1_555 1_555
H20 C21 1_555 1_555
C22 N15 1_555 1_555
C23 H21 1_555 1_555
H22 C23 1_555 1_555
C24 H23 1_555 1_555
H24 C24 1_555 1_555
C25 N17 1_555 1_555
C26 H25 1_555 1_555
C27 C26 1_555 1_555
H26 C27 1_555 1_555
C28 N19 1_555 1_555
C29 H27 1_555 1_555
H28 C29 1_555 1_555
C30 H29 1_555 1_555
H30 C30 1_555 1_555
C31 N21 1_555 1_555
C32 H31 1_555 1_555
C33 C32 1_555 1_555
H32 C33 1_555 1_555
C34 N23 1_555 1_555
C35 H33 1_555 1_555
H34 C35 1_555 1_555
C36 H35 1_555 1_555
H36 C36 1_555 1_555
C37 N25 1_555 1_555
C38 H37 1_555 1_555
C39 C38 1_555 1_555
H38 C39 1_555 1_555
C40 N27 1_555 1_555
C41 H39 1_555 1_555
H40 C41 1_555 1_555
C42 H41 1_555 1_555
H42 C42 1_555 1_555
C43 N29 1_555 1_555
C44 H43 1_555 1_555
C45 C44 1_555 1_555
H44 C45 1_555 1_555
C46 N31 1_555 1_555
C47 H45 1_555 1_555
H46 C47 1_555 1_555
C48 H47 1_555 1_555
H48 C48 1_555 1_555
C49 N33 1_555 1_555
C50 H49 1_555 1_555
C51 C50 1_555 1_555
H50 C51 1_555 1_555
C52 N35 1_555 1_555
C53 H51 1_555 1_555
H52 C53 1_555 1_555
C54 H53 1_555 1_555
H54 C54 1_555 1_555
C55 N37 1_555 1_555
C56 H55 1_555 1_555
C57 C56 1_555 1_555
H56 C57 1_555 1_555
C58 N39 1_555 1_555
C59 H57 1_555 1_555
H58 C59 1_555 1_555
C60 H59 1_555 1_555
H60 C60 1_555 1_555
C61 N41 1_555 1_555
C62 H61 1_555 1_555
C63 C62 1_555 1_555
H62 C63 1_555 1_555
C64 N43 1_555 1_555
C65 H63 1_555 1_555
H64 C65 1_555 1_555
C66 H65 1_555 1_555
H66 C66 1_555 1_555
C67 N45 1_555 1_555
C68 H67 1_555 1_555
C69 C68 1_555 1_555
H68 C69 1_555 1_555
C70 N47 1_555 1_555
C71 H69 1_555 1_555
H70 C71 1_555 1_555
C72 H71 1_555 1_555
H72 C72 1_555 1_555
C73 N49 1_555 1_555
C74 H73 1_555 1_555
C75 C74 1_555 1_555
H74 C75 1_555 1_555
C76 N51 1_555 1_555
C77 H75 1_555 1_555
H76 C77 1_555 1_555
C78 H77 1_555 1_555
H78 C78 1_555 1_555
C79 N53 1_555 1_555
C80 H79 1_555 1_555
C81 C80 1_555 1_555
H80 C81 1_555 1_555
C82 N55 1_555 1_555
C83 H81 1_555 1_555
H82 C83 1_555 1_555
C84 H83 1_555 1_555
H84 C84 1_555 1_555
N1 C2 1_555 1_555
N2 C1 1_555 1_555
N3 C2 1_555 1_555
N4 C3 1_555 1_555
N5 C5 1_555 1_555
N6 C7 1_555 1_555
N7 C6 1_555 1_555
N8 C9 1_555 1_555
N9 C11 1_555 1_555
N10 C13 1_555 1_555
N11 C12 1_555 1_555
N12 C15 1_555 1_555
N13 C17 1_555 1_555
N14 C19 1_555 1_555
N15 C18 1_555 1_555
N16 C21 1_555 1_555
N17 C23 1_555 1_555
N18 C25 1_555 1_555
N19 C24 1_555 1_555
N20 C27 1_555 1_555
N21 C29 1_555 1_555
N22 C31 1_555 1_555
N23 C30 1_555 1_555
N24 C33 1_555 1_555
N25 C35 1_555 1_555
N26 C37 1_555 1_555
N27 C36 1_555 1_555
N28 C39 1_555 1_555
N29 C41 1_555 1_555
N30 C43 1_555 1_555
N31 C42 1_555 1_555
N32 C45 1_555 1_555
N33 C47 1_555 1_555
N34 C49 1_555 1_555
N35 C48 1_555 1_555
N36 C51 1_555 1_555
N37 C53 1_555 1_555
N38 C55 1_555 1_555
N39 C54 1_555 1_555
N40 C57 1_555 1_555
N41 C59 1_555 1_555
N42 C61 1_555 1_555
N43 C60 1_555 1_555
N44 C63 1_555 1_555
N45 C65 1_555 1_555
N46 C67 1_555 1_555
N47 C66 1_555 1_555
N48 C69 1_555 1_555
N49 C71 1_555 1_555
N50 C73 1_555 1_555
N51 C72 1_555 1_555
N52 C75 1_555 1_555
N53 C77 1_555 1_555
N54 C79 1_555 1_555
N55 C78 1_555 1_555
N56 C81 1_555 1_555
O8 C1 1_555 1_555
O9 C7 1_555 1_555
O10 C13 1_555 1_555
O11 Eu1 1_555 1_555
O12 C25 1_555 1_555
O13 C31 1_555 1_555
O14 C37 1_555 1_555
O15 C43 1_555 1_555
O16 C49 1_555 1_555
O17 C55 1_555 1_555
O18 C61 1_555 1_555
O19 C67 1_555 1_555
O20 Eu2 1_555 1_555
O21 C79 1_555 1_555
O22 C4 1_555 1_555
O23 C10 1_555 1_555
O24 Eu2 1_555 1_555
O25 Eu2 1_555 1_555
O26 C28 1_555 1_555
O27 C34 1_555 1_555
O28 C40 1_555 1_555
O29 C46 1_555 1_555
O30 C52 1_555 1_555
O31 C58 1_555 1_555
O32 C64 1_555 1_555
O33 C70 1_555 1_555
O34 C76 1_555 1_555
O35 C82 1_555 1_555
Cl7 Eu2 1_555 1_555
Eu1_2 O32 1_555 1_555
O32_2 Eu1 1_555 1_555
O33_2 Eu1 1_555 1_555
C3 N2 1_555 1_555
C4 N4 1_555 1_555
C5 N2 1_555 1_555
C6 N4 1_555 1_555
C8 N5 1_555 1_555
C8 N7 1_555 1_555
C9 N6 1_555 1_555
C10 N8 1_555 1_555
C11 N6 1_555 1_555
C12 N8 1_555 1_555
C14 N9 1_555 1_555
C14 N11 1_555 1_555
C15 N10 1_555 1_555
C16 N12 1_555 1_555
C16 O24 1_555 1_555
C17 N10 1_555 1_555
C18 N12 1_555 1_555
C19 O11 1_555 1_555
C20 N13 1_555 1_555
C20 N15 1_555 1_555
C21 N14 1_555 1_555
C22 N16 1_555 1_555
C22 O25 1_555 1_555
C23 N14 1_555 1_555
C24 N16 1_555 1_555
C26 N17 1_555 1_555
C26 N19 1_555 1_555
C27 N18 1_555 1_555
C28 N20 1_555 1_555
C29 N18 1_555 1_555
C30 N20 1_555 1_555
C32 N21 1_555 1_555
C32 N23 1_555 1_555
C33 N22 1_555 1_555
C34 N24 1_555 1_555
C35 N22 1_555 1_555
C36 N24 1_555 1_555
C38 N25 1_555 1_555
C38 N27 1_555 1_555
C39 N26 1_555 1_555
C40 N28 1_555 1_555
C41 N26 1_555 1_555
C42 N28 1_555 1_555
C44 N29 1_555 1_555
C44 N31 1_555 1_555
C45 N30 1_555 1_555
C46 N32 1_555 1_555
C47 N30 1_555 1_555
C48 N32 1_555 1_555
C50 N33 1_555 1_555
C50 N35 1_555 1_555
C51 N34 1_555 1_555
C52 N36 1_555 1_555
C53 N34 1_555 1_555
C54 N36 1_555 1_555
C56 N37 1_555 1_555
C56 N39 1_555 1_555
C57 N38 1_555 1_555
C58 N40 1_555 1_555
C59 N38 1_555 1_555
C60 N40 1_555 1_555
C62 N41 1_555 1_555
C62 N43 1_555 1_555
C63 N42 1_555 1_555
C64 N44 1_555 1_555
C65 N42 1_555 1_555
C66 N44 1_555 1_555
C68 N45 1_555 1_555
C68 N47 1_555 1_555
C69 N46 1_555 1_555
C70 N48 1_555 1_555
C71 N46 1_555 1_555
C72 N48 1_555 1_555
C73 O20 1_555 1_555
C74 N49 1_555 1_555
C74 N51 1_555 1_555
C75 N50 1_555 1_555
C76 N52 1_555 1_555
C77 N50 1_555 1_555
C78 N52 1_555 1_555
C80 N53 1_555 1_555
C80 N55 1_555 1_555
C81 N54 1_555 1_555
C82 N56 1_555 1_555
C83 N1 1_555 1_555
C83 N54 1_555 1_555
C84 N3 1_555 1_555
C84 N56 1_555 1_555
O33 Eu1_2 1_555 1_555

#END
