
#######################################################################
#
#                 Cambridge Crystallographic Data Centre
#                                CCDC 
#
#######################################################################
#
# If this CIF has been generated from an entry in the Cambridge 
# Structural Database, then it will include bibliographic, chemical, 
# crystal, experimental, refinement or atomic coordinate data resulting 
# from the CCDC's data processing and validation procedures.
#
#######################################################################

data_DEXJOH
_symmetry_cell_setting           monoclinic
_symmetry_space_group_name_H-M   'P 21/c'
_symmetry_Int_Tables_number      14
_space_group_name_Hall           '-P 2ybc'
loop_
_symmetry_equiv_pos_site_id
_symmetry_equiv_pos_as_xyz
1 x,y,z
2 -x,1/2+y,1/2-z
3 -x,-y,-z
4 x,1/2-y,1/2+z
_cell_length_a                   4.0342(3)
_cell_length_b                   17.7999(12)
_cell_length_c                   10.0127(7)
_cell_angle_alpha                90
_cell_angle_beta                 91.5580(10)
_cell_angle_gamma                90
_cell_volume                     718.73
loop_
_atom_site_label
_atom_site_type_symbol
_atom_site_fract_x
_atom_site_fract_y
_atom_site_fract_z
Hg1 Hg 0.33292(4) 0.403916(9) 0.613257(16)
Cl1 Cl 0.0007(3) 0.43328(6) 0.79736(10)
Cl2 Cl 0.7290(3) 0.41392(6) 0.44329(11)
N1 N 0.3161(9) 0.2707(2) 0.6211(3)
C1 C 0.4701(11) 0.2151(2) 0.5577(4)
N2 N 0.1333(10) 0.2372(2) 0.7183(4)
N3 N 0.1687(9) 0.1655(2) 0.7168(4)
N4 N 0.3840(9) 0.1508(2) 0.6165(4)
N5 N 0.5075(11) 0.0801(2) 0.5873(4)
H1 H 0.6560 0.0749 0.5253
H2 H 0.4373 0.0405 0.6309
N6 N 0.6747(10) 0.2198(2) 0.4550(4)
H3 H 0.7621 0.1788 0.4218
H4 H 0.7217 0.2639 0.4206
Hg1_2 Hg 1.33292(4) 0.403916(9) 0.613257(16)
Cl2_2 Cl -0.2710(3) 0.41392(6) 0.44329(11)
loop_
_geom_bond_atom_site_label_1
_geom_bond_atom_site_label_2
_geom_bond_site_symmetry_1
_geom_bond_site_symmetry_2
Hg1 Cl1 1_555 1_555
Cl2 Hg1 1_555 1_555
N1 Hg1 1_555 1_555
C1 N1 1_555 1_555
N2 N1 1_555 1_555
N3 N2 1_555 1_555
N4 C1 1_555 1_555
N5 N4 1_555 1_555
H1 N5 1_555 1_555
H2 N5 1_555 1_555
N6 C1 1_555 1_555
H3 N6 1_555 1_555
H4 N6 1_555 1_555
Hg1_2 Cl2 1_555 1_555
Cl2_2 Hg1 1_555 1_555
N3 N4 1_555 1_555

#END
