
#######################################################################
#
#                 Cambridge Crystallographic Data Centre
#                                CCDC 
#
#######################################################################
#
# If this CIF has been generated from an entry in the Cambridge 
# Structural Database, then it will include bibliographic, chemical, 
# crystal, experimental, refinement or atomic coordinate data resulting 
# from the CCDC's data processing and validation procedures.
#
#######################################################################

data_DEXKUO
_symmetry_cell_setting           monoclinic
_symmetry_space_group_name_H-M   'C 2/c'
_symmetry_Int_Tables_number      15
_space_group_name_Hall           '-C 2yn'
loop_
_symmetry_equiv_pos_site_id
_symmetry_equiv_pos_as_xyz
1 x,y,z
2 -x,y,1/2-z
3 1/2+x,1/2+y,z
4 1/2-x,1/2+y,1/2-z
5 -x,-y,-z
6 x,-y,1/2+z
7 1/2-x,1/2-y,-z
8 1/2+x,1/2-y,1/2+z
_cell_length_a                   20.4432(7)
_cell_length_b                   10.8953(5)
_cell_length_c                   36.3500(12)
_cell_angle_alpha                90
_cell_angle_beta                 97.413(3)
_cell_angle_gamma                90
_cell_volume                     8028.74
loop_
_atom_site_label
_atom_site_type_symbol
_atom_site_fract_x
_atom_site_fract_y
_atom_site_fract_z
C1 C 0.2570(7) 0.1432(13) 0.0561(3)
H1 H 0.2415 0.1441 0.0805
H2 H 0.2754 0.0623 0.0516
H3 H 0.2199 0.1605 0.0368
O1 O 0.3092(5) 0.2393(10) 0.0549(2)
H4 H 0.3150 0.2766 0.0753
C2 C 1.0106(10) 0.261(3) 0.1874(11)
H5 H 1.0042 0.2046 0.1658
H6 H 1.0377 0.2179 0.2081
Cl1 Cl 0.9332(4) 0.3024(8) 0.2008(3)
Cl2 Cl 1.0506(5) 0.3970(10) 0.1758(3)
Au1 Au 0.440411(18) 0.41930(3) 0.129040(8)
Au2 Au 0.297070(17) 0.46011(3) 0.126474(8)
Au3 Au 0.162562(18) 0.59483(3) 0.128614(8)
Au4 Au 0.078753(18) 0.81352(3) 0.133695(8)
As1 As 0.41262(5) 0.22100(8) 0.15175(2)
As2 As 0.32401(5) 0.64440(8) 0.09458(2)
As3 As 0.19402(5) 0.64277(9) 0.19325(2)
As4 As 0.06354(5) 0.78740(9) 0.06721(2)
C4 C 0.3200(5) 0.1979(8) 0.1566(2)
C5 C 0.3007(5) 0.0832(8) 0.1691(2)
H11 H 0.3326 0.0200 0.1743
C6 C 0.2355(5) 0.0609(8) 0.1740(2)
H12 H 0.2222 -0.0171 0.1820
C7 C 0.1903(5) 0.1555(9) 0.1668(3)
H13 H 0.1459 0.1427 0.1710
C8 C 0.2083(5) 0.2677(9) 0.1538(2)
H14 H 0.1757 0.3293 0.1482
C9 C 0.2742(5) 0.2932(8) 0.1485(2)
C10 C 0.4590(6) 0.1642(9) 0.1988(2)
H15 H 0.4409 0.0848 0.2052
H16 H 0.4534 0.2241 0.2182
H17 H 0.5060 0.1550 0.1966
C11 C 0.4317(6) 0.0865(9) 0.1199(3)
H18 H 0.4193 0.0087 0.1307
H19 H 0.4789 0.0856 0.1176
H20 H 0.4064 0.0971 0.0953
C12 C 0.4173(5) 0.6739(8) 0.0940(2)
C13 C 0.4363(5) 0.7850(9) 0.0792(2)
H21 H 0.4036 0.8428 0.0699
C14 C 0.5024(5) 0.8122(8) 0.0780(2)
H22 H 0.5151 0.8879 0.0680
C15 C 0.5489(6) 0.7271(9) 0.0915(3)
H23 H 0.5944 0.7439 0.0910
C16 C 0.5297(5) 0.6162(9) 0.1060(3)
H24 H 0.5630 0.5595 0.1153
C17 C 0.4643(4) 0.5846(8) 0.1074(2)
C18 C 0.2894(6) 0.6458(12) 0.0420(2)
H25 H 0.3028 0.7218 0.0306
H26 H 0.2411 0.6412 0.0392
H27 H 0.3068 0.5752 0.0297
C19 C 0.2932(6) 0.8019(10) 0.1105(3)
H28 H 0.3184 0.8249 0.1342
H29 H 0.2463 0.7960 0.1134
H30 H 0.2992 0.8644 0.0918
C20 C 0.1471(5) 0.7780(8) 0.2132(2)
C21 C 0.1642(5) 0.8066(9) 0.2504(2)
H31 H 0.1964 0.7594 0.2654
C22 C 0.1338(5) 0.9044(9) 0.2655(2)
H32 H 0.1453 0.9249 0.2909
C23 C 0.0870(5) 0.9718(9) 0.2437(2)
H33 H 0.0654 1.0378 0.2543
C24 C 0.0708(5) 0.9438(8) 0.2060(2)
H34 H 0.0387 0.9913 0.1911
C25 C 0.1019(5) 0.8460(8) 0.1902(2)
C26 C 0.1839(7) 0.5092(9) 0.2272(3)
H35 H 0.2055 0.4356 0.2191
H36 H 0.1369 0.4925 0.2276
H37 H 0.2041 0.5321 0.2522
C27 C 0.2853(6) 0.6906(12) 0.2076(3)
H38 H 0.2899 0.7790 0.2037
H39 H 0.3136 0.6457 0.1924
H40 H 0.2982 0.6712 0.2338
C28 C 0.0929(5) 0.6315(9) 0.0495(2)
C29 C 0.0741(6) 0.5995(10) 0.0124(2)
H41 H 0.0451 0.6513 -0.0032
C30 C 0.0974(6) 0.4935(10) -0.0015(2)
H42 H 0.0856 0.4741 -0.0270
C31 C 0.1370(6) 0.4155(10) 0.0205(2)
H43 H 0.1524 0.3415 0.0108
C32 C 0.1547(5) 0.4469(9) 0.0579(2)
H44 H 0.1825 0.3929 0.0734
C33 C 0.1331(5) 0.5538(8) 0.0733(2)
C34 C 0.1145(7) 0.9035(11) 0.0425(3)
H45 H 0.1616 0.8912 0.0508
H46 H 0.1020 0.9872 0.0484
H47 H 0.1059 0.8908 0.0156
C35 C -0.0231(6) 0.8188(10) 0.0394(2)
H48 H -0.0226 0.7958 0.0134
H49 H -0.0337 0.9063 0.0409
H50 H -0.0565 0.7703 0.0499
Au1B Au -0.059589(18) 0.91930(3) 0.129040(8)
Au4B Au 0.578753(18) 0.31352(3) 0.133695(8)
C3? C 1.0580(17) 0.296(4) 0.2189(10)
H7? H 1.0977 0.2866 0.2067
H8? H 1.0544 0.2272 0.2358
H9? H 1.0610 0.3732 0.2331
O2? O 0.9982(13) 0.300(2) 0.1904(8)
H10? H 0.9685 0.2524 0.1966
loop_
_geom_bond_atom_site_label_1
_geom_bond_atom_site_label_2
_geom_bond_site_symmetry_1
_geom_bond_site_symmetry_2
C1 H1 1_555 1_555
H2 C1 1_555 1_555
H3 C1 1_555 1_555
O1 C1 1_555 1_555
H4 O1 1_555 1_555
C2 H5 1_555 1_555
H6 C2 1_555 1_555
Cl1 C2 1_555 1_555
Cl2 C2 1_555 1_555
Au1 Au2 1_555 1_555
Au2 Au3 1_555 1_555
Au3 Au4 1_555 1_555
Au4 As4 1_555 1_555
As1 Au1 1_555 1_555
As2 Au2 1_555 1_555
As3 Au3 1_555 1_555
As4 C28 1_555 1_555
C4 As1 1_555 1_555
C5 C4 1_555 1_555
H11 C5 1_555 1_555
C6 C5 1_555 1_555
H12 C6 1_555 1_555
C7 C6 1_555 1_555
H13 C7 1_555 1_555
C8 C7 1_555 1_555
H14 C8 1_555 1_555
C9 Au2 1_555 1_555
C10 As1 1_555 1_555
H15 C10 1_555 1_555
H16 C10 1_555 1_555
H17 C10 1_555 1_555
C11 As1 1_555 1_555
H18 C11 1_555 1_555
H19 C11 1_555 1_555
H20 C11 1_555 1_555
C12 As2 1_555 1_555
C13 C12 1_555 1_555
H21 C13 1_555 1_555
C14 C13 1_555 1_555
H22 C14 1_555 1_555
C15 C14 1_555 1_555
H23 C15 1_555 1_555
C16 C15 1_555 1_555
H24 C16 1_555 1_555
C17 Au1 1_555 1_555
C18 As2 1_555 1_555
H25 C18 1_555 1_555
H26 C18 1_555 1_555
H27 C18 1_555 1_555
C19 As2 1_555 1_555
H28 C19 1_555 1_555
H29 C19 1_555 1_555
H30 C19 1_555 1_555
C20 As3 1_555 1_555
C21 C20 1_555 1_555
H31 C21 1_555 1_555
C22 C21 1_555 1_555
H32 C22 1_555 1_555
C23 C22 1_555 1_555
H33 C23 1_555 1_555
C24 C23 1_555 1_555
H34 C24 1_555 1_555
C25 Au4 1_555 1_555
C26 As3 1_555 1_555
H35 C26 1_555 1_555
H36 C26 1_555 1_555
H37 C26 1_555 1_555
C27 As3 1_555 1_555
H38 C27 1_555 1_555
H39 C27 1_555 1_555
H40 C27 1_555 1_555
C28 C29 1_555 1_555
C29 H41 1_555 1_555
C30 C29 1_555 1_555
H42 C30 1_555 1_555
C31 C30 1_555 1_555
H43 C31 1_555 1_555
C32 C31 1_555 1_555
H44 C32 1_555 1_555
C33 Au3 1_555 1_555
C34 As4 1_555 1_555
H45 C34 1_555 1_555
H46 C34 1_555 1_555
H47 C34 1_555 1_555
C35 As4 1_555 1_555
H48 C35 1_555 1_555
H49 C35 1_555 1_555
H50 C35 1_555 1_555
Au1B Au4 1_555 1_555
Au4B Au1 1_555 1_555
C4 C9 1_555 1_555
C8 C9 1_555 1_555
C12 C17 1_555 1_555
C16 C17 1_555 1_555
C20 C25 1_555 1_555
C24 C25 1_555 1_555
C28 C33 1_555 1_555
C32 C33 1_555 1_555

#END
