
#######################################################################
#
#                 Cambridge Crystallographic Data Centre
#                                CCDC 
#
#######################################################################
#
# If this CIF has been generated from an entry in the Cambridge 
# Structural Database, then it will include bibliographic, chemical, 
# crystal, experimental, refinement or atomic coordinate data resulting 
# from the CCDC's data processing and validation procedures.
#
#######################################################################

data_DEXMUP
_symmetry_cell_setting           orthorhombic
_symmetry_space_group_name_H-M   'P c c n'
_symmetry_Int_Tables_number      56
_space_group_name_Hall           '-P 2ab 2ac'
loop_
_symmetry_equiv_pos_site_id
_symmetry_equiv_pos_as_xyz
1 x,y,z
2 1/2-x,1/2-y,z
3 -x,1/2+y,1/2-z
4 1/2+x,-y,1/2-z
5 -x,-y,-z
6 1/2+x,1/2+y,-z
7 x,1/2-y,1/2+z
8 1/2-x,y,1/2+z
_cell_length_a                   19.9539(11)
_cell_length_b                   20.3295(11)
_cell_length_c                   11.9040(7)
_cell_angle_alpha                90
_cell_angle_beta                 90
_cell_angle_gamma                90
_cell_volume                     4828.89
loop_
_atom_site_label
_atom_site_type_symbol
_atom_site_fract_x
_atom_site_fract_y
_atom_site_fract_z
Zn1 Zn 0.065743(10) 0.398420(10) 0.866570(17)
Zn2 Zn 0.2500 0.7500 1.18193(2)
Cu1 Cu 0.196332(14) 0.437936(13) 0.65309(2)
O1 O 0.12135(9) 0.33920(8) 0.65762(14)
O2 O 0.11411(8) 0.31672(7) 0.83962(12)
O3 O -0.03429(8) 0.36038(8) 0.72103(13)
O4 O 0.01620(8) 0.45467(7) 0.76332(12)
O5 O 0.12186(8) 0.80881(8) 1.15457(12)
O6 O 0.17765(6) 0.75955(7) 1.29216(12)
O7 O 0.18926(9) 0.49066(9) 0.81260(15)
O8 O 0.11861(8) 0.46423(7) 0.95002(12)
N1 N 0.22693(9) 0.11819(8) 0.68020(14)
N2 N -0.13610(8) 0.51863(8) 0.44861(13)
N3 N -0.00670(8) 0.86467(8) 1.50445(13)
N4 N 0.22259(8) 0.67115(7) 1.08922(13)
C1 C 0.19932(12) 0.15246(11) 0.59617(18)
H1 H 0.2039 0.1366 0.5233
C2 C 0.16435(12) 0.21025(11) 0.61229(17)
H2 H 0.1461 0.2325 0.5513
C3 C 0.15662(9) 0.23466(9) 0.71955(16)
C4 C 0.18019(12) 0.19672(11) 0.80728(17)
H3 H 0.1728 0.2096 0.8812
C5 C 0.21483(12) 0.13945(11) 0.78436(17)
H4 H 0.2305 0.1145 0.8444
C6 C 0.12738(10) 0.30229(9) 0.73809(17)
C7 C -0.10425(12) 0.55245(10) 0.52904(19)
H5 H -0.1075 0.5981 0.5289
C8 C -0.06697(12) 0.52274(11) 0.61170(19)
H6 H -0.0456 0.5480 0.6660
C9 C -0.06146(9) 0.45491(10) 0.61360(16)
C10 C -0.09167(11) 0.42014(10) 0.52853(18)
H7 H -0.0875 0.3746 0.5253
C11 C -0.12833(11) 0.45334(10) 0.44768(17)
H8 H -0.1484 0.4292 0.3904
C12 C -0.02392(9) 0.41939(10) 0.70560(16)
C13 C 0.00260(10) 0.89751(10) 1.40846(18)
H9 H -0.0198 0.9372 1.3979
C14 C 0.04419(11) 0.87473(11) 1.32430(17)
H10 H 0.0489 0.8983 1.2578
C15 C 0.07880(9) 0.81648(9) 1.33987(15)
C16 C 0.06960(10) 0.78288(9) 1.43986(17)
H11 H 0.0923 0.7437 1.4532
C17 C 0.02649(10) 0.80811(9) 1.51931(17)
H12 H 0.0202 0.7850 1.5859
C18 C 0.12866(9) 0.79341(9) 1.25338(16)
C19 C 0.24897(10) 0.65761(9) 0.98843(16)
H13 H 0.2806 0.6862 0.9584
C20 C 0.23082(10) 0.60269(9) 0.92746(16)
H14 H 0.2498 0.5948 0.8574
C21 C 0.18427(9) 0.55951(8) 0.97123(15)
C22 C 0.15677(10) 0.57350(9) 1.07533(17)
H15 H 0.1254 0.5453 1.1073
C23 C 0.17638(10) 0.62977(10) 1.13095(16)
H16 H 0.1569 0.6394 1.2000
C24 C 0.16260(10) 0.49958(9) 0.90490(17)
Zn1A Zn 0.434257(10) 1.101580(10) 0.866570(17)
Zn1B Zn -0.065743(10) 0.898420(10) 1.633430(17)
Zn1C Zn 0.565743(10) 0.601580(10) 1.633430(17)
Zn1A_2 Zn 0.434257(10) 0.101580(10) 0.866570(17)
Zn1D Zn -0.065743(10) 0.601580(10) 0.133430(17)
Cu1A Cu 0.303668(14) 1.062064(13) 0.65309(2)
Cu1A_2 Cu 0.303668(14) 0.062064(13) 0.65309(2)
Cu1D Cu -0.196332(14) 0.562064(13) 0.34691(2)
O1A O 0.37865(9) 0.16080(8) 0.65762(14)
O2A O 0.38589(8) 0.18328(7) 0.83962(12)
O2A_2 O 0.38589(8) 1.18328(7) 0.83962(12)
O3D O 0.03429(8) 0.63962(8) 0.27897(13)
O4D O -0.01620(8) 0.54533(7) 0.23668(12)
O4A O 0.48380(8) 1.04533(7) 0.76332(12)
O5A O 0.37814(8) 0.69119(8) 1.15457(12)
O6A O 0.32235(6) 0.74045(7) 1.29216(12)
O7A O 0.31074(9) 1.00934(9) 0.81260(15)
O8A O 0.38139(8) 1.03577(7) 0.95002(12)
N1A N 0.27307(9) 0.38181(8) 0.68020(14)
N1_2 N 0.22693(9) 1.11819(8) 0.68020(14)
N2D N 0.13610(8) 0.48137(8) 0.55139(13)
N2E N 0.36390(8) 1.01863(8) 0.55139(13)
N3A N 0.50670(8) 0.63533(8) 1.50445(13)
N3B N 0.00670(8) 0.36467(8) 0.99555(13)
N3C N 0.49330(8) 1.13533(8) 0.99555(13)
N4A N 0.27741(8) 0.82885(7) 1.08922(13)
C1A C 0.30068(12) 0.34754(11) 0.59617(18)
H1A H 0.2961 0.3634 0.5233
C2A C 0.33565(12) 0.28975(11) 0.61229(17)
H2A H 0.3539 0.2675 0.5513
C3A C 0.34338(9) 0.26534(9) 0.71955(16)
C4A C 0.31981(12) 0.30328(11) 0.80728(17)
H3A H 0.3272 0.2904 0.8812
C5A C 0.28517(12) 0.36055(11) 0.78436(17)
H4A H 0.2695 0.3855 0.8444
C6A C 0.37262(10) 0.19771(9) 0.73809(17)
C7D C 0.10425(12) 0.44755(10) 0.47096(19)
H5D H 0.1075 0.4019 0.4711
C8D C 0.06697(12) 0.47726(11) 0.38830(19)
H6D H 0.0456 0.4520 0.3340
C9D C 0.06146(9) 0.54509(10) 0.38640(16)
C10D C 0.09167(11) 0.57986(10) 0.47147(18)
H7D H 0.0875 0.6254 0.4747
C11D C 0.12833(11) 0.54666(10) 0.55232(17)
H8D H 0.1484 0.5708 0.6096
C12D C 0.02392(9) 0.58061(10) 0.29440(16)
C13A C 0.49740(10) 0.60249(10) 1.40846(18)
H9A H 0.5198 0.5628 1.3979
C14A C 0.45581(11) 0.62527(11) 1.32430(17)
H10A H 0.4511 0.6017 1.2578
C15A C 0.42120(9) 0.68352(9) 1.33987(15)
C16A C 0.43040(10) 0.71712(9) 1.43986(17)
H11A H 0.4077 0.7563 1.4532
C17A C 0.47351(10) 0.69189(9) 1.51931(17)
H12A H 0.4798 0.7150 1.5859
C18A C 0.37134(9) 0.70659(9) 1.25338(16)
C19A C 0.25103(10) 0.84239(9) 0.98843(16)
H13A H 0.2194 0.8138 0.9584
C20A C 0.26918(10) 0.89731(9) 0.92746(16)
H14A H 0.2502 0.9052 0.8574
C21A C 0.31573(9) 0.94049(8) 0.97123(15)
C22A C 0.34323(10) 0.92650(9) 1.07533(17)
H15A H 0.3746 0.9547 1.1073
C23A C 0.32362(10) 0.87023(10) 1.13095(16)
H16A H 0.3431 0.8606 1.2000
C24A C 0.33740(10) 1.00042(9) 0.90490(17)
loop_
_geom_bond_atom_site_label_1
_geom_bond_atom_site_label_2
_geom_bond_site_symmetry_1
_geom_bond_site_symmetry_2
Zn1 O2 1_555 1_555
Zn2 O6 1_555 1_555
Cu1 O7 1_555 1_555
O1 C6 1_555 1_555
O2 C6 1_555 1_555
O3 C12 1_555 1_555
O4 Zn1 1_555 1_555
O5 C18 1_555 1_555
O6 C18 1_555 1_555
O7 C24 1_555 1_555
O8 Zn1 1_555 1_555
N1 C1 1_555 1_555
N2 C7 1_555 1_555
N3 C13 1_555 1_555
N4 Zn2 1_555 1_555
C1 H1 1_555 1_555
C2 C1 1_555 1_555
H2 C2 1_555 1_555
C3 C2 1_555 1_555
C4 C3 1_555 1_555
H3 C4 1_555 1_555
C5 N1 1_555 1_555
H4 C5 1_555 1_555
C6 C3 1_555 1_555
C7 H5 1_555 1_555
C8 C7 1_555 1_555
H6 C8 1_555 1_555
C9 C8 1_555 1_555
C10 C9 1_555 1_555
H7 C10 1_555 1_555
C11 N2 1_555 1_555
H8 C11 1_555 1_555
C12 O4 1_555 1_555
C13 H9 1_555 1_555
C14 C13 1_555 1_555
H10 C14 1_555 1_555
C15 C14 1_555 1_555
C16 C15 1_555 1_555
H11 C16 1_555 1_555
C17 N3 1_555 1_555
H12 C17 1_555 1_555
C18 C15 1_555 1_555
C19 N4 1_555 1_555
H13 C19 1_555 1_555
C20 C19 1_555 1_555
H14 C20 1_555 1_555
C21 C20 1_555 1_555
C22 C21 1_555 1_555
H15 C22 1_555 1_555
C23 N4 1_555 1_555
H16 C23 1_555 1_555
C24 O8 1_555 1_555
Zn1A O2A_2 1_555 1_555
Zn1B N3 1_555 1_555
Zn1C N3A 1_555 1_555
Zn1A_2 O2A 1_555 1_555
Zn1D O4D 1_555 1_555
Cu1A O7A 1_555 1_555
Cu1A_2 N1 1_555 1_555
Cu1D N2 1_555 1_555
O1A C6A 1_555 1_555
O2A C6A 1_555 1_555
O3D C12D 1_555 1_555
O4D C12D 1_555 1_555
O4A Zn1A 1_555 1_555
O5A C18A 1_555 1_555
O6A Zn2 1_555 1_555
O7A C24A 1_555 1_555
O8A Zn1A 1_555 1_555
N1A Cu1 1_555 1_555
N1_2 Cu1A 1_555 1_555
N2D Cu1 1_555 1_555
N2E Cu1A 1_555 1_555
N3A C13A 1_555 1_555
N3B Zn1 1_555 1_555
N3C Zn1A 1_555 1_555
N4A Zn2 1_555 1_555
C1A N1A 1_555 1_555
H1A C1A 1_555 1_555
C2A C1A 1_555 1_555
H2A C2A 1_555 1_555
C3A C2A 1_555 1_555
C4A C3A 1_555 1_555
H3A C4A 1_555 1_555
C5A N1A 1_555 1_555
H4A C5A 1_555 1_555
C6A C3A 1_555 1_555
C7D N2D 1_555 1_555
H5D C7D 1_555 1_555
C8D C7D 1_555 1_555
H6D C8D 1_555 1_555
C9D C8D 1_555 1_555
C10D C9D 1_555 1_555
H7D C10D 1_555 1_555
C11D N2D 1_555 1_555
H8D C11D 1_555 1_555
C12D C9D 1_555 1_555
C13A H9A 1_555 1_555
C14A C13A 1_555 1_555
H10A C14A 1_555 1_555
C15A C14A 1_555 1_555
C16A C15A 1_555 1_555
H11A C16A 1_555 1_555
C17A N3A 1_555 1_555
H12A C17A 1_555 1_555
C18A O6A 1_555 1_555
C19A N4A 1_555 1_555
H13A C19A 1_555 1_555
C20A C19A 1_555 1_555
H14A C20A 1_555 1_555
C21A C20A 1_555 1_555
C22A C21A 1_555 1_555
H15A C22A 1_555 1_555
C23A N4A 1_555 1_555
H16A C23A 1_555 1_555
C24A O8A 1_555 1_555
C4 C5 1_555 1_555
C9 C12 1_555 1_555
C10 C11 1_555 1_555
C16 C17 1_555 1_555
C21 C24 1_555 1_555
C22 C23 1_555 1_555
C4A C5A 1_555 1_555
C10D C11D 1_555 1_555
C15A C18A 1_555 1_555
C16A C17A 1_555 1_555
C21A C24A 1_555 1_555
C22A C23A 1_555 1_555

#END
