
#######################################################################
#
#                 Cambridge Crystallographic Data Centre
#                                CCDC 
#
#######################################################################
#
# If this CIF has been generated from an entry in the Cambridge 
# Structural Database, then it will include bibliographic, chemical, 
# crystal, experimental, refinement or atomic coordinate data resulting 
# from the CCDC's data processing and validation procedures.
#
#######################################################################

data_DEXTAD
_symmetry_cell_setting           triclinic
_symmetry_space_group_name_H-M   'P -1'
_symmetry_Int_Tables_number      2
_space_group_name_Hall           '-P 1'
loop_
_symmetry_equiv_pos_site_id
_symmetry_equiv_pos_as_xyz
1 x,y,z
2 -x,-y,-z
_cell_length_a                   8.8145(3)
_cell_length_b                   9.5878(3)
_cell_length_c                   11.3029(3)
_cell_angle_alpha                82.786(2)
_cell_angle_beta                 70.994(3)
_cell_angle_gamma                86.460(2)
_cell_volume                     895.782
loop_
_atom_site_label
_atom_site_type_symbol
_atom_site_fract_x
_atom_site_fract_y
_atom_site_fract_z
Cu1 Cu -0.5000 0.0000 0.5000
O1 O 0.3247(2) 0.1491(2) 0.20839(17)
O2 O 0.4830(2) 0.29111(17) -0.25288(16)
O3 O -0.4419(2) -0.0181(2) 0.27728(17)
N1 N 0.0834(2) 0.1529(2) 0.17847(19)
N2 N 0.4550(3) 0.5167(2) -0.2113(2)
N3 N -0.2657(2) 0.07058(19) 0.45585(18)
N4 N 0.5721(2) 0.79721(19) -0.46942(17)
C1 C 0.3213(3) 0.1816(2) -0.0040(2)
H1 H 0.2553 0.1425 -0.0451
H2 H 0.4266 0.1362 -0.0292
C2 C 0.2456(3) 0.1572(2) 0.1370(2)
C3 C 0.3357(3) 0.3397(2) -0.0417(2)
H3 H 0.2289 0.3817 -0.0255
H4 H 0.3866 0.3793 0.0103
C4 C 0.4310(3) 0.3770(2) -0.1781(2)
C5 C -0.0142(3) 0.1431(2) 0.3051(2)
C6 C -0.1616(3) 0.0805(2) 0.3379(2)
H5 H -0.1899 0.0436 0.2759
C7 C -0.2211(3) 0.1201(3) 0.5448(2)
H6 H -0.2905 0.1110 0.6272
C8 C -0.0767(3) 0.1839(3) 0.5189(2)
H7 H -0.0502 0.2177 0.5830
C9 C 0.0288(3) 0.1976(3) 0.3976(2)
H8 H 0.1261 0.2421 0.3783
C10 C 0.5388(3) 0.5823(2) -0.3315(2)
C11 C 0.4979(3) 0.7207(2) -0.3605(2)
H9 H 0.4144 0.7630 -0.3012
C12 C 0.6909(3) 0.7348(2) -0.5554(2)
H10 H 0.7433 0.7864 -0.6317
C13 C 0.7374(3) 0.5971(3) -0.5340(2)
H11 H 0.8195 0.5568 -0.5958
C14 C 0.6623(3) 0.5182(2) -0.4208(2)
H12 H 0.6934 0.4252 -0.4048
H13 H 0.407(3) 0.566(3) -0.162(3)
H14 H -0.443(4) -0.092(4) 0.256(3)
H15 H -0.490(4) 0.032(4) 0.239(3)
H16 H 0.039(4) 0.151(3) 0.127(3)
O1A O -1.3247(2) -0.1491(2) 0.79161(17)
O2A O -1.4830(2) -0.29111(17) 1.25288(16)
O3A O -0.5581(2) 0.0181(2) 0.72272(17)
N1A N -1.0834(2) -0.1529(2) 0.82153(19)
N2A N -1.4550(3) -0.5167(2) 1.2113(2)
N3A N -0.7343(2) -0.07058(19) 0.54415(18)
N4A N -1.5721(2) -0.79721(19) 1.46942(17)
C1A C -1.3213(3) -0.1816(2) 1.0040(2)
H1A H -1.2553 -0.1425 1.0451
H2A H -1.4266 -0.1362 1.0292
C2A C -1.2456(3) -0.1572(2) 0.8630(2)
C3A C -1.3357(3) -0.3397(2) 1.0417(2)
H3A H -1.2289 -0.3817 1.0255
H4A H -1.3866 -0.3793 0.9897
C4A C -1.4310(3) -0.3770(2) 1.1781(2)
C5A C -0.9858(3) -0.1431(2) 0.6949(2)
C6A C -0.8384(3) -0.0805(2) 0.6621(2)
H5A H -0.8101 -0.0436 0.7241
C7A C -0.7789(3) -0.1201(3) 0.4552(2)
H6A H -0.7095 -0.1110 0.3728
C8A C -0.9233(3) -0.1839(3) 0.4811(2)
H7A H -0.9498 -0.2177 0.4170
C9A C -1.0288(3) -0.1976(3) 0.6024(2)
H8A H -1.1261 -0.2421 0.6217
C10A C -1.5388(3) -0.5823(2) 1.3315(2)
C11A C -1.4979(3) -0.7207(2) 1.3605(2)
H9A H -1.4144 -0.7630 1.3012
C12A C -1.6909(3) -0.7348(2) 1.5554(2)
H10A H -1.7433 -0.7864 1.6317
C13A C -1.7374(3) -0.5971(3) 1.5340(2)
H11A H -1.8195 -0.5568 1.5958
C14A C -1.6623(3) -0.5182(2) 1.4208(2)
H12A H -1.6934 -0.4252 1.4048
H13A H -1.407(3) -0.566(3) 1.162(3)
H14A H -0.557(4) 0.092(4) 0.744(3)
H15A H -0.510(4) -0.032(4) 0.761(3)
H16A H -1.039(4) -0.151(3) 0.873(3)
Cu1_2 Cu -1.5000 -1.0000 1.5000
Cu1_3 Cu 0.5000 1.0000 -0.5000
N4_2 N -0.4279(2) -0.20279(19) 0.53058(17)
N4A_2 N -0.5721(2) 0.20279(19) 0.46942(17)
P1 P 0.14664(9) 0.73958(8) 0.08569(7)
F1 F 0.2353(4) 0.8426(3) 0.1387(4)
F2 F 0.1161(6) 0.8668(4) -0.0051(4)
F3 F -0.0175(5) 0.7784(7) 0.1805(5)
F4 F 0.0677(5) 0.6410(4) 0.0235(6)
F5 F 0.1607(9) 0.6181(5) 0.1881(6)
F6 F 0.3130(4) 0.6902(6) 0.0039(5)
F7? F 0.208(3) 0.725(2) -0.064(2)
F8? F 0.276(3) 0.846(3) 0.020(3)
F9? F 0.2473(15) 0.6225(13) 0.1163(13)
F10? F 0.014(2) 0.8406(19) 0.079(2)
F11? F 0.127(3) 0.779(3) 0.204(2)
F12? F 0.024(4) 0.636(4) 0.117(3)
loop_
_geom_bond_atom_site_label_1
_geom_bond_atom_site_label_2
_geom_bond_site_symmetry_1
_geom_bond_site_symmetry_2
Cu1 O3 1_555 1_555
O1 C2 1_555 1_555
O2 C4 1_555 1_555
O3 H14 1_555 1_555
N1 C2 1_555 1_555
N2 C4 1_555 1_555
N3 Cu1 1_555 1_555
N4 C11 1_555 1_555
C1 H1 1_555 1_555
H2 C1 1_555 1_555
C2 C1 1_555 1_555
C3 C1 1_555 1_555
H3 C3 1_555 1_555
H4 C3 1_555 1_555
C4 C3 1_555 1_555
C5 N1 1_555 1_555
C6 N3 1_555 1_555
H5 C6 1_555 1_555
C7 N3 1_555 1_555
H6 C7 1_555 1_555
C8 C7 1_555 1_555
H7 C8 1_555 1_555
C9 C5 1_555 1_555
H8 C9 1_555 1_555
C10 N2 1_555 1_555
C11 C10 1_555 1_555
H9 C11 1_555 1_555
C12 N4 1_555 1_555
H10 C12 1_555 1_555
C13 C12 1_555 1_555
H11 C13 1_555 1_555
C14 C10 1_555 1_555
H12 C14 1_555 1_555
H13 N2 1_555 1_555
H15 O3 1_555 1_555
H16 N1 1_555 1_555
P1 F1 1_555 1_555
F2 P1 1_555 1_555
F3 P1 1_555 1_555
F4 P1 1_555 1_555
F5 P1 1_555 1_555
F6 P1 1_555 1_555
O1A C2A 1_555 1_555
O2A C4A 1_555 1_555
O3A Cu1 1_555 1_555
N1A C2A 1_555 1_555
N2A C4A 1_555 1_555
N3A Cu1 1_555 1_555
N4A C11A 1_555 1_555
C1A H1A 1_555 1_555
H2A C1A 1_555 1_555
C2A C1A 1_555 1_555
C3A C1A 1_555 1_555
H3A C3A 1_555 1_555
H4A C3A 1_555 1_555
C4A C3A 1_555 1_555
C5A N1A 1_555 1_555
C6A N3A 1_555 1_555
H5A C6A 1_555 1_555
C7A N3A 1_555 1_555
H6A C7A 1_555 1_555
C8A C7A 1_555 1_555
H7A C8A 1_555 1_555
C9A C5A 1_555 1_555
H8A C9A 1_555 1_555
C10A N2A 1_555 1_555
C11A C10A 1_555 1_555
H9A C11A 1_555 1_555
C12A N4A 1_555 1_555
H10A C12A 1_555 1_555
C13A C12A 1_555 1_555
H11A C13A 1_555 1_555
C14A C10A 1_555 1_555
H12A C14A 1_555 1_555
H13A N2A 1_555 1_555
H14A O3A 1_555 1_555
H15A O3A 1_555 1_555
H16A N1A 1_555 1_555
Cu1_2 N4A 1_555 1_555
Cu1_3 N4 1_555 1_555
N4_2 Cu1 1_555 1_555
N4A_2 Cu1 1_555 1_555
C5 C6 1_555 1_555
C8 C9 1_555 1_555
C13 C14 1_555 1_555
C5A C6A 1_555 1_555
C8A C9A 1_555 1_555
C13A C14A 1_555 1_555

#END
