
#######################################################################
#
#                 Cambridge Crystallographic Data Centre
#                                CCDC 
#
#######################################################################
#
# If this CIF has been generated from an entry in the Cambridge 
# Structural Database, then it will include bibliographic, chemical, 
# crystal, experimental, refinement or atomic coordinate data resulting 
# from the CCDC's data processing and validation procedures.
#
#######################################################################

data_DEXVIN
_symmetry_cell_setting           triclinic
_symmetry_space_group_name_H-M   'P -1'
_symmetry_Int_Tables_number      2
_space_group_name_Hall           '-P 1'
loop_
_symmetry_equiv_pos_site_id
_symmetry_equiv_pos_as_xyz
1 x,y,z
2 -x,-y,-z
_cell_length_a                   10.870(5)
_cell_length_b                   12.677(5)
_cell_length_c                   14.946(5)
_cell_angle_alpha                105.810(5)
_cell_angle_beta                 107.144(5)
_cell_angle_gamma                93.760(5)
_cell_volume                     1869.59
loop_
_atom_site_label
_atom_site_type_symbol
_atom_site_fract_x
_atom_site_fract_y
_atom_site_fract_z
C1 C 0.2325(7) 0.6760(6) 0.1324(6)
H1 H 0.1959 0.6279 0.1628
H2 H 0.1655 0.7165 0.1038
H3 H 0.3066 0.7291 0.1825
C2 C 0.2781(5) 0.6055(5) 0.0520(5)
C3 C 0.1912(5) 0.5624(5) -0.0452(5)
C4 C 0.2246(5) 0.4951(4) -0.1272(4)
C5 C 0.1253(6) 0.4614(6) -0.2292(5)
H4 H 0.1239 0.5239 -0.2561
H5 H 0.0388 0.4405 -0.2258
H6 H 0.1488 0.3981 -0.2718
O1 O 0.3974(4) 0.5906(3) 0.0796(3)
O2 O 0.3336(4) 0.4636(3) -0.1193(3)
C6 C 0.0583(6) 0.5856(5) -0.0661(5)
N1 N -0.0454(6) 0.6039(6) -0.0834(6)
Co1 Co 0.5000 0.50000 0.00000
N2 N 0.4438(4) 0.3517(4) 0.0411(4)
C7 C 0.3454(5) 0.3479(5) 0.0776(4)
H7 H 0.2875 0.4003 0.071
C8 C 0.3234(6) 0.2712(5) 0.1248(5)
H8 H 0.2518 0.271 0.149
C9 C 0.4096(6) 0.1938(5) 0.1357(5)
H9 H 0.3987 0.1421 0.1693
C10 C 0.5116(5) 0.1943(4) 0.0963(4)
C11 C 0.5249(5) 0.2747(5) 0.0508(4)
H10 H 0.5947 0.2761 0.0248
N3 N 0.5831(4) 0.0473(4) 0.1627(3)
C12 C 0.6026(5) 0.1109(4) 0.1069(4)
C13 C 0.7004(5) 0.0996(5) 0.0637(4)
H11 H 0.7103 0.1442 0.0237
C14 C 0.7852(5) 0.0213(4) 0.0798(4)
C15 C 0.7636(5) -0.0442(4) 0.1381(4)
H12 H 0.8173 -0.0982 0.1505
C16 C 0.6618(5) -0.0284(4) 0.1773(4)
N4 N 0.5667(5) -0.0893(4) 0.3834(3)
C17 C 0.5906(5) -0.0405(5) 0.3199(4)
H13 H 0.5753 0.0339 0.3274
C18 C 0.6370(5) -0.0925(4) 0.2425(4)
C19 C 0.6587(6) -0.2033(5) 0.2313(4)
H14 H 0.6905 -0.2416 0.1807
C20 C 0.6323(6) -0.2557(5) 0.2966(5)
H15 H 0.6446 -0.3306 0.2901
C21 C 0.5878(6) -0.1967(5) 0.3710(4)
H16 H 0.5713 -0.2329 0.4152
C22 C 0.9559(5) 0.1017(4) 0.0221(4)
H17 H 0.9267 0.1713 0.0379
C23 C 0.8943(5) 0.0098(4) 0.0380(4)
C24 C 0.9418(5) -0.0920(4) 0.0160(4)
H18 H 0.9033 -0.1545 0.0274
Co2 Co 0.5000 0.00000 0.50000
O3 O 0.6399(4) -0.0460(3) 0.6028(3)
O4 O 0.6283(4) 0.1387(3) 0.5246(3)
C25 C 0.8152(7) -0.0296(6) 0.7482(5)
H19 H 0.7839 -0.109 0.7319
H20 H 0.9093 -0.0179 0.7599
H21 H 0.7971 0.0113 0.8076
C26 C 0.7451(6) 0.0122(5) 0.6627(5)
C27 C 0.7979(6) 0.1175(5) 0.6593(4)
C28 C 0.7373(5) 0.1758(5) 0.5906(4)
C29 C 0.8049(6) 0.2897(5) 0.6015(5)
H22 H 0.757 0.3154 0.5469
H23 H 0.8942 0.285 0.6008
H24 H 0.807 0.3423 0.6639
C30 C 0.9240(5) 0.1709(5) 0.7323(4)
N5 N 1.0235(5) 0.2137(5) 0.7896(5)
N2A N 1.5562(4) -0.3517(4) -0.0411(4)
C7A C 1.6546(5) -0.3479(5) -0.0776(4)
H7A H 1.7125 -0.4003 -0.071
C8A C 1.6766(6) -0.2712(5) -0.1248(5)
H8A H 1.7482 -0.271 -0.149
C9A C 1.5904(6) -0.1938(5) -0.1357(5)
H9A H 1.6013 -0.1421 -0.1693
C10A C 1.4884(5) -0.1943(4) -0.0963(4)
C11A C 1.4751(5) -0.2747(5) -0.0508(4)
H10A H 1.4053 -0.2761 -0.0248
N3A N 1.4169(4) -0.0473(4) -0.1627(3)
C12A C 1.3974(5) -0.1109(4) -0.1069(4)
C13A C 1.2996(5) -0.0996(5) -0.0637(4)
H11A H 1.2897 -0.1442 -0.0237
C14A C 1.2148(5) -0.0213(4) -0.0798(4)
C15A C 1.2364(5) 0.0442(4) -0.1381(4)
H12A H 1.1827 0.0982 -0.1505
C16A C 1.3382(5) 0.0284(4) -0.1773(4)
N4A N 1.4333(5) 0.0893(4) -0.3834(3)
C17A C 1.4094(5) 0.0405(5) -0.3199(4)
H13A H 1.4247 -0.0339 -0.3274
C18A C 1.3630(5) 0.0925(4) -0.2425(4)
C19A C 1.3413(6) 0.2033(5) -0.2313(4)
H14A H 1.3095 0.2416 -0.1807
C20A C 1.3677(6) 0.2557(5) -0.2966(5)
H15A H 1.3554 0.3306 -0.2901
C21A C 1.4122(6) 0.1967(5) -0.3710(4)
H16A H 1.4287 0.2329 -0.4152
C22A C 1.0441(5) -0.1017(4) -0.0221(4)
H17A H 1.0733 -0.1713 -0.0379
C23A C 1.1057(5) -0.0098(4) -0.0380(4)
C24A C 1.0582(5) 0.0920(4) -0.0160(4)
H18A H 1.0967 0.1545 -0.0274
O3A O 0.3601(4) 0.0460(3) 0.3972(3)
O4A O 0.3717(4) -0.1387(3) 0.4754(3)
C25A C 0.1848(7) 0.0296(6) 0.2518(5)
H19A H 0.2161 0.109 0.2681
H20A H 0.0907 0.0179 0.2401
H21A H 0.2029 -0.0113 0.1924
C26A C 0.2549(6) -0.0122(5) 0.3373(5)
C27A C 0.2021(6) -0.1175(5) 0.3407(4)
C28A C 0.2627(5) -0.1758(5) 0.4094(4)
C29A C 0.1951(6) -0.2897(5) 0.3985(5)
H22A H 0.243 -0.3154 0.4531
H23A H 0.1058 -0.285 0.3992
H24A H 0.193 -0.3423 0.3361
C30A C 0.0760(5) -0.1709(5) 0.2677(4)
N5A N -0.0235(5) -0.2137(5) 0.2104(5)
C1A C 0.7675(7) 0.3240(6) -0.1324(6)
H1A H 0.8041 0.3721 -0.1628
H2A H 0.8345 0.2835 -0.1038
H3A H 0.6934 0.2709 -0.1825
C2A C 0.7219(5) 0.3945(5) -0.0520(5)
C3A C 0.8088(5) 0.4376(5) 0.0452(5)
C4A C 0.7754(5) 0.5049(4) 0.1272(4)
C5A C 0.8747(6) 0.5386(6) 0.2292(5)
H4A H 0.8761 0.4761 0.2561
H5A H 0.9612 0.5595 0.2258
H6A H 0.8512 0.6019 0.2718
O1A O 0.6026(4) 0.4094(3) -0.0796(3)
O2A O 0.6664(4) 0.5364(3) 0.1193(3)
C6A C 0.9417(6) 0.4144(5) 0.0661(5)
N1A N 1.0454(6) 0.3961(6) 0.0834(6)
Co1_2 Co 1.5000 -0.50000 0.00000
N2A_2 N 0.5562(4) 0.6483(4) -0.0411(4)
N4A_2 N 0.4333(5) 0.0893(4) 0.6166(3)
Co2_2 Co 1.5000 0.00000 -0.50000
C31 C -0.0373(12) 0.2021(10) 0.3550(9)
H25 H -0.048 0.1504 0.2884
C32 C 0.0904(13) 0.2728(10) 0.3937(9)
H26 H 0.1599 0.225 0.4025
Cl1 Cl -0.0255(6) 0.1200(3) 0.4445(5)
Cl2 Cl -0.1719(3) 0.2727(3) 0.3484(2)
Cl3 Cl 0.1193(3) 0.3790(3) 0.5056(2)
Cl4 Cl 0.0924(3) 0.3299(3) 0.2931(2)
Cl5 Cl 0.4563(2) 0.32195(16) 0.42613(16)
C33 C 0.4495(9) 0.4686(6) 0.4529(6)
H27 H 0.362 0.4813 0.4587
Cl6 Cl 0.4684(3) 0.5134(2) 0.35385(17)
Cl5A Cl 0.5437(2) 0.67805(16) 0.57387(16)
C33A C 0.5505(9) 0.5314(6) 0.5471(6)
H27A H 0.638 0.5187 0.5413
Cl6A Cl 0.5316(3) 0.4866(2) 0.64615(17)
loop_
_geom_bond_atom_site_label_1
_geom_bond_atom_site_label_2
_geom_bond_site_symmetry_1
_geom_bond_site_symmetry_2
C1 H1 1_555 1_555
H2 C1 1_555 1_555
H3 C1 1_555 1_555
C2 C1 1_555 1_555
C3 C2 1_555 1_555
C4 C3 1_555 1_555
C5 C4 1_555 1_555
H4 C5 1_555 1_555
H5 C5 1_555 1_555
H6 C5 1_555 1_555
O1 C2 1_555 1_555
O2 C4 1_555 1_555
C6 C3 1_555 1_555
N1 C6 1_555 1_555
Co1 O1 1_555 1_555
N2 Co1 1_555 1_555
C7 N2 1_555 1_555
H7 C7 1_555 1_555
C8 C7 1_555 1_555
H8 C8 1_555 1_555
C9 C8 1_555 1_555
H9 C9 1_555 1_555
C10 C9 1_555 1_555
C11 N2 1_555 1_555
H10 C11 1_555 1_555
N3 C12 1_555 1_555
C12 C10 1_555 1_555
C13 C12 1_555 1_555
H11 C13 1_555 1_555
C14 C13 1_555 1_555
C15 C14 1_555 1_555
H12 C15 1_555 1_555
C16 N3 1_555 1_555
N4 C17 1_555 1_555
C17 H13 1_555 1_555
C18 C16 1_555 1_555
C19 C18 1_555 1_555
H14 C19 1_555 1_555
C20 C19 1_555 1_555
H15 C20 1_555 1_555
C21 N4 1_555 1_555
H16 C21 1_555 1_555
C22 H17 1_555 1_555
C23 C14 1_555 1_555
C24 C23 1_555 1_555
H18 C24 1_555 1_555
Co2 N4 1_555 1_555
O3 Co2 1_555 1_555
O4 Co2 1_555 1_555
C25 H19 1_555 1_555
H20 C25 1_555 1_555
H21 C25 1_555 1_555
C26 O3 1_555 1_555
C27 C26 1_555 1_555
C28 O4 1_555 1_555
C29 C28 1_555 1_555
H22 C29 1_555 1_555
H23 C29 1_555 1_555
H24 C29 1_555 1_555
C30 C27 1_555 1_555
N5 C30 1_555 1_555
C31 H25 1_555 1_555
C32 C31 1_555 1_555
H26 C32 1_555 1_555
Cl1 C31 1_555 1_555
Cl2 C31 1_555 1_555
Cl3 C32 1_555 1_555
Cl4 C32 1_555 1_555
Cl5 C33 1_555 1_555
C33 H27 1_555 1_555
Cl6 C33 1_555 1_555
N2A C7A 1_555 1_555
C7A H7A 1_555 1_555
C8A C7A 1_555 1_555
H8A C8A 1_555 1_555
C9A C8A 1_555 1_555
H9A C9A 1_555 1_555
C10A C9A 1_555 1_555
C11A N2A 1_555 1_555
H10A C11A 1_555 1_555
N3A C12A 1_555 1_555
C12A C10A 1_555 1_555
C13A C12A 1_555 1_555
H11A C13A 1_555 1_555
C14A C13A 1_555 1_555
C15A C14A 1_555 1_555
H12A C15A 1_555 1_555
C16A N3A 1_555 1_555
N4A C17A 1_555 1_555
C17A H13A 1_555 1_555
C18A C16A 1_555 1_555
C19A C18A 1_555 1_555
H14A C19A 1_555 1_555
C20A C19A 1_555 1_555
H15A C20A 1_555 1_555
C21A N4A 1_555 1_555
H16A C21A 1_555 1_555
C22A C24 1_555 1_555
H17A C22A 1_555 1_555
C23A C14A 1_555 1_555
C24A C22 1_555 1_555
H18A C24A 1_555 1_555
O3A Co2 1_555 1_555
O4A Co2 1_555 1_555
C25A H19A 1_555 1_555
H20A C25A 1_555 1_555
H21A C25A 1_555 1_555
C26A O3A 1_555 1_555
C27A C26A 1_555 1_555
C28A O4A 1_555 1_555
C29A C28A 1_555 1_555
H22A C29A 1_555 1_555
H23A C29A 1_555 1_555
H24A C29A 1_555 1_555
C30A C27A 1_555 1_555
N5A C30A 1_555 1_555
C1A H1A 1_555 1_555
H2A C1A 1_555 1_555
H3A C1A 1_555 1_555
C2A C1A 1_555 1_555
C3A C2A 1_555 1_555
C4A C3A 1_555 1_555
C5A C4A 1_555 1_555
H4A C5A 1_555 1_555
H5A C5A 1_555 1_555
H6A C5A 1_555 1_555
O1A Co1 1_555 1_555
O2A Co1 1_555 1_555
C6A C3A 1_555 1_555
N1A C6A 1_555 1_555
Co1_2 N2A 1_555 1_555
N2A_2 Co1 1_555 1_555
N4A_2 Co2 1_555 1_555
Co2_2 N4A 1_555 1_555
Cl5A C33A 1_555 1_555
C33A C33 1_555 1_555
H27A C33A 1_555 1_555
Cl6A C33A 1_555 1_555
O2 Co1 1_555 1_555
C10 C11 1_555 1_555
C15 C16 1_555 1_555
C17 C18 1_555 1_555
C20 C21 1_555 1_555
C22 C23 1_555 1_555
C25 C26 1_555 1_555
C27 C28 1_555 1_555
C10A C11A 1_555 1_555
C15A C16A 1_555 1_555
C17A C18A 1_555 1_555
C20A C21A 1_555 1_555
C22A C23A 1_555 1_555
C23A C24A 1_555 1_555
C25A C26A 1_555 1_555
C27A C28A 1_555 1_555
C2A O1A 1_555 1_555
C4A O2A 1_555 1_555

#END
