
#######################################################################
#
#                 Cambridge Crystallographic Data Centre
#                                CCDC 
#
#######################################################################
#
# If this CIF has been generated from an entry in the Cambridge 
# Structural Database, then it will include bibliographic, chemical, 
# crystal, experimental, refinement or atomic coordinate data resulting 
# from the CCDC's data processing and validation procedures.
#
#######################################################################

data_DEXVEJ
_symmetry_cell_setting           triclinic
_symmetry_space_group_name_H-M   'P -1'
_symmetry_Int_Tables_number      2
_space_group_name_Hall           '-P 1'
loop_
_symmetry_equiv_pos_site_id
_symmetry_equiv_pos_as_xyz
1 x,y,z
2 -x,-y,-z
_cell_length_a                   11.5807(4)
_cell_length_b                   11.7297(4)
_cell_length_c                   12.7257(5)
_cell_angle_alpha                67.6410(10)
_cell_angle_beta                 68.6070(10)
_cell_angle_gamma                73.6640(10)
_cell_volume                     1468
loop_
_atom_site_label
_atom_site_type_symbol
_atom_site_fract_x
_atom_site_fract_y
_atom_site_fract_z
C1 C 1.0608(4) 0.1857(4) 0.2242(4)
H1 H 1.1467 0.1546 0.1923
C2 C 1.0279(4) 0.2597(4) 0.2971(4)
H2 H 1.091 0.2781 0.3164
C3 C 0.9020(3) 0.3066(3) 0.3419(3)
H3 H 0.88 0.3589 0.39
C4 C 0.8078(3) 0.2780(3) 0.3172(3)
C5 C 0.8424(3) 0.2020(3) 0.2451(3)
H4 H 0.7795 0.1803 0.2281
C6 C 0.9690(4) 0.1577(4) 0.1981(4)
H5 H 0.9919 0.1077 0.1475
C7 C 0.6743(3) 0.3295(3) 0.3689(3)
C8 C 0.5805(3) 0.2588(3) 0.4013(3)
H6 H 0.6065 0.1793 0.3891
C9 C 0.4513(3) 0.2950(3) 0.4503(3)
C10 C 0.3609(3) 0.2131(3) 0.4725(3)
C11 C 0.2449(3) 0.2216(3) 0.5577(3)
H7 H 0.2245 0.2787 0.6008
C12 C 0.1583(4) 0.1474(4) 0.5804(4)
H8 H 0.08 0.1529 0.6398
C13 C 0.1861(4) 0.0658(4) 0.5166(4)
H9 H 0.1269 0.0155 0.5316
C14 C 0.3004(4) 0.0576(4) 0.4311(4)
H10 H 0.3196 0.0017 0.3869
C15 C 0.3871(4) 0.1303(4) 0.4093(3)
H11 H 0.4656 0.1236 0.3504
O1 O 0.6564(2) 0.4381(2) 0.3792(2)
O2 O 0.4024(2) 0.3931(2) 0.4810(2)
Co1 Co 0.5000 0.5000 0.5000
N1 N 0.5655(3) 0.3405(2) 0.6341(2)
C16 C 0.6830(3) 0.3243(3) 0.6382(3)
H12 H 0.7303 0.3902 0.5915
C17 C 0.7388(3) 0.2153(3) 0.7077(3)
H13 H 0.8229 0.2067 0.7077
C18 C 0.6699(3) 0.1197(3) 0.7770(3)
H14 H 0.7065 0.0439 0.8246
C19 C 0.5464(3) 0.1356(3) 0.7765(3)
C20 C 0.4991(3) 0.2474(3) 0.7030(3)
H15 H 0.4152 0.2587 0.7015
C21 C 0.4707(3) 0.0333(3) 0.8468(3)
N2 N 0.5364(3) -0.0822(3) 0.8772(2)
C22 C 0.4709(3) -0.1774(3) 0.9403(3)
C23 C 0.3400(3) -0.1607(3) 0.9716(3)
H16 H 0.2976 -0.2306 1.0147
C24 C 0.2722(3) -0.0410(3) 0.9392(3)
C25 C 0.3397(3) 0.0581(3) 0.8772(3)
H17 H 0.2968 0.1416 0.8559
C26 C 0.5452(3) -0.3036(3) 0.9745(3)
C27 C 0.6575(3) -0.3386(3) 0.8968(3)
H18 H 0.6853 -0.2794 0.8213
N3 N 0.7298(3) -0.4517(3) 0.9218(3)
C28 C 0.6899(4) -0.5315(3) 1.0296(4)
H19 H 0.7414 -0.6106 1.0501
C29 C 0.5802(4) -0.5072(3) 1.1123(3)
H20 H 0.5563 -0.5682 1.1876
C30 C 0.5036(4) -0.3915(3) 1.0849(3)
H21 H 0.4251 -0.3728 1.1397
C31 C 0.1325(3) -0.0198(3) 0.9704(3)
C32 C 0.0630(3) -0.1084(3) 1.0632(3)
H22 H 0.1054 -0.1829 1.107
C33 C -0.0670(3) -0.0883(3) 1.0918(3)
H23 H -0.1124 -0.1494 1.155
N1A N -0.5655(3) -0.3405(2) 1.3659(2)
C16A C -0.6830(3) -0.3243(3) 1.3618(3)
H12A H -0.7303 -0.3902 1.4085
C17A C -0.7388(3) -0.2153(3) 1.2923(3)
H13A H -0.8229 -0.2067 1.2923
C18A C -0.6699(3) -0.1197(3) 1.2230(3)
H14A H -0.7065 -0.0439 1.1754
C19A C -0.5464(3) -0.1356(3) 1.2235(3)
C20A C -0.4991(3) -0.2474(3) 1.2970(3)
H15A H -0.4152 -0.2587 1.2985
C21A C -0.4707(3) -0.0333(3) 1.1532(3)
N2A N -0.5364(3) 0.0822(3) 1.1228(2)
C22A C -0.4709(3) 0.1774(3) 1.0597(3)
C23A C -0.3400(3) 0.1607(3) 1.0284(3)
H16A H -0.2976 0.2306 0.9853
C24A C -0.2722(3) 0.0410(3) 1.0608(3)
C25A C -0.3397(3) -0.0581(3) 1.1228(3)
H17A H -0.2968 -0.1416 1.1441
C26A C -0.5452(3) 0.3036(3) 1.0255(3)
C27A C -0.6575(3) 0.3386(3) 1.1032(3)
H18A H -0.6853 0.2794 1.1787
N3A N -0.7298(3) 0.4517(3) 1.0782(3)
C28A C -0.6899(4) 0.5315(3) 0.9704(4)
H19A H -0.7414 0.6106 0.9499
C29A C -0.5802(4) 0.5072(3) 0.8877(3)
H20A H -0.5563 0.5682 0.8124
C30A C -0.5036(4) 0.3915(3) 0.9151(3)
H21A H -0.4251 0.3728 0.8603
C31A C -0.1325(3) 0.0198(3) 1.0296(3)
C32A C -0.0630(3) 0.1084(3) 0.9368(3)
H22A H -0.1054 0.1829 0.893
C33A C 0.0670(3) 0.0883(3) 0.9082(3)
H23A H 0.1124 0.1494 0.845
C1A C -0.0608(4) 0.8143(4) 0.7758(4)
H1A H -0.1467 0.8454 0.8077
C2A C -0.0279(4) 0.7403(4) 0.7029(4)
H2A H -0.091 0.7219 0.6836
C3A C 0.0980(3) 0.6934(3) 0.6581(3)
H3A H 0.12 0.6411 0.61
C4A C 0.1922(3) 0.7220(3) 0.6828(3)
C5A C 0.1576(3) 0.7980(3) 0.7549(3)
H4A H 0.2205 0.8197 0.7719
C6A C 0.0310(4) 0.8423(4) 0.8019(4)
H5A H 0.0081 0.8923 0.8525
C7A C 0.3257(3) 0.6705(3) 0.6311(3)
C8A C 0.4195(3) 0.7412(3) 0.5987(3)
H6A H 0.3935 0.8207 0.6109
C9A C 0.5487(3) 0.7050(3) 0.5497(3)
C10A C 0.6391(3) 0.7869(3) 0.5275(3)
C11A C 0.7551(3) 0.7784(3) 0.4423(3)
H7A H 0.7755 0.7213 0.3992
C12A C 0.8417(4) 0.8526(4) 0.4196(4)
H8A H 0.92 0.8471 0.3602
C13A C 0.8139(4) 0.9342(4) 0.4834(4)
H9A H 0.8731 0.9845 0.4684
C14A C 0.6996(4) 0.9424(4) 0.5689(4)
H10A H 0.6804 0.9983 0.6131
C15A C 0.6129(4) 0.8697(4) 0.5907(3)
H11A H 0.5344 0.8764 0.6496
O1A O 0.3436(2) 0.5619(2) 0.6208(2)
O2A O 0.5976(2) 0.6069(2) 0.5190(2)
Co1_2 Co -0.5000 -0.5000 1.5000
N1A_2 N 0.4345(3) 0.6595(2) 0.3659(2)
O3 O 0.1916(3) 0.3714(3) 0.7754(3)
H24 H 0.2179 0.4368 0.7251
C34 C 0.1185(6) 0.3957(5) 0.8821(4)
H25 H 0.1737 0.3908 0.9271
H26 H 0.0624 0.3337 0.9291
H27 H 0.0684 0.4795 0.8649
C35 C -0.0759(5) 0.4527(5) 0.6564(5)
H28 H -0.1172 0.5362 0.6193
H29 H -0.0589 0.3991 0.6075
H30 H 0.0035 0.4589 0.6634
O4 O -0.1545(4) 0.4010(3) 0.7694(3)
H31 H -0.1699 0.4475 0.811
loop_
_geom_bond_atom_site_label_1
_geom_bond_atom_site_label_2
_geom_bond_site_symmetry_1
_geom_bond_site_symmetry_2
C1 H1 1_555 1_555
C2 C1 1_555 1_555
H2 C2 1_555 1_555
C3 C2 1_555 1_555
H3 C3 1_555 1_555
C4 C3 1_555 1_555
C5 C4 1_555 1_555
H4 C5 1_555 1_555
C6 C1 1_555 1_555
H5 C6 1_555 1_555
C7 C4 1_555 1_555
C8 C7 1_555 1_555
H6 C8 1_555 1_555
C9 C8 1_555 1_555
C10 C9 1_555 1_555
C11 C10 1_555 1_555
H7 C11 1_555 1_555
C12 C11 1_555 1_555
H8 C12 1_555 1_555
C13 C12 1_555 1_555
H9 C13 1_555 1_555
C14 C13 1_555 1_555
H10 C14 1_555 1_555
C15 C10 1_555 1_555
H11 C15 1_555 1_555
O1 C7 1_555 1_555
O2 C9 1_555 1_555
Co1 O1 1_555 1_555
N1 Co1 1_555 1_555
C16 N1 1_555 1_555
H12 C16 1_555 1_555
C17 C16 1_555 1_555
H13 C17 1_555 1_555
C18 C17 1_555 1_555
H14 C18 1_555 1_555
C19 C18 1_555 1_555
C20 N1 1_555 1_555
H15 C20 1_555 1_555
C21 C19 1_555 1_555
N2 C21 1_555 1_555
C22 N2 1_555 1_555
C23 C22 1_555 1_555
H16 C23 1_555 1_555
C24 C23 1_555 1_555
C25 C21 1_555 1_555
H17 C25 1_555 1_555
C26 C22 1_555 1_555
C27 C26 1_555 1_555
H18 C27 1_555 1_555
N3 C27 1_555 1_555
C28 N3 1_555 1_555
H19 C28 1_555 1_555
C29 C28 1_555 1_555
H20 C29 1_555 1_555
C30 C26 1_555 1_555
H21 C30 1_555 1_555
C31 C24 1_555 1_555
C32 C31 1_555 1_555
H22 C32 1_555 1_555
C33 C32 1_555 1_555
H23 C33 1_555 1_555
O3 H24 1_555 1_555
C34 O3 1_555 1_555
H25 C34 1_555 1_555
H26 C34 1_555 1_555
H27 C34 1_555 1_555
C35 H28 1_555 1_555
H29 C35 1_555 1_555
H30 C35 1_555 1_555
O4 C35 1_555 1_555
H31 O4 1_555 1_555
N1A C16A 1_555 1_555
C16A H12A 1_555 1_555
C17A C16A 1_555 1_555
H13A C17A 1_555 1_555
C18A C17A 1_555 1_555
H14A C18A 1_555 1_555
C19A C18A 1_555 1_555
C20A N1A 1_555 1_555
H15A C20A 1_555 1_555
C21A C19A 1_555 1_555
N2A C21A 1_555 1_555
C22A N2A 1_555 1_555
C23A C22A 1_555 1_555
H16A C23A 1_555 1_555
C24A C23A 1_555 1_555
C25A C21A 1_555 1_555
H17A C25A 1_555 1_555
C26A C22A 1_555 1_555
C27A C26A 1_555 1_555
H18A C27A 1_555 1_555
N3A C27A 1_555 1_555
C28A N3A 1_555 1_555
H19A C28A 1_555 1_555
C29A C28A 1_555 1_555
H20A C29A 1_555 1_555
C30A C26A 1_555 1_555
H21A C30A 1_555 1_555
C31A C33 1_555 1_555
C32A C31A 1_555 1_555
H22A C32A 1_555 1_555
C33A C31 1_555 1_555
H23A C33A 1_555 1_555
C1A H1A 1_555 1_555
C2A C1A 1_555 1_555
H2A C2A 1_555 1_555
C3A C2A 1_555 1_555
H3A C3A 1_555 1_555
C4A C3A 1_555 1_555
C5A C4A 1_555 1_555
H4A C5A 1_555 1_555
C6A C1A 1_555 1_555
H5A C6A 1_555 1_555
C7A C4A 1_555 1_555
C8A C7A 1_555 1_555
H6A C8A 1_555 1_555
C9A C8A 1_555 1_555
C10A C9A 1_555 1_555
C11A C10A 1_555 1_555
H7A C11A 1_555 1_555
C12A C11A 1_555 1_555
H8A C12A 1_555 1_555
C13A C12A 1_555 1_555
H9A C13A 1_555 1_555
C14A C13A 1_555 1_555
H10A C14A 1_555 1_555
C15A C10A 1_555 1_555
H11A C15A 1_555 1_555
O1A Co1 1_555 1_555
O2A Co1 1_555 1_555
Co1_2 N1A 1_555 1_555
N1A_2 Co1 1_555 1_555
C5 C6 1_555 1_555
C14 C15 1_555 1_555
O2 Co1 1_555 1_555
C19 C20 1_555 1_555
C24 C25 1_555 1_555
C29 C30 1_555 1_555
C19A C20A 1_555 1_555
C24A C25A 1_555 1_555
C24A C31A 1_555 1_555
C29A C30A 1_555 1_555
C32A C33A 1_555 1_555
C5A C6A 1_555 1_555
C7A O1A 1_555 1_555
C9A O2A 1_555 1_555
C14A C15A 1_555 1_555

#END
