
#######################################################################
#
#                 Cambridge Crystallographic Data Centre
#                                CCDC 
#
#######################################################################
#
# If this CIF has been generated from an entry in the Cambridge 
# Structural Database, then it will include bibliographic, chemical, 
# crystal, experimental, refinement or atomic coordinate data resulting 
# from the CCDC's data processing and validation procedures.
#
#######################################################################

data_DEXVOT
_symmetry_cell_setting           monoclinic
_symmetry_space_group_name_H-M   'P 21/c'
_symmetry_Int_Tables_number      14
_space_group_name_Hall           '-P 2ybc'
loop_
_symmetry_equiv_pos_site_id
_symmetry_equiv_pos_as_xyz
1 x,y,z
2 -x,1/2+y,1/2-z
3 -x,-y,-z
4 x,1/2-y,1/2+z
_cell_length_a                   15.1718(3)
_cell_length_b                   14.8239(3)
_cell_length_c                   42.5645(7)
_cell_angle_alpha                90
_cell_angle_beta                 139.3290(10)
_cell_angle_gamma                90
_cell_volume                     6238.85
loop_
_atom_site_label
_atom_site_type_symbol
_atom_site_fract_x
_atom_site_fract_y
_atom_site_fract_z
Co1 Co 0.02310(6) 0.50234(3) 0.41256(2)
O1 O -0.0685(3) 0.49841(18) 0.43039(12)
O2 O -0.1564(3) 0.4687(2) 0.34436(13)
C1 C -0.2243(8) 0.4770(5) 0.4289(3)
H1 H -0.2069 0.4172 0.4425
H2 H -0.3202 0.492 0.4055
H3 H -0.169 0.5219 0.4548
C2 C -0.1886(6) 0.4768(3) 0.4043(2)
C3 C -0.2873(5) 0.4520(4) 0.3551(2)
C4 C -0.2650(6) 0.4506(4) 0.3283(2)
C5 C -0.3845(7) 0.4300(6) 0.2751(3)
H4 H -0.4592 0.4709 0.26
H5 H -0.4135 0.3675 0.2706
H6 H -0.3585 0.4382 0.2601
C6 C -0.4193(7) 0.4281(5) 0.3302(3)
N1 N -0.5193(6) 0.4087(5) 0.3133(3)
O3 O 0.2004(3) 0.54151(19) 0.48118(11)
O4 O 0.1228(3) 0.50610(17) 0.39782(11)
C7 C 0.4094(5) 0.6117(3) 0.54659(18)
H7 H 0.3701 0.6224 0.5568
H8 H 0.4435 0.6688 0.5473
H9 H 0.4841 0.5685 0.5686
C8 C 0.3029(5) 0.5742(2) 0.49623(16)
C9 C 0.3271(4) 0.5751(2) 0.46970(16)
C10 C 0.2399(4) 0.5348(2) 0.42342(16)
C11 C 0.2877(5) 0.5209(3) 0.40310(18)
H10 H 0.2906 0.4562 0.3992
H11 H 0.3783 0.5467 0.4252
H12 H 0.2252 0.5508 0.3717
C12 C 0.4485(5) 0.6141(3) 0.49162(19)
N2 N 0.5467(5) 0.6474(3) 0.50954(18)
Co2 Co -0.17468(6) 1.24537(3) 0.19678(2)
O5 O -0.3545(3) 1.18745(17) 0.13702(10)
O6 O -0.2806(3) 1.35204(17) 0.18655(10)
C13 C -0.5860(5) 1.1546(3) 0.06997(19)
H13 H -0.6018 1.1685 0.0435
H14 H -0.668 1.1679 0.0599
H15 H -0.5634 1.0905 0.0783
C14 C -0.4720(4) 1.2105(2) 0.11279(15)
C15 C -0.5008(4) 1.2890(2) 0.12389(16)
C16 C -0.4041(5) 1.3550(3) 0.15941(16)
C17 C -0.4538(5) 1.4354(3) 0.1642(2)
H16 H -0.3762 1.4693 0.1933
H17 H -0.5102 1.415 0.1665
H18 H -0.5072 1.4744 0.1359
C18 C -0.6380(5) 1.3034(3) 0.09572(16)
N3 N -0.7464(4) 1.3170(3) 0.07356(15)
O7 O -0.0801(3) 1.13172(19) 0.20564(11)
O8 O 0.0143(3) 1.2956(2) 0.25562(11)
C19 C 0.0758(5) 1.0353(4) 0.2226(2)
H19 H 0.1739 1.0276 0.2509
H20 H 0.0493 1.0331 0.1933
H21 H 0.0301 0.9868 0.2217
C20 C 0.0358(5) 1.1250(3) 0.22552(17)
C21 C 0.1298(5) 1.1963(4) 0.25137(18)
C22 C 0.1183(5) 1.2755(3) 0.26777(17)
C23 C 0.2375(6) 1.3400(4) 0.3031(2)
H22 H 0.2077 1.3954 0.3055
H23 H 0.2726 1.3546 0.2917
H24 H 0.3089 1.3114 0.3349
C24 C 0.2481(6) 1.1842(5) 0.2640(2)
N4 N 0.3393(5) 1.1766(5) 0.2719(2)
N5 N -0.0310(4) 0.6440(2) 0.39494(14)
C25 C -0.0261(5) 0.6921(3) 0.42279(17)
H25 H 0.0069 0.6635 0.4502
C26 C -0.0661(4) 0.7808(2) 0.41396(16)
H26 H -0.0611 0.812 0.4348
C27 C -0.1142(4) 0.8245(2) 0.37420(16)
C28 C -0.1200(5) 0.7756(2) 0.34507(17)
H27 H -0.1519 0.8023 0.3176
C29 C -0.0776(5) 0.6855(2) 0.35718(17)
H28 H -0.0827 0.652 0.3368
N6 N -0.1605(3) 0.96506(19) 0.33530(12)
C30 C -0.1558(4) 0.9212(2) 0.36430(15)
C31 C -0.1836(4) 0.9633(2) 0.38512(15)
H29 H -0.1823 0.9295 0.4044
C32 C -0.2136(4) 1.0551(2) 0.37773(14)
C33 C -0.2146(4) 1.1004(2) 0.34886(14)
H30 H -0.2336 1.1632 0.343
C34 C -0.1877(4) 1.0539(2) 0.32868(14)
N7 N -0.1813(3) 1.1841(2) 0.24039(13)
C35 C -0.2100(5) 1.0966(3) 0.23589(16)
H31 H -0.2299 1.0627 0.2121
C36 C -0.2124(4) 1.0524(2) 0.26383(15)
H32 H -0.2306 0.9895 0.2598
C37 C -0.1882(4) 1.1002(2) 0.29755(14)
C38 C -0.1630(5) 1.1921(3) 0.30122(16)
H33 H -0.1486 1.2281 0.3233
C39 C -0.1590(5) 1.2306(3) 0.27308(17)
H34 H -0.1395 1.2932 0.2768
C40 C -0.2480(4) 1.1002(2) 0.39862(15)
C41 C -0.2058(4) 1.0642(2) 0.43863(14)
H35 H -0.1477 1.0132 0.4542
C42 C -0.2457(4) 1.1003(2) 0.45656(15)
C43 C -0.3320(5) 1.1752(3) 0.43268(18)
H36 H -0.3633 1.2003 0.4434
C44 C -0.3718(6) 1.2129(3) 0.39396(19)
H37 H -0.4285 1.2646 0.3788
C45 C -0.3306(5) 1.1765(3) 0.37668(17)
H38 H -0.3585 1.2035 0.35
N8 N -0.1531(3) 0.96831(19) 0.56853(12)
C46 C -0.1814(4) 1.0571(2) 0.56001(14)
C47 C -0.2080(4) 1.1024(2) 0.52511(14)
H39 H -0.226 1.1653 0.5206
C48 C -0.2085(4) 1.0557(2) 0.49640(14)
C49 C -0.1793(4) 0.9645(2) 0.50577(15)
H40 H -0.1782 0.9296 0.4873
C50 C -0.1517(4) 0.9240(2) 0.54167(14)
N9 N -0.1712(3) 1.1903(2) 0.65220(12)
C51 C -0.1124(4) 1.1098(3) 0.66352(16)
H41 H -0.0679 1.0818 0.6928
C52 C -0.1136(4) 1.0661(3) 0.63481(15)
H42 H -0.0699 1.0094 0.6445
C53 C -0.1777(4) 1.1041(2) 0.59190(14)
C54 C -0.2391(5) 1.1874(2) 0.58020(16)
H43 H -0.2849 1.2168 0.5511
C55 C -0.2333(5) 1.2272(3) 0.61096(17)
H44 H -0.276 1.2841 0.6022
N10 N -0.0709(4) 0.6400(2) 0.57020(13)
C56 C -0.0492(5) 0.6854(3) 0.54943(17)
H45 H -0.0157 0.6531 0.5408
C57 C -0.0726(5) 0.7766(2) 0.53973(17)
H46 H -0.0553 0.8057 0.5249
C58 C -0.1220(4) 0.8257(2) 0.55193(14)
C59 C -0.1424(5) 0.7789(2) 0.57377(19)
H47 H -0.1737 0.8096 0.5835
C60 C -0.1176(5) 0.6872(3) 0.58174(19)
H48 H -0.1348 0.6565 0.5962
Co1B Co -0.02310(6) 0.49766(3) 0.58744(2)
Co2C Co -0.17468(6) 1.25463(3) 0.69678(2)
N9C N -0.1712(3) 1.3097(2) 0.15220(12)
N10B N 0.0709(4) 0.3600(2) 0.42980(13)
C61 C 0.5546(8) 0.6876(7) 0.2875(3)
H49 H 0.6213 0.6389 0.3037
H50 H 0.4815 0.6687 0.2818
H51 H 0.5984 0.7416 0.3078
O9 O 0.5011(6) 0.7069(6) 0.2432(2)
H52 H 0.5644 0.7113 0.2473
C62 C 0.341 0.4259 0.9089
H53 H 0.2774 0.4509 0.9078
Cl1 Cl 0.2597(10) 0.3861(6) 0.8570(3)
Cl2 Cl 0.4424(5) 0.5037(3) 0.9231(3)
Cl3 Cl 0.4218(5) 0.3378(4) 0.9444(2)
loop_
_geom_bond_atom_site_label_1
_geom_bond_atom_site_label_2
_geom_bond_site_symmetry_1
_geom_bond_site_symmetry_2
Co1 O1 1_555 1_555
O1 C2 1_555 1_555
O2 Co1 1_555 1_555
C1 H1 1_555 1_555
H2 C1 1_555 1_555
H3 C1 1_555 1_555
C2 C1 1_555 1_555
C3 C2 1_555 1_555
C4 O2 1_555 1_555
C5 C4 1_555 1_555
H4 C5 1_555 1_555
H5 C5 1_555 1_555
H6 C5 1_555 1_555
C6 C3 1_555 1_555
N1 C6 1_555 1_555
O3 Co1 1_555 1_555
O4 Co1 1_555 1_555
C7 H7 1_555 1_555
H8 C7 1_555 1_555
H9 C7 1_555 1_555
C8 O3 1_555 1_555
C9 C8 1_555 1_555
C10 O4 1_555 1_555
C11 C10 1_555 1_555
H10 C11 1_555 1_555
H11 C11 1_555 1_555
H12 C11 1_555 1_555
C12 C9 1_555 1_555
N2 C12 1_555 1_555
Co2 O5 1_555 1_555
O5 C14 1_555 1_555
O6 Co2 1_555 1_555
C13 H13 1_555 1_555
H14 C13 1_555 1_555
H15 C13 1_555 1_555
C14 C13 1_555 1_555
C15 C14 1_555 1_555
C16 O6 1_555 1_555
C17 C16 1_555 1_555
H16 C17 1_555 1_555
H17 C17 1_555 1_555
H18 C17 1_555 1_555
C18 C15 1_555 1_555
N3 C18 1_555 1_555
O7 Co2 1_555 1_555
O8 Co2 1_555 1_555
C19 H19 1_555 1_555
H20 C19 1_555 1_555
H21 C19 1_555 1_555
C20 O7 1_555 1_555
C21 C20 1_555 1_555
C22 O8 1_555 1_555
C23 C22 1_555 1_555
H22 C23 1_555 1_555
H23 C23 1_555 1_555
H24 C23 1_555 1_555
C24 C21 1_555 1_555
N4 C24 1_555 1_555
N5 Co1 1_555 1_555
C25 N5 1_555 1_555
H25 C25 1_555 1_555
C26 C25 1_555 1_555
H26 C26 1_555 1_555
C27 C26 1_555 1_555
C28 C27 1_555 1_555
H27 C28 1_555 1_555
C29 N5 1_555 1_555
H28 C29 1_555 1_555
N6 C30 1_555 1_555
C30 C27 1_555 1_555
C31 C30 1_555 1_555
H29 C31 1_555 1_555
C32 C31 1_555 1_555
C33 C32 1_555 1_555
H30 C33 1_555 1_555
C34 N6 1_555 1_555
N7 Co2 1_555 1_555
C35 N7 1_555 1_555
H31 C35 1_555 1_555
C36 C35 1_555 1_555
H32 C36 1_555 1_555
C37 C34 1_555 1_555
C38 C37 1_555 1_555
H33 C38 1_555 1_555
C39 N7 1_555 1_555
H34 C39 1_555 1_555
C40 C32 1_555 1_555
C41 C40 1_555 1_555
H35 C41 1_555 1_555
C42 C41 1_555 1_555
C43 C42 1_555 1_555
H36 C43 1_555 1_555
C44 C43 1_555 1_555
H37 C44 1_555 1_555
C45 C40 1_555 1_555
H38 C45 1_555 1_555
N8 C46 1_555 1_555
C46 C47 1_555 1_555
C47 H39 1_555 1_555
C48 C42 1_555 1_555
C49 C48 1_555 1_555
H40 C49 1_555 1_555
C50 N8 1_555 1_555
N9 C51 1_555 1_555
C51 H41 1_555 1_555
C52 C51 1_555 1_555
H42 C52 1_555 1_555
C53 C46 1_555 1_555
C54 C53 1_555 1_555
H43 C54 1_555 1_555
C55 N9 1_555 1_555
H44 C55 1_555 1_555
N10 C56 1_555 1_555
C56 H45 1_555 1_555
C57 C56 1_555 1_555
H46 C57 1_555 1_555
C58 C50 1_555 1_555
C59 C58 1_555 1_555
H47 C59 1_555 1_555
C60 N10 1_555 1_555
H48 C60 1_555 1_555
C61 H49 1_555 1_555
H50 C61 1_555 1_555
H51 C61 1_555 1_555
O9 C61 1_555 1_555
H52 O9 1_555 1_555
C62 H53 1_555 1_555
Cl1 C62 1_555 1_555
Cl2 C62 1_555 1_555
Cl3 C62 1_555 1_555
Co1B N10 1_555 1_555
Co2C N9 1_555 1_555
N9C Co2 1_555 1_555
N10B Co1 1_555 1_555
C3 C4 1_555 1_555
C7 C8 1_555 1_555
C9 C10 1_555 1_555
C15 C16 1_555 1_555
C19 C20 1_555 1_555
C21 C22 1_555 1_555
C28 C29 1_555 1_555
C33 C34 1_555 1_555
C36 C37 1_555 1_555
C38 C39 1_555 1_555
C44 C45 1_555 1_555
C47 C48 1_555 1_555
C49 C50 1_555 1_555
C52 C53 1_555 1_555
C54 C55 1_555 1_555
C57 C58 1_555 1_555
C59 C60 1_555 1_555

#END
