
#######################################################################
#
#                 Cambridge Crystallographic Data Centre
#                                CCDC 
#
#######################################################################
#
# If this CIF has been generated from an entry in the Cambridge 
# Structural Database, then it will include bibliographic, chemical, 
# crystal, experimental, refinement or atomic coordinate data resulting 
# from the CCDC's data processing and validation procedures.
#
#######################################################################

data_DEXXUB
_symmetry_cell_setting           triclinic
_symmetry_space_group_name_H-M   'P -1'
_symmetry_Int_Tables_number      2
_space_group_name_Hall           '-P 1'
loop_
_symmetry_equiv_pos_site_id
_symmetry_equiv_pos_as_xyz
1 x,y,z
2 -x,-y,-z
_cell_length_a                   7.562(4)
_cell_length_b                   10.499(5)
_cell_length_c                   14.450(7)
_cell_angle_alpha                76.219(8)
_cell_angle_beta                 84.341(7)
_cell_angle_gamma                75.287(7)
_cell_volume                     1076.79
loop_
_atom_site_label
_atom_site_type_symbol
_atom_site_fract_x
_atom_site_fract_y
_atom_site_fract_z
Yb1 Yb 0.192261(15) 0.084638(11) 0.340710(8)
O1 O 0.4636(3) 0.1210(2) 0.39574(16)
O2 O 0.2256(3) 0.2899(2) 0.36698(18)
O3 O 0.7201(3) 0.1049(2) 0.54244(15)
O4 O 0.9420(3) 0.1314(2) 0.43273(16)
O5 O 1.0503(3) 0.9512(2) 0.29598(17)
O6 O 0.0356(4) 0.2301(2) 0.22089(16)
O7 O -0.5863(3) 0.9817(3) 0.24283(19)
O8 O -0.5230(5) 1.1782(3) 0.1813(2)
O9 O -0.4147(7) 1.2933(3) 0.0309(3)
H1 H -0.478(9) 1.258(6) 0.073(4)
O10 O -0.3183(4) 1.2475(3) -0.1046(2)
N1 N 0.7833(3) 0.6486(2) 0.37047(18)
N2 N -0.1452(4) 0.6314(3) 0.10698(19)
C1 C 0.3916(4) 0.2441(3) 0.3867(2)
C2 C 0.5005(4) 0.3429(3) 0.3946(2)
C3 C 0.6804(4) 0.3090(3) 0.42481(19)
C4 C 0.7713(4) 0.4109(3) 0.4182(2)
H2 H 0.8920 0.3887 0.4363
C5 C 0.6840(4) 0.5449(3) 0.3852(2)
C6 C 0.5041(4) 0.5805(3) 0.3586(2)
H3 H 0.4434 0.6706 0.3385
C7 C 0.4172(4) 0.4781(3) 0.3627(3)
H4 H 0.2974 0.5011 0.3432
C8 C 0.9508(4) 0.6294(3) 0.3244(2)
H5 H 1.0045 0.5457 0.3106
C9 C 1.0409(4) 0.7296(3) 0.2983(2)
H6 H 1.1532 0.7143 0.2651
C10 C 0.9662(4) 0.8583(3) 0.3210(2)
C11 C 0.7929(4) 0.8732(3) 0.3703(2)
H7 H 0.7382 0.9541 0.3883
C12 C 0.7061(4) 0.7713(3) 0.3915(2)
H8 H 0.5903 0.7853 0.4214
C13 C 0.7881(4) 0.1685(3) 0.4692(2)
C14 C -0.0195(5) 0.3550(3) 0.1823(2)
C15 C -0.2084(5) 0.4190(3) 0.1784(2)
H9 H -0.2942 0.3682 0.2012
C16 C -0.2660(5) 0.5535(3) 0.1419(2)
H10 H -0.3908 0.5933 0.1406
C17 C 0.0362(5) 0.5719(3) 0.1040(2)
H11 H 0.1183 0.6244 0.0768
C18 C 0.1012(5) 0.4374(3) 0.1398(2)
H12 H 0.2263 0.3994 0.1362
C19 C -0.2050(4) 0.7771(3) 0.0769(2)
C20 C -0.3238(4) 0.8485(3) 0.1353(2)
H13 H -0.3700 0.8025 0.1918
C21 C -0.3760(4) 0.9896(3) 0.1106(2)
C22 C -0.3095(4) 1.0572(3) 0.0233(2)
C23 C -0.1955(5) 0.9809(3) -0.0349(2)
H14 H -0.1546 1.0248 -0.0938
C24 C -0.1405(5) 0.8420(3) -0.0086(2)
H15 H -0.0612 0.7933 -0.0482
C25 C -0.5036(5) 1.0551(4) 0.1829(3)
C26 C -0.3502(5) 1.2077(4) -0.0211(3)
Yb1_2 Yb -0.807739(15) 1.084638(11) 0.340710(8)
Yb1_3 Yb 1.192261(15) 0.084638(11) 0.340710(8)
Yb1_4 Yb 1.192261(15) 1.084638(11) 0.340710(8)
Yb1A Yb 0.807739(15) -0.084638(11) 0.659290(8)
O3A O 0.2799(3) -0.1049(2) 0.45756(15)
O4_2 O -0.0580(3) 0.1314(2) 0.43273(16)
O5_2 O 0.0503(3) -0.0488(2) 0.29598(17)
O7_2 O 0.4137(3) -0.0183(3) 0.24283(19)
loop_
_geom_bond_atom_site_label_1
_geom_bond_atom_site_label_2
_geom_bond_site_symmetry_1
_geom_bond_site_symmetry_2
Yb1 O1 1_555 1_555
O1 C1 1_555 1_555
O2 Yb1 1_555 1_555
O3 C13 1_555 1_555
O4 C13 1_555 1_555
O5 C10 1_555 1_555
O6 Yb1 1_555 1_555
O7 C25 1_555 1_555
O8 C25 1_555 1_555
O9 H1 1_555 1_555
O10 C26 1_555 1_555
N1 C5 1_555 1_555
N2 C16 1_555 1_555
C1 O2 1_555 1_555
C2 C1 1_555 1_555
C3 C2 1_555 1_555
C4 C3 1_555 1_555
H2 C4 1_555 1_555
C5 C4 1_555 1_555
C6 C5 1_555 1_555
H3 C6 1_555 1_555
C7 C2 1_555 1_555
H4 C7 1_555 1_555
C8 N1 1_555 1_555
H5 C8 1_555 1_555
C9 C8 1_555 1_555
H6 C9 1_555 1_555
C10 C9 1_555 1_555
C11 C10 1_555 1_555
H7 C11 1_555 1_555
C12 N1 1_555 1_555
H8 C12 1_555 1_555
C13 C3 1_555 1_555
C14 O6 1_555 1_555
C15 C14 1_555 1_555
H9 C15 1_555 1_555
C16 C15 1_555 1_555
H10 C16 1_555 1_555
C17 N2 1_555 1_555
H11 C17 1_555 1_555
C18 C14 1_555 1_555
H12 C18 1_555 1_555
C19 N2 1_555 1_555
C20 C19 1_555 1_555
H13 C20 1_555 1_555
C21 C20 1_555 1_555
C22 C21 1_555 1_555
C23 C22 1_555 1_555
H14 C23 1_555 1_555
C24 C19 1_555 1_555
H15 C24 1_555 1_555
C25 C21 1_555 1_555
C26 O9 1_555 1_555
Yb1_2 O7 1_555 1_555
Yb1_3 O4 1_555 1_555
Yb1_4 O5 1_555 1_555
Yb1A O3 1_555 1_555
O3A Yb1 1_555 1_555
O4_2 Yb1 1_555 1_555
O5_2 Yb1 1_555 1_555
O7_2 Yb1 1_555 1_555
C6 C7 1_555 1_555
C11 C12 1_555 1_555
C17 C18 1_555 1_555
C22 C26 1_555 1_555
C23 C24 1_555 1_555

#END
