
#######################################################################
#
#                 Cambridge Crystallographic Data Centre
#                                CCDC 
#
#######################################################################
#
# If this CIF has been generated from an entry in the Cambridge 
# Structural Database, then it will include bibliographic, chemical, 
# crystal, experimental, refinement or atomic coordinate data resulting 
# from the CCDC's data processing and validation procedures.
#
#######################################################################

data_DEXXOU
_symmetry_cell_setting           monoclinic
_symmetry_space_group_name_H-M   'C 2/c'
_symmetry_Int_Tables_number      15
_space_group_name_Hall           '-C 2yn'
loop_
_symmetry_equiv_pos_site_id
_symmetry_equiv_pos_as_xyz
1 x,y,z
2 1/2+x,1/2+y,z
3 -x,y,1/2-z
4 1/2-x,1/2+y,1/2-z
5 -x,-y,-z
6 1/2-x,1/2-y,-z
7 x,-y,1/2+z
8 1/2+x,1/2-y,1/2+z
_cell_length_a                   23.085(5)
_cell_length_b                   7.4913(15)
_cell_length_c                   12.941(3)
_cell_angle_alpha                90
_cell_angle_beta                 99.286(3)
_cell_angle_gamma                90
_cell_volume                     2208.65
loop_
_atom_site_label
_atom_site_type_symbol
_atom_site_fract_x
_atom_site_fract_y
_atom_site_fract_z
K1 K 0.58112(15) 0.0002(5) 0.8731(3)
Nd1 Nd 0.63733(2) 0.50022(9) 0.51386(4)
O1 O 0.6605(4) 0.3393(13) 0.3570(6)
O2 O 0.6703(4) 0.3587(14) 0.1886(6)
O3 O 0.5968(4) 0.6377(11) 0.3388(6)
O4 O 0.5991(3) 0.6413(10) 0.1656(6)
O5 O 0.5450(3) 0.3412(10) 0.4542(5)
O6 O 0.4498(3) 0.3272(10) 0.4646(6)
O7 O 0.7464(4) 0.5266(11) 0.5259(8)
O8 O 0.8239(3) 0.6983(10) 0.5122(6)
C1 C 0.6510(5) 0.4117(18) 0.2694(8)
C2 C 0.6122(5) 0.5800(14) 0.2579(8)
C3 C 0.4985(5) 0.4023(14) 0.4762(7)
C4 C 0.7703(4) 0.6689(15) 0.5105(8)
O9 O 0.6766(4) 0.2032(11) 0.5566(7)
H1 H 0.6814 0.1433 0.6132
H2 H 0.6931 0.1499 0.5112
Nd1F Nd 0.63733(2) 0.49978(9) 1.01386(4)
Nd1F_2 Nd 0.63733(2) 0.49978(9) 0.01386(4)
Nd1D Nd 0.36267(2) 0.49978(9) 0.48614(4)
Nd1E Nd 0.86267(2) 0.99978(9) 0.48614(4)
O1F O 0.6605(4) 0.6607(13) 0.8570(6)
O2F O 0.6703(4) 0.6413(14) 0.6886(6)
O2_2 O 0.6703(4) 0.3587(14) 1.1886(6)
O3F O 0.5968(4) 0.3623(11) 0.8388(6)
O4F O 0.5991(3) 0.3587(10) 0.6656(6)
O4_2 O 0.5991(3) 0.6413(10) 1.1656(6)
O5D O 0.4550(3) 0.6588(10) 0.5458(5)
O5F O 0.5450(3) 0.6588(10) 0.9542(5)
O6D O 0.5502(3) 0.6728(10) 0.5354(6)
O6B O 0.5502(3) 0.3272(10) 1.0354(6)
O7E O 0.7536(4) 0.9734(11) 0.4741(8)
O7F O 0.7464(4) 0.4734(11) 1.0259(8)
O8E O 0.6761(3) 0.8017(10) 0.4878(6)
O8C O 0.6761(3) 0.1983(10) 0.9878(6)
C1F C 0.6510(5) 0.5883(18) 0.7694(8)
C2F C 0.6122(5) 0.4200(14) 0.7579(8)
C3D C 0.5015(5) 0.5977(14) 0.5238(7)
C4E C 0.7297(4) 0.8311(15) 0.4895(8)
O9F O 0.6766(4) 0.7968(11) 1.0566(7)
H1F H 0.6814 0.8567 1.1132
H2F H 0.6931 0.8501 1.0112
O10 O 0.6910(5) 0.0106(15) 0.7359(8)
H3 H 0.6846 -0.0992 0.7221
H4 H 0.7077 0.0156 0.7994
O11 O 0.5418(4) 0.0093(14) 0.6535(8)
H5 H 0.5548 -0.0801 0.6239
H6 H 0.5533 0.1042 0.6271
loop_
_geom_bond_atom_site_label_1
_geom_bond_atom_site_label_2
_geom_bond_site_symmetry_1
_geom_bond_site_symmetry_2
Nd1 O1 1_555 1_555
O1 C1 1_555 1_555
O2 C1 1_555 1_555
O3 Nd1 1_555 1_555
O4 C2 1_555 1_555
O5 Nd1 1_555 1_555
O6 C3 1_555 1_555
O7 Nd1 1_555 1_555
O8 C4 1_555 1_555
C1 C2 1_555 1_555
C2 O3 1_555 1_555
C3 O5 1_555 1_555
C4 O7 1_555 1_555
O9 Nd1 1_555 1_555
H1 O9 1_555 1_555
H2 O9 1_555 1_555
O10 H3 1_555 1_555
H4 O10 1_555 1_555
O11 H5 1_555 1_555
H6 O11 1_555 1_555
Nd1F O1F 1_555 1_555
Nd1F_2 O2 1_555 1_555
Nd1D O6 1_555 1_555
Nd1E O8 1_555 1_555
O1F C1F 1_555 1_555
O2F Nd1 1_555 1_555
O2_2 Nd1F 1_555 1_555
O3F Nd1F 1_555 1_555
O4F Nd1 1_555 1_555
O4_2 Nd1F 1_555 1_555
O5D Nd1D 1_555 1_555
O5F Nd1F 1_555 1_555
O6D Nd1 1_555 1_555
O6B Nd1F 1_555 1_555
O7E Nd1E 1_555 1_555
O7F Nd1F 1_555 1_555
O8E Nd1 1_555 1_555
O8C Nd1F 1_555 1_555
C1F O2F 1_555 1_555
C2F O3F 1_555 1_555
C3D C3 1_555 1_555
C4E C4 1_555 1_555
O9F Nd1F 1_555 1_555
H1F O9F 1_555 1_555
H2F O9F 1_555 1_555
O4 Nd1F_2 1_555 1_555
O4F C2F 1_555 1_555
O5D C3D 1_555 1_555
O6D C3D 1_555 1_555
O7E C4E 1_555 1_555
O8E C4E 1_555 1_555
C1F C2F 1_555 1_555

#END
