
#######################################################################
#
#                 Cambridge Crystallographic Data Centre
#                                CCDC 
#
#######################################################################
#
# If this CIF has been generated from an entry in the Cambridge 
# Structural Database, then it will include bibliographic, chemical, 
# crystal, experimental, refinement or atomic coordinate data resulting 
# from the CCDC's data processing and validation procedures.
#
#######################################################################

data_DEXZEM
_symmetry_cell_setting           monoclinic
_symmetry_space_group_name_H-M   'P 21/n'
_symmetry_Int_Tables_number      14
_space_group_name_Hall           '-P 2yn'
loop_
_symmetry_equiv_pos_site_id
_symmetry_equiv_pos_as_xyz
1 x,y,z
2 1/2-x,1/2+y,1/2-z
3 -x,-y,-z
4 1/2+x,1/2-y,1/2+z
_cell_length_a                   6.6850(8)
_cell_length_b                   9.7739(12)
_cell_length_c                   13.2657(18)
_cell_angle_alpha                90
_cell_angle_beta                 93.136(7)
_cell_angle_gamma                90
_cell_volume                     865.463
loop_
_atom_site_label
_atom_site_type_symbol
_atom_site_fract_x
_atom_site_fract_y
_atom_site_fract_z
Cu1 Cu 0.0000 0.5000 0.0000
N1 N 0.1973(3) 0.3830(2) -0.06592(18)
C1 C 0.3392(4) 0.4058(3) 0.1040(2)
C2 C 0.4984(4) 0.2174(3) -0.1308(2)
H1 H 0.6033 0.1619 -0.1538
C3 C 0.3523(4) 0.3478(3) -0.0012(2)
C4 C 0.3374(4) 0.2517(3) -0.1955(2)
H2 H 0.3291 0.2193 -0.2631
C5 C 0.5059(4) 0.2645(3) -0.0317(2)
C6 C 0.1877(4) 0.3346(3) -0.1599(2)
H3 H 0.0756 0.3574 -0.2038
O1 O 0.1851(3) 0.47737(19) 0.11924(15)
O2 O 0.4752(3) 0.3780(2) 0.16772(15)
O3 O 0.6606(3) 0.1008(2) 0.07634(16)
O4 O 0.8345(3) 0.2911(2) 0.04683(16)
C7 C 0.6831(4) 0.2231(3) 0.0365(2)
H8 H 0.779(6) 0.070(4) 0.106(3)
Cu1_2 Cu 1.0000 0.5000 0.0000
Cu1_3 Cu -1.0000 0.5000 0.0000
N1B N -0.1973(3) 0.6170(2) 0.06592(18)
C1B C -0.3392(4) 0.5942(3) -0.1040(2)
C2B C -0.4984(4) 0.7826(3) 0.1308(2)
H1B H -0.6033 0.8381 0.1538
C3B C -0.3523(4) 0.6522(3) 0.0012(2)
C4B C -0.3374(4) 0.7483(3) 0.1955(2)
H2B H -0.3291 0.7807 0.2631
C5B C -0.5059(4) 0.7355(3) 0.0317(2)
C6B C -0.1877(4) 0.6654(3) 0.1599(2)
H3B H -0.0756 0.6426 0.2038
O1B O -0.1851(3) 0.52263(19) -0.11924(15)
O2B O -0.4752(3) 0.6220(2) -0.16772(15)
O3B O -0.6606(3) 0.8992(2) -0.07634(16)
O4B O -0.8345(3) 0.7089(2) -0.04683(16)
O4_2 O -0.1655(3) 0.2911(2) 0.04683(16)
O4B_2 O 0.1655(3) 0.7089(2) -0.04683(16)
C7B C -0.6831(4) 0.7769(3) -0.0365(2)
H8B H -0.779(6) 0.930(4) -0.106(3)
O5 O 0.5060(3) 0.5005(2) 0.34997(18)
C8 C 0.3363(5) 0.5855(3) 0.3596(3)
H4 H 0.3733 0.6810 0.3478
H5 H 0.2882 0.5763 0.4277
H6 H 0.2300 0.5581 0.3098
H7 H 0.503(5) 0.467(4) 0.299(3)
loop_
_geom_bond_atom_site_label_1
_geom_bond_atom_site_label_2
_geom_bond_site_symmetry_1
_geom_bond_site_symmetry_2
Cu1 N1 1_555 1_555
N1 C3 1_555 1_555
C1 C3 1_555 1_555
C2 H1 1_555 1_555
C3 C5 1_555 1_555
C4 C2 1_555 1_555
H2 C4 1_555 1_555
C5 C2 1_555 1_555
C6 N1 1_555 1_555
H3 C6 1_555 1_555
O1 Cu1 1_555 1_555
O2 C1 1_555 1_555
O3 C7 1_555 1_555
O4 C7 1_555 1_555
C7 C5 1_555 1_555
O5 C8 1_555 1_555
C8 H4 1_555 1_555
H5 C8 1_555 1_555
H6 C8 1_555 1_555
H7 O5 1_555 1_555
H8 O3 1_555 1_555
Cu1_2 O4 1_555 1_555
Cu1_3 O4B 1_555 1_555
N1B Cu1 1_555 1_555
C1B C3B 1_555 1_555
C2B H1B 1_555 1_555
C3B N1B 1_555 1_555
C4B C2B 1_555 1_555
H2B C4B 1_555 1_555
C5B C2B 1_555 1_555
C6B N1B 1_555 1_555
H3B C6B 1_555 1_555
O1B Cu1 1_555 1_555
O2B C1B 1_555 1_555
O3B C7B 1_555 1_555
O4B C7B 1_555 1_555
O4_2 Cu1 1_555 1_555
O4B_2 Cu1 1_555 1_555
C7B C5B 1_555 1_555
H8B O3B 1_555 1_555
C1 O1 1_555 1_555
C4 C6 1_555 1_555
C1B O1B 1_555 1_555
C3B C5B 1_555 1_555
C4B C6B 1_555 1_555

#END
