
#######################################################################
#
#                 Cambridge Crystallographic Data Centre
#                                CCDC 
#
#######################################################################
#
# If this CIF has been generated from an entry in the Cambridge 
# Structural Database, then it will include bibliographic, chemical, 
# crystal, experimental, refinement or atomic coordinate data resulting 
# from the CCDC's data processing and validation procedures.
#
#######################################################################

data_DEYCUG
_symmetry_cell_setting           monoclinic
_symmetry_space_group_name_H-M   'P 21/n'
_symmetry_Int_Tables_number      14
_space_group_name_Hall           '-P 2yn'
loop_
_symmetry_equiv_pos_site_id
_symmetry_equiv_pos_as_xyz
1 x,y,z
2 1/2-x,1/2+y,1/2-z
3 -x,-y,-z
4 1/2+x,1/2-y,1/2+z
_cell_length_a                   7.8378(6)
_cell_length_b                   11.6470(10)
_cell_length_c                   11.9380(10)
_cell_angle_alpha                90
_cell_angle_beta                 101.0300(10)
_cell_angle_gamma                90
_cell_volume                     1069.65
loop_
_atom_site_label
_atom_site_type_symbol
_atom_site_fract_x
_atom_site_fract_y
_atom_site_fract_z
Ce1 Ce 0.62360(3) 0.314478(18) 0.326801(18)
Na1 Na 0.6415(2) 0.79535(17) 0.42674(16)
Na2 Na 0.8855(2) 0.68800(16) 0.66598(15)
O1 O 0.7047(4) 0.4783(3) 0.4669(3)
O2 O 0.6146(4) 0.6175(2) 0.5689(3)
O3 O 0.5317(4) 0.5063(3) 0.2363(3)
O4 O 0.6375(4) 0.6850(2) 0.2482(3)
O5 O 0.8592(4) 0.4268(2) 0.2458(3)
O6 O 0.9360(4) 0.6014(3) 0.1978(3)
O7 O 0.5847(4) 0.2815(3) 0.1135(3)
O8 O 0.4204(4) 0.2178(3) -0.0465(3)
O9 O 0.3026(4) 0.2976(3) 0.2079(3)
O10 O 0.1362(4) 0.2762(3) 0.0343(3)
O11 O 0.7343(5) 0.8901(3) 0.5993(3)
H1 H 0.825(6) 0.927(7) 0.630(6)
H2 H 0.651(6) 0.909(8) 0.632(6)
C1 C 0.5909(5) 0.5269(3) 0.5100(4)
C2 C 0.6512(5) 0.5786(4) 0.2385(4)
C3 C 0.8321(5) 0.5316(3) 0.2274(3)
C4 C 0.4405(6) 0.2563(4) 0.0520(3)
C5 C 0.2791(5) 0.2784(4) 0.1027(4)
Ce1B Ce 0.37640(3) 0.685522(18) 0.673199(18)
Ce1A Ce 0.87640(3) 0.814478(18) 0.173199(18)
Ce1C Ce 0.12360(3) 0.185522(18) -0.173199(18)
Ce1A_2 Ce 0.87640(3) -0.185522(18) 0.173199(18)
Ce1C_2 Ce 1.12360(3) 0.185522(18) 0.826801(18)
Na1B Na 0.3585(2) 0.20465(17) 0.57326(16)
Na1A Na 0.8585(2) 0.29535(17) 0.07326(16)
Na1A_2 Na -0.1415(2) 0.29535(17) 0.07326(16)
Na1_2 Na 0.6415(2) -0.20465(17) 0.42674(16)
Na1B_2 Na 1.3585(2) 0.20465(17) 0.57326(16)
Na2B Na 0.1145(2) 0.31200(16) 0.33402(15)
Na2C Na 0.3855(2) 0.81200(16) 0.16598(15)
Na2B_2 Na 1.1145(2) 0.31200(16) 0.33402(15)
Na2A Na 0.6145(2) 0.18800(16) -0.16598(15)
Na2C_2 Na 0.3855(2) -0.18800(16) 0.16598(15)
Na2A_2 Na 0.6145(2) 0.18800(16) 0.83402(15)
O1B O 0.2953(4) 0.5217(3) 0.5331(3)
O2B O 0.3854(4) 0.3825(2) 0.4311(3)
O3A O 0.9683(4) 0.0063(3) 0.2637(3)
O3B O 0.4683(4) 0.4937(3) 0.7637(3)
O4A O 0.8625(4) 0.1850(2) 0.2518(3)
O4C O 1.1375(4) 0.8150(2) 0.7482(3)
O4C_2 O 0.1375(4) 0.8150(2) 0.7482(3)
O4B O 0.3625(4) 0.3150(2) 0.7518(3)
O4A_2 O -0.1375(4) 0.1850(2) 0.2518(3)
O5A O 0.6408(4) -0.0732(2) 0.2542(3)
O5A_2 O 0.6408(4) 0.9268(2) 0.2542(3)
O5B O 1.1408(4) 0.5732(2) 0.7542(3)
O5B_2 O 0.1408(4) 0.5732(2) 0.7542(3)
O5C O 0.3592(4) 0.0732(2) 0.7458(3)
O5_2 O -0.1408(4) 0.4268(2) 0.2458(3)
O6A O 0.5640(4) 0.1014(3) 0.3022(3)
O6C O 0.4360(4) 0.8986(3) 0.6978(3)
O7C O 1.0847(4) 0.2185(3) 0.6135(3)
O7A O 0.9153(4) 0.7815(3) 0.3865(3)
O7B O 0.4153(4) 0.7185(3) 0.8865(3)
O7C_2 O 0.0847(4) 0.2185(3) 0.6135(3)
O8C O 0.9204(4) 0.2822(3) 0.4535(3)
O8A O 1.0796(4) 0.7178(3) 0.5465(3)
O8A_2 O 0.0796(4) 0.7178(3) 0.5465(3)
O8C_2 O -0.0796(4) 0.2822(3) 0.4535(3)
O9C O 0.8026(4) 0.2024(3) 0.7079(3)
O9B O 0.6974(4) 0.7024(3) 0.7921(3)
O10C O 0.6362(4) 0.2238(3) 0.5343(3)
O10A O 0.3638(4) 0.7762(3) 0.4657(3)
O11B O 0.2657(5) 0.1099(3) 0.4007(3)
H1B H 0.175(6) 0.073(7) 0.370(6)
H2B H 0.349(6) 0.091(8) 0.368(6)
C1B C 0.4091(5) 0.4731(3) 0.4900(4)
C2A C 0.8488(5) 0.0786(4) 0.2615(4)
C3A C 0.6679(5) 0.0316(3) 0.2726(3)
C4C C 0.9405(6) 0.2437(4) 0.5520(3)
C5C C 0.7791(5) 0.2216(4) 0.6027(4)
loop_
_geom_bond_atom_site_label_1
_geom_bond_atom_site_label_2
_geom_bond_site_symmetry_1
_geom_bond_site_symmetry_2
Ce1 O1 1_555 1_555
Na1 O2 1_555 1_555
Na2 O2 1_555 1_555
O1 C1 1_555 1_555
O2 C1 1_555 1_555
O3 Ce1 1_555 1_555
O4 Na1 1_555 1_555
O5 Ce1 1_555 1_555
O6 C3 1_555 1_555
O7 Ce1 1_555 1_555
O8 C4 1_555 1_555
O9 Ce1 1_555 1_555
O10 C5 1_555 1_555
O11 Na1 1_555 1_555
H1 O11 1_555 1_555
H2 O11 1_555 1_555
C1 C1B 1_555 1_555
C2 O3 1_555 1_555
C3 O5 1_555 1_555
C4 O7 1_555 1_555
C5 O9 1_555 1_555
Ce1B O2 1_555 1_555
Ce1A O4 1_555 1_555
Ce1C O8 1_555 1_555
Ce1A_2 O3A 1_555 1_555
Ce1C_2 O7C 1_555 1_555
Na1B O2B 1_555 1_555
Na1A O5 1_555 1_555
Na1A_2 O10 1_555 1_555
Na1_2 O5A 1_555 1_555
Na1B_2 O7C 1_555 1_555
Na2B O9 1_555 1_555
Na2C O4 1_555 1_555
Na2B_2 O5 1_555 1_555
Na2A O8 1_555 1_555
Na2C_2 O5A 1_555 1_555
Na2A_2 O4B 1_555 1_555
O1B Ce1B 1_555 1_555
O2B Ce1 1_555 1_555
O3A C2A 1_555 1_555
O3B Ce1B 1_555 1_555
O4A Ce1 1_555 1_555
O4C Na2 1_555 1_555
O4C_2 Ce1B 1_555 1_555
O4B Na1B 1_555 1_555
O4A_2 Na1A_2 1_555 1_555
O5A Ce1A_2 1_555 1_555
O5A_2 Na1 1_555 1_555
O5B Na2 1_555 1_555
O5B_2 Ce1B 1_555 1_555
O5C Na1B 1_555 1_555
O5_2 Na1A_2 1_555 1_555
O6A Ce1 1_555 1_555
O6C Ce1B 1_555 1_555
O7C C4C 1_555 1_555
O7A Na1 1_555 1_555
O7B Ce1B 1_555 1_555
O7C_2 Na1B 1_555 1_555
O8C Ce1 1_555 1_555
O8A Na2 1_555 1_555
O8A_2 Ce1B 1_555 1_555
O8C_2 Na2B 1_555 1_555
O9C Ce1C_2 1_555 1_555
O9B Na2 1_555 1_555
O10C Ce1 1_555 1_555
O10A Na1 1_555 1_555
O11B Na1B 1_555 1_555
H1B O11B 1_555 1_555
H2B O11B 1_555 1_555
C1B O1B 1_555 1_555
C2A O4A 1_555 1_555
C3A O5A 1_555 1_555
C4C O8C 1_555 1_555
C5C O9C 1_555 1_555
Na2 O11 1_555 1_555
O4 C2 1_555 1_555
O6 Ce1A 1_555 1_555
O7 Na1A 1_555 1_555
O10 Ce1C 1_555 1_555
C2 C3 1_555 1_555
C4 C5 1_555 1_555
Ce1B O9B 1_555 1_555
Ce1B O10A 1_555 1_555
Ce1A O5A_2 1_555 1_555
Ce1A O7A 1_555 1_555
Na1B O10C 1_555 1_555
Na1A O4A 1_555 1_555
Na2B O2B 1_555 1_555
Na2B O4A_2 1_555 1_555
Na2B O5_2 1_555 1_555
Na2B O11B 1_555 1_555
Na2C O5A_2 1_555 1_555
Na2B_2 O4A 1_555 1_555
Na2B_2 O8C 1_555 1_555
Na2A_2 O5C 1_555 1_555
Na2A_2 O9C 1_555 1_555
O2B C1B 1_555 1_555
O6A C3A 1_555 1_555
O10C C5C 1_555 1_555
C2A C3A 1_555 1_555
C4C C5C 1_555 1_555

#END
