
#######################################################################
#
#                 Cambridge Crystallographic Data Centre
#                                CCDC 
#
#######################################################################
#
# If this CIF has been generated from an entry in the Cambridge 
# Structural Database, then it will include bibliographic, chemical, 
# crystal, experimental, refinement or atomic coordinate data resulting 
# from the CCDC's data processing and validation procedures.
#
#######################################################################

data_DEYHAS
_symmetry_cell_setting           monoclinic
_symmetry_space_group_name_H-M   'P 21/n'
_symmetry_Int_Tables_number      14
_space_group_name_Hall           '-P 2yn'
loop_
_symmetry_equiv_pos_site_id
_symmetry_equiv_pos_as_xyz
1 x,y,z
2 1/2-x,1/2+y,1/2-z
3 -x,-y,-z
4 1/2+x,1/2-y,1/2+z
_cell_length_a                   13.3314(10)
_cell_length_b                   9.9441(7)
_cell_length_c                   19.3736(15)
_cell_angle_alpha                90
_cell_angle_beta                 109.609(2)
_cell_angle_gamma                90
_cell_volume                     2419.38
loop_
_atom_site_label
_atom_site_type_symbol
_atom_site_fract_x
_atom_site_fract_y
_atom_site_fract_z
Cd1 Cd 0.63291(3) 0.07372(3) 0.054413(18)
S1 S 0.53300(10) 0.58018(13) -0.26118(6)
O1 O 0.6359(3) 0.3129(3) 0.05425(18)
O2 O 0.6076(3) 0.2079(3) -0.05034(17)
O3 O 0.5898(3) 0.4703(4) -0.2782(2)
O4 O 0.4186(3) 0.5636(3) -0.29120(19)
O5 O 0.5658(3) 0.7109(3) -0.27913(19)
O6 O 0.5603(2) 0.9169(3) -0.03493(16)
O7 O 0.6826(3) 0.8216(3) 0.05871(18)
O8 O 0.8163(2) 0.0882(3) 0.09015(17)
H1 H 0.8462 0.0403 0.1278
H2 H 0.8374 0.1692 0.0918
N1 N 0.6373(3) 0.0415(3) 0.1713(2)
N2 N 0.6200(3) -0.1425(4) 0.4108(2)
N3 N 0.6228(3) -0.1296(4) 0.4819(2)
N4 N 0.6218(3) 0.0723(4) 0.43633(19)
N5 N 0.6070(3) 0.2135(3) 0.4289(2)
H3 H 0.5588 0.2280 0.3850
H4 H 0.6721 0.2415 0.4329
N6 N 0.6656(3) 0.1199(4) 0.7117(2)
H5 H 0.6762 0.1425 0.7564
C1 C 0.5850(4) -0.0893(5) 0.2564(2)
H6 H 0.5527 -0.1667 0.2659
C2 C 0.5927(4) -0.0678(5) 0.1886(3)
H7 H 0.5653 -0.1328 0.1527
C3 C 0.6765(4) 0.1316(5) 0.2240(3)
H8 H 0.7072 0.2089 0.2127
C4 C 0.6746(4) 0.1179(5) 0.2935(3)
H9 H 0.7053 0.1829 0.3288
C5 C 0.6263(3) 0.0061(4) 0.3107(2)
C6 C 0.6217(3) -0.0195(5) 0.3843(3)
C7 C 0.6247(3) 0.0000(5) 0.4964(2)
C8 C 0.6359(3) 0.0489(4) 0.5701(2)
C9 C 0.6423(4) 0.1830(5) 0.5903(3)
H10 H 0.6370 0.2498 0.5556
C10 C 0.6567(4) 0.2166(5) 0.6614(3)
H11 H 0.6603 0.3066 0.6751
C11 C 0.6583(4) -0.0098(5) 0.6940(3)
H12 H 0.6640 -0.0749 0.7296
C12 C 0.6425(4) -0.0470(5) 0.6233(3)
H13 H 0.6361 -0.1376 0.6107
C13 C 0.6045(3) 0.4483(4) -0.0531(3)
C14 C 0.5778(3) 0.4529(4) -0.1285(3)
H14 H 0.5683 0.3734 -0.1553
C15 C 0.5650(3) 0.5765(4) -0.1645(2)
C16 C 0.5767(3) 0.6943(4) -0.1241(2)
H15 H 0.5660 0.7769 -0.1480
C17 C 0.6041(3) 0.6901(4) -0.0484(3)
C18 C 0.6185(3) 0.5667(4) -0.0133(2)
H16 H 0.6377 0.5633 0.0375
C19 C 0.6172(3) 0.3150(4) -0.0132(3)
C20 C 0.6169(4) 0.8163(4) -0.0051(3)
Cd1_2 Cd 0.63291(3) 1.07372(3) 0.054413(18)
Cd1B Cd 0.36709(3) 0.92628(3) -0.054413(18)
O6_2 O 0.5603(2) -0.0831(3) -0.03493(16)
O6B O 0.4397(2) 0.0831(3) 0.03493(16)
O7_2 O 0.6826(3) -0.1784(3) 0.05871(18)
O9 O 0.7101(3) 0.1314(4) 0.85469(19)
H17 H 0.6758 0.1733 0.8779
H18 H 0.7550 0.0732 0.8786
O10 O 0.8922(4) 0.0405(6) 0.9641(3)
H19 H 0.8459 -0.0123 0.9706
H20 H 0.8954 0.1199 0.9809
loop_
_geom_bond_atom_site_label_1
_geom_bond_atom_site_label_2
_geom_bond_site_symmetry_1
_geom_bond_site_symmetry_2
Cd1 O1 1_555 1_555
S1 O3 1_555 1_555
O1 C19 1_555 1_555
O2 Cd1 1_555 1_555
O4 S1 1_555 1_555
O5 S1 1_555 1_555
O6 C20 1_555 1_555
O7 C20 1_555 1_555
O8 Cd1 1_555 1_555
H1 O8 1_555 1_555
H2 O8 1_555 1_555
N1 Cd1 1_555 1_555
N2 N3 1_555 1_555
N3 C7 1_555 1_555
N4 N5 1_555 1_555
N5 H3 1_555 1_555
H4 N5 1_555 1_555
N6 H5 1_555 1_555
C1 H6 1_555 1_555
C2 N1 1_555 1_555
H7 C2 1_555 1_555
C3 N1 1_555 1_555
H8 C3 1_555 1_555
C4 C3 1_555 1_555
H9 C4 1_555 1_555
C5 C1 1_555 1_555
C6 N2 1_555 1_555
C7 N4 1_555 1_555
C8 C7 1_555 1_555
C9 C8 1_555 1_555
H10 C9 1_555 1_555
C10 N6 1_555 1_555
H11 C10 1_555 1_555
C11 N6 1_555 1_555
H12 C11 1_555 1_555
C12 C8 1_555 1_555
H13 C12 1_555 1_555
C13 C14 1_555 1_555
C14 H14 1_555 1_555
C15 S1 1_555 1_555
C16 C15 1_555 1_555
H15 C16 1_555 1_555
C17 C16 1_555 1_555
C18 C13 1_555 1_555
H16 C18 1_555 1_555
C19 O2 1_555 1_555
C20 C17 1_555 1_555
O9 H17 1_555 1_555
H18 O9 1_555 1_555
O10 H19 1_555 1_555
H20 O10 1_555 1_555
Cd1_2 O6 1_555 1_555
Cd1B O6 1_555 1_555
O6_2 Cd1 1_555 1_555
O6B Cd1 1_555 1_555
O7_2 Cd1 1_555 1_555
O7 Cd1_2 1_555 1_555
N4 C6 1_555 1_555
C1 C2 1_555 1_555
C4 C5 1_555 1_555
C5 C6 1_555 1_555
C9 C10 1_555 1_555
C11 C12 1_555 1_555
C13 C19 1_555 1_555
C14 C15 1_555 1_555
C17 C18 1_555 1_555

#END
