
#######################################################################
#
#                 Cambridge Crystallographic Data Centre
#                                CCDC 
#
#######################################################################
#
# If this CIF has been generated from an entry in the Cambridge 
# Structural Database, then it will include bibliographic, chemical, 
# crystal, experimental, refinement or atomic coordinate data resulting 
# from the CCDC's data processing and validation procedures.
#
#######################################################################

data_DEYHOF
_symmetry_cell_setting           orthorhombic
_symmetry_space_group_name_H-M   'C c c m'
_symmetry_Int_Tables_number      66
_space_group_name_Hall           '-C 2 2n'
loop_
_symmetry_equiv_pos_site_id
_symmetry_equiv_pos_as_xyz
1 x,y,z
2 1/2+x,1/2+y,z
3 -x,-y,z
4 -x,y,1/2-z
5 x,-y,1/2-z
6 1/2-x,1/2-y,z
7 1/2-x,1/2+y,1/2-z
8 1/2+x,1/2-y,1/2-z
9 -x,-y,-z
10 1/2-x,1/2-y,-z
11 x,y,-z
12 x,-y,1/2+z
13 -x,y,1/2+z
14 1/2+x,1/2+y,-z
15 1/2+x,1/2-y,1/2+z
16 1/2-x,1/2+y,1/2+z
_cell_length_a                   17.9182(8)
_cell_length_b                   22.1945(8)
_cell_length_c                   22.2787(10)
_cell_angle_alpha                90
_cell_angle_beta                 90
_cell_angle_gamma                90
_cell_volume                     8859.92
loop_
_atom_site_label
_atom_site_type_symbol
_atom_site_fract_x
_atom_site_fract_y
_atom_site_fract_z
O15 O 0.2371(6) 0.0975(5) 0.2337(5)
O16 O 0.1616(6) 0.5000 0.2500
O17 O 0.1379(5) 0.0000 0.2500
Cu1 Cu 0.0000 0.0000 0.2500
Cu2 Cu 0.0000 0.5000 0.2500
N1 N 0.0000 0.0000 0.1585(4)
N2 N 0.0000 0.0907(4) 0.2500
N3 N 0.0000 0.4095(4) 0.2500
N4 N 0.0000 0.5000 0.3412(5)
C1 C 0.0528(5) 0.0278(4) 0.1276(4)
H1 H 0.0904 0.0473 0.1488
C2 C 0.0454(5) 0.1230(4) 0.2862(4)
H2 H 0.0772 0.1023 0.3120
C3 C 0.0472(6) 0.1842(4) 0.2868(4)
H3 H 0.0803 0.2040 0.3122
C4 C 0.0552(6) 0.0293(5) 0.0658(4)
H4 H 0.0934 0.0498 0.0463
C5 C 0.0000 0.0000 0.0325(5)
C6 C 0.0000 0.2175(5) 0.2500
C7 C 0.0625(8) 0.4942(6) 0.3725(5)
H5 H 0.1067 0.4893 0.3512
C8 C 0.0669(7) 0.4949(6) 0.4337(5)
H6 H 0.1128 0.4921 0.4530
C9 C 0.0611(7) 0.3779(4) 0.2377(5)
H7 H 0.1046 0.3990 0.2290
C10 C 0.0640(6) 0.3156(4) 0.2372(4)
H8 H 0.1084 0.2958 0.2283
C11 C 0.0000 0.5000 0.4668(5)
C12 C 0.0000 0.2830(5) 0.2500
O17B O -0.1379(5) 0.0000 0.2500
Cu1J Cu 0.0000 0.0000 -0.2500
Cu2J Cu 0.0000 0.5000 0.7500
Cu2_2 Cu 0.0000 -0.5000 0.2500
N1J N 0.0000 0.0000 -0.1585(4)
N1C N 0.0000 0.0000 0.3415(4)
N2B N 0.0000 -0.0907(4) 0.2500
N3B N 0.0000 -0.4095(4) 0.2500
N3B_2 N 0.0000 0.5905(4) 0.2500
N4J N 0.0000 0.5000 0.6588(5)
N4C N 0.0000 0.5000 0.1588(5)
C1B C -0.0528(5) -0.0278(4) 0.1276(4)
C1J C 0.0528(5) 0.0278(4) -0.1276(4)
C1H C -0.0528(5) -0.0278(4) -0.1276(4)
H1B H -0.0904 -0.0473 0.1488
H1H H -0.0904 -0.0473 -0.1488
H1J H 0.0904 0.0473 -0.1488
C2C C -0.0454(5) 0.1230(4) 0.2138(4)
C2B C -0.0454(5) -0.1230(4) 0.2862(4)
C2D C 0.0454(5) -0.1230(4) 0.2138(4)
H2C H -0.0772 0.1023 0.1880
H2B H -0.0772 -0.1023 0.3120
H2D H 0.0772 -0.1023 0.1880
C3C C -0.0472(6) 0.1842(4) 0.2132(4)
C3B C -0.0472(6) -0.1842(4) 0.2868(4)
C3D C 0.0472(6) -0.1842(4) 0.2132(4)
H3C H -0.0803 0.2040 0.1878
H3B H -0.0803 -0.2040 0.3122
H3D H 0.0803 -0.2040 0.1878
C4B C -0.0552(6) -0.0293(5) 0.0658(4)
C4J C 0.0552(6) 0.0293(5) -0.0658(4)
C4H C -0.0552(6) -0.0293(5) -0.0658(4)
H4B H -0.0934 -0.0498 0.0463
H4H H -0.0934 -0.0498 -0.0463
H4J H 0.0934 0.0498 -0.0463
C5J C 0.0000 0.0000 -0.0325(5)
C6B C 0.0000 -0.2175(5) 0.2500
C7B C -0.0625(8) 0.5058(6) 0.3725(5)
C7J C 0.0625(8) 0.4942(6) 0.6275(5)
C7H C -0.0625(8) 0.5058(6) 0.6275(5)
H5B H -0.1067 0.5107 0.3512
H5H H -0.1067 0.5107 0.6488
H5J H 0.1067 0.4893 0.6488
C8B C -0.0669(7) 0.5051(6) 0.4337(5)
C8J C 0.0669(7) 0.4949(6) 0.5663(5)
C8H C -0.0669(7) 0.5051(6) 0.5663(5)
H6B H -0.1128 0.5079 0.4530
H6H H -0.1128 0.5079 0.5470
H6J H 0.1128 0.4921 0.5470
C9C C -0.0611(7) 0.3779(4) 0.2623(5)
C9B C -0.0611(7) -0.3779(4) 0.2377(5)
C9D C 0.0611(7) -0.3779(4) 0.2623(5)
H7C H -0.1046 0.3990 0.2710
H7B H -0.1046 -0.3990 0.2290
H7D H 0.1046 -0.3990 0.2710
C10C C -0.0640(6) 0.3156(4) 0.2628(4)
C10B C -0.0640(6) -0.3156(4) 0.2372(4)
C10D C 0.0640(6) -0.3156(4) 0.2628(4)
H8C H -0.1084 0.2958 0.2717
H8B H -0.1084 -0.2958 0.2283
H8D H 0.1084 -0.2958 0.2717
C11J C 0.0000 0.5000 0.5332(5)
C12B C 0.0000 -0.2830(5) 0.2500
O18 O 0.6208(9) 0.1710(12) 0.5660(10)
O19 O 0.6233(14) 0.2961(14) 0.5963(14)
O20 O 0.2462(13) 0.1264(13) 0.1103(14)
O21 O 0.2427(14) 0.0550(10) 0.0000
Si1 Si 0.2500 0.2500 0.5000
W1 W 0.10228(3) 0.319420(17) 0.578821(17)
W2 W 0.2500 0.2500 0.65799(2)
W3 W 0.28141(2) 0.385747(18) 0.579168(17)
W4 W 0.42883(4) 0.31635(3) 0.5000
O1 O 0.2704(6) 0.4156(9) 0.5000
O2 O 0.0313(4) 0.3520(3) 0.6159(3)
O3 O 0.2948(5) 0.4493(3) 0.6179(4)
O4 O 0.5134(5) 0.3466(4) 0.5000
O5 O 0.2500 0.2500 0.7335(5)
O6 O 0.2864(4) 0.3288(3) 0.6425(5)
O7 O 0.0590(9) 0.2446(4) 0.5588(4)
O8 O 0.3792(5) 0.3618(6) 0.5587(4)
O9 O 0.1537(4) 0.2794(3) 0.6416(5)
O10 O 0.2661(7) 0.2146(5) 0.5591(5)
O11 O 0.3410(10) 0.2351(7) 0.5000
O12 O 0.0815(12) 0.3458(6) 0.5000
O13 O 0.1762(4) 0.3796(4) 0.5826(4)
O14 O 0.2891(9) 0.3147(7) 0.5000
W1E W 0.39772(3) 0.180580(17) 0.578821(17)
W1I W 0.39772(3) 0.180580(17) 0.421179(17)
W1J W 0.10228(3) 0.319420(17) 0.421179(17)
W2J W 0.2500 0.2500 0.34201(2)
W3E W 0.21859(2) 0.114253(18) 0.579168(17)
W3I W 0.21859(2) 0.114253(18) 0.420832(17)
W3J W 0.28141(2) 0.385747(18) 0.420832(17)
W4I W 0.07117(4) 0.18365(3) 0.5000
O1I O 0.2296(6) 0.0844(9) 0.5000
O2E O 0.4687(4) 0.1480(3) 0.6159(3)
O2I O 0.4687(4) 0.1480(3) 0.3841(3)
O2J O 0.0313(4) 0.3520(3) 0.3841(3)
O3E O 0.2052(5) 0.0507(3) 0.6179(4)
O3I O 0.2052(5) 0.0507(3) 0.3821(4)
O3J O 0.2948(5) 0.4493(3) 0.3821(4)
O4I O -0.0134(5) 0.1534(4) 0.5000
O5J O 0.2500 0.2500 0.2665(5)
O6E O 0.2136(4) 0.1712(3) 0.6425(5)
O6J O 0.2864(4) 0.3288(3) 0.3575(5)
O6I O 0.2136(4) 0.1712(3) 0.3575(5)
O7I O 0.4410(9) 0.2554(4) 0.4412(4)
O7E O 0.4410(9) 0.2554(4) 0.5588(4)
O7J O 0.0590(9) 0.2446(4) 0.4412(4)
O8J O 0.3792(5) 0.3618(6) 0.4413(4)
O8I O 0.1208(5) 0.1382(6) 0.4413(4)
O8E O 0.1208(5) 0.1382(6) 0.5587(4)
O9E O 0.3463(4) 0.2206(3) 0.6416(5)
O9J O 0.1537(4) 0.2794(3) 0.3584(5)
O9I O 0.3463(4) 0.2206(3) 0.3584(5)
O10E O 0.2339(7) 0.2854(5) 0.5591(5)
O10J O 0.2661(7) 0.2146(5) 0.4409(5)
O10I O 0.2339(7) 0.2854(5) 0.4409(5)
O11I O 0.1590(10) 0.2649(7) 0.5000
O12I O 0.4185(12) 0.1542(6) 0.5000
O13E O 0.3238(4) 0.1204(4) 0.5826(4)
O13I O 0.3238(4) 0.1204(4) 0.4174(4)
O13J O 0.1762(4) 0.3796(4) 0.4174(4)
O14I O 0.2109(9) 0.1853(7) 0.5000
loop_
_geom_bond_atom_site_label_1
_geom_bond_atom_site_label_2
_geom_bond_site_symmetry_1
_geom_bond_site_symmetry_2
Si1 O10 1_555 1_555
W1 O2 1_555 1_555
W2 O5 1_555 1_555
W3 O1 1_555 1_555
W4 O4 1_555 1_555
O1 W3J 1_555 1_555
O3 W3 1_555 1_555
O6 W2 1_555 1_555
O7 W1 1_555 1_555
O8 W3 1_555 1_555
O9 W1 1_555 1_555
O10 W2 1_555 1_555
O11 Si1 1_555 1_555
O12 W1 1_555 1_555
O13 W1 1_555 1_555
O14 Si1 1_555 1_555
O17 Cu1 1_555 1_555
Cu1 N1 1_555 1_555
Cu2 N3 1_555 1_555
N1 C1 1_555 1_555
N2 Cu1 1_555 1_555
N3 C9 1_555 1_555
N4 Cu2 1_555 1_555
C1 H1 1_555 1_555
C2 N2 1_555 1_555
H2 C2 1_555 1_555
C3 C2 1_555 1_555
H3 C3 1_555 1_555
C4 C1 1_555 1_555
H4 C4 1_555 1_555
C5 C4 1_555 1_555
C6 C3 1_555 1_555
C7 N4 1_555 1_555
H5 C7 1_555 1_555
C8 C7 1_555 1_555
H6 C8 1_555 1_555
C9 H7 1_555 1_555
C10 C9 1_555 1_555
H8 C10 1_555 1_555
C11 C8 1_555 1_555
C12 C6 1_555 1_555
W1E O11 1_555 1_555
W1I O11 1_555 1_555
W1J O12 1_555 1_555
W2J O5J 1_555 1_555
W3E O10 1_555 1_555
W3I O1I 1_555 1_555
W3J O14 1_555 1_555
W4I O7 1_555 1_555
O1I W3E 1_555 1_555
O2E W1E 1_555 1_555
O2I W1I 1_555 1_555
O2J W1J 1_555 1_555
O3E W3E 1_555 1_555
O3I W3I 1_555 1_555
O3J W3J 1_555 1_555
O4I W4I 1_555 1_555
O6E W2 1_555 1_555
O6J W2J 1_555 1_555
O6I W2J 1_555 1_555
O7I W4 1_555 1_555
O7E W4 1_555 1_555
O7J W1J 1_555 1_555
O8J W4 1_555 1_555
O8I W3I 1_555 1_555
O8E W3E 1_555 1_555
O9E W2 1_555 1_555
O9J W1J 1_555 1_555
O9I W1I 1_555 1_555
O10E Si1 1_555 1_555
O10J Si1 1_555 1_555
O10I Si1 1_555 1_555
O11I Si1 1_555 1_555
O12I W1E 1_555 1_555
O13E W1E 1_555 1_555
O13I W1I 1_555 1_555
O13J W1J 1_555 1_555
O14I Si1 1_555 1_555
O17B Cu1 1_555 1_555
Cu1J N1J 1_555 1_555
Cu2J N4J 1_555 1_555
Cu2_2 N3B 1_555 1_555
N1J C1J 1_555 1_555
N1C Cu1 1_555 1_555
N2B Cu1 1_555 1_555
N3B C9B 1_555 1_555
N3B_2 Cu2 1_555 1_555
N4J C7J 1_555 1_555
N4C Cu2 1_555 1_555
C1B N1 1_555 1_555
C1J H1J 1_555 1_555
C1H N1J 1_555 1_555
H1B C1B 1_555 1_555
H1H C1H 1_555 1_555
C2C N2 1_555 1_555
C2B N2B 1_555 1_555
C2D N2B 1_555 1_555
H2C C2C 1_555 1_555
H2B C2B 1_555 1_555
H2D C2D 1_555 1_555
C3C C6 1_555 1_555
C3B C2B 1_555 1_555
C3D C2D 1_555 1_555
H3C C3C 1_555 1_555
H3B C3B 1_555 1_555
H3D C3D 1_555 1_555
C4B C5 1_555 1_555
C4J C1J 1_555 1_555
C4H C1H 1_555 1_555
H4B C4B 1_555 1_555
H4H C4H 1_555 1_555
H4J C4J 1_555 1_555
C5J C5 1_555 1_555
C6B C3B 1_555 1_555
C7B N4 1_555 1_555
C7J H5J 1_555 1_555
C7H N4J 1_555 1_555
H5B C7B 1_555 1_555
H5H C7H 1_555 1_555
C8B C11 1_555 1_555
C8J C7J 1_555 1_555
C8H C7H 1_555 1_555
H6B C8B 1_555 1_555
H6H C8H 1_555 1_555
H6J C8J 1_555 1_555
C9C N3 1_555 1_555
C9B H7B 1_555 1_555
C9D N3B 1_555 1_555
H7C C9C 1_555 1_555
H7D C9D 1_555 1_555
C10C C12 1_555 1_555
C10B C9B 1_555 1_555
C10D C9D 1_555 1_555
H8C C10C 1_555 1_555
H8B C10B 1_555 1_555
H8D C10D 1_555 1_555
C11J C11 1_555 1_555
C12B C6B 1_555 1_555
W1 O11I 1_555 1_555
W2 O9 1_555 1_555
W2 O10E 1_555 1_555
W3 O6 1_555 1_555
W3 O13 1_555 1_555
W3 O14 1_555 1_555
W3 O10E 1_555 1_555
W4 O8 1_555 1_555
W4 O11 1_555 1_555
O10 O10E 1_555 1_555
C10 C12 1_555 1_555
W1E O7E 1_555 1_555
W1E O9E 1_555 1_555
W1I O7I 1_555 1_555
W1I O12I 1_555 1_555
W1J O11I 1_555 1_555
W2J O9J 1_555 1_555
W2J O9I 1_555 1_555
W2J O10J 1_555 1_555
W2J O10I 1_555 1_555
W3E O6E 1_555 1_555
W3E O13E 1_555 1_555
W3E O14I 1_555 1_555
W3I O6I 1_555 1_555
W3I O10J 1_555 1_555
W3I O13I 1_555 1_555
W3I O14I 1_555 1_555
W3J O6J 1_555 1_555
W3J O8J 1_555 1_555
W3J O10I 1_555 1_555
W3J O13J 1_555 1_555
W4I O7J 1_555 1_555
W4I O8I 1_555 1_555
W4I O8E 1_555 1_555
W4I O11I 1_555 1_555
O10J O10I 1_555 1_555
C1B C4B 1_555 1_555
C2C C3C 1_555 1_555
C3D C6B 1_555 1_555
C4J C5J 1_555 1_555
C4H C5J 1_555 1_555
C7B C8B 1_555 1_555
C8J C11J 1_555 1_555
C8H C11J 1_555 1_555
C9C C10C 1_555 1_555
C10B C12B 1_555 1_555
C10D C12B 1_555 1_555

#END
