
#######################################################################
#
#                 Cambridge Crystallographic Data Centre
#                                CCDC 
#
#######################################################################
#
# If this CIF has been generated from an entry in the Cambridge 
# Structural Database, then it will include bibliographic, chemical, 
# crystal, experimental, refinement or atomic coordinate data resulting 
# from the CCDC's data processing and validation procedures.
#
#######################################################################

data_DEYHUL
_symmetry_cell_setting           orthorhombic
_symmetry_space_group_name_H-M   'C m c 21'
_symmetry_Int_Tables_number      36
_space_group_name_Hall           'C 2n -2'
loop_
_symmetry_equiv_pos_site_id
_symmetry_equiv_pos_as_xyz
1 x,y,z
2 -x,-y,1/2+z
3 x,-y,1/2+z
4 -x,y,z
5 1/2+x,1/2+y,z
6 1/2-x,1/2-y,1/2+z
7 1/2+x,1/2-y,1/2+z
8 1/2-x,1/2+y,z
_cell_length_a                   22.768(5)
_cell_length_b                   22.145(4)
_cell_length_c                   17.048(3)
_cell_angle_alpha                90
_cell_angle_beta                 90
_cell_angle_gamma                90
_cell_volume                     8595.56
loop_
_atom_site_label
_atom_site_type_symbol
_atom_site_fract_x
_atom_site_fract_y
_atom_site_fract_z
Si1 Si 0.5000 0.7524(3) 0.9656(6)
W1 W 0.57956(3) 0.69955(3) 0.79852(5)
W2 W 0.57400(3) 0.80332(3) 1.13262(5)
W3 W 0.5000 0.84334(4) 0.79272(8)
W4 W 0.65300(2) 0.74979(3) 0.95908(7)
W5 W 0.57971(3) 0.61611(3) 0.96592(5)
W6 W 0.5000 0.67069(4) 1.13866(8)
W7 W 0.57388(3) 0.89352(3) 0.95154(5)
O1 O 0.6295(5) 0.8307(4) 0.9379(8)
O2 O 0.6175(6) 0.8336(6) 1.2000(10)
O3 O 0.6273(5) 0.7654(5) 1.0631(8)
O4 O 0.5702(5) 0.8653(4) 1.0571(8)
O5 O 0.5561(5) 0.6410(5) 1.0691(7)
O6 O 0.5919(5) 0.6264(5) 0.8544(8)
O7 O 0.6496(5) 0.7307(5) 0.8506(8)
O8 O 0.6187(5) 0.9546(4) 0.9585(11)
O9 O 0.5574(5) 0.7246(5) 1.1787(7)
O10 O 0.5000 0.8280(7) 1.1765(11)
O11 O 0.5000 0.6004(6) 0.9466(13)
O12 O 0.5000 0.6212(7) 1.2137(15)
O13 O 0.5569(6) 0.7805(5) 0.7858(8)
O14 O 0.5000 0.9372(6) 0.9668(13)
O15 O 0.6099(6) 0.5478(5) 0.9789(10)
O16 O 0.5583(4) 0.7191(4) 0.9342(7)
O17 O 0.5000 0.6788(7) 0.7910(15)
O18 O 0.7269(4) 0.7573(5) 0.9682(11)
O19 O 0.5000 0.8741(7) 0.7031(12)
O20 O 0.5000 0.7563(5) 1.0588(9)
O21 O 0.6094(7) 0.6787(6) 0.7112(10)
O22 O 0.6495(5) 0.6657(4) 0.9838(9)
O23 O 0.5588(5) 0.8952(4) 0.8404(7)
O24 O 0.5000 0.8227(5) 0.9271(8)
W1C W 0.42044(3) 0.69955(3) 0.79852(5)
W2C W 0.42600(3) 0.80332(3) 1.13262(5)
W4C W 0.34700(2) 0.74979(3) 0.95908(7)
W5C W 0.42029(3) 0.61611(3) 0.96592(5)
W7C W 0.42612(3) 0.89352(3) 0.95154(5)
O1C O 0.3705(5) 0.8307(4) 0.9379(8)
O2C O 0.3825(6) 0.8336(6) 1.2000(10)
O3C O 0.3727(5) 0.7654(5) 1.0631(8)
O4C O 0.4298(5) 0.8653(4) 1.0571(8)
O5C O 0.4439(5) 0.6410(5) 1.0691(7)
O6C O 0.4081(5) 0.6264(5) 0.8544(8)
O7C O 0.3504(5) 0.7307(5) 0.8506(8)
O8C O 0.3813(5) 0.9546(4) 0.9585(11)
O9C O 0.4426(5) 0.7246(5) 1.1787(7)
O13C O 0.4431(6) 0.7805(5) 0.7858(8)
O15C O 0.3901(6) 0.5478(5) 0.9789(10)
O16C O 0.4417(4) 0.7191(4) 0.9342(7)
O18C O 0.2731(4) 0.7573(5) 0.9682(11)
O21C O 0.3906(7) 0.6787(6) 0.7112(10)
O22C O 0.3505(5) 0.6657(4) 0.9838(9)
O23C O 0.4412(5) 0.8952(4) 0.8404(7)
Cu1 Cu -0.74983(12) 0.51899(5) 0.7106(2)
O25 O -0.7490(5) 0.5078(5) 0.8534(10)
O26 O -0.7516(5) 0.5111(6) 0.5640(10)
N1 N -0.7490(8) 0.4284(4) 0.7092(12)
N2 N -0.8423(5) 0.5196(5) 0.7152(10)
N3 N -0.6563(7) 0.5195(5) 0.7127(13)
N4 N -0.7499(8) 0.1095(4) 0.7114(14)
C1 C -0.7866(7) 0.3962(7) 0.7530(13)
H1 H -0.8136 0.4179 0.7828
C2 C -0.7476(11) 0.3023(5) 0.7102(16)
C3 C -0.7893(8) 0.3335(6) 0.7583(12)
H2 H -0.8159 0.3135 0.7904
C4 C -0.7092(8) 0.3348(6) 0.6686(13)
H3 H -0.6819 0.3145 0.6377
C5 C -0.7082(8) 0.3965(6) 0.6695(13)
H4 H -0.6789 0.4169 0.6422
C6 C -0.6246(9) 0.5099(11) 0.7768(17)
H5 H -0.6441 0.5070 0.8245
C7 C -0.9368(7) 0.5294(8) 0.7783(15)
H6 H -0.9566 0.5374 0.8249
C8 C -0.5661(8) 0.5312(9) 0.6390(19)
H7 H -0.5475 0.5395 0.5917
C9 C -0.9345(8) 0.5109(8) 0.6530(17)
H8 H -0.9544 0.5059 0.6058
C10 C -0.7494(10) 0.2357(4) 0.7078(14)
C11 C -0.8744(8) 0.5293(8) 0.7791(15)
H9 H -0.8552 0.5364 0.8264
C12 C -0.8748(7) 0.5091(8) 0.6513(12)
H10 H -0.8560 0.5004 0.6043
C13 C -0.5634(7) 0.5038(9) 0.7767(13)
H11 H -0.5435 0.4900 0.8208
C14 C -0.6252(8) 0.5303(8) 0.6441(16)
H12 H -0.6466 0.5373 0.5986
C15 C -0.7462(9) 0.2037(7) 0.7806(15)
H13 H -0.7441 0.2247 0.8277
C16 C -0.5331(7) 0.5192(5) 0.7075(11)
C17 C -0.7524(7) 0.1400(6) 0.6428(12)
H14 H -0.7548 0.1190 0.5957
C18 C -0.9664(7) 0.5193(6) 0.7178(15)
C19 C -0.7463(7) 0.1405(6) 0.7803(16)
H15 H -0.7439 0.1196 0.8274
C20 C -0.7516(8) 0.2030(7) 0.6427(15)
H16 H -0.7527 0.2230 0.5947
Cu1G Cu -0.75017(12) 0.01899(5) 0.7106(2)
Cu1C Cu -1.25017(12) 0.51899(5) 0.7106(2)
Cu1C_2 Cu -0.25017(12) 0.51899(5) 0.7106(2)
Cu1D Cu -0.24983(12) 0.01899(5) 0.7106(2)
O25C O -0.2510(5) 0.5078(5) 0.8534(10)
O26C O -0.2484(5) 0.5111(6) 0.5640(10)
N1C N -0.2510(8) 0.4284(4) 0.7092(12)
N2C N -1.1577(5) 0.5196(5) 0.7152(10)
N2C_2 N -0.1577(5) 0.5196(5) 0.7152(10)
N3C N -0.3437(7) 0.5195(5) 0.7127(13)
N4G N -0.7501(8) 0.6095(4) 0.7114(14)
N4D N -0.2499(8) 0.6095(4) 0.7114(14)
N4C N -0.2501(8) 0.1095(4) 0.7114(14)
C1C C -0.2134(7) 0.3962(7) 0.7530(13)
H1C H -0.1864 0.4179 0.7828
C2C C -0.2524(11) 0.3023(5) 0.7102(16)
C3C C -0.2107(8) 0.3335(6) 0.7583(12)
H2C H -0.1841 0.3135 0.7904
C4C C -0.2908(8) 0.3348(6) 0.6686(13)
H3C H -0.3181 0.3145 0.6377
C5C C -0.2918(8) 0.3965(6) 0.6695(13)
H4C H -0.3211 0.4169 0.6422
C6C C -0.3754(9) 0.5099(11) 0.7768(17)
H5C H -0.3559 0.5070 0.8245
C7C C -1.0632(7) 0.5294(8) 0.7783(15)
H6C H -1.0434 0.5374 0.8249
C8C C -0.4339(8) 0.5312(9) 0.6390(19)
H7C H -0.4525 0.5395 0.5917
C9C C -1.0655(8) 0.5109(8) 0.6530(17)
H8C H -1.0456 0.5059 0.6058
C10C C -0.2506(10) 0.2357(4) 0.7078(14)
C11C C -1.1256(8) 0.5293(8) 0.7791(15)
H9C H -1.1448 0.5364 0.8264
C12C C -1.1252(7) 0.5091(8) 0.6513(12)
H10C H -1.1440 0.5004 0.6043
C13C C -0.4366(7) 0.5038(9) 0.7767(13)
H11C H -0.4565 0.4900 0.8208
C14C C -0.3748(8) 0.5303(8) 0.6441(16)
H12C H -0.3534 0.5373 0.5986
C15C C -0.2538(9) 0.2037(7) 0.7806(15)
H13C H -0.2559 0.2247 0.8277
C16C C -0.4669(7) 0.5192(5) 0.7075(11)
C17C C -0.2476(7) 0.1400(6) 0.6428(12)
H14C H -0.2452 0.1190 0.5957
C18C C -1.0336(7) 0.5193(6) 0.7178(15)
C19C C -0.2537(7) 0.1405(6) 0.7803(16)
H15C H -0.2561 0.1196 0.8274
C20C C -0.2484(8) 0.2030(7) 0.6427(15)
H16C H -0.2473 0.2230 0.5947
O27 O 0.2541(5) 0.4077(4) 0.4736(9)
O28 O 0.7586(7) 0.5980(6) 0.4426(12)
N5 N 0.6558(9) 0.6527(12) 0.444(2)
C21 C 0.6254(17) 0.6640(13) 0.499(3)
H17 H 0.6483 0.6674 0.5440
C22 C 0.5621(15) 0.6747(13) 0.5198(18)
H18 H 0.5458 0.6865 0.5674
C23 C 0.5312(11) 0.6610(9) 0.441(2)
C24 C 0.5665(8) 0.6553(12) 0.3835(18)
H19 H 0.5470 0.6536 0.3357
C25 C 0.6262(11) 0.651(2) 0.375(3)
H20 H 0.6447 0.6471 0.3266
N5C N 0.3442(9) 0.6527(12) 0.444(2)
C21C C 0.3746(17) 0.6640(13) 0.499(3)
H17C H 0.3517 0.6674 0.5440
C22C C 0.4379(15) 0.6747(13) 0.5198(18)
H18C H 0.4542 0.6865 0.5674
C23C C 0.4688(11) 0.6610(9) 0.441(2)
C24C C 0.4335(8) 0.6553(12) 0.3835(18)
H19C H 0.4530 0.6536 0.3357
C25C C 0.3738(11) 0.651(2) 0.375(3)
H20C H 0.3553 0.6471 0.3266
C26 C 0.5332(9) 0.8330(8) 0.4707(15)
C27 C 0.5623(14) 0.836(3) 0.545(3)
H21 H 0.5442 0.8315 0.5934
C28 C 0.6264(15) 0.8469(17) 0.532(2)
H22 H 0.6476 0.8615 0.5750
N6 N 0.6537(10) 0.8386(11) 0.471(3)
C29 C 0.6248(15) 0.8282(12) 0.4059(19)
H23 H 0.6435 0.8197 0.3586
C30 C 0.5668(11) 0.8307(13) 0.4127(18)
H24 H 0.5472 0.8309 0.3649
C26C C 0.4668(9) 0.8330(8) 0.4707(15)
C27C C 0.4377(14) 0.836(3) 0.545(3)
H21C H 0.4558 0.8315 0.5934
C28C C 0.3736(15) 0.8469(17) 0.532(2)
H22C H 0.3524 0.8615 0.5750
N6C N 0.3463(10) 0.8386(11) 0.471(3)
C29C C 0.3752(15) 0.8282(12) 0.4059(19)
H23C H 0.3565 0.8197 0.3586
C30C C 0.4332(11) 0.8307(13) 0.4127(18)
H24C H 0.4528 0.8309 0.3649
loop_
_geom_bond_atom_site_label_1
_geom_bond_atom_site_label_2
_geom_bond_site_symmetry_1
_geom_bond_site_symmetry_2
Si1 O16 1_555 1_555
Cu1 O25 1_555 1_555
W1 O6 1_555 1_555
W2 O2 1_555 1_555
W3 O13 1_555 1_555
W4 O1 1_555 1_555
W5 O5 1_555 1_555
W6 O5 1_555 1_555
W7 O1 1_555 1_555
O3 W2 1_555 1_555
O4 W2 1_555 1_555
O6 W5 1_555 1_555
O7 W1 1_555 1_555
O8 W7 1_555 1_555
O9 W2 1_555 1_555
O10 W2 1_555 1_555
O11 W5 1_555 1_555
O12 W6 1_555 1_555
O13 W1 1_555 1_555
O14 W7 1_555 1_555
O15 W5 1_555 1_555
O16 W1 1_555 1_555
O17 W1 1_555 1_555
O18 W4 1_555 1_555
O19 W3 1_555 1_555
O20 Si1 1_555 1_555
O21 W1 1_555 1_555
O22 W4 1_555 1_555
O23 W3 1_555 1_555
O24 Si1 1_555 1_555
O26 Cu1 1_555 1_555
N1 Cu1 1_555 1_555
N2 Cu1 1_555 1_555
N3 Cu1 1_555 1_555
N4 C17 1_555 1_555
C1 N1 1_555 1_555
H1 C1 1_555 1_555
C2 C3 1_555 1_555
C3 C1 1_555 1_555
H2 C3 1_555 1_555
C4 C2 1_555 1_555
H3 C4 1_555 1_555
C5 N1 1_555 1_555
H4 C5 1_555 1_555
C6 N3 1_555 1_555
H5 C6 1_555 1_555
C7 H6 1_555 1_555
C8 H7 1_555 1_555
C9 H8 1_555 1_555
C10 C2 1_555 1_555
C11 N2 1_555 1_555
H9 C11 1_555 1_555
C12 N2 1_555 1_555
H10 C12 1_555 1_555
C13 C6 1_555 1_555
H11 C13 1_555 1_555
C14 N3 1_555 1_555
H12 C14 1_555 1_555
C15 C10 1_555 1_555
H13 C15 1_555 1_555
C16 C8 1_555 1_555
C17 H14 1_555 1_555
C18 C7 1_555 1_555
C19 N4 1_555 1_555
H15 C19 1_555 1_555
C20 C10 1_555 1_555
H16 C20 1_555 1_555
N5 C21 1_555 1_555
C21 H17 1_555 1_555
C22 C21 1_555 1_555
H18 C22 1_555 1_555
C23 C22 1_555 1_555
C24 C23 1_555 1_555
H19 C24 1_555 1_555
C25 N5 1_555 1_555
H20 C25 1_555 1_555
C26 C27 1_555 1_555
C27 H21 1_555 1_555
C28 C27 1_555 1_555
H22 C28 1_555 1_555
N6 C28 1_555 1_555
C29 N6 1_555 1_555
H23 C29 1_555 1_555
C30 C26 1_555 1_555
H24 C30 1_555 1_555
Cu1G N4 1_555 1_555
Cu1C N2C 1_555 1_555
Cu1C_2 O25C 1_555 1_555
Cu1D N4C 1_555 1_555
W1C O17 1_555 1_555
W2C O10 1_555 1_555
W4C O1C 1_555 1_555
W5C O11 1_555 1_555
W7C O14 1_555 1_555
O1C W7C 1_555 1_555
O2C W2C 1_555 1_555
O3C W2C 1_555 1_555
O4C W2C 1_555 1_555
O5C W6 1_555 1_555
O6C W1C 1_555 1_555
O7C W1C 1_555 1_555
O8C W7C 1_555 1_555
O9C W6 1_555 1_555
O13C W3 1_555 1_555
O15C W5C 1_555 1_555
O16C Si1 1_555 1_555
O18C W4C 1_555 1_555
O21C W1C 1_555 1_555
O22C W4C 1_555 1_555
O23C W3 1_555 1_555
O26C Cu1C_2 1_555 1_555
N1C Cu1C_2 1_555 1_555
N2C C11C 1_555 1_555
N2C_2 Cu1C_2 1_555 1_555
N3C Cu1C_2 1_555 1_555
N4G Cu1 1_555 1_555
N4D Cu1C_2 1_555 1_555
N4C C17C 1_555 1_555
C1C N1C 1_555 1_555
H1C C1C 1_555 1_555
C2C C3C 1_555 1_555
C3C C1C 1_555 1_555
H2C C3C 1_555 1_555
C4C C2C 1_555 1_555
H3C C4C 1_555 1_555
C5C N1C 1_555 1_555
H4C C5C 1_555 1_555
C6C N3C 1_555 1_555
H5C C6C 1_555 1_555
C7C H6C 1_555 1_555
C8C H7C 1_555 1_555
C9C H8C 1_555 1_555
C10C C2C 1_555 1_555
C11C C7C 1_555 1_555
H9C C11C 1_555 1_555
C12C N2C 1_555 1_555
H10C C12C 1_555 1_555
C13C C6C 1_555 1_555
H11C C13C 1_555 1_555
C14C N3C 1_555 1_555
H12C C14C 1_555 1_555
C15C C10C 1_555 1_555
H13C C15C 1_555 1_555
C16C C16 1_555 1_555
C17C H14C 1_555 1_555
C18C C18 1_555 1_555
C19C N4C 1_555 1_555
H15C C19C 1_555 1_555
C20C C10C 1_555 1_555
H16C C20C 1_555 1_555
N5C C21C 1_555 1_555
C21C H17C 1_555 1_555
C22C C21C 1_555 1_555
H18C C22C 1_555 1_555
C23C C23 1_555 1_555
C24C C23C 1_555 1_555
H19C C24C 1_555 1_555
C25C N5C 1_555 1_555
H20C C25C 1_555 1_555
C26C C26 1_555 1_555
C27C C26C 1_555 1_555
H21C C27C 1_555 1_555
C28C C27C 1_555 1_555
H22C C28C 1_555 1_555
N6C C28C 1_555 1_555
C29C N6C 1_555 1_555
H23C C29C 1_555 1_555
C30C C26C 1_555 1_555
H24C C30C 1_555 1_555
W2 O20 1_555 1_555
W3 O24 1_555 1_555
W4 O3 1_555 1_555
W4 O7 1_555 1_555
W4 O16 1_555 1_555
W5 O16 1_555 1_555
W5 O22 1_555 1_555
W6 O9 1_555 1_555
W6 O20 1_555 1_555
W7 O4 1_555 1_555
W7 O23 1_555 1_555
W7 O24 1_555 1_555
O20 W2C 1_555 1_555
O24 W7C 1_555 1_555
C4 C5 1_555 1_555
C7 C11 1_555 1_555
C8 C14 1_555 1_555
C9 C12 1_555 1_555
C9 C18 1_555 1_555
C13 C16 1_555 1_555
C15 C19 1_555 1_555
C17 C20 1_555 1_555
C24 C25 1_555 1_555
C29 C30 1_555 1_555
W1C O13C 1_555 1_555
W1C O16C 1_555 1_555
W2C O9C 1_555 1_555
W4C O3C 1_555 1_555
W4C O7C 1_555 1_555
W4C O16C 1_555 1_555
W5C O5C 1_555 1_555
W5C O6C 1_555 1_555
W5C O16C 1_555 1_555
W5C O22C 1_555 1_555
W7C O4C 1_555 1_555
W7C O23C 1_555 1_555
C4C C5C 1_555 1_555
C7C C18C 1_555 1_555
C8C C14C 1_555 1_555
C8C C16C 1_555 1_555
C9C C12C 1_555 1_555
C9C C18C 1_555 1_555
C13C C16C 1_555 1_555
C15C C19C 1_555 1_555
C17C C20C 1_555 1_555
C22C C23C 1_555 1_555
C24C C25C 1_555 1_555
C29C C30C 1_555 1_555

#END
