
#######################################################################
#
#                 Cambridge Crystallographic Data Centre
#                                CCDC 
#
#######################################################################
#
# If this CIF has been generated from an entry in the Cambridge 
# Structural Database, then it will include bibliographic, chemical, 
# crystal, experimental, refinement or atomic coordinate data resulting 
# from the CCDC's data processing and validation procedures.
#
#######################################################################

data_DEYHEW
_symmetry_cell_setting           triclinic
_symmetry_space_group_name_H-M   'P -1'
_symmetry_Int_Tables_number      2
_space_group_name_Hall           '-P 1'
loop_
_symmetry_equiv_pos_site_id
_symmetry_equiv_pos_as_xyz
1 x,y,z
2 -x,-y,-z
_cell_length_a                   8.1297(19)
_cell_length_b                   10.239(2)
_cell_length_c                   15.439(4)
_cell_angle_alpha                85.849(3)
_cell_angle_beta                 84.128(4)
_cell_angle_gamma                83.612(4)
_cell_volume                     1268.04
loop_
_atom_site_label
_atom_site_type_symbol
_atom_site_fract_x
_atom_site_fract_y
_atom_site_fract_z
Cd1 Cd 0.15868(3) 0.66876(2) 0.356964(16)
O1 O 0.1973(3) 0.9204(2) 0.35945(17)
O2 O 0.0137(3) 0.8423(2) 0.28728(18)
O3 O -0.1942(4) 1.2371(3) 0.09350(19)
H1 H -0.1857 1.1697 0.0670
O4 O 0.0476(4) 1.5378(2) 0.27012(18)
O5 O 0.1341(3) 1.4212(2) 0.38406(16)
O6 O 0.3899(4) 0.6642(3) 0.25508(19)
H2 H 0.4032 0.5888 0.2329
H3 H 0.4784 0.7002 0.2592
O7 O -0.0696(4) 0.7097(3) 0.46009(18)
H4 H -0.0955 0.6715 0.5088
H5 H -0.1015 0.7902 0.4523
N1 N 0.3249(4) 0.6448(3) 0.47085(19)
N2 N 0.5340(4) 0.6041(3) 0.77513(19)
N3 N 0.5863(4) 0.6613(3) 0.84461(19)
N4 N 0.5287(3) 0.8163(3) 0.74365(18)
N5 N 0.4979(4) 0.9380(3) 0.69522(19)
H6 H 0.5950 0.9716 0.6902
H7 H 0.4155 0.9867 0.7241
N6 N 0.7633(4) 1.0414(3) 0.9937(2)
C1 C 0.3445(4) 0.5796(3) 0.6217(2)
H8 H 0.3156 0.5232 0.6695
C2 C 0.2870(4) 0.5675(3) 0.5421(2)
H9 H 0.2181 0.5021 0.5376
C3 C 0.4335(4) 0.7321(3) 0.4775(2)
H10 H 0.4682 0.7816 0.4274
C4 C 0.4962(4) 0.7527(3) 0.5540(2)
H11 H 0.5702 0.8153 0.5554
C5 C 0.4471(4) 0.6783(3) 0.6295(2)
C6 C 0.5016(4) 0.6982(3) 0.7147(2)
C7 C 0.5822(4) 0.7879(3) 0.8252(2)
C8 C 0.6397(4) 0.8809(3) 0.8817(2)
C9 C 0.6057(5) 1.0162(4) 0.8746(2)
H12 H 0.5404 1.0565 0.8322
C10 C 0.6697(6) 1.0906(4) 0.9313(3)
H13 H 0.6456 1.1815 0.9253
C11 C 0.7963(5) 0.9099(4) 1.0009(3)
H14 H 0.8611 0.8726 1.0444
C12 C 0.7382(5) 0.8273(4) 0.9467(2)
H15 H 0.7647 0.7367 0.9536
C13 C 0.0245(4) 1.0738(3) 0.2750(2)
C14 C -0.0655(4) 1.0892(3) 0.2026(2)
H16 H -0.0962 1.0157 0.1789
C15 C -0.1099(4) 1.2144(3) 0.1656(2)
C16 C -0.0654(4) 1.3238(3) 0.2024(2)
H17 H -0.0947 1.4077 0.1777
C17 C 0.0225(4) 1.3090(3) 0.2757(2)
C18 C 0.0682(4) 1.1830(3) 0.3122(2)
H18 H 0.1274 1.1723 0.3611
C19 C 0.0823(4) 0.9370(3) 0.3105(2)
C20 C 0.0713(4) 1.4301(3) 0.3126(2)
Cd1_2 Cd 0.15868(3) 1.66876(2) 0.356964(16)
O4_2 O 0.0476(4) 0.5378(2) 0.27012(18)
O5_2 O 0.1341(3) 0.4212(2) 0.38406(16)
O8 O 0.6871(4) 0.8008(4) 0.2511(3)
H19 H 0.7210 0.7938 0.3010
H20 H 0.7378 0.7538 0.2124
O9 O 0.7874(5) 0.9706(3) 0.4739(2)
H21 H 0.7368 1.0062 0.4321
H22 H 0.7972 1.0145 0.5166
O10 O 0.7543(14) 0.6335(10) 0.1264(7)
O13 O 0.675(2) 0.4884(17) 0.0103(11)
O11? O 0.912(2) 0.6610(14) 0.1170(10)
O12? O 1.0571(18) 0.6358(14) 0.0890(8)
loop_
_geom_bond_atom_site_label_1
_geom_bond_atom_site_label_2
_geom_bond_site_symmetry_1
_geom_bond_site_symmetry_2
Cd1 O1 1_555 1_555
O1 C19 1_555 1_555
O2 Cd1 1_555 1_555
O3 H1 1_555 1_555
O4 C20 1_555 1_555
O5 C20 1_555 1_555
O6 Cd1 1_555 1_555
H2 O6 1_555 1_555
H3 O6 1_555 1_555
O7 Cd1 1_555 1_555
H4 O7 1_555 1_555
H5 O7 1_555 1_555
N1 Cd1 1_555 1_555
N2 N3 1_555 1_555
N3 C7 1_555 1_555
N4 N5 1_555 1_555
N5 H6 1_555 1_555
H7 N5 1_555 1_555
N6 C10 1_555 1_555
C1 H8 1_555 1_555
C2 N1 1_555 1_555
H9 C2 1_555 1_555
C3 N1 1_555 1_555
H10 C3 1_555 1_555
C4 C3 1_555 1_555
H11 C4 1_555 1_555
C5 C1 1_555 1_555
C6 N2 1_555 1_555
C7 N4 1_555 1_555
C8 C7 1_555 1_555
C9 C8 1_555 1_555
H12 C9 1_555 1_555
C10 C9 1_555 1_555
H13 C10 1_555 1_555
C11 N6 1_555 1_555
H14 C11 1_555 1_555
C12 C8 1_555 1_555
H15 C12 1_555 1_555
C13 C14 1_555 1_555
C14 H16 1_555 1_555
C15 O3 1_555 1_555
C16 C15 1_555 1_555
H17 C16 1_555 1_555
C17 C16 1_555 1_555
C18 C13 1_555 1_555
H18 C18 1_555 1_555
C19 O2 1_555 1_555
C20 C17 1_555 1_555
O8 H19 1_555 1_555
H20 O8 1_555 1_555
O9 H21 1_555 1_555
H22 O9 1_555 1_555
Cd1_2 O4 1_555 1_555
O4_2 Cd1 1_555 1_555
O5_2 Cd1 1_555 1_555
O5 Cd1_2 1_555 1_555
N4 C6 1_555 1_555
C1 C2 1_555 1_555
C4 C5 1_555 1_555
C5 C6 1_555 1_555
C11 C12 1_555 1_555
C13 C19 1_555 1_555
C14 C15 1_555 1_555
C17 C18 1_555 1_555

#END
