
#######################################################################
#
#                 Cambridge Crystallographic Data Centre
#                                CCDC 
#
#######################################################################
#
# If this CIF has been generated from an entry in the Cambridge 
# Structural Database, then it will include bibliographic, chemical, 
# crystal, experimental, refinement or atomic coordinate data resulting 
# from the CCDC's data processing and validation procedures.
#
#######################################################################

data_DEYKOJ
_symmetry_cell_setting           monoclinic
_symmetry_space_group_name_H-M   'P 21/c'
_symmetry_Int_Tables_number      14
_space_group_name_Hall           '-P 2ybc'
loop_
_symmetry_equiv_pos_site_id
_symmetry_equiv_pos_as_xyz
1 x,y,z
2 -x,1/2+y,1/2-z
3 -x,-y,-z
4 x,1/2-y,1/2+z
_cell_length_a                   18.4823(19)
_cell_length_b                   24.555(3)
_cell_length_c                   9.1493(8)
_cell_angle_alpha                90
_cell_angle_beta                 96.7120(10)
_cell_angle_gamma                90
_cell_volume                     4123.79
loop_
_atom_site_label
_atom_site_type_symbol
_atom_site_fract_x
_atom_site_fract_y
_atom_site_fract_z
Ag1 Ag 0.49456(3) 0.518217(17) 0.82066(5)
N1 N 0.5015(3) 0.58249(16) 0.9825(5)
N2 N 0.4966(2) 0.95820(16) 0.8504(5)
O1 O 0.3505(2) 0.51304(14) 0.7847(5)
H1 H 0.3251 0.4960 0.8416
H2 H 0.3362 0.5459 0.7788
C1 C 0.5639(3) 0.6069(2) 1.0353(6)
H3 H 0.6075 0.5909 1.0165
C2 C 0.5671(3) 0.6540(2) 1.1152(6)
H4 H 0.6120 0.6692 1.1494
C3 C 0.5031(3) 0.6792(2) 1.1453(6)
C4 C 0.4387(3) 0.6535(2) 1.0916(6)
H5 H 0.3943 0.6685 1.1088
C5 C 0.4403(3) 0.6058(2) 1.0128(6)
H6 H 0.3963 0.5892 0.9791
C6 C 0.4345(3) 0.9411(2) 0.8951(6)
H7 H 0.3912 0.9555 0.8494
C7 C 0.4305(3) 0.9033(2) 1.0046(6)
H8 H 0.3856 0.8932 1.0323
C8 C 0.4940(3) 0.8805(2) 1.0732(6)
C9 C 0.5585(3) 0.8991(2) 1.0284(7)
H9 H 0.6026 0.8854 1.0722
C10 C 0.5579(3) 0.9376(2) 0.9205(7)
H10 H 0.6022 0.9501 0.8948
C11 C 0.5031(3) 0.7334(2) 1.2229(6)
H11 H 0.5479 0.7373 1.2885
H12 H 0.4627 0.7347 1.2816
C12 C 0.4962(3) 0.7803(2) 1.1118(6)
H13 H 0.5373 0.7793 1.0549
H14 H 0.4522 0.7754 1.0443
C13 C 0.4938(3) 0.8356(2) 1.1857(6)
H15 H 0.4502 0.8382 1.2348
H16 H 0.5358 0.8395 1.2592
Ag1A Ag 0.50544(3) 1.018217(17) 0.67934(5)
N2A N 0.5034(2) 0.45820(16) 0.6496(5)
Ag2 Ag 0.01643(3) 0.498132(17) 0.74433(5)
N3 N -0.0066(3) 0.55912(17) 0.9021(5)
N4 N -0.0192(2) 0.93547(16) 0.9189(5)
O2 O 0.1561(2) 0.50313(15) 0.7803(5)
H17 H 0.1880 0.4865 0.8382
H18 H 0.1667 0.5368 0.7819
C14 C 0.0486(3) 0.5839(2) 0.9830(6)
H19 H 0.0958 0.5722 0.9746
C15 C 0.0387(3) 0.6257(2) 1.0781(6)
H20 H 0.0789 0.6417 1.1321
C16 C -0.0305(3) 0.6443(2) 1.0941(6)
C17 C -0.0869(3) 0.6183(2) 1.0127(7)
H21 H -0.1347 0.6289 1.0200
C18 C -0.0728(3) 0.5762(2) 0.9196(7)
H22 H -0.1122 0.5589 0.8664
C19 C -0.0837(3) 0.9153(2) 0.9445(7)
H23 H -0.1257 0.9315 0.8982
C20 C -0.0909(3) 0.8715(2) 1.0363(7)
H24 H -0.1370 0.8587 1.0494
C21 C -0.0298(3) 0.8468(2) 1.1089(6)
C22 C 0.0366(3) 0.8688(2) 1.0855(6)
H25 H 0.0793 0.8543 1.1335
C23 C 0.0398(3) 0.9122(2) 0.9913(6)
H26 H 0.0853 0.9261 0.9775
C24 C -0.0421(3) 0.6928(2) 1.1911(6)
H27 H -0.0077 0.6915 1.2796
H28 H -0.0910 0.6917 1.2199
C25 C -0.0316(3) 0.74573(19) 1.1070(6)
H29 H 0.0158 0.7449 1.0712
H30 H -0.0683 0.7477 1.0223
C26 C -0.0367(3) 0.7966(2) 1.2011(6)
H31 H -0.0831 0.7970 1.2408
H32 H 0.0018 0.7962 1.2828
Ag2A Ag -0.01643(3) 0.998132(17) 0.75567(5)
N4A N 0.0192(2) 0.43547(16) 0.5811(5)
O3 O 0.7876(2) 0.35881(14) 0.5719(4)
O4 O 0.7335(2) 0.54976(15) 1.0203(5)
O5 O 0.7252(3) 0.59468(16) 0.8083(5)
O6 O 0.8073(2) 0.10710(14) 0.7081(5)
O7 O 0.6911(2) 0.11993(15) 0.7422(5)
C27 C 0.7333(3) 0.5522(2) 0.8830(7)
C28 C 0.7453(3) 0.4995(2) 0.8008(6)
C29 C 0.7530(3) 0.4996(2) 0.6513(7)
H33 H 0.7497 0.5324 0.6000
C30 C 0.7653(3) 0.4522(2) 0.5778(6)
H34 H 0.7703 0.4531 0.4779
C31 C 0.7704(3) 0.40323(19) 0.6536(6)
C32 C 0.7629(3) 0.4018(2) 0.8031(6)
H35 H 0.7660 0.3690 0.8543
C33 C 0.7507(3) 0.4500(2) 0.8742(6)
H36 H 0.7461 0.4492 0.9743
C34 C 0.7520(3) 0.1360(2) 0.7146(6)
C35 C 0.7604(3) 0.1957(2) 0.6813(6)
C36 C 0.7053(3) 0.2332(2) 0.6953(7)
H37 H 0.6621 0.2214 0.7278
C37 C 0.7132(3) 0.2877(2) 0.6622(7)
H38 H 0.6753 0.3120 0.6705
C38 C 0.7774(3) 0.3058(2) 0.6168(6)
C39 C 0.8326(3) 0.2697(2) 0.6021(6)
H39 H 0.8760 0.2817 0.5708
C40 C 0.8236(3) 0.2151(2) 0.6342(6)
H40 H 0.8613 0.1908 0.6236
O8 O 0.7597(3) 0.6364(2) 0.2203(6)
H41 H 0.7482 0.6331 0.3071
H42 H 0.7485 0.6072 0.1730
O9 O 0.7312(3) 0.6458(2) 0.5261(7)
H43 H 0.7290 0.6272 0.6038
H44 H 0.7356 0.6792 0.5505
O10 O 0.6908(5) 0.7003(3) 0.8614(9)
H45 H 0.7031 0.6674 0.8504
H46 H 0.7083 0.7108 0.9467
O11 O 0.7472(5) 0.7429(3) 0.1461(10)
H47 H 0.7510 0.7096 0.1709
H48 H 0.7300 0.7604 0.2144
loop_
_geom_bond_atom_site_label_1
_geom_bond_atom_site_label_2
_geom_bond_site_symmetry_1
_geom_bond_site_symmetry_2
Ag1 N1 1_555 1_555
N1 C1 1_555 1_555
N2 C6 1_555 1_555
O1 Ag1 1_555 1_555
H1 O1 1_555 1_555
H2 O1 1_555 1_555
C1 H3 1_555 1_555
C2 C1 1_555 1_555
H4 C2 1_555 1_555
C3 C2 1_555 1_555
C4 C3 1_555 1_555
H5 C4 1_555 1_555
C5 N1 1_555 1_555
H6 C5 1_555 1_555
C6 H7 1_555 1_555
C7 C6 1_555 1_555
H8 C7 1_555 1_555
C8 C7 1_555 1_555
C9 C8 1_555 1_555
H9 C9 1_555 1_555
C10 N2 1_555 1_555
H10 C10 1_555 1_555
C11 C3 1_555 1_555
H11 C11 1_555 1_555
H12 C11 1_555 1_555
C12 C11 1_555 1_555
H13 C12 1_555 1_555
H14 C12 1_555 1_555
C13 C8 1_555 1_555
H15 C13 1_555 1_555
H16 C13 1_555 1_555
Ag2 N3 1_555 1_555
N3 C14 1_555 1_555
N4 C19 1_555 1_555
O2 Ag2 1_555 1_555
H17 O2 1_555 1_555
H18 O2 1_555 1_555
C14 H19 1_555 1_555
C15 C14 1_555 1_555
H20 C15 1_555 1_555
C16 C15 1_555 1_555
C17 C16 1_555 1_555
H21 C17 1_555 1_555
C18 N3 1_555 1_555
H22 C18 1_555 1_555
C19 H23 1_555 1_555
C20 C19 1_555 1_555
H24 C20 1_555 1_555
C21 C20 1_555 1_555
C22 C21 1_555 1_555
H25 C22 1_555 1_555
C23 N4 1_555 1_555
H26 C23 1_555 1_555
C24 C16 1_555 1_555
H27 C24 1_555 1_555
H28 C24 1_555 1_555
C25 C24 1_555 1_555
H29 C25 1_555 1_555
H30 C25 1_555 1_555
C26 C21 1_555 1_555
H31 C26 1_555 1_555
H32 C26 1_555 1_555
O3 C31 1_555 1_555
O4 C27 1_555 1_555
O5 C27 1_555 1_555
O6 C34 1_555 1_555
O7 C34 1_555 1_555
C27 C28 1_555 1_555
C28 C29 1_555 1_555
C29 H33 1_555 1_555
C30 C29 1_555 1_555
H34 C30 1_555 1_555
C31 C30 1_555 1_555
C32 C31 1_555 1_555
H35 C32 1_555 1_555
C33 C28 1_555 1_555
H36 C33 1_555 1_555
C34 C35 1_555 1_555
C35 C36 1_555 1_555
C36 H37 1_555 1_555
C37 C36 1_555 1_555
H38 C37 1_555 1_555
C38 O3 1_555 1_555
C39 C38 1_555 1_555
H39 C39 1_555 1_555
C40 C35 1_555 1_555
H40 C40 1_555 1_555
O8 H41 1_555 1_555
H42 O8 1_555 1_555
O9 H43 1_555 1_555
H44 O9 1_555 1_555
O10 H45 1_555 1_555
H46 O10 1_555 1_555
O11 H47 1_555 1_555
H48 O11 1_555 1_555
Ag1A N2 1_555 1_555
N2A Ag1 1_555 1_555
Ag2A N4 1_555 1_555
N4A Ag2 1_555 1_555
C4 C5 1_555 1_555
C9 C10 1_555 1_555
C12 C13 1_555 1_555
C17 C18 1_555 1_555
C22 C23 1_555 1_555
C25 C26 1_555 1_555
C32 C33 1_555 1_555
C37 C38 1_555 1_555
C39 C40 1_555 1_555

#END
