
#######################################################################
#
#                 Cambridge Crystallographic Data Centre
#                                CCDC 
#
#######################################################################
#
# If this CIF has been generated from an entry in the Cambridge 
# Structural Database, then it will include bibliographic, chemical, 
# crystal, experimental, refinement or atomic coordinate data resulting 
# from the CCDC's data processing and validation procedures.
#
#######################################################################

data_DEYKID
_symmetry_cell_setting           monoclinic
_symmetry_space_group_name_H-M   'C 2/c'
_symmetry_Int_Tables_number      15
_space_group_name_Hall           '-C 2yn'
loop_
_symmetry_equiv_pos_site_id
_symmetry_equiv_pos_as_xyz
1 x,y,z
2 -x,y,1/2-z
3 1/2+x,1/2+y,z
4 1/2-x,1/2+y,1/2-z
5 -x,-y,-z
6 x,-y,1/2+z
7 1/2-x,1/2-y,-z
8 1/2+x,1/2-y,1/2+z
_cell_length_a                   25.863(3)
_cell_length_b                   9.9188(12)
_cell_length_c                   16.6822(17)
_cell_angle_alpha                90
_cell_angle_beta                 105.5470(10)
_cell_angle_gamma                90
_cell_volume                     4122.9
loop_
_atom_site_label
_atom_site_type_symbol
_atom_site_fract_x
_atom_site_fract_y
_atom_site_fract_z
Ag1 Ag 0.492909(13) 0.15133(4) 0.54173(2)
N1 N 0.43181(13) 0.2859(4) 0.4735(2)
N2 N 0.06660(13) 0.4423(4) 0.1096(2)
O1 O 0.43830(11) -0.0044(3) 0.60965(18)
H1 H 0.4429 -0.0890 0.6076
H2 H 0.4048 0.0108 0.5978
C1 C 0.44252(17) 0.3961(5) 0.4346(3)
H3 H 0.4779 0.4125 0.4347
C2 C 0.40402(17) 0.4858(5) 0.3947(3)
H4 H 0.4137 0.5609 0.3686
C3 C 0.35060(15) 0.4654(4) 0.3929(2)
C4 C 0.33966(15) 0.3508(4) 0.4311(2)
H5 H 0.3044 0.3306 0.4304
C5 C 0.38040(16) 0.2655(4) 0.4707(2)
H6 H 0.3716 0.1894 0.4968
C6 C 0.11403(16) 0.4041(4) 0.0973(2)
H7 H 0.1139 0.3410 0.0561
C7 C 0.16216(16) 0.4544(4) 0.1429(3)
H8 H 0.1938 0.4240 0.1327
C8 C 0.16414(15) 0.5503(4) 0.2042(2)
C9 C 0.11555(16) 0.5884(4) 0.2166(2)
H9 H 0.1146 0.6515 0.2574
C10 C 0.06856(16) 0.5335(5) 0.1691(2)
H10 H 0.0365 0.5614 0.1789
C11 C 0.30769(15) 0.5658(4) 0.3522(3)
H11 H 0.3228 0.6293 0.3204
H12 H 0.2974 0.6161 0.3954
C12 C 0.25761(15) 0.5035(4) 0.2949(2)
H13 H 0.2676 0.4522 0.2518
H14 H 0.2418 0.4416 0.3266
C13 C 0.21638(15) 0.6086(4) 0.2546(3)
H15 H 0.2094 0.6658 0.2977
H16 H 0.2312 0.6649 0.2187
Ag1G Ag -0.007091(13) 0.34867(4) 0.04173(2)
N2G N 0.56660(13) 0.0577(4) 0.6096(2)
O2 O 0.25956(13) 0.3886(3) 0.5720(2)
O3 O 0.27765(12) 0.6017(4) 0.5657(2)
H17 H 0.3036 0.6521 0.5803
O4 O 0.35590(12) 0.7357(3) 0.5771(2)
O5 O 0.44225(13) 0.7134(3) 0.5987(2)
O6 O 0.5000 0.2848(4) 0.7500
C14 C 0.29239(18) 0.4797(5) 0.5862(3)
C15 C 0.39868(18) 0.6679(4) 0.6010(3)
C16 C 0.35044(16) 0.4477(4) 0.6306(2)
C17 C 0.39688(16) 0.5270(4) 0.6365(2)
C18 C 0.44694(17) 0.4748(4) 0.6770(2)
H18 H 0.4775 0.5261 0.6802
C19 C 0.45207(17) 0.3487(5) 0.7125(3)
C20 C 0.40724(19) 0.2701(5) 0.7068(3)
H19 H 0.4105 0.1845 0.7304
C21 C 0.35797(18) 0.3199(4) 0.6658(3)
H20 H 0.3280 0.2655 0.6613
O2A O 0.74044(13) 0.3886(3) 0.9280(2)
O3A O 0.72235(12) 0.6017(4) 0.9343(2)
H17A H 0.6964 0.6521 0.9197
O4A O 0.64410(12) 0.7357(3) 0.9229(2)
O5A O 0.55775(13) 0.7134(3) 0.9013(2)
C14A C 0.70761(18) 0.4797(5) 0.9138(3)
C15A C 0.60132(18) 0.6679(4) 0.8990(3)
C16A C 0.64956(16) 0.4477(4) 0.8694(2)
C17A C 0.60312(16) 0.5270(4) 0.8635(2)
C18A C 0.55306(17) 0.4748(4) 0.8230(2)
H18A H 0.5225 0.5261 0.8198
C19A C 0.54793(17) 0.3487(5) 0.7875(3)
C20A C 0.59276(19) 0.2701(5) 0.7932(3)
H19A H 0.5895 0.1845 0.7696
C21A C 0.64203(18) 0.3199(4) 0.8342(3)
H20A H 0.6720 0.2655 0.8387
O7 O 0.32431(12) 1.0186(3) 0.56894(19)
H21 H 0.2994 1.0386 0.5258
H22 H 0.3313 0.9351 0.5672
loop_
_geom_bond_atom_site_label_1
_geom_bond_atom_site_label_2
_geom_bond_site_symmetry_1
_geom_bond_site_symmetry_2
Ag1 N1 1_555 1_555
N1 C1 1_555 1_555
N2 C6 1_555 1_555
O1 Ag1 1_555 1_555
H1 O1 1_555 1_555
H2 O1 1_555 1_555
C1 H3 1_555 1_555
C2 C1 1_555 1_555
H4 C2 1_555 1_555
C3 C2 1_555 1_555
C4 C3 1_555 1_555
H5 C4 1_555 1_555
C5 N1 1_555 1_555
H6 C5 1_555 1_555
C6 H7 1_555 1_555
C7 C6 1_555 1_555
H8 C7 1_555 1_555
C8 C7 1_555 1_555
C9 C8 1_555 1_555
H9 C9 1_555 1_555
C10 N2 1_555 1_555
H10 C10 1_555 1_555
C11 C3 1_555 1_555
H11 C11 1_555 1_555
H12 C11 1_555 1_555
C12 C11 1_555 1_555
H13 C12 1_555 1_555
H14 C12 1_555 1_555
C13 C8 1_555 1_555
H15 C13 1_555 1_555
H16 C13 1_555 1_555
O2 C14 1_555 1_555
O3 H17 1_555 1_555
O4 C15 1_555 1_555
O5 C15 1_555 1_555
O6 C19 1_555 1_555
C14 O3 1_555 1_555
C15 C17 1_555 1_555
C16 C14 1_555 1_555
C17 C16 1_555 1_555
C18 C17 1_555 1_555
H18 C18 1_555 1_555
C19 C18 1_555 1_555
C20 C19 1_555 1_555
H19 C20 1_555 1_555
C21 C16 1_555 1_555
H20 C21 1_555 1_555
O7 H21 1_555 1_555
H22 O7 1_555 1_555
Ag1G N2 1_555 1_555
N2G Ag1 1_555 1_555
O2A C14A 1_555 1_555
O3A H17A 1_555 1_555
O4A C15A 1_555 1_555
O5A C15A 1_555 1_555
C14A O3A 1_555 1_555
C15A C17A 1_555 1_555
C16A C14A 1_555 1_555
C17A C16A 1_555 1_555
C18A C17A 1_555 1_555
H18A C18A 1_555 1_555
C19A O6 1_555 1_555
C20A C19A 1_555 1_555
H19A C20A 1_555 1_555
C21A C16A 1_555 1_555
H20A C21A 1_555 1_555
C4 C5 1_555 1_555
C9 C10 1_555 1_555
C12 C13 1_555 1_555
C20 C21 1_555 1_555
C18A C19A 1_555 1_555
C20A C21A 1_555 1_555

#END
