
#######################################################################
#
#                 Cambridge Crystallographic Data Centre
#                                CCDC 
#
#######################################################################
#
# If this CIF has been generated from an entry in the Cambridge 
# Structural Database, then it will include bibliographic, chemical, 
# crystal, experimental, refinement or atomic coordinate data resulting 
# from the CCDC's data processing and validation procedures.
#
#######################################################################

data_DEYKOJ01
_symmetry_cell_setting           monoclinic
_symmetry_space_group_name_H-M   'P 21/c'
_symmetry_Int_Tables_number      14
_space_group_name_Hall           '-P 2ybc'
loop_
_symmetry_equiv_pos_site_id
_symmetry_equiv_pos_as_xyz
1 x,y,z
2 -x,1/2+y,1/2-z
3 -x,-y,-z
4 x,1/2-y,1/2+z
_cell_length_a                   18.365(3)
_cell_length_b                   24.337(4)
_cell_length_c                   9.0221(17)
_cell_angle_alpha                90
_cell_angle_beta                 96.940(4)
_cell_angle_gamma                90
_cell_volume                     4002.87
loop_
_atom_site_label
_atom_site_type_symbol
_atom_site_fract_x
_atom_site_fract_y
_atom_site_fract_z
Ag1 Ag 0.005802(16) 0.482393(10) 0.68223(3)
N1 N -0.00106(15) 0.41876(11) 0.5158(3)
N2 N 0.00368(15) 0.04185(11) 0.6449(3)
C1 C 0.06355(19) 0.34794(13) 0.4050(4)
H1 H 0.1085 0.3330 0.3885
C2 C 0.06736(18) 0.05851(13) 0.6021(4)
H2 H 0.1107 0.0435 0.6492
C3 C 0.0067(2) 0.22130(13) 0.3816(4)
H3 H -0.0348 0.2221 0.4386
H4 H 0.0509 0.2265 0.4507
C4 C 0.06138(19) 0.39561(13) 0.4857(4)
H5 H 0.1055 0.4126 0.5211
C5 C 0.07159(18) 0.09694(13) 0.4912(4)
H6 H 0.1170 0.1072 0.4645
C6 C -0.05687(19) 0.10258(14) 0.4632(4)
H7 H -0.1008 0.1168 0.4170
C7 C -0.00076(18) 0.32226(13) 0.3484(3)
C8 C 0.00852(18) 0.12020(12) 0.4200(4)
C9 C 0.01001(19) 0.16527(13) 0.3066(4)
H8 H -0.0315 0.1613 0.2299
H9 H 0.0546 0.1626 0.2593
C10 C -0.06539(19) 0.34734(13) 0.3750(4)
H10 H -0.1101 0.3323 0.3357
C11 C -0.05761(19) 0.06390(14) 0.5748(4)
H11 H -0.1025 0.0528 0.6023
C12 C -0.06388(19) 0.39437(13) 0.4592(4)
H12 H -0.1081 0.4100 0.4777
C13 C -0.00043(19) 0.26826(13) 0.2693(4)
H13 H 0.0402 0.2671 0.2101
H14 H -0.0456 0.2641 0.2024
O1 O 0.15004(14) 0.48785(10) 0.7179(3)
H15 H 0.172(2) 0.4581(10) 0.738(4)
H16 H 0.172(2) 0.5067(13) 0.659(4)
Ag1A Ag -0.005802(16) -0.017607(10) 0.81777(3)
N2A N -0.00368(15) 0.54185(11) 0.8551(3)
Ag2 Ag 0.485428(16) 0.502164(10) 0.75660(3)
N3 N 0.48306(15) 0.56512(11) 0.9221(3)
N4 N 0.49223(15) 0.94104(11) 0.9026(3)
C14 C 0.46864(19) 0.85653(13) 1.0996(4)
C15 C 0.53879(19) 0.63148(13) 1.0933(4)
H17 H 0.5815 0.6463 1.1433
O2 O 0.34568(15) 0.49766(10) 0.7179(3)
C16 C 0.47148(18) 0.65302(13) 1.1156(4)
C17 C 0.4640(2) 0.70326(13) 1.2088(4)
H18 H 0.5025 0.7036 1.2925
H19 H 0.4171 0.7026 1.2480
C18 C 0.54258(19) 0.58815(13) 0.9974(4)
H20 H 0.5885 0.5742 0.9840
C19 C 0.53816(19) 0.87495(14) 1.0840(4)
H21 H 0.5785 0.8593 1.1405
C20 C 0.42518(19) 0.92384(14) 0.9190(4)
H22 H 0.3857 0.9408 0.8628
C21 C 0.4694(2) 0.75473(13) 1.1147(4)
H23 H 0.5176 0.7559 1.0810
H24 H 0.4334 0.7524 1.0270
C22 C 0.41041(19) 0.62823(14) 1.0408(4)
H25 H 0.3639 0.6409 1.0542
C23 C 0.5482(2) 0.91653(14) 0.9848(4)
H26 H 0.5957 0.9279 0.9748
C24 C 0.41800(19) 0.58501(14) 0.9466(4)
H27 H 0.3759 0.5688 0.8977
C25 C 0.4571(2) 0.80785(13) 1.1973(4)
H28 H 0.4076 0.8085 1.2244
H29 H 0.4910 0.8098 1.2883
C26 C 0.41095(19) 0.88233(14) 1.0147(4)
H30 H 0.3629 0.8717 1.0221
H31 H 0.3325(19) 0.4646(8) 0.718(4)
H32 H 0.316(2) 0.5156(13) 0.658(4)
Ag2A Ag 0.514572(16) 1.002164(10) 0.74340(3)
N4A N 0.50777(15) 0.44104(11) 0.5974(3)
O3 O 0.23274(13) 0.55142(9) 0.5218(3)
O4 O 0.30789(13) 0.10686(9) 0.2037(3)
O5 O 0.19174(13) 0.11975(9) 0.2435(3)
C27 C 0.26550(18) 0.45373(13) 0.0743(4)
H33 H 0.2705 0.4545 -0.0270
C28 C 0.26287(18) 0.40317(13) 0.3022(4)
H34 H 0.2663 0.3700 0.3538
O6 O 0.22550(15) 0.59734(9) 0.3085(3)
C29 C 0.26099(18) 0.19634(13) 0.1790(4)
C30 C 0.27808(19) 0.30679(13) 0.1144(4)
C31 C 0.21377(19) 0.28853(13) 0.1627(4)
H35 H 0.1759 0.3131 0.1730
C32 C 0.32443(18) 0.21541(13) 0.1280(4)
H36 H 0.3618 0.1908 0.1150
C33 C 0.27069(17) 0.40462(12) 0.1513(4)
C34 C 0.23315(17) 0.55425(13) 0.3826(4)
C35 C 0.33322(19) 0.27029(14) 0.0962(4)
H37 H 0.3763 0.2825 0.0627
C36 C 0.25289(18) 0.50151(13) 0.1486(4)
H38 H 0.2494 0.5346 0.0965
C37 C 0.20602(19) 0.23374(14) 0.1954(4)
H39 H 0.1629 0.2217 0.2293
C38 C 0.25265(18) 0.13594(13) 0.2124(4)
C39 C 0.24530(17) 0.50142(12) 0.3003(4)
C40 C 0.24987(17) 0.45161(13) 0.3753(4)
H40 H 0.2441 0.4507 0.4763
O7 O 0.28908(14) 0.36002(9) 0.0698(3)
O8 O 0.23180(15) 0.64561(11) 0.0245(3)
H41 H 0.235(3) 0.6802(8) 0.044(4)
H42 H 0.232(2) 0.6302(13) 0.110(3)
O9 O 0.26456(16) 0.63848(11) 0.7233(3)
H43 H 0.246(2) 0.6344(16) 0.802(3)
H44 H 0.251(3) 0.6142(16) 0.660(4)
O10 O 0.17338(18) 0.70137(12) 0.3574(4)
H45 H 0.191(2) 0.6694(9) 0.353(4)
H46 H 0.190(3) 0.7159(18) 0.440(4)
O11 O 0.2323(3) 0.75538(13) 0.1375(4)
H47 H 0.217(3) 0.7409(19) 0.213(4)
H48 H 0.250(3) 0.7864(12) 0.160(5)
loop_
_geom_bond_atom_site_label_1
_geom_bond_atom_site_label_2
_geom_bond_site_symmetry_1
_geom_bond_site_symmetry_2
Ag1 N1 1_555 1_555
N1 C4 1_555 1_555
N2 C2 1_555 1_555
C1 H1 1_555 1_555
C2 H2 1_555 1_555
C3 H3 1_555 1_555
H4 C3 1_555 1_555
C4 C1 1_555 1_555
H5 C4 1_555 1_555
C5 C2 1_555 1_555
H6 C5 1_555 1_555
C6 H7 1_555 1_555
C7 C1 1_555 1_555
C8 C5 1_555 1_555
C9 C3 1_555 1_555
H8 C9 1_555 1_555
H9 C9 1_555 1_555
C10 C7 1_555 1_555
H10 C10 1_555 1_555
C11 N2 1_555 1_555
H11 C11 1_555 1_555
C12 N1 1_555 1_555
H12 C12 1_555 1_555
C13 C3 1_555 1_555
H13 C13 1_555 1_555
H14 C13 1_555 1_555
O1 Ag1 1_555 1_555
H15 O1 1_555 1_555
H16 O1 1_555 1_555
Ag2 N3 1_555 1_555
N3 C18 1_555 1_555
N4 C20 1_555 1_555
C14 C19 1_555 1_555
C15 H17 1_555 1_555
O2 Ag2 1_555 1_555
C16 C15 1_555 1_555
C17 C16 1_555 1_555
H18 C17 1_555 1_555
H19 C17 1_555 1_555
C18 C15 1_555 1_555
H20 C18 1_555 1_555
C19 H21 1_555 1_555
C20 H22 1_555 1_555
C21 C17 1_555 1_555
H23 C21 1_555 1_555
H24 C21 1_555 1_555
C22 C16 1_555 1_555
H25 C22 1_555 1_555
C23 N4 1_555 1_555
H26 C23 1_555 1_555
C24 N3 1_555 1_555
H27 C24 1_555 1_555
C25 C14 1_555 1_555
H28 C25 1_555 1_555
H29 C25 1_555 1_555
C26 C14 1_555 1_555
H30 C26 1_555 1_555
H31 O2 1_555 1_555
H32 O2 1_555 1_555
O3 C34 1_555 1_555
O4 C38 1_555 1_555
O5 C38 1_555 1_555
C27 H33 1_555 1_555
C28 H34 1_555 1_555
O6 C34 1_555 1_555
C29 C32 1_555 1_555
C30 C31 1_555 1_555
C31 H35 1_555 1_555
C32 H36 1_555 1_555
C33 C27 1_555 1_555
C34 C39 1_555 1_555
C35 C30 1_555 1_555
H37 C35 1_555 1_555
C36 C27 1_555 1_555
H38 C36 1_555 1_555
C37 C29 1_555 1_555
H39 C37 1_555 1_555
C38 C29 1_555 1_555
C39 C36 1_555 1_555
C40 C28 1_555 1_555
H40 C40 1_555 1_555
O7 C30 1_555 1_555
O8 H41 1_555 1_555
H42 O8 1_555 1_555
O9 H43 1_555 1_555
H44 O9 1_555 1_555
O10 H45 1_555 1_555
H46 O10 1_555 1_555
O11 H47 1_555 1_555
H48 O11 1_555 1_555
Ag1A N2 1_555 1_555
N2A Ag1 1_555 1_555
Ag2A N4 1_555 1_555
N4A Ag2 1_555 1_555
C6 C8 1_555 1_555
C6 C11 1_555 1_555
C7 C13 1_555 1_555
C8 C9 1_555 1_555
C10 C12 1_555 1_555
C19 C23 1_555 1_555
C20 C26 1_555 1_555
C21 C25 1_555 1_555
C22 C24 1_555 1_555
C28 C33 1_555 1_555
C31 C37 1_555 1_555
C32 C35 1_555 1_555
C33 O7 1_555 1_555
C39 C40 1_555 1_555

#END
