
#######################################################################
#
#                 Cambridge Crystallographic Data Centre
#                                CCDC 
#
#######################################################################
#
# If this CIF has been generated from an entry in the Cambridge 
# Structural Database, then it will include bibliographic, chemical, 
# crystal, experimental, refinement or atomic coordinate data resulting 
# from the CCDC's data processing and validation procedures.
#
#######################################################################

data_DEYLOJ
_symmetry_cell_setting           triclinic
_symmetry_space_group_name_H-M   'P -1'
_symmetry_Int_Tables_number      2
_space_group_name_Hall           '-P 1'
loop_
_symmetry_equiv_pos_site_id
_symmetry_equiv_pos_as_xyz
1 x,y,z
2 -x,-y,-z
_cell_length_a                   18.024(4)
_cell_length_b                   19.371(4)
_cell_length_c                   23.242(5)
_cell_angle_alpha                89.45(3)
_cell_angle_beta                 87.05(3)
_cell_angle_gamma                63.73(3)
_cell_volume                     7266.24
loop_
_atom_site_label
_atom_site_type_symbol
_atom_site_fract_x
_atom_site_fract_y
_atom_site_fract_z
Eu6 Eu 0.56802(8) 0.38817(9) 0.52181(6)
O112 O 0.5683(15) 0.2647(15) 0.4841(11)
O113 O 0.5951(16) 0.2970(16) 0.5966(11)
O114 O 0.6772(14) 0.3831(15) 0.5844(11)
O115 O 0.7052(15) 0.3073(16) 0.4708(11)
O136 O 0.5104(11) 0.4747(12) 0.6020(8)
O137 O 0.5489(12) 0.4040(12) 0.4207(9)
N1 N 0.4042(18) 0.6600(19) 0.7515(13)
H1 H 0.3791 0.7090 0.7616
C1 C 0.4587(16) 0.5639(17) 0.6769(12)
C2 C 0.4199(16) 0.6401(18) 0.6944(12)
H2 H 0.4038 0.6793 0.6664
C3 C 0.428(2) 0.601(2) 0.7963(18)
H3 H 0.4162 0.6130 0.8363
C4 C 0.468(2) 0.531(3) 0.7748(18)
H4 H 0.4881 0.4899 0.8013
C5 C 0.484(2) 0.512(3) 0.7151(19)
H5 H 0.5132 0.4595 0.7034
C6 C 0.4767(16) 0.5406(18) 0.6163(12)
O138 O 0.4350(13) 0.3888(13) 0.5377(10)
O139 O 0.5858(11) 0.4968(12) 0.4962(9)
N2 N 0.1962(14) 0.4325(15) 0.4977(10)
H6 H 0.1842 0.3941 0.4907
C7 C 0.2984(17) 0.4754(17) 0.5125(13)
C8 C 0.2760(17) 0.4151(18) 0.5067(12)
H7 H 0.3162 0.3630 0.5091
C9 C 0.1362(18) 0.5014(19) 0.4985(13)
H8 H 0.0803 0.5102 0.4959
C10 C 0.1578(19) 0.563(2) 0.5036(13)
H9 H 0.1153 0.6145 0.5013
C11 C 0.2376(16) 0.5526(17) 0.5118(13)
H10 H 0.2507 0.5946 0.5166
C12 C 0.3856(16) 0.4545(17) 0.5192(12)
Eu6A Eu 0.43198(8) 0.61183(9) 0.47819(6)
O137A O 0.4511(12) 0.5960(12) 0.5793(9)
C6A C 0.5233(16) 0.4594(18) 0.3837(12)
O139A O 0.4142(11) 0.5032(12) 0.5038(9)
C12A C 0.6144(16) 0.5455(17) 0.4808(12)
O131 O -0.1640(14) 0.9559(14) 0.0849(10)
O132 O 0.133(2) 0.499(2) -0.0362(17)
O133 O 0.165(3) 0.233(3) -0.006(2)
O134 O 0.688(3) 0.133(3) 0.551(2)
O135 O 0.438(3) 0.584(3) 0.0064(19)
K1 K 0.3114(3) 0.0437(4) 0.5624(2)
K2 K 0.8867(5) -0.0683(5) 0.4406(3)
W1 W 0.93961(6) -0.38198(6) 0.59993(5)
W2 W 0.67766(7) -0.05247(7) 0.61314(5)
W3 W 0.92561(6) -0.39939(7) 0.89093(5)
W4 W 0.69672(6) -0.27830(7) 0.89228(5)
W5 W 1.13740(7) -0.93064(7) 1.09270(5)
W6 W 0.68085(7) -0.41658(7) 0.66733(5)
W7 W 0.71129(6) -0.25629(7) 0.60291(5)
W8 W 0.57823(7) 0.11861(7) 0.83771(5)
W9 W 1.11707(7) -0.53385(7) 0.66822(5)
W10 W 1.10081(7) -0.54917(7) 0.80940(5)
W11 W 0.49947(7) -0.20925(8) 0.81885(5)
W12 W 0.88517(7) -0.05270(7) 0.61674(5)
W13 W 1.18090(7) -0.21760(8) 0.82832(6)
W14 W 1.04760(6) -0.25661(7) 0.60783(5)
W15 W 0.51260(6) -0.21411(8) 0.67609(5)
W16 W 0.91257(7) -0.54126(7) 0.66535(5)
W17 W 1.22318(7) -0.40419(8) 0.67745(5)
W18 W 0.47466(7) -0.00560(8) 0.68675(5)
W19 W 0.65660(8) -0.41584(8) 0.80922(5)
W20 W 0.46484(7) -0.00254(8) 0.82872(5)
W21 W 0.97002(6) -0.72883(7) 1.10093(5)
W22 W 1.18093(7) -0.19683(8) 0.68669(6)
W23 W 0.88909(8) -0.54206(7) 0.80748(5)
W24 W 0.57529(8) 0.12677(7) 0.69603(6)
W25 W 1.01570(8) -0.01141(8) 0.83804(6)
W26 W 1.21005(7) -0.42168(7) 0.81897(5)
W27 W 0.78393(8) 0.12996(8) 0.69898(6)
W28 W 0.78761(8) 0.11931(7) 0.84093(6)
W29 W 1.01441(8) 0.00960(8) 0.69695(6)
W30 W 0.65700(7) -0.07281(7) 0.90365(5)
Eu2 Eu 0.84871(12) -0.20503(12) 0.67864(9)
Eu3 Eu 0.39661(12) 0.27721(11) 0.94381(8)
Eu4 Eu 0.9558(3) -0.7160(3) 0.9254(3)
P1 P 0.9393(4) -0.4069(4) 0.7459(3)
P2 P 0.6528(4) -0.0499(4) 0.7588(3)
P3 P 0.8770(4) -0.0476(4) 0.7633(3)
P4 P 0.6902(4) -0.2719(4) 0.7482(3)
P5 P 0.9451(4) -0.7311(4) 1.2452(3)
O1 O 0.8934(11) -0.0319(12) 0.5451(9)
O2 O 1.1362(11) -0.9479(13) 1.0218(9)
O3 O 0.9330(13) -0.4282(14) 0.9608(9)
O4 O 0.5352(12) 0.1766(13) 0.7685(9)
O5 O 0.7168(11) -0.1617(11) 0.6089(8)
O6 O 0.7239(10) -0.2598(11) 0.8033(8)
O7 O 0.8301(10) -0.3034(11) 0.6031(7)
O8 O 0.9980(10) -0.7416(11) 1.1908(8)
O9 O 0.7128(10) -0.3519(10) 0.6209(8)
O10 O 1.1541(10) -0.5936(11) 0.7356(8)
O11 O 0.7013(12) -0.2576(12) 0.5298(9)
O12 O 0.8720(11) -0.0859(11) 0.7083(9)
O13 O 1.2469(12) -0.2106(13) 0.8756(9)
O14 O 0.5280(11) 0.2045(11) 0.6515(8)
O15 O 1.3042(11) -0.4520(13) 0.6319(9)
O16 O 0.4393(12) -0.2052(14) 0.6275(9)
O17 O 1.0457(10) -0.4538(11) 0.6212(8)
O18 O 0.7712(15) 0.2059(15) 0.6541(12)
O19 O 1.0529(14) 0.0298(15) 0.8860(11)
O20 O 1.2745(12) -0.4470(13) 0.7480(9)
O21 O 0.8978(12) -0.6180(12) 0.8505(8)
O22 O 1.1604(12) -0.6231(13) 0.8530(10)
O23 O 0.5829(11) -0.2248(12) 0.8715(8)
O24 O 1.1779(12) -0.6045(13) 0.6182(8)
O25 O 0.3795(13) 0.0340(14) 0.8754(10)
O26 O 1.2549(13) -0.1931(14) 0.6412(10)
O27 O 0.4229(12) -0.2122(13) 0.8624(9)
O28 O 0.4528(11) -0.2104(11) 0.7465(8)
O29 O 1.2346(12) -0.2040(13) 0.7566(9)
O30 O 0.7324(10) -0.2507(11) 0.6966(8)
O31 O 0.6488(12) -0.4607(12) 0.6177(9)
O32 O 0.7910(11) -0.4914(12) 0.6726(8)
O33 O 0.5186(13) 0.1889(14) 0.8892(10)
O34 O 0.9209(11) -0.6093(11) 0.6156(8)
O35 O 0.5530(10) -0.0572(11) 0.8790(8)
O36 O 0.9507(12) -0.7171(12) 1.0297(9)
O37 O 0.5709(10) -0.0439(11) 0.6365(8)
O38 O 0.6275(10) 0.0327(10) 0.8853(8)
O39 O 0.8127(11) -0.3258(11) 0.8976(8)
O40 O 1.1722(11) -0.4948(11) 0.8075(8)
O41 O 0.8891(10) -0.4727(11) 0.8618(8)
O42 O 0.8145(12) 0.0474(13) 0.6456(9)
O43 O 0.6438(12) 0.0485(12) 0.6428(9)
O44 O 0.7044(10) -0.3561(11) 0.7422(8)
O45 O 1.0666(11) -0.8241(12) 1.0941(9)
O46 O 0.5944(10) -0.2198(10) 0.7480(7)
O47 O 1.1339(10) -0.3502(11) 0.6279(7)
O48 O 0.5737(10) -0.3215(11) 0.6730(7)
O49 O 0.5015(11) 0.0828(12) 0.6951(9)
O50 O 0.8666(10) -0.0915(10) 0.8170(7)
O51 O 0.5980(10) -0.2086(11) 0.6265(7)
O52 O 0.8107(10) 0.0369(11) 0.7651(8)
O53 O 0.6247(13) -0.4717(13) 0.8515(10)
O54 O 0.8965(10) -0.4618(11) 0.7430(8)
O55 O 1.1064(11) -0.1043(12) 0.8282(9)
O56 O 0.7892(11) -0.0717(11) 0.6133(8)
O57 O 1.1063(11) -0.2055(11) 0.6352(9)
O58 O 0.6365(10) 0.0343(10) 0.7632(7)
O59 O 0.9624(9) -0.0449(10) 0.7627(8)
O60 O 0.9493(11) -0.3944(12) 0.5257(8)
O61 O 0.9015(10) -0.4559(11) 0.6179(8)
O62 O 0.6936(10) -0.0908(11) 0.8126(8)
O63 O 1.0329(10) -0.4702(10) 0.8641(7)
O64 O 0.5660(9) -0.0467(10) 0.7553(7)
O65 O 1.1110(11) -0.0907(12) 0.6987(9)
O66 O 0.9029(12) 0.0793(12) 0.8367(9)
O67 O 0.4131(11) 0.0255(11) 0.7585(8)
O68 O 0.6464(11) -0.4531(12) 0.7345(8)
O69 O 1.2301(10) -0.3108(11) 0.6842(8)
O70 O 0.9007(10) -0.7838(11) 1.2431(8)
O71 O 0.9705(12) -0.2988(12) 0.6060(9)
O72 O 1.0118(12) -0.5699(12) 0.8025(8)
O73 O 1.1219(10) -0.3510(10) 0.7504(7)
O74 O 0.7063(10) -0.0864(10) 0.7039(7)
O75 O 0.6960(11) -0.1819(12) 0.9022(8)
O76 O 1.2229(11) -0.3232(11) 0.8196(8)
O77 O 1.0420(11) -0.9475(11) 1.1141(8)
O78 O 0.9056(10) -0.7782(11) 1.1198(8)
O79 O 0.6680(12) -0.2896(13) 0.9642(9)
O80 O 0.7752(12) 0.1780(11) 0.7716(9)
O81 O 0.7639(14) 0.1896(15) 0.8908(10)
O82 O 0.7690(11) -0.0867(12) 0.9093(8)
O83 O 1.0023(11) -0.2479(11) 0.7016(8)
O84 O 0.6948(10) -0.3687(11) 0.8627(8)
O85 O 1.0232(11) -0.5630(11) 0.6690(8)
O86 O 0.6707(11) 0.1342(11) 0.8341(8)
O87 O 1.1227(12) -0.3662(12) 0.8724(9)
O88 O 0.4771(11) -0.1022(12) 0.6874(8)
O89 O 1.0350(10) -0.4594(10) 0.7426(8)
O90 O 0.9127(10) -0.3640(11) 0.8023(8)
O91 O 0.4670(11) -0.1065(12) 0.8188(9)
O92 O 0.9095(10) -0.5928(11) 0.7335(8)
O93 O 0.9583(11) -0.3217(11) 0.8998(8)
O94 O 0.9183(10) -0.3542(11) 0.6945(8)
O95 O 0.9501(11) -0.1617(11) 0.6121(8)
O96 O 1.1804(11) -0.4832(11) 0.6759(8)
O97 O 0.6779(12) 0.1418(12) 0.7023(8)
O98 O 0.5596(10) -0.3240(11) 0.8095(8)
O99 O 0.9090(13) 0.0909(13) 0.7013(10)
O100 O 0.4942(11) 0.0767(12) 0.8313(9)
O101 O 0.3960(12) 0.0412(13) 0.6404(9)
O102 O 0.9777(12) -0.0390(14) 0.6415(10)
O103 O 0.3359(13) 0.0328(14) 0.4581(9)
O104 O 1.0718(12) -0.2570(14) 0.5367(9)
O105 O 0.6291(12) -0.0571(13) 0.9766(9)
O106 O 0.7752(12) -0.4952(12) 0.8004(9)
O107 O 1.2861(12) -0.4685(13) 0.8634(10)
O108 O 1.0446(13) 0.0302(12) 0.7702(9)
O109 O 1.2018(11) -1.0354(13) 1.1132(9)
O110 O 0.9387(13) -0.0505(14) 0.3495(10)
O111 O 0.8399(14) -0.2108(15) 0.7782(12)
O116 O 0.3856(19) 0.1583(19) 0.9439(14)
O117 O 0.499(2) 0.189(2) 1.0109(17)
O118 O 0.243(4) 0.311(4) 0.946(3)
O119 O 0.302(3) 0.413(3) 0.945(2)
O121 O 0.481(3) 0.332(4) 0.966(3)
O122 O 0.9323(17) -0.7834(18) 0.8414(12)
O123 O 1.0652(19) -0.730(2) 0.8535(14)
O126 O 0.946(4) -0.588(4) 0.960(3)
O127 O 1.052(2) -0.837(3) 0.9369(18)
O130 O 0.828(4) -0.592(4) 0.968(3)
O140 O 0.398(3) 0.341(3) 0.854(2)
O141 O 0.347(2) 0.258(2) 0.8507(17)
C13 C 0.364(2) 0.316(2) 0.7611(14)
C14 C 0.343(2) 0.270(2) 0.7300(15)
H11 H 0.3310 0.2321 0.7487
N3 N 0.3382(18) 0.2781(19) 0.6726(14)
H12 H 0.3243 0.2479 0.6523
C15 C 0.355(2) 0.332(2) 0.6462(14)
H13 H 0.3517 0.3377 0.6056
C16 C 0.376(2) 0.378(2) 0.6772(17)
H14 H 0.3879 0.4164 0.6586
C17 C 0.381(2) 0.370(2) 0.7347(17)
H15 H 0.3957 0.4029 0.7566
C18 C 0.374(4) 0.295(4) 0.826(3)
W2A W 0.32234(7) 0.05247(7) 0.38686(5)
W5A W 0.86260(7) -0.06936(7) 0.90730(5)
W13A W 0.81910(7) -0.78240(8) 1.17168(6)
W21A W 1.02998(6) -0.27117(7) 0.89907(5)
W22A W 0.81907(7) -0.80317(8) 1.31331(6)
W25A W 0.98430(8) -0.98859(8) 1.16196(6)
W28A W 1.21239(8) -1.11931(7) 1.15907(6)
W29A W 0.98559(8) -0.00960(8) 0.30305(6)
Eu3A Eu 0.60339(12) -0.27721(11) 1.05619(8)
P5A P 1.0549(4) -0.2689(4) 0.7548(3)
O50A O 1.1334(10) -0.9085(10) 1.1830(7)
O70A O 1.0993(10) -0.2162(11) 0.7569(8)
O73A O 0.8781(10) -0.6490(10) 1.2496(7)
O77A O 0.9580(11) -0.0525(11) 0.8859(8)
O78A O 1.0944(10) -0.2218(11) 0.8802(8)
O79A O 0.3320(12) 0.2896(13) 1.0358(9)
O82A O 1.2310(11) -0.9133(12) 1.0907(8)
O83A O 0.9977(11) -0.7521(11) 1.2984(8)
O87A O 0.8773(12) -0.6338(12) 1.1276(9)
O93A O 1.0417(11) -0.6783(11) 1.1002(8)
O103A O 0.6641(13) -0.0328(14) 0.5419(9)
O109A O 0.7982(11) 0.0354(13) 0.8868(9)
O110A O 1.0613(13) 0.0505(14) 0.6505(10)
Na1? Na 0.1073(8) 0.1454(7) 0.6183(6)
Eu1? Eu 0.1606(4) 0.2112(4) 0.1719(3)
Eu5? Eu 0.0829(4) 0.7029(5) 0.0729(4)
O120? O 0.415(6) 0.375(7) 0.013(5)
O124? O -0.006(2) 0.630(2) 0.0556(14)
O125? O 0.118(4) 0.798(4) 0.039(3)
O128? O 0.118(10) 0.255(10) -0.035(7)
O129? O 0.193(4) 0.642(5) 0.060(3)
loop_
_geom_bond_atom_site_label_1
_geom_bond_atom_site_label_2
_geom_bond_site_symmetry_1
_geom_bond_site_symmetry_2
K1 O101 1_555 1_555
K2 O1 1_555 1_555
W1 O7 1_555 1_555
W2 O5 1_555 1_555
W3 O3 1_555 1_555
W4 O6 1_555 1_555
W5 O2 1_555 1_555
W6 O9 1_555 1_555
W7 O5 1_555 1_555
W8 O4 1_555 1_555
W9 O10 1_555 1_555
W10 O10 1_555 1_555
W11 O23 1_555 1_555
W12 O1 1_555 1_555
W13 O13 1_555 1_555
W14 O47 1_555 1_555
W15 O16 1_555 1_555
W16 O32 1_555 1_555
W17 O15 1_555 1_555
W18 O37 1_555 1_555
W19 O44 1_555 1_555
W20 O25 1_555 1_555
W21 O8 1_555 1_555
W22 O26 1_555 1_555
W23 O21 1_555 1_555
W24 O4 1_555 1_555
W25 O19 1_555 1_555
W26 O20 1_555 1_555
W27 O18 1_555 1_555
W28 O52 1_555 1_555
W29 O59 1_555 1_555
W30 O35 1_555 1_555
Eu2 O5 1_555 1_555
Eu3 O33 1_555 1_555
Eu4 O21 1_555 1_555
Eu6 O112 1_555 1_555
P1 O54 1_555 1_555
P2 O58 1_555 1_555
P3 O12 1_555 1_555
P4 O6 1_555 1_555
P5 O8 1_555 1_555
O7 W7 1_555 1_555
O9 W7 1_555 1_555
O11 W7 1_555 1_555
O12 W12 1_555 1_555
O14 W24 1_555 1_555
O17 W1 1_555 1_555
O20 W17 1_555 1_555
O22 W10 1_555 1_555
O23 W4 1_555 1_555
O24 W9 1_555 1_555
O27 W11 1_555 1_555
O28 W11 1_555 1_555
O29 W13 1_555 1_555
O30 W7 1_555 1_555
O31 W6 1_555 1_555
O32 W6 1_555 1_555
O33 W8 1_555 1_555
O34 W16 1_555 1_555
O35 W20 1_555 1_555
O36 W21 1_555 1_555
O37 W2 1_555 1_555
O38 W8 1_555 1_555
O39 W3 1_555 1_555
O40 W10 1_555 1_555
O41 W3 1_555 1_555
O42 W12 1_555 1_555
O43 W2 1_555 1_555
O44 W6 1_555 1_555
O45 W5 1_555 1_555
O46 W11 1_555 1_555
O47 W17 1_555 1_555
O48 W6 1_555 1_555
O49 W18 1_555 1_555
O50 P3 1_555 1_555
O51 W7 1_555 1_555
O52 W27 1_555 1_555
O53 W19 1_555 1_555
O54 W16 1_555 1_555
O55 W13 1_555 1_555
O56 W2 1_555 1_555
O57 W14 1_555 1_555
O58 W8 1_555 1_555
O59 W25 1_555 1_555
O60 W1 1_555 1_555
O61 W1 1_555 1_555
O62 W30 1_555 1_555
O63 W3 1_555 1_555
O64 W18 1_555 1_555
O65 W22 1_555 1_555
O66 W25 1_555 1_555
O67 W18 1_555 1_555
O68 W6 1_555 1_555
O69 W17 1_555 1_555
O70 P5 1_555 1_555
O71 W1 1_555 1_555
O72 W10 1_555 1_555
O73 W17 1_555 1_555
O74 W2 1_555 1_555
O75 W4 1_555 1_555
O76 W13 1_555 1_555
O77 W5 1_555 1_555
O78 W21 1_555 1_555
O79 W4 1_555 1_555
O80 W27 1_555 1_555
O81 W28 1_555 1_555
O82 W30 1_555 1_555
O83 W14 1_555 1_555
O84 W4 1_555 1_555
O85 W9 1_555 1_555
O86 W8 1_555 1_555
O87 W26 1_555 1_555
O88 W15 1_555 1_555
O89 W9 1_555 1_555
O90 W3 1_555 1_555
O91 W11 1_555 1_555
O92 W16 1_555 1_555
O93 W3 1_555 1_555
O94 W1 1_555 1_555
O95 W12 1_555 1_555
O96 W9 1_555 1_555
O97 W24 1_555 1_555
O98 W11 1_555 1_555
O99 W27 1_555 1_555
O100 W8 1_555 1_555
O101 W18 1_555 1_555
O102 W12 1_555 1_555
O103 K1 1_555 1_555
O104 W14 1_555 1_555
O105 W30 1_555 1_555
O106 W19 1_555 1_555
O107 W26 1_555 1_555
O108 W25 1_555 1_555
O109 W5 1_555 1_555
O110 K2 1_555 1_555
O111 Eu2 1_555 1_555
O113 Eu6 1_555 1_555
O114 Eu6 1_555 1_555
O115 Eu6 1_555 1_555
O116 Eu3 1_555 1_555
O117 Eu3 1_555 1_555
O118 Eu3 1_555 1_555
O119 Eu3 1_555 1_555
O121 Eu3 1_555 1_555
O122 Eu4 1_555 1_555
O123 Eu4 1_555 1_555
O126 Eu4 1_555 1_555
O127 Eu4 1_555 1_555
O130 Eu4 1_555 1_555
O136 Eu6 1_555 1_555
O137 Eu6 1_555 1_555
N1 H1 1_555 1_555
C1 C2 1_555 1_555
C2 N1 1_555 1_555
H2 C2 1_555 1_555
C3 N1 1_555 1_555
H3 C3 1_555 1_555
C4 C3 1_555 1_555
H4 C4 1_555 1_555
C5 C1 1_555 1_555
H5 C5 1_555 1_555
C6 O136 1_555 1_555
O138 Eu6 1_555 1_555
O139 Eu6 1_555 1_555
N2 H6 1_555 1_555
C7 C8 1_555 1_555
C8 N2 1_555 1_555
H7 C8 1_555 1_555
C9 N2 1_555 1_555
H8 C9 1_555 1_555
C10 C9 1_555 1_555
H9 C10 1_555 1_555
C11 C7 1_555 1_555
H10 C11 1_555 1_555
C12 O138 1_555 1_555
O140 Eu3 1_555 1_555
O141 Eu3 1_555 1_555
C13 C14 1_555 1_555
C14 H11 1_555 1_555
N3 C14 1_555 1_555
H12 N3 1_555 1_555
C15 N3 1_555 1_555
H13 C15 1_555 1_555
C16 C15 1_555 1_555
H14 C16 1_555 1_555
C17 C13 1_555 1_555
H15 C17 1_555 1_555
C18 O140 1_555 1_555
W2A O103 1_555 1_555
W5A O50 1_555 1_555
W13A O70 1_555 1_555
W21A O87 1_555 1_555
W22A O70 1_555 1_555
W25A O77 1_555 1_555
W28A O109 1_555 1_555
W29A O110 1_555 1_555
Eu3A O79 1_555 1_555
Eu6A O139 1_555 1_555
P5A O73 1_555 1_555
O50A W5 1_555 1_555
O70A W13 1_555 1_555
O73A P5 1_555 1_555
O77A W25 1_555 1_555
O78A W13 1_555 1_555
O79A Eu3 1_555 1_555
O82A W5 1_555 1_555
O83A P5 1_555 1_555
O87A W21 1_555 1_555
O93A W21 1_555 1_555
O103A W2 1_555 1_555
O109A W28 1_555 1_555
O110A W29 1_555 1_555
O137A C6 1_555 1_555
C6A O137 1_555 1_555
O139A Eu6 1_555 1_555
C12A O139 1_555 1_555
W4 O39 1_555 1_555
W9 O17 1_555 1_555
W10 O63 1_555 1_555
W10 O89 1_555 1_555
W12 O56 1_555 1_555
W14 O71 1_555 1_555
W14 O95 1_555 1_555
W15 O28 1_555 1_555
W15 O46 1_555 1_555
W15 O48 1_555 1_555
W15 O51 1_555 1_555
W16 O61 1_555 1_555
W16 O85 1_555 1_555
W17 O96 1_555 1_555
W18 O88 1_555 1_555
W19 O68 1_555 1_555
W19 O84 1_555 1_555
W19 O98 1_555 1_555
W20 O64 1_555 1_555
W20 O67 1_555 1_555
W20 O91 1_555 1_555
W20 O100 1_555 1_555
W21 O45 1_555 1_555
W22 O29 1_555 1_555
W22 O57 1_555 1_555
W22 O69 1_555 1_555
W22 O70A 1_555 1_555
W23 O41 1_555 1_555
W23 O54 1_555 1_555
W23 O72 1_555 1_555
W23 O92 1_555 1_555
W23 O106 1_555 1_555
W24 O43 1_555 1_555
W24 O49 1_555 1_555
W24 O58 1_555 1_555
W25 O55 1_555 1_555
W26 O40 1_555 1_555
W26 O73 1_555 1_555
W26 O76 1_555 1_555
W27 O42 1_555 1_555
W27 O97 1_555 1_555
W28 O66 1_555 1_555
W28 O80 1_555 1_555
W28 O86 1_555 1_555
W29 O65 1_555 1_555
W29 O99 1_555 1_555
W29 O102 1_555 1_555
W29 O108 1_555 1_555
W30 O38 1_555 1_555
W30 O75 1_555 1_555
Eu2 O7 1_555 1_555
Eu2 O12 1_555 1_555
Eu2 O30 1_555 1_555
Eu2 O56 1_555 1_555
Eu2 O71 1_555 1_555
Eu2 O74 1_555 1_555
Eu2 O83 1_555 1_555
Eu2 O94 1_555 1_555
Eu2 O95 1_555 1_555
Eu4 O36 1_555 1_555
P1 O89 1_555 1_555
P1 O90 1_555 1_555
P1 O94 1_555 1_555
P2 O62 1_555 1_555
P2 O64 1_555 1_555
P2 O74 1_555 1_555
P3 O52 1_555 1_555
P3 O59 1_555 1_555
P4 O30 1_555 1_555
P4 O44 1_555 1_555
P4 O46 1_555 1_555
O78 W13A 1_555 1_555
O82 W5A 1_555 1_555
O83 P5A 1_555 1_555
O93 W21A 1_555 1_555
C1 C6 1_555 1_555
C4 C5 1_555 1_555
C7 C12 1_555 1_555
C10 C11 1_555 1_555
C12 O139A 1_555 1_555
O141 C18 1_555 1_555
C13 C18 1_555 1_555
C16 C17 1_555 1_555
W5A O77A 1_555 1_555
W5A O109A 1_555 1_555
W21A O78A 1_555 1_555
Eu6A O137A 1_555 1_555
Eu6A O139A 1_555 1_555
P5A O70A 1_555 1_555

#END
