
#######################################################################
#
#                 Cambridge Crystallographic Data Centre
#                                CCDC 
#
#######################################################################
#
# If this CIF has been generated from an entry in the Cambridge 
# Structural Database, then it will include bibliographic, chemical, 
# crystal, experimental, refinement or atomic coordinate data resulting 
# from the CCDC's data processing and validation procedures.
#
#######################################################################

data_DEYMEA
_symmetry_cell_setting           triclinic
_symmetry_space_group_name_H-M   'P -1'
_symmetry_Int_Tables_number      2
_space_group_name_Hall           '-P 1'
loop_
_symmetry_equiv_pos_site_id
_symmetry_equiv_pos_as_xyz
1 x,y,z
2 -x,-y,-z
_cell_length_a                   9.507(3)
_cell_length_b                   10.896(3)
_cell_length_c                   12.289(4)
_cell_angle_alpha                106.699(5)
_cell_angle_beta                 99.633(6)
_cell_angle_gamma                110.377(6)
_cell_volume                     1091.15
loop_
_atom_site_label
_atom_site_type_symbol
_atom_site_fract_x
_atom_site_fract_y
_atom_site_fract_z
Cd1 Cd 0.0000 -0.5000 0.0000
O1 O -0.1616(5) -0.3773(4) 0.0202(4)
N1 N 0.2230(5) -0.2926(5) 0.0389(4)
N2 N 0.9233(5) 0.4351(4) 0.7945(4)
C1 C 0.3613(7) -0.2772(6) 0.1011(6)
H1 H 0.3709 -0.3567 0.1084
C2 C 0.4892(7) -0.1507(6) 0.1543(6)
H2 H 0.5831 -0.1459 0.1965
C3 C 0.4806(6) -0.0299(5) 0.1462(4)
C4 C 0.3404(7) -0.0461(6) 0.0794(5)
H3 H 0.3287 0.0315 0.0692
C5 C 0.2164(6) -0.1776(6) 0.0272(5)
H4 H 0.1228 -0.1861 -0.0188
C6 C 0.6174(7) 0.1114(6) 0.2128(4)
H5 H 0.5994 0.1807 0.1846
H6 H 0.7119 0.1056 0.1966
C7 C 0.6421(6) 0.1594(6) 0.3457(4)
H7 H 0.6560 0.0885 0.3738
H8 H 0.5499 0.1697 0.3626
C8 C 0.7859(7) 0.2996(6) 0.4114(4)
H9 H 0.8744 0.2920 0.3854
H10 H 0.7657 0.3721 0.3897
C9 C 0.8300(6) 0.3453(5) 0.5453(4)
C10 C 0.8570(6) 0.4790(5) 0.6176(5)
H11 H 0.8439 0.5420 0.5838
C11 C 0.9030(6) 0.5198(5) 0.7391(4)
H12 H 0.9209 0.6110 0.7854
C12 C 0.8953(8) 0.3054(6) 0.7240(5)
H13 H 0.9069 0.2436 0.7599
C13 C 0.8510(8) 0.2577(6) 0.6035(5)
H14 H 0.8344 0.1661 0.5596
H20 H -0.128(16) -0.335(11) 0.091(2)
H21 H -0.186(16) -0.338(11) -0.021(8)
Cd1_2 Cd 1.0000 0.5000 1.0000
Cd1_3 Cd -1.0000 -1.5000 -1.0000
O1A O 0.1616(5) -0.6227(4) -0.0202(4)
N1A N -0.2230(5) -0.7074(5) -0.0389(4)
N2A N -0.9233(5) -1.4351(4) -0.7945(4)
N2_2 N -0.0767(5) -0.5649(4) -0.2055(4)
N2A_2 N 0.0767(5) -0.4351(4) 0.2055(4)
C1A C -0.3613(7) -0.7228(6) -0.1011(6)
H1A H -0.3709 -0.6433 -0.1084
C2A C -0.4892(7) -0.8493(6) -0.1543(6)
H2A H -0.5831 -0.8541 -0.1965
C3A C -0.4806(6) -0.9701(5) -0.1462(4)
C4A C -0.3404(7) -0.9539(6) -0.0794(5)
H3A H -0.3287 -1.0315 -0.0692
C5A C -0.2164(6) -0.8224(6) -0.0272(5)
H4A H -0.1228 -0.8139 0.0188
C6A C -0.6174(7) -1.1114(6) -0.2128(4)
H5A H -0.5994 -1.1807 -0.1846
H6A H -0.7119 -1.1056 -0.1966
C7A C -0.6421(6) -1.1594(6) -0.3457(4)
H7A H -0.6560 -1.0885 -0.3738
H8A H -0.5499 -1.1697 -0.3626
C8A C -0.7859(7) -1.2996(6) -0.4114(4)
H9A H -0.8744 -1.2920 -0.3854
H10A H -0.7657 -1.3721 -0.3897
C9A C -0.8300(6) -1.3453(5) -0.5453(4)
C10A C -0.8570(6) -1.4790(5) -0.6176(5)
H11A H -0.8439 -1.5420 -0.5838
C11A C -0.9030(6) -1.5198(5) -0.7391(4)
H12A H -0.9209 -1.6110 -0.7854
C12A C -0.8953(8) -1.3054(6) -0.7240(5)
H13A H -0.9069 -1.2436 -0.7599
C13A C -0.8510(8) -1.2577(6) -0.6035(5)
H14A H -0.8344 -1.1661 -0.5596
H20A H 0.128(16) -0.665(11) -0.091(2)
H21A H 0.186(16) -0.662(11) 0.021(8)
Cl1 Cl 0.0497(3) 0.0631(2) 0.2665(2)
O2 O 0.1914(15) 0.0580(14) 0.3108(10)
O3 O -0.0372(17) -0.0598(10) 0.1894(15)
O4 O 0.0765(17) 0.1671(11) 0.2436(18)
O5 O -0.034(2) 0.079(3) 0.3467(16)
O6 O 0.834(3) 0.8332(16) 0.9655(16)
H22 H 0.84(2) 0.870(15) 0.913(9)
H23 H 0.86(3) 0.894(13) 1.034(5)
N3 N 0.6632(7) 0.5756(7) 0.1752(6)
C14 C 0.7258(10) 0.6715(10) 0.2834(8)
H15 H 0.8079 0.7570 0.2970
C15 C 0.6738(11) 0.6501(12) 0.3787(8)
H16 H 0.7214 0.7214 0.4538
C16 C 0.5552(10) 0.5274(12) 0.3639(9)
C17 C 0.4878(10) 0.4310(10) 0.2492(10)
H17 H 0.4019 0.3468 0.2324
C18 C 0.5445(9) 0.4563(9) 0.1589(7)
H18 H 0.4978 0.3869 0.0828
C19 C 0.4816(13) 0.4704(14) 0.4417(4)
H19 H 0.3982 0.3814 0.4058
N3A N 0.3368(7) 0.4244(7) 0.8248(6)
C14A C 0.2742(10) 0.3285(10) 0.7166(8)
H15A H 0.1921 0.2430 0.7030
C15A C 0.3262(11) 0.3499(12) 0.6213(8)
H16A H 0.2786 0.2786 0.5462
C16A C 0.4448(10) 0.4726(12) 0.6361(9)
C17A C 0.5122(10) 0.5690(10) 0.7508(10)
H17A H 0.5981 0.6532 0.7676
C18A C 0.4555(9) 0.5437(9) 0.8411(7)
H18A H 0.5022 0.6131 0.9172
C19A C 0.5184(13) 0.5296(14) 0.5583(4)
H19A H 0.6018 0.6186 0.5942
loop_
_geom_bond_atom_site_label_1
_geom_bond_atom_site_label_2
_geom_bond_site_symmetry_1
_geom_bond_site_symmetry_2
Cd1 O1 1_555 1_555
Cl1 O2 1_555 1_555
O1 H20 1_555 1_555
O3 Cl1 1_555 1_555
O4 Cl1 1_555 1_555
O5 Cl1 1_555 1_555
O6 H22 1_555 1_555
N1 Cd1 1_555 1_555
N2 C11 1_555 1_555
N3 C14 1_555 1_555
C1 N1 1_555 1_555
H1 C1 1_555 1_555
C2 C1 1_555 1_555
H2 C2 1_555 1_555
C3 C2 1_555 1_555
C4 C3 1_555 1_555
H3 C4 1_555 1_555
C5 N1 1_555 1_555
H4 C5 1_555 1_555
C6 C3 1_555 1_555
H5 C6 1_555 1_555
H6 C6 1_555 1_555
C7 C6 1_555 1_555
H7 C7 1_555 1_555
H8 C7 1_555 1_555
C8 C7 1_555 1_555
H9 C8 1_555 1_555
H10 C8 1_555 1_555
C9 C8 1_555 1_555
C10 C9 1_555 1_555
H11 C10 1_555 1_555
C11 C10 1_555 1_555
H12 C11 1_555 1_555
C12 N2 1_555 1_555
H13 C12 1_555 1_555
C13 C9 1_555 1_555
H14 C13 1_555 1_555
C14 H15 1_555 1_555
C15 C14 1_555 1_555
H16 C15 1_555 1_555
C16 C15 1_555 1_555
C17 C16 1_555 1_555
H17 C17 1_555 1_555
C18 N3 1_555 1_555
H18 C18 1_555 1_555
C19 C16 1_555 1_555
H19 C19 1_555 1_555
H21 O1 1_555 1_555
H23 O6 1_555 1_555
Cd1_2 N2 1_555 1_555
Cd1_3 N2A 1_555 1_555
O1A Cd1 1_555 1_555
N1A Cd1 1_555 1_555
N2A C11A 1_555 1_555
N2_2 Cd1 1_555 1_555
N2A_2 Cd1 1_555 1_555
N3A C14A 1_555 1_555
C1A N1A 1_555 1_555
H1A C1A 1_555 1_555
C2A C1A 1_555 1_555
H2A C2A 1_555 1_555
C3A C2A 1_555 1_555
C4A C3A 1_555 1_555
H3A C4A 1_555 1_555
C5A N1A 1_555 1_555
H4A C5A 1_555 1_555
C6A C3A 1_555 1_555
H5A C6A 1_555 1_555
H6A C6A 1_555 1_555
C7A C6A 1_555 1_555
H7A C7A 1_555 1_555
H8A C7A 1_555 1_555
C8A C7A 1_555 1_555
H9A C8A 1_555 1_555
H10A C8A 1_555 1_555
C9A C8A 1_555 1_555
C10A C9A 1_555 1_555
H11A C10A 1_555 1_555
C11A C10A 1_555 1_555
H12A C11A 1_555 1_555
C12A N2A 1_555 1_555
H13A C12A 1_555 1_555
C13A C9A 1_555 1_555
H14A C13A 1_555 1_555
C14A H15A 1_555 1_555
C15A C14A 1_555 1_555
H16A C15A 1_555 1_555
C16A C15A 1_555 1_555
C17A C16A 1_555 1_555
H17A C17A 1_555 1_555
C18A N3A 1_555 1_555
H18A C18A 1_555 1_555
C19A C19 1_555 1_555
H19A C19A 1_555 1_555
H20A O1A 1_555 1_555
H21A O1A 1_555 1_555
C4 C5 1_555 1_555
C12 C13 1_555 1_555
C17 C18 1_555 1_555
C4A C5A 1_555 1_555
C12A C13A 1_555 1_555
C16A C19A 1_555 1_555
C17A C18A 1_555 1_555

#END
