
#######################################################################
#
#                 Cambridge Crystallographic Data Centre
#                                CCDC 
#
#######################################################################
#
# If this CIF has been generated from an entry in the Cambridge 
# Structural Database, then it will include bibliographic, chemical, 
# crystal, experimental, refinement or atomic coordinate data resulting 
# from the CCDC's data processing and validation procedures.
#
#######################################################################

data_DEYMEB
_symmetry_cell_setting           triclinic
_symmetry_space_group_name_H-M   'P -1'
_symmetry_Int_Tables_number      2
_space_group_name_Hall           '-P 1'
loop_
_symmetry_equiv_pos_site_id
_symmetry_equiv_pos_as_xyz
1 x,y,z
2 -x,-y,-z
_cell_length_a                   10.7437(14)
_cell_length_b                   11.9023(15)
_cell_length_c                   12.0615(16)
_cell_angle_alpha                90.789(2)
_cell_angle_beta                 108.826(2)
_cell_angle_gamma                110.710(2)
_cell_volume                     1351.2
loop_
_atom_site_label
_atom_site_type_symbol
_atom_site_fract_x
_atom_site_fract_y
_atom_site_fract_z
Cd1 Cd 0.33754(3) 0.33253(3) 0.12797(3)
Br1 Br 0.58100(7) 0.05898(5) 0.35015(5)
Br2 Br 0.53170(7) -0.22619(5) 0.38344(5)
Br3 Br 0.12029(6) -0.38064(4) -0.07396(4)
Br4 Br 0.19420(6) -0.08908(5) -0.11824(4)
C1 C 0.1427(5) 0.3060(4) 0.3021(4)
H1 H 0.1243 0.3747 0.2800
C2 C 0.2142(6) 0.1595(5) 0.3142(5)
H2 H 0.2566 0.1075 0.3005
C3 C 0.1470(6) 0.1481(5) 0.3928(4)
H3 H 0.1341 0.0887 0.4420
C4 C 0.0308(5) 0.2727(4) 0.4555(4)
C5 C 0.0702(5) 0.2601(4) 0.5739(4)
H4 H 0.1438 0.2337 0.6087
C6 C -0.0023(5) 0.2874(4) 0.6400(4)
C7 C -0.1099(5) 0.3288(4) 0.5912(4)
H5 H -0.1571 0.3468 0.6372
C8 C -0.1471(4) 0.3432(4) 0.4724(4)
C9 C -0.0774(4) 0.3151(4) 0.4039(4)
H6 H -0.1026 0.3244 0.3243
C10 C 0.1612(5) 0.3229(5) 0.8500(4)
H7 H 0.2400 0.3826 0.8415
C11 C 0.0259(6) 0.1941(6) 0.9229(5)
H8 H -0.0062 0.1468 0.9762
C12 C -0.0511(6) 0.1877(6) 0.8104(5)
H9 H -0.1457 0.1372 0.7718
C13 C -0.3164(5) 0.4415(4) 0.4774(4)
H10 H -0.2832 0.4680 0.5583
C14 C -0.4277(5) 0.4533(5) 0.3947(4)
H11 H -0.4834 0.4924 0.4090
C15 C -0.3455(5) 0.3581(4) 0.3046(4)
H12 H -0.3326 0.3168 0.2458
C16 C 0.4092(5) 0.0949(4) 0.1014(4)
C17 C 0.3832(5) -0.0368(4) 0.1175(4)
C18 C 0.4539(5) -0.0669(4) 0.2229(4)
C19 C 0.4314(5) -0.1867(4) 0.2397(4)
C20 C 0.3326(5) -0.2810(4) 0.1491(4)
C21 C 0.2607(4) -0.2509(4) 0.0435(4)
C22 C 0.2869(5) -0.1310(4) 0.0272(4)
C23 C 0.2992(5) -0.4129(4) 0.1712(4)
N1 N 0.2118(4) 0.2586(3) 0.2568(3)
N2 N 0.1015(4) 0.2429(3) 0.3848(3)
N3 N 0.0349(4) 0.2694(4) 0.7621(3)
N4 N 0.1589(4) 0.2799(4) 0.9490(3)
N5 N -0.2614(4) 0.3830(3) 0.4196(3)
N6 N -0.4475(4) 0.3990(3) 0.2858(3)
O1 O 0.5101(4) 0.1514(3) 0.0713(3)
O2 O 0.4902(4) 0.3623(3) 0.0139(3)
H13 H 0.5159 0.3021 0.0146
H14 H 0.4451 0.3671 -0.0573
O3 O 0.3257(4) 0.1346(3) 0.1252(3)
O4 O 0.3609(3) -0.4679(3) 0.1324(3)
O5 O 0.2168(4) -0.4520(3) 0.2249(3)
Cd1_2 Cd -0.66246(3) 0.33253(3) 0.12797(3)
Cd1_3 Cd 0.33754(3) -0.66747(3) 0.12797(3)
Cd1_4 Cd 0.33754(3) 0.33253(3) 1.12797(3)
N4_2 N 0.1589(4) 0.2799(4) -0.0510(3)
N6_2 N 0.5525(4) 0.3990(3) 0.2858(3)
O4_2 O 0.3609(3) 0.5321(3) 0.1324(3)
loop_
_geom_bond_atom_site_label_1
_geom_bond_atom_site_label_2
_geom_bond_site_symmetry_1
_geom_bond_site_symmetry_2
Cd1 N1 1_555 1_555
Br1 C18 1_555 1_555
Br2 C19 1_555 1_555
Br3 C21 1_555 1_555
Br4 C22 1_555 1_555
C1 H1 1_555 1_555
C2 H2 1_555 1_555
C3 C2 1_555 1_555
H3 C3 1_555 1_555
C4 C5 1_555 1_555
C5 H4 1_555 1_555
C6 C5 1_555 1_555
C7 C6 1_555 1_555
H5 C7 1_555 1_555
C8 C7 1_555 1_555
C9 C4 1_555 1_555
H6 C9 1_555 1_555
C10 H7 1_555 1_555
C11 H8 1_555 1_555
C12 C11 1_555 1_555
H9 C12 1_555 1_555
C13 H10 1_555 1_555
C14 C13 1_555 1_555
H11 C14 1_555 1_555
C15 H12 1_555 1_555
C16 C17 1_555 1_555
C17 C18 1_555 1_555
C18 C19 1_555 1_555
C19 C20 1_555 1_555
C20 C21 1_555 1_555
C21 C22 1_555 1_555
C22 C17 1_555 1_555
C23 C20 1_555 1_555
N1 C1 1_555 1_555
N2 C1 1_555 1_555
N3 C6 1_555 1_555
N4 C10 1_555 1_555
N5 C8 1_555 1_555
N6 C14 1_555 1_555
O1 C16 1_555 1_555
O2 Cd1 1_555 1_555
H13 O2 1_555 1_555
H14 O2 1_555 1_555
O3 Cd1 1_555 1_555
O4 C23 1_555 1_555
O5 C23 1_555 1_555
Cd1_2 N6 1_555 1_555
Cd1_3 O4 1_555 1_555
Cd1_4 N4 1_555 1_555
N4_2 Cd1 1_555 1_555
N6_2 Cd1 1_555 1_555
O4_2 Cd1 1_555 1_555
C2 N1 1_555 1_555
C3 N2 1_555 1_555
C4 N2 1_555 1_555
C8 C9 1_555 1_555
C10 N3 1_555 1_555
C11 N4 1_555 1_555
C12 N3 1_555 1_555
C13 N5 1_555 1_555
C15 N5 1_555 1_555
C15 N6 1_555 1_555
C16 O3 1_555 1_555

#END
