
#######################################################################
#
#                 Cambridge Crystallographic Data Centre
#                                CCDC 
#
#######################################################################
#
# If this CIF has been generated from an entry in the Cambridge 
# Structural Database, then it will include bibliographic, chemical, 
# crystal, experimental, refinement or atomic coordinate data resulting 
# from the CCDC's data processing and validation procedures.
#
#######################################################################

data_DEYMAX
_symmetry_cell_setting           triclinic
_symmetry_space_group_name_H-M   'P -1'
_symmetry_Int_Tables_number      2
_space_group_name_Hall           '-P 1'
loop_
_symmetry_equiv_pos_site_id
_symmetry_equiv_pos_as_xyz
1 x,y,z
2 -x,-y,-z
_cell_length_a                   12.5908(13)
_cell_length_b                   12.7757(14)
_cell_length_c                   13.7370(15)
_cell_angle_alpha                86.559(2)
_cell_angle_beta                 80.567(2)
_cell_angle_gamma                72.878(2)
_cell_volume                     2083.03
loop_
_atom_site_label
_atom_site_type_symbol
_atom_site_fract_x
_atom_site_fract_y
_atom_site_fract_z
Cd1 Cd 0.20321(3) -0.19524(3) 1.12590(3)
Br1 Br -0.06686(6) 0.13452(6) 1.29917(5)
Br2 Br -0.14806(5) 0.25837(5) 1.51484(5)
Br3 Br -0.05350(5) -0.25683(5) 0.89760(5)
Br4 Br -0.21925(5) -0.41251(6) 0.88562(5)
C1 C 0.2304(5) 0.0205(5) 0.9945(5)
H1 H 0.2728 0.0403 1.0357
C2 C 0.1356(6) -0.0635(6) 0.9311(5)
H2 H 0.0992 -0.1146 0.9208
C3 C 0.1397(5) 0.0223(5) 0.8725(5)
H3 H 0.1077 0.0415 0.8152
C4 C 0.2229(4) 0.1755(4) 0.8748(4)
C5 C 0.1470(4) 0.2482(5) 0.8223(4)
H4 H 0.0825 0.2322 0.8116
C6 C 0.1677(4) 0.3442(4) 0.7861(4)
C7 C 0.2635(5) 0.3680(5) 0.8018(4)
H5 H 0.2780 0.4326 0.7769
C8 C 0.3370(4) 0.2952(5) 0.8546(5)
C9 C 0.3180(5) 0.1987(5) 0.8933(4)
H6 H 0.3676 0.1511 0.9305
C10 C 0.0086(5) 0.3987(5) 0.6906(5)
H7 H -0.0065 0.3315 0.6927
C11 C 0.0009(6) 0.5694(6) 0.6617(5)
H8 H -0.0228 0.6416 0.6396
C12 C 0.0843(5) 0.5270(5) 0.7124(5)
H9 H 0.1314 0.5635 0.7314
C13 C 0.5405(5) 0.2414(5) 0.8618(5)
H10 H 0.5539 0.1681 0.8471
C14 C 0.4531(5) 0.4134(5) 0.8915(5)
H11 H 0.3979 0.4804 0.9004
C15 C 0.5638(5) 0.3931(5) 0.8982(5)
H12 H 0.5975 0.4443 0.9138
C16 C 0.0806(6) -0.1079(5) 1.3091(5)
C17 C 0.0391(4) -0.0516(4) 1.4086(4)
C18 C -0.0283(5) 0.0586(5) 1.4146(4)
C19 C -0.0654(4) 0.1083(4) 1.5057(4)
C20 C 0.1415(5) -0.3586(4) 1.0175(5)
C21 C 0.0689(4) -0.4327(5) 1.0071(4)
C22 C -0.0235(5) -0.3970(4) 0.9574(4)
C23 C -0.0919(4) -0.4629(5) 0.9515(4)
N1 N 0.1926(4) -0.0665(4) 1.0089(4)
N2 N 0.1995(4) 0.0765(4) 0.9126(4)
N3 N 0.0889(4) 0.4205(4) 0.7318(4)
N4 N -0.0444(4) 0.4867(4) 0.6476(4)
H13 H -0.0990 0.4927 0.6154
N5 N 0.6179(4) 0.2847(4) 0.8780(4)
N6 N 0.4389(4) 0.3164(4) 0.8691(4)
O1 O 0.1713(4) -0.0981(4) 1.2635(3)
O2 O 0.0240(4) -0.1598(4) 1.2801(3)
O3 O 0.1086(3) -0.3018(4) 1.0954(3)
O4 O 0.2219(4) -0.3595(4) 0.9541(3)
Br1A Br 0.06686(6) -0.13452(6) 1.70083(5)
Br2A Br 0.14806(5) -0.25837(5) 1.48516(5)
C16A C -0.0806(6) 0.1079(5) 1.6909(5)
C17A C -0.0391(4) 0.0516(4) 1.5914(4)
C18A C 0.0283(5) -0.0586(5) 1.5854(4)
C19A C 0.0654(4) -0.1083(4) 1.4943(4)
O1A O -0.1713(4) 0.0981(4) 1.7365(3)
O2A O -0.0240(4) 0.1598(4) 1.7199(3)
Br3A Br 0.05350(5) -0.74317(5) 1.10240(5)
Br4A Br 0.21925(5) -0.58749(6) 1.11438(5)
C20A C -0.1415(5) -0.6414(4) 0.9825(5)
C21A C -0.0689(4) -0.5673(5) 0.9929(4)
C22A C 0.0235(5) -0.6030(4) 1.0426(4)
C23A C 0.0919(4) -0.5371(5) 1.0485(4)
O3A O -0.1086(3) -0.6982(4) 0.9046(3)
O4A O -0.2219(4) -0.6405(4) 1.0459(3)
Cd1A Cd -0.20321(3) -0.80476(3) 0.87410(3)
C1A C -0.2304(5) -1.0205(5) 1.0055(5)
H1A H -0.2728 -1.0403 0.9643
C2A C -0.1356(6) -0.9365(6) 1.0689(5)
H2A H -0.0992 -0.8854 1.0792
C3A C -0.1397(5) -1.0223(5) 1.1275(5)
H3A H -0.1077 -1.0415 1.1848
C4A C -0.2229(4) -1.1755(4) 1.1252(4)
C5A C -0.1470(4) -1.2482(5) 1.1777(4)
H4A H -0.0825 -1.2322 1.1884
C6A C -0.1677(4) -1.3442(4) 1.2139(4)
C7A C -0.2635(5) -1.3680(5) 1.1982(4)
H5A H -0.2780 -1.4326 1.2231
C8A C -0.3370(4) -1.2952(5) 1.1454(5)
C9A C -0.3180(5) -1.1987(5) 1.1067(4)
H6A H -0.3676 -1.1511 1.0695
C10A C -0.0086(5) -1.3987(5) 1.3094(5)
H7A H 0.0065 -1.3315 1.3073
C11A C -0.0009(6) -1.5694(6) 1.3383(5)
H8A H 0.0228 -1.6416 1.3604
C12A C -0.0843(5) -1.5270(5) 1.2876(5)
H9A H -0.1314 -1.5635 1.2686
C13A C -0.5405(5) -1.2414(5) 1.1382(5)
H10A H -0.5539 -1.1681 1.1529
C14A C -0.4531(5) -1.4134(5) 1.1085(5)
H11A H -0.3979 -1.4804 1.0996
C15A C -0.5638(5) -1.3931(5) 1.1018(5)
H12A H -0.5975 -1.4443 1.0862
N1A N -0.1926(4) -0.9335(4) 0.9911(4)
N2A N -0.1995(4) -1.0765(4) 1.0874(4)
N3A N -0.0889(4) -1.4205(4) 1.2682(4)
N4A N 0.0444(4) -1.4867(4) 1.3524(4)
H13A H 0.0990 -1.4927 1.3846
N5A N -0.6179(4) -1.2847(4) 1.1220(4)
N6A N -0.4389(4) -1.3164(4) 1.1309(4)
Cd1_2 Cd -0.79679(3) -1.19524(3) 1.12590(3)
Cd1A_2 Cd -0.20321(3) 0.19524(3) 1.87410(3)
Cd1A_3 Cd 0.79679(3) 0.19524(3) 0.87410(3)
N5_2 N -0.3821(4) -0.7153(4) 0.8780(4)
N5A_2 N 0.3821(4) -0.2847(4) 1.1220(4)
O1A_2 O -0.1713(4) -0.9019(4) 0.7365(3)
O2A_2 O -0.0240(4) -0.8402(4) 0.7199(3)
Br5 Br 0.82593(6) -0.23128(6) 0.50394(6)
Br6 Br 0.73371(6) -0.07140(6) 0.70099(6)
Br7 Br 0.40301(6) -0.28688(7) 0.82843(6)
Br8 Br 0.50253(7) -0.45358(7) 0.63547(6)
C24 C 0.5390(5) -0.1253(6) 0.8420(5)
C25 C 0.5791(5) -0.1958(5) 0.7512(5)
C26 C 0.6695(5) -0.1829(5) 0.6815(5)
C27 C 0.7088(5) -0.2509(5) 0.6019(5)
C28 C 0.6641(5) -0.3370(5) 0.5907(5)
C29 C 0.5723(5) -0.3466(5) 0.6584(5)
C30 C 0.5286(5) -0.2756(5) 0.7363(5)
C31 C 0.7187(5) -0.4214(5) 0.5086(5)
O5 O 0.5742(5) -0.1547(5) 0.9174(4)
O6 O 0.4663(4) -0.0287(4) 0.8337(4)
H14 H 0.4523 -0.0197 0.7770
O7 O 0.7973(4) -0.4996(4) 0.5331(4)
O8 O 0.6816(4) -0.4065(4) 0.4304(3)
C32 C 0.6336(11) 0.0219(10) 0.3920(9)
H15 H 0.6199 -0.0033 0.4588
H16 H 0.5990 0.0995 0.3884
H17 H 0.7131 0.0061 0.3707
O9 O 0.5896(7) -0.0292(5) 0.3332(5)
H18 H 0.5736 -0.0813 0.3632
C33 C 0.4328(8) -0.2252(8) 0.4071(7)
H19 H 0.4280 -0.2823 0.3672
H20 H 0.3794 -0.1575 0.3924
H21 H 0.4165 -0.2436 0.4756
O10 O 0.5411(5) -0.2137(5) 0.3870(5)
H22 H 0.5859 -0.2723 0.3682
loop_
_geom_bond_atom_site_label_1
_geom_bond_atom_site_label_2
_geom_bond_site_symmetry_1
_geom_bond_site_symmetry_2
Cd1 N1 1_555 1_555
Br1 C18 1_555 1_555
Br2 C19 1_555 1_555
Br3 C22 1_555 1_555
Br4 C23 1_555 1_555
C1 H1 1_555 1_555
C2 H2 1_555 1_555
C3 C2 1_555 1_555
H3 C3 1_555 1_555
C4 C5 1_555 1_555
C5 H4 1_555 1_555
C6 C5 1_555 1_555
C7 C6 1_555 1_555
H5 C7 1_555 1_555
C8 C7 1_555 1_555
C9 C4 1_555 1_555
H6 C9 1_555 1_555
C10 H7 1_555 1_555
C11 H8 1_555 1_555
C12 C11 1_555 1_555
H9 C12 1_555 1_555
C13 H10 1_555 1_555
C14 H11 1_555 1_555
C15 C14 1_555 1_555
H12 C15 1_555 1_555
C16 C17 1_555 1_555
C17 C18 1_555 1_555
C18 C19 1_555 1_555
C19 C17A 1_555 1_555
C20 C21 1_555 1_555
C21 C22 1_555 1_555
C22 C23 1_555 1_555
C23 C21A 1_555 1_555
N1 C1 1_555 1_555
N2 C1 1_555 1_555
N3 C6 1_555 1_555
N4 C10 1_555 1_555
H13 N4 1_555 1_555
N5 C13 1_555 1_555
N6 C8 1_555 1_555
O1 Cd1 1_555 1_555
O2 Cd1 1_555 1_555
O3 Cd1 1_555 1_555
O4 C20 1_555 1_555
Br5 C27 1_555 1_555
Br6 C26 1_555 1_555
Br7 C30 1_555 1_555
Br8 C29 1_555 1_555
C24 C25 1_555 1_555
C25 C26 1_555 1_555
C26 C27 1_555 1_555
C27 C28 1_555 1_555
C28 C29 1_555 1_555
C29 C30 1_555 1_555
C30 C25 1_555 1_555
C31 C28 1_555 1_555
O5 C24 1_555 1_555
O6 C24 1_555 1_555
H14 O6 1_555 1_555
O7 C31 1_555 1_555
O8 C31 1_555 1_555
C32 H15 1_555 1_555
H16 C32 1_555 1_555
H17 C32 1_555 1_555
O9 C32 1_555 1_555
H18 O9 1_555 1_555
C33 H19 1_555 1_555
H20 C33 1_555 1_555
H21 C33 1_555 1_555
O10 C33 1_555 1_555
H22 O10 1_555 1_555
Br1A C18A 1_555 1_555
Br2A C19A 1_555 1_555
C16A C17A 1_555 1_555
C17A C18A 1_555 1_555
C18A C19A 1_555 1_555
C19A C17 1_555 1_555
O1A C16A 1_555 1_555
O2A C16A 1_555 1_555
Br3A C22A 1_555 1_555
Br4A C23A 1_555 1_555
C20A C21A 1_555 1_555
C21A C22A 1_555 1_555
C22A C23A 1_555 1_555
C23A C21 1_555 1_555
O3A C20A 1_555 1_555
O4A C20A 1_555 1_555
Cd1A O3A 1_555 1_555
C1A H1A 1_555 1_555
C2A H2A 1_555 1_555
C3A C2A 1_555 1_555
H3A C3A 1_555 1_555
C4A C5A 1_555 1_555
C5A H4A 1_555 1_555
C6A C5A 1_555 1_555
C7A C6A 1_555 1_555
H5A C7A 1_555 1_555
C8A C7A 1_555 1_555
C9A C4A 1_555 1_555
H6A C9A 1_555 1_555
C10A H7A 1_555 1_555
C11A H8A 1_555 1_555
C12A C11A 1_555 1_555
H9A C12A 1_555 1_555
C13A H10A 1_555 1_555
C14A H11A 1_555 1_555
C15A C14A 1_555 1_555
H12A C15A 1_555 1_555
N1A Cd1A 1_555 1_555
N2A C1A 1_555 1_555
N3A C6A 1_555 1_555
N4A C10A 1_555 1_555
H13A N4A 1_555 1_555
N5A C13A 1_555 1_555
N6A C8A 1_555 1_555
Cd1_2 N5A 1_555 1_555
Cd1A_2 O1A 1_555 1_555
Cd1A_3 N5 1_555 1_555
N5_2 Cd1A 1_555 1_555
N5A_2 Cd1 1_555 1_555
O1A_2 Cd1A 1_555 1_555
O2A_2 Cd1A 1_555 1_555
C2 N1 1_555 1_555
C3 N2 1_555 1_555
C4 N2 1_555 1_555
C8 C9 1_555 1_555
C10 N3 1_555 1_555
C11 N4 1_555 1_555
C12 N3 1_555 1_555
C13 N6 1_555 1_555
C14 N6 1_555 1_555
C15 N5 1_555 1_555
C16 O1 1_555 1_555
C16 O2 1_555 1_555
C20 O3 1_555 1_555
O2A Cd1A_2 1_555 1_555
C1A N1A 1_555 1_555
C2A N1A 1_555 1_555
C3A N2A 1_555 1_555
C4A N2A 1_555 1_555
C8A C9A 1_555 1_555
C10A N3A 1_555 1_555
C11A N4A 1_555 1_555
C12A N3A 1_555 1_555
C13A N6A 1_555 1_555
C14A N6A 1_555 1_555
C15A N5A 1_555 1_555

#END
