
#######################################################################
#
#                 Cambridge Crystallographic Data Centre
#                                CCDC 
#
#######################################################################
#
# If this CIF has been generated from an entry in the Cambridge 
# Structural Database, then it will include bibliographic, chemical, 
# crystal, experimental, refinement or atomic coordinate data resulting 
# from the CCDC's data processing and validation procedures.
#
#######################################################################

data_DEYNIG
_symmetry_cell_setting           orthorhombic
_symmetry_space_group_name_H-M   'P b c n'
_symmetry_Int_Tables_number      60
_space_group_name_Hall           '-P 2n 2ab'
loop_
_symmetry_equiv_pos_site_id
_symmetry_equiv_pos_as_xyz
1 x,y,z
2 1/2-x,1/2-y,1/2+z
3 -x,y,1/2-z
4 1/2+x,1/2-y,-z
5 -x,-y,-z
6 1/2+x,1/2+y,1/2-z
7 x,-y,1/2+z
8 1/2-x,1/2+y,z
_cell_length_a                   7.6664(16)
_cell_length_b                   31.951(7)
_cell_length_c                   15.481(3)
_cell_angle_alpha                90
_cell_angle_beta                 90
_cell_angle_gamma                90
_cell_volume                     3792.06
loop_
_atom_site_label
_atom_site_type_symbol
_atom_site_fract_x
_atom_site_fract_y
_atom_site_fract_z
I1 I 0.26219(14) 0.47671(3) 0.44965(7)
I2 I 0.25562(15) 0.45223(4) 0.17904(7)
Cu1 Cu 0.0856(3) 0.43826(6) 0.32572(14)
Cu2 Cu -0.0781(3) 0.46589(6) 0.46948(15)
Cu3 Cu 0.2509(3) 0.22911(6) 0.37368(15)
O1 O 0.0223(15) 0.2070(4) 0.3988(9)
O2 O 0.4840(15) 0.2541(3) 0.3663(9)
O3 O -0.1110(16) 0.1511(4) 0.4538(10)
O4 O 0.6185(16) 0.3156(4) 0.3536(12)
N1 N 0.3295(17) 0.1724(4) 0.4118(10)
N2 N 0.1718(17) 0.2890(4) 0.3675(10)
C1 C 0.488(2) 0.1553(5) 0.4132(13)
H1 H 0.5829 0.1708 0.3938
C2 C 0.485(2) 0.2943(5) 0.3598(13)
C3 C 0.021(2) 0.1703(6) 0.4311(12)
N3 N 0.3785(16) 0.0914(4) 0.4681(9)
N4 N 0.1267(16) 0.3744(4) 0.3466(9)
C4 C 0.514(2) 0.1152(5) 0.4428(10)
H2 H 0.6263 0.1043 0.4452
O5 O 0.2457(18) 0.2188(4) 0.2314(9)
H3 H 0.2711 0.2187 0.1780
H4 H 0.1490 0.2059 0.2372
C5 C 0.3107(18) 0.3147(5) 0.3595(10)
C6 C 0.287(2) 0.3574(5) 0.3495(11)
H5 H 0.3843 0.3747 0.3446
C7 C -0.007(2) 0.3479(5) 0.3576(11)
H6 H -0.1199 0.3588 0.3588
C8 C 0.013(2) 0.3061(5) 0.3670(12)
H7 H -0.0847 0.2890 0.3731
C9 C 0.2199(19) 0.1089(5) 0.4670(10)
H8 H 0.1250 0.0942 0.4887
C10 C 0.1957(19) 0.1481(5) 0.4346(10)
I1D I -0.26219(14) 0.52329(3) 0.55035(7)
I2B I -0.25562(15) 0.45223(4) 0.32096(7)
Cu1B Cu -0.0856(3) 0.43826(6) 0.17428(14)
Cu2B Cu 0.0781(3) 0.46589(6) 0.03052(15)
Cu2C Cu 0.4219(3) 0.03411(6) 0.53052(15)
Cu2D Cu 0.0781(3) 0.53411(6) 0.53052(15)
N3C N -0.1215(16) 0.4086(4) 0.5319(9)
O6 O 0.5000 0.071(2) 0.2500
H9 H 0.3920 0.0710 0.2375
H9B H 0.6080 0.0710 0.2625
O7 O 0.0000 0.088(2) 0.2500
H10 H 0.0624 0.0663 0.2402
H10B H -0.0624 0.0663 0.2598
H11? H 0.0732 0.1081 0.2437
H12? H 0.5198 0.0449 0.2559
loop_
_geom_bond_atom_site_label_1
_geom_bond_atom_site_label_2
_geom_bond_site_symmetry_1
_geom_bond_site_symmetry_2
I1 Cu1 1_555 1_555
I2 Cu1 1_555 1_555
Cu1 N4 1_555 1_555
Cu2 I1 1_555 1_555
Cu3 O1 1_555 1_555
O1 C3 1_555 1_555
O2 Cu3 1_555 1_555
O3 C3 1_555 1_555
O4 C2 1_555 1_555
N1 Cu3 1_555 1_555
N2 Cu3 1_555 1_555
C1 N1 1_555 1_555
H1 C1 1_555 1_555
C2 O2 1_555 1_555
C3 C10 1_555 1_555
N3 C4 1_555 1_555
N4 C6 1_555 1_555
C4 C1 1_555 1_555
H2 C4 1_555 1_555
O5 Cu3 1_555 1_555
H3 O5 1_555 1_555
H4 O5 1_555 1_555
C5 N2 1_555 1_555
C6 C5 1_555 1_555
H5 C6 1_555 1_555
C7 N4 1_555 1_555
H6 C7 1_555 1_555
C8 N2 1_555 1_555
H7 C8 1_555 1_555
C9 N3 1_555 1_555
H8 C9 1_555 1_555
C10 N1 1_555 1_555
O6 H9 1_555 1_555
O7 H10 1_555 1_555
I1D Cu2 1_555 1_555
I2B Cu1 1_555 1_555
Cu1B I2 1_555 1_555
Cu2B I2 1_555 1_555
Cu2C N3 1_555 1_555
Cu2D I1 1_555 1_555
N3C Cu2 1_555 1_555
H9B O6 1_555 1_555
H10B O7 1_555 1_555
Cu2 I2B 1_555 1_555
C2 C5 1_555 1_555
C7 C8 1_555 1_555
C9 C10 1_555 1_555
I1D Cu2D 1_555 1_555
I2B Cu1B 1_555 1_555

#END
