
#######################################################################
#
#                 Cambridge Crystallographic Data Centre
#                                CCDC 
#
#######################################################################
#
# If this CIF has been generated from an entry in the Cambridge 
# Structural Database, then it will include bibliographic, chemical, 
# crystal, experimental, refinement or atomic coordinate data resulting 
# from the CCDC's data processing and validation procedures.
#
#######################################################################

data_DEYNUR
_symmetry_cell_setting           monoclinic
_symmetry_space_group_name_H-M   'P 21'
_symmetry_Int_Tables_number      4
_space_group_name_Hall           'P 2yb'
loop_
_symmetry_equiv_pos_site_id
_symmetry_equiv_pos_as_xyz
1 x,y,z
2 -x,1/2+y,-z
_cell_length_a                   11.288(2)
_cell_length_b                   8.0129(16)
_cell_length_c                   15.702(3)
_cell_angle_alpha                90
_cell_angle_beta                 92.77(3)
_cell_angle_gamma                90
_cell_volume                     1418.58
loop_
_atom_site_label
_atom_site_type_symbol
_atom_site_fract_x
_atom_site_fract_y
_atom_site_fract_z
Ni1 Ni 0.48777(3) 0.46905(5) 0.77301(2)
O1 O 0.49613(18) 0.7153(3) 0.73796(16)
H1 H 0.5407 0.7778 0.7643
H2 H 0.4408 0.7620 0.7153
O2 O 0.50551(18) 0.5349(3) 0.90043(13)
H3 H 0.5580 0.5985 0.9173
H4 H 0.4509 0.5345 0.9333
O3 O 0.48271(18) 0.3930(3) 0.64724(14)
H5 H 0.4747 0.4458 0.5984
H6 H 0.4365 0.3148 0.6364
O4 O 0.47752(18) 0.2193(3) 0.81013(16)
H7 H 0.5260 0.1471 0.8250
H8 H 0.4261 0.1733 0.7780
N1 N 0.67309(17) 0.4633(4) 0.76999(14)
N2 N 1.30230(16) 0.4711(4) 0.76875(14)
C1 C 0.7290(2) 0.5293(4) 0.70475(19)
H9 H 0.6833 0.5793 0.6610
C2 C 0.8499(2) 0.5274(4) 0.69853(18)
H10 H 0.8840 0.5749 0.6515
C3 C 0.9213(2) 0.4537(4) 0.76318(16)
C4 C 0.8624(2) 0.3840(4) 0.8302(2)
H11 H 0.9055 0.3320 0.8747
C5 C 0.7412(2) 0.3912(4) 0.8312(2)
H12 H 0.7045 0.3433 0.8770
C6 C 1.2439(2) 0.3972(4) 0.83002(19)
H13 H 1.2876 0.3500 0.8756
C7 C 1.1218(2) 0.3870(4) 0.82929(18)
H14 H 1.0855 0.3324 0.8733
C8 C 1.05302(19) 0.4577(4) 0.76331(16)
C9 C 1.1143(2) 0.5346(4) 0.6995(2)
H15 H 1.0728 0.5839 0.6535
C10 C 1.2366(2) 0.5382(4) 0.70432(19)
H16 H 1.2753 0.5899 0.6605
Ni1_2 Ni 1.48777(3) 0.46905(5) 0.77301(2)
N2_2 N 0.30230(16) 0.4711(4) 0.76875(14)
S1 S 0.69124(7) 0.92635(9) 0.91342(5)
O5 O 0.6482(2) 0.9289(4) 0.82489(17)
O6 O 0.6740(2) 0.7648(3) 0.95262(17)
O7 O 0.6418(2) 1.0619(4) 0.9610(2)
N3 N 1.2148(2) 0.9914(5) 0.9260(2)
H17 H 1.2550 0.9387 0.8895
H18 H 1.2507 1.0491 0.9656
C11 C 0.8456(2) 0.9574(4) 0.91396(16)
C12 C 0.9114(3) 0.8781(4) 0.8536(2)
H19 H 0.8730 0.8160 0.8105
C13 C 1.0334(3) 0.8906(4) 0.8572(2)
H20 H 1.0766 0.8363 0.8165
C14 C 1.0931(3) 0.9837(5) 0.92110(18)
C15 C 1.0256(3) 1.0677(4) 0.98021(19)
H21 H 1.0631 1.1334 1.0222
C16 C 0.9027(3) 1.0532(4) 0.97626(18)
H22 H 0.8586 1.1086 1.0160
S2 S 0.29256(7) 1.00821(10) 0.63346(6)
O8 O 0.3593(2) 0.8742(4) 0.5987(2)
O9 O 0.3094(2) 1.0145(5) 0.72543(16)
O10 O 0.3190(3) 1.1667(4) 0.5944(2)
N4 N -0.2151(3) 0.8899(5) 0.5451(2)
H23 H -0.2363 0.8273 0.5026
H24 H -0.2680 0.9361 0.5750
C17 C 0.1422(2) 0.9663(5) 0.60810(17)
C18 C 0.0572(3) 1.0393(4) 0.65646(19)
H25 H 0.0801 1.1050 0.7032
C19 C -0.0617(3) 1.0148(5) 0.6354(2)
H26 H -0.1186 1.0641 0.6681
C20 C -0.0968(3) 0.9163(4) 0.5654(2)
C21 C -0.0107(3) 0.8436(5) 0.5185(2)
H27 H -0.0332 0.7769 0.4720
C22 C 0.1075(3) 0.8677(4) 0.5390(2)
H28 H 0.1644 0.8178 0.5065
O11 O 0.4875(7) 0.6177(7) 0.5271(3)
H29 H 0.454(9) 0.639(13) 0.498(6)
H30 H 0.534(7) 0.625(11) 0.496(5)
O12 O 0.3478(5) 0.5964(7) 0.3384(3)
loop_
_geom_bond_atom_site_label_1
_geom_bond_atom_site_label_2
_geom_bond_site_symmetry_1
_geom_bond_site_symmetry_2
Ni1 O1 1_555 1_555
O1 H1 1_555 1_555
H2 O1 1_555 1_555
O2 Ni1 1_555 1_555
H3 O2 1_555 1_555
H4 O2 1_555 1_555
O3 Ni1 1_555 1_555
H5 O3 1_555 1_555
H6 O3 1_555 1_555
O4 Ni1 1_555 1_555
H7 O4 1_555 1_555
H8 O4 1_555 1_555
N1 Ni1 1_555 1_555
N2 C6 1_555 1_555
C1 N1 1_555 1_555
H9 C1 1_555 1_555
C2 C1 1_555 1_555
H10 C2 1_555 1_555
C3 C2 1_555 1_555
C4 C3 1_555 1_555
H11 C4 1_555 1_555
C5 N1 1_555 1_555
H12 C5 1_555 1_555
C6 H13 1_555 1_555
C7 C6 1_555 1_555
H14 C7 1_555 1_555
C8 C3 1_555 1_555
C9 C8 1_555 1_555
H15 C9 1_555 1_555
C10 N2 1_555 1_555
H16 C10 1_555 1_555
S1 O5 1_555 1_555
O6 S1 1_555 1_555
O7 S1 1_555 1_555
N3 H17 1_555 1_555
H18 N3 1_555 1_555
C11 S1 1_555 1_555
C12 C11 1_555 1_555
H19 C12 1_555 1_555
C13 C12 1_555 1_555
H20 C13 1_555 1_555
C14 N3 1_555 1_555
C15 C14 1_555 1_555
H21 C15 1_555 1_555
C16 C11 1_555 1_555
H22 C16 1_555 1_555
S2 O8 1_555 1_555
O9 S2 1_555 1_555
O10 S2 1_555 1_555
N4 H23 1_555 1_555
H24 N4 1_555 1_555
C17 S2 1_555 1_555
C18 C17 1_555 1_555
H25 C18 1_555 1_555
C19 C18 1_555 1_555
H26 C19 1_555 1_555
C20 N4 1_555 1_555
C21 C20 1_555 1_555
H27 C21 1_555 1_555
C22 C17 1_555 1_555
H28 C22 1_555 1_555
O11 H29 1_555 1_555
H30 O11 1_555 1_555
Ni1_2 N2 1_555 1_555
N2_2 Ni1 1_555 1_555
C4 C5 1_555 1_555
C7 C8 1_555 1_555
C9 C10 1_555 1_555
C13 C14 1_555 1_555
C15 C16 1_555 1_555
C19 C20 1_555 1_555
C21 C22 1_555 1_555

#END
