
#######################################################################
#
#                 Cambridge Crystallographic Data Centre
#                                CCDC 
#
#######################################################################
#
# If this CIF has been generated from an entry in the Cambridge 
# Structural Database, then it will include bibliographic, chemical, 
# crystal, experimental, refinement or atomic coordinate data resulting 
# from the CCDC's data processing and validation procedures.
#
#######################################################################

data_DEYNUS
_symmetry_cell_setting           monoclinic
_symmetry_space_group_name_H-M   'P c'
_symmetry_Int_Tables_number      7
_space_group_name_Hall           'P -2yc'
loop_
_symmetry_equiv_pos_site_id
_symmetry_equiv_pos_as_xyz
1 x,y,z
2 x,-y,1/2+z
_cell_length_a                   7.044
_cell_length_b                   10.511
_cell_length_c                   9.693
_cell_angle_alpha                90
_cell_angle_beta                 106.24
_cell_angle_gamma                90
_cell_volume                     689.029
loop_
_atom_site_label
_atom_site_type_symbol
_atom_site_fract_x
_atom_site_fract_y
_atom_site_fract_z
Cu1 Cu 1.45320(13) 0.77943(10) 0.71251(12)
Cu2 Cu 0.90538(13) 0.70717(10) 1.18200(11)
N1 N 0.5892(10) 0.7436(7) 0.5544(9)
N2 N 1.2936(10) 0.7845(6) 0.8510(8)
N3 N 1.0637(11) 0.7431(7) 1.0418(9)
N4 N 0.7495(10) 0.7083(6) 0.3277(9)
O1 O 1.1595(9) 0.8686(6) 0.5568(6)
O2 O 1.3219(9) 0.6112(6) 0.6646(8)
C1 C 1.1948(12) 0.6767(8) 0.8508(10)
Cl1 Cl 1.6239(4) 0.9550(3) 0.7931(4)
O3 O 1.0897(9) 0.8059(6) 0.3250(7)
C2 C 1.1682(13) 0.8475(9) 1.0488(11)
H1 H 1.1652 0.9079 1.1182
C3 C 0.5752(11) 0.6597(8) 0.3276(12)
H2 H 0.5077 0.6088 0.2512
O4 O 1.1243(10) 0.4767(6) 0.7374(7)
C4 C 1.2824(14) 0.8706(9) 0.9566(11)
H3 H 1.3537 0.9461 0.9657
C5 C 0.4940(12) 0.6824(9) 0.4356(11)
H4 H 0.3660 0.6540 0.4264
C6 C 1.0516(13) 0.8219(8) 0.4441(12)
C7 C 0.7726(12) 0.7917(8) 0.5616(11)
H5 H 0.8428 0.8365 0.6425
C8 C 1.0739(11) 0.6539(8) 0.9445(10)
H6 H 1.0033 0.5783 0.9384
C9 C 1.2072(13) 0.5771(9) 0.7388(11)
C10 C 0.8550(12) 0.7729(7) 0.4457(10)
Cl2 Cl 0.6701(4) 0.6065(3) 1.0146(3)
Cu1_2 Cu 0.45320(13) 0.77943(10) 0.71251(12)
Cu2_2 Cu 0.90538(13) 0.70717(10) 0.18200(11)
Cu2A Cu 0.90538(13) 0.29283(10) 0.68200(11)
N1_2 N 1.5892(10) 0.7436(7) 0.5544(9)
N4_2 N 0.7495(10) 0.7083(6) 1.3277(9)
O3_2 O 1.0897(9) 0.8059(6) 1.3250(7)
O4A O 1.1243(10) 0.5233(6) 1.2374(7)
loop_
_geom_bond_atom_site_label_1
_geom_bond_atom_site_label_2
_geom_bond_site_symmetry_1
_geom_bond_site_symmetry_2
Cu1 N2 1_555 1_555
Cu2 N3 1_555 1_555
N1 C5 1_555 1_555
N2 C1 1_555 1_555
N3 C2 1_555 1_555
N4 C3 1_555 1_555
O1 Cu1 1_555 1_555
O2 Cu1 1_555 1_555
C1 C8 1_555 1_555
Cl1 Cu1 1_555 1_555
O3 C6 1_555 1_555
C2 H1 1_555 1_555
C3 H2 1_555 1_555
O4 C9 1_555 1_555
C4 N2 1_555 1_555
H3 C4 1_555 1_555
C5 C3 1_555 1_555
H4 C5 1_555 1_555
C6 O1 1_555 1_555
C7 N1 1_555 1_555
H5 C7 1_555 1_555
C8 N3 1_555 1_555
H6 C8 1_555 1_555
C9 O2 1_555 1_555
C10 N4 1_555 1_555
Cl2 Cu2 1_555 1_555
Cu1_2 N1 1_555 1_555
Cu2_2 N4 1_555 1_555
Cu2A O4 1_555 1_555
N1_2 Cu1 1_555 1_555
N4_2 Cu2 1_555 1_555
O3_2 Cu2 1_555 1_555
O4A Cu2 1_555 1_555
C1 C9 1_555 1_555
O3 Cu2_2 1_555 1_555
C2 C4 1_555 1_555
C6 C10 1_555 1_555
C7 C10 1_555 1_555

#END
