
#######################################################################
#
#                 Cambridge Crystallographic Data Centre
#                                CCDC 
#
#######################################################################
#
# If this CIF has been generated from an entry in the Cambridge 
# Structural Database, then it will include bibliographic, chemical, 
# crystal, experimental, refinement or atomic coordinate data resulting 
# from the CCDC's data processing and validation procedures.
#
#######################################################################

data_DEYSIJ
_symmetry_cell_setting           orthorhombic
_symmetry_space_group_name_H-M   'P b c m'
_symmetry_Int_Tables_number      57
_space_group_name_Hall           '-P 2c 2b'
loop_
_symmetry_equiv_pos_site_id
_symmetry_equiv_pos_as_xyz
1 x,y,z
2 -x,1/2+y,z
3 x,1/2-y,1/2+z
4 -x,-y,1/2+z
5 -x,-y,-z
6 x,1/2-y,-z
7 -x,1/2+y,1/2-z
8 x,y,1/2-z
_cell_length_a                   14.907(3)
_cell_length_b                   19.572(3)
_cell_length_c                   16.177(1)
_cell_angle_alpha                90
_cell_angle_beta                 90
_cell_angle_gamma                90
_cell_volume                     4719.8
loop_
_atom_site_label
_atom_site_type_symbol
_atom_site_fract_x
_atom_site_fract_y
_atom_site_fract_z
Sr2 Sr 1.1021(2) 0.4445(1) 0.7500
N5 N 1.2550(2) 0.4329(1) 0.6608(2)
N6 N 1.0240(2) 0.4260(1) 0.5994(2)
N7 N 1.0863(2) 0.3096(1) 0.6898(2)
N8 N 1.1017(2) 0.5675(2) 0.6788(3)
C5 C 1.3344(1) 0.4705(1) 0.7032(1)
C6 C 1.0305(2) 0.3550(1) 0.5592(1)
C7 C 1.1050(2) 0.3172(1) 0.5960(2)
C8 C 1.0274(2) 0.6172(1) 0.7040(1)
N5G N 1.2550(2) 0.4329(1) 0.8392(2)
N6G N 1.0240(2) 0.4260(1) 0.9006(2)
N7G N 1.0863(2) 0.3096(1) 0.8102(2)
N8G N 1.1017(2) 0.5675(2) 0.8212(3)
C5G C 1.3344(1) 0.4705(1) 0.7968(1)
C8G C 1.0274(2) 0.6172(1) 0.7960(1)
C6G C 1.0305(2) 0.3550(1) 0.9408(1)
C7G C 1.1050(2) 0.3172(1) 0.9040(2)
Se1 Se 0.1796(2) -0.0369(2) 0.7500
Se2 Se 0.2276(2) 0.1263(1) 0.6355(2)
Se3 Se 0.1970(2) -0.0338(1) 0.5259(1)
Se4 Se 0.3220(2) 0.2702(2) 0.7500
As1 As 0.2716(2) 0.0077(1) 0.6389(2)
As2 As 0.3235(2) 0.1529(2) 0.7500
As1G As 0.2716(2) 0.0077(1) 0.8611(2)
Se2G Se 0.2276(2) 0.1263(1) 0.8645(2)
Se3G Se 0.1970(2) -0.0338(1) 0.9741(1)
Cl1 Cl 0.7079(6) 0.3293(4) 0.2500
Cl2 Cl 0.8737(30) 0.2821(20) 0.7500
Sr1 Sr 0.5806(2) 0.2500 0.5000
N1 N 0.6068(1) 0.3754(1) 0.4350(1)
N2 N 0.4279(1) 0.3309(1) 0.5035(1)
N3 N 0.5459(1) 0.2766(1) 0.6615(1)
N4 N 0.7373(1) 0.2789(1) 0.5839(1)
C1 C 0.5113(2) 0.4113(1) 0.4200(2)
C2 C 0.4573(2) 0.4026(1) 0.4948(2)
C3 C 0.5714(1) 0.3456(1) 0.7013(1)
C4 C 0.8131(1) 0.2392(1) 0.5431(1)
N1E N 0.6068(1) 0.1246(1) 0.5650(1)
N2E N 0.4279(1) 0.1691(1) 0.4965(1)
N3E N 0.5459(1) 0.2234(1) 0.3385(1)
N4E N 0.7373(1) 0.2211(1) 0.4161(1)
C3G C 0.5714(1) 0.3456(1) 0.7987(1)
C4E C 0.8131(1) 0.2608(1) 0.4569(1)
C1E C 0.5113(2) 0.0887(1) 0.5800(2)
C2E C 0.4573(2) 0.0974(1) 0.5052(2)
C3E C 0.5714(1) 0.1544(1) 0.2987(1)
N3G N 0.5459(1) 0.2766(1) 0.8385(1)
C3B C 0.5714(1) 0.1544(1) 0.2013(1)
Sr1B Sr 0.5806(2) 0.2500 1.0000
N3B N 0.5459(1) 0.2234(1) 0.1615(1)
N1B N 0.6068(1) 0.1246(1) 0.9350(1)
N1G N 0.6068(1) 0.3754(1) 1.0650(1)
N2B N 0.4279(1) 0.1691(1) 1.0035(1)
N2G N 0.4279(1) 0.3309(1) 0.9965(1)
N3B_2 N 0.5459(1) 0.2234(1) 1.1615(1)
N4B N 0.7373(1) 0.2211(1) 1.0839(1)
N4G N 0.7373(1) 0.2789(1) 0.9161(1)
Sr1B_2 Sr 0.5806(2) 0.2500 0.0000
C1B C 0.5113(2) 0.0887(1) 0.9200(2)
C1G C 0.5113(2) 0.4113(1) 1.0800(2)
C2B C 0.4573(2) 0.0974(1) 0.9948(2)
C2G C 0.4573(2) 0.4026(1) 1.0052(2)
C4B C 0.8131(1) 0.2608(1) 1.0431(1)
C4G C 0.8131(1) 0.2392(1) 0.9569(1)
loop_
_geom_bond_atom_site_label_1
_geom_bond_atom_site_label_2
_geom_bond_site_symmetry_1
_geom_bond_site_symmetry_2
Sr1 N1 1_555 1_555
Sr2 N5 1_555 1_555
Se1 As1 1_555 1_555
Se2 As1 1_555 1_555
Se3 As1 1_555 1_555
Se4 As2 1_555 1_555
As2 Se2 1_555 1_555
N1 C1 1_555 1_555
N2 Sr1 1_555 1_555
N3 Sr1 1_555 1_555
N4 Sr1 1_555 1_555
N5 C5 1_555 1_555
N6 Sr2 1_555 1_555
N7 Sr2 1_555 1_555
N8 Sr2 1_555 1_555
C1 C2 1_555 1_555
C2 N2 1_555 1_555
C3 N3 1_555 1_555
C4 N4 1_555 1_555
C5 C5G 1_555 1_555
C6 N6 1_555 1_555
C7 N7 1_555 1_555
C8 N8 1_555 1_555
N1E Sr1 1_555 1_555
N2E Sr1 1_555 1_555
N3E Sr1 1_555 1_555
N4E Sr1 1_555 1_555
C3G C3 1_555 1_555
C4E C4 1_555 1_555
C1E N1E 1_555 1_555
C2E N2E 1_555 1_555
C3E N3E 1_555 1_555
N3G C3G 1_555 1_555
C3B C3E 1_555 1_555
Sr1B N3G 1_555 1_555
N3B C3B 1_555 1_555
N1B Sr1B 1_555 1_555
N1G Sr1B 1_555 1_555
N2B Sr1B 1_555 1_555
N2G Sr1B 1_555 1_555
N3B_2 Sr1B 1_555 1_555
N4B Sr1B 1_555 1_555
N4G Sr1B 1_555 1_555
Sr1B_2 N3B 1_555 1_555
C1B N1B 1_555 1_555
C1G N1G 1_555 1_555
C2B N2B 1_555 1_555
C2G N2G 1_555 1_555
C4B N4B 1_555 1_555
C4G N4G 1_555 1_555
N5G Sr2 1_555 1_555
N6G Sr2 1_555 1_555
N7G Sr2 1_555 1_555
N8G Sr2 1_555 1_555
C5G N5G 1_555 1_555
C8G C8 1_555 1_555
C6G N6G 1_555 1_555
C7G N7G 1_555 1_555
As1G Se1 1_555 1_555
Se2G As2 1_555 1_555
Se3G As1G 1_555 1_555
C6 C7 1_555 1_555
N4E C4E 1_555 1_555
C1E C2E 1_555 1_555
C1B C2B 1_555 1_555
C1G C2G 1_555 1_555
C4B C4G 1_555 1_555
N8G C8G 1_555 1_555
C6G C7G 1_555 1_555
As1G Se2G 1_555 1_555

#END
