
#######################################################################
#
#                 Cambridge Crystallographic Data Centre
#                                CCDC 
#
#######################################################################
#
# If this CIF has been generated from an entry in the Cambridge 
# Structural Database, then it will include bibliographic, chemical, 
# crystal, experimental, refinement or atomic coordinate data resulting 
# from the CCDC's data processing and validation procedures.
#
#######################################################################

data_DEYTEI
_symmetry_cell_setting           monoclinic
_symmetry_space_group_name_H-M   'P 21/c'
_symmetry_Int_Tables_number      14
_space_group_name_Hall           '-P 2ybc'
loop_
_symmetry_equiv_pos_site_id
_symmetry_equiv_pos_as_xyz
1 x,y,z
2 -x,1/2+y,1/2-z
3 -x,-y,-z
4 x,1/2-y,1/2+z
_cell_length_a                   8.982(3)
_cell_length_b                   29.908(10)
_cell_length_c                   19.619(6)
_cell_angle_alpha                90
_cell_angle_beta                 94.362(6)
_cell_angle_gamma                90
_cell_volume                     5255.06
loop_
_atom_site_label
_atom_site_type_symbol
_atom_site_fract_x
_atom_site_fract_y
_atom_site_fract_z
C1 C 0.9702(4) -0.07646(10) 0.30725(16)
H1 H 0.9202 -0.0844 0.2658
C2 C 1.0951(4) -0.03970(13) 0.38515(18)
H2 H 1.1499 -0.0171 0.4078
C3 C 1.0571(4) -0.07859(13) 0.41342(18)
H3 H 1.0799 -0.0874 0.4585
C4 C 0.9098(4) -0.14613(10) 0.36920(16)
C5 C 0.8750(6) -0.16197(14) 0.43031(19)
H4 H 0.8967 -0.1451 0.4696
C6 C 0.8079(6) -0.20296(14) 0.4346(2)
H5 H 0.7868 -0.2133 0.4776
C7 C 0.7703(4) -0.22939(11) 0.37937(17)
C8 C 0.8100(6) -0.21274(14) 0.3186(2)
H6 H 0.7871 -0.2294 0.2791
C9 C 0.8826(6) -0.17242(14) 0.3127(2)
H7 H 0.9129 -0.1632 0.2707
C10 C 0.6947(4) -0.27341(11) 0.38561(17)
C11 C 0.6554(6) -0.28907(16) 0.4457(2)
H8 H 0.6781 -0.2719 0.4846
C12 C 0.5829(6) -0.32945(16) 0.4531(2)
H9 H 0.5596 -0.3387 0.4962
C13 C 0.5462(4) -0.35509(11) 0.39881(17)
C14 C 0.5939(7) -0.34200(18) 0.3398(2)
H10 H 0.5805 -0.3607 0.3020
C15 C 0.6631(7) -0.30122(18) 0.3332(2)
H11 H 0.6890 -0.2926 0.2901
C16 C 0.3875(4) -0.42038(11) 0.35905(18)
H12 H 0.3747 -0.4123 0.3132
C17 C 0.4653(6) -0.42095(15) 0.4661(2)
H13 H 0.5149 -0.4144 0.5082
C18 C 0.3735(5) -0.45600(14) 0.4514(2)
H14 H 0.3465 -0.4772 0.4829
C19 C 0.9620(3) 0.10932(10) 0.18533(16)
H15 H 0.9244 0.1175 0.2264
C20 C 1.0646(4) 0.07261(12) 0.10786(17)
H16 H 1.1117 0.0498 0.0856
C21 C 1.0239(4) 0.11203(12) 0.07965(18)
H17 H 1.0380 0.1215 0.0354
C22 C 0.8911(4) 0.17967(11) 0.12376(16)
C23 C 0.8587(7) 0.20220(15) 0.1797(2)
H18 H 0.8864 0.1906 0.2228
C24 C 0.7836(7) 0.24297(15) 0.1736(2)
H19 H 0.7538 0.2565 0.2130
C25 C 0.7523(4) 0.26355(11) 0.11353(17)
C26 C 0.7968(6) 0.24150(15) 0.0584(2)
H20 H 0.7791 0.2544 0.0154
C27 C 0.8686(6) 0.19994(15) 0.0639(2)
H21 H 0.9008 0.1864 0.0250
C28 C 0.6710(4) 0.30734(11) 0.10834(17)
C29 C 0.6287(7) 0.32951(17) 0.1644(2)
H22 H 0.6549 0.3176 0.2074
C30 C 0.5500(8) 0.36820(19) 0.1601(2)
H23 H 0.5215 0.3813 0.2001
C31 C 0.5121(4) 0.38813(11) 0.10072(18)
C32 C 0.5537(6) 0.36736(14) 0.0437(2)
H24 H 0.5287 0.3799 0.0010
C33 C 0.6330(6) 0.32755(15) 0.0484(2)
H25 H 0.6610 0.3143 0.0084
C34 C 0.3848(6) 0.45297(16) 0.0398(2)
H26 H 0.4068 0.4467 -0.0047
C35 C 0.3049(5) 0.48765(16) 0.0607(2)
H27 H 0.2602 0.5093 0.0319
C36 C 0.3716(4) 0.45145(12) 0.14781(19)
H28 H 0.3846 0.4424 0.1932
C37 C 1.2197(4) 0.09504(10) 0.31806(16)
H29 H 1.1393 0.1143 0.3088
C38 C 1.3547(4) 0.03613(12) 0.32808(18)
H30 H 1.3853 0.0064 0.3272
C39 C 1.4424(4) 0.07040(11) 0.34944(18)
H31 H 1.5425 0.0689 0.3653
C40 C 1.4016(4) 0.15393(10) 0.35352(15)
C41 C 1.5437(4) 0.16630(11) 0.34111(16)
H32 H 1.6119 0.1448 0.3293
C42 C 1.5859(4) 0.21057(11) 0.34602(17)
H33 H 1.6828 0.2186 0.3376
C43 C 1.4847(4) 0.24355(11) 0.36355(16)
C44 C 1.3405(4) 0.23032(11) 0.37642(17)
H34 H 1.2716 0.2518 0.3877
C45 C 1.2982(4) 0.18550(11) 0.37266(18)
H35 H 1.2029 0.1768 0.3827
C46 C 1.5281(4) 0.29180(11) 0.36374(16)
C47 C 1.6736(4) 0.30501(12) 0.37746(18)
H36 H 1.7456 0.2835 0.3897
C48 C 1.4217(4) 0.32473(11) 0.34591(17)
H37 H 1.3220 0.3167 0.3373
C49 C 1.4639(4) 0.36963(11) 0.34094(16)
H38 H 1.3927 0.3915 0.3295
C50 C 1.6108(4) 0.38096(11) 0.35306(16)
C51 C 1.7165(4) 0.34947(12) 0.37361(18)
H39 H 1.8151 0.3578 0.3847
C52 C 1.5744(4) 0.46517(12) 0.35148(17)
H40 H 1.4804 0.4675 0.3680
C53 C 1.6610(4) 0.49844(12) 0.33035(18)
H41 H 1.6344 0.5285 0.3305
C54 C 1.7835(4) 0.43900(11) 0.31754(17)
H42 H 1.8575 0.4189 0.3071
Co1 Co 1.04149(5) 0.016076(13) 0.24612(2)
N1 N 1.0412(3) -0.03838(9) 0.31821(13)
N2 N 0.9789(3) -0.10264(9) 0.36369(13)
N3 N 0.4710(3) -0.39689(9) 0.40667(13)
N4 N 0.3268(3) -0.45564(10) 0.38427(16)
N5 N 1.0266(3) 0.07080(9) 0.17464(13)
N6 N 0.9571(3) 0.13573(9) 0.12910(13)
N7 N 0.4270(3) 0.42888(10) 0.09685(14)
N8 N 0.2984(3) 0.48688(10) 0.12864(16)
N9 N 1.2136(3) 0.05080(9) 0.30769(14)
N10 N 1.3555(3) 0.10825(8) 0.34340(13)
N11 N 1.7930(3) 0.48287(9) 0.30864(14)
N12 N 1.6570(3) 0.42685(8) 0.34299(13)
O1 O 0.86136(15) -0.01622(4) 0.18670(9)
O2 O 0.86467(14) 0.04685(5) 0.29813(8)
H43 H 0.8062(2) 0.06425(7) 0.27757(12)
H44 H 0.8296(3) 0.03409(10) 0.33042(13)
H45 H 0.8717(2) -0.04062(5) 0.16847(19)
H46 H 0.7866(2) -0.00244(7) 0.1721(2)
Co1A Co 1.95851(5) 0.516076(13) 0.25388(2)
N11A N 1.2070(3) -0.01713(9) 0.19136(14)
N13 N 0.8773(4) 0.88043(13) 0.10028(16)
O3 O 0.9087(3) 0.88162(12) 0.16299(14)
O4 O 0.8986(4) 0.84532(11) 0.06880(14)
O5 O 0.8190(5) 0.91323(13) 0.07005(18)
N14 N 0.8960(4) 0.14475(14) 0.39446(17)
O6 O 0.9207(4) 0.17783(15) 0.43028(17)
O7 O 0.9055(3) 0.14656(12) 0.33284(14)
O8 O 0.8546(6) 0.10975(14) 0.41897(17)
O9 O 1.00538(13) 0.26700(7) 0.3459(2)
H47 H 1.09298(12) 0.26028(18) 0.3424(5)
H48 H 0.9447(3) 0.2509(2) 0.3244(5)
loop_
_geom_bond_atom_site_label_1
_geom_bond_atom_site_label_2
_geom_bond_site_symmetry_1
_geom_bond_site_symmetry_2
C1 H1 1_555 1_555
C2 H2 1_555 1_555
C3 C2 1_555 1_555
H3 C3 1_555 1_555
C4 C5 1_555 1_555
C5 H4 1_555 1_555
C6 C5 1_555 1_555
H5 C6 1_555 1_555
C7 C6 1_555 1_555
C8 C7 1_555 1_555
H6 C8 1_555 1_555
C9 C4 1_555 1_555
H7 C9 1_555 1_555
C10 C7 1_555 1_555
C11 C10 1_555 1_555
H8 C11 1_555 1_555
C12 C11 1_555 1_555
H9 C12 1_555 1_555
C13 C12 1_555 1_555
C14 C13 1_555 1_555
H10 C14 1_555 1_555
C15 C10 1_555 1_555
H11 C15 1_555 1_555
C16 H12 1_555 1_555
C17 H13 1_555 1_555
C18 C17 1_555 1_555
H14 C18 1_555 1_555
C19 H15 1_555 1_555
C20 H16 1_555 1_555
C21 C20 1_555 1_555
H17 C21 1_555 1_555
C22 C23 1_555 1_555
C23 H18 1_555 1_555
C24 C23 1_555 1_555
H19 C24 1_555 1_555
C25 C24 1_555 1_555
C26 C25 1_555 1_555
H20 C26 1_555 1_555
C27 C22 1_555 1_555
H21 C27 1_555 1_555
C28 C25 1_555 1_555
C29 C28 1_555 1_555
H22 C29 1_555 1_555
C30 C29 1_555 1_555
H23 C30 1_555 1_555
C31 C30 1_555 1_555
C32 C31 1_555 1_555
H24 C32 1_555 1_555
C33 C28 1_555 1_555
H25 C33 1_555 1_555
C34 H26 1_555 1_555
C35 C34 1_555 1_555
H27 C35 1_555 1_555
C36 H28 1_555 1_555
C37 H29 1_555 1_555
C38 H30 1_555 1_555
C39 C38 1_555 1_555
H31 C39 1_555 1_555
C40 C41 1_555 1_555
C41 H32 1_555 1_555
C42 C41 1_555 1_555
H33 C42 1_555 1_555
C43 C42 1_555 1_555
C44 C43 1_555 1_555
H34 C44 1_555 1_555
C45 C40 1_555 1_555
H35 C45 1_555 1_555
C46 C43 1_555 1_555
C47 C46 1_555 1_555
H36 C47 1_555 1_555
C48 C46 1_555 1_555
H37 C48 1_555 1_555
C49 C48 1_555 1_555
H38 C49 1_555 1_555
C50 C49 1_555 1_555
C51 C47 1_555 1_555
H39 C51 1_555 1_555
C52 H40 1_555 1_555
C53 C52 1_555 1_555
H41 C53 1_555 1_555
C54 H42 1_555 1_555
Co1 N1 1_555 1_555
N1 C1 1_555 1_555
N2 C1 1_555 1_555
N3 C13 1_555 1_555
N4 C16 1_555 1_555
N5 C19 1_555 1_555
N6 C19 1_555 1_555
N7 C31 1_555 1_555
N8 C35 1_555 1_555
N9 C37 1_555 1_555
N10 C37 1_555 1_555
N11 C53 1_555 1_555
N12 C50 1_555 1_555
O1 Co1 1_555 1_555
O2 Co1 1_555 1_555
H43 O2 1_555 1_555
H44 O2 1_555 1_555
H45 O1 1_555 1_555
H46 O1 1_555 1_555
N13 O3 1_555 1_555
O4 N13 1_555 1_555
O5 N13 1_555 1_555
N14 O6 1_555 1_555
O7 N14 1_555 1_555
O8 N14 1_555 1_555
O9 H47 1_555 1_555
H48 O9 1_555 1_555
Co1A N11 1_555 1_555
N11A Co1 1_555 1_555
C2 N1 1_555 1_555
C3 N2 1_555 1_555
C4 N2 1_555 1_555
C8 C9 1_555 1_555
C14 C15 1_555 1_555
C16 N3 1_555 1_555
C17 N3 1_555 1_555
C18 N4 1_555 1_555
C20 N5 1_555 1_555
C21 N6 1_555 1_555
C22 N6 1_555 1_555
C26 C27 1_555 1_555
C32 C33 1_555 1_555
C34 N7 1_555 1_555
C36 N7 1_555 1_555
C36 N8 1_555 1_555
C38 N9 1_555 1_555
C39 N10 1_555 1_555
C40 N10 1_555 1_555
C44 C45 1_555 1_555
C50 C51 1_555 1_555
C52 N12 1_555 1_555
C54 N11 1_555 1_555
C54 N12 1_555 1_555
Co1 N5 1_555 1_555
Co1 N9 1_555 1_555

#END
