
#######################################################################
#
#                 Cambridge Crystallographic Data Centre
#                                CCDC 
#
#######################################################################
#
# If this CIF has been generated from an entry in the Cambridge 
# Structural Database, then it will include bibliographic, chemical, 
# crystal, experimental, refinement or atomic coordinate data resulting 
# from the CCDC's data processing and validation procedures.
#
#######################################################################

data_DEYTAD
_symmetry_cell_setting           monoclinic
_symmetry_space_group_name_H-M   'C 2/c'
_symmetry_Int_Tables_number      15
_space_group_name_Hall           '-C 2yn'
loop_
_symmetry_equiv_pos_site_id
_symmetry_equiv_pos_as_xyz
1 x,y,z
2 1/2+x,1/2+y,z
3 -x,y,1/2-z
4 1/2-x,1/2+y,1/2-z
5 -x,-y,-z
6 1/2-x,1/2-y,-z
7 x,-y,1/2+z
8 1/2+x,1/2-y,1/2+z
_cell_length_a                   16.035(4)
_cell_length_b                   5.0473(14)
_cell_length_c                   25.060(7)
_cell_angle_alpha                90
_cell_angle_beta                 95.558(4)
_cell_angle_gamma                90
_cell_volume                     2018.66
loop_
_atom_site_label
_atom_site_type_symbol
_atom_site_fract_x
_atom_site_fract_y
_atom_site_fract_z
C1 C 0.6234(4) 0.1798(12) 0.8275(3)
H1 H 0.6619 0.1327 0.8037
C2 C 0.6440(4) 0.3816(11) 0.8649(3)
H2 H 0.6961 0.4639 0.8666
C3 C 0.5855(4) 0.4568(10) 0.8993(2)
H3 H 0.5967 0.5970 0.9230
C4 C 0.5097(4) 0.3197(9) 0.8980(2)
C5 C 0.4952(3) 0.1224(9) 0.8593(2)
H4 H 0.4441 0.0339 0.8572
C6 C 0.4448(4) 0.4000(9) 0.9326(2)
C7 C 0.3055(4) 0.0462(9) 1.0124(2)
H5 H 0.3430 -0.0919 1.0205
C8 C 0.3222(4) 0.2308(7) 0.9732(3)
C9 C 0.2659(4) 0.4353(9) 0.9606(2)
H6 H 0.2759 0.5584 0.9344
Hg1 Hg 0.5000 -0.25695(5) 0.7500
I1 I 0.35420(2) -0.37587(8) 0.784428(16)
N1 N 0.5500(3) 0.0533(8) 0.82530(19)
N2 N 0.3947(3) 0.1996(8) 0.94642(19)
H7 H 0.4083 0.0411 0.9382
O1 O 0.4366(3) 0.6320(6) 0.94650(16)
C1E C -0.1234(4) 0.3202(12) 1.1725(3)
H1E H -0.1619 0.3673 1.1963
C2E C -0.1440(4) 0.1184(11) 1.1351(3)
H2E H -0.1961 0.0361 1.1334
C3E C -0.0855(4) 0.0432(10) 1.1007(2)
H3E H -0.0967 -0.0970 1.0770
C4E C -0.0097(4) 0.1803(9) 1.1020(2)
C5E C 0.0048(3) 0.3776(9) 1.1407(2)
H4E H 0.0559 0.4661 1.1428
C6E C 0.0552(4) 0.1000(9) 1.0674(2)
C7E C 0.1945(4) 0.4538(9) 0.9876(2)
H5E H 0.1570 0.5919 0.9795
C8E C 0.1778(4) 0.2692(7) 1.0268(3)
C9E C 0.2341(4) 0.0647(9) 1.0394(2)
H6E H 0.2241 -0.0584 1.0656
Hg1G Hg 0.0000 0.75695(5) 1.2500
I1B I 0.64580(2) -0.37587(8) 0.715572(16)
N1E N -0.0500(3) 0.4467(8) 1.17470(19)
N1B N 0.4500(3) 0.0533(8) 0.67470(19)
N2E N 0.1053(3) 0.3004(8) 1.05358(19)
H7E H 0.0917 0.4589 1.0618
O1E O 0.0634(3) -0.1320(6) 1.05350(16)
loop_
_geom_bond_atom_site_label_1
_geom_bond_atom_site_label_2
_geom_bond_site_symmetry_1
_geom_bond_site_symmetry_2
C1 H1 1_555 1_555
C2 C1 1_555 1_555
H2 C2 1_555 1_555
C3 C2 1_555 1_555
H3 C3 1_555 1_555
C4 C3 1_555 1_555
C5 C4 1_555 1_555
H4 C5 1_555 1_555
C6 C4 1_555 1_555
C7 H5 1_555 1_555
C8 C7 1_555 1_555
C9 C8 1_555 1_555
H6 C9 1_555 1_555
Hg1 I1 1_555 1_555
N1 C1 1_555 1_555
N2 C6 1_555 1_555
H7 N2 1_555 1_555
O1 C6 1_555 1_555
C1E H1E 1_555 1_555
C2E C1E 1_555 1_555
H2E C2E 1_555 1_555
C3E C2E 1_555 1_555
H3E C3E 1_555 1_555
C4E C3E 1_555 1_555
C5E C4E 1_555 1_555
H4E C5E 1_555 1_555
C6E C4E 1_555 1_555
C7E C9 1_555 1_555
H5E C7E 1_555 1_555
C8E C7E 1_555 1_555
C9E C7 1_555 1_555
H6E C9E 1_555 1_555
Hg1G N1E 1_555 1_555
I1B Hg1 1_555 1_555
N1E C1E 1_555 1_555
N1B Hg1 1_555 1_555
N2E C6E 1_555 1_555
H7E N2E 1_555 1_555
O1E C6E 1_555 1_555
C5 N1 1_555 1_555
C8 N2 1_555 1_555
Hg1 N1 1_555 1_555
C5E N1E 1_555 1_555
C8E C9E 1_555 1_555
C8E N2E 1_555 1_555

#END
