
#######################################################################
#
#                 Cambridge Crystallographic Data Centre
#                                CCDC 
#
#######################################################################
#
# If this CIF has been generated from an entry in the Cambridge 
# Structural Database, then it will include bibliographic, chemical, 
# crystal, experimental, refinement or atomic coordinate data resulting 
# from the CCDC's data processing and validation procedures.
#
#######################################################################

data_DEYXIO
_symmetry_cell_setting           orthorhombic
_symmetry_space_group_name_H-M   'P b c a'
_symmetry_Int_Tables_number      61
_space_group_name_Hall           '-P 2ac 2ab'
loop_
_symmetry_equiv_pos_site_id
_symmetry_equiv_pos_as_xyz
1 x,y,z
2 1/2-x,-y,1/2+z
3 1/2+x,1/2-y,-z
4 -x,1/2+y,1/2-z
5 -x,-y,-z
6 1/2+x,y,1/2-z
7 1/2-x,1/2+y,z
8 x,1/2-y,1/2+z
_cell_length_a                   14.803(3)
_cell_length_b                   11.282(2)
_cell_length_c                   39.31(1)
_cell_angle_alpha                90
_cell_angle_beta                 90
_cell_angle_gamma                90
_cell_volume                     6565.06
loop_
_atom_site_label
_atom_site_type_symbol
_atom_site_fract_x
_atom_site_fract_y
_atom_site_fract_z
Cu1 Cu 0.21692(11) 0.58396(14) 0.12368(4)
Cu2 Cu 0.30045(11) 0.35028(14) 0.15953(4)
Cu3 Cu 0.15839(11) 0.29827(14) 0.09383(4)
N1 N 0.3083(8) 0.4646(10) 0.1085(3)
N2 N 0.3424(9) 0.4606(10) 0.0815(4)
N3 N 0.3717(9) 0.4562(13) 0.0538(3)
N4 N 0.2302(7) 0.4991(8) 0.1673(2)
N5 N 0.1928(17) 0.5220(15) 0.1927(5)
N6 N 0.1447(18) 0.5404(14) 0.2148(5)
N7 N 0.3681(7) 0.2059(9) 0.1432(3)
N8 N 0.4397(10) 0.1961(14) 0.1452(6)
N9 N 0.5163(10) 0.1821(19) 0.1438(9)
N10 N 0.2597(7) 0.1881(10) 0.0830(3)
N11 N 0.2849(8) 0.1660(10) 0.0540(4)
N12 N 0.3101(9) 0.1443(13) 0.0274(4)
N13 N 0.1879(7) 0.2683(9) 0.1432(3)
N14 N 0.1254(10) 0.2632(11) 0.1625(4)
N15 N 0.0673(9) 0.2540(14) 0.1818(3)
N16 N 0.1028(10) 0.4557(12) 0.1028(3)
N17 N 0.0289(12) 0.4709(14) 0.0939(4)
N18 N -0.0446(13) 0.4838(18) 0.0861(4)
O1 O 0.2817(7) 0.2952(11) 0.2164(3)
N19 N 0.4124(8) 0.4123(11) 0.1829(3)
C1 C 0.4811(9) 0.4588(12) 0.1652(3)
C2 C 0.5671(11) 0.4792(16) 0.1798(4)
C3 C 0.5788(12) 0.4416(14) 0.2113(4)
C4 C 0.5107(11) 0.3967(14) 0.2313(4)
C5 C 0.4238(9) 0.3848(12) 0.2159(3)
C6 C 0.3430(10) 0.3339(12) 0.2334(4)
C7 C 0.3339(8) 0.3345(10) 0.2720(4)
C8 C 0.3713(8) 0.4217(10) 0.2928(4)
C9 C 0.3542(8) 0.4208(10) 0.3276(4)
C10 C 0.2995(8) 0.3328(10) 0.3417(4)
C11 C 0.2620(8) 0.2457(10) 0.3209(4)
C12 C 0.2792(8) 0.2465(10) 0.2860(4)
O2 O 0.0296(7) 0.1856(10) 0.0981(2)
N20 N 0.1091(8) 0.2957(10) 0.0455(3)
C13 C 0.1458(9) 0.3590(12) 0.0211(3)
C14 C 0.1067(10) 0.3703(13) -0.0102(4)
C15 C 0.0285(10) 0.3119(13) -0.0160(4)
C16 C -0.0096(11) 0.2438(13) 0.0086(4)
C17 C 0.0314(8) 0.2373(11) 0.0403(3)
C18 C -0.0051(8) 0.1717(11) 0.0692(3)
C19 C -0.0870(6) 0.0971(10) 0.0662(2)
C20 C -0.0962(6) 0.0130(10) 0.0405(2)
C21 C -0.1727(6) -0.0591(10) 0.0393(2)
C22 C -0.2401(6) -0.0469(10) 0.0638(2)
C23 C -0.2310(6) 0.0373(10) 0.0896(2)
C24 C -0.1544(6) 0.1093(10) 0.0908(2)
H1 H 0.4719 0.4790 0.1417
H2 H 0.6133 0.5203 0.1674
H3 H 0.6390 0.4429 0.2203
H4 H 0.5198 0.3769 0.2548
H5 H 0.4090 0.4822 0.2831
H6 H 0.3800 0.4808 0.3420
H7 H 0.2876 0.3323 0.3658
H8 H 0.2243 0.1851 0.3306
H9 H 0.2534 0.1865 0.2717
H10 H 0.2021 0.3984 0.0255
H11 H 0.1347 0.4174 -0.0277
H12 H -0.0013 0.3194 -0.0376
H13 H -0.0645 0.2009 0.0043
H14 H -0.0498 0.0046 0.0236
H15 H -0.1790 -0.1170 0.0215
H16 H -0.2928 -0.0964 0.0630
H17 H -0.2773 0.0457 0.1065
H18 H -0.1481 0.1673 0.1085
N7F N 0.1319(7) 0.7059(9) 0.1432(3)
N13F N 0.3121(7) 0.7683(9) 0.1432(3)
N10F N 0.2403(7) 0.6881(10) 0.0830(3)
Cu1F Cu 0.28308(11) 0.08396(14) 0.12368(4)
loop_
_geom_bond_atom_site_label_1
_geom_bond_atom_site_label_2
_geom_bond_site_symmetry_1
_geom_bond_site_symmetry_2
Cu1 N1 1_555 1_555
Cu2 N1 1_555 1_555
Cu3 N10 1_555 1_555
N1 N2 1_555 1_555
N2 N3 1_555 1_555
N4 Cu1 1_555 1_555
N5 N4 1_555 1_555
N6 N5 1_555 1_555
N7 Cu2 1_555 1_555
N8 N7 1_555 1_555
N9 N8 1_555 1_555
N10 N11 1_555 1_555
N11 N12 1_555 1_555
N13 Cu2 1_555 1_555
N14 N13 1_555 1_555
N15 N14 1_555 1_555
N16 Cu1 1_555 1_555
N17 N16 1_555 1_555
N18 N17 1_555 1_555
O1 Cu2 1_555 1_555
N19 Cu2 1_555 1_555
C1 N19 1_555 1_555
C2 C1 1_555 1_555
C3 C2 1_555 1_555
C4 C3 1_555 1_555
C5 N19 1_555 1_555
C6 O1 1_555 1_555
C7 C6 1_555 1_555
C8 C7 1_555 1_555
C9 C8 1_555 1_555
C10 C9 1_555 1_555
C11 C10 1_555 1_555
C12 C7 1_555 1_555
O2 Cu3 1_555 1_555
N20 Cu3 1_555 1_555
C13 N20 1_555 1_555
C14 C13 1_555 1_555
C15 C14 1_555 1_555
C16 C15 1_555 1_555
C17 N20 1_555 1_555
C18 O2 1_555 1_555
C19 C18 1_555 1_555
C20 C19 1_555 1_555
C21 C20 1_555 1_555
C22 C21 1_555 1_555
C23 C22 1_555 1_555
C24 C19 1_555 1_555
H1 C1 1_555 1_555
H2 C2 1_555 1_555
H3 C3 1_555 1_555
H4 C4 1_555 1_555
H5 C8 1_555 1_555
H6 C9 1_555 1_555
H7 C10 1_555 1_555
H8 C11 1_555 1_555
H9 C12 1_555 1_555
H10 C13 1_555 1_555
H11 C14 1_555 1_555
H12 C15 1_555 1_555
H13 C16 1_555 1_555
H14 C20 1_555 1_555
H15 C21 1_555 1_555
H16 C22 1_555 1_555
H17 C23 1_555 1_555
H18 C24 1_555 1_555
N7F Cu1 1_555 1_555
N13F Cu1 1_555 1_555
N10F Cu1 1_555 1_555
Cu1F N7 1_555 1_555
Cu2 N4 1_555 1_555
Cu3 N13 1_555 1_555
Cu3 N16 1_555 1_555
N10 Cu1F 1_555 1_555
N13 Cu1F 1_555 1_555
C4 C5 1_555 1_555
C5 C6 1_555 1_555
C11 C12 1_555 1_555
C16 C17 1_555 1_555
C17 C18 1_555 1_555
C23 C24 1_555 1_555

#END
