
#######################################################################
#
#                 Cambridge Crystallographic Data Centre
#                                CCDC 
#
#######################################################################
#
# If this CIF has been generated from an entry in the Cambridge 
# Structural Database, then it will include bibliographic, chemical, 
# crystal, experimental, refinement or atomic coordinate data resulting 
# from the CCDC's data processing and validation procedures.
#
#######################################################################

data_DEYXUC
_symmetry_cell_setting           triclinic
_symmetry_space_group_name_H-M   'P -1'
_symmetry_Int_Tables_number      2
_space_group_name_Hall           '-P 1'
loop_
_symmetry_equiv_pos_site_id
_symmetry_equiv_pos_as_xyz
1 x,y,z
2 -x,-y,-z
_cell_length_a                   8.6936(2)
_cell_length_b                   8.7804(2)
_cell_length_c                   11.5419(3)
_cell_angle_alpha                75.291(3)
_cell_angle_beta                 74.523(3)
_cell_angle_gamma                68.416(2)
_cell_volume                     777.53
loop_
_atom_site_label
_atom_site_type_symbol
_atom_site_fract_x
_atom_site_fract_y
_atom_site_fract_z
Cd1 Cd 0.33797(4) 0.64838(4) 0.26789(3)
Pd1 Pd 0.0000 0.5000 0.0000
Pd2 Pd 0.5000 1.0000 0.5000
N1 N 0.2238(6) 0.1234(6) 0.0155(4)
N2 N 0.1958(6) 0.5549(6) 0.1697(4)
N3 N 0.4901(6) 0.7351(5) 0.3677(4)
N4 N 0.1255(6) 1.1912(6) 0.4638(4)
N5 N 0.5676(5) 0.4004(5) 0.2497(4)
N6 N 1.1212(6) -0.0901(6) 0.2804(4)
H1 H 1.080(8) -0.084(8) 0.356(2)
H2 H 1.159(7) -0.008(5) 0.247(4)
N7 N 0.2135(6) 0.5349(6) 0.4561(4)
H3 H 0.125(5) 0.604(6) 0.491(5)
H4 H 0.287(8) 0.498(9) 0.502(7)
H5 H 0.186(7) 0.453(5) 0.450(5)
N8 N 0.4456(6) 0.7699(7) 0.0771(4)
H6 H 0.454(9) 0.718(8) 0.020(6)
H7 H 0.381(5) 0.871(3) 0.060(5)
H8 H 0.545(4) 0.774(7) 0.073(6)
C1 C 0.1405(7) 0.2622(7) 0.0088(5)
C2 C 0.1254(7) 0.5323(6) 0.1072(5)
C3 C 0.4981(6) 0.8282(6) 0.4171(5)
C4 C 0.2628(7) 1.1220(6) 0.4768(5)
C5 C 0.5518(7) 0.2684(6) 0.2197(5)
H9 H 0.4472 0.2783 0.2026
C6 C 0.6821(7) 0.1197(6) 0.2129(5)
H10 H 0.6659 0.0298 0.1917
C7 C 0.8349(6) 0.1016(6) 0.2366(5)
C8 C 0.8524(7) 0.2355(6) 0.2671(5)
H11 H 0.9558 0.2272 0.2854
C9 C 0.7178(7) 0.3827(6) 0.2711(5)
H12 H 0.7330 0.4749 0.2897
C10 C 0.9774(7) -0.0633(6) 0.2271(5)
H13 H 0.9297 -0.1546 0.2668
H14 H 1.0188 -0.0721 0.1396
Cd1A Cd -0.33797(4) 0.35162(4) -0.26789(3)
N1A N -0.2238(6) 0.8766(6) -0.0155(4)
N2A N -0.1958(6) 0.4451(6) -0.1697(4)
N3A N -0.4901(6) 0.2649(5) -0.3677(4)
N5A N -0.5676(5) 0.5996(5) -0.2497(4)
N6A N -1.1212(6) 1.0901(6) -0.2804(4)
H1A H -1.080(8) 1.084(8) -0.356(2)
H2A H -1.159(7) 1.008(5) -0.247(4)
N7A N -0.2135(6) 0.4651(6) -0.4561(4)
H3A H -0.125(5) 0.396(6) -0.491(5)
H4A H -0.287(8) 0.502(9) -0.502(7)
H5A H -0.186(7) 0.547(5) -0.450(5)
N8A N -0.4456(6) 0.2301(7) -0.0771(4)
H6A H -0.454(9) 0.282(8) -0.020(6)
H7A H -0.381(5) 0.129(3) -0.060(5)
H8A H -0.545(4) 0.226(7) -0.073(6)
C1A C -0.1405(7) 0.7378(7) -0.0088(5)
C2A C -0.1254(7) 0.4677(6) -0.1072(5)
C3A C -0.4981(6) 0.1718(6) -0.4171(5)
C5A C -0.5518(7) 0.7316(6) -0.2197(5)
H9A H -0.4472 0.7217 -0.2026
C6A C -0.6821(7) 0.8803(6) -0.2129(5)
H10A H -0.6659 0.9702 -0.1917
C7A C -0.8349(6) 0.8984(6) -0.2366(5)
C8A C -0.8524(7) 0.7645(6) -0.2671(5)
H11A H -0.9558 0.7728 -0.2854
C9A C -0.7178(7) 0.6173(6) -0.2711(5)
H12A H -0.7330 0.5251 -0.2897
C10A C -0.9774(7) 1.0633(6) -0.2271(5)
H13A H -0.9297 1.1546 -0.2668
H14A H -1.0188 1.0721 -0.1396
N4A N 0.8745(6) 0.8088(6) 0.5362(4)
C4A C 0.7372(7) 0.8780(6) 0.5232(5)
Cd1_2 Cd 1.33797(4) -0.35162(4) 0.26789(3)
Cd1A_2 Cd -1.33797(4) 1.35162(4) -0.26789(3)
Pd2_2 Pd -0.5000 0.0000 -0.5000
N6_2 N 0.1212(6) 0.9099(6) 0.2804(4)
N6A_2 N -0.1212(6) 0.0901(6) -0.2804(4)
C3A_2 C 0.5019(6) 1.1718(6) 0.5829(5)
loop_
_geom_bond_atom_site_label_1
_geom_bond_atom_site_label_2
_geom_bond_site_symmetry_1
_geom_bond_site_symmetry_2
Cd1 N2 1_555 1_555
Pd1 C1 1_555 1_555
Pd2 C3 1_555 1_555
N1 C1 1_555 1_555
N2 C2 1_555 1_555
N3 Cd1 1_555 1_555
N4 C4 1_555 1_555
N5 Cd1 1_555 1_555
N6 H1 1_555 1_555
H2 N6 1_555 1_555
N7 Cd1 1_555 1_555
H3 N7 1_555 1_555
H4 N7 1_555 1_555
H5 N7 1_555 1_555
N8 Cd1 1_555 1_555
H6 N8 1_555 1_555
H7 N8 1_555 1_555
H8 N8 1_555 1_555
C2 Pd1 1_555 1_555
C3 N3 1_555 1_555
C4 Pd2 1_555 1_555
C5 N5 1_555 1_555
H9 C5 1_555 1_555
C6 C5 1_555 1_555
H10 C6 1_555 1_555
C7 C6 1_555 1_555
C8 C7 1_555 1_555
H11 C8 1_555 1_555
C9 N5 1_555 1_555
H12 C9 1_555 1_555
C10 N6 1_555 1_555
H13 C10 1_555 1_555
H14 C10 1_555 1_555
Cd1A N2A 1_555 1_555
N1A C1A 1_555 1_555
N2A C2A 1_555 1_555
N3A Cd1A 1_555 1_555
N5A Cd1A 1_555 1_555
N6A H1A 1_555 1_555
H2A N6A 1_555 1_555
N7A Cd1A 1_555 1_555
H3A N7A 1_555 1_555
H4A N7A 1_555 1_555
H5A N7A 1_555 1_555
N8A Cd1A 1_555 1_555
H6A N8A 1_555 1_555
H7A N8A 1_555 1_555
H8A N8A 1_555 1_555
C1A Pd1 1_555 1_555
C2A Pd1 1_555 1_555
C3A N3A 1_555 1_555
C5A N5A 1_555 1_555
H9A C5A 1_555 1_555
C6A C5A 1_555 1_555
H10A C6A 1_555 1_555
C7A C6A 1_555 1_555
C8A C7A 1_555 1_555
H11A C8A 1_555 1_555
C9A N5A 1_555 1_555
H12A C9A 1_555 1_555
C10A N6A 1_555 1_555
H13A C10A 1_555 1_555
H14A C10A 1_555 1_555
N4A C4A 1_555 1_555
C4A Pd2 1_555 1_555
Cd1_2 N6 1_555 1_555
Cd1A_2 N6A 1_555 1_555
Pd2_2 C3A 1_555 1_555
N6_2 Cd1 1_555 1_555
N6A_2 Cd1A 1_555 1_555
C3A_2 Pd2 1_555 1_555
C7 C10 1_555 1_555
C8 C9 1_555 1_555
C7A C10A 1_555 1_555
C8A C9A 1_555 1_555

#END
