
#######################################################################
#
#                 Cambridge Crystallographic Data Centre
#                                CCDC 
#
#######################################################################
#
# If this CIF has been generated from an entry in the Cambridge 
# Structural Database, then it will include bibliographic, chemical, 
# crystal, experimental, refinement or atomic coordinate data resulting 
# from the CCDC's data processing and validation procedures.
#
#######################################################################

data_DEYYEM
_symmetry_cell_setting           monoclinic
_symmetry_space_group_name_H-M   'C 2/c'
_symmetry_Int_Tables_number      15
_space_group_name_Hall           '-C 2yn'
loop_
_symmetry_equiv_pos_site_id
_symmetry_equiv_pos_as_xyz
1 x,y,z
2 1/2+x,1/2+y,z
3 -x,y,1/2-z
4 1/2-x,1/2+y,1/2-z
5 -x,-y,-z
6 1/2-x,1/2-y,-z
7 x,-y,1/2+z
8 1/2+x,1/2-y,1/2+z
_cell_length_a                   16.3274(7)
_cell_length_b                   4.07080(10)
_cell_length_c                   18.6146(8)
_cell_angle_alpha                90
_cell_angle_beta                 93.73(1)
_cell_angle_gamma                90
_cell_volume                     1234.61
loop_
_atom_site_label
_atom_site_type_symbol
_atom_site_fract_x
_atom_site_fract_y
_atom_site_fract_z
Pb1 Pb 0.0000 0.23718(9) 0.2500
Cl1 Cl 0.04358(9) -0.2594(4) 0.35569(8)
O1 O -0.1410(3) 0.2748(14) 0.2938(2)
N1 N -0.1684(3) 0.1312(15) 0.3499(3)
C1 C -0.2393(5) -0.0458(19) 0.3416(4)
H1 H -0.2670 -0.0633 0.2953
C2 C -0.1283(4) 0.155(2) 0.4155(4)
H2 H -0.0788 0.2782 0.4211
C3 C -0.1584(4) 0.0035(19) 0.4741(4)
H3 H -0.1285 0.0195 0.5195
C4 C -0.2713(4) -0.1995(19) 0.3994(4)
H4 H -0.3204 -0.3234 0.3920
C5 C -0.2335(4) -0.1780(19) 0.4686(4)
Pb1_2 Pb 0.0000 -0.76282(9) 0.2500
Pb1G Pb -0.5000 -0.73718(9) 0.7500
Pb1_3 Pb 0.0000 1.23718(9) 0.2500
Cl1_2 Cl 0.04358(9) 0.7406(4) 0.35569(8)
Cl1B Cl -0.04358(9) -0.2594(4) 0.14431(8)
Cl1B_2 Cl -0.04358(9) 0.7406(4) 0.14431(8)
O1E O -0.3590(3) -0.7748(14) 0.7062(2)
O1B O 0.1410(3) 0.2748(14) 0.2062(2)
N1E N -0.3316(3) -0.6312(15) 0.6501(3)
C1E C -0.2607(5) -0.4542(19) 0.6584(4)
H1E H -0.2330 -0.4367 0.7047
C2E C -0.3717(4) -0.655(2) 0.5845(4)
H2E H -0.4212 -0.7782 0.5789
C3E C -0.3416(4) -0.5035(19) 0.5259(4)
H3E H -0.3715 -0.5195 0.4805
C4E C -0.2287(4) -0.3005(19) 0.6006(4)
H4E H -0.1796 -0.1766 0.6080
C5E C -0.2665(4) -0.3220(19) 0.5314(4)
loop_
_geom_bond_atom_site_label_1
_geom_bond_atom_site_label_2
_geom_bond_site_symmetry_1
_geom_bond_site_symmetry_2
Pb1 Cl1 1_555 1_555
Cl1 Pb1_2 1_555 1_555
O1 Pb1 1_555 1_555
N1 O1 1_555 1_555
C1 N1 1_555 1_555
H1 C1 1_555 1_555
C2 N1 1_555 1_555
H2 C2 1_555 1_555
C3 C2 1_555 1_555
H3 C3 1_555 1_555
C4 C1 1_555 1_555
H4 C4 1_555 1_555
C5 C3 1_555 1_555
Pb1_2 Cl1B 1_555 1_555
Pb1G O1E 1_555 1_555
Pb1_3 Cl1_2 1_555 1_555
Cl1_2 Pb1 1_555 1_555
Cl1B Pb1 1_555 1_555
Cl1B_2 Pb1 1_555 1_555
O1E N1E 1_555 1_555
O1B Pb1 1_555 1_555
N1E C1E 1_555 1_555
C1E H1E 1_555 1_555
C2E N1E 1_555 1_555
H2E C2E 1_555 1_555
C3E C2E 1_555 1_555
H3E C3E 1_555 1_555
C4E C1E 1_555 1_555
H4E C4E 1_555 1_555
C5E C5 1_555 1_555
C4 C5 1_555 1_555
Pb1_3 Cl1B_2 1_555 1_555
C3E C5E 1_555 1_555
C4E C5E 1_555 1_555

#END
