
#######################################################################
#
#                 Cambridge Crystallographic Data Centre
#                                CCDC 
#
#######################################################################
#
# If this CIF has been generated from an entry in the Cambridge 
# Structural Database, then it will include bibliographic, chemical, 
# crystal, experimental, refinement or atomic coordinate data resulting 
# from the CCDC's data processing and validation procedures.
#
#######################################################################

data_DEYYIQ
_symmetry_cell_setting           monoclinic
_symmetry_space_group_name_H-M   'C 2/c'
_symmetry_Int_Tables_number      15
_space_group_name_Hall           '-C 2yn'
loop_
_symmetry_equiv_pos_site_id
_symmetry_equiv_pos_as_xyz
1 x,y,z
2 1/2+x,1/2+y,z
3 -x,y,1/2-z
4 1/2-x,1/2+y,1/2-z
5 -x,-y,-z
6 1/2-x,1/2-y,-z
7 x,-y,1/2+z
8 1/2+x,1/2-y,1/2+z
_cell_length_a                   16.403(3)
_cell_length_b                   4.2412(8)
_cell_length_c                   18.846(4)
_cell_angle_alpha                90
_cell_angle_beta                 92.59(3)
_cell_angle_gamma                90
_cell_volume                     1309.75
loop_
_atom_site_label
_atom_site_type_symbol
_atom_site_fract_x
_atom_site_fract_y
_atom_site_fract_z
Pb1 Pb 0.5000 0.20909(10) 0.2500
Br1 Br 0.54298(5) -0.28531(19) 0.35964(4)
O1 O 0.3573(3) 0.2402(13) 0.2920(3)
N1 N 0.3303(4) 0.1001(18) 0.3484(4)
C1 C 0.2629(5) -0.089(2) 0.3416(5)
H1 H 0.2376 -0.1262 0.2960
C2 C 0.3669(5) 0.147(2) 0.4129(5)
H2 H 0.4142 0.2761 0.4173
C3 C 0.3370(5) 0.011(2) 0.4724(5)
H3 H 0.3638 0.0477 0.5174
C4 C 0.2666(5) -0.1838(19) 0.4679(4)
C5 C 0.2319(5) -0.2245(18) 0.4006(4)
H4 H 0.1845 -0.3521 0.3949
Pb1_2 Pb 0.5000 -0.79091(10) 0.2500
Pb1G Pb 0.0000 -0.70909(10) 0.7500
Pb1_3 Pb 0.5000 1.20909(10) 0.2500
Br1_2 Br 0.54298(5) 0.71469(19) 0.35964(4)
Br1B Br 0.45702(5) -0.28531(19) 0.14036(4)
Br1B_2 Br 0.45702(5) 0.71469(19) 0.14036(4)
O1E O 0.1427(3) -0.7402(13) 0.7080(3)
O1B O 0.6427(3) 0.2402(13) 0.2080(3)
N1E N 0.1697(4) -0.6001(18) 0.6516(4)
C1E C 0.2371(5) -0.411(2) 0.6584(5)
H1E H 0.2624 -0.3738 0.7040
C2E C 0.1331(5) -0.647(2) 0.5871(5)
H2E H 0.0858 -0.7761 0.5827
C3E C 0.1630(5) -0.511(2) 0.5276(5)
H3E H 0.1362 -0.5477 0.4826
C4E C 0.2334(5) -0.3162(19) 0.5321(4)
C5E C 0.2681(5) -0.2755(18) 0.5994(4)
H4E H 0.3155 -0.1479 0.6051
loop_
_geom_bond_atom_site_label_1
_geom_bond_atom_site_label_2
_geom_bond_site_symmetry_1
_geom_bond_site_symmetry_2
Pb1 Br1 1_555 1_555
Br1 Pb1_2 1_555 1_555
O1 Pb1 1_555 1_555
N1 O1 1_555 1_555
C1 N1 1_555 1_555
H1 C1 1_555 1_555
C2 N1 1_555 1_555
H2 C2 1_555 1_555
C3 C2 1_555 1_555
H3 C3 1_555 1_555
C4 C3 1_555 1_555
C5 C1 1_555 1_555
H4 C5 1_555 1_555
Pb1_2 Br1B 1_555 1_555
Pb1G O1E 1_555 1_555
Pb1_3 Br1_2 1_555 1_555
Br1_2 Pb1 1_555 1_555
Br1B Pb1 1_555 1_555
Br1B_2 Pb1 1_555 1_555
O1E N1E 1_555 1_555
O1B Pb1 1_555 1_555
N1E C1E 1_555 1_555
C1E H1E 1_555 1_555
C2E N1E 1_555 1_555
H2E C2E 1_555 1_555
C3E C2E 1_555 1_555
H3E C3E 1_555 1_555
C4E C4 1_555 1_555
C5E C1E 1_555 1_555
H4E C5E 1_555 1_555
C4 C5 1_555 1_555
Pb1_3 Br1B_2 1_555 1_555
C3E C4E 1_555 1_555
C4E C5E 1_555 1_555

#END
