
#######################################################################
#
#                 Cambridge Crystallographic Data Centre
#                                CCDC 
#
#######################################################################
#
# If this CIF has been generated from an entry in the Cambridge 
# Structural Database, then it will include bibliographic, chemical, 
# crystal, experimental, refinement or atomic coordinate data resulting 
# from the CCDC's data processing and validation procedures.
#
#######################################################################

data_DEYZAJ
_symmetry_cell_setting           trigonal
_symmetry_space_group_name_H-M   'P 32 2 1'
_symmetry_Int_Tables_number      154
_space_group_name_Hall           'P 32 2"'
loop_
_symmetry_equiv_pos_site_id
_symmetry_equiv_pos_as_xyz
1 x,y,z
2 -y,x-y,2/3+z
3 -x+y,-x,1/3+z
4 y,x,-z
5 x-y,-y,1/3-z
6 -x,-x+y,2/3-z
_cell_length_a                   11.4022(16)
_cell_length_b                   11.4022(16)
_cell_length_c                   20.903(6)
_cell_angle_alpha                90
_cell_angle_beta                 90
_cell_angle_gamma                120
_cell_volume                     2353.51
loop_
_atom_site_label
_atom_site_type_symbol
_atom_site_fract_x
_atom_site_fract_y
_atom_site_fract_z
Co1 Co 0.35215(5) 0.35215(5) 0.0000
Co2 Co 1.00000(5) 0.4521 -0.1666
C1 C 0.5269(3) 0.2216(3) 0.05254(15)
C2 C 0.6326(3) 0.2770(3) -0.00017(15)
C3 C 0.7682(4) 0.3294(5) 0.01648(18)
H1 H 0.7926 0.3311 0.0591
C4 C 0.8664(4) 0.3793(4) -0.03109(17)
H2 H 0.9567 0.4179 -0.0189
C5 C 0.7079(3) 0.3221(3) -0.10900(16)
H3 H 0.6853 0.3147 -0.1521
C6 C 0.6036(3) 0.2777(3) -0.06429(15)
C7 C 0.4626(3) 0.2245(4) -0.09243(16)
C8 C 1.1158(3) 0.2613(4) -0.16622(16)
H4 H 1.1973 0.3429 -0.1671
C9 C 1.1203(4) 0.1434(4) -0.16448(16)
H5 H 1.2031 0.1463 -0.1618
C10 C 1.0000(4) 0.0190 -0.1666
C11 C 1.0000(4) -0.1121 -0.1666
C12 C 0.8808(3) -0.2359(4) -0.17378(18)
H6 H 0.7984 -0.2387 -0.1788
C13 C 0.8858(3) -0.3536(4) -0.17325(18)
H7 H 0.8048 -0.4350 -0.1777
C14 C 0.1577(4) 0.0422(4) 0.00153(19)
H8 H 0.2395 0.0427 0.0023
C15 C 0.0387(4) -0.0812(4) 0.00210(19)
H9 H 0.0412 -0.1614 0.0039
C16 C -0.0843(4) -0.0843(4) 0.0000
C17 C -0.2136(4) -0.2136(4) 0.0000
C18 C -0.2373(4) -0.3180(4) 0.04223(19)
H10 H -0.1698 -0.3083 0.0704
C19 C -0.3604(4) -0.4347(4) 0.04198(19)
H11 H -0.3763 -0.5003 0.0725
N1 N 0.8381(3) 0.3747(3) -0.09364(13)
N2 N 1.0000(3) 0.2653 -0.1666
N3 N 1.0000(3) -0.3585 -0.1666
N4 N 0.1609(4) 0.1609(4) 0.0000
N5 N -0.4597(4) -0.4597(4) 0.0000
O1 O 0.5420(2) 0.1507(2) 0.09393(10)
O2 O 0.4351(2) 0.2500(3) 0.05212(12)
O3 O 0.4031(3) 0.2911(3) -0.08293(12)
O4 O 0.4195(3) 0.1250(4) -0.1272(2)
Co1_2 Co -0.64785(5) -0.64785(5) 0.0000
Co2_2 Co 1.00000(5) -0.5479 -0.1666
Co2B Co 0.45210(5) 0.00000(5) 0.1667
Co2B_2 Co 0.45210(5) 1.00000(5) 0.1667
Co2_3 Co 0.00000(5) 0.4521 -0.1666
C1C C 0.2216(3) 0.5269(3) -0.05254(15)
C2C C 0.2770(3) 0.6326(3) 0.00017(15)
C3C C 0.3294(5) 0.7682(4) -0.01648(18)
H1C H 0.3311 0.7926 -0.0591
C4C C 0.3793(4) 0.8664(4) 0.03109(17)
H2C H 0.4179 0.9567 0.0189
C5C C 0.3221(3) 0.7079(3) 0.10900(16)
H3C H 0.3147 0.6853 0.1521
C6C C 0.2777(3) 0.6036(3) 0.06429(15)
C7C C 0.2245(4) 0.4626(3) 0.09243(16)
C8E C 0.8842(3) 0.1455(5) -0.16711(16)
H4E H 0.8027 0.1456 -0.1662
C9E C 0.8797(4) 0.0231(6) -0.16885(16)
H5E H 0.7969 -0.0568 -0.1715
C12E C 1.1192(3) -0.1167(5) -0.15955(18)
H6E H 1.2016 -0.0371 -0.1545
C13E C 1.1142(3) -0.2394(5) -0.16008(18)
H7E H 1.1952 -0.2398 -0.1556
C14C C 0.0422(4) 0.1577(4) -0.00153(19)
H8C H 0.0427 0.2395 -0.0023
C15C C -0.0812(4) 0.0387(4) -0.00210(19)
H9C H -0.1614 0.0412 -0.0039
C18C C -0.3180(4) -0.2373(4) -0.04223(19)
H10C H -0.3083 -0.1698 -0.0704
C19C C -0.4347(4) -0.3604(4) -0.04198(19)
H11C H -0.5003 -0.3763 -0.0725
N1C N 0.3747(3) 0.8381(3) 0.09364(13)
N1E N 1.1619(3) 0.5366(4) -0.23969(13)
N3_2 N 1.0000(3) 0.6415 -0.1666
N5_2 N 0.5403(4) 0.5403(4) 0.0000
O1C O 0.1507(2) 0.5420(2) -0.09393(10)
O1A O 0.8493(2) 0.3913(3) -0.23940(10)
O1C_2 O 1.1507(2) 0.5420(2) -0.09393(10)
O2C O 0.2500(3) 0.4351(2) -0.05212(12)
O3C O 0.2911(3) 0.4031(3) 0.08293(12)
O4C O 0.1250(4) 0.4195(3) 0.1272(2)
O5 O 0.4703(6) 0.4244(5) -0.2031(2)
H12 H 0.4701 0.4984 -0.2078
H13 H 0.4900 0.3901 -0.2345
loop_
_geom_bond_atom_site_label_1
_geom_bond_atom_site_label_2
_geom_bond_site_symmetry_1
_geom_bond_site_symmetry_2
Co1 N4 1_555 1_555
Co2 N1 1_555 1_555
C1 C2 1_555 1_555
C2 C3 1_555 1_555
C3 H1 1_555 1_555
C4 C3 1_555 1_555
H2 C4 1_555 1_555
C5 H3 1_555 1_555
C6 C2 1_555 1_555
C7 C6 1_555 1_555
C8 H4 1_555 1_555
C9 C8 1_555 1_555
H5 C9 1_555 1_555
C10 C9 1_555 1_555
C11 C10 1_555 1_555
C12 C11 1_555 1_555
H6 C12 1_555 1_555
C13 C12 1_555 1_555
H7 C13 1_555 1_555
C14 H8 1_555 1_555
C15 C14 1_555 1_555
H9 C15 1_555 1_555
C16 C15 1_555 1_555
C17 C16 1_555 1_555
C18 C17 1_555 1_555
H10 C18 1_555 1_555
C19 C18 1_555 1_555
H11 C19 1_555 1_555
N1 C4 1_555 1_555
N2 Co2 1_555 1_555
N3 C13 1_555 1_555
N4 C14 1_555 1_555
N5 C19 1_555 1_555
O1 C1 1_555 1_555
O2 Co1 1_555 1_555
O3 Co1 1_555 1_555
O4 C7 1_555 1_555
O5 H12 1_555 1_555
H13 O5 1_555 1_555
Co1_2 N5 1_555 1_555
Co2_2 N3 1_555 1_555
Co2B O1 1_555 1_555
Co2B_2 N1C 1_555 1_555
Co2_3 O1C 1_555 1_555
C1C C2C 1_555 1_555
C2C C3C 1_555 1_555
C3C H1C 1_555 1_555
C4C C3C 1_555 1_555
H2C C4C 1_555 1_555
C5C H3C 1_555 1_555
C6C C2C 1_555 1_555
C7C C6C 1_555 1_555
C8E N2 1_555 1_555
H4E C8E 1_555 1_555
C9E C10 1_555 1_555
H5E C9E 1_555 1_555
C12E C11 1_555 1_555
H6E C12E 1_555 1_555
C13E N3 1_555 1_555
H7E C13E 1_555 1_555
C14C N4 1_555 1_555
H8C C14C 1_555 1_555
C15C C16 1_555 1_555
H9C C15C 1_555 1_555
C18C C17 1_555 1_555
H10C C18C 1_555 1_555
C19C N5 1_555 1_555
H11C C19C 1_555 1_555
N1C C4C 1_555 1_555
N1E Co2 1_555 1_555
N3_2 Co2 1_555 1_555
N5_2 Co1 1_555 1_555
O1C C1C 1_555 1_555
O1A Co2 1_555 1_555
O1C_2 Co2 1_555 1_555
O2C Co1 1_555 1_555
O3C Co1 1_555 1_555
O4C C7C 1_555 1_555
C1 O2 1_555 1_555
C5 C6 1_555 1_555
C5 N1 1_555 1_555
C7 O3 1_555 1_555
C8 N2 1_555 1_555
C1C O2C 1_555 1_555
C5C C6C 1_555 1_555
C5C N1C 1_555 1_555
C7C O3C 1_555 1_555
C8E C9E 1_555 1_555
C12E C13E 1_555 1_555
C14C C15C 1_555 1_555
C18C C19C 1_555 1_555

#END
