
#######################################################################
#
#                 Cambridge Crystallographic Data Centre
#                                CCDC 
#
#######################################################################
#
# If this CIF has been generated from an entry in the Cambridge 
# Structural Database, then it will include bibliographic, chemical, 
# crystal, experimental, refinement or atomic coordinate data resulting 
# from the CCDC's data processing and validation procedures.
#
#######################################################################

data_DEZCES
_symmetry_cell_setting           orthorhombic
_symmetry_space_group_name_H-M   'P 21 21 21'
_symmetry_Int_Tables_number      19
_space_group_name_Hall           'P 2ac 2ab'
loop_
_symmetry_equiv_pos_site_id
_symmetry_equiv_pos_as_xyz
1 x,y,z
2 1/2-x,-y,1/2+z
3 -x,1/2+y,1/2-z
4 1/2+x,1/2-y,-z
_cell_length_a                   5.795(3)
_cell_length_b                   11.807(6)
_cell_length_c                   21.974(10)
_cell_angle_alpha                90
_cell_angle_beta                 90
_cell_angle_gamma                90
_cell_volume                     1503.5
loop_
_atom_site_label
_atom_site_type_symbol
_atom_site_fract_x
_atom_site_fract_y
_atom_site_fract_z
Ni1 Ni 0.69020(11) 0.20859(6) 0.95533(3)
N1 N 0.4224(7) 0.6090(3) 0.6216(2)
H1 H 0.3137 0.5921 0.5965
O1 O 0.6678(6) 0.7028(3) 0.52624(14)
O2 O 0.7469(6) 0.0672(3) 1.00795(16)
H2 H 0.6923 0.0640 1.0443
H3 H 0.8251 0.0113 0.9936
O3 O 0.6078(6) 0.3582(3) 0.91401(17)
O4 O 0.9932(6) 0.6851(3) 0.58201(17)
O5 O 0.9288(7) 0.4641(4) 0.9089(2)
C1 C 0.3368(10) 0.5279(4) 0.7628(3)
H4 H 0.1952 0.5073 0.7463
C2 C 0.7845(11) 0.6639(4) 0.5706(2)
C3 C 0.4187(9) 0.4723(4) 0.8147(3)
H5 H 0.3302 0.4160 0.8328
C4 C 0.6677(9) 0.5771(4) 0.6112(3)
H6 H 0.7473 0.5759 0.6506
C5 C 0.6324(9) 0.5011(4) 0.8392(3)
C6 C 0.7309(10) 0.4365(5) 0.8926(3)
C7 C 0.6708(10) 0.6453(4) 0.7623(3)
H7 H 0.7543 0.7053 0.7460
C8 C 0.4653(9) 0.6137(4) 0.7356(3)
C9 C 0.3811(9) 0.6728(4) 0.6790(2)
H8 H 0.2168 0.6865 0.6831
H9 H 0.4570 0.7458 0.6761
C10 C 0.8207(12) 0.3538(5) 0.6749(3)
H10 H 0.7848 0.2897 0.7001
H11 H 0.8100 0.4218 0.6986
H12 H 0.9746 0.3461 0.6593
C11 C 0.6504(11) 0.3596(5) 0.6221(3)
H13 H 0.4944 0.3662 0.6390
C12 C 0.6949(11) 0.4619(4) 0.5815(3)
H14 H 0.8507 0.4562 0.5656
H15 H 0.5902 0.4580 0.5471
C13 C 0.7558(9) 0.5888(4) 0.8134(3)
H16 H 0.8965 0.6103 0.8301
C14 C 0.6612(12) 0.2520(4) 0.5836(3)
H17 H 0.6319 0.1873 0.6089
H18 H 0.8116 0.2453 0.5657
H19 H 0.5468 0.2558 0.5521
Ni1A Ni 0.80980(11) 0.79141(6) 0.45533(3)
Ni1B Ni 0.30980(11) 0.70859(6) 0.54467(3)
Ni1B_2 Ni 1.30980(11) 0.70859(6) 0.54467(3)
N1B N 0.5776(7) 0.1090(3) 0.8784(2)
O1A O 0.8322(6) 0.2972(3) 1.02624(14)
O1B O 0.3322(6) 0.2028(3) 0.97376(14)
O4B O 1.0068(6) 0.1851(3) 0.91799(17)
loop_
_geom_bond_atom_site_label_1
_geom_bond_atom_site_label_2
_geom_bond_site_symmetry_1
_geom_bond_site_symmetry_2
Ni1 O2 1_555 1_555
N1 H1 1_555 1_555
O1 C2 1_555 1_555
O2 H2 1_555 1_555
H3 O2 1_555 1_555
O3 Ni1 1_555 1_555
O4 C2 1_555 1_555
O5 C6 1_555 1_555
C1 H4 1_555 1_555
C2 C4 1_555 1_555
C3 C1 1_555 1_555
H5 C3 1_555 1_555
C4 N1 1_555 1_555
H6 C4 1_555 1_555
C5 C3 1_555 1_555
C6 O3 1_555 1_555
C7 H7 1_555 1_555
C8 C1 1_555 1_555
C9 N1 1_555 1_555
H8 C9 1_555 1_555
H9 C9 1_555 1_555
C10 H10 1_555 1_555
H11 C10 1_555 1_555
H12 C10 1_555 1_555
C11 C10 1_555 1_555
H13 C11 1_555 1_555
C12 C4 1_555 1_555
H14 C12 1_555 1_555
H15 C12 1_555 1_555
C13 C5 1_555 1_555
H16 C13 1_555 1_555
C14 C11 1_555 1_555
H17 C14 1_555 1_555
H18 C14 1_555 1_555
H19 C14 1_555 1_555
Ni1A O1 1_555 1_555
Ni1B N1 1_555 1_555
Ni1B_2 O4 1_555 1_555
N1B Ni1 1_555 1_555
O1A Ni1 1_555 1_555
O1B Ni1 1_555 1_555
O4B Ni1 1_555 1_555
O1 Ni1B 1_555 1_555
C5 C6 1_555 1_555
C7 C8 1_555 1_555
C7 C13 1_555 1_555
C8 C9 1_555 1_555
C11 C12 1_555 1_555

#END
