
#######################################################################
#
#                 Cambridge Crystallographic Data Centre
#                                CCDC 
#
#######################################################################
#
# If this CIF has been generated from an entry in the Cambridge 
# Structural Database, then it will include bibliographic, chemical, 
# crystal, experimental, refinement or atomic coordinate data resulting 
# from the CCDC's data processing and validation procedures.
#
#######################################################################

data_DEZCAO
_symmetry_cell_setting           orthorhombic
_symmetry_space_group_name_H-M   'P 21 21 21'
_symmetry_Int_Tables_number      19
_space_group_name_Hall           'P 2ac 2ab'
loop_
_symmetry_equiv_pos_site_id
_symmetry_equiv_pos_as_xyz
1 x,y,z
2 1/2-x,-y,1/2+z
3 -x,1/2+y,1/2-z
4 1/2+x,1/2-y,-z
_cell_length_a                   5.9014(3)
_cell_length_b                   11.8762(6)
_cell_length_c                   22.0534(11)
_cell_angle_alpha                90
_cell_angle_beta                 90
_cell_angle_gamma                90
_cell_volume                     1545.64
loop_
_atom_site_label
_atom_site_type_symbol
_atom_site_fract_x
_atom_site_fract_y
_atom_site_fract_z
Co1 Co 0.79486(13) 0.70816(7) 0.04472(4)
N1 N 1.0862(8) 1.1067(5) 0.3774(3)
H1 H 1.1939 1.0906 0.4022
O1 O 0.8450(7) 1.1991(4) 0.47315(19)
O2 O 0.7509(8) 0.5693(3) -0.0122(2)
H2 H 0.8169 0.5676 -0.0469
H3 H 0.6669 0.5140 -0.0009
O3 O 0.5255(7) 1.1761(4) 0.4194(3)
O4 O 0.8822(7) 0.8583(4) 0.0861(2)
O5 O 0.5694(10) 0.9640(6) 0.0926(4)
C1 C 0.7271(12) 1.1570(5) 0.4294(3)
C2 C 1.1582(11) 1.0263(6) 0.2359(3)
H4 H 1.2992 1.0059 0.2512
C3 C 0.7621(12) 0.9363(5) 0.1094(3)
C4 C 0.8619(11) 0.9996(6) 0.1613(3)
C5 C 1.0752(12) 0.9715(6) 0.1855(4)
H5 H 1.1611 0.9153 0.1672
C6 C 1.0350(12) 1.1118(7) 0.2644(3)
C7 C 0.7474(11) 1.0863(6) 0.1889(3)
H6 H 0.6080 1.1084 0.1732
C8 C 0.8295(13) 1.1407(6) 0.2379(4)
H7 H 0.7457 1.1994 0.2545
C9 C 0.8460(10) 1.0722(6) 0.3879(4)
H8 H 0.7664 1.0690 0.3490
C10 C 1.1233(13) 1.1704(7) 0.3214(4)
H9 H 1.2845 1.1838 0.3167
H10 H 1.0496 1.2431 0.3251
C11 C 0.8286(16) 0.9570(6) 0.4193(4)
H11 H 0.9456 0.9529 0.4502
H12 H 0.6835 0.9530 0.4399
C12 C 0.8499(18) 0.8575(8) 0.3801(6)
H13 H 0.9996 0.8585 0.3609
C13 C 0.669(3) 0.8509(10) 0.3308(8)
H14 H 0.6831 0.9146 0.3043
H15 H 0.5215 0.8511 0.3492
H16 H 0.6886 0.7828 0.3079
C14 C 0.833(3) 0.7500(9) 0.4223(10)
H17 H 0.9471 0.7537 0.4531
H18 H 0.8543 0.6834 0.3983
H19 H 0.6856 0.7477 0.4409
Co1A Co 0.70514(13) 1.29184(7) 0.54472(4)
Co1B Co 0.20514(13) 1.20816(7) 0.45528(4)
Co1B_2 Co 1.20514(13) 1.20816(7) 0.45528(4)
N1B N 0.9138(8) 0.6067(5) 0.1226(3)
O1A O 0.6550(7) 0.8009(4) -0.02685(19)
O1B O 1.1550(7) 0.6991(4) 0.02685(19)
O3B O 0.4745(7) 0.6761(4) 0.0806(3)
loop_
_geom_bond_atom_site_label_1
_geom_bond_atom_site_label_2
_geom_bond_site_symmetry_1
_geom_bond_site_symmetry_2
Co1 O2 1_555 1_555
N1 H1 1_555 1_555
O1 C1 1_555 1_555
O2 H2 1_555 1_555
H3 O2 1_555 1_555
O3 C1 1_555 1_555
O4 Co1 1_555 1_555
O5 C3 1_555 1_555
C1 C9 1_555 1_555
C2 H4 1_555 1_555
C3 O4 1_555 1_555
C4 C3 1_555 1_555
C5 C2 1_555 1_555
H5 C5 1_555 1_555
C6 C2 1_555 1_555
C7 C4 1_555 1_555
H6 C7 1_555 1_555
C8 C6 1_555 1_555
H7 C8 1_555 1_555
C9 N1 1_555 1_555
H8 C9 1_555 1_555
C10 N1 1_555 1_555
H9 C10 1_555 1_555
H10 C10 1_555 1_555
C11 C9 1_555 1_555
H11 C11 1_555 1_555
H12 C11 1_555 1_555
C12 C11 1_555 1_555
H13 C12 1_555 1_555
C13 C12 1_555 1_555
H14 C13 1_555 1_555
H15 C13 1_555 1_555
H16 C13 1_555 1_555
C14 C12 1_555 1_555
H17 C14 1_555 1_555
H18 C14 1_555 1_555
H19 C14 1_555 1_555
Co1A O1 1_555 1_555
Co1B O3 1_555 1_555
Co1B_2 N1 1_555 1_555
N1B Co1 1_555 1_555
O1A Co1 1_555 1_555
O1B Co1 1_555 1_555
O3B Co1 1_555 1_555
O1 Co1B_2 1_555 1_555
C4 C5 1_555 1_555
C6 C10 1_555 1_555
C7 C8 1_555 1_555

#END
