
#######################################################################
#
#                 Cambridge Crystallographic Data Centre
#                                CCDC 
#
#######################################################################
#
# If this CIF has been generated from an entry in the Cambridge 
# Structural Database, then it will include bibliographic, chemical, 
# crystal, experimental, refinement or atomic coordinate data resulting 
# from the CCDC's data processing and validation procedures.
#
#######################################################################

data_DEZFAR
_symmetry_cell_setting           triclinic
_symmetry_space_group_name_H-M   'P -1'
_symmetry_Int_Tables_number      2
_space_group_name_Hall           '-P 1'
loop_
_symmetry_equiv_pos_site_id
_symmetry_equiv_pos_as_xyz
1 x,y,z
2 -x,-y,-z
_cell_length_a                   6.733(2)
_cell_length_b                   7.450(3)
_cell_length_c                   12.049(4)
_cell_angle_alpha                87.684(4)
_cell_angle_beta                 77.440(4)
_cell_angle_gamma                80.434(3)
_cell_volume                     581.716
loop_
_atom_site_label
_atom_site_type_symbol
_atom_site_fract_x
_atom_site_fract_y
_atom_site_fract_z
Yb1 Yb -0.17872(3) 0.16438(2) -0.076786(15)
O1 O -0.3097(5) 0.0060(4) -0.1918(3)
O2 O -0.1482(5) -0.2807(4) -0.1994(3)
O3 O -0.8890(5) 0.0345(4) -0.2030(3)
O4 O -0.6748(5) -0.1469(4) -0.1128(3)
O5 O -0.7642(5) 0.5403(4) 0.0025(3)
O6 O -0.5249(5) 0.3000(4) -0.0638(3)
O7 O -0.1049(4) -0.1562(4) -0.0122(3)
H1 H -0.2233 -0.1894 0.0412
H2 H -0.0693 -0.2389 -0.0762
O8 O -0.1242(5) 0.3595(4) -0.2338(3)
H3 H 0.0053 0.3150 -0.2835
H4 H -0.1217 0.4793 -0.2082
N1 N -0.5893(7) -0.2794(6) -0.6070(3)
H5 H -0.7065 -0.2639 -0.6266
N2 N -0.2508(7) -0.3583(6) -0.6214(3)
C1 C -0.4048(9) -0.3486(8) -0.6721(4)
H6 H -0.3888 -0.3861 -0.7467
C2 C -0.3406(7) -0.2889(6) -0.5132(4)
C3 C -0.2501(7) -0.2679(7) -0.4223(4)
H7 H -0.1093 -0.3041 -0.4278
C4 C -0.3748(7) -0.1917(6) -0.3238(4)
C5 C -0.5902(7) -0.1403(6) -0.3135(4)
C6 C -0.6815(7) -0.1623(7) -0.4041(4)
H8 H -0.8225 -0.1275 -0.3986
C7 C -0.5542(7) -0.2382(6) -0.5030(4)
C8 C -0.2722(6) -0.1536(6) -0.2298(4)
C9 C -0.7288(6) -0.0771(6) -0.2014(4)
C10 C -0.5849(7) 0.4554(6) -0.0167(4)
O5A O -0.2358(5) 0.4597(4) -0.0025(3)
O6A O -0.4751(5) 0.7000(4) 0.0638(3)
C10A C -0.4151(7) 0.5446(6) 0.0167(4)
Yb1A Yb -0.82128(3) -0.16438(2) 0.076786(15)
O1A O -0.6903(5) -0.0060(4) 0.1918(3)
O2A O -0.8518(5) 0.2807(4) 0.1994(3)
O3A O -0.1110(5) -0.0345(4) 0.2030(3)
O4A O -0.3252(5) 0.1469(4) 0.1128(3)
O7A O -0.8951(4) 0.1562(4) 0.0122(3)
H1A H -0.7767 0.1894 -0.0412
H2A H -0.9307 0.2389 0.0762
O8A O -0.8758(5) -0.3595(4) 0.2338(3)
H3A H -1.0053 -0.3150 0.2835
H4A H -0.8783 -0.4793 0.2082
N1A N -0.4107(7) 0.2794(6) 0.6070(3)
H5A H -0.2935 0.2639 0.6266
N2A N -0.7492(7) 0.3583(6) 0.6214(3)
C1A C -0.5952(9) 0.3486(8) 0.6721(4)
H6A H -0.6112 0.3861 0.7467
C2A C -0.6594(7) 0.2889(6) 0.5132(4)
C3A C -0.7499(7) 0.2679(7) 0.4223(4)
H7A H -0.8907 0.3041 0.4278
C4A C -0.6252(7) 0.1917(6) 0.3238(4)
C5A C -0.4098(7) 0.1403(6) 0.3135(4)
C6A C -0.3185(7) 0.1623(7) 0.4041(4)
H8A H -0.1775 0.1275 0.3986
C7A C -0.4458(7) 0.2382(6) 0.5030(4)
C8A C -0.7278(6) 0.1536(6) 0.2298(4)
C9A C -0.2712(6) 0.0771(6) 0.2014(4)
Yb1_2 Yb -1.17872(3) 0.16438(2) -0.076786(15)
Yb1A_2 Yb -0.82128(3) 0.83562(2) 0.076786(15)
Yb1A_3 Yb 0.17872(3) -0.16438(2) 0.076786(15)
O3_2 O 0.1110(5) 0.0345(4) -0.2030(3)
O3A_2 O -1.1110(5) -0.0345(4) 0.2030(3)
O5_2 O -0.7642(5) -0.4597(4) 0.0025(3)
O6A_2 O -0.4751(5) -0.3000(4) 0.0638(3)
O7_2 O -1.1049(4) -0.1562(4) -0.0122(3)
O7A_2 O 0.1049(4) 0.1562(4) 0.0122(3)
loop_
_geom_bond_atom_site_label_1
_geom_bond_atom_site_label_2
_geom_bond_site_symmetry_1
_geom_bond_site_symmetry_2
Yb1 O1 1_555 1_555
O1 C8 1_555 1_555
O2 C8 1_555 1_555
O3 C9 1_555 1_555
O4 C9 1_555 1_555
O5 C10 1_555 1_555
O6 Yb1 1_555 1_555
O7 Yb1 1_555 1_555
H1 O7 1_555 1_555
H2 O7 1_555 1_555
O8 Yb1 1_555 1_555
H3 O8 1_555 1_555
H4 O8 1_555 1_555
N1 H5 1_555 1_555
N2 C1 1_555 1_555
C1 N1 1_555 1_555
H6 C1 1_555 1_555
C2 N2 1_555 1_555
C3 C2 1_555 1_555
H7 C3 1_555 1_555
C4 C3 1_555 1_555
C5 C4 1_555 1_555
C6 C5 1_555 1_555
H8 C6 1_555 1_555
C7 N1 1_555 1_555
C8 C4 1_555 1_555
C9 C5 1_555 1_555
C10 O6 1_555 1_555
O5A Yb1 1_555 1_555
O6A C10A 1_555 1_555
C10A C10 1_555 1_555
Yb1A O4 1_555 1_555
O1A Yb1A 1_555 1_555
O2A C8A 1_555 1_555
O3A C9A 1_555 1_555
O4A Yb1 1_555 1_555
O7A Yb1A 1_555 1_555
H1A O7A 1_555 1_555
H2A O7A 1_555 1_555
O8A Yb1A 1_555 1_555
H3A O8A 1_555 1_555
H4A O8A 1_555 1_555
N1A H5A 1_555 1_555
N2A C1A 1_555 1_555
C1A N1A 1_555 1_555
H6A C1A 1_555 1_555
C2A N2A 1_555 1_555
C3A C2A 1_555 1_555
H7A C3A 1_555 1_555
C4A C3A 1_555 1_555
C5A C4A 1_555 1_555
C6A C5A 1_555 1_555
H8A C6A 1_555 1_555
C7A N1A 1_555 1_555
C8A O1A 1_555 1_555
C9A O4A 1_555 1_555
Yb1_2 O3 1_555 1_555
Yb1A_2 O5 1_555 1_555
Yb1A_3 O7 1_555 1_555
O3_2 Yb1 1_555 1_555
O3A_2 Yb1A 1_555 1_555
O5_2 Yb1A 1_555 1_555
O6A_2 Yb1A 1_555 1_555
O7_2 Yb1A 1_555 1_555
O7A_2 Yb1 1_555 1_555
C2 C7 1_555 1_555
C6 C7 1_555 1_555
O5A C10A 1_555 1_555
O6A Yb1A_2 1_555 1_555
O3A Yb1A_3 1_555 1_555
O7A Yb1_2 1_555 1_555
C2A C7A 1_555 1_555
C4A C8A 1_555 1_555
C5A C9A 1_555 1_555
C6A C7A 1_555 1_555
Yb1_2 O7_2 1_555 1_555
Yb1A_3 O7A_2 1_555 1_555

#END
