
#######################################################################
#
#                 Cambridge Crystallographic Data Centre
#                                CCDC 
#
#######################################################################
#
# If this CIF has been generated from an entry in the Cambridge 
# Structural Database, then it will include bibliographic, chemical, 
# crystal, experimental, refinement or atomic coordinate data resulting 
# from the CCDC's data processing and validation procedures.
#
#######################################################################

data_DEZFUL
_symmetry_cell_setting           monoclinic
_symmetry_space_group_name_H-M   'P 21/c'
_symmetry_Int_Tables_number      14
_space_group_name_Hall           '-P 2ybc'
loop_
_symmetry_equiv_pos_site_id
_symmetry_equiv_pos_as_xyz
1 x,y,z
2 -x,1/2+y,1/2-z
3 -x,-y,-z
4 x,1/2-y,1/2+z
_cell_length_a                   11.185(2)
_cell_length_b                   8.9570(18)
_cell_length_c                   23.074(5)
_cell_angle_alpha                90
_cell_angle_beta                 94.70(3)
_cell_angle_gamma                90
_cell_volume                     2303.87
loop_
_atom_site_label
_atom_site_type_symbol
_atom_site_fract_x
_atom_site_fract_y
_atom_site_fract_z
Tb1 Tb 0.298099(15) 0.33959(2) 0.235033(8)
O1 O 0.6069(3) 0.0375(4) 0.20847(13)
O2 O 0.7047(3) -0.1233(4) 0.15875(14)
O3 O 0.4779(3) 0.3569(4) 0.18256(16)
O4 O 0.3705(3) 0.1527(3) 0.16739(16)
O5 O 0.1946(4) 0.3600(4) 0.13917(16)
O6 O 0.2547(3) 0.5747(4) 0.17626(13)
O7 O 0.0116(4) 0.8631(4) 0.15575(18)
H1 H -0.0145 0.8729 0.1877
O8 O -0.0186(3) 0.6206(4) 0.17267(16)
O9 O 0.4514(3) 0.1804(4) 0.28698(16)
H2 H 0.4535 0.0964 0.2700
H3 H 0.5195 0.2224 0.2870
O10 O 0.1077(3) 0.4364(5) 0.25422(18)
H4 H 0.1085 0.5310 0.2514
H5 H 0.0544 0.4009 0.2297
O11 O 0.1835(3) 0.1255(4) 0.24969(18)
H6 H 0.2184 0.0739 0.2770
H7 H 0.1144 0.1512 0.2589
N1 N 0.6677(3) 0.1123(5) -0.04910(17)
H8 H 0.7185 0.0502 -0.0614
N2 N 0.5366(4) 0.2996(5) -0.05024(18)
N3 N 0.1660(3) 0.5958(5) -0.07708(16)
H9 H 0.2169 0.5361 -0.0908
N4 N 0.0298(4) 0.7675(5) -0.07348(16)
C1 C 0.6075(4) 0.2176(6) -0.0805(2)
H10 H 0.6148 0.2318 -0.1200
C2 C 0.5520(4) 0.2397(5) 0.00522(18)
C3 C 0.6334(4) 0.1216(5) 0.00620(19)
C4 C 0.6638(4) 0.0394(5) 0.05671(18)
H11 H 0.7189 -0.0383 0.0571
C5 C 0.6089(4) 0.0781(5) 0.10587(18)
C6 C 0.5262(4) 0.1972(5) 0.10532(19)
C7 C 0.4991(4) 0.2806(5) 0.05498(19)
H12 H 0.4468 0.3614 0.0548
C8 C 0.6422(4) -0.0073(5) 0.16073(18)
C9 C 0.4553(4) 0.2354(5) 0.15565(18)
C10 C 0.0962(5) 0.6910(6) -0.1077(2)
H13 H 0.0941 0.7025 -0.1479
C11 C 0.0568(4) 0.7206(5) -0.01671(18)
C12 C 0.1437(4) 0.6083(5) -0.01959(18)
C13 C 0.1884(4) 0.5327(5) 0.02999(19)
H14 H 0.2442 0.4562 0.0280
C14 C 0.1476(3) 0.5744(5) 0.08194(18)
C15 C 0.0613(4) 0.6896(5) 0.08491(19)
C16 C 0.0152(4) 0.7619(5) 0.03564(19)
H15 H -0.0422 0.8364 0.0375
C17 C 0.2014(4) 0.4994(5) 0.13604(18)
C18 C 0.0149(4) 0.7268(5) 0.14305(19)
Tb1A Tb 0.701901(15) -0.16041(2) 0.264967(8)
O1A O 0.3931(3) 0.5375(4) 0.29153(13)
O2A O 0.2953(3) 0.3767(4) 0.34125(14)
O12 O 0.2594(6) -0.1613(5) 0.2634(3)
H16 H 0.3042 -0.1873 0.2932
H17 H 0.1868 -0.1816 0.2685
O13 O 0.3265(4) 0.4002(5) -0.1075(2)
H18 H 0.3920 0.4178 -0.0873
H19 H 0.3014 0.3137 -0.0994
O14 O -0.1563(3) 0.9532(4) -0.10451(14)
H20 H -0.1063 1.0064 -0.1211
H21 H -0.1910 0.8934 -0.1291
loop_
_geom_bond_atom_site_label_1
_geom_bond_atom_site_label_2
_geom_bond_site_symmetry_1
_geom_bond_site_symmetry_2
Tb1 O3 1_555 1_555
O1 C8 1_555 1_555
O2 C8 1_555 1_555
O3 C9 1_555 1_555
O4 Tb1 1_555 1_555
O5 Tb1 1_555 1_555
O6 Tb1 1_555 1_555
O7 H1 1_555 1_555
O8 C18 1_555 1_555
O9 Tb1 1_555 1_555
H2 O9 1_555 1_555
H3 O9 1_555 1_555
O10 Tb1 1_555 1_555
H4 O10 1_555 1_555
H5 O10 1_555 1_555
O11 Tb1 1_555 1_555
H6 O11 1_555 1_555
H7 O11 1_555 1_555
N1 H8 1_555 1_555
N2 C1 1_555 1_555
N3 H9 1_555 1_555
N4 C10 1_555 1_555
C1 N1 1_555 1_555
H10 C1 1_555 1_555
C2 N2 1_555 1_555
C3 N1 1_555 1_555
C4 C3 1_555 1_555
H11 C4 1_555 1_555
C5 C4 1_555 1_555
C6 C5 1_555 1_555
C7 C2 1_555 1_555
H12 C7 1_555 1_555
C8 C5 1_555 1_555
C9 O4 1_555 1_555
C10 N3 1_555 1_555
H13 C10 1_555 1_555
C11 N4 1_555 1_555
C12 N3 1_555 1_555
C13 C12 1_555 1_555
H14 C13 1_555 1_555
C14 C13 1_555 1_555
C15 C14 1_555 1_555
C16 C11 1_555 1_555
H15 C16 1_555 1_555
C17 O5 1_555 1_555
C18 O7 1_555 1_555
O12 H16 1_555 1_555
H17 O12 1_555 1_555
O13 H18 1_555 1_555
H19 O13 1_555 1_555
O14 H20 1_555 1_555
H21 O14 1_555 1_555
Tb1A O1 1_555 1_555
O1A Tb1 1_555 1_555
O2A Tb1 1_555 1_555
O2 Tb1A 1_555 1_555
O6 C17 1_555 1_555
C2 C3 1_555 1_555
C6 C7 1_555 1_555
C6 C9 1_555 1_555
C11 C12 1_555 1_555
C14 C17 1_555 1_555
C15 C16 1_555 1_555
C15 C18 1_555 1_555

#END
