
#######################################################################
#
#                 Cambridge Crystallographic Data Centre
#                                CCDC 
#
#######################################################################
#
# If this CIF has been generated from an entry in the Cambridge 
# Structural Database, then it will include bibliographic, chemical, 
# crystal, experimental, refinement or atomic coordinate data resulting 
# from the CCDC's data processing and validation procedures.
#
#######################################################################

data_DEZFEV
_symmetry_cell_setting           triclinic
_symmetry_space_group_name_H-M   'P -1'
_symmetry_Int_Tables_number      2
_space_group_name_Hall           '-P 1'
loop_
_symmetry_equiv_pos_site_id
_symmetry_equiv_pos_as_xyz
1 x,y,z
2 -x,-y,-z
_cell_length_a                   6.482(2)
_cell_length_b                   9.848(3)
_cell_length_c                   10.907(4)
_cell_angle_alpha                100.004(3)
_cell_angle_beta                 106.484(3)
_cell_angle_gamma                106.293(3)
_cell_volume                     616.067
loop_
_atom_site_label
_atom_site_type_symbol
_atom_site_fract_x
_atom_site_fract_y
_atom_site_fract_z
Ho1 Ho 0.32330(3) 0.39741(2) 0.190253(19)
O1 O 0.7057(6) 0.4607(4) 0.2172(4)
O2 O 1.0214(6) 0.4863(4) 0.1697(4)
O3 O 0.8391(6) 0.6912(4) 0.0434(3)
O4 O 1.1562(7) 0.8850(4) 0.0892(4)
O5 O 0.4740(6) 0.6026(4) 0.3855(3)
O6 O 0.6015(7) 0.6752(4) 0.6084(3)
O7 O 0.4177(6) 0.6081(4) 0.1003(4)
H1 H 0.3701 0.6729 0.1327
H2 H 0.5624 0.6442 0.1209
O8 O 0.0137(6) 0.1924(4) 0.1665(4)
H3 H 0.0583 0.1447 0.2202
H4 H -0.0899 0.2205 0.1840
O9 O 0.4194(6) 0.1809(4) 0.1329(4)
H5 H 0.3718 0.1204 0.1743
H6 H 0.3555 0.1410 0.0496
N1 N 1.2406(8) 0.8984(5) 0.6780(4)
H7 H 1.2247 0.8459 0.7323
N2 N 1.3356(7) 1.0933(4) 0.5999(4)
C1 C 1.3367(8) 1.0415(5) 0.7074(5)
H8 H 1.4000 1.1021 0.7941
C2 C 1.1697(8) 0.8494(5) 0.5404(5)
C3 C 1.0580(9) 0.7079(5) 0.4548(5)
H9 H 1.0160 0.6273 0.4876
C4 C 1.0105(8) 0.6896(5) 0.3199(5)
C5 C 1.0721(8) 0.8129(5) 0.2704(5)
C6 C 1.1838(8) 0.9548(5) 0.3553(5)
H10 H 1.2262 1.0359 0.3231
C7 C 1.2291(8) 0.9698(5) 0.4897(5)
C8 C 0.9039(8) 0.5351(5) 0.2281(5)
C9 C 1.0191(8) 0.7961(5) 0.1239(5)
C10 C 0.5213(8) 0.5807(5) 0.4983(5)
O5A O 0.5260(6) 0.3974(4) 0.6145(3)
C10A C 0.4787(8) 0.4193(5) 0.5017(5)
O6A O 0.3985(7) 0.3248(4) 0.3916(3)
Ho1A Ho 0.67670(3) 0.60259(2) -0.190253(19)
O1A O 0.2943(6) 0.5393(4) -0.2172(4)
O2A O -0.0214(6) 0.5137(4) -0.1697(4)
O3A O 0.1609(6) 0.3088(4) -0.0434(3)
O4A O -0.1562(7) 0.1150(4) -0.0892(4)
O7A O 0.5823(6) 0.3919(4) -0.1003(4)
H1A H 0.6299 0.3271 -0.1327
H2A H 0.4376 0.3558 -0.1209
O8A O 0.9863(6) 0.8076(4) -0.1665(4)
H3A H 0.9417 0.8553 -0.2202
H4A H 1.0899 0.7795 -0.1840
O9A O 0.5806(6) 0.8191(4) -0.1329(4)
H5A H 0.6282 0.8796 -0.1743
H6A H 0.6445 0.8590 -0.0496
N1A N -0.2406(8) 0.1016(5) -0.6780(4)
H7A H -0.2247 0.1541 -0.7323
N2A N -0.3356(7) -0.0933(4) -0.5999(4)
C1A C -0.3367(8) -0.0415(5) -0.7074(5)
H8A H -0.4000 -0.1021 -0.7941
C2A C -0.1697(8) 0.1506(5) -0.5404(5)
C3A C -0.0580(9) 0.2921(5) -0.4548(5)
H9A H -0.0160 0.3727 -0.4876
C4A C -0.0105(8) 0.3104(5) -0.3199(5)
C5A C -0.0721(8) 0.1871(5) -0.2704(5)
C6A C -0.1838(8) 0.0452(5) -0.3553(5)
H10A H -0.2262 -0.0359 -0.3231
C7A C -0.2291(8) 0.0302(5) -0.4897(5)
C8A C 0.0961(8) 0.4649(5) -0.2281(5)
C9A C -0.0191(8) 0.2039(5) -0.1239(5)
Ho1_2 Ho 1.32330(3) 0.39741(2) 0.190253(19)
Ho1A_2 Ho -0.32330(3) 0.60259(2) -0.190253(19)
Ho1A_3 Ho 0.67670(3) 0.60259(2) 0.809747(19)
O2_2 O 0.0214(6) 0.4863(4) 0.1697(4)
O2A_2 O 0.9786(6) 0.5137(4) -0.1697(4)
O5A_2 O 0.5260(6) 0.3974(4) -0.3855(3)
O6_2 O 0.6015(7) 0.6752(4) -0.3916(3)
loop_
_geom_bond_atom_site_label_1
_geom_bond_atom_site_label_2
_geom_bond_site_symmetry_1
_geom_bond_site_symmetry_2
Ho1 O1 1_555 1_555
O1 C8 1_555 1_555
O2 C8 1_555 1_555
O3 C9 1_555 1_555
O4 C9 1_555 1_555
O5 Ho1 1_555 1_555
O6 C10 1_555 1_555
O7 Ho1 1_555 1_555
H1 O7 1_555 1_555
H2 O7 1_555 1_555
O8 Ho1 1_555 1_555
H3 O8 1_555 1_555
H4 O8 1_555 1_555
O9 Ho1 1_555 1_555
H5 O9 1_555 1_555
H6 O9 1_555 1_555
N1 H7 1_555 1_555
N2 C1 1_555 1_555
C1 N1 1_555 1_555
H8 C1 1_555 1_555
C2 N1 1_555 1_555
C3 C2 1_555 1_555
H9 C3 1_555 1_555
C4 C3 1_555 1_555
C5 C4 1_555 1_555
C6 C5 1_555 1_555
H10 C6 1_555 1_555
C7 N2 1_555 1_555
C8 C4 1_555 1_555
C9 C5 1_555 1_555
C10 O5 1_555 1_555
O5A C10A 1_555 1_555
C10A C10 1_555 1_555
O6A Ho1 1_555 1_555
Ho1A O3 1_555 1_555
O1A Ho1A 1_555 1_555
O2A C8A 1_555 1_555
O3A Ho1 1_555 1_555
O4A C9A 1_555 1_555
O7A Ho1A 1_555 1_555
H1A O7A 1_555 1_555
H2A O7A 1_555 1_555
O8A Ho1A 1_555 1_555
H3A O8A 1_555 1_555
H4A O8A 1_555 1_555
O9A Ho1A 1_555 1_555
H5A O9A 1_555 1_555
H6A O9A 1_555 1_555
N1A H7A 1_555 1_555
N2A C1A 1_555 1_555
C1A N1A 1_555 1_555
H8A C1A 1_555 1_555
C2A N1A 1_555 1_555
C3A C2A 1_555 1_555
H9A C3A 1_555 1_555
C4A C3A 1_555 1_555
C5A C4A 1_555 1_555
C6A C5A 1_555 1_555
H10A C6A 1_555 1_555
C7A N2A 1_555 1_555
C8A O1A 1_555 1_555
C9A O3A 1_555 1_555
Ho1_2 O2 1_555 1_555
Ho1A_2 O2A 1_555 1_555
Ho1A_3 O6 1_555 1_555
O2_2 Ho1 1_555 1_555
O2A_2 Ho1A 1_555 1_555
O5A_2 Ho1A 1_555 1_555
O6_2 Ho1A 1_555 1_555
C2 C7 1_555 1_555
C6 C7 1_555 1_555
O5A Ho1A_3 1_555 1_555
C10A O6A 1_555 1_555
C2A C7A 1_555 1_555
C4A C8A 1_555 1_555
C5A C9A 1_555 1_555
C6A C7A 1_555 1_555

#END
