
#######################################################################
#
#                 Cambridge Crystallographic Data Centre
#                                CCDC 
#
#######################################################################
#
# If this CIF has been generated from an entry in the Cambridge 
# Structural Database, then it will include bibliographic, chemical, 
# crystal, experimental, refinement or atomic coordinate data resulting 
# from the CCDC's data processing and validation procedures.
#
#######################################################################

data_DEZFIZ
_symmetry_cell_setting           triclinic
_symmetry_space_group_name_H-M   'P -1'
_symmetry_Int_Tables_number      2
_space_group_name_Hall           '-P 1'
loop_
_symmetry_equiv_pos_site_id
_symmetry_equiv_pos_as_xyz
1 x,y,z
2 -x,-y,-z
_cell_length_a                   6.5059(6)
_cell_length_b                   9.8342(8)
_cell_length_c                   10.9444(9)
_cell_angle_alpha                99.882(7)
_cell_angle_beta                 106.505(7)
_cell_angle_gamma                106.190(7)
_cell_volume                     620.364
loop_
_atom_site_label
_atom_site_type_symbol
_atom_site_fract_x
_atom_site_fract_y
_atom_site_fract_z
Tb1 Tb 0.32318(4) 0.39717(2) 0.68970(2)
O1 O 0.1588(6) 0.3054(4) 0.4548(3)
O2 O -0.1609(7) 0.1160(5) 0.4098(4)
O3 O -0.0210(6) 0.5123(4) 0.3297(4)
O4 O 0.2913(7) 0.5384(4) 0.2807(4)
O5 O 0.3956(7) 0.3249(4) 0.8921(3)
O6 O 0.5229(7) 0.3969(4) 1.1138(3)
O7 O 0.0117(7) 0.1894(4) 0.6659(4)
H1 H -0.0461 0.1271 0.5771
H2 H -0.1066 0.2208 0.6836
O8 O 0.4216(6) 0.1786(4) 0.6339(4)
H3 H 0.3676 0.1105 0.6806
H4 H 0.3509 0.1331 0.5402
O9 O 0.4187(7) 0.6099(4) 0.5994(4)
H5 H 0.3483 0.5784 0.5046
H6 H 0.5816 0.6510 0.6233
N1 N -0.2381(8) 0.1030(5) -0.1768(4)
N2 N -0.3334(7) -0.0918(5) -0.0978(4)
H7 H -0.3869 -0.1821 -0.0977
C1 C -0.3336(9) -0.0402(6) -0.2051(5)
H8 H -0.3961 -0.1012 -0.2912
C2 C -0.1683(9) 0.1513(6) -0.0395(5)
C3 C -0.0558(9) 0.2917(6) 0.0463(5)
H9 H -0.0106 0.3724 0.0141
C4 C -0.0120(8) 0.3097(5) 0.1798(5)
C5 C -0.0761(9) 0.1862(6) 0.2287(5)
C6 C -0.1856(8) 0.0448(5) 0.1450(5)
H10 H -0.2274 -0.0362 0.1773
C7 C -0.2301(8) 0.0297(6) 0.0110(5)
C8 C 0.0941(8) 0.4634(5) 0.2711(5)
C9 C -0.0218(9) 0.2031(6) 0.3753(5)
C10 C 0.4763(9) 0.4183(6) 1.0015(5)
O5A O 0.6044(7) 0.6751(4) 1.1079(3)
C10A C 0.5237(9) 0.5817(6) 0.9985(5)
O6A O 0.4771(7) 0.6031(4) 0.8862(3)
Tb1A Tb -0.32318(4) 0.60283(2) 0.31030(2)
O1A O -0.1588(6) 0.6946(4) 0.5452(3)
O2A O 0.1609(7) 0.8840(5) 0.5902(4)
O3A O 0.0210(6) 0.4877(4) 0.6703(4)
O4A O -0.2913(7) 0.4616(4) 0.7193(4)
O7A O -0.0117(7) 0.8106(4) 0.3341(4)
H1A H 0.0461 0.8729 0.4229
H2A H 0.1066 0.7792 0.3164
O8A O -0.4216(6) 0.8214(4) 0.3661(4)
H3A H -0.3676 0.8895 0.3194
H4A H -0.3509 0.8669 0.4598
O9A O -0.4187(7) 0.3901(4) 0.4006(4)
H5A H -0.3483 0.4216 0.4954
H6A H -0.5816 0.3490 0.3767
N1A N 0.2381(8) 0.8970(5) 1.1768(4)
N2A N 0.3334(7) 1.0918(5) 1.0978(4)
H7A H 0.3869 1.1821 1.0977
C1A C 0.3336(9) 1.0402(6) 1.2051(5)
H8A H 0.3961 1.1012 1.2912
C2A C 0.1683(9) 0.8487(6) 1.0395(5)
C3A C 0.0558(9) 0.7083(6) 0.9537(5)
H9A H 0.0106 0.6276 0.9859
C4A C 0.0120(8) 0.6903(5) 0.8202(5)
C5A C 0.0761(9) 0.8138(6) 0.7713(5)
C6A C 0.1856(8) 0.9552(5) 0.8550(5)
H10A H 0.2274 1.0362 0.8227
C7A C 0.2301(8) 0.9703(6) 0.9890(5)
C8A C -0.0941(8) 0.5366(5) 0.7289(5)
C9A C 0.0218(9) 0.7969(6) 0.6247(5)
Tb1_2 Tb -0.67682(4) 0.39717(2) 0.68970(2)
Tb1A_2 Tb 0.67682(4) 0.60283(2) 0.31030(2)
Tb1A_3 Tb 0.67682(4) 0.60283(2) 1.31030(2)
O4_2 O -0.7087(7) 0.5384(4) 0.2807(4)
O4A_2 O 0.7087(7) 0.4616(4) 0.7193(4)
O5A_2 O -0.3956(7) 0.6751(4) 0.1079(3)
O6_2 O -0.4771(7) 0.3969(4) 0.1138(3)
loop_
_geom_bond_atom_site_label_1
_geom_bond_atom_site_label_2
_geom_bond_site_symmetry_1
_geom_bond_site_symmetry_2
Tb1 O1 1_555 1_555
O1 C9 1_555 1_555
O2 C9 1_555 1_555
O3 C8 1_555 1_555
O4 C8 1_555 1_555
O5 Tb1 1_555 1_555
O6 C10 1_555 1_555
O7 Tb1 1_555 1_555
H1 O7 1_555 1_555
H2 O7 1_555 1_555
O8 Tb1 1_555 1_555
H3 O8 1_555 1_555
H4 O8 1_555 1_555
O9 Tb1 1_555 1_555
H5 O9 1_555 1_555
H6 O9 1_555 1_555
N1 C1 1_555 1_555
N2 H7 1_555 1_555
C1 N2 1_555 1_555
H8 C1 1_555 1_555
C2 N1 1_555 1_555
C3 C2 1_555 1_555
H9 C3 1_555 1_555
C4 C3 1_555 1_555
C5 C4 1_555 1_555
C6 C5 1_555 1_555
H10 C6 1_555 1_555
C7 N2 1_555 1_555
C8 C4 1_555 1_555
C9 C5 1_555 1_555
C10 O5 1_555 1_555
O5A C10A 1_555 1_555
C10A C10 1_555 1_555
O6A Tb1 1_555 1_555
Tb1A O3 1_555 1_555
O1A Tb1A 1_555 1_555
O2A C9A 1_555 1_555
O3A Tb1 1_555 1_555
O4A C8A 1_555 1_555
O7A Tb1A 1_555 1_555
H1A O7A 1_555 1_555
H2A O7A 1_555 1_555
O8A Tb1A 1_555 1_555
H3A O8A 1_555 1_555
H4A O8A 1_555 1_555
O9A Tb1A 1_555 1_555
H5A O9A 1_555 1_555
H6A O9A 1_555 1_555
N1A C1A 1_555 1_555
N2A H7A 1_555 1_555
C1A N2A 1_555 1_555
H8A C1A 1_555 1_555
C2A N1A 1_555 1_555
C3A C2A 1_555 1_555
H9A C3A 1_555 1_555
C4A C3A 1_555 1_555
C5A C4A 1_555 1_555
C6A C5A 1_555 1_555
H10A C6A 1_555 1_555
C7A N2A 1_555 1_555
C8A O3A 1_555 1_555
C9A O1A 1_555 1_555
Tb1_2 O4A 1_555 1_555
Tb1A_2 O4 1_555 1_555
Tb1A_3 O6 1_555 1_555
O4_2 Tb1A 1_555 1_555
O4A_2 Tb1 1_555 1_555
O5A_2 Tb1A 1_555 1_555
O6_2 Tb1A 1_555 1_555
C2 C7 1_555 1_555
C6 C7 1_555 1_555
O5A Tb1A_3 1_555 1_555
C10A O6A 1_555 1_555
C2A C7A 1_555 1_555
C4A C8A 1_555 1_555
C5A C9A 1_555 1_555
C6A C7A 1_555 1_555

#END
