
#######################################################################
#
#                 Cambridge Crystallographic Data Centre
#                                CCDC 
#
#######################################################################
#
# If this CIF has been generated from an entry in the Cambridge 
# Structural Database, then it will include bibliographic, chemical, 
# crystal, experimental, refinement or atomic coordinate data resulting 
# from the CCDC's data processing and validation procedures.
#
#######################################################################

data_DEZGEW
_symmetry_cell_setting           monoclinic
_symmetry_space_group_name_H-M   'P 21/c'
_symmetry_Int_Tables_number      14
_space_group_name_Hall           '-P 2ybc'
loop_
_symmetry_equiv_pos_site_id
_symmetry_equiv_pos_as_xyz
1 x,y,z
2 -x,1/2+y,1/2-z
3 -x,-y,-z
4 x,1/2-y,1/2+z
_cell_length_a                   11.241(2)
_cell_length_b                   9.0060(18)
_cell_length_c                   23.169(5)
_cell_angle_alpha                90
_cell_angle_beta                 94.80(3)
_cell_angle_gamma                90
_cell_volume                     2337.32
loop_
_atom_site_label
_atom_site_type_symbol
_atom_site_fract_x
_atom_site_fract_y
_atom_site_fract_z
Sm1 Sm 0.202491(12) 0.337852(16) 0.264867(6)
O1 O 0.2049(2) 0.3771(2) 0.15771(9)
O2 O 0.10716(19) 0.5383(2) 0.20724(9)
O3 O -0.0210(2) 0.8542(2) 0.18243(11)
O4 O -0.12876(19) 0.6511(2) 0.16642(10)
O5 O 0.3040(2) 0.3604(2) 0.36255(11)
O6 O 0.24798(19) 0.5738(2) 0.32424(9)
O7 O 0.4861(3) 0.8609(3) 0.34428(12)
H1 H 0.5122 0.8703 0.3125
O8 O 0.5190(2) 0.6199(3) 0.32817(10)
O9 O 0.3975(2) 0.4324(3) 0.24671(12)
H2 H 0.3973 0.5265 0.2491
H3 H 0.4494 0.3972 0.2718
O10 O 0.3177(2) 0.1196(3) 0.24951(11)
H4 H 0.2872 0.0739 0.2197
H5 H 0.3889 0.1445 0.2443
O11 O 0.0467(2) 0.1750(3) 0.21288(11)
H6 H 0.0653 0.1589 0.1786
H7 H 0.0433 0.0929 0.2308
N1 N 0.3350(2) 0.5978(3) 0.57761(11)
H8 H 0.2844 0.5388 0.5915
N2 N 0.4711(2) 0.7699(3) 0.57329(11)
N3 N 0.1670(2) 0.6129(3) -0.05018(11)
H9 H 0.2168 0.5509 -0.0629
N4 N 0.0360(2) 0.8004(3) -0.05064(12)
C1 C 0.1068(3) 0.7194(4) -0.08104(14)
H10 H 0.1142 0.7349 -0.1203
C2 C 0.1337(3) 0.6222(4) 0.00580(13)
C3 C 0.1641(3) 0.5404(3) 0.05542(13)
H11 H 0.2195 0.4637 0.0555
C4 C 0.1091(3) 0.5769(3) 0.10508(13)
C5 C 0.0260(3) 0.6961(3) 0.10410(13)
C6 C -0.0009(3) 0.7786(4) 0.05466(13)
H12 H -0.0531 0.8586 0.0548
C7 C 0.0514(3) 0.7399(4) 0.00462(13)
C8 C 0.1417(3) 0.4926(3) 0.15958(12)
C9 C -0.0443(3) 0.7340(4) 0.15468(13)
C10 C 0.4047(3) 0.6932(4) 0.60772(15)
H13 H 0.4071 0.7051 0.6477
C11 C 0.3573(3) 0.6093(4) 0.51997(14)
C12 C 0.3117(3) 0.5333(3) 0.47077(13)
H14 H 0.2556 0.4581 0.4730
C13 C 0.3529(2) 0.5738(3) 0.41858(13)
C14 C 0.4382(3) 0.6890(3) 0.41526(13)
C15 C 0.4840(3) 0.7617(3) 0.46439(13)
H15 H 0.5408 0.8363 0.4625
C16 C 0.4430(3) 0.7202(4) 0.51667(13)
C17 C 0.2990(2) 0.4993(3) 0.36452(13)
C18 C 0.4842(3) 0.7256(4) 0.35749(14)
Sm1A Sm -0.202491(12) 0.837852(16) 0.235133(6)
O3A O 0.0210(2) 0.3542(2) 0.31757(11)
O4A O 0.12876(19) 0.1511(2) 0.33358(10)
O12 O 0.1752(3) 0.1017(3) 0.10655(13)
H16 H 0.1598 0.1620 0.0787
H17 H 0.1194 0.0381 0.1069
O13 O 0.34416(19) 0.0463(2) 0.39586(9)
H18 H 0.4042 0.0173 0.3789
H19 H 0.2862 0.0634 0.3708
O14 O 0.2436(4) -0.1648(3) 0.23512(19)
H20 H 0.2588 -0.2081 0.2675
H21 H 0.1792 -0.1992 0.2185
loop_
_geom_bond_atom_site_label_1
_geom_bond_atom_site_label_2
_geom_bond_site_symmetry_1
_geom_bond_site_symmetry_2
Sm1 O1 1_555 1_555
O1 C8 1_555 1_555
O2 Sm1 1_555 1_555
O3 C9 1_555 1_555
O4 C9 1_555 1_555
O5 Sm1 1_555 1_555
O6 Sm1 1_555 1_555
O7 H1 1_555 1_555
O8 C18 1_555 1_555
O9 Sm1 1_555 1_555
H2 O9 1_555 1_555
H3 O9 1_555 1_555
O10 Sm1 1_555 1_555
H4 O10 1_555 1_555
H5 O10 1_555 1_555
O11 Sm1 1_555 1_555
H6 O11 1_555 1_555
H7 O11 1_555 1_555
N1 H8 1_555 1_555
N2 C10 1_555 1_555
N3 H9 1_555 1_555
N4 C1 1_555 1_555
C1 N3 1_555 1_555
H10 C1 1_555 1_555
C2 N3 1_555 1_555
C3 C2 1_555 1_555
H11 C3 1_555 1_555
C4 C3 1_555 1_555
C5 C4 1_555 1_555
C6 C5 1_555 1_555
H12 C6 1_555 1_555
C7 N4 1_555 1_555
C8 O2 1_555 1_555
C9 C5 1_555 1_555
C10 N1 1_555 1_555
H13 C10 1_555 1_555
C11 N1 1_555 1_555
C12 C11 1_555 1_555
H14 C12 1_555 1_555
C13 C12 1_555 1_555
C14 C13 1_555 1_555
C15 C14 1_555 1_555
H15 C15 1_555 1_555
C16 N2 1_555 1_555
C17 O5 1_555 1_555
C18 O7 1_555 1_555
O12 H16 1_555 1_555
H17 O12 1_555 1_555
O13 H18 1_555 1_555
H19 O13 1_555 1_555
O14 H20 1_555 1_555
H21 O14 1_555 1_555
Sm1A O3 1_555 1_555
O3A Sm1 1_555 1_555
O4A Sm1 1_555 1_555
O4 Sm1A 1_555 1_555
O6 C17 1_555 1_555
C2 C7 1_555 1_555
C4 C8 1_555 1_555
C6 C7 1_555 1_555
C11 C16 1_555 1_555
C13 C17 1_555 1_555
C14 C18 1_555 1_555
C15 C16 1_555 1_555

#END
