
#######################################################################
#
#                 Cambridge Crystallographic Data Centre
#                                CCDC 
#
#######################################################################
#
# If this CIF has been generated from an entry in the Cambridge 
# Structural Database, then it will include bibliographic, chemical, 
# crystal, experimental, refinement or atomic coordinate data resulting 
# from the CCDC's data processing and validation procedures.
#
#######################################################################

data_DEZHIB
_symmetry_cell_setting           triclinic
_symmetry_space_group_name_H-M   'P -1'
_symmetry_Int_Tables_number      2
_space_group_name_Hall           '-P 1'
loop_
_symmetry_equiv_pos_site_id
_symmetry_equiv_pos_as_xyz
1 x,y,z
2 -x,-y,-z
_cell_length_a                   7.569(2)
_cell_length_b                   9.675(3)
_cell_length_c                   20.971(6)
_cell_angle_alpha                89.878(6)
_cell_angle_beta                 85.762(6)
_cell_angle_gamma                68.397(6)
_cell_volume                     1423.41
loop_
_atom_site_label
_atom_site_type_symbol
_atom_site_fract_x
_atom_site_fract_y
_atom_site_fract_z
Ag1 Ag 0.63704(15) 0.05149(12) 0.45551(4)
Ag2 Ag 1.18587(16) -0.00032(13) 0.95022(4)
O1 O 0.4544(14) 0.3320(11) 0.4616(4)
O2 O 0.3068(16) 0.2401(12) 0.5373(5)
N1 N 0.5613(14) 0.0375(12) 0.3571(4)
N2 N 0.2918(16) 0.0093(13) 0.0417(5)
N3 N 0.7935(14) 0.0391(13) 0.5418(5)
N4 N 1.0981(14) 0.0125(12) 0.8544(4)
N5 N 0.1498(16) 0.5060(11) 0.6009(5)
N6 N -0.0348(17) 0.5009(12) 0.6134(6)
N7 N -0.0669(19) 0.4972(13) 0.6759(6)
C1 C 0.5988(18) -0.0880(13) 0.3254(5)
H1 H 0.6598 -0.1759 0.3461
C2 C 0.5544(18) -0.0990(13) 0.2637(5)
H2 H 0.5884 -0.1920 0.2438
C3 C 0.4600(16) 0.0269(13) 0.2314(5)
C4 C 0.4119(18) 0.1618(13) 0.2636(5)
H3 H 0.3434 0.2506 0.2447
C5 C 0.4696(18) 0.1599(15) 0.3253(5)
H4 H 0.4421 0.2512 0.3460
C6 C 0.390(2) -0.1117(17) 0.0712(6)
H5 H 0.4243 -0.2032 0.0500
C7 C 0.443(2) -0.1086(15) 0.1303(6)
H6 H 0.5067 -0.1985 0.1493
C8 C 0.4072(16) 0.0237(14) 0.1651(5)
C9 C 0.313(2) 0.1478(15) 0.1319(6)
H7 H 0.2843 0.2417 0.1504
C10 C 0.262(2) 0.1343(17) 0.0716(6)
H8 H 0.2014 0.2216 0.0503
C11 C 0.8728(18) -0.0896(15) 0.5711(6)
H9 H 0.8841 -0.1774 0.5501
C12 C 0.9382(16) -0.0977(14) 0.6309(5)
H10 H 0.9882 -0.1896 0.6498
C13 C 0.9311(16) 0.0293(14) 0.6636(6)
C14 C 0.8592(18) 0.1600(14) 0.6311(6)
H11 H 0.8542 0.2489 0.6494
C15 C 0.7959(19) 0.1590(14) 0.5723(6)
H12 H 0.7505 0.2490 0.5516
C16 C 1.1363(18) -0.1079(14) 0.8190(5)
H13 H 1.2009 -0.1993 0.8366
C17 C 1.087(2) -0.1067(14) 0.7590(6)
H14 H 1.1193 -0.1966 0.7367
C18 C 0.9905(17) 0.0250(14) 0.7291(5)
C19 C 0.9481(19) 0.1492(14) 0.7668(6)
H15 H 0.8812 0.2418 0.7505
C20 C 1.003(2) 0.1406(15) 0.8291(6)
H16 H 0.9709 0.2277 0.8534
C21 C 0.338(2) 0.3412(16) 0.5086(6)
C22 C 0.2292(18) 0.4983(13) 0.5356(5)
H17 H 0.3144 0.5528 0.5332
H18 H 0.1263 0.5478 0.5088
C23 C 0.227(2) 0.5020(13) 0.6579(6)
C24 C 0.096(2) 0.4961(15) 0.7073(8)
C25 C 0.128(3) 0.4956(14) 0.7720(7)
H19 H 0.0355 0.4975 0.8040
C26 C 0.308(3) 0.4921(16) 0.7862(9)
H20 H 0.3397 0.4873 0.8284
C27 C 0.437(2) 0.4960(12) 0.7367(6)
H21 H 0.5548 0.4949 0.7476
C28 C 0.4069(19) 0.5013(13) 0.6728(7)
H22 H 0.4986 0.5042 0.6413
Ag1A Ag 0.36296(15) -0.05149(12) 0.54449(4)
Ag2_2 Ag 0.18587(16) -0.00032(13) -0.04978(4)
O2A O 0.6932(16) -0.2401(12) 0.4627(5)
N2_2 N 1.2918(16) 0.0093(13) 1.0417(5)
O3 O 0.147(2) 0.7134(19) 0.9913(8)
O4 O 0.331(2) 0.4962(14) 0.9505(7)
O5 O 0.394(2) 0.6960(14) 0.9316(6)
N8 N 0.286(3) 0.636(3) 0.9588(8)
O6 O 0.718(2) 0.4895(13) 0.8654(7)
H23 H 0.7440 0.5394 0.8351
H24 H 0.6239 0.5510 0.8880
O7 O 0.958(3) 0.616(2) 0.0688(8)
H25 H 0.9795 0.6227 0.0287
H26 H 0.8599 0.5928 0.0728
loop_
_geom_bond_atom_site_label_1
_geom_bond_atom_site_label_2
_geom_bond_site_symmetry_1
_geom_bond_site_symmetry_2
Ag1 O1 1_555 1_555
Ag2 N4 1_555 1_555
O1 C21 1_555 1_555
O2 C21 1_555 1_555
N1 Ag1 1_555 1_555
N2 C6 1_555 1_555
N3 Ag1 1_555 1_555
N4 C16 1_555 1_555
N5 N6 1_555 1_555
N6 N7 1_555 1_555
N7 C24 1_555 1_555
C1 N1 1_555 1_555
H1 C1 1_555 1_555
C2 C1 1_555 1_555
H2 C2 1_555 1_555
C3 C2 1_555 1_555
C4 C3 1_555 1_555
H3 C4 1_555 1_555
C5 N1 1_555 1_555
H4 C5 1_555 1_555
C6 H5 1_555 1_555
C7 C6 1_555 1_555
H6 C7 1_555 1_555
C8 C3 1_555 1_555
C9 C8 1_555 1_555
H7 C9 1_555 1_555
C10 N2 1_555 1_555
H8 C10 1_555 1_555
C11 N3 1_555 1_555
H9 C11 1_555 1_555
C12 C11 1_555 1_555
H10 C12 1_555 1_555
C13 C12 1_555 1_555
C14 C13 1_555 1_555
H11 C14 1_555 1_555
C15 N3 1_555 1_555
H12 C15 1_555 1_555
C16 H13 1_555 1_555
C17 C16 1_555 1_555
H14 C17 1_555 1_555
C18 C13 1_555 1_555
C19 C18 1_555 1_555
H15 C19 1_555 1_555
C20 N4 1_555 1_555
H16 C20 1_555 1_555
C21 C22 1_555 1_555
C22 N5 1_555 1_555
H17 C22 1_555 1_555
H18 C22 1_555 1_555
C23 N5 1_555 1_555
C24 C23 1_555 1_555
C25 C24 1_555 1_555
H19 C25 1_555 1_555
C26 C25 1_555 1_555
H20 C26 1_555 1_555
C27 C26 1_555 1_555
H21 C27 1_555 1_555
C28 C23 1_555 1_555
H22 C28 1_555 1_555
O3 N8 1_555 1_555
O4 N8 1_555 1_555
O5 N8 1_555 1_555
O6 H23 1_555 1_555
H24 O6 1_555 1_555
O7 H25 1_555 1_555
H26 O7 1_555 1_555
Ag1A Ag1 1_555 1_555
Ag2_2 N2 1_555 1_555
O2A Ag1 1_555 1_555
N2_2 Ag2 1_555 1_555
O2 Ag1A 1_555 1_555
C4 C5 1_555 1_555
C7 C8 1_555 1_555
C9 C10 1_555 1_555
C14 C15 1_555 1_555
C17 C18 1_555 1_555
C19 C20 1_555 1_555
C27 C28 1_555 1_555

#END
