
#######################################################################
#
#                 Cambridge Crystallographic Data Centre
#                                CCDC 
#
#######################################################################
#
# If this CIF has been generated from an entry in the Cambridge 
# Structural Database, then it will include bibliographic, chemical, 
# crystal, experimental, refinement or atomic coordinate data resulting 
# from the CCDC's data processing and validation procedures.
#
#######################################################################

data_DEZHOH
_symmetry_cell_setting           monoclinic
_symmetry_space_group_name_H-M   'P 21/c'
_symmetry_Int_Tables_number      14
_space_group_name_Hall           '-P 2ybc'
loop_
_symmetry_equiv_pos_site_id
_symmetry_equiv_pos_as_xyz
1 x,y,z
2 -x,1/2+y,1/2-z
3 -x,-y,-z
4 x,1/2-y,1/2+z
_cell_length_a                   10.410(2)
_cell_length_b                   11.930(2)
_cell_length_c                   17.980(4)
_cell_angle_alpha                90
_cell_angle_beta                 104.40(3)
_cell_angle_gamma                90
_cell_volume                     2162.81
loop_
_atom_site_label
_atom_site_type_symbol
_atom_site_fract_x
_atom_site_fract_y
_atom_site_fract_z
Cd1 Cd 0.699990(13) 0.771168(12) 0.153266(8)
O1 O 0.31875(17) 0.45845(14) 0.40384(9)
O2 O 0.41920(14) 0.42102(12) 0.31223(8)
O3 O 0.91865(15) 0.71935(13) 0.18039(9)
O4 O 0.90068(17) 0.85191(15) 0.25970(10)
N1 N 0.67439(16) 0.65140(14) 0.25542(9)
N2 N 0.56261(17) 0.66408(14) 0.27570(10)
N3 N 0.57144(17) 0.60763(14) 0.34127(10)
N4 N 0.48566(17) 0.70736(14) 0.08230(10)
N5 N 0.71099(17) 0.70806(14) 0.03050(9)
C1 C 0.7573(2) 0.58369(16) 0.30863(11)
C2 C 0.8856(2) 0.54359(19) 0.31437(13)
H1 H 0.9314 0.5612 0.2776
C3 C 0.9410(2) 0.4776(2) 0.37608(13)
H2 H 1.0264 0.4502 0.3815
C4 C 0.8720(3) 0.4501(2) 0.43151(13)
H3 H 0.9131 0.4044 0.4724
C5 C 0.7466(3) 0.48824(19) 0.42743(12)
H4 H 0.7013 0.4703 0.4644
C6 C 0.6906(2) 0.55589(17) 0.36426(11)
C7 C 0.4585(2) 0.59861(18) 0.37452(14)
H5 H 0.3933 0.6549 0.3517
H6 H 0.4871 0.6135 0.4292
C8 C 0.3939(2) 0.48300(17) 0.36204(12)
C9 C 0.3759(2) 0.7061(2) 0.10739(14)
H7 H 0.3783 0.7389 0.1546
C10 C 0.2577(2) 0.6581(2) 0.06647(15)
H8 H 0.1837 0.6574 0.0867
C11 C 0.2517(2) 0.6120(2) -0.00378(15)
H9 H 0.1736 0.5790 -0.0317
C12 C 0.3643(2) 0.61467(17) -0.03370(12)
C13 C 0.3667(3) 0.57072(19) -0.10755(13)
H10 H 0.2910 0.5366 -0.1374
C14 C 0.4751(3) 0.57744(18) -0.13480(13)
H11 H 0.4721 0.5504 -0.1837
C15 C 0.5950(2) 0.62532(17) -0.09004(11)
C16 C 0.7113(2) 0.63305(18) -0.11577(12)
H12 H 0.7121 0.6079 -0.1646
C17 C 0.8226(2) 0.6773(2) -0.06923(13)
H13 H 0.8999 0.6838 -0.0859
C18 C 0.8190(2) 0.71294(19) 0.00410(13)
H14 H 0.8962 0.7416 0.0361
C19 C 0.5988(2) 0.66582(15) -0.01587(11)
C20 C 0.4806(2) 0.66297(16) 0.01214(11)
C21 C 0.9680(2) 0.78032(19) 0.23707(13)
C22 C 1.1117(3) 0.7618(3) 0.27700(19)
H15 H 1.1652 0.8169 0.2599
H16 H 1.1381 0.6882 0.2650
H17 H 1.1235 0.7684 0.3315
Cd1A Cd 0.300010(13) 0.271168(12) 0.346734(8)
O1A O 0.68125(17) 0.95845(14) 0.09616(9)
O2A O 0.58080(14) 0.92102(12) 0.18777(8)
O5 O -0.0010(2) 0.51747(16) 0.12808(10)
H18 H -0.0146 0.5789 0.1489
H19 H 0.0365 0.4778 0.1667
loop_
_geom_bond_atom_site_label_1
_geom_bond_atom_site_label_2
_geom_bond_site_symmetry_1
_geom_bond_site_symmetry_2
Cd1 O3 1_555 1_555
O1 C8 1_555 1_555
O2 C8 1_555 1_555
O3 C21 1_555 1_555
O4 Cd1 1_555 1_555
N1 Cd1 1_555 1_555
N2 N1 1_555 1_555
N3 N2 1_555 1_555
N4 Cd1 1_555 1_555
N5 Cd1 1_555 1_555
C1 N1 1_555 1_555
C2 C1 1_555 1_555
H1 C2 1_555 1_555
C3 C2 1_555 1_555
H2 C3 1_555 1_555
C4 C3 1_555 1_555
H3 C4 1_555 1_555
C5 C4 1_555 1_555
H4 C5 1_555 1_555
C6 N3 1_555 1_555
C7 N3 1_555 1_555
H5 C7 1_555 1_555
H6 C7 1_555 1_555
C8 C7 1_555 1_555
C9 N4 1_555 1_555
H7 C9 1_555 1_555
C10 C9 1_555 1_555
H8 C10 1_555 1_555
C11 C10 1_555 1_555
H9 C11 1_555 1_555
C12 C11 1_555 1_555
C13 C12 1_555 1_555
H10 C13 1_555 1_555
C14 C13 1_555 1_555
H11 C14 1_555 1_555
C15 C14 1_555 1_555
C16 C15 1_555 1_555
H12 C16 1_555 1_555
C17 C16 1_555 1_555
H13 C17 1_555 1_555
C18 N5 1_555 1_555
H14 C18 1_555 1_555
C19 N5 1_555 1_555
C20 N4 1_555 1_555
C21 O4 1_555 1_555
C22 C21 1_555 1_555
H15 C22 1_555 1_555
H16 C22 1_555 1_555
H17 C22 1_555 1_555
O5 H18 1_555 1_555
H19 O5 1_555 1_555
Cd1A O1 1_555 1_555
O1A Cd1 1_555 1_555
O2A Cd1 1_555 1_555
O2 Cd1A 1_555 1_555
C1 C6 1_555 1_555
C5 C6 1_555 1_555
C12 C20 1_555 1_555
C15 C19 1_555 1_555
C17 C18 1_555 1_555
C19 C20 1_555 1_555

#END
