
#######################################################################
#
#                 Cambridge Crystallographic Data Centre
#                                CCDC 
#
#######################################################################
#
# If this CIF has been generated from an entry in the Cambridge 
# Structural Database, then it will include bibliographic, chemical, 
# crystal, experimental, refinement or atomic coordinate data resulting 
# from the CCDC's data processing and validation procedures.
#
#######################################################################

data_DEZKAW
_symmetry_cell_setting           tetragonal
_symmetry_space_group_name_H-M   'I 41/a'
_symmetry_Int_Tables_number      88
_space_group_name_Hall           '-I 4ad'
loop_
_symmetry_equiv_pos_site_id
_symmetry_equiv_pos_as_xyz
1 x,y,z
2 3/4-y,1/4+x,1/4+z
3 -x,1/2-y,z
4 1/4+y,1/4-x,1/4+z
5 1/2+x,1/2+y,1/2+z
6 1/4-y,3/4+x,3/4+z
7 1/2-x,-y,1/2+z
8 3/4+y,3/4-x,3/4+z
9 -x,-y,-z
10 1/4+y,3/4-x,3/4-z
11 x,1/2+y,-z
12 3/4-y,3/4+x,3/4-z
13 1/2-x,1/2-y,1/2-z
14 3/4+y,1/4-x,1/4-z
15 1/2+x,y,1/2-z
16 1/4-y,1/4+x,1/4-z
_cell_length_a                   19.6971(9)
_cell_length_b                   19.6971(9)
_cell_length_c                   19.9978(8)
_cell_angle_alpha                90
_cell_angle_beta                 90
_cell_angle_gamma                90
_cell_volume                     7758.66
loop_
_atom_site_label
_atom_site_type_symbol
_atom_site_fract_x
_atom_site_fract_y
_atom_site_fract_z
Mn1 Mn 0.10504(3) 1.01786(3) 0.02432(3)
C1 C 0.1761(3) 1.2567(2) 0.1079(2)
H1 H 0.1615 1.2936 0.0827
C2 C 0.19548(17) 1.15803(17) 0.13974(17)
C3 C 0.19926(17) 1.08502(17) 0.14962(17)
C4 C 0.1872(2) 0.97916(18) 0.1477(2)
C5 C 0.1625(2) 0.9123(2) 0.1265(2)
C6 C 0.1824(4) 0.8520(2) 0.1572(4)
H2 H 0.2136 0.8523 0.1922
C7 C 0.1551(5) 0.7923(3) 0.1349(4)
H3 H 0.1682 0.7515 0.1544
C8 C 0.1084(4) 0.7920(3) 0.0838(4)
H4 H 0.0884 0.7519 0.0694
C9 C 0.0924(3) 0.8531(2) 0.0549(3)
H5 H 0.0617 0.8533 0.0195
N1 N 0.1665(2) 1.19189(16) 0.08879(17)
N2 N 0.22080(15) 1.19863(14) 0.18682(15)
N3 N 0.20823(18) 1.26339(15) 0.16586(16)
N4 N 0.17066(15) 1.03598(14) 0.11216(15)
N5 N 0.22361(19) 0.99158(16) 0.20199(18)
N6 N 0.23178(17) 1.06108(15) 0.20283(16)
N7 N 0.11885(18) 0.91274(16) 0.07504(18)
O1 O 0.1078(2) 1.12075(16) -0.01524(16)
H6 H 0.127(3) 1.141(3) 0.0180(17)
H7 H 0.133(2) 1.126(3) -0.0496(16)
Mn1C Mn 0.26786(3) 1.14496(3) 0.27432(3)
Mn1O Mn 0.23214(3) 1.35504(3) 0.22568(3)
N2E N 0.05137(14) 0.97080(15) -0.06318(15)
N3M N 0.01339(15) 1.04177(18) 0.08414(16)
N6E N 0.18892(15) 0.98178(17) -0.04717(16)
C10 C 0.0893(10) 0.0460(9) 0.7182(7)
H8 H 0.0772 -0.0002 0.7280
H9 H 0.1337 0.0471 0.6985
H10 H 0.0570 0.0649 0.6875
C11 C 0.0423(8) 0.1107(6) 0.8203(7)
H11 H 0.0155 0.0744 0.8385
H12 H 0.0135 0.1412 0.7960
H13 H 0.0643 0.1347 0.8560
C12 C 0.1562(10) 0.0947(7) 0.8085(7)
H14 H 0.1956 0.0772 0.7895
N8 N 0.0894(9) 0.0849(5) 0.7789(6)
O2 O 0.1566(9) 0.1257(4) 0.8574(4)
loop_
_geom_bond_atom_site_label_1
_geom_bond_atom_site_label_2
_geom_bond_site_symmetry_1
_geom_bond_site_symmetry_2
Mn1 N4 1_555 1_555
C1 H1 1_555 1_555
C2 C3 1_555 1_555
C3 N4 1_555 1_555
C4 C5 1_555 1_555
C5 C6 1_555 1_555
C6 H2 1_555 1_555
C7 C6 1_555 1_555
H3 C7 1_555 1_555
C8 C7 1_555 1_555
H4 C8 1_555 1_555
C9 C8 1_555 1_555
H5 C9 1_555 1_555
N1 C1 1_555 1_555
N2 C2 1_555 1_555
N3 C1 1_555 1_555
N4 C4 1_555 1_555
N5 C4 1_555 1_555
N6 C3 1_555 1_555
N7 Mn1 1_555 1_555
O1 Mn1 1_555 1_555
H6 O1 1_555 1_555
H7 O1 1_555 1_555
C10 H8 1_555 1_555
H9 C10 1_555 1_555
H10 C10 1_555 1_555
C11 H11 1_555 1_555
H12 C11 1_555 1_555
H13 C11 1_555 1_555
C12 H14 1_555 1_555
N8 C10 1_555 1_555
O2 C12 1_555 1_555
Mn1C N2 1_555 1_555
Mn1O N3 1_555 1_555
N2E Mn1 1_555 1_555
N3M Mn1 1_555 1_555
N6E Mn1 1_555 1_555
C2 N1 1_555 1_555
C5 N7 1_555 1_555
C9 N7 1_555 1_555
N2 N3 1_555 1_555
N5 N6 1_555 1_555
N6 Mn1C 1_555 1_555
C11 N8 1_555 1_555
C12 N8 1_555 1_555

#END
