
#######################################################################
#
#                 Cambridge Crystallographic Data Centre
#                                CCDC 
#
#######################################################################
#
# If this CIF has been generated from an entry in the Cambridge 
# Structural Database, then it will include bibliographic, chemical, 
# crystal, experimental, refinement or atomic coordinate data resulting 
# from the CCDC's data processing and validation procedures.
#
#######################################################################

data_DEZLAX
_symmetry_cell_setting           monoclinic
_symmetry_space_group_name_H-M   'C 2/c'
_symmetry_Int_Tables_number      15
_space_group_name_Hall           '-C 2yn'
loop_
_symmetry_equiv_pos_site_id
_symmetry_equiv_pos_as_xyz
1 x,y,z
2 -x,y,1/2-z
3 1/2+x,1/2+y,z
4 1/2-x,1/2+y,1/2-z
5 -x,-y,-z
6 x,-y,1/2+z
7 1/2-x,1/2-y,-z
8 1/2+x,1/2-y,1/2+z
_cell_length_a                   33.690(7)
_cell_length_b                   12.224(2)
_cell_length_c                   8.5820(17)
_cell_angle_alpha                90
_cell_angle_beta                 98.00(3)
_cell_angle_gamma                90
_cell_volume                     3499.9
loop_
_atom_site_label
_atom_site_type_symbol
_atom_site_fract_x
_atom_site_fract_y
_atom_site_fract_z
Ni1 Ni 0.5000 1.0000 0.0000
C1 C 0.58089(8) 1.1054(2) 0.1086(4)
C2 C 0.62365(9) 1.1094(2) 0.0804(4)
C3 C 0.63791(9) 1.0367(3) -0.0221(4)
H1 H 0.6205 0.9852 -0.0741
C4 C 0.67733(10) 1.0388(3) -0.0488(4)
H2 H 0.6863 0.9890 -0.1178
C5 C 0.70361(9) 1.1158(3) 0.0277(4)
C6 C 0.68990(9) 1.1891(3) 0.1308(4)
H3 H 0.7072 1.2408 0.1827
C7 C 0.65037(9) 1.1851(3) 0.1563(4)
H4 H 0.6414 1.2344 0.2262
C8 C 0.55352(9) 0.8410(3) 0.1881(4)
H5 H 0.5647 0.9059 0.2303
C9 C 0.56994(10) 0.7443(2) 0.2458(4)
H6 H 0.5916 0.7447 0.3258
C10 C 0.55442(9) 0.6465(2) 0.1856(4)
C11 C 0.52207(10) 0.6509(3) 0.0672(4)
H7 H 0.5106 0.5870 0.0228
C12 C 0.50714(9) 0.7516(3) 0.0159(4)
H8 H 0.4854 0.7535 -0.0635
C13 C 0.57218(9) 0.5437(3) 0.2483(4)
C14 C 0.61218(9) 0.4385(2) 0.3864(4)
C15 C 0.64492(9) 0.3980(3) 0.5013(4)
C16 C 0.64872(10) 0.2905(3) 0.5510(4)
H9 H 0.6309 0.2372 0.5069
C17 C 0.67996(12) 0.2643(3) 0.6687(5)
H10 H 0.6825 0.1919 0.7019
C18 C 0.70315(12) 0.4385(4) 0.6848(5)
H11 H 0.7219 0.4897 0.7289
C19 C 0.67307(11) 0.4728(3) 0.5676(5)
H12 H 0.6719 0.5453 0.5341
N1 N 0.52224(7) 0.8468(2) 0.0742(3)
N2 N 0.60529(8) 0.5434(2) 0.3594(3)
N3 N 0.55824(8) 0.4450(2) 0.2056(3)
N4 N 0.58435(8) 0.3783(2) 0.2955(3)
N5 N 0.70648(9) 0.3363(3) 0.7367(4)
O1 O 0.55745(6) 1.04963(17) 0.0127(2)
O2 O 0.57020(6) 1.15512(17) 0.2253(2)
O3 O 0.74194(7) 1.1171(2) -0.0041(3)
H13 H 0.7565 1.1444 0.0702
O4 O 0.5000 1.0524(2) 0.2500
H14 H 0.4804(10) 1.095(3) 0.250(4)
H15 H 0.5806(10) 0.304(3) 0.274(4)
H14A H 0.5196(10) 1.095(3) 0.250(4)
C8D C 0.44648(9) 1.1590(3) -0.1881(4)
H5D H 0.4353 1.0941 -0.2303
C9D C 0.43006(10) 1.2557(2) -0.2458(4)
H6D H 0.4084 1.2553 -0.3258
C10D C 0.44558(9) 1.3535(2) -0.1856(4)
C11D C 0.47793(10) 1.3491(3) -0.0672(4)
H7D H 0.4894 1.4130 -0.0228
C12D C 0.49286(9) 1.2484(3) -0.0159(4)
H8D H 0.5146 1.2465 0.0635
C13D C 0.42782(9) 1.4563(3) -0.2483(4)
C14D C 0.38782(9) 1.5615(2) -0.3864(4)
C15D C 0.35508(9) 1.6020(3) -0.5013(4)
C16D C 0.35128(10) 1.7095(3) -0.5510(4)
H9D H 0.3691 1.7628 -0.5069
C17D C 0.32004(12) 1.7357(3) -0.6687(5)
H10D H 0.3175 1.8081 -0.7019
C18D C 0.29685(12) 1.5615(4) -0.6848(5)
H11D H 0.2781 1.5103 -0.7289
C19D C 0.32693(11) 1.5272(3) -0.5676(5)
H12D H 0.3281 1.4547 -0.5341
N1D N 0.47776(7) 1.1532(2) -0.0742(3)
N2D N 0.39471(8) 1.4566(2) -0.3594(3)
N3D N 0.44176(8) 1.5550(2) -0.2056(3)
N4D N 0.41565(8) 1.6217(2) -0.2955(3)
N5D N 0.29352(9) 1.6637(3) -0.7367(4)
H15D H 0.4194(10) 1.696(3) -0.274(4)
C1D C 0.41911(8) 0.8946(2) -0.1086(4)
C2D C 0.37635(9) 0.8906(2) -0.0804(4)
C3D C 0.36209(9) 0.9633(3) 0.0221(4)
H1D H 0.3795 1.0148 0.0741
C4D C 0.32267(10) 0.9612(3) 0.0488(4)
H2D H 0.3137 1.0110 0.1178
C5D C 0.29639(9) 0.8842(3) -0.0277(4)
C6D C 0.31010(9) 0.8109(3) -0.1308(4)
H3D H 0.2928 0.7592 -0.1827
C7D C 0.34963(9) 0.8149(3) -0.1563(4)
H4D H 0.3586 0.7656 -0.2262
O1D O 0.44255(6) 0.95037(17) -0.0127(2)
O2D O 0.42980(6) 0.84488(17) -0.2253(2)
O3D O 0.25806(7) 0.8829(2) 0.0041(3)
H13D H 0.2435 0.8556 -0.0702
Ni1A Ni 0.5000 1.0000 0.5000
O4D O 0.5000 0.9476(2) -0.2500
loop_
_geom_bond_atom_site_label_1
_geom_bond_atom_site_label_2
_geom_bond_site_symmetry_1
_geom_bond_site_symmetry_2
Ni1 N1 1_555 1_555
C1 C2 1_555 1_555
C2 C3 1_555 1_555
C3 H1 1_555 1_555
C4 C3 1_555 1_555
H2 C4 1_555 1_555
C5 C4 1_555 1_555
C6 C5 1_555 1_555
H3 C6 1_555 1_555
C7 C2 1_555 1_555
H4 C7 1_555 1_555
C8 H5 1_555 1_555
C9 C8 1_555 1_555
H6 C9 1_555 1_555
C10 C9 1_555 1_555
C11 C10 1_555 1_555
H7 C11 1_555 1_555
C12 C11 1_555 1_555
H8 C12 1_555 1_555
C13 C10 1_555 1_555
C14 C15 1_555 1_555
C15 C16 1_555 1_555
C16 H9 1_555 1_555
C17 C16 1_555 1_555
H10 C17 1_555 1_555
C18 H11 1_555 1_555
C19 C15 1_555 1_555
H12 C19 1_555 1_555
N1 C8 1_555 1_555
N2 C13 1_555 1_555
N3 C13 1_555 1_555
N4 C14 1_555 1_555
N5 C17 1_555 1_555
O1 Ni1 1_555 1_555
O2 C1 1_555 1_555
O3 C5 1_555 1_555
H13 O3 1_555 1_555
O4 Ni1 1_555 1_555
H14 O4 1_555 1_555
H15 N4 1_555 1_555
H14A O4 1_555 1_555
C8D H5D 1_555 1_555
C9D C8D 1_555 1_555
H6D C9D 1_555 1_555
C10D C9D 1_555 1_555
C11D C10D 1_555 1_555
H7D C11D 1_555 1_555
C12D C11D 1_555 1_555
H8D C12D 1_555 1_555
C13D C10D 1_555 1_555
C14D C15D 1_555 1_555
C15D C16D 1_555 1_555
C16D H9D 1_555 1_555
C17D C16D 1_555 1_555
H10D C17D 1_555 1_555
C18D H11D 1_555 1_555
C19D C15D 1_555 1_555
H12D C19D 1_555 1_555
N1D Ni1 1_555 1_555
N2D C13D 1_555 1_555
N3D C13D 1_555 1_555
N4D C14D 1_555 1_555
N5D C17D 1_555 1_555
H15D N4D 1_555 1_555
C1D C2D 1_555 1_555
C2D C3D 1_555 1_555
C3D H1D 1_555 1_555
C4D C3D 1_555 1_555
H2D C4D 1_555 1_555
C5D C4D 1_555 1_555
C6D C5D 1_555 1_555
H3D C6D 1_555 1_555
C7D C2D 1_555 1_555
H4D C7D 1_555 1_555
O1D Ni1 1_555 1_555
O2D C1D 1_555 1_555
O3D C5D 1_555 1_555
H13D O3D 1_555 1_555
Ni1A O4 1_555 1_555
O4D Ni1 1_555 1_555
C1 O1 1_555 1_555
C6 C7 1_555 1_555
C12 N1 1_555 1_555
C14 N2 1_555 1_555
C18 C19 1_555 1_555
C18 N5 1_555 1_555
N3 N4 1_555 1_555
C8D N1D 1_555 1_555
C12D N1D 1_555 1_555
C14D N2D 1_555 1_555
C18D C19D 1_555 1_555
C18D N5D 1_555 1_555
N3D N4D 1_555 1_555
C1D O1D 1_555 1_555
C6D C7D 1_555 1_555

#END
