
#######################################################################
#
#                 Cambridge Crystallographic Data Centre
#                                CCDC 
#
#######################################################################
#
# If this CIF has been generated from an entry in the Cambridge 
# Structural Database, then it will include bibliographic, chemical, 
# crystal, experimental, refinement or atomic coordinate data resulting 
# from the CCDC's data processing and validation procedures.
#
#######################################################################

data_DEZLIF
_symmetry_cell_setting           monoclinic
_symmetry_space_group_name_H-M   'P 21/n'
_symmetry_Int_Tables_number      14
_space_group_name_Hall           '-P 2yn'
loop_
_symmetry_equiv_pos_site_id
_symmetry_equiv_pos_as_xyz
1 x,y,z
2 1/2-x,1/2+y,1/2-z
3 -x,-y,-z
4 1/2+x,1/2-y,1/2+z
_cell_length_a                   12.8953(8)
_cell_length_b                   9.7077(6)
_cell_length_c                   23.0556(15)
_cell_angle_alpha                90
_cell_angle_beta                 97.808(2)
_cell_angle_gamma                90
_cell_volume                     2859.43
loop_
_atom_site_label
_atom_site_type_symbol
_atom_site_fract_x
_atom_site_fract_y
_atom_site_fract_z
Co1 Co 0.16976(3) 0.07769(4) 0.520815(14)
N1 N 0.32682(16) 0.0764(2) 0.54219(8)
O1 O 0.11589(15) -0.10798(18) 0.50457(8)
C1 C 0.3893(2) 0.1838(3) 0.54954(10)
H1 H 0.3665 0.2737 0.5422
N2 N 0.48945(16) 0.1510(2) 0.56874(8)
O2 O 0.19480(15) -0.1420(2) 0.42652(8)
C2 C 0.3915(2) -0.0368(3) 0.55804(10)
O3 O 0.12019(14) -0.79285(18) 0.45868(8)
N3 N 0.50259(18) 0.5277(2) 0.84138(9)
C3 C 0.3687(2) -0.1760(3) 0.55907(11)
H2 H 0.3006 -0.2072 0.5484
O4 O 0.20328(17) -0.6238(2) 0.50942(9)
N4 N 0.39192(17) 0.5899(2) 0.90277(9)
C4 C 0.4488(2) -0.2674(3) 0.57619(12)
C5 C 0.4241(3) -0.4189(3) 0.57638(17)
H3 H 0.3508 -0.4325 0.5636
H4 H 0.4416 -0.4546 0.6153
H5 H 0.4641 -0.4662 0.5503
C6 C 0.6398(3) -0.3206(4) 0.61144(15)
H6 H 0.7048 -0.2715 0.6196
H7 H 0.6444 -0.3861 0.5807
H8 H 0.6258 -0.3681 0.6461
C7 C 0.5522(2) -0.2199(3) 0.59249(12)
C8 C 0.5750(2) -0.0816(3) 0.59140(10)
H9 H 0.6430 -0.0498 0.6018
C9 C 0.4935(2) 0.0087(3) 0.57437(10)
C10 C 0.5741(2) 0.2462(3) 0.58860(10)
H10 H 0.5669 0.3274 0.5639
H11 H 0.6403 0.2028 0.5840
C11 C 0.5765(2) 0.2904(3) 0.65197(10)
C12 C 0.6711(2) 0.3234(3) 0.68410(11)
H12 H 0.7327 0.3079 0.6683
C13 C 0.4867(2) 0.3083(3) 0.67777(11)
H13 H 0.4222 0.2831 0.6575
C14 C 0.6755(2) 0.3792(3) 0.73959(12)
H14 H 0.7400 0.4029 0.7603
C15 C 0.4918(2) 0.3634(3) 0.73359(11)
H15 H 0.4305 0.3755 0.7501
C16 C 0.5858(2) 0.4003(3) 0.76475(10)
C17 C 0.5964(2) 0.4601(3) 0.82578(12)
H16 H 0.6159 0.3867 0.8536
H17 H 0.6531 0.5266 0.8298
C18 C 0.4594(2) 0.4965(3) 0.88994(11)
H18 H 0.4756 0.4173 0.9120
C19 C 0.4605(2) 0.6531(3) 0.82137(11)
C20 C 0.4783(3) 0.7374(3) 0.77540(12)
H19 H 0.5247 0.7115 0.7498
C21 C 0.3383(2) 0.8152(3) 0.85314(12)
H20 H 0.2924 0.8407 0.8790
C22 C 0.4255(3) 0.8608(4) 0.76863(13)
C23 C 0.3552(3) 0.9010(3) 0.80737(13)
C24 C 0.4460(4) 0.9570(5) 0.71940(18)
H21 H 0.4802 1.0388 0.7357
H22 H 0.3807 0.9814 0.6966
H23 H 0.4899 0.9116 0.6949
C25 C 0.3000(4) 1.0380(4) 0.80086(18)
H24 H 0.2529 1.0455 0.8296
H25 H 0.2613 1.0449 0.7624
H26 H 0.3507 1.1109 0.8065
C26 C 0.14174(19) -0.1827(3) 0.46328(11)
C27 C 0.1029(2) -0.3311(3) 0.46501(13)
H27 H 0.1287 -0.3699 0.5030
H28 H 0.0271 -0.3299 0.4614
C28 C 0.1348(2) -0.4241(3) 0.41871(12)
H29 H 0.2106 -0.4279 0.4231
H30 H 0.1108 -0.3841 0.3807
C29 C 0.0932(2) -0.5687(3) 0.41990(13)
H31 H 0.020(2) -0.568(3) 0.4237(12)
H32 H 0.099(2) -0.621(3) 0.3812(14)
C30 C 0.1439(2) -0.6656(3) 0.46709(12)
C31 C 0.3911(2) 0.6910(3) 0.85969(11)
Co1_2 Co 0.16976(3) -0.92231(4) 0.520815(14)
Co1A Co 0.33024(3) 0.57769(4) 0.979185(14)
O3_2 O 0.12019(14) 0.20715(18) 0.45868(8)
N4A N 0.10808(17) 0.0899(2) 0.59723(9)
loop_
_geom_bond_atom_site_label_1
_geom_bond_atom_site_label_2
_geom_bond_site_symmetry_1
_geom_bond_site_symmetry_2
Co1 N1 1_555 1_555
N1 C1 1_555 1_555
O1 Co1 1_555 1_555
C1 H1 1_555 1_555
N2 C1 1_555 1_555
O2 C26 1_555 1_555
C2 N1 1_555 1_555
O3 C30 1_555 1_555
N3 C17 1_555 1_555
C3 C2 1_555 1_555
H2 C3 1_555 1_555
O4 C30 1_555 1_555
N4 C18 1_555 1_555
C4 C3 1_555 1_555
C5 C4 1_555 1_555
H3 C5 1_555 1_555
H4 C5 1_555 1_555
H5 C5 1_555 1_555
C6 H6 1_555 1_555
H7 C6 1_555 1_555
H8 C6 1_555 1_555
C7 C4 1_555 1_555
C8 C7 1_555 1_555
H9 C8 1_555 1_555
C9 N2 1_555 1_555
C10 N2 1_555 1_555
H10 C10 1_555 1_555
H11 C10 1_555 1_555
C11 C10 1_555 1_555
C12 C11 1_555 1_555
H12 C12 1_555 1_555
C13 C11 1_555 1_555
H13 C13 1_555 1_555
C14 C12 1_555 1_555
H14 C14 1_555 1_555
C15 C13 1_555 1_555
H15 C15 1_555 1_555
C16 C14 1_555 1_555
C17 C16 1_555 1_555
H16 C17 1_555 1_555
H17 C17 1_555 1_555
C18 N3 1_555 1_555
H18 C18 1_555 1_555
C19 N3 1_555 1_555
C20 C19 1_555 1_555
H19 C20 1_555 1_555
C21 H20 1_555 1_555
C22 C20 1_555 1_555
C23 C21 1_555 1_555
C24 C22 1_555 1_555
H21 C24 1_555 1_555
H22 C24 1_555 1_555
H23 C24 1_555 1_555
C25 C23 1_555 1_555
H24 C25 1_555 1_555
H25 C25 1_555 1_555
H26 C25 1_555 1_555
C26 O1 1_555 1_555
C27 C26 1_555 1_555
H27 C27 1_555 1_555
H28 C27 1_555 1_555
C28 C27 1_555 1_555
H29 C28 1_555 1_555
H30 C28 1_555 1_555
C29 C28 1_555 1_555
H31 C29 1_555 1_555
H32 C29 1_555 1_555
C30 C29 1_555 1_555
C31 N4 1_555 1_555
Co1_2 O3 1_555 1_555
Co1A N4 1_555 1_555
O3_2 Co1 1_555 1_555
N4A Co1 1_555 1_555
C2 C9 1_555 1_555
C6 C7 1_555 1_555
C8 C9 1_555 1_555
C15 C16 1_555 1_555
C19 C31 1_555 1_555
C21 C31 1_555 1_555
C22 C23 1_555 1_555

#END
