
#######################################################################
#
#                 Cambridge Crystallographic Data Centre
#                                CCDC 
#
#######################################################################
#
# If this CIF has been generated from an entry in the Cambridge 
# Structural Database, then it will include bibliographic, chemical, 
# crystal, experimental, refinement or atomic coordinate data resulting 
# from the CCDC's data processing and validation procedures.
#
#######################################################################

data_DEZLOK02
_symmetry_cell_setting           orthorhombic
_symmetry_space_group_name_H-M   'P b c m'
_symmetry_Int_Tables_number      57
_space_group_name_Hall           '-P 2c 2b'
loop_
_symmetry_equiv_pos_site_id
_symmetry_equiv_pos_as_xyz
1 x,y,z
2 -x,-y,1/2+z
3 -x,1/2+y,1/2-z
4 x,1/2-y,-z
5 -x,-y,-z
6 x,y,1/2-z
7 x,1/2-y,1/2+z
8 -x,1/2+y,z
_cell_length_a                   11.648(2)
_cell_length_b                   11.162(3)
_cell_length_c                   14.039(6)
_cell_angle_alpha                90
_cell_angle_beta                 90
_cell_angle_gamma                90
_cell_volume                     1825.28
loop_
_atom_site_label
_atom_site_type_symbol
_atom_site_fract_x
_atom_site_fract_y
_atom_site_fract_z
Ni1 Ni 0.5232(1) 0.6135(1) 0.2500
O1 O 0.6421(1) 0.6353(1) 0.3443(1)
O2 O 0.5825(1) 0.8133(1) 0.3983(1)
N1 N 0.3940(2) 0.5965(2) 0.3437(1)
C1 C 0.6520(2) 0.7300(2) 0.3947(1)
C2 C 0.7615(2) 0.7379(2) 0.4513(1)
C3 C 0.8656(2) 0.7266(2) 0.4042(2)
C4 C 0.9685(2) 0.7391(2) 0.4515(2)
C5 C 0.3973(2) 0.5989(2) 0.4387(2)
C6 C 0.3015(2) 0.5730(2) 0.4943(2)
C7 C 0.2002(2) 0.5423(2) 0.4511(2)
C8 C 0.1938(2) 0.5394(2) 0.3511(2)
C9 C 0.2932(2) 0.5681(2) 0.3011(2)
C10 C 0.0922(2) 0.5098(2) 0.2977(2)
Ni1C Ni 0.5232(1) 0.8865(1) 0.7500
O1C O 0.6421(1) 0.8647(1) 0.6557(1)
O1E O 0.6421(1) 0.6353(1) 0.1557(1)
O2C O 0.5825(1) 0.6867(1) 0.6017(1)
N1E N 0.3940(2) 0.5965(2) 0.1563(1)
C1C C 0.6520(2) 0.7700(2) 0.6053(1)
C2C C 0.7615(2) 0.7621(2) 0.5487(1)
C3C C 0.8656(2) 0.7734(2) 0.5958(2)
C4C C 0.9685(2) 0.7609(2) 0.5485(2)
C5E C 0.3973(2) 0.5989(2) 0.0613(2)
C6E C 0.3015(2) 0.5730(2) 0.0057(2)
C7E C 0.2002(2) 0.5423(2) 0.0489(2)
C8E C 0.1938(2) 0.5394(2) 0.1489(2)
C9E C 0.2932(2) 0.5681(2) 0.1989(2)
C10E C 0.0922(2) 0.5098(2) 0.2023(2)
O3 O 0.5517(2) 0.3998(2) 0.2500
O4 O 0.8044(4) 0.4348(6) 0.2500
loop_
_geom_bond_atom_site_label_1
_geom_bond_atom_site_label_2
_geom_bond_site_symmetry_1
_geom_bond_site_symmetry_2
Ni1 O1 1_555 1_555
O1 C1 1_555 1_555
O2 C1 1_555 1_555
N1 Ni1 1_555 1_555
C1 C2 1_555 1_555
C2 C3 1_555 1_555
C3 C4 1_555 1_555
C4 C4C 1_555 1_555
C5 N1 1_555 1_555
C6 C5 1_555 1_555
C7 C6 1_555 1_555
C8 C7 1_555 1_555
C9 N1 1_555 1_555
C10 C8 1_555 1_555
Ni1C O1C 1_555 1_555
O1C C1C 1_555 1_555
O1E Ni1 1_555 1_555
O2C C1C 1_555 1_555
N1E Ni1 1_555 1_555
C1C C2C 1_555 1_555
C2C C2 1_555 1_555
C3C C2C 1_555 1_555
C4C C3C 1_555 1_555
C5E N1E 1_555 1_555
C6E C5E 1_555 1_555
C7E C6E 1_555 1_555
C8E C7E 1_555 1_555
C9E C9 1_555 1_555
C10E C10 1_555 1_555
C8 C9 1_555 1_555
N1E C9E 1_555 1_555
C8E C9E 1_555 1_555
C8E C10E 1_555 1_555

#END
