
#######################################################################
#
#                 Cambridge Crystallographic Data Centre
#                                CCDC 
#
#######################################################################
#
# If this CIF has been generated from an entry in the Cambridge 
# Structural Database, then it will include bibliographic, chemical, 
# crystal, experimental, refinement or atomic coordinate data resulting 
# from the CCDC's data processing and validation procedures.
#
#######################################################################

data_DEZMUS
_symmetry_cell_setting           monoclinic
_symmetry_space_group_name_H-M   'P 21/c'
_symmetry_Int_Tables_number      14
_space_group_name_Hall           '-P 2ybc'
loop_
_symmetry_equiv_pos_site_id
_symmetry_equiv_pos_as_xyz
1 x,y,z
2 -x,1/2+y,1/2-z
3 -x,-y,-z
4 x,1/2-y,1/2+z
_cell_length_a                   13.3672(11)
_cell_length_b                   24.450(2)
_cell_length_c                   12.1885(11)
_cell_angle_alpha                90
_cell_angle_beta                 98.470(2)
_cell_angle_gamma                90
_cell_volume                     3940.1
loop_
_atom_site_label
_atom_site_type_symbol
_atom_site_fract_x
_atom_site_fract_y
_atom_site_fract_z
P1 P 1.0000 0.0000 0.0000
O1 O 0.902(3) 0.0281(13) 0.008(3)
O2 O 0.8200(12) 0.0942(7) 0.1009(12)
O3 O 0.8337(13) -0.0513(7) 0.1901(15)
O4 O 1.0881(13) 0.0888(7) 0.2307(15)
O5 O 0.8722(13) -0.1260(7) 0.0526(15)
O6 O 0.7757(12) 0.0787(7) -0.1126(12)
O7 O 0.9858(12) 0.1451(7) 0.0690(12)
O8 O 1.0938(11) 0.0296(6) 0.4268(11)
O9 O 0.9247(13) 0.0395(7) 0.2658(15)
O10 O 0.7329(13) 0.0037(7) 0.0258(15)
O11 O 1.081(2) 0.0269(14) 0.094(2)
O12 O 1.1778(13) 0.1802(7) 0.1496(15)
O13 O 0.8018(12) 0.1834(7) -0.0353(12)
O14 O 1.1846(13) -0.0028(7) 0.2474(15)
O15 O 1.0240(13) -0.0534(7) 0.2814(15)
O16 O 1.2297(13) 0.0729(7) 0.1098(15)
O17 O 0.964(3) -0.0141(13) 0.108(3)
O18 O 0.9151(13) -0.1506(7) 0.2733(15)
O19 O 1.3765(12) -0.0049(7) 0.1840(12)
O20 O 1.0601(11) -0.1295(8) 0.1448(12)
O21 O 0.7159(11) 0.0362(6) 0.2394(15)
O22 O 0.994(3) -0.0581(14) 0.023(3)
W1 W 1.06261(8) 0.02012(4) 0.29070(7)
W2 W 0.80707(6) 0.02431(4) 0.16319(7)
W3 W 0.93989(6) -0.10106(3) 0.18711(6)
W4 W 0.86497(6) 0.12557(3) -0.02626(7)
W5 W 1.25503(6) -0.00255(4) 0.12666(8)
W6 W 1.12124(7) 0.12233(3) 0.10301(7)
O1B O 1.098(3) -0.0281(13) -0.008(3)
O11B O 0.919(2) -0.0269(14) -0.094(2)
O17B O 1.036(3) 0.0141(13) -0.108(3)
O22B O 1.006(3) 0.0581(14) -0.023(3)
O2B O 1.1800(12) -0.0942(7) -0.1009(12)
O3B O 1.1663(13) 0.0513(7) -0.1901(15)
O4B O 0.9119(13) -0.0888(7) -0.2307(15)
O5B O 1.1278(13) 0.1260(7) -0.0526(15)
O6B O 1.2243(12) -0.0787(7) 0.1126(12)
O7B O 1.0142(12) -0.1451(7) -0.0690(12)
O8B O 0.9062(11) -0.0296(6) -0.4268(11)
O9B O 1.0753(13) -0.0395(7) -0.2658(15)
O10B O 1.2671(13) -0.0037(7) -0.0258(15)
O12B O 0.8222(13) -0.1802(7) -0.1496(15)
O13B O 1.1982(12) -0.1834(7) 0.0353(12)
O14B O 0.8154(13) 0.0028(7) -0.2474(15)
O15B O 0.9760(13) 0.0534(7) -0.2814(15)
O16B O 0.7703(13) -0.0729(7) -0.1098(15)
O18B O 1.0849(13) 0.1506(7) -0.2733(15)
O19B O 0.6235(12) 0.0049(7) -0.1840(12)
O20B O 0.9399(11) 0.1295(8) -0.1448(12)
O21B O 1.2841(11) -0.0362(6) -0.2394(15)
W1B W 0.93739(8) -0.02012(4) -0.29070(7)
W2B W 1.19293(6) -0.02431(4) -0.16319(7)
W3B W 1.06011(6) 0.10106(3) -0.18711(6)
W4B W 1.13503(6) -0.12557(3) 0.02626(7)
W5B W 0.74497(6) 0.00255(4) -0.12666(8)
W6B W 0.87876(7) -0.12233(3) -0.10301(7)
Ag1 Ag 0.53141(13) 0.04765(8) 0.27816(17)
Ag2 Ag 0.98817(15) 0.25647(6) 0.14333(12)
Ag3 Ag 0.5000 -0.5000 0.5000
C1 C 0.6374(19) -0.0382(10) 0.4455(18)
H1 H 0.6991 -0.0200 0.4510
C2 C 0.6934(19) -0.1113(9) 0.586(3)
H2 H 0.7370 -0.0853 0.6305
H3 H 0.6568 -0.1315 0.6363
C3 C 0.9173(17) 0.3808(8) -0.0018(15)
H4 H 0.9529 0.4132 -0.0212
H5 H 0.9399 0.3728 0.0758
C4 C 0.8034(19) 0.3922(9) -0.019(2)
H6 H 0.7913 0.4221 0.0298
H7 H 0.7843 0.4051 -0.0945
C5 C 0.489(2) -0.0604(13) 0.405(3)
H8 H 0.4211 -0.0578 0.3761
C6 C 0.4557(19) -0.3806(10) 0.5692(18)
H9 H 0.3868 -0.3857 0.5469
C7 C 0.613(2) -0.3953(10) 0.597(2)
H10 H 0.6759 -0.4114 0.5994
C8 C 0.4506(18) 0.1632(10) 0.187(2)
H11 H 0.3826 0.1535 0.1782
C9 C 0.610(2) 0.1584(10) 0.215(2)
H12 H 0.6768 0.1462 0.2309
C10 C 0.668(2) -0.3058(11) 0.686(3)
H13 H 0.7205 -0.3254 0.7332
H14 H 0.6338 -0.2826 0.7337
C11 C 0.7158(18) -0.2704(10) 0.611(2)
H15 H 0.7473 -0.2930 0.5607
H16 H 0.7686 -0.2490 0.6548
C12 C 0.656(3) 0.2772(16) 0.104(3)
H17 H 0.5899 0.2893 0.0699
H18 H 0.6796 0.2483 0.0592
C13 C 0.756(3) -0.1494(14) 0.534(4)
H19 H 0.7842 -0.1294 0.4769
H20 H 0.8121 -0.1601 0.5893
C14 C 0.6431(16) -0.2329(9) 0.546(2)
H21 H 0.6077 -0.2107 0.5944
H22 H 0.5940 -0.2529 0.4949
C15 C 0.656(3) 0.2588(16) 0.222(3)
H23 H 0.6269 0.2858 0.2661
H24 H 0.7221 0.2477 0.2582
C16 C 0.734(2) 0.3467(13) 0.000(3)
H25 H 0.7499 0.3158 -0.0446
H26 H 0.6657 0.3581 -0.0293
C17 C 0.733(3) 0.3260(12) 0.119(3)
H27 H 0.7108 0.3544 0.1652
H28 H 0.8000 0.3137 0.1519
C18 C 0.7114(19) -0.1977(10) 0.485(2)
H29 H 0.7660 -0.2210 0.4680
H30 H 0.6723 -0.1875 0.4144
C19 C 0.9988(18) 0.2567(11) -0.1058(18)
H31 H 1.0270 0.2218 -0.0987
C20 C 0.9411(19) 0.3305(10) -0.178(2)
H32 H 0.9210 0.3581 -0.2287
N1 N 0.5562(18) -0.0251(10) 0.377(2)
N2 N 0.6192(15) -0.0807(9) 0.5053(15)
N3 N 0.522(2) -0.0991(10) 0.476(2)
N4 N 0.9802(16) 0.2869(8) -0.0191(18)
N5 N 0.9421(15) 0.3344(8) -0.0701(15)
N6 N 0.5248(13) -0.4186(8) 0.5540(15)
N7 N 0.5951(14) -0.3454(8) 0.6343(15)
N8 N 0.4933(15) -0.3356(9) 0.6181(15)
N9 N 0.5293(12) 0.1283(8) 0.2142(14)
N10 N 0.582(2) 0.2082(10) 0.189(3)
N11 N 0.486(2) 0.2125(10) 0.177(3)
N12 N 0.9731(16) 0.2815(8) -0.2022(18)
Ag1B Ag 0.46859(13) -1.04765(8) 0.72184(17)
Ag2B Ag 0.01183(15) -1.25647(6) 0.85667(12)
C1B C 0.3626(19) -0.9618(10) 0.5545(18)
H1B H 0.3009 -0.9800 0.5490
C2B C 0.3066(19) -0.8887(9) 0.414(3)
H2B H 0.2630 -0.9147 0.3695
H3B H 0.3432 -0.8685 0.3637
C3B C 0.0827(17) -1.3808(8) 1.0018(15)
H4B H 0.0471 -1.4132 1.0212
H5B H 0.0601 -1.3728 0.9242
C4B C 0.1966(19) -1.3922(9) 1.019(2)
H6B H 0.2087 -1.4221 0.9702
H7B H 0.2157 -1.4051 1.0945
C5B C 0.511(2) -0.9396(13) 0.595(3)
H8B H 0.5789 -0.9422 0.6239
C6B C 0.5443(19) -0.6194(10) 0.4308(18)
H9B H 0.6132 -0.6143 0.4531
C7B C 0.387(2) -0.6047(10) 0.403(2)
H10B H 0.3241 -0.5886 0.4006
C8B C 0.5494(18) -1.1632(10) 0.813(2)
H11B H 0.6174 -1.1535 0.8218
C9B C 0.390(2) -1.1584(10) 0.785(2)
H12B H 0.3232 -1.1462 0.7691
C10B C 0.332(2) -0.6942(11) 0.314(3)
H13B H 0.2795 -0.6746 0.2668
H14B H 0.3662 -0.7174 0.2663
C11B C 0.2842(18) -0.7296(10) 0.389(2)
H15B H 0.2527 -0.7070 0.4393
H16B H 0.2314 -0.7510 0.3452
C12B C 0.344(3) -1.2772(16) 0.896(3)
H17B H 0.4101 -1.2893 0.9301
H18B H 0.3204 -1.2483 0.9408
C13B C 0.244(3) -0.8506(14) 0.466(4)
H19B H 0.2158 -0.8706 0.5231
H20B H 0.1879 -0.8399 0.4107
C14B C 0.3569(16) -0.7671(9) 0.454(2)
H21B H 0.3923 -0.7893 0.4056
H22B H 0.4060 -0.7471 0.5051
C15B C 0.344(3) -1.2588(16) 0.778(3)
H23B H 0.3731 -1.2858 0.7339
H24B H 0.2779 -1.2477 0.7418
C16B C 0.266(2) -1.3467(13) 1.000(3)
H25B H 0.2501 -1.3158 1.0446
H26B H 0.3343 -1.3581 1.0293
C17B C 0.267(3) -1.3260(12) 0.881(3)
H27B H 0.2892 -1.3544 0.8348
H28B H 0.2000 -1.3137 0.8481
C18B C 0.2886(19) -0.8023(10) 0.515(2)
H29B H 0.2340 -0.7790 0.5320
H30B H 0.3277 -0.8125 0.5856
C19B C 0.0012(18) -1.2567(11) 1.1058(18)
H31B H -0.0270 -1.2218 1.0987
C20B C 0.0589(19) -1.3305(10) 1.178(2)
H32B H 0.0790 -1.3581 1.2287
N1B N 0.4438(18) -0.9749(10) 0.623(2)
N2B N 0.3808(15) -0.9193(9) 0.4947(15)
N3B N 0.478(2) -0.9009(10) 0.524(2)
N4B N 0.0198(16) -1.2869(8) 1.0191(18)
N5B N 0.0579(15) -1.3344(8) 1.0701(15)
N6B N 0.4752(13) -0.5814(8) 0.4460(15)
N7B N 0.4049(14) -0.6546(8) 0.3657(15)
N8B N 0.5067(15) -0.6644(9) 0.3819(15)
N9B N 0.4707(12) -1.1283(8) 0.7858(14)
N10B N 0.418(2) -1.2082(10) 0.811(3)
N11B N 0.514(2) -1.2125(10) 0.823(3)
N12B N 0.0269(16) -1.2815(8) 1.2022(18)
Ag2A Ag 0.01183(15) -1.24353(6) 1.35667(12)
Ag2C Ag 0.98817(15) 0.24353(6) -0.35667(12)
N12A N 0.0269(16) -1.2185(8) 0.7022(18)
N12C N 0.9731(16) 0.2185(8) 0.2978(18)
loop_
_geom_bond_atom_site_label_1
_geom_bond_atom_site_label_2
_geom_bond_site_symmetry_1
_geom_bond_site_symmetry_2
Ag1 N1 1_555 1_555
Ag2 N4 1_555 1_555
Ag3 N6 1_555 1_555
C1 H1 1_555 1_555
C2 H2 1_555 1_555
H3 C2 1_555 1_555
C3 H4 1_555 1_555
H5 C3 1_555 1_555
C4 C3 1_555 1_555
H6 C4 1_555 1_555
H7 C4 1_555 1_555
C5 H8 1_555 1_555
C6 H9 1_555 1_555
C7 H10 1_555 1_555
C8 H11 1_555 1_555
C9 H12 1_555 1_555
C10 H13 1_555 1_555
H14 C10 1_555 1_555
C11 C10 1_555 1_555
H15 C11 1_555 1_555
H16 C11 1_555 1_555
C12 H17 1_555 1_555
H18 C12 1_555 1_555
C13 C2 1_555 1_555
H19 C13 1_555 1_555
H20 C13 1_555 1_555
C14 C11 1_555 1_555
H21 C14 1_555 1_555
H22 C14 1_555 1_555
C15 C12 1_555 1_555
H23 C15 1_555 1_555
H24 C15 1_555 1_555
C16 C4 1_555 1_555
H25 C16 1_555 1_555
H26 C16 1_555 1_555
C17 C12 1_555 1_555
H27 C17 1_555 1_555
H28 C17 1_555 1_555
C18 C13 1_555 1_555
H29 C18 1_555 1_555
H30 C18 1_555 1_555
C19 H31 1_555 1_555
C20 H32 1_555 1_555
N1 C1 1_555 1_555
N2 C1 1_555 1_555
N3 C5 1_555 1_555
N4 C19 1_555 1_555
N5 C3 1_555 1_555
N6 C6 1_555 1_555
N7 C7 1_555 1_555
N8 C6 1_555 1_555
N9 Ag1 1_555 1_555
N10 C9 1_555 1_555
N11 C8 1_555 1_555
N12 C19 1_555 1_555
P1 O1 1_555 1_555
O1 O17 1_555 1_555
O2 W2 1_555 1_555
O3 W2 1_555 1_555
O4 W1 1_555 1_555
O5 W3 1_555 1_555
O6 W4 1_555 1_555
O7 W4 1_555 1_555
O8 W1 1_555 1_555
O9 W1 1_555 1_555
O10 W2 1_555 1_555
O11 P1 1_555 1_555
O12 W6 1_555 1_555
O13 W4 1_555 1_555
O14 W1 1_555 1_555
O15 W1 1_555 1_555
O16 W5 1_555 1_555
O17 P1 1_555 1_555
O18 W3 1_555 1_555
O19 W5 1_555 1_555
O20 W3 1_555 1_555
O21 W2 1_555 1_555
O22 P1 1_555 1_555
W1 O11 1_555 1_555
W2 O1 1_555 1_555
W3 O3 1_555 1_555
W4 O1 1_555 1_555
W5 O11 1_555 1_555
W6 O4 1_555 1_555
Ag1B N1B 1_555 1_555
Ag2B N4B 1_555 1_555
C1B H1B 1_555 1_555
C2B H2B 1_555 1_555
H3B C2B 1_555 1_555
C3B H4B 1_555 1_555
H5B C3B 1_555 1_555
C4B C3B 1_555 1_555
H6B C4B 1_555 1_555
H7B C4B 1_555 1_555
C5B H8B 1_555 1_555
C6B H9B 1_555 1_555
C7B H10B 1_555 1_555
C8B H11B 1_555 1_555
C9B H12B 1_555 1_555
C10B H13B 1_555 1_555
H14B C10B 1_555 1_555
C11B C10B 1_555 1_555
H15B C11B 1_555 1_555
H16B C11B 1_555 1_555
C12B H17B 1_555 1_555
H18B C12B 1_555 1_555
C13B C2B 1_555 1_555
H19B C13B 1_555 1_555
H20B C13B 1_555 1_555
C14B C11B 1_555 1_555
H21B C14B 1_555 1_555
H22B C14B 1_555 1_555
C15B C12B 1_555 1_555
H23B C15B 1_555 1_555
H24B C15B 1_555 1_555
C16B C4B 1_555 1_555
H25B C16B 1_555 1_555
H26B C16B 1_555 1_555
C17B C12B 1_555 1_555
H27B C17B 1_555 1_555
H28B C17B 1_555 1_555
C18B C13B 1_555 1_555
H29B C18B 1_555 1_555
H30B C18B 1_555 1_555
C19B H31B 1_555 1_555
C20B H32B 1_555 1_555
N1B C1B 1_555 1_555
N2B C1B 1_555 1_555
N3B C5B 1_555 1_555
N4B C19B 1_555 1_555
N5B C3B 1_555 1_555
N6B Ag3 1_555 1_555
N7B C7B 1_555 1_555
N8B C6B 1_555 1_555
N9B Ag1B 1_555 1_555
N10B C9B 1_555 1_555
N11B C8B 1_555 1_555
N12B C19B 1_555 1_555
Ag2A N12B 1_555 1_555
Ag2C N12 1_555 1_555
N12A Ag2B 1_555 1_555
N12C Ag2 1_555 1_555
O1B P1 1_555 1_555
O11B P1 1_555 1_555
O17B P1 1_555 1_555
O22B P1 1_555 1_555
O2B W2B 1_555 1_555
O3B W2B 1_555 1_555
O4B W1B 1_555 1_555
O5B W6 1_555 1_555
O6B W5 1_555 1_555
O7B W4B 1_555 1_555
O8B W1B 1_555 1_555
O9B W1B 1_555 1_555
O10B W5 1_555 1_555
O12B W6B 1_555 1_555
O13B W4B 1_555 1_555
O14B W1B 1_555 1_555
O15B W1B 1_555 1_555
O16B W5B 1_555 1_555
O18B W3B 1_555 1_555
O19B W5B 1_555 1_555
O20B W4 1_555 1_555
O21B W2B 1_555 1_555
W1B O11B 1_555 1_555
W2B O1B 1_555 1_555
W3B O17B 1_555 1_555
W4B O20 1_555 1_555
W5B O6 1_555 1_555
W6B O5 1_555 1_555
C2 N2 1_555 1_555
C5 N1 1_555 1_555
C7 N6 1_555 1_555
C8 N9 1_555 1_555
C9 N9 1_555 1_555
C10 N7 1_555 1_555
C14 C18 1_555 1_555
C15 N10 1_555 1_555
C16 C17 1_555 1_555
C20 N5 1_555 1_555
C20 N12 1_555 1_555
N2 N3 1_555 1_555
N4 N5 1_555 1_555
N7 N8 1_555 1_555
N10 N11 1_555 1_555
O1 O22B 1_555 1_555
O2 W4 1_555 1_555
O7 W6 1_555 1_555
O9 W2 1_555 1_555
O10 W5B 1_555 1_555
O11 W6 1_555 1_555
O11 O22B 1_555 1_555
O14 W5 1_555 1_555
O15 W3 1_555 1_555
O16 W6 1_555 1_555
O17 O22 1_555 1_555
O17 W2 1_555 1_555
O17 W3 1_555 1_555
O22 W3 1_555 1_555
O22 O1B 1_555 1_555
O22 O11B 1_555 1_555
C2B N2B 1_555 1_555
C5B N1B 1_555 1_555
C6B N6B 1_555 1_555
C7B N6B 1_555 1_555
C8B N9B 1_555 1_555
C9B N9B 1_555 1_555
C10B N7B 1_555 1_555
C14B C18B 1_555 1_555
C15B N10B 1_555 1_555
C16B C17B 1_555 1_555
C20B N5B 1_555 1_555
C20B N12B 1_555 1_555
N2B N3B 1_555 1_555
N4B N5B 1_555 1_555
N7B N8B 1_555 1_555
N10B N11B 1_555 1_555
O1B O17B 1_555 1_555
O1B W4B 1_555 1_555
O11B W5B 1_555 1_555
O11B W6B 1_555 1_555
O17B O22B 1_555 1_555
O17B W2B 1_555 1_555
O22B W3B 1_555 1_555
O2B W4B 1_555 1_555
O3B W3B 1_555 1_555
O4B W6B 1_555 1_555
O5B W3B 1_555 1_555
O6B W4B 1_555 1_555
O7B W6B 1_555 1_555
O9B W2B 1_555 1_555
O10B W2B 1_555 1_555
O14B W5B 1_555 1_555
O15B W3B 1_555 1_555
O16B W6B 1_555 1_555
O20B W3B 1_555 1_555

#END
