
#######################################################################
#
#                 Cambridge Crystallographic Data Centre
#                                CCDC 
#
#######################################################################
#
# If this CIF has been generated from an entry in the Cambridge 
# Structural Database, then it will include bibliographic, chemical, 
# crystal, experimental, refinement or atomic coordinate data resulting 
# from the CCDC's data processing and validation procedures.
#
#######################################################################

data_DEZMOL
_symmetry_cell_setting           monoclinic
_symmetry_space_group_name_H-M   'C 2'
_symmetry_Int_Tables_number      5
_space_group_name_Hall           'C 2y'
loop_
_symmetry_equiv_pos_site_id
_symmetry_equiv_pos_as_xyz
1 x,y,z
2 -x,y,-z
3 1/2+x,1/2+y,z
4 1/2-x,1/2+y,-z
_cell_length_a                   10.194(4)
_cell_length_b                   13.491(6)
_cell_length_c                   8.140(3)
_cell_angle_alpha                90
_cell_angle_beta                 120.372(4)
_cell_angle_gamma                90
_cell_volume                     965.836
loop_
_atom_site_label
_atom_site_type_symbol
_atom_site_fract_x
_atom_site_fract_y
_atom_site_fract_z
Cd1 Cd 0.5000 0.48215(2) 1.0000
Cd2 Cd 1.0000 0.27857(2) 1.0000
N1 N 0.2405(9) 0.4737(11) 0.8478(11)
N2 N 0.7432(12) 0.2887(12) 0.8553(14)
N3 N 0.5047(3) 0.6234(7) 0.6697(3)
C1 C 0.7839(4) 0.6242(13) 0.8517(4)
H1 H 0.7649 0.6043 0.9510
H2 H 0.8328 0.6878 0.8820
H3 H 0.8486 0.5763 0.8404
C2 C 0.6370(3) 0.6306(11) 0.6678(4)
C3 C 0.3676(3) 0.6253(9) 0.5059(4)
C4 C 0.2273(3) 0.6310(12) 0.5197(4)
H4 H 0.2427 0.5949 0.6297
H5 H 0.1435 0.6027 0.4074
H6 H 0.2055 0.6991 0.5308
C5 C 0.6255(12) 0.3260(6) 0.7933(14)
C6 C 0.1241(11) 0.4371(6) 0.7906(11)
O1 O 0.5083(2) 0.6275(7) 0.8364(3)
S1 S -0.0433(4) 0.3863(2) 0.7051(5)
S2 S 0.4533(4) 0.3740(2) 0.7068(5)
Cd1_2 Cd 0.5000 0.48215(2) 0.0000
Cd2B Cd 0.5000 0.77857(2) 1.0000
Cd2_2 Cd 0.0000 0.27857(2) 1.0000
Cd2B_2 Cd 0.5000 0.77857(2) 0.0000
N1A N 0.7595(9) 0.4737(11) 1.1522(11)
N2A N 0.2568(12) 0.2887(12) 1.1447(14)
N2A_2 N 1.2568(12) 0.2887(12) 1.1447(14)
N3A N 0.4953(3) 0.6234(7) 0.3303(3)
C1A C 0.2161(4) 0.6242(13) 0.1483(4)
H1A H 0.2351 0.6043 0.0490
H2A H 0.1672 0.6878 0.1180
H3A H 0.1514 0.5763 0.1596
C2A C 0.3630(3) 0.6306(11) 0.3322(4)
C3A C 0.6324(3) 0.6253(9) 0.4941(4)
C4A C 0.7727(3) 0.6310(12) 0.4803(4)
H4A H 0.7573 0.5949 0.3703
H5A H 0.8565 0.6027 0.5926
H6A H 0.7945 0.6991 0.4692
C5A C 0.3745(12) 0.3260(6) 1.2067(14)
C6A C 0.8759(11) 0.4371(6) 1.2094(11)
O1A O 0.4917(2) 0.6275(7) 0.1636(3)
O1A_2 O 0.4917(2) 0.6275(7) 1.1636(3)
O1B O 1.0083(2) 0.1275(7) 0.8364(3)
O1C O 0.9917(2) 0.1275(7) 1.1636(3)
S1A S 1.0433(4) 0.3863(2) 1.2949(5)
S1_2 S 0.9567(4) 0.3863(2) 0.7051(5)
S2A S 0.5467(4) 0.3740(2) 1.2932(5)
loop_
_geom_bond_atom_site_label_1
_geom_bond_atom_site_label_2
_geom_bond_site_symmetry_1
_geom_bond_site_symmetry_2
Cd1 N1 1_555 1_555
Cd2 N2 1_555 1_555
N1 C6 1_555 1_555
N2 C5 1_555 1_555
N3 C2 1_555 1_555
C1 H1 1_555 1_555
H2 C1 1_555 1_555
H3 C1 1_555 1_555
C2 C1 1_555 1_555
C3 N3 1_555 1_555
C4 C3 1_555 1_555
H4 C4 1_555 1_555
H5 C4 1_555 1_555
H6 C4 1_555 1_555
C5 S2 1_555 1_555
C6 S1 1_555 1_555
O1 Cd1 1_555 1_555
S1 Cd2_2 1_555 1_555
S2 Cd1 1_555 1_555
Cd1_2 O1A 1_555 1_555
Cd2B O1 1_555 1_555
Cd2_2 N2A 1_555 1_555
Cd2B_2 O1A 1_555 1_555
N1A Cd1 1_555 1_555
N2A C5A 1_555 1_555
N2A_2 Cd2 1_555 1_555
N3A C2A 1_555 1_555
C1A H1A 1_555 1_555
H2A C1A 1_555 1_555
H3A C1A 1_555 1_555
C2A C3 1_555 1_555
C3A C2 1_555 1_555
C4A C3A 1_555 1_555
H4A C4A 1_555 1_555
H5A C4A 1_555 1_555
H6A C4A 1_555 1_555
C5A S2A 1_555 1_555
C6A N1A 1_555 1_555
O1A N3A 1_555 1_555
O1A_2 Cd1 1_555 1_555
O1B Cd2 1_555 1_555
O1C Cd2 1_555 1_555
S1A Cd2 1_555 1_555
S1_2 Cd2 1_555 1_555
S2A Cd1 1_555 1_555
N3 O1 1_555 1_555
Cd2B O1A_2 1_555 1_555
N3A C3A 1_555 1_555
C1A C2A 1_555 1_555
C6A S1A 1_555 1_555

#END
