
#######################################################################
#
#                 Cambridge Crystallographic Data Centre
#                                CCDC 
#
#######################################################################
#
# If this CIF has been generated from an entry in the Cambridge 
# Structural Database, then it will include bibliographic, chemical, 
# crystal, experimental, refinement or atomic coordinate data resulting 
# from the CCDC's data processing and validation procedures.
#
#######################################################################

data_DEZNIH
_symmetry_cell_setting           triclinic
_symmetry_space_group_name_H-M   'P -1'
_symmetry_Int_Tables_number      2
_space_group_name_Hall           '-P 1'
loop_
_symmetry_equiv_pos_site_id
_symmetry_equiv_pos_as_xyz
1 x,y,z
2 -x,-y,-z
_cell_length_a                   11.170(3)
_cell_length_b                   12.706(3)
_cell_length_c                   18.955(5)
_cell_angle_alpha                84.055(4)
_cell_angle_beta                 86.911(4)
_cell_angle_gamma                72.887(4)
_cell_volume                     2556.5
loop_
_atom_site_label
_atom_site_type_symbol
_atom_site_fract_x
_atom_site_fract_y
_atom_site_fract_z
W1 W 0.7765(2) 0.35510(17) 0.04368(11)
W2 W 0.9030(2) 0.79157(16) -0.02232(11)
W3 W 0.92186(19) 0.34852(16) -0.12822(11)
W4 W 0.8370(2) 0.63931(19) -0.15409(12)
W5 W 0.8422(2) 0.51784(17) 0.16880(11)
W6 W 0.6784(2) 0.6463(2) 0.01322(12)
P1 P 1.0000 0.5000 0.0000
O1 O 1.101(8) 0.394(7) 0.028(4)
O2 O 0.985(8) 0.498(7) -0.078(4)
O3 O 0.694(4) 0.659(3) -0.088(2)
O4 O 0.868(4) 0.755(4) -0.115(2)
O5 O 0.957(4) 0.760(3) 0.069(2)
O6 O 0.769(4) 0.519(4) 0.248(2)
O7 O 0.531(4) 0.719(4) 0.025(2)
O8 O 0.886(4) 0.271(4) -0.183(2)
O9 O 0.764(4) 0.698(3) -0.227(2)
O10 O 0.790(4) 0.398(4) 0.135(2)
O11 O 0.925(4) 0.246(3) 0.056(2)
O12 O 0.767(4) 0.753(4) 0.014(2)
O13 O 1.071(4) 0.375(4) -0.163(2)
O14 O 0.858(4) 0.928(3) -0.032(2)
O15 O 1.004(4) 0.596(4) -0.190(2)
O16 O 0.664(4) 0.499(4) 0.019(2)
O17 O 0.716(4) 0.616(4) 0.115(2)
O18 O 0.669(4) 0.288(4) 0.065(2)
O19 O 0.804(4) 0.346(3) -0.058(2)
O20 O 0.830(4) 0.486(4) -0.153(2)
O21 O 1.035(8) 0.602(7) 0.011(4)
O22 O 0.881(8) 0.497(7) 0.038(4)
O1A O 0.899(8) 0.606(7) -0.028(4)
O2A O 1.015(8) 0.502(7) 0.078(4)
O21A O 0.965(8) 0.398(7) -0.011(4)
O22A O 1.119(8) 0.503(7) -0.038(4)
W1A W 1.2235(2) 0.64490(17) -0.04368(11)
W2A W 1.0970(2) 0.20843(16) 0.02232(11)
W3A W 1.07814(19) 0.65148(16) 0.12822(11)
W4A W 1.1630(2) 0.36069(19) 0.15409(12)
W5A W 1.1578(2) 0.48216(17) -0.16880(11)
W6A W 1.3216(2) 0.3537(2) -0.01322(12)
O3A O 1.306(4) 0.341(3) 0.088(2)
O4A O 1.132(4) 0.245(4) 0.115(2)
O5A O 1.043(4) 0.240(3) -0.069(2)
O6A O 1.231(4) 0.481(4) -0.248(2)
O7A O 1.469(4) 0.281(4) -0.025(2)
O8A O 1.114(4) 0.729(4) 0.183(2)
O9A O 1.236(4) 0.302(3) 0.227(2)
O10A O 1.210(4) 0.602(4) -0.135(2)
O11A O 1.075(4) 0.754(3) -0.056(2)
O12A O 1.233(4) 0.247(4) -0.014(2)
O13A O 0.929(4) 0.625(4) 0.163(2)
O14A O 1.142(4) 0.072(3) 0.032(2)
O15A O 0.996(4) 0.404(4) 0.190(2)
O16A O 1.336(4) 0.501(4) -0.019(2)
O17A O 1.284(4) 0.384(4) -0.115(2)
O18A O 1.331(4) 0.712(4) -0.065(2)
O19A O 1.196(4) 0.654(3) 0.058(2)
O20A O 1.170(4) 0.514(4) 0.153(2)
O23 O 0.253(4) 0.860(3) 0.089(2)
W7 W 0.3450(2) 0.04404(17) 0.33526(12)
W8 W 0.60866(19) 0.14090(17) 0.35106(11)
W9 W 0.19490(18) 0.18602(16) 0.48256(11)
W10 W 0.75776(19) 0.10226(17) 0.51597(11)
W11 W 0.4540(2) 0.28878(16) 0.49447(11)
W12 W 0.64883(19) -0.14644(17) 0.35481(12)
P2 P 0.5000 0.0000 0.5000
O24 O 0.382(8) 0.019(7) 0.477(4)
O25 O 0.408(8) 0.108(7) 0.519(4)
O26 O 0.516(8) 0.006(7) 0.415(4)
O27 O 0.556(8) 0.092(7) 0.474(4)
O28 O 0.219(4) 0.177(3) 0.582(2)
O29 O 0.506(4) 0.266(3) 0.402(2)
O30 O 0.407(4) 0.252(4) 0.591(2)
O31 O 0.679(4) -0.001(4) 0.328(2)
O32 O 0.297(4) 0.286(3) 0.471(2)
O33 O 0.662(4) 0.205(3) 0.280(2)
O34 O 0.271(4) 0.060(4) 0.260(2)
O35 O 0.717(4) -0.216(3) 0.285(2)
O36 O 0.282(4) -0.067(3) 0.391(2)
O37 O 0.876(4) 0.139(4) 0.526(2)
O38 O 0.162(4) 0.051(4) 0.494(2)
O39 O 0.622(4) 0.230(4) 0.522(2)
O40 O 0.733(4) 0.122(3) 0.415(2)
O41 O 0.455(4) 0.131(4) 0.315(2)
O42 O 0.246(4) 0.149(3) 0.388(2)
O43 O 0.440(4) 0.424(4) 0.495(2)
O44 O 0.053(4) 0.276(3) 0.472(2)
O45 O 0.489(4) -0.082(3) 0.327(2)
O24A O 0.618(8) -0.019(7) 0.523(4)
O25A O 0.592(8) -0.108(7) 0.481(4)
O26A O 0.484(8) -0.006(7) 0.585(4)
O27A O 0.444(8) -0.092(7) 0.526(4)
W7A W 0.6550(2) -0.04404(17) 0.66474(12)
W8A W 0.39134(19) -0.14090(17) 0.64894(11)
W9A W 0.80510(18) -0.18602(16) 0.51744(11)
W10A W 0.24224(19) -0.10226(17) 0.48403(11)
W11A W 0.5460(2) -0.28878(16) 0.50553(11)
W12A W 0.35117(19) 0.14644(17) 0.64519(12)
O28A O 0.781(4) -0.177(3) 0.418(2)
O29A O 0.494(4) -0.266(3) 0.598(2)
O30A O 0.593(4) -0.252(4) 0.409(2)
O31A O 0.321(4) 0.001(4) 0.672(2)
O32A O 0.703(4) -0.286(3) 0.529(2)
O33A O 0.338(4) -0.205(3) 0.720(2)
O34A O 0.729(4) -0.060(4) 0.740(2)
O35A O 0.283(4) 0.216(3) 0.715(2)
O36A O 0.718(4) 0.067(3) 0.609(2)
O37A O 0.124(4) -0.139(4) 0.474(2)
O38A O 0.838(4) -0.051(4) 0.506(2)
O39A O 0.378(4) -0.230(4) 0.478(2)
O40A O 0.267(4) -0.122(3) 0.585(2)
O41A O 0.545(4) -0.131(4) 0.685(2)
O42A O 0.754(4) -0.149(3) 0.612(2)
O43A O 0.560(4) -0.424(4) 0.505(2)
O44A O 0.947(4) -0.276(3) 0.528(2)
O45A O 0.511(4) 0.082(3) 0.673(2)
O46 O 0.740(6) 0.405(5) 0.399(3)
O47 O 0.708(4) 0.050(3) 0.042(2)
Ag1 Ag 0.5080(3) 0.2525(3) 0.1619(2)
Ag2 Ag 1.0116(5) -0.1590(3) 0.3503(3)
Ag3 Ag 0.4412(4) 0.7732(3) 0.1439(2)
Ag4 Ag 0.9738(5) 0.3532(3) 0.3373(3)
N1 N 0.541(4) 0.079(3) 0.141(2)
N2 N 0.654(4) 0.001(3) 0.143(2)
N3 N 0.993(4) 0.011(3) 0.315(2)
N4 N 0.967(4) 0.194(3) 0.311(2)
N5 N 0.978(4) 0.060(3) 0.245(2)
N6 N 0.058(4) 0.492(3) 0.339(2)
N7 N 0.054(4) 0.662(3) 0.350(2)
N8 N 0.439(4) 0.602(3) 0.182(2)
N9 N 0.478(4) 0.423(3) 0.189(2)
N10 N 0.521(4) -0.088(3) 0.136(2)
N11 N 0.172(4) 0.595(3) 0.360(2)
N12 N 0.470(4) 0.561(3) 0.248(2)
C1 C 0.982(5) 0.094(4) 0.352(3)
H1 H 0.9836 0.0875 0.4012
C2 C 0.963(5) 0.166(4) 0.246(3)
H2 H 0.9516 0.2157 0.2061
C3 C 0.994(5) -0.009(4) 0.186(3)
H3 H 1.0653 -0.0744 0.1942
H4 H 1.0108 0.0317 0.1421
C4 C 0.878(5) -0.043(4) 0.179(3)
H5 H 0.8984 -0.1029 0.1479
H6 H 0.8557 -0.0730 0.2250
C5 C 0.766(5) 0.045(4) 0.150(3)
H7 H 0.7874 0.0761 0.1041
H8 H 0.7421 0.1034 0.1816
C6 C 0.642(5) -0.094(4) 0.141(3)
H9 H 0.7074 -0.1591 0.1429
C7 C 0.462(5) 0.025(4) 0.137(3)
H10 H 0.3759 0.0569 0.1350
C8 C 0.343(5) 0.691(4) 0.325(3)
H11 H 0.2901 0.7182 0.2838
H12 H 0.3451 0.7540 0.3488
C9 C 0.282(5) 0.608(4) 0.379(3)
H13 H 0.3430 0.5357 0.3847
H14 H 0.2685 0.6365 0.4255
C10 C 0.169(5) 0.488(4) 0.353(3)
H15 H 0.2373 0.4251 0.3569
C11 C 0.468(5) 0.634(4) 0.301(3)
H16 H 0.5150 0.5917 0.3415
H17 H 0.5099 0.6880 0.2818
C12 C 0.439(5) 0.518(4) 0.146(3)
H18 H 0.4168 0.5237 0.0987
C13 C 0.505(5) 0.455(4) 0.254(3)
H19 H 0.5400 0.4089 0.2937
C14 C -0.013(5) 0.603(4) 0.339(3)
H20 H -0.0988 0.6286 0.3325
Ag2_2 Ag 0.0116(5) 0.8410(3) 0.3503(3)
Ag3_2 Ag 0.4412(4) -0.2268(3) 0.1439(2)
Ag4_2 Ag -0.0262(5) 0.3532(3) 0.3373(3)
N6_2 N 1.058(4) 0.492(3) 0.339(2)
N7_2 N 1.054(4) -0.338(3) 0.350(2)
N10_2 N 0.521(4) 0.912(3) 0.136(2)
loop_
_geom_bond_atom_site_label_1
_geom_bond_atom_site_label_2
_geom_bond_site_symmetry_1
_geom_bond_site_symmetry_2
Ag1 N1 1_555 1_555
Ag2 N3 1_555 1_555
Ag3 N8 1_555 1_555
Ag4 N4 1_555 1_555
N1 N2 1_555 1_555
N2 C5 1_555 1_555
N3 N5 1_555 1_555
N4 C1 1_555 1_555
N5 C2 1_555 1_555
N6 C10 1_555 1_555
N7 N11 1_555 1_555
N8 N12 1_555 1_555
N9 Ag1 1_555 1_555
N10 C6 1_555 1_555
N11 C9 1_555 1_555
N12 C11 1_555 1_555
C1 N3 1_555 1_555
H1 C1 1_555 1_555
C2 N4 1_555 1_555
H2 C2 1_555 1_555
C3 N5 1_555 1_555
H3 C3 1_555 1_555
H4 C3 1_555 1_555
C4 C3 1_555 1_555
H5 C4 1_555 1_555
H6 C4 1_555 1_555
C5 C4 1_555 1_555
H7 C5 1_555 1_555
H8 C5 1_555 1_555
C6 N2 1_555 1_555
H9 C6 1_555 1_555
C7 N1 1_555 1_555
H10 C7 1_555 1_555
C8 H11 1_555 1_555
H12 C8 1_555 1_555
C9 C8 1_555 1_555
H13 C9 1_555 1_555
H14 C9 1_555 1_555
C10 N11 1_555 1_555
H15 C10 1_555 1_555
C11 C8 1_555 1_555
H16 C11 1_555 1_555
H17 C11 1_555 1_555
C12 N8 1_555 1_555
H18 C12 1_555 1_555
C13 N9 1_555 1_555
H19 C13 1_555 1_555
C14 N6 1_555 1_555
H20 C14 1_555 1_555
W1 O10 1_555 1_555
W2 O4 1_555 1_555
W3 O2 1_555 1_555
W4 O2 1_555 1_555
W5 O6 1_555 1_555
W6 O3 1_555 1_555
P1 O1 1_555 1_555
O1 O2A 1_555 1_555
O2 P1 1_555 1_555
O3 W4 1_555 1_555
O4 W4 1_555 1_555
O5 W2 1_555 1_555
O7 W6 1_555 1_555
O8 W3 1_555 1_555
O9 W4 1_555 1_555
O10 W5 1_555 1_555
O11 W1 1_555 1_555
O12 W2 1_555 1_555
O13 W3 1_555 1_555
O14 W2 1_555 1_555
O15 W4 1_555 1_555
O16 W1 1_555 1_555
O17 W5 1_555 1_555
O18 W1 1_555 1_555
O19 W1 1_555 1_555
O20 W3 1_555 1_555
O21 W2 1_555 1_555
O22 W1 1_555 1_555
W7 O26 1_555 1_555
W8 O26 1_555 1_555
W9 O25 1_555 1_555
W10 O27 1_555 1_555
W11 O25 1_555 1_555
W12 O26 1_555 1_555
P2 O24 1_555 1_555
O24 O25 1_555 1_555
O25 P2 1_555 1_555
O26 P2 1_555 1_555
O27 W8 1_555 1_555
O28 W9 1_555 1_555
O29 W8 1_555 1_555
O30 W11 1_555 1_555
O31 W8 1_555 1_555
O32 W9 1_555 1_555
O33 W8 1_555 1_555
O34 W7 1_555 1_555
O35 W12 1_555 1_555
O36 W7 1_555 1_555
O37 W10 1_555 1_555
O38 W9 1_555 1_555
O39 W10 1_555 1_555
O40 W8 1_555 1_555
O41 W7 1_555 1_555
O42 W7 1_555 1_555
O43 W11 1_555 1_555
O44 W9 1_555 1_555
O45 W7 1_555 1_555
Ag2_2 N7 1_555 1_555
Ag3_2 N10 1_555 1_555
Ag4_2 N6 1_555 1_555
N6_2 Ag4 1_555 1_555
N7_2 Ag2 1_555 1_555
N10_2 Ag3 1_555 1_555
O1A W2 1_555 1_555
O2A W5 1_555 1_555
O21A W1 1_555 1_555
O22A P1 1_555 1_555
W1A O21 1_555 1_555
W2A O1 1_555 1_555
W3A O5 1_555 1_555
W4A O1 1_555 1_555
W5A O2 1_555 1_555
W6A O1 1_555 1_555
O3A W4A 1_555 1_555
O4A W2A 1_555 1_555
O5A W3 1_555 1_555
O6A W5A 1_555 1_555
O7A W6A 1_555 1_555
O8A W3A 1_555 1_555
O9A W4A 1_555 1_555
O10A W1A 1_555 1_555
O11A W2 1_555 1_555
O12A W2A 1_555 1_555
O13A W5 1_555 1_555
O14A W2A 1_555 1_555
O15A W5 1_555 1_555
O16A W1A 1_555 1_555
O17A W5A 1_555 1_555
O18A W1A 1_555 1_555
O19A W1A 1_555 1_555
O20A W3A 1_555 1_555
O24A W10 1_555 1_555
O25A P2 1_555 1_555
O26A P2 1_555 1_555
O27A P2 1_555 1_555
W7A O26A 1_555 1_555
W8A O26A 1_555 1_555
W9A O25A 1_555 1_555
W10A O24 1_555 1_555
W11A O25A 1_555 1_555
W12A O28 1_555 1_555
O28A W12 1_555 1_555
O29A W8A 1_555 1_555
O30A W12 1_555 1_555
O31A W8A 1_555 1_555
O32A W9A 1_555 1_555
O33A W8A 1_555 1_555
O34A W7A 1_555 1_555
O35A W12A 1_555 1_555
O36A W10 1_555 1_555
O37A W10A 1_555 1_555
O38A W10 1_555 1_555
O39A W10A 1_555 1_555
O40A W8A 1_555 1_555
O41A W7A 1_555 1_555
O42A W7A 1_555 1_555
O43A W11A 1_555 1_555
O44A W9A 1_555 1_555
O45A W7A 1_555 1_555
N7 C14 1_555 1_555
N9 C12 1_555 1_555
N10 C7 1_555 1_555
N12 C13 1_555 1_555
W3 O19 1_555 1_555
W3 O21A 1_555 1_555
W4 O20 1_555 1_555
W4 O1A 1_555 1_555
W6 O12 1_555 1_555
W6 O16 1_555 1_555
W6 O17 1_555 1_555
W6 O1A 1_555 1_555
P1 O21 1_555 1_555
P1 O22 1_555 1_555
P1 O1A 1_555 1_555
P1 O2A 1_555 1_555
P1 O21A 1_555 1_555
O1 O21A 1_555 1_555
O2 O1A 1_555 1_555
O2 O21A 1_555 1_555
O2 O22A 1_555 1_555
O11 W2A 1_555 1_555
O13 W5A 1_555 1_555
O15 W5A 1_555 1_555
O21 O1A 1_555 1_555
O21 O2A 1_555 1_555
O21 O22A 1_555 1_555
O21 W3A 1_555 1_555
O22 O2A 1_555 1_555
O22 O21A 1_555 1_555
W8 O41 1_555 1_555
W9 O42 1_555 1_555
W10 O40 1_555 1_555
W11 O27 1_555 1_555
W11 O29 1_555 1_555
W11 O32 1_555 1_555
W11 O39 1_555 1_555
W12 O31 1_555 1_555
W12 O45 1_555 1_555
P2 O27 1_555 1_555
P2 O24A 1_555 1_555
O24 O27A 1_555 1_555
O25 O27 1_555 1_555
O26 O27 1_555 1_555
O27 O24A 1_555 1_555
O30 W12A 1_555 1_555
O36 W10A 1_555 1_555
O38 W10A 1_555 1_555
O2A W3A 1_555 1_555
O2A W4A 1_555 1_555
O21A W2A 1_555 1_555
O22A W1A 1_555 1_555
W1A O11A 1_555 1_555
W2A O5A 1_555 1_555
W3A O13A 1_555 1_555
W3A O19A 1_555 1_555
W4A O4A 1_555 1_555
W4A O15A 1_555 1_555
W4A O20A 1_555 1_555
W5A O10A 1_555 1_555
W6A O3A 1_555 1_555
W6A O12A 1_555 1_555
W6A O16A 1_555 1_555
W6A O17A 1_555 1_555
O24A O25A 1_555 1_555
O25A O27A 1_555 1_555
O26A O27A 1_555 1_555
O26A W12A 1_555 1_555
O27A W8A 1_555 1_555
O27A W10A 1_555 1_555
O27A W11A 1_555 1_555
W7A O36A 1_555 1_555
W8A O41A 1_555 1_555
W9A O28A 1_555 1_555
W9A O38A 1_555 1_555
W9A O42A 1_555 1_555
W10A O40A 1_555 1_555
W11A O29A 1_555 1_555
W11A O30A 1_555 1_555
W11A O32A 1_555 1_555
W11A O39A 1_555 1_555
W12A O31A 1_555 1_555
W12A O45A 1_555 1_555

#END
