
#######################################################################
#
#                 Cambridge Crystallographic Data Centre
#                                CCDC 
#
#######################################################################
#
# If this CIF has been generated from an entry in the Cambridge 
# Structural Database, then it will include bibliographic, chemical, 
# crystal, experimental, refinement or atomic coordinate data resulting 
# from the CCDC's data processing and validation procedures.
#
#######################################################################

data_DEZPUU
_symmetry_cell_setting           monoclinic
_symmetry_space_group_name_H-M   'C 2/m'
_symmetry_Int_Tables_number      12
_space_group_name_Hall           '-C 2y'
loop_
_symmetry_equiv_pos_site_id
_symmetry_equiv_pos_as_xyz
1 x,y,z
2 1/2+x,1/2+y,z
3 -x,y,-z
4 1/2-x,1/2+y,-z
5 -x,-y,-z
6 1/2-x,1/2-y,-z
7 x,-y,z
8 1/2+x,1/2-y,z
_cell_length_a                   15.909(5)
_cell_length_b                   23.537(5)
_cell_length_c                   21.310(5)
_cell_angle_alpha                90
_cell_angle_beta                 100.580(5)
_cell_angle_gamma                90
_cell_volume                     7843.88
loop_
_atom_site_label
_atom_site_type_symbol
_atom_site_fract_x
_atom_site_fract_y
_atom_site_fract_z
Cu1 Cu 0.18616(15) 0.17976(9) 0.77724(8)
Cu2 Cu -0.02358(15) 0.24697(9) 0.73579(8)
Si1 Si -0.1818(3) 0.0000 0.7470(2)
W1 W -0.12057(4) 0.07802(2) 0.89085(3)
W2 W -0.17721(5) 0.14849(2) 0.75104(3)
W3 W -0.37989(4) 0.07204(3) 0.71604(3)
W4 W -0.32285(6) 0.0000 0.85596(4)
W5 W -0.23708(4) 0.07223(2) 0.60013(3)
W6 W 0.00965(4) 0.07706(2) 0.78082(3)
W7 W -0.04930(6) 0.0000 0.63088(3)
O1 O -0.0102(8) 0.0889(4) 0.8676(5)
O2 O 0.0319(9) 0.0000 0.8016(6)
O3 O -0.1875(7) 0.2199(4) 0.7430(4)
O4 O -0.0102(7) 0.0553(4) 0.6945(4)
O5 O -0.0923(9) 0.0000 0.9050(7)
O6 O 0.0298(11) 0.0000 0.5884(7)
O7 O -0.1888(7) 0.1225(4) 0.6663(5)
O8 O -0.1778(9) 0.0000 0.6728(6)
O9 O -0.1027(7) 0.1065(5) 0.9653(4)
O10 O -0.0533(6) 0.1467(4) 0.7579(4)
O11 O 0.1094(7) 0.1049(4) 0.7903(5)
O12 O -0.1339(7) 0.0565(4) 0.7800(4)
O13 O -0.2789(9) 0.0000 0.7567(6)
O14 O -0.2717(10) 0.0000 0.5600(7)
O15 O -0.1570(8) 0.1462(5) 0.8429(5)
O16 O -0.1224(7) 0.0561(4) 0.5839(5)
O17 O -0.2918(7) 0.1231(5) 0.7471(5)
O18 O -0.4340(13) 0.0000 0.6954(7)
O19 O -0.4632(9) 0.1171(5) 0.6955(6)
O20 O -0.2376(7) 0.0554(4) 0.8799(5)
O21 O -0.2705(8) 0.1157(4) 0.5372(5)
O22 O -0.3747(12) 0.0000 0.9188(8)
O23 O -0.3331(8) 0.0681(4) 0.6410(5)
O24 O -0.3890(8) 0.0563(4) 0.8042(5)
N1 N 0.1645(9) 0.1939(6) 0.6872(5)
N2 N 0.2432(10) 0.1876(5) 0.8656(5)
N3 N 0.4697(9) 0.2366(5) 1.1793(5)
N4 N 0.0622(9) 0.2390(6) 0.3544(5)
C1 C 0.0512(10) 0.1884(6) 0.3812(6)
H1 H 0.0265 0.1587 0.3555
C2 C 0.1354(10) 0.2576(7) 0.5990(6)
H2 H 0.1250 0.2946 0.5843
C3 C 0.1159(10) 0.2226(6) 0.4842(6)
C4 C 0.3323(10) 0.2033(6) 0.9893(6)
C5 C 0.1498(11) 0.2467(7) 0.6624(6)
H3 H 0.1497 0.2771 0.6904
C6 C 0.3775(11) 0.2141(6) 1.0549(6)
C7 C 0.1659(13) 0.1508(7) 0.6451(7)
H4 H 0.1758 0.1141 0.6610
C8 C 0.2327(11) 0.1523(7) 0.9124(6)
H5 H 0.1954 0.1219 0.9025
C9 C 0.1536(11) 0.1585(7) 0.5811(7)
H6 H 0.1567 0.1276 0.5543
C10 C 0.2749(12) 0.1586(7) 0.9753(6)
H7 H 0.2649 0.1336 1.0069
C11 C 0.2966(12) 0.2294(8) 0.8811(7)
H8 H 0.3039 0.2549 0.8492
C12 C 0.3417(13) 0.2384(7) 0.9399(7)
H9 H 0.3798 0.2687 0.9471
C13 C 0.0755(11) 0.1801(7) 0.4447(6)
H10 H 0.0649 0.1452 0.4622
C14 C 0.4300(11) 0.2625(7) 1.0700(7)
H11 H 0.4351 0.2886 1.0381
C15 C 0.1290(12) 0.2739(7) 0.4572(7)
H12 H 0.1560 0.3035 0.4820
C16 C 0.1361(11) 0.2126(7) 0.5553(6)
C17 C 0.4735(12) 0.2714(7) 1.1309(6)
H13 H 0.5076 0.3036 1.1388
C18 C 0.1012(12) 0.2807(7) 0.3923(6)
H14 H 0.1098 0.3156 0.3740
C19 C 0.4189(14) 0.1919(7) 1.1656(7)
H15 H 0.4145 0.1665 1.1983
C20 C 0.3724(14) 0.1807(7) 1.1060(6)
H16 H 0.3363 0.1493 1.1005
Cu1F Cu 0.18616(15) -0.17976(9) 0.77724(8)
Cu1E Cu 0.31384(15) 0.32024(9) 1.22276(8)
Cu1B Cu -0.18616(15) 0.17976(9) 0.22276(8)
Cu2F Cu -0.02358(15) -0.24697(9) 0.73579(8)
Cu2E Cu 0.52358(15) 0.25303(9) 1.26421(8)
Cu2B Cu 0.02358(15) 0.24697(9) 0.26421(8)
W1F W -0.12057(4) -0.07802(2) 0.89085(3)
W2F W -0.17721(5) -0.14849(2) 0.75104(3)
W3F W -0.37989(4) -0.07204(3) 0.71604(3)
W5F W -0.23708(4) -0.07223(2) 0.60013(3)
W6F W 0.00965(4) -0.07706(2) 0.78082(3)
O1F O -0.0102(8) -0.0889(4) 0.8676(5)
O3F O -0.1875(7) -0.2199(4) 0.7430(4)
O4F O -0.0102(7) -0.0553(4) 0.6945(4)
O7F O -0.1888(7) -0.1225(4) 0.6663(5)
O9F O -0.1027(7) -0.1065(5) 0.9653(4)
O10F O -0.0533(6) -0.1467(4) 0.7579(4)
O11F O 0.1094(7) -0.1049(4) 0.7903(5)
O12F O -0.1339(7) -0.0565(4) 0.7800(4)
O15F O -0.1570(8) -0.1462(5) 0.8429(5)
O16F O -0.1224(7) -0.0561(4) 0.5839(5)
O17F O -0.2918(7) -0.1231(5) 0.7471(5)
O19F O -0.4632(9) -0.1171(5) 0.6955(6)
O20F O -0.2376(7) -0.0554(4) 0.8799(5)
O21F O -0.2705(8) -0.1157(4) 0.5372(5)
O23F O -0.3331(8) -0.0681(4) 0.6410(5)
O24F O -0.3890(8) -0.0563(4) 0.8042(5)
N1B N -0.1645(9) 0.1939(6) 0.3128(5)
N1F N 0.1645(9) -0.1939(6) 0.6872(5)
N2E N 0.2568(10) 0.3124(5) 1.1344(5)
N2F N 0.2432(10) -0.1876(5) 0.8656(5)
N3E N 0.0303(9) 0.2634(5) 0.8207(5)
N3C N 0.0303(9) -0.2634(5) 0.8207(5)
N4B N -0.0622(9) 0.2390(6) 0.6456(5)
N4D N -0.0622(9) -0.2390(6) 0.6456(5)
C1B C -0.0512(10) 0.1884(6) 0.6188(6)
H1B H -0.0265 0.1587 0.6445
C2B C -0.1354(10) 0.2576(7) 0.4010(6)
H2B H -0.1250 0.2946 0.4157
C3B C -0.1159(10) 0.2226(6) 0.5158(6)
C4E C 0.1677(10) 0.2967(6) 1.0107(6)
C5B C -0.1498(11) 0.2467(7) 0.3376(6)
H3B H -0.1497 0.2771 0.3096
C6E C 0.1225(11) 0.2859(6) 0.9451(6)
C7B C -0.1659(13) 0.1508(7) 0.3549(7)
H4B H -0.1758 0.1141 0.3390
C8E C 0.2673(11) 0.3477(7) 1.0876(6)
H5E H 0.3046 0.3781 1.0975
C9B C -0.1536(11) 0.1585(7) 0.4189(7)
H6B H -0.1567 0.1276 0.4457
C10E C 0.2251(12) 0.3414(7) 1.0247(6)
H7E H 0.2351 0.3664 0.9931
C11E C 0.2034(12) 0.2706(8) 1.1189(7)
H8E H 0.1961 0.2451 1.1508
C12E C 0.1583(13) 0.2616(7) 1.0601(7)
H9E H 0.1202 0.2313 1.0529
C13B C -0.0755(11) 0.1801(7) 0.5553(6)
H10B H -0.0649 0.1452 0.5378
C14E C 0.0700(11) 0.2375(7) 0.9300(7)
H11E H 0.0649 0.2114 0.9619
C15B C -0.1290(12) 0.2739(7) 0.5428(7)
H12B H -0.1560 0.3035 0.5180
C16B C -0.1361(11) 0.2126(7) 0.4447(6)
C17E C 0.0265(12) 0.2286(7) 0.8691(6)
H13E H -0.0076 0.1964 0.8612
C18B C -0.1012(12) 0.2807(7) 0.6077(6)
H14B H -0.1098 0.3156 0.6260
C19E C 0.0811(14) 0.3081(7) 0.8344(7)
H15E H 0.0855 0.3335 0.8017
C20E C 0.1276(14) 0.3193(7) 0.8940(6)
H16E H 0.1637 0.3507 0.8995
O25 O 0.385(2) 0.5000 0.0565(9)
O26 O -0.198(3) 0.0000 0.4369(18)
O27 O 0.210(3) 0.5000 0.0501(18)
loop_
_geom_bond_atom_site_label_1
_geom_bond_atom_site_label_2
_geom_bond_site_symmetry_1
_geom_bond_site_symmetry_2
Cu1 O11 1_555 1_555
Cu2 O10 1_555 1_555
Si1 O8 1_555 1_555
W1 O1 1_555 1_555
W2 O3 1_555 1_555
W3 O13 1_555 1_555
W4 O13 1_555 1_555
W5 O7 1_555 1_555
W6 O1 1_555 1_555
W7 O4 1_555 1_555
O2 W6 1_555 1_555
O4 W6 1_555 1_555
O5 W1 1_555 1_555
O6 W7 1_555 1_555
O7 W2 1_555 1_555
O8 W5 1_555 1_555
O9 W1 1_555 1_555
O10 W2 1_555 1_555
O11 W6 1_555 1_555
O12 Si1 1_555 1_555
O13 Si1 1_555 1_555
O14 W5 1_555 1_555
O15 W1 1_555 1_555
O16 W5 1_555 1_555
O17 W2 1_555 1_555
O18 W3 1_555 1_555
O19 W3 1_555 1_555
O20 W1 1_555 1_555
O21 W5 1_555 1_555
O22 W4 1_555 1_555
O23 W3 1_555 1_555
O24 W3 1_555 1_555
N1 Cu1 1_555 1_555
N2 Cu1 1_555 1_555
N3 C17 1_555 1_555
N4 C1 1_555 1_555
C1 H1 1_555 1_555
C2 H2 1_555 1_555
C3 C13 1_555 1_555
C4 C6 1_555 1_555
C5 N1 1_555 1_555
H3 C5 1_555 1_555
C6 C14 1_555 1_555
C7 N1 1_555 1_555
H4 C7 1_555 1_555
C8 N2 1_555 1_555
H5 C8 1_555 1_555
C9 C7 1_555 1_555
H6 C9 1_555 1_555
C10 C4 1_555 1_555
H7 C10 1_555 1_555
C11 N2 1_555 1_555
H8 C11 1_555 1_555
C12 C4 1_555 1_555
H9 C12 1_555 1_555
C13 C1 1_555 1_555
H10 C13 1_555 1_555
C14 H11 1_555 1_555
C15 C3 1_555 1_555
H12 C15 1_555 1_555
C16 C2 1_555 1_555
C17 C14 1_555 1_555
H13 C17 1_555 1_555
C18 N4 1_555 1_555
H14 C18 1_555 1_555
C19 N3 1_555 1_555
H15 C19 1_555 1_555
C20 C6 1_555 1_555
H16 C20 1_555 1_555
Cu1F O11F 1_555 1_555
Cu1E N2E 1_555 1_555
Cu1B N1B 1_555 1_555
Cu2F O10F 1_555 1_555
Cu2E N3 1_555 1_555
Cu2B N4 1_555 1_555
W1F O5 1_555 1_555
W2F O3F 1_555 1_555
W3F O13 1_555 1_555
W5F O8 1_555 1_555
W6F O2 1_555 1_555
O1F W1F 1_555 1_555
O4F W7 1_555 1_555
O7F W2F 1_555 1_555
O9F W1F 1_555 1_555
O10F W2F 1_555 1_555
O11F W6F 1_555 1_555
O12F Si1 1_555 1_555
O15F W1F 1_555 1_555
O16F W7 1_555 1_555
O17F W2F 1_555 1_555
O19F W3F 1_555 1_555
O20F W4 1_555 1_555
O21F W5F 1_555 1_555
O23F W3F 1_555 1_555
O24F W4 1_555 1_555
N1B C5B 1_555 1_555
N1F Cu1F 1_555 1_555
N2E C8E 1_555 1_555
N2F Cu1F 1_555 1_555
N3E Cu2 1_555 1_555
N3C Cu2F 1_555 1_555
N4B Cu2 1_555 1_555
N4D Cu2F 1_555 1_555
C1B N4B 1_555 1_555
H1B C1B 1_555 1_555
C2B H2B 1_555 1_555
C3B C13B 1_555 1_555
C4E C6E 1_555 1_555
C5B C2B 1_555 1_555
H3B C5B 1_555 1_555
C6E C14E 1_555 1_555
C7B N1B 1_555 1_555
H4B C7B 1_555 1_555
C8E H5E 1_555 1_555
C9B C7B 1_555 1_555
H6B C9B 1_555 1_555
C10E C4E 1_555 1_555
H7E C10E 1_555 1_555
C11E N2E 1_555 1_555
H8E C11E 1_555 1_555
C12E C4E 1_555 1_555
H9E C12E 1_555 1_555
C13B C1B 1_555 1_555
H10B C13B 1_555 1_555
C14E H11E 1_555 1_555
C15B C3B 1_555 1_555
H12B C15B 1_555 1_555
C16B C2B 1_555 1_555
C17E N3E 1_555 1_555
H13E C17E 1_555 1_555
C18B N4B 1_555 1_555
H14B C18B 1_555 1_555
C19E N3E 1_555 1_555
H15E C19E 1_555 1_555
C20E C6E 1_555 1_555
H16E C20E 1_555 1_555
W1 O12 1_555 1_555
W2 O12 1_555 1_555
W2 O15 1_555 1_555
W3 O17 1_555 1_555
W4 O20 1_555 1_555
W4 O24 1_555 1_555
W5 O23 1_555 1_555
W6 O10 1_555 1_555
W6 O12 1_555 1_555
W7 O8 1_555 1_555
W7 O16 1_555 1_555
O14 W5F 1_555 1_555
O18 W3F 1_555 1_555
C2 C5 1_555 1_555
C3 C16 1_555 1_555
C8 C10 1_555 1_555
C9 C16 1_555 1_555
C11 C12 1_555 1_555
C15 C18 1_555 1_555
C19 C20 1_555 1_555
W1F O12F 1_555 1_555
W1F O20F 1_555 1_555
W2F O12F 1_555 1_555
W2F O15F 1_555 1_555
W3F O17F 1_555 1_555
W3F O24F 1_555 1_555
W5F O7F 1_555 1_555
W5F O16F 1_555 1_555
W5F O23F 1_555 1_555
W6F O1F 1_555 1_555
W6F O4F 1_555 1_555
W6F O10F 1_555 1_555
W6F O12F 1_555 1_555
C3B C16B 1_555 1_555
C8E C10E 1_555 1_555
C9B C16B 1_555 1_555
C11E C12E 1_555 1_555
C14E C17E 1_555 1_555
C15B C18B 1_555 1_555
C19E C20E 1_555 1_555

#END
