
#######################################################################
#
#                 Cambridge Crystallographic Data Centre
#                                CCDC 
#
#######################################################################
#
# If this CIF has been generated from an entry in the Cambridge 
# Structural Database, then it will include bibliographic, chemical, 
# crystal, experimental, refinement or atomic coordinate data resulting 
# from the CCDC's data processing and validation procedures.
#
#######################################################################

data_DEZPUU01
_symmetry_cell_setting           monoclinic
_symmetry_space_group_name_H-M   'C 2/m'
_symmetry_Int_Tables_number      12
_space_group_name_Hall           '-C 2y'
loop_
_symmetry_equiv_pos_site_id
_symmetry_equiv_pos_as_xyz
1 x,y,z
2 -x,y,-z
3 1/2+x,1/2+y,z
4 1/2-x,1/2+y,-z
5 -x,-y,-z
6 x,-y,z
7 1/2-x,1/2-y,-z
8 1/2+x,1/2-y,z
_cell_length_a                   15.795(3)
_cell_length_b                   23.522(4)
_cell_length_c                   21.226(4)
_cell_angle_alpha                90
_cell_angle_beta                 100.155(13)
_cell_angle_gamma                90
_cell_volume                     7762.56
loop_
_atom_site_label
_atom_site_type_symbol
_atom_site_fract_x
_atom_site_fract_y
_atom_site_fract_z
Si1 Si 1.8189(2) 0.0000 0.74650(16)
O1 O 1.8679(4) 0.0562(3) 0.7801(3)
O2 O 1.7204(6) 0.0000 0.7559(4)
O3 O 1.8231(6) 0.0000 0.6704(4)
W1 W 2.01095(3) 0.077601(18) 0.78066(2)
W2 W 1.95232(4) 0.0000 0.62894(3)
W3 W 1.82314(3) 0.14837(2) 0.75121(2)
W4 W 1.76510(3) 0.07177(2) 0.59945(2)
W5 W 1.67596(5) 0.0000 0.85570(4)
W6 W 1.87955(3) 0.07813(2) 0.89086(2)
W7 W 1.61936(3) 0.07153(2) 0.71599(3)
O4 O 1.8139(5) 0.1224(3) 0.6662(4)
O5 O 1.8793(5) 0.0570(3) 0.5824(4)
O6 O 1.9899(5) 0.0558(3) 0.6949(4)
O7 O 1.9913(5) 0.0895(3) 0.8678(4)
O8 O 2.1134(6) 0.1044(4) 0.7893(4)
O9 O 1.9080(8) 0.0000 0.9059(6)
O10 O 1.7107(5) 0.1236(4) 0.7487(4)
O11 O 1.7639(6) 0.0555(4) 0.8796(4)
O12 O 1.6090(6) 0.0568(4) 0.8034(4)
O13 O 1.5632(9) 0.0000 0.6936(6)
O14 O 1.6695(6) 0.0676(4) 0.6412(4)
O15 O 1.8980(6) 0.1066(4) 0.9657(4)
O16 O 1.8442(5) 0.1466(3) 0.8434(4)
O17 O 1.7303(8) 0.0000 0.5579(5)
O18 O 1.7299(6) 0.1166(4) 0.5374(4)
O19 O 1.6248(10) 0.0000 0.9199(8)
O20 O 1.5351(6) 0.1168(4) 0.6954(5)
O21 O 2.0346(9) 0.0000 0.5866(6)
O22 O 2.0307(7) 0.0000 0.8022(5)
O23 O 1.9490(5) 0.1469(3) 0.7578(4)
O24 O 1.8136(5) 0.2204(3) 0.7423(4)
O1E O 1.8679(4) -0.0562(3) 0.7801(3)
W1E W 2.01095(3) -0.077601(18) 0.78066(2)
W3E W 1.82314(3) -0.14837(2) 0.75121(2)
W4E W 1.76510(3) -0.07177(2) 0.59945(2)
W6E W 1.87955(3) -0.07813(2) 0.89086(2)
W7E W 1.61936(3) -0.07153(2) 0.71599(3)
O4E O 1.8139(5) -0.1224(3) 0.6662(4)
O5E O 1.8793(5) -0.0570(3) 0.5824(4)
O6E O 1.9899(5) -0.0558(3) 0.6949(4)
O7E O 1.9913(5) -0.0895(3) 0.8678(4)
O8E O 2.1134(6) -0.1044(4) 0.7893(4)
O10E O 1.7107(5) -0.1236(4) 0.7487(4)
O11E O 1.7639(6) -0.0555(4) 0.8796(4)
O12E O 1.6090(6) -0.0568(4) 0.8034(4)
O14E O 1.6695(6) -0.0676(4) 0.6412(4)
O15E O 1.8980(6) -0.1066(4) 0.9657(4)
O16E O 1.8442(5) -0.1466(3) 0.8434(4)
O18E O 1.7299(6) -0.1166(4) 0.5374(4)
O20E O 1.5351(6) -0.1168(4) 0.6954(5)
O23E O 1.9490(5) -0.1469(3) 0.7578(4)
O24E O 1.8136(5) -0.2204(3) 0.7423(4)
Cu1 Cu 2.18985(13) 0.17980(8) 0.77684(7)
Cu2 Cu 2.02249(12) 0.24789(8) 0.26426(7)
C1 C 1.8323(6) 0.2966(4) -0.0110(3)
C2 C 1.7771(7) 0.3427(3) -0.0248(3)
H1 H 1.7693 0.3679 0.0075
C3 C 1.7336(6) 0.3513(3) -0.0869(3)
H2 H 1.6966 0.3821 -0.0962
N1 N 1.7453(6) 0.3137(4) -0.1352(3)
C4 C 1.8005(7) 0.2676(4) -0.1214(3)
H3 H 1.8083 0.2425 -0.1537
C5 C 1.8440(7) 0.2591(4) -0.0593(3)
H4 H 1.8809 0.2282 -0.0500
C6 C 1.9740(6) 0.2264(3) 0.1305(3)
H5 H 2.0080 0.1941 0.1389
C7 C 1.9304(6) 0.2369(3) 0.0688(3)
H6 H 1.9352 0.2116 0.0359
C8 C 1.8796(6) 0.2853(4) 0.0562(3)
C9 C 1.8725(6) 0.3231(3) 0.1053(4)
H7 H 1.8385 0.3555 0.0968
C10 C 1.9161(7) 0.3126(4) 0.1669(4)
H8 H 1.9114 0.3380 0.1998
N2 N 1.9669(6) 0.2643(4) 0.1796(3)
N3 N 2.1663(5) 0.1931(3) 0.6866(2)
C11 C 2.1672(6) 0.1479(3) 0.6445(3)
H9 H 2.1772 0.1112 0.6602
C12 C 2.1531(7) 0.1577(3) 0.5789(3)
H10 H 2.1537 0.1274 0.5507
C13 C 2.1382(6) 0.2126(3) 0.5554(2)
C14 C 2.1373(6) 0.2578(3) 0.5975(3)
H11 H 2.1273 0.2945 0.5817
C15 C 2.1513(6) 0.2480(3) 0.6631(3)
H12 H 2.1507 0.2783 0.6912
C16 C 2.1139(5) 0.2225(3) 0.4843(2)
C17 C 2.0746(5) 0.1788(3) 0.4458(3)
H13 H 2.0656 0.1437 0.4638
C18 C 2.0488(5) 0.1874(3) 0.3805(3)
H14 H 2.0225 0.1582 0.3547
N4 N 2.0622(5) 0.2398(3) 0.3536(2)
C19 C 2.1015(6) 0.2836(3) 0.3921(3)
H15 H 2.1105 0.3186 0.3741
C20 C 2.1274(6) 0.2749(3) 0.4574(3)
H16 H 2.1537 0.3042 0.4832
Cu1G Cu 1.68985(13) 0.32020(8) -0.22316(7)
N1G N 2.2453(6) 0.1863(4) 0.8648(3)
O25 O 2.113(2) 0.0000 0.9432(10)
O26 O 2.287(3) 0.0000 0.949(2)
O27 O 2.206(3) 0.0000 0.566(2)
O28 O 1.385(6) 0.075(4) 0.827(4)
O29 O 2.266(5) 0.0000 0.797(4)
O30 O 2.016(4) 0.417(2) 0.480(3)
loop_
_geom_bond_atom_site_label_1
_geom_bond_atom_site_label_2
_geom_bond_site_symmetry_1
_geom_bond_site_symmetry_2
Si1 O1 1_555 1_555
O1 W1 1_555 1_555
O2 Si1 1_555 1_555
O3 Si1 1_555 1_555
W1 O6 1_555 1_555
W2 O3 1_555 1_555
W3 O1 1_555 1_555
W4 O3 1_555 1_555
W5 O2 1_555 1_555
W6 O1 1_555 1_555
W7 O2 1_555 1_555
O4 W3 1_555 1_555
O5 W2 1_555 1_555
O6 W2 1_555 1_555
O7 W1 1_555 1_555
O8 W1 1_555 1_555
O9 W6 1_555 1_555
O10 W3 1_555 1_555
O11 W5 1_555 1_555
O12 W5 1_555 1_555
O13 W7 1_555 1_555
O14 W4 1_555 1_555
O15 W6 1_555 1_555
O16 W3 1_555 1_555
O17 W4 1_555 1_555
O18 W4 1_555 1_555
O19 W5 1_555 1_555
O20 W7 1_555 1_555
O21 W2 1_555 1_555
O22 W1 1_555 1_555
O23 W1 1_555 1_555
O24 W3 1_555 1_555
Cu1 N3 1_555 1_555
Cu2 N2 1_555 1_555
C1 C2 1_555 1_555
C2 H1 1_555 1_555
C3 C2 1_555 1_555
H2 C3 1_555 1_555
N1 C3 1_555 1_555
C4 N1 1_555 1_555
H3 C4 1_555 1_555
C5 C1 1_555 1_555
H4 C5 1_555 1_555
C6 H5 1_555 1_555
C7 C6 1_555 1_555
H6 C7 1_555 1_555
C8 C1 1_555 1_555
C9 C8 1_555 1_555
H7 C9 1_555 1_555
C10 C9 1_555 1_555
H8 C10 1_555 1_555
N2 C6 1_555 1_555
N3 C11 1_555 1_555
C11 H9 1_555 1_555
C12 C11 1_555 1_555
H10 C12 1_555 1_555
C13 C12 1_555 1_555
C14 C13 1_555 1_555
H11 C14 1_555 1_555
C15 N3 1_555 1_555
H12 C15 1_555 1_555
C16 C13 1_555 1_555
C17 C16 1_555 1_555
H13 C17 1_555 1_555
C18 C17 1_555 1_555
H14 C18 1_555 1_555
N4 Cu2 1_555 1_555
C19 N4 1_555 1_555
H15 C19 1_555 1_555
C20 C16 1_555 1_555
H16 C20 1_555 1_555
O1E Si1 1_555 1_555
W1E O22 1_555 1_555
W3E O1E 1_555 1_555
W4E O3 1_555 1_555
W6E O9 1_555 1_555
W7E O2 1_555 1_555
O4E W3E 1_555 1_555
O5E W2 1_555 1_555
O6E W2 1_555 1_555
O7E W1E 1_555 1_555
O8E W1E 1_555 1_555
O10E W3E 1_555 1_555
O11E W5 1_555 1_555
O12E W5 1_555 1_555
O14E W4E 1_555 1_555
O15E W6E 1_555 1_555
O16E W3E 1_555 1_555
O18E W4E 1_555 1_555
O20E W7E 1_555 1_555
O23E W1E 1_555 1_555
O24E W3E 1_555 1_555
Cu1G N1 1_555 1_555
N1G Cu1 1_555 1_555
W3 O23 1_555 1_555
W4 O4 1_555 1_555
W4 O5 1_555 1_555
W6 O7 1_555 1_555
W6 O11 1_555 1_555
W6 O16 1_555 1_555
W7 O10 1_555 1_555
W7 O12 1_555 1_555
W7 O14 1_555 1_555
O13 W7E 1_555 1_555
O17 W4E 1_555 1_555
C4 C5 1_555 1_555
C7 C8 1_555 1_555
C10 N2 1_555 1_555
C14 C15 1_555 1_555
C18 N4 1_555 1_555
C19 C20 1_555 1_555
O1E W1E 1_555 1_555
O1E W6E 1_555 1_555
W1E O6E 1_555 1_555
W3E O23E 1_555 1_555
W4E O4E 1_555 1_555
W4E O5E 1_555 1_555
W6E O7E 1_555 1_555
W6E O11E 1_555 1_555
W6E O16E 1_555 1_555
W7E O10E 1_555 1_555
W7E O12E 1_555 1_555
W7E O14E 1_555 1_555

#END
