
#######################################################################
#
#                 Cambridge Crystallographic Data Centre
#                                CCDC 
#
#######################################################################
#
# If this CIF has been generated from an entry in the Cambridge 
# Structural Database, then it will include bibliographic, chemical, 
# crystal, experimental, refinement or atomic coordinate data resulting 
# from the CCDC's data processing and validation procedures.
#
#######################################################################

data_DEZRUX
_symmetry_cell_setting           triclinic
_symmetry_space_group_name_H-M   'P -1'
_symmetry_Int_Tables_number      2
_space_group_name_Hall           '-P 1'
loop_
_symmetry_equiv_pos_site_id
_symmetry_equiv_pos_as_xyz
1 x,y,z
2 -x,-y,-z
_cell_length_a                   10.4001(12)
_cell_length_b                   11.0984(14)
_cell_length_c                   30.433(4)
_cell_angle_alpha                88.442(2)
_cell_angle_beta                 87.604(2)
_cell_angle_gamma                79.857(2)
_cell_volume                     3454.09
loop_
_atom_site_label
_atom_site_type_symbol
_atom_site_fract_x
_atom_site_fract_y
_atom_site_fract_z
Eu1 Eu -0.05595(2) 0.34522(2) 0.873128(7)
O1 O 0.0353(3) 0.4915(3) 0.82496(10)
N1 N 0.1803(3) 0.3626(3) 0.88390(11)
Sr1 Sr 0.22977(4) 0.57090(4) 0.714931(13)
C1 C 0.2366(4) 0.4429(4) 0.85984(14)
Eu2 Eu 0.37490(2) 1.04530(2) 0.649199(7)
O2 O 0.2004(3) 0.5832(3) 0.79992(10)
N2 N -0.2030(4) 0.3407(3) 0.94144(11)
C2 C 0.3633(5) 0.4568(5) 0.86530(15)
H1 H 0.3995 0.5151 0.8488
O3 O 0.0625(3) 0.2023(3) 0.92692(10)
C3 C 0.4360(5) 0.3831(5) 0.89558(17)
H2 H 0.5221 0.3911 0.8998
N3 N -0.1333(3) 0.3293(3) 0.79600(12)
C4 C 0.3802(5) 0.2977(5) 0.91949(15)
H3 H 0.4284 0.2458 0.9397
O4 O 0.2411(4) 0.1230(3) 0.96202(11)
N4 N 0.1370(4) 1.0278(3) 0.64727(11)
N5 N 0.5295(4) 1.0179(4) 0.58208(12)
O5 O -0.0638(3) 0.5131(3) 0.92326(10)
C5 C 0.2512(4) 0.2901(4) 0.91296(14)
C6 C 0.1511(5) 0.5130(4) 0.82540(14)
N6 N 0.4670(4) 1.0885(4) 0.72052(12)
O6 O -0.1360(4) 0.6116(4) 0.98461(12)
C7 C 0.1806(5) 0.1977(4) 0.93673(14)
O7 O -0.1826(3) 0.1770(3) 0.87986(10)
O8 O -0.3194(4) 0.0733(3) 0.91623(12)
C8 C -0.2080(5) 0.4272(4) 0.97120(15)
C9 C -0.2804(6) 0.4244(5) 1.01031(16)
H4 H -0.2834 0.4857 1.0308
O9 O -0.2599(3) 0.4802(3) 0.85326(10)
C10 C -0.3478(6) 0.3294(6) 1.01845(17)
H5 H -0.3979 0.3263 1.0444
O10 O -0.4051(3) 0.5669(3) 0.80507(11)
O11 O 0.0737(3) 0.1891(3) 0.82795(10)
C11 C -0.3406(5) 0.2395(5) 0.98811(15)
H6 H -0.3831 0.1732 0.9935
O12 O 0.1204(3) 0.0903(3) 0.76525(10)
C12 C -0.2684(4) 0.2492(4) 0.94910(14)
C13 C -0.1295(5) 0.5258(4) 0.95903(15)
O13 O 0.2989(3) 0.9030(3) 0.70220(10)
C14 C -0.2573(4) 0.1578(4) 0.91267(15)
O14 O 0.1470(3) 0.8027(3) 0.73111(10)
C15 C -0.0608(4) 0.2520(4) 0.76806(14)
O15 O 0.2510(3) 1.1619(3) 0.59141(10)
C16 C -0.0930(6) 0.2457(5) 0.72492(16)
H7 H -0.0405 0.1921 0.7059
O16 O 0.0642(4) 1.2457(4) 0.56187(12)
C17 C -0.2029(6) 0.3192(6) 0.71028(19)
H8 H -0.2267 0.3158 0.6813
O17 O 0.3748(3) 0.8612(3) 0.60488(11)
C18 C -0.2783(5) 0.3986(5) 0.73913(17)
H9 H -0.3542 0.4485 0.7299
O18 O 0.4892(4) 0.7181(4) 0.56180(13)
C19 C -0.2398(4) 0.4032(4) 0.78190(15)
O19 O 0.5012(3) 1.2105(3) 0.63204(10)
C20 C 0.0551(4) 0.1711(4) 0.78848(14)
O20 O 0.6329(4) 1.3011(4) 0.58810(12)
C21 C -0.3090(4) 0.4913(4) 0.81545(15)
O21 O 0.5693(3) 0.9059(3) 0.67022(12)
C22 C 0.0859(4) 0.9536(4) 0.67549(14)
O22 O 0.7083(4) 0.8257(4) 0.72086(14)
C23 C -0.0441(5) 0.9434(5) 0.67601(16)
H10 H -0.0771 0.8893 0.6955
O23 O 0.2589(3) 1.2231(3) 0.68873(10)
C24 C -0.1243(5) 1.0153(6) 0.64698(17)
H11 H -0.2127 1.0107 0.6468
O24 O 0.2396(4) 1.3546(3) 0.74405(11)
O25 O 0.4452(4) 0.6568(4) 0.72658(14)
H12 H 0.4204 0.7278 0.7155
H13 H 0.4815 0.6310 0.7504
C25 C -0.0730(5) 1.0937(5) 0.61836(16)
H14 H -0.1261 1.1441 0.5990
O26 O 0.2394(4) 0.6813(3) 0.64013(10)
H15 H 0.2745 0.7441 0.6350
H16 H 0.1717 0.6939 0.6248
C26 C 0.0605(4) 1.0961(4) 0.61888(14)
O27 O 0.4293(4) 0.4371(3) 0.67502(12)
H17 H 0.4793 0.4813 0.6623
H18 H 0.4370 0.3650 0.6654
C27 C 0.1840(5) 0.8802(4) 0.70554(14)
O28 O 0.1212(4) 0.4464(4) 0.65761(12)
H19 H 0.1740 0.3845 0.6481
H20 H 0.1061 0.4975 0.6363
C28 C 0.1299(5) 1.1744(5) 0.58826(15)
O29 O -0.0167(3) 0.5898(3) 0.73892(12)
H21 H -0.0162 0.5568 0.7645
H22 H -0.0732 0.6128 0.7196
C29 C 0.5453(5) 0.9146(4) 0.55955(15)
C30 C 0.6306(5) 0.8956(5) 0.52310(16)
H23 H 0.6418 0.8226 0.5080
C31 C 0.6983(5) 0.9868(5) 0.50983(17)
H24 H 0.7540 0.9772 0.4850
C32 C 0.6833(5) 1.0914(5) 0.53332(15)
H25 H 0.7297 1.1533 0.5250
C33 C 0.5980(4) 1.1044(4) 0.56968(14)
C34 C 0.4631(5) 0.8228(5) 0.57673(16)
C35 C 0.5752(5) 1.2154(5) 0.59863(15)
C36 C 0.5722(5) 1.0152(5) 0.73515(16)
C37 C 0.6319(6) 1.0405(7) 0.7725(2)
H26 H 0.7058 0.9885 0.7822
C38 C 0.5797(7) 1.1446(8) 0.7951(2)
H27 H 0.6189 1.1639 0.8203
C39 C 0.4704(6) 1.2199(6) 0.78068(18)
H28 H 0.4349 1.2909 0.7956
C40 C 0.4143(5) 1.1879(5) 0.74359(15)
C41 C 0.6205(5) 0.9059(5) 0.70678(18)
C42 C 0.2933(5) 1.2621(4) 0.72421(15)
Sr1_2 Sr 0.22977(4) 1.57090(4) 0.714931(13)
O24_2 O 0.2396(4) 0.3546(3) 0.74405(11)
N7 N 0.3379(5) 0.5514(4) 0.54253(16)
H29 H 0.3844 0.5997 0.5532
N8 N 0.2199(6) 0.4144(5) 0.53725(16)
H30 H 0.1745 0.3585 0.5441
C43 C 0.2856(7) 0.4681(6) 0.5650(2)
H31 H 0.2934 0.4501 0.5949
C44 C 0.3064(8) 0.5483(6) 0.4999(2)
H32 H 0.3303 0.5982 0.4770
C45 C 0.2358(8) 0.4617(7) 0.4969(2)
H33 H 0.2028 0.4376 0.4712
N9 N 0.8745(4) 0.9457(4) 0.84128(13)
H34 H 0.8667 1.0185 0.8512
N10 N 0.9390(5) 0.7895(5) 0.80274(15)
H35 H 0.9803 0.7417 0.7830
C46 C 0.9520(5) 0.9017(5) 0.80845(18)
H36 H 1.0074 0.9441 0.7919
C47 C 0.8087(5) 0.8585(6) 0.85708(17)
H37 H 0.7469 0.8662 0.8803
C48 C 0.8490(6) 0.7592(6) 0.8331(2)
H38 H 0.8213 0.6841 0.8365
N11 N 0.4433(5) 0.8176(6) 0.8442(2)
H39 H 0.4915 0.7485 0.8503
N12 N 0.3100(4) 0.9539(4) 0.81234(14)
H40 H 0.2545 0.9901 0.7940
C49 C 0.3683(6) 0.8403(6) 0.8105(2)
H41 H 0.3582 0.7849 0.7891
C50 C 0.4330(7) 0.9198(9) 0.8677(2)
H42 H 0.4758 0.9285 0.8934
C51 C 0.3502(6) 1.0058(6) 0.8475(2)
H43 H 0.3248 1.0867 0.8559
N13 N 0.0395(5) 0.9554(5) 0.93416(18)
H44 H 0.0424 1.0324 0.9337
N14 N -0.0140(5) 0.7811(5) 0.95075(15)
H45 H -0.0493 0.7253 0.9642
C52 C -0.0380(7) 0.8995(6) 0.95982(19)
H46 H -0.0991 0.9366 0.9807
C53 C 0.1155(7) 0.8677(7) 0.9080(2)
H47 H 0.1823 0.8800 0.8880
C54 C 0.0745(6) 0.7627(6) 0.9172(2)
H48 H 0.1022 0.6893 0.9028
O30 O 0.6174(5) 0.8606(5) 0.96161(14)
H49 H 0.6250 0.9316 0.9519
H50 H 0.6372 0.8547 0.9885
O31 O 0.5919(4) 0.6613(4) 0.90466(13)
H51 H 0.6179 0.7080 0.9227
H52 H 0.6593 0.6069 0.9001
O32 O 0.8165(5) 0.6396(5) 0.66786(17)
H53 H 0.7575 0.6910 0.6807
H54 H 0.7890 0.5718 0.6692
O33 O 0.9071(9) 0.4435(8) 0.6014(2)
H55 H 0.8362 0.4520 0.5878
H56 H 0.9482 0.3704 0.5997
O34 O 1.0039(6) 0.6942(8) 0.6013(3)
H57 H 0.9424 0.6906 0.6187
C55 C 0.9606(10) 0.7531(11) 0.5654(3)
H58 H 0.8788 0.8063 0.5730
H59 H 0.9413 0.6935 0.5451
C56 C 1.0472(9) 0.8279(8) 0.5420(3)
H60 H 1.0278 0.8344 0.5114
H61 H 1.1367 0.7898 0.5451
H62 H 1.0332 0.9082 0.5542
O35 O 0.6324(5) 0.5291(5) 0.61993(15)
H63 H 0.6064 0.6020 0.6108
H64 H 0.6093 0.4712 0.6062
loop_
_geom_bond_atom_site_label_1
_geom_bond_atom_site_label_2
_geom_bond_site_symmetry_1
_geom_bond_site_symmetry_2
Eu1 O1 1_555 1_555
O1 C6 1_555 1_555
N1 Eu1 1_555 1_555
Sr1 O2 1_555 1_555
C1 N1 1_555 1_555
Eu2 N4 1_555 1_555
O2 C6 1_555 1_555
N2 Eu1 1_555 1_555
C2 C1 1_555 1_555
H1 C2 1_555 1_555
O3 Eu1 1_555 1_555
C3 C2 1_555 1_555
H2 C3 1_555 1_555
N3 Eu1 1_555 1_555
C4 C3 1_555 1_555
H3 C4 1_555 1_555
O4 C7 1_555 1_555
N4 C22 1_555 1_555
N5 Eu2 1_555 1_555
O5 Eu1 1_555 1_555
C5 N1 1_555 1_555
C6 C1 1_555 1_555
N6 Eu2 1_555 1_555
O6 C13 1_555 1_555
C7 O3 1_555 1_555
O7 Eu1 1_555 1_555
O8 C14 1_555 1_555
C8 N2 1_555 1_555
C9 C8 1_555 1_555
H4 C9 1_555 1_555
O9 Eu1 1_555 1_555
C10 C9 1_555 1_555
H5 C10 1_555 1_555
O10 C21 1_555 1_555
O11 Eu1 1_555 1_555
C11 C10 1_555 1_555
H6 C11 1_555 1_555
O12 C20 1_555 1_555
C12 N2 1_555 1_555
C13 O5 1_555 1_555
O13 Eu2 1_555 1_555
C14 O7 1_555 1_555
O14 Sr1 1_555 1_555
C15 N3 1_555 1_555
O15 Eu2 1_555 1_555
C16 C15 1_555 1_555
H7 C16 1_555 1_555
O16 C28 1_555 1_555
C17 C16 1_555 1_555
H8 C17 1_555 1_555
O17 Eu2 1_555 1_555
C18 C17 1_555 1_555
H9 C18 1_555 1_555
O18 C34 1_555 1_555
C19 N3 1_555 1_555
O19 Eu2 1_555 1_555
C20 O11 1_555 1_555
O20 C35 1_555 1_555
C21 O9 1_555 1_555
O21 Eu2 1_555 1_555
C22 C23 1_555 1_555
O22 C41 1_555 1_555
C23 H10 1_555 1_555
O23 Eu2 1_555 1_555
C24 C23 1_555 1_555
H11 C24 1_555 1_555
O24 C42 1_555 1_555
O25 Sr1 1_555 1_555
H12 O25 1_555 1_555
H13 O25 1_555 1_555
C25 C24 1_555 1_555
H14 C25 1_555 1_555
O26 Sr1 1_555 1_555
H15 O26 1_555 1_555
H16 O26 1_555 1_555
C26 N4 1_555 1_555
O27 Sr1 1_555 1_555
H17 O27 1_555 1_555
H18 O27 1_555 1_555
C27 O13 1_555 1_555
O28 Sr1 1_555 1_555
H19 O28 1_555 1_555
H20 O28 1_555 1_555
C28 O15 1_555 1_555
O29 Sr1 1_555 1_555
H21 O29 1_555 1_555
H22 O29 1_555 1_555
C29 N5 1_555 1_555
C30 C29 1_555 1_555
H23 C30 1_555 1_555
C31 C30 1_555 1_555
H24 C31 1_555 1_555
C32 C31 1_555 1_555
H25 C32 1_555 1_555
C33 N5 1_555 1_555
C34 O17 1_555 1_555
C35 O19 1_555 1_555
C36 N6 1_555 1_555
C37 C36 1_555 1_555
H26 C37 1_555 1_555
C38 C37 1_555 1_555
H27 C38 1_555 1_555
C39 C38 1_555 1_555
H28 C39 1_555 1_555
C40 N6 1_555 1_555
C41 O21 1_555 1_555
C42 O23 1_555 1_555
N7 H29 1_555 1_555
N8 H30 1_555 1_555
C43 N7 1_555 1_555
H31 C43 1_555 1_555
C44 N7 1_555 1_555
H32 C44 1_555 1_555
C45 N8 1_555 1_555
H33 C45 1_555 1_555
N9 H34 1_555 1_555
N10 H35 1_555 1_555
C46 N9 1_555 1_555
H36 C46 1_555 1_555
C47 N9 1_555 1_555
H37 C47 1_555 1_555
C48 N10 1_555 1_555
H38 C48 1_555 1_555
N11 H39 1_555 1_555
N12 H40 1_555 1_555
C49 N11 1_555 1_555
H41 C49 1_555 1_555
C50 N11 1_555 1_555
H42 C50 1_555 1_555
C51 N12 1_555 1_555
H43 C51 1_555 1_555
N13 H44 1_555 1_555
N14 H45 1_555 1_555
C52 N13 1_555 1_555
H46 C52 1_555 1_555
C53 N13 1_555 1_555
H47 C53 1_555 1_555
C54 N14 1_555 1_555
H48 C54 1_555 1_555
O30 H49 1_555 1_555
H50 O30 1_555 1_555
O31 H51 1_555 1_555
H52 O31 1_555 1_555
O32 H53 1_555 1_555
H54 O32 1_555 1_555
O33 H55 1_555 1_555
H56 O33 1_555 1_555
O34 H57 1_555 1_555
C55 O34 1_555 1_555
H58 C55 1_555 1_555
H59 C55 1_555 1_555
C56 C55 1_555 1_555
H60 C56 1_555 1_555
H61 C56 1_555 1_555
H62 C56 1_555 1_555
O35 H63 1_555 1_555
H64 O35 1_555 1_555
Sr1_2 O24 1_555 1_555
O24_2 Sr1 1_555 1_555
C4 C5 1_555 1_555
C5 C7 1_555 1_555
C8 C13 1_555 1_555
C11 C12 1_555 1_555
C12 C14 1_555 1_555
O14 C27 1_555 1_555
C15 C20 1_555 1_555
C18 C19 1_555 1_555
C19 C21 1_555 1_555
C22 C27 1_555 1_555
C25 C26 1_555 1_555
C26 C28 1_555 1_555
C29 C34 1_555 1_555
C32 C33 1_555 1_555
C33 C35 1_555 1_555
C36 C41 1_555 1_555
C39 C40 1_555 1_555
C40 C42 1_555 1_555
N8 C43 1_555 1_555
C44 C45 1_555 1_555
N10 C46 1_555 1_555
C47 C48 1_555 1_555
N12 C49 1_555 1_555
C50 C51 1_555 1_555
N14 C52 1_555 1_555
C53 C54 1_555 1_555

#END
