
#######################################################################
#
#                 Cambridge Crystallographic Data Centre
#                                CCDC 
#
#######################################################################
#
# If this CIF has been generated from an entry in the Cambridge 
# Structural Database, then it will include bibliographic, chemical, 
# crystal, experimental, refinement or atomic coordinate data resulting 
# from the CCDC's data processing and validation procedures.
#
#######################################################################

data_DEZROR
_symmetry_cell_setting           monoclinic
_symmetry_space_group_name_H-M   'P 21/n'
_symmetry_Int_Tables_number      14
_space_group_name_Hall           '-P 2yn'
loop_
_symmetry_equiv_pos_site_id
_symmetry_equiv_pos_as_xyz
1 x,y,z
2 1/2-x,1/2+y,1/2-z
3 -x,-y,-z
4 1/2+x,1/2-y,1/2+z
_cell_length_a                   15.8140(17)
_cell_length_b                   9.9086(11)
_cell_length_c                   20.500(2)
_cell_angle_alpha                90
_cell_angle_beta                 106.963(2)
_cell_angle_gamma                90
_cell_volume                     3072.49
loop_
_atom_site_label
_atom_site_type_symbol
_atom_site_fract_x
_atom_site_fract_y
_atom_site_fract_z
Tb1 Tb 0.245491(11) 0.361523(16) 0.005557(8)
Sr1 Sr 0.10448(2) 0.62673(4) 0.217488(18)
O1 O 0.18147(17) 0.1923(3) -0.08001(13)
C1 C 0.3234(3) 0.1483(3) -0.0913(2)
N1 N 0.3523(2) 0.2292(3) -0.03791(15)
N2 N 0.25668(19) 0.6115(3) 0.00812(15)
O2 O 0.1896(2) 0.0756(3) -0.17069(15)
C2 C 0.3793(3) 0.0840(4) -0.1223(2)
H1 H 0.3573 0.0265 -0.1593
O3 O 0.39967(17) 0.4060(3) 0.06083(14)
N3 N -0.12134(19) 0.7483(3) -0.03899(14)
C3 C 0.4686(3) 0.1083(5) -0.0964(3)
H2 H 0.5084 0.0666 -0.1156
O4 O 0.5433(2) 0.3752(3) 0.07206(19)
C4 C 0.4989(3) 0.1948(5) -0.0418(3)
H3 H 0.5590 0.2123 -0.0239
O5 O 0.25720(18) 0.4642(3) -0.09772(12)
C5 C 0.4389(2) 0.2548(4) -0.0141(2)
O6 O 0.2514(2) 0.6440(3) -0.16425(14)
C6 C 0.2234(3) 0.1362(3) -0.1169(2)
O7 O 0.24547(18) 0.4695(3) 0.11254(12)
C7 C 0.4641(3) 0.3540(4) 0.0451(2)
C8 C 0.2587(2) 0.6793(4) -0.04799(18)
O8 O 0.24314(19) 0.6531(3) 0.17499(14)
O9 O 0.04827(18) 0.5895(3) 0.08801(14)
C9 C 0.2642(3) 0.8169(4) -0.0495(2)
H4 H 0.2647 0.8612 -0.0893
C10 C 0.2690(3) 0.8898(4) 0.0097(2)
H5 H 0.2736 0.9834 0.0103
O10 O -0.09806(17) 0.5557(3) 0.05216(13)
C11 C 0.2667(3) 0.8192(4) 0.0676(2)
H6 H 0.2703 0.8649 0.1079
O11 O -0.28693(17) 0.8126(3) -0.09217(13)
C12 C 0.2591(2) 0.6812(4) 0.06457(18)
O12 O -0.25819(18) 0.9285(3) -0.17644(13)
C13 C 0.2556(2) 0.5893(4) -0.10862(18)
O13 O -0.0089(2) 0.8199(3) 0.16843(17)
H7 H -0.0431 0.8819 0.1744
H8 H -0.0360 0.7809 0.1313
C14 C 0.2484(2) 0.5961(4) 0.12260(19)
O14 O -0.0517(2) 0.5101(3) 0.19311(16)
H9 H -0.0855 0.5016 0.1526
H10 H -0.0968 0.5229 0.2069
C15 C -0.0377(3) 0.7174(4) -0.00566(19)
O15 O 0.0466(2) 0.6584(4) 0.31923(17)
H11 H -0.0063 0.6731 0.3193
H12 H 0.0905 0.6823 0.3523
O16 O 0.1698(2) 0.8698(3) 0.25555(17)
H13 H 0.1893 0.9342 0.2366
H14 H 0.1865 0.8965 0.2967
C16 C 0.0326(3) 0.7815(5) -0.0201(2)
H15 H 0.0904 0.7582 0.0034
O17 O 0.1323(3) 0.3649(3) 0.2164(3)
H16 H 0.1197 0.3091 0.1834
H17 H 0.1867 0.3503 0.2362
C17 C 0.0158(3) 0.8803(6) -0.0698(3)
H18 H 0.0621 0.9254 -0.0798
C18 C -0.0713(3) 0.9112(5) -0.1044(2)
H19 H -0.0846 0.9771 -0.1382
C19 C -0.1383(3) 0.8422(4) -0.08766(19)
C20 C -0.0274(3) 0.6111(4) 0.04891(19)
C21 C -0.2353(3) 0.8649(3) -0.12255(19)
Tb1B Tb -0.245491(11) 0.638477(16) -0.005557(8)
Sr1C Sr -0.39552(2) 0.87327(4) -0.282512(18)
N3B N 0.12134(19) 0.2517(3) 0.03899(14)
O10B O 0.09806(17) 0.4443(3) -0.05216(13)
O11B O 0.28693(17) 0.1874(3) 0.09217(13)
O12C O 0.24181(18) 0.5715(3) 0.32356(13)
N4 N 0.1207(3) 0.8001(4) 0.75091(18)
H20 H 0.1580 0.7486 0.7789
N5 N 0.0672(3) 0.9458(4) 0.67374(19)
H21 H 0.0628 1.0056 0.6425
C22 C 0.1405(3) 0.8865(4) 0.7079(2)
H22 H 0.1964 0.9018 0.7031
C23 C -0.0019(4) 0.8983(6) 0.6952(3)
H23 H -0.0608 0.9244 0.6794
C24 C 0.0336(4) 0.8053(6) 0.7441(3)
H24 H 0.0034 0.7548 0.7684
O18 O 0.1331(2) 0.2783(4) 0.72363(16)
H25 H 0.1575 0.2548 0.6935
H26 H 0.1382 0.2111 0.7502
loop_
_geom_bond_atom_site_label_1
_geom_bond_atom_site_label_2
_geom_bond_site_symmetry_1
_geom_bond_site_symmetry_2
Tb1 O1 1_555 1_555
Sr1 O8 1_555 1_555
O1 C6 1_555 1_555
C1 N1 1_555 1_555
N1 Tb1 1_555 1_555
N2 Tb1 1_555 1_555
O2 C6 1_555 1_555
C2 C1 1_555 1_555
H1 C2 1_555 1_555
O3 Tb1 1_555 1_555
N3 C15 1_555 1_555
C3 C2 1_555 1_555
H2 C3 1_555 1_555
O4 C7 1_555 1_555
C4 C3 1_555 1_555
H3 C4 1_555 1_555
O5 Tb1 1_555 1_555
C5 N1 1_555 1_555
O6 C13 1_555 1_555
C6 C1 1_555 1_555
O7 Tb1 1_555 1_555
C7 O3 1_555 1_555
C8 N2 1_555 1_555
O8 C14 1_555 1_555
O9 Sr1 1_555 1_555
C9 C8 1_555 1_555
H4 C9 1_555 1_555
C10 C9 1_555 1_555
H5 C10 1_555 1_555
O10 C20 1_555 1_555
C11 C10 1_555 1_555
H6 C11 1_555 1_555
O11 C21 1_555 1_555
C12 N2 1_555 1_555
O12 C21 1_555 1_555
C13 O5 1_555 1_555
O13 Sr1 1_555 1_555
H7 O13 1_555 1_555
H8 O13 1_555 1_555
C14 O7 1_555 1_555
O14 Sr1 1_555 1_555
H9 O14 1_555 1_555
H10 O14 1_555 1_555
C15 C16 1_555 1_555
O15 Sr1 1_555 1_555
H11 O15 1_555 1_555
H12 O15 1_555 1_555
O16 Sr1 1_555 1_555
H13 O16 1_555 1_555
H14 O16 1_555 1_555
C16 H15 1_555 1_555
O17 Sr1 1_555 1_555
H16 O17 1_555 1_555
H17 O17 1_555 1_555
C17 C16 1_555 1_555
H18 C17 1_555 1_555
C18 C17 1_555 1_555
H19 C18 1_555 1_555
C19 N3 1_555 1_555
C20 O9 1_555 1_555
C21 C19 1_555 1_555
N4 H20 1_555 1_555
N5 H21 1_555 1_555
C22 N4 1_555 1_555
H22 C22 1_555 1_555
C23 N5 1_555 1_555
H23 C23 1_555 1_555
C24 N4 1_555 1_555
H24 C24 1_555 1_555
O18 H25 1_555 1_555
H26 O18 1_555 1_555
Tb1B N3 1_555 1_555
Sr1C O12 1_555 1_555
N3B Tb1 1_555 1_555
O10B Tb1 1_555 1_555
O11B Tb1 1_555 1_555
O12C Sr1 1_555 1_555
C4 C5 1_555 1_555
C5 C7 1_555 1_555
C8 C13 1_555 1_555
O10 Tb1B 1_555 1_555
C11 C12 1_555 1_555
O11 Tb1B 1_555 1_555
C12 C14 1_555 1_555
C15 C20 1_555 1_555
C18 C19 1_555 1_555
N5 C22 1_555 1_555
C23 C24 1_555 1_555

#END
