
#######################################################################
#
#                 Cambridge Crystallographic Data Centre
#                                CCDC 
#
#######################################################################
#
# If this CIF has been generated from an entry in the Cambridge 
# Structural Database, then it will include bibliographic, chemical, 
# crystal, experimental, refinement or atomic coordinate data resulting 
# from the CCDC's data processing and validation procedures.
#
#######################################################################

data_DEZSAE
_symmetry_cell_setting           monoclinic
_symmetry_space_group_name_H-M   'P 21/n'
_symmetry_Int_Tables_number      14
_space_group_name_Hall           '-P 2yn'
loop_
_symmetry_equiv_pos_site_id
_symmetry_equiv_pos_as_xyz
1 x,y,z
2 1/2-x,1/2+y,1/2-z
3 -x,-y,-z
4 1/2+x,1/2-y,1/2+z
_cell_length_a                   15.8421(13)
_cell_length_b                   9.9106(8)
_cell_length_c                   20.5688(18)
_cell_angle_alpha                90
_cell_angle_beta                 107.095(2)
_cell_angle_gamma                90
_cell_volume                     3086.72
loop_
_atom_site_label
_atom_site_type_symbol
_atom_site_fract_x
_atom_site_fract_y
_atom_site_fract_z
Eu1 Eu 0.245345(10) 0.362471(15) 0.005973(8)
O1 O 0.28552(14) 0.1881(2) 0.09373(12)
N1 N 0.11967(16) 0.2519(3) 0.03936(13)
C1 C 0.1366(2) 0.1580(3) 0.08816(17)
Sr1 Sr 0.394418(19) 0.12714(3) 0.282733(15)
O2 O 0.25555(15) 0.0722(2) 0.17764(12)
N2 N 0.35245(17) 0.2295(2) -0.03857(13)
C2 C 0.0698(2) 0.0893(4) 0.1046(2)
H1 H 0.0827 0.0241 0.1386
O3 O 0.09601(15) 0.4439(2) -0.05179(12)
N3 N 0.25717(16) 0.6156(2) 0.00825(13)
C3 C -0.0165(3) 0.1194(5) 0.0694(3)
H2 H -0.0626 0.0736 0.0790
C4 C -0.0337(2) 0.2177(4) 0.0202(2)
H3 H -0.0916 0.2406 -0.0032
O4 O -0.04912(15) 0.4085(3) -0.08794(12)
O5 O 0.18160(14) 0.1919(2) -0.08054(12)
C5 C 0.0361(2) 0.2819(3) 0.00589(18)
C6 C 0.2337(2) 0.1364(3) 0.12334(16)
O6 O 0.18941(17) 0.0783(3) -0.17202(13)
O7 O 0.40144(15) 0.4034(2) 0.06146(12)
C7 C 0.0256(2) 0.3872(3) -0.04900(16)
C8 C 0.3227(2) 0.1487(3) -0.09253(17)
O8 O 0.54403(15) 0.3722(3) 0.07150(15)
O9 O 0.25636(15) 0.4678(2) -0.09792(11)
C9 C 0.3786(2) 0.0853(4) -0.1235(2)
H4 H 0.3563 0.0293 -0.1609
O10 O 0.25097(16) 0.6476(2) -0.16357(12)
C10 C 0.4688(3) 0.1073(4) -0.0972(2)
H5 H 0.5084 0.0645 -0.1160
O11 O 0.24718(15) 0.4740(2) 0.11347(11)
C11 C 0.4985(2) 0.1932(4) -0.0432(2)
H6 H 0.5585 0.2112 -0.0258
C12 C 0.4391(2) 0.2532(3) -0.01433(18)
O12 O 0.24394(15) 0.6575(2) 0.17508(12)
C13 C 0.2236(2) 0.1377(3) -0.11790(17)
O13 O 0.45309(17) 0.1568(3) 0.18132(14)
H7 H 0.5039 0.1924 0.1965
H8 H 0.4082 0.1491 0.1466
O14 O 0.33111(17) 0.3710(2) 0.24442(14)
H9 H 0.2935 0.4145 0.2584
H10 H 0.3129 0.4208 0.2094
C14 C 0.4644(2) 0.3509(3) 0.04439(18)
C15 C 0.2593(2) 0.6821(3) -0.04787(17)
O15 O 0.50840(16) 0.3184(3) 0.33177(14)
H11 H 0.5128 0.3810 0.3047
H12 H 0.5607 0.3240 0.3584
O16 O 0.55083(16) 0.0076(3) 0.30762(14)
H13 H 0.5972 0.0367 0.2996
H14 H 0.5722 0.0241 0.3498
C16 C 0.2648(2) 0.8207(3) -0.04925(19)
H15 H 0.2645 0.8656 -0.0890
C17 C 0.2707(3) 0.8916(3) 0.0098(2)
H16 H 0.2762 0.9851 0.0104
O17 O 0.3677(2) -0.1340(3) 0.28292(19)
H17 H 0.3519 -0.1709 0.2439
H18 H 0.3369 -0.1692 0.3061
C18 C 0.2685(2) 0.8238(3) 0.06742(19)
H19 H 0.2723 0.8703 0.1074
C19 C 0.2603(2) 0.6845(3) 0.06477(17)
C20 C 0.2557(2) 0.5934(3) -0.10808(16)
C21 C 0.2497(2) 0.5998(3) 0.12292(16)
Sr1A Sr 0.105582(19) 0.62714(3) 0.217267(15)
Sr1C Sr -0.105582(19) 0.37286(3) -0.217267(15)
O4C O 0.45088(15) 0.0915(3) 0.41206(12)
O12A O 0.25606(15) 0.1575(2) 0.32492(12)
N4 N 0.0679(2) 0.9488(3) 0.67334(16)
H20 H 0.0634 1.0081 0.6420
N5 N 0.1220(2) 0.8040(3) 0.75078(16)
H21 H 0.1593 0.7532 0.7790
C22 C 0.1412(3) 0.8888(4) 0.70817(19)
H22 H 0.1970 0.9038 0.7035
C23 C 0.0338(3) 0.8089(5) 0.7433(2)
H23 H 0.0030 0.7583 0.7669
C24 C 0.0005(3) 0.9015(5) 0.6952(3)
H24 H -0.0582 0.9286 0.6795
O18 O 0.13279(18) 0.2817(3) 0.72318(14)
H25 H 0.1396 0.2248 0.7552
H26 H 0.1529 0.2318 0.6976
loop_
_geom_bond_atom_site_label_1
_geom_bond_atom_site_label_2
_geom_bond_site_symmetry_1
_geom_bond_site_symmetry_2
Eu1 O1 1_555 1_555
O1 C6 1_555 1_555
N1 Eu1 1_555 1_555
C1 N1 1_555 1_555
Sr1 O2 1_555 1_555
O2 C6 1_555 1_555
N2 Eu1 1_555 1_555
C2 C1 1_555 1_555
H1 C2 1_555 1_555
O3 Eu1 1_555 1_555
N3 Eu1 1_555 1_555
C3 C2 1_555 1_555
H2 C3 1_555 1_555
C4 C3 1_555 1_555
H3 C4 1_555 1_555
O4 C7 1_555 1_555
O5 Eu1 1_555 1_555
C5 N1 1_555 1_555
C6 C1 1_555 1_555
O6 C13 1_555 1_555
O7 Eu1 1_555 1_555
C7 O3 1_555 1_555
C8 N2 1_555 1_555
O8 C14 1_555 1_555
O9 Eu1 1_555 1_555
C9 C8 1_555 1_555
H4 C9 1_555 1_555
O10 C20 1_555 1_555
C10 C9 1_555 1_555
H5 C10 1_555 1_555
O11 Eu1 1_555 1_555
C11 C10 1_555 1_555
H6 C11 1_555 1_555
C12 N2 1_555 1_555
O12 C21 1_555 1_555
C13 O5 1_555 1_555
O13 Sr1 1_555 1_555
H7 O13 1_555 1_555
H8 O13 1_555 1_555
O14 Sr1 1_555 1_555
H9 O14 1_555 1_555
H10 O14 1_555 1_555
C14 O7 1_555 1_555
C15 N3 1_555 1_555
O15 Sr1 1_555 1_555
H11 O15 1_555 1_555
H12 O15 1_555 1_555
O16 Sr1 1_555 1_555
H13 O16 1_555 1_555
H14 O16 1_555 1_555
C16 C15 1_555 1_555
H15 C16 1_555 1_555
C17 C16 1_555 1_555
H16 C17 1_555 1_555
O17 Sr1 1_555 1_555
H17 O17 1_555 1_555
H18 O17 1_555 1_555
C18 C17 1_555 1_555
H19 C18 1_555 1_555
C19 N3 1_555 1_555
C20 O9 1_555 1_555
C21 O11 1_555 1_555
N4 H20 1_555 1_555
N5 H21 1_555 1_555
C22 N4 1_555 1_555
H22 C22 1_555 1_555
C23 N5 1_555 1_555
H23 C23 1_555 1_555
C24 N4 1_555 1_555
H24 C24 1_555 1_555
O18 H25 1_555 1_555
H26 O18 1_555 1_555
Sr1A O12 1_555 1_555
Sr1C O4 1_555 1_555
O4C Sr1 1_555 1_555
O12A Sr1 1_555 1_555
C4 C5 1_555 1_555
C5 C7 1_555 1_555
C8 C13 1_555 1_555
C11 C12 1_555 1_555
C12 C14 1_555 1_555
C15 C20 1_555 1_555
C18 C19 1_555 1_555
C19 C21 1_555 1_555
N5 C22 1_555 1_555
C23 C24 1_555 1_555

#END
