
#######################################################################
#
#                 Cambridge Crystallographic Data Centre
#                                CCDC 
#
#######################################################################
#
# If this CIF has been generated from an entry in the Cambridge 
# Structural Database, then it will include bibliographic, chemical, 
# crystal, experimental, refinement or atomic coordinate data resulting 
# from the CCDC's data processing and validation procedures.
#
#######################################################################

data_DEZSIM
_symmetry_cell_setting           triclinic
_symmetry_space_group_name_H-M   'P -1'
_symmetry_Int_Tables_number      2
_space_group_name_Hall           '-P 1'
loop_
_symmetry_equiv_pos_site_id
_symmetry_equiv_pos_as_xyz
1 x,y,z
2 -x,-y,-z
_cell_length_a                   10.209(2)
_cell_length_b                   11.125(2)
_cell_length_c                   17.304(4)
_cell_angle_alpha                71.36(3)
_cell_angle_beta                 74.96(3)
_cell_angle_gamma                78.85(3)
_cell_volume                     1785.28
loop_
_atom_site_label
_atom_site_type_symbol
_atom_site_fract_x
_atom_site_fract_y
_atom_site_fract_z
Gd1 Gd 0.793082(14) 0.919417(12) 0.291831(8)
O1 O 0.6796(2) 0.73990(19) 0.38920(13)
N1 N 0.5546(2) 0.9111(2) 0.27981(14)
C1 C 0.4840(3) 0.8167(3) 0.33158(18)
C2 C 1.0538(3) 1.0412(3) 0.13736(18)
O2 O 0.5032(2) 0.62648(19) 0.44176(12)
Sr1 Sr 0.41396(3) 0.59923(3) 0.598187(17)
N2 N 0.8265(3) 0.8990(2) 0.43429(16)
C3 C 0.3527(3) 0.8088(3) 0.3283(2)
H1 H 0.3065 0.7408 0.3641
O3 O 0.7061(2) 1.0856(2) 0.17869(13)
N3 N 0.9824(2) 0.9418(2) 0.16323(15)
C4 C 0.2911(4) 0.9042(4) 0.2704(2)
H2 H 0.2024 0.9016 0.2669
O4 O 0.5384(3) 1.1932(2) 0.11509(15)
C5 C 0.3630(4) 1.0036(3) 0.2179(2)
H3 H 0.3228 1.0698 0.1795
O5 O 0.9829(2) 0.7657(2) 0.33756(14)
C6 C 0.4955(3) 1.0026(3) 0.22377(18)
O6 O 1.0892(3) 0.6425(2) 0.43790(16)
C7 C 0.5608(3) 0.7199(3) 0.39282(17)
O7 O 0.6429(2) 1.0656(2) 0.36402(13)
C8 C 0.5869(3) 1.1023(3) 0.16787(18)
O8 O 0.5845(3) 1.1572(2) 0.46786(14)
C9 C 0.9177(4) 0.8076(3) 0.4682(2)
O9 O 0.8185(2) 0.7656(2) 0.21162(14)
C10 C 0.9294(6) 0.7857(6) 0.5492(3)
H4 H 0.9941 0.7219 0.5715
O10 O 0.9430(3) 0.6676(3) 0.11754(18)
C11 C 0.8449(7) 0.8590(6) 0.5961(3)
H5 H 0.8518 0.8464 0.6508
O11 O 0.9299(2) 1.0922(2) 0.26022(13)
C12 C 0.7484(6) 0.9527(5) 0.5615(3)
H6 H 0.6879 1.0020 0.5930
O12 O 1.0748(3) 1.2254(2) 0.17017(17)
C13 C 0.7440(4) 0.9711(3) 0.4801(2)
O13 O 0.6711(3) 0.5533(4) 0.5978(3)
H7 H 0.6905 0.5335 0.6455
H8 H 0.7213 0.4881 0.5864
C14 C 1.0039(3) 0.7310(3) 0.4112(2)
O14 O 0.1863(3) 0.7053(3) 0.66872(19)
H9 H 0.1229 0.6575 0.6857
H10 H 0.1471 0.7625 0.6927
C15 C 0.6478(3) 1.0735(3) 0.43468(19)
O15 O 0.4690(4) 0.6901(3) 0.70873(19)
H11 H 0.447(5) 0.767(5) 0.693(3)
H12 H 0.542(6) 0.699(5) 0.716(3)
C16 C 1.0086(3) 0.8581(3) 0.11865(19)
O16 O 0.2020(3) 0.5215(2) 0.57769(17)
H13 H 0.1577 0.5428 0.5390
H14 H 0.2135 0.4430 0.5794
C17 C 1.1106(3) 0.8702(3) 0.0467(2)
H15 H 1.1290 0.8101 0.0171
O17 O 0.3558(3) 0.4247(2) 0.73611(14)
C18 C 1.1841(4) 0.9731(4) 0.0200(2)
H16 H 1.2526 0.9835 -0.0282
C19 C 1.1557(3) 1.0606(3) 0.0654(2)
H17 H 1.2037 1.1310 0.0480
C20 C 0.9166(3) 0.7548(3) 0.1515(2)
C21 C 1.0168(3) 1.1283(3) 0.19309(19)
O2A O 0.4968(2) 0.37352(19) 0.55824(12)
Sr1A Sr 0.58604(3) 0.40077(3) 0.401813(17)
Sr1A_2 Sr 0.58604(3) 1.40077(3) 0.401813(17)
O8A O 0.4155(3) 0.8428(2) 0.53214(14)
N4 N 0.8050(4) 1.5223(3) 0.0744(2)
H18 H 0.8438 1.5632 0.0951
C22 C 0.7304(6) 1.4659(4) -0.0132(3)
H19 H 0.7104 1.4624 -0.0619
C23 C 0.8002(6) 1.5505(4) -0.0063(3)
H20 H 0.8385 1.6169 -0.0495
N5 N 0.6945(4) 1.3860(3) 0.0646(2)
H21 H 0.6490 1.3223 0.0776
C24 C 0.7405(5) 1.4221(4) 0.1164(3)
H22 H 0.7295 1.3832 0.1736
O18 O 0.4465(4) 0.6235(5) 0.1709(3)
H23 H 0.4581 0.6186 0.2188
C25 C 0.4428(11) 0.7157(12) 0.1045(7)
H24 H 0.3522 0.7615 0.1158
H25 H 0.4406 0.6743 0.0633
C26 C 0.5366(6) 0.8254(8) 0.0536(6)
H26 H 0.6105 0.8168 0.0805
H27 H 0.4834 0.9072 0.0515
H28 H 0.5728 0.8188 -0.0022
O19 O 0.0433(4) 0.4300(3) 0.2280(2)
H29 H 0.0062 0.4953 0.1960
H30 H 0.0535 0.3592 0.2170
O20 O 0.1837(4) 0.5854(5) 0.2664(3)
H31 H 0.1359 0.6400 0.2905
H32 H 0.2373 0.6245 0.2230
O21 O 0.6628(8) 0.6412(8) 0.8047(5)
H33 H 0.6856 0.6922 0.8251
H34 H 0.7342 0.5961 0.7866
loop_
_geom_bond_atom_site_label_1
_geom_bond_atom_site_label_2
_geom_bond_site_symmetry_1
_geom_bond_site_symmetry_2
Gd1 O1 1_555 1_555
O1 C7 1_555 1_555
N1 Gd1 1_555 1_555
C1 N1 1_555 1_555
C2 N3 1_555 1_555
O2 Sr1 1_555 1_555
Sr1 O13 1_555 1_555
N2 Gd1 1_555 1_555
C3 C1 1_555 1_555
H1 C3 1_555 1_555
O3 Gd1 1_555 1_555
N3 Gd1 1_555 1_555
C4 C3 1_555 1_555
H2 C4 1_555 1_555
O4 C8 1_555 1_555
C5 C4 1_555 1_555
H3 C5 1_555 1_555
O5 Gd1 1_555 1_555
C6 N1 1_555 1_555
O6 C14 1_555 1_555
C7 C1 1_555 1_555
O7 Gd1 1_555 1_555
C8 O3 1_555 1_555
O8 C15 1_555 1_555
C9 N2 1_555 1_555
O9 Gd1 1_555 1_555
C10 C9 1_555 1_555
H4 C10 1_555 1_555
O10 C20 1_555 1_555
C11 C10 1_555 1_555
H5 C11 1_555 1_555
O11 Gd1 1_555 1_555
C12 C11 1_555 1_555
H6 C12 1_555 1_555
O12 C21 1_555 1_555
C13 N2 1_555 1_555
O13 H7 1_555 1_555
H8 O13 1_555 1_555
C14 O5 1_555 1_555
O14 Sr1 1_555 1_555
H9 O14 1_555 1_555
H10 O14 1_555 1_555
C15 O7 1_555 1_555
O15 Sr1 1_555 1_555
H11 O15 1_555 1_555
H12 O15 1_555 1_555
C16 N3 1_555 1_555
O16 Sr1 1_555 1_555
H13 O16 1_555 1_555
H14 O16 1_555 1_555
C17 C16 1_555 1_555
H15 C17 1_555 1_555
O17 Sr1 1_555 1_555
C18 C17 1_555 1_555
H16 C18 1_555 1_555
C19 C2 1_555 1_555
H17 C19 1_555 1_555
C20 O9 1_555 1_555
C21 C2 1_555 1_555
N4 H18 1_555 1_555
C22 H19 1_555 1_555
C23 N4 1_555 1_555
H20 C23 1_555 1_555
N5 C22 1_555 1_555
H21 N5 1_555 1_555
C24 N4 1_555 1_555
H22 C24 1_555 1_555
O18 H23 1_555 1_555
C25 O18 1_555 1_555
H24 C25 1_555 1_555
H25 C25 1_555 1_555
C26 C25 1_555 1_555
H26 C26 1_555 1_555
H27 C26 1_555 1_555
H28 C26 1_555 1_555
O19 H29 1_555 1_555
H30 O19 1_555 1_555
O20 H31 1_555 1_555
H32 O20 1_555 1_555
O21 H33 1_555 1_555
H34 O21 1_555 1_555
O2A Sr1 1_555 1_555
Sr1A O2 1_555 1_555
Sr1A_2 O8 1_555 1_555
O8A Sr1 1_555 1_555
O2 C7 1_555 1_555
C5 C6 1_555 1_555
C6 C8 1_555 1_555
C9 C14 1_555 1_555
O11 C21 1_555 1_555
C12 C13 1_555 1_555
C13 C15 1_555 1_555
C16 C20 1_555 1_555
C18 C19 1_555 1_555
C22 C23 1_555 1_555
N5 C24 1_555 1_555
O2A Sr1A 1_555 1_555

#END
