
#######################################################################
#
#                 Cambridge Crystallographic Data Centre
#                                CCDC 
#
#######################################################################
#
# If this CIF has been generated from an entry in the Cambridge 
# Structural Database, then it will include bibliographic, chemical, 
# crystal, experimental, refinement or atomic coordinate data resulting 
# from the CCDC's data processing and validation procedures.
#
#######################################################################

data_DEZSEI
_symmetry_cell_setting           triclinic
_symmetry_space_group_name_H-M   'P -1'
_symmetry_Int_Tables_number      2
_space_group_name_Hall           '-P 1'
loop_
_symmetry_equiv_pos_site_id
_symmetry_equiv_pos_as_xyz
1 x,y,z
2 -x,-y,-z
_cell_length_a                   10.3910(13)
_cell_length_b                   11.0500(14)
_cell_length_c                   30.378(4)
_cell_angle_alpha                88.423(3)
_cell_angle_beta                 87.529(3)
_cell_angle_gamma                79.069(2)
_cell_volume                     3420.88
loop_
_atom_site_label
_atom_site_type_symbol
_atom_site_fract_x
_atom_site_fract_y
_atom_site_fract_z
Gd1 Gd 1.05821(2) 1.155247(18) 0.127028(7)
O1 O 0.9703(3) 1.0090(3) 0.17580(10)
N1 N 0.8219(3) 1.1400(3) 0.11716(11)
C1 C 0.7671(4) 1.0592(4) 0.14154(14)
Gd2 Gd 0.63137(2) 0.458775(18) 0.352961(7)
O2 O 0.8071(3) 0.9181(3) 0.20149(10)
N2 N 1.2040(3) 1.1585(3) 0.05861(12)
C2 C 0.6393(4) 1.0460(4) 0.13666(16)
H1 H 0.6030 0.9890 0.1538
Sr1 Sr 0.77390(4) 0.93226(4) 0.286530(14)
C3 C 0.5659(5) 1.1201(5) 0.10548(16)
H2 H 0.4804 1.1113 0.1007
N3 N 1.1372(3) 1.1701(3) 0.20363(12)
O3 O 0.9386(3) 1.2985(3) 0.07339(10)
C4 C 0.6207(5) 1.2058(4) 0.08194(15)
H3 H 0.5715 1.2593 0.0621
N4 N 0.8698(3) 0.4709(3) 0.35381(11)
O4 O 0.7582(3) 1.3788(3) 0.03814(11)
N5 N 0.4767(3) 0.4887(3) 0.41966(12)
C5 C 0.7495(4) 1.2119(4) 0.08794(13)
O5 O 1.0644(3) 0.9873(3) 0.07711(10)
C6 C 0.8539(4) 0.9891(4) 0.17591(14)
N6 N 0.5351(4) 0.4212(3) 0.28176(12)
O6 O 1.1366(4) 0.8879(3) 0.01536(12)
C7 C 0.8199(4) 1.3037(4) 0.06365(14)
O7 O 1.1847(3) 1.3216(3) 0.12017(10)
C8 C 1.2083(4) 1.0715(4) 0.02855(15)
O8 O 1.3215(3) 1.4243(3) 0.08404(12)
C9 C 1.2806(5) 1.0739(5) -0.01073(17)
H4 H 1.2825 1.0130 -0.0314
O9 O 1.2622(3) 1.0178(3) 0.14617(11)
C10 C 1.3500(5) 1.1677(5) -0.01902(17)
H5 H 1.4010 1.1697 -0.0449
O10 O 1.4093(3) 0.9293(3) 0.19438(12)
C11 C 1.3419(5) 1.2585(4) 0.01194(15)
H6 H 1.3850 1.3242 0.0067
O11 O 0.9284(3) 1.3117(3) 0.17201(10)
O12 O 0.8812(3) 1.4112(3) 0.23538(10)
C12 C 1.2694(4) 1.2505(4) 0.05055(15)
C13 C 1.1302(5) 0.9740(4) 0.04109(16)
O13 O 0.7064(3) 0.6007(3) 0.29973(10)
C14 C 1.2597(4) 1.3407(4) 0.08746(15)
O14 O 0.8585(3) 0.6994(3) 0.27035(10)
C15 C 1.2442(4) 1.0945(4) 0.21779(15)
O15 O 0.7568(3) 0.3349(3) 0.40925(10)
C16 C 1.2821(5) 1.0974(5) 0.26103(18)
H7 H 1.3572 1.0452 0.2705
O16 O 0.9465(3) 0.2468(3) 0.43754(12)
C17 C 1.2074(6) 1.1783(5) 0.28929(19)
H8 H 1.2322 1.1823 0.3182
O17 O 0.6348(3) 0.6414(3) 0.39736(10)
O18 O 0.5202(4) 0.7882(3) 0.44025(13)
C18 C 1.0953(5) 1.2538(4) 0.27517(16)
H9 H 1.0419 1.3073 0.2944
O19 O 0.5042(3) 0.2962(3) 0.36917(10)
C19 C 1.0645(4) 1.2480(4) 0.23189(14)
C20 C 1.3128(4) 1.0065(4) 0.18366(16)
O20 O 0.3718(3) 0.2053(3) 0.41307(11)
C21 C 0.9474(4) 1.3302(4) 0.21203(15)
O21 O 0.7452(3) 0.2799(3) 0.31232(10)
C22 C 0.9207(4) 0.5465(4) 0.32553(14)
O22 O 0.7600(4) 0.1496(3) 0.25659(11)
C23 C 1.0520(4) 0.5529(4) 0.32501(16)
H10 H 1.0856 0.6073 0.3058
O23 O 0.4364(3) 0.6050(3) 0.33355(11)
O24 O 0.2925(4) 0.6889(3) 0.28376(13)
C24 C 1.1329(5) 0.4774(5) 0.35348(17)
H11 H 1.2217 0.4805 0.3537
O25 O 1.0233(3) 0.9115(3) 0.26265(12)
H12 H 1.0596 0.9050 0.2874
H13 H 1.0147 0.9605 0.2405
C25 C 1.0810(5) 0.3978(5) 0.38145(16)
H14 H 1.1344 0.3440 0.4001
C26 C 0.9489(4) 0.3990(4) 0.38136(14)
O26 O 0.5741(3) 1.0670(3) 0.32761(12)
H15 H 0.5783 1.1396 0.3352
H16 H 0.5191 1.0235 0.3370
C27 C 0.8216(4) 0.6211(4) 0.29582(14)
O27 O 0.8868(4) 1.0573(3) 0.34339(12)
H17 H 0.8534 1.1332 0.3462
H18 H 0.8897 1.0029 0.3638
C28 C 0.8783(5) 0.3200(4) 0.41209(15)
O28 O 0.7691(4) 0.8208(3) 0.36162(11)
H19 H 0.7424 0.7542 0.3682
H20 H 0.8135 0.8370 0.3828
C29 C 0.4597(4) 0.5923(4) 0.44196(14)
O29 O 0.5619(4) 0.8447(3) 0.27571(14)
H21 H 0.5657 0.7698 0.2836
H22 H 0.4920 0.8675 0.2617
C30 C 0.3730(4) 0.6137(4) 0.47778(16)
H23 H 0.3622 0.6873 0.4929
C31 C 0.3024(5) 0.5239(5) 0.49082(16)
H24 H 0.2440 0.5355 0.5151
C32 C 0.3198(4) 0.4186(4) 0.46758(15)
H25 H 0.2732 0.3572 0.4759
C33 C 0.4065(4) 0.4023(4) 0.43159(14)
C34 C 0.5450(5) 0.6823(4) 0.42531(16)
C35 C 0.4293(4) 0.2911(4) 0.40263(15)
C36 C 0.5843(5) 0.3213(4) 0.25867(15)
C37 C 0.5267(6) 0.2926(5) 0.22128(18)
H26 H 0.5619 0.2218 0.2058
C38 C 0.4159(6) 0.3712(6) 0.2074(2)
H27 H 0.3746 0.3536 0.1824
C39 C 0.3674(6) 0.4752(6) 0.23061(19)
H28 H 0.2939 0.5301 0.2213
C40 C 0.4287(5) 0.4980(4) 0.26815(16)
C41 C 0.7069(5) 0.2431(4) 0.27675(15)
C42 C 0.3817(4) 0.6063(4) 0.29709(17)
Sr1_2 Sr 0.77390(4) -0.06774(4) 0.286530(14)
O22_2 O 0.7600(4) 1.1496(3) 0.25659(11)
C43 C 0.6497(6) 0.4997(6) 0.1531(2)
H29 H 0.6753 0.4188 0.1438
N7 N 0.6908(4) 0.5474(4) 0.18814(15)
H30 H 0.7463 0.5091 0.2064
C44 C 0.5651(7) 0.5881(8) 0.1334(2)
H31 H 0.5215 0.5816 0.1077
C45 C 0.6337(6) 0.6609(5) 0.1903(2)
H32 H 0.6466 0.7151 0.2118
N8 N 0.5555(5) 0.6886(5) 0.1580(2)
H33 H 0.5060 0.7590 0.1532
C46 C 0.1496(6) 0.7410(5) 0.1666(2)
H34 H 0.1748 0.8171 0.1628
C47 C 0.0492(5) 0.5998(5) 0.19193(19)
H35 H -0.0067 0.5585 0.2086
N9 N 0.0621(5) 0.7098(4) 0.19723(16)
H36 H 0.0215 0.7578 0.2173
N10 N 0.1267(4) 0.5537(4) 0.15942(14)
H37 H 0.1345 0.4799 0.1500
C48 C 0.1926(5) 0.6394(5) 0.14282(18)
H38 H 0.2551 0.6303 0.1197
C49 C 0.0410(6) 0.5997(5) 0.04043(18)
H39 H 0.1033 0.5616 0.0198
C50 C -0.0741(6) 0.7395(5) 0.0826(2)
H40 H -0.1027 0.8141 0.0966
N11 N 0.0153(5) 0.7189(4) 0.04946(14)
H41 H 0.0510 0.7745 0.0360
C51 C -0.1152(6) 0.6344(6) 0.0920(2)
H42 H -0.1824 0.6233 0.1120
N12 N -0.0381(5) 0.5446(5) 0.06610(17)
H43 H -0.0410 0.4673 0.0666
N13 N 0.7999(5) 0.0803(4) 0.46651(15)
H44 H 0.8449 0.1364 0.4597
N14 N 0.6758(5) -0.0509(4) 0.46154(17)
H45 H 0.6261 -0.0960 0.4510
C52 C 0.7273(6) 0.0346(5) 0.4396(2)
H46 H 0.7143 0.0580 0.4102
C53 C 0.7145(7) -0.0549(5) 0.5029(2)
H47 H 0.6906 -0.1057 0.5255
C54 C 0.7931(7) 0.0261(5) 0.5065(2)
H48 H 0.8349 0.0420 0.5315
O30 O 0.3784(4) 0.9747(4) 0.38024(14)
H49 H 0.4273 0.9205 0.3956
H50 H 0.3203 1.0149 0.3976
O31 O 0.1839(4) 0.8745(4) 0.33913(17)
H51 H 0.2282 0.9228 0.3500
H52 H 0.2292 0.8055 0.3314
O32 O 0.4080(4) 0.8377(4) 0.09326(15)
H53 H 0.3610 0.7962 0.0800
H54 H 0.3599 0.8784 0.1132
O33 O 0.3872(4) 0.6370(4) 0.03799(14)
H55 H 0.3596 0.6331 0.0122
H56 H 0.3600 0.5820 0.0539
O34 O -0.0005(5) 0.8197(6) 0.4041(2)
H57 H 0.0583 0.8465 0.3905
C55 C 0.0525(8) 0.7339(7) 0.4345(3)
H58 H 0.0936 0.7743 0.4565
H59 H 0.1204 0.6742 0.4200
C56 C -0.0444(8) 0.6676(7) 0.4571(3)
H60 H -0.0864 0.6280 0.4356
H61 H -0.1092 0.7253 0.4730
H62 H -0.0002 0.6067 0.4772
loop_
_geom_bond_atom_site_label_1
_geom_bond_atom_site_label_2
_geom_bond_site_symmetry_1
_geom_bond_site_symmetry_2
Gd1 O1 1_555 1_555
O1 C6 1_555 1_555
N1 Gd1 1_555 1_555
C1 N1 1_555 1_555
Gd2 N4 1_555 1_555
O2 Sr1 1_555 1_555
N2 Gd1 1_555 1_555
C2 C1 1_555 1_555
H1 C2 1_555 1_555
Sr1 O14 1_555 1_555
C3 C2 1_555 1_555
H2 C3 1_555 1_555
N3 Gd1 1_555 1_555
O3 Gd1 1_555 1_555
C4 C3 1_555 1_555
H3 C4 1_555 1_555
N4 C22 1_555 1_555
O4 C7 1_555 1_555
N5 Gd2 1_555 1_555
C5 N1 1_555 1_555
O5 Gd1 1_555 1_555
C6 C1 1_555 1_555
N6 Gd2 1_555 1_555
O6 C13 1_555 1_555
C7 O3 1_555 1_555
O7 Gd1 1_555 1_555
C8 N2 1_555 1_555
O8 C14 1_555 1_555
C9 C8 1_555 1_555
H4 C9 1_555 1_555
O9 Gd1 1_555 1_555
C10 C9 1_555 1_555
H5 C10 1_555 1_555
O10 C20 1_555 1_555
C11 C10 1_555 1_555
H6 C11 1_555 1_555
O11 Gd1 1_555 1_555
O12 C21 1_555 1_555
C12 N2 1_555 1_555
C13 O5 1_555 1_555
O13 Gd2 1_555 1_555
C14 O7 1_555 1_555
O14 C27 1_555 1_555
C15 N3 1_555 1_555
O15 Gd2 1_555 1_555
C16 C15 1_555 1_555
H7 C16 1_555 1_555
O16 C28 1_555 1_555
C17 C16 1_555 1_555
H8 C17 1_555 1_555
O17 Gd2 1_555 1_555
O18 C34 1_555 1_555
C18 C17 1_555 1_555
H9 C18 1_555 1_555
O19 Gd2 1_555 1_555
C19 N3 1_555 1_555
C20 O9 1_555 1_555
O20 C35 1_555 1_555
C21 O11 1_555 1_555
O21 Gd2 1_555 1_555
C22 C23 1_555 1_555
O22 C41 1_555 1_555
C23 H10 1_555 1_555
O23 Gd2 1_555 1_555
O24 C42 1_555 1_555
C24 C23 1_555 1_555
H11 C24 1_555 1_555
O25 Sr1 1_555 1_555
H12 O25 1_555 1_555
H13 O25 1_555 1_555
C25 C24 1_555 1_555
H14 C25 1_555 1_555
C26 N4 1_555 1_555
O26 Sr1 1_555 1_555
H15 O26 1_555 1_555
H16 O26 1_555 1_555
C27 O13 1_555 1_555
O27 Sr1 1_555 1_555
H17 O27 1_555 1_555
H18 O27 1_555 1_555
C28 O15 1_555 1_555
O28 Sr1 1_555 1_555
H19 O28 1_555 1_555
H20 O28 1_555 1_555
C29 N5 1_555 1_555
O29 Sr1 1_555 1_555
H21 O29 1_555 1_555
H22 O29 1_555 1_555
C30 C29 1_555 1_555
H23 C30 1_555 1_555
C31 C30 1_555 1_555
H24 C31 1_555 1_555
C32 C31 1_555 1_555
H25 C32 1_555 1_555
C33 N5 1_555 1_555
C34 O17 1_555 1_555
C35 O19 1_555 1_555
C36 N6 1_555 1_555
C37 C36 1_555 1_555
H26 C37 1_555 1_555
C38 C37 1_555 1_555
H27 C38 1_555 1_555
C39 C38 1_555 1_555
H28 C39 1_555 1_555
C40 N6 1_555 1_555
C41 O21 1_555 1_555
C42 O23 1_555 1_555
C43 H29 1_555 1_555
N7 C43 1_555 1_555
H30 N7 1_555 1_555
C44 C43 1_555 1_555
H31 C44 1_555 1_555
C45 N7 1_555 1_555
H32 C45 1_555 1_555
N8 C44 1_555 1_555
H33 N8 1_555 1_555
C46 H34 1_555 1_555
C47 H35 1_555 1_555
N9 C46 1_555 1_555
H36 N9 1_555 1_555
N10 C47 1_555 1_555
H37 N10 1_555 1_555
C48 C46 1_555 1_555
H38 C48 1_555 1_555
C49 H39 1_555 1_555
C50 H40 1_555 1_555
N11 C49 1_555 1_555
H41 N11 1_555 1_555
C51 C50 1_555 1_555
H42 C51 1_555 1_555
N12 C49 1_555 1_555
H43 N12 1_555 1_555
N13 H44 1_555 1_555
N14 H45 1_555 1_555
C52 N13 1_555 1_555
H46 C52 1_555 1_555
C53 N14 1_555 1_555
H47 C53 1_555 1_555
C54 N13 1_555 1_555
H48 C54 1_555 1_555
O30 H49 1_555 1_555
H50 O30 1_555 1_555
O31 H51 1_555 1_555
H52 O31 1_555 1_555
O32 H53 1_555 1_555
H54 O32 1_555 1_555
O33 H55 1_555 1_555
H56 O33 1_555 1_555
O34 H57 1_555 1_555
C55 O34 1_555 1_555
H58 C55 1_555 1_555
H59 C55 1_555 1_555
C56 C55 1_555 1_555
H60 C56 1_555 1_555
H61 C56 1_555 1_555
H62 C56 1_555 1_555
Sr1_2 O22 1_555 1_555
O22_2 Sr1 1_555 1_555
O2 C6 1_555 1_555
C4 C5 1_555 1_555
C5 C7 1_555 1_555
C8 C13 1_555 1_555
C11 C12 1_555 1_555
C12 C14 1_555 1_555
C15 C20 1_555 1_555
C18 C19 1_555 1_555
C19 C21 1_555 1_555
C22 C27 1_555 1_555
C25 C26 1_555 1_555
C26 C28 1_555 1_555
C29 C34 1_555 1_555
C32 C33 1_555 1_555
C33 C35 1_555 1_555
C36 C41 1_555 1_555
C39 C40 1_555 1_555
C40 C42 1_555 1_555
C45 N8 1_555 1_555
C47 N9 1_555 1_555
N10 C48 1_555 1_555
C50 N11 1_555 1_555
C51 N12 1_555 1_555
N14 C52 1_555 1_555
C53 C54 1_555 1_555

#END
