
#######################################################################
#
#                 Cambridge Crystallographic Data Centre
#                                CCDC 
#
#######################################################################
#
# If this CIF has been generated from an entry in the Cambridge 
# Structural Database, then it will include bibliographic, chemical, 
# crystal, experimental, refinement or atomic coordinate data resulting 
# from the CCDC's data processing and validation procedures.
#
#######################################################################

data_DEZVEL
_symmetry_cell_setting           rhombohedral
_symmetry_space_group_name_H-M   'R 3 c'
_symmetry_Int_Tables_number      161
_space_group_name_Hall           'R 3 -2"c'
loop_
_symmetry_equiv_pos_site_id
_symmetry_equiv_pos_as_xyz
1 x,y,z
2 -y,x-y,z
3 -x+y,-x,z
4 -x+y,y,1/2+z
5 x,x-y,1/2+z
6 -y,-x,1/2+z
7 2/3+x,1/3+y,1/3+z
8 2/3-y,1/3+x-y,1/3+z
9 2/3-x+y,1/3-x,1/3+z
10 2/3-x+y,1/3+y,5/6+z
11 2/3+x,1/3+x-y,5/6+z
12 2/3-y,1/3-x,5/6+z
13 1/3+x,2/3+y,2/3+z
14 1/3-y,2/3+x-y,2/3+z
15 1/3-x+y,2/3-x,2/3+z
16 1/3-x+y,2/3+y,1/6+z
17 1/3+x,2/3+x-y,1/6+z
18 1/3-y,2/3-x,1/6+z
_cell_length_a                   27.864(5)
_cell_length_b                   27.864(5)
_cell_length_c                   20.187(5)
_cell_angle_alpha                90
_cell_angle_beta                 90
_cell_angle_gamma                120
_cell_volume                     13573.4
loop_
_atom_site_label
_atom_site_type_symbol
_atom_site_fract_x
_atom_site_fract_y
_atom_site_fract_z
Ni1 Ni 0.33066(2) 0.159335(17) 0.46980(4)
C1 C 0.3597(4) 0.0736(4) 0.6228(4)
H1 H 0.3420 0.0372 0.6380
C2 C 0.4047(4) 0.1144(4) 0.6548(4)
H2 H 0.4183 0.1056 0.6921
C3 C 0.4300(2) 0.1674(3) 0.6333(3)
H3 H 0.4608 0.1946 0.6557
C4 C 0.40975(18) 0.1812(2) 0.5775(2)
C5 C 0.43165(17) 0.23764(18) 0.5474(2)
C6 C 0.3407(2) 0.0886(2) 0.5654(3)
C7 C 0.2905(2) 0.05100(18) 0.5223(4)
C8 C 0.35501(17) 0.10611(19) 0.3507(3)
H4 H 0.3188 0.0776 0.3574
C9 C 0.42897(14) 0.18942(15) 0.3813(2)
H5 H 0.4450 0.2194 0.4102
C10 C 0.45987(15) 0.18919(15) 0.3289(2)
C11 C 0.43797(18) 0.1463(2) 0.2860(3)
H6 H 0.4580 0.1453 0.2496
C12 C 0.38398(19) 0.1033(2) 0.2983(3)
H7 H 0.3679 0.0727 0.2704
C13 C 0.55968(14) 0.23344(14) 0.31005(18)
C14 C 0.61428(13) 0.28585(14) 0.31285(15)
C15 C 0.61966(14) 0.33842(14) 0.31275(15)
H8 H 0.5881 0.3418 0.3126
C16 C 0.23540(15) 0.13516(14) 0.56276(19)
H9 H 0.2205 0.1011 0.5414
C17 C 0.20514(15) 0.14055(15) 0.6138(2)
C18 C 0.22745(18) 0.19141(18) 0.6459(2)
H10 H 0.2093 0.1967 0.6813
C19 C 0.27814(18) 0.2342(2) 0.6229(3)
H11 H 0.2937 0.2690 0.6425
C20 C 0.30498(17) 0.22542(16) 0.5721(3)
H12 H 0.3385 0.2548 0.5574
C21 C 0.10843(16) 0.09906(16) 0.64699(18)
C22 C 0.05316(15) 0.04622(16) 0.64830(17)
C23 C 0.00636(15) 0.05246(16) 0.64864(17)
H13 H 0.0108 0.0878 0.6491
C24 C 0.23546(15) 0.13429(16) 0.3747(2)
H14 H 0.2159 0.1021 0.3996
C25 C 0.20936(15) 0.14259(15) 0.3205(2)
C26 C 0.23870(19) 0.1886(2) 0.2829(3)
H15 H 0.2229 0.1947 0.2456
C27 C 0.2927(2) 0.2264(2) 0.3010(3)
H16 H 0.3134 0.2584 0.2760
C28 C 0.31576(18) 0.21676(18) 0.3558(3)
H17 H 0.3518 0.2427 0.3678
C29 C 0.12024(16) 0.05373(15) 0.32213(18)
C30 C 0.05782(17) 0.02717(16) 0.31412(16)
C31 C 0.02695(15) -0.03049(15) 0.31396(17)
H18 H 0.0450 -0.0509 0.3138
N1 N 0.36620(13) 0.14136(14) 0.54478(18)
N2 N 0.28468(12) 0.17585(12) 0.54241(17)
N3 N 0.37724(12) 0.14920(12) 0.39344(17)
N4 N 0.28766(12) 0.17095(12) 0.39221(17)
N5 N 0.51411(13) 0.23630(13) 0.32228(19)
N6 N 0.15325(15) 0.09492(15) 0.62991(18)
N7 N 0.15221(13) 0.10774(14) 0.30554(16)
O1 O 0.40471(10) 0.23967(9) 0.49786(14)
O2 O 0.47307(13) 0.27722(14) 0.5724(2)
O3 O 0.27882(11) 0.07405(12) 0.47588(19)
O4 O 0.2630(2) 0.00084(15) 0.5361(3)
O5 O 0.55752(11) 0.18924(11) 0.29792(17)
O6 O 0.11170(12) 0.14301(12) 0.6588(2)
O7 O 0.13973(11) 0.02581(11) 0.34435(15)
H19 H 0.515(2) 0.2666(11) 0.329(3)
H20 H 0.1417(15) 0.0670(15) 0.6158(18)
H21 H 0.1372(14) 0.1263(14) 0.2864(17)
C8A C 0.89389(19) 0.24890(25) 0.3507(3)
H4A H 0.9224 0.2412 0.3574
C9A C 0.81058(15) 0.23955(21) 0.3813(2)
H5A H 0.7806 0.2256 0.4102
C10A C 0.81081(15) 0.27068(21) 0.3289(2)
C11A C 0.8537(2) 0.29167(27) 0.2860(3)
H6A H 0.8547 0.3127 0.2496
C12A C 0.8967(2) 0.28068(28) 0.2983(3)
H7A H 0.9273 0.2952 0.2704
C13A C 0.76656(14) 0.32624(20) 0.31005(18)
C14A C 0.71415(14) 0.32843(19) 0.31285(15)
C15A C 0.66158(14) 0.28124(20) 0.31275(15)
H8A H 0.6582 0.2463 0.3126
N3A N 0.85080(12) 0.22804(17) 0.39344(17)
N5A N 0.76370(13) 0.27781(18) 0.32228(19)
O5A O 0.81076(11) 0.36828(16) 0.29792(17)
H19A H 0.7334(11) 0.2484(23) 0.329(3)
C8B C 0.75110(25) 0.64499(17) 0.3507(3)
H4B H 0.7588 0.6812 0.3574
C9B C 0.76045(21) 0.57103(14) 0.3813(2)
H5B H 0.7744 0.5550 0.4102
C10B C 0.72932(21) 0.54013(15) 0.3289(2)
C11B C 0.70833(27) 0.56203(18) 0.2860(3)
H6B H 0.6873 0.5420 0.2496
C12B C 0.71932(28) 0.61602(19) 0.2983(3)
H7B H 0.7048 0.6321 0.2704
C13B C 0.67376(20) 0.44032(14) 0.31005(18)
C14B C 0.67157(19) 0.38572(13) 0.31285(15)
C15B C 0.71876(20) 0.38034(14) 0.31275(15)
H8B H 0.7537 0.4119 0.3126
N3B N 0.77196(17) 0.62276(12) 0.39344(17)
N5B N 0.72219(18) 0.48589(13) 0.32228(19)
O5B O 0.63172(16) 0.44248(11) 0.29792(17)
H19B H 0.7516(23) 0.485(2) 0.329(3)
C16A C -0.13516(14) 0.10024(21) 0.56276(19)
H9A H -0.1011 0.1194 0.5414
C17A C -0.14055(15) 0.06459(21) 0.6138(2)
C18A C -0.19141(18) 0.03604(25) 0.6459(2)
H10A H -0.1967 0.0126 0.6813
C19A C -0.2342(2) 0.04394(27) 0.6229(3)
H11A H -0.2690 0.0247 0.6425
C20A C -0.22542(16) 0.07956(23) 0.5721(3)
H12A H -0.2548 0.0837 0.5574
C21A C -0.09906(16) 0.00937(23) 0.64699(18)
C22A C -0.04622(16) 0.00694(22) 0.64830(17)
C23A C -0.05246(16) -0.04610(22) 0.64864(17)
H13A H -0.0878 -0.0770 0.6491
N2A N -0.17585(12) 0.10883(17) 0.54241(17)
N6A N -0.09492(15) 0.05833(21) 0.62991(18)
O6A O -0.14301(12) -0.03131(17) 0.6588(2)
H20A H -0.0670(15) 0.0747(21) 0.6158(18)
C16B C -0.10024(21) -0.23540(15) 0.56276(19)
H9B H -0.1194 -0.2205 0.5414
C17B C -0.06459(21) -0.20514(15) 0.6138(2)
C18B C -0.03604(25) -0.22745(18) 0.6459(2)
H10B H -0.0126 -0.2093 0.6813
C19B C -0.04394(27) -0.27814(18) 0.6229(3)
H11B H -0.0247 -0.2937 0.6425
C20B C -0.07956(23) -0.30498(17) 0.5721(3)
H12B H -0.0837 -0.3385 0.5574
C21B C -0.00937(23) -0.10843(16) 0.64699(18)
C22B C -0.00694(22) -0.05316(15) 0.64830(17)
C23B C 0.04610(22) -0.00636(15) 0.64864(17)
H13B H 0.0770 -0.0108 0.6491
N2B N -0.10883(17) -0.28468(12) 0.54241(17)
N6B N -0.05833(21) -0.15325(15) 0.62991(18)
O6B O 0.03131(17) -0.11170(12) 0.6588(2)
H20B H -0.0747(21) -0.1417(15) 0.6158(18)
C24A C -0.13429(16) 0.10117(22) 0.3747(2)
H14A H -0.1021 0.1138 0.3996
C25A C -0.14259(15) 0.06677(21) 0.3205(2)
C26A C -0.1886(2) 0.05010(28) 0.2829(3)
H15A H -0.1947 0.0282 0.2456
C27A C -0.2264(2) 0.0663(3) 0.3010(3)
H16A H -0.2584 0.0550 0.2760
C28A C -0.21676(18) 0.09900(25) 0.3558(3)
H17A H -0.2427 0.1091 0.3678
C29A C -0.05373(15) 0.06651(22) 0.32213(18)
C30A C -0.02717(16) 0.03065(23) 0.31412(16)
C31A C 0.03049(15) 0.05744(21) 0.31396(17)
H18A H 0.0509 0.0959 0.3138
N4A N -0.17095(12) 0.11671(17) 0.39221(17)
N7A N -0.10774(14) 0.04447(19) 0.30554(16)
O7A O -0.02581(11) 0.11392(16) 0.34435(15)
H21A H -0.1263(14) 0.0109(20) 0.2864(17)
C24B C -0.10117(22) -0.23546(15) 0.3747(2)
H14B H -0.1138 -0.2159 0.3996
C25B C -0.06677(21) -0.20936(15) 0.3205(2)
C26B C -0.05010(28) -0.23870(19) 0.2829(3)
H15B H -0.0282 -0.2229 0.2456
C27B C -0.0663(3) -0.2927(2) 0.3010(3)
H16B H -0.0550 -0.3134 0.2760
C28B C -0.09900(25) -0.31576(18) 0.3558(3)
H17B H -0.1091 -0.3518 0.3678
C29B C -0.06651(22) -0.12024(16) 0.32213(18)
C30B C -0.03065(23) -0.05782(17) 0.31412(16)
C31B C -0.05744(21) -0.02695(15) 0.31396(17)
H18B H -0.0959 -0.0450 0.3138
N4B N -0.11671(17) -0.28766(12) 0.39221(17)
N7B N -0.04447(19) -0.15221(13) 0.30554(16)
O7B O -0.11392(16) -0.13973(11) 0.34435(15)
H21B H -0.0109(20) -0.1372(14) 0.2864(17)
Ni1A Ni -0.159335(17) 0.171325(26) 0.46980(4)
C1A C -0.0736(4) 0.2861(6) 0.6228(4)
H1A H -0.0372 0.3048 0.6380
C2A C -0.1144(4) 0.2903(6) 0.6548(4)
H2A H -0.1056 0.3127 0.6921
C3A C -0.1674(3) 0.2626(4) 0.6333(3)
H3A H -0.1946 0.2662 0.6557
C4A C -0.1812(2) 0.22855(27) 0.5775(2)
C5A C -0.23764(18) 0.19401(25) 0.5474(2)
C6A C -0.0886(2) 0.2521(3) 0.5654(3)
C7A C -0.05100(18) 0.23950(27) 0.5223(4)
N1A N -0.14136(14) 0.22484(19) 0.54478(18)
O1A O -0.23967(9) 0.16504(13) 0.49786(14)
O2A O -0.27722(14) 0.19585(19) 0.5724(2)
O3A O -0.07405(12) 0.20477(16) 0.47588(19)
O4A O -0.00084(15) 0.26216(25) 0.5361(3)
Ni1B Ni -0.171325(26) -0.33066(2) 0.46980(4)
C1B C -0.2861(6) -0.3597(4) 0.6228(4)
H1B H -0.3048 -0.3420 0.6380
C2B C -0.2903(6) -0.4047(4) 0.6548(4)
H2B H -0.3127 -0.4183 0.6921
C3B C -0.2626(4) -0.4300(2) 0.6333(3)
H3B H -0.2662 -0.4608 0.6557
C4B C -0.22855(27) -0.40975(18) 0.5775(2)
C5B C -0.19401(25) -0.43165(17) 0.5474(2)
C6B C -0.2521(3) -0.3407(2) 0.5654(3)
C7B C -0.23950(27) -0.2905(2) 0.5223(4)
N1B N -0.22484(19) -0.36620(13) 0.54478(18)
O1B O -0.16504(13) -0.40471(10) 0.49786(14)
O2B O -0.19585(19) -0.47307(13) 0.5724(2)
O3B O -0.20477(16) -0.27882(11) 0.47588(19)
O4B O -0.26216(25) -0.2630(2) 0.5361(3)
Ni1A_2 Ni 0.840665(17) 0.171325(26) 0.46980(4)
Ni1B_2 Ni 0.828675(26) 0.66934(2) 0.46980(4)
N3A_2 N -0.14920(12) 0.22804(17) 0.39344(17)
N3B_2 N -0.22804(17) -0.37724(12) 0.39344(17)
O8 O 0.1718(3) -0.0133(3) 0.4540(3)
O9 O 0.15970(19) -0.00472(17) 0.5927(3)
H22 H 0.178(3) -0.009(4) 0.561(2)
H23 H 0.169(3) -0.015(4) 0.6291(18)
loop_
_geom_bond_atom_site_label_1
_geom_bond_atom_site_label_2
_geom_bond_site_symmetry_1
_geom_bond_site_symmetry_2
Ni1 N1 1_555 1_555
C1 H1 1_555 1_555
C2 C1 1_555 1_555
H2 C2 1_555 1_555
C3 C2 1_555 1_555
H3 C3 1_555 1_555
C4 C3 1_555 1_555
C5 C4 1_555 1_555
C6 C1 1_555 1_555
C7 C6 1_555 1_555
C8 H4 1_555 1_555
C9 H5 1_555 1_555
C10 C9 1_555 1_555
C11 C10 1_555 1_555
H6 C11 1_555 1_555
C12 C8 1_555 1_555
H7 C12 1_555 1_555
C13 C14 1_555 1_555
C14 C15 1_555 1_555
C15 H8 1_555 1_555
C16 H9 1_555 1_555
C17 C16 1_555 1_555
C18 C17 1_555 1_555
H10 C18 1_555 1_555
C19 C18 1_555 1_555
H11 C19 1_555 1_555
C20 C19 1_555 1_555
H12 C20 1_555 1_555
C21 C22 1_555 1_555
C22 C23 1_555 1_555
C23 H13 1_555 1_555
C24 H14 1_555 1_555
C25 C24 1_555 1_555
C26 C25 1_555 1_555
H15 C26 1_555 1_555
C27 C26 1_555 1_555
H16 C27 1_555 1_555
C28 C27 1_555 1_555
H17 C28 1_555 1_555
C29 C30 1_555 1_555
C30 C31 1_555 1_555
C31 H18 1_555 1_555
N1 C4 1_555 1_555
N2 Ni1 1_555 1_555
N3 Ni1 1_555 1_555
N4 Ni1 1_555 1_555
N5 C10 1_555 1_555
N6 C17 1_555 1_555
N7 C25 1_555 1_555
O1 Ni1 1_555 1_555
O2 C5 1_555 1_555
O3 Ni1 1_555 1_555
O4 C7 1_555 1_555
O5 C13 1_555 1_555
O6 C21 1_555 1_555
O7 C29 1_555 1_555
H19 N5 1_555 1_555
H20 N6 1_555 1_555
H21 N7 1_555 1_555
O9 H22 1_555 1_555
H23 O9 1_555 1_555
C8A H4A 1_555 1_555
C9A H5A 1_555 1_555
C10A C9A 1_555 1_555
C11A C10A 1_555 1_555
H6A C11A 1_555 1_555
C12A C8A 1_555 1_555
H7A C12A 1_555 1_555
C13A C14A 1_555 1_555
C14A C15A 1_555 1_555
C15A C14 1_555 1_555
H8A C15A 1_555 1_555
N3A C8A 1_555 1_555
N5A C10A 1_555 1_555
O5A C13A 1_555 1_555
H19A N5A 1_555 1_555
C8B H4B 1_555 1_555
C9B H5B 1_555 1_555
C10B C9B 1_555 1_555
C11B C10B 1_555 1_555
H6B C11B 1_555 1_555
C12B C8B 1_555 1_555
H7B C12B 1_555 1_555
C13B C14B 1_555 1_555
C14B C15 1_555 1_555
C15B C14A 1_555 1_555
H8B C15B 1_555 1_555
N3B C8B 1_555 1_555
N5B C10B 1_555 1_555
O5B C13B 1_555 1_555
H19B N5B 1_555 1_555
C16A H9A 1_555 1_555
C17A C16A 1_555 1_555
C18A C17A 1_555 1_555
H10A C18A 1_555 1_555
C19A C18A 1_555 1_555
H11A C19A 1_555 1_555
C20A C19A 1_555 1_555
H12A C20A 1_555 1_555
C21A C22A 1_555 1_555
C22A C23 1_555 1_555
C23A C22A 1_555 1_555
H13A C23A 1_555 1_555
N2A C16A 1_555 1_555
N6A C17A 1_555 1_555
O6A C21A 1_555 1_555
H20A N6A 1_555 1_555
C16B H9B 1_555 1_555
C17B C16B 1_555 1_555
C18B C17B 1_555 1_555
H10B C18B 1_555 1_555
C19B C18B 1_555 1_555
H11B C19B 1_555 1_555
C20B C19B 1_555 1_555
H12B C20B 1_555 1_555
C21B C22B 1_555 1_555
C22B C23A 1_555 1_555
C23B C22 1_555 1_555
H13B C23B 1_555 1_555
N2B C16B 1_555 1_555
N6B C17B 1_555 1_555
O6B C21B 1_555 1_555
H20B N6B 1_555 1_555
C24A H14A 1_555 1_555
C25A C24A 1_555 1_555
C26A C25A 1_555 1_555
H15A C26A 1_555 1_555
C27A C26A 1_555 1_555
H16A C27A 1_555 1_555
C28A C27A 1_555 1_555
H17A C28A 1_555 1_555
C29A C30A 1_555 1_555
C30A C31A 1_555 1_555
C31A C30 1_555 1_555
H18A C31A 1_555 1_555
N4A C24A 1_555 1_555
N7A C25A 1_555 1_555
O7A C29A 1_555 1_555
H21A N7A 1_555 1_555
C24B H14B 1_555 1_555
C25B C24B 1_555 1_555
C26B C25B 1_555 1_555
H15B C26B 1_555 1_555
C27B C26B 1_555 1_555
H16B C27B 1_555 1_555
C28B C27B 1_555 1_555
H17B C28B 1_555 1_555
C29B C30B 1_555 1_555
C30B C31 1_555 1_555
C31B C30A 1_555 1_555
H18B C31B 1_555 1_555
N4B C24B 1_555 1_555
N7B C25B 1_555 1_555
O7B C29B 1_555 1_555
H21B N7B 1_555 1_555
Ni1A N2A 1_555 1_555
C1A H1A 1_555 1_555
C2A C1A 1_555 1_555
H2A C2A 1_555 1_555
C3A C2A 1_555 1_555
H3A C3A 1_555 1_555
C4A C3A 1_555 1_555
C5A C4A 1_555 1_555
C6A C1A 1_555 1_555
C7A C6A 1_555 1_555
N1A Ni1A 1_555 1_555
O1A Ni1A 1_555 1_555
O2A C5A 1_555 1_555
O3A Ni1A 1_555 1_555
O4A C7A 1_555 1_555
Ni1B N2B 1_555 1_555
C1B H1B 1_555 1_555
C2B C1B 1_555 1_555
H2B C2B 1_555 1_555
C3B C2B 1_555 1_555
H3B C3B 1_555 1_555
C4B C3B 1_555 1_555
C5B C4B 1_555 1_555
C6B C1B 1_555 1_555
C7B C6B 1_555 1_555
N1B Ni1B 1_555 1_555
O1B Ni1B 1_555 1_555
O2B C5B 1_555 1_555
O3B Ni1B 1_555 1_555
O4B C7B 1_555 1_555
Ni1A_2 N3A 1_555 1_555
Ni1B_2 N3B 1_555 1_555
N3A_2 Ni1A 1_555 1_555
N3B_2 Ni1B 1_555 1_555
C5 O1 1_555 1_555
C6 N1 1_555 1_555
C7 O3 1_555 1_555
C8 N3 1_555 1_555
C9 N3 1_555 1_555
C11 C12 1_555 1_555
C13 N5 1_555 1_555
C16 N2 1_555 1_555
C20 N2 1_555 1_555
C21 N6 1_555 1_555
C24 N4 1_555 1_555
C28 N4 1_555 1_555
C29 N7 1_555 1_555
C9A N3A 1_555 1_555
C11A C12A 1_555 1_555
C13A N5A 1_555 1_555
C9B N3B 1_555 1_555
C11B C12B 1_555 1_555
C13B N5B 1_555 1_555
C14B C15B 1_555 1_555
C20A N2A 1_555 1_555
C21A N6A 1_555 1_555
C20B N2B 1_555 1_555
C21B N6B 1_555 1_555
C22B C23B 1_555 1_555
C28A N4A 1_555 1_555
C29A N7A 1_555 1_555
N4A Ni1A 1_555 1_555
C28B N4B 1_555 1_555
C29B N7B 1_555 1_555
C30B C31B 1_555 1_555
N4B Ni1B 1_555 1_555
C4A N1A 1_555 1_555
C5A O1A 1_555 1_555
C6A N1A 1_555 1_555
C7A O3A 1_555 1_555
C4B N1B 1_555 1_555
C5B O1B 1_555 1_555
C6B N1B 1_555 1_555
C7B O3B 1_555 1_555

#END
