
#######################################################################
#
#                 Cambridge Crystallographic Data Centre
#                                CCDC 
#
#######################################################################
#
# If this CIF has been generated from an entry in the Cambridge 
# Structural Database, then it will include bibliographic, chemical, 
# crystal, experimental, refinement or atomic coordinate data resulting 
# from the CCDC's data processing and validation procedures.
#
#######################################################################

data_DEZVIP
_symmetry_cell_setting           monoclinic
_symmetry_space_group_name_H-M   'P 21/n'
_symmetry_Int_Tables_number      14
_space_group_name_Hall           '-P 2yn'
loop_
_symmetry_equiv_pos_site_id
_symmetry_equiv_pos_as_xyz
1 x,y,z
2 1/2-x,1/2+y,1/2-z
3 -x,-y,-z
4 1/2+x,1/2-y,1/2+z
_cell_length_a                   13.8751(18)
_cell_length_b                   9.3657(12)
_cell_length_c                   21.546(3)
_cell_angle_alpha                90
_cell_angle_beta                 98.227(2)
_cell_angle_gamma                90
_cell_volume                     2771.09
loop_
_atom_site_label
_atom_site_type_symbol
_atom_site_fract_x
_atom_site_fract_y
_atom_site_fract_z
Co1 Co 0.48395(2) 0.38723(3) 0.188066(17)
C1 C 0.44734(18) 0.6869(3) 0.15800(12)
C2 C 0.4642(2) 0.8327(3) 0.16212(14)
H1 H 0.4194 0.8970 0.1416
C3 C 0.5495(2) 0.8805(3) 0.19749(16)
H2 H 0.5631 0.9778 0.1997
C4 C 0.6149(2) 0.7848(3) 0.22970(14)
H3 H 0.6707 0.8164 0.2551
C5 C 0.59395(17) 0.6404(3) 0.22255(11)
C6 C 0.65263(16) 0.5180(3) 0.25616(11)
C7 C 0.35573(18) 0.6114(3) 0.12625(12)
C8 C 0.61648(16) 0.2126(3) 0.11330(12)
H4 H 0.6565 0.2086 0.1518
C9 C 0.4766(2) 0.2918(5) 0.05364(15)
H5 H 0.4183 0.3423 0.0499
C10 C 0.5016(3) 0.2250(6) 0.00197(17)
H6 H 0.4606 0.2310 -0.0361
C11 C 0.5874(3) 0.1486(6) 0.00586(16)
H7 H 0.6051 0.1031 -0.0292
C12 C 0.64594(18) 0.1416(3) 0.06298(12)
C13 C 0.77941(17) 0.0019(3) 0.02746(11)
C14 C 0.87887(16) -0.0621(3) 0.04811(11)
C15 C 0.91117(16) -0.1627(3) 0.00836(11)
H8 H 0.8694 -0.1930 -0.0268
C16 C 1.00496(16) -0.2191(3) 0.02025(11)
C17 C 1.06743(16) -0.1724(3) 0.07230(11)
H9 H 1.1304 -0.2086 0.0805
C18 C 1.03581(16) -0.0711(3) 0.11237(11)
C19 C 0.94109(16) -0.0169(3) 0.10093(11)
H10 H 0.9198 0.0488 0.1284
C20 C 1.03417(17) -0.3235(3) -0.02659(12)
C21 C 1.16726(18) -0.4742(3) -0.05332(12)
C22 C 1.1382(2) -0.4933(3) -0.11684(14)
H11 H 1.0903 -0.4357 -0.1388
C23 C 1.1824(2) -0.6011(4) -0.14697(15)
H12 H 1.1644 -0.6172 -0.1896
C24 C 1.2527(2) -0.6830(4) -0.11312(15)
H13 H 1.2809 -0.7556 -0.1339
C25 C 1.2402(2) -0.5614(4) -0.02384(14)
H14 H 1.2608 -0.5469 0.0187
C26 C 1.10436(16) -0.0172(3) 0.16699(11)
C27 C 1.27301(16) 0.0580(3) 0.19804(11)
C28 C 1.29282(19) 0.0044(3) 0.25896(13)
H15 H 1.2530 -0.0646 0.2732
C29 C 1.33372(17) 0.1605(3) 0.17900(11)
H16 H 1.3201 0.1959 0.1384
C30 C 1.3731(2) 0.0565(3) 0.29760(13)
H17 H 1.3881 0.0230 0.3385
C31 C 1.43090(18) 0.1592(3) 0.27501(12)
H18 H 1.4850 0.1931 0.3014
N1 N 0.51383(14) 0.5963(2) 0.18632(9)
N2 N 0.53301(14) 0.2873(2) 0.10949(10)
N3 N 0.73487(15) 0.0645(3) 0.07242(11)
H19 H 0.756(2) 0.049(3) 0.1074(14)
N4 N 1.2829(2) -0.6650(3) -0.05253(13)
N5 N 1.12712(16) -0.3709(3) -0.01664(12)
H20 H 1.157(2) -0.355(3) 0.0137(15)
N6 N 1.19561(14) 0.0090(2) 0.15391(10)
H21 H 1.206(2) 0.012(3) 0.1134(15)
N7 N 1.41193(14) 0.2117(2) 0.21662(9)
O1 O 0.62002(12) 0.39344(18) 0.24235(8)
O2 O 0.72474(13) 0.5469(2) 0.29482(9)
O3 O 0.35769(12) 0.47580(19) 0.13183(9)
O4 O 0.28831(14) 0.6841(2) 0.09902(10)
O5 O 0.74465(13) -0.0018(2) -0.02829(8)
O6 O 0.97646(15) -0.3597(3) -0.07189(11)
O7 O 1.08026(13) 0.0014(2) 0.21891(9)
Co1_2 Co 1.48395(2) 0.38723(3) 0.188066(17)
N7_2 N 0.41193(14) 0.2117(2) 0.21662(9)
loop_
_geom_bond_atom_site_label_1
_geom_bond_atom_site_label_2
_geom_bond_site_symmetry_1
_geom_bond_site_symmetry_2
Co1 N1 1_555 1_555
C1 C2 1_555 1_555
C2 H1 1_555 1_555
C3 C2 1_555 1_555
H2 C3 1_555 1_555
C4 C3 1_555 1_555
H3 C4 1_555 1_555
C5 C4 1_555 1_555
C6 C5 1_555 1_555
C7 C1 1_555 1_555
C8 H4 1_555 1_555
C9 H5 1_555 1_555
C10 C9 1_555 1_555
H6 C10 1_555 1_555
C11 C10 1_555 1_555
H7 C11 1_555 1_555
C12 C8 1_555 1_555
C13 C14 1_555 1_555
C14 C15 1_555 1_555
C15 H8 1_555 1_555
C16 C15 1_555 1_555
C17 C16 1_555 1_555
H9 C17 1_555 1_555
C18 C17 1_555 1_555
C19 C14 1_555 1_555
H10 C19 1_555 1_555
C20 C16 1_555 1_555
C21 C22 1_555 1_555
C22 H11 1_555 1_555
C23 C22 1_555 1_555
H12 C23 1_555 1_555
C24 C23 1_555 1_555
H13 C24 1_555 1_555
C25 C21 1_555 1_555
H14 C25 1_555 1_555
C26 C18 1_555 1_555
C27 C28 1_555 1_555
C28 H15 1_555 1_555
C29 C27 1_555 1_555
H16 C29 1_555 1_555
C30 C28 1_555 1_555
H17 C30 1_555 1_555
C31 C30 1_555 1_555
H18 C31 1_555 1_555
N1 C1 1_555 1_555
N2 Co1 1_555 1_555
N3 C12 1_555 1_555
H19 N3 1_555 1_555
N4 C24 1_555 1_555
N5 C20 1_555 1_555
H20 N5 1_555 1_555
N6 C26 1_555 1_555
H21 N6 1_555 1_555
N7 C29 1_555 1_555
O1 Co1 1_555 1_555
O2 C6 1_555 1_555
O3 Co1 1_555 1_555
O4 C7 1_555 1_555
O5 C13 1_555 1_555
O6 C20 1_555 1_555
O7 C26 1_555 1_555
Co1_2 N7 1_555 1_555
N7_2 Co1 1_555 1_555
C5 N1 1_555 1_555
C6 O1 1_555 1_555
C7 O3 1_555 1_555
C8 N2 1_555 1_555
C9 N2 1_555 1_555
C11 C12 1_555 1_555
C13 N3 1_555 1_555
C18 C19 1_555 1_555
C21 N5 1_555 1_555
C25 N4 1_555 1_555
C27 N6 1_555 1_555
C31 N7 1_555 1_555

#END
