
#######################################################################
#
#                 Cambridge Crystallographic Data Centre
#                                CCDC 
#
#######################################################################
#
# If this CIF has been generated from an entry in the Cambridge 
# Structural Database, then it will include bibliographic, chemical, 
# crystal, experimental, refinement or atomic coordinate data resulting 
# from the CCDC's data processing and validation procedures.
#
#######################################################################

data_DEZXOX
_symmetry_cell_setting           monoclinic
_symmetry_space_group_name_H-M   'C 2/c'
_symmetry_Int_Tables_number      15
_space_group_name_Hall           '-C 2yn'
loop_
_symmetry_equiv_pos_site_id
_symmetry_equiv_pos_as_xyz
1 x,y,z
2 -x,y,1/2-z
3 1/2+x,1/2+y,z
4 1/2-x,1/2+y,1/2-z
5 -x,-y,-z
6 x,-y,1/2+z
7 1/2-x,1/2-y,-z
8 1/2+x,1/2-y,1/2+z
_cell_length_a                   27.075(5)
_cell_length_b                   11.716(2)
_cell_length_c                   20.668(6)
_cell_angle_alpha                90
_cell_angle_beta                 128.131(2)
_cell_angle_gamma                90
_cell_volume                     5157.04
loop_
_atom_site_label
_atom_site_type_symbol
_atom_site_fract_x
_atom_site_fract_y
_atom_site_fract_z
Mn1 Mn 0.20737(2) 0.62713(4) 0.43422(3)
N1 N 0.11749(14) 0.5642(2) 0.30246(17)
N2 N 0.21845(14) 0.4395(2) 0.41337(18)
N3 N 0.40805(15) 0.4510(3) 0.65391(18)
N4 N 0.85071(15) 0.5187(3) 0.90924(19)
O1 O 0.31161(11) 0.6148(2) 0.50526(15)
O2 O 0.36495(11) 0.7654(2) 0.58542(15)
O3 O 0.38029(14) 0.5119(3) 0.66965(17)
O4 O 0.41070(14) 0.3473(3) 0.65947(18)
O5 O 0.77141(11) 0.5951(2) 0.94900(14)
O6 O 0.72127(12) 0.7497(2) 0.87082(14)
O7 O 0.87693(13) 0.6062(3) 0.94633(17)
O8 O 0.87220(14) 0.4225(3) 0.93310(18)
S1 S 0.55533(5) 0.68883(9) 0.56723(6)
S2 S 0.61057(5) 0.57155(10) 0.56776(6)
C1 C 0.36008(18) 0.6682(3) 0.5576(2)
C2 C 0.42157(15) 0.6124(3) 0.58763(19)
C3 C 0.44203(16) 0.5072(3) 0.6278(2)
C4 C 0.49437(17) 0.4533(3) 0.6469(2)
H1 H 0.5062 0.3825 0.6727
C5 C 0.52930(16) 0.5049(3) 0.6275(2)
H2 H 0.5649 0.4689 0.6401
C6 C 0.51170(16) 0.6098(3) 0.5896(2)
C7 C 0.45712(15) 0.6618(3) 0.56825(19)
H3 H 0.4445 0.7312 0.5404
C8 C 0.67877(16) 0.5574(3) 0.6720(2)
C9 C 0.72371(17) 0.4799(3) 0.6860(2)
H4 H 0.7162 0.4378 0.6426
C10 C 0.77886(17) 0.4662(3) 0.7640(2)
H5 H 0.8094 0.4158 0.7739
C11 C 0.78822(16) 0.5282(3) 0.8273(2)
C12 C 0.74332(16) 0.6009(3) 0.8164(2)
C13 C 0.68830(16) 0.6151(3) 0.7368(2)
H6 H 0.6574 0.6643 0.7271
C14 C 0.74638(16) 0.6539(3) 0.8859(2)
C15 C 0.26824(19) 0.3783(3) 0.4671(3)
H7 H 0.2971 0.4082 0.5197
C16 C 0.2808(2) 0.2721(4) 0.4509(3)
H8 H 0.3170 0.2326 0.4916
C17 C 0.2397(2) 0.2267(4) 0.3755(4)
H9 H 0.2473 0.1554 0.3636
C18 C 0.1855(2) 0.2872(3) 0.3151(3)
C19 C 0.17670(17) 0.3940(3) 0.3374(2)
C20 C 0.1399(3) 0.2462(4) 0.2332(3)
H10 H 0.1465 0.1769 0.2176
C21 C 0.0887(3) 0.3052(4) 0.1794(3)
H11 H 0.0594 0.2758 0.1268
C22 C 0.0766(2) 0.4134(4) 0.1995(2)
C23 C 0.12203(18) 0.4598(3) 0.2785(2)
C24 C 0.0650(2) 0.6219(4) 0.2487(3)
H12 H 0.0605 0.6934 0.2640
C25 C 0.0161(3) 0.5809(4) 0.1705(3)
H13 H -0.0203 0.6237 0.1357
C26 C 0.0221(2) 0.4788(4) 0.1459(3)
H14 H -0.0098 0.4517 0.0935
Mn1A Mn 0.79263(2) 0.62713(4) 1.06578(3)
Mn1F Mn 0.29263(2) 0.87287(4) 0.56578(3)
Mn1G Mn 0.70737(2) 0.87287(4) 0.93422(3)
O2F O 0.13505(11) 0.7346(2) 0.41458(15)
O5A O 0.22859(11) 0.5951(2) 0.55100(14)
O6G O 0.22127(12) 0.7503(2) 0.37082(14)
loop_
_geom_bond_atom_site_label_1
_geom_bond_atom_site_label_2
_geom_bond_site_symmetry_1
_geom_bond_site_symmetry_2
Mn1 N1 1_555 1_555
N1 C23 1_555 1_555
N2 Mn1 1_555 1_555
N3 O3 1_555 1_555
N4 O7 1_555 1_555
O1 Mn1 1_555 1_555
O2 C1 1_555 1_555
O4 N3 1_555 1_555
O5 C14 1_555 1_555
O6 C14 1_555 1_555
O8 N4 1_555 1_555
S1 S2 1_555 1_555
S2 C8 1_555 1_555
C1 O1 1_555 1_555
C2 C1 1_555 1_555
C3 N3 1_555 1_555
C4 C3 1_555 1_555
H1 C4 1_555 1_555
C5 C4 1_555 1_555
H2 C5 1_555 1_555
C6 S1 1_555 1_555
C7 C2 1_555 1_555
H3 C7 1_555 1_555
C8 C9 1_555 1_555
C9 H4 1_555 1_555
C10 C9 1_555 1_555
H5 C10 1_555 1_555
C11 N4 1_555 1_555
C12 C11 1_555 1_555
C13 C8 1_555 1_555
H6 C13 1_555 1_555
C14 C12 1_555 1_555
C15 N2 1_555 1_555
H7 C15 1_555 1_555
C16 C15 1_555 1_555
H8 C16 1_555 1_555
C17 C16 1_555 1_555
H9 C17 1_555 1_555
C18 C17 1_555 1_555
C19 N2 1_555 1_555
C20 C18 1_555 1_555
H10 C20 1_555 1_555
C21 C20 1_555 1_555
H11 C21 1_555 1_555
C22 C21 1_555 1_555
C23 C19 1_555 1_555
C24 N1 1_555 1_555
H12 C24 1_555 1_555
C25 C24 1_555 1_555
H13 C25 1_555 1_555
C26 C22 1_555 1_555
H14 C26 1_555 1_555
Mn1A O5 1_555 1_555
Mn1F O2 1_555 1_555
Mn1G O6 1_555 1_555
O2F Mn1 1_555 1_555
O5A Mn1 1_555 1_555
O6G Mn1 1_555 1_555
C2 C3 1_555 1_555
C5 C6 1_555 1_555
C6 C7 1_555 1_555
C10 C11 1_555 1_555
C12 C13 1_555 1_555
C18 C19 1_555 1_555
C22 C23 1_555 1_555
C25 C26 1_555 1_555

#END
