
#######################################################################
#
#                 Cambridge Crystallographic Data Centre
#                                CCDC 
#
#######################################################################
#
# If this CIF has been generated from an entry in the Cambridge 
# Structural Database, then it will include bibliographic, chemical, 
# crystal, experimental, refinement or atomic coordinate data resulting 
# from the CCDC's data processing and validation procedures.
#
#######################################################################

data_DEZXUD
_symmetry_cell_setting           triclinic
_symmetry_space_group_name_H-M   'P -1'
_symmetry_Int_Tables_number      2
_space_group_name_Hall           '-P 1'
loop_
_symmetry_equiv_pos_site_id
_symmetry_equiv_pos_as_xyz
1 x,y,z
2 -x,-y,-z
_cell_length_a                   9.982(2)
_cell_length_b                   11.990(3)
_cell_length_c                   13.427(3)
_cell_angle_alpha                67.228(4)
_cell_angle_beta                 71.334(4)
_cell_angle_gamma                80.291(4)
_cell_volume                     1401.95
loop_
_atom_site_label
_atom_site_type_symbol
_atom_site_fract_x
_atom_site_fract_y
_atom_site_fract_z
Mn1 Mn 0.41698(9) 0.37975(7) 0.36639(7)
N1 N 0.5978(6) 0.3752(4) 0.2118(4)
N2 N 1.2554(5) 0.3937(4) -0.4729(4)
N3 N 0.6312(5) 0.6997(4) 0.0519(5)
N4 N -0.0119(8) 1.1921(5) 0.5214(5)
O1 O 0.3801(4) 0.5668(3) 0.2710(3)
O2 O 0.4292(5) 0.6920(4) 0.3408(3)
O3 O 0.6689(5) 0.6542(4) 0.1367(4)
O4 O 0.6951(5) 0.6837(4) -0.0367(4)
O5 O 0.3548(5) 1.1272(4) 0.3327(4)
O6 O 0.2583(4) 1.3103(3) 0.3249(3)
O7 O 0.0968(7) 1.1812(5) 0.5441(4)
O8 O -0.1265(7) 1.2218(5) 0.5756(5)
O9 O 0.4904(5) 0.1908(3) 0.4457(4)
H1 H 0.5060 0.1828 0.5045
H2 H 0.4503 0.1298 0.4554
O10 O 0.5804(4) 0.4227(4) 0.4285(4)
H3 H 0.5674 0.4932 0.4254
H4 H 0.5803 0.3699 0.4892
S1 S 0.14198(18) 1.06184(14) 0.03459(13)
S2 S -0.02591(17) 1.01000(15) 0.17082(15)
C1 C 0.4064(6) 0.6690(5) 0.2667(5)
C2 C 0.4029(6) 0.7715(5) 0.1554(4)
C3 C 0.5039(6) 0.7820(5) 0.0534(5)
C4 C 0.4886(7) 0.8647(5) -0.0476(5)
H5 H 0.5553 0.8648 -0.1144
C5 C 0.3763(7) 0.9466(6) -0.0503(5)
H6 H 0.3666 1.0038 -0.1185
C6 C 0.2752(6) 0.9435(5) 0.0510(5)
C7 C 0.2890(6) 0.8561(5) 0.1530(5)
H7 H 0.2215 0.8547 0.2199
C8 C -0.0140(6) 1.0757(5) 0.2637(5)
C9 C -0.1387(6) 1.0845(6) 0.3456(6)
H8 H -0.2228 1.0615 0.3449
C10 C -0.1389(7) 1.1261(6) 0.4259(6)
H9 H -0.2224 1.1310 0.4807
C11 C -0.0121(7) 1.1617(5) 0.4258(5)
C12 C 0.1169(6) 1.1614(5) 0.3423(5)
C13 C 0.1116(6) 1.1159(5) 0.2632(5)
H10 H 0.1943 1.1116 0.2073
C14 C 0.2529(6) 1.2016(5) 0.3344(5)
C15 C 0.5727(8) 0.3851(7) 0.1197(6)
H11 H 0.4793 0.3968 0.1169
C16 C 0.6789(9) 0.3790(8) 0.0252(6)
H12 H 0.6551 0.3850 -0.0383
C17 C 0.8168(8) 0.3643(7) 0.0243(6)
C18 C 0.8408(8) 0.3581(7) 0.1189(6)
H13 H 0.9336 0.3485 0.1228
C19 C 0.7329(7) 0.3655(7) 0.2099(6)
H14 H 0.7550 0.3636 0.2728
C20 C 0.9367(9) 0.3485(8) -0.0725(6)
H15 H 1.0247 0.3600 -0.0624
H16 H 0.9399 0.2655 -0.0682
C21 C 0.9316(9) 0.4250(8) -0.1806(6)
H17 H 0.9296 0.5078 -0.1848
H18 H 0.8426 0.4144 -0.1898
C22 C 1.0487(7) 0.4101(6) -0.2790(5)
C23 C 1.1460(7) 0.3138(6) -0.2753(5)
H19 H 1.1454 0.2526 -0.2065
C24 C 1.2444(7) 0.3069(6) -0.3716(5)
H20 H 1.3060 0.2388 -0.3663
C25 C 1.1600(6) 0.4863(5) -0.4763(5)
H21 H 1.1628 0.5464 -0.5461
C26 C 1.0573(7) 0.4990(6) -0.3837(5)
H22 H 0.9946 0.5666 -0.3914
Mn1_2 Mn 0.41698(9) 1.37975(7) 0.36639(7)
Mn1_3 Mn 1.41698(9) 0.37975(7) -0.63361(7)
N2_2 N 0.2554(5) 0.3937(4) 0.5271(4)
O6_2 O 0.2583(4) 0.3103(3) 0.3249(3)
O11 O 0.5092(5) 0.0901(4) 0.6611(4)
H23 H 0.5505 0.1485 0.6564
H24 H 0.5702 0.0319 0.6637
loop_
_geom_bond_atom_site_label_1
_geom_bond_atom_site_label_2
_geom_bond_site_symmetry_1
_geom_bond_site_symmetry_2
Mn1 N1 1_555 1_555
N1 C15 1_555 1_555
N2 C24 1_555 1_555
N3 O3 1_555 1_555
N4 O7 1_555 1_555
O1 Mn1 1_555 1_555
O2 C1 1_555 1_555
O4 N3 1_555 1_555
O5 C14 1_555 1_555
O6 C14 1_555 1_555
O8 N4 1_555 1_555
O9 Mn1 1_555 1_555
H1 O9 1_555 1_555
H2 O9 1_555 1_555
O10 Mn1 1_555 1_555
H3 O10 1_555 1_555
H4 O10 1_555 1_555
S1 S2 1_555 1_555
S2 C8 1_555 1_555
C1 O1 1_555 1_555
C2 C1 1_555 1_555
C3 N3 1_555 1_555
C4 C3 1_555 1_555
H5 C4 1_555 1_555
C5 C4 1_555 1_555
H6 C5 1_555 1_555
C6 S1 1_555 1_555
C7 C2 1_555 1_555
H7 C7 1_555 1_555
C8 C9 1_555 1_555
C9 H8 1_555 1_555
C10 C9 1_555 1_555
H9 C10 1_555 1_555
C11 N4 1_555 1_555
C12 C11 1_555 1_555
C13 C8 1_555 1_555
H10 C13 1_555 1_555
C14 C12 1_555 1_555
C15 H11 1_555 1_555
C16 C15 1_555 1_555
H12 C16 1_555 1_555
C17 C16 1_555 1_555
C18 C17 1_555 1_555
H13 C18 1_555 1_555
C19 N1 1_555 1_555
H14 C19 1_555 1_555
C20 C17 1_555 1_555
H15 C20 1_555 1_555
H16 C20 1_555 1_555
C21 C20 1_555 1_555
H17 C21 1_555 1_555
H18 C21 1_555 1_555
C22 C21 1_555 1_555
C23 C22 1_555 1_555
H19 C23 1_555 1_555
C24 C23 1_555 1_555
H20 C24 1_555 1_555
C25 N2 1_555 1_555
H21 C25 1_555 1_555
C26 C22 1_555 1_555
H22 C26 1_555 1_555
O11 H23 1_555 1_555
H24 O11 1_555 1_555
Mn1_2 O6 1_555 1_555
Mn1_3 N2 1_555 1_555
N2_2 Mn1 1_555 1_555
O6_2 Mn1 1_555 1_555
C2 C3 1_555 1_555
C5 C6 1_555 1_555
C6 C7 1_555 1_555
C10 C11 1_555 1_555
C12 C13 1_555 1_555
C18 C19 1_555 1_555
C25 C26 1_555 1_555

#END
