
#######################################################################
#
#                 Cambridge Crystallographic Data Centre
#                                CCDC 
#
#######################################################################
#
# If this CIF has been generated from an entry in the Cambridge 
# Structural Database, then it will include bibliographic, chemical, 
# crystal, experimental, refinement or atomic coordinate data resulting 
# from the CCDC's data processing and validation procedures.
#
#######################################################################

data_DEZYEN
_symmetry_cell_setting           monoclinic
_symmetry_space_group_name_H-M   'P 21/c'
_symmetry_Int_Tables_number      14
_space_group_name_Hall           '-P 2ybc'
loop_
_symmetry_equiv_pos_site_id
_symmetry_equiv_pos_as_xyz
1 x,y,z
2 -x,1/2+y,1/2-z
3 -x,-y,-z
4 x,1/2-y,1/2+z
_cell_length_a                   11.5386(3)
_cell_length_b                   27.1779(9)
_cell_length_c                   18.3188(4)
_cell_angle_alpha                90.000
_cell_angle_beta                 90.784(3)
_cell_angle_gamma                90.000
_cell_volume                     5744.14
loop_
_atom_site_label
_atom_site_type_symbol
_atom_site_fract_x
_atom_site_fract_y
_atom_site_fract_z
Ru1 Ru 0.376418 0.252903 0.135735
H1 H 0.349889 0.296976 0.207119
Cu1 Cu 0.474034 0.453278 -0.011792
Cu2 Cu 0.487765 0.048023 -0.004416
P1 P 0.171987 0.255015 0.125977
P2 P 0.581423 0.259194 0.154077
O1 O 0.346931 0.183085 0.259760
O2 O 0.579060 0.445909 0.074674
O3 O 0.610406 0.451838 -0.075553
O4 O 0.655790 0.530260 -0.054180
O5 O 0.624040 0.524910 0.095030
O6 O 0.506235 0.043708 0.102810
O7 O 0.657575 0.047774 -0.016082
O8 O 0.679540 -0.033760 -0.005890
O9 O 0.530730 -0.037570 0.110150
N1 N 0.413157 0.196463 0.054185
N2 N 0.403149 0.202767 -0.019399
N3 N 0.461718 0.126552 -0.001008
N4 N 0.391522 0.306770 0.050493
N5 N 0.395088 0.297081 -0.022107
N6 N 0.431924 0.376025 -0.009034
C1 C 0.359869 0.210178 0.211565
C2 C 0.449664 0.150939 0.063046
H2 H 0.465862 0.136669 0.109414
C3 C 0.432767 0.160461 -0.050394
H3 H 0.433216 0.155076 -0.101630
C4 C 0.415010 0.354397 0.054857
H4 H 0.419375 0.371613 0.099944
C5 C 0.419457 0.338890 -0.055538
H5 H 0.427146 0.341979 -0.106901
C6 C 0.633621 0.479817 0.107684
C7 C 0.718047 0.463645 0.167082
H6 H 0.708910 0.484646 0.210108
H7 H 0.797480 0.466468 0.149286
H8 H 0.702340 0.429363 0.180259
C8 C 0.674734 0.489274 -0.081412
C9 C 0.784530 0.482554 -0.123763
H9 H 0.793513 0.510019 -0.157885
H10 H 0.780551 0.451579 -0.151070
H11 H 0.850987 0.481690 -0.089898
C10 C 0.521850 0.004960 0.137965
C11 C 0.530679 0.008126 0.220048
H12 H 0.489452 -0.019686 0.241719
H13 H 0.495918 0.039026 0.236510
H14 H 0.612404 0.007095 0.235253
C12 C 0.717101 0.009050 -0.014615
C13 C 0.846953 0.015234 -0.025895
H15 H 0.885065 -0.016912 -0.022225
H16 H 0.878895 0.037299 0.011603
H17 H 0.860367 0.029291 -0.074314
C14 C 0.107861 0.315723 0.100132
C15 C 0.126439 0.333564 0.029674
H18 H 0.167926 0.313959 -0.004037
C16 C 0.085732 0.379024 0.008219
H19 H 0.096661 0.390234 -0.040323
C17 C 0.028337 0.408387 0.058515
H20 H 0.002274 0.440262 0.044740
C18 C 0.009588 0.391662 0.126913
H21 H -0.030765 0.411705 0.160611
C19 C 0.049569 0.344524 0.148779
H22 H 0.036018 0.332987 0.196866
C20 C 0.102225 0.240330 0.212600
C21 C 0.134035 0.267176 0.273418
H23 H 0.190783 0.292334 0.269562
C22 C 0.083441 0.257630 0.340528
H24 H 0.105673 0.276193 0.382371
C23 C 0.000423 0.220907 0.346098
H25 H -0.032656 0.213808 0.392121
C24 C -0.034662 0.194395 0.284538
H26 H -0.092049 0.169463 0.287896
C25 C 0.015828 0.205179 0.218631
H27 H -0.009345 0.188012 0.176114
C26 C 0.098499 0.212195 0.064546
C27 C 0.145734 0.165303 0.055392
H28 H 0.215820 0.157039 0.080299
C28 C 0.092815 0.130714 0.010956
H29 H 0.126839 0.099197 0.004638
C29 C -0.011820 0.142638 -0.024780
H30 H -0.049682 0.119121 -0.055164
C30 C -0.059128 0.188616 -0.015486
H31 H -0.129862 0.196616 -0.039842
C31 C -0.006570 0.222973 0.027988
H32 H -0.041161 0.254439 0.033644
C32 C 0.655691 0.282792 0.072896
C33 C 0.703454 0.329501 0.072449
H33 H 0.705433 0.348228 0.116238
C34 C 0.748751 0.349562 0.008792
H34 H 0.781790 0.381580 0.009187
C35 C 0.744953 0.322369 -0.054575
H35 H 0.775192 0.335833 -0.098219
C36 C 0.698502 0.276581 -0.055313
H36 H 0.697416 0.258038 -0.099278
C37 C 0.652963 0.256771 0.007046
H37 H 0.619116 0.224919 0.005405
C38 C 0.638035 0.299831 0.226231
C39 C 0.752565 0.295864 0.249195
H38 H 0.800221 0.270730 0.229657
C40 C 0.798372 0.328449 0.300715
H39 H 0.876995 0.325628 0.316220
C41 C 0.728675 0.364926 0.329144
H40 H 0.759607 0.387150 0.364378
C42 C 0.615588 0.369220 0.306891
H41 H 0.568099 0.394257 0.326856
C43 C 0.569946 0.336928 0.254985
H42 H 0.491610 0.340332 0.239155
C44 C 0.652395 0.200460 0.176004
C45 C 0.728969 0.176731 0.130136
H43 H 0.751998 0.192153 0.086113
C46 C 0.771924 0.130831 0.148075
H44 H 0.823523 0.114915 0.115723
C47 C 0.741790 0.107733 0.211487
H45 H 0.772644 0.076229 0.223036
C48 C 0.664878 0.130952 0.259392
H46 H 0.642154 0.115011 0.303073
C49 C 0.622269 0.177621 0.242153
H47 H 0.572704 0.194087 0.275164
B1 B 0.347313 0.248692 -0.056874
H48 H 0.360124 0.248648 -0.113483
H49 H 0.246069 0.248694 -0.047120
Cu1B Cu 0.525966 0.546722 0.011792
Cu2B Cu 0.512235 -0.048023 0.004416
O4B O 0.344210 0.469740 0.054180
O5B O 0.375960 0.475090 -0.095030
O8B O 0.320460 0.033760 0.005890
O9B O 0.469270 0.037570 -0.110150
C50 C 0.182906 0.088103 0.279971
H50 H 0.239946 0.078796 0.318402
H51 H 0.172610 0.124240 0.281944
Cl1 Cl 0.049249 0.059317 0.298069
Cl2 Cl 0.238040 0.071710 0.193694
C51 C 0.211988 0.084257 -0.155304
H52 H 0.177513 0.113164 -0.130904
H53 H 0.272230 0.070407 -0.122244
Cl3 Cl 0.103815 0.039824 -0.171207
Cl4 Cl 0.275615 0.102866 -0.236244
loop_
_geom_bond_atom_site_label_1
_geom_bond_atom_site_label_2
_geom_bond_site_symmetry_1
_geom_bond_site_symmetry_2
Ru1 H1 1_555 1_555
Cu1 O2 1_555 1_555
Cu2 O6 1_555 1_555
P1 Ru1 1_555 1_555
P2 Ru1 1_555 1_555
O1 C1 1_555 1_555
O2 C6 1_555 1_555
O3 Cu1 1_555 1_555
O4 C8 1_555 1_555
O5 C6 1_555 1_555
O6 C10 1_555 1_555
O7 Cu2 1_555 1_555
O8 C12 1_555 1_555
O9 C10 1_555 1_555
N1 Ru1 1_555 1_555
N2 N1 1_555 1_555
N3 Cu2 1_555 1_555
N4 Ru1 1_555 1_555
N5 N4 1_555 1_555
N6 Cu1 1_555 1_555
C1 Ru1 1_555 1_555
C2 N1 1_555 1_555
H2 C2 1_555 1_555
C3 N2 1_555 1_555
H3 C3 1_555 1_555
C4 N4 1_555 1_555
H4 C4 1_555 1_555
C5 N5 1_555 1_555
H5 C5 1_555 1_555
C6 C7 1_555 1_555
C7 H6 1_555 1_555
H7 C7 1_555 1_555
H8 C7 1_555 1_555
C8 O3 1_555 1_555
C9 C8 1_555 1_555
H9 C9 1_555 1_555
H10 C9 1_555 1_555
H11 C9 1_555 1_555
C10 C11 1_555 1_555
C11 H12 1_555 1_555
H13 C11 1_555 1_555
H14 C11 1_555 1_555
C12 O7 1_555 1_555
C13 C12 1_555 1_555
H15 C13 1_555 1_555
H16 C13 1_555 1_555
H17 C13 1_555 1_555
C14 P1 1_555 1_555
C15 C14 1_555 1_555
H18 C15 1_555 1_555
C16 C15 1_555 1_555
H19 C16 1_555 1_555
C17 C16 1_555 1_555
H20 C17 1_555 1_555
C18 C17 1_555 1_555
H21 C18 1_555 1_555
C19 C14 1_555 1_555
H22 C19 1_555 1_555
C20 P1 1_555 1_555
C21 C20 1_555 1_555
H23 C21 1_555 1_555
C22 C21 1_555 1_555
H24 C22 1_555 1_555
C23 C22 1_555 1_555
H25 C23 1_555 1_555
C24 C23 1_555 1_555
H26 C24 1_555 1_555
C25 C20 1_555 1_555
H27 C25 1_555 1_555
C26 P1 1_555 1_555
C27 C26 1_555 1_555
H28 C27 1_555 1_555
C28 C27 1_555 1_555
H29 C28 1_555 1_555
C29 C28 1_555 1_555
H30 C29 1_555 1_555
C30 C29 1_555 1_555
H31 C30 1_555 1_555
C31 C26 1_555 1_555
H32 C31 1_555 1_555
C32 P2 1_555 1_555
C33 C32 1_555 1_555
H33 C33 1_555 1_555
C34 C33 1_555 1_555
H34 C34 1_555 1_555
C35 C34 1_555 1_555
H35 C35 1_555 1_555
C36 C35 1_555 1_555
H36 C36 1_555 1_555
C37 C32 1_555 1_555
H37 C37 1_555 1_555
C38 P2 1_555 1_555
C39 C38 1_555 1_555
H38 C39 1_555 1_555
C40 C39 1_555 1_555
H39 C40 1_555 1_555
C41 C40 1_555 1_555
H40 C41 1_555 1_555
C42 C41 1_555 1_555
H41 C42 1_555 1_555
C43 C38 1_555 1_555
H42 C43 1_555 1_555
C44 P2 1_555 1_555
C45 C44 1_555 1_555
H43 C45 1_555 1_555
C46 C45 1_555 1_555
H44 C46 1_555 1_555
C47 C46 1_555 1_555
H45 C47 1_555 1_555
C48 C47 1_555 1_555
H46 C48 1_555 1_555
C49 C44 1_555 1_555
H47 C49 1_555 1_555
B1 N2 1_555 1_555
H48 B1 1_555 1_555
H49 B1 1_555 1_555
C50 H50 1_555 1_555
H51 C50 1_555 1_555
Cl1 C50 1_555 1_555
Cl2 C50 1_555 1_555
C51 H52 1_555 1_555
H53 C51 1_555 1_555
Cl3 C51 1_555 1_555
Cl4 C51 1_555 1_555
Cu1B Cu1 1_555 1_555
Cu2B Cu2 1_555 1_555
O4B Cu1 1_555 1_555
O5B Cu1 1_555 1_555
O8B Cu2 1_555 1_555
O9B Cu2 1_555 1_555
O4 Cu1B 1_555 1_555
O5 Cu1B 1_555 1_555
O8 Cu2B 1_555 1_555
O9 Cu2B 1_555 1_555
N3 C2 1_555 1_555
N3 C3 1_555 1_555
N5 B1 1_555 1_555
N6 C4 1_555 1_555
N6 C5 1_555 1_555
C18 C19 1_555 1_555
C24 C25 1_555 1_555
C30 C31 1_555 1_555
C36 C37 1_555 1_555
C42 C43 1_555 1_555
C48 C49 1_555 1_555

#END
