
#######################################################################
#
#                 Cambridge Crystallographic Data Centre
#                                CCDC 
#
#######################################################################
#
# If this CIF has been generated from an entry in the Cambridge 
# Structural Database, then it will include bibliographic, chemical, 
# crystal, experimental, refinement or atomic coordinate data resulting 
# from the CCDC's data processing and validation procedures.
#
#######################################################################

data_DEZZUE
_symmetry_cell_setting           monoclinic
_symmetry_space_group_name_H-M   'C 2'
_symmetry_Int_Tables_number      5
_space_group_name_Hall           'C 2y'
loop_
_symmetry_equiv_pos_site_id
_symmetry_equiv_pos_as_xyz
1 x,y,z
2 -x,y,-z
3 1/2+x,1/2+y,z
4 1/2-x,1/2+y,-z
_cell_length_a                   9.7192(19)
_cell_length_b                   11.769(2)
_cell_length_c                   7.2656(15)
_cell_angle_alpha                90
_cell_angle_beta                 119.02(3)
_cell_angle_gamma                90
_cell_volume                     726.736
loop_
_atom_site_label
_atom_site_type_symbol
_atom_site_fract_x
_atom_site_fract_y
_atom_site_fract_z
Cu1 Cu 0.12992(7) 0.2719(2) 0.48797(10)
O1 O 0.0201(8) 0.1659(6) 0.2524(11)
O2 O 0.2013(9) 0.1645(6) 0.7228(11)
O3 O -0.5333(9) -0.1027(6) -0.2919(11)
O4 O -0.3151(10) -0.1021(7) -0.3132(12)
N1 N 0.3549(5) 0.2751(16) 0.4904(7)
C1 C -0.1119(18) 0.1206(13) 0.217(2)
C2 C -0.1795(18) 0.0391(13) 0.041(2)
H1 H -0.1194 0.0198 -0.0253
C3 C -0.3142(14) -0.0068(10) -0.0262(18)
H2 H -0.3715 0.0104 0.0453
C4 C -0.3884(16) -0.0858(11) -0.2102(19)
C5 C 0.4234(17) 0.1755(12) 0.4823(19)
H3 H 0.3661 0.1064 0.4524
C6 C 0.4302(16) 0.3666(11) 0.5063(18)
H4 H 0.3908 0.4365 0.5271
Cu1A Cu -0.12992(7) 0.2719(2) 0.51203(10)
Cu1A_2 Cu 0.87008(7) 0.2719(2) 0.51203(10)
Cu1C Cu -0.62992(7) -0.2281(2) -0.48797(10)
Cu1B Cu -0.37008(7) -0.2281(2) -0.51203(10)
Cu1B_2 Cu 0.62992(7) -0.2281(2) 1.48797(10)
Cu1C_2 Cu 0.37008(7) -0.2281(2) 1.51203(10)
O1A O -0.0201(8) 0.1659(6) 0.7476(11)
O2A O -0.2013(9) 0.1645(6) 0.2772(11)
O3B O -0.0333(9) 0.3973(6) 0.7081(11)
O3C O 0.0333(9) 0.3973(6) 0.2919(11)
O3A O 0.5333(9) -0.1027(6) 1.2919(11)
O4C O -0.1849(10) 0.3979(7) 0.3132(12)
O4B O 0.1849(10) 0.3979(7) 0.6868(12)
O4A O 0.3151(10) -0.1021(7) 1.3132(12)
N1A N 0.6451(5) 0.2751(16) 0.5096(7)
N1A_2 N -0.3549(5) 0.2751(16) 0.5096(7)
C1A C 0.1119(18) 0.1206(13) 0.783(2)
C2A C 0.1795(18) 0.0391(13) 0.959(2)
H1A H 0.1194 0.0198 1.0253
C3A C 0.3142(14) -0.0068(10) 1.0262(18)
H2A H 0.3715 0.0104 0.9547
C4A C 0.3884(16) -0.0858(11) 1.2102(19)
C5A C 0.5766(17) 0.1755(12) 0.5177(19)
H3A H 0.6339 0.1064 0.5476
C6A C 0.5698(16) 0.3666(11) 0.4937(18)
H4A H 0.6092 0.4365 0.4729
loop_
_geom_bond_atom_site_label_1
_geom_bond_atom_site_label_2
_geom_bond_site_symmetry_1
_geom_bond_site_symmetry_2
Cu1 O1 1_555 1_555
O1 C1 1_555 1_555
O2 Cu1 1_555 1_555
O3 C4 1_555 1_555
O4 C4 1_555 1_555
N1 Cu1 1_555 1_555
C1 C2 1_555 1_555
C2 H1 1_555 1_555
C3 C2 1_555 1_555
H2 C3 1_555 1_555
C4 C3 1_555 1_555
C5 N1 1_555 1_555
H3 C5 1_555 1_555
C6 N1 1_555 1_555
H4 C6 1_555 1_555
Cu1A O1A 1_555 1_555
Cu1A_2 N1A 1_555 1_555
Cu1C O3 1_555 1_555
Cu1B O4 1_555 1_555
Cu1B_2 O3A 1_555 1_555
Cu1C_2 O4A 1_555 1_555
O1A C1A 1_555 1_555
O2A C1 1_555 1_555
O3B Cu1A 1_555 1_555
O3C Cu1 1_555 1_555
O3A C4A 1_555 1_555
O4C Cu1A 1_555 1_555
O4B Cu1 1_555 1_555
O4A C4A 1_555 1_555
N1A C5A 1_555 1_555
N1A_2 Cu1A 1_555 1_555
C1A O2 1_555 1_555
C2A C1A 1_555 1_555
H1A C2A 1_555 1_555
C3A C2A 1_555 1_555
H2A C3A 1_555 1_555
C4A C3A 1_555 1_555
C5A C5 1_555 1_555
H3A C5A 1_555 1_555
C6A C6 1_555 1_555
H4A C6A 1_555 1_555
Cu1A O2A 1_555 1_555
N1A C6A 1_555 1_555

#END
