
#######################################################################
#
#                 Cambridge Crystallographic Data Centre
#                                CCDC 
#
#######################################################################
#
# If this CIF has been generated from an entry in the Cambridge 
# Structural Database, then it will include bibliographic, chemical, 
# crystal, experimental, refinement or atomic coordinate data resulting 
# from the CCDC's data processing and validation procedures.
#
#######################################################################

data_DIBBAS
_symmetry_cell_setting           monoclinic
_symmetry_space_group_name_H-M   'C 2/c'
_symmetry_Int_Tables_number      15
_space_group_name_Hall           '-C 2yn'
loop_
_symmetry_equiv_pos_site_id
_symmetry_equiv_pos_as_xyz
1 x,y,z
2 1/2+x,1/2+y,z
3 -x,y,1/2-z
4 1/2-x,1/2+y,1/2-z
5 -x,-y,-z
6 1/2-x,1/2-y,-z
7 x,-y,1/2+z
8 1/2+x,1/2-y,1/2+z
_cell_length_a                   16.360(3)
_cell_length_b                   10.753(2)
_cell_length_c                   13.595(2)
_cell_angle_alpha                90
_cell_angle_beta                 105.302(11)
_cell_angle_gamma                90
_cell_volume                     2306.83
loop_
_atom_site_label
_atom_site_type_symbol
_atom_site_fract_x
_atom_site_fract_y
_atom_site_fract_z
Cu1 Cu 0.334200(18) -0.24928(3) 0.51185(2)
O1 O 0.30919(12) -0.40091(18) 0.42941(14)
O2 O 0.33215(12) -0.09936(18) 0.59485(15)
O3 O 0.34195(12) -0.65024(19) 0.13577(14)
O4 O 0.20163(12) -0.65219(19) 0.11562(14)
N1 N 0.46681(13) -0.2441(2) 0.51895(16)
C1 C 0.23565(17) -0.4371(2) 0.38624(19)
C2 C 0.22561(17) -0.5265(2) 0.30058(19)
H1 H 0.1735 -0.5698 0.2766
C3 C 0.28764(18) -0.5472(2) 0.25699(19)
H2 H 0.3418 -0.5123 0.2870
C4 C 0.27581(17) -0.6233(2) 0.16240(19)
C5 C 0.50294(19) -0.3261(3) 0.4710(3)
H3 H 0.4689 -0.3918 0.4352
C6 C 0.5870(2) -0.3220(3) 0.4699(3)
H4 H 0.6098 -0.3846 0.4356
C7 C 0.63760(17) -0.2265(2) 0.5190(2)
C8 C 0.6002(2) -0.1398(3) 0.5680(3)
H5 H 0.6323 -0.0715 0.6023
C9 C 0.5158(2) -0.1524(3) 0.5671(3)
H6 H 0.4917 -0.0927 0.6027
C10 C 0.72770(18) -0.2127(3) 0.5221(2)
H7 H 0.7568 -0.1438 0.5592
Cu1E Cu 0.165800(18) -0.25072(3) 0.48815(2)
Cu1E_2 Cu 1.165800(18) -0.25072(3) 0.48815(2)
Cu1F Cu 0.334200(18) -0.75072(3) 0.01185(2)
Cu1C Cu 0.165800(18) -0.74928(3) -0.01185(2)
Cu1C_2 Cu 0.165800(18) 0.25072(3) 0.98815(2)
Cu1F_2 Cu 0.334200(18) 0.24928(3) 1.01185(2)
O1E O 0.19081(12) -0.09909(18) 0.57059(14)
O2E O 0.16785(12) -0.40064(18) 0.40515(15)
O3C O 0.15805(12) -0.15024(19) 0.36423(14)
O3F O 0.34195(12) -0.34976(19) 0.63577(14)
O3E O 0.15805(12) 0.15024(19) 0.86423(14)
O4F O 0.20163(12) -0.34781(19) 0.61562(14)
O4C O 0.29837(12) -0.15219(19) 0.38438(14)
O4E O 0.29837(12) 0.15219(19) 0.88438(14)
N1E N 1.03319(13) -0.2559(2) 0.48105(16)
N1E_2 N 0.03319(13) -0.2559(2) 0.48105(16)
C1E C 0.26435(17) -0.0629(2) 0.61376(19)
C2E C 0.27439(17) 0.0265(2) 0.69942(19)
H1E H 0.3265 0.0698 0.7234
C3E C 0.21236(18) 0.0472(2) 0.74301(19)
H2E H 0.1582 0.0123 0.7130
C4E C 0.22419(17) 0.1233(2) 0.83760(19)
C5E C 0.99706(19) -0.1739(3) 0.5290(3)
H3E H 1.0311 -0.1082 0.5648
C6E C 0.9130(2) -0.1780(3) 0.5301(3)
H4E H 0.8902 -0.1154 0.5644
C7E C 0.86240(17) -0.2735(2) 0.4810(2)
C8E C 0.8998(2) -0.3602(3) 0.4320(3)
H5E H 0.8677 -0.4285 0.3977
C9E C 0.9842(2) -0.3476(3) 0.4329(3)
H6E H 1.0083 -0.4073 0.3973
C10E C 0.77230(18) -0.2873(3) 0.4779(2)
H7E H 0.7432 -0.3562 0.4408
O5 O 0.5000 -0.5314(3) 0.2500
H8 H 0.466(3) -0.575(4) 0.217(3)
H8B H 0.534(3) -0.575(4) 0.283(3)
loop_
_geom_bond_atom_site_label_1
_geom_bond_atom_site_label_2
_geom_bond_site_symmetry_1
_geom_bond_site_symmetry_2
Cu1 O1 1_555 1_555
O1 C1 1_555 1_555
O2 Cu1 1_555 1_555
O3 C4 1_555 1_555
O4 C4 1_555 1_555
N1 Cu1 1_555 1_555
C1 C2 1_555 1_555
C2 H1 1_555 1_555
C3 C2 1_555 1_555
H2 C3 1_555 1_555
C4 C3 1_555 1_555
C5 N1 1_555 1_555
H3 C5 1_555 1_555
C6 C5 1_555 1_555
H4 C6 1_555 1_555
C7 C6 1_555 1_555
C8 C7 1_555 1_555
H5 C8 1_555 1_555
C9 N1 1_555 1_555
H6 C9 1_555 1_555
C10 C7 1_555 1_555
H7 C10 1_555 1_555
O5 H8 1_555 1_555
Cu1E O1E 1_555 1_555
Cu1E_2 N1E 1_555 1_555
Cu1F O3 1_555 1_555
Cu1C O4 1_555 1_555
Cu1C_2 O3E 1_555 1_555
Cu1F_2 O4E 1_555 1_555
O1E C1E 1_555 1_555
O2E C1 1_555 1_555
O3C Cu1E 1_555 1_555
O3F Cu1 1_555 1_555
O3E C4E 1_555 1_555
O4F Cu1E 1_555 1_555
O4C Cu1 1_555 1_555
O4E C4E 1_555 1_555
N1E C5E 1_555 1_555
N1E_2 Cu1E 1_555 1_555
C1E O2 1_555 1_555
C2E C1E 1_555 1_555
H1E C2E 1_555 1_555
C3E C2E 1_555 1_555
H2E C3E 1_555 1_555
C4E C3E 1_555 1_555
C5E H3E 1_555 1_555
C6E C5E 1_555 1_555
H4E C6E 1_555 1_555
C7E C6E 1_555 1_555
C8E C7E 1_555 1_555
H5E C8E 1_555 1_555
C9E N1E 1_555 1_555
H6E C9E 1_555 1_555
C10E C10 1_555 1_555
H7E C10E 1_555 1_555
H8B O5 1_555 1_555
C8 C9 1_555 1_555
Cu1E O2E 1_555 1_555
C7E C10E 1_555 1_555
C8E C9E 1_555 1_555

#END
