
#######################################################################
#
#                 Cambridge Crystallographic Data Centre
#                                CCDC 
#
#######################################################################
#
# If this CIF has been generated from an entry in the Cambridge 
# Structural Database, then it will include bibliographic, chemical, 
# crystal, experimental, refinement or atomic coordinate data resulting 
# from the CCDC's data processing and validation procedures.
#
#######################################################################

data_DIBFUR
_symmetry_cell_setting           triclinic
_symmetry_space_group_name_H-M   'P -1'
_symmetry_Int_Tables_number      2
_space_group_name_Hall           '-P 1'
loop_
_symmetry_equiv_pos_site_id
_symmetry_equiv_pos_as_xyz
1 x,y,z
2 -x,-y,-z
_cell_length_a                   10.1884(4)
_cell_length_b                   10.5347(5)
_cell_length_c                   19.6220(9)
_cell_angle_alpha                102.142(4)
_cell_angle_beta                 91.323(4)
_cell_angle_gamma                101.178(4)
_cell_volume                     2015.41
loop_
_atom_site_label
_atom_site_type_symbol
_atom_site_fract_x
_atom_site_fract_y
_atom_site_fract_z
Cd1 Cd 0.59760(4) 0.72461(4) 0.353919(19)
C1 C 0.4755(5) 0.5014(5) 0.2276(3)
C2 C 0.5096(6) 0.6667(6) 0.1781(3)
H1 H 0.5313 0.7529 0.1713
C3 C 0.4665(6) 0.5574(6) 0.1272(3)
H2 H 0.4538 0.5539 0.0797
C4 C 0.4677(5) 0.4330(5) 0.2846(2)
C5 C 0.4807(6) 0.4056(6) 0.3894(3)
H3 H 0.4962 0.4231 0.4377
C6 C 0.4308(6) 0.2847(6) 0.3484(3)
H4 H 0.4065 0.2050 0.3626
C7 C 0.7281(5) 1.1438(5) 0.3602(3)
C8 C 0.7590(5) 1.2203(5) 0.4277(2)
H5 H 0.7513 1.1796 0.4655
C9 C 0.8010(5) 1.3566(5) 0.4390(2)
C10 C 0.8153(5) 1.4166(5) 0.3823(2)
H6 H 0.8459 1.5078 0.3894
C11 C 0.7842(5) 1.3409(6) 0.3151(2)
C12 C 0.7408(5) 1.2050(5) 0.3037(2)
H7 H 0.7202 1.1547 0.2584
C13 C 0.6783(6) 0.9966(6) 0.3470(3)
C14 C 0.8258(5) 1.4415(5) 0.5119(2)
N1 N 0.5167(4) 0.6319(4) 0.2414(2)
N2 N 0.4452(5) 0.4527(5) 0.1594(2)
H8 H 0.4174 0.3706 0.1394
N3 N 0.5052(4) 0.4987(4) 0.3495(2)
N4 N 0.4232(4) 0.3037(4) 0.2813(2)
H9 H 0.3952 0.2436 0.2441
O1 O 0.6894(5) 0.9401(4) 0.3970(2)
O2 O 0.6258(6) 0.9343(5) 0.2901(2)
O3 O 0.8260(4) 1.3823(4) 0.56220(17)
O4 O 0.8453(4) 1.5642(4) 0.51977(18)
O5 O 0.7959(5) 1.4028(4) 0.26013(19)
H10 H 0.8183 1.3537 0.2261
O6 O 0.8108(4) 0.6840(4) 0.3087(2)
H11 H 0.880(4) 0.724(6) 0.335(2)
H12 H 0.820(5) 0.707(6) 0.2702(15)
O7 O 0.4061(6) 0.7804(6) 0.4023(4)
H13 H 0.361(7) 0.733(8) 0.427(4)
H14 H 0.352(6) 0.824(8) 0.390(5)
O8 O 0.6914(6) 0.7146(5) 0.4650(2)
H15 H 0.730(7) 0.787(3) 0.491(3)
H16 H 0.732(7) 0.658(5) 0.476(4)
Cd2 Cd 0.93488(4) 0.85024(4) 0.867482(18)
C15 C 0.5817(4) 1.0144(5) 0.9145(2)
C16 C 0.6140(5) 1.1399(5) 0.9577(2)
H17 H 0.7027 1.1771 0.9733
C17 C 0.5139(5) 1.2103(6) 0.9778(2)
C18 C 0.3826(5) 1.1538(7) 0.9540(3)
H18 H 0.3155 1.2011 0.9667
C19 C 0.3495(5) 1.0290(7) 0.9120(3)
C20 C 0.4488(5) 0.9583(6) 0.8919(2)
H19 H 0.4266 0.8737 0.8633
C21 C 0.6907(5) 0.9395(5) 0.8933(2)
C22 C 0.9071(5) 0.7448(5) 0.7092(2)
C23 C 0.8865(5) 0.6279(5) 0.7367(2)
C24 C 0.9358(6) 0.8832(6) 0.6402(3)
H20 H 0.9435 0.9186 0.6006
C25 C 0.2060(6) 0.9693(9) 0.8938(3)
C26 C 0.9479(6) 0.9525(6) 0.7074(3)
H21 H 0.9656 1.0444 0.7218
C27 C 0.8513(6) 0.4231(6) 0.7492(3)
H22 H 0.8347 0.3310 0.7399
C28 C 0.8696(6) 0.5071(6) 0.8129(3)
H23 H 0.8674 0.4812 0.8554
N5 N 0.8916(4) 0.6356(4) 0.8054(2)
N6 N 0.8625(5) 0.5022(5) 0.7010(2)
H24 H 0.8553 0.4755 0.6563
N7 N 0.9298(4) 0.8650(4) 0.7506(2)
N8 N 0.9103(4) 0.7519(4) 0.6416(2)
H25 H 0.8985 0.6862 0.6060
O9 O 0.8103(3) 0.9985(4) 0.91295(18)
O10 O 0.6626(4) 0.8228(4) 0.85925(19)
O11 O 0.1728(4) 0.8438(7) 0.8714(2)
O12 O 0.1184(4) 1.0375(6) 0.9017(2)
O13 O 0.5389(4) 1.3322(4) 1.0212(2)
H26 H 0.6113 1.3443 1.0432
O14 O 0.9291(6) 0.7927(6) 0.9752(2)
H27 H 0.951(8) 0.728(5) 0.988(3)
H28 H 0.908(8) 0.843(6) 1.011(2)
Cd2_2 Cd -0.06512(4) 0.85024(4) 0.867482(18)
O11_2 O 1.1728(4) 0.8438(7) 0.8714(2)
O12_2 O 1.1184(4) 1.0375(6) 0.9017(2)
O15 O 0.8975(9) 0.9752(10) 0.4903(5)
O16 O 0.0240(7) 0.7961(6) 0.4102(3)
O17 O 0.3500(8) 0.9341(9) 0.2614(4)
O18 O 0.8604(6) 0.7189(8) 0.1733(3)
O19 O 0.8710(6) 0.2176(6) 0.8531(3)
O20 O 0.7770(7) 0.3955(9) 0.0995(4)
O21 O 0.0685(11) 0.6104(11) 0.0116(6)
O22 O 0.3713(17) 0.0329(17) 0.4538(9)
loop_
_geom_bond_atom_site_label_1
_geom_bond_atom_site_label_2
_geom_bond_site_symmetry_1
_geom_bond_site_symmetry_2
Cd1 N1 1_555 1_555
C1 C4 1_555 1_555
C2 H1 1_555 1_555
C3 C2 1_555 1_555
H2 C3 1_555 1_555
C4 N3 1_555 1_555
C5 H3 1_555 1_555
C6 C5 1_555 1_555
H4 C6 1_555 1_555
C7 C8 1_555 1_555
C8 H5 1_555 1_555
C9 C8 1_555 1_555
C10 C9 1_555 1_555
H6 C10 1_555 1_555
C11 C10 1_555 1_555
C12 C7 1_555 1_555
H7 C12 1_555 1_555
C13 C7 1_555 1_555
C14 C9 1_555 1_555
N1 C1 1_555 1_555
N2 C1 1_555 1_555
H8 N2 1_555 1_555
N3 Cd1 1_555 1_555
N4 C4 1_555 1_555
H9 N4 1_555 1_555
O1 Cd1 1_555 1_555
O2 Cd1 1_555 1_555
O3 C14 1_555 1_555
O4 C14 1_555 1_555
O5 C11 1_555 1_555
H10 O5 1_555 1_555
O6 Cd1 1_555 1_555
H11 O6 1_555 1_555
H12 O6 1_555 1_555
O7 Cd1 1_555 1_555
H13 O7 1_555 1_555
H14 O7 1_555 1_555
O8 Cd1 1_555 1_555
H15 O8 1_555 1_555
H16 O8 1_555 1_555
Cd2 N5 1_555 1_555
C15 C16 1_555 1_555
C16 H17 1_555 1_555
C17 C16 1_555 1_555
C18 C17 1_555 1_555
H18 C18 1_555 1_555
C19 C18 1_555 1_555
C20 C15 1_555 1_555
H19 C20 1_555 1_555
C21 C15 1_555 1_555
C22 C23 1_555 1_555
C23 N5 1_555 1_555
C24 H20 1_555 1_555
C25 C19 1_555 1_555
C26 C24 1_555 1_555
H21 C26 1_555 1_555
C27 H22 1_555 1_555
C28 C27 1_555 1_555
H23 C28 1_555 1_555
N5 C28 1_555 1_555
N6 C23 1_555 1_555
H24 N6 1_555 1_555
N7 Cd2 1_555 1_555
N8 C22 1_555 1_555
H25 N8 1_555 1_555
O9 Cd2 1_555 1_555
O10 Cd2 1_555 1_555
O11 C25 1_555 1_555
O12 C25 1_555 1_555
O13 C17 1_555 1_555
H26 O13 1_555 1_555
O14 Cd2 1_555 1_555
H27 O14 1_555 1_555
H28 O14 1_555 1_555
Cd2_2 O11 1_555 1_555
O11_2 Cd2 1_555 1_555
O12_2 Cd2 1_555 1_555
C2 N1 1_555 1_555
C3 N2 1_555 1_555
C5 N3 1_555 1_555
C6 N4 1_555 1_555
C11 C12 1_555 1_555
C13 O1 1_555 1_555
C13 O2 1_555 1_555
C19 C20 1_555 1_555
C21 O9 1_555 1_555
C21 O10 1_555 1_555
C22 N7 1_555 1_555
C24 N8 1_555 1_555
C26 N7 1_555 1_555
C27 N6 1_555 1_555
O12 Cd2_2 1_555 1_555

#END
