
#######################################################################
#
#                 Cambridge Crystallographic Data Centre
#                                CCDC 
#
#######################################################################
#
# If this CIF has been generated from an entry in the Cambridge 
# Structural Database, then it will include bibliographic, chemical, 
# crystal, experimental, refinement or atomic coordinate data resulting 
# from the CCDC's data processing and validation procedures.
#
#######################################################################

data_DIBGUS
_symmetry_cell_setting           monoclinic
_symmetry_space_group_name_H-M   'P 2/c'
_symmetry_Int_Tables_number      13
_space_group_name_Hall           '-P 2yc'
loop_
_symmetry_equiv_pos_site_id
_symmetry_equiv_pos_as_xyz
1 x,y,z
2 -x,y,1/2-z
3 -x,-y,-z
4 x,-y,1/2+z
_cell_length_a                   19.656(4)
_cell_length_b                   10.716(2)
_cell_length_c                   19.455(4)
_cell_angle_alpha                90
_cell_angle_beta                 94.10(3)
_cell_angle_gamma                90
_cell_volume                     4087.39
loop_
_atom_site_label
_atom_site_type_symbol
_atom_site_fract_x
_atom_site_fract_y
_atom_site_fract_z
Cd1 Cd 0.20090(2) 0.40906(4) 0.44150(2)
S1 S 0.29966(10) 0.38941(15) 0.00699(8)
O1 O 0.1909(3) 0.3509(5) 0.3256(2)
O2 O 0.2757(3) 0.4757(6) 0.3499(2)
O3 O 0.2984(2) 0.6729(4) -0.0033(2)
O4 O 0.4072(2) 0.6945(5) 0.0286(3)
N1 N 0.1196(3) 0.5652(5) 0.4188(3)
N2 N 0.1445(3) 0.4489(5) 0.5400(2)
C1 C 0.2884(3) 0.3953(6) 0.0970(3)
C2 C 0.2417(3) 0.3153(6) 0.1211(3)
H1 H 0.2199 0.2576 0.0914
C3 C 0.2265(3) 0.3191(6) 0.1892(3)
H2 H 0.1942 0.2645 0.2047
C4 C 0.2586(4) 0.4030(6) 0.2346(3)
C5 C 0.3081(4) 0.4812(6) 0.2105(3)
H3 H 0.3315 0.5362 0.2407
C6 C 0.3228(3) 0.4782(6) 0.1419(3)
H4 H 0.3556 0.5314 0.1261
C7 C 0.2406(5) 0.4115(7) 0.3078(3)
C8 C 0.3701(3) 0.4931(7) -0.0033(3)
H5 H 0.4078 0.4669 0.0283
H6 H 0.3844 0.4829 -0.0497
C9 C 0.3578(4) 0.6300(6) 0.0084(3)
C10 C 0.1096(4) 0.6222(7) 0.3576(4)
H7 H 0.1366 0.5977 0.3226
C11 C 0.0624(4) 0.7140(7) 0.3432(4)
H8 H 0.0569 0.7508 0.2999
C12 C 0.0234(4) 0.7495(7) 0.3956(4)
H9 H -0.0099 0.8105 0.3878
C13 C 0.0334(3) 0.6948(6) 0.4601(4)
H10 H 0.0078 0.7198 0.4961
C14 C 0.0817(3) 0.6031(5) 0.4699(3)
C15 C 0.0959(3) 0.5374(5) 0.5378(3)
C16 C 0.0607(3) 0.5661(6) 0.5961(4)
H11 H 0.0272 0.6276 0.5941
C17 C 0.0767(4) 0.5016(8) 0.6561(3)
H12 H 0.0538 0.5187 0.6952
C18 C 0.1261(4) 0.4128(7) 0.6581(3)
H13 H 0.1375 0.3689 0.6985
C19 C 0.1593(4) 0.3885(6) 0.5994(3)
H14 H 0.1932 0.3279 0.6012
Cd2 Cd 0.28525(3) -0.11617(4) 0.01845(2)
S2 S 0.19009(9) -0.08459(15) 0.45487(7)
O5 O 0.2921(4) -0.1705(6) 0.1348(3)
O6 O 0.2106(4) -0.0378(7) 0.1093(3)
O7 O 0.1870(2) 0.1987(4) 0.4639(2)
O8 O 0.0783(3) 0.2165(5) 0.4302(3)
N3 N 0.3673(3) 0.0404(5) 0.0419(2)
N4 N 0.3431(3) -0.0779(5) -0.0793(3)
C20 C 0.2018(3) -0.0862(6) 0.3653(3)
C21 C 0.2487(4) -0.1717(6) 0.3435(3)
H15 H 0.2716 -0.2250 0.3750
C22 C 0.2612(4) -0.1768(7) 0.2743(3)
H16 H 0.2929 -0.2339 0.2598
C23 C 0.2280(4) -0.0998(6) 0.2266(3)
C24 C 0.1812(4) -0.0173(7) 0.2486(3)
H17 H 0.1578 0.0347 0.2168
C25 C 0.1680(4) -0.0094(7) 0.3177(3)
H18 H 0.1363 0.0480 0.3318
C26 C 0.2439(6) -0.1019(8) 0.1516(4)
C27 C 0.1177(3) 0.0139(7) 0.4619(3)
H19 H 0.1017 0.0027 0.5075
H20 H 0.0818 -0.0147 0.4289
C28 C 0.1280(3) 0.1545(6) 0.4503(3)
C29 C 0.3776(4) 0.0949(7) 0.1031(4)
H21 H 0.3500 0.0732 0.1381
C30 C 0.4282(4) 0.1831(7) 0.1162(4)
H22 H 0.4340 0.2213 0.1591
C31 C 0.4693(3) 0.2131(7) 0.0656(4)
H23 H 0.5045 0.2702 0.0740
C32 C 0.4584(3) 0.1583(7) 0.0016(4)
H24 H 0.4854 0.1800 -0.0339
C33 C 0.4071(3) 0.0710(6) -0.0093(3)
C34 C 0.3917(3) 0.0084(6) -0.0768(3)
C35 C 0.4272(3) 0.0361(8) -0.1349(4)
H25 H 0.4614 0.0963 -0.1326
C36 C 0.4108(4) -0.0270(9) -0.1952(4)
H26 H 0.4342 -0.0099 -0.2340
C37 C 0.3608(4) -0.1137(7) -0.1985(4)
H27 H 0.3494 -0.1571 -0.2391
C38 C 0.3267(4) -0.1364(7) -0.1391(4)
H28 H 0.2913 -0.1942 -0.1412
Cd1C Cd 0.20090(2) 0.59094(4) -0.05850(2)
S1C S 0.29966(10) 0.61059(15) 0.50699(8)
O3_2 O 0.2984(2) -0.3271(4) -0.0033(2)
O3C O 0.2984(2) 0.3271(4) 0.4967(2)
Cd2_2 Cd 0.28525(3) 0.88383(4) 0.01845(2)
Cd2C Cd 0.28525(3) 0.11617(4) 0.51845(2)
S2C S 0.19009(9) 0.08459(15) -0.04513(7)
O7C O 0.1870(2) -0.1987(4) -0.0361(2)
O9 O 0.4275(6) 0.7799(12) 0.1727(7)
O10 O 0.0000 0.9428(19) 0.2500
O11 O 0.0497(8) 0.0644(15) 0.1218(8)
O12 O -0.0643(8) 0.2704(17) 0.2255(9)
O13 O 0.4403(10) 0.4438(19) 0.3408(10)
O14 O 0.5000 0.346(2) 0.2500
loop_
_geom_bond_atom_site_label_1
_geom_bond_atom_site_label_2
_geom_bond_site_symmetry_1
_geom_bond_site_symmetry_2
Cd1 O1 1_555 1_555
S1 C1 1_555 1_555
O1 C7 1_555 1_555
O2 Cd1 1_555 1_555
O3 C9 1_555 1_555
O4 C9 1_555 1_555
N1 Cd1 1_555 1_555
N2 Cd1 1_555 1_555
C1 C2 1_555 1_555
C2 H1 1_555 1_555
C3 C2 1_555 1_555
H2 C3 1_555 1_555
C4 C3 1_555 1_555
C5 C4 1_555 1_555
H3 C5 1_555 1_555
C6 C1 1_555 1_555
H4 C6 1_555 1_555
C7 O2 1_555 1_555
C8 S1 1_555 1_555
H5 C8 1_555 1_555
H6 C8 1_555 1_555
C9 C8 1_555 1_555
C10 N1 1_555 1_555
H7 C10 1_555 1_555
C11 C10 1_555 1_555
H8 C11 1_555 1_555
C12 C11 1_555 1_555
H9 C12 1_555 1_555
C13 C12 1_555 1_555
H10 C13 1_555 1_555
C14 N1 1_555 1_555
C15 N2 1_555 1_555
C16 C15 1_555 1_555
H11 C16 1_555 1_555
C17 C16 1_555 1_555
H12 C17 1_555 1_555
C18 C17 1_555 1_555
H13 C18 1_555 1_555
C19 N2 1_555 1_555
H14 C19 1_555 1_555
Cd2 O5 1_555 1_555
S2 C20 1_555 1_555
O5 C26 1_555 1_555
O6 Cd2 1_555 1_555
O7 Cd1 1_555 1_555
O8 C28 1_555 1_555
N3 Cd2 1_555 1_555
N4 Cd2 1_555 1_555
C20 C21 1_555 1_555
C21 H15 1_555 1_555
C22 C21 1_555 1_555
H16 C22 1_555 1_555
C23 C22 1_555 1_555
C24 C23 1_555 1_555
H17 C24 1_555 1_555
C25 C20 1_555 1_555
H18 C25 1_555 1_555
C26 O6 1_555 1_555
C27 S2 1_555 1_555
H19 C27 1_555 1_555
H20 C27 1_555 1_555
C28 O7 1_555 1_555
C29 N3 1_555 1_555
H21 C29 1_555 1_555
C30 C29 1_555 1_555
H22 C30 1_555 1_555
C31 C30 1_555 1_555
H23 C31 1_555 1_555
C32 C31 1_555 1_555
H24 C32 1_555 1_555
C33 N3 1_555 1_555
C34 N4 1_555 1_555
C35 C34 1_555 1_555
H25 C35 1_555 1_555
C36 C35 1_555 1_555
H26 C36 1_555 1_555
C37 C36 1_555 1_555
H27 C37 1_555 1_555
C38 N4 1_555 1_555
H28 C38 1_555 1_555
Cd1C S1 1_555 1_555
S1C Cd1 1_555 1_555
O3_2 Cd2 1_555 1_555
O3C Cd1 1_555 1_555
Cd2_2 O3 1_555 1_555
Cd2C S2 1_555 1_555
S2C Cd2 1_555 1_555
O7C Cd2 1_555 1_555
O3 Cd1C 1_555 1_555
C4 C7 1_555 1_555
C5 C6 1_555 1_555
C13 C14 1_555 1_555
C14 C15 1_555 1_555
C18 C19 1_555 1_555
O7 Cd2C 1_555 1_555
C23 C26 1_555 1_555
C24 C25 1_555 1_555
C27 C28 1_555 1_555
C32 C33 1_555 1_555
C33 C34 1_555 1_555
C37 C38 1_555 1_555
O3C Cd2C 1_555 1_555

#END
