
#######################################################################
#
#                 Cambridge Crystallographic Data Centre
#                                CCDC 
#
#######################################################################
#
# If this CIF has been generated from an entry in the Cambridge 
# Structural Database, then it will include bibliographic, chemical, 
# crystal, experimental, refinement or atomic coordinate data resulting 
# from the CCDC's data processing and validation procedures.
#
#######################################################################

data_DIBJIJ
_symmetry_cell_setting           monoclinic
_symmetry_space_group_name_H-M   'C 2/c'
_symmetry_Int_Tables_number      15
_space_group_name_Hall           '-C 2yn'
loop_
_symmetry_equiv_pos_site_id
_symmetry_equiv_pos_as_xyz
1 x,y,z
2 -x,y,1/2-z
3 1/2+x,1/2+y,z
4 1/2-x,1/2+y,1/2-z
5 -x,-y,-z
6 x,-y,1/2+z
7 1/2-x,1/2-y,-z
8 1/2+x,1/2-y,1/2+z
_cell_length_a                   47.1489(12)
_cell_length_b                   10.9944(3)
_cell_length_c                   28.3561(8)
_cell_angle_alpha                90
_cell_angle_beta                 120.5630(10)
_cell_angle_gamma                90
_cell_volume                     12656.9
loop_
_atom_site_label
_atom_site_type_symbol
_atom_site_fract_x
_atom_site_fract_y
_atom_site_fract_z
Eu1 Eu 0.283150(4) -0.121430(16) 0.582365(7)
Eu2 Eu 0.234164(4) -0.060085(16) 0.437136(7)
Eu3 Eu 0.198334(4) -0.217858(16) 0.509717(8)
S1 S 0.27876(2) 0.12094(9) 0.64355(4)
S2 S 0.34431(2) 0.80496(9) 1.04017(4)
S3 S 0.68391(2) 0.31591(9) 1.29561(4)
S4 S 0.60952(2) -0.23377(9) 0.90069(4)
N1 N 0.46335(7) 0.1529(3) 0.91172(14)
H1 H 0.4680 0.1998 0.9387
C1 C 0.43276(9) 0.1471(4) 0.86527(17)
C2 C 0.43548(10) 0.0723(4) 0.82712(18)
H2 H 0.4182 0.0532 0.7912
C3 C 0.46731(10) 0.0325(4) 0.85097(18)
H3 H 0.4761 -0.0193 0.8347
C4 C 0.48488(9) 0.0825(4) 0.90460(17)
C5 C 0.40452(9) 0.2027(4) 0.85912(17)
C6 C 0.40348(9) 0.2810(3) 0.89726(16)
N2 N 0.43043(8) 0.3325(3) 0.94178(14)
C7 C 0.41832(9) 0.4121(4) 0.96452(17)
C8 C 0.38243(9) 0.4044(4) 0.93518(18)
H4 H 0.3681 0.4472 0.9437
C9 C 0.37348(9) 0.3250(4) 0.89374(18)
H5 H 0.3516 0.3021 0.8672
C10 C 0.43707(9) 0.4948(3) 1.00701(17)
C11 C 0.47137(9) 0.4895(3) 1.04071(16)
N3 N 0.49107(7) 0.3992(3) 1.03995(14)
H6 H 0.4858 0.3446 1.0172
C12 C 0.52211(9) 0.4101(4) 1.08461(17)
C13 C 0.52276(10) 0.5179(4) 1.11357(19)
H7 H 0.5413 0.5492 1.1457
C14 C 0.49183(9) 0.5673(4) 1.08641(18)
H8 H 0.4851 0.6400 1.0960
C15 C 0.54754(9) 0.3253(4) 1.09975(16)
C16 C 0.54663(9) 0.2260(4) 1.06808(17)
C17 C 0.53375(9) 0.1093(4) 0.99764(17)
N4 N 0.52197(7) 0.2002(3) 1.01574(14)
C18 C 0.56637(9) 0.0735(4) 1.04056(18)
H9 H 0.5796 0.0112 1.0383
C19 C 0.57449(10) 0.1448(4) 1.08416(19)
H10 H 0.5944 0.1426 1.1186
C20 C 0.51777(9) 0.0598(4) 0.94487(18)
C21 C 0.37320(9) 0.1808(4) 0.80620(17)
C22 C 0.35528(12) 0.0746(4) 0.79666(19)
H11 H 0.3627 0.0143 0.8244
C23 C 0.32634(12) 0.0555(4) 0.74655(19)
H12 H 0.3141 -0.0175 0.7401
C24 C 0.31575(9) 0.1433(4) 0.70673(16)
C25 C 0.33263(13) 0.2498(5) 0.7159(2)
H13 H 0.3246 0.3113 0.6886
C26 C 0.36150(13) 0.2674(5) 0.7653(2)
H14 H 0.3735 0.3407 0.7712
C27 C 0.41841(9) 0.5863(4) 1.01868(17)
C28 C 0.39627(10) 0.6636(4) 0.97721(18)
H15 H 0.3958 0.6661 0.9433
C29 C 0.37490(10) 0.7369(4) 0.98478(18)
H16 H 0.3600 0.7896 0.9564
C30 C 0.37566(9) 0.7323(3) 1.03411(17)
C31 C 0.39919(9) 0.6621(4) 1.07740(18)
H17 H 0.4005 0.6631 1.1119
C32 C 0.42057(9) 0.5911(4) 1.06941(17)
H18 H 0.4370 0.5449 1.0990
C33 C 0.57923(9) 0.3404(4) 1.15313(16)
C34 C 0.60295(10) 0.4203(4) 1.15704(18)
H19 H 0.5974 0.4782 1.1288
C35 C 0.63476(10) 0.4169(4) 1.20189(17)
H20 H 0.6510 0.4716 1.2044
C36 C 0.64245(9) 0.3328(4) 1.24288(15)
C37 C 0.61847(10) 0.2579(4) 1.24100(18)
H21 H 0.6237 0.2032 1.2703
C38 C 0.58682(10) 0.2623(4) 1.19651(19)
H22 H 0.5702 0.2118 1.1955
C39 C 0.53806(9) -0.0165(4) 0.92976(17)
C40 C 0.53504(13) -0.1411(4) 0.9246(2)
H23 H 0.5181 -0.1810 0.9276
C41 C 0.55662(12) -0.2094(4) 0.9150(2)
H24 H 0.5547 -0.2955 0.9120
C42 C 0.58040(9) -0.1516(4) 0.90988(17)
C43 C 0.58269(12) -0.0272(4) 0.9121(3)
H25 H 0.5987 0.0129 0.9067
C44 C 0.56143(13) 0.0393(4) 0.9222(3)
H26 H 0.5631 0.1255 0.9239
O1 O 0.33840(6) -0.0357(2) 0.62949(11)
H27 H 0.3564 -0.0748 0.6422
H28 H 0.3429 0.0415 0.6198
O2 O 0.25944(7) 0.0351(3) 0.38823(12)
H29 H 0.2539 0.1102 0.3810
H30 H 0.2676 0.0246 0.3695
O3 O 0.25168(6) 0.1547(2) 0.46607(11)
H31 H 0.2443 0.2154 0.4499
H32 H 0.2717 0.1794 0.4784
O4 O 0.18743(6) 0.0800(2) 0.40110(12)
H33 H 0.1672 0.0449 0.3733
H34 H 0.1851 0.1430 0.4194
O5 O 0.19507(7) -0.1223(3) 0.58636(12)
H35 H 0.2067 -0.1614 0.6196
H36 H 0.1951 -0.0431 0.5912
O6 O 0.17845(8) -0.3644(3) 0.55817(13)
H37 H 0.1743 -0.4377 0.5407
H38 H 0.1718 -0.3273 0.5763
O7 O 0.19034(6) -0.1967(2) 0.42091(10)
H39 H 0.1738 -0.1672 0.3918
O8 O 0.20964(6) -0.4220(2) 0.49228(10)
H40 H 0.1942 -0.4645 0.4894
O9 O 0.24829(6) -0.2668(2) 0.59148(10)
H41 H 0.2458 -0.2512 0.6200
O10 O 0.23035(6) -0.0399(2) 0.51837(10)
H42 H 0.2300 0.0293 0.5289
O11 O 0.28604(7) 0.1343(3) 0.59955(11)
O12 O 0.26823(7) -0.0041(2) 0.64381(11)
O13 O 0.25532(7) 0.2112(2) 0.64070(13)
O14 O 0.2500 -0.2500 0.5000
O15 O 0.16011(6) -0.0394(2) 0.47876(12)
H43 H 0.1406 -0.0399 0.4531
H44 H 0.1643 0.0328 0.4702
O16 O 0.33564(8) 0.9141(3) 1.00745(14)
O17 O 0.31708(7) 0.7171(3) 1.01863(14)
O18 O 0.35744(8) 0.8266(3) 1.09828(13)
O19 O 0.70276(7) 0.3084(3) 1.26783(12)
O20 O 0.69313(7) 0.4225(2) 1.33114(11)
O21 O 0.68473(6) 0.2030(2) 1.32313(11)
O22 O 0.60949(7) -0.1823(3) 0.85352(13)
O23 O 0.64118(6) -0.2138(3) 0.95113(12)
O24 O 0.59985(7) -0.3606(3) 0.89317(13)
Eu1D Eu 0.716850(4) 0.121430(16) 1.417635(7)
Eu2D Eu 0.765836(4) 0.060085(16) 1.562864(7)
Eu3D Eu 0.801666(4) 0.217858(16) 1.490283(8)
S1D S 0.72124(2) -0.12094(9) 1.35645(4)
S2D S 0.65569(2) -0.80496(9) 0.95983(4)
S3D S 0.31609(2) -0.31591(9) 0.70439(4)
S4D S 0.39048(2) 0.23377(9) 1.09931(4)
N1D N 0.53665(7) -0.1529(3) 1.08828(14)
H1D H 0.5320 -0.1998 1.0613
C1D C 0.56724(9) -0.1471(4) 1.13473(17)
C2D C 0.56452(10) -0.0723(4) 1.17288(18)
H2D H 0.5818 -0.0532 1.2088
C3D C 0.53269(10) -0.0325(4) 1.14903(18)
H3D H 0.5239 0.0193 1.1653
C4D C 0.51512(9) -0.0825(4) 1.09540(17)
C5D C 0.59548(9) -0.2027(4) 1.14088(17)
C6D C 0.59652(9) -0.2810(3) 1.10274(16)
N2D N 0.56957(8) -0.3325(3) 1.05822(14)
C7D C 0.58168(9) -0.4121(4) 1.03548(17)
C8D C 0.61757(9) -0.4044(4) 1.06482(18)
H4D H 0.6319 -0.4472 1.0563
C9D C 0.62652(9) -0.3250(4) 1.10626(18)
H5D H 0.6484 -0.3021 1.1328
C10D C 0.56293(9) -0.4948(3) 0.99299(17)
C11D C 0.52863(9) -0.4895(3) 0.95929(16)
N3D N 0.50893(7) -0.3992(3) 0.96005(14)
H6D H 0.5142 -0.3446 0.9828
C12D C 0.47789(9) -0.4101(4) 0.91539(17)
C13D C 0.47724(10) -0.5179(4) 0.88643(19)
H7D H 0.4587 -0.5492 0.8543
C14D C 0.50817(9) -0.5673(4) 0.91359(18)
H8D H 0.5149 -0.6400 0.9040
C15D C 0.45246(9) -0.3253(4) 0.90025(16)
C16D C 0.45337(9) -0.2260(4) 0.93192(17)
C17D C 0.46625(9) -0.1093(4) 1.00236(17)
N4D N 0.47803(7) -0.2002(3) 0.98426(14)
C18D C 0.43363(9) -0.0735(4) 0.95944(18)
H9D H 0.4204 -0.0112 0.9617
C19D C 0.42551(10) -0.1448(4) 0.91584(19)
H10D H 0.4056 -0.1426 0.8814
C20D C 0.48223(9) -0.0598(4) 1.05513(18)
C21D C 0.62680(9) -0.1808(4) 1.19380(17)
C22D C 0.64472(12) -0.0746(4) 1.20334(19)
H11D H 0.6373 -0.0143 1.1756
C23D C 0.67366(12) -0.0555(4) 1.25345(19)
H12D H 0.6859 0.0175 1.2599
C24D C 0.68425(9) -0.1433(4) 1.29327(16)
C25D C 0.66737(13) -0.2498(5) 1.2841(2)
H13D H 0.6754 -0.3113 1.3114
C26D C 0.63850(13) -0.2674(5) 1.2347(2)
H14D H 0.6265 -0.3407 1.2288
C27D C 0.58159(9) -0.5863(4) 0.98132(17)
C28D C 0.60373(10) -0.6636(4) 1.02279(18)
H15D H 0.6042 -0.6661 1.0567
C29D C 0.62510(10) -0.7369(4) 1.01522(18)
H16D H 0.6400 -0.7896 1.0436
C30D C 0.62434(9) -0.7323(3) 0.96589(17)
C31D C 0.60081(9) -0.6621(4) 0.92260(18)
H17D H 0.5995 -0.6631 0.8881
C32D C 0.57943(9) -0.5911(4) 0.93059(17)
H18D H 0.5630 -0.5449 0.9010
C33D C 0.42077(9) -0.3404(4) 0.84687(16)
C34D C 0.39705(10) -0.4203(4) 0.84296(18)
H19D H 0.4026 -0.4782 0.8712
C35D C 0.36524(10) -0.4169(4) 0.79811(17)
H20D H 0.3490 -0.4716 0.7956
C36D C 0.35755(9) -0.3328(4) 0.75712(15)
C37D C 0.38153(10) -0.2579(4) 0.75900(18)
H21D H 0.3763 -0.2032 0.7297
C38D C 0.41318(10) -0.2623(4) 0.80349(19)
H22D H 0.4298 -0.2118 0.8045
C39D C 0.46194(9) 0.0165(4) 1.07024(17)
C40D C 0.46496(13) 0.1411(4) 1.0754(2)
H23D H 0.4819 0.1810 1.0724
C41D C 0.44338(12) 0.2094(4) 1.0850(2)
H24D H 0.4453 0.2955 1.0880
C42D C 0.41960(9) 0.1516(4) 1.09012(17)
C43D C 0.41731(12) 0.0272(4) 1.0879(3)
H25D H 0.4013 -0.0129 1.0933
C44D C 0.43857(13) -0.0393(4) 1.0778(3)
H26D H 0.4369 -0.1255 1.0761
O1D O 0.66160(6) 0.0357(2) 1.37051(11)
H27D H 0.6436 0.0748 1.3578
H28D H 0.6571 -0.0415 1.3802
O2D O 0.74056(7) -0.0351(3) 1.61177(12)
H29D H 0.7461 -0.1102 1.6190
H30D H 0.7324 -0.0246 1.6305
O3D O 0.74832(6) -0.1547(2) 1.53393(11)
H31D H 0.7557 -0.2154 1.5501
H32D H 0.7283 -0.1794 1.5216
O4D O 0.81257(6) -0.0800(2) 1.59890(12)
H33D H 0.8328 -0.0449 1.6267
H34D H 0.8149 -0.1430 1.5806
O5D O 0.80493(7) 0.1223(3) 1.41364(12)
H35D H 0.7933 0.1614 1.3804
H36D H 0.8049 0.0431 1.4088
O6D O 0.82155(8) 0.3644(3) 1.44183(13)
H37D H 0.8257 0.4377 1.4593
H38D H 0.8282 0.3273 1.4237
O7D O 0.80966(6) 0.1967(2) 1.57909(10)
H39D H 0.8262 0.1672 1.6082
O8D O 0.79036(6) 0.4220(2) 1.50772(10)
H40D H 0.8058 0.4645 1.5106
O9D O 0.75171(6) 0.2668(2) 1.40852(10)
H41D H 0.7542 0.2512 1.3800
O10D O 0.76965(6) 0.0399(2) 1.48163(10)
H42D H 0.7700 -0.0293 1.4711
O11D O 0.71396(7) -0.1343(3) 1.40045(11)
O12D O 0.73177(7) 0.0041(2) 1.35619(11)
O13D O 0.74468(7) -0.2112(2) 1.35930(13)
O15D O 0.83989(6) 0.0394(2) 1.52124(12)
H43D H 0.8594 0.0399 1.5469
H44D H 0.8357 -0.0328 1.5298
O16D O 0.66436(8) -0.9141(3) 0.99255(14)
O17D O 0.68292(7) -0.7171(3) 0.98137(14)
O18D O 0.64256(8) -0.8266(3) 0.90172(13)
O19D O 0.29724(7) -0.3084(3) 0.73217(12)
O20D O 0.30687(7) -0.4225(2) 0.66886(11)
O21D O 0.31527(6) -0.2030(2) 0.67687(11)
O22D O 0.39051(7) 0.1823(3) 1.14648(13)
O23D O 0.35882(6) 0.2138(3) 1.04887(12)
O24D O 0.40015(7) 0.3606(3) 1.10683(13)
Eu1B Eu 0.783150(4) 0.378570(16) 1.582365(7)
Eu1F Eu 0.216850(4) -0.378570(16) 0.417635(7)
Eu2B Eu 0.734164(4) 0.439915(16) 1.437136(7)
Eu2F Eu 0.265836(4) -0.439915(16) 0.562864(7)
Eu3C Eu 0.301666(4) 0.282142(16) 0.990283(8)
Eu3F Eu 0.301666(4) -0.282142(16) 0.490283(8)
Eu3G Eu 0.698334(4) -0.282142(16) 1.009717(8)
O7B O 0.69034(6) 0.3033(2) 1.42091(10)
O7F O 0.30966(6) -0.3033(2) 0.57909(10)
O8B O 0.70964(6) 0.0780(2) 1.49228(10)
O8F O 0.29036(6) -0.0780(2) 0.50772(10)
O9B O 0.74829(6) 0.2332(2) 1.59148(10)
O9F O 0.25171(6) -0.2332(2) 0.40852(10)
O14B O 0.7500 0.2500 1.5000
O20B O 0.19313(7) -0.0775(2) 0.33114(11)
O20F O 0.80687(7) 0.0775(2) 1.66886(11)
O23C O 0.85882(6) 0.2862(3) 1.54887(12)
O23G O 0.14118(6) -0.2862(3) 0.45113(12)
loop_
_geom_bond_atom_site_label_1
_geom_bond_atom_site_label_2
_geom_bond_site_symmetry_1
_geom_bond_site_symmetry_2
Eu1 O1 1_555 1_555
Eu2 O2 1_555 1_555
Eu3 O5 1_555 1_555
S1 C24 1_555 1_555
S2 C30 1_555 1_555
S3 C36 1_555 1_555
S4 C42 1_555 1_555
N1 H1 1_555 1_555
C1 N1 1_555 1_555
C2 C1 1_555 1_555
H2 C2 1_555 1_555
C3 C2 1_555 1_555
H3 C3 1_555 1_555
C4 N1 1_555 1_555
C5 C1 1_555 1_555
C6 C5 1_555 1_555
N2 C6 1_555 1_555
C7 N2 1_555 1_555
C8 C7 1_555 1_555
H4 C8 1_555 1_555
C9 C6 1_555 1_555
H5 C9 1_555 1_555
C10 C7 1_555 1_555
C11 C10 1_555 1_555
N3 C11 1_555 1_555
H6 N3 1_555 1_555
C12 N3 1_555 1_555
C13 C12 1_555 1_555
H7 C13 1_555 1_555
C14 C11 1_555 1_555
H8 C14 1_555 1_555
C15 C12 1_555 1_555
C16 C15 1_555 1_555
C17 N4 1_555 1_555
N4 C16 1_555 1_555
C18 C17 1_555 1_555
H9 C18 1_555 1_555
C19 C16 1_555 1_555
H10 C19 1_555 1_555
C20 C4 1_555 1_555
C21 C5 1_555 1_555
C22 C21 1_555 1_555
H11 C22 1_555 1_555
C23 C22 1_555 1_555
H12 C23 1_555 1_555
C24 C23 1_555 1_555
C25 C24 1_555 1_555
H13 C25 1_555 1_555
C26 C21 1_555 1_555
H14 C26 1_555 1_555
C27 C10 1_555 1_555
C28 C27 1_555 1_555
H15 C28 1_555 1_555
C29 C28 1_555 1_555
H16 C29 1_555 1_555
C30 C29 1_555 1_555
C31 C30 1_555 1_555
H17 C31 1_555 1_555
C32 C27 1_555 1_555
H18 C32 1_555 1_555
C33 C15 1_555 1_555
C34 C33 1_555 1_555
H19 C34 1_555 1_555
C35 C34 1_555 1_555
H20 C35 1_555 1_555
C36 C35 1_555 1_555
C37 C36 1_555 1_555
H21 C37 1_555 1_555
C38 C33 1_555 1_555
H22 C38 1_555 1_555
C39 C20 1_555 1_555
C40 C39 1_555 1_555
H23 C40 1_555 1_555
C41 C40 1_555 1_555
H24 C41 1_555 1_555
C42 C41 1_555 1_555
C43 C42 1_555 1_555
H25 C43 1_555 1_555
C44 C39 1_555 1_555
H26 C44 1_555 1_555
O1 H27 1_555 1_555
H28 O1 1_555 1_555
O2 H29 1_555 1_555
H30 O2 1_555 1_555
O3 Eu2 1_555 1_555
H31 O3 1_555 1_555
H32 O3 1_555 1_555
O4 Eu2 1_555 1_555
H33 O4 1_555 1_555
H34 O4 1_555 1_555
O5 H35 1_555 1_555
H36 O5 1_555 1_555
O6 Eu3 1_555 1_555
H37 O6 1_555 1_555
H38 O6 1_555 1_555
O7 Eu2 1_555 1_555
H39 O7 1_555 1_555
O8 Eu3 1_555 1_555
H40 O8 1_555 1_555
O9 Eu1 1_555 1_555
H41 O9 1_555 1_555
O10 Eu1 1_555 1_555
H42 O10 1_555 1_555
O11 Eu1 1_555 1_555
O12 Eu1 1_555 1_555
O13 S1 1_555 1_555
O14 Eu1 1_555 1_555
O15 Eu3 1_555 1_555
H43 O15 1_555 1_555
H44 O15 1_555 1_555
O16 S2 1_555 1_555
O17 S2 1_555 1_555
O18 S2 1_555 1_555
O19 S3 1_555 1_555
O20 S3 1_555 1_555
O21 S3 1_555 1_555
O22 S4 1_555 1_555
O23 S4 1_555 1_555
O24 S4 1_555 1_555
Eu1D O21 1_555 1_555
Eu2D O2D 1_555 1_555
Eu3D O5D 1_555 1_555
S1D C24D 1_555 1_555
S2D C30D 1_555 1_555
S3D C36D 1_555 1_555
S4D C42D 1_555 1_555
N1D H1D 1_555 1_555
C1D N1D 1_555 1_555
C2D C1D 1_555 1_555
H2D C2D 1_555 1_555
C3D C2D 1_555 1_555
H3D C3D 1_555 1_555
C4D N1D 1_555 1_555
C5D C1D 1_555 1_555
C6D C5D 1_555 1_555
N2D C6D 1_555 1_555
C7D N2D 1_555 1_555
C8D C7D 1_555 1_555
H4D C8D 1_555 1_555
C9D C6D 1_555 1_555
H5D C9D 1_555 1_555
C10D C7D 1_555 1_555
C11D C10D 1_555 1_555
N3D C11D 1_555 1_555
H6D N3D 1_555 1_555
C12D N3D 1_555 1_555
C13D C12D 1_555 1_555
H7D C13D 1_555 1_555
C14D C11D 1_555 1_555
H8D C14D 1_555 1_555
C15D C12D 1_555 1_555
C16D C15D 1_555 1_555
C17D N4D 1_555 1_555
N4D C16D 1_555 1_555
C18D C17D 1_555 1_555
H9D C18D 1_555 1_555
C19D C16D 1_555 1_555
H10D C19D 1_555 1_555
C20D C4D 1_555 1_555
C21D C5D 1_555 1_555
C22D C21D 1_555 1_555
H11D C22D 1_555 1_555
C23D C22D 1_555 1_555
H12D C23D 1_555 1_555
C24D C23D 1_555 1_555
C25D C24D 1_555 1_555
H13D C25D 1_555 1_555
C26D C21D 1_555 1_555
H14D C26D 1_555 1_555
C27D C10D 1_555 1_555
C28D C27D 1_555 1_555
H15D C28D 1_555 1_555
C29D C28D 1_555 1_555
H16D C29D 1_555 1_555
C30D C29D 1_555 1_555
C31D C30D 1_555 1_555
H17D C31D 1_555 1_555
C32D C27D 1_555 1_555
H18D C32D 1_555 1_555
C33D C15D 1_555 1_555
C34D C33D 1_555 1_555
H19D C34D 1_555 1_555
C35D C34D 1_555 1_555
H20D C35D 1_555 1_555
C36D C35D 1_555 1_555
C37D C36D 1_555 1_555
H21D C37D 1_555 1_555
C38D C33D 1_555 1_555
H22D C38D 1_555 1_555
C39D C20D 1_555 1_555
C40D C39D 1_555 1_555
H23D C40D 1_555 1_555
C41D C40D 1_555 1_555
H24D C41D 1_555 1_555
C42D C41D 1_555 1_555
C43D C42D 1_555 1_555
H25D C43D 1_555 1_555
C44D C39D 1_555 1_555
H26D C44D 1_555 1_555
O1D Eu1D 1_555 1_555
H27D O1D 1_555 1_555
H28D O1D 1_555 1_555
O2D H29D 1_555 1_555
H30D O2D 1_555 1_555
O3D Eu2D 1_555 1_555
H31D O3D 1_555 1_555
H32D O3D 1_555 1_555
O4D Eu2D 1_555 1_555
H33D O4D 1_555 1_555
H34D O4D 1_555 1_555
O5D H35D 1_555 1_555
H36D O5D 1_555 1_555
O6D Eu3D 1_555 1_555
H37D O6D 1_555 1_555
H38D O6D 1_555 1_555
O7D Eu2D 1_555 1_555
H39D O7D 1_555 1_555
O8D Eu3D 1_555 1_555
H40D O8D 1_555 1_555
O9D Eu1D 1_555 1_555
H41D O9D 1_555 1_555
O10D Eu1D 1_555 1_555
H42D O10D 1_555 1_555
O11D Eu1D 1_555 1_555
O12D Eu1D 1_555 1_555
O13D S1D 1_555 1_555
O15D Eu3D 1_555 1_555
H43D O15D 1_555 1_555
H44D O15D 1_555 1_555
O16D S2D 1_555 1_555
O17D S2D 1_555 1_555
O18D S2D 1_555 1_555
O19D S3D 1_555 1_555
O20D S3D 1_555 1_555
O21D Eu1 1_555 1_555
O22D S4D 1_555 1_555
O23D S4D 1_555 1_555
O24D S4D 1_555 1_555
Eu1B O7D 1_555 1_555
Eu1F O7 1_555 1_555
Eu2B O20 1_555 1_555
Eu2F O8 1_555 1_555
Eu3C O23D 1_555 1_555
Eu3F O14 1_555 1_555
Eu3G O23 1_555 1_555
O7B Eu1D 1_555 1_555
O7F Eu1 1_555 1_555
O8B Eu1D 1_555 1_555
O8F Eu1 1_555 1_555
O9B Eu2D 1_555 1_555
O9F Eu2 1_555 1_555
O14B Eu1D 1_555 1_555
O20B Eu2 1_555 1_555
O20F Eu2D 1_555 1_555
O23C Eu3D 1_555 1_555
O23G Eu3 1_555 1_555
Eu2 O10 1_555 1_555
Eu2 O14 1_555 1_555
Eu2 O8F 1_555 1_555
Eu3 O7 1_555 1_555
Eu3 O9 1_555 1_555
Eu3 O10 1_555 1_555
Eu3 O14 1_555 1_555
S1 O11 1_555 1_555
S1 O12 1_555 1_555
C3 C4 1_555 1_555
C8 C9 1_555 1_555
C13 C14 1_555 1_555
C17 C20 1_555 1_555
C18 C19 1_555 1_555
C25 C26 1_555 1_555
C31 C32 1_555 1_555
C37 C38 1_555 1_555
C43 C44 1_555 1_555
O8 Eu1F 1_555 1_555
O9 Eu2F 1_555 1_555
O14 Eu1F 1_555 1_555
O14 Eu2F 1_555 1_555
Eu2D O10D 1_555 1_555
Eu2D O8B 1_555 1_555
Eu2D O14B 1_555 1_555
Eu3D O7D 1_555 1_555
Eu3D O9D 1_555 1_555
Eu3D O10D 1_555 1_555
Eu3D O14B 1_555 1_555
S1D O11D 1_555 1_555
S1D O12D 1_555 1_555
S3D O21D 1_555 1_555
C3D C4D 1_555 1_555
C8D C9D 1_555 1_555
C13D C14D 1_555 1_555
C17D C20D 1_555 1_555
C18D C19D 1_555 1_555
C25D C26D 1_555 1_555
C31D C32D 1_555 1_555
C37D C38D 1_555 1_555
C43D C44D 1_555 1_555
O8D Eu1B 1_555 1_555
O8D Eu2B 1_555 1_555
O9D Eu2B 1_555 1_555
O20D Eu2F 1_555 1_555
Eu1B O9B 1_555 1_555
Eu1B O14B 1_555 1_555
Eu1F O9F 1_555 1_555
Eu2B O7B 1_555 1_555
Eu2B O14B 1_555 1_555
Eu2F O7F 1_555 1_555
Eu3F O7F 1_555 1_555
Eu3F O8F 1_555 1_555
Eu3F O9F 1_555 1_555

#END
