
#######################################################################
#
#                 Cambridge Crystallographic Data Centre
#                                CCDC 
#
#######################################################################
#
# If this CIF has been generated from an entry in the Cambridge 
# Structural Database, then it will include bibliographic, chemical, 
# crystal, experimental, refinement or atomic coordinate data resulting 
# from the CCDC's data processing and validation procedures.
#
#######################################################################

data_DIBJEF
_symmetry_cell_setting           monoclinic
_symmetry_space_group_name_H-M   'C 2/c'
_symmetry_Int_Tables_number      15
_space_group_name_Hall           '-C 2yn'
loop_
_symmetry_equiv_pos_site_id
_symmetry_equiv_pos_as_xyz
1 x,y,z
2 -x,y,1/2-z
3 1/2+x,1/2+y,z
4 1/2-x,1/2+y,1/2-z
5 -x,-y,-z
6 x,-y,1/2+z
7 1/2-x,1/2-y,-z
8 1/2+x,1/2-y,1/2+z
_cell_length_a                   45.950(2)
_cell_length_b                   9.1496(5)
_cell_length_c                   31.3267(15)
_cell_angle_alpha                90
_cell_angle_beta                 124.2110(10)
_cell_angle_gamma                90
_cell_volume                     10891.6
loop_
_atom_site_label
_atom_site_type_symbol
_atom_site_fract_x
_atom_site_fract_y
_atom_site_fract_z
Eu1 Eu 0.197367(6) 0.42375(3) 0.427156(8)
Eu2 Eu 0.201471(6) 0.05456(3) 0.481495(9)
Eu3 Eu 0.252440(6) 0.11664(3) 0.424381(9)
S1 S 0.11654(3) 0.78011(15) -0.11592(5)
S2 S 0.18565(3) 0.29976(15) 0.30841(5)
S3 S -0.18131(3) -0.32252(14) -0.00305(4)
S4 S -0.19548(3) 0.18878(14) -0.38201(4)
O1 O 0.21210(8) 0.1917(4) 0.43571(13)
O2 O 0.24474(7) 0.5241(4) 0.50651(11)
O3 O 0.24722(8) 0.1100(4) 0.56928(12)
O4 O 0.30400(8) 0.1937(4) 0.50204(12)
O5 O 0.27570(18) 0.1815(9) 0.3729(3)
O6 O 0.17656(18) 0.0693(9) 0.5379(3)
O7 O 0.13724(7) 0.6597(4) -0.11737(12)
O8 O 0.13941(8) 0.8852(4) -0.07505(14)
O9 O 0.09289(9) 0.8488(5) -0.16493(14)
O10 O 0.20139(10) 0.1606(4) 0.33382(13)
O11 O 0.20680(9) 0.3757(5) 0.29474(14)
O12 O 0.17705(8) 0.3903(4) 0.33815(12)
O13 O -0.19788(8) -0.4228(4) -0.04708(12)
O14 O -0.16914(8) -0.3949(4) 0.04564(12)
O15 O -0.20398(8) -0.1968(4) -0.01205(12)
O16 O -0.20453(8) 0.3387(4) -0.40037(12)
O17 O -0.22551(8) 0.1147(4) -0.38755(12)
O18 O -0.18027(8) 0.1081(4) -0.40547(12)
N1 N -0.02660(9) 0.3332(5) -0.09373(14)
H1 H -0.0244 0.3093 -0.0649
C1 C -0.00193(11) 0.4098(6) -0.09650(18)
C2 C -0.01498(13) 0.4183(6) -0.14945(19)
H2 H -0.0031 0.4612 -0.1633
C3 C -0.04762(13) 0.3545(7) -0.17758(19)
H3 H -0.0626 0.3483 -0.2141
C4 C -0.05503(12) 0.2992(6) -0.14223(17)
C5 C 0.02918(12) 0.4682(6) -0.05413(18)
C6 C 0.04238(11) 0.4375(6) -0.00313(18)
N2 N 0.02834(9) 0.3348(5) 0.01301(14)
C7 C 0.05078(11) 0.3295(6) 0.06621(18)
C8 C 0.07869(12) 0.4385(6) 0.08390(19)
H4 H 0.0973 0.4581 0.1186
C9 C 0.07280(12) 0.5060(6) 0.04122(19)
H5 H 0.0862 0.5840 0.0405
C10 C 0.04940(12) 0.2334(6) 0.09929(17)
C11 C 0.02122(11) 0.1377(6) 0.08540(18)
N3 N -0.01015(9) 0.1320(5) 0.03823(14)
H6 H -0.0155 0.1839 0.0111
C12 C -0.03227(12) 0.0324(6) 0.03954(17)
C13 C -0.01331(12) -0.0292(6) 0.08977(19)
H7 H -0.0217 -0.1018 0.1020
C14 C 0.01910(12) 0.0342(6) 0.11744(19)
H8 H 0.0373 0.0128 0.1523
C15 C -0.06777(11) 0.0110(6) -0.00063(18)
C16 C -0.08412(12) 0.0826(6) -0.04878(18)
N4 N -0.06691(9) 0.1477(5) -0.06816(14)
C17 C -0.09249(11) 0.1810(6) -0.11824(18)
C18 C -0.12709(11) 0.1469(7) -0.13033(19)
H9 H -0.1490 0.1627 -0.1623
C19 C -0.12199(12) 0.0881(6) -0.08720(19)
H10 H -0.1398 0.0563 -0.0827
C20 C -0.08579(12) 0.2352(6) -0.15411(18)
C21 C 0.05095(12) 0.5554(7) -0.06660(19)
C22 C 0.03626(12) 0.6740(7) -0.1024(2)
H11 H 0.0129 0.7056 -0.1157
C23 C 0.05584(13) 0.7441(7) -0.1180(2)
H12 H 0.0459 0.8215 -0.1424
C24 C 0.09076(11) 0.6971(6) -0.09665(19)
C25 C 0.10467(15) 0.5888(7) -0.0615(2)
H13 H 0.1284 0.5598 -0.0464
C26 C 0.08445(14) 0.5188(7) -0.0472(2)
H14 H 0.0948 0.4419 -0.0226
C27 C 0.08121(12) 0.2305(6) 0.15371(18)
C28 C 0.11295(12) 0.1842(7) 0.1618(2)
H15 H 0.1129 0.1414 0.1342
C29 C 0.14457(13) 0.1998(7) 0.20978(19)
H16 H 0.1660 0.1693 0.2147
C30 C 0.14465(11) 0.2598(6) 0.25021(17)
C31 C 0.11296(12) 0.2968(7) 0.24356(18)
H17 H 0.1127 0.3327 0.2718
C32 C 0.08184(12) 0.2808(7) 0.1952(2)
H18 H 0.0603 0.3057 0.1909
C33 C -0.09094(11) -0.0889(6) 0.00504(18)
C34 C -0.11255(12) -0.1849(6) -0.03522(19)
H19 H -0.1087 -0.1993 -0.0618
C35 C -0.13959(12) -0.2603(6) -0.03725(18)
H20 H -0.1550 -0.3205 -0.0661
C36 C -0.14397(11) -0.2477(6) 0.00224(17)
C37 C -0.12064(11) -0.1637(6) 0.04546(18)
H21 H -0.1228 -0.1595 0.0738
C38 C -0.09425(12) -0.0864(6) 0.04678(18)
H22 H -0.0781 -0.0307 0.0766
C39 C -0.11422(12) 0.2210(6) -0.21045(17)
C40 C -0.14267(12) 0.3110(6) -0.23405(19)
H23 H -0.1454 0.3821 -0.2144
C41 C -0.16817(12) 0.2992(6) -0.28760(19)
H24 H -0.1885 0.3599 -0.3041
C42 C -0.16322(12) 0.1991(6) -0.31532(17)
C43 C -0.13471(12) 0.1061(6) -0.29248(19)
H25 H -0.1318 0.0363 -0.3123
C44 C -0.11032(12) 0.1178(7) -0.23949(19)
H26 H -0.0906 0.0540 -0.2228
Eu1A Eu -0.197367(6) -0.57625(3) 0.072844(8)
Eu1D Eu -0.197367(6) 0.57625(3) -0.427156(8)
Eu1E Eu 0.197367(6) 0.57625(3) -0.072844(8)
Eu1F Eu 0.302633(6) 0.07625(3) 0.572844(8)
Eu2A Eu -0.201471(6) 0.05456(3) 0.018505(9)
Eu2D Eu -0.201471(6) -0.05456(3) -0.481495(9)
Eu2E Eu 0.201471(6) 0.94544(3) -0.018505(9)
Eu2F Eu 0.298529(6) 0.44544(3) 0.518505(9)
Eu3D Eu -0.252440(6) -0.11664(3) -0.424381(9)
Eu3F Eu 0.247560(6) 0.38336(3) 0.575619(9)
Eu3G Eu -0.247560(6) -0.61664(3) -0.075619(9)
O2F O 0.25526(7) -0.0241(4) 0.49349(11)
O3F O 0.25278(8) 0.3900(4) 0.43072(12)
O4F O 0.19600(8) 0.3063(4) 0.49796(12)
O7E O 0.13724(7) 0.3403(4) 0.38263(12)
O8E O 0.13941(8) 0.1148(4) 0.42495(14)
O13G O 0.30212(8) -0.0772(4) 0.45292(12)
O14A O 0.16914(8) 0.6051(4) 0.45436(12)
O15A O 0.20398(8) -0.1968(4) 0.51205(12)
O16D O 0.20453(8) 0.6613(4) 0.40037(12)
O17D O 0.22551(8) -0.1147(4) 0.38755(12)
O18D O 0.18027(8) -0.1081(4) 0.40547(12)
loop_
_geom_bond_atom_site_label_1
_geom_bond_atom_site_label_2
_geom_bond_site_symmetry_1
_geom_bond_site_symmetry_2
Eu1 O1 1_555 1_555
Eu2 O1 1_555 1_555
Eu3 O1 1_555 1_555
S1 O7 1_555 1_555
S2 O10 1_555 1_555
S3 O13 1_555 1_555
S4 O16 1_555 1_555
O2 Eu1 1_555 1_555
O3 Eu2 1_555 1_555
O4 Eu3 1_555 1_555
O5 Eu3 1_555 1_555
O6 Eu2 1_555 1_555
O7 Eu1E 1_555 1_555
O8 S1 1_555 1_555
O9 S1 1_555 1_555
O10 Eu3 1_555 1_555
O11 S2 1_555 1_555
O12 Eu1 1_555 1_555
O13 Eu3G 1_555 1_555
O14 S3 1_555 1_555
O15 S3 1_555 1_555
O16 Eu1D 1_555 1_555
O17 S4 1_555 1_555
O18 S4 1_555 1_555
N1 H1 1_555 1_555
C1 N1 1_555 1_555
C2 C1 1_555 1_555
H2 C2 1_555 1_555
C3 C2 1_555 1_555
H3 C3 1_555 1_555
C4 N1 1_555 1_555
C5 C1 1_555 1_555
C6 C5 1_555 1_555
N2 C6 1_555 1_555
C7 N2 1_555 1_555
C8 C7 1_555 1_555
H4 C8 1_555 1_555
C9 C6 1_555 1_555
H5 C9 1_555 1_555
C10 C7 1_555 1_555
C11 C10 1_555 1_555
N3 C11 1_555 1_555
H6 N3 1_555 1_555
C12 N3 1_555 1_555
C13 C12 1_555 1_555
H7 C13 1_555 1_555
C14 C11 1_555 1_555
H8 C14 1_555 1_555
C15 C12 1_555 1_555
C16 C15 1_555 1_555
N4 C16 1_555 1_555
C17 N4 1_555 1_555
C18 C17 1_555 1_555
H9 C18 1_555 1_555
C19 C16 1_555 1_555
H10 C19 1_555 1_555
C20 C4 1_555 1_555
C21 C5 1_555 1_555
C22 C21 1_555 1_555
H11 C22 1_555 1_555
C23 C22 1_555 1_555
H12 C23 1_555 1_555
C24 S1 1_555 1_555
C25 C24 1_555 1_555
H13 C25 1_555 1_555
C26 C21 1_555 1_555
H14 C26 1_555 1_555
C27 C10 1_555 1_555
C28 C27 1_555 1_555
H15 C28 1_555 1_555
C29 C28 1_555 1_555
H16 C29 1_555 1_555
C30 S2 1_555 1_555
C31 C30 1_555 1_555
H17 C31 1_555 1_555
C32 C27 1_555 1_555
H18 C32 1_555 1_555
C33 C15 1_555 1_555
C34 C33 1_555 1_555
H19 C34 1_555 1_555
C35 C34 1_555 1_555
H20 C35 1_555 1_555
C36 S3 1_555 1_555
C37 C36 1_555 1_555
H21 C37 1_555 1_555
C38 C33 1_555 1_555
H22 C38 1_555 1_555
C39 C20 1_555 1_555
C40 C39 1_555 1_555
H23 C40 1_555 1_555
C41 C40 1_555 1_555
H24 C41 1_555 1_555
C42 S4 1_555 1_555
C43 C42 1_555 1_555
H25 C43 1_555 1_555
C44 C39 1_555 1_555
H26 C44 1_555 1_555
Eu1A O14 1_555 1_555
Eu1F O3 1_555 1_555
Eu2A O15 1_555 1_555
Eu2D O18 1_555 1_555
Eu2E O8 1_555 1_555
Eu2F O2 1_555 1_555
Eu3D O17 1_555 1_555
Eu3F O2 1_555 1_555
O2F Eu2 1_555 1_555
O3F Eu1 1_555 1_555
O4F Eu1 1_555 1_555
O7E Eu1 1_555 1_555
O8E Eu2 1_555 1_555
O13G Eu3 1_555 1_555
O14A Eu1 1_555 1_555
O15A Eu2 1_555 1_555
O16D Eu1 1_555 1_555
O17D Eu3 1_555 1_555
O18D Eu2 1_555 1_555
Eu2 O4F 1_555 1_555
Eu3 O2F 1_555 1_555
Eu3 O3F 1_555 1_555
S2 O12 1_555 1_555
O3 Eu3F 1_555 1_555
O4 Eu1F 1_555 1_555
O4 Eu2F 1_555 1_555
C3 C4 1_555 1_555
C8 C9 1_555 1_555
C13 C14 1_555 1_555
C17 C20 1_555 1_555
C18 C19 1_555 1_555
C23 C24 1_555 1_555
C25 C26 1_555 1_555
C29 C30 1_555 1_555
C31 C32 1_555 1_555
C35 C36 1_555 1_555
C37 C38 1_555 1_555
C41 C42 1_555 1_555
C43 C44 1_555 1_555
Eu1F O2F 1_555 1_555
Eu2F O3F 1_555 1_555
Eu3F O4F 1_555 1_555

#END
