
#######################################################################
#
#                 Cambridge Crystallographic Data Centre
#                                CCDC 
#
#######################################################################
#
# If this CIF has been generated from an entry in the Cambridge 
# Structural Database, then it will include bibliographic, chemical, 
# crystal, experimental, refinement or atomic coordinate data resulting 
# from the CCDC's data processing and validation procedures.
#
#######################################################################

data_DIBKAC
_symmetry_cell_setting           monoclinic
_symmetry_space_group_name_H-M   'P 21/n'
_symmetry_Int_Tables_number      14
_space_group_name_Hall           '-P 2yn'
loop_
_symmetry_equiv_pos_site_id
_symmetry_equiv_pos_as_xyz
1 x,y,z
2 1/2-x,1/2+y,1/2-z
3 -x,-y,-z
4 1/2+x,1/2-y,1/2+z
_cell_length_a                   7.5329(12)
_cell_length_b                   14.654(2)
_cell_length_c                   17.903(3)
_cell_angle_alpha                90
_cell_angle_beta                 99.458(2)
_cell_angle_gamma                90
_cell_volume                     1949.4
loop_
_atom_site_label
_atom_site_type_symbol
_atom_site_fract_x
_atom_site_fract_y
_atom_site_fract_z
C1 C 0.2025(4) 0.40621(16) 0.17221(15)
H1 H 0.2070 0.4002 0.2242
C2 C 0.1357(4) 0.33359(19) 0.12473(17)
H2 H 0.0988 0.2800 0.1454
C3 C 0.1252(4) 0.34170(19) 0.04829(17)
H3 H 0.0778 0.2944 0.0164
C4 C 0.1863(3) 0.42199(18) 0.01797(14)
C5 C 0.1861(4) 0.4372(2) -0.06124(14)
H4 H 0.1412 0.3925 -0.0961
C6 C 0.2502(4) 0.5157(2) -0.08570(14)
H5 H 0.2506 0.5235 -0.1372
C7 C 0.3174(3) 0.58702(18) -0.03471(13)
C8 C 0.3175(3) 0.57424(16) 0.04290(12)
C9 C 0.2513(3) 0.49129(16) 0.06909(12)
C10 C 0.3848(4) 0.6710(2) -0.05624(13)
H6 H 0.3851 0.6829 -0.1072
C11 C 0.4488(3) 0.73445(18) -0.00410(13)
H7 H 0.4935 0.7896 -0.0188
C12 C 0.4469(3) 0.71548(16) 0.07371(12)
C13 C 0.6041(4) 0.85351(18) 0.11472(16)
H8 H 0.5239 0.8958 0.0840
H9 H 0.7023 0.8385 0.0880
C14 C 0.6752(6) 0.8950(2) 0.1903(2)
H10 H 0.5780 0.9226 0.2107
H11 H 0.7633 0.9406 0.1844
H12 H 0.7297 0.8484 0.2242
C15 C 0.2793(3) 0.55749(16) 0.36071(12)
C16 C 0.0989(3) 0.78519(16) 0.13674(13)
C17 C 0.1658(3) 0.87923(16) -0.15587(13)
Cu1 Cu 0.35039(4) 0.603223(19) 0.201765(14)
Cu2 Cu 0.10179(6) 0.91586(2) 0.003673(17)
N1 N 0.2594(3) 0.48302(13) 0.14532(10)
N2 N 0.3811(2) 0.63829(13) 0.09610(9)
N3 N 0.2942(3) 0.55992(15) 0.29775(10)
N4 N 0.0911(3) 0.83326(15) 0.08547(11)
N5 N 0.1753(3) 0.89326(15) -0.09266(11)
O1 O 0.5082(2) 0.77205(11) 0.12960(9)
S1 S 0.25887(9) 0.55564(5) 0.45087(3)
S2 S 0.10469(9) 0.71612(4) 0.20950(3)
S3 S 0.15408(10) 0.85676(6) -0.24674(4)
Cu1C Cu -0.14961(4) 0.896777(19) -0.298235(14)
Cu2A Cu 0.39821(6) 0.41586(2) 0.496327(17)
Cu2C Cu 0.60179(6) 0.58414(2) 0.503673(17)
S1A S 0.24113(9) 1.05564(5) 0.04913(3)
S1C S -0.24113(9) 0.94436(5) -0.04913(3)
S3C S 0.65408(10) 0.64324(6) 0.25326(4)
loop_
_geom_bond_atom_site_label_1
_geom_bond_atom_site_label_2
_geom_bond_site_symmetry_1
_geom_bond_site_symmetry_2
C1 H1 1_555 1_555
C2 C1 1_555 1_555
H2 C2 1_555 1_555
C3 C2 1_555 1_555
H3 C3 1_555 1_555
C4 C3 1_555 1_555
C5 C4 1_555 1_555
H4 C5 1_555 1_555
C6 C5 1_555 1_555
H5 C6 1_555 1_555
C7 C6 1_555 1_555
C8 C7 1_555 1_555
C9 C4 1_555 1_555
C10 C7 1_555 1_555
H6 C10 1_555 1_555
C11 C10 1_555 1_555
H7 C11 1_555 1_555
C12 C11 1_555 1_555
C13 H8 1_555 1_555
H9 C13 1_555 1_555
C14 C13 1_555 1_555
H10 C14 1_555 1_555
H11 C14 1_555 1_555
H12 C14 1_555 1_555
C15 N3 1_555 1_555
C16 N4 1_555 1_555
C17 N5 1_555 1_555
Cu1 N1 1_555 1_555
Cu2 N4 1_555 1_555
N1 C1 1_555 1_555
N2 C8 1_555 1_555
N3 Cu1 1_555 1_555
N5 Cu2 1_555 1_555
O1 C12 1_555 1_555
S1 C15 1_555 1_555
S2 C16 1_555 1_555
S3 C17 1_555 1_555
Cu1C S3 1_555 1_555
Cu2A S1 1_555 1_555
Cu2C S1 1_555 1_555
S1A Cu2 1_555 1_555
S1C Cu2 1_555 1_555
S3C Cu1 1_555 1_555
C8 C9 1_555 1_555
C9 N1 1_555 1_555
C12 N2 1_555 1_555
C13 O1 1_555 1_555
Cu1 N2 1_555 1_555
Cu1 S2 1_555 1_555

#END
