
#######################################################################
#
#                 Cambridge Crystallographic Data Centre
#                                CCDC 
#
#######################################################################
#
# If this CIF has been generated from an entry in the Cambridge 
# Structural Database, then it will include bibliographic, chemical, 
# crystal, experimental, refinement or atomic coordinate data resulting 
# from the CCDC's data processing and validation procedures.
#
#######################################################################

data_DIBNIN
_symmetry_cell_setting           monoclinic
_symmetry_space_group_name_H-M   'P 21/c'
_symmetry_Int_Tables_number      14
_space_group_name_Hall           '-P 2ybc'
loop_
_symmetry_equiv_pos_site_id
_symmetry_equiv_pos_as_xyz
1 x,y,z
2 -x,1/2+y,1/2-z
3 -x,-y,-z
4 x,1/2-y,1/2+z
_cell_length_a                   11.773(3)
_cell_length_b                   17.905(4)
_cell_length_c                   10.452(3)
_cell_angle_alpha                90
_cell_angle_beta                 108.013(4)
_cell_angle_gamma                90
_cell_volume                     2095.25
loop_
_atom_site_label
_atom_site_type_symbol
_atom_site_fract_x
_atom_site_fract_y
_atom_site_fract_z
Mn1 Mn 0.0000 0.0000 0.5000
N1 N 0.01778(15) 0.11285(10) 0.60391(19)
N2 N 0.33609(15) 0.23927(9) 0.83276(17)
H1 H 0.3182 0.2819 0.7850
H2 H 0.3437 0.2030 0.7764
N3 N 0.70181(19) 0.22694(15) 0.7860(3)
O1 O -0.19464(12) -0.00161(8) 0.47118(14)
O2 O -0.18448(13) -0.02809(12) 0.68176(16)
O3 O -0.55670(15) 0.05687(9) 0.81279(15)
O4 O -0.64428(13) 0.13795(8) 0.65149(14)
O5 O -0.03726(13) 0.05910(9) 0.31014(15)
H3 H 0.0268 0.0509 0.2910
H4 H -0.0932 0.0532 0.2366
C1 C 0.12590(19) 0.20254(12) 0.7674(2)
C2 C 0.10897(18) 0.13137(12) 0.7120(2)
H5 H 0.1641 0.0945 0.7523
C3 C -0.0602(2) 0.16641(14) 0.5478(3)
H6 H -0.1243 0.1545 0.4727
C4 C -0.0507(2) 0.23845(15) 0.5953(3)
H7 H -0.1071 0.2742 0.5531
C5 C 0.0442(2) 0.25673(14) 0.7068(3)
H8 H 0.0527 0.3052 0.7405
C6 C 0.2351(2) 0.21991(13) 0.8839(2)
H9 H 0.2186 0.2615 0.9350
H10 H 0.2562 0.1769 0.9430
C7 C 0.4537(2) 0.24909(14) 0.9404(2)
H11 H 0.4475 0.2886 1.0014
H12 H 0.4753 0.2033 0.9918
C8 C 0.54756(19) 0.26845(13) 0.8764(2)
C9 C 0.6209(2) 0.21358(15) 0.8512(3)
H13 H 0.6142 0.1652 0.8805
C10 C 0.7094(2) 0.29720(18) 0.7456(3)
H14 H 0.7630 0.3071 0.6984
C11 C 0.6436(2) 0.35479(16) 0.7692(3)
H15 H 0.6537 0.4030 0.7414
C12 C 0.5617(2) 0.33998(14) 0.8354(3)
H16 H 0.5156 0.3785 0.8527
C13 C -0.24158(17) -0.01429(11) 0.5609(2)
C14 C -0.37586(17) -0.00878(10) 0.52737(19)
C15 C -0.42286(16) 0.02604(11) 0.61917(19)
H17 H -0.3709 0.0434 0.7000
C16 C -0.54518(16) 0.03562(10) 0.59360(18)
C17 C -0.58747(16) 0.07967(11) 0.69353(19)
O1B O -0.80536(12) 0.00161(8) 0.52882(14)
O2B O -0.81552(13) 0.02809(12) 0.31824(16)
O3B O -0.44330(15) -0.05687(9) 0.18721(15)
O4B O -0.35572(13) -0.13795(8) 0.34851(14)
C13B C -0.75842(17) 0.01429(11) 0.4391(2)
C14B C -0.62414(17) 0.00878(10) 0.47263(19)
C15B C -0.57714(16) -0.02604(11) 0.38083(19)
H17B H -0.6291 -0.0434 0.3000
C16B C -0.45482(16) -0.03562(10) 0.40640(18)
C17B C -0.41253(16) -0.07967(11) 0.30647(19)
N1B N -0.01778(15) -0.11285(10) 0.39609(19)
N2B N -0.33609(15) -0.23927(9) 0.16724(17)
H1B H -0.3182 -0.2819 0.2150
H2B H -0.3437 -0.2030 0.2236
N3B N -0.70181(19) -0.22694(15) 0.2140(3)
C1B C -0.12590(19) -0.20254(12) 0.2326(2)
C2B C -0.10897(18) -0.13137(12) 0.2880(2)
H5B H -0.1641 -0.0945 0.2477
C3B C 0.0602(2) -0.16641(14) 0.4522(3)
H6B H 0.1243 -0.1545 0.5273
C4B C 0.0507(2) -0.23845(15) 0.4047(3)
H7B H 0.1071 -0.2742 0.4469
C5B C -0.0442(2) -0.25673(14) 0.2932(3)
H8B H -0.0527 -0.3052 0.2595
C6B C -0.2351(2) -0.21991(13) 0.1161(2)
H9B H -0.2186 -0.2615 0.0650
H10B H -0.2562 -0.1769 0.0570
C7B C -0.4537(2) -0.24909(14) 0.0596(2)
H11B H -0.4475 -0.2886 -0.0014
H12B H -0.4753 -0.2033 0.0082
C8B C -0.54756(19) -0.26845(13) 0.1236(2)
C9B C -0.6209(2) -0.21358(15) 0.1488(3)
H13B H -0.6142 -0.1652 0.1195
C10B C -0.7094(2) -0.29720(18) 0.2544(3)
H14B H -0.7630 -0.3071 0.3016
C11B C -0.6436(2) -0.35479(16) 0.2308(3)
H15B H -0.6537 -0.4030 0.2586
C12B C -0.5617(2) -0.33998(14) 0.1646(3)
H16B H -0.5156 -0.3785 0.1473
O5B O 0.03726(13) -0.05910(9) 0.68986(15)
H3B H -0.0268 -0.0509 0.7090
H4B H 0.0932 -0.0532 0.7634
Mn1_2 Mn -1.0000 0.0000 0.5000
O1B_2 O 0.19464(12) 0.00161(8) 0.52882(14)
O6 O 0.72907(15) 0.86805(9) 0.81649(17)
H18 H 0.7539 0.9010 0.7729
H19 H 0.6896 0.8921 0.8587
O7 O 0.8715(3) 0.10611(14) 0.8593(3)
H20 H 0.8216 0.1426 0.8370
H21 H 0.8420 0.0730 0.7989
O8 O 0.7974(2) 0.05814(15) 0.0664(2)
H22 H 0.8415 0.0547 0.0158
H23 H 0.7404 0.0278 0.0335
O9 O 0.39026(17) 0.04678(11) 0.04690(18)
H24 H 0.4406 0.0158 0.0941
H25 H 0.4088 0.0520 -0.0250
loop_
_geom_bond_atom_site_label_1
_geom_bond_atom_site_label_2
_geom_bond_site_symmetry_1
_geom_bond_site_symmetry_2
Mn1 N1 1_555 1_555
N1 C2 1_555 1_555
N2 H1 1_555 1_555
H2 N2 1_555 1_555
N3 C9 1_555 1_555
O1 Mn1 1_555 1_555
O2 C13 1_555 1_555
O3 C17 1_555 1_555
O4 C17 1_555 1_555
O5 Mn1 1_555 1_555
H3 O5 1_555 1_555
H4 O5 1_555 1_555
C1 C2 1_555 1_555
C2 H5 1_555 1_555
C3 N1 1_555 1_555
H6 C3 1_555 1_555
C4 C3 1_555 1_555
H7 C4 1_555 1_555
C5 C1 1_555 1_555
H8 C5 1_555 1_555
C6 N2 1_555 1_555
H9 C6 1_555 1_555
H10 C6 1_555 1_555
C7 N2 1_555 1_555
H11 C7 1_555 1_555
H12 C7 1_555 1_555
C8 C7 1_555 1_555
C9 C8 1_555 1_555
H13 C9 1_555 1_555
C10 N3 1_555 1_555
H14 C10 1_555 1_555
C11 C10 1_555 1_555
H15 C11 1_555 1_555
C12 C8 1_555 1_555
H16 C12 1_555 1_555
C13 O1 1_555 1_555
C14 C13 1_555 1_555
C15 C14 1_555 1_555
H17 C15 1_555 1_555
C16 C15 1_555 1_555
C17 C16 1_555 1_555
O6 H18 1_555 1_555
H19 O6 1_555 1_555
O7 H20 1_555 1_555
H21 O7 1_555 1_555
O8 H22 1_555 1_555
H23 O8 1_555 1_555
O9 H24 1_555 1_555
H25 O9 1_555 1_555
O1B C13B 1_555 1_555
O2B C13B 1_555 1_555
O3B C17B 1_555 1_555
O4B C17B 1_555 1_555
C13B C14B 1_555 1_555
C14B C16 1_555 1_555
C15B C14B 1_555 1_555
H17B C15B 1_555 1_555
C16B C14 1_555 1_555
C17B C16B 1_555 1_555
N1B Mn1 1_555 1_555
N2B H1B 1_555 1_555
H2B N2B 1_555 1_555
N3B C9B 1_555 1_555
C1B C2B 1_555 1_555
C2B N1B 1_555 1_555
H5B C2B 1_555 1_555
C3B N1B 1_555 1_555
H6B C3B 1_555 1_555
C4B C3B 1_555 1_555
H7B C4B 1_555 1_555
C5B C1B 1_555 1_555
H8B C5B 1_555 1_555
C6B N2B 1_555 1_555
H9B C6B 1_555 1_555
H10B C6B 1_555 1_555
C7B N2B 1_555 1_555
H11B C7B 1_555 1_555
H12B C7B 1_555 1_555
C8B C7B 1_555 1_555
C9B C8B 1_555 1_555
H13B C9B 1_555 1_555
C10B N3B 1_555 1_555
H14B C10B 1_555 1_555
C11B C10B 1_555 1_555
H15B C11B 1_555 1_555
C12B C8B 1_555 1_555
H16B C12B 1_555 1_555
O5B Mn1 1_555 1_555
H3B O5B 1_555 1_555
H4B O5B 1_555 1_555
Mn1_2 O1B 1_555 1_555
O1B_2 Mn1 1_555 1_555
C1 C6 1_555 1_555
C4 C5 1_555 1_555
C11 C12 1_555 1_555
C15B C16B 1_555 1_555
C1B C6B 1_555 1_555
C4B C5B 1_555 1_555
C11B C12B 1_555 1_555

#END
