
#######################################################################
#
#                 Cambridge Crystallographic Data Centre
#                                CCDC 
#
#######################################################################
#
# If this CIF has been generated from an entry in the Cambridge 
# Structural Database, then it will include bibliographic, chemical, 
# crystal, experimental, refinement or atomic coordinate data resulting 
# from the CCDC's data processing and validation procedures.
#
#######################################################################

data_DIBNUZ
_symmetry_cell_setting           monoclinic
_symmetry_space_group_name_H-M   'C 2/c'
_symmetry_Int_Tables_number      15
_space_group_name_Hall           '-C 2yn'
loop_
_symmetry_equiv_pos_site_id
_symmetry_equiv_pos_as_xyz
1 x,y,z
2 -x,y,1/2-z
3 1/2+x,1/2+y,z
4 1/2-x,1/2+y,1/2-z
5 -x,-y,-z
6 x,-y,1/2+z
7 1/2-x,1/2-y,-z
8 1/2+x,1/2-y,1/2+z
_cell_length_a                   14.5043(13)
_cell_length_b                   18.3488(16)
_cell_length_c                   21.2872(19)
_cell_angle_alpha                90
_cell_angle_beta                 94.3250(10)
_cell_angle_gamma                90
_cell_volume                     5649.17
loop_
_atom_site_label
_atom_site_type_symbol
_atom_site_fract_x
_atom_site_fract_y
_atom_site_fract_z
Co1 Co 0.25006(4) 0.23174(3) 0.68102(2)
N1 N 0.3512(2) 0.22584(17) 0.75578(12)
N2 N 0.4260(2) 0.26381(18) 0.84480(13)
O1 O 0.3140(2) 0.16338(17) 0.61990(13)
C1 C 0.3883(3) 0.2820(2) 0.78687(16)
H1 H 0.3885 0.3291 0.7707
C2 C 0.4121(2) 0.1903(2) 0.85260(15)
C3 C 0.3655(3) 0.1665(2) 0.79668(15)
C4 C 0.2558(3) 0.1127(3) 0.61959(16)
C5 C 0.1822(2) 0.1105(2) 0.47877(15)
H2 H 0.1813 0.1572 0.5001
H3 H 0.1288 0.1084 0.4485
C6 C 0.1756(3) 0.0497(2) 0.52678(16)
H4 H 0.1708 0.0032 0.5050
H5 H 0.1201 0.0562 0.5488
O2 O 0.1928(2) 0.11433(19) 0.65645(13)
C7 C 0.2702(2) 0.10459(19) 0.44414(15)
H6 H 0.2686 0.0581 0.4214
C8 C 0.2598(3) 0.04849(19) 0.57462(15)
H7 H 0.2568 0.0037 0.5994
C9 C 0.3549(3) 0.1047(2) 0.49086(16)
H8 H 0.3608 0.1521 0.5109
H9 H 0.4098 0.0965 0.4684
C10 C 0.3610(3) 0.0481(2) 0.8388(2)
H10 H 0.3443 -0.0008 0.8352
C11 C 0.3491(3) 0.0464(2) 0.54108(16)
H11 H 0.4010 0.0521 0.5721
H12 H 0.3545 -0.0011 0.5216
C12 C 0.4346(3) 0.1434(2) 0.90231(17)
H13 H 0.4663 0.1593 0.9394
C13 C 0.4695(3) 0.3132(3) 0.89193(17)
H14 H 0.4784 0.3603 0.8726
H15 H 0.5300 0.2943 0.9062
C14 C 0.3391(3) 0.0941(2) 0.78958(17)
H16 H 0.3076 0.0776 0.7526
C15 C 0.4077(3) 0.0726(2) 0.89407(19)
H17 H 0.4212 0.0396 0.9266
O3 O 0.21326(17) 0.16232(13) 0.34865(10)
O4 O 0.3257(2) 0.21795(15) 0.40249(12)
C16 C 0.2728(3) 0.1657(2) 0.39624(15)
C17 C 0.4128(3) 0.3231(2) 0.94846(16)
C18 C 0.4575(3) 0.3253(2) 1.00902(16)
H18 H 0.5209 0.3174 1.0143
C19 C 0.3189(3) 0.3333(2) 0.94178(17)
H19 H 0.2882 0.3325 0.9018
C20 C 0.4088(3) 0.3389(2) 1.06134(16)
C21 C 0.4609(3) 0.3445(2) 1.12551(16)
H20 H 0.5253 0.3323 1.1217
H21 H 0.4582 0.3944 1.1403
C22 C 0.3147(3) 0.3484(2) 1.05321(18)
H22 H 0.2812 0.3574 1.0880
N3 N 0.4235(2) 0.29624(17) 1.17166(12)
C23 C 0.4222(2) 0.2214(2) 1.16939(15)
C24 C 0.3800(3) 0.3155(2) 1.22288(15)
H23 H 0.3722 0.3637 1.2350
C25 C 0.4587(3) 0.1723(2) 1.12800(17)
H24 H 0.4906 0.1878 1.0941
C26 C 0.3757(2) 0.1988(2) 1.22088(15)
C27 C 0.4450(3) 0.1006(2) 1.1399(2)
H25 H 0.4682 0.0660 1.1133
C28 C 0.3973(3) 0.0769(2) 1.1908(2)
H26 H 0.3894 0.0272 1.1971
C29 C 0.3618(3) 0.1254(2) 1.23165(18)
H27 H 0.3297 0.1096 1.2653
C30 C 0.2697(3) 0.3448(2) 0.99398(19)
H28 H 0.2058 0.3501 0.9891
N4 N 0.3498(2) 0.25984(17) 1.25393(12)
Co1F Co 0.24994(4) 0.26826(3) 0.31898(2)
Co1F_2 Co 0.24994(4) 0.26826(3) 1.31898(2)
O3F O 0.28674(17) 0.33768(13) 0.65135(10)
O4F O 0.1743(2) 0.28205(15) 0.59751(12)
N4F N 0.1502(2) 0.24016(17) 0.74607(12)
loop_
_geom_bond_atom_site_label_1
_geom_bond_atom_site_label_2
_geom_bond_site_symmetry_1
_geom_bond_site_symmetry_2
Co1 N1 1_555 1_555
N1 C1 1_555 1_555
N2 C1 1_555 1_555
O1 Co1 1_555 1_555
C1 H1 1_555 1_555
C2 N2 1_555 1_555
C3 N1 1_555 1_555
C4 O1 1_555 1_555
C5 H2 1_555 1_555
H3 C5 1_555 1_555
C6 C5 1_555 1_555
H4 C6 1_555 1_555
H5 C6 1_555 1_555
O2 Co1 1_555 1_555
C7 C5 1_555 1_555
H6 C7 1_555 1_555
C8 C4 1_555 1_555
H7 C8 1_555 1_555
C9 C7 1_555 1_555
H8 C9 1_555 1_555
H9 C9 1_555 1_555
C10 H10 1_555 1_555
C11 C8 1_555 1_555
H11 C11 1_555 1_555
H12 C11 1_555 1_555
C12 C2 1_555 1_555
H13 C12 1_555 1_555
C13 N2 1_555 1_555
H14 C13 1_555 1_555
H15 C13 1_555 1_555
C14 C3 1_555 1_555
H16 C14 1_555 1_555
C15 C10 1_555 1_555
H17 C15 1_555 1_555
O3 C16 1_555 1_555
O4 C16 1_555 1_555
C16 C7 1_555 1_555
C17 C13 1_555 1_555
C18 C17 1_555 1_555
H18 C18 1_555 1_555
C19 C17 1_555 1_555
H19 C19 1_555 1_555
C20 C18 1_555 1_555
C21 C20 1_555 1_555
H20 C21 1_555 1_555
H21 C21 1_555 1_555
C22 C20 1_555 1_555
H22 C22 1_555 1_555
N3 C21 1_555 1_555
C23 N3 1_555 1_555
C24 N3 1_555 1_555
H23 C24 1_555 1_555
C25 C23 1_555 1_555
H24 C25 1_555 1_555
C26 C23 1_555 1_555
C27 C25 1_555 1_555
H25 C27 1_555 1_555
C28 C27 1_555 1_555
H26 C28 1_555 1_555
C29 C26 1_555 1_555
H27 C29 1_555 1_555
C30 C19 1_555 1_555
H28 C30 1_555 1_555
N4 C24 1_555 1_555
Co1F O3 1_555 1_555
Co1F_2 N4 1_555 1_555
O3F Co1 1_555 1_555
O4F Co1 1_555 1_555
N4F Co1 1_555 1_555
C2 C3 1_555 1_555
C4 O2 1_555 1_555
C6 C8 1_555 1_555
C9 C11 1_555 1_555
C10 C14 1_555 1_555
C12 C15 1_555 1_555
O4 Co1F 1_555 1_555
C22 C30 1_555 1_555
C26 N4 1_555 1_555
C28 C29 1_555 1_555

#END
