
#######################################################################
#
#                 Cambridge Crystallographic Data Centre
#                                CCDC 
#
#######################################################################
#
# If this CIF has been generated from an entry in the Cambridge 
# Structural Database, then it will include bibliographic, chemical, 
# crystal, experimental, refinement or atomic coordinate data resulting 
# from the CCDC's data processing and validation procedures.
#
#######################################################################

data_DIBNAF
_symmetry_cell_setting           monoclinic
_symmetry_space_group_name_H-M   'P 21/c'
_symmetry_Int_Tables_number      14
_space_group_name_Hall           '-P 2ybc'
loop_
_symmetry_equiv_pos_site_id
_symmetry_equiv_pos_as_xyz
1 x,y,z
2 -x,1/2+y,1/2-z
3 -x,-y,-z
4 x,1/2-y,1/2+z
_cell_length_a                   11.7110(8)
_cell_length_b                   17.6592(12)
_cell_length_c                   10.3532(8)
_cell_angle_alpha                90
_cell_angle_beta                 108.2550(10)
_cell_angle_gamma                90
_cell_volume                     2033.35
loop_
_atom_site_label
_atom_site_type_symbol
_atom_site_fract_x
_atom_site_fract_y
_atom_site_fract_z
Zn1 Zn 0.5000 0.0000 0.5000
O1 O 0.69333(10) 0.00202(6) 0.53235(12)
O2 O 0.68001(11) 0.01768(7) 0.31379(12)
O3 O 1.14913(11) -0.13999(7) 0.35209(12)
O4 O 1.05810(11) -0.05862(7) 0.18563(12)
N1 N 0.51492(13) 0.10723(8) 0.60122(14)
N2 N 0.83087(13) 0.23892(8) 0.83514(14)
H1 H 0.8111 0.2841 0.7893
H2 H 0.8384 0.2031 0.7738
N3 N 1.19989(14) 0.22765(9) 0.78787(16)
C1 C 0.62114(16) 0.19815(10) 0.76904(17)
C2 C 0.60655(16) 0.12607(10) 0.71129(17)
H3 H 0.6645 0.0884 0.7521
C3 C 0.43360(16) 0.16106(10) 0.54492(18)
H4 H 0.3680 0.1484 0.4670
C4 C 0.44091(17) 0.23394(10) 0.59513(19)
H5 H 0.3818 0.2706 0.5521
C5 C 0.53566(17) 0.25282(10) 0.70918(19)
H6 H 0.5421 0.3025 0.7460
C6 C 0.73039(16) 0.21610(10) 0.88738(18)
H7 H 0.7121 0.2578 0.9417
H8 H 0.7543 0.1711 0.9468
C7 C 0.94986(16) 0.24772(10) 0.94366(18)
H9 H 0.9723 0.1997 0.9947
H10 H 0.9446 0.2878 1.0083
C8 C 1.04330(16) 0.26844(10) 0.87792(17)
C9 C 1.11992(16) 0.21376(10) 0.85359(18)
H11 H 1.1152 0.1638 0.8854
C10 C 1.20537(17) 0.29852(11) 0.74435(19)
H12 H 1.2600 0.3090 0.6955
C11 C 1.13582(17) 0.35714(11) 0.76660(19)
H13 H 1.1440 0.4069 0.7359
C12 C 1.05387(16) 0.34181(10) 0.83470(18)
H14 H 1.0052 0.3812 0.8518
C13 C 0.73903(15) 0.00956(9) 0.43881(17)
C14 C 0.87441(16) 0.00656(9) 0.47270(17)
C15 C 0.92320(15) -0.02910(9) 0.38101(17)
H15 H 0.8704 -0.0490 0.2986
C16 C 1.04655(15) -0.03621(9) 0.40706(17)
C17 C 1.09006(15) -0.08096(9) 0.30744(17)
O5 O 0.46473(11) 0.06038(7) 0.31641(12)
H16 H 0.5264 0.0495 0.2935
H17 H 0.4060 0.0582 0.2432
O1B O 1.30667(10) -0.00202(6) 0.46765(12)
O2B O 1.31999(11) -0.01768(7) 0.68621(12)
O3B O 0.85087(11) 0.13999(7) 0.64791(12)
O4B O 0.94190(11) 0.05862(7) 0.81437(12)
C13B C 1.26097(15) -0.00956(9) 0.56119(17)
C14B C 1.12559(16) -0.00656(9) 0.52730(17)
C15B C 1.07680(15) 0.02910(9) 0.61899(17)
H15B H 1.1296 0.0490 0.7014
C16B C 0.95345(15) 0.03621(9) 0.59294(17)
C17B C 0.90994(15) 0.08096(9) 0.69256(17)
N1B N 0.48508(13) -0.10723(8) 0.39878(14)
N2B N 0.16913(13) -0.23892(8) 0.16486(14)
H1B H 0.1889 -0.2841 0.2107
H2B H 0.1616 -0.2031 0.2262
N3B N -0.19989(14) -0.22765(9) 0.21213(16)
C1B C 0.37886(16) -0.19815(10) 0.23096(17)
C2B C 0.39345(16) -0.12607(10) 0.28871(17)
H3B H 0.3355 -0.0884 0.2479
C3B C 0.56640(16) -0.16106(10) 0.45508(18)
H4B H 0.6320 -0.1484 0.5330
C4B C 0.55909(17) -0.23394(10) 0.40487(19)
H5B H 0.6182 -0.2706 0.4479
C5B C 0.46434(17) -0.25282(10) 0.29082(19)
H6B H 0.4579 -0.3025 0.2540
C6B C 0.26961(16) -0.21610(10) 0.11262(18)
H7B H 0.2879 -0.2578 0.0583
H8B H 0.2457 -0.1711 0.0532
C7B C 0.05014(16) -0.24772(10) 0.05634(18)
H9B H 0.0277 -0.1997 0.0053
H10B H 0.0554 -0.2878 -0.0083
C8B C -0.04330(16) -0.26844(10) 0.12208(17)
C9B C -0.11992(16) -0.21376(10) 0.14641(18)
H11B H -0.1152 -0.1638 0.1146
C10B C -0.20537(17) -0.29852(11) 0.25565(19)
H12B H -0.2600 -0.3090 0.3045
C11B C -0.13582(17) -0.35714(11) 0.23340(19)
H13B H -0.1440 -0.4069 0.2641
C12B C -0.05387(16) -0.34181(10) 0.16530(18)
H14B H -0.0052 -0.3812 0.1482
O5B O 0.53527(11) -0.06038(7) 0.68359(12)
H16B H 0.4736 -0.0495 0.7065
H17B H 0.5940 -0.0582 0.7568
Zn1_2 Zn 1.5000 0.0000 0.5000
O1B_2 O 0.30667(10) -0.00202(6) 0.46765(12)
O6 O 0.76434(11) 0.12995(7) 0.18809(12)
H18 H 0.7324 0.0961 0.2240
H19 H 0.8058 0.1058 0.1474
O7 O 0.88851(11) 0.04621(7) 0.05011(13)
H20 H 0.9094 0.0566 -0.0195
H21 H 0.9424 0.0163 0.0972
O8 O 0.29290(12) 0.06218(8) 0.07324(13)
H22 H 0.3243 0.0737 0.0122
H23 H 0.2450 0.0260 0.0397
O9 O 0.37496(13) 0.10965(8) 0.86624(14)
H24 H 0.3266 0.1445 0.8268
H25 H 0.3697 0.0764 0.8052
loop_
_geom_bond_atom_site_label_1
_geom_bond_atom_site_label_2
_geom_bond_site_symmetry_1
_geom_bond_site_symmetry_2
Zn1 O1 1_555 1_555
O1 C13 1_555 1_555
O2 C13 1_555 1_555
O3 C17 1_555 1_555
O4 C17 1_555 1_555
N1 Zn1 1_555 1_555
N2 H1 1_555 1_555
H2 N2 1_555 1_555
N3 C9 1_555 1_555
C1 C2 1_555 1_555
C2 N1 1_555 1_555
H3 C2 1_555 1_555
C3 N1 1_555 1_555
H4 C3 1_555 1_555
C4 C3 1_555 1_555
H5 C4 1_555 1_555
C5 C1 1_555 1_555
H6 C5 1_555 1_555
C6 N2 1_555 1_555
H7 C6 1_555 1_555
H8 C6 1_555 1_555
C7 N2 1_555 1_555
H9 C7 1_555 1_555
H10 C7 1_555 1_555
C8 C7 1_555 1_555
C9 C8 1_555 1_555
H11 C9 1_555 1_555
C10 N3 1_555 1_555
H12 C10 1_555 1_555
C11 C10 1_555 1_555
H13 C11 1_555 1_555
C12 C8 1_555 1_555
H14 C12 1_555 1_555
C13 C14 1_555 1_555
C14 C15 1_555 1_555
C15 H15 1_555 1_555
C16 C15 1_555 1_555
C17 C16 1_555 1_555
O5 Zn1 1_555 1_555
H16 O5 1_555 1_555
H17 O5 1_555 1_555
O6 H18 1_555 1_555
H19 O6 1_555 1_555
O7 H20 1_555 1_555
H21 O7 1_555 1_555
O8 H22 1_555 1_555
H23 O8 1_555 1_555
O9 H24 1_555 1_555
H25 O9 1_555 1_555
O1B C13B 1_555 1_555
O2B C13B 1_555 1_555
O3B C17B 1_555 1_555
O4B C17B 1_555 1_555
C13B C14B 1_555 1_555
C14B C16 1_555 1_555
C15B C14B 1_555 1_555
H15B C15B 1_555 1_555
C16B C14 1_555 1_555
C17B C16B 1_555 1_555
N1B Zn1 1_555 1_555
N2B H1B 1_555 1_555
H2B N2B 1_555 1_555
N3B C9B 1_555 1_555
C1B C2B 1_555 1_555
C2B N1B 1_555 1_555
H3B C2B 1_555 1_555
C3B N1B 1_555 1_555
H4B C3B 1_555 1_555
C4B C3B 1_555 1_555
H5B C4B 1_555 1_555
C5B C1B 1_555 1_555
H6B C5B 1_555 1_555
C6B N2B 1_555 1_555
H7B C6B 1_555 1_555
H8B C6B 1_555 1_555
C7B N2B 1_555 1_555
H9B C7B 1_555 1_555
H10B C7B 1_555 1_555
C8B C7B 1_555 1_555
C9B C8B 1_555 1_555
H11B C9B 1_555 1_555
C10B N3B 1_555 1_555
H12B C10B 1_555 1_555
C11B C10B 1_555 1_555
H13B C11B 1_555 1_555
C12B C8B 1_555 1_555
H14B C12B 1_555 1_555
O5B Zn1 1_555 1_555
H16B O5B 1_555 1_555
H17B O5B 1_555 1_555
Zn1_2 O1B 1_555 1_555
O1B_2 Zn1 1_555 1_555
C1 C6 1_555 1_555
C4 C5 1_555 1_555
C11 C12 1_555 1_555
C15B C16B 1_555 1_555
C1B C6B 1_555 1_555
C4B C5B 1_555 1_555
C11B C12B 1_555 1_555

#END
