
#######################################################################
#
#                 Cambridge Crystallographic Data Centre
#                                CCDC 
#
#######################################################################
#
# If this CIF has been generated from an entry in the Cambridge 
# Structural Database, then it will include bibliographic, chemical, 
# crystal, experimental, refinement or atomic coordinate data resulting 
# from the CCDC's data processing and validation procedures.
#
#######################################################################

data_DIBNEJ
_symmetry_cell_setting           monoclinic
_symmetry_space_group_name_H-M   'P 21/c'
_symmetry_Int_Tables_number      14
_space_group_name_Hall           '-P 2ybc'
loop_
_symmetry_equiv_pos_site_id
_symmetry_equiv_pos_as_xyz
1 x,y,z
2 -x,1/2+y,1/2-z
3 -x,-y,-z
4 x,1/2-y,1/2+z
_cell_length_a                   11.6889(5)
_cell_length_b                   17.8019(8)
_cell_length_c                   10.4480(5)
_cell_angle_alpha                90
_cell_angle_beta                 107.6480(10)
_cell_angle_gamma                90
_cell_volume                     2071.75
loop_
_atom_site_label
_atom_site_type_symbol
_atom_site_fract_x
_atom_site_fract_y
_atom_site_fract_z
Co1 Co 0.5000 0.0000 0.0000
N1 N 0.51527(13) 0.10770(9) 0.09870(16)
N2 N 0.82976(13) 0.23765(9) 0.33284(15)
H1 H 0.8119 0.2812 0.2873
H2 H 0.8396 0.2023 0.2754
N3 N 1.19917(17) 0.22504(13) 0.2905(2)
O1 O 0.31722(12) -0.02355(9) 0.18301(14)
O2 O 0.30837(10) -0.00180(7) -0.02928(13)
O3 O 0.06117(14) -0.05543(9) -0.31145(13)
O4 O 0.14649(12) -0.13786(7) -0.15151(13)
O5 O 0.46428(11) 0.05764(8) -0.18183(13)
H3 H 0.5280 0.0486 -0.2022
H4 H 0.4074 0.0520 -0.2545
C1 C 0.61964(17) 0.19812(11) 0.26367(19)
C2 C 0.60537(16) 0.12684(11) 0.20695(19)
H5 H 0.6619 0.0903 0.2467
C3 C 0.43515(19) 0.16121(12) 0.0429(2)
H6 H 0.3715 0.1490 -0.0323
C4 C 0.4425(2) 0.23333(13) 0.0916(3)
H7 H 0.3852 0.2690 0.0495
C5 C 0.5360(2) 0.25214(12) 0.2038(2)
H8 H 0.5425 0.3006 0.2385
C6 C 0.72713(18) 0.21578(12) 0.3816(2)
H9 H 0.7082 0.2566 0.4333
H10 H 0.7487 0.1721 0.4394
C7 C 0.94621(18) 0.24773(12) 0.4414(2)
H11 H 0.9671 0.2018 0.4933
H12 H 0.9389 0.2877 0.5014
C8 C 1.04232(17) 0.26690(12) 0.3786(2)
C9 C 1.11744(19) 0.21200(13) 0.3545(2)
H13 H 1.1108 0.1635 0.3844
C10 C 1.2068(2) 0.29509(16) 0.2491(3)
H14 H 1.2611 0.3048 0.2020
C11 C 1.1397(2) 0.35341(14) 0.2713(3)
H15 H 1.1500 0.4017 0.2428
C12 C 1.05656(19) 0.33898(13) 0.3369(2)
H16 H 1.0097 0.3778 0.3534
C13 C 0.26040(16) -0.01231(10) 0.06093(18)
C14 C 0.12517(15) -0.00773(9) 0.02689(17)
C15 C 0.07641(15) 0.02669(10) 0.11856(18)
H17 H 0.1279 0.0446 0.1991
C16 C 0.04665(15) -0.03505(9) -0.09328(17)
C17 C 0.09018(15) -0.07882(10) -0.19335(18)
O1B O -0.31722(12) 0.02355(9) -0.18301(14)
O2B O -0.30837(10) 0.00180(7) 0.02928(13)
O3B O -0.06117(14) 0.05543(9) 0.31145(13)
O4B O -0.14649(12) 0.13786(7) 0.15151(13)
C13B C -0.26040(16) 0.01231(10) -0.06093(18)
C14B C -0.12517(15) 0.00773(9) -0.02689(17)
C15B C -0.07641(15) -0.02669(10) -0.11856(18)
H17B H -0.1279 -0.0446 -0.1991
C16B C -0.04665(15) 0.03505(9) 0.09328(17)
C17B C -0.09018(15) 0.07882(10) 0.19335(18)
N1B N 0.48473(13) -0.10770(9) -0.09870(16)
N2B N 0.17024(13) -0.23765(9) -0.33284(15)
H1B H 0.1881 -0.2812 -0.2873
H2B H 0.1604 -0.2023 -0.2754
N3B N -0.19917(17) -0.22504(13) -0.2905(2)
C1B C 0.38036(17) -0.19812(11) -0.26367(19)
C2B C 0.39463(16) -0.12684(11) -0.20695(19)
H5B H 0.3381 -0.0903 -0.2467
C3B C 0.56485(19) -0.16121(12) -0.0429(2)
H6B H 0.6285 -0.1490 0.0323
C4B C 0.5575(2) -0.23333(13) -0.0916(3)
H7B H 0.6148 -0.2690 -0.0495
C5B C 0.4640(2) -0.25214(12) -0.2038(2)
H8B H 0.4575 -0.3006 -0.2385
C6B C 0.27287(18) -0.21578(12) -0.3816(2)
H9B H 0.2918 -0.2566 -0.4333
H10B H 0.2513 -0.1721 -0.4394
C7B C 0.05379(18) -0.24773(12) -0.4414(2)
H11B H 0.0329 -0.2018 -0.4933
H12B H 0.0611 -0.2877 -0.5014
C8B C -0.04232(17) -0.26690(12) -0.3786(2)
C9B C -0.11744(19) -0.21200(13) -0.3545(2)
H13B H -0.1108 -0.1635 -0.3844
C10B C -0.2068(2) -0.29509(16) -0.2491(3)
H14B H -0.2611 -0.3048 -0.2020
C11B C -0.1397(2) -0.35341(14) -0.2713(3)
H15B H -0.1500 -0.4017 -0.2428
C12B C -0.05656(19) -0.33898(13) -0.3369(2)
H16B H -0.0097 -0.3778 -0.3534
O5B O 0.53572(11) -0.05764(8) 0.18183(13)
H3B H 0.4720 -0.0486 0.2022
H4B H 0.5926 -0.0520 0.2545
Co1_2 Co -0.5000 0.0000 0.0000
O2B_2 O 0.69163(10) 0.00180(7) 0.02928(13)
O6 O 0.89209(15) 0.04883(10) 0.54961(15)
H18 H 0.9095 0.0544 0.4769
H19 H 0.9428 0.0173 0.5951
O7 O 0.76659(14) 0.13217(8) 0.68528(15)
H20 H 0.8128 0.1049 0.6389
H21 H 0.7408 0.1040 0.7185
O8 O 0.37293(19) 0.10562(11) 0.3655(2)
H22 H 0.3105 0.1330 0.3405
H23 H 0.3623 0.0716 0.3059
O9 O 0.29583(18) 0.05727(13) 0.57636(19)
H24 H 0.3367 0.0521 0.5220
H25 H 0.2422 0.0233 0.5545
loop_
_geom_bond_atom_site_label_1
_geom_bond_atom_site_label_2
_geom_bond_site_symmetry_1
_geom_bond_site_symmetry_2
Co1 N1 1_555 1_555
N1 C2 1_555 1_555
N2 H1 1_555 1_555
H2 N2 1_555 1_555
N3 C9 1_555 1_555
O1 C13 1_555 1_555
O2 Co1 1_555 1_555
O3 C17 1_555 1_555
O4 C17 1_555 1_555
O5 Co1 1_555 1_555
H3 O5 1_555 1_555
H4 O5 1_555 1_555
C1 C2 1_555 1_555
C2 H5 1_555 1_555
C3 N1 1_555 1_555
H6 C3 1_555 1_555
C4 C3 1_555 1_555
H7 C4 1_555 1_555
C5 C1 1_555 1_555
H8 C5 1_555 1_555
C6 N2 1_555 1_555
H9 C6 1_555 1_555
H10 C6 1_555 1_555
C7 N2 1_555 1_555
H11 C7 1_555 1_555
H12 C7 1_555 1_555
C8 C7 1_555 1_555
C9 C8 1_555 1_555
H13 C9 1_555 1_555
C10 N3 1_555 1_555
H14 C10 1_555 1_555
C11 C10 1_555 1_555
H15 C11 1_555 1_555
C12 C8 1_555 1_555
H16 C12 1_555 1_555
C13 O2 1_555 1_555
C14 C13 1_555 1_555
C15 C14 1_555 1_555
H17 C15 1_555 1_555
C16 C14 1_555 1_555
C17 C16 1_555 1_555
O6 H18 1_555 1_555
H19 O6 1_555 1_555
O7 H20 1_555 1_555
H21 O7 1_555 1_555
O8 H22 1_555 1_555
H23 O8 1_555 1_555
O9 H24 1_555 1_555
H25 O9 1_555 1_555
O1B C13B 1_555 1_555
O2B C13B 1_555 1_555
O3B C17B 1_555 1_555
O4B C17B 1_555 1_555
C13B C14B 1_555 1_555
C14B C15B 1_555 1_555
C15B C16 1_555 1_555
H17B C15B 1_555 1_555
C16B C15 1_555 1_555
C17B C16B 1_555 1_555
N1B Co1 1_555 1_555
N2B H1B 1_555 1_555
H2B N2B 1_555 1_555
N3B C9B 1_555 1_555
C1B C2B 1_555 1_555
C2B N1B 1_555 1_555
H5B C2B 1_555 1_555
C3B N1B 1_555 1_555
H6B C3B 1_555 1_555
C4B C3B 1_555 1_555
H7B C4B 1_555 1_555
C5B C1B 1_555 1_555
H8B C5B 1_555 1_555
C6B N2B 1_555 1_555
H9B C6B 1_555 1_555
H10B C6B 1_555 1_555
C7B N2B 1_555 1_555
H11B C7B 1_555 1_555
H12B C7B 1_555 1_555
C8B C7B 1_555 1_555
C9B C8B 1_555 1_555
H13B C9B 1_555 1_555
C10B N3B 1_555 1_555
H14B C10B 1_555 1_555
C11B C10B 1_555 1_555
H15B C11B 1_555 1_555
C12B C8B 1_555 1_555
H16B C12B 1_555 1_555
O5B Co1 1_555 1_555
H3B O5B 1_555 1_555
H4B O5B 1_555 1_555
Co1_2 O2B 1_555 1_555
O2B_2 Co1 1_555 1_555
C1 C6 1_555 1_555
C4 C5 1_555 1_555
C11 C12 1_555 1_555
C14B C16B 1_555 1_555
C1B C6B 1_555 1_555
C4B C5B 1_555 1_555
C11B C12B 1_555 1_555

#END
