
#######################################################################
#
#                 Cambridge Crystallographic Data Centre
#                                CCDC 
#
#######################################################################
#
# If this CIF has been generated from an entry in the Cambridge 
# Structural Database, then it will include bibliographic, chemical, 
# crystal, experimental, refinement or atomic coordinate data resulting 
# from the CCDC's data processing and validation procedures.
#
#######################################################################

data_DIBTEP
_symmetry_cell_setting           monoclinic
_symmetry_space_group_name_H-M   'C 2/c'
_symmetry_Int_Tables_number      15
_space_group_name_Hall           '-C 2yn'
loop_
_symmetry_equiv_pos_site_id
_symmetry_equiv_pos_as_xyz
1 x,y,z
2 -x,y,1/2-z
3 1/2+x,1/2+y,z
4 1/2-x,1/2+y,1/2-z
5 -x,-y,-z
6 x,-y,1/2+z
7 1/2-x,1/2-y,-z
8 1/2+x,1/2-y,1/2+z
_cell_length_a                   32.6085(8)
_cell_length_b                   8.96402(12)
_cell_length_c                   15.3463(3)
_cell_angle_alpha                90
_cell_angle_beta                 112.037(3)
_cell_angle_gamma                90
_cell_volume                     4158.05
loop_
_atom_site_label
_atom_site_type_symbol
_atom_site_fract_x
_atom_site_fract_y
_atom_site_fract_z
Cu1 Cu 0.606454(7) 0.64947(2) 0.414382(13)
P1 P 0.662314(14) 0.58105(5) 0.54050(3)
O1 O 0.67236(6) 0.76064(18) 0.31421(13)
O2 O 0.64637(9) 0.8751(2) 0.18130(16)
O3 O 0.55270(7) 0.36635(17) 0.40594(19)
O4 O 0.48230(6) 0.33392(18) 0.36728(16)
N1 N 0.60459(5) 0.48060(17) 0.80477(10)
N2 N 0.69505(8) 0.1005(3) 0.3959(2)
N3 N 0.75569(9) 1.0607(3) 0.66449(18)
N4 N 0.57169(5) 0.95981(15) 0.35802(10)
N5 N 0.60290(5) 0.86156(14) 0.35414(10)
N6 N 0.59209(6) 1.03966(18) 0.24388(12)
N7 N 0.64665(7) 0.84563(17) 0.25888(14)
N8 N 0.52370(5) 0.79827(15) 0.41511(10)
N9 N 0.54216(5) 0.66382(14) 0.41005(10)
N10 N 0.47152(5) 0.62960(18) 0.39825(12)
N11 N 0.51500(6) 0.41191(17) 0.38826(12)
C1 C 0.64958(7) 0.5107(2) 0.63976(12)
H1 H 0.6342 0.4137 0.6217
H2 H 0.6777 0.4924 0.6934
C2 C 0.62143(9) 0.6130(2) 0.67178(17)
H3 H 0.6374 0.7077 0.6949
H4 H 0.5937 0.6362 0.6182
C3 C 0.61108(6) 0.5422(2) 0.74668(12)
C4 C 0.69273(6) 0.4233(2) 0.51772(14)
H5 H 0.7042 0.4522 0.4689
H6 H 0.7184 0.3995 0.5758
C5 C 0.66380(7) 0.2846(2) 0.48517(15)
H7 H 0.6613 0.2343 0.5404
H8 H 0.6337 0.3149 0.4428
C6 C 0.68189(7) 0.1802(3) 0.43612(18)
C7 C 0.70809(7) 0.7131(3) 0.59223(17)
H9 H 0.7295 0.6701 0.6512
H10 H 0.7236 0.7263 0.5483
C8 C 0.69377(11) 0.8610(3) 0.6130(3)
H11 H 0.6693 0.8975 0.5563
H12 H 0.6822 0.8498 0.6637
C9 C 0.72922(9) 0.9733(3) 0.6418(2)
C10 C 0.61331(6) 0.91629(18) 0.28539(12)
C11 C 0.56626(7) 1.0633(2) 0.29150(14)
H13 H 0.5461 1.1443 0.2799
C12 C 0.50939(6) 0.57067(18) 0.39943(12)
C13 C 0.48218(6) 0.7739(2) 0.40842(13)
H14 H 0.4625 0.8506 0.4107
B1 B 0.55061(8) 0.9463(2) 0.43365(16)
H15 H 0.5771(8) 0.941(3) 0.5056(16)
H16 H 0.5275(7) 1.038(3) 0.4213(15)
Cu1E Cu 0.606454(7) 0.35053(2) 0.914382(13)
N1E N 0.60459(5) 0.51940(17) 0.30477(10)
loop_
_geom_bond_atom_site_label_1
_geom_bond_atom_site_label_2
_geom_bond_site_symmetry_1
_geom_bond_site_symmetry_2
Cu1 P1 1_555 1_555
P1 C1 1_555 1_555
O1 N7 1_555 1_555
O2 N7 1_555 1_555
O3 N11 1_555 1_555
O4 N11 1_555 1_555
N1 C3 1_555 1_555
N2 C6 1_555 1_555
N3 C9 1_555 1_555
N4 N5 1_555 1_555
N5 Cu1 1_555 1_555
N6 C10 1_555 1_555
N7 C10 1_555 1_555
N8 N9 1_555 1_555
N9 Cu1 1_555 1_555
N10 C12 1_555 1_555
N11 C12 1_555 1_555
C1 H1 1_555 1_555
H2 C1 1_555 1_555
C2 C1 1_555 1_555
H3 C2 1_555 1_555
H4 C2 1_555 1_555
C3 C2 1_555 1_555
C4 P1 1_555 1_555
H5 C4 1_555 1_555
H6 C4 1_555 1_555
C5 C4 1_555 1_555
H7 C5 1_555 1_555
H8 C5 1_555 1_555
C6 C5 1_555 1_555
C7 P1 1_555 1_555
H9 C7 1_555 1_555
H10 C7 1_555 1_555
C8 C7 1_555 1_555
H11 C8 1_555 1_555
H12 C8 1_555 1_555
C9 C8 1_555 1_555
C10 N5 1_555 1_555
C11 N4 1_555 1_555
H13 C11 1_555 1_555
C12 N9 1_555 1_555
C13 N8 1_555 1_555
H14 C13 1_555 1_555
B1 N4 1_555 1_555
H15 B1 1_555 1_555
H16 B1 1_555 1_555
Cu1E N1 1_555 1_555
N1E Cu1 1_555 1_555
N6 C11 1_555 1_555
N8 B1 1_555 1_555
N10 C13 1_555 1_555

#END
