
#######################################################################
#
#                 Cambridge Crystallographic Data Centre
#                                CCDC 
#
#######################################################################
#
# If this CIF has been generated from an entry in the Cambridge 
# Structural Database, then it will include bibliographic, chemical, 
# crystal, experimental, refinement or atomic coordinate data resulting 
# from the CCDC's data processing and validation procedures.
#
#######################################################################

data_DIBWUH
_symmetry_cell_setting           tetragonal
_symmetry_space_group_name_H-M   'I 41/a c d'
_symmetry_Int_Tables_number      142
_space_group_name_Hall           '-I 4bd 2c'
loop_
_symmetry_equiv_pos_site_id
_symmetry_equiv_pos_as_xyz
1 x,y,z
2 1/4-y,3/4+x,1/4+z
3 1/4+y,1/4-x,3/4+z
4 1/4+y,3/4+x,3/4-z
5 1/4-y,1/4-x,1/4-z
6 1/2+x,1/2+y,1/2+z
7 3/4-y,1/4+x,3/4+z
8 3/4+y,3/4-x,1/4+z
9 3/4+y,1/4+x,1/4-z
10 1/2-x,-y,1/2+z
11 1/2-x,y,-z
12 x,-y,1/2-z
13 -x,1/2-y,z
14 -x,1/2+y,1/2-z
15 1/2+x,1/2-y,-z
16 3/4-y,3/4-x,3/4-z
17 -x,-y,-z
18 3/4+y,1/4-x,3/4-z
19 3/4-y,3/4+x,1/4-z
20 3/4-y,1/4-x,1/4+z
21 3/4+y,3/4+x,3/4+z
22 1/2-x,1/2-y,1/2-z
23 1/4+y,3/4-x,1/4-z
24 1/4-y,1/4+x,3/4-z
25 1/4-y,3/4-x,3/4+z
26 1/2+x,y,1/2-z
27 1/2+x,-y,z
28 -x,y,1/2+z
29 x,1/2+y,-z
30 x,1/2-y,1/2+z
31 1/2-x,1/2+y,z
32 1/4+y,1/4+x,1/4+z
_cell_length_a                   13.9318(3)
_cell_length_b                   13.9318(3)
_cell_length_c                   29.5213(12)
_cell_angle_alpha                90
_cell_angle_beta                 90
_cell_angle_gamma                90
_cell_volume                     5729.94
loop_
_atom_site_label
_atom_site_type_symbol
_atom_site_fract_x
_atom_site_fract_y
_atom_site_fract_z
Ni1 Ni 0.42893(2) 0.16389(2) 0.088294(9)
O1 O 0.42578(10) 0.31085(12) 0.09262(5)
N1 N 0.42421(15) 0.15764(19) 0.01873(9)
O2 O 0.44732(15) 0.01323(14) 0.09107(6)
H1 H 0.4975 -0.0167 0.1103
N2 N 0.21978(17) 0.14489(18) -0.08961(7)
C1 C 0.40067(17) 0.1480(2) -0.01782(8)
C2 C 0.36167(19) 0.3615(2) 0.06375(9)
H2 H 0.3837 0.3571 0.0330
H3 H 0.3593 0.4277 0.0727
H4 H 0.2987 0.3339 0.0660
C3 C 0.29459(18) 0.14132(18) -0.07444(7)
C4 C 0.3943(2) -0.0558(3) 0.06724(15)
H5 H 0.3270 -0.0426 0.0705
H6 H 0.4082 -0.1184 0.0791
H7 H 0.4114 -0.0536 0.0358
N3 N 0.38280(17) 0.1333(3) -0.06076(8)
Ni1V Ni 0.41389(2) 0.32107(2) 0.161706(9)
Ni1L Ni 0.57107(2) 0.33611(2) 0.088294(9)
Ni1J Ni 0.07107(2) 0.16389(2) -0.088294(9)
Ni1R Ni 0.58611(2) 0.17893(2) 0.161706(9)
Ni1S Ni 0.58611(2) -0.17893(2) 0.338294(9)
O1R O 0.43915(12) 0.17578(10) 0.15738(5)
O1L O 0.57422(10) 0.18915(12) 0.09262(5)
O1V O 0.56085(12) 0.32422(10) 0.15738(5)
N1V N 0.40764(19) 0.32579(15) 0.23127(9)
N1L N 0.57579(15) 0.34236(19) 0.01873(9)
N1J N 0.07579(15) 0.15764(19) -0.01873(9)
N1R N 0.59236(19) 0.17421(15) 0.23127(9)
N1S N 0.59236(19) -0.17421(15) 0.26873(9)
O2V O 0.26323(14) 0.30268(15) 0.15893(6)
O2L O 0.55268(15) 0.48677(14) 0.09107(6)
O2R O 0.73677(14) 0.19732(15) 0.15893(6)
H1V H 0.2333 0.2525 0.1397
H1L H 0.5025 0.5167 0.1103
H1R H 0.7667 0.2475 0.1397
N2J N 0.28022(17) 0.14489(18) 0.08961(7)
N2EA N 0.39489(18) 0.46978(17) 0.16039(7)
N2N N 0.71978(17) 0.35511(18) 0.08961(7)
N2S N 0.60511(18) 0.03022(17) 0.16039(7)
N2R N 0.60511(18) -0.03022(17) 0.33961(7)
C1J C 0.09933(17) 0.1480(2) 0.01782(8)
C1R C 0.6020(2) 0.15067(17) 0.26782(8)
C1S C 0.6020(2) -0.15067(17) 0.23218(8)
C2R C 0.3885(2) 0.11167(19) 0.18625(9)
C2L C 0.63833(19) 0.1385(2) 0.06375(9)
C2V C 0.6115(2) 0.38833(19) 0.18625(9)
H2R H 0.3929 0.1337 0.2170
H2L H 0.6163 0.1429 0.0330
H2V H 0.6071 0.3663 0.2170
H3R H 0.3223 0.1093 0.1773
H3L H 0.6407 0.0723 0.0727
H3V H 0.6777 0.3907 0.1773
H4R H 0.4161 0.0487 0.1840
H4L H 0.7013 0.1661 0.0660
H4V H 0.5839 0.4513 0.1840
C3J C 0.20541(18) 0.14132(18) 0.07444(7)
C3S C 0.60868(18) -0.04459(18) 0.17556(7)
C3R C 0.60868(18) 0.04459(18) 0.32444(7)
C4V C 0.1942(3) 0.3557(2) 0.18276(15)
C4L C 0.6057(2) 0.5558(3) 0.06724(15)
C4R C 0.8058(3) 0.1443(2) 0.18276(15)
H5V H 0.2074 0.4230 0.1795
H5L H 0.6730 0.5426 0.0705
H5R H 0.7926 0.0770 0.1795
H6V H 0.1316 0.3418 0.1709
H6L H 0.5918 0.6184 0.0791
H6R H 0.8684 0.1582 0.1709
H7V H 0.1964 0.3386 0.2142
H7L H 0.5886 0.5536 0.0358
H7R H 0.8036 0.1614 0.2142
N3J N 0.11720(17) 0.1333(3) 0.06076(8)
N3R N 0.6167(3) 0.13280(17) 0.31076(8)
N3S N 0.6167(3) -0.13280(17) 0.18924(8)
loop_
_geom_bond_atom_site_label_1
_geom_bond_atom_site_label_2
_geom_bond_site_symmetry_1
_geom_bond_site_symmetry_2
Ni1 O1 1_555 1_555
O1 C2 1_555 1_555
N1 Ni1 1_555 1_555
O2 Ni1 1_555 1_555
H1 O2 1_555 1_555
N2 C3 1_555 1_555
C1 N1 1_555 1_555
C2 H2 1_555 1_555
H3 C2 1_555 1_555
H4 C2 1_555 1_555
C3 N3 1_555 1_555
C4 O2 1_555 1_555
H5 C4 1_555 1_555
H6 C4 1_555 1_555
H7 C4 1_555 1_555
N3 C1 1_555 1_555
Ni1V O1 1_555 1_555
Ni1L O1 1_555 1_555
Ni1J N2 1_555 1_555
Ni1R O1R 1_555 1_555
Ni1S N1S 1_555 1_555
O1R Ni1 1_555 1_555
O1L Ni1 1_555 1_555
O1V Ni1V 1_555 1_555
N1V Ni1V 1_555 1_555
N1L Ni1L 1_555 1_555
N1J Ni1J 1_555 1_555
N1R Ni1R 1_555 1_555
N1S C1S 1_555 1_555
O2V Ni1V 1_555 1_555
O2L Ni1L 1_555 1_555
O2R Ni1R 1_555 1_555
H1V O2V 1_555 1_555
H1L O2L 1_555 1_555
H1R O2R 1_555 1_555
N2J Ni1 1_555 1_555
N2EA Ni1V 1_555 1_555
N2N Ni1L 1_555 1_555
N2S Ni1R 1_555 1_555
N2R Ni1S 1_555 1_555
C1J N1J 1_555 1_555
C1R N1R 1_555 1_555
C1S N3S 1_555 1_555
C2R O1R 1_555 1_555
C2L O1L 1_555 1_555
C2V O1V 1_555 1_555
H2R C2R 1_555 1_555
H2L C2L 1_555 1_555
H2V C2V 1_555 1_555
H3R C2R 1_555 1_555
H3L C2L 1_555 1_555
H3V C2V 1_555 1_555
H4R C2R 1_555 1_555
H4L C2L 1_555 1_555
H4V C2V 1_555 1_555
C3J N2J 1_555 1_555
C3S N2S 1_555 1_555
C3R N2R 1_555 1_555
C4V O2V 1_555 1_555
C4L O2L 1_555 1_555
C4R O2R 1_555 1_555
H5V C4V 1_555 1_555
H5L C4L 1_555 1_555
H5R C4R 1_555 1_555
H6V C4V 1_555 1_555
H6L C4L 1_555 1_555
H6R C4R 1_555 1_555
H7V C4V 1_555 1_555
H7L C4L 1_555 1_555
H7R C4R 1_555 1_555
N3J C1J 1_555 1_555
N3R C1R 1_555 1_555
N3S C3S 1_555 1_555
Ni1V O1R 1_555 1_555
Ni1L O1L 1_555 1_555
Ni1L O1V 1_555 1_555
Ni1R O1L 1_555 1_555
Ni1R O1V 1_555 1_555
C3J N3J 1_555 1_555
C3R N3R 1_555 1_555

#END
