
#######################################################################
#
#                 Cambridge Crystallographic Data Centre
#                                CCDC 
#
#######################################################################
#
# If this CIF has been generated from an entry in the Cambridge 
# Structural Database, then it will include bibliographic, chemical, 
# crystal, experimental, refinement or atomic coordinate data resulting 
# from the CCDC's data processing and validation procedures.
#
#######################################################################

data_DIBXET
_symmetry_cell_setting           triclinic
_symmetry_space_group_name_H-M   'P -1'
_symmetry_Int_Tables_number      2
_space_group_name_Hall           '-P 1'
loop_
_symmetry_equiv_pos_site_id
_symmetry_equiv_pos_as_xyz
1 x,y,z
2 -x,-y,-z
_cell_length_a                   10.725(4)
_cell_length_b                   10.747(4)
_cell_length_c                   11.917(4)
_cell_angle_alpha                70.146(4)
_cell_angle_beta                 77.912(5)
_cell_angle_gamma                60.967(4)
_cell_volume                     1127.92
loop_
_atom_site_label
_atom_site_type_symbol
_atom_site_fract_x
_atom_site_fract_y
_atom_site_fract_z
C1 C 0.8225(9) 0.0226(9) 0.7163(7)
C2 C 0.8263(9) 0.0132(9) 0.8347(7)
C3 C 0.7173(9) 0.0348(9) 0.6414(7)
C4 C 0.7356(8) -0.0022(8) 0.9454(7)
C5 C 0.0573(12) 0.6874(11) 0.5422(10)
H1 H -0.0094 0.7307 0.4847
C6 C 0.1154(12) 0.5345(10) 0.5927(10)
H2 H 0.0906 0.4773 0.5669
C7 C 0.2085(11) 0.4704(9) 0.6801(8)
C8 C 0.2457(14) 0.5593(11) 0.7114(12)
H3 H 0.3109 0.5185 0.7698
C9 C 0.1855(14) 0.7102(10) 0.6556(11)
H4 H 0.2116 0.7691 0.6777
C10 C 0.2774(9) 0.3062(10) 0.7409(9)
C11 C 0.9237(11) -0.6828(10) 0.8705(9)
H5 H 1.0033 -0.7224 0.8209
C12 C 0.8436(11) -0.5306(10) 0.8455(9)
H6 H 0.8702 -0.4684 0.7809
C13 C 0.7227(10) -0.4715(9) 0.9182(8)
C14 C 0.6882(10) -0.5676(9) 1.0128(8)
H7 H 0.6076 -0.5312 1.0624
C15 C 0.7721(10) -0.7161(10) 1.0341(8)
H8 H 0.7474 -0.7795 1.0990
C16 C 0.6302(10) -0.3055(10) 0.8914(9)
Gd1 Gd 0.45088(4) 0.00119(4) 0.83653(4)
N1 N 0.9442(8) 0.0243(7) 0.6619(6)
N2 N 1.0238(8) 0.0188(8) 0.7379(6)
N3 N 0.9505(7) 0.0091(7) 0.8444(6)
N4 N 0.0919(8) 0.7740(8) 0.5718(7)
N5 N 0.8886(8) -0.7749(7) 0.9654(7)
O1 O 0.6673(8) -0.2204(7) 0.8074(7)
O2 O 0.5151(7) -0.2577(7) 0.9522(6)
O3 O 0.3499(8) 0.2595(7) 0.8312(6)
O4 O 0.2620(7) 0.2192(7) 0.7036(6)
O5 O 0.5885(7) 0.0761(7) 0.6805(6)
O6 O 0.7679(7) 0.0076(7) 0.5427(6)
O7 O 0.6185(6) -0.0045(7) 0.9429(5)
O8 O 0.7767(6) -0.0128(6) 1.0417(5)
O9 O 0.3664(8) -0.0849(9) 0.7189(7)
H9 H 0.426(8) -0.086(14) 0.753(9)
H10 H 0.409(10) -0.107(15) 0.658(6)
Cu1 Cu 1.0000 -1.0000 1.0000
Cu2 Cu 0.0000 1.0000 0.5000
C1A C -0.8225(9) 1.9774(9) 0.2837(7)
C2A C -0.8263(9) 1.9868(9) 0.1653(7)
C3A C -0.7173(9) 1.9652(9) 0.3586(7)
C4A C -0.7356(8) 2.0022(8) 0.0546(7)
C5A C -0.0573(12) 1.3126(11) 0.4578(10)
H1A H 0.0094 1.2693 0.5153
C6A C -0.1154(12) 1.4655(10) 0.4073(10)
H2A H -0.0906 1.5227 0.4331
C7A C -0.2085(11) 1.5296(9) 0.3199(8)
C8A C -0.2457(14) 1.4407(11) 0.2886(12)
H3A H -0.3109 1.4815 0.2302
C9A C -0.1855(14) 1.2898(10) 0.3444(11)
H4A H -0.2116 1.2309 0.3223
C10A C -0.2774(9) 1.6938(10) 0.2591(9)
C11A C -0.9237(11) 2.6828(10) 0.1295(9)
H5A H -1.0033 2.7224 0.1791
C12A C -0.8436(11) 2.5306(10) 0.1545(9)
H6A H -0.8702 2.4684 0.2191
C13A C -0.7227(10) 2.4715(9) 0.0818(8)
C14A C -0.6882(10) 2.5676(9) -0.0128(8)
H7A H -0.6076 2.5312 -0.0624
C15A C -0.7721(10) 2.7161(10) -0.0341(8)
H8A H -0.7474 2.7795 -0.0990
C16A C -0.6302(10) 2.3055(10) 0.1086(9)
Gd1A Gd -0.45088(4) 1.99881(4) 0.16347(4)
N1A N -0.9442(8) 1.9757(7) 0.3381(6)
N2A N -1.0238(8) 1.9812(8) 0.2621(6)
N3A N -0.9505(7) 1.9909(7) 0.1556(6)
N4A N -0.0919(8) 1.2260(8) 0.4282(7)
N5A N -0.8886(8) 2.7749(7) 0.0346(7)
O1A O -0.6673(8) 2.2204(7) 0.1926(7)
O2A O -0.5151(7) 2.2577(7) 0.0478(6)
O3A O -0.3499(8) 1.7405(7) 0.1688(6)
O4A O -0.2620(7) 1.7808(7) 0.2964(6)
O5A O -0.5885(7) 1.9239(7) 0.3195(6)
O6A O -0.7679(7) 1.9924(7) 0.4573(6)
O7A O -0.6185(6) 2.0045(7) 0.0571(5)
O8A O -0.7767(6) 2.0128(6) -0.0417(5)
O9A O -0.3664(8) 2.0849(9) 0.2811(7)
H9A H -0.426(8) 2.086(14) 0.247(9)
H10A H -0.409(10) 2.107(15) 0.342(6)
Gd1_2 Gd -0.54912(4) 2.00119(4) -0.16347(4)
Gd1A_2 Gd 0.54912(4) -0.00119(4) 1.16347(4)
N1_2 N -0.0558(8) 1.0243(7) 0.6619(6)
N1A_2 N 0.0558(8) 0.9757(7) 0.3381(6)
N3_2 N 0.9505(7) -0.9909(7) 0.8444(6)
N3A_2 N 1.0495(7) -1.0091(7) 1.1556(6)
N5A_2 N 1.1114(8) -1.2251(7) 1.0346(7)
O6_2 O -0.2321(7) 1.0076(7) 0.5427(6)
O6A_2 O 0.2321(7) 0.9924(7) 0.4573(6)
O7_2 O -0.3815(6) 1.9955(7) -0.0571(5)
O7A_2 O 0.3815(6) 0.0045(7) 1.0571(5)
O8_2 O -0.2233(6) 1.9872(6) 0.0417(5)
O8_3 O 0.7767(6) -1.0128(6) 1.0417(5)
O8A_2 O 0.2233(6) 0.0128(6) 0.9583(5)
O8A_3 O 1.2233(6) -0.9872(6) 0.9583(5)
Cu1_2 Cu -1.0000 2.0000 0.0000
Cu1_3 Cu -1.0000 3.0000 0.0000
Cu1_4 Cu 1.0000 0.0000 1.0000
Cu2_2 Cu -1.0000 2.0000 0.5000
Cu2_3 Cu 1.0000 0.0000 0.5000
O10 O 0.522(2) 0.6496(19) 0.6671(14)
H11 H 0.52(3) 0.722(18) 0.610(15)
H12 H 0.50(3) 0.61(3) 0.64(2)
O11 O 0.4104(15) 0.6504(14) 0.1989(12)
H13 H 0.37(2) 0.739(5) 0.195(17)
H14 H 0.45(2) 0.614(17) 0.262(11)
O12 O 0.268(2) 0.2647(18) 0.4525(12)
H15 H 0.362(12) 0.197(18) 0.460(19)
H16 H 0.224(17) 0.23(3) 0.523(14)
loop_
_geom_bond_atom_site_label_1
_geom_bond_atom_site_label_2
_geom_bond_site_symmetry_1
_geom_bond_site_symmetry_2
C1 C2 1_555 1_555
C2 C4 1_555 1_555
C3 C1 1_555 1_555
C4 O7 1_555 1_555
C5 H1 1_555 1_555
C6 C5 1_555 1_555
H2 C6 1_555 1_555
C7 C6 1_555 1_555
C8 C7 1_555 1_555
H3 C8 1_555 1_555
C9 C8 1_555 1_555
H4 C9 1_555 1_555
C10 C7 1_555 1_555
C11 H5 1_555 1_555
C12 C11 1_555 1_555
H6 C12 1_555 1_555
C13 C12 1_555 1_555
C14 C13 1_555 1_555
H7 C14 1_555 1_555
C15 C14 1_555 1_555
H8 C15 1_555 1_555
C16 C13 1_555 1_555
Gd1 O1 1_555 1_555
N1 C1 1_555 1_555
N2 N1 1_555 1_555
N3 C2 1_555 1_555
N4 C5 1_555 1_555
N5 C11 1_555 1_555
O1 C16 1_555 1_555
O2 C16 1_555 1_555
O3 C10 1_555 1_555
O4 C10 1_555 1_555
O5 C3 1_555 1_555
O6 C3 1_555 1_555
O7 Gd1 1_555 1_555
O8 C4 1_555 1_555
O9 Gd1 1_555 1_555
H9 O9 1_555 1_555
H10 O9 1_555 1_555
Cu1 N5 1_555 1_555
Cu2 N4 1_555 1_555
O10 H11 1_555 1_555
H12 O10 1_555 1_555
O11 H13 1_555 1_555
H14 O11 1_555 1_555
O12 H15 1_555 1_555
H16 O12 1_555 1_555
C1A C2A 1_555 1_555
C2A C4A 1_555 1_555
C3A C1A 1_555 1_555
C4A O7A 1_555 1_555
C5A H1A 1_555 1_555
C6A C5A 1_555 1_555
H2A C6A 1_555 1_555
C7A C6A 1_555 1_555
C8A C7A 1_555 1_555
H3A C8A 1_555 1_555
C9A C8A 1_555 1_555
H4A C9A 1_555 1_555
C10A C7A 1_555 1_555
C11A H5A 1_555 1_555
C12A C11A 1_555 1_555
H6A C12A 1_555 1_555
C13A C12A 1_555 1_555
C14A C13A 1_555 1_555
H7A C14A 1_555 1_555
C15A C14A 1_555 1_555
H8A C15A 1_555 1_555
C16A C13A 1_555 1_555
Gd1A O1A 1_555 1_555
N1A C1A 1_555 1_555
N2A N1A 1_555 1_555
N3A C2A 1_555 1_555
N4A Cu2 1_555 1_555
N5A C11A 1_555 1_555
O1A C16A 1_555 1_555
O2A C16A 1_555 1_555
O3A C10A 1_555 1_555
O4A C10A 1_555 1_555
O5A C3A 1_555 1_555
O6A C3A 1_555 1_555
O7A Gd1A 1_555 1_555
O8A C4A 1_555 1_555
O9A Gd1A 1_555 1_555
H9A O9A 1_555 1_555
H10A O9A 1_555 1_555
Gd1_2 O7A 1_555 1_555
Gd1A_2 O7 1_555 1_555
N1_2 Cu2 1_555 1_555
N1A_2 Cu2 1_555 1_555
N3_2 Cu1 1_555 1_555
N3A_2 Cu1 1_555 1_555
N5A_2 Cu1 1_555 1_555
O6_2 Cu2 1_555 1_555
O6A_2 Cu2 1_555 1_555
O7_2 Gd1A 1_555 1_555
O7A_2 Gd1 1_555 1_555
O8_2 Gd1A 1_555 1_555
O8_3 Cu1 1_555 1_555
O8A_2 Gd1 1_555 1_555
O8A_3 Cu1 1_555 1_555
Cu1_2 N3A 1_555 1_555
Cu1_3 N5A 1_555 1_555
Cu1_4 N3 1_555 1_555
Cu2_2 N1A 1_555 1_555
Cu2_3 N1 1_555 1_555
C9 N4 1_555 1_555
C15 N5 1_555 1_555
Gd1 O2 1_555 1_555
Gd1 O3 1_555 1_555
Gd1 O4 1_555 1_555
Gd1 O5 1_555 1_555
N2 N3 1_555 1_555
O6 Cu2_3 1_555 1_555
O8 Gd1A_2 1_555 1_555
O8 Cu1_4 1_555 1_555
C5A N4A 1_555 1_555
C9A N4A 1_555 1_555
C15A N5A 1_555 1_555
Gd1A O2A 1_555 1_555
Gd1A O3A 1_555 1_555
Gd1A O4A 1_555 1_555
Gd1A O5A 1_555 1_555
N2A N3A 1_555 1_555
O6A Cu2_2 1_555 1_555
O8A Gd1_2 1_555 1_555
O8A Cu1_2 1_555 1_555
Gd1_2 O7_2 1_555 1_555
Gd1A_2 O7A_2 1_555 1_555

#END
