
#######################################################################
#
#                 Cambridge Crystallographic Data Centre
#                                CCDC 
#
#######################################################################
#
# If this CIF has been generated from an entry in the Cambridge 
# Structural Database, then it will include bibliographic, chemical, 
# crystal, experimental, refinement or atomic coordinate data resulting 
# from the CCDC's data processing and validation procedures.
#
#######################################################################

data_DIBXIW
_symmetry_cell_setting           rhombohedral
_symmetry_space_group_name_H-M   'R -3'
_symmetry_Int_Tables_number      148
_space_group_name_Hall           '-R 3'
loop_
_symmetry_equiv_pos_site_id
_symmetry_equiv_pos_as_xyz
1 x,y,z
2 -y,x-y,z
3 -x+y,-x,z
4 2/3+x,1/3+y,1/3+z
5 2/3-y,1/3+x-y,1/3+z
6 2/3-x+y,1/3-x,1/3+z
7 1/3+x,2/3+y,2/3+z
8 1/3-y,2/3+x-y,2/3+z
9 1/3-x+y,2/3-x,2/3+z
10 -x,-y,-z
11 y,-x+y,-z
12 x-y,x,-z
13 1/3-x,2/3-y,2/3-z
14 1/3+y,2/3-x+y,2/3-z
15 1/3+x-y,2/3+x,2/3-z
16 2/3-x,1/3-y,1/3-z
17 2/3+y,1/3-x+y,1/3-z
18 2/3+x-y,1/3+x,1/3-z
_cell_length_a                   32.743(2)
_cell_length_b                   32.743(2)
_cell_length_c                   13.8177(7)
_cell_angle_alpha                90
_cell_angle_beta                 90
_cell_angle_gamma                120.000(5)
_cell_volume                     12829.3
loop_
_atom_site_label
_atom_site_type_symbol
_atom_site_fract_x
_atom_site_fract_y
_atom_site_fract_z
Cu1 Cu 0.66371(2) 0.10801(2) 0.76578(5)
Cu2 Cu 0.55250(3) 0.13562(3) 0.88415(6)
Cu3 Cu 0.68724(3) 0.18013(3) 0.57919(6)
O1 O 0.6332(3) 0.2093(3) 0.5438(10)
Cl1 Cl 0.57497(5) 0.07476(5) 0.87278(10)
Cl2 Cl 0.47299(5) 0.05257(5) 1.02543(10)
Cl3 Cl 0.61380(11) 0.19948(14) 0.7771(2)
O2 O 0.68594(14) 0.17383(16) 0.7247(3)
H1 H 0.672(3) 0.185(3) 0.745(6)
N1 N 0.73442(17) 0.17828(18) 0.8925(4)
N2 N 0.61874(18) 0.00738(18) 0.8340(4)
H2 H 0.594(3) 0.011(3) 0.869(5)
C1 C 0.6401(2) 0.1802(3) 1.0027(5)
H3 H 0.6594 0.1782 0.9556
N3 N 0.65600(17) 0.04415(17) 0.7901(4)
N4 N 0.62477(17) 0.08634(17) 0.6490(3)
C2 C 0.5876(2) 0.0444(2) 0.6246(4)
H4 H 0.5740 0.0179 0.6642
N5 N 0.70029(17) 0.13229(17) 0.8847(3)
N6 N 0.63469(18) 0.11595(18) 0.5724(4)
C3 C 0.7291(2) 0.1442(2) 1.0349(4)
H5 H 0.7341 0.1392 1.0989
C4 C 0.6971(2) 0.1116(2) 0.9701(4)
H6 H 0.6764 0.0799 0.9839
C5 C 0.7517(2) 0.1858(2) 0.9825(4)
H7 H 0.7754 0.2146 1.0063
C6 C 0.6032(2) 0.0923(2) 0.5022(5)
H8 H 0.6021 0.1047 0.4424
C7 C 0.6852(2) 0.0287(2) 0.7668(5)
H9 H 0.7140 0.0466 0.7358
C8 C 0.6665(2) -0.0182(2) 0.7955(5)
H10 H 0.6798 -0.0373 0.7872
N7 N 0.59365(19) 0.1643(2) 0.9926(4)
C9 C 0.5724(2) 0.0463(2) 0.5324(5)
H11 H 0.5474 0.0224 0.4983
N8 N 0.5775(2) 0.1729(2) 1.0758(4)
C10 C 0.6245(2) -0.0300(2) 0.8383(5)
H12 H 0.6036 -0.0590 0.8656
C11 C 0.6548(3) 0.1995(3) 1.0928(6)
H13 H 0.6851 0.2137 1.1184
C12 C 0.6138(3) 0.1931(4) 1.1371(6)
H14 H 0.6120 0.2016 1.2005
N9 N 0.7055(3) 0.1784(4) 0.4373(5)
N10 N 0.7425(4) 0.1704(4) 0.4162(7)
H15 H 0.7561 0.1620 0.4585
C13 C 0.6979(5) 0.1906(5) 0.3607(10)
H16 H 0.6742 0.1982 0.3530
C14 C 0.7537(5) 0.1769(5) 0.3258(10)
H17 H 0.7760 0.1720 0.2944
C15 C 0.7258(7) 0.1928(8) 0.2862(9)
H18 H 0.7258 0.2026 0.2230
Cu4 Cu 0.5000 0.0000 1.0000
N11 N 0.4560(2) -0.0280(2) 0.8912(4)
N12 N 0.4552(3) -0.0102(2) 0.8047(5)
H19 H 0.4761 0.0170 0.7835
C16 C 0.4172(2) -0.0708(2) 0.8948(5)
H20 H 0.4087 -0.0911 0.9476
C17 C 0.3921(3) -0.0807(3) 0.8128(6)
H21 H 0.3642 -0.1084 0.7990
C18 C 0.4149(3) -0.0430(3) 0.7538(5)
H22 H 0.4058 -0.0394 0.6921
Cu1I Cu 0.33629(2) -0.10801(2) 1.23422(5)
Cu1M Cu 0.44134(2) 0.11097(3) 0.90089(5)
Cu2I Cu 0.44750(3) -0.13562(3) 1.11585(6)
Cu2N Cu 0.75021(4) 0.21917(3) 0.78252(6)
Cu3M Cu 0.51346(3) 0.15956(4) 1.08748(6)
Cu3I Cu 0.31276(3) -0.18013(3) 1.42081(6)
Cu3D Cu 0.48654(3) -0.15956(4) 0.91252(6)
O1M O 0.5426(3) 0.2428(4) 1.1229(10)
Cl1I Cl 0.42503(5) -0.07476(5) 1.12722(10)
Cl2I Cl 0.52701(5) -0.05257(5) 0.97457(10)
Cl3I Cl 0.38620(11) -0.19948(14) 1.2229(2)
O2M O 0.50716(16) 0.15456(21) 0.9420(3)
O2I O 0.31406(14) -0.17383(16) 1.2753(3)
O2D O 0.49284(16) -0.15456(21) 1.0580(3)
H1M H 0.518(3) 0.180(4) 0.922(6)
H1I H 0.328(3) -0.185(3) 1.255(6)
H1D H 0.482(3) -0.180(4) 1.078(6)
N1M N 0.51161(18) 0.11053(25) 0.7742(4)
N1D N 0.48839(18) -0.11053(25) 1.2258(4)
N2I N 0.38126(18) -0.00738(18) 1.1660(4)
H2I H 0.406(3) -0.011(3) 1.131(5)
C1I C 0.3599(2) -0.1802(3) 0.9973(5)
H3I H 0.3406 -0.1782 1.0444
N3I N 0.34400(17) -0.04415(17) 1.2099(4)
N4I N 0.37523(17) -0.08634(17) 1.3510(3)
C2I C 0.4124(2) -0.0444(2) 1.3754(4)
H4I H 0.4260 -0.0179 1.3358
N5M N 0.46562(17) 0.09867(24) 0.7820(3)
N5I N 0.29971(17) -0.13229(17) 1.1153(3)
N6I N 0.36531(18) -0.11595(18) 1.4276(4)
N6M N 0.44928(18) 0.14793(25) 1.0943(4)
C3M C 0.4775(2) 0.0818(3) 0.6318(4)
H5M H 0.4725 0.0718 0.5678
C4M C 0.4449(2) 0.0812(3) 0.6966(4)
H6M H 0.4132 0.0702 0.6828
C5M C 0.5191(2) 0.1008(3) 0.6842(4)
H7M H 0.5479 0.1059 0.6604
C6I C 0.3968(2) -0.0923(2) 1.4978(5)
H8I H 0.3979 -0.1047 1.5576
C7I C 0.3148(2) -0.0287(2) 1.2332(5)
H9I H 0.2860 -0.0466 1.2642
C8I C 0.3335(2) 0.0182(2) 1.2045(5)
H10I H 0.3202 0.0373 1.2128
N7I N 0.40635(19) -0.1643(2) 1.0074(4)
C9I C 0.4276(2) -0.0463(2) 1.4676(5)
H11I H 0.4526 -0.0224 1.5017
N8I N 0.4225(2) -0.1729(2) 0.9242(4)
N8N N 0.7379(3) 0.2442(2) 0.5909(4)
C10I C 0.3755(2) 0.0300(2) 1.1617(5)
H12I H 0.3964 0.0590 1.1344
C11I C 0.3452(3) -0.1995(3) 0.9072(6)
H13I H 0.3149 -0.2137 0.8816
C12I C 0.3862(3) -0.1931(4) 0.8629(6)
H14I H 0.3880 -0.2016 0.7995
N9M N 0.5117(4) 0.1396(5) 1.2294(5)
N10M N 0.5037(4) 0.0946(6) 1.2505(7)
H15M H 0.4953 0.0726 1.2082
C13M C 0.5239(5) 0.1594(7) 1.3060(10)
H16M H 0.5315 0.1907 1.3137
C14M C 0.5102(5) 0.0899(7) 1.3409(10)
H17M H 0.5053 0.0627 1.3723
C15M C 0.5261(8) 0.1337(11) 1.3805(9)
H18M H 0.5359 0.1435 1.4437
N11I N 0.5440(2) 0.0280(2) 1.1088(4)
N12I N 0.5448(3) 0.0102(2) 1.1953(5)
H19I H 0.5239 -0.0170 1.2165
C16I C 0.5828(2) 0.0708(2) 1.1052(5)
H20I H 0.5913 0.0911 1.0524
C17I C 0.6079(3) 0.0807(3) 1.1872(6)
H21I H 0.6358 0.1084 1.2010
C18I C 0.5851(3) 0.0430(3) 1.2462(5)
H22I H 0.5942 0.0394 1.3079
loop_
_geom_bond_atom_site_label_1
_geom_bond_atom_site_label_2
_geom_bond_site_symmetry_1
_geom_bond_site_symmetry_2
Cu1 Cl1 1_555 1_555
Cu2 Cl1 1_555 1_555
Cu3 O1 1_555 1_555
Cl1 Cu4 1_555 1_555
Cl2 Cu4 1_555 1_555
Cl3 Cu2 1_555 1_555
O2 Cu1 1_555 1_555
H1 O2 1_555 1_555
N1 N5 1_555 1_555
N2 H2 1_555 1_555
C1 H3 1_555 1_555
N3 Cu1 1_555 1_555
N4 Cu1 1_555 1_555
C2 N4 1_555 1_555
H4 C2 1_555 1_555
N5 Cu1 1_555 1_555
N6 Cu3 1_555 1_555
C3 H5 1_555 1_555
C4 N5 1_555 1_555
H6 C4 1_555 1_555
C5 N1 1_555 1_555
H7 C5 1_555 1_555
C6 N6 1_555 1_555
H8 C6 1_555 1_555
C7 N3 1_555 1_555
H9 C7 1_555 1_555
C8 C7 1_555 1_555
H10 C8 1_555 1_555
N7 Cu2 1_555 1_555
C9 C2 1_555 1_555
H11 C9 1_555 1_555
N8 N7 1_555 1_555
C10 N2 1_555 1_555
H12 C10 1_555 1_555
C11 C1 1_555 1_555
H13 C11 1_555 1_555
C12 N8 1_555 1_555
H14 C12 1_555 1_555
N9 Cu3 1_555 1_555
N10 N9 1_555 1_555
H15 N10 1_555 1_555
C13 N9 1_555 1_555
H16 C13 1_555 1_555
C14 N10 1_555 1_555
H17 C14 1_555 1_555
C15 C13 1_555 1_555
H18 C15 1_555 1_555
Cu4 N11 1_555 1_555
N11 N12 1_555 1_555
N12 H19 1_555 1_555
C16 N11 1_555 1_555
H20 C16 1_555 1_555
C17 C16 1_555 1_555
H21 C17 1_555 1_555
C18 N12 1_555 1_555
H22 C18 1_555 1_555
Cu1I Cl1I 1_555 1_555
Cu1M O2M 1_555 1_555
Cu2I Cl1I 1_555 1_555
Cu2N O2 1_555 1_555
Cu3M N8 1_555 1_555
Cu3I O2I 1_555 1_555
Cu3D O2D 1_555 1_555
O1M Cu3M 1_555 1_555
Cl1I Cu4 1_555 1_555
Cl2I Cu4 1_555 1_555
Cl3I Cu2I 1_555 1_555
O2M Cu2 1_555 1_555
O2I Cu1I 1_555 1_555
O2D Cu2I 1_555 1_555
H1M O2M 1_555 1_555
H1I O2I 1_555 1_555
H1D O2D 1_555 1_555
N1M Cu2 1_555 1_555
N1D Cu2I 1_555 1_555
N2I H2I 1_555 1_555
C1I H3I 1_555 1_555
N3I Cu1I 1_555 1_555
N4I Cu1I 1_555 1_555
C2I N4I 1_555 1_555
H4I C2I 1_555 1_555
N5M Cu1M 1_555 1_555
N5I Cu1I 1_555 1_555
N6I Cu3I 1_555 1_555
N6M Cu3M 1_555 1_555
C3M H5M 1_555 1_555
C4M N5M 1_555 1_555
H6M C4M 1_555 1_555
C5M N1M 1_555 1_555
H7M C5M 1_555 1_555
C6I N6I 1_555 1_555
H8I C6I 1_555 1_555
C7I N3I 1_555 1_555
H9I C7I 1_555 1_555
C8I C7I 1_555 1_555
H10I C8I 1_555 1_555
N7I Cu2I 1_555 1_555
C9I C2I 1_555 1_555
H11I C9I 1_555 1_555
N8I Cu3D 1_555 1_555
N8N Cu3 1_555 1_555
C10I N2I 1_555 1_555
H12I C10I 1_555 1_555
C11I C1I 1_555 1_555
H13I C11I 1_555 1_555
C12I N8I 1_555 1_555
H14I C12I 1_555 1_555
N9M Cu3M 1_555 1_555
N10M N9M 1_555 1_555
H15M N10M 1_555 1_555
C13M N9M 1_555 1_555
H16M C13M 1_555 1_555
C14M N10M 1_555 1_555
H17M C14M 1_555 1_555
C15M C13M 1_555 1_555
H18M C15M 1_555 1_555
N11I Cu4 1_555 1_555
N12I N11I 1_555 1_555
H19I N12I 1_555 1_555
C16I N11I 1_555 1_555
H20I C16I 1_555 1_555
C17I C16I 1_555 1_555
H21I C17I 1_555 1_555
C18I N12I 1_555 1_555
H22I C18I 1_555 1_555
Cu3 O2 1_555 1_555
N1 Cu2N 1_555 1_555
N2 N3 1_555 1_555
C1 N7 1_555 1_555
N4 N6 1_555 1_555
C3 C4 1_555 1_555
C3 C5 1_555 1_555
C6 C9 1_555 1_555
C8 C10 1_555 1_555
C11 C12 1_555 1_555
C14 C15 1_555 1_555
C17 C18 1_555 1_555
Cu3M O2M 1_555 1_555
N1M N5M 1_555 1_555
N2I N3I 1_555 1_555
C1I N7I 1_555 1_555
N4I N6I 1_555 1_555
C3M C4M 1_555 1_555
C3M C5M 1_555 1_555
C6I C9I 1_555 1_555
C8I C10I 1_555 1_555
N7I N8I 1_555 1_555
C11I C12I 1_555 1_555
C14M C15M 1_555 1_555
C17I C18I 1_555 1_555

#END
