
#######################################################################
#
#                 Cambridge Crystallographic Data Centre
#                                CCDC 
#
#######################################################################
#
# If this CIF has been generated from an entry in the Cambridge 
# Structural Database, then it will include bibliographic, chemical, 
# crystal, experimental, refinement or atomic coordinate data resulting 
# from the CCDC's data processing and validation procedures.
#
#######################################################################

data_DIBXAO
_symmetry_cell_setting           tetragonal
_symmetry_space_group_name_H-M   'I 41/a c d'
_symmetry_Int_Tables_number      142
_space_group_name_Hall           '-I 4bd 2c'
loop_
_symmetry_equiv_pos_site_id
_symmetry_equiv_pos_as_xyz
1 x,y,z
2 1/4-y,3/4+x,1/4+z
3 1/4+y,1/4-x,3/4+z
4 1/4+y,3/4+x,3/4-z
5 1/4-y,1/4-x,1/4-z
6 1/2+x,1/2+y,1/2+z
7 3/4-y,1/4+x,3/4+z
8 3/4+y,3/4-x,1/4+z
9 3/4+y,1/4+x,1/4-z
10 1/2-x,-y,1/2+z
11 1/2-x,y,-z
12 x,-y,1/2-z
13 -x,1/2-y,z
14 -x,1/2+y,1/2-z
15 1/2+x,1/2-y,-z
16 3/4-y,3/4-x,3/4-z
17 -x,-y,-z
18 3/4+y,1/4-x,3/4-z
19 3/4-y,3/4+x,1/4-z
20 3/4-y,1/4-x,1/4+z
21 3/4+y,3/4+x,3/4+z
22 1/2-x,1/2-y,1/2-z
23 1/4+y,3/4-x,1/4-z
24 1/4-y,1/4+x,3/4-z
25 1/4-y,3/4-x,3/4+z
26 1/2+x,y,1/2-z
27 1/2+x,-y,z
28 -x,y,1/2+z
29 x,1/2+y,-z
30 x,1/2-y,1/2+z
31 1/2-x,1/2+y,z
32 1/4+y,1/4+x,1/4+z
_cell_length_a                   14.0530(4)
_cell_length_b                   14.0530(4)
_cell_length_c                   29.781(2)
_cell_angle_alpha                90
_cell_angle_beta                 90
_cell_angle_gamma                90
_cell_volume                     5881.35
loop_
_atom_site_label
_atom_site_type_symbol
_atom_site_fract_x
_atom_site_fract_y
_atom_site_fract_z
Co1 Co 0.42915(4) 0.16248(5) 0.08823(2)
O1 O 0.4235(2) 0.3092(2) 0.09251(10)
N1 N 0.4223(3) 0.1544(4) 0.01789(16)
C1 C 0.3998(3) 0.1454(4) -0.01849(18)
N2 N 0.3832(3) 0.1311(5) -0.06088(16)
O2 O 0.4495(2) 0.0111(3) 0.09052(12)
H1 H 0.5194 -0.0004 0.0922
N3 N 0.2789(3) 0.1410(3) 0.09002(14)
C2 C 0.2951(4) 0.1386(3) -0.07480(15)
C3 C 0.3587(4) 0.3602(4) 0.06340(18)
C4 C 0.3959(5) -0.0573(5) 0.0676(3)
H2 H 0.3294 -0.0439 0.0713
H3 H 0.4098 -0.1193 0.0795
H4 H 0.4118 -0.0558 0.0362
Co1V Co 0.41248(5) 0.32085(4) 0.16177(2)
Co1L Co 0.57085(4) 0.33752(5) 0.08823(2)
Co1R Co 0.58752(5) 0.17915(4) 0.16177(2)
Co1J Co 0.07085(4) 0.16248(5) -0.08823(2)
Co1S Co 0.58752(5) -0.17915(4) 0.33823(2)
O1R O 0.4408(2) 0.1735(2) 0.15749(10)
O1L O 0.5765(2) 0.1908(2) 0.09251(10)
O1V O 0.5592(2) 0.3265(2) 0.15749(10)
N1V N 0.4044(4) 0.3277(3) 0.23211(16)
N1L N 0.5777(3) 0.3456(4) 0.01789(16)
N1R N 0.5956(4) 0.1723(3) 0.23211(16)
N1J N 0.0777(3) 0.1544(4) -0.01789(16)
N1S N 0.5956(4) -0.1723(3) 0.26789(16)
C1J C 0.1002(3) 0.1454(4) 0.01849(18)
C1R C 0.6046(4) 0.1498(3) 0.26849(18)
C1S C 0.6046(4) -0.1498(3) 0.23151(18)
N2J N 0.1168(3) 0.1311(5) 0.06088(16)
N2R N 0.6189(5) 0.1332(3) 0.31088(16)
N2S N 0.6189(5) -0.1332(3) 0.18912(16)
O2V O 0.2611(3) 0.3005(2) 0.15948(12)
O2L O 0.5505(2) 0.4889(3) 0.09052(12)
O2R O 0.7389(3) 0.1995(2) 0.15948(12)
H1V H 0.2496 0.2306 0.1578
H1L H 0.4806 0.5004 0.0922
H1R H 0.7504 0.2694 0.1578
N3J N 0.2211(3) 0.1410(3) -0.09002(14)
N3V N 0.3910(3) 0.4711(3) 0.15998(14)
N3L N 0.7211(3) 0.3590(3) 0.09002(14)
N3R N 0.6090(3) 0.0289(3) 0.15998(14)
N3S N 0.6090(3) -0.0289(3) 0.34002(14)
C2J C 0.2049(4) 0.1386(3) 0.07480(15)
C2S C 0.6114(3) -0.0451(4) 0.17520(15)
C2R C 0.6114(3) 0.0451(4) 0.32480(15)
C3R C 0.3898(4) 0.1087(4) 0.18660(18)
C3L C 0.6413(4) 0.1398(4) 0.06340(18)
C3V C 0.6102(4) 0.3913(4) 0.18660(18)
C4V C 0.1927(5) 0.3541(5) 0.1824(3)
C4L C 0.6041(5) 0.5573(5) 0.0676(3)
C4R C 0.8073(5) 0.1459(5) 0.1824(3)
H2V H 0.2061 0.4206 0.1787
H2L H 0.6706 0.5439 0.0713
H2R H 0.7939 0.0794 0.1787
H3V H 0.1307 0.3402 0.1705
H3L H 0.5902 0.6193 0.0795
H3R H 0.8693 0.1598 0.1705
H4V H 0.1942 0.3382 0.2138
H4L H 0.5882 0.5558 0.0362
H4R H 0.8058 0.1618 0.2138
loop_
_geom_bond_atom_site_label_1
_geom_bond_atom_site_label_2
_geom_bond_site_symmetry_1
_geom_bond_site_symmetry_2
Co1 O1 1_555 1_555
O1 C3 1_555 1_555
N1 Co1 1_555 1_555
C1 N1 1_555 1_555
N2 C1 1_555 1_555
O2 Co1 1_555 1_555
H1 O2 1_555 1_555
N3 Co1 1_555 1_555
C2 N2 1_555 1_555
C4 O2 1_555 1_555
H2 C4 1_555 1_555
H3 C4 1_555 1_555
H4 C4 1_555 1_555
Co1V O1 1_555 1_555
Co1L O1 1_555 1_555
Co1R O1R 1_555 1_555
Co1J N1J 1_555 1_555
Co1S N1S 1_555 1_555
O1R Co1 1_555 1_555
O1L Co1 1_555 1_555
O1V Co1V 1_555 1_555
N1V Co1V 1_555 1_555
N1L Co1L 1_555 1_555
N1R Co1R 1_555 1_555
N1J C1J 1_555 1_555
N1S C1S 1_555 1_555
C1J N2J 1_555 1_555
C1R N1R 1_555 1_555
C1S N2S 1_555 1_555
N2J C2J 1_555 1_555
N2R C1R 1_555 1_555
N2S C2S 1_555 1_555
O2V Co1V 1_555 1_555
O2L Co1L 1_555 1_555
O2R Co1R 1_555 1_555
H1V O2V 1_555 1_555
H1L O2L 1_555 1_555
H1R O2R 1_555 1_555
N3J C2 1_555 1_555
N3V Co1V 1_555 1_555
N3L Co1L 1_555 1_555
N3R Co1R 1_555 1_555
N3S Co1S 1_555 1_555
C2J N3 1_555 1_555
C2S N3R 1_555 1_555
C2R N2R 1_555 1_555
C3R O1R 1_555 1_555
C3L O1L 1_555 1_555
C3V O1V 1_555 1_555
C4V O2V 1_555 1_555
C4L O2L 1_555 1_555
C4R O2R 1_555 1_555
H2V C4V 1_555 1_555
H2L C4L 1_555 1_555
H2R C4R 1_555 1_555
H3V C4V 1_555 1_555
H3L C4L 1_555 1_555
H3R C4R 1_555 1_555
H4V C4V 1_555 1_555
H4L C4L 1_555 1_555
H4R C4R 1_555 1_555
Co1V O1R 1_555 1_555
Co1L O1L 1_555 1_555
Co1L O1V 1_555 1_555
Co1R O1L 1_555 1_555
Co1R O1V 1_555 1_555
Co1J N3J 1_555 1_555
N3S C2R 1_555 1_555

#END
