
#######################################################################
#
#                 Cambridge Crystallographic Data Centre
#                                CCDC 
#
#######################################################################
#
# If this CIF has been generated from an entry in the Cambridge 
# Structural Database, then it will include bibliographic, chemical, 
# crystal, experimental, refinement or atomic coordinate data resulting 
# from the CCDC's data processing and validation procedures.
#
#######################################################################

data_DIBXAP
_symmetry_cell_setting           triclinic
_symmetry_space_group_name_H-M   'P -1'
_symmetry_Int_Tables_number      2
_space_group_name_Hall           '-P 1'
loop_
_symmetry_equiv_pos_site_id
_symmetry_equiv_pos_as_xyz
1 x,y,z
2 -x,-y,-z
_cell_length_a                   10.6390(16)
_cell_length_b                   10.6982(16)
_cell_length_c                   11.9375(18)
_cell_angle_alpha                70.078(2)
_cell_angle_beta                 77.610(2)
_cell_angle_gamma                60.7997(10)
_cell_volume                     1113.13
loop_
_atom_site_label
_atom_site_type_symbol
_atom_site_fract_x
_atom_site_fract_y
_atom_site_fract_z
C1 C 0.8225(5) 0.0220(5) 0.7181(4)
C2 C 0.8283(5) 0.0113(5) 0.8357(4)
C3 C 0.7156(5) 0.0352(5) 0.6429(4)
C4 C 0.7351(5) -0.0028(5) 0.9461(4)
C5 C 0.0571(6) 0.6846(6) 0.5436(6)
H1 H -0.0096 0.7270 0.4860
C6 C 0.1139(7) 0.5334(7) 0.5953(6)
H2 H 0.0878 0.4753 0.5717
C7 C 0.2101(5) 0.4694(6) 0.6827(5)
C8 C 0.2477(7) 0.5598(7) 0.7110(7)
H3 H 0.3132 0.5201 0.7690
C9 C 0.1882(7) 0.7098(8) 0.6530(6)
H4 H 0.2166 0.7693 0.6722
C10 C 0.2792(5) 0.3031(5) 0.7442(5)
C11 C 0.9221(6) -0.6815(6) 0.8707(5)
H5 H 1.0029 -0.7213 0.8213
C12 C 0.8417(6) -0.5281(6) 0.8448(6)
H6 H 0.8682 -0.4661 0.7793
C13 C 0.7206(5) -0.4682(6) 0.9186(5)
C14 C 0.6867(5) -0.5659(6) 1.0139(5)
H7 H 0.6058 -0.5297 1.0644
C15 C 0.7710(5) -0.7144(5) 1.0342(5)
H8 H 0.7466 -0.7779 1.0998
C16 C 0.6292(5) -0.3032(5) 0.8929(5)
Cu1 Cu 1.0000 0.0000 1.0000
Cu2 Cu 1.0000 0.0000 0.5000
Ho1 Ho 0.45124(2) 0.00192(2) 0.839173(19)
N1 N 0.9461(4) 0.0235(4) 0.6630(4)
N2 N 1.0245(4) 0.0189(4) 0.7381(4)
N3 N 0.9527(4) 0.0103(4) 0.8440(3)
N4 N 0.0921(4) 0.7735(5) 0.5711(4)
N5 N 0.8879(4) -0.7747(4) 0.9644(4)
O1 O 0.7649(4) 0.0079(4) 0.5455(3)
O2 O 0.5863(4) 0.0770(4) 0.6827(3)
O3 O 0.6179(3) -0.0048(4) 0.9434(3)
O4 O 0.7766(3) -0.0146(3) 1.0418(3)
O5 O 0.2618(4) 0.2168(4) 0.7074(3)
O6 O 0.3506(4) 0.2588(4) 0.8319(4)
O7 O 0.5130(4) -0.2534(4) 0.9539(3)
O8 O 0.6669(4) -0.2176(4) 0.8084(4)
O9 O 0.3688(4) -0.0826(4) 0.7240(4)
H9 H 0.291(5) -0.039(7) 0.698(6)
H10 H 0.425(6) -0.114(7) 0.677(5)
C1A C 0.1775(5) -0.0220(5) 1.2819(4)
C2A C 0.1717(5) -0.0113(5) 1.1643(4)
C3A C 0.2844(5) -0.0352(5) 1.3571(4)
C4A C 0.2649(5) 0.0028(5) 1.0539(4)
C5A C 0.9429(6) -0.6846(6) 1.4564(6)
H1A H 1.0096 -0.7270 1.5140
C6A C 0.8861(7) -0.5334(7) 1.4047(6)
H2A H 0.9122 -0.4753 1.4283
C7A C 0.7899(5) -0.4694(6) 1.3173(5)
C8A C 0.7523(7) -0.5598(7) 1.2890(7)
H3A H 0.6868 -0.5201 1.2310
C9A C 0.8118(7) -0.7098(8) 1.3470(6)
H4A H 0.7834 -0.7693 1.3278
C10A C 0.7208(5) -0.3031(5) 1.2558(5)
C11A C 0.0779(6) 0.6815(6) 1.1293(5)
H5A H -0.0029 0.7213 1.1787
C12A C 0.1583(6) 0.5281(6) 1.1552(6)
H6A H 0.1318 0.4661 1.2207
C13A C 0.2794(5) 0.4682(6) 1.0814(5)
C14A C 0.3133(5) 0.5659(6) 0.9861(5)
H7A H 0.3942 0.5297 0.9356
C15A C 0.2290(5) 0.7144(5) 0.9658(5)
H8A H 0.2534 0.7779 0.9002
C16A C 0.3708(5) 0.3032(5) 1.1071(5)
Ho1A Ho 0.54876(2) -0.00192(2) 1.160827(19)
N1A N 0.0539(4) -0.0235(4) 1.3370(4)
N2A N -0.0245(4) -0.0189(4) 1.2619(4)
N3A N 0.0473(4) -0.0103(4) 1.1560(3)
N4A N 0.9079(4) -0.7735(5) 1.4289(4)
N5A N 0.1121(4) 0.7747(4) 1.0356(4)
O1A O 0.2351(4) -0.0079(4) 1.4545(3)
O2A O 0.4137(4) -0.0770(4) 1.3173(3)
O3A O 0.3821(3) 0.0048(4) 1.0566(3)
O4A O 0.2234(3) 0.0146(3) 0.9582(3)
O5A O 0.7382(4) -0.2168(4) 1.2926(3)
O6A O 0.6494(4) -0.2588(4) 1.1681(4)
O7A O 0.4870(4) 0.2534(4) 1.0461(3)
O8A O 0.3331(4) 0.2176(4) 1.1916(4)
O9A O 0.6312(4) 0.0826(4) 1.2760(4)
H9A H 0.709(5) 0.039(7) 1.302(6)
H10A H 0.575(6) 0.114(7) 1.323(5)
Cu1_2 Cu 0.0000 0.0000 1.0000
Cu1_3 Cu 0.0000 1.0000 1.0000
Cu1_4 Cu 1.0000 -1.0000 1.0000
Cu2_2 Cu 0.0000 0.0000 1.5000
Cu2_3 Cu 0.0000 1.0000 0.5000
Cu2_4 Cu 1.0000 -1.0000 1.5000
N1A_2 N 1.0539(4) -0.0235(4) 0.3370(4)
N3A_2 N 1.0473(4) -0.0103(4) 1.1560(3)
N4_2 N 1.0921(4) -0.2265(5) 0.5711(4)
N4A_2 N 0.9079(4) 0.2265(5) 0.4289(4)
N5_2 N 0.8879(4) 0.2253(4) 0.9644(4)
N5A_2 N 1.1121(4) -0.2253(4) 1.0356(4)
O1A_2 O 1.2351(4) -0.0079(4) 0.4545(3)
O4A_2 O 1.2234(3) 0.0146(3) 0.9582(3)
O10 O 0.4077(6) 0.6499(7) 0.2006(5)
H11 H 0.432(2) 0.647(3) 0.2631(7)
H12 H 0.4623(14) 0.676(3) 0.1495(9)
O11 O 0.4806(10) 0.3438(7) 0.3294(6)
H13 H 0.496(3) 0.2679(10) 0.3853(14)
H14 H 0.461(4) 0.4073(12) 0.3628(17)
O12 O 0.2767(6) 0.2548(7) 0.4576(8)
H15 H 0.3599(7) 0.187(2) 0.464(8)
H16 H 0.2272(10) 0.2113(17) 0.491(7)
loop_
_geom_bond_atom_site_label_1
_geom_bond_atom_site_label_2
_geom_bond_site_symmetry_1
_geom_bond_site_symmetry_2
C1 C2 1_555 1_555
C2 C4 1_555 1_555
C3 C1 1_555 1_555
C4 O3 1_555 1_555
C5 H1 1_555 1_555
C6 C5 1_555 1_555
H2 C6 1_555 1_555
C7 C6 1_555 1_555
C8 C7 1_555 1_555
H3 C8 1_555 1_555
C9 C8 1_555 1_555
H4 C9 1_555 1_555
C10 C7 1_555 1_555
C11 H5 1_555 1_555
C12 C11 1_555 1_555
H6 C12 1_555 1_555
C13 C12 1_555 1_555
C14 C13 1_555 1_555
H7 C14 1_555 1_555
C15 C14 1_555 1_555
H8 C15 1_555 1_555
C16 C13 1_555 1_555
Cu1 N3 1_555 1_555
Cu2 N1 1_555 1_555
Ho1 O2 1_555 1_555
N1 C1 1_555 1_555
N2 N1 1_555 1_555
N3 C2 1_555 1_555
N4 C5 1_555 1_555
N5 C11 1_555 1_555
O1 C3 1_555 1_555
O2 C3 1_555 1_555
O3 Ho1 1_555 1_555
O4 C4 1_555 1_555
O5 C10 1_555 1_555
O6 C10 1_555 1_555
O7 C16 1_555 1_555
O8 C16 1_555 1_555
O9 Ho1 1_555 1_555
H9 O9 1_555 1_555
H10 O9 1_555 1_555
O10 H11 1_555 1_555
H12 O10 1_555 1_555
O11 H13 1_555 1_555
H14 O11 1_555 1_555
O12 H15 1_555 1_555
H16 O12 1_555 1_555
C1A C2A 1_555 1_555
C2A C4A 1_555 1_555
C3A C1A 1_555 1_555
C4A O3A 1_555 1_555
C5A H1A 1_555 1_555
C6A C5A 1_555 1_555
H2A C6A 1_555 1_555
C7A C6A 1_555 1_555
C8A C7A 1_555 1_555
H3A C8A 1_555 1_555
C9A C8A 1_555 1_555
H4A C9A 1_555 1_555
C10A C7A 1_555 1_555
C11A H5A 1_555 1_555
C12A C11A 1_555 1_555
H6A C12A 1_555 1_555
C13A C12A 1_555 1_555
C14A C13A 1_555 1_555
H7A C14A 1_555 1_555
C15A C14A 1_555 1_555
H8A C15A 1_555 1_555
C16A C13A 1_555 1_555
Ho1A O3 1_555 1_555
N1A C1A 1_555 1_555
N2A N1A 1_555 1_555
N3A C2A 1_555 1_555
N4A C5A 1_555 1_555
N5A C11A 1_555 1_555
O1A C3A 1_555 1_555
O2A C3A 1_555 1_555
O3A Ho1 1_555 1_555
O4A Ho1 1_555 1_555
O5A C10A 1_555 1_555
O6A C10A 1_555 1_555
O7A C16A 1_555 1_555
O8A C16A 1_555 1_555
O9A Ho1A 1_555 1_555
H9A O9A 1_555 1_555
H10A O9A 1_555 1_555
Cu1_2 N3A 1_555 1_555
Cu1_3 N5A 1_555 1_555
Cu1_4 N5 1_555 1_555
Cu2_2 N1A 1_555 1_555
Cu2_3 N4 1_555 1_555
Cu2_4 N4A 1_555 1_555
N1A_2 Cu2 1_555 1_555
N3A_2 Cu1 1_555 1_555
N4_2 Cu2 1_555 1_555
N4A_2 Cu2 1_555 1_555
N5_2 Cu1 1_555 1_555
N5A_2 Cu1 1_555 1_555
O1A_2 Cu2 1_555 1_555
O4A_2 Cu1 1_555 1_555
C9 N4 1_555 1_555
C15 N5 1_555 1_555
Cu1 O4 1_555 1_555
Cu2 O1 1_555 1_555
Ho1 O5 1_555 1_555
Ho1 O6 1_555 1_555
Ho1 O7 1_555 1_555
Ho1 O8 1_555 1_555
N2 N3 1_555 1_555
O4 Ho1A 1_555 1_555
C4A O4A 1_555 1_555
C9A N4A 1_555 1_555
C15A N5A 1_555 1_555
Ho1A O2A 1_555 1_555
Ho1A O3A 1_555 1_555
Ho1A O5A 1_555 1_555
Ho1A O6A 1_555 1_555
Ho1A O7A 1_555 1_555
Ho1A O8A 1_555 1_555
N2A N3A 1_555 1_555
O1A Cu2_2 1_555 1_555
O4A Cu1_2 1_555 1_555

#END
