
#######################################################################
#
#                 Cambridge Crystallographic Data Centre
#                                CCDC 
#
#######################################################################
#
# If this CIF has been generated from an entry in the Cambridge 
# Structural Database, then it will include bibliographic, chemical, 
# crystal, experimental, refinement or atomic coordinate data resulting 
# from the CCDC's data processing and validation procedures.
#
#######################################################################

data_DIBZIY01
_symmetry_cell_setting           monoclinic
_symmetry_space_group_name_H-M   'P 21/c'
_symmetry_Int_Tables_number      14
_space_group_name_Hall           '-P 2ybc'
loop_
_symmetry_equiv_pos_site_id
_symmetry_equiv_pos_as_xyz
1 x,y,z
2 -x,1/2+y,1/2-z
3 -x,-y,-z
4 x,1/2-y,1/2+z
_cell_length_a                   10.3780(19)
_cell_length_b                   14.177(3)
_cell_length_c                   21.525(4)
_cell_angle_alpha                90
_cell_angle_beta                 95.710(3)
_cell_angle_gamma                90
_cell_volume                     3151.24
loop_
_atom_site_label
_atom_site_type_symbol
_atom_site_fract_x
_atom_site_fract_y
_atom_site_fract_z
La1 La 0.142414(17) 0.304683(12) 0.261304(8)
La2 La 0.065228(18) 0.567115(12) 0.310657(8)
O1 O -0.0053(2) 0.27593(15) 0.35365(10)
O2 O -0.0444(2) 0.40814(15) 0.30231(10)
O3 O 0.2216(2) 0.41837(15) 0.34889(10)
O4 O 0.1226(2) 0.46489(15) 0.21613(10)
O5 O -0.0694(2) 0.25729(15) 0.19579(10)
O6 O 0.2110(2) 0.25559(17) 0.66334(11)
O7 O 0.3756(3) 0.3569(2) 0.25184(15)
O8 O -0.1048(2) 0.61419(15) 0.22654(10)
O9 O -0.2816(2) 0.68320(15) 0.18383(12)
O10 O 0.1245(3) 0.50129(17) 0.41694(11)
O11 O 0.2062(2) 0.60720(16) 0.22060(11)
O12 O -0.2351(2) 0.18380(15) 0.14490(11)
O13 O 0.1049(2) 0.38532(17) 0.63121(11)
C1 C 0.1766(3) 0.5347(2) 0.19034(15)
C2 C 0.1947(3) 0.5266(2) 0.12298(15)
C3 C 0.1349(3) 0.4541(2) 0.08752(16)
H1 H 0.0872 0.4089 0.1066
C4 C 0.1458(3) 0.4485(2) 0.02402(16)
C5 C 0.2195(4) 0.5148(3) -0.00367(17)
H2 H 0.2283 0.5107 -0.0462
C6 C 0.2801(4) 0.5867(3) 0.03085(17)
H3 H 0.3301 0.6305 0.0119
C7 C 0.2661(3) 0.5935(2) 0.09413(16)
H4 H 0.3047 0.6431 0.1173
C8 C 0.0738(3) 0.3712(2) -0.01105(17)
O14 O 0.0066(3) 0.31530(18) 0.01259(12)
O15 O 0.0899(3) 0.37082(18) -0.07179(11)
H5 H 0.0485 0.3272 -0.0890
C9 C -0.0727(3) 0.3488(2) 0.34379(15)
C10 C -0.1854(3) 0.3710(2) 0.37926(16)
C11 C -0.2822(3) 0.4308(2) 0.35323(16)
H6 H -0.2794 0.4535 0.3128
C12 C -0.3829(3) 0.4569(2) 0.38752(16)
C13 C -0.3867(4) 0.4225(2) 0.44778(17)
H7 H -0.4536 0.4404 0.4710
C14 C -0.2913(4) 0.3616(3) 0.47336(18)
H8 H -0.2946 0.3381 0.5135
C15 C -0.1910(3) 0.3359(2) 0.43902(17)
H9 H -0.1270 0.2949 0.4561
C16 C -0.4821(4) 0.5237(3) 0.35891(19)
O16 O -0.5481(2) 0.56754(17) 0.39981(12)
H10 H -0.6011 0.6032 0.3813
O17 O -0.5027(3) 0.5355(2) 0.30320(14)
C17 C 0.1940(3) 0.4334(2) 0.40499(15)
C18 C 0.2444(3) 0.3689(2) 0.45641(14)
C19 C 0.3356(3) 0.2990(2) 0.44672(16)
H11 H 0.3677 0.2933 0.4081
C20 C 0.3775(3) 0.2387(2) 0.49483(16)
H12 H 0.4388 0.1926 0.4888
C21 C 0.3289(3) 0.2466(2) 0.55182(16)
H13 H 0.3574 0.2054 0.5839
C22 C 0.2387(3) 0.3147(2) 0.56202(15)
C23 C 0.1975(3) 0.3767(2) 0.51437(15)
H14 H 0.1382 0.4238 0.5213
C24 C 0.1809(3) 0.3189(2) 0.62310(16)
C25 C -0.2153(3) 0.6101(2) 0.19504(15)
C26 C -0.2701(3) 0.5179(2) 0.17211(15)
C27 C -0.3973(3) 0.5153(2) 0.14562(18)
H15 H -0.4458 0.5706 0.1421
C28 C -0.4527(4) 0.4311(2) 0.1243(2)
H16 H -0.5378 0.4298 0.1062
C29 C -0.3811(3) 0.3491(2) 0.13008(19)
H17 H -0.4185 0.2926 0.1157
C30 C -0.2544(3) 0.3498(2) 0.15692(15)
C31 C -0.1983(3) 0.4352(2) 0.17726(14)
H18 H -0.1124 0.4367 0.1943
C32 C -0.1815(3) 0.2589(2) 0.16636(14)
H19 H 0.429(4) 0.312(3) 0.251(3)
H20 H 0.409(4) 0.4090(17) 0.264(2)
La1C La 0.142414(17) 0.195317(12) 0.761304(8)
La1A La -0.142414(17) 0.804683(12) 0.238696(8)
La2A La -0.065228(18) 0.067115(12) 0.189343(8)
La2B La -0.065228(18) 0.432885(12) 0.689343(8)
O5A O 0.0694(2) 0.75729(15) 0.30421(10)
O6C O 0.2110(2) 0.24441(17) 0.16334(11)
O8A O 0.1048(2) 0.11419(15) 0.27346(10)
O9A O 0.2816(2) 0.18320(15) 0.31617(12)
O12A O 0.2351(2) 0.68380(15) 0.35510(11)
O13B O -0.1049(2) 0.61468(17) 0.36879(11)
O18 O 0.5545(4) 0.2171(3) 0.2636(2)
H21 H 0.6319(18) 0.198(3) 0.269(2)
H22 H 0.526(5) 0.171(3) 0.242(2)
loop_
_geom_bond_atom_site_label_1
_geom_bond_atom_site_label_2
_geom_bond_site_symmetry_1
_geom_bond_site_symmetry_2
La1 O1 1_555 1_555
La2 O2 1_555 1_555
O1 C9 1_555 1_555
O2 La1 1_555 1_555
O3 La1 1_555 1_555
O4 La1 1_555 1_555
O5 La1 1_555 1_555
O6 C24 1_555 1_555
O7 La1 1_555 1_555
O8 La2 1_555 1_555
O9 C25 1_555 1_555
O10 La2 1_555 1_555
O11 La2 1_555 1_555
O12 C32 1_555 1_555
O13 C24 1_555 1_555
C1 O4 1_555 1_555
C2 C1 1_555 1_555
C3 C2 1_555 1_555
H1 C3 1_555 1_555
C4 C3 1_555 1_555
C5 C4 1_555 1_555
H2 C5 1_555 1_555
C6 C5 1_555 1_555
H3 C6 1_555 1_555
C7 C2 1_555 1_555
H4 C7 1_555 1_555
C8 C4 1_555 1_555
O14 C8 1_555 1_555
O15 C8 1_555 1_555
H5 O15 1_555 1_555
C9 O2 1_555 1_555
C10 C9 1_555 1_555
C11 C10 1_555 1_555
H6 C11 1_555 1_555
C12 C11 1_555 1_555
C13 C12 1_555 1_555
H7 C13 1_555 1_555
C14 C13 1_555 1_555
H8 C14 1_555 1_555
C15 C10 1_555 1_555
H9 C15 1_555 1_555
C16 C12 1_555 1_555
O16 C16 1_555 1_555
H10 O16 1_555 1_555
O17 C16 1_555 1_555
C17 O3 1_555 1_555
C18 C17 1_555 1_555
C19 C18 1_555 1_555
H11 C19 1_555 1_555
C20 C19 1_555 1_555
H12 C20 1_555 1_555
C21 C20 1_555 1_555
H13 C21 1_555 1_555
C22 C21 1_555 1_555
C23 C18 1_555 1_555
H14 C23 1_555 1_555
C24 C22 1_555 1_555
C25 O8 1_555 1_555
C26 C25 1_555 1_555
C27 C26 1_555 1_555
H15 C27 1_555 1_555
C28 C27 1_555 1_555
H16 C28 1_555 1_555
C29 C28 1_555 1_555
H17 C29 1_555 1_555
C30 C29 1_555 1_555
C31 C26 1_555 1_555
H18 C31 1_555 1_555
C32 O5 1_555 1_555
O18 H21 1_555 1_555
H19 O7 1_555 1_555
H20 O7 1_555 1_555
H22 O18 1_555 1_555
La1C O6 1_555 1_555
La1A O8 1_555 1_555
La2A O5 1_555 1_555
La2B O13 1_555 1_555
O5A La2 1_555 1_555
O6C La1 1_555 1_555
O8A La1 1_555 1_555
O9A La1 1_555 1_555
O12A La2 1_555 1_555
O13B La2 1_555 1_555
La2 O3 1_555 1_555
La2 O4 1_555 1_555
O9 La1A 1_555 1_555
O10 C17 1_555 1_555
O11 C1 1_555 1_555
O12 La2A 1_555 1_555
C6 C7 1_555 1_555
C14 C15 1_555 1_555
C22 C23 1_555 1_555
C30 C31 1_555 1_555
C30 C32 1_555 1_555
La1A O5A 1_555 1_555
La2A O8A 1_555 1_555

#END
