
#######################################################################
#
#                 Cambridge Crystallographic Data Centre
#                                CCDC 
#
#######################################################################
#
# If this CIF has been generated from an entry in the Cambridge 
# Structural Database, then it will include bibliographic, chemical, 
# crystal, experimental, refinement or atomic coordinate data resulting 
# from the CCDC's data processing and validation procedures.
#
#######################################################################

data_DIBZEV
_symmetry_cell_setting           monoclinic
_symmetry_space_group_name_H-M   'C 2/c'
_symmetry_Int_Tables_number      15
_space_group_name_Hall           '-C 2yn'
loop_
_symmetry_equiv_pos_site_id
_symmetry_equiv_pos_as_xyz
1 x,y,z
2 -x,y,1/2-z
3 1/2+x,1/2+y,z
4 1/2-x,1/2+y,1/2-z
5 -x,-y,-z
6 x,-y,1/2+z
7 1/2-x,1/2-y,-z
8 1/2+x,1/2-y,1/2+z
_cell_length_a                   14.9064(5)
_cell_length_b                   12.0623(4)
_cell_length_c                   8.1118(3)
_cell_angle_alpha                90
_cell_angle_beta                 108.706(4)
_cell_angle_gamma                90
_cell_volume                     1381.5
loop_
_atom_site_label
_atom_site_type_symbol
_atom_site_fract_x
_atom_site_fract_y
_atom_site_fract_z
Sr1 Sr 0.0000 0.00203(3) 0.2500
C1 C 0.2392(2) 0.0858(3) 0.1416(4)
H1 H 0.2350 0.0285 0.2263
H2 H 0.2422 0.0474 0.0357
C2 C 0.1507(2) 0.1577(3) 0.0951(4)
C3 C 0.3342(2) 0.1997(3) 0.3921(4)
H3 H 0.3814 0.1571 0.4842
H4 H 0.2722 0.1922 0.4113
C4 C 0.3628(2) 0.3218(3) 0.4066(4)
C5 C 0.4126(2) 0.0849(3) 0.2204(4)
H5 H 0.3994 0.0452 0.1083
H6 H 0.4251 0.0288 0.3141
C6 C 0.5000 0.1571(4) 0.2500
H7 H 0.509(2) 0.202(3) 0.355(4)
N1 N 0.32736(19) 0.1516(2) 0.2176(3)
H8 H 0.323(2) 0.204(3) 0.145(4)
O1 O 0.07303(15) 0.10653(19) 0.0504(3)
O2 O 0.16176(17) 0.26026(19) 0.1018(3)
O3 O 0.37151(16) 0.36546(19) 0.5511(3)
O4 O 0.37383(15) 0.36655(18) 0.2754(3)
C1A C 0.7608(2) 0.0858(3) 0.3584(4)
H1A H 0.7650 0.0285 0.2737
H2A H 0.7578 0.0474 0.4643
C2A C 0.8493(2) 0.1577(3) 0.4049(4)
C3A C 0.6658(2) 0.1997(3) 0.1079(4)
H3A H 0.6186 0.1571 0.0158
H4A H 0.7278 0.1922 0.0887
C4A C 0.6372(2) 0.3218(3) 0.0934(4)
C5A C 0.5874(2) 0.0849(3) 0.2796(4)
H5A H 0.6006 0.0452 0.3917
H6A H 0.5749 0.0288 0.1859
H7A H 0.491(2) 0.202(3) 0.145(4)
N1A N 0.67264(19) 0.1516(2) 0.2824(3)
H8A H 0.677(2) 0.204(3) 0.355(4)
O1A O 0.92697(15) 0.10653(19) 0.4496(3)
O2A O 0.83824(17) 0.26026(19) 0.3982(3)
O3A O 0.62849(16) 0.36546(19) -0.0511(3)
O4A O 0.62617(15) 0.36655(18) 0.2246(3)
Sr1_2 Sr 1.0000 0.00203(3) 0.2500
Sr1B Sr 0.5000 0.50203(3) 0.2500
Sr1D Sr 0.0000 -0.00203(3) -0.2500
Sr1D_2 Sr 1.0000 -0.00203(3) 0.7500
Sr1F Sr 0.5000 0.49797(3) -0.2500
Sr1F_2 Sr 0.5000 0.49797(3) 0.7500
O1A_2 O -0.07303(15) 0.10653(19) 0.4496(3)
O1D O -0.07303(15) -0.10653(19) -0.0504(3)
O1E O 0.07303(15) -0.10653(19) 0.5504(3)
O3F O 0.12849(16) 0.13454(19) 0.4489(3)
O3G O -0.12849(16) 0.13454(19) 0.0511(3)
O4B O -0.12617(15) -0.13345(18) 0.2754(3)
O4C O 0.12617(15) -0.13345(18) 0.2246(3)
O5 O 0.5000 0.1575(4) 0.7500
H9 H 0.547(3) 0.175(4) 0.699(7)
H9A H 0.453(3) 0.175(4) 0.801(7)
loop_
_geom_bond_atom_site_label_1
_geom_bond_atom_site_label_2
_geom_bond_site_symmetry_1
_geom_bond_site_symmetry_2
Sr1 O1 1_555 1_555
C1 H1 1_555 1_555
H2 C1 1_555 1_555
C2 C1 1_555 1_555
C3 H3 1_555 1_555
H4 C3 1_555 1_555
C4 C3 1_555 1_555
C5 H5 1_555 1_555
H6 C5 1_555 1_555
C6 C5 1_555 1_555
H7 C6 1_555 1_555
N1 C1 1_555 1_555
H8 N1 1_555 1_555
O1 C2 1_555 1_555
O2 C2 1_555 1_555
O3 C4 1_555 1_555
O4 C4 1_555 1_555
O5 H9 1_555 1_555
C1A H1A 1_555 1_555
H2A C1A 1_555 1_555
C2A C1A 1_555 1_555
C3A H3A 1_555 1_555
H4A C3A 1_555 1_555
C4A C3A 1_555 1_555
C5A C6 1_555 1_555
H5A C5A 1_555 1_555
H6A C5A 1_555 1_555
H7A C6 1_555 1_555
N1A C1A 1_555 1_555
H8A N1A 1_555 1_555
O1A C2A 1_555 1_555
O2A C2A 1_555 1_555
O3A C4A 1_555 1_555
O4A C4A 1_555 1_555
Sr1_2 O1A 1_555 1_555
Sr1B O4 1_555 1_555
Sr1D O1 1_555 1_555
Sr1D_2 O1A 1_555 1_555
Sr1F O3A 1_555 1_555
Sr1F_2 O3 1_555 1_555
O1A_2 Sr1 1_555 1_555
O1D Sr1 1_555 1_555
O1E Sr1 1_555 1_555
O3F Sr1 1_555 1_555
O3G Sr1 1_555 1_555
O4B Sr1 1_555 1_555
O4C Sr1 1_555 1_555
H9A O5 1_555 1_555
C3 N1 1_555 1_555
C5 N1 1_555 1_555
C3A N1A 1_555 1_555
C5A N1A 1_555 1_555
O4A Sr1B 1_555 1_555
Sr1D O1D 1_555 1_555

#END
