
#######################################################################
#
#                 Cambridge Crystallographic Data Centre
#                                CCDC 
#
#######################################################################
#
# If this CIF has been generated from an entry in the Cambridge 
# Structural Database, then it will include bibliographic, chemical, 
# crystal, experimental, refinement or atomic coordinate data resulting 
# from the CCDC's data processing and validation procedures.
#
#######################################################################

data_DIBZEU
_symmetry_cell_setting           monoclinic
_symmetry_space_group_name_H-M   'P 21/c'
_symmetry_Int_Tables_number      14
_space_group_name_Hall           '-P 2ybc'
loop_
_symmetry_equiv_pos_site_id
_symmetry_equiv_pos_as_xyz
1 x,y,z
2 -x,1/2+y,1/2-z
3 -x,-y,-z
4 x,1/2-y,1/2+z
_cell_length_a                   10.333(2)
_cell_length_b                   12.302(3)
_cell_length_c                   10.110(2)
_cell_angle_alpha                90
_cell_angle_beta                 93.79(3)
_cell_angle_gamma                90
_cell_volume                     1282.34
loop_
_atom_site_label
_atom_site_type_symbol
_atom_site_fract_x
_atom_site_fract_y
_atom_site_fract_z
C1 C -0.1246(3) 0.1300(3) 0.1204(3)
C2 C -0.2427(6) 0.1329(4) 0.1967(7)
H1 H -0.2487 0.2022 0.2394
H2 H -0.2376 0.0765 0.2625
H3 H -0.3181 0.1217 0.1376
C3 C 0.2884(3) 0.0207(3) 0.1796(3)
C4 C 0.3715(3) -0.0474(3) 0.2729(3)
C5 C 0.3319(4) -0.0744(4) 0.3973(4)
H4 H 0.2520 -0.0505 0.4231
C6 C 0.7011(3) -0.1850(2) 0.2802(3)
C7 C 0.5706(3) -0.1472(3) 0.3202(3)
C8 C 0.5294(4) -0.1740(4) 0.4450(4)
H5 H 0.5814 -0.2169 0.5025
C9 C 0.4109(4) -0.1365(4) 0.4830(4)
H6 H 0.3844 -0.1534 0.5667
C10 C 0.4911(3) -0.0843(3) 0.2340(3)
H7 H 0.5176 -0.0669 0.1504
Dy1 Dy 0.126260(13) 0.140960(11) -0.005290(13)
H8 H -0.033(4) 0.176(3) -0.261(3)
H9 H 0.090(6) 0.379(3) -0.029(4)
H10 H -0.066(4) 0.077(3) -0.200(5)
H11 H 0.120(5) 0.360(4) -0.147(4)
O1 O -0.0957(2) 0.04481(19) 0.0610(2)
O2 O -0.0518(2) 0.2113(2) 0.1165(2)
O3 O 0.3299(2) 0.0538(2) 0.0742(2)
O4 O 0.1718(2) 0.04381(18) 0.2089(2)
O5 O 0.7291(2) -0.1647(2) 0.1645(2)
O6 O -0.0165(3) 0.1328(2) -0.1965(3)
O7 O 0.0801(3) 0.3287(2) -0.0867(3)
O8 O 0.7748(2) -0.2318(2) 0.3650(2)
Dy1B Dy -0.126260(13) -0.140960(11) 0.005290(13)
Dy1B_2 Dy 0.873740(13) -0.140960(11) 0.005290(13)
Dy1A Dy 0.873740(13) -0.359040(11) 0.505290(13)
O1B O 0.0957(2) -0.04481(19) -0.0610(2)
O5B O 0.2709(2) 0.1647(2) -0.1645(2)
O8A O 0.2252(2) 0.2682(2) 0.1350(2)
O9 O -1.0961(12) 0.5054(10) -0.0926(12)
loop_
_geom_bond_atom_site_label_1
_geom_bond_atom_site_label_2
_geom_bond_site_symmetry_1
_geom_bond_site_symmetry_2
C1 C2 1_555 1_555
C2 H1 1_555 1_555
H2 C2 1_555 1_555
H3 C2 1_555 1_555
C3 C4 1_555 1_555
C4 C5 1_555 1_555
C5 H4 1_555 1_555
C6 C7 1_555 1_555
C7 C8 1_555 1_555
C8 H5 1_555 1_555
C9 C5 1_555 1_555
H6 C9 1_555 1_555
C10 C4 1_555 1_555
H7 C10 1_555 1_555
Dy1 O1 1_555 1_555
H8 O6 1_555 1_555
H9 O7 1_555 1_555
H10 O6 1_555 1_555
H11 O7 1_555 1_555
O1 C1 1_555 1_555
O2 C1 1_555 1_555
O3 C3 1_555 1_555
O4 C3 1_555 1_555
O5 C6 1_555 1_555
O6 Dy1 1_555 1_555
O7 Dy1 1_555 1_555
O8 C6 1_555 1_555
Dy1B O1 1_555 1_555
Dy1B_2 O5 1_555 1_555
Dy1A O8 1_555 1_555
O1B Dy1 1_555 1_555
O5B Dy1 1_555 1_555
O8A Dy1 1_555 1_555
C7 C10 1_555 1_555
C8 C9 1_555 1_555
Dy1 O2 1_555 1_555
Dy1 O3 1_555 1_555
Dy1 O4 1_555 1_555
Dy1B O1B 1_555 1_555

#END
