
#######################################################################
#
#                 Cambridge Crystallographic Data Centre
#                                CCDC 
#
#######################################################################
#
# If this CIF has been generated from an entry in the Cambridge 
# Structural Database, then it will include bibliographic, chemical, 
# crystal, experimental, refinement or atomic coordinate data resulting 
# from the CCDC's data processing and validation procedures.
#
#######################################################################

data_DIBZIY
_symmetry_cell_setting           monoclinic
_symmetry_space_group_name_H-M   'P 21/c'
_symmetry_Int_Tables_number      14
_space_group_name_Hall           '-P 2ybc'
loop_
_symmetry_equiv_pos_site_id
_symmetry_equiv_pos_as_xyz
1 x,y,z
2 -x,1/2+y,1/2-z
3 -x,-y,-z
4 x,1/2-y,1/2+z
_cell_length_a                   10.3954(15)
_cell_length_b                   14.217(2)
_cell_length_c                   21.545(3)
_cell_angle_alpha                90
_cell_angle_beta                 95.604(3)
_cell_angle_gamma                90
_cell_volume                     3168.95
loop_
_atom_site_label
_atom_site_type_symbol
_atom_site_fract_x
_atom_site_fract_y
_atom_site_fract_z
La1 La 0.14213(3) 0.19512(2) -0.238740(17)
La2 La -0.06535(3) 0.43266(2) -0.310750(17)
C1 C 0.2145(6) 0.3901(4) -0.1957(3)
C2 C 0.2710(5) 0.4820(4) -0.1727(3)
C3 C 0.3974(6) 0.4845(4) -0.1462(3)
H1 H 0.4461 0.4295 -0.1430
C4 C 0.4519(6) 0.5686(5) -0.1245(4)
H2 H 0.5364 0.5698 -0.1058
C5 C 0.3800(6) 0.6512(4) -0.1306(3)
H3 H 0.4173 0.7077 -0.1165
C6 C 0.2547(6) 0.6501(4) -0.1572(3)
C7 C 0.1990(5) 0.5648(4) -0.1773(3)
H4 H 0.1131 0.5631 -0.1939
C8 C 0.1819(6) 0.7412(4) -0.1663(3)
C9 C -0.0724(6) 0.1499(4) -0.1561(3)
C10 C -0.1850(6) 0.1292(4) -0.1201(3)
C11 C -0.1918(6) 0.1643(5) -0.0603(3)
H5 H -0.1287 0.2053 -0.0428
C12 C -0.2927(7) 0.1378(5) -0.0273(4)
H6 H -0.2972 0.1616 0.0126
C13 C -0.3867(6) 0.0774(5) -0.0519(3)
H7 H -0.4527 0.0589 -0.0283
C14 C -0.3829(6) 0.0441(4) -0.1117(3)
C15 C -0.2821(6) 0.0694(5) -0.1461(3)
H8 H -0.2793 0.0464 -0.1863
C16 C -0.4825(6) -0.0233(5) -0.1409(4)
C17 C 0.1817(6) 0.3182(4) -0.3769(3)
C18 C 0.2393(5) 0.3145(4) -0.4386(3)
C19 C 0.3295(5) 0.2465(4) -0.4488(3)
H9 H 0.3582 0.2055 -0.4168
C20 C 0.3775(6) 0.2390(5) -0.5060(3)
H10 H 0.4383 0.1929 -0.5124
C21 C 0.3359(5) 0.2993(4) -0.5537(3)
H11 H 0.3682 0.2937 -0.5923
C22 C 0.2455(5) 0.3688(4) -0.5442(3)
C23 C 0.1970(5) 0.3765(4) -0.4858(3)
H12 H 0.1370 0.4229 -0.4789
C24 C 0.1949(5) 0.4334(4) -0.5954(3)
C25 C 0.1760(5) -0.0347(4) -0.3101(3)
C26 C 0.1941(6) -0.0266(4) -0.3771(3)
C27 C 0.2660(6) -0.0941(4) -0.4061(3)
H13 H 0.3041 -0.1440 -0.3833
C28 C 0.2799(6) -0.0857(5) -0.4691(3)
H14 H 0.3302 -0.1289 -0.4884
C29 C 0.2196(6) -0.0139(4) -0.5031(3)
H15 H 0.2292 -0.0093 -0.5454
C30 C 0.1453(6) 0.0514(4) -0.4760(3)
C31 C 0.1341(6) 0.0459(4) -0.4126(3)
H16 H 0.0862 0.0909 -0.3935
C32 C 0.0728(6) 0.1299(5) -0.5112(3)
H17 H 0.428(7) 0.188(4) -0.243(5)
H19 H 0.421(7) 0.094(3) -0.245(4)
O1 O 0.1040(4) 0.3855(3) -0.22681(19)
O2 O 0.2815(4) 0.3164(3) -0.1840(2)
O3 O 0.0690(4) 0.7423(3) -0.19611(19)
O4 O 0.2348(4) 0.8161(3) -0.1453(2)
O5 O -0.0048(4) 0.2239(3) -0.1460(2)
O6 O -0.0445(4) 0.0912(3) -0.19719(19)
O7 O -0.5036(5) -0.0350(4) -0.1966(3)
O8 O -0.5487(4) -0.0674(3) -0.1000(2)
H21 H -0.6014 -0.1030 -0.1185
O9 O 0.1056(4) 0.3848(3) -0.3685(2)
O10 O 0.2113(4) 0.2558(3) -0.3366(2)
O11 O 0.1247(4) 0.5016(3) -0.5825(2)
O12 O 0.2214(4) 0.4185(3) -0.65134(19)
O13 O 0.1227(4) 0.0346(3) -0.28367(19)
O14 O 0.2060(4) -0.1072(3) -0.2799(2)
O15 O 0.0066(4) 0.1852(3) -0.4869(2)
O16 O 0.0908(4) 0.1293(3) -0.5717(2)
H22 H 0.0501 0.1727 -0.5893
O17 O 0.3744(5) 0.1430(4) -0.2488(3)
La1A La -0.14213(3) 0.69512(2) -0.261260(17)
La1C La 0.14213(3) 0.30488(2) -0.738740(17)
La2A La 0.06535(3) 0.93266(2) -0.189250(17)
La2B La 0.06535(3) 0.56734(2) -0.689250(17)
La2A_2 La 0.06535(3) -0.06734(2) -0.189250(17)
O3A O -0.0690(4) 0.2423(3) -0.30389(19)
O4A O -0.2348(4) 0.3161(3) -0.3547(2)
O6A O 0.0445(4) 0.5912(3) -0.30281(19)
O11B O -0.1247(4) 0.4984(3) -0.4175(2)
O12B O -0.2214(4) 0.5815(3) -0.34866(19)
O12C O 0.2214(4) 0.0815(3) -0.15134(19)
O13A O -0.1227(4) 0.5346(3) -0.21633(19)
O14A O -0.2060(4) 0.3928(3) -0.2201(2)
H18 H 0.3655(14) 0.720(5) -0.769(3)
H20 H 0.469(6) 0.663(2) -0.747(3)
O18 O 0.4468(6) 0.7161(5) -0.7624(4)
loop_
_geom_bond_atom_site_label_1
_geom_bond_atom_site_label_2
_geom_bond_site_symmetry_1
_geom_bond_site_symmetry_2
La1 O1 1_555 1_555
La2 O1 1_555 1_555
C1 C2 1_555 1_555
C2 C3 1_555 1_555
C3 H1 1_555 1_555
C4 C3 1_555 1_555
H2 C4 1_555 1_555
C5 C4 1_555 1_555
H3 C5 1_555 1_555
C6 C5 1_555 1_555
C7 C2 1_555 1_555
H4 C7 1_555 1_555
C8 C6 1_555 1_555
C9 C10 1_555 1_555
C10 C11 1_555 1_555
C11 H5 1_555 1_555
C12 C11 1_555 1_555
H6 C12 1_555 1_555
C13 C12 1_555 1_555
H7 C13 1_555 1_555
C14 C13 1_555 1_555
C15 C10 1_555 1_555
H8 C15 1_555 1_555
C16 C14 1_555 1_555
C17 C18 1_555 1_555
C18 C19 1_555 1_555
C19 H9 1_555 1_555
C20 C19 1_555 1_555
H10 C20 1_555 1_555
C21 C20 1_555 1_555
H11 C21 1_555 1_555
C22 C21 1_555 1_555
C23 C18 1_555 1_555
H12 C23 1_555 1_555
C24 C22 1_555 1_555
C25 C26 1_555 1_555
C26 C27 1_555 1_555
C27 H13 1_555 1_555
C28 C27 1_555 1_555
H14 C28 1_555 1_555
C29 C28 1_555 1_555
H15 C29 1_555 1_555
C30 C29 1_555 1_555
C31 C26 1_555 1_555
H16 C31 1_555 1_555
C32 C30 1_555 1_555
H17 O17 1_555 1_555
H18 O18 1_555 1_555
H19 O17 1_555 1_555
H20 O18 1_555 1_555
O1 C1 1_555 1_555
O2 La1 1_555 1_555
O3 C8 1_555 1_555
O4 C8 1_555 1_555
O5 La1 1_555 1_555
O6 La1 1_555 1_555
O7 C16 1_555 1_555
O8 C16 1_555 1_555
H21 O8 1_555 1_555
O9 La2 1_555 1_555
O10 La1 1_555 1_555
O11 C24 1_555 1_555
O12 C24 1_555 1_555
O13 La1 1_555 1_555
O14 C25 1_555 1_555
O15 C32 1_555 1_555
O16 C32 1_555 1_555
H22 O16 1_555 1_555
O17 La1 1_555 1_555
La1A O3 1_555 1_555
La1C O12 1_555 1_555
La2A O3 1_555 1_555
La2B O11 1_555 1_555
La2A_2 O6 1_555 1_555
O3A La1 1_555 1_555
O4A La2 1_555 1_555
O6A La2 1_555 1_555
O11B La2 1_555 1_555
O12B La2 1_555 1_555
O12C La1 1_555 1_555
O13A La2 1_555 1_555
O14A La2 1_555 1_555
La2 O3A 1_555 1_555
C1 O2 1_555 1_555
C6 C7 1_555 1_555
C9 O5 1_555 1_555
C9 O6 1_555 1_555
C14 C15 1_555 1_555
C17 O9 1_555 1_555
C17 O10 1_555 1_555
C22 C23 1_555 1_555
C25 O13 1_555 1_555
C30 C31 1_555 1_555
O4 La2A 1_555 1_555
O12 La2B 1_555 1_555
O13 La2A_2 1_555 1_555
O14 La2A_2 1_555 1_555
La1A O6A 1_555 1_555
La1A O12B 1_555 1_555
La1A O13A 1_555 1_555
La2A_2 O12C 1_555 1_555

#END
