
#######################################################################
#
#                 Cambridge Crystallographic Data Centre
#                                CCDC 
#
#######################################################################
#
# If this CIF has been generated from an entry in the Cambridge 
# Structural Database, then it will include bibliographic, chemical, 
# crystal, experimental, refinement or atomic coordinate data resulting 
# from the CCDC's data processing and validation procedures.
#
#######################################################################

data_DICBEX
_symmetry_cell_setting           triclinic
_symmetry_space_group_name_H-M   'P -1'
_symmetry_Int_Tables_number      2
_space_group_name_Hall           '-P 1'
loop_
_symmetry_equiv_pos_site_id
_symmetry_equiv_pos_as_xyz
1 x,y,z
2 -x,-y,-z
_cell_length_a                   7.744(2)
_cell_length_b                   9.460(3)
_cell_length_c                   11.773(3)
_cell_angle_alpha                87.109(3)
_cell_angle_beta                 83.772(3)
_cell_angle_gamma                68.461(3)
_cell_volume                     797.454
loop_
_atom_site_label
_atom_site_type_symbol
_atom_site_fract_x
_atom_site_fract_y
_atom_site_fract_z
Cu1 Cu 0.0000 1.0000 0.5000
F1 F 0.0559(3) 0.3004(3) 0.80801(18)
F2 F 0.2158(3) -0.0040(2) 1.13243(19)
N1 N 0.1541(3) 0.7135(3) 0.7788(2)
N2 N 0.2435(4) 0.8075(3) 0.8001(2)
N3 N 0.0939(3) 0.8814(3) 0.6423(2)
N4 N 0.4866(3) 0.2579(3) 0.6584(2)
N5 N 0.4607(4) 0.1237(3) 0.6711(3)
N6 N 0.7413(3) 0.0911(3) 0.5812(2)
O1 O 0.4992(3) 0.4513(3) 0.8439(2)
H1 H 0.5261 0.5073 0.7955
O2 O 0.0664(3) 1.2205(3) 0.5580(2)
H2 H -0.0180 1.3038 0.5803
H3 H 0.1524 1.2492 0.5268
C1 C 0.2025(5) 0.9065(4) 0.7153(3)
H4 H 0.2446 0.9871 0.7064
C2 C 0.0657(4) 0.7594(3) 0.6861(3)
H5 H -0.0059 0.7127 0.6562
C3 C 0.6176(4) 0.0276(4) 0.6236(3)
H6 H 0.6419 -0.0759 0.6194
C4 C 0.6528(4) 0.2361(3) 0.6046(3)
H7 H 0.7005 0.3122 0.5859
C5 C 0.1618(4) 0.5823(3) 0.8528(3)
H8 H 0.0485 0.5620 0.8494
H9 H 0.1654 0.6079 0.9310
C6 C 0.3314(4) 0.4358(3) 0.8209(3)
C7 C 0.3407(4) 0.4019(3) 0.6943(3)
H10 H 0.2211 0.4002 0.6785
H11 H 0.3619 0.4836 0.6491
C8 C 0.3035(4) 0.3135(3) 0.9031(3)
C9 C 0.1685(4) 0.2526(4) 0.8939(3)
C10 C 0.1372(5) 0.1445(4) 0.9679(3)
H12 H 0.0486 0.1029 0.9571
C11 C 0.2446(5) 0.1016(4) 1.0587(3)
C12 C 0.3753(5) 0.1608(4) 1.0752(3)
H13 H 0.4440 0.1310 1.1381
C13 C 0.4050(5) 0.2662(4) 0.9970(3)
H14 H 0.4952 0.3061 1.0078
Cu1_2 Cu 1.0000 0.0000 0.5000
Cu1_3 Cu -1.0000 2.0000 0.5000
F1A F -0.0559(3) 1.6996(3) 0.19199(18)
F2A F -0.2158(3) 2.0040(2) -0.13243(19)
N1A N -0.1541(3) 1.2865(3) 0.2212(2)
N2A N -0.2435(4) 1.1925(3) 0.1999(2)
N3A N -0.0939(3) 1.1186(3) 0.3577(2)
N4A N -0.4866(3) 1.7421(3) 0.3416(2)
N5A N -0.4607(4) 1.8763(3) 0.3289(3)
N6A N -0.7413(3) 1.9089(3) 0.4188(2)
N6_2 N -0.2587(3) 1.0911(3) 0.5812(2)
N6A_2 N 0.2587(3) 0.9089(3) 0.4188(2)
O1A O -0.4992(3) 1.5487(3) 0.1561(2)
H1A H -0.5261 1.4927 0.2045
O2A O -0.0664(3) 0.7795(3) 0.4420(2)
H2A H 0.0180 0.6962 0.4197
H3A H -0.1524 0.7508 0.4732
C1A C -0.2025(5) 1.0935(4) 0.2847(3)
H4A H -0.2446 1.0129 0.2936
C2A C -0.0657(4) 1.2406(3) 0.3139(3)
H5A H 0.0059 1.2873 0.3438
C3A C -0.6176(4) 1.9724(4) 0.3764(3)
H6A H -0.6419 2.0759 0.3806
C4A C -0.6528(4) 1.7639(3) 0.3954(3)
H7A H -0.7005 1.6878 0.4141
C5A C -0.1618(4) 1.4177(3) 0.1472(3)
H8A H -0.0485 1.4380 0.1506
H9A H -0.1654 1.3921 0.0690
C6A C -0.3314(4) 1.5642(3) 0.1791(3)
C7A C -0.3407(4) 1.5981(3) 0.3057(3)
H10A H -0.2211 1.5998 0.3215
H11A H -0.3619 1.5164 0.3509
C8A C -0.3035(4) 1.6865(3) 0.0969(3)
C9A C -0.1685(4) 1.7474(4) 0.1061(3)
C10A C -0.1372(5) 1.8555(4) 0.0321(3)
H12A H -0.0486 1.8971 0.0429
C11A C -0.2446(5) 1.8984(4) -0.0587(3)
C12A C -0.3753(5) 1.8392(4) -0.0752(3)
H13A H -0.4440 1.8690 -0.1381
C13A C -0.4050(5) 1.7338(4) 0.0030(3)
H14A H -0.4952 1.6939 -0.0078
Br1 Br 0.71466(6) 0.59467(4) 0.62042(4)
loop_
_geom_bond_atom_site_label_1
_geom_bond_atom_site_label_2
_geom_bond_site_symmetry_1
_geom_bond_site_symmetry_2
Cu1 N3 1_555 1_555
F1 C9 1_555 1_555
F2 C11 1_555 1_555
N1 N2 1_555 1_555
N2 C1 1_555 1_555
N3 C1 1_555 1_555
N4 N5 1_555 1_555
N5 C3 1_555 1_555
N6 C3 1_555 1_555
O1 H1 1_555 1_555
O2 Cu1 1_555 1_555
H2 O2 1_555 1_555
H3 O2 1_555 1_555
C1 H4 1_555 1_555
C2 N1 1_555 1_555
H5 C2 1_555 1_555
C3 H6 1_555 1_555
C4 N4 1_555 1_555
H7 C4 1_555 1_555
C5 N1 1_555 1_555
H8 C5 1_555 1_555
H9 C5 1_555 1_555
C6 O1 1_555 1_555
C7 N4 1_555 1_555
H10 C7 1_555 1_555
H11 C7 1_555 1_555
C8 C6 1_555 1_555
C9 C8 1_555 1_555
C10 C9 1_555 1_555
H12 C10 1_555 1_555
C11 C10 1_555 1_555
C12 C11 1_555 1_555
H13 C12 1_555 1_555
C13 C8 1_555 1_555
H14 C13 1_555 1_555
Cu1_2 N6 1_555 1_555
Cu1_3 N6A 1_555 1_555
F1A C9A 1_555 1_555
F2A C11A 1_555 1_555
N1A N2A 1_555 1_555
N2A C1A 1_555 1_555
N3A Cu1 1_555 1_555
N4A N5A 1_555 1_555
N5A C3A 1_555 1_555
N6A C3A 1_555 1_555
N6_2 Cu1 1_555 1_555
N6A_2 Cu1 1_555 1_555
O1A H1A 1_555 1_555
O2A Cu1 1_555 1_555
H2A O2A 1_555 1_555
H3A O2A 1_555 1_555
C1A N3A 1_555 1_555
H4A C1A 1_555 1_555
C2A N1A 1_555 1_555
H5A C2A 1_555 1_555
C3A H6A 1_555 1_555
C4A N4A 1_555 1_555
H7A C4A 1_555 1_555
C5A N1A 1_555 1_555
H8A C5A 1_555 1_555
H9A C5A 1_555 1_555
C6A O1A 1_555 1_555
C7A N4A 1_555 1_555
H10A C7A 1_555 1_555
H11A C7A 1_555 1_555
C8A C6A 1_555 1_555
C9A C8A 1_555 1_555
C10A C9A 1_555 1_555
H12A C10A 1_555 1_555
C11A C10A 1_555 1_555
C12A C11A 1_555 1_555
H13A C12A 1_555 1_555
C13A C8A 1_555 1_555
H14A C13A 1_555 1_555
N3 C2 1_555 1_555
N6 C4 1_555 1_555
C5 C6 1_555 1_555
C6 C7 1_555 1_555
C12 C13 1_555 1_555
N3A C2A 1_555 1_555
N6A C4A 1_555 1_555
C5A C6A 1_555 1_555
C6A C7A 1_555 1_555
C12A C13A 1_555 1_555

#END
