
#######################################################################
#
#                 Cambridge Crystallographic Data Centre
#                                CCDC 
#
#######################################################################
#
# If this CIF has been generated from an entry in the Cambridge 
# Structural Database, then it will include bibliographic, chemical, 
# crystal, experimental, refinement or atomic coordinate data resulting 
# from the CCDC's data processing and validation procedures.
#
#######################################################################

data_DICDUQ
_symmetry_cell_setting           triclinic
_symmetry_space_group_name_H-M   'P -1'
_symmetry_Int_Tables_number      2
_space_group_name_Hall           '-P 1'
loop_
_symmetry_equiv_pos_site_id
_symmetry_equiv_pos_as_xyz
1 x,y,z
2 -x,-y,-z
_cell_length_a                   8.8608(5)
_cell_length_b                   14.2611(8)
_cell_length_c                   16.1876(9)
_cell_angle_alpha                87.3560(10)
_cell_angle_beta                 86.8250(10)
_cell_angle_gamma                75.1090(10)
_cell_volume                     1972.73
loop_
_atom_site_label
_atom_site_type_symbol
_atom_site_fract_x
_atom_site_fract_y
_atom_site_fract_z
Cu1 Cu 0.77891(5) 0.63555(3) 0.17315(2)
S1 S 1.35945(11) 0.18217(8) 0.10725(6)
O1 O 0.9272(3) 0.49804(19) 0.20005(18)
N1 N 0.9581(3) 0.6984(2) 0.18654(18)
C1 C 0.9458(4) 0.4534(3) 0.2704(3)
O2 O 1.6162(3) -0.0937(2) 0.37562(17)
H1 H 1.6633 -0.0799 0.4219
H2 H 1.5371 -0.1154 0.3888
Cu2 Cu 1.5000 0.0000 0.5000
O3 O 0.8680(4) 0.4776(2) 0.3341(2)
N2 N 1.2361(4) 0.6393(3) 0.3990(2)
H3 H 1.1488 0.6235 0.3985
C2 C 1.0825(4) 0.3620(2) 0.2713(2)
O4 O 1.4857(5) 0.1013(3) 0.1310(2)
N3 N 0.5933(3) 0.5785(2) 0.15703(17)
C3 C 1.1512(4) 0.3209(2) 0.1982(2)
H4 H 1.1147 0.3483 0.1475
O5 O 1.4137(5) 0.2547(3) 0.0592(2)
N4 N 0.3267(4) 0.6662(2) -0.0541(2)
H5 H 0.4133 0.6804 -0.0462
C4 C 1.2751(4) 0.2385(2) 0.2010(2)
O6 O 1.2381(4) 0.1545(3) 0.0675(2)
N5 N -0.0883(4) 1.0057(2) -0.25985(19)
H6 H -0.1859 1.0078 -0.2621
C5 C 1.3303(4) 0.1980(3) 0.2759(2)
H7 H 1.4139 0.1430 0.2772
O7 O 1.4138(3) 0.10741(18) 0.42366(15)
N6 N -0.3117(3) 1.0566(2) -0.48614(18)
C6 C 1.2613(4) 0.2391(3) 0.3499(2)
O8 O 1.2762(4) 0.2317(2) 0.49691(18)
C7 C 1.3215(4) 0.1904(3) 0.4312(2)
O9 O 0.8460(3) 0.6126(2) 0.04601(18)
H8 H 0.8691 0.6378 0.0000
H9 H 0.8466 0.5540 0.0379
C8 C 1.1367(4) 0.3210(2) 0.3468(2)
H10 H 1.0893 0.3486 0.3956
O10 O 0.6272(5) 0.7802(3) 0.1339(3)
H11 H 0.6216 0.8024 0.0842
H12 H 0.5830 0.8267 0.1651
C9 C 1.0467(4) 0.6774(3) 0.2527(2)
H13 H 1.0209 0.6364 0.2944
O11 O 0.7076(4) 0.6663(3) 0.2978(2)
H14 H 0.7311 0.6215 0.3349
H15 H 0.6428 0.7143 0.3197
C10 C 1.1751(4) 0.7141(3) 0.2616(2)
O12 O 1.4020(4) 0.7148(3) 0.3313(3)
C11 C 1.2795(5) 0.6891(3) 0.3342(3)
O13 O 0.1596(4) 0.5808(3) -0.0060(2)
C12 C 1.3323(6) 0.6108(4) 0.4707(3)
H16 H 1.2649 0.6078 0.5195
H17 H 1.3874 0.6601 0.4789
O14 O 0.1195(3) 1.0456(3) -0.32185(19)
C13 C 1.4496(5) 0.5141(4) 0.4618(3)
H18 H 1.5171 0.5168 0.4130
H19 H 1.3948 0.4646 0.4541
C14 C 1.2125(5) 0.7751(3) 0.1990(3)
H20 H 1.2987 0.8004 0.2027
C15 C 1.1201(5) 0.7980(3) 0.1309(3)
H21 H 1.1430 0.8391 0.0885
C16 C 0.9945(5) 0.7591(3) 0.1272(2)
H22 H 0.9319 0.7754 0.0818
C17 C 0.5077(4) 0.6067(3) 0.0905(2)
H23 H 0.5379 0.6497 0.0521
C18 C 0.3762(4) 0.5752(2) 0.0758(2)
C19 C 0.2788(4) 0.6085(3) 0.0013(2)
C20 C 0.2437(5) 0.7076(3) -0.1276(3)
H24 H 0.1719 0.6695 -0.1398
H25 H 0.3183 0.7040 -0.1743
C21 C 0.1542(5) 0.8112(3) -0.1175(2)
H26 H 0.2230 0.8473 -0.0973
H27 H 0.0697 0.8137 -0.0762
C22 C 0.0864(5) 0.8594(3) -0.1981(2)
H28 H 0.1709 0.8585 -0.2391
H29 H 0.0191 0.8229 -0.2189
C23 C -0.0060(5) 0.9630(3) -0.1859(2)
H30 H -0.0813 0.9648 -0.1398
H31 H 0.0643 1.0015 -0.1721
C24 C -0.0174(4) 1.0413(3) -0.3238(2)
C25 C -0.1071(4) 1.0719(3) -0.4003(2)
C26 C -0.2346(4) 1.0370(3) -0.4158(2)
H32 H -0.2687 0.9980 -0.3752
C27 C -0.2622(4) 1.1137(3) -0.5441(2)
H33 H -0.3147 1.1284 -0.5932
C28 C -0.1358(5) 1.1515(3) -0.5335(2)
H34 H -0.1045 1.1910 -0.5747
C29 C -0.0566(4) 1.1300(3) -0.4610(2)
H35 H 0.0293 1.1542 -0.4531
C30 C 0.3307(4) 0.5119(3) 0.1339(2)
H36 H 0.2423 0.4899 0.1267
C31 C 0.4187(5) 0.4823(3) 0.2021(2)
H37 H 0.3904 0.4397 0.2416
C32 C 0.5490(4) 0.5160(3) 0.2120(2)
H38 H 0.6081 0.4948 0.2582
N1A N 2.0419(3) 0.3016(2) 0.81346(18)
N2A N 1.7639(4) 0.3607(3) 0.6010(2)
H3A H 1.8512 0.3765 0.6015
C9A C 1.9533(4) 0.3226(3) 0.7473(2)
H13A H 1.9791 0.3636 0.7056
C10A C 1.8249(4) 0.2859(3) 0.7384(2)
O12A O 1.5980(4) 0.2852(3) 0.6687(3)
C11A C 1.7205(5) 0.3109(3) 0.6658(3)
C12A C 1.6677(6) 0.3892(4) 0.5293(3)
H16A H 1.7351 0.3922 0.4805
H17A H 1.6126 0.3399 0.5211
C13A C 1.5504(5) 0.4859(4) 0.5382(3)
H18A H 1.4829 0.4832 0.5870
H19A H 1.6052 0.5354 0.5459
C14A C 1.7875(5) 0.2249(3) 0.8010(3)
H20A H 1.7013 0.1996 0.7973
C15A C 1.8799(5) 0.2020(3) 0.8691(3)
H21A H 1.8570 0.1609 0.9115
C16A C 2.0055(5) 0.2409(3) 0.8728(2)
H22A H 2.0681 0.2246 0.9182
Cu1A Cu 0.22109(5) 0.36445(3) -0.17315(2)
S1A S -0.35945(11) 0.81783(8) -0.10725(6)
O1A O 0.0728(3) 0.50196(19) -0.20005(18)
C1A C 0.0542(4) 0.5466(3) -0.2704(3)
O3A O 0.1320(4) 0.5224(2) -0.3341(2)
C2A C -0.0825(4) 0.6380(2) -0.2713(2)
O4A O -0.4857(5) 0.8987(3) -0.1310(2)
N3A N 0.4067(3) 0.4215(2) -0.15703(17)
C3A C -0.1512(4) 0.6791(2) -0.1982(2)
H4A H -0.1147 0.6517 -0.1475
O5A O -0.4137(5) 0.7453(3) -0.0592(2)
N4A N 0.6733(4) 0.3338(2) 0.0541(2)
H5A H 0.5867 0.3196 0.0462
C4A C -0.2751(4) 0.7615(2) -0.2010(2)
O6A O -0.2381(4) 0.8455(3) -0.0675(2)
N5A N 1.0883(4) -0.0057(2) 0.25985(19)
H6A H 1.1859 -0.0078 0.2621
C5A C -0.3303(4) 0.8020(3) -0.2759(2)
H7A H -0.4139 0.8570 -0.2772
O7A O -0.4138(3) 0.89259(18) -0.42366(15)
N6A N 1.3117(3) -0.0566(2) 0.48614(18)
C6A C -0.2613(4) 0.7609(3) -0.3499(2)
O8A O -0.2762(4) 0.7683(2) -0.49691(18)
C7A C -0.3215(4) 0.8096(3) -0.4312(2)
O9A O 0.1540(3) 0.3874(2) -0.04601(18)
H8A H 0.1309 0.3622 0.0000
H9A H 0.1534 0.4460 -0.0379
C8A C -0.1367(4) 0.6790(2) -0.3468(2)
H10A H -0.0893 0.6514 -0.3956
O10A O 0.3728(5) 0.2198(3) -0.1339(3)
H11A H 0.3784 0.1976 -0.0842
H12A H 0.4170 0.1733 -0.1651
O11A O 0.2924(4) 0.3337(3) -0.2978(2)
H14A H 0.2689 0.3785 -0.3349
H15A H 0.3572 0.2857 -0.3197
O13A O 0.8404(4) 0.4192(3) 0.0060(2)
O14A O 0.8805(3) -0.0456(3) 0.32185(19)
C17A C 0.4923(4) 0.3933(3) -0.0905(2)
H23A H 0.4621 0.3503 -0.0521
C18A C 0.6238(4) 0.4248(2) -0.0758(2)
C19A C 0.7212(4) 0.3915(3) -0.0013(2)
C20A C 0.7563(5) 0.2924(3) 0.1276(3)
H24A H 0.8281 0.3305 0.1398
H25A H 0.6817 0.2960 0.1743
C21A C 0.8458(5) 0.1888(3) 0.1175(2)
H26A H 0.7770 0.1527 0.0973
H27A H 0.9303 0.1863 0.0762
C22A C 0.9136(5) 0.1406(3) 0.1981(2)
H28A H 0.8291 0.1415 0.2391
H29A H 0.9809 0.1771 0.2189
C23A C 1.0060(5) 0.0370(3) 0.1859(2)
H30A H 1.0813 0.0352 0.1398
H31A H 0.9357 -0.0015 0.1721
C24A C 1.0174(4) -0.0413(3) 0.3238(2)
C25A C 1.1071(4) -0.0719(3) 0.4003(2)
C26A C 1.2346(4) -0.0370(3) 0.4158(2)
H32A H 1.2687 0.0020 0.3752
C27A C 1.2622(4) -0.1137(3) 0.5441(2)
H33A H 1.3147 -0.1284 0.5932
C28A C 1.1358(5) -0.1515(3) 0.5335(2)
H34A H 1.1045 -0.1910 0.5747
C29A C 1.0566(4) -0.1300(3) 0.4610(2)
H35A H 0.9707 -0.1542 0.4531
C30A C 0.6693(4) 0.4881(3) -0.1339(2)
H36A H 0.7577 0.5101 -0.1267
C31A C 0.5813(5) 0.5177(3) -0.2021(2)
H37A H 0.6096 0.5603 -0.2416
C32A C 0.4510(4) 0.4840(3) -0.2120(2)
H38A H 0.3919 0.5052 -0.2582
O2A O 1.3838(3) 0.0937(2) 0.62438(17)
H1A H 1.3367 0.0799 0.5781
H2A H 1.4629 0.1154 0.6112
Cu1A_2 Cu 2.22109(5) 0.36445(3) 0.82685(2)
N1A_2 N 0.0419(3) 0.3016(2) -0.18654(18)
Cu2_2 Cu -0.5000 1.0000 -0.5000
O7A_2 O 1.5862(3) -0.10741(18) 0.57634(15)
N6_2 N 1.6883(3) 0.0566(2) 0.51386(18)
O15 O 1.4408(4) -0.0618(2) 0.2326(2)
H39 H 1.4868 -0.0469 0.2789
H40 H 1.4584 -0.0135 0.2047
O16 O 0.9471(4) 0.5993(3) 0.4518(2)
O17 O 1.3092(16) 0.9540(11) 0.0163(8)
loop_
_geom_bond_atom_site_label_1
_geom_bond_atom_site_label_2
_geom_bond_site_symmetry_1
_geom_bond_site_symmetry_2
Cu1 O1 1_555 1_555
S1 O4 1_555 1_555
O1 C1 1_555 1_555
N1 Cu1 1_555 1_555
C1 O3 1_555 1_555
O2 H1 1_555 1_555
H2 O2 1_555 1_555
Cu2 O2 1_555 1_555
N2 H3 1_555 1_555
C2 C1 1_555 1_555
N3 Cu1 1_555 1_555
C3 C2 1_555 1_555
H4 C3 1_555 1_555
O5 S1 1_555 1_555
N4 H5 1_555 1_555
C4 S1 1_555 1_555
O6 S1 1_555 1_555
N5 H6 1_555 1_555
C5 C4 1_555 1_555
H7 C5 1_555 1_555
O7 Cu2 1_555 1_555
N6 C26 1_555 1_555
C6 C5 1_555 1_555
O8 C7 1_555 1_555
C7 O7 1_555 1_555
O9 Cu1 1_555 1_555
H8 O9 1_555 1_555
H9 O9 1_555 1_555
C8 C2 1_555 1_555
H10 C8 1_555 1_555
O10 Cu1 1_555 1_555
H11 O10 1_555 1_555
H12 O10 1_555 1_555
C9 N1 1_555 1_555
H13 C9 1_555 1_555
O11 Cu1 1_555 1_555
H14 O11 1_555 1_555
H15 O11 1_555 1_555
C10 C9 1_555 1_555
O12 C11 1_555 1_555
C11 N2 1_555 1_555
O13 C19 1_555 1_555
C12 N2 1_555 1_555
H16 C12 1_555 1_555
H17 C12 1_555 1_555
O14 C24 1_555 1_555
C13 C12 1_555 1_555
H18 C13 1_555 1_555
H19 C13 1_555 1_555
C14 C10 1_555 1_555
H20 C14 1_555 1_555
C15 C14 1_555 1_555
H21 C15 1_555 1_555
C16 N1 1_555 1_555
H22 C16 1_555 1_555
C17 N3 1_555 1_555
H23 C17 1_555 1_555
C18 C17 1_555 1_555
C19 N4 1_555 1_555
C20 N4 1_555 1_555
H24 C20 1_555 1_555
H25 C20 1_555 1_555
C21 C20 1_555 1_555
H26 C21 1_555 1_555
H27 C21 1_555 1_555
C22 C21 1_555 1_555
H28 C22 1_555 1_555
H29 C22 1_555 1_555
C23 N5 1_555 1_555
H30 C23 1_555 1_555
H31 C23 1_555 1_555
C24 N5 1_555 1_555
C25 C24 1_555 1_555
C26 C25 1_555 1_555
H32 C26 1_555 1_555
C27 N6 1_555 1_555
H33 C27 1_555 1_555
C28 C27 1_555 1_555
H34 C28 1_555 1_555
C29 C25 1_555 1_555
H35 C29 1_555 1_555
C30 C18 1_555 1_555
H36 C30 1_555 1_555
C31 C30 1_555 1_555
H37 C31 1_555 1_555
C32 N3 1_555 1_555
H38 C32 1_555 1_555
O15 H39 1_555 1_555
H40 O15 1_555 1_555
N1A C9A 1_555 1_555
N2A H3A 1_555 1_555
C9A H13A 1_555 1_555
C10A C9A 1_555 1_555
O12A C11A 1_555 1_555
C11A N2A 1_555 1_555
C12A N2A 1_555 1_555
H16A C12A 1_555 1_555
H17A C12A 1_555 1_555
C13A C13 1_555 1_555
H18A C13A 1_555 1_555
H19A C13A 1_555 1_555
C14A C10A 1_555 1_555
H20A C14A 1_555 1_555
C15A C14A 1_555 1_555
H21A C15A 1_555 1_555
C16A N1A 1_555 1_555
H22A C16A 1_555 1_555
Cu1A O1A 1_555 1_555
S1A O4A 1_555 1_555
O1A C1A 1_555 1_555
C1A O3A 1_555 1_555
C2A C1A 1_555 1_555
N3A Cu1A 1_555 1_555
C3A C2A 1_555 1_555
H4A C3A 1_555 1_555
O5A S1A 1_555 1_555
N4A H5A 1_555 1_555
C4A S1A 1_555 1_555
O6A S1A 1_555 1_555
N5A H6A 1_555 1_555
C5A C4A 1_555 1_555
H7A C5A 1_555 1_555
O7A C7A 1_555 1_555
N6A Cu2 1_555 1_555
C6A C5A 1_555 1_555
O8A C7A 1_555 1_555
C7A C6A 1_555 1_555
O9A Cu1A 1_555 1_555
H8A O9A 1_555 1_555
H9A O9A 1_555 1_555
C8A C2A 1_555 1_555
H10A C8A 1_555 1_555
O10A Cu1A 1_555 1_555
H11A O10A 1_555 1_555
H12A O10A 1_555 1_555
O11A Cu1A 1_555 1_555
H14A O11A 1_555 1_555
H15A O11A 1_555 1_555
O13A C19A 1_555 1_555
O14A C24A 1_555 1_555
C17A N3A 1_555 1_555
H23A C17A 1_555 1_555
C18A C17A 1_555 1_555
C19A N4A 1_555 1_555
C20A N4A 1_555 1_555
H24A C20A 1_555 1_555
H25A C20A 1_555 1_555
C21A C20A 1_555 1_555
H26A C21A 1_555 1_555
H27A C21A 1_555 1_555
C22A C21A 1_555 1_555
H28A C22A 1_555 1_555
H29A C22A 1_555 1_555
C23A N5A 1_555 1_555
H30A C23A 1_555 1_555
H31A C23A 1_555 1_555
C24A N5A 1_555 1_555
C25A C24A 1_555 1_555
C26A N6A 1_555 1_555
H32A C26A 1_555 1_555
C27A N6A 1_555 1_555
H33A C27A 1_555 1_555
C28A C27A 1_555 1_555
H34A C28A 1_555 1_555
C29A C25A 1_555 1_555
H35A C29A 1_555 1_555
C30A C18A 1_555 1_555
H36A C30A 1_555 1_555
C31A C30A 1_555 1_555
H37A C31A 1_555 1_555
C32A N3A 1_555 1_555
H38A C32A 1_555 1_555
O2A Cu2 1_555 1_555
H1A O2A 1_555 1_555
H2A O2A 1_555 1_555
Cu1A_2 N1A 1_555 1_555
N1A_2 Cu1A 1_555 1_555
Cu2_2 N6 1_555 1_555
O7A_2 Cu2 1_555 1_555
N6_2 Cu2 1_555 1_555
C3 C4 1_555 1_555
C6 C7 1_555 1_555
C6 C8 1_555 1_555
C10 C11 1_555 1_555
C15 C16 1_555 1_555
C18 C19 1_555 1_555
C22 C23 1_555 1_555
C28 C29 1_555 1_555
C31 C32 1_555 1_555
C10A C11A 1_555 1_555
C12A C13A 1_555 1_555
C15A C16A 1_555 1_555
C3A C4A 1_555 1_555
O7A Cu2_2 1_555 1_555
C6A C8A 1_555 1_555
C18A C19A 1_555 1_555
C22A C23A 1_555 1_555
C25A C26A 1_555 1_555
C28A C29A 1_555 1_555
C31A C32A 1_555 1_555

#END
