
#######################################################################
#
#                 Cambridge Crystallographic Data Centre
#                                CCDC 
#
#######################################################################
#
# If this CIF has been generated from an entry in the Cambridge 
# Structural Database, then it will include bibliographic, chemical, 
# crystal, experimental, refinement or atomic coordinate data resulting 
# from the CCDC's data processing and validation procedures.
#
#######################################################################

data_DICFAY
_symmetry_cell_setting           monoclinic
_symmetry_space_group_name_H-M   'P 21/c'
_symmetry_Int_Tables_number      14
_space_group_name_Hall           '-P 2ybc'
loop_
_symmetry_equiv_pos_site_id
_symmetry_equiv_pos_as_xyz
1 x,y,z
2 -x,1/2+y,1/2-z
3 -x,-y,-z
4 x,1/2-y,1/2+z
_cell_length_a                   10.523(2)
_cell_length_b                   10.849(3)
_cell_length_c                   22.963(6)
_cell_angle_alpha                90
_cell_angle_beta                 86.316(5)
_cell_angle_gamma                90
_cell_volume                     2616.13
loop_
_atom_site_label
_atom_site_type_symbol
_atom_site_fract_x
_atom_site_fract_y
_atom_site_fract_z
Cu1 Cu 0.18497(6) 0.78192(6) 0.11157(3)
O1 O 0.1882(3) 0.9617(3) 0.09892(16)
N1 N 0.1270(4) 0.8112(4) 0.19443(19)
C1 C 0.2746(5) 1.0127(5) 0.1323(3)
O2 O -0.0105(3) 0.7604(3) 0.06843(16)
H1 H -0.0555 0.6970 0.0601
H2 H -0.0212 0.7932 0.1014
O3 O 0.3550(3) 0.9539(3) 0.16352(17)
N2 N 0.2930(4) 0.6095(4) 0.3355(2)
H3 H 0.3428 0.6351 0.3069
C2 C 0.2780(4) 1.1524(4) 0.1326(2)
O4 O 0.4239(3) 1.5115(3) 0.23436(17)
N3 N 0.2668(4) -0.2533(3) 0.53457(19)
C3 C 0.3605(4) 1.2133(5) 0.1724(2)
H4 H 0.4086 1.1668 0.1970
O5 O 0.5441(3) 1.3431(3) 0.24299(18)
N4 N 0.3207(4) 0.0485(4) 0.3864(2)
H5 H 0.3972 0.0211 0.3808
C4 C 0.3667(4) 1.3420(5) 0.1734(2)
O6 O 0.1991(3) 1.6072(3) 0.12949(15)
C5 C 0.4483(5) 1.4071(5) 0.2189(3)
O7 O 0.4085(3) 1.5885(3) 0.11446(19)
C6 C 0.2904(5) 1.4082(4) 0.1328(2)
O8 O 0.1197(4) 0.6486(4) 0.38544(19)
C7 C 0.3035(6) 1.5470(5) 0.1258(2)
O9 O 0.1375(4) 0.0334(3) 0.43142(19)
C8 C 0.2080(5) 1.3471(5) 0.0945(2)
H6 H 0.1600 1.3936 0.0699
C9 C 0.1992(4) 1.2193(5) 0.0939(2)
H7 H 0.1451 1.1786 0.0698
C10 C 0.1689(4) 0.7379(4) 0.2383(3)
H8 H 0.2227 0.6727 0.2274
C11 C 0.1382(5) 0.7533(4) 0.2955(3)
C12 C 0.1830(6) 0.6668(5) 0.3433(3)
C13 C 0.3415(5) 0.5063(5) 0.3700(3)
H9 H 0.3206 0.5198 0.4113
H10 H 0.4334 0.5005 0.3638
C14 C 0.2782(5) 0.3859(5) 0.3499(3)
H11 H 0.1869 0.3908 0.3584
H12 H 0.2940 0.3767 0.3080
C15 C 0.3306(5) 0.2737(5) 0.3807(3)
H13 H 0.3025 0.2750 0.4217
H14 H 0.4229 0.2750 0.3774
C16 C 0.0590(5) 0.8507(5) 0.3081(3)
H15 H 0.0323 0.8672 0.3468
C17 C 0.0165(5) 0.9277(5) 0.2627(3)
H16 H -0.0368 0.9941 0.2721
C18 C 0.0524(5) 0.9055(5) 0.2073(3)
H17 H 0.0249 0.9561 0.1780
C19 C 0.2301(5) -0.1587(5) 0.5006(2)
H18 H 0.1499 -0.1249 0.5091
C20 C 0.2990(5) -0.1121(5) 0.4572(3)
C21 C 0.2444(6) -0.0043(5) 0.4247(3)
C22 C 0.2807(5) 0.1553(5) 0.3513(3)
H19 H 0.3166 0.1487 0.3115
H20 H 0.1887 0.1578 0.3508
C23 C 0.4135(5) -0.1703(5) 0.4469(3)
H21 H 0.4687 -0.1426 0.4165
C24 C 0.4509(5) -0.2707(6) 0.4807(3)
H22 H 0.5286 -0.3093 0.4718
C25 C 0.3768(5) -0.3090(5) 0.5239(3)
H23 H 0.4006 -0.3745 0.5469
Cu1_2 Cu 0.18497(6) 1.78192(6) 0.11157(3)
Cu1C Cu 0.18497(6) -0.28192(6) 0.61157(3)
N3C N 0.2668(4) 0.7533(3) 0.03457(19)
O6_2 O 0.1991(3) 0.6072(3) 0.12949(15)
O10 O -0.1335(3) 0.9715(3) 0.02411(17)
H24 H -0.1454 1.0564 0.0257
H25 H -0.0899 0.9221 0.0461
loop_
_geom_bond_atom_site_label_1
_geom_bond_atom_site_label_2
_geom_bond_site_symmetry_1
_geom_bond_site_symmetry_2
Cu1 O1 1_555 1_555
O1 C1 1_555 1_555
N1 Cu1 1_555 1_555
C1 O3 1_555 1_555
O2 Cu1 1_555 1_555
H1 O2 1_555 1_555
H2 O2 1_555 1_555
N2 H3 1_555 1_555
C2 C1 1_555 1_555
O4 C5 1_555 1_555
N3 C19 1_555 1_555
C3 C2 1_555 1_555
H4 C3 1_555 1_555
O5 C5 1_555 1_555
N4 H5 1_555 1_555
C4 C3 1_555 1_555
O6 C7 1_555 1_555
C5 C4 1_555 1_555
O7 C7 1_555 1_555
C6 C4 1_555 1_555
O8 C12 1_555 1_555
C7 C6 1_555 1_555
O9 C21 1_555 1_555
C8 C6 1_555 1_555
H6 C8 1_555 1_555
C9 C2 1_555 1_555
H7 C9 1_555 1_555
C10 N1 1_555 1_555
H8 C10 1_555 1_555
C11 C10 1_555 1_555
C12 N2 1_555 1_555
C13 N2 1_555 1_555
H9 C13 1_555 1_555
H10 C13 1_555 1_555
C14 C13 1_555 1_555
H11 C14 1_555 1_555
H12 C14 1_555 1_555
C15 C14 1_555 1_555
H13 C15 1_555 1_555
H14 C15 1_555 1_555
C16 C11 1_555 1_555
H15 C16 1_555 1_555
C17 C16 1_555 1_555
H16 C17 1_555 1_555
C18 N1 1_555 1_555
H17 C18 1_555 1_555
C19 H18 1_555 1_555
C20 C19 1_555 1_555
C21 N4 1_555 1_555
C22 N4 1_555 1_555
H19 C22 1_555 1_555
H20 C22 1_555 1_555
C23 C20 1_555 1_555
H21 C23 1_555 1_555
C24 C23 1_555 1_555
H22 C24 1_555 1_555
C25 N3 1_555 1_555
H23 C25 1_555 1_555
O10 H24 1_555 1_555
H25 O10 1_555 1_555
Cu1_2 O6 1_555 1_555
Cu1C N3 1_555 1_555
N3C Cu1 1_555 1_555
O6_2 Cu1 1_555 1_555
C8 C9 1_555 1_555
C11 C12 1_555 1_555
C15 C22 1_555 1_555
C17 C18 1_555 1_555
C20 C21 1_555 1_555
C24 C25 1_555 1_555

#END
