
#######################################################################
#
#                 Cambridge Crystallographic Data Centre
#                                CCDC 
#
#######################################################################
#
# If this CIF has been generated from an entry in the Cambridge 
# Structural Database, then it will include bibliographic, chemical, 
# crystal, experimental, refinement or atomic coordinate data resulting 
# from the CCDC's data processing and validation procedures.
#
#######################################################################

data_DICFOM
_symmetry_cell_setting           monoclinic
_symmetry_space_group_name_H-M   'P 21/c'
_symmetry_Int_Tables_number      14
_space_group_name_Hall           '-P 2ybc'
loop_
_symmetry_equiv_pos_site_id
_symmetry_equiv_pos_as_xyz
1 x,y,z
2 -x,1/2+y,1/2-z
3 -x,-y,-z
4 x,1/2-y,1/2+z
_cell_length_a                   10.159(2)
_cell_length_b                   20.726(4)
_cell_length_c                   13.290(3)
_cell_angle_alpha                90
_cell_angle_beta                 100.47(3)
_cell_angle_gamma                90
_cell_volume                     2751.69
loop_
_atom_site_label
_atom_site_type_symbol
_atom_site_fract_x
_atom_site_fract_y
_atom_site_fract_z
Zn1 Zn 0.42708(4) 0.894165(17) 0.80459(3)
N1 N 0.3861(3) 0.90147(12) 0.6509(2)
N2 N 0.3487(3) 0.88598(13) 0.4831(2)
H1 H 0.3376 0.8661 0.4254
N3 N 0.4339(3) 0.75416(13) 0.5111(2)
N4 N 0.5569(3) 0.76644(15) 0.4884(3)
N5 N 0.4546(3) 0.68673(13) 0.3904(2)
O1 O 0.5879(2) 0.94988(12) 0.84890(19)
O2 O 0.6797(2) 0.86954(12) 0.7785(2)
O3 O 1.1699(2) 0.86788(12) 0.7911(2)
O4 O 1.2918(2) 0.95160(12) 0.85169(19)
O5 O 1.0742(3) 1.14749(12) 0.9426(3)
H2 H 1.0690 1.1866 0.9505
O6 O 0.8579(3) 1.15022(13) 0.9503(2)
C1 C 0.3638(3) 0.96165(15) 0.6019(3)
C2 C 0.3663(4) 1.02372(16) 0.6423(3)
H3 H 0.3805 1.0309 0.7125
C3 C 0.3468(4) 1.07383(17) 0.5734(3)
H4 H 0.3490 1.1160 0.5977
C4 C 0.3237(4) 1.06325(19) 0.4679(3)
H5 H 0.3099 1.0985 0.4239
C5 C 0.3209(4) 1.00255(18) 0.4276(3)
H6 H 0.3059 0.9955 0.3573
C6 C 0.3414(3) 0.95181(16) 0.4970(3)
C7 C 0.3762(3) 0.85858(16) 0.5759(3)
C8 C 0.3880(4) 0.78752(17) 0.5952(3)
H7 H 0.4506 0.7797 0.6583
H8 H 0.3016 0.7704 0.6031
C9 C 0.3747(4) 0.70694(16) 0.4530(3)
H9 H 0.2902 0.6904 0.4555
C10 C 0.5640(4) 0.72502(17) 0.4165(3)
H10 H 0.6384 0.7218 0.3850
C11 C 0.6878(3) 0.92264(17) 0.8210(3)
C12 C 0.8186(3) 0.95854(16) 0.8410(3)
C13 C 0.9344(3) 0.92766(16) 0.8241(2)
H11 H 0.9294 0.8855 0.7997
C14 C 1.0568(3) 0.95899(15) 0.8431(2)
C15 C 1.0638(3) 1.02239(16) 0.8778(3)
H12 H 1.1456 1.0438 0.8902
C16 C 0.9487(3) 1.05389(16) 0.8940(3)
C17 C 0.8268(3) 1.02201(17) 0.8764(3)
H13 H 0.7502 1.0430 0.8883
C18 C 1.1794(3) 0.92323(17) 0.8266(3)
C19 C 0.9539(4) 1.12188(18) 0.9318(3)
Zn1_2 Zn 1.42708(4) 0.894165(17) 0.80459(3)
Zn1C Zn 0.42708(4) 0.605835(17) 0.30459(3)
N5C N 0.4546(3) 0.81327(13) 0.8904(2)
O4_2 O 0.2918(2) 0.95160(12) 0.85169(19)
N6 N 0.9756(4) 0.86173(18) 0.4461(3)
O7 O 0.9250(4) 0.77141(15) 0.5262(3)
C20 C 1.0132(5) 0.8985(2) 0.5407(4)
H14 H 1.0040 0.8717 0.5980
H15 H 0.9559 0.9354 0.5390
H16 H 1.1045 0.9125 0.5473
C21 C 0.9798(6) 0.8955(3) 0.3504(4)
H17 H 0.9509 0.8669 0.2938
H18 H 1.0697 0.9094 0.3495
H19 H 0.9216 0.9323 0.3448
C22 C 0.9348(5) 0.8016(2) 0.4469(4)
H20 H 0.9119 0.7803 0.3846
O8 O 0.3354(4) 0.83891(16) 0.2924(2)
H21 H 0.4046 0.8372 0.2649
H22 H 0.2678 0.8132 0.2742
O9 O 0.7810(4) 0.75836(18) 0.7082(3)
H23 H 0.7492 0.7925 0.7298
H24 H 0.7951 0.7706 0.6501
O10 O 0.5639(4) 0.6654(2) 0.7000(3)
H25 H 0.5874 0.6381 0.6589
H26 H 0.6266 0.6929 0.7026
O11 O 0.1200(5) 0.74446(19) 0.7351(4)
H27 H 0.1355 0.7835 0.7533
H28 H 0.0409 0.7502 0.7023
O12 O 0.4434(7) 0.0692(2) 0.9313(4)
H29 H 0.4330 0.0639 0.9928
H30 H 0.3975 0.0349 0.9186
loop_
_geom_bond_atom_site_label_1
_geom_bond_atom_site_label_2
_geom_bond_site_symmetry_1
_geom_bond_site_symmetry_2
Zn1 N1 1_555 1_555
N1 C1 1_555 1_555
N2 H1 1_555 1_555
N3 N4 1_555 1_555
N4 C10 1_555 1_555
N5 C9 1_555 1_555
O1 Zn1 1_555 1_555
O2 C11 1_555 1_555
O3 C18 1_555 1_555
O4 C18 1_555 1_555
O5 H2 1_555 1_555
O6 C19 1_555 1_555
C1 C2 1_555 1_555
C2 H3 1_555 1_555
C3 C2 1_555 1_555
H4 C3 1_555 1_555
C4 C3 1_555 1_555
H5 C4 1_555 1_555
C5 C4 1_555 1_555
H6 C5 1_555 1_555
C6 N2 1_555 1_555
C7 N1 1_555 1_555
C8 N3 1_555 1_555
H7 C8 1_555 1_555
H8 C8 1_555 1_555
C9 N3 1_555 1_555
H9 C9 1_555 1_555
C10 N5 1_555 1_555
H10 C10 1_555 1_555
C11 O1 1_555 1_555
C12 C11 1_555 1_555
C13 C12 1_555 1_555
H11 C13 1_555 1_555
C14 C13 1_555 1_555
C15 C14 1_555 1_555
H12 C15 1_555 1_555
C16 C15 1_555 1_555
C17 C12 1_555 1_555
H13 C17 1_555 1_555
C18 C14 1_555 1_555
C19 O5 1_555 1_555
N6 C20 1_555 1_555
O7 C22 1_555 1_555
C20 H14 1_555 1_555
H15 C20 1_555 1_555
H16 C20 1_555 1_555
C21 N6 1_555 1_555
H17 C21 1_555 1_555
H18 C21 1_555 1_555
H19 C21 1_555 1_555
C22 N6 1_555 1_555
H20 C22 1_555 1_555
O8 H21 1_555 1_555
H22 O8 1_555 1_555
O9 H23 1_555 1_555
H24 O9 1_555 1_555
O10 H25 1_555 1_555
H26 O10 1_555 1_555
O11 H27 1_555 1_555
H28 O11 1_555 1_555
O12 H29 1_555 1_555
H30 O12 1_555 1_555
Zn1_2 O4 1_555 1_555
Zn1C N5 1_555 1_555
N5C Zn1 1_555 1_555
O4_2 Zn1 1_555 1_555
N2 C7 1_555 1_555
C1 C6 1_555 1_555
C5 C6 1_555 1_555
C7 C8 1_555 1_555
C16 C17 1_555 1_555
C16 C19 1_555 1_555

#END
