
#######################################################################
#
#                 Cambridge Crystallographic Data Centre
#                                CCDC 
#
#######################################################################
#
# If this CIF has been generated from an entry in the Cambridge 
# Structural Database, then it will include bibliographic, chemical, 
# crystal, experimental, refinement or atomic coordinate data resulting 
# from the CCDC's data processing and validation procedures.
#
#######################################################################

data_DICJUW
_symmetry_cell_setting           monoclinic
_symmetry_space_group_name_H-M   'P 21/n'
_symmetry_Int_Tables_number      14
_space_group_name_Hall           '-P 2yn'
loop_
_symmetry_equiv_pos_site_id
_symmetry_equiv_pos_as_xyz
1 x,y,z
2 1/2-x,1/2+y,1/2-z
3 -x,-y,-z
4 1/2+x,1/2-y,1/2+z
_cell_length_a                   9.5263(9)
_cell_length_b                   8.4129(8)
_cell_length_c                   17.0601(15)
_cell_angle_alpha                90
_cell_angle_beta                 105.174(2)
_cell_angle_gamma                90
_cell_volume                     1319.59
loop_
_atom_site_label
_atom_site_type_symbol
_atom_site_fract_x
_atom_site_fract_y
_atom_site_fract_z
La1 La 0.66532(3) 0.56967(3) 0.098391(15)
O1 O 0.4213(3) 0.6671(4) 0.1048(2)
O2 O 0.2417(4) 0.5382(4) 0.0162(2)
O3 O -0.1191(4) 0.9715(4) 0.2729(2)
O4 O -0.2648(4) 0.7869(4) 0.2018(2)
O5 O 0.8491(5) 0.3469(5) 0.1570(2)
H1 H 0.8370 0.3168 0.2005
H2 H 0.808(7) 0.287(5) 0.1177(10)
O6 O 0.3352(4) 0.1774(4) -0.0123(2)
O7 O 0.5054(4) 0.3419(4) 0.0488(2)
N1 N -0.0610(4) 0.6892(5) 0.1316(2)
C1 C 0.2916(5) 0.6270(5) 0.0765(3)
C2 C 0.1834(5) 0.6902(6) 0.1202(3)
C3 C 0.0413(5) 0.6353(6) 0.0988(3)
H3 H 0.0164 0.5565 0.0594
C4 C -0.0247(5) 0.8033(5) 0.1878(3)
C5 C 0.1149(6) 0.8625(7) 0.2142(3)
H4 H 0.1376 0.9402 0.2543
C6 C 0.2203(6) 0.8037(6) 0.1795(3)
H5 H 0.3154 0.8410 0.1964
C7 C -0.1452(5) 0.8598(6) 0.2238(3)
C8 C 0.4909(8) 0.0974(6) 0.1146(4)
H6 H 0.4308 0.0041 0.1046
H7 H 0.4849 0.1459 0.1645
H8 H 0.5899 0.0683 0.1185
C9 C 0.4404(5) 0.2111(6) 0.0472(3)
La1_2 La -0.33468(3) 0.56967(3) 0.098391(15)
La1A La -0.16532(3) 1.06967(3) 0.401609(15)
La1B La 0.33468(3) 0.43033(3) -0.098391(15)
O2B O 0.7583(4) 0.4618(4) -0.0162(2)
O3A O 0.6191(4) 0.4715(4) 0.2271(2)
O4_2 O 0.7352(4) 0.7869(4) 0.2018(2)
O6B O 0.6648(4) 0.8226(4) 0.0123(2)
O7B O 0.4946(4) 0.6581(4) -0.0488(2)
N1_2 N 0.9390(4) 0.6892(5) 0.1316(2)
O8 O 0.8677(9) 1.0631(8) 0.0378(6)
O9 O 1.1007(14) 1.2452(14) 0.1075(8)
loop_
_geom_bond_atom_site_label_1
_geom_bond_atom_site_label_2
_geom_bond_site_symmetry_1
_geom_bond_site_symmetry_2
La1 O1 1_555 1_555
O1 C1 1_555 1_555
O2 C1 1_555 1_555
O3 C7 1_555 1_555
O4 C7 1_555 1_555
O5 La1 1_555 1_555
H1 O5 1_555 1_555
H2 O5 1_555 1_555
O6 C9 1_555 1_555
O7 La1 1_555 1_555
N1 C3 1_555 1_555
C1 C2 1_555 1_555
C2 C3 1_555 1_555
C3 H3 1_555 1_555
C4 N1 1_555 1_555
C5 C4 1_555 1_555
H4 C5 1_555 1_555
C6 C2 1_555 1_555
H5 C6 1_555 1_555
C7 C4 1_555 1_555
C8 H6 1_555 1_555
H7 C8 1_555 1_555
H8 C8 1_555 1_555
C9 O7 1_555 1_555
La1_2 O4 1_555 1_555
La1A O3 1_555 1_555
La1B O2 1_555 1_555
O2B La1 1_555 1_555
O3A La1 1_555 1_555
O4_2 La1 1_555 1_555
O6B La1 1_555 1_555
O7B La1 1_555 1_555
N1_2 La1 1_555 1_555
O6 La1B 1_555 1_555
O7 La1B 1_555 1_555
N1 La1_2 1_555 1_555
C5 C6 1_555 1_555
C8 C9 1_555 1_555
La1B O7B 1_555 1_555

#END
