
#######################################################################
#
#                 Cambridge Crystallographic Data Centre
#                                CCDC 
#
#######################################################################
#
# If this CIF has been generated from an entry in the Cambridge 
# Structural Database, then it will include bibliographic, chemical, 
# crystal, experimental, refinement or atomic coordinate data resulting 
# from the CCDC's data processing and validation procedures.
#
#######################################################################

data_DICKUX
_symmetry_cell_setting           triclinic
_symmetry_space_group_name_H-M   'P -1'
_symmetry_Int_Tables_number      2
_space_group_name_Hall           '-P 1'
loop_
_symmetry_equiv_pos_site_id
_symmetry_equiv_pos_as_xyz
1 x,y,z
2 -x,-y,-z
_cell_length_a                   9.7165(5)
_cell_length_b                   11.0980(6)
_cell_length_c                   14.6325(12)
_cell_angle_alpha                104.177(2)
_cell_angle_beta                 95.665(2)
_cell_angle_gamma                112.6330(10)
_cell_volume                     1378.79
loop_
_atom_site_label
_atom_site_type_symbol
_atom_site_fract_x
_atom_site_fract_y
_atom_site_fract_z
Zn1 Zn 0.25616(5) 0.68566(4) -0.05397(3)
O1 O 0.2405(4) 0.6452(3) 0.1018(2)
O2 O 0.2809(4) 0.8365(3) 0.0672(2)
O3 O 0.2511(4) 1.0384(4) 0.5050(2)
O4 O 0.2533(3) 0.7793(4) 0.8438(2)
O5 O 0.0159(5) 0.7505(9) 0.8160(5)
O6 O 0.0138(4) 0.5980(4) -0.0752(3)
H1 H -0.0184 0.6170 -0.1235
H2 H -0.0421 0.5154 -0.0793
N1 N 0.2697(4) 0.4993(4) -0.1169(3)
N2 N 0.4978(4) 0.7448(4) -0.0368(2)
C1 C 0.1504(7) 0.3779(6) -0.1550(6)
H3 H 0.0536 0.3728 -0.1508
C2 C 0.1632(8) 0.2587(7) -0.2005(8)
H4 H 0.0771 0.1777 -0.2326
C3 C 0.3062(8) 0.2646(6) -0.1966(6)
H5 H 0.3194 0.1850 -0.2208
C4 C 0.4317(6) 0.3891(6) -0.1563(4)
H6 H 0.5299 0.3950 -0.1557
C5 C 0.4089(5) 0.5046(5) -0.1171(3)
C6 C 0.5364(5) 0.6425(5) -0.0739(3)
C7 C 0.6867(6) 0.6647(8) -0.0673(6)
H7 H 0.7128 0.5917 -0.0876
C8 C 0.7978(10) 0.7970(9) -0.0302(7)
H8 H 0.9000 0.8152 -0.0280
C9 C 0.7547(7) 0.9049(7) 0.0045(7)
H9 H 0.8272 0.9955 0.0291
C10 C 0.6057(6) 0.8720(5) 0.0008(4)
H10 H 0.5766 0.9419 0.0257
C11 C 0.2594(5) 0.7673(5) 0.1266(3)
C12 C 0.2574(4) 0.8375(4) 0.2274(3)
C13 C 0.2718(5) 0.9708(5) 0.2532(3)
H11 H 0.2824 1.0174 0.2075
C14 C 0.2706(5) 1.0357(5) 0.3473(3)
H12 H 0.2812 1.1258 0.3646
C15 C 0.2536(5) 0.9665(5) 0.4144(3)
C16 C 0.2373(5) 0.8328(5) 0.3897(3)
H13 H 0.2228 0.7855 0.4350
C17 C 0.2429(5) 0.7692(5) 0.2960(3)
H14 H 0.2368 0.6806 0.2796
C18 C 0.2269(5) 0.9727(5) 0.5747(3)
C19 C 0.0825(7) 0.9252(10) 0.5940(5)
H15 H 0.0036 0.9341 0.5590
C20 C 0.0571(7) 0.8632(10) 0.6672(6)
H16 H -0.0406 0.8267 0.6790
C21 C 0.1749(5) 0.8561(6) 0.7214(3)
C22 C 0.3185(5) 0.9113(5) 0.7038(3)
H17 H 0.3996 0.9094 0.7419
C23 C 0.3448(5) 0.9695(5) 0.6304(3)
H18 H 0.4428 1.0064 0.6191
C24 C 0.1430(5) 0.7869(6) 0.7989(3)
Zn1_2 Zn 0.25616(5) 0.68566(4) 0.94603(3)
O4_2 O 0.2533(3) 0.7793(4) -0.1562(2)
O7 O 0.7543(17) 0.7469(15) 0.7591(11)
H19 H 0.6686 0.7475 0.7659
H20 H 0.7598 0.6782 0.7724
O8 O 0.549(2) 0.3647(19) 0.3373(14)
H21 H 0.5226 0.2819 0.3040
H22 H 0.6453 0.4083 0.3489
O9 O 0.182(2) 0.541(2) 0.4634(14)
H23 H 0.1919 0.6026 0.5148
H24 H 0.2492 0.5113 0.4716
O10 O 0.677(3) 0.637(2) 0.4502(17)
H25 H 0.7221 0.6473 0.4040
H26 H 0.6164 0.5525 0.4377
loop_
_geom_bond_atom_site_label_1
_geom_bond_atom_site_label_2
_geom_bond_site_symmetry_1
_geom_bond_site_symmetry_2
Zn1 O1 1_555 1_555
O1 C11 1_555 1_555
O2 Zn1 1_555 1_555
O3 C15 1_555 1_555
O4 C24 1_555 1_555
O5 C24 1_555 1_555
O6 Zn1 1_555 1_555
H1 O6 1_555 1_555
H2 O6 1_555 1_555
N1 Zn1 1_555 1_555
N2 Zn1 1_555 1_555
C1 N1 1_555 1_555
H3 C1 1_555 1_555
C2 C1 1_555 1_555
H4 C2 1_555 1_555
C3 C2 1_555 1_555
H5 C3 1_555 1_555
C4 C3 1_555 1_555
H6 C4 1_555 1_555
C5 N1 1_555 1_555
C6 N2 1_555 1_555
C7 C6 1_555 1_555
H7 C7 1_555 1_555
C8 C7 1_555 1_555
H8 C8 1_555 1_555
C9 C8 1_555 1_555
H9 C9 1_555 1_555
C10 N2 1_555 1_555
H10 C10 1_555 1_555
C11 O2 1_555 1_555
C12 C11 1_555 1_555
C13 C12 1_555 1_555
H11 C13 1_555 1_555
C14 C13 1_555 1_555
H12 C14 1_555 1_555
C15 C14 1_555 1_555
C16 C15 1_555 1_555
H13 C16 1_555 1_555
C17 C12 1_555 1_555
H14 C17 1_555 1_555
C18 O3 1_555 1_555
C19 C18 1_555 1_555
H15 C19 1_555 1_555
C20 C19 1_555 1_555
H16 C20 1_555 1_555
C21 C20 1_555 1_555
C22 C21 1_555 1_555
H17 C22 1_555 1_555
C23 C18 1_555 1_555
H18 C23 1_555 1_555
C24 C21 1_555 1_555
O7 H19 1_555 1_555
H20 O7 1_555 1_555
O8 H21 1_555 1_555
H22 O8 1_555 1_555
O9 H23 1_555 1_555
H24 O9 1_555 1_555
O10 H25 1_555 1_555
H26 O10 1_555 1_555
Zn1_2 O4 1_555 1_555
O4_2 Zn1 1_555 1_555
C4 C5 1_555 1_555
C5 C6 1_555 1_555
C9 C10 1_555 1_555
C16 C17 1_555 1_555
C22 C23 1_555 1_555

#END
