
#######################################################################
#
#                 Cambridge Crystallographic Data Centre
#                                CCDC 
#
#######################################################################
#
# If this CIF has been generated from an entry in the Cambridge 
# Structural Database, then it will include bibliographic, chemical, 
# crystal, experimental, refinement or atomic coordinate data resulting 
# from the CCDC's data processing and validation procedures.
#
#######################################################################

data_DICKAD
_symmetry_cell_setting           monoclinic
_symmetry_space_group_name_H-M   'P 21/c'
_symmetry_Int_Tables_number      14
_space_group_name_Hall           '-P 2ybc'
loop_
_symmetry_equiv_pos_site_id
_symmetry_equiv_pos_as_xyz
1 x,y,z
2 -x,1/2+y,1/2-z
3 -x,-y,-z
4 x,1/2-y,1/2+z
_cell_length_a                   9.1565(7)
_cell_length_b                   25.3471(17)
_cell_length_c                   7.7537(5)
_cell_angle_alpha                90
_cell_angle_beta                 97.2930(10)
_cell_angle_gamma                90
_cell_volume                     1785
loop_
_atom_site_label
_atom_site_type_symbol
_atom_site_fract_x
_atom_site_fract_y
_atom_site_fract_z
C1 C 0.8505(4) 0.86820(14) 0.9823(4)
C2 C 0.9922(4) 0.84068(13) 1.0493(4)
C3 C 0.9976(4) 0.80000(16) 1.1686(5)
H1 H 0.9123 0.7886 1.2108
C4 C 1.1315(4) 0.77637(15) 1.2245(5)
H2 H 1.1379 0.7494 1.3064
C5 C 1.2555(3) 0.79353(13) 1.1568(4)
C6 C 1.1226(3) 0.85619(13) 0.9908(4)
H3 H 1.1199 0.8844 0.9136
C7 C 1.4066(4) 0.77066(13) 1.2149(4)
C8 C -0.0968(4) 0.96247(13) 0.3012(4)
C9 C -0.1073(4) 0.93412(15) 0.4493(5)
H4 H -0.1964 0.9315 0.4944
C10 C 0.0184(4) 0.90933(16) 0.5310(5)
H5 H 0.0140 0.8898 0.6318
C11 C 0.1504(4) 0.91387(14) 0.4616(4)
C12 C 0.1510(4) 0.94214(13) 0.3091(4)
H6 H 0.2381 0.9445 0.2595
C13 C 0.2909(4) 0.88793(14) 0.5452(4)
C14 C -0.2241(4) 0.99235(13) 0.1996(4)
Cu1 Cu 0.0000 1.0000 0.0000
Tm1 Tm 0.488334(14) 0.848728(5) 0.912419(16)
H7 H 0.5129 0.9607 0.8348
H8 H 0.6428 0.9446 0.8713
H9 H 0.4414 0.8962 1.2342
H10 H 0.5405 0.8477 0.5790
H11 H 0.6445 0.8151 0.5952
H12 H 0.5400 0.9409 1.1627
N1 N 0.0301(3) 0.96617(11) 0.2306(3)
N2 N 1.2520(3) 0.83272(10) 1.0396(3)
O1 O 0.7334(3) 0.84384(10) 1.0076(3)
O2 O 0.8565(3) 0.91169(10) 0.9083(3)
O3 O 0.2993(2) 0.87522(10) 0.7018(3)
O4 O 0.3892(3) 0.88085(12) 0.4490(3)
O5 O 1.5139(2) 0.79228(9) 1.1575(3)
O6 O 0.4786(3) 0.90612(10) 1.1445(3)
O7 O 0.5599(3) 0.93199(10) 0.8271(3)
O8 O 0.6053(3) 0.83678(12) 0.6598(3)
O9 O -0.1930(3) 1.01684(10) 0.0657(3)
O10 O -0.3452(3) 0.99132(10) 0.2531(3)
O11 O 1.4134(3) 0.73300(9) 1.3180(3)
C1B C -0.8505(4) 1.13180(14) -0.9823(4)
C2B C -0.9922(4) 1.15932(13) -1.0493(4)
C3B C -0.9976(4) 1.20000(16) -1.1686(5)
H1B H -0.9123 1.2114 -1.2108
C4B C -1.1315(4) 1.22363(15) -1.2245(5)
H2B H -1.1379 1.2506 -1.3064
C5B C -1.2555(3) 1.20647(13) -1.1568(4)
C6B C -1.1226(3) 1.14381(13) -0.9908(4)
H3B H -1.1199 1.1156 -0.9136
C7B C -1.4066(4) 1.22934(13) -1.2149(4)
C8B C 0.0968(4) 1.03753(13) -0.3012(4)
C9B C 0.1073(4) 1.06588(15) -0.4493(5)
H4B H 0.1964 1.0685 -0.4944
C10B C -0.0184(4) 1.09067(16) -0.5310(5)
H5B H -0.0140 1.1102 -0.6318
C11B C -0.1504(4) 1.08613(14) -0.4616(4)
C12B C -0.1510(4) 1.05786(13) -0.3091(4)
H6B H -0.2381 1.0555 -0.2595
C13B C -0.2909(4) 1.11207(14) -0.5452(4)
C14B C 0.2241(4) 1.00765(13) -0.1996(4)
Tm1B Tm -0.488334(14) 1.151272(5) -0.912419(16)
H7B H -0.5129 1.0393 -0.8348
H8B H -0.6428 1.0554 -0.8713
H9B H -0.4414 1.1038 -1.2342
H10B H -0.5405 1.1523 -0.5790
H11B H -0.6445 1.1849 -0.5952
H12B H -0.5400 1.0591 -1.1627
N1B N -0.0301(3) 1.03383(11) -0.2306(3)
N2B N -1.2520(3) 1.16728(10) -1.0396(3)
O1B O -0.7334(3) 1.15616(10) -1.0076(3)
O2B O -0.8565(3) 1.08831(10) -0.9083(3)
O3B O -0.2993(2) 1.12478(10) -0.7018(3)
O4B O -0.3892(3) 1.11915(12) -0.4490(3)
O5B O -1.5139(2) 1.20772(9) -1.1575(3)
O6B O -0.4786(3) 1.09388(10) -1.1445(3)
O7B O -0.5599(3) 1.06801(10) -0.8271(3)
O8B O -0.6053(3) 1.16322(12) -0.6598(3)
O9B O 0.1930(3) 0.98316(10) -0.0657(3)
O10B O 0.3452(3) 1.00868(10) -0.2531(3)
O11B O -1.4134(3) 1.26700(9) -1.3180(3)
Cu1_2 Cu -1.0000 1.0000 -1.0000
Cu1_3 Cu 1.0000 1.0000 1.0000
Tm1_2 Tm 1.488334(14) 0.848728(5) 0.912419(16)
Tm1A Tm -1.488334(14) 1.348728(5) -1.412419(16)
Tm1B_2 Tm -1.488334(14) 1.151272(5) -0.912419(16)
Tm1C Tm 1.488334(14) 0.651272(5) 1.412419(16)
N2_2 N 0.2520(3) 0.83272(10) 1.0396(3)
N2B_2 N -0.2520(3) 1.16728(10) -1.0396(3)
O2_2 O -0.1435(3) 0.91169(10) -0.0917(3)
O2B_2 O 0.1435(3) 1.08831(10) 0.0917(3)
O5_2 O 0.5139(2) 0.79228(9) 1.1575(3)
O5B_2 O -0.5139(2) 1.20772(9) -1.1575(3)
O11A O -0.4134(3) 1.23300(9) -0.8180(3)
O11C O 0.4134(3) 0.76700(9) 0.8180(3)
H13 H 0.7239 0.7546 0.9908
H14 H 0.6751 0.7287 0.8589
O12 O 0.7488(3) 0.72642(12) 0.9400(4)
loop_
_geom_bond_atom_site_label_1
_geom_bond_atom_site_label_2
_geom_bond_site_symmetry_1
_geom_bond_site_symmetry_2
C1 C2 1_555 1_555
C2 C3 1_555 1_555
C3 H1 1_555 1_555
C4 C3 1_555 1_555
H2 C4 1_555 1_555
C5 C4 1_555 1_555
C6 C2 1_555 1_555
H3 C6 1_555 1_555
C7 C5 1_555 1_555
C8 C9 1_555 1_555
C9 H4 1_555 1_555
C10 C9 1_555 1_555
H5 C10 1_555 1_555
C11 C10 1_555 1_555
C12 C11 1_555 1_555
H6 C12 1_555 1_555
C13 C11 1_555 1_555
C14 C8 1_555 1_555
Cu1 N1 1_555 1_555
Tm1 O1 1_555 1_555
H7 O7 1_555 1_555
H8 O7 1_555 1_555
H9 O6 1_555 1_555
H10 O8 1_555 1_555
H11 O8 1_555 1_555
H12 O6 1_555 1_555
N1 C8 1_555 1_555
N2 C5 1_555 1_555
O1 C1 1_555 1_555
O2 C1 1_555 1_555
O3 C13 1_555 1_555
O4 C13 1_555 1_555
O5 C7 1_555 1_555
O6 Tm1 1_555 1_555
O7 Tm1 1_555 1_555
O8 Tm1 1_555 1_555
O9 C14 1_555 1_555
O10 C14 1_555 1_555
O11 C7 1_555 1_555
H13 O12 1_555 1_555
H14 O12 1_555 1_555
C1B C2B 1_555 1_555
C2B C3B 1_555 1_555
C3B H1B 1_555 1_555
C4B C3B 1_555 1_555
H2B C4B 1_555 1_555
C5B C4B 1_555 1_555
C6B C2B 1_555 1_555
H3B C6B 1_555 1_555
C7B C5B 1_555 1_555
C8B C9B 1_555 1_555
C9B H4B 1_555 1_555
C10B C9B 1_555 1_555
H5B C10B 1_555 1_555
C11B C10B 1_555 1_555
C12B C11B 1_555 1_555
H6B C12B 1_555 1_555
C13B C11B 1_555 1_555
C14B C8B 1_555 1_555
Tm1B O1B 1_555 1_555
H7B O7B 1_555 1_555
H8B O7B 1_555 1_555
H9B O6B 1_555 1_555
H10B O8B 1_555 1_555
H11B O8B 1_555 1_555
H12B O6B 1_555 1_555
N1B Cu1 1_555 1_555
N2B C5B 1_555 1_555
O1B C1B 1_555 1_555
O2B C1B 1_555 1_555
O3B C13B 1_555 1_555
O4B C13B 1_555 1_555
O5B C7B 1_555 1_555
O6B Tm1B 1_555 1_555
O7B Tm1B 1_555 1_555
O8B Tm1B 1_555 1_555
O9B Cu1 1_555 1_555
O10B C14B 1_555 1_555
O11B C7B 1_555 1_555
Cu1_2 O2B 1_555 1_555
Cu1_3 O2 1_555 1_555
Tm1_2 N2 1_555 1_555
Tm1A O11B 1_555 1_555
Tm1B_2 N2B 1_555 1_555
Tm1C O11 1_555 1_555
N2_2 Tm1 1_555 1_555
N2B_2 Tm1B 1_555 1_555
O2_2 Cu1 1_555 1_555
O2B_2 Cu1 1_555 1_555
O5_2 Tm1 1_555 1_555
O5B_2 Tm1B 1_555 1_555
O11A Tm1B 1_555 1_555
O11C Tm1 1_555 1_555
C6 N2 1_555 1_555
C12 N1 1_555 1_555
Cu1 O9 1_555 1_555
Tm1 O3 1_555 1_555
O5 Tm1_2 1_555 1_555
C6B N2B 1_555 1_555
C8B N1B 1_555 1_555
C12B N1B 1_555 1_555
C14B O9B 1_555 1_555
Tm1B O3B 1_555 1_555
O5B Tm1B_2 1_555 1_555

#END
