
#######################################################################
#
#                 Cambridge Crystallographic Data Centre
#                                CCDC 
#
#######################################################################
#
# If this CIF has been generated from an entry in the Cambridge 
# Structural Database, then it will include bibliographic, chemical, 
# crystal, experimental, refinement or atomic coordinate data resulting 
# from the CCDC's data processing and validation procedures.
#
#######################################################################

data_DICKOR
_symmetry_cell_setting           triclinic
_symmetry_space_group_name_H-M   'P -1'
_symmetry_Int_Tables_number      2
_space_group_name_Hall           '-P 1'
loop_
_symmetry_equiv_pos_site_id
_symmetry_equiv_pos_as_xyz
1 x,y,z
2 -x,-y,-z
_cell_length_a                   8.5866(6)
_cell_length_b                   11.9990(8)
_cell_length_c                   14.0365(9)
_cell_angle_alpha                109.0130(10)
_cell_angle_beta                 103.5130(10)
_cell_angle_gamma                97.318(2)
_cell_volume                     1296.46
loop_
_atom_site_label
_atom_site_type_symbol
_atom_site_fract_x
_atom_site_fract_y
_atom_site_fract_z
Zn1 Zn 0.97518(3) 1.24099(2) 0.44066(2)
O1 O 0.8100(2) 1.08683(16) 0.35156(15)
O2 O 0.5859(3) 1.15026(19) 0.2939(2)
O3 O 0.2988(3) 0.58602(17) 0.08389(14)
O4 O 0.1454(3) 0.42927(17) -0.41446(15)
O5 O -0.0133(3) 0.27822(17) -0.40312(15)
O6 O 1.0747(3) 1.29536(18) 0.33779(17)
O7 O 0.7948(3) 1.34595(17) 0.42752(17)
H1 H 0.8104 1.4099 0.4141
H2 H 0.7111 1.2936 0.3828
N1 N 1.1704(3) 1.1452(2) 0.4566(2)
N2 N 1.2421(4) 1.4256(3) 0.3018(2)
C1 C 0.6600(3) 1.0701(2) 0.3017(2)
C2 C 0.5657(3) 0.9408(2) 0.24638(18)
C3 C 0.3970(3) 0.9160(2) 0.2040(2)
H3 H 0.3431 0.9795 0.2121
C4 C 0.3072(3) 0.7986(3) 0.1497(2)
H4 H 0.1937 0.7829 0.1221
C5 C 0.3875(3) 0.7053(2) 0.13705(19)
C6 C 0.5541(4) 0.7267(2) 0.1790(2)
H5 H 0.6069 0.6626 0.1705
C7 C 0.6436(3) 0.8447(2) 0.2343(2)
H6 H 0.7567 0.8595 0.2636
C8 C 0.2477(3) 0.5428(2) -0.02463(19)
C9 C 0.1350(3) 0.4332(2) -0.0738(2)
H7 H 0.0957 0.3944 -0.0338
C10 C 0.0810(3) 0.3818(2) -0.1823(2)
H8 H 0.0054 0.3080 -0.2151
C11 C 0.1380(3) 0.4387(2) -0.24351(19)
C12 C 0.2505(4) 0.5488(2) -0.1925(2)
H9 H 0.2891 0.5882 -0.2324
C13 C 0.3064(3) 0.6011(2) -0.0837(2)
H10 H 0.3825 0.6746 -0.0506
C14 C 0.0871(3) 0.3793(2) -0.3605(2)
C15 C 1.1464(3) 1.0270(3) 0.4294(3)
H11 H 1.0393 0.9814 0.3981
C16 C 1.2710(4) 0.9672(3) 0.4446(3)
H12 H 1.2465 0.8835 0.4238
C17 C 1.4306(3) 1.0300(2) 0.4900(2)
C18 C 1.4562(4) 1.1531(3) 0.5146(4)
H13 H 1.5625 1.2003 0.5422
C19 C 1.3262(4) 1.2056(3) 0.4985(4)
H14 H 1.3476 1.2892 0.5180
C20 C 1.1510(4) 1.3964(3) 0.3554(2)
H15 H 1.1431 1.4587 0.4132
C21 C 1.2584(11) 1.3355(7) 0.2106(6)
H16 H 1.3173 1.2792 0.2292
H17 H 1.3152 1.3740 0.1744
H18 H 1.1498 1.2933 0.1654
C22 C 1.3211(6) 1.5479(4) 0.3248(4)
H19 H 1.3006 1.6004 0.3865
H20 H 1.2789 1.5712 0.2663
H21 H 1.4372 1.5540 0.3373
N1A N 1.8296(3) 0.8548(2) 0.5434(2)
C15A C 1.8536(3) 0.9730(3) 0.5706(3)
H11A H 1.9607 1.0186 0.6019
C16A C 1.7290(4) 1.0328(3) 0.5554(3)
H12A H 1.7535 1.1165 0.5762
C17A C 1.5694(3) 0.9700(2) 0.5100(2)
C18A C 1.5438(4) 0.8469(3) 0.4854(4)
H13A H 1.4375 0.7997 0.4578
C19A C 1.6738(4) 0.7944(3) 0.5015(4)
H14A H 1.6524 0.7108 0.4820
Zn1A Zn 2.02482(3) 0.75901(2) 0.55934(2)
O1A O 2.1900(2) 0.91317(16) 0.64844(15)
O2A O 2.4141(3) 0.84974(19) 0.7061(2)
O3A O 2.7012(3) 1.41398(17) 0.91611(14)
O4A O 2.8546(3) 1.57073(17) 1.41446(15)
O5A O 3.0133(3) 1.72178(17) 1.40312(15)
O6A O 1.9253(3) 0.70464(18) 0.66221(17)
O7A O 2.2052(3) 0.65405(17) 0.57248(17)
H1A H 2.1896 0.5901 0.5859
H2A H 2.2889 0.7064 0.6172
N2A N 1.7579(4) 0.5744(3) 0.6982(2)
C1A C 2.3400(3) 0.9299(2) 0.6983(2)
C2A C 2.4343(3) 1.0592(2) 0.75362(18)
C3A C 2.6030(3) 1.0840(2) 0.7960(2)
H3A H 2.6569 1.0205 0.7879
C4A C 2.6928(3) 1.2014(3) 0.8503(2)
H4A H 2.8063 1.2171 0.8779
C5A C 2.6125(3) 1.2947(2) 0.86295(19)
C6A C 2.4459(4) 1.2733(2) 0.8210(2)
H5A H 2.3931 1.3374 0.8295
C7A C 2.3564(3) 1.1553(2) 0.7657(2)
H6A H 2.2433 1.1405 0.7364
C8A C 2.7523(3) 1.4572(2) 1.02463(19)
C9A C 2.8650(3) 1.5668(2) 1.0738(2)
H7A H 2.9043 1.6056 1.0338
C10A C 2.9190(3) 1.6182(2) 1.1823(2)
H8A H 2.9946 1.6920 1.2151
C11A C 2.8620(3) 1.5613(2) 1.24351(19)
C12A C 2.7495(4) 1.4512(2) 1.1925(2)
H9A H 2.7109 1.4118 1.2324
C13A C 2.6936(3) 1.3989(2) 1.0837(2)
H10A H 2.6175 1.3254 1.0506
C14A C 2.9129(3) 1.6207(2) 1.3605(2)
C20A C 1.8490(4) 0.6036(3) 0.6446(2)
H15A H 1.8569 0.5413 0.5868
C21A C 1.7416(11) 0.6645(7) 0.7894(6)
H16A H 1.6827 0.7208 0.7708
H17A H 1.6848 0.6260 0.8256
H18A H 1.8502 0.7067 0.8346
C22A C 1.6789(6) 0.4521(4) 0.6752(4)
H19A H 1.6994 0.3996 0.6135
H20A H 1.7211 0.4288 0.7337
H21A H 1.5628 0.4460 0.6627
Zn1_2 Zn -0.02482(3) 0.24099(2) -0.55934(2)
Zn1A_2 Zn 3.02482(3) 1.75901(2) 1.55934(2)
O4_2 O 1.1454(3) 1.42927(17) 0.58554(15)
O4A_2 O 1.8546(3) 0.57073(17) 0.41446(15)
O5_2 O 0.9867(3) 1.27822(17) 0.59688(15)
O5A_2 O 2.0133(3) 0.72178(17) 0.40312(15)
O8 O 0.9636(6) 0.8667(5) 0.1068(7)
N3 N 0.8159(4) 0.9947(3) 0.0742(3)
C23 C 0.9461(6) 0.9711(6) 0.1267(6)
H22 H 1.0266 1.0342 0.1798
C24 C 0.6815(8) 0.8998(5) -0.0037(4)
H23 H 0.7099 0.8229 -0.0131
H24 H 0.6602 0.9119 -0.0695
H25 H 0.5850 0.9015 0.0197
C25 C 0.7962(7) 1.1166(4) 0.0962(4)
H26 H 0.8923 1.1712 0.1493
H27 H 0.7018 1.1262 0.1211
H28 H 0.7815 1.1342 0.0331
loop_
_geom_bond_atom_site_label_1
_geom_bond_atom_site_label_2
_geom_bond_site_symmetry_1
_geom_bond_site_symmetry_2
Zn1 O1 1_555 1_555
O1 C1 1_555 1_555
O2 C1 1_555 1_555
O3 C5 1_555 1_555
O4 C14 1_555 1_555
O5 C14 1_555 1_555
O6 Zn1 1_555 1_555
O7 Zn1 1_555 1_555
H1 O7 1_555 1_555
H2 O7 1_555 1_555
N1 Zn1 1_555 1_555
N2 C20 1_555 1_555
C1 C2 1_555 1_555
C2 C3 1_555 1_555
C3 H3 1_555 1_555
C4 C3 1_555 1_555
H4 C4 1_555 1_555
C5 C4 1_555 1_555
C6 C5 1_555 1_555
H5 C6 1_555 1_555
C7 C2 1_555 1_555
H6 C7 1_555 1_555
C8 O3 1_555 1_555
C9 C8 1_555 1_555
H7 C9 1_555 1_555
C10 C9 1_555 1_555
H8 C10 1_555 1_555
C11 C10 1_555 1_555
C12 C11 1_555 1_555
H9 C12 1_555 1_555
C13 C8 1_555 1_555
H10 C13 1_555 1_555
C14 C11 1_555 1_555
C15 N1 1_555 1_555
H11 C15 1_555 1_555
C16 C15 1_555 1_555
H12 C16 1_555 1_555
C17 C16 1_555 1_555
C18 C17 1_555 1_555
H13 C18 1_555 1_555
C19 N1 1_555 1_555
H14 C19 1_555 1_555
C20 O6 1_555 1_555
H15 C20 1_555 1_555
C21 N2 1_555 1_555
H16 C21 1_555 1_555
H17 C21 1_555 1_555
H18 C21 1_555 1_555
C22 N2 1_555 1_555
H19 C22 1_555 1_555
H20 C22 1_555 1_555
H21 C22 1_555 1_555
O8 C23 1_555 1_555
N3 C23 1_555 1_555
C23 H22 1_555 1_555
C24 N3 1_555 1_555
H23 C24 1_555 1_555
H24 C24 1_555 1_555
H25 C24 1_555 1_555
C25 N3 1_555 1_555
H26 C25 1_555 1_555
H27 C25 1_555 1_555
H28 C25 1_555 1_555
N1A C15A 1_555 1_555
C15A H11A 1_555 1_555
C16A C15A 1_555 1_555
H12A C16A 1_555 1_555
C17A C17 1_555 1_555
C18A C17A 1_555 1_555
H13A C18A 1_555 1_555
C19A N1A 1_555 1_555
H14A C19A 1_555 1_555
Zn1A N1A 1_555 1_555
O1A Zn1A 1_555 1_555
O2A C1A 1_555 1_555
O3A C5A 1_555 1_555
O4A C14A 1_555 1_555
O5A C14A 1_555 1_555
O6A Zn1A 1_555 1_555
O7A Zn1A 1_555 1_555
H1A O7A 1_555 1_555
H2A O7A 1_555 1_555
N2A C20A 1_555 1_555
C1A O1A 1_555 1_555
C2A C1A 1_555 1_555
C3A C2A 1_555 1_555
H3A C3A 1_555 1_555
C4A C3A 1_555 1_555
H4A C4A 1_555 1_555
C5A C4A 1_555 1_555
C6A C5A 1_555 1_555
H5A C6A 1_555 1_555
C7A C2A 1_555 1_555
H6A C7A 1_555 1_555
C8A O3A 1_555 1_555
C9A C8A 1_555 1_555
H7A C9A 1_555 1_555
C10A C9A 1_555 1_555
H8A C10A 1_555 1_555
C11A C10A 1_555 1_555
C12A C11A 1_555 1_555
H9A C12A 1_555 1_555
C13A C8A 1_555 1_555
H10A C13A 1_555 1_555
C14A C11A 1_555 1_555
C20A O6A 1_555 1_555
H15A C20A 1_555 1_555
C21A N2A 1_555 1_555
H16A C21A 1_555 1_555
H17A C21A 1_555 1_555
H18A C21A 1_555 1_555
C22A N2A 1_555 1_555
H19A C22A 1_555 1_555
H20A C22A 1_555 1_555
H21A C22A 1_555 1_555
Zn1_2 O4 1_555 1_555
Zn1A_2 O4A 1_555 1_555
O4_2 Zn1 1_555 1_555
O4A_2 Zn1A 1_555 1_555
O5_2 Zn1 1_555 1_555
O5A_2 Zn1A 1_555 1_555
O5 Zn1_2 1_555 1_555
C6 C7 1_555 1_555
C12 C13 1_555 1_555
C18 C19 1_555 1_555
C16A C17A 1_555 1_555
C18A C19A 1_555 1_555
O5A Zn1A_2 1_555 1_555
C6A C7A 1_555 1_555
C12A C13A 1_555 1_555

#END
