
#######################################################################
#
#                 Cambridge Crystallographic Data Centre
#                                CCDC 
#
#######################################################################
#
# If this CIF has been generated from an entry in the Cambridge 
# Structural Database, then it will include bibliographic, chemical, 
# crystal, experimental, refinement or atomic coordinate data resulting 
# from the CCDC's data processing and validation procedures.
#
#######################################################################

data_DICLAE
_symmetry_cell_setting           orthorhombic
_symmetry_space_group_name_H-M   'P n n a'
_symmetry_Int_Tables_number      52
_space_group_name_Hall           '-P 2a 2bc'
loop_
_symmetry_equiv_pos_site_id
_symmetry_equiv_pos_as_xyz
1 x,y,z
2 1/2-x,-y,z
3 1/2-x,1/2+y,1/2-z
4 x,1/2-y,1/2-z
5 -x,-y,-z
6 1/2+x,y,-z
7 1/2+x,1/2-y,1/2+z
8 -x,1/2+y,1/2+z
_cell_length_a                   15.302(2)
_cell_length_b                   13.4686(17)
_cell_length_c                   9.8714(12)
_cell_angle_alpha                90
_cell_angle_beta                 90
_cell_angle_gamma                90
_cell_volume                     2034.46
loop_
_atom_site_label
_atom_site_type_symbol
_atom_site_fract_x
_atom_site_fract_y
_atom_site_fract_z
Zn1 Zn 0.66352(2) 0.7500 0.2500
O1 O 0.50362(10) 0.68057(12) 0.3782(2)
O2 O 0.60959(10) 0.61883(12) 0.25261(15)
O3 O 0.35238(17) 0.2500 0.2500
N1 N 0.74488(11) 0.71982(15) 0.09416(19)
N2 N 0.85458(14) 0.72653(18) -0.0449(2)
H1 H 0.9009 0.7478 -0.0848
C1 C 0.53474(12) 0.61250(15) 0.3098(2)
C2 C 0.48704(12) 0.51623(15) 0.2921(2)
C3 C 0.51472(15) 0.44647(18) 0.1990(3)
H2 H 0.5636 0.4596 0.1460
C4 C 0.47083(16) 0.35720(19) 0.1830(3)
H3 H 0.4896 0.3111 0.1191
C5 C 0.39898(14) 0.33749(18) 0.2631(2)
C6 C 0.36903(14) 0.40658(15) 0.3544(2)
H4 H 0.3197 0.3936 0.4065
C7 C 0.41298(13) 0.49544(15) 0.3680(2)
H5 H 0.3925 0.5424 0.4294
C8 C 0.81339(16) 0.7709(2) 0.0556(3)
H6 H 0.8307 0.8307 0.0942
C9 C 0.81144(18) 0.6423(2) -0.0741(3)
H7 H 0.8258 0.5959 -0.1404
C10 C 0.74313(16) 0.63844(19) 0.0121(2)
H8 H 0.7014 0.5882 0.0151
O1C O 0.50362(10) -0.18057(12) 0.1218(2)
O2C O 0.60959(10) -0.11883(12) 0.24739(15)
C1C C 0.53474(12) -0.11250(15) 0.1902(2)
C2C C 0.48704(12) -0.01623(15) 0.2079(2)
C3C C 0.51472(15) 0.05353(18) 0.3010(3)
H2C H 0.5636 0.0404 0.3540
C4C C 0.47083(16) 0.14280(19) 0.3170(3)
H3C H 0.4896 0.1889 0.3809
C5C C 0.39898(14) 0.16251(18) 0.2369(2)
C6C C 0.36903(14) 0.09342(15) 0.1456(2)
H4C H 0.3197 0.1064 0.0935
C7C C 0.41298(13) 0.00456(15) 0.1320(2)
H5C H 0.3925 -0.0424 0.0706
N1C N 0.74488(11) 0.78018(15) 0.40584(19)
N2C N 0.85458(14) 0.77347(18) 0.5449(2)
H1C H 0.9009 0.7522 0.5848
C8C C 0.81339(16) 0.7291(2) 0.4444(3)
H6C H 0.8307 0.6693 0.4058
C9C C 0.81144(18) 0.8577(2) 0.5741(3)
H7C H 0.8258 0.9041 0.6404
C10C C 0.74313(16) 0.86156(19) 0.4879(2)
H8C H 0.7014 0.9118 0.4849
Zn1_2 Zn 0.66352(2) -0.2500 0.2500
O2C_2 O 0.60959(10) 0.88117(12) 0.24739(15)
O4 O 0.7500 0.5000 0.3598(3)
H9 H 0.7955 0.4708 0.3307
H9A H 0.7045 0.5292 0.3307
H10? H 0.7500 0.5000 0.4459
loop_
_geom_bond_atom_site_label_1
_geom_bond_atom_site_label_2
_geom_bond_site_symmetry_1
_geom_bond_site_symmetry_2
Zn1 O2 1_555 1_555
O1 C1 1_555 1_555
O2 C1 1_555 1_555
O3 C5 1_555 1_555
N1 Zn1 1_555 1_555
N2 H1 1_555 1_555
C1 C2 1_555 1_555
C2 C3 1_555 1_555
C3 H2 1_555 1_555
C4 C3 1_555 1_555
H3 C4 1_555 1_555
C5 C4 1_555 1_555
C6 C5 1_555 1_555
H4 C6 1_555 1_555
C7 C2 1_555 1_555
H5 C7 1_555 1_555
C8 N1 1_555 1_555
H6 C8 1_555 1_555
C9 N2 1_555 1_555
H7 C9 1_555 1_555
C10 N1 1_555 1_555
H8 C10 1_555 1_555
O4 H9 1_555 1_555
O1C C1C 1_555 1_555
O2C C1C 1_555 1_555
C1C C2C 1_555 1_555
C2C C3C 1_555 1_555
C3C H2C 1_555 1_555
C4C C3C 1_555 1_555
H3C C4C 1_555 1_555
C5C O3 1_555 1_555
C6C C5C 1_555 1_555
H4C C6C 1_555 1_555
C7C C2C 1_555 1_555
H5C C7C 1_555 1_555
N1C Zn1 1_555 1_555
N2C H1C 1_555 1_555
C8C N1C 1_555 1_555
H6C C8C 1_555 1_555
C9C N2C 1_555 1_555
H7C C9C 1_555 1_555
C10C N1C 1_555 1_555
H8C C10C 1_555 1_555
Zn1_2 O2C 1_555 1_555
O2C_2 Zn1 1_555 1_555
H9A O4 1_555 1_555
N2 C8 1_555 1_555
C6 C7 1_555 1_555
C9 C10 1_555 1_555
C4C C5C 1_555 1_555
C6C C7C 1_555 1_555
N2C C8C 1_555 1_555
C9C C10C 1_555 1_555

#END
