
#######################################################################
#
#                 Cambridge Crystallographic Data Centre
#                                CCDC 
#
#######################################################################
#
# If this CIF has been generated from an entry in the Cambridge 
# Structural Database, then it will include bibliographic, chemical, 
# crystal, experimental, refinement or atomic coordinate data resulting 
# from the CCDC's data processing and validation procedures.
#
#######################################################################

data_DICRUE
_symmetry_cell_setting           monoclinic
_symmetry_space_group_name_H-M   'C 2/c'
_symmetry_Int_Tables_number      15
_space_group_name_Hall           '-C 2yn'
loop_
_symmetry_equiv_pos_site_id
_symmetry_equiv_pos_as_xyz
1 x,y,z
2 -x,y,1/2-z
3 1/2+x,1/2+y,z
4 1/2-x,1/2+y,1/2-z
5 -x,-y,-z
6 x,-y,1/2+z
7 1/2-x,1/2-y,-z
8 1/2+x,1/2-y,1/2+z
_cell_length_a                   11.6229(10)
_cell_length_b                   22.131(2)
_cell_length_c                   14.0360(13)
_cell_angle_alpha                90
_cell_angle_beta                 105.1550(10)
_cell_angle_gamma                90
_cell_volume                     3484.87
loop_
_atom_site_label
_atom_site_type_symbol
_atom_site_fract_x
_atom_site_fract_y
_atom_site_fract_z
Cu1 Cu 1.0000 0.084585(19) 0.2500
Cu2 Cu 0.2500 0.2500 0.0000
O1 O 0.28902(14) 0.16741(7) 0.04904(13)
O2 O 0.82803(15) 0.09639(8) 0.23559(13)
N1 N 0.96660(18) 0.08360(9) 0.10349(15)
O3 O 0.46440(17) 0.21280(8) 0.09031(16)
N2 N 0.20620(19) 0.27249(9) 0.12539(16)
N3 N 0.98989(18) 0.09022(9) -0.04685(16)
O4 O 0.82124(17) -0.00427(9) 0.23837(15)
C1 C 0.4031(2) 0.16684(11) 0.08162(19)
C2 C 0.2063(2) 0.23614(12) 0.2001(2)
H1 H 0.2290 0.1957 0.2032
C3 C 1.0388(2) 0.10004(12) 0.04919(19)
H2 H 1.1142 0.1164 0.0747
C4 C 0.1681(2) 0.32744(11) 0.1506(2)
H3 H 0.1585 0.3621 0.1118
C5 C 0.4610(2) 0.10616(11) 0.10650(19)
C6 C 0.5741(2) -0.00394(11) 0.1534(2)
H4 H 0.6118 -0.0410 0.1696
C7 C 0.1467(2) 0.32354(12) 0.2403(2)
H5 H 0.1213 0.3546 0.2746
C8 C 0.6398(2) 0.04874(11) 0.17526(18)
C9 C 0.5820(2) 0.10356(11) 0.15099(18)
H6 H 0.6253 0.1393 0.1649
C10 C 0.3965(2) 0.05299(11) 0.0848(2)
H7 H 0.3151 0.0544 0.0547
N4 N 0.1694(2) 0.26503(10) 0.27093(16)
C11 C 0.7721(2) 0.04575(12) 0.22161(19)
C12 C 0.8805(2) 0.06572(13) -0.0552(2)
H8 H 0.8261 0.0538 -0.1133
C13 C 0.8661(3) 0.06201(14) 0.0364(2)
H9 H 0.7986 0.0471 0.0522
C14 C 0.4531(3) -0.00231(12) 0.1077(2)
H10 H 0.4102 -0.0381 0.0925
C15 C 1.0437(2) 0.09983(13) -0.1299(2)
H11 H 1.0437 0.0618 -0.1643
H12 H 1.1259 0.1123 -0.1040
C16 C 0.9792(3) 0.14668(12) -0.2025(2)
H13 H 0.9929 0.1863 -0.1721
H14 H 0.8942 0.1387 -0.2187
C17 C 0.1602(3) 0.23985(13) 0.3650(2)
H15 H 0.1657 0.1962 0.3627
H16 H 0.0828 0.2500 0.3747
C18 C 0.2564(3) 0.26325(13) 0.4514(2)
H17 H 0.3339 0.2527 0.4426
H18 H 0.2515 0.3070 0.4538
N1A N 1.03340(18) 0.08360(9) -0.60349(15)
N3A N 1.01011(18) 0.09022(9) -0.45315(16)
C3A C 0.9612(2) 0.10004(12) -0.54919(19)
H2A H 0.8858 0.1164 -0.5747
C12A C 1.1195(2) 0.06572(13) -0.4448(2)
H8A H 1.1739 0.0538 -0.3867
C13A C 1.1339(3) 0.06201(14) -0.5364(2)
H9A H 1.2014 0.0471 -0.5522
C15A C 0.9563(2) 0.09983(13) -0.3701(2)
H11A H 0.9563 0.0618 -0.3357
H12A H 0.8741 0.1123 -0.3960
C16A C 1.0208(3) 0.14668(12) -0.2975(2)
H13A H 1.0071 0.1863 -0.3279
H14A H 1.1058 0.1387 -0.2813
N2F N 0.29380(19) 0.22751(9) 0.87461(16)
C2F C 0.2937(2) 0.26386(12) 0.7999(2)
H1F H 0.2710 0.3043 0.7968
C4F C 0.3319(2) 0.17256(11) 0.8494(2)
H3F H 0.3415 0.1379 0.8882
C7F C 0.3533(2) 0.17646(12) 0.7597(2)
H5F H 0.3787 0.1454 0.7254
N4F N 0.3306(2) 0.23497(10) 0.72907(16)
C17F C 0.3398(3) 0.26015(13) 0.6350(2)
H15F H 0.3343 0.3038 0.6373
H16F H 0.4172 0.2500 0.6253
C18F C 0.2436(3) 0.23675(13) 0.5486(2)
H17F H 0.1661 0.2473 0.5574
H18F H 0.2485 0.1930 0.5462
O1A O 1.71098(14) 0.16741(7) 0.45096(13)
O2A O 1.17197(15) 0.09639(8) 0.26441(13)
O3A O 1.53560(17) 0.21280(8) 0.40969(16)
O4A O 1.17876(17) -0.00427(9) 0.26163(15)
C1A C 1.5969(2) 0.16684(11) 0.41838(19)
C5A C 1.5390(2) 0.10616(11) 0.39350(19)
C6A C 1.4259(2) -0.00394(11) 0.3466(2)
H4A H 1.3882 -0.0410 0.3304
C8A C 1.3602(2) 0.04874(11) 0.32474(18)
C9A C 1.4180(2) 0.10356(11) 0.34901(18)
H6A H 1.3747 0.1393 0.3351
C10A C 1.6035(2) 0.05299(11) 0.4152(2)
H7A H 1.6849 0.0544 0.4453
C11A C 1.2279(2) 0.04575(12) 0.27839(19)
C14A C 1.5469(3) -0.00231(12) 0.3923(2)
H10A H 1.5898 -0.0381 0.4075
Cu1_2 Cu 1.0000 0.084585(19) -0.7500
Cu2_2 Cu 0.2500 0.2500 1.0000
Cu2A Cu 1.7500 0.2500 0.5000
O1F O 0.21098(14) 0.33259(7) -0.04904(13)
N1A_2 N 1.03340(18) 0.08360(9) 0.39651(15)
O3F O 0.03560(17) 0.28720(8) -0.09031(16)
N2F_2 N 0.29380(19) 0.22751(9) -0.12539(16)
loop_
_geom_bond_atom_site_label_1
_geom_bond_atom_site_label_2
_geom_bond_site_symmetry_1
_geom_bond_site_symmetry_2
Cu1 O2 1_555 1_555
Cu2 O1 1_555 1_555
O1 C1 1_555 1_555
O2 C11 1_555 1_555
N1 Cu1 1_555 1_555
O3 Cu2 1_555 1_555
N2 Cu2 1_555 1_555
N3 C3 1_555 1_555
O4 C11 1_555 1_555
C1 O3 1_555 1_555
C2 N2 1_555 1_555
H1 C2 1_555 1_555
C3 N1 1_555 1_555
H2 C3 1_555 1_555
C4 N2 1_555 1_555
H3 C4 1_555 1_555
C5 C1 1_555 1_555
C6 H4 1_555 1_555
C7 C4 1_555 1_555
H5 C7 1_555 1_555
C8 C6 1_555 1_555
C9 C5 1_555 1_555
H6 C9 1_555 1_555
C10 C5 1_555 1_555
H7 C10 1_555 1_555
N4 C2 1_555 1_555
C11 C8 1_555 1_555
C12 N3 1_555 1_555
H8 C12 1_555 1_555
C13 N1 1_555 1_555
H9 C13 1_555 1_555
C14 C6 1_555 1_555
H10 C14 1_555 1_555
C15 N3 1_555 1_555
H11 C15 1_555 1_555
H12 C15 1_555 1_555
C16 C15 1_555 1_555
H13 C16 1_555 1_555
H14 C16 1_555 1_555
C17 N4 1_555 1_555
H15 C17 1_555 1_555
H16 C17 1_555 1_555
C18 C17 1_555 1_555
H17 C18 1_555 1_555
H18 C18 1_555 1_555
N1A C3A 1_555 1_555
N3A C3A 1_555 1_555
C3A H2A 1_555 1_555
C12A N3A 1_555 1_555
H8A C12A 1_555 1_555
C13A N1A 1_555 1_555
H9A C13A 1_555 1_555
C15A N3A 1_555 1_555
H11A C15A 1_555 1_555
H12A C15A 1_555 1_555
C16A C16 1_555 1_555
H13A C16A 1_555 1_555
H14A C16A 1_555 1_555
N2F C2F 1_555 1_555
C2F H1F 1_555 1_555
C4F N2F 1_555 1_555
H3F C4F 1_555 1_555
C7F C4F 1_555 1_555
H5F C7F 1_555 1_555
N4F C2F 1_555 1_555
C17F N4F 1_555 1_555
H15F C17F 1_555 1_555
H16F C17F 1_555 1_555
C18F C18 1_555 1_555
H17F C18F 1_555 1_555
H18F C18F 1_555 1_555
O1A C1A 1_555 1_555
O2A Cu1 1_555 1_555
O3A C1A 1_555 1_555
O4A C11A 1_555 1_555
C1A C5A 1_555 1_555
C5A C9A 1_555 1_555
C6A H4A 1_555 1_555
C8A C6A 1_555 1_555
C9A C8A 1_555 1_555
H6A C9A 1_555 1_555
C10A C5A 1_555 1_555
H7A C10A 1_555 1_555
C11A O2A 1_555 1_555
C14A C6A 1_555 1_555
H10A C14A 1_555 1_555
Cu1_2 N1A 1_555 1_555
Cu2_2 N2F 1_555 1_555
Cu2A O1A 1_555 1_555
O1F Cu2 1_555 1_555
N1A_2 Cu1 1_555 1_555
O3F Cu2 1_555 1_555
N2F_2 Cu2 1_555 1_555
C7 N4 1_555 1_555
C8 C9 1_555 1_555
C10 C14 1_555 1_555
C12 C13 1_555 1_555
C12A C13A 1_555 1_555
C15A C16A 1_555 1_555
C7F N4F 1_555 1_555
C17F C18F 1_555 1_555
O3A Cu2A 1_555 1_555
C8A C11A 1_555 1_555
C10A C14A 1_555 1_555

#END
