
#######################################################################
#
#                 Cambridge Crystallographic Data Centre
#                                CCDC 
#
#######################################################################
#
# If this CIF has been generated from an entry in the Cambridge 
# Structural Database, then it will include bibliographic, chemical, 
# crystal, experimental, refinement or atomic coordinate data resulting 
# from the CCDC's data processing and validation procedures.
#
#######################################################################

data_DICVUI
_symmetry_cell_setting           triclinic
_symmetry_space_group_name_H-M   'P -1'
_symmetry_Int_Tables_number      2
_space_group_name_Hall           '-P 1'
loop_
_symmetry_equiv_pos_site_id
_symmetry_equiv_pos_as_xyz
1 x,y,z
2 -x,-y,-z
_cell_length_a                   9.6497(16)
_cell_length_b                   10.0059(16)
_cell_length_c                   10.940(3)
_cell_angle_alpha                102.357(4)
_cell_angle_beta                 97.046(4)
_cell_angle_gamma                110.698(3)
_cell_volume                     942.228
loop_
_atom_site_label
_atom_site_type_symbol
_atom_site_fract_x
_atom_site_fract_y
_atom_site_fract_z
Cu1 Cu 0.5000 0.0000 0.0000
C1 C 0.7159(12) 0.3134(12) 0.0535(10)
C2 C 0.8624(11) 0.4128(10) 0.0272(9)
C3 C 1.0022(11) 0.4244(10) 0.0913(9)
C4 C 1.1374(10) 0.5058(10) 0.0634(9)
C5 C 0.592(3) -0.0443(19) 0.2667(16)
H1 H 0.5180 -0.0535 0.3187
H2 H 0.6915 -0.0080 0.3209
H3 H 0.5710 -0.1397 0.2093
C6 C 0.2190(17) 0.1123(17) -0.0056(19)
H4 H 0.1530 0.0137 -0.0077
H5 H 0.2094 0.1236 -0.0908
H6 H 0.1917 0.1837 0.0485
I1 I 1.00241(8) 0.31260(8) 0.23502(7)
I2 I 1.35061(7) 0.52661(8) 0.15794(7)
O1 O 0.6717(7) 0.1799(7) -0.0092(7)
O2 O 0.6507(9) 0.3698(8) 0.1262(7)
O3 O 0.5872(11) 0.0542(9) 0.1967(9)
H7 H 0.5458 0.1079 0.2279
O4 O 0.3695(11) 0.1353(10) 0.0429(12)
H8 H 0.4206 0.2049 0.0181
C1A C 1.2841(12) 0.6866(12) -0.0535(10)
C2A C 1.1376(11) 0.5872(10) -0.0272(9)
C3A C 0.9978(11) 0.5756(10) -0.0913(9)
C4A C 0.8626(10) 0.4942(10) -0.0634(9)
I1A I 0.99759(8) 0.68740(8) -0.23502(7)
I2A I 0.64939(7) 0.47339(8) -0.15794(7)
O1A O 1.3283(7) 0.8201(7) 0.0092(7)
O2A O 1.3493(9) 0.6302(8) -0.1262(7)
C5A C 0.408(3) 0.0443(19) -0.2667(16)
H1A H 0.4820 0.0535 -0.3187
H2A H 0.3085 0.0080 -0.3209
H3A H 0.4290 0.1397 -0.2093
C6A C 0.7810(17) -0.1123(17) 0.0056(19)
H4A H 0.8470 -0.0137 0.0077
H5A H 0.7906 -0.1236 0.0908
H6A H 0.8083 -0.1837 -0.0485
O3A O 0.4128(11) -0.0542(9) -0.1967(9)
H7A H 0.4542 -0.1079 -0.2279
O4A O 0.6305(11) -0.1353(10) -0.0429(12)
H8A H 0.5794 -0.2049 -0.0181
Cu1_2 Cu 1.5000 1.0000 0.0000
O1A_2 O 0.3283(7) -0.1799(7) 0.0092(7)
C7 C 0.1504(12) 0.3087(11) 0.6479(11)
C8 C 0.0778(11) 0.1469(11) 0.5766(10)
C9 C 0.1331(11) 0.0933(12) 0.4717(10)
C10 C 0.0543(11) -0.0550(10) 0.3976(9)
I3 I 0.33956(8) 0.22954(8) 0.44106(8)
I4 I 0.13347(9) -0.13993(9) 0.23881(7)
O5 O 0.1265(10) 0.4026(9) 0.6013(9)
H9 H 0.0715 0.4464 0.6215
O6 O 0.2448(9) 0.3413(9) 0.7574(8)
C7A C -0.1504(12) -0.3087(11) 0.3521(11)
C8A C -0.0778(11) -0.1469(11) 0.4234(10)
C9A C -0.1331(11) -0.0933(12) 0.5283(10)
C10A C -0.0543(11) 0.0550(10) 0.6024(9)
I3A I -0.33956(8) -0.22954(8) 0.55894(8)
I4A I -0.13347(9) 0.13993(9) 0.76119(7)
O5A O -0.1265(10) -0.4026(9) 0.3987(9)
H9A H -0.0715 -0.4464 0.3785
O6A O -0.2448(9) -0.3413(9) 0.2426(8)
C11 C 0.7419(17) 0.3047(19) 0.4982(15)
H10 H 0.8393 0.3061 0.4864
H11 H 0.6864 0.2153 0.5194
H12 H 0.7554 0.3895 0.5665
O7 O 0.6598(10) 0.3095(9) 0.3831(9)
H13 H 0.7132 0.3788 0.3592
loop_
_geom_bond_atom_site_label_1
_geom_bond_atom_site_label_2
_geom_bond_site_symmetry_1
_geom_bond_site_symmetry_2
Cu1 O1 1_555 1_555
C1 C2 1_555 1_555
C2 C3 1_555 1_555
C3 C4 1_555 1_555
C4 I2 1_555 1_555
C5 H1 1_555 1_555
H2 C5 1_555 1_555
H3 C5 1_555 1_555
C6 H4 1_555 1_555
H5 C6 1_555 1_555
H6 C6 1_555 1_555
I1 C3 1_555 1_555
O1 C1 1_555 1_555
O2 C1 1_555 1_555
O3 Cu1 1_555 1_555
H7 O3 1_555 1_555
O4 Cu1 1_555 1_555
H8 O4 1_555 1_555
C7 C8 1_555 1_555
C8 C9 1_555 1_555
C9 C10 1_555 1_555
C10 I4 1_555 1_555
I3 C9 1_555 1_555
O5 C7 1_555 1_555
H9 O5 1_555 1_555
O6 C7 1_555 1_555
C11 H10 1_555 1_555
H11 C11 1_555 1_555
H12 C11 1_555 1_555
O7 C11 1_555 1_555
H13 O7 1_555 1_555
C1A C2A 1_555 1_555
C2A C4 1_555 1_555
C3A C2A 1_555 1_555
C4A C2 1_555 1_555
I1A C3A 1_555 1_555
I2A C4A 1_555 1_555
O1A C1A 1_555 1_555
O2A C1A 1_555 1_555
C5A H1A 1_555 1_555
H2A C5A 1_555 1_555
H3A C5A 1_555 1_555
C6A H4A 1_555 1_555
H5A C6A 1_555 1_555
H6A C6A 1_555 1_555
O3A Cu1 1_555 1_555
H7A O3A 1_555 1_555
O4A Cu1 1_555 1_555
H8A O4A 1_555 1_555
Cu1_2 O1A 1_555 1_555
O1A_2 Cu1 1_555 1_555
C7A C8A 1_555 1_555
C8A C10 1_555 1_555
C9A C8A 1_555 1_555
C10A C8 1_555 1_555
I3A C9A 1_555 1_555
I4A C10A 1_555 1_555
O5A C7A 1_555 1_555
H9A O5A 1_555 1_555
O6A C7A 1_555 1_555
C5 O3 1_555 1_555
C6 O4 1_555 1_555
C3A C4A 1_555 1_555
C5A O3A 1_555 1_555
C6A O4A 1_555 1_555
C9A C10A 1_555 1_555

#END
