
#######################################################################
#
#                 Cambridge Crystallographic Data Centre
#                                CCDC 
#
#######################################################################
#
# If this CIF has been generated from an entry in the Cambridge 
# Structural Database, then it will include bibliographic, chemical, 
# crystal, experimental, refinement or atomic coordinate data resulting 
# from the CCDC's data processing and validation procedures.
#
#######################################################################

data_DICVOC
_symmetry_cell_setting           triclinic
_symmetry_space_group_name_H-M   'P -1'
_symmetry_Int_Tables_number      2
_space_group_name_Hall           '-P 1'
loop_
_symmetry_equiv_pos_site_id
_symmetry_equiv_pos_as_xyz
1 x,y,z
2 -x,-y,-z
_cell_length_a                   9.2784(8)
_cell_length_b                   9.4854(8)
_cell_length_c                   14.0192(12)
_cell_angle_alpha                93.773(2)
_cell_angle_beta                 91.066(2)
_cell_angle_gamma                111.949(2)
_cell_volume                     1140.66
loop_
_atom_site_label
_atom_site_type_symbol
_atom_site_fract_x
_atom_site_fract_y
_atom_site_fract_z
Cu1 Cu 0.61423(12) 0.11069(11) 0.23819(7)
C1 C 0.5213(10) 0.3448(9) 0.1684(6)
C2 C 0.5090(10) 0.4258(9) 0.0805(6)
C3 C 0.6401(10) 0.5165(9) 0.0409(6)
C4 C 0.6351(9) 0.5934(9) -0.0397(6)
C5 C 0.8463(9) 0.0115(9) 0.3198(6)
C6 C 0.9243(10) 0.0046(9) 0.4150(6)
C7 C 0.8945(9) -0.1334(9) 0.4549(6)
C8 C 1.0331(10) 0.1404(9) 0.4593(6)
C9 C 0.3976(16) -0.2495(12) 0.1914(9)
H1 H 0.5033 -0.2435 0.1837
H2 H 0.3363 -0.3026 0.1340
C10 C 0.3337(14) -0.3369(14) 0.2744(11)
H3 H 0.3328 -0.4393 0.2637
H4 H 0.3989 -0.2884 0.3314
C11 C 0.1794(13) -0.1978(14) 0.3036(10)
H5 H 0.2391 -0.1491 0.3624
H6 H 0.0734 -0.2046 0.3111
C12 C 0.2464(12) -0.1032(12) 0.2232(9)
H7 H 0.1777 -0.1436 0.1666
H8 H 0.2526 0.0000 0.2392
C13 C 0.7140(13) 0.0613(15) 0.0334(7)
H9 H 0.6296 0.0915 0.0164
H10 H 0.6965 -0.0374 0.0025
H11 H 0.8097 0.1342 0.0133
C14 C 0.580(2) 0.2175(17) 0.4470(8)
H12 H 0.6406 0.1569 0.4593
H13 H 0.4926 0.1898 0.4869
H14 H 0.6438 0.3234 0.4610
I1 I 0.85814(7) 0.54235(8) 0.10825(5)
I2 I 0.83637(7) 0.73364(7) -0.10454(5)
I3 I 0.73234(7) -0.33081(6) 0.37891(4)
I4 I 1.07145(9) 0.34594(7) 0.39841(5)
O1 O 0.5396(8) 0.2204(7) 0.1508(4)
O2 O 0.5088(8) 0.4038(7) 0.2486(4)
O3 O 0.7166(8) 0.0325(8) 0.3269(4)
O4 O 0.9079(8) -0.0036(9) 0.2445(5)
O5 O 0.3971(8) -0.0997(7) 0.2024(6)
O6 O 0.1803(9) -0.3437(9) 0.2880(7)
O7 O 0.7231(10) 0.0551(11) 0.1336(5)
H15 H 0.7926 0.0239 0.1447
O8 O 0.5262(10) 0.1909(9) 0.3468(5)
H16 H 0.4390 0.1937 0.3436
C1A C 0.4787(10) 0.6552(9) -0.1684(6)
C2A C 0.4910(10) 0.5742(9) -0.0805(6)
C3A C 0.3599(10) 0.4835(9) -0.0409(6)
C4A C 0.3649(9) 0.4066(9) 0.0397(6)
I1A I 0.14186(7) 0.45765(8) -0.10825(5)
I2A I 0.16363(7) 0.26636(7) 0.10454(5)
O1A O 0.4604(8) 0.7796(7) -0.1508(4)
O2A O 0.4912(8) 0.5962(7) -0.2486(4)
C5A C 1.1537(9) -0.0115(9) 0.6802(6)
C6A C 1.0757(10) -0.0046(9) 0.5850(6)
C7A C 1.1055(9) 0.1334(9) 0.5451(6)
C8A C 0.9669(10) -0.1404(9) 0.5407(6)
I3A I 1.26766(7) 0.33081(6) 0.62109(4)
I4A I 0.92855(9) -0.34594(7) 0.60159(5)
O3A O 1.2834(8) -0.0325(8) 0.6731(4)
O4A O 1.0921(8) 0.0036(9) 0.7555(5)
Cu1A Cu 0.38577(12) 0.88931(11) -0.23819(7)
C9A C 0.6024(16) 1.2495(12) -0.1914(9)
H1A H 0.4967 1.2435 -0.1837
H2A H 0.6637 1.3026 -0.1340
C10A C 0.6663(14) 1.3369(14) -0.2744(11)
H3A H 0.6672 1.4393 -0.2637
H4A H 0.6011 1.2884 -0.3314
C11A C 0.8206(13) 1.1978(14) -0.3036(10)
H5A H 0.7609 1.1491 -0.3624
H6A H 0.9266 1.2046 -0.3111
C12A C 0.7536(12) 1.1032(12) -0.2232(9)
H7A H 0.8223 1.1436 -0.1666
H8A H 0.7474 1.0000 -0.2392
C13A C 0.2860(13) 0.9387(15) -0.0334(7)
H9A H 0.3704 0.9085 -0.0164
H10A H 0.3035 1.0374 -0.0025
H11A H 0.1903 0.8658 -0.0133
C14A C 0.420(2) 0.7825(17) -0.4470(8)
H12A H 0.3594 0.8431 -0.4593
H13A H 0.5074 0.8102 -0.4869
H14A H 0.3562 0.6766 -0.4610
O5A O 0.6029(8) 1.0997(7) -0.2024(6)
O6A O 0.8197(9) 1.3437(9) -0.2880(7)
O7A O 0.2769(10) 0.9449(11) -0.1336(5)
H15A H 0.2074 0.9761 -0.1447
O8A O 0.4738(10) 0.8091(9) -0.3468(5)
H16A H 0.5610 0.8063 -0.3436
Cu1A_2 Cu 1.38577(12) -0.11069(11) 0.76181(7)
O3A_2 O 0.2834(8) 0.9675(8) -0.3269(4)
loop_
_geom_bond_atom_site_label_1
_geom_bond_atom_site_label_2
_geom_bond_site_symmetry_1
_geom_bond_site_symmetry_2
Cu1 O1 1_555 1_555
C1 C2 1_555 1_555
C2 C3 1_555 1_555
C3 C4 1_555 1_555
C4 I2 1_555 1_555
C5 C6 1_555 1_555
C6 C7 1_555 1_555
C7 I3 1_555 1_555
C8 C6 1_555 1_555
C9 H1 1_555 1_555
H2 C9 1_555 1_555
C10 C9 1_555 1_555
H3 C10 1_555 1_555
H4 C10 1_555 1_555
C11 H5 1_555 1_555
H6 C11 1_555 1_555
C12 C11 1_555 1_555
H7 C12 1_555 1_555
H8 C12 1_555 1_555
C13 H9 1_555 1_555
H10 C13 1_555 1_555
H11 C13 1_555 1_555
C14 H12 1_555 1_555
H13 C14 1_555 1_555
H14 C14 1_555 1_555
I1 C3 1_555 1_555
I4 C8 1_555 1_555
O1 C1 1_555 1_555
O2 C1 1_555 1_555
O3 Cu1 1_555 1_555
O4 C5 1_555 1_555
O5 Cu1 1_555 1_555
O6 C10 1_555 1_555
O7 Cu1 1_555 1_555
H15 O7 1_555 1_555
O8 Cu1 1_555 1_555
H16 O8 1_555 1_555
C1A C2A 1_555 1_555
C2A C4 1_555 1_555
C3A C2A 1_555 1_555
C4A C2 1_555 1_555
I1A C3A 1_555 1_555
I2A C4A 1_555 1_555
O1A C1A 1_555 1_555
O2A C1A 1_555 1_555
C5A C6A 1_555 1_555
C6A C7A 1_555 1_555
C7A C8 1_555 1_555
C8A C7 1_555 1_555
I3A C7A 1_555 1_555
I4A C8A 1_555 1_555
O3A C5A 1_555 1_555
O4A C5A 1_555 1_555
Cu1A O1A 1_555 1_555
C9A H1A 1_555 1_555
H2A C9A 1_555 1_555
C10A C9A 1_555 1_555
H3A C10A 1_555 1_555
H4A C10A 1_555 1_555
C11A H5A 1_555 1_555
H6A C11A 1_555 1_555
C12A C11A 1_555 1_555
H7A C12A 1_555 1_555
H8A C12A 1_555 1_555
C13A H9A 1_555 1_555
H10A C13A 1_555 1_555
H11A C13A 1_555 1_555
C14A H12A 1_555 1_555
H13A C14A 1_555 1_555
H14A C14A 1_555 1_555
O5A Cu1A 1_555 1_555
O6A C10A 1_555 1_555
O7A Cu1A 1_555 1_555
H15A O7A 1_555 1_555
O8A Cu1A 1_555 1_555
H16A O8A 1_555 1_555
Cu1A_2 O3A 1_555 1_555
O3A_2 Cu1A 1_555 1_555
C5 O3 1_555 1_555
C9 O5 1_555 1_555
C11 O6 1_555 1_555
C12 O5 1_555 1_555
C13 O7 1_555 1_555
C14 O8 1_555 1_555
C3A C4A 1_555 1_555
C6A C8A 1_555 1_555
C9A O5A 1_555 1_555
C11A O6A 1_555 1_555
C12A O5A 1_555 1_555
C13A O7A 1_555 1_555
C14A O8A 1_555 1_555

#END
