
#######################################################################
#
#                 Cambridge Crystallographic Data Centre
#                                CCDC 
#
#######################################################################
#
# If this CIF has been generated from an entry in the Cambridge 
# Structural Database, then it will include bibliographic, chemical, 
# crystal, experimental, refinement or atomic coordinate data resulting 
# from the CCDC's data processing and validation procedures.
#
#######################################################################

data_DICVEQ
_symmetry_cell_setting           triclinic
_symmetry_space_group_name_H-M   'P -1'
_symmetry_Int_Tables_number      2
_space_group_name_Hall           '-P 1'
loop_
_symmetry_equiv_pos_site_id
_symmetry_equiv_pos_as_xyz
1 x,y,z
2 -x,-y,-z
_cell_length_a                   8.7543(11)
_cell_length_b                   9.9307(15)
_cell_length_c                   7.3140(16)
_cell_angle_alpha                108.537(14)
_cell_angle_beta                 106.347(14)
_cell_angle_gamma                85.225(12)
_cell_volume                     578.479
loop_
_atom_site_label
_atom_site_type_symbol
_atom_site_fract_x
_atom_site_fract_y
_atom_site_fract_z
Cu1 Cu 0.46401(3) 0.93926(3) 0.22752(4)
Cl1 Cl 0.69038(7) 1.02505(7) 0.48073(9)
Cl2 Cl 0.42549(8) 1.15109(7) 0.16617(12)
N1 N 0.5317(3) 0.7398(2) 0.2319(3)
C1 C 0.6838(4) 0.7040(3) 0.2467(4)
H1 H 0.752(4) 0.773(4) 0.239(5)
C2 C 0.7453(4) 0.5767(3) 0.2773(5)
H2 H 0.850(5) 0.558(4) 0.276(6)
C3 C 0.6453(5) 0.4837(3) 0.2921(5)
H3 H 0.674(5) 0.403(4) 0.312(6)
C4 C 0.4877(5) 0.5188(3) 0.2749(4)
H4 H 0.417(5) 0.470(4) 0.281(6)
C5 C 0.4340(4) 0.6475(3) 0.2448(4)
C6 C 0.2584(4) 0.6768(3) 0.2124(4)
O1 O 0.1798(3) 0.6187(3) 0.2789(4)
C7 C 0.1756(3) 0.7538(3) 0.0653(4)
C8 C 0.0233(4) 0.7096(3) -0.0487(5)
H5 H -0.019(4) 0.650(4) -0.017(5)
C9 C -0.0512(4) 0.7627(4) -0.2042(5)
H6 H -0.143(5) 0.721(5) -0.304(7)
C10 C 0.0301(4) 0.8591(4) -0.2405(5)
H7 H -0.019(5) 0.897(4) -0.337(6)
C11 C 0.1806(3) 0.9035(3) -0.1163(4)
H8 H 0.237(5) 0.975(4) -0.128(6)
N2 N 0.2533(2) 0.8529(2) 0.0347(3)
Cu1A Cu 0.53599(3) 1.06074(3) 0.77248(4)
Cl1A Cl 0.30962(7) 0.97495(7) 0.51927(9)
Cu1A_2 Cu 0.53599(3) 1.06074(3) -0.22752(4)
Cl2A Cl 0.57451(8) 0.84891(7) -0.16617(12)
loop_
_geom_bond_atom_site_label_1
_geom_bond_atom_site_label_2
_geom_bond_site_symmetry_1
_geom_bond_site_symmetry_2
Cu1 Cl1 1_555 1_555
Cl1 Cu1A 1_555 1_555
Cl2 Cu1 1_555 1_555
N1 Cu1 1_555 1_555
C1 N1 1_555 1_555
H1 C1 1_555 1_555
C2 C1 1_555 1_555
H2 C2 1_555 1_555
C3 C2 1_555 1_555
H3 C3 1_555 1_555
C4 C3 1_555 1_555
H4 C4 1_555 1_555
C5 N1 1_555 1_555
C6 C5 1_555 1_555
O1 C6 1_555 1_555
C7 C6 1_555 1_555
C8 C7 1_555 1_555
H5 C8 1_555 1_555
C9 C8 1_555 1_555
H6 C9 1_555 1_555
C10 C9 1_555 1_555
H7 C10 1_555 1_555
C11 C10 1_555 1_555
H8 C11 1_555 1_555
N2 Cu1 1_555 1_555
Cu1A Cl1A 1_555 1_555
Cl1A Cu1 1_555 1_555
Cu1A_2 Cl2 1_555 1_555
Cl2A Cu1 1_555 1_555
C4 C5 1_555 1_555
C7 N2 1_555 1_555
C11 N2 1_555 1_555
Cu1A_2 Cl2A 1_555 1_555

#END
