
#######################################################################
#
#                 Cambridge Crystallographic Data Centre
#                                CCDC 
#
#######################################################################
#
# If this CIF has been generated from an entry in the Cambridge 
# Structural Database, then it will include bibliographic, chemical, 
# crystal, experimental, refinement or atomic coordinate data resulting 
# from the CCDC's data processing and validation procedures.
#
#######################################################################

data_DICWER
_symmetry_cell_setting           monoclinic
_symmetry_space_group_name_H-M   'P 21/c'
_symmetry_Int_Tables_number      14
_space_group_name_Hall           '-P 2ybc'
loop_
_symmetry_equiv_pos_site_id
_symmetry_equiv_pos_as_xyz
1 x,y,z
2 -x,1/2+y,1/2-z
3 -x,-y,-z
4 x,1/2-y,1/2+z
_cell_length_a                   13.177(2)
_cell_length_b                   5.111(1)
_cell_length_c                   12.972(2)
_cell_angle_alpha                90
_cell_angle_beta                 116.63(1)
_cell_angle_gamma                90
_cell_volume                     780.958
loop_
_atom_site_label
_atom_site_type_symbol
_atom_site_fract_x
_atom_site_fract_y
_atom_site_fract_z
O1 O -0.1291(1) 0.7171(3) 0.0404(1)
O2 O -0.2689(1) 0.4370(3) 0.0102(1)
O3 O -0.1229(1) 0.2387(2) -0.08998(8)
O4 O -0.1527(1) 0.1730(3) -0.27078(9)
O5 O -0.0193(1) 0.8014(3) -0.1381(1)
C1 C -0.2606(1) 0.4983(2) -0.2325(1)
C2 C -0.2770(1) 0.6485(3) -0.1516(1)
C3 C -0.3576(1) 0.8475(3) -0.1873(1)
C4 C -0.4252(1) 0.8903(3) -0.3039(2)
C5 C -0.4110(1) 0.7402(4) -0.3845(1)
C6 C -0.3284(2) 0.5480(4) -0.3494(1)
C7 C -0.1724(1) 0.2877(3) -0.1961(1)
C8 C -0.2142(1) 0.6022(3) -0.0243(1)
H1 H -0.058(3) 0.885(7) -0.192(3)
H2 H 0.034(3) 0.77(7) -0.143(3)
H3 H -0.372(3) 0.938(7) -0.133(3)
H4 H -0.473(4) 1.036(6) -0.323(4)
H5 H -0.456(3) 0.769(7) -0.466(3)
H6 H -0.328(3) 0.446(7) -0.398(3)
H7 H -0.238(3) 0.423(7) 0.070(3)
Cu1 Cu 0.0000 1.0000 0.00000
Cu1_2 Cu 0.0000 0.0000 0.00000
O1B O 0.1291(1) 0.2829(3) -0.0404(1)
C8B C 0.2142(1) 0.3978(3) 0.0243(1)
O2B O 0.2689(1) 0.5630(3) -0.0102(1)
H7B H 0.238(3) 0.577(7) -0.070(3)
C2B C 0.2770(1) 0.3515(3) 0.1516(1)
C1B C 0.2606(1) 0.5017(2) 0.2325(1)
C6B C 0.3284(2) 0.4520(4) 0.3494(1)
C5B C 0.4110(1) 0.2598(4) 0.3845(1)
C4B C 0.4252(1) 0.1097(3) 0.3039(2)
C3B C 0.3576(1) 0.1525(3) 0.1873(1)
H3B H 0.372(3) 0.062(7) 0.133(3)
H4B H 0.473(4) -0.036(6) 0.323(4)
H5B H 0.456(3) 0.231(7) 0.466(3)
H6B H 0.328(3) 0.554(7) 0.398(3)
C7B C 0.1724(1) 0.7123(3) 0.1961(1)
O3B O 0.1229(1) 0.7613(2) 0.08998(8)
O1B_2 O 0.1291(1) 1.2829(3) -0.0404(1)
O3_2 O -0.1229(1) 1.2387(2) -0.08998(8)
O5B O 0.0193(1) 1.1986(3) 0.1381(1)
H1B H 0.058(3) 1.115(7) 0.192(3)
H2B H -0.034(3) 1.23(7) 0.143(3)
O4B O 0.1527(1) 0.8270(3) 0.27078(9)
loop_
_geom_bond_atom_site_label_1
_geom_bond_atom_site_label_2
_geom_bond_site_symmetry_1
_geom_bond_site_symmetry_2
O1 C8 1_555 1_555
O2 C8 1_555 1_555
O3 C7 1_555 1_555
O4 C7 1_555 1_555
O5 H1 1_555 1_555
C1 C2 1_555 1_555
C2 C3 1_555 1_555
C3 C4 1_555 1_555
C4 C5 1_555 1_555
C5 C6 1_555 1_555
C6 C1 1_555 1_555
C7 C1 1_555 1_555
C8 C2 1_555 1_555
H2 O5 1_555 1_555
H3 C3 1_555 1_555
H4 C4 1_555 1_555
H5 C5 1_555 1_555
H6 C6 1_555 1_555
H7 O2 1_555 1_555
Cu1 O1 1_555 1_555
Cu1_2 O3 1_555 1_555
O1B Cu1_2 1_555 1_555
C8B O1B 1_555 1_555
O2B C8B 1_555 1_555
H7B O2B 1_555 1_555
C2B C8B 1_555 1_555
C1B C2B 1_555 1_555
C6B C1B 1_555 1_555
C5B C6B 1_555 1_555
C4B C5B 1_555 1_555
C3B C2B 1_555 1_555
H3B C3B 1_555 1_555
H4B C4B 1_555 1_555
H5B C5B 1_555 1_555
H6B C6B 1_555 1_555
C7B C1B 1_555 1_555
O3B Cu1 1_555 1_555
O1B_2 Cu1 1_555 1_555
O3_2 Cu1 1_555 1_555
O5B Cu1 1_555 1_555
H1B O5B 1_555 1_555
H2B O5B 1_555 1_555
O4B C7B 1_555 1_555
O5 Cu1 1_555 1_555
C4B C3B 1_555 1_555
C7B O3B 1_555 1_555

#END
