
#######################################################################
#
#                 Cambridge Crystallographic Data Centre
#                                CCDC 
#
#######################################################################
#
# If this CIF has been generated from an entry in the Cambridge 
# Structural Database, then it will include bibliographic, chemical, 
# crystal, experimental, refinement or atomic coordinate data resulting 
# from the CCDC's data processing and validation procedures.
#
#######################################################################

data_DICXUK
_symmetry_cell_setting           triclinic
_symmetry_space_group_name_H-M   'P -1'
_symmetry_Int_Tables_number      2
_space_group_name_Hall           '-P 1'
loop_
_symmetry_equiv_pos_site_id
_symmetry_equiv_pos_as_xyz
1 x,y,z
2 -x,-y,-z
_cell_length_a                   10.487(5)
_cell_length_b                   13.756(7)
_cell_length_c                   14.369(6)
_cell_angle_alpha                108.934(5)
_cell_angle_beta                 108.491(5)
_cell_angle_gamma                104.390(5)
_cell_volume                     1710.85
loop_
_atom_site_label
_atom_site_type_symbol
_atom_site_fract_x
_atom_site_fract_y
_atom_site_fract_z
Co1 Co 0.16825(7) 0.84013(4) 0.18113(5)
O1 O 0.1556(5) 0.7469(4) 0.0419(3)
O2 O 0.3531(6) 0.7269(5) 0.1194(4)
O3 O -0.0829(4) 0.2501(3) -0.2424(4)
O4 O 0.1382(5) 0.2669(4) -0.1528(5)
N1 N -0.6374(4) 0.9515(3) 0.3084(3)
N2 N 0.0899(4) 0.9528(3) 0.1504(3)
N3 N -0.4003(4) 1.0505(3) 0.4144(3)
N4 N -0.0482(4) 1.0493(3) 0.1266(3)
C1 C -0.5054(5) 0.9582(4) 0.3245(4)
H1 H -0.4854 0.9049 0.2787
C2 C 0.1693(5) 1.0484(4) 0.1465(3)
C3 C 0.0840(5) 1.1096(4) 0.1326(3)
C4 C -0.6204(5) 1.0474(4) 0.3948(4)
C5 C 0.3090(5) 1.0851(4) 0.1514(4)
H2 H 0.3669 1.0443 0.1601
C6 C -0.4720(5) 1.1096(4) 0.4615(4)
C7 C 0.1322(6) 1.2075(4) 0.1219(4)
H3 H 0.0729 1.2468 0.1113
C8 C 0.0540(6) 0.2937(4) -0.2091(4)
C9 C -0.7220(6) 1.0827(4) 0.4204(4)
H4 H -0.8214 1.0416 0.3758
C10 C -0.4217(6) 1.2082(4) 0.5543(4)
H5 H -0.3220 1.2495 0.5976
C11 C 0.1091(6) 0.3821(4) -0.2447(4)
H6 H 0.0979 0.3425 -0.3189
C12 C -0.2023(5) 1.0944(4) 0.2896(4)
H7 H -0.2428 1.0167 0.2563
C13 C 0.2102(5) 0.6128(4) -0.0709(4)
H8 H 0.2359 0.6511 -0.1132
C14 C 0.0192(6) 0.4546(4) -0.2499(4)
H9 H 0.0422 0.4960 -0.2898
H10 H -0.0840 0.4066 -0.2896
C15 C 0.2457(6) 0.7019(4) 0.0378(4)
C16 C -0.1691(5) 1.0844(4) 0.1220(4)
H11 H -0.2602 1.0191 0.0814
H12 H -0.1722 1.1306 0.0833
C17 C 0.3010(6) 0.5407(4) -0.0631(5)
H13 H 0.4041 0.5889 -0.0243
H14 H 0.2786 0.5011 -0.0217
C18 C -0.2429(5) 1.0868(5) 0.4495(4)
H15 H -0.2178 1.0218 0.4349
H16 H -0.1929 1.1336 0.5277
C19 C 0.2716(6) 1.2448(4) 0.1276(4)
C20 C 0.2705(6) 0.4575(4) -0.1741(5)
H17 H 0.3256 0.4113 -0.1650
H18 H 0.3046 0.4975 -0.2117
C21 C -0.1312(7) 1.2666(4) 0.4414(5)
H19 H -0.1241 1.3062 0.5102
C22 C -0.5222(7) 1.2434(4) 0.5809(4)
C23 C 0.0489(5) 0.5359(4) -0.1375(4)
H20 H 0.0195 0.4946 -0.0994
H21 H -0.0089 0.5805 -0.1448
C24 C -0.6734(6) 1.1811(5) 0.5141(4)
C25 C 0.3595(5) 1.1836(5) 0.1428(4)
C26 C -0.0928(7) 1.2659(4) 0.2857(5)
H22 H -0.0579 1.3047 0.2508
C27 C -0.0822(8) 1.3232(5) 0.3873(5)
H23 H -0.0417 1.4009 0.4204
C28 C 0.3262(7) 1.3510(5) 0.1165(6)
H24 H 0.3451 1.3346 0.0532
H25 H 0.4148 1.4035 0.1804
H26 H 0.2536 1.3825 0.1090
C29 C 0.5112(7) 1.2229(7) 0.1475(7)
H27 H 0.5037 1.2243 0.0796
H28 H 0.5564 1.1727 0.1598
H29 H 0.5695 1.2966 0.2060
C30 C -0.4691(9) 1.3505(5) 0.6825(5)
H30 H -0.5119 1.3357 0.7290
H31 H -0.4972 1.4046 0.6621
H32 H -0.3646 1.3792 0.7209
C31 C -0.7834(8) 1.2179(7) 0.5445(6)
H33 H -0.7800 1.2851 0.5367
H34 H -0.7613 1.2318 0.6190
H35 H -0.8793 1.1603 0.4974
C32 C -0.1910(5) 1.1505(4) 0.3925(4)
C33 C -0.1556(5) 1.1493(4) 0.2343(4)
C34 C -0.0369(4) 0.9583(3) 0.1372(3)
H36 H -0.1123 0.9040 0.1353
Co1_2 Co -0.83175(7) 0.84013(4) 0.18113(5)
Co1A Co -0.16825(7) 0.15987(4) -0.18113(5)
O3A O 0.0829(4) 0.7499(3) 0.2424(4)
N1_2 N 0.3626(4) 0.9515(3) 0.3084(3)
O5 O 0.6487(4) 0.8158(3) 0.1716(3)
H37 H 0.7177 0.7940 0.1716
H38 H 0.5593 0.7718 0.1328
O6 O 0.5000 0.5000 0.5000
O7? O 0.355(3) 0.429(3) 0.433(2)
loop_
_geom_bond_atom_site_label_1
_geom_bond_atom_site_label_2
_geom_bond_site_symmetry_1
_geom_bond_site_symmetry_2
Co1 O1 1_555 1_555
O1 C15 1_555 1_555
O2 C15 1_555 1_555
O3 C8 1_555 1_555
O4 C8 1_555 1_555
N1 C1 1_555 1_555
N2 Co1 1_555 1_555
N3 C1 1_555 1_555
N4 C3 1_555 1_555
C1 H1 1_555 1_555
C2 N2 1_555 1_555
C3 C2 1_555 1_555
C4 N1 1_555 1_555
C5 C2 1_555 1_555
H2 C5 1_555 1_555
C6 N3 1_555 1_555
C7 C3 1_555 1_555
H3 C7 1_555 1_555
C8 C11 1_555 1_555
C9 C4 1_555 1_555
H4 C9 1_555 1_555
C10 C6 1_555 1_555
H5 C10 1_555 1_555
C11 H6 1_555 1_555
C12 H7 1_555 1_555
C13 H8 1_555 1_555
C14 C11 1_555 1_555
H9 C14 1_555 1_555
H10 C14 1_555 1_555
C15 C13 1_555 1_555
C16 N4 1_555 1_555
H11 C16 1_555 1_555
H12 C16 1_555 1_555
C17 C13 1_555 1_555
H13 C17 1_555 1_555
H14 C17 1_555 1_555
C18 N3 1_555 1_555
H15 C18 1_555 1_555
H16 C18 1_555 1_555
C19 C7 1_555 1_555
C20 C11 1_555 1_555
H17 C20 1_555 1_555
H18 C20 1_555 1_555
C21 H19 1_555 1_555
C22 C10 1_555 1_555
C23 C13 1_555 1_555
H20 C23 1_555 1_555
H21 C23 1_555 1_555
C24 C9 1_555 1_555
C25 C5 1_555 1_555
C26 H22 1_555 1_555
C27 C21 1_555 1_555
H23 C27 1_555 1_555
C28 C19 1_555 1_555
H24 C28 1_555 1_555
H25 C28 1_555 1_555
H26 C28 1_555 1_555
C29 C25 1_555 1_555
H27 C29 1_555 1_555
H28 C29 1_555 1_555
H29 C29 1_555 1_555
C30 C22 1_555 1_555
H30 C30 1_555 1_555
H31 C30 1_555 1_555
H32 C30 1_555 1_555
C31 C24 1_555 1_555
H33 C31 1_555 1_555
H34 C31 1_555 1_555
H35 C31 1_555 1_555
C32 C12 1_555 1_555
C33 C12 1_555 1_555
C34 N2 1_555 1_555
H36 C34 1_555 1_555
O5 H37 1_555 1_555
H38 O5 1_555 1_555
Co1_2 N1 1_555 1_555
Co1A O3 1_555 1_555
O3A Co1 1_555 1_555
N1_2 Co1 1_555 1_555
N4 C34 1_555 1_555
C4 C6 1_555 1_555
C14 C23 1_555 1_555
C16 C33 1_555 1_555
C17 C20 1_555 1_555
C18 C32 1_555 1_555
C19 C25 1_555 1_555
C21 C32 1_555 1_555
C22 C24 1_555 1_555
C26 C27 1_555 1_555
C26 C33 1_555 1_555

#END
