
#######################################################################
#
#                 Cambridge Crystallographic Data Centre
#                                CCDC 
#
#######################################################################
#
# If this CIF has been generated from an entry in the Cambridge 
# Structural Database, then it will include bibliographic, chemical, 
# crystal, experimental, refinement or atomic coordinate data resulting 
# from the CCDC's data processing and validation procedures.
#
#######################################################################

data_DICYAR
_symmetry_cell_setting           monoclinic
_symmetry_space_group_name_H-M   'P 21/c'
_symmetry_Int_Tables_number      14
_space_group_name_Hall           '-P 2ybc'
loop_
_symmetry_equiv_pos_site_id
_symmetry_equiv_pos_as_xyz
1 x,y,z
2 -x,1/2+y,1/2-z
3 -x,-y,-z
4 x,1/2-y,1/2+z
_cell_length_a                   11.6581(12)
_cell_length_b                   21.871(2)
_cell_length_c                   9.3143(10)
_cell_angle_alpha                90
_cell_angle_beta                 96.511(2)
_cell_angle_gamma                90
_cell_volume                     2359.59
loop_
_atom_site_label
_atom_site_type_symbol
_atom_site_fract_x
_atom_site_fract_y
_atom_site_fract_z
Cu1 Cu 0.5000 0.0000 0.5000
N1 N 0.4578(2) 0.17306(12) 0.3197(3)
N2 N 0.5085(2) 0.08584(12) 0.4312(3)
C1 C 0.2416(3) 0.46263(13) 0.0078(4)
C2 C 0.1789(3) 0.43743(13) 0.1112(4)
C3 C 0.5741(3) 0.13336(14) 0.5002(4)
C4 C 0.0804(3) 0.44727(15) -0.1696(4)
C5 C 0.1916(3) 0.46814(14) -0.1331(4)
H1 H 0.2324 0.4857 -0.2027
N3 N 0.2491(3) 0.44085(12) 0.2403(3)
N4 N 0.3497(2) 0.48071(12) 0.0747(4)
C6 C 0.0683(3) 0.41556(14) 0.0768(4)
H2 H 0.0280 0.3980 0.1470
C7 C 0.4423(3) 0.11233(15) 0.3248(4)
H3 H 0.3902 0.0911 0.2600
C8 C 0.3032(3) 0.25000(15) 0.3022(4)
C9 C 0.5419(3) 0.18799(14) 0.4314(4)
C10 C 0.2202(3) 0.21913(16) 0.3686(4)
H4 H 0.2190 0.1766 0.3680
C11 C 0.7156(3) 0.18634(18) 0.6557(4)
C12 C 0.6617(3) 0.13227(16) 0.6128(4)
H5 H 0.6840 0.0957 0.6590
C13 C 0.3903(3) 0.21590(15) 0.2239(4)
H6 H 0.3503 0.1937 0.1431
H7 H 0.4419 0.2450 0.1858
C14 C 0.0190(3) 0.42038(15) -0.0642(4)
C15 C 0.5931(3) 0.24342(15) 0.4755(4)
H8 H 0.5698 0.2799 0.4299
C16 C 0.3035(3) 0.31311(15) 0.3065(3)
H9 H 0.3597 0.3345 0.2635
C17 C 0.1399(3) 0.31354(19) 0.4369(4)
H10 H 0.0843 0.3346 0.4814
C18 C 0.6795(3) 0.24218(16) 0.5891(4)
C19 C 0.2222(3) 0.34532(15) 0.3732(4)
C20 C 0.1396(4) 0.25074(19) 0.4353(5)
H11 H 0.0843 0.2295 0.4798
C21 C 0.8167(3) 0.1853(2) 0.7740(4)
H12 H 0.8241 0.1452 0.8157
H13 H 0.8036 0.2145 0.8474
H14 H 0.8864 0.1957 0.7335
C22 C 0.0241(4) 0.4554(2) -0.3231(4)
H15 H -0.0475 0.4770 -0.3222
H16 H 0.0746 0.4782 -0.3775
H17 H 0.0094 0.4160 -0.3669
C23 C 0.3483(4) 0.46668(16) 0.2118(5)
H18 H 0.4100 0.4740 0.2821
C24 C 0.7361(4) 0.30145(18) 0.6419(4)
H19 H 0.7011 0.3348 0.5861
H20 H 0.8170 0.2999 0.6312
H21 H 0.7262 0.3073 0.7419
C25 C -0.1011(3) 0.39588(19) -0.1049(5)
H22 H -0.0978 0.3615 -0.1683
H23 H -0.1334 0.3833 -0.0192
H24 H -0.1485 0.4272 -0.1531
C26 C 0.2262(4) 0.41475(16) 0.3780(4)
H25 H 0.2861 0.4276 0.4527
H26 H 0.1530 0.4302 0.4031
N1B N 0.5422(2) -0.17306(12) 0.6803(3)
N2B N 0.4915(2) -0.08584(12) 0.5688(3)
C1B C 0.7584(3) -0.46263(13) 0.9922(4)
C2B C 0.8211(3) -0.43743(13) 0.8888(4)
C3B C 0.4259(3) -0.13336(14) 0.4998(4)
C4B C 0.9196(3) -0.44727(15) 1.1696(4)
C5B C 0.8084(3) -0.46814(14) 1.1331(4)
H1B H 0.7676 -0.4857 1.2027
N3B N 0.7509(3) -0.44085(12) 0.7597(3)
N4B N 0.6503(2) -0.48071(12) 0.9253(4)
C6B C 0.9317(3) -0.41556(14) 0.9232(4)
H2B H 0.9720 -0.3980 0.8530
C7B C 0.5577(3) -0.11233(15) 0.6752(4)
H3B H 0.6098 -0.0911 0.7400
C8B C 0.6968(3) -0.25000(15) 0.6978(4)
C9B C 0.4581(3) -0.18799(14) 0.5686(4)
C10B C 0.7798(3) -0.21913(16) 0.6314(4)
H4B H 0.7810 -0.1766 0.6320
C11B C 0.2844(3) -0.18634(18) 0.3443(4)
C12B C 0.3383(3) -0.13227(16) 0.3872(4)
H5B H 0.3160 -0.0957 0.3410
C13B C 0.6097(3) -0.21590(15) 0.7761(4)
H6B H 0.6497 -0.1937 0.8569
H7B H 0.5581 -0.2450 0.8142
C14B C 0.9810(3) -0.42038(15) 1.0642(4)
C15B C 0.4069(3) -0.24342(15) 0.5245(4)
H8B H 0.4302 -0.2799 0.5701
C16B C 0.6965(3) -0.31311(15) 0.6935(3)
H9B H 0.6403 -0.3345 0.7365
C17B C 0.8601(3) -0.31354(19) 0.5631(4)
H10B H 0.9157 -0.3346 0.5186
C18B C 0.3205(3) -0.24218(16) 0.4109(4)
C19B C 0.7778(3) -0.34532(15) 0.6268(4)
C20B C 0.8604(4) -0.25074(19) 0.5647(5)
H11B H 0.9157 -0.2295 0.5202
C21B C 0.1833(3) -0.1853(2) 0.2260(4)
H12B H 0.1759 -0.1452 0.1843
H13B H 0.1964 -0.2145 0.1526
H14B H 0.1136 -0.1957 0.2665
C22B C 0.9759(4) -0.4554(2) 1.3231(4)
H15B H 1.0475 -0.4770 1.3222
H16B H 0.9254 -0.4782 1.3775
H17B H 0.9906 -0.4160 1.3669
C23B C 0.6517(4) -0.46668(16) 0.7882(5)
H18B H 0.5900 -0.4740 0.7179
C24B C 0.2639(4) -0.30145(18) 0.3581(4)
H19B H 0.2989 -0.3348 0.4139
H20B H 0.1830 -0.2999 0.3688
H21B H 0.2738 -0.3073 0.2581
C25B C 1.1011(3) -0.39588(19) 1.1049(5)
H22B H 1.0978 -0.3615 1.1683
H23B H 1.1334 -0.3833 1.0192
H24B H 1.1485 -0.4272 1.1531
C26B C 0.7738(4) -0.41475(16) 0.6220(4)
H25B H 0.7139 -0.4276 0.5473
H26B H 0.8470 -0.4302 0.5969
Cu1A Cu 0.5000 -0.5000 1.0000
Cu1A_2 Cu 0.5000 0.5000 0.0000
N4A N 0.6503(2) -0.01929(12) 0.4253(4)
N4C N 0.3497(2) 0.01929(12) 0.5747(4)
O1 O 0.3983(3) 0.98984(14) 0.1821(4)
N5 N 0.3741(3) 0.95110(16) 0.0839(4)
O2 O 0.4468(3) 0.91209(16) 0.0627(4)
O3 O 0.2776(3) 0.95025(15) 0.0184(5)
loop_
_geom_bond_atom_site_label_1
_geom_bond_atom_site_label_2
_geom_bond_site_symmetry_1
_geom_bond_site_symmetry_2
Cu1 N2 1_555 1_555
N1 C7 1_555 1_555
N2 C3 1_555 1_555
C1 C2 1_555 1_555
C2 N3 1_555 1_555
C3 C9 1_555 1_555
C4 C5 1_555 1_555
C5 C1 1_555 1_555
H1 C5 1_555 1_555
N3 C23 1_555 1_555
N4 C1 1_555 1_555
C6 C2 1_555 1_555
H2 C6 1_555 1_555
C7 N2 1_555 1_555
H3 C7 1_555 1_555
C8 C10 1_555 1_555
C9 N1 1_555 1_555
C10 H4 1_555 1_555
C11 C12 1_555 1_555
C12 C3 1_555 1_555
H5 C12 1_555 1_555
C13 N1 1_555 1_555
H6 C13 1_555 1_555
H7 C13 1_555 1_555
C14 C4 1_555 1_555
C15 C9 1_555 1_555
H8 C15 1_555 1_555
C16 C8 1_555 1_555
H9 C16 1_555 1_555
C17 H10 1_555 1_555
C18 C11 1_555 1_555
C19 C16 1_555 1_555
C20 C10 1_555 1_555
H11 C20 1_555 1_555
C21 C11 1_555 1_555
H12 C21 1_555 1_555
H13 C21 1_555 1_555
H14 C21 1_555 1_555
C22 C4 1_555 1_555
H15 C22 1_555 1_555
H16 C22 1_555 1_555
H17 C22 1_555 1_555
C23 N4 1_555 1_555
H18 C23 1_555 1_555
C24 C18 1_555 1_555
H19 C24 1_555 1_555
H20 C24 1_555 1_555
H21 C24 1_555 1_555
C25 C14 1_555 1_555
H22 C25 1_555 1_555
H23 C25 1_555 1_555
H24 C25 1_555 1_555
C26 N3 1_555 1_555
H25 C26 1_555 1_555
H26 C26 1_555 1_555
O1 N5 1_555 1_555
N5 O2 1_555 1_555
O3 N5 1_555 1_555
N1B C7B 1_555 1_555
N2B Cu1 1_555 1_555
C1B C2B 1_555 1_555
C2B N3B 1_555 1_555
C3B N2B 1_555 1_555
C4B C5B 1_555 1_555
C5B C1B 1_555 1_555
H1B C5B 1_555 1_555
N3B C23B 1_555 1_555
N4B C1B 1_555 1_555
C6B C2B 1_555 1_555
H2B C6B 1_555 1_555
C7B N2B 1_555 1_555
H3B C7B 1_555 1_555
C8B C10B 1_555 1_555
C9B N1B 1_555 1_555
C10B H4B 1_555 1_555
C11B C12B 1_555 1_555
C12B C3B 1_555 1_555
H5B C12B 1_555 1_555
C13B N1B 1_555 1_555
H6B C13B 1_555 1_555
H7B C13B 1_555 1_555
C14B C4B 1_555 1_555
C15B C9B 1_555 1_555
H8B C15B 1_555 1_555
C16B C8B 1_555 1_555
H9B C16B 1_555 1_555
C17B H10B 1_555 1_555
C18B C11B 1_555 1_555
C19B C16B 1_555 1_555
C20B C10B 1_555 1_555
H11B C20B 1_555 1_555
C21B C11B 1_555 1_555
H12B C21B 1_555 1_555
H13B C21B 1_555 1_555
H14B C21B 1_555 1_555
C22B C4B 1_555 1_555
H15B C22B 1_555 1_555
H16B C22B 1_555 1_555
H17B C22B 1_555 1_555
C23B N4B 1_555 1_555
H18B C23B 1_555 1_555
C24B C18B 1_555 1_555
H19B C24B 1_555 1_555
H20B C24B 1_555 1_555
H21B C24B 1_555 1_555
C25B C14B 1_555 1_555
H22B C25B 1_555 1_555
H23B C25B 1_555 1_555
H24B C25B 1_555 1_555
C26B N3B 1_555 1_555
H25B C26B 1_555 1_555
H26B C26B 1_555 1_555
Cu1A N4B 1_555 1_555
Cu1A_2 N4 1_555 1_555
N4A Cu1 1_555 1_555
N4C Cu1 1_555 1_555
C6 C14 1_555 1_555
C8 C13 1_555 1_555
C15 C18 1_555 1_555
C17 C19 1_555 1_555
C17 C20 1_555 1_555
C19 C26 1_555 1_555
C3B C9B 1_555 1_555
C6B C14B 1_555 1_555
C8B C13B 1_555 1_555
C15B C18B 1_555 1_555
C17B C19B 1_555 1_555
C17B C20B 1_555 1_555
C19B C26B 1_555 1_555

#END
