
#######################################################################
#
#                 Cambridge Crystallographic Data Centre
#                                CCDC 
#
#######################################################################
#
# If this CIF has been generated from an entry in the Cambridge 
# Structural Database, then it will include bibliographic, chemical, 
# crystal, experimental, refinement or atomic coordinate data resulting 
# from the CCDC's data processing and validation procedures.
#
#######################################################################

data_DIDBOJ
_symmetry_cell_setting           tetragonal
_symmetry_space_group_name_H-M   'P 4 21 2'
_symmetry_Int_Tables_number      90
_space_group_name_Hall           'P 4ab 2ab'
loop_
_symmetry_equiv_pos_site_id
_symmetry_equiv_pos_as_xyz
1 x,y,z
2 1/2-y,1/2+x,z
3 -x,-y,z
4 1/2+y,1/2-x,z
5 1/2+x,1/2-y,-z
6 y,x,-z
7 1/2-x,1/2+y,-z
8 -y,-x,-z
_cell_length_a                   22.614(2)
_cell_length_b                   22.614(2)
_cell_length_c                   12.854(2)
_cell_angle_alpha                90
_cell_angle_beta                 90
_cell_angle_gamma                90
_cell_volume                     6573.45
loop_
_atom_site_label
_atom_site_type_symbol
_atom_site_fract_x
_atom_site_fract_y
_atom_site_fract_z
Co1 Co 0.24310(2) 0.23192(2) 0.24748(5)
C1 C 0.2042(2) -0.1491(2) -0.1951(4)
H1 H 0.1859 -0.1543 -0.2593
C2 C 0.1913(3) -0.0980(2) -0.1396(4)
H2 H 0.1645 -0.0703 -0.1648
C3 C 0.2200(3) -0.0898(2) -0.0440(3)
C4 C 0.2592(3) -0.1327(2) -0.0116(4)
H3 H 0.2802 -0.1275 0.0499
C5 C 0.2674(2) -0.1832(2) -0.0702(4)
H4 H 0.2920 -0.2127 -0.0443
C6 C 0.2145(2) -0.0316(2) 0.0130(4)
C7 C 0.2007(2) 0.0203(2) -0.0382(4)
H5 H 0.1917 0.0195 -0.1088
C8 C 0.2001(2) 0.0742(2) 0.0157(3)
H6 H 0.1923 0.1094 -0.0191
C9 C 0.2114(2) 0.0742(2) 0.1213(3)
C10 C 0.2211(3) 0.0227(2) 0.1763(4)
H7 H 0.2257 0.0231 0.2482
C11 C 0.2238(3) -0.0295(2) 0.1206(4)
H8 H 0.2322 -0.0645 0.1557
C12 C 0.2170(2) 0.1321(2) 0.1768(4)
C13 C 0.6128(3) 0.2448(4) 0.7283(4)
H9 H 0.6128 0.2514 0.7997
C14 C 0.5573(3) 0.2341(4) 0.6812(5)
H10 H 0.5231 0.2295 0.7204
C15 C 0.5567(2) 0.2308(3) 0.5772(4)
C16 C 0.6098(2) 0.2297(3) 0.5273(4)
H11 H 0.6106 0.2243 0.4556
C17 C 0.6610(2) 0.2363(2) 0.5789(4)
H12 H 0.6961 0.2338 0.5415
C18 C 0.4998(2) 0.2261(3) 0.5184(4)
C19 C 0.4482(2) 0.2544(3) 0.5532(4)
H13 H 0.4481 0.2724 0.6183
C20 C 0.3994(2) 0.2561(3) 0.4956(4)
H14 H 0.3675 0.2789 0.5174
C21 C 0.3954(2) 0.2244(2) 0.4030(4)
C22 C 0.4450(2) 0.1975(3) 0.3684(4)
H15 H 0.4439 0.1790 0.3038
C23 C 0.4977(3) 0.1961(3) 0.4249(4)
H16 H 0.5305 0.1756 0.4002
C24 C 0.3404(2) 0.2283(2) 0.3399(4)
O1 O 0.21476(15) 0.17969(14) 0.1256(2)
O2 O 0.22636(19) 0.13425(15) 0.2727(3)
O3 O 0.29483(14) 0.25079(15) 0.3767(2)
O4 O 0.34060(14) 0.20633(15) 0.2481(3)
N1 N 0.24145(18) -0.19155(16) -0.1624(3)
N2 N 0.66397(19) 0.2463(2) 0.6821(3)
Co1D Co 0.74310(2) 0.26808(2) 0.75252(5)
Co1F Co 0.25690(2) -0.26808(2) -0.24748(5)
N1F N 0.25855(18) 0.30845(16) 0.1624(3)
N2D N 0.16397(19) 0.2537(2) 0.3179(3)
loop_
_geom_bond_atom_site_label_1
_geom_bond_atom_site_label_2
_geom_bond_site_symmetry_1
_geom_bond_site_symmetry_2
Co1 O1 1_555 1_555
C1 H1 1_555 1_555
C2 C1 1_555 1_555
H2 C2 1_555 1_555
C3 C2 1_555 1_555
C4 C3 1_555 1_555
H3 C4 1_555 1_555
C5 C4 1_555 1_555
H4 C5 1_555 1_555
C6 C3 1_555 1_555
C7 C6 1_555 1_555
H5 C7 1_555 1_555
C8 C7 1_555 1_555
H6 C8 1_555 1_555
C9 C8 1_555 1_555
C10 C9 1_555 1_555
H7 C10 1_555 1_555
C11 C6 1_555 1_555
H8 C11 1_555 1_555
C12 C9 1_555 1_555
C13 H9 1_555 1_555
C14 C13 1_555 1_555
H10 C14 1_555 1_555
C15 C14 1_555 1_555
C16 C15 1_555 1_555
H11 C16 1_555 1_555
C17 C16 1_555 1_555
H12 C17 1_555 1_555
C18 C15 1_555 1_555
C19 C18 1_555 1_555
H13 C19 1_555 1_555
C20 C19 1_555 1_555
H14 C20 1_555 1_555
C21 C20 1_555 1_555
C22 C21 1_555 1_555
H15 C22 1_555 1_555
C23 C18 1_555 1_555
H16 C23 1_555 1_555
C24 C21 1_555 1_555
O1 C12 1_555 1_555
O2 Co1 1_555 1_555
O3 Co1 1_555 1_555
O4 Co1 1_555 1_555
N1 C1 1_555 1_555
N2 C13 1_555 1_555
Co1D N2 1_555 1_555
Co1F N1 1_555 1_555
N1F Co1 1_555 1_555
N2D Co1 1_555 1_555
C5 N1 1_555 1_555
C10 C11 1_555 1_555
C12 O2 1_555 1_555
C17 N2 1_555 1_555
C22 C23 1_555 1_555
C24 O3 1_555 1_555
C24 O4 1_555 1_555

#END
