
#######################################################################
#
#                 Cambridge Crystallographic Data Centre
#                                CCDC 
#
#######################################################################
#
# If this CIF has been generated from an entry in the Cambridge 
# Structural Database, then it will include bibliographic, chemical, 
# crystal, experimental, refinement or atomic coordinate data resulting 
# from the CCDC's data processing and validation procedures.
#
#######################################################################

data_DIDDIE
_symmetry_cell_setting           triclinic
_symmetry_space_group_name_H-M   'P -1'
_symmetry_Int_Tables_number      2
_space_group_name_Hall           '-P 1'
loop_
_symmetry_equiv_pos_site_id
_symmetry_equiv_pos_as_xyz
1 x,y,z
2 -x,-y,-z
_cell_length_a                   9.792(6)
_cell_length_b                   14.138(8)
_cell_length_c                   14.475(8)
_cell_angle_alpha                99.660(6)
_cell_angle_beta                 103.095(5)
_cell_angle_gamma                107.615(5)
_cell_volume                     1798.97
loop_
_atom_site_label
_atom_site_type_symbol
_atom_site_fract_x
_atom_site_fract_y
_atom_site_fract_z
Zn1 Zn 1.37847(5) 0.53938(3) 0.67977(3)
O1 O 1.3996(4) 0.6721(2) 0.6298(2)
O2 O 1.5712(4) 0.6838(2) 0.7616(3)
O3 O 1.5284(3) 1.4673(2) 0.6172(2)
O4 O 1.4527(4) 1.4340(2) 0.7428(2)
O5 O 1.8240(3) 1.1373(2) 0.7130(2)
O6 O 1.1962(3) 0.4464(2) 0.5652(2)
N1 N 1.2491(4) 0.5506(2) 0.7763(2)
N2 N 1.0441(4) 0.5419(3) 1.0022(3)
N3 N 1.0895(4) 0.3672(3) 0.4051(3)
C1 C 1.5176(5) 0.7239(3) 0.6971(3)
C2 C 1.5971(4) 0.8342(3) 0.7032(3)
C3 C 1.5223(5) 0.8867(3) 0.6508(3)
C4 C 1.5947(5) 0.9894(3) 0.6561(3)
C5 C 1.7419(4) 1.0373(3) 0.7113(3)
C6 C 1.8165(5) 0.9868(3) 0.7639(3)
C7 C 1.7435(5) 0.8853(3) 0.7614(3)
C8 C 1.5249(5) 1.4207(3) 0.6831(3)
C9 C 1.6063(5) 1.3469(3) 0.6917(3)
C10 C 1.6096(5) 1.2998(3) 0.7692(3)
C11 C 1.6809(5) 1.2293(3) 0.7760(3)
C12 C 1.7468(4) 1.2055(3) 0.7061(3)
C13 C 1.7434(5) 1.2498(3) 0.6279(3)
C14 C 1.6734(5) 1.3215(3) 0.6212(3)
C15 C 1.2964(5) 0.6267(3) 0.8568(3)
C16 C 1.2287(5) 0.6268(3) 0.9305(3)
C17 C 1.1055(5) 0.5424(3) 0.9211(3)
C18 C 1.0514(5) 0.4638(3) 0.8370(3)
C19 C 1.1247(5) 0.4706(3) 0.7657(3)
C20 C 1.2054(5) 0.4234(3) 0.4813(3)
C21 C 0.9403(6) 0.3293(4) 0.4158(4)
C22 C 1.1064(7) 0.3404(6) 0.3079(4)
H1 H 1.4213 0.8522 0.6112
H2 H 1.5427 1.0259 0.6218
H3 H 1.9183 1.0212 0.8021
H4 H 1.7941 0.8509 0.7997
H5 H 1.5629 1.3162 0.8174
H6 H 1.6840 1.1976 0.8290
H7 H 1.7884 1.2315 0.5793
H8 H 1.6714 1.3531 0.5682
H9 H 1.3821 0.6847 0.8640
H10 H 1.2661 0.6836 0.9863
H11 H 0.9649 0.4057 0.8280
H12 H 1.0858 0.4168 0.7072
H13 H 1.3013 0.4474 0.4713
H14 H 0.9136 0.3856 0.4405
H15 H 0.8706 0.2906 0.3538
H16 H 0.9391 0.2868 0.4602
H17 H 1.0110 0.3007 0.2623
H18 H 1.1485 0.4013 0.2889
H19 H 1.1707 0.3017 0.3091
Zn1_2 Zn 1.37847(5) -0.46062(3) 0.67977(3)
Zn1_3 Zn 1.37847(5) 1.53938(3) 0.67977(3)
Zn1A Zn 0.62153(5) 0.46062(3) 1.32023(3)
O1_2 O 1.3996(4) -0.3279(2) 0.6298(2)
O2_2 O 1.5712(4) -0.3162(2) 0.7616(3)
O3_2 O 1.5284(3) 0.4673(2) 0.6172(2)
O3_3 O 1.5284(3) -0.5327(2) 0.6172(2)
O4_2 O 1.4527(4) 0.4340(2) 0.7428(2)
O4_3 O 1.4527(4) -0.5660(2) 0.7428(2)
O5_2 O 1.8240(3) 0.1373(2) 0.7130(2)
O6_2 O 1.1962(3) -0.5536(2) 0.5652(2)
N1A N 0.7509(4) 0.4494(2) 1.2237(2)
N1_2 N 1.2491(4) -0.4494(2) 0.7763(2)
N2A N 0.9559(4) 0.4581(3) 0.9978(3)
N3_2 N 1.0895(4) -0.6328(3) 0.4051(3)
C1_2 C 1.5176(5) -0.2761(3) 0.6971(3)
C2_2 C 1.5971(4) -0.1658(3) 0.7032(3)
C3_2 C 1.5223(5) -0.1133(3) 0.6508(3)
C4_2 C 1.5947(5) -0.0106(3) 0.6561(3)
C5_2 C 1.7419(4) 0.0373(3) 0.7113(3)
C6_2 C 1.8165(5) -0.0132(3) 0.7639(3)
C7_2 C 1.7435(5) -0.1147(3) 0.7614(3)
C8_2 C 1.5249(5) 0.4207(3) 0.6831(3)
C9_2 C 1.6063(5) 0.3469(3) 0.6917(3)
C10_2 C 1.6096(5) 0.2998(3) 0.7692(3)
C11_2 C 1.6809(5) 0.2293(3) 0.7760(3)
C12_2 C 1.7468(4) 0.2055(3) 0.7061(3)
C13_2 C 1.7434(5) 0.2498(3) 0.6279(3)
C14_2 C 1.6734(5) 0.3215(3) 0.6212(3)
C15A C 0.7036(5) 0.3733(3) 1.1432(3)
C16A C 0.7713(5) 0.3732(3) 1.0695(3)
C17A C 0.8945(5) 0.4576(3) 1.0789(3)
C18A C 0.9486(5) 0.5362(3) 1.1630(3)
C19A C 0.8753(5) 0.5294(3) 1.2343(3)
C20_2 C 1.2054(5) -0.5766(3) 0.4813(3)
C21_2 C 0.9403(6) -0.6707(4) 0.4158(4)
C22_2 C 1.1064(7) -0.6596(6) 0.3079(4)
H1_2 H 1.4213 -0.1478 0.6112
H2_2 H 1.5427 0.0259 0.6218
H3_2 H 1.9183 0.0212 0.8021
H4_2 H 1.7941 -0.1491 0.7997
H5_2 H 1.5629 0.3162 0.8174
H6_2 H 1.6840 0.1976 0.8290
H7_2 H 1.7884 0.2315 0.5793
H8_2 H 1.6714 0.3531 0.5682
H9A H 0.6179 0.3153 1.1360
H10A H 0.7339 0.3164 1.0137
H11A H 1.0351 0.5943 1.1720
H12A H 0.9142 0.5832 1.2928
H13_2 H 1.3013 -0.5526 0.4713
H14_2 H 0.9136 -0.6144 0.4405
H15_2 H 0.8706 -0.7094 0.3538
H16_2 H 0.9391 -0.7132 0.4602
H17_2 H 1.0110 -0.6993 0.2623
H18_2 H 1.1485 -0.5987 0.2889
H19_2 H 1.1707 -0.6983 0.3091
O7 O 1.5035(6) 1.1596(4) 0.9522(4)
N4 N 1.3194(6) 1.0070(4) 0.9166(4)
C23 C 1.423(1) 1.0787(8) 0.913(1)
C24 C 1.262(2) 1.018(1) 0.9962(9)
C25 C 1.238(2) 0.9105(9) 0.855(1)
H20 H 1.4457 1.0591 0.8533
H21 H 1.3206 1.0822 1.0415
H22 H 1.1613 1.0138 0.9738
H23 H 1.2659 0.9642 1.0276
H24 H 1.1367 0.9046 0.8303
H25 H 1.2791 0.9001 0.8027
H26 H 1.2428 0.8604 0.8911
O8 O 1.0422(9) 1.2415(7) 1.0552(8)
N5 N 1.2161(6) 1.3174(4) 0.9921(4)
C26 C 1.158(1) 1.3081(9) 1.0640(8)
C27 C 1.159(2) 1.2476(9) 0.9018(8)
C28 C 1.351(1) 1.3951(7) 1.0113(9)
H27 H 1.2096 1.3559 1.1261
H28 H 1.0681 1.1963 0.8998
H29 H 1.1386 1.2818 0.8520
H30 H 1.2291 1.2165 0.8915
H31 H 1.4234 1.3875 1.0626
H32 H 1.3827 1.3923 0.9539
H33 H 1.3396 1.4593 1.0306
O9 O 1.1827(9) 0.9438(6) 0.5938(6)
N6 N 1.1938(6) 1.1016(4) 0.5800(4)
C29 C 1.201(1) 1.0083(9) 0.5497(9)
C30 C 1.165(1) 1.142(2) 0.6573(9)
C31 C 1.217(1) 1.1660(8) 0.5137(8)
H34 H 1.2217 0.9928 0.4891
H35 H 1.2455 1.2040 0.6928
H36 H 1.0752 1.1560 0.6378
H37 H 1.1529 1.0954 0.6976
H38 H 1.2983 1.2285 0.5473
H39 H 1.2403 1.1319 0.4602
H40 H 1.1290 1.1803 0.4898
loop_
_geom_bond_atom_site_label_1
_geom_bond_atom_site_label_2
_geom_bond_site_symmetry_1
_geom_bond_site_symmetry_2
Zn1 O1 1_555 1_555
O1 C1 1_555 1_555
O2 Zn1 1_555 1_555
O3 C8 1_555 1_555
O4 C8 1_555 1_555
O5 C5 1_555 1_555
O6 Zn1 1_555 1_555
O7 C23 1_555 1_555
O8 C26 1_555 1_555
O9 C29 1_555 1_555
N1 Zn1 1_555 1_555
N2 C17 1_555 1_555
N3 C20 1_555 1_555
N4 C23 1_555 1_555
N5 C26 1_555 1_555
N6 C29 1_555 1_555
C1 O2 1_555 1_555
C2 C1 1_555 1_555
C3 C2 1_555 1_555
C4 C3 1_555 1_555
C5 C4 1_555 1_555
C6 C5 1_555 1_555
C7 C2 1_555 1_555
C8 C9 1_555 1_555
C9 C10 1_555 1_555
C10 C11 1_555 1_555
C11 C12 1_555 1_555
C12 O5 1_555 1_555
C13 C12 1_555 1_555
C14 C9 1_555 1_555
C15 N1 1_555 1_555
C16 C15 1_555 1_555
C17 C16 1_555 1_555
C18 C17 1_555 1_555
C19 N1 1_555 1_555
C20 O6 1_555 1_555
C21 N3 1_555 1_555
C22 N3 1_555 1_555
C23 H20 1_555 1_555
C24 N4 1_555 1_555
C25 N4 1_555 1_555
C26 H27 1_555 1_555
C27 N5 1_555 1_555
C28 N5 1_555 1_555
C29 H34 1_555 1_555
C30 N6 1_555 1_555
C31 N6 1_555 1_555
H1 C3 1_555 1_555
H2 C4 1_555 1_555
H3 C6 1_555 1_555
H4 C7 1_555 1_555
H5 C10 1_555 1_555
H6 C11 1_555 1_555
H7 C13 1_555 1_555
H8 C14 1_555 1_555
H9 C15 1_555 1_555
H10 C16 1_555 1_555
H11 C18 1_555 1_555
H12 C19 1_555 1_555
H13 C20 1_555 1_555
H14 C21 1_555 1_555
H15 C21 1_555 1_555
H16 C21 1_555 1_555
H17 C22 1_555 1_555
H18 C22 1_555 1_555
H19 C22 1_555 1_555
H21 C24 1_555 1_555
H22 C24 1_555 1_555
H23 C24 1_555 1_555
H24 C25 1_555 1_555
H25 C25 1_555 1_555
H26 C25 1_555 1_555
H28 C27 1_555 1_555
H29 C27 1_555 1_555
H30 C27 1_555 1_555
H31 C28 1_555 1_555
H32 C28 1_555 1_555
H33 C28 1_555 1_555
H35 C30 1_555 1_555
H36 C30 1_555 1_555
H37 C30 1_555 1_555
H38 C31 1_555 1_555
H39 C31 1_555 1_555
H40 C31 1_555 1_555
Zn1_2 O1_2 1_555 1_555
Zn1_3 O3 1_555 1_555
Zn1A N1A 1_555 1_555
O1_2 C1_2 1_555 1_555
O2_2 Zn1_2 1_555 1_555
O3_2 Zn1 1_555 1_555
O3_3 Zn1_2 1_555 1_555
O4_2 Zn1 1_555 1_555
O4_3 Zn1_2 1_555 1_555
O5_2 C5_2 1_555 1_555
O6_2 Zn1_2 1_555 1_555
N1A C15A 1_555 1_555
N1_2 Zn1_2 1_555 1_555
N2A N2 1_555 1_555
N3_2 C20_2 1_555 1_555
C1_2 O2_2 1_555 1_555
C2_2 C1_2 1_555 1_555
C3_2 C2_2 1_555 1_555
C4_2 C3_2 1_555 1_555
C5_2 C4_2 1_555 1_555
C6_2 C5_2 1_555 1_555
C7_2 C2_2 1_555 1_555
C8_2 O3_2 1_555 1_555
C9_2 C8_2 1_555 1_555
C10_2 C9_2 1_555 1_555
C11_2 C10_2 1_555 1_555
C12_2 O5_2 1_555 1_555
C13_2 C12_2 1_555 1_555
C14_2 C9_2 1_555 1_555
C15A C16A 1_555 1_555
C16A C17A 1_555 1_555
C17A N2A 1_555 1_555
C18A C17A 1_555 1_555
C19A N1A 1_555 1_555
C20_2 O6_2 1_555 1_555
C21_2 N3_2 1_555 1_555
C22_2 N3_2 1_555 1_555
H1_2 C3_2 1_555 1_555
H2_2 C4_2 1_555 1_555
H3_2 C6_2 1_555 1_555
H4_2 C7_2 1_555 1_555
H5_2 C10_2 1_555 1_555
H6_2 C11_2 1_555 1_555
H7_2 C13_2 1_555 1_555
H8_2 C14_2 1_555 1_555
H9A C15A 1_555 1_555
H10A C16A 1_555 1_555
H11A C18A 1_555 1_555
H12A C19A 1_555 1_555
H13_2 C20_2 1_555 1_555
H14_2 C21_2 1_555 1_555
H15_2 C21_2 1_555 1_555
H16_2 C21_2 1_555 1_555
H17_2 C22_2 1_555 1_555
H18_2 C22_2 1_555 1_555
H19_2 C22_2 1_555 1_555
O4 Zn1_3 1_555 1_555
C6 C7 1_555 1_555
C13 C14 1_555 1_555
C18 C19 1_555 1_555
O4_2 C8_2 1_555 1_555
C6_2 C7_2 1_555 1_555
C11_2 C12_2 1_555 1_555
C13_2 C14_2 1_555 1_555
C18A C19A 1_555 1_555

#END
