
#######################################################################
#
#                 Cambridge Crystallographic Data Centre
#                                CCDC 
#
#######################################################################
#
# If this CIF has been generated from an entry in the Cambridge 
# Structural Database, then it will include bibliographic, chemical, 
# crystal, experimental, refinement or atomic coordinate data resulting 
# from the CCDC's data processing and validation procedures.
#
#######################################################################

data_DIDHUV
_symmetry_cell_setting           monoclinic
_symmetry_space_group_name_H-M   'P 21/c'
_symmetry_Int_Tables_number      14
_space_group_name_Hall           '-P 2ybc'
loop_
_symmetry_equiv_pos_site_id
_symmetry_equiv_pos_as_xyz
1 x,y,z
2 -x,1/2+y,1/2-z
3 -x,-y,-z
4 x,1/2-y,1/2+z
_cell_length_a                   8.7712(7)
_cell_length_b                   11.9189(9)
_cell_length_c                   16.7270(13)
_cell_angle_alpha                90
_cell_angle_beta                 101.5216(9)
_cell_angle_gamma                90
_cell_volume                     1713.45
loop_
_atom_site_label
_atom_site_type_symbol
_atom_site_fract_x
_atom_site_fract_y
_atom_site_fract_z
Co1 Co 0.27687(4) 0.05668(3) 0.853301(19)
C1 C 0.1240(3) 0.0500(2) 0.33234(15)
C2 C 0.1922(3) 0.06926(19) 0.42218(14)
C3 C 0.0940(3) 0.1134(2) 0.46991(15)
H1 H -0.0057 0.1359 0.4451
C4 C 0.1413(3) 0.1245(2) 0.55356(15)
H2 H 0.0738 0.1558 0.5838
C5 C 0.2878(3) 0.0897(2) 0.59283(14)
C6 C 0.3889(3) 0.04433(19) 0.54605(14)
C7 C 0.3427(3) 0.03704(19) 0.46071(14)
C8 C 0.3357(3) 0.1094(2) 0.68395(15)
C9 C 0.5396(3) -0.0054(2) 0.58803(14)
O1 O 0.5609(2) -0.02709(15) 0.66022(10)
C10 C 0.2027(3) 0.0832(2) 1.03044(16)
H3 H 0.1037 0.1064 1.0048
C11 C 0.2399(3) 0.0806(3) 1.11375(17)
H4 H 0.1672 0.0999 1.1450
C12 C 0.3882(3) 0.0486(2) 1.14991(16)
H5 H 0.4167 0.0484 1.2065
C13 C 0.4440(3) 0.0196(2) 1.02472(14)
N1 N 0.3054(2) 0.05303(17) 0.98467(12)
N2 N 0.4931(2) 0.01763(17) 1.10560(12)
O2 O 0.0643(2) 0.13240(15) 0.29104(10)
O3 O 0.1205(2) -0.04923(15) 0.30679(11)
O4 O 0.4220(2) 0.19091(16) 0.70719(11)
O5 O 0.2743(2) 0.04528(15) 0.72879(10)
O6 O 0.06047(19) 0.14058(14) 0.83016(10)
H6 H 0.0678 0.2106 0.8214
H7 H -0.0017 0.1097 0.7903
O7 O 0.3777(2) 0.21365(14) 0.86247(11)
H8 H 0.4059 0.2166 0.8166
H9 H 0.4571 0.2221 0.9011
O8 O 0.1500(2) -0.08991(14) 0.84465(10)
H10 H 0.0784 -0.0983 0.8020
H11 H 0.2060 -0.1489 0.8518
C1B C 0.8760(3) -0.0500(2) 0.66766(15)
C2B C 0.8078(3) -0.06926(19) 0.57782(14)
C3B C 0.9060(3) -0.1134(2) 0.53009(15)
H1B H 1.0057 -0.1359 0.5549
C4B C 0.8587(3) -0.1245(2) 0.44644(15)
H2B H 0.9262 -0.1558 0.4162
C5B C 0.7122(3) -0.0897(2) 0.40717(14)
C6B C 0.6111(3) -0.04433(19) 0.45395(14)
C7B C 0.6573(3) -0.03704(19) 0.53929(14)
C8B C 0.6643(3) -0.1094(2) 0.31605(15)
C9B C 0.4604(3) 0.0054(2) 0.41197(14)
O1B O 0.4391(2) 0.02709(15) 0.33978(10)
O2B O 0.9357(2) -0.13240(15) 0.70896(10)
O3B O 0.8795(2) 0.04923(15) 0.69321(11)
O4B O 0.5780(2) -0.19091(16) 0.29281(11)
O5B O 0.7257(2) -0.04528(15) 0.27121(10)
C10B C 0.7973(3) -0.0832(2) 0.96956(16)
H3B H 0.8963 -0.1064 0.9952
C11B C 0.7601(3) -0.0806(3) 0.88625(17)
H4B H 0.8328 -0.0999 0.8550
C12B C 0.6118(3) -0.0486(2) 0.85009(16)
H5B H 0.5833 -0.0484 0.7935
C13B C 0.5560(3) -0.0196(2) 0.97528(14)
N1B N 0.6946(2) -0.05303(17) 1.01533(12)
N2B N 0.5069(2) -0.01763(17) 0.89440(12)
Co1B Co 0.72313(4) -0.05668(3) 0.146699(19)
O6B O 0.93953(19) -0.14058(14) 0.16984(10)
H6B H 0.9322 -0.2106 0.1786
H7B H 1.0017 -0.1097 0.2097
O7B O 0.6223(2) -0.21365(14) 0.13753(11)
H8B H 0.5941 -0.2166 0.1834
H9B H 0.5429 -0.2221 0.0989
O8B O 0.8500(2) 0.08991(14) 0.15535(10)
H10B H 0.9216 0.0983 0.1980
H11B H 0.7940 0.1489 0.1482
Co1B_2 Co 0.72313(4) -0.05668(3) 1.146699(19)
N1B_2 N 0.6946(2) -0.05303(17) 0.01533(12)
N2_2 N 0.4931(2) 0.01763(17) 0.10560(12)
O9 O 0.6469(3) 0.2268(2) 0.97267(14)
H12 H 0.6639 0.2591 1.0192
H13 H 0.7092 0.2506 0.9436
O10 O 0.3150(2) 0.71798(15) 0.86272(11)
H14 H 0.2509 0.6654 0.8454
H15 H 0.3921 0.7153 0.8389
O11 O 0.2591(3) 0.8158(2) 0.66124(14)
H16 H 0.2639 0.8838 0.6773
H17 H 0.1887 0.7844 0.6822
loop_
_geom_bond_atom_site_label_1
_geom_bond_atom_site_label_2
_geom_bond_site_symmetry_1
_geom_bond_site_symmetry_2
Co1 N1 1_555 1_555
C1 C2 1_555 1_555
C2 C3 1_555 1_555
C3 H1 1_555 1_555
C4 C3 1_555 1_555
H2 C4 1_555 1_555
C5 C4 1_555 1_555
C6 C5 1_555 1_555
C7 C2 1_555 1_555
C8 C5 1_555 1_555
C9 C6 1_555 1_555
O1 C9 1_555 1_555
C10 H3 1_555 1_555
C11 C10 1_555 1_555
H4 C11 1_555 1_555
C12 C11 1_555 1_555
H5 C12 1_555 1_555
C13 N1 1_555 1_555
N1 C10 1_555 1_555
N2 C12 1_555 1_555
O2 C1 1_555 1_555
O3 C1 1_555 1_555
O4 C8 1_555 1_555
O5 Co1 1_555 1_555
O6 Co1 1_555 1_555
H6 O6 1_555 1_555
H7 O6 1_555 1_555
O7 Co1 1_555 1_555
H8 O7 1_555 1_555
H9 O7 1_555 1_555
O8 Co1 1_555 1_555
H10 O8 1_555 1_555
H11 O8 1_555 1_555
O9 H12 1_555 1_555
H13 O9 1_555 1_555
O10 H14 1_555 1_555
H15 O10 1_555 1_555
O11 H16 1_555 1_555
H17 O11 1_555 1_555
C1B C2B 1_555 1_555
C2B C3B 1_555 1_555
C3B H1B 1_555 1_555
C4B C3B 1_555 1_555
H2B C4B 1_555 1_555
C5B C4B 1_555 1_555
C6B C5B 1_555 1_555
C7B C9 1_555 1_555
C8B C5B 1_555 1_555
C9B C7 1_555 1_555
O1B C9B 1_555 1_555
O2B C1B 1_555 1_555
O3B C1B 1_555 1_555
O4B C8B 1_555 1_555
O5B C8B 1_555 1_555
C10B H3B 1_555 1_555
C11B C10B 1_555 1_555
H4B C11B 1_555 1_555
C12B C11B 1_555 1_555
H5B C12B 1_555 1_555
C13B C13 1_555 1_555
N1B C10B 1_555 1_555
N2B Co1 1_555 1_555
Co1B O5B 1_555 1_555
O6B Co1B 1_555 1_555
H6B O6B 1_555 1_555
H7B O6B 1_555 1_555
O7B Co1B 1_555 1_555
H8B O7B 1_555 1_555
H9B O7B 1_555 1_555
O8B Co1B 1_555 1_555
H10B O8B 1_555 1_555
H11B O8B 1_555 1_555
Co1B_2 N2 1_555 1_555
N1B_2 Co1B 1_555 1_555
N2_2 Co1B 1_555 1_555
C6 C7 1_555 1_555
C8 O5 1_555 1_555
C13 N2 1_555 1_555
C2B C7B 1_555 1_555
C6B C7B 1_555 1_555
C6B C9B 1_555 1_555
C12B N2B 1_555 1_555
C13B N1B 1_555 1_555
C13B N2B 1_555 1_555
N1B Co1B_2 1_555 1_555

#END
