
#######################################################################
#
#                 Cambridge Crystallographic Data Centre
#                                CCDC 
#
#######################################################################
#
# If this CIF has been generated from an entry in the Cambridge 
# Structural Database, then it will include bibliographic, chemical, 
# crystal, experimental, refinement or atomic coordinate data resulting 
# from the CCDC's data processing and validation procedures.
#
#######################################################################

data_DIDKAC
_symmetry_cell_setting           monoclinic
_symmetry_space_group_name_H-M   'P 21/n'
_symmetry_Int_Tables_number      14
_space_group_name_Hall           '-P 2yn'
loop_
_symmetry_equiv_pos_site_id
_symmetry_equiv_pos_as_xyz
1 x,y,z
2 1/2-x,1/2+y,1/2-z
3 -x,-y,-z
4 1/2+x,1/2-y,1/2+z
_cell_length_a                   7.804(4)
_cell_length_b                   5.765(2)
_cell_length_c                   14.164(9)
_cell_angle_alpha                90
_cell_angle_beta                 102.37(1)
_cell_angle_gamma                90
_cell_volume                     622.445
loop_
_atom_site_label
_atom_site_type_symbol
_atom_site_fract_x
_atom_site_fract_y
_atom_site_fract_z
Cd1 Cd 0.0000 0.0000 0.0000
S1 S 0.18919(10) 0.25508(13) 0.16151(5)
C1 C 0.1766(4) 0.5038(5) 0.10238(19)
N1 N 0.1650(3) 0.6778(4) 0.06198(18)
N2 N 0.2078(3) 0.0898(5) -0.08470(16)
N3 N 0.4424(3) 0.0648(6) -0.1437(2)
H1 H 0.5405 0.0069 -0.1585
C2 C 0.3410(4) -0.0436(6) -0.0934(2)
H2 H 0.3617 -0.1967 -0.0668
C3 C 0.3743(5) 0.2762(7) -0.1690(2)
H3 H 0.4197 0.3918 -0.2058
C4 C 0.2290(4) 0.2917(6) -0.1327(2)
H4 H 0.1523 0.4236 -0.1387
N1_2 N 0.1650(3) -0.3222(4) 0.06198(18)
Cd1_2 Cd 0.0000 1.0000 0.0000
S1B S -0.18919(10) 0.74492(13) -0.16151(5)
C1B C -0.1766(4) 0.4962(5) -0.10238(19)
N1B N -0.1650(3) 0.3222(4) -0.06198(18)
S1B_2 S -0.18919(10) -0.25508(13) -0.16151(5)
N2B N -0.2078(3) -0.0898(5) 0.08470(16)
C2B C -0.3410(4) 0.0436(6) 0.0934(2)
N3B N -0.4424(3) -0.0648(6) 0.1437(2)
H1B H -0.5405 -0.0069 0.1585
C3B C -0.3743(5) -0.2762(7) 0.1690(2)
H3B H -0.4197 -0.3918 0.2058
C4B C -0.2290(4) -0.2917(6) 0.1327(2)
H4B H -0.1523 -0.4236 0.1387
H2B H -0.3617 0.1967 0.0668
loop_
_geom_bond_atom_site_label_1
_geom_bond_atom_site_label_2
_geom_bond_site_symmetry_1
_geom_bond_site_symmetry_2
Cd1 S1 1_555 1_555
S1 C1 1_555 1_555
C1 N1 1_555 1_555
N1 Cd1_2 1_555 1_555
N2 Cd1 1_555 1_555
N3 H1 1_555 1_555
C2 N2 1_555 1_555
H2 C2 1_555 1_555
C3 N3 1_555 1_555
H3 C3 1_555 1_555
C4 N2 1_555 1_555
H4 C4 1_555 1_555
N1_2 Cd1 1_555 1_555
Cd1_2 S1B 1_555 1_555
S1B C1B 1_555 1_555
C1B N1B 1_555 1_555
N1B Cd1 1_555 1_555
S1B_2 Cd1 1_555 1_555
N2B Cd1 1_555 1_555
C2B N2B 1_555 1_555
N3B C2B 1_555 1_555
H1B N3B 1_555 1_555
C3B N3B 1_555 1_555
H3B C3B 1_555 1_555
C4B N2B 1_555 1_555
H4B C4B 1_555 1_555
H2B C2B 1_555 1_555
N3 C2 1_555 1_555
C3 C4 1_555 1_555
C3B C4B 1_555 1_555

#END
