
#######################################################################
#
#                 Cambridge Crystallographic Data Centre
#                                CCDC 
#
#######################################################################
#
# If this CIF has been generated from an entry in the Cambridge 
# Structural Database, then it will include bibliographic, chemical, 
# crystal, experimental, refinement or atomic coordinate data resulting 
# from the CCDC's data processing and validation procedures.
#
#######################################################################

data_DIDKEG
_symmetry_cell_setting           orthorhombic
_symmetry_space_group_name_H-M   'P n m a'
_symmetry_Int_Tables_number      62
_space_group_name_Hall           '-P 2ac 2n'
loop_
_symmetry_equiv_pos_site_id
_symmetry_equiv_pos_as_xyz
1 x,y,z
2 1/2-x,-y,1/2+z
3 -x,1/2+y,-z
4 1/2+x,1/2-y,1/2-z
5 -x,-y,-z
6 1/2+x,y,1/2-z
7 x,1/2-y,z
8 1/2-x,1/2+y,1/2+z
_cell_length_a                   16.161(6)
_cell_length_b                   9.262(2)
_cell_length_c                   7.133(3)
_cell_angle_alpha                90
_cell_angle_beta                 90
_cell_angle_gamma                90
_cell_volume                     1067.69
loop_
_atom_site_label
_atom_site_type_symbol
_atom_site_fract_x
_atom_site_fract_y
_atom_site_fract_z
S1 S 0.28779(10) 0.2500 0.4741(2)
N1 N 0.4484(4) 0.2500 0.7308(9)
H1 H 0.431(5) 0.2500 0.849(12)
C1 C 0.1132(3) 0.4351(6) 0.5960(7)
N2 N 0.1171(3) 0.5564(5) 0.6220(6)
C2 C 0.1100(4) 0.2500 0.0268(9)
N3 N 0.1171(4) 0.2500 0.1875(9)
C3 C 0.3277(3) 0.3961(6) 0.6132(8)
H2 H 0.3148(3) 0.4872(6) 0.5529(8)
H3 H 0.3013(3) 0.3954(6) 0.7354(8)
C4 C 0.4206(3) 0.3830(5) 0.6374(7)
H4 H 0.4463(3) 0.3880(5) 0.5147(7)
H5 H 0.4400(3) 0.4651(5) 0.7094(7)
Cu1 Cu 0.13496(6) 0.2500 0.45538(12)
Cu2 Cu 0.36623(7) 0.2500 0.19218(14)
Cu3 Cu 0.57925(6) 0.2500 0.73261(12)
C4F C 0.4206(3) 0.1170(5) 0.6374(7)
C3F C 0.3277(3) 0.1039(6) 0.6132(8)
H2F H 0.3148(3) 0.0128(6) 0.5529(8)
H3F H 0.3013(3) 0.1046(6) 0.7354(8)
H4F H 0.4463(3) 0.1120(5) 0.5147(7)
H5F H 0.4400(3) 0.0349(5) 0.7094(7)
C1F C 0.1132(3) 0.0649(6) 0.5960(7)
N2F N 0.1171(3) -0.0564(5) 0.6220(6)
Cu3E Cu 0.07925(6) 0.2500 0.76739(12)
Cu2G Cu 0.13377(7) 0.7500 0.69218(14)
Cu3E_2 Cu 0.07925(6) 0.2500 -0.23261(12)
N2G N 0.3829(3) 0.0564(5) 0.1220(6)
N2A N 0.3829(3) 0.4436(5) 0.1220(6)
C1E C 0.6132(3) 0.4351(6) 0.9040(7)
C1C C 0.6132(3) 0.0649(6) 0.9040(7)
C2E C 0.6100(4) 0.2500 0.4732(9)
Cu1E Cu 0.63496(6) 0.2500 1.04462(12)
Cu2G_2 Cu 0.13377(7) -0.2500 0.69218(14)
loop_
_geom_bond_atom_site_label_1
_geom_bond_atom_site_label_2
_geom_bond_site_symmetry_1
_geom_bond_site_symmetry_2
S1 C3 1_555 1_555
N1 H1 1_555 1_555
C1 N2 1_555 1_555
N2 Cu2G 1_555 1_555
C2 N3 1_555 1_555
N3 Cu1 1_555 1_555
C3 H2 1_555 1_555
H3 C3 1_555 1_555
C4 N1 1_555 1_555
H4 C4 1_555 1_555
H5 C4 1_555 1_555
Cu1 S1 1_555 1_555
Cu2 S1 1_555 1_555
Cu3 N1 1_555 1_555
C4F N1 1_555 1_555
C3F S1 1_555 1_555
H2F C3F 1_555 1_555
H3F C3F 1_555 1_555
H4F C4F 1_555 1_555
H5F C4F 1_555 1_555
C1F Cu1 1_555 1_555
N2F C1F 1_555 1_555
Cu3E C1 1_555 1_555
Cu3E_2 C2 1_555 1_555
N2G Cu2 1_555 1_555
N2A Cu2 1_555 1_555
C1E Cu3 1_555 1_555
C1C Cu3 1_555 1_555
C2E Cu3 1_555 1_555
Cu1E Cu3 1_555 1_555
Cu2G_2 N2F 1_555 1_555
C1 Cu1 1_555 1_555
C3 C4 1_555 1_555
Cu1 Cu3E 1_555 1_555
C4F C3F 1_555 1_555
C1F Cu3E 1_555 1_555
C1E Cu1E 1_555 1_555
C1C Cu1E 1_555 1_555

#END
