
#######################################################################
#
#                 Cambridge Crystallographic Data Centre
#                                CCDC 
#
#######################################################################
#
# If this CIF has been generated from an entry in the Cambridge 
# Structural Database, then it will include bibliographic, chemical, 
# crystal, experimental, refinement or atomic coordinate data resulting 
# from the CCDC's data processing and validation procedures.
#
#######################################################################

data_DIDKIM
_symmetry_cell_setting           triclinic
_symmetry_space_group_name_H-M   'P -1'
_symmetry_Int_Tables_number      2
_space_group_name_Hall           '-P 1'
loop_
_symmetry_equiv_pos_site_id
_symmetry_equiv_pos_as_xyz
1 x,y,z
2 -x,-y,-z
_cell_length_a                   8.8641(18)
_cell_length_b                   9.5992(19)
_cell_length_c                   15.267(3)
_cell_angle_alpha                89.42(3)
_cell_angle_beta                 73.37(3)
_cell_angle_gamma                79.07(3)
_cell_volume                     1220.78
loop_
_atom_site_label
_atom_site_type_symbol
_atom_site_fract_x
_atom_site_fract_y
_atom_site_fract_z
Fe1 Fe 0.25110(7) 0.25583(6) 0.53559(4)
Mn1 Mn 0.5000 0.5000 0.0000
O1 O 0.7544(4) 0.3880(3) -0.0361(2)
O2 O 0.4646(4) 0.4354(3) 0.13918(18)
O3 O 0.7104(4) 0.3277(4) 0.1376(2)
N1 N 0.5607(4) 0.7075(4) 0.0337(2)
N2 N 0.6831(4) 0.8941(4) 0.0169(2)
C1 C 0.0355(6) 0.1921(5) 0.5576(4)
H1 H -0.0662 0.2534 0.5572
C2 C 0.0943(7) 0.1677(6) 0.6355(4)
H2 H 0.0398 0.2072 0.6980
C3 C 0.2462(7) 0.0739(6) 0.6054(4)
H3 H 0.3156 0.0371 0.6436
C4 C 0.2787(6) 0.0418(5) 0.5100(4)
H4 H 0.3749 -0.0202 0.4709
C5 C 0.1483(6) 0.1162(5) 0.4816(4)
H5 H 0.1389 0.1152 0.4192
C6 C 0.4101(6) 0.3513(5) 0.5756(3)
H6 H 0.4651 0.3167 0.6212
C7 C 0.2585(6) 0.4446(5) 0.5939(3)
H7 H 0.1911 0.4859 0.6540
C8 C 0.2219(6) 0.4669(5) 0.5101(3)
H8 H 0.1247 0.5266 0.5019
C9 C 0.4676(5) 0.3173(5) 0.4812(3)
H9 H 0.5693 0.2540 0.4499
C10 C 0.3537(5) 0.3884(4) 0.4386(3)
C11 C 0.3695(5) 0.3950(4) 0.3399(3)
C12 C 0.2155(5) 0.4301(6) 0.3134(3)
H10 H 0.2401 0.4311 0.2480
H11 H 0.1569 0.5219 0.3398
H12 H 0.1517 0.3598 0.3356
C13 C 0.5167(5) 0.3742(4) 0.2807(3)
H13 H 0.6008 0.3529 0.3066
C14 C 0.5649(5) 0.3804(4) 0.1795(3)
C15 C 0.6684(5) 0.7721(5) -0.0211(3)
H14 H 0.7281 0.7373 -0.0799
C16 C 0.5754(5) 0.9113(4) 0.1039(3)
C17 C 0.4997(5) 0.7942(4) 0.1135(3)
C18 C 0.3830(5) 0.7791(5) 0.1947(3)
H15 H 0.3319 0.7018 0.2026
C19 C 0.3472(6) 0.8837(5) 0.2624(3)
H16 H 0.2703 0.8763 0.3175
C20 C 0.4227(6) 1.0012(5) 0.2512(4)
H17 H 0.3931 1.0707 0.2982
C21 C 0.5390(6) 1.0154(5) 0.1724(3)
H18 H 0.5913 1.0919 0.1652
C22 C 0.7986(5) 0.9840(5) -0.0212(3)
H19 H 0.7469 1.0829 -0.0071
H20 H 0.8360 0.9689 -0.0873
C23 C 0.9407(5) 0.9513(5) 0.0172(3)
H21 H 0.9951 0.8537 0.0003
H22 H 0.9021 0.9610 0.0835
N1A N 1.4393(4) 1.2925(4) -0.0337(2)
N2A N 1.3169(4) 1.1059(4) -0.0169(2)
C15A C 1.3316(5) 1.2279(5) 0.0211(3)
H14A H 1.2719 1.2627 0.0799
C16A C 1.4246(5) 1.0887(4) -0.1039(3)
C17A C 1.5003(5) 1.2058(4) -0.1135(3)
C18A C 1.6170(5) 1.2209(5) -0.1947(3)
H15A H 1.6681 1.2982 -0.2026
C19A C 1.6528(6) 1.1163(5) -0.2624(3)
H16A H 1.7297 1.1237 -0.3175
C20A C 1.5773(6) 0.9988(5) -0.2512(4)
H17A H 1.6069 0.9293 -0.2982
C21A C 1.4610(6) 0.9846(5) -0.1724(3)
H18A H 1.4087 0.9081 -0.1652
C22A C 1.2014(5) 1.0160(5) 0.0212(3)
H19A H 1.2531 0.9171 0.0071
H20A H 1.1640 1.0311 0.0873
C23A C 1.0593(5) 1.0487(5) -0.0172(3)
H21A H 1.0049 1.1463 -0.0003
H22A H 1.0979 1.0390 -0.0835
Fe1A Fe 0.74890(7) 0.74417(6) -0.53559(4)
O1A O 0.2456(4) 0.6120(3) 0.0361(2)
O2A O 0.5354(4) 0.5646(3) -0.13918(18)
O3A O 0.2896(4) 0.6723(4) -0.1376(2)
C1A C 0.9645(6) 0.8079(5) -0.5576(4)
H1A H 1.0662 0.7466 -0.5572
C2A C 0.9057(7) 0.8323(6) -0.6355(4)
H2A H 0.9602 0.7928 -0.6980
C3A C 0.7538(7) 0.9261(6) -0.6054(4)
H3A H 0.6844 0.9629 -0.6436
C4A C 0.7213(6) 0.9582(5) -0.5100(4)
H4A H 0.6251 1.0202 -0.4709
C5A C 0.8517(6) 0.8838(5) -0.4816(4)
H5A H 0.8611 0.8848 -0.4192
C6A C 0.5899(6) 0.6487(5) -0.5756(3)
H6A H 0.5349 0.6833 -0.6212
C7A C 0.7415(6) 0.5554(5) -0.5939(3)
H7A H 0.8089 0.5141 -0.6540
C8A C 0.7781(6) 0.5331(5) -0.5101(3)
H8A H 0.8753 0.4734 -0.5019
C9A C 0.5324(5) 0.6827(5) -0.4812(3)
H9A H 0.4307 0.7460 -0.4499
C10A C 0.6463(5) 0.6116(4) -0.4386(3)
C11A C 0.6305(5) 0.6050(4) -0.3399(3)
C12A C 0.7845(5) 0.5699(6) -0.3134(3)
H10A H 0.7599 0.5689 -0.2480
H11A H 0.8431 0.4781 -0.3398
H12A H 0.8483 0.6402 -0.3356
C13A C 0.4833(5) 0.6258(4) -0.2807(3)
H13A H 0.3992 0.6471 -0.3066
C14A C 0.4351(5) 0.6196(4) -0.1795(3)
Mn1_2 Mn 1.5000 1.5000 0.0000
N1A_2 N 0.4393(4) 0.2925(4) -0.0337(2)
O4 O 0.9670(5) 0.2796(5) 0.1986(3)
H23 H 0.8949 0.2821 0.1746
C24 C 0.9540(7) 0.1797(7) 0.2654(4)
H24 H 0.9013 0.2268 0.3244
H25 H 1.0592 0.1297 0.2643
H26 H 0.8925 0.1136 0.2537
O5 O 1.0081(7) 0.4380(7) -0.1695(4)
H27 H 0.9500 0.4715 -0.1193
C25 C 1.1574(10) 0.3684(10) -0.1610(6)
H28 H 1.2336 0.4298 -0.1789
H29 H 1.1946 0.2832 -0.1997
H30 H 1.1461 0.3444 -0.0985
loop_
_geom_bond_atom_site_label_1
_geom_bond_atom_site_label_2
_geom_bond_site_symmetry_1
_geom_bond_site_symmetry_2
Fe1 C1 1_555 1_555
Mn1 O1 1_555 1_555
O2 Mn1 1_555 1_555
O3 C14 1_555 1_555
N1 Mn1 1_555 1_555
N2 C15 1_555 1_555
C1 H1 1_555 1_555
C2 Fe1 1_555 1_555
H2 C2 1_555 1_555
C3 Fe1 1_555 1_555
H3 C3 1_555 1_555
C4 Fe1 1_555 1_555
H4 C4 1_555 1_555
C5 Fe1 1_555 1_555
H5 C5 1_555 1_555
C6 Fe1 1_555 1_555
H6 C6 1_555 1_555
C7 Fe1 1_555 1_555
H7 C7 1_555 1_555
C8 Fe1 1_555 1_555
H8 C8 1_555 1_555
C9 Fe1 1_555 1_555
H9 C9 1_555 1_555
C10 Fe1 1_555 1_555
C11 C10 1_555 1_555
C12 C11 1_555 1_555
H10 C12 1_555 1_555
H11 C12 1_555 1_555
H12 C12 1_555 1_555
C13 C11 1_555 1_555
H13 C13 1_555 1_555
C14 O2 1_555 1_555
C15 N1 1_555 1_555
H14 C15 1_555 1_555
C16 N2 1_555 1_555
C17 N1 1_555 1_555
C18 C17 1_555 1_555
H15 C18 1_555 1_555
C19 C18 1_555 1_555
H16 C19 1_555 1_555
C20 C19 1_555 1_555
H17 C20 1_555 1_555
C21 C16 1_555 1_555
H18 C21 1_555 1_555
C22 N2 1_555 1_555
H19 C22 1_555 1_555
H20 C22 1_555 1_555
C23 C22 1_555 1_555
H21 C23 1_555 1_555
H22 C23 1_555 1_555
O4 H23 1_555 1_555
C24 O4 1_555 1_555
H24 C24 1_555 1_555
H25 C24 1_555 1_555
H26 C24 1_555 1_555
O5 H27 1_555 1_555
C25 O5 1_555 1_555
H28 C25 1_555 1_555
H29 C25 1_555 1_555
H30 C25 1_555 1_555
N1A C15A 1_555 1_555
N2A C15A 1_555 1_555
C15A H14A 1_555 1_555
C16A N2A 1_555 1_555
C17A N1A 1_555 1_555
C18A C17A 1_555 1_555
H15A C18A 1_555 1_555
C19A C18A 1_555 1_555
H16A C19A 1_555 1_555
C20A C19A 1_555 1_555
H17A C20A 1_555 1_555
C21A C16A 1_555 1_555
H18A C21A 1_555 1_555
C22A N2A 1_555 1_555
H19A C22A 1_555 1_555
H20A C22A 1_555 1_555
C23A C23 1_555 1_555
H21A C23A 1_555 1_555
H22A C23A 1_555 1_555
Fe1A C1A 1_555 1_555
O1A Mn1 1_555 1_555
O2A Mn1 1_555 1_555
O3A C14A 1_555 1_555
C1A H1A 1_555 1_555
C2A Fe1A 1_555 1_555
H2A C2A 1_555 1_555
C3A Fe1A 1_555 1_555
H3A C3A 1_555 1_555
C4A Fe1A 1_555 1_555
H4A C4A 1_555 1_555
C5A Fe1A 1_555 1_555
H5A C5A 1_555 1_555
C6A Fe1A 1_555 1_555
H6A C6A 1_555 1_555
C7A Fe1A 1_555 1_555
H7A C7A 1_555 1_555
C8A Fe1A 1_555 1_555
H8A C8A 1_555 1_555
C9A Fe1A 1_555 1_555
H9A C9A 1_555 1_555
C10A Fe1A 1_555 1_555
C11A C10A 1_555 1_555
C12A C11A 1_555 1_555
H10A C12A 1_555 1_555
H11A C12A 1_555 1_555
H12A C12A 1_555 1_555
C13A C11A 1_555 1_555
H13A C13A 1_555 1_555
C14A O2A 1_555 1_555
Mn1_2 N1A 1_555 1_555
N1A_2 Mn1 1_555 1_555
C1 C2 1_555 1_555
C1 C5 1_555 1_555
C2 C3 1_555 1_555
C3 C4 1_555 1_555
C4 C5 1_555 1_555
C6 C7 1_555 1_555
C6 C9 1_555 1_555
C7 C8 1_555 1_555
C8 C10 1_555 1_555
C9 C10 1_555 1_555
C13 C14 1_555 1_555
C16 C17 1_555 1_555
C20 C21 1_555 1_555
C16A C17A 1_555 1_555
C20A C21A 1_555 1_555
C22A C23A 1_555 1_555
C1A C2A 1_555 1_555
C1A C5A 1_555 1_555
C2A C3A 1_555 1_555
C3A C4A 1_555 1_555
C4A C5A 1_555 1_555
C6A C7A 1_555 1_555
C6A C9A 1_555 1_555
C7A C8A 1_555 1_555
C8A C10A 1_555 1_555
C9A C10A 1_555 1_555
C13A C14A 1_555 1_555

#END
