
#######################################################################
#
#                 Cambridge Crystallographic Data Centre
#                                CCDC 
#
#######################################################################
#
# If this CIF has been generated from an entry in the Cambridge 
# Structural Database, then it will include bibliographic, chemical, 
# crystal, experimental, refinement or atomic coordinate data resulting 
# from the CCDC's data processing and validation procedures.
#
#######################################################################

data_DIDLIL
_symmetry_cell_setting           monoclinic
_symmetry_space_group_name_H-M   'C 2/c'
_symmetry_Int_Tables_number      15
_space_group_name_Hall           '-C 2yn'
loop_
_symmetry_equiv_pos_site_id
_symmetry_equiv_pos_as_xyz
1 x,y,z
2 1/2+x,1/2+y,z
3 x,-y,1/2+z
4 1/2+x,1/2-y,1/2+z
5 -x,-y,-z
6 1/2-x,1/2-y,-z
7 -x,y,1/2-z
8 1/2-x,1/2+y,1/2-z
_cell_length_a                   21.850(2)
_cell_length_b                   11.7687(7)
_cell_length_c                   13.3256(8)
_cell_angle_alpha                90
_cell_angle_beta                 100.544(2)
_cell_angle_gamma                90
_cell_volume                     3368.77
loop_
_atom_site_label
_atom_site_type_symbol
_atom_site_fract_x
_atom_site_fract_y
_atom_site_fract_z
Cd1 Cd 0.5000 -0.69119(2) -0.2500
O1 O 0.3950(2) -0.7679(5) -0.0413(6)
O2 O 0.4732(1) -0.6931(2) -0.0869(2)
O3 O 0.3954(2) -0.5967(4) -0.0602(4)
N1 N 0.5000 -0.4923(3) -0.2500
N2 N 0.5000 0.1093(3) -0.2500
N3 N 0.1014(1) -0.7924(2) -0.6550(2)
N4 N 0.4202(1) -0.6888(3) -0.0647(2)
C1 C 0.4876(2) -0.4324(3) -0.1704(2)
C2 C 0.4865(2) -0.3151(3) -0.1676(2)
C3 C 0.5000 -0.2536(3) -0.2500
C4 C 0.5000 -0.1274(3) -0.2500
C5 C 0.4833(2) -0.0667(3) -0.3397(2)
C6 C 0.4842(2) 0.0506(3) -0.3370(2)
C7 C 0.1416(2) -0.7177(3) -0.6803(3)
C8 C 0.1998(2) -0.6989(3) -0.6222(3)
C9 C 0.2190(1) -0.7589(3) -0.5323(2)
C10 C 0.3232(1) -0.6626(3) -0.4925(3)
C11 C 0.3805(1) -0.6488(3) -0.4302(3)
H1 H 0.5209 -0.4728 -0.3871
H2 H 0.5234 -0.2767 -0.3901
H3 H 0.5287 -0.1054 -0.0973
H4 H 0.5268 0.0913 -0.1008
H5 H 0.3702 -0.8249 -0.2587
H6 H 0.2731 -0.8554 -0.3562
H7 H 0.3126 -0.6182 -0.5527
H8 H 0.4084 -0.5944 -0.4494
Cd1C Cd 0.0000 -0.80881(2) -0.7500
C9E C 0.2810(1) -0.7411(3) -0.4677(2)
C8E C 0.3002(2) -0.8011(3) -0.3778(3)
C7E C 0.3584(2) -0.7823(3) -0.3197(3)
N3E N 0.3986(1) -0.7076(2) -0.3450(2)
O2F O 0.5268(1) -0.6931(2) -0.4131(2)
N4F N 0.5798(1) -0.6888(3) -0.4353(2)
O1F O 0.6050(2) -0.7679(5) -0.4587(6)
O3F O 0.6046(2) -0.5967(4) -0.4398(4)
C2F C 0.5135(2) -0.3151(3) -0.3324(2)
C1F C 0.5124(2) -0.4324(3) -0.3296(2)
Cd1_2 Cd 0.5000 0.30881(2) -0.2500
C6F C 0.5158(2) 0.0506(3) -0.1630(2)
C5F C 0.5167(2) -0.0667(3) -0.1603(2)
H4F H 0.4732 0.0913 -0.3992
H3F H 0.4713 -0.1054 -0.4027
H2F H 0.4766 -0.2767 -0.1099
H1F H 0.4791 -0.4728 -0.1129
N2_2 N 0.5000 -0.8907(3) -0.2500
N3C N 0.6014(1) -0.7076(2) -0.1550(2)
C10E C 0.1768(1) -0.8374(3) -0.5075(3)
C11E C 0.1195(1) -0.8512(3) -0.5698(3)
H8E H 0.0916 -0.9056 -0.5506
H7E H 0.1874 -0.8818 -0.4473
H6E H 0.2269 -0.6446 -0.6438
H5E H 0.1298 -0.6751 -0.7413
O4 O 0.3530(3) 0.1564(6) -0.7050(5)
O5 O 0.3859(2) 0.0717(5) -0.5595(4)
N5 N 0.2427(2) 0.1102(6) -0.8081(4)
N6 N 0.3470(2) 0.0874(6) -0.6367(5)
C12 C 0.2901(2) 0.0227(4) -0.6499(4)
C13 C 0.2838(3) -0.0557(6) -0.5740(5)
C14 C 0.2296(4) -0.1153(5) -0.5793(6)
C15 C 0.1818(3) -0.0981(5) -0.6615(6)
C16 C 0.1872(2) -0.0250(5) -0.7340(4)
C17 C 0.2410(2) 0.0379(4) -0.7314(4)
H9 H 0.3172 -0.0676 -0.5184
H10 H 0.2249 -0.1678 -0.5272
H11 H 0.1444 -0.1401 -0.6655
H12 H 0.1534 -0.0153 -0.7893
H13 H 0.2789 0.1547 -0.8089
H14 H 0.2077 0.1171 -0.8618
loop_
_geom_bond_atom_site_label_1
_geom_bond_atom_site_label_2
_geom_bond_site_symmetry_1
_geom_bond_site_symmetry_2
Cd1 O2 1_555 1_555
O1 N4 1_555 1_555
O2 N4 1_555 1_555
O3 N4 1_555 1_555
O4 N6 1_555 1_555
O5 N6 1_555 1_555
N1 Cd1 1_555 1_555
N2 C6 1_555 1_555
N3 C7 1_555 1_555
N5 C17 1_555 1_555
N6 C12 1_555 1_555
C1 N1 1_555 1_555
C2 C1 1_555 1_555
C3 C2 1_555 1_555
C4 C3 1_555 1_555
C5 C4 1_555 1_555
C6 C5 1_555 1_555
C7 C8 1_555 1_555
C8 C9 1_555 1_555
C9 C9E 1_555 1_555
C10 C11 1_555 1_555
C11 H8 1_555 1_555
C12 C13 1_555 1_555
C13 C14 1_555 1_555
C14 C15 1_555 1_555
C15 C16 1_555 1_555
C16 C17 1_555 1_555
C17 C12 1_555 1_555
H1 C1F 1_555 1_555
H2 C2F 1_555 1_555
H3 C5F 1_555 1_555
H4 C6F 1_555 1_555
H5 C7E 1_555 1_555
H6 C8E 1_555 1_555
H7 C10 1_555 1_555
H9 C13 1_555 1_555
H10 C14 1_555 1_555
H11 C15 1_555 1_555
H12 C16 1_555 1_555
H13 N5 1_555 1_555
H14 N5 1_555 1_555
Cd1C N3 1_555 1_555
C9E C10 1_555 1_555
C8E C9E 1_555 1_555
C7E C8E 1_555 1_555
N3E Cd1 1_555 1_555
O2F Cd1 1_555 1_555
N4F O2F 1_555 1_555
O1F N4F 1_555 1_555
O3F N4F 1_555 1_555
C2F C3 1_555 1_555
C1F N1 1_555 1_555
Cd1_2 N2 1_555 1_555
C6F N2 1_555 1_555
C5F C4 1_555 1_555
H4F C6 1_555 1_555
H3F C5 1_555 1_555
H2F C2 1_555 1_555
H1F C1 1_555 1_555
N2_2 Cd1 1_555 1_555
N3C Cd1 1_555 1_555
C10E C9 1_555 1_555
C11E N3 1_555 1_555
H8E C11E 1_555 1_555
H7E C10E 1_555 1_555
H6E C8 1_555 1_555
H5E C7 1_555 1_555
C11 N3E 1_555 1_555
C7E N3E 1_555 1_555
C2F C1F 1_555 1_555
C6F C5F 1_555 1_555
C10E C11E 1_555 1_555

#END
