
#######################################################################
#
#                 Cambridge Crystallographic Data Centre
#                                CCDC 
#
#######################################################################
#
# If this CIF has been generated from an entry in the Cambridge 
# Structural Database, then it will include bibliographic, chemical, 
# crystal, experimental, refinement or atomic coordinate data resulting 
# from the CCDC's data processing and validation procedures.
#
#######################################################################

data_DIDNOV
_symmetry_cell_setting           triclinic
_symmetry_space_group_name_H-M   'P 1'
_symmetry_Int_Tables_number      1
_space_group_name_Hall           'P 1'
loop_
_symmetry_equiv_pos_site_id
_symmetry_equiv_pos_as_xyz
1 x,y,z
_cell_length_a                   8.0939(3)
_cell_length_b                   8.3529(4)
_cell_length_c                   8.5020(4)
_cell_angle_alpha                69.115(2)
_cell_angle_beta                 66.810(2)
_cell_angle_gamma                89.366(2)
_cell_volume                     488.015
loop_
_atom_site_label
_atom_site_type_symbol
_atom_site_fract_x
_atom_site_fract_y
_atom_site_fract_z
Cu1 Cu -0.05094(11) 0.19579(9) 0.70597(10)
Cu2 Cu 0.37117(11) 0.36717(9) 0.05001(10)
N1 N 0.2914(16) 0.5527(14) -0.1325(16)
N2 N 0.2104(16) 0.3110(16) 0.3033(17)
C1 C -0.035(2) -0.2420(18) 1.172(2)
N3 N 0.602(2) 0.3062(16) -0.0802(13)
C2 C 0.659(2) 0.9965(14) -0.5739(17)
N4 N 0.0274(15) 0.0081(16) 0.8921(15)
C3 C -0.332(2) -0.4234(19) 1.304(2)
C4 C 0.1255(18) -0.2051(18) 1.1681(18)
C5 C -0.0940(18) -0.1353(14) 1.0296(15)
C6 C -0.380(2) -0.319(2) 1.181(2)
C7 C -0.161(2) -0.3845(16) 1.3135(18)
C8 C 0.112(2) 0.2705(19) 0.4588(17)
C9 C 0.499(3) 0.969(2) -0.563(3)
C10 C 0.4036(18) 0.7027(19) -0.278(2)
C11 C -0.244(2) -0.1729(19) 1.022(2)
C12 C 0.593(2) 0.742(2) -0.286(2)
C13 C 0.0780(19) 0.631(2) -0.260(2)
C14 C 0.3658(16) 0.8152(15) -0.4135(17)
C15 C 0.134(3) 0.5179(18) -0.136(2)
C16 C 0.181(2) 0.774(2) -0.402(3)
C17 C 0.740(2) 0.2676(15) -0.163(2)
C18 C 0.1890(16) 0.0378(17) 0.8904(18)
C19 C 0.698(2) 0.881(2) -0.412(2)
C20 C 0.249(3) -0.056(3) 1.029(3)
C21 C 0.797(2) 1.1423(18) -0.722(2)
C22 C -0.475(2) -0.5822(18) 1.465(2)
H1 H 0.159190 -0.276179 1.264222
H2 H -0.491358 -0.343977 1.172372
H3 H -0.126137 -0.460044 1.406317
H4 H 0.470660 1.044025 -0.661065
H5 H 0.622890 0.678938 -0.184542
H6 H -0.034016 0.610880 -0.268493
H7 H 0.133426 0.846365 -0.484774
H8 H 0.816731 0.907635 -0.419461
H9 H 0.896415 1.133192 -0.685935
H10 H 0.759708 1.254071 -0.735143
H11 H 0.835073 1.128303 -0.837779
H12 H -0.420940 -0.638689 1.549402
H13 H -0.495264 -0.659519 1.411997
H14 H -0.588314 -0.550973 1.531317
H15 H 0.363454 -0.036962 1.033043
H16 H -0.273567 -0.088323 0.930161
H17 H 0.062682 0.413758 -0.034012
H18 H 0.283449 0.132473 0.798737
Cu1_2 Cu 0.94906(11) 0.19579(9) -0.29403(10)
C17_2 C -0.260(2) 0.2676(15) 0.837(2)
loop_
_geom_bond_atom_site_label_1
_geom_bond_atom_site_label_2
_geom_bond_site_symmetry_1
_geom_bond_site_symmetry_2
Cu1 N4 1_555 1_555
Cu2 N1 1_555 1_555
N1 C10 1_555 1_555
N2 Cu2 1_555 1_555
C1 C4 1_555 1_555
N3 Cu2 1_555 1_555
C2 C9 1_555 1_555
N4 C5 1_555 1_555
C3 C6 1_555 1_555
C4 C20 1_555 1_555
C5 C1 1_555 1_555
C6 C11 1_555 1_555
C7 C1 1_555 1_555
C8 Cu1 1_555 1_555
C9 C14 1_555 1_555
C10 C12 1_555 1_555
C11 C5 1_555 1_555
C12 C19 1_555 1_555
C13 C15 1_555 1_555
C14 C10 1_555 1_555
C15 N1 1_555 1_555
C16 C13 1_555 1_555
C17 N3 1_555 1_555
C18 N4 1_555 1_555
C19 C2 1_555 1_555
C20 C18 1_555 1_555
C21 C2 1_555 1_555
C22 C3 1_555 1_555
H1 C4 1_555 1_555
H2 C6 1_555 1_555
H3 C7 1_555 1_555
H4 C9 1_555 1_555
H5 C12 1_555 1_555
H6 C13 1_555 1_555
H7 C16 1_555 1_555
H8 C19 1_555 1_555
H9 C21 1_555 1_555
H10 C21 1_555 1_555
H11 C21 1_555 1_555
H12 C22 1_555 1_555
H13 C22 1_555 1_555
H14 C22 1_555 1_555
H15 C20 1_555 1_555
H16 C11 1_555 1_555
H17 C15 1_555 1_555
H18 C18 1_555 1_555
Cu1_2 C17 1_555 1_555
C17_2 Cu1 1_555 1_555
N2 C8 1_555 1_555
C3 C7 1_555 1_555
C14 C16 1_555 1_555

#END
