
#######################################################################
#
#                 Cambridge Crystallographic Data Centre
#                                CCDC 
#
#######################################################################
#
# If this CIF has been generated from an entry in the Cambridge 
# Structural Database, then it will include bibliographic, chemical, 
# crystal, experimental, refinement or atomic coordinate data resulting 
# from the CCDC's data processing and validation procedures.
#
#######################################################################

data_DIDQEM
_symmetry_cell_setting           triclinic
_symmetry_space_group_name_H-M   'P -1'
_symmetry_Int_Tables_number      2
_space_group_name_Hall           '-P 1'
loop_
_symmetry_equiv_pos_site_id
_symmetry_equiv_pos_as_xyz
1 x,y,z
2 -x,-y,-z
_cell_length_a                   8.3898(10)
_cell_length_b                   8.7094(9)
_cell_length_c                   13.8304(17)
_cell_angle_alpha                89.695(9)
_cell_angle_beta                 79.108(6)
_cell_angle_gamma                62.568(9)
_cell_volume                     876.917
loop_
_atom_site_label
_atom_site_type_symbol
_atom_site_fract_x
_atom_site_fract_y
_atom_site_fract_z
Cd1 Cd 0.24828(3) 0.12097(3) 0.308855(15)
Cd2 Cd 0.5000 0.5000 0.5000
Cd3 Cd 0.0000 0.0000 0.0000
C1 C 0.3947(5) 0.2533(4) 0.3553(2)
N1 N 0.4469(4) 0.3305(4) 0.3928(2)
C2 C 0.3419(5) -0.1354(4) 0.3694(2)
N2 N 0.3975(4) 0.7354(4) 0.4032(2)
C3 C -0.0480(5) 0.2955(5) 0.3766(3)
N3 N -0.1987(4) 0.3829(4) 0.4114(3)
C4 C 0.2416(5) 0.0819(5) 0.1514(2)
N4 N 0.2016(5) 0.0592(5) 0.0810(2)
N5 N -0.1601(5) -0.1500(5) 0.2976(2)
C5 C -0.1114(5) -0.0551(5) 0.2347(2)
H1 H -0.0815 0.0291 0.2535
N6 N -0.1106(4) -0.0940(4) 0.14336(19)
C6 C -0.1646(6) -0.2198(5) 0.1480(3)
H2 H -0.1780 -0.2729 0.0941
C7 C -0.1959(6) -0.2561(6) 0.2428(3)
H3 H -0.2340 -0.3368 0.2660
C8 C -0.1748(10) -0.1424(9) 0.4040(3)
H4 H -0.1420 -0.0573 0.4241
H5 H -0.0933 -0.2541 0.4217
H6 H -0.2988 -0.1109 0.4366
N7 N -0.5182(5) 0.4565(5) 0.1316(2)
C9 C -0.4097(6) 0.3026(5) 0.0809(3)
H7 H -0.4513 0.2274 0.0622
N8 N -0.2378(4) 0.2691(4) 0.0603(2)
C10 C -0.2372(7) 0.4098(7) 0.1002(5)
H8 H -0.1332 0.4238 0.0982
C11 C -0.4101(9) 0.5272(8) 0.1433(5)
H9 H -0.4471 0.6358 0.1749
C12 C -0.7142(7) 0.5348(8) 0.1677(4)
H10 H -0.7585 0.4575 0.1497
H11 H -0.7726 0.6424 0.1391
H12 H -0.7418 0.5565 0.2384
N1A N 0.5531(4) 0.6695(4) 0.6072(2)
N2A N 0.6025(4) 0.2646(4) 0.5968(2)
N3A N 0.1987(4) 0.6171(4) 0.5886(3)
N4A N -0.2016(5) -0.0592(5) -0.0810(2)
N6A N 0.1106(4) 0.0940(4) -0.14336(19)
N8A N 0.2378(4) -0.2691(4) -0.0603(2)
N2_2 N 0.3975(4) -0.2646(4) 0.4032(2)
C2_2 C 0.3419(5) 0.8646(4) 0.3694(2)
N3_2 N 0.8013(4) 0.3829(4) 0.4114(3)
C1A C 0.6053(5) 0.7467(4) 0.6447(2)
C2A C 0.6581(5) 0.1354(4) 0.6306(2)
C5A C 0.1114(5) 0.0551(5) -0.2347(2)
C6A C 0.1646(6) 0.2198(5) -0.1480(3)
C9A C 0.4097(6) -0.3026(5) -0.0809(3)
C10A C 0.2372(7) -0.4098(7) -0.1002(5)
Cd2_2 Cd 0.5000 -0.5000 0.5000
Cd1_2 Cd 0.24828(3) 1.12097(3) 0.308855(15)
Cd2_3 Cd -0.5000 0.5000 0.5000
Cd1A Cd 0.75172(3) 0.87903(3) 0.691145(15)
Cd1A_2 Cd 0.75172(3) -0.12097(3) 0.691145(15)
Cd1A_3 Cd -0.24828(3) 0.87903(3) 0.691145(15)
N5A N 0.1601(5) 0.1500(5) -0.2976(2)
H1A H 0.0815 -0.0291 -0.2535
H2A H 0.1780 0.2729 -0.0941
C7A C 0.1959(6) 0.2561(6) -0.2428(3)
N7A N 0.5182(5) -0.4565(5) -0.1316(2)
H7A H 0.4513 -0.2274 -0.0622
H8A H 0.1332 -0.4238 -0.0982
C11A C 0.4101(9) -0.5272(8) -0.1433(5)
N1_2 N -0.5531(4) 0.3305(4) 0.3928(2)
N1A_2 N -0.4469(4) 0.6695(4) 0.6072(2)
N2_3 N -0.6025(4) 0.7354(4) 0.4032(2)
N2A_2 N -0.3975(4) 0.2646(4) 0.5968(2)
N3A_2 N -0.8013(4) 0.6171(4) 0.5886(3)
C1A_2 C -0.3947(5) 0.7467(4) 0.6447(2)
C8A C 0.1748(10) 0.1424(9) -0.4040(3)
H3A H 0.2340 0.3368 -0.2660
C12A C 0.7142(7) -0.5348(8) -0.1677(4)
H9A H 0.4471 -0.6358 -0.1749
H4A H 0.1420 0.0573 -0.4241
H5A H 0.0933 0.2541 -0.4217
H6A H 0.2988 0.1109 -0.4366
H10A H 0.7585 -0.4575 -0.1497
H11A H 0.7726 -0.6424 -0.1391
H12A H 0.7418 -0.5565 -0.2384
loop_
_geom_bond_atom_site_label_1
_geom_bond_atom_site_label_2
_geom_bond_site_symmetry_1
_geom_bond_site_symmetry_2
Cd1 C1 1_555 1_555
Cd2 N1 1_555 1_555
Cd3 N4 1_555 1_555
C1 N1 1_555 1_555
C2 Cd1 1_555 1_555
N2 Cd2 1_555 1_555
C3 Cd1 1_555 1_555
N3 C3 1_555 1_555
C4 Cd1 1_555 1_555
N4 C4 1_555 1_555
N5 C5 1_555 1_555
C5 H1 1_555 1_555
N6 Cd3 1_555 1_555
C6 N6 1_555 1_555
H2 C6 1_555 1_555
C7 N5 1_555 1_555
H3 C7 1_555 1_555
C8 N5 1_555 1_555
H4 C8 1_555 1_555
H5 C8 1_555 1_555
H6 C8 1_555 1_555
N7 C9 1_555 1_555
C9 H7 1_555 1_555
N8 Cd3 1_555 1_555
C10 N8 1_555 1_555
H8 C10 1_555 1_555
C11 N7 1_555 1_555
H9 C11 1_555 1_555
C12 N7 1_555 1_555
H10 C12 1_555 1_555
H11 C12 1_555 1_555
H12 C12 1_555 1_555
N1A Cd2 1_555 1_555
N2A Cd2 1_555 1_555
N3A Cd2 1_555 1_555
N4A Cd3 1_555 1_555
N6A Cd3 1_555 1_555
N8A Cd3 1_555 1_555
N2_2 C2 1_555 1_555
C2_2 N2 1_555 1_555
N3_2 Cd2 1_555 1_555
C1A N1A 1_555 1_555
C2A N2A 1_555 1_555
C5A N6A 1_555 1_555
C6A N6A 1_555 1_555
C9A N8A 1_555 1_555
C10A N8A 1_555 1_555
Cd2_2 N2_2 1_555 1_555
Cd1_2 C2_2 1_555 1_555
Cd2_3 N3 1_555 1_555
Cd1A C1A 1_555 1_555
Cd1A_2 C2A 1_555 1_555
Cd1A_3 C1A_2 1_555 1_555
N5A C5A 1_555 1_555
H1A C5A 1_555 1_555
H2A C6A 1_555 1_555
C7A C6A 1_555 1_555
N7A C9A 1_555 1_555
H7A C9A 1_555 1_555
H8A C10A 1_555 1_555
C11A C10A 1_555 1_555
N1_2 Cd2_3 1_555 1_555
N1A_2 Cd2_3 1_555 1_555
N2_3 Cd2_3 1_555 1_555
N2A_2 Cd2_3 1_555 1_555
N3A_2 Cd2_3 1_555 1_555
C1A_2 N1A_2 1_555 1_555
C8A N5A 1_555 1_555
H3A C7A 1_555 1_555
C12A N7A 1_555 1_555
H9A C11A 1_555 1_555
H4A C8A 1_555 1_555
H5A C8A 1_555 1_555
H6A C8A 1_555 1_555
H10A C12A 1_555 1_555
H11A C12A 1_555 1_555
H12A C12A 1_555 1_555
C5 N6 1_555 1_555
C6 C7 1_555 1_555
C9 N8 1_555 1_555
C10 C11 1_555 1_555
N5A C7A 1_555 1_555
N7A C11A 1_555 1_555

#END
