
#######################################################################
#
#                 Cambridge Crystallographic Data Centre
#                                CCDC 
#
#######################################################################
#
# If this CIF has been generated from an entry in the Cambridge 
# Structural Database, then it will include bibliographic, chemical, 
# crystal, experimental, refinement or atomic coordinate data resulting 
# from the CCDC's data processing and validation procedures.
#
#######################################################################

data_DIDSAK
_symmetry_cell_setting           monoclinic
_symmetry_space_group_name_H-M   'C c'
_symmetry_Int_Tables_number      9
_space_group_name_Hall           'C -2yc'
loop_
_symmetry_equiv_pos_site_id
_symmetry_equiv_pos_as_xyz
1 x,y,z
2 x,-y,1/2+z
3 1/2+x,1/2+y,z
4 1/2+x,1/2-y,1/2+z
_cell_length_a                   14.1570(2)
_cell_length_b                   12.9188(2)
_cell_length_c                   7.2671(1)
_cell_angle_alpha                90
_cell_angle_beta                 104.776(1)
_cell_angle_gamma                90
_cell_volume                     1285.14
loop_
_atom_site_label
_atom_site_type_symbol
_atom_site_fract_x
_atom_site_fract_y
_atom_site_fract_z
Ag1 Ag -0.13887(3) 0.17787(2) -0.54113(4)
N1 N -0.0400(2) 0.0359(2) -0.4367(5)
N2 N 0.2166(2) 0.2852(3) -0.2435(6)
N3 N 0.0297(2) 0.2323(2) -0.4590(5)
C1 C -0.0725(3) -0.0610(3) -0.4520(7)
H1 H -0.1396 -0.0720 -0.4927
C2 C -0.0115(4) -0.1466(3) -0.4104(7)
H2 H -0.0367 -0.2135 -0.4227
C3 C 0.0868(3) -0.1292(4) -0.3509(8)
H3 H 0.1296 -0.1848 -0.3190
C4 C 0.1225(3) -0.0296(4) -0.3379(8)
H4 H 0.1894 -0.0173 -0.3022
C5 C 0.0572(3) 0.0518(3) -0.3787(6)
C6 C 0.0906(3) 0.1620(3) -0.3661(6)
C7 C 0.1856(3) 0.1901(3) -0.2567(7)
H5 H 0.2269 0.1386 -0.1923
C8 C 0.1561(3) 0.3594(3) -0.3438(5)
C9 C 0.1849(3) 0.4638(3) -0.3365(6)
H6 H 0.2474 0.4827 -0.2679
C10 C 0.1213(3) 0.5372(3) -0.4300(7)
H7 H 0.1408 0.6062 -0.4232
C11 C 0.0273(3) 0.5108(3) -0.5360(7)
H8 H -0.0149 0.5621 -0.5987
C12 C -0.0027(3) 0.4103(3) -0.5480(6)
H9 H -0.0650 0.3932 -0.6199
C13 C 0.0605(3) 0.3321(3) -0.4517(6)
Ag1C Ag 0.36113(3) 0.32213(2) -0.04113(4)
N2C N -0.2834(2) 0.2148(3) -0.7435(6)
O1 O 0.3444(4) 0.1588(4) 0.1765(7)
O2 O 0.2838(4) 0.2935(3) 0.2642(9)
O3 O 0.3134(4) 0.1597(4) 0.4464(7)
N4 N 0.3149(3) 0.2052(3) 0.2991(7)
loop_
_geom_bond_atom_site_label_1
_geom_bond_atom_site_label_2
_geom_bond_site_symmetry_1
_geom_bond_site_symmetry_2
Ag1 N1 1_555 1_555
O1 N4 1_555 1_555
O2 N4 1_555 1_555
O3 N4 1_555 1_555
N1 C1 1_555 1_555
N2 C7 1_555 1_555
N3 Ag1 1_555 1_555
C1 H1 1_555 1_555
C2 C1 1_555 1_555
H2 C2 1_555 1_555
C3 C2 1_555 1_555
H3 C3 1_555 1_555
C4 C3 1_555 1_555
H4 C4 1_555 1_555
C5 N1 1_555 1_555
C6 N3 1_555 1_555
C7 C6 1_555 1_555
H5 C7 1_555 1_555
C8 N2 1_555 1_555
C9 C8 1_555 1_555
H6 C9 1_555 1_555
C10 C9 1_555 1_555
H7 C10 1_555 1_555
C11 C10 1_555 1_555
H8 C11 1_555 1_555
C12 C11 1_555 1_555
H9 C12 1_555 1_555
C13 N3 1_555 1_555
Ag1C N2 1_555 1_555
N2C Ag1 1_555 1_555
C4 C5 1_555 1_555
C5 C6 1_555 1_555
C8 C13 1_555 1_555
C12 C13 1_555 1_555

#END
