
#######################################################################
#
#                 Cambridge Crystallographic Data Centre
#                                CCDC 
#
#######################################################################
#
# If this CIF has been generated from an entry in the Cambridge 
# Structural Database, then it will include bibliographic, chemical, 
# crystal, experimental, refinement or atomic coordinate data resulting 
# from the CCDC's data processing and validation procedures.
#
#######################################################################

data_DIDSEP
_symmetry_cell_setting           monoclinic
_symmetry_space_group_name_H-M   'P 21/c'
_symmetry_Int_Tables_number      14
_space_group_name_Hall           '-P 2ybc'
loop_
_symmetry_equiv_pos_site_id
_symmetry_equiv_pos_as_xyz
1 x,y,z
2 -x,1/2+y,1/2-z
3 -x,-y,-z
4 x,1/2-y,1/2+z
_cell_length_a                   7.697(2)
_cell_length_b                   11.147(2)
_cell_length_c                   12.612(4)
_cell_angle_alpha                90
_cell_angle_beta                 117.95(2)
_cell_angle_gamma                90
_cell_volume                     955.872
loop_
_atom_site_label
_atom_site_type_symbol
_atom_site_fract_x
_atom_site_fract_y
_atom_site_fract_z
K1 K 0.2549(1) 0.3123(1) 0.2211(1)
O1 O 0.1978(2) 0.0553(1) 0.2463(1)
N1 N 0.5471 0.3006(1) 0.4728(1)
N2 N 0.6075(2) 0.2241(1) 0.6646(1)
N3 N 0.7804(2) 0.3962(1) 0.6534(1)
N4 N 0.3980(2) 0.1295(1) 0.4914(1)
N5 N 0.7054(2) 0.4734(1) 0.4688(1)
C1 C 0.5201(2) 0.2201(1) 0.5425(1)
C2 C 0.6754(2) 0.3878(1) 0.5322(1)
C3 C 0.7365(2) 0.3124(1) 0.7115(1)
C4 C 0.8464(2) 0.3145(1) 0.8444(1)
N6 N 0.7958(2) 0.3953(1) 0.9073(1)
N7 N 0.9883(2) 0.2297(1) 0.9007(1)
O2 O 0.8788(2) 0.4029(1) 1.0177(1)
O3 O 1.0335(2) 0.1679(1) 0.8337(1)
O4 O 1.0692(2) 0.2104(1) 1.0100(1)
O5 O 0.6553(2) 0.4647(1) 0.8433(1)
H1 H 0.0711 0.0555 0.2191
H2 H 0.2233 -0.0202 0.2619
H3 H 0.8006 0.5351 0.5127
H4 H 0.6371 0.4845 0.3914
H5 H 0.3847 0.0749 0.5401
H6 H 0.3482 0.1139 0.4161
K1_2 K 1.2549(1) 0.3123(1) 1.2211(1)
K1C K 1.2549(1) 0.1877(1) 0.7211(1)
K1B K 0.7451(1) 0.6877(1) 0.7789(1)
O2_2 O -0.1212(2) 0.4029(1) 0.0177(1)
O3C O 0.0335(2) 0.3321(1) 0.3337(1)
O4_2 O 0.0692(2) 0.2104(1) 0.0100(1)
O5B O 0.3447(2) 0.5353(1) 0.1567(1)
loop_
_geom_bond_atom_site_label_1
_geom_bond_atom_site_label_2
_geom_bond_site_symmetry_1
_geom_bond_site_symmetry_2
K1 O1 1_555 1_555
O1 H1 1_555 1_555
N1 K1 1_555 1_555
N2 C1 1_555 1_555
N3 C2 1_555 1_555
N4 C1 1_555 1_555
N5 C2 1_555 1_555
C1 N1 1_555 1_555
C2 N1 1_555 1_555
C3 N2 1_555 1_555
C4 C3 1_555 1_555
N6 C4 1_555 1_555
N7 C4 1_555 1_555
O2 N6 1_555 1_555
O3 N7 1_555 1_555
O4 N7 1_555 1_555
O5 N6 1_555 1_555
H2 O1 1_555 1_555
H3 N5 1_555 1_555
H4 N5 1_555 1_555
H5 N4 1_555 1_555
H6 N4 1_555 1_555
K1_2 O2 1_555 1_555
K1C O3 1_555 1_555
K1B O5 1_555 1_555
O2_2 K1 1_555 1_555
O3C K1 1_555 1_555
O4_2 K1 1_555 1_555
O5B K1 1_555 1_555
N3 C3 1_555 1_555
O4 K1_2 1_555 1_555

#END
