
#######################################################################
#
#                 Cambridge Crystallographic Data Centre
#                                CCDC 
#
#######################################################################
#
# If this CIF has been generated from an entry in the Cambridge 
# Structural Database, then it will include bibliographic, chemical, 
# crystal, experimental, refinement or atomic coordinate data resulting 
# from the CCDC's data processing and validation procedures.
#
#######################################################################

data_DIDYUM
_symmetry_cell_setting           triclinic
_symmetry_space_group_name_H-M   'P -1'
_symmetry_Int_Tables_number      2
_space_group_name_Hall           '-P 1'
loop_
_symmetry_equiv_pos_site_id
_symmetry_equiv_pos_as_xyz
1 x,y,z
2 -x,-y,-z
_cell_length_a                   8.825(5)
_cell_length_b                   9.108(4)
_cell_length_c                   10.321(5)
_cell_angle_alpha                65.73(3)
_cell_angle_beta                 88.97(5)
_cell_angle_gamma                84.81(4)
_cell_volume                     752.994
loop_
_atom_site_label
_atom_site_type_symbol
_atom_site_fract_x
_atom_site_fract_y
_atom_site_fract_z
I1 I 0.36636(6) 1.06724(6) 0.15694(5)
Cu1 Cu 0.38627(11) 0.91434(12) -0.01165(11)
S1 S 0.1780(2) 1.0235(2) -0.1623(2)
O1 O 0.8761(9) 0.2390(9) 0.6029(8)
O2 O 0.8534(8) 0.4831(8) 0.5922(7)
N1 N 0.3166(8) 0.6823(8) 0.0306(7)
N2 N 0.8162(9) 0.3796(10) 0.5558(8)
C1 C 0.0149(9) 1.0701(9) -0.0679(8)
H1 H 0.0346 1.1633 -0.0466
H2 H -0.0768 1.1017 -0.1305
C2 C 0.1343(9) 0.8408(10) -0.1678(8)
C3 C 0.2072(9) 0.6874(10) -0.0742(8)
C4 C 0.1743(10) 0.5500(11) -0.0922(9)
H3 H 0.2256 0.4481 -0.0342
C5 C 0.0690(10) 0.5593(10) -0.1924(9)
H4 H 0.0455 0.4633 -0.1999
C6 C -0.0035(10) 0.7075(11) -0.2830(9)
H5 H -0.0752 0.7140 -0.3530
C7 C 0.0311(10) 0.8456(10) -0.2688(9)
H6 H -0.0178 0.9472 -0.3307
C8 C 0.3555(10) 0.5447(10) 0.1311(9)
H7 H 0.3041 0.4561 0.1342
C9 C 0.4718(10) 0.5098(11) 0.2422(9)
C10 C 0.5121(11) 0.3456(10) 0.3305(9)
H8 H 0.4596 0.2643 0.3202
C11 C 0.6267(11) 0.3024(11) 0.4312(9)
H9 H 0.6585 0.1919 0.4873
C12 C 0.6948(9) 0.4251(10) 0.4486(8)
C13 C 0.6573(11) 0.5866(11) 0.3661(10)
H10 H 0.7066 0.6677 0.3799
C14 C 0.5437(10) 0.6271(10) 0.2610(9)
H11 H 0.5160 0.7377 0.2018
S1A S -0.1780(2) 0.9765(2) 0.1623(2)
O1A O -0.8761(9) 1.7610(9) -0.6029(8)
O2A O -0.8534(8) 1.5169(8) -0.5922(7)
N1A N -0.3166(8) 1.3177(8) -0.0306(7)
N2A N -0.8162(9) 1.6204(10) -0.5558(8)
C1A C -0.0149(9) 0.9299(9) 0.0679(8)
H1A H -0.0346 0.8367 0.0466
H2A H 0.0768 0.8983 0.1305
C2A C -0.1343(9) 1.1592(10) 0.1678(8)
C3A C -0.2072(9) 1.3126(10) 0.0742(8)
C4A C -0.1743(10) 1.4500(11) 0.0922(9)
H3A H -0.2256 1.5519 0.0342
C5A C -0.0690(10) 1.4407(10) 0.1924(9)
H4A H -0.0455 1.5367 0.1999
C6A C 0.0035(10) 1.2925(11) 0.2830(9)
H5A H 0.0752 1.2860 0.3530
C7A C -0.0311(10) 1.1544(10) 0.2688(9)
H6A H 0.0178 1.0528 0.3307
C8A C -0.3555(10) 1.4553(10) -0.1311(9)
H7A H -0.3041 1.5439 -0.1342
C9A C -0.4718(10) 1.4902(11) -0.2422(9)
C10A C -0.5121(11) 1.6544(10) -0.3305(9)
H8A H -0.4596 1.7357 -0.3202
C11A C -0.6267(11) 1.6976(11) -0.4312(9)
H9A H -0.6585 1.8081 -0.4873
C12A C -0.6948(9) 1.5749(10) -0.4486(8)
C13A C -0.6573(11) 1.4134(11) -0.3661(10)
H10A H -0.7066 1.3323 -0.3799
C14A C -0.5437(10) 1.3729(10) -0.2610(9)
H11A H -0.5160 1.2623 -0.2018
I1A I -0.36636(6) 0.93276(6) -0.15694(5)
Cu1A Cu -0.38627(11) 1.08566(12) 0.01165(11)
I1_2 I -0.63364(6) 1.06724(6) 0.15694(5)
I1A_2 I 0.63364(6) 0.93276(6) -0.15694(5)
Cu1_2 Cu -0.61373(11) 0.91434(12) -0.01165(11)
Cu1A_2 Cu 0.61373(11) 1.08566(12) 0.01165(11)
loop_
_geom_bond_atom_site_label_1
_geom_bond_atom_site_label_2
_geom_bond_site_symmetry_1
_geom_bond_site_symmetry_2
I1 Cu1 1_555 1_555
Cu1 S1 1_555 1_555
S1 C1 1_555 1_555
O1 N2 1_555 1_555
O2 N2 1_555 1_555
N1 Cu1 1_555 1_555
N2 C12 1_555 1_555
C1 H1 1_555 1_555
H2 C1 1_555 1_555
C2 S1 1_555 1_555
C3 N1 1_555 1_555
C4 C3 1_555 1_555
H3 C4 1_555 1_555
C5 C4 1_555 1_555
H4 C5 1_555 1_555
C6 C5 1_555 1_555
H5 C6 1_555 1_555
C7 C2 1_555 1_555
H6 C7 1_555 1_555
C8 N1 1_555 1_555
H7 C8 1_555 1_555
C9 C8 1_555 1_555
C10 C9 1_555 1_555
H8 C10 1_555 1_555
C11 C10 1_555 1_555
H9 C11 1_555 1_555
C12 C11 1_555 1_555
C13 C12 1_555 1_555
H10 C13 1_555 1_555
C14 C9 1_555 1_555
H11 C14 1_555 1_555
S1A C1A 1_555 1_555
O1A N2A 1_555 1_555
O2A N2A 1_555 1_555
N1A C3A 1_555 1_555
N2A C12A 1_555 1_555
C1A C1 1_555 1_555
H1A C1A 1_555 1_555
H2A C1A 1_555 1_555
C2A S1A 1_555 1_555
C3A C2A 1_555 1_555
C4A C3A 1_555 1_555
H3A C4A 1_555 1_555
C5A C4A 1_555 1_555
H4A C5A 1_555 1_555
C6A C5A 1_555 1_555
H5A C6A 1_555 1_555
C7A C2A 1_555 1_555
H6A C7A 1_555 1_555
C8A N1A 1_555 1_555
H7A C8A 1_555 1_555
C9A C8A 1_555 1_555
C10A C9A 1_555 1_555
H8A C10A 1_555 1_555
C11A C10A 1_555 1_555
H9A C11A 1_555 1_555
C12A C11A 1_555 1_555
C13A C12A 1_555 1_555
H10A C13A 1_555 1_555
C14A C9A 1_555 1_555
H11A C14A 1_555 1_555
I1A Cu1A 1_555 1_555
Cu1A S1A 1_555 1_555
I1_2 Cu1A 1_555 1_555
I1A_2 Cu1 1_555 1_555
Cu1_2 I1A 1_555 1_555
Cu1A_2 I1 1_555 1_555
Cu1 Cu1A_2 1_555 1_555
C2 C3 1_555 1_555
C6 C7 1_555 1_555
C13 C14 1_555 1_555
N1A Cu1A 1_555 1_555
C6A C7A 1_555 1_555
C13A C14A 1_555 1_555
Cu1A Cu1_2 1_555 1_555
I1_2 Cu1_2 1_555 1_555
I1A_2 Cu1A_2 1_555 1_555

#END
