
#######################################################################
#
#                 Cambridge Crystallographic Data Centre
#                                CCDC 
#
#######################################################################
#
# If this CIF has been generated from an entry in the Cambridge 
# Structural Database, then it will include bibliographic, chemical, 
# crystal, experimental, refinement or atomic coordinate data resulting 
# from the CCDC's data processing and validation procedures.
#
#######################################################################

data_DIDYOG
_symmetry_cell_setting           triclinic
_symmetry_space_group_name_H-M   'P -1'
_symmetry_Int_Tables_number      2
_space_group_name_Hall           '-P 1'
loop_
_symmetry_equiv_pos_site_id
_symmetry_equiv_pos_as_xyz
1 x,y,z
2 -x,-y,-z
_cell_length_a                   7.352(2)
_cell_length_b                   9.090(2)
_cell_length_c                   11.621(3)
_cell_angle_alpha                77.036(14)
_cell_angle_beta                 87.232(16)
_cell_angle_gamma                89.291(16)
_cell_volume                     755.948
loop_
_atom_site_label
_atom_site_type_symbol
_atom_site_fract_x
_atom_site_fract_y
_atom_site_fract_z
I1 I 0.24173(8) 0.63941(7) 1.01416(5)
Cu1 Cu 0.41443(16) 0.42188(13) 0.94005(10)
S1 S 0.3851(3) 0.4941(3) 0.7310(2)
S2 S 0.2506(4) 0.2495(3) 1.1965(3)
N1 N 0.3152(10) 0.2134(8) 0.9277(7)
C1 C 0.1451(13) 0.5487(11) 0.7177(8)
H1 H 0.0726 0.4873 0.7851
H2 H 0.1317 0.6559 0.7217
C2 C 0.0710(11) 0.5271(10) 0.6028(8)
C3 C -0.0609(12) 0.4163(10) 0.6082(8)
H3 H -0.1042 0.3586 0.6828
C4 C 0.1300(13) 0.6104(10) 0.4957(8)
H4 H 0.2184 0.6871 0.4912
C5 C 0.3791(12) 0.3042(11) 0.7160(8)
C6 C 0.3516(12) 0.1838(9) 0.8129(8)
C7 C 0.3653(13) 0.0352(10) 0.7974(9)
H5 H 0.3565 -0.0482 0.8634
C8 C 0.3925(13) 0.0126(12) 0.6822(9)
H6 H 0.3961 -0.0876 0.6706
C9 C 0.4140(13) 0.1303(11) 0.5862(9)
H7 H 0.4340 0.1124 0.5092
C10 C 0.4060(13) 0.2758(11) 0.6032(8)
H8 H 0.4191 0.3583 0.5368
C11 C 0.2350(13) 0.1066(11) 1.0070(9)
H9 H 0.1991 0.0190 0.9821
C12 C 0.1961(14) 0.1098(11) 1.1291(8)
C13 C 0.1649(15) 0.1522(13) 1.3269(9)
H10 H 0.1670 0.1894 1.3970
C14 C 0.0930(16) 0.0178(13) 1.3254(10)
H11 H 0.0340 -0.0450 1.3930
C15 C 0.1126(10) -0.0232(9) 1.2134(7)
H12 H 0.0791 -0.1163 1.1962
S1A S -0.3851(3) 0.5059(3) 0.2690(2)
S2A S -0.2506(4) 0.7505(3) -0.1965(3)
N1A N -0.3152(10) 0.7866(8) 0.0723(7)
C1A C -0.1451(13) 0.4513(11) 0.2823(8)
H1A H -0.0726 0.5127 0.2149
H2A H -0.1317 0.3441 0.2783
C2A C -0.0710(11) 0.4729(10) 0.3972(8)
C3A C 0.0609(12) 0.5837(10) 0.3918(8)
H3A H 0.1042 0.6414 0.3172
C4A C -0.1300(13) 0.3896(10) 0.5043(8)
H4A H -0.2184 0.3129 0.5088
C5A C -0.3791(12) 0.6958(11) 0.2840(8)
C6A C -0.3516(12) 0.8162(9) 0.1871(8)
C7A C -0.3653(13) 0.9648(10) 0.2026(9)
H5A H -0.3565 1.0482 0.1366
C8A C -0.3925(13) 0.9874(12) 0.3178(9)
H6A H -0.3961 1.0876 0.3294
C9A C -0.4140(13) 0.8697(11) 0.4138(9)
H7A H -0.4340 0.8876 0.4908
C10A C -0.4060(13) 0.7242(11) 0.3968(8)
H8A H -0.4191 0.6417 0.4632
C11A C -0.2350(13) 0.8934(11) -0.0070(9)
H9A H -0.1991 0.9810 0.0179
C12A C -0.1961(14) 0.8902(11) -0.1291(8)
C13A C -0.1649(15) 0.8478(13) -0.3269(9)
H10A H -0.1670 0.8106 -0.3970
C14A C -0.0930(16) 0.9822(13) -0.3254(10)
H11A H -0.0340 1.0450 -0.3930
C15A C -0.1126(10) 1.0232(9) -0.2134(7)
H12A H -0.0791 1.1163 -0.1962
I1A I -0.24173(8) 0.36059(7) -0.01416(5)
Cu1A Cu -0.41443(16) 0.57812(13) 0.05995(10)
I1_2 I -0.75827(8) 0.63941(7) 0.01416(5)
I1A_2 I 0.75827(8) 0.36059(7) 0.98584(5)
Cu1_2 Cu -0.58557(16) 0.42188(13) -0.05995(10)
Cu1A_2 Cu 0.58557(16) 0.57812(13) 1.05995(10)
loop_
_geom_bond_atom_site_label_1
_geom_bond_atom_site_label_2
_geom_bond_site_symmetry_1
_geom_bond_site_symmetry_2
I1 Cu1 1_555 1_555
Cu1 S1 1_555 1_555
S1 C1 1_555 1_555
S2 C12 1_555 1_555
N1 Cu1 1_555 1_555
C1 H1 1_555 1_555
H2 C1 1_555 1_555
C2 C1 1_555 1_555
C3 C2 1_555 1_555
H3 C3 1_555 1_555
C4 C2 1_555 1_555
H4 C4 1_555 1_555
C5 S1 1_555 1_555
C6 N1 1_555 1_555
C7 C6 1_555 1_555
H5 C7 1_555 1_555
C8 C7 1_555 1_555
H6 C8 1_555 1_555
C9 C8 1_555 1_555
H7 C9 1_555 1_555
C10 C5 1_555 1_555
H8 C10 1_555 1_555
C11 N1 1_555 1_555
H9 C11 1_555 1_555
C12 C11 1_555 1_555
C13 S2 1_555 1_555
H10 C13 1_555 1_555
C14 C13 1_555 1_555
H11 C14 1_555 1_555
C15 C12 1_555 1_555
H12 C15 1_555 1_555
S1A C1A 1_555 1_555
S2A C12A 1_555 1_555
N1A C6A 1_555 1_555
C1A H1A 1_555 1_555
H2A C1A 1_555 1_555
C2A C1A 1_555 1_555
C3A C4 1_555 1_555
H3A C3A 1_555 1_555
C4A C3 1_555 1_555
H4A C4A 1_555 1_555
C5A S1A 1_555 1_555
C6A C5A 1_555 1_555
C7A C6A 1_555 1_555
H5A C7A 1_555 1_555
C8A C7A 1_555 1_555
H6A C8A 1_555 1_555
C9A C8A 1_555 1_555
H7A C9A 1_555 1_555
C10A C5A 1_555 1_555
H8A C10A 1_555 1_555
C11A N1A 1_555 1_555
H9A C11A 1_555 1_555
C12A C11A 1_555 1_555
C13A S2A 1_555 1_555
H10A C13A 1_555 1_555
C14A C13A 1_555 1_555
H11A C14A 1_555 1_555
C15A C12A 1_555 1_555
H12A C15A 1_555 1_555
I1A Cu1A 1_555 1_555
Cu1A S1A 1_555 1_555
I1_2 Cu1A 1_555 1_555
I1A_2 Cu1 1_555 1_555
Cu1_2 I1A 1_555 1_555
Cu1A_2 I1 1_555 1_555
Cu1 Cu1A_2 1_555 1_555
C5 C6 1_555 1_555
C9 C10 1_555 1_555
C14 C15 1_555 1_555
N1A Cu1A 1_555 1_555
C2A C3A 1_555 1_555
C2A C4A 1_555 1_555
C9A C10A 1_555 1_555
C14A C15A 1_555 1_555
Cu1A Cu1_2 1_555 1_555
I1_2 Cu1_2 1_555 1_555
I1A_2 Cu1A_2 1_555 1_555

#END
