
#######################################################################
#
#                 Cambridge Crystallographic Data Centre
#                                CCDC 
#
#######################################################################
#
# If this CIF has been generated from an entry in the Cambridge 
# Structural Database, then it will include bibliographic, chemical, 
# crystal, experimental, refinement or atomic coordinate data resulting 
# from the CCDC's data processing and validation procedures.
#
#######################################################################

data_DIFCIF
_symmetry_cell_setting           triclinic
_symmetry_space_group_name_H-M   'P -1'
_symmetry_Int_Tables_number      2
_space_group_name_Hall           '-P 1'
loop_
_symmetry_equiv_pos_site_id
_symmetry_equiv_pos_as_xyz
1 x,y,z
2 -x,-y,-z
_cell_length_a                   9.4733(6)
_cell_length_b                   12.5326(8)
_cell_length_c                   17.2374(11)
_cell_angle_alpha                96.561(2)
_cell_angle_beta                 90.310(2)
_cell_angle_gamma                94.876(2)
_cell_volume                     2025.51
loop_
_atom_site_label
_atom_site_type_symbol
_atom_site_fract_x
_atom_site_fract_y
_atom_site_fract_z
Re1 Re 0.22131(7) 0.32477(5) 0.40429(5)
Re2 Re 0.30119(8) 0.28690(5) 0.18697(5)
Re3 Re 0.11643(8) 0.39410(5) 0.27652(5)
Re4 Re 0.39251(8) 0.43126(5) 0.30832(5)
Re5 Re 0.12830(8) 0.18206(5) 0.28181(5)
Re6 Re 0.40525(8) 0.21919(5) 0.31516(5)
Te1 Te 0.20711(13) 0.53671(9) 0.40009(8)
Te2 Te 0.28434(14) 0.49710(9) 0.17867(9)
Te3 Te 0.23424(15) 0.11073(10) 0.40767(10)
Te4 Te 0.31529(14) 0.07454(9) 0.19254(9)
Te5 Te -0.05974(13) 0.28960(9) 0.37031(9)
Te6 Te 0.02057(13) 0.25246(9) 0.15432(9)
Te7 Te 0.50157(13) 0.36366(9) 0.43704(9)
Te8 Te 0.58151(13) 0.32244(9) 0.22099(9)
C1 C 0.347(2) 0.2665(16) 0.0686(15)
N1 N 0.1570(17) 0.3266(12) 0.5869(11)
N2 N -0.0889(15) 0.1981(10) 0.6563(9)
N3 N -0.0601(17) 0.2405(12) 0.8114(11)
C2 C -0.206(2) 0.2021(15) 0.6983(13)
C3 C -0.311(2) 0.2215(15) 0.8286(13)
H1 H -0.4038 0.2058 0.8073
C4 C -0.0041(18) 0.0387(13) 0.2692(12)
C5 C -0.290(2) 0.2444(17) 0.9083(15)
H2 H -0.3702 0.2494 0.9412
C6 C 0.5315(17) 0.5739(12) 0.3157(11)
C7 C -0.1914(19) 0.2216(13) 0.7783(12)
C8 C 0.567(2) 0.1167(15) 0.3399(13)
N4 N 0.6415(19) 0.0582(13) 0.3561(12)
C9 C -0.0384(19) 0.5025(14) 0.2576(12)
N5 N 0.369(2) 0.2532(14) 0.0024(12)
C10 C -0.342(2) 0.1838(16) 0.6592(14)
H3 H -0.4255 0.1867 0.6892
C11 C -0.047(3) 0.2584(19) 0.8867(16)
H4 H 0.0459 0.2718 0.9082
C12 C -0.102(2) 0.1695(16) 0.5770(14)
H5 H -0.0169 0.1615 0.5484
O1 O 0.3601(13) 0.1261(10) 0.7640(10)
O2 O 0.2347(14) 0.1163(11) 0.6076(9)
O3 O 0.2762(16) 0.3111(10) 0.8560(10)
H6 H 0.2776 0.2608 0.8932
N6 N 0.6027(14) 0.6487(11) 0.3080(10)
N7 N -0.0697(18) -0.0462(13) 0.2627(11)
C13 C -0.231(2) 0.1512(16) 0.5355(15)
H7 H -0.2348 0.1325 0.4805
N8 N -0.1067(16) 0.5697(12) 0.2483(11)
C14 C -0.161(3) 0.2597(18) 0.9398(16)
H8 H -0.1459 0.2709 0.9947
C15 C -0.352(3) 0.1623(18) 0.5797(16)
H9 H -0.4426 0.1548 0.5546
C16 C 0.178(2) 0.3343(13) 0.5214(13)
C17 C 0.337(3) 0.4228(18) 0.8813(15)
H11 H 0.4301 0.4205 0.9070
H12 H 0.3522 0.4619 0.8349
C19 C 0.239(3) 0.484(2) 0.9382(19)
H16 H 0.2285 0.4482 0.9855
H17 H 0.2814 0.5583 0.9520
H18 H 0.1465 0.4857 0.9133
Nd1 Nd 0.16729(10) 0.24046(7) 0.72082(7)
N6A N 0.3973(14) 0.3513(11) 0.6920(10)
N7A N 0.0697(18) 0.0462(13) 0.7373(11)
N8A N 0.1067(16) 0.4303(12) 0.7517(11)
Nd1A Nd 0.83271(10) 0.75954(7) 0.27918(7)
Nd1A_2 Nd -0.16729(10) -0.24046(7) 0.27918(7)
Nd1A_3 Nd -0.16729(10) 0.75954(7) 0.27918(7)
O4 O 0.397(2) 0.0614(15) -0.0971(13)
H10 H 0.4809 0.0620 -0.0814
C18 C 0.173(3) 0.005(2) -0.0431(19)
H13 H 0.1849 0.0776 -0.0152
H14 H 0.1308 -0.0453 -0.0082
H15 H 0.1102 0.0043 -0.0886
C20 C 0.311(3) -0.029(2) -0.069(2)
H19 H 0.3616 -0.0545 -0.0251
H20 H 0.2979 -0.0893 -0.1115
loop_
_geom_bond_atom_site_label_1
_geom_bond_atom_site_label_2
_geom_bond_site_symmetry_1
_geom_bond_site_symmetry_2
Re1 Re3 1_555 1_555
Re2 Re3 1_555 1_555
Re3 Re4 1_555 1_555
Re4 Re1 1_555 1_555
Re5 Re1 1_555 1_555
Re6 Re1 1_555 1_555
Te1 Re1 1_555 1_555
Te2 Re2 1_555 1_555
Te3 Re1 1_555 1_555
Te4 Re2 1_555 1_555
Te5 Re1 1_555 1_555
Te6 Re2 1_555 1_555
Te7 Re1 1_555 1_555
Te8 Re2 1_555 1_555
C1 Re2 1_555 1_555
N1 C16 1_555 1_555
N2 C2 1_555 1_555
N3 C7 1_555 1_555
C2 C7 1_555 1_555
C3 H1 1_555 1_555
C4 Re5 1_555 1_555
C5 C3 1_555 1_555
H2 C5 1_555 1_555
C6 Re4 1_555 1_555
C7 C3 1_555 1_555
C8 Re6 1_555 1_555
N4 C8 1_555 1_555
C9 Re3 1_555 1_555
N5 C1 1_555 1_555
C10 C2 1_555 1_555
H3 C10 1_555 1_555
C11 N3 1_555 1_555
H4 C11 1_555 1_555
C12 N2 1_555 1_555
H5 C12 1_555 1_555
O1 Nd1 1_555 1_555
O2 Nd1 1_555 1_555
O3 H6 1_555 1_555
N6 C6 1_555 1_555
N7 C4 1_555 1_555
C13 C12 1_555 1_555
H7 C13 1_555 1_555
N8 C9 1_555 1_555
C14 C5 1_555 1_555
H8 C14 1_555 1_555
C15 C10 1_555 1_555
H9 C15 1_555 1_555
C16 Re1 1_555 1_555
O4 H10 1_555 1_555
C17 O3 1_555 1_555
H11 C17 1_555 1_555
H12 C17 1_555 1_555
C18 H13 1_555 1_555
H14 C18 1_555 1_555
H15 C18 1_555 1_555
C19 C17 1_555 1_555
H16 C19 1_555 1_555
H17 C19 1_555 1_555
H18 C19 1_555 1_555
C20 O4 1_555 1_555
H19 C20 1_555 1_555
H20 C20 1_555 1_555
Nd1 N1 1_555 1_555
N6A Nd1 1_555 1_555
N7A Nd1 1_555 1_555
N8A Nd1 1_555 1_555
Nd1A N6 1_555 1_555
Nd1A_2 N7 1_555 1_555
Nd1A_3 N8 1_555 1_555
Re2 Re4 1_555 1_555
Re2 Re5 1_555 1_555
Re2 Re6 1_555 1_555
Re3 Re5 1_555 1_555
Re3 Te1 1_555 1_555
Re3 Te2 1_555 1_555
Re3 Te5 1_555 1_555
Re3 Te6 1_555 1_555
Re4 Re6 1_555 1_555
Re4 Te1 1_555 1_555
Re4 Te2 1_555 1_555
Re4 Te7 1_555 1_555
Re4 Te8 1_555 1_555
Re5 Re6 1_555 1_555
Re5 Te3 1_555 1_555
Re5 Te4 1_555 1_555
Re5 Te5 1_555 1_555
Re5 Te6 1_555 1_555
Re6 Te3 1_555 1_555
Re6 Te4 1_555 1_555
Re6 Te7 1_555 1_555
Re6 Te8 1_555 1_555
N2 Nd1 1_555 1_555
N3 Nd1 1_555 1_555
C11 C14 1_555 1_555
O3 Nd1 1_555 1_555
C13 C15 1_555 1_555
C18 C20 1_555 1_555

#END
