
#######################################################################
#
#                 Cambridge Crystallographic Data Centre
#                                CCDC 
#
#######################################################################
#
# If this CIF has been generated from an entry in the Cambridge 
# Structural Database, then it will include bibliographic, chemical, 
# crystal, experimental, refinement or atomic coordinate data resulting 
# from the CCDC's data processing and validation procedures.
#
#######################################################################

data_DIFCEB
_symmetry_cell_setting           monoclinic
_symmetry_space_group_name_H-M   'C 2/c'
_symmetry_Int_Tables_number      15
_space_group_name_Hall           '-C 2yn'
loop_
_symmetry_equiv_pos_site_id
_symmetry_equiv_pos_as_xyz
1 x,y,z
2 1/2+x,1/2+y,z
3 -x,y,1/2-z
4 1/2-x,1/2+y,1/2-z
5 -x,-y,-z
6 1/2-x,1/2-y,-z
7 x,-y,1/2+z
8 1/2+x,1/2-y,1/2+z
_cell_length_a                   15.8668(3)
_cell_length_b                   13.5403(3)
_cell_length_c                   20.5189(4)
_cell_angle_alpha                90
_cell_angle_beta                 110.135(1)
_cell_angle_gamma                90
_cell_volume                     4138.89
loop_
_atom_site_label
_atom_site_type_symbol
_atom_site_fract_x
_atom_site_fract_y
_atom_site_fract_z
Se1 Se -0.82758(3) 0.56902(3) 0.05195(2)
Se2 Se -0.68860(3) 0.56035(3) -0.05375(2)
Se3 Se -0.54369(3) 0.73708(3) 0.05432(2)
Se4 Se -0.68042(3) 0.74740(3) 0.16060(2)
C1 C -0.6038(2) 0.5354(3) 0.1182(2)
N1 N -0.5601(2) 0.4757(2) 0.15359(18)
C2 C -0.5970(3) 0.7333(3) -0.1184(2)
N2 N -0.5553(2) 0.7212(3) -0.15368(19)
C3 C -0.9151(3) 0.5509(3) -0.1184(2)
N3 N -0.9632(3) 0.4921(3) -0.1502(2)
Nd1 Nd -0.5000 0.343370(18) 0.2500
O1 O -0.5000 0.1594(2) 0.2500
H1 H -0.497(3) 0.119(2) 0.2830(13)
N4 N -0.3503(2) 0.4345(2) 0.25230(16)
C4 C -0.3529(3) 0.5131(4) 0.2122(2)
H2 H -0.4085 0.5345 0.1825
C5 C -0.2785(3) 0.5637(4) 0.2125(3)
H3 H -0.2841 0.6208 0.1861
C6 C -0.1962(4) 0.5297(4) 0.2516(3)
H4 H -0.1445 0.5606 0.2503
C7 C -0.1907(3) 0.4489(4) 0.2933(3)
H5 H -0.1351 0.4246 0.3209
C8 C -0.2691(3) 0.4039(3) 0.2937(2)
N5 N -0.3464(2) 0.2841(2) 0.34011(17)
C9 C -0.3460(3) 0.2135(3) 0.3857(2)
H6 H -0.4008 0.1870 0.3841
C10 C -0.2689(3) 0.1778(3) 0.4350(2)
H7 H -0.2714 0.1266 0.4645
C11 C -0.1891(4) 0.2192(4) 0.4394(3)
H8 H -0.1361 0.1985 0.4731
C12 C -0.1883(3) 0.2930(4) 0.3927(3)
H9 H -0.1343 0.3217 0.3947
C13 C -0.2672(3) 0.3236(3) 0.3435(2)
Re1 Re -0.682180(9) 0.648790(10) 0.055720(7)
Re2 Re -0.821900(10) 0.754970(9) 0.055630(8)
Re3 Re -0.826190(9) 0.657210(10) -0.056310(7)
Se1E Se -0.67242(3) 0.93098(3) -0.05195(2)
Se2E Se -0.81140(3) 0.93965(3) 0.05375(2)
Se3E Se -0.95631(3) 0.76292(3) -0.05432(2)
Se4E Se -0.81958(3) 0.75260(3) -0.16060(2)
C1E C -0.8962(2) 0.9646(3) -0.1182(2)
N1B N -0.4399(2) 0.4757(2) 0.34641(18)
N1E N -0.9399(2) 1.0243(2) -0.15359(18)
C2E C -0.9030(3) 0.7667(3) 0.1184(2)
N2F N -0.5553(2) 0.2788(3) 0.34632(19)
N2D N -0.4447(2) 0.2788(3) 0.15368(19)
N2E N -0.9447(2) 0.7788(3) 0.15368(19)
C3E C -0.5849(3) 0.9491(3) 0.1184(2)
N3E N -0.5368(3) 1.0079(3) 0.1502(2)
Nd1G Nd -1.0000 1.156630(18) -0.2500
Nd1F Nd -0.5000 0.656630(18) -0.2500
Nd1A Nd -1.0000 0.843370(18) 0.2500
H1B H -0.503(3) 0.119(2) 0.2170(13)
N4B N -0.6497(2) 0.4345(2) 0.24770(16)
C4B C -0.6471(3) 0.5131(4) 0.2878(2)
H2B H -0.5915 0.5345 0.3175
C5B C -0.7215(3) 0.5637(4) 0.2875(3)
H3B H -0.7159 0.6208 0.3139
C6B C -0.8038(4) 0.5297(4) 0.2484(3)
H4B H -0.8555 0.5606 0.2497
C7B C -0.8093(3) 0.4489(4) 0.2067(3)
H5B H -0.8649 0.4246 0.1791
C8B C -0.7309(3) 0.4039(3) 0.2063(2)
N5B N -0.6536(2) 0.2841(2) 0.15989(17)
C9B C -0.6540(3) 0.2135(3) 0.1143(2)
H6B H -0.5992 0.1870 0.1159
C10B C -0.7311(3) 0.1778(3) 0.0650(2)
H7B H -0.7286 0.1266 0.0355
C11B C -0.8109(4) 0.2192(4) 0.0606(3)
H8B H -0.8639 0.1985 0.0269
C12B C -0.8117(3) 0.2930(4) 0.1073(3)
H9B H -0.8657 0.3217 0.1053
C13B C -0.7328(3) 0.3236(3) 0.1565(2)
Re1E Re -0.817820(9) 0.851210(10) -0.055720(7)
Re2E Re -0.678100(10) 0.745030(9) -0.055630(8)
Re3E Re -0.673810(9) 0.842790(10) 0.056310(7)
loop_
_geom_bond_atom_site_label_1
_geom_bond_atom_site_label_2
_geom_bond_site_symmetry_1
_geom_bond_site_symmetry_2
Se1 Re1 1_555 1_555
Se2 Re1 1_555 1_555
Se3 Re1 1_555 1_555
Se4 Re1 1_555 1_555
C1 N1 1_555 1_555
N1 Nd1 1_555 1_555
C2 N2 1_555 1_555
N2 Nd1F 1_555 1_555
C3 N3 1_555 1_555
Nd1 O1 1_555 1_555
O1 H1 1_555 1_555
N4 Nd1 1_555 1_555
C4 N4 1_555 1_555
H2 C4 1_555 1_555
C5 C4 1_555 1_555
H3 C5 1_555 1_555
C6 C5 1_555 1_555
H4 C6 1_555 1_555
C7 C6 1_555 1_555
H5 C7 1_555 1_555
C8 N4 1_555 1_555
N5 Nd1 1_555 1_555
C9 N5 1_555 1_555
H6 C9 1_555 1_555
C10 C9 1_555 1_555
H7 C10 1_555 1_555
C11 C10 1_555 1_555
H8 C11 1_555 1_555
C12 C11 1_555 1_555
H9 C12 1_555 1_555
C13 C8 1_555 1_555
Re1 C1 1_555 1_555
Re2 Se1 1_555 1_555
Re3 Se1 1_555 1_555
Se1E Re1E 1_555 1_555
Se2E Re2 1_555 1_555
Se3E Re2 1_555 1_555
Se4E Re3 1_555 1_555
C1E N1E 1_555 1_555
N1B Nd1 1_555 1_555
N1E Nd1G 1_555 1_555
C2E Re2 1_555 1_555
N2F Nd1 1_555 1_555
N2D Nd1 1_555 1_555
N2E C2E 1_555 1_555
C3E N3E 1_555 1_555
Nd1A N2E 1_555 1_555
H1B O1 1_555 1_555
N4B Nd1 1_555 1_555
C4B N4B 1_555 1_555
H2B C4B 1_555 1_555
C5B C4B 1_555 1_555
H3B C5B 1_555 1_555
C6B C5B 1_555 1_555
H4B C6B 1_555 1_555
C7B C6B 1_555 1_555
H5B C7B 1_555 1_555
C8B N4B 1_555 1_555
N5B Nd1 1_555 1_555
C9B N5B 1_555 1_555
H6B C9B 1_555 1_555
C10B C9B 1_555 1_555
H7B C10B 1_555 1_555
C11B C10B 1_555 1_555
H8B C11B 1_555 1_555
C12B C11B 1_555 1_555
H9B C12B 1_555 1_555
C13B C8B 1_555 1_555
Re1E Re2 1_555 1_555
Re2E Se2 1_555 1_555
Re3E Se3 1_555 1_555
Se2 Re3 1_555 1_555
Se3 Re2E 1_555 1_555
Se4 Re2 1_555 1_555
Se4 Re3E 1_555 1_555
C2 Re2E 1_555 1_555
C3 Re3 1_555 1_555
C7 C8 1_555 1_555
N5 C13 1_555 1_555
C12 C13 1_555 1_555
Re1 Re2 1_555 1_555
Re1 Re3 1_555 1_555
Re1 Re2E 1_555 1_555
Re1 Re3E 1_555 1_555
Re2 Re3 1_555 1_555
Re2 Re3E 1_555 1_555
Re3 Se3E 1_555 1_555
Re3 Re1E 1_555 1_555
Re3 Re2E 1_555 1_555
Se1E Re2E 1_555 1_555
Se1E Re3E 1_555 1_555
Se2E Re1E 1_555 1_555
Se2E Re3E 1_555 1_555
Se3E Re1E 1_555 1_555
Se4E Re1E 1_555 1_555
Se4E Re2E 1_555 1_555
C1E Re1E 1_555 1_555
C3E Re3E 1_555 1_555
C7B C8B 1_555 1_555
N5B C13B 1_555 1_555
C12B C13B 1_555 1_555
Re1E Re2E 1_555 1_555
Re1E Re3E 1_555 1_555
Re2E Re3E 1_555 1_555

#END
