
#######################################################################
#
#                 Cambridge Crystallographic Data Centre
#                                CCDC 
#
#######################################################################
#
# If this CIF has been generated from an entry in the Cambridge 
# Structural Database, then it will include bibliographic, chemical, 
# crystal, experimental, refinement or atomic coordinate data resulting 
# from the CCDC's data processing and validation procedures.
#
#######################################################################

data_DIFCAX
_symmetry_cell_setting           monoclinic
_symmetry_space_group_name_H-M   'C 2/c'
_symmetry_Int_Tables_number      15
_space_group_name_Hall           '-C 2yn'
loop_
_symmetry_equiv_pos_site_id
_symmetry_equiv_pos_as_xyz
1 x,y,z
2 1/2+x,1/2+y,z
3 -x,y,1/2-z
4 1/2-x,1/2+y,1/2-z
5 -x,-y,-z
6 1/2-x,1/2-y,-z
7 x,-y,1/2+z
8 1/2+x,1/2-y,1/2+z
_cell_length_a                   18.2918(16)
_cell_length_b                   14.9972(13)
_cell_length_c                   37.513(3)
_cell_angle_alpha                90
_cell_angle_beta                 102.046(4)
_cell_angle_gamma                90
_cell_volume                     10064.2
loop_
_atom_site_label
_atom_site_type_symbol
_atom_site_fract_x
_atom_site_fract_y
_atom_site_fract_z
Re1 Re 0.64664(2) 0.52871(3) 0.412883(11)
Re2 Re 0.67280(2) 0.63447(2) 0.361160(11)
Re3 Re 0.55045(2) 0.53809(2) 0.350403(11)
Re4 Re 0.65752(2) 0.49990(3) 0.315964(11)
Re5 Re 0.75373(2) 0.49003(3) 0.378547(12)
Re6 Re 0.63107(2) 0.39346(2) 0.367122(12)
Nd1 Nd 0.24849(3) 0.48278(4) 0.319363(16)
Se1 Se 0.56960(6) 0.66691(6) 0.39437(3)
Se2 Se 0.57851(6) 0.63789(7) 0.30145(3)
Se3 Se 0.73535(6) 0.36263(7) 0.33424(3)
Se4 Se 0.72389(6) 0.38898(7) 0.42722(3)
Se5 Se 0.53923(6) 0.40811(7) 0.30682(3)
Se6 Se 0.77426(6) 0.59194(7) 0.32832(3)
Se7 Se 0.76393(6) 0.62066(7) 0.42150(3)
Se8 Se 0.52970(6) 0.43554(6) 0.40041(3)
O1 O 0.1278(4) 0.5077(5) 0.3389(3)
N1 N 0.3722(5) 0.5733(6) 0.3297(2)
N3 N 0.1677(5) 0.3956(6) 0.2651(2)
N4 N 0.7096(5) 0.8410(6) 0.3472(3)
O2 O 0.2453(4) 0.6323(5) 0.3489(2)
O3 O 0.3485(5) 0.3615(5) 0.3223(2)
N5 N 0.1626(5) 0.5754(6) 0.2677(3)
C1 C 0.8683(7) 0.4587(8) 0.3952(4)
C2 C 0.6096(6) 0.2550(7) 0.3678(3)
C3 C 0.4345(6) 0.5640(6) 0.3358(3)
N6 N 0.6905(5) 0.4817(7) 0.2353(3)
C4 C 0.6958(6) 0.7685(7) 0.3541(3)
N7 N 0.6034(6) 0.1804(6) 0.3662(3)
C5 C 0.6413(6) 0.5477(8) 0.4677(3)
C7 C 0.1204(6) 0.4367(8) 0.2383(3)
C9 C 0.1123(6) 0.5341(8) 0.2408(3)
N8 N 0.9299(5) 0.4401(7) 0.4040(4)
N9 N 0.6407(7) 0.5598(8) 0.4973(3)
O6 O 0.3174(6) 0.4673(6) 0.3833(2)
C13 C 0.6730(6) 0.4876(7) 0.2625(3)
C14 C 0.1786(7) 0.3072(8) 0.2620(3)
H11 H 0.2124 0.2786 0.2804
C15 C 0.1422(8) 0.2571(9) 0.2327(4)
H12 H 0.1499 0.1960 0.2316
C17 C 0.0608(7) 0.5799(10) 0.2164(4)
H16 H 0.0275 0.5503 0.1981
C20 C 0.0831(8) 0.3900(10) 0.2080(4)
H21 H 0.0503 0.4190 0.1893
C21 C 0.0958(8) 0.2994(10) 0.2062(4)
H22 H 0.0712 0.2674 0.1860
C22 C 0.0589(8) 0.6730(10) 0.2193(4)
H23 H 0.0235 0.7057 0.2032
C23 C 0.1591(8) 0.6653(8) 0.2675(4)
H24 H 0.1951 0.6958 0.2843
C26 C 0.1071(9) 0.7142(9) 0.2450(4)
H30 H 0.1054 0.7758 0.2475
Nd1A Nd 0.74849(3) 0.98278(4) 0.319363(16)
Nd1B Nd 0.75151(3) 0.48278(4) 0.180637(16)
N4A N 0.2096(5) 0.3410(6) 0.3472(3)
N6B N 0.3095(5) 0.4817(7) 0.2647(3)
N2 N 0.5258(5) 0.2019(6) 0.4881(2)
C6 C 0.4735(6) 0.1463(9) 0.5041(3)
H1 H 0.5003 0.1223 0.5271
H2 H 0.4573 0.0963 0.4879
C8 C 0.5489(7) 0.2874(8) 0.5093(4)
H3 H 0.5846 0.3187 0.4980
H4 H 0.5052 0.3252 0.5073
C10 C 0.5949(6) 0.1452(7) 0.4871(3)
H5 H 0.6162 0.1265 0.5119
H6 H 0.5785 0.0918 0.4732
C11 C 0.4716(6) 0.1614(8) 0.4212(3)
H7 H 0.4410 0.1162 0.4295
H8 H 0.5173 0.1335 0.4177
C12 C 0.4896(7) 0.2340(8) 0.4492(3)
H9 H 0.4439 0.2657 0.4502
H10 H 0.5233 0.2760 0.4412
C16 C 0.4302(7) 0.2009(9) 0.3860(4)
H13 H 0.3908 0.2387 0.3906
H14 H 0.4092 0.1539 0.3696
H15 H 0.4641 0.2354 0.3751
C18 C 0.4041(7) 0.1964(10) 0.5105(4)
H17 H 0.4196 0.2449 0.5274
H18 H 0.3775 0.2217 0.4876
C19 C 0.6568(7) 0.1874(10) 0.4715(4)
H19 H 0.6351 0.2199 0.4495
H20 H 0.6843 0.2294 0.4889
C24 C 0.5984(8) 0.3689(12) 0.5660(5)
H25 H 0.6218 0.4059 0.5508
H26 H 0.6310 0.3628 0.5895
H27 H 0.5522 0.3958 0.5688
C25 C 0.5822(8) 0.2744(11) 0.5480(4)
H28 H 0.6282 0.2406 0.5507
H29 H 0.5480 0.2416 0.5598
C27 C 0.7093(7) 0.1173(11) 0.4629(5)
H31 H 0.7586 0.1419 0.4658
H32 H 0.6925 0.0975 0.4382
H33 H 0.7103 0.0677 0.4791
C28 C 0.3528(9) 0.1353(13) 0.5254(5)
H34 H 0.3378 0.0868 0.5088
H35 H 0.3093 0.1678 0.5285
H36 H 0.3783 0.1122 0.5486
O4 O 0.3166(6) 0.3561(6) 0.4364(2)
O5 O 0.0546(6) 0.3969(6) 0.3750(3)
loop_
_geom_bond_atom_site_label_1
_geom_bond_atom_site_label_2
_geom_bond_site_symmetry_1
_geom_bond_site_symmetry_2
Re1 Re2 1_555 1_555
Re2 Re3 1_555 1_555
Re3 Re1 1_555 1_555
Re4 Re2 1_555 1_555
Re5 Re1 1_555 1_555
Re6 Re1 1_555 1_555
Nd1 O1 1_555 1_555
Se1 Re1 1_555 1_555
Se2 Re2 1_555 1_555
Se3 Re4 1_555 1_555
Se4 Re1 1_555 1_555
Se5 Re3 1_555 1_555
Se6 Re2 1_555 1_555
Se7 Re1 1_555 1_555
Se8 Re1 1_555 1_555
N1 Nd1 1_555 1_555
N2 C6 1_555 1_555
N3 Nd1 1_555 1_555
N4 C4 1_555 1_555
O2 Nd1 1_555 1_555
O3 Nd1 1_555 1_555
N5 Nd1 1_555 1_555
C1 Re5 1_555 1_555
C2 Re6 1_555 1_555
C3 Re3 1_555 1_555
N6 C13 1_555 1_555
C4 Re2 1_555 1_555
N7 C2 1_555 1_555
C5 Re1 1_555 1_555
C6 H1 1_555 1_555
H2 C6 1_555 1_555
C7 N3 1_555 1_555
C8 N2 1_555 1_555
H3 C8 1_555 1_555
H4 C8 1_555 1_555
C9 N5 1_555 1_555
C10 N2 1_555 1_555
H5 C10 1_555 1_555
H6 C10 1_555 1_555
N8 C1 1_555 1_555
N9 C5 1_555 1_555
O6 Nd1 1_555 1_555
C11 H7 1_555 1_555
H8 C11 1_555 1_555
C12 N2 1_555 1_555
H9 C12 1_555 1_555
H10 C12 1_555 1_555
C13 Re4 1_555 1_555
C14 N3 1_555 1_555
H11 C14 1_555 1_555
C15 C14 1_555 1_555
H12 C15 1_555 1_555
C16 C11 1_555 1_555
H13 C16 1_555 1_555
H14 C16 1_555 1_555
H15 C16 1_555 1_555
C17 C9 1_555 1_555
H16 C17 1_555 1_555
C18 C6 1_555 1_555
H17 C18 1_555 1_555
H18 C18 1_555 1_555
C19 C10 1_555 1_555
H19 C19 1_555 1_555
H20 C19 1_555 1_555
C20 C7 1_555 1_555
H21 C20 1_555 1_555
C21 C15 1_555 1_555
H22 C21 1_555 1_555
C22 C17 1_555 1_555
H23 C22 1_555 1_555
C23 N5 1_555 1_555
H24 C23 1_555 1_555
C24 H25 1_555 1_555
H26 C24 1_555 1_555
H27 C24 1_555 1_555
C25 C8 1_555 1_555
H28 C25 1_555 1_555
H29 C25 1_555 1_555
C26 C22 1_555 1_555
H30 C26 1_555 1_555
C27 C19 1_555 1_555
H31 C27 1_555 1_555
H32 C27 1_555 1_555
H33 C27 1_555 1_555
C28 C18 1_555 1_555
H34 C28 1_555 1_555
H35 C28 1_555 1_555
H36 C28 1_555 1_555
Nd1A N4 1_555 1_555
Nd1B N6 1_555 1_555
N4A Nd1 1_555 1_555
N6B Nd1 1_555 1_555
Re2 Re5 1_555 1_555
Re2 Se1 1_555 1_555
Re2 Se7 1_555 1_555
Re3 Re4 1_555 1_555
Re3 Re6 1_555 1_555
Re3 Se1 1_555 1_555
Re3 Se2 1_555 1_555
Re3 Se8 1_555 1_555
Re4 Re5 1_555 1_555
Re4 Re6 1_555 1_555
Re4 Se2 1_555 1_555
Re4 Se5 1_555 1_555
Re4 Se6 1_555 1_555
Re5 Re6 1_555 1_555
Re5 Se3 1_555 1_555
Re5 Se4 1_555 1_555
Re5 Se6 1_555 1_555
Re5 Se7 1_555 1_555
Re6 Se3 1_555 1_555
Re6 Se4 1_555 1_555
Re6 Se5 1_555 1_555
Re6 Se8 1_555 1_555
N1 C3 1_555 1_555
C7 C9 1_555 1_555
C11 C12 1_555 1_555
C20 C21 1_555 1_555
C23 C26 1_555 1_555
C24 C25 1_555 1_555

#END
