
#######################################################################
#
#                 Cambridge Crystallographic Data Centre
#                                CCDC 
#
#######################################################################
#
# If this CIF has been generated from an entry in the Cambridge 
# Structural Database, then it will include bibliographic, chemical, 
# crystal, experimental, refinement or atomic coordinate data resulting 
# from the CCDC's data processing and validation procedures.
#
#######################################################################

data_DIFFAA
_symmetry_cell_setting           monoclinic
_symmetry_space_group_name_H-M   'P 21/c'
_symmetry_Int_Tables_number      14
_space_group_name_Hall           '-P 2ybc'
loop_
_symmetry_equiv_pos_site_id
_symmetry_equiv_pos_as_xyz
1 x,y,z
2 -x,1/2+y,1/2-z
3 -x,-y,-z
4 x,1/2-y,1/2+z
_cell_length_a                   11.122(2)
_cell_length_b                   20.604(4)
_cell_length_c                   14.047(3)
_cell_angle_alpha                90
_cell_angle_beta                 108.32(3)
_cell_angle_gamma                90
_cell_volume                     3055.83
loop_
_atom_site_label
_atom_site_type_symbol
_atom_site_fract_x
_atom_site_fract_y
_atom_site_fract_z
Cd1 Cd 0.81199(4) 0.126285(18) 0.70399(3)
Cd2 Cd 1.16480(4) 0.114338(19) 0.79863(3)
O1 O 0.9685(4) 0.11780(18) 0.6208(3)
O2 O 0.9826(4) 0.10344(19) 0.8420(3)
N1 N 1.1400(4) 0.2264(2) 0.8323(3)
C1 C 1.1947(5) 0.2694(3) 0.7843(4)
C2 C 0.9373(6) 0.0608(2) 0.8894(4)
O3 O 0.6239(5) 0.1023(3) 0.5723(4)
N2 N 0.7020(5) 0.1896(2) 0.7925(4)
C3 C 0.6625(9) 0.3671(4) 0.8199(7)
H1 H 0.6281 0.3956 0.8558
C4 C 0.7212(8) 0.3920(4) 0.7576(7)
H2 H 0.7272 0.4367 0.7510
C5 C 0.7088(5) 0.2548(3) 0.7836(4)
O4 O 0.8225(4) 0.0499(2) 0.8653(4)
C6 C 1.2611(5) 0.2442(3) 0.7192(4)
C7 C 1.0181(6) 0.0643(3) 0.6064(4)
C8 C 1.0807(6) 0.2494(3) 0.8933(5)
H3 H 1.0432 0.2199 0.9255
C9 C 0.7716(5) 0.2804(3) 0.7154(4)
O5 O 0.7571(4) 0.0224(2) 0.6380(4)
C10 C 0.7749(7) 0.3484(3) 0.7013(5)
C11 C 0.8348(9) 0.3713(3) 0.6321(8)
H4 H 0.8382 0.4155 0.6198
N3 N 1.2681(5) 0.1785(2) 0.7094(4)
C12 C 0.6555(6) 0.0419(3) 0.5802(6)
N4 N 0.8259(5) 0.2373(2) 0.6666(4)
C13 C 0.9602(5) 0.0279(3) 0.5084(4)
H5 H 0.8782 0.0112 0.5073
H6 H 0.9462 0.0583 0.4533
C14 C 0.5768(8) 0.2068(4) 0.9021(6)
H7 H 0.5305 0.1888 0.9404
O6 O 1.1115(5) 0.0408(2) 0.6712(4)
C15 C 1.1880(6) 0.3381(3) 0.7973(5)
C16 C 0.8820(7) 0.2609(3) 0.6044(6)
H8 H 0.9204 0.2319 0.5722
C17 C 1.3161(6) 0.2889(3) 0.6672(5)
C18 C 1.2430(8) 0.3811(3) 0.7427(6)
H9 H 1.2381 0.4257 0.7501
C19 C 0.5858(8) 0.2714(4) 0.8957(6)
H10 H 0.5494 0.2980 0.9325
C20 C 1.3826(7) 0.2605(4) 0.6062(6)
H11 H 1.4180 0.2874 0.5689
C21 C 1.0713(7) 0.3158(3) 0.9120(5)
H12 H 1.0300 0.3297 0.9565
C22 C 0.5660(6) -0.0076(4) 0.5127(7)
H13 H 0.5875 -0.0117 0.4512
H14 H 0.5806 -0.0494 0.5460
C23 C 1.1240(8) 0.3599(3) 0.8637(6)
H15 H 1.1175 0.4041 0.8745
C24 C 0.6507(7) 0.2996(3) 0.8332(5)
C25 C 1.3023(8) 0.3563(4) 0.6802(6)
H16 H 1.3356 0.3850 0.6440
C26 C 0.6373(7) 0.1662(4) 0.8509(6)
H17 H 0.6322 0.1215 0.8577
C27 C 0.8872(8) 0.3275(4) 0.5840(7)
H18 H 0.9261 0.3416 0.5380
C28 C 1.0299(5) 0.0260(3) 0.9767(4)
H19 H 1.0703 0.0577 1.0279
H20 H 1.0953 0.0063 0.9541
O7 O 1.3427(7) 0.1172(3) 0.9527(5)
C29 C 1.3623(6) 0.0597(3) 0.9428(5)
O8 O 1.2862(6) 0.0278(3) 0.8769(5)
C30 C 1.3329(7) 0.1553(3) 0.6523(5)
H21 H 1.3378 0.1106 0.6454
C31 C 1.3954(7) 0.1964(4) 0.6011(6)
H22 H 1.4443 0.1787 0.5647
C32 C 1.4730(8) 0.0261(4) 1.0184(6)
H23 H 1.5387 0.0581 1.0461
H24 H 1.4449 0.0104 1.0730
Cd1B Cd 1.18801(4) -0.126285(18) 0.29601(3)
Cd1B_2 Cd 1.18801(4) -0.126285(18) 1.29601(3)
Cd1B_3 Cd 0.18801(4) -0.126285(18) 0.29601(3)
Cd2B Cd 0.83520(4) -0.114338(19) 1.20137(3)
Cd2B_2 Cd 0.83520(4) -0.114338(19) 0.20137(3)
Cd2B_3 Cd 1.83520(4) -0.114338(19) 1.20137(3)
O1B O 1.0315(4) -0.11780(18) 0.3792(3)
O2B O 1.0174(4) -0.10344(19) 1.1580(3)
O2B_2 O 1.0174(4) -0.10344(19) 0.1580(3)
N1B N 0.8600(4) -0.2264(2) 1.1677(3)
C1B C 0.8053(5) -0.2694(3) 1.2157(4)
C2B C 1.0627(6) -0.0608(2) 1.1106(4)
O3B O 0.3761(5) -0.1023(3) 0.4277(4)
O3B_2 O 1.3761(5) -0.1023(3) 0.4277(4)
N2B N 1.2980(5) -0.1896(2) 0.2075(4)
C3B C 1.3375(9) -0.3671(4) 0.1801(7)
H1B H 1.3719 -0.3956 0.1442
C4B C 1.2788(8) -0.3920(4) 0.2424(7)
H2B H 1.2728 -0.4367 0.2490
C5B C 1.2912(5) -0.2548(3) 0.2164(4)
O4B O 1.1775(4) -0.0499(2) 1.1347(4)
C6B C 0.7389(5) -0.2442(3) 1.2808(4)
C7B C 0.9819(6) -0.0643(3) 0.3936(4)
C8B C 0.9193(6) -0.2494(3) 1.1067(5)
H3B H 0.9568 -0.2199 1.0745
C9B C 1.2284(5) -0.2804(3) 0.2846(4)
O5B O 0.2429(4) -0.0224(2) 0.3620(4)
O5B_2 O 1.2429(4) -0.0224(2) 0.3620(4)
C10B C 1.2251(7) -0.3484(3) 0.2987(5)
C11B C 1.1652(9) -0.3713(3) 0.3679(8)
H4B H 1.1618 -0.4155 0.3802
N3B N 0.7319(5) -0.1785(2) 1.2906(4)
C12B C 0.3445(6) -0.0419(3) 0.4198(6)
N4B N 1.1741(5) -0.2373(2) 0.3334(4)
C13B C 1.0398(5) -0.0279(3) 0.4916(4)
H5B H 1.1218 -0.0112 0.4927
H6B H 1.0538 -0.0583 0.5467
C14B C 1.4232(8) -0.2068(4) 0.0979(6)
H7B H 1.4695 -0.1888 0.0596
O6B O 0.8885(5) -0.0408(2) 0.3288(4)
O6B_2 O 0.8885(5) -0.0408(2) 1.3288(4)
C15B C 0.8120(6) -0.3381(3) 1.2027(5)
C16B C 1.1180(7) -0.2609(3) 0.3956(6)
H8B H 1.0796 -0.2319 0.4278
C17B C 0.6839(6) -0.2889(3) 1.3328(5)
C18B C 0.7570(8) -0.3811(3) 1.2573(6)
H9B H 0.7619 -0.4257 1.2499
C19B C 1.4142(8) -0.2714(4) 0.1043(6)
H10B H 1.4506 -0.2980 0.0675
C20B C 0.6174(7) -0.2605(4) 1.3938(6)
H11B H 0.5820 -0.2874 1.4311
C21B C 0.9287(7) -0.3158(3) 1.0880(5)
H12B H 0.9700 -0.3297 1.0435
C22B C 0.4340(6) 0.0076(4) 0.4873(7)
H13B H 0.4125 0.0117 0.5488
H14B H 0.4194 0.0494 0.4540
C23B C 0.8760(8) -0.3599(3) 1.1363(6)
H15B H 0.8825 -0.4041 1.1255
C24B C 1.3493(7) -0.2996(3) 0.1668(5)
C25B C 0.6977(8) -0.3563(4) 1.3198(6)
H16B H 0.6644 -0.3850 1.3560
C26B C 1.3627(7) -0.1662(4) 0.1491(6)
H17B H 1.3678 -0.1215 0.1423
C27B C 1.1128(8) -0.3275(4) 0.4160(7)
H18B H 1.0739 -0.3416 0.4620
C28B C 0.9701(5) -0.0260(3) 1.0233(4)
H19B H 0.9297 -0.0577 0.9721
H20B H 0.9047 -0.0063 1.0459
O7B O 1.6573(7) -0.1172(3) 1.0473(5)
O7B_2 O 0.6573(7) -0.1172(3) 1.0473(5)
C29B C 1.6377(6) -0.0597(3) 1.0572(5)
O8B O 1.7138(6) -0.0278(3) 1.1231(5)
O8B_2 O 0.7138(6) -0.0278(3) 1.1231(5)
C30B C 0.6671(7) -0.1553(3) 1.3477(5)
H21B H 0.6622 -0.1106 1.3546
C31B C 0.6046(7) -0.1964(4) 1.3989(6)
H22B H 0.5557 -0.1787 1.4353
C32B C 1.5270(8) -0.0261(4) 0.9816(6)
H23B H 1.4613 -0.0581 0.9539
H24B H 1.5551 -0.0104 0.9270
loop_
_geom_bond_atom_site_label_1
_geom_bond_atom_site_label_2
_geom_bond_site_symmetry_1
_geom_bond_site_symmetry_2
Cd1 O1 1_555 1_555
Cd2 O2 1_555 1_555
O1 C7 1_555 1_555
O2 Cd1 1_555 1_555
N1 Cd2 1_555 1_555
C1 N1 1_555 1_555
C2 O2 1_555 1_555
O3 Cd1 1_555 1_555
N2 Cd1 1_555 1_555
C3 H1 1_555 1_555
C4 C3 1_555 1_555
H2 C4 1_555 1_555
C5 N2 1_555 1_555
O4 C2 1_555 1_555
C6 C1 1_555 1_555
C7 C13 1_555 1_555
C8 N1 1_555 1_555
H3 C8 1_555 1_555
C9 C5 1_555 1_555
O5 Cd1 1_555 1_555
C10 C4 1_555 1_555
C11 C10 1_555 1_555
H4 C11 1_555 1_555
N3 Cd2 1_555 1_555
C12 O3 1_555 1_555
N4 Cd1 1_555 1_555
C13 H5 1_555 1_555
H6 C13 1_555 1_555
C14 H7 1_555 1_555
O6 Cd2 1_555 1_555
C15 C1 1_555 1_555
C16 N4 1_555 1_555
H8 C16 1_555 1_555
C17 C6 1_555 1_555
C18 C15 1_555 1_555
H9 C18 1_555 1_555
C19 C14 1_555 1_555
H10 C19 1_555 1_555
C20 C17 1_555 1_555
H11 C20 1_555 1_555
C21 C8 1_555 1_555
H12 C21 1_555 1_555
C22 C12 1_555 1_555
H13 C22 1_555 1_555
H14 C22 1_555 1_555
C23 C15 1_555 1_555
H15 C23 1_555 1_555
C24 C3 1_555 1_555
C25 C17 1_555 1_555
H16 C25 1_555 1_555
C26 N2 1_555 1_555
H17 C26 1_555 1_555
C27 C11 1_555 1_555
H18 C27 1_555 1_555
C28 C2 1_555 1_555
H19 C28 1_555 1_555
H20 C28 1_555 1_555
O7 Cd2 1_555 1_555
C29 O7 1_555 1_555
O8 Cd2 1_555 1_555
C30 N3 1_555 1_555
H21 C30 1_555 1_555
C31 C20 1_555 1_555
H22 C31 1_555 1_555
C32 C29 1_555 1_555
H23 C32 1_555 1_555
H24 C32 1_555 1_555
Cd1B O1B 1_555 1_555
Cd1B_2 O2B 1_555 1_555
Cd1B_3 O3B 1_555 1_555
Cd2B O2B 1_555 1_555
Cd2B_2 O2B_2 1_555 1_555
Cd2B_3 O7B 1_555 1_555
O1B C7B 1_555 1_555
O2B C2B 1_555 1_555
O2B_2 Cd1B 1_555 1_555
N1B Cd2B 1_555 1_555
C1B N1B 1_555 1_555
C2B O4B 1_555 1_555
O3B C12B 1_555 1_555
O3B_2 Cd1B 1_555 1_555
N2B Cd1B 1_555 1_555
C3B H1B 1_555 1_555
C4B C3B 1_555 1_555
H2B C4B 1_555 1_555
C5B N2B 1_555 1_555
C6B C1B 1_555 1_555
C7B C13B 1_555 1_555
C8B N1B 1_555 1_555
H3B C8B 1_555 1_555
C9B C5B 1_555 1_555
O5B Cd1B_3 1_555 1_555
O5B_2 Cd1B 1_555 1_555
C10B C4B 1_555 1_555
C11B C10B 1_555 1_555
H4B C11B 1_555 1_555
N3B Cd2B 1_555 1_555
C12B O5B 1_555 1_555
N4B Cd1B 1_555 1_555
C13B C13 1_555 1_555
H5B C13B 1_555 1_555
H6B C13B 1_555 1_555
C14B H7B 1_555 1_555
O6B Cd2B_2 1_555 1_555
O6B_2 Cd2B 1_555 1_555
C15B C1B 1_555 1_555
C16B N4B 1_555 1_555
H8B C16B 1_555 1_555
C17B C6B 1_555 1_555
C18B C15B 1_555 1_555
H9B C18B 1_555 1_555
C19B C14B 1_555 1_555
H10B C19B 1_555 1_555
C20B C17B 1_555 1_555
H11B C20B 1_555 1_555
C21B C8B 1_555 1_555
H12B C21B 1_555 1_555
C22B C22 1_555 1_555
H13B C22B 1_555 1_555
H14B C22B 1_555 1_555
C23B C15B 1_555 1_555
H15B C23B 1_555 1_555
C24B C3B 1_555 1_555
C25B C17B 1_555 1_555
H16B C25B 1_555 1_555
C26B N2B 1_555 1_555
H17B C26B 1_555 1_555
C27B C11B 1_555 1_555
H18B C27B 1_555 1_555
C28B C28 1_555 1_555
H19B C28B 1_555 1_555
H20B C28B 1_555 1_555
O7B C29B 1_555 1_555
O7B_2 Cd2B 1_555 1_555
C29B O8B 1_555 1_555
O8B Cd2B_3 1_555 1_555
O8B_2 Cd2B 1_555 1_555
C30B N3B 1_555 1_555
H21B C30B 1_555 1_555
C31B C20B 1_555 1_555
H22B C31B 1_555 1_555
C32B C32 1_555 1_555
H23B C32B 1_555 1_555
H24B C32B 1_555 1_555
C5 C24 1_555 1_555
C6 N3 1_555 1_555
C7 O6 1_555 1_555
C9 C10 1_555 1_555
C9 N4 1_555 1_555
O5 C12 1_555 1_555
C14 C26 1_555 1_555
C16 C27 1_555 1_555
C18 C25 1_555 1_555
C19 C24 1_555 1_555
C21 C23 1_555 1_555
C29 O8 1_555 1_555
C30 C31 1_555 1_555
C2B C28B 1_555 1_555
C5B C24B 1_555 1_555
C6B N3B 1_555 1_555
C7B O6B 1_555 1_555
C9B C10B 1_555 1_555
C9B N4B 1_555 1_555
C12B C22B 1_555 1_555
C14B C26B 1_555 1_555
C16B C27B 1_555 1_555
C18B C25B 1_555 1_555
C19B C24B 1_555 1_555
C21B C23B 1_555 1_555
C29B C32B 1_555 1_555
C30B C31B 1_555 1_555

#END
