
#######################################################################
#
#                 Cambridge Crystallographic Data Centre
#                                CCDC 
#
#######################################################################
#
# If this CIF has been generated from an entry in the Cambridge 
# Structural Database, then it will include bibliographic, chemical, 
# crystal, experimental, refinement or atomic coordinate data resulting 
# from the CCDC's data processing and validation procedures.
#
#######################################################################

data_DIFGEG
_symmetry_cell_setting           triclinic
_symmetry_space_group_name_H-M   'P -1'
_symmetry_Int_Tables_number      2
_space_group_name_Hall           '-P 1'
loop_
_symmetry_equiv_pos_site_id
_symmetry_equiv_pos_as_xyz
1 x,y,z
2 -x,-y,-z
_cell_length_a                   7.3112(11)
_cell_length_b                   9.0318(12)
_cell_length_c                   17.883(2)
_cell_angle_alpha                76.934(11)
_cell_angle_beta                 78.888(11)
_cell_angle_gamma                86.998(12)
_cell_volume                     1128.69
loop_
_atom_site_label
_atom_site_type_symbol
_atom_site_fract_x
_atom_site_fract_y
_atom_site_fract_z
Ni1 Ni 0.07330(9) 0.61018(7) 0.32134(4)
O1 O 0.0540(5) 0.3801(3) 0.37202(18)
O2 O -0.1957(4) 0.3824(3) 0.46475(17)
O3 O -0.1237(4) 0.6733(3) 0.40828(19)
H1 H -0.176(5) 0.589(3) 0.4405(19)
H2 H -0.228(4) 0.706(4) 0.390(2)
O4 O 0.2847(5) 0.6206(4) 0.38250(18)
H3 H 0.365(5) 0.544(4) 0.383(2)
H4 H 0.260(6) 0.621(5) 0.4320(13)
O5 O -0.1309(5) 0.5962(4) 0.2549(2)
H5 H -0.184(6) 0.681(3) 0.236(2)
H6 H -0.227(4) 0.545(4) 0.283(2)
C1 C 0.0914(6) 1.1012(5) 0.2451(2)
H7 H 0.0426 1.1858 0.2639
N1 N 0.1217(5) 0.8337(4) 0.2662(2)
N2 N 0.2740(5) 0.5819(4) 0.2262(2)
N3 N 0.5746(5) 0.8672(4) -0.0222(2)
C2 C -0.0566(7) 0.3157(5) 0.4320(3)
C3 C -0.0257(7) 0.1513(5) 0.4659(3)
C4 C 0.1451(7) 0.0838(5) 0.4535(3)
H8 H 0.2448 0.1406 0.4217
C5 C -0.1734(7) 0.0650(5) 0.5133(3)
H9 H -0.2913 0.1086 0.5224
C6 C 0.0534(6) 0.9582(5) 0.2899(3)
H10 H -0.0229 0.9476 0.3388
C7 C 0.2008(6) 1.1193(5) 0.1729(2)
H11 H 0.2243 1.2159 0.1414
C8 C 0.2774(6) 0.9910(5) 0.1469(3)
C9 C 0.2377(6) 0.8493(5) 0.1959(3)
C10 C 0.3143(6) 0.7110(5) 0.1740(2)
C11 C 0.3519(6) 0.4529(5) 0.2103(2)
H12 H 0.3234 0.3620 0.2466
C12 C 0.4740(6) 0.4510(5) 0.1410(2)
H13 H 0.5279 0.3596 0.1318
C13 C 0.5156(6) 0.5815(5) 0.0865(3)
H14 H 0.5967 0.5806 0.0397
C14 C 0.4340(6) 0.7181(5) 0.1020(2)
C15 C 0.4700(6) 0.8641(5) 0.0483(3)
C16 C 0.3949(6) 0.9988(5) 0.0702(2)
O1A O -0.0540(5) -0.3801(3) 0.62798(18)
O2A O 0.1957(4) -0.3824(3) 0.53525(17)
C2A C 0.0566(7) -0.3157(5) 0.5680(3)
C3A C 0.0257(7) -0.1513(5) 0.5341(3)
C4A C -0.1451(7) -0.0838(5) 0.5465(3)
H8A H -0.2448 -0.1406 0.5783
C5A C 0.1734(7) -0.0650(5) 0.4867(3)
H9A H 0.2913 -0.1086 0.4776
C1A C 0.9086(6) 0.8988(5) -0.2451(2)
H7A H 0.9574 0.8142 -0.2639
N1A N 0.8783(5) 1.1663(4) -0.2662(2)
N2A N 0.7260(5) 1.4181(4) -0.2262(2)
N3A N 0.4254(5) 1.1328(4) 0.0222(2)
C6A C 0.9466(6) 1.0418(5) -0.2899(3)
H10A H 1.0229 1.0524 -0.3388
C7A C 0.7992(6) 0.8807(5) -0.1729(2)
H11A H 0.7757 0.7841 -0.1414
C8A C 0.7226(6) 1.0090(5) -0.1469(3)
C9A C 0.7623(6) 1.1507(5) -0.1959(3)
C10A C 0.6857(6) 1.2890(5) -0.1740(2)
C11A C 0.6481(6) 1.5471(5) -0.2103(2)
H12A H 0.6766 1.6380 -0.2466
C12A C 0.5260(6) 1.5490(5) -0.1410(2)
H13A H 0.4721 1.6404 -0.1318
C13A C 0.4844(6) 1.4185(5) -0.0865(3)
H14A H 0.4033 1.4194 -0.0397
C14A C 0.5660(6) 1.2819(5) -0.1020(2)
C15A C 0.5300(6) 1.1359(5) -0.0483(3)
C16A C 0.6051(6) 1.0012(5) -0.0702(2)
Ni1A Ni -0.07330(9) -0.61018(7) 0.67866(4)
O3A O 0.1237(4) -0.6733(3) 0.59172(19)
H1A H 0.176(5) -0.589(3) 0.5595(19)
H2A H 0.228(4) -0.706(4) 0.610(2)
O4A O -0.2847(5) -0.6206(4) 0.61750(18)
H3A H -0.365(5) -0.544(4) 0.617(2)
H4A H -0.260(6) -0.621(5) 0.5680(13)
O5A O 0.1309(5) -0.5962(4) 0.7451(2)
H5A H 0.184(6) -0.681(3) 0.764(2)
H6A H 0.227(4) -0.545(4) 0.717(2)
Ni1A_2 Ni 0.92670(9) 1.38982(7) -0.32134(4)
N1A_2 N -0.1217(5) -0.8337(4) 0.7338(2)
N2A_2 N -0.2740(5) -0.5819(4) 0.7738(2)
O6 O 0.7245(5) -0.1262(4) 0.1977(2)
O7 O 0.7107(5) 0.1262(4) 0.16524(19)
C17 C 0.7644(7) -0.0002(7) 0.1510(3)
C18 C 0.8854(7) -0.0004(6) 0.0726(3)
C19 C 0.9588(7) -0.1350(6) 0.0529(3)
H15 H 0.9317 -0.2273 0.0883
C20 C 0.9300(7) 0.1324(6) 0.0179(3)
H16 H 0.8826 0.2237 0.0296
O6A O 1.2755(5) 0.1262(4) -0.1977(2)
O7A O 1.2893(5) -0.1262(4) -0.16524(19)
C17A C 1.2356(7) 0.0002(7) -0.1510(3)
C18A C 1.1146(7) 0.0004(6) -0.0726(3)
C19A C 1.0412(7) 0.1350(6) -0.0529(3)
H15A H 1.0683 0.2273 -0.0883
C20A C 1.0700(7) -0.1324(6) -0.0179(3)
H16A H 1.1174 -0.2237 -0.0296
O8 O 0.9378(12) 0.4145(10) 0.1345(6)
H17 H 1.024(13) 0.440(15) 0.091(3)
H18 H 0.995(13) 0.452(14) 0.165(5)
O9 O 0.5723(7) 0.1608(4) 0.3100(2)
H19 H 0.522(7) 0.071(4) 0.320(3)
H20 H 0.645(7) 0.135(6) 0.345(3)
O10 O 0.5838(5) 0.8366(4) 0.3494(2)
H21 H 0.625(6) 0.856(5) 0.2981(12)
H22 H 0.496(5) 0.774(5) 0.351(2)
O11 O 0.5644(6) 0.4196(4) 0.3587(2)
H23 H 0.594(8) 0.389(5) 0.4062(17)
H24 H 0.557(8) 0.325(3) 0.352(3)
loop_
_geom_bond_atom_site_label_1
_geom_bond_atom_site_label_2
_geom_bond_site_symmetry_1
_geom_bond_site_symmetry_2
Ni1 O1 1_555 1_555
O1 C2 1_555 1_555
O2 C2 1_555 1_555
O3 Ni1 1_555 1_555
H1 O3 1_555 1_555
H2 O3 1_555 1_555
O4 Ni1 1_555 1_555
H3 O4 1_555 1_555
H4 O4 1_555 1_555
O5 Ni1 1_555 1_555
H5 O5 1_555 1_555
H6 O5 1_555 1_555
C1 H7 1_555 1_555
N1 Ni1 1_555 1_555
N2 Ni1 1_555 1_555
N3 C15 1_555 1_555
C2 C3 1_555 1_555
C3 C4 1_555 1_555
C4 H8 1_555 1_555
C5 C3 1_555 1_555
H9 C5 1_555 1_555
C6 C1 1_555 1_555
H10 C6 1_555 1_555
C7 C1 1_555 1_555
H11 C7 1_555 1_555
C8 C7 1_555 1_555
C9 N1 1_555 1_555
C10 N2 1_555 1_555
C11 N2 1_555 1_555
H12 C11 1_555 1_555
C12 C11 1_555 1_555
H13 C12 1_555 1_555
C13 C12 1_555 1_555
H14 C13 1_555 1_555
C14 C10 1_555 1_555
C15 C14 1_555 1_555
C16 C8 1_555 1_555
O6 C17 1_555 1_555
O7 C17 1_555 1_555
C17 C18 1_555 1_555
C18 C19 1_555 1_555
C19 H15 1_555 1_555
C20 C18 1_555 1_555
H16 C20 1_555 1_555
O8 H17 1_555 1_555
H18 O8 1_555 1_555
O9 H19 1_555 1_555
H20 O9 1_555 1_555
O10 H21 1_555 1_555
H22 O10 1_555 1_555
O11 H23 1_555 1_555
H24 O11 1_555 1_555
O1A C2A 1_555 1_555
O2A C2A 1_555 1_555
C2A C3A 1_555 1_555
C3A C4A 1_555 1_555
C4A C5 1_555 1_555
H8A C4A 1_555 1_555
C5A C4 1_555 1_555
H9A C5A 1_555 1_555
C1A H7A 1_555 1_555
N1A C6A 1_555 1_555
N2A C10A 1_555 1_555
N3A C16 1_555 1_555
C6A C1A 1_555 1_555
H10A C6A 1_555 1_555
C7A C1A 1_555 1_555
H11A C7A 1_555 1_555
C8A C7A 1_555 1_555
C9A N1A 1_555 1_555
C10A C9A 1_555 1_555
C11A N2A 1_555 1_555
H12A C11A 1_555 1_555
C12A C11A 1_555 1_555
H13A C12A 1_555 1_555
C13A C12A 1_555 1_555
H14A C13A 1_555 1_555
C14A C10A 1_555 1_555
C15A N3A 1_555 1_555
C16A N3 1_555 1_555
Ni1A O1A 1_555 1_555
O3A Ni1A 1_555 1_555
H1A O3A 1_555 1_555
H2A O3A 1_555 1_555
O4A Ni1A 1_555 1_555
H3A O4A 1_555 1_555
H4A O4A 1_555 1_555
O5A Ni1A 1_555 1_555
H5A O5A 1_555 1_555
H6A O5A 1_555 1_555
Ni1A_2 N1A 1_555 1_555
N1A_2 Ni1A 1_555 1_555
N2A_2 Ni1A 1_555 1_555
O6A C17A 1_555 1_555
O7A C17A 1_555 1_555
C17A C18A 1_555 1_555
C18A C19A 1_555 1_555
C19A C20 1_555 1_555
H15A C19A 1_555 1_555
C20A C19 1_555 1_555
H16A C20A 1_555 1_555
N1 C6 1_555 1_555
C8 C9 1_555 1_555
C9 C10 1_555 1_555
C13 C14 1_555 1_555
C15 C16 1_555 1_555
C3A C5A 1_555 1_555
N2A Ni1A_2 1_555 1_555
C8A C9A 1_555 1_555
C8A C16A 1_555 1_555
C13A C14A 1_555 1_555
C14A C15A 1_555 1_555
C15A C16A 1_555 1_555
C18A C20A 1_555 1_555

#END
