
#######################################################################
#
#                 Cambridge Crystallographic Data Centre
#                                CCDC 
#
#######################################################################
#
# If this CIF has been generated from an entry in the Cambridge 
# Structural Database, then it will include bibliographic, chemical, 
# crystal, experimental, refinement or atomic coordinate data resulting 
# from the CCDC's data processing and validation procedures.
#
#######################################################################

data_DIFHEH
_symmetry_cell_setting           monoclinic
_symmetry_space_group_name_H-M   'P 21/c'
_symmetry_Int_Tables_number      14
_space_group_name_Hall           '-P 2ybc'
loop_
_symmetry_equiv_pos_site_id
_symmetry_equiv_pos_as_xyz
1 x,y,z
2 -x,1/2+y,1/2-z
3 -x,-y,-z
4 x,1/2-y,1/2+z
_cell_length_a                   10.5041(12)
_cell_length_b                   11.6023(13)
_cell_length_c                   19.4036(18)
_cell_angle_alpha                90
_cell_angle_beta                 116.647(5)
_cell_angle_gamma                90
_cell_volume                     2113.58
loop_
_atom_site_label
_atom_site_type_symbol
_atom_site_fract_x
_atom_site_fract_y
_atom_site_fract_z
Mn1 Mn 0.62291(5) 0.44357(4) 0.49215(3)
S1 S 0.61597(10) 0.88485(7) 0.59348(5)
S2 S 0.65475(10) 1.05746(7) 0.59293(5)
F1 F 1.1688(7) 0.1808(5) 0.5505(6)
F2 F 0.7995(9) -0.0025(7) 0.3551(4)
O1 O 0.7440(3) 0.5521(2) 0.58901(14)
O2 O 0.5600(2) 0.64571(19) 0.59176(13)
O3 O 0.4838(3) 1.4040(2) 0.56950(15)
O4 O 0.6539(3) 1.2945(2) 0.56663(14)
N1 N 0.7726(4) 0.4008(3) 0.44978(19)
N2 N 0.9046(6) 0.2936(4) 0.4159(3)
C1 C 0.6901(4) 0.6292(3) 0.61363(19)
C2 C 0.7916(4) 0.7080(3) 0.67575(19)
C3 C 0.9095(4) 0.6612(3) 0.7363(2)
H1 H 0.9244 0.5820 0.7378
C4 C 1.0061(4) 0.7297(4) 0.7947(2)
H2 H 1.0844 0.6968 0.8354
C5 C 0.9853(4) 0.8465(4) 0.7920(2)
H3 H 1.0506 0.8932 0.8307
C6 C 0.8675(4) 0.8955(3) 0.7321(2)
H4 H 0.8537 0.9748 0.7310
C7 C 0.7697(4) 0.8271(3) 0.67354(19)
C8 C 0.5633(4) 1.3159(3) 0.5905(2)
C9 C 0.5473(4) 1.2362(3) 0.6464(2)
C10 C 0.4945(5) 1.2818(3) 0.6944(3)
H5 H 0.4674 1.3589 0.6889
C11 C 0.4810(6) 1.2166(4) 0.7499(3)
H6 H 0.4482 1.2496 0.7826
C12 C 0.5166(6) 1.1021(4) 0.7562(3)
H7 H 0.5068 1.0568 0.7931
C13 C 0.5665(5) 1.0538(3) 0.7084(2)
H8 H 0.5881 0.9756 0.7127
C14 C 0.5854(4) 1.1190(3) 0.6538(2)
C15 C 0.8116(7) 0.2973(4) 0.4458(4)
H9 H 0.7793 0.2328 0.4617
C16 C 0.8425(5) 0.4669(4) 0.4197(3)
H10 H 0.8335 0.5465 0.4139
C17 C 0.9252(5) 0.4022(5) 0.3999(3)
H11 H 0.9850 0.4271 0.3793
C18 C 0.9681(13) 0.1917(7) 0.3986(7)
H12 H 1.0613 0.2118 0.4034
H13 H 0.9091 0.1682 0.3457
C19 C 1.0839(9) 0.0913(6) 0.5240(8)
C20 C 0.9830(11) 0.0920(6) 0.4515(6)
C21 C 0.9011(10) 0.0006(10) 0.4281(5)
F1B F 0.8312(7) -0.1808(5) 0.4495(6)
F2B F 1.2005(9) 0.0025(7) 0.6449(4)
N1B N 1.2274(4) -0.4008(3) 0.55022(19)
N2B N 1.0954(6) -0.2936(4) 0.5841(3)
C15B C 1.1884(7) -0.2973(4) 0.5542(4)
H9B H 1.2207 -0.2328 0.5383
C16B C 1.1575(5) -0.4669(4) 0.5803(3)
H10B H 1.1665 -0.5465 0.5861
C17B C 1.0748(5) -0.4022(5) 0.6001(3)
H11B H 1.0150 -0.4271 0.6207
C18B C 1.0319(13) -0.1917(7) 0.6014(7)
H12B H 0.9387 -0.2118 0.5966
H13B H 1.0909 -0.1682 0.6543
C19B C 0.9161(9) -0.0913(6) 0.4760(8)
C20B C 1.0170(11) -0.0920(6) 0.5485(6)
C21B C 1.0989(10) -0.0006(10) 0.5719(5)
Mn1B Mn 0.37709(5) 0.55643(4) 0.50785(3)
S1B S 0.38403(10) 0.11515(7) 0.40652(5)
S2B S 0.34525(10) -0.05746(7) 0.40707(5)
O1B O 0.2560(3) 0.4479(2) 0.41099(14)
O2B O 0.4400(2) 0.35429(19) 0.40824(13)
O3B O 0.5162(3) -0.4040(2) 0.43050(15)
O4B O 0.3461(3) -0.2945(2) 0.43337(14)
C1B C 0.3099(4) 0.3708(3) 0.38637(19)
C2B C 0.2084(4) 0.2920(3) 0.32425(19)
C3B C 0.0905(4) 0.3388(3) 0.2637(2)
H1B H 0.0756 0.4180 0.2622
C4B C -0.0061(4) 0.2703(4) 0.2053(2)
H2B H -0.0844 0.3032 0.1646
C5B C 0.0147(4) 0.1535(4) 0.2080(2)
H3B H -0.0506 0.1068 0.1693
C6B C 0.1325(4) 0.1045(3) 0.2679(2)
H4B H 0.1463 0.0252 0.2690
C7B C 0.2303(4) 0.1729(3) 0.32646(19)
C8B C 0.4367(4) -0.3159(3) 0.4095(2)
C9B C 0.4527(4) -0.2362(3) 0.3536(2)
C10B C 0.5055(5) -0.2818(3) 0.3056(3)
H5B H 0.5326 -0.3589 0.3111
C11B C 0.5190(6) -0.2166(4) 0.2501(3)
H6B H 0.5518 -0.2496 0.2174
C12B C 0.4834(6) -0.1021(4) 0.2438(3)
H7B H 0.4932 -0.0568 0.2069
C13B C 0.4335(5) -0.0538(3) 0.2916(2)
H8B H 0.4119 0.0244 0.2873
C14B C 0.4146(4) -0.1190(3) 0.3462(2)
Mn1_2 Mn 0.62291(5) -0.55643(4) 0.49215(3)
Mn1_3 Mn 0.62291(5) 1.44357(4) 0.49215(3)
Mn1B_2 Mn 0.37709(5) -0.44357(4) 0.50785(3)
Mn1B_3 Mn 0.37709(5) 1.55643(4) 0.50785(3)
Mn1B_4 Mn 1.37709(5) -0.44357(4) 0.50785(3)
O3_2 O 0.4838(3) 0.4040(2) 0.56950(15)
O3B_2 O 0.5162(3) 0.5960(2) 0.43050(15)
O4_2 O 0.6539(3) 0.2945(2) 0.56663(14)
O4B_2 O 0.3461(3) 0.7055(2) 0.43337(14)
N1B_2 N 0.2274(4) 0.5992(3) 0.55022(19)
loop_
_geom_bond_atom_site_label_1
_geom_bond_atom_site_label_2
_geom_bond_site_symmetry_1
_geom_bond_site_symmetry_2
Mn1 O1 1_555 1_555
S1 S2 1_555 1_555
S2 C14 1_555 1_555
F1 C19 1_555 1_555
F2 C21 1_555 1_555
O1 C1 1_555 1_555
O2 C1 1_555 1_555
O3 C8 1_555 1_555
O4 C8 1_555 1_555
N1 Mn1 1_555 1_555
N2 C15 1_555 1_555
C1 C2 1_555 1_555
C2 C3 1_555 1_555
C3 H1 1_555 1_555
C4 C3 1_555 1_555
H2 C4 1_555 1_555
C5 C4 1_555 1_555
H3 C5 1_555 1_555
C6 C5 1_555 1_555
H4 C6 1_555 1_555
C7 S1 1_555 1_555
C8 C9 1_555 1_555
C9 C10 1_555 1_555
C10 H5 1_555 1_555
C11 C10 1_555 1_555
H6 C11 1_555 1_555
C12 C11 1_555 1_555
H7 C12 1_555 1_555
C13 C12 1_555 1_555
H8 C13 1_555 1_555
C14 C9 1_555 1_555
C15 N1 1_555 1_555
H9 C15 1_555 1_555
C16 N1 1_555 1_555
H10 C16 1_555 1_555
C17 N2 1_555 1_555
H11 C17 1_555 1_555
C18 N2 1_555 1_555
H12 C18 1_555 1_555
H13 C18 1_555 1_555
C19 C20 1_555 1_555
C20 C18 1_555 1_555
C21 C20 1_555 1_555
F1B C19B 1_555 1_555
F2B C21B 1_555 1_555
N1B C15B 1_555 1_555
N2B C15B 1_555 1_555
C15B H9B 1_555 1_555
C16B N1B 1_555 1_555
H10B C16B 1_555 1_555
C17B N2B 1_555 1_555
H11B C17B 1_555 1_555
C18B N2B 1_555 1_555
H12B C18B 1_555 1_555
H13B C18B 1_555 1_555
C19B C21 1_555 1_555
C20B C18B 1_555 1_555
C21B C19 1_555 1_555
Mn1B O2 1_555 1_555
S1B S2B 1_555 1_555
S2B C14B 1_555 1_555
O1B Mn1B 1_555 1_555
O2B Mn1 1_555 1_555
O3B C8B 1_555 1_555
O4B C8B 1_555 1_555
C1B O1B 1_555 1_555
C2B C1B 1_555 1_555
C3B C2B 1_555 1_555
H1B C3B 1_555 1_555
C4B C3B 1_555 1_555
H2B C4B 1_555 1_555
C5B C4B 1_555 1_555
H3B C5B 1_555 1_555
C6B C5B 1_555 1_555
H4B C6B 1_555 1_555
C7B S1B 1_555 1_555
C8B C9B 1_555 1_555
C9B C10B 1_555 1_555
C10B H5B 1_555 1_555
C11B C10B 1_555 1_555
H6B C11B 1_555 1_555
C12B C11B 1_555 1_555
H7B C12B 1_555 1_555
C13B C12B 1_555 1_555
H8B C13B 1_555 1_555
C14B C9B 1_555 1_555
Mn1_2 O3B 1_555 1_555
Mn1_3 O4 1_555 1_555
Mn1B_2 O4B 1_555 1_555
Mn1B_3 O3 1_555 1_555
Mn1B_4 N1B 1_555 1_555
O3_2 Mn1B 1_555 1_555
O3B_2 Mn1 1_555 1_555
O4_2 Mn1 1_555 1_555
O4B_2 Mn1B 1_555 1_555
N1B_2 Mn1B 1_555 1_555
C2 C7 1_555 1_555
C6 C7 1_555 1_555
C13 C14 1_555 1_555
C16 C17 1_555 1_555
C16B C17B 1_555 1_555
C19B C20B 1_555 1_555
C20B C21B 1_555 1_555
O2B C1B 1_555 1_555
C2B C7B 1_555 1_555
C6B C7B 1_555 1_555
C13B C14B 1_555 1_555

#END
