
#######################################################################
#
#                 Cambridge Crystallographic Data Centre
#                                CCDC 
#
#######################################################################
#
# If this CIF has been generated from an entry in the Cambridge 
# Structural Database, then it will include bibliographic, chemical, 
# crystal, experimental, refinement or atomic coordinate data resulting 
# from the CCDC's data processing and validation procedures.
#
#######################################################################

data_DIFKOS
_symmetry_cell_setting           orthorhombic
_symmetry_space_group_name_H-M   'P b c 21'
_symmetry_Int_Tables_number      29
_space_group_name_Hall           'P 2c -2b'
loop_
_symmetry_equiv_pos_site_id
_symmetry_equiv_pos_as_xyz
1 x,y,z
2 -x,-y,1/2+z
3 -x,1/2+y,z
4 x,1/2-y,1/2+z
_cell_length_a                   4.7651(6)
_cell_length_b                   9.3404(15)
_cell_length_c                   37.066(6)
_cell_angle_alpha                90
_cell_angle_beta                 90
_cell_angle_gamma                90
_cell_volume                     1649.73
loop_
_atom_site_label
_atom_site_type_symbol
_atom_site_fract_x
_atom_site_fract_y
_atom_site_fract_z
Zn1 Zn -0.5363(2) -0.51002(13) -0.50000(7)
O1 O -0.9322(16) -0.4928(9) -0.5122(2)
O2 O -1.328(2) -0.4585(10) -0.5424(3)
O3 O -0.405(2) -0.4088(8) -0.4563(3)
O4 O -0.4811(15) -0.2153(6) -0.48729(19)
C1 C -1.061(3) -0.4436(12) -0.5396(4)
C2 C -0.909(3) -0.3556(13) -0.5669(3)
H1 H -0.7779 -0.4173 -0.5795
H2 H -0.8001 -0.2839 -0.5542
C3 C -1.088(4) -0.280(2) -0.5948(5)
H3 H -1.2107 -0.3495 -0.6062
H4 H -1.2049 -0.2098 -0.5828
C4 C -0.918(4) -0.207(2) -0.6231(5)
H5 H -0.7950 -0.2773 -0.6341
H6 H -0.8011 -0.1358 -0.6116
C5 C -1.087(3) -0.1351(16) -0.6526(4)
H7 H -1.2078 -0.0639 -0.6416
H8 H -1.2078 -0.2064 -0.6637
C6 C -0.918(4) -0.0621(17) -0.6825(4)
H9 H -0.7953 0.0085 -0.6715
H10 H -0.8002 -0.1333 -0.6940
C7 C -1.090(4) 0.010(2) -0.7109(5)
H11 H -1.2322 -0.0544 -0.7194
H12 H -0.9714 0.0378 -0.7306
H13 H -1.1777 0.0939 -0.7008
C8 C -0.377(3) -0.2761(10) -0.4606(3)
C9 C -0.217(3) -0.1910(11) -0.4326(3)
H14 H -0.3438 -0.1217 -0.4220
H15 H -0.0690 -0.1382 -0.4447
C10 C -0.085(5) -0.2796(17) -0.4022(5)
H16 H -0.2295 -0.3371 -0.3908
H17 H 0.0534 -0.3442 -0.4123
C11 C 0.054(4) -0.1858(19) -0.3740(5)
H18 H 0.2062 -0.1330 -0.3852
H19 H -0.0817 -0.1168 -0.3651
C12 C 0.168(4) -0.2692(14) -0.3427(4)
H20 H 0.3080 -0.3358 -0.3515
H21 H 0.0166 -0.3247 -0.3321
C13 C 0.300(5) -0.174(2) -0.3133(5)
H22 H 0.4501 -0.1180 -0.3238
H23 H 0.1594 -0.1087 -0.3041
C14 C 0.416(5) -0.261(2) -0.2824(5)
H24 H 0.6087 -0.2849 -0.2871
H25 H 0.3092 -0.3479 -0.2798
H26 H 0.4042 -0.2068 -0.2605
O2_2 O -0.328(2) -0.4585(10) -0.5424(3)
Zn1_2 Zn -1.5363(2) -0.51002(13) -0.50000(7)
Zn1B Zn -0.4637(2) -0.01002(13) -0.50000(7)
O4B O -0.5189(15) -0.7153(6) -0.48729(19)
loop_
_geom_bond_atom_site_label_1
_geom_bond_atom_site_label_2
_geom_bond_site_symmetry_1
_geom_bond_site_symmetry_2
Zn1 O1 1_555 1_555
O1 C1 1_555 1_555
O2 C1 1_555 1_555
O3 Zn1 1_555 1_555
O4 C8 1_555 1_555
C1 C2 1_555 1_555
C2 H1 1_555 1_555
H2 C2 1_555 1_555
C3 C2 1_555 1_555
H3 C3 1_555 1_555
H4 C3 1_555 1_555
C4 C3 1_555 1_555
H5 C4 1_555 1_555
H6 C4 1_555 1_555
C5 C4 1_555 1_555
H7 C5 1_555 1_555
H8 C5 1_555 1_555
C6 C5 1_555 1_555
H9 C6 1_555 1_555
H10 C6 1_555 1_555
C7 C6 1_555 1_555
H11 C7 1_555 1_555
H12 C7 1_555 1_555
H13 C7 1_555 1_555
C8 O3 1_555 1_555
C9 C8 1_555 1_555
H14 C9 1_555 1_555
H15 C9 1_555 1_555
C10 C9 1_555 1_555
H16 C10 1_555 1_555
H17 C10 1_555 1_555
C11 C10 1_555 1_555
H18 C11 1_555 1_555
H19 C11 1_555 1_555
C12 C11 1_555 1_555
H20 C12 1_555 1_555
H21 C12 1_555 1_555
C13 C12 1_555 1_555
H22 C13 1_555 1_555
H23 C13 1_555 1_555
C14 C13 1_555 1_555
H24 C14 1_555 1_555
H25 C14 1_555 1_555
H26 C14 1_555 1_555
O2_2 Zn1 1_555 1_555
Zn1_2 O2 1_555 1_555
Zn1B O4 1_555 1_555
O4B Zn1 1_555 1_555

#END
