
#######################################################################
#
#                 Cambridge Crystallographic Data Centre
#                                CCDC 
#
#######################################################################
#
# If this CIF has been generated from an entry in the Cambridge 
# Structural Database, then it will include bibliographic, chemical, 
# crystal, experimental, refinement or atomic coordinate data resulting 
# from the CCDC's data processing and validation procedures.
#
#######################################################################

data_DIFQOY
_symmetry_cell_setting           monoclinic
_symmetry_space_group_name_H-M   'P 21/c'
_symmetry_Int_Tables_number      14
_space_group_name_Hall           '-P 2ybc'
loop_
_symmetry_equiv_pos_site_id
_symmetry_equiv_pos_as_xyz
1 x,y,z
2 -x,1/2+y,1/2-z
3 -x,-y,-z
4 x,1/2-y,1/2+z
_cell_length_a                   9.5728(3)
_cell_length_b                   16.3086(6)
_cell_length_c                   9.0007(3)
_cell_angle_alpha                90
_cell_angle_beta                 112.114(3)
_cell_angle_gamma                90
_cell_volume                     1301.81
loop_
_atom_site_label
_atom_site_type_symbol
_atom_site_fract_x
_atom_site_fract_y
_atom_site_fract_z
Cl1 Cl 0.38089(8) -0.00020(4) 0.21024(8)
Cl2 Cl 0.83248(9) 0.00242(4) 0.25516(9)
O1 O 0.75729(18) 0.18482(11) -0.03028(19)
O2 O 0.87475(17) 0.22528(10) 0.21881(19)
O3 O 0.16278(18) 0.22282(11) -0.2078(2)
O4 O 0.27937(18) 0.19074(11) 0.0461(2)
O5 O 0.8666(2) 0.36022(11) 0.0074(2)
O6 O 0.9326(2) 0.10378(12) -0.1755(2)
O7 O 1.0849(2) 0.10568(12) 0.1599(2)
O8 O 1.1594(2) 0.36587(12) -0.0042(2)
N1 N 0.51893(19) 0.12333(12) 0.0156(2)
C1 C 0.7603(2) 0.19662(13) 0.1076(2)
C2 C 0.6210(2) 0.17797(15) 0.1423(3)
C3 C 0.4106(2) 0.16632(16) -0.1266(3)
C4 C 0.2755(2) 0.19534(13) -0.0937(2)
H1 H 0.574(4) 0.225(2) 0.152(4)
H2 H 0.645(4) 0.156(2) 0.240(4)
H3 H 0.455(4) 0.208(2) -0.151(4)
H4 H 0.381(4) 0.131(2) -0.212(5)
H5 H 0.576(4) 0.091(2) -0.021(4)
H6 H 0.472(3) 0.0991(19) 0.060(4)
H7 H 0.866(4) 0.395(2) -0.049(4)
H8 H 0.869(4) 0.373(2) 0.095(5)
H9 H 0.873(5) 0.078(3) -0.143(5)
H10 H 0.993(5) 0.072(3) -0.175(5)
H11 H 1.053(6) 0.094(3) 0.217(6)
H12 H 1.160(4) 0.083(2) 0.162(4)
H13 H 1.154(4) 0.401(2) 0.049(4)
H14 H 1.241(4) 0.367(2) -0.009(4)
Pr1 Pr 1.016980(11) 0.236330(7) 0.003650(12)
O2C O 0.87475(17) 0.27472(10) -0.28119(19)
Pr1C Pr 1.016980(11) 0.263670(7) -0.496350(12)
O3_2 O 1.16278(18) 0.22282(11) -0.2078(2)
O4_2 O 1.27937(18) 0.19074(11) 0.0461(2)
O3C O 1.16278(18) 0.27718(11) 0.2922(2)
Pr1C_2 Pr 1.016980(11) 0.263670(7) 0.503650(12)
Pr1_2 Pr 0.016980(11) 0.236330(7) 0.003650(12)
Pr1C_3 Pr 0.016980(11) 0.263670(7) -0.496350(12)
O9 O 0.4512(3) 0.37174(15) 0.0009(3)
H15 H 0.464(6) 0.400(3) -0.082(6)
H16 H 0.514(6) 0.405(3) 0.088(6)
loop_
_geom_bond_atom_site_label_1
_geom_bond_atom_site_label_2
_geom_bond_site_symmetry_1
_geom_bond_site_symmetry_2
O1 C1 1_555 1_555
O2 C1 1_555 1_555
O3 C4 1_555 1_555
O4 C4 1_555 1_555
O5 H7 1_555 1_555
O6 H9 1_555 1_555
O7 H11 1_555 1_555
O8 H13 1_555 1_555
N1 C2 1_555 1_555
C1 C2 1_555 1_555
C2 H1 1_555 1_555
C3 N1 1_555 1_555
C4 C3 1_555 1_555
H2 C2 1_555 1_555
H3 C3 1_555 1_555
H4 C3 1_555 1_555
H5 N1 1_555 1_555
H6 N1 1_555 1_555
H8 O5 1_555 1_555
H10 O6 1_555 1_555
H12 O7 1_555 1_555
H14 O8 1_555 1_555
Pr1 O1 1_555 1_555
O9 H15 1_555 1_555
H16 O9 1_555 1_555
O2C Pr1 1_555 1_555
Pr1C O2C 1_555 1_555
O3_2 Pr1 1_555 1_555
O4_2 Pr1 1_555 1_555
O3C Pr1 1_555 1_555
Pr1C_2 O2 1_555 1_555
Pr1_2 O3 1_555 1_555
Pr1C_3 O3 1_555 1_555
O2 Pr1 1_555 1_555
O4 Pr1_2 1_555 1_555
O5 Pr1 1_555 1_555
O6 Pr1 1_555 1_555
O7 Pr1 1_555 1_555
O8 Pr1 1_555 1_555
Pr1C O3_2 1_555 1_555
O3C Pr1C_2 1_555 1_555

#END
