
#######################################################################
#
#                 Cambridge Crystallographic Data Centre
#                                CCDC 
#
#######################################################################
#
# If this CIF has been generated from an entry in the Cambridge 
# Structural Database, then it will include bibliographic, chemical, 
# crystal, experimental, refinement or atomic coordinate data resulting 
# from the CCDC's data processing and validation procedures.
#
#######################################################################

data_DIFRER
_symmetry_cell_setting           monoclinic
_symmetry_space_group_name_H-M   'C 2/c'
_symmetry_Int_Tables_number      15
_space_group_name_Hall           '-C 2yn'
loop_
_symmetry_equiv_pos_site_id
_symmetry_equiv_pos_as_xyz
1 x,y,z
2 -x,y,1/2-z
3 1/2+x,1/2+y,z
4 1/2-x,1/2+y,1/2-z
5 -x,-y,-z
6 x,-y,1/2+z
7 1/2-x,1/2-y,-z
8 1/2+x,1/2-y,1/2+z
_cell_length_a                   35.504(4)
_cell_length_b                   7.6014(9)
_cell_length_c                   19.894(2)
_cell_angle_alpha                90
_cell_angle_beta                 121.607(2)
_cell_angle_gamma                90
_cell_volume                     4572.57
loop_
_atom_site_label
_atom_site_type_symbol
_atom_site_fract_x
_atom_site_fract_y
_atom_site_fract_z
Ni1 Ni 0.892362(10) 1.18254(4) 0.905278(19)
N1 N 0.87398(7) 1.0072(3) 0.81511(13)
N2 N 0.84821(7) 0.8982(3) 0.69607(13)
N3 N 0.94211(7) 1.3074(3) 0.90172(13)
N4 N 0.98024(7) 1.5314(3) 0.89831(13)
O1 O 0.92739(6) 0.9994(3) 0.99678(11)
O2 O 0.85623(6) 1.0307(2) 0.94332(11)
O3 O 0.88310(6) 0.4114(3) 0.97154(11)
O4 O 0.84702(6) 0.3727(2) 0.84364(11)
C1 C 0.89198(8) 0.9576(3) 0.99315(15)
C2 C 0.89261(9) 0.8259(3) 1.04994(16)
C3 C 0.92871(10) 0.8330(4) 1.12761(17)
H1 H 0.9521 0.9084 1.1401
C4 C 0.93008(11) 0.7303(4) 1.18567(18)
H2 H 0.9543 0.7360 1.2371
C5 C 0.89563(11) 0.6194(4) 1.16749(19)
H3 H 0.8959 0.5521 1.2068
C6 C 0.86043(11) 0.6075(4) 1.09062(18)
H4 H 0.8375 0.5302 1.0788
C7 C 0.85841(9) 0.7080(3) 1.03062(16)
C8 C 0.81821(9) 0.6884(3) 0.94910(17)
C9 C 0.78091(10) 0.7868(4) 0.9312(2)
H5 H 0.7820 0.8606 0.9694
C10 C 0.74258(10) 0.7771(4) 0.8582(2)
H6 H 0.7180 0.8428 0.8479
C11 C 0.74050(10) 0.6709(4) 0.8006(2)
H7 H 0.7149 0.6667 0.7507
C12 C 0.77669(8) 0.5707(4) 0.81733(17)
H8 H 0.7752 0.4981 0.7784
C13 C 0.81569(8) 0.5755(3) 0.89154(15)
C14 C 0.85131(8) 0.4493(3) 0.90444(16)
C15 C 0.86217(10) 0.8349(3) 0.81346(17)
H9 H 0.8646 0.7741 0.8562
C16 C 0.84656(10) 0.7664(4) 0.74136(18)
H10 H 0.8366 0.6520 0.7253
C17 C 0.86482(8) 1.0386(4) 0.74309(16)
H11 H 0.8694 1.1468 0.7267
C18 C 0.83705(9) 0.8879(4) 0.61428(16)
H12 H 0.8589 0.8148 0.6124
H13 H 0.8392 1.0049 0.5971
C19 C 0.78345(9) 0.7553(4) 0.48465(16)
H14 H 0.8060 0.7586 0.4740
C20 C 0.79157(9) 0.8149(3) 0.55664(16)
C21 C 0.75751(9) 0.8089(4) 0.57165(17)
H15 H 0.7624 0.8483 0.6198
C22 C 0.98359(9) 1.2517(4) 0.92318(16)
H16 H 0.9939 1.1369 0.9369
C23 C 1.00736(9) 1.3882(4) 0.92153(17)
H17 H 1.0365 1.3853 0.9338
C24 C 0.94154(9) 1.4770(4) 0.88710(16)
H18 H 0.9172 1.5497 0.8710
C25 C 0.99074(11) 1.7120(4) 0.88663(19)
H19 H 1.0180 1.7496 0.9335
H20 H 0.9673 1.7906 0.8792
C26 C 1.03718(10) 1.7257(4) 0.82491(18)
H21 H 1.0625 1.7248 0.8752
C27 C 0.99579(9) 1.7237(3) 0.81601(16)
C28 C 0.95896(10) 1.7290(4) 0.74080(18)
H22 H 0.9310 1.7349 0.7341
N1F N 0.62602(7) 0.4928(3) 0.18489(13)
N2F N 0.65179(7) 0.6018(3) 0.30393(13)
C15F C 0.63783(10) 0.6651(3) 0.18654(17)
H9F H 0.6354 0.7259 0.1438
C16F C 0.65344(10) 0.7336(4) 0.25864(18)
H10F H 0.6634 0.8480 0.2747
C17F C 0.63518(8) 0.4614(4) 0.25691(16)
H11F H 0.6306 0.3532 0.2733
C18F C 0.66295(9) 0.6121(4) 0.38572(16)
H12F H 0.6411 0.6852 0.3876
H13F H 0.6608 0.4951 0.4029
C19F C 0.71655(9) 0.7447(4) 0.51535(16)
H14F H 0.6940 0.7414 0.5260
C20F C 0.70843(9) 0.6851(3) 0.44336(16)
C21F C 0.74249(9) 0.6911(4) 0.42835(17)
H15F H 0.7376 0.6517 0.3802
N3A N 1.05789(7) 1.3074(3) 0.59828(13)
N4A N 1.01976(7) 1.5314(3) 0.60169(13)
C22A C 1.01641(9) 1.2517(4) 0.57682(16)
H16A H 1.0061 1.1369 0.5631
C23A C 0.99264(9) 1.3882(4) 0.57847(17)
H17A H 0.9635 1.3853 0.5662
C24A C 1.05846(9) 1.4770(4) 0.61290(16)
H18A H 1.0828 1.5497 0.6290
C25A C 1.00926(11) 1.7120(4) 0.61337(19)
H19A H 0.9820 1.7496 0.5665
H20A H 1.0327 1.7906 0.6208
C26A C 0.96282(10) 1.7257(4) 0.67509(18)
H21A H 0.9375 1.7248 0.6248
C27A C 1.00421(9) 1.7237(3) 0.68399(16)
C28A C 1.04104(10) 1.7290(4) 0.75920(18)
H22A H 1.0690 1.7349 0.7659
Ni1A Ni 1.107638(10) 1.18254(4) 0.594722(19)
O1A O 1.07261(6) 0.9994(3) 0.50322(11)
O2A O 1.14377(6) 1.0307(2) 0.55668(11)
O3A O 1.11690(6) 0.4114(3) 0.52846(11)
O4A O 1.15298(6) 0.3727(2) 0.65636(11)
C1A C 1.10802(8) 0.9576(3) 0.50685(15)
C2A C 1.10739(9) 0.8259(3) 0.45006(16)
C3A C 1.07129(10) 0.8330(4) 0.37239(17)
H1A H 1.0479 0.9084 0.3599
C4A C 1.06992(11) 0.7303(4) 0.31433(18)
H2A H 1.0457 0.7360 0.2629
C5A C 1.10437(11) 0.6194(4) 0.33251(19)
H3A H 1.1041 0.5521 0.2932
C6A C 1.13957(11) 0.6075(4) 0.40938(18)
H4A H 1.1625 0.5302 0.4212
C7A C 1.14159(9) 0.7080(3) 0.46938(16)
C8A C 1.18179(9) 0.6884(3) 0.55090(17)
C9A C 1.21909(10) 0.7868(4) 0.5688(2)
H5A H 1.2180 0.8606 0.5306
C10A C 1.25742(10) 0.7771(4) 0.6418(2)
H6A H 1.2820 0.8428 0.6521
C11A C 1.25950(10) 0.6709(4) 0.6994(2)
H7A H 1.2851 0.6667 0.7493
C12A C 1.22331(8) 0.5707(4) 0.68267(17)
H8A H 1.2248 0.4981 0.7216
C13A C 1.18431(8) 0.5755(3) 0.60846(15)
C14A C 1.14869(8) 0.4493(3) 0.59556(16)
Ni1_2 Ni 0.892362(10) 0.18254(4) 0.905278(19)
Ni1A_2 Ni 1.107638(10) 0.18254(4) 0.594722(19)
Ni1F Ni 0.607638(10) 0.31746(4) 0.094722(19)
N1A N 1.12602(7) 1.0072(3) 0.68489(13)
O3_2 O 0.88310(6) 1.4114(3) 0.97154(11)
O3A_2 O 1.11690(6) 1.4114(3) 0.52846(11)
O4_2 O 0.84702(6) 1.3727(2) 0.84364(11)
O4A_2 O 1.15298(6) 1.3727(2) 0.65636(11)
loop_
_geom_bond_atom_site_label_1
_geom_bond_atom_site_label_2
_geom_bond_site_symmetry_1
_geom_bond_site_symmetry_2
Ni1 N1 1_555 1_555
N1 C15 1_555 1_555
N2 C16 1_555 1_555
N3 Ni1 1_555 1_555
N4 C23 1_555 1_555
O1 Ni1 1_555 1_555
O2 Ni1 1_555 1_555
O3 C14 1_555 1_555
O4 C14 1_555 1_555
C1 O1 1_555 1_555
C2 C1 1_555 1_555
C3 C2 1_555 1_555
H1 C3 1_555 1_555
C4 C3 1_555 1_555
H2 C4 1_555 1_555
C5 C4 1_555 1_555
H3 C5 1_555 1_555
C6 C5 1_555 1_555
H4 C6 1_555 1_555
C7 C2 1_555 1_555
C8 C7 1_555 1_555
C9 C8 1_555 1_555
H5 C9 1_555 1_555
C10 C9 1_555 1_555
H6 C10 1_555 1_555
C11 C10 1_555 1_555
H7 C11 1_555 1_555
C12 C11 1_555 1_555
H8 C12 1_555 1_555
C13 C8 1_555 1_555
C14 C13 1_555 1_555
C15 H9 1_555 1_555
C16 C15 1_555 1_555
H10 C16 1_555 1_555
C17 N1 1_555 1_555
H11 C17 1_555 1_555
C18 N2 1_555 1_555
H12 C18 1_555 1_555
H13 C18 1_555 1_555
C19 H14 1_555 1_555
C20 C18 1_555 1_555
C21 C20 1_555 1_555
H15 C21 1_555 1_555
C22 N3 1_555 1_555
H16 C22 1_555 1_555
C23 C22 1_555 1_555
H17 C23 1_555 1_555
C24 N3 1_555 1_555
H18 C24 1_555 1_555
C25 N4 1_555 1_555
H19 C25 1_555 1_555
H20 C25 1_555 1_555
C26 H21 1_555 1_555
C27 C25 1_555 1_555
C28 C27 1_555 1_555
H22 C28 1_555 1_555
N1F C15F 1_555 1_555
N2F C16F 1_555 1_555
C15F H9F 1_555 1_555
C16F C15F 1_555 1_555
H10F C16F 1_555 1_555
C17F N1F 1_555 1_555
H11F C17F 1_555 1_555
C18F N2F 1_555 1_555
H12F C18F 1_555 1_555
H13F C18F 1_555 1_555
C19F C21 1_555 1_555
H14F C19F 1_555 1_555
C20F C18F 1_555 1_555
C21F C19 1_555 1_555
H15F C21F 1_555 1_555
N3A C22A 1_555 1_555
N4A C23A 1_555 1_555
C22A H16A 1_555 1_555
C23A C22A 1_555 1_555
H17A C23A 1_555 1_555
C24A N3A 1_555 1_555
H18A C24A 1_555 1_555
C25A N4A 1_555 1_555
H19A C25A 1_555 1_555
H20A C25A 1_555 1_555
C26A C28 1_555 1_555
H21A C26A 1_555 1_555
C27A C25A 1_555 1_555
C28A C26 1_555 1_555
H22A C28A 1_555 1_555
Ni1A N3A 1_555 1_555
O1A Ni1A 1_555 1_555
O2A Ni1A 1_555 1_555
O3A C14A 1_555 1_555
O4A C14A 1_555 1_555
C1A O1A 1_555 1_555
C2A C1A 1_555 1_555
C3A C2A 1_555 1_555
H1A C3A 1_555 1_555
C4A C3A 1_555 1_555
H2A C4A 1_555 1_555
C5A C4A 1_555 1_555
H3A C5A 1_555 1_555
C6A C5A 1_555 1_555
H4A C6A 1_555 1_555
C7A C2A 1_555 1_555
C8A C7A 1_555 1_555
C9A C8A 1_555 1_555
H5A C9A 1_555 1_555
C10A C9A 1_555 1_555
H6A C10A 1_555 1_555
C11A C10A 1_555 1_555
H7A C11A 1_555 1_555
C12A C11A 1_555 1_555
H8A C12A 1_555 1_555
C13A C8A 1_555 1_555
C14A C13A 1_555 1_555
Ni1_2 O3 1_555 1_555
Ni1A_2 O3A 1_555 1_555
Ni1F N1F 1_555 1_555
N1A Ni1A 1_555 1_555
O3_2 Ni1 1_555 1_555
O3A_2 Ni1A 1_555 1_555
O4_2 Ni1 1_555 1_555
O4A_2 Ni1A 1_555 1_555
N2 C17 1_555 1_555
N4 C24 1_555 1_555
O2 C1 1_555 1_555
O4 Ni1_2 1_555 1_555
C6 C7 1_555 1_555
C12 C13 1_555 1_555
C19 C20 1_555 1_555
C26 C27 1_555 1_555
N2F C17F 1_555 1_555
C19F C20F 1_555 1_555
C20F C21F 1_555 1_555
N4A C24A 1_555 1_555
C26A C27A 1_555 1_555
C27A C28A 1_555 1_555
O2A C1A 1_555 1_555
O4A Ni1A_2 1_555 1_555
C6A C7A 1_555 1_555
C12A C13A 1_555 1_555

#END
