
#######################################################################
#
#                 Cambridge Crystallographic Data Centre
#                                CCDC 
#
#######################################################################
#
# If this CIF has been generated from an entry in the Cambridge 
# Structural Database, then it will include bibliographic, chemical, 
# crystal, experimental, refinement or atomic coordinate data resulting 
# from the CCDC's data processing and validation procedures.
#
#######################################################################

data_DIFRIU01
_symmetry_cell_setting           monoclinic
_symmetry_space_group_name_H-M   'P 21/c'
_symmetry_Int_Tables_number      14
_space_group_name_Hall           '-P 2ybc'
loop_
_symmetry_equiv_pos_site_id
_symmetry_equiv_pos_as_xyz
1 x,y,z
2 -x,1/2+y,1/2-z
3 -x,-y,-z
4 x,1/2-y,1/2+z
_cell_length_a                   12.8718(6)
_cell_length_b                   8.0615(3)
_cell_length_c                   8.3059(3)
_cell_angle_alpha                90
_cell_angle_beta                 100.695(2)
_cell_angle_gamma                90
_cell_volume                     846.899
loop_
_atom_site_label
_atom_site_type_symbol
_atom_site_fract_x
_atom_site_fract_y
_atom_site_fract_z
Ag1 Ag 0.538570(17) 1.14998(3) 0.59011(3)
C1 C 0.65624(18) 0.8319(3) 0.7521(3)
C2 C 0.74465(17) 0.7583(3) 0.8708(3)
C3 C 0.7704(2) 0.5931(3) 0.8984(3)
H1 H 0.7281 0.5097 0.8433
C4 C 0.8618(2) 0.5549(4) 1.0116(4)
H2 H 0.8803 0.4444 1.0325
C5 C 0.9255(2) 0.6787(4) 1.0934(4)
H3 H 0.9862 0.6498 1.1675
C6 C 0.9001(2) 0.8452(3) 1.0665(3)
H4 H 0.9424 0.9290 1.1208
C7 C 0.80870(18) 0.8803(3) 0.9551(3)
N1 N 0.65841(16) 0.9953(3) 0.7439(3)
O1 O 0.82870(18) 1.1671(3) 0.8129(3)
O2 O 0.70812(19) 1.1559(3) 1.0084(3)
S1 S 0.56174(5) 0.70716(8) 0.64297(7)
S2 S 0.75551(5) 1.07393(8) 0.88691(8)
Ag1B Ag 0.461430(17) 0.85002(3) 0.40989(3)
Ag1A Ag 0.461430(17) 0.64998(3) 0.90989(3)
S1B S 0.43826(5) 1.29284(8) 0.35703(7)
S1A S 0.43826(5) 1.20716(8) 0.85703(7)
loop_
_geom_bond_atom_site_label_1
_geom_bond_atom_site_label_2
_geom_bond_site_symmetry_1
_geom_bond_site_symmetry_2
Ag1 N1 1_555 1_555
C1 C2 1_555 1_555
C2 C3 1_555 1_555
C3 H1 1_555 1_555
C4 C3 1_555 1_555
H2 C4 1_555 1_555
C5 C4 1_555 1_555
H3 C5 1_555 1_555
C6 C5 1_555 1_555
H4 C6 1_555 1_555
C7 C2 1_555 1_555
N1 C1 1_555 1_555
O1 S2 1_555 1_555
O2 S2 1_555 1_555
S1 C1 1_555 1_555
S2 C7 1_555 1_555
Ag1B Ag1 1_555 1_555
Ag1A S1 1_555 1_555
S1B Ag1 1_555 1_555
S1A Ag1 1_555 1_555
C6 C7 1_555 1_555
N1 S2 1_555 1_555
S1 Ag1B 1_555 1_555

#END
