
#######################################################################
#
#                 Cambridge Crystallographic Data Centre
#                                CCDC 
#
#######################################################################
#
# If this CIF has been generated from an entry in the Cambridge 
# Structural Database, then it will include bibliographic, chemical, 
# crystal, experimental, refinement or atomic coordinate data resulting 
# from the CCDC's data processing and validation procedures.
#
#######################################################################

data_DIFSER
_symmetry_cell_setting           monoclinic
_symmetry_space_group_name_H-M   'P 21/m'
_symmetry_Int_Tables_number      11
_space_group_name_Hall           '-P 2yb'
loop_
_symmetry_equiv_pos_site_id
_symmetry_equiv_pos_as_xyz
1 x,y,z
2 -x,1/2+y,-z
3 -x,-y,-z
4 x,1/2-y,z
_cell_length_a                   6.3584(10)
_cell_length_b                   18.8244(11)
_cell_length_c                   13.625(2)
_cell_angle_alpha                90
_cell_angle_beta                 92.281(10)
_cell_angle_gamma                90
_cell_volume                     1629.53
loop_
_atom_site_label
_atom_site_type_symbol
_atom_site_fract_x
_atom_site_fract_y
_atom_site_fract_z
W1 W 0.45886(9) 0.7500 0.40859(4)
W2 W 0.74745(9) 0.7500 0.05691(4)
Ag1 Ag -0.01156(19) 0.7500 0.57539(9)
Ag2 Ag 0.49490(14) 0.63993(4) 0.15649(8)
Ag3 Ag 1.0627(3) 0.7500 0.24655(12)
S1 S -0.1686(4) 0.63562(15) 0.6361(2)
S2 S 0.3246(5) 0.52085(14) 0.1431(2)
S3 S 0.3901(6) 0.7500 0.5660(3)
S4 S 0.7994(6) 0.7500 0.3948(3)
S5 S 0.3312(5) 0.65164(16) 0.3401(2)
S6 S 0.3905(5) 0.7500 0.0587(3)
S7 S 0.8868(4) 0.65128(14) 0.1254(2)
S8 S 0.8267(6) 0.7500 -0.0952(3)
N1 N -0.0193(15) 0.5027(4) 0.6587(7)
H1 H -0.1345 0.4892 0.6872
N2 N 0.1932(15) 0.5712(5) 0.5825(7)
H2 H 0.2422 0.6097 0.5550
N3 N 0.5036(15) 0.3948(5) 0.1825(7)
H3 H 0.3903 0.3797 0.2112
N4 N 0.7144(14) 0.4670(5) 0.1103(7)
H4 H 0.7622 0.5075 0.0880
C1 C 0.0114(18) 0.5688(6) 0.6255(8)
C2 C 0.1588(17) 0.4554(6) 0.6425(8)
H5 H 0.1144 0.4131 0.6038
H6 H 0.2266 0.4398 0.7056
C3 C 0.3063(18) 0.5029(5) 0.5850(9)
H7 H 0.4458 0.5074 0.6193
H8 H 0.3248 0.4843 0.5179
C4 C 0.5225(18) 0.4591(5) 0.1446(8)
C5 C 0.6934(18) 0.3511(6) 0.1712(9)
H9 H 0.6600 0.3071 0.1338
H10 H 0.7588 0.3382 0.2359
C6 C 0.8394(18) 0.4003(5) 0.1135(9)
H11 H 0.9772 0.4070 0.1486
H12 H 0.8619 0.3817 0.0467
Ag1_2 Ag 0.98844(19) 0.7500 0.57539(9)
Ag2C Ag 0.49490(14) 0.86007(4) 0.15649(8)
Ag3_2 Ag 0.0627(3) 0.7500 0.24655(12)
S1C S -0.1686(4) 0.86438(15) 0.6361(2)
S2C S 0.3246(5) 0.97915(14) 0.1431(2)
S4_2 S -0.2006(6) 0.7500 0.3948(3)
S5C S 0.3312(5) 0.84836(16) 0.3401(2)
S5_2 S 1.3312(5) 0.65164(16) 0.3401(2)
S5C_2 S 1.3312(5) 0.84836(16) 0.3401(2)
S7C S 0.8868(4) 0.84872(14) 0.1254(2)
N1C N -0.0193(15) 0.9973(4) 0.6587(7)
H1C H -0.1345 1.0108 0.6872
N2C N 0.1932(15) 0.9288(5) 0.5825(7)
H2C H 0.2422 0.8903 0.5550
N3C N 0.5036(15) 1.1052(5) 0.1825(7)
H3C H 0.3903 1.1203 0.2112
N4C N 0.7144(14) 1.0330(5) 0.1103(7)
H4C H 0.7622 0.9925 0.0880
C1C C 0.0114(18) 0.9312(6) 0.6255(8)
C2C C 0.1588(17) 1.0446(6) 0.6425(8)
H5C H 0.1144 1.0869 0.6038
H6C H 0.2266 1.0602 0.7056
C3C C 0.3063(18) 0.9971(5) 0.5850(9)
H7C H 0.4458 0.9926 0.6193
H8C H 0.3248 1.0157 0.5179
C4C C 0.5225(18) 1.0409(5) 0.1446(8)
C5C C 0.6934(18) 1.1489(6) 0.1712(9)
H9C H 0.6600 1.1929 0.1338
H10C H 0.7588 1.1618 0.2359
C6C C 0.8394(18) 1.0997(5) 0.1135(9)
H11C H 0.9772 1.0930 0.1486
H12C H 0.8619 1.1183 0.0467
loop_
_geom_bond_atom_site_label_1
_geom_bond_atom_site_label_2
_geom_bond_site_symmetry_1
_geom_bond_site_symmetry_2
W1 S3 1_555 1_555
W2 S6 1_555 1_555
Ag1 S1 1_555 1_555
Ag2 S2 1_555 1_555
Ag3 S4 1_555 1_555
S1 C1 1_555 1_555
S2 C4 1_555 1_555
S3 Ag1 1_555 1_555
S4 W1 1_555 1_555
S5 W1 1_555 1_555
S6 Ag2 1_555 1_555
S7 W2 1_555 1_555
S8 W2 1_555 1_555
N1 H1 1_555 1_555
N2 H2 1_555 1_555
N3 H3 1_555 1_555
N4 H4 1_555 1_555
C1 N1 1_555 1_555
C2 N1 1_555 1_555
H5 C2 1_555 1_555
H6 C2 1_555 1_555
C3 N2 1_555 1_555
H7 C3 1_555 1_555
H8 C3 1_555 1_555
C4 N3 1_555 1_555
C5 N3 1_555 1_555
H9 C5 1_555 1_555
H10 C5 1_555 1_555
C6 N4 1_555 1_555
H11 C6 1_555 1_555
H12 C6 1_555 1_555
Ag1_2 S4 1_555 1_555
Ag2C S6 1_555 1_555
Ag3_2 S5 1_555 1_555
S1C Ag1 1_555 1_555
S2C Ag2C 1_555 1_555
S4_2 Ag1 1_555 1_555
S5C W1 1_555 1_555
S5_2 Ag3 1_555 1_555
S5C_2 Ag3 1_555 1_555
S7C W2 1_555 1_555
N1C H1C 1_555 1_555
N2C H2C 1_555 1_555
N3C H3C 1_555 1_555
N4C H4C 1_555 1_555
C1C S1C 1_555 1_555
C2C N1C 1_555 1_555
H5C C2C 1_555 1_555
H6C C2C 1_555 1_555
C3C N2C 1_555 1_555
H7C C3C 1_555 1_555
H8C C3C 1_555 1_555
C4C S2C 1_555 1_555
C5C N3C 1_555 1_555
H9C C5C 1_555 1_555
H10C C5C 1_555 1_555
C6C N4C 1_555 1_555
H11C C6C 1_555 1_555
H12C C6C 1_555 1_555
Ag2 S5 1_555 1_555
Ag2 S7 1_555 1_555
Ag3 S7 1_555 1_555
Ag3 S7C 1_555 1_555
N2 C1 1_555 1_555
N4 C4 1_555 1_555
C2 C3 1_555 1_555
C5 C6 1_555 1_555
Ag2C S5C 1_555 1_555
Ag2C S7C 1_555 1_555
Ag3_2 S4_2 1_555 1_555
Ag3_2 S5C 1_555 1_555
N1C C1C 1_555 1_555
N2C C1C 1_555 1_555
N3C C4C 1_555 1_555
N4C C4C 1_555 1_555
C2C C3C 1_555 1_555
C5C C6C 1_555 1_555

#END
