
#######################################################################
#
#                 Cambridge Crystallographic Data Centre
#                                CCDC 
#
#######################################################################
#
# If this CIF has been generated from an entry in the Cambridge 
# Structural Database, then it will include bibliographic, chemical, 
# crystal, experimental, refinement or atomic coordinate data resulting 
# from the CCDC's data processing and validation procedures.
#
#######################################################################

data_DIFSUH
_symmetry_cell_setting           triclinic
_symmetry_space_group_name_H-M   'P -1'
_symmetry_Int_Tables_number      2
_space_group_name_Hall           '-P 1'
loop_
_symmetry_equiv_pos_site_id
_symmetry_equiv_pos_as_xyz
1 x,y,z
2 -x,-y,-z
_cell_length_a                   8.6065(7)
_cell_length_b                   13.3546(11)
_cell_length_c                   13.7726(11)
_cell_angle_alpha                111.035(1)
_cell_angle_beta                 107.816(1)
_cell_angle_gamma                90.096(1)
_cell_volume                     1395.51
loop_
_atom_site_label
_atom_site_type_symbol
_atom_site_fract_x
_atom_site_fract_y
_atom_site_fract_z
Ag1 Ag 0.42440(11) 0.47355(7) 0.57318(6)
Ag2 Ag 0.44915(7) 0.11203(5) 0.43730(5)
Ag3 Ag 0.66759(8) 0.69779(5) 0.77504(5)
I1 I 0.33809(6) 0.62814(4) 0.73285(4)
I2 I 0.73577(6) 0.00485(4) 0.48596(4)
I3 I 0.87175(6) 0.70222(4) 0.97716(4)
S1 S 0.2173(3) 0.40776(17) 0.38226(17)
C1 C 0.1102(9) 0.5137(6) 0.3612(6)
N1 N 0.0652(8) 0.5159(5) 0.2608(5)
H1 H 0.109(10) 0.488(7) 0.208(5)
C2 C -0.0617(10) 0.5705(7) 0.2098(7)
H2 H -0.1702 0.5333 0.1966
H3 H -0.0534 0.5614 0.1371
C3 C -0.0578(10) 0.6906(7) 0.2739(7)
H4 H 0.0533 0.7280 0.2935
H5 H -0.1371 0.7211 0.2263
C4 C -0.0999(11) 0.7123(7) 0.3780(7)
H6 H -0.1992 0.6632 0.3609
H7 H -0.1258 0.7875 0.4051
C5 C 0.0392(11) 0.6963(7) 0.4678(7)
H8 H 0.1396 0.7421 0.4804
H9 H 0.0116 0.7229 0.5367
N2 N 0.0779(8) 0.5850(5) 0.4470(5)
H10 H 0.096(11) 0.556(6) 0.497(5)
S2 S 0.5477(2) 0.30710(15) 0.57752(16)
C6 C 0.5937(9) 0.3049(6) 0.7083(6)
N3 N 0.5896(9) 0.3918(5) 0.7911(5)
H11 H 0.548(11) 0.447(5) 0.776(7)
C7 C 0.6629(12) 0.4095(7) 0.9073(7)
H12 H 0.6723 0.4875 0.9518
H13 H 0.7754 0.3883 0.9202
C8 C 0.5655(14) 0.3468(7) 0.9453(8)
H14 H 0.4633 0.3795 0.9490
H15 H 0.6304 0.3524 1.0204
C9 C 0.5207(12) 0.2278(7) 0.8696(8)
H16 H 0.5069 0.1853 0.9130
H17 H 0.4136 0.2188 0.8118
C10 C 0.6471(11) 0.1823(6) 0.8149(7)
H18 H 0.7583 0.2065 0.8706
H19 H 0.6289 0.1024 0.7871
N4 N 0.6405(9) 0.2157(5) 0.7231(5)
H20 H 0.658(11) 0.169(6) 0.665(5)
S3 S 0.3208(2) 0.11590(15) 0.24783(15)
C11 C 0.1096(9) 0.0852(6) 0.2119(6)
N5 N 0.0144(8) 0.0904(6) 0.1177(5)
H21 H 0.072(9) 0.113(7) 0.085(7)
C12 C -0.1489(10) 0.1294(8) 0.0999(8)
H22 H -0.1820 0.1393 0.0288
H23 H -0.1381 0.2012 0.1587
C13 C -0.2865(10) 0.0562(8) 0.0988(7)
H24 H -0.3920 0.0853 0.0778
H25 H -0.2956 -0.0167 0.0420
C14 C -0.2595(10) 0.0462(7) 0.2072(7)
H26 H -0.3589 0.0056 0.2034
H27 H -0.2447 0.1194 0.2646
C15 C -0.1129(10) -0.0098(7) 0.2406(7)
H28 H -0.1184 -0.0297 0.3022
H29 H -0.1181 -0.0774 0.1779
N6 N 0.0472(7) 0.0569(6) 0.2751(6)
H30 H 0.113(9) 0.061(7) 0.340(3)
Ag2A Ag 0.55085(7) -0.11203(5) 0.56270(5)
Ag3A Ag 0.33241(8) 0.30221(5) 0.22496(5)
I2A I 0.26423(6) -0.00485(4) 0.51404(4)
S1A S 0.7827(3) 0.59224(17) 0.61774(17)
S3A S 0.6792(2) 0.88410(15) 0.75217(15)
loop_
_geom_bond_atom_site_label_1
_geom_bond_atom_site_label_2
_geom_bond_site_symmetry_1
_geom_bond_site_symmetry_2
Ag1 I1 1_555 1_555
Ag2 I2 1_555 1_555
Ag3 I1 1_555 1_555
I2 Ag2A 1_555 1_555
I3 Ag3 1_555 1_555
S1 Ag1 1_555 1_555
C1 S1 1_555 1_555
N1 C1 1_555 1_555
H1 N1 1_555 1_555
C2 N1 1_555 1_555
H2 C2 1_555 1_555
H3 C2 1_555 1_555
C3 C2 1_555 1_555
H4 C3 1_555 1_555
H5 C3 1_555 1_555
C4 C3 1_555 1_555
H6 C4 1_555 1_555
H7 C4 1_555 1_555
C5 C4 1_555 1_555
H8 C5 1_555 1_555
H9 C5 1_555 1_555
N2 C1 1_555 1_555
H10 N2 1_555 1_555
S2 Ag1 1_555 1_555
C6 S2 1_555 1_555
N3 C6 1_555 1_555
H11 N3 1_555 1_555
C7 N3 1_555 1_555
H12 C7 1_555 1_555
H13 C7 1_555 1_555
C8 C7 1_555 1_555
H14 C8 1_555 1_555
H15 C8 1_555 1_555
C9 C8 1_555 1_555
H16 C9 1_555 1_555
H17 C9 1_555 1_555
C10 C9 1_555 1_555
H18 C10 1_555 1_555
H19 C10 1_555 1_555
N4 C6 1_555 1_555
H20 N4 1_555 1_555
S3 Ag2 1_555 1_555
C11 S3 1_555 1_555
N5 C11 1_555 1_555
H21 N5 1_555 1_555
C12 N5 1_555 1_555
H22 C12 1_555 1_555
H23 C12 1_555 1_555
C13 C12 1_555 1_555
H24 C13 1_555 1_555
H25 C13 1_555 1_555
C14 C13 1_555 1_555
H26 C14 1_555 1_555
H27 C14 1_555 1_555
C15 C14 1_555 1_555
H28 C15 1_555 1_555
H29 C15 1_555 1_555
N6 C11 1_555 1_555
H30 N6 1_555 1_555
Ag2A I2A 1_555 1_555
Ag3A S1 1_555 1_555
I2A Ag2 1_555 1_555
S1A Ag3 1_555 1_555
S3A Ag3 1_555 1_555
Ag2 S2 1_555 1_555
C5 N2 1_555 1_555
C10 N4 1_555 1_555
S3 Ag3A 1_555 1_555
C15 N6 1_555 1_555

#END
