
#######################################################################
#
#                 Cambridge Crystallographic Data Centre
#                                CCDC 
#
#######################################################################
#
# If this CIF has been generated from an entry in the Cambridge 
# Structural Database, then it will include bibliographic, chemical, 
# crystal, experimental, refinement or atomic coordinate data resulting 
# from the CCDC's data processing and validation procedures.
#
#######################################################################

data_DIFSAN
_symmetry_cell_setting           monoclinic
_symmetry_space_group_name_H-M   'C 2/c'
_symmetry_Int_Tables_number      15
_space_group_name_Hall           '-C 2yn'
loop_
_symmetry_equiv_pos_site_id
_symmetry_equiv_pos_as_xyz
1 x,y,z
2 1/2+x,1/2+y,z
3 -x,y,1/2-z
4 1/2-x,1/2+y,1/2-z
5 -x,-y,-z
6 1/2-x,1/2-y,-z
7 x,-y,1/2+z
8 1/2+x,1/2-y,1/2+z
_cell_length_a                   7.8453(6)
_cell_length_b                   19.7017(16)
_cell_length_c                   20.9080(17)
_cell_angle_alpha                90
_cell_angle_beta                 92.4620(10)
_cell_angle_gamma                90
_cell_volume                     3228.68
loop_
_atom_site_label
_atom_site_type_symbol
_atom_site_fract_x
_atom_site_fract_y
_atom_site_fract_z
Ag1 Ag 0.5000 -0.01561(3) 0.7500
F1 F 0.1612(6) 0.3274(3) 0.8744(2)
F2 F 0.1657(8) 0.4900(3) 1.0352(3)
O1 O 0.6681(6) 0.2795(2) 0.9339(3)
H1 H 0.7026 0.2402 0.9351
N1 N 0.5595(7) 0.0720(3) 0.8267(3)
N2 N 0.6472(9) 0.1344(4) 0.9112(3)
N3 N 0.4936(6) 0.1562(2) 0.8879(2)
N4 N 0.5964(7) 0.3585(3) 0.8228(3)
N5 N 0.5136(8) 0.4196(3) 0.8263(3)
N6 N 0.7900(7) 0.4329(3) 0.7989(3)
C1 C 0.6779(10) 0.0838(4) 0.8720(4)
H2 H 0.7770 0.0579 0.8761
C2 C 0.4431(8) 0.1183(3) 0.8379(4)
H3 H 0.3408 0.1238 0.8144
C3 C 0.4108(8) 0.2133(3) 0.9173(3)
H4 H 0.4082 0.2054 0.9630
H5 H 0.2937 0.2159 0.9006
C4 C 0.4983(7) 0.2812(3) 0.9059(3)
C5 C 0.5072(9) 0.2948(3) 0.8350(3)
H6 H 0.5663 0.2576 0.8151
H7 H 0.3925 0.2970 0.8159
C6 C 0.6383(11) 0.4630(4) 0.8135(4)
H8 H 0.6238 0.5099 0.8144
C7 C 0.7599(8) 0.3679(3) 0.8073(3)
H9 H 0.8397 0.3335 0.8031
C8 C 0.4037(7) 0.3363(3) 0.9409(3)
C9 C 0.2460(8) 0.3586(3) 0.9236(3)
C10 C 0.1602(10) 0.4102(4) 0.9525(4)
H10 H 0.0520 0.4239 0.9379
C11 C 0.2417(11) 0.4397(4) 1.0033(4)
C12 C 0.3950(12) 0.4213(5) 1.0243(4)
H11 H 0.4470 0.4423 1.0599
C13 C 0.4786(10) 0.3697(4) 0.9925(3)
H12 H 0.5885 0.3575 1.0066
Ag1A Ag 1.0000 0.48439(3) 0.7500
Ag1A_2 Ag 0.0000 0.48439(3) 0.7500
F1B F 0.8388(6) 0.3274(3) 0.6256(2)
F2B F 0.8343(8) 0.4900(3) 0.4648(3)
O1B O 0.3319(6) 0.2795(2) 0.5661(3)
H1B H 0.2974 0.2402 0.5649
N1B N 0.4405(7) 0.0720(3) 0.6733(3)
N2B N 0.3528(9) 0.1344(4) 0.5888(3)
N3B N 0.5064(6) 0.1562(2) 0.6121(2)
N4B N 0.4036(7) 0.3585(3) 0.6772(3)
N5B N 0.4864(8) 0.4196(3) 0.6737(3)
N6B N 0.2100(7) 0.4329(3) 0.7011(3)
N6A N 0.2900(7) -0.0671(3) 0.7989(3)
N6C N 0.7100(7) -0.0671(3) 0.7011(3)
C1B C 0.3221(10) 0.0838(4) 0.6280(4)
H2B H 0.2230 0.0579 0.6239
C2B C 0.5569(8) 0.1183(3) 0.6621(4)
H3B H 0.6592 0.1238 0.6856
C3B C 0.5892(8) 0.2133(3) 0.5827(3)
H4B H 0.5918 0.2054 0.5370
H5B H 0.7063 0.2159 0.5994
C4B C 0.5017(7) 0.2812(3) 0.5941(3)
C5B C 0.4928(9) 0.2948(3) 0.6650(3)
H6B H 0.4337 0.2576 0.6849
H7B H 0.6075 0.2970 0.6841
C6B C 0.3617(11) 0.4630(4) 0.6865(4)
H8B H 0.3762 0.5099 0.6856
C7B C 0.2401(8) 0.3679(3) 0.6927(3)
H9B H 0.1603 0.3335 0.6969
C8B C 0.5963(7) 0.3363(3) 0.5591(3)
C9B C 0.7540(8) 0.3586(3) 0.5764(3)
C10B C 0.8398(10) 0.4102(4) 0.5475(4)
H10B H 0.9480 0.4239 0.5621
C11B C 0.7583(11) 0.4397(4) 0.4967(4)
C12B C 0.6050(12) 0.4213(5) 0.4757(4)
H11B H 0.5530 0.4423 0.4401
C13B C 0.5214(10) 0.3697(4) 0.5075(3)
H12B H 0.4115 0.3575 0.4934
Cl1 Cl 0.0000 0.18093(12) 0.7500
O2 O 0.1505(9) 0.2161(4) 0.7474(5)
O4 O -0.050(2) 0.1580(12) 0.6849(7)
O2B O -0.1505(9) 0.2161(4) 0.7526(5)
O4B O 0.050(2) 0.1580(12) 0.8151(7)
O3? O -0.0157(16) 0.1216(5) 0.7144(10)
loop_
_geom_bond_atom_site_label_1
_geom_bond_atom_site_label_2
_geom_bond_site_symmetry_1
_geom_bond_site_symmetry_2
Ag1 N1 1_555 1_555
F1 C9 1_555 1_555
F2 C11 1_555 1_555
O1 H1 1_555 1_555
N1 C1 1_555 1_555
N2 N3 1_555 1_555
N3 C2 1_555 1_555
N4 N5 1_555 1_555
N5 C6 1_555 1_555
N6 C6 1_555 1_555
C1 N2 1_555 1_555
H2 C1 1_555 1_555
C2 N1 1_555 1_555
H3 C2 1_555 1_555
C3 N3 1_555 1_555
H4 C3 1_555 1_555
H5 C3 1_555 1_555
C4 O1 1_555 1_555
C5 N4 1_555 1_555
H6 C5 1_555 1_555
H7 C5 1_555 1_555
C6 H8 1_555 1_555
C7 N4 1_555 1_555
H9 C7 1_555 1_555
C8 C4 1_555 1_555
C9 C8 1_555 1_555
C10 C9 1_555 1_555
H10 C10 1_555 1_555
C11 C10 1_555 1_555
C12 C11 1_555 1_555
H11 C12 1_555 1_555
C13 C8 1_555 1_555
H12 C13 1_555 1_555
Cl1 O2 1_555 1_555
O4 Cl1 1_555 1_555
Ag1A N6 1_555 1_555
Ag1A_2 N6B 1_555 1_555
F1B C9B 1_555 1_555
F2B C11B 1_555 1_555
O1B H1B 1_555 1_555
N1B Ag1 1_555 1_555
N2B N3B 1_555 1_555
N3B C2B 1_555 1_555
N4B N5B 1_555 1_555
N5B C6B 1_555 1_555
N6B C6B 1_555 1_555
N6A Ag1 1_555 1_555
N6C Ag1 1_555 1_555
C1B N1B 1_555 1_555
H2B C1B 1_555 1_555
C2B N1B 1_555 1_555
H3B C2B 1_555 1_555
C3B N3B 1_555 1_555
H4B C3B 1_555 1_555
H5B C3B 1_555 1_555
C4B O1B 1_555 1_555
C5B N4B 1_555 1_555
H6B C5B 1_555 1_555
H7B C5B 1_555 1_555
C6B H8B 1_555 1_555
C7B N4B 1_555 1_555
H9B C7B 1_555 1_555
C8B C4B 1_555 1_555
C9B C8B 1_555 1_555
C10B C9B 1_555 1_555
H10B C10B 1_555 1_555
C11B C10B 1_555 1_555
C12B C11B 1_555 1_555
H11B C12B 1_555 1_555
C13B C8B 1_555 1_555
H12B C13B 1_555 1_555
O2B Cl1 1_555 1_555
O4B Cl1 1_555 1_555
N6 C7 1_555 1_555
C3 C4 1_555 1_555
C4 C5 1_555 1_555
C12 C13 1_555 1_555
N2B C1B 1_555 1_555
N6B C7B 1_555 1_555
C3B C4B 1_555 1_555
C4B C5B 1_555 1_555
C12B C13B 1_555 1_555

#END
