
#######################################################################
#
#                 Cambridge Crystallographic Data Centre
#                                CCDC 
#
#######################################################################
#
# If this CIF has been generated from an entry in the Cambridge 
# Structural Database, then it will include bibliographic, chemical, 
# crystal, experimental, refinement or atomic coordinate data resulting 
# from the CCDC's data processing and validation procedures.
#
#######################################################################

data_DIFTUJ
_symmetry_cell_setting           orthorhombic
_symmetry_space_group_name_H-M   'P n m a'
_symmetry_Int_Tables_number      62
_space_group_name_Hall           '-P 2ac 2n'
loop_
_symmetry_equiv_pos_site_id
_symmetry_equiv_pos_as_xyz
1 x,y,z
2 1/2-x,-y,1/2+z
3 1/2+x,1/2-y,1/2-z
4 -x,1/2+y,-z
5 -x,-y,-z
6 1/2+x,y,1/2-z
7 1/2-x,1/2+y,1/2+z
8 x,1/2-y,z
_cell_length_a                   6.8817(10)
_cell_length_b                   6.9638(11)
_cell_length_c                   12.3063(16)
_cell_angle_alpha                90
_cell_angle_beta                 90
_cell_angle_gamma                90
_cell_volume                     589.752
loop_
_atom_site_label
_atom_site_type_symbol
_atom_site_fract_x
_atom_site_fract_y
_atom_site_fract_z
Cl1 Cl 1.36901(8) 0.2500 0.47781(5)
Na1 Na 1.12738(12) 0.2500 0.78033(7)
N1 N 0.8368(3) 0.2500 0.54748(15)
O1 O 0.86807(17) 0.01559(18) 0.77624(10)
N2 N 0.8270(3) 0.2500 0.44083(15)
N3 N 1.0247(3) 0.2500 0.57918(14)
N4 N 1.0083(3) 0.2500 0.39913(13)
C1 C 1.1215(3) 0.2500 0.48559(17)
H1 H 0.836(3) -0.045(3) 0.8238(19)
H2 H 0.902(3) -0.060(4) 0.7288(18)
O1G O 0.86807(17) 0.48441(18) 0.77624(10)
H1G H 0.836(3) 0.545(3) 0.8238(19)
H2G H 0.902(3) 0.560(4) 0.7288(18)
Na1B Na 0.62738(12) 0.2500 0.71967(7)
N1B N 1.3368(3) 0.2500 0.95252(15)
O1B O 1.36807(17) 0.48441(18) 0.72376(10)
O1E O 1.36807(17) 0.01559(18) 0.72376(10)
loop_
_geom_bond_atom_site_label_1
_geom_bond_atom_site_label_2
_geom_bond_site_symmetry_1
_geom_bond_site_symmetry_2
Cl1 C1 1_555 1_555
Na1 O1 1_555 1_555
N1 N2 1_555 1_555
O1 H1 1_555 1_555
N2 N4 1_555 1_555
N3 Na1 1_555 1_555
N4 C1 1_555 1_555
C1 N3 1_555 1_555
H2 O1 1_555 1_555
O1G Na1 1_555 1_555
H1G O1G 1_555 1_555
H2G O1G 1_555 1_555
Na1B N1 1_555 1_555
N1B Na1 1_555 1_555
O1B Na1 1_555 1_555
O1E Na1 1_555 1_555
N1 N3 1_555 1_555
O1 Na1B 1_555 1_555
O1G Na1B 1_555 1_555

#END
