
#######################################################################
#
#                 Cambridge Crystallographic Data Centre
#                                CCDC 
#
#######################################################################
#
# If this CIF has been generated from an entry in the Cambridge 
# Structural Database, then it will include bibliographic, chemical, 
# crystal, experimental, refinement or atomic coordinate data resulting 
# from the CCDC's data processing and validation procedures.
#
#######################################################################

data_DIFTUJ01
_symmetry_cell_setting           orthorhombic
_symmetry_space_group_name_H-M   'P n m a'
_symmetry_Int_Tables_number      62
_space_group_name_Hall           '-P 2ac 2n'
loop_
_symmetry_equiv_pos_site_id
_symmetry_equiv_pos_as_xyz
1 x,y,z
2 1/2-x,-y,1/2+z
3 -x,1/2+y,-z
4 1/2+x,1/2-y,1/2-z
5 -x,-y,-z
6 1/2+x,y,1/2-z
7 x,1/2-y,z
8 1/2-x,1/2+y,1/2+z
_cell_length_a                   6.8611(19)
_cell_length_b                   6.9243(19)
_cell_length_c                   12.281(4)
_cell_angle_alpha                90
_cell_angle_beta                 90
_cell_angle_gamma                90
_cell_volume                     583.45
loop_
_atom_site_label
_atom_site_type_symbol
_atom_site_fract_x
_atom_site_fract_y
_atom_site_fract_z
Cl1 Cl 0.13005(5) 0.7500 0.47816(3)
N1 N 0.49162(17) 0.7500 0.39888(8)
N2 N 0.67385(18) 0.7500 0.44077(9)
N3 N 0.66401(18) 0.7500 0.54788(9)
N4 N 0.47558(17) 0.7500 0.57950(9)
C1 C 0.37765(19) 0.7500 0.48634(10)
Na1 Na 0.87297(8) 0.7500 0.71953(4)
O1 O 0.63217(10) 0.51508(11) 0.77630(5)
H1 H 0.666(2) 0.450(3) 0.8247(15)
H2 H 0.595(2) 0.442(3) 0.7299(14)
O1F O 0.63217(10) 0.98492(11) 0.77630(5)
H1F H 0.666(2) 1.050(3) 0.8247(15)
H2F H 0.595(2) 1.058(3) 0.7299(14)
N4C N 0.97558(17) 0.7500 0.92050(9)
Na1C Na 0.37297(8) 0.7500 0.78047(4)
O1C O 1.13217(10) 0.98492(11) 0.72370(5)
O1E O 1.13217(10) 0.51508(11) 0.72370(5)
loop_
_geom_bond_atom_site_label_1
_geom_bond_atom_site_label_2
_geom_bond_site_symmetry_1
_geom_bond_site_symmetry_2
Cl1 C1 1_555 1_555
N1 N2 1_555 1_555
N2 N3 1_555 1_555
N3 N4 1_555 1_555
N4 C1 1_555 1_555
C1 N1 1_555 1_555
Na1 N3 1_555 1_555
O1 Na1 1_555 1_555
H1 O1 1_555 1_555
H2 O1 1_555 1_555
O1F Na1 1_555 1_555
H1F O1F 1_555 1_555
H2F O1F 1_555 1_555
N4C Na1 1_555 1_555
Na1C N4 1_555 1_555
O1C Na1 1_555 1_555
O1E Na1 1_555 1_555
O1 Na1C 1_555 1_555
O1F Na1C 1_555 1_555

#END
