
#######################################################################
#
#                 Cambridge Crystallographic Data Centre
#                                CCDC 
#
#######################################################################
#
# If this CIF has been generated from an entry in the Cambridge 
# Structural Database, then it will include bibliographic, chemical, 
# crystal, experimental, refinement or atomic coordinate data resulting 
# from the CCDC's data processing and validation procedures.
#
#######################################################################

data_DIFTOD
_symmetry_cell_setting           triclinic
_symmetry_space_group_name_H-M   'P -1'
_symmetry_Int_Tables_number      2
_space_group_name_Hall           '-P 1'
loop_
_symmetry_equiv_pos_site_id
_symmetry_equiv_pos_as_xyz
1 x,y,z
2 -x,-y,-z
_cell_length_a                   7.470(5)
_cell_length_b                   9.708(5)
_cell_length_c                   13.350(5)
_cell_angle_alpha                88.609(5)
_cell_angle_beta                 74.572(5)
_cell_angle_gamma                68.409(5)
_cell_volume                     864.826
loop_
_atom_site_label
_atom_site_type_symbol
_atom_site_fract_x
_atom_site_fract_y
_atom_site_fract_z
Ag1 Ag 0.29687(2) -0.18246(2) 0.554844(12)
S1 S 0.71631(7) -0.41961(6) 0.37528(4)
K1 K 0.17772(6) 0.25525(5) 0.41850(4)
S2 S -0.04855(7) -0.10256(6) 0.78777(4)
O1 O 0.6205(2) -0.5210(2) 0.36421(14)
O2 O 0.1062(2) -0.1536(2) 0.84119(13)
O3 O -0.1489(2) -0.2035(2) 0.78348(14)
O4 O 0.8647(2) -0.47392(19) 0.43249(13)
N1 N 0.0340(3) -0.0557(2) 0.67251(15)
O5 O -0.0164(2) 0.1543(2) 0.58342(13)
N2 N 0.5548(3) -0.2558(2) 0.42407(15)
O6 O 0.4522(2) -0.0178(2) 0.37489(14)
C1 C -0.2102(3) 0.1712(3) 0.76161(17)
O7 O 0.4664(3) 0.3142(2) 0.26925(17)
H1 H 0.5695 0.2343 0.2485
H2 H 0.4208 0.3482 0.2177
C2 C -0.2237(3) 0.0760(3) 0.83944(17)
C3 C 0.8174(3) -0.3644(3) 0.25366(17)
C4 C -0.3288(3) 0.3218(3) 0.78051(19)
H3 H -0.3202 0.3870 0.7289
C5 C 0.7178(3) -0.2119(3) 0.25536(17)
C6 C 0.9676(3) -0.4482(3) 0.16799(18)
H4 H 1.0332 -0.5503 0.1679
C7 C -0.4616(3) 0.3716(3) 0.8798(2)
H5 H -0.5432 0.4718 0.8943
C8 C -0.0568(3) 0.0924(3) 0.66299(17)
C9 C 1.0153(3) -0.3710(3) 0.08190(18)
H6 H 1.1147 -0.4232 0.0226
C10 C 0.9180(3) -0.2177(3) 0.08222(18)
H7 H 0.9544 -0.1695 0.0238
C11 C 0.7663(3) -0.1362(3) 0.16938(18)
H8 H 0.6998 -0.0342 0.1698
C12 C 0.5625(3) -0.1490(3) 0.35575(17)
C13 C -0.4742(3) 0.2746(3) 0.95718(19)
H9 H -0.5645 0.3107 1.0225
C14 C -0.3532(3) 0.1236(3) 0.93830(18)
H10 H -0.3594 0.0580 0.9899
K1_2 K 1.17772(6) -0.74475(5) 0.41850(4)
K1A K -0.17772(6) -0.25525(5) 0.58150(4)
K1A_2 K 0.82228(6) -0.25525(5) 0.58150(4)
O3A O 0.1489(2) 0.2035(2) 0.21652(14)
O4_2 O -0.1353(2) 0.52608(19) 0.43249(13)
O4A O 0.1353(2) 0.47392(19) 0.56751(13)
N1A N -0.0340(3) 0.0557(2) 0.32749(15)
N2A N 0.4452(3) 0.2558(2) 0.57593(15)
loop_
_geom_bond_atom_site_label_1
_geom_bond_atom_site_label_2
_geom_bond_site_symmetry_1
_geom_bond_site_symmetry_2
Ag1 N1 1_555 1_555
S1 O1 1_555 1_555
K1 O5 1_555 1_555
S2 O2 1_555 1_555
O3 S2 1_555 1_555
O4 S1 1_555 1_555
N1 S2 1_555 1_555
O5 C8 1_555 1_555
N2 Ag1 1_555 1_555
O6 K1 1_555 1_555
C1 C2 1_555 1_555
O7 K1 1_555 1_555
H1 O7 1_555 1_555
H2 O7 1_555 1_555
C2 S2 1_555 1_555
C3 S1 1_555 1_555
C4 C1 1_555 1_555
H3 C4 1_555 1_555
C5 C3 1_555 1_555
C6 C3 1_555 1_555
H4 C6 1_555 1_555
C7 C4 1_555 1_555
H5 C7 1_555 1_555
C8 N1 1_555 1_555
C9 C6 1_555 1_555
H6 C9 1_555 1_555
C10 C9 1_555 1_555
H7 C10 1_555 1_555
C11 C5 1_555 1_555
H8 C11 1_555 1_555
C12 N2 1_555 1_555
C13 C7 1_555 1_555
H9 C13 1_555 1_555
C14 C2 1_555 1_555
H10 C14 1_555 1_555
K1_2 O4 1_555 1_555
K1A O3 1_555 1_555
K1A_2 O4 1_555 1_555
O3A K1 1_555 1_555
O4_2 K1 1_555 1_555
O4A K1 1_555 1_555
N1A K1 1_555 1_555
N2A K1 1_555 1_555
S1 N2 1_555 1_555
N1 K1A 1_555 1_555
N2 K1A_2 1_555 1_555
O6 C12 1_555 1_555
C1 C8 1_555 1_555
C5 C12 1_555 1_555
C10 C11 1_555 1_555
C13 C14 1_555 1_555

#END
