
#######################################################################
#
#                 Cambridge Crystallographic Data Centre
#                                CCDC 
#
#######################################################################
#
# If this CIF has been generated from an entry in the Cambridge 
# Structural Database, then it will include bibliographic, chemical, 
# crystal, experimental, refinement or atomic coordinate data resulting 
# from the CCDC's data processing and validation procedures.
#
#######################################################################

data_DIFWEW
_symmetry_cell_setting           monoclinic
_symmetry_space_group_name_H-M   'P 21/n'
_symmetry_Int_Tables_number      14
_space_group_name_Hall           '-P 2yn'
loop_
_symmetry_equiv_pos_site_id
_symmetry_equiv_pos_as_xyz
1 x,y,z
2 1/2-x,1/2+y,1/2-z
3 -x,-y,-z
4 1/2+x,1/2-y,1/2+z
_cell_length_a                   15.786(3)
_cell_length_b                   9.866(2)
_cell_length_c                   20.468(4)
_cell_angle_alpha                90
_cell_angle_beta                 106.93(3)
_cell_angle_gamma                90
_cell_volume                     3049.63
loop_
_atom_site_label
_atom_site_type_symbol
_atom_site_fract_x
_atom_site_fract_y
_atom_site_fract_z
Gd1 Gd 0.245192(9) 0.639034(14) 0.005727(7)
O1 O 0.24582(14) 0.5288(2) 0.11340(10)
N1 N 0.25717(15) 0.3866(2) 0.00804(12)
C1 C 0.26050(19) 0.3169(3) 0.06475(14)
Sr1 Sr 0.105006(19) 0.37405(3) 0.217718(14)
O2 O 0.24441(14) 0.3435(2) 0.17564(10)
N2 N 0.35256(16) 0.7718(2) -0.03885(12)
C2 C 0.2690(2) 0.1777(3) 0.06770(16)
H1 H 0.2734 0.1314 0.1081
O3 O 0.25656(14) 0.5352(2) -0.09850(10)
N3 N 0.11985(16) 0.7494(2) 0.03928(12)
C3 C 0.2708(2) 0.1082(3) 0.00944(17)
H2 H 0.2760 0.0143 0.0100
O4 O 0.25173(15) 0.3542(2) -0.16444(10)
C4 C 0.2649(2) 0.1805(3) -0.04977(16)
H3 H 0.2644 0.1359 -0.0899
O5 O 0.40074(14) 0.5967(2) 0.06160(10)
C5 C 0.25970(19) 0.3198(3) -0.04811(14)
O6 O 0.54427(15) 0.6259(2) 0.07118(13)
C6 C 0.24979(19) 0.4018(3) 0.12309(14)
O7 O 0.18132(14) 0.8094(2) -0.08053(10)
C7 C 0.25617(19) 0.4092(3) -0.10867(14)
C8 C 0.4393(2) 0.7458(3) -0.01476(15)
O8 O 0.18912(15) 0.9249(2) -0.17228(11)
O9 O 0.28568(13) 0.8133(2) 0.09331(10)
C9 C 0.4995(2) 0.8047(4) -0.04400(18)
H4 H 0.5596 0.7856 -0.0270
C10 C 0.4690(3) 0.8917(4) -0.09854(19)
H5 H 0.5086 0.9340 -0.1178
O10 O 0.25596(14) 0.9303(2) 0.17750(10)
O11 O 0.09673(13) 0.5561(2) -0.05231(10)
C11 C 0.3790(2) 0.9157(3) -0.12432(16)
H6 H 0.3568 0.9724 -0.1617
C12 C 0.3231(2) 0.8525(3) -0.09263(15)
O12 O -0.04972(14) 0.5894(2) -0.08809(10)
C13 C 0.4645(2) 0.6482(3) 0.04402(16)
O13 O -0.05156(15) 0.4919(2) 0.19293(11)
H7 H -0.0741 0.4814 0.1502
H8 H -0.0968 0.4735 0.2059
C14 C 0.2232(2) 0.8650(3) -0.11821(15)
O14 O -0.00837(15) 0.1810(2) 0.16854(12)
H9 H -0.0491 0.1362 0.1782
H10 H -0.0311 0.2124 0.1286
O15 O 0.13262(18) 0.6353(2) 0.21525(16)
H11 H 0.1626 0.6451 0.1871
H12 H 0.1448 0.7038 0.2415
C15 C 0.1362(2) 0.8442(3) 0.08774(15)
O16 O 0.16796(16) 0.1288(2) 0.25567(12)
H13 H 0.1910 0.0943 0.2949
H14 H 0.1946 0.0950 0.2289
C16 C 0.0692(2) 0.9140(4) 0.10408(18)
H15 H 0.0822 0.9803 0.1379
O17 O 0.04622(16) 0.3420(3) 0.31944(12)
H16 H 0.0875 0.3133 0.3533
H17 H 0.0006 0.3916 0.3046
C17 C -0.0180(2) 0.8827(4) 0.0687(2)
H18 H -0.0647 0.9287 0.0780
C18 C -0.0343(2) 0.7830(4) 0.01990(18)
H19 H -0.0922 0.7592 -0.0034
C19 C 0.0356(2) 0.7182(3) 0.00542(15)
C20 C 0.2336(2) 0.8661(3) 0.12303(14)
C21 C 0.0258(2) 0.6123(3) -0.04905(15)
Sr1A Sr 0.394994(19) 0.87405(3) 0.282282(14)
Sr1B Sr -0.105006(19) 0.62595(3) -0.217718(14)
O10A O 0.24404(14) 0.4303(2) 0.32250(10)
O12B O 0.04972(14) 0.4106(2) 0.08809(10)
C22 C 0.6407(2) 0.3859(3) 0.20798(16)
H20 H 0.6967 0.3996 0.2030
C23 C 0.4987(3) 0.4015(4) 0.1955(2)
H21 H 0.4399 0.4292 0.1794
N4 N 0.56766(19) 0.4477(3) 0.17377(14)
H22 H 0.5638 0.5077 0.1426
C24 C 0.5319(3) 0.3086(4) 0.24443(19)
H23 H 0.5009 0.2598 0.2689
N5 N 0.62007(19) 0.3003(3) 0.25100(14)
H24 H 0.6569 0.2475 0.2788
O18 O 0.63180(16) 0.7776(2) 0.22348(11)
H25 H 0.6368 0.7794 0.2660
H26 H 0.6779 0.7389 0.2190
loop_
_geom_bond_atom_site_label_1
_geom_bond_atom_site_label_2
_geom_bond_site_symmetry_1
_geom_bond_site_symmetry_2
Gd1 O1 1_555 1_555
O1 C6 1_555 1_555
N1 Gd1 1_555 1_555
C1 N1 1_555 1_555
Sr1 O2 1_555 1_555
O2 C6 1_555 1_555
N2 Gd1 1_555 1_555
C2 C1 1_555 1_555
H1 C2 1_555 1_555
O3 Gd1 1_555 1_555
N3 Gd1 1_555 1_555
C3 C2 1_555 1_555
H2 C3 1_555 1_555
O4 C7 1_555 1_555
C4 C3 1_555 1_555
H3 C4 1_555 1_555
O5 Gd1 1_555 1_555
C5 N1 1_555 1_555
O6 C13 1_555 1_555
C6 C1 1_555 1_555
O7 Gd1 1_555 1_555
C7 O3 1_555 1_555
C8 N2 1_555 1_555
O8 C14 1_555 1_555
O9 Gd1 1_555 1_555
C9 C8 1_555 1_555
H4 C9 1_555 1_555
C10 C9 1_555 1_555
H5 C10 1_555 1_555
O10 C20 1_555 1_555
O11 Gd1 1_555 1_555
C11 C10 1_555 1_555
H6 C11 1_555 1_555
C12 N2 1_555 1_555
O12 C21 1_555 1_555
C13 O5 1_555 1_555
O13 Sr1 1_555 1_555
H7 O13 1_555 1_555
H8 O13 1_555 1_555
C14 O7 1_555 1_555
O14 Sr1 1_555 1_555
H9 O14 1_555 1_555
H10 O14 1_555 1_555
O15 Sr1 1_555 1_555
H11 O15 1_555 1_555
H12 O15 1_555 1_555
C15 N3 1_555 1_555
O16 Sr1 1_555 1_555
H13 O16 1_555 1_555
H14 O16 1_555 1_555
C16 C15 1_555 1_555
H15 C16 1_555 1_555
O17 Sr1 1_555 1_555
H16 O17 1_555 1_555
H17 O17 1_555 1_555
C17 C16 1_555 1_555
H18 C17 1_555 1_555
C18 C17 1_555 1_555
H19 C18 1_555 1_555
C19 N3 1_555 1_555
C20 O9 1_555 1_555
C21 O11 1_555 1_555
C22 H20 1_555 1_555
C23 H21 1_555 1_555
N4 C22 1_555 1_555
H22 N4 1_555 1_555
C24 C23 1_555 1_555
H23 C24 1_555 1_555
N5 C22 1_555 1_555
H24 N5 1_555 1_555
O18 H25 1_555 1_555
H26 O18 1_555 1_555
Sr1A O10 1_555 1_555
Sr1B O12 1_555 1_555
O10A Sr1 1_555 1_555
O12B Sr1 1_555 1_555
C4 C5 1_555 1_555
C5 C7 1_555 1_555
C8 C13 1_555 1_555
C11 C12 1_555 1_555
C12 C14 1_555 1_555
C15 C20 1_555 1_555
C18 C19 1_555 1_555
C19 C21 1_555 1_555
C23 N4 1_555 1_555
C24 N5 1_555 1_555

#END
