
#######################################################################
#
#                 Cambridge Crystallographic Data Centre
#                                CCDC 
#
#######################################################################
#
# If this CIF has been generated from an entry in the Cambridge 
# Structural Database, then it will include bibliographic, chemical, 
# crystal, experimental, refinement or atomic coordinate data resulting 
# from the CCDC's data processing and validation procedures.
#
#######################################################################

data_DIFXUN
_symmetry_cell_setting           triclinic
_symmetry_space_group_name_H-M   'P -1'
_symmetry_Int_Tables_number      2
_space_group_name_Hall           '-P 1'
loop_
_symmetry_equiv_pos_site_id
_symmetry_equiv_pos_as_xyz
1 x,y,z
2 -x,-y,-z
_cell_length_a                   7.2961(9)
_cell_length_b                   8.3402(10)
_cell_length_c                   8.4053(10)
_cell_angle_alpha                73.040(5)
_cell_angle_beta                 68.185(5)
_cell_angle_gamma                77.805(6)
_cell_volume                     451.136
loop_
_atom_site_label
_atom_site_type_symbol
_atom_site_fract_x
_atom_site_fract_y
_atom_site_fract_z
Cd1 Cd 0.0000 0.0000 0.5000
N1 N 0.16679(14) 0.17887(12) 0.57390(14)
N2 N 0.37035(15) 0.30967(13) 0.61966(15)
N3 N 0.18851(16) 0.39575(14) 0.65587(16)
N4 N 0.06728(15) 0.31778(13) 0.62866(15)
N5 N 0.51780(14) 0.05861(12) 0.52223(13)
N6 N 0.25188(16) 0.00335(15) 0.22369(15)
N7 N -0.10152(16) 0.23454(13) 0.30383(15)
C1 C 0.35197(15) 0.17781(13) 0.56987(14)
C2 C 0.0569(2) 0.2664(2) 0.1334(2)
C3 C 0.1679(2) 0.1016(2) 0.08713(19)
H1 H 0.341(3) 0.054(3) 0.219(3)
H2 H -0.198(3) 0.212(2) 0.288(2)
H3 H 0.296(3) -0.094(3) 0.215(3)
H4 H 0.152(2) 0.324(2) 0.142(3)
H5 H -0.139(3) 0.322(3) 0.343(3)
H6 H 0.072(3) 0.041(3) 0.083(3)
H7 H 0.002(4) 0.340(3) 0.047(3)
H8 H 0.264(2) 0.122(3) -0.0293(11)
N1A N 0.83321(14) -0.17887(12) 0.42610(14)
N2A N 0.62965(15) -0.30967(13) 0.38034(15)
N3A N 0.81149(16) -0.39575(14) 0.34413(16)
N4A N 0.93272(15) -0.31778(13) 0.37134(15)
N5A N 0.48220(14) -0.05861(12) 0.47777(13)
C1A C 0.64803(15) -0.17781(13) 0.43013(14)
N6A N -0.25188(16) -0.00335(15) 0.77631(15)
N7A N 0.10152(16) -0.23454(13) 0.69617(15)
C2A C -0.0569(2) -0.2664(2) 0.8666(2)
C3A C -0.1679(2) -0.1016(2) 0.91287(19)
H1A H -0.341(3) -0.054(3) 0.781(3)
H2A H 0.198(3) -0.212(2) 0.712(2)
H3A H -0.296(3) 0.094(3) 0.785(3)
H4A H -0.152(2) -0.324(2) 0.858(3)
H5A H 0.139(3) -0.322(3) 0.657(3)
H6A H -0.072(3) -0.041(3) 0.917(3)
H7A H -0.002(4) -0.340(3) 0.953(3)
H8A H -0.264(2) -0.122(3) 1.0293(11)
Cd1_2 Cd 1.0000 0.0000 0.5000
N1A_2 N -0.16679(14) -0.17887(12) 0.42610(14)
O1 O 0.36596(17) 0.59486(15) 0.23834(15)
H9 H 0.419(4) 0.610(3) 0.293(3)
H10 H 0.254(4) 0.612(3) 0.289(3)
O2 O 0.5531(2) 0.27366(16) 0.13415(17)
H11 H 0.587(3) 0.301(2) 0.0262(2)
H12 H 0.486(3) 0.3535(17) 0.175(2)
loop_
_geom_bond_atom_site_label_1
_geom_bond_atom_site_label_2
_geom_bond_site_symmetry_1
_geom_bond_site_symmetry_2
Cd1 N1 1_555 1_555
N1 N4 1_555 1_555
N2 N3 1_555 1_555
N3 N4 1_555 1_555
N5 C1 1_555 1_555
N6 Cd1 1_555 1_555
N7 Cd1 1_555 1_555
C1 N1 1_555 1_555
C2 N7 1_555 1_555
C3 N6 1_555 1_555
H1 N6 1_555 1_555
H2 N7 1_555 1_555
H3 N6 1_555 1_555
H4 C2 1_555 1_555
H5 N7 1_555 1_555
H6 C3 1_555 1_555
H7 C2 1_555 1_555
H8 C3 1_555 1_555
O1 H9 1_555 1_555
H10 O1 1_555 1_555
O2 H11 1_555 1_555
H12 O2 1_555 1_555
N1A N4A 1_555 1_555
N2A N3A 1_555 1_555
N3A N4A 1_555 1_555
N5A N5 1_555 1_555
C1A N1A 1_555 1_555
N6A Cd1 1_555 1_555
N7A Cd1 1_555 1_555
C2A N7A 1_555 1_555
C3A N6A 1_555 1_555
H1A N6A 1_555 1_555
H2A N7A 1_555 1_555
H3A N6A 1_555 1_555
H4A C2A 1_555 1_555
H5A N7A 1_555 1_555
H6A C3A 1_555 1_555
H7A C2A 1_555 1_555
H8A C3A 1_555 1_555
Cd1_2 N1A 1_555 1_555
N1A_2 Cd1 1_555 1_555
N2 C1 1_555 1_555
C2 C3 1_555 1_555
N2A C1A 1_555 1_555
N5A C1A 1_555 1_555
C2A C3A 1_555 1_555

#END
